Molecule 2
  CDK     0516241031

 27 30  0  0  0  0  0  0  0  0999 V2000
    1.3608    3.8760    0.0000 C   0  0  0  0  0  0  0  0  0  0  0  0
    2.5732    2.9927    0.0000 C   0  0  0  0  0  0  0  0  0  0  0  0
    2.4144    1.5011    0.0000 C   0  0  2  0  0  0  0  0  0  0  0  0
    1.1144    2.2511    0.0000 C   0  0  0  0  0  0  0  0  0  0  0  0
   -0.1856    1.5011    0.0000 C   0  0  0  0  0  0  0  0  0  0  0  0
   -0.1856    0.0011    0.0000 C   0  0  2  0  0  0  0  0  0  0  0  0
   -1.4856   -0.7489    0.0000 C   0  0  1  0  0  0  0  0  0  0  0  0
   -2.7856    0.0011    0.0000 C   0  0  0  0  0  0  0  0  0  0  0  0
   -4.0856   -0.7489    0.0000 C   0  0  0  0  0  0  0  0  0  0  0  0
   -4.0856   -2.2489    0.0000 C   0  0  0  0  0  0  0  0  0  0  0  0
   -5.3845   -2.9991    0.0000 N   0  0  0  0  0  0  0  0  0  0  0  0
   -6.6836   -2.2493    0.0000 O   0  0  0  0  0  0  0  0  0  0  0  0
   -2.7856   -2.9989    0.0000 C   0  0  0  0  0  0  0  0  0  0  0  0
   -1.4856   -2.2489    0.0000 C   0  0  0  0  0  0  0  0  0  0  0  0
   -0.1856   -2.9989    0.0000 C   0  0  0  0  0  0  0  0  0  0  0  0
    1.1144   -2.2489    0.0000 C   0  0  0  0  0  0  0  0  0  0  0  0
    1.1144   -0.7489    0.0000 C   0  0  1  0  0  0  0  0  0  0  0  0
    2.4144    0.0011    0.0000 C   0  0  2  0  0  0  0  0  0  0  0  0
    3.8444   -0.4589    0.0000 C   0  0  0  0  0  0  0  0  0  0  0  0
    4.7244    0.7511    0.0000 C   0  0  0  0  0  0  0  0  0  0  0  0
    3.8444    1.9611    0.0000 C   0  0  1  0  0  0  0  0  0  0  0  0
    5.1440    2.7103    0.0000 C   0  0  0  0  0  0  0  0  0  0  0  0
    6.4435    3.4594    0.0000 C   0  0  0  0  0  0  0  0  0  0  0  0
    3.0424    3.7714    0.0000 O   0  0  0  0  0  0  0  0  0  0  0  0
    3.9262    4.9834    0.0000 C   0  0  0  0  0  0  0  0  0  0  0  0
    3.3186    6.3548    0.0000 O   0  0  0  0  0  0  0  0  0  0  0  0
    5.4177    4.8239    0.0000 C   0  0  0  0  0  0  0  0  0  0  0  0
  1  2  1  0  0  0  0 
  3  2  1  1  0  0  0 
  3  4  1  0  0  0  0 
  4  5  1  0  0  0  0 
  6  5  1  1  0  0  0 
  6  7  1  0  0  0  0 
  7  8  1  6  0  0  0 
  8  9  1  0  0  0  0 
  9 10  1  0  0  0  0 
 10 11  2  0  0  0  0 
 11 12  1  0  0  0  0 
 10 13  1  0  0  0  0 
 13 14  2  0  0  0  0 
  7 14  1  0  0  0  0 
 14 15  1  0  0  0  0 
 15 16  1  0  0  0  0 
 17 16  1  6  0  0  0 
  6 17  1  0  0  0  0 
 17 18  1  0  0  0  0 
  3 18  1  0  0  0  0 
 18 19  1  1  0  0  0 
 19 20  1  0  0  0  0 
 20 21  1  0  0  0  0 
  3 21  1  0  0  0  0 
 21 22  1  6  0  0  0 
 22 23  3  0  0  0  0 
 21 24  1  1  0  0  0 
 24 25  1  0  0  0  0 
 25 26  2  0  0  0  0 
 25 27  1  0  0  0  0 
M  END
> <SMILES>
C#C[C@]1(OC(C)=O)CC[C@H]2[C@@H]3CCC4=C/C(=N/O)CC[C@@H]4[C@H]3CC[C@@]21CC

$$$$
Molecule 2_metabolite 1
  CDK     0516241031

 78 82  0  0  0  0  0  0  0  0999 V2000
    2.2174    3.9938    0.0000 C   0  0  0  0  0  0  0  0  0  0  0  0
    3.5887    3.3860    0.0000 H   0  0  0  0  0  0  0  0  0  0  0  0
    0.7209    4.0960    0.0000 H   0  0  0  0  0  0  0  0  0  0  0  0
    1.8569    2.5378    0.0000 H   0  0  0  0  0  0  0  0  0  0  0  0
    2.0072    5.9627    0.0000 C   0  0  0  0  0  0  0  0  0  0  0  0
    3.5037    5.8605    0.0000 H   0  0  0  0  0  0  0  0  0  0  0  0
    2.3677    7.4187    0.0000 H   0  0  0  0  0  0  0  0  0  0  0  0
    0.6359    6.5705    0.0000 C   0  0  2  0  0  0  0  0  0  0  0  0
    0.6359    5.0697    0.0000 C   0  0  0  0  0  0  0  0  0  0  0  0
    2.1131    5.3305    0.0000 H   0  0  0  0  0  0  0  0  0  0  0  0
    1.1495    3.6604    0.0000 H   0  0  0  0  0  0  0  0  0  0  0  0
   -0.6634    4.3184    0.0000 C   0  0  0  0  0  0  0  0  0  0  0  0
    0.3014    3.1699    0.0000 H   0  0  0  0  0  0  0  0  0  0  0  0
   -1.6271    3.1690    0.0000 H   0  0  0  0  0  0  0  0  0  0  0  0
   -1.9627    5.0680    0.0000 C   0  0  2  0  0  0  0  0  0  0  0  0
   -3.2623    5.8170    0.0000 H   0  0  0  0  0  0  0  0  0  0  0  0
   -3.2619    4.3168    0.0000 C   0  0  1  0  0  0  0  0  0  0  0  0
   -4.5612    3.5672    0.0000 H   0  0  0  0  0  0  0  0  0  0  0  0
   -3.2619    2.8159    0.0000 C   0  0  0  0  0  0  0  0  0  0  0  0
   -1.7847    2.5558    0.0000 H   0  0  0  0  0  0  0  0  0  0  0  0
   -2.7483    1.4066    0.0000 H   0  0  0  0  0  0  0  0  0  0  0  0
   -4.5612    2.0647    0.0000 C   0  0  0  0  0  0  0  0  0  0  0  0
   -3.5964    0.9161    0.0000 H   0  0  0  0  0  0  0  0  0  0  0  0
   -5.5249    0.9152    0.0000 H   0  0  0  0  0  0  0  0  0  0  0  0
   -5.8605    2.8143    0.0000 C   0  0  0  0  0  0  0  0  0  0  0  0
   -7.1594    2.0641    0.0000 N   0  0  0  0  0  0  0  0  0  0  0  0
   -7.1592    0.5641    0.0000 O   0  0  0  0  0  0  0  0  0  0  0  0
   -8.4581   -0.1861    0.0000 C   0  0  0  0  0  0  0  0  0  0  0  0
   -8.9746    1.2221    0.0000 H   0  0  0  0  0  0  0  0  0  0  0  0
   -7.5028   -1.3296    0.0000 C   0  0  0  0  0  0  0  0  0  0  0  0
   -6.2060   -2.0834    0.0000 H   0  0  0  0  0  0  0  0  0  0  0  0
   -8.0285   -2.7591    0.0000 C   0  0  0  0  0  0  0  0  0  0  0  0
   -8.0377   -4.2591    0.0000 H   0  0  0  0  0  0  0  0  0  0  0  0
   -9.5134   -3.0094    0.0000 C   0  0  0  0  0  0  0  0  0  0  0  0
  -10.8154   -3.7543    0.0000 H   0  0  0  0  0  0  0  0  0  0  0  0
  -10.4687   -1.8659    0.0000 C   0  0  0  0  0  0  0  0  0  0  0  0
  -11.7660   -1.1129    0.0000 H   0  0  0  0  0  0  0  0  0  0  0  0
  -12.0542   -3.7468    0.0000 C   0  0  0  0  0  0  0  0  0  0  0  0
  -11.5444   -5.1575    0.0000 O   0  0  0  0  0  0  0  0  0  0  0  0
  -13.5308   -3.4831    0.0000 O   0  0  0  0  0  0  0  0  0  0  0  0
  -14.4976   -4.6300    0.0000 H   0  0  0  0  0  0  0  0  0  0  0  0
   -9.9519   -0.4569    0.0000 O   0  0  0  0  0  0  0  0  0  0  0  0
   -9.0085   -4.4219    0.0000 O   0  0  0  0  0  0  0  0  0  0  0  0
   -9.9793   -5.5654    0.0000 H   0  0  0  0  0  0  0  0  0  0  0  0
   -6.5525   -3.0266    0.0000 O   0  0  0  0  0  0  0  0  0  0  0  0
   -6.0462   -4.4386    0.0000 H   0  0  0  0  0  0  0  0  0  0  0  0
   -6.5357   -0.1830    0.0000 O   0  0  0  0  0  0  0  0  0  0  0  0
   -5.0591   -0.4472    0.0000 H   0  0  0  0  0  0  0  0  0  0  0  0
   -5.8605    4.3151    0.0000 C   0  0  0  0  0  0  0  0  0  0  0  0
   -7.1598    5.0647    0.0000 H   0  0  0  0  0  0  0  0  0  0  0  0
   -4.5612    5.0664    0.0000 C   0  0  0  0  0  0  0  0  0  0  0  0
   -4.5612    6.5672    0.0000 C   0  0  0  0  0  0  0  0  0  0  0  0
   -6.0384    6.3064    0.0000 H   0  0  0  0  0  0  0  0  0  0  0  0
   -5.0749    7.9765    0.0000 H   0  0  0  0  0  0  0  0  0  0  0  0
   -3.2619    7.3184    0.0000 C   0  0  0  0  0  0  0  0  0  0  0  0
   -4.2267    8.4670    0.0000 H   0  0  0  0  0  0  0  0  0  0  0  0
   -3.7747    5.9088    0.0000 H   0  0  0  0  0  0  0  0  0  0  0  0
   -1.9627    6.5689    0.0000 C   0  0  1  0  0  0  0  0  0  0  0  0
   -1.9634    8.0689    0.0000 H   0  0  0  0  0  0  0  0  0  0  0  0
   -0.6634    7.3201    0.0000 C   0  0  2  0  0  0  0  0  0  0  0  0
    0.8051    7.6258    0.0000 H   0  0  0  0  0  0  0  0  0  0  0  0
   -0.3472    8.7886    0.0000 C   0  0  0  0  0  0  0  0  0  0  0  0
   -1.8388    8.9476    0.0000 H   0  0  0  0  0  0  0  0  0  0  0  0
   -0.3467   10.2886    0.0000 H   0  0  0  0  0  0  0  0  0  0  0  0
    1.1406    8.9462    0.0000 C   0  0  0  0  0  0  0  0  0  0  0  0
    0.8280   10.4133    0.0000 H   0  0  0  0  0  0  0  0  0  0  0  0
    2.5671    9.4100    0.0000 H   0  0  0  0  0  0  0  0  0  0  0  0
    1.7489    7.5793    0.0000 C   0  0  1  0  0  0  0  0  0  0  0  0
    3.0472    8.3306    0.0000 C   0  0  0  0  0  0  0  0  0  0  0  0
    4.3455    9.0818    0.0000 C   0  0  0  0  0  0  0  0  0  0  0  0
    5.6438    9.8331    0.0000 H   0  0  0  0  0  0  0  0  0  0  0  0
    3.4821    5.2045    0.0000 O   0  0  0  0  0  0  0  0  0  0  0  0
    4.9735    5.3644    0.0000 C   0  0  0  0  0  0  0  0  0  0  0  0
    5.5807    6.7360    0.0000 O   0  0  0  0  0  0  0  0  0  0  0  0
    5.8578    4.1528    0.0000 C   0  0  0  0  0  0  0  0  0  0  0  0
    5.2506    2.7811    0.0000 H   0  0  0  0  0  0  0  0  0  0  0  0
    6.8975    5.2340    0.0000 H   0  0  0  0  0  0  0  0  0  0  0  0
    7.1031    3.3166    0.0000 H   0  0  0  0  0  0  0  0  0  0  0  0
  1  2  1  0  0  0  0 
  1  3  1  0  0  0  0 
  1  4  1  0  0  0  0 
  1  5  1  0  0  0  0 
  5  6  1  0  0  0  0 
  5  7  1  0  0  0  0 
  8  5  1  6  0  0  0 
  8  9  1  0  0  0  0 
  9 10  1  0  0  0  0 
  9 11  1  0  0  0  0 
  9 12  1  0  0  0  0 
 12 13  1  0  0  0  0 
 12 14  1  0  0  0  0 
 12 15  1  0  0  0  0 
 15 16  1  1  0  0  0 
 15 17  1  0  0  0  0 
 17 18  1  6  0  0  0 
 17 19  1  0  0  0  0 
 19 20  1  0  0  0  0 
 19 21  1  0  0  0  0 
 19 22  1  0  0  0  0 
 22 23  1  0  0  0  0 
 22 24  1  0  0  0  0 
 22 25  1  0  0  0  0 
 25 26  2  0  0  0  0 
 26 27  1  0  0  0  0 
 27 28  1  0  0  0  0 
 28 29  1  0  0  0  0 
 28 30  1  0  0  0  0 
 30 31  1  0  0  0  0 
 30 32  1  0  0  0  0 
 32 33  1  0  0  0  0 
 32 34  1  0  0  0  0 
 34 35  1  0  0  0  0 
 34 36  1  0  0  0  0 
 36 37  1  0  0  0  0 
 36 38  1  0  0  0  0 
 38 39  2  0  0  0  0 
 38 40  1  0  0  0  0 
 40 41  1  0  0  0  0 
 36 42  1  0  0  0  0 
 28 42  1  0  0  0  0 
 34 43  1  0  0  0  0 
 43 44  1  0  0  0  0 
 32 45  1  0  0  0  0 
 45 46  1  0  0  0  0 
 30 47  1  0  0  0  0 
 47 48  1  0  0  0  0 
 25 49  1  0  0  0  0 
 49 50  1  0  0  0  0 
 49 51  2  0  0  0  0 
 17 51  1  0  0  0  0 
 51 52  1  0  0  0  0 
 52 53  1  0  0  0  0 
 52 54  1  0  0  0  0 
 52 55  1  0  0  0  0 
 55 56  1  0  0  0  0 
 55 57  1  0  0  0  0 
 55 58  1  0  0  0  0 
 15 58  1  0  0  0  0 
 58 59  1  6  0  0  0 
 58 60  1  0  0  0  0 
  8 60  1  0  0  0  0 
 60 61  1  1  0  0  0 
 60 62  1  0  0  0  0 
 62 63  1  0  0  0  0 
 62 64  1  0  0  0  0 
 62 65  1  0  0  0  0 
 65 66  1  0  0  0  0 
 65 67  1  0  0  0  0 
 65 68  1  0  0  0  0 
  8 68  1  0  0  0  0 
 68 69  1  1  0  0  0 
 69 70  3  0  0  0  0 
 70 71  1  0  0  0  0 
 68 72  1  6  0  0  0 
 72 73  1  0  0  0  0 
 73 74  2  0  0  0  0 
 73 75  1  0  0  0  0 
 75 76  1  0  0  0  0 
 75 77  1  0  0  0  0 
 75 78  1  0  0  0  0 
M  END
> <Rank>
1

> <Priority_score>
0.484

> <Reaction_type>
O-glucuronidation_(N-hydroxyl)

> <Parent_ID>
2

> <Parent_InChI>
InChI=1S/C23H31NO3/c1-4-22-12-10-19-18-9-7-17(24-26)14-16(18)6-8-20(19)21(22)11-13-23(22,5-2)27-15(3)25/h2,14,18-21,26H,4,6-13H2,1,3H3

> <Parent_SMILES>
C#C[C@]1(OC(C)=O)CC[C@H]2[C@@H]3CCC4=C/C(=N/O)CC[C@@H]4[C@H]3CC[C@@]21CC

$$$$
Molecule 2_metabolite 2
  CDK     0516241031

 56 59  0  0  0  0  0  0  0  0999 V2000
    3.2226    1.9987    0.0000 C   0  0  0  0  0  0  0  0  0  0  0  0
    1.8534    1.3861    0.0000 H   0  0  0  0  0  0  0  0  0  0  0  0
    4.2997    3.0427    0.0000 H   0  0  0  0  0  0  0  0  0  0  0  0
    2.3815    3.2407    0.0000 H   0  0  0  0  0  0  0  0  0  0  0  0
    5.6043    0.2750    0.0000 C   0  0  0  0  0  0  0  0  0  0  0  0
    6.2594    1.6244    0.0000 H   0  0  0  0  0  0  0  0  0  0  0  0
    7.0470   -0.1357    0.0000 H   0  0  0  0  0  0  0  0  0  0  0  0
    5.3025   -2.6494    0.0000 C   0  0  2  0  0  0  0  0  0  0  0  0
    4.0025   -1.8994    0.0000 C   0  0  0  0  0  0  0  0  0  0  0  0
    4.9665   -0.7503    0.0000 H   0  0  0  0  0  0  0  0  0  0  0  0
    2.7299   -0.3825    0.0000 H   0  0  0  0  0  0  0  0  0  0  0  0
    2.7025   -2.6494    0.0000 C   0  0  0  0  0  0  0  0  0  0  0  0
    2.1897   -1.2398    0.0000 H   0  0  0  0  0  0  0  0  0  0  0  0
   -0.1928   -2.1386    0.0000 H   0  0  0  0  0  0  0  0  0  0  0  0
    2.7025   -4.1494    0.0000 C   0  0  2  0  0  0  0  0  0  0  0  0
    2.7017   -5.6494    0.0000 H   0  0  0  0  0  0  0  0  0  0  0  0
    1.4025   -4.8994    0.0000 C   0  0  1  0  0  0  0  0  0  0  0  0
    0.1039   -5.6503    0.0000 H   0  0  0  0  0  0  0  0  0  0  0  0
    0.1025   -4.1494    0.0000 C   0  0  0  0  0  0  0  0  0  0  0  0
    1.0665   -3.0003    0.0000 H   0  0  0  0  0  0  0  0  0  0  0  0
   -0.8616   -3.0003    0.0000 H   0  0  0  0  0  0  0  0  0  0  0  0
   -1.1975   -4.8994    0.0000 C   0  0  0  0  0  0  0  0  0  0  0  0
   -1.7103   -3.4898    0.0000 H   0  0  0  0  0  0  0  0  0  0  0  0
   -2.6748   -5.1597    0.0000 H   0  0  0  0  0  0  0  0  0  0  0  0
   -1.1975   -6.3994    0.0000 C   0  0  0  0  0  0  0  0  0  0  0  0
   -2.4965   -7.1496    0.0000 O   0  0  0  0  0  0  0  0  0  0  0  0
    0.1025   -7.1494    0.0000 C   0  0  0  0  0  0  0  0  0  0  0  0
    0.1025   -8.6494    0.0000 H   0  0  0  0  0  0  0  0  0  0  0  0
    1.4025   -6.3994    0.0000 C   0  0  0  0  0  0  0  0  0  0  0  0
    2.7025   -7.1494    0.0000 C   0  0  0  0  0  0  0  0  0  0  0  0
    1.7384   -8.2986    0.0000 H   0  0  0  0  0  0  0  0  0  0  0  0
    3.6665   -8.2986    0.0000 H   0  0  0  0  0  0  0  0  0  0  0  0
    4.0025   -6.3994    0.0000 C   0  0  0  0  0  0  0  0  0  0  0  0
    4.5152   -7.8091    0.0000 H   0  0  0  0  0  0  0  0  0  0  0  0
    2.5252   -6.1391    0.0000 H   0  0  0  0  0  0  0  0  0  0  0  0
    4.0025   -4.8994    0.0000 C   0  0  1  0  0  0  0  0  0  0  0  0
    5.3014   -5.6496    0.0000 H   0  0  0  0  0  0  0  0  0  0  0  0
    5.3025   -4.1494    0.0000 C   0  0  2  0  0  0  0  0  0  0  0  0
    6.3011   -3.0301    0.0000 H   0  0  0  0  0  0  0  0  0  0  0  0
    6.7325   -4.6094    0.0000 C   0  0  0  0  0  0  0  0  0  0  0  0
    6.1248   -5.9808    0.0000 H   0  0  0  0  0  0  0  0  0  0  0  0
    8.0320   -5.3586    0.0000 H   0  0  0  0  0  0  0  0  0  0  0  0
    7.6125   -3.3994    0.0000 C   0  0  0  0  0  0  0  0  0  0  0  0
    8.7257   -4.4048    0.0000 H   0  0  0  0  0  0  0  0  0  0  0  0
    8.7296   -2.3985    0.0000 H   0  0  0  0  0  0  0  0  0  0  0  0
    6.7325   -2.1794    0.0000 C   0  0  1  0  0  0  0  0  0  0  0  0
    8.0324   -1.4309    0.0000 C   0  0  0  0  0  0  0  0  0  0  0  0
    9.3323   -0.6824    0.0000 C   0  0  0  0  0  0  0  0  0  0  0  0
   10.6322    0.0661    0.0000 H   0  0  0  0  0  0  0  0  0  0  0  0
    6.5241    0.7532    0.0000 O   0  0  0  0  0  0  0  0  0  0  0  0
    7.7667    1.5934    0.0000 C   0  0  0  0  0  0  0  0  0  0  0  0
    9.1156    0.9373    0.0000 O   0  0  0  0  0  0  0  0  0  0  0  0
    7.6604    3.0896    0.0000 C   0  0  0  0  0  0  0  0  0  0  0  0
    6.3115    3.7456    0.0000 H   0  0  0  0  0  0  0  0  0  0  0  0
    9.1524    2.9345    0.0000 H   0  0  0  0  0  0  0  0  0  0  0  0
    8.0723    4.5319    0.0000 H   0  0  0  0  0  0  0  0  0  0  0  0
  1  2  1  0  0  0  0 
  1  3  1  0  0  0  0 
  1  4  1  0  0  0  0 
  1  5  1  0  0  0  0 
  5  6  1  0  0  0  0 
  5  7  1  0  0  0  0 
  8  5  1  1  0  0  0 
  8  9  1  0  0  0  0 
  9 10  1  0  0  0  0 
  9 11  1  0  0  0  0 
  9 12  1  0  0  0  0 
 12 13  1  0  0  0  0 
 12 14  1  0  0  0  0 
 12 15  1  0  0  0  0 
 15 16  1  6  0  0  0 
 15 17  1  0  0  0  0 
 17 18  1  1  0  0  0 
 17 19  1  0  0  0  0 
 19 20  1  0  0  0  0 
 19 21  1  0  0  0  0 
 19 22  1  0  0  0  0 
 22 23  1  0  0  0  0 
 22 24  1  0  0  0  0 
 22 25  1  0  0  0  0 
 25 26  2  0  0  0  0 
 25 27  1  0  0  0  0 
 27 28  1  0  0  0  0 
 27 29  2  0  0  0  0 
 17 29  1  0  0  0  0 
 29 30  1  0  0  0  0 
 30 31  1  0  0  0  0 
 30 32  1  0  0  0  0 
 30 33  1  0  0  0  0 
 33 34  1  0  0  0  0 
 33 35  1  0  0  0  0 
 33 36  1  0  0  0  0 
 15 36  1  0  0  0  0 
 36 37  1  1  0  0  0 
 36 38  1  0  0  0  0 
  8 38  1  0  0  0  0 
 38 39  1  6  0  0  0 
 38 40  1  0  0  0  0 
 40 41  1  0  0  0  0 
 40 42  1  0  0  0  0 
 40 43  1  0  0  0  0 
 43 44  1  0  0  0  0 
 43 45  1  0  0  0  0 
 43 46  1  0  0  0  0 
  8 46  1  0  0  0  0 
 46 47  1  6  0  0  0 
 47 48  3  0  0  0  0 
 48 49  1  0  0  0  0 
 46 50  1  1  0  0  0 
 50 51  1  0  0  0  0 
 51 52  2  0  0  0  0 
 51 53  1  0  0  0  0 
 53 54  1  0  0  0  0 
 53 55  1  0  0  0  0 
 53 56  1  0  0  0  0 
M  END
> <Rank>
2

> <Priority_score>
0.452

> <Reaction_type>
imine_hydrolysis

> <Parent_ID>
2

> <Parent_InChI>
InChI=1S/C23H31NO3/c1-4-22-12-10-19-18-9-7-17(24-26)14-16(18)6-8-20(19)21(22)11-13-23(22,5-2)27-15(3)25/h2,14,18-21,26H,4,6-13H2,1,3H3

> <Parent_SMILES>
C#C[C@]1(OC(C)=O)CC[C@H]2[C@@H]3CCC4=C/C(=N/O)CC[C@@H]4[C@H]3CC[C@@]21CC

$$$$
Molecule 2_metabolite 3
  CDK     0516241031

 53 56  0  0  0  0  0  0  0  0999 V2000
    4.0933    1.6449    0.0000 C   0  0  0  0  0  0  0  0  0  0  0  0
    4.2520    3.1365    0.0000 H   0  0  0  0  0  0  0  0  0  0  0  0
    3.4340    0.2975    0.0000 H   0  0  0  0  0  0  0  0  0  0  0  0
    2.6519    2.0602    0.0000 H   0  0  0  0  0  0  0  0  0  0  0  0
    5.3057    0.7616    0.0000 C   0  0  0  0  0  0  0  0  0  0  0  0
    5.9650    2.1089    0.0000 H   0  0  0  0  0  0  0  0  0  0  0  0
    6.7470    0.3463    0.0000 H   0  0  0  0  0  0  0  0  0  0  0  0
    4.9945   -2.1619    0.0000 C   0  0  2  0  0  0  0  0  0  0  0  0
    3.6945   -1.4119    0.0000 C   0  0  0  0  0  0  0  0  0  0  0  0
    4.6586   -0.2627    0.0000 H   0  0  0  0  0  0  0  0  0  0  0  0
    1.8050    0.8405    0.0000 H   0  0  0  0  0  0  0  0  0  0  0  0
    2.3945   -2.1619    0.0000 C   0  0  0  0  0  0  0  0  0  0  0  0
    1.8818   -0.7522    0.0000 H   0  0  0  0  0  0  0  0  0  0  0  0
   -0.5007   -1.6510    0.0000 H   0  0  0  0  0  0  0  0  0  0  0  0
    2.3945   -3.6619    0.0000 C   0  0  2  0  0  0  0  0  0  0  0  0
    2.3938   -5.1619    0.0000 H   0  0  0  0  0  0  0  0  0  0  0  0
    1.0945   -4.4119    0.0000 C   0  0  1  0  0  0  0  0  0  0  0  0
   -0.2040   -5.1627    0.0000 H   0  0  0  0  0  0  0  0  0  0  0  0
   -0.2055   -3.6619    0.0000 C   0  0  0  0  0  0  0  0  0  0  0  0
    0.7586   -2.5127    0.0000 H   0  0  0  0  0  0  0  0  0  0  0  0
   -1.1695   -2.5127    0.0000 H   0  0  0  0  0  0  0  0  0  0  0  0
   -1.5055   -4.4119    0.0000 C   0  0  0  0  0  0  0  0  0  0  0  0
   -2.0182   -3.0022    0.0000 H   0  0  0  0  0  0  0  0  0  0  0  0
   -2.9827   -4.6722    0.0000 H   0  0  0  0  0  0  0  0  0  0  0  0
   -1.5055   -5.9119    0.0000 C   0  0  0  0  0  0  0  0  0  0  0  0
   -2.8044   -6.6621    0.0000 N   0  0  0  0  0  0  0  0  0  0  0  0
   -4.1035   -5.9123    0.0000 O   0  0  0  0  0  0  0  0  0  0  0  0
   -5.4025   -6.6625    0.0000 H   0  0  0  0  0  0  0  0  0  0  0  0
   -0.2055   -6.6619    0.0000 C   0  0  0  0  0  0  0  0  0  0  0  0
   -0.2055   -8.1619    0.0000 H   0  0  0  0  0  0  0  0  0  0  0  0
    1.0945   -5.9119    0.0000 C   0  0  0  0  0  0  0  0  0  0  0  0
    2.3945   -6.6619    0.0000 C   0  0  0  0  0  0  0  0  0  0  0  0
    1.4305   -7.8110    0.0000 H   0  0  0  0  0  0  0  0  0  0  0  0
    3.3586   -7.8110    0.0000 H   0  0  0  0  0  0  0  0  0  0  0  0
    3.6945   -5.9119    0.0000 C   0  0  0  0  0  0  0  0  0  0  0  0
    4.2073   -7.3215    0.0000 H   0  0  0  0  0  0  0  0  0  0  0  0
    2.2173   -5.6516    0.0000 H   0  0  0  0  0  0  0  0  0  0  0  0
    3.6945   -4.4119    0.0000 C   0  0  1  0  0  0  0  0  0  0  0  0
    4.9935   -5.1621    0.0000 H   0  0  0  0  0  0  0  0  0  0  0  0
    4.9945   -3.6619    0.0000 C   0  0  2  0  0  0  0  0  0  0  0  0
    5.9931   -2.5426    0.0000 H   0  0  0  0  0  0  0  0  0  0  0  0
    6.4245   -4.1219    0.0000 C   0  0  0  0  0  0  0  0  0  0  0  0
    5.8169   -5.4933    0.0000 H   0  0  0  0  0  0  0  0  0  0  0  0
    7.7241   -4.8710    0.0000 H   0  0  0  0  0  0  0  0  0  0  0  0
    7.3045   -2.9119    0.0000 C   0  0  0  0  0  0  0  0  0  0  0  0
    8.4191   -3.9158    0.0000 H   0  0  0  0  0  0  0  0  0  0  0  0
    8.4191   -1.9080    0.0000 H   0  0  0  0  0  0  0  0  0  0  0  0
    6.4245   -1.7019    0.0000 C   0  0  1  0  0  0  0  0  0  0  0  0
    7.7241   -0.9527    0.0000 C   0  0  0  0  0  0  0  0  0  0  0  0
    9.0236   -0.2036    0.0000 C   0  0  0  0  0  0  0  0  0  0  0  0
   10.3231    0.5456    0.0000 H   0  0  0  0  0  0  0  0  0  0  0  0
    6.2247    1.2313    0.0000 O   0  0  0  0  0  0  0  0  0  0  0  0
    7.4698    2.0679    0.0000 H   0  0  0  0  0  0  0  0  0  0  0  0
  1  2  1  0  0  0  0 
  1  3  1  0  0  0  0 
  1  4  1  0  0  0  0 
  1  5  1  0  0  0  0 
  5  6  1  0  0  0  0 
  5  7  1  0  0  0  0 
  8  5  1  1  0  0  0 
  8  9  1  0  0  0  0 
  9 10  1  0  0  0  0 
  9 11  1  0  0  0  0 
  9 12  1  0  0  0  0 
 12 13  1  0  0  0  0 
 12 14  1  0  0  0  0 
 12 15  1  0  0  0  0 
 15 16  1  6  0  0  0 
 15 17  1  0  0  0  0 
 17 18  1  1  0  0  0 
 17 19  1  0  0  0  0 
 19 20  1  0  0  0  0 
 19 21  1  0  0  0  0 
 19 22  1  0  0  0  0 
 22 23  1  0  0  0  0 
 22 24  1  0  0  0  0 
 22 25  1  0  0  0  0 
 25 26  2  0  0  0  0 
 26 27  1  0  0  0  0 
 27 28  1  0  0  0  0 
 25 29  1  0  0  0  0 
 29 30  1  0  0  0  0 
 29 31  2  0  0  0  0 
 17 31  1  0  0  0  0 
 31 32  1  0  0  0  0 
 32 33  1  0  0  0  0 
 32 34  1  0  0  0  0 
 32 35  1  0  0  0  0 
 35 36  1  0  0  0  0 
 35 37  1  0  0  0  0 
 35 38  1  0  0  0  0 
 15 38  1  0  0  0  0 
 38 39  1  1  0  0  0 
 38 40  1  0  0  0  0 
  8 40  1  0  0  0  0 
 40 41  1  6  0  0  0 
 40 42  1  0  0  0  0 
 42 43  1  0  0  0  0 
 42 44  1  0  0  0  0 
 42 45  1  0  0  0  0 
 45 46  1  0  0  0  0 
 45 47  1  0  0  0  0 
 45 48  1  0  0  0  0 
  8 48  1  0  0  0  0 
 48 49  1  6  0  0  0 
 49 50  3  0  0  0  0 
 50 51  1  0  0  0  0 
 48 52  1  1  0  0  0 
 52 53  1  0  0  0  0 
M  END
> <Rank>
3

> <Priority_score>
0.28755763604447043

> <Reaction_type>
O-deacetylation

> <Parent_ID>
2

> <Parent_InChI>
InChI=1S/C23H31NO3/c1-4-22-12-10-19-18-9-7-17(24-26)14-16(18)6-8-20(19)21(22)11-13-23(22,5-2)27-15(3)25/h2,14,18-21,26H,4,6-13H2,1,3H3

> <Parent_SMILES>
C#C[C@]1(OC(C)=O)CC[C@H]2[C@@H]3CCC4=C/C(=N/O)CC[C@@H]4[C@H]3CC[C@@]21CC

$$$$
Molecule 2_metabolite 4
  CDK     0516241031

 58 61  0  0  0  0  0  0  0  0999 V2000
    3.1519    0.7192    0.0000 C   0  0  0  0  0  0  0  0  0  0  0  0
    3.3106    2.2107    0.0000 H   0  0  0  0  0  0  0  0  0  0  0  0
    2.4925   -0.6282    0.0000 H   0  0  0  0  0  0  0  0  0  0  0  0
    1.7105    1.1345    0.0000 H   0  0  0  0  0  0  0  0  0  0  0  0
    4.7522   -0.4467    0.0000 C   0  0  0  0  0  0  0  0  0  0  0  0
    6.0444    2.1940    0.0000 H   0  0  0  0  0  0  0  0  0  0  0  0
    6.1935   -0.8621    0.0000 H   0  0  0  0  0  0  0  0  0  0  0  0
    4.4918   -2.8929    0.0000 C   0  0  2  0  0  0  0  0  0  0  0  0
    3.1918   -2.1429    0.0000 C   0  0  0  0  0  0  0  0  0  0  0  0
    4.1559   -0.9938    0.0000 H   0  0  0  0  0  0  0  0  0  0  0  0
    1.6108   -0.2583    0.0000 H   0  0  0  0  0  0  0  0  0  0  0  0
    1.8918   -2.8929    0.0000 C   0  0  0  0  0  0  0  0  0  0  0  0
    1.3791   -1.4833    0.0000 H   0  0  0  0  0  0  0  0  0  0  0  0
   -1.0034   -2.3821    0.0000 H   0  0  0  0  0  0  0  0  0  0  0  0
    1.8918   -4.3929    0.0000 C   0  0  2  0  0  0  0  0  0  0  0  0
    1.8911   -5.8929    0.0000 H   0  0  0  0  0  0  0  0  0  0  0  0
    0.5918   -5.1429    0.0000 C   0  0  1  0  0  0  0  0  0  0  0  0
   -0.7067   -5.8938    0.0000 H   0  0  0  0  0  0  0  0  0  0  0  0
   -0.7082   -4.3929    0.0000 C   0  0  0  0  0  0  0  0  0  0  0  0
    0.2559   -3.2438    0.0000 H   0  0  0  0  0  0  0  0  0  0  0  0
   -1.6722   -3.2438    0.0000 H   0  0  0  0  0  0  0  0  0  0  0  0
   -2.0082   -5.1429    0.0000 C   0  0  0  0  0  0  0  0  0  0  0  0
   -2.5209   -3.7333    0.0000 H   0  0  0  0  0  0  0  0  0  0  0  0
   -3.4854   -5.4032    0.0000 H   0  0  0  0  0  0  0  0  0  0  0  0
   -2.0082   -6.6429    0.0000 C   0  0  0  0  0  0  0  0  0  0  0  0
   -3.3071   -7.3931    0.0000 N   0  0  0  0  0  0  0  0  0  0  0  0
   -4.6062   -6.6433    0.0000 O   0  0  0  0  0  0  0  0  0  0  0  0
   -5.9051   -7.3935    0.0000 H   0  0  0  0  0  0  0  0  0  0  0  0
   -0.7082   -7.3929    0.0000 C   0  0  0  0  0  0  0  0  0  0  0  0
   -0.7082   -8.8929    0.0000 H   0  0  0  0  0  0  0  0  0  0  0  0
    0.5918   -6.6429    0.0000 C   0  0  0  0  0  0  0  0  0  0  0  0
    1.8918   -7.3929    0.0000 C   0  0  0  0  0  0  0  0  0  0  0  0
    0.9278   -8.5421    0.0000 H   0  0  0  0  0  0  0  0  0  0  0  0
    2.8559   -8.5421    0.0000 H   0  0  0  0  0  0  0  0  0  0  0  0
    3.1918   -6.6429    0.0000 C   0  0  0  0  0  0  0  0  0  0  0  0
    3.7046   -8.0526    0.0000 H   0  0  0  0  0  0  0  0  0  0  0  0
    1.7146   -6.3826    0.0000 H   0  0  0  0  0  0  0  0  0  0  0  0
    3.1918   -5.1429    0.0000 C   0  0  1  0  0  0  0  0  0  0  0  0
    4.4908   -5.8931    0.0000 H   0  0  0  0  0  0  0  0  0  0  0  0
    4.4918   -4.3929    0.0000 C   0  0  2  0  0  0  0  0  0  0  0  0
    5.4904   -3.2736    0.0000 H   0  0  0  0  0  0  0  0  0  0  0  0
    5.9218   -4.8529    0.0000 C   0  0  0  0  0  0  0  0  0  0  0  0
    5.3142   -6.2243    0.0000 H   0  0  0  0  0  0  0  0  0  0  0  0
    7.2214   -5.6021    0.0000 H   0  0  0  0  0  0  0  0  0  0  0  0
    6.8018   -3.6429    0.0000 C   0  0  0  0  0  0  0  0  0  0  0  0
    7.9164   -4.6468    0.0000 H   0  0  0  0  0  0  0  0  0  0  0  0
    7.9164   -2.6390    0.0000 H   0  0  0  0  0  0  0  0  0  0  0  0
    5.9218   -2.4329    0.0000 C   0  0  1  0  0  0  0  0  0  0  0  0
    7.2214   -1.6838    0.0000 C   0  0  0  0  0  0  0  0  0  0  0  0
    8.5209   -0.9346    0.0000 C   0  0  0  0  0  0  0  0  0  0  0  0
    9.8204   -0.1855    0.0000 H   0  0  0  0  0  0  0  0  0  0  0  0
    5.7220    0.5003    0.0000 O   0  0  0  0  0  0  0  0  0  0  0  0
    6.9671    1.3368    0.0000 C   0  0  0  0  0  0  0  0  0  0  0  0
    8.3141    0.6769    0.0000 O   0  0  0  0  0  0  0  0  0  0  0  0
    6.8652    2.8334    0.0000 C   0  0  0  0  0  0  0  0  0  0  0  0
    5.5181    3.4933    0.0000 O   0  0  0  0  0  0  0  0  0  0  0  0
    8.1102    3.6699    0.0000 O   0  0  0  0  0  0  0  0  0  0  0  0
    8.0083    5.1665    0.0000 H   0  0  0  0  0  0  0  0  0  0  0  0
  1  2  1  0  0  0  0 
  1  3  1  0  0  0  0 
  1  4  1  0  0  0  0 
  1  5  1  0  0  0  0 
  5  6  1  0  0  0  0 
  5  7  1  0  0  0  0 
  8  5  1  1  0  0  0 
  8  9  1  0  0  0  0 
  9 10  1  0  0  0  0 
  9 11  1  0  0  0  0 
  9 12  1  0  0  0  0 
 12 13  1  0  0  0  0 
 12 14  1  0  0  0  0 
 12 15  1  0  0  0  0 
 15 16  1  6  0  0  0 
 15 17  1  0  0  0  0 
 17 18  1  1  0  0  0 
 17 19  1  0  0  0  0 
 19 20  1  0  0  0  0 
 19 21  1  0  0  0  0 
 19 22  1  0  0  0  0 
 22 23  1  0  0  0  0 
 22 24  1  0  0  0  0 
 22 25  1  0  0  0  0 
 25 26  2  0  0  0  0 
 26 27  1  0  0  0  0 
 27 28  1  0  0  0  0 
 25 29  1  0  0  0  0 
 29 30  1  0  0  0  0 
 29 31  2  0  0  0  0 
 17 31  1  0  0  0  0 
 31 32  1  0  0  0  0 
 32 33  1  0  0  0  0 
 32 34  1  0  0  0  0 
 32 35  1  0  0  0  0 
 35 36  1  0  0  0  0 
 35 37  1  0  0  0  0 
 35 38  1  0  0  0  0 
 15 38  1  0  0  0  0 
 38 39  1  1  0  0  0 
 38 40  1  0  0  0  0 
  8 40  1  0  0  0  0 
 40 41  1  6  0  0  0 
 40 42  1  0  0  0  0 
 42 43  1  0  0  0  0 
 42 44  1  0  0  0  0 
 42 45  1  0  0  0  0 
 45 46  1  0  0  0  0 
 45 47  1  0  0  0  0 
 45 48  1  0  0  0  0 
  8 48  1  0  0  0  0 
 48 49  1  6  0  0  0 
 49 50  3  0  0  0  0 
 50 51  1  0  0  0  0 
 48 52  1  1  0  0  0 
 52 53  1  0  0  0  0 
 53 54  2  0  0  0  0 
 53 55  1  0  0  0  0 
 55 56  2  0  0  0  0 
 55 57  1  0  0  0  0 
 57 58  1  0  0  0  0 
M  END
> <Rank>
3

> <Priority_score>
0.28755763604447043

> <Reaction_type>
carboxylation_(primary_carbon_next_to_SP2)

> <Parent_ID>
2

> <Parent_InChI>
InChI=1S/C23H31NO3/c1-4-22-12-10-19-18-9-7-17(24-26)14-16(18)6-8-20(19)21(22)11-13-23(22,5-2)27-15(3)25/h2,14,18-21,26H,4,6-13H2,1,3H3

> <Parent_SMILES>
C#C[C@]1(OC(C)=O)CC[C@H]2[C@@H]3CCC4=C/C(=N/O)CC[C@@H]4[C@H]3CC[C@@]21CC

$$$$
Molecule 2_metabolite 5
  CDK     0516241031

 59 62  0  0  0  0  0  0  0  0999 V2000
    6.8588    5.2620    0.0000 C   0  0  0  0  0  0  0  0  0  0  0  0
    5.6473    6.1465    0.0000 H   0  0  0  0  0  0  0  0  0  0  0  0
    8.2997    4.8453    0.0000 H   0  0  0  0  0  0  0  0  0  0  0  0
    7.5194    6.6087    0.0000 H   0  0  0  0  0  0  0  0  0  0  0  0
    6.6473    3.2933    0.0000 C   0  0  0  0  0  0  0  0  0  0  0  0
    5.2064    3.7101    0.0000 H   0  0  0  0  0  0  0  0  0  0  0  0
    5.9867    1.9466    0.0000 H   0  0  0  0  0  0  0  0  0  0  0  0
    7.8588    2.4089    0.0000 C   0  0  2  0  0  0  0  0  0  0  0  0
    8.1766    3.8757    0.0000 C   0  0  0  0  0  0  0  0  0  0  0  0
    6.6777    3.9336    0.0000 H   0  0  0  0  0  0  0  0  0  0  0  0
    7.9730    5.3618    0.0000 H   0  0  0  0  0  0  0  0  0  0  0  0
    9.6055    4.3348    0.0000 C   0  0  0  0  0  0  0  0  0  0  0  0
    8.9058    5.6616    0.0000 H   0  0  0  0  0  0  0  0  0  0  0  0
   10.7907    5.2542    0.0000 H   0  0  0  0  0  0  0  0  0  0  0  0
   10.7166    3.3271    0.0000 C   0  0  2  0  0  0  0  0  0  0  0  0
   11.8282    2.3199    0.0000 H   0  0  0  0  0  0  0  0  0  0  0  0
   12.1455    3.7862    0.0000 C   0  0  1  0  0  0  0  0  0  0  0  0
   13.5740    4.2437    0.0000 H   0  0  0  0  0  0  0  0  0  0  0  0
   12.4633    5.2530    0.0000 C   0  0  0  0  0  0  0  0  0  0  0  0
   11.0746    5.8201    0.0000 H   0  0  0  0  0  0  0  0  0  0  0  0
   12.2597    6.7391    0.0000 H   0  0  0  0  0  0  0  0  0  0  0  0
   13.8922    5.7121    0.0000 C   0  0  0  0  0  0  0  0  0  0  0  0
   13.1924    7.0389    0.0000 H   0  0  0  0  0  0  0  0  0  0  0  0
   15.0774    6.6315    0.0000 H   0  0  0  0  0  0  0  0  0  0  0  0
   15.0033    4.7044    0.0000 C   0  0  0  0  0  0  0  0  0  0  0  0
   16.4316    5.1626    0.0000 N   0  0  0  0  0  0  0  0  0  0  0  0
   16.7490    6.6286    0.0000 O   0  0  0  0  0  0  0  0  0  0  0  0
   18.1773    7.0868    0.0000 H   0  0  0  0  0  0  0  0  0  0  0  0
   14.6855    3.2376    0.0000 C   0  0  0  0  0  0  0  0  0  0  0  0
   15.7966    2.2299    0.0000 H   0  0  0  0  0  0  0  0  0  0  0  0
   13.2566    2.7785    0.0000 C   0  0  0  0  0  0  0  0  0  0  0  0
   12.9388    1.3117    0.0000 C   0  0  0  0  0  0  0  0  0  0  0  0
   14.4377    1.2538    0.0000 H   0  0  0  0  0  0  0  0  0  0  0  0
   13.1424   -0.1744    0.0000 H   0  0  0  0  0  0  0  0  0  0  0  0
   11.5099    0.8526    0.0000 C   0  0  0  0  0  0  0  0  0  0  0  0
   12.2097   -0.4742    0.0000 H   0  0  0  0  0  0  0  0  0  0  0  0
   12.3095    2.1217    0.0000 H   0  0  0  0  0  0  0  0  0  0  0  0
   10.3988    1.8603    0.0000 C   0  0  1  0  0  0  0  0  0  0  0  0
   10.0819    0.3941    0.0000 H   0  0  0  0  0  0  0  0  0  0  0  0
    8.9699    1.4012    0.0000 C   0  0  2  0  0  0  0  0  0  0  0  0
    7.4700    1.4134    0.0000 H   0  0  0  0  0  0  0  0  0  0  0  0
    8.3500    0.0329    0.0000 C   0  0  0  0  0  0  0  0  0  0  0  0
    9.7741   -0.4383    0.0000 H   0  0  0  0  0  0  0  0  0  0  0  0
    8.0319   -1.4330    0.0000 H   0  0  0  0  0  0  0  0  0  0  0  0
    6.8625    0.1939    0.0000 C   0  0  0  0  0  0  0  0  0  0  0  0
    6.8574   -1.3061    0.0000 H   0  0  0  0  0  0  0  0  0  0  0  0
    5.3702    0.0427    0.0000 H   0  0  0  0  0  0  0  0  0  0  0  0
    6.5574    1.6587    0.0000 C   0  0  1  0  0  0  0  0  0  0  0  0
    5.1295    1.1993    0.0000 C   0  0  0  0  0  0  0  0  0  0  0  0
    3.7015    0.7400    0.0000 C   0  0  0  0  0  0  0  0  0  0  0  0
    2.2736    0.2806    0.0000 H   0  0  0  0  0  0  0  0  0  0  0  0
    5.3664    4.3466    0.0000 O   0  0  0  0  0  0  0  0  0  0  0  0
    3.8750    4.5061    0.0000 C   0  0  0  0  0  0  0  0  0  0  0  0
    2.9911    3.2942    0.0000 O   0  0  0  0  0  0  0  0  0  0  0  0
    3.2673    5.8775    0.0000 C   0  0  0  0  0  0  0  0  0  0  0  0
    2.0222    5.0410    0.0000 H   0  0  0  0  0  0  0  0  0  0  0  0
    2.2273    6.9584    0.0000 H   0  0  0  0  0  0  0  0  0  0  0  0
    4.1512    7.0894    0.0000 O   0  0  0  0  0  0  0  0  0  0  0  0
    3.5435    8.4609    0.0000 H   0  0  0  0  0  0  0  0  0  0  0  0
  1  2  1  0  0  0  0 
  1  3  1  0  0  0  0 
  1  4  1  0  0  0  0 
  1  5  1  0  0  0  0 
  5  6  1  0  0  0  0 
  5  7  1  0  0  0  0 
  8  5  1  6  0  0  0 
  8  9  1  0  0  0  0 
  9 10  1  0  0  0  0 
  9 11  1  0  0  0  0 
  9 12  1  0  0  0  0 
 12 13  1  0  0  0  0 
 12 14  1  0  0  0  0 
 12 15  1  0  0  0  0 
 15 16  1  1  0  0  0 
 15 17  1  0  0  0  0 
 17 18  1  6  0  0  0 
 17 19  1  0  0  0  0 
 19 20  1  0  0  0  0 
 19 21  1  0  0  0  0 
 19 22  1  0  0  0  0 
 22 23  1  0  0  0  0 
 22 24  1  0  0  0  0 
 22 25  1  0  0  0  0 
 25 26  2  0  0  0  0 
 26 27  1  0  0  0  0 
 27 28  1  0  0  0  0 
 25 29  1  0  0  0  0 
 29 30  1  0  0  0  0 
 29 31  2  0  0  0  0 
 17 31  1  0  0  0  0 
 31 32  1  0  0  0  0 
 32 33  1  0  0  0  0 
 32 34  1  0  0  0  0 
 32 35  1  0  0  0  0 
 35 36  1  0  0  0  0 
 35 37  1  0  0  0  0 
 35 38  1  0  0  0  0 
 15 38  1  0  0  0  0 
 38 39  1  6  0  0  0 
 38 40  1  0  0  0  0 
  8 40  1  0  0  0  0 
 40 41  1  1  0  0  0 
 40 42  1  0  0  0  0 
 42 43  1  0  0  0  0 
 42 44  1  0  0  0  0 
 42 45  1  0  0  0  0 
 45 46  1  0  0  0  0 
 45 47  1  0  0  0  0 
 45 48  1  0  0  0  0 
  8 48  1  0  0  0  0 
 48 49  1  1  0  0  0 
 49 50  3  0  0  0  0 
 50 51  1  0  0  0  0 
 48 52  1  6  0  0  0 
 52 53  1  0  0  0  0 
 53 54  2  0  0  0  0 
 53 55  1  0  0  0  0 
 55 56  1  0  0  0  0 
 55 57  1  0  0  0  0 
 55 58  1  0  0  0  0 
 58 59  1  0  0  0  0 
M  END
> <Rank>
3

> <Priority_score>
0.28755763604447043

> <Reaction_type>
aliphatic_hydroxylation_(primary_carbon_next_to_SP2_or_SP1)

> <Parent_ID>
2

> <Parent_InChI>
InChI=1S/C23H31NO3/c1-4-22-12-10-19-18-9-7-17(24-26)14-16(18)6-8-20(19)21(22)11-13-23(22,5-2)27-15(3)25/h2,14,18-21,26H,4,6-13H2,1,3H3

> <Parent_SMILES>
C#C[C@]1(OC(C)=O)CC[C@H]2[C@@H]3CCC4=C/C(=N/O)CC[C@@H]4[C@H]3CC[C@@]21CC

$$$$
Molecule 2_metabolite 6
  CDK     0516241031

 59 63  0  0  0  0  0  0  0  0999 V2000
    4.0171    2.8238    0.0000 C   0  0  0  0  0  0  0  0  0  0  0  0
    2.6461    2.2151    0.0000 H   0  0  0  0  0  0  0  0  0  0  0  0
    5.0971    3.8647    0.0000 H   0  0  0  0  0  0  0  0  0  0  0  0
    3.1795    4.0682    0.0000 H   0  0  0  0  0  0  0  0  0  0  0  0
    6.3938    1.0933    0.0000 C   0  0  0  0  0  0  0  0  0  0  0  0
    7.0527    2.4408    0.0000 H   0  0  0  0  0  0  0  0  0  0  0  0
    7.8353    0.6783    0.0000 H   0  0  0  0  0  0  0  0  0  0  0  0
    6.0835   -1.8303    0.0000 C   0  0  2  0  0  0  0  0  0  0  0  0
    4.7835   -1.0703    0.0000 C   0  0  0  0  0  0  0  0  0  0  0  0
    5.7498    0.0770    0.0000 H   0  0  0  0  0  0  0  0  0  0  0  0
    3.5080    0.4442    0.0000 H   0  0  0  0  0  0  0  0  0  0  0  0
    3.4835   -1.8303    0.0000 C   0  0  0  0  0  0  0  0  0  0  0  0
    2.9654   -0.4226    0.0000 H   0  0  0  0  0  0  0  0  0  0  0  0
    4.9602   -2.0935    0.0000 H   0  0  0  0  0  0  0  0  0  0  0  0
    3.4835   -3.3303    0.0000 C   0  0  1  0  0  0  0  0  0  0  0  0
    0.9419   -1.8525    0.0000 H   0  0  0  0  0  0  0  0  0  0  0  0
    4.7835   -4.0703    0.0000 C   0  0  1  0  0  0  0  0  0  0  0  0
    3.4868   -4.8243    0.0000 H   0  0  0  0  0  0  0  0  0  0  0  0
    4.7835   -5.5703    0.0000 C   0  0  0  0  0  0  0  0  0  0  0  0
    5.3016   -6.9780    0.0000 H   0  0  0  0  0  0  0  0  0  0  0  0
    6.0839   -6.3180    0.0000 H   0  0  0  0  0  0  0  0  0  0  0  0
    3.4835   -6.3303    0.0000 C   0  0  0  0  0  0  0  0  0  0  0  0
    1.8988   -8.2119    0.0000 H   0  0  0  0  0  0  0  0  0  0  0  0
    4.4498   -7.4776    0.0000 H   0  0  0  0  0  0  0  0  0  0  0  0
    2.1835   -5.5703    0.0000 C   0  0  0  0  0  0  0  0  0  0  0  0
    2.1835   -4.0703    0.0000 C   0  0  2  0  0  0  0  0  0  0  0  0
    0.8899   -4.8297    0.0000 H   0  0  0  0  0  0  0  0  0  0  0  0
    0.8935   -3.3303    0.0000 C   0  0  0  0  0  0  0  0  0  0  0  0
    1.8579   -2.1814    0.0000 H   0  0  0  0  0  0  0  0  0  0  0  0
   -0.0671   -2.1782    0.0000 H   0  0  0  0  0  0  0  0  0  0  0  0
   -0.4065   -4.0703    0.0000 C   0  0  0  0  0  0  0  0  0  0  0  0
   -0.9138   -2.6587    0.0000 H   0  0  0  0  0  0  0  0  0  0  0  0
   -1.8842   -4.3278    0.0000 H   0  0  0  0  0  0  0  0  0  0  0  0
   -0.4065   -5.5703    0.0000 C   0  0  0  0  0  0  0  0  0  0  0  0
   -1.7076   -6.3168    0.0000 N   0  0  0  0  0  0  0  0  0  0  0  0
   -3.0046   -5.5633    0.0000 O   0  0  0  0  0  0  0  0  0  0  0  0
   -4.3056   -6.3097    0.0000 H   0  0  0  0  0  0  0  0  0  0  0  0
    0.8935   -6.3303    0.0000 C   0  0  0  0  0  0  0  0  0  0  0  0
    0.1418   -7.6284    0.0000 H   0  0  0  0  0  0  0  0  0  0  0  0
    2.1835   -7.0703    0.0000 O   0  0  0  0  0  0  0  0  0  0  0  0
    6.0835   -3.3303    0.0000 C   0  0  2  0  0  0  0  0  0  0  0  0
    6.2379   -4.8223    0.0000 H   0  0  0  0  0  0  0  0  0  0  0  0
    7.5135   -3.7903    0.0000 C   0  0  0  0  0  0  0  0  0  0  0  0
    6.9076   -5.1625    0.0000 H   0  0  0  0  0  0  0  0  0  0  0  0
    8.8150   -4.5361    0.0000 H   0  0  0  0  0  0  0  0  0  0  0  0
    8.3935   -2.5703    0.0000 C   0  0  0  0  0  0  0  0  0  0  0  0
    9.5107   -3.5713    0.0000 H   0  0  0  0  0  0  0  0  0  0  0  0
    9.5067   -1.5650    0.0000 H   0  0  0  0  0  0  0  0  0  0  0  0
    7.5135   -1.3603    0.0000 C   0  0  1  0  0  0  0  0  0  0  0  0
    8.8114   -0.6084    0.0000 C   0  0  0  0  0  0  0  0  0  0  0  0
   10.1094    0.1435    0.0000 C   0  0  0  0  0  0  0  0  0  0  0  0
   11.4073    0.8953    0.0000 H   0  0  0  0  0  0  0  0  0  0  0  0
    7.8137    1.5643    0.0000 O   0  0  0  0  0  0  0  0  0  0  0  0
    9.1826    2.1777    0.0000 C   0  0  0  0  0  0  0  0  0  0  0  0
   10.3982    1.2990    0.0000 O   0  0  0  0  0  0  0  0  0  0  0  0
    9.3358    3.6699    0.0000 C   0  0  0  0  0  0  0  0  0  0  0  0
    8.1201    4.5486    0.0000 H   0  0  0  0  0  0  0  0  0  0  0  0
   10.7786    3.2599    0.0000 H   0  0  0  0  0  0  0  0  0  0  0  0
    9.9901    5.0197    0.0000 H   0  0  0  0  0  0  0  0  0  0  0  0
  1  2  1  0  0  0  0 
  1  3  1  0  0  0  0 
  1  4  1  0  0  0  0 
  1  5  1  0  0  0  0 
  5  6  1  0  0  0  0 
  5  7  1  0  0  0  0 
  8  5  1  1  0  0  0 
  8  9  1  0  0  0  0 
  9 10  1  0  0  0  0 
  9 11  1  0  0  0  0 
  9 12  1  0  0  0  0 
 12 13  1  0  0  0  0 
 12 14  1  0  0  0  0 
 12 15  1  0  0  0  0 
 15 16  1  6  0  0  0 
 15 17  1  0  0  0  0 
 17 18  1  1  0  0  0 
 17 19  1  0  0  0  0 
 19 20  1  0  0  0  0 
 19 21  1  0  0  0  0 
 19 22  1  0  0  0  0 
 22 23  1  0  0  0  0 
 22 24  1  0  0  0  0 
 22 25  1  0  0  0  0 
 25 26  1  0  0  0  0 
 15 26  1  0  0  0  0 
 26 27  1  1  0  0  0 
 26 28  1  0  0  0  0 
 28 29  1  0  0  0  0 
 28 30  1  0  0  0  0 
 28 31  1  0  0  0  0 
 31 32  1  0  0  0  0 
 31 33  1  0  0  0  0 
 31 34  1  0  0  0  0 
 34 35  2  0  0  0  0 
 35 36  1  0  0  0  0 
 36 37  1  0  0  0  0 
 34 38  1  0  0  0  0 
 25 38  1  0  0  0  0 
 38 39  1  0  0  0  0 
 38 40  1  0  0  0  0 
 25 40  1  0  0  0  0 
 17 41  1  0  0  0  0 
  8 41  1  0  0  0  0 
 41 42  1  6  0  0  0 
 41 43  1  0  0  0  0 
 43 44  1  0  0  0  0 
 43 45  1  0  0  0  0 
 43 46  1  0  0  0  0 
 46 47  1  0  0  0  0 
 46 48  1  0  0  0  0 
 46 49  1  0  0  0  0 
  8 49  1  0  0  0  0 
 49 50  1  6  0  0  0 
 50 51  3  0  0  0  0 
 51 52  1  0  0  0  0 
 49 53  1  1  0  0  0 
 53 54  1  0  0  0  0 
 54 55  2  0  0  0  0 
 54 56  1  0  0  0  0 
 56 57  1  0  0  0  0 
 56 58  1  0  0  0  0 
 56 59  1  0  0  0  0 
M  END
> <Rank>
6

> <Priority_score>
0.172

> <Reaction_type>
epoxidation

> <Parent_ID>
2

> <Parent_InChI>
InChI=1S/C23H31NO3/c1-4-22-12-10-19-18-9-7-17(24-26)14-16(18)6-8-20(19)21(22)11-13-23(22,5-2)27-15(3)25/h2,14,18-21,26H,4,6-13H2,1,3H3

> <Parent_SMILES>
C#C[C@]1(OC(C)=O)CC[C@H]2[C@@H]3CCC4=C/C(=N/O)CC[C@@H]4[C@H]3CC[C@@]21CC

$$$$
Molecule 2_metabolite 7
  CDK     0516241031

 59 62  0  0  0  0  0  0  0  0999 V2000
    2.3667    2.2628    0.0000 C   0  0  0  0  0  0  0  0  0  0  0  0
    2.5254    3.7544    0.0000 H   0  0  0  0  0  0  0  0  0  0  0  0
    1.7074    0.9155    0.0000 H   0  0  0  0  0  0  0  0  0  0  0  0
    0.9254    2.6782    0.0000 H   0  0  0  0  0  0  0  0  0  0  0  0
    3.9670    1.0969    0.0000 C   0  0  0  0  0  0  0  0  0  0  0  0
    4.6264    2.4442    0.0000 H   0  0  0  0  0  0  0  0  0  0  0  0
    5.4084    0.6816    0.0000 H   0  0  0  0  0  0  0  0  0  0  0  0
    3.6559   -1.8266    0.0000 C   0  0  2  0  0  0  0  0  0  0  0  0
    2.3559   -1.0766    0.0000 C   0  0  0  0  0  0  0  0  0  0  0  0
    3.3200    0.0726    0.0000 H   0  0  0  0  0  0  0  0  0  0  0  0
    0.7748    0.8081    0.0000 H   0  0  0  0  0  0  0  0  0  0  0  0
    1.0559   -1.8266    0.0000 C   0  0  0  0  0  0  0  0  0  0  0  0
    0.5432   -0.4169    0.0000 H   0  0  0  0  0  0  0  0  0  0  0  0
   -0.4213   -1.5660    0.0000 H   0  0  0  0  0  0  0  0  0  0  0  0
    1.0559   -3.3266    0.0000 C   0  0  1  0  0  0  0  0  0  0  0  0
    2.3541   -2.5751    0.0000 H   0  0  0  0  0  0  0  0  0  0  0  0
    2.3559   -4.0766    0.0000 C   0  0  1  0  0  0  0  0  0  0  0  0
    1.0570   -4.8268    0.0000 H   0  0  0  0  0  0  0  0  0  0  0  0
    2.3559   -5.5766    0.0000 C   0  0  0  0  0  0  0  0  0  0  0  0
    2.8686   -6.9862    0.0000 H   0  0  0  0  0  0  0  0  0  0  0  0
    3.8331   -5.3163    0.0000 H   0  0  0  0  0  0  0  0  0  0  0  0
    1.0559   -6.3266    0.0000 C   0  0  0  0  0  0  0  0  0  0  0  0
    0.0918   -7.4758    0.0000 H   0  0  0  0  0  0  0  0  0  0  0  0
    2.0200   -7.4758    0.0000 H   0  0  0  0  0  0  0  0  0  0  0  0
   -0.2441   -5.5766    0.0000 C   0  0  0  0  0  0  0  0  0  0  0  0
   -1.5441   -6.3266    0.0000 C   0  0  0  0  0  0  0  0  0  0  0  0
   -1.5441   -7.8266    0.0000 H   0  0  0  0  0  0  0  0  0  0  0  0
   -2.8441   -5.5766    0.0000 C   0  0  0  0  0  0  0  0  0  0  0  0
   -4.1430   -6.3268    0.0000 N   0  0  0  0  0  0  0  0  0  0  0  0
   -5.4422   -5.5770    0.0000 O   0  0  0  0  0  0  0  0  0  0  0  0
   -6.7411   -6.3272    0.0000 H   0  0  0  0  0  0  0  0  0  0  0  0
   -2.8441   -4.0766    0.0000 C   0  0  0  0  0  0  0  0  0  0  0  0
   -3.3568   -2.6669    0.0000 H   0  0  0  0  0  0  0  0  0  0  0  0
   -1.5441   -3.3266    0.0000 C   0  0  0  0  0  0  0  0  0  0  0  0
   -2.0564   -4.7364    0.0000 H   0  0  0  0  0  0  0  0  0  0  0  0
   -2.5082   -2.1774    0.0000 H   0  0  0  0  0  0  0  0  0  0  0  0
   -0.2441   -4.0766    0.0000 C   0  0  2  0  0  0  0  0  0  0  0  0
   -0.2441   -2.5766    0.0000 H   0  0  0  0  0  0  0  0  0  0  0  0
   -4.3213   -4.3369    0.0000 O   0  0  0  0  0  0  0  0  0  0  0  0
   -5.2854   -3.1877    0.0000 H   0  0  0  0  0  0  0  0  0  0  0  0
    3.6559   -3.3266    0.0000 C   0  0  2  0  0  0  0  0  0  0  0  0
    4.6545   -2.2073    0.0000 H   0  0  0  0  0  0  0  0  0  0  0  0
    5.0859   -3.7866    0.0000 C   0  0  0  0  0  0  0  0  0  0  0  0
    4.4783   -5.1580    0.0000 H   0  0  0  0  0  0  0  0  0  0  0  0
    6.3854   -4.5357    0.0000 H   0  0  0  0  0  0  0  0  0  0  0  0
    5.9659   -2.5766    0.0000 C   0  0  0  0  0  0  0  0  0  0  0  0
    7.0805   -3.5805    0.0000 H   0  0  0  0  0  0  0  0  0  0  0  0
    7.0805   -1.5727    0.0000 H   0  0  0  0  0  0  0  0  0  0  0  0
    5.0859   -1.3666    0.0000 C   0  0  1  0  0  0  0  0  0  0  0  0
    6.3854   -0.6174    0.0000 C   0  0  0  0  0  0  0  0  0  0  0  0
    7.6850    0.1317    0.0000 C   0  0  0  0  0  0  0  0  0  0  0  0
    8.9845    0.8808    0.0000 H   0  0  0  0  0  0  0  0  0  0  0  0
    4.8861    1.5666    0.0000 O   0  0  0  0  0  0  0  0  0  0  0  0
    6.1311    2.4032    0.0000 C   0  0  0  0  0  0  0  0  0  0  0  0
    7.4782    1.7432    0.0000 O   0  0  0  0  0  0  0  0  0  0  0  0
    6.0292    3.8997    0.0000 C   0  0  0  0  0  0  0  0  0  0  0  0
    4.6822    4.5597    0.0000 H   0  0  0  0  0  0  0  0  0  0  0  0
    7.5207    3.7402    0.0000 H   0  0  0  0  0  0  0  0  0  0  0  0
    6.4452    5.3409    0.0000 H   0  0  0  0  0  0  0  0  0  0  0  0
  1  2  1  0  0  0  0 
  1  3  1  0  0  0  0 
  1  4  1  0  0  0  0 
  1  5  1  0  0  0  0 
  5  6  1  0  0  0  0 
  5  7  1  0  0  0  0 
  8  5  1  1  0  0  0 
  8  9  1  0  0  0  0 
  9 10  1  0  0  0  0 
  9 11  1  0  0  0  0 
  9 12  1  0  0  0  0 
 12 13  1  0  0  0  0 
 12 14  1  0  0  0  0 
 12 15  1  0  0  0  0 
 15 16  1  6  0  0  0 
 15 17  1  0  0  0  0 
 17 18  1  1  0  0  0 
 17 19  1  0  0  0  0 
 19 20  1  0  0  0  0 
 19 21  1  0  0  0  0 
 19 22  1  0  0  0  0 
 22 23  1  0  0  0  0 
 22 24  1  0  0  0  0 
 22 25  1  0  0  0  0 
 25 26  2  0  0  0  0 
 26 27  1  0  0  0  0 
 26 28  1  0  0  0  0 
 28 29  2  0  0  0  0 
 29 30  1  0  0  0  0 
 30 31  1  0  0  0  0 
 28 32  1  0  0  0  0 
 32 33  1  0  0  0  0 
 32 34  1  0  0  0  0 
 34 35  1  0  0  0  0 
 34 36  1  0  0  0  0 
 34 37  1  0  0  0  0 
 25 37  1  0  0  0  0 
 15 37  1  0  0  0  0 
 37 38  1  1  0  0  0 
 32 39  1  0  0  0  0 
 39 40  1  0  0  0  0 
 17 41  1  0  0  0  0 
  8 41  1  0  0  0  0 
 41 42  1  6  0  0  0 
 41 43  1  0  0  0  0 
 43 44  1  0  0  0  0 
 43 45  1  0  0  0  0 
 43 46  1  0  0  0  0 
 46 47  1  0  0  0  0 
 46 48  1  0  0  0  0 
 46 49  1  0  0  0  0 
  8 49  1  0  0  0  0 
 49 50  1  6  0  0  0 
 50 51  3  0  0  0  0 
 51 52  1  0  0  0  0 
 49 53  1  1  0  0  0 
 53 54  1  0  0  0  0 
 54 55  2  0  0  0  0 
 54 56  1  0  0  0  0 
 56 57  1  0  0  0  0 
 56 58  1  0  0  0  0 
 56 59  1  0  0  0  0 
M  END
> <Rank>
7

> <Priority_score>
0.168

> <Reaction_type>
aliphatic_hydroxylation_(sec_carbon_next_to_SP2,in_a_ring)

> <Parent_ID>
2

> <Parent_InChI>
InChI=1S/C23H31NO3/c1-4-22-12-10-19-18-9-7-17(24-26)14-16(18)6-8-20(19)21(22)11-13-23(22,5-2)27-15(3)25/h2,14,18-21,26H,4,6-13H2,1,3H3

> <Parent_SMILES>
C#C[C@]1(OC(C)=O)CC[C@H]2[C@@H]3CCC4=C/C(=N/O)CC[C@@H]4[C@H]3CC[C@@]21CC

$$$$
Molecule 2_metabolite 8
  CDK     0516241031

 59 62  0  0  0  0  0  0  0  0999 V2000
    3.7848    2.0126    0.0000 C   0  0  0  0  0  0  0  0  0  0  0  0
    3.9435    3.5042    0.0000 H   0  0  0  0  0  0  0  0  0  0  0  0
    3.1255    0.6653    0.0000 H   0  0  0  0  0  0  0  0  0  0  0  0
    2.3434    2.4280    0.0000 H   0  0  0  0  0  0  0  0  0  0  0  0
    5.3851    0.8467    0.0000 C   0  0  0  0  0  0  0  0  0  0  0  0
    6.0444    2.1940    0.0000 H   0  0  0  0  0  0  0  0  0  0  0  0
    6.8265    0.4314    0.0000 H   0  0  0  0  0  0  0  0  0  0  0  0
    5.0740   -2.0768    0.0000 C   0  0  2  0  0  0  0  0  0  0  0  0
    3.7740   -1.3268    0.0000 C   0  0  0  0  0  0  0  0  0  0  0  0
    4.7381   -0.1776    0.0000 H   0  0  0  0  0  0  0  0  0  0  0  0
    2.1929    0.5579    0.0000 H   0  0  0  0  0  0  0  0  0  0  0  0
    2.4740   -2.0768    0.0000 C   0  0  0  0  0  0  0  0  0  0  0  0
    1.9613   -0.6671    0.0000 H   0  0  0  0  0  0  0  0  0  0  0  0
   -0.4213   -1.5660    0.0000 H   0  0  0  0  0  0  0  0  0  0  0  0
    2.4740   -3.5768    0.0000 C   0  0  2  0  0  0  0  0  0  0  0  0
    2.4733   -5.0768    0.0000 H   0  0  0  0  0  0  0  0  0  0  0  0
    1.1740   -4.3268    0.0000 C   0  0  1  0  0  0  0  0  0  0  0  0
   -0.1246   -5.0776    0.0000 H   0  0  0  0  0  0  0  0  0  0  0  0
   -0.1260   -3.5768    0.0000 C   0  0  0  0  0  0  0  0  0  0  0  0
    0.8381   -2.4276    0.0000 H   0  0  0  0  0  0  0  0  0  0  0  0
   -1.0901   -2.4276    0.0000 H   0  0  0  0  0  0  0  0  0  0  0  0
   -1.4260   -4.3268    0.0000 C   0  0  0  0  0  0  0  0  0  0  0  0
   -1.9387   -2.9171    0.0000 H   0  0  0  0  0  0  0  0  0  0  0  0
   -2.9032   -4.5871    0.0000 H   0  0  0  0  0  0  0  0  0  0  0  0
   -1.4260   -5.8268    0.0000 C   0  0  0  0  0  0  0  0  0  0  0  0
   -2.7249   -6.5770    0.0000 N   0  0  0  0  0  0  0  0  0  0  0  0
   -4.0241   -5.8272    0.0000 O   0  0  0  0  0  0  0  0  0  0  0  0
   -5.3230   -6.5774    0.0000 H   0  0  0  0  0  0  0  0  0  0  0  0
   -0.1260   -6.5768    0.0000 C   0  0  0  0  0  0  0  0  0  0  0  0
   -0.1260   -8.0768    0.0000 H   0  0  0  0  0  0  0  0  0  0  0  0
    1.1740   -5.8268    0.0000 C   0  0  0  0  0  0  0  0  0  0  0  0
    2.4740   -6.5768    0.0000 C   0  0  0  0  0  0  0  0  0  0  0  0
    1.5099   -7.7260    0.0000 H   0  0  0  0  0  0  0  0  0  0  0  0
    3.4381   -7.7260    0.0000 H   0  0  0  0  0  0  0  0  0  0  0  0
    3.7740   -5.8268    0.0000 C   0  0  0  0  0  0  0  0  0  0  0  0
    4.2867   -7.2364    0.0000 H   0  0  0  0  0  0  0  0  0  0  0  0
    2.2968   -5.5665    0.0000 H   0  0  0  0  0  0  0  0  0  0  0  0
    3.7740   -4.3268    0.0000 C   0  0  1  0  0  0  0  0  0  0  0  0
    5.0729   -5.0770    0.0000 H   0  0  0  0  0  0  0  0  0  0  0  0
    5.0740   -3.5768    0.0000 C   0  0  2  0  0  0  0  0  0  0  0  0
    6.0726   -2.4575    0.0000 H   0  0  0  0  0  0  0  0  0  0  0  0
    6.5040   -4.0368    0.0000 C   0  0  0  0  0  0  0  0  0  0  0  0
    5.8964   -5.4082    0.0000 H   0  0  0  0  0  0  0  0  0  0  0  0
    7.8035   -4.7859    0.0000 H   0  0  0  0  0  0  0  0  0  0  0  0
    7.3840   -2.8268    0.0000 C   0  0  0  0  0  0  0  0  0  0  0  0
    8.4986   -3.8307    0.0000 H   0  0  0  0  0  0  0  0  0  0  0  0
    6.5040   -1.6168    0.0000 C   0  0  1  0  0  0  0  0  0  0  0  0
    7.8035   -0.8676    0.0000 C   0  0  0  0  0  0  0  0  0  0  0  0
    9.1031   -0.1185    0.0000 C   0  0  0  0  0  0  0  0  0  0  0  0
   10.4026    0.6306    0.0000 H   0  0  0  0  0  0  0  0  0  0  0  0
    6.3042    1.3164    0.0000 O   0  0  0  0  0  0  0  0  0  0  0  0
    7.5492    2.1530    0.0000 C   0  0  0  0  0  0  0  0  0  0  0  0
    8.8963    1.4930    0.0000 O   0  0  0  0  0  0  0  0  0  0  0  0
    7.4473    3.6495    0.0000 C   0  0  0  0  0  0  0  0  0  0  0  0
    6.1003    4.3095    0.0000 H   0  0  0  0  0  0  0  0  0  0  0  0
    8.9388    3.4900    0.0000 H   0  0  0  0  0  0  0  0  0  0  0  0
    7.8633    5.0906    0.0000 H   0  0  0  0  0  0  0  0  0  0  0  0
    8.4986   -1.8229    0.0000 O   0  0  0  0  0  0  0  0  0  0  0  0
    9.9252   -2.2862    0.0000 H   0  0  0  0  0  0  0  0  0  0  0  0
  1  2  1  0  0  0  0 
  1  3  1  0  0  0  0 
  1  4  1  0  0  0  0 
  1  5  1  0  0  0  0 
  5  6  1  0  0  0  0 
  5  7  1  0  0  0  0 
  8  5  1  1  0  0  0 
  8  9  1  0  0  0  0 
  9 10  1  0  0  0  0 
  9 11  1  0  0  0  0 
  9 12  1  0  0  0  0 
 12 13  1  0  0  0  0 
 12 14  1  0  0  0  0 
 12 15  1  0  0  0  0 
 15 16  1  6  0  0  0 
 15 17  1  0  0  0  0 
 17 18  1  1  0  0  0 
 17 19  1  0  0  0  0 
 19 20  1  0  0  0  0 
 19 21  1  0  0  0  0 
 19 22  1  0  0  0  0 
 22 23  1  0  0  0  0 
 22 24  1  0  0  0  0 
 22 25  1  0  0  0  0 
 25 26  2  0  0  0  0 
 26 27  1  0  0  0  0 
 27 28  1  0  0  0  0 
 25 29  1  0  0  0  0 
 29 30  1  0  0  0  0 
 29 31  2  0  0  0  0 
 17 31  1  0  0  0  0 
 31 32  1  0  0  0  0 
 32 33  1  0  0  0  0 
 32 34  1  0  0  0  0 
 32 35  1  0  0  0  0 
 35 36  1  0  0  0  0 
 35 37  1  0  0  0  0 
 35 38  1  0  0  0  0 
 15 38  1  0  0  0  0 
 38 39  1  1  0  0  0 
 38 40  1  0  0  0  0 
  8 40  1  0  0  0  0 
 40 41  1  6  0  0  0 
 40 42  1  0  0  0  0 
 42 43  1  0  0  0  0 
 42 44  1  0  0  0  0 
 42 45  1  0  0  0  0 
 45 46  1  0  0  0  0 
 45 47  1  0  0  0  0 
  8 47  1  0  0  0  0 
 47 48  1  6  0  0  0 
 48 49  3  0  0  0  0 
 49 50  1  0  0  0  0 
 47 51  1  1  0  0  0 
 51 52  1  0  0  0  0 
 52 53  2  0  0  0  0 
 52 54  1  0  0  0  0 
 54 55  1  0  0  0  0 
 54 56  1  0  0  0  0 
 54 57  1  0  0  0  0 
 45 58  1  0  0  0  0 
 58 59  1  0  0  0  0 
M  END
> <Rank>
8

> <Priority_score>
0.0951152720889409

> <Reaction_type>
aliphatic_hydroxylation_(sec_carbon_in_a_ringB)

> <Parent_ID>
2

> <Parent_InChI>
InChI=1S/C23H31NO3/c1-4-22-12-10-19-18-9-7-17(24-26)14-16(18)6-8-20(19)21(22)11-13-23(22,5-2)27-15(3)25/h2,14,18-21,26H,4,6-13H2,1,3H3

> <Parent_SMILES>
C#C[C@]1(OC(C)=O)CC[C@H]2[C@@H]3CCC4=C/C(=N/O)CC[C@@H]4[C@H]3CC[C@@]21CC

$$$$
Molecule 2_metabolite 9
  CDK     0516241031

 59 62  0  0  0  0  0  0  0  0999 V2000
    3.7848    2.0126    0.0000 C   0  0  0  0  0  0  0  0  0  0  0  0
    3.9435    3.5042    0.0000 H   0  0  0  0  0  0  0  0  0  0  0  0
    3.1255    0.6653    0.0000 H   0  0  0  0  0  0  0  0  0  0  0  0
    2.3434    2.4280    0.0000 H   0  0  0  0  0  0  0  0  0  0  0  0
    5.3851    0.8467    0.0000 C   0  0  0  0  0  0  0  0  0  0  0  0
    6.0444    2.1940    0.0000 H   0  0  0  0  0  0  0  0  0  0  0  0
    6.8265    0.4314    0.0000 H   0  0  0  0  0  0  0  0  0  0  0  0
    5.0740   -2.0768    0.0000 C   0  0  2  0  0  0  0  0  0  0  0  0
    3.7740   -1.3268    0.0000 C   0  0  0  0  0  0  0  0  0  0  0  0
    4.7381   -0.1776    0.0000 H   0  0  0  0  0  0  0  0  0  0  0  0
    2.1929    0.5579    0.0000 H   0  0  0  0  0  0  0  0  0  0  0  0
    2.4740   -2.0768    0.0000 C   0  0  0  0  0  0  0  0  0  0  0  0
    1.9613   -0.6671    0.0000 H   0  0  0  0  0  0  0  0  0  0  0  0
   -0.4213   -1.5660    0.0000 H   0  0  0  0  0  0  0  0  0  0  0  0
    2.4740   -3.5768    0.0000 C   0  0  2  0  0  0  0  0  0  0  0  0
    2.4733   -5.0768    0.0000 H   0  0  0  0  0  0  0  0  0  0  0  0
    1.1740   -4.3268    0.0000 C   0  0  1  0  0  0  0  0  0  0  0  0
   -0.1246   -5.0776    0.0000 H   0  0  0  0  0  0  0  0  0  0  0  0
   -0.1260   -3.5768    0.0000 C   0  0  0  0  0  0  0  0  0  0  0  0
    0.8381   -2.4276    0.0000 H   0  0  0  0  0  0  0  0  0  0  0  0
   -1.0901   -2.4276    0.0000 H   0  0  0  0  0  0  0  0  0  0  0  0
   -1.4260   -4.3268    0.0000 C   0  0  0  0  0  0  0  0  0  0  0  0
   -1.9387   -2.9171    0.0000 H   0  0  0  0  0  0  0  0  0  0  0  0
   -2.9032   -4.5871    0.0000 H   0  0  0  0  0  0  0  0  0  0  0  0
   -1.4260   -5.8268    0.0000 C   0  0  0  0  0  0  0  0  0  0  0  0
   -2.7249   -6.5770    0.0000 N   0  0  0  0  0  0  0  0  0  0  0  0
   -4.0241   -5.8272    0.0000 O   0  0  0  0  0  0  0  0  0  0  0  0
   -5.3230   -6.5774    0.0000 H   0  0  0  0  0  0  0  0  0  0  0  0
   -0.1260   -6.5768    0.0000 C   0  0  0  0  0  0  0  0  0  0  0  0
   -0.1260   -8.0768    0.0000 H   0  0  0  0  0  0  0  0  0  0  0  0
    1.1740   -5.8268    0.0000 C   0  0  0  0  0  0  0  0  0  0  0  0
    2.4740   -6.5768    0.0000 C   0  0  0  0  0  0  0  0  0  0  0  0
    1.5099   -7.7260    0.0000 H   0  0  0  0  0  0  0  0  0  0  0  0
    3.7740   -5.8268    0.0000 C   0  0  0  0  0  0  0  0  0  0  0  0
    4.2867   -7.2364    0.0000 H   0  0  0  0  0  0  0  0  0  0  0  0
    2.2968   -5.5665    0.0000 H   0  0  0  0  0  0  0  0  0  0  0  0
    3.7740   -4.3268    0.0000 C   0  0  1  0  0  0  0  0  0  0  0  0
    5.0729   -5.0770    0.0000 H   0  0  0  0  0  0  0  0  0  0  0  0
    5.0740   -3.5768    0.0000 C   0  0  2  0  0  0  0  0  0  0  0  0
    6.0726   -2.4575    0.0000 H   0  0  0  0  0  0  0  0  0  0  0  0
    6.5040   -4.0368    0.0000 C   0  0  0  0  0  0  0  0  0  0  0  0
    5.8964   -5.4082    0.0000 H   0  0  0  0  0  0  0  0  0  0  0  0
    7.8035   -4.7859    0.0000 H   0  0  0  0  0  0  0  0  0  0  0  0
    7.3840   -2.8268    0.0000 C   0  0  0  0  0  0  0  0  0  0  0  0
    8.4986   -3.8307    0.0000 H   0  0  0  0  0  0  0  0  0  0  0  0
    8.4986   -1.8229    0.0000 H   0  0  0  0  0  0  0  0  0  0  0  0
    6.5040   -1.6168    0.0000 C   0  0  1  0  0  0  0  0  0  0  0  0
    7.8035   -0.8676    0.0000 C   0  0  0  0  0  0  0  0  0  0  0  0
    9.1031   -0.1185    0.0000 C   0  0  0  0  0  0  0  0  0  0  0  0
   10.4026    0.6306    0.0000 H   0  0  0  0  0  0  0  0  0  0  0  0
    6.3042    1.3164    0.0000 O   0  0  0  0  0  0  0  0  0  0  0  0
    7.5492    2.1530    0.0000 C   0  0  0  0  0  0  0  0  0  0  0  0
    8.8963    1.4930    0.0000 O   0  0  0  0  0  0  0  0  0  0  0  0
    7.4473    3.6495    0.0000 C   0  0  0  0  0  0  0  0  0  0  0  0
    6.1003    4.3095    0.0000 H   0  0  0  0  0  0  0  0  0  0  0  0
    8.9388    3.4900    0.0000 H   0  0  0  0  0  0  0  0  0  0  0  0
    7.8633    5.0906    0.0000 H   0  0  0  0  0  0  0  0  0  0  0  0
    3.4381   -7.7260    0.0000 O   0  0  0  0  0  0  0  0  0  0  0  0
    2.9249   -9.1354    0.0000 H   0  0  0  0  0  0  0  0  0  0  0  0
  1  2  1  0  0  0  0 
  1  3  1  0  0  0  0 
  1  4  1  0  0  0  0 
  1  5  1  0  0  0  0 
  5  6  1  0  0  0  0 
  5  7  1  0  0  0  0 
  8  5  1  1  0  0  0 
  8  9  1  0  0  0  0 
  9 10  1  0  0  0  0 
  9 11  1  0  0  0  0 
  9 12  1  0  0  0  0 
 12 13  1  0  0  0  0 
 12 14  1  0  0  0  0 
 12 15  1  0  0  0  0 
 15 16  1  6  0  0  0 
 15 17  1  0  0  0  0 
 17 18  1  1  0  0  0 
 17 19  1  0  0  0  0 
 19 20  1  0  0  0  0 
 19 21  1  0  0  0  0 
 19 22  1  0  0  0  0 
 22 23  1  0  0  0  0 
 22 24  1  0  0  0  0 
 22 25  1  0  0  0  0 
 25 26  2  0  0  0  0 
 26 27  1  0  0  0  0 
 27 28  1  0  0  0  0 
 25 29  1  0  0  0  0 
 29 30  1  0  0  0  0 
 29 31  2  0  0  0  0 
 17 31  1  0  0  0  0 
 31 32  1  0  0  0  0 
 32 33  1  0  0  0  0 
 32 34  1  0  0  0  0 
 34 35  1  0  0  0  0 
 34 36  1  0  0  0  0 
 34 37  1  0  0  0  0 
 15 37  1  0  0  0  0 
 37 38  1  1  0  0  0 
 37 39  1  0  0  0  0 
  8 39  1  0  0  0  0 
 39 40  1  6  0  0  0 
 39 41  1  0  0  0  0 
 41 42  1  0  0  0  0 
 41 43  1  0  0  0  0 
 41 44  1  0  0  0  0 
 44 45  1  0  0  0  0 
 44 46  1  0  0  0  0 
 44 47  1  0  0  0  0 
  8 47  1  0  0  0  0 
 47 48  1  6  0  0  0 
 48 49  3  0  0  0  0 
 49 50  1  0  0  0  0 
 47 51  1  1  0  0  0 
 51 52  1  0  0  0  0 
 52 53  2  0  0  0  0 
 52 54  1  0  0  0  0 
 54 55  1  0  0  0  0 
 54 56  1  0  0  0  0 
 54 57  1  0  0  0  0 
 32 58  1  0  0  0  0 
 58 59  1  0  0  0  0 
M  END
> <Rank>
9

> <Priority_score>
0.088

> <Reaction_type>
aliphatic_hydroxylation_(sec_carbon_next_to_SP2,in_a_ring)

> <Parent_ID>
2

> <Parent_InChI>
InChI=1S/C23H31NO3/c1-4-22-12-10-19-18-9-7-17(24-26)14-16(18)6-8-20(19)21(22)11-13-23(22,5-2)27-15(3)25/h2,14,18-21,26H,4,6-13H2,1,3H3

> <Parent_SMILES>
C#C[C@]1(OC(C)=O)CC[C@H]2[C@@H]3CCC4=C/C(=N/O)CC[C@@H]4[C@H]3CC[C@@]21CC

$$$$
Molecule 2_metabolite 10
  CDK     0516241031

 58 61  0  0  0  0  0  0  0  0999 V2000
    7.6118    0.8715    0.0000 C   0  0  0  0  0  0  0  0  0  0  0  0
    8.9113    1.6206    0.0000 H   0  0  0  0  0  0  0  0  0  0  0  0
    6.3123    0.1223    0.0000 C   0  0  0  0  0  0  0  0  0  0  0  0
    5.0127   -0.6268    0.0000 C   0  0  2  0  0  0  0  0  0  0  0  0
    5.8927   -1.8368    0.0000 C   0  0  0  0  0  0  0  0  0  0  0  0
    7.0073   -2.8407    0.0000 H   0  0  0  0  0  0  0  0  0  0  0  0
    7.0073   -0.8330    0.0000 H   0  0  0  0  0  0  0  0  0  0  0  0
    5.0127   -3.0468    0.0000 C   0  0  0  0  0  0  0  0  0  0  0  0
    5.3186   -1.5784    0.0000 H   0  0  0  0  0  0  0  0  0  0  0  0
    6.3123   -3.7960    0.0000 H   0  0  0  0  0  0  0  0  0  0  0  0
    3.5827   -2.5868    0.0000 C   0  0  1  0  0  0  0  0  0  0  0  0
    1.9831   -1.4199    0.0000 H   0  0  0  0  0  0  0  0  0  0  0  0
    2.2827   -3.3368    0.0000 C   0  0  2  0  0  0  0  0  0  0  0  0
    0.5681   -4.3271    0.0000 H   0  0  0  0  0  0  0  0  0  0  0  0
    2.2827   -4.8368    0.0000 C   0  0  0  0  0  0  0  0  0  0  0  0
    2.7954   -6.2465    0.0000 H   0  0  0  0  0  0  0  0  0  0  0  0
    3.7600   -4.5765    0.0000 H   0  0  0  0  0  0  0  0  0  0  0  0
    0.9827   -5.5868    0.0000 C   0  0  0  0  0  0  0  0  0  0  0  0
    0.0187   -6.7360    0.0000 H   0  0  0  0  0  0  0  0  0  0  0  0
    1.9468   -6.7360    0.0000 H   0  0  0  0  0  0  0  0  0  0  0  0
   -0.3173   -4.8368    0.0000 C   0  0  0  0  0  0  0  0  0  0  0  0
   -1.6173   -5.5868    0.0000 C   0  0  0  0  0  0  0  0  0  0  0  0
   -1.6173   -7.0868    0.0000 H   0  0  0  0  0  0  0  0  0  0  0  0
   -2.9173   -4.8368    0.0000 C   0  0  0  0  0  0  0  0  0  0  0  0
   -4.2162   -5.5870    0.0000 N   0  0  0  0  0  0  0  0  0  0  0  0
   -5.5154   -4.8373    0.0000 O   0  0  0  0  0  0  0  0  0  0  0  0
   -6.8143   -5.5875    0.0000 H   0  0  0  0  0  0  0  0  0  0  0  0
   -2.9173   -3.3368    0.0000 C   0  0  0  0  0  0  0  0  0  0  0  0
   -3.4300   -1.9272    0.0000 H   0  0  0  0  0  0  0  0  0  0  0  0
   -4.3945   -3.5971    0.0000 H   0  0  0  0  0  0  0  0  0  0  0  0
   -1.6173   -2.5868    0.0000 C   0  0  0  0  0  0  0  0  0  0  0  0
   -2.1296   -3.9966    0.0000 H   0  0  0  0  0  0  0  0  0  0  0  0
   -2.5813   -1.4377    0.0000 H   0  0  0  0  0  0  0  0  0  0  0  0
   -0.3173   -3.3368    0.0000 C   0  0  2  0  0  0  0  0  0  0  0  0
    1.3968   -4.3279    0.0000 H   0  0  0  0  0  0  0  0  0  0  0  0
    0.9827   -2.5868    0.0000 C   0  0  1  0  0  0  0  0  0  0  0  0
    2.4599   -2.3261    0.0000 H   0  0  0  0  0  0  0  0  0  0  0  0
    0.9827   -1.0868    0.0000 C   0  0  0  0  0  0  0  0  0  0  0  0
    0.4700    0.3228    0.0000 H   0  0  0  0  0  0  0  0  0  0  0  0
   -0.4945   -1.3471    0.0000 H   0  0  0  0  0  0  0  0  0  0  0  0
    2.2827   -0.3368    0.0000 C   0  0  0  0  0  0  0  0  0  0  0  0
    3.2468    0.8123    0.0000 H   0  0  0  0  0  0  0  0  0  0  0  0
    1.3187    0.8123    0.0000 H   0  0  0  0  0  0  0  0  0  0  0  0
    3.5827   -1.0868    0.0000 C   0  0  2  0  0  0  0  0  0  0  0  0
    3.8939    1.8367    0.0000 C   0  0  0  0  0  0  0  0  0  0  0  0
    4.5532    3.1840    0.0000 H   0  0  0  0  0  0  0  0  0  0  0  0
    5.3352    1.4213    0.0000 H   0  0  0  0  0  0  0  0  0  0  0  0
    2.2935    3.0026    0.0000 C   0  0  0  0  0  0  0  0  0  0  0  0
    0.4837    2.1996    0.0000 O   0  0  0  0  0  0  0  0  0  0  0  0
    2.4523    4.4941    0.0000 O   0  0  0  0  0  0  0  0  0  0  0  0
    1.2399    5.3774    0.0000 H   0  0  0  0  0  0  0  0  0  0  0  0
    5.3253    2.2965    0.0000 O   0  0  0  0  0  0  0  0  0  0  0  0
    7.1356    3.0986    0.0000 C   0  0  0  0  0  0  0  0  0  0  0  0
    8.3475    2.2147    0.0000 O   0  0  0  0  0  0  0  0  0  0  0  0
    7.2950    4.5901    0.0000 C   0  0  0  0  0  0  0  0  0  0  0  0
    6.0831    5.4739    0.0000 H   0  0  0  0  0  0  0  0  0  0  0  0
    8.7362    4.1740    0.0000 H   0  0  0  0  0  0  0  0  0  0  0  0
    7.9550    5.9371    0.0000 H   0  0  0  0  0  0  0  0  0  0  0  0
  1  2  1  0  0  0  0 
  1  3  3  0  0  0  0 
  4  3  1  6  0  0  0 
  4  5  1  0  0  0  0 
  5  6  1  0  0  0  0 
  5  7  1  0  0  0  0 
  5  8  1  0  0  0  0 
  8  9  1  0  0  0  0 
  8 10  1  0  0  0  0 
  8 11  1  0  0  0  0 
 11 12  1  6  0  0  0 
 11 13  1  0  0  0  0 
 13 14  1  1  0  0  0 
 13 15  1  0  0  0  0 
 15 16  1  0  0  0  0 
 15 17  1  0  0  0  0 
 15 18  1  0  0  0  0 
 18 19  1  0  0  0  0 
 18 20  1  0  0  0  0 
 18 21  1  0  0  0  0 
 21 22  2  0  0  0  0 
 22 23  1  0  0  0  0 
 22 24  1  0  0  0  0 
 24 25  2  0  0  0  0 
 25 26  1  0  0  0  0 
 26 27  1  0  0  0  0 
 24 28  1  0  0  0  0 
 28 29  1  0  0  0  0 
 28 30  1  0  0  0  0 
 28 31  1  0  0  0  0 
 31 32  1  0  0  0  0 
 31 33  1  0  0  0  0 
 31 34  1  0  0  0  0 
 21 34  1  0  0  0  0 
 34 35  1  1  0  0  0 
 34 36  1  0  0  0  0 
 13 36  1  0  0  0  0 
 36 37  1  6  0  0  0 
 36 38  1  0  0  0  0 
 38 39  1  0  0  0  0 
 38 40  1  0  0  0  0 
 38 41  1  0  0  0  0 
 41 42  1  0  0  0  0 
 41 43  1  0  0  0  0 
 41 44  1  0  0  0  0 
 11 44  1  0  0  0  0 
  4 44  1  0  0  0  0 
 44 45  1  1  0  0  0 
 45 46  1  0  0  0  0 
 45 47  1  0  0  0  0 
 45 48  1  0  0  0  0 
 48 49  2  0  0  0  0 
 48 50  1  0  0  0  0 
 50 51  1  0  0  0  0 
  4 52  1  1  0  0  0 
 52 53  1  0  0  0  0 
 53 54  2  0  0  0  0 
 53 55  1  0  0  0  0 
 55 56  1  0  0  0  0 
 55 57  1  0  0  0  0 
 55 58  1  0  0  0  0 
M  END
> <Rank>
10

> <Priority_score>
0.08

> <Reaction_type>
carboxylation_(primary_carbon_next_to_sec_carbon)

> <Parent_ID>
2

> <Parent_InChI>
InChI=1S/C23H31NO3/c1-4-22-12-10-19-18-9-7-17(24-26)14-16(18)6-8-20(19)21(22)11-13-23(22,5-2)27-15(3)25/h2,14,18-21,26H,4,6-13H2,1,3H3

> <Parent_SMILES>
C#C[C@]1(OC(C)=O)CC[C@H]2[C@@H]3CCC4=C/C(=N/O)CC[C@@H]4[C@H]3CC[C@@]21CC

$$$$
Molecule 2_metabolite 11
  CDK     0516241031

 59 62  0  0  0  0  0  0  0  0999 V2000
    7.0470    0.2466    0.0000 C   0  0  0  0  0  0  0  0  0  0  0  0
    8.3465    0.9957    0.0000 H   0  0  0  0  0  0  0  0  0  0  0  0
    5.7474   -0.5026    0.0000 C   0  0  0  0  0  0  0  0  0  0  0  0
    4.4479   -1.2517    0.0000 C   0  0  2  0  0  0  0  0  0  0  0  0
    5.3279   -2.4617    0.0000 C   0  0  0  0  0  0  0  0  0  0  0  0
    6.4425   -3.4656    0.0000 H   0  0  0  0  0  0  0  0  0  0  0  0
    6.4425   -1.4578    0.0000 H   0  0  0  0  0  0  0  0  0  0  0  0
    4.4479   -3.6717    0.0000 C   0  0  0  0  0  0  0  0  0  0  0  0
    4.7538   -2.2032    0.0000 H   0  0  0  0  0  0  0  0  0  0  0  0
    5.7474   -4.4209    0.0000 H   0  0  0  0  0  0  0  0  0  0  0  0
    3.0179   -3.2117    0.0000 C   0  0  1  0  0  0  0  0  0  0  0  0
    1.4183   -2.0448    0.0000 H   0  0  0  0  0  0  0  0  0  0  0  0
    1.7179   -3.9617    0.0000 C   0  0  2  0  0  0  0  0  0  0  0  0
    0.0033   -4.9520    0.0000 H   0  0  0  0  0  0  0  0  0  0  0  0
    1.7179   -5.4617    0.0000 C   0  0  0  0  0  0  0  0  0  0  0  0
    2.2306   -6.8714    0.0000 H   0  0  0  0  0  0  0  0  0  0  0  0
    3.1952   -5.2014    0.0000 H   0  0  0  0  0  0  0  0  0  0  0  0
    0.4179   -6.2117    0.0000 C   0  0  0  0  0  0  0  0  0  0  0  0
   -0.5461   -7.3609    0.0000 H   0  0  0  0  0  0  0  0  0  0  0  0
    1.3820   -7.3609    0.0000 H   0  0  0  0  0  0  0  0  0  0  0  0
   -0.8821   -5.4617    0.0000 C   0  0  0  0  0  0  0  0  0  0  0  0
   -2.1821   -6.2117    0.0000 C   0  0  0  0  0  0  0  0  0  0  0  0
   -2.1821   -7.7117    0.0000 H   0  0  0  0  0  0  0  0  0  0  0  0
   -3.4821   -5.4617    0.0000 C   0  0  0  0  0  0  0  0  0  0  0  0
   -4.7810   -6.2119    0.0000 N   0  0  0  0  0  0  0  0  0  0  0  0
   -6.0802   -5.4621    0.0000 O   0  0  0  0  0  0  0  0  0  0  0  0
   -7.3791   -6.2123    0.0000 H   0  0  0  0  0  0  0  0  0  0  0  0
   -3.4821   -3.9617    0.0000 C   0  0  0  0  0  0  0  0  0  0  0  0
   -3.9948   -2.5521    0.0000 H   0  0  0  0  0  0  0  0  0  0  0  0
   -4.9593   -4.2220    0.0000 H   0  0  0  0  0  0  0  0  0  0  0  0
   -2.1821   -3.2117    0.0000 C   0  0  0  0  0  0  0  0  0  0  0  0
   -2.6944   -4.6215    0.0000 H   0  0  0  0  0  0  0  0  0  0  0  0
   -3.1461   -2.0625    0.0000 H   0  0  0  0  0  0  0  0  0  0  0  0
   -0.8821   -3.9617    0.0000 C   0  0  2  0  0  0  0  0  0  0  0  0
    0.8320   -4.9528    0.0000 H   0  0  0  0  0  0  0  0  0  0  0  0
    0.4179   -3.2117    0.0000 C   0  0  1  0  0  0  0  0  0  0  0  0
    1.8951   -2.9510    0.0000 H   0  0  0  0  0  0  0  0  0  0  0  0
    0.4179   -1.7117    0.0000 C   0  0  0  0  0  0  0  0  0  0  0  0
   -0.0948   -0.3021    0.0000 H   0  0  0  0  0  0  0  0  0  0  0  0
   -1.0593   -1.9720    0.0000 H   0  0  0  0  0  0  0  0  0  0  0  0
    1.7179   -0.9617    0.0000 C   0  0  0  0  0  0  0  0  0  0  0  0
    2.6820    0.1875    0.0000 H   0  0  0  0  0  0  0  0  0  0  0  0
    0.7539    0.1875    0.0000 H   0  0  0  0  0  0  0  0  0  0  0  0
    3.0179   -1.7117    0.0000 C   0  0  2  0  0  0  0  0  0  0  0  0
    3.3290    1.2118    0.0000 C   0  0  0  0  0  0  0  0  0  0  0  0
    3.9884    2.5591    0.0000 H   0  0  0  0  0  0  0  0  0  0  0  0
    1.3408    2.6603    0.0000 C   0  0  0  0  0  0  0  0  0  0  0  0
   -0.0304    2.0520    0.0000 H   0  0  0  0  0  0  0  0  0  0  0  0
    2.4211    3.7009    0.0000 H   0  0  0  0  0  0  0  0  0  0  0  0
    0.5036    3.9050    0.0000 H   0  0  0  0  0  0  0  0  0  0  0  0
    4.7704    0.7964    0.0000 O   0  0  0  0  0  0  0  0  0  0  0  0
    5.8508    1.8370    0.0000 H   0  0  0  0  0  0  0  0  0  0  0  0
    4.2481    1.6815    0.0000 O   0  0  0  0  0  0  0  0  0  0  0  0
    6.2900    3.0534    0.0000 C   0  0  0  0  0  0  0  0  0  0  0  0
    7.6370    2.3935    0.0000 O   0  0  0  0  0  0  0  0  0  0  0  0
    6.1881    4.5500    0.0000 C   0  0  0  0  0  0  0  0  0  0  0  0
    4.8411    5.2099    0.0000 H   0  0  0  0  0  0  0  0  0  0  0  0
    7.6796    4.3905    0.0000 H   0  0  0  0  0  0  0  0  0  0  0  0
    6.6041    5.9911    0.0000 H   0  0  0  0  0  0  0  0  0  0  0  0
  1  2  1  0  0  0  0 
  1  3  3  0  0  0  0 
  4  3  1  6  0  0  0 
  4  5  1  0  0  0  0 
  5  6  1  0  0  0  0 
  5  7  1  0  0  0  0 
  5  8  1  0  0  0  0 
  8  9  1  0  0  0  0 
  8 10  1  0  0  0  0 
  8 11  1  0  0  0  0 
 11 12  1  6  0  0  0 
 11 13  1  0  0  0  0 
 13 14  1  1  0  0  0 
 13 15  1  0  0  0  0 
 15 16  1  0  0  0  0 
 15 17  1  0  0  0  0 
 15 18  1  0  0  0  0 
 18 19  1  0  0  0  0 
 18 20  1  0  0  0  0 
 18 21  1  0  0  0  0 
 21 22  2  0  0  0  0 
 22 23  1  0  0  0  0 
 22 24  1  0  0  0  0 
 24 25  2  0  0  0  0 
 25 26  1  0  0  0  0 
 26 27  1  0  0  0  0 
 24 28  1  0  0  0  0 
 28 29  1  0  0  0  0 
 28 30  1  0  0  0  0 
 28 31  1  0  0  0  0 
 31 32  1  0  0  0  0 
 31 33  1  0  0  0  0 
 31 34  1  0  0  0  0 
 21 34  1  0  0  0  0 
 34 35  1  1  0  0  0 
 34 36  1  0  0  0  0 
 13 36  1  0  0  0  0 
 36 37  1  6  0  0  0 
 36 38  1  0  0  0  0 
 38 39  1  0  0  0  0 
 38 40  1  0  0  0  0 
 38 41  1  0  0  0  0 
 41 42  1  0  0  0  0 
 41 43  1  0  0  0  0 
 41 44  1  0  0  0  0 
 11 44  1  0  0  0  0 
  4 44  1  0  0  0  0 
 44 45  1  1  0  0  0 
 45 46  1  0  0  0  0 
 45 47  1  0  0  0  0 
 47 48  1  0  0  0  0 
 47 49  1  0  0  0  0 
 47 50  1  0  0  0  0 
 45 51  1  0  0  0  0 
 51 52  1  0  0  0  0 
  4 53  1  1  0  0  0 
 53 54  1  0  0  0  0 
 54 55  2  0  0  0  0 
 54 56  1  0  0  0  0 
 56 57  1  0  0  0  0 
 56 58  1  0  0  0  0 
 56 59  1  0  0  0  0 
M  END
> <Rank>
10

> <Priority_score>
0.08

> <Reaction_type>
aliphatic_hydroxylation_(sec_carbon,next_to_CH3)

> <Parent_ID>
2

> <Parent_InChI>
InChI=1S/C23H31NO3/c1-4-22-12-10-19-18-9-7-17(24-26)14-16(18)6-8-20(19)21(22)11-13-23(22,5-2)27-15(3)25/h2,14,18-21,26H,4,6-13H2,1,3H3

> <Parent_SMILES>
C#C[C@]1(OC(C)=O)CC[C@H]2[C@@H]3CCC4=C/C(=N/O)CC[C@@H]4[C@H]3CC[C@@]21CC

$$$$
Molecule 2_metabolite 12
  CDK     0516241031

 59 62  0  0  0  0  0  0  0  0999 V2000
    7.1521    0.1163    0.0000 C   0  0  0  0  0  0  0  0  0  0  0  0
    8.4516    0.8655    0.0000 H   0  0  0  0  0  0  0  0  0  0  0  0
    5.8525   -0.6328    0.0000 C   0  0  0  0  0  0  0  0  0  0  0  0
    4.5530   -1.3819    0.0000 C   0  0  2  0  0  0  0  0  0  0  0  0
    5.4330   -2.5919    0.0000 C   0  0  0  0  0  0  0  0  0  0  0  0
    6.5475   -3.5958    0.0000 H   0  0  0  0  0  0  0  0  0  0  0  0
    6.5475   -1.5881    0.0000 H   0  0  0  0  0  0  0  0  0  0  0  0
    4.5530   -3.8019    0.0000 C   0  0  0  0  0  0  0  0  0  0  0  0
    4.8589   -2.3335    0.0000 H   0  0  0  0  0  0  0  0  0  0  0  0
    5.8525   -4.5511    0.0000 H   0  0  0  0  0  0  0  0  0  0  0  0
    3.1230   -3.3419    0.0000 C   0  0  1  0  0  0  0  0  0  0  0  0
    1.5234   -2.1750    0.0000 H   0  0  0  0  0  0  0  0  0  0  0  0
    1.8230   -4.0919    0.0000 C   0  0  2  0  0  0  0  0  0  0  0  0
    0.1084   -5.0822    0.0000 H   0  0  0  0  0  0  0  0  0  0  0  0
    1.8230   -5.5919    0.0000 C   0  0  0  0  0  0  0  0  0  0  0  0
    2.3357   -7.0016    0.0000 H   0  0  0  0  0  0  0  0  0  0  0  0
    3.3002   -5.3316    0.0000 H   0  0  0  0  0  0  0  0  0  0  0  0
    0.5230   -6.3419    0.0000 C   0  0  0  0  0  0  0  0  0  0  0  0
   -0.4411   -7.4911    0.0000 H   0  0  0  0  0  0  0  0  0  0  0  0
    1.4870   -7.4911    0.0000 H   0  0  0  0  0  0  0  0  0  0  0  0
   -0.7770   -5.5919    0.0000 C   0  0  0  0  0  0  0  0  0  0  0  0
   -2.0770   -6.3419    0.0000 C   0  0  0  0  0  0  0  0  0  0  0  0
   -2.0770   -7.8419    0.0000 H   0  0  0  0  0  0  0  0  0  0  0  0
   -3.3770   -5.5919    0.0000 C   0  0  0  0  0  0  0  0  0  0  0  0
   -4.6759   -6.3422    0.0000 N   0  0  0  0  0  0  0  0  0  0  0  0
   -5.9751   -5.5924    0.0000 O   0  0  0  0  0  0  0  0  0  0  0  0
   -7.2740   -6.3426    0.0000 H   0  0  0  0  0  0  0  0  0  0  0  0
   -3.3770   -4.0919    0.0000 C   0  0  0  0  0  0  0  0  0  0  0  0
   -3.8897   -2.6823    0.0000 H   0  0  0  0  0  0  0  0  0  0  0  0
   -4.8542   -4.3523    0.0000 H   0  0  0  0  0  0  0  0  0  0  0  0
   -2.0770   -3.3419    0.0000 C   0  0  0  0  0  0  0  0  0  0  0  0
   -2.5893   -4.7518    0.0000 H   0  0  0  0  0  0  0  0  0  0  0  0
   -3.0411   -2.1928    0.0000 H   0  0  0  0  0  0  0  0  0  0  0  0
   -0.7770   -4.0919    0.0000 C   0  0  2  0  0  0  0  0  0  0  0  0
    0.9371   -5.0830    0.0000 H   0  0  0  0  0  0  0  0  0  0  0  0
    0.5230   -3.3419    0.0000 C   0  0  1  0  0  0  0  0  0  0  0  0
    2.0002   -3.0812    0.0000 H   0  0  0  0  0  0  0  0  0  0  0  0
    0.5230   -1.8419    0.0000 C   0  0  0  0  0  0  0  0  0  0  0  0
    0.0103   -0.4323    0.0000 H   0  0  0  0  0  0  0  0  0  0  0  0
   -0.9542   -2.1023    0.0000 H   0  0  0  0  0  0  0  0  0  0  0  0
    1.8230   -1.0919    0.0000 C   0  0  0  0  0  0  0  0  0  0  0  0
    2.7870    0.0572    0.0000 H   0  0  0  0  0  0  0  0  0  0  0  0
    0.8589    0.0572    0.0000 H   0  0  0  0  0  0  0  0  0  0  0  0
    3.1230   -1.8419    0.0000 C   0  0  2  0  0  0  0  0  0  0  0  0
    3.4341    1.0815    0.0000 C   0  0  0  0  0  0  0  0  0  0  0  0
    4.0934    2.4289    0.0000 H   0  0  0  0  0  0  0  0  0  0  0  0
    4.8755    0.6662    0.0000 H   0  0  0  0  0  0  0  0  0  0  0  0
    1.4458    2.5301    0.0000 C   0  0  0  0  0  0  0  0  0  0  0  0
    2.5262    3.5707    0.0000 H   0  0  0  0  0  0  0  0  0  0  0  0
    0.6087    3.7747    0.0000 H   0  0  0  0  0  0  0  0  0  0  0  0
    0.0747    1.9218    0.0000 O   0  0  0  0  0  0  0  0  0  0  0  0
   -1.1377    2.8050    0.0000 H   0  0  0  0  0  0  0  0  0  0  0  0
    4.3532    1.5513    0.0000 O   0  0  0  0  0  0  0  0  0  0  0  0
    6.3951    2.9232    0.0000 C   0  0  0  0  0  0  0  0  0  0  0  0
    7.7421    2.2632    0.0000 O   0  0  0  0  0  0  0  0  0  0  0  0
    6.2931    4.4197    0.0000 C   0  0  0  0  0  0  0  0  0  0  0  0
    4.9461    5.0797    0.0000 H   0  0  0  0  0  0  0  0  0  0  0  0
    7.7846    4.2603    0.0000 H   0  0  0  0  0  0  0  0  0  0  0  0
    6.7092    5.8609    0.0000 H   0  0  0  0  0  0  0  0  0  0  0  0
  1  2  1  0  0  0  0 
  1  3  3  0  0  0  0 
  4  3  1  6  0  0  0 
  4  5  1  0  0  0  0 
  5  6  1  0  0  0  0 
  5  7  1  0  0  0  0 
  5  8  1  0  0  0  0 
  8  9  1  0  0  0  0 
  8 10  1  0  0  0  0 
  8 11  1  0  0  0  0 
 11 12  1  6  0  0  0 
 11 13  1  0  0  0  0 
 13 14  1  1  0  0  0 
 13 15  1  0  0  0  0 
 15 16  1  0  0  0  0 
 15 17  1  0  0  0  0 
 15 18  1  0  0  0  0 
 18 19  1  0  0  0  0 
 18 20  1  0  0  0  0 
 18 21  1  0  0  0  0 
 21 22  2  0  0  0  0 
 22 23  1  0  0  0  0 
 22 24  1  0  0  0  0 
 24 25  2  0  0  0  0 
 25 26  1  0  0  0  0 
 26 27  1  0  0  0  0 
 24 28  1  0  0  0  0 
 28 29  1  0  0  0  0 
 28 30  1  0  0  0  0 
 28 31  1  0  0  0  0 
 31 32  1  0  0  0  0 
 31 33  1  0  0  0  0 
 31 34  1  0  0  0  0 
 21 34  1  0  0  0  0 
 34 35  1  1  0  0  0 
 34 36  1  0  0  0  0 
 13 36  1  0  0  0  0 
 36 37  1  6  0  0  0 
 36 38  1  0  0  0  0 
 38 39  1  0  0  0  0 
 38 40  1  0  0  0  0 
 38 41  1  0  0  0  0 
 41 42  1  0  0  0  0 
 41 43  1  0  0  0  0 
 41 44  1  0  0  0  0 
 11 44  1  0  0  0  0 
  4 44  1  0  0  0  0 
 44 45  1  1  0  0  0 
 45 46  1  0  0  0  0 
 45 47  1  0  0  0  0 
 45 48  1  0  0  0  0 
 48 49  1  0  0  0  0 
 48 50  1  0  0  0  0 
 48 51  1  0  0  0  0 
 51 52  1  0  0  0  0 
  4 53  1  1  0  0  0 
 53 54  1  0  0  0  0 
 54 55  2  0  0  0  0 
 54 56  1  0  0  0  0 
 56 57  1  0  0  0  0 
 56 58  1  0  0  0  0 
 56 59  1  0  0  0  0 
M  END
> <Rank>
10

> <Priority_score>
0.08

> <Reaction_type>
aliphatic_hydroxylation_(primary_carbon_next_to_sec_carbon)

> <Parent_ID>
2

> <Parent_InChI>
InChI=1S/C23H31NO3/c1-4-22-12-10-19-18-9-7-17(24-26)14-16(18)6-8-20(19)21(22)11-13-23(22,5-2)27-15(3)25/h2,14,18-21,26H,4,6-13H2,1,3H3

> <Parent_SMILES>
C#C[C@]1(OC(C)=O)CC[C@H]2[C@@H]3CCC4=C/C(=N/O)CC[C@@H]4[C@H]3CC[C@@]21CC

$$$$
Molecule 2_metabolite 13
  CDK     0516241031

 59 62  0  0  0  0  0  0  0  0999 V2000
    3.4697   -0.1030    0.0000 C   0  0  0  0  0  0  0  0  0  0  0  0
    3.6284    1.3886    0.0000 H   0  0  0  0  0  0  0  0  0  0  0  0
    2.8103   -1.4503    0.0000 H   0  0  0  0  0  0  0  0  0  0  0  0
    2.0283    0.3124    0.0000 H   0  0  0  0  0  0  0  0  0  0  0  0
    5.0700   -1.2689    0.0000 C   0  0  0  0  0  0  0  0  0  0  0  0
    5.7293    0.0784    0.0000 H   0  0  0  0  0  0  0  0  0  0  0  0
    6.5113   -1.6842    0.0000 H   0  0  0  0  0  0  0  0  0  0  0  0
    4.7589   -4.1924    0.0000 C   0  0  2  0  0  0  0  0  0  0  0  0
    3.4589   -3.4424    0.0000 C   0  0  0  0  0  0  0  0  0  0  0  0
    4.4229   -2.2932    0.0000 H   0  0  0  0  0  0  0  0  0  0  0  0
    1.8778   -1.5577    0.0000 H   0  0  0  0  0  0  0  0  0  0  0  0
    2.1589   -4.1924    0.0000 C   0  0  0  0  0  0  0  0  0  0  0  0
    1.6461   -2.7827    0.0000 H   0  0  0  0  0  0  0  0  0  0  0  0
    3.6361   -4.4527    0.0000 H   0  0  0  0  0  0  0  0  0  0  0  0
    2.1589   -5.6924    0.0000 C   0  0  1  0  0  0  0  0  0  0  0  0
   -0.0930   -3.8022    0.0000 H   0  0  0  0  0  0  0  0  0  0  0  0
    3.4589   -6.4424    0.0000 C   0  0  1  0  0  0  0  0  0  0  0  0
    2.1599   -7.1926    0.0000 H   0  0  0  0  0  0  0  0  0  0  0  0
    3.4589   -7.9424    0.0000 C   0  0  0  0  0  0  0  0  0  0  0  0
    3.9716   -9.3520    0.0000 H   0  0  0  0  0  0  0  0  0  0  0  0
    4.9361   -7.6821    0.0000 H   0  0  0  0  0  0  0  0  0  0  0  0
    2.1589   -8.6924    0.0000 C   0  0  0  0  0  0  0  0  0  0  0  0
    1.1948   -9.8415    0.0000 H   0  0  0  0  0  0  0  0  0  0  0  0
    3.1229   -9.8415    0.0000 H   0  0  0  0  0  0  0  0  0  0  0  0
    0.8589   -7.9424    0.0000 C   0  0  0  0  0  0  0  0  0  0  0  0
   -0.4411   -8.6924    0.0000 C   0  0  0  0  0  0  0  0  0  0  0  0
   -0.4411  -10.1924    0.0000 H   0  0  0  0  0  0  0  0  0  0  0  0
   -1.7411   -7.9424    0.0000 C   0  0  0  0  0  0  0  0  0  0  0  0
   -3.0401   -8.6926    0.0000 N   0  0  0  0  0  0  0  0  0  0  0  0
   -4.3392   -7.9428    0.0000 O   0  0  0  0  0  0  0  0  0  0  0  0
   -5.6381   -8.6930    0.0000 H   0  0  0  0  0  0  0  0  0  0  0  0
   -1.7411   -6.4424    0.0000 C   0  0  0  0  0  0  0  0  0  0  0  0
   -2.2539   -5.0327    0.0000 H   0  0  0  0  0  0  0  0  0  0  0  0
   -3.2184   -6.7027    0.0000 H   0  0  0  0  0  0  0  0  0  0  0  0
   -0.4411   -5.6924    0.0000 C   0  0  0  0  0  0  0  0  0  0  0  0
    0.5229   -4.5432    0.0000 H   0  0  0  0  0  0  0  0  0  0  0  0
   -1.4052   -4.5432    0.0000 H   0  0  0  0  0  0  0  0  0  0  0  0
    0.8589   -6.4424    0.0000 C   0  0  2  0  0  0  0  0  0  0  0  0
    0.8589   -3.5024    0.0000 O   0  0  0  0  0  0  0  0  0  0  0  0
   -0.4402   -2.7524    0.0000 H   0  0  0  0  0  0  0  0  0  0  0  0
    4.7589   -5.6924    0.0000 C   0  0  2  0  0  0  0  0  0  0  0  0
    5.7575   -4.5731    0.0000 H   0  0  0  0  0  0  0  0  0  0  0  0
    6.1889   -6.1524    0.0000 C   0  0  0  0  0  0  0  0  0  0  0  0
    5.5812   -7.5238    0.0000 H   0  0  0  0  0  0  0  0  0  0  0  0
    7.4884   -6.9015    0.0000 H   0  0  0  0  0  0  0  0  0  0  0  0
    7.0689   -4.9424    0.0000 C   0  0  0  0  0  0  0  0  0  0  0  0
    8.1834   -5.9462    0.0000 H   0  0  0  0  0  0  0  0  0  0  0  0
    8.1834   -3.9385    0.0000 H   0  0  0  0  0  0  0  0  0  0  0  0
    6.1889   -3.7324    0.0000 C   0  0  1  0  0  0  0  0  0  0  0  0
    7.4884   -2.9832    0.0000 C   0  0  0  0  0  0  0  0  0  0  0  0
    8.7879   -2.2341    0.0000 C   0  0  0  0  0  0  0  0  0  0  0  0
   10.0875   -1.4849    0.0000 H   0  0  0  0  0  0  0  0  0  0  0  0
    5.9890   -0.7992    0.0000 O   0  0  0  0  0  0  0  0  0  0  0  0
    7.2341    0.0374    0.0000 C   0  0  0  0  0  0  0  0  0  0  0  0
    8.5811   -0.6226    0.0000 O   0  0  0  0  0  0  0  0  0  0  0  0
    7.1322    1.5339    0.0000 C   0  0  0  0  0  0  0  0  0  0  0  0
    5.7852    2.1939    0.0000 H   0  0  0  0  0  0  0  0  0  0  0  0
    8.6237    1.3744    0.0000 H   0  0  0  0  0  0  0  0  0  0  0  0
    7.5482    2.9751    0.0000 H   0  0  0  0  0  0  0  0  0  0  0  0
  1  2  1  0  0  0  0 
  1  3  1  0  0  0  0 
  1  4  1  0  0  0  0 
  1  5  1  0  0  0  0 
  5  6  1  0  0  0  0 
  5  7  1  0  0  0  0 
  8  5  1  1  0  0  0 
  8  9  1  0  0  0  0 
  9 10  1  0  0  0  0 
  9 11  1  0  0  0  0 
  9 12  1  0  0  0  0 
 12 13  1  0  0  0  0 
 12 14  1  0  0  0  0 
 12 15  1  0  0  0  0 
 15 16  1  6  0  0  0 
 15 17  1  0  0  0  0 
 17 18  1  1  0  0  0 
 17 19  1  0  0  0  0 
 19 20  1  0  0  0  0 
 19 21  1  0  0  0  0 
 19 22  1  0  0  0  0 
 22 23  1  0  0  0  0 
 22 24  1  0  0  0  0 
 22 25  1  0  0  0  0 
 25 26  2  0  0  0  0 
 26 27  1  0  0  0  0 
 26 28  1  0  0  0  0 
 28 29  2  0  0  0  0 
 29 30  1  0  0  0  0 
 30 31  1  0  0  0  0 
 28 32  1  0  0  0  0 
 32 33  1  0  0  0  0 
 32 34  1  0  0  0  0 
 32 35  1  0  0  0  0 
 35 36  1  0  0  0  0 
 35 37  1  0  0  0  0 
 35 38  1  0  0  0  0 
 25 38  1  0  0  0  0 
 15 38  1  0  0  0  0 
 38 39  1  1  0  0  0 
 39 40  1  0  0  0  0 
 17 41  1  0  0  0  0 
  8 41  1  0  0  0  0 
 41 42  1  6  0  0  0 
 41 43  1  0  0  0  0 
 43 44  1  0  0  0  0 
 43 45  1  0  0  0  0 
 43 46  1  0  0  0  0 
 46 47  1  0  0  0  0 
 46 48  1  0  0  0  0 
 46 49  1  0  0  0  0 
  8 49  1  0  0  0  0 
 49 50  1  6  0  0  0 
 50 51  3  0  0  0  0 
 51 52  1  0  0  0  0 
 49 53  1  1  0  0  0 
 53 54  1  0  0  0  0 
 54 55  2  0  0  0  0 
 54 56  1  0  0  0  0 
 56 57  1  0  0  0  0 
 56 58  1  0  0  0  0 
 56 59  1  0  0  0  0 
M  END
> <Rank>
13

> <Priority_score>
0.072

> <Reaction_type>
aliphatic_hydroxylation_(tert_carbon_next_to_SP2)

> <Parent_ID>
2

> <Parent_InChI>
InChI=1S/C23H31NO3/c1-4-22-12-10-19-18-9-7-17(24-26)14-16(18)6-8-20(19)21(22)11-13-23(22,5-2)27-15(3)25/h2,14,18-21,26H,4,6-13H2,1,3H3

> <Parent_SMILES>
C#C[C@]1(OC(C)=O)CC[C@H]2[C@@H]3CCC4=C/C(=N/O)CC[C@@H]4[C@H]3CC[C@@]21CC

$$$$
Molecule 2_metabolite 14
  CDK     0516241031

 59 62  0  0  0  0  0  0  0  0999 V2000
    2.3667    2.2628    0.0000 C   0  0  0  0  0  0  0  0  0  0  0  0
    2.5254    3.7544    0.0000 H   0  0  0  0  0  0  0  0  0  0  0  0
    1.7074    0.9155    0.0000 H   0  0  0  0  0  0  0  0  0  0  0  0
    0.9254    2.6782    0.0000 H   0  0  0  0  0  0  0  0  0  0  0  0
    3.9670    1.0969    0.0000 C   0  0  0  0  0  0  0  0  0  0  0  0
    4.6264    2.4442    0.0000 H   0  0  0  0  0  0  0  0  0  0  0  0
    5.4084    0.6816    0.0000 H   0  0  0  0  0  0  0  0  0  0  0  0
    3.6559   -1.8266    0.0000 C   0  0  2  0  0  0  0  0  0  0  0  0
    2.3559   -1.0766    0.0000 C   0  0  0  0  0  0  0  0  0  0  0  0
    3.3200    0.0726    0.0000 H   0  0  0  0  0  0  0  0  0  0  0  0
    0.7748    0.8081    0.0000 H   0  0  0  0  0  0  0  0  0  0  0  0
    1.0559   -1.8266    0.0000 C   0  0  0  0  0  0  0  0  0  0  0  0
    0.5432   -0.4169    0.0000 H   0  0  0  0  0  0  0  0  0  0  0  0
   -0.4213   -1.5660    0.0000 H   0  0  0  0  0  0  0  0  0  0  0  0
    1.0559   -3.3266    0.0000 C   0  0  1  0  0  0  0  0  0  0  0  0
    2.3541   -2.5751    0.0000 H   0  0  0  0  0  0  0  0  0  0  0  0
    2.3559   -4.0766    0.0000 C   0  0  1  0  0  0  0  0  0  0  0  0
    1.0570   -4.8268    0.0000 H   0  0  0  0  0  0  0  0  0  0  0  0
    2.3559   -5.5766    0.0000 C   0  0  0  0  0  0  0  0  0  0  0  0
    2.8686   -6.9862    0.0000 H   0  0  0  0  0  0  0  0  0  0  0  0
    3.8331   -5.3163    0.0000 H   0  0  0  0  0  0  0  0  0  0  0  0
    1.0559   -6.3266    0.0000 C   0  0  0  0  0  0  0  0  0  0  0  0
    0.0918   -7.4758    0.0000 H   0  0  0  0  0  0  0  0  0  0  0  0
    2.0200   -7.4758    0.0000 H   0  0  0  0  0  0  0  0  0  0  0  0
   -0.2441   -5.5766    0.0000 C   0  0  0  0  0  0  0  0  0  0  0  0
   -1.5441   -6.3266    0.0000 C   0  0  0  0  0  0  0  0  0  0  0  0
   -1.5441   -7.8266    0.0000 H   0  0  0  0  0  0  0  0  0  0  0  0
   -2.8441   -5.5766    0.0000 C   0  0  0  0  0  0  0  0  0  0  0  0
   -4.1430   -6.3268    0.0000 N   0  0  0  0  0  0  0  0  0  0  0  0
   -5.4422   -5.5770    0.0000 O   0  0  0  0  0  0  0  0  0  0  0  0
   -6.7411   -6.3272    0.0000 H   0  0  0  0  0  0  0  0  0  0  0  0
   -2.8441   -4.0766    0.0000 C   0  0  0  0  0  0  0  0  0  0  0  0
   -3.3568   -2.6669    0.0000 H   0  0  0  0  0  0  0  0  0  0  0  0
   -4.3213   -4.3369    0.0000 H   0  0  0  0  0  0  0  0  0  0  0  0
   -1.5441   -3.3266    0.0000 C   0  0  0  0  0  0  0  0  0  0  0  0
   -2.0564   -4.7364    0.0000 H   0  0  0  0  0  0  0  0  0  0  0  0
   -0.2441   -4.0766    0.0000 C   0  0  2  0  0  0  0  0  0  0  0  0
   -0.2441   -2.5766    0.0000 H   0  0  0  0  0  0  0  0  0  0  0  0
   -2.5082   -2.1774    0.0000 O   0  0  0  0  0  0  0  0  0  0  0  0
   -1.9950   -0.7679    0.0000 H   0  0  0  0  0  0  0  0  0  0  0  0
    3.6559   -3.3266    0.0000 C   0  0  2  0  0  0  0  0  0  0  0  0
    4.6545   -2.2073    0.0000 H   0  0  0  0  0  0  0  0  0  0  0  0
    5.0859   -3.7866    0.0000 C   0  0  0  0  0  0  0  0  0  0  0  0
    4.4783   -5.1580    0.0000 H   0  0  0  0  0  0  0  0  0  0  0  0
    6.3854   -4.5357    0.0000 H   0  0  0  0  0  0  0  0  0  0  0  0
    5.9659   -2.5766    0.0000 C   0  0  0  0  0  0  0  0  0  0  0  0
    7.0805   -3.5805    0.0000 H   0  0  0  0  0  0  0  0  0  0  0  0
    7.0805   -1.5727    0.0000 H   0  0  0  0  0  0  0  0  0  0  0  0
    5.0859   -1.3666    0.0000 C   0  0  1  0  0  0  0  0  0  0  0  0
    6.3854   -0.6174    0.0000 C   0  0  0  0  0  0  0  0  0  0  0  0
    7.6850    0.1317    0.0000 C   0  0  0  0  0  0  0  0  0  0  0  0
    8.9845    0.8808    0.0000 H   0  0  0  0  0  0  0  0  0  0  0  0
    4.8861    1.5666    0.0000 O   0  0  0  0  0  0  0  0  0  0  0  0
    6.1311    2.4032    0.0000 C   0  0  0  0  0  0  0  0  0  0  0  0
    7.4782    1.7432    0.0000 O   0  0  0  0  0  0  0  0  0  0  0  0
    6.0292    3.8997    0.0000 C   0  0  0  0  0  0  0  0  0  0  0  0
    4.6822    4.5597    0.0000 H   0  0  0  0  0  0  0  0  0  0  0  0
    7.5207    3.7402    0.0000 H   0  0  0  0  0  0  0  0  0  0  0  0
    6.4452    5.3409    0.0000 H   0  0  0  0  0  0  0  0  0  0  0  0
  1  2  1  0  0  0  0 
  1  3  1  0  0  0  0 
  1  4  1  0  0  0  0 
  1  5  1  0  0  0  0 
  5  6  1  0  0  0  0 
  5  7  1  0  0  0  0 
  8  5  1  1  0  0  0 
  8  9  1  0  0  0  0 
  9 10  1  0  0  0  0 
  9 11  1  0  0  0  0 
  9 12  1  0  0  0  0 
 12 13  1  0  0  0  0 
 12 14  1  0  0  0  0 
 12 15  1  0  0  0  0 
 15 16  1  6  0  0  0 
 15 17  1  0  0  0  0 
 17 18  1  1  0  0  0 
 17 19  1  0  0  0  0 
 19 20  1  0  0  0  0 
 19 21  1  0  0  0  0 
 19 22  1  0  0  0  0 
 22 23  1  0  0  0  0 
 22 24  1  0  0  0  0 
 22 25  1  0  0  0  0 
 25 26  2  0  0  0  0 
 26 27  1  0  0  0  0 
 26 28  1  0  0  0  0 
 28 29  2  0  0  0  0 
 29 30  1  0  0  0  0 
 30 31  1  0  0  0  0 
 28 32  1  0  0  0  0 
 32 33  1  0  0  0  0 
 32 34  1  0  0  0  0 
 32 35  1  0  0  0  0 
 35 36  1  0  0  0  0 
 35 37  1  0  0  0  0 
 25 37  1  0  0  0  0 
 15 37  1  0  0  0  0 
 37 38  1  1  0  0  0 
 35 39  1  0  0  0  0 
 39 40  1  0  0  0  0 
 17 41  1  0  0  0  0 
  8 41  1  0  0  0  0 
 41 42  1  6  0  0  0 
 41 43  1  0  0  0  0 
 43 44  1  0  0  0  0 
 43 45  1  0  0  0  0 
 43 46  1  0  0  0  0 
 46 47  1  0  0  0  0 
 46 48  1  0  0  0  0 
 46 49  1  0  0  0  0 
  8 49  1  0  0  0  0 
 49 50  1  6  0  0  0 
 50 51  3  0  0  0  0 
 51 52  1  0  0  0  0 
 49 53  1  1  0  0  0 
 53 54  1  0  0  0  0 
 54 55  2  0  0  0  0 
 54 56  1  0  0  0  0 
 56 57  1  0  0  0  0 
 56 58  1  0  0  0  0 
 56 59  1  0  0  0  0 
M  END
> <Rank>
13

> <Priority_score>
0.072

> <Reaction_type>
aliphatic hydroxylation

> <Parent_ID>
2

> <Parent_InChI>
InChI=1S/C23H31NO3/c1-4-22-12-10-19-18-9-7-17(24-26)14-16(18)6-8-20(19)21(22)11-13-23(22,5-2)27-15(3)25/h2,14,18-21,26H,4,6-13H2,1,3H3

> <Parent_SMILES>
C#C[C@]1(OC(C)=O)CC[C@H]2[C@@H]3CCC4=C/C(=N/O)CC[C@@H]4[C@H]3CC[C@@]21CC

$$$$
Molecule 2_metabolite 15
  CDK     0516241031

 59 62  0  0  0  0  0  0  0  0999 V2000
    3.7848    2.0126    0.0000 C   0  0  0  0  0  0  0  0  0  0  0  0
    3.9435    3.5042    0.0000 H   0  0  0  0  0  0  0  0  0  0  0  0
    3.1255    0.6653    0.0000 H   0  0  0  0  0  0  0  0  0  0  0  0
    2.3434    2.4280    0.0000 H   0  0  0  0  0  0  0  0  0  0  0  0
    5.3851    0.8467    0.0000 C   0  0  0  0  0  0  0  0  0  0  0  0
    6.0444    2.1940    0.0000 H   0  0  0  0  0  0  0  0  0  0  0  0
    6.8265    0.4314    0.0000 H   0  0  0  0  0  0  0  0  0  0  0  0
    5.0740   -2.0768    0.0000 C   0  0  2  0  0  0  0  0  0  0  0  0
    3.7740   -1.3268    0.0000 C   0  0  0  0  0  0  0  0  0  0  0  0
    4.7381   -0.1776    0.0000 H   0  0  0  0  0  0  0  0  0  0  0  0
    2.1929    0.5579    0.0000 H   0  0  0  0  0  0  0  0  0  0  0  0
    2.4740   -2.0768    0.0000 C   0  0  0  0  0  0  0  0  0  0  0  0
    1.9613   -0.6671    0.0000 H   0  0  0  0  0  0  0  0  0  0  0  0
   -0.4213   -1.5660    0.0000 H   0  0  0  0  0  0  0  0  0  0  0  0
    2.4740   -3.5768    0.0000 C   0  0  2  0  0  0  0  0  0  0  0  0
    2.4733   -5.0768    0.0000 H   0  0  0  0  0  0  0  0  0  0  0  0
    1.1740   -4.3268    0.0000 C   0  0  1  0  0  0  0  0  0  0  0  0
   -0.1246   -5.0776    0.0000 H   0  0  0  0  0  0  0  0  0  0  0  0
   -0.1260   -3.5768    0.0000 C   0  0  0  0  0  0  0  0  0  0  0  0
    0.8381   -2.4276    0.0000 H   0  0  0  0  0  0  0  0  0  0  0  0
   -1.0901   -2.4276    0.0000 H   0  0  0  0  0  0  0  0  0  0  0  0
   -1.4260   -4.3268    0.0000 C   0  0  0  0  0  0  0  0  0  0  0  0
   -1.9387   -2.9171    0.0000 H   0  0  0  0  0  0  0  0  0  0  0  0
   -2.9032   -4.5871    0.0000 H   0  0  0  0  0  0  0  0  0  0  0  0
   -1.4260   -5.8268    0.0000 C   0  0  0  0  0  0  0  0  0  0  0  0
   -2.7249   -6.5770    0.0000 N   0  0  0  0  0  0  0  0  0  0  0  0
   -4.0241   -5.8272    0.0000 O   0  0  0  0  0  0  0  0  0  0  0  0
   -5.3230   -6.5774    0.0000 H   0  0  0  0  0  0  0  0  0  0  0  0
   -0.1260   -6.5768    0.0000 C   0  0  0  0  0  0  0  0  0  0  0  0
   -0.1260   -8.0768    0.0000 H   0  0  0  0  0  0  0  0  0  0  0  0
    1.1740   -5.8268    0.0000 C   0  0  0  0  0  0  0  0  0  0  0  0
    2.4740   -6.5768    0.0000 C   0  0  0  0  0  0  0  0  0  0  0  0
    1.5099   -7.7260    0.0000 H   0  0  0  0  0  0  0  0  0  0  0  0
    3.4381   -7.7260    0.0000 H   0  0  0  0  0  0  0  0  0  0  0  0
    3.7740   -5.8268    0.0000 C   0  0  0  0  0  0  0  0  0  0  0  0
    4.2867   -7.2364    0.0000 H   0  0  0  0  0  0  0  0  0  0  0  0
    3.7740   -4.3268    0.0000 C   0  0  1  0  0  0  0  0  0  0  0  0
    3.7747   -2.8268    0.0000 H   0  0  0  0  0  0  0  0  0  0  0  0
    5.0740   -3.5768    0.0000 C   0  0  2  0  0  0  0  0  0  0  0  0
    6.0726   -2.4575    0.0000 H   0  0  0  0  0  0  0  0  0  0  0  0
    6.5040   -4.0368    0.0000 C   0  0  0  0  0  0  0  0  0  0  0  0
    5.8964   -5.4082    0.0000 H   0  0  0  0  0  0  0  0  0  0  0  0
    7.8035   -4.7859    0.0000 H   0  0  0  0  0  0  0  0  0  0  0  0
    7.3840   -2.8268    0.0000 C   0  0  0  0  0  0  0  0  0  0  0  0
    8.4986   -3.8307    0.0000 H   0  0  0  0  0  0  0  0  0  0  0  0
    8.4986   -1.8229    0.0000 H   0  0  0  0  0  0  0  0  0  0  0  0
    6.5040   -1.6168    0.0000 C   0  0  1  0  0  0  0  0  0  0  0  0
    7.8035   -0.8676    0.0000 C   0  0  0  0  0  0  0  0  0  0  0  0
    9.1031   -0.1185    0.0000 C   0  0  0  0  0  0  0  0  0  0  0  0
   10.4026    0.6306    0.0000 H   0  0  0  0  0  0  0  0  0  0  0  0
    6.3042    1.3164    0.0000 O   0  0  0  0  0  0  0  0  0  0  0  0
    7.5492    2.1530    0.0000 C   0  0  0  0  0  0  0  0  0  0  0  0
    8.8963    1.4930    0.0000 O   0  0  0  0  0  0  0  0  0  0  0  0
    7.4473    3.6495    0.0000 C   0  0  0  0  0  0  0  0  0  0  0  0
    6.1003    4.3095    0.0000 H   0  0  0  0  0  0  0  0  0  0  0  0
    8.9388    3.4900    0.0000 H   0  0  0  0  0  0  0  0  0  0  0  0
    7.8633    5.0906    0.0000 H   0  0  0  0  0  0  0  0  0  0  0  0
    5.1835   -6.3400    0.0000 O   0  0  0  0  0  0  0  0  0  0  0  0
    5.4438   -7.8172    0.0000 H   0  0  0  0  0  0  0  0  0  0  0  0
  1  2  1  0  0  0  0 
  1  3  1  0  0  0  0 
  1  4  1  0  0  0  0 
  1  5  1  0  0  0  0 
  5  6  1  0  0  0  0 
  5  7  1  0  0  0  0 
  8  5  1  1  0  0  0 
  8  9  1  0  0  0  0 
  9 10  1  0  0  0  0 
  9 11  1  0  0  0  0 
  9 12  1  0  0  0  0 
 12 13  1  0  0  0  0 
 12 14  1  0  0  0  0 
 12 15  1  0  0  0  0 
 15 16  1  6  0  0  0 
 15 17  1  0  0  0  0 
 17 18  1  1  0  0  0 
 17 19  1  0  0  0  0 
 19 20  1  0  0  0  0 
 19 21  1  0  0  0  0 
 19 22  1  0  0  0  0 
 22 23  1  0  0  0  0 
 22 24  1  0  0  0  0 
 22 25  1  0  0  0  0 
 25 26  2  0  0  0  0 
 26 27  1  0  0  0  0 
 27 28  1  0  0  0  0 
 25 29  1  0  0  0  0 
 29 30  1  0  0  0  0 
 29 31  2  0  0  0  0 
 17 31  1  0  0  0  0 
 31 32  1  0  0  0  0 
 32 33  1  0  0  0  0 
 32 34  1  0  0  0  0 
 32 35  1  0  0  0  0 
 35 36  1  0  0  0  0 
 35 37  1  0  0  0  0 
 15 37  1  0  0  0  0 
 37 38  1  1  0  0  0 
 37 39  1  0  0  0  0 
  8 39  1  0  0  0  0 
 39 40  1  6  0  0  0 
 39 41  1  0  0  0  0 
 41 42  1  0  0  0  0 
 41 43  1  0  0  0  0 
 41 44  1  0  0  0  0 
 44 45  1  0  0  0  0 
 44 46  1  0  0  0  0 
 44 47  1  0  0  0  0 
  8 47  1  0  0  0  0 
 47 48  1  6  0  0  0 
 48 49  3  0  0  0  0 
 49 50  1  0  0  0  0 
 47 51  1  1  0  0  0 
 51 52  1  0  0  0  0 
 52 53  2  0  0  0  0 
 52 54  1  0  0  0  0 
 54 55  1  0  0  0  0 
 54 56  1  0  0  0  0 
 54 57  1  0  0  0  0 
 35 58  1  0  0  0  0 
 58 59  1  0  0  0  0 
M  END
> <Rank>
15

> <Priority_score>
0.036

> <Reaction_type>
aliphatic hydroxylation

> <Parent_ID>
2

> <Parent_InChI>
InChI=1S/C23H31NO3/c1-4-22-12-10-19-18-9-7-17(24-26)14-16(18)6-8-20(19)21(22)11-13-23(22,5-2)27-15(3)25/h2,14,18-21,26H,4,6-13H2,1,3H3

> <Parent_SMILES>
C#C[C@]1(OC(C)=O)CC[C@H]2[C@@H]3CCC4=C/C(=N/O)CC[C@@H]4[C@H]3CC[C@@]21CC

$$$$
Molecule 2_metabolite 16
  CDK     0516241031

 59 62  0  0  0  0  0  0  0  0999 V2000
    2.6882    2.6458    0.0000 C   0  0  0  0  0  0  0  0  0  0  0  0
    2.8469    4.1374    0.0000 H   0  0  0  0  0  0  0  0  0  0  0  0
    2.0289    1.2985    0.0000 H   0  0  0  0  0  0  0  0  0  0  0  0
    1.2468    3.0612    0.0000 H   0  0  0  0  0  0  0  0  0  0  0  0
    4.2885    1.4799    0.0000 C   0  0  0  0  0  0  0  0  0  0  0  0
    5.5332    2.3171    0.0000 H   0  0  0  0  0  0  0  0  0  0  0  0
    5.7299    1.0646    0.0000 H   0  0  0  0  0  0  0  0  0  0  0  0
    4.0282   -0.9663    0.0000 C   0  0  2  0  0  0  0  0  0  0  0  0
    2.7282   -0.2163    0.0000 C   0  0  0  0  0  0  0  0  0  0  0  0
    3.6922    0.9329    0.0000 H   0  0  0  0  0  0  0  0  0  0  0  0
    1.1471    1.6684    0.0000 H   0  0  0  0  0  0  0  0  0  0  0  0
    1.4282   -0.9663    0.0000 C   0  0  0  0  0  0  0  0  0  0  0  0
    0.9154    0.4434    0.0000 H   0  0  0  0  0  0  0  0  0  0  0  0
    2.9054   -1.2266    0.0000 H   0  0  0  0  0  0  0  0  0  0  0  0
    1.4282   -2.4663    0.0000 C   0  0  2  0  0  0  0  0  0  0  0  0
   -1.1177   -0.9959    0.0000 H   0  0  0  0  0  0  0  0  0  0  0  0
    0.1282   -3.2163    0.0000 C   0  0  0  0  0  0  0  0  0  0  0  0
    0.1282   -4.7163    0.0000 C   0  0  0  0  0  0  0  0  0  0  0  0
    1.4282   -5.4663    0.0000 C   0  0  0  0  0  0  0  0  0  0  0  0
    0.4641   -6.6154    0.0000 H   0  0  0  0  0  0  0  0  0  0  0  0
    2.3922   -6.6154    0.0000 H   0  0  0  0  0  0  0  0  0  0  0  0
    2.7282   -4.7163    0.0000 C   0  0  0  0  0  0  0  0  0  0  0  0
    3.2409   -6.1259    0.0000 H   0  0  0  0  0  0  0  0  0  0  0  0
    1.2509   -4.4560    0.0000 H   0  0  0  0  0  0  0  0  0  0  0  0
    2.7282   -3.2163    0.0000 C   0  0  1  0  0  0  0  0  0  0  0  0
    4.0271   -3.9665    0.0000 H   0  0  0  0  0  0  0  0  0  0  0  0
    4.0282   -2.4663    0.0000 C   0  0  2  0  0  0  0  0  0  0  0  0
    5.0268   -1.3470    0.0000 H   0  0  0  0  0  0  0  0  0  0  0  0
    5.4582   -2.9263    0.0000 C   0  0  0  0  0  0  0  0  0  0  0  0
    4.8505   -4.2977    0.0000 H   0  0  0  0  0  0  0  0  0  0  0  0
    6.7577   -3.6754    0.0000 H   0  0  0  0  0  0  0  0  0  0  0  0
    6.3382   -1.7163    0.0000 C   0  0  0  0  0  0  0  0  0  0  0  0
    7.4527   -2.7201    0.0000 H   0  0  0  0  0  0  0  0  0  0  0  0
    7.4527   -0.7124    0.0000 H   0  0  0  0  0  0  0  0  0  0  0  0
    5.4582   -0.5063    0.0000 C   0  0  1  0  0  0  0  0  0  0  0  0
    6.7577    0.2429    0.0000 C   0  0  0  0  0  0  0  0  0  0  0  0
    8.0572    0.9920    0.0000 C   0  0  0  0  0  0  0  0  0  0  0  0
    9.3568    1.7412    0.0000 H   0  0  0  0  0  0  0  0  0  0  0  0
    4.7520    2.3477    0.0000 O   0  0  0  0  0  0  0  0  0  0  0  0
    5.8329    3.3877    0.0000 C   0  0  0  0  0  0  0  0  0  0  0  0
    7.2741    2.9717    0.0000 O   0  0  0  0  0  0  0  0  0  0  0  0
    5.4727    4.8438    0.0000 C   0  0  0  0  0  0  0  0  0  0  0  0
    4.0315    5.2599    0.0000 H   0  0  0  0  0  0  0  0  0  0  0  0
    6.9692    4.9458    0.0000 H   0  0  0  0  0  0  0  0  0  0  0  0
    5.6321    6.3353    0.0000 H   0  0  0  0  0  0  0  0  0  0  0  0
   -1.1718   -5.4663    0.0000 C   0  0  0  0  0  0  0  0  0  0  0  0
   -2.1359   -6.6154    0.0000 H   0  0  0  0  0  0  0  0  0  0  0  0
   -2.4718   -4.7163    0.0000 C   0  0  0  0  0  0  0  0  0  0  0  0
   -3.7708   -5.4665    0.0000 N   0  0  0  0  0  0  0  0  0  0  0  0
   -5.0699   -4.7167    0.0000 O   0  0  0  0  0  0  0  0  0  0  0  0
   -6.3688   -5.4669    0.0000 H   0  0  0  0  0  0  0  0  0  0  0  0
   -2.4718   -3.2163    0.0000 C   0  0  0  0  0  0  0  0  0  0  0  0
   -2.9846   -1.8066    0.0000 H   0  0  0  0  0  0  0  0  0  0  0  0
   -3.9491   -3.4766    0.0000 H   0  0  0  0  0  0  0  0  0  0  0  0
   -1.1718   -2.4663    0.0000 C   0  0  0  0  0  0  0  0  0  0  0  0
   -0.2078   -1.3171    0.0000 H   0  0  0  0  0  0  0  0  0  0  0  0
   -2.1359   -1.3171    0.0000 H   0  0  0  0  0  0  0  0  0  0  0  0
    0.7177   -7.7186    0.0000 O   0  0  0  0  0  0  0  0  0  0  0  0
    0.2045   -9.1281    0.0000 H   0  0  0  0  0  0  0  0  0  0  0  0
  1  2  1  0  0  0  0 
  1  3  1  0  0  0  0 
  1  4  1  0  0  0  0 
  1  5  1  0  0  0  0 
  5  6  1  0  0  0  0 
  5  7  1  0  0  0  0 
  8  5  1  1  0  0  0 
  8  9  1  0  0  0  0 
  9 10  1  0  0  0  0 
  9 11  1  0  0  0  0 
  9 12  1  0  0  0  0 
 12 13  1  0  0  0  0 
 12 14  1  0  0  0  0 
 12 15  1  0  0  0  0 
 15 16  1  6  0  0  0 
 15 17  1  0  0  0  0 
 17 18  2  0  0  0  0 
 18 19  1  0  0  0  0 
 19 20  1  0  0  0  0 
 19 21  1  0  0  0  0 
 19 22  1  0  0  0  0 
 22 23  1  0  0  0  0 
 22 24  1  0  0  0  0 
 22 25  1  0  0  0  0 
 15 25  1  0  0  0  0 
 25 26  1  1  0  0  0 
 25 27  1  0  0  0  0 
  8 27  1  0  0  0  0 
 27 28  1  6  0  0  0 
 27 29  1  0  0  0  0 
 29 30  1  0  0  0  0 
 29 31  1  0  0  0  0 
 29 32  1  0  0  0  0 
 32 33  1  0  0  0  0 
 32 34  1  0  0  0  0 
 32 35  1  0  0  0  0 
  8 35  1  0  0  0  0 
 35 36  1  6  0  0  0 
 36 37  3  0  0  0  0 
 37 38  1  0  0  0  0 
 35 39  1  1  0  0  0 
 39 40  1  0  0  0  0 
 40 41  2  0  0  0  0 
 40 42  1  0  0  0  0 
 42 43  1  0  0  0  0 
 42 44  1  0  0  0  0 
 42 45  1  0  0  0  0 
 18 46  1  0  0  0  0 
 46 47  1  0  0  0  0 
 46 48  1  0  0  0  0 
 48 49  2  0  0  0  0 
 49 50  1  0  0  0  0 
 50 51  1  0  0  0  0 
 48 52  1  0  0  0  0 
 52 53  1  0  0  0  0 
 52 54  1  0  0  0  0 
 52 55  1  0  0  0  0 
 17 55  1  0  0  0  0 
 55 56  1  0  0  0  0 
 55 57  1  0  0  0  0 
 46 58  1  0  0  0  0 
 58 59  1  0  0  0  0 
M  END
> <Rank>
16

> <Priority_score>
0.0344

> <Reaction_type>
aliphatic hydroxylation with allylic rearrangement 1

> <Parent_ID>
2

> <Parent_InChI>
InChI=1S/C23H31NO3/c1-4-22-12-10-19-18-9-7-17(24-26)14-16(18)6-8-20(19)21(22)11-13-23(22,5-2)27-15(3)25/h2,14,18-21,26H,4,6-13H2,1,3H3

> <Parent_SMILES>
C#C[C@]1(OC(C)=O)CC[C@H]2[C@@H]3CCC4=C/C(=N/O)CC[C@@H]4[C@H]3CC[C@@]21CC

$$$$
Molecule 2_metabolite 17
  CDK     0516241031

 59 62  0  0  0  0  0  0  0  0999 V2000
    3.7848    2.0126    0.0000 C   0  0  0  0  0  0  0  0  0  0  0  0
    3.9435    3.5042    0.0000 H   0  0  0  0  0  0  0  0  0  0  0  0
    3.1255    0.6653    0.0000 H   0  0  0  0  0  0  0  0  0  0  0  0
    2.3434    2.4280    0.0000 H   0  0  0  0  0  0  0  0  0  0  0  0
    5.3851    0.8467    0.0000 C   0  0  0  0  0  0  0  0  0  0  0  0
    6.0444    2.1940    0.0000 H   0  0  0  0  0  0  0  0  0  0  0  0
    6.8265    0.4314    0.0000 H   0  0  0  0  0  0  0  0  0  0  0  0
    5.0740   -2.0768    0.0000 C   0  0  2  0  0  0  0  0  0  0  0  0
    3.7740   -1.3268    0.0000 C   0  0  0  0  0  0  0  0  0  0  0  0
    4.7381   -0.1776    0.0000 H   0  0  0  0  0  0  0  0  0  0  0  0
    2.1929    0.5579    0.0000 H   0  0  0  0  0  0  0  0  0  0  0  0
    2.4740   -2.0768    0.0000 C   0  0  0  0  0  0  0  0  0  0  0  0
    1.9613   -0.6671    0.0000 H   0  0  0  0  0  0  0  0  0  0  0  0
   -0.4213   -1.5660    0.0000 H   0  0  0  0  0  0  0  0  0  0  0  0
    2.4740   -3.5768    0.0000 C   0  0  2  0  0  0  0  0  0  0  0  0
    2.4733   -5.0768    0.0000 H   0  0  0  0  0  0  0  0  0  0  0  0
    1.1740   -4.3268    0.0000 C   0  0  1  0  0  0  0  0  0  0  0  0
   -0.1246   -5.0776    0.0000 H   0  0  0  0  0  0  0  0  0  0  0  0
   -0.1260   -3.5768    0.0000 C   0  0  0  0  0  0  0  0  0  0  0  0
    0.8381   -2.4276    0.0000 H   0  0  0  0  0  0  0  0  0  0  0  0
   -1.0901   -2.4276    0.0000 H   0  0  0  0  0  0  0  0  0  0  0  0
   -1.4260   -4.3268    0.0000 C   0  0  0  0  0  0  0  0  0  0  0  0
   -1.9387   -2.9171    0.0000 H   0  0  0  0  0  0  0  0  0  0  0  0
   -2.9032   -4.5871    0.0000 H   0  0  0  0  0  0  0  0  0  0  0  0
   -1.4260   -5.8268    0.0000 C   0  0  0  0  0  0  0  0  0  0  0  0
   -2.7249   -6.5770    0.0000 N   0  0  0  0  0  0  0  0  0  0  0  0
   -4.0241   -5.8272    0.0000 O   0  0  0  0  0  0  0  0  0  0  0  0
   -5.3230   -6.5774    0.0000 H   0  0  0  0  0  0  0  0  0  0  0  0
   -0.1260   -6.5768    0.0000 C   0  0  0  0  0  0  0  0  0  0  0  0
   -1.0901   -7.7260    0.0000 H   0  0  0  0  0  0  0  0  0  0  0  0
    1.1740   -5.8268    0.0000 C   0  0  0  0  0  0  0  0  0  0  0  0
    2.4740   -6.5768    0.0000 C   0  0  0  0  0  0  0  0  0  0  0  0
    2.4740   -8.0768    0.0000 H   0  0  0  0  0  0  0  0  0  0  0  0
    3.7740   -5.8268    0.0000 C   0  0  0  0  0  0  0  0  0  0  0  0
    4.2867   -7.2364    0.0000 H   0  0  0  0  0  0  0  0  0  0  0  0
    2.2968   -5.5665    0.0000 H   0  0  0  0  0  0  0  0  0  0  0  0
    3.7740   -4.3268    0.0000 C   0  0  1  0  0  0  0  0  0  0  0  0
    5.0729   -5.0770    0.0000 H   0  0  0  0  0  0  0  0  0  0  0  0
    5.0740   -3.5768    0.0000 C   0  0  2  0  0  0  0  0  0  0  0  0
    6.0726   -2.4575    0.0000 H   0  0  0  0  0  0  0  0  0  0  0  0
    6.5040   -4.0368    0.0000 C   0  0  0  0  0  0  0  0  0  0  0  0
    5.8964   -5.4082    0.0000 H   0  0  0  0  0  0  0  0  0  0  0  0
    7.8035   -4.7859    0.0000 H   0  0  0  0  0  0  0  0  0  0  0  0
    7.3840   -2.8268    0.0000 C   0  0  0  0  0  0  0  0  0  0  0  0
    8.4986   -3.8307    0.0000 H   0  0  0  0  0  0  0  0  0  0  0  0
    8.4986   -1.8229    0.0000 H   0  0  0  0  0  0  0  0  0  0  0  0
    6.5040   -1.6168    0.0000 C   0  0  1  0  0  0  0  0  0  0  0  0
    7.8035   -0.8676    0.0000 C   0  0  0  0  0  0  0  0  0  0  0  0
    9.1031   -0.1185    0.0000 C   0  0  0  0  0  0  0  0  0  0  0  0
   10.4026    0.6306    0.0000 H   0  0  0  0  0  0  0  0  0  0  0  0
    6.3042    1.3164    0.0000 O   0  0  0  0  0  0  0  0  0  0  0  0
    7.5492    2.1530    0.0000 C   0  0  0  0  0  0  0  0  0  0  0  0
    8.8963    1.4930    0.0000 O   0  0  0  0  0  0  0  0  0  0  0  0
    7.4473    3.6495    0.0000 C   0  0  0  0  0  0  0  0  0  0  0  0
    6.1003    4.3095    0.0000 H   0  0  0  0  0  0  0  0  0  0  0  0
    8.9388    3.4900    0.0000 H   0  0  0  0  0  0  0  0  0  0  0  0
    7.8633    5.0906    0.0000 H   0  0  0  0  0  0  0  0  0  0  0  0
    0.8381   -7.7260    0.0000 O   0  0  0  0  0  0  0  0  0  0  0  0
    0.3249   -9.1354    0.0000 H   0  0  0  0  0  0  0  0  0  0  0  0
  1  2  1  0  0  0  0 
  1  3  1  0  0  0  0 
  1  4  1  0  0  0  0 
  1  5  1  0  0  0  0 
  5  6  1  0  0  0  0 
  5  7  1  0  0  0  0 
  8  5  1  1  0  0  0 
  8  9  1  0  0  0  0 
  9 10  1  0  0  0  0 
  9 11  1  0  0  0  0 
  9 12  1  0  0  0  0 
 12 13  1  0  0  0  0 
 12 14  1  0  0  0  0 
 12 15  1  0  0  0  0 
 15 16  1  6  0  0  0 
 15 17  1  0  0  0  0 
 17 18  1  1  0  0  0 
 17 19  1  0  0  0  0 
 19 20  1  0  0  0  0 
 19 21  1  0  0  0  0 
 19 22  1  0  0  0  0 
 22 23  1  0  0  0  0 
 22 24  1  0  0  0  0 
 22 25  1  0  0  0  0 
 25 26  2  0  0  0  0 
 26 27  1  0  0  0  0 
 27 28  1  0  0  0  0 
 25 29  1  0  0  0  0 
 29 30  1  0  0  0  0 
 29 31  1  0  0  0  0 
 17 31  1  0  0  0  0 
 31 32  2  0  0  0  0 
 32 33  1  0  0  0  0 
 32 34  1  0  0  0  0 
 34 35  1  0  0  0  0 
 34 36  1  0  0  0  0 
 34 37  1  0  0  0  0 
 15 37  1  0  0  0  0 
 37 38  1  1  0  0  0 
 37 39  1  0  0  0  0 
  8 39  1  0  0  0  0 
 39 40  1  6  0  0  0 
 39 41  1  0  0  0  0 
 41 42  1  0  0  0  0 
 41 43  1  0  0  0  0 
 41 44  1  0  0  0  0 
 44 45  1  0  0  0  0 
 44 46  1  0  0  0  0 
 44 47  1  0  0  0  0 
  8 47  1  0  0  0  0 
 47 48  1  6  0  0  0 
 48 49  3  0  0  0  0 
 49 50  1  0  0  0  0 
 47 51  1  1  0  0  0 
 51 52  1  0  0  0  0 
 52 53  2  0  0  0  0 
 52 54  1  0  0  0  0 
 54 55  1  0  0  0  0 
 54 56  1  0  0  0  0 
 54 57  1  0  0  0  0 
 29 58  1  0  0  0  0 
 58 59  1  0  0  0  0 
M  END
> <Rank>
16

> <Priority_score>
0.0344

> <Reaction_type>
aliphatic hydroxylation with allylic rearrangement 1

> <Parent_ID>
2

> <Parent_InChI>
InChI=1S/C23H31NO3/c1-4-22-12-10-19-18-9-7-17(24-26)14-16(18)6-8-20(19)21(22)11-13-23(22,5-2)27-15(3)25/h2,14,18-21,26H,4,6-13H2,1,3H3

> <Parent_SMILES>
C#C[C@]1(OC(C)=O)CC[C@H]2[C@@H]3CCC4=C/C(=N/O)CC[C@@H]4[C@H]3CC[C@@]21CC

$$$$
Molecule 2_metabolite 18
  CDK     0516241031

 56 59  0  0  0  0  0  0  0  0999 V2000
    3.0036    2.4637    0.0000 C   0  0  0  0  0  0  0  0  0  0  0  0
    1.6325    1.8554    0.0000 H   0  0  0  0  0  0  0  0  0  0  0  0
    4.0840    3.5043    0.0000 H   0  0  0  0  0  0  0  0  0  0  0  0
    2.1664    3.7084    0.0000 H   0  0  0  0  0  0  0  0  0  0  0  0
    4.9919    1.0152    0.0000 C   0  0  0  0  0  0  0  0  0  0  0  0
    6.2365    1.8524    0.0000 H   0  0  0  0  0  0  0  0  0  0  0  0
    6.4332    0.5999    0.0000 H   0  0  0  0  0  0  0  0  0  0  0  0
    4.7316   -1.4310    0.0000 C   0  0  2  0  0  0  0  0  0  0  0  0
    3.4316   -0.6810    0.0000 C   0  0  0  0  0  0  0  0  0  0  0  0
    4.3956    0.4682    0.0000 H   0  0  0  0  0  0  0  0  0  0  0  0
    2.1590    0.8359    0.0000 H   0  0  0  0  0  0  0  0  0  0  0  0
    2.1316   -1.4310    0.0000 C   0  0  0  0  0  0  0  0  0  0  0  0
    1.6188   -0.0213    0.0000 H   0  0  0  0  0  0  0  0  0  0  0  0
   -0.2910   -1.0036    0.0000 H   0  0  0  0  0  0  0  0  0  0  0  0
    2.1316   -2.9310    0.0000 C   0  0  2  0  0  0  0  0  0  0  0  0
    2.1308   -4.4310    0.0000 H   0  0  0  0  0  0  0  0  0  0  0  0
    0.8316   -3.6810    0.0000 C   0  0  1  0  0  0  0  0  0  0  0  0
   -0.4670   -4.4318    0.0000 H   0  0  0  0  0  0  0  0  0  0  0  0
   -0.4684   -2.9310    0.0000 C   0  0  0  0  0  0  0  0  0  0  0  0
    0.4956   -1.7818    0.0000 H   0  0  0  0  0  0  0  0  0  0  0  0
   -1.4325   -1.7818    0.0000 H   0  0  0  0  0  0  0  0  0  0  0  0
   -1.7684   -3.6810    0.0000 C   0  0  0  0  0  0  0  0  0  0  0  0
   -2.2812   -2.2713    0.0000 H   0  0  0  0  0  0  0  0  0  0  0  0
   -3.2457   -3.9413    0.0000 H   0  0  0  0  0  0  0  0  0  0  0  0
   -1.7684   -5.1810    0.0000 C   0  0  0  0  0  0  0  0  0  0  0  0
   -3.0674   -5.9312    0.0000 N   0  0  0  0  0  0  0  0  0  0  0  0
   -4.3665   -5.1814    0.0000 O   0  0  0  0  0  0  0  0  0  0  0  0
   -5.6654   -5.9316    0.0000 H   0  0  0  0  0  0  0  0  0  0  0  0
   -0.4684   -5.9310    0.0000 C   0  0  0  0  0  0  0  0  0  0  0  0
   -0.4684   -7.4310    0.0000 H   0  0  0  0  0  0  0  0  0  0  0  0
    0.8316   -5.1810    0.0000 C   0  0  0  0  0  0  0  0  0  0  0  0
    2.1316   -5.9310    0.0000 C   0  0  0  0  0  0  0  0  0  0  0  0
    2.1316   -7.4310    0.0000 H   0  0  0  0  0  0  0  0  0  0  0  0
    3.4316   -5.1810    0.0000 C   0  0  0  0  0  0  0  0  0  0  0  0
    4.7305   -5.9312    0.0000 H   0  0  0  0  0  0  0  0  0  0  0  0
    3.4316   -3.6810    0.0000 C   0  0  1  0  0  0  0  0  0  0  0  0
    4.7305   -4.4312    0.0000 H   0  0  0  0  0  0  0  0  0  0  0  0
    4.7316   -2.9310    0.0000 C   0  0  2  0  0  0  0  0  0  0  0  0
    5.7302   -1.8117    0.0000 H   0  0  0  0  0  0  0  0  0  0  0  0
    6.1616   -3.3910    0.0000 C   0  0  0  0  0  0  0  0  0  0  0  0
    5.5539   -4.7624    0.0000 H   0  0  0  0  0  0  0  0  0  0  0  0
    7.4611   -4.1401    0.0000 H   0  0  0  0  0  0  0  0  0  0  0  0
    7.0416   -2.1810    0.0000 C   0  0  0  0  0  0  0  0  0  0  0  0
    8.1561   -3.1849    0.0000 H   0  0  0  0  0  0  0  0  0  0  0  0
    8.1561   -1.1771    0.0000 H   0  0  0  0  0  0  0  0  0  0  0  0
    6.1616   -0.9710    0.0000 C   0  0  1  0  0  0  0  0  0  0  0  0
    7.4611   -0.2218    0.0000 C   0  0  0  0  0  0  0  0  0  0  0  0
    8.7606    0.5273    0.0000 C   0  0  0  0  0  0  0  0  0  0  0  0
   10.0602    1.2764    0.0000 H   0  0  0  0  0  0  0  0  0  0  0  0
    5.4554    1.8830    0.0000 O   0  0  0  0  0  0  0  0  0  0  0  0
    6.5363    2.9230    0.0000 C   0  0  0  0  0  0  0  0  0  0  0  0
    7.9775    2.5070    0.0000 O   0  0  0  0  0  0  0  0  0  0  0  0
    6.1760    4.3791    0.0000 C   0  0  0  0  0  0  0  0  0  0  0  0
    4.7349    4.7951    0.0000 H   0  0  0  0  0  0  0  0  0  0  0  0
    7.6726    4.4810    0.0000 H   0  0  0  0  0  0  0  0  0  0  0  0
    6.3355    5.8706    0.0000 H   0  0  0  0  0  0  0  0  0  0  0  0
  1  2  1  0  0  0  0 
  1  3  1  0  0  0  0 
  1  4  1  0  0  0  0 
  1  5  1  0  0  0  0 
  5  6  1  0  0  0  0 
  5  7  1  0  0  0  0 
  8  5  1  1  0  0  0 
  8  9  1  0  0  0  0 
  9 10  1  0  0  0  0 
  9 11  1  0  0  0  0 
  9 12  1  0  0  0  0 
 12 13  1  0  0  0  0 
 12 14  1  0  0  0  0 
 12 15  1  0  0  0  0 
 15 16  1  6  0  0  0 
 15 17  1  0  0  0  0 
 17 18  1  1  0  0  0 
 17 19  1  0  0  0  0 
 19 20  1  0  0  0  0 
 19 21  1  0  0  0  0 
 19 22  1  0  0  0  0 
 22 23  1  0  0  0  0 
 22 24  1  0  0  0  0 
 22 25  1  0  0  0  0 
 25 26  2  0  0  0  0 
 26 27  1  0  0  0  0 
 27 28  1  0  0  0  0 
 25 29  1  0  0  0  0 
 29 30  1  0  0  0  0 
 29 31  2  0  0  0  0 
 17 31  1  0  0  0  0 
 31 32  1  0  0  0  0 
 32 33  1  0  0  0  0 
 32 34  2  0  0  0  0 
 34 35  1  0  0  0  0 
 34 36  1  0  0  0  0 
 15 36  1  0  0  0  0 
 36 37  1  1  0  0  0 
 36 38  1  0  0  0  0 
  8 38  1  0  0  0  0 
 38 39  1  6  0  0  0 
 38 40  1  0  0  0  0 
 40 41  1  0  0  0  0 
 40 42  1  0  0  0  0 
 40 43  1  0  0  0  0 
 43 44  1  0  0  0  0 
 43 45  1  0  0  0  0 
 43 46  1  0  0  0  0 
  8 46  1  0  0  0  0 
 46 47  1  6  0  0  0 
 47 48  3  0  0  0  0 
 48 49  1  0  0  0  0 
 46 50  1  1  0  0  0 
 50 51  1  0  0  0  0 
 51 52  2  0  0  0  0 
 51 53  1  0  0  0  0 
 53 54  1  0  0  0  0 
 53 55  1  0  0  0  0 
 53 56  1  0  0  0  0 
M  END
> <Rank>
18

> <Priority_score>
0.0176

> <Reaction_type>
alkyl dehydrogenation

> <Parent_ID>
2

> <Parent_InChI>
InChI=1S/C23H31NO3/c1-4-22-12-10-19-18-9-7-17(24-26)14-16(18)6-8-20(19)21(22)11-13-23(22,5-2)27-15(3)25/h2,14,18-21,26H,4,6-13H2,1,3H3

> <Parent_SMILES>
C#C[C@]1(OC(C)=O)CC[C@H]2[C@@H]3CCC4=C/C(=N/O)CC[C@@H]4[C@H]3CC[C@@]21CC

$$$$
Molecule 2_metabolite 19
  CDK     0516241031

 56 59  0  0  0  0  0  0  0  0999 V2000
    7.0542    3.8353    0.0000 C   0  0  0  0  0  0  0  0  0  0  0  0
    5.8427    4.7198    0.0000 H   0  0  0  0  0  0  0  0  0  0  0  0
    8.4259    4.4423    0.0000 H   0  0  0  0  0  0  0  0  0  0  0  0
    6.8428    1.8667    0.0000 C   0  0  0  0  0  0  0  0  0  0  0  0
    5.4711    1.2597    0.0000 H   0  0  0  0  0  0  0  0  0  0  0  0
    8.0543    0.9822    0.0000 C   0  0  2  0  0  0  0  0  0  0  0  0
    8.3721    2.4490    0.0000 C   0  0  0  0  0  0  0  0  0  0  0  0
    6.8732    2.5069    0.0000 H   0  0  0  0  0  0  0  0  0  0  0  0
    7.9730    5.3618    0.0000 H   0  0  0  0  0  0  0  0  0  0  0  0
    9.8009    2.9081    0.0000 C   0  0  0  0  0  0  0  0  0  0  0  0
    9.1012    4.2349    0.0000 H   0  0  0  0  0  0  0  0  0  0  0  0
   10.9862    3.8275    0.0000 H   0  0  0  0  0  0  0  0  0  0  0  0
   10.9120    1.9004    0.0000 C   0  0  2  0  0  0  0  0  0  0  0  0
   12.0236    0.8933    0.0000 H   0  0  0  0  0  0  0  0  0  0  0  0
   12.3409    2.3595    0.0000 C   0  0  1  0  0  0  0  0  0  0  0  0
   13.7695    2.8170    0.0000 H   0  0  0  0  0  0  0  0  0  0  0  0
   12.6587    3.8263    0.0000 C   0  0  0  0  0  0  0  0  0  0  0  0
   11.2700    4.3934    0.0000 H   0  0  0  0  0  0  0  0  0  0  0  0
   12.4551    5.3124    0.0000 H   0  0  0  0  0  0  0  0  0  0  0  0
   14.0876    4.2854    0.0000 C   0  0  0  0  0  0  0  0  0  0  0  0
   13.3879    5.6122    0.0000 H   0  0  0  0  0  0  0  0  0  0  0  0
   15.2728    5.2048    0.0000 H   0  0  0  0  0  0  0  0  0  0  0  0
   15.1987    3.2777    0.0000 C   0  0  0  0  0  0  0  0  0  0  0  0
   16.6270    3.7359    0.0000 N   0  0  0  0  0  0  0  0  0  0  0  0
   16.9444    5.2019    0.0000 O   0  0  0  0  0  0  0  0  0  0  0  0
   18.3727    5.6601    0.0000 H   0  0  0  0  0  0  0  0  0  0  0  0
   14.8809    1.8109    0.0000 C   0  0  0  0  0  0  0  0  0  0  0  0
   15.9920    0.8032    0.0000 H   0  0  0  0  0  0  0  0  0  0  0  0
   13.4520    1.3518    0.0000 C   0  0  0  0  0  0  0  0  0  0  0  0
   13.1342   -0.1150    0.0000 C   0  0  0  0  0  0  0  0  0  0  0  0
   14.6331   -0.1729    0.0000 H   0  0  0  0  0  0  0  0  0  0  0  0
   13.3378   -1.6011    0.0000 H   0  0  0  0  0  0  0  0  0  0  0  0
   11.7054   -0.5741    0.0000 C   0  0  0  0  0  0  0  0  0  0  0  0
   12.4051   -1.9009    0.0000 H   0  0  0  0  0  0  0  0  0  0  0  0
   12.5049    0.6950    0.0000 H   0  0  0  0  0  0  0  0  0  0  0  0
   10.5943    0.4336    0.0000 C   0  0  1  0  0  0  0  0  0  0  0  0
   10.2774   -1.0325    0.0000 H   0  0  0  0  0  0  0  0  0  0  0  0
    9.1654   -0.0255    0.0000 C   0  0  2  0  0  0  0  0  0  0  0  0
    7.6654   -0.0133    0.0000 H   0  0  0  0  0  0  0  0  0  0  0  0
    8.5454   -1.3938    0.0000 C   0  0  0  0  0  0  0  0  0  0  0  0
    9.9695   -1.8650    0.0000 H   0  0  0  0  0  0  0  0  0  0  0  0
    8.2273   -2.8597    0.0000 H   0  0  0  0  0  0  0  0  0  0  0  0
    7.0580   -1.2327    0.0000 C   0  0  0  0  0  0  0  0  0  0  0  0
    7.0528   -2.7327    0.0000 H   0  0  0  0  0  0  0  0  0  0  0  0
    5.5656   -1.3839    0.0000 H   0  0  0  0  0  0  0  0  0  0  0  0
    6.7529    0.2320    0.0000 C   0  0  1  0  0  0  0  0  0  0  0  0
    5.3249   -0.2274    0.0000 C   0  0  0  0  0  0  0  0  0  0  0  0
    3.8970   -0.6867    0.0000 C   0  0  0  0  0  0  0  0  0  0  0  0
    2.4690   -1.1460    0.0000 H   0  0  0  0  0  0  0  0  0  0  0  0
    5.5619    2.9199    0.0000 O   0  0  0  0  0  0  0  0  0  0  0  0
    4.0704    3.0794    0.0000 C   0  0  0  0  0  0  0  0  0  0  0  0
    3.1865    1.8675    0.0000 O   0  0  0  0  0  0  0  0  0  0  0  0
    3.4627    4.4508    0.0000 C   0  0  0  0  0  0  0  0  0  0  0  0
    4.3466    5.6628    0.0000 H   0  0  0  0  0  0  0  0  0  0  0  0
    2.2177    3.6143    0.0000 H   0  0  0  0  0  0  0  0  0  0  0  0
    2.4227    5.5317    0.0000 H   0  0  0  0  0  0  0  0  0  0  0  0
  1  2  1  0  0  0  0 
  1  3  1  0  0  0  0 
  1  4  2  0  0  0  0 
  4  5  1  0  0  0  0 
  6  4  1  6  0  0  0 
  6  7  1  0  0  0  0 
  7  8  1  0  0  0  0 
  7  9  1  0  0  0  0 
  7 10  1  0  0  0  0 
 10 11  1  0  0  0  0 
 10 12  1  0  0  0  0 
 10 13  1  0  0  0  0 
 13 14  1  1  0  0  0 
 13 15  1  0  0  0  0 
 15 16  1  6  0  0  0 
 15 17  1  0  0  0  0 
 17 18  1  0  0  0  0 
 17 19  1  0  0  0  0 
 17 20  1  0  0  0  0 
 20 21  1  0  0  0  0 
 20 22  1  0  0  0  0 
 20 23  1  0  0  0  0 
 23 24  2  0  0  0  0 
 24 25  1  0  0  0  0 
 25 26  1  0  0  0  0 
 23 27  1  0  0  0  0 
 27 28  1  0  0  0  0 
 27 29  2  0  0  0  0 
 15 29  1  0  0  0  0 
 29 30  1  0  0  0  0 
 30 31  1  0  0  0  0 
 30 32  1  0  0  0  0 
 30 33  1  0  0  0  0 
 33 34  1  0  0  0  0 
 33 35  1  0  0  0  0 
 33 36  1  0  0  0  0 
 13 36  1  0  0  0  0 
 36 37  1  6  0  0  0 
 36 38  1  0  0  0  0 
  6 38  1  0  0  0  0 
 38 39  1  1  0  0  0 
 38 40  1  0  0  0  0 
 40 41  1  0  0  0  0 
 40 42  1  0  0  0  0 
 40 43  1  0  0  0  0 
 43 44  1  0  0  0  0 
 43 45  1  0  0  0  0 
 43 46  1  0  0  0  0 
  6 46  1  0  0  0  0 
 46 47  1  1  0  0  0 
 47 48  3  0  0  0  0 
 48 49  1  0  0  0  0 
 46 50  1  6  0  0  0 
 50 51  1  0  0  0  0 
 51 52  2  0  0  0  0 
 51 53  1  0  0  0  0 
 53 54  1  0  0  0  0 
 53 55  1  0  0  0  0 
 53 56  1  0  0  0  0 
M  END
> <Rank>
19

> <Priority_score>
0.016

> <Reaction_type>
alkyl dehydrogenation

> <Parent_ID>
2

> <Parent_InChI>
InChI=1S/C23H31NO3/c1-4-22-12-10-19-18-9-7-17(24-26)14-16(18)6-8-20(19)21(22)11-13-23(22,5-2)27-15(3)25/h2,14,18-21,26H,4,6-13H2,1,3H3

> <Parent_SMILES>
C#C[C@]1(OC(C)=O)CC[C@H]2[C@@H]3CCC4=C/C(=N/O)CC[C@@H]4[C@H]3CC[C@@]21CC

$$$$
Molecule 2_metabolite 20
  CDK     0516241031

 56 59  0  0  0  0  0  0  0  0999 V2000
    9.4469    3.5864    0.0000 C   0  0  0  0  0  0  0  0  0  0  0  0
    8.2354    4.4709    0.0000 H   0  0  0  0  0  0  0  0  0  0  0  0
   10.8879    3.1697    0.0000 H   0  0  0  0  0  0  0  0  0  0  0  0
   10.1075    4.9331    0.0000 H   0  0  0  0  0  0  0  0  0  0  0  0
    9.2354    1.6178    0.0000 C   0  0  0  0  0  0  0  0  0  0  0  0
    7.7945    2.0345    0.0000 H   0  0  0  0  0  0  0  0  0  0  0  0
    8.5748    0.2711    0.0000 H   0  0  0  0  0  0  0  0  0  0  0  0
   11.2223    0.1673    0.0000 C   0  0  2  0  0  0  0  0  0  0  0  0
   11.5401    1.6341    0.0000 C   0  0  0  0  0  0  0  0  0  0  0  0
   10.0412    1.6920    0.0000 H   0  0  0  0  0  0  0  0  0  0  0  0
   11.2062    4.0713    0.0000 H   0  0  0  0  0  0  0  0  0  0  0  0
   12.9690    2.0932    0.0000 C   0  0  0  0  0  0  0  0  0  0  0  0
   12.2693    3.4200    0.0000 H   0  0  0  0  0  0  0  0  0  0  0  0
   14.1542    3.0125    0.0000 H   0  0  0  0  0  0  0  0  0  0  0  0
   14.0801    1.0855    0.0000 C   0  0  2  0  0  0  0  0  0  0  0  0
   14.7802   -0.2411    0.0000 H   0  0  0  0  0  0  0  0  0  0  0  0
   15.5090    1.5446    0.0000 C   0  0  1  0  0  0  0  0  0  0  0  0
   13.3312    3.5197    0.0000 H   0  0  0  0  0  0  0  0  0  0  0  0
   15.8268    3.0114    0.0000 C   0  0  0  0  0  0  0  0  0  0  0  0
   14.7157    4.0191    0.0000 H   0  0  0  0  0  0  0  0  0  0  0  0
   17.2556    3.4705    0.0000 C   0  0  0  0  0  0  0  0  0  0  0  0
   17.5725    4.9366    0.0000 H   0  0  0  0  0  0  0  0  0  0  0  0
   18.3667    2.4628    0.0000 C   0  0  0  0  0  0  0  0  0  0  0  0
   19.7951    2.9210    0.0000 N   0  0  0  0  0  0  0  0  0  0  0  0
   20.1124    4.3870    0.0000 O   0  0  0  0  0  0  0  0  0  0  0  0
   21.5408    4.8452    0.0000 H   0  0  0  0  0  0  0  0  0  0  0  0
   18.0490    0.9960    0.0000 C   0  0  0  0  0  0  0  0  0  0  0  0
   19.1601   -0.0117    0.0000 H   0  0  0  0  0  0  0  0  0  0  0  0
   16.6201    0.5369    0.0000 C   0  0  0  0  0  0  0  0  0  0  0  0
   16.3023   -0.9299    0.0000 C   0  0  0  0  0  0  0  0  0  0  0  0
   17.8012   -0.9878    0.0000 H   0  0  0  0  0  0  0  0  0  0  0  0
   16.5059   -2.4160    0.0000 H   0  0  0  0  0  0  0  0  0  0  0  0
   14.8734   -1.3890    0.0000 C   0  0  0  0  0  0  0  0  0  0  0  0
   15.5731   -2.7158    0.0000 H   0  0  0  0  0  0  0  0  0  0  0  0
   15.6730   -0.1199    0.0000 H   0  0  0  0  0  0  0  0  0  0  0  0
   13.7623   -0.3813    0.0000 C   0  0  1  0  0  0  0  0  0  0  0  0
   13.4454   -1.8475    0.0000 H   0  0  0  0  0  0  0  0  0  0  0  0
   12.3334   -0.8404    0.0000 C   0  0  2  0  0  0  0  0  0  0  0  0
   10.8335   -0.8282    0.0000 H   0  0  0  0  0  0  0  0  0  0  0  0
   11.7135   -2.2087    0.0000 C   0  0  0  0  0  0  0  0  0  0  0  0
   13.1375   -2.6799    0.0000 H   0  0  0  0  0  0  0  0  0  0  0  0
   11.3954   -3.6746    0.0000 H   0  0  0  0  0  0  0  0  0  0  0  0
   10.2260   -2.0477    0.0000 C   0  0  0  0  0  0  0  0  0  0  0  0
   10.2209   -3.5477    0.0000 H   0  0  0  0  0  0  0  0  0  0  0  0
    8.7336   -2.1989    0.0000 H   0  0  0  0  0  0  0  0  0  0  0  0
    9.9209   -0.5830    0.0000 C   0  0  1  0  0  0  0  0  0  0  0  0
    7.5791   -1.3363    0.0000 C   0  0  0  0  0  0  0  0  0  0  0  0
    6.1511   -1.7956    0.0000 C   0  0  0  0  0  0  0  0  0  0  0  0
    4.7232   -2.2549    0.0000 H   0  0  0  0  0  0  0  0  0  0  0  0
    8.7299    2.1050    0.0000 O   0  0  0  0  0  0  0  0  0  0  0  0
    6.7611    2.3155    0.0000 C   0  0  0  0  0  0  0  0  0  0  0  0
    5.8773    1.1036    0.0000 O   0  0  0  0  0  0  0  0  0  0  0  0
    6.1535    3.6869    0.0000 C   0  0  0  0  0  0  0  0  0  0  0  0
    7.0374    4.8989    0.0000 H   0  0  0  0  0  0  0  0  0  0  0  0
    4.9084    2.8504    0.0000 H   0  0  0  0  0  0  0  0  0  0  0  0
    5.1135    4.7678    0.0000 H   0  0  0  0  0  0  0  0  0  0  0  0
  1  2  1  0  0  0  0 
  1  3  1  0  0  0  0 
  1  4  1  0  0  0  0 
  1  5  1  0  0  0  0 
  5  6  1  0  0  0  0 
  5  7  1  0  0  0  0 
  8  5  1  6  0  0  0 
  8  9  1  0  0  0  0 
  9 10  1  0  0  0  0 
  9 11  1  0  0  0  0 
  9 12  1  0  0  0  0 
 12 13  1  0  0  0  0 
 12 14  1  0  0  0  0 
 12 15  1  0  0  0  0 
 15 16  1  1  0  0  0 
 15 17  1  0  0  0  0 
 17 18  1  6  0  0  0 
 17 19  1  0  0  0  0 
 19 20  1  0  0  0  0 
 19 21  2  0  0  0  0 
 21 22  1  0  0  0  0 
 21 23  1  0  0  0  0 
 23 24  2  0  0  0  0 
 24 25  1  0  0  0  0 
 25 26  1  0  0  0  0 
 23 27  1  0  0  0  0 
 27 28  1  0  0  0  0 
 27 29  2  0  0  0  0 
 17 29  1  0  0  0  0 
 29 30  1  0  0  0  0 
 30 31  1  0  0  0  0 
 30 32  1  0  0  0  0 
 30 33  1  0  0  0  0 
 33 34  1  0  0  0  0 
 33 35  1  0  0  0  0 
 33 36  1  0  0  0  0 
 15 36  1  0  0  0  0 
 36 37  1  6  0  0  0 
 36 38  1  0  0  0  0 
  8 38  1  0  0  0  0 
 38 39  1  1  0  0  0 
 38 40  1  0  0  0  0 
 40 41  1  0  0  0  0 
 40 42  1  0  0  0  0 
 40 43  1  0  0  0  0 
 43 44  1  0  0  0  0 
 43 45  1  0  0  0  0 
 43 46  1  0  0  0  0 
  8 46  1  0  0  0  0 
 46 47  1  1  0  0  0 
 47 48  3  0  0  0  0 
 48 49  1  0  0  0  0 
 46 50  1  6  0  0  0 
 50 51  1  0  0  0  0 
 51 52  2  0  0  0  0 
 51 53  1  0  0  0  0 
 53 54  1  0  0  0  0 
 53 55  1  0  0  0  0 
 53 56  1  0  0  0  0 
M  END
> <Rank>
20

> <Priority_score>
0.0144

> <Reaction_type>
alkyl dehydrogenation

> <Parent_ID>
2

> <Parent_InChI>
InChI=1S/C23H31NO3/c1-4-22-12-10-19-18-9-7-17(24-26)14-16(18)6-8-20(19)21(22)11-13-23(22,5-2)27-15(3)25/h2,14,18-21,26H,4,6-13H2,1,3H3

> <Parent_SMILES>
C#C[C@]1(OC(C)=O)CC[C@H]2[C@@H]3CCC4=C/C(=N/O)CC[C@@H]4[C@H]3CC[C@@]21CC

$$$$
Molecule 2_metabolite 21
  CDK     0516241031

 56 59  0  0  0  0  0  0  0  0999 V2000
    2.0582    2.6305    0.0000 C   0  0  0  0  0  0  0  0  0  0  0  0
    0.6871    2.0222    0.0000 H   0  0  0  0  0  0  0  0  0  0  0  0
    3.1386    3.6711    0.0000 H   0  0  0  0  0  0  0  0  0  0  0  0
    1.2210    3.8752    0.0000 H   0  0  0  0  0  0  0  0  0  0  0  0
    4.0465    1.1820    0.0000 C   0  0  0  0  0  0  0  0  0  0  0  0
    5.2911    2.0192    0.0000 H   0  0  0  0  0  0  0  0  0  0  0  0
    5.4878    0.7667    0.0000 H   0  0  0  0  0  0  0  0  0  0  0  0
    3.7862   -1.2642    0.0000 C   0  0  2  0  0  0  0  0  0  0  0  0
    2.4862   -0.5142    0.0000 C   0  0  0  0  0  0  0  0  0  0  0  0
    3.4502    0.6350    0.0000 H   0  0  0  0  0  0  0  0  0  0  0  0
    1.2136    1.0027    0.0000 H   0  0  0  0  0  0  0  0  0  0  0  0
    1.1862   -1.2642    0.0000 C   0  0  0  0  0  0  0  0  0  0  0  0
    0.6734    0.1455    0.0000 H   0  0  0  0  0  0  0  0  0  0  0  0
    2.6634   -1.5245    0.0000 H   0  0  0  0  0  0  0  0  0  0  0  0
    1.1862   -2.7642    0.0000 C   0  0  2  0  0  0  0  0  0  0  0  0
   -0.1128   -2.0140    0.0000 H   0  0  0  0  0  0  0  0  0  0  0  0
   -0.1138   -3.5142    0.0000 C   0  0  0  0  0  0  0  0  0  0  0  0
   -1.4138   -2.7642    0.0000 C   0  0  0  0  0  0  0  0  0  0  0  0
   -1.4138   -1.2642    0.0000 H   0  0  0  0  0  0  0  0  0  0  0  0
   -2.7138   -3.5142    0.0000 C   0  0  0  0  0  0  0  0  0  0  0  0
   -3.2266   -2.1045    0.0000 H   0  0  0  0  0  0  0  0  0  0  0  0
   -4.1911   -3.7745    0.0000 H   0  0  0  0  0  0  0  0  0  0  0  0
   -2.7138   -5.0142    0.0000 C   0  0  0  0  0  0  0  0  0  0  0  0
   -4.0128   -5.7644    0.0000 N   0  0  0  0  0  0  0  0  0  0  0  0
   -5.3119   -5.0146    0.0000 O   0  0  0  0  0  0  0  0  0  0  0  0
   -6.6108   -5.7648    0.0000 H   0  0  0  0  0  0  0  0  0  0  0  0
   -1.4138   -5.7642    0.0000 C   0  0  0  0  0  0  0  0  0  0  0  0
   -1.4138   -7.2642    0.0000 H   0  0  0  0  0  0  0  0  0  0  0  0
   -0.1138   -5.0142    0.0000 C   0  0  0  0  0  0  0  0  0  0  0  0
    1.1862   -5.7642    0.0000 C   0  0  0  0  0  0  0  0  0  0  0  0
    0.2221   -6.9134    0.0000 H   0  0  0  0  0  0  0  0  0  0  0  0
    2.1502   -6.9134    0.0000 H   0  0  0  0  0  0  0  0  0  0  0  0
    2.4862   -5.0142    0.0000 C   0  0  0  0  0  0  0  0  0  0  0  0
    2.9989   -6.4238    0.0000 H   0  0  0  0  0  0  0  0  0  0  0  0
    1.0089   -4.7539    0.0000 H   0  0  0  0  0  0  0  0  0  0  0  0
    2.4862   -3.5142    0.0000 C   0  0  1  0  0  0  0  0  0  0  0  0
    3.7851   -4.2644    0.0000 H   0  0  0  0  0  0  0  0  0  0  0  0
    3.7862   -2.7642    0.0000 C   0  0  2  0  0  0  0  0  0  0  0  0
    4.7848   -1.6449    0.0000 H   0  0  0  0  0  0  0  0  0  0  0  0
    5.2162   -3.2242    0.0000 C   0  0  0  0  0  0  0  0  0  0  0  0
    4.6085   -4.5956    0.0000 H   0  0  0  0  0  0  0  0  0  0  0  0
    6.5157   -3.9733    0.0000 H   0  0  0  0  0  0  0  0  0  0  0  0
    6.0962   -2.0142    0.0000 C   0  0  0  0  0  0  0  0  0  0  0  0
    7.2107   -3.0181    0.0000 H   0  0  0  0  0  0  0  0  0  0  0  0
    7.2107   -1.0103    0.0000 H   0  0  0  0  0  0  0  0  0  0  0  0
    5.2162   -0.8042    0.0000 C   0  0  1  0  0  0  0  0  0  0  0  0
    6.5157   -0.0550    0.0000 C   0  0  0  0  0  0  0  0  0  0  0  0
    7.8152    0.6941    0.0000 C   0  0  0  0  0  0  0  0  0  0  0  0
    9.1148    1.4432    0.0000 H   0  0  0  0  0  0  0  0  0  0  0  0
    4.5100    2.0498    0.0000 O   0  0  0  0  0  0  0  0  0  0  0  0
    5.5909    3.0898    0.0000 C   0  0  0  0  0  0  0  0  0  0  0  0
    7.0321    2.6738    0.0000 O   0  0  0  0  0  0  0  0  0  0  0  0
    5.2306    4.5459    0.0000 C   0  0  0  0  0  0  0  0  0  0  0  0
    3.7895    4.9619    0.0000 H   0  0  0  0  0  0  0  0  0  0  0  0
    6.7272    4.6478    0.0000 H   0  0  0  0  0  0  0  0  0  0  0  0
    5.3901    6.0374    0.0000 H   0  0  0  0  0  0  0  0  0  0  0  0
  1  2  1  0  0  0  0 
  1  3  1  0  0  0  0 
  1  4  1  0  0  0  0 
  1  5  1  0  0  0  0 
  5  6  1  0  0  0  0 
  5  7  1  0  0  0  0 
  8  5  1  1  0  0  0 
  8  9  1  0  0  0  0 
  9 10  1  0  0  0  0 
  9 11  1  0  0  0  0 
  9 12  1  0  0  0  0 
 12 13  1  0  0  0  0 
 12 14  1  0  0  0  0 
 12 15  1  0  0  0  0 
 15 16  1  6  0  0  0 
 15 17  1  0  0  0  0 
 17 18  2  0  0  0  0 
 18 19  1  0  0  0  0 
 18 20  1  0  0  0  0 
 20 21  1  0  0  0  0 
 20 22  1  0  0  0  0 
 20 23  1  0  0  0  0 
 23 24  2  0  0  0  0 
 24 25  1  0  0  0  0 
 25 26  1  0  0  0  0 
 23 27  1  0  0  0  0 
 27 28  1  0  0  0  0 
 27 29  2  0  0  0  0 
 17 29  1  0  0  0  0 
 29 30  1  0  0  0  0 
 30 31  1  0  0  0  0 
 30 32  1  0  0  0  0 
 30 33  1  0  0  0  0 
 33 34  1  0  0  0  0 
 33 35  1  0  0  0  0 
 33 36  1  0  0  0  0 
 15 36  1  0  0  0  0 
 36 37  1  1  0  0  0 
 36 38  1  0  0  0  0 
  8 38  1  0  0  0  0 
 38 39  1  6  0  0  0 
 38 40  1  0  0  0  0 
 40 41  1  0  0  0  0 
 40 42  1  0  0  0  0 
 40 43  1  0  0  0  0 
 43 44  1  0  0  0  0 
 43 45  1  0  0  0  0 
 43 46  1  0  0  0  0 
  8 46  1  0  0  0  0 
 46 47  1  6  0  0  0 
 47 48  3  0  0  0  0 
 48 49  1  0  0  0  0 
 46 50  1  1  0  0  0 
 50 51  1  0  0  0  0 
 51 52  2  0  0  0  0 
 51 53  1  0  0  0  0 
 53 54  1  0  0  0  0 
 53 55  1  0  0  0  0 
 53 56  1  0  0  0  0 
M  END
> <Rank>
20

> <Priority_score>
0.0144

> <Reaction_type>
alkyl dehydrogenation

> <Parent_ID>
2

> <Parent_InChI>
InChI=1S/C23H31NO3/c1-4-22-12-10-19-18-9-7-17(24-26)14-16(18)6-8-20(19)21(22)11-13-23(22,5-2)27-15(3)25/h2,14,18-21,26H,4,6-13H2,1,3H3

> <Parent_SMILES>
C#C[C@]1(OC(C)=O)CC[C@H]2[C@@H]3CCC4=C/C(=N/O)CC[C@@H]4[C@H]3CC[C@@]21CC

$$$$
Molecule 2_metabolite 22
  CDK     0516241031

 59 62  0  0  0  0  0  0  0  0999 V2000
    3.6137    1.5426    0.0000 C   0  0  0  0  0  0  0  0  0  0  0  0
    3.7724    3.0342    0.0000 H   0  0  0  0  0  0  0  0  0  0  0  0
    2.9543    0.1953    0.0000 H   0  0  0  0  0  0  0  0  0  0  0  0
    2.1723    1.9580    0.0000 H   0  0  0  0  0  0  0  0  0  0  0  0
    5.2140    0.3767    0.0000 C   0  0  0  0  0  0  0  0  0  0  0  0
    5.8733    1.7240    0.0000 H   0  0  0  0  0  0  0  0  0  0  0  0
    6.6553   -0.0386    0.0000 H   0  0  0  0  0  0  0  0  0  0  0  0
    4.9029   -2.5468    0.0000 C   0  0  2  0  0  0  0  0  0  0  0  0
    3.6029   -1.7968    0.0000 C   0  0  0  0  0  0  0  0  0  0  0  0
    4.5669   -0.6476    0.0000 H   0  0  0  0  0  0  0  0  0  0  0  0
    2.0218    0.0879    0.0000 H   0  0  0  0  0  0  0  0  0  0  0  0
    2.3029   -2.5468    0.0000 C   0  0  0  0  0  0  0  0  0  0  0  0
    1.7901   -1.1371    0.0000 H   0  0  0  0  0  0  0  0  0  0  0  0
    0.8934   -2.0336    0.0000 H   0  0  0  0  0  0  0  0  0  0  0  0
    2.3029   -4.0468    0.0000 C   0  0  2  0  0  0  0  0  0  0  0  0
    1.0029   -4.7968    0.0000 C   0  0  1  0  0  0  0  0  0  0  0  0
   -0.2957   -5.5476    0.0000 H   0  0  0  0  0  0  0  0  0  0  0  0
   -0.2971   -4.0468    0.0000 C   0  0  0  0  0  0  0  0  0  0  0  0
    0.8518   -3.0825    0.0000 H   0  0  0  0  0  0  0  0  0  0  0  0
   -1.2612   -2.8976    0.0000 H   0  0  0  0  0  0  0  0  0  0  0  0
   -1.5971   -4.7968    0.0000 C   0  0  0  0  0  0  0  0  0  0  0  0
   -2.1099   -3.3871    0.0000 H   0  0  0  0  0  0  0  0  0  0  0  0
   -3.0744   -5.0571    0.0000 H   0  0  0  0  0  0  0  0  0  0  0  0
   -1.5971   -6.2968    0.0000 C   0  0  0  0  0  0  0  0  0  0  0  0
   -2.8961   -7.0470    0.0000 N   0  0  0  0  0  0  0  0  0  0  0  0
   -4.1952   -6.2972    0.0000 O   0  0  0  0  0  0  0  0  0  0  0  0
   -5.4941   -7.0474    0.0000 H   0  0  0  0  0  0  0  0  0  0  0  0
   -0.2971   -7.0468    0.0000 C   0  0  0  0  0  0  0  0  0  0  0  0
   -0.2971   -8.5468    0.0000 H   0  0  0  0  0  0  0  0  0  0  0  0
    1.0029   -6.2968    0.0000 C   0  0  0  0  0  0  0  0  0  0  0  0
    2.3029   -7.0468    0.0000 C   0  0  0  0  0  0  0  0  0  0  0  0
    1.3388   -8.1960    0.0000 H   0  0  0  0  0  0  0  0  0  0  0  0
    3.2669   -8.1960    0.0000 H   0  0  0  0  0  0  0  0  0  0  0  0
    3.6029   -6.2968    0.0000 C   0  0  0  0  0  0  0  0  0  0  0  0
    4.1156   -7.7064    0.0000 H   0  0  0  0  0  0  0  0  0  0  0  0
    2.1256   -6.0365    0.0000 H   0  0  0  0  0  0  0  0  0  0  0  0
    3.6029   -4.7968    0.0000 C   0  0  1  0  0  0  0  0  0  0  0  0
    4.9018   -5.5470    0.0000 H   0  0  0  0  0  0  0  0  0  0  0  0
    4.9029   -4.0468    0.0000 C   0  0  2  0  0  0  0  0  0  0  0  0
    5.9015   -2.9275    0.0000 H   0  0  0  0  0  0  0  0  0  0  0  0
    6.3329   -4.5068    0.0000 C   0  0  0  0  0  0  0  0  0  0  0  0
    5.7252   -5.8782    0.0000 H   0  0  0  0  0  0  0  0  0  0  0  0
    7.6324   -5.2559    0.0000 H   0  0  0  0  0  0  0  0  0  0  0  0
    7.2129   -3.2968    0.0000 C   0  0  0  0  0  0  0  0  0  0  0  0
    8.3274   -4.3007    0.0000 H   0  0  0  0  0  0  0  0  0  0  0  0
    8.3274   -2.2929    0.0000 H   0  0  0  0  0  0  0  0  0  0  0  0
    6.3329   -2.0868    0.0000 C   0  0  1  0  0  0  0  0  0  0  0  0
    7.6324   -1.3376    0.0000 C   0  0  0  0  0  0  0  0  0  0  0  0
    8.9319   -0.5885    0.0000 C   0  0  0  0  0  0  0  0  0  0  0  0
   10.2315    0.1606    0.0000 H   0  0  0  0  0  0  0  0  0  0  0  0
    6.1330    0.8464    0.0000 O   0  0  0  0  0  0  0  0  0  0  0  0
    7.3781    1.6830    0.0000 C   0  0  0  0  0  0  0  0  0  0  0  0
    8.7251    1.0230    0.0000 O   0  0  0  0  0  0  0  0  0  0  0  0
    7.2762    3.1795    0.0000 C   0  0  0  0  0  0  0  0  0  0  0  0
    5.9292    3.8395    0.0000 H   0  0  0  0  0  0  0  0  0  0  0  0
    8.7677    3.0200    0.0000 H   0  0  0  0  0  0  0  0  0  0  0  0
    7.6922    4.6207    0.0000 H   0  0  0  0  0  0  0  0  0  0  0  0
   -0.2430   -2.5764    0.0000 O   0  0  0  0  0  0  0  0  0  0  0  0
   -0.2428   -1.0764    0.0000 H   0  0  0  0  0  0  0  0  0  0  0  0
  1  2  1  0  0  0  0 
  1  3  1  0  0  0  0 
  1  4  1  0  0  0  0 
  1  5  1  0  0  0  0 
  5  6  1  0  0  0  0 
  5  7  1  0  0  0  0 
  8  5  1  1  0  0  0 
  8  9  1  0  0  0  0 
  9 10  1  0  0  0  0 
  9 11  1  0  0  0  0 
  9 12  1  0  0  0  0 
 12 13  1  0  0  0  0 
 12 14  1  0  0  0  0 
 12 15  1  0  0  0  0 
 15 16  1  0  0  0  0 
 16 17  1  1  0  0  0 
 16 18  1  0  0  0  0 
 18 19  1  0  0  0  0 
 18 20  1  0  0  0  0 
 18 21  1  0  0  0  0 
 21 22  1  0  0  0  0 
 21 23  1  0  0  0  0 
 21 24  1  0  0  0  0 
 24 25  2  0  0  0  0 
 25 26  1  0  0  0  0 
 26 27  1  0  0  0  0 
 24 28  1  0  0  0  0 
 28 29  1  0  0  0  0 
 28 30  2  0  0  0  0 
 16 30  1  0  0  0  0 
 30 31  1  0  0  0  0 
 31 32  1  0  0  0  0 
 31 33  1  0  0  0  0 
 31 34  1  0  0  0  0 
 34 35  1  0  0  0  0 
 34 36  1  0  0  0  0 
 34 37  1  0  0  0  0 
 15 37  1  0  0  0  0 
 37 38  1  1  0  0  0 
 37 39  1  0  0  0  0 
  8 39  1  0  0  0  0 
 39 40  1  6  0  0  0 
 39 41  1  0  0  0  0 
 41 42  1  0  0  0  0 
 41 43  1  0  0  0  0 
 41 44  1  0  0  0  0 
 44 45  1  0  0  0  0 
 44 46  1  0  0  0  0 
 44 47  1  0  0  0  0 
  8 47  1  0  0  0  0 
 47 48  1  6  0  0  0 
 48 49  3  0  0  0  0 
 49 50  1  0  0  0  0 
 47 51  1  1  0  0  0 
 51 52  1  0  0  0  0 
 52 53  2  0  0  0  0 
 52 54  1  0  0  0  0 
 54 55  1  0  0  0  0 
 54 56  1  0  0  0  0 
 54 57  1  0  0  0  0 
 15 58  1  6  0  0  0 
 58 59  1  0  0  0  0 
M  END
> <Rank>
22

> <Priority_score>
0.012

> <Reaction_type>
aliphatic hydroxylation

> <Parent_ID>
2

> <Parent_InChI>
InChI=1S/C23H31NO3/c1-4-22-12-10-19-18-9-7-17(24-26)14-16(18)6-8-20(19)21(22)11-13-23(22,5-2)27-15(3)25/h2,14,18-21,26H,4,6-13H2,1,3H3

> <Parent_SMILES>
C#C[C@]1(OC(C)=O)CC[C@H]2[C@@H]3CCC4=C/C(=N/O)CC[C@@H]4[C@H]3CC[C@@]21CC

$$$$
Molecule 2_metabolite 23
  CDK     0516241031

 59 62  0  0  0  0  0  0  0  0999 V2000
    3.7848    2.0126    0.0000 C   0  0  0  0  0  0  0  0  0  0  0  0
    3.9435    3.5042    0.0000 H   0  0  0  0  0  0  0  0  0  0  0  0
    3.1255    0.6653    0.0000 H   0  0  0  0  0  0  0  0  0  0  0  0
    2.3434    2.4280    0.0000 H   0  0  0  0  0  0  0  0  0  0  0  0
    5.3851    0.8467    0.0000 C   0  0  0  0  0  0  0  0  0  0  0  0
    6.0444    2.1940    0.0000 H   0  0  0  0  0  0  0  0  0  0  0  0
    6.8265    0.4314    0.0000 H   0  0  0  0  0  0  0  0  0  0  0  0
    5.0740   -2.0768    0.0000 C   0  0  2  0  0  0  0  0  0  0  0  0
    3.7740   -1.3268    0.0000 C   0  0  0  0  0  0  0  0  0  0  0  0
    4.7381   -0.1776    0.0000 H   0  0  0  0  0  0  0  0  0  0  0  0
    2.1929    0.5579    0.0000 H   0  0  0  0  0  0  0  0  0  0  0  0
    2.4740   -2.0768    0.0000 C   0  0  0  0  0  0  0  0  0  0  0  0
    1.9613   -0.6671    0.0000 H   0  0  0  0  0  0  0  0  0  0  0  0
   -0.4213   -1.5660    0.0000 H   0  0  0  0  0  0  0  0  0  0  0  0
    2.4740   -3.5768    0.0000 C   0  0  2  0  0  0  0  0  0  0  0  0
    2.4733   -5.0768    0.0000 H   0  0  0  0  0  0  0  0  0  0  0  0
    1.1740   -4.3268    0.0000 C   0  0  1  0  0  0  0  0  0  0  0  0
   -0.1246   -5.0776    0.0000 H   0  0  0  0  0  0  0  0  0  0  0  0
   -0.1260   -3.5768    0.0000 C   0  0  0  0  0  0  0  0  0  0  0  0
    0.8381   -2.4276    0.0000 H   0  0  0  0  0  0  0  0  0  0  0  0
   -1.0901   -2.4276    0.0000 H   0  0  0  0  0  0  0  0  0  0  0  0
   -1.4260   -4.3268    0.0000 C   0  0  0  0  0  0  0  0  0  0  0  0
   -1.9387   -2.9171    0.0000 H   0  0  0  0  0  0  0  0  0  0  0  0
   -2.9032   -4.5871    0.0000 H   0  0  0  0  0  0  0  0  0  0  0  0
   -1.4260   -5.8268    0.0000 C   0  0  0  0  0  0  0  0  0  0  0  0
   -2.7249   -6.5770    0.0000 N   0  0  0  0  0  0  0  0  0  0  0  0
   -4.0241   -5.8272    0.0000 O   0  0  0  0  0  0  0  0  0  0  0  0
   -5.3230   -6.5774    0.0000 H   0  0  0  0  0  0  0  0  0  0  0  0
   -0.1260   -6.5768    0.0000 C   0  0  0  0  0  0  0  0  0  0  0  0
   -0.1260   -8.0768    0.0000 H   0  0  0  0  0  0  0  0  0  0  0  0
    1.1740   -5.8268    0.0000 C   0  0  0  0  0  0  0  0  0  0  0  0
    2.4740   -6.5768    0.0000 C   0  0  0  0  0  0  0  0  0  0  0  0
    1.5099   -7.7260    0.0000 H   0  0  0  0  0  0  0  0  0  0  0  0
    3.4381   -7.7260    0.0000 H   0  0  0  0  0  0  0  0  0  0  0  0
    3.7740   -5.8268    0.0000 C   0  0  0  0  0  0  0  0  0  0  0  0
    4.2867   -7.2364    0.0000 H   0  0  0  0  0  0  0  0  0  0  0  0
    2.2968   -5.5665    0.0000 H   0  0  0  0  0  0  0  0  0  0  0  0
    3.7740   -4.3268    0.0000 C   0  0  1  0  0  0  0  0  0  0  0  0
    5.0729   -5.0770    0.0000 H   0  0  0  0  0  0  0  0  0  0  0  0
    5.0740   -3.5768    0.0000 C   0  0  2  0  0  0  0  0  0  0  0  0
    6.0726   -2.4575    0.0000 H   0  0  0  0  0  0  0  0  0  0  0  0
    6.5040   -4.0368    0.0000 C   0  0  0  0  0  0  0  0  0  0  0  0
    5.8964   -5.4082    0.0000 H   0  0  0  0  0  0  0  0  0  0  0  0
    7.3840   -2.8268    0.0000 C   0  0  0  0  0  0  0  0  0  0  0  0
    8.4986   -3.8307    0.0000 H   0  0  0  0  0  0  0  0  0  0  0  0
    8.4986   -1.8229    0.0000 H   0  0  0  0  0  0  0  0  0  0  0  0
    6.5040   -1.6168    0.0000 C   0  0  1  0  0  0  0  0  0  0  0  0
    7.8035   -0.8676    0.0000 C   0  0  0  0  0  0  0  0  0  0  0  0
    9.1031   -0.1185    0.0000 C   0  0  0  0  0  0  0  0  0  0  0  0
   10.4026    0.6306    0.0000 H   0  0  0  0  0  0  0  0  0  0  0  0
    6.3042    1.3164    0.0000 O   0  0  0  0  0  0  0  0  0  0  0  0
    7.5492    2.1530    0.0000 C   0  0  0  0  0  0  0  0  0  0  0  0
    8.8963    1.4930    0.0000 O   0  0  0  0  0  0  0  0  0  0  0  0
    7.4473    3.6495    0.0000 C   0  0  0  0  0  0  0  0  0  0  0  0
    6.1003    4.3095    0.0000 H   0  0  0  0  0  0  0  0  0  0  0  0
    8.9388    3.4900    0.0000 H   0  0  0  0  0  0  0  0  0  0  0  0
    7.8633    5.0906    0.0000 H   0  0  0  0  0  0  0  0  0  0  0  0
    7.8035   -4.7859    0.0000 O   0  0  0  0  0  0  0  0  0  0  0  0
    7.8045   -6.2859    0.0000 H   0  0  0  0  0  0  0  0  0  0  0  0
  1  2  1  0  0  0  0 
  1  3  1  0  0  0  0 
  1  4  1  0  0  0  0 
  1  5  1  0  0  0  0 
  5  6  1  0  0  0  0 
  5  7  1  0  0  0  0 
  8  5  1  1  0  0  0 
  8  9  1  0  0  0  0 
  9 10  1  0  0  0  0 
  9 11  1  0  0  0  0 
  9 12  1  0  0  0  0 
 12 13  1  0  0  0  0 
 12 14  1  0  0  0  0 
 12 15  1  0  0  0  0 
 15 16  1  6  0  0  0 
 15 17  1  0  0  0  0 
 17 18  1  1  0  0  0 
 17 19  1  0  0  0  0 
 19 20  1  0  0  0  0 
 19 21  1  0  0  0  0 
 19 22  1  0  0  0  0 
 22 23  1  0  0  0  0 
 22 24  1  0  0  0  0 
 22 25  1  0  0  0  0 
 25 26  2  0  0  0  0 
 26 27  1  0  0  0  0 
 27 28  1  0  0  0  0 
 25 29  1  0  0  0  0 
 29 30  1  0  0  0  0 
 29 31  2  0  0  0  0 
 17 31  1  0  0  0  0 
 31 32  1  0  0  0  0 
 32 33  1  0  0  0  0 
 32 34  1  0  0  0  0 
 32 35  1  0  0  0  0 
 35 36  1  0  0  0  0 
 35 37  1  0  0  0  0 
 35 38  1  0  0  0  0 
 15 38  1  0  0  0  0 
 38 39  1  1  0  0  0 
 38 40  1  0  0  0  0 
  8 40  1  0  0  0  0 
 40 41  1  6  0  0  0 
 40 42  1  0  0  0  0 
 42 43  1  0  0  0  0 
 42 44  1  0  0  0  0 
 44 45  1  0  0  0  0 
 44 46  1  0  0  0  0 
 44 47  1  0  0  0  0 
  8 47  1  0  0  0  0 
 47 48  1  6  0  0  0 
 48 49  3  0  0  0  0 
 49 50  1  0  0  0  0 
 47 51  1  1  0  0  0 
 51 52  1  0  0  0  0 
 52 53  2  0  0  0  0 
 52 54  1  0  0  0  0 
 54 55  1  0  0  0  0 
 54 56  1  0  0  0  0 
 54 57  1  0  0  0  0 
 42 58  1  0  0  0  0 
 58 59  1  0  0  0  0 
M  END
> <Rank>
22

> <Priority_score>
0.012

> <Reaction_type>
aliphatic hydroxylation

> <Parent_ID>
2

> <Parent_InChI>
InChI=1S/C23H31NO3/c1-4-22-12-10-19-18-9-7-17(24-26)14-16(18)6-8-20(19)21(22)11-13-23(22,5-2)27-15(3)25/h2,14,18-21,26H,4,6-13H2,1,3H3

> <Parent_SMILES>
C#C[C@]1(OC(C)=O)CC[C@H]2[C@@H]3CCC4=C/C(=N/O)CC[C@@H]4[C@H]3CC[C@@]21CC

$$$$
Molecule 2_metabolite 24
  CDK     0516241031

 56 59  0  0  0  0  0  0  0  0999 V2000
    3.0036    2.4637    0.0000 C   0  0  0  0  0  0  0  0  0  0  0  0
    1.6325    1.8554    0.0000 H   0  0  0  0  0  0  0  0  0  0  0  0
    4.0840    3.5043    0.0000 H   0  0  0  0  0  0  0  0  0  0  0  0
    2.1664    3.7084    0.0000 H   0  0  0  0  0  0  0  0  0  0  0  0
    4.9919    1.0152    0.0000 C   0  0  0  0  0  0  0  0  0  0  0  0
    6.2365    1.8524    0.0000 H   0  0  0  0  0  0  0  0  0  0  0  0
    6.4332    0.5999    0.0000 H   0  0  0  0  0  0  0  0  0  0  0  0
    4.7316   -1.4310    0.0000 C   0  0  2  0  0  0  0  0  0  0  0  0
    3.4316   -0.6810    0.0000 C   0  0  0  0  0  0  0  0  0  0  0  0
    4.3956    0.4682    0.0000 H   0  0  0  0  0  0  0  0  0  0  0  0
    2.1590    0.8359    0.0000 H   0  0  0  0  0  0  0  0  0  0  0  0
    2.1316   -1.4310    0.0000 C   0  0  0  0  0  0  0  0  0  0  0  0
    1.6188   -0.0213    0.0000 H   0  0  0  0  0  0  0  0  0  0  0  0
   -0.2910   -1.0036    0.0000 H   0  0  0  0  0  0  0  0  0  0  0  0
    2.1316   -2.9310    0.0000 C   0  0  0  0  0  0  0  0  0  0  0  0
    0.8316   -3.6810    0.0000 C   0  0  0  0  0  0  0  0  0  0  0  0
   -0.4684   -2.9310    0.0000 C   0  0  0  0  0  0  0  0  0  0  0  0
    0.4956   -1.7818    0.0000 H   0  0  0  0  0  0  0  0  0  0  0  0
   -1.4325   -1.7818    0.0000 H   0  0  0  0  0  0  0  0  0  0  0  0
   -1.7684   -3.6810    0.0000 C   0  0  0  0  0  0  0  0  0  0  0  0
   -2.2812   -2.2713    0.0000 H   0  0  0  0  0  0  0  0  0  0  0  0
   -3.2457   -3.9413    0.0000 H   0  0  0  0  0  0  0  0  0  0  0  0
   -1.7684   -5.1810    0.0000 C   0  0  0  0  0  0  0  0  0  0  0  0
   -3.0674   -5.9312    0.0000 N   0  0  0  0  0  0  0  0  0  0  0  0
   -4.3665   -5.1814    0.0000 O   0  0  0  0  0  0  0  0  0  0  0  0
   -5.6654   -5.9316    0.0000 H   0  0  0  0  0  0  0  0  0  0  0  0
   -0.4684   -5.9310    0.0000 C   0  0  0  0  0  0  0  0  0  0  0  0
   -0.4684   -7.4310    0.0000 H   0  0  0  0  0  0  0  0  0  0  0  0
    0.8316   -5.1810    0.0000 C   0  0  0  0  0  0  0  0  0  0  0  0
    2.1316   -5.9310    0.0000 C   0  0  0  0  0  0  0  0  0  0  0  0
    1.1675   -7.0802    0.0000 H   0  0  0  0  0  0  0  0  0  0  0  0
    3.0956   -7.0802    0.0000 H   0  0  0  0  0  0  0  0  0  0  0  0
    3.4316   -5.1810    0.0000 C   0  0  0  0  0  0  0  0  0  0  0  0
    3.9443   -6.5906    0.0000 H   0  0  0  0  0  0  0  0  0  0  0  0
    1.9543   -4.9207    0.0000 H   0  0  0  0  0  0  0  0  0  0  0  0
    3.4316   -3.6810    0.0000 C   0  0  1  0  0  0  0  0  0  0  0  0
    4.7305   -4.4312    0.0000 H   0  0  0  0  0  0  0  0  0  0  0  0
    4.7316   -2.9310    0.0000 C   0  0  2  0  0  0  0  0  0  0  0  0
    5.7302   -1.8117    0.0000 H   0  0  0  0  0  0  0  0  0  0  0  0
    6.1616   -3.3910    0.0000 C   0  0  0  0  0  0  0  0  0  0  0  0
    5.5539   -4.7624    0.0000 H   0  0  0  0  0  0  0  0  0  0  0  0
    7.4611   -4.1401    0.0000 H   0  0  0  0  0  0  0  0  0  0  0  0
    7.0416   -2.1810    0.0000 C   0  0  0  0  0  0  0  0  0  0  0  0
    8.1561   -3.1849    0.0000 H   0  0  0  0  0  0  0  0  0  0  0  0
    8.1561   -1.1771    0.0000 H   0  0  0  0  0  0  0  0  0  0  0  0
    6.1616   -0.9710    0.0000 C   0  0  1  0  0  0  0  0  0  0  0  0
    7.4611   -0.2218    0.0000 C   0  0  0  0  0  0  0  0  0  0  0  0
    8.7606    0.5273    0.0000 C   0  0  0  0  0  0  0  0  0  0  0  0
   10.0602    1.2764    0.0000 H   0  0  0  0  0  0  0  0  0  0  0  0
    5.4554    1.8830    0.0000 O   0  0  0  0  0  0  0  0  0  0  0  0
    6.5363    2.9230    0.0000 C   0  0  0  0  0  0  0  0  0  0  0  0
    7.9775    2.5070    0.0000 O   0  0  0  0  0  0  0  0  0  0  0  0
    6.1760    4.3791    0.0000 C   0  0  0  0  0  0  0  0  0  0  0  0
    4.7349    4.7951    0.0000 H   0  0  0  0  0  0  0  0  0  0  0  0
    7.6726    4.4810    0.0000 H   0  0  0  0  0  0  0  0  0  0  0  0
    6.3355    5.8706    0.0000 H   0  0  0  0  0  0  0  0  0  0  0  0
  1  2  1  0  0  0  0 
  1  3  1  0  0  0  0 
  1  4  1  0  0  0  0 
  1  5  1  0  0  0  0 
  5  6  1  0  0  0  0 
  5  7  1  0  0  0  0 
  8  5  1  1  0  0  0 
  8  9  1  0  0  0  0 
  9 10  1  0  0  0  0 
  9 11  1  0  0  0  0 
  9 12  1  0  0  0  0 
 12 13  1  0  0  0  0 
 12 14  1  0  0  0  0 
 12 15  1  0  0  0  0 
 15 16  2  0  0  0  0 
 16 17  1  0  0  0  0 
 17 18  1  0  0  0  0 
 17 19  1  0  0  0  0 
 17 20  1  0  0  0  0 
 20 21  1  0  0  0  0 
 20 22  1  0  0  0  0 
 20 23  1  0  0  0  0 
 23 24  2  0  0  0  0 
 24 25  1  0  0  0  0 
 25 26  1  0  0  0  0 
 23 27  1  0  0  0  0 
 27 28  1  0  0  0  0 
 27 29  2  0  0  0  0 
 16 29  1  0  0  0  0 
 29 30  1  0  0  0  0 
 30 31  1  0  0  0  0 
 30 32  1  0  0  0  0 
 30 33  1  0  0  0  0 
 33 34  1  0  0  0  0 
 33 35  1  0  0  0  0 
 33 36  1  0  0  0  0 
 15 36  1  0  0  0  0 
 36 37  1  1  0  0  0 
 36 38  1  0  0  0  0 
  8 38  1  0  0  0  0 
 38 39  1  6  0  0  0 
 38 40  1  0  0  0  0 
 40 41  1  0  0  0  0 
 40 42  1  0  0  0  0 
 40 43  1  0  0  0  0 
 43 44  1  0  0  0  0 
 43 45  1  0  0  0  0 
 43 46  1  0  0  0  0 
  8 46  1  0  0  0  0 
 46 47  1  6  0  0  0 
 47 48  3  0  0  0  0 
 48 49  1  0  0  0  0 
 46 50  1  1  0  0  0 
 50 51  1  0  0  0  0 
 51 52  2  0  0  0  0 
 51 53  1  0  0  0  0 
 53 54  1  0  0  0  0 
 53 55  1  0  0  0  0 
 53 56  1  0  0  0  0 
M  END
> <Rank>
24

> <Priority_score>
0.009600000000000001

> <Reaction_type>
alkyl dehydrogenation

> <Parent_ID>
2

> <Parent_InChI>
InChI=1S/C23H31NO3/c1-4-22-12-10-19-18-9-7-17(24-26)14-16(18)6-8-20(19)21(22)11-13-23(22,5-2)27-15(3)25/h2,14,18-21,26H,4,6-13H2,1,3H3

> <Parent_SMILES>
C#C[C@]1(OC(C)=O)CC[C@H]2[C@@H]3CCC4=C/C(=N/O)CC[C@@H]4[C@H]3CC[C@@]21CC

$$$$
Molecule 2_metabolite 25
  CDK     0516241031

 56 59  0  0  0  0  0  0  0  0999 V2000
    3.0036    2.4637    0.0000 C   0  0  0  0  0  0  0  0  0  0  0  0
    3.1623    3.9553    0.0000 H   0  0  0  0  0  0  0  0  0  0  0  0
    2.3443    1.1164    0.0000 H   0  0  0  0  0  0  0  0  0  0  0  0
    1.5623    2.8791    0.0000 H   0  0  0  0  0  0  0  0  0  0  0  0
    5.3799    0.7326    0.0000 C   0  0  0  0  0  0  0  0  0  0  0  0
    6.0392    2.0799    0.0000 H   0  0  0  0  0  0  0  0  0  0  0  0
    6.8212    0.3172    0.0000 H   0  0  0  0  0  0  0  0  0  0  0  0
    5.0687   -2.1909    0.0000 C   0  0  2  0  0  0  0  0  0  0  0  0
    3.7687   -1.4409    0.0000 C   0  0  0  0  0  0  0  0  0  0  0  0
    4.7328   -0.2918    0.0000 H   0  0  0  0  0  0  0  0  0  0  0  0
    2.4962    0.0760    0.0000 H   0  0  0  0  0  0  0  0  0  0  0  0
    2.4687   -2.1909    0.0000 C   0  0  0  0  0  0  0  0  0  0  0  0
    1.9560   -0.7813    0.0000 H   0  0  0  0  0  0  0  0  0  0  0  0
    0.0461   -1.7635    0.0000 H   0  0  0  0  0  0  0  0  0  0  0  0
    2.4687   -3.6909    0.0000 C   0  0  2  0  0  0  0  0  0  0  0  0
    2.4680   -5.1909    0.0000 H   0  0  0  0  0  0  0  0  0  0  0  0
    1.1687   -4.4409    0.0000 C   0  0  1  0  0  0  0  0  0  0  0  0
   -0.1298   -5.1918    0.0000 H   0  0  0  0  0  0  0  0  0  0  0  0
   -0.1313   -3.6909    0.0000 C   0  0  0  0  0  0  0  0  0  0  0  0
    0.8328   -2.5418    0.0000 H   0  0  0  0  0  0  0  0  0  0  0  0
   -1.0953   -2.5418    0.0000 H   0  0  0  0  0  0  0  0  0  0  0  0
   -1.4313   -4.4409    0.0000 C   0  0  0  0  0  0  0  0  0  0  0  0
   -1.9440   -3.0313    0.0000 H   0  0  0  0  0  0  0  0  0  0  0  0
   -2.9085   -4.7013    0.0000 H   0  0  0  0  0  0  0  0  0  0  0  0
   -1.4313   -5.9409    0.0000 C   0  0  0  0  0  0  0  0  0  0  0  0
   -2.7302   -6.6911    0.0000 N   0  0  0  0  0  0  0  0  0  0  0  0
   -4.0294   -5.9414    0.0000 O   0  0  0  0  0  0  0  0  0  0  0  0
   -5.3283   -6.6916    0.0000 H   0  0  0  0  0  0  0  0  0  0  0  0
   -0.1313   -6.6909    0.0000 C   0  0  0  0  0  0  0  0  0  0  0  0
   -0.1313   -8.1909    0.0000 H   0  0  0  0  0  0  0  0  0  0  0  0
    1.1687   -5.9409    0.0000 C   0  0  0  0  0  0  0  0  0  0  0  0
    2.4687   -6.6909    0.0000 C   0  0  0  0  0  0  0  0  0  0  0  0
    1.5047   -7.8401    0.0000 H   0  0  0  0  0  0  0  0  0  0  0  0
    3.4328   -7.8401    0.0000 H   0  0  0  0  0  0  0  0  0  0  0  0
    3.7687   -5.9409    0.0000 C   0  0  0  0  0  0  0  0  0  0  0  0
    4.2814   -7.3506    0.0000 H   0  0  0  0  0  0  0  0  0  0  0  0
    5.2687   -5.9411    0.0000 H   0  0  0  0  0  0  0  0  0  0  0  0
    3.7687   -4.4409    0.0000 C   0  0  1  0  0  0  0  0  0  0  0  0
    3.7694   -2.9409    0.0000 H   0  0  0  0  0  0  0  0  0  0  0  0
    5.0687   -3.6909    0.0000 C   0  0  2  0  0  0  0  0  0  0  0  0
    5.2275   -5.1825    0.0000 H   0  0  0  0  0  0  0  0  0  0  0  0
    6.4987   -4.1509    0.0000 C   0  0  0  0  0  0  0  0  0  0  0  0
    6.9640   -5.5770    0.0000 H   0  0  0  0  0  0  0  0  0  0  0  0
    7.3787   -2.9409    0.0000 C   0  0  0  0  0  0  0  0  0  0  0  0
    8.8787   -2.9409    0.0000 H   0  0  0  0  0  0  0  0  0  0  0  0
    6.4987   -1.7309    0.0000 C   0  0  1  0  0  0  0  0  0  0  0  0
    7.7982   -0.9818    0.0000 C   0  0  0  0  0  0  0  0  0  0  0  0
    9.0978   -0.2327    0.0000 C   0  0  0  0  0  0  0  0  0  0  0  0
   10.3973    0.5165    0.0000 H   0  0  0  0  0  0  0  0  0  0  0  0
    6.8113    1.1924    0.0000 O   0  0  0  0  0  0  0  0  0  0  0  0
    8.1827    1.8000    0.0000 C   0  0  0  0  0  0  0  0  0  0  0  0
    9.3946    0.9162    0.0000 O   0  0  0  0  0  0  0  0  0  0  0  0
    8.3422    3.2915    0.0000 C   0  0  0  0  0  0  0  0  0  0  0  0
    7.1302    4.1754    0.0000 H   0  0  0  0  0  0  0  0  0  0  0  0
    9.7833    2.8755    0.0000 H   0  0  0  0  0  0  0  0  0  0  0  0
    9.0021    4.6385    0.0000 H   0  0  0  0  0  0  0  0  0  0  0  0
  1  2  1  0  0  0  0 
  1  3  1  0  0  0  0 
  1  4  1  0  0  0  0 
  1  5  1  0  0  0  0 
  5  6  1  0  0  0  0 
  5  7  1  0  0  0  0 
  8  5  1  1  0  0  0 
  8  9  1  0  0  0  0 
  9 10  1  0  0  0  0 
  9 11  1  0  0  0  0 
  9 12  1  0  0  0  0 
 12 13  1  0  0  0  0 
 12 14  1  0  0  0  0 
 12 15  1  0  0  0  0 
 15 16  1  6  0  0  0 
 15 17  1  0  0  0  0 
 17 18  1  1  0  0  0 
 17 19  1  0  0  0  0 
 19 20  1  0  0  0  0 
 19 21  1  0  0  0  0 
 19 22  1  0  0  0  0 
 22 23  1  0  0  0  0 
 22 24  1  0  0  0  0 
 22 25  1  0  0  0  0 
 25 26  2  0  0  0  0 
 26 27  1  0  0  0  0 
 27 28  1  0  0  0  0 
 25 29  1  0  0  0  0 
 29 30  1  0  0  0  0 
 29 31  2  0  0  0  0 
 17 31  1  0  0  0  0 
 31 32  1  0  0  0  0 
 32 33  1  0  0  0  0 
 32 34  1  0  0  0  0 
 32 35  1  0  0  0  0 
 35 36  1  0  0  0  0 
 35 37  1  0  0  0  0 
 35 38  1  0  0  0  0 
 15 38  1  0  0  0  0 
 38 39  1  1  0  0  0 
 38 40  1  0  0  0  0 
  8 40  1  0  0  0  0 
 40 41  1  6  0  0  0 
 40 42  1  0  0  0  0 
 42 43  1  0  0  0  0 
 42 44  2  0  0  0  0 
 44 45  1  0  0  0  0 
 44 46  1  0  0  0  0 
  8 46  1  0  0  0  0 
 46 47  1  6  0  0  0 
 47 48  3  0  0  0  0 
 48 49  1  0  0  0  0 
 46 50  1  1  0  0  0 
 50 51  1  0  0  0  0 
 51 52  2  0  0  0  0 
 51 53  1  0  0  0  0 
 53 54  1  0  0  0  0 
 53 55  1  0  0  0  0 
 53 56  1  0  0  0  0 
M  END
> <Rank>
24

> <Priority_score>
0.009600000000000001

> <Reaction_type>
alkyl dehydrogenation

> <Parent_ID>
2

> <Parent_InChI>
InChI=1S/C23H31NO3/c1-4-22-12-10-19-18-9-7-17(24-26)14-16(18)6-8-20(19)21(22)11-13-23(22,5-2)27-15(3)25/h2,14,18-21,26H,4,6-13H2,1,3H3

> <Parent_SMILES>
C#C[C@]1(OC(C)=O)CC[C@H]2[C@@H]3CCC4=C/C(=N/O)CC[C@@H]4[C@H]3CC[C@@]21CC

$$$$
Molecule 2_metabolite 26
  CDK     0516241031

 56 59  0  0  0  0  0  0  0  0999 V2000
    3.0036    2.4637    0.0000 C   0  0  0  0  0  0  0  0  0  0  0  0
    1.6325    1.8554    0.0000 H   0  0  0  0  0  0  0  0  0  0  0  0
    4.0840    3.5043    0.0000 H   0  0  0  0  0  0  0  0  0  0  0  0
    2.1664    3.7084    0.0000 H   0  0  0  0  0  0  0  0  0  0  0  0
    4.9919    1.0152    0.0000 C   0  0  0  0  0  0  0  0  0  0  0  0
    6.2365    1.8524    0.0000 H   0  0  0  0  0  0  0  0  0  0  0  0
    6.4332    0.5999    0.0000 H   0  0  0  0  0  0  0  0  0  0  0  0
    4.7316   -1.4310    0.0000 C   0  0  2  0  0  0  0  0  0  0  0  0
    3.4316   -0.6810    0.0000 C   0  0  0  0  0  0  0  0  0  0  0  0
    4.3956    0.4682    0.0000 H   0  0  0  0  0  0  0  0  0  0  0  0
    2.1590    0.8359    0.0000 H   0  0  0  0  0  0  0  0  0  0  0  0
    2.1316   -1.4310    0.0000 C   0  0  0  0  0  0  0  0  0  0  0  0
    1.6188   -0.0213    0.0000 H   0  0  0  0  0  0  0  0  0  0  0  0
   -0.2910   -1.0036    0.0000 H   0  0  0  0  0  0  0  0  0  0  0  0
    2.1316   -2.9310    0.0000 C   0  0  2  0  0  0  0  0  0  0  0  0
    2.1308   -4.4310    0.0000 H   0  0  0  0  0  0  0  0  0  0  0  0
    0.8316   -3.6810    0.0000 C   0  0  1  0  0  0  0  0  0  0  0  0
   -0.4670   -4.4318    0.0000 H   0  0  0  0  0  0  0  0  0  0  0  0
   -0.4684   -2.9310    0.0000 C   0  0  0  0  0  0  0  0  0  0  0  0
    0.4956   -1.7818    0.0000 H   0  0  0  0  0  0  0  0  0  0  0  0
   -1.4325   -1.7818    0.0000 H   0  0  0  0  0  0  0  0  0  0  0  0
   -1.7684   -3.6810    0.0000 C   0  0  0  0  0  0  0  0  0  0  0  0
   -2.2812   -2.2713    0.0000 H   0  0  0  0  0  0  0  0  0  0  0  0
   -3.2457   -3.9413    0.0000 H   0  0  0  0  0  0  0  0  0  0  0  0
   -1.7684   -5.1810    0.0000 C   0  0  0  0  0  0  0  0  0  0  0  0
   -3.0674   -5.9312    0.0000 N   0  0  0  0  0  0  0  0  0  0  0  0
   -4.3665   -5.1814    0.0000 O   0  0  0  0  0  0  0  0  0  0  0  0
   -5.6654   -5.9316    0.0000 H   0  0  0  0  0  0  0  0  0  0  0  0
   -0.4684   -5.9310    0.0000 C   0  0  0  0  0  0  0  0  0  0  0  0
   -0.4684   -7.4310    0.0000 H   0  0  0  0  0  0  0  0  0  0  0  0
    0.8316   -5.1810    0.0000 C   0  0  0  0  0  0  0  0  0  0  0  0
    2.1316   -5.9310    0.0000 C   0  0  0  0  0  0  0  0  0  0  0  0
    1.1675   -7.0802    0.0000 H   0  0  0  0  0  0  0  0  0  0  0  0
    3.0956   -7.0802    0.0000 H   0  0  0  0  0  0  0  0  0  0  0  0
    3.4316   -5.1810    0.0000 C   0  0  0  0  0  0  0  0  0  0  0  0
    4.7305   -5.9312    0.0000 H   0  0  0  0  0  0  0  0  0  0  0  0
    3.4316   -3.6810    0.0000 C   0  0  0  0  0  0  0  0  0  0  0  0
    4.7316   -2.9310    0.0000 C   0  0  2  0  0  0  0  0  0  0  0  0
    5.7302   -1.8117    0.0000 H   0  0  0  0  0  0  0  0  0  0  0  0
    6.1616   -3.3910    0.0000 C   0  0  0  0  0  0  0  0  0  0  0  0
    5.5539   -4.7624    0.0000 H   0  0  0  0  0  0  0  0  0  0  0  0
    7.4611   -4.1401    0.0000 H   0  0  0  0  0  0  0  0  0  0  0  0
    7.0416   -2.1810    0.0000 C   0  0  0  0  0  0  0  0  0  0  0  0
    8.1561   -3.1849    0.0000 H   0  0  0  0  0  0  0  0  0  0  0  0
    8.1561   -1.1771    0.0000 H   0  0  0  0  0  0  0  0  0  0  0  0
    6.1616   -0.9710    0.0000 C   0  0  1  0  0  0  0  0  0  0  0  0
    7.4611   -0.2218    0.0000 C   0  0  0  0  0  0  0  0  0  0  0  0
    8.7606    0.5273    0.0000 C   0  0  0  0  0  0  0  0  0  0  0  0
   10.0602    1.2764    0.0000 H   0  0  0  0  0  0  0  0  0  0  0  0
    5.4554    1.8830    0.0000 O   0  0  0  0  0  0  0  0  0  0  0  0
    6.5363    2.9230    0.0000 C   0  0  0  0  0  0  0  0  0  0  0  0
    7.9775    2.5070    0.0000 O   0  0  0  0  0  0  0  0  0  0  0  0
    6.1760    4.3791    0.0000 C   0  0  0  0  0  0  0  0  0  0  0  0
    4.7349    4.7951    0.0000 H   0  0  0  0  0  0  0  0  0  0  0  0
    7.6726    4.4810    0.0000 H   0  0  0  0  0  0  0  0  0  0  0  0
    6.3355    5.8706    0.0000 H   0  0  0  0  0  0  0  0  0  0  0  0
  1  2  1  0  0  0  0 
  1  3  1  0  0  0  0 
  1  4  1  0  0  0  0 
  1  5  1  0  0  0  0 
  5  6  1  0  0  0  0 
  5  7  1  0  0  0  0 
  8  5  1  1  0  0  0 
  8  9  1  0  0  0  0 
  9 10  1  0  0  0  0 
  9 11  1  0  0  0  0 
  9 12  1  0  0  0  0 
 12 13  1  0  0  0  0 
 12 14  1  0  0  0  0 
 12 15  1  0  0  0  0 
 15 16  1  6  0  0  0 
 15 17  1  0  0  0  0 
 17 18  1  1  0  0  0 
 17 19  1  0  0  0  0 
 19 20  1  0  0  0  0 
 19 21  1  0  0  0  0 
 19 22  1  0  0  0  0 
 22 23  1  0  0  0  0 
 22 24  1  0  0  0  0 
 22 25  1  0  0  0  0 
 25 26  2  0  0  0  0 
 26 27  1  0  0  0  0 
 27 28  1  0  0  0  0 
 25 29  1  0  0  0  0 
 29 30  1  0  0  0  0 
 29 31  2  0  0  0  0 
 17 31  1  0  0  0  0 
 31 32  1  0  0  0  0 
 32 33  1  0  0  0  0 
 32 34  1  0  0  0  0 
 32 35  1  0  0  0  0 
 35 36  1  0  0  0  0 
 35 37  2  0  0  0  0 
 15 37  1  0  0  0  0 
 37 38  1  0  0  0  0 
  8 38  1  0  0  0  0 
 38 39  1  6  0  0  0 
 38 40  1  0  0  0  0 
 40 41  1  0  0  0  0 
 40 42  1  0  0  0  0 
 40 43  1  0  0  0  0 
 43 44  1  0  0  0  0 
 43 45  1  0  0  0  0 
 43 46  1  0  0  0  0 
  8 46  1  0  0  0  0 
 46 47  1  6  0  0  0 
 47 48  3  0  0  0  0 
 48 49  1  0  0  0  0 
 46 50  1  1  0  0  0 
 50 51  1  0  0  0  0 
 51 52  2  0  0  0  0 
 51 53  1  0  0  0  0 
 53 54  1  0  0  0  0 
 53 55  1  0  0  0  0 
 53 56  1  0  0  0  0 
M  END
> <Rank>
26

> <Priority_score>
0.0072

> <Reaction_type>
alkyl dehydrogenation

> <Parent_ID>
2

> <Parent_InChI>
InChI=1S/C23H31NO3/c1-4-22-12-10-19-18-9-7-17(24-26)14-16(18)6-8-20(19)21(22)11-13-23(22,5-2)27-15(3)25/h2,14,18-21,26H,4,6-13H2,1,3H3

> <Parent_SMILES>
C#C[C@]1(OC(C)=O)CC[C@H]2[C@@H]3CCC4=C/C(=N/O)CC[C@@H]4[C@H]3CC[C@@]21CC

$$$$
Molecule 2_metabolite 27
  CDK     0516241031

 56 59  0  0  0  0  0  0  0  0999 V2000
    1.7497    2.9983    0.0000 C   0  0  0  0  0  0  0  0  0  0  0  0
    0.3786    2.3900    0.0000 H   0  0  0  0  0  0  0  0  0  0  0  0
    2.8301    4.0389    0.0000 H   0  0  0  0  0  0  0  0  0  0  0  0
    0.9125    4.2429    0.0000 H   0  0  0  0  0  0  0  0  0  0  0  0
    4.1260    1.2671    0.0000 C   0  0  0  0  0  0  0  0  0  0  0  0
    4.7853    2.6144    0.0000 H   0  0  0  0  0  0  0  0  0  0  0  0
    5.5673    0.8517    0.0000 H   0  0  0  0  0  0  0  0  0  0  0  0
    3.8148   -1.6564    0.0000 C   0  0  2  0  0  0  0  0  0  0  0  0
    2.5148   -0.9064    0.0000 C   0  0  0  0  0  0  0  0  0  0  0  0
    3.4789    0.2428    0.0000 H   0  0  0  0  0  0  0  0  0  0  0  0
    1.5508    0.2428    0.0000 H   0  0  0  0  0  0  0  0  0  0  0  0
    1.2148   -1.6564    0.0000 C   0  0  0  0  0  0  0  0  0  0  0  0
   -0.0841   -0.9062    0.0000 H   0  0  0  0  0  0  0  0  0  0  0  0
    1.2148   -3.1564    0.0000 C   0  0  0  0  0  0  0  0  0  0  0  0
   -0.0852   -3.9064    0.0000 C   0  0  1  0  0  0  0  0  0  0  0  0
   -1.3837   -4.6572    0.0000 H   0  0  0  0  0  0  0  0  0  0  0  0
   -1.3852   -3.1564    0.0000 C   0  0  0  0  0  0  0  0  0  0  0  0
   -0.4211   -2.0072    0.0000 H   0  0  0  0  0  0  0  0  0  0  0  0
   -2.3492   -2.0072    0.0000 H   0  0  0  0  0  0  0  0  0  0  0  0
   -2.6852   -3.9064    0.0000 C   0  0  0  0  0  0  0  0  0  0  0  0
   -3.1979   -2.4968    0.0000 H   0  0  0  0  0  0  0  0  0  0  0  0
   -4.1624   -4.1667    0.0000 H   0  0  0  0  0  0  0  0  0  0  0  0
   -2.6852   -5.4064    0.0000 C   0  0  0  0  0  0  0  0  0  0  0  0
   -3.9841   -6.1566    0.0000 N   0  0  0  0  0  0  0  0  0  0  0  0
   -5.2833   -5.4068    0.0000 O   0  0  0  0  0  0  0  0  0  0  0  0
   -6.5822   -6.1570    0.0000 H   0  0  0  0  0  0  0  0  0  0  0  0
   -1.3852   -6.1564    0.0000 C   0  0  0  0  0  0  0  0  0  0  0  0
   -1.3852   -7.6564    0.0000 H   0  0  0  0  0  0  0  0  0  0  0  0
   -0.0852   -5.4064    0.0000 C   0  0  0  0  0  0  0  0  0  0  0  0
    1.2148   -6.1564    0.0000 C   0  0  0  0  0  0  0  0  0  0  0  0
    0.2508   -7.3056    0.0000 H   0  0  0  0  0  0  0  0  0  0  0  0
    2.1789   -7.3056    0.0000 H   0  0  0  0  0  0  0  0  0  0  0  0
    2.5148   -5.4064    0.0000 C   0  0  0  0  0  0  0  0  0  0  0  0
    3.0275   -6.8161    0.0000 H   0  0  0  0  0  0  0  0  0  0  0  0
    1.0376   -5.1461    0.0000 H   0  0  0  0  0  0  0  0  0  0  0  0
    2.5148   -3.9064    0.0000 C   0  0  1  0  0  0  0  0  0  0  0  0
    3.8137   -4.6566    0.0000 H   0  0  0  0  0  0  0  0  0  0  0  0
    3.8148   -3.1564    0.0000 C   0  0  2  0  0  0  0  0  0  0  0  0
    4.8134   -2.0371    0.0000 H   0  0  0  0  0  0  0  0  0  0  0  0
    5.2448   -3.6164    0.0000 C   0  0  0  0  0  0  0  0  0  0  0  0
    4.6372   -4.9878    0.0000 H   0  0  0  0  0  0  0  0  0  0  0  0
    6.5444   -4.3655    0.0000 H   0  0  0  0  0  0  0  0  0  0  0  0
    6.1248   -2.4064    0.0000 C   0  0  0  0  0  0  0  0  0  0  0  0
    7.2394   -3.4103    0.0000 H   0  0  0  0  0  0  0  0  0  0  0  0
    7.2394   -1.4025    0.0000 H   0  0  0  0  0  0  0  0  0  0  0  0
    5.2448   -1.1964    0.0000 C   0  0  1  0  0  0  0  0  0  0  0  0
    6.5444   -0.4473    0.0000 C   0  0  0  0  0  0  0  0  0  0  0  0
    7.8439    0.3019    0.0000 C   0  0  0  0  0  0  0  0  0  0  0  0
    9.1434    1.0510    0.0000 H   0  0  0  0  0  0  0  0  0  0  0  0
    5.5574    1.7269    0.0000 O   0  0  0  0  0  0  0  0  0  0  0  0
    6.9288    2.3346    0.0000 C   0  0  0  0  0  0  0  0  0  0  0  0
    8.1407    1.4507    0.0000 O   0  0  0  0  0  0  0  0  0  0  0  0
    7.0883    3.8261    0.0000 C   0  0  0  0  0  0  0  0  0  0  0  0
    5.8763    4.7099    0.0000 H   0  0  0  0  0  0  0  0  0  0  0  0
    8.5294    3.4100    0.0000 H   0  0  0  0  0  0  0  0  0  0  0  0
    7.7483    5.1731    0.0000 H   0  0  0  0  0  0  0  0  0  0  0  0
  1  2  1  0  0  0  0 
  1  3  1  0  0  0  0 
  1  4  1  0  0  0  0 
  1  5  1  0  0  0  0 
  5  6  1  0  0  0  0 
  5  7  1  0  0  0  0 
  8  5  1  1  0  0  0 
  8  9  1  0  0  0  0 
  9 10  1  0  0  0  0 
  9 11  1  0  0  0  0 
  9 12  1  0  0  0  0 
 12 13  1  0  0  0  0 
 12 14  2  0  0  0  0 
 14 15  1  0  0  0  0 
 15 16  1  1  0  0  0 
 15 17  1  0  0  0  0 
 17 18  1  0  0  0  0 
 17 19  1  0  0  0  0 
 17 20  1  0  0  0  0 
 20 21  1  0  0  0  0 
 20 22  1  0  0  0  0 
 20 23  1  0  0  0  0 
 23 24  2  0  0  0  0 
 24 25  1  0  0  0  0 
 25 26  1  0  0  0  0 
 23 27  1  0  0  0  0 
 27 28  1  0  0  0  0 
 27 29  2  0  0  0  0 
 15 29  1  0  0  0  0 
 29 30  1  0  0  0  0 
 30 31  1  0  0  0  0 
 30 32  1  0  0  0  0 
 30 33  1  0  0  0  0 
 33 34  1  0  0  0  0 
 33 35  1  0  0  0  0 
 33 36  1  0  0  0  0 
 14 36  1  0  0  0  0 
 36 37  1  1  0  0  0 
 36 38  1  0  0  0  0 
  8 38  1  0  0  0  0 
 38 39  1  6  0  0  0 
 38 40  1  0  0  0  0 
 40 41  1  0  0  0  0 
 40 42  1  0  0  0  0 
 40 43  1  0  0  0  0 
 43 44  1  0  0  0  0 
 43 45  1  0  0  0  0 
 43 46  1  0  0  0  0 
  8 46  1  0  0  0  0 
 46 47  1  6  0  0  0 
 47 48  3  0  0  0  0 
 48 49  1  0  0  0  0 
 46 50  1  1  0  0  0 
 50 51  1  0  0  0  0 
 51 52  2  0  0  0  0 
 51 53  1  0  0  0  0 
 53 54  1  0  0  0  0 
 53 55  1  0  0  0  0 
 53 56  1  0  0  0  0 
M  END
> <Rank>
27

> <Priority_score>
0.0024000000000000002

> <Reaction_type>
alkyl dehydrogenation

> <Parent_ID>
2

> <Parent_InChI>
InChI=1S/C23H31NO3/c1-4-22-12-10-19-18-9-7-17(24-26)14-16(18)6-8-20(19)21(22)11-13-23(22,5-2)27-15(3)25/h2,14,18-21,26H,4,6-13H2,1,3H3

> <Parent_SMILES>
C#C[C@]1(OC(C)=O)CC[C@H]2[C@@H]3CCC4=C/C(=N/O)CC[C@@H]4[C@H]3CC[C@@]21CC

$$$$
Molecule 2_metabolite 28
  CDK     0516241031

 56 59  0  0  0  0  0  0  0  0999 V2000
    3.4763    2.3803    0.0000 C   0  0  0  0  0  0  0  0  0  0  0  0
    3.6350    3.8719    0.0000 H   0  0  0  0  0  0  0  0  0  0  0  0
    2.8170    1.0330    0.0000 H   0  0  0  0  0  0  0  0  0  0  0  0
    2.0350    2.7957    0.0000 H   0  0  0  0  0  0  0  0  0  0  0  0
    5.8526    0.6491    0.0000 C   0  0  0  0  0  0  0  0  0  0  0  0
    6.5119    1.9965    0.0000 H   0  0  0  0  0  0  0  0  0  0  0  0
    7.2939    0.2338    0.0000 H   0  0  0  0  0  0  0  0  0  0  0  0
    5.5414   -2.2743    0.0000 C   0  0  2  0  0  0  0  0  0  0  0  0
    4.2414   -1.5243    0.0000 C   0  0  0  0  0  0  0  0  0  0  0  0
    5.2055   -0.3752    0.0000 H   0  0  0  0  0  0  0  0  0  0  0  0
    2.9689   -0.0074    0.0000 H   0  0  0  0  0  0  0  0  0  0  0  0
    2.9414   -2.2743    0.0000 C   0  0  0  0  0  0  0  0  0  0  0  0
    2.4287   -0.8647    0.0000 H   0  0  0  0  0  0  0  0  0  0  0  0
    0.0461   -1.7635    0.0000 H   0  0  0  0  0  0  0  0  0  0  0  0
    2.9414   -3.7743    0.0000 C   0  0  2  0  0  0  0  0  0  0  0  0
    2.9407   -5.2743    0.0000 H   0  0  0  0  0  0  0  0  0  0  0  0
    1.6414   -4.5243    0.0000 C   0  0  1  0  0  0  0  0  0  0  0  0
    0.3429   -5.2752    0.0000 H   0  0  0  0  0  0  0  0  0  0  0  0
    0.3414   -3.7743    0.0000 C   0  0  0  0  0  0  0  0  0  0  0  0
    1.3055   -2.6252    0.0000 H   0  0  0  0  0  0  0  0  0  0  0  0
   -0.6226   -2.6252    0.0000 H   0  0  0  0  0  0  0  0  0  0  0  0
   -0.9586   -4.5243    0.0000 C   0  0  0  0  0  0  0  0  0  0  0  0
   -1.4713   -3.1147    0.0000 H   0  0  0  0  0  0  0  0  0  0  0  0
   -2.4358   -4.7847    0.0000 H   0  0  0  0  0  0  0  0  0  0  0  0
   -0.9586   -6.0243    0.0000 C   0  0  0  0  0  0  0  0  0  0  0  0
   -2.2575   -6.7745    0.0000 N   0  0  0  0  0  0  0  0  0  0  0  0
   -3.5567   -6.0248    0.0000 O   0  0  0  0  0  0  0  0  0  0  0  0
   -4.8556   -6.7750    0.0000 H   0  0  0  0  0  0  0  0  0  0  0  0
    0.3414   -6.7743    0.0000 C   0  0  0  0  0  0  0  0  0  0  0  0
    0.3414   -8.2743    0.0000 H   0  0  0  0  0  0  0  0  0  0  0  0
    1.6414   -6.0243    0.0000 C   0  0  0  0  0  0  0  0  0  0  0  0
    2.9414   -6.7743    0.0000 C   0  0  0  0  0  0  0  0  0  0  0  0
    1.9774   -7.9235    0.0000 H   0  0  0  0  0  0  0  0  0  0  0  0
    3.9055   -7.9235    0.0000 H   0  0  0  0  0  0  0  0  0  0  0  0
    4.2414   -6.0243    0.0000 C   0  0  0  0  0  0  0  0  0  0  0  0
    4.7541   -7.4340    0.0000 H   0  0  0  0  0  0  0  0  0  0  0  0
    2.7642   -5.7640    0.0000 H   0  0  0  0  0  0  0  0  0  0  0  0
    4.2414   -4.5243    0.0000 C   0  0  1  0  0  0  0  0  0  0  0  0
    5.5403   -5.2745    0.0000 H   0  0  0  0  0  0  0  0  0  0  0  0
    5.5414   -3.7743    0.0000 C   0  0  0  0  0  0  0  0  0  0  0  0
    6.9714   -4.2343    0.0000 C   0  0  0  0  0  0  0  0  0  0  0  0
    7.4367   -5.6604    0.0000 H   0  0  0  0  0  0  0  0  0  0  0  0
    7.8514   -3.0243    0.0000 C   0  0  0  0  0  0  0  0  0  0  0  0
    8.9660   -4.0282    0.0000 H   0  0  0  0  0  0  0  0  0  0  0  0
    8.9660   -2.0205    0.0000 H   0  0  0  0  0  0  0  0  0  0  0  0
    6.9714   -1.8143    0.0000 C   0  0  1  0  0  0  0  0  0  0  0  0
    8.2709   -1.0652    0.0000 C   0  0  0  0  0  0  0  0  0  0  0  0
    9.5705   -0.3161    0.0000 C   0  0  0  0  0  0  0  0  0  0  0  0
   10.8700    0.4331    0.0000 H   0  0  0  0  0  0  0  0  0  0  0  0
    7.2840    1.1090    0.0000 O   0  0  0  0  0  0  0  0  0  0  0  0
    8.6554    1.7166    0.0000 C   0  0  0  0  0  0  0  0  0  0  0  0
    9.8673    0.8328    0.0000 O   0  0  0  0  0  0  0  0  0  0  0  0
    8.8149    3.2081    0.0000 C   0  0  0  0  0  0  0  0  0  0  0  0
    7.6029    4.0920    0.0000 H   0  0  0  0  0  0  0  0  0  0  0  0
   10.2560    2.7921    0.0000 H   0  0  0  0  0  0  0  0  0  0  0  0
    9.4748    4.5551    0.0000 H   0  0  0  0  0  0  0  0  0  0  0  0
  1  2  1  0  0  0  0 
  1  3  1  0  0  0  0 
  1  4  1  0  0  0  0 
  1  5  1  0  0  0  0 
  5  6  1  0  0  0  0 
  5  7  1  0  0  0  0 
  5  8  1  0  0  0  0 
  8  9  1  0  0  0  0 
  9 10  1  0  0  0  0 
  9 11  1  0  0  0  0 
  9 12  1  0  0  0  0 
 12 13  1  0  0  0  0 
 12 14  1  0  0  0  0 
 12 15  1  0  0  0  0 
 15 16  1  6  0  0  0 
 15 17  1  0  0  0  0 
 17 18  1  1  0  0  0 
 17 19  1  0  0  0  0 
 19 20  1  0  0  0  0 
 19 21  1  0  0  0  0 
 19 22  1  0  0  0  0 
 22 23  1  0  0  0  0 
 22 24  1  0  0  0  0 
 22 25  1  0  0  0  0 
 25 26  2  0  0  0  0 
 26 27  1  0  0  0  0 
 27 28  1  0  0  0  0 
 25 29  1  0  0  0  0 
 29 30  1  0  0  0  0 
 29 31  2  0  0  0  0 
 17 31  1  0  0  0  0 
 31 32  1  0  0  0  0 
 32 33  1  0  0  0  0 
 32 34  1  0  0  0  0 
 32 35  1  0  0  0  0 
 35 36  1  0  0  0  0 
 35 37  1  0  0  0  0 
 35 38  1  0  0  0  0 
 15 38  1  0  0  0  0 
 38 39  1  1  0  0  0 
 38 40  1  0  0  0  0 
  8 40  1  1  0  0  0 
 40 41  2  0  0  0  0 
 41 42  1  0  0  0  0 
 41 43  1  0  0  0  0 
 43 44  1  0  0  0  0 
 43 45  1  0  0  0  0 
 43 46  1  0  0  0  0 
  8 46  1  0  0  0  0 
 46 47  1  6  0  0  0 
 47 48  3  0  0  0  0 
 48 49  1  0  0  0  0 
 46 50  1  1  0  0  0 
 50 51  1  0  0  0  0 
 51 52  2  0  0  0  0 
 51 53  1  0  0  0  0 
 53 54  1  0  0  0  0 
 53 55  1  0  0  0  0 
 53 56  1  0  0  0  0 
M  END
> <Rank>
27

> <Priority_score>
0.0024000000000000002

> <Reaction_type>
alkyl dehydrogenation

> <Parent_ID>
2

> <Parent_InChI>
InChI=1S/C23H31NO3/c1-4-22-12-10-19-18-9-7-17(24-26)14-16(18)6-8-20(19)21(22)11-13-23(22,5-2)27-15(3)25/h2,14,18-21,26H,4,6-13H2,1,3H3

> <Parent_SMILES>
C#C[C@]1(OC(C)=O)CC[C@H]2[C@@H]3CCC4=C/C(=N/O)CC[C@@H]4[C@H]3CC[C@@]21CC

$$$$
Molecule 2_metabolite 29
  CDK     0516241031

 56 59  0  0  0  0  0  0  0  0999 V2000
    2.0582    2.6305    0.0000 C   0  0  0  0  0  0  0  0  0  0  0  0
    0.6871    2.0222    0.0000 H   0  0  0  0  0  0  0  0  0  0  0  0
    3.1386    3.6711    0.0000 H   0  0  0  0  0  0  0  0  0  0  0  0
    1.2210    3.8752    0.0000 H   0  0  0  0  0  0  0  0  0  0  0  0
    4.0465    1.1820    0.0000 C   0  0  0  0  0  0  0  0  0  0  0  0
    5.2911    2.0192    0.0000 H   0  0  0  0  0  0  0  0  0  0  0  0
    5.4878    0.7667    0.0000 H   0  0  0  0  0  0  0  0  0  0  0  0
    3.7862   -1.2642    0.0000 C   0  0  2  0  0  0  0  0  0  0  0  0
    2.4862   -0.5142    0.0000 C   0  0  0  0  0  0  0  0  0  0  0  0
    3.4502    0.6350    0.0000 H   0  0  0  0  0  0  0  0  0  0  0  0
    1.2136    1.0027    0.0000 H   0  0  0  0  0  0  0  0  0  0  0  0
    1.1862   -1.2642    0.0000 C   0  0  0  0  0  0  0  0  0  0  0  0
    0.6734    0.1455    0.0000 H   0  0  0  0  0  0  0  0  0  0  0  0
   -0.2910   -1.0036    0.0000 H   0  0  0  0  0  0  0  0  0  0  0  0
    1.1862   -2.7642    0.0000 C   0  0  0  0  0  0  0  0  0  0  0  0
    2.4862   -3.5142    0.0000 C   0  0  0  0  0  0  0  0  0  0  0  0
    2.4862   -5.0142    0.0000 C   0  0  0  0  0  0  0  0  0  0  0  0
    2.9989   -6.4238    0.0000 H   0  0  0  0  0  0  0  0  0  0  0  0
    3.9634   -4.7539    0.0000 H   0  0  0  0  0  0  0  0  0  0  0  0
    1.1862   -5.7642    0.0000 C   0  0  0  0  0  0  0  0  0  0  0  0
    0.2221   -6.9134    0.0000 H   0  0  0  0  0  0  0  0  0  0  0  0
    2.1502   -6.9134    0.0000 H   0  0  0  0  0  0  0  0  0  0  0  0
   -0.1138   -5.0142    0.0000 C   0  0  0  0  0  0  0  0  0  0  0  0
   -1.4138   -5.7642    0.0000 C   0  0  0  0  0  0  0  0  0  0  0  0
   -1.4138   -7.2642    0.0000 H   0  0  0  0  0  0  0  0  0  0  0  0
   -2.7138   -5.0142    0.0000 C   0  0  0  0  0  0  0  0  0  0  0  0
   -4.0128   -5.7644    0.0000 N   0  0  0  0  0  0  0  0  0  0  0  0
   -5.3119   -5.0146    0.0000 O   0  0  0  0  0  0  0  0  0  0  0  0
   -6.6108   -5.7648    0.0000 H   0  0  0  0  0  0  0  0  0  0  0  0
   -2.7138   -3.5142    0.0000 C   0  0  0  0  0  0  0  0  0  0  0  0
   -3.2266   -2.1045    0.0000 H   0  0  0  0  0  0  0  0  0  0  0  0
   -4.1911   -3.7745    0.0000 H   0  0  0  0  0  0  0  0  0  0  0  0
   -1.4138   -2.7642    0.0000 C   0  0  0  0  0  0  0  0  0  0  0  0
   -1.9261   -4.1740    0.0000 H   0  0  0  0  0  0  0  0  0  0  0  0
   -2.3779   -1.6150    0.0000 H   0  0  0  0  0  0  0  0  0  0  0  0
   -0.1138   -3.5142    0.0000 C   0  0  2  0  0  0  0  0  0  0  0  0
   -0.1138   -2.0142    0.0000 H   0  0  0  0  0  0  0  0  0  0  0  0
    3.7862   -2.7642    0.0000 C   0  0  2  0  0  0  0  0  0  0  0  0
    4.7848   -1.6449    0.0000 H   0  0  0  0  0  0  0  0  0  0  0  0
    5.2162   -3.2242    0.0000 C   0  0  0  0  0  0  0  0  0  0  0  0
    4.6085   -4.5956    0.0000 H   0  0  0  0  0  0  0  0  0  0  0  0
    6.5157   -3.9733    0.0000 H   0  0  0  0  0  0  0  0  0  0  0  0
    6.0962   -2.0142    0.0000 C   0  0  0  0  0  0  0  0  0  0  0  0
    7.2107   -3.0181    0.0000 H   0  0  0  0  0  0  0  0  0  0  0  0
    7.2107   -1.0103    0.0000 H   0  0  0  0  0  0  0  0  0  0  0  0
    5.2162   -0.8042    0.0000 C   0  0  1  0  0  0  0  0  0  0  0  0
    6.5157   -0.0550    0.0000 C   0  0  0  0  0  0  0  0  0  0  0  0
    7.8152    0.6941    0.0000 C   0  0  0  0  0  0  0  0  0  0  0  0
    9.1148    1.4432    0.0000 H   0  0  0  0  0  0  0  0  0  0  0  0
    4.5100    2.0498    0.0000 O   0  0  0  0  0  0  0  0  0  0  0  0
    5.5909    3.0898    0.0000 C   0  0  0  0  0  0  0  0  0  0  0  0
    7.0321    2.6738    0.0000 O   0  0  0  0  0  0  0  0  0  0  0  0
    5.2306    4.5459    0.0000 C   0  0  0  0  0  0  0  0  0  0  0  0
    3.7895    4.9619    0.0000 H   0  0  0  0  0  0  0  0  0  0  0  0
    6.7272    4.6478    0.0000 H   0  0  0  0  0  0  0  0  0  0  0  0
    5.3901    6.0374    0.0000 H   0  0  0  0  0  0  0  0  0  0  0  0
  1  2  1  0  0  0  0 
  1  3  1  0  0  0  0 
  1  4  1  0  0  0  0 
  1  5  1  0  0  0  0 
  5  6  1  0  0  0  0 
  5  7  1  0  0  0  0 
  8  5  1  1  0  0  0 
  8  9  1  0  0  0  0 
  9 10  1  0  0  0  0 
  9 11  1  0  0  0  0 
  9 12  1  0  0  0  0 
 12 13  1  0  0  0  0 
 12 14  1  0  0  0  0 
 12 15  1  0  0  0  0 
 15 16  2  0  0  0  0 
 16 17  1  0  0  0  0 
 17 18  1  0  0  0  0 
 17 19  1  0  0  0  0 
 17 20  1  0  0  0  0 
 20 21  1  0  0  0  0 
 20 22  1  0  0  0  0 
 20 23  1  0  0  0  0 
 23 24  2  0  0  0  0 
 24 25  1  0  0  0  0 
 24 26  1  0  0  0  0 
 26 27  2  0  0  0  0 
 27 28  1  0  0  0  0 
 28 29  1  0  0  0  0 
 26 30  1  0  0  0  0 
 30 31  1  0  0  0  0 
 30 32  1  0  0  0  0 
 30 33  1  0  0  0  0 
 33 34  1  0  0  0  0 
 33 35  1  0  0  0  0 
 33 36  1  0  0  0  0 
 23 36  1  0  0  0  0 
 15 36  1  0  0  0  0 
 36 37  1  1  0  0  0 
 16 38  1  0  0  0  0 
  8 38  1  0  0  0  0 
 38 39  1  6  0  0  0 
 38 40  1  0  0  0  0 
 40 41  1  0  0  0  0 
 40 42  1  0  0  0  0 
 40 43  1  0  0  0  0 
 43 44  1  0  0  0  0 
 43 45  1  0  0  0  0 
 43 46  1  0  0  0  0 
  8 46  1  0  0  0  0 
 46 47  1  6  0  0  0 
 47 48  3  0  0  0  0 
 48 49  1  0  0  0  0 
 46 50  1  1  0  0  0 
 50 51  1  0  0  0  0 
 51 52  2  0  0  0  0 
 51 53  1  0  0  0  0 
 53 54  1  0  0  0  0 
 53 55  1  0  0  0  0 
 53 56  1  0  0  0  0 
M  END
> <Rank>
27

> <Priority_score>
0.0024000000000000002

> <Reaction_type>
alkyl dehydrogenation

> <Parent_ID>
2

> <Parent_InChI>
InChI=1S/C23H31NO3/c1-4-22-12-10-19-18-9-7-17(24-26)14-16(18)6-8-20(19)21(22)11-13-23(22,5-2)27-15(3)25/h2,14,18-21,26H,4,6-13H2,1,3H3

> <Parent_SMILES>
C#C[C@]1(OC(C)=O)CC[C@H]2[C@@H]3CCC4=C/C(=N/O)CC[C@@H]4[C@H]3CC[C@@]21CC

$$$$
Molecule 2_metabolite 30
  CDK     0516241031

 56 59  0  0  0  0  0  0  0  0999 V2000
    3.2723   -0.9328    0.0000 C   0  0  0  0  0  0  0  0  0  0  0  0
    1.9012   -1.5411    0.0000 H   0  0  0  0  0  0  0  0  0  0  0  0
    5.3899    1.1067    0.0000 H   0  0  0  0  0  0  0  0  0  0  0  0
    2.4352    0.3118    0.0000 H   0  0  0  0  0  0  0  0  0  0  0  0
    4.4847   -1.8161    0.0000 C   0  0  0  0  0  0  0  0  0  0  0  0
    5.1440   -0.4688    0.0000 H   0  0  0  0  0  0  0  0  0  0  0  0
    6.8485   -2.4973    0.0000 H   0  0  0  0  0  0  0  0  0  0  0  0
    4.1736   -4.7396    0.0000 C   0  0  2  0  0  0  0  0  0  0  0  0
    2.8736   -3.9896    0.0000 C   0  0  0  0  0  0  0  0  0  0  0  0
    2.8736   -2.4896    0.0000 H   0  0  0  0  0  0  0  0  0  0  0  0
    1.5736   -4.7396    0.0000 C   0  0  0  0  0  0  0  0  0  0  0  0
    0.2747   -3.9894    0.0000 H   0  0  0  0  0  0  0  0  0  0  0  0
    1.5736   -6.2396    0.0000 C   0  0  2  0  0  0  0  0  0  0  0  0
   -0.9723   -4.7692    0.0000 H   0  0  0  0  0  0  0  0  0  0  0  0
    0.2736   -6.9896    0.0000 C   0  0  1  0  0  0  0  0  0  0  0  0
   -1.0250   -7.7404    0.0000 H   0  0  0  0  0  0  0  0  0  0  0  0
   -1.0264   -6.2396    0.0000 C   0  0  0  0  0  0  0  0  0  0  0  0
   -0.0624   -5.0904    0.0000 H   0  0  0  0  0  0  0  0  0  0  0  0
   -1.9905   -5.0904    0.0000 H   0  0  0  0  0  0  0  0  0  0  0  0
   -2.3264   -6.9896    0.0000 C   0  0  0  0  0  0  0  0  0  0  0  0
   -2.8392   -5.5799    0.0000 H   0  0  0  0  0  0  0  0  0  0  0  0
   -3.8037   -7.2499    0.0000 H   0  0  0  0  0  0  0  0  0  0  0  0
   -2.3264   -8.4896    0.0000 C   0  0  0  0  0  0  0  0  0  0  0  0
   -3.6253   -9.2398    0.0000 N   0  0  0  0  0  0  0  0  0  0  0  0
   -4.9245   -8.4900    0.0000 O   0  0  0  0  0  0  0  0  0  0  0  0
   -6.2234   -9.2402    0.0000 H   0  0  0  0  0  0  0  0  0  0  0  0
   -1.0264   -9.2396    0.0000 C   0  0  0  0  0  0  0  0  0  0  0  0
   -1.0264  -10.7396    0.0000 H   0  0  0  0  0  0  0  0  0  0  0  0
    0.2736   -8.4896    0.0000 C   0  0  0  0  0  0  0  0  0  0  0  0
    1.5736   -9.2396    0.0000 C   0  0  0  0  0  0  0  0  0  0  0  0
    0.6095  -10.3888    0.0000 H   0  0  0  0  0  0  0  0  0  0  0  0
    2.5376  -10.3888    0.0000 H   0  0  0  0  0  0  0  0  0  0  0  0
    2.8736   -8.4896    0.0000 C   0  0  0  0  0  0  0  0  0  0  0  0
    3.3863   -9.8992    0.0000 H   0  0  0  0  0  0  0  0  0  0  0  0
    1.3963   -8.2293    0.0000 H   0  0  0  0  0  0  0  0  0  0  0  0
    2.8736   -6.9896    0.0000 C   0  0  1  0  0  0  0  0  0  0  0  0
    4.1725   -7.7398    0.0000 H   0  0  0  0  0  0  0  0  0  0  0  0
    4.1736   -6.2396    0.0000 C   0  0  2  0  0  0  0  0  0  0  0  0
    5.1722   -5.1203    0.0000 H   0  0  0  0  0  0  0  0  0  0  0  0
    5.6036   -6.6996    0.0000 C   0  0  0  0  0  0  0  0  0  0  0  0
    4.9959   -8.0710    0.0000 H   0  0  0  0  0  0  0  0  0  0  0  0
    6.9031   -7.4487    0.0000 H   0  0  0  0  0  0  0  0  0  0  0  0
    6.4836   -5.4896    0.0000 C   0  0  0  0  0  0  0  0  0  0  0  0
    7.5981   -6.4935    0.0000 H   0  0  0  0  0  0  0  0  0  0  0  0
    7.5981   -4.4857    0.0000 H   0  0  0  0  0  0  0  0  0  0  0  0
    5.6036   -4.2796    0.0000 C   0  0  1  0  0  0  0  0  0  0  0  0
    7.7348   -3.0510    0.0000 C   0  0  0  0  0  0  0  0  0  0  0  0
    9.0343   -2.3018    0.0000 C   0  0  0  0  0  0  0  0  0  0  0  0
   10.3339   -1.5527    0.0000 H   0  0  0  0  0  0  0  0  0  0  0  0
    4.8015   -2.4693    0.0000 O   0  0  0  0  0  0  0  0  0  0  0  0
    6.5338   -0.0939    0.0000 C   0  0  0  0  0  0  0  0  0  0  0  0
    8.0253   -0.2534    0.0000 O   0  0  0  0  0  0  0  0  0  0  0  0
    5.3429    2.5940    0.0000 C   0  0  0  0  0  0  0  0  0  0  0  0
    3.8514    2.7535    0.0000 H   0  0  0  0  0  0  0  0  0  0  0  0
    6.7990    2.9543    0.0000 H   0  0  0  0  0  0  0  0  0  0  0  0
    5.2409    4.0906    0.0000 H   0  0  0  0  0  0  0  0  0  0  0  0
  1  2  1  0  0  0  0 
  1  3  1  0  0  0  0 
  1  4  1  0  0  0  0 
  1  5  1  0  0  0  0 
  5  6  1  0  0  0  0 
  5  7  1  0  0  0  0 
  5  8  1  0  0  0  0 
  8  9  1  6  0  0  0 
  9 10  1  0  0  0  0 
  9 11  2  0  0  0  0 
 11 12  1  0  0  0  0 
 11 13  1  0  0  0  0 
 13 14  1  6  0  0  0 
 13 15  1  0  0  0  0 
 15 16  1  1  0  0  0 
 15 17  1  0  0  0  0 
 17 18  1  0  0  0  0 
 17 19  1  0  0  0  0 
 17 20  1  0  0  0  0 
 20 21  1  0  0  0  0 
 20 22  1  0  0  0  0 
 20 23  1  0  0  0  0 
 23 24  2  0  0  0  0 
 24 25  1  0  0  0  0 
 25 26  1  0  0  0  0 
 23 27  1  0  0  0  0 
 27 28  1  0  0  0  0 
 27 29  2  0  0  0  0 
 15 29  1  0  0  0  0 
 29 30  1  0  0  0  0 
 30 31  1  0  0  0  0 
 30 32  1  0  0  0  0 
 30 33  1  0  0  0  0 
 33 34  1  0  0  0  0 
 33 35  1  0  0  0  0 
 33 36  1  0  0  0  0 
 13 36  1  0  0  0  0 
 36 37  1  1  0  0  0 
 36 38  1  0  0  0  0 
  8 38  1  0  0  0  0 
 38 39  1  6  0  0  0 
 38 40  1  0  0  0  0 
 40 41  1  0  0  0  0 
 40 42  1  0  0  0  0 
 40 43  1  0  0  0  0 
 43 44  1  0  0  0  0 
 43 45  1  0  0  0  0 
 43 46  1  0  0  0  0 
  8 46  1  0  0  0  0 
 46 47  1  6  0  0  0 
 47 48  3  0  0  0  0 
 48 49  1  0  0  0  0 
 46 50  1  1  0  0  0 
 50 51  1  0  0  0  0 
 51 52  2  0  0  0  0 
 51 53  1  0  0  0  0 
 53 54  1  0  0  0  0 
 53 55  1  0  0  0  0 
 53 56  1  0  0  0  0 
M  END
> <Rank>
30

> <Priority_score>
0.0

> <Reaction_type>
alkyl dehydrogenation

> <Parent_ID>
2

> <Parent_InChI>
InChI=1S/C23H31NO3/c1-4-22-12-10-19-18-9-7-17(24-26)14-16(18)6-8-20(19)21(22)11-13-23(22,5-2)27-15(3)25/h2,14,18-21,26H,4,6-13H2,1,3H3

> <Parent_SMILES>
C#C[C@]1(OC(C)=O)CC[C@H]2[C@@H]3CCC4=C/C(=N/O)CC[C@@H]4[C@H]3CC[C@@]21CC

$$$$
Molecule 2_metabolite 31
  CDK     0516241031

 59 62  0  0  0  0  0  0  0  0999 V2000
    3.3121    2.0960    0.0000 C   0  0  0  0  0  0  0  0  0  0  0  0
    3.4708    3.5876    0.0000 H   0  0  0  0  0  0  0  0  0  0  0  0
    2.6528    0.7487    0.0000 H   0  0  0  0  0  0  0  0  0  0  0  0
    1.8708    2.5114    0.0000 H   0  0  0  0  0  0  0  0  0  0  0  0
    4.9124    0.9301    0.0000 C   0  0  0  0  0  0  0  0  0  0  0  0
    5.5718    2.2774    0.0000 H   0  0  0  0  0  0  0  0  0  0  0  0
    6.3538    0.5148    0.0000 H   0  0  0  0  0  0  0  0  0  0  0  0
    4.6013   -1.9934    0.0000 C   0  0  2  0  0  0  0  0  0  0  0  0
    3.3013   -1.2434    0.0000 C   0  0  0  0  0  0  0  0  0  0  0  0
    4.2654   -0.0942    0.0000 H   0  0  0  0  0  0  0  0  0  0  0  0
    1.7202    0.6413    0.0000 H   0  0  0  0  0  0  0  0  0  0  0  0
    2.0013   -1.9934    0.0000 C   0  0  0  0  0  0  0  0  0  0  0  0
    1.4886   -0.5837    0.0000 H   0  0  0  0  0  0  0  0  0  0  0  0
    2.0013   -3.4934    0.0000 C   0  0  2  0  0  0  0  0  0  0  0  0
    2.0006   -4.9934    0.0000 H   0  0  0  0  0  0  0  0  0  0  0  0
    0.7013   -4.2434    0.0000 C   0  0  1  0  0  0  0  0  0  0  0  0
   -0.5973   -4.9942    0.0000 H   0  0  0  0  0  0  0  0  0  0  0  0
   -0.5987   -3.4934    0.0000 C   0  0  0  0  0  0  0  0  0  0  0  0
    0.3654   -2.3442    0.0000 H   0  0  0  0  0  0  0  0  0  0  0  0
   -1.5628   -2.3442    0.0000 H   0  0  0  0  0  0  0  0  0  0  0  0
   -1.8987   -4.2434    0.0000 C   0  0  0  0  0  0  0  0  0  0  0  0
   -2.4114   -2.8337    0.0000 H   0  0  0  0  0  0  0  0  0  0  0  0
   -3.3759   -4.5037    0.0000 H   0  0  0  0  0  0  0  0  0  0  0  0
   -1.8987   -5.7434    0.0000 C   0  0  0  0  0  0  0  0  0  0  0  0
   -3.1976   -6.4936    0.0000 N   0  0  0  0  0  0  0  0  0  0  0  0
   -4.4968   -5.7438    0.0000 O   0  0  0  0  0  0  0  0  0  0  0  0
   -5.7957   -6.4940    0.0000 H   0  0  0  0  0  0  0  0  0  0  0  0
   -0.5987   -6.4934    0.0000 C   0  0  0  0  0  0  0  0  0  0  0  0
   -0.5987   -7.9934    0.0000 H   0  0  0  0  0  0  0  0  0  0  0  0
    0.7013   -5.7434    0.0000 C   0  0  0  0  0  0  0  0  0  0  0  0
    2.0013   -6.4934    0.0000 C   0  0  0  0  0  0  0  0  0  0  0  0
    1.0372   -7.6426    0.0000 H   0  0  0  0  0  0  0  0  0  0  0  0
    2.9654   -7.6426    0.0000 H   0  0  0  0  0  0  0  0  0  0  0  0
    3.3013   -5.7434    0.0000 C   0  0  0  0  0  0  0  0  0  0  0  0
    3.8140   -7.1530    0.0000 H   0  0  0  0  0  0  0  0  0  0  0  0
    1.8241   -5.4831    0.0000 H   0  0  0  0  0  0  0  0  0  0  0  0
    3.3013   -4.2434    0.0000 C   0  0  1  0  0  0  0  0  0  0  0  0
    4.6002   -4.9936    0.0000 H   0  0  0  0  0  0  0  0  0  0  0  0
    4.6013   -3.4934    0.0000 C   0  0  2  0  0  0  0  0  0  0  0  0
    5.5999   -2.3741    0.0000 H   0  0  0  0  0  0  0  0  0  0  0  0
    6.0313   -3.9534    0.0000 C   0  0  0  0  0  0  0  0  0  0  0  0
    5.4237   -5.3248    0.0000 H   0  0  0  0  0  0  0  0  0  0  0  0
    7.3308   -4.7025    0.0000 H   0  0  0  0  0  0  0  0  0  0  0  0
    6.9113   -2.7434    0.0000 C   0  0  0  0  0  0  0  0  0  0  0  0
    8.0259   -3.7473    0.0000 H   0  0  0  0  0  0  0  0  0  0  0  0
    8.0259   -1.7395    0.0000 H   0  0  0  0  0  0  0  0  0  0  0  0
    6.0313   -1.5334    0.0000 C   0  0  1  0  0  0  0  0  0  0  0  0
    7.3308   -0.7842    0.0000 C   0  0  0  0  0  0  0  0  0  0  0  0
    8.6304   -0.0351    0.0000 C   0  0  0  0  0  0  0  0  0  0  0  0
    9.9299    0.7140    0.0000 H   0  0  0  0  0  0  0  0  0  0  0  0
    5.8315    1.3998    0.0000 O   0  0  0  0  0  0  0  0  0  0  0  0
    7.0765    2.2364    0.0000 C   0  0  0  0  0  0  0  0  0  0  0  0
    8.4236    1.5764    0.0000 O   0  0  0  0  0  0  0  0  0  0  0  0
    6.9746    3.7329    0.0000 C   0  0  0  0  0  0  0  0  0  0  0  0
    5.6276    4.3929    0.0000 H   0  0  0  0  0  0  0  0  0  0  0  0
    8.4661    3.5734    0.0000 H   0  0  0  0  0  0  0  0  0  0  0  0
    7.3906    5.1740    0.0000 H   0  0  0  0  0  0  0  0  0  0  0  0
   -0.4213   -1.5660    0.0000 O   0  0  0  0  0  0  0  0  0  0  0  0
   -0.9342   -0.1564    0.0000 H   0  0  0  0  0  0  0  0  0  0  0  0
  1  2  1  0  0  0  0 
  1  3  1  0  0  0  0 
  1  4  1  0  0  0  0 
  1  5  1  0  0  0  0 
  5  6  1  0  0  0  0 
  5  7  1  0  0  0  0 
  8  5  1  1  0  0  0 
  8  9  1  0  0  0  0 
  9 10  1  0  0  0  0 
  9 11  1  0  0  0  0 
  9 12  1  0  0  0  0 
 12 13  1  0  0  0  0 
 12 14  1  0  0  0  0 
 14 15  1  6  0  0  0 
 14 16  1  0  0  0  0 
 16 17  1  1  0  0  0 
 16 18  1  0  0  0  0 
 18 19  1  0  0  0  0 
 18 20  1  0  0  0  0 
 18 21  1  0  0  0  0 
 21 22  1  0  0  0  0 
 21 23  1  0  0  0  0 
 21 24  1  0  0  0  0 
 24 25  2  0  0  0  0 
 25 26  1  0  0  0  0 
 26 27  1  0  0  0  0 
 24 28  1  0  0  0  0 
 28 29  1  0  0  0  0 
 28 30  2  0  0  0  0 
 16 30  1  0  0  0  0 
 30 31  1  0  0  0  0 
 31 32  1  0  0  0  0 
 31 33  1  0  0  0  0 
 31 34  1  0  0  0  0 
 34 35  1  0  0  0  0 
 34 36  1  0  0  0  0 
 34 37  1  0  0  0  0 
 14 37  1  0  0  0  0 
 37 38  1  1  0  0  0 
 37 39  1  0  0  0  0 
  8 39  1  0  0  0  0 
 39 40  1  6  0  0  0 
 39 41  1  0  0  0  0 
 41 42  1  0  0  0  0 
 41 43  1  0  0  0  0 
 41 44  1  0  0  0  0 
 44 45  1  0  0  0  0 
 44 46  1  0  0  0  0 
 44 47  1  0  0  0  0 
  8 47  1  0  0  0  0 
 47 48  1  6  0  0  0 
 48 49  3  0  0  0  0 
 49 50  1  0  0  0  0 
 47 51  1  1  0  0  0 
 51 52  1  0  0  0  0 
 52 53  2  0  0  0  0 
 52 54  1  0  0  0  0 
 54 55  1  0  0  0  0 
 54 56  1  0  0  0  0 
 54 57  1  0  0  0  0 
 12 58  1  0  0  0  0 
 58 59  1  0  0  0  0 
M  END
> <Rank>
30

> <Priority_score>
0.0

> <Reaction_type>
aliphatic hydroxylation

> <Parent_ID>
2

> <Parent_InChI>
InChI=1S/C23H31NO3/c1-4-22-12-10-19-18-9-7-17(24-26)14-16(18)6-8-20(19)21(22)11-13-23(22,5-2)27-15(3)25/h2,14,18-21,26H,4,6-13H2,1,3H3

> <Parent_SMILES>
C#C[C@]1(OC(C)=O)CC[C@H]2[C@@H]3CCC4=C/C(=N/O)CC[C@@H]4[C@H]3CC[C@@]21CC

$$$$
Molecule 2_metabolite 32
  CDK     0516241031

 59 62  0  0  0  0  0  0  0  0999 V2000
    7.3791   -0.2499    0.0000 C   0  0  0  0  0  0  0  0  0  0  0  0
    8.6786    0.4992    0.0000 H   0  0  0  0  0  0  0  0  0  0  0  0
    6.0796   -0.9991    0.0000 C   0  0  0  0  0  0  0  0  0  0  0  0
    4.7800   -1.7482    0.0000 C   0  0  2  0  0  0  0  0  0  0  0  0
    5.6600   -2.9582    0.0000 C   0  0  0  0  0  0  0  0  0  0  0  0
    6.7746   -3.9621    0.0000 H   0  0  0  0  0  0  0  0  0  0  0  0
    6.7746   -1.9543    0.0000 H   0  0  0  0  0  0  0  0  0  0  0  0
    4.7800   -4.1682    0.0000 C   0  0  0  0  0  0  0  0  0  0  0  0
    5.0859   -2.6997    0.0000 H   0  0  0  0  0  0  0  0  0  0  0  0
    6.0796   -4.9173    0.0000 H   0  0  0  0  0  0  0  0  0  0  0  0
    3.3500   -3.7082    0.0000 C   0  0  1  0  0  0  0  0  0  0  0  0
    1.7504   -2.5413    0.0000 H   0  0  0  0  0  0  0  0  0  0  0  0
    2.0500   -4.4582    0.0000 C   0  0  2  0  0  0  0  0  0  0  0  0
    0.3355   -5.4485    0.0000 H   0  0  0  0  0  0  0  0  0  0  0  0
    2.0500   -5.9582    0.0000 C   0  0  0  0  0  0  0  0  0  0  0  0
    2.5628   -7.3678    0.0000 H   0  0  0  0  0  0  0  0  0  0  0  0
    3.5273   -5.6979    0.0000 H   0  0  0  0  0  0  0  0  0  0  0  0
    0.7500   -6.7082    0.0000 C   0  0  0  0  0  0  0  0  0  0  0  0
   -0.2140   -7.8574    0.0000 H   0  0  0  0  0  0  0  0  0  0  0  0
    1.7141   -7.8574    0.0000 H   0  0  0  0  0  0  0  0  0  0  0  0
   -0.5500   -5.9582    0.0000 C   0  0  0  0  0  0  0  0  0  0  0  0
   -1.8500   -6.7082    0.0000 C   0  0  0  0  0  0  0  0  0  0  0  0
   -1.8500   -8.2082    0.0000 H   0  0  0  0  0  0  0  0  0  0  0  0
   -3.1500   -5.9582    0.0000 C   0  0  0  0  0  0  0  0  0  0  0  0
   -4.4489   -6.7084    0.0000 N   0  0  0  0  0  0  0  0  0  0  0  0
   -5.7480   -5.9586    0.0000 O   0  0  0  0  0  0  0  0  0  0  0  0
   -7.0470   -6.7088    0.0000 H   0  0  0  0  0  0  0  0  0  0  0  0
   -3.1500   -4.4582    0.0000 C   0  0  0  0  0  0  0  0  0  0  0  0
   -3.6627   -3.0485    0.0000 H   0  0  0  0  0  0  0  0  0  0  0  0
   -4.6272   -4.7185    0.0000 H   0  0  0  0  0  0  0  0  0  0  0  0
   -1.8500   -3.7082    0.0000 C   0  0  0  0  0  0  0  0  0  0  0  0
   -2.3622   -5.1180    0.0000 H   0  0  0  0  0  0  0  0  0  0  0  0
   -2.8140   -2.5590    0.0000 H   0  0  0  0  0  0  0  0  0  0  0  0
   -0.5500   -4.4582    0.0000 C   0  0  2  0  0  0  0  0  0  0  0  0
    1.1641   -5.4493    0.0000 H   0  0  0  0  0  0  0  0  0  0  0  0
    0.7500   -3.7082    0.0000 C   0  0  1  0  0  0  0  0  0  0  0  0
    2.2272   -3.4475    0.0000 H   0  0  0  0  0  0  0  0  0  0  0  0
    0.7500   -2.2082    0.0000 C   0  0  0  0  0  0  0  0  0  0  0  0
    0.2373   -0.7985    0.0000 H   0  0  0  0  0  0  0  0  0  0  0  0
   -0.7272   -2.4685    0.0000 H   0  0  0  0  0  0  0  0  0  0  0  0
    2.0500   -1.4582    0.0000 C   0  0  0  0  0  0  0  0  0  0  0  0
    3.0141   -0.3090    0.0000 H   0  0  0  0  0  0  0  0  0  0  0  0
    3.3500   -2.2082    0.0000 C   0  0  2  0  0  0  0  0  0  0  0  0
    4.0312    0.1556    0.0000 C   0  0  0  0  0  0  0  0  0  0  0  0
    4.9145    1.3680    0.0000 H   0  0  0  0  0  0  0  0  0  0  0  0
    5.3785   -0.5037    0.0000 H   0  0  0  0  0  0  0  0  0  0  0  0
    1.9917    2.2731    0.0000 C   0  0  0  0  0  0  0  0  0  0  0  0
    0.5357    1.9122    0.0000 H   0  0  0  0  0  0  0  0  0  0  0  0
    3.2363    3.1103    0.0000 H   0  0  0  0  0  0  0  0  0  0  0  0
    1.3833    3.6443    0.0000 H   0  0  0  0  0  0  0  0  0  0  0  0
    1.0860   -0.3090    0.0000 O   0  0  0  0  0  0  0  0  0  0  0  0
    1.5992    1.1005    0.0000 H   0  0  0  0  0  0  0  0  0  0  0  0
    3.5891    0.9398    0.0000 O   0  0  0  0  0  0  0  0  0  0  0  0
    5.3214    3.3152    0.0000 C   0  0  0  0  0  0  0  0  0  0  0  0
    6.8129    3.1557    0.0000 O   0  0  0  0  0  0  0  0  0  0  0  0
    4.7138    4.6866    0.0000 C   0  0  0  0  0  0  0  0  0  0  0  0
    3.2223    4.8461    0.0000 H   0  0  0  0  0  0  0  0  0  0  0  0
    6.1699    5.0469    0.0000 H   0  0  0  0  0  0  0  0  0  0  0  0
    4.6118    6.1831    0.0000 H   0  0  0  0  0  0  0  0  0  0  0  0
  1  2  1  0  0  0  0 
  1  3  3  0  0  0  0 
  4  3  1  6  0  0  0 
  4  5  1  0  0  0  0 
  5  6  1  0  0  0  0 
  5  7  1  0  0  0  0 
  5  8  1  0  0  0  0 
  8  9  1  0  0  0  0 
  8 10  1  0  0  0  0 
  8 11  1  0  0  0  0 
 11 12  1  6  0  0  0 
 11 13  1  0  0  0  0 
 13 14  1  1  0  0  0 
 13 15  1  0  0  0  0 
 15 16  1  0  0  0  0 
 15 17  1  0  0  0  0 
 15 18  1  0  0  0  0 
 18 19  1  0  0  0  0 
 18 20  1  0  0  0  0 
 18 21  1  0  0  0  0 
 21 22  2  0  0  0  0 
 22 23  1  0  0  0  0 
 22 24  1  0  0  0  0 
 24 25  2  0  0  0  0 
 25 26  1  0  0  0  0 
 26 27  1  0  0  0  0 
 24 28  1  0  0  0  0 
 28 29  1  0  0  0  0 
 28 30  1  0  0  0  0 
 28 31  1  0  0  0  0 
 31 32  1  0  0  0  0 
 31 33  1  0  0  0  0 
 31 34  1  0  0  0  0 
 21 34  1  0  0  0  0 
 34 35  1  1  0  0  0 
 34 36  1  0  0  0  0 
 13 36  1  0  0  0  0 
 36 37  1  6  0  0  0 
 36 38  1  0  0  0  0 
 38 39  1  0  0  0  0 
 38 40  1  0  0  0  0 
 38 41  1  0  0  0  0 
 41 42  1  0  0  0  0 
 41 43  1  0  0  0  0 
 11 43  1  0  0  0  0 
  4 43  1  0  0  0  0 
 43 44  1  1  0  0  0 
 44 45  1  0  0  0  0 
 44 46  1  0  0  0  0 
 44 47  1  0  0  0  0 
 47 48  1  0  0  0  0 
 47 49  1  0  0  0  0 
 47 50  1  0  0  0  0 
 41 51  1  0  0  0  0 
 51 52  1  0  0  0  0 
  4 53  1  1  0  0  0 
 53 54  1  0  0  0  0 
 54 55  2  0  0  0  0 
 54 56  1  0  0  0  0 
 56 57  1  0  0  0  0 
 56 58  1  0  0  0  0 
 56 59  1  0  0  0  0 
M  END
> <Rank>
30

> <Priority_score>
0.0

> <Reaction_type>
aliphatic hydroxylation

> <Parent_ID>
2

> <Parent_InChI>
InChI=1S/C23H31NO3/c1-4-22-12-10-19-18-9-7-17(24-26)14-16(18)6-8-20(19)21(22)11-13-23(22,5-2)27-15(3)25/h2,14,18-21,26H,4,6-13H2,1,3H3

> <Parent_SMILES>
C#C[C@]1(OC(C)=O)CC[C@H]2[C@@H]3CCC4=C/C(=N/O)CC[C@@H]4[C@H]3CC[C@@]21CC

$$$$
Molecule 2_metabolite 33
  CDK     0516241031

 56 59  0  0  0  0  0  0  0  0999 V2000
    3.0036    2.4637    0.0000 C   0  0  0  0  0  0  0  0  0  0  0  0
    3.1623    3.9553    0.0000 H   0  0  0  0  0  0  0  0  0  0  0  0
    2.3443    1.1164    0.0000 H   0  0  0  0  0  0  0  0  0  0  0  0
    1.5623    2.8791    0.0000 H   0  0  0  0  0  0  0  0  0  0  0  0
    5.3799    0.7326    0.0000 C   0  0  0  0  0  0  0  0  0  0  0  0
    6.0392    2.0799    0.0000 H   0  0  0  0  0  0  0  0  0  0  0  0
    6.8212    0.3172    0.0000 H   0  0  0  0  0  0  0  0  0  0  0  0
    5.0687   -2.1909    0.0000 C   0  0  2  0  0  0  0  0  0  0  0  0
    3.7687   -1.4409    0.0000 C   0  0  0  0  0  0  0  0  0  0  0  0
    4.7328   -0.2918    0.0000 H   0  0  0  0  0  0  0  0  0  0  0  0
    2.4962    0.0760    0.0000 H   0  0  0  0  0  0  0  0  0  0  0  0
    2.4687   -2.1909    0.0000 C   0  0  0  0  0  0  0  0  0  0  0  0
    1.9560   -0.7813    0.0000 H   0  0  0  0  0  0  0  0  0  0  0  0
    0.0461   -1.7635    0.0000 H   0  0  0  0  0  0  0  0  0  0  0  0
    2.4687   -3.6909    0.0000 C   0  0  2  0  0  0  0  0  0  0  0  0
    2.4680   -5.1909    0.0000 H   0  0  0  0  0  0  0  0  0  0  0  0
    1.1687   -4.4409    0.0000 C   0  0  1  0  0  0  0  0  0  0  0  0
   -0.1298   -5.1918    0.0000 H   0  0  0  0  0  0  0  0  0  0  0  0
   -0.1313   -3.6909    0.0000 C   0  0  0  0  0  0  0  0  0  0  0  0
    0.8328   -2.5418    0.0000 H   0  0  0  0  0  0  0  0  0  0  0  0
   -1.0953   -2.5418    0.0000 H   0  0  0  0  0  0  0  0  0  0  0  0
   -1.4313   -4.4409    0.0000 C   0  0  0  0  0  0  0  0  0  0  0  0
   -1.9440   -3.0313    0.0000 H   0  0  0  0  0  0  0  0  0  0  0  0
   -2.9085   -4.7013    0.0000 H   0  0  0  0  0  0  0  0  0  0  0  0
   -1.4313   -5.9409    0.0000 C   0  0  0  0  0  0  0  0  0  0  0  0
   -2.7302   -6.6911    0.0000 N   0  0  0  0  0  0  0  0  0  0  0  0
   -4.0294   -5.9414    0.0000 O   0  0  0  0  0  0  0  0  0  0  0  0
   -5.3283   -6.6916    0.0000 H   0  0  0  0  0  0  0  0  0  0  0  0
   -0.1313   -6.6909    0.0000 C   0  0  0  0  0  0  0  0  0  0  0  0
   -0.1313   -8.1909    0.0000 H   0  0  0  0  0  0  0  0  0  0  0  0
    1.1687   -5.9409    0.0000 C   0  0  0  0  0  0  0  0  0  0  0  0
    2.4687   -6.6909    0.0000 C   0  0  0  0  0  0  0  0  0  0  0  0
    1.5047   -7.8401    0.0000 H   0  0  0  0  0  0  0  0  0  0  0  0
    3.4328   -7.8401    0.0000 H   0  0  0  0  0  0  0  0  0  0  0  0
    3.7687   -5.9409    0.0000 C   0  0  0  0  0  0  0  0  0  0  0  0
    4.2814   -7.3506    0.0000 H   0  0  0  0  0  0  0  0  0  0  0  0
    5.2460   -5.6806    0.0000 H   0  0  0  0  0  0  0  0  0  0  0  0
    3.7687   -4.4409    0.0000 C   0  0  0  0  0  0  0  0  0  0  0  0
    5.0687   -3.6909    0.0000 C   0  0  0  0  0  0  0  0  0  0  0  0
    6.4987   -4.1509    0.0000 C   0  0  0  0  0  0  0  0  0  0  0  0
    5.8911   -5.5224    0.0000 H   0  0  0  0  0  0  0  0  0  0  0  0
    7.7982   -4.9001    0.0000 H   0  0  0  0  0  0  0  0  0  0  0  0
    7.3787   -2.9409    0.0000 C   0  0  0  0  0  0  0  0  0  0  0  0
    8.4933   -3.9448    0.0000 H   0  0  0  0  0  0  0  0  0  0  0  0
    8.4933   -1.9371    0.0000 H   0  0  0  0  0  0  0  0  0  0  0  0
    6.4987   -1.7309    0.0000 C   0  0  1  0  0  0  0  0  0  0  0  0
    7.7982   -0.9818    0.0000 C   0  0  0  0  0  0  0  0  0  0  0  0
    9.0978   -0.2327    0.0000 C   0  0  0  0  0  0  0  0  0  0  0  0
   10.3973    0.5165    0.0000 H   0  0  0  0  0  0  0  0  0  0  0  0
    6.8113    1.1924    0.0000 O   0  0  0  0  0  0  0  0  0  0  0  0
    8.1827    1.8000    0.0000 C   0  0  0  0  0  0  0  0  0  0  0  0
    9.3946    0.9162    0.0000 O   0  0  0  0  0  0  0  0  0  0  0  0
    8.3422    3.2915    0.0000 C   0  0  0  0  0  0  0  0  0  0  0  0
    7.1302    4.1754    0.0000 H   0  0  0  0  0  0  0  0  0  0  0  0
    9.7833    2.8755    0.0000 H   0  0  0  0  0  0  0  0  0  0  0  0
    9.0021    4.6385    0.0000 H   0  0  0  0  0  0  0  0  0  0  0  0
  1  2  1  0  0  0  0 
  1  3  1  0  0  0  0 
  1  4  1  0  0  0  0 
  1  5  1  0  0  0  0 
  5  6  1  0  0  0  0 
  5  7  1  0  0  0  0 
  5  8  1  0  0  0  0 
  8  9  1  0  0  0  0 
  9 10  1  0  0  0  0 
  9 11  1  0  0  0  0 
  9 12  1  0  0  0  0 
 12 13  1  0  0  0  0 
 12 14  1  0  0  0  0 
 12 15  1  0  0  0  0 
 15 16  1  6  0  0  0 
 15 17  1  0  0  0  0 
 17 18  1  1  0  0  0 
 17 19  1  0  0  0  0 
 19 20  1  0  0  0  0 
 19 21  1  0  0  0  0 
 19 22  1  0  0  0  0 
 22 23  1  0  0  0  0 
 22 24  1  0  0  0  0 
 22 25  1  0  0  0  0 
 25 26  2  0  0  0  0 
 26 27  1  0  0  0  0 
 27 28  1  0  0  0  0 
 25 29  1  0  0  0  0 
 29 30  1  0  0  0  0 
 29 31  2  0  0  0  0 
 17 31  1  0  0  0  0 
 31 32  1  0  0  0  0 
 32 33  1  0  0  0  0 
 32 34  1  0  0  0  0 
 32 35  1  0  0  0  0 
 35 36  1  0  0  0  0 
 35 37  1  0  0  0  0 
 35 38  1  0  0  0  0 
 15 38  1  0  0  0  0 
 38 39  2  0  0  0  0 
  8 39  1  1  0  0  0 
 39 40  1  0  0  0  0 
 40 41  1  0  0  0  0 
 40 42  1  0  0  0  0 
 40 43  1  0  0  0  0 
 43 44  1  0  0  0  0 
 43 45  1  0  0  0  0 
 43 46  1  0  0  0  0 
  8 46  1  0  0  0  0 
 46 47  1  6  0  0  0 
 47 48  3  0  0  0  0 
 48 49  1  0  0  0  0 
 46 50  1  1  0  0  0 
 50 51  1  0  0  0  0 
 51 52  2  0  0  0  0 
 51 53  1  0  0  0  0 
 53 54  1  0  0  0  0 
 53 55  1  0  0  0  0 
 53 56  1  0  0  0  0 
M  END
> <Rank>
30

> <Priority_score>
0.0

> <Reaction_type>
alkyl dehydrogenation

> <Parent_ID>
2

> <Parent_InChI>
InChI=1S/C23H31NO3/c1-4-22-12-10-19-18-9-7-17(24-26)14-16(18)6-8-20(19)21(22)11-13-23(22,5-2)27-15(3)25/h2,14,18-21,26H,4,6-13H2,1,3H3

> <Parent_SMILES>
C#C[C@]1(OC(C)=O)CC[C@H]2[C@@H]3CCC4=C/C(=N/O)CC[C@@H]4[C@H]3CC[C@@]21CC

$$$$
Molecule 2_metabolite 34
  CDK     0516241031

 59 62  0  0  0  0  0  0  0  0999 V2000
    4.3173    3.8065    0.0000 C   0  0  0  0  0  0  0  0  0  0  0  0
    4.4761    5.2980    0.0000 H   0  0  0  0  0  0  0  0  0  0  0  0
    3.6580    2.4591    0.0000 H   0  0  0  0  0  0  0  0  0  0  0  0
    2.8760    4.2218    0.0000 H   0  0  0  0  0  0  0  0  0  0  0  0
    5.9177    2.6406    0.0000 C   0  0  0  0  0  0  0  0  0  0  0  0
    6.5770    3.9879    0.0000 H   0  0  0  0  0  0  0  0  0  0  0  0
    7.3590    2.2252    0.0000 H   0  0  0  0  0  0  0  0  0  0  0  0
    5.6065   -0.2829    0.0000 C   0  0  2  0  0  0  0  0  0  0  0  0
    4.3065    0.4671    0.0000 C   0  0  0  0  0  0  0  0  0  0  0  0
    5.2706    1.6162    0.0000 H   0  0  0  0  0  0  0  0  0  0  0  0
    2.7255    2.3517    0.0000 H   0  0  0  0  0  0  0  0  0  0  0  0
    3.0065   -0.2829    0.0000 C   0  0  0  0  0  0  0  0  0  0  0  0
    2.4938    1.1267    0.0000 H   0  0  0  0  0  0  0  0  0  0  0  0
    0.1113    0.2279    0.0000 H   0  0  0  0  0  0  0  0  0  0  0  0
    3.0065   -1.7829    0.0000 C   0  0  2  0  0  0  0  0  0  0  0  0
    3.0058   -3.2829    0.0000 H   0  0  0  0  0  0  0  0  0  0  0  0
    1.7065   -2.5329    0.0000 C   0  0  1  0  0  0  0  0  0  0  0  0
    0.4080   -3.2838    0.0000 H   0  0  0  0  0  0  0  0  0  0  0  0
    0.4065   -1.7829    0.0000 C   0  0  0  0  0  0  0  0  0  0  0  0
    1.3706   -0.6338    0.0000 H   0  0  0  0  0  0  0  0  0  0  0  0
   -0.5575   -0.6338    0.0000 H   0  0  0  0  0  0  0  0  0  0  0  0
   -0.8935   -2.5329    0.0000 C   0  0  0  0  0  0  0  0  0  0  0  0
   -1.4062   -1.1233    0.0000 H   0  0  0  0  0  0  0  0  0  0  0  0
   -2.3707   -2.7932    0.0000 H   0  0  0  0  0  0  0  0  0  0  0  0
   -0.8935   -4.0329    0.0000 C   0  0  0  0  0  0  0  0  0  0  0  0
   -2.1924   -4.7831    0.0000 N   0  0  0  0  0  0  0  0  0  0  0  0
   -3.4915   -4.0333    0.0000 O   0  0  0  0  0  0  0  0  0  0  0  0
   -4.7905   -4.7836    0.0000 H   0  0  0  0  0  0  0  0  0  0  0  0
    0.4065   -4.7829    0.0000 C   0  0  0  0  0  0  0  0  0  0  0  0
    0.4065   -6.2829    0.0000 H   0  0  0  0  0  0  0  0  0  0  0  0
    1.7065   -4.0329    0.0000 C   0  0  0  0  0  0  0  0  0  0  0  0
    3.0065   -4.7829    0.0000 C   0  0  0  0  0  0  0  0  0  0  0  0
    2.0425   -5.9321    0.0000 H   0  0  0  0  0  0  0  0  0  0  0  0
    3.9706   -5.9321    0.0000 H   0  0  0  0  0  0  0  0  0  0  0  0
    4.3065   -4.0329    0.0000 C   0  0  0  0  0  0  0  0  0  0  0  0
    4.8193   -5.4426    0.0000 H   0  0  0  0  0  0  0  0  0  0  0  0
    2.8293   -3.7726    0.0000 H   0  0  0  0  0  0  0  0  0  0  0  0
    4.3065   -2.5329    0.0000 C   0  0  1  0  0  0  0  0  0  0  0  0
    5.6055   -3.2831    0.0000 H   0  0  0  0  0  0  0  0  0  0  0  0
    5.6065   -1.7829    0.0000 C   0  0  2  0  0  0  0  0  0  0  0  0
    7.0365   -2.2429    0.0000 C   0  0  0  0  0  0  0  0  0  0  0  0
    5.8456   -4.9309    0.0000 H   0  0  0  0  0  0  0  0  0  0  0  0
    8.3361   -2.9921    0.0000 H   0  0  0  0  0  0  0  0  0  0  0  0
    7.9165   -1.0329    0.0000 C   0  0  0  0  0  0  0  0  0  0  0  0
    9.0311   -2.0368    0.0000 H   0  0  0  0  0  0  0  0  0  0  0  0
    9.0311   -0.0291    0.0000 H   0  0  0  0  0  0  0  0  0  0  0  0
    7.0365    0.1771    0.0000 C   0  0  1  0  0  0  0  0  0  0  0  0
    8.3361    0.9262    0.0000 C   0  0  0  0  0  0  0  0  0  0  0  0
    9.6356    1.6754    0.0000 C   0  0  0  0  0  0  0  0  0  0  0  0
   10.9351    2.4245    0.0000 H   0  0  0  0  0  0  0  0  0  0  0  0
    7.3491    3.1004    0.0000 O   0  0  0  0  0  0  0  0  0  0  0  0
    8.7205    3.7081    0.0000 C   0  0  0  0  0  0  0  0  0  0  0  0
    9.9325    2.8242    0.0000 O   0  0  0  0  0  0  0  0  0  0  0  0
    8.8800    5.1996    0.0000 C   0  0  0  0  0  0  0  0  0  0  0  0
    7.6680    6.0834    0.0000 H   0  0  0  0  0  0  0  0  0  0  0  0
   10.3211    4.7835    0.0000 H   0  0  0  0  0  0  0  0  0  0  0  0
    9.5400    6.5466    0.0000 H   0  0  0  0  0  0  0  0  0  0  0  0
    5.8161   -3.7518    0.0000 O   0  0  0  0  0  0  0  0  0  0  0  0
    7.1872   -4.3601    0.0000 H   0  0  0  0  0  0  0  0  0  0  0  0
  1  2  1  0  0  0  0 
  1  3  1  0  0  0  0 
  1  4  1  0  0  0  0 
  1  5  1  0  0  0  0 
  5  6  1  0  0  0  0 
  5  7  1  0  0  0  0 
  8  5  1  1  0  0  0 
  8  9  1  0  0  0  0 
  9 10  1  0  0  0  0 
  9 11  1  0  0  0  0 
  9 12  1  0  0  0  0 
 12 13  1  0  0  0  0 
 12 14  1  0  0  0  0 
 12 15  1  0  0  0  0 
 15 16  1  6  0  0  0 
 15 17  1  0  0  0  0 
 17 18  1  1  0  0  0 
 17 19  1  0  0  0  0 
 19 20  1  0  0  0  0 
 19 21  1  0  0  0  0 
 19 22  1  0  0  0  0 
 22 23  1  0  0  0  0 
 22 24  1  0  0  0  0 
 22 25  1  0  0  0  0 
 25 26  2  0  0  0  0 
 26 27  1  0  0  0  0 
 27 28  1  0  0  0  0 
 25 29  1  0  0  0  0 
 29 30  1  0  0  0  0 
 29 31  2  0  0  0  0 
 17 31  1  0  0  0  0 
 31 32  1  0  0  0  0 
 32 33  1  0  0  0  0 
 32 34  1  0  0  0  0 
 32 35  1  0  0  0  0 
 35 36  1  0  0  0  0 
 35 37  1  0  0  0  0 
 35 38  1  0  0  0  0 
 15 38  1  0  0  0  0 
 38 39  1  1  0  0  0 
 38 40  1  0  0  0  0 
  8 40  1  0  0  0  0 
 40 41  1  0  0  0  0 
 41 42  1  0  0  0  0 
 41 43  1  0  0  0  0 
 41 44  1  0  0  0  0 
 44 45  1  0  0  0  0 
 44 46  1  0  0  0  0 
 44 47  1  0  0  0  0 
  8 47  1  0  0  0  0 
 47 48  1  6  0  0  0 
 48 49  3  0  0  0  0 
 49 50  1  0  0  0  0 
 47 51  1  1  0  0  0 
 51 52  1  0  0  0  0 
 52 53  2  0  0  0  0 
 52 54  1  0  0  0  0 
 54 55  1  0  0  0  0 
 54 56  1  0  0  0  0 
 54 57  1  0  0  0  0 
 40 58  1  6  0  0  0 
 58 59  1  0  0  0  0 
M  END
> <Rank>
30

> <Priority_score>
0.0

> <Reaction_type>
aliphatic hydroxylation

> <Parent_ID>
2

> <Parent_InChI>
InChI=1S/C23H31NO3/c1-4-22-12-10-19-18-9-7-17(24-26)14-16(18)6-8-20(19)21(22)11-13-23(22,5-2)27-15(3)25/h2,14,18-21,26H,4,6-13H2,1,3H3

> <Parent_SMILES>
C#C[C@]1(OC(C)=O)CC[C@H]2[C@@H]3CCC4=C/C(=N/O)CC[C@@H]4[C@H]3CC[C@@]21CC

$$$$
Molecule 2_metabolite 35
  CDK     0516241031

 59 62  0  0  0  0  0  0  0  0999 V2000
    3.1212    4.0494    0.0000 C   0  0  0  0  0  0  0  0  0  0  0  0
    3.2799    5.5409    0.0000 H   0  0  0  0  0  0  0  0  0  0  0  0
    2.4619    2.7020    0.0000 H   0  0  0  0  0  0  0  0  0  0  0  0
    1.6798    4.4647    0.0000 H   0  0  0  0  0  0  0  0  0  0  0  0
    4.7215    2.8835    0.0000 C   0  0  0  0  0  0  0  0  0  0  0  0
    5.3808    4.2308    0.0000 H   0  0  0  0  0  0  0  0  0  0  0  0
    6.1629    2.4681    0.0000 H   0  0  0  0  0  0  0  0  0  0  0  0
    4.4104   -0.0400    0.0000 C   0  0  2  0  0  0  0  0  0  0  0  0
    3.1104    0.7100    0.0000 C   0  0  0  0  0  0  0  0  0  0  0  0
    4.0744    1.8591    0.0000 H   0  0  0  0  0  0  0  0  0  0  0  0
    1.5293    2.5946    0.0000 H   0  0  0  0  0  0  0  0  0  0  0  0
    1.8104   -0.0400    0.0000 C   0  0  0  0  0  0  0  0  0  0  0  0
    1.2976    1.3696    0.0000 H   0  0  0  0  0  0  0  0  0  0  0  0
   -1.0849    0.4708    0.0000 H   0  0  0  0  0  0  0  0  0  0  0  0
    1.8104   -1.5400    0.0000 C   0  0  2  0  0  0  0  0  0  0  0  0
    1.8096   -3.0400    0.0000 H   0  0  0  0  0  0  0  0  0  0  0  0
    0.5104   -2.2900    0.0000 C   0  0  1  0  0  0  0  0  0  0  0  0
   -0.7882   -3.0409    0.0000 H   0  0  0  0  0  0  0  0  0  0  0  0
   -0.7896   -1.5400    0.0000 C   0  0  0  0  0  0  0  0  0  0  0  0
    0.1744   -0.3909    0.0000 H   0  0  0  0  0  0  0  0  0  0  0  0
   -1.7537   -0.3909    0.0000 H   0  0  0  0  0  0  0  0  0  0  0  0
   -2.0896   -2.2900    0.0000 C   0  0  0  0  0  0  0  0  0  0  0  0
   -2.6024   -0.8804    0.0000 H   0  0  0  0  0  0  0  0  0  0  0  0
   -3.5669   -2.5503    0.0000 H   0  0  0  0  0  0  0  0  0  0  0  0
   -2.0896   -3.7900    0.0000 C   0  0  0  0  0  0  0  0  0  0  0  0
   -3.3885   -4.5402    0.0000 N   0  0  0  0  0  0  0  0  0  0  0  0
   -4.6877   -3.7904    0.0000 O   0  0  0  0  0  0  0  0  0  0  0  0
   -5.9866   -4.5407    0.0000 H   0  0  0  0  0  0  0  0  0  0  0  0
   -0.7896   -4.5400    0.0000 C   0  0  0  0  0  0  0  0  0  0  0  0
   -0.7896   -6.0400    0.0000 H   0  0  0  0  0  0  0  0  0  0  0  0
    0.5104   -3.7900    0.0000 C   0  0  0  0  0  0  0  0  0  0  0  0
    1.8104   -4.5400    0.0000 C   0  0  0  0  0  0  0  0  0  0  0  0
    0.8463   -5.6892    0.0000 H   0  0  0  0  0  0  0  0  0  0  0  0
    2.7744   -5.6892    0.0000 H   0  0  0  0  0  0  0  0  0  0  0  0
    3.1104   -3.7900    0.0000 C   0  0  0  0  0  0  0  0  0  0  0  0
    3.6231   -5.1997    0.0000 H   0  0  0  0  0  0  0  0  0  0  0  0
    4.5876   -3.5297    0.0000 H   0  0  0  0  0  0  0  0  0  0  0  0
    3.1104   -2.2900    0.0000 C   0  0  1  0  0  0  0  0  0  0  0  0
    4.4104   -1.5400    0.0000 C   0  0  2  0  0  0  0  0  0  0  0  0
    5.4090   -0.4207    0.0000 H   0  0  0  0  0  0  0  0  0  0  0  0
    5.8404   -2.0000    0.0000 C   0  0  0  0  0  0  0  0  0  0  0  0
    4.6494   -4.6880    0.0000 H   0  0  0  0  0  0  0  0  0  0  0  0
    7.1399   -2.7492    0.0000 H   0  0  0  0  0  0  0  0  0  0  0  0
    6.7204   -0.7900    0.0000 C   0  0  0  0  0  0  0  0  0  0  0  0
    7.8349   -1.7939    0.0000 H   0  0  0  0  0  0  0  0  0  0  0  0
    7.8349    0.2138    0.0000 H   0  0  0  0  0  0  0  0  0  0  0  0
    5.8404    0.4200    0.0000 C   0  0  1  0  0  0  0  0  0  0  0  0
    7.1399    1.1691    0.0000 C   0  0  0  0  0  0  0  0  0  0  0  0
    8.4394    1.9183    0.0000 C   0  0  0  0  0  0  0  0  0  0  0  0
    9.7390    2.6674    0.0000 H   0  0  0  0  0  0  0  0  0  0  0  0
    5.6406    3.3532    0.0000 O   0  0  0  0  0  0  0  0  0  0  0  0
    6.8856    4.1897    0.0000 C   0  0  0  0  0  0  0  0  0  0  0  0
    8.2326    3.5297    0.0000 O   0  0  0  0  0  0  0  0  0  0  0  0
    6.7837    5.6863    0.0000 C   0  0  0  0  0  0  0  0  0  0  0  0
    5.4367    6.3462    0.0000 H   0  0  0  0  0  0  0  0  0  0  0  0
    8.2752    5.5268    0.0000 H   0  0  0  0  0  0  0  0  0  0  0  0
    7.1997    7.1274    0.0000 H   0  0  0  0  0  0  0  0  0  0  0  0
    5.6562   -3.7604    0.0000 O   0  0  0  0  0  0  0  0  0  0  0  0
    5.6560   -5.2604    0.0000 H   0  0  0  0  0  0  0  0  0  0  0  0
  1  2  1  0  0  0  0 
  1  3  1  0  0  0  0 
  1  4  1  0  0  0  0 
  1  5  1  0  0  0  0 
  5  6  1  0  0  0  0 
  5  7  1  0  0  0  0 
  8  5  1  1  0  0  0 
  8  9  1  0  0  0  0 
  9 10  1  0  0  0  0 
  9 11  1  0  0  0  0 
  9 12  1  0  0  0  0 
 12 13  1  0  0  0  0 
 12 14  1  0  0  0  0 
 12 15  1  0  0  0  0 
 15 16  1  6  0  0  0 
 15 17  1  0  0  0  0 
 17 18  1  1  0  0  0 
 17 19  1  0  0  0  0 
 19 20  1  0  0  0  0 
 19 21  1  0  0  0  0 
 19 22  1  0  0  0  0 
 22 23  1  0  0  0  0 
 22 24  1  0  0  0  0 
 22 25  1  0  0  0  0 
 25 26  2  0  0  0  0 
 26 27  1  0  0  0  0 
 27 28  1  0  0  0  0 
 25 29  1  0  0  0  0 
 29 30  1  0  0  0  0 
 29 31  2  0  0  0  0 
 17 31  1  0  0  0  0 
 31 32  1  0  0  0  0 
 32 33  1  0  0  0  0 
 32 34  1  0  0  0  0 
 32 35  1  0  0  0  0 
 35 36  1  0  0  0  0 
 35 37  1  0  0  0  0 
 35 38  1  0  0  0  0 
 15 38  1  0  0  0  0 
 38 39  1  0  0  0  0 
  8 39  1  0  0  0  0 
 39 40  1  6  0  0  0 
 39 41  1  0  0  0  0 
 41 42  1  0  0  0  0 
 41 43  1  0  0  0  0 
 41 44  1  0  0  0  0 
 44 45  1  0  0  0  0 
 44 46  1  0  0  0  0 
 44 47  1  0  0  0  0 
  8 47  1  0  0  0  0 
 47 48  1  6  0  0  0 
 48 49  3  0  0  0  0 
 49 50  1  0  0  0  0 
 47 51  1  1  0  0  0 
 51 52  1  0  0  0  0 
 52 53  2  0  0  0  0 
 52 54  1  0  0  0  0 
 54 55  1  0  0  0  0 
 54 56  1  0  0  0  0 
 54 57  1  0  0  0  0 
 38 58  1  1  0  0  0 
 58 59  1  0  0  0  0 
M  END
> <Rank>
30

> <Priority_score>
0.0

> <Reaction_type>
aliphatic hydroxylation

> <Parent_ID>
2

> <Parent_InChI>
InChI=1S/C23H31NO3/c1-4-22-12-10-19-18-9-7-17(24-26)14-16(18)6-8-20(19)21(22)11-13-23(22,5-2)27-15(3)25/h2,14,18-21,26H,4,6-13H2,1,3H3

> <Parent_SMILES>
C#C[C@]1(OC(C)=O)CC[C@H]2[C@@H]3CCC4=C/C(=N/O)CC[C@@H]4[C@H]3CC[C@@]21CC

$$$$
Molecule 3
  CDK     0516241031

 16 16  0  0  0  0  0  0  0  0999 V2000
    2.7303   -1.5894    0.0000 C   0  0  0  0  0  0  0  0  0  0  0  0
    1.2531   -1.3291    0.0000 C   0  0  0  0  0  0  0  0  0  0  0  0
    0.2890   -2.4783    0.0000 C   0  0  0  0  0  0  0  0  0  0  0  0
   -1.1882   -2.2179    0.0000 C   0  0  0  0  0  0  0  0  0  0  0  0
   -0.6755   -0.8083    0.0000 C   0  0  0  0  0  0  0  0  0  0  0  0
   -1.9486    0.7082    0.0000 C   0  0  0  0  0  0  0  0  0  0  0  0
   -1.4358    2.1178    0.0000 C   0  0  0  0  0  0  0  0  0  0  0  0
   -3.4257    0.4474    0.0000 C   0  0  0  0  0  0  0  0  0  0  0  0
   -1.1882   -3.7179    0.0000 C   0  0  0  0  0  0  0  0  0  0  0  0
    0.1107   -4.4682    0.0000 O   0  0  0  0  0  0  0  0  0  0  0  0
   -2.4882   -4.4679    0.0000 N   0  0  0  0  0  0  0  0  0  0  0  0
   -3.7882   -3.7179    0.0000 C   0  0  0  0  0  0  0  0  0  0  0  0
   -5.0872   -4.4682    0.0000 O   0  0  0  0  0  0  0  0  0  0  0  0
   -3.7882   -2.2179    0.0000 N   0  0  0  0  0  0  0  0  0  0  0  0
   -2.4882   -1.4679    0.0000 C   0  0  0  0  0  0  0  0  0  0  0  0
   -2.4882    0.0321    0.0000 O   0  0  0  0  0  0  0  0  0  0  0  0
  1  2  2  0  0  0  0 
  2  3  1  0  0  0  0 
  3  4  1  0  0  0  0 
  4  5  1  0  0  0  0 
  5  6  1  0  0  0  0 
  6  7  1  0  0  0  0 
  6  8  1  0  0  0  0 
  4  9  1  0  0  0  0 
  9 10  2  0  0  0  0 
  9 11  1  0  0  0  0 
 11 12  1  0  0  0  0 
 12 13  2  0  0  0  0 
 12 14  1  0  0  0  0 
 14 15  1  0  0  0  0 
  4 15  1  0  0  0  0 
 15 16  2  0  0  0  0 
M  END
> <SMILES>
C=CCC1(CC(C)C)C(=O)NC(=O)NC1=O

$$$$
Molecule 3_metabolite 1
  CDK     0516241031

 33 33  0  0  0  0  0  0  0  0999 V2000
    0.1145    3.5991    0.0000 C   0  0  0  0  0  0  0  0  0  0  0  0
    1.0785    4.7483    0.0000 H   0  0  0  0  0  0  0  0  0  0  0  0
   -1.3628    3.8594    0.0000 H   0  0  0  0  0  0  0  0  0  0  0  0
    0.6276    2.1896    0.0000 C   0  0  0  0  0  0  0  0  0  0  0  0
    2.1049    1.9293    0.0000 H   0  0  0  0  0  0  0  0  0  0  0  0
   -0.6449    0.6727    0.0000 C   0  0  0  0  0  0  0  0  0  0  0  0
   -2.3595   -0.3175    0.0000 H   0  0  0  0  0  0  0  0  0  0  0  0
   -1.6092    1.8217    0.0000 H   0  0  0  0  0  0  0  0  0  0  0  0
    0.0325   -1.1878    0.0000 C   0  0  0  0  0  0  0  0  0  0  0  0
   -1.4447   -1.4486    0.0000 C   0  0  0  0  0  0  0  0  0  0  0  0
   -1.4450    0.0514    0.0000 H   0  0  0  0  0  0  0  0  0  0  0  0
   -2.9219   -1.1884    0.0000 H   0  0  0  0  0  0  0  0  0  0  0  0
   -2.1215   -3.3093    0.0000 C   0  0  0  0  0  0  0  0  0  0  0  0
   -3.5986   -3.5701    0.0000 C   0  0  0  0  0  0  0  0  0  0  0  0
   -4.2754   -5.4308    0.0000 H   0  0  0  0  0  0  0  0  0  0  0  0
   -3.5989   -2.0701    0.0000 H   0  0  0  0  0  0  0  0  0  0  0  0
   -5.0759   -3.3100    0.0000 H   0  0  0  0  0  0  0  0  0  0  0  0
   -2.1212   -4.8093    0.0000 C   0  0  0  0  0  0  0  0  0  0  0  0
   -0.8220   -5.5590    0.0000 H   0  0  0  0  0  0  0  0  0  0  0  0
   -2.6339   -6.2190    0.0000 H   0  0  0  0  0  0  0  0  0  0  0  0
   -3.5984   -4.5492    0.0000 H   0  0  0  0  0  0  0  0  0  0  0  0
   -0.6442   -3.5695    0.0000 O   0  0  0  0  0  0  0  0  0  0  0  0
   -0.1309   -4.9789    0.0000 H   0  0  0  0  0  0  0  0  0  0  0  0
    1.3315   -0.4378    0.0000 C   0  0  0  0  0  0  0  0  0  0  0  0
    1.3318    1.0622    0.0000 O   0  0  0  0  0  0  0  0  0  0  0  0
    2.6310   -1.1886    0.0000 N   0  0  0  0  0  0  0  0  0  0  0  0
    3.9301   -0.4386    0.0000 H   0  0  0  0  0  0  0  0  0  0  0  0
    2.6315   -2.6895    0.0000 C   0  0  0  0  0  0  0  0  0  0  0  0
    3.9307   -3.4393    0.0000 O   0  0  0  0  0  0  0  0  0  0  0  0
    1.3325   -3.4395    0.0000 N   0  0  0  0  0  0  0  0  0  0  0  0
    1.3322   -4.9395    0.0000 H   0  0  0  0  0  0  0  0  0  0  0  0
    0.0330   -2.6886    0.0000 C   0  0  0  0  0  0  0  0  0  0  0  0
   -1.4670   -2.6886    0.0000 O   0  0  0  0  0  0  0  0  0  0  0  0
  1  2  1  0  0  0  0 
  1  3  1  0  0  0  0 
  1  4  2  0  0  0  0 
  4  5  1  0  0  0  0 
  4  6  1  0  0  0  0 
  6  7  1  0  0  0  0 
  6  8  1  0  0  0  0 
  6  9  1  0  0  0  0 
  9 10  1  0  0  0  0 
 10 11  1  0  0  0  0 
 10 12  1  0  0  0  0 
 10 13  1  0  0  0  0 
 13 14  1  0  0  0  0 
 14 15  1  0  0  0  0 
 14 16  1  0  0  0  0 
 14 17  1  0  0  0  0 
 13 18  1  0  0  0  0 
 18 19  1  0  0  0  0 
 18 20  1  0  0  0  0 
 18 21  1  0  0  0  0 
 13 22  1  0  0  0  0 
 22 23  1  0  0  0  0 
  9 24  1  0  0  0  0 
 24 25  2  0  0  0  0 
 24 26  1  0  0  0  0 
 26 27  1  0  0  0  0 
 26 28  1  0  0  0  0 
 28 29  2  0  0  0  0 
 28 30  1  0  0  0  0 
 30 31  1  0  0  0  0 
 30 32  1  0  0  0  0 
  9 32  1  0  0  0  0 
 32 33  2  0  0  0  0 
M  END
> <Rank>
1

> <Priority_score>
0.408

> <Reaction_type>
aliphatic_hydroxylation_(tert_carbon_linked_to_two_CH3_groups)

> <Parent_ID>
3

> <Parent_InChI>
InChI=1S/C11H16N2O3/c1-4-5-11(6-7(2)3)8(14)12-10(16)13-9(11)15/h4,7H,1,5-6H2,2-3H3,(H2,12,13,14,15,16)

> <Parent_SMILES>
C=CCC1(CC(C)C)C(=O)NC(=O)NC1=O

$$$$
Molecule 3_metabolite 2
  CDK     0516241031

 32 32  0  0  0  0  0  0  0  0999 V2000
    2.6466   -2.6035    0.0000 C   0  0  0  0  0  0  0  0  0  0  0  0
    3.9454   -1.8531    0.0000 H   0  0  0  0  0  0  0  0  0  0  0  0
    2.6471   -4.1035    0.0000 H   0  0  0  0  0  0  0  0  0  0  0  0
    1.3474   -1.8539    0.0000 C   0  0  0  0  0  0  0  0  0  0  0  0
    1.3469   -0.3539    0.0000 H   0  0  0  0  0  0  0  0  0  0  0  0
   -0.3671   -2.8445    0.0000 C   0  0  0  0  0  0  0  0  0  0  0  0
   -1.5158   -3.8090    0.0000 H   0  0  0  0  0  0  0  0  0  0  0  0
    0.5975   -3.9932    0.0000 H   0  0  0  0  0  0  0  0  0  0  0  0
   -1.6663   -2.0949    0.0000 C   0  0  0  0  0  0  0  0  0  0  0  0
   -2.3431   -3.9556    0.0000 C   0  0  0  0  0  0  0  0  0  0  0  0
   -0.8659   -4.2158    0.0000 H   0  0  0  0  0  0  0  0  0  0  0  0
   -2.3428   -5.4556    0.0000 H   0  0  0  0  0  0  0  0  0  0  0  0
   -3.8203   -4.2164    0.0000 C   0  0  0  0  0  0  0  0  0  0  0  0
   -5.1192   -4.9667    0.0000 H   0  0  0  0  0  0  0  0  0  0  0  0
   -3.1427   -6.0769    0.0000 C   0  0  0  0  0  0  0  0  0  0  0  0
   -1.6654   -6.3370    0.0000 H   0  0  0  0  0  0  0  0  0  0  0  0
   -3.1424   -7.5769    0.0000 H   0  0  0  0  0  0  0  0  0  0  0  0
   -4.6198   -6.3376    0.0000 H   0  0  0  0  0  0  0  0  0  0  0  0
   -5.0933   -2.6999    0.0000 C   0  0  0  0  0  0  0  0  0  0  0  0
   -4.5806   -1.2903    0.0000 O   0  0  0  0  0  0  0  0  0  0  0  0
   -6.5705   -2.9607    0.0000 O   0  0  0  0  0  0  0  0  0  0  0  0
   -7.5349   -1.8118    0.0000 H   0  0  0  0  0  0  0  0  0  0  0  0
   -0.7026   -0.9454    0.0000 C   0  0  0  0  0  0  0  0  0  0  0  0
    0.7747   -1.2050    0.0000 O   0  0  0  0  0  0  0  0  0  0  0  0
   -1.2170    0.4645    0.0000 N   0  0  0  0  0  0  0  0  0  0  0  0
   -0.2533    1.6140    0.0000 H   0  0  0  0  0  0  0  0  0  0  0  0
   -2.6951    0.7250    0.0000 C   0  0  0  0  0  0  0  0  0  0  0  0
   -3.2085    2.1344    0.0000 O   0  0  0  0  0  0  0  0  0  0  0  0
   -3.6588   -0.4245    0.0000 N   0  0  0  0  0  0  0  0  0  0  0  0
   -5.1361   -0.1649    0.0000 H   0  0  0  0  0  0  0  0  0  0  0  0
   -3.1444   -1.8344    0.0000 C   0  0  0  0  0  0  0  0  0  0  0  0
   -4.1081   -2.9839    0.0000 O   0  0  0  0  0  0  0  0  0  0  0  0
  1  2  1  0  0  0  0 
  1  3  1  0  0  0  0 
  1  4  2  0  0  0  0 
  4  5  1  0  0  0  0 
  4  6  1  0  0  0  0 
  6  7  1  0  0  0  0 
  6  8  1  0  0  0  0 
  6  9  1  0  0  0  0 
  9 10  1  0  0  0  0 
 10 11  1  0  0  0  0 
 10 12  1  0  0  0  0 
 10 13  1  0  0  0  0 
 13 14  1  0  0  0  0 
 13 15  1  0  0  0  0 
 15 16  1  0  0  0  0 
 15 17  1  0  0  0  0 
 15 18  1  0  0  0  0 
 13 19  1  0  0  0  0 
 19 20  2  0  0  0  0 
 19 21  1  0  0  0  0 
 21 22  1  0  0  0  0 
  9 23  1  0  0  0  0 
 23 24  2  0  0  0  0 
 23 25  1  0  0  0  0 
 25 26  1  0  0  0  0 
 25 27  1  0  0  0  0 
 27 28  2  0  0  0  0 
 27 29  1  0  0  0  0 
 29 30  1  0  0  0  0 
 29 31  1  0  0  0  0 
  9 31  1  0  0  0  0 
 31 32  2  0  0  0  0 
M  END
> <Rank>
1

> <Priority_score>
0.408

> <Reaction_type>
carboxylation_(primary_carbon_next_to_tert_carbon)

> <Parent_ID>
3

> <Parent_InChI>
InChI=1S/C11H16N2O3/c1-4-5-11(6-7(2)3)8(14)12-10(16)13-9(11)15/h4,7H,1,5-6H2,2-3H3,(H2,12,13,14,15,16)

> <Parent_SMILES>
C=CCC1(CC(C)C)C(=O)NC(=O)NC1=O

$$$$
Molecule 3_metabolite 3
  CDK     0516241031

 33 33  0  0  0  0  0  0  0  0999 V2000
   -7.4967   -4.3460    0.0000 C   0  0  0  0  0  0  0  0  0  0  0  0
   -8.9740   -4.0857    0.0000 H   0  0  0  0  0  0  0  0  0  0  0  0
   -6.9835   -5.7555    0.0000 H   0  0  0  0  0  0  0  0  0  0  0  0
   -6.5327   -3.1968    0.0000 C   0  0  0  0  0  0  0  0  0  0  0  0
   -7.0458   -1.7873    0.0000 H   0  0  0  0  0  0  0  0  0  0  0  0
   -4.5827   -3.5404    0.0000 C   0  0  0  0  0  0  0  0  0  0  0  0
   -2.8679   -4.5302    0.0000 H   0  0  0  0  0  0  0  0  0  0  0  0
   -5.0956   -4.9500    0.0000 H   0  0  0  0  0  0  0  0  0  0  0  0
   -3.3102   -2.0235    0.0000 C   0  0  0  0  0  0  0  0  0  0  0  0
   -2.3457   -3.1724    0.0000 C   0  0  0  0  0  0  0  0  0  0  0  0
   -3.6446   -3.9227    0.0000 H   0  0  0  0  0  0  0  0  0  0  0  0
   -1.8324   -4.5818    0.0000 H   0  0  0  0  0  0  0  0  0  0  0  0
   -0.3959   -2.8281    0.0000 C   0  0  0  0  0  0  0  0  0  0  0  0
    0.9030   -2.0779    0.0000 H   0  0  0  0  0  0  0  0  0  0  0  0
    0.0308   -0.4054    0.0000 C   0  0  0  0  0  0  0  0  0  0  0  0
   -1.1185    0.5585    0.0000 H   0  0  0  0  0  0  0  0  0  0  0  0
    1.2603    1.7253    0.0000 H   0  0  0  0  0  0  0  0  0  0  0  0
    1.4404   -0.9182    0.0000 H   0  0  0  0  0  0  0  0  0  0  0  0
    0.5685   -3.9770    0.0000 C   0  0  0  0  0  0  0  0  0  0  0  0
    1.5325   -2.8277    0.0000 H   0  0  0  0  0  0  0  0  0  0  0  0
    1.8677   -4.7267    0.0000 H   0  0  0  0  0  0  0  0  0  0  0  0
    0.0558   -5.3867    0.0000 O   0  0  0  0  0  0  0  0  0  0  0  0
    1.0202   -6.5355    0.0000 H   0  0  0  0  0  0  0  0  0  0  0  0
   -4.6092   -1.2735    0.0000 C   0  0  0  0  0  0  0  0  0  0  0  0
   -5.9084   -2.0233    0.0000 O   0  0  0  0  0  0  0  0  0  0  0  0
   -4.6087    0.2273    0.0000 N   0  0  0  0  0  0  0  0  0  0  0  0
   -5.9078    0.9773    0.0000 H   0  0  0  0  0  0  0  0  0  0  0  0
   -3.3092    0.9781    0.0000 C   0  0  0  0  0  0  0  0  0  0  0  0
   -3.3094    2.4781    0.0000 O   0  0  0  0  0  0  0  0  0  0  0  0
   -2.0102    0.2281    0.0000 N   0  0  0  0  0  0  0  0  0  0  0  0
    0.1205    1.4578    0.0000 H   0  0  0  0  0  0  0  0  0  0  0  0
   -2.0106   -1.2727    0.0000 C   0  0  0  0  0  0  0  0  0  0  0  0
   -0.7116   -2.0227    0.0000 O   0  0  0  0  0  0  0  0  0  0  0  0
  1  2  1  0  0  0  0 
  1  3  1  0  0  0  0 
  1  4  2  0  0  0  0 
  4  5  1  0  0  0  0 
  4  6  1  0  0  0  0 
  6  7  1  0  0  0  0 
  6  8  1  0  0  0  0 
  6  9  1  0  0  0  0 
  9 10  1  0  0  0  0 
 10 11  1  0  0  0  0 
 10 12  1  0  0  0  0 
 10 13  1  0  0  0  0 
 13 14  1  0  0  0  0 
 13 15  1  0  0  0  0 
 15 16  1  0  0  0  0 
 15 17  1  0  0  0  0 
 15 18  1  0  0  0  0 
 13 19  1  0  0  0  0 
 19 20  1  0  0  0  0 
 19 21  1  0  0  0  0 
 19 22  1  0  0  0  0 
 22 23  1  0  0  0  0 
  9 24  1  0  0  0  0 
 24 25  2  0  0  0  0 
 24 26  1  0  0  0  0 
 26 27  1  0  0  0  0 
 26 28  1  0  0  0  0 
 28 29  2  0  0  0  0 
 28 30  1  0  0  0  0 
 30 31  1  0  0  0  0 
 30 32  1  0  0  0  0 
  9 32  1  0  0  0  0 
 32 33  2  0  0  0  0 
M  END
> <Rank>
1

> <Priority_score>
0.408

> <Reaction_type>
aliphatic_hydroxylation_(primary_carbon_next_to_tert_carbon)

> <Parent_ID>
3

> <Parent_InChI>
InChI=1S/C11H16N2O3/c1-4-5-11(6-7(2)3)8(14)12-10(16)13-9(11)15/h4,7H,1,5-6H2,2-3H3,(H2,12,13,14,15,16)

> <Parent_SMILES>
C=CCC1(CC(C)C)C(=O)NC(=O)NC1=O

$$$$
Molecule 3_metabolite 4
  CDK     0516241031

 33 34  0  0  0  0  0  0  0  0999 V2000
    1.3084    2.6171    0.0000 C   0  0  0  0  0  0  0  0  0  0  0  0
    1.3089    1.1171    0.0000 H   0  0  0  0  0  0  0  0  0  0  0  0
    1.8210    4.0268    0.0000 H   0  0  0  0  0  0  0  0  0  0  0  0
    2.7857    2.3571    0.0000 H   0  0  0  0  0  0  0  0  0  0  0  0
   -0.4067    3.6066    0.0000 C   0  0  0  0  0  0  0  0  0  0  0  0
    0.5571    4.7559    0.0000 H   0  0  0  0  0  0  0  0  0  0  0  0
   -1.6799    5.1229    0.0000 C   0  0  0  0  0  0  0  0  0  0  0  0
   -3.1570    4.8620    0.0000 H   0  0  0  0  0  0  0  0  0  0  0  0
   -2.1934    6.5323    0.0000 H   0  0  0  0  0  0  0  0  0  0  0  0
   -0.3811    5.8733    0.0000 H   0  0  0  0  0  0  0  0  0  0  0  0
   -1.7055    2.8561    0.0000 C   0  0  0  0  0  0  0  0  0  0  0  0
   -3.1826    2.5952    0.0000 H   0  0  0  0  0  0  0  0  0  0  0  0
   -2.2189    4.2655    0.0000 H   0  0  0  0  0  0  0  0  0  0  0  0
   -1.7048    0.8761    0.0000 C   0  0  0  0  0  0  0  0  0  0  0  0
   -3.1822    1.1360    0.0000 C   0  0  0  0  0  0  0  0  0  0  0  0
   -2.4327    2.4353    0.0000 H   0  0  0  0  0  0  0  0  0  0  0  0
   -5.7289    2.6049    0.0000 H   0  0  0  0  0  0  0  0  0  0  0  0
   -4.4542   -0.3813    0.0000 C   0  0  0  0  0  0  0  0  0  0  0  0
   -3.4898   -1.5302    0.0000 H   0  0  0  0  0  0  0  0  0  0  0  0
   -5.7545    0.3683    0.0000 C   0  0  0  0  0  0  0  0  0  0  0  0
   -7.2318    0.6281    0.0000 H   0  0  0  0  0  0  0  0  0  0  0  0
   -5.2422    1.7781    0.0000 H   0  0  0  0  0  0  0  0  0  0  0  0
   -5.7540   -1.1317    0.0000 O   0  0  0  0  0  0  0  0  0  0  0  0
   -0.2277    1.1369    0.0000 C   0  0  0  0  0  0  0  0  0  0  0  0
    0.2853    2.5465    0.0000 O   0  0  0  0  0  0  0  0  0  0  0  0
    0.7369   -0.0129    0.0000 N   0  0  0  0  0  0  0  0  0  0  0  0
    2.2141    0.2479    0.0000 H   0  0  0  0  0  0  0  0  0  0  0  0
    0.2244   -1.4235    0.0000 C   0  0  0  0  0  0  0  0  0  0  0  0
    1.1890   -2.5722    0.0000 O   0  0  0  0  0  0  0  0  0  0  0  0
   -1.2528   -1.6843    0.0000 N   0  0  0  0  0  0  0  0  0  0  0  0
   -1.7658   -3.0938    0.0000 H   0  0  0  0  0  0  0  0  0  0  0  0
   -2.2174   -0.5344    0.0000 C   0  0  0  0  0  0  0  0  0  0  0  0
   -3.6945   -0.7952    0.0000 O   0  0  0  0  0  0  0  0  0  0  0  0
  1  2  1  0  0  0  0 
  1  3  1  0  0  0  0 
  1  4  1  0  0  0  0 
  1  5  1  0  0  0  0 
  5  6  1  0  0  0  0 
  5  7  1  0  0  0  0 
  7  8  1  0  0  0  0 
  7  9  1  0  0  0  0 
  7 10  1  0  0  0  0 
  5 11  1  0  0  0  0 
 11 12  1  0  0  0  0 
 11 13  1  0  0  0  0 
 11 14  1  0  0  0  0 
 14 15  1  0  0  0  0 
 15 16  1  0  0  0  0 
 15 17  1  0  0  0  0 
 15 18  1  0  0  0  0 
 18 19  1  0  0  0  0 
 18 20  1  0  0  0  0 
 20 21  1  0  0  0  0 
 20 22  1  0  0  0  0 
 20 23  1  0  0  0  0 
 18 23  1  0  0  0  0 
 14 24  1  0  0  0  0 
 24 25  2  0  0  0  0 
 24 26  1  0  0  0  0 
 26 27  1  0  0  0  0 
 26 28  1  0  0  0  0 
 28 29  2  0  0  0  0 
 28 30  1  0  0  0  0 
 30 31  1  0  0  0  0 
 30 32  1  0  0  0  0 
 14 32  1  0  0  0  0 
 32 33  2  0  0  0  0 
M  END
> <Rank>
4

> <Priority_score>
0.372

> <Reaction_type>
epoxidation

> <Parent_ID>
3

> <Parent_InChI>
InChI=1S/C11H16N2O3/c1-4-5-11(6-7(2)3)8(14)12-10(16)13-9(11)15/h4,7H,1,5-6H2,2-3H3,(H2,12,13,14,15,16)

> <Parent_SMILES>
C=CCC1(CC(C)C)C(=O)NC(=O)NC1=O

$$$$
Molecule 3_metabolite 5
  CDK     0516241031

 36 36  0  0  0  0  0  0  0  0999 V2000
   -0.9429   -0.3233    0.0000 C   0  0  0  0  0  0  0  0  0  0  0  0
   -2.4201   -0.0630    0.0000 H   0  0  0  0  0  0  0  0  0  0  0  0
    0.5343   -0.0627    0.0000 H   0  0  0  0  0  0  0  0  0  0  0  0
   -0.9431    1.1767    0.0000 H   0  0  0  0  0  0  0  0  0  0  0  0
   -0.2655   -2.1838    0.0000 C   0  0  0  0  0  0  0  0  0  0  0  0
    1.0335   -1.4337    0.0000 H   0  0  0  0  0  0  0  0  0  0  0  0
    1.0074   -3.7005    0.0000 C   0  0  0  0  0  0  0  0  0  0  0  0
    0.4945   -5.1100    0.0000 H   0  0  0  0  0  0  0  0  0  0  0  0
    2.3065   -4.4503    0.0000 H   0  0  0  0  0  0  0  0  0  0  0  0
    1.9714   -2.5513    0.0000 H   0  0  0  0  0  0  0  0  0  0  0  0
   -1.2296   -3.3330    0.0000 C   0  0  0  0  0  0  0  0  0  0  0  0
   -1.7424   -4.7426    0.0000 H   0  0  0  0  0  0  0  0  0  0  0  0
    0.0696   -4.0829    0.0000 H   0  0  0  0  0  0  0  0  0  0  0  0
   -4.1249   -2.8228    0.0000 C   0  0  0  0  0  0  0  0  0  0  0  0
   -4.1249   -4.3228    0.0000 C   0  0  0  0  0  0  0  0  0  0  0  0
   -2.1750   -3.9790    0.0000 H   0  0  0  0  0  0  0  0  0  0  0  0
   -3.6119   -5.7323    0.0000 H   0  0  0  0  0  0  0  0  0  0  0  0
   -6.6711   -5.7928    0.0000 C   0  0  0  0  0  0  0  0  0  0  0  0
   -8.1483   -6.0532    0.0000 H   0  0  0  0  0  0  0  0  0  0  0  0
   -6.6711   -7.2928    0.0000 C   0  0  0  0  0  0  0  0  0  0  0  0
   -8.1483   -7.0323    0.0000 H   0  0  0  0  0  0  0  0  0  0  0  0
   -7.1841   -8.7023    0.0000 H   0  0  0  0  0  0  0  0  0  0  0  0
   -5.3720   -8.0428    0.0000 O   0  0  0  0  0  0  0  0  0  0  0  0
   -5.3720   -9.5428    0.0000 H   0  0  0  0  0  0  0  0  0  0  0  0
   -7.1841   -4.3832    0.0000 O   0  0  0  0  0  0  0  0  0  0  0  0
   -8.6613   -4.1228    0.0000 H   0  0  0  0  0  0  0  0  0  0  0  0
   -3.6122   -1.4131    0.0000 C   0  0  0  0  0  0  0  0  0  0  0  0
   -2.1351   -1.1521    0.0000 O   0  0  0  0  0  0  0  0  0  0  0  0
   -4.5775   -0.2639    0.0000 N   0  0  0  0  0  0  0  0  0  0  0  0
   -4.0648    1.1457    0.0000 H   0  0  0  0  0  0  0  0  0  0  0  0
   -6.0556   -0.5244    0.0000 C   0  0  0  0  0  0  0  0  0  0  0  0
   -7.0198    0.6246    0.0000 O   0  0  0  0  0  0  0  0  0  0  0  0
   -6.5683   -1.9340    0.0000 N   0  0  0  0  0  0  0  0  0  0  0  0
   -8.0454   -2.1951    0.0000 H   0  0  0  0  0  0  0  0  0  0  0  0
   -5.6030   -3.0832    0.0000 C   0  0  0  0  0  0  0  0  0  0  0  0
   -6.1157   -4.4929    0.0000 O   0  0  0  0  0  0  0  0  0  0  0  0
  1  2  1  0  0  0  0 
  1  3  1  0  0  0  0 
  1  4  1  0  0  0  0 
  1  5  1  0  0  0  0 
  5  6  1  0  0  0  0 
  5  7  1  0  0  0  0 
  7  8  1  0  0  0  0 
  7  9  1  0  0  0  0 
  7 10  1  0  0  0  0 
  5 11  1  0  0  0  0 
 11 12  1  0  0  0  0 
 11 13  1  0  0  0  0 
 11 14  1  0  0  0  0 
 14 15  1  0  0  0  0 
 15 16  1  0  0  0  0 
 15 17  1  0  0  0  0 
 15 18  1  0  0  0  0 
 18 19  1  0  0  0  0 
 18 20  1  0  0  0  0 
 20 21  1  0  0  0  0 
 20 22  1  0  0  0  0 
 20 23  1  0  0  0  0 
 23 24  1  0  0  0  0 
 18 25  1  0  0  0  0 
 25 26  1  0  0  0  0 
 14 27  1  0  0  0  0 
 27 28  2  0  0  0  0 
 27 29  1  0  0  0  0 
 29 30  1  0  0  0  0 
 29 31  1  0  0  0  0 
 31 32  2  0  0  0  0 
 31 33  1  0  0  0  0 
 33 34  1  0  0  0  0 
 33 35  1  0  0  0  0 
 14 35  1  0  0  0  0 
 35 36  2  0  0  0  0 
M  END
> <Rank>
4

> <Priority_score>
0.372

> <Reaction_type>
vinyl_oxidation

> <Parent_ID>
3

> <Parent_InChI>
InChI=1S/C11H16N2O3/c1-4-5-11(6-7(2)3)8(14)12-10(16)13-9(11)15/h4,7H,1,5-6H2,2-3H3,(H2,12,13,14,15,16)

> <Parent_SMILES>
C=CCC1(CC(C)C)C(=O)NC(=O)NC1=O

$$$$
Molecule 3_metabolite 6
  CDK     0516241031

 33 33  0  0  0  0  0  0  0  0999 V2000
    0.2319   -5.8254    0.0000 C   0  0  0  0  0  0  0  0  0  0  0  0
    1.5311   -6.5750    0.0000 H   0  0  0  0  0  0  0  0  0  0  0  0
   -1.0669   -6.5758    0.0000 H   0  0  0  0  0  0  0  0  0  0  0  0
    0.2314   -4.3254    0.0000 C   0  0  0  0  0  0  0  0  0  0  0  0
    1.5302   -3.5750    0.0000 H   0  0  0  0  0  0  0  0  0  0  0  0
   -1.4837   -3.3359    0.0000 C   0  0  0  0  0  0  0  0  0  0  0  0
   -2.8934   -2.8233    0.0000 H   0  0  0  0  0  0  0  0  0  0  0  0
   -1.4841   -1.8359    0.0000 C   0  0  0  0  0  0  0  0  0  0  0  0
   -3.4340   -2.1802    0.0000 C   0  0  0  0  0  0  0  0  0  0  0  0
   -2.9207   -3.5896    0.0000 H   0  0  0  0  0  0  0  0  0  0  0  0
   -4.7329   -2.9304    0.0000 H   0  0  0  0  0  0  0  0  0  0  0  0
   -4.3984   -1.0313    0.0000 C   0  0  0  0  0  0  0  0  0  0  0  0
   -5.6976   -0.2816    0.0000 H   0  0  0  0  0  0  0  0  0  0  0  0
   -3.7216    0.8294    0.0000 C   0  0  0  0  0  0  0  0  0  0  0  0
   -2.2445    1.0902    0.0000 H   0  0  0  0  0  0  0  0  0  0  0  0
   -5.1989    1.0896    0.0000 H   0  0  0  0  0  0  0  0  0  0  0  0
   -3.7219    2.3294    0.0000 H   0  0  0  0  0  0  0  0  0  0  0  0
   -5.6708   -2.5483    0.0000 C   0  0  0  0  0  0  0  0  0  0  0  0
   -5.1575   -3.9578    0.0000 H   0  0  0  0  0  0  0  0  0  0  0  0
   -6.9697   -3.2986    0.0000 H   0  0  0  0  0  0  0  0  0  0  0  0
   -6.6352   -1.3995    0.0000 H   0  0  0  0  0  0  0  0  0  0  0  0
   -0.0068   -2.0958    0.0000 C   0  0  0  0  0  0  0  0  0  0  0  0
    0.5070   -3.5050    0.0000 O   0  0  0  0  0  0  0  0  0  0  0  0
    0.9570   -0.9453    0.0000 N   0  0  0  0  0  0  0  0  0  0  0  0
    2.4344   -1.2052    0.0000 H   0  0  0  0  0  0  0  0  0  0  0  0
    0.4436    0.4649    0.0000 C   0  0  0  0  0  0  0  0  0  0  0  0
    1.4074    1.6143    0.0000 O   0  0  0  0  0  0  0  0  0  0  0  0
   -1.0338    0.7248    0.0000 N   0  0  0  0  0  0  0  0  0  0  0  0
   -1.5476    2.1340    0.0000 H   0  0  0  0  0  0  0  0  0  0  0  0
   -1.9976   -0.4257    0.0000 C   0  0  0  0  0  0  0  0  0  0  0  0
   -3.4749   -0.1658    0.0000 O   0  0  0  0  0  0  0  0  0  0  0  0
   -1.9962   -4.7456    0.0000 O   0  0  0  0  0  0  0  0  0  0  0  0
   -3.4734   -5.0066    0.0000 H   0  0  0  0  0  0  0  0  0  0  0  0
  1  2  1  0  0  0  0 
  1  3  1  0  0  0  0 
  1  4  2  0  0  0  0 
  4  5  1  0  0  0  0 
  4  6  1  0  0  0  0 
  6  7  1  0  0  0  0 
  6  8  1  0  0  0  0 
  8  9  1  0  0  0  0 
  9 10  1  0  0  0  0 
  9 11  1  0  0  0  0 
  9 12  1  0  0  0  0 
 12 13  1  0  0  0  0 
 12 14  1  0  0  0  0 
 14 15  1  0  0  0  0 
 14 16  1  0  0  0  0 
 14 17  1  0  0  0  0 
 12 18  1  0  0  0  0 
 18 19  1  0  0  0  0 
 18 20  1  0  0  0  0 
 18 21  1  0  0  0  0 
  8 22  1  0  0  0  0 
 22 23  2  0  0  0  0 
 22 24  1  0  0  0  0 
 24 25  1  0  0  0  0 
 24 26  1  0  0  0  0 
 26 27  2  0  0  0  0 
 26 28  1  0  0  0  0 
 28 29  1  0  0  0  0 
 28 30  1  0  0  0  0 
  8 30  1  0  0  0  0 
 30 31  2  0  0  0  0 
  6 32  1  0  0  0  0 
 32 33  1  0  0  0  0 
M  END
> <Rank>
6

> <Priority_score>
0.364

> <Reaction_type>
aliphatic_hydroxylation_(sec_carbon_next_to_SP2,not_in_a_ring)

> <Parent_ID>
3

> <Parent_InChI>
InChI=1S/C11H16N2O3/c1-4-5-11(6-7(2)3)8(14)12-10(16)13-9(11)15/h4,7H,1,5-6H2,2-3H3,(H2,12,13,14,15,16)

> <Parent_SMILES>
C=CCC1(CC(C)C)C(=O)NC(=O)NC1=O

$$$$
Molecule 3_metabolite 7
  CDK     0516241031

 52 53  0  0  0  0  0  0  0  0999 V2000
    3.6737    2.5125    0.0000 C   0  0  0  0  0  0  0  0  0  0  0  0
    2.3647    3.2449    0.0000 H   0  0  0  0  0  0  0  0  0  0  0  0
    4.9626    3.2799    0.0000 H   0  0  0  0  0  0  0  0  0  0  0  0
    3.6939    1.0126    0.0000 C   0  0  0  0  0  0  0  0  0  0  0  0
    2.4051    0.2452    0.0000 H   0  0  0  0  0  0  0  0  0  0  0  0
    5.4219    0.0458    0.0000 C   0  0  0  0  0  0  0  0  0  0  0  0
    6.9024   -0.1948    0.0000 H   0  0  0  0  0  0  0  0  0  0  0  0
    5.9159    1.4621    0.0000 H   0  0  0  0  0  0  0  0  0  0  0  0
    5.4615   -2.8940    0.0000 C   0  0  0  0  0  0  0  0  0  0  0  0
    3.9822   -2.6451    0.0000 C   0  0  0  0  0  0  0  0  0  0  0  0
    4.4842   -1.2316    0.0000 H   0  0  0  0  0  0  0  0  0  0  0  0
    2.6774   -1.9053    0.0000 H   0  0  0  0  0  0  0  0  0  0  0  0
    2.7215   -4.1718    0.0000 C   0  0  0  0  0  0  0  0  0  0  0  0
    1.4284   -4.9320    0.0000 H   0  0  0  0  0  0  0  0  0  0  0  0
    3.2456   -5.5773    0.0000 C   0  0  0  0  0  0  0  0  0  0  0  0
    4.7248   -5.8261    0.0000 H   0  0  0  0  0  0  0  0  0  0  0  0
    1.7705   -5.8494    0.0000 H   0  0  0  0  0  0  0  0  0  0  0  0
    3.2574   -7.0773    0.0000 H   0  0  0  0  0  0  0  0  0  0  0  0
    1.1255   -2.2999    0.0000 C   0  0  0  0  0  0  0  0  0  0  0  0
    1.6274   -0.8863    0.0000 H   0  0  0  0  0  0  0  0  0  0  0  0
   -1.0146   -1.0867    0.0000 H   0  0  0  0  0  0  0  0  0  0  0  0
    0.1704   -3.4565    0.0000 H   0  0  0  0  0  0  0  0  0  0  0  0
    4.9462   -4.3197    0.0000 C   0  0  0  0  0  0  0  0  0  0  0  0
    3.4747   -4.6109    0.0000 O   0  0  0  0  0  0  0  0  0  0  0  0
    5.9598   -5.4356    0.0000 N   0  0  0  0  0  0  0  0  0  0  0  0
    5.0353   -8.2264    0.0000 H   0  0  0  0  0  0  0  0  0  0  0  0
    7.4318   -5.1470    0.0000 C   0  0  0  0  0  0  0  0  0  0  0  0
    8.4160   -6.2789    0.0000 O   0  0  0  0  0  0  0  0  0  0  0  0
    7.9195   -3.7368    0.0000 N   0  0  0  0  0  0  0  0  0  0  0  0
    9.3920   -3.4506    0.0000 C   0  0  0  0  0  0  0  0  0  0  0  0
    8.8547   -2.0502    0.0000 H   0  0  0  0  0  0  0  0  0  0  0  0
   10.6780   -2.6784    0.0000 C   0  0  0  0  0  0  0  0  0  0  0  0
    9.6943   -1.5460    0.0000 H   0  0  0  0  0  0  0  0  0  0  0  0
   11.9902   -3.4068    0.0000 C   0  0  0  0  0  0  0  0  0  0  0  0
   12.4791   -1.9887    0.0000 H   0  0  0  0  0  0  0  0  0  0  0  0
   12.0165   -4.9074    0.0000 C   0  0  0  0  0  0  0  0  0  0  0  0
   13.4889   -4.6212    0.0000 H   0  0  0  0  0  0  0  0  0  0  0  0
   10.7305   -5.6796    0.0000 C   0  0  0  0  0  0  0  0  0  0  0  0
   11.7142   -6.8120    0.0000 H   0  0  0  0  0  0  0  0  0  0  0  0
    9.4837   -7.2178    0.0000 C   0  0  0  0  0  0  0  0  0  0  0  0
    8.0023   -6.9824    0.0000 O   0  0  0  0  0  0  0  0  0  0  0  0
   10.0206   -8.6184    0.0000 O   0  0  0  0  0  0  0  0  0  0  0  0
   11.5020   -8.8537    0.0000 H   0  0  0  0  0  0  0  0  0  0  0  0
    9.4183   -4.9512    0.0000 O   0  0  0  0  0  0  0  0  0  0  0  0
   12.5538   -6.3078    0.0000 O   0  0  0  0  0  0  0  0  0  0  0  0
   14.0353   -6.5427    0.0000 H   0  0  0  0  0  0  0  0  0  0  0  0
   13.4717   -3.6417    0.0000 O   0  0  0  0  0  0  0  0  0  0  0  0
   14.4159   -2.4761    0.0000 H   0  0  0  0  0  0  0  0  0  0  0  0
   11.6225   -1.5131    0.0000 O   0  0  0  0  0  0  0  0  0  0  0  0
   11.0856   -0.1125    0.0000 H   0  0  0  0  0  0  0  0  0  0  0  0
    6.9334   -2.6053    0.0000 C   0  0  0  0  0  0  0  0  0  0  0  0
    7.4197   -1.1864    0.0000 O   0  0  0  0  0  0  0  0  0  0  0  0
  1  2  1  0  0  0  0 
  1  3  1  0  0  0  0 
  1  4  2  0  0  0  0 
  4  5  1  0  0  0  0 
  4  6  1  0  0  0  0 
  6  7  1  0  0  0  0 
  6  8  1  0  0  0  0 
  6  9  1  0  0  0  0 
  9 10  1  0  0  0  0 
 10 11  1  0  0  0  0 
 10 12  1  0  0  0  0 
 10 13  1  0  0  0  0 
 13 14  1  0  0  0  0 
 13 15  1  0  0  0  0 
 15 16  1  0  0  0  0 
 15 17  1  0  0  0  0 
 15 18  1  0  0  0  0 
 13 19  1  0  0  0  0 
 19 20  1  0  0  0  0 
 19 21  1  0  0  0  0 
 19 22  1  0  0  0  0 
  9 23  1  0  0  0  0 
 23 24  2  0  0  0  0 
 23 25  1  0  0  0  0 
 25 26  1  0  0  0  0 
 25 27  1  0  0  0  0 
 27 28  2  0  0  0  0 
 27 29  1  0  0  0  0 
 29 30  1  0  0  0  0 
 30 31  1  0  0  0  0 
 30 32  1  0  0  0  0 
 32 33  1  0  0  0  0 
 32 34  1  0  0  0  0 
 34 35  1  0  0  0  0 
 34 36  1  0  0  0  0 
 36 37  1  0  0  0  0 
 36 38  1  0  0  0  0 
 38 39  1  0  0  0  0 
 38 40  1  0  0  0  0 
 40 41  2  0  0  0  0 
 40 42  1  0  0  0  0 
 42 43  1  0  0  0  0 
 38 44  1  0  0  0  0 
 30 44  1  0  0  0  0 
 36 45  1  0  0  0  0 
 45 46  1  0  0  0  0 
 34 47  1  0  0  0  0 
 47 48  1  0  0  0  0 
 32 49  1  0  0  0  0 
 49 50  1  0  0  0  0 
 29 51  1  0  0  0  0 
  9 51  1  0  0  0  0 
 51 52  2  0  0  0  0 
M  END
> <Rank>
7

> <Priority_score>
0.27983635247159966

> <Reaction_type>
N-glucuronidation_(NH_in_a_ring)

> <Parent_ID>
3

> <Parent_InChI>
InChI=1S/C11H16N2O3/c1-4-5-11(6-7(2)3)8(14)12-10(16)13-9(11)15/h4,7H,1,5-6H2,2-3H3,(H2,12,13,14,15,16)

> <Parent_SMILES>
C=CCC1(CC(C)C)C(=O)NC(=O)NC1=O

$$$$
Molecule 3_metabolite 8
  CDK     0516241031

 35 34  0  0  0  0  0  0  0  0999 V2000
    2.4339   -3.1956    0.0000 C   0  0  0  0  0  0  0  0  0  0  0  0
    1.1349   -2.4456    0.0000 H   0  0  0  0  0  0  0  0  0  0  0  0
    2.4339   -4.6956    0.0000 H   0  0  0  0  0  0  0  0  0  0  0  0
    3.7329   -2.4456    0.0000 C   0  0  0  0  0  0  0  0  0  0  0  0
    3.7329   -0.9456    0.0000 H   0  0  0  0  0  0  0  0  0  0  0  0
    5.0320   -3.1956    0.0000 C   0  0  0  0  0  0  0  0  0  0  0  0
    4.0678   -4.3447    0.0000 H   0  0  0  0  0  0  0  0  0  0  0  0
    5.9962   -4.3447    0.0000 H   0  0  0  0  0  0  0  0  0  0  0  0
    6.3310   -2.4456    0.0000 C   0  0  0  0  0  0  0  0  0  0  0  0
    6.3310   -0.4656    0.0000 C   0  0  0  0  0  0  0  0  0  0  0  0
    4.8538   -0.7261    0.0000 H   0  0  0  0  0  0  0  0  0  0  0  0
    5.8180    0.9439    0.0000 H   0  0  0  0  0  0  0  0  0  0  0  0
    8.0458    0.5244    0.0000 C   0  0  0  0  0  0  0  0  0  0  0  0
    9.0099    1.6734    0.0000 H   0  0  0  0  0  0  0  0  0  0  0  0
    9.3448   -0.2256    0.0000 C   0  0  0  0  0  0  0  0  0  0  0  0
    9.3448   -1.7256    0.0000 H   0  0  0  0  0  0  0  0  0  0  0  0
    9.8578    1.1839    0.0000 H   0  0  0  0  0  0  0  0  0  0  0  0
   10.8220   -0.4861    0.0000 H   0  0  0  0  0  0  0  0  0  0  0  0
    6.7730    2.0411    0.0000 C   0  0  0  0  0  0  0  0  0  0  0  0
    5.2958    1.7806    0.0000 H   0  0  0  0  0  0  0  0  0  0  0  0
    6.2600    3.4507    0.0000 H   0  0  0  0  0  0  0  0  0  0  0  0
    8.0721    2.7911    0.0000 H   0  0  0  0  0  0  0  0  0  0  0  0
    7.8082   -2.1852    0.0000 C   0  0  0  0  0  0  0  0  0  0  0  0
    8.3213   -0.7756    0.0000 O   0  0  0  0  0  0  0  0  0  0  0  0
    9.0810   -3.7019    0.0000 N   0  0  0  0  0  0  0  0  0  0  0  0
    8.5679   -5.1115    0.0000 H   0  0  0  0  0  0  0  0  0  0  0  0
   11.0309   -3.3581    0.0000 C   0  0  0  0  0  0  0  0  0  0  0  0
   11.5439   -1.9486    0.0000 O   0  0  0  0  0  0  0  0  0  0  0  0
   11.9951   -4.5072    0.0000 N   0  0  0  0  0  0  0  0  0  0  0  0
   13.4723   -4.2467    0.0000 H   0  0  0  0  0  0  0  0  0  0  0  0
   11.4820   -5.9167    0.0000 H   0  0  0  0  0  0  0  0  0  0  0  0
    6.8441   -3.8552    0.0000 C   0  0  0  0  0  0  0  0  0  0  0  0
    8.3213   -4.1157    0.0000 O   0  0  0  0  0  0  0  0  0  0  0  0
    5.5713   -5.3720    0.0000 O   0  0  0  0  0  0  0  0  0  0  0  0
    6.0844   -6.7815    0.0000 H   0  0  0  0  0  0  0  0  0  0  0  0
  1  2  1  0  0  0  0 
  1  3  1  0  0  0  0 
  1  4  2  0  0  0  0 
  4  5  1  0  0  0  0 
  4  6  1  0  0  0  0 
  6  7  1  0  0  0  0 
  6  8  1  0  0  0  0 
  6  9  1  0  0  0  0 
  9 10  1  0  0  0  0 
 10 11  1  0  0  0  0 
 10 12  1  0  0  0  0 
 10 13  1  0  0  0  0 
 13 14  1  0  0  0  0 
 13 15  1  0  0  0  0 
 15 16  1  0  0  0  0 
 15 17  1  0  0  0  0 
 15 18  1  0  0  0  0 
 13 19  1  0  0  0  0 
 19 20  1  0  0  0  0 
 19 21  1  0  0  0  0 
 19 22  1  0  0  0  0 
  9 23  1  0  0  0  0 
 23 24  2  0  0  0  0 
 23 25  1  0  0  0  0 
 25 26  1  0  0  0  0 
 25 27  1  0  0  0  0 
 27 28  2  0  0  0  0 
 27 29  1  0  0  0  0 
 29 30  1  0  0  0  0 
 29 31  1  0  0  0  0 
  9 32  1  0  0  0  0 
 32 33  2  0  0  0  0 
 32 34  1  0  0  0  0 
 34 35  1  0  0  0  0 
M  END
> <Rank>
8

> <Priority_score>
0.248

> <Reaction_type>
hydrolysis_(secondary_amide)

> <Parent_ID>
3

> <Parent_InChI>
InChI=1S/C11H16N2O3/c1-4-5-11(6-7(2)3)8(14)12-10(16)13-9(11)15/h4,7H,1,5-6H2,2-3H3,(H2,12,13,14,15,16)

> <Parent_SMILES>
C=CCC1(CC(C)C)C(=O)NC(=O)NC1=O

$$$$
Molecule 3_metabolite 9
  CDK     0516241031

 35 34  0  0  0  0  0  0  0  0999 V2000
    5.2379    1.9417    0.0000 C   0  0  0  0  0  0  0  0  0  0  0  0
    5.2379    3.4417    0.0000 H   0  0  0  0  0  0  0  0  0  0  0  0
    3.9388    1.1917    0.0000 H   0  0  0  0  0  0  0  0  0  0  0  0
    6.5369    1.1917    0.0000 C   0  0  0  0  0  0  0  0  0  0  0  0
    7.8359    1.9417    0.0000 H   0  0  0  0  0  0  0  0  0  0  0  0
    6.5369   -0.3083    0.0000 C   0  0  0  0  0  0  0  0  0  0  0  0
    3.6416    0.2022    0.0000 H   0  0  0  0  0  0  0  0  0  0  0  0
    6.0239   -1.7178    0.0000 H   0  0  0  0  0  0  0  0  0  0  0  0
    7.8359   -1.0583    0.0000 C   0  0  0  0  0  0  0  0  0  0  0  0
    9.5507   -0.0683    0.0000 C   0  0  0  0  0  0  0  0  0  0  0  0
    8.5865    1.0808    0.0000 H   0  0  0  0  0  0  0  0  0  0  0  0
   10.5149    1.0808    0.0000 H   0  0  0  0  0  0  0  0  0  0  0  0
   12.0968   -1.5383    0.0000 C   0  0  0  0  0  0  0  0  0  0  0  0
   13.5740   -1.7988    0.0000 H   0  0  0  0  0  0  0  0  0  0  0  0
   12.0968   -3.0383    0.0000 C   0  0  0  0  0  0  0  0  0  0  0  0
   10.7977   -3.7883    0.0000 H   0  0  0  0  0  0  0  0  0  0  0  0
   13.5740   -2.7778    0.0000 H   0  0  0  0  0  0  0  0  0  0  0  0
   12.6098   -4.4478    0.0000 H   0  0  0  0  0  0  0  0  0  0  0  0
   12.6098   -0.1288    0.0000 C   0  0  0  0  0  0  0  0  0  0  0  0
   11.6456    1.0203    0.0000 H   0  0  0  0  0  0  0  0  0  0  0  0
   13.5740    1.0203    0.0000 H   0  0  0  0  0  0  0  0  0  0  0  0
   13.9089   -0.8788    0.0000 H   0  0  0  0  0  0  0  0  0  0  0  0
    8.8001   -2.2074    0.0000 C   0  0  0  0  0  0  0  0  0  0  0  0
   10.2773   -1.9469    0.0000 O   0  0  0  0  0  0  0  0  0  0  0  0
    8.1229   -4.0680    0.0000 N   0  0  0  0  0  0  0  0  0  0  0  0
    9.0871   -5.2170    0.0000 H   0  0  0  0  0  0  0  0  0  0  0  0
    6.6457   -4.3284    0.0000 H   0  0  0  0  0  0  0  0  0  0  0  0
    6.8718   -2.2074    0.0000 C   0  0  0  0  0  0  0  0  0  0  0  0
    7.3848   -3.6169    0.0000 O   0  0  0  0  0  0  0  0  0  0  0  0
    4.9218   -1.8635    0.0000 N   0  0  0  0  0  0  0  0  0  0  0  0
    4.4088   -0.4540    0.0000 H   0  0  0  0  0  0  0  0  0  0  0  0
    3.9577   -3.0126    0.0000 C   0  0  0  0  0  0  0  0  0  0  0  0
    4.4707   -4.4222    0.0000 O   0  0  0  0  0  0  0  0  0  0  0  0
    2.4804   -2.7521    0.0000 O   0  0  0  0  0  0  0  0  0  0  0  0
    1.5163   -3.9012    0.0000 H   0  0  0  0  0  0  0  0  0  0  0  0
  1  2  1  0  0  0  0 
  1  3  1  0  0  0  0 
  1  4  2  0  0  0  0 
  4  5  1  0  0  0  0 
  4  6  1  0  0  0  0 
  6  7  1  0  0  0  0 
  6  8  1  0  0  0  0 
  6  9  1  0  0  0  0 
  9 10  1  0  0  0  0 
 10 11  1  0  0  0  0 
 10 12  1  0  0  0  0 
 10 13  1  0  0  0  0 
 13 14  1  0  0  0  0 
 13 15  1  0  0  0  0 
 15 16  1  0  0  0  0 
 15 17  1  0  0  0  0 
 15 18  1  0  0  0  0 
 13 19  1  0  0  0  0 
 19 20  1  0  0  0  0 
 19 21  1  0  0  0  0 
 19 22  1  0  0  0  0 
  9 23  1  0  0  0  0 
 23 24  2  0  0  0  0 
 23 25  1  0  0  0  0 
 25 26  1  0  0  0  0 
 25 27  1  0  0  0  0 
  9 28  1  0  0  0  0 
 28 29  2  0  0  0  0 
 28 30  1  0  0  0  0 
 30 31  1  0  0  0  0 
 30 32  1  0  0  0  0 
 32 33  2  0  0  0  0 
 32 34  1  0  0  0  0 
 34 35  1  0  0  0  0 
M  END
> <Rank>
8

> <Priority_score>
0.248

> <Reaction_type>
hydrolysis_(urea_or_carbonate)

> <Parent_ID>
3

> <Parent_InChI>
InChI=1S/C11H16N2O3/c1-4-5-11(6-7(2)3)8(14)12-10(16)13-9(11)15/h4,7H,1,5-6H2,2-3H3,(H2,12,13,14,15,16)

> <Parent_SMILES>
C=CCC1(CC(C)C)C(=O)NC(=O)NC1=O

$$$$
Molecule 3_metabolite 10
  CDK     0516241031

 33 33  0  0  0  0  0  0  0  0999 V2000
   -5.2072    1.3290    0.0000 C   0  0  0  0  0  0  0  0  0  0  0  0
   -6.5065    2.0786    0.0000 H   0  0  0  0  0  0  0  0  0  0  0  0
   -3.9084    2.0794    0.0000 H   0  0  0  0  0  0  0  0  0  0  0  0
   -5.2067   -0.1710    0.0000 C   0  0  0  0  0  0  0  0  0  0  0  0
   -6.5055   -0.9214    0.0000 H   0  0  0  0  0  0  0  0  0  0  0  0
   -3.4917   -1.1604    0.0000 C   0  0  0  0  0  0  0  0  0  0  0  0
   -2.0820   -1.6730    0.0000 H   0  0  0  0  0  0  0  0  0  0  0  0
   -2.9791    0.2493    0.0000 H   0  0  0  0  0  0  0  0  0  0  0  0
   -3.4912   -2.6604    0.0000 C   0  0  0  0  0  0  0  0  0  0  0  0
   -1.5413   -2.3162    0.0000 C   0  0  0  0  0  0  0  0  0  0  0  0
   -2.0547   -0.9068    0.0000 H   0  0  0  0  0  0  0  0  0  0  0  0
   -0.2425   -1.5659    0.0000 H   0  0  0  0  0  0  0  0  0  0  0  0
   -0.5769   -3.4651    0.0000 C   0  0  0  0  0  0  0  0  0  0  0  0
    0.7223   -4.2148    0.0000 H   0  0  0  0  0  0  0  0  0  0  0  0
   -1.2537   -5.3258    0.0000 C   0  0  0  0  0  0  0  0  0  0  0  0
   -2.7309   -5.5866    0.0000 H   0  0  0  0  0  0  0  0  0  0  0  0
    0.2235   -5.5859    0.0000 H   0  0  0  0  0  0  0  0  0  0  0  0
   -1.2534   -6.8258    0.0000 H   0  0  0  0  0  0  0  0  0  0  0  0
    0.6955   -1.9480    0.0000 C   0  0  0  0  0  0  0  0  0  0  0  0
    0.1821   -0.5386    0.0000 H   0  0  0  0  0  0  0  0  0  0  0  0
    1.9944   -1.1977    0.0000 H   0  0  0  0  0  0  0  0  0  0  0  0
    1.6599   -3.0969    0.0000 H   0  0  0  0  0  0  0  0  0  0  0  0
   -4.9685   -2.4006    0.0000 C   0  0  0  0  0  0  0  0  0  0  0  0
   -5.4824   -0.9914    0.0000 O   0  0  0  0  0  0  0  0  0  0  0  0
   -5.9324   -3.5510    0.0000 N   0  0  0  0  0  0  0  0  0  0  0  0
   -7.4097   -3.2912    0.0000 H   0  0  0  0  0  0  0  0  0  0  0  0
   -5.4189   -4.9613    0.0000 C   0  0  0  0  0  0  0  0  0  0  0  0
   -6.3828   -6.1106    0.0000 O   0  0  0  0  0  0  0  0  0  0  0  0
   -3.9416   -5.2211    0.0000 N   0  0  0  0  0  0  0  0  0  0  0  0
   -2.9777   -4.0707    0.0000 C   0  0  0  0  0  0  0  0  0  0  0  0
   -1.5004   -4.3305    0.0000 O   0  0  0  0  0  0  0  0  0  0  0  0
   -3.4277   -6.6304    0.0000 O   0  0  0  0  0  0  0  0  0  0  0  0
   -4.3912   -7.7800    0.0000 H   0  0  0  0  0  0  0  0  0  0  0  0
  1  2  1  0  0  0  0 
  1  3  1  0  0  0  0 
  1  4  2  0  0  0  0 
  4  5  1  0  0  0  0 
  4  6  1  0  0  0  0 
  6  7  1  0  0  0  0 
  6  8  1  0  0  0  0 
  6  9  1  0  0  0  0 
  9 10  1  0  0  0  0 
 10 11  1  0  0  0  0 
 10 12  1  0  0  0  0 
 10 13  1  0  0  0  0 
 13 14  1  0  0  0  0 
 13 15  1  0  0  0  0 
 15 16  1  0  0  0  0 
 15 17  1  0  0  0  0 
 15 18  1  0  0  0  0 
 13 19  1  0  0  0  0 
 19 20  1  0  0  0  0 
 19 21  1  0  0  0  0 
 19 22  1  0  0  0  0 
  9 23  1  0  0  0  0 
 23 24  2  0  0  0  0 
 23 25  1  0  0  0  0 
 25 26  1  0  0  0  0 
 25 27  1  0  0  0  0 
 27 28  2  0  0  0  0 
 27 29  1  0  0  0  0 
 29 30  1  0  0  0  0 
  9 30  1  0  0  0  0 
 30 31  2  0  0  0  0 
 29 32  1  0  0  0  0 
 32 33  1  0  0  0  0 
M  END
> <Rank>
8

> <Priority_score>
0.248

> <Reaction_type>
amine hydroxylation

> <Parent_ID>
3

> <Parent_InChI>
InChI=1S/C11H16N2O3/c1-4-5-11(6-7(2)3)8(14)12-10(16)13-9(11)15/h4,7H,1,5-6H2,2-3H3,(H2,12,13,14,15,16)

> <Parent_SMILES>
C=CCC1(CC(C)C)C(=O)NC(=O)NC1=O

$$$$
Molecule 3_metabolite 11
  CDK     0516241031

 33 33  0  0  0  0  0  0  0  0999 V2000
    1.3933   -6.3750    0.0000 C   0  0  0  0  0  0  0  0  0  0  0  0
    2.6926   -7.1246    0.0000 H   0  0  0  0  0  0  0  0  0  0  0  0
    0.0945   -7.1254    0.0000 H   0  0  0  0  0  0  0  0  0  0  0  0
    1.3928   -4.8750    0.0000 C   0  0  0  0  0  0  0  0  0  0  0  0
    2.6916   -4.1246    0.0000 H   0  0  0  0  0  0  0  0  0  0  0  0
   -0.3222   -3.8855    0.0000 C   0  0  0  0  0  0  0  0  0  0  0  0
   -2.2723   -3.5423    0.0000 H   0  0  0  0  0  0  0  0  0  0  0  0
   -0.8348   -5.2952    0.0000 H   0  0  0  0  0  0  0  0  0  0  0  0
   -0.3229   -1.9055    0.0000 C   0  0  0  0  0  0  0  0  0  0  0  0
   -1.8000   -2.1663    0.0000 C   0  0  0  0  0  0  0  0  0  0  0  0
   -1.2867   -3.5758    0.0000 H   0  0  0  0  0  0  0  0  0  0  0  0
   -3.6903    0.0854    0.0000 C   0  0  0  0  0  0  0  0  0  0  0  0
   -4.9895    0.8352    0.0000 H   0  0  0  0  0  0  0  0  0  0  0  0
   -3.1776    1.4951    0.0000 C   0  0  0  0  0  0  0  0  0  0  0  0
   -1.7004    1.7559    0.0000 H   0  0  0  0  0  0  0  0  0  0  0  0
   -4.6548    1.7553    0.0000 H   0  0  0  0  0  0  0  0  0  0  0  0
   -3.1779    2.9951    0.0000 H   0  0  0  0  0  0  0  0  0  0  0  0
   -4.6542   -1.0638    0.0000 C   0  0  0  0  0  0  0  0  0  0  0  0
   -6.1315   -0.8037    0.0000 H   0  0  0  0  0  0  0  0  0  0  0  0
   -5.1670   -2.4735    0.0000 H   0  0  0  0  0  0  0  0  0  0  0  0
   -3.3550   -1.8135    0.0000 H   0  0  0  0  0  0  0  0  0  0  0  0
   -3.0989   -2.9166    0.0000 O   0  0  0  0  0  0  0  0  0  0  0  0
   -3.0986   -4.4166    0.0000 H   0  0  0  0  0  0  0  0  0  0  0  0
    1.1545   -2.1654    0.0000 C   0  0  0  0  0  0  0  0  0  0  0  0
    1.6683   -3.5746    0.0000 O   0  0  0  0  0  0  0  0  0  0  0  0
    2.1183   -1.0149    0.0000 N   0  0  0  0  0  0  0  0  0  0  0  0
    3.5956   -1.2748    0.0000 H   0  0  0  0  0  0  0  0  0  0  0  0
    1.6048    0.3953    0.0000 C   0  0  0  0  0  0  0  0  0  0  0  0
    2.5687    1.5446    0.0000 O   0  0  0  0  0  0  0  0  0  0  0  0
    0.1275    0.6552    0.0000 N   0  0  0  0  0  0  0  0  0  0  0  0
   -0.3863    2.0644    0.0000 H   0  0  0  0  0  0  0  0  0  0  0  0
   -0.8363   -0.4953    0.0000 C   0  0  0  0  0  0  0  0  0  0  0  0
   -2.3137   -0.2354    0.0000 O   0  0  0  0  0  0  0  0  0  0  0  0
  1  2  1  0  0  0  0 
  1  3  1  0  0  0  0 
  1  4  2  0  0  0  0 
  4  5  1  0  0  0  0 
  4  6  1  0  0  0  0 
  6  7  1  0  0  0  0 
  6  8  1  0  0  0  0 
  6  9  1  0  0  0  0 
  9 10  1  0  0  0  0 
 10 11  1  0  0  0  0 
 10 12  1  0  0  0  0 
 12 13  1  0  0  0  0 
 12 14  1  0  0  0  0 
 14 15  1  0  0  0  0 
 14 16  1  0  0  0  0 
 14 17  1  0  0  0  0 
 12 18  1  0  0  0  0 
 18 19  1  0  0  0  0 
 18 20  1  0  0  0  0 
 18 21  1  0  0  0  0 
 10 22  1  0  0  0  0 
 22 23  1  0  0  0  0 
  9 24  1  0  0  0  0 
 24 25  2  0  0  0  0 
 24 26  1  0  0  0  0 
 26 27  1  0  0  0  0 
 26 28  1  0  0  0  0 
 28 29  2  0  0  0  0 
 28 30  1  0  0  0  0 
 30 31  1  0  0  0  0 
 30 32  1  0  0  0  0 
  9 32  1  0  0  0  0 
 32 33  2  0  0  0  0 
M  END
> <Rank>
11

> <Priority_score>
0.13869473045407954

> <Reaction_type>
aliphatic hydroxylation

> <Parent_ID>
3

> <Parent_InChI>
InChI=1S/C11H16N2O3/c1-4-5-11(6-7(2)3)8(14)12-10(16)13-9(11)15/h4,7H,1,5-6H2,2-3H3,(H2,12,13,14,15,16)

> <Parent_SMILES>
C=CCC1(CC(C)C)C(=O)NC(=O)NC1=O

$$$$
Molecule 3_metabolite 12
  CDK     0516241031

 30 30  0  0  0  0  0  0  0  0999 V2000
   -3.8924    2.9400    0.0000 C   0  0  0  0  0  0  0  0  0  0  0  0
   -4.4056    4.3495    0.0000 H   0  0  0  0  0  0  0  0  0  0  0  0
   -4.8565    1.7908    0.0000 H   0  0  0  0  0  0  0  0  0  0  0  0
   -2.4152    2.6797    0.0000 C   0  0  0  0  0  0  0  0  0  0  0  0
   -1.4511    3.8289    0.0000 H   0  0  0  0  0  0  0  0  0  0  0  0
   -1.7378    0.8192    0.0000 C   0  0  0  0  0  0  0  0  0  0  0  0
   -1.7376   -1.1608    0.0000 H   0  0  0  0  0  0  0  0  0  0  0  0
   -3.2150    0.5585    0.0000 H   0  0  0  0  0  0  0  0  0  0  0  0
   -0.2606    0.5589    0.0000 C   0  0  0  0  0  0  0  0  0  0  0  0
   -1.1014   -1.7530    0.0000 C   0  0  0  0  0  0  0  0  0  0  0  0
   -2.8164   -0.7633    0.0000 H   0  0  0  0  0  0  0  0  0  0  0  0
   -2.0654   -2.9022    0.0000 H   0  0  0  0  0  0  0  0  0  0  0  0
    0.1716   -3.2695    0.0000 C   0  0  0  0  0  0  0  0  0  0  0  0
    1.6488   -3.0087    0.0000 C   0  0  0  0  0  0  0  0  0  0  0  0
    2.6132   -4.1575    0.0000 H   0  0  0  0  0  0  0  0  0  0  0  0
    2.1615   -1.5990    0.0000 H   0  0  0  0  0  0  0  0  0  0  0  0
   -0.3411   -4.6791    0.0000 C   0  0  0  0  0  0  0  0  0  0  0  0
   -1.8183   -4.9399    0.0000 H   0  0  0  0  0  0  0  0  0  0  0  0
    1.1361   -4.9393    0.0000 H   0  0  0  0  0  0  0  0  0  0  0  0
   -0.3408   -6.1791    0.0000 H   0  0  0  0  0  0  0  0  0  0  0  0
   -0.2606    2.0589    0.0000 C   0  0  0  0  0  0  0  0  0  0  0  0
   -1.5595    2.8091    0.0000 O   0  0  0  0  0  0  0  0  0  0  0  0
    1.0394    2.8089    0.0000 N   0  0  0  0  0  0  0  0  0  0  0  0
    1.0394    4.3089    0.0000 H   0  0  0  0  0  0  0  0  0  0  0  0
    2.3394    2.0589    0.0000 C   0  0  0  0  0  0  0  0  0  0  0  0
    3.6384    2.8091    0.0000 O   0  0  0  0  0  0  0  0  0  0  0  0
    2.3394    0.5589    0.0000 N   0  0  0  0  0  0  0  0  0  0  0  0
    3.6384   -0.1913    0.0000 H   0  0  0  0  0  0  0  0  0  0  0  0
    1.0394   -0.1911    0.0000 C   0  0  0  0  0  0  0  0  0  0  0  0
    1.0394   -1.6911    0.0000 O   0  0  0  0  0  0  0  0  0  0  0  0
  1  2  1  0  0  0  0 
  1  3  1  0  0  0  0 
  1  4  2  0  0  0  0 
  4  5  1  0  0  0  0 
  4  6  1  0  0  0  0 
  6  7  1  0  0  0  0 
  6  8  1  0  0  0  0 
  6  9  1  0  0  0  0 
  9 10  1  0  0  0  0 
 10 11  1  0  0  0  0 
 10 12  1  0  0  0  0 
 10 13  1  0  0  0  0 
 13 14  2  0  0  0  0 
 14 15  1  0  0  0  0 
 14 16  1  0  0  0  0 
 13 17  1  0  0  0  0 
 17 18  1  0  0  0  0 
 17 19  1  0  0  0  0 
 17 20  1  0  0  0  0 
  9 21  1  0  0  0  0 
 21 22  2  0  0  0  0 
 21 23  1  0  0  0  0 
 23 24  1  0  0  0  0 
 23 25  1  0  0  0  0 
 25 26  2  0  0  0  0 
 25 27  1  0  0  0  0 
 27 28  1  0  0  0  0 
 27 29  1  0  0  0  0 
  9 29  1  0  0  0  0 
 29 30  2  0  0  0  0 
M  END
> <Rank>
12

> <Priority_score>
0.0816

> <Reaction_type>
alkyl dehydrogenation

> <Parent_ID>
3

> <Parent_InChI>
InChI=1S/C11H16N2O3/c1-4-5-11(6-7(2)3)8(14)12-10(16)13-9(11)15/h4,7H,1,5-6H2,2-3H3,(H2,12,13,14,15,16)

> <Parent_SMILES>
C=CCC1(CC(C)C)C(=O)NC(=O)NC1=O

$$$$
Molecule 3_metabolite 13
  CDK     0516241031

 33 33  0  0  0  0  0  0  0  0999 V2000
   -5.6317    1.8267    0.0000 C   0  0  0  0  0  0  0  0  0  0  0  0
   -6.5958    0.6775    0.0000 H   0  0  0  0  0  0  0  0  0  0  0  0
   -5.1189    3.2363    0.0000 H   0  0  0  0  0  0  0  0  0  0  0  0
   -6.9309    2.5766    0.0000 H   0  0  0  0  0  0  0  0  0  0  0  0
   -3.6818    1.4831    0.0000 C   0  0  0  0  0  0  0  0  0  0  0  0
   -3.6819    2.9831    0.0000 H   0  0  0  0  0  0  0  0  0  0  0  0
   -1.7319    1.8271    0.0000 C   0  0  0  0  0  0  0  0  0  0  0  0
   -0.7676    0.6782    0.0000 H   0  0  0  0  0  0  0  0  0  0  0  0
   -0.4329    2.5773    0.0000 H   0  0  0  0  0  0  0  0  0  0  0  0
   -2.2451    3.2366    0.0000 H   0  0  0  0  0  0  0  0  0  0  0  0
   -3.1686    0.0736    0.0000 C   0  0  0  0  0  0  0  0  0  0  0  0
   -2.2043   -1.0754    0.0000 H   0  0  0  0  0  0  0  0  0  0  0  0
   -1.8696    0.8238    0.0000 H   0  0  0  0  0  0  0  0  0  0  0  0
   -4.4412   -1.4433    0.0000 C   0  0  0  0  0  0  0  0  0  0  0  0
   -2.3107   -2.6733    0.0000 C   0  0  0  0  0  0  0  0  0  0  0  0
   -1.0117   -1.9233    0.0000 H   0  0  0  0  0  0  0  0  0  0  0  0
   -2.3107   -4.1733    0.0000 C   0  0  0  0  0  0  0  0  0  0  0  0
   -3.6098   -4.9233    0.0000 H   0  0  0  0  0  0  0  0  0  0  0  0
   -1.0117   -4.9233    0.0000 C   0  0  0  0  0  0  0  0  0  0  0  0
   -0.4987   -3.5138    0.0000 H   0  0  0  0  0  0  0  0  0  0  0  0
    0.4655   -5.1838    0.0000 H   0  0  0  0  0  0  0  0  0  0  0  0
   -1.0117   -6.4233    0.0000 O   0  0  0  0  0  0  0  0  0  0  0  0
    0.2873   -7.1733    0.0000 H   0  0  0  0  0  0  0  0  0  0  0  0
   -5.4056   -0.2944    0.0000 C   0  0  0  0  0  0  0  0  0  0  0  0
   -4.8931    1.1153    0.0000 O   0  0  0  0  0  0  0  0  0  0  0  0
   -6.8835   -0.5558    0.0000 N   0  0  0  0  0  0  0  0  0  0  0  0
   -7.8479    0.5930    0.0000 H   0  0  0  0  0  0  0  0  0  0  0  0
   -7.3969   -1.9661    0.0000 C   0  0  0  0  0  0  0  0  0  0  0  0
   -8.8741   -2.2267    0.0000 O   0  0  0  0  0  0  0  0  0  0  0  0
   -6.4325   -3.1150    0.0000 N   0  0  0  0  0  0  0  0  0  0  0  0
   -6.9450   -4.5247    0.0000 H   0  0  0  0  0  0  0  0  0  0  0  0
   -4.9546   -2.8536    0.0000 C   0  0  0  0  0  0  0  0  0  0  0  0
   -3.9902   -4.0024    0.0000 O   0  0  0  0  0  0  0  0  0  0  0  0
  1  2  1  0  0  0  0 
  1  3  1  0  0  0  0 
  1  4  1  0  0  0  0 
  1  5  1  0  0  0  0 
  5  6  1  0  0  0  0 
  5  7  1  0  0  0  0 
  7  8  1  0  0  0  0 
  7  9  1  0  0  0  0 
  7 10  1  0  0  0  0 
  5 11  1  0  0  0  0 
 11 12  1  0  0  0  0 
 11 13  1  0  0  0  0 
 11 14  1  0  0  0  0 
 14 15  1  0  0  0  0 
 15 16  1  4  0  0  0 
 15 17  2  0  0  0  0 
 17 18  1  0  0  0  0 
 17 19  1  0  0  0  0 
 19 20  1  0  0  0  0 
 19 21  1  0  0  0  0 
 19 22  1  0  0  0  0 
 22 23  1  0  0  0  0 
 14 24  1  0  0  0  0 
 24 25  2  0  0  0  0 
 24 26  1  0  0  0  0 
 26 27  1  0  0  0  0 
 26 28  1  0  0  0  0 
 28 29  2  0  0  0  0 
 28 30  1  0  0  0  0 
 30 31  1  0  0  0  0 
 30 32  1  0  0  0  0 
 14 32  1  0  0  0  0 
 32 33  2  0  0  0  0 
M  END
> <Rank>
13

> <Priority_score>
0.07440000000000001

> <Reaction_type>
aliphatic hydroxylation with allylic rearrangement 1

> <Parent_ID>
3

> <Parent_InChI>
InChI=1S/C11H16N2O3/c1-4-5-11(6-7(2)3)8(14)12-10(16)13-9(11)15/h4,7H,1,5-6H2,2-3H3,(H2,12,13,14,15,16)

> <Parent_SMILES>
C=CCC1(CC(C)C)C(=O)NC(=O)NC1=O

$$$$
Molecule 3_metabolite 14
  CDK     0516241031

 30 30  0  0  0  0  0  0  0  0999 V2000
   -7.0188   -4.1507    0.0000 C   0  0  0  0  0  0  0  0  0  0  0  0
   -8.3181   -3.4011    0.0000 H   0  0  0  0  0  0  0  0  0  0  0  0
   -7.0183   -5.6507    0.0000 H   0  0  0  0  0  0  0  0  0  0  0  0
   -5.7200   -3.4002    0.0000 C   0  0  0  0  0  0  0  0  0  0  0  0
   -4.4212   -2.6498    0.0000 C   0  0  0  0  0  0  0  0  0  0  0  0
   -4.4217   -1.1498    0.0000 H   0  0  0  0  0  0  0  0  0  0  0  0
   -2.7062   -3.6393    0.0000 C   0  0  0  0  0  0  0  0  0  0  0  0
   -2.0294   -1.7785    0.0000 C   0  0  0  0  0  0  0  0  0  0  0  0
   -3.5066   -1.5184    0.0000 H   0  0  0  0  0  0  0  0  0  0  0  0
   -2.0297   -0.2785    0.0000 H   0  0  0  0  0  0  0  0  0  0  0  0
    0.8659   -1.2674    0.0000 C   0  0  0  0  0  0  0  0  0  0  0  0
    2.1647   -0.5171    0.0000 H   0  0  0  0  0  0  0  0  0  0  0  0
    1.8303   -2.4163    0.0000 C   0  0  0  0  0  0  0  0  0  0  0  0
    1.3176   -3.8259    0.0000 H   0  0  0  0  0  0  0  0  0  0  0  0
    2.7942   -1.2670    0.0000 H   0  0  0  0  0  0  0  0  0  0  0  0
    3.1295   -3.1660    0.0000 H   0  0  0  0  0  0  0  0  0  0  0  0
    0.3525    0.1420    0.0000 C   0  0  0  0  0  0  0  0  0  0  0  0
   -1.1247    0.4022    0.0000 H   0  0  0  0  0  0  0  0  0  0  0  0
    0.3522    1.6420    0.0000 H   0  0  0  0  0  0  0  0  0  0  0  0
    1.8297    0.4028    0.0000 H   0  0  0  0  0  0  0  0  0  0  0  0
   -3.6699   -4.7888    0.0000 C   0  0  0  0  0  0  0  0  0  0  0  0
   -5.1472   -4.5292    0.0000 O   0  0  0  0  0  0  0  0  0  0  0  0
   -3.1555   -6.1987    0.0000 N   0  0  0  0  0  0  0  0  0  0  0  0
   -4.1192   -7.3482    0.0000 H   0  0  0  0  0  0  0  0  0  0  0  0
   -1.6774   -6.4592    0.0000 C   0  0  0  0  0  0  0  0  0  0  0  0
   -1.1640   -7.8686    0.0000 O   0  0  0  0  0  0  0  0  0  0  0  0
   -0.7137   -5.3097    0.0000 N   0  0  0  0  0  0  0  0  0  0  0  0
    0.7636   -5.5693    0.0000 H   0  0  0  0  0  0  0  0  0  0  0  0
   -1.2281   -3.8997    0.0000 C   0  0  0  0  0  0  0  0  0  0  0  0
   -0.2644   -2.7503    0.0000 O   0  0  0  0  0  0  0  0  0  0  0  0
  1  2  1  0  0  0  0 
  1  3  1  0  0  0  0 
  1  4  2  0  0  0  0 
  4  5  2  0  0  0  0 
  5  6  1  0  0  0  0 
  5  7  1  0  0  0  0 
  7  8  1  0  0  0  0 
  8  9  1  0  0  0  0 
  8 10  1  0  0  0  0 
  8 11  1  0  0  0  0 
 11 12  1  0  0  0  0 
 11 13  1  0  0  0  0 
 13 14  1  0  0  0  0 
 13 15  1  0  0  0  0 
 13 16  1  0  0  0  0 
 11 17  1  0  0  0  0 
 17 18  1  0  0  0  0 
 17 19  1  0  0  0  0 
 17 20  1  0  0  0  0 
  7 21  1  0  0  0  0 
 21 22  2  0  0  0  0 
 21 23  1  0  0  0  0 
 23 24  1  0  0  0  0 
 23 25  1  0  0  0  0 
 25 26  2  0  0  0  0 
 25 27  1  0  0  0  0 
 27 28  1  0  0  0  0 
 27 29  1  0  0  0  0 
  7 29  1  0  0  0  0 
 29 30  2  0  0  0  0 
M  END
> <Rank>
14

> <Priority_score>
0.0728

> <Reaction_type>
alkyl dehydrogenation

> <Parent_ID>
3

> <Parent_InChI>
InChI=1S/C11H16N2O3/c1-4-5-11(6-7(2)3)8(14)12-10(16)13-9(11)15/h4,7H,1,5-6H2,2-3H3,(H2,12,13,14,15,16)

> <Parent_SMILES>
C=CCC1(CC(C)C)C(=O)NC(=O)NC1=O

$$$$
Molecule 3_metabolite 15
  CDK     0516241031

 30 30  0  0  0  0  0  0  0  0999 V2000
   -4.1636    1.8812    0.0000 C   0  0  0  0  0  0  0  0  0  0  0  0
   -4.6768    3.2907    0.0000 H   0  0  0  0  0  0  0  0  0  0  0  0
   -5.1276    0.7320    0.0000 H   0  0  0  0  0  0  0  0  0  0  0  0
   -2.6863    1.6209    0.0000 C   0  0  0  0  0  0  0  0  0  0  0  0
   -1.7223    2.7701    0.0000 H   0  0  0  0  0  0  0  0  0  0  0  0
   -2.0089   -0.2396    0.0000 C   0  0  0  0  0  0  0  0  0  0  0  0
   -2.0088   -1.7396    0.0000 H   0  0  0  0  0  0  0  0  0  0  0  0
   -3.4861   -0.5003    0.0000 H   0  0  0  0  0  0  0  0  0  0  0  0
   -0.5317   -0.4999    0.0000 C   0  0  0  0  0  0  0  0  0  0  0  0
   -1.2085   -2.3607    0.0000 C   0  0  0  0  0  0  0  0  0  0  0  0
   -2.6857   -2.6215    0.0000 H   0  0  0  0  0  0  0  0  0  0  0  0
    0.0645   -3.8772    0.0000 C   0  0  0  0  0  0  0  0  0  0  0  0
   -0.4482   -5.2868    0.0000 C   0  0  0  0  0  0  0  0  0  0  0  0
    0.5162   -6.4357    0.0000 H   0  0  0  0  0  0  0  0  0  0  0  0
   -1.7474   -4.5371    0.0000 H   0  0  0  0  0  0  0  0  0  0  0  0
   -1.4121   -6.4361    0.0000 H   0  0  0  0  0  0  0  0  0  0  0  0
    1.5417   -3.6164    0.0000 C   0  0  0  0  0  0  0  0  0  0  0  0
    2.0544   -2.2067    0.0000 H   0  0  0  0  0  0  0  0  0  0  0  0
    3.0190   -3.8765    0.0000 H   0  0  0  0  0  0  0  0  0  0  0  0
    1.5420   -5.1164    0.0000 H   0  0  0  0  0  0  0  0  0  0  0  0
   -0.5317    1.0001    0.0000 C   0  0  0  0  0  0  0  0  0  0  0  0
   -1.8306    1.7503    0.0000 O   0  0  0  0  0  0  0  0  0  0  0  0
    0.7683    1.7501    0.0000 N   0  0  0  0  0  0  0  0  0  0  0  0
    0.7683    3.2501    0.0000 H   0  0  0  0  0  0  0  0  0  0  0  0
    2.0683    1.0001    0.0000 C   0  0  0  0  0  0  0  0  0  0  0  0
    3.3672    1.7503    0.0000 O   0  0  0  0  0  0  0  0  0  0  0  0
    2.0683   -0.4999    0.0000 N   0  0  0  0  0  0  0  0  0  0  0  0
    3.3672   -1.2502    0.0000 H   0  0  0  0  0  0  0  0  0  0  0  0
    0.7683   -1.2499    0.0000 C   0  0  0  0  0  0  0  0  0  0  0  0
    0.7683   -2.7499    0.0000 O   0  0  0  0  0  0  0  0  0  0  0  0
  1  2  1  0  0  0  0 
  1  3  1  0  0  0  0 
  1  4  2  0  0  0  0 
  4  5  1  0  0  0  0 
  4  6  1  0  0  0  0 
  6  7  1  0  0  0  0 
  6  8  1  0  0  0  0 
  6  9  1  0  0  0  0 
  9 10  1  0  0  0  0 
 10 11  1  0  0  0  0 
 10 12  2  0  0  0  0 
 12 13  1  0  0  0  0 
 13 14  1  0  0  0  0 
 13 15  1  0  0  0  0 
 13 16  1  0  0  0  0 
 12 17  1  0  0  0  0 
 17 18  1  0  0  0  0 
 17 19  1  0  0  0  0 
 17 20  1  0  0  0  0 
  9 21  1  0  0  0  0 
 21 22  2  0  0  0  0 
 21 23  1  0  0  0  0 
 23 24  1  0  0  0  0 
 23 25  1  0  0  0  0 
 25 26  2  0  0  0  0 
 25 27  1  0  0  0  0 
 27 28  1  0  0  0  0 
 27 29  1  0  0  0  0 
  9 29  1  0  0  0  0 
 29 30  2  0  0  0  0 
M  END
> <Rank>
15

> <Priority_score>
0.04000000000000001

> <Reaction_type>
alkyl dehydrogenation

> <Parent_ID>
3

> <Parent_InChI>
InChI=1S/C11H16N2O3/c1-4-5-11(6-7(2)3)8(14)12-10(16)13-9(11)15/h4,7H,1,5-6H2,2-3H3,(H2,12,13,14,15,16)

> <Parent_SMILES>
C=CCC1(CC(C)C)C(=O)NC(=O)NC1=O

$$$$
Molecule 3_metabolite 16
  CDK     0516241031

 34 33  0  0  0  0  0  0  0  0999 V2000
   10.3403   -3.5534    0.0000 C   0  0  0  0  0  0  0  0  0  0  0  0
   10.3403   -5.0534    0.0000 H   0  0  0  0  0  0  0  0  0  0  0  0
   11.6393   -2.8034    0.0000 H   0  0  0  0  0  0  0  0  0  0  0  0
    9.0413   -2.8034    0.0000 C   0  0  0  0  0  0  0  0  0  0  0  0
    7.7422   -3.5534    0.0000 H   0  0  0  0  0  0  0  0  0  0  0  0
    9.0413   -1.3034    0.0000 C   0  0  0  0  0  0  0  0  0  0  0  0
   11.9366   -1.8139    0.0000 H   0  0  0  0  0  0  0  0  0  0  0  0
    9.5543    0.1062    0.0000 H   0  0  0  0  0  0  0  0  0  0  0  0
    7.7422   -0.5534    0.0000 C   0  0  0  0  0  0  0  0  0  0  0  0
    6.0275   -1.5434    0.0000 C   0  0  0  0  0  0  0  0  0  0  0  0
    6.9917   -2.6924    0.0000 H   0  0  0  0  0  0  0  0  0  0  0  0
    5.0633   -2.6924    0.0000 H   0  0  0  0  0  0  0  0  0  0  0  0
    3.4814   -0.0734    0.0000 C   0  0  0  0  0  0  0  0  0  0  0  0
    2.0042    0.1871    0.0000 H   0  0  0  0  0  0  0  0  0  0  0  0
    3.4814    1.4266    0.0000 C   0  0  0  0  0  0  0  0  0  0  0  0
    4.7804    2.1766    0.0000 H   0  0  0  0  0  0  0  0  0  0  0  0
    2.0042    1.1662    0.0000 H   0  0  0  0  0  0  0  0  0  0  0  0
    2.9684    2.8362    0.0000 H   0  0  0  0  0  0  0  0  0  0  0  0
    2.9684   -1.4829    0.0000 C   0  0  0  0  0  0  0  0  0  0  0  0
    3.9325   -2.6320    0.0000 H   0  0  0  0  0  0  0  0  0  0  0  0
    2.0042   -2.6320    0.0000 H   0  0  0  0  0  0  0  0  0  0  0  0
    1.6693   -0.7329    0.0000 H   0  0  0  0  0  0  0  0  0  0  0  0
    6.7780    0.5957    0.0000 C   0  0  0  0  0  0  0  0  0  0  0  0
    5.3008    0.3352    0.0000 O   0  0  0  0  0  0  0  0  0  0  0  0
    7.4552    2.4563    0.0000 N   0  0  0  0  0  0  0  0  0  0  0  0
    6.4911    3.6053    0.0000 H   0  0  0  0  0  0  0  0  0  0  0  0
    8.9325    2.7168    0.0000 H   0  0  0  0  0  0  0  0  0  0  0  0
    8.7064    0.5957    0.0000 C   0  0  0  0  0  0  0  0  0  0  0  0
    8.1934    2.0052    0.0000 O   0  0  0  0  0  0  0  0  0  0  0  0
   10.6563    0.2519    0.0000 N   0  0  0  0  0  0  0  0  0  0  0  0
   11.1694   -1.1577    0.0000 H   0  0  0  0  0  0  0  0  0  0  0  0
   11.6205    1.4009    0.0000 C   0  0  0  0  0  0  0  0  0  0  0  0
   13.0977    1.1405    0.0000 H   0  0  0  0  0  0  0  0  0  0  0  0
   11.1075    2.8105    0.0000 O   0  0  0  0  0  0  0  0  0  0  0  0
  1  2  1  0  0  0  0 
  1  3  1  0  0  0  0 
  1  4  2  0  0  0  0 
  4  5  1  0  0  0  0 
  4  6  1  0  0  0  0 
  6  7  1  0  0  0  0 
  6  8  1  0  0  0  0 
  6  9  1  0  0  0  0 
  9 10  1  0  0  0  0 
 10 11  1  0  0  0  0 
 10 12  1  0  0  0  0 
 10 13  1  0  0  0  0 
 13 14  1  0  0  0  0 
 13 15  1  0  0  0  0 
 15 16  1  0  0  0  0 
 15 17  1  0  0  0  0 
 15 18  1  0  0  0  0 
 13 19  1  0  0  0  0 
 19 20  1  0  0  0  0 
 19 21  1  0  0  0  0 
 19 22  1  0  0  0  0 
  9 23  1  0  0  0  0 
 23 24  2  0  0  0  0 
 23 25  1  0  0  0  0 
 25 26  1  0  0  0  0 
 25 27  1  0  0  0  0 
  9 28  1  0  0  0  0 
 28 29  2  0  0  0  0 
 28 30  1  0  0  0  0 
 30 31  1  0  0  0  0 
 30 32  1  0  0  0  0 
 32 33  1  0  0  0  0 
 32 34  2  0  0  0  0 
M  END
> <Rank>
16

> <Priority_score>
0.013600000000000001

> <Reaction_type>
carbamide cleavage

> <Parent_ID>
3

> <Parent_InChI>
InChI=1S/C11H16N2O3/c1-4-5-11(6-7(2)3)8(14)12-10(16)13-9(11)15/h4,7H,1,5-6H2,2-3H3,(H2,12,13,14,15,16)

> <Parent_SMILES>
C=CCC1(CC(C)C)C(=O)NC(=O)NC1=O

$$$$
Molecule 4
  CDK     0516241031

 11 11  0  0  0  0  0  0  0  0999 V2000
    2.5989    1.5002    0.0000 C   0  0  0  0  0  0  0  0  0  0  0  0
    1.3000    0.7500    0.0000 C   0  0  0  0  0  0  0  0  0  0  0  0
    1.3002   -0.7500    0.0000 O   0  0  0  0  0  0  0  0  0  0  0  0
    0.0008    1.4998    0.0000 N   0  0  0  0  0  0  0  0  0  0  0  0
   -1.2981    0.7496    0.0000 C   0  0  0  0  0  0  0  0  0  0  0  0
   -1.2981   -0.7504    0.0000 C   0  0  0  0  0  0  0  0  0  0  0  0
   -2.5981   -1.5004    0.0000 C   0  0  0  0  0  0  0  0  0  0  0  0
   -3.8981   -0.7504    0.0000 C   0  0  0  0  0  0  0  0  0  0  0  0
   -3.8981    0.7496    0.0000 C   0  0  0  0  0  0  0  0  0  0  0  0
   -2.5981    1.4996    0.0000 C   0  0  0  0  0  0  0  0  0  0  0  0
   -5.1970   -1.5006    0.0000 O   0  0  0  0  0  0  0  0  0  0  0  0
  1  2  1  0  0  0  0 
  2  3  2  0  0  0  0 
  2  4  1  0  0  0  0 
  4  5  1  0  0  0  0 
  5  6  2  0  0  0  0 
  6  7  1  0  0  0  0 
  7  8  2  0  0  0  0 
  8  9  1  0  0  0  0 
  9 10  2  0  0  0  0 
  5 10  1  0  0  0  0 
  8 11  1  0  0  0  0 
M  END
> <SMILES>
CC(=O)Nc1ccc(O)cc1

$$$$
Molecule 4_metabolite 1
  CDK     0516241031

 40 41  0  0  0  0  0  0  0  0999 V2000
   -3.2999   -2.2958    0.0000 C   0  0  0  0  0  0  0  0  0  0  0  0
   -4.7777   -2.0387    0.0000 H   0  0  0  0  0  0  0  0  0  0  0  0
   -3.8096   -3.7065    0.0000 H   0  0  0  0  0  0  0  0  0  0  0  0
   -1.9991   -3.0428    0.0000 H   0  0  0  0  0  0  0  0  0  0  0  0
   -2.3383   -1.1445    0.0000 C   0  0  0  0  0  0  0  0  0  0  0  0
   -2.8546    0.2639    0.0000 O   0  0  0  0  0  0  0  0  0  0  0  0
   -0.8605   -1.4015    0.0000 N   0  0  0  0  0  0  0  0  0  0  0  0
   -0.3442   -2.8099    0.0000 H   0  0  0  0  0  0  0  0  0  0  0  0
    0.1010   -0.2503    0.0000 C   0  0  0  0  0  0  0  0  0  0  0  0
   -0.4150    1.1582    0.0000 C   0  0  0  0  0  0  0  0  0  0  0  0
   -1.8927    1.4157    0.0000 H   0  0  0  0  0  0  0  0  0  0  0  0
    0.5476    2.3096    0.0000 C   0  0  0  0  0  0  0  0  0  0  0  0
    0.0316    3.7181    0.0000 H   0  0  0  0  0  0  0  0  0  0  0  0
    2.0263    2.0527    0.0000 C   0  0  0  0  0  0  0  0  0  0  0  0
    2.5423    0.6442    0.0000 C   0  0  0  0  0  0  0  0  0  0  0  0
    4.0200    0.3867    0.0000 H   0  0  0  0  0  0  0  0  0  0  0  0
    1.5797   -0.5072    0.0000 C   0  0  0  0  0  0  0  0  0  0  0  0
    2.0957   -1.9157    0.0000 H   0  0  0  0  0  0  0  0  0  0  0  0
    2.9878    3.2039    0.0000 O   0  0  0  0  0  0  0  0  0  0  0  0
    4.4656    2.9469    0.0000 C   0  0  0  0  0  0  0  0  0  0  0  0
    3.9591    1.5350    0.0000 H   0  0  0  0  0  0  0  0  0  0  0  0
    4.4656    4.4369    0.0000 C   0  0  0  0  0  0  0  0  0  0  0  0
    3.9537    5.8468    0.0000 H   0  0  0  0  0  0  0  0  0  0  0  0
    5.7856    5.1969    0.0000 C   0  0  0  0  0  0  0  0  0  0  0  0
    6.7544    6.3420    0.0000 H   0  0  0  0  0  0  0  0  0  0  0  0
    7.0856    4.4369    0.0000 C   0  0  0  0  0  0  0  0  0  0  0  0
    8.5623    4.1737    0.0000 H   0  0  0  0  0  0  0  0  0  0  0  0
    7.0856    2.9469    0.0000 C   0  0  0  0  0  0  0  0  0  0  0  0
    7.5983    1.5372    0.0000 H   0  0  0  0  0  0  0  0  0  0  0  0
    9.0356    3.2905    0.0000 C   0  0  0  0  0  0  0  0  0  0  0  0
    9.9996    2.1413    0.0000 O   0  0  0  0  0  0  0  0  0  0  0  0
    9.5487    4.7000    0.0000 O   0  0  0  0  0  0  0  0  0  0  0  0
   11.0260    4.9603    0.0000 H   0  0  0  0  0  0  0  0  0  0  0  0
    5.7856    2.1969    0.0000 O   0  0  0  0  0  0  0  0  0  0  0  0
    7.6037    5.8445    0.0000 O   0  0  0  0  0  0  0  0  0  0  0  0
    9.0819    6.0997    0.0000 H   0  0  0  0  0  0  0  0  0  0  0  0
    4.8244    6.3484    0.0000 O   0  0  0  0  0  0  0  0  0  0  0  0
    5.3411    7.7566    0.0000 H   0  0  0  0  0  0  0  0  0  0  0  0
    2.9883    4.1770    0.0000 O   0  0  0  0  0  0  0  0  0  0  0  0
    2.0246    5.3264    0.0000 H   0  0  0  0  0  0  0  0  0  0  0  0
  1  2  1  0  0  0  0 
  1  3  1  0  0  0  0 
  1  4  1  0  0  0  0 
  1  5  1  0  0  0  0 
  5  6  2  0  0  0  0 
  5  7  1  0  0  0  0 
  7  8  1  0  0  0  0 
  7  9  1  0  0  0  0 
  9 10  2  0  0  0  0 
 10 11  1  0  0  0  0 
 10 12  1  0  0  0  0 
 12 13  1  0  0  0  0 
 12 14  2  0  0  0  0 
 14 15  1  0  0  0  0 
 15 16  1  0  0  0  0 
 15 17  2  0  0  0  0 
  9 17  1  0  0  0  0 
 17 18  1  0  0  0  0 
 14 19  1  0  0  0  0 
 19 20  1  0  0  0  0 
 20 21  1  0  0  0  0 
 20 22  1  0  0  0  0 
 22 23  1  0  0  0  0 
 22 24  1  0  0  0  0 
 24 25  1  0  0  0  0 
 24 26  1  0  0  0  0 
 26 27  1  0  0  0  0 
 26 28  1  0  0  0  0 
 28 29  1  0  0  0  0 
 28 30  1  0  0  0  0 
 30 31  2  0  0  0  0 
 30 32  1  0  0  0  0 
 32 33  1  0  0  0  0 
 28 34  1  0  0  0  0 
 20 34  1  0  0  0  0 
 26 35  1  0  0  0  0 
 35 36  1  0  0  0  0 
 24 37  1  0  0  0  0 
 37 38  1  0  0  0  0 
 22 39  1  0  0  0  0 
 39 40  1  0  0  0  0 
M  END
> <Rank>
1

> <Priority_score>
0.984

> <Reaction_type>
O-glucuronidation_(aromatic_hydroxyl)

> <Parent_ID>
4

> <Parent_InChI>
InChI=1S/C8H9NO2/c1-6(10)9-7-2-4-8(11)5-3-7/h2-5,11H,1H3,(H,9,10)

> <Parent_SMILES>
CC(=O)Nc1ccc(O)cc1

$$$$
Molecule 4_metabolite 2
  CDK     0516241031

 24 24  0  0  0  0  0  0  0  0999 V2000
    5.1970    1.5004    0.0000 C   0  0  0  0  0  0  0  0  0  0  0  0
    6.4962    0.7506    0.0000 H   0  0  0  0  0  0  0  0  0  0  0  0
    6.1610    2.6496    0.0000 H   0  0  0  0  0  0  0  0  0  0  0  0
    4.2326    2.6493    0.0000 H   0  0  0  0  0  0  0  0  0  0  0  0
    3.8981    0.7502    0.0000 C   0  0  0  0  0  0  0  0  0  0  0  0
    3.8983   -0.7498    0.0000 O   0  0  0  0  0  0  0  0  0  0  0  0
    2.5989    1.5000    0.0000 N   0  0  0  0  0  0  0  0  0  0  0  0
    2.5987    3.0000    0.0000 H   0  0  0  0  0  0  0  0  0  0  0  0
    1.3000    0.7498    0.0000 C   0  0  0  0  0  0  0  0  0  0  0  0
    1.3000   -0.7502    0.0000 C   0  0  0  0  0  0  0  0  0  0  0  0
    2.5989   -1.5004    0.0000 H   0  0  0  0  0  0  0  0  0  0  0  0
   -0.0000   -1.5002    0.0000 C   0  0  0  0  0  0  0  0  0  0  0  0
   -0.0000   -3.0002    0.0000 H   0  0  0  0  0  0  0  0  0  0  0  0
   -1.3000   -0.7502    0.0000 C   0  0  0  0  0  0  0  0  0  0  0  0
   -1.3000    0.7498    0.0000 C   0  0  0  0  0  0  0  0  0  0  0  0
   -2.5989    1.5000    0.0000 H   0  0  0  0  0  0  0  0  0  0  0  0
    0.0000    1.4998    0.0000 C   0  0  0  0  0  0  0  0  0  0  0  0
    0.0000    2.9998    0.0000 H   0  0  0  0  0  0  0  0  0  0  0  0
   -2.5989   -1.5004    0.0000 O   0  0  0  0  0  0  0  0  0  0  0  0
   -3.8981   -0.7506    0.0000 S   0  0  0  0  0  0  0  0  0  0  0  0
   -2.9341    0.3986    0.0000 O   0  0  0  0  0  0  0  0  0  0  0  0
   -4.8624    0.3983    0.0000 O   0  0  0  0  0  0  0  0  0  0  0  0
   -5.1970   -1.5008    0.0000 O   0  0  0  0  0  0  0  0  0  0  0  0
   -6.4962   -0.7510    0.0000 H   0  0  0  0  0  0  0  0  0  0  0  0
  1  2  1  0  0  0  0 
  1  3  1  0  0  0  0 
  1  4  1  0  0  0  0 
  1  5  1  0  0  0  0 
  5  6  2  0  0  0  0 
  5  7  1  0  0  0  0 
  7  8  1  0  0  0  0 
  7  9  1  0  0  0  0 
  9 10  2  0  0  0  0 
 10 11  1  0  0  0  0 
 10 12  1  0  0  0  0 
 12 13  1  0  0  0  0 
 12 14  2  0  0  0  0 
 14 15  1  0  0  0  0 
 15 16  1  0  0  0  0 
 15 17  2  0  0  0  0 
  9 17  1  0  0  0  0 
 17 18  1  0  0  0  0 
 14 19  1  0  0  0  0 
 19 20  1  0  0  0  0 
 20 21  2  0  0  0  0 
 20 22  2  0  0  0  0 
 20 23  1  0  0  0  0 
 23 24  1  0  0  0  0 
M  END
> <Rank>
2

> <Priority_score>
0.928

> <Reaction_type>
sulfation_(aromatic_hydroxyl)

> <Parent_ID>
4

> <Parent_InChI>
InChI=1S/C8H9NO2/c1-6(10)9-7-2-4-8(11)5-3-7/h2-5,11H,1H3,(H,9,10)

> <Parent_SMILES>
CC(=O)Nc1ccc(O)cc1

$$$$
Molecule 4_metabolite 3
  CDK     0516241031

 18 18  0  0  0  0  0  0  0  0999 V2000
    1.2998    1.5006    0.0000 C   0  0  0  0  0  0  0  0  0  0  0  0
    2.5989    0.7508    0.0000 H   0  0  0  0  0  0  0  0  0  0  0  0
    2.2638    2.6498    0.0000 H   0  0  0  0  0  0  0  0  0  0  0  0
    0.3354    2.6495    0.0000 H   0  0  0  0  0  0  0  0  0  0  0  0
    0.0008    0.7504    0.0000 C   0  0  0  0  0  0  0  0  0  0  0  0
    0.0011   -0.7496    0.0000 O   0  0  0  0  0  0  0  0  0  0  0  0
   -1.2983    1.5002    0.0000 N   0  0  0  0  0  0  0  0  0  0  0  0
   -2.5972    0.7500    0.0000 C   0  0  0  0  0  0  0  0  0  0  0  0
   -2.5972   -0.7500    0.0000 C   0  0  0  0  0  0  0  0  0  0  0  0
   -1.2983   -1.5002    0.0000 H   0  0  0  0  0  0  0  0  0  0  0  0
   -3.8972   -1.5000    0.0000 C   0  0  0  0  0  0  0  0  0  0  0  0
   -3.8972   -3.0000    0.0000 H   0  0  0  0  0  0  0  0  0  0  0  0
   -5.1972   -0.7500    0.0000 C   0  0  0  0  0  0  0  0  0  0  0  0
   -6.4962   -1.5002    0.0000 O   0  0  0  0  0  0  0  0  0  0  0  0
   -5.1972    0.7500    0.0000 C   0  0  0  0  0  0  0  0  0  0  0  0
   -6.4962    1.5002    0.0000 H   0  0  0  0  0  0  0  0  0  0  0  0
   -3.8972    1.5000    0.0000 C   0  0  0  0  0  0  0  0  0  0  0  0
   -3.8972    3.0000    0.0000 H   0  0  0  0  0  0  0  0  0  0  0  0
  1  2  1  0  0  0  0 
  1  3  1  0  0  0  0 
  1  4  1  0  0  0  0 
  1  5  1  0  0  0  0 
  5  6  2  0  0  0  0 
  5  7  1  4  0  0  0 
  7  8  2  0  0  0  0 
  8  9  1  0  0  0  0 
  9 10  1  0  0  0  0 
  9 11  2  0  0  0  0 
 11 12  1  0  0  0  0 
 11 13  1  0  0  0  0 
 13 14  2  0  0  0  0 
 13 15  1  0  0  0  0 
 15 16  1  0  0  0  0 
 15 17  2  0  0  0  0 
  8 17  1  0  0  0  0 
 17 18  1  0  0  0  0 
M  END
> <Rank>
3

> <Priority_score>
0.732

> <Reaction_type>
oxidation_to_quinone

> <Parent_ID>
4

> <Parent_InChI>
InChI=1S/C8H9NO2/c1-6(10)9-7-2-4-8(11)5-3-7/h2-5,11H,1H3,(H,9,10)

> <Parent_SMILES>
CC(=O)Nc1ccc(O)cc1

$$$$
Molecule 4_metabolite 4
  CDK     0516241031

 21 21  0  0  0  0  0  0  0  0999 V2000
   -5.1970    1.5006    0.0000 C   0  0  0  0  0  0  0  0  0  0  0  0
   -6.4962    0.7508    0.0000 H   0  0  0  0  0  0  0  0  0  0  0  0
   -4.2326    2.6495    0.0000 H   0  0  0  0  0  0  0  0  0  0  0  0
   -6.1610    2.6498    0.0000 H   0  0  0  0  0  0  0  0  0  0  0  0
   -3.8981    0.7504    0.0000 C   0  0  0  0  0  0  0  0  0  0  0  0
   -3.8983   -0.7496    0.0000 O   0  0  0  0  0  0  0  0  0  0  0  0
   -2.5989    1.5002    0.0000 N   0  0  0  0  0  0  0  0  0  0  0  0
   -2.5987    3.0002    0.0000 H   0  0  0  0  0  0  0  0  0  0  0  0
   -1.3000    0.7500    0.0000 C   0  0  0  0  0  0  0  0  0  0  0  0
    0.0000    1.5000    0.0000 C   0  0  0  0  0  0  0  0  0  0  0  0
    0.0000    3.0000    0.0000 H   0  0  0  0  0  0  0  0  0  0  0  0
    1.3000    0.7500    0.0000 C   0  0  0  0  0  0  0  0  0  0  0  0
    2.5989    1.5002    0.0000 H   0  0  0  0  0  0  0  0  0  0  0  0
    1.3000   -0.7500    0.0000 C   0  0  0  0  0  0  0  0  0  0  0  0
    0.0000   -1.5000    0.0000 C   0  0  0  0  0  0  0  0  0  0  0  0
   -1.3000   -0.7500    0.0000 C   0  0  0  0  0  0  0  0  0  0  0  0
   -2.5989   -1.5002    0.0000 H   0  0  0  0  0  0  0  0  0  0  0  0
   -0.0000   -3.0000    0.0000 O   0  0  0  0  0  0  0  0  0  0  0  0
    1.2990   -3.7500    0.0000 H   0  0  0  0  0  0  0  0  0  0  0  0
    2.5989   -1.5002    0.0000 O   0  0  0  0  0  0  0  0  0  0  0  0
    3.8981   -0.7504    0.0000 H   0  0  0  0  0  0  0  0  0  0  0  0
  1  2  1  0  0  0  0 
  1  3  1  0  0  0  0 
  1  4  1  0  0  0  0 
  1  5  1  0  0  0  0 
  5  6  2  0  0  0  0 
  5  7  1  0  0  0  0 
  7  8  1  0  0  0  0 
  7  9  1  0  0  0  0 
  9 10  2  0  0  0  0 
 10 11  1  0  0  0  0 
 10 12  1  0  0  0  0 
 12 13  1  0  0  0  0 
 12 14  2  0  0  0  0 
 14 15  1  0  0  0  0 
 15 16  2  0  0  0  0 
  9 16  1  0  0  0  0 
 16 17  1  0  0  0  0 
 15 18  1  0  0  0  0 
 18 19  1  0  0  0  0 
 14 20  1  0  0  0  0 
 20 21  1  0  0  0  0 
M  END
> <Rank>
3

> <Priority_score>
0.732

> <Reaction_type>
aromatic_hydroxylation_(ortho_to_oxygen)

> <Parent_ID>
4

> <Parent_InChI>
InChI=1S/C8H9NO2/c1-6(10)9-7-2-4-8(11)5-3-7/h2-5,11H,1H3,(H,9,10)

> <Parent_SMILES>
CC(=O)Nc1ccc(O)cc1

$$$$
Molecule 4_metabolite 5
  CDK     0516241031

 21 21  0  0  0  0  0  0  0  0999 V2000
   -5.1970    1.5006    0.0000 C   0  0  0  0  0  0  0  0  0  0  0  0
   -6.4962    0.7508    0.0000 H   0  0  0  0  0  0  0  0  0  0  0  0
   -4.2326    2.6495    0.0000 H   0  0  0  0  0  0  0  0  0  0  0  0
   -6.1610    2.6498    0.0000 H   0  0  0  0  0  0  0  0  0  0  0  0
   -3.8981    0.7504    0.0000 C   0  0  0  0  0  0  0  0  0  0  0  0
   -3.8983   -0.7496    0.0000 O   0  0  0  0  0  0  0  0  0  0  0  0
   -2.5989    1.5002    0.0000 N   0  0  0  0  0  0  0  0  0  0  0  0
   -2.5987    3.0002    0.0000 H   0  0  0  0  0  0  0  0  0  0  0  0
   -1.3000    0.7500    0.0000 C   0  0  0  0  0  0  0  0  0  0  0  0
    0.0000    1.5000    0.0000 C   0  0  0  0  0  0  0  0  0  0  0  0
    0.0000    3.0000    0.0000 H   0  0  0  0  0  0  0  0  0  0  0  0
    1.3000    0.7500    0.0000 C   0  0  0  0  0  0  0  0  0  0  0  0
    2.5989    1.5002    0.0000 H   0  0  0  0  0  0  0  0  0  0  0  0
    1.3000   -0.7500    0.0000 C   0  0  0  0  0  0  0  0  0  0  0  0
    0.0000   -1.5000    0.0000 C   0  0  0  0  0  0  0  0  0  0  0  0
   -0.0000   -3.0000    0.0000 H   0  0  0  0  0  0  0  0  0  0  0  0
   -1.3000   -0.7500    0.0000 C   0  0  0  0  0  0  0  0  0  0  0  0
   -2.5989   -1.5002    0.0000 O   0  0  0  0  0  0  0  0  0  0  0  0
   -2.5987   -3.0002    0.0000 H   0  0  0  0  0  0  0  0  0  0  0  0
    2.5989   -1.5002    0.0000 O   0  0  0  0  0  0  0  0  0  0  0  0
    3.8981   -0.7504    0.0000 H   0  0  0  0  0  0  0  0  0  0  0  0
  1  2  1  0  0  0  0 
  1  3  1  0  0  0  0 
  1  4  1  0  0  0  0 
  1  5  1  0  0  0  0 
  5  6  2  0  0  0  0 
  5  7  1  0  0  0  0 
  7  8  1  0  0  0  0 
  7  9  1  0  0  0  0 
  9 10  2  0  0  0  0 
 10 11  1  0  0  0  0 
 10 12  1  0  0  0  0 
 12 13  1  0  0  0  0 
 12 14  2  0  0  0  0 
 14 15  1  0  0  0  0 
 15 16  1  0  0  0  0 
 15 17  2  0  0  0  0 
  9 17  1  0  0  0  0 
 17 18  1  0  0  0  0 
 18 19  1  0  0  0  0 
 14 20  1  0  0  0  0 
 20 21  1  0  0  0  0 
M  END
> <Rank>
5

> <Priority_score>
0.7

> <Reaction_type>
aromatic_hydroxylation_(ortho_to_nitrogen)

> <Parent_ID>
4

> <Parent_InChI>
InChI=1S/C8H9NO2/c1-6(10)9-7-2-4-8(11)5-3-7/h2-5,11H,1H3,(H,9,10)

> <Parent_SMILES>
CC(=O)Nc1ccc(O)cc1

$$$$
Molecule 4_metabolite 6
  CDK     0516241031

 15 15  0  0  0  0  0  0  0  0999 V2000
    0.0000    1.4998    0.0000 C   0  0  0  0  0  0  0  0  0  0  0  0
    0.0000    2.9998    0.0000 H   0  0  0  0  0  0  0  0  0  0  0  0
    1.3000    0.7498    0.0000 C   0  0  0  0  0  0  0  0  0  0  0  0
    1.3000   -0.7502    0.0000 C   0  0  0  0  0  0  0  0  0  0  0  0
    2.5989   -1.5004    0.0000 H   0  0  0  0  0  0  0  0  0  0  0  0
    0.0000   -1.5002    0.0000 C   0  0  0  0  0  0  0  0  0  0  0  0
   -0.0000   -3.0002    0.0000 H   0  0  0  0  0  0  0  0  0  0  0  0
   -1.3000   -0.7502    0.0000 C   0  0  0  0  0  0  0  0  0  0  0  0
   -1.3000    0.7498    0.0000 C   0  0  0  0  0  0  0  0  0  0  0  0
   -2.5989    1.5000    0.0000 H   0  0  0  0  0  0  0  0  0  0  0  0
   -2.5989   -1.5004    0.0000 O   0  0  0  0  0  0  0  0  0  0  0  0
   -3.8981   -0.7506    0.0000 H   0  0  0  0  0  0  0  0  0  0  0  0
    2.5989    1.5000    0.0000 N   0  0  0  0  0  0  0  0  0  0  0  0
    3.8981    0.7502    0.0000 H   0  0  0  0  0  0  0  0  0  0  0  0
    2.5987    3.0000    0.0000 H   0  0  0  0  0  0  0  0  0  0  0  0
  1  2  1  0  0  0  0 
  1  3  2  0  0  0  0 
  3  4  1  0  0  0  0 
  4  5  1  0  0  0  0 
  4  6  2  0  0  0  0 
  6  7  1  0  0  0  0 
  6  8  1  0  0  0  0 
  8  9  2  0  0  0  0 
  1  9  1  0  0  0  0 
  9 10  1  0  0  0  0 
  8 11  1  0  0  0  0 
 11 12  1  0  0  0  0 
  3 13  1  0  0  0  0 
 13 14  1  0  0  0  0 
 13 15  1  0  0  0  0 
M  END
> <Rank>
5

> <Priority_score>
0.7

> <Reaction_type>
N-deacetylation

> <Parent_ID>
4

> <Parent_InChI>
InChI=1S/C8H9NO2/c1-6(10)9-7-2-4-8(11)5-3-7/h2-5,11H,1H3,(H,9,10)

> <Parent_SMILES>
CC(=O)Nc1ccc(O)cc1

$$$$
Molecule 4_metabolite 7
  CDK     0516241031

 21 21  0  0  0  0  0  0  0  0999 V2000
   -5.1970   -1.5006    0.0000 C   0  0  0  0  0  0  0  0  0  0  0  0
   -6.4962   -0.7508    0.0000 H   0  0  0  0  0  0  0  0  0  0  0  0
   -6.1610   -2.6498    0.0000 H   0  0  0  0  0  0  0  0  0  0  0  0
   -4.2326   -2.6495    0.0000 H   0  0  0  0  0  0  0  0  0  0  0  0
   -3.8981   -0.7504    0.0000 C   0  0  0  0  0  0  0  0  0  0  0  0
   -3.8983    0.7496    0.0000 O   0  0  0  0  0  0  0  0  0  0  0  0
   -2.5989   -1.5002    0.0000 N   0  0  0  0  0  0  0  0  0  0  0  0
   -1.3000   -0.7500    0.0000 C   0  0  0  0  0  0  0  0  0  0  0  0
   -1.3000    0.7500    0.0000 C   0  0  0  0  0  0  0  0  0  0  0  0
   -2.5989    1.5002    0.0000 H   0  0  0  0  0  0  0  0  0  0  0  0
    0.0000    1.5000    0.0000 C   0  0  0  0  0  0  0  0  0  0  0  0
    0.0000    3.0000    0.0000 H   0  0  0  0  0  0  0  0  0  0  0  0
    1.3000    0.7500    0.0000 C   0  0  0  0  0  0  0  0  0  0  0  0
    1.3000   -0.7500    0.0000 C   0  0  0  0  0  0  0  0  0  0  0  0
    2.5989   -1.5002    0.0000 H   0  0  0  0  0  0  0  0  0  0  0  0
    0.0000   -1.5000    0.0000 C   0  0  0  0  0  0  0  0  0  0  0  0
   -0.0000   -3.0000    0.0000 H   0  0  0  0  0  0  0  0  0  0  0  0
    2.5989    1.5002    0.0000 O   0  0  0  0  0  0  0  0  0  0  0  0
    3.8981    0.7504    0.0000 H   0  0  0  0  0  0  0  0  0  0  0  0
   -2.5987   -3.0002    0.0000 O   0  0  0  0  0  0  0  0  0  0  0  0
   -3.8976   -3.7504    0.0000 H   0  0  0  0  0  0  0  0  0  0  0  0
  1  2  1  0  0  0  0 
  1  3  1  0  0  0  0 
  1  4  1  0  0  0  0 
  1  5  1  0  0  0  0 
  5  6  2  0  0  0  0 
  5  7  1  0  0  0  0 
  7  8  1  0  0  0  0 
  8  9  2  0  0  0  0 
  9 10  1  0  0  0  0 
  9 11  1  0  0  0  0 
 11 12  1  0  0  0  0 
 11 13  2  0  0  0  0 
 13 14  1  0  0  0  0 
 14 15  1  0  0  0  0 
 14 16  2  0  0  0  0 
  8 16  1  0  0  0  0 
 16 17  1  0  0  0  0 
 13 18  1  0  0  0  0 
 18 19  1  0  0  0  0 
  7 20  1  0  0  0  0 
 20 21  1  0  0  0  0 
M  END
> <Rank>
5

> <Priority_score>
0.7

> <Reaction_type>
amine hydroxylation

> <Parent_ID>
4

> <Parent_InChI>
InChI=1S/C8H9NO2/c1-6(10)9-7-2-4-8(11)5-3-7/h2-5,11H,1H3,(H,9,10)

> <Parent_SMILES>
CC(=O)Nc1ccc(O)cc1

$$$$
Molecule 4_metabolite 8
  CDK     0516241031

 20 20  0  0  0  0  0  0  0  0999 V2000
    0.0000   -1.5000    0.0000 C   0  0  0  0  0  0  0  0  0  0  0  0
   -0.0000   -3.0000    0.0000 H   0  0  0  0  0  0  0  0  0  0  0  0
   -1.3000   -0.7500    0.0000 C   0  0  0  0  0  0  0  0  0  0  0  0
   -1.3000    0.7500    0.0000 C   0  0  0  0  0  0  0  0  0  0  0  0
   -2.5989    1.5002    0.0000 H   0  0  0  0  0  0  0  0  0  0  0  0
    0.0000    1.5000    0.0000 C   0  0  0  0  0  0  0  0  0  0  0  0
    0.0000    3.0000    0.0000 H   0  0  0  0  0  0  0  0  0  0  0  0
    1.3000    0.7500    0.0000 C   0  0  0  0  0  0  0  0  0  0  0  0
    1.3000   -0.7500    0.0000 C   0  0  0  0  0  0  0  0  0  0  0  0
    2.5989   -1.5002    0.0000 H   0  0  0  0  0  0  0  0  0  0  0  0
    2.5989    1.5002    0.0000 O   0  0  0  0  0  0  0  0  0  0  0  0
    3.8981    0.7504    0.0000 H   0  0  0  0  0  0  0  0  0  0  0  0
   -2.5989   -1.5002    0.0000 N   0  0  0  0  0  0  0  0  0  0  0  0
   -2.5987   -3.0002    0.0000 H   0  0  0  0  0  0  0  0  0  0  0  0
   -3.8981   -0.7504    0.0000 C   0  0  0  0  0  0  0  0  0  0  0  0
   -3.8983    0.7496    0.0000 O   0  0  0  0  0  0  0  0  0  0  0  0
   -5.1970   -1.5006    0.0000 C   0  0  0  0  0  0  0  0  0  0  0  0
   -5.1968   -3.0006    0.0000 O   0  0  0  0  0  0  0  0  0  0  0  0
   -6.4962   -0.7508    0.0000 O   0  0  0  0  0  0  0  0  0  0  0  0
   -7.7951   -1.5010    0.0000 H   0  0  0  0  0  0  0  0  0  0  0  0
  1  2  1  0  0  0  0 
  1  3  2  0  0  0  0 
  3  4  1  0  0  0  0 
  4  5  1  0  0  0  0 
  4  6  2  0  0  0  0 
  6  7  1  0  0  0  0 
  6  8  1  0  0  0  0 
  8  9  2  0  0  0  0 
  1  9  1  0  0  0  0 
  9 10  1  0  0  0  0 
  8 11  1  0  0  0  0 
 11 12  1  0  0  0  0 
  3 13  1  0  0  0  0 
 13 14  1  0  0  0  0 
 13 15  1  0  0  0  0 
 15 16  2  0  0  0  0 
 15 17  1  0  0  0  0 
 17 18  2  0  0  0  0 
 17 19  1  0  0  0  0 
 19 20  1  0  0  0  0 
M  END
> <Rank>
8

> <Priority_score>
0.216

> <Reaction_type>
carboxylation_(primary_carbon_next_to_SP2)

> <Parent_ID>
4

> <Parent_InChI>
InChI=1S/C8H9NO2/c1-6(10)9-7-2-4-8(11)5-3-7/h2-5,11H,1H3,(H,9,10)

> <Parent_SMILES>
CC(=O)Nc1ccc(O)cc1

$$$$
Molecule 4_metabolite 9
  CDK     0516241031

 21 21  0  0  0  0  0  0  0  0999 V2000
   -3.8970    1.4998    0.0000 C   0  0  0  0  0  0  0  0  0  0  0  0
   -3.8970    2.9998    0.0000 H   0  0  0  0  0  0  0  0  0  0  0  0
   -2.5970    0.7498    0.0000 C   0  0  0  0  0  0  0  0  0  0  0  0
   -2.5970   -0.7502    0.0000 C   0  0  0  0  0  0  0  0  0  0  0  0
   -1.2981   -1.5004    0.0000 H   0  0  0  0  0  0  0  0  0  0  0  0
   -3.8970   -1.5002    0.0000 C   0  0  0  0  0  0  0  0  0  0  0  0
   -3.8970   -3.0002    0.0000 H   0  0  0  0  0  0  0  0  0  0  0  0
   -5.1970   -0.7502    0.0000 C   0  0  0  0  0  0  0  0  0  0  0  0
   -5.1970    0.7498    0.0000 C   0  0  0  0  0  0  0  0  0  0  0  0
   -6.4959    1.5000    0.0000 H   0  0  0  0  0  0  0  0  0  0  0  0
   -6.4959   -1.5004    0.0000 O   0  0  0  0  0  0  0  0  0  0  0  0
   -7.7951   -0.7506    0.0000 H   0  0  0  0  0  0  0  0  0  0  0  0
   -1.2981    1.5000    0.0000 N   0  0  0  0  0  0  0  0  0  0  0  0
   -1.2983    3.0000    0.0000 H   0  0  0  0  0  0  0  0  0  0  0  0
    0.0011    0.7502    0.0000 C   0  0  0  0  0  0  0  0  0  0  0  0
    0.0013   -0.7498    0.0000 O   0  0  0  0  0  0  0  0  0  0  0  0
    1.3000    1.5004    0.0000 C   0  0  0  0  0  0  0  0  0  0  0  0
    2.2640    2.6496    0.0000 H   0  0  0  0  0  0  0  0  0  0  0  0
    0.3356    2.6493    0.0000 H   0  0  0  0  0  0  0  0  0  0  0  0
    2.5992    0.7506    0.0000 O   0  0  0  0  0  0  0  0  0  0  0  0
    3.8981    1.5008    0.0000 H   0  0  0  0  0  0  0  0  0  0  0  0
  1  2  1  0  0  0  0 
  1  3  2  0  0  0  0 
  3  4  1  0  0  0  0 
  4  5  1  0  0  0  0 
  4  6  2  0  0  0  0 
  6  7  1  0  0  0  0 
  6  8  1  0  0  0  0 
  8  9  2  0  0  0  0 
  1  9  1  0  0  0  0 
  9 10  1  0  0  0  0 
  8 11  1  0  0  0  0 
 11 12  1  0  0  0  0 
  3 13  1  0  0  0  0 
 13 14  1  0  0  0  0 
 13 15  1  0  0  0  0 
 15 16  2  0  0  0  0 
 15 17  1  0  0  0  0 
 17 18  1  0  0  0  0 
 17 19  1  0  0  0  0 
 17 20  1  0  0  0  0 
 20 21  1  0  0  0  0 
M  END
> <Rank>
8

> <Priority_score>
0.216

> <Reaction_type>
aliphatic_hydroxylation_(primary_carbon_next_to_SP2_or_SP1)

> <Parent_ID>
4

> <Parent_InChI>
InChI=1S/C8H9NO2/c1-6(10)9-7-2-4-8(11)5-3-7/h2-5,11H,1H3,(H,9,10)

> <Parent_SMILES>
CC(=O)Nc1ccc(O)cc1

$$$$
Molecule 4_metabolite 10
  CDK     0516241031

 23 23  0  0  0  0  0  0  0  0999 V2000
    3.8978    1.5004    0.0000 C   0  0  0  0  0  0  0  0  0  0  0  0
    5.1970    0.7506    0.0000 H   0  0  0  0  0  0  0  0  0  0  0  0
    4.8618    2.6496    0.0000 H   0  0  0  0  0  0  0  0  0  0  0  0
    2.9335    2.6493    0.0000 H   0  0  0  0  0  0  0  0  0  0  0  0
    2.5989    0.7502    0.0000 C   0  0  0  0  0  0  0  0  0  0  0  0
    2.5992   -0.7498    0.0000 O   0  0  0  0  0  0  0  0  0  0  0  0
    1.2998    1.5000    0.0000 N   0  0  0  0  0  0  0  0  0  0  0  0
    1.2995    3.0000    0.0000 H   0  0  0  0  0  0  0  0  0  0  0  0
    0.0008    0.7498    0.0000 C   0  0  0  0  0  0  0  0  0  0  0  0
    0.0008   -0.7502    0.0000 C   0  0  0  0  0  0  0  0  0  0  0  0
    1.2998   -1.5004    0.0000 H   0  0  0  0  0  0  0  0  0  0  0  0
   -1.2992   -1.5002    0.0000 C   0  0  0  0  0  0  0  0  0  0  0  0
   -1.2992   -3.0002    0.0000 H   0  0  0  0  0  0  0  0  0  0  0  0
   -2.5992   -0.7502    0.0000 C   0  0  0  0  0  0  0  0  0  0  0  0
   -2.5992    0.7498    0.0000 C   0  0  0  0  0  0  0  0  0  0  0  0
   -3.8981    1.5000    0.0000 H   0  0  0  0  0  0  0  0  0  0  0  0
   -1.2992    1.4998    0.0000 C   0  0  0  0  0  0  0  0  0  0  0  0
   -1.2992    2.9998    0.0000 H   0  0  0  0  0  0  0  0  0  0  0  0
   -3.8981   -1.5004    0.0000 O   0  0  0  0  0  0  0  0  0  0  0  0
   -5.1972   -0.7506    0.0000 C   0  0  0  0  0  0  0  0  0  0  0  0
   -6.4962   -1.5008    0.0000 H   0  0  0  0  0  0  0  0  0  0  0  0
   -4.2332    0.3986    0.0000 H   0  0  0  0  0  0  0  0  0  0  0  0
   -6.1616    0.3983    0.0000 H   0  0  0  0  0  0  0  0  0  0  0  0
  1  2  1  0  0  0  0 
  1  3  1  0  0  0  0 
  1  4  1  0  0  0  0 
  1  5  1  0  0  0  0 
  5  6  2  0  0  0  0 
  5  7  1  0  0  0  0 
  7  8  1  0  0  0  0 
  7  9  1  0  0  0  0 
  9 10  2  0  0  0  0 
 10 11  1  0  0  0  0 
 10 12  1  0  0  0  0 
 12 13  1  0  0  0  0 
 12 14  2  0  0  0  0 
 14 15  1  0  0  0  0 
 15 16  1  0  0  0  0 
 15 17  2  0  0  0  0 
  9 17  1  0  0  0  0 
 17 18  1  0  0  0  0 
 14 19  1  0  0  0  0 
 19 20  1  0  0  0  0 
 20 21  1  0  0  0  0 
 20 22  1  0  0  0  0 
 20 23  1  0  0  0  0 
M  END
> <Rank>
10

> <Priority_score>
0.18

> <Reaction_type>
methylation_(aromatic_OH)

> <Parent_ID>
4

> <Parent_InChI>
InChI=1S/C8H9NO2/c1-6(10)9-7-2-4-8(11)5-3-7/h2-5,11H,1H3,(H,9,10)

> <Parent_SMILES>
CC(=O)Nc1ccc(O)cc1

$$$$
Molecule 4_metabolite 11
  CDK     0516241031

 12 12  0  0  0  0  0  0  0  0999 V2000
    1.3000    0.7500    0.0000 C   0  0  0  0  0  0  0  0  0  0  0  0
    2.5989    1.5002    0.0000 H   0  0  0  0  0  0  0  0  0  0  0  0
    1.3000   -0.7500    0.0000 C   0  0  0  0  0  0  0  0  0  0  0  0
    2.5989   -1.5002    0.0000 H   0  0  0  0  0  0  0  0  0  0  0  0
   -0.0000   -1.5000    0.0000 C   0  0  0  0  0  0  0  0  0  0  0  0
   -0.0000   -3.0000    0.0000 O   0  0  0  0  0  0  0  0  0  0  0  0
   -1.3000   -0.7500    0.0000 C   0  0  0  0  0  0  0  0  0  0  0  0
   -2.5989   -1.5002    0.0000 H   0  0  0  0  0  0  0  0  0  0  0  0
   -1.3000    0.7500    0.0000 C   0  0  0  0  0  0  0  0  0  0  0  0
   -2.5989    1.5002    0.0000 H   0  0  0  0  0  0  0  0  0  0  0  0
    0.0000    1.5000    0.0000 C   0  0  0  0  0  0  0  0  0  0  0  0
    0.0000    3.0000    0.0000 O   0  0  0  0  0  0  0  0  0  0  0  0
  1  2  1  0  0  0  0 
  1  3  2  0  0  0  0 
  3  4  1  0  0  0  0 
  3  5  1  0  0  0  0 
  5  6  2  0  0  0  0 
  5  7  1  0  0  0  0 
  7  8  1  0  0  0  0 
  7  9  2  0  0  0  0 
  9 10  1  0  0  0  0 
  9 11  1  0  0  0  0 
  1 11  1  0  0  0  0 
 11 12  2  0  0  0  0 
M  END
> <Rank>
11

> <Priority_score>
0.1464

> <Reaction_type>
oxidation of 4-substituted phenol to quinone

> <Parent_ID>
4

> <Parent_InChI>
InChI=1S/C8H9NO2/c1-6(10)9-7-2-4-8(11)5-3-7/h2-5,11H,1H3,(H,9,10)

> <Parent_SMILES>
CC(=O)Nc1ccc(O)cc1

$$$$
Molecule 4_metabolite 12
  CDK     0516241031

  9  8  0  0  0  0  0  0  0  0999 V2000
    1.2990   -0.7500    0.0000 C   0  0  0  0  0  0  0  0  0  0  0  0
    0.0000    0.0000    0.0000 H   0  0  0  0  0  0  0  0  0  0  0  0
    0.3349   -1.8991    0.0000 H   0  0  0  0  0  0  0  0  0  0  0  0
    2.2632   -1.8991    0.0000 H   0  0  0  0  0  0  0  0  0  0  0  0
    2.5981   -0.0000    0.0000 C   0  0  0  0  0  0  0  0  0  0  0  0
    2.5981    1.5000    0.0000 O   0  0  0  0  0  0  0  0  0  0  0  0
    3.8971   -0.7500    0.0000 N   0  0  0  0  0  0  0  0  0  0  0  0
    5.1962   -0.0000    0.0000 H   0  0  0  0  0  0  0  0  0  0  0  0
    3.8971   -2.2500    0.0000 H   0  0  0  0  0  0  0  0  0  0  0  0
  1  2  1  0  0  0  0 
  1  3  1  0  0  0  0 
  1  4  1  0  0  0  0 
  1  5  1  0  0  0  0 
  5  6  2  0  0  0  0 
  5  7  1  0  0  0  0 
  7  8  1  0  0  0  0 
  7  9  1  0  0  0  0 
M  END
> <Rank>
11

> <Priority_score>
0.1464

> <Reaction_type>
oxidation of 4-substituted phenol to quinone

> <Parent_ID>
4

> <Parent_InChI>
InChI=1S/C8H9NO2/c1-6(10)9-7-2-4-8(11)5-3-7/h2-5,11H,1H3,(H,9,10)

> <Parent_SMILES>
CC(=O)Nc1ccc(O)cc1

$$$$
Molecule 4_metabolite 13
  CDK     0516241031

 40 41  0  0  0  0  0  0  0  0999 V2000
    1.5251   -4.2671    0.0000 C   0  0  0  0  0  0  0  0  0  0  0  0
    0.5607   -5.4159    0.0000 H   0  0  0  0  0  0  0  0  0  0  0  0
    2.8243   -3.5173    0.0000 H   0  0  0  0  0  0  0  0  0  0  0  0
    2.4890   -5.4163    0.0000 H   0  0  0  0  0  0  0  0  0  0  0  0
    1.0124   -2.8574    0.0000 C   0  0  0  0  0  0  0  0  0  0  0  0
   -0.4648   -2.5966    0.0000 O   0  0  0  0  0  0  0  0  0  0  0  0
    1.9768   -1.7086    0.0000 N   0  0  0  0  0  0  0  0  0  0  0  0
    3.4540   -1.9693    0.0000 C   0  0  0  0  0  0  0  0  0  0  0  0
    3.9669   -3.3789    0.0000 C   0  0  0  0  0  0  0  0  0  0  0  0
    3.0029   -4.5281    0.0000 H   0  0  0  0  0  0  0  0  0  0  0  0
    5.4450   -3.6391    0.0000 C   0  0  0  0  0  0  0  0  0  0  0  0
    5.9580   -5.0487    0.0000 H   0  0  0  0  0  0  0  0  0  0  0  0
    6.4102   -2.4898    0.0000 C   0  0  0  0  0  0  0  0  0  0  0  0
    5.8972   -1.0802    0.0000 C   0  0  0  0  0  0  0  0  0  0  0  0
    6.8613    0.0689    0.0000 H   0  0  0  0  0  0  0  0  0  0  0  0
    4.4191   -0.8200    0.0000 C   0  0  0  0  0  0  0  0  0  0  0  0
    3.9062    0.5896    0.0000 H   0  0  0  0  0  0  0  0  0  0  0  0
    7.8873   -2.7506    0.0000 O   0  0  0  0  0  0  0  0  0  0  0  0
    8.4000   -4.1602    0.0000 H   0  0  0  0  0  0  0  0  0  0  0  0
    1.4641   -0.2989    0.0000 C   0  0  0  0  0  0  0  0  0  0  0  0
    2.9413   -0.0386    0.0000 H   0  0  0  0  0  0  0  0  0  0  0  0
    1.4641    1.2011    0.0000 C   0  0  0  0  0  0  0  0  0  0  0  0
    2.9413    0.9408    0.0000 H   0  0  0  0  0  0  0  0  0  0  0  0
    0.1641    1.9511    0.0000 C   0  0  0  0  0  0  0  0  0  0  0  0
    1.1281    3.1003    0.0000 H   0  0  0  0  0  0  0  0  0  0  0  0
   -1.1359    1.2011    0.0000 C   0  0  0  0  0  0  0  0  0  0  0  0
   -1.6487    2.6107    0.0000 H   0  0  0  0  0  0  0  0  0  0  0  0
   -1.1359   -0.2989    0.0000 C   0  0  0  0  0  0  0  0  0  0  0  0
   -2.6132   -0.0386    0.0000 H   0  0  0  0  0  0  0  0  0  0  0  0
   -1.8127   -2.1596    0.0000 C   0  0  0  0  0  0  0  0  0  0  0  0
   -0.8483   -3.3085    0.0000 O   0  0  0  0  0  0  0  0  0  0  0  0
   -3.2899   -2.4204    0.0000 O   0  0  0  0  0  0  0  0  0  0  0  0
   -4.2543   -1.2716    0.0000 H   0  0  0  0  0  0  0  0  0  0  0  0
    0.1641   -1.0489    0.0000 O   0  0  0  0  0  0  0  0  0  0  0  0
   -2.6132    0.9408    0.0000 O   0  0  0  0  0  0  0  0  0  0  0  0
   -3.5772    2.0899    0.0000 H   0  0  0  0  0  0  0  0  0  0  0  0
   -0.8000    3.1003    0.0000 O   0  0  0  0  0  0  0  0  0  0  0  0
   -0.2868    4.5097    0.0000 H   0  0  0  0  0  0  0  0  0  0  0  0
    1.9768    2.6107    0.0000 O   0  0  0  0  0  0  0  0  0  0  0  0
    3.4540    2.8715    0.0000 H   0  0  0  0  0  0  0  0  0  0  0  0
  1  2  1  0  0  0  0 
  1  3  1  0  0  0  0 
  1  4  1  0  0  0  0 
  1  5  1  0  0  0  0 
  5  6  2  0  0  0  0 
  5  7  1  0  0  0  0 
  7  8  1  0  0  0  0 
  8  9  2  0  0  0  0 
  9 10  1  0  0  0  0 
  9 11  1  0  0  0  0 
 11 12  1  0  0  0  0 
 11 13  2  0  0  0  0 
 13 14  1  0  0  0  0 
 14 15  1  0  0  0  0 
 14 16  2  0  0  0  0 
  8 16  1  0  0  0  0 
 16 17  1  0  0  0  0 
 13 18  1  0  0  0  0 
 18 19  1  0  0  0  0 
  7 20  1  0  0  0  0 
 20 21  1  0  0  0  0 
 20 22  1  0  0  0  0 
 22 23  1  0  0  0  0 
 22 24  1  0  0  0  0 
 24 25  1  0  0  0  0 
 24 26  1  0  0  0  0 
 26 27  1  0  0  0  0 
 26 28  1  0  0  0  0 
 28 29  1  0  0  0  0 
 28 30  1  0  0  0  0 
 30 31  2  0  0  0  0 
 30 32  1  0  0  0  0 
 32 33  1  0  0  0  0 
 28 34  1  0  0  0  0 
 20 34  1  0  0  0  0 
 26 35  1  0  0  0  0 
 35 36  1  0  0  0  0 
 24 37  1  0  0  0  0 
 37 38  1  0  0  0  0 
 22 39  1  0  0  0  0 
 39 40  1  0  0  0  0 
M  END
> <Rank>
13

> <Priority_score>
0.06

> <Reaction_type>
N-glucuronidation_(aniline_NH1-R)

> <Parent_ID>
4

> <Parent_InChI>
InChI=1S/C8H9NO2/c1-6(10)9-7-2-4-8(11)5-3-7/h2-5,11H,1H3,(H,9,10)

> <Parent_SMILES>
CC(=O)Nc1ccc(O)cc1

$$$$
Molecule 5
  CDK     0516241031

 18 19  0  0  0  0  0  0  0  0999 V2000
    2.6257    2.3737    0.0000 C   0  0  0  0  0  0  0  0  0  0  0  0
    2.6747    0.8745    0.0000 C   0  0  0  0  0  0  0  0  0  0  0  0
    1.4009    0.0824    0.0000 C   0  0  0  0  0  0  0  0  0  0  0  0
    0.1314    0.7813    0.0000 C   0  0  0  0  0  0  0  0  0  0  0  0
   -1.1553    0.0500    0.0000 C   0  0  0  0  0  0  0  0  0  0  0  0
   -1.0879   -1.4468    0.0000 C   0  0  0  0  0  0  0  0  0  0  0  0
    0.1816   -2.1457    0.0000 C   0  0  0  0  0  0  0  0  0  0  0  0
    1.4684   -1.4144    0.0000 C   0  0  0  0  0  0  0  0  0  0  0  0
   -2.3617   -2.2389    0.0000 C   0  0  0  0  0  0  0  0  0  0  0  0
   -3.6846   -1.5318    0.0000 C   0  0  0  0  0  0  0  0  0  0  0  0
   -3.8853   -0.0432    0.0000 C   0  0  0  0  0  0  0  0  0  0  0  0
   -5.3661    0.2086    0.0000 C   0  0  0  0  0  0  0  0  0  0  0  0
   -6.0677   -1.1090    0.0000 C   0  0  0  0  0  0  0  0  0  0  0  0
   -5.0254   -2.1877    0.0000 C   0  0  0  0  0  0  0  0  0  0  0  0
   -5.2848   -3.6651    0.0000 O   0  0  0  0  0  0  0  0  0  0  0  0
    3.9976    0.1674    0.0000 C   0  0  0  0  0  0  0  0  0  0  0  0
    4.0466   -1.3318    0.0000 O   0  0  0  0  0  0  0  0  0  0  0  0
    5.2714    0.9595    0.0000 O   0  0  0  0  0  0  0  0  0  0  0  0
  1  2  1  0  0  0  0 
  2  3  1  0  0  0  0 
  3  4  2  0  0  0  0 
  4  5  1  0  0  0  0 
  5  6  2  0  0  0  0 
  6  7  1  0  0  0  0 
  7  8  2  0  0  0  0 
  3  8  1  0  0  0  0 
  6  9  1  0  0  0  0 
  9 10  1  0  0  0  0 
 10 11  1  0  0  0  0 
 11 12  1  0  0  0  0 
 12 13  1  0  0  0  0 
 13 14  1  0  0  0  0 
 10 14  1  0  0  0  0 
 14 15  2  0  0  0  0 
  2 16  1  0  0  0  0 
 16 17  2  0  0  0  0 
 16 18  1  0  0  0  0 
M  END
> <SMILES>
CC(C(=O)O)c1ccc(CC2CCCC2=O)cc1

$$$$
Molecule 5_metabolite 1
  CDK     0516241031

 56 58  0  0  0  0  0  0  0  0999 V2000
    9.7511   -3.6803    0.0000 C   0  0  0  0  0  0  0  0  0  0  0  0
    8.3404   -3.1706    0.0000 H   0  0  0  0  0  0  0  0  0  0  0  0
   10.0082   -2.2025    0.0000 H   0  0  0  0  0  0  0  0  0  0  0  0
   11.2511   -3.6769    0.0000 H   0  0  0  0  0  0  0  0  0  0  0  0
   10.0150   -5.1569    0.0000 C   0  0  0  0  0  0  0  0  0  0  0  0
    9.7579   -6.6348    0.0000 H   0  0  0  0  0  0  0  0  0  0  0  0
    7.5550   -5.1626    0.0000 C   0  0  0  0  0  0  0  0  0  0  0  0
    6.8488   -6.4281    0.0000 C   0  0  0  0  0  0  0  0  0  0  0  0
    7.6352   -7.7055    0.0000 H   0  0  0  0  0  0  0  0  0  0  0  0
    5.3701   -6.4899    0.0000 C   0  0  0  0  0  0  0  0  0  0  0  0
    4.6408   -7.8006    0.0000 H   0  0  0  0  0  0  0  0  0  0  0  0
    4.6340   -5.1848    0.0000 C   0  0  0  0  0  0  0  0  0  0  0  0
    5.3401   -3.9193    0.0000 C   0  0  0  0  0  0  0  0  0  0  0  0
    4.5538   -2.6420    0.0000 H   0  0  0  0  0  0  0  0  0  0  0  0
    6.8189   -3.8576    0.0000 C   0  0  0  0  0  0  0  0  0  0  0  0
    7.5482   -2.5468    0.0000 H   0  0  0  0  0  0  0  0  0  0  0  0
    3.1340   -5.1883    0.0000 C   0  0  0  0  0  0  0  0  0  0  0  0
    3.3979   -6.6649    0.0000 H   0  0  0  0  0  0  0  0  0  0  0  0
    1.7256   -5.7046    0.0000 H   0  0  0  0  0  0  0  0  0  0  0  0
    2.3810   -3.8910    0.0000 C   0  0  0  0  0  0  0  0  0  0  0  0
    3.7513   -3.2808    0.0000 H   0  0  0  0  0  0  0  0  0  0  0  0
    1.9200   -2.4614    0.0000 C   0  0  0  0  0  0  0  0  0  0  0  0
    3.3867   -2.1470    0.0000 H   0  0  0  0  0  0  0  0  0  0  0  0
    1.7548   -0.9705    0.0000 H   0  0  0  0  0  0  0  0  0  0  0  0
    0.4180   -2.4757    0.0000 C   0  0  0  0  0  0  0  0  0  0  0  0
    0.5639   -0.9828    0.0000 H   0  0  0  0  0  0  0  0  0  0  0  0
   -1.0508   -2.1712    0.0000 H   0  0  0  0  0  0  0  0  0  0  0  0
   -0.0393   -3.8966    0.0000 C   0  0  0  0  0  0  0  0  0  0  0  0
   -1.4115   -3.2907    0.0000 H   0  0  0  0  0  0  0  0  0  0  0  0
   -0.7849   -5.1982    0.0000 H   0  0  0  0  0  0  0  0  0  0  0  0
    1.1774   -4.7738    0.0000 C   0  0  0  0  0  0  0  0  0  0  0  0
    1.1836   -6.2738    0.0000 O   0  0  0  0  0  0  0  0  0  0  0  0
   11.4257   -5.6667    0.0000 C   0  0  0  0  0  0  0  0  0  0  0  0
   12.5725   -4.6999    0.0000 O   0  0  0  0  0  0  0  0  0  0  0  0
   11.6896   -7.1433    0.0000 O   0  0  0  0  0  0  0  0  0  0  0  0
   13.1003   -7.6531    0.0000 C   0  0  0  0  0  0  0  0  0  0  0  0
   13.3608   -6.1759    0.0000 H   0  0  0  0  0  0  0  0  0  0  0  0
   12.3612   -8.9469    0.0000 C   0  0  0  0  0  0  0  0  0  0  0  0
   11.2174   -9.9173    0.0000 H   0  0  0  0  0  0  0  0  0  0  0  0
   13.1304  -10.2616    0.0000 C   0  0  0  0  0  0  0  0  0  0  0  0
   13.4036  -11.7365    0.0000 H   0  0  0  0  0  0  0  0  0  0  0  0
   14.6362  -10.2465    0.0000 C   0  0  0  0  0  0  0  0  0  0  0  0
   16.0490  -10.7504    0.0000 H   0  0  0  0  0  0  0  0  0  0  0  0
   15.3753   -8.9527    0.0000 C   0  0  0  0  0  0  0  0  0  0  0  0
   16.5197   -7.9830    0.0000 H   0  0  0  0  0  0  0  0  0  0  0  0
   16.8980  -10.2182    0.0000 C   0  0  0  0  0  0  0  0  0  0  0  0
   16.6445  -11.6967    0.0000 O   0  0  0  0  0  0  0  0  0  0  0  0
   18.3051   -9.6986    0.0000 O   0  0  0  0  0  0  0  0  0  0  0  0
   19.4587  -10.6573    0.0000 H   0  0  0  0  0  0  0  0  0  0  0  0
   14.6185   -7.6566    0.0000 O   0  0  0  0  0  0  0  0  0  0  0  0
   14.3879  -11.7258    0.0000 O   0  0  0  0  0  0  0  0  0  0  0  0
   15.5449  -12.6805    0.0000 H   0  0  0  0  0  0  0  0  0  0  0  0
   11.7246  -10.7847    0.0000 O   0  0  0  0  0  0  0  0  0  0  0  0
   11.4748  -12.2638    0.0000 H   0  0  0  0  0  0  0  0  0  0  0  0
   11.2074   -7.9885    0.0000 O   0  0  0  0  0  0  0  0  0  0  0  0
    9.8004   -8.5086    0.0000 H   0  0  0  0  0  0  0  0  0  0  0  0
  1  2  1  0  0  0  0 
  1  3  1  0  0  0  0 
  1  4  1  0  0  0  0 
  1  5  1  0  0  0  0 
  5  6  1  0  0  0  0 
  5  7  1  0  0  0  0 
  7  8  2  0  0  0  0 
  8  9  1  0  0  0  0 
  8 10  1  0  0  0  0 
 10 11  1  0  0  0  0 
 10 12  2  0  0  0  0 
 12 13  1  0  0  0  0 
 13 14  1  0  0  0  0 
 13 15  2  0  0  0  0 
  7 15  1  0  0  0  0 
 15 16  1  0  0  0  0 
 12 17  1  0  0  0  0 
 17 18  1  0  0  0  0 
 17 19  1  0  0  0  0 
 17 20  1  0  0  0  0 
 20 21  1  0  0  0  0 
 20 22  1  0  0  0  0 
 22 23  1  0  0  0  0 
 22 24  1  0  0  0  0 
 22 25  1  0  0  0  0 
 25 26  1  0  0  0  0 
 25 27  1  0  0  0  0 
 25 28  1  0  0  0  0 
 28 29  1  0  0  0  0 
 28 30  1  0  0  0  0 
 28 31  1  0  0  0  0 
 20 31  1  0  0  0  0 
 31 32  2  0  0  0  0 
  5 33  1  0  0  0  0 
 33 34  2  0  0  0  0 
 33 35  1  0  0  0  0 
 35 36  1  0  0  0  0 
 36 37  1  0  0  0  0 
 36 38  1  0  0  0  0 
 38 39  1  0  0  0  0 
 38 40  1  0  0  0  0 
 40 41  1  0  0  0  0 
 40 42  1  0  0  0  0 
 42 43  1  0  0  0  0 
 42 44  1  0  0  0  0 
 44 45  1  0  0  0  0 
 44 46  1  0  0  0  0 
 46 47  2  0  0  0  0 
 46 48  1  0  0  0  0 
 48 49  1  0  0  0  0 
 44 50  1  0  0  0  0 
 36 50  1  0  0  0  0 
 42 51  1  0  0  0  0 
 51 52  1  0  0  0  0 
 40 53  1  0  0  0  0 
 53 54  1  0  0  0  0 
 38 55  1  0  0  0  0 
 55 56  1  0  0  0  0 
M  END
> <Rank>
1

> <Priority_score>
0.992

> <Reaction_type>
O-glucuronidation_(aliphatic_carboxyl)

> <Parent_ID>
5

> <Parent_InChI>
InChI=1S/C15H18O3/c1-10(15(17)18)12-7-5-11(6-8-12)9-13-3-2-4-14(13)16/h5-8,10,13H,2-4,9H2,1H3,(H,17,18)

> <Parent_SMILES>
CC(C(=O)O)c1ccc(CC2CCCC2=O)cc1

$$$$
Molecule 5_metabolite 2
  CDK     0516241031

 37 38  0  0  0  0  0  0  0  0999 V2000
    3.9767   -4.0138    0.0000 C   0  0  0  0  0  0  0  0  0  0  0  0
    4.5355   -5.4058    0.0000 H   0  0  0  0  0  0  0  0  0  0  0  0
    5.4446   -3.7052    0.0000 H   0  0  0  0  0  0  0  0  0  0  0  0
    3.9277   -2.5146    0.0000 H   0  0  0  0  0  0  0  0  0  0  0  0
    2.4918   -3.8018    0.0000 C   0  0  0  0  0  0  0  0  0  0  0  0
    2.9584   -2.3762    0.0000 H   0  0  0  0  0  0  0  0  0  0  0  0
    1.1689   -3.0947    0.0000 C   0  0  0  0  0  0  0  0  0  0  0  0
    1.1394   -1.6458    0.0000 C   0  0  0  0  0  0  0  0  0  0  0  0
    2.4333   -0.8870    0.0000 H   0  0  0  0  0  0  0  0  0  0  0  0
   -0.1373   -0.8971    0.0000 C   0  0  0  0  0  0  0  0  0  0  0  0
   -0.1660    0.6026    0.0000 H   0  0  0  0  0  0  0  0  0  0  0  0
   -1.3999   -1.7039    0.0000 C   0  0  0  0  0  0  0  0  0  0  0  0
   -1.3704   -3.1528    0.0000 C   0  0  0  0  0  0  0  0  0  0  0  0
   -2.6643   -3.9116    0.0000 H   0  0  0  0  0  0  0  0  0  0  0  0
   -0.0937   -3.9015    0.0000 C   0  0  0  0  0  0  0  0  0  0  0  0
   -0.0650   -5.4012    0.0000 H   0  0  0  0  0  0  0  0  0  0  0  0
   -2.7228   -0.9968    0.0000 C   0  0  0  0  0  0  0  0  0  0  0  0
   -4.2077   -0.7848    0.0000 H   0  0  0  0  0  0  0  0  0  0  0  0
   -3.1894   -2.4224    0.0000 H   0  0  0  0  0  0  0  0  0  0  0  0
   -2.7718    0.5024    0.0000 C   0  0  0  0  0  0  0  0  0  0  0  0
   -1.2759    0.3911    0.0000 H   0  0  0  0  0  0  0  0  0  0  0  0
   -2.5011    1.9798    0.0000 C   0  0  0  0  0  0  0  0  0  0  0  0
   -1.0603    1.5624    0.0000 H   0  0  0  0  0  0  0  0  0  0  0  0
   -1.9407    3.3712    0.0000 H   0  0  0  0  0  0  0  0  0  0  0  0
   -3.8308    2.6784    0.0000 C   0  0  0  0  0  0  0  0  0  0  0  0
   -2.9955    3.9242    0.0000 H   0  0  0  0  0  0  0  0  0  0  0  0
   -4.9804    3.6419    0.0000 H   0  0  0  0  0  0  0  0  0  0  0  0
   -4.9063    1.6433    0.0000 C   0  0  0  0  0  0  0  0  0  0  0  0
   -5.8281    2.8267    0.0000 H   0  0  0  0  0  0  0  0  0  0  0  0
   -4.2499    0.2946    0.0000 C   0  0  0  0  0  0  0  0  0  0  0  0
   -4.9546   -1.0296    0.0000 O   0  0  0  0  0  0  0  0  0  0  0  0
   -6.1793    0.8499    0.0000 O   0  0  0  0  0  0  0  0  0  0  0  0
   -7.5029    1.5556    0.0000 H   0  0  0  0  0  0  0  0  0  0  0  0
    2.5408   -5.3010    0.0000 C   0  0  0  0  0  0  0  0  0  0  0  0
    1.2670   -6.0931    0.0000 O   0  0  0  0  0  0  0  0  0  0  0  0
    3.8637   -6.0081    0.0000 O   0  0  0  0  0  0  0  0  0  0  0  0
    3.9127   -7.5073    0.0000 H   0  0  0  0  0  0  0  0  0  0  0  0
  1  2  1  0  0  0  0 
  1  3  1  0  0  0  0 
  1  4  1  0  0  0  0 
  1  5  1  0  0  0  0 
  5  6  1  0  0  0  0 
  5  7  1  0  0  0  0 
  7  8  2  0  0  0  0 
  8  9  1  0  0  0  0 
  8 10  1  0  0  0  0 
 10 11  1  0  0  0  0 
 10 12  2  0  0  0  0 
 12 13  1  0  0  0  0 
 13 14  1  0  0  0  0 
 13 15  2  0  0  0  0 
  7 15  1  0  0  0  0 
 15 16  1  0  0  0  0 
 12 17  1  0  0  0  0 
 17 18  1  0  0  0  0 
 17 19  1  0  0  0  0 
 17 20  1  0  0  0  0 
 20 21  1  0  0  0  0 
 20 22  1  0  0  0  0 
 22 23  1  0  0  0  0 
 22 24  1  0  0  0  0 
 22 25  1  0  0  0  0 
 25 26  1  0  0  0  0 
 25 27  1  0  0  0  0 
 25 28  1  0  0  0  0 
 28 29  1  0  0  0  0 
 28 30  1  0  0  0  0 
 20 30  1  0  0  0  0 
 30 31  2  0  0  0  0 
 28 32  1  0  0  0  0 
 32 33  1  0  0  0  0 
  5 34  1  0  0  0  0 
 34 35  2  0  0  0  0 
 34 36  1  0  0  0  0 
 36 37  1  0  0  0  0 
M  END
> <Rank>
2

> <Priority_score>
0.688

> <Reaction_type>
aliphatic_hydroxylation_(sec_carbon_next_to_SP2,in_a_ring)

> <Parent_ID>
5

> <Parent_InChI>
InChI=1S/C15H18O3/c1-10(15(17)18)12-7-5-11(6-8-12)9-13-3-2-4-14(13)16/h5-8,10,13H,2-4,9H2,1H3,(H,17,18)

> <Parent_SMILES>
CC(C(=O)O)c1ccc(CC2CCCC2=O)cc1

$$$$
Molecule 5_metabolite 3
  CDK     0516241031

 34 35  0  0  0  0  0  0  0  0999 V2000
    1.7146    3.4949    0.0000 C   0  0  0  0  0  0  0  0  0  0  0  0
    3.1066    4.0537    0.0000 H   0  0  0  0  0  0  0  0  0  0  0  0
    1.4060    4.9628    0.0000 H   0  0  0  0  0  0  0  0  0  0  0  0
    0.2154    3.4459    0.0000 H   0  0  0  0  0  0  0  0  0  0  0  0
    1.5025    2.0100    0.0000 C   0  0  0  0  0  0  0  0  0  0  0  0
    0.0770    2.4766    0.0000 H   0  0  0  0  0  0  0  0  0  0  0  0
    0.7954    0.6871    0.0000 C   0  0  0  0  0  0  0  0  0  0  0  0
   -0.6535    0.6576    0.0000 C   0  0  0  0  0  0  0  0  0  0  0  0
   -1.4123    1.9515    0.0000 H   0  0  0  0  0  0  0  0  0  0  0  0
   -1.4021   -0.6191    0.0000 C   0  0  0  0  0  0  0  0  0  0  0  0
   -2.9018   -0.6478    0.0000 H   0  0  0  0  0  0  0  0  0  0  0  0
   -0.5953   -1.8817    0.0000 C   0  0  0  0  0  0  0  0  0  0  0  0
    0.8536   -1.8522    0.0000 C   0  0  0  0  0  0  0  0  0  0  0  0
    1.6124   -3.1461    0.0000 H   0  0  0  0  0  0  0  0  0  0  0  0
    1.6022   -0.5755    0.0000 C   0  0  0  0  0  0  0  0  0  0  0  0
    3.1020   -0.5468    0.0000 H   0  0  0  0  0  0  0  0  0  0  0  0
   -1.3024   -3.2046    0.0000 C   0  0  0  0  0  0  0  0  0  0  0  0
   -0.5104   -4.4784    0.0000 H   0  0  0  0  0  0  0  0  0  0  0  0
   -2.8016   -3.2536    0.0000 C   0  0  0  0  0  0  0  0  0  0  0  0
   -3.7198   -2.0648    0.0000 C   0  0  0  0  0  0  0  0  0  0  0  0
   -2.4464   -1.2721    0.0000 H   0  0  0  0  0  0  0  0  0  0  0  0
   -4.3803   -0.7181    0.0000 H   0  0  0  0  0  0  0  0  0  0  0  0
   -5.1281   -2.5872    0.0000 C   0  0  0  0  0  0  0  0  0  0  0  0
   -5.4966   -1.1332    0.0000 H   0  0  0  0  0  0  0  0  0  0  0  0
   -6.6131   -2.7984    0.0000 H   0  0  0  0  0  0  0  0  0  0  0  0
   -5.0769   -4.0790    0.0000 C   0  0  0  0  0  0  0  0  0  0  0  0
   -6.5732   -3.9739    0.0000 H   0  0  0  0  0  0  0  0  0  0  0  0
   -5.3374   -5.5562    0.0000 H   0  0  0  0  0  0  0  0  0  0  0  0
   -3.6349   -4.4920    0.0000 C   0  0  0  0  0  0  0  0  0  0  0  0
   -3.1208   -5.9012    0.0000 O   0  0  0  0  0  0  0  0  0  0  0  0
    3.0017    2.0590    0.0000 C   0  0  0  0  0  0  0  0  0  0  0  0
    3.7938    0.7852    0.0000 O   0  0  0  0  0  0  0  0  0  0  0  0
    3.7089    3.3819    0.0000 O   0  0  0  0  0  0  0  0  0  0  0  0
    5.2081    3.4309    0.0000 H   0  0  0  0  0  0  0  0  0  0  0  0
  1  2  1  0  0  0  0 
  1  3  1  0  0  0  0 
  1  4  1  0  0  0  0 
  1  5  1  0  0  0  0 
  5  6  1  0  0  0  0 
  5  7  1  0  0  0  0 
  7  8  2  0  0  0  0 
  8  9  1  0  0  0  0 
  8 10  1  0  0  0  0 
 10 11  1  0  0  0  0 
 10 12  2  0  0  0  0 
 12 13  1  0  0  0  0 
 13 14  1  0  0  0  0 
 13 15  2  0  0  0  0 
  7 15  1  0  0  0  0 
 15 16  1  0  0  0  0 
 12 17  1  0  0  0  0 
 17 18  1  4  0  0  0 
 17 19  2  0  0  0  0 
 19 20  1  0  0  0  0 
 20 21  1  0  0  0  0 
 20 22  1  0  0  0  0 
 20 23  1  0  0  0  0 
 23 24  1  0  0  0  0 
 23 25  1  0  0  0  0 
 23 26  1  0  0  0  0 
 26 27  1  0  0  0  0 
 26 28  1  0  0  0  0 
 26 29  1  0  0  0  0 
 19 29  1  0  0  0  0 
 29 30  2  0  0  0  0 
  5 31  1  0  0  0  0 
 31 32  2  0  0  0  0 
 31 33  1  0  0  0  0 
 33 34  1  0  0  0  0 
M  END
> <Rank>
2

> <Priority_score>
0.688

> <Reaction_type>
dehydrogenation_(alpha,beta_to_SP2_both_sides)

> <Parent_ID>
5

> <Parent_InChI>
InChI=1S/C15H18O3/c1-10(15(17)18)12-7-5-11(6-8-12)9-13-3-2-4-14(13)16/h5-8,10,13H,2-4,9H2,1H3,(H,17,18)

> <Parent_SMILES>
CC(C(=O)O)c1ccc(CC2CCCC2=O)cc1

$$$$
Molecule 5_metabolite 4
  CDK     0516241031

 38 39  0  0  0  0  0  0  0  0999 V2000
    1.7942    1.5036    0.0000 C   0  0  0  0  0  0  0  0  0  0  0  0
    3.2791    1.2916    0.0000 H   0  0  0  0  0  0  0  0  0  0  0  0
    2.2609    2.9291    0.0000 H   0  0  0  0  0  0  0  0  0  0  0  0
    0.4713    2.2107    0.0000 H   0  0  0  0  0  0  0  0  0  0  0  0
    0.8681    0.3236    0.0000 C   0  0  0  0  0  0  0  0  0  0  0  0
   -0.1331    1.4405    0.0000 H   0  0  0  0  0  0  0  0  0  0  0  0
   -0.4057   -0.4685    0.0000 C   0  0  0  0  0  0  0  0  0  0  0  0
   -1.6753    0.2304    0.0000 C   0  0  0  0  0  0  0  0  0  0  0  0
   -1.6855    1.7304    0.0000 H   0  0  0  0  0  0  0  0  0  0  0  0
   -2.9620   -0.5009    0.0000 C   0  0  0  0  0  0  0  0  0  0  0  0
   -4.2751    0.2241    0.0000 H   0  0  0  0  0  0  0  0  0  0  0  0
   -2.8945   -1.9977    0.0000 C   0  0  0  0  0  0  0  0  0  0  0  0
   -1.6250   -2.6966    0.0000 C   0  0  0  0  0  0  0  0  0  0  0  0
   -1.6148   -4.1966    0.0000 H   0  0  0  0  0  0  0  0  0  0  0  0
   -0.3383   -1.9653    0.0000 C   0  0  0  0  0  0  0  0  0  0  0  0
    0.9749   -2.6903    0.0000 H   0  0  0  0  0  0  0  0  0  0  0  0
   -4.1684   -2.7898    0.0000 C   0  0  0  0  0  0  0  0  0  0  0  0
   -5.6872   -4.7250    0.0000 H   0  0  0  0  0  0  0  0  0  0  0  0
   -3.1671   -3.9067    0.0000 H   0  0  0  0  0  0  0  0  0  0  0  0
   -6.7612   -1.4038    0.0000 C   0  0  0  0  0  0  0  0  0  0  0  0
   -5.9168   -0.1640    0.0000 H   0  0  0  0  0  0  0  0  0  0  0  0
   -7.9053   -0.4306    0.0000 C   0  0  0  0  0  0  0  0  0  0  0  0
   -6.8234    0.6083    0.0000 H   0  0  0  0  0  0  0  0  0  0  0  0
   -8.8301    0.7504    0.0000 H   0  0  0  0  0  0  0  0  0  0  0  0
   -9.1751   -1.2330    0.0000 C   0  0  0  0  0  0  0  0  0  0  0  0
   -9.8364    0.1134    0.0000 H   0  0  0  0  0  0  0  0  0  0  0  0
  -10.5844   -1.7468    0.0000 H   0  0  0  0  0  0  0  0  0  0  0  0
   -8.8165   -2.6819    0.0000 C   0  0  0  0  0  0  0  0  0  0  0  0
  -10.3022   -2.8886    0.0000 H   0  0  0  0  0  0  0  0  0  0  0  0
   -8.7659   -4.1811    0.0000 H   0  0  0  0  0  0  0  0  0  0  0  0
   -7.3203   -2.7878    0.0000 C   0  0  0  0  0  0  0  0  0  0  0  0
   -7.5815   -4.2649    0.0000 H   0  0  0  0  0  0  0  0  0  0  0  0
   -4.9557   -3.4665    0.0000 O   0  0  0  0  0  0  0  0  0  0  0  0
   -4.3612   -5.8536    0.0000 H   0  0  0  0  0  0  0  0  0  0  0  0
    2.1910   -0.3835    0.0000 C   0  0  0  0  0  0  0  0  0  0  0  0
    2.2400   -1.8827    0.0000 O   0  0  0  0  0  0  0  0  0  0  0  0
    3.4648    0.4086    0.0000 O   0  0  0  0  0  0  0  0  0  0  0  0
    4.7876   -0.2986    0.0000 H   0  0  0  0  0  0  0  0  0  0  0  0
  1  2  1  0  0  0  0 
  1  3  1  0  0  0  0 
  1  4  1  0  0  0  0 
  1  5  1  0  0  0  0 
  5  6  1  0  0  0  0 
  5  7  1  0  0  0  0 
  7  8  2  0  0  0  0 
  8  9  1  0  0  0  0 
  8 10  1  0  0  0  0 
 10 11  1  0  0  0  0 
 10 12  2  0  0  0  0 
 12 13  1  0  0  0  0 
 13 14  1  0  0  0  0 
 13 15  2  0  0  0  0 
  7 15  1  0  0  0  0 
 15 16  1  0  0  0  0 
 12 17  1  0  0  0  0 
 17 18  1  0  0  0  0 
 17 19  1  0  0  0  0 
 17 20  1  0  0  0  0 
 20 21  1  0  0  0  0 
 20 22  1  0  0  0  0 
 22 23  1  0  0  0  0 
 22 24  1  0  0  0  0 
 22 25  1  0  0  0  0 
 25 26  1  0  0  0  0 
 25 27  1  0  0  0  0 
 25 28  1  0  0  0  0 
 28 29  1  0  0  0  0 
 28 30  1  0  0  0  0 
 28 31  1  0  0  0  0 
 20 31  1  0  0  0  0 
 31 32  1  0  0  0  0 
 31 33  1  0  0  0  0 
 33 34  1  0  0  0  0 
  5 35  1  0  0  0  0 
 35 36  2  0  0  0  0 
 35 37  1  0  0  0  0 
 37 38  1  0  0  0  0 
M  END
> <Rank>
2

> <Priority_score>
0.688

> <Reaction_type>
carbonyl_reduction_(aliphatic)

> <Parent_ID>
5

> <Parent_InChI>
InChI=1S/C15H18O3/c1-10(15(17)18)12-7-5-11(6-8-12)9-13-3-2-4-14(13)16/h5-8,10,13H,2-4,9H2,1H3,(H,17,18)

> <Parent_SMILES>
CC(C(=O)O)c1ccc(CC2CCCC2=O)cc1

$$$$
Molecule 5_metabolite 5
  CDK     0516241031

 37 38  0  0  0  0  0  0  0  0999 V2000
    4.2050    1.6718    0.0000 C   0  0  0  0  0  0  0  0  0  0  0  0
    5.6900    1.4598    0.0000 H   0  0  0  0  0  0  0  0  0  0  0  0
    4.6717    3.0974    0.0000 H   0  0  0  0  0  0  0  0  0  0  0  0
    2.8822    2.3789    0.0000 H   0  0  0  0  0  0  0  0  0  0  0  0
    3.2789    0.4918    0.0000 C   0  0  0  0  0  0  0  0  0  0  0  0
    2.2777    1.6088    0.0000 H   0  0  0  0  0  0  0  0  0  0  0  0
    2.0051   -0.3002    0.0000 C   0  0  0  0  0  0  0  0  0  0  0  0
    0.7356    0.3986    0.0000 C   0  0  0  0  0  0  0  0  0  0  0  0
    0.7254    1.8986    0.0000 H   0  0  0  0  0  0  0  0  0  0  0  0
   -0.5511   -0.3327    0.0000 C   0  0  0  0  0  0  0  0  0  0  0  0
   -1.8643    0.3923    0.0000 H   0  0  0  0  0  0  0  0  0  0  0  0
   -0.4837   -1.8295    0.0000 C   0  0  0  0  0  0  0  0  0  0  0  0
    0.7858   -2.5284    0.0000 C   0  0  0  0  0  0  0  0  0  0  0  0
    0.7960   -4.0284    0.0000 H   0  0  0  0  0  0  0  0  0  0  0  0
    2.0725   -1.7971    0.0000 C   0  0  0  0  0  0  0  0  0  0  0  0
    3.3857   -2.5221    0.0000 H   0  0  0  0  0  0  0  0  0  0  0  0
   -1.7575   -2.6216    0.0000 C   0  0  0  0  0  0  0  0  0  0  0  0
   -2.6836   -3.8016    0.0000 H   0  0  0  0  0  0  0  0  0  0  0  0
   -0.7563   -3.7385    0.0000 H   0  0  0  0  0  0  0  0  0  0  0  0
   -3.0804   -1.9145    0.0000 C   0  0  0  0  0  0  0  0  0  0  0  0
   -4.2245   -0.9413    0.0000 C   0  0  0  0  0  0  0  0  0  0  0  0
   -3.1426    0.0977    0.0000 H   0  0  0  0  0  0  0  0  0  0  0  0
   -5.1493    0.2397    0.0000 H   0  0  0  0  0  0  0  0  0  0  0  0
   -5.4944   -1.7436    0.0000 C   0  0  0  0  0  0  0  0  0  0  0  0
   -6.1556   -0.3973    0.0000 H   0  0  0  0  0  0  0  0  0  0  0  0
   -6.9036   -2.2574    0.0000 H   0  0  0  0  0  0  0  0  0  0  0  0
   -5.1357   -3.1926    0.0000 C   0  0  0  0  0  0  0  0  0  0  0  0
   -6.6214   -3.3992    0.0000 H   0  0  0  0  0  0  0  0  0  0  0  0
   -5.0851   -4.6917    0.0000 H   0  0  0  0  0  0  0  0  0  0  0  0
   -3.6395   -3.2984    0.0000 C   0  0  0  0  0  0  0  0  0  0  0  0
   -2.8451   -4.5708    0.0000 O   0  0  0  0  0  0  0  0  0  0  0  0
   -2.2361   -0.6747    0.0000 O   0  0  0  0  0  0  0  0  0  0  0  0
   -3.0961    1.1088    0.0000 H   0  0  0  0  0  0  0  0  0  0  0  0
    4.6018   -0.2153    0.0000 C   0  0  0  0  0  0  0  0  0  0  0  0
    4.6508   -1.7145    0.0000 O   0  0  0  0  0  0  0  0  0  0  0  0
    5.8756    0.5768    0.0000 O   0  0  0  0  0  0  0  0  0  0  0  0
    7.1985   -0.1304    0.0000 H   0  0  0  0  0  0  0  0  0  0  0  0
  1  2  1  0  0  0  0 
  1  3  1  0  0  0  0 
  1  4  1  0  0  0  0 
  1  5  1  0  0  0  0 
  5  6  1  0  0  0  0 
  5  7  1  0  0  0  0 
  7  8  2  0  0  0  0 
  8  9  1  0  0  0  0 
  8 10  1  0  0  0  0 
 10 11  1  0  0  0  0 
 10 12  2  0  0  0  0 
 12 13  1  0  0  0  0 
 13 14  1  0  0  0  0 
 13 15  2  0  0  0  0 
  7 15  1  0  0  0  0 
 15 16  1  0  0  0  0 
 12 17  1  0  0  0  0 
 17 18  1  0  0  0  0 
 17 19  1  0  0  0  0 
 17 20  1  0  0  0  0 
 20 21  1  0  0  0  0 
 21 22  1  0  0  0  0 
 21 23  1  0  0  0  0 
 21 24  1  0  0  0  0 
 24 25  1  0  0  0  0 
 24 26  1  0  0  0  0 
 24 27  1  0  0  0  0 
 27 28  1  0  0  0  0 
 27 29  1  0  0  0  0 
 27 30  1  0  0  0  0 
 20 30  1  0  0  0  0 
 30 31  2  0  0  0  0 
 20 32  1  0  0  0  0 
 32 33  1  0  0  0  0 
  5 34  1  0  0  0  0 
 34 35  2  0  0  0  0 
 34 36  1  0  0  0  0 
 36 37  1  0  0  0  0 
M  END
> <Rank>
2

> <Priority_score>
0.688

> <Reaction_type>
aliphatic_hydroxylation_(tert_carbon_next_to_SP2)

> <Parent_ID>
5

> <Parent_InChI>
InChI=1S/C15H18O3/c1-10(15(17)18)12-7-5-11(6-8-12)9-13-3-2-4-14(13)16/h5-8,10,13H,2-4,9H2,1H3,(H,17,18)

> <Parent_SMILES>
CC(C(=O)O)c1ccc(CC2CCCC2=O)cc1

$$$$
Molecule 5_metabolite 6
  CDK     0516241031

 33 34  0  0  0  0  0  0  0  0999 V2000
   -5.6222    0.7460    0.0000 C   0  0  0  0  0  0  0  0  0  0  0  0
   -7.1214    0.6969    0.0000 H   0  0  0  0  0  0  0  0  0  0  0  0
   -4.2302    1.3048    0.0000 H   0  0  0  0  0  0  0  0  0  0  0  0
   -5.9309    2.2139    0.0000 H   0  0  0  0  0  0  0  0  0  0  0  0
   -4.8302   -0.5279    0.0000 C   0  0  0  0  0  0  0  0  0  0  0  0
   -6.2222   -1.0867    0.0000 H   0  0  0  0  0  0  0  0  0  0  0  0
   -4.5216   -1.9958    0.0000 H   0  0  0  0  0  0  0  0  0  0  0  0
   -3.3310   -0.4788    0.0000 C   0  0  0  0  0  0  0  0  0  0  0  0
   -2.5810   -1.7188    0.0000 C   0  0  0  0  0  0  0  0  0  0  0  0
   -3.3221   -3.0229    0.0000 H   0  0  0  0  0  0  0  0  0  0  0  0
   -1.1010   -1.7288    0.0000 C   0  0  0  0  0  0  0  0  0  0  0  0
   -0.3263   -3.0133    0.0000 H   0  0  0  0  0  0  0  0  0  0  0  0
   -0.4110   -0.3988    0.0000 C   0  0  0  0  0  0  0  0  0  0  0  0
   -1.1610    0.8412    0.0000 C   0  0  0  0  0  0  0  0  0  0  0  0
   -0.4198    2.1453    0.0000 H   0  0  0  0  0  0  0  0  0  0  0  0
   -2.6410    0.8512    0.0000 C   0  0  0  0  0  0  0  0  0  0  0  0
   -3.4157    2.1356    0.0000 H   0  0  0  0  0  0  0  0  0  0  0  0
    1.0882   -0.3498    0.0000 C   0  0  0  0  0  0  0  0  0  0  0  0
    2.4802    0.2091    0.0000 H   0  0  0  0  0  0  0  0  0  0  0  0
    0.7796    1.1181    0.0000 H   0  0  0  0  0  0  0  0  0  0  0  0
    1.8803   -1.6236    0.0000 C   0  0  0  0  0  0  0  0  0  0  0  0
    0.5292   -2.2752    0.0000 H   0  0  0  0  0  0  0  0  0  0  0  0
    2.3845   -3.0385    0.0000 C   0  0  0  0  0  0  0  0  0  0  0  0
    0.9281   -3.3973    0.0000 H   0  0  0  0  0  0  0  0  0  0  0  0
    2.5950   -4.5237    0.0000 H   0  0  0  0  0  0  0  0  0  0  0  0
    3.8854   -2.9785    0.0000 C   0  0  0  0  0  0  0  0  0  0  0  0
    3.7849   -4.4752    0.0000 H   0  0  0  0  0  0  0  0  0  0  0  0
    5.3628   -3.2382    0.0000 H   0  0  0  0  0  0  0  0  0  0  0  0
    4.2993   -1.5444    0.0000 C   0  0  0  0  0  0  0  0  0  0  0  0
    5.6893   -2.1083    0.0000 H   0  0  0  0  0  0  0  0  0  0  0  0
    5.0050   -0.2208    0.0000 H   0  0  0  0  0  0  0  0  0  0  0  0
    3.0565   -0.7046    0.0000 C   0  0  0  0  0  0  0  0  0  0  0  0
    3.0047    0.7945    0.0000 O   0  0  0  0  0  0  0  0  0  0  0  0
  1  2  1  0  0  0  0 
  1  3  1  0  0  0  0 
  1  4  1  0  0  0  0 
  1  5  1  0  0  0  0 
  5  6  1  0  0  0  0 
  5  7  1  0  0  0  0 
  5  8  1  0  0  0  0 
  8  9  2  0  0  0  0 
  9 10  1  0  0  0  0 
  9 11  1  0  0  0  0 
 11 12  1  0  0  0  0 
 11 13  2  0  0  0  0 
 13 14  1  0  0  0  0 
 14 15  1  0  0  0  0 
 14 16  2  0  0  0  0 
  8 16  1  0  0  0  0 
 16 17  1  0  0  0  0 
 13 18  1  0  0  0  0 
 18 19  1  0  0  0  0 
 18 20  1  0  0  0  0 
 18 21  1  0  0  0  0 
 21 22  1  0  0  0  0 
 21 23  1  0  0  0  0 
 23 24  1  0  0  0  0 
 23 25  1  0  0  0  0 
 23 26  1  0  0  0  0 
 26 27  1  0  0  0  0 
 26 28  1  0  0  0  0 
 26 29  1  0  0  0  0 
 29 30  1  0  0  0  0 
 29 31  1  0  0  0  0 
 29 32  1  0  0  0  0 
 21 32  1  0  0  0  0 
 32 33  2  0  0  0  0 
M  END
> <Rank>
6

> <Priority_score>
0.33981047881674603

> <Reaction_type>
decarboxylation

> <Parent_ID>
5

> <Parent_InChI>
InChI=1S/C15H18O3/c1-10(15(17)18)12-7-5-11(6-8-12)9-13-3-2-4-14(13)16/h5-8,10,13H,2-4,9H2,1H3,(H,17,18)

> <Parent_SMILES>
CC(C(=O)O)c1ccc(CC2CCCC2=O)cc1

$$$$
Molecule 5_metabolite 7
  CDK     0516241031

 34 35  0  0  0  0  0  0  0  0999 V2000
    2.7512    2.0266    0.0000 C   0  0  0  0  0  0  0  0  0  0  0  0
    4.0250    2.8187    0.0000 H   0  0  0  0  0  0  0  0  0  0  0  0
    1.4283    2.7338    0.0000 H   0  0  0  0  0  0  0  0  0  0  0  0
    2.8002    0.5274    0.0000 C   0  0  0  0  0  0  0  0  0  0  0  0
    1.5264   -0.2646    0.0000 C   0  0  0  0  0  0  0  0  0  0  0  0
    0.2569    0.4342    0.0000 C   0  0  0  0  0  0  0  0  0  0  0  0
    0.2467    1.9342    0.0000 H   0  0  0  0  0  0  0  0  0  0  0  0
   -1.0298   -0.2971    0.0000 C   0  0  0  0  0  0  0  0  0  0  0  0
   -2.3430    0.4279    0.0000 H   0  0  0  0  0  0  0  0  0  0  0  0
   -0.9624   -1.7939    0.0000 C   0  0  0  0  0  0  0  0  0  0  0  0
    0.3071   -2.4928    0.0000 C   0  0  0  0  0  0  0  0  0  0  0  0
    0.3173   -3.9927    0.0000 H   0  0  0  0  0  0  0  0  0  0  0  0
    1.5939   -1.7614    0.0000 C   0  0  0  0  0  0  0  0  0  0  0  0
    2.9070   -2.4865    0.0000 H   0  0  0  0  0  0  0  0  0  0  0  0
   -2.2362   -2.5860    0.0000 C   0  0  0  0  0  0  0  0  0  0  0  0
   -3.1623   -3.7660    0.0000 H   0  0  0  0  0  0  0  0  0  0  0  0
   -1.2350   -3.7029    0.0000 H   0  0  0  0  0  0  0  0  0  0  0  0
   -3.5591   -1.8789    0.0000 C   0  0  0  0  0  0  0  0  0  0  0  0
   -2.7147   -0.6390    0.0000 H   0  0  0  0  0  0  0  0  0  0  0  0
   -4.7032   -0.9056    0.0000 C   0  0  0  0  0  0  0  0  0  0  0  0
   -3.6213    0.1333    0.0000 H   0  0  0  0  0  0  0  0  0  0  0  0
   -5.6280    0.2753    0.0000 H   0  0  0  0  0  0  0  0  0  0  0  0
   -5.9730   -1.7080    0.0000 C   0  0  0  0  0  0  0  0  0  0  0  0
   -6.6343   -0.3616    0.0000 H   0  0  0  0  0  0  0  0  0  0  0  0
   -7.3823   -2.2218    0.0000 H   0  0  0  0  0  0  0  0  0  0  0  0
   -5.6144   -3.1569    0.0000 C   0  0  0  0  0  0  0  0  0  0  0  0
   -7.1001   -3.3636    0.0000 H   0  0  0  0  0  0  0  0  0  0  0  0
   -5.5638   -4.6561    0.0000 H   0  0  0  0  0  0  0  0  0  0  0  0
   -4.1182   -3.2628    0.0000 C   0  0  0  0  0  0  0  0  0  0  0  0
   -3.3238   -4.5352    0.0000 O   0  0  0  0  0  0  0  0  0  0  0  0
    4.1231   -0.1797    0.0000 C   0  0  0  0  0  0  0  0  0  0  0  0
    4.1721   -1.6789    0.0000 O   0  0  0  0  0  0  0  0  0  0  0  0
    5.3969    0.6124    0.0000 O   0  0  0  0  0  0  0  0  0  0  0  0
    6.7198   -0.0948    0.0000 H   0  0  0  0  0  0  0  0  0  0  0  0
  1  2  1  0  0  0  0 
  1  3  1  0  0  0  0 
  1  4  2  0  0  0  0 
  4  5  1  0  0  0  0 
  5  6  2  0  0  0  0 
  6  7  1  0  0  0  0 
  6  8  1  0  0  0  0 
  8  9  1  0  0  0  0 
  8 10  2  0  0  0  0 
 10 11  1  0  0  0  0 
 11 12  1  0  0  0  0 
 11 13  2  0  0  0  0 
  5 13  1  0  0  0  0 
 13 14  1  0  0  0  0 
 10 15  1  0  0  0  0 
 15 16  1  0  0  0  0 
 15 17  1  0  0  0  0 
 15 18  1  0  0  0  0 
 18 19  1  0  0  0  0 
 18 20  1  0  0  0  0 
 20 21  1  0  0  0  0 
 20 22  1  0  0  0  0 
 20 23  1  0  0  0  0 
 23 24  1  0  0  0  0 
 23 25  1  0  0  0  0 
 23 26  1  0  0  0  0 
 26 27  1  0  0  0  0 
 26 28  1  0  0  0  0 
 26 29  1  0  0  0  0 
 18 29  1  0  0  0  0 
 29 30  2  0  0  0  0 
  4 31  1  0  0  0  0 
 31 32  2  0  0  0  0 
 31 33  1  0  0  0  0 
 33 34  1  0  0  0  0 
M  END
> <Rank>
7

> <Priority_score>
0.336

> <Reaction_type>
dehydrogenation_(CH1-CH3->C=CH2)

> <Parent_ID>
5

> <Parent_InChI>
InChI=1S/C15H18O3/c1-10(15(17)18)12-7-5-11(6-8-12)9-13-3-2-4-14(13)16/h5-8,10,13H,2-4,9H2,1H3,(H,17,18)

> <Parent_SMILES>
CC(C(=O)O)c1ccc(CC2CCCC2=O)cc1

$$$$
Molecule 5_metabolite 8
  CDK     0516241031

 37 38  0  0  0  0  0  0  0  0999 V2000
    4.0936   -3.3039    0.0000 C   0  0  0  0  0  0  0  0  0  0  0  0
    4.6524   -4.6959    0.0000 H   0  0  0  0  0  0  0  0  0  0  0  0
    5.5615   -2.9953    0.0000 H   0  0  0  0  0  0  0  0  0  0  0  0
    4.0445   -1.8047    0.0000 H   0  0  0  0  0  0  0  0  0  0  0  0
    2.6086   -3.0919    0.0000 C   0  0  0  0  0  0  0  0  0  0  0  0
    1.2858   -2.3847    0.0000 C   0  0  0  0  0  0  0  0  0  0  0  0
    1.2563   -0.9359    0.0000 C   0  0  0  0  0  0  0  0  0  0  0  0
    2.5502   -0.1770    0.0000 H   0  0  0  0  0  0  0  0  0  0  0  0
   -0.0205   -0.1872    0.0000 C   0  0  0  0  0  0  0  0  0  0  0  0
   -0.0492    1.3125    0.0000 H   0  0  0  0  0  0  0  0  0  0  0  0
   -1.2830   -0.9940    0.0000 C   0  0  0  0  0  0  0  0  0  0  0  0
   -1.2535   -2.4429    0.0000 C   0  0  0  0  0  0  0  0  0  0  0  0
   -2.5474   -3.2017    0.0000 H   0  0  0  0  0  0  0  0  0  0  0  0
    0.0232   -3.1916    0.0000 C   0  0  0  0  0  0  0  0  0  0  0  0
    0.0519   -4.6913    0.0000 H   0  0  0  0  0  0  0  0  0  0  0  0
   -2.6059   -0.2869    0.0000 C   0  0  0  0  0  0  0  0  0  0  0  0
   -4.0908   -0.0749    0.0000 H   0  0  0  0  0  0  0  0  0  0  0  0
   -3.0726   -1.7124    0.0000 H   0  0  0  0  0  0  0  0  0  0  0  0
   -2.6549    1.2123    0.0000 C   0  0  0  0  0  0  0  0  0  0  0  0
   -1.1591    1.1010    0.0000 H   0  0  0  0  0  0  0  0  0  0  0  0
   -2.3842    2.6898    0.0000 C   0  0  0  0  0  0  0  0  0  0  0  0
   -0.9434    2.2723    0.0000 H   0  0  0  0  0  0  0  0  0  0  0  0
   -1.8238    4.0812    0.0000 H   0  0  0  0  0  0  0  0  0  0  0  0
   -3.7139    3.3883    0.0000 C   0  0  0  0  0  0  0  0  0  0  0  0
   -2.8786    4.6342    0.0000 H   0  0  0  0  0  0  0  0  0  0  0  0
   -4.8635    4.3519    0.0000 H   0  0  0  0  0  0  0  0  0  0  0  0
   -4.7895    2.3533    0.0000 C   0  0  0  0  0  0  0  0  0  0  0  0
   -5.7113    3.5366    0.0000 H   0  0  0  0  0  0  0  0  0  0  0  0
   -6.0624    1.5598    0.0000 H   0  0  0  0  0  0  0  0  0  0  0  0
   -4.1330    1.0045    0.0000 C   0  0  0  0  0  0  0  0  0  0  0  0
   -4.8378   -0.3196    0.0000 O   0  0  0  0  0  0  0  0  0  0  0  0
    2.6577   -4.5911    0.0000 C   0  0  0  0  0  0  0  0  0  0  0  0
    1.3839   -5.3831    0.0000 O   0  0  0  0  0  0  0  0  0  0  0  0
    3.9805   -5.2982    0.0000 O   0  0  0  0  0  0  0  0  0  0  0  0
    4.0296   -6.7974    0.0000 H   0  0  0  0  0  0  0  0  0  0  0  0
    3.2247   -1.2101    0.0000 O   0  0  0  0  0  0  0  0  0  0  0  0
    4.6926   -0.9015    0.0000 H   0  0  0  0  0  0  0  0  0  0  0  0
  1  2  1  0  0  0  0 
  1  3  1  0  0  0  0 
  1  4  1  0  0  0  0 
  1  5  1  0  0  0  0 
  5  6  1  0  0  0  0 
  6  7  2  0  0  0  0 
  7  8  1  0  0  0  0 
  7  9  1  0  0  0  0 
  9 10  1  0  0  0  0 
  9 11  2  0  0  0  0 
 11 12  1  0  0  0  0 
 12 13  1  0  0  0  0 
 12 14  2  0  0  0  0 
  6 14  1  0  0  0  0 
 14 15  1  0  0  0  0 
 11 16  1  0  0  0  0 
 16 17  1  0  0  0  0 
 16 18  1  0  0  0  0 
 16 19  1  0  0  0  0 
 19 20  1  0  0  0  0 
 19 21  1  0  0  0  0 
 21 22  1  0  0  0  0 
 21 23  1  0  0  0  0 
 21 24  1  0  0  0  0 
 24 25  1  0  0  0  0 
 24 26  1  0  0  0  0 
 24 27  1  0  0  0  0 
 27 28  1  0  0  0  0 
 27 29  1  0  0  0  0 
 27 30  1  0  0  0  0 
 19 30  1  0  0  0  0 
 30 31  2  0  0  0  0 
  5 32  1  0  0  0  0 
 32 33  2  0  0  0  0 
 32 34  1  0  0  0  0 
 34 35  1  0  0  0  0 
  5 36  1  0  0  0  0 
 36 37  1  0  0  0  0 
M  END
> <Rank>
7

> <Priority_score>
0.336

> <Reaction_type>
benzylic_hydroxylation_(c-CH1-CR)

> <Parent_ID>
5

> <Parent_InChI>
InChI=1S/C15H18O3/c1-10(15(17)18)12-7-5-11(6-8-12)9-13-3-2-4-14(13)16/h5-8,10,13H,2-4,9H2,1H3,(H,17,18)

> <Parent_SMILES>
CC(C(=O)O)c1ccc(CC2CCCC2=O)cc1

$$$$
Molecule 5_metabolite 9
  CDK     0516241031

 36 37  0  0  0  0  0  0  0  0999 V2000
   -8.2546    2.8074    0.0000 C   0  0  0  0  0  0  0  0  0  0  0  0
   -9.7118    2.4517    0.0000 H   0  0  0  0  0  0  0  0  0  0  0  0
   -8.0565    1.3205    0.0000 H   0  0  0  0  0  0  0  0  0  0  0  0
   -6.7531    2.8456    0.0000 C   0  0  0  0  0  0  0  0  0  0  0  0
   -6.8660    1.3499    0.0000 H   0  0  0  0  0  0  0  0  0  0  0  0
   -5.2763    2.5828    0.0000 H   0  0  0  0  0  0  0  0  0  0  0  0
   -6.3423    4.2905    0.0000 C   0  0  0  0  0  0  0  0  0  0  0  0
   -4.9515    3.7286    0.0000 H   0  0  0  0  0  0  0  0  0  0  0  0
   -5.6352    5.6133    0.0000 C   0  0  0  0  0  0  0  0  0  0  0  0
   -7.0608    6.0800    0.0000 H   0  0  0  0  0  0  0  0  0  0  0  0
   -5.4232    7.0983    0.0000 H   0  0  0  0  0  0  0  0  0  0  0  0
   -4.1360    5.6624    0.0000 C   0  0  0  0  0  0  0  0  0  0  0  0
   -3.4686    6.9487    0.0000 C   0  0  0  0  0  0  0  0  0  0  0  0
   -4.2934    8.2016    0.0000 H   0  0  0  0  0  0  0  0  0  0  0  0
   -1.9925    7.0554    0.0000 C   0  0  0  0  0  0  0  0  0  0  0  0
   -1.3033    8.3878    0.0000 H   0  0  0  0  0  0  0  0  0  0  0  0
   -1.2170    5.7734    0.0000 C   0  0  0  0  0  0  0  0  0  0  0  0
   -1.8844    4.4870    0.0000 C   0  0  0  0  0  0  0  0  0  0  0  0
   -1.0596    3.2341    0.0000 H   0  0  0  0  0  0  0  0  0  0  0  0
   -3.3606    4.3803    0.0000 C   0  0  0  0  0  0  0  0  0  0  0  0
   -4.0497    3.0480    0.0000 H   0  0  0  0  0  0  0  0  0  0  0  0
    1.2417    5.8538    0.0000 C   0  0  0  0  0  0  0  0  0  0  0  0
    2.6672    5.3871    0.0000 H   0  0  0  0  0  0  0  0  0  0  0  0
    1.9488    7.1766    0.0000 C   0  0  0  0  0  0  0  0  0  0  0  0
    1.1567    8.4505    0.0000 O   0  0  0  0  0  0  0  0  0  0  0  0
    3.4480    7.2257    0.0000 O   0  0  0  0  0  0  0  0  0  0  0  0
    4.1551    8.5486    0.0000 H   0  0  0  0  0  0  0  0  0  0  0  0
    1.0296    4.3688    0.0000 C   0  0  0  0  0  0  0  0  0  0  0  0
   -0.3624    3.8100    0.0000 O   0  0  0  0  0  0  0  0  0  0  0  0
    2.2096    3.4427    0.0000 O   0  0  0  0  0  0  0  0  0  0  0  0
    3.6016    4.0016    0.0000 H   0  0  0  0  0  0  0  0  0  0  0  0
   -7.5761    5.1306    0.0000 C   0  0  0  0  0  0  0  0  0  0  0  0
   -7.6224    6.6299    0.0000 O   0  0  0  0  0  0  0  0  0  0  0  0
   -8.7614    4.2114    0.0000 C   0  0  0  0  0  0  0  0  0  0  0  0
   -9.5521    5.4861    0.0000 H   0  0  0  0  0  0  0  0  0  0  0  0
  -10.1115    3.5578    0.0000 H   0  0  0  0  0  0  0  0  0  0  0  0
  1  2  1  0  0  0  0 
  1  3  1  0  0  0  0 
  1  4  1  0  0  0  0 
  4  5  1  0  0  0  0 
  4  6  1  0  0  0  0 
  4  7  1  0  0  0  0 
  7  8  1  0  0  0  0 
  7  9  1  0  0  0  0 
  9 10  1  0  0  0  0 
  9 11  1  0  0  0  0 
  9 12  1  0  0  0  0 
 12 13  2  0  0  0  0 
 13 14  1  0  0  0  0 
 13 15  1  0  0  0  0 
 15 16  1  0  0  0  0 
 15 17  2  0  0  0  0 
 17 18  1  0  0  0  0 
 18 19  1  0  0  0  0 
 18 20  2  0  0  0  0 
 12 20  1  0  0  0  0 
 20 21  1  0  0  0  0 
 17 22  1  0  0  0  0 
 22 23  1  0  0  0  0 
 22 24  1  0  0  0  0 
 24 25  2  0  0  0  0 
 24 26  1  0  0  0  0 
 26 27  1  0  0  0  0 
 22 28  1  0  0  0  0 
 28 29  2  0  0  0  0 
 28 30  1  0  0  0  0 
 30 31  1  0  0  0  0 
  7 32  1  0  0  0  0 
 32 33  2  0  0  0  0 
 32 34  1  0  0  0  0 
  1 34  1  0  0  0  0 
 34 35  1  0  0  0  0 
 34 36  1  0  0  0  0 
M  END
> <Rank>
9

> <Priority_score>
0.188

> <Reaction_type>
carboxylation_(primary_carbon_next_to_tert_carbon)

> <Parent_ID>
5

> <Parent_InChI>
InChI=1S/C15H18O3/c1-10(15(17)18)12-7-5-11(6-8-12)9-13-3-2-4-14(13)16/h5-8,10,13H,2-4,9H2,1H3,(H,17,18)

> <Parent_SMILES>
CC(C(=O)O)c1ccc(CC2CCCC2=O)cc1

$$$$
Molecule 5_metabolite 10
  CDK     0516241031

 37 38  0  0  0  0  0  0  0  0999 V2000
   -8.2546    2.8074    0.0000 C   0  0  0  0  0  0  0  0  0  0  0  0
   -9.7118    2.4517    0.0000 H   0  0  0  0  0  0  0  0  0  0  0  0
   -8.0565    1.3205    0.0000 H   0  0  0  0  0  0  0  0  0  0  0  0
   -6.7531    2.8456    0.0000 C   0  0  0  0  0  0  0  0  0  0  0  0
   -6.8660    1.3499    0.0000 H   0  0  0  0  0  0  0  0  0  0  0  0
   -5.2763    2.5828    0.0000 H   0  0  0  0  0  0  0  0  0  0  0  0
   -6.3423    4.2905    0.0000 C   0  0  0  0  0  0  0  0  0  0  0  0
   -4.9515    3.7286    0.0000 H   0  0  0  0  0  0  0  0  0  0  0  0
   -5.6352    5.6133    0.0000 C   0  0  0  0  0  0  0  0  0  0  0  0
   -7.0608    6.0800    0.0000 H   0  0  0  0  0  0  0  0  0  0  0  0
   -5.4232    7.0983    0.0000 H   0  0  0  0  0  0  0  0  0  0  0  0
   -4.1360    5.6624    0.0000 C   0  0  0  0  0  0  0  0  0  0  0  0
   -3.4686    6.9487    0.0000 C   0  0  0  0  0  0  0  0  0  0  0  0
   -4.2934    8.2016    0.0000 H   0  0  0  0  0  0  0  0  0  0  0  0
   -1.9925    7.0554    0.0000 C   0  0  0  0  0  0  0  0  0  0  0  0
   -1.3033    8.3878    0.0000 H   0  0  0  0  0  0  0  0  0  0  0  0
   -1.2170    5.7734    0.0000 C   0  0  0  0  0  0  0  0  0  0  0  0
   -1.8844    4.4870    0.0000 C   0  0  0  0  0  0  0  0  0  0  0  0
   -1.0596    3.2341    0.0000 H   0  0  0  0  0  0  0  0  0  0  0  0
   -3.3606    4.3803    0.0000 C   0  0  0  0  0  0  0  0  0  0  0  0
   -4.0497    3.0480    0.0000 H   0  0  0  0  0  0  0  0  0  0  0  0
    1.2417    5.8538    0.0000 C   0  0  0  0  0  0  0  0  0  0  0  0
    2.6672    5.3871    0.0000 H   0  0  0  0  0  0  0  0  0  0  0  0
    1.9488    7.1766    0.0000 C   0  0  0  0  0  0  0  0  0  0  0  0
    0.5232    7.6433    0.0000 H   0  0  0  0  0  0  0  0  0  0  0  0
    2.1608    8.6616    0.0000 H   0  0  0  0  0  0  0  0  0  0  0  0
    3.4480    7.2257    0.0000 O   0  0  0  0  0  0  0  0  0  0  0  0
    4.1551    8.5486    0.0000 H   0  0  0  0  0  0  0  0  0  0  0  0
    1.0296    4.3688    0.0000 C   0  0  0  0  0  0  0  0  0  0  0  0
   -0.3624    3.8100    0.0000 O   0  0  0  0  0  0  0  0  0  0  0  0
    2.2096    3.4427    0.0000 O   0  0  0  0  0  0  0  0  0  0  0  0
    3.6016    4.0016    0.0000 H   0  0  0  0  0  0  0  0  0  0  0  0
   -7.5761    5.1306    0.0000 C   0  0  0  0  0  0  0  0  0  0  0  0
   -7.6224    6.6299    0.0000 O   0  0  0  0  0  0  0  0  0  0  0  0
   -8.7614    4.2114    0.0000 C   0  0  0  0  0  0  0  0  0  0  0  0
   -9.5521    5.4861    0.0000 H   0  0  0  0  0  0  0  0  0  0  0  0
  -10.1115    3.5578    0.0000 H   0  0  0  0  0  0  0  0  0  0  0  0
  1  2  1  0  0  0  0 
  1  3  1  0  0  0  0 
  1  4  1  0  0  0  0 
  4  5  1  0  0  0  0 
  4  6  1  0  0  0  0 
  4  7  1  0  0  0  0 
  7  8  1  0  0  0  0 
  7  9  1  0  0  0  0 
  9 10  1  0  0  0  0 
  9 11  1  0  0  0  0 
  9 12  1  0  0  0  0 
 12 13  2  0  0  0  0 
 13 14  1  0  0  0  0 
 13 15  1  0  0  0  0 
 15 16  1  0  0  0  0 
 15 17  2  0  0  0  0 
 17 18  1  0  0  0  0 
 18 19  1  0  0  0  0 
 18 20  2  0  0  0  0 
 12 20  1  0  0  0  0 
 20 21  1  0  0  0  0 
 17 22  1  0  0  0  0 
 22 23  1  0  0  0  0 
 22 24  1  0  0  0  0 
 24 25  1  0  0  0  0 
 24 26  1  0  0  0  0 
 24 27  1  0  0  0  0 
 27 28  1  0  0  0  0 
 22 29  1  0  0  0  0 
 29 30  2  0  0  0  0 
 29 31  1  0  0  0  0 
 31 32  1  0  0  0  0 
  7 33  1  0  0  0  0 
 33 34  2  0  0  0  0 
 33 35  1  0  0  0  0 
  1 35  1  0  0  0  0 
 35 36  1  0  0  0  0 
 35 37  1  0  0  0  0 
M  END
> <Rank>
9

> <Priority_score>
0.188

> <Reaction_type>
aliphatic_hydroxylation_(primary_carbon_next_to_tert_carbon)

> <Parent_ID>
5

> <Parent_InChI>
InChI=1S/C15H18O3/c1-10(15(17)18)12-7-5-11(6-8-12)9-13-3-2-4-14(13)16/h5-8,10,13H,2-4,9H2,1H3,(H,17,18)

> <Parent_SMILES>
CC(C(=O)O)c1ccc(CC2CCCC2=O)cc1

$$$$
Molecule 5_metabolite 11
  CDK     0516241031

 43 44  0  0  0  0  0  0  0  0999 V2000
   -3.0708    0.3601    0.0000 C   0  0  0  0  0  0  0  0  0  0  0  0
   -4.2508    1.2862    0.0000 H   0  0  0  0  0  0  0  0  0  0  0  0
   -2.2787   -0.9137    0.0000 H   0  0  0  0  0  0  0  0  0  0  0  0
   -4.1877   -0.6411    0.0000 H   0  0  0  0  0  0  0  0  0  0  0  0
   -1.6788    0.9190    0.0000 C   0  0  0  0  0  0  0  0  0  0  0  0
   -1.3702   -0.5489    0.0000 H   0  0  0  0  0  0  0  0  0  0  0  0
   -0.1796    0.9680    0.0000 C   0  0  0  0  0  0  0  0  0  0  0  0
    0.5704   -0.2720    0.0000 C   0  0  0  0  0  0  0  0  0  0  0  0
   -0.1707   -1.5761    0.0000 H   0  0  0  0  0  0  0  0  0  0  0  0
    2.0504   -0.2820    0.0000 C   0  0  0  0  0  0  0  0  0  0  0  0
    2.8251   -1.5664    0.0000 H   0  0  0  0  0  0  0  0  0  0  0  0
    2.7404    1.0480    0.0000 C   0  0  0  0  0  0  0  0  0  0  0  0
    1.9904    2.2880    0.0000 C   0  0  0  0  0  0  0  0  0  0  0  0
    2.7315    3.5921    0.0000 H   0  0  0  0  0  0  0  0  0  0  0  0
    0.5104    2.2980    0.0000 C   0  0  0  0  0  0  0  0  0  0  0  0
   -0.2643    3.5825    0.0000 H   0  0  0  0  0  0  0  0  0  0  0  0
    4.2396    1.0971    0.0000 C   0  0  0  0  0  0  0  0  0  0  0  0
    5.6316    1.6559    0.0000 H   0  0  0  0  0  0  0  0  0  0  0  0
    3.9310    2.5650    0.0000 H   0  0  0  0  0  0  0  0  0  0  0  0
    5.0317   -0.1768    0.0000 C   0  0  0  0  0  0  0  0  0  0  0  0
    3.6806   -0.8283    0.0000 H   0  0  0  0  0  0  0  0  0  0  0  0
    5.5359   -1.5917    0.0000 C   0  0  0  0  0  0  0  0  0  0  0  0
    4.0795   -1.9505    0.0000 H   0  0  0  0  0  0  0  0  0  0  0  0
    5.7463   -3.0768    0.0000 H   0  0  0  0  0  0  0  0  0  0  0  0
    7.0368   -1.5317    0.0000 C   0  0  0  0  0  0  0  0  0  0  0  0
    6.9363   -3.0283    0.0000 H   0  0  0  0  0  0  0  0  0  0  0  0
    8.5141   -1.7914    0.0000 H   0  0  0  0  0  0  0  0  0  0  0  0
    7.4507   -0.0976    0.0000 C   0  0  0  0  0  0  0  0  0  0  0  0
    8.8407   -0.6615    0.0000 H   0  0  0  0  0  0  0  0  0  0  0  0
    8.1564    1.2260    0.0000 H   0  0  0  0  0  0  0  0  0  0  0  0
    6.2078    0.7423    0.0000 C   0  0  0  0  0  0  0  0  0  0  0  0
    6.1561    2.2414    0.0000 O   0  0  0  0  0  0  0  0  0  0  0  0
   -2.4709    2.1928    0.0000 C   0  0  0  0  0  0  0  0  0  0  0  0
   -1.7637    3.5157    0.0000 O   0  0  0  0  0  0  0  0  0  0  0  0
   -4.4498    2.1281    0.0000 N   0  0  0  0  0  0  0  0  0  0  0  0
   -5.1569    0.8052    0.0000 H   0  0  0  0  0  0  0  0  0  0  0  0
   -5.2419    3.4019    0.0000 C   0  0  0  0  0  0  0  0  0  0  0  0
   -3.8499    3.9607    0.0000 H   0  0  0  0  0  0  0  0  0  0  0  0
   -5.5505    4.8698    0.0000 H   0  0  0  0  0  0  0  0  0  0  0  0
   -6.7411    3.3529    0.0000 C   0  0  0  0  0  0  0  0  0  0  0  0
   -7.4482    2.0300    0.0000 O   0  0  0  0  0  0  0  0  0  0  0  0
   -7.5331    4.6267    0.0000 O   0  0  0  0  0  0  0  0  0  0  0  0
   -9.0323    4.5776    0.0000 H   0  0  0  0  0  0  0  0  0  0  0  0
  1  2  1  0  0  0  0 
  1  3  1  0  0  0  0 
  1  4  1  0  0  0  0 
  1  5  1  0  0  0  0 
  5  6  1  0  0  0  0 
  5  7  1  0  0  0  0 
  7  8  2  0  0  0  0 
  8  9  1  0  0  0  0 
  8 10  1  0  0  0  0 
 10 11  1  0  0  0  0 
 10 12  2  0  0  0  0 
 12 13  1  0  0  0  0 
 13 14  1  0  0  0  0 
 13 15  2  0  0  0  0 
  7 15  1  0  0  0  0 
 15 16  1  0  0  0  0 
 12 17  1  0  0  0  0 
 17 18  1  0  0  0  0 
 17 19  1  0  0  0  0 
 17 20  1  0  0  0  0 
 20 21  1  0  0  0  0 
 20 22  1  0  0  0  0 
 22 23  1  0  0  0  0 
 22 24  1  0  0  0  0 
 22 25  1  0  0  0  0 
 25 26  1  0  0  0  0 
 25 27  1  0  0  0  0 
 25 28  1  0  0  0  0 
 28 29  1  0  0  0  0 
 28 30  1  0  0  0  0 
 28 31  1  0  0  0  0 
 20 31  1  0  0  0  0 
 31 32  2  0  0  0  0 
  5 33  1  0  0  0  0 
 33 34  2  0  0  0  0 
 33 35  1  0  0  0  0 
 35 36  1  0  0  0  0 
 35 37  1  0  0  0  0 
 37 38  1  0  0  0  0 
 37 39  1  0  0  0  0 
 37 40  1  0  0  0  0 
 40 41  2  0  0  0  0 
 40 42  1  0  0  0  0 
 42 43  1  0  0  0  0 
M  END
> <Rank>
11

> <Priority_score>
0.17034683798434053

> <Reaction_type>
glycination_(aliphatic_carboxyl)

> <Parent_ID>
5

> <Parent_InChI>
InChI=1S/C15H18O3/c1-10(15(17)18)12-7-5-11(6-8-12)9-13-3-2-4-14(13)16/h5-8,10,13H,2-4,9H2,1H3,(H,17,18)

> <Parent_SMILES>
CC(C(=O)O)c1ccc(CC2CCCC2=O)cc1

$$$$
Molecule 5_metabolite 12
  CDK     0516241031

 36 36  0  0  0  0  0  0  0  0999 V2000
    4.5002    0.5216    0.0000 C   0  0  0  0  0  0  0  0  0  0  0  0
    5.9851    0.3096    0.0000 H   0  0  0  0  0  0  0  0  0  0  0  0
    4.9669    1.9472    0.0000 H   0  0  0  0  0  0  0  0  0  0  0  0
    3.1773    1.2287    0.0000 H   0  0  0  0  0  0  0  0  0  0  0  0
    3.5741   -0.6584    0.0000 C   0  0  0  0  0  0  0  0  0  0  0  0
    2.5729    0.4586    0.0000 H   0  0  0  0  0  0  0  0  0  0  0  0
    2.3003   -1.4504    0.0000 C   0  0  0  0  0  0  0  0  0  0  0  0
    1.0308   -0.7516    0.0000 C   0  0  0  0  0  0  0  0  0  0  0  0
    1.0206    0.7484    0.0000 H   0  0  0  0  0  0  0  0  0  0  0  0
   -0.2559   -1.4829    0.0000 C   0  0  0  0  0  0  0  0  0  0  0  0
   -1.5691   -0.7579    0.0000 H   0  0  0  0  0  0  0  0  0  0  0  0
   -0.1885   -2.9797    0.0000 C   0  0  0  0  0  0  0  0  0  0  0  0
   -1.4623   -3.7718    0.0000 C   0  0  0  0  0  0  0  0  0  0  0  0
   -1.4133   -5.2710    0.0000 H   0  0  0  0  0  0  0  0  0  0  0  0
   -2.7852   -3.0647    0.0000 C   0  0  0  0  0  0  0  0  0  0  0  0
   -2.8342   -1.5655    0.0000 H   0  0  0  0  0  0  0  0  0  0  0  0
   -4.0590   -3.8567    0.0000 C   0  0  0  0  0  0  0  0  0  0  0  0
   -4.9851   -5.0367    0.0000 H   0  0  0  0  0  0  0  0  0  0  0  0
   -3.0578   -4.9737    0.0000 H   0  0  0  0  0  0  0  0  0  0  0  0
   -5.8052   -2.9233    0.0000 C   0  0  0  0  0  0  0  0  0  0  0  0
   -4.8791   -1.7433    0.0000 H   0  0  0  0  0  0  0  0  0  0  0  0
   -6.8064   -1.8064    0.0000 H   0  0  0  0  0  0  0  0  0  0  0  0
   -7.0790   -3.7154    0.0000 C   0  0  0  0  0  0  0  0  0  0  0  0
   -8.0051   -4.8954    0.0000 H   0  0  0  0  0  0  0  0  0  0  0  0
   -6.0778   -4.8323    0.0000 H   0  0  0  0  0  0  0  0  0  0  0  0
   -8.4019   -3.0082    0.0000 C   0  0  0  0  0  0  0  0  0  0  0  0
   -9.6757   -3.8003    0.0000 H   0  0  0  0  0  0  0  0  0  0  0  0
   -8.4509   -1.5091    0.0000 O   0  0  0  0  0  0  0  0  0  0  0  0
    1.0810   -3.6786    0.0000 C   0  0  0  0  0  0  0  0  0  0  0  0
    1.0912   -5.1785    0.0000 H   0  0  0  0  0  0  0  0  0  0  0  0
    2.3677   -2.9472    0.0000 C   0  0  0  0  0  0  0  0  0  0  0  0
    3.6809   -3.6723    0.0000 H   0  0  0  0  0  0  0  0  0  0  0  0
    4.8970   -1.3655    0.0000 C   0  0  0  0  0  0  0  0  0  0  0  0
    4.9460   -2.8647    0.0000 O   0  0  0  0  0  0  0  0  0  0  0  0
    6.1708   -0.5734    0.0000 O   0  0  0  0  0  0  0  0  0  0  0  0
    7.4937   -1.2806    0.0000 H   0  0  0  0  0  0  0  0  0  0  0  0
  1  2  1  0  0  0  0 
  1  3  1  0  0  0  0 
  1  4  1  0  0  0  0 
  1  5  1  0  0  0  0 
  5  6  1  0  0  0  0 
  5  7  1  0  0  0  0 
  7  8  2  0  0  0  0 
  8  9  1  0  0  0  0 
  8 10  1  0  0  0  0 
 10 11  1  0  0  0  0 
 10 12  2  0  0  0  0 
 12 13  1  0  0  0  0 
 13 14  1  4  0  0  0 
 13 15  2  0  0  0  0 
 15 16  1  0  0  0  0 
 15 17  1  0  0  0  0 
 17 18  1  0  0  0  0 
 17 19  1  0  0  0  0 
 17 20  1  0  0  0  0 
 20 21  1  0  0  0  0 
 20 22  1  0  0  0  0 
 20 23  1  0  0  0  0 
 23 24  1  0  0  0  0 
 23 25  1  0  0  0  0 
 23 26  1  0  0  0  0 
 26 27  1  0  0  0  0 
 26 28  2  0  0  0  0 
 12 29  1  0  0  0  0 
 29 30  1  0  0  0  0 
 29 31  2  0  0  0  0 
  7 31  1  0  0  0  0 
 31 32  1  0  0  0  0 
  5 33  1  0  0  0  0 
 33 34  2  0  0  0  0 
 33 35  1  0  0  0  0 
 35 36  1  0  0  0  0 
M  END
> <Rank>
12

> <Priority_score>
0.1376

> <Reaction_type>
deformylation

> <Parent_ID>
5

> <Parent_InChI>
InChI=1S/C15H18O3/c1-10(15(17)18)12-7-5-11(6-8-12)9-13-3-2-4-14(13)16/h5-8,10,13H,2-4,9H2,1H3,(H,17,18)

> <Parent_SMILES>
CC(C(=O)O)c1ccc(CC2CCCC2=O)cc1

$$$$
Molecule 5_metabolite 13
  CDK     0516241031

 36 36  0  0  0  0  0  0  0  0999 V2000
    4.4924    0.7615    0.0000 C   0  0  0  0  0  0  0  0  0  0  0  0
    5.9773    0.5494    0.0000 H   0  0  0  0  0  0  0  0  0  0  0  0
    4.9590    2.1870    0.0000 H   0  0  0  0  0  0  0  0  0  0  0  0
    3.1695    1.4686    0.0000 H   0  0  0  0  0  0  0  0  0  0  0  0
    3.5663   -0.4185    0.0000 C   0  0  0  0  0  0  0  0  0  0  0  0
    2.5650    0.6984    0.0000 H   0  0  0  0  0  0  0  0  0  0  0  0
    2.2924   -1.2106    0.0000 C   0  0  0  0  0  0  0  0  0  0  0  0
    1.0229   -0.5117    0.0000 C   0  0  0  0  0  0  0  0  0  0  0  0
    1.0127    0.9883    0.0000 H   0  0  0  0  0  0  0  0  0  0  0  0
   -0.2638   -1.2430    0.0000 C   0  0  0  0  0  0  0  0  0  0  0  0
   -1.5769   -0.5180    0.0000 H   0  0  0  0  0  0  0  0  0  0  0  0
   -0.1964   -2.7398    0.0000 C   0  0  0  0  0  0  0  0  0  0  0  0
   -1.4702   -3.5319    0.0000 C   0  0  0  0  0  0  0  0  0  0  0  0
   -2.3963   -4.7119    0.0000 H   0  0  0  0  0  0  0  0  0  0  0  0
   -0.4689   -4.6488    0.0000 H   0  0  0  0  0  0  0  0  0  0  0  0
   -2.7930   -2.8248    0.0000 C   0  0  0  0  0  0  0  0  0  0  0  0
   -2.8421   -1.3256    0.0000 H   0  0  0  0  0  0  0  0  0  0  0  0
   -4.0669   -3.6168    0.0000 C   0  0  0  0  0  0  0  0  0  0  0  0
   -4.0178   -5.1160    0.0000 H   0  0  0  0  0  0  0  0  0  0  0  0
   -5.3897   -2.9097    0.0000 C   0  0  0  0  0  0  0  0  0  0  0  0
   -4.4636   -1.7297    0.0000 H   0  0  0  0  0  0  0  0  0  0  0  0
   -6.3910   -1.7928    0.0000 H   0  0  0  0  0  0  0  0  0  0  0  0
   -6.6636   -3.7018    0.0000 C   0  0  0  0  0  0  0  0  0  0  0  0
   -7.5897   -4.8818    0.0000 H   0  0  0  0  0  0  0  0  0  0  0  0
   -5.6623   -4.8187    0.0000 H   0  0  0  0  0  0  0  0  0  0  0  0
   -7.9864   -2.9947    0.0000 C   0  0  0  0  0  0  0  0  0  0  0  0
   -9.2602   -3.7867    0.0000 H   0  0  0  0  0  0  0  0  0  0  0  0
   -8.0355   -1.4955    0.0000 O   0  0  0  0  0  0  0  0  0  0  0  0
    1.0732   -3.4387    0.0000 C   0  0  0  0  0  0  0  0  0  0  0  0
    1.0834   -4.9387    0.0000 H   0  0  0  0  0  0  0  0  0  0  0  0
    2.3599   -2.7074    0.0000 C   0  0  0  0  0  0  0  0  0  0  0  0
    3.6730   -3.4324    0.0000 H   0  0  0  0  0  0  0  0  0  0  0  0
    4.8891   -1.1256    0.0000 C   0  0  0  0  0  0  0  0  0  0  0  0
    4.9382   -2.6248    0.0000 O   0  0  0  0  0  0  0  0  0  0  0  0
    6.1630   -0.3336    0.0000 O   0  0  0  0  0  0  0  0  0  0  0  0
    7.4858   -1.0407    0.0000 H   0  0  0  0  0  0  0  0  0  0  0  0
  1  2  1  0  0  0  0 
  1  3  1  0  0  0  0 
  1  4  1  0  0  0  0 
  1  5  1  0  0  0  0 
  5  6  1  0  0  0  0 
  5  7  1  0  0  0  0 
  7  8  2  0  0  0  0 
  8  9  1  0  0  0  0 
  8 10  1  0  0  0  0 
 10 11  1  0  0  0  0 
 10 12  2  0  0  0  0 
 12 13  1  0  0  0  0 
 13 14  1  0  0  0  0 
 13 15  1  0  0  0  0 
 13 16  1  0  0  0  0 
 16 17  1  4  0  0  0 
 16 18  2  0  0  0  0 
 18 19  1  0  0  0  0 
 18 20  1  0  0  0  0 
 20 21  1  0  0  0  0 
 20 22  1  0  0  0  0 
 20 23  1  0  0  0  0 
 23 24  1  0  0  0  0 
 23 25  1  0  0  0  0 
 23 26  1  0  0  0  0 
 26 27  1  0  0  0  0 
 26 28  2  0  0  0  0 
 12 29  1  0  0  0  0 
 29 30  1  0  0  0  0 
 29 31  2  0  0  0  0 
  7 31  1  0  0  0  0 
 31 32  1  0  0  0  0 
  5 33  1  0  0  0  0 
 33 34  2  0  0  0  0 
 33 35  1  0  0  0  0 
 35 36  1  0  0  0  0 
M  END
> <Rank>
12

> <Priority_score>
0.1376

> <Reaction_type>
deformylation

> <Parent_ID>
5

> <Parent_InChI>
InChI=1S/C15H18O3/c1-10(15(17)18)12-7-5-11(6-8-12)9-13-3-2-4-14(13)16/h5-8,10,13H,2-4,9H2,1H3,(H,17,18)

> <Parent_SMILES>
CC(C(=O)O)c1ccc(CC2CCCC2=O)cc1

$$$$
Molecule 5_metabolite 14
  CDK     0516241031

 36 36  0  0  0  0  0  0  0  0999 V2000
   -6.9856    0.9158    0.0000 C   0  0  0  0  0  0  0  0  0  0  0  0
   -7.7777    2.1897    0.0000 H   0  0  0  0  0  0  0  0  0  0  0  0
   -7.6927   -0.4070    0.0000 H   0  0  0  0  0  0  0  0  0  0  0  0
   -5.4864    0.9649    0.0000 C   0  0  0  0  0  0  0  0  0  0  0  0
   -4.7793    2.2877    0.0000 H   0  0  0  0  0  0  0  0  0  0  0  0
   -4.6943   -0.3090    0.0000 C   0  0  0  0  0  0  0  0  0  0  0  0
   -6.0864   -0.8678    0.0000 H   0  0  0  0  0  0  0  0  0  0  0  0
   -4.3857   -1.7769    0.0000 H   0  0  0  0  0  0  0  0  0  0  0  0
   -3.1951   -0.2599    0.0000 C   0  0  0  0  0  0  0  0  0  0  0  0
   -1.7696   -0.7266    0.0000 H   0  0  0  0  0  0  0  0  0  0  0  0
   -2.4880    1.0629    0.0000 C   0  0  0  0  0  0  0  0  0  0  0  0
   -3.9136    1.5296    0.0000 H   0  0  0  0  0  0  0  0  0  0  0  0
   -2.2760    2.5479    0.0000 H   0  0  0  0  0  0  0  0  0  0  0  0
   -0.9888    1.1120    0.0000 C   0  0  0  0  0  0  0  0  0  0  0  0
   -0.3215    2.3984    0.0000 C   0  0  0  0  0  0  0  0  0  0  0  0
   -1.1462    3.6512    0.0000 H   0  0  0  0  0  0  0  0  0  0  0  0
    1.1547    2.5050    0.0000 C   0  0  0  0  0  0  0  0  0  0  0  0
    1.8438    3.8374    0.0000 H   0  0  0  0  0  0  0  0  0  0  0  0
    1.9302    1.2230    0.0000 C   0  0  0  0  0  0  0  0  0  0  0  0
    1.2628   -0.0634    0.0000 C   0  0  0  0  0  0  0  0  0  0  0  0
    2.0876   -1.3163    0.0000 H   0  0  0  0  0  0  0  0  0  0  0  0
   -0.2134   -0.1701    0.0000 C   0  0  0  0  0  0  0  0  0  0  0  0
   -0.9025   -1.5024    0.0000 H   0  0  0  0  0  0  0  0  0  0  0  0
    4.3889    1.3034    0.0000 C   0  0  0  0  0  0  0  0  0  0  0  0
    5.7809    1.8622    0.0000 H   0  0  0  0  0  0  0  0  0  0  0  0
    4.0802    2.7713    0.0000 C   0  0  0  0  0  0  0  0  0  0  0  0
    2.6547    3.2380    0.0000 H   0  0  0  0  0  0  0  0  0  0  0  0
    4.2923    4.2563    0.0000 H   0  0  0  0  0  0  0  0  0  0  0  0
    5.5794    2.8204    0.0000 H   0  0  0  0  0  0  0  0  0  0  0  0
    5.1809    0.0296    0.0000 C   0  0  0  0  0  0  0  0  0  0  0  0
    4.4738   -1.2933    0.0000 O   0  0  0  0  0  0  0  0  0  0  0  0
    6.6801    0.0786    0.0000 O   0  0  0  0  0  0  0  0  0  0  0  0
    7.4722   -1.1952    0.0000 H   0  0  0  0  0  0  0  0  0  0  0  0
   -3.4750   -2.2200    0.0000 C   0  0  0  0  0  0  0  0  0  0  0  0
   -4.8670   -2.7789    0.0000 H   0  0  0  0  0  0  0  0  0  0  0  0
   -2.2951   -3.1461    0.0000 O   0  0  0  0  0  0  0  0  0  0  0  0
  1  2  1  0  0  0  0 
  1  3  1  0  0  0  0 
  1  4  2  0  0  0  0 
  4  5  1  0  0  0  0 
  4  6  1  0  0  0  0 
  6  7  1  0  0  0  0 
  6  8  1  0  0  0  0 
  6  9  1  0  0  0  0 
  9 10  1  0  0  0  0 
  9 11  1  0  0  0  0 
 11 12  1  0  0  0  0 
 11 13  1  0  0  0  0 
 11 14  1  0  0  0  0 
 14 15  2  0  0  0  0 
 15 16  1  0  0  0  0 
 15 17  1  0  0  0  0 
 17 18  1  0  0  0  0 
 17 19  2  0  0  0  0 
 19 20  1  0  0  0  0 
 20 21  1  0  0  0  0 
 20 22  2  0  0  0  0 
 14 22  1  0  0  0  0 
 22 23  1  0  0  0  0 
 19 24  1  0  0  0  0 
 24 25  1  0  0  0  0 
 24 26  1  0  0  0  0 
 26 27  1  0  0  0  0 
 26 28  1  0  0  0  0 
 26 29  1  0  0  0  0 
 24 30  1  0  0  0  0 
 30 31  2  0  0  0  0 
 30 32  1  0  0  0  0 
 32 33  1  0  0  0  0 
  9 34  1  0  0  0  0 
 34 35  1  0  0  0  0 
 34 36  2  0  0  0  0 
M  END
> <Rank>
12

> <Priority_score>
0.1376

> <Reaction_type>
deformylation

> <Parent_ID>
5

> <Parent_InChI>
InChI=1S/C15H18O3/c1-10(15(17)18)12-7-5-11(6-8-12)9-13-3-2-4-14(13)16/h5-8,10,13H,2-4,9H2,1H3,(H,17,18)

> <Parent_SMILES>
CC(C(=O)O)c1ccc(CC2CCCC2=O)cc1

$$$$
Molecule 5_metabolite 15
  CDK     0516241031

 37 38  0  0  0  0  0  0  0  0999 V2000
    1.9319    3.5718    0.0000 C   0  0  0  0  0  0  0  0  0  0  0  0
    3.3240    4.1307    0.0000 H   0  0  0  0  0  0  0  0  0  0  0  0
    1.6233    5.0397    0.0000 H   0  0  0  0  0  0  0  0  0  0  0  0
    0.4327    3.5228    0.0000 H   0  0  0  0  0  0  0  0  0  0  0  0
    1.7199    2.0869    0.0000 C   0  0  0  0  0  0  0  0  0  0  0  0
    0.2943    2.5536    0.0000 H   0  0  0  0  0  0  0  0  0  0  0  0
    1.0128    0.7640    0.0000 C   0  0  0  0  0  0  0  0  0  0  0  0
   -0.4361    0.7345    0.0000 C   0  0  0  0  0  0  0  0  0  0  0  0
   -1.1949    2.0284    0.0000 H   0  0  0  0  0  0  0  0  0  0  0  0
   -1.1848   -0.5422    0.0000 C   0  0  0  0  0  0  0  0  0  0  0  0
   -2.6845   -0.5709    0.0000 H   0  0  0  0  0  0  0  0  0  0  0  0
   -0.3779   -1.8048    0.0000 C   0  0  0  0  0  0  0  0  0  0  0  0
    1.0709   -1.7752    0.0000 C   0  0  0  0  0  0  0  0  0  0  0  0
    1.8298   -3.0691    0.0000 H   0  0  0  0  0  0  0  0  0  0  0  0
    1.8196   -0.4985    0.0000 C   0  0  0  0  0  0  0  0  0  0  0  0
    3.3193   -0.4698    0.0000 H   0  0  0  0  0  0  0  0  0  0  0  0
   -1.0851   -3.1276    0.0000 C   0  0  0  0  0  0  0  0  0  0  0  0
   -1.2971   -4.6126    0.0000 H   0  0  0  0  0  0  0  0  0  0  0  0
    0.3405   -3.5943    0.0000 H   0  0  0  0  0  0  0  0  0  0  0  0
   -2.5843   -3.1767    0.0000 C   0  0  0  0  0  0  0  0  0  0  0  0
   -2.4730   -1.6808    0.0000 H   0  0  0  0  0  0  0  0  0  0  0  0
   -4.0617   -2.9059    0.0000 C   0  0  0  0  0  0  0  0  0  0  0  0
   -3.6442   -1.4652    0.0000 H   0  0  0  0  0  0  0  0  0  0  0  0
   -5.4531   -2.3456    0.0000 H   0  0  0  0  0  0  0  0  0  0  0  0
   -4.7602   -4.2357    0.0000 C   0  0  0  0  0  0  0  0  0  0  0  0
   -6.0061   -3.4003    0.0000 H   0  0  0  0  0  0  0  0  0  0  0  0
   -3.7252   -5.3112    0.0000 C   0  0  0  0  0  0  0  0  0  0  0  0
   -4.9086   -6.2330    0.0000 H   0  0  0  0  0  0  0  0  0  0  0  0
   -2.9318   -6.5842    0.0000 H   0  0  0  0  0  0  0  0  0  0  0  0
   -2.3765   -4.6548    0.0000 C   0  0  0  0  0  0  0  0  0  0  0  0
   -1.0523   -5.3595    0.0000 O   0  0  0  0  0  0  0  0  0  0  0  0
   -5.7238   -5.3853    0.0000 O   0  0  0  0  0  0  0  0  0  0  0  0
   -7.2012   -5.1256    0.0000 H   0  0  0  0  0  0  0  0  0  0  0  0
    3.2191    2.1359    0.0000 C   0  0  0  0  0  0  0  0  0  0  0  0
    4.0112    0.8621    0.0000 O   0  0  0  0  0  0  0  0  0  0  0  0
    3.9262    3.4588    0.0000 O   0  0  0  0  0  0  0  0  0  0  0  0
    5.4254    3.5078    0.0000 H   0  0  0  0  0  0  0  0  0  0  0  0
  1  2  1  0  0  0  0 
  1  3  1  0  0  0  0 
  1  4  1  0  0  0  0 
  1  5  1  0  0  0  0 
  5  6  1  0  0  0  0 
  5  7  1  0  0  0  0 
  7  8  2  0  0  0  0 
  8  9  1  0  0  0  0 
  8 10  1  0  0  0  0 
 10 11  1  0  0  0  0 
 10 12  2  0  0  0  0 
 12 13  1  0  0  0  0 
 13 14  1  0  0  0  0 
 13 15  2  0  0  0  0 
  7 15  1  0  0  0  0 
 15 16  1  0  0  0  0 
 12 17  1  0  0  0  0 
 17 18  1  0  0  0  0 
 17 19  1  0  0  0  0 
 17 20  1  0  0  0  0 
 20 21  1  0  0  0  0 
 20 22  1  0  0  0  0 
 22 23  1  0  0  0  0 
 22 24  1  0  0  0  0 
 22 25  1  0  0  0  0 
 25 26  1  0  0  0  0 
 25 27  1  0  0  0  0 
 27 28  1  0  0  0  0 
 27 29  1  0  0  0  0 
 27 30  1  0  0  0  0 
 20 30  1  0  0  0  0 
 30 31  2  0  0  0  0 
 25 32  1  0  0  0  0 
 32 33  1  0  0  0  0 
  5 34  1  0  0  0  0 
 34 35  2  0  0  0  0 
 34 36  1  0  0  0  0 
 36 37  1  0  0  0  0 
M  END
> <Rank>
15

> <Priority_score>
0.076

> <Reaction_type>
aliphatic_hydroxylation_(sec_carbon_in_a_ringA)

> <Parent_ID>
5

> <Parent_InChI>
InChI=1S/C15H18O3/c1-10(15(17)18)12-7-5-11(6-8-12)9-13-3-2-4-14(13)16/h5-8,10,13H,2-4,9H2,1H3,(H,17,18)

> <Parent_SMILES>
CC(C(=O)O)c1ccc(CC2CCCC2=O)cc1

$$$$
Molecule 5_metabolite 16
  CDK     0516241031

 37 38  0  0  0  0  0  0  0  0999 V2000
    3.6238   -3.4027    0.0000 C   0  0  0  0  0  0  0  0  0  0  0  0
    4.1827   -4.7947    0.0000 H   0  0  0  0  0  0  0  0  0  0  0  0
    5.0918   -3.0940    0.0000 H   0  0  0  0  0  0  0  0  0  0  0  0
    3.5748   -1.9035    0.0000 H   0  0  0  0  0  0  0  0  0  0  0  0
    2.1389   -3.1906    0.0000 C   0  0  0  0  0  0  0  0  0  0  0  0
    2.6056   -1.7651    0.0000 H   0  0  0  0  0  0  0  0  0  0  0  0
    0.8160   -2.4835    0.0000 C   0  0  0  0  0  0  0  0  0  0  0  0
    0.7865   -1.0346    0.0000 C   0  0  0  0  0  0  0  0  0  0  0  0
    2.0804   -0.2758    0.0000 H   0  0  0  0  0  0  0  0  0  0  0  0
   -0.4902   -0.2860    0.0000 C   0  0  0  0  0  0  0  0  0  0  0  0
   -0.5189    1.2138    0.0000 H   0  0  0  0  0  0  0  0  0  0  0  0
   -1.7527   -1.0928    0.0000 C   0  0  0  0  0  0  0  0  0  0  0  0
   -1.7232   -2.5417    0.0000 C   0  0  0  0  0  0  0  0  0  0  0  0
   -3.0171   -3.3005    0.0000 H   0  0  0  0  0  0  0  0  0  0  0  0
   -0.4465   -3.2903    0.0000 C   0  0  0  0  0  0  0  0  0  0  0  0
   -0.4178   -4.7900    0.0000 H   0  0  0  0  0  0  0  0  0  0  0  0
   -3.0756   -0.3857    0.0000 C   0  0  0  0  0  0  0  0  0  0  0  0
   -4.5605   -0.1736    0.0000 H   0  0  0  0  0  0  0  0  0  0  0  0
   -3.1246    1.1135    0.0000 C   0  0  0  0  0  0  0  0  0  0  0  0
   -1.6288    1.0022    0.0000 H   0  0  0  0  0  0  0  0  0  0  0  0
   -2.8539    2.5910    0.0000 C   0  0  0  0  0  0  0  0  0  0  0  0
   -1.4132    2.1735    0.0000 H   0  0  0  0  0  0  0  0  0  0  0  0
   -2.2935    3.9824    0.0000 H   0  0  0  0  0  0  0  0  0  0  0  0
   -4.1837    3.2895    0.0000 C   0  0  0  0  0  0  0  0  0  0  0  0
   -3.3483    4.5354    0.0000 H   0  0  0  0  0  0  0  0  0  0  0  0
   -5.3332    4.2531    0.0000 H   0  0  0  0  0  0  0  0  0  0  0  0
   -5.2592    2.2545    0.0000 C   0  0  0  0  0  0  0  0  0  0  0  0
   -6.1810    3.4378    0.0000 H   0  0  0  0  0  0  0  0  0  0  0  0
   -6.5322    1.4611    0.0000 H   0  0  0  0  0  0  0  0  0  0  0  0
   -4.6028    0.9057    0.0000 C   0  0  0  0  0  0  0  0  0  0  0  0
   -5.3075   -0.4184    0.0000 O   0  0  0  0  0  0  0  0  0  0  0  0
   -3.5423   -1.8112    0.0000 O   0  0  0  0  0  0  0  0  0  0  0  0
   -5.0102   -2.1198    0.0000 H   0  0  0  0  0  0  0  0  0  0  0  0
    2.1880   -4.6898    0.0000 C   0  0  0  0  0  0  0  0  0  0  0  0
    0.9141   -5.4819    0.0000 O   0  0  0  0  0  0  0  0  0  0  0  0
    3.5108   -5.3970    0.0000 O   0  0  0  0  0  0  0  0  0  0  0  0
    3.5599   -6.8962    0.0000 H   0  0  0  0  0  0  0  0  0  0  0  0
  1  2  1  0  0  0  0 
  1  3  1  0  0  0  0 
  1  4  1  0  0  0  0 
  1  5  1  0  0  0  0 
  5  6  1  0  0  0  0 
  5  7  1  0  0  0  0 
  7  8  2  0  0  0  0 
  8  9  1  0  0  0  0 
  8 10  1  0  0  0  0 
 10 11  1  0  0  0  0 
 10 12  2  0  0  0  0 
 12 13  1  0  0  0  0 
 13 14  1  0  0  0  0 
 13 15  2  0  0  0  0 
  7 15  1  0  0  0  0 
 15 16  1  0  0  0  0 
 12 17  1  0  0  0  0 
 17 18  1  0  0  0  0 
 17 19  1  0  0  0  0 
 19 20  1  0  0  0  0 
 19 21  1  0  0  0  0 
 21 22  1  0  0  0  0 
 21 23  1  0  0  0  0 
 21 24  1  0  0  0  0 
 24 25  1  0  0  0  0 
 24 26  1  0  0  0  0 
 24 27  1  0  0  0  0 
 27 28  1  0  0  0  0 
 27 29  1  0  0  0  0 
 27 30  1  0  0  0  0 
 19 30  1  0  0  0  0 
 30 31  2  0  0  0  0 
 17 32  1  0  0  0  0 
 32 33  1  0  0  0  0 
  5 34  1  0  0  0  0 
 34 35  2  0  0  0  0 
 34 36  1  0  0  0  0 
 36 37  1  0  0  0  0 
M  END
> <Rank>
16

> <Priority_score>
0.072

> <Reaction_type>
benzylic_hydroxylation_(c-CH2-CR)

> <Parent_ID>
5

> <Parent_InChI>
InChI=1S/C15H18O3/c1-10(15(17)18)12-7-5-11(6-8-12)9-13-3-2-4-14(13)16/h5-8,10,13H,2-4,9H2,1H3,(H,17,18)

> <Parent_SMILES>
CC(C(=O)O)c1ccc(CC2CCCC2=O)cc1

$$$$
Molecule 5_metabolite 17
  CDK     0516241031

  5  4  0  0  0  0  0  0  0  0999 V2000
    1.2990   -0.7500    0.0000 C   0  0  0  0  0  0  0  0  0  0  0  0
    0.0000    0.0000    0.0000 H   0  0  0  0  0  0  0  0  0  0  0  0
    1.2990   -2.2500    0.0000 O   0  0  0  0  0  0  0  0  0  0  0  0
    2.5981   -0.0000    0.0000 O   0  0  0  0  0  0  0  0  0  0  0  0
    3.8971   -0.7500    0.0000 H   0  0  0  0  0  0  0  0  0  0  0  0
  1  2  1  0  0  0  0 
  1  3  2  0  0  0  0 
  1  4  1  0  0  0  0 
  4  5  1  0  0  0  0 
M  END
> <Rank>
17

> <Priority_score>
0.06720000000000001

> <Reaction_type>
deformylation

> <Parent_ID>
5

> <Parent_InChI>
InChI=1S/C15H18O3/c1-10(15(17)18)12-7-5-11(6-8-12)9-13-3-2-4-14(13)16/h5-8,10,13H,2-4,9H2,1H3,(H,17,18)

> <Parent_SMILES>
CC(C(=O)O)c1ccc(CC2CCCC2=O)cc1

$$$$
Molecule 5_metabolite 18
  CDK     0516241031

 31 32  0  0  0  0  0  0  0  0999 V2000
   -4.0317    2.9741    0.0000 C   0  0  0  0  0  0  0  0  0  0  0  0
   -5.3545    3.6812    0.0000 H   0  0  0  0  0  0  0  0  0  0  0  0
   -2.7578    3.7661    0.0000 H   0  0  0  0  0  0  0  0  0  0  0  0
   -3.9826    1.4749    0.0000 C   0  0  0  0  0  0  0  0  0  0  0  0
   -5.2564    0.6828    0.0000 H   0  0  0  0  0  0  0  0  0  0  0  0
   -2.6598    0.7677    0.0000 C   0  0  0  0  0  0  0  0  0  0  0  0
   -2.6302   -0.6811    0.0000 C   0  0  0  0  0  0  0  0  0  0  0  0
   -3.9241   -1.4400    0.0000 H   0  0  0  0  0  0  0  0  0  0  0  0
   -1.3535   -1.4298    0.0000 C   0  0  0  0  0  0  0  0  0  0  0  0
   -1.3248   -2.9295    0.0000 H   0  0  0  0  0  0  0  0  0  0  0  0
   -0.0910   -0.6230    0.0000 C   0  0  0  0  0  0  0  0  0  0  0  0
   -0.1205    0.8259    0.0000 C   0  0  0  0  0  0  0  0  0  0  0  0
    1.1734    1.5847    0.0000 H   0  0  0  0  0  0  0  0  0  0  0  0
   -1.3972    1.5746    0.0000 C   0  0  0  0  0  0  0  0  0  0  0  0
   -1.4259    3.0743    0.0000 H   0  0  0  0  0  0  0  0  0  0  0  0
    1.2319   -1.3301    0.0000 C   0  0  0  0  0  0  0  0  0  0  0  0
    2.7168   -1.5421    0.0000 H   0  0  0  0  0  0  0  0  0  0  0  0
    1.6986    0.0955    0.0000 H   0  0  0  0  0  0  0  0  0  0  0  0
    1.2809   -2.8293    0.0000 C   0  0  0  0  0  0  0  0  0  0  0  0
   -0.2149   -2.7180    0.0000 H   0  0  0  0  0  0  0  0  0  0  0  0
    1.0102   -4.3068    0.0000 C   0  0  0  0  0  0  0  0  0  0  0  0
   -0.4305   -3.8893    0.0000 H   0  0  0  0  0  0  0  0  0  0  0  0
    0.4498   -5.6982    0.0000 H   0  0  0  0  0  0  0  0  0  0  0  0
    2.3400   -5.0053    0.0000 C   0  0  0  0  0  0  0  0  0  0  0  0
    1.5046   -6.2512    0.0000 H   0  0  0  0  0  0  0  0  0  0  0  0
    3.4895   -5.9689    0.0000 H   0  0  0  0  0  0  0  0  0  0  0  0
    3.4155   -3.9703    0.0000 C   0  0  0  0  0  0  0  0  0  0  0  0
    4.3373   -5.1536    0.0000 H   0  0  0  0  0  0  0  0  0  0  0  0
    4.6885   -3.1768    0.0000 H   0  0  0  0  0  0  0  0  0  0  0  0
    2.7591   -2.6215    0.0000 C   0  0  0  0  0  0  0  0  0  0  0  0
    3.4638   -1.2974    0.0000 O   0  0  0  0  0  0  0  0  0  0  0  0
  1  2  1  0  0  0  0 
  1  3  1  0  0  0  0 
  1  4  2  0  0  0  0 
  4  5  1  0  0  0  0 
  4  6  1  0  0  0  0 
  6  7  2  0  0  0  0 
  7  8  1  0  0  0  0 
  7  9  1  0  0  0  0 
  9 10  1  0  0  0  0 
  9 11  2  0  0  0  0 
 11 12  1  0  0  0  0 
 12 13  1  0  0  0  0 
 12 14  2  0  0  0  0 
  6 14  1  0  0  0  0 
 14 15  1  0  0  0  0 
 11 16  1  0  0  0  0 
 16 17  1  0  0  0  0 
 16 18  1  0  0  0  0 
 16 19  1  0  0  0  0 
 19 20  1  0  0  0  0 
 19 21  1  0  0  0  0 
 21 22  1  0  0  0  0 
 21 23  1  0  0  0  0 
 21 24  1  0  0  0  0 
 24 25  1  0  0  0  0 
 24 26  1  0  0  0  0 
 24 27  1  0  0  0  0 
 27 28  1  0  0  0  0 
 27 29  1  0  0  0  0 
 27 30  1  0  0  0  0 
 19 30  1  0  0  0  0 
 30 31  2  0  0  0  0 
M  END
> <Rank>
17

> <Priority_score>
0.06720000000000001

> <Reaction_type>
deformylation

> <Parent_ID>
5

> <Parent_InChI>
InChI=1S/C15H18O3/c1-10(15(17)18)12-7-5-11(6-8-12)9-13-3-2-4-14(13)16/h5-8,10,13H,2-4,9H2,1H3,(H,17,18)

> <Parent_SMILES>
CC(C(=O)O)c1ccc(CC2CCCC2=O)cc1

$$$$
Molecule 5_metabolite 19
  CDK     0516241031

 37 38  0  0  0  0  0  0  0  0999 V2000
    2.9302   -3.8031    0.0000 C   0  0  0  0  0  0  0  0  0  0  0  0
    3.4891   -5.1951    0.0000 H   0  0  0  0  0  0  0  0  0  0  0  0
    4.3982   -3.4945    0.0000 H   0  0  0  0  0  0  0  0  0  0  0  0
    2.8812   -2.3039    0.0000 H   0  0  0  0  0  0  0  0  0  0  0  0
    1.4453   -3.5911    0.0000 C   0  0  0  0  0  0  0  0  0  0  0  0
    1.9120   -2.1655    0.0000 H   0  0  0  0  0  0  0  0  0  0  0  0
    0.1224   -2.8840    0.0000 C   0  0  0  0  0  0  0  0  0  0  0  0
    0.0929   -1.4351    0.0000 C   0  0  0  0  0  0  0  0  0  0  0  0
    1.3868   -0.6763    0.0000 H   0  0  0  0  0  0  0  0  0  0  0  0
   -1.1838   -0.6864    0.0000 C   0  0  0  0  0  0  0  0  0  0  0  0
   -1.2125    0.8133    0.0000 H   0  0  0  0  0  0  0  0  0  0  0  0
   -2.4464   -1.4932    0.0000 C   0  0  0  0  0  0  0  0  0  0  0  0
   -2.4168   -2.9421    0.0000 C   0  0  0  0  0  0  0  0  0  0  0  0
   -3.7107   -3.7009    0.0000 H   0  0  0  0  0  0  0  0  0  0  0  0
   -1.1401   -3.6908    0.0000 C   0  0  0  0  0  0  0  0  0  0  0  0
   -1.1114   -5.1905    0.0000 H   0  0  0  0  0  0  0  0  0  0  0  0
   -3.7692   -0.7861    0.0000 C   0  0  0  0  0  0  0  0  0  0  0  0
   -5.2542   -0.5741    0.0000 H   0  0  0  0  0  0  0  0  0  0  0  0
   -4.2359   -2.2117    0.0000 H   0  0  0  0  0  0  0  0  0  0  0  0
   -3.8183    0.7131    0.0000 C   0  0  0  0  0  0  0  0  0  0  0  0
   -2.3224    0.6018    0.0000 H   0  0  0  0  0  0  0  0  0  0  0  0
   -3.5475    2.1906    0.0000 C   0  0  0  0  0  0  0  0  0  0  0  0
   -2.1068    1.7731    0.0000 H   0  0  0  0  0  0  0  0  0  0  0  0
   -4.8773    2.8891    0.0000 C   0  0  0  0  0  0  0  0  0  0  0  0
   -4.0419    4.1349    0.0000 H   0  0  0  0  0  0  0  0  0  0  0  0
   -6.0268    3.8526    0.0000 H   0  0  0  0  0  0  0  0  0  0  0  0
   -5.9528    1.8540    0.0000 C   0  0  0  0  0  0  0  0  0  0  0  0
   -6.8746    3.0374    0.0000 H   0  0  0  0  0  0  0  0  0  0  0  0
   -7.2258    1.0606    0.0000 H   0  0  0  0  0  0  0  0  0  0  0  0
   -5.2964    0.5053    0.0000 C   0  0  0  0  0  0  0  0  0  0  0  0
   -6.0011   -0.8188    0.0000 O   0  0  0  0  0  0  0  0  0  0  0  0
   -2.9871    3.5820    0.0000 O   0  0  0  0  0  0  0  0  0  0  0  0
   -1.5020    3.7924    0.0000 H   0  0  0  0  0  0  0  0  0  0  0  0
    1.4943   -5.0903    0.0000 C   0  0  0  0  0  0  0  0  0  0  0  0
    0.2205   -5.8823    0.0000 O   0  0  0  0  0  0  0  0  0  0  0  0
    2.8172   -5.7974    0.0000 O   0  0  0  0  0  0  0  0  0  0  0  0
    2.8663   -7.2966    0.0000 H   0  0  0  0  0  0  0  0  0  0  0  0
  1  2  1  0  0  0  0 
  1  3  1  0  0  0  0 
  1  4  1  0  0  0  0 
  1  5  1  0  0  0  0 
  5  6  1  0  0  0  0 
  5  7  1  0  0  0  0 
  7  8  2  0  0  0  0 
  8  9  1  0  0  0  0 
  8 10  1  0  0  0  0 
 10 11  1  0  0  0  0 
 10 12  2  0  0  0  0 
 12 13  1  0  0  0  0 
 13 14  1  0  0  0  0 
 13 15  2  0  0  0  0 
  7 15  1  0  0  0  0 
 15 16  1  0  0  0  0 
 12 17  1  0  0  0  0 
 17 18  1  0  0  0  0 
 17 19  1  0  0  0  0 
 17 20  1  0  0  0  0 
 20 21  1  0  0  0  0 
 20 22  1  0  0  0  0 
 22 23  1  0  0  0  0 
 22 24  1  0  0  0  0 
 24 25  1  0  0  0  0 
 24 26  1  0  0  0  0 
 24 27  1  0  0  0  0 
 27 28  1  0  0  0  0 
 27 29  1  0  0  0  0 
 27 30  1  0  0  0  0 
 20 30  1  0  0  0  0 
 30 31  2  0  0  0  0 
 22 32  1  0  0  0  0 
 32 33  1  0  0  0  0 
  5 34  1  0  0  0  0 
 34 35  2  0  0  0  0 
 34 36  1  0  0  0  0 
 36 37  1  0  0  0  0 
M  END
> <Rank>
19

> <Priority_score>
0.048

> <Reaction_type>
aliphatic hydroxylation

> <Parent_ID>
5

> <Parent_InChI>
InChI=1S/C15H18O3/c1-10(15(17)18)12-7-5-11(6-8-12)9-13-3-2-4-14(13)16/h5-8,10,13H,2-4,9H2,1H3,(H,17,18)

> <Parent_SMILES>
CC(C(=O)O)c1ccc(CC2CCCC2=O)cc1

$$$$
Molecule 5_metabolite 20
  CDK     0516241031

 37 38  0  0  0  0  0  0  0  0999 V2000
    0.5337   -1.0669    0.0000 C   0  0  0  0  0  0  0  0  0  0  0  0
   -0.9625   -0.9602    0.0000 H   0  0  0  0  0  0  0  0  0  0  0  0
    0.1689   -2.5218    0.0000 H   0  0  0  0  0  0  0  0  0  0  0  0
    1.9032   -1.6789    0.0000 H   0  0  0  0  0  0  0  0  0  0  0  0
    1.3742    0.1755    0.0000 C   0  0  0  0  0  0  0  0  0  0  0  0
    2.4518   -0.8679    0.0000 H   0  0  0  0  0  0  0  0  0  0  0  0
    2.5889    1.0555    0.0000 C   0  0  0  0  0  0  0  0  0  0  0  0
    3.9590    0.4428    0.0000 C   0  0  0  0  0  0  0  0  0  0  0  0
    4.1135   -1.0492    0.0000 H   0  0  0  0  0  0  0  0  0  0  0  0
    5.1737    1.3228    0.0000 C   0  0  0  0  0  0  0  0  0  0  0  0
    6.5433    0.7111    0.0000 H   0  0  0  0  0  0  0  0  0  0  0  0
    5.0184    2.8156    0.0000 C   0  0  0  0  0  0  0  0  0  0  0  0
    6.2331    3.6956    0.0000 C   0  0  0  0  0  0  0  0  0  0  0  0
    7.0736    4.9380    0.0000 H   0  0  0  0  0  0  0  0  0  0  0  0
    5.1555    4.7391    0.0000 H   0  0  0  0  0  0  0  0  0  0  0  0
    7.6026    3.0836    0.0000 C   0  0  0  0  0  0  0  0  0  0  0  0
    6.8479    1.7873    0.0000 H   0  0  0  0  0  0  0  0  0  0  0  0
    8.8126    2.1936    0.0000 C   0  0  0  0  0  0  0  0  0  0  0  0
    7.8067    1.0809    0.0000 H   0  0  0  0  0  0  0  0  0  0  0  0
    9.8185    1.0809    0.0000 H   0  0  0  0  0  0  0  0  0  0  0  0
   10.0226    3.0836    0.0000 C   0  0  0  0  0  0  0  0  0  0  0  0
   10.7773    1.7873    0.0000 H   0  0  0  0  0  0  0  0  0  0  0  0
   11.3921    3.6956    0.0000 H   0  0  0  0  0  0  0  0  0  0  0  0
    9.5626    4.5036    0.0000 C   0  0  0  0  0  0  0  0  0  0  0  0
   11.0300    4.8146    0.0000 H   0  0  0  0  0  0  0  0  0  0  0  0
    9.4063    5.9955    0.0000 H   0  0  0  0  0  0  0  0  0  0  0  0
    8.0626    4.5036    0.0000 C   0  0  0  0  0  0  0  0  0  0  0  0
    7.1804    5.7168    0.0000 O   0  0  0  0  0  0  0  0  0  0  0  0
    3.6483    3.4283    0.0000 C   0  0  0  0  0  0  0  0  0  0  0  0
    2.4336    2.5483    0.0000 C   0  0  0  0  0  0  0  0  0  0  0  0
    1.0640    3.1601    0.0000 H   0  0  0  0  0  0  0  0  0  0  0  0
    3.4938    4.9204    0.0000 O   0  0  0  0  0  0  0  0  0  0  0  0
    2.1244    5.5326    0.0000 H   0  0  0  0  0  0  0  0  0  0  0  0
    0.0047    0.7875    0.0000 C   0  0  0  0  0  0  0  0  0  0  0  0
   -0.1500    2.2795    0.0000 O   0  0  0  0  0  0  0  0  0  0  0  0
   -1.2100   -0.0925    0.0000 O   0  0  0  0  0  0  0  0  0  0  0  0
   -2.5795    0.5195    0.0000 H   0  0  0  0  0  0  0  0  0  0  0  0
  1  2  1  0  0  0  0 
  1  3  1  0  0  0  0 
  1  4  1  0  0  0  0 
  1  5  1  0  0  0  0 
  5  6  1  0  0  0  0 
  5  7  1  0  0  0  0 
  7  8  2  0  0  0  0 
  8  9  1  0  0  0  0 
  8 10  1  0  0  0  0 
 10 11  1  0  0  0  0 
 10 12  2  0  0  0  0 
 12 13  1  0  0  0  0 
 13 14  1  0  0  0  0 
 13 15  1  0  0  0  0 
 13 16  1  0  0  0  0 
 16 17  1  0  0  0  0 
 16 18  1  0  0  0  0 
 18 19  1  0  0  0  0 
 18 20  1  0  0  0  0 
 18 21  1  0  0  0  0 
 21 22  1  0  0  0  0 
 21 23  1  0  0  0  0 
 21 24  1  0  0  0  0 
 24 25  1  0  0  0  0 
 24 26  1  0  0  0  0 
 24 27  1  0  0  0  0 
 16 27  1  0  0  0  0 
 27 28  2  0  0  0  0 
 12 29  1  0  0  0  0 
 29 30  2  0  0  0  0 
  7 30  1  0  0  0  0 
 30 31  1  0  0  0  0 
 29 32  1  0  0  0  0 
 32 33  1  0  0  0  0 
  5 34  1  0  0  0  0 
 34 35  2  0  0  0  0 
 34 36  1  0  0  0  0 
 36 37  1  0  0  0  0 
M  END
> <Rank>
20

> <Priority_score>
0.028

> <Reaction_type>
aromatic hydroxylation

> <Parent_ID>
5

> <Parent_InChI>
InChI=1S/C15H18O3/c1-10(15(17)18)12-7-5-11(6-8-12)9-13-3-2-4-14(13)16/h5-8,10,13H,2-4,9H2,1H3,(H,17,18)

> <Parent_SMILES>
CC(C(=O)O)c1ccc(CC2CCCC2=O)cc1

$$$$
Molecule 5_metabolite 21
  CDK     0516241031

 37 38  0  0  0  0  0  0  0  0999 V2000
   -0.3493    1.2450    0.0000 C   0  0  0  0  0  0  0  0  0  0  0  0
   -1.5917    2.0855    0.0000 H   0  0  0  0  0  0  0  0  0  0  0  0
   -1.3928    0.1674    0.0000 H   0  0  0  0  0  0  0  0  0  0  0  0
    0.5307    0.0303    0.0000 H   0  0  0  0  0  0  0  0  0  0  0  0
    0.9998    1.9007    0.0000 C   0  0  0  0  0  0  0  0  0  0  0  0
    1.4113    0.4583    0.0000 H   0  0  0  0  0  0  0  0  0  0  0  0
    2.4918    2.0555    0.0000 C   0  0  0  0  0  0  0  0  0  0  0  0
    3.1037    3.4259    0.0000 C   0  0  0  0  0  0  0  0  0  0  0  0
    2.2234    4.6405    0.0000 H   0  0  0  0  0  0  0  0  0  0  0  0
    4.5957    3.5807    0.0000 C   0  0  0  0  0  0  0  0  0  0  0  0
    5.2079    4.9501    0.0000 H   0  0  0  0  0  0  0  0  0  0  0  0
    5.4758    2.3650    0.0000 C   0  0  0  0  0  0  0  0  0  0  0  0
    6.9678    2.5198    0.0000 C   0  0  0  0  0  0  0  0  0  0  0  0
    8.3169    3.1755    0.0000 H   0  0  0  0  0  0  0  0  0  0  0  0
    6.5563    3.9622    0.0000 H   0  0  0  0  0  0  0  0  0  0  0  0
    7.8478    1.3050    0.0000 C   0  0  0  0  0  0  0  0  0  0  0  0
    6.5461    0.5597    0.0000 H   0  0  0  0  0  0  0  0  0  0  0  0
    8.4507   -0.0707    0.0000 C   0  0  0  0  0  0  0  0  0  0  0  0
    7.0232   -0.5315    0.0000 H   0  0  0  0  0  0  0  0  0  0  0  0
    8.7654   -1.5373    0.0000 H   0  0  0  0  0  0  0  0  0  0  0  0
    9.9436    0.0950    0.0000 C   0  0  0  0  0  0  0  0  0  0  0  0
    9.9490   -1.4049    0.0000 H   0  0  0  0  0  0  0  0  0  0  0  0
   11.4356   -0.0597    0.0000 H   0  0  0  0  0  0  0  0  0  0  0  0
   10.2552    1.5548    0.0000 C   0  0  0  0  0  0  0  0  0  0  0  0
   11.6815    1.0904    0.0000 H   0  0  0  0  0  0  0  0  0  0  0  0
   10.8657    2.9249    0.0000 H   0  0  0  0  0  0  0  0  0  0  0  0
    8.9562    2.3048    0.0000 C   0  0  0  0  0  0  0  0  0  0  0  0
    8.7987    3.7965    0.0000 O   0  0  0  0  0  0  0  0  0  0  0  0
    4.8639    0.9946    0.0000 C   0  0  0  0  0  0  0  0  0  0  0  0
    5.7441   -0.2200    0.0000 H   0  0  0  0  0  0  0  0  0  0  0  0
    3.3719    0.8398    0.0000 C   0  0  0  0  0  0  0  0  0  0  0  0
    2.7597   -0.5296    0.0000 O   0  0  0  0  0  0  0  0  0  0  0  0
    1.2677   -0.6841    0.0000 H   0  0  0  0  0  0  0  0  0  0  0  0
    0.1198    3.1155    0.0000 C   0  0  0  0  0  0  0  0  0  0  0  0
    0.7317    4.4850    0.0000 O   0  0  0  0  0  0  0  0  0  0  0  0
   -1.3722    2.9607    0.0000 O   0  0  0  0  0  0  0  0  0  0  0  0
   -2.2522    4.1754    0.0000 H   0  0  0  0  0  0  0  0  0  0  0  0
  1  2  1  0  0  0  0 
  1  3  1  0  0  0  0 
  1  4  1  0  0  0  0 
  1  5  1  0  0  0  0 
  5  6  1  0  0  0  0 
  5  7  1  0  0  0  0 
  7  8  2  0  0  0  0 
  8  9  1  0  0  0  0 
  8 10  1  0  0  0  0 
 10 11  1  0  0  0  0 
 10 12  2  0  0  0  0 
 12 13  1  0  0  0  0 
 13 14  1  0  0  0  0 
 13 15  1  0  0  0  0 
 13 16  1  0  0  0  0 
 16 17  1  0  0  0  0 
 16 18  1  0  0  0  0 
 18 19  1  0  0  0  0 
 18 20  1  0  0  0  0 
 18 21  1  0  0  0  0 
 21 22  1  0  0  0  0 
 21 23  1  0  0  0  0 
 21 24  1  0  0  0  0 
 24 25  1  0  0  0  0 
 24 26  1  0  0  0  0 
 24 27  1  0  0  0  0 
 16 27  1  0  0  0  0 
 27 28  2  0  0  0  0 
 12 29  1  0  0  0  0 
 29 30  1  0  0  0  0 
 29 31  2  0  0  0  0 
  7 31  1  0  0  0  0 
 31 32  1  0  0  0  0 
 32 33  1  0  0  0  0 
  5 34  1  0  0  0  0 
 34 35  2  0  0  0  0 
 34 36  1  0  0  0  0 
 36 37  1  0  0  0  0 
M  END
> <Rank>
21

> <Priority_score>
0.02

> <Reaction_type>
aromatic hydroxylation

> <Parent_ID>
5

> <Parent_InChI>
InChI=1S/C15H18O3/c1-10(15(17)18)12-7-5-11(6-8-12)9-13-3-2-4-14(13)16/h5-8,10,13H,2-4,9H2,1H3,(H,17,18)

> <Parent_SMILES>
CC(C(=O)O)c1ccc(CC2CCCC2=O)cc1

$$$$
Molecule 5_metabolite 22
  CDK     0516241031

 34 35  0  0  0  0  0  0  0  0999 V2000
    1.8985    3.6140    0.0000 C   0  0  0  0  0  0  0  0  0  0  0  0
    3.2905    4.1728    0.0000 H   0  0  0  0  0  0  0  0  0  0  0  0
    1.5899    5.0819    0.0000 H   0  0  0  0  0  0  0  0  0  0  0  0
    0.3993    3.5650    0.0000 H   0  0  0  0  0  0  0  0  0  0  0  0
    1.6864    2.1291    0.0000 C   0  0  0  0  0  0  0  0  0  0  0  0
    0.2609    2.5957    0.0000 H   0  0  0  0  0  0  0  0  0  0  0  0
    0.9793    0.8062    0.0000 C   0  0  0  0  0  0  0  0  0  0  0  0
   -0.4696    0.7767    0.0000 C   0  0  0  0  0  0  0  0  0  0  0  0
   -1.2284    2.0706    0.0000 H   0  0  0  0  0  0  0  0  0  0  0  0
   -1.2182   -0.5000    0.0000 C   0  0  0  0  0  0  0  0  0  0  0  0
   -2.7179   -0.5287    0.0000 H   0  0  0  0  0  0  0  0  0  0  0  0
   -0.4114   -1.7626    0.0000 C   0  0  0  0  0  0  0  0  0  0  0  0
    1.0375   -1.7331    0.0000 C   0  0  0  0  0  0  0  0  0  0  0  0
    1.7963   -3.0270    0.0000 H   0  0  0  0  0  0  0  0  0  0  0  0
    1.7861   -0.4564    0.0000 C   0  0  0  0  0  0  0  0  0  0  0  0
    3.2859   -0.4277    0.0000 H   0  0  0  0  0  0  0  0  0  0  0  0
   -1.1185   -3.0855    0.0000 C   0  0  0  0  0  0  0  0  0  0  0  0
   -1.3306   -4.5704    0.0000 H   0  0  0  0  0  0  0  0  0  0  0  0
    0.3070   -3.5521    0.0000 H   0  0  0  0  0  0  0  0  0  0  0  0
   -2.6177   -3.1345    0.0000 C   0  0  0  0  0  0  0  0  0  0  0  0
   -2.5064   -1.6386    0.0000 H   0  0  0  0  0  0  0  0  0  0  0  0
   -4.0952   -2.8638    0.0000 C   0  0  0  0  0  0  0  0  0  0  0  0
   -3.6777   -1.4230    0.0000 H   0  0  0  0  0  0  0  0  0  0  0  0
   -5.4866   -2.3034    0.0000 H   0  0  0  0  0  0  0  0  0  0  0  0
   -4.7937   -4.1935    0.0000 C   0  0  0  0  0  0  0  0  0  0  0  0
   -6.2788   -4.4047    0.0000 H   0  0  0  0  0  0  0  0  0  0  0  0
   -3.7587   -5.2690    0.0000 C   0  0  0  0  0  0  0  0  0  0  0  0
   -4.0210   -6.7459    0.0000 H   0  0  0  0  0  0  0  0  0  0  0  0
   -2.4099   -4.6126    0.0000 C   0  0  0  0  0  0  0  0  0  0  0  0
   -1.0858   -5.3174    0.0000 O   0  0  0  0  0  0  0  0  0  0  0  0
    3.1856    2.1781    0.0000 C   0  0  0  0  0  0  0  0  0  0  0  0
    3.9777    0.9043    0.0000 O   0  0  0  0  0  0  0  0  0  0  0  0
    3.8928    3.5010    0.0000 O   0  0  0  0  0  0  0  0  0  0  0  0
    5.3920    3.5500    0.0000 H   0  0  0  0  0  0  0  0  0  0  0  0
  1  2  1  0  0  0  0 
  1  3  1  0  0  0  0 
  1  4  1  0  0  0  0 
  1  5  1  0  0  0  0 
  5  6  1  0  0  0  0 
  5  7  1  0  0  0  0 
  7  8  2  0  0  0  0 
  8  9  1  0  0  0  0 
  8 10  1  0  0  0  0 
 10 11  1  0  0  0  0 
 10 12  2  0  0  0  0 
 12 13  1  0  0  0  0 
 13 14  1  0  0  0  0 
 13 15  2  0  0  0  0 
  7 15  1  0  0  0  0 
 15 16  1  0  0  0  0 
 12 17  1  0  0  0  0 
 17 18  1  0  0  0  0 
 17 19  1  0  0  0  0 
 17 20  1  0  0  0  0 
 20 21  1  0  0  0  0 
 20 22  1  0  0  0  0 
 22 23  1  0  0  0  0 
 22 24  1  0  0  0  0 
 22 25  1  0  0  0  0 
 25 26  1  0  0  0  0 
 25 27  2  0  0  0  0 
 27 28  1  0  0  0  0 
 27 29  1  0  0  0  0 
 20 29  1  0  0  0  0 
 29 30  2  0  0  0  0 
  5 31  1  0  0  0  0 
 31 32  2  0  0  0  0 
 31 33  1  0  0  0  0 
 33 34  1  0  0  0  0 
M  END
> <Rank>
22

> <Priority_score>
0.0152

> <Reaction_type>
alkyl dehydrogenation

> <Parent_ID>
5

> <Parent_InChI>
InChI=1S/C15H18O3/c1-10(15(17)18)12-7-5-11(6-8-12)9-13-3-2-4-14(13)16/h5-8,10,13H,2-4,9H2,1H3,(H,17,18)

> <Parent_SMILES>
CC(C(=O)O)c1ccc(CC2CCCC2=O)cc1

$$$$
Molecule 5_metabolite 23
  CDK     0516241031

 34 35  0  0  0  0  0  0  0  0999 V2000
   -4.4362    3.4648    0.0000 C   0  0  0  0  0  0  0  0  0  0  0  0
   -5.9041    3.1561    0.0000 H   0  0  0  0  0  0  0  0  0  0  0  0
   -4.9950    4.8568    0.0000 H   0  0  0  0  0  0  0  0  0  0  0  0
   -3.1624    4.2568    0.0000 H   0  0  0  0  0  0  0  0  0  0  0  0
   -3.4349    2.3478    0.0000 C   0  0  0  0  0  0  0  0  0  0  0  0
   -2.5088    3.5278    0.0000 H   0  0  0  0  0  0  0  0  0  0  0  0
   -2.1121    1.6407    0.0000 C   0  0  0  0  0  0  0  0  0  0  0  0
   -0.8910    2.4211    0.0000 C   0  0  0  0  0  0  0  0  0  0  0  0
   -0.9788    3.9185    0.0000 H   0  0  0  0  0  0  0  0  0  0  0  0
    0.4408    1.7754    0.0000 C   0  0  0  0  0  0  0  0  0  0  0  0
    1.7038    2.5846    0.0000 H   0  0  0  0  0  0  0  0  0  0  0  0
    0.4713    0.2773    0.0000 C   0  0  0  0  0  0  0  0  0  0  0  0
   -0.7498   -0.5030    0.0000 C   0  0  0  0  0  0  0  0  0  0  0  0
   -0.6620   -2.0004    0.0000 H   0  0  0  0  0  0  0  0  0  0  0  0
   -2.0816    0.1427    0.0000 C   0  0  0  0  0  0  0  0  0  0  0  0
   -3.3445   -0.6666    0.0000 H   0  0  0  0  0  0  0  0  0  0  0  0
    1.7942   -0.4298    0.0000 C   0  0  0  0  0  0  0  0  0  0  0  0
    3.2791   -0.6418    0.0000 H   0  0  0  0  0  0  0  0  0  0  0  0
    2.2609    0.9958    0.0000 H   0  0  0  0  0  0  0  0  0  0  0  0
    1.8589   -2.4087    0.0000 C   0  0  0  0  0  0  0  0  0  0  0  0
    0.6701   -3.3269    0.0000 C   0  0  0  0  0  0  0  0  0  0  0  0
   -0.7719   -2.9138    0.0000 H   0  0  0  0  0  0  0  0  0  0  0  0
    1.1925   -4.7352    0.0000 C   0  0  0  0  0  0  0  0  0  0  0  0
   -0.2615   -5.1037    0.0000 H   0  0  0  0  0  0  0  0  0  0  0  0
    1.4037   -6.2202    0.0000 H   0  0  0  0  0  0  0  0  0  0  0  0
    2.6843   -4.6840    0.0000 C   0  0  0  0  0  0  0  0  0  0  0  0
    2.5792   -6.1803    0.0000 H   0  0  0  0  0  0  0  0  0  0  0  0
    4.1615   -4.9445    0.0000 H   0  0  0  0  0  0  0  0  0  0  0  0
    3.0974   -3.2420    0.0000 C   0  0  0  0  0  0  0  0  0  0  0  0
    4.5065   -2.7279    0.0000 O   0  0  0  0  0  0  0  0  0  0  0  0
   -4.7088    1.5558    0.0000 C   0  0  0  0  0  0  0  0  0  0  0  0
   -4.6597    0.0566    0.0000 O   0  0  0  0  0  0  0  0  0  0  0  0
   -6.0316    2.2629    0.0000 O   0  0  0  0  0  0  0  0  0  0  0  0
   -7.3055    1.4708    0.0000 H   0  0  0  0  0  0  0  0  0  0  0  0
  1  2  1  0  0  0  0 
  1  3  1  0  0  0  0 
  1  4  1  0  0  0  0 
  1  5  1  0  0  0  0 
  5  6  1  0  0  0  0 
  5  7  1  0  0  0  0 
  7  8  2  0  0  0  0 
  8  9  1  0  0  0  0 
  8 10  1  0  0  0  0 
 10 11  1  0  0  0  0 
 10 12  2  0  0  0  0 
 12 13  1  0  0  0  0 
 13 14  1  0  0  0  0 
 13 15  2  0  0  0  0 
  7 15  1  0  0  0  0 
 15 16  1  0  0  0  0 
 12 17  1  0  0  0  0 
 17 18  1  0  0  0  0 
 17 19  1  0  0  0  0 
 17 20  1  0  0  0  0 
 20 21  2  0  0  0  0 
 21 22  1  0  0  0  0 
 21 23  1  0  0  0  0 
 23 24  1  0  0  0  0 
 23 25  1  0  0  0  0 
 23 26  1  0  0  0  0 
 26 27  1  0  0  0  0 
 26 28  1  0  0  0  0 
 26 29  1  0  0  0  0 
 20 29  1  0  0  0  0 
 29 30  2  0  0  0  0 
  5 31  1  0  0  0  0 
 31 32  2  0  0  0  0 
 31 33  1  0  0  0  0 
 33 34  1  0  0  0  0 
M  END
> <Rank>
23

> <Priority_score>
0.009600000000000001

> <Reaction_type>
alkyl dehydrogenation

> <Parent_ID>
5

> <Parent_InChI>
InChI=1S/C15H18O3/c1-10(15(17)18)12-7-5-11(6-8-12)9-13-3-2-4-14(13)16/h5-8,10,13H,2-4,9H2,1H3,(H,17,18)

> <Parent_SMILES>
CC(C(=O)O)c1ccc(CC2CCCC2=O)cc1

$$$$
Molecule 5_metabolite 24
  CDK     0516241031

 34 35  0  0  0  0  0  0  0  0999 V2000
    3.7869    1.8123    0.0000 C   0  0  0  0  0  0  0  0  0  0  0  0
    5.2719    1.6003    0.0000 H   0  0  0  0  0  0  0  0  0  0  0  0
    4.2536    3.2379    0.0000 H   0  0  0  0  0  0  0  0  0  0  0  0
    2.4641    2.5195    0.0000 H   0  0  0  0  0  0  0  0  0  0  0  0
    2.8608    0.6324    0.0000 C   0  0  0  0  0  0  0  0  0  0  0  0
    1.8596    1.7493    0.0000 H   0  0  0  0  0  0  0  0  0  0  0  0
    1.5870   -0.1597    0.0000 C   0  0  0  0  0  0  0  0  0  0  0  0
    0.3175    0.5392    0.0000 C   0  0  0  0  0  0  0  0  0  0  0  0
    0.3073    2.0391    0.0000 H   0  0  0  0  0  0  0  0  0  0  0  0
   -0.9692   -0.1922    0.0000 C   0  0  0  0  0  0  0  0  0  0  0  0
   -2.2824    0.5328    0.0000 H   0  0  0  0  0  0  0  0  0  0  0  0
   -0.9018   -1.6890    0.0000 C   0  0  0  0  0  0  0  0  0  0  0  0
    0.3677   -2.3879    0.0000 C   0  0  0  0  0  0  0  0  0  0  0  0
    0.3779   -3.8878    0.0000 H   0  0  0  0  0  0  0  0  0  0  0  0
    1.6544   -1.6565    0.0000 C   0  0  0  0  0  0  0  0  0  0  0  0
    2.9676   -2.3815    0.0000 H   0  0  0  0  0  0  0  0  0  0  0  0
   -2.1756   -2.4811    0.0000 C   0  0  0  0  0  0  0  0  0  0  0  0
   -3.1017   -3.6610    0.0000 H   0  0  0  0  0  0  0  0  0  0  0  0
   -1.1744   -3.5980    0.0000 H   0  0  0  0  0  0  0  0  0  0  0  0
   -3.4985   -1.7739    0.0000 C   0  0  0  0  0  0  0  0  0  0  0  0
   -2.6542   -0.5341    0.0000 H   0  0  0  0  0  0  0  0  0  0  0  0
   -4.6426   -0.8007    0.0000 C   0  0  0  0  0  0  0  0  0  0  0  0
   -4.5367    0.6955    0.0000 H   0  0  0  0  0  0  0  0  0  0  0  0
   -5.9124   -1.6031    0.0000 C   0  0  0  0  0  0  0  0  0  0  0  0
   -7.3041   -1.0435    0.0000 H   0  0  0  0  0  0  0  0  0  0  0  0
   -5.5538   -3.0520    0.0000 C   0  0  0  0  0  0  0  0  0  0  0  0
   -7.0395   -3.2586    0.0000 H   0  0  0  0  0  0  0  0  0  0  0  0
   -5.5032   -4.5512    0.0000 H   0  0  0  0  0  0  0  0  0  0  0  0
   -4.0576   -3.1579    0.0000 C   0  0  0  0  0  0  0  0  0  0  0  0
   -3.2632   -4.4303    0.0000 O   0  0  0  0  0  0  0  0  0  0  0  0
    4.1837   -0.0748    0.0000 C   0  0  0  0  0  0  0  0  0  0  0  0
    4.2327   -1.5740    0.0000 O   0  0  0  0  0  0  0  0  0  0  0  0
    5.4575    0.7173    0.0000 O   0  0  0  0  0  0  0  0  0  0  0  0
    6.7804    0.0102    0.0000 H   0  0  0  0  0  0  0  0  0  0  0  0
  1  2  1  0  0  0  0 
  1  3  1  0  0  0  0 
  1  4  1  0  0  0  0 
  1  5  1  0  0  0  0 
  5  6  1  0  0  0  0 
  5  7  1  0  0  0  0 
  7  8  2  0  0  0  0 
  8  9  1  0  0  0  0 
  8 10  1  0  0  0  0 
 10 11  1  0  0  0  0 
 10 12  2  0  0  0  0 
 12 13  1  0  0  0  0 
 13 14  1  0  0  0  0 
 13 15  2  0  0  0  0 
  7 15  1  0  0  0  0 
 15 16  1  0  0  0  0 
 12 17  1  0  0  0  0 
 17 18  1  0  0  0  0 
 17 19  1  0  0  0  0 
 17 20  1  0  0  0  0 
 20 21  1  0  0  0  0 
 20 22  1  0  0  0  0 
 22 23  1  0  0  0  0 
 22 24  2  0  0  0  0 
 24 25  1  0  0  0  0 
 24 26  1  0  0  0  0 
 26 27  1  0  0  0  0 
 26 28  1  0  0  0  0 
 26 29  1  0  0  0  0 
 20 29  1  0  0  0  0 
 29 30  2  0  0  0  0 
  5 31  1  0  0  0  0 
 31 32  2  0  0  0  0 
 31 33  1  0  0  0  0 
 33 34  1  0  0  0  0 
M  END
> <Rank>
23

> <Priority_score>
0.009600000000000001

> <Reaction_type>
alkyl dehydrogenation

> <Parent_ID>
5

> <Parent_InChI>
InChI=1S/C15H18O3/c1-10(15(17)18)12-7-5-11(6-8-12)9-13-3-2-4-14(13)16/h5-8,10,13H,2-4,9H2,1H3,(H,17,18)

> <Parent_SMILES>
CC(C(=O)O)c1ccc(CC2CCCC2=O)cc1

$$$$
Molecule 6
  CDK     0516241031

 11 11  0  0  0  0  0  0  0  0999 V2000
   -1.2990    4.8200    0.0000 C   0  0  0  0  0  0  0  0  0  0  0  0
   -1.2990    3.3200    0.0000 C   0  0  0  0  0  0  0  0  0  0  0  0
   -2.7762    3.5805    0.0000 C   0  0  0  0  0  0  0  0  0  0  0  0
    0.0000    2.5700    0.0000 C   0  0  0  0  0  0  0  0  0  0  0  0
    0.0000    1.0700    0.0000 C   0  0  0  0  0  0  0  0  0  0  0  0
    1.3000    0.3200    0.0000 C   0  0  0  0  0  0  0  0  0  0  0  0
    1.3000   -1.1800    0.0000 C   0  0  0  0  0  0  0  0  0  0  0  0
    0.0000   -1.9300    0.0000 C   0  0  0  0  0  0  0  0  0  0  0  0
   -1.3000   -1.1800    0.0000 C   0  0  0  0  0  0  0  0  0  0  0  0
   -1.3000    0.3200    0.0000 C   0  0  0  0  0  0  0  0  0  0  0  0
   -1.8121    1.9105    0.0000 N   0  0  0  0  0  0  0  0  0  0  0  0
  1  2  1  0  0  0  0 
  2  3  1  0  0  0  0 
  2  4  1  0  0  0  0 
  4  5  1  0  0  0  0 
  5  6  2  0  0  0  0 
  6  7  1  0  0  0  0 
  7  8  2  0  0  0  0 
  8  9  1  0  0  0  0 
  9 10  2  0  0  0  0 
  5 10  1  0  0  0  0 
  2 11  1  0  0  0  0 
M  END
> <SMILES>
CC(C)(N)Cc1ccccc1

$$$$
Molecule 6_metabolite 1
  CDK     0516241031

 31 31  0  0  0  0  0  0  0  0999 V2000
   -4.0851    5.9572    0.0000 C   0  0  0  0  0  0  0  0  0  0  0  0
   -4.0851    7.4572    0.0000 H   0  0  0  0  0  0  0  0  0  0  0  0
   -4.5981    4.5476    0.0000 H   0  0  0  0  0  0  0  0  0  0  0  0
   -5.5623    6.2176    0.0000 H   0  0  0  0  0  0  0  0  0  0  0  0
   -2.7860    5.2072    0.0000 C   0  0  0  0  0  0  0  0  0  0  0  0
   -1.4870    5.9572    0.0000 O   0  0  0  0  0  0  0  0  0  0  0  0
   -2.7860    3.7072    0.0000 N   0  0  0  0  0  0  0  0  0  0  0  0
   -4.0851    2.9572    0.0000 H   0  0  0  0  0  0  0  0  0  0  0  0
   -1.4870    2.9572    0.0000 C   0  0  0  0  0  0  0  0  0  0  0  0
   -2.4512    1.8081    0.0000 C   0  0  0  0  0  0  0  0  0  0  0  0
   -3.9284    2.0686    0.0000 H   0  0  0  0  0  0  0  0  0  0  0  0
   -2.9642    0.3986    0.0000 H   0  0  0  0  0  0  0  0  0  0  0  0
   -1.1521    1.0581    0.0000 H   0  0  0  0  0  0  0  0  0  0  0  0
   -0.5228    1.8081    0.0000 C   0  0  0  0  0  0  0  0  0  0  0  0
   -1.2000   -0.0525    0.0000 H   0  0  0  0  0  0  0  0  0  0  0  0
    0.7762    1.0581    0.0000 H   0  0  0  0  0  0  0  0  0  0  0  0
    0.4414    2.9572    0.0000 H   0  0  0  0  0  0  0  0  0  0  0  0
   -0.1879    3.7072    0.0000 C   0  0  0  0  0  0  0  0  0  0  0  0
    0.7762    4.8562    0.0000 H   0  0  0  0  0  0  0  0  0  0  0  0
   -1.1521    4.8562    0.0000 H   0  0  0  0  0  0  0  0  0  0  0  0
    1.5268    2.7172    0.0000 C   0  0  0  0  0  0  0  0  0  0  0  0
    2.8263    3.4680    0.0000 C   0  0  0  0  0  0  0  0  0  0  0  0
    2.8261    4.9680    0.0000 H   0  0  0  0  0  0  0  0  0  0  0  0
    4.1253    2.7180    0.0000 C   0  0  0  0  0  0  0  0  0  0  0  0
    5.4245    3.4678    0.0000 H   0  0  0  0  0  0  0  0  0  0  0  0
    4.1249    1.2172    0.0000 C   0  0  0  0  0  0  0  0  0  0  0  0
    5.4239    0.4672    0.0000 H   0  0  0  0  0  0  0  0  0  0  0  0
    2.8253    0.4663    0.0000 C   0  0  0  0  0  0  0  0  0  0  0  0
    2.8256   -1.0337    0.0000 H   0  0  0  0  0  0  0  0  0  0  0  0
    1.5263    1.2163    0.0000 C   0  0  0  0  0  0  0  0  0  0  0  0
    0.2271    0.4665    0.0000 H   0  0  0  0  0  0  0  0  0  0  0  0
  1  2  1  0  0  0  0 
  1  3  1  0  0  0  0 
  1  4  1  0  0  0  0 
  1  5  1  0  0  0  0 
  5  6  2  0  0  0  0 
  5  7  1  0  0  0  0 
  7  8  1  0  0  0  0 
  7  9  1  0  0  0  0 
  9 10  1  0  0  0  0 
 10 11  1  0  0  0  0 
 10 12  1  0  0  0  0 
 10 13  1  0  0  0  0 
  9 14  1  0  0  0  0 
 14 15  1  0  0  0  0 
 14 16  1  0  0  0  0 
 14 17  1  0  0  0  0 
  9 18  1  0  0  0  0 
 18 19  1  0  0  0  0 
 18 20  1  0  0  0  0 
 18 21  1  0  0  0  0 
 21 22  2  0  0  0  0 
 22 23  1  0  0  0  0 
 22 24  1  0  0  0  0 
 24 25  1  0  0  0  0 
 24 26  2  0  0  0  0 
 26 27  1  0  0  0  0 
 26 28  1  0  0  0  0 
 28 29  1  0  0  0  0 
 28 30  2  0  0  0  0 
 21 30  1  0  0  0  0 
 30 31  1  0  0  0  0 
M  END
> <Rank>
1

> <Priority_score>
0.992

> <Reaction_type>
N-acetylation_(aliphatic_NH2)

> <Parent_ID>
6

> <Parent_InChI>
InChI=1S/C10H15N/c1-10(2,11)8-9-6-4-3-5-7-9/h3-7H,8,11H2,1-2H3

> <Parent_SMILES>
CC(C)(N)Cc1ccccc1

$$$$
Molecule 6_metabolite 2
  CDK     0516241031

 27 27  0  0  0  0  0  0  0  0999 V2000
   -3.2818    0.9352    0.0000 C   0  0  0  0  0  0  0  0  0  0  0  0
   -2.7688   -0.4743    0.0000 H   0  0  0  0  0  0  0  0  0  0  0  0
   -4.5809    0.1852    0.0000 H   0  0  0  0  0  0  0  0  0  0  0  0
   -4.2460    2.0843    0.0000 H   0  0  0  0  0  0  0  0  0  0  0  0
   -2.3176    2.0843    0.0000 C   0  0  0  0  0  0  0  0  0  0  0  0
   -1.3535    0.9352    0.0000 C   0  0  0  0  0  0  0  0  0  0  0  0
   -1.8665   -0.4743    0.0000 H   0  0  0  0  0  0  0  0  0  0  0  0
   -0.0544    0.1852    0.0000 H   0  0  0  0  0  0  0  0  0  0  0  0
   -0.3893    2.0843    0.0000 H   0  0  0  0  0  0  0  0  0  0  0  0
   -1.0186    2.8343    0.0000 C   0  0  0  0  0  0  0  0  0  0  0  0
   -0.0544    3.9834    0.0000 H   0  0  0  0  0  0  0  0  0  0  0  0
   -1.9828    3.9834    0.0000 H   0  0  0  0  0  0  0  0  0  0  0  0
    0.6961    1.8443    0.0000 C   0  0  0  0  0  0  0  0  0  0  0  0
    1.9956    2.5951    0.0000 C   0  0  0  0  0  0  0  0  0  0  0  0
    1.9954    4.0951    0.0000 H   0  0  0  0  0  0  0  0  0  0  0  0
    3.2947    1.8451    0.0000 C   0  0  0  0  0  0  0  0  0  0  0  0
    4.5938    2.5949    0.0000 H   0  0  0  0  0  0  0  0  0  0  0  0
    3.2942    0.3443    0.0000 C   0  0  0  0  0  0  0  0  0  0  0  0
    4.5932   -0.4057    0.0000 H   0  0  0  0  0  0  0  0  0  0  0  0
    1.9947   -0.4065    0.0000 C   0  0  0  0  0  0  0  0  0  0  0  0
    1.9949   -1.9065    0.0000 H   0  0  0  0  0  0  0  0  0  0  0  0
    0.6956    0.3435    0.0000 C   0  0  0  0  0  0  0  0  0  0  0  0
   -0.6035   -0.4063    0.0000 H   0  0  0  0  0  0  0  0  0  0  0  0
   -4.0324    3.0743    0.0000 N   0  0  0  0  0  0  0  0  0  0  0  0
   -4.0324    4.5743    0.0000 H   0  0  0  0  0  0  0  0  0  0  0  0
   -5.3314    2.3243    0.0000 O   0  0  0  0  0  0  0  0  0  0  0  0
   -6.6305    3.0743    0.0000 H   0  0  0  0  0  0  0  0  0  0  0  0
  1  2  1  0  0  0  0 
  1  3  1  0  0  0  0 
  1  4  1  0  0  0  0 
  1  5  1  0  0  0  0 
  5  6  1  0  0  0  0 
  6  7  1  0  0  0  0 
  6  8  1  0  0  0  0 
  6  9  1  0  0  0  0 
  5 10  1  0  0  0  0 
 10 11  1  0  0  0  0 
 10 12  1  0  0  0  0 
 10 13  1  0  0  0  0 
 13 14  2  0  0  0  0 
 14 15  1  0  0  0  0 
 14 16  1  0  0  0  0 
 16 17  1  0  0  0  0 
 16 18  2  0  0  0  0 
 18 19  1  0  0  0  0 
 18 20  1  0  0  0  0 
 20 21  1  0  0  0  0 
 20 22  2  0  0  0  0 
 13 22  1  0  0  0  0 
 22 23  1  0  0  0  0 
  5 24  1  0  0  0  0 
 24 25  1  0  0  0  0 
 24 26  1  0  0  0  0 
 26 27  1  0  0  0  0 
M  END
> <Rank>
2

> <Priority_score>
0.6771701888386605

> <Reaction_type>
amine hydroxylation

> <Parent_ID>
6

> <Parent_InChI>
InChI=1S/C10H15N/c1-10(2,11)8-9-6-4-3-5-7-9/h3-7H,8,11H2,1-2H3

> <Parent_SMILES>
CC(C)(N)Cc1ccccc1

$$$$
Molecule 6_metabolite 3
  CDK     0516241031

 31 31  0  0  0  0  0  0  0  0999 V2000
   -1.8406    6.1111    0.0000 C   0  0  0  0  0  0  0  0  0  0  0  0
   -3.1396    6.8611    0.0000 H   0  0  0  0  0  0  0  0  0  0  0  0
   -0.3633    5.8506    0.0000 H   0  0  0  0  0  0  0  0  0  0  0  0
   -1.3275    7.5206    0.0000 H   0  0  0  0  0  0  0  0  0  0  0  0
   -1.8406    4.6111    0.0000 C   0  0  0  0  0  0  0  0  0  0  0  0
   -3.3178    4.8715    0.0000 C   0  0  0  0  0  0  0  0  0  0  0  0
   -3.8308    6.2811    0.0000 H   0  0  0  0  0  0  0  0  0  0  0  0
   -4.7950    4.6111    0.0000 H   0  0  0  0  0  0  0  0  0  0  0  0
   -3.3178    3.3715    0.0000 H   0  0  0  0  0  0  0  0  0  0  0  0
   -0.1258    3.6211    0.0000 C   0  0  0  0  0  0  0  0  0  0  0  0
    0.8384    2.4720    0.0000 H   0  0  0  0  0  0  0  0  0  0  0  0
   -1.0900    2.4720    0.0000 H   0  0  0  0  0  0  0  0  0  0  0  0
    1.1732    4.3711    0.0000 C   0  0  0  0  0  0  0  0  0  0  0  0
    1.1727    5.8719    0.0000 C   0  0  0  0  0  0  0  0  0  0  0  0
   -0.1264    6.6217    0.0000 H   0  0  0  0  0  0  0  0  0  0  0  0
    2.4718    6.6219    0.0000 C   0  0  0  0  0  0  0  0  0  0  0  0
    2.4720    8.1219    0.0000 H   0  0  0  0  0  0  0  0  0  0  0  0
    3.7713    5.8711    0.0000 C   0  0  0  0  0  0  0  0  0  0  0  0
    3.7718    4.3702    0.0000 C   0  0  0  0  0  0  0  0  0  0  0  0
    2.4727    3.6202    0.0000 C   0  0  0  0  0  0  0  0  0  0  0  0
    2.4725    2.1202    0.0000 H   0  0  0  0  0  0  0  0  0  0  0  0
    5.0709    3.6204    0.0000 O   0  0  0  0  0  0  0  0  0  0  0  0
    6.3698    4.3706    0.0000 C   0  0  0  0  0  0  0  0  0  0  0  0
    7.6690    3.6208    0.0000 H   0  0  0  0  0  0  0  0  0  0  0  0
    5.4055    5.5195    0.0000 H   0  0  0  0  0  0  0  0  0  0  0  0
    7.3338    5.5199    0.0000 H   0  0  0  0  0  0  0  0  0  0  0  0
    5.0703    6.6211    0.0000 O   0  0  0  0  0  0  0  0  0  0  0  0
    6.3694    5.8711    0.0000 H   0  0  0  0  0  0  0  0  0  0  0  0
   -2.5178    2.7505    0.0000 N   0  0  0  0  0  0  0  0  0  0  0  0
   -3.9950    2.4900    0.0000 H   0  0  0  0  0  0  0  0  0  0  0  0
   -1.5536    1.6014    0.0000 H   0  0  0  0  0  0  0  0  0  0  0  0
  1  2  1  0  0  0  0 
  1  3  1  0  0  0  0 
  1  4  1  0  0  0  0 
  1  5  1  0  0  0  0 
  5  6  1  0  0  0  0 
  6  7  1  0  0  0  0 
  6  8  1  0  0  0  0 
  6  9  1  0  0  0  0 
  5 10  1  0  0  0  0 
 10 11  1  0  0  0  0 
 10 12  1  0  0  0  0 
 10 13  1  0  0  0  0 
 13 14  2  0  0  0  0 
 14 15  1  0  0  0  0 
 14 16  1  0  0  0  0 
 16 17  1  0  0  0  0 
 16 18  2  0  0  0  0 
 18 19  1  0  0  0  0 
 19 20  2  0  0  0  0 
 13 20  1  0  0  0  0 
 20 21  1  0  0  0  0 
 19 22  1  0  0  0  0 
 22 23  1  0  0  0  0 
 23 24  1  0  0  0  0 
 23 25  1  0  0  0  0 
 23 26  1  0  0  0  0 
 18 27  1  0  0  0  0 
 27 28  1  0  0  0  0 
  5 29  1  0  0  0  0 
 29 30  1  0  0  0  0 
 29 31  1  0  0  0  0 
M  END
> <Rank>
3

> <Priority_score>
0.5439230428610401

> <Reaction_type>
aromatic_oxidation

> <Parent_ID>
6

> <Parent_InChI>
InChI=1S/C10H15N/c1-10(2,11)8-9-6-4-3-5-7-9/h3-7H,8,11H2,1-2H3

> <Parent_SMILES>
CC(C)(N)Cc1ccccc1

$$$$
Molecule 6_metabolite 4
  CDK     0516241031

 27 27  0  0  0  0  0  0  0  0999 V2000
    6.5736    0.3687    0.0000 C   0  0  0  0  0  0  0  0  0  0  0  0
    7.8728    1.1185    0.0000 H   0  0  0  0  0  0  0  0  0  0  0  0
    6.0608    1.7784    0.0000 H   0  0  0  0  0  0  0  0  0  0  0  0
    5.0964    0.1085    0.0000 H   0  0  0  0  0  0  0  0  0  0  0  0
    6.5734   -1.1313    0.0000 C   0  0  0  0  0  0  0  0  0  0  0  0
    7.0862   -2.5409    0.0000 C   0  0  0  0  0  0  0  0  0  0  0  0
    8.5634   -2.8016    0.0000 H   0  0  0  0  0  0  0  0  0  0  0  0
    5.6089   -2.8011    0.0000 H   0  0  0  0  0  0  0  0  0  0  0  0
    7.0859   -4.0409    0.0000 H   0  0  0  0  0  0  0  0  0  0  0  0
    4.8585   -2.1210    0.0000 C   0  0  0  0  0  0  0  0  0  0  0  0
    6.1310   -3.6380    0.0000 H   0  0  0  0  0  0  0  0  0  0  0  0
    3.8941   -3.2699    0.0000 H   0  0  0  0  0  0  0  0  0  0  0  0
    3.5596   -1.3708    0.0000 C   0  0  0  0  0  0  0  0  0  0  0  0
    3.5596    0.1300    0.0000 C   0  0  0  0  0  0  0  0  0  0  0  0
    4.8576    0.8818    0.0000 H   0  0  0  0  0  0  0  0  0  0  0  0
    2.2653    0.8726    0.0000 C   0  0  0  0  0  0  0  0  0  0  0  0
    2.2635    2.3726    0.0000 H   0  0  0  0  0  0  0  0  0  0  0  0
    0.9660    0.1230    0.0000 C   0  0  0  0  0  0  0  0  0  0  0  0
   -0.3316    0.8754    0.0000 H   0  0  0  0  0  0  0  0  0  0  0  0
    0.9610   -1.3691    0.0000 C   0  0  0  0  0  0  0  0  0  0  0  0
    2.2603   -2.1204    0.0000 C   0  0  0  0  0  0  0  0  0  0  0  0
    2.2596   -3.6204    0.0000 H   0  0  0  0  0  0  0  0  0  0  0  0
   -0.3395   -2.1165    0.0000 O   0  0  0  0  0  0  0  0  0  0  0  0
   -1.6371   -1.3639    0.0000 H   0  0  0  0  0  0  0  0  0  0  0  0
    8.0506   -0.8710    0.0000 N   0  0  0  0  0  0  0  0  0  0  0  0
    8.5639    0.5384    0.0000 H   0  0  0  0  0  0  0  0  0  0  0  0
    9.0146   -2.0203    0.0000 H   0  0  0  0  0  0  0  0  0  0  0  0
  1  2  1  0  0  0  0 
  1  3  1  0  0  0  0 
  1  4  1  0  0  0  0 
  1  5  1  0  0  0  0 
  5  6  1  0  0  0  0 
  6  7  1  0  0  0  0 
  6  8  1  0  0  0  0 
  6  9  1  0  0  0  0 
  5 10  1  0  0  0  0 
 10 11  1  0  0  0  0 
 10 12  1  0  0  0  0 
 10 13  1  0  0  0  0 
 13 14  2  0  0  0  0 
 14 15  1  0  0  0  0 
 14 16  1  0  0  0  0 
 16 17  1  0  0  0  0 
 16 18  2  0  0  0  0 
 18 19  1  0  0  0  0 
 18 20  1  0  0  0  0 
 20 21  2  0  0  0  0 
 13 21  1  0  0  0  0 
 21 22  1  0  0  0  0 
 20 23  1  0  0  0  0 
 23 24  1  0  0  0  0 
  5 25  1  0  0  0  0 
 25 26  1  0  0  0  0 
 25 27  1  0  0  0  0 
M  END
> <Rank>
3

> <Priority_score>
0.5439230428610401

> <Reaction_type>
aromatic_hydroxylation_(meta_to_carbon)

> <Parent_ID>
6

> <Parent_InChI>
InChI=1S/C10H15N/c1-10(2,11)8-9-6-4-3-5-7-9/h3-7H,8,11H2,1-2H3

> <Parent_SMILES>
CC(C)(N)Cc1ccccc1

$$$$
Molecule 6_metabolite 5
  CDK     0516241031

 27 27  0  0  0  0  0  0  0  0999 V2000
    6.5187    0.0716    0.0000 C   0  0  0  0  0  0  0  0  0  0  0  0
    7.8140   -0.6848    0.0000 H   0  0  0  0  0  0  0  0  0  0  0  0
    5.0428    0.3393    0.0000 H   0  0  0  0  0  0  0  0  0  0  0  0
    5.9987   -1.3354    0.0000 H   0  0  0  0  0  0  0  0  0  0  0  0
    6.5261    1.5716    0.0000 C   0  0  0  0  0  0  0  0  0  0  0  0
    8.0020    1.3038    0.0000 C   0  0  0  0  0  0  0  0  0  0  0  0
    8.5080   -0.1082    0.0000 H   0  0  0  0  0  0  0  0  0  0  0  0
    9.4804    1.5570    0.0000 H   0  0  0  0  0  0  0  0  0  0  0  0
    8.0093    2.8038    0.0000 H   0  0  0  0  0  0  0  0  0  0  0  0
    4.8162    2.5700    0.0000 C   0  0  0  0  0  0  0  0  0  0  0  0
    3.8577    3.7238    0.0000 H   0  0  0  0  0  0  0  0  0  0  0  0
    5.7860    3.7143    0.0000 H   0  0  0  0  0  0  0  0  0  0  0  0
    3.5135    1.8264    0.0000 C   0  0  0  0  0  0  0  0  0  0  0  0
    2.2219    2.5892    0.0000 C   0  0  0  0  0  0  0  0  0  0  0  0
    2.2441    4.0890    0.0000 H   0  0  0  0  0  0  0  0  0  0  0  0
    0.9303    1.8770    0.0000 C   0  0  0  0  0  0  0  0  0  0  0  0
   -0.3511    2.6567    0.0000 H   0  0  0  0  0  0  0  0  0  0  0  0
    0.8896    0.3332    0.0000 C   0  0  0  0  0  0  0  0  0  0  0  0
    2.1812   -0.4296    0.0000 C   0  0  0  0  0  0  0  0  0  0  0  0
    2.1788   -1.9296    0.0000 H   0  0  0  0  0  0  0  0  0  0  0  0
    3.5135    0.3515    0.0000 C   0  0  0  0  0  0  0  0  0  0  0  0
    4.8150   -0.3942    0.0000 H   0  0  0  0  0  0  0  0  0  0  0  0
   -0.4228   -0.3932    0.0000 O   0  0  0  0  0  0  0  0  0  0  0  0
   -1.7080    0.3802    0.0000 H   0  0  0  0  0  0  0  0  0  0  0  0
    7.2124    3.4288    0.0000 N   0  0  0  0  0  0  0  0  0  0  0  0
    8.6909    3.6820    0.0000 H   0  0  0  0  0  0  0  0  0  0  0  0
    6.2539    4.5826    0.0000 H   0  0  0  0  0  0  0  0  0  0  0  0
  1  2  1  0  0  0  0 
  1  3  1  0  0  0  0 
  1  4  1  0  0  0  0 
  1  5  1  0  0  0  0 
  5  6  1  0  0  0  0 
  6  7  1  0  0  0  0 
  6  8  1  0  0  0  0 
  6  9  1  0  0  0  0 
  5 10  1  0  0  0  0 
 10 11  1  0  0  0  0 
 10 12  1  0  0  0  0 
 10 13  1  0  0  0  0 
 13 14  2  0  0  0  0 
 14 15  1  0  0  0  0 
 14 16  1  0  0  0  0 
 16 17  1  0  0  0  0 
 16 18  2  0  0  0  0 
 18 19  1  0  0  0  0 
 19 20  1  0  0  0  0 
 19 21  2  0  0  0  0 
 13 21  1  0  0  0  0 
 21 22  1  0  0  0  0 
 18 23  1  0  0  0  0 
 23 24  1  0  0  0  0 
  5 25  1  0  0  0  0 
 25 26  1  0  0  0  0 
 25 27  1  0  0  0  0 
M  END
> <Rank>
3

> <Priority_score>
0.5439230428610401

> <Reaction_type>
aromatic_hydroxylation_(para_to_carbon)

> <Parent_ID>
6

> <Parent_InChI>
InChI=1S/C10H15N/c1-10(2,11)8-9-6-4-3-5-7-9/h3-7H,8,11H2,1-2H3

> <Parent_SMILES>
CC(C)(N)Cc1ccccc1

$$$$
Molecule 6_metabolite 6
  CDK     0516241031

 46 47  0  0  0  0  0  0  0  0999 V2000
    6.4938   -2.1896    0.0000 C   0  0  0  0  0  0  0  0  0  0  0  0
    7.0071   -0.7802    0.0000 H   0  0  0  0  0  0  0  0  0  0  0  0
    7.9710   -2.4504    0.0000 H   0  0  0  0  0  0  0  0  0  0  0  0
    6.4935   -3.6896    0.0000 H   0  0  0  0  0  0  0  0  0  0  0  0
    5.0165   -2.4498    0.0000 C   0  0  0  0  0  0  0  0  0  0  0  0
    5.0170   -0.4698    0.0000 C   0  0  0  0  0  0  0  0  0  0  0  0
    7.1476    0.7598    0.0000 H   0  0  0  0  0  0  0  0  0  0  0  0
    4.5042    0.9399    0.0000 H   0  0  0  0  0  0  0  0  0  0  0  0
    3.5397   -0.7299    0.0000 H   0  0  0  0  0  0  0  0  0  0  0  0
    5.5293   -3.8594    0.0000 C   0  0  0  0  0  0  0  0  0  0  0  0
    4.0520   -4.1196    0.0000 H   0  0  0  0  0  0  0  0  0  0  0  0
    5.5289   -5.3594    0.0000 H   0  0  0  0  0  0  0  0  0  0  0  0
    7.4791   -4.2036    0.0000 C   0  0  0  0  0  0  0  0  0  0  0  0
    8.4437   -3.0538    0.0000 C   0  0  0  0  0  0  0  0  0  0  0  0
    7.9308   -1.6443    0.0000 H   0  0  0  0  0  0  0  0  0  0  0  0
    9.9209   -3.3146    0.0000 C   0  0  0  0  0  0  0  0  0  0  0  0
   10.8855   -2.1659    0.0000 H   0  0  0  0  0  0  0  0  0  0  0  0
   10.4334   -4.7252    0.0000 C   0  0  0  0  0  0  0  0  0  0  0  0
   11.9106   -4.9860    0.0000 H   0  0  0  0  0  0  0  0  0  0  0  0
    9.4688   -5.8750    0.0000 C   0  0  0  0  0  0  0  0  0  0  0  0
    9.9818   -7.2846    0.0000 H   0  0  0  0  0  0  0  0  0  0  0  0
    7.9917   -5.6142    0.0000 C   0  0  0  0  0  0  0  0  0  0  0  0
    7.0271   -6.7629    0.0000 H   0  0  0  0  0  0  0  0  0  0  0  0
    3.0667   -2.1055    0.0000 N   0  0  0  0  0  0  0  0  0  0  0  0
    2.5540   -0.6959    0.0000 H   0  0  0  0  0  0  0  0  0  0  0  0
    1.7937   -3.6220    0.0000 C   0  0  0  0  0  0  0  0  0  0  0  0
    3.0924   -4.3724    0.0000 H   0  0  0  0  0  0  0  0  0  0  0  0
    1.2800   -5.0313    0.0000 C   0  0  0  0  0  0  0  0  0  0  0  0
    2.7571   -5.2926    0.0000 H   0  0  0  0  0  0  0  0  0  0  0  0
   -0.1982   -5.2908    0.0000 C   0  0  0  0  0  0  0  0  0  0  0  0
    0.3141   -6.7007    0.0000 H   0  0  0  0  0  0  0  0  0  0  0  0
   -1.1628   -4.1410    0.0000 C   0  0  0  0  0  0  0  0  0  0  0  0
   -2.1272   -5.2899    0.0000 H   0  0  0  0  0  0  0  0  0  0  0  0
   -0.6492   -2.7317    0.0000 C   0  0  0  0  0  0  0  0  0  0  0  0
   -2.1262   -2.4705    0.0000 H   0  0  0  0  0  0  0  0  0  0  0  0
   -0.6482   -1.2317    0.0000 C   0  0  0  0  0  0  0  0  0  0  0  0
    0.6513   -0.4825    0.0000 O   0  0  0  0  0  0  0  0  0  0  0  0
   -1.9468   -0.4809    0.0000 O   0  0  0  0  0  0  0  0  0  0  0  0
   -3.2463   -1.2300    0.0000 H   0  0  0  0  0  0  0  0  0  0  0  0
    0.8291   -2.4722    0.0000 O   0  0  0  0  0  0  0  0  0  0  0  0
   -2.4616   -3.3906    0.0000 O   0  0  0  0  0  0  0  0  0  0  0  0
   -3.7609   -4.1402    0.0000 H   0  0  0  0  0  0  0  0  0  0  0  0
   -1.4975   -6.0404    0.0000 O   0  0  0  0  0  0  0  0  0  0  0  0
   -1.4980   -7.5404    0.0000 H   0  0  0  0  0  0  0  0  0  0  0  0
    1.2791   -6.5313    0.0000 O   0  0  0  0  0  0  0  0  0  0  0  0
    2.5776   -7.2822    0.0000 H   0  0  0  0  0  0  0  0  0  0  0  0
  1  2  1  0  0  0  0 
  1  3  1  0  0  0  0 
  1  4  1  0  0  0  0 
  1  5  1  0  0  0  0 
  5  6  1  0  0  0  0 
  6  7  1  0  0  0  0 
  6  8  1  0  0  0  0 
  6  9  1  0  0  0  0 
  5 10  1  0  0  0  0 
 10 11  1  0  0  0  0 
 10 12  1  0  0  0  0 
 10 13  1  0  0  0  0 
 13 14  2  0  0  0  0 
 14 15  1  0  0  0  0 
 14 16  1  0  0  0  0 
 16 17  1  0  0  0  0 
 16 18  2  0  0  0  0 
 18 19  1  0  0  0  0 
 18 20  1  0  0  0  0 
 20 21  1  0  0  0  0 
 20 22  2  0  0  0  0 
 13 22  1  0  0  0  0 
 22 23  1  0  0  0  0 
  5 24  1  0  0  0  0 
 24 25  1  0  0  0  0 
 24 26  1  0  0  0  0 
 26 27  1  0  0  0  0 
 26 28  1  0  0  0  0 
 28 29  1  0  0  0  0 
 28 30  1  0  0  0  0 
 30 31  1  0  0  0  0 
 30 32  1  0  0  0  0 
 32 33  1  0  0  0  0 
 32 34  1  0  0  0  0 
 34 35  1  0  0  0  0 
 34 36  1  0  0  0  0 
 36 37  2  0  0  0  0 
 36 38  1  0  0  0  0 
 38 39  1  0  0  0  0 
 34 40  1  0  0  0  0 
 26 40  1  0  0  0  0 
 32 41  1  0  0  0  0 
 41 42  1  0  0  0  0 
 30 43  1  0  0  0  0 
 43 44  1  0  0  0  0 
 28 45  1  0  0  0  0 
 45 46  1  0  0  0  0 
M  END
> <Rank>
6

> <Priority_score>
0.484

> <Reaction_type>
N-glucuronidation_(aliphatic_NH2)

> <Parent_ID>
6

> <Parent_InChI>
InChI=1S/C10H15N/c1-10(2,11)8-9-6-4-3-5-7-9/h3-7H,8,11H2,1-2H3

> <Parent_SMILES>
CC(C)(N)Cc1ccccc1

$$$$
Molecule 6_metabolite 7
  CDK     0516241031

 27 27  0  0  0  0  0  0  0  0999 V2000
    1.3820    1.6875    0.0000 C   0  0  0  0  0  0  0  0  0  0  0  0
    2.1320    0.3885    0.0000 H   0  0  0  0  0  0  0  0  0  0  0  0
    0.2329    2.6517    0.0000 H   0  0  0  0  0  0  0  0  0  0  0  0
    0.2329    0.7233    0.0000 H   0  0  0  0  0  0  0  0  0  0  0  0
    2.1320    2.9865    0.0000 C   0  0  0  0  0  0  0  0  0  0  0  0
    3.2811    2.0224    0.0000 C   0  0  0  0  0  0  0  0  0  0  0  0
    3.0206    0.5452    0.0000 H   0  0  0  0  0  0  0  0  0  0  0  0
    4.6906    1.5093    0.0000 H   0  0  0  0  0  0  0  0  0  0  0  0
    4.0311    3.3214    0.0000 H   0  0  0  0  0  0  0  0  0  0  0  0
    1.1420    4.7013    0.0000 C   0  0  0  0  0  0  0  0  0  0  0  0
    0.8815    6.1785    0.0000 H   0  0  0  0  0  0  0  0  0  0  0  0
   -0.3580    4.7013    0.0000 C   0  0  0  0  0  0  0  0  0  0  0  0
   -1.1080    6.0013    0.0000 C   0  0  0  0  0  0  0  0  0  0  0  0
   -0.3578    7.3002    0.0000 H   0  0  0  0  0  0  0  0  0  0  0  0
   -2.6080    6.0013    0.0000 C   0  0  0  0  0  0  0  0  0  0  0  0
   -3.3582    7.3002    0.0000 H   0  0  0  0  0  0  0  0  0  0  0  0
   -3.3580    4.7013    0.0000 C   0  0  0  0  0  0  0  0  0  0  0  0
   -4.8580    4.7013    0.0000 H   0  0  0  0  0  0  0  0  0  0  0  0
   -2.6080    3.4013    0.0000 C   0  0  0  0  0  0  0  0  0  0  0  0
   -3.3582    2.1024    0.0000 H   0  0  0  0  0  0  0  0  0  0  0  0
   -1.1080    3.4013    0.0000 C   0  0  0  0  0  0  0  0  0  0  0  0
   -0.3578    2.1024    0.0000 H   0  0  0  0  0  0  0  0  0  0  0  0
    2.5515    5.2143    0.0000 O   0  0  0  0  0  0  0  0  0  0  0  0
    2.8120    6.6915    0.0000 H   0  0  0  0  0  0  0  0  0  0  0  0
    3.6488    4.2593    0.0000 N   0  0  0  0  0  0  0  0  0  0  0  0
    5.0583    3.7462    0.0000 H   0  0  0  0  0  0  0  0  0  0  0  0
    3.3883    5.7365    0.0000 H   0  0  0  0  0  0  0  0  0  0  0  0
  1  2  1  0  0  0  0 
  1  3  1  0  0  0  0 
  1  4  1  0  0  0  0 
  1  5  1  0  0  0  0 
  5  6  1  0  0  0  0 
  6  7  1  0  0  0  0 
  6  8  1  0  0  0  0 
  6  9  1  0  0  0  0 
  5 10  1  0  0  0  0 
 10 11  1  0  0  0  0 
 10 12  1  0  0  0  0 
 12 13  2  0  0  0  0 
 13 14  1  0  0  0  0 
 13 15  1  0  0  0  0 
 15 16  1  0  0  0  0 
 15 17  2  0  0  0  0 
 17 18  1  0  0  0  0 
 17 19  1  0  0  0  0 
 19 20  1  0  0  0  0 
 19 21  2  0  0  0  0 
 12 21  1  0  0  0  0 
 21 22  1  0  0  0  0 
 10 23  1  0  0  0  0 
 23 24  1  0  0  0  0 
  5 25  1  0  0  0  0 
 25 26  1  0  0  0  0 
 25 27  1  0  0  0  0 
M  END
> <Rank>
7

> <Priority_score>
0.05555763604447045

> <Reaction_type>
benzylic_hydroxylation_(c-CH2-CR)

> <Parent_ID>
6

> <Parent_InChI>
InChI=1S/C10H15N/c1-10(2,11)8-9-6-4-3-5-7-9/h3-7H,8,11H2,1-2H3

> <Parent_SMILES>
CC(C)(N)Cc1ccccc1

$$$$
Molecule 6_metabolite 8
  CDK     0516241031

 27 27  0  0  0  0  0  0  0  0999 V2000
   -1.2049    1.3336    0.0000 C   0  0  0  0  0  0  0  0  0  0  0  0
   -2.6821    1.5941    0.0000 H   0  0  0  0  0  0  0  0  0  0  0  0
   -1.7179   -0.0759    0.0000 H   0  0  0  0  0  0  0  0  0  0  0  0
    0.0941    0.5836    0.0000 H   0  0  0  0  0  0  0  0  0  0  0  0
   -0.2407    2.4827    0.0000 C   0  0  0  0  0  0  0  0  0  0  0  0
    1.4740    3.4727    0.0000 C   0  0  0  0  0  0  0  0  0  0  0  0
    2.9512    3.7332    0.0000 H   0  0  0  0  0  0  0  0  0  0  0  0
    1.9870    2.0631    0.0000 H   0  0  0  0  0  0  0  0  0  0  0  0
    1.4740    4.9727    0.0000 C   0  0  0  0  0  0  0  0  0  0  0  0
    2.7740    5.7227    0.0000 C   0  0  0  0  0  0  0  0  0  0  0  0
    4.0729    4.9725    0.0000 H   0  0  0  0  0  0  0  0  0  0  0  0
    2.7740    7.2227    0.0000 C   0  0  0  0  0  0  0  0  0  0  0  0
    4.0729    7.9729    0.0000 H   0  0  0  0  0  0  0  0  0  0  0  0
    1.4740    7.9727    0.0000 C   0  0  0  0  0  0  0  0  0  0  0  0
    1.4740    9.4727    0.0000 H   0  0  0  0  0  0  0  0  0  0  0  0
    0.1740    7.2227    0.0000 C   0  0  0  0  0  0  0  0  0  0  0  0
   -1.1249    7.9729    0.0000 H   0  0  0  0  0  0  0  0  0  0  0  0
    0.1740    5.7227    0.0000 C   0  0  0  0  0  0  0  0  0  0  0  0
   -1.1249    4.9725    0.0000 H   0  0  0  0  0  0  0  0  0  0  0  0
   -1.5398    3.2327    0.0000 C   0  0  0  0  0  0  0  0  0  0  0  0
   -0.5756    4.3817    0.0000 H   0  0  0  0  0  0  0  0  0  0  0  0
   -2.5039    4.3817    0.0000 H   0  0  0  0  0  0  0  0  0  0  0  0
   -2.8388    2.4827    0.0000 O   0  0  0  0  0  0  0  0  0  0  0  0
   -4.1378    3.2327    0.0000 H   0  0  0  0  0  0  0  0  0  0  0  0
    1.0320    0.9659    0.0000 N   0  0  0  0  0  0  0  0  0  0  0  0
    0.5190   -0.4436    0.0000 H   0  0  0  0  0  0  0  0  0  0  0  0
    2.5092    1.2264    0.0000 H   0  0  0  0  0  0  0  0  0  0  0  0
  1  2  1  0  0  0  0 
  1  3  1  0  0  0  0 
  1  4  1  0  0  0  0 
  1  5  1  0  0  0  0 
  5  6  1  0  0  0  0 
  6  7  1  0  0  0  0 
  6  8  1  0  0  0  0 
  6  9  1  0  0  0  0 
  9 10  2  0  0  0  0 
 10 11  1  0  0  0  0 
 10 12  1  0  0  0  0 
 12 13  1  0  0  0  0 
 12 14  2  0  0  0  0 
 14 15  1  0  0  0  0 
 14 16  1  0  0  0  0 
 16 17  1  0  0  0  0 
 16 18  2  0  0  0  0 
  9 18  1  0  0  0  0 
 18 19  1  0  0  0  0 
  5 20  1  0  0  0  0 
 20 21  1  0  0  0  0 
 20 22  1  0  0  0  0 
 20 23  1  0  0  0  0 
 23 24  1  0  0  0  0 
  5 25  1  0  0  0  0 
 25 26  1  0  0  0  0 
 25 27  1  0  0  0  0 
M  END
> <Rank>
8

> <Priority_score>
0.024

> <Reaction_type>
aliphatic_hydroxylation_(primary_carbon_next_to_quart_carbon)

> <Parent_ID>
6

> <Parent_InChI>
InChI=1S/C10H15N/c1-10(2,11)8-9-6-4-3-5-7-9/h3-7H,8,11H2,1-2H3

> <Parent_SMILES>
CC(C)(N)Cc1ccccc1

$$$$
Molecule 6_metabolite 9
  CDK     0516241031

 26 26  0  0  0  0  0  0  0  0999 V2000
   -3.0615    1.4557    0.0000 C   0  0  0  0  0  0  0  0  0  0  0  0
   -4.5387    1.7162    0.0000 H   0  0  0  0  0  0  0  0  0  0  0  0
   -3.5745    0.0462    0.0000 H   0  0  0  0  0  0  0  0  0  0  0  0
   -1.7625    0.7057    0.0000 H   0  0  0  0  0  0  0  0  0  0  0  0
   -2.0973    2.6048    0.0000 C   0  0  0  0  0  0  0  0  0  0  0  0
   -0.7983    3.3548    0.0000 C   0  0  0  0  0  0  0  0  0  0  0  0
    0.1659    4.5039    0.0000 H   0  0  0  0  0  0  0  0  0  0  0  0
   -1.7625    4.5039    0.0000 H   0  0  0  0  0  0  0  0  0  0  0  0
    0.9164    2.3648    0.0000 C   0  0  0  0  0  0  0  0  0  0  0  0
    2.2160    3.1156    0.0000 C   0  0  0  0  0  0  0  0  0  0  0  0
    2.2157    4.6156    0.0000 H   0  0  0  0  0  0  0  0  0  0  0  0
    3.5150    2.3656    0.0000 C   0  0  0  0  0  0  0  0  0  0  0  0
    4.8142    3.1154    0.0000 H   0  0  0  0  0  0  0  0  0  0  0  0
    3.5145    0.8648    0.0000 C   0  0  0  0  0  0  0  0  0  0  0  0
    4.8136    0.1148    0.0000 H   0  0  0  0  0  0  0  0  0  0  0  0
    2.2150    0.1140    0.0000 C   0  0  0  0  0  0  0  0  0  0  0  0
    2.2152   -1.3860    0.0000 H   0  0  0  0  0  0  0  0  0  0  0  0
    0.9160    0.8640    0.0000 C   0  0  0  0  0  0  0  0  0  0  0  0
   -0.3832    0.1142    0.0000 H   0  0  0  0  0  0  0  0  0  0  0  0
   -3.3964    3.3548    0.0000 C   0  0  0  0  0  0  0  0  0  0  0  0
   -3.3964    4.8548    0.0000 O   0  0  0  0  0  0  0  0  0  0  0  0
   -4.6954    2.6048    0.0000 O   0  0  0  0  0  0  0  0  0  0  0  0
   -5.9944    3.3548    0.0000 H   0  0  0  0  0  0  0  0  0  0  0  0
   -1.1331    1.4557    0.0000 N   0  0  0  0  0  0  0  0  0  0  0  0
   -1.8103   -0.4049    0.0000 H   0  0  0  0  0  0  0  0  0  0  0  0
    0.3441    1.7162    0.0000 H   0  0  0  0  0  0  0  0  0  0  0  0
  1  2  1  0  0  0  0 
  1  3  1  0  0  0  0 
  1  4  1  0  0  0  0 
  1  5  1  0  0  0  0 
  5  6  1  0  0  0  0 
  6  7  1  0  0  0  0 
  6  8  1  0  0  0  0 
  6  9  1  0  0  0  0 
  9 10  2  0  0  0  0 
 10 11  1  0  0  0  0 
 10 12  1  0  0  0  0 
 12 13  1  0  0  0  0 
 12 14  2  0  0  0  0 
 14 15  1  0  0  0  0 
 14 16  1  0  0  0  0 
 16 17  1  0  0  0  0 
 16 18  2  0  0  0  0 
  9 18  1  0  0  0  0 
 18 19  1  0  0  0  0 
  5 20  1  0  0  0  0 
 20 21  2  0  0  0  0 
 20 22  1  0  0  0  0 
 22 23  1  0  0  0  0 
  5 24  1  0  0  0  0 
 24 25  1  0  0  0  0 
 24 26  1  0  0  0  0 
M  END
> <Rank>
8

> <Priority_score>
0.024

> <Reaction_type>
carboxylation_(primary_carbon_next_to_quart_carbon)

> <Parent_ID>
6

> <Parent_InChI>
InChI=1S/C10H15N/c1-10(2,11)8-9-6-4-3-5-7-9/h3-7H,8,11H2,1-2H3

> <Parent_SMILES>
CC(C)(N)Cc1ccccc1

$$$$
Molecule 6_metabolite 10
  CDK     0516241031

 27 27  0  0  0  0  0  0  0  0999 V2000
    4.9935    4.8749    0.0000 C   0  0  0  0  0  0  0  0  0  0  0  0
    6.2925    5.6251    0.0000 H   0  0  0  0  0  0  0  0  0  0  0  0
    4.4803    6.2844    0.0000 H   0  0  0  0  0  0  0  0  0  0  0  0
    3.5164    4.6142    0.0000 H   0  0  0  0  0  0  0  0  0  0  0  0
    4.9938    3.3749    0.0000 C   0  0  0  0  0  0  0  0  0  0  0  0
    5.5070    1.9655    0.0000 C   0  0  0  0  0  0  0  0  0  0  0  0
    6.9843    1.7052    0.0000 H   0  0  0  0  0  0  0  0  0  0  0  0
    4.0299    1.7047    0.0000 H   0  0  0  0  0  0  0  0  0  0  0  0
    5.5073    0.4655    0.0000 H   0  0  0  0  0  0  0  0  0  0  0  0
    3.2792    2.3846    0.0000 C   0  0  0  0  0  0  0  0  0  0  0  0
    4.5522    0.8681    0.0000 H   0  0  0  0  0  0  0  0  0  0  0  0
    2.3152    1.2354    0.0000 H   0  0  0  0  0  0  0  0  0  0  0  0
    1.9801    3.1344    0.0000 C   0  0  0  0  0  0  0  0  0  0  0  0
    0.6810    2.3844    0.0000 C   0  0  0  0  0  0  0  0  0  0  0  0
   -0.6185    3.1353    0.0000 C   0  0  0  0  0  0  0  0  0  0  0  0
   -1.9175    2.3853    0.0000 H   0  0  0  0  0  0  0  0  0  0  0  0
   -0.6190    4.6361    0.0000 C   0  0  0  0  0  0  0  0  0  0  0  0
   -1.9181    5.3859    0.0000 H   0  0  0  0  0  0  0  0  0  0  0  0
    0.6801    5.3861    0.0000 C   0  0  0  0  0  0  0  0  0  0  0  0
    0.6803    6.8861    0.0000 H   0  0  0  0  0  0  0  0  0  0  0  0
    1.9796    4.6353    0.0000 C   0  0  0  0  0  0  0  0  0  0  0  0
    3.2786    5.3853    0.0000 H   0  0  0  0  0  0  0  0  0  0  0  0
    0.6808    0.8844    0.0000 O   0  0  0  0  0  0  0  0  0  0  0  0
   -0.6184    0.1346    0.0000 H   0  0  0  0  0  0  0  0  0  0  0  0
    6.4710    3.6356    0.0000 N   0  0  0  0  0  0  0  0  0  0  0  0
    6.9838    5.0452    0.0000 H   0  0  0  0  0  0  0  0  0  0  0  0
    7.4353    2.4867    0.0000 H   0  0  0  0  0  0  0  0  0  0  0  0
  1  2  1  0  0  0  0 
  1  3  1  0  0  0  0 
  1  4  1  0  0  0  0 
  1  5  1  0  0  0  0 
  5  6  1  0  0  0  0 
  6  7  1  0  0  0  0 
  6  8  1  0  0  0  0 
  6  9  1  0  0  0  0 
  5 10  1  0  0  0  0 
 10 11  1  0  0  0  0 
 10 12  1  0  0  0  0 
 10 13  1  0  0  0  0 
 13 14  2  0  0  0  0 
 14 15  1  0  0  0  0 
 15 16  1  0  0  0  0 
 15 17  2  0  0  0  0 
 17 18  1  0  0  0  0 
 17 19  1  0  0  0  0 
 19 20  1  0  0  0  0 
 19 21  2  0  0  0  0 
 13 21  1  0  0  0  0 
 21 22  1  0  0  0  0 
 14 23  1  0  0  0  0 
 23 24  1  0  0  0  0 
  5 25  1  0  0  0  0 
 25 26  1  0  0  0  0 
 25 27  1  0  0  0  0 
M  END
> <Rank>
10

> <Priority_score>
0.004

> <Reaction_type>
aromatic hydroxylation

> <Parent_ID>
6

> <Parent_InChI>
InChI=1S/C10H15N/c1-10(2,11)8-9-6-4-3-5-7-9/h3-7H,8,11H2,1-2H3

> <Parent_SMILES>
CC(C)(N)Cc1ccccc1

$$$$
Molecule 7
  CDK     0516241031

 41 45  0  0  0  0  0  0  0  0999 V2000
   -1.3018   -3.0176    0.0000 C   0  0  0  0  0  0  0  0  0  0  0  0
   -0.0003   -3.7635    0.0000 C   0  0  0  0  0  0  0  0  0  0  0  0
    1.4777   -4.0192    0.0000 C   0  0  0  0  0  0  0  0  0  0  0  0
    0.0044   -5.2635    0.0000 C   0  0  0  0  0  0  0  0  0  0  0  0
    1.3056   -6.0115    0.0000 C   0  0  0  0  0  0  0  0  0  0  0  0
    1.3079   -7.5115    0.0000 C   0  0  0  0  0  0  0  0  0  0  0  0
    0.0090   -8.2635    0.0000 C   0  0  0  0  0  0  0  0  0  0  0  0
   -1.2821   -7.5154    0.0000 C   0  0  0  0  0  0  0  0  0  0  0  0
   -1.2844   -6.0154    0.0000 C   0  0  0  0  0  0  0  0  0  0  0  0
    2.6034   -5.2593    0.0000 C   0  0  0  0  0  0  0  0  0  0  0  0
    3.9037   -6.0071    0.0000 C   0  0  0  0  0  0  0  0  0  0  0  0
    5.2014   -5.2550    0.0000 C   0  0  2  0  0  0  0  0  0  0  0  0
    5.1989   -3.7550    0.0000 C   0  0  0  0  0  0  0  0  0  0  0  0
    6.4964   -3.0006    0.0000 C   0  0  0  0  0  0  0  0  0  0  0  0
    6.4914   -1.5006    0.0000 C   0  0  0  0  0  0  0  0  0  0  0  0
    5.1889   -0.7550    0.0000 C   0  0  0  0  0  0  0  0  0  0  0  0
    3.9014   -1.5093    0.0000 C   0  0  0  0  0  0  0  0  0  0  0  0
    3.9064   -3.0093    0.0000 C   0  0  0  0  0  0  0  0  0  0  0  0
    7.7878   -0.7461    0.0000 C   0  0  0  0  0  0  0  0  0  0  0  0
    9.0894   -1.4915    0.0000 C   0  0  0  0  0  0  0  0  0  0  0  0
   10.3858   -0.7370    0.0000 C   0  0  0  0  0  0  0  0  0  0  0  0
   11.6883   -1.4826    0.0000 N   0  0  0  0  0  0  0  0  0  0  0  0
   12.9858   -0.7283    0.0000 C   0  0  0  0  0  0  0  0  0  0  0  0
   14.2883   -1.4739    0.0000 C   0  0  0  0  0  0  0  0  0  0  0  0
   15.5858   -0.7195    0.0000 C   0  0  0  0  0  0  0  0  0  0  0  0
   15.5808    0.7804    0.0000 C   0  0  0  0  0  0  0  0  0  0  0  0
   14.2783    1.5261    0.0000 C   0  0  0  0  0  0  0  0  0  0  0  0
   12.9808    0.7717    0.0000 C   0  0  0  0  0  0  0  0  0  0  0  0
   11.6783    1.5174    0.0000 C   0  0  0  0  0  0  0  0  0  0  0  0
   10.3808    0.7630    0.0000 C   0  0  0  0  0  0  0  0  0  0  0  0
   16.8872   -1.4654    0.0000 Cl  0  0  0  0  0  0  0  0  0  0  0  0
    6.5017   -6.0028    0.0000 S   0  0  0  0  0  0  0  0  0  0  0  0
    6.5042   -7.5028    0.0000 C   0  0  0  0  0  0  0  0  0  0  0  0
    7.8045   -8.2506    0.0000 C   0  0  0  0  0  0  0  0  0  0  0  0
    8.7672   -7.0992    0.0000 C   0  0  0  0  0  0  0  0  0  0  0  0
    9.2821   -8.5089    0.0000 C   0  0  0  0  0  0  0  0  0  0  0  0
    7.2937   -9.6610    0.0000 C   0  0  0  0  0  0  0  0  0  0  0  0
    8.2597  -10.8085    0.0000 C   0  0  0  0  0  0  0  0  0  0  0  0
    9.7365  -10.5457    0.0000 O   0  0  0  0  0  0  0  0  0  0  0  0
    7.7489  -12.2189    0.0000 O   0  0  0  0  0  0  0  0  0  0  0  0
    0.5082   -2.3523    0.0000 O   0  0  0  0  0  0  0  0  0  0  0  0
  1  2  1  0  0  0  0 
  2  3  1  0  0  0  0 
  2  4  1  0  0  0  0 
  4  5  2  0  0  0  0 
  5  6  1  0  0  0  0 
  6  7  2  0  0  0  0 
  7  8  1  0  0  0  0 
  8  9  2  0  0  0  0 
  4  9  1  0  0  0  0 
  5 10  1  0  0  0  0 
 10 11  1  0  0  0  0 
 11 12  1  0  0  0  0 
 12 13  1  0  0  0  0 
 13 14  2  0  0  0  0 
 14 15  1  0  0  0  0 
 15 16  2  0  0  0  0 
 16 17  1  0  0  0  0 
 17 18  2  0  0  0  0 
 13 18  1  0  0  0  0 
 15 19  1  0  0  0  0 
 19 20  2  0  0  0  0 
 20 21  1  0  0  0  0 
 21 22  2  0  0  0  0 
 22 23  1  0  0  0  0 
 23 24  2  0  0  0  0 
 24 25  1  0  0  0  0 
 25 26  2  0  0  0  0 
 26 27  1  0  0  0  0 
 27 28  2  0  0  0  0 
 23 28  1  0  0  0  0 
 28 29  1  0  0  0  0 
 29 30  2  0  0  0  0 
 21 30  1  0  0  0  0 
 25 31  1  0  0  0  0 
 12 32  1  6  0  0  0 
 32 33  1  0  0  0  0 
 33 34  1  0  0  0  0 
 34 35  1  0  0  0  0 
 35 36  1  0  0  0  0 
 34 36  1  0  0  0  0 
 34 37  1  0  0  0  0 
 37 38  1  0  0  0  0 
 38 39  2  0  0  0  0 
 38 40  1  0  0  0  0 
  2 41  1  0  0  0  0 
M  END
> <SMILES>
CC(C)(O)c1ccccc1CC[C@@H](SCC1(CC(=O)O)CC1)c1cccc(/C=C/c2ccc3ccc(Cl)cc3n2)c1

$$$$
Molecule 7_metabolite 1
  CDK     0516241031

 97102  0  0  0  0  0  0  0  0999 V2000
    9.8365  -15.8362    0.0000 C   0  0  0  0  0  0  0  0  0  0  0  0
   11.1401  -16.5781    0.0000 H   0  0  0  0  0  0  0  0  0  0  0  0
    9.3322  -17.2489    0.0000 H   0  0  0  0  0  0  0  0  0  0  0  0
    8.3577  -15.5849    0.0000 H   0  0  0  0  0  0  0  0  0  0  0  0
    9.8271  -14.3362    0.0000 C   0  0  0  0  0  0  0  0  0  0  0  0
   11.3059  -14.5875    0.0000 C   0  0  0  0  0  0  0  0  0  0  0  0
   11.8277  -15.9938    0.0000 H   0  0  0  0  0  0  0  0  0  0  0  0
   11.2966  -13.0875    0.0000 H   0  0  0  0  0  0  0  0  0  0  0  0
   12.7815  -14.3178    0.0000 H   0  0  0  0  0  0  0  0  0  0  0  0
    7.8794  -14.6921    0.0000 C   0  0  0  0  0  0  0  0  0  0  0  0
    7.3729  -16.1049    0.0000 C   0  0  0  0  0  0  0  0  0  0  0  0
    5.8969  -16.3721    0.0000 C   0  0  0  0  0  0  0  0  0  0  0  0
    5.3901  -17.7839    0.0000 H   0  0  0  0  0  0  0  0  0  0  0  0
    4.9274  -15.2265    0.0000 C   0  0  0  0  0  0  0  0  0  0  0  0
    3.4509  -15.4912    0.0000 H   0  0  0  0  0  0  0  0  0  0  0  0
    5.4356  -13.8235    0.0000 C   0  0  0  0  0  0  0  0  0  0  0  0
    4.4679  -12.6774    0.0000 H   0  0  0  0  0  0  0  0  0  0  0  0
    6.9116  -13.5563    0.0000 C   0  0  0  0  0  0  0  0  0  0  0  0
    7.4161  -12.1437    0.0000 H   0  0  0  0  0  0  0  0  0  0  0  0
    7.8971  -18.9978    0.0000 C   0  0  0  0  0  0  0  0  0  0  0  0
    8.6532  -20.2933    0.0000 H   0  0  0  0  0  0  0  0  0  0  0  0
   10.6550  -17.9793    0.0000 H   0  0  0  0  0  0  0  0  0  0  0  0
    6.3863  -20.2777    0.0000 C   0  0  0  0  0  0  0  0  0  0  0  0
    5.6302  -18.9822    0.0000 H   0  0  0  0  0  0  0  0  0  0  0  0
    4.9792  -20.7973    0.0000 H   0  0  0  0  0  0  0  0  0  0  0  0
    6.6537  -21.7536    0.0000 C   0  0  2  0  0  0  0  0  0  0  0  0
    7.4098  -23.0491    0.0000 H   0  0  0  0  0  0  0  0  0  0  0  0
    4.4105  -23.6540    0.0000 C   0  0  0  0  0  0  0  0  0  0  0  0
    2.9971  -23.1492    0.0000 C   0  0  0  0  0  0  0  0  0  0  0  0
    2.7274  -21.6737    0.0000 H   0  0  0  0  0  0  0  0  0  0  0  0
    1.8542  -24.1207    0.0000 C   0  0  0  0  0  0  0  0  0  0  0  0
    2.1247  -25.5970    0.0000 C   0  0  0  0  0  0  0  0  0  0  0  0
    0.9834  -26.5704    0.0000 H   0  0  0  0  0  0  0  0  0  0  0  0
    3.5316  -26.0941    0.0000 C   0  0  0  0  0  0  0  0  0  0  0  0
    3.8037  -27.5692    0.0000 H   0  0  0  0  0  0  0  0  0  0  0  0
    4.6745  -25.1226    0.0000 C   0  0  0  0  0  0  0  0  0  0  0  0
    6.0865  -25.6288    0.0000 H   0  0  0  0  0  0  0  0  0  0  0  0
    0.4413  -23.6169    0.0000 C   0  0  0  0  0  0  0  0  0  0  0  0
    0.1712  -22.1414    0.0000 H   0  0  0  0  0  0  0  0  0  0  0  0
   -0.7014  -24.5886    0.0000 C   0  0  0  0  0  0  0  0  0  0  0  0
   -0.4313  -26.0641    0.0000 H   0  0  0  0  0  0  0  0  0  0  0  0
   -2.1143  -24.0848    0.0000 C   0  0  0  0  0  0  0  0  0  0  0  0
   -3.2578  -25.0568    0.0000 N   0  0  0  0  0  0  0  0  0  0  0  0
   -4.6717  -24.5534    0.0000 C   0  0  0  0  0  0  0  0  0  0  0  0
   -5.8152  -25.5254    0.0000 C   0  0  0  0  0  0  0  0  0  0  0  0
   -5.5449  -27.0009    0.0000 H   0  0  0  0  0  0  0  0  0  0  0  0
   -7.2291  -25.0220    0.0000 C   0  0  0  0  0  0  0  0  0  0  0  0
   -7.4995  -23.5466    0.0000 C   0  0  0  0  0  0  0  0  0  0  0  0
   -8.9123  -23.0428    0.0000 H   0  0  0  0  0  0  0  0  0  0  0  0
   -6.3560  -22.5746    0.0000 C   0  0  0  0  0  0  0  0  0  0  0  0
   -6.6263  -21.0991    0.0000 H   0  0  0  0  0  0  0  0  0  0  0  0
   -4.9421  -23.0780    0.0000 C   0  0  0  0  0  0  0  0  0  0  0  0
   -3.7985  -22.1059    0.0000 C   0  0  0  0  0  0  0  0  0  0  0  0
   -4.0689  -20.6305    0.0000 H   0  0  0  0  0  0  0  0  0  0  0  0
   -2.3846  -22.6094    0.0000 C   0  0  0  0  0  0  0  0  0  0  0  0
   -1.2422  -21.6373    0.0000 H   0  0  0  0  0  0  0  0  0  0  0  0
   -8.3716  -25.9941    0.0000 Cl  0  0  0  0  0  0  0  0  0  0  0  0
    8.0608  -21.2340    0.0000 S   0  0  0  0  0  0  0  0  0  0  0  0
    9.9527  -22.8064    0.0000 C   0  0  0  0  0  0  0  0  0  0  0  0
   11.3647  -23.3127    0.0000 H   0  0  0  0  0  0  0  0  0  0  0  0
   10.6966  -21.5038    0.0000 H   0  0  0  0  0  0  0  0  0  0  0  0
    9.6992  -24.2848    0.0000 C   0  0  0  0  0  0  0  0  0  0  0  0
   11.1120  -24.7913    0.0000 C   0  0  0  0  0  0  0  0  0  0  0  0
   12.2653  -25.7504    0.0000 H   0  0  0  0  0  0  0  0  0  0  0  0
   12.3322  -22.6552    0.0000 H   0  0  0  0  0  0  0  0  0  0  0  0
    9.9663  -25.7608    0.0000 C   0  0  0  0  0  0  0  0  0  0  0  0
    8.5590  -26.2800    0.0000 H   0  0  0  0  0  0  0  0  0  0  0  0
   10.7219  -27.0566    0.0000 H   0  0  0  0  0  0  0  0  0  0  0  0
    8.1992  -24.2917    0.0000 C   0  0  0  0  0  0  0  0  0  0  0  0
    8.4529  -22.8133    0.0000 H   0  0  0  0  0  0  0  0  0  0  0  0
    5.4319  -23.2988    0.0000 H   0  0  0  0  0  0  0  0  0  0  0  0
    6.9790  -26.4277    0.0000 C   0  0  0  0  0  0  0  0  0  0  0  0
    5.4790  -26.4346    0.0000 O   0  0  0  0  0  0  0  0  0  0  0  0
    7.7350  -27.7233    0.0000 O   0  0  0  0  0  0  0  0  0  0  0  0
    6.9910  -29.0258    0.0000 H   0  0  0  0  0  0  0  0  0  0  0  0
   10.6541  -12.0193    0.0000 O   0  0  0  0  0  0  0  0  0  0  0  0
    9.6828  -10.8763    0.0000 C   0  0  0  0  0  0  0  0  0  0  0  0
    8.7231  -12.0291    0.0000 H   0  0  0  0  0  0  0  0  0  0  0  0
   10.9668  -10.1203    0.0000 C   0  0  0  0  0  0  0  0  0  0  0  0
   12.4415   -9.8461    0.0000 H   0  0  0  0  0  0  0  0  0  0  0  0
   10.9520   -8.5973    0.0000 C   0  0  0  0  0  0  0  0  0  0  0  0
   11.4473   -7.1814    0.0000 H   0  0  0  0  0  0  0  0  0  0  0  0
    9.6375   -7.8626    0.0000 C   0  0  0  0  0  0  0  0  0  0  0  0
    8.6615   -6.7235    0.0000 H   0  0  0  0  0  0  0  0  0  0  0  0
    8.3535   -8.6186    0.0000 C   0  0  0  0  0  0  0  0  0  0  0  0
    6.8787   -8.8919    0.0000 H   0  0  0  0  0  0  0  0  0  0  0  0
    7.3242   -5.8646    0.0000 C   0  0  0  0  0  0  0  0  0  0  0  0
    8.2784   -4.7073    0.0000 O   0  0  0  0  0  0  0  0  0  0  0  0
    5.8448   -5.6169    0.0000 O   0  0  0  0  0  0  0  0  0  0  0  0
    5.3196   -4.2118    0.0000 H   0  0  0  0  0  0  0  0  0  0  0  0
    8.3668  -10.1193    0.0000 O   0  0  0  0  0  0  0  0  0  0  0  0
   10.5877   -6.7019    0.0000 O   0  0  0  0  0  0  0  0  0  0  0  0
   10.0576   -5.2987    0.0000 H   0  0  0  0  0  0  0  0  0  0  0  0
   12.4320   -8.8413    0.0000 O   0  0  0  0  0  0  0  0  0  0  0  0
   13.3834   -7.6815    0.0000 H   0  0  0  0  0  0  0  0  0  0  0  0
   11.4924  -11.5252    0.0000 O   0  0  0  0  0  0  0  0  0  0  0  0
   12.9719  -11.7725    0.0000 H   0  0  0  0  0  0  0  0  0  0  0  0
  1  2  1  0  0  0  0 
  1  3  1  0  0  0  0 
  1  4  1  0  0  0  0 
  1  5  1  0  0  0  0 
  5  6  1  0  0  0  0 
  6  7  1  0  0  0  0 
  6  8  1  0  0  0  0 
  6  9  1  0  0  0  0 
  5 10  1  0  0  0  0 
 10 11  2  0  0  0  0 
 11 12  1  0  0  0  0 
 12 13  1  0  0  0  0 
 12 14  2  0  0  0  0 
 14 15  1  0  0  0  0 
 14 16  1  0  0  0  0 
 16 17  1  0  0  0  0 
 16 18  2  0  0  0  0 
 10 18  1  0  0  0  0 
 18 19  1  0  0  0  0 
 11 20  1  0  0  0  0 
 20 21  1  0  0  0  0 
 20 22  1  0  0  0  0 
 20 23  1  0  0  0  0 
 23 24  1  0  0  0  0 
 23 25  1  0  0  0  0 
 23 26  1  0  0  0  0 
 26 27  1  6  0  0  0 
 26 28  1  0  0  0  0 
 28 29  2  0  0  0  0 
 29 30  1  0  0  0  0 
 29 31  1  0  0  0  0 
 31 32  2  0  0  0  0 
 32 33  1  0  0  0  0 
 32 34  1  0  0  0  0 
 34 35  1  0  0  0  0 
 34 36  2  0  0  0  0 
 28 36  1  0  0  0  0 
 36 37  1  0  0  0  0 
 31 38  1  0  0  0  0 
 38 39  1  0  0  0  0 
 38 40  2  0  0  0  0 
 40 41  1  0  0  0  0 
 40 42  1  0  0  0  0 
 42 43  2  0  0  0  0 
 43 44  1  0  0  0  0 
 44 45  2  0  0  0  0 
 45 46  1  0  0  0  0 
 45 47  1  0  0  0  0 
 47 48  2  0  0  0  0 
 48 49  1  0  0  0  0 
 48 50  1  0  0  0  0 
 50 51  1  0  0  0  0 
 50 52  2  0  0  0  0 
 44 52  1  0  0  0  0 
 52 53  1  0  0  0  0 
 53 54  1  0  0  0  0 
 53 55  2  0  0  0  0 
 42 55  1  0  0  0  0 
 55 56  1  0  0  0  0 
 47 57  1  0  0  0  0 
 26 58  1  1  0  0  0 
 58 59  1  0  0  0  0 
 59 60  1  0  0  0  0 
 59 61  1  0  0  0  0 
 59 62  1  0  0  0  0 
 62 63  1  0  0  0  0 
 63 64  1  0  0  0  0 
 63 65  1  0  0  0  0 
 63 66  1  0  0  0  0 
 62 66  1  0  0  0  0 
 66 67  1  0  0  0  0 
 66 68  1  0  0  0  0 
 62 69  1  0  0  0  0 
 69 70  1  0  0  0  0 
 69 71  1  0  0  0  0 
 69 72  1  0  0  0  0 
 72 73  2  0  0  0  0 
 72 74  1  0  0  0  0 
 74 75  1  0  0  0  0 
  5 76  1  0  0  0  0 
 76 77  1  0  0  0  0 
 77 78  1  0  0  0  0 
 77 79  1  0  0  0  0 
 79 80  1  0  0  0  0 
 79 81  1  0  0  0  0 
 81 82  1  0  0  0  0 
 81 83  1  0  0  0  0 
 83 84  1  0  0  0  0 
 83 85  1  0  0  0  0 
 85 86  1  0  0  0  0 
 85 87  1  0  0  0  0 
 87 88  2  0  0  0  0 
 87 89  1  0  0  0  0 
 89 90  1  0  0  0  0 
 85 91  1  0  0  0  0 
 77 91  1  0  0  0  0 
 83 92  1  0  0  0  0 
 92 93  1  0  0  0  0 
 81 94  1  0  0  0  0 
 94 95  1  0  0  0  0 
 79 96  1  0  0  0  0 
 96 97  1  0  0  0  0 
M  END
> <Rank>
1

> <Priority_score>
0.891875996044902

> <Reaction_type>
O-glucuronidation_(aliphatic_hydroxyl)

> <Parent_ID>
7

> <Parent_InChI>
InChI=1S/C35H36ClNO3S/c1-34(2,40)30-9-4-3-7-25(30)13-17-32(41-23-35(18-19-35)22-33(38)39)27-8-5-6-24(20-27)10-15-29-16-12-26-11-14-28(36)21-31(26)37-29/h3-12,14-16,20-21,32,40H,13,17-19,22-23H2,1-2H3,(H,38,39)

> <Parent_SMILES>
CC(C)(O)c1ccccc1CC[C@@H](SCC1(CC(=O)O)CC1)c1cccc(/C=C/c2ccc3ccc(Cl)cc3n2)c1

$$$$
Molecule 7_metabolite 2
  CDK     0516241031

 97102  0  0  0  0  0  0  0  0999 V2000
   10.4988  -15.5982    0.0000 C   0  0  0  0  0  0  0  0  0  0  0  0
    9.2022  -16.3523    0.0000 H   0  0  0  0  0  0  0  0  0  0  0  0
   11.9752  -15.3330    0.0000 H   0  0  0  0  0  0  0  0  0  0  0  0
   11.0163  -17.0061    0.0000 H   0  0  0  0  0  0  0  0  0  0  0  0
   10.4940  -14.0982    0.0000 C   0  0  0  0  0  0  0  0  0  0  0  0
    9.8109  -12.2398    0.0000 C   0  0  0  0  0  0  0  0  0  0  0  0
    8.3328  -11.9840    0.0000 H   0  0  0  0  0  0  0  0  0  0  0  0
   10.5567  -10.9383    0.0000 H   0  0  0  0  0  0  0  0  0  0  0  0
   11.2873  -11.9746    0.0000 H   0  0  0  0  0  0  0  0  0  0  0  0
   12.2056  -13.1027    0.0000 C   0  0  0  0  0  0  0  0  0  0  0  0
   12.2028  -11.6019    0.0000 C   0  0  0  0  0  0  0  0  0  0  0  0
   13.5007  -10.8499    0.0000 C   0  0  0  0  0  0  0  0  0  0  0  0
   13.4987   -9.3499    0.0000 H   0  0  0  0  0  0  0  0  0  0  0  0
   14.8014  -11.5988    0.0000 C   0  0  0  0  0  0  0  0  0  0  0  0
   16.1005  -10.8490    0.0000 H   0  0  0  0  0  0  0  0  0  0  0  0
   14.7991  -13.0910    0.0000 C   0  0  0  0  0  0  0  0  0  0  0  0
   16.0982  -13.8410    0.0000 H   0  0  0  0  0  0  0  0  0  0  0  0
   13.5012  -13.8429    0.0000 C   0  0  0  0  0  0  0  0  0  0  0  0
   13.5058  -15.3429    0.0000 H   0  0  0  0  0  0  0  0  0  0  0  0
    9.6543  -10.1362    0.0000 C   0  0  0  0  0  0  0  0  0  0  0  0
    8.6881   -8.9887    0.0000 H   0  0  0  0  0  0  0  0  0  0  0  0
   10.6165   -8.9855    0.0000 H   0  0  0  0  0  0  0  0  0  0  0  0
    7.1106  -11.6104    0.0000 C   0  0  0  0  0  0  0  0  0  0  0  0
    8.0767  -12.7579    0.0000 H   0  0  0  0  0  0  0  0  0  0  0  0
    6.1483  -12.7611    0.0000 H   0  0  0  0  0  0  0  0  0  0  0  0
    5.3942  -10.6233    0.0000 C   0  0  2  0  0  0  0  0  0  0  0  0
    4.4281   -9.4758    0.0000 H   0  0  0  0  0  0  0  0  0  0  0  0
    4.0964  -11.3755    0.0000 C   0  0  0  0  0  0  0  0  0  0  0  0
    2.7944  -10.6290    0.0000 C   0  0  0  0  0  0  0  0  0  0  0  0
    2.7896   -9.1290    0.0000 H   0  0  0  0  0  0  0  0  0  0  0  0
    1.4979  -11.3833    0.0000 C   0  0  0  0  0  0  0  0  0  0  0  0
    1.5034  -12.8842    0.0000 C   0  0  0  0  0  0  0  0  0  0  0  0
    0.2081  -13.6407    0.0000 H   0  0  0  0  0  0  0  0  0  0  0  0
    2.8004  -13.6220    0.0000 C   0  0  0  0  0  0  0  0  0  0  0  0
    2.8077  -15.1220    0.0000 H   0  0  0  0  0  0  0  0  0  0  0  0
    4.0969  -12.8677    0.0000 C   0  0  0  0  0  0  0  0  0  0  0  0
    5.3973  -13.6153    0.0000 H   0  0  0  0  0  0  0  0  0  0  0  0
    0.1962  -10.6379    0.0000 C   0  0  0  0  0  0  0  0  0  0  0  0
   -1.1002  -11.3925    0.0000 H   0  0  0  0  0  0  0  0  0  0  0  0
    0.1910   -9.1379    0.0000 C   0  0  0  0  0  0  0  0  0  0  0  0
    1.4874   -8.3834    0.0000 H   0  0  0  0  0  0  0  0  0  0  0  0
   -1.1107   -8.3925    0.0000 C   0  0  0  0  0  0  0  0  0  0  0  0
   -1.1162   -6.8917    0.0000 N   0  0  0  0  0  0  0  0  0  0  0  0
   -2.4182   -6.1452    0.0000 C   0  0  0  0  0  0  0  0  0  0  0  0
   -2.4237   -4.6444    0.0000 C   0  0  0  0  0  0  0  0  0  0  0  0
   -1.1272   -3.8900    0.0000 H   0  0  0  0  0  0  0  0  0  0  0  0
   -3.7258   -3.8979    0.0000 C   0  0  0  0  0  0  0  0  0  0  0  0
   -5.0223   -4.6522    0.0000 C   0  0  0  0  0  0  0  0  0  0  0  0
   -6.3239   -3.9068    0.0000 H   0  0  0  0  0  0  0  0  0  0  0  0
   -5.0168   -6.1530    0.0000 C   0  0  0  0  0  0  0  0  0  0  0  0
   -6.3133   -6.9074    0.0000 H   0  0  0  0  0  0  0  0  0  0  0  0
   -3.7147   -6.8995    0.0000 C   0  0  0  0  0  0  0  0  0  0  0  0
   -3.7092   -8.4003    0.0000 C   0  0  0  0  0  0  0  0  0  0  0  0
   -5.0058   -9.1547    0.0000 H   0  0  0  0  0  0  0  0  0  0  0  0
   -2.4072   -9.1468    0.0000 C   0  0  0  0  0  0  0  0  0  0  0  0
   -2.4024  -10.6468    0.0000 H   0  0  0  0  0  0  0  0  0  0  0  0
   -3.7305   -2.3979    0.0000 Cl  0  0  0  0  0  0  0  0  0  0  0  0
    6.3565   -9.4726    0.0000 S   0  0  0  0  0  0  0  0  0  0  0  0
    5.6762   -7.6132    0.0000 C   0  0  0  0  0  0  0  0  0  0  0  0
    4.7101   -6.4657    0.0000 H   0  0  0  0  0  0  0  0  0  0  0  0
    4.3784   -8.3653    0.0000 H   0  0  0  0  0  0  0  0  0  0  0  0
    6.9463   -6.0943    0.0000 C   0  0  0  0  0  0  0  0  0  0  0  0
    5.9796   -4.9463    0.0000 C   0  0  0  0  0  0  0  0  0  0  0  0
    5.4646   -3.5374    0.0000 H   0  0  0  0  0  0  0  0  0  0  0  0
    4.6817   -5.6983    0.0000 H   0  0  0  0  0  0  0  0  0  0  0  0
    7.4573   -4.6840    0.0000 C   0  0  0  0  0  0  0  0  0  0  0  0
    8.9349   -4.9425    0.0000 H   0  0  0  0  0  0  0  0  0  0  0  0
    7.4554   -3.1840    0.0000 H   0  0  0  0  0  0  0  0  0  0  0  0
    8.2465   -6.8422    0.0000 C   0  0  0  0  0  0  0  0  0  0  0  0
    7.2842   -7.9928    0.0000 H   0  0  0  0  0  0  0  0  0  0  0  0
    9.2125   -7.9898    0.0000 H   0  0  0  0  0  0  0  0  0  0  0  0
    9.9597   -5.8495    0.0000 C   0  0  0  0  0  0  0  0  0  0  0  0
   11.2599   -6.5975    0.0000 O   0  0  0  0  0  0  0  0  0  0  0  0
    9.9559   -3.3895    0.0000 O   0  0  0  0  0  0  0  0  0  0  0  0
   11.2537   -2.6375    0.0000 C   0  0  0  0  0  0  0  0  0  0  0  0
   11.7722   -4.0451    0.0000 H   0  0  0  0  0  0  0  0  0  0  0  0
   10.2968   -1.4954    0.0000 C   0  0  0  0  0  0  0  0  0  0  0  0
    8.9989   -0.7434    0.0000 H   0  0  0  0  0  0  0  0  0  0  0  0
   10.8205   -0.0651    0.0000 C   0  0  0  0  0  0  0  0  0  0  0  0
   10.8277    1.4349    0.0000 H   0  0  0  0  0  0  0  0  0  0  0  0
   12.3051    0.1872    0.0000 C   0  0  0  0  0  0  0  0  0  0  0  0
   13.6060    0.9339    0.0000 H   0  0  0  0  0  0  0  0  0  0  0  0
   13.2620   -0.9549    0.0000 C   0  0  0  0  0  0  0  0  0  0  0  0
   14.5603   -1.7061    0.0000 H   0  0  0  0  0  0  0  0  0  0  0  0
   14.8448    0.9283    0.0000 C   0  0  0  0  0  0  0  0  0  0  0  0
   16.3218    0.6665    0.0000 O   0  0  0  0  0  0  0  0  0  0  0  0
   14.3330    2.3382    0.0000 O   0  0  0  0  0  0  0  0  0  0  0  0
   15.2981    3.4865    0.0000 H   0  0  0  0  0  0  0  0  0  0  0  0
   12.7472   -2.3647    0.0000 O   0  0  0  0  0  0  0  0  0  0  0  0
   11.7982    1.5990    0.0000 O   0  0  0  0  0  0  0  0  0  0  0  0
   12.7674    2.7438    0.0000 H   0  0  0  0  0  0  0  0  0  0  0  0
    9.3442    0.2003    0.0000 O   0  0  0  0  0  0  0  0  0  0  0  0
    8.8359    1.6115    0.0000 H   0  0  0  0  0  0  0  0  0  0  0  0
    9.3313   -2.6434    0.0000 O   0  0  0  0  0  0  0  0  0  0  0  0
    6.4366   -2.1296    0.0000 H   0  0  0  0  0  0  0  0  0  0  0  0
    9.0176  -14.3634    0.0000 O   0  0  0  0  0  0  0  0  0  0  0  0
    8.5091  -15.7745    0.0000 H   0  0  0  0  0  0  0  0  0  0  0  0
  1  2  1  0  0  0  0 
  1  3  1  0  0  0  0 
  1  4  1  0  0  0  0 
  1  5  1  0  0  0  0 
  5  6  1  0  0  0  0 
  6  7  1  0  0  0  0 
  6  8  1  0  0  0  0 
  6  9  1  0  0  0  0 
  5 10  1  0  0  0  0 
 10 11  2  0  0  0  0 
 11 12  1  0  0  0  0 
 12 13  1  0  0  0  0 
 12 14  2  0  0  0  0 
 14 15  1  0  0  0  0 
 14 16  1  0  0  0  0 
 16 17  1  0  0  0  0 
 16 18  2  0  0  0  0 
 10 18  1  0  0  0  0 
 18 19  1  0  0  0  0 
 11 20  1  0  0  0  0 
 20 21  1  0  0  0  0 
 20 22  1  0  0  0  0 
 20 23  1  0  0  0  0 
 23 24  1  0  0  0  0 
 23 25  1  0  0  0  0 
 23 26  1  0  0  0  0 
 26 27  1  1  0  0  0 
 26 28  1  0  0  0  0 
 28 29  2  0  0  0  0 
 29 30  1  0  0  0  0 
 29 31  1  0  0  0  0 
 31 32  2  0  0  0  0 
 32 33  1  0  0  0  0 
 32 34  1  0  0  0  0 
 34 35  1  0  0  0  0 
 34 36  2  0  0  0  0 
 28 36  1  0  0  0  0 
 36 37  1  0  0  0  0 
 31 38  1  0  0  0  0 
 38 39  1  0  0  0  0 
 38 40  2  0  0  0  0 
 40 41  1  0  0  0  0 
 40 42  1  0  0  0  0 
 42 43  2  0  0  0  0 
 43 44  1  0  0  0  0 
 44 45  2  0  0  0  0 
 45 46  1  0  0  0  0 
 45 47  1  0  0  0  0 
 47 48  2  0  0  0  0 
 48 49  1  0  0  0  0 
 48 50  1  0  0  0  0 
 50 51  1  0  0  0  0 
 50 52  2  0  0  0  0 
 44 52  1  0  0  0  0 
 52 53  1  0  0  0  0 
 53 54  1  0  0  0  0 
 53 55  2  0  0  0  0 
 42 55  1  0  0  0  0 
 55 56  1  0  0  0  0 
 47 57  1  0  0  0  0 
 26 58  1  6  0  0  0 
 58 59  1  0  0  0  0 
 59 60  1  0  0  0  0 
 59 61  1  0  0  0  0 
 59 62  1  0  0  0  0 
 62 63  1  0  0  0  0 
 63 64  1  0  0  0  0 
 63 65  1  0  0  0  0 
 63 66  1  0  0  0  0 
 62 66  1  0  0  0  0 
 66 67  1  0  0  0  0 
 66 68  1  0  0  0  0 
 62 69  1  0  0  0  0 
 69 70  1  0  0  0  0 
 69 71  1  0  0  0  0 
 69 72  1  0  0  0  0 
 72 73  2  0  0  0  0 
 72 74  1  0  0  0  0 
 74 75  1  0  0  0  0 
 75 76  1  0  0  0  0 
 75 77  1  0  0  0  0 
 77 78  1  0  0  0  0 
 77 79  1  0  0  0  0 
 79 80  1  0  0  0  0 
 79 81  1  0  0  0  0 
 81 82  1  0  0  0  0 
 81 83  1  0  0  0  0 
 83 84  1  0  0  0  0 
 83 85  1  0  0  0  0 
 85 86  2  0  0  0  0 
 85 87  1  0  0  0  0 
 87 88  1  0  0  0  0 
 83 89  1  0  0  0  0 
 75 89  1  0  0  0  0 
 81 90  1  0  0  0  0 
 90 91  1  0  0  0  0 
 79 92  1  0  0  0  0 
 92 93  1  0  0  0  0 
 77 94  1  0  0  0  0 
 94 95  1  0  0  0  0 
  5 96  1  0  0  0  0 
 96 97  1  0  0  0  0 
M  END
> <Rank>
2

> <Priority_score>
0.8726462329192886

> <Reaction_type>
O-glucuronidation_(aliphatic_carboxyl)

> <Parent_ID>
7

> <Parent_InChI>
InChI=1S/C35H36ClNO3S/c1-34(2,40)30-9-4-3-7-25(30)13-17-32(41-23-35(18-19-35)22-33(38)39)27-8-5-6-24(20-27)10-15-29-16-12-26-11-14-28(36)21-31(26)37-29/h3-12,14-16,20-21,32,40H,13,17-19,22-23H2,1-2H3,(H,38,39)

> <Parent_SMILES>
CC(C)(O)c1ccccc1CC[C@@H](SCC1(CC(=O)O)CC1)c1cccc(/C=C/c2ccc3ccc(Cl)cc3n2)c1

$$$$
Molecule 7_metabolite 3
  CDK     0516241031

 81 85  0  0  0  0  0  0  0  0999 V2000
   11.5217   -3.9436    0.0000 C   0  0  0  0  0  0  0  0  0  0  0  0
   10.5574   -2.7946    0.0000 H   0  0  0  0  0  0  0  0  0  0  0  0
   10.2228   -4.6938    0.0000 H   0  0  0  0  0  0  0  0  0  0  0  0
   12.0350   -5.3530    0.0000 H   0  0  0  0  0  0  0  0  0  0  0  0
   13.4716   -3.5994    0.0000 C   0  0  0  0  0  0  0  0  0  0  0  0
   12.9583   -2.1900    0.0000 C   0  0  0  0  0  0  0  0  0  0  0  0
   13.9223   -1.0407    0.0000 H   0  0  0  0  0  0  0  0  0  0  0  0
   11.6594   -2.9402    0.0000 H   0  0  0  0  0  0  0  0  0  0  0  0
   11.9940   -1.0411    0.0000 H   0  0  0  0  0  0  0  0  0  0  0  0
   13.4721   -6.5394    0.0000 C   0  0  0  0  0  0  0  0  0  0  0  0
   12.1734   -7.2918    0.0000 C   0  0  0  0  0  0  0  0  0  0  0  0
   12.1762   -8.7918    0.0000 C   0  0  0  0  0  0  0  0  0  0  0  0
   10.8786   -9.5444    0.0000 H   0  0  0  0  0  0  0  0  0  0  0  0
   13.4776   -9.5394    0.0000 C   0  0  0  0  0  0  0  0  0  0  0  0
   13.4828  -11.0394    0.0000 H   0  0  0  0  0  0  0  0  0  0  0  0
   14.7662   -8.7871    0.0000 C   0  0  0  0  0  0  0  0  0  0  0  0
   16.0677   -9.5327    0.0000 H   0  0  0  0  0  0  0  0  0  0  0  0
   14.7634   -7.2871    0.0000 C   0  0  0  0  0  0  0  0  0  0  0  0
   16.0622   -6.5366    0.0000 H   0  0  0  0  0  0  0  0  0  0  0  0
   10.0410   -6.0654    0.0000 C   0  0  0  0  0  0  0  0  0  0  0  0
    8.7657   -4.5507    0.0000 H   0  0  0  0  0  0  0  0  0  0  0  0
   11.0032   -4.9147    0.0000 H   0  0  0  0  0  0  0  0  0  0  0  0
    8.7432   -6.8175    0.0000 C   0  0  0  0  0  0  0  0  0  0  0  0
    9.7093   -7.9650    0.0000 H   0  0  0  0  0  0  0  0  0  0  0  0
    7.7809   -7.9682    0.0000 H   0  0  0  0  0  0  0  0  0  0  0  0
    6.6107   -5.5911    0.0000 C   0  0  2  0  0  0  0  0  0  0  0  0
    5.1331   -5.3331    0.0000 H   0  0  0  0  0  0  0  0  0  0  0  0
    6.6074   -3.6111    0.0000 C   0  0  0  0  0  0  0  0  0  0  0  0
    5.3074   -2.8611    0.0000 C   0  0  0  0  0  0  0  0  0  0  0  0
    4.0085   -3.6113    0.0000 H   0  0  0  0  0  0  0  0  0  0  0  0
    5.3074   -1.3611    0.0000 C   0  0  0  0  0  0  0  0  0  0  0  0
    6.6074   -0.6111    0.0000 C   0  0  0  0  0  0  0  0  0  0  0  0
    6.6099    0.8889    0.0000 H   0  0  0  0  0  0  0  0  0  0  0  0
    7.8974   -1.3611    0.0000 C   0  0  0  0  0  0  0  0  0  0  0  0
    9.1976   -0.6131    0.0000 H   0  0  0  0  0  0  0  0  0  0  0  0
    7.8974   -2.8611    0.0000 C   0  0  0  0  0  0  0  0  0  0  0  0
    9.1976   -3.6092    0.0000 H   0  0  0  0  0  0  0  0  0  0  0  0
    4.0085   -0.6109    0.0000 C   0  0  0  0  0  0  0  0  0  0  0  0
    4.0087    0.8891    0.0000 H   0  0  0  0  0  0  0  0  0  0  0  0
    2.7093   -1.3607    0.0000 C   0  0  0  0  0  0  0  0  0  0  0  0
    2.7091   -2.8607    0.0000 H   0  0  0  0  0  0  0  0  0  0  0  0
    1.4104   -0.6105    0.0000 C   0  0  0  0  0  0  0  0  0  0  0  0
    0.1104   -1.3605    0.0000 N   0  0  0  0  0  0  0  0  0  0  0  0
   -1.1896   -0.6105    0.0000 C   0  0  0  0  0  0  0  0  0  0  0  0
   -2.4896   -1.3605    0.0000 C   0  0  0  0  0  0  0  0  0  0  0  0
   -2.4896   -2.8605    0.0000 H   0  0  0  0  0  0  0  0  0  0  0  0
   -3.7896   -0.6105    0.0000 C   0  0  0  0  0  0  0  0  0  0  0  0
   -3.7896    0.8895    0.0000 C   0  0  0  0  0  0  0  0  0  0  0  0
   -5.0885    1.6397    0.0000 H   0  0  0  0  0  0  0  0  0  0  0  0
   -2.4896    1.6395    0.0000 C   0  0  0  0  0  0  0  0  0  0  0  0
   -2.4896    3.1395    0.0000 H   0  0  0  0  0  0  0  0  0  0  0  0
   -1.1896    0.8895    0.0000 C   0  0  0  0  0  0  0  0  0  0  0  0
    0.1104    1.6395    0.0000 C   0  0  0  0  0  0  0  0  0  0  0  0
    0.1104    3.1395    0.0000 H   0  0  0  0  0  0  0  0  0  0  0  0
    1.4104    0.8895    0.0000 C   0  0  0  0  0  0  0  0  0  0  0  0
    2.7093    1.6397    0.0000 H   0  0  0  0  0  0  0  0  0  0  0  0
   -5.0885   -1.3607    0.0000 Cl  0  0  0  0  0  0  0  0  0  0  0  0
    6.1000   -7.0015    0.0000 S   0  0  0  0  0  0  0  0  0  0  0  0
    4.1507   -7.3486    0.0000 C   0  0  0  0  0  0  0  0  0  0  0  0
    2.6730   -7.0906    0.0000 H   0  0  0  0  0  0  0  0  0  0  0  0
    4.1482   -5.8486    0.0000 H   0  0  0  0  0  0  0  0  0  0  0  0
    3.6400   -8.7590    0.0000 C   0  0  0  0  0  0  0  0  0  0  0  0
    2.1616   -8.5007    0.0000 C   0  0  0  0  0  0  0  0  0  0  0  0
    0.6849   -8.7641    0.0000 H   0  0  0  0  0  0  0  0  0  0  0  0
    2.1572   -6.0407    0.0000 H   0  0  0  0  0  0  0  0  0  0  0  0
    2.6780   -9.9099    0.0000 C   0  0  0  0  0  0  0  0  0  0  0  0
    3.6445  -11.0570    0.0000 H   0  0  0  0  0  0  0  0  0  0  0  0
    1.3805  -10.6626    0.0000 H   0  0  0  0  0  0  0  0  0  0  0  0
    4.9404   -9.5067    0.0000 C   0  0  0  0  0  0  0  0  0  0  0  0
    5.4509   -8.0962    0.0000 H   0  0  0  0  0  0  0  0  0  0  0  0
    6.4181   -9.7645    0.0000 H   0  0  0  0  0  0  0  0  0  0  0  0
    4.9448  -11.9667    0.0000 C   0  0  0  0  0  0  0  0  0  0  0  0
    6.2451  -12.7144    0.0000 O   0  0  0  0  0  0  0  0  0  0  0  0
    3.6471  -12.7190    0.0000 O   0  0  0  0  0  0  0  0  0  0  0  0
    3.6497  -14.2190    0.0000 H   0  0  0  0  0  0  0  0  0  0  0  0
   14.7705   -2.8492    0.0000 O   0  0  0  0  0  0  0  0  0  0  0  0
   16.0697   -3.5990    0.0000 S   0  0  0  0  0  0  0  0  0  0  0  0
   17.0340   -4.7479    0.0000 O   0  0  0  0  0  0  0  0  0  0  0  0
   15.1057   -4.7482    0.0000 O   0  0  0  0  0  0  0  0  0  0  0  0
   17.3686   -2.8488    0.0000 O   0  0  0  0  0  0  0  0  0  0  0  0
   18.6677   -3.5986    0.0000 H   0  0  0  0  0  0  0  0  0  0  0  0
  1  2  1  0  0  0  0 
  1  3  1  0  0  0  0 
  1  4  1  0  0  0  0 
  1  5  1  0  0  0  0 
  5  6  1  0  0  0  0 
  6  7  1  0  0  0  0 
  6  8  1  0  0  0  0 
  6  9  1  0  0  0  0 
  5 10  1  0  0  0  0 
 10 11  2  0  0  0  0 
 11 12  1  0  0  0  0 
 12 13  1  0  0  0  0 
 12 14  2  0  0  0  0 
 14 15  1  0  0  0  0 
 14 16  1  0  0  0  0 
 16 17  1  0  0  0  0 
 16 18  2  0  0  0  0 
 10 18  1  0  0  0  0 
 18 19  1  0  0  0  0 
 11 20  1  0  0  0  0 
 20 21  1  0  0  0  0 
 20 22  1  0  0  0  0 
 20 23  1  0  0  0  0 
 23 24  1  0  0  0  0 
 23 25  1  0  0  0  0 
 23 26  1  0  0  0  0 
 26 27  1  6  0  0  0 
 26 28  1  0  0  0  0 
 28 29  2  0  0  0  0 
 29 30  1  0  0  0  0 
 29 31  1  0  0  0  0 
 31 32  2  0  0  0  0 
 32 33  1  0  0  0  0 
 32 34  1  0  0  0  0 
 34 35  1  0  0  0  0 
 34 36  2  0  0  0  0 
 28 36  1  0  0  0  0 
 36 37  1  0  0  0  0 
 31 38  1  0  0  0  0 
 38 39  1  0  0  0  0 
 38 40  2  0  0  0  0 
 40 41  1  0  0  0  0 
 40 42  1  0  0  0  0 
 42 43  2  0  0  0  0 
 43 44  1  0  0  0  0 
 44 45  2  0  0  0  0 
 45 46  1  0  0  0  0 
 45 47  1  0  0  0  0 
 47 48  2  0  0  0  0 
 48 49  1  0  0  0  0 
 48 50  1  0  0  0  0 
 50 51  1  0  0  0  0 
 50 52  2  0  0  0  0 
 44 52  1  0  0  0  0 
 52 53  1  0  0  0  0 
 53 54  1  0  0  0  0 
 53 55  2  0  0  0  0 
 42 55  1  0  0  0  0 
 55 56  1  0  0  0  0 
 47 57  1  0  0  0  0 
 26 58  1  1  0  0  0 
 58 59  1  0  0  0  0 
 59 60  1  0  0  0  0 
 59 61  1  0  0  0  0 
 59 62  1  0  0  0  0 
 62 63  1  0  0  0  0 
 63 64  1  0  0  0  0 
 63 65  1  0  0  0  0 
 63 66  1  0  0  0  0 
 62 66  1  0  0  0  0 
 66 67  1  0  0  0  0 
 66 68  1  0  0  0  0 
 62 69  1  0  0  0  0 
 69 70  1  0  0  0  0 
 69 71  1  0  0  0  0 
 69 72  1  0  0  0  0 
 72 73  2  0  0  0  0 
 72 74  1  0  0  0  0 
 74 75  1  0  0  0  0 
  5 76  1  0  0  0  0 
 76 77  1  0  0  0  0 
 77 78  2  0  0  0  0 
 77 79  2  0  0  0  0 
 77 80  1  0  0  0  0 
 80 81  1  0  0  0  0 
M  END
> <Rank>
3

> <Priority_score>
0.8637092084006462

> <Reaction_type>
sulfation_(aliphatic_hydroxyl)

> <Parent_ID>
7

> <Parent_InChI>
InChI=1S/C35H36ClNO3S/c1-34(2,40)30-9-4-3-7-25(30)13-17-32(41-23-35(18-19-35)22-33(38)39)27-8-5-6-24(20-27)10-15-29-16-12-26-11-14-28(36)21-31(26)37-29/h3-12,14-16,20-21,32,40H,13,17-19,22-23H2,1-2H3,(H,38,39)

> <Parent_SMILES>
CC(C)(O)c1ccccc1CC[C@@H](SCC1(CC(=O)O)CC1)c1cccc(/C=C/c2ccc3ccc(Cl)cc3n2)c1

$$$$
Molecule 7_metabolite 4
  CDK     0516241031

 78 82  0  0  0  0  0  0  0  0999 V2000
   13.9747   -3.0967    0.0000 C   0  0  0  0  0  0  0  0  0  0  0  0
   13.9676   -1.5967    0.0000 H   0  0  0  0  0  0  0  0  0  0  0  0
   15.4506   -2.8293    0.0000 H   0  0  0  0  0  0  0  0  0  0  0  0
   14.4943   -4.5038    0.0000 H   0  0  0  0  0  0  0  0  0  0  0  0
   12.6792   -3.8528    0.0000 C   0  0  0  0  0  0  0  0  0  0  0  0
   12.1595   -2.4457    0.0000 C   0  0  0  0  0  0  0  0  0  0  0  0
   13.1183   -1.2921    0.0000 H   0  0  0  0  0  0  0  0  0  0  0  0
   11.1899   -1.3012    0.0000 H   0  0  0  0  0  0  0  0  0  0  0  0
   10.8640   -3.2018    0.0000 H   0  0  0  0  0  0  0  0  0  0  0  0
   12.6862   -5.3528    0.0000 C   0  0  0  0  0  0  0  0  0  0  0  0
   13.9831   -6.0908    0.0000 C   0  0  0  0  0  0  0  0  0  0  0  0
   15.2797   -5.3367    0.0000 H   0  0  0  0  0  0  0  0  0  0  0  0
   13.9833   -7.5830    0.0000 C   0  0  0  0  0  0  0  0  0  0  0  0
   12.6867   -8.3371    0.0000 C   0  0  0  0  0  0  0  0  0  0  0  0
   12.6937   -9.8371    0.0000 H   0  0  0  0  0  0  0  0  0  0  0  0
   11.3898   -7.5991    0.0000 C   0  0  0  0  0  0  0  0  0  0  0  0
   10.0932   -8.3532    0.0000 H   0  0  0  0  0  0  0  0  0  0  0  0
   11.3896   -6.1069    0.0000 C   0  0  0  0  0  0  0  0  0  0  0  0
    9.2571   -4.8805    0.0000 C   0  0  0  0  0  0  0  0  0  0  0  0
    8.2910   -3.7330    0.0000 H   0  0  0  0  0  0  0  0  0  0  0  0
   10.2193   -3.7298    0.0000 H   0  0  0  0  0  0  0  0  0  0  0  0
    7.9593   -5.6327    0.0000 C   0  0  0  0  0  0  0  0  0  0  0  0
    9.2346   -7.1473    0.0000 H   0  0  0  0  0  0  0  0  0  0  0  0
    6.9971   -6.7833    0.0000 H   0  0  0  0  0  0  0  0  0  0  0  0
    6.2429   -4.6455    0.0000 C   0  0  2  0  0  0  0  0  0  0  0  0
    4.7653   -4.3875    0.0000 H   0  0  0  0  0  0  0  0  0  0  0  0
    6.2404   -3.1455    0.0000 C   0  0  0  0  0  0  0  0  0  0  0  0
    4.9404   -2.3955    0.0000 C   0  0  0  0  0  0  0  0  0  0  0  0
    3.6415   -3.1457    0.0000 H   0  0  0  0  0  0  0  0  0  0  0  0
    4.9404   -0.8955    0.0000 C   0  0  0  0  0  0  0  0  0  0  0  0
    6.2404   -0.1455    0.0000 C   0  0  0  0  0  0  0  0  0  0  0  0
    6.2429    1.3545    0.0000 H   0  0  0  0  0  0  0  0  0  0  0  0
    7.5304   -0.8955    0.0000 C   0  0  0  0  0  0  0  0  0  0  0  0
    8.8306   -0.1475    0.0000 H   0  0  0  0  0  0  0  0  0  0  0  0
    7.5304   -2.3955    0.0000 C   0  0  0  0  0  0  0  0  0  0  0  0
    8.8306   -3.1436    0.0000 H   0  0  0  0  0  0  0  0  0  0  0  0
    3.6415   -0.1453    0.0000 C   0  0  0  0  0  0  0  0  0  0  0  0
    3.6417    1.3547    0.0000 H   0  0  0  0  0  0  0  0  0  0  0  0
    2.3423   -0.8951    0.0000 C   0  0  0  0  0  0  0  0  0  0  0  0
    2.3421   -2.3951    0.0000 H   0  0  0  0  0  0  0  0  0  0  0  0
    1.0434   -0.1449    0.0000 C   0  0  0  0  0  0  0  0  0  0  0  0
   -0.2566   -0.8949    0.0000 N   0  0  0  0  0  0  0  0  0  0  0  0
   -1.5566   -0.1449    0.0000 C   0  0  0  0  0  0  0  0  0  0  0  0
   -2.8566   -0.8949    0.0000 C   0  0  0  0  0  0  0  0  0  0  0  0
   -2.8566   -2.3949    0.0000 H   0  0  0  0  0  0  0  0  0  0  0  0
   -4.1566   -0.1449    0.0000 C   0  0  0  0  0  0  0  0  0  0  0  0
   -4.1566    1.3551    0.0000 C   0  0  0  0  0  0  0  0  0  0  0  0
   -5.4555    2.1053    0.0000 H   0  0  0  0  0  0  0  0  0  0  0  0
   -2.8566    2.1051    0.0000 C   0  0  0  0  0  0  0  0  0  0  0  0
   -2.8566    3.6051    0.0000 H   0  0  0  0  0  0  0  0  0  0  0  0
   -1.5566    1.3551    0.0000 C   0  0  0  0  0  0  0  0  0  0  0  0
   -0.2566    2.1051    0.0000 C   0  0  0  0  0  0  0  0  0  0  0  0
   -0.2566    3.6051    0.0000 H   0  0  0  0  0  0  0  0  0  0  0  0
    1.0434    1.3551    0.0000 C   0  0  0  0  0  0  0  0  0  0  0  0
    2.3423    2.1053    0.0000 H   0  0  0  0  0  0  0  0  0  0  0  0
   -5.4555   -0.8951    0.0000 Cl  0  0  0  0  0  0  0  0  0  0  0  0
    5.7323   -6.0559    0.0000 S   0  0  0  0  0  0  0  0  0  0  0  0
    3.7829   -6.4030    0.0000 C   0  0  0  0  0  0  0  0  0  0  0  0
    2.3053   -6.1450    0.0000 H   0  0  0  0  0  0  0  0  0  0  0  0
    3.7804   -4.9030    0.0000 H   0  0  0  0  0  0  0  0  0  0  0  0
    3.2722   -7.8134    0.0000 C   0  0  0  0  0  0  0  0  0  0  0  0
    1.7938   -7.5551    0.0000 C   0  0  0  0  0  0  0  0  0  0  0  0
    0.3171   -7.8185    0.0000 H   0  0  0  0  0  0  0  0  0  0  0  0
    1.7894   -5.0951    0.0000 H   0  0  0  0  0  0  0  0  0  0  0  0
    2.3102   -8.9643    0.0000 C   0  0  0  0  0  0  0  0  0  0  0  0
    3.2767  -10.1114    0.0000 H   0  0  0  0  0  0  0  0  0  0  0  0
    1.0128   -9.7170    0.0000 H   0  0  0  0  0  0  0  0  0  0  0  0
    4.5726   -8.5611    0.0000 C   0  0  0  0  0  0  0  0  0  0  0  0
    5.0831   -7.1506    0.0000 H   0  0  0  0  0  0  0  0  0  0  0  0
    6.0503   -8.8189    0.0000 H   0  0  0  0  0  0  0  0  0  0  0  0
    4.5761  -10.5411    0.0000 C   0  0  0  0  0  0  0  0  0  0  0  0
    5.8765  -11.2888    0.0000 O   0  0  0  0  0  0  0  0  0  0  0  0
    3.2784  -11.2934    0.0000 O   0  0  0  0  0  0  0  0  0  0  0  0
    3.2811  -12.7934    0.0000 H   0  0  0  0  0  0  0  0  0  0  0  0
   15.2836   -8.3308    0.0000 O   0  0  0  0  0  0  0  0  0  0  0  0
   15.2861   -9.8308    0.0000 H   0  0  0  0  0  0  0  0  0  0  0  0
   11.2032   -4.1202    0.0000 O   0  0  0  0  0  0  0  0  0  0  0  0
   10.6968   -5.5321    0.0000 H   0  0  0  0  0  0  0  0  0  0  0  0
  1  2  1  0  0  0  0 
  1  3  1  0  0  0  0 
  1  4  1  0  0  0  0 
  1  5  1  0  0  0  0 
  5  6  1  0  0  0  0 
  6  7  1  0  0  0  0 
  6  8  1  0  0  0  0 
  6  9  1  0  0  0  0 
  5 10  1  0  0  0  0 
 10 11  2  0  0  0  0 
 11 12  1  0  0  0  0 
 11 13  1  0  0  0  0 
 13 14  2  0  0  0  0 
 14 15  1  0  0  0  0 
 14 16  1  0  0  0  0 
 16 17  1  0  0  0  0 
 16 18  2  0  0  0  0 
 10 18  1  0  0  0  0 
 18 19  1  0  0  0  0 
 19 20  1  0  0  0  0 
 19 21  1  0  0  0  0 
 19 22  1  0  0  0  0 
 22 23  1  0  0  0  0 
 22 24  1  0  0  0  0 
 22 25  1  0  0  0  0 
 25 26  1  6  0  0  0 
 25 27  1  0  0  0  0 
 27 28  2  0  0  0  0 
 28 29  1  0  0  0  0 
 28 30  1  0  0  0  0 
 30 31  2  0  0  0  0 
 31 32  1  0  0  0  0 
 31 33  1  0  0  0  0 
 33 34  1  0  0  0  0 
 33 35  2  0  0  0  0 
 27 35  1  0  0  0  0 
 35 36  1  0  0  0  0 
 30 37  1  0  0  0  0 
 37 38  1  0  0  0  0 
 37 39  2  0  0  0  0 
 39 40  1  0  0  0  0 
 39 41  1  0  0  0  0 
 41 42  2  0  0  0  0 
 42 43  1  0  0  0  0 
 43 44  2  0  0  0  0 
 44 45  1  0  0  0  0 
 44 46  1  0  0  0  0 
 46 47  2  0  0  0  0 
 47 48  1  0  0  0  0 
 47 49  1  0  0  0  0 
 49 50  1  0  0  0  0 
 49 51  2  0  0  0  0 
 43 51  1  0  0  0  0 
 51 52  1  0  0  0  0 
 52 53  1  0  0  0  0 
 52 54  2  0  0  0  0 
 41 54  1  0  0  0  0 
 54 55  1  0  0  0  0 
 46 56  1  0  0  0  0 
 25 57  1  1  0  0  0 
 57 58  1  0  0  0  0 
 58 59  1  0  0  0  0 
 58 60  1  0  0  0  0 
 58 61  1  0  0  0  0 
 61 62  1  0  0  0  0 
 62 63  1  0  0  0  0 
 62 64  1  0  0  0  0 
 62 65  1  0  0  0  0 
 61 65  1  0  0  0  0 
 65 66  1  0  0  0  0 
 65 67  1  0  0  0  0 
 61 68  1  0  0  0  0 
 68 69  1  0  0  0  0 
 68 70  1  0  0  0  0 
 68 71  1  0  0  0  0 
 71 72  2  0  0  0  0 
 71 73  1  0  0  0  0 
 73 74  1  0  0  0  0 
 13 75  1  0  0  0  0 
 75 76  1  0  0  0  0 
  5 77  1  0  0  0  0 
 77 78  1  0  0  0  0 
M  END
> <Rank>
4

> <Priority_score>
0.612

> <Reaction_type>
aromatic_hydroxylation_(para_to_carbon)

> <Parent_ID>
7

> <Parent_InChI>
InChI=1S/C35H36ClNO3S/c1-34(2,40)30-9-4-3-7-25(30)13-17-32(41-23-35(18-19-35)22-33(38)39)27-8-5-6-24(20-27)10-15-29-16-12-26-11-14-28(36)21-31(26)37-29/h3-12,14-16,20-21,32,40H,13,17-19,22-23H2,1-2H3,(H,38,39)

> <Parent_SMILES>
CC(C)(O)c1ccccc1CC[C@@H](SCC1(CC(=O)O)CC1)c1cccc(/C=C/c2ccc3ccc(Cl)cc3n2)c1

$$$$
Molecule 7_metabolite 5
  CDK     0516241031

 78 82  0  0  0  0  0  0  0  0999 V2000
   14.8887   -8.4302    0.0000 C   0  0  0  0  0  0  0  0  0  0  0  0
   15.6448   -9.7257    0.0000 H   0  0  0  0  0  0  0  0  0  0  0  0
   14.6213   -6.9542    0.0000 H   0  0  0  0  0  0  0  0  0  0  0  0
   16.2958   -7.9105    0.0000 H   0  0  0  0  0  0  0  0  0  0  0  0
   13.3887   -8.4372    0.0000 C   0  0  0  0  0  0  0  0  0  0  0  0
   11.5250   -7.7688    0.0000 C   0  0  0  0  0  0  0  0  0  0  0  0
   11.0008   -4.8759    0.0000 H   0  0  0  0  0  0  0  0  0  0  0  0
   10.0465   -7.5152    0.0000 H   0  0  0  0  0  0  0  0  0  0  0  0
   11.2714   -9.2472    0.0000 H   0  0  0  0  0  0  0  0  0  0  0  0
   12.4068  -10.1566    0.0000 C   0  0  0  0  0  0  0  0  0  0  0  0
   10.9146  -10.1613    0.0000 C   0  0  0  0  0  0  0  0  0  0  0  0
   10.1565   -8.8670    0.0000 H   0  0  0  0  0  0  0  0  0  0  0  0
   10.1805  -11.4604    0.0000 C   0  0  0  0  0  0  0  0  0  0  0  0
    8.6805  -11.4720    0.0000 H   0  0  0  0  0  0  0  0  0  0  0  0
   10.9386  -12.7548    0.0000 C   0  0  0  0  0  0  0  0  0  0  0  0
   12.4307  -12.7500    0.0000 C   0  0  0  0  0  0  0  0  0  0  0  0
   13.1888  -14.0444    0.0000 H   0  0  0  0  0  0  0  0  0  0  0  0
   13.1648  -11.4509    0.0000 C   0  0  0  0  0  0  0  0  0  0  0  0
   15.6248  -11.4319    0.0000 C   0  0  0  0  0  0  0  0  0  0  0  0
   16.5978  -12.5735    0.0000 H   0  0  0  0  0  0  0  0  0  0  0  0
   14.6695  -12.5884    0.0000 H   0  0  0  0  0  0  0  0  0  0  0  0
   17.7456  -10.1855    0.0000 C   0  0  0  0  0  0  0  0  0  0  0  0
   16.7726   -9.0439    0.0000 H   0  0  0  0  0  0  0  0  0  0  0  0
   18.7009   -9.0290    0.0000 H   0  0  0  0  0  0  0  0  0  0  0  0
   19.4680  -11.1622    0.0000 C   0  0  2  0  0  0  0  0  0  0  0  0
   20.4410  -12.3038    0.0000 H   0  0  0  0  0  0  0  0  0  0  0  0
   20.7612  -10.4022    0.0000 C   0  0  0  0  0  0  0  0  0  0  0  0
   22.0677  -11.1407    0.0000 C   0  0  0  0  0  0  0  0  0  0  0  0
   22.0815  -12.6407    0.0000 H   0  0  0  0  0  0  0  0  0  0  0  0
   23.3596  -10.3786    0.0000 C   0  0  0  0  0  0  0  0  0  0  0  0
   23.3450   -8.8778    0.0000 C   0  0  0  0  0  0  0  0  0  0  0  0
   24.6357   -8.1134    0.0000 H   0  0  0  0  0  0  0  0  0  0  0  0
   22.0436   -8.1478    0.0000 C   0  0  0  0  0  0  0  0  0  0  0  0
   22.0272   -6.6479    0.0000 H   0  0  0  0  0  0  0  0  0  0  0  0
   20.7516   -8.9100    0.0000 C   0  0  0  0  0  0  0  0  0  0  0  0
   19.4467   -8.1703    0.0000 H   0  0  0  0  0  0  0  0  0  0  0  0
   24.6658  -11.1161    0.0000 C   0  0  0  0  0  0  0  0  0  0  0  0
   25.9576  -10.3537    0.0000 H   0  0  0  0  0  0  0  0  0  0  0  0
   24.6801  -12.6160    0.0000 C   0  0  0  0  0  0  0  0  0  0  0  0
   23.3883  -13.3784    0.0000 H   0  0  0  0  0  0  0  0  0  0  0  0
   25.9863  -13.3536    0.0000 C   0  0  0  0  0  0  0  0  0  0  0  0
   26.0009  -14.8543    0.0000 N   0  0  0  0  0  0  0  0  0  0  0  0
   27.3074  -15.5929    0.0000 C   0  0  0  0  0  0  0  0  0  0  0  0
   27.3220  -17.0937    0.0000 C   0  0  0  0  0  0  0  0  0  0  0  0
   26.0301  -17.8559    0.0000 H   0  0  0  0  0  0  0  0  0  0  0  0
   28.6285  -17.8322    0.0000 C   0  0  0  0  0  0  0  0  0  0  0  0
   29.9204  -17.0701    0.0000 C   0  0  0  0  0  0  0  0  0  0  0  0
   31.2266  -17.8076    0.0000 H   0  0  0  0  0  0  0  0  0  0  0  0
   29.9058  -15.5693    0.0000 C   0  0  0  0  0  0  0  0  0  0  0  0
   31.1978  -14.8071    0.0000 H   0  0  0  0  0  0  0  0  0  0  0  0
   28.5993  -14.8307    0.0000 C   0  0  0  0  0  0  0  0  0  0  0  0
   28.5847  -13.3300    0.0000 C   0  0  0  0  0  0  0  0  0  0  0  0
   29.8766  -12.5678    0.0000 H   0  0  0  0  0  0  0  0  0  0  0  0
   27.2782  -12.5914    0.0000 C   0  0  0  0  0  0  0  0  0  0  0  0
   27.2643  -11.0914    0.0000 H   0  0  0  0  0  0  0  0  0  0  0  0
   28.6424  -19.3322    0.0000 Cl  0  0  0  0  0  0  0  0  0  0  0  0
   18.5127  -12.3187    0.0000 S   0  0  0  0  0  0  0  0  0  0  0  0
   19.2043  -14.1740    0.0000 C   0  0  0  0  0  0  0  0  0  0  0  0
   20.1773  -15.3156    0.0000 H   0  0  0  0  0  0  0  0  0  0  0  0
   20.4974  -13.4140    0.0000 H   0  0  0  0  0  0  0  0  0  0  0  0
   18.2490  -15.3305    0.0000 C   0  0  0  0  0  0  0  0  0  0  0  0
   19.2227  -16.4726    0.0000 C   0  0  0  0  0  0  0  0  0  0  0  0
   19.7461  -17.8783    0.0000 H   0  0  0  0  0  0  0  0  0  0  0  0
   21.3437  -15.2264    0.0000 H   0  0  0  0  0  0  0  0  0  0  0  0
   17.7466  -16.7438    0.0000 C   0  0  0  0  0  0  0  0  0  0  0  0
   16.2675  -16.4943    0.0000 H   0  0  0  0  0  0  0  0  0  0  0  0
   17.7575  -18.2438    0.0000 H   0  0  0  0  0  0  0  0  0  0  0  0
   16.9443  -14.5904    0.0000 C   0  0  0  0  0  0  0  0  0  0  0  0
   17.8997  -13.4340    0.0000 H   0  0  0  0  0  0  0  0  0  0  0  0
   15.9713  -13.4487    0.0000 H   0  0  0  0  0  0  0  0  0  0  0  0
   14.8233  -15.8366    0.0000 C   0  0  0  0  0  0  0  0  0  0  0  0
   13.5186  -15.0965    0.0000 O   0  0  0  0  0  0  0  0  0  0  0  0
   14.8347  -17.3366    0.0000 O   0  0  0  0  0  0  0  0  0  0  0  0
   13.5414  -18.0964    0.0000 H   0  0  0  0  0  0  0  0  0  0  0  0
   10.1947  -14.0573    0.0000 O   0  0  0  0  0  0  0  0  0  0  0  0
    8.6947  -14.0644    0.0000 H   0  0  0  0  0  0  0  0  0  0  0  0
   13.6422   -6.9588    0.0000 O   0  0  0  0  0  0  0  0  0  0  0  0
   12.4886   -6.0000    0.0000 H   0  0  0  0  0  0  0  0  0  0  0  0
  1  2  1  0  0  0  0 
  1  3  1  0  0  0  0 
  1  4  1  0  0  0  0 
  1  5  1  0  0  0  0 
  5  6  1  0  0  0  0 
  6  7  1  0  0  0  0 
  6  8  1  0  0  0  0 
  6  9  1  0  0  0  0 
  5 10  1  0  0  0  0 
 10 11  2  0  0  0  0 
 11 12  1  0  0  0  0 
 11 13  1  0  0  0  0 
 13 14  1  0  0  0  0 
 13 15  2  0  0  0  0 
 15 16  1  0  0  0  0 
 16 17  1  0  0  0  0 
 16 18  2  0  0  0  0 
 10 18  1  0  0  0  0 
 18 19  1  0  0  0  0 
 19 20  1  0  0  0  0 
 19 21  1  0  0  0  0 
 19 22  1  0  0  0  0 
 22 23  1  0  0  0  0 
 22 24  1  0  0  0  0 
 22 25  1  0  0  0  0 
 25 26  1  1  0  0  0 
 25 27  1  0  0  0  0 
 27 28  2  0  0  0  0 
 28 29  1  0  0  0  0 
 28 30  1  0  0  0  0 
 30 31  2  0  0  0  0 
 31 32  1  0  0  0  0 
 31 33  1  0  0  0  0 
 33 34  1  0  0  0  0 
 33 35  2  0  0  0  0 
 27 35  1  0  0  0  0 
 35 36  1  0  0  0  0 
 30 37  1  0  0  0  0 
 37 38  1  0  0  0  0 
 37 39  2  0  0  0  0 
 39 40  1  0  0  0  0 
 39 41  1  0  0  0  0 
 41 42  2  0  0  0  0 
 42 43  1  0  0  0  0 
 43 44  2  0  0  0  0 
 44 45  1  0  0  0  0 
 44 46  1  0  0  0  0 
 46 47  2  0  0  0  0 
 47 48  1  0  0  0  0 
 47 49  1  0  0  0  0 
 49 50  1  0  0  0  0 
 49 51  2  0  0  0  0 
 43 51  1  0  0  0  0 
 51 52  1  0  0  0  0 
 52 53  1  0  0  0  0 
 52 54  2  0  0  0  0 
 41 54  1  0  0  0  0 
 54 55  1  0  0  0  0 
 46 56  1  0  0  0  0 
 25 57  1  6  0  0  0 
 57 58  1  0  0  0  0 
 58 59  1  0  0  0  0 
 58 60  1  0  0  0  0 
 58 61  1  0  0  0  0 
 61 62  1  0  0  0  0 
 62 63  1  0  0  0  0 
 62 64  1  0  0  0  0 
 62 65  1  0  0  0  0 
 61 65  1  0  0  0  0 
 65 66  1  0  0  0  0 
 65 67  1  0  0  0  0 
 61 68  1  0  0  0  0 
 68 69  1  0  0  0  0 
 68 70  1  0  0  0  0 
 68 71  1  0  0  0  0 
 71 72  2  0  0  0  0 
 71 73  1  0  0  0  0 
 73 74  1  0  0  0  0 
 15 75  1  0  0  0  0 
 75 76  1  0  0  0  0 
  5 77  1  0  0  0  0 
 77 78  1  0  0  0  0 
M  END
> <Rank>
4

> <Priority_score>
0.612

> <Reaction_type>
aromatic_hydroxylation_(para_to_carbon)

> <Parent_ID>
7

> <Parent_InChI>
InChI=1S/C35H36ClNO3S/c1-34(2,40)30-9-4-3-7-25(30)13-17-32(41-23-35(18-19-35)22-33(38)39)27-8-5-6-24(20-27)10-15-29-16-12-26-11-14-28(36)21-31(26)37-29/h3-12,14-16,20-21,32,40H,13,17-19,22-23H2,1-2H3,(H,38,39)

> <Parent_SMILES>
CC(C)(O)c1ccccc1CC[C@@H](SCC1(CC(=O)O)CC1)c1cccc(/C=C/c2ccc3ccc(Cl)cc3n2)c1

$$$$
Molecule 7_metabolite 6
  CDK     0516241031

 77 81  0  0  0  0  0  0  0  0999 V2000
   10.2237   -5.7746    0.0000 C   0  0  0  0  0  0  0  0  0  0  0  0
    9.7109   -7.1842    0.0000 H   0  0  0  0  0  0  0  0  0  0  0  0
    8.7237   -5.7748    0.0000 H   0  0  0  0  0  0  0  0  0  0  0  0
   10.2235   -4.2746    0.0000 H   0  0  0  0  0  0  0  0  0  0  0  0
   12.1736   -5.4305    0.0000 C   0  0  0  0  0  0  0  0  0  0  0  0
   12.1739   -7.4105    0.0000 C   0  0  0  0  0  0  0  0  0  0  0  0
   10.8753   -8.1628    0.0000 C   0  0  0  0  0  0  0  0  0  0  0  0
   10.8780   -9.6628    0.0000 C   0  0  0  0  0  0  0  0  0  0  0  0
    9.5805  -10.4154    0.0000 H   0  0  0  0  0  0  0  0  0  0  0  0
   12.1794  -10.4105    0.0000 C   0  0  0  0  0  0  0  0  0  0  0  0
   12.1847  -11.9104    0.0000 H   0  0  0  0  0  0  0  0  0  0  0  0
   13.4680   -9.6581    0.0000 C   0  0  0  0  0  0  0  0  0  0  0  0
   14.7696  -10.4037    0.0000 H   0  0  0  0  0  0  0  0  0  0  0  0
   13.4653   -8.1581    0.0000 C   0  0  0  0  0  0  0  0  0  0  0  0
   14.7641   -7.4077    0.0000 H   0  0  0  0  0  0  0  0  0  0  0  0
    8.3267   -6.6971    0.0000 C   0  0  0  0  0  0  0  0  0  0  0  0
    6.8491   -6.4391    0.0000 H   0  0  0  0  0  0  0  0  0  0  0  0
    7.8161   -8.1075    0.0000 H   0  0  0  0  0  0  0  0  0  0  0  0
    8.3234   -4.7171    0.0000 C   0  0  0  0  0  0  0  0  0  0  0  0
    9.8011   -4.9751    0.0000 H   0  0  0  0  0  0  0  0  0  0  0  0
    8.8341   -3.3067    0.0000 H   0  0  0  0  0  0  0  0  0  0  0  0
    6.6070   -3.7300    0.0000 C   0  0  2  0  0  0  0  0  0  0  0  0
    5.1294   -3.4720    0.0000 H   0  0  0  0  0  0  0  0  0  0  0  0
    6.6045   -2.2300    0.0000 C   0  0  0  0  0  0  0  0  0  0  0  0
    5.3045   -1.4800    0.0000 C   0  0  0  0  0  0  0  0  0  0  0  0
    4.0056   -2.2302    0.0000 H   0  0  0  0  0  0  0  0  0  0  0  0
    5.3045    0.0200    0.0000 C   0  0  0  0  0  0  0  0  0  0  0  0
    6.6045    0.7700    0.0000 C   0  0  0  0  0  0  0  0  0  0  0  0
    6.6070    2.2700    0.0000 H   0  0  0  0  0  0  0  0  0  0  0  0
    7.8945    0.0200    0.0000 C   0  0  0  0  0  0  0  0  0  0  0  0
    9.1947    0.7680    0.0000 H   0  0  0  0  0  0  0  0  0  0  0  0
    7.8945   -1.4800    0.0000 C   0  0  0  0  0  0  0  0  0  0  0  0
    9.1947   -2.2280    0.0000 H   0  0  0  0  0  0  0  0  0  0  0  0
    4.0056    0.7702    0.0000 C   0  0  0  0  0  0  0  0  0  0  0  0
    4.0058    2.2702    0.0000 H   0  0  0  0  0  0  0  0  0  0  0  0
    2.7064    0.0204    0.0000 C   0  0  0  0  0  0  0  0  0  0  0  0
    2.7062   -1.4796    0.0000 H   0  0  0  0  0  0  0  0  0  0  0  0
    1.4075    0.7706    0.0000 C   0  0  0  0  0  0  0  0  0  0  0  0
    0.1075    0.0206    0.0000 N   0  0  0  0  0  0  0  0  0  0  0  0
   -1.1925    0.7706    0.0000 C   0  0  0  0  0  0  0  0  0  0  0  0
   -2.4925    0.0206    0.0000 C   0  0  0  0  0  0  0  0  0  0  0  0
   -2.4925   -1.4794    0.0000 H   0  0  0  0  0  0  0  0  0  0  0  0
   -3.7925    0.7706    0.0000 C   0  0  0  0  0  0  0  0  0  0  0  0
   -3.7925    2.2706    0.0000 C   0  0  0  0  0  0  0  0  0  0  0  0
   -5.0914    3.0208    0.0000 H   0  0  0  0  0  0  0  0  0  0  0  0
   -2.4925    3.0206    0.0000 C   0  0  0  0  0  0  0  0  0  0  0  0
   -2.4925    4.5206    0.0000 H   0  0  0  0  0  0  0  0  0  0  0  0
   -1.1925    2.2706    0.0000 C   0  0  0  0  0  0  0  0  0  0  0  0
    0.1075    3.0206    0.0000 C   0  0  0  0  0  0  0  0  0  0  0  0
    0.1075    4.5206    0.0000 H   0  0  0  0  0  0  0  0  0  0  0  0
    1.4075    2.2706    0.0000 C   0  0  0  0  0  0  0  0  0  0  0  0
    2.7064    3.0208    0.0000 H   0  0  0  0  0  0  0  0  0  0  0  0
   -5.0914    0.0204    0.0000 Cl  0  0  0  0  0  0  0  0  0  0  0  0
    6.0964   -5.1404    0.0000 S   0  0  0  0  0  0  0  0  0  0  0  0
    4.1470   -5.4875    0.0000 C   0  0  0  0  0  0  0  0  0  0  0  0
    2.6694   -5.2295    0.0000 H   0  0  0  0  0  0  0  0  0  0  0  0
    4.1445   -3.9875    0.0000 H   0  0  0  0  0  0  0  0  0  0  0  0
    3.6363   -6.8979    0.0000 C   0  0  0  0  0  0  0  0  0  0  0  0
    2.1579   -6.6396    0.0000 C   0  0  0  0  0  0  0  0  0  0  0  0
    0.6812   -6.9030    0.0000 H   0  0  0  0  0  0  0  0  0  0  0  0
    2.1535   -4.1796    0.0000 H   0  0  0  0  0  0  0  0  0  0  0  0
    2.6743   -8.0487    0.0000 C   0  0  0  0  0  0  0  0  0  0  0  0
    3.6408   -9.1959    0.0000 H   0  0  0  0  0  0  0  0  0  0  0  0
    1.3769   -8.8015    0.0000 H   0  0  0  0  0  0  0  0  0  0  0  0
    4.9367   -7.6455    0.0000 C   0  0  0  0  0  0  0  0  0  0  0  0
    5.4472   -6.2351    0.0000 H   0  0  0  0  0  0  0  0  0  0  0  0
    6.4144   -7.9034    0.0000 H   0  0  0  0  0  0  0  0  0  0  0  0
    4.9411  -10.1055    0.0000 C   0  0  0  0  0  0  0  0  0  0  0  0
    6.2415  -10.8532    0.0000 O   0  0  0  0  0  0  0  0  0  0  0  0
    3.6434  -10.8579    0.0000 O   0  0  0  0  0  0  0  0  0  0  0  0
    3.6461  -12.3579    0.0000 H   0  0  0  0  0  0  0  0  0  0  0  0
   13.4725   -4.6802    0.0000 C   0  0  0  0  0  0  0  0  0  0  0  0
   13.4723   -3.1802    0.0000 O   0  0  0  0  0  0  0  0  0  0  0  0
   14.7717   -5.4300    0.0000 O   0  0  0  0  0  0  0  0  0  0  0  0
   16.0706   -4.6798    0.0000 H   0  0  0  0  0  0  0  0  0  0  0  0
   11.6603   -4.0210    0.0000 O   0  0  0  0  0  0  0  0  0  0  0  0
   12.6243   -2.8718    0.0000 H   0  0  0  0  0  0  0  0  0  0  0  0
  1  2  1  0  0  0  0 
  1  3  1  0  0  0  0 
  1  4  1  0  0  0  0 
  1  5  1  0  0  0  0 
  5  6  1  0  0  0  0 
  6  7  2  0  0  0  0 
  7  8  1  0  0  0  0 
  8  9  1  0  0  0  0 
  8 10  2  0  0  0  0 
 10 11  1  0  0  0  0 
 10 12  1  0  0  0  0 
 12 13  1  0  0  0  0 
 12 14  2  0  0  0  0 
  6 14  1  0  0  0  0 
 14 15  1  0  0  0  0 
  7 16  1  0  0  0  0 
 16 17  1  0  0  0  0 
 16 18  1  0  0  0  0 
 16 19  1  0  0  0  0 
 19 20  1  0  0  0  0 
 19 21  1  0  0  0  0 
 19 22  1  0  0  0  0 
 22 23  1  6  0  0  0 
 22 24  1  0  0  0  0 
 24 25  2  0  0  0  0 
 25 26  1  0  0  0  0 
 25 27  1  0  0  0  0 
 27 28  2  0  0  0  0 
 28 29  1  0  0  0  0 
 28 30  1  0  0  0  0 
 30 31  1  0  0  0  0 
 30 32  2  0  0  0  0 
 24 32  1  0  0  0  0 
 32 33  1  0  0  0  0 
 27 34  1  0  0  0  0 
 34 35  1  0  0  0  0 
 34 36  2  0  0  0  0 
 36 37  1  0  0  0  0 
 36 38  1  0  0  0  0 
 38 39  2  0  0  0  0 
 39 40  1  0  0  0  0 
 40 41  2  0  0  0  0 
 41 42  1  0  0  0  0 
 41 43  1  0  0  0  0 
 43 44  2  0  0  0  0 
 44 45  1  0  0  0  0 
 44 46  1  0  0  0  0 
 46 47  1  0  0  0  0 
 46 48  2  0  0  0  0 
 40 48  1  0  0  0  0 
 48 49  1  0  0  0  0 
 49 50  1  0  0  0  0 
 49 51  2  0  0  0  0 
 38 51  1  0  0  0  0 
 51 52  1  0  0  0  0 
 43 53  1  0  0  0  0 
 22 54  1  1  0  0  0 
 54 55  1  0  0  0  0 
 55 56  1  0  0  0  0 
 55 57  1  0  0  0  0 
 55 58  1  0  0  0  0 
 58 59  1  0  0  0  0 
 59 60  1  0  0  0  0 
 59 61  1  0  0  0  0 
 59 62  1  0  0  0  0 
 58 62  1  0  0  0  0 
 62 63  1  0  0  0  0 
 62 64  1  0  0  0  0 
 58 65  1  0  0  0  0 
 65 66  1  0  0  0  0 
 65 67  1  0  0  0  0 
 65 68  1  0  0  0  0 
 68 69  2  0  0  0  0 
 68 70  1  0  0  0  0 
 70 71  1  0  0  0  0 
  5 72  1  0  0  0  0 
 72 73  2  0  0  0  0 
 72 74  1  0  0  0  0 
 74 75  1  0  0  0  0 
  5 76  1  0  0  0  0 
 76 77  1  0  0  0  0 
M  END
> <Rank>
6

> <Priority_score>
0.604

> <Reaction_type>
carboxylation_(primary_carbon_next_to_quart_carbon)

> <Parent_ID>
7

> <Parent_InChI>
InChI=1S/C35H36ClNO3S/c1-34(2,40)30-9-4-3-7-25(30)13-17-32(41-23-35(18-19-35)22-33(38)39)27-8-5-6-24(20-27)10-15-29-16-12-26-11-14-28(36)21-31(26)37-29/h3-12,14-16,20-21,32,40H,13,17-19,22-23H2,1-2H3,(H,38,39)

> <Parent_SMILES>
CC(C)(O)c1ccccc1CC[C@@H](SCC1(CC(=O)O)CC1)c1cccc(/C=C/c2ccc3ccc(Cl)cc3n2)c1

$$$$
Molecule 7_metabolite 7
  CDK     0516241031

 74 78  0  0  0  0  0  0  0  0999 V2000
    8.9187   -8.4764    0.0000 C   0  0  0  0  0  0  0  0  0  0  0  0
    6.7922   -9.7132    0.0000 H   0  0  0  0  0  0  0  0  0  0  0  0
    8.9139   -6.9764    0.0000 H   0  0  0  0  0  0  0  0  0  0  0  0
   10.2201   -9.2223    0.0000 C   0  0  0  0  0  0  0  0  0  0  0  0
   10.2279  -11.6823    0.0000 C   0  0  0  0  0  0  0  0  0  0  0  0
   11.5293  -12.4281    0.0000 H   0  0  0  0  0  0  0  0  0  0  0  0
    8.7499  -11.4265    0.0000 H   0  0  0  0  0  0  0  0  0  0  0  0
    9.7194  -13.0934    0.0000 H   0  0  0  0  0  0  0  0  0  0  0  0
   11.5167   -8.4681    0.0000 C   0  0  0  0  0  0  0  0  0  0  0  0
   11.5140   -6.9673    0.0000 C   0  0  0  0  0  0  0  0  0  0  0  0
   12.8119   -6.2153    0.0000 C   0  0  0  0  0  0  0  0  0  0  0  0
   12.8098   -4.7153    0.0000 H   0  0  0  0  0  0  0  0  0  0  0  0
   14.1125   -6.9642    0.0000 C   0  0  0  0  0  0  0  0  0  0  0  0
   15.4117   -6.2144    0.0000 H   0  0  0  0  0  0  0  0  0  0  0  0
   14.1103   -8.4564    0.0000 C   0  0  0  0  0  0  0  0  0  0  0  0
   15.4093   -9.2064    0.0000 H   0  0  0  0  0  0  0  0  0  0  0  0
   12.8124   -9.2084    0.0000 C   0  0  0  0  0  0  0  0  0  0  0  0
   12.8169  -10.7083    0.0000 H   0  0  0  0  0  0  0  0  0  0  0  0
   10.2137   -6.2195    0.0000 C   0  0  0  0  0  0  0  0  0  0  0  0
    8.7360   -5.9615    0.0000 H   0  0  0  0  0  0  0  0  0  0  0  0
    9.7030   -7.6299    0.0000 H   0  0  0  0  0  0  0  0  0  0  0  0
   10.2112   -4.7195    0.0000 C   0  0  0  0  0  0  0  0  0  0  0  0
   11.6888   -4.9775    0.0000 H   0  0  0  0  0  0  0  0  0  0  0  0
   10.7218   -3.3091    0.0000 H   0  0  0  0  0  0  0  0  0  0  0  0
    8.4948   -3.7324    0.0000 C   0  0  2  0  0  0  0  0  0  0  0  0
    7.0171   -3.4744    0.0000 H   0  0  0  0  0  0  0  0  0  0  0  0
    8.4923   -2.2324    0.0000 C   0  0  0  0  0  0  0  0  0  0  0  0
    7.1923   -1.4824    0.0000 C   0  0  0  0  0  0  0  0  0  0  0  0
    5.8933   -2.2326    0.0000 H   0  0  0  0  0  0  0  0  0  0  0  0
    7.1923    0.0176    0.0000 C   0  0  0  0  0  0  0  0  0  0  0  0
    8.4923    0.7676    0.0000 C   0  0  0  0  0  0  0  0  0  0  0  0
    8.4948    2.2676    0.0000 H   0  0  0  0  0  0  0  0  0  0  0  0
    9.7823    0.0176    0.0000 C   0  0  0  0  0  0  0  0  0  0  0  0
   11.0824    0.7657    0.0000 H   0  0  0  0  0  0  0  0  0  0  0  0
    9.7823   -1.4824    0.0000 C   0  0  0  0  0  0  0  0  0  0  0  0
   11.0824   -2.2304    0.0000 H   0  0  0  0  0  0  0  0  0  0  0  0
    5.8933    0.7678    0.0000 C   0  0  0  0  0  0  0  0  0  0  0  0
    5.8936    2.2678    0.0000 H   0  0  0  0  0  0  0  0  0  0  0  0
    4.5942    0.0181    0.0000 C   0  0  0  0  0  0  0  0  0  0  0  0
    4.5939   -1.4819    0.0000 H   0  0  0  0  0  0  0  0  0  0  0  0
    3.2953    0.7683    0.0000 C   0  0  0  0  0  0  0  0  0  0  0  0
    1.9953    0.0183    0.0000 N   0  0  0  0  0  0  0  0  0  0  0  0
    0.6953    0.7683    0.0000 C   0  0  0  0  0  0  0  0  0  0  0  0
   -0.6047    0.0183    0.0000 C   0  0  0  0  0  0  0  0  0  0  0  0
   -0.6047   -1.4817    0.0000 H   0  0  0  0  0  0  0  0  0  0  0  0
   -1.9047    0.7683    0.0000 C   0  0  0  0  0  0  0  0  0  0  0  0
   -1.9047    2.2683    0.0000 C   0  0  0  0  0  0  0  0  0  0  0  0
   -3.2036    3.0185    0.0000 H   0  0  0  0  0  0  0  0  0  0  0  0
   -0.6047    3.0183    0.0000 C   0  0  0  0  0  0  0  0  0  0  0  0
   -0.6047    4.5183    0.0000 H   0  0  0  0  0  0  0  0  0  0  0  0
    0.6953    2.2683    0.0000 C   0  0  0  0  0  0  0  0  0  0  0  0
    1.9953    3.0183    0.0000 C   0  0  0  0  0  0  0  0  0  0  0  0
    1.9953    4.5183    0.0000 H   0  0  0  0  0  0  0  0  0  0  0  0
    3.2953    2.2683    0.0000 C   0  0  0  0  0  0  0  0  0  0  0  0
    4.5942    3.0185    0.0000 H   0  0  0  0  0  0  0  0  0  0  0  0
   -3.2036    0.0181    0.0000 Cl  0  0  0  0  0  0  0  0  0  0  0  0
    6.9801   -5.0076    0.0000 S   0  0  0  0  0  0  0  0  0  0  0  0
    5.5697   -4.4969    0.0000 C   0  0  0  0  0  0  0  0  0  0  0  0
    4.4191   -3.5347    0.0000 H   0  0  0  0  0  0  0  0  0  0  0  0
    6.3176   -3.1967    0.0000 H   0  0  0  0  0  0  0  0  0  0  0  0
    4.4223   -5.4631    0.0000 C   0  0  0  0  0  0  0  0  0  0  0  0
    3.2711   -4.5001    0.0000 C   0  0  0  0  0  0  0  0  0  0  0  0
    1.8605   -3.9899    0.0000 H   0  0  0  0  0  0  0  0  0  0  0  0
    4.2580   -2.7836    0.0000 H   0  0  0  0  0  0  0  0  0  0  0  0
    3.0137   -5.9787    0.0000 C   0  0  0  0  0  0  0  0  0  0  0  0
    3.2771   -7.4554    0.0000 H   0  0  0  0  0  0  0  0  0  0  0  0
    1.5137   -5.9819    0.0000 H   0  0  0  0  0  0  0  0  0  0  0  0
    5.4153   -7.1760    0.0000 C   0  0  0  0  0  0  0  0  0  0  0  0
    6.5627   -6.2098    0.0000 H   0  0  0  0  0  0  0  0  0  0  0  0
    6.5661   -8.1381    0.0000 H   0  0  0  0  0  0  0  0  0  0  0  0
    4.6677   -8.4764    0.0000 C   0  0  0  0  0  0  0  0  0  0  0  0
    5.4200   -9.7741    0.0000 O   0  0  0  0  0  0  0  0  0  0  0  0
    3.1677   -8.4791    0.0000 O   0  0  0  0  0  0  0  0  0  0  0  0
    2.4200   -9.7794    0.0000 H   0  0  0  0  0  0  0  0  0  0  0  0
  1  2  1  0  0  0  0 
  1  3  1  0  0  0  0 
  1  4  2  0  0  0  0 
  4  5  1  0  0  0  0 
  5  6  1  0  0  0  0 
  5  7  1  0  0  0  0 
  5  8  1  0  0  0  0 
  4  9  1  0  0  0  0 
  9 10  2  0  0  0  0 
 10 11  1  0  0  0  0 
 11 12  1  0  0  0  0 
 11 13  2  0  0  0  0 
 13 14  1  0  0  0  0 
 13 15  1  0  0  0  0 
 15 16  1  0  0  0  0 
 15 17  2  0  0  0  0 
  9 17  1  0  0  0  0 
 17 18  1  0  0  0  0 
 10 19  1  0  0  0  0 
 19 20  1  0  0  0  0 
 19 21  1  0  0  0  0 
 19 22  1  0  0  0  0 
 22 23  1  0  0  0  0 
 22 24  1  0  0  0  0 
 22 25  1  0  0  0  0 
 25 26  1  6  0  0  0 
 25 27  1  0  0  0  0 
 27 28  2  0  0  0  0 
 28 29  1  0  0  0  0 
 28 30  1  0  0  0  0 
 30 31  2  0  0  0  0 
 31 32  1  0  0  0  0 
 31 33  1  0  0  0  0 
 33 34  1  0  0  0  0 
 33 35  2  0  0  0  0 
 27 35  1  0  0  0  0 
 35 36  1  0  0  0  0 
 30 37  1  0  0  0  0 
 37 38  1  0  0  0  0 
 37 39  2  0  0  0  0 
 39 40  1  0  0  0  0 
 39 41  1  0  0  0  0 
 41 42  2  0  0  0  0 
 42 43  1  0  0  0  0 
 43 44  2  0  0  0  0 
 44 45  1  0  0  0  0 
 44 46  1  0  0  0  0 
 46 47  2  0  0  0  0 
 47 48  1  0  0  0  0 
 47 49  1  0  0  0  0 
 49 50  1  0  0  0  0 
 49 51  2  0  0  0  0 
 43 51  1  0  0  0  0 
 51 52  1  0  0  0  0 
 52 53  1  0  0  0  0 
 52 54  2  0  0  0  0 
 41 54  1  0  0  0  0 
 54 55  1  0  0  0  0 
 46 56  1  0  0  0  0 
 25 57  1  1  0  0  0 
 57 58  1  0  0  0  0 
 58 59  1  0  0  0  0 
 58 60  1  0  0  0  0 
 58 61  1  0  0  0  0 
 61 62  1  0  0  0  0 
 62 63  1  0  0  0  0 
 62 64  1  0  0  0  0 
 62 65  1  0  0  0  0 
 61 65  1  0  0  0  0 
 65 66  1  0  0  0  0 
 65 67  1  0  0  0  0 
 61 68  1  0  0  0  0 
 68 69  1  0  0  0  0 
 68 70  1  0  0  0  0 
 68 71  1  0  0  0  0 
 71 72  2  0  0  0  0 
 71 73  1  0  0  0  0 
 73 74  1  0  0  0  0 
M  END
> <Rank>
6

> <Priority_score>
0.604

> <Reaction_type>
dehydration_next_to_SP2_a

> <Parent_ID>
7

> <Parent_InChI>
InChI=1S/C35H36ClNO3S/c1-34(2,40)30-9-4-3-7-25(30)13-17-32(41-23-35(18-19-35)22-33(38)39)27-8-5-6-24(20-27)10-15-29-16-12-26-11-14-28(36)21-31(26)37-29/h3-12,14-16,20-21,32,40H,13,17-19,22-23H2,1-2H3,(H,38,39)

> <Parent_SMILES>
CC(C)(O)c1ccccc1CC[C@@H](SCC1(CC(=O)O)CC1)c1cccc(/C=C/c2ccc3ccc(Cl)cc3n2)c1

$$$$
Molecule 7_metabolite 8
  CDK     0516241031

 78 82  0  0  0  0  0  0  0  0999 V2000
   10.2237   -5.7746    0.0000 C   0  0  0  0  0  0  0  0  0  0  0  0
    9.7109   -7.1842    0.0000 H   0  0  0  0  0  0  0  0  0  0  0  0
    8.7237   -5.7748    0.0000 H   0  0  0  0  0  0  0  0  0  0  0  0
   10.2235   -4.2746    0.0000 H   0  0  0  0  0  0  0  0  0  0  0  0
   12.1736   -5.4305    0.0000 C   0  0  0  0  0  0  0  0  0  0  0  0
   13.4725   -4.6802    0.0000 C   0  0  0  0  0  0  0  0  0  0  0  0
   13.9858   -6.0897    0.0000 H   0  0  0  0  0  0  0  0  0  0  0  0
   14.9497   -4.4195    0.0000 H   0  0  0  0  0  0  0  0  0  0  0  0
   13.4723   -3.1802    0.0000 O   0  0  0  0  0  0  0  0  0  0  0  0
   14.7712   -2.4300    0.0000 H   0  0  0  0  0  0  0  0  0  0  0  0
   12.1739   -7.4105    0.0000 C   0  0  0  0  0  0  0  0  0  0  0  0
   10.8753   -8.1628    0.0000 C   0  0  0  0  0  0  0  0  0  0  0  0
   10.8780   -9.6628    0.0000 C   0  0  0  0  0  0  0  0  0  0  0  0
    9.5805  -10.4154    0.0000 H   0  0  0  0  0  0  0  0  0  0  0  0
   12.1794  -10.4105    0.0000 C   0  0  0  0  0  0  0  0  0  0  0  0
   12.1847  -11.9104    0.0000 H   0  0  0  0  0  0  0  0  0  0  0  0
   13.4680   -9.6581    0.0000 C   0  0  0  0  0  0  0  0  0  0  0  0
   14.7696  -10.4037    0.0000 H   0  0  0  0  0  0  0  0  0  0  0  0
   13.4653   -8.1581    0.0000 C   0  0  0  0  0  0  0  0  0  0  0  0
   14.7641   -7.4077    0.0000 H   0  0  0  0  0  0  0  0  0  0  0  0
    8.3267   -6.6971    0.0000 C   0  0  0  0  0  0  0  0  0  0  0  0
    6.8491   -6.4391    0.0000 H   0  0  0  0  0  0  0  0  0  0  0  0
    7.8161   -8.1075    0.0000 H   0  0  0  0  0  0  0  0  0  0  0  0
    8.3234   -4.7171    0.0000 C   0  0  0  0  0  0  0  0  0  0  0  0
    9.8011   -4.9751    0.0000 H   0  0  0  0  0  0  0  0  0  0  0  0
    8.8341   -3.3067    0.0000 H   0  0  0  0  0  0  0  0  0  0  0  0
    6.6070   -3.7300    0.0000 C   0  0  2  0  0  0  0  0  0  0  0  0
    5.1294   -3.4720    0.0000 H   0  0  0  0  0  0  0  0  0  0  0  0
    6.6045   -2.2300    0.0000 C   0  0  0  0  0  0  0  0  0  0  0  0
    5.3045   -1.4800    0.0000 C   0  0  0  0  0  0  0  0  0  0  0  0
    4.0056   -2.2302    0.0000 H   0  0  0  0  0  0  0  0  0  0  0  0
    5.3045    0.0200    0.0000 C   0  0  0  0  0  0  0  0  0  0  0  0
    6.6045    0.7700    0.0000 C   0  0  0  0  0  0  0  0  0  0  0  0
    6.6070    2.2700    0.0000 H   0  0  0  0  0  0  0  0  0  0  0  0
    7.8945    0.0200    0.0000 C   0  0  0  0  0  0  0  0  0  0  0  0
    9.1947    0.7680    0.0000 H   0  0  0  0  0  0  0  0  0  0  0  0
    7.8945   -1.4800    0.0000 C   0  0  0  0  0  0  0  0  0  0  0  0
    9.1947   -2.2280    0.0000 H   0  0  0  0  0  0  0  0  0  0  0  0
    4.0056    0.7702    0.0000 C   0  0  0  0  0  0  0  0  0  0  0  0
    4.0058    2.2702    0.0000 H   0  0  0  0  0  0  0  0  0  0  0  0
    2.7064    0.0204    0.0000 C   0  0  0  0  0  0  0  0  0  0  0  0
    2.7062   -1.4796    0.0000 H   0  0  0  0  0  0  0  0  0  0  0  0
    1.4075    0.7706    0.0000 C   0  0  0  0  0  0  0  0  0  0  0  0
    0.1075    0.0206    0.0000 N   0  0  0  0  0  0  0  0  0  0  0  0
   -1.1925    0.7706    0.0000 C   0  0  0  0  0  0  0  0  0  0  0  0
   -2.4925    0.0206    0.0000 C   0  0  0  0  0  0  0  0  0  0  0  0
   -2.4925   -1.4794    0.0000 H   0  0  0  0  0  0  0  0  0  0  0  0
   -3.7925    0.7706    0.0000 C   0  0  0  0  0  0  0  0  0  0  0  0
   -3.7925    2.2706    0.0000 C   0  0  0  0  0  0  0  0  0  0  0  0
   -5.0914    3.0208    0.0000 H   0  0  0  0  0  0  0  0  0  0  0  0
   -2.4925    3.0206    0.0000 C   0  0  0  0  0  0  0  0  0  0  0  0
   -2.4925    4.5206    0.0000 H   0  0  0  0  0  0  0  0  0  0  0  0
   -1.1925    2.2706    0.0000 C   0  0  0  0  0  0  0  0  0  0  0  0
    0.1075    3.0206    0.0000 C   0  0  0  0  0  0  0  0  0  0  0  0
    0.1075    4.5206    0.0000 H   0  0  0  0  0  0  0  0  0  0  0  0
    1.4075    2.2706    0.0000 C   0  0  0  0  0  0  0  0  0  0  0  0
    2.7064    3.0208    0.0000 H   0  0  0  0  0  0  0  0  0  0  0  0
   -5.0914    0.0204    0.0000 Cl  0  0  0  0  0  0  0  0  0  0  0  0
    6.0964   -5.1404    0.0000 S   0  0  0  0  0  0  0  0  0  0  0  0
    4.1470   -5.4875    0.0000 C   0  0  0  0  0  0  0  0  0  0  0  0
    2.6694   -5.2295    0.0000 H   0  0  0  0  0  0  0  0  0  0  0  0
    4.1445   -3.9875    0.0000 H   0  0  0  0  0  0  0  0  0  0  0  0
    3.6363   -6.8979    0.0000 C   0  0  0  0  0  0  0  0  0  0  0  0
    2.1579   -6.6396    0.0000 C   0  0  0  0  0  0  0  0  0  0  0  0
    0.6812   -6.9030    0.0000 H   0  0  0  0  0  0  0  0  0  0  0  0
    2.1535   -4.1796    0.0000 H   0  0  0  0  0  0  0  0  0  0  0  0
    2.6743   -8.0487    0.0000 C   0  0  0  0  0  0  0  0  0  0  0  0
    3.6408   -9.1959    0.0000 H   0  0  0  0  0  0  0  0  0  0  0  0
    1.3769   -8.8015    0.0000 H   0  0  0  0  0  0  0  0  0  0  0  0
    4.9367   -7.6455    0.0000 C   0  0  0  0  0  0  0  0  0  0  0  0
    5.4472   -6.2351    0.0000 H   0  0  0  0  0  0  0  0  0  0  0  0
    6.4144   -7.9034    0.0000 H   0  0  0  0  0  0  0  0  0  0  0  0
    4.9411  -10.1055    0.0000 C   0  0  0  0  0  0  0  0  0  0  0  0
    6.2415  -10.8532    0.0000 O   0  0  0  0  0  0  0  0  0  0  0  0
    3.6434  -10.8579    0.0000 O   0  0  0  0  0  0  0  0  0  0  0  0
    3.6461  -12.3579    0.0000 H   0  0  0  0  0  0  0  0  0  0  0  0
   11.6603   -4.0210    0.0000 O   0  0  0  0  0  0  0  0  0  0  0  0
   12.6243   -2.8718    0.0000 H   0  0  0  0  0  0  0  0  0  0  0  0
  1  2  1  0  0  0  0 
  1  3  1  0  0  0  0 
  1  4  1  0  0  0  0 
  1  5  1  0  0  0  0 
  5  6  1  0  0  0  0 
  6  7  1  0  0  0  0 
  6  8  1  0  0  0  0 
  6  9  1  0  0  0  0 
  9 10  1  0  0  0  0 
  5 11  1  0  0  0  0 
 11 12  2  0  0  0  0 
 12 13  1  0  0  0  0 
 13 14  1  0  0  0  0 
 13 15  2  0  0  0  0 
 15 16  1  0  0  0  0 
 15 17  1  0  0  0  0 
 17 18  1  0  0  0  0 
 17 19  2  0  0  0  0 
 11 19  1  0  0  0  0 
 19 20  1  0  0  0  0 
 12 21  1  0  0  0  0 
 21 22  1  0  0  0  0 
 21 23  1  0  0  0  0 
 21 24  1  0  0  0  0 
 24 25  1  0  0  0  0 
 24 26  1  0  0  0  0 
 24 27  1  0  0  0  0 
 27 28  1  6  0  0  0 
 27 29  1  0  0  0  0 
 29 30  2  0  0  0  0 
 30 31  1  0  0  0  0 
 30 32  1  0  0  0  0 
 32 33  2  0  0  0  0 
 33 34  1  0  0  0  0 
 33 35  1  0  0  0  0 
 35 36  1  0  0  0  0 
 35 37  2  0  0  0  0 
 29 37  1  0  0  0  0 
 37 38  1  0  0  0  0 
 32 39  1  0  0  0  0 
 39 40  1  0  0  0  0 
 39 41  2  0  0  0  0 
 41 42  1  0  0  0  0 
 41 43  1  0  0  0  0 
 43 44  2  0  0  0  0 
 44 45  1  0  0  0  0 
 45 46  2  0  0  0  0 
 46 47  1  0  0  0  0 
 46 48  1  0  0  0  0 
 48 49  2  0  0  0  0 
 49 50  1  0  0  0  0 
 49 51  1  0  0  0  0 
 51 52  1  0  0  0  0 
 51 53  2  0  0  0  0 
 45 53  1  0  0  0  0 
 53 54  1  0  0  0  0 
 54 55  1  0  0  0  0 
 54 56  2  0  0  0  0 
 43 56  1  0  0  0  0 
 56 57  1  0  0  0  0 
 48 58  1  0  0  0  0 
 27 59  1  1  0  0  0 
 59 60  1  0  0  0  0 
 60 61  1  0  0  0  0 
 60 62  1  0  0  0  0 
 60 63  1  0  0  0  0 
 63 64  1  0  0  0  0 
 64 65  1  0  0  0  0 
 64 66  1  0  0  0  0 
 64 67  1  0  0  0  0 
 63 67  1  0  0  0  0 
 67 68  1  0  0  0  0 
 67 69  1  0  0  0  0 
 63 70  1  0  0  0  0 
 70 71  1  0  0  0  0 
 70 72  1  0  0  0  0 
 70 73  1  0  0  0  0 
 73 74  2  0  0  0  0 
 73 75  1  0  0  0  0 
 75 76  1  0  0  0  0 
  5 77  1  0  0  0  0 
 77 78  1  0  0  0  0 
M  END
> <Rank>
6

> <Priority_score>
0.604

> <Reaction_type>
aliphatic_hydroxylation_(primary_carbon_next_to_quart_carbon)

> <Parent_ID>
7

> <Parent_InChI>
InChI=1S/C35H36ClNO3S/c1-34(2,40)30-9-4-3-7-25(30)13-17-32(41-23-35(18-19-35)22-33(38)39)27-8-5-6-24(20-27)10-15-29-16-12-26-11-14-28(36)21-31(26)37-29/h3-12,14-16,20-21,32,40H,13,17-19,22-23H2,1-2H3,(H,38,39)

> <Parent_SMILES>
CC(C)(O)c1ccccc1CC[C@@H](SCC1(CC(=O)O)CC1)c1cccc(/C=C/c2ccc3ccc(Cl)cc3n2)c1

$$$$
Molecule 7_metabolite 9
  CDK     0516241031

 59 62  0  0  0  0  0  0  0  0999 V2000
    8.7561  -12.3990    0.0000 C   0  0  0  0  0  0  0  0  0  0  0  0
   10.0575  -13.1449    0.0000 H   0  0  0  0  0  0  0  0  0  0  0  0
    7.2781  -12.1433    0.0000 H   0  0  0  0  0  0  0  0  0  0  0  0
    8.2476  -13.8102    0.0000 H   0  0  0  0  0  0  0  0  0  0  0  0
    8.7513  -10.8990    0.0000 C   0  0  0  0  0  0  0  0  0  0  0  0
    8.2338   -9.4911    0.0000 C   0  0  0  0  0  0  0  0  0  0  0  0
    9.1943   -8.3390    0.0000 H   0  0  0  0  0  0  0  0  0  0  0  0
    7.2659   -8.3451    0.0000 H   0  0  0  0  0  0  0  0  0  0  0  0
    6.9371  -10.2453    0.0000 H   0  0  0  0  0  0  0  0  0  0  0  0
   10.8778   -9.6622    0.0000 C   0  0  0  0  0  0  0  0  0  0  0  0
   12.1810  -10.4067    0.0000 C   0  0  0  0  0  0  0  0  0  0  0  0
   13.4763   -9.6504    0.0000 C   0  0  0  0  0  0  0  0  0  0  0  0
   14.7791  -10.3939    0.0000 H   0  0  0  0  0  0  0  0  0  0  0  0
   13.4685   -8.1496    0.0000 C   0  0  0  0  0  0  0  0  0  0  0  0
   14.7627   -7.3911    0.0000 H   0  0  0  0  0  0  0  0  0  0  0  0
   12.1704   -7.4138    0.0000 C   0  0  0  0  0  0  0  0  0  0  0  0
   12.1609   -5.9138    0.0000 H   0  0  0  0  0  0  0  0  0  0  0  0
   10.8751   -8.1701    0.0000 C   0  0  0  0  0  0  0  0  0  0  0  0
    9.5735   -7.4244    0.0000 H   0  0  0  0  0  0  0  0  0  0  0  0
   12.1880  -11.9067    0.0000 C   0  0  0  0  0  0  0  0  0  0  0  0
   11.6816  -13.3187    0.0000 H   0  0  0  0  0  0  0  0  0  0  0  0
   10.7096  -11.6532    0.0000 H   0  0  0  0  0  0  0  0  0  0  0  0
   13.4906  -12.6506    0.0000 C   0  0  0  0  0  0  0  0  0  0  0  0
   13.9970  -11.2387    0.0000 H   0  0  0  0  0  0  0  0  0  0  0  0
   14.9690  -12.9041    0.0000 H   0  0  0  0  0  0  0  0  0  0  0  0
   13.4976  -14.1506    0.0000 C   0  0  0  0  0  0  0  0  0  0  0  0
   12.2021  -14.9067    0.0000 O   0  0  0  0  0  0  0  0  0  0  0  0
   14.8002  -14.8945    0.0000 C   0  0  0  0  0  0  0  0  0  0  0  0
   14.8093  -16.3953    0.0000 C   0  0  0  0  0  0  0  0  0  0  0  0
   13.5149  -17.1533    0.0000 H   0  0  0  0  0  0  0  0  0  0  0  0
   16.1130  -17.1370    0.0000 C   0  0  0  0  0  0  0  0  0  0  0  0
   17.4078  -16.3779    0.0000 C   0  0  0  0  0  0  0  0  0  0  0  0
   18.7128  -17.1174    0.0000 H   0  0  0  0  0  0  0  0  0  0  0  0
   17.3937  -14.8858    0.0000 C   0  0  0  0  0  0  0  0  0  0  0  0
   18.6868  -14.1255    0.0000 H   0  0  0  0  0  0  0  0  0  0  0  0
   16.0899  -14.1441    0.0000 C   0  0  0  0  0  0  0  0  0  0  0  0
   16.0826  -12.6441    0.0000 H   0  0  0  0  0  0  0  0  0  0  0  0
   16.1229  -18.6369    0.0000 C   0  0  0  0  0  0  0  0  0  0  0  0
   17.4268  -19.3784    0.0000 H   0  0  0  0  0  0  0  0  0  0  0  0
   14.8287  -19.3954    0.0000 C   0  0  0  0  0  0  0  0  0  0  0  0
   13.5248  -18.6539    0.0000 H   0  0  0  0  0  0  0  0  0  0  0  0
   14.8386  -20.8954    0.0000 C   0  0  0  0  0  0  0  0  0  0  0  0
   13.5438  -21.6545    0.0000 N   0  0  0  0  0  0  0  0  0  0  0  0
   13.5529  -23.1553    0.0000 C   0  0  0  0  0  0  0  0  0  0  0  0
   12.2582  -23.9144    0.0000 C   0  0  0  0  0  0  0  0  0  0  0  0
   10.9544  -23.1727    0.0000 H   0  0  0  0  0  0  0  0  0  0  0  0
   12.2673  -25.4152    0.0000 C   0  0  0  0  0  0  0  0  0  0  0  0
   13.5711  -26.1569    0.0000 C   0  0  0  0  0  0  0  0  0  0  0  0
   13.5809  -27.6569    0.0000 H   0  0  0  0  0  0  0  0  0  0  0  0
   14.8658  -25.3978    0.0000 C   0  0  0  0  0  0  0  0  0  0  0  0
   16.1696  -26.1395    0.0000 H   0  0  0  0  0  0  0  0  0  0  0  0
   14.8567  -23.8970    0.0000 C   0  0  0  0  0  0  0  0  0  0  0  0
   16.1514  -23.1379    0.0000 C   0  0  0  0  0  0  0  0  0  0  0  0
   17.4552  -23.8796    0.0000 H   0  0  0  0  0  0  0  0  0  0  0  0
   16.1423  -21.6371    0.0000 C   0  0  0  0  0  0  0  0  0  0  0  0
   17.4367  -20.8790    0.0000 H   0  0  0  0  0  0  0  0  0  0  0  0
   10.9730  -26.1733    0.0000 Cl  0  0  0  0  0  0  0  0  0  0  0  0
    6.8025  -11.2491    0.0000 O   0  0  0  0  0  0  0  0  0  0  0  0
    6.2940  -12.6602    0.0000 H   0  0  0  0  0  0  0  0  0  0  0  0
  1  2  1  0  0  0  0 
  1  3  1  0  0  0  0 
  1  4  1  0  0  0  0 
  1  5  1  0  0  0  0 
  5  6  1  0  0  0  0 
  6  7  1  0  0  0  0 
  6  8  1  0  0  0  0 
  6  9  1  0  0  0  0 
  5 10  1  0  0  0  0 
 10 11  2  0  0  0  0 
 11 12  1  0  0  0  0 
 12 13  1  0  0  0  0 
 12 14  2  0  0  0  0 
 14 15  1  0  0  0  0 
 14 16  1  0  0  0  0 
 16 17  1  0  0  0  0 
 16 18  2  0  0  0  0 
 10 18  1  0  0  0  0 
 18 19  1  0  0  0  0 
 11 20  1  0  0  0  0 
 20 21  1  0  0  0  0 
 20 22  1  0  0  0  0 
 20 23  1  0  0  0  0 
 23 24  1  0  0  0  0 
 23 25  1  0  0  0  0 
 23 26  1  0  0  0  0 
 26 27  2  0  0  0  0 
 26 28  1  0  0  0  0 
 28 29  2  0  0  0  0 
 29 30  1  0  0  0  0 
 29 31  1  0  0  0  0 
 31 32  2  0  0  0  0 
 32 33  1  0  0  0  0 
 32 34  1  0  0  0  0 
 34 35  1  0  0  0  0 
 34 36  2  0  0  0  0 
 28 36  1  0  0  0  0 
 36 37  1  0  0  0  0 
 31 38  1  0  0  0  0 
 38 39  1  0  0  0  0 
 38 40  2  0  0  0  0 
 40 41  1  0  0  0  0 
 40 42  1  0  0  0  0 
 42 43  2  0  0  0  0 
 43 44  1  0  0  0  0 
 44 45  2  0  0  0  0 
 45 46  1  0  0  0  0 
 45 47  1  0  0  0  0 
 47 48  2  0  0  0  0 
 48 49  1  0  0  0  0 
 48 50  1  0  0  0  0 
 50 51  1  0  0  0  0 
 50 52  2  0  0  0  0 
 44 52  1  0  0  0  0 
 52 53  1  0  0  0  0 
 53 54  1  0  0  0  0 
 53 55  2  0  0  0  0 
 42 55  1  0  0  0  0 
 55 56  1  0  0  0  0 
 47 57  1  0  0  0  0 
  5 58  1  0  0  0  0 
 58 59  1  0  0  0  0 
M  END
> <Rank>
9

> <Priority_score>
0.6

> <Reaction_type>
S-dealkylation

> <Parent_ID>
7

> <Parent_InChI>
InChI=1S/C35H36ClNO3S/c1-34(2,40)30-9-4-3-7-25(30)13-17-32(41-23-35(18-19-35)22-33(38)39)27-8-5-6-24(20-27)10-15-29-16-12-26-11-14-28(36)21-31(26)37-29/h3-12,14-16,20-21,32,40H,13,17-19,22-23H2,1-2H3,(H,38,39)

> <Parent_SMILES>
CC(C)(O)c1ccccc1CC[C@@H](SCC1(CC(=O)O)CC1)c1cccc(/C=C/c2ccc3ccc(Cl)cc3n2)c1

$$$$
Molecule 7_metabolite 10
  CDK     0516241031

 78 82  0  0  0  0  0  0  0  0999 V2000
   14.9296   -1.4968    0.0000 C   0  0  0  0  0  0  0  0  0  0  0  0
   14.9293    0.0032    0.0000 H   0  0  0  0  0  0  0  0  0  0  0  0
   15.4428   -2.9062    0.0000 H   0  0  0  0  0  0  0  0  0  0  0  0
   16.4067   -1.2360    0.0000 H   0  0  0  0  0  0  0  0  0  0  0  0
   13.6307   -2.2470    0.0000 C   0  0  0  0  0  0  0  0  0  0  0  0
   11.6507   -2.2473    0.0000 C   0  0  0  0  0  0  0  0  0  0  0  0
   10.9004   -0.9484    0.0000 H   0  0  0  0  0  0  0  0  0  0  0  0
   10.2412   -2.7605    0.0000 H   0  0  0  0  0  0  0  0  0  0  0  0
   11.9114   -3.7244    0.0000 H   0  0  0  0  0  0  0  0  0  0  0  0
   13.6309   -3.7470    0.0000 C   0  0  0  0  0  0  0  0  0  0  0  0
   14.9298   -4.4989    0.0000 C   0  0  0  0  0  0  0  0  0  0  0  0
   14.9275   -5.9989    0.0000 C   0  0  0  0  0  0  0  0  0  0  0  0
   16.2253   -6.7511    0.0000 H   0  0  0  0  0  0  0  0  0  0  0  0
   13.6263   -6.7470    0.0000 C   0  0  0  0  0  0  0  0  0  0  0  0
   13.6216   -8.2469    0.0000 H   0  0  0  0  0  0  0  0  0  0  0  0
   12.3375   -5.9950    0.0000 C   0  0  0  0  0  0  0  0  0  0  0  0
   11.0362   -6.7411    0.0000 H   0  0  0  0  0  0  0  0  0  0  0  0
   12.3398   -4.4950    0.0000 C   0  0  0  0  0  0  0  0  0  0  0  0
   11.0407   -3.7450    0.0000 H   0  0  0  0  0  0  0  0  0  0  0  0
   17.0618   -3.2718    0.0000 C   0  0  0  0  0  0  0  0  0  0  0  0
   18.0276   -2.1241    0.0000 H   0  0  0  0  0  0  0  0  0  0  0  0
   16.0992   -2.1214    0.0000 H   0  0  0  0  0  0  0  0  0  0  0  0
   18.3599   -4.0236    0.0000 C   0  0  0  0  0  0  0  0  0  0  0  0
   17.3941   -5.1713    0.0000 H   0  0  0  0  0  0  0  0  0  0  0  0
   19.3225   -5.1739    0.0000 H   0  0  0  0  0  0  0  0  0  0  0  0
   19.6599   -3.2753    0.0000 C   0  0  2  0  0  0  0  0  0  0  0  0
   21.1375   -3.0169    0.0000 H   0  0  0  0  0  0  0  0  0  0  0  0
   19.6619   -1.7753    0.0000 C   0  0  0  0  0  0  0  0  0  0  0  0
   20.9617   -1.0249    0.0000 C   0  0  0  0  0  0  0  0  0  0  0  0
   22.2609   -1.7747    0.0000 H   0  0  0  0  0  0  0  0  0  0  0  0
   20.9612    0.4751    0.0000 C   0  0  0  0  0  0  0  0  0  0  0  0
   19.6610    1.2247    0.0000 C   0  0  0  0  0  0  0  0  0  0  0  0
   19.6580    2.7247    0.0000 H   0  0  0  0  0  0  0  0  0  0  0  0
   18.3712    0.4743    0.0000 C   0  0  0  0  0  0  0  0  0  0  0  0
   17.0708    1.2219    0.0000 H   0  0  0  0  0  0  0  0  0  0  0  0
   18.3717   -1.0257    0.0000 C   0  0  0  0  0  0  0  0  0  0  0  0
   17.0718   -1.7742    0.0000 H   0  0  0  0  0  0  0  0  0  0  0  0
   22.2599    1.2257    0.0000 C   0  0  0  0  0  0  0  0  0  0  0  0
   22.2592    2.7257    0.0000 H   0  0  0  0  0  0  0  0  0  0  0  0
   23.5593    0.4763    0.0000 C   0  0  0  0  0  0  0  0  0  0  0  0
   23.5600   -1.0237    0.0000 H   0  0  0  0  0  0  0  0  0  0  0  0
   24.8580    1.2270    0.0000 C   0  0  0  0  0  0  0  0  0  0  0  0
   26.1582    0.4774    0.0000 N   0  0  0  0  0  0  0  0  0  0  0  0
   27.4580    1.2278    0.0000 C   0  0  0  0  0  0  0  0  0  0  0  0
   28.7582    0.4782    0.0000 C   0  0  0  0  0  0  0  0  0  0  0  0
   28.7587   -1.0218    0.0000 H   0  0  0  0  0  0  0  0  0  0  0  0
   30.0580    1.2286    0.0000 C   0  0  0  0  0  0  0  0  0  0  0  0
   30.0575    2.7286    0.0000 C   0  0  0  0  0  0  0  0  0  0  0  0
   31.3562    3.4792    0.0000 H   0  0  0  0  0  0  0  0  0  0  0  0
   28.7573    3.4782    0.0000 C   0  0  0  0  0  0  0  0  0  0  0  0
   28.7568    4.9782    0.0000 H   0  0  0  0  0  0  0  0  0  0  0  0
   27.4575    2.7278    0.0000 C   0  0  0  0  0  0  0  0  0  0  0  0
   26.1573    3.4774    0.0000 C   0  0  0  0  0  0  0  0  0  0  0  0
   26.1568    4.9774    0.0000 H   0  0  0  0  0  0  0  0  0  0  0  0
   24.8575    2.7270    0.0000 C   0  0  0  0  0  0  0  0  0  0  0  0
   23.5583    3.4767    0.0000 H   0  0  0  0  0  0  0  0  0  0  0  0
   31.3571    0.4788    0.0000 Cl  0  0  0  0  0  0  0  0  0  0  0  0
   20.3346   -5.1368    0.0000 S   0  0  0  0  0  0  0  0  0  0  0  0
   19.3689   -6.2846    0.0000 O   0  0  0  0  0  0  0  0  0  0  0  0
   21.8115   -5.3993    0.0000 C   0  0  0  0  0  0  0  0  0  0  0  0
   23.2890   -5.1408    0.0000 H   0  0  0  0  0  0  0  0  0  0  0  0
   21.8135   -3.8993    0.0000 H   0  0  0  0  0  0  0  0  0  0  0  0
   22.4861   -7.2608    0.0000 C   0  0  0  0  0  0  0  0  0  0  0  0
   23.9645   -7.0020    0.0000 C   0  0  0  0  0  0  0  0  0  0  0  0
   25.4413   -7.2650    0.0000 H   0  0  0  0  0  0  0  0  0  0  0  0
   23.9667   -5.5020    0.0000 H   0  0  0  0  0  0  0  0  0  0  0  0
   23.4485   -8.4114    0.0000 C   0  0  0  0  0  0  0  0  0  0  0  0
   22.4824   -9.5588    0.0000 H   0  0  0  0  0  0  0  0  0  0  0  0
   24.7462   -9.1637    0.0000 H   0  0  0  0  0  0  0  0  0  0  0  0
   21.1860   -8.0089    0.0000 C   0  0  0  0  0  0  0  0  0  0  0  0
   20.6750   -6.5986    0.0000 H   0  0  0  0  0  0  0  0  0  0  0  0
   19.7084   -8.2672    0.0000 H   0  0  0  0  0  0  0  0  0  0  0  0
   21.1824  -10.4689    0.0000 C   0  0  0  0  0  0  0  0  0  0  0  0
   19.8823  -11.2170    0.0000 O   0  0  0  0  0  0  0  0  0  0  0  0
   22.4803  -11.2208    0.0000 O   0  0  0  0  0  0  0  0  0  0  0  0
   22.4782  -12.7208    0.0000 H   0  0  0  0  0  0  0  0  0  0  0  0
   13.1174   -0.8375    0.0000 O   0  0  0  0  0  0  0  0  0  0  0  0
   14.0814    0.3117    0.0000 H   0  0  0  0  0  0  0  0  0  0  0  0
  1  2  1  0  0  0  0 
  1  3  1  0  0  0  0 
  1  4  1  0  0  0  0 
  1  5  1  0  0  0  0 
  5  6  1  0  0  0  0 
  6  7  1  0  0  0  0 
  6  8  1  0  0  0  0 
  6  9  1  0  0  0  0 
  5 10  1  0  0  0  0 
 10 11  2  0  0  0  0 
 11 12  1  0  0  0  0 
 12 13  1  0  0  0  0 
 12 14  2  0  0  0  0 
 14 15  1  0  0  0  0 
 14 16  1  0  0  0  0 
 16 17  1  0  0  0  0 
 16 18  2  0  0  0  0 
 10 18  1  0  0  0  0 
 18 19  1  0  0  0  0 
 11 20  1  0  0  0  0 
 20 21  1  0  0  0  0 
 20 22  1  0  0  0  0 
 20 23  1  0  0  0  0 
 23 24  1  0  0  0  0 
 23 25  1  0  0  0  0 
 23 26  1  0  0  0  0 
 26 27  1  1  0  0  0 
 26 28  1  0  0  0  0 
 28 29  2  0  0  0  0 
 29 30  1  0  0  0  0 
 29 31  1  0  0  0  0 
 31 32  2  0  0  0  0 
 32 33  1  0  0  0  0 
 32 34  1  0  0  0  0 
 34 35  1  0  0  0  0 
 34 36  2  0  0  0  0 
 28 36  1  0  0  0  0 
 36 37  1  0  0  0  0 
 31 38  1  0  0  0  0 
 38 39  1  0  0  0  0 
 38 40  2  0  0  0  0 
 40 41  1  0  0  0  0 
 40 42  1  0  0  0  0 
 42 43  2  0  0  0  0 
 43 44  1  0  0  0  0 
 44 45  2  0  0  0  0 
 45 46  1  0  0  0  0 
 45 47  1  0  0  0  0 
 47 48  2  0  0  0  0 
 48 49  1  0  0  0  0 
 48 50  1  0  0  0  0 
 50 51  1  0  0  0  0 
 50 52  2  0  0  0  0 
 44 52  1  0  0  0  0 
 52 53  1  0  0  0  0 
 53 54  1  0  0  0  0 
 53 55  2  0  0  0  0 
 42 55  1  0  0  0  0 
 55 56  1  0  0  0  0 
 47 57  1  0  0  0  0 
 26 58  1  6  0  0  0 
 58 59  2  0  0  0  0 
 58 60  1  0  0  0  0 
 60 61  1  0  0  0  0 
 60 62  1  0  0  0  0 
 60 63  1  0  0  0  0 
 63 64  1  0  0  0  0 
 64 65  1  0  0  0  0 
 64 66  1  0  0  0  0 
 64 67  1  0  0  0  0 
 63 67  1  0  0  0  0 
 67 68  1  0  0  0  0 
 67 69  1  0  0  0  0 
 63 70  1  0  0  0  0 
 70 71  1  0  0  0  0 
 70 72  1  0  0  0  0 
 70 73  1  0  0  0  0 
 73 74  2  0  0  0  0 
 73 75  1  0  0  0  0 
 75 76  1  0  0  0  0 
  5 77  1  0  0  0  0 
 77 78  1  0  0  0  0 
M  END
> <Rank>
9

> <Priority_score>
0.6

> <Reaction_type>
sulfide_oxidation_(C-S-C)

> <Parent_ID>
7

> <Parent_InChI>
InChI=1S/C35H36ClNO3S/c1-34(2,40)30-9-4-3-7-25(30)13-17-32(41-23-35(18-19-35)22-33(38)39)27-8-5-6-24(20-27)10-15-29-16-12-26-11-14-28(36)21-31(26)37-29/h3-12,14-16,20-21,32,40H,13,17-19,22-23H2,1-2H3,(H,38,39)

> <Parent_SMILES>
CC(C)(O)c1ccccc1CC[C@@H](SCC1(CC(=O)O)CC1)c1cccc(/C=C/c2ccc3ccc(Cl)cc3n2)c1

$$$$
Molecule 7_metabolite 11
  CDK     0516241031

 61 64  0  0  0  0  0  0  0  0999 V2000
    8.7561  -12.3990    0.0000 C   0  0  0  0  0  0  0  0  0  0  0  0
   10.0575  -13.1449    0.0000 H   0  0  0  0  0  0  0  0  0  0  0  0
    7.2781  -12.1433    0.0000 H   0  0  0  0  0  0  0  0  0  0  0  0
    8.2476  -13.8102    0.0000 H   0  0  0  0  0  0  0  0  0  0  0  0
    8.7513  -10.8990    0.0000 C   0  0  0  0  0  0  0  0  0  0  0  0
    8.2338   -9.4911    0.0000 C   0  0  0  0  0  0  0  0  0  0  0  0
    9.1943   -8.3390    0.0000 H   0  0  0  0  0  0  0  0  0  0  0  0
    7.2659   -8.3451    0.0000 H   0  0  0  0  0  0  0  0  0  0  0  0
    6.9371  -10.2453    0.0000 H   0  0  0  0  0  0  0  0  0  0  0  0
   10.8778   -9.6622    0.0000 C   0  0  0  0  0  0  0  0  0  0  0  0
   12.1810  -10.4067    0.0000 C   0  0  0  0  0  0  0  0  0  0  0  0
   13.4763   -9.6504    0.0000 C   0  0  0  0  0  0  0  0  0  0  0  0
   14.7791  -10.3939    0.0000 H   0  0  0  0  0  0  0  0  0  0  0  0
   13.4685   -8.1496    0.0000 C   0  0  0  0  0  0  0  0  0  0  0  0
   14.7627   -7.3911    0.0000 H   0  0  0  0  0  0  0  0  0  0  0  0
   12.1704   -7.4138    0.0000 C   0  0  0  0  0  0  0  0  0  0  0  0
   12.1609   -5.9138    0.0000 H   0  0  0  0  0  0  0  0  0  0  0  0
   10.8751   -8.1701    0.0000 C   0  0  0  0  0  0  0  0  0  0  0  0
    9.5735   -7.4244    0.0000 H   0  0  0  0  0  0  0  0  0  0  0  0
   12.1880  -11.9067    0.0000 C   0  0  0  0  0  0  0  0  0  0  0  0
   11.6816  -13.3187    0.0000 H   0  0  0  0  0  0  0  0  0  0  0  0
   10.7096  -11.6532    0.0000 H   0  0  0  0  0  0  0  0  0  0  0  0
   13.9074  -12.8887    0.0000 C   0  0  0  0  0  0  0  0  0  0  0  0
   14.4138  -11.4767    0.0000 H   0  0  0  0  0  0  0  0  0  0  0  0
   15.3858  -13.1422    0.0000 H   0  0  0  0  0  0  0  0  0  0  0  0
   13.9144  -14.3886    0.0000 C   0  0  2  0  0  0  0  0  0  0  0  0
   13.4080  -15.8006    0.0000 H   0  0  0  0  0  0  0  0  0  0  0  0
   15.2170  -15.1325    0.0000 C   0  0  0  0  0  0  0  0  0  0  0  0
   15.2261  -16.6333    0.0000 C   0  0  0  0  0  0  0  0  0  0  0  0
   13.9317  -17.3914    0.0000 H   0  0  0  0  0  0  0  0  0  0  0  0
   16.5299  -17.3750    0.0000 C   0  0  0  0  0  0  0  0  0  0  0  0
   17.8246  -16.6159    0.0000 C   0  0  0  0  0  0  0  0  0  0  0  0
   19.1296  -17.3554    0.0000 H   0  0  0  0  0  0  0  0  0  0  0  0
   17.8105  -15.1238    0.0000 C   0  0  0  0  0  0  0  0  0  0  0  0
   19.1036  -14.3636    0.0000 H   0  0  0  0  0  0  0  0  0  0  0  0
   16.5067  -14.3821    0.0000 C   0  0  0  0  0  0  0  0  0  0  0  0
   16.4994  -12.8821    0.0000 H   0  0  0  0  0  0  0  0  0  0  0  0
   16.5397  -18.8750    0.0000 C   0  0  0  0  0  0  0  0  0  0  0  0
   17.8436  -19.6165    0.0000 H   0  0  0  0  0  0  0  0  0  0  0  0
   15.2456  -19.6335    0.0000 C   0  0  0  0  0  0  0  0  0  0  0  0
   13.9416  -18.8920    0.0000 H   0  0  0  0  0  0  0  0  0  0  0  0
   15.2554  -21.1334    0.0000 C   0  0  0  0  0  0  0  0  0  0  0  0
   13.9607  -21.8925    0.0000 N   0  0  0  0  0  0  0  0  0  0  0  0
   13.9698  -23.3933    0.0000 C   0  0  0  0  0  0  0  0  0  0  0  0
   12.6750  -24.1525    0.0000 C   0  0  0  0  0  0  0  0  0  0  0  0
   11.3713  -23.4108    0.0000 H   0  0  0  0  0  0  0  0  0  0  0  0
   12.6841  -25.6533    0.0000 C   0  0  0  0  0  0  0  0  0  0  0  0
   13.9879  -26.3950    0.0000 C   0  0  0  0  0  0  0  0  0  0  0  0
   13.9977  -27.8949    0.0000 H   0  0  0  0  0  0  0  0  0  0  0  0
   15.2826  -25.6359    0.0000 C   0  0  0  0  0  0  0  0  0  0  0  0
   16.5864  -26.3776    0.0000 H   0  0  0  0  0  0  0  0  0  0  0  0
   15.2735  -24.1350    0.0000 C   0  0  0  0  0  0  0  0  0  0  0  0
   16.5683  -23.3759    0.0000 C   0  0  0  0  0  0  0  0  0  0  0  0
   17.8720  -24.1176    0.0000 H   0  0  0  0  0  0  0  0  0  0  0  0
   16.5592  -21.8751    0.0000 C   0  0  0  0  0  0  0  0  0  0  0  0
   17.8535  -21.1171    0.0000 H   0  0  0  0  0  0  0  0  0  0  0  0
   11.3898  -26.4113    0.0000 Cl  0  0  0  0  0  0  0  0  0  0  0  0
   12.4360  -14.1351    0.0000 S   0  0  0  0  0  0  0  0  0  0  0  0
   11.4772  -15.2887    0.0000 H   0  0  0  0  0  0  0  0  0  0  0  0
    6.8025  -11.2491    0.0000 O   0  0  0  0  0  0  0  0  0  0  0  0
    6.2940  -12.6602    0.0000 H   0  0  0  0  0  0  0  0  0  0  0  0
  1  2  1  0  0  0  0 
  1  3  1  0  0  0  0 
  1  4  1  0  0  0  0 
  1  5  1  0  0  0  0 
  5  6  1  0  0  0  0 
  6  7  1  0  0  0  0 
  6  8  1  0  0  0  0 
  6  9  1  0  0  0  0 
  5 10  1  0  0  0  0 
 10 11  2  0  0  0  0 
 11 12  1  0  0  0  0 
 12 13  1  0  0  0  0 
 12 14  2  0  0  0  0 
 14 15  1  0  0  0  0 
 14 16  1  0  0  0  0 
 16 17  1  0  0  0  0 
 16 18  2  0  0  0  0 
 10 18  1  0  0  0  0 
 18 19  1  0  0  0  0 
 11 20  1  0  0  0  0 
 20 21  1  0  0  0  0 
 20 22  1  0  0  0  0 
 20 23  1  0  0  0  0 
 23 24  1  0  0  0  0 
 23 25  1  0  0  0  0 
 23 26  1  0  0  0  0 
 26 27  1  1  0  0  0 
 26 28  1  0  0  0  0 
 28 29  2  0  0  0  0 
 29 30  1  0  0  0  0 
 29 31  1  0  0  0  0 
 31 32  2  0  0  0  0 
 32 33  1  0  0  0  0 
 32 34  1  0  0  0  0 
 34 35  1  0  0  0  0 
 34 36  2  0  0  0  0 
 28 36  1  0  0  0  0 
 36 37  1  0  0  0  0 
 31 38  1  0  0  0  0 
 38 39  1  0  0  0  0 
 38 40  2  0  0  0  0 
 40 41  1  0  0  0  0 
 40 42  1  0  0  0  0 
 42 43  2  0  0  0  0 
 43 44  1  0  0  0  0 
 44 45  2  0  0  0  0 
 45 46  1  0  0  0  0 
 45 47  1  0  0  0  0 
 47 48  2  0  0  0  0 
 48 49  1  0  0  0  0 
 48 50  1  0  0  0  0 
 50 51  1  0  0  0  0 
 50 52  2  0  0  0  0 
 44 52  1  0  0  0  0 
 52 53  1  0  0  0  0 
 53 54  1  0  0  0  0 
 53 55  2  0  0  0  0 
 42 55  1  0  0  0  0 
 55 56  1  0  0  0  0 
 47 57  1  0  0  0  0 
 26 58  1  6  0  0  0 
 58 59  1  0  0  0  0 
  5 60  1  0  0  0  0 
 60 61  1  0  0  0  0 
M  END
> <Rank>
9

> <Priority_score>
0.6

> <Reaction_type>
S-dealkylation

> <Parent_ID>
7

> <Parent_InChI>
InChI=1S/C35H36ClNO3S/c1-34(2,40)30-9-4-3-7-25(30)13-17-32(41-23-35(18-19-35)22-33(38)39)27-8-5-6-24(20-27)10-15-29-16-12-26-11-14-28(36)21-31(26)37-29/h3-12,14-16,20-21,32,40H,13,17-19,22-23H2,1-2H3,(H,38,39)

> <Parent_SMILES>
CC(C)(O)c1ccccc1CC[C@@H](SCC1(CC(=O)O)CC1)c1cccc(/C=C/c2ccc3ccc(Cl)cc3n2)c1

$$$$
Molecule 7_metabolite 12
  CDK     0516241031

 17 17  0  0  0  0  0  0  0  0999 V2000
   -1.0545   -2.8273    0.0000 C   0  0  0  0  0  0  0  0  0  0  0  0
   -1.5672   -4.2370    0.0000 H   0  0  0  0  0  0  0  0  0  0  0  0
    0.4227   -3.0877    0.0000 H   0  0  0  0  0  0  0  0  0  0  0  0
   -2.3545   -2.0773    0.0000 C   0  0  0  0  0  0  0  0  0  0  0  0
   -3.3186   -0.9282    0.0000 H   0  0  0  0  0  0  0  0  0  0  0  0
   -3.3186   -3.2265    0.0000 H   0  0  0  0  0  0  0  0  0  0  0  0
   -1.0545   -1.3273    0.0000 C   0  0  0  0  0  0  0  0  0  0  0  0
    0.8955   -0.9837    0.0000 C   0  0  0  0  0  0  0  0  0  0  0  0
    0.3826    0.4259    0.0000 H   0  0  0  0  0  0  0  0  0  0  0  0
    2.1946   -0.2339    0.0000 H   0  0  0  0  0  0  0  0  0  0  0  0
    1.8595   -2.1329    0.0000 C   0  0  0  0  0  0  0  0  0  0  0  0
    1.3463   -3.5424    0.0000 O   0  0  0  0  0  0  0  0  0  0  0  0
    3.3368   -1.8726    0.0000 O   0  0  0  0  0  0  0  0  0  0  0  0
    4.3008   -3.0218    0.0000 H   0  0  0  0  0  0  0  0  0  0  0  0
   -1.5672    0.0823    0.0000 C   0  0  0  0  0  0  0  0  0  0  0  0
   -3.0444    0.3431    0.0000 H   0  0  0  0  0  0  0  0  0  0  0  0
   -0.6028    1.2312    0.0000 O   0  0  0  0  0  0  0  0  0  0  0  0
  1  2  1  0  0  0  0 
  1  3  1  0  0  0  0 
  1  4  1  0  0  0  0 
  4  5  1  0  0  0  0 
  4  6  1  0  0  0  0 
  4  7  1  0  0  0  0 
  1  7  1  0  0  0  0 
  7  8  1  0  0  0  0 
  8  9  1  0  0  0  0 
  8 10  1  0  0  0  0 
  8 11  1  0  0  0  0 
 11 12  2  0  0  0  0 
 11 13  1  0  0  0  0 
 13 14  1  0  0  0  0 
  7 15  1  0  0  0  0 
 15 16  1  0  0  0  0 
 15 17  2  0  0  0  0 
M  END
> <Rank>
9

> <Priority_score>
0.6

> <Reaction_type>
S-dealkylation

> <Parent_ID>
7

> <Parent_InChI>
InChI=1S/C35H36ClNO3S/c1-34(2,40)30-9-4-3-7-25(30)13-17-32(41-23-35(18-19-35)22-33(38)39)27-8-5-6-24(20-27)10-15-29-16-12-26-11-14-28(36)21-31(26)37-29/h3-12,14-16,20-21,32,40H,13,17-19,22-23H2,1-2H3,(H,38,39)

> <Parent_SMILES>
CC(C)(O)c1ccccc1CC[C@@H](SCC1(CC(=O)O)CC1)c1cccc(/C=C/c2ccc3ccc(Cl)cc3n2)c1

$$$$
Molecule 7_metabolite 13
  CDK     0516241031

 19 19  0  0  0  0  0  0  0  0999 V2000
   -1.0857   -0.9663    0.0000 C   0  0  0  0  0  0  0  0  0  0  0  0
   -2.5628   -1.2271    0.0000 H   0  0  0  0  0  0  0  0  0  0  0  0
   -0.5725   -2.3758    0.0000 H   0  0  0  0  0  0  0  0  0  0  0  0
   -1.0862    0.5345    0.0000 C   0  0  0  0  0  0  0  0  0  0  0  0
   -0.5730    1.9440    0.0000 H   0  0  0  0  0  0  0  0  0  0  0  0
   -2.5634    0.7949    0.0000 H   0  0  0  0  0  0  0  0  0  0  0  0
    0.2133   -0.2163    0.0000 C   0  0  0  0  0  0  0  0  0  0  0  0
    1.4859   -1.7332    0.0000 C   0  0  0  0  0  0  0  0  0  0  0  0
    0.1868   -2.4830    0.0000 H   0  0  0  0  0  0  0  0  0  0  0  0
    1.9988   -3.1428    0.0000 H   0  0  0  0  0  0  0  0  0  0  0  0
    2.9631   -1.4729    0.0000 C   0  0  0  0  0  0  0  0  0  0  0  0
    3.4763   -0.0634    0.0000 O   0  0  0  0  0  0  0  0  0  0  0  0
    3.9272   -2.6220    0.0000 O   0  0  0  0  0  0  0  0  0  0  0  0
    5.4044   -2.3617    0.0000 H   0  0  0  0  0  0  0  0  0  0  0  0
    1.1778    0.9326    0.0000 C   0  0  0  0  0  0  0  0  0  0  0  0
    2.1417   -0.2167    0.0000 H   0  0  0  0  0  0  0  0  0  0  0  0
    2.4770    1.6823    0.0000 H   0  0  0  0  0  0  0  0  0  0  0  0
    0.6650    2.3422    0.0000 S   0  0  0  0  0  0  0  0  0  0  0  0
    1.6295    3.4911    0.0000 H   0  0  0  0  0  0  0  0  0  0  0  0
  1  2  1  0  0  0  0 
  1  3  1  0  0  0  0 
  1  4  1  0  0  0  0 
  4  5  1  0  0  0  0 
  4  6  1  0  0  0  0 
  4  7  1  0  0  0  0 
  1  7  1  0  0  0  0 
  7  8  1  0  0  0  0 
  8  9  1  0  0  0  0 
  8 10  1  0  0  0  0 
  8 11  1  0  0  0  0 
 11 12  2  0  0  0  0 
 11 13  1  0  0  0  0 
 13 14  1  0  0  0  0 
  7 15  1  0  0  0  0 
 15 16  1  0  0  0  0 
 15 17  1  0  0  0  0 
 15 18  1  0  0  0  0 
 18 19  1  0  0  0  0 
M  END
> <Rank>
9

> <Priority_score>
0.6

> <Reaction_type>
S-dealkylation

> <Parent_ID>
7

> <Parent_InChI>
InChI=1S/C35H36ClNO3S/c1-34(2,40)30-9-4-3-7-25(30)13-17-32(41-23-35(18-19-35)22-33(38)39)27-8-5-6-24(20-27)10-15-29-16-12-26-11-14-28(36)21-31(26)37-29/h3-12,14-16,20-21,32,40H,13,17-19,22-23H2,1-2H3,(H,38,39)

> <Parent_SMILES>
CC(C)(O)c1ccccc1CC[C@@H](SCC1(CC(=O)O)CC1)c1cccc(/C=C/c2ccc3ccc(Cl)cc3n2)c1

$$$$
Molecule 7_metabolite 14
  CDK     0516241031

 78 82  0  0  0  0  0  0  0  0999 V2000
   10.2175  -10.7641    0.0000 C   0  0  0  0  0  0  0  0  0  0  0  0
    8.9209  -11.5182    0.0000 H   0  0  0  0  0  0  0  0  0  0  0  0
   11.6939  -10.4989    0.0000 H   0  0  0  0  0  0  0  0  0  0  0  0
   10.7350  -12.1720    0.0000 H   0  0  0  0  0  0  0  0  0  0  0  0
   10.2127   -9.2641    0.0000 C   0  0  0  0  0  0  0  0  0  0  0  0
    9.5296   -7.4057    0.0000 C   0  0  0  0  0  0  0  0  0  0  0  0
    8.0088   -6.1378    0.0000 H   0  0  0  0  0  0  0  0  0  0  0  0
    9.5248   -5.9057    0.0000 H   0  0  0  0  0  0  0  0  0  0  0  0
   11.0060   -7.1405    0.0000 H   0  0  0  0  0  0  0  0  0  0  0  0
   12.3392   -8.0273    0.0000 C   0  0  0  0  0  0  0  0  0  0  0  0
   12.3364   -6.5265    0.0000 C   0  0  0  0  0  0  0  0  0  0  0  0
   13.6343   -5.7745    0.0000 C   0  0  0  0  0  0  0  0  0  0  0  0
   13.6323   -4.2745    0.0000 H   0  0  0  0  0  0  0  0  0  0  0  0
   14.9350   -6.5234    0.0000 C   0  0  0  0  0  0  0  0  0  0  0  0
   16.2342   -5.7736    0.0000 H   0  0  0  0  0  0  0  0  0  0  0  0
   14.9327   -8.0155    0.0000 C   0  0  0  0  0  0  0  0  0  0  0  0
   16.2318   -8.7655    0.0000 H   0  0  0  0  0  0  0  0  0  0  0  0
   13.6348   -8.7675    0.0000 C   0  0  0  0  0  0  0  0  0  0  0  0
   13.6394  -10.2675    0.0000 H   0  0  0  0  0  0  0  0  0  0  0  0
    9.7879   -5.0607    0.0000 C   0  0  0  0  0  0  0  0  0  0  0  0
    8.8218   -3.9133    0.0000 H   0  0  0  0  0  0  0  0  0  0  0  0
    7.2442   -6.5350    0.0000 C   0  0  0  0  0  0  0  0  0  0  0  0
    8.2103   -7.6824    0.0000 H   0  0  0  0  0  0  0  0  0  0  0  0
    6.2820   -7.6857    0.0000 H   0  0  0  0  0  0  0  0  0  0  0  0
    4.6957   -5.0693    0.0000 C   0  0  2  0  0  0  0  0  0  0  0  0
    3.2180   -4.8113    0.0000 H   0  0  0  0  0  0  0  0  0  0  0  0
    4.6931   -3.5693    0.0000 C   0  0  0  0  0  0  0  0  0  0  0  0
    3.3931   -2.8193    0.0000 C   0  0  0  0  0  0  0  0  0  0  0  0
    2.0942   -3.5695    0.0000 H   0  0  0  0  0  0  0  0  0  0  0  0
    3.3931   -1.3193    0.0000 C   0  0  0  0  0  0  0  0  0  0  0  0
    4.6931   -0.5693    0.0000 C   0  0  0  0  0  0  0  0  0  0  0  0
    4.6957    0.9307    0.0000 H   0  0  0  0  0  0  0  0  0  0  0  0
    5.9831   -1.3193    0.0000 C   0  0  0  0  0  0  0  0  0  0  0  0
    7.2833   -0.5712    0.0000 H   0  0  0  0  0  0  0  0  0  0  0  0
    5.9831   -2.8193    0.0000 C   0  0  0  0  0  0  0  0  0  0  0  0
    7.2833   -3.5673    0.0000 H   0  0  0  0  0  0  0  0  0  0  0  0
    2.0942   -0.5691    0.0000 C   0  0  0  0  0  0  0  0  0  0  0  0
    2.0945    0.9309    0.0000 H   0  0  0  0  0  0  0  0  0  0  0  0
    0.7951   -1.3188    0.0000 C   0  0  0  0  0  0  0  0  0  0  0  0
    0.7948   -2.8188    0.0000 H   0  0  0  0  0  0  0  0  0  0  0  0
   -0.5039   -0.5686    0.0000 C   0  0  0  0  0  0  0  0  0  0  0  0
   -1.8039   -1.3186    0.0000 N   0  0  0  0  0  0  0  0  0  0  0  0
   -3.1039   -0.5686    0.0000 C   0  0  0  0  0  0  0  0  0  0  0  0
   -4.4039   -1.3186    0.0000 C   0  0  0  0  0  0  0  0  0  0  0  0
   -4.4039   -2.8186    0.0000 H   0  0  0  0  0  0  0  0  0  0  0  0
   -5.7039   -0.5686    0.0000 C   0  0  0  0  0  0  0  0  0  0  0  0
   -5.7039    0.9314    0.0000 C   0  0  0  0  0  0  0  0  0  0  0  0
   -7.0028    1.6816    0.0000 H   0  0  0  0  0  0  0  0  0  0  0  0
   -4.4039    1.6814    0.0000 C   0  0  0  0  0  0  0  0  0  0  0  0
   -4.4039    3.1814    0.0000 H   0  0  0  0  0  0  0  0  0  0  0  0
   -3.1039    0.9314    0.0000 C   0  0  0  0  0  0  0  0  0  0  0  0
   -1.8039    1.6814    0.0000 C   0  0  0  0  0  0  0  0  0  0  0  0
   -1.8039    3.1814    0.0000 H   0  0  0  0  0  0  0  0  0  0  0  0
   -0.5039    0.9314    0.0000 C   0  0  0  0  0  0  0  0  0  0  0  0
    0.7951    1.6816    0.0000 H   0  0  0  0  0  0  0  0  0  0  0  0
   -7.0028   -1.3188    0.0000 Cl  0  0  0  0  0  0  0  0  0  0  0  0
    4.1850   -6.4797    0.0000 S   0  0  0  0  0  0  0  0  0  0  0  0
    2.2356   -6.8267    0.0000 C   0  0  0  0  0  0  0  0  0  0  0  0
    0.7580   -6.5687    0.0000 H   0  0  0  0  0  0  0  0  0  0  0  0
    2.2331   -5.3267    0.0000 H   0  0  0  0  0  0  0  0  0  0  0  0
    1.7250   -8.2371    0.0000 C   0  0  0  0  0  0  0  0  0  0  0  0
    0.2465   -7.9788    0.0000 C   0  0  0  0  0  0  0  0  0  0  0  0
   -1.2302   -8.2423    0.0000 H   0  0  0  0  0  0  0  0  0  0  0  0
    0.2422   -5.5188    0.0000 H   0  0  0  0  0  0  0  0  0  0  0  0
    0.7630   -9.3880    0.0000 C   0  0  0  0  0  0  0  0  0  0  0  0
    1.7294  -10.5352    0.0000 H   0  0  0  0  0  0  0  0  0  0  0  0
   -0.5345  -10.1408    0.0000 H   0  0  0  0  0  0  0  0  0  0  0  0
    3.0253   -8.9848    0.0000 C   0  0  0  0  0  0  0  0  0  0  0  0
    3.5359   -7.5744    0.0000 H   0  0  0  0  0  0  0  0  0  0  0  0
    4.5030   -9.2427    0.0000 H   0  0  0  0  0  0  0  0  0  0  0  0
    3.0297  -11.4448    0.0000 C   0  0  0  0  0  0  0  0  0  0  0  0
    4.3301  -12.1925    0.0000 O   0  0  0  0  0  0  0  0  0  0  0  0
    1.7320  -12.1971    0.0000 O   0  0  0  0  0  0  0  0  0  0  0  0
    1.7347  -13.6971    0.0000 H   0  0  0  0  0  0  0  0  0  0  0  0
   10.7501   -3.9101    0.0000 O   0  0  0  0  0  0  0  0  0  0  0  0
   10.2347   -2.5014    0.0000 H   0  0  0  0  0  0  0  0  0  0  0  0
    8.7363   -9.5293    0.0000 O   0  0  0  0  0  0  0  0  0  0  0  0
    8.2278  -10.9404    0.0000 H   0  0  0  0  0  0  0  0  0  0  0  0
  1  2  1  0  0  0  0 
  1  3  1  0  0  0  0 
  1  4  1  0  0  0  0 
  1  5  1  0  0  0  0 
  5  6  1  0  0  0  0 
  6  7  1  0  0  0  0 
  6  8  1  0  0  0  0 
  6  9  1  0  0  0  0 
  5 10  1  0  0  0  0 
 10 11  2  0  0  0  0 
 11 12  1  0  0  0  0 
 12 13  1  0  0  0  0 
 12 14  2  0  0  0  0 
 14 15  1  0  0  0  0 
 14 16  1  0  0  0  0 
 16 17  1  0  0  0  0 
 16 18  2  0  0  0  0 
 10 18  1  0  0  0  0 
 18 19  1  0  0  0  0 
 11 20  1  0  0  0  0 
 20 21  1  0  0  0  0 
 20 22  1  0  0  0  0 
 22 23  1  0  0  0  0 
 22 24  1  0  0  0  0 
 22 25  1  0  0  0  0 
 25 26  1  6  0  0  0 
 25 27  1  0  0  0  0 
 27 28  2  0  0  0  0 
 28 29  1  0  0  0  0 
 28 30  1  0  0  0  0 
 30 31  2  0  0  0  0 
 31 32  1  0  0  0  0 
 31 33  1  0  0  0  0 
 33 34  1  0  0  0  0 
 33 35  2  0  0  0  0 
 27 35  1  0  0  0  0 
 35 36  1  0  0  0  0 
 30 37  1  0  0  0  0 
 37 38  1  0  0  0  0 
 37 39  2  0  0  0  0 
 39 40  1  0  0  0  0 
 39 41  1  0  0  0  0 
 41 42  2  0  0  0  0 
 42 43  1  0  0  0  0 
 43 44  2  0  0  0  0 
 44 45  1  0  0  0  0 
 44 46  1  0  0  0  0 
 46 47  2  0  0  0  0 
 47 48  1  0  0  0  0 
 47 49  1  0  0  0  0 
 49 50  1  0  0  0  0 
 49 51  2  0  0  0  0 
 43 51  1  0  0  0  0 
 51 52  1  0  0  0  0 
 52 53  1  0  0  0  0 
 52 54  2  0  0  0  0 
 41 54  1  0  0  0  0 
 54 55  1  0  0  0  0 
 46 56  1  0  0  0  0 
 25 57  1  1  0  0  0 
 57 58  1  0  0  0  0 
 58 59  1  0  0  0  0 
 58 60  1  0  0  0  0 
 58 61  1  0  0  0  0 
 61 62  1  0  0  0  0 
 62 63  1  0  0  0  0 
 62 64  1  0  0  0  0 
 62 65  1  0  0  0  0 
 61 65  1  0  0  0  0 
 65 66  1  0  0  0  0 
 65 67  1  0  0  0  0 
 61 68  1  0  0  0  0 
 68 69  1  0  0  0  0 
 68 70  1  0  0  0  0 
 68 71  1  0  0  0  0 
 71 72  2  0  0  0  0 
 71 73  1  0  0  0  0 
 73 74  1  0  0  0  0 
 20 75  1  0  0  0  0 
 75 76  1  0  0  0  0 
  5 77  1  0  0  0  0 
 77 78  1  0  0  0  0 
M  END
> <Rank>
14

> <Priority_score>
0.556

> <Reaction_type>
benzylic_hydroxylation_(c-CH2-CR)

> <Parent_ID>
7

> <Parent_InChI>
InChI=1S/C35H36ClNO3S/c1-34(2,40)30-9-4-3-7-25(30)13-17-32(41-23-35(18-19-35)22-33(38)39)27-8-5-6-24(20-27)10-15-29-16-12-26-11-14-28(36)21-31(26)37-29/h3-12,14-16,20-21,32,40H,13,17-19,22-23H2,1-2H3,(H,38,39)

> <Parent_SMILES>
CC(C)(O)c1ccccc1CC[C@@H](SCC1(CC(=O)O)CC1)c1cccc(/C=C/c2ccc3ccc(Cl)cc3n2)c1

$$$$
Molecule 7_metabolite 15
  CDK     0516241031

 78 82  0  0  0  0  0  0  0  0999 V2000
   14.8927   -8.4503    0.0000 C   0  0  0  0  0  0  0  0  0  0  0  0
   15.6429   -9.7492    0.0000 H   0  0  0  0  0  0  0  0  0  0  0  0
   14.6320   -6.9732    0.0000 H   0  0  0  0  0  0  0  0  0  0  0  0
   16.3022   -7.9371    0.0000 H   0  0  0  0  0  0  0  0  0  0  0  0
   13.3927   -8.4506    0.0000 C   0  0  0  0  0  0  0  0  0  0  0  0
   11.5320   -7.7737    0.0000 C   0  0  0  0  0  0  0  0  0  0  0  0
   11.0210   -4.8784    0.0000 H   0  0  0  0  0  0  0  0  0  0  0  0
   10.0548   -7.5134    0.0000 H   0  0  0  0  0  0  0  0  0  0  0  0
   11.2718   -9.2509    0.0000 H   0  0  0  0  0  0  0  0  0  0  0  0
   12.4030  -10.1655    0.0000 C   0  0  0  0  0  0  0  0  0  0  0  0
   13.1519  -11.4661    0.0000 C   0  0  0  0  0  0  0  0  0  0  0  0
   12.3999  -12.7640    0.0000 C   0  0  0  0  0  0  0  0  0  0  0  0
   13.1477  -14.0643    0.0000 H   0  0  0  0  0  0  0  0  0  0  0  0
   10.8991  -12.7613    0.0000 C   0  0  0  0  0  0  0  0  0  0  0  0
   10.1449  -14.0579    0.0000 H   0  0  0  0  0  0  0  0  0  0  0  0
   10.1589  -11.4656    0.0000 C   0  0  0  0  0  0  0  0  0  0  0  0
    8.6589  -11.4611    0.0000 H   0  0  0  0  0  0  0  0  0  0  0  0
   10.9108  -10.1677    0.0000 C   0  0  0  0  0  0  0  0  0  0  0  0
   10.1608   -8.8687    0.0000 H   0  0  0  0  0  0  0  0  0  0  0  0
   15.6119  -11.4694    0.0000 C   0  0  0  0  0  0  0  0  0  0  0  0
   16.5745  -12.6198    0.0000 H   0  0  0  0  0  0  0  0  0  0  0  0
   14.6461  -12.6172    0.0000 H   0  0  0  0  0  0  0  0  0  0  0  0
   17.7440  -10.2423    0.0000 C   0  0  0  0  0  0  0  0  0  0  0  0
   16.7813   -9.0920    0.0000 H   0  0  0  0  0  0  0  0  0  0  0  0
   18.7097   -9.0946    0.0000 H   0  0  0  0  0  0  0  0  0  0  0  0
   19.4573  -11.2346    0.0000 C   0  0  2  0  0  0  0  0  0  0  0  0
   20.4200  -12.3850    0.0000 H   0  0  0  0  0  0  0  0  0  0  0  0
   20.7574  -10.4864    0.0000 C   0  0  0  0  0  0  0  0  0  0  0  0
   22.0572  -11.2368    0.0000 C   0  0  0  0  0  0  0  0  0  0  0  0
   22.0574  -12.7368    0.0000 H   0  0  0  0  0  0  0  0  0  0  0  0
   23.3560  -10.4864    0.0000 C   0  0  0  0  0  0  0  0  0  0  0  0
   23.3550   -8.9856    0.0000 C   0  0  0  0  0  0  0  0  0  0  0  0
   24.6525   -8.2330    0.0000 H   0  0  0  0  0  0  0  0  0  0  0  0
   22.0602   -8.2438    0.0000 C   0  0  0  0  0  0  0  0  0  0  0  0
   22.0575   -6.7438    0.0000 H   0  0  0  0  0  0  0  0  0  0  0  0
   20.7614   -8.9942    0.0000 C   0  0  0  0  0  0  0  0  0  0  0  0
   19.4633   -8.2427    0.0000 H   0  0  0  0  0  0  0  0  0  0  0  0
   24.6553  -11.2358    0.0000 C   0  0  0  0  0  0  0  0  0  0  0  0
   25.9540  -10.4852    0.0000 H   0  0  0  0  0  0  0  0  0  0  0  0
   24.6561  -12.7358    0.0000 C   0  0  0  0  0  0  0  0  0  0  0  0
   23.3574  -13.4864    0.0000 H   0  0  0  0  0  0  0  0  0  0  0  0
   25.9555  -13.4852    0.0000 C   0  0  0  0  0  0  0  0  0  0  0  0
   27.2543  -12.7347    0.0000 C   0  0  0  0  0  0  0  0  0  0  0  0
   27.2540  -11.2347    0.0000 H   0  0  0  0  0  0  0  0  0  0  0  0
   28.5540  -13.4852    0.0000 C   0  0  0  0  0  0  0  0  0  0  0  0
   29.8528  -12.7347    0.0000 H   0  0  0  0  0  0  0  0  0  0  0  0
   28.5550  -14.9860    0.0000 C   0  0  0  0  0  0  0  0  0  0  0  0
   29.8547  -15.7364    0.0000 C   0  0  0  0  0  0  0  0  0  0  0  0
   31.1535  -14.9860    0.0000 H   0  0  0  0  0  0  0  0  0  0  0  0
   29.8557  -17.2372    0.0000 C   0  0  0  0  0  0  0  0  0  0  0  0
   28.5569  -17.9877    0.0000 C   0  0  0  0  0  0  0  0  0  0  0  0
   27.2572  -17.2372    0.0000 C   0  0  0  0  0  0  0  0  0  0  0  0
   25.9584  -17.9877    0.0000 H   0  0  0  0  0  0  0  0  0  0  0  0
   27.2562  -15.7364    0.0000 C   0  0  0  0  0  0  0  0  0  0  0  0
   25.9564  -14.9860    0.0000 N   0  0  0  0  0  0  0  0  0  0  0  0
   28.5572  -19.4877    0.0000 Cl  0  0  0  0  0  0  0  0  0  0  0  0
   31.1551  -17.9866    0.0000 O   0  0  0  0  0  0  0  0  0  0  0  0
   32.4538  -17.2360    0.0000 H   0  0  0  0  0  0  0  0  0  0  0  0
   18.4916  -12.3824    0.0000 S   0  0  0  0  0  0  0  0  0  0  0  0
   19.1663  -14.2439    0.0000 C   0  0  0  0  0  0  0  0  0  0  0  0
   20.1289  -15.3943    0.0000 H   0  0  0  0  0  0  0  0  0  0  0  0
   20.4663  -13.4957    0.0000 H   0  0  0  0  0  0  0  0  0  0  0  0
   18.2005  -15.3917    0.0000 C   0  0  0  0  0  0  0  0  0  0  0  0
   19.1638  -16.5426    0.0000 C   0  0  0  0  0  0  0  0  0  0  0  0
   19.6745  -17.9530    0.0000 H   0  0  0  0  0  0  0  0  0  0  0  0
   21.2960  -15.3157    0.0000 H   0  0  0  0  0  0  0  0  0  0  0  0
   17.6853  -16.8004    0.0000 C   0  0  0  0  0  0  0  0  0  0  0  0
   16.2085  -16.5375    0.0000 H   0  0  0  0  0  0  0  0  0  0  0  0
   17.6826  -18.3004    0.0000 H   0  0  0  0  0  0  0  0  0  0  0  0
   16.9026  -14.6398    0.0000 C   0  0  0  0  0  0  0  0  0  0  0  0
   17.8685  -13.4921    0.0000 H   0  0  0  0  0  0  0  0  0  0  0  0
   15.9401  -13.4893    0.0000 H   0  0  0  0  0  0  0  0  0  0  0  0
   14.7704  -15.8667    0.0000 C   0  0  0  0  0  0  0  0  0  0  0  0
   13.4724  -15.1148    0.0000 O   0  0  0  0  0  0  0  0  0  0  0  0
   14.7682  -17.3667    0.0000 O   0  0  0  0  0  0  0  0  0  0  0  0
   13.4681  -18.1148    0.0000 H   0  0  0  0  0  0  0  0  0  0  0  0
   13.6530   -6.9733    0.0000 O   0  0  0  0  0  0  0  0  0  0  0  0
   12.5037   -6.0093    0.0000 H   0  0  0  0  0  0  0  0  0  0  0  0
  1  2  1  0  0  0  0 
  1  3  1  0  0  0  0 
  1  4  1  0  0  0  0 
  1  5  1  0  0  0  0 
  5  6  1  0  0  0  0 
  6  7  1  0  0  0  0 
  6  8  1  0  0  0  0 
  6  9  1  0  0  0  0 
  5 10  1  0  0  0  0 
 10 11  2  0  0  0  0 
 11 12  1  0  0  0  0 
 12 13  1  0  0  0  0 
 12 14  2  0  0  0  0 
 14 15  1  0  0  0  0 
 14 16  1  0  0  0  0 
 16 17  1  0  0  0  0 
 16 18  2  0  0  0  0 
 10 18  1  0  0  0  0 
 18 19  1  0  0  0  0 
 11 20  1  0  0  0  0 
 20 21  1  0  0  0  0 
 20 22  1  0  0  0  0 
 20 23  1  0  0  0  0 
 23 24  1  0  0  0  0 
 23 25  1  0  0  0  0 
 23 26  1  0  0  0  0 
 26 27  1  1  0  0  0 
 26 28  1  0  0  0  0 
 28 29  2  0  0  0  0 
 29 30  1  0  0  0  0 
 29 31  1  0  0  0  0 
 31 32  2  0  0  0  0 
 32 33  1  0  0  0  0 
 32 34  1  0  0  0  0 
 34 35  1  0  0  0  0 
 34 36  2  0  0  0  0 
 28 36  1  0  0  0  0 
 36 37  1  0  0  0  0 
 31 38  1  0  0  0  0 
 38 39  1  0  0  0  0 
 38 40  2  0  0  0  0 
 40 41  1  0  0  0  0 
 40 42  1  0  0  0  0 
 42 43  2  0  0  0  0 
 43 44  1  0  0  0  0 
 43 45  1  0  0  0  0 
 45 46  1  0  0  0  0 
 45 47  2  0  0  0  0 
 47 48  1  0  0  0  0 
 48 49  1  0  0  0  0 
 48 50  2  0  0  0  0 
 50 51  1  0  0  0  0 
 51 52  2  0  0  0  0 
 52 53  1  0  0  0  0 
 52 54  1  0  0  0  0 
 47 54  1  0  0  0  0 
 54 55  2  0  0  0  0 
 42 55  1  0  0  0  0 
 51 56  1  0  0  0  0 
 50 57  1  0  0  0  0 
 57 58  1  0  0  0  0 
 26 59  1  6  0  0  0 
 59 60  1  0  0  0  0 
 60 61  1  0  0  0  0 
 60 62  1  0  0  0  0 
 60 63  1  0  0  0  0 
 63 64  1  0  0  0  0 
 64 65  1  0  0  0  0 
 64 66  1  0  0  0  0 
 64 67  1  0  0  0  0 
 63 67  1  0  0  0  0 
 67 68  1  0  0  0  0 
 67 69  1  0  0  0  0 
 63 70  1  0  0  0  0 
 70 71  1  0  0  0  0 
 70 72  1  0  0  0  0 
 70 73  1  0  0  0  0 
 73 74  2  0  0  0  0 
 73 75  1  0  0  0  0 
 75 76  1  0  0  0  0 
  5 77  1  0  0  0  0 
 77 78  1  0  0  0  0 
M  END
> <Rank>
15

> <Priority_score>
0.268

> <Reaction_type>
aromatic_hydroxylation_(para_to_nitrogen)

> <Parent_ID>
7

> <Parent_InChI>
InChI=1S/C35H36ClNO3S/c1-34(2,40)30-9-4-3-7-25(30)13-17-32(41-23-35(18-19-35)22-33(38)39)27-8-5-6-24(20-27)10-15-29-16-12-26-11-14-28(36)21-31(26)37-29/h3-12,14-16,20-21,32,40H,13,17-19,22-23H2,1-2H3,(H,38,39)

> <Parent_SMILES>
CC(C)(O)c1ccccc1CC[C@@H](SCC1(CC(=O)O)CC1)c1cccc(/C=C/c2ccc3ccc(Cl)cc3n2)c1

$$$$
Molecule 7_metabolite 16
  CDK     0516241031

 78 82  0  0  0  0  0  0  0  0999 V2000
   14.8927   -8.4503    0.0000 C   0  0  0  0  0  0  0  0  0  0  0  0
   15.6429   -9.7492    0.0000 H   0  0  0  0  0  0  0  0  0  0  0  0
   14.6320   -6.9732    0.0000 H   0  0  0  0  0  0  0  0  0  0  0  0
   16.3022   -7.9371    0.0000 H   0  0  0  0  0  0  0  0  0  0  0  0
   13.3927   -8.4506    0.0000 C   0  0  0  0  0  0  0  0  0  0  0  0
   11.5320   -7.7737    0.0000 C   0  0  0  0  0  0  0  0  0  0  0  0
   11.0210   -4.8784    0.0000 H   0  0  0  0  0  0  0  0  0  0  0  0
   10.0548   -7.5134    0.0000 H   0  0  0  0  0  0  0  0  0  0  0  0
   11.2718   -9.2509    0.0000 H   0  0  0  0  0  0  0  0  0  0  0  0
   12.4030  -10.1655    0.0000 C   0  0  0  0  0  0  0  0  0  0  0  0
   13.1519  -11.4661    0.0000 C   0  0  0  0  0  0  0  0  0  0  0  0
   12.3999  -12.7640    0.0000 C   0  0  0  0  0  0  0  0  0  0  0  0
   13.1477  -14.0643    0.0000 H   0  0  0  0  0  0  0  0  0  0  0  0
   10.8991  -12.7613    0.0000 C   0  0  0  0  0  0  0  0  0  0  0  0
   10.1449  -14.0579    0.0000 H   0  0  0  0  0  0  0  0  0  0  0  0
   10.1589  -11.4656    0.0000 C   0  0  0  0  0  0  0  0  0  0  0  0
    8.6589  -11.4611    0.0000 H   0  0  0  0  0  0  0  0  0  0  0  0
   10.9108  -10.1677    0.0000 C   0  0  0  0  0  0  0  0  0  0  0  0
   10.1608   -8.8687    0.0000 H   0  0  0  0  0  0  0  0  0  0  0  0
   15.6119  -11.4694    0.0000 C   0  0  0  0  0  0  0  0  0  0  0  0
   16.5745  -12.6198    0.0000 H   0  0  0  0  0  0  0  0  0  0  0  0
   14.6461  -12.6172    0.0000 H   0  0  0  0  0  0  0  0  0  0  0  0
   17.7440  -10.2423    0.0000 C   0  0  0  0  0  0  0  0  0  0  0  0
   16.7813   -9.0920    0.0000 H   0  0  0  0  0  0  0  0  0  0  0  0
   18.7097   -9.0946    0.0000 H   0  0  0  0  0  0  0  0  0  0  0  0
   19.4573  -11.2346    0.0000 C   0  0  2  0  0  0  0  0  0  0  0  0
   20.4200  -12.3850    0.0000 H   0  0  0  0  0  0  0  0  0  0  0  0
   20.7574  -10.4864    0.0000 C   0  0  0  0  0  0  0  0  0  0  0  0
   22.0572  -11.2368    0.0000 C   0  0  0  0  0  0  0  0  0  0  0  0
   22.0574  -12.7368    0.0000 H   0  0  0  0  0  0  0  0  0  0  0  0
   23.3560  -10.4864    0.0000 C   0  0  0  0  0  0  0  0  0  0  0  0
   23.3550   -8.9856    0.0000 C   0  0  0  0  0  0  0  0  0  0  0  0
   24.6525   -8.2330    0.0000 H   0  0  0  0  0  0  0  0  0  0  0  0
   22.0602   -8.2438    0.0000 C   0  0  0  0  0  0  0  0  0  0  0  0
   22.0575   -6.7438    0.0000 H   0  0  0  0  0  0  0  0  0  0  0  0
   20.7614   -8.9942    0.0000 C   0  0  0  0  0  0  0  0  0  0  0  0
   19.4633   -8.2427    0.0000 H   0  0  0  0  0  0  0  0  0  0  0  0
   24.6553  -11.2358    0.0000 C   0  0  0  0  0  0  0  0  0  0  0  0
   25.9540  -10.4852    0.0000 H   0  0  0  0  0  0  0  0  0  0  0  0
   24.6561  -12.7358    0.0000 C   0  0  0  0  0  0  0  0  0  0  0  0
   23.3574  -13.4864    0.0000 H   0  0  0  0  0  0  0  0  0  0  0  0
   25.9555  -13.4852    0.0000 C   0  0  0  0  0  0  0  0  0  0  0  0
   27.2543  -12.7347    0.0000 C   0  0  0  0  0  0  0  0  0  0  0  0
   27.2540  -11.2347    0.0000 H   0  0  0  0  0  0  0  0  0  0  0  0
   28.5540  -13.4852    0.0000 C   0  0  0  0  0  0  0  0  0  0  0  0
   29.8528  -12.7347    0.0000 H   0  0  0  0  0  0  0  0  0  0  0  0
   28.5550  -14.9860    0.0000 C   0  0  0  0  0  0  0  0  0  0  0  0
   29.8547  -15.7364    0.0000 C   0  0  0  0  0  0  0  0  0  0  0  0
   31.1535  -14.9860    0.0000 H   0  0  0  0  0  0  0  0  0  0  0  0
   29.8557  -17.2372    0.0000 C   0  0  0  0  0  0  0  0  0  0  0  0
   31.1551  -17.9866    0.0000 H   0  0  0  0  0  0  0  0  0  0  0  0
   28.5569  -17.9877    0.0000 C   0  0  0  0  0  0  0  0  0  0  0  0
   27.2572  -17.2372    0.0000 C   0  0  0  0  0  0  0  0  0  0  0  0
   27.2562  -15.7364    0.0000 C   0  0  0  0  0  0  0  0  0  0  0  0
   25.9564  -14.9860    0.0000 N   0  0  0  0  0  0  0  0  0  0  0  0
   25.9584  -17.9877    0.0000 O   0  0  0  0  0  0  0  0  0  0  0  0
   25.9588  -19.4877    0.0000 H   0  0  0  0  0  0  0  0  0  0  0  0
   28.5572  -19.4877    0.0000 Cl  0  0  0  0  0  0  0  0  0  0  0  0
   18.4916  -12.3824    0.0000 S   0  0  0  0  0  0  0  0  0  0  0  0
   19.1663  -14.2439    0.0000 C   0  0  0  0  0  0  0  0  0  0  0  0
   20.1289  -15.3943    0.0000 H   0  0  0  0  0  0  0  0  0  0  0  0
   20.4663  -13.4957    0.0000 H   0  0  0  0  0  0  0  0  0  0  0  0
   18.2005  -15.3917    0.0000 C   0  0  0  0  0  0  0  0  0  0  0  0
   19.1638  -16.5426    0.0000 C   0  0  0  0  0  0  0  0  0  0  0  0
   19.6745  -17.9530    0.0000 H   0  0  0  0  0  0  0  0  0  0  0  0
   21.2960  -15.3157    0.0000 H   0  0  0  0  0  0  0  0  0  0  0  0
   17.6853  -16.8004    0.0000 C   0  0  0  0  0  0  0  0  0  0  0  0
   16.2085  -16.5375    0.0000 H   0  0  0  0  0  0  0  0  0  0  0  0
   17.6826  -18.3004    0.0000 H   0  0  0  0  0  0  0  0  0  0  0  0
   16.9026  -14.6398    0.0000 C   0  0  0  0  0  0  0  0  0  0  0  0
   17.8685  -13.4921    0.0000 H   0  0  0  0  0  0  0  0  0  0  0  0
   15.9401  -13.4893    0.0000 H   0  0  0  0  0  0  0  0  0  0  0  0
   14.7704  -15.8667    0.0000 C   0  0  0  0  0  0  0  0  0  0  0  0
   13.4724  -15.1148    0.0000 O   0  0  0  0  0  0  0  0  0  0  0  0
   14.7682  -17.3667    0.0000 O   0  0  0  0  0  0  0  0  0  0  0  0
   13.4681  -18.1148    0.0000 H   0  0  0  0  0  0  0  0  0  0  0  0
   13.6530   -6.9733    0.0000 O   0  0  0  0  0  0  0  0  0  0  0  0
   12.5037   -6.0093    0.0000 H   0  0  0  0  0  0  0  0  0  0  0  0
  1  2  1  0  0  0  0 
  1  3  1  0  0  0  0 
  1  4  1  0  0  0  0 
  1  5  1  0  0  0  0 
  5  6  1  0  0  0  0 
  6  7  1  0  0  0  0 
  6  8  1  0  0  0  0 
  6  9  1  0  0  0  0 
  5 10  1  0  0  0  0 
 10 11  2  0  0  0  0 
 11 12  1  0  0  0  0 
 12 13  1  0  0  0  0 
 12 14  2  0  0  0  0 
 14 15  1  0  0  0  0 
 14 16  1  0  0  0  0 
 16 17  1  0  0  0  0 
 16 18  2  0  0  0  0 
 10 18  1  0  0  0  0 
 18 19  1  0  0  0  0 
 11 20  1  0  0  0  0 
 20 21  1  0  0  0  0 
 20 22  1  0  0  0  0 
 20 23  1  0  0  0  0 
 23 24  1  0  0  0  0 
 23 25  1  0  0  0  0 
 23 26  1  0  0  0  0 
 26 27  1  1  0  0  0 
 26 28  1  0  0  0  0 
 28 29  2  0  0  0  0 
 29 30  1  0  0  0  0 
 29 31  1  0  0  0  0 
 31 32  2  0  0  0  0 
 32 33  1  0  0  0  0 
 32 34  1  0  0  0  0 
 34 35  1  0  0  0  0 
 34 36  2  0  0  0  0 
 28 36  1  0  0  0  0 
 36 37  1  0  0  0  0 
 31 38  1  0  0  0  0 
 38 39  1  0  0  0  0 
 38 40  2  0  0  0  0 
 40 41  1  0  0  0  0 
 40 42  1  0  0  0  0 
 42 43  2  0  0  0  0 
 43 44  1  0  0  0  0 
 43 45  1  0  0  0  0 
 45 46  1  0  0  0  0 
 45 47  2  0  0  0  0 
 47 48  1  0  0  0  0 
 48 49  1  0  0  0  0 
 48 50  2  0  0  0  0 
 50 51  1  0  0  0  0 
 50 52  1  0  0  0  0 
 52 53  2  0  0  0  0 
 53 54  1  0  0  0  0 
 47 54  1  0  0  0  0 
 54 55  2  0  0  0  0 
 42 55  1  0  0  0  0 
 53 56  1  0  0  0  0 
 56 57  1  0  0  0  0 
 52 58  1  0  0  0  0 
 26 59  1  6  0  0  0 
 59 60  1  0  0  0  0 
 60 61  1  0  0  0  0 
 60 62  1  0  0  0  0 
 60 63  1  0  0  0  0 
 63 64  1  0  0  0  0 
 64 65  1  0  0  0  0 
 64 66  1  0  0  0  0 
 64 67  1  0  0  0  0 
 63 67  1  0  0  0  0 
 67 68  1  0  0  0  0 
 67 69  1  0  0  0  0 
 63 70  1  0  0  0  0 
 70 71  1  0  0  0  0 
 70 72  1  0  0  0  0 
 70 73  1  0  0  0  0 
 73 74  2  0  0  0  0 
 73 75  1  0  0  0  0 
 75 76  1  0  0  0  0 
  5 77  1  0  0  0  0 
 77 78  1  0  0  0  0 
M  END
> <Rank>
15

> <Priority_score>
0.268

> <Reaction_type>
aromatic_hydroxylation_(ortho_to_nitrogen)

> <Parent_ID>
7

> <Parent_InChI>
InChI=1S/C35H36ClNO3S/c1-34(2,40)30-9-4-3-7-25(30)13-17-32(41-23-35(18-19-35)22-33(38)39)27-8-5-6-24(20-27)10-15-29-16-12-26-11-14-28(36)21-31(26)37-29/h3-12,14-16,20-21,32,40H,13,17-19,22-23H2,1-2H3,(H,38,39)

> <Parent_SMILES>
CC(C)(O)c1ccccc1CC[C@@H](SCC1(CC(=O)O)CC1)c1cccc(/C=C/c2ccc3ccc(Cl)cc3n2)c1

$$$$
Molecule 7_metabolite 17
  CDK     0516241031

 78 82  0  0  0  0  0  0  0  0999 V2000
   13.4733   -4.6802    0.0000 C   0  0  0  0  0  0  0  0  0  0  0  0
   13.4731   -3.1802    0.0000 H   0  0  0  0  0  0  0  0  0  0  0  0
   13.9866   -6.0897    0.0000 H   0  0  0  0  0  0  0  0  0  0  0  0
   14.9505   -4.4195    0.0000 H   0  0  0  0  0  0  0  0  0  0  0  0
   12.1744   -5.4305    0.0000 C   0  0  0  0  0  0  0  0  0  0  0  0
   10.2245   -5.7746    0.0000 C   0  0  0  0  0  0  0  0  0  0  0  0
    9.2601   -4.6257    0.0000 H   0  0  0  0  0  0  0  0  0  0  0  0
    8.8151   -6.2878    0.0000 H   0  0  0  0  0  0  0  0  0  0  0  0
   10.7378   -7.1840    0.0000 H   0  0  0  0  0  0  0  0  0  0  0  0
   12.1748   -7.8905    0.0000 C   0  0  0  0  0  0  0  0  0  0  0  0
   13.4736   -8.6424    0.0000 C   0  0  0  0  0  0  0  0  0  0  0  0
   13.4714  -10.1424    0.0000 C   0  0  0  0  0  0  0  0  0  0  0  0
   14.7691  -10.8946    0.0000 H   0  0  0  0  0  0  0  0  0  0  0  0
   12.1702  -10.8905    0.0000 C   0  0  0  0  0  0  0  0  0  0  0  0
   12.1654  -12.3904    0.0000 H   0  0  0  0  0  0  0  0  0  0  0  0
   10.8814  -10.1385    0.0000 C   0  0  0  0  0  0  0  0  0  0  0  0
    9.5801  -10.8846    0.0000 H   0  0  0  0  0  0  0  0  0  0  0  0
   10.8836   -8.6385    0.0000 C   0  0  0  0  0  0  0  0  0  0  0  0
    9.5846   -7.8885    0.0000 H   0  0  0  0  0  0  0  0  0  0  0  0
   15.6057   -7.4153    0.0000 C   0  0  0  0  0  0  0  0  0  0  0  0
   17.0833   -7.1568    0.0000 H   0  0  0  0  0  0  0  0  0  0  0  0
   16.1168   -8.8255    0.0000 H   0  0  0  0  0  0  0  0  0  0  0  0
   15.6091   -4.9553    0.0000 C   0  0  0  0  0  0  0  0  0  0  0  0
   14.1315   -5.2138    0.0000 H   0  0  0  0  0  0  0  0  0  0  0  0
   15.0979   -3.5451    0.0000 H   0  0  0  0  0  0  0  0  0  0  0  0
   17.3251   -3.9676    0.0000 C   0  0  2  0  0  0  0  0  0  0  0  0
   18.8027   -3.7092    0.0000 H   0  0  0  0  0  0  0  0  0  0  0  0
   17.3272   -2.4676    0.0000 C   0  0  0  0  0  0  0  0  0  0  0  0
   18.6269   -1.7172    0.0000 C   0  0  0  0  0  0  0  0  0  0  0  0
   19.9261   -2.4670    0.0000 H   0  0  0  0  0  0  0  0  0  0  0  0
   18.6264   -0.2172    0.0000 C   0  0  0  0  0  0  0  0  0  0  0  0
   17.3262    0.5324    0.0000 C   0  0  0  0  0  0  0  0  0  0  0  0
   17.3232    2.0324    0.0000 H   0  0  0  0  0  0  0  0  0  0  0  0
   16.0364   -0.2180    0.0000 C   0  0  0  0  0  0  0  0  0  0  0  0
   14.7360    0.5296    0.0000 H   0  0  0  0  0  0  0  0  0  0  0  0
   16.0369   -1.7180    0.0000 C   0  0  0  0  0  0  0  0  0  0  0  0
   14.7370   -2.4665    0.0000 H   0  0  0  0  0  0  0  0  0  0  0  0
   19.9251    0.5334    0.0000 C   0  0  0  0  0  0  0  0  0  0  0  0
   19.9244    2.0334    0.0000 H   0  0  0  0  0  0  0  0  0  0  0  0
   21.2245   -0.2160    0.0000 C   0  0  0  0  0  0  0  0  0  0  0  0
   21.2252   -1.7160    0.0000 H   0  0  0  0  0  0  0  0  0  0  0  0
   22.5232    0.5347    0.0000 C   0  0  0  0  0  0  0  0  0  0  0  0
   23.8234   -0.2149    0.0000 N   0  0  0  0  0  0  0  0  0  0  0  0
   25.1232    0.5355    0.0000 C   0  0  0  0  0  0  0  0  0  0  0  0
   26.4234   -0.2141    0.0000 C   0  0  0  0  0  0  0  0  0  0  0  0
   26.4239   -1.7141    0.0000 H   0  0  0  0  0  0  0  0  0  0  0  0
   27.7232    0.5363    0.0000 C   0  0  0  0  0  0  0  0  0  0  0  0
   27.7227    2.0363    0.0000 C   0  0  0  0  0  0  0  0  0  0  0  0
   29.0214    2.7869    0.0000 H   0  0  0  0  0  0  0  0  0  0  0  0
   26.4225    2.7859    0.0000 C   0  0  0  0  0  0  0  0  0  0  0  0
   26.4220    4.2859    0.0000 H   0  0  0  0  0  0  0  0  0  0  0  0
   25.1227    2.0355    0.0000 C   0  0  0  0  0  0  0  0  0  0  0  0
   23.8225    2.7851    0.0000 C   0  0  0  0  0  0  0  0  0  0  0  0
   23.8220    4.2851    0.0000 H   0  0  0  0  0  0  0  0  0  0  0  0
   22.5227    2.0347    0.0000 C   0  0  0  0  0  0  0  0  0  0  0  0
   21.2235    2.7844    0.0000 H   0  0  0  0  0  0  0  0  0  0  0  0
   29.0223   -0.2135    0.0000 Cl  0  0  0  0  0  0  0  0  0  0  0  0
   17.8362   -5.3779    0.0000 S   0  0  0  0  0  0  0  0  0  0  0  0
   19.7857   -5.7243    0.0000 C   0  0  0  0  0  0  0  0  0  0  0  0
   21.2633   -5.4659    0.0000 H   0  0  0  0  0  0  0  0  0  0  0  0
   19.7877   -4.2243    0.0000 H   0  0  0  0  0  0  0  0  0  0  0  0
   20.2968   -7.1346    0.0000 C   0  0  0  0  0  0  0  0  0  0  0  0
   21.7752   -6.8758    0.0000 C   0  0  0  0  0  0  0  0  0  0  0  0
   23.2519   -7.1387    0.0000 H   0  0  0  0  0  0  0  0  0  0  0  0
   21.7788   -4.4158    0.0000 H   0  0  0  0  0  0  0  0  0  0  0  0
   21.2592   -8.2851    0.0000 C   0  0  0  0  0  0  0  0  0  0  0  0
   20.2931   -9.4326    0.0000 H   0  0  0  0  0  0  0  0  0  0  0  0
   22.5569   -9.0375    0.0000 H   0  0  0  0  0  0  0  0  0  0  0  0
   18.9967   -7.8827    0.0000 C   0  0  0  0  0  0  0  0  0  0  0  0
   18.4857   -6.4724    0.0000 H   0  0  0  0  0  0  0  0  0  0  0  0
   18.9938   -9.8627    0.0000 C   0  0  0  0  0  0  0  0  0  0  0  0
   17.6937  -10.6108    0.0000 O   0  0  0  0  0  0  0  0  0  0  0  0
   20.2917  -10.6146    0.0000 O   0  0  0  0  0  0  0  0  0  0  0  0
   20.2895  -12.1146    0.0000 H   0  0  0  0  0  0  0  0  0  0  0  0
   17.5191   -8.1410    0.0000 O   0  0  0  0  0  0  0  0  0  0  0  0
   17.0040   -9.5498    0.0000 H   0  0  0  0  0  0  0  0  0  0  0  0
   11.6611   -4.0210    0.0000 O   0  0  0  0  0  0  0  0  0  0  0  0
   12.6251   -2.8718    0.0000 H   0  0  0  0  0  0  0  0  0  0  0  0
  1  2  1  0  0  0  0 
  1  3  1  0  0  0  0 
  1  4  1  0  0  0  0 
  1  5  1  0  0  0  0 
  5  6  1  0  0  0  0 
  6  7  1  0  0  0  0 
  6  8  1  0  0  0  0 
  6  9  1  0  0  0  0 
  5 10  1  0  0  0  0 
 10 11  2  0  0  0  0 
 11 12  1  0  0  0  0 
 12 13  1  0  0  0  0 
 12 14  2  0  0  0  0 
 14 15  1  0  0  0  0 
 14 16  1  0  0  0  0 
 16 17  1  0  0  0  0 
 16 18  2  0  0  0  0 
 10 18  1  0  0  0  0 
 18 19  1  0  0  0  0 
 11 20  1  0  0  0  0 
 20 21  1  0  0  0  0 
 20 22  1  0  0  0  0 
 20 23  1  0  0  0  0 
 23 24  1  0  0  0  0 
 23 25  1  0  0  0  0 
 23 26  1  0  0  0  0 
 26 27  1  1  0  0  0 
 26 28  1  0  0  0  0 
 28 29  2  0  0  0  0 
 29 30  1  0  0  0  0 
 29 31  1  0  0  0  0 
 31 32  2  0  0  0  0 
 32 33  1  0  0  0  0 
 32 34  1  0  0  0  0 
 34 35  1  0  0  0  0 
 34 36  2  0  0  0  0 
 28 36  1  0  0  0  0 
 36 37  1  0  0  0  0 
 31 38  1  0  0  0  0 
 38 39  1  0  0  0  0 
 38 40  2  0  0  0  0 
 40 41  1  0  0  0  0 
 40 42  1  0  0  0  0 
 42 43  2  0  0  0  0 
 43 44  1  0  0  0  0 
 44 45  2  0  0  0  0 
 45 46  1  0  0  0  0 
 45 47  1  0  0  0  0 
 47 48  2  0  0  0  0 
 48 49  1  0  0  0  0 
 48 50  1  0  0  0  0 
 50 51  1  0  0  0  0 
 50 52  2  0  0  0  0 
 44 52  1  0  0  0  0 
 52 53  1  0  0  0  0 
 53 54  1  0  0  0  0 
 53 55  2  0  0  0  0 
 42 55  1  0  0  0  0 
 55 56  1  0  0  0  0 
 47 57  1  0  0  0  0 
 26 58  1  6  0  0  0 
 58 59  1  0  0  0  0 
 59 60  1  0  0  0  0 
 59 61  1  0  0  0  0 
 59 62  1  0  0  0  0 
 62 63  1  0  0  0  0 
 63 64  1  0  0  0  0 
 63 65  1  0  0  0  0 
 63 66  1  0  0  0  0 
 62 66  1  0  0  0  0 
 66 67  1  0  0  0  0 
 66 68  1  0  0  0  0 
 62 69  1  0  0  0  0 
 69 70  1  0  0  0  0 
 69 71  1  0  0  0  0 
 71 72  2  0  0  0  0 
 71 73  1  0  0  0  0 
 73 74  1  0  0  0  0 
 69 75  1  0  0  0  0 
 75 76  1  0  0  0  0 
  5 77  1  0  0  0  0 
 77 78  1  0  0  0  0 
M  END
> <Rank>
17

> <Priority_score>
0.21555763604447045

> <Reaction_type>
aliphatic_hydroxylation_(sec_carbon_next_to_SP2,not_in_a_ring)

> <Parent_ID>
7

> <Parent_InChI>
InChI=1S/C35H36ClNO3S/c1-34(2,40)30-9-4-3-7-25(30)13-17-32(41-23-35(18-19-35)22-33(38)39)27-8-5-6-24(20-27)10-15-29-16-12-26-11-14-28(36)21-31(26)37-29/h3-12,14-16,20-21,32,40H,13,17-19,22-23H2,1-2H3,(H,38,39)

> <Parent_SMILES>
CC(C)(O)c1ccccc1CC[C@@H](SCC1(CC(=O)O)CC1)c1cccc(/C=C/c2ccc3ccc(Cl)cc3n2)c1

$$$$
Molecule 7_metabolite 18
  CDK     0516241031

 84 88  0  0  0  0  0  0  0  0999 V2000
   15.2590   -4.9397    0.0000 C   0  0  0  0  0  0  0  0  0  0  0  0
   16.5604   -5.6856    0.0000 H   0  0  0  0  0  0  0  0  0  0  0  0
   14.2912   -3.7937    0.0000 H   0  0  0  0  0  0  0  0  0  0  0  0
   16.2195   -3.7876    0.0000 H   0  0  0  0  0  0  0  0  0  0  0  0
   13.9624   -5.6938    0.0000 C   0  0  0  0  0  0  0  0  0  0  0  0
   13.0019   -6.8460    0.0000 C   0  0  0  0  0  0  0  0  0  0  0  0
   13.5194   -8.2539    0.0000 H   0  0  0  0  0  0  0  0  0  0  0  0
   11.7052   -7.6001    0.0000 H   0  0  0  0  0  0  0  0  0  0  0  0
   12.0340   -5.7000    0.0000 H   0  0  0  0  0  0  0  0  0  0  0  0
   13.2082   -4.3972    0.0000 C   0  0  0  0  0  0  0  0  0  0  0  0
   11.7074   -4.4000    0.0000 C   0  0  0  0  0  0  0  0  0  0  0  0
   10.9554   -3.1021    0.0000 C   0  0  0  0  0  0  0  0  0  0  0  0
    9.4554   -3.1041    0.0000 H   0  0  0  0  0  0  0  0  0  0  0  0
   11.7043   -1.8014    0.0000 C   0  0  0  0  0  0  0  0  0  0  0  0
   10.9545   -0.5022    0.0000 H   0  0  0  0  0  0  0  0  0  0  0  0
   13.1965   -1.8037    0.0000 C   0  0  0  0  0  0  0  0  0  0  0  0
   13.9465   -0.5046    0.0000 H   0  0  0  0  0  0  0  0  0  0  0  0
   13.9485   -3.1016    0.0000 C   0  0  0  0  0  0  0  0  0  0  0  0
   15.4484   -3.0970    0.0000 H   0  0  0  0  0  0  0  0  0  0  0  0
   10.2417   -6.9485    0.0000 C   0  0  0  0  0  0  0  0  0  0  0  0
    9.0942   -7.9146    0.0000 H   0  0  0  0  0  0  0  0  0  0  0  0
    9.0910   -5.9863    0.0000 H   0  0  0  0  0  0  0  0  0  0  0  0
   10.9939   -8.2463    0.0000 C   0  0  0  0  0  0  0  0  0  0  0  0
    8.2328   -9.2565    0.0000 H   0  0  0  0  0  0  0  0  0  0  0  0
   11.2568   -9.7231    0.0000 H   0  0  0  0  0  0  0  0  0  0  0  0
   12.4939   -8.2438    0.0000 C   0  0  2  0  0  0  0  0  0  0  0  0
   13.9025   -7.7284    0.0000 H   0  0  0  0  0  0  0  0  0  0  0  0
   13.7274  -10.3722    0.0000 C   0  0  0  0  0  0  0  0  0  0  0  0
   15.2282  -10.3717    0.0000 C   0  0  0  0  0  0  0  0  0  0  0  0
   15.9780   -9.0725    0.0000 H   0  0  0  0  0  0  0  0  0  0  0  0
   15.9782  -11.6707    0.0000 C   0  0  0  0  0  0  0  0  0  0  0  0
   15.2274  -12.9702    0.0000 C   0  0  0  0  0  0  0  0  0  0  0  0
   15.9752  -14.2705    0.0000 H   0  0  0  0  0  0  0  0  0  0  0  0
   13.7352  -12.9657    0.0000 C   0  0  0  0  0  0  0  0  0  0  0  0
   12.9833  -14.2636    0.0000 H   0  0  0  0  0  0  0  0  0  0  0  0
   12.9852  -11.6667    0.0000 C   0  0  0  0  0  0  0  0  0  0  0  0
   11.4852  -11.6690    0.0000 H   0  0  0  0  0  0  0  0  0  0  0  0
   17.4782  -11.6710    0.0000 C   0  0  0  0  0  0  0  0  0  0  0  0
   18.2280  -12.9701    0.0000 H   0  0  0  0  0  0  0  0  0  0  0  0
   18.2285  -10.3720    0.0000 C   0  0  0  0  0  0  0  0  0  0  0  0
   17.4787   -9.0729    0.0000 H   0  0  0  0  0  0  0  0  0  0  0  0
   19.7285  -10.3723    0.0000 C   0  0  0  0  0  0  0  0  0  0  0  0
   20.4793   -9.0728    0.0000 N   0  0  0  0  0  0  0  0  0  0  0  0
   21.9801   -9.0723    0.0000 C   0  0  0  0  0  0  0  0  0  0  0  0
   22.7310   -7.7728    0.0000 C   0  0  0  0  0  0  0  0  0  0  0  0
   21.9810   -6.4737    0.0000 H   0  0  0  0  0  0  0  0  0  0  0  0
   24.2318   -7.7723    0.0000 C   0  0  0  0  0  0  0  0  0  0  0  0
   24.9818   -9.0713    0.0000 C   0  0  0  0  0  0  0  0  0  0  0  0
   26.4818   -9.0716    0.0000 H   0  0  0  0  0  0  0  0  0  0  0  0
   24.2310  -10.3708    0.0000 C   0  0  0  0  0  0  0  0  0  0  0  0
   24.9810  -11.6699    0.0000 H   0  0  0  0  0  0  0  0  0  0  0  0
   22.7301  -10.3713    0.0000 C   0  0  0  0  0  0  0  0  0  0  0  0
   21.9793  -11.6708    0.0000 C   0  0  0  0  0  0  0  0  0  0  0  0
   22.7293  -12.9699    0.0000 H   0  0  0  0  0  0  0  0  0  0  0  0
   20.4785  -11.6713    0.0000 C   0  0  0  0  0  0  0  0  0  0  0  0
   19.7287  -12.9705    0.0000 H   0  0  0  0  0  0  0  0  0  0  0  0
   24.9816   -6.4731    0.0000 Cl  0  0  0  0  0  0  0  0  0  0  0  0
   12.2309   -6.7670    0.0000 S   0  0  0  0  0  0  0  0  0  0  0  0
    9.9179   -5.9295    0.0000 C   0  0  0  0  0  0  0  0  0  0  0  0
    8.7672   -4.9673    0.0000 H   0  0  0  0  0  0  0  0  0  0  0  0
   10.6657   -4.6292    0.0000 H   0  0  0  0  0  0  0  0  0  0  0  0
    8.0360   -7.5139    0.0000 C   0  0  0  0  0  0  0  0  0  0  0  0
    8.7888   -8.8124    0.0000 C   0  0  0  0  0  0  0  0  0  0  0  0
    9.0512  -10.2892    0.0000 H   0  0  0  0  0  0  0  0  0  0  0  0
   10.1975   -8.2971    0.0000 H   0  0  0  0  0  0  0  0  0  0  0  0
    7.2879   -8.8141    0.0000 C   0  0  0  0  0  0  0  0  0  0  0  0
    5.8777   -8.3030    0.0000 H   0  0  0  0  0  0  0  0  0  0  0  0
    7.0293  -10.2916    0.0000 H   0  0  0  0  0  0  0  0  0  0  0  0
    6.1491   -5.9356    0.0000 C   0  0  0  0  0  0  0  0  0  0  0  0
    7.2966   -4.9697    0.0000 H   0  0  0  0  0  0  0  0  0  0  0  0
    5.3971   -4.6378    0.0000 H   0  0  0  0  0  0  0  0  0  0  0  0
    4.2896   -6.6158    0.0000 C   0  0  0  0  0  0  0  0  0  0  0  0
    3.1390   -5.6534    0.0000 O   0  0  0  0  0  0  0  0  0  0  0  0
    3.7836   -9.5119    0.0000 N   0  0  0  0  0  0  0  0  0  0  0  0
    4.9342  -10.4743    0.0000 H   0  0  0  0  0  0  0  0  0  0  0  0
    2.3748  -10.0271    0.0000 C   0  0  0  0  0  0  0  0  0  0  0  0
    2.1121   -8.5503    0.0000 H   0  0  0  0  0  0  0  0  0  0  0  0
    0.8748  -10.0295    0.0000 H   0  0  0  0  0  0  0  0  0  0  0  0
    2.1167  -11.5047    0.0000 C   0  0  0  0  0  0  0  0  0  0  0  0
    3.2673  -12.4671    0.0000 O   0  0  0  0  0  0  0  0  0  0  0  0
    0.7080  -12.0200    0.0000 O   0  0  0  0  0  0  0  0  0  0  0  0
    0.4498  -13.4976    0.0000 H   0  0  0  0  0  0  0  0  0  0  0  0
   15.1145   -6.6544    0.0000 O   0  0  0  0  0  0  0  0  0  0  0  0
   17.8740   -5.6400    0.0000 H   0  0  0  0  0  0  0  0  0  0  0  0
  1  2  1  0  0  0  0 
  1  3  1  0  0  0  0 
  1  4  1  0  0  0  0 
  1  5  1  0  0  0  0 
  5  6  1  0  0  0  0 
  6  7  1  0  0  0  0 
  6  8  1  0  0  0  0 
  6  9  1  0  0  0  0 
  5 10  1  0  0  0  0 
 10 11  2  0  0  0  0 
 11 12  1  0  0  0  0 
 12 13  1  0  0  0  0 
 12 14  2  0  0  0  0 
 14 15  1  0  0  0  0 
 14 16  1  0  0  0  0 
 16 17  1  0  0  0  0 
 16 18  2  0  0  0  0 
 10 18  1  0  0  0  0 
 18 19  1  0  0  0  0 
 11 20  1  0  0  0  0 
 20 21  1  0  0  0  0 
 20 22  1  0  0  0  0 
 20 23  1  0  0  0  0 
 23 24  1  0  0  0  0 
 23 25  1  0  0  0  0 
 23 26  1  0  0  0  0 
 26 27  1  6  0  0  0 
 26 28  1  0  0  0  0 
 28 29  2  0  0  0  0 
 29 30  1  0  0  0  0 
 29 31  1  0  0  0  0 
 31 32  2  0  0  0  0 
 32 33  1  0  0  0  0 
 32 34  1  0  0  0  0 
 34 35  1  0  0  0  0 
 34 36  2  0  0  0  0 
 28 36  1  0  0  0  0 
 36 37  1  0  0  0  0 
 31 38  1  0  0  0  0 
 38 39  1  0  0  0  0 
 38 40  2  0  0  0  0 
 40 41  1  0  0  0  0 
 40 42  1  0  0  0  0 
 42 43  2  0  0  0  0 
 43 44  1  0  0  0  0 
 44 45  2  0  0  0  0 
 45 46  1  0  0  0  0 
 45 47  1  0  0  0  0 
 47 48  2  0  0  0  0 
 48 49  1  0  0  0  0 
 48 50  1  0  0  0  0 
 50 51  1  0  0  0  0 
 50 52  2  0  0  0  0 
 44 52  1  0  0  0  0 
 52 53  1  0  0  0  0 
 53 54  1  0  0  0  0 
 53 55  2  0  0  0  0 
 42 55  1  0  0  0  0 
 55 56  1  0  0  0  0 
 47 57  1  0  0  0  0 
 26 58  1  1  0  0  0 
 58 59  1  0  0  0  0 
 59 60  1  0  0  0  0 
 59 61  1  0  0  0  0 
 59 62  1  0  0  0  0 
 62 63  1  0  0  0  0 
 63 64  1  0  0  0  0 
 63 65  1  0  0  0  0 
 63 66  1  0  0  0  0 
 62 66  1  0  0  0  0 
 66 67  1  0  0  0  0 
 66 68  1  0  0  0  0 
 62 69  1  0  0  0  0 
 69 70  1  0  0  0  0 
 69 71  1  0  0  0  0 
 69 72  1  0  0  0  0 
 72 73  2  0  0  0  0 
 72 74  1  0  0  0  0 
 74 75  1  0  0  0  0 
 74 76  1  0  0  0  0 
 76 77  1  0  0  0  0 
 76 78  1  0  0  0  0 
 76 79  1  0  0  0  0 
 79 80  2  0  0  0  0 
 79 81  1  0  0  0  0 
 81 82  1  0  0  0  0 
  5 83  1  0  0  0  0 
 83 84  1  0  0  0  0 
M  END
> <Rank>
18

> <Priority_score>
0.17104531210711396

> <Reaction_type>
glycination_(aliphatic_carboxyl)

> <Parent_ID>
7

> <Parent_InChI>
InChI=1S/C35H36ClNO3S/c1-34(2,40)30-9-4-3-7-25(30)13-17-32(41-23-35(18-19-35)22-33(38)39)27-8-5-6-24(20-27)10-15-29-16-12-26-11-14-28(36)21-31(26)37-29/h3-12,14-16,20-21,32,40H,13,17-19,22-23H2,1-2H3,(H,38,39)

> <Parent_SMILES>
CC(C)(O)c1ccccc1CC[C@@H](SCC1(CC(=O)O)CC1)c1cccc(/C=C/c2ccc3ccc(Cl)cc3n2)c1

$$$$
Molecule 7_metabolite 19
  CDK     0516241031

 78 83  0  0  0  0  0  0  0  0999 V2000
   -3.1146    6.1858    0.0000 C   0  0  0  0  0  0  0  0  0  0  0  0
   -1.6146    6.1847    0.0000 H   0  0  0  0  0  0  0  0  0  0  0  0
   -4.5238    6.6998    0.0000 H   0  0  0  0  0  0  0  0  0  0  0  0
   -2.8531    7.6628    0.0000 H   0  0  0  0  0  0  0  0  0  0  0  0
   -3.8655    4.8872    0.0000 C   0  0  0  0  0  0  0  0  0  0  0  0
   -4.2107    2.9376    0.0000 C   0  0  0  0  0  0  0  0  0  0  0  0
   -3.0623    1.9726    0.0000 H   0  0  0  0  0  0  0  0  0  0  0  0
   -5.6199    3.4516    0.0000 H   0  0  0  0  0  0  0  0  0  0  0  0
   -4.9616    1.6390    0.0000 H   0  0  0  0  0  0  0  0  0  0  0  0
   -5.8455    4.8886    0.0000 C   0  0  0  0  0  0  0  0  0  0  0  0
   -6.5986    3.5904    0.0000 C   0  0  0  0  0  0  0  0  0  0  0  0
   -8.0986    3.5939    0.0000 C   0  0  0  0  0  0  0  0  0  0  0  0
   -8.8519    2.2968    0.0000 H   0  0  0  0  0  0  0  0  0  0  0  0
   -8.8455    4.8957    0.0000 C   0  0  0  0  0  0  0  0  0  0  0  0
  -10.3455    4.9018    0.0000 H   0  0  0  0  0  0  0  0  0  0  0  0
   -8.0925    6.1839    0.0000 C   0  0  0  0  0  0  0  0  0  0  0  0
   -8.8374    7.4859    0.0000 H   0  0  0  0  0  0  0  0  0  0  0  0
   -6.5925    6.1804    0.0000 C   0  0  0  0  0  0  0  0  0  0  0  0
   -5.8413    7.4788    0.0000 H   0  0  0  0  0  0  0  0  0  0  0  0
   -5.1342    1.0410    0.0000 C   0  0  0  0  0  0  0  0  0  0  0  0
   -4.8770   -0.4367    0.0000 H   0  0  0  0  0  0  0  0  0  0  0  0
   -6.5449    0.5311    0.0000 H   0  0  0  0  0  0  0  0  0  0  0  0
   -2.1942    1.0345    0.0000 C   0  0  0  0  0  0  0  0  0  0  0  0
   -2.4514    2.5123    0.0000 H   0  0  0  0  0  0  0  0  0  0  0  0
   -0.7836    1.5445    0.0000 H   0  0  0  0  0  0  0  0  0  0  0  0
   -0.9689   -1.0986    0.0000 C   0  0  2  0  0  0  0  0  0  0  0  0
   -0.7117   -2.5764    0.0000 H   0  0  0  0  0  0  0  0  0  0  0  0
    0.5311   -1.1019    0.0000 C   0  0  0  0  0  0  0  0  0  0  0  0
    1.2760   -2.3948    0.0000 C   0  0  0  0  0  0  0  0  0  0  0  0
    0.5230   -3.6921    0.0000 H   0  0  0  0  0  0  0  0  0  0  0  0
    2.7760   -2.4006    0.0000 C   0  0  0  0  0  0  0  0  0  0  0  0
    3.5190   -3.7037    0.0000 H   0  0  0  0  0  0  0  0  0  0  0  0
    3.5310   -1.1136    0.0000 C   0  0  0  0  0  0  0  0  0  0  0  0
    5.5110   -1.1246    0.0000 H   0  0  0  0  0  0  0  0  0  0  0  0
    2.7861    0.1893    0.0000 C   0  0  0  0  0  0  0  0  0  0  0  0
    1.2861    0.1952    0.0000 C   0  0  0  0  0  0  0  0  0  0  0  0
    0.5409    1.4970    0.0000 H   0  0  0  0  0  0  0  0  0  0  0  0
    3.5413    1.4853    0.0000 C   0  0  0  0  0  0  0  0  0  0  0  0
    2.0631    1.2307    0.0000 H   0  0  0  0  0  0  0  0  0  0  0  0
    4.8435    2.2299    0.0000 C   0  0  0  0  0  0  0  0  0  0  0  0
    5.8127    3.3748    0.0000 H   0  0  0  0  0  0  0  0  0  0  0  0
    6.7237   -0.0303    0.0000 C   0  0  0  0  0  0  0  0  0  0  0  0
    6.2046   -1.4385    0.0000 N   0  0  0  0  0  0  0  0  0  0  0  0
    7.1638   -2.5927    0.0000 C   0  0  0  0  0  0  0  0  0  0  0  0
    6.6448   -4.0009    0.0000 C   0  0  0  0  0  0  0  0  0  0  0  0
    5.1664   -4.2549    0.0000 H   0  0  0  0  0  0  0  0  0  0  0  0
    7.6040   -5.1552    0.0000 C   0  0  0  0  0  0  0  0  0  0  0  0
    9.0824   -4.9012    0.0000 C   0  0  0  0  0  0  0  0  0  0  0  0
   10.0416   -6.0544    0.0000 H   0  0  0  0  0  0  0  0  0  0  0  0
    9.6014   -3.4930    0.0000 C   0  0  0  0  0  0  0  0  0  0  0  0
   11.0798   -3.2391    0.0000 H   0  0  0  0  0  0  0  0  0  0  0  0
    8.6422   -2.3388    0.0000 C   0  0  0  0  0  0  0  0  0  0  0  0
    9.1613   -0.9306    0.0000 C   0  0  0  0  0  0  0  0  0  0  0  0
   10.6396   -0.6766    0.0000 H   0  0  0  0  0  0  0  0  0  0  0  0
    8.2020    0.2237    0.0000 C   0  0  0  0  0  0  0  0  0  0  0  0
    8.7215    1.6309    0.0000 H   0  0  0  0  0  0  0  0  0  0  0  0
    7.0845   -6.5624    0.0000 Cl  0  0  0  0  0  0  0  0  0  0  0  0
    3.5471    2.9862    0.0000 O   0  0  0  0  0  0  0  0  0  0  0  0
   -2.3796   -1.6085    0.0000 S   0  0  0  0  0  0  0  0  0  0  0  0
   -2.7277   -3.5577    0.0000 C   0  0  0  0  0  0  0  0  0  0  0  0
   -1.2277   -3.5610    0.0000 H   0  0  0  0  0  0  0  0  0  0  0  0
   -2.2236   -6.4541    0.0000 H   0  0  0  0  0  0  0  0  0  0  0  0
   -4.5898   -4.2308    0.0000 C   0  0  0  0  0  0  0  0  0  0  0  0
   -5.3372   -2.9293    0.0000 C   0  0  0  0  0  0  0  0  0  0  0  0
   -6.4845   -1.9629    0.0000 H   0  0  0  0  0  0  0  0  0  0  0  0
   -4.1861   -1.9675    0.0000 H   0  0  0  0  0  0  0  0  0  0  0  0
   -6.0898   -4.2278    0.0000 C   0  0  0  0  0  0  0  0  0  0  0  0
   -6.3531   -5.7045    0.0000 H   0  0  0  0  0  0  0  0  0  0  0  0
   -7.4984   -3.7122    0.0000 H   0  0  0  0  0  0  0  0  0  0  0  0
   -4.3324   -5.7085    0.0000 C   0  0  0  0  0  0  0  0  0  0  0  0
   -2.9218   -5.1984    0.0000 H   0  0  0  0  0  0  0  0  0  0  0  0
   -3.5852   -7.0091    0.0000 H   0  0  0  0  0  0  0  0  0  0  0  0
   -6.2202   -7.2858    0.0000 C   0  0  0  0  0  0  0  0  0  0  0  0
   -7.6287   -6.7698    0.0000 O   0  0  0  0  0  0  0  0  0  0  0  0
   -5.9629   -8.7636    0.0000 O   0  0  0  0  0  0  0  0  0  0  0  0
   -7.1140   -9.7253    0.0000 H   0  0  0  0  0  0  0  0  0  0  0  0
   -2.4563    4.3732    0.0000 O   0  0  0  0  0  0  0  0  0  0  0  0
   -1.3066    5.3366    0.0000 H   0  0  0  0  0  0  0  0  0  0  0  0
  1  2  1  0  0  0  0 
  1  3  1  0  0  0  0 
  1  4  1  0  0  0  0 
  1  5  1  0  0  0  0 
  5  6  1  0  0  0  0 
  6  7  1  0  0  0  0 
  6  8  1  0  0  0  0 
  6  9  1  0  0  0  0 
  5 10  1  0  0  0  0 
 10 11  2  0  0  0  0 
 11 12  1  0  0  0  0 
 12 13  1  0  0  0  0 
 12 14  2  0  0  0  0 
 14 15  1  0  0  0  0 
 14 16  1  0  0  0  0 
 16 17  1  0  0  0  0 
 16 18  2  0  0  0  0 
 10 18  1  0  0  0  0 
 18 19  1  0  0  0  0 
 11 20  1  0  0  0  0 
 20 21  1  0  0  0  0 
 20 22  1  0  0  0  0 
 20 23  1  0  0  0  0 
 23 24  1  0  0  0  0 
 23 25  1  0  0  0  0 
 23 26  1  0  0  0  0 
 26 27  1  1  0  0  0 
 26 28  1  0  0  0  0 
 28 29  2  0  0  0  0 
 29 30  1  0  0  0  0 
 29 31  1  0  0  0  0 
 31 32  1  0  0  0  0 
 31 33  2  0  0  0  0 
 33 34  1  0  0  0  0 
 33 35  1  0  0  0  0 
 35 36  2  0  0  0  0 
 28 36  1  0  0  0  0 
 36 37  1  0  0  0  0 
 35 38  1  0  0  0  0 
 38 39  1  0  0  0  0 
 38 40  1  0  0  0  0 
 40 41  1  0  0  0  0 
 40 42  1  0  0  0  0 
 42 43  2  0  0  0  0 
 43 44  1  0  0  0  0 
 44 45  2  0  0  0  0 
 45 46  1  0  0  0  0 
 45 47  1  0  0  0  0 
 47 48  2  0  0  0  0 
 48 49  1  0  0  0  0 
 48 50  1  0  0  0  0 
 50 51  1  0  0  0  0 
 50 52  2  0  0  0  0 
 44 52  1  0  0  0  0 
 52 53  1  0  0  0  0 
 53 54  1  0  0  0  0 
 53 55  2  0  0  0  0 
 42 55  1  0  0  0  0 
 55 56  1  0  0  0  0 
 47 57  1  0  0  0  0 
 40 58  1  0  0  0  0 
 38 58  1  0  0  0  0 
 26 59  1  6  0  0  0 
 59 60  1  0  0  0  0 
 60 61  1  0  0  0  0 
 60 62  1  0  0  0  0 
 60 63  1  0  0  0  0 
 63 64  1  0  0  0  0 
 64 65  1  0  0  0  0 
 64 66  1  0  0  0  0 
 64 67  1  0  0  0  0 
 63 67  1  0  0  0  0 
 67 68  1  0  0  0  0 
 67 69  1  0  0  0  0 
 63 70  1  0  0  0  0 
 70 71  1  0  0  0  0 
 70 72  1  0  0  0  0 
 70 73  1  0  0  0  0 
 73 74  2  0  0  0  0 
 73 75  1  0  0  0  0 
 75 76  1  0  0  0  0 
  5 77  1  0  0  0  0 
 77 78  1  0  0  0  0 
M  END
> <Rank>
19

> <Priority_score>
0.15984080859128239

> <Reaction_type>
epoxidation

> <Parent_ID>
7

> <Parent_InChI>
InChI=1S/C35H36ClNO3S/c1-34(2,40)30-9-4-3-7-25(30)13-17-32(41-23-35(18-19-35)22-33(38)39)27-8-5-6-24(20-27)10-15-29-16-12-26-11-14-28(36)21-31(26)37-29/h3-12,14-16,20-21,32,40H,13,17-19,22-23H2,1-2H3,(H,38,39)

> <Parent_SMILES>
CC(C)(O)c1ccccc1CC[C@@H](SCC1(CC(=O)O)CC1)c1cccc(/C=C/c2ccc3ccc(Cl)cc3n2)c1

$$$$
Molecule 7_metabolite 20
  CDK     0516241031

 75 79  0  0  0  0  0  0  0  0999 V2000
    8.9412    4.2727    0.0000 C   0  0  0  0  0  0  0  0  0  0  0  0
    7.9768    5.4216    0.0000 H   0  0  0  0  0  0  0  0  0  0  0  0
   10.2403    3.5229    0.0000 H   0  0  0  0  0  0  0  0  0  0  0  0
    9.9052    5.4219    0.0000 H   0  0  0  0  0  0  0  0  0  0  0  0
    8.4284    2.8631    0.0000 C   0  0  0  0  0  0  0  0  0  0  0  0
    7.4644    1.7139    0.0000 C   0  0  0  0  0  0  0  0  0  0  0  0
    7.9776    0.3044    0.0000 H   0  0  0  0  0  0  0  0  0  0  0  0
    6.1654    0.9637    0.0000 H   0  0  0  0  0  0  0  0  0  0  0  0
    6.5000    2.8628    0.0000 H   0  0  0  0  0  0  0  0  0  0  0  0
   10.0099    0.9789    0.0000 C   0  0  0  0  0  0  0  0  0  0  0  0
   11.4883    1.2377    0.0000 C   0  0  0  0  0  0  0  0  0  0  0  0
   12.4507    0.0872    0.0000 C   0  0  0  0  0  0  0  0  0  0  0  0
   13.9284    0.3452    0.0000 H   0  0  0  0  0  0  0  0  0  0  0  0
   11.9348   -1.3222    0.0000 C   0  0  0  0  0  0  0  0  0  0  0  0
   12.8953   -2.4743    0.0000 H   0  0  0  0  0  0  0  0  0  0  0  0
   10.4641   -1.5746    0.0000 C   0  0  0  0  0  0  0  0  0  0  0  0
    9.9468   -2.9826    0.0000 H   0  0  0  0  0  0  0  0  0  0  0  0
    9.5017   -0.4241    0.0000 C   0  0  0  0  0  0  0  0  0  0  0  0
    8.0245   -0.6846    0.0000 H   0  0  0  0  0  0  0  0  0  0  0  0
   12.0032    2.6466    0.0000 C   0  0  0  0  0  0  0  0  0  0  0  0
   11.0406    3.7969    0.0000 H   0  0  0  0  0  0  0  0  0  0  0  0
   13.4808    2.9050    0.0000 C   0  0  0  0  0  0  0  0  0  0  0  0
   13.9957    4.3139    0.0000 H   0  0  0  0  0  0  0  0  0  0  0  0
   14.4434    1.7547    0.0000 C   0  0  2  0  0  0  0  0  0  0  0  0
   13.1433    1.0064    0.0000 H   0  0  0  0  0  0  0  0  0  0  0  0
   16.0272    3.6370    0.0000 C   0  0  0  0  0  0  0  0  0  0  0  0
   15.5177    5.0487    0.0000 C   0  0  0  0  0  0  0  0  0  0  0  0
   14.0412    5.3134    0.0000 H   0  0  0  0  0  0  0  0  0  0  0  0
   16.4854    6.1948    0.0000 C   0  0  0  0  0  0  0  0  0  0  0  0
   17.9625    5.9293    0.0000 C   0  0  0  0  0  0  0  0  0  0  0  0
   18.9321    7.0738    0.0000 H   0  0  0  0  0  0  0  0  0  0  0  0
   18.4644    4.5240    0.0000 C   0  0  0  0  0  0  0  0  0  0  0  0
   19.9404    4.2568    0.0000 H   0  0  0  0  0  0  0  0  0  0  0  0
   17.4967    3.3779    0.0000 C   0  0  0  0  0  0  0  0  0  0  0  0
   18.0076    1.9676    0.0000 H   0  0  0  0  0  0  0  0  0  0  0  0
   15.9768    7.6060    0.0000 C   0  0  0  0  0  0  0  0  0  0  0  0
   16.9447    8.7520    0.0000 H   0  0  0  0  0  0  0  0  0  0  0  0
   14.5005    7.8712    0.0000 C   0  0  0  0  0  0  0  0  0  0  0  0
   13.5326    6.7252    0.0000 H   0  0  0  0  0  0  0  0  0  0  0  0
   13.9919    9.2824    0.0000 C   0  0  0  0  0  0  0  0  0  0  0  0
   12.5148    9.5479    0.0000 N   0  0  0  0  0  0  0  0  0  0  0  0
   12.0053   10.9596    0.0000 C   0  0  0  0  0  0  0  0  0  0  0  0
   10.5281   11.2252    0.0000 C   0  0  0  0  0  0  0  0  0  0  0  0
    9.5605   10.0791    0.0000 H   0  0  0  0  0  0  0  0  0  0  0  0
   10.0186   12.6369    0.0000 C   0  0  0  0  0  0  0  0  0  0  0  0
   10.9863   13.7830    0.0000 C   0  0  0  0  0  0  0  0  0  0  0  0
   10.4778   15.1942    0.0000 H   0  0  0  0  0  0  0  0  0  0  0  0
   12.4634   13.5175    0.0000 C   0  0  0  0  0  0  0  0  0  0  0  0
   13.4311   14.6636    0.0000 H   0  0  0  0  0  0  0  0  0  0  0  0
   12.9729   12.1058    0.0000 C   0  0  0  0  0  0  0  0  0  0  0  0
   14.4501   11.8402    0.0000 C   0  0  0  0  0  0  0  0  0  0  0  0
   15.4177   12.9863    0.0000 H   0  0  0  0  0  0  0  0  0  0  0  0
   14.9596   10.4285    0.0000 C   0  0  0  0  0  0  0  0  0  0  0  0
   16.4360   10.1638    0.0000 H   0  0  0  0  0  0  0  0  0  0  0  0
    8.5422   12.9016    0.0000 Cl  0  0  0  0  0  0  0  0  0  0  0  0
   14.9545    0.3444    0.0000 S   0  0  0  0  0  0  0  0  0  0  0  0
   16.4314    0.0820    0.0000 C   0  0  0  0  0  0  0  0  0  0  0  0
   16.4334    1.5820    0.0000 H   0  0  0  0  0  0  0  0  0  0  0  0
   17.9089    0.3404    0.0000 H   0  0  0  0  0  0  0  0  0  0  0  0
   17.1060   -1.7795    0.0000 C   0  0  0  0  0  0  0  0  0  0  0  0
   18.5844   -1.5208    0.0000 C   0  0  0  0  0  0  0  0  0  0  0  0
   20.0612   -1.7837    0.0000 H   0  0  0  0  0  0  0  0  0  0  0  0
   18.5866   -0.0208    0.0000 H   0  0  0  0  0  0  0  0  0  0  0  0
   18.0684   -2.9301    0.0000 C   0  0  0  0  0  0  0  0  0  0  0  0
   17.1023   -4.0776    0.0000 H   0  0  0  0  0  0  0  0  0  0  0  0
   19.3661   -3.6824    0.0000 H   0  0  0  0  0  0  0  0  0  0  0  0
   15.8059   -2.5276    0.0000 C   0  0  0  0  0  0  0  0  0  0  0  0
   15.2949   -1.1174    0.0000 H   0  0  0  0  0  0  0  0  0  0  0  0
   14.3283   -2.7860    0.0000 H   0  0  0  0  0  0  0  0  0  0  0  0
   15.8030   -4.5076    0.0000 C   0  0  0  0  0  0  0  0  0  0  0  0
   14.5029   -5.2557    0.0000 O   0  0  0  0  0  0  0  0  0  0  0  0
   17.1010   -5.2595    0.0000 O   0  0  0  0  0  0  0  0  0  0  0  0
   17.0988   -6.7595    0.0000 H   0  0  0  0  0  0  0  0  0  0  0  0
    7.1292    3.6129    0.0000 O   0  0  0  0  0  0  0  0  0  0  0  0
    7.1290    5.1129    0.0000 H   0  0  0  0  0  0  0  0  0  0  0  0
  1  2  1  0  0  0  0 
  1  3  1  0  0  0  0 
  1  4  1  0  0  0  0 
  1  5  1  0  0  0  0 
  5  6  1  0  0  0  0 
  6  7  1  0  0  0  0 
  6  8  1  0  0  0  0 
  6  9  1  0  0  0  0 
  5 10  1  0  0  0  0 
 10 11  2  0  0  0  0 
 11 12  1  0  0  0  0 
 12 13  1  0  0  0  0 
 12 14  2  0  0  0  0 
 14 15  1  0  0  0  0 
 14 16  1  0  0  0  0 
 16 17  1  0  0  0  0 
 16 18  2  0  0  0  0 
 10 18  1  0  0  0  0 
 18 19  1  0  0  0  0 
 11 20  1  0  0  0  0 
 20 21  1  4  0  0  0 
 20 22  2  0  0  0  0 
 22 23  1  0  0  0  0 
 22 24  1  0  0  0  0 
 24 25  1  1  0  0  0 
 24 26  1  0  0  0  0 
 26 27  2  0  0  0  0 
 27 28  1  0  0  0  0 
 27 29  1  0  0  0  0 
 29 30  2  0  0  0  0 
 30 31  1  0  0  0  0 
 30 32  1  0  0  0  0 
 32 33  1  0  0  0  0 
 32 34  2  0  0  0  0 
 26 34  1  0  0  0  0 
 34 35  1  0  0  0  0 
 29 36  1  0  0  0  0 
 36 37  1  0  0  0  0 
 36 38  2  0  0  0  0 
 38 39  1  0  0  0  0 
 38 40  1  0  0  0  0 
 40 41  2  0  0  0  0 
 41 42  1  0  0  0  0 
 42 43  2  0  0  0  0 
 43 44  1  0  0  0  0 
 43 45  1  0  0  0  0 
 45 46  2  0  0  0  0 
 46 47  1  0  0  0  0 
 46 48  1  0  0  0  0 
 48 49  1  0  0  0  0 
 48 50  2  0  0  0  0 
 42 50  1  0  0  0  0 
 50 51  1  0  0  0  0 
 51 52  1  0  0  0  0 
 51 53  2  0  0  0  0 
 40 53  1  0  0  0  0 
 53 54  1  0  0  0  0 
 45 55  1  0  0  0  0 
 24 56  1  6  0  0  0 
 56 57  1  0  0  0  0 
 57 58  1  0  0  0  0 
 57 59  1  0  0  0  0 
 57 60  1  0  0  0  0 
 60 61  1  0  0  0  0 
 61 62  1  0  0  0  0 
 61 63  1  0  0  0  0 
 61 64  1  0  0  0  0 
 60 64  1  0  0  0  0 
 64 65  1  0  0  0  0 
 64 66  1  0  0  0  0 
 60 67  1  0  0  0  0 
 67 68  1  0  0  0  0 
 67 69  1  0  0  0  0 
 67 70  1  0  0  0  0 
 70 71  2  0  0  0  0 
 70 72  1  0  0  0  0 
 72 73  1  0  0  0  0 
  5 74  1  0  0  0  0 
 74 75  1  0  0  0  0 
M  END
> <Rank>
20

> <Priority_score>
0.11120000000000002

> <Reaction_type>
alkyl dehydrogenation

> <Parent_ID>
7

> <Parent_InChI>
InChI=1S/C35H36ClNO3S/c1-34(2,40)30-9-4-3-7-25(30)13-17-32(41-23-35(18-19-35)22-33(38)39)27-8-5-6-24(20-27)10-15-29-16-12-26-11-14-28(36)21-31(26)37-29/h3-12,14-16,20-21,32,40H,13,17-19,22-23H2,1-2H3,(H,38,39)

> <Parent_SMILES>
CC(C)(O)c1ccccc1CC[C@@H](SCC1(CC(=O)O)CC1)c1cccc(/C=C/c2ccc3ccc(Cl)cc3n2)c1

$$$$
Molecule 7_metabolite 21
  CDK     0516241031

 78 82  0  0  0  0  0  0  0  0999 V2000
   14.8927   -8.4503    0.0000 C   0  0  0  0  0  0  0  0  0  0  0  0
   15.6429   -9.7492    0.0000 H   0  0  0  0  0  0  0  0  0  0  0  0
   14.6320   -6.9732    0.0000 H   0  0  0  0  0  0  0  0  0  0  0  0
   16.3022   -7.9371    0.0000 H   0  0  0  0  0  0  0  0  0  0  0  0
   13.3927   -8.4506    0.0000 C   0  0  0  0  0  0  0  0  0  0  0  0
   11.5320   -7.7737    0.0000 C   0  0  0  0  0  0  0  0  0  0  0  0
   11.0210   -4.8784    0.0000 H   0  0  0  0  0  0  0  0  0  0  0  0
   10.0548   -7.5134    0.0000 H   0  0  0  0  0  0  0  0  0  0  0  0
   11.2718   -9.2509    0.0000 H   0  0  0  0  0  0  0  0  0  0  0  0
   12.4030  -10.1655    0.0000 C   0  0  0  0  0  0  0  0  0  0  0  0
   13.1519  -11.4661    0.0000 C   0  0  0  0  0  0  0  0  0  0  0  0
   12.3999  -12.7640    0.0000 C   0  0  0  0  0  0  0  0  0  0  0  0
   13.1477  -14.0643    0.0000 H   0  0  0  0  0  0  0  0  0  0  0  0
   10.8991  -12.7613    0.0000 C   0  0  0  0  0  0  0  0  0  0  0  0
   10.1449  -14.0579    0.0000 H   0  0  0  0  0  0  0  0  0  0  0  0
   10.1589  -11.4656    0.0000 C   0  0  0  0  0  0  0  0  0  0  0  0
    8.6589  -11.4611    0.0000 H   0  0  0  0  0  0  0  0  0  0  0  0
   10.9108  -10.1677    0.0000 C   0  0  0  0  0  0  0  0  0  0  0  0
   10.1608   -8.8687    0.0000 H   0  0  0  0  0  0  0  0  0  0  0  0
   15.6119  -11.4694    0.0000 C   0  0  0  0  0  0  0  0  0  0  0  0
   16.5745  -12.6198    0.0000 H   0  0  0  0  0  0  0  0  0  0  0  0
   14.6461  -12.6172    0.0000 H   0  0  0  0  0  0  0  0  0  0  0  0
   17.7440  -10.2423    0.0000 C   0  0  0  0  0  0  0  0  0  0  0  0
   16.7813   -9.0920    0.0000 H   0  0  0  0  0  0  0  0  0  0  0  0
   18.7097   -9.0946    0.0000 H   0  0  0  0  0  0  0  0  0  0  0  0
   19.4573  -11.2346    0.0000 C   0  0  2  0  0  0  0  0  0  0  0  0
   20.4200  -12.3850    0.0000 H   0  0  0  0  0  0  0  0  0  0  0  0
   20.7574  -10.4864    0.0000 C   0  0  0  0  0  0  0  0  0  0  0  0
   22.0572  -11.2368    0.0000 C   0  0  0  0  0  0  0  0  0  0  0  0
   22.0574  -12.7368    0.0000 H   0  0  0  0  0  0  0  0  0  0  0  0
   23.3560  -10.4864    0.0000 C   0  0  0  0  0  0  0  0  0  0  0  0
   23.3550   -8.9856    0.0000 C   0  0  0  0  0  0  0  0  0  0  0  0
   24.6525   -8.2330    0.0000 H   0  0  0  0  0  0  0  0  0  0  0  0
   22.0602   -8.2438    0.0000 C   0  0  0  0  0  0  0  0  0  0  0  0
   22.0575   -6.7438    0.0000 H   0  0  0  0  0  0  0  0  0  0  0  0
   20.7614   -8.9942    0.0000 C   0  0  0  0  0  0  0  0  0  0  0  0
   19.4633   -8.2427    0.0000 H   0  0  0  0  0  0  0  0  0  0  0  0
   24.6553  -11.2358    0.0000 C   0  0  0  0  0  0  0  0  0  0  0  0
   25.9540  -10.4852    0.0000 H   0  0  0  0  0  0  0  0  0  0  0  0
   24.6561  -12.7358    0.0000 C   0  0  0  0  0  0  0  0  0  0  0  0
   23.3574  -13.4864    0.0000 H   0  0  0  0  0  0  0  0  0  0  0  0
   25.9555  -13.4852    0.0000 C   0  0  0  0  0  0  0  0  0  0  0  0
   25.9564  -14.9860    0.0000 N   0  0  0  0  0  0  0  0  0  0  0  0
   27.2562  -15.7364    0.0000 C   0  0  0  0  0  0  0  0  0  0  0  0
   27.2572  -17.2372    0.0000 C   0  0  0  0  0  0  0  0  0  0  0  0
   25.9584  -17.9877    0.0000 H   0  0  0  0  0  0  0  0  0  0  0  0
   28.5569  -17.9877    0.0000 C   0  0  0  0  0  0  0  0  0  0  0  0
   29.8557  -17.2372    0.0000 C   0  0  0  0  0  0  0  0  0  0  0  0
   31.1551  -17.9866    0.0000 H   0  0  0  0  0  0  0  0  0  0  0  0
   29.8547  -15.7364    0.0000 C   0  0  0  0  0  0  0  0  0  0  0  0
   28.5550  -14.9860    0.0000 C   0  0  0  0  0  0  0  0  0  0  0  0
   28.5540  -13.4852    0.0000 C   0  0  0  0  0  0  0  0  0  0  0  0
   29.8528  -12.7347    0.0000 H   0  0  0  0  0  0  0  0  0  0  0  0
   27.2543  -12.7347    0.0000 C   0  0  0  0  0  0  0  0  0  0  0  0
   27.2540  -11.2347    0.0000 H   0  0  0  0  0  0  0  0  0  0  0  0
   31.1535  -14.9860    0.0000 O   0  0  0  0  0  0  0  0  0  0  0  0
   32.4528  -15.7356    0.0000 H   0  0  0  0  0  0  0  0  0  0  0  0
   28.5572  -19.4877    0.0000 Cl  0  0  0  0  0  0  0  0  0  0  0  0
   18.4916  -12.3824    0.0000 S   0  0  0  0  0  0  0  0  0  0  0  0
   19.1663  -14.2439    0.0000 C   0  0  0  0  0  0  0  0  0  0  0  0
   20.1289  -15.3943    0.0000 H   0  0  0  0  0  0  0  0  0  0  0  0
   20.4663  -13.4957    0.0000 H   0  0  0  0  0  0  0  0  0  0  0  0
   18.2005  -15.3917    0.0000 C   0  0  0  0  0  0  0  0  0  0  0  0
   19.1638  -16.5426    0.0000 C   0  0  0  0  0  0  0  0  0  0  0  0
   19.6745  -17.9530    0.0000 H   0  0  0  0  0  0  0  0  0  0  0  0
   21.2960  -15.3157    0.0000 H   0  0  0  0  0  0  0  0  0  0  0  0
   17.6853  -16.8004    0.0000 C   0  0  0  0  0  0  0  0  0  0  0  0
   16.2085  -16.5375    0.0000 H   0  0  0  0  0  0  0  0  0  0  0  0
   17.6826  -18.3004    0.0000 H   0  0  0  0  0  0  0  0  0  0  0  0
   16.9026  -14.6398    0.0000 C   0  0  0  0  0  0  0  0  0  0  0  0
   17.8685  -13.4921    0.0000 H   0  0  0  0  0  0  0  0  0  0  0  0
   15.9401  -13.4893    0.0000 H   0  0  0  0  0  0  0  0  0  0  0  0
   14.7704  -15.8667    0.0000 C   0  0  0  0  0  0  0  0  0  0  0  0
   13.4724  -15.1148    0.0000 O   0  0  0  0  0  0  0  0  0  0  0  0
   14.7682  -17.3667    0.0000 O   0  0  0  0  0  0  0  0  0  0  0  0
   13.4681  -18.1148    0.0000 H   0  0  0  0  0  0  0  0  0  0  0  0
   13.6530   -6.9733    0.0000 O   0  0  0  0  0  0  0  0  0  0  0  0
   12.5037   -6.0093    0.0000 H   0  0  0  0  0  0  0  0  0  0  0  0
  1  2  1  0  0  0  0 
  1  3  1  0  0  0  0 
  1  4  1  0  0  0  0 
  1  5  1  0  0  0  0 
  5  6  1  0  0  0  0 
  6  7  1  0  0  0  0 
  6  8  1  0  0  0  0 
  6  9  1  0  0  0  0 
  5 10  1  0  0  0  0 
 10 11  2  0  0  0  0 
 11 12  1  0  0  0  0 
 12 13  1  0  0  0  0 
 12 14  2  0  0  0  0 
 14 15  1  0  0  0  0 
 14 16  1  0  0  0  0 
 16 17  1  0  0  0  0 
 16 18  2  0  0  0  0 
 10 18  1  0  0  0  0 
 18 19  1  0  0  0  0 
 11 20  1  0  0  0  0 
 20 21  1  0  0  0  0 
 20 22  1  0  0  0  0 
 20 23  1  0  0  0  0 
 23 24  1  0  0  0  0 
 23 25  1  0  0  0  0 
 23 26  1  0  0  0  0 
 26 27  1  1  0  0  0 
 26 28  1  0  0  0  0 
 28 29  2  0  0  0  0 
 29 30  1  0  0  0  0 
 29 31  1  0  0  0  0 
 31 32  2  0  0  0  0 
 32 33  1  0  0  0  0 
 32 34  1  0  0  0  0 
 34 35  1  0  0  0  0 
 34 36  2  0  0  0  0 
 28 36  1  0  0  0  0 
 36 37  1  0  0  0  0 
 31 38  1  0  0  0  0 
 38 39  1  0  0  0  0 
 38 40  2  0  0  0  0 
 40 41  1  0  0  0  0 
 40 42  1  0  0  0  0 
 42 43  2  0  0  0  0 
 43 44  1  0  0  0  0 
 44 45  2  0  0  0  0 
 45 46  1  0  0  0  0 
 45 47  1  0  0  0  0 
 47 48  2  0  0  0  0 
 48 49  1  0  0  0  0 
 48 50  1  0  0  0  0 
 50 51  2  0  0  0  0 
 44 51  1  0  0  0  0 
 51 52  1  0  0  0  0 
 52 53  1  0  0  0  0 
 52 54  2  0  0  0  0 
 42 54  1  0  0  0  0 
 54 55  1  0  0  0  0 
 50 56  1  0  0  0  0 
 56 57  1  0  0  0  0 
 47 58  1  0  0  0  0 
 26 59  1  6  0  0  0 
 59 60  1  0  0  0  0 
 60 61  1  0  0  0  0 
 60 62  1  0  0  0  0 
 60 63  1  0  0  0  0 
 63 64  1  0  0  0  0 
 64 65  1  0  0  0  0 
 64 66  1  0  0  0  0 
 64 67  1  0  0  0  0 
 63 67  1  0  0  0  0 
 67 68  1  0  0  0  0 
 67 69  1  0  0  0  0 
 63 70  1  0  0  0  0 
 70 71  1  0  0  0  0 
 70 72  1  0  0  0  0 
 70 73  1  0  0  0  0 
 73 74  2  0  0  0  0 
 73 75  1  0  0  0  0 
 75 76  1  0  0  0  0 
  5 77  1  0  0  0  0 
 77 78  1  0  0  0  0 
M  END
> <Rank>
21

> <Priority_score>
0.1

> <Reaction_type>
aromatic hydroxylation

> <Parent_ID>
7

> <Parent_InChI>
InChI=1S/C35H36ClNO3S/c1-34(2,40)30-9-4-3-7-25(30)13-17-32(41-23-35(18-19-35)22-33(38)39)27-8-5-6-24(20-27)10-15-29-16-12-26-11-14-28(36)21-31(26)37-29/h3-12,14-16,20-21,32,40H,13,17-19,22-23H2,1-2H3,(H,38,39)

> <Parent_SMILES>
CC(C)(O)c1ccccc1CC[C@@H](SCC1(CC(=O)O)CC1)c1cccc(/C=C/c2ccc3ccc(Cl)cc3n2)c1

$$$$
Molecule 7_metabolite 22
  CDK     0516241031

 78 82  0  0  0  0  0  0  0  0999 V2000
   13.9835   -3.1032    0.0000 C   0  0  0  0  0  0  0  0  0  0  0  0
   13.9814   -1.6032    0.0000 H   0  0  0  0  0  0  0  0  0  0  0  0
   15.4603   -2.8407    0.0000 H   0  0  0  0  0  0  0  0  0  0  0  0
   14.4984   -4.5120    0.0000 H   0  0  0  0  0  0  0  0  0  0  0  0
   12.6854   -3.8549    0.0000 C   0  0  0  0  0  0  0  0  0  0  0  0
   12.1705   -2.4461    0.0000 C   0  0  0  0  0  0  0  0  0  0  0  0
   13.1331   -1.2957    0.0000 H   0  0  0  0  0  0  0  0  0  0  0  0
   11.2048   -1.2983    0.0000 H   0  0  0  0  0  0  0  0  0  0  0  0
   10.8725   -3.1979    0.0000 H   0  0  0  0  0  0  0  0  0  0  0  0
   12.6875   -5.3549    0.0000 C   0  0  0  0  0  0  0  0  0  0  0  0
   13.9881   -6.1038    0.0000 C   0  0  0  0  0  0  0  0  0  0  0  0
   15.2860   -5.3518    0.0000 H   0  0  0  0  0  0  0  0  0  0  0  0
   13.9909   -7.6046    0.0000 C   0  0  0  0  0  0  0  0  0  0  0  0
   15.2912   -8.3525    0.0000 H   0  0  0  0  0  0  0  0  0  0  0  0
   12.6930   -8.3566    0.0000 C   0  0  0  0  0  0  0  0  0  0  0  0
   12.6950   -9.8566    0.0000 H   0  0  0  0  0  0  0  0  0  0  0  0
   11.3923   -7.6077    0.0000 C   0  0  0  0  0  0  0  0  0  0  0  0
   11.3896   -6.1069    0.0000 C   0  0  0  0  0  0  0  0  0  0  0  0
    9.2571   -4.8805    0.0000 C   0  0  0  0  0  0  0  0  0  0  0  0
    8.2910   -3.7330    0.0000 H   0  0  0  0  0  0  0  0  0  0  0  0
   10.2193   -3.7298    0.0000 H   0  0  0  0  0  0  0  0  0  0  0  0
    7.9593   -5.6327    0.0000 C   0  0  0  0  0  0  0  0  0  0  0  0
    9.2346   -7.1473    0.0000 H   0  0  0  0  0  0  0  0  0  0  0  0
    6.9971   -6.7833    0.0000 H   0  0  0  0  0  0  0  0  0  0  0  0
    6.2429   -4.6455    0.0000 C   0  0  2  0  0  0  0  0  0  0  0  0
    4.7653   -4.3875    0.0000 H   0  0  0  0  0  0  0  0  0  0  0  0
    6.2404   -3.1455    0.0000 C   0  0  0  0  0  0  0  0  0  0  0  0
    4.9404   -2.3955    0.0000 C   0  0  0  0  0  0  0  0  0  0  0  0
    3.6415   -3.1457    0.0000 H   0  0  0  0  0  0  0  0  0  0  0  0
    4.9404   -0.8955    0.0000 C   0  0  0  0  0  0  0  0  0  0  0  0
    6.2404   -0.1455    0.0000 C   0  0  0  0  0  0  0  0  0  0  0  0
    6.2429    1.3545    0.0000 H   0  0  0  0  0  0  0  0  0  0  0  0
    7.5304   -0.8955    0.0000 C   0  0  0  0  0  0  0  0  0  0  0  0
    8.8306   -0.1475    0.0000 H   0  0  0  0  0  0  0  0  0  0  0  0
    7.5304   -2.3955    0.0000 C   0  0  0  0  0  0  0  0  0  0  0  0
    8.8306   -3.1436    0.0000 H   0  0  0  0  0  0  0  0  0  0  0  0
    3.6415   -0.1453    0.0000 C   0  0  0  0  0  0  0  0  0  0  0  0
    3.6417    1.3547    0.0000 H   0  0  0  0  0  0  0  0  0  0  0  0
    2.3423   -0.8951    0.0000 C   0  0  0  0  0  0  0  0  0  0  0  0
    2.3421   -2.3951    0.0000 H   0  0  0  0  0  0  0  0  0  0  0  0
    1.0434   -0.1449    0.0000 C   0  0  0  0  0  0  0  0  0  0  0  0
   -0.2566   -0.8949    0.0000 N   0  0  0  0  0  0  0  0  0  0  0  0
   -1.5566   -0.1449    0.0000 C   0  0  0  0  0  0  0  0  0  0  0  0
   -2.8566   -0.8949    0.0000 C   0  0  0  0  0  0  0  0  0  0  0  0
   -2.8566   -2.3949    0.0000 H   0  0  0  0  0  0  0  0  0  0  0  0
   -4.1566   -0.1449    0.0000 C   0  0  0  0  0  0  0  0  0  0  0  0
   -4.1566    1.3551    0.0000 C   0  0  0  0  0  0  0  0  0  0  0  0
   -5.4555    2.1053    0.0000 H   0  0  0  0  0  0  0  0  0  0  0  0
   -2.8566    2.1051    0.0000 C   0  0  0  0  0  0  0  0  0  0  0  0
   -2.8566    3.6051    0.0000 H   0  0  0  0  0  0  0  0  0  0  0  0
   -1.5566    1.3551    0.0000 C   0  0  0  0  0  0  0  0  0  0  0  0
   -0.2566    2.1051    0.0000 C   0  0  0  0  0  0  0  0  0  0  0  0
   -0.2566    3.6051    0.0000 H   0  0  0  0  0  0  0  0  0  0  0  0
    1.0434    1.3551    0.0000 C   0  0  0  0  0  0  0  0  0  0  0  0
    2.3423    2.1053    0.0000 H   0  0  0  0  0  0  0  0  0  0  0  0
   -5.4555   -0.8951    0.0000 Cl  0  0  0  0  0  0  0  0  0  0  0  0
    5.7323   -6.0559    0.0000 S   0  0  0  0  0  0  0  0  0  0  0  0
    3.7829   -6.4030    0.0000 C   0  0  0  0  0  0  0  0  0  0  0  0
    2.3053   -6.1450    0.0000 H   0  0  0  0  0  0  0  0  0  0  0  0
    3.7804   -4.9030    0.0000 H   0  0  0  0  0  0  0  0  0  0  0  0
    3.2722   -7.8134    0.0000 C   0  0  0  0  0  0  0  0  0  0  0  0
    1.7938   -7.5551    0.0000 C   0  0  0  0  0  0  0  0  0  0  0  0
    0.3171   -7.8185    0.0000 H   0  0  0  0  0  0  0  0  0  0  0  0
    1.7894   -5.0951    0.0000 H   0  0  0  0  0  0  0  0  0  0  0  0
    2.3102   -8.9643    0.0000 C   0  0  0  0  0  0  0  0  0  0  0  0
    3.2767  -10.1114    0.0000 H   0  0  0  0  0  0  0  0  0  0  0  0
    1.0128   -9.7170    0.0000 H   0  0  0  0  0  0  0  0  0  0  0  0
    4.5726   -8.5611    0.0000 C   0  0  0  0  0  0  0  0  0  0  0  0
    5.0831   -7.1506    0.0000 H   0  0  0  0  0  0  0  0  0  0  0  0
    6.0503   -8.8189    0.0000 H   0  0  0  0  0  0  0  0  0  0  0  0
    4.5761  -10.5411    0.0000 C   0  0  0  0  0  0  0  0  0  0  0  0
    5.8765  -11.2888    0.0000 O   0  0  0  0  0  0  0  0  0  0  0  0
    3.2784  -11.2934    0.0000 O   0  0  0  0  0  0  0  0  0  0  0  0
    3.2811  -12.7934    0.0000 H   0  0  0  0  0  0  0  0  0  0  0  0
   10.0944   -8.3597    0.0000 O   0  0  0  0  0  0  0  0  0  0  0  0
   10.0967   -9.8597    0.0000 H   0  0  0  0  0  0  0  0  0  0  0  0
   11.2086   -4.1174    0.0000 O   0  0  0  0  0  0  0  0  0  0  0  0
   10.6975   -5.5277    0.0000 H   0  0  0  0  0  0  0  0  0  0  0  0
  1  2  1  0  0  0  0 
  1  3  1  0  0  0  0 
  1  4  1  0  0  0  0 
  1  5  1  0  0  0  0 
  5  6  1  0  0  0  0 
  6  7  1  0  0  0  0 
  6  8  1  0  0  0  0 
  6  9  1  0  0  0  0 
  5 10  1  0  0  0  0 
 10 11  2  0  0  0  0 
 11 12  1  0  0  0  0 
 11 13  1  0  0  0  0 
 13 14  1  0  0  0  0 
 13 15  2  0  0  0  0 
 15 16  1  0  0  0  0 
 15 17  1  0  0  0  0 
 17 18  2  0  0  0  0 
 10 18  1  0  0  0  0 
 18 19  1  0  0  0  0 
 19 20  1  0  0  0  0 
 19 21  1  0  0  0  0 
 19 22  1  0  0  0  0 
 22 23  1  0  0  0  0 
 22 24  1  0  0  0  0 
 22 25  1  0  0  0  0 
 25 26  1  6  0  0  0 
 25 27  1  0  0  0  0 
 27 28  2  0  0  0  0 
 28 29  1  0  0  0  0 
 28 30  1  0  0  0  0 
 30 31  2  0  0  0  0 
 31 32  1  0  0  0  0 
 31 33  1  0  0  0  0 
 33 34  1  0  0  0  0 
 33 35  2  0  0  0  0 
 27 35  1  0  0  0  0 
 35 36  1  0  0  0  0 
 30 37  1  0  0  0  0 
 37 38  1  0  0  0  0 
 37 39  2  0  0  0  0 
 39 40  1  0  0  0  0 
 39 41  1  0  0  0  0 
 41 42  2  0  0  0  0 
 42 43  1  0  0  0  0 
 43 44  2  0  0  0  0 
 44 45  1  0  0  0  0 
 44 46  1  0  0  0  0 
 46 47  2  0  0  0  0 
 47 48  1  0  0  0  0 
 47 49  1  0  0  0  0 
 49 50  1  0  0  0  0 
 49 51  2  0  0  0  0 
 43 51  1  0  0  0  0 
 51 52  1  0  0  0  0 
 52 53  1  0  0  0  0 
 52 54  2  0  0  0  0 
 41 54  1  0  0  0  0 
 54 55  1  0  0  0  0 
 46 56  1  0  0  0  0 
 25 57  1  1  0  0  0 
 57 58  1  0  0  0  0 
 58 59  1  0  0  0  0 
 58 60  1  0  0  0  0 
 58 61  1  0  0  0  0 
 61 62  1  0  0  0  0 
 62 63  1  0  0  0  0 
 62 64  1  0  0  0  0 
 62 65  1  0  0  0  0 
 61 65  1  0  0  0  0 
 65 66  1  0  0  0  0 
 65 67  1  0  0  0  0 
 61 68  1  0  0  0  0 
 68 69  1  0  0  0  0 
 68 70  1  0  0  0  0 
 68 71  1  0  0  0  0 
 71 72  2  0  0  0  0 
 71 73  1  0  0  0  0 
 73 74  1  0  0  0  0 
 17 75  1  0  0  0  0 
 75 76  1  0  0  0  0 
  5 77  1  0  0  0  0 
 77 78  1  0  0  0  0 
M  END
> <Rank>
22

> <Priority_score>
0.092

> <Reaction_type>
aromatic hydroxylation

> <Parent_ID>
7

> <Parent_InChI>
InChI=1S/C35H36ClNO3S/c1-34(2,40)30-9-4-3-7-25(30)13-17-32(41-23-35(18-19-35)22-33(38)39)27-8-5-6-24(20-27)10-15-29-16-12-26-11-14-28(36)21-31(26)37-29/h3-12,14-16,20-21,32,40H,13,17-19,22-23H2,1-2H3,(H,38,39)

> <Parent_SMILES>
CC(C)(O)c1ccccc1CC[C@@H](SCC1(CC(=O)O)CC1)c1cccc(/C=C/c2ccc3ccc(Cl)cc3n2)c1

$$$$
Molecule 7_metabolite 23
  CDK     0516241031

 78 82  0  0  0  0  0  0  0  0999 V2000
   14.9257   -8.4432    0.0000 C   0  0  0  0  0  0  0  0  0  0  0  0
   15.6767   -9.7417    0.0000 H   0  0  0  0  0  0  0  0  0  0  0  0
   14.6641   -6.9662    0.0000 H   0  0  0  0  0  0  0  0  0  0  0  0
   16.3349   -7.9291    0.0000 H   0  0  0  0  0  0  0  0  0  0  0  0
   13.4257   -8.4443    0.0000 C   0  0  0  0  0  0  0  0  0  0  0  0
   11.5646   -7.7685    0.0000 C   0  0  0  0  0  0  0  0  0  0  0  0
   11.0519   -4.8735    0.0000 H   0  0  0  0  0  0  0  0  0  0  0  0
   10.0872   -7.5091    0.0000 H   0  0  0  0  0  0  0  0  0  0  0  0
   11.3052   -9.2459    0.0000 H   0  0  0  0  0  0  0  0  0  0  0  0
   12.4370  -10.1598    0.0000 C   0  0  0  0  0  0  0  0  0  0  0  0
   13.1866  -11.4600    0.0000 C   0  0  0  0  0  0  0  0  0  0  0  0
   12.4354  -12.7583    0.0000 C   0  0  0  0  0  0  0  0  0  0  0  0
   13.1840  -14.0582    0.0000 H   0  0  0  0  0  0  0  0  0  0  0  0
   10.9345  -12.7564    0.0000 C   0  0  0  0  0  0  0  0  0  0  0  0
   10.1812  -14.0535    0.0000 H   0  0  0  0  0  0  0  0  0  0  0  0
   10.1936  -11.4612    0.0000 C   0  0  0  0  0  0  0  0  0  0  0  0
    8.6936  -11.4576    0.0000 H   0  0  0  0  0  0  0  0  0  0  0  0
   10.9448  -10.1629    0.0000 C   0  0  0  0  0  0  0  0  0  0  0  0
   10.1940   -8.8643    0.0000 H   0  0  0  0  0  0  0  0  0  0  0  0
   15.6466  -11.4619    0.0000 C   0  0  0  0  0  0  0  0  0  0  0  0
   16.6099  -12.6117    0.0000 H   0  0  0  0  0  0  0  0  0  0  0  0
   14.6815  -12.6102    0.0000 H   0  0  0  0  0  0  0  0  0  0  0  0
   17.7780  -10.2335    0.0000 C   0  0  0  0  0  0  0  0  0  0  0  0
   16.8147   -9.0837    0.0000 H   0  0  0  0  0  0  0  0  0  0  0  0
   18.7430   -9.0852    0.0000 H   0  0  0  0  0  0  0  0  0  0  0  0
   19.4919  -11.2249    0.0000 C   0  0  2  0  0  0  0  0  0  0  0  0
   20.4552  -12.3747    0.0000 H   0  0  0  0  0  0  0  0  0  0  0  0
   20.7915  -10.4759    0.0000 C   0  0  0  0  0  0  0  0  0  0  0  0
   22.0878  -11.2285    0.0000 C   0  0  0  0  0  0  0  0  0  0  0  0
   23.4026  -10.5005    0.0000 C   0  0  0  0  0  0  0  0  0  0  0  0
   23.3704   -8.9808    0.0000 C   0  0  0  0  0  0  0  0  0  0  0  0
   24.6522   -8.2017    0.0000 H   0  0  0  0  0  0  0  0  0  0  0  0
   22.0650   -8.2684    0.0000 C   0  0  0  0  0  0  0  0  0  0  0  0
   22.0509   -6.7684    0.0000 H   0  0  0  0  0  0  0  0  0  0  0  0
   20.7902   -8.9956    0.0000 C   0  0  0  0  0  0  0  0  0  0  0  0
   19.4927   -8.2428    0.0000 H   0  0  0  0  0  0  0  0  0  0  0  0
   24.7029  -11.2484    0.0000 C   0  0  0  0  0  0  0  0  0  0  0  0
   24.7054  -12.7484    0.0000 H   0  0  0  0  0  0  0  0  0  0  0  0
   26.0007  -10.4962    0.0000 C   0  0  0  0  0  0  0  0  0  0  0  0
   25.9983   -8.9962    0.0000 H   0  0  0  0  0  0  0  0  0  0  0  0
   27.3010  -11.2441    0.0000 C   0  0  0  0  0  0  0  0  0  0  0  0
   28.5996  -10.4918    0.0000 N   0  0  0  0  0  0  0  0  0  0  0  0
   29.9010  -11.2394    0.0000 C   0  0  0  0  0  0  0  0  0  0  0  0
   31.1996  -10.4871    0.0000 C   0  0  0  0  0  0  0  0  0  0  0  0
   31.1969   -8.9871    0.0000 H   0  0  0  0  0  0  0  0  0  0  0  0
   32.5010  -11.2347    0.0000 C   0  0  0  0  0  0  0  0  0  0  0  0
   32.5037  -12.7347    0.0000 C   0  0  0  0  0  0  0  0  0  0  0  0
   33.8040  -13.4826    0.0000 H   0  0  0  0  0  0  0  0  0  0  0  0
   31.2050  -13.4871    0.0000 C   0  0  0  0  0  0  0  0  0  0  0  0
   31.2077  -14.9871    0.0000 H   0  0  0  0  0  0  0  0  0  0  0  0
   29.9037  -12.7394    0.0000 C   0  0  0  0  0  0  0  0  0  0  0  0
   28.6050  -13.4918    0.0000 C   0  0  0  0  0  0  0  0  0  0  0  0
   28.6078  -14.9917    0.0000 H   0  0  0  0  0  0  0  0  0  0  0  0
   27.3037  -12.7441    0.0000 C   0  0  0  0  0  0  0  0  0  0  0  0
   26.0061  -13.4966    0.0000 H   0  0  0  0  0  0  0  0  0  0  0  0
   33.7985  -10.4822    0.0000 Cl  0  0  0  0  0  0  0  0  0  0  0  0
   22.0725  -12.7285    0.0000 O   0  0  0  0  0  0  0  0  0  0  0  0
   23.3638  -13.4917    0.0000 H   0  0  0  0  0  0  0  0  0  0  0  0
   18.5269  -12.3732    0.0000 S   0  0  0  0  0  0  0  0  0  0  0  0
   19.2026  -14.2343    0.0000 C   0  0  0  0  0  0  0  0  0  0  0  0
   20.1659  -15.3841    0.0000 H   0  0  0  0  0  0  0  0  0  0  0  0
   20.5022  -13.4853    0.0000 H   0  0  0  0  0  0  0  0  0  0  0  0
   18.2375  -15.3826    0.0000 C   0  0  0  0  0  0  0  0  0  0  0  0
   19.2015  -16.5330    0.0000 C   0  0  0  0  0  0  0  0  0  0  0  0
   19.7130  -17.9431    0.0000 H   0  0  0  0  0  0  0  0  0  0  0  0
   21.3330  -15.3048    0.0000 H   0  0  0  0  0  0  0  0  0  0  0  0
   17.7231  -16.7916    0.0000 C   0  0  0  0  0  0  0  0  0  0  0  0
   16.2462  -16.5296    0.0000 H   0  0  0  0  0  0  0  0  0  0  0  0
   17.7213  -18.2916    0.0000 H   0  0  0  0  0  0  0  0  0  0  0  0
   16.9392  -14.6315    0.0000 C   0  0  0  0  0  0  0  0  0  0  0  0
   17.9044  -13.4833    0.0000 H   0  0  0  0  0  0  0  0  0  0  0  0
   15.9760  -13.4816    0.0000 H   0  0  0  0  0  0  0  0  0  0  0  0
   14.8077  -15.8596    0.0000 C   0  0  0  0  0  0  0  0  0  0  0  0
   13.5093  -15.1085    0.0000 O   0  0  0  0  0  0  0  0  0  0  0  0
   14.8063  -17.3596    0.0000 O   0  0  0  0  0  0  0  0  0  0  0  0
   13.5066  -18.1085    0.0000 H   0  0  0  0  0  0  0  0  0  0  0  0
   13.6851   -6.9669    0.0000 O   0  0  0  0  0  0  0  0  0  0  0  0
   12.5353   -6.0036    0.0000 H   0  0  0  0  0  0  0  0  0  0  0  0
  1  2  1  0  0  0  0 
  1  3  1  0  0  0  0 
  1  4  1  0  0  0  0 
  1  5  1  0  0  0  0 
  5  6  1  0  0  0  0 
  6  7  1  0  0  0  0 
  6  8  1  0  0  0  0 
  6  9  1  0  0  0  0 
  5 10  1  0  0  0  0 
 10 11  2  0  0  0  0 
 11 12  1  0  0  0  0 
 12 13  1  0  0  0  0 
 12 14  2  0  0  0  0 
 14 15  1  0  0  0  0 
 14 16  1  0  0  0  0 
 16 17  1  0  0  0  0 
 16 18  2  0  0  0  0 
 10 18  1  0  0  0  0 
 18 19  1  0  0  0  0 
 11 20  1  0  0  0  0 
 20 21  1  0  0  0  0 
 20 22  1  0  0  0  0 
 20 23  1  0  0  0  0 
 23 24  1  0  0  0  0 
 23 25  1  0  0  0  0 
 23 26  1  0  0  0  0 
 26 27  1  1  0  0  0 
 26 28  1  0  0  0  0 
 28 29  2  0  0  0  0 
 29 30  1  0  0  0  0 
 30 31  2  0  0  0  0 
 31 32  1  0  0  0  0 
 31 33  1  0  0  0  0 
 33 34  1  0  0  0  0 
 33 35  2  0  0  0  0 
 28 35  1  0  0  0  0 
 35 36  1  0  0  0  0 
 30 37  1  0  0  0  0 
 37 38  1  0  0  0  0 
 37 39  2  0  0  0  0 
 39 40  1  0  0  0  0 
 39 41  1  0  0  0  0 
 41 42  2  0  0  0  0 
 42 43  1  0  0  0  0 
 43 44  2  0  0  0  0 
 44 45  1  0  0  0  0 
 44 46  1  0  0  0  0 
 46 47  2  0  0  0  0 
 47 48  1  0  0  0  0 
 47 49  1  0  0  0  0 
 49 50  1  0  0  0  0 
 49 51  2  0  0  0  0 
 43 51  1  0  0  0  0 
 51 52  1  0  0  0  0 
 52 53  1  0  0  0  0 
 52 54  2  0  0  0  0 
 41 54  1  0  0  0  0 
 54 55  1  0  0  0  0 
 46 56  1  0  0  0  0 
 29 57  1  0  0  0  0 
 57 58  1  0  0  0  0 
 26 59  1  6  0  0  0 
 59 60  1  0  0  0  0 
 60 61  1  0  0  0  0 
 60 62  1  0  0  0  0 
 60 63  1  0  0  0  0 
 63 64  1  0  0  0  0 
 64 65  1  0  0  0  0 
 64 66  1  0  0  0  0 
 64 67  1  0  0  0  0 
 63 67  1  0  0  0  0 
 67 68  1  0  0  0  0 
 67 69  1  0  0  0  0 
 63 70  1  0  0  0  0 
 70 71  1  0  0  0  0 
 70 72  1  0  0  0  0 
 70 73  1  0  0  0  0 
 73 74  2  0  0  0  0 
 73 75  1  0  0  0  0 
 75 76  1  0  0  0  0 
  5 77  1  0  0  0  0 
 77 78  1  0  0  0  0 
M  END
> <Rank>
22

> <Priority_score>
0.092

> <Reaction_type>
aromatic_hydroxylation_(ortho_to_2_substituents)

> <Parent_ID>
7

> <Parent_InChI>
InChI=1S/C35H36ClNO3S/c1-34(2,40)30-9-4-3-7-25(30)13-17-32(41-23-35(18-19-35)22-33(38)39)27-8-5-6-24(20-27)10-15-29-16-12-26-11-14-28(36)21-31(26)37-29/h3-12,14-16,20-21,32,40H,13,17-19,22-23H2,1-2H3,(H,38,39)

> <Parent_SMILES>
CC(C)(O)c1ccccc1CC[C@@H](SCC1(CC(=O)O)CC1)c1cccc(/C=C/c2ccc3ccc(Cl)cc3n2)c1

$$$$
Molecule 7_metabolite 24
  CDK     0516241031

 78 82  0  0  0  0  0  0  0  0999 V2000
   14.8849   -8.4622    0.0000 C   0  0  0  0  0  0  0  0  0  0  0  0
   15.6329   -9.7624    0.0000 H   0  0  0  0  0  0  0  0  0  0  0  0
   14.6266   -6.9846    0.0000 H   0  0  0  0  0  0  0  0  0  0  0  0
   16.2952   -7.9513    0.0000 H   0  0  0  0  0  0  0  0  0  0  0  0
   13.3849   -8.4599    0.0000 C   0  0  0  0  0  0  0  0  0  0  0  0
   11.5253   -7.7799    0.0000 C   0  0  0  0  0  0  0  0  0  0  0  0
   11.0191   -4.8838    0.0000 H   0  0  0  0  0  0  0  0  0  0  0  0
   10.0485   -7.5172    0.0000 H   0  0  0  0  0  0  0  0  0  0  0  0
   11.2626   -9.2567    0.0000 H   0  0  0  0  0  0  0  0  0  0  0  0
   12.3923  -10.1732    0.0000 C   0  0  0  0  0  0  0  0  0  0  0  0
   13.1389  -11.4751    0.0000 C   0  0  0  0  0  0  0  0  0  0  0  0
   12.3848  -12.7717    0.0000 C   0  0  0  0  0  0  0  0  0  0  0  0
   13.1304  -14.0732    0.0000 H   0  0  0  0  0  0  0  0  0  0  0  0
   10.8840  -12.7664    0.0000 C   0  0  0  0  0  0  0  0  0  0  0  0
   10.1277  -14.0618    0.0000 H   0  0  0  0  0  0  0  0  0  0  0  0
   10.1459  -11.4696    0.0000 C   0  0  0  0  0  0  0  0  0  0  0  0
    8.6460  -11.4625    0.0000 H   0  0  0  0  0  0  0  0  0  0  0  0
   10.9001  -10.1729    0.0000 C   0  0  0  0  0  0  0  0  0  0  0  0
   10.1523   -8.8726    0.0000 H   0  0  0  0  0  0  0  0  0  0  0  0
   15.5989  -11.4825    0.0000 C   0  0  0  0  0  0  0  0  0  0  0  0
   16.5596  -12.6345    0.0000 H   0  0  0  0  0  0  0  0  0  0  0  0
   14.6313  -12.6287    0.0000 H   0  0  0  0  0  0  0  0  0  0  0  0
   17.7331  -10.2590    0.0000 C   0  0  0  0  0  0  0  0  0  0  0  0
   16.7724   -9.1070    0.0000 H   0  0  0  0  0  0  0  0  0  0  0  0
   18.7007   -9.1128    0.0000 H   0  0  0  0  0  0  0  0  0  0  0  0
   19.4448  -11.2542    0.0000 C   0  0  2  0  0  0  0  0  0  0  0  0
   20.4055  -12.4061    0.0000 H   0  0  0  0  0  0  0  0  0  0  0  0
   20.7461  -10.5081    0.0000 C   0  0  0  0  0  0  0  0  0  0  0  0
   22.0433  -11.2629    0.0000 C   0  0  0  0  0  0  0  0  0  0  0  0
   22.0386  -12.7629    0.0000 H   0  0  0  0  0  0  0  0  0  0  0  0
   23.3446  -10.5168    0.0000 C   0  0  0  0  0  0  0  0  0  0  0  0
   23.3487   -9.0160    0.0000 C   0  0  0  0  0  0  0  0  0  0  0  0
   24.6500   -8.2699    0.0000 H   0  0  0  0  0  0  0  0  0  0  0  0
   22.0515   -8.2612    0.0000 C   0  0  0  0  0  0  0  0  0  0  0  0
   20.7502   -9.0073    0.0000 C   0  0  0  0  0  0  0  0  0  0  0  0
   19.4533   -8.2535    0.0000 H   0  0  0  0  0  0  0  0  0  0  0  0
   22.0562   -6.7612    0.0000 O   0  0  0  0  0  0  0  0  0  0  0  0
   23.3577   -6.0154    0.0000 H   0  0  0  0  0  0  0  0  0  0  0  0
   24.6415  -11.2705    0.0000 C   0  0  0  0  0  0  0  0  0  0  0  0
   25.9427  -10.5243    0.0000 H   0  0  0  0  0  0  0  0  0  0  0  0
   24.6372  -12.7705    0.0000 C   0  0  0  0  0  0  0  0  0  0  0  0
   23.3360  -13.5168    0.0000 H   0  0  0  0  0  0  0  0  0  0  0  0
   25.9341  -13.5242    0.0000 C   0  0  0  0  0  0  0  0  0  0  0  0
   25.9300  -15.0251    0.0000 N   0  0  0  0  0  0  0  0  0  0  0  0
   27.2273  -15.7798    0.0000 C   0  0  0  0  0  0  0  0  0  0  0  0
   27.2232  -17.2807    0.0000 C   0  0  0  0  0  0  0  0  0  0  0  0
   25.9219  -18.0267    0.0000 H   0  0  0  0  0  0  0  0  0  0  0  0
   28.5205  -18.0354    0.0000 C   0  0  0  0  0  0  0  0  0  0  0  0
   29.8218  -17.2894    0.0000 C   0  0  0  0  0  0  0  0  0  0  0  0
   31.1186  -18.0431    0.0000 H   0  0  0  0  0  0  0  0  0  0  0  0
   29.8258  -15.7885    0.0000 C   0  0  0  0  0  0  0  0  0  0  0  0
   31.1271  -15.0425    0.0000 H   0  0  0  0  0  0  0  0  0  0  0  0
   28.5286  -15.0338    0.0000 C   0  0  0  0  0  0  0  0  0  0  0  0
   28.5326  -13.5329    0.0000 C   0  0  0  0  0  0  0  0  0  0  0  0
   29.8339  -12.7869    0.0000 H   0  0  0  0  0  0  0  0  0  0  0  0
   27.2354  -12.7782    0.0000 C   0  0  0  0  0  0  0  0  0  0  0  0
   27.2402  -11.2782    0.0000 H   0  0  0  0  0  0  0  0  0  0  0  0
   28.5157  -19.5354    0.0000 Cl  0  0  0  0  0  0  0  0  0  0  0  0
   18.4771  -12.4003    0.0000 S   0  0  0  0  0  0  0  0  0  0  0  0
   19.1487  -14.2629    0.0000 C   0  0  0  0  0  0  0  0  0  0  0  0
   20.1094  -15.4149    0.0000 H   0  0  0  0  0  0  0  0  0  0  0  0
   20.4500  -13.5169    0.0000 H   0  0  0  0  0  0  0  0  0  0  0  0
   18.1810  -15.4091    0.0000 C   0  0  0  0  0  0  0  0  0  0  0  0
   19.1424  -16.5616    0.0000 C   0  0  0  0  0  0  0  0  0  0  0  0
   19.6507  -17.9728    0.0000 H   0  0  0  0  0  0  0  0  0  0  0  0
   21.2767  -15.3383    0.0000 H   0  0  0  0  0  0  0  0  0  0  0  0
   17.6634  -16.8169    0.0000 C   0  0  0  0  0  0  0  0  0  0  0  0
   16.1871  -16.5515    0.0000 H   0  0  0  0  0  0  0  0  0  0  0  0
   17.6583  -18.3169    0.0000 H   0  0  0  0  0  0  0  0  0  0  0  0
   16.8844  -14.6550    0.0000 C   0  0  0  0  0  0  0  0  0  0  0  0
   17.8521  -13.5090    0.0000 H   0  0  0  0  0  0  0  0  0  0  0  0
   15.9238  -13.5029    0.0000 H   0  0  0  0  0  0  0  0  0  0  0  0
   14.7501  -15.8783    0.0000 C   0  0  0  0  0  0  0  0  0  0  0  0
   13.4534  -15.1243    0.0000 O   0  0  0  0  0  0  0  0  0  0  0  0
   14.7454  -17.3783    0.0000 O   0  0  0  0  0  0  0  0  0  0  0  0
   13.4440  -18.1242    0.0000 H   0  0  0  0  0  0  0  0  0  0  0  0
   13.6476   -6.9831    0.0000 O   0  0  0  0  0  0  0  0  0  0  0  0
   12.5000   -6.0172    0.0000 H   0  0  0  0  0  0  0  0  0  0  0  0
  1  2  1  0  0  0  0 
  1  3  1  0  0  0  0 
  1  4  1  0  0  0  0 
  1  5  1  0  0  0  0 
  5  6  1  0  0  0  0 
  6  7  1  0  0  0  0 
  6  8  1  0  0  0  0 
  6  9  1  0  0  0  0 
  5 10  1  0  0  0  0 
 10 11  2  0  0  0  0 
 11 12  1  0  0  0  0 
 12 13  1  0  0  0  0 
 12 14  2  0  0  0  0 
 14 15  1  0  0  0  0 
 14 16  1  0  0  0  0 
 16 17  1  0  0  0  0 
 16 18  2  0  0  0  0 
 10 18  1  0  0  0  0 
 18 19  1  0  0  0  0 
 11 20  1  0  0  0  0 
 20 21  1  0  0  0  0 
 20 22  1  0  0  0  0 
 20 23  1  0  0  0  0 
 23 24  1  0  0  0  0 
 23 25  1  0  0  0  0 
 23 26  1  0  0  0  0 
 26 27  1  1  0  0  0 
 26 28  1  0  0  0  0 
 28 29  2  0  0  0  0 
 29 30  1  0  0  0  0 
 29 31  1  0  0  0  0 
 31 32  2  0  0  0  0 
 32 33  1  0  0  0  0 
 32 34  1  0  0  0  0 
 34 35  2  0  0  0  0 
 28 35  1  0  0  0  0 
 35 36  1  0  0  0  0 
 34 37  1  0  0  0  0 
 37 38  1  0  0  0  0 
 31 39  1  0  0  0  0 
 39 40  1  0  0  0  0 
 39 41  2  0  0  0  0 
 41 42  1  0  0  0  0 
 41 43  1  0  0  0  0 
 43 44  2  0  0  0  0 
 44 45  1  0  0  0  0 
 45 46  2  0  0  0  0 
 46 47  1  0  0  0  0 
 46 48  1  0  0  0  0 
 48 49  2  0  0  0  0 
 49 50  1  0  0  0  0 
 49 51  1  0  0  0  0 
 51 52  1  0  0  0  0 
 51 53  2  0  0  0  0 
 45 53  1  0  0  0  0 
 53 54  1  0  0  0  0 
 54 55  1  0  0  0  0 
 54 56  2  0  0  0  0 
 43 56  1  0  0  0  0 
 56 57  1  0  0  0  0 
 48 58  1  0  0  0  0 
 26 59  1  6  0  0  0 
 59 60  1  0  0  0  0 
 60 61  1  0  0  0  0 
 60 62  1  0  0  0  0 
 60 63  1  0  0  0  0 
 63 64  1  0  0  0  0 
 64 65  1  0  0  0  0 
 64 66  1  0  0  0  0 
 64 67  1  0  0  0  0 
 63 67  1  0  0  0  0 
 67 68  1  0  0  0  0 
 67 69  1  0  0  0  0 
 63 70  1  0  0  0  0 
 70 71  1  0  0  0  0 
 70 72  1  0  0  0  0 
 70 73  1  0  0  0  0 
 73 74  2  0  0  0  0 
 73 75  1  0  0  0  0 
 75 76  1  0  0  0  0 
  5 77  1  0  0  0  0 
 77 78  1  0  0  0  0 
M  END
> <Rank>
22

> <Priority_score>
0.092

> <Reaction_type>
aromatic_hydroxylation_(meta_to_carbon)

> <Parent_ID>
7

> <Parent_InChI>
InChI=1S/C35H36ClNO3S/c1-34(2,40)30-9-4-3-7-25(30)13-17-32(41-23-35(18-19-35)22-33(38)39)27-8-5-6-24(20-27)10-15-29-16-12-26-11-14-28(36)21-31(26)37-29/h3-12,14-16,20-21,32,40H,13,17-19,22-23H2,1-2H3,(H,38,39)

> <Parent_SMILES>
CC(C)(O)c1ccccc1CC[C@@H](SCC1(CC(=O)O)CC1)c1cccc(/C=C/c2ccc3ccc(Cl)cc3n2)c1

$$$$
Molecule 7_metabolite 25
  CDK     0516241031

 78 82  0  0  0  0  0  0  0  0999 V2000
   14.9356   -2.5758    0.0000 C   0  0  0  0  0  0  0  0  0  0  0  0
   14.9378   -1.0758    0.0000 H   0  0  0  0  0  0  0  0  0  0  0  0
   15.4465   -3.9861    0.0000 H   0  0  0  0  0  0  0  0  0  0  0  0
   16.4132   -2.3176    0.0000 H   0  0  0  0  0  0  0  0  0  0  0  0
   13.6354   -3.3239    0.0000 C   0  0  0  0  0  0  0  0  0  0  0  0
   11.6850   -3.6647    0.0000 C   0  0  0  0  0  0  0  0  0  0  0  0
   10.4145   -2.1460    0.0000 H   0  0  0  0  0  0  0  0  0  0  0  0
   10.3848   -4.4128    0.0000 H   0  0  0  0  0  0  0  0  0  0  0  0
   12.1959   -5.0750    0.0000 H   0  0  0  0  0  0  0  0  0  0  0  0
   13.6317   -5.7839    0.0000 C   0  0  0  0  0  0  0  0  0  0  0  0
   14.9293   -6.5380    0.0000 C   0  0  0  0  0  0  0  0  0  0  0  0
   14.9245   -8.0380    0.0000 C   0  0  0  0  0  0  0  0  0  0  0  0
   16.2210   -8.7923    0.0000 H   0  0  0  0  0  0  0  0  0  0  0  0
   13.6221   -8.7838    0.0000 C   0  0  0  0  0  0  0  0  0  0  0  0
   13.6148  -10.2838    0.0000 H   0  0  0  0  0  0  0  0  0  0  0  0
   12.3345   -8.0297    0.0000 C   0  0  0  0  0  0  0  0  0  0  0  0
   11.0320   -8.7736    0.0000 H   0  0  0  0  0  0  0  0  0  0  0  0
   12.3393   -6.5297    0.0000 C   0  0  0  0  0  0  0  0  0  0  0  0
   11.0415   -5.7776    0.0000 H   0  0  0  0  0  0  0  0  0  0  0  0
   17.4798   -5.0757    0.0000 C   0  0  0  0  0  0  0  0  0  0  0  0
   18.4475   -3.9296    0.0000 H   0  0  0  0  0  0  0  0  0  0  0  0
   16.5191   -3.9237    0.0000 H   0  0  0  0  0  0  0  0  0  0  0  0
   20.0215   -6.5534    0.0000 C   0  0  0  0  0  0  0  0  0  0  0  0
   19.0538   -7.6996    0.0000 H   0  0  0  0  0  0  0  0  0  0  0  0
   20.9822   -7.7054    0.0000 H   0  0  0  0  0  0  0  0  0  0  0  0
   22.5720   -5.0911    0.0000 C   0  0  2  0  0  0  0  0  0  0  0  0
   24.0500   -4.8351    0.0000 H   0  0  0  0  0  0  0  0  0  0  0  0
   22.5766   -3.5911    0.0000 C   0  0  0  0  0  0  0  0  0  0  0  0
   23.8788   -2.8451    0.0000 C   0  0  0  0  0  0  0  0  0  0  0  0
   25.1755   -3.5992    0.0000 H   0  0  0  0  0  0  0  0  0  0  0  0
   23.8834   -1.3451    0.0000 C   0  0  0  0  0  0  0  0  0  0  0  0
   22.5857   -0.5912    0.0000 C   0  0  0  0  0  0  0  0  0  0  0  0
   22.5902    0.9088    0.0000 H   0  0  0  0  0  0  0  0  0  0  0  0
   21.2834   -1.3372    0.0000 C   0  0  0  0  0  0  0  0  0  0  0  0
   19.9868   -0.5831    0.0000 H   0  0  0  0  0  0  0  0  0  0  0  0
   21.2789   -2.8372    0.0000 C   0  0  0  0  0  0  0  0  0  0  0  0
   19.9777   -3.5835    0.0000 O   0  0  0  0  0  0  0  0  0  0  0  0
   18.6808   -2.8298    0.0000 H   0  0  0  0  0  0  0  0  0  0  0  0
   25.1846   -0.5988    0.0000 C   0  0  0  0  0  0  0  0  0  0  0  0
   25.1889    0.9012    0.0000 H   0  0  0  0  0  0  0  0  0  0  0  0
   26.4815   -1.3525    0.0000 C   0  0  0  0  0  0  0  0  0  0  0  0
   26.4771   -2.8525    0.0000 H   0  0  0  0  0  0  0  0  0  0  0  0
   27.7826   -0.6063    0.0000 C   0  0  0  0  0  0  0  0  0  0  0  0
   29.0804   -1.3602    0.0000 N   0  0  0  0  0  0  0  0  0  0  0  0
   30.3826   -0.6141    0.0000 C   0  0  0  0  0  0  0  0  0  0  0  0
   31.6803   -1.3681    0.0000 C   0  0  0  0  0  0  0  0  0  0  0  0
   31.6758   -2.8681    0.0000 H   0  0  0  0  0  0  0  0  0  0  0  0
   32.9826   -0.6220    0.0000 C   0  0  0  0  0  0  0  0  0  0  0  0
   32.9872    0.8780    0.0000 C   0  0  0  0  0  0  0  0  0  0  0  0
   34.2883    1.6242    0.0000 H   0  0  0  0  0  0  0  0  0  0  0  0
   31.6894    1.6319    0.0000 C   0  0  0  0  0  0  0  0  0  0  0  0
   31.6940    3.1319    0.0000 H   0  0  0  0  0  0  0  0  0  0  0  0
   30.3872    0.8858    0.0000 C   0  0  0  0  0  0  0  0  0  0  0  0
   29.0894    1.6398    0.0000 C   0  0  0  0  0  0  0  0  0  0  0  0
   29.0940    3.1398    0.0000 H   0  0  0  0  0  0  0  0  0  0  0  0
   27.7872    0.8937    0.0000 C   0  0  0  0  0  0  0  0  0  0  0  0
   26.4905    1.6479    0.0000 H   0  0  0  0  0  0  0  0  0  0  0  0
   34.2793   -1.3762    0.0000 Cl  0  0  0  0  0  0  0  0  0  0  0  0
   23.0808   -6.5022    0.0000 S   0  0  0  0  0  0  0  0  0  0  0  0
   25.0297   -6.8519    0.0000 C   0  0  0  0  0  0  0  0  0  0  0  0
   26.5077   -6.5960    0.0000 H   0  0  0  0  0  0  0  0  0  0  0  0
   25.0342   -5.3520    0.0000 H   0  0  0  0  0  0  0  0  0  0  0  0
   25.5384   -8.2630    0.0000 C   0  0  0  0  0  0  0  0  0  0  0  0
   27.0172   -8.0067    0.0000 C   0  0  0  0  0  0  0  0  0  0  0  0
   28.4935   -8.2722    0.0000 H   0  0  0  0  0  0  0  0  0  0  0  0
   27.0249   -5.5467    0.0000 H   0  0  0  0  0  0  0  0  0  0  0  0
   26.4989   -9.4152    0.0000 C   0  0  0  0  0  0  0  0  0  0  0  0
   25.5309  -10.5611    0.0000 H   0  0  0  0  0  0  0  0  0  0  0  0
   27.7953  -10.1697    0.0000 H   0  0  0  0  0  0  0  0  0  0  0  0
   24.2370   -9.0090    0.0000 C   0  0  0  0  0  0  0  0  0  0  0  0
   23.7284   -7.5978    0.0000 H   0  0  0  0  0  0  0  0  0  0  0  0
   22.7590   -9.2648    0.0000 H   0  0  0  0  0  0  0  0  0  0  0  0
   24.2293  -11.4689    0.0000 C   0  0  0  0  0  0  0  0  0  0  0  0
   22.9279  -12.2149    0.0000 O   0  0  0  0  0  0  0  0  0  0  0  0
   25.5260  -12.2230    0.0000 O   0  0  0  0  0  0  0  0  0  0  0  0
   25.5213  -13.7230    0.0000 H   0  0  0  0  0  0  0  0  0  0  0  0
   13.1245   -1.9135    0.0000 O   0  0  0  0  0  0  0  0  0  0  0  0
   14.0904   -0.7659    0.0000 H   0  0  0  0  0  0  0  0  0  0  0  0
  1  2  1  0  0  0  0 
  1  3  1  0  0  0  0 
  1  4  1  0  0  0  0 
  1  5  1  0  0  0  0 
  5  6  1  0  0  0  0 
  6  7  1  0  0  0  0 
  6  8  1  0  0  0  0 
  6  9  1  0  0  0  0 
  5 10  1  0  0  0  0 
 10 11  2  0  0  0  0 
 11 12  1  0  0  0  0 
 12 13  1  0  0  0  0 
 12 14  2  0  0  0  0 
 14 15  1  0  0  0  0 
 14 16  1  0  0  0  0 
 16 17  1  0  0  0  0 
 16 18  2  0  0  0  0 
 10 18  1  0  0  0  0 
 18 19  1  0  0  0  0 
 11 20  1  0  0  0  0 
 20 21  1  0  0  0  0 
 20 22  1  0  0  0  0 
 20 23  1  0  0  0  0 
 23 24  1  0  0  0  0 
 23 25  1  0  0  0  0 
 23 26  1  0  0  0  0 
 26 27  1  1  0  0  0 
 26 28  1  0  0  0  0 
 28 29  2  0  0  0  0 
 29 30  1  0  0  0  0 
 29 31  1  0  0  0  0 
 31 32  2  0  0  0  0 
 32 33  1  0  0  0  0 
 32 34  1  0  0  0  0 
 34 35  1  0  0  0  0 
 34 36  2  0  0  0  0 
 28 36  1  0  0  0  0 
 36 37  1  0  0  0  0 
 37 38  1  0  0  0  0 
 31 39  1  0  0  0  0 
 39 40  1  0  0  0  0 
 39 41  2  0  0  0  0 
 41 42  1  0  0  0  0 
 41 43  1  0  0  0  0 
 43 44  2  0  0  0  0 
 44 45  1  0  0  0  0 
 45 46  2  0  0  0  0 
 46 47  1  0  0  0  0 
 46 48  1  0  0  0  0 
 48 49  2  0  0  0  0 
 49 50  1  0  0  0  0 
 49 51  1  0  0  0  0 
 51 52  1  0  0  0  0 
 51 53  2  0  0  0  0 
 45 53  1  0  0  0  0 
 53 54  1  0  0  0  0 
 54 55  1  0  0  0  0 
 54 56  2  0  0  0  0 
 43 56  1  0  0  0  0 
 56 57  1  0  0  0  0 
 48 58  1  0  0  0  0 
 26 59  1  6  0  0  0 
 59 60  1  0  0  0  0 
 60 61  1  0  0  0  0 
 60 62  1  0  0  0  0 
 60 63  1  0  0  0  0 
 63 64  1  0  0  0  0 
 64 65  1  0  0  0  0 
 64 66  1  0  0  0  0 
 64 67  1  0  0  0  0 
 63 67  1  0  0  0  0 
 67 68  1  0  0  0  0 
 67 69  1  0  0  0  0 
 63 70  1  0  0  0  0 
 70 71  1  0  0  0  0 
 70 72  1  0  0  0  0 
 70 73  1  0  0  0  0 
 73 74  2  0  0  0  0 
 73 75  1  0  0  0  0 
 75 76  1  0  0  0  0 
  5 77  1  0  0  0  0 
 77 78  1  0  0  0  0 
M  END
> <Rank>
22

> <Priority_score>
0.092

> <Reaction_type>
aromatic_hydroxylation_(para_to_carbon)

> <Parent_ID>
7

> <Parent_InChI>
InChI=1S/C35H36ClNO3S/c1-34(2,40)30-9-4-3-7-25(30)13-17-32(41-23-35(18-19-35)22-33(38)39)27-8-5-6-24(20-27)10-15-29-16-12-26-11-14-28(36)21-31(26)37-29/h3-12,14-16,20-21,32,40H,13,17-19,22-23H2,1-2H3,(H,38,39)

> <Parent_SMILES>
CC(C)(O)c1ccccc1CC[C@@H](SCC1(CC(=O)O)CC1)c1cccc(/C=C/c2ccc3ccc(Cl)cc3n2)c1

$$$$
Molecule 7_metabolite 26
  CDK     0516241031

 78 82  0  0  0  0  0  0  0  0999 V2000
   14.8927   -8.4503    0.0000 C   0  0  0  0  0  0  0  0  0  0  0  0
   15.6429   -9.7492    0.0000 H   0  0  0  0  0  0  0  0  0  0  0  0
   14.6320   -6.9732    0.0000 H   0  0  0  0  0  0  0  0  0  0  0  0
   16.3022   -7.9371    0.0000 H   0  0  0  0  0  0  0  0  0  0  0  0
   13.3927   -8.4506    0.0000 C   0  0  0  0  0  0  0  0  0  0  0  0
   11.5320   -7.7737    0.0000 C   0  0  0  0  0  0  0  0  0  0  0  0
   11.0210   -4.8784    0.0000 H   0  0  0  0  0  0  0  0  0  0  0  0
   10.0548   -7.5134    0.0000 H   0  0  0  0  0  0  0  0  0  0  0  0
   11.2718   -9.2509    0.0000 H   0  0  0  0  0  0  0  0  0  0  0  0
   12.4030  -10.1655    0.0000 C   0  0  0  0  0  0  0  0  0  0  0  0
   13.1519  -11.4661    0.0000 C   0  0  0  0  0  0  0  0  0  0  0  0
   12.3999  -12.7640    0.0000 C   0  0  0  0  0  0  0  0  0  0  0  0
   13.1477  -14.0643    0.0000 H   0  0  0  0  0  0  0  0  0  0  0  0
   10.8991  -12.7613    0.0000 C   0  0  0  0  0  0  0  0  0  0  0  0
   10.1449  -14.0579    0.0000 H   0  0  0  0  0  0  0  0  0  0  0  0
   10.1589  -11.4656    0.0000 C   0  0  0  0  0  0  0  0  0  0  0  0
    8.6589  -11.4611    0.0000 H   0  0  0  0  0  0  0  0  0  0  0  0
   10.9108  -10.1677    0.0000 C   0  0  0  0  0  0  0  0  0  0  0  0
   10.1608   -8.8687    0.0000 H   0  0  0  0  0  0  0  0  0  0  0  0
   15.6119  -11.4694    0.0000 C   0  0  0  0  0  0  0  0  0  0  0  0
   16.5745  -12.6198    0.0000 H   0  0  0  0  0  0  0  0  0  0  0  0
   14.6461  -12.6172    0.0000 H   0  0  0  0  0  0  0  0  0  0  0  0
   17.7440  -10.2423    0.0000 C   0  0  0  0  0  0  0  0  0  0  0  0
   16.7813   -9.0920    0.0000 H   0  0  0  0  0  0  0  0  0  0  0  0
   18.7097   -9.0946    0.0000 H   0  0  0  0  0  0  0  0  0  0  0  0
   19.4573  -11.2346    0.0000 C   0  0  2  0  0  0  0  0  0  0  0  0
   20.4200  -12.3850    0.0000 H   0  0  0  0  0  0  0  0  0  0  0  0
   20.7574  -10.4864    0.0000 C   0  0  0  0  0  0  0  0  0  0  0  0
   22.0572  -11.2368    0.0000 C   0  0  0  0  0  0  0  0  0  0  0  0
   22.0574  -12.7368    0.0000 H   0  0  0  0  0  0  0  0  0  0  0  0
   23.3560  -10.4864    0.0000 C   0  0  0  0  0  0  0  0  0  0  0  0
   23.3550   -8.9856    0.0000 C   0  0  0  0  0  0  0  0  0  0  0  0
   24.6525   -8.2330    0.0000 H   0  0  0  0  0  0  0  0  0  0  0  0
   22.0602   -8.2438    0.0000 C   0  0  0  0  0  0  0  0  0  0  0  0
   22.0575   -6.7438    0.0000 H   0  0  0  0  0  0  0  0  0  0  0  0
   20.7614   -8.9942    0.0000 C   0  0  0  0  0  0  0  0  0  0  0  0
   19.4633   -8.2427    0.0000 H   0  0  0  0  0  0  0  0  0  0  0  0
   24.6553  -11.2358    0.0000 C   0  0  0  0  0  0  0  0  0  0  0  0
   25.9540  -10.4852    0.0000 H   0  0  0  0  0  0  0  0  0  0  0  0
   24.6561  -12.7358    0.0000 C   0  0  0  0  0  0  0  0  0  0  0  0
   23.3574  -13.4864    0.0000 H   0  0  0  0  0  0  0  0  0  0  0  0
   25.9555  -13.4852    0.0000 C   0  0  0  0  0  0  0  0  0  0  0  0
   25.9564  -14.9860    0.0000 N   0  0  0  0  0  0  0  0  0  0  0  0
   27.2562  -15.7364    0.0000 C   0  0  0  0  0  0  0  0  0  0  0  0
   27.2572  -17.2372    0.0000 C   0  0  0  0  0  0  0  0  0  0  0  0
   25.9584  -17.9877    0.0000 H   0  0  0  0  0  0  0  0  0  0  0  0
   28.5569  -17.9877    0.0000 C   0  0  0  0  0  0  0  0  0  0  0  0
   29.8557  -17.2372    0.0000 C   0  0  0  0  0  0  0  0  0  0  0  0
   31.1551  -17.9866    0.0000 H   0  0  0  0  0  0  0  0  0  0  0  0
   29.8547  -15.7364    0.0000 C   0  0  0  0  0  0  0  0  0  0  0  0
   31.1535  -14.9860    0.0000 H   0  0  0  0  0  0  0  0  0  0  0  0
   28.5550  -14.9860    0.0000 C   0  0  0  0  0  0  0  0  0  0  0  0
   28.5540  -13.4852    0.0000 C   0  0  0  0  0  0  0  0  0  0  0  0
   29.8528  -12.7347    0.0000 H   0  0  0  0  0  0  0  0  0  0  0  0
   27.2543  -12.7347    0.0000 C   0  0  0  0  0  0  0  0  0  0  0  0
   27.2540  -11.2347    0.0000 H   0  0  0  0  0  0  0  0  0  0  0  0
   28.5572  -19.4877    0.0000 Cl  0  0  0  0  0  0  0  0  0  0  0  0
   24.6576  -15.7364    0.0000 O   0  0  0  0  0  0  0  0  0  0  0  0
   18.4916  -12.3824    0.0000 S   0  0  0  0  0  0  0  0  0  0  0  0
   19.1663  -14.2439    0.0000 C   0  0  0  0  0  0  0  0  0  0  0  0
   20.1289  -15.3943    0.0000 H   0  0  0  0  0  0  0  0  0  0  0  0
   20.4663  -13.4957    0.0000 H   0  0  0  0  0  0  0  0  0  0  0  0
   18.2005  -15.3917    0.0000 C   0  0  0  0  0  0  0  0  0  0  0  0
   19.1638  -16.5426    0.0000 C   0  0  0  0  0  0  0  0  0  0  0  0
   19.6745  -17.9530    0.0000 H   0  0  0  0  0  0  0  0  0  0  0  0
   21.2960  -15.3157    0.0000 H   0  0  0  0  0  0  0  0  0  0  0  0
   17.6853  -16.8004    0.0000 C   0  0  0  0  0  0  0  0  0  0  0  0
   16.2085  -16.5375    0.0000 H   0  0  0  0  0  0  0  0  0  0  0  0
   17.6826  -18.3004    0.0000 H   0  0  0  0  0  0  0  0  0  0  0  0
   16.9026  -14.6398    0.0000 C   0  0  0  0  0  0  0  0  0  0  0  0
   17.8685  -13.4921    0.0000 H   0  0  0  0  0  0  0  0  0  0  0  0
   15.9401  -13.4893    0.0000 H   0  0  0  0  0  0  0  0  0  0  0  0
   14.7704  -15.8667    0.0000 C   0  0  0  0  0  0  0  0  0  0  0  0
   13.4724  -15.1148    0.0000 O   0  0  0  0  0  0  0  0  0  0  0  0
   14.7682  -17.3667    0.0000 O   0  0  0  0  0  0  0  0  0  0  0  0
   13.4681  -18.1148    0.0000 H   0  0  0  0  0  0  0  0  0  0  0  0
   13.6530   -6.9733    0.0000 O   0  0  0  0  0  0  0  0  0  0  0  0
   12.5037   -6.0093    0.0000 H   0  0  0  0  0  0  0  0  0  0  0  0
  1  2  1  0  0  0  0 
  1  3  1  0  0  0  0 
  1  4  1  0  0  0  0 
  1  5  1  0  0  0  0 
  5  6  1  0  0  0  0 
  6  7  1  0  0  0  0 
  6  8  1  0  0  0  0 
  6  9  1  0  0  0  0 
  5 10  1  0  0  0  0 
 10 11  2  0  0  0  0 
 11 12  1  0  0  0  0 
 12 13  1  0  0  0  0 
 12 14  2  0  0  0  0 
 14 15  1  0  0  0  0 
 14 16  1  0  0  0  0 
 16 17  1  0  0  0  0 
 16 18  2  0  0  0  0 
 10 18  1  0  0  0  0 
 18 19  1  0  0  0  0 
 11 20  1  0  0  0  0 
 20 21  1  0  0  0  0 
 20 22  1  0  0  0  0 
 20 23  1  0  0  0  0 
 23 24  1  0  0  0  0 
 23 25  1  0  0  0  0 
 23 26  1  0  0  0  0 
 26 27  1  1  0  0  0 
 26 28  1  0  0  0  0 
 28 29  2  0  0  0  0 
 29 30  1  0  0  0  0 
 29 31  1  0  0  0  0 
 31 32  2  0  0  0  0 
 32 33  1  0  0  0  0 
 32 34  1  0  0  0  0 
 34 35  1  0  0  0  0 
 34 36  2  0  0  0  0 
 28 36  1  0  0  0  0 
 36 37  1  0  0  0  0 
 31 38  1  0  0  0  0 
 38 39  1  0  0  0  0 
 38 40  2  0  0  0  0 
 40 41  1  0  0  0  0 
 40 42  1  0  0  0  0 
 42 43  2  0  0  0  0 
 43 44  1  0  0  0  0 
 44 45  2  0  0  0  0 
 45 46  1  0  0  0  0 
 45 47  1  0  0  0  0 
 47 48  2  0  0  0  0 
 48 49  1  0  0  0  0 
 48 50  1  0  0  0  0 
 50 51  1  0  0  0  0 
 50 52  2  0  0  0  0 
 44 52  1  0  0  0  0 
 52 53  1  0  0  0  0 
 53 54  1  0  0  0  0 
 53 55  2  0  0  0  0 
 42 55  1  0  0  0  0 
 55 56  1  0  0  0  0 
 47 57  1  0  0  0  0 
 43 58  1  0  0  0  0 
 26 59  1  6  0  0  0 
 59 60  1  0  0  0  0 
 60 61  1  0  0  0  0 
 60 62  1  0  0  0  0 
 60 63  1  0  0  0  0 
 63 64  1  0  0  0  0 
 64 65  1  0  0  0  0 
 64 66  1  0  0  0  0 
 64 67  1  0  0  0  0 
 63 67  1  0  0  0  0 
 67 68  1  0  0  0  0 
 67 69  1  0  0  0  0 
 63 70  1  0  0  0  0 
 70 71  1  0  0  0  0 
 70 72  1  0  0  0  0 
 70 73  1  0  0  0  0 
 73 74  2  0  0  0  0 
 73 75  1  0  0  0  0 
 75 76  1  0  0  0  0 
  5 77  1  0  0  0  0 
 77 78  1  0  0  0  0 
M  CHG  1  43   1
M  CHG  1  58  -1
M  END
> <Rank>
26

> <Priority_score>
0.088

> <Reaction_type>
N-oxidation_(-N=)

> <Parent_ID>
7

> <Parent_InChI>
InChI=1S/C35H36ClNO3S/c1-34(2,40)30-9-4-3-7-25(30)13-17-32(41-23-35(18-19-35)22-33(38)39)27-8-5-6-24(20-27)10-15-29-16-12-26-11-14-28(36)21-31(26)37-29/h3-12,14-16,20-21,32,40H,13,17-19,22-23H2,1-2H3,(H,38,39)

> <Parent_SMILES>
CC(C)(O)c1ccccc1CC[C@@H](SCC1(CC(=O)O)CC1)c1cccc(/C=C/c2ccc3ccc(Cl)cc3n2)c1

$$$$
Molecule 7_metabolite 27
  CDK     0516241031

 78 82  0  0  0  0  0  0  0  0999 V2000
   14.8927   -8.4503    0.0000 C   0  0  0  0  0  0  0  0  0  0  0  0
   15.6429   -9.7492    0.0000 H   0  0  0  0  0  0  0  0  0  0  0  0
   14.6320   -6.9732    0.0000 H   0  0  0  0  0  0  0  0  0  0  0  0
   16.3022   -7.9371    0.0000 H   0  0  0  0  0  0  0  0  0  0  0  0
   13.3927   -8.4506    0.0000 C   0  0  0  0  0  0  0  0  0  0  0  0
   11.5320   -7.7737    0.0000 C   0  0  0  0  0  0  0  0  0  0  0  0
   11.0210   -4.8784    0.0000 H   0  0  0  0  0  0  0  0  0  0  0  0
   10.0548   -7.5134    0.0000 H   0  0  0  0  0  0  0  0  0  0  0  0
   11.2718   -9.2509    0.0000 H   0  0  0  0  0  0  0  0  0  0  0  0
   12.4030  -10.1655    0.0000 C   0  0  0  0  0  0  0  0  0  0  0  0
   13.1519  -11.4661    0.0000 C   0  0  0  0  0  0  0  0  0  0  0  0
   12.3999  -12.7640    0.0000 C   0  0  0  0  0  0  0  0  0  0  0  0
   13.1477  -14.0643    0.0000 H   0  0  0  0  0  0  0  0  0  0  0  0
   10.8991  -12.7613    0.0000 C   0  0  0  0  0  0  0  0  0  0  0  0
   10.1449  -14.0579    0.0000 H   0  0  0  0  0  0  0  0  0  0  0  0
   10.1589  -11.4656    0.0000 C   0  0  0  0  0  0  0  0  0  0  0  0
    8.6589  -11.4611    0.0000 H   0  0  0  0  0  0  0  0  0  0  0  0
   10.9108  -10.1677    0.0000 C   0  0  0  0  0  0  0  0  0  0  0  0
   10.1608   -8.8687    0.0000 H   0  0  0  0  0  0  0  0  0  0  0  0
   15.6119  -11.4694    0.0000 C   0  0  0  0  0  0  0  0  0  0  0  0
   16.5745  -12.6198    0.0000 H   0  0  0  0  0  0  0  0  0  0  0  0
   14.6461  -12.6172    0.0000 H   0  0  0  0  0  0  0  0  0  0  0  0
   17.7440  -10.2423    0.0000 C   0  0  0  0  0  0  0  0  0  0  0  0
   16.7813   -9.0920    0.0000 H   0  0  0  0  0  0  0  0  0  0  0  0
   18.7097   -9.0946    0.0000 H   0  0  0  0  0  0  0  0  0  0  0  0
   19.4573  -11.2346    0.0000 C   0  0  2  0  0  0  0  0  0  0  0  0
   20.4200  -12.3850    0.0000 H   0  0  0  0  0  0  0  0  0  0  0  0
   20.7574  -10.4864    0.0000 C   0  0  0  0  0  0  0  0  0  0  0  0
   22.0572  -11.2368    0.0000 C   0  0  0  0  0  0  0  0  0  0  0  0
   22.0574  -12.7368    0.0000 H   0  0  0  0  0  0  0  0  0  0  0  0
   23.3560  -10.4864    0.0000 C   0  0  0  0  0  0  0  0  0  0  0  0
   23.3550   -8.9856    0.0000 C   0  0  0  0  0  0  0  0  0  0  0  0
   24.6525   -8.2330    0.0000 H   0  0  0  0  0  0  0  0  0  0  0  0
   22.0602   -8.2438    0.0000 C   0  0  0  0  0  0  0  0  0  0  0  0
   22.0575   -6.7438    0.0000 H   0  0  0  0  0  0  0  0  0  0  0  0
   20.7614   -8.9942    0.0000 C   0  0  0  0  0  0  0  0  0  0  0  0
   19.4633   -8.2427    0.0000 H   0  0  0  0  0  0  0  0  0  0  0  0
   24.6553  -11.2358    0.0000 C   0  0  0  0  0  0  0  0  0  0  0  0
   25.9540  -10.4852    0.0000 H   0  0  0  0  0  0  0  0  0  0  0  0
   24.6561  -12.7358    0.0000 C   0  0  0  0  0  0  0  0  0  0  0  0
   23.3574  -13.4864    0.0000 H   0  0  0  0  0  0  0  0  0  0  0  0
   25.9555  -13.4852    0.0000 C   0  0  0  0  0  0  0  0  0  0  0  0
   27.2543  -12.7347    0.0000 C   0  0  0  0  0  0  0  0  0  0  0  0
   28.5540  -13.4852    0.0000 C   0  0  0  0  0  0  0  0  0  0  0  0
   29.8528  -12.7347    0.0000 H   0  0  0  0  0  0  0  0  0  0  0  0
   28.5550  -14.9860    0.0000 C   0  0  0  0  0  0  0  0  0  0  0  0
   29.8547  -15.7364    0.0000 C   0  0  0  0  0  0  0  0  0  0  0  0
   31.1535  -14.9860    0.0000 H   0  0  0  0  0  0  0  0  0  0  0  0
   29.8557  -17.2372    0.0000 C   0  0  0  0  0  0  0  0  0  0  0  0
   31.1551  -17.9866    0.0000 H   0  0  0  0  0  0  0  0  0  0  0  0
   28.5569  -17.9877    0.0000 C   0  0  0  0  0  0  0  0  0  0  0  0
   27.2572  -17.2372    0.0000 C   0  0  0  0  0  0  0  0  0  0  0  0
   25.9584  -17.9877    0.0000 H   0  0  0  0  0  0  0  0  0  0  0  0
   27.2562  -15.7364    0.0000 C   0  0  0  0  0  0  0  0  0  0  0  0
   25.9564  -14.9860    0.0000 N   0  0  0  0  0  0  0  0  0  0  0  0
   28.5572  -19.4877    0.0000 Cl  0  0  0  0  0  0  0  0  0  0  0  0
   27.2540  -11.2347    0.0000 O   0  0  0  0  0  0  0  0  0  0  0  0
   28.5529  -10.4845    0.0000 H   0  0  0  0  0  0  0  0  0  0  0  0
   18.4916  -12.3824    0.0000 S   0  0  0  0  0  0  0  0  0  0  0  0
   19.1663  -14.2439    0.0000 C   0  0  0  0  0  0  0  0  0  0  0  0
   20.1289  -15.3943    0.0000 H   0  0  0  0  0  0  0  0  0  0  0  0
   20.4663  -13.4957    0.0000 H   0  0  0  0  0  0  0  0  0  0  0  0
   18.2005  -15.3917    0.0000 C   0  0  0  0  0  0  0  0  0  0  0  0
   19.1638  -16.5426    0.0000 C   0  0  0  0  0  0  0  0  0  0  0  0
   19.6745  -17.9530    0.0000 H   0  0  0  0  0  0  0  0  0  0  0  0
   21.2960  -15.3157    0.0000 H   0  0  0  0  0  0  0  0  0  0  0  0
   17.6853  -16.8004    0.0000 C   0  0  0  0  0  0  0  0  0  0  0  0
   16.2085  -16.5375    0.0000 H   0  0  0  0  0  0  0  0  0  0  0  0
   17.6826  -18.3004    0.0000 H   0  0  0  0  0  0  0  0  0  0  0  0
   16.9026  -14.6398    0.0000 C   0  0  0  0  0  0  0  0  0  0  0  0
   17.8685  -13.4921    0.0000 H   0  0  0  0  0  0  0  0  0  0  0  0
   15.9401  -13.4893    0.0000 H   0  0  0  0  0  0  0  0  0  0  0  0
   14.7704  -15.8667    0.0000 C   0  0  0  0  0  0  0  0  0  0  0  0
   13.4724  -15.1148    0.0000 O   0  0  0  0  0  0  0  0  0  0  0  0
   14.7682  -17.3667    0.0000 O   0  0  0  0  0  0  0  0  0  0  0  0
   13.4681  -18.1148    0.0000 H   0  0  0  0  0  0  0  0  0  0  0  0
   13.6530   -6.9733    0.0000 O   0  0  0  0  0  0  0  0  0  0  0  0
   12.5037   -6.0093    0.0000 H   0  0  0  0  0  0  0  0  0  0  0  0
  1  2  1  0  0  0  0 
  1  3  1  0  0  0  0 
  1  4  1  0  0  0  0 
  1  5  1  0  0  0  0 
  5  6  1  0  0  0  0 
  6  7  1  0  0  0  0 
  6  8  1  0  0  0  0 
  6  9  1  0  0  0  0 
  5 10  1  0  0  0  0 
 10 11  2  0  0  0  0 
 11 12  1  0  0  0  0 
 12 13  1  0  0  0  0 
 12 14  2  0  0  0  0 
 14 15  1  0  0  0  0 
 14 16  1  0  0  0  0 
 16 17  1  0  0  0  0 
 16 18  2  0  0  0  0 
 10 18  1  0  0  0  0 
 18 19  1  0  0  0  0 
 11 20  1  0  0  0  0 
 20 21  1  0  0  0  0 
 20 22  1  0  0  0  0 
 20 23  1  0  0  0  0 
 23 24  1  0  0  0  0 
 23 25  1  0  0  0  0 
 23 26  1  0  0  0  0 
 26 27  1  1  0  0  0 
 26 28  1  0  0  0  0 
 28 29  2  0  0  0  0 
 29 30  1  0  0  0  0 
 29 31  1  0  0  0  0 
 31 32  2  0  0  0  0 
 32 33  1  0  0  0  0 
 32 34  1  0  0  0  0 
 34 35  1  0  0  0  0 
 34 36  2  0  0  0  0 
 28 36  1  0  0  0  0 
 36 37  1  0  0  0  0 
 31 38  1  0  0  0  0 
 38 39  1  0  0  0  0 
 38 40  2  0  0  0  0 
 40 41  1  0  0  0  0 
 40 42  1  0  0  0  0 
 42 43  2  0  0  0  0 
 43 44  1  0  0  0  0 
 44 45  1  0  0  0  0 
 44 46  2  0  0  0  0 
 46 47  1  0  0  0  0 
 47 48  1  0  0  0  0 
 47 49  2  0  0  0  0 
 49 50  1  0  0  0  0 
 49 51  1  0  0  0  0 
 51 52  2  0  0  0  0 
 52 53  1  0  0  0  0 
 52 54  1  0  0  0  0 
 46 54  1  0  0  0  0 
 54 55  2  0  0  0  0 
 42 55  1  0  0  0  0 
 51 56  1  0  0  0  0 
 43 57  1  0  0  0  0 
 57 58  1  0  0  0  0 
 26 59  1  6  0  0  0 
 59 60  1  0  0  0  0 
 60 61  1  0  0  0  0 
 60 62  1  0  0  0  0 
 60 63  1  0  0  0  0 
 63 64  1  0  0  0  0 
 64 65  1  0  0  0  0 
 64 66  1  0  0  0  0 
 64 67  1  0  0  0  0 
 63 67  1  0  0  0  0 
 67 68  1  0  0  0  0 
 67 69  1  0  0  0  0 
 63 70  1  0  0  0  0 
 70 71  1  0  0  0  0 
 70 72  1  0  0  0  0 
 70 73  1  0  0  0  0 
 73 74  2  0  0  0  0 
 73 75  1  0  0  0  0 
 75 76  1  0  0  0  0 
  5 77  1  0  0  0  0 
 77 78  1  0  0  0  0 
M  END
> <Rank>
26

> <Priority_score>
0.088

> <Reaction_type>
aromatic_hydroxylation_(para_to_carbon)

> <Parent_ID>
7

> <Parent_InChI>
InChI=1S/C35H36ClNO3S/c1-34(2,40)30-9-4-3-7-25(30)13-17-32(41-23-35(18-19-35)22-33(38)39)27-8-5-6-24(20-27)10-15-29-16-12-26-11-14-28(36)21-31(26)37-29/h3-12,14-16,20-21,32,40H,13,17-19,22-23H2,1-2H3,(H,38,39)

> <Parent_SMILES>
CC(C)(O)c1ccccc1CC[C@@H](SCC1(CC(=O)O)CC1)c1cccc(/C=C/c2ccc3ccc(Cl)cc3n2)c1

$$$$
Molecule 7_metabolite 28
  CDK     0516241031

 78 82  0  0  0  0  0  0  0  0999 V2000
   16.3096   -7.7380    0.0000 C   0  0  0  0  0  0  0  0  0  0  0  0
   17.0598   -9.0369    0.0000 H   0  0  0  0  0  0  0  0  0  0  0  0
   16.0489   -6.2608    0.0000 H   0  0  0  0  0  0  0  0  0  0  0  0
   17.7190   -7.2247    0.0000 H   0  0  0  0  0  0  0  0  0  0  0  0
   14.8096   -7.7382    0.0000 C   0  0  0  0  0  0  0  0  0  0  0  0
   12.9489   -7.0613    0.0000 C   0  0  0  0  0  0  0  0  0  0  0  0
   12.4379   -4.1661    0.0000 H   0  0  0  0  0  0  0  0  0  0  0  0
   11.4716   -6.8011    0.0000 H   0  0  0  0  0  0  0  0  0  0  0  0
   12.6886   -8.5386    0.0000 H   0  0  0  0  0  0  0  0  0  0  0  0
   13.8198   -9.4531    0.0000 C   0  0  0  0  0  0  0  0  0  0  0  0
   14.5687  -10.7538    0.0000 C   0  0  0  0  0  0  0  0  0  0  0  0
   13.8167  -12.0517    0.0000 C   0  0  0  0  0  0  0  0  0  0  0  0
   14.5646  -13.3520    0.0000 H   0  0  0  0  0  0  0  0  0  0  0  0
   12.3159  -12.0489    0.0000 C   0  0  0  0  0  0  0  0  0  0  0  0
   11.5618  -13.3456    0.0000 H   0  0  0  0  0  0  0  0  0  0  0  0
   11.5757  -10.7533    0.0000 C   0  0  0  0  0  0  0  0  0  0  0  0
   10.0757  -10.7488    0.0000 H   0  0  0  0  0  0  0  0  0  0  0  0
   12.3277   -9.4554    0.0000 C   0  0  0  0  0  0  0  0  0  0  0  0
   11.5777   -8.1564    0.0000 H   0  0  0  0  0  0  0  0  0  0  0  0
   17.0287  -10.7571    0.0000 C   0  0  0  0  0  0  0  0  0  0  0  0
   17.9913  -11.9075    0.0000 H   0  0  0  0  0  0  0  0  0  0  0  0
   16.0630  -11.9049    0.0000 H   0  0  0  0  0  0  0  0  0  0  0  0
   19.1608   -9.5300    0.0000 C   0  0  0  0  0  0  0  0  0  0  0  0
   18.1982   -8.3796    0.0000 H   0  0  0  0  0  0  0  0  0  0  0  0
   20.1265   -8.3822    0.0000 H   0  0  0  0  0  0  0  0  0  0  0  0
   20.8742  -10.5223    0.0000 C   0  0  2  0  0  0  0  0  0  0  0  0
   21.8368  -11.6727    0.0000 H   0  0  0  0  0  0  0  0  0  0  0  0
   22.1742   -9.7741    0.0000 C   0  0  0  0  0  0  0  0  0  0  0  0
   23.4740  -10.5245    0.0000 C   0  0  0  0  0  0  0  0  0  0  0  0
   23.4742  -12.0245    0.0000 H   0  0  0  0  0  0  0  0  0  0  0  0
   24.7728   -9.7741    0.0000 C   0  0  0  0  0  0  0  0  0  0  0  0
   24.7718   -8.2733    0.0000 C   0  0  0  0  0  0  0  0  0  0  0  0
   26.0694   -7.5207    0.0000 H   0  0  0  0  0  0  0  0  0  0  0  0
   23.4771   -7.5315    0.0000 C   0  0  0  0  0  0  0  0  0  0  0  0
   23.4743   -6.0315    0.0000 H   0  0  0  0  0  0  0  0  0  0  0  0
   22.1783   -8.2819    0.0000 C   0  0  0  0  0  0  0  0  0  0  0  0
   20.8801   -7.5304    0.0000 H   0  0  0  0  0  0  0  0  0  0  0  0
   26.0722  -10.5235    0.0000 C   0  0  0  0  0  0  0  0  0  0  0  0
   27.3709   -9.7728    0.0000 H   0  0  0  0  0  0  0  0  0  0  0  0
   26.0729  -12.0235    0.0000 C   0  0  0  0  0  0  0  0  0  0  0  0
   24.7742  -12.7741    0.0000 H   0  0  0  0  0  0  0  0  0  0  0  0
   27.3723  -12.7728    0.0000 C   0  0  0  0  0  0  0  0  0  0  0  0
   27.3733  -14.2737    0.0000 N   0  0  0  0  0  0  0  0  0  0  0  0
   28.6730  -15.0241    0.0000 C   0  0  0  0  0  0  0  0  0  0  0  0
   28.6740  -16.5249    0.0000 C   0  0  0  0  0  0  0  0  0  0  0  0
   27.3752  -17.2753    0.0000 H   0  0  0  0  0  0  0  0  0  0  0  0
   29.9737  -17.2753    0.0000 C   0  0  0  0  0  0  0  0  0  0  0  0
   31.2725  -16.5249    0.0000 C   0  0  0  0  0  0  0  0  0  0  0  0
   32.5719  -17.2743    0.0000 H   0  0  0  0  0  0  0  0  0  0  0  0
   31.2716  -15.0241    0.0000 C   0  0  0  0  0  0  0  0  0  0  0  0
   32.5704  -14.2737    0.0000 H   0  0  0  0  0  0  0  0  0  0  0  0
   29.9718  -14.2737    0.0000 C   0  0  0  0  0  0  0  0  0  0  0  0
   29.9709  -12.7728    0.0000 C   0  0  0  0  0  0  0  0  0  0  0  0
   31.2697  -12.0224    0.0000 H   0  0  0  0  0  0  0  0  0  0  0  0
   28.6711  -12.0224    0.0000 C   0  0  0  0  0  0  0  0  0  0  0  0
   28.6709  -10.5224    0.0000 H   0  0  0  0  0  0  0  0  0  0  0  0
   29.9740  -18.7753    0.0000 Cl  0  0  0  0  0  0  0  0  0  0  0  0
   19.9084  -11.6701    0.0000 S   0  0  0  0  0  0  0  0  0  0  0  0
   20.5831  -13.5316    0.0000 C   0  0  0  0  0  0  0  0  0  0  0  0
   22.4699  -15.7863    0.0000 H   0  0  0  0  0  0  0  0  0  0  0  0
   19.3083  -15.0466    0.0000 C   0  0  0  0  0  0  0  0  0  0  0  0
   20.2716  -16.1975    0.0000 C   0  0  0  0  0  0  0  0  0  0  0  0
   20.7823  -17.6079    0.0000 H   0  0  0  0  0  0  0  0  0  0  0  0
   21.5718  -15.4494    0.0000 H   0  0  0  0  0  0  0  0  0  0  0  0
   18.7931  -16.4554    0.0000 C   0  0  0  0  0  0  0  0  0  0  0  0
   17.3163  -16.1924    0.0000 H   0  0  0  0  0  0  0  0  0  0  0  0
   18.7904  -17.9554    0.0000 H   0  0  0  0  0  0  0  0  0  0  0  0
   18.0104  -14.2947    0.0000 C   0  0  0  0  0  0  0  0  0  0  0  0
   18.9763  -13.1471    0.0000 H   0  0  0  0  0  0  0  0  0  0  0  0
   17.0479  -13.1443    0.0000 H   0  0  0  0  0  0  0  0  0  0  0  0
   15.8782  -15.5216    0.0000 C   0  0  0  0  0  0  0  0  0  0  0  0
   14.5802  -14.7697    0.0000 O   0  0  0  0  0  0  0  0  0  0  0  0
   15.8760  -17.0216    0.0000 O   0  0  0  0  0  0  0  0  0  0  0  0
   14.5759  -17.7697    0.0000 H   0  0  0  0  0  0  0  0  0  0  0  0
   21.8832  -12.7834    0.0000 O   0  0  0  0  0  0  0  0  0  0  0  0
   23.1812  -13.5351    0.0000 H   0  0  0  0  0  0  0  0  0  0  0  0
   15.0698   -6.2610    0.0000 O   0  0  0  0  0  0  0  0  0  0  0  0
   13.9206   -5.2970    0.0000 H   0  0  0  0  0  0  0  0  0  0  0  0
  1  2  1  0  0  0  0 
  1  3  1  0  0  0  0 
  1  4  1  0  0  0  0 
  1  5  1  0  0  0  0 
  5  6  1  0  0  0  0 
  6  7  1  0  0  0  0 
  6  8  1  0  0  0  0 
  6  9  1  0  0  0  0 
  5 10  1  0  0  0  0 
 10 11  2  0  0  0  0 
 11 12  1  0  0  0  0 
 12 13  1  0  0  0  0 
 12 14  2  0  0  0  0 
 14 15  1  0  0  0  0 
 14 16  1  0  0  0  0 
 16 17  1  0  0  0  0 
 16 18  2  0  0  0  0 
 10 18  1  0  0  0  0 
 18 19  1  0  0  0  0 
 11 20  1  0  0  0  0 
 20 21  1  0  0  0  0 
 20 22  1  0  0  0  0 
 20 23  1  0  0  0  0 
 23 24  1  0  0  0  0 
 23 25  1  0  0  0  0 
 23 26  1  0  0  0  0 
 26 27  1  1  0  0  0 
 26 28  1  0  0  0  0 
 28 29  2  0  0  0  0 
 29 30  1  0  0  0  0 
 29 31  1  0  0  0  0 
 31 32  2  0  0  0  0 
 32 33  1  0  0  0  0 
 32 34  1  0  0  0  0 
 34 35  1  0  0  0  0 
 34 36  2  0  0  0  0 
 28 36  1  0  0  0  0 
 36 37  1  0  0  0  0 
 31 38  1  0  0  0  0 
 38 39  1  0  0  0  0 
 38 40  2  0  0  0  0 
 40 41  1  0  0  0  0 
 40 42  1  0  0  0  0 
 42 43  2  0  0  0  0 
 43 44  1  0  0  0  0 
 44 45  2  0  0  0  0 
 45 46  1  0  0  0  0 
 45 47  1  0  0  0  0 
 47 48  2  0  0  0  0 
 48 49  1  0  0  0  0 
 48 50  1  0  0  0  0 
 50 51  1  0  0  0  0 
 50 52  2  0  0  0  0 
 44 52  1  0  0  0  0 
 52 53  1  0  0  0  0 
 53 54  1  0  0  0  0 
 53 55  2  0  0  0  0 
 42 55  1  0  0  0  0 
 55 56  1  0  0  0  0 
 47 57  1  0  0  0  0 
 26 58  1  6  0  0  0 
 58 59  1  0  0  0  0 
 59 60  1  0  0  0  0 
 59 61  1  0  0  0  0 
 61 62  1  0  0  0  0 
 62 63  1  0  0  0  0 
 62 64  1  0  0  0  0 
 62 65  1  0  0  0  0 
 61 65  1  0  0  0  0 
 65 66  1  0  0  0  0 
 65 67  1  0  0  0  0 
 61 68  1  0  0  0  0 
 68 69  1  0  0  0  0 
 68 70  1  0  0  0  0 
 68 71  1  0  0  0  0 
 71 72  2  0  0  0  0 
 71 73  1  0  0  0  0 
 73 74  1  0  0  0  0 
 59 75  1  0  0  0  0 
 75 76  1  0  0  0  0 
  5 77  1  0  0  0  0 
 77 78  1  0  0  0  0 
M  END
> <Rank>
28

> <Priority_score>
0.06

> <Reaction_type>
aliphatic hydroxylation

> <Parent_ID>
7

> <Parent_InChI>
InChI=1S/C35H36ClNO3S/c1-34(2,40)30-9-4-3-7-25(30)13-17-32(41-23-35(18-19-35)22-33(38)39)27-8-5-6-24(20-27)10-15-29-16-12-26-11-14-28(36)21-31(26)37-29/h3-12,14-16,20-21,32,40H,13,17-19,22-23H2,1-2H3,(H,38,39)

> <Parent_SMILES>
CC(C)(O)c1ccccc1CC[C@@H](SCC1(CC(=O)O)CC1)c1cccc(/C=C/c2ccc3ccc(Cl)cc3n2)c1

$$$$
Molecule 7_metabolite 29
  CDK     0516241031

 78 82  0  0  0  0  0  0  0  0999 V2000
   14.8927   -8.4503    0.0000 C   0  0  0  0  0  0  0  0  0  0  0  0
   15.6429   -9.7492    0.0000 H   0  0  0  0  0  0  0  0  0  0  0  0
   14.6320   -6.9732    0.0000 H   0  0  0  0  0  0  0  0  0  0  0  0
   16.3022   -7.9371    0.0000 H   0  0  0  0  0  0  0  0  0  0  0  0
   13.3927   -8.4506    0.0000 C   0  0  0  0  0  0  0  0  0  0  0  0
   11.5320   -7.7737    0.0000 C   0  0  0  0  0  0  0  0  0  0  0  0
   11.0210   -4.8784    0.0000 H   0  0  0  0  0  0  0  0  0  0  0  0
   10.0548   -7.5134    0.0000 H   0  0  0  0  0  0  0  0  0  0  0  0
   11.2718   -9.2509    0.0000 H   0  0  0  0  0  0  0  0  0  0  0  0
   12.4030  -10.1655    0.0000 C   0  0  0  0  0  0  0  0  0  0  0  0
   13.1519  -11.4661    0.0000 C   0  0  0  0  0  0  0  0  0  0  0  0
   12.3999  -12.7640    0.0000 C   0  0  0  0  0  0  0  0  0  0  0  0
   13.1477  -14.0643    0.0000 H   0  0  0  0  0  0  0  0  0  0  0  0
   10.8991  -12.7613    0.0000 C   0  0  0  0  0  0  0  0  0  0  0  0
   10.1449  -14.0579    0.0000 H   0  0  0  0  0  0  0  0  0  0  0  0
   10.1589  -11.4656    0.0000 C   0  0  0  0  0  0  0  0  0  0  0  0
    8.6589  -11.4611    0.0000 H   0  0  0  0  0  0  0  0  0  0  0  0
   10.9108  -10.1677    0.0000 C   0  0  0  0  0  0  0  0  0  0  0  0
   10.1608   -8.8687    0.0000 H   0  0  0  0  0  0  0  0  0  0  0  0
   15.6119  -11.4694    0.0000 C   0  0  0  0  0  0  0  0  0  0  0  0
   16.5745  -12.6198    0.0000 H   0  0  0  0  0  0  0  0  0  0  0  0
   14.6461  -12.6172    0.0000 H   0  0  0  0  0  0  0  0  0  0  0  0
   17.7440  -10.2423    0.0000 C   0  0  0  0  0  0  0  0  0  0  0  0
   16.7813   -9.0920    0.0000 H   0  0  0  0  0  0  0  0  0  0  0  0
   18.7097   -9.0946    0.0000 H   0  0  0  0  0  0  0  0  0  0  0  0
   19.4573  -11.2346    0.0000 C   0  0  2  0  0  0  0  0  0  0  0  0
   20.4200  -12.3850    0.0000 H   0  0  0  0  0  0  0  0  0  0  0  0
   20.7574  -10.4864    0.0000 C   0  0  0  0  0  0  0  0  0  0  0  0
   22.0572  -11.2368    0.0000 C   0  0  0  0  0  0  0  0  0  0  0  0
   22.0574  -12.7368    0.0000 H   0  0  0  0  0  0  0  0  0  0  0  0
   23.3560  -10.4864    0.0000 C   0  0  0  0  0  0  0  0  0  0  0  0
   23.3550   -8.9856    0.0000 C   0  0  0  0  0  0  0  0  0  0  0  0
   24.6525   -8.2330    0.0000 H   0  0  0  0  0  0  0  0  0  0  0  0
   22.0602   -8.2438    0.0000 C   0  0  0  0  0  0  0  0  0  0  0  0
   22.0575   -6.7438    0.0000 H   0  0  0  0  0  0  0  0  0  0  0  0
   20.7614   -8.9942    0.0000 C   0  0  0  0  0  0  0  0  0  0  0  0
   19.4633   -8.2427    0.0000 H   0  0  0  0  0  0  0  0  0  0  0  0
   24.6553  -11.2358    0.0000 C   0  0  0  0  0  0  0  0  0  0  0  0
   25.9540  -10.4852    0.0000 H   0  0  0  0  0  0  0  0  0  0  0  0
   24.6561  -12.7358    0.0000 C   0  0  0  0  0  0  0  0  0  0  0  0
   23.3574  -13.4864    0.0000 H   0  0  0  0  0  0  0  0  0  0  0  0
   25.9555  -13.4852    0.0000 C   0  0  0  0  0  0  0  0  0  0  0  0
   25.9564  -14.9860    0.0000 N   0  0  0  0  0  0  0  0  0  0  0  0
   27.2562  -15.7364    0.0000 C   0  0  0  0  0  0  0  0  0  0  0  0
   27.2572  -17.2372    0.0000 C   0  0  0  0  0  0  0  0  0  0  0  0
   25.9584  -17.9877    0.0000 H   0  0  0  0  0  0  0  0  0  0  0  0
   28.5569  -17.9877    0.0000 C   0  0  0  0  0  0  0  0  0  0  0  0
   29.8557  -17.2372    0.0000 C   0  0  0  0  0  0  0  0  0  0  0  0
   31.1551  -17.9866    0.0000 H   0  0  0  0  0  0  0  0  0  0  0  0
   29.8547  -15.7364    0.0000 C   0  0  0  0  0  0  0  0  0  0  0  0
   31.1535  -14.9860    0.0000 H   0  0  0  0  0  0  0  0  0  0  0  0
   28.5550  -14.9860    0.0000 C   0  0  0  0  0  0  0  0  0  0  0  0
   28.5540  -13.4852    0.0000 C   0  0  0  0  0  0  0  0  0  0  0  0
   29.8528  -12.7347    0.0000 H   0  0  0  0  0  0  0  0  0  0  0  0
   27.2543  -12.7347    0.0000 C   0  0  0  0  0  0  0  0  0  0  0  0
   27.2540  -11.2347    0.0000 H   0  0  0  0  0  0  0  0  0  0  0  0
   28.5572  -19.4877    0.0000 Cl  0  0  0  0  0  0  0  0  0  0  0  0
   18.4916  -12.3824    0.0000 S   0  0  0  0  0  0  0  0  0  0  0  0
   19.1663  -14.2439    0.0000 C   0  0  0  0  0  0  0  0  0  0  0  0
   20.1289  -15.3943    0.0000 H   0  0  0  0  0  0  0  0  0  0  0  0
   20.4663  -13.4957    0.0000 H   0  0  0  0  0  0  0  0  0  0  0  0
   18.2005  -15.3917    0.0000 C   0  0  0  0  0  0  0  0  0  0  0  0
   19.1638  -16.5426    0.0000 C   0  0  0  0  0  0  0  0  0  0  0  0
   19.6745  -17.9530    0.0000 H   0  0  0  0  0  0  0  0  0  0  0  0
   21.2960  -15.3157    0.0000 H   0  0  0  0  0  0  0  0  0  0  0  0
   17.6853  -16.8004    0.0000 C   0  0  0  0  0  0  0  0  0  0  0  0
   16.2085  -16.5375    0.0000 H   0  0  0  0  0  0  0  0  0  0  0  0
   17.6826  -18.3004    0.0000 O   0  0  0  0  0  0  0  0  0  0  0  0
   16.3823  -19.0481    0.0000 H   0  0  0  0  0  0  0  0  0  0  0  0
   16.9026  -14.6398    0.0000 C   0  0  0  0  0  0  0  0  0  0  0  0
   17.8685  -13.4921    0.0000 H   0  0  0  0  0  0  0  0  0  0  0  0
   15.9401  -13.4893    0.0000 H   0  0  0  0  0  0  0  0  0  0  0  0
   14.7704  -15.8667    0.0000 C   0  0  0  0  0  0  0  0  0  0  0  0
   13.4724  -15.1148    0.0000 O   0  0  0  0  0  0  0  0  0  0  0  0
   14.7682  -17.3667    0.0000 O   0  0  0  0  0  0  0  0  0  0  0  0
   13.4681  -18.1148    0.0000 H   0  0  0  0  0  0  0  0  0  0  0  0
   13.6530   -6.9733    0.0000 O   0  0  0  0  0  0  0  0  0  0  0  0
   12.5037   -6.0093    0.0000 H   0  0  0  0  0  0  0  0  0  0  0  0
  1  2  1  0  0  0  0 
  1  3  1  0  0  0  0 
  1  4  1  0  0  0  0 
  1  5  1  0  0  0  0 
  5  6  1  0  0  0  0 
  6  7  1  0  0  0  0 
  6  8  1  0  0  0  0 
  6  9  1  0  0  0  0 
  5 10  1  0  0  0  0 
 10 11  2  0  0  0  0 
 11 12  1  0  0  0  0 
 12 13  1  0  0  0  0 
 12 14  2  0  0  0  0 
 14 15  1  0  0  0  0 
 14 16  1  0  0  0  0 
 16 17  1  0  0  0  0 
 16 18  2  0  0  0  0 
 10 18  1  0  0  0  0 
 18 19  1  0  0  0  0 
 11 20  1  0  0  0  0 
 20 21  1  0  0  0  0 
 20 22  1  0  0  0  0 
 20 23  1  0  0  0  0 
 23 24  1  0  0  0  0 
 23 25  1  0  0  0  0 
 23 26  1  0  0  0  0 
 26 27  1  1  0  0  0 
 26 28  1  0  0  0  0 
 28 29  2  0  0  0  0 
 29 30  1  0  0  0  0 
 29 31  1  0  0  0  0 
 31 32  2  0  0  0  0 
 32 33  1  0  0  0  0 
 32 34  1  0  0  0  0 
 34 35  1  0  0  0  0 
 34 36  2  0  0  0  0 
 28 36  1  0  0  0  0 
 36 37  1  0  0  0  0 
 31 38  1  0  0  0  0 
 38 39  1  0  0  0  0 
 38 40  2  0  0  0  0 
 40 41  1  0  0  0  0 
 40 42  1  0  0  0  0 
 42 43  2  0  0  0  0 
 43 44  1  0  0  0  0 
 44 45  2  0  0  0  0 
 45 46  1  0  0  0  0 
 45 47  1  0  0  0  0 
 47 48  2  0  0  0  0 
 48 49  1  0  0  0  0 
 48 50  1  0  0  0  0 
 50 51  1  0  0  0  0 
 50 52  2  0  0  0  0 
 44 52  1  0  0  0  0 
 52 53  1  0  0  0  0 
 53 54  1  0  0  0  0 
 53 55  2  0  0  0  0 
 42 55  1  0  0  0  0 
 55 56  1  0  0  0  0 
 47 57  1  0  0  0  0 
 26 58  1  6  0  0  0 
 58 59  1  0  0  0  0 
 59 60  1  0  0  0  0 
 59 61  1  0  0  0  0 
 59 62  1  0  0  0  0 
 62 63  1  0  0  0  0 
 63 64  1  0  0  0  0 
 63 65  1  0  0  0  0 
 63 66  1  0  0  0  0 
 62 66  1  0  0  0  0 
 66 67  1  0  0  0  0 
 66 68  1  0  0  0  0 
 68 69  1  0  0  0  0 
 62 70  1  0  0  0  0 
 70 71  1  0  0  0  0 
 70 72  1  0  0  0  0 
 70 73  1  0  0  0  0 
 73 74  2  0  0  0  0 
 73 75  1  0  0  0  0 
 75 76  1  0  0  0  0 
  5 77  1  0  0  0  0 
 77 78  1  0  0  0  0 
M  END
> <Rank>
29

> <Priority_score>
0.05955763604447045

> <Reaction_type>
aliphatic hydroxylation

> <Parent_ID>
7

> <Parent_InChI>
InChI=1S/C35H36ClNO3S/c1-34(2,40)30-9-4-3-7-25(30)13-17-32(41-23-35(18-19-35)22-33(38)39)27-8-5-6-24(20-27)10-15-29-16-12-26-11-14-28(36)21-31(26)37-29/h3-12,14-16,20-21,32,40H,13,17-19,22-23H2,1-2H3,(H,38,39)

> <Parent_SMILES>
CC(C)(O)c1ccccc1CC[C@@H](SCC1(CC(=O)O)CC1)c1cccc(/C=C/c2ccc3ccc(Cl)cc3n2)c1

$$$$
Molecule 7_metabolite 30
  CDK     0516241031

 98103  0  0  0  0  0  0  0  0999 V2000
   14.2427  -28.4806    0.0000 C   0  0  0  0  0  0  0  0  0  0  0  0
   12.9435  -29.2303    0.0000 H   0  0  0  0  0  0  0  0  0  0  0  0
   15.7199  -28.2203    0.0000 H   0  0  0  0  0  0  0  0  0  0  0  0
   14.7555  -29.8902    0.0000 H   0  0  0  0  0  0  0  0  0  0  0  0
   14.2429  -26.9806    0.0000 C   0  0  0  0  0  0  0  0  0  0  0  0
   13.2378  -24.2177    0.0000 C   0  0  0  0  0  0  0  0  0  0  0  0
   14.2022  -23.0688    0.0000 H   0  0  0  0  0  0  0  0  0  0  0  0
   12.2738  -23.0685    0.0000 H   0  0  0  0  0  0  0  0  0  0  0  0
   11.9387  -24.9675    0.0000 H   0  0  0  0  0  0  0  0  0  0  0  0
   15.5421  -26.2308    0.0000 C   0  0  0  0  0  0  0  0  0  0  0  0
   16.8427  -26.9796    0.0000 C   0  0  0  0  0  0  0  0  0  0  0  0
   18.1406  -26.2277    0.0000 C   0  0  0  0  0  0  0  0  0  0  0  0
   19.4409  -26.9755    0.0000 H   0  0  0  0  0  0  0  0  0  0  0  0
   18.1379  -24.7268    0.0000 C   0  0  0  0  0  0  0  0  0  0  0  0
   19.4345  -23.9727    0.0000 H   0  0  0  0  0  0  0  0  0  0  0  0
   16.8422  -23.9866    0.0000 C   0  0  0  0  0  0  0  0  0  0  0  0
   16.8377  -22.4866    0.0000 H   0  0  0  0  0  0  0  0  0  0  0  0
   15.5443  -24.7386    0.0000 C   0  0  0  0  0  0  0  0  0  0  0  0
   14.2453  -23.9886    0.0000 H   0  0  0  0  0  0  0  0  0  0  0  0
   16.8461  -29.4396    0.0000 C   0  0  0  0  0  0  0  0  0  0  0  0
   16.3350  -30.8499    0.0000 H   0  0  0  0  0  0  0  0  0  0  0  0
   15.3685  -29.1812    0.0000 H   0  0  0  0  0  0  0  0  0  0  0  0
   18.1461  -30.1879    0.0000 C   0  0  0  0  0  0  0  0  0  0  0  0
   18.6572  -28.7776    0.0000 H   0  0  0  0  0  0  0  0  0  0  0  0
   19.6237  -30.4463    0.0000 H   0  0  0  0  0  0  0  0  0  0  0  0
   18.1482  -31.6879    0.0000 C   0  0  2  0  0  0  0  0  0  0  0  0
   18.6631  -33.0967    0.0000 H   0  0  0  0  0  0  0  0  0  0  0  0
   16.8501  -32.4396    0.0000 C   0  0  0  0  0  0  0  0  0  0  0  0
   16.8501  -33.9405    0.0000 C   0  0  0  0  0  0  0  0  0  0  0  0
   18.1491  -34.6907    0.0000 H   0  0  0  0  0  0  0  0  0  0  0  0
   15.5509  -34.6900    0.0000 C   0  0  0  0  0  0  0  0  0  0  0  0
   14.2516  -33.9388    0.0000 C   0  0  0  0  0  0  0  0  0  0  0  0
   12.9510  -34.6862    0.0000 H   0  0  0  0  0  0  0  0  0  0  0  0
   14.2566  -32.4466    0.0000 C   0  0  0  0  0  0  0  0  0  0  0  0
   12.9589  -31.6942    0.0000 H   0  0  0  0  0  0  0  0  0  0  0  0
   15.5559  -31.6970    0.0000 C   0  0  0  0  0  0  0  0  0  0  0  0
   15.5541  -30.1970    0.0000 H   0  0  0  0  0  0  0  0  0  0  0  0
   15.5501  -36.1900    0.0000 C   0  0  0  0  0  0  0  0  0  0  0  0
   16.8488  -36.9407    0.0000 H   0  0  0  0  0  0  0  0  0  0  0  0
   14.2507  -36.9394    0.0000 C   0  0  0  0  0  0  0  0  0  0  0  0
   12.9521  -36.1888    0.0000 H   0  0  0  0  0  0  0  0  0  0  0  0
   14.2500  -38.4394    0.0000 C   0  0  0  0  0  0  0  0  0  0  0  0
   12.9500  -39.1894    0.0000 N   0  0  0  0  0  0  0  0  0  0  0  0
   12.9486  -40.6902    0.0000 C   0  0  0  0  0  0  0  0  0  0  0  0
   11.6486  -41.4402    0.0000 C   0  0  0  0  0  0  0  0  0  0  0  0
   10.3500  -40.6894    0.0000 H   0  0  0  0  0  0  0  0  0  0  0  0
   11.6471  -42.9411    0.0000 C   0  0  0  0  0  0  0  0  0  0  0  0
   12.9457  -43.6919    0.0000 C   0  0  0  0  0  0  0  0  0  0  0  0
   12.9450  -45.1919    0.0000 H   0  0  0  0  0  0  0  0  0  0  0  0
   14.2457  -42.9419    0.0000 C   0  0  0  0  0  0  0  0  0  0  0  0
   15.5442  -43.6927    0.0000 H   0  0  0  0  0  0  0  0  0  0  0  0
   14.2471  -41.4411    0.0000 C   0  0  0  0  0  0  0  0  0  0  0  0
   15.5471  -40.6911    0.0000 C   0  0  0  0  0  0  0  0  0  0  0  0
   16.8457  -41.4419    0.0000 H   0  0  0  0  0  0  0  0  0  0  0  0
   15.5486  -39.1902    0.0000 C   0  0  0  0  0  0  0  0  0  0  0  0
   16.8482  -38.4413    0.0000 H   0  0  0  0  0  0  0  0  0  0  0  0
   10.3475  -43.6900    0.0000 Cl  0  0  0  0  0  0  0  0  0  0  0  0
   10.4048  -37.7178    0.0000 C   0  0  0  0  0  0  0  0  0  0  0  0
   11.3696  -36.5692    0.0000 H   0  0  0  0  0  0  0  0  0  0  0  0
    9.4412  -36.5683    0.0000 C   0  0  0  0  0  0  0  0  0  0  0  0
   10.7404  -35.8187    0.0000 H   0  0  0  0  0  0  0  0  0  0  0  0
    7.9631  -36.8288    0.0000 C   0  0  0  0  0  0  0  0  0  0  0  0
    7.9636  -35.3288    0.0000 H   0  0  0  0  0  0  0  0  0  0  0  0
    7.4487  -38.2387    0.0000 C   0  0  0  0  0  0  0  0  0  0  0  0
    6.1502  -37.4879    0.0000 H   0  0  0  0  0  0  0  0  0  0  0  0
    8.4124  -39.3882    0.0000 C   0  0  0  0  0  0  0  0  0  0  0  0
    7.1131  -40.1378    0.0000 H   0  0  0  0  0  0  0  0  0  0  0  0
    9.0892  -41.2489    0.0000 C   0  0  0  0  0  0  0  0  0  0  0  0
   10.5664  -41.5097    0.0000 O   0  0  0  0  0  0  0  0  0  0  0  0
    8.1248  -42.3978    0.0000 O   0  0  0  0  0  0  0  0  0  0  0  0
    6.6476  -42.1370    0.0000 H   0  0  0  0  0  0  0  0  0  0  0  0
    9.8905  -39.1277    0.0000 O   0  0  0  0  0  0  0  0  0  0  0  0
    6.4839  -39.3872    0.0000 O   0  0  0  0  0  0  0  0  0  0  0  0
    5.0069  -39.1260    0.0000 H   0  0  0  0  0  0  0  0  0  0  0  0
    6.4860  -36.5675    0.0000 O   0  0  0  0  0  0  0  0  0  0  0  0
    5.9737  -35.1577    0.0000 H   0  0  0  0  0  0  0  0  0  0  0  0
    8.9284  -35.1587    0.0000 O   0  0  0  0  0  0  0  0  0  0  0  0
    9.8929  -34.0098    0.0000 H   0  0  0  0  0  0  0  0  0  0  0  0
   20.0976  -31.3414    0.0000 S   0  0  0  0  0  0  0  0  0  0  0  0
   21.0633  -32.4892    0.0000 C   0  0  0  0  0  0  0  0  0  0  0  0
   19.7653  -33.2409    0.0000 H   0  0  0  0  0  0  0  0  0  0  0  0
   21.5783  -33.8980    0.0000 H   0  0  0  0  0  0  0  0  0  0  0  0
   23.0128  -32.1427    0.0000 C   0  0  0  0  0  0  0  0  0  0  0  0
   23.5279  -33.5524    0.0000 C   0  0  0  0  0  0  0  0  0  0  0  0
   24.4940  -34.6998    0.0000 H   0  0  0  0  0  0  0  0  0  0  0  0
   22.2299  -34.3043    0.0000 H   0  0  0  0  0  0  0  0  0  0  0  0
   24.4904  -32.4009    0.0000 C   0  0  0  0  0  0  0  0  0  0  0  0
   25.0011  -30.9905    0.0000 H   0  0  0  0  0  0  0  0  0  0  0  0
   25.7908  -33.1485    0.0000 H   0  0  0  0  0  0  0  0  0  0  0  0
   23.0092  -29.6827    0.0000 C   0  0  0  0  0  0  0  0  0  0  0  0
   21.5324  -29.9453    0.0000 H   0  0  0  0  0  0  0  0  0  0  0  0
   22.4941  -28.2739    0.0000 H   0  0  0  0  0  0  0  0  0  0  0  0
   24.3071  -28.9308    0.0000 C   0  0  0  0  0  0  0  0  0  0  0  0
   25.6073  -29.6789    0.0000 O   0  0  0  0  0  0  0  0  0  0  0  0
   24.3050  -27.4308    0.0000 O   0  0  0  0  0  0  0  0  0  0  0  0
   25.6029  -26.6789    0.0000 H   0  0  0  0  0  0  0  0  0  0  0  0
   12.7657  -27.2408    0.0000 O   0  0  0  0  0  0  0  0  0  0  0  0
   12.2524  -28.6502    0.0000 H   0  0  0  0  0  0  0  0  0  0  0  0
  1  2  1  0  0  0  0 
  1  3  1  0  0  0  0 
  1  4  1  0  0  0  0 
  1  5  1  0  0  0  0 
  5  6  1  0  0  0  0 
  6  7  1  0  0  0  0 
  6  8  1  0  0  0  0 
  6  9  1  0  0  0  0 
  5 10  1  0  0  0  0 
 10 11  2  0  0  0  0 
 11 12  1  0  0  0  0 
 12 13  1  0  0  0  0 
 12 14  2  0  0  0  0 
 14 15  1  0  0  0  0 
 14 16  1  0  0  0  0 
 16 17  1  0  0  0  0 
 16 18  2  0  0  0  0 
 10 18  1  0  0  0  0 
 18 19  1  0  0  0  0 
 11 20  1  0  0  0  0 
 20 21  1  0  0  0  0 
 20 22  1  0  0  0  0 
 20 23  1  0  0  0  0 
 23 24  1  0  0  0  0 
 23 25  1  0  0  0  0 
 23 26  1  0  0  0  0 
 26 27  1  6  0  0  0 
 26 28  1  0  0  0  0 
 28 29  2  0  0  0  0 
 29 30  1  0  0  0  0 
 29 31  1  0  0  0  0 
 31 32  2  0  0  0  0 
 32 33  1  0  0  0  0 
 32 34  1  0  0  0  0 
 34 35  1  0  0  0  0 
 34 36  2  0  0  0  0 
 28 36  1  0  0  0  0 
 36 37  1  0  0  0  0 
 31 38  1  0  0  0  0 
 38 39  1  0  0  0  0 
 38 40  2  0  0  0  0 
 40 41  1  0  0  0  0 
 40 42  1  0  0  0  0 
 42 43  2  0  0  0  0 
 43 44  1  0  0  0  0 
 44 45  2  0  0  0  0 
 45 46  1  0  0  0  0 
 45 47  1  0  0  0  0 
 47 48  2  0  0  0  0 
 48 49  1  0  0  0  0 
 48 50  1  0  0  0  0 
 50 51  1  0  0  0  0 
 50 52  2  0  0  0  0 
 44 52  1  0  0  0  0 
 52 53  1  0  0  0  0 
 53 54  1  0  0  0  0 
 53 55  2  0  0  0  0 
 42 55  1  0  0  0  0 
 55 56  1  0  0  0  0 
 47 57  1  0  0  0  0 
 43 58  1  0  0  0  0 
 58 59  1  0  0  0  0 
 58 60  1  0  0  0  0 
 60 61  1  0  0  0  0 
 60 62  1  0  0  0  0 
 62 63  1  0  0  0  0 
 62 64  1  0  0  0  0 
 64 65  1  0  0  0  0 
 64 66  1  0  0  0  0 
 66 67  1  0  0  0  0 
 66 68  1  0  0  0  0 
 68 69  2  0  0  0  0 
 68 70  1  0  0  0  0 
 70 71  1  0  0  0  0 
 66 72  1  0  0  0  0 
 58 72  1  0  0  0  0 
 64 73  1  0  0  0  0 
 73 74  1  0  0  0  0 
 62 75  1  0  0  0  0 
 75 76  1  0  0  0  0 
 60 77  1  0  0  0  0 
 77 78  1  0  0  0  0 
 26 79  1  1  0  0  0 
 79 80  1  0  0  0  0 
 80 81  1  0  0  0  0 
 80 82  1  0  0  0  0 
 80 83  1  0  0  0  0 
 83 84  1  0  0  0  0 
 84 85  1  0  0  0  0 
 84 86  1  0  0  0  0 
 84 87  1  0  0  0  0 
 83 87  1  0  0  0  0 
 87 88  1  0  0  0  0 
 87 89  1  0  0  0  0 
 83 90  1  0  0  0  0 
 90 91  1  0  0  0  0 
 90 92  1  0  0  0  0 
 90 93  1  0  0  0  0 
 93 94  2  0  0  0  0 
 93 95  1  0  0  0  0 
 95 96  1  0  0  0  0 
  5 97  1  0  0  0  0 
 97 98  1  0  0  0  0 
M  CHG  1  43   1
M  END
> <Rank>
30

> <Priority_score>
0.052

> <Reaction_type>
N-glucuronidation_(aromatic_=n-)

> <Parent_ID>
7

> <Parent_InChI>
InChI=1S/C35H36ClNO3S/c1-34(2,40)30-9-4-3-7-25(30)13-17-32(41-23-35(18-19-35)22-33(38)39)27-8-5-6-24(20-27)10-15-29-16-12-26-11-14-28(36)21-31(26)37-29/h3-12,14-16,20-21,32,40H,13,17-19,22-23H2,1-2H3,(H,38,39)

> <Parent_SMILES>
CC(C)(O)c1ccccc1CC[C@@H](SCC1(CC(=O)O)CC1)c1cccc(/C=C/c2ccc3ccc(Cl)cc3n2)c1

$$$$
Molecule 7_metabolite 31
  CDK     0516241031

 78 82  0  0  0  0  0  0  0  0999 V2000
    2.1287    2.9589    0.0000 C   0  0  0  0  0  0  0  0  0  0  0  0
    3.0916    4.1091    0.0000 H   0  0  0  0  0  0  0  0  0  0  0  0
    0.8306    2.2073    0.0000 H   0  0  0  0  0  0  0  0  0  0  0  0
    1.1632    4.1068    0.0000 H   0  0  0  0  0  0  0  0  0  0  0  0
    2.6435    1.5500    0.0000 C   0  0  0  0  0  0  0  0  0  0  0  0
    4.5359   -0.7000    0.0000 C   0  0  0  0  0  0  0  0  0  0  0  0
    4.0246   -2.1101    0.0000 H   0  0  0  0  0  0  0  0  0  0  0  0
    5.8359   -1.4484    0.0000 H   0  0  0  0  0  0  0  0  0  0  0  0
    5.4988    0.4503    0.0000 H   0  0  0  0  0  0  0  0  0  0  0  0
    1.6807    0.3997    0.0000 C   0  0  0  0  0  0  0  0  0  0  0  0
    0.2020    0.6566    0.0000 C   0  0  0  0  0  0  0  0  0  0  0  0
   -0.7589   -0.4952    0.0000 C   0  0  0  0  0  0  0  0  0  0  0  0
   -2.2369   -0.2392    0.0000 H   0  0  0  0  0  0  0  0  0  0  0  0
   -0.2411   -1.9039    0.0000 C   0  0  0  0  0  0  0  0  0  0  0  0
   -1.2001   -3.0574    0.0000 H   0  0  0  0  0  0  0  0  0  0  0  0
    1.2299   -2.1544    0.0000 C   0  0  0  0  0  0  0  0  0  0  0  0
    1.7491   -3.5616    0.0000 H   0  0  0  0  0  0  0  0  0  0  0  0
    2.1908   -1.0025    0.0000 C   0  0  0  0  0  0  0  0  0  0  0  0
    3.6683   -1.2610    0.0000 H   0  0  0  0  0  0  0  0  0  0  0  0
   -0.6457    2.9659    0.0000 C   0  0  0  0  0  0  0  0  0  0  0  0
   -1.9427    2.2124    0.0000 H   0  0  0  0  0  0  0  0  0  0  0  0
   -1.6130    4.1124    0.0000 H   0  0  0  0  0  0  0  0  0  0  0  0
    0.3154    4.1176    0.0000 C   0  0  0  0  0  0  0  0  0  0  0  0
    2.8575    5.5945    0.0000 H   0  0  0  0  0  0  0  0  0  0  0  0
    1.2827    2.9712    0.0000 H   0  0  0  0  0  0  0  0  0  0  0  0
   -0.2014    5.5258    0.0000 C   0  0  2  0  0  0  0  0  0  0  0  0
    1.2751    5.7902    0.0000 H   0  0  0  0  0  0  0  0  0  0  0  0
   -1.6794    5.7822    0.0000 C   0  0  0  0  0  0  0  0  0  0  0  0
   -2.6411    4.6301    0.0000 C   0  0  0  0  0  0  0  0  0  0  0  0
   -2.1241    3.2220    0.0000 H   0  0  0  0  0  0  0  0  0  0  0  0
   -4.1200    4.8860    0.0000 C   0  0  0  0  0  0  0  0  0  0  0  0
   -5.0807    3.7340    0.0000 H   0  0  0  0  0  0  0  0  0  0  0  0
   -4.6371    6.2940    0.0000 C   0  0  0  0  0  0  0  0  0  0  0  0
   -3.6753    7.4462    0.0000 C   0  0  0  0  0  0  0  0  0  0  0  0
   -2.1964    7.1903    0.0000 C   0  0  0  0  0  0  0  0  0  0  0  0
   -1.2357    8.3423    0.0000 H   0  0  0  0  0  0  0  0  0  0  0  0
   -4.1924    8.8543    0.0000 C   0  0  0  0  0  0  0  0  0  0  0  0
   -3.2315   10.0061    0.0000 H   0  0  0  0  0  0  0  0  0  0  0  0
   -5.6703    9.1105    0.0000 C   0  0  0  0  0  0  0  0  0  0  0  0
   -6.6312    7.9587    0.0000 H   0  0  0  0  0  0  0  0  0  0  0  0
   -6.1874   10.5186    0.0000 C   0  0  0  0  0  0  0  0  0  0  0  0
   -7.6661   10.7752    0.0000 N   0  0  0  0  0  0  0  0  0  0  0  0
   -8.1841   12.1838    0.0000 C   0  0  0  0  0  0  0  0  0  0  0  0
   -9.6629   12.4404    0.0000 C   0  0  0  0  0  0  0  0  0  0  0  0
  -10.6236   11.2884    0.0000 H   0  0  0  0  0  0  0  0  0  0  0  0
  -10.1809   13.8490    0.0000 C   0  0  0  0  0  0  0  0  0  0  0  0
   -9.2202   15.0010    0.0000 C   0  0  0  0  0  0  0  0  0  0  0  0
   -9.7373   16.4090    0.0000 H   0  0  0  0  0  0  0  0  0  0  0  0
   -7.7415   14.7443    0.0000 C   0  0  0  0  0  0  0  0  0  0  0  0
   -6.7808   15.8963    0.0000 H   0  0  0  0  0  0  0  0  0  0  0  0
   -7.2234   13.3357    0.0000 C   0  0  0  0  0  0  0  0  0  0  0  0
   -5.7447   13.0791    0.0000 C   0  0  0  0  0  0  0  0  0  0  0  0
   -4.7840   14.2311    0.0000 H   0  0  0  0  0  0  0  0  0  0  0  0
   -5.2267   11.6705    0.0000 C   0  0  0  0  0  0  0  0  0  0  0  0
   -3.7486   11.4148    0.0000 H   0  0  0  0  0  0  0  0  0  0  0  0
  -11.6589   14.1047    0.0000 Cl  0  0  0  0  0  0  0  0  0  0  0  0
   -6.1150    6.5505    0.0000 O   0  0  0  0  0  0  0  0  0  0  0  0
   -7.0760    5.3988    0.0000 H   0  0  0  0  0  0  0  0  0  0  0  0
   -0.2055    7.0258    0.0000 S   0  0  0  0  0  0  0  0  0  0  0  0
    1.5065    8.0204    0.0000 C   0  0  0  0  0  0  0  0  0  0  0  0
    2.9830    8.2849    0.0000 H   0  0  0  0  0  0  0  0  0  0  0  0
    2.0234    6.6123    0.0000 H   0  0  0  0  0  0  0  0  0  0  0  0
    1.5012   10.0004    0.0000 C   0  0  0  0  0  0  0  0  0  0  0  0
    2.9785   10.2648    0.0000 C   0  0  0  0  0  0  0  0  0  0  0  0
    4.2753   11.0188    0.0000 H   0  0  0  0  0  0  0  0  0  0  0  0
    3.4955    8.8568    0.0000 H   0  0  0  0  0  0  0  0  0  0  0  0
    2.0101   11.4114    0.0000 C   0  0  0  0  0  0  0  0  0  0  0  0
    0.7088   12.1575    0.0000 H   0  0  0  0  0  0  0  0  0  0  0  0
    2.9707   12.5635    0.0000 H   0  0  0  0  0  0  0  0  0  0  0  0
    0.0232   10.2567    0.0000 C   0  0  0  0  0  0  0  0  0  0  0  0
    0.0275    8.7567    0.0000 H   0  0  0  0  0  0  0  0  0  0  0  0
   -1.4532    9.9921    0.0000 H   0  0  0  0  0  0  0  0  0  0  0  0
   -0.8246   12.5660    0.0000 C   0  0  0  0  0  0  0  0  0  0  0  0
   -2.3026   12.8223    0.0000 O   0  0  0  0  0  0  0  0  0  0  0  0
    0.1363   13.7177    0.0000 O   0  0  0  0  0  0  0  0  0  0  0  0
   -0.3807   15.1258    0.0000 H   0  0  0  0  0  0  0  0  0  0  0  0
    3.9416    2.3015    0.0000 O   0  0  0  0  0  0  0  0  0  0  0  0
    3.9398    3.8015    0.0000 H   0  0  0  0  0  0  0  0  0  0  0  0
  1  2  1  0  0  0  0 
  1  3  1  0  0  0  0 
  1  4  1  0  0  0  0 
  1  5  1  0  0  0  0 
  5  6  1  0  0  0  0 
  6  7  1  0  0  0  0 
  6  8  1  0  0  0  0 
  6  9  1  0  0  0  0 
  5 10  1  0  0  0  0 
 10 11  2  0  0  0  0 
 11 12  1  0  0  0  0 
 12 13  1  0  0  0  0 
 12 14  2  0  0  0  0 
 14 15  1  0  0  0  0 
 14 16  1  0  0  0  0 
 16 17  1  0  0  0  0 
 16 18  2  0  0  0  0 
 10 18  1  0  0  0  0 
 18 19  1  0  0  0  0 
 11 20  1  0  0  0  0 
 20 21  1  0  0  0  0 
 20 22  1  0  0  0  0 
 20 23  1  0  0  0  0 
 23 24  1  0  0  0  0 
 23 25  1  0  0  0  0 
 23 26  1  0  0  0  0 
 26 27  1  1  0  0  0 
 26 28  1  0  0  0  0 
 28 29  2  0  0  0  0 
 29 30  1  0  0  0  0 
 29 31  1  0  0  0  0 
 31 32  1  0  0  0  0 
 31 33  2  0  0  0  0 
 33 34  1  0  0  0  0 
 34 35  2  0  0  0  0 
 28 35  1  0  0  0  0 
 35 36  1  0  0  0  0 
 34 37  1  0  0  0  0 
 37 38  1  0  0  0  0 
 37 39  2  0  0  0  0 
 39 40  1  0  0  0  0 
 39 41  1  0  0  0  0 
 41 42  2  0  0  0  0 
 42 43  1  0  0  0  0 
 43 44  2  0  0  0  0 
 44 45  1  0  0  0  0 
 44 46  1  0  0  0  0 
 46 47  2  0  0  0  0 
 47 48  1  0  0  0  0 
 47 49  1  0  0  0  0 
 49 50  1  0  0  0  0 
 49 51  2  0  0  0  0 
 43 51  1  0  0  0  0 
 51 52  1  0  0  0  0 
 52 53  1  0  0  0  0 
 52 54  2  0  0  0  0 
 41 54  1  0  0  0  0 
 54 55  1  0  0  0  0 
 46 56  1  0  0  0  0 
 33 57  1  0  0  0  0 
 57 58  1  0  0  0  0 
 26 59  1  6  0  0  0 
 59 60  1  0  0  0  0 
 60 61  1  0  0  0  0 
 60 62  1  0  0  0  0 
 60 63  1  0  0  0  0 
 63 64  1  0  0  0  0 
 64 65  1  0  0  0  0 
 64 66  1  0  0  0  0 
 64 67  1  0  0  0  0 
 63 67  1  0  0  0  0 
 67 68  1  0  0  0  0 
 67 69  1  0  0  0  0 
 63 70  1  0  0  0  0 
 70 71  1  0  0  0  0 
 70 72  1  0  0  0  0 
 70 73  1  0  0  0  0 
 73 74  2  0  0  0  0 
 73 75  1  0  0  0  0 
 75 76  1  0  0  0  0 
  5 77  1  0  0  0  0 
 77 78  1  0  0  0  0 
M  END
> <Rank>
31

> <Priority_score>
0.044

> <Reaction_type>
aromatic_hydroxylation_(para_to_carbon)

> <Parent_ID>
7

> <Parent_InChI>
InChI=1S/C35H36ClNO3S/c1-34(2,40)30-9-4-3-7-25(30)13-17-32(41-23-35(18-19-35)22-33(38)39)27-8-5-6-24(20-27)10-15-29-16-12-26-11-14-28(36)21-31(26)37-29/h3-12,14-16,20-21,32,40H,13,17-19,22-23H2,1-2H3,(H,38,39)

> <Parent_SMILES>
CC(C)(O)c1ccccc1CC[C@@H](SCC1(CC(=O)O)CC1)c1cccc(/C=C/c2ccc3ccc(Cl)cc3n2)c1

$$$$
Molecule 7_metabolite 32
  CDK     0516241031

 78 82  0  0  0  0  0  0  0  0999 V2000
   13.4724   -4.2002    0.0000 C   0  0  0  0  0  0  0  0  0  0  0  0
   13.4722   -2.7002    0.0000 H   0  0  0  0  0  0  0  0  0  0  0  0
   13.9857   -5.6097    0.0000 H   0  0  0  0  0  0  0  0  0  0  0  0
   14.9496   -3.9395    0.0000 H   0  0  0  0  0  0  0  0  0  0  0  0
   12.1735   -4.9505    0.0000 C   0  0  0  0  0  0  0  0  0  0  0  0
   10.2237   -5.2946    0.0000 C   0  0  0  0  0  0  0  0  0  0  0  0
    9.2593   -4.1457    0.0000 H   0  0  0  0  0  0  0  0  0  0  0  0
    8.8142   -5.8078    0.0000 H   0  0  0  0  0  0  0  0  0  0  0  0
   10.7369   -6.7040    0.0000 H   0  0  0  0  0  0  0  0  0  0  0  0
   12.1739   -7.4105    0.0000 C   0  0  0  0  0  0  0  0  0  0  0  0
   13.4728   -8.1624    0.0000 C   0  0  0  0  0  0  0  0  0  0  0  0
   13.4705   -9.6624    0.0000 C   0  0  0  0  0  0  0  0  0  0  0  0
   14.7683  -10.4146    0.0000 H   0  0  0  0  0  0  0  0  0  0  0  0
   12.1694  -10.4105    0.0000 C   0  0  0  0  0  0  0  0  0  0  0  0
   12.1646  -11.9104    0.0000 H   0  0  0  0  0  0  0  0  0  0  0  0
   10.8805   -9.6585    0.0000 C   0  0  0  0  0  0  0  0  0  0  0  0
    9.5792  -10.4046    0.0000 H   0  0  0  0  0  0  0  0  0  0  0  0
   10.8828   -8.1585    0.0000 C   0  0  0  0  0  0  0  0  0  0  0  0
    9.5837   -7.4085    0.0000 H   0  0  0  0  0  0  0  0  0  0  0  0
   15.6049   -6.9353    0.0000 C   0  0  0  0  0  0  0  0  0  0  0  0
   17.0824   -6.6768    0.0000 H   0  0  0  0  0  0  0  0  0  0  0  0
   16.1160   -8.3455    0.0000 H   0  0  0  0  0  0  0  0  0  0  0  0
   15.6082   -4.4753    0.0000 C   0  0  0  0  0  0  0  0  0  0  0  0
   14.1306   -4.7338    0.0000 H   0  0  0  0  0  0  0  0  0  0  0  0
   15.0971   -3.0651    0.0000 H   0  0  0  0  0  0  0  0  0  0  0  0
   17.3243   -3.4876    0.0000 C   0  0  1  0  0  0  0  0  0  0  0  0
   17.3263   -1.9876    0.0000 C   0  0  0  0  0  0  0  0  0  0  0  0
   18.6261   -1.2372    0.0000 C   0  0  0  0  0  0  0  0  0  0  0  0
   19.9252   -1.9870    0.0000 H   0  0  0  0  0  0  0  0  0  0  0  0
   18.6256    0.2628    0.0000 C   0  0  0  0  0  0  0  0  0  0  0  0
   17.3253    1.0124    0.0000 C   0  0  0  0  0  0  0  0  0  0  0  0
   17.3223    2.5124    0.0000 H   0  0  0  0  0  0  0  0  0  0  0  0
   16.0356    0.2619    0.0000 C   0  0  0  0  0  0  0  0  0  0  0  0
   14.7352    1.0096    0.0000 H   0  0  0  0  0  0  0  0  0  0  0  0
   16.0361   -1.2381    0.0000 C   0  0  0  0  0  0  0  0  0  0  0  0
   14.7361   -1.9865    0.0000 H   0  0  0  0  0  0  0  0  0  0  0  0
   19.9243    1.0134    0.0000 C   0  0  0  0  0  0  0  0  0  0  0  0
   19.9235    2.5134    0.0000 H   0  0  0  0  0  0  0  0  0  0  0  0
   21.2237    0.2640    0.0000 C   0  0  0  0  0  0  0  0  0  0  0  0
   21.2244   -1.2360    0.0000 H   0  0  0  0  0  0  0  0  0  0  0  0
   22.5223    1.0147    0.0000 C   0  0  0  0  0  0  0  0  0  0  0  0
   23.8226    0.2651    0.0000 N   0  0  0  0  0  0  0  0  0  0  0  0
   25.1223    1.0155    0.0000 C   0  0  0  0  0  0  0  0  0  0  0  0
   26.4226    0.2659    0.0000 C   0  0  0  0  0  0  0  0  0  0  0  0
   26.4231   -1.2341    0.0000 H   0  0  0  0  0  0  0  0  0  0  0  0
   27.7223    1.0163    0.0000 C   0  0  0  0  0  0  0  0  0  0  0  0
   27.7218    2.5163    0.0000 C   0  0  0  0  0  0  0  0  0  0  0  0
   29.0205    3.2669    0.0000 H   0  0  0  0  0  0  0  0  0  0  0  0
   26.4216    3.2659    0.0000 C   0  0  0  0  0  0  0  0  0  0  0  0
   26.4211    4.7659    0.0000 H   0  0  0  0  0  0  0  0  0  0  0  0
   25.1218    2.5155    0.0000 C   0  0  0  0  0  0  0  0  0  0  0  0
   23.8216    3.2651    0.0000 C   0  0  0  0  0  0  0  0  0  0  0  0
   23.8211    4.7651    0.0000 H   0  0  0  0  0  0  0  0  0  0  0  0
   22.5218    2.5147    0.0000 C   0  0  0  0  0  0  0  0  0  0  0  0
   21.2227    3.2644    0.0000 H   0  0  0  0  0  0  0  0  0  0  0  0
   29.0215    0.2665    0.0000 Cl  0  0  0  0  0  0  0  0  0  0  0  0
   18.8018   -3.2292    0.0000 O   0  0  0  0  0  0  0  0  0  0  0  0
   19.7645   -4.3795    0.0000 H   0  0  0  0  0  0  0  0  0  0  0  0
   17.8354   -4.8979    0.0000 S   0  0  0  0  0  0  0  0  0  0  0  0
   20.7300   -5.4123    0.0000 C   0  0  0  0  0  0  0  0  0  0  0  0
   22.2076   -5.1538    0.0000 H   0  0  0  0  0  0  0  0  0  0  0  0
   20.7321   -3.9123    0.0000 H   0  0  0  0  0  0  0  0  0  0  0  0
   21.2411   -6.8225    0.0000 C   0  0  0  0  0  0  0  0  0  0  0  0
   22.7195   -6.5638    0.0000 C   0  0  0  0  0  0  0  0  0  0  0  0
   24.1963   -6.8267    0.0000 H   0  0  0  0  0  0  0  0  0  0  0  0
   22.7231   -4.1038    0.0000 H   0  0  0  0  0  0  0  0  0  0  0  0
   22.2035   -7.9731    0.0000 C   0  0  0  0  0  0  0  0  0  0  0  0
   21.2374   -9.1206    0.0000 H   0  0  0  0  0  0  0  0  0  0  0  0
   23.5012   -8.7254    0.0000 H   0  0  0  0  0  0  0  0  0  0  0  0
   19.9410   -7.5706    0.0000 C   0  0  0  0  0  0  0  0  0  0  0  0
   19.4300   -6.1604    0.0000 H   0  0  0  0  0  0  0  0  0  0  0  0
   18.4634   -7.8290    0.0000 H   0  0  0  0  0  0  0  0  0  0  0  0
   19.9374  -10.0306    0.0000 C   0  0  0  0  0  0  0  0  0  0  0  0
   18.6373  -10.7787    0.0000 O   0  0  0  0  0  0  0  0  0  0  0  0
   21.2354  -10.7825    0.0000 O   0  0  0  0  0  0  0  0  0  0  0  0
   21.2332  -12.2825    0.0000 H   0  0  0  0  0  0  0  0  0  0  0  0
   11.6603   -3.5410    0.0000 O   0  0  0  0  0  0  0  0  0  0  0  0
   12.6243   -2.3918    0.0000 H   0  0  0  0  0  0  0  0  0  0  0  0
  1  2  1  0  0  0  0 
  1  3  1  0  0  0  0 
  1  4  1  0  0  0  0 
  1  5  1  0  0  0  0 
  5  6  1  0  0  0  0 
  6  7  1  0  0  0  0 
  6  8  1  0  0  0  0 
  6  9  1  0  0  0  0 
  5 10  1  0  0  0  0 
 10 11  2  0  0  0  0 
 11 12  1  0  0  0  0 
 12 13  1  0  0  0  0 
 12 14  2  0  0  0  0 
 14 15  1  0  0  0  0 
 14 16  1  0  0  0  0 
 16 17  1  0  0  0  0 
 16 18  2  0  0  0  0 
 10 18  1  0  0  0  0 
 18 19  1  0  0  0  0 
 11 20  1  0  0  0  0 
 20 21  1  0  0  0  0 
 20 22  1  0  0  0  0 
 20 23  1  0  0  0  0 
 23 24  1  0  0  0  0 
 23 25  1  0  0  0  0 
 23 26  1  0  0  0  0 
 26 27  1  0  0  0  0 
 27 28  2  0  0  0  0 
 28 29  1  0  0  0  0 
 28 30  1  0  0  0  0 
 30 31  2  0  0  0  0 
 31 32  1  0  0  0  0 
 31 33  1  0  0  0  0 
 33 34  1  0  0  0  0 
 33 35  2  0  0  0  0 
 27 35  1  0  0  0  0 
 35 36  1  0  0  0  0 
 30 37  1  0  0  0  0 
 37 38  1  0  0  0  0 
 37 39  2  0  0  0  0 
 39 40  1  0  0  0  0 
 39 41  1  0  0  0  0 
 41 42  2  0  0  0  0 
 42 43  1  0  0  0  0 
 43 44  2  0  0  0  0 
 44 45  1  0  0  0  0 
 44 46  1  0  0  0  0 
 46 47  2  0  0  0  0 
 47 48  1  0  0  0  0 
 47 49  1  0  0  0  0 
 49 50  1  0  0  0  0 
 49 51  2  0  0  0  0 
 43 51  1  0  0  0  0 
 51 52  1  0  0  0  0 
 52 53  1  0  0  0  0 
 52 54  2  0  0  0  0 
 41 54  1  0  0  0  0 
 54 55  1  0  0  0  0 
 46 56  1  0  0  0  0 
 26 57  1  1  0  0  0 
 57 58  1  0  0  0  0 
 26 59  1  6  0  0  0 
 59 60  1  0  0  0  0 
 60 61  1  0  0  0  0 
 60 62  1  0  0  0  0 
 60 63  1  0  0  0  0 
 63 64  1  0  0  0  0 
 64 65  1  0  0  0  0 
 64 66  1  0  0  0  0 
 64 67  1  0  0  0  0 
 63 67  1  0  0  0  0 
 67 68  1  0  0  0  0 
 67 69  1  0  0  0  0 
 63 70  1  0  0  0  0 
 70 71  1  0  0  0  0 
 70 72  1  0  0  0  0 
 70 73  1  0  0  0  0 
 73 74  2  0  0  0  0 
 73 75  1  0  0  0  0 
 75 76  1  0  0  0  0 
  5 77  1  0  0  0  0 
 77 78  1  0  0  0  0 
M  END
> <Rank>
31

> <Priority_score>
0.044

> <Reaction_type>
aliphatic hydroxylation

> <Parent_ID>
7

> <Parent_InChI>
InChI=1S/C35H36ClNO3S/c1-34(2,40)30-9-4-3-7-25(30)13-17-32(41-23-35(18-19-35)22-33(38)39)27-8-5-6-24(20-27)10-15-29-16-12-26-11-14-28(36)21-31(26)37-29/h3-12,14-16,20-21,32,40H,13,17-19,22-23H2,1-2H3,(H,38,39)

> <Parent_SMILES>
CC(C)(O)c1ccccc1CC[C@@H](SCC1(CC(=O)O)CC1)c1cccc(/C=C/c2ccc3ccc(Cl)cc3n2)c1

$$$$
Molecule 7_metabolite 33
  CDK     0516241031

 78 82  0  0  0  0  0  0  0  0999 V2000
   14.8911   -8.4457    0.0000 C   0  0  0  0  0  0  0  0  0  0  0  0
   15.6428   -9.7437    0.0000 H   0  0  0  0  0  0  0  0  0  0  0  0
   14.6286   -6.9688    0.0000 H   0  0  0  0  0  0  0  0  0  0  0  0
   16.2999   -7.9307    0.0000 H   0  0  0  0  0  0  0  0  0  0  0  0
   13.3911   -8.4477    0.0000 C   0  0  0  0  0  0  0  0  0  0  0  0
   11.5296   -7.7730    0.0000 C   0  0  0  0  0  0  0  0  0  0  0  0
   11.0151   -4.8784    0.0000 H   0  0  0  0  0  0  0  0  0  0  0  0
   10.0520   -7.5146    0.0000 H   0  0  0  0  0  0  0  0  0  0  0  0
   11.2711   -9.2506    0.0000 H   0  0  0  0  0  0  0  0  0  0  0  0
   12.4034  -10.1638    0.0000 C   0  0  0  0  0  0  0  0  0  0  0  0
   10.9026  -10.1661    0.0000 C   0  0  0  0  0  0  0  0  0  0  0  0
   10.1533  -11.4665    0.0000 C   0  0  0  0  0  0  0  0  0  0  0  0
    8.6533  -11.4680    0.0000 H   0  0  0  0  0  0  0  0  0  0  0  0
   10.9048  -12.7646    0.0000 C   0  0  0  0  0  0  0  0  0  0  0  0
   10.1566  -14.0647    0.0000 H   0  0  0  0  0  0  0  0  0  0  0  0
   12.4057  -12.7623    0.0000 C   0  0  0  0  0  0  0  0  0  0  0  0
   13.1572  -14.0605    0.0000 H   0  0  0  0  0  0  0  0  0  0  0  0
   13.1549  -11.4619    0.0000 C   0  0  0  0  0  0  0  0  0  0  0  0
   15.6149  -11.4594    0.0000 C   0  0  0  0  0  0  0  0  0  0  0  0
   16.5803  -12.6075    0.0000 H   0  0  0  0  0  0  0  0  0  0  0  0
   14.6519  -12.6094    0.0000 H   0  0  0  0  0  0  0  0  0  0  0  0
   17.7441  -10.2272    0.0000 C   0  0  0  0  0  0  0  0  0  0  0  0
   16.7787   -9.0791    0.0000 H   0  0  0  0  0  0  0  0  0  0  0  0
   18.7071   -9.0771    0.0000 H   0  0  0  0  0  0  0  0  0  0  0  0
   19.4598  -11.2154    0.0000 C   0  0  2  0  0  0  0  0  0  0  0  0
   20.4252  -12.3635    0.0000 H   0  0  0  0  0  0  0  0  0  0  0  0
   20.7581  -10.4641    0.0000 C   0  0  0  0  0  0  0  0  0  0  0  0
   22.0596  -11.2114    0.0000 C   0  0  0  0  0  0  0  0  0  0  0  0
   22.0635  -12.7114    0.0000 H   0  0  0  0  0  0  0  0  0  0  0  0
   23.3567  -10.4579    0.0000 C   0  0  0  0  0  0  0  0  0  0  0  0
   23.3521   -8.9570    0.0000 C   0  0  0  0  0  0  0  0  0  0  0  0
   24.6478   -8.2014    0.0000 H   0  0  0  0  0  0  0  0  0  0  0  0
   22.0556   -8.2184    0.0000 C   0  0  0  0  0  0  0  0  0  0  0  0
   22.0492   -6.7184    0.0000 H   0  0  0  0  0  0  0  0  0  0  0  0
   20.7586   -8.9719    0.0000 C   0  0  0  0  0  0  0  0  0  0  0  0
   19.4586   -8.2234    0.0000 H   0  0  0  0  0  0  0  0  0  0  0  0
   24.6578  -11.2041    0.0000 C   0  0  0  0  0  0  0  0  0  0  0  0
   25.9547  -10.4504    0.0000 H   0  0  0  0  0  0  0  0  0  0  0  0
   24.6621  -12.7041    0.0000 C   0  0  0  0  0  0  0  0  0  0  0  0
   23.3653  -13.4579    0.0000 H   0  0  0  0  0  0  0  0  0  0  0  0
   25.9633  -13.4504    0.0000 C   0  0  0  0  0  0  0  0  0  0  0  0
   25.9679  -14.9512    0.0000 N   0  0  0  0  0  0  0  0  0  0  0  0
   27.2694  -15.6985    0.0000 C   0  0  0  0  0  0  0  0  0  0  0  0
   27.2740  -17.1994    0.0000 C   0  0  0  0  0  0  0  0  0  0  0  0
   25.9770  -17.9529    0.0000 H   0  0  0  0  0  0  0  0  0  0  0  0
   28.5755  -17.9467    0.0000 C   0  0  0  0  0  0  0  0  0  0  0  0
   29.8725  -17.1932    0.0000 C   0  0  0  0  0  0  0  0  0  0  0  0
   31.1737  -17.9394    0.0000 H   0  0  0  0  0  0  0  0  0  0  0  0
   29.8680  -15.6923    0.0000 C   0  0  0  0  0  0  0  0  0  0  0  0
   31.1650  -14.9388    0.0000 H   0  0  0  0  0  0  0  0  0  0  0  0
   28.5664  -14.9450    0.0000 C   0  0  0  0  0  0  0  0  0  0  0  0
   28.5619  -13.4442    0.0000 C   0  0  0  0  0  0  0  0  0  0  0  0
   29.8589  -12.6907    0.0000 H   0  0  0  0  0  0  0  0  0  0  0  0
   27.2603  -12.6969    0.0000 C   0  0  0  0  0  0  0  0  0  0  0  0
   27.2565  -11.1969    0.0000 H   0  0  0  0  0  0  0  0  0  0  0  0
   28.5793  -19.4467    0.0000 Cl  0  0  0  0  0  0  0  0  0  0  0  0
   18.4968  -12.3655    0.0000 S   0  0  0  0  0  0  0  0  0  0  0  0
   19.1760  -14.2254    0.0000 C   0  0  0  0  0  0  0  0  0  0  0  0
   20.1413  -15.3734    0.0000 H   0  0  0  0  0  0  0  0  0  0  0  0
   20.4742  -13.4740    0.0000 H   0  0  0  0  0  0  0  0  0  0  0  0
   18.2130  -15.3754    0.0000 C   0  0  0  0  0  0  0  0  0  0  0  0
   19.1790  -16.5240    0.0000 C   0  0  0  0  0  0  0  0  0  0  0  0
   19.6930  -17.9332    0.0000 H   0  0  0  0  0  0  0  0  0  0  0  0
   21.3083  -15.2921    0.0000 H   0  0  0  0  0  0  0  0  0  0  0  0
   17.7011  -16.7854    0.0000 C   0  0  0  0  0  0  0  0  0  0  0  0
   16.2237  -16.5260    0.0000 H   0  0  0  0  0  0  0  0  0  0  0  0
   17.7020  -18.2854    0.0000 H   0  0  0  0  0  0  0  0  0  0  0  0
   16.9132  -14.6266    0.0000 C   0  0  0  0  0  0  0  0  0  0  0  0
   17.8764  -13.4767    0.0000 H   0  0  0  0  0  0  0  0  0  0  0  0
   15.9480  -13.4785    0.0000 H   0  0  0  0  0  0  0  0  0  0  0  0
   14.7840  -15.8586    0.0000 C   0  0  0  0  0  0  0  0  0  0  0  0
   13.4842  -15.1098    0.0000 O   0  0  0  0  0  0  0  0  0  0  0  0
   14.7854  -17.3586    0.0000 O   0  0  0  0  0  0  0  0  0  0  0  0
   13.4870  -18.1098    0.0000 H   0  0  0  0  0  0  0  0  0  0  0  0
   10.1510   -8.8679    0.0000 O   0  0  0  0  0  0  0  0  0  0  0  0
    8.6510   -8.8697    0.0000 H   0  0  0  0  0  0  0  0  0  0  0  0
   13.6495   -6.9702    0.0000 O   0  0  0  0  0  0  0  0  0  0  0  0
   12.4992   -6.0075    0.0000 H   0  0  0  0  0  0  0  0  0  0  0  0
  1  2  1  0  0  0  0 
  1  3  1  0  0  0  0 
  1  4  1  0  0  0  0 
  1  5  1  0  0  0  0 
  5  6  1  0  0  0  0 
  6  7  1  0  0  0  0 
  6  8  1  0  0  0  0 
  6  9  1  0  0  0  0 
  5 10  1  0  0  0  0 
 10 11  2  0  0  0  0 
 11 12  1  0  0  0  0 
 12 13  1  0  0  0  0 
 12 14  2  0  0  0  0 
 14 15  1  0  0  0  0 
 14 16  1  0  0  0  0 
 16 17  1  0  0  0  0 
 16 18  2  0  0  0  0 
 10 18  1  0  0  0  0 
 18 19  1  0  0  0  0 
 19 20  1  0  0  0  0 
 19 21  1  0  0  0  0 
 19 22  1  0  0  0  0 
 22 23  1  0  0  0  0 
 22 24  1  0  0  0  0 
 22 25  1  0  0  0  0 
 25 26  1  1  0  0  0 
 25 27  1  0  0  0  0 
 27 28  2  0  0  0  0 
 28 29  1  0  0  0  0 
 28 30  1  0  0  0  0 
 30 31  2  0  0  0  0 
 31 32  1  0  0  0  0 
 31 33  1  0  0  0  0 
 33 34  1  0  0  0  0 
 33 35  2  0  0  0  0 
 27 35  1  0  0  0  0 
 35 36  1  0  0  0  0 
 30 37  1  0  0  0  0 
 37 38  1  0  0  0  0 
 37 39  2  0  0  0  0 
 39 40  1  0  0  0  0 
 39 41  1  0  0  0  0 
 41 42  2  0  0  0  0 
 42 43  1  0  0  0  0 
 43 44  2  0  0  0  0 
 44 45  1  0  0  0  0 
 44 46  1  0  0  0  0 
 46 47  2  0  0  0  0 
 47 48  1  0  0  0  0 
 47 49  1  0  0  0  0 
 49 50  1  0  0  0  0 
 49 51  2  0  0  0  0 
 43 51  1  0  0  0  0 
 51 52  1  0  0  0  0 
 52 53  1  0  0  0  0 
 52 54  2  0  0  0  0 
 41 54  1  0  0  0  0 
 54 55  1  0  0  0  0 
 46 56  1  0  0  0  0 
 25 57  1  6  0  0  0 
 57 58  1  0  0  0  0 
 58 59  1  0  0  0  0 
 58 60  1  0  0  0  0 
 58 61  1  0  0  0  0 
 61 62  1  0  0  0  0 
 62 63  1  0  0  0  0 
 62 64  1  0  0  0  0 
 62 65  1  0  0  0  0 
 61 65  1  0  0  0  0 
 65 66  1  0  0  0  0 
 65 67  1  0  0  0  0 
 61 68  1  0  0  0  0 
 68 69  1  0  0  0  0 
 68 70  1  0  0  0  0 
 68 71  1  0  0  0  0 
 71 72  2  0  0  0  0 
 71 73  1  0  0  0  0 
 73 74  1  0  0  0  0 
 11 75  1  0  0  0  0 
 75 76  1  0  0  0  0 
  5 77  1  0  0  0  0 
 77 78  1  0  0  0  0 
M  END
> <Rank>
33

> <Priority_score>
0.03891327264015333

> <Reaction_type>
aromatic hydroxylation

> <Parent_ID>
7

> <Parent_InChI>
InChI=1S/C35H36ClNO3S/c1-34(2,40)30-9-4-3-7-25(30)13-17-32(41-23-35(18-19-35)22-33(38)39)27-8-5-6-24(20-27)10-15-29-16-12-26-11-14-28(36)21-31(26)37-29/h3-12,14-16,20-21,32,40H,13,17-19,22-23H2,1-2H3,(H,38,39)

> <Parent_SMILES>
CC(C)(O)c1ccccc1CC[C@@H](SCC1(CC(=O)O)CC1)c1cccc(/C=C/c2ccc3ccc(Cl)cc3n2)c1

$$$$
Molecule 7_metabolite 34
  CDK     0516241031

 78 82  0  0  0  0  0  0  0  0999 V2000
   14.8927   -8.4503    0.0000 C   0  0  0  0  0  0  0  0  0  0  0  0
   15.6429   -9.7492    0.0000 H   0  0  0  0  0  0  0  0  0  0  0  0
   14.6320   -6.9732    0.0000 H   0  0  0  0  0  0  0  0  0  0  0  0
   16.3022   -7.9371    0.0000 H   0  0  0  0  0  0  0  0  0  0  0  0
   13.3927   -8.4506    0.0000 C   0  0  0  0  0  0  0  0  0  0  0  0
   11.5320   -7.7737    0.0000 C   0  0  0  0  0  0  0  0  0  0  0  0
   11.0210   -4.8784    0.0000 H   0  0  0  0  0  0  0  0  0  0  0  0
   10.0548   -7.5134    0.0000 H   0  0  0  0  0  0  0  0  0  0  0  0
   11.2718   -9.2509    0.0000 H   0  0  0  0  0  0  0  0  0  0  0  0
   12.4030  -10.1655    0.0000 C   0  0  0  0  0  0  0  0  0  0  0  0
   13.1519  -11.4661    0.0000 C   0  0  0  0  0  0  0  0  0  0  0  0
   12.3999  -12.7640    0.0000 C   0  0  0  0  0  0  0  0  0  0  0  0
   13.1477  -14.0643    0.0000 H   0  0  0  0  0  0  0  0  0  0  0  0
   10.8991  -12.7613    0.0000 C   0  0  0  0  0  0  0  0  0  0  0  0
   10.1449  -14.0579    0.0000 H   0  0  0  0  0  0  0  0  0  0  0  0
   10.1589  -11.4656    0.0000 C   0  0  0  0  0  0  0  0  0  0  0  0
    8.6589  -11.4611    0.0000 H   0  0  0  0  0  0  0  0  0  0  0  0
   10.9108  -10.1677    0.0000 C   0  0  0  0  0  0  0  0  0  0  0  0
   10.1608   -8.8687    0.0000 H   0  0  0  0  0  0  0  0  0  0  0  0
   15.6119  -11.4694    0.0000 C   0  0  0  0  0  0  0  0  0  0  0  0
   16.5745  -12.6198    0.0000 H   0  0  0  0  0  0  0  0  0  0  0  0
   14.6461  -12.6172    0.0000 H   0  0  0  0  0  0  0  0  0  0  0  0
   17.7440  -10.2423    0.0000 C   0  0  0  0  0  0  0  0  0  0  0  0
   16.7813   -9.0920    0.0000 H   0  0  0  0  0  0  0  0  0  0  0  0
   18.7097   -9.0946    0.0000 H   0  0  0  0  0  0  0  0  0  0  0  0
   19.4573  -11.2346    0.0000 C   0  0  2  0  0  0  0  0  0  0  0  0
   20.4200  -12.3850    0.0000 H   0  0  0  0  0  0  0  0  0  0  0  0
   20.7574  -10.4864    0.0000 C   0  0  0  0  0  0  0  0  0  0  0  0
   22.0572  -11.2368    0.0000 C   0  0  0  0  0  0  0  0  0  0  0  0
   22.0574  -12.7368    0.0000 H   0  0  0  0  0  0  0  0  0  0  0  0
   23.3560  -10.4864    0.0000 C   0  0  0  0  0  0  0  0  0  0  0  0
   23.3550   -8.9856    0.0000 C   0  0  0  0  0  0  0  0  0  0  0  0
   24.6525   -8.2330    0.0000 H   0  0  0  0  0  0  0  0  0  0  0  0
   22.0602   -8.2438    0.0000 C   0  0  0  0  0  0  0  0  0  0  0  0
   22.0575   -6.7438    0.0000 H   0  0  0  0  0  0  0  0  0  0  0  0
   20.7614   -8.9942    0.0000 C   0  0  0  0  0  0  0  0  0  0  0  0
   19.4633   -8.2427    0.0000 H   0  0  0  0  0  0  0  0  0  0  0  0
   24.6553  -11.2358    0.0000 C   0  0  0  0  0  0  0  0  0  0  0  0
   25.9540  -10.4852    0.0000 H   0  0  0  0  0  0  0  0  0  0  0  0
   24.6561  -12.7358    0.0000 C   0  0  0  0  0  0  0  0  0  0  0  0
   23.3574  -13.4864    0.0000 H   0  0  0  0  0  0  0  0  0  0  0  0
   25.9555  -13.4852    0.0000 C   0  0  0  0  0  0  0  0  0  0  0  0
   25.9564  -14.9860    0.0000 N   0  0  0  0  0  0  0  0  0  0  0  0
   27.2562  -15.7364    0.0000 C   0  0  0  0  0  0  0  0  0  0  0  0
   27.2572  -17.2372    0.0000 C   0  0  0  0  0  0  0  0  0  0  0  0
   25.9584  -17.9877    0.0000 H   0  0  0  0  0  0  0  0  0  0  0  0
   28.5569  -17.9877    0.0000 C   0  0  0  0  0  0  0  0  0  0  0  0
   29.8557  -17.2372    0.0000 C   0  0  0  0  0  0  0  0  0  0  0  0
   31.1551  -17.9866    0.0000 H   0  0  0  0  0  0  0  0  0  0  0  0
   29.8547  -15.7364    0.0000 C   0  0  0  0  0  0  0  0  0  0  0  0
   31.1535  -14.9860    0.0000 H   0  0  0  0  0  0  0  0  0  0  0  0
   28.5550  -14.9860    0.0000 C   0  0  0  0  0  0  0  0  0  0  0  0
   28.5540  -13.4852    0.0000 C   0  0  0  0  0  0  0  0  0  0  0  0
   27.2543  -12.7347    0.0000 C   0  0  0  0  0  0  0  0  0  0  0  0
   27.2540  -11.2347    0.0000 H   0  0  0  0  0  0  0  0  0  0  0  0
   29.8528  -12.7347    0.0000 O   0  0  0  0  0  0  0  0  0  0  0  0
   31.1521  -13.4843    0.0000 H   0  0  0  0  0  0  0  0  0  0  0  0
   28.5572  -19.4877    0.0000 Cl  0  0  0  0  0  0  0  0  0  0  0  0
   18.4916  -12.3824    0.0000 S   0  0  0  0  0  0  0  0  0  0  0  0
   19.1663  -14.2439    0.0000 C   0  0  0  0  0  0  0  0  0  0  0  0
   20.1289  -15.3943    0.0000 H   0  0  0  0  0  0  0  0  0  0  0  0
   20.4663  -13.4957    0.0000 H   0  0  0  0  0  0  0  0  0  0  0  0
   18.2005  -15.3917    0.0000 C   0  0  0  0  0  0  0  0  0  0  0  0
   19.1638  -16.5426    0.0000 C   0  0  0  0  0  0  0  0  0  0  0  0
   19.6745  -17.9530    0.0000 H   0  0  0  0  0  0  0  0  0  0  0  0
   21.2960  -15.3157    0.0000 H   0  0  0  0  0  0  0  0  0  0  0  0
   17.6853  -16.8004    0.0000 C   0  0  0  0  0  0  0  0  0  0  0  0
   16.2085  -16.5375    0.0000 H   0  0  0  0  0  0  0  0  0  0  0  0
   17.6826  -18.3004    0.0000 H   0  0  0  0  0  0  0  0  0  0  0  0
   16.9026  -14.6398    0.0000 C   0  0  0  0  0  0  0  0  0  0  0  0
   17.8685  -13.4921    0.0000 H   0  0  0  0  0  0  0  0  0  0  0  0
   15.9401  -13.4893    0.0000 H   0  0  0  0  0  0  0  0  0  0  0  0
   14.7704  -15.8667    0.0000 C   0  0  0  0  0  0  0  0  0  0  0  0
   13.4724  -15.1148    0.0000 O   0  0  0  0  0  0  0  0  0  0  0  0
   14.7682  -17.3667    0.0000 O   0  0  0  0  0  0  0  0  0  0  0  0
   13.4681  -18.1148    0.0000 H   0  0  0  0  0  0  0  0  0  0  0  0
   13.6530   -6.9733    0.0000 O   0  0  0  0  0  0  0  0  0  0  0  0
   12.5037   -6.0093    0.0000 H   0  0  0  0  0  0  0  0  0  0  0  0
  1  2  1  0  0  0  0 
  1  3  1  0  0  0  0 
  1  4  1  0  0  0  0 
  1  5  1  0  0  0  0 
  5  6  1  0  0  0  0 
  6  7  1  0  0  0  0 
  6  8  1  0  0  0  0 
  6  9  1  0  0  0  0 
  5 10  1  0  0  0  0 
 10 11  2  0  0  0  0 
 11 12  1  0  0  0  0 
 12 13  1  0  0  0  0 
 12 14  2  0  0  0  0 
 14 15  1  0  0  0  0 
 14 16  1  0  0  0  0 
 16 17  1  0  0  0  0 
 16 18  2  0  0  0  0 
 10 18  1  0  0  0  0 
 18 19  1  0  0  0  0 
 11 20  1  0  0  0  0 
 20 21  1  0  0  0  0 
 20 22  1  0  0  0  0 
 20 23  1  0  0  0  0 
 23 24  1  0  0  0  0 
 23 25  1  0  0  0  0 
 23 26  1  0  0  0  0 
 26 27  1  1  0  0  0 
 26 28  1  0  0  0  0 
 28 29  2  0  0  0  0 
 29 30  1  0  0  0  0 
 29 31  1  0  0  0  0 
 31 32  2  0  0  0  0 
 32 33  1  0  0  0  0 
 32 34  1  0  0  0  0 
 34 35  1  0  0  0  0 
 34 36  2  0  0  0  0 
 28 36  1  0  0  0  0 
 36 37  1  0  0  0  0 
 31 38  1  0  0  0  0 
 38 39  1  0  0  0  0 
 38 40  2  0  0  0  0 
 40 41  1  0  0  0  0 
 40 42  1  0  0  0  0 
 42 43  2  0  0  0  0 
 43 44  1  0  0  0  0 
 44 45  2  0  0  0  0 
 45 46  1  0  0  0  0 
 45 47  1  0  0  0  0 
 47 48  2  0  0  0  0 
 48 49  1  0  0  0  0 
 48 50  1  0  0  0  0 
 50 51  1  0  0  0  0 
 50 52  2  0  0  0  0 
 44 52  1  0  0  0  0 
 52 53  1  0  0  0  0 
 53 54  2  0  0  0  0 
 42 54  1  0  0  0  0 
 54 55  1  0  0  0  0 
 53 56  1  0  0  0  0 
 56 57  1  0  0  0  0 
 47 58  1  0  0  0  0 
 26 59  1  6  0  0  0 
 59 60  1  0  0  0  0 
 60 61  1  0  0  0  0 
 60 62  1  0  0  0  0 
 60 63  1  0  0  0  0 
 63 64  1  0  0  0  0 
 64 65  1  0  0  0  0 
 64 66  1  0  0  0  0 
 64 67  1  0  0  0  0 
 63 67  1  0  0  0  0 
 67 68  1  0  0  0  0 
 67 69  1  0  0  0  0 
 63 70  1  0  0  0  0 
 70 71  1  0  0  0  0 
 70 72  1  0  0  0  0 
 70 73  1  0  0  0  0 
 73 74  2  0  0  0  0 
 73 75  1  0  0  0  0 
 75 76  1  0  0  0  0 
  5 77  1  0  0  0  0 
 77 78  1  0  0  0  0 
M  END
> <Rank>
34

> <Priority_score>
0.028

> <Reaction_type>
aromatic hydroxylation

> <Parent_ID>
7

> <Parent_InChI>
InChI=1S/C35H36ClNO3S/c1-34(2,40)30-9-4-3-7-25(30)13-17-32(41-23-35(18-19-35)22-33(38)39)27-8-5-6-24(20-27)10-15-29-16-12-26-11-14-28(36)21-31(26)37-29/h3-12,14-16,20-21,32,40H,13,17-19,22-23H2,1-2H3,(H,38,39)

> <Parent_SMILES>
CC(C)(O)c1ccccc1CC[C@@H](SCC1(CC(=O)O)CC1)c1cccc(/C=C/c2ccc3ccc(Cl)cc3n2)c1

$$$$
Molecule 7_metabolite 35
  CDK     0516241031

 78 81  0  0  0  0  0  0  0  0999 V2000
    2.5229   -9.4617    0.0000 C   0  0  0  0  0  0  0  0  0  0  0  0
    3.0404  -10.8696    0.0000 H   0  0  0  0  0  0  0  0  0  0  0  0
    1.5550   -8.3157    0.0000 H   0  0  0  0  0  0  0  0  0  0  0  0
    1.2262  -10.2158    0.0000 H   0  0  0  0  0  0  0  0  0  0  0  0
    3.4834   -8.3095    0.0000 C   0  0  0  0  0  0  0  0  0  0  0  0
    3.9919   -6.8984    0.0000 C   0  0  0  0  0  0  0  0  0  0  0  0
    5.4683   -6.6332    0.0000 H   0  0  0  0  0  0  0  0  0  0  0  0
    2.5139   -6.6426    0.0000 H   0  0  0  0  0  0  0  0  0  0  0  0
    3.9871   -5.3984    0.0000 H   0  0  0  0  0  0  0  0  0  0  0  0
    5.9073   -8.7290    0.0000 C   0  0  0  0  0  0  0  0  0  0  0  0
    6.4271  -10.1370    0.0000 C   0  0  0  0  0  0  0  0  0  0  0  0
    7.9055  -10.3902    0.0000 C   0  0  0  0  0  0  0  0  0  0  0  0
    8.4256  -11.7972    0.0000 H   0  0  0  0  0  0  0  0  0  0  0  0
    8.8643   -9.2356    0.0000 C   0  0  0  0  0  0  0  0  0  0  0  0
   10.3432   -9.4864    0.0000 H   0  0  0  0  0  0  0  0  0  0  0  0
    8.3429   -7.8374    0.0000 C   0  0  0  0  0  0  0  0  0  0  0  0
    9.2997   -6.6822    0.0000 H   0  0  0  0  0  0  0  0  0  0  0  0
    6.8644   -7.5841    0.0000 C   0  0  0  0  0  0  0  0  0  0  0  0
    6.3467   -6.1763    0.0000 H   0  0  0  0  0  0  0  0  0  0  0  0
    5.4683  -11.2905    0.0000 C   0  0  0  0  0  0  0  0  0  0  0  0
    4.1728  -12.0466    0.0000 H   0  0  0  0  0  0  0  0  0  0  0  0
    4.4987  -10.1460    0.0000 H   0  0  0  0  0  0  0  0  0  0  0  0
    5.9879  -12.6977    0.0000 C   0  0  0  0  0  0  0  0  0  0  0  0
    5.9950  -14.1976    0.0000 H   0  0  0  0  0  0  0  0  0  0  0  0
    4.5120  -12.9651    0.0000 H   0  0  0  0  0  0  0  0  0  0  0  0
    7.4664  -12.9512    0.0000 C   0  0  2  0  0  0  0  0  0  0  0  0
    7.4593  -11.4512    0.0000 H   0  0  0  0  0  0  0  0  0  0  0  0
    6.7979  -14.8149    0.0000 C   0  0  0  0  0  0  0  0  0  0  0  0
    5.3215  -15.0845    0.0000 C   0  0  0  0  0  0  0  0  0  0  0  0
    4.3502  -13.9414    0.0000 H   0  0  0  0  0  0  0  0  0  0  0  0
    4.8175  -16.4973    0.0000 C   0  0  0  0  0  0  0  0  0  0  0  0
    5.7899  -17.6405    0.0000 C   0  0  0  0  0  0  0  0  0  0  0  0
    5.2882  -19.0541    0.0000 H   0  0  0  0  0  0  0  0  0  0  0  0
    7.2569  -17.3676    0.0000 C   0  0  0  0  0  0  0  0  0  0  0  0
    8.2301  -18.5090    0.0000 H   0  0  0  0  0  0  0  0  0  0  0  0
    7.7609  -15.9548    0.0000 C   0  0  0  0  0  0  0  0  0  0  0  0
    9.2368  -15.6871    0.0000 H   0  0  0  0  0  0  0  0  0  0  0  0
    3.3420  -16.7674    0.0000 C   0  0  0  0  0  0  0  0  0  0  0  0
    2.8382  -18.1803    0.0000 H   0  0  0  0  0  0  0  0  0  0  0  0
    2.3703  -15.6247    0.0000 C   0  0  0  0  0  0  0  0  0  0  0  0
    2.8741  -14.2118    0.0000 H   0  0  0  0  0  0  0  0  0  0  0  0
    0.8948  -15.8948    0.0000 C   0  0  0  0  0  0  0  0  0  0  0  0
   -0.0776  -14.7516    0.0000 N   0  0  0  0  0  0  0  0  0  0  0  0
   -1.5540  -15.0211    0.0000 C   0  0  0  0  0  0  0  0  0  0  0  0
   -2.5264  -13.8779    0.0000 C   0  0  0  0  0  0  0  0  0  0  0  0
   -2.0223  -12.4651    0.0000 H   0  0  0  0  0  0  0  0  0  0  0  0
   -4.0028  -14.1475    0.0000 C   0  0  0  0  0  0  0  0  0  0  0  0
   -4.5068  -15.5603    0.0000 C   0  0  0  0  0  0  0  0  0  0  0  0
   -5.9823  -15.8304    0.0000 H   0  0  0  0  0  0  0  0  0  0  0  0
   -3.5344  -16.7035    0.0000 C   0  0  0  0  0  0  0  0  0  0  0  0
   -4.0385  -18.1163    0.0000 H   0  0  0  0  0  0  0  0  0  0  0  0
   -2.0580  -16.4339    0.0000 C   0  0  0  0  0  0  0  0  0  0  0  0
   -1.0856  -17.5771    0.0000 C   0  0  0  0  0  0  0  0  0  0  0  0
   -1.5896  -18.9899    0.0000 H   0  0  0  0  0  0  0  0  0  0  0  0
    0.3908  -17.3076    0.0000 C   0  0  0  0  0  0  0  0  0  0  0  0
    1.3621  -18.4506    0.0000 H   0  0  0  0  0  0  0  0  0  0  0  0
   -4.9741  -13.0044    0.0000 Cl  0  0  0  0  0  0  0  0  0  0  0  0
    8.9423  -12.6838    0.0000 S   0  0  0  0  0  0  0  0  0  0  0  0
    9.9119  -13.8283    0.0000 C   0  0  0  0  0  0  0  0  0  0  0  0
    8.6164  -14.5844    0.0000 H   0  0  0  0  0  0  0  0  0  0  0  0
   10.4316  -15.2354    0.0000 H   0  0  0  0  0  0  0  0  0  0  0  0
   11.3879  -13.5609    0.0000 C   0  0  0  0  0  0  0  0  0  0  0  0
   12.3575  -14.7054    0.0000 C   0  0  0  0  0  0  0  0  0  0  0  0
   11.8511  -16.1173    0.0000 H   0  0  0  0  0  0  0  0  0  0  0  0
   13.8334  -14.4380    0.0000 C   0  0  0  0  0  0  0  0  0  0  0  0
   14.3398  -13.0260    0.0000 O   0  0  0  0  0  0  0  0  0  0  0  0
   14.8030  -15.5825    0.0000 O   0  0  0  0  0  0  0  0  0  0  0  0
   16.2790  -15.3151    0.0000 H   0  0  0  0  0  0  0  0  0  0  0  0
   11.8943  -12.1489    0.0000 C   0  0  0  0  0  0  0  0  0  0  0  0
   10.4159  -11.8954    0.0000 H   0  0  0  0  0  0  0  0  0  0  0  0
   11.8872  -10.6489    0.0000 H   0  0  0  0  0  0  0  0  0  0  0  0
   13.3702  -11.8815    0.0000 C   0  0  0  0  0  0  0  0  0  0  0  0
   14.8487  -12.1350    0.0000 H   0  0  0  0  0  0  0  0  0  0  0  0
   13.3773  -13.3815    0.0000 H   0  0  0  0  0  0  0  0  0  0  0  0
   13.8766  -10.4696    0.0000 O   0  0  0  0  0  0  0  0  0  0  0  0
   15.3526  -10.2022    0.0000 H   0  0  0  0  0  0  0  0  0  0  0  0
    1.3490   -7.0863    0.0000 O   0  0  0  0  0  0  0  0  0  0  0  0
    0.0524   -7.8405    0.0000 H   0  0  0  0  0  0  0  0  0  0  0  0
  1  2  1  0  0  0  0 
  1  3  1  0  0  0  0 
  1  4  1  0  0  0  0 
  1  5  1  0  0  0  0 
  5  6  1  0  0  0  0 
  6  7  1  0  0  0  0 
  6  8  1  0  0  0  0 
  6  9  1  0  0  0  0 
  5 10  1  0  0  0  0 
 10 11  2  0  0  0  0 
 11 12  1  0  0  0  0 
 12 13  1  0  0  0  0 
 12 14  2  0  0  0  0 
 14 15  1  0  0  0  0 
 14 16  1  0  0  0  0 
 16 17  1  0  0  0  0 
 16 18  2  0  0  0  0 
 10 18  1  0  0  0  0 
 18 19  1  0  0  0  0 
 11 20  1  0  0  0  0 
 20 21  1  0  0  0  0 
 20 22  1  0  0  0  0 
 20 23  1  0  0  0  0 
 23 24  1  0  0  0  0 
 23 25  1  0  0  0  0 
 23 26  1  0  0  0  0 
 26 27  1  6  0  0  0 
 26 28  1  0  0  0  0 
 28 29  2  0  0  0  0 
 29 30  1  0  0  0  0 
 29 31  1  0  0  0  0 
 31 32  2  0  0  0  0 
 32 33  1  0  0  0  0 
 32 34  1  0  0  0  0 
 34 35  1  0  0  0  0 
 34 36  2  0  0  0  0 
 28 36  1  0  0  0  0 
 36 37  1  0  0  0  0 
 31 38  1  0  0  0  0 
 38 39  1  0  0  0  0 
 38 40  2  0  0  0  0 
 40 41  1  0  0  0  0 
 40 42  1  0  0  0  0 
 42 43  2  0  0  0  0 
 43 44  1  0  0  0  0 
 44 45  2  0  0  0  0 
 45 46  1  0  0  0  0 
 45 47  1  0  0  0  0 
 47 48  2  0  0  0  0 
 48 49  1  0  0  0  0 
 48 50  1  0  0  0  0 
 50 51  1  0  0  0  0 
 50 52  2  0  0  0  0 
 44 52  1  0  0  0  0 
 52 53  1  0  0  0  0 
 53 54  1  0  0  0  0 
 53 55  2  0  0  0  0 
 42 55  1  0  0  0  0 
 55 56  1  0  0  0  0 
 47 57  1  0  0  0  0 
 26 58  1  1  0  0  0 
 58 59  1  0  0  0  0 
 59 60  1  0  0  0  0 
 59 61  1  0  0  0  0 
 59 62  1  0  0  0  0 
 62 63  2  0  0  0  0 
 63 64  1  4  0  0  0 
 63 65  1  0  0  0  0 
 65 66  2  0  0  0  0 
 65 67  1  0  0  0  0 
 67 68  1  0  0  0  0 
 62 69  1  0  0  0  0 
 69 70  1  0  0  0  0 
 69 71  1  0  0  0  0 
 69 72  1  0  0  0  0 
 72 73  1  0  0  0  0 
 72 74  1  0  0  0  0 
 72 75  1  0  0  0  0 
 75 76  1  0  0  0  0 
  5 77  1  0  0  0  0 
 77 78  1  0  0  0  0 
M  END
> <Rank>
35

> <Priority_score>
0.0208

> <Reaction_type>
hydroxylation of cyclopropane

> <Parent_ID>
7

> <Parent_InChI>
InChI=1S/C35H36ClNO3S/c1-34(2,40)30-9-4-3-7-25(30)13-17-32(41-23-35(18-19-35)22-33(38)39)27-8-5-6-24(20-27)10-15-29-16-12-26-11-14-28(36)21-31(26)37-29/h3-12,14-16,20-21,32,40H,13,17-19,22-23H2,1-2H3,(H,38,39)

> <Parent_SMILES>
CC(C)(O)c1ccccc1CC[C@@H](SCC1(CC(=O)O)CC1)c1cccc(/C=C/c2ccc3ccc(Cl)cc3n2)c1

$$$$
Molecule 7_metabolite 36
  CDK     0516241031

 78 82  0  0  0  0  0  0  0  0999 V2000
   13.4732   -4.6802    0.0000 C   0  0  0  0  0  0  0  0  0  0  0  0
   13.4730   -3.1802    0.0000 H   0  0  0  0  0  0  0  0  0  0  0  0
   13.9865   -6.0897    0.0000 H   0  0  0  0  0  0  0  0  0  0  0  0
   14.9504   -4.4195    0.0000 H   0  0  0  0  0  0  0  0  0  0  0  0
   12.1743   -5.4305    0.0000 C   0  0  0  0  0  0  0  0  0  0  0  0
   10.2245   -5.7746    0.0000 C   0  0  0  0  0  0  0  0  0  0  0  0
    9.2601   -4.6257    0.0000 H   0  0  0  0  0  0  0  0  0  0  0  0
    8.8150   -6.2878    0.0000 H   0  0  0  0  0  0  0  0  0  0  0  0
   10.7377   -7.1840    0.0000 H   0  0  0  0  0  0  0  0  0  0  0  0
   12.1747   -7.8905    0.0000 C   0  0  0  0  0  0  0  0  0  0  0  0
   13.4736   -8.6424    0.0000 C   0  0  0  0  0  0  0  0  0  0  0  0
   13.4713  -10.1424    0.0000 C   0  0  0  0  0  0  0  0  0  0  0  0
   14.7691  -10.8946    0.0000 H   0  0  0  0  0  0  0  0  0  0  0  0
   12.1702  -10.8905    0.0000 C   0  0  0  0  0  0  0  0  0  0  0  0
   12.1654  -12.3904    0.0000 H   0  0  0  0  0  0  0  0  0  0  0  0
   10.8813  -10.1385    0.0000 C   0  0  0  0  0  0  0  0  0  0  0  0
    9.5800  -10.8846    0.0000 H   0  0  0  0  0  0  0  0  0  0  0  0
   10.8836   -8.6385    0.0000 C   0  0  0  0  0  0  0  0  0  0  0  0
    9.5845   -7.8885    0.0000 H   0  0  0  0  0  0  0  0  0  0  0  0
   15.6057   -7.4153    0.0000 C   0  0  0  0  0  0  0  0  0  0  0  0
   17.0832   -7.1568    0.0000 H   0  0  0  0  0  0  0  0  0  0  0  0
   16.1168   -8.8255    0.0000 H   0  0  0  0  0  0  0  0  0  0  0  0
   15.6090   -4.9553    0.0000 C   0  0  0  0  0  0  0  0  0  0  0  0
   14.1314   -5.2138    0.0000 H   0  0  0  0  0  0  0  0  0  0  0  0
   17.3251   -3.9676    0.0000 C   0  0  2  0  0  0  0  0  0  0  0  0
   18.8026   -3.7092    0.0000 H   0  0  0  0  0  0  0  0  0  0  0  0
   17.3278   -1.9876    0.0000 C   0  0  0  0  0  0  0  0  0  0  0  0
   18.6275   -1.2372    0.0000 C   0  0  0  0  0  0  0  0  0  0  0  0
   19.9267   -1.9870    0.0000 H   0  0  0  0  0  0  0  0  0  0  0  0
   18.6270    0.2628    0.0000 C   0  0  0  0  0  0  0  0  0  0  0  0
   17.3268    1.0124    0.0000 C   0  0  0  0  0  0  0  0  0  0  0  0
   17.3238    2.5124    0.0000 H   0  0  0  0  0  0  0  0  0  0  0  0
   16.0370    0.2620    0.0000 C   0  0  0  0  0  0  0  0  0  0  0  0
   14.7366    1.0096    0.0000 H   0  0  0  0  0  0  0  0  0  0  0  0
   16.0375   -1.2380    0.0000 C   0  0  0  0  0  0  0  0  0  0  0  0
   14.7376   -1.9865    0.0000 H   0  0  0  0  0  0  0  0  0  0  0  0
   19.9257    1.0134    0.0000 C   0  0  0  0  0  0  0  0  0  0  0  0
   19.9250    2.5134    0.0000 H   0  0  0  0  0  0  0  0  0  0  0  0
   21.2251    0.2640    0.0000 C   0  0  0  0  0  0  0  0  0  0  0  0
   21.2258   -1.2360    0.0000 H   0  0  0  0  0  0  0  0  0  0  0  0
   22.5238    1.0147    0.0000 C   0  0  0  0  0  0  0  0  0  0  0  0
   23.8240    0.2651    0.0000 N   0  0  0  0  0  0  0  0  0  0  0  0
   25.1238    1.0155    0.0000 C   0  0  0  0  0  0  0  0  0  0  0  0
   26.4240    0.2659    0.0000 C   0  0  0  0  0  0  0  0  0  0  0  0
   26.4245   -1.2341    0.0000 H   0  0  0  0  0  0  0  0  0  0  0  0
   27.7238    1.0163    0.0000 C   0  0  0  0  0  0  0  0  0  0  0  0
   27.7233    2.5163    0.0000 C   0  0  0  0  0  0  0  0  0  0  0  0
   29.0220    3.2669    0.0000 H   0  0  0  0  0  0  0  0  0  0  0  0
   26.4231    3.2659    0.0000 C   0  0  0  0  0  0  0  0  0  0  0  0
   26.4226    4.7659    0.0000 H   0  0  0  0  0  0  0  0  0  0  0  0
   25.1233    2.5155    0.0000 C   0  0  0  0  0  0  0  0  0  0  0  0
   23.8231    3.2651    0.0000 C   0  0  0  0  0  0  0  0  0  0  0  0
   23.8226    4.7651    0.0000 H   0  0  0  0  0  0  0  0  0  0  0  0
   22.5233    2.5147    0.0000 C   0  0  0  0  0  0  0  0  0  0  0  0
   21.2241    3.2644    0.0000 H   0  0  0  0  0  0  0  0  0  0  0  0
   29.0229    0.2665    0.0000 Cl  0  0  0  0  0  0  0  0  0  0  0  0
   17.8362   -5.3779    0.0000 S   0  0  0  0  0  0  0  0  0  0  0  0
   19.7856   -5.7243    0.0000 C   0  0  0  0  0  0  0  0  0  0  0  0
   21.2632   -5.4659    0.0000 H   0  0  0  0  0  0  0  0  0  0  0  0
   19.7877   -4.2243    0.0000 H   0  0  0  0  0  0  0  0  0  0  0  0
   20.2968   -7.1346    0.0000 C   0  0  0  0  0  0  0  0  0  0  0  0
   21.7751   -6.8758    0.0000 C   0  0  0  0  0  0  0  0  0  0  0  0
   23.2519   -7.1387    0.0000 H   0  0  0  0  0  0  0  0  0  0  0  0
   21.7787   -4.4158    0.0000 H   0  0  0  0  0  0  0  0  0  0  0  0
   21.2591   -8.2851    0.0000 C   0  0  0  0  0  0  0  0  0  0  0  0
   20.2930   -9.4326    0.0000 H   0  0  0  0  0  0  0  0  0  0  0  0
   22.5568   -9.0375    0.0000 H   0  0  0  0  0  0  0  0  0  0  0  0
   18.9966   -7.8827    0.0000 C   0  0  0  0  0  0  0  0  0  0  0  0
   18.4857   -6.4724    0.0000 H   0  0  0  0  0  0  0  0  0  0  0  0
   17.5190   -8.1410    0.0000 H   0  0  0  0  0  0  0  0  0  0  0  0
   18.9930  -10.3427    0.0000 C   0  0  0  0  0  0  0  0  0  0  0  0
   17.6929  -11.0908    0.0000 O   0  0  0  0  0  0  0  0  0  0  0  0
   20.2910  -11.0946    0.0000 O   0  0  0  0  0  0  0  0  0  0  0  0
   20.2888  -12.5946    0.0000 H   0  0  0  0  0  0  0  0  0  0  0  0
   15.0979   -3.5451    0.0000 O   0  0  0  0  0  0  0  0  0  0  0  0
   16.0636   -2.3973    0.0000 H   0  0  0  0  0  0  0  0  0  0  0  0
   11.6611   -4.0210    0.0000 O   0  0  0  0  0  0  0  0  0  0  0  0
   12.6251   -2.8718    0.0000 H   0  0  0  0  0  0  0  0  0  0  0  0
  1  2  1  0  0  0  0 
  1  3  1  0  0  0  0 
  1  4  1  0  0  0  0 
  1  5  1  0  0  0  0 
  5  6  1  0  0  0  0 
  6  7  1  0  0  0  0 
  6  8  1  0  0  0  0 
  6  9  1  0  0  0  0 
  5 10  1  0  0  0  0 
 10 11  2  0  0  0  0 
 11 12  1  0  0  0  0 
 12 13  1  0  0  0  0 
 12 14  2  0  0  0  0 
 14 15  1  0  0  0  0 
 14 16  1  0  0  0  0 
 16 17  1  0  0  0  0 
 16 18  2  0  0  0  0 
 10 18  1  0  0  0  0 
 18 19  1  0  0  0  0 
 11 20  1  0  0  0  0 
 20 21  1  0  0  0  0 
 20 22  1  0  0  0  0 
 20 23  1  0  0  0  0 
 23 24  1  0  0  0  0 
 23 25  1  0  0  0  0 
 25 26  1  1  0  0  0 
 25 27  1  0  0  0  0 
 27 28  2  0  0  0  0 
 28 29  1  0  0  0  0 
 28 30  1  0  0  0  0 
 30 31  2  0  0  0  0 
 31 32  1  0  0  0  0 
 31 33  1  0  0  0  0 
 33 34  1  0  0  0  0 
 33 35  2  0  0  0  0 
 27 35  1  0  0  0  0 
 35 36  1  0  0  0  0 
 30 37  1  0  0  0  0 
 37 38  1  0  0  0  0 
 37 39  2  0  0  0  0 
 39 40  1  0  0  0  0 
 39 41  1  0  0  0  0 
 41 42  2  0  0  0  0 
 42 43  1  0  0  0  0 
 43 44  2  0  0  0  0 
 44 45  1  0  0  0  0 
 44 46  1  0  0  0  0 
 46 47  2  0  0  0  0 
 47 48  1  0  0  0  0 
 47 49  1  0  0  0  0 
 49 50  1  0  0  0  0 
 49 51  2  0  0  0  0 
 43 51  1  0  0  0  0 
 51 52  1  0  0  0  0 
 52 53  1  0  0  0  0 
 52 54  2  0  0  0  0 
 41 54  1  0  0  0  0 
 54 55  1  0  0  0  0 
 46 56  1  0  0  0  0 
 25 57  1  6  0  0  0 
 57 58  1  0  0  0  0 
 58 59  1  0  0  0  0 
 58 60  1  0  0  0  0 
 58 61  1  0  0  0  0 
 61 62  1  0  0  0  0 
 62 63  1  0  0  0  0 
 62 64  1  0  0  0  0 
 62 65  1  0  0  0  0 
 61 65  1  0  0  0  0 
 65 66  1  0  0  0  0 
 65 67  1  0  0  0  0 
 61 68  1  0  0  0  0 
 68 69  1  0  0  0  0 
 68 70  1  0  0  0  0 
 68 71  1  0  0  0  0 
 71 72  2  0  0  0  0 
 71 73  1  0  0  0  0 
 73 74  1  0  0  0  0 
 23 75  1  0  0  0  0 
 75 76  1  0  0  0  0 
  5 77  1  0  0  0  0 
 77 78  1  0  0  0  0 
M  END
> <Rank>
36

> <Priority_score>
0.02

> <Reaction_type>
aliphatic hydroxylation

> <Parent_ID>
7

> <Parent_InChI>
InChI=1S/C35H36ClNO3S/c1-34(2,40)30-9-4-3-7-25(30)13-17-32(41-23-35(18-19-35)22-33(38)39)27-8-5-6-24(20-27)10-15-29-16-12-26-11-14-28(36)21-31(26)37-29/h3-12,14-16,20-21,32,40H,13,17-19,22-23H2,1-2H3,(H,38,39)

> <Parent_SMILES>
CC(C)(O)c1ccccc1CC[C@@H](SCC1(CC(=O)O)CC1)c1cccc(/C=C/c2ccc3ccc(Cl)cc3n2)c1

$$$$
Molecule 7_metabolite 37
  CDK     0516241031

 78 82  0  0  0  0  0  0  0  0999 V2000
   14.8927   -8.4503    0.0000 C   0  0  0  0  0  0  0  0  0  0  0  0
   15.6429   -9.7492    0.0000 H   0  0  0  0  0  0  0  0  0  0  0  0
   14.6320   -6.9732    0.0000 H   0  0  0  0  0  0  0  0  0  0  0  0
   16.3022   -7.9371    0.0000 H   0  0  0  0  0  0  0  0  0  0  0  0
   13.3927   -8.4506    0.0000 C   0  0  0  0  0  0  0  0  0  0  0  0
   11.5320   -7.7737    0.0000 C   0  0  0  0  0  0  0  0  0  0  0  0
   11.0210   -4.8784    0.0000 H   0  0  0  0  0  0  0  0  0  0  0  0
   10.0548   -7.5134    0.0000 H   0  0  0  0  0  0  0  0  0  0  0  0
   11.2718   -9.2509    0.0000 H   0  0  0  0  0  0  0  0  0  0  0  0
   12.4030  -10.1655    0.0000 C   0  0  0  0  0  0  0  0  0  0  0  0
   13.1519  -11.4661    0.0000 C   0  0  0  0  0  0  0  0  0  0  0  0
   12.3999  -12.7640    0.0000 C   0  0  0  0  0  0  0  0  0  0  0  0
   13.1477  -14.0643    0.0000 H   0  0  0  0  0  0  0  0  0  0  0  0
   10.8991  -12.7613    0.0000 C   0  0  0  0  0  0  0  0  0  0  0  0
   10.1449  -14.0579    0.0000 H   0  0  0  0  0  0  0  0  0  0  0  0
   10.1589  -11.4656    0.0000 C   0  0  0  0  0  0  0  0  0  0  0  0
    8.6589  -11.4611    0.0000 H   0  0  0  0  0  0  0  0  0  0  0  0
   10.9108  -10.1677    0.0000 C   0  0  0  0  0  0  0  0  0  0  0  0
   10.1608   -8.8687    0.0000 H   0  0  0  0  0  0  0  0  0  0  0  0
   15.6119  -11.4694    0.0000 C   0  0  0  0  0  0  0  0  0  0  0  0
   16.5745  -12.6198    0.0000 H   0  0  0  0  0  0  0  0  0  0  0  0
   14.6461  -12.6172    0.0000 H   0  0  0  0  0  0  0  0  0  0  0  0
   17.7440  -10.2423    0.0000 C   0  0  0  0  0  0  0  0  0  0  0  0
   16.7813   -9.0920    0.0000 H   0  0  0  0  0  0  0  0  0  0  0  0
   18.7097   -9.0946    0.0000 H   0  0  0  0  0  0  0  0  0  0  0  0
   19.4573  -11.2346    0.0000 C   0  0  2  0  0  0  0  0  0  0  0  0
   20.4200  -12.3850    0.0000 H   0  0  0  0  0  0  0  0  0  0  0  0
   20.7574  -10.4864    0.0000 C   0  0  0  0  0  0  0  0  0  0  0  0
   22.0572  -11.2368    0.0000 C   0  0  0  0  0  0  0  0  0  0  0  0
   22.0574  -12.7368    0.0000 H   0  0  0  0  0  0  0  0  0  0  0  0
   23.3560  -10.4864    0.0000 C   0  0  0  0  0  0  0  0  0  0  0  0
   23.3550   -8.9856    0.0000 C   0  0  0  0  0  0  0  0  0  0  0  0
   24.6525   -8.2330    0.0000 H   0  0  0  0  0  0  0  0  0  0  0  0
   22.0602   -8.2438    0.0000 C   0  0  0  0  0  0  0  0  0  0  0  0
   22.0575   -6.7438    0.0000 H   0  0  0  0  0  0  0  0  0  0  0  0
   20.7614   -8.9942    0.0000 C   0  0  0  0  0  0  0  0  0  0  0  0
   19.4633   -8.2427    0.0000 H   0  0  0  0  0  0  0  0  0  0  0  0
   24.6553  -11.2358    0.0000 C   0  0  0  0  0  0  0  0  0  0  0  0
   25.9540  -10.4852    0.0000 H   0  0  0  0  0  0  0  0  0  0  0  0
   24.6561  -12.7358    0.0000 C   0  0  0  0  0  0  0  0  0  0  0  0
   23.3574  -13.4864    0.0000 H   0  0  0  0  0  0  0  0  0  0  0  0
   25.9555  -13.4852    0.0000 C   0  0  0  0  0  0  0  0  0  0  0  0
   27.2543  -12.7347    0.0000 C   0  0  0  0  0  0  0  0  0  0  0  0
   27.2540  -11.2347    0.0000 H   0  0  0  0  0  0  0  0  0  0  0  0
   28.5540  -13.4852    0.0000 C   0  0  0  0  0  0  0  0  0  0  0  0
   29.8528  -12.7347    0.0000 H   0  0  0  0  0  0  0  0  0  0  0  0
   28.5550  -14.9860    0.0000 C   0  0  0  0  0  0  0  0  0  0  0  0
   29.8547  -15.7364    0.0000 C   0  0  0  0  0  0  0  0  0  0  0  0
   31.1535  -14.9860    0.0000 H   0  0  0  0  0  0  0  0  0  0  0  0
   29.8557  -17.2372    0.0000 C   0  0  0  0  0  0  0  0  0  0  0  0
   31.1551  -17.9866    0.0000 H   0  0  0  0  0  0  0  0  0  0  0  0
   28.5569  -17.9877    0.0000 C   0  0  0  0  0  0  0  0  0  0  0  0
   27.2572  -17.2372    0.0000 C   0  0  0  0  0  0  0  0  0  0  0  0
   25.9584  -17.9877    0.0000 H   0  0  0  0  0  0  0  0  0  0  0  0
   27.2562  -15.7364    0.0000 C   0  0  0  0  0  0  0  0  0  0  0  0
   25.9564  -14.9860    0.0000 N   0  0  0  0  0  0  0  0  0  0  0  0
   28.5572  -19.4877    0.0000 O   0  0  0  0  0  0  0  0  0  0  0  0
   29.8563  -20.2374    0.0000 H   0  0  0  0  0  0  0  0  0  0  0  0
   18.4916  -12.3824    0.0000 S   0  0  0  0  0  0  0  0  0  0  0  0
   19.1663  -14.2439    0.0000 C   0  0  0  0  0  0  0  0  0  0  0  0
   20.1289  -15.3943    0.0000 H   0  0  0  0  0  0  0  0  0  0  0  0
   20.4663  -13.4957    0.0000 H   0  0  0  0  0  0  0  0  0  0  0  0
   18.2005  -15.3917    0.0000 C   0  0  0  0  0  0  0  0  0  0  0  0
   19.1638  -16.5426    0.0000 C   0  0  0  0  0  0  0  0  0  0  0  0
   19.6745  -17.9530    0.0000 H   0  0  0  0  0  0  0  0  0  0  0  0
   21.2960  -15.3157    0.0000 H   0  0  0  0  0  0  0  0  0  0  0  0
   17.6853  -16.8004    0.0000 C   0  0  0  0  0  0  0  0  0  0  0  0
   16.2085  -16.5375    0.0000 H   0  0  0  0  0  0  0  0  0  0  0  0
   17.6826  -18.3004    0.0000 H   0  0  0  0  0  0  0  0  0  0  0  0
   16.9026  -14.6398    0.0000 C   0  0  0  0  0  0  0  0  0  0  0  0
   17.8685  -13.4921    0.0000 H   0  0  0  0  0  0  0  0  0  0  0  0
   15.9401  -13.4893    0.0000 H   0  0  0  0  0  0  0  0  0  0  0  0
   14.7704  -15.8667    0.0000 C   0  0  0  0  0  0  0  0  0  0  0  0
   13.4724  -15.1148    0.0000 O   0  0  0  0  0  0  0  0  0  0  0  0
   14.7682  -17.3667    0.0000 O   0  0  0  0  0  0  0  0  0  0  0  0
   13.4681  -18.1148    0.0000 H   0  0  0  0  0  0  0  0  0  0  0  0
   13.6530   -6.9733    0.0000 O   0  0  0  0  0  0  0  0  0  0  0  0
   12.5037   -6.0093    0.0000 H   0  0  0  0  0  0  0  0  0  0  0  0
  1  2  1  0  0  0  0 
  1  3  1  0  0  0  0 
  1  4  1  0  0  0  0 
  1  5  1  0  0  0  0 
  5  6  1  0  0  0  0 
  6  7  1  0  0  0  0 
  6  8  1  0  0  0  0 
  6  9  1  0  0  0  0 
  5 10  1  0  0  0  0 
 10 11  2  0  0  0  0 
 11 12  1  0  0  0  0 
 12 13  1  0  0  0  0 
 12 14  2  0  0  0  0 
 14 15  1  0  0  0  0 
 14 16  1  0  0  0  0 
 16 17  1  0  0  0  0 
 16 18  2  0  0  0  0 
 10 18  1  0  0  0  0 
 18 19  1  0  0  0  0 
 11 20  1  0  0  0  0 
 20 21  1  0  0  0  0 
 20 22  1  0  0  0  0 
 20 23  1  0  0  0  0 
 23 24  1  0  0  0  0 
 23 25  1  0  0  0  0 
 23 26  1  0  0  0  0 
 26 27  1  1  0  0  0 
 26 28  1  0  0  0  0 
 28 29  2  0  0  0  0 
 29 30  1  0  0  0  0 
 29 31  1  0  0  0  0 
 31 32  2  0  0  0  0 
 32 33  1  0  0  0  0 
 32 34  1  0  0  0  0 
 34 35  1  0  0  0  0 
 34 36  2  0  0  0  0 
 28 36  1  0  0  0  0 
 36 37  1  0  0  0  0 
 31 38  1  0  0  0  0 
 38 39  1  0  0  0  0 
 38 40  2  0  0  0  0 
 40 41  1  0  0  0  0 
 40 42  1  0  0  0  0 
 42 43  2  0  0  0  0 
 43 44  1  0  0  0  0 
 43 45  1  0  0  0  0 
 45 46  1  0  0  0  0 
 45 47  2  0  0  0  0 
 47 48  1  0  0  0  0 
 48 49  1  0  0  0  0 
 48 50  2  0  0  0  0 
 50 51  1  0  0  0  0 
 50 52  1  0  0  0  0 
 52 53  2  0  0  0  0 
 53 54  1  0  0  0  0 
 53 55  1  0  0  0  0 
 47 55  1  0  0  0  0 
 55 56  2  0  0  0  0 
 42 56  1  0  0  0  0 
 52 57  1  0  0  0  0 
 57 58  1  0  0  0  0 
 26 59  1  6  0  0  0 
 59 60  1  0  0  0  0 
 60 61  1  0  0  0  0 
 60 62  1  0  0  0  0 
 60 63  1  0  0  0  0 
 63 64  1  0  0  0  0 
 64 65  1  0  0  0  0 
 64 66  1  0  0  0  0 
 64 67  1  0  0  0  0 
 63 67  1  0  0  0  0 
 67 68  1  0  0  0  0 
 67 69  1  0  0  0  0 
 63 70  1  0  0  0  0 
 70 71  1  0  0  0  0 
 70 72  1  0  0  0  0 
 70 73  1  0  0  0  0 
 73 74  2  0  0  0  0 
 73 75  1  0  0  0  0 
 75 76  1  0  0  0  0 
  5 77  1  0  0  0  0 
 77 78  1  0  0  0  0 
M  END
> <Rank>
37

> <Priority_score>
0.0184

> <Reaction_type>
oxidative dehalogenation benzyl

> <Parent_ID>
7

> <Parent_InChI>
InChI=1S/C35H36ClNO3S/c1-34(2,40)30-9-4-3-7-25(30)13-17-32(41-23-35(18-19-35)22-33(38)39)27-8-5-6-24(20-27)10-15-29-16-12-26-11-14-28(36)21-31(26)37-29/h3-12,14-16,20-21,32,40H,13,17-19,22-23H2,1-2H3,(H,38,39)

> <Parent_SMILES>
CC(C)(O)c1ccccc1CC[C@@H](SCC1(CC(=O)O)CC1)c1cccc(/C=C/c2ccc3ccc(Cl)cc3n2)c1

$$$$
Molecule 7_metabolite 38
  CDK     0516241031

112116  0  0  0  0  0  0  0  0999 V2000
   17.7584   -4.2620    0.0000 C   0  0  0  0  0  0  0  0  0  0  0  0
   17.2542   -5.6747    0.0000 H   0  0  0  0  0  0  0  0  0  0  0  0
   18.7155   -3.1070    0.0000 H   0  0  0  0  0  0  0  0  0  0  0  0
   19.0621   -5.0039    0.0000 H   0  0  0  0  0  0  0  0  0  0  0  0
   16.7871   -3.1190    0.0000 C   0  0  0  0  0  0  0  0  0  0  0  0
   15.7644   -0.3626    0.0000 C   0  0  0  0  0  0  0  0  0  0  0  0
   14.2856   -0.1113    0.0000 H   0  0  0  0  0  0  0  0  0  0  0  0
   15.7551    1.1374    0.0000 H   0  0  0  0  0  0  0  0  0  0  0  0
   17.2400   -0.0929    0.0000 H   0  0  0  0  0  0  0  0  0  0  0  0
   13.8950   -3.6475    0.0000 C   0  0  0  0  0  0  0  0  0  0  0  0
   13.3886   -5.0603    0.0000 C   0  0  0  0  0  0  0  0  0  0  0  0
   11.9126   -5.3275    0.0000 C   0  0  0  0  0  0  0  0  0  0  0  0
   11.4057   -6.7392    0.0000 H   0  0  0  0  0  0  0  0  0  0  0  0
   10.9430   -4.1818    0.0000 C   0  0  0  0  0  0  0  0  0  0  0  0
    9.4665   -4.4466    0.0000 H   0  0  0  0  0  0  0  0  0  0  0  0
   11.4512   -2.7789    0.0000 C   0  0  0  0  0  0  0  0  0  0  0  0
   10.4836   -1.6327    0.0000 H   0  0  0  0  0  0  0  0  0  0  0  0
   12.9272   -2.5117    0.0000 C   0  0  0  0  0  0  0  0  0  0  0  0
   13.4317   -1.0991    0.0000 H   0  0  0  0  0  0  0  0  0  0  0  0
   14.3581   -6.2048    0.0000 C   0  0  0  0  0  0  0  0  0  0  0  0
   15.6607   -6.9487    0.0000 H   0  0  0  0  0  0  0  0  0  0  0  0
   16.2373   -3.9438    0.0000 H   0  0  0  0  0  0  0  0  0  0  0  0
   13.3656   -8.9722    0.0000 C   0  0  0  0  0  0  0  0  0  0  0  0
   14.8440   -9.2257    0.0000 H   0  0  0  0  0  0  0  0  0  0  0  0
   13.3727  -10.4722    0.0000 H   0  0  0  0  0  0  0  0  0  0  0  0
   11.8896   -9.2396    0.0000 C   0  0  2  0  0  0  0  0  0  0  0  0
   10.4112   -8.9861    0.0000 H   0  0  0  0  0  0  0  0  0  0  0  0
   11.2212  -11.1034    0.0000 C   0  0  0  0  0  0  0  0  0  0  0  0
    9.7448  -11.3729    0.0000 C   0  0  0  0  0  0  0  0  0  0  0  0
    8.7735  -10.2299    0.0000 H   0  0  0  0  0  0  0  0  0  0  0  0
    9.2407  -12.7857    0.0000 C   0  0  0  0  0  0  0  0  0  0  0  0
   10.2131  -13.9289    0.0000 C   0  0  0  0  0  0  0  0  0  0  0  0
    9.7115  -15.3426    0.0000 H   0  0  0  0  0  0  0  0  0  0  0  0
   11.6801  -13.6560    0.0000 C   0  0  0  0  0  0  0  0  0  0  0  0
   12.6534  -14.7974    0.0000 H   0  0  0  0  0  0  0  0  0  0  0  0
   12.1842  -12.2432    0.0000 C   0  0  0  0  0  0  0  0  0  0  0  0
   13.6601  -11.9756    0.0000 H   0  0  0  0  0  0  0  0  0  0  0  0
    7.7653  -13.0558    0.0000 C   0  0  0  0  0  0  0  0  0  0  0  0
    7.2615  -14.4687    0.0000 H   0  0  0  0  0  0  0  0  0  0  0  0
    6.7936  -11.9131    0.0000 C   0  0  0  0  0  0  0  0  0  0  0  0
    7.2974  -10.5002    0.0000 H   0  0  0  0  0  0  0  0  0  0  0  0
    5.3181  -12.1832    0.0000 C   0  0  0  0  0  0  0  0  0  0  0  0
    4.8141  -13.5960    0.0000 C   0  0  0  0  0  0  0  0  0  0  0  0
    5.7854  -14.7391    0.0000 H   0  0  0  0  0  0  0  0  0  0  0  0
    3.3377  -13.8656    0.0000 C   0  0  0  0  0  0  0  0  0  0  0  0
    2.8336  -15.2784    0.0000 H   0  0  0  0  0  0  0  0  0  0  0  0
    2.3653  -12.7224    0.0000 C   0  0  0  0  0  0  0  0  0  0  0  0
    0.8888  -12.9919    0.0000 C   0  0  0  0  0  0  0  0  0  0  0  0
    0.3848  -14.4047    0.0000 H   0  0  0  0  0  0  0  0  0  0  0  0
   -0.0836  -11.8487    0.0000 C   0  0  0  0  0  0  0  0  0  0  0  0
   -1.5590  -12.1188    0.0000 H   0  0  0  0  0  0  0  0  0  0  0  0
    0.4205  -10.4359    0.0000 C   0  0  0  0  0  0  0  0  0  0  0  0
    1.8969  -10.1664    0.0000 C   0  0  0  0  0  0  0  0  0  0  0  0
    2.4009   -8.7536    0.0000 H   0  0  0  0  0  0  0  0  0  0  0  0
    2.8693  -11.3096    0.0000 C   0  0  0  0  0  0  0  0  0  0  0  0
    4.3457  -11.0400    0.0000 N   0  0  0  0  0  0  0  0  0  0  0  0
   -0.5508   -9.2929    0.0000 S   0  0  0  0  0  0  0  0  0  0  0  0
   -2.0264   -9.5625    0.0000 C   0  0  0  0  0  0  0  0  0  0  0  0
   -1.5046  -10.9688    0.0000 H   0  0  0  0  0  0  0  0  0  0  0  0
   -3.3207  -10.3206    0.0000 H   0  0  0  0  0  0  0  0  0  0  0  0
   -2.9977   -8.4195    0.0000 C   0  0  0  0  0  0  0  0  0  0  0  0
   -3.5195   -7.0132    0.0000 H   0  0  0  0  0  0  0  0  0  0  0  0
   -1.7034   -7.6614    0.0000 C   0  0  0  0  0  0  0  0  0  0  0  0
   -0.3997   -8.4033    0.0000 O   0  0  0  0  0  0  0  0  0  0  0  0
   -1.7127   -6.1614    0.0000 N   0  0  0  0  0  0  0  0  0  0  0  0
   -3.0164   -5.4195    0.0000 H   0  0  0  0  0  0  0  0  0  0  0  0
   -0.4183   -5.4034    0.0000 C   0  0  0  0  0  0  0  0  0  0  0  0
    1.0572   -5.1337    0.0000 H   0  0  0  0  0  0  0  0  0  0  0  0
    0.1035   -6.8097    0.0000 H   0  0  0  0  0  0  0  0  0  0  0  0
   -0.4277   -3.9034    0.0000 C   0  0  0  0  0  0  0  0  0  0  0  0
   -1.7313   -3.1615    0.0000 O   0  0  0  0  0  0  0  0  0  0  0  0
    0.8667   -3.1453    0.0000 O   0  0  0  0  0  0  0  0  0  0  0  0
    0.8574   -1.6454    0.0000 H   0  0  0  0  0  0  0  0  0  0  0  0
   -4.4733   -8.6891    0.0000 N   0  0  0  0  0  0  0  0  0  0  0  0
   -4.9775  -10.1018    0.0000 H   0  0  0  0  0  0  0  0  0  0  0  0
   -5.4446   -7.5461    0.0000 C   0  0  0  0  0  0  0  0  0  0  0  0
   -4.9403   -6.1334    0.0000 O   0  0  0  0  0  0  0  0  0  0  0  0
   -6.9201   -7.8157    0.0000 C   0  0  0  0  0  0  0  0  0  0  0  0
   -6.3984   -9.2220    0.0000 H   0  0  0  0  0  0  0  0  0  0  0  0
   -8.2145   -8.5738    0.0000 H   0  0  0  0  0  0  0  0  0  0  0  0
   -8.8239   -5.5753    0.0000 C   0  0  0  0  0  0  0  0  0  0  0  0
   -9.3457   -4.1690    0.0000 H   0  0  0  0  0  0  0  0  0  0  0  0
   -7.5296   -4.8173    0.0000 H   0  0  0  0  0  0  0  0  0  0  0  0
  -10.2995   -5.8450    0.0000 C   0  0  0  0  0  0  0  0  0  0  0  0
   -9.7777   -7.2513    0.0000 H   0  0  0  0  0  0  0  0  0  0  0  0
  -11.2708   -4.7019    0.0000 C   0  0  0  0  0  0  0  0  0  0  0  0
  -10.7665   -3.2892    0.0000 O   0  0  0  0  0  0  0  0  0  0  0  0
  -12.7463   -4.9716    0.0000 O   0  0  0  0  0  0  0  0  0  0  0  0
  -13.7176   -3.8286    0.0000 H   0  0  0  0  0  0  0  0  0  0  0  0
  -11.5938   -6.6031    0.0000 N   0  0  0  0  0  0  0  0  0  0  0  0
  -12.8975   -5.8612    0.0000 H   0  0  0  0  0  0  0  0  0  0  0  0
  -11.5845   -8.1030    0.0000 H   0  0  0  0  0  0  0  0  0  0  0  0
   12.6335   -7.9371    0.0000 S   0  0  0  0  0  0  0  0  0  0  0  0
   15.5735   -7.9232    0.0000 C   0  0  0  0  0  0  0  0  0  0  0  0
   16.9806   -7.4036    0.0000 H   0  0  0  0  0  0  0  0  0  0  0  0
   15.0494   -5.0303    0.0000 H   0  0  0  0  0  0  0  0  0  0  0  0
   17.0555  -10.4624    0.0000 C   0  0  0  0  0  0  0  0  0  0  0  0
   15.9102  -11.4324    0.0000 C   0  0  0  0  0  0  0  0  0  0  0  0
   15.1667  -12.7352    0.0000 H   0  0  0  0  0  0  0  0  0  0  0  0
   14.9405  -10.2880    0.0000 H   0  0  0  0  0  0  0  0  0  0  0  0
   17.3232  -11.9383    0.0000 C   0  0  0  0  0  0  0  0  0  0  0  0
   18.8232  -11.9308    0.0000 H   0  0  0  0  0  0  0  0  0  0  0  0
   17.0703  -13.4169    0.0000 H   0  0  0  0  0  0  0  0  0  0  0  0
   18.4625   -9.9426    0.0000 C   0  0  0  0  0  0  0  0  0  0  0  0
   17.7063   -8.6472    0.0000 H   0  0  0  0  0  0  0  0  0  0  0  0
   19.6069   -8.9729    0.0000 H   0  0  0  0  0  0  0  0  0  0  0  0
   20.3546  -11.5148    0.0000 C   0  0  0  0  0  0  0  0  0  0  0  0
   21.7616  -10.9950    0.0000 O   0  0  0  0  0  0  0  0  0  0  0  0
   20.1012  -12.9932    0.0000 O   0  0  0  0  0  0  0  0  0  0  0  0
   21.2549  -13.9519    0.0000 H   0  0  0  0  0  0  0  0  0  0  0  0
   18.9099   -1.8757    0.0000 O   0  0  0  0  0  0  0  0  0  0  0  0
   20.2135   -2.6177    0.0000 H   0  0  0  0  0  0  0  0  0  0  0  0
  1  2  1  0  0  0  0 
  1  3  1  0  0  0  0 
  1  4  1  0  0  0  0 
  1  5  1  0  0  0  0 
  5  6  1  0  0  0  0 
  6  7  1  0  0  0  0 
  6  8  1  0  0  0  0 
  6  9  1  0  0  0  0 
  5 10  1  0  0  0  0 
 10 11  2  0  0  0  0 
 11 12  1  0  0  0  0 
 12 13  1  0  0  0  0 
 12 14  2  0  0  0  0 
 14 15  1  0  0  0  0 
 14 16  1  0  0  0  0 
 16 17  1  0  0  0  0 
 16 18  2  0  0  0  0 
 10 18  1  0  0  0  0 
 18 19  1  0  0  0  0 
 11 20  1  0  0  0  0 
 20 21  1  0  0  0  0 
 20 22  1  0  0  0  0 
 20 23  1  0  0  0  0 
 23 24  1  0  0  0  0 
 23 25  1  0  0  0  0 
 23 26  1  0  0  0  0 
 26 27  1  1  0  0  0 
 26 28  1  0  0  0  0 
 28 29  2  0  0  0  0 
 29 30  1  0  0  0  0 
 29 31  1  0  0  0  0 
 31 32  2  0  0  0  0 
 32 33  1  0  0  0  0 
 32 34  1  0  0  0  0 
 34 35  1  0  0  0  0 
 34 36  2  0  0  0  0 
 28 36  1  0  0  0  0 
 36 37  1  0  0  0  0 
 31 38  1  0  0  0  0 
 38 39  1  0  0  0  0 
 38 40  2  0  0  0  0 
 40 41  1  0  0  0  0 
 40 42  1  0  0  0  0 
 42 43  2  0  0  0  0 
 43 44  1  0  0  0  0 
 43 45  1  0  0  0  0 
 45 46  1  0  0  0  0 
 45 47  2  0  0  0  0 
 47 48  1  0  0  0  0 
 48 49  1  0  0  0  0 
 48 50  2  0  0  0  0 
 50 51  1  0  0  0  0 
 50 52  1  0  0  0  0 
 52 53  2  0  0  0  0 
 53 54  1  0  0  0  0 
 53 55  1  0  0  0  0 
 47 55  1  0  0  0  0 
 55 56  2  0  0  0  0 
 42 56  1  0  0  0  0 
 52 57  1  0  0  0  0 
 57 58  1  0  0  0  0 
 58 59  1  0  0  0  0 
 58 60  1  0  0  0  0 
 58 61  1  0  0  0  0 
 61 62  1  0  0  0  0 
 61 63  1  0  0  0  0 
 63 64  2  0  0  0  0 
 63 65  1  0  0  0  0 
 65 66  1  0  0  0  0 
 65 67  1  0  0  0  0 
 67 68  1  0  0  0  0 
 67 69  1  0  0  0  0 
 67 70  1  0  0  0  0 
 70 71  2  0  0  0  0 
 70 72  1  0  0  0  0 
 72 73  1  0  0  0  0 
 61 74  1  0  0  0  0 
 74 75  1  0  0  0  0 
 74 76  1  0  0  0  0 
 76 77  2  0  0  0  0 
 76 78  1  0  0  0  0 
 78 79  1  0  0  0  0 
 78 80  1  0  0  0  0 
 78 81  1  0  0  0  0 
 81 82  1  0  0  0  0 
 81 83  1  0  0  0  0 
 81 84  1  0  0  0  0 
 84 85  1  0  0  0  0 
 84 86  1  0  0  0  0 
 86 87  2  0  0  0  0 
 86 88  1  0  0  0  0 
 88 89  1  0  0  0  0 
 84 90  1  0  0  0  0 
 90 91  1  0  0  0  0 
 90 92  1  0  0  0  0 
 26 93  1  6  0  0  0 
 93 94  1  0  0  0  0 
 94 95  1  0  0  0  0 
 94 96  1  0  0  0  0 
 94 97  1  0  0  0  0 
 97 98  1  0  0  0  0 
 98 99  1  0  0  0  0 
 98100  1  0  0  0  0 
 98101  1  0  0  0  0 
 97101  1  0  0  0  0 
101102  1  0  0  0  0 
101103  1  0  0  0  0 
 97104  1  0  0  0  0 
104105  1  0  0  0  0 
104106  1  0  0  0  0 
104107  1  0  0  0  0 
107108  2  0  0  0  0 
107109  1  0  0  0  0 
109110  1  0  0  0  0 
  5111  1  0  0  0  0 
111112  1  0  0  0  0 
M  END
> <Rank>
38

> <Priority_score>
0.012

> <Reaction_type>
glutathione_conjugation_(aromatic_nucleophilic_substitution)

> <Parent_ID>
7

> <Parent_InChI>
InChI=1S/C35H36ClNO3S/c1-34(2,40)30-9-4-3-7-25(30)13-17-32(41-23-35(18-19-35)22-33(38)39)27-8-5-6-24(20-27)10-15-29-16-12-26-11-14-28(36)21-31(26)37-29/h3-12,14-16,20-21,32,40H,13,17-19,22-23H2,1-2H3,(H,38,39)

> <Parent_SMILES>
CC(C)(O)c1ccccc1CC[C@@H](SCC1(CC(=O)O)CC1)c1cccc(/C=C/c2ccc3ccc(Cl)cc3n2)c1

$$$$
Molecule 7_metabolite 39
  CDK     0516241031

 78 81  0  0  0  0  0  0  0  0999 V2000
    5.5237   -7.9610    0.0000 C   0  0  0  0  0  0  0  0  0  0  0  0
    6.0455   -9.3673    0.0000 H   0  0  0  0  0  0  0  0  0  0  0  0
    5.5144   -6.4610    0.0000 H   0  0  0  0  0  0  0  0  0  0  0  0
    6.9993   -7.6913    0.0000 H   0  0  0  0  0  0  0  0  0  0  0  0
    4.0449   -7.7097    0.0000 C   0  0  0  0  0  0  0  0  0  0  0  0
    2.7413   -6.9678    0.0000 C   0  0  0  0  0  0  0  0  0  0  0  0
    1.4469   -7.7258    0.0000 H   0  0  0  0  0  0  0  0  0  0  0  0
    3.6983   -5.8127    0.0000 H   0  0  0  0  0  0  0  0  0  0  0  0
    1.7700   -5.8247    0.0000 H   0  0  0  0  0  0  0  0  0  0  0  0
    2.4754   -9.6039    0.0000 C   0  0  0  0  0  0  0  0  0  0  0  0
    2.9956  -11.0117    0.0000 C   0  0  0  0  0  0  0  0  0  0  0  0
    2.0367  -12.1652    0.0000 C   0  0  0  0  0  0  0  0  0  0  0  0
    2.5559  -13.5725    0.0000 H   0  0  0  0  0  0  0  0  0  0  0  0
    0.5575  -11.9108    0.0000 C   0  0  0  0  0  0  0  0  0  0  0  0
   -0.4034  -13.0626    0.0000 H   0  0  0  0  0  0  0  0  0  0  0  0
    0.0451  -10.5094    0.0000 C   0  0  0  0  0  0  0  0  0  0  0  0
   -1.4329  -10.2534    0.0000 H   0  0  0  0  0  0  0  0  0  0  0  0
    1.0040   -9.3560    0.0000 C   0  0  0  0  0  0  0  0  0  0  0  0
    0.4824   -7.9495    0.0000 H   0  0  0  0  0  0  0  0  0  0  0  0
    4.4740  -11.2653    0.0000 C   0  0  0  0  0  0  0  0  0  0  0  0
    5.9500  -10.9978    0.0000 H   0  0  0  0  0  0  0  0  0  0  0  0
    4.4670   -9.7653    0.0000 H   0  0  0  0  0  0  0  0  0  0  0  0
    4.9937  -12.6724    0.0000 C   0  0  0  0  0  0  0  0  0  0  0  0
    5.0007  -14.1724    0.0000 H   0  0  0  0  0  0  0  0  0  0  0  0
    3.5177  -12.9398    0.0000 H   0  0  0  0  0  0  0  0  0  0  0  0
    6.9452  -13.0070    0.0000 C   0  0  2  0  0  0  0  0  0  0  0  0
    6.9381  -11.5070    0.0000 H   0  0  0  0  0  0  0  0  0  0  0  0
    6.2767  -14.8708    0.0000 C   0  0  0  0  0  0  0  0  0  0  0  0
    7.2453  -16.0172    0.0000 C   0  0  0  0  0  0  0  0  0  0  0  0
    8.7217  -15.7521    0.0000 H   0  0  0  0  0  0  0  0  0  0  0  0
    6.7366  -17.4283    0.0000 C   0  0  0  0  0  0  0  0  0  0  0  0
    5.2592  -17.6930    0.0000 C   0  0  0  0  0  0  0  0  0  0  0  0
    4.7481  -19.1032    0.0000 H   0  0  0  0  0  0  0  0  0  0  0  0
    4.3001  -16.5499    0.0000 C   0  0  0  0  0  0  0  0  0  0  0  0
    2.8233  -16.8126    0.0000 H   0  0  0  0  0  0  0  0  0  0  0  0
    4.8088  -15.1388    0.0000 C   0  0  0  0  0  0  0  0  0  0  0  0
    3.8394  -13.9941    0.0000 H   0  0  0  0  0  0  0  0  0  0  0  0
    7.7040  -18.5746    0.0000 C   0  0  0  0  0  0  0  0  0  0  0  0
    7.1950  -19.9856    0.0000 H   0  0  0  0  0  0  0  0  0  0  0  0
    9.1805  -18.3099    0.0000 C   0  0  0  0  0  0  0  0  0  0  0  0
    9.6895  -16.8989    0.0000 H   0  0  0  0  0  0  0  0  0  0  0  0
   10.1480  -19.4562    0.0000 C   0  0  0  0  0  0  0  0  0  0  0  0
   11.6253  -19.1916    0.0000 N   0  0  0  0  0  0  0  0  0  0  0  0
   12.5938  -20.3381    0.0000 C   0  0  0  0  0  0  0  0  0  0  0  0
   14.0712  -20.0734    0.0000 C   0  0  0  0  0  0  0  0  0  0  0  0
   14.5799  -18.6624    0.0000 H   0  0  0  0  0  0  0  0  0  0  0  0
   15.0397  -21.2199    0.0000 C   0  0  0  0  0  0  0  0  0  0  0  0
   14.5310  -22.6310    0.0000 C   0  0  0  0  0  0  0  0  0  0  0  0
   15.4984  -23.7773    0.0000 H   0  0  0  0  0  0  0  0  0  0  0  0
   13.0536  -22.8956    0.0000 C   0  0  0  0  0  0  0  0  0  0  0  0
   12.5449  -24.3067    0.0000 H   0  0  0  0  0  0  0  0  0  0  0  0
   12.0851  -21.7492    0.0000 C   0  0  0  0  0  0  0  0  0  0  0  0
   10.6078  -22.0138    0.0000 C   0  0  0  0  0  0  0  0  0  0  0  0
   10.0990  -23.4249    0.0000 H   0  0  0  0  0  0  0  0  0  0  0  0
    9.6392  -20.8673    0.0000 C   0  0  0  0  0  0  0  0  0  0  0  0
    8.1628  -21.1325    0.0000 H   0  0  0  0  0  0  0  0  0  0  0  0
   16.5161  -20.9547    0.0000 Cl  0  0  0  0  0  0  0  0  0  0  0  0
    8.4212  -12.7396    0.0000 S   0  0  0  0  0  0  0  0  0  0  0  0
    8.9276  -11.3277    0.0000 C   0  0  0  0  0  0  0  0  0  0  0  0
    7.9580  -10.1832    0.0000 H   0  0  0  0  0  0  0  0  0  0  0  0
   10.4035  -11.0603    0.0000 C   0  0  0  0  0  0  0  0  0  0  0  0
   10.9099   -9.6483    0.0000 C   0  0  0  0  0  0  0  0  0  0  0  0
    9.4315   -9.3948    0.0000 H   0  0  0  0  0  0  0  0  0  0  0  0
   10.9029   -8.1483    0.0000 H   0  0  0  0  0  0  0  0  0  0  0  0
   12.3859   -9.3809    0.0000 C   0  0  0  0  0  0  0  0  0  0  0  0
   13.8643   -9.6344    0.0000 H   0  0  0  0  0  0  0  0  0  0  0  0
   12.3929  -10.8809    0.0000 H   0  0  0  0  0  0  0  0  0  0  0  0
   12.8923   -7.9690    0.0000 O   0  0  0  0  0  0  0  0  0  0  0  0
   14.3683   -7.7015    0.0000 H   0  0  0  0  0  0  0  0  0  0  0  0
   11.3731  -12.2048    0.0000 C   0  0  0  0  0  0  0  0  0  0  0  0
   11.8928  -13.6119    0.0000 H   0  0  0  0  0  0  0  0  0  0  0  0
   10.0776  -12.9609    0.0000 H   0  0  0  0  0  0  0  0  0  0  0  0
   12.8491  -11.9374    0.0000 C   0  0  0  0  0  0  0  0  0  0  0  0
   13.3555  -10.5254    0.0000 O   0  0  0  0  0  0  0  0  0  0  0  0
   13.8186  -13.0819    0.0000 O   0  0  0  0  0  0  0  0  0  0  0  0
   15.2946  -12.8145    0.0000 H   0  0  0  0  0  0  0  0  0  0  0  0
    4.7106   -5.8449    0.0000 O   0  0  0  0  0  0  0  0  0  0  0  0
    6.1861   -5.5753    0.0000 H   0  0  0  0  0  0  0  0  0  0  0  0
  1  2  1  0  0  0  0 
  1  3  1  0  0  0  0 
  1  4  1  0  0  0  0 
  1  5  1  0  0  0  0 
  5  6  1  0  0  0  0 
  6  7  1  0  0  0  0 
  6  8  1  0  0  0  0 
  6  9  1  0  0  0  0 
  5 10  1  0  0  0  0 
 10 11  2  0  0  0  0 
 11 12  1  0  0  0  0 
 12 13  1  0  0  0  0 
 12 14  2  0  0  0  0 
 14 15  1  0  0  0  0 
 14 16  1  0  0  0  0 
 16 17  1  0  0  0  0 
 16 18  2  0  0  0  0 
 10 18  1  0  0  0  0 
 18 19  1  0  0  0  0 
 11 20  1  0  0  0  0 
 20 21  1  0  0  0  0 
 20 22  1  0  0  0  0 
 20 23  1  0  0  0  0 
 23 24  1  0  0  0  0 
 23 25  1  0  0  0  0 
 23 26  1  0  0  0  0 
 26 27  1  6  0  0  0 
 26 28  1  0  0  0  0 
 28 29  2  0  0  0  0 
 29 30  1  0  0  0  0 
 29 31  1  0  0  0  0 
 31 32  2  0  0  0  0 
 32 33  1  0  0  0  0 
 32 34  1  0  0  0  0 
 34 35  1  0  0  0  0 
 34 36  2  0  0  0  0 
 28 36  1  0  0  0  0 
 36 37  1  0  0  0  0 
 31 38  1  0  0  0  0 
 38 39  1  0  0  0  0 
 38 40  2  0  0  0  0 
 40 41  1  0  0  0  0 
 40 42  1  0  0  0  0 
 42 43  2  0  0  0  0 
 43 44  1  0  0  0  0 
 44 45  2  0  0  0  0 
 45 46  1  0  0  0  0 
 45 47  1  0  0  0  0 
 47 48  2  0  0  0  0 
 48 49  1  0  0  0  0 
 48 50  1  0  0  0  0 
 50 51  1  0  0  0  0 
 50 52  2  0  0  0  0 
 44 52  1  0  0  0  0 
 52 53  1  0  0  0  0 
 53 54  1  0  0  0  0 
 53 55  2  0  0  0  0 
 42 55  1  0  0  0  0 
 55 56  1  0  0  0  0 
 47 57  1  0  0  0  0 
 26 58  1  1  0  0  0 
 58 59  1  0  0  0  0 
 59 60  1  4  0  0  0 
 59 61  2  0  0  0  0 
 61 62  1  0  0  0  0 
 62 63  1  0  0  0  0 
 62 64  1  0  0  0  0 
 62 65  1  0  0  0  0 
 65 66  1  0  0  0  0 
 65 67  1  0  0  0  0 
 65 68  1  0  0  0  0 
 68 69  1  0  0  0  0 
 61 70  1  0  0  0  0 
 70 71  1  0  0  0  0 
 70 72  1  0  0  0  0 
 70 73  1  0  0  0  0 
 73 74  2  0  0  0  0 
 73 75  1  0  0  0  0 
 75 76  1  0  0  0  0 
  5 77  1  0  0  0  0 
 77 78  1  0  0  0  0 
M  END
> <Rank>
38

> <Priority_score>
0.012

> <Reaction_type>
hydroxylation of cyclopropane

> <Parent_ID>
7

> <Parent_InChI>
InChI=1S/C35H36ClNO3S/c1-34(2,40)30-9-4-3-7-25(30)13-17-32(41-23-35(18-19-35)22-33(38)39)27-8-5-6-24(20-27)10-15-29-16-12-26-11-14-28(36)21-31(26)37-29/h3-12,14-16,20-21,32,40H,13,17-19,22-23H2,1-2H3,(H,38,39)

> <Parent_SMILES>
CC(C)(O)c1ccccc1CC[C@@H](SCC1(CC(=O)O)CC1)c1cccc(/C=C/c2ccc3ccc(Cl)cc3n2)c1

$$$$
Molecule 7_metabolite 40
  CDK     0516241031

 75 79  0  0  0  0  0  0  0  0999 V2000
   15.5497   -2.2899    0.0000 C   0  0  0  0  0  0  0  0  0  0  0  0
   15.5495   -0.7899    0.0000 H   0  0  0  0  0  0  0  0  0  0  0  0
   16.0630   -3.6994    0.0000 H   0  0  0  0  0  0  0  0  0  0  0  0
   17.0269   -2.0292    0.0000 H   0  0  0  0  0  0  0  0  0  0  0  0
   14.2508   -3.0402    0.0000 C   0  0  0  0  0  0  0  0  0  0  0  0
   11.3555   -3.5511    0.0000 C   0  0  0  0  0  0  0  0  0  0  0  0
   10.8427   -4.9608    0.0000 H   0  0  0  0  0  0  0  0  0  0  0  0
    9.8783   -3.2909    0.0000 H   0  0  0  0  0  0  0  0  0  0  0  0
   11.3553   -2.0511    0.0000 H   0  0  0  0  0  0  0  0  0  0  0  0
   14.2510   -4.5402    0.0000 C   0  0  0  0  0  0  0  0  0  0  0  0
   15.5499   -5.2921    0.0000 C   0  0  0  0  0  0  0  0  0  0  0  0
   15.5476   -6.7921    0.0000 C   0  0  0  0  0  0  0  0  0  0  0  0
   16.8454   -7.5443    0.0000 H   0  0  0  0  0  0  0  0  0  0  0  0
   14.2465   -7.5402    0.0000 C   0  0  0  0  0  0  0  0  0  0  0  0
   14.2417   -9.0401    0.0000 H   0  0  0  0  0  0  0  0  0  0  0  0
   12.9576   -6.7882    0.0000 C   0  0  0  0  0  0  0  0  0  0  0  0
   11.6563   -7.5343    0.0000 H   0  0  0  0  0  0  0  0  0  0  0  0
   12.9599   -5.2882    0.0000 C   0  0  0  0  0  0  0  0  0  0  0  0
   11.6608   -4.5382    0.0000 H   0  0  0  0  0  0  0  0  0  0  0  0
   17.6820   -4.0650    0.0000 C   0  0  0  0  0  0  0  0  0  0  0  0
   18.6477   -2.9173    0.0000 H   0  0  0  0  0  0  0  0  0  0  0  0
   16.7193   -2.9146    0.0000 H   0  0  0  0  0  0  0  0  0  0  0  0
   18.9800   -4.8168    0.0000 C   0  0  0  0  0  0  0  0  0  0  0  0
   18.0142   -5.9645    0.0000 H   0  0  0  0  0  0  0  0  0  0  0  0
   19.9426   -5.9671    0.0000 H   0  0  0  0  0  0  0  0  0  0  0  0
   20.2800   -4.0685    0.0000 C   0  0  2  0  0  0  0  0  0  0  0  0
   21.7576   -3.8101    0.0000 H   0  0  0  0  0  0  0  0  0  0  0  0
   20.2821   -2.5685    0.0000 C   0  0  0  0  0  0  0  0  0  0  0  0
   21.5818   -1.8181    0.0000 C   0  0  0  0  0  0  0  0  0  0  0  0
   22.8810   -2.5679    0.0000 H   0  0  0  0  0  0  0  0  0  0  0  0
   21.5813   -0.3181    0.0000 C   0  0  0  0  0  0  0  0  0  0  0  0
   20.2811    0.4315    0.0000 C   0  0  0  0  0  0  0  0  0  0  0  0
   20.2781    1.9315    0.0000 H   0  0  0  0  0  0  0  0  0  0  0  0
   18.9914   -0.3189    0.0000 C   0  0  0  0  0  0  0  0  0  0  0  0
   17.6909    0.4287    0.0000 H   0  0  0  0  0  0  0  0  0  0  0  0
   18.9918   -1.8189    0.0000 C   0  0  0  0  0  0  0  0  0  0  0  0
   17.6919   -2.5674    0.0000 H   0  0  0  0  0  0  0  0  0  0  0  0
   22.8800    0.4325    0.0000 C   0  0  0  0  0  0  0  0  0  0  0  0
   22.8793    1.9325    0.0000 H   0  0  0  0  0  0  0  0  0  0  0  0
   24.1794   -0.3169    0.0000 C   0  0  0  0  0  0  0  0  0  0  0  0
   24.1801   -1.8169    0.0000 H   0  0  0  0  0  0  0  0  0  0  0  0
   25.4781    0.4338    0.0000 C   0  0  0  0  0  0  0  0  0  0  0  0
   26.7783   -0.3158    0.0000 N   0  0  0  0  0  0  0  0  0  0  0  0
   28.0781    0.4346    0.0000 C   0  0  0  0  0  0  0  0  0  0  0  0
   29.3783   -0.3150    0.0000 C   0  0  0  0  0  0  0  0  0  0  0  0
   29.3788   -1.8150    0.0000 H   0  0  0  0  0  0  0  0  0  0  0  0
   30.6781    0.4354    0.0000 C   0  0  0  0  0  0  0  0  0  0  0  0
   30.6776    1.9354    0.0000 C   0  0  0  0  0  0  0  0  0  0  0  0
   31.9763    2.6861    0.0000 H   0  0  0  0  0  0  0  0  0  0  0  0
   29.3774    2.6850    0.0000 C   0  0  0  0  0  0  0  0  0  0  0  0
   29.3769    4.1850    0.0000 H   0  0  0  0  0  0  0  0  0  0  0  0
   28.0776    1.9346    0.0000 C   0  0  0  0  0  0  0  0  0  0  0  0
   26.7774    2.6842    0.0000 C   0  0  0  0  0  0  0  0  0  0  0  0
   26.7769    4.1842    0.0000 H   0  0  0  0  0  0  0  0  0  0  0  0
   25.4776    1.9338    0.0000 C   0  0  0  0  0  0  0  0  0  0  0  0
   24.1785    2.6836    0.0000 H   0  0  0  0  0  0  0  0  0  0  0  0
   31.9773   -0.3144    0.0000 Cl  0  0  0  0  0  0  0  0  0  0  0  0
   20.9547   -5.9300    0.0000 S   0  0  0  0  0  0  0  0  0  0  0  0
   22.4316   -6.1925    0.0000 C   0  0  0  0  0  0  0  0  0  0  0  0
   23.9091   -5.9340    0.0000 H   0  0  0  0  0  0  0  0  0  0  0  0
   22.4336   -4.6925    0.0000 H   0  0  0  0  0  0  0  0  0  0  0  0
   22.9427   -7.6027    0.0000 C   0  0  0  0  0  0  0  0  0  0  0  0
   24.4211   -7.3440    0.0000 C   0  0  0  0  0  0  0  0  0  0  0  0
   25.5716   -6.3816    0.0000 H   0  0  0  0  0  0  0  0  0  0  0  0
   23.9051   -8.7533    0.0000 C   0  0  0  0  0  0  0  0  0  0  0  0
   24.1630  -10.2310    0.0000 H   0  0  0  0  0  0  0  0  0  0  0  0
   21.6426   -8.3508    0.0000 C   0  0  0  0  0  0  0  0  0  0  0  0
   21.1316   -6.9406    0.0000 H   0  0  0  0  0  0  0  0  0  0  0  0
   20.1650   -8.6092    0.0000 H   0  0  0  0  0  0  0  0  0  0  0  0
   21.6404   -9.8508    0.0000 C   0  0  0  0  0  0  0  0  0  0  0  0
   20.3402  -10.5989    0.0000 O   0  0  0  0  0  0  0  0  0  0  0  0
   22.9383  -10.6027    0.0000 O   0  0  0  0  0  0  0  0  0  0  0  0
   22.9361  -12.1027    0.0000 H   0  0  0  0  0  0  0  0  0  0  0  0
   13.7375   -1.6307    0.0000 O   0  0  0  0  0  0  0  0  0  0  0  0
   14.7015   -0.4815    0.0000 H   0  0  0  0  0  0  0  0  0  0  0  0
  1  2  1  0  0  0  0 
  1  3  1  0  0  0  0 
  1  4  1  0  0  0  0 
  1  5  1  0  0  0  0 
  5  6  1  0  0  0  0 
  6  7  1  0  0  0  0 
  6  8  1  0  0  0  0 
  6  9  1  0  0  0  0 
  5 10  1  0  0  0  0 
 10 11  2  0  0  0  0 
 11 12  1  0  0  0  0 
 12 13  1  0  0  0  0 
 12 14  2  0  0  0  0 
 14 15  1  0  0  0  0 
 14 16  1  0  0  0  0 
 16 17  1  0  0  0  0 
 16 18  2  0  0  0  0 
 10 18  1  0  0  0  0 
 18 19  1  0  0  0  0 
 11 20  1  0  0  0  0 
 20 21  1  0  0  0  0 
 20 22  1  0  0  0  0 
 20 23  1  0  0  0  0 
 23 24  1  0  0  0  0 
 23 25  1  0  0  0  0 
 23 26  1  0  0  0  0 
 26 27  1  1  0  0  0 
 26 28  1  0  0  0  0 
 28 29  2  0  0  0  0 
 29 30  1  0  0  0  0 
 29 31  1  0  0  0  0 
 31 32  2  0  0  0  0 
 32 33  1  0  0  0  0 
 32 34  1  0  0  0  0 
 34 35  1  0  0  0  0 
 34 36  2  0  0  0  0 
 28 36  1  0  0  0  0 
 36 37  1  0  0  0  0 
 31 38  1  0  0  0  0 
 38 39  1  0  0  0  0 
 38 40  2  0  0  0  0 
 40 41  1  0  0  0  0 
 40 42  1  0  0  0  0 
 42 43  2  0  0  0  0 
 43 44  1  0  0  0  0 
 44 45  2  0  0  0  0 
 45 46  1  0  0  0  0 
 45 47  1  0  0  0  0 
 47 48  2  0  0  0  0 
 48 49  1  0  0  0  0 
 48 50  1  0  0  0  0 
 50 51  1  0  0  0  0 
 50 52  2  0  0  0  0 
 44 52  1  0  0  0  0 
 52 53  1  0  0  0  0 
 53 54  1  0  0  0  0 
 53 55  2  0  0  0  0 
 42 55  1  0  0  0  0 
 55 56  1  0  0  0  0 
 47 57  1  0  0  0  0 
 26 58  1  6  0  0  0 
 58 59  1  0  0  0  0 
 59 60  1  0  0  0  0 
 59 61  1  0  0  0  0 
 59 62  1  0  0  0  0 
 62 63  1  0  0  0  0 
 63 64  1  0  0  0  0 
 63 65  2  0  0  0  0 
 62 65  1  0  0  0  0 
 65 66  1  0  0  0  0 
 62 67  1  0  0  0  0 
 67 68  1  0  0  0  0 
 67 69  1  0  0  0  0 
 67 70  1  0  0  0  0 
 70 71  2  0  0  0  0 
 70 72  1  0  0  0  0 
 72 73  1  0  0  0  0 
  5 74  1  0  0  0  0 
 74 75  1  0  0  0  0 
M  END
> <Rank>
40

> <Priority_score>
0.011911527208894091

> <Reaction_type>
alkyl dehydrogenation

> <Parent_ID>
7

> <Parent_InChI>
InChI=1S/C35H36ClNO3S/c1-34(2,40)30-9-4-3-7-25(30)13-17-32(41-23-35(18-19-35)22-33(38)39)27-8-5-6-24(20-27)10-15-29-16-12-26-11-14-28(36)21-31(26)37-29/h3-12,14-16,20-21,32,40H,13,17-19,22-23H2,1-2H3,(H,38,39)

> <Parent_SMILES>
CC(C)(O)c1ccccc1CC[C@@H](SCC1(CC(=O)O)CC1)c1cccc(/C=C/c2ccc3ccc(Cl)cc3n2)c1

$$$$
Molecule 7_metabolite 41
  CDK     0516241031

 75 79  0  0  0  0  0  0  0  0999 V2000
    1.2964   -3.0133    0.0000 C   0  0  0  0  0  0  0  0  0  0  0  0
    1.2916   -1.5133    0.0000 H   0  0  0  0  0  0  0  0  0  0  0  0
    0.7878   -4.4245    0.0000 H   0  0  0  0  0  0  0  0  0  0  0  0
   -0.1817   -2.7575    0.0000 H   0  0  0  0  0  0  0  0  0  0  0  0
    2.5978   -3.7591    0.0000 C   0  0  0  0  0  0  0  0  0  0  0  0
    4.0758   -4.0149    0.0000 C   0  0  0  0  0  0  0  0  0  0  0  0
    4.5933   -5.4228    0.0000 H   0  0  0  0  0  0  0  0  0  0  0  0
    5.5522   -3.7497    0.0000 H   0  0  0  0  0  0  0  0  0  0  0  0
    4.0710   -2.5149    0.0000 H   0  0  0  0  0  0  0  0  0  0  0  0
    2.6026   -5.2591    0.0000 C   0  0  0  0  0  0  0  0  0  0  0  0
    3.9037   -6.0072    0.0000 C   0  0  0  0  0  0  0  0  0  0  0  0
    3.9060   -7.5072    0.0000 C   0  0  0  0  0  0  0  0  0  0  0  0
    5.2060   -8.2554    0.0000 H   0  0  0  0  0  0  0  0  0  0  0  0
    2.6071   -8.2591    0.0000 C   0  0  0  0  0  0  0  0  0  0  0  0
    2.6069   -9.7591    0.0000 H   0  0  0  0  0  0  0  0  0  0  0  0
    1.3160   -7.5111    0.0000 C   0  0  0  0  0  0  0  0  0  0  0  0
    0.0169   -8.2611    0.0000 H   0  0  0  0  0  0  0  0  0  0  0  0
    1.3137   -6.0111    0.0000 C   0  0  0  0  0  0  0  0  0  0  0  0
    0.0124   -5.2650    0.0000 H   0  0  0  0  0  0  0  0  0  0  0  0
    5.4037   -6.0047    0.0000 C   0  0  0  0  0  0  0  0  0  0  0  0
    6.8124   -5.4893    0.0000 H   0  0  0  0  0  0  0  0  0  0  0  0
    5.1407   -4.5279    0.0000 H   0  0  0  0  0  0  0  0  0  0  0  0
    6.3966   -7.7177    0.0000 C   0  0  0  0  0  0  0  0  0  0  0  0
    5.6487   -9.0180    0.0000 H   0  0  0  0  0  0  0  0  0  0  0  0
    7.8966   -7.7152    0.0000 C   0  0  0  0  0  0  0  0  0  0  0  0
    8.6487   -9.0130    0.0000 C   0  0  0  0  0  0  0  0  0  0  0  0
   10.1496   -9.0125    0.0000 C   0  0  0  0  0  0  0  0  0  0  0  0
   10.8994   -7.7134    0.0000 H   0  0  0  0  0  0  0  0  0  0  0  0
   10.8996  -10.3116    0.0000 C   0  0  0  0  0  0  0  0  0  0  0  0
   10.1487  -11.6111    0.0000 C   0  0  0  0  0  0  0  0  0  0  0  0
   10.8966  -12.9114    0.0000 H   0  0  0  0  0  0  0  0  0  0  0  0
    8.6566  -11.6066    0.0000 C   0  0  0  0  0  0  0  0  0  0  0  0
    7.9046  -12.9045    0.0000 H   0  0  0  0  0  0  0  0  0  0  0  0
    7.9066  -10.3075    0.0000 C   0  0  0  0  0  0  0  0  0  0  0  0
    6.4066  -10.3098    0.0000 H   0  0  0  0  0  0  0  0  0  0  0  0
   12.3996  -10.3118    0.0000 C   0  0  0  0  0  0  0  0  0  0  0  0
   13.1498   -9.0129    0.0000 H   0  0  0  0  0  0  0  0  0  0  0  0
   13.1494  -11.6110    0.0000 C   0  0  0  0  0  0  0  0  0  0  0  0
   12.3992  -12.9099    0.0000 H   0  0  0  0  0  0  0  0  0  0  0  0
   14.6494  -11.6112    0.0000 C   0  0  0  0  0  0  0  0  0  0  0  0
   15.3998  -12.9110    0.0000 N   0  0  0  0  0  0  0  0  0  0  0  0
   16.9006  -12.9119    0.0000 C   0  0  0  0  0  0  0  0  0  0  0  0
   17.6510  -14.2117    0.0000 C   0  0  0  0  0  0  0  0  0  0  0  0
   16.9006  -15.5105    0.0000 H   0  0  0  0  0  0  0  0  0  0  0  0
   19.1519  -14.2126    0.0000 C   0  0  0  0  0  0  0  0  0  0  0  0
   19.9023  -12.9138    0.0000 C   0  0  0  0  0  0  0  0  0  0  0  0
   21.4023  -12.9141    0.0000 H   0  0  0  0  0  0  0  0  0  0  0  0
   19.1519  -11.6141    0.0000 C   0  0  0  0  0  0  0  0  0  0  0  0
   19.9023  -10.3153    0.0000 H   0  0  0  0  0  0  0  0  0  0  0  0
   17.6510  -11.6131    0.0000 C   0  0  0  0  0  0  0  0  0  0  0  0
   16.9006  -10.3134    0.0000 C   0  0  0  0  0  0  0  0  0  0  0  0
   17.6510   -9.0146    0.0000 H   0  0  0  0  0  0  0  0  0  0  0  0
   15.3998  -10.3124    0.0000 C   0  0  0  0  0  0  0  0  0  0  0  0
   14.6504   -9.0130    0.0000 H   0  0  0  0  0  0  0  0  0  0  0  0
   19.9012  -15.5120    0.0000 Cl  0  0  0  0  0  0  0  0  0  0  0  0
    8.6444   -6.4149    0.0000 S   0  0  0  0  0  0  0  0  0  0  0  0
   10.1444   -6.4124    0.0000 C   0  0  0  0  0  0  0  0  0  0  0  0
    9.8864   -7.8901    0.0000 H   0  0  0  0  0  0  0  0  0  0  0  0
   11.5548   -6.9231    0.0000 H   0  0  0  0  0  0  0  0  0  0  0  0
   11.1315   -4.6960    0.0000 C   0  0  0  0  0  0  0  0  0  0  0  0
   12.5426   -5.2071    0.0000 C   0  0  0  0  0  0  0  0  0  0  0  0
   14.0426   -5.2041    0.0000 H   0  0  0  0  0  0  0  0  0  0  0  0
   12.2848   -6.6848    0.0000 H   0  0  0  0  0  0  0  0  0  0  0  0
   12.2788   -3.7297    0.0000 C   0  0  0  0  0  0  0  0  0  0  0  0
   11.5262   -2.4321    0.0000 H   0  0  0  0  0  0  0  0  0  0  0  0
   13.6872   -3.2137    0.0000 H   0  0  0  0  0  0  0  0  0  0  0  0
    9.6125   -3.4260    0.0000 C   0  0  0  0  0  0  0  0  0  0  0  0
    8.8648   -4.7264    0.0000 H   0  0  0  0  0  0  0  0  0  0  0  0
    8.2020   -2.9155    0.0000 H   0  0  0  0  0  0  0  0  0  0  0  0
    9.8703   -1.9483    0.0000 C   0  0  0  0  0  0  0  0  0  0  0  0
   11.2789   -1.4328    0.0000 O   0  0  0  0  0  0  0  0  0  0  0  0
    8.7195   -0.9862    0.0000 O   0  0  0  0  0  0  0  0  0  0  0  0
    8.9774    0.4915    0.0000 H   0  0  0  0  0  0  0  0  0  0  0  0
    3.1063   -2.3480    0.0000 O   0  0  0  0  0  0  0  0  0  0  0  0
    2.1385   -1.2020    0.0000 H   0  0  0  0  0  0  0  0  0  0  0  0
  1  2  1  0  0  0  0 
  1  3  1  0  0  0  0 
  1  4  1  0  0  0  0 
  1  5  1  0  0  0  0 
  5  6  1  0  0  0  0 
  6  7  1  0  0  0  0 
  6  8  1  0  0  0  0 
  6  9  1  0  0  0  0 
  5 10  1  0  0  0  0 
 10 11  2  0  0  0  0 
 11 12  1  0  0  0  0 
 12 13  1  0  0  0  0 
 12 14  2  0  0  0  0 
 14 15  1  0  0  0  0 
 14 16  1  0  0  0  0 
 16 17  1  0  0  0  0 
 16 18  2  0  0  0  0 
 10 18  1  0  0  0  0 
 18 19  1  0  0  0  0 
 11 20  1  0  0  0  0 
 20 21  1  0  0  0  0 
 20 22  1  0  0  0  0 
 20 23  1  0  0  0  0 
 23 24  1  4  0  0  0 
 23 25  2  0  0  0  0 
 25 26  1  0  0  0  0 
 26 27  2  0  0  0  0 
 27 28  1  0  0  0  0 
 27 29  1  0  0  0  0 
 29 30  2  0  0  0  0 
 30 31  1  0  0  0  0 
 30 32  1  0  0  0  0 
 32 33  1  0  0  0  0 
 32 34  2  0  0  0  0 
 26 34  1  0  0  0  0 
 34 35  1  0  0  0  0 
 29 36  1  0  0  0  0 
 36 37  1  0  0  0  0 
 36 38  2  0  0  0  0 
 38 39  1  0  0  0  0 
 38 40  1  0  0  0  0 
 40 41  2  0  0  0  0 
 41 42  1  0  0  0  0 
 42 43  2  0  0  0  0 
 43 44  1  0  0  0  0 
 43 45  1  0  0  0  0 
 45 46  2  0  0  0  0 
 46 47  1  0  0  0  0 
 46 48  1  0  0  0  0 
 48 49  1  0  0  0  0 
 48 50  2  0  0  0  0 
 42 50  1  0  0  0  0 
 50 51  1  0  0  0  0 
 51 52  1  0  0  0  0 
 51 53  2  0  0  0  0 
 40 53  1  0  0  0  0 
 53 54  1  0  0  0  0 
 45 55  1  0  0  0  0 
 25 56  1  0  0  0  0 
 56 57  1  0  0  0  0 
 57 58  1  0  0  0  0 
 57 59  1  0  0  0  0 
 57 60  1  0  0  0  0 
 60 61  1  0  0  0  0 
 61 62  1  0  0  0  0 
 61 63  1  0  0  0  0 
 61 64  1  0  0  0  0 
 60 64  1  0  0  0  0 
 64 65  1  0  0  0  0 
 64 66  1  0  0  0  0 
 60 67  1  0  0  0  0 
 67 68  1  0  0  0  0 
 67 69  1  0  0  0  0 
 67 70  1  0  0  0  0 
 70 71  2  0  0  0  0 
 70 72  1  0  0  0  0 
 72 73  1  0  0  0  0 
  5 74  1  0  0  0  0 
 74 75  1  0  0  0  0 
M  END
> <Rank>
41

> <Priority_score>
0.0088

> <Reaction_type>
alkyl dehydrogenation

> <Parent_ID>
7

> <Parent_InChI>
InChI=1S/C35H36ClNO3S/c1-34(2,40)30-9-4-3-7-25(30)13-17-32(41-23-35(18-19-35)22-33(38)39)27-8-5-6-24(20-27)10-15-29-16-12-26-11-14-28(36)21-31(26)37-29/h3-12,14-16,20-21,32,40H,13,17-19,22-23H2,1-2H3,(H,38,39)

> <Parent_SMILES>
CC(C)(O)c1ccccc1CC[C@@H](SCC1(CC(=O)O)CC1)c1cccc(/C=C/c2ccc3ccc(Cl)cc3n2)c1

$$$$
Molecule 8
  CDK     0516241031

 26 28  0  0  0  0  0  0  0  0999 V2000
    7.1716   -6.8189    0.0000 C   0  0  0  0  0  0  0  0  0  0  0  0
    5.8714   -6.0708    0.0000 C   0  0  0  0  0  0  0  0  0  0  0  0
    5.8692   -4.5708    0.0000 C   0  0  0  0  0  0  0  0  0  0  0  0
    4.5735   -6.8228    0.0000 C   0  0  0  0  0  0  0  0  0  0  0  0
    3.2734   -6.0748    0.0000 N   0  0  0  0  0  0  0  0  0  0  0  0
    1.9755   -6.8267    0.0000 C   0  0  0  0  0  0  0  0  0  0  0  0
    0.6753   -6.0787    0.0000 C   0  0  0  0  0  0  0  0  0  0  0  0
    0.6910   -4.6296    0.0000 C   0  0  0  0  0  0  0  0  0  0  0  0
   -0.5618   -3.8415    0.0000 C   0  0  0  0  0  0  0  0  0  0  0  0
   -1.8489   -4.6086    0.0000 C   0  0  0  0  0  0  0  0  0  0  0  0
   -1.8646   -6.0577    0.0000 C   0  0  0  0  0  0  0  0  0  0  0  0
   -0.6118   -6.8458    0.0000 C   0  0  0  0  0  0  0  0  0  0  0  0
   -3.1491   -3.8605    0.0000 C   0  0  0  0  0  0  0  0  0  0  0  0
   -4.4487   -4.6112    0.0000 C   0  0  0  0  0  0  0  0  0  0  0  0
   -5.7476   -3.8610    0.0000 C   0  0  0  0  0  0  0  0  0  0  0  0
   -5.7469   -2.3601    0.0000 C   0  0  0  0  0  0  0  0  0  0  0  0
   -4.4523   -1.6182    0.0000 C   0  0  0  0  0  0  0  0  0  0  0  0
   -3.1533   -2.3684    0.0000 C   0  0  0  0  0  0  0  0  0  0  0  0
   -4.4487   -6.1112    0.0000 S   0  0  0  0  0  0  0  0  0  0  0  0
   -3.9357   -7.5207    0.0000 O   0  0  0  0  0  0  0  0  0  0  0  0
   -2.9715   -5.8507    0.0000 O   0  0  0  0  0  0  0  0  0  0  0  0
   -5.7477   -6.8612    0.0000 N   0  0  0  0  0  0  0  0  0  0  0  0
   -5.9135   -8.3541    0.0000 C   0  0  0  0  0  0  0  0  0  0  0  0
   -7.3733   -8.6657    0.0000 C   0  0  0  0  0  0  0  0  0  0  0  0
   -8.1233   -7.3667    0.0000 C   0  0  0  0  0  0  0  0  0  0  0  0
   -7.1235   -6.2583    0.0000 C   0  0  0  0  0  0  0  0  0  0  0  0
  1  2  1  0  0  0  0 
  2  3  1  0  0  0  0 
  2  4  1  0  0  0  0 
  4  5  1  0  0  0  0 
  5  6  1  0  0  0  0 
  6  7  1  0  0  0  0 
  7  8  2  0  0  0  0 
  8  9  1  0  0  0  0 
  9 10  2  0  0  0  0 
 10 11  1  0  0  0  0 
 11 12  2  0  0  0  0 
  7 12  1  0  0  0  0 
 10 13  1  0  0  0  0 
 13 14  2  0  0  0  0 
 14 15  1  0  0  0  0 
 15 16  2  0  0  0  0 
 16 17  1  0  0  0  0 
 17 18  2  0  0  0  0 
 13 18  1  0  0  0  0 
 14 19  1  0  0  0  0 
 19 20  2  0  0  0  0 
 19 21  2  0  0  0  0 
 19 22  1  0  0  0  0 
 22 23  1  0  0  0  0 
 23 24  1  0  0  0  0 
 24 25  1  0  0  0  0 
 25 26  1  0  0  0  0 
 22 26  1  0  0  0  0 
M  END
> <SMILES>
CC(C)CNCc1ccc(-c2ccccc2S(=O)(=O)N2CCCC2)cc1

$$$$
Molecule 8_metabolite 1
  CDK     0516241031

 55 57  0  0  0  0  0  0  0  0999 V2000
   -6.1070   -4.7472    0.0000 C   0  0  0  0  0  0  0  0  0  0  0  0
   -5.6441   -6.1740    0.0000 H   0  0  0  0  0  0  0  0  0  0  0  0
   -7.0299   -3.5648    0.0000 H   0  0  0  0  0  0  0  0  0  0  0  0
   -7.4317   -5.4508    0.0000 H   0  0  0  0  0  0  0  0  0  0  0  0
   -5.1028   -3.6329    0.0000 C   0  0  0  0  0  0  0  0  0  0  0  0
   -4.1798   -4.8153    0.0000 H   0  0  0  0  0  0  0  0  0  0  0  0
   -3.3541   -2.7041    0.0000 C   0  0  0  0  0  0  0  0  0  0  0  0
   -3.3011   -1.2051    0.0000 H   0  0  0  0  0  0  0  0  0  0  0  0
   -1.8687   -2.4960    0.0000 H   0  0  0  0  0  0  0  0  0  0  0  0
   -2.8912   -4.1309    0.0000 H   0  0  0  0  0  0  0  0  0  0  0  0
   -5.5657   -2.2061    0.0000 C   0  0  0  0  0  0  0  0  0  0  0  0
   -5.5127   -0.7071    0.0000 H   0  0  0  0  0  0  0  0  0  0  0  0
   -4.0802   -1.9980    0.0000 H   0  0  0  0  0  0  0  0  0  0  0  0
   -7.5022   -1.7936    0.0000 N   0  0  0  0  0  0  0  0  0  0  0  0
   -8.5064   -2.9079    0.0000 H   0  0  0  0  0  0  0  0  0  0  0  0
   -7.9651   -0.3668    0.0000 C   0  0  0  0  0  0  0  0  0  0  0  0
   -7.9121    1.1322    0.0000 H   0  0  0  0  0  0  0  0  0  0  0  0
   -6.4796   -0.1587    0.0000 H   0  0  0  0  0  0  0  0  0  0  0  0
   -9.4322   -0.0543    0.0000 C   0  0  0  0  0  0  0  0  0  0  0  0
  -10.3890   -1.1427    0.0000 C   0  0  0  0  0  0  0  0  0  0  0  0
   -9.8894   -2.5570    0.0000 H   0  0  0  0  0  0  0  0  0  0  0  0
  -11.8476   -0.8917    0.0000 C   0  0  0  0  0  0  0  0  0  0  0  0
  -12.8366   -2.0195    0.0000 H   0  0  0  0  0  0  0  0  0  0  0  0
  -12.2924    0.5391    0.0000 C   0  0  0  0  0  0  0  0  0  0  0  0
  -11.3356    1.6275    0.0000 C   0  0  0  0  0  0  0  0  0  0  0  0
  -11.8353    3.0418    0.0000 H   0  0  0  0  0  0  0  0  0  0  0  0
   -9.8770    1.3765    0.0000 C   0  0  0  0  0  0  0  0  0  0  0  0
   -8.8880    2.5043    0.0000 H   0  0  0  0  0  0  0  0  0  0  0  0
  -14.2290    0.9516    0.0000 C   0  0  0  0  0  0  0  0  0  0  0  0
  -14.6940    2.3786    0.0000 C   0  0  0  0  0  0  0  0  0  0  0  0
  -16.1617    2.6886    0.0000 C   0  0  0  0  0  0  0  0  0  0  0  0
  -16.6272    4.1146    0.0000 H   0  0  0  0  0  0  0  0  0  0  0  0
  -17.1642    1.5717    0.0000 C   0  0  0  0  0  0  0  0  0  0  0  0
  -18.6323    1.8793    0.0000 H   0  0  0  0  0  0  0  0  0  0  0  0
  -16.6970    0.1546    0.0000 C   0  0  0  0  0  0  0  0  0  0  0  0
  -17.6976   -0.9629    0.0000 H   0  0  0  0  0  0  0  0  0  0  0  0
  -15.2294   -0.1555    0.0000 C   0  0  0  0  0  0  0  0  0  0  0  0
  -14.7663   -1.5822    0.0000 H   0  0  0  0  0  0  0  0  0  0  0  0
  -13.6915    3.4944    0.0000 S   0  0  0  0  0  0  0  0  0  0  0  0
  -11.9443    4.4258    0.0000 O   0  0  0  0  0  0  0  0  0  0  0  0
  -12.7668    2.3133    0.0000 O   0  0  0  0  0  0  0  0  0  0  0  0
  -14.3054    5.3768    0.0000 N   0  0  0  0  0  0  0  0  0  0  0  0
  -12.8378    5.6964    0.0000 C   0  0  0  0  0  0  0  0  0  0  0  0
  -11.3378    5.6971    0.0000 H   0  0  0  0  0  0  0  0  0  0  0  0
  -12.6769    4.2051    0.0000 H   0  0  0  0  0  0  0  0  0  0  0  0
  -12.6791    7.1806    0.0000 C   0  0  0  0  0  0  0  0  0  0  0  0
  -12.2139    8.6067    0.0000 H   0  0  0  0  0  0  0  0  0  0  0  0
  -11.2124    6.8666    0.0000 H   0  0  0  0  0  0  0  0  0  0  0  0
  -14.0489    7.7919    0.0000 C   0  0  0  0  0  0  0  0  0  0  0  0
  -15.2622    8.6740    0.0000 H   0  0  0  0  0  0  0  0  0  0  0  0
  -13.2981    9.0905    0.0000 H   0  0  0  0  0  0  0  0  0  0  0  0
  -15.0477    6.6827    0.0000 C   0  0  0  0  0  0  0  0  0  0  0  0
  -16.2651    5.8064    0.0000 H   0  0  0  0  0  0  0  0  0  0  0  0
  -16.0489    7.7996    0.0000 H   0  0  0  0  0  0  0  0  0  0  0  0
  -15.6775    4.7706    0.0000 O   0  0  0  0  0  0  0  0  0  0  0  0
  1  2  1  0  0  0  0 
  1  3  1  0  0  0  0 
  1  4  1  0  0  0  0 
  1  5  1  0  0  0  0 
  5  6  1  0  0  0  0 
  5  7  1  0  0  0  0 
  7  8  1  0  0  0  0 
  7  9  1  0  0  0  0 
  7 10  1  0  0  0  0 
  5 11  1  0  0  0  0 
 11 12  1  0  0  0  0 
 11 13  1  0  0  0  0 
 11 14  1  0  0  0  0 
 14 15  1  0  0  0  0 
 14 16  1  0  0  0  0 
 16 17  1  0  0  0  0 
 16 18  1  0  0  0  0 
 16 19  1  0  0  0  0 
 19 20  2  0  0  0  0 
 20 21  1  0  0  0  0 
 20 22  1  0  0  0  0 
 22 23  1  0  0  0  0 
 22 24  2  0  0  0  0 
 24 25  1  0  0  0  0 
 25 26  1  0  0  0  0 
 25 27  2  0  0  0  0 
 19 27  1  0  0  0  0 
 27 28  1  0  0  0  0 
 24 29  1  0  0  0  0 
 29 30  2  0  0  0  0 
 30 31  1  0  0  0  0 
 31 32  1  0  0  0  0 
 31 33  2  0  0  0  0 
 33 34  1  0  0  0  0 
 33 35  1  0  0  0  0 
 35 36  1  0  0  0  0 
 35 37  2  0  0  0  0 
 29 37  1  0  0  0  0 
 37 38  1  0  0  0  0 
 30 39  1  0  0  0  0 
 39 40  2  0  0  0  0 
 39 41  2  0  0  0  0 
 39 42  1  0  0  0  0 
 42 43  1  0  0  0  0 
 43 44  1  0  0  0  0 
 43 45  1  0  0  0  0 
 43 46  1  0  0  0  0 
 46 47  1  0  0  0  0 
 46 48  1  0  0  0  0 
 46 49  1  0  0  0  0 
 49 50  1  0  0  0  0 
 49 51  1  0  0  0  0 
 49 52  1  0  0  0  0 
 42 52  1  0  0  0  0 
 52 53  1  0  0  0  0 
 52 54  1  0  0  0  0 
 42 55  1  0  0  0  0 
M  CHG  1  42   1
M  CHG  1  55  -1
M  END
> <Rank>
1

> <Priority_score>
0.552

> <Reaction_type>
N-oxidation

> <Parent_ID>
8

> <Parent_InChI>
InChI=1S/C21H28N2O2S/c1-17(2)15-22-16-18-9-11-19(12-10-18)20-7-3-4-8-21(20)26(24,25)23-13-5-6-14-23/h3-4,7-12,17,22H,5-6,13-16H2,1-2H3

> <Parent_SMILES>
CC(C)CNCc1ccc(-c2ccccc2S(=O)(=O)N2CCCC2)cc1

$$$$
Molecule 8_metabolite 2
  CDK     0516241031

 55 57  0  0  0  0  0  0  0  0999 V2000
   -1.3387   -7.1063    0.0000 C   0  0  0  0  0  0  0  0  0  0  0  0
   -0.0385   -7.8543    0.0000 H   0  0  0  0  0  0  0  0  0  0  0  0
   -2.8163   -6.8481    0.0000 H   0  0  0  0  0  0  0  0  0  0  0  0
   -1.8496   -8.5166    0.0000 H   0  0  0  0  0  0  0  0  0  0  0  0
   -1.3409   -5.6063    0.0000 C   0  0  0  0  0  0  0  0  0  0  0  0
    0.1367   -5.8645    0.0000 H   0  0  0  0  0  0  0  0  0  0  0  0
   -0.6665   -3.7447    0.0000 C   0  0  0  0  0  0  0  0  0  0  0  0
   -1.6325   -2.5971    0.0000 H   0  0  0  0  0  0  0  0  0  0  0  0
    0.2959   -2.5942    0.0000 H   0  0  0  0  0  0  0  0  0  0  0  0
    0.6336   -4.4927    0.0000 H   0  0  0  0  0  0  0  0  0  0  0  0
   -2.6411   -4.8583    0.0000 C   0  0  0  0  0  0  0  0  0  0  0  0
   -3.6070   -3.7107    0.0000 H   0  0  0  0  0  0  0  0  0  0  0  0
   -1.6787   -3.7078    0.0000 H   0  0  0  0  0  0  0  0  0  0  0  0
   -4.3543   -5.8509    0.0000 N   0  0  0  0  0  0  0  0  0  0  0  0
   -4.3521   -7.3509    0.0000 H   0  0  0  0  0  0  0  0  0  0  0  0
   -5.6545   -5.1028    0.0000 C   0  0  0  0  0  0  0  0  0  0  0  0
   -6.6204   -3.9552    0.0000 H   0  0  0  0  0  0  0  0  0  0  0  0
   -4.6921   -3.9523    0.0000 H   0  0  0  0  0  0  0  0  0  0  0  0
   -6.9524   -5.8548    0.0000 C   0  0  0  0  0  0  0  0  0  0  0  0
   -6.9323   -7.3038    0.0000 C   0  0  0  0  0  0  0  0  0  0  0  0
   -5.6132   -8.0180    0.0000 H   0  0  0  0  0  0  0  0  0  0  0  0
   -8.1827   -8.0957    0.0000 C   0  0  0  0  0  0  0  0  0  0  0  0
   -8.1601   -9.5956    0.0000 H   0  0  0  0  0  0  0  0  0  0  0  0
   -9.4721   -7.3326    0.0000 C   0  0  0  0  0  0  0  0  0  0  0  0
   -9.4922   -5.8836    0.0000 C   0  0  0  0  0  0  0  0  0  0  0  0
  -10.8113   -5.1694    0.0000 H   0  0  0  0  0  0  0  0  0  0  0  0
   -8.2418   -5.0917    0.0000 C   0  0  0  0  0  0  0  0  0  0  0  0
   -8.2644   -3.5918    0.0000 H   0  0  0  0  0  0  0  0  0  0  0  0
  -10.7700   -8.0846    0.0000 C   0  0  0  0  0  0  0  0  0  0  0  0
  -12.0719   -7.3379    0.0000 C   0  0  0  0  0  0  0  0  0  0  0  0
  -13.3686   -8.0920    0.0000 C   0  0  0  0  0  0  0  0  0  0  0  0
  -14.6701   -7.3464    0.0000 H   0  0  0  0  0  0  0  0  0  0  0  0
  -13.3633   -9.5928    0.0000 C   0  0  0  0  0  0  0  0  0  0  0  0
  -14.6587  -10.3491    0.0000 H   0  0  0  0  0  0  0  0  0  0  0  0
  -12.0664  -10.3309    0.0000 C   0  0  0  0  0  0  0  0  0  0  0  0
  -12.0594  -11.8309    0.0000 H   0  0  0  0  0  0  0  0  0  0  0  0
  -10.7698   -9.5767    0.0000 C   0  0  0  0  0  0  0  0  0  0  0  0
   -9.4695  -10.3246    0.0000 H   0  0  0  0  0  0  0  0  0  0  0  0
  -12.0765   -5.8379    0.0000 S   0  0  0  0  0  0  0  0  0  0  0  0
  -11.5677   -4.4268    0.0000 O   0  0  0  0  0  0  0  0  0  0  0  0
  -10.5985   -6.0939    0.0000 O   0  0  0  0  0  0  0  0  0  0  0  0
  -13.3778   -5.0918    0.0000 N   0  0  0  0  0  0  0  0  0  0  0  0
  -13.5481   -3.5994    0.0000 C   0  0  0  0  0  0  0  0  0  0  0  0
  -13.3978   -2.1070    0.0000 H   0  0  0  0  0  0  0  0  0  0  0  0
  -12.0481   -3.5895    0.0000 H   0  0  0  0  0  0  0  0  0  0  0  0
  -15.0088   -3.2922    0.0000 C   0  0  0  0  0  0  0  0  0  0  0  0
  -16.3807   -2.6859    0.0000 H   0  0  0  0  0  0  0  0  0  0  0  0
  -14.5487   -1.8645    0.0000 H   0  0  0  0  0  0  0  0  0  0  0  0
  -15.7548   -4.5935    0.0000 C   0  0  0  0  0  0  0  0  0  0  0  0
  -16.7545   -5.7119    0.0000 H   0  0  0  0  0  0  0  0  0  0  0  0
  -14.7517   -5.6989    0.0000 C   0  0  0  0  0  0  0  0  0  0  0  0
  -14.0025   -6.9983    0.0000 H   0  0  0  0  0  0  0  0  0  0  0  0
  -15.9638   -6.5826    0.0000 H   0  0  0  0  0  0  0  0  0  0  0  0
  -16.9713   -3.7159    0.0000 O   0  0  0  0  0  0  0  0  0  0  0  0
  -18.3395   -4.3305    0.0000 H   0  0  0  0  0  0  0  0  0  0  0  0
  1  2  1  0  0  0  0 
  1  3  1  0  0  0  0 
  1  4  1  0  0  0  0 
  1  5  1  0  0  0  0 
  5  6  1  0  0  0  0 
  5  7  1  0  0  0  0 
  7  8  1  0  0  0  0 
  7  9  1  0  0  0  0 
  7 10  1  0  0  0  0 
  5 11  1  0  0  0  0 
 11 12  1  0  0  0  0 
 11 13  1  0  0  0  0 
 11 14  1  0  0  0  0 
 14 15  1  0  0  0  0 
 14 16  1  0  0  0  0 
 16 17  1  0  0  0  0 
 16 18  1  0  0  0  0 
 16 19  1  0  0  0  0 
 19 20  2  0  0  0  0 
 20 21  1  0  0  0  0 
 20 22  1  0  0  0  0 
 22 23  1  0  0  0  0 
 22 24  2  0  0  0  0 
 24 25  1  0  0  0  0 
 25 26  1  0  0  0  0 
 25 27  2  0  0  0  0 
 19 27  1  0  0  0  0 
 27 28  1  0  0  0  0 
 24 29  1  0  0  0  0 
 29 30  2  0  0  0  0 
 30 31  1  0  0  0  0 
 31 32  1  0  0  0  0 
 31 33  2  0  0  0  0 
 33 34  1  0  0  0  0 
 33 35  1  0  0  0  0 
 35 36  1  0  0  0  0 
 35 37  2  0  0  0  0 
 29 37  1  0  0  0  0 
 37 38  1  0  0  0  0 
 30 39  1  0  0  0  0 
 39 40  2  0  0  0  0 
 39 41  2  0  0  0  0 
 39 42  1  0  0  0  0 
 42 43  1  0  0  0  0 
 43 44  1  0  0  0  0 
 43 45  1  0  0  0  0 
 43 46  1  0  0  0  0 
 46 47  1  0  0  0  0 
 46 48  1  0  0  0  0 
 46 49  1  0  0  0  0 
 49 50  1  0  0  0  0 
 49 51  1  0  0  0  0 
 42 51  1  0  0  0  0 
 51 52  1  0  0  0  0 
 51 53  1  0  0  0  0 
 49 54  1  0  0  0  0 
 54 55  1  0  0  0  0 
M  END
> <Rank>
1

> <Priority_score>
0.552

> <Reaction_type>
aliphatic_hydroxylation_(sec_carbon_in_a_ringA)

> <Parent_ID>
8

> <Parent_InChI>
InChI=1S/C21H28N2O2S/c1-17(2)15-22-16-18-9-11-19(12-10-18)20-7-3-4-8-21(20)26(24,25)23-13-5-6-14-23/h3-4,7-12,17,22H,5-6,13-16H2,1-2H3

> <Parent_SMILES>
CC(C)CNCc1ccc(-c2ccccc2S(=O)(=O)N2CCCC2)cc1

$$$$
Molecule 8_metabolite 3
  CDK     0516241031

 55 56  0  0  0  0  0  0  0  0999 V2000
   -4.6467    3.2914    0.0000 C   0  0  0  0  0  0  0  0  0  0  0  0
   -4.6957    4.7906    0.0000 H   0  0  0  0  0  0  0  0  0  0  0  0
   -6.1316    3.5034    0.0000 H   0  0  0  0  0  0  0  0  0  0  0  0
   -5.1133    1.8659    0.0000 H   0  0  0  0  0  0  0  0  0  0  0  0
   -2.9005    2.3580    0.0000 C   0  0  0  0  0  0  0  0  0  0  0  0
   -1.4156    2.1460    0.0000 H   0  0  0  0  0  0  0  0  0  0  0  0
   -2.4338    3.7836    0.0000 C   0  0  0  0  0  0  0  0  0  0  0  0
   -3.4350    4.9005    0.0000 H   0  0  0  0  0  0  0  0  0  0  0  0
   -1.1110    3.0764    0.0000 H   0  0  0  0  0  0  0  0  0  0  0  0
   -1.5077    4.9635    0.0000 H   0  0  0  0  0  0  0  0  0  0  0  0
   -2.8514    0.8588    0.0000 C   0  0  0  0  0  0  0  0  0  0  0  0
   -4.3364    1.0708    0.0000 H   0  0  0  0  0  0  0  0  0  0  0  0
   -3.3181   -0.5668    0.0000 H   0  0  0  0  0  0  0  0  0  0  0  0
   -1.1053   -0.0746    0.0000 N   0  0  0  0  0  0  0  0  0  0  0  0
    0.1686    0.7175    0.0000 H   0  0  0  0  0  0  0  0  0  0  0  0
   -1.0562   -1.5738    0.0000 C   0  0  0  0  0  0  0  0  0  0  0  0
   -2.5412   -1.3618    0.0000 H   0  0  0  0  0  0  0  0  0  0  0  0
   -1.5229   -2.9994    0.0000 H   0  0  0  0  0  0  0  0  0  0  0  0
    0.2666   -2.2809    0.0000 C   0  0  0  0  0  0  0  0  0  0  0  0
    0.2962   -3.7298    0.0000 C   0  0  0  0  0  0  0  0  0  0  0  0
   -0.9978   -4.4886    0.0000 H   0  0  0  0  0  0  0  0  0  0  0  0
    1.5729   -4.4785    0.0000 C   0  0  0  0  0  0  0  0  0  0  0  0
    1.6016   -5.9782    0.0000 H   0  0  0  0  0  0  0  0  0  0  0  0
    2.8354   -3.6717    0.0000 C   0  0  0  0  0  0  0  0  0  0  0  0
    2.8059   -2.2228    0.0000 C   0  0  0  0  0  0  0  0  0  0  0  0
    4.0998   -1.4640    0.0000 H   0  0  0  0  0  0  0  0  0  0  0  0
    1.5292   -1.4741    0.0000 C   0  0  0  0  0  0  0  0  0  0  0  0
    1.5005    0.0256    0.0000 H   0  0  0  0  0  0  0  0  0  0  0  0
    4.1583   -4.3788    0.0000 C   0  0  0  0  0  0  0  0  0  0  0  0
    5.4339   -3.5880    0.0000 C   0  0  0  0  0  0  0  0  0  0  0  0
    6.7556   -4.2973    0.0000 C   0  0  0  0  0  0  0  0  0  0  0  0
    8.0308   -3.5076    0.0000 H   0  0  0  0  0  0  0  0  0  0  0  0
    6.8016   -5.7975    0.0000 C   0  0  0  0  0  0  0  0  0  0  0  0
    8.1221   -6.5090    0.0000 H   0  0  0  0  0  0  0  0  0  0  0  0
    5.5308   -6.5794    0.0000 C   0  0  0  0  0  0  0  0  0  0  0  0
    5.5750   -8.0788    0.0000 H   0  0  0  0  0  0  0  0  0  0  0  0
    4.2091   -5.8701    0.0000 C   0  0  0  0  0  0  0  0  0  0  0  0
    2.9351   -6.6620    0.0000 H   0  0  0  0  0  0  0  0  0  0  0  0
    5.3871   -2.0887    0.0000 S   0  0  0  0  0  0  0  0  0  0  0  0
    4.8304   -0.6959    0.0000 O   0  0  0  0  0  0  0  0  0  0  0  0
    3.9188   -2.3951    0.0000 O   0  0  0  0  0  0  0  0  0  0  0  0
    6.6621   -1.2986    0.0000 N   0  0  0  0  0  0  0  0  0  0  0  0
    6.6154    0.2007    0.0000 H   0  0  0  0  0  0  0  0  0  0  0  0
    7.9839   -2.0077    0.0000 C   0  0  0  0  0  0  0  0  0  0  0  0
    7.0561   -3.1863    0.0000 H   0  0  0  0  0  0  0  0  0  0  0  0
    8.9835   -3.1262    0.0000 H   0  0  0  0  0  0  0  0  0  0  0  0
    9.6670   -0.9647    0.0000 C   0  0  0  0  0  0  0  0  0  0  0  0
   10.5949    0.2138    0.0000 H   0  0  0  0  0  0  0  0  0  0  0  0
    8.6674    0.1537    0.0000 H   0  0  0  0  0  0  0  0  0  0  0  0
   10.9888   -1.6739    0.0000 C   0  0  0  0  0  0  0  0  0  0  0  0
   10.0609   -2.8524    0.0000 H   0  0  0  0  0  0  0  0  0  0  0  0
   11.9883   -2.7923    0.0000 H   0  0  0  0  0  0  0  0  0  0  0  0
   12.2638   -0.8837    0.0000 C   0  0  0  0  0  0  0  0  0  0  0  0
   13.5856   -1.5929    0.0000 H   0  0  0  0  0  0  0  0  0  0  0  0
   12.2170    0.6155    0.0000 O   0  0  0  0  0  0  0  0  0  0  0  0
  1  2  1  0  0  0  0 
  1  3  1  0  0  0  0 
  1  4  1  0  0  0  0 
  1  5  1  0  0  0  0 
  5  6  1  0  0  0  0 
  5  7  1  0  0  0  0 
  7  8  1  0  0  0  0 
  7  9  1  0  0  0  0 
  7 10  1  0  0  0  0 
  5 11  1  0  0  0  0 
 11 12  1  0  0  0  0 
 11 13  1  0  0  0  0 
 11 14  1  0  0  0  0 
 14 15  1  0  0  0  0 
 14 16  1  0  0  0  0 
 16 17  1  0  0  0  0 
 16 18  1  0  0  0  0 
 16 19  1  0  0  0  0 
 19 20  2  0  0  0  0 
 20 21  1  0  0  0  0 
 20 22  1  0  0  0  0 
 22 23  1  0  0  0  0 
 22 24  2  0  0  0  0 
 24 25  1  0  0  0  0 
 25 26  1  0  0  0  0 
 25 27  2  0  0  0  0 
 19 27  1  0  0  0  0 
 27 28  1  0  0  0  0 
 24 29  1  0  0  0  0 
 29 30  2  0  0  0  0 
 30 31  1  0  0  0  0 
 31 32  1  0  0  0  0 
 31 33  2  0  0  0  0 
 33 34  1  0  0  0  0 
 33 35  1  0  0  0  0 
 35 36  1  0  0  0  0 
 35 37  2  0  0  0  0 
 29 37  1  0  0  0  0 
 37 38  1  0  0  0  0 
 30 39  1  0  0  0  0 
 39 40  2  0  0  0  0 
 39 41  2  0  0  0  0 
 39 42  1  0  0  0  0 
 42 43  1  0  0  0  0 
 42 44  1  0  0  0  0 
 44 45  1  0  0  0  0 
 44 46  1  0  0  0  0 
 44 47  1  0  0  0  0 
 47 48  1  0  0  0  0 
 47 49  1  0  0  0  0 
 47 50  1  0  0  0  0 
 50 51  1  0  0  0  0 
 50 52  1  0  0  0  0 
 50 53  1  0  0  0  0 
 53 54  1  0  0  0  0 
 53 55  2  0  0  0  0 
M  END
> <Rank>
1

> <Priority_score>
0.552

> <Reaction_type>
N-dealkylation

> <Parent_ID>
8

> <Parent_InChI>
InChI=1S/C21H28N2O2S/c1-17(2)15-22-16-18-9-11-19(12-10-18)20-7-3-4-8-21(20)26(24,25)23-13-5-6-14-23/h3-4,7-12,17,22H,5-6,13-16H2,1-2H3

> <Parent_SMILES>
CC(C)CNCc1ccc(-c2ccccc2S(=O)(=O)N2CCCC2)cc1

$$$$
Molecule 8_metabolite 4
  CDK     0516241031

 55 57  0  0  0  0  0  0  0  0999 V2000
   -1.7171   -7.3248    0.0000 C   0  0  0  0  0  0  0  0  0  0  0  0
   -0.4170   -8.0729    0.0000 H   0  0  0  0  0  0  0  0  0  0  0  0
   -3.1947   -7.0666    0.0000 H   0  0  0  0  0  0  0  0  0  0  0  0
   -2.2280   -8.7351    0.0000 H   0  0  0  0  0  0  0  0  0  0  0  0
   -1.7194   -5.8248    0.0000 C   0  0  0  0  0  0  0  0  0  0  0  0
   -0.2418   -6.0831    0.0000 H   0  0  0  0  0  0  0  0  0  0  0  0
   -1.0450   -3.9632    0.0000 C   0  0  0  0  0  0  0  0  0  0  0  0
   -2.0109   -2.8156    0.0000 H   0  0  0  0  0  0  0  0  0  0  0  0
   -0.0826   -2.8127    0.0000 H   0  0  0  0  0  0  0  0  0  0  0  0
    0.2552   -4.7112    0.0000 H   0  0  0  0  0  0  0  0  0  0  0  0
   -3.0196   -5.0768    0.0000 C   0  0  0  0  0  0  0  0  0  0  0  0
   -3.9855   -3.9292    0.0000 H   0  0  0  0  0  0  0  0  0  0  0  0
   -2.0571   -3.9263    0.0000 H   0  0  0  0  0  0  0  0  0  0  0  0
   -4.7328   -6.0694    0.0000 N   0  0  0  0  0  0  0  0  0  0  0  0
   -4.7305   -7.5694    0.0000 H   0  0  0  0  0  0  0  0  0  0  0  0
   -6.0330   -5.3214    0.0000 C   0  0  0  0  0  0  0  0  0  0  0  0
   -6.9989   -4.1738    0.0000 H   0  0  0  0  0  0  0  0  0  0  0  0
   -5.0705   -4.1708    0.0000 H   0  0  0  0  0  0  0  0  0  0  0  0
   -7.3309   -6.0733    0.0000 C   0  0  0  0  0  0  0  0  0  0  0  0
   -7.3108   -7.5224    0.0000 C   0  0  0  0  0  0  0  0  0  0  0  0
   -5.9917   -8.2365    0.0000 H   0  0  0  0  0  0  0  0  0  0  0  0
   -8.5612   -8.3142    0.0000 C   0  0  0  0  0  0  0  0  0  0  0  0
   -8.5386   -9.8141    0.0000 H   0  0  0  0  0  0  0  0  0  0  0  0
   -9.8506   -7.5511    0.0000 C   0  0  0  0  0  0  0  0  0  0  0  0
   -9.8707   -6.1021    0.0000 C   0  0  0  0  0  0  0  0  0  0  0  0
  -11.1898   -5.3879    0.0000 H   0  0  0  0  0  0  0  0  0  0  0  0
   -8.6203   -5.3102    0.0000 C   0  0  0  0  0  0  0  0  0  0  0  0
   -8.6429   -3.8103    0.0000 H   0  0  0  0  0  0  0  0  0  0  0  0
  -11.1485   -8.3031    0.0000 C   0  0  0  0  0  0  0  0  0  0  0  0
  -12.4504   -7.5564    0.0000 C   0  0  0  0  0  0  0  0  0  0  0  0
  -13.7470   -8.3105    0.0000 C   0  0  0  0  0  0  0  0  0  0  0  0
  -15.0486   -7.5649    0.0000 H   0  0  0  0  0  0  0  0  0  0  0  0
  -13.7418   -9.8113    0.0000 C   0  0  0  0  0  0  0  0  0  0  0  0
  -15.0372  -10.5676    0.0000 H   0  0  0  0  0  0  0  0  0  0  0  0
  -12.4449  -10.5494    0.0000 C   0  0  0  0  0  0  0  0  0  0  0  0
  -12.4378  -12.0494    0.0000 H   0  0  0  0  0  0  0  0  0  0  0  0
  -11.1483   -9.7952    0.0000 C   0  0  0  0  0  0  0  0  0  0  0  0
   -9.8480  -10.5431    0.0000 H   0  0  0  0  0  0  0  0  0  0  0  0
  -12.4549   -6.0564    0.0000 S   0  0  0  0  0  0  0  0  0  0  0  0
  -11.9462   -4.6453    0.0000 O   0  0  0  0  0  0  0  0  0  0  0  0
  -10.9770   -6.3124    0.0000 O   0  0  0  0  0  0  0  0  0  0  0  0
  -13.7562   -5.3103    0.0000 N   0  0  0  0  0  0  0  0  0  0  0  0
  -13.9265   -3.8179    0.0000 C   0  0  0  0  0  0  0  0  0  0  0  0
  -13.7763   -2.3255    0.0000 H   0  0  0  0  0  0  0  0  0  0  0  0
  -12.4266   -3.8080    0.0000 H   0  0  0  0  0  0  0  0  0  0  0  0
  -15.3872   -3.5107    0.0000 C   0  0  0  0  0  0  0  0  0  0  0  0
  -16.7592   -2.9044    0.0000 H   0  0  0  0  0  0  0  0  0  0  0  0
  -14.9272   -2.0830    0.0000 H   0  0  0  0  0  0  0  0  0  0  0  0
  -16.1333   -4.8120    0.0000 C   0  0  0  0  0  0  0  0  0  0  0  0
  -17.1329   -5.9304    0.0000 H   0  0  0  0  0  0  0  0  0  0  0  0
  -17.3497   -3.9344    0.0000 H   0  0  0  0  0  0  0  0  0  0  0  0
  -15.1302   -5.9174    0.0000 C   0  0  0  0  0  0  0  0  0  0  0  0
  -14.3809   -7.2169    0.0000 H   0  0  0  0  0  0  0  0  0  0  0  0
  -16.3422   -6.8011    0.0000 O   0  0  0  0  0  0  0  0  0  0  0  0
  -16.1830   -8.2926    0.0000 H   0  0  0  0  0  0  0  0  0  0  0  0
  1  2  1  0  0  0  0 
  1  3  1  0  0  0  0 
  1  4  1  0  0  0  0 
  1  5  1  0  0  0  0 
  5  6  1  0  0  0  0 
  5  7  1  0  0  0  0 
  7  8  1  0  0  0  0 
  7  9  1  0  0  0  0 
  7 10  1  0  0  0  0 
  5 11  1  0  0  0  0 
 11 12  1  0  0  0  0 
 11 13  1  0  0  0  0 
 11 14  1  0  0  0  0 
 14 15  1  0  0  0  0 
 14 16  1  0  0  0  0 
 16 17  1  0  0  0  0 
 16 18  1  0  0  0  0 
 16 19  1  0  0  0  0 
 19 20  2  0  0  0  0 
 20 21  1  0  0  0  0 
 20 22  1  0  0  0  0 
 22 23  1  0  0  0  0 
 22 24  2  0  0  0  0 
 24 25  1  0  0  0  0 
 25 26  1  0  0  0  0 
 25 27  2  0  0  0  0 
 19 27  1  0  0  0  0 
 27 28  1  0  0  0  0 
 24 29  1  0  0  0  0 
 29 30  2  0  0  0  0 
 30 31  1  0  0  0  0 
 31 32  1  0  0  0  0 
 31 33  2  0  0  0  0 
 33 34  1  0  0  0  0 
 33 35  1  0  0  0  0 
 35 36  1  0  0  0  0 
 35 37  2  0  0  0  0 
 29 37  1  0  0  0  0 
 37 38  1  0  0  0  0 
 30 39  1  0  0  0  0 
 39 40  2  0  0  0  0 
 39 41  2  0  0  0  0 
 39 42  1  0  0  0  0 
 42 43  1  0  0  0  0 
 43 44  1  0  0  0  0 
 43 45  1  0  0  0  0 
 43 46  1  0  0  0  0 
 46 47  1  0  0  0  0 
 46 48  1  0  0  0  0 
 46 49  1  0  0  0  0 
 49 50  1  0  0  0  0 
 49 51  1  0  0  0  0 
 49 52  1  0  0  0  0 
 42 52  1  0  0  0  0 
 52 53  1  0  0  0  0 
 52 54  1  0  0  0  0 
 54 55  1  0  0  0  0 
M  END
> <Rank>
1

> <Priority_score>
0.552

> <Reaction_type>
aliphatic_hydroxylation_(sec_carbon_next_to_SP2,in_a_ring)

> <Parent_ID>
8

> <Parent_InChI>
InChI=1S/C21H28N2O2S/c1-17(2)15-22-16-18-9-11-19(12-10-18)20-7-3-4-8-21(20)26(24,25)23-13-5-6-14-23/h3-4,7-12,17,22H,5-6,13-16H2,1-2H3

> <Parent_SMILES>
CC(C)CNCc1ccc(-c2ccccc2S(=O)(=O)N2CCCC2)cc1

$$$$
Molecule 8_metabolite 5
  CDK     0516241031

 53 55  0  0  0  0  0  0  0  0999 V2000
   15.9855   -4.5643    0.0000 C   0  0  0  0  0  0  0  0  0  0  0  0
   17.2857   -3.8162    0.0000 H   0  0  0  0  0  0  0  0  0  0  0  0
   14.5079   -4.8225    0.0000 H   0  0  0  0  0  0  0  0  0  0  0  0
   15.4746   -3.1540    0.0000 H   0  0  0  0  0  0  0  0  0  0  0  0
   15.9832   -6.0643    0.0000 C   0  0  0  0  0  0  0  0  0  0  0  0
   17.4608   -5.8060    0.0000 H   0  0  0  0  0  0  0  0  0  0  0  0
   16.6576   -7.9259    0.0000 C   0  0  0  0  0  0  0  0  0  0  0  0
   15.6917   -9.0735    0.0000 H   0  0  0  0  0  0  0  0  0  0  0  0
   17.6200   -9.0764    0.0000 H   0  0  0  0  0  0  0  0  0  0  0  0
   17.9578   -7.1779    0.0000 H   0  0  0  0  0  0  0  0  0  0  0  0
   14.6831   -6.8123    0.0000 C   0  0  0  0  0  0  0  0  0  0  0  0
   13.7171   -7.9599    0.0000 H   0  0  0  0  0  0  0  0  0  0  0  0
   15.6455   -7.9628    0.0000 H   0  0  0  0  0  0  0  0  0  0  0  0
   12.9698   -5.8197    0.0000 N   0  0  0  0  0  0  0  0  0  0  0  0
   12.9721   -4.3197    0.0000 H   0  0  0  0  0  0  0  0  0  0  0  0
   11.6697   -6.5677    0.0000 C   0  0  0  0  0  0  0  0  0  0  0  0
   10.7037   -7.7153    0.0000 H   0  0  0  0  0  0  0  0  0  0  0  0
   12.6321   -7.7183    0.0000 H   0  0  0  0  0  0  0  0  0  0  0  0
   10.3718   -5.8158    0.0000 C   0  0  0  0  0  0  0  0  0  0  0  0
   10.3918   -4.3667    0.0000 C   0  0  0  0  0  0  0  0  0  0  0  0
   11.7109   -3.6526    0.0000 H   0  0  0  0  0  0  0  0  0  0  0  0
    9.1414   -3.5748    0.0000 C   0  0  0  0  0  0  0  0  0  0  0  0
    9.1641   -2.0750    0.0000 H   0  0  0  0  0  0  0  0  0  0  0  0
    7.8520   -4.3380    0.0000 C   0  0  0  0  0  0  0  0  0  0  0  0
    7.8320   -5.7870    0.0000 C   0  0  0  0  0  0  0  0  0  0  0  0
    6.5129   -6.5012    0.0000 H   0  0  0  0  0  0  0  0  0  0  0  0
    9.0823   -6.5789    0.0000 C   0  0  0  0  0  0  0  0  0  0  0  0
    9.0597   -8.0788    0.0000 H   0  0  0  0  0  0  0  0  0  0  0  0
    6.5541   -3.5860    0.0000 C   0  0  0  0  0  0  0  0  0  0  0  0
    5.2522   -4.3327    0.0000 C   0  0  0  0  0  0  0  0  0  0  0  0
    3.9556   -3.5786    0.0000 C   0  0  0  0  0  0  0  0  0  0  0  0
    2.6540   -4.3242    0.0000 H   0  0  0  0  0  0  0  0  0  0  0  0
    3.9609   -2.0778    0.0000 C   0  0  0  0  0  0  0  0  0  0  0  0
    2.6655   -1.3214    0.0000 H   0  0  0  0  0  0  0  0  0  0  0  0
    5.2577   -1.3397    0.0000 C   0  0  0  0  0  0  0  0  0  0  0  0
    5.2648    0.1603    0.0000 H   0  0  0  0  0  0  0  0  0  0  0  0
    6.5544   -2.0939    0.0000 C   0  0  0  0  0  0  0  0  0  0  0  0
    7.8547   -1.3460    0.0000 H   0  0  0  0  0  0  0  0  0  0  0  0
    5.2477   -5.8327    0.0000 S   0  0  0  0  0  0  0  0  0  0  0  0
    5.7564   -7.2438    0.0000 O   0  0  0  0  0  0  0  0  0  0  0  0
    6.7257   -5.5767    0.0000 O   0  0  0  0  0  0  0  0  0  0  0  0
    3.9464   -6.5788    0.0000 N   0  0  0  0  0  0  0  0  0  0  0  0
    2.5724   -5.9717    0.0000 C   0  0  0  0  0  0  0  0  0  0  0  0
    1.3604   -5.0880    0.0000 H   0  0  0  0  0  0  0  0  0  0  0  0
    3.3217   -4.6722    0.0000 H   0  0  0  0  0  0  0  0  0  0  0  0
    1.5693   -7.0771    0.0000 C   0  0  0  0  0  0  0  0  0  0  0  0
    0.3529   -7.9547    0.0000 H   0  0  0  0  0  0  0  0  0  0  0  0
    0.5697   -5.9587    0.0000 H   0  0  0  0  0  0  0  0  0  0  0  0
    2.3154   -8.3784    0.0000 C   0  0  0  0  0  0  0  0  0  0  0  0
    2.7754   -9.8061    0.0000 H   0  0  0  0  0  0  0  0  0  0  0  0
    0.9434   -8.9847    0.0000 H   0  0  0  0  0  0  0  0  0  0  0  0
    3.7761   -8.0712    0.0000 C   0  0  0  0  0  0  0  0  0  0  0  0
    4.8853   -9.0810    0.0000 O   0  0  0  0  0  0  0  0  0  0  0  0
  1  2  1  0  0  0  0 
  1  3  1  0  0  0  0 
  1  4  1  0  0  0  0 
  1  5  1  0  0  0  0 
  5  6  1  0  0  0  0 
  5  7  1  0  0  0  0 
  7  8  1  0  0  0  0 
  7  9  1  0  0  0  0 
  7 10  1  0  0  0  0 
  5 11  1  0  0  0  0 
 11 12  1  0  0  0  0 
 11 13  1  0  0  0  0 
 11 14  1  0  0  0  0 
 14 15  1  0  0  0  0 
 14 16  1  0  0  0  0 
 16 17  1  0  0  0  0 
 16 18  1  0  0  0  0 
 16 19  1  0  0  0  0 
 19 20  2  0  0  0  0 
 20 21  1  0  0  0  0 
 20 22  1  0  0  0  0 
 22 23  1  0  0  0  0 
 22 24  2  0  0  0  0 
 24 25  1  0  0  0  0 
 25 26  1  0  0  0  0 
 25 27  2  0  0  0  0 
 19 27  1  0  0  0  0 
 27 28  1  0  0  0  0 
 24 29  1  0  0  0  0 
 29 30  2  0  0  0  0 
 30 31  1  0  0  0  0 
 31 32  1  0  0  0  0 
 31 33  2  0  0  0  0 
 33 34  1  0  0  0  0 
 33 35  1  0  0  0  0 
 35 36  1  0  0  0  0 
 35 37  2  0  0  0  0 
 29 37  1  0  0  0  0 
 37 38  1  0  0  0  0 
 30 39  1  0  0  0  0 
 39 40  2  0  0  0  0 
 39 41  2  0  0  0  0 
 39 42  1  0  0  0  0 
 42 43  1  0  0  0  0 
 43 44  1  0  0  0  0 
 43 45  1  0  0  0  0 
 43 46  1  0  0  0  0 
 46 47  1  0  0  0  0 
 46 48  1  0  0  0  0 
 46 49  1  0  0  0  0 
 49 50  1  0  0  0  0 
 49 51  1  0  0  0  0 
 49 52  1  0  0  0  0 
 42 52  1  0  0  0  0 
 52 53  2  0  0  0  0 
M  END
> <Rank>
1

> <Priority_score>
0.552

> <Reaction_type>
oxidation_(amine_in_a_ring)

> <Parent_ID>
8

> <Parent_InChI>
InChI=1S/C21H28N2O2S/c1-17(2)15-22-16-18-9-11-19(12-10-18)20-7-3-4-8-21(20)26(24,25)23-13-5-6-14-23/h3-4,7-12,17,22H,5-6,13-16H2,1-2H3

> <Parent_SMILES>
CC(C)CNCc1ccc(-c2ccccc2S(=O)(=O)N2CCCC2)cc1

$$$$
Molecule 8_metabolite 6
  CDK     0516241031

 41 43  0  0  0  0  0  0  0  0999 V2000
   -1.0200    0.1440    0.0000 C   0  0  0  0  0  0  0  0  0  0  0  0
   -1.0175    1.6440    0.0000 H   0  0  0  0  0  0  0  0  0  0  0  0
    0.2789   -0.6062    0.0000 C   0  0  0  0  0  0  0  0  0  0  0  0
    1.5769    0.1456    0.0000 H   0  0  0  0  0  0  0  0  0  0  0  0
    0.2832   -2.0984    0.0000 C   0  0  0  0  0  0  0  0  0  0  0  0
   -1.0165   -2.8490    0.0000 C   0  0  0  0  0  0  0  0  0  0  0  0
   -2.3154   -2.0988    0.0000 C   0  0  0  0  0  0  0  0  0  0  0  0
   -3.6147   -2.8484    0.0000 H   0  0  0  0  0  0  0  0  0  0  0  0
   -2.3147   -0.5979    0.0000 C   0  0  0  0  0  0  0  0  0  0  0  0
   -3.6123    0.1544    0.0000 H   0  0  0  0  0  0  0  0  0  0  0  0
   -1.0165   -4.3490    0.0000 S   0  0  0  0  0  0  0  0  0  0  0  0
   -0.5034   -5.7585    0.0000 O   0  0  0  0  0  0  0  0  0  0  0  0
    0.4608   -4.0885    0.0000 O   0  0  0  0  0  0  0  0  0  0  0  0
   -2.3155   -5.0990    0.0000 N   0  0  0  0  0  0  0  0  0  0  0  0
   -2.4813   -6.5919    0.0000 C   0  0  0  0  0  0  0  0  0  0  0  0
   -2.3265   -8.0839    0.0000 H   0  0  0  0  0  0  0  0  0  0  0  0
   -0.9813   -6.5973    0.0000 H   0  0  0  0  0  0  0  0  0  0  0  0
   -3.9410   -6.9035    0.0000 C   0  0  0  0  0  0  0  0  0  0  0  0
   -5.3112   -7.5140    0.0000 H   0  0  0  0  0  0  0  0  0  0  0  0
   -3.4766   -8.3298    0.0000 H   0  0  0  0  0  0  0  0  0  0  0  0
   -4.6910   -5.6045    0.0000 C   0  0  0  0  0  0  0  0  0  0  0  0
   -5.6941   -4.4892    0.0000 H   0  0  0  0  0  0  0  0  0  0  0  0
   -5.9048   -6.4858    0.0000 H   0  0  0  0  0  0  0  0  0  0  0  0
   -3.6913   -4.4961    0.0000 C   0  0  0  0  0  0  0  0  0  0  0  0
   -2.9460   -3.1944    0.0000 H   0  0  0  0  0  0  0  0  0  0  0  0
   -4.9060   -3.6161    0.0000 H   0  0  0  0  0  0  0  0  0  0  0  0
    1.5834   -2.8464    0.0000 C   0  0  0  0  0  0  0  0  0  0  0  0
    1.5677   -4.2955    0.0000 C   0  0  0  0  0  0  0  0  0  0  0  0
    0.2508   -5.0136    0.0000 H   0  0  0  0  0  0  0  0  0  0  0  0
    2.8204   -5.0836    0.0000 C   0  0  0  0  0  0  0  0  0  0  0  0
    2.8024   -6.5835    0.0000 H   0  0  0  0  0  0  0  0  0  0  0  0
    4.1075   -4.3165    0.0000 C   0  0  0  0  0  0  0  0  0  0  0  0
    4.1232   -2.8674    0.0000 C   0  0  0  0  0  0  0  0  0  0  0  0
    5.4401   -2.1493    0.0000 H   0  0  0  0  0  0  0  0  0  0  0  0
    2.8705   -2.0793    0.0000 C   0  0  0  0  0  0  0  0  0  0  0  0
    2.8885   -0.5795    0.0000 H   0  0  0  0  0  0  0  0  0  0  0  0
    5.4077   -5.0646    0.0000 C   0  0  0  0  0  0  0  0  0  0  0  0
    4.4453   -6.2151    0.0000 H   0  0  0  0  0  0  0  0  0  0  0  0
    6.3736   -6.2122    0.0000 H   0  0  0  0  0  0  0  0  0  0  0  0
    6.7056   -4.3126    0.0000 O   0  0  0  0  0  0  0  0  0  0  0  0
    8.0058   -5.0606    0.0000 H   0  0  0  0  0  0  0  0  0  0  0  0
  1  2  1  0  0  0  0 
  1  3  2  0  0  0  0 
  3  4  1  0  0  0  0 
  3  5  1  0  0  0  0 
  5  6  2  0  0  0  0 
  6  7  1  0  0  0  0 
  7  8  1  0  0  0  0 
  7  9  2  0  0  0  0 
  1  9  1  0  0  0  0 
  9 10  1  0  0  0  0 
  6 11  1  0  0  0  0 
 11 12  2  0  0  0  0 
 11 13  2  0  0  0  0 
 11 14  1  0  0  0  0 
 14 15  1  0  0  0  0 
 15 16  1  0  0  0  0 
 15 17  1  0  0  0  0 
 15 18  1  0  0  0  0 
 18 19  1  0  0  0  0 
 18 20  1  0  0  0  0 
 18 21  1  0  0  0  0 
 21 22  1  0  0  0  0 
 21 23  1  0  0  0  0 
 21 24  1  0  0  0  0 
 14 24  1  0  0  0  0 
 24 25  1  0  0  0  0 
 24 26  1  0  0  0  0 
  5 27  1  0  0  0  0 
 27 28  2  0  0  0  0 
 28 29  1  0  0  0  0 
 28 30  1  0  0  0  0 
 30 31  1  0  0  0  0 
 30 32  2  0  0  0  0 
 32 33  1  0  0  0  0 
 33 34  1  0  0  0  0 
 33 35  2  0  0  0  0 
 27 35  1  0  0  0  0 
 35 36  1  0  0  0  0 
 32 37  1  0  0  0  0 
 37 38  1  0  0  0  0 
 37 39  1  0  0  0  0 
 37 40  1  0  0  0  0 
 40 41  1  0  0  0  0 
M  END
> <Rank>
6

> <Priority_score>
0.444

> <Reaction_type>
N-dealkylation_(R-NHCH2-alkyl)

> <Parent_ID>
8

> <Parent_InChI>
InChI=1S/C21H28N2O2S/c1-17(2)15-22-16-18-9-11-19(12-10-18)20-7-3-4-8-21(20)26(24,25)23-13-5-6-14-23/h3-4,7-12,17,22H,5-6,13-16H2,1-2H3

> <Parent_SMILES>
CC(C)CNCc1ccc(-c2ccccc2S(=O)(=O)N2CCCC2)cc1

$$$$
Molecule 8_metabolite 7
  CDK     0516241031

 55 57  0  0  0  0  0  0  0  0999 V2000
   -1.7171   -7.3248    0.0000 C   0  0  0  0  0  0  0  0  0  0  0  0
   -0.4170   -8.0729    0.0000 H   0  0  0  0  0  0  0  0  0  0  0  0
   -3.1947   -7.0666    0.0000 H   0  0  0  0  0  0  0  0  0  0  0  0
   -2.2280   -8.7351    0.0000 H   0  0  0  0  0  0  0  0  0  0  0  0
   -1.7194   -5.8248    0.0000 C   0  0  0  0  0  0  0  0  0  0  0  0
   -0.2418   -6.0831    0.0000 H   0  0  0  0  0  0  0  0  0  0  0  0
   -1.0450   -3.9632    0.0000 C   0  0  0  0  0  0  0  0  0  0  0  0
   -2.0109   -2.8156    0.0000 H   0  0  0  0  0  0  0  0  0  0  0  0
   -0.0826   -2.8127    0.0000 H   0  0  0  0  0  0  0  0  0  0  0  0
    0.2552   -4.7112    0.0000 H   0  0  0  0  0  0  0  0  0  0  0  0
   -3.0196   -5.0768    0.0000 C   0  0  0  0  0  0  0  0  0  0  0  0
   -3.9855   -3.9292    0.0000 H   0  0  0  0  0  0  0  0  0  0  0  0
   -2.0571   -3.9263    0.0000 H   0  0  0  0  0  0  0  0  0  0  0  0
   -4.7328   -6.0694    0.0000 N   0  0  0  0  0  0  0  0  0  0  0  0
   -6.0330   -5.3214    0.0000 C   0  0  0  0  0  0  0  0  0  0  0  0
   -6.9989   -4.1738    0.0000 H   0  0  0  0  0  0  0  0  0  0  0  0
   -5.0705   -4.1708    0.0000 H   0  0  0  0  0  0  0  0  0  0  0  0
   -7.3309   -6.0733    0.0000 C   0  0  0  0  0  0  0  0  0  0  0  0
   -7.3108   -7.5224    0.0000 C   0  0  0  0  0  0  0  0  0  0  0  0
   -5.9917   -8.2365    0.0000 H   0  0  0  0  0  0  0  0  0  0  0  0
   -8.5612   -8.3142    0.0000 C   0  0  0  0  0  0  0  0  0  0  0  0
   -8.5386   -9.8141    0.0000 H   0  0  0  0  0  0  0  0  0  0  0  0
   -9.8506   -7.5511    0.0000 C   0  0  0  0  0  0  0  0  0  0  0  0
   -9.8707   -6.1021    0.0000 C   0  0  0  0  0  0  0  0  0  0  0  0
  -11.1898   -5.3879    0.0000 H   0  0  0  0  0  0  0  0  0  0  0  0
   -8.6203   -5.3102    0.0000 C   0  0  0  0  0  0  0  0  0  0  0  0
   -8.6429   -3.8103    0.0000 H   0  0  0  0  0  0  0  0  0  0  0  0
  -11.1485   -8.3031    0.0000 C   0  0  0  0  0  0  0  0  0  0  0  0
  -12.4504   -7.5564    0.0000 C   0  0  0  0  0  0  0  0  0  0  0  0
  -13.7470   -8.3105    0.0000 C   0  0  0  0  0  0  0  0  0  0  0  0
  -15.0486   -7.5649    0.0000 H   0  0  0  0  0  0  0  0  0  0  0  0
  -13.7418   -9.8113    0.0000 C   0  0  0  0  0  0  0  0  0  0  0  0
  -15.0372  -10.5676    0.0000 H   0  0  0  0  0  0  0  0  0  0  0  0
  -12.4449  -10.5494    0.0000 C   0  0  0  0  0  0  0  0  0  0  0  0
  -12.4378  -12.0494    0.0000 H   0  0  0  0  0  0  0  0  0  0  0  0
  -11.1483   -9.7952    0.0000 C   0  0  0  0  0  0  0  0  0  0  0  0
   -9.8480  -10.5431    0.0000 H   0  0  0  0  0  0  0  0  0  0  0  0
  -12.4549   -6.0564    0.0000 S   0  0  0  0  0  0  0  0  0  0  0  0
  -11.9462   -4.6453    0.0000 O   0  0  0  0  0  0  0  0  0  0  0  0
  -10.9770   -6.3124    0.0000 O   0  0  0  0  0  0  0  0  0  0  0  0
  -13.7562   -5.3103    0.0000 N   0  0  0  0  0  0  0  0  0  0  0  0
  -13.9265   -3.8179    0.0000 C   0  0  0  0  0  0  0  0  0  0  0  0
  -13.7763   -2.3255    0.0000 H   0  0  0  0  0  0  0  0  0  0  0  0
  -12.4266   -3.8080    0.0000 H   0  0  0  0  0  0  0  0  0  0  0  0
  -15.3872   -3.5107    0.0000 C   0  0  0  0  0  0  0  0  0  0  0  0
  -16.7592   -2.9044    0.0000 H   0  0  0  0  0  0  0  0  0  0  0  0
  -14.9272   -2.0830    0.0000 H   0  0  0  0  0  0  0  0  0  0  0  0
  -16.1333   -4.8120    0.0000 C   0  0  0  0  0  0  0  0  0  0  0  0
  -17.1329   -5.9304    0.0000 H   0  0  0  0  0  0  0  0  0  0  0  0
  -17.3497   -3.9344    0.0000 H   0  0  0  0  0  0  0  0  0  0  0  0
  -15.1302   -5.9174    0.0000 C   0  0  0  0  0  0  0  0  0  0  0  0
  -14.3809   -7.2169    0.0000 H   0  0  0  0  0  0  0  0  0  0  0  0
  -16.3422   -6.8011    0.0000 H   0  0  0  0  0  0  0  0  0  0  0  0
   -4.7305   -7.5694    0.0000 O   0  0  0  0  0  0  0  0  0  0  0  0
   -3.4304   -8.3174    0.0000 H   0  0  0  0  0  0  0  0  0  0  0  0
  1  2  1  0  0  0  0 
  1  3  1  0  0  0  0 
  1  4  1  0  0  0  0 
  1  5  1  0  0  0  0 
  5  6  1  0  0  0  0 
  5  7  1  0  0  0  0 
  7  8  1  0  0  0  0 
  7  9  1  0  0  0  0 
  7 10  1  0  0  0  0 
  5 11  1  0  0  0  0 
 11 12  1  0  0  0  0 
 11 13  1  0  0  0  0 
 11 14  1  0  0  0  0 
 14 15  1  0  0  0  0 
 15 16  1  0  0  0  0 
 15 17  1  0  0  0  0 
 15 18  1  0  0  0  0 
 18 19  2  0  0  0  0 
 19 20  1  0  0  0  0 
 19 21  1  0  0  0  0 
 21 22  1  0  0  0  0 
 21 23  2  0  0  0  0 
 23 24  1  0  0  0  0 
 24 25  1  0  0  0  0 
 24 26  2  0  0  0  0 
 18 26  1  0  0  0  0 
 26 27  1  0  0  0  0 
 23 28  1  0  0  0  0 
 28 29  2  0  0  0  0 
 29 30  1  0  0  0  0 
 30 31  1  0  0  0  0 
 30 32  2  0  0  0  0 
 32 33  1  0  0  0  0 
 32 34  1  0  0  0  0 
 34 35  1  0  0  0  0 
 34 36  2  0  0  0  0 
 28 36  1  0  0  0  0 
 36 37  1  0  0  0  0 
 29 38  1  0  0  0  0 
 38 39  2  0  0  0  0 
 38 40  2  0  0  0  0 
 38 41  1  0  0  0  0 
 41 42  1  0  0  0  0 
 42 43  1  0  0  0  0 
 42 44  1  0  0  0  0 
 42 45  1  0  0  0  0 
 45 46  1  0  0  0  0 
 45 47  1  0  0  0  0 
 45 48  1  0  0  0  0 
 48 49  1  0  0  0  0 
 48 50  1  0  0  0  0 
 48 51  1  0  0  0  0 
 41 51  1  0  0  0  0 
 51 52  1  0  0  0  0 
 51 53  1  0  0  0  0 
 14 54  1  0  0  0  0 
 54 55  1  0  0  0  0 
M  END
> <Rank>
6

> <Priority_score>
0.444

> <Reaction_type>
amine hydroxylation

> <Parent_ID>
8

> <Parent_InChI>
InChI=1S/C21H28N2O2S/c1-17(2)15-22-16-18-9-11-19(12-10-18)20-7-3-4-8-21(20)26(24,25)23-13-5-6-14-23/h3-4,7-12,17,22H,5-6,13-16H2,1-2H3

> <Parent_SMILES>
CC(C)CNCc1ccc(-c2ccccc2S(=O)(=O)N2CCCC2)cc1

$$$$
Molecule 8_metabolite 8
  CDK     0516241031

 13 12  0  0  0  0  0  0  0  0999 V2000
    1.9372   -1.3229    0.0000 C   0  0  0  0  0  0  0  0  0  0  0  0
    0.4372   -1.3229    0.0000 H   0  0  0  0  0  0  0  0  0  0  0  0
    1.6767   -2.8001    0.0000 H   0  0  0  0  0  0  0  0  0  0  0  0
    3.3467   -1.8359    0.0000 H   0  0  0  0  0  0  0  0  0  0  0  0
    2.6872   -0.0239    0.0000 C   0  0  0  0  0  0  0  0  0  0  0  0
    2.9476    1.4533    0.0000 H   0  0  0  0  0  0  0  0  0  0  0  0
    4.1872   -0.0239    0.0000 C   0  0  0  0  0  0  0  0  0  0  0  0
    4.9372   -1.3229    0.0000 H   0  0  0  0  0  0  0  0  0  0  0  0
    3.9267    1.4533    0.0000 H   0  0  0  0  0  0  0  0  0  0  0  0
    5.5967    0.4892    0.0000 H   0  0  0  0  0  0  0  0  0  0  0  0
    1.2776    0.4892    0.0000 C   0  0  0  0  0  0  0  0  0  0  0  0
    1.0172    1.9664    0.0000 H   0  0  0  0  0  0  0  0  0  0  0  0
    0.1286   -0.4750    0.0000 O   0  0  0  0  0  0  0  0  0  0  0  0
  1  2  1  0  0  0  0 
  1  3  1  0  0  0  0 
  1  4  1  0  0  0  0 
  1  5  1  0  0  0  0 
  5  6  1  0  0  0  0 
  5  7  1  0  0  0  0 
  7  8  1  0  0  0  0 
  7  9  1  0  0  0  0 
  7 10  1  0  0  0  0 
  5 11  1  0  0  0  0 
 11 12  1  0  0  0  0 
 11 13  2  0  0  0  0 
M  END
> <Rank>
6

> <Priority_score>
0.444

> <Reaction_type>
N-dealkylation

> <Parent_ID>
8

> <Parent_InChI>
InChI=1S/C21H28N2O2S/c1-17(2)15-22-16-18-9-11-19(12-10-18)20-7-3-4-8-21(20)26(24,25)23-13-5-6-14-23/h3-4,7-12,17,22H,5-6,13-16H2,1-2H3

> <Parent_SMILES>
CC(C)CNCc1ccc(-c2ccccc2S(=O)(=O)N2CCCC2)cc1

$$$$
Molecule 8_metabolite 9
  CDK     0516241031

 16 15  0  0  0  0  0  0  0  0999 V2000
    5.6118    1.6495    0.0000 C   0  0  0  0  0  0  0  0  0  0  0  0
    6.9109    0.8995    0.0000 H   0  0  0  0  0  0  0  0  0  0  0  0
    6.5760    2.7986    0.0000 H   0  0  0  0  0  0  0  0  0  0  0  0
    4.6477    2.7986    0.0000 H   0  0  0  0  0  0  0  0  0  0  0  0
    3.8971    0.6595    0.0000 C   0  0  0  0  0  0  0  0  0  0  0  0
    2.9329   -0.4895    0.0000 H   0  0  0  0  0  0  0  0  0  0  0  0
    4.8613   -0.4895    0.0000 C   0  0  0  0  0  0  0  0  0  0  0  0
    6.3385   -0.2291    0.0000 H   0  0  0  0  0  0  0  0  0  0  0  0
    5.3743   -1.8991    0.0000 H   0  0  0  0  0  0  0  0  0  0  0  0
    3.5623   -1.2395    0.0000 H   0  0  0  0  0  0  0  0  0  0  0  0
    2.5981    1.4095    0.0000 C   0  0  0  0  0  0  0  0  0  0  0  0
    3.5623    2.5586    0.0000 H   0  0  0  0  0  0  0  0  0  0  0  0
    1.6339    2.5586    0.0000 H   0  0  0  0  0  0  0  0  0  0  0  0
    1.2990    0.6595    0.0000 N   0  0  0  0  0  0  0  0  0  0  0  0
    0.0000    1.4095    0.0000 H   0  0  0  0  0  0  0  0  0  0  0  0
    1.2990   -0.8405    0.0000 H   0  0  0  0  0  0  0  0  0  0  0  0
  1  2  1  0  0  0  0 
  1  3  1  0  0  0  0 
  1  4  1  0  0  0  0 
  1  5  1  0  0  0  0 
  5  6  1  0  0  0  0 
  5  7  1  0  0  0  0 
  7  8  1  0  0  0  0 
  7  9  1  0  0  0  0 
  7 10  1  0  0  0  0 
  5 11  1  0  0  0  0 
 11 12  1  0  0  0  0 
 11 13  1  0  0  0  0 
 11 14  1  0  0  0  0 
 14 15  1  0  0  0  0 
 14 16  1  0  0  0  0 
M  END
> <Rank>
6

> <Priority_score>
0.444

> <Reaction_type>
N-dealkylation_(R-NHCH2-alkyl)

> <Parent_ID>
8

> <Parent_InChI>
InChI=1S/C21H28N2O2S/c1-17(2)15-22-16-18-9-11-19(12-10-18)20-7-3-4-8-21(20)26(24,25)23-13-5-6-14-23/h3-4,7-12,17,22H,5-6,13-16H2,1-2H3

> <Parent_SMILES>
CC(C)CNCc1ccc(-c2ccccc2S(=O)(=O)N2CCCC2)cc1

$$$$
Molecule 8_metabolite 10
  CDK     0516241031

 15 14  0  0  0  0  0  0  0  0999 V2000
    2.4515   -1.6875    0.0000 C   0  0  0  0  0  0  0  0  0  0  0  0
    1.1525   -2.4375    0.0000 H   0  0  0  0  0  0  0  0  0  0  0  0
    2.9645   -3.0970    0.0000 H   0  0  0  0  0  0  0  0  0  0  0  0
    3.9287   -1.4270    0.0000 H   0  0  0  0  0  0  0  0  0  0  0  0
    2.4515   -0.1875    0.0000 C   0  0  0  0  0  0  0  0  0  0  0  0
    1.9385    1.2220    0.0000 H   0  0  0  0  0  0  0  0  0  0  0  0
    0.9743   -0.4480    0.0000 C   0  0  0  0  0  0  0  0  0  0  0  0
    0.4612   -1.8575    0.0000 H   0  0  0  0  0  0  0  0  0  0  0  0
   -0.5029   -0.1875    0.0000 H   0  0  0  0  0  0  0  0  0  0  0  0
    0.9743    1.0520    0.0000 H   0  0  0  0  0  0  0  0  0  0  0  0
    3.7505    0.5625    0.0000 C   0  0  0  0  0  0  0  0  0  0  0  0
    2.7863    1.7116    0.0000 H   0  0  0  0  0  0  0  0  0  0  0  0
    4.7147    1.7116    0.0000 H   0  0  0  0  0  0  0  0  0  0  0  0
    5.0496   -0.1875    0.0000 O   0  0  0  0  0  0  0  0  0  0  0  0
    6.3486    0.5625    0.0000 H   0  0  0  0  0  0  0  0  0  0  0  0
  1  2  1  0  0  0  0 
  1  3  1  0  0  0  0 
  1  4  1  0  0  0  0 
  1  5  1  0  0  0  0 
  5  6  1  0  0  0  0 
  5  7  1  0  0  0  0 
  7  8  1  0  0  0  0 
  7  9  1  0  0  0  0 
  7 10  1  0  0  0  0 
  5 11  1  0  0  0  0 
 11 12  1  0  0  0  0 
 11 13  1  0  0  0  0 
 11 14  1  0  0  0  0 
 14 15  1  0  0  0  0 
M  END
> <Rank>
6

> <Priority_score>
0.444

> <Reaction_type>
N-dealkylation_(R-NHCH2-alkyl)

> <Parent_ID>
8

> <Parent_InChI>
InChI=1S/C21H28N2O2S/c1-17(2)15-22-16-18-9-11-19(12-10-18)20-7-3-4-8-21(20)26(24,25)23-13-5-6-14-23/h3-4,7-12,17,22H,5-6,13-16H2,1-2H3

> <Parent_SMILES>
CC(C)CNCc1ccc(-c2ccccc2S(=O)(=O)N2CCCC2)cc1

$$$$
Molecule 8_metabolite 11
  CDK     0516241031

 55 57  0  0  0  0  0  0  0  0999 V2000
   -1.5087   -7.6845    0.0000 C   0  0  0  0  0  0  0  0  0  0  0  0
   -0.2086   -8.4325    0.0000 H   0  0  0  0  0  0  0  0  0  0  0  0
   -2.9863   -7.4263    0.0000 H   0  0  0  0  0  0  0  0  0  0  0  0
   -2.0196   -9.0948    0.0000 H   0  0  0  0  0  0  0  0  0  0  0  0
   -1.5110   -6.1845    0.0000 C   0  0  0  0  0  0  0  0  0  0  0  0
   -0.0334   -6.4427    0.0000 H   0  0  0  0  0  0  0  0  0  0  0  0
   -0.8366   -4.3229    0.0000 C   0  0  0  0  0  0  0  0  0  0  0  0
   -1.8025   -3.1753    0.0000 H   0  0  0  0  0  0  0  0  0  0  0  0
    0.1258   -3.1724    0.0000 H   0  0  0  0  0  0  0  0  0  0  0  0
    0.4635   -5.0709    0.0000 H   0  0  0  0  0  0  0  0  0  0  0  0
   -3.2272   -5.1971    0.0000 C   0  0  0  0  0  0  0  0  0  0  0  0
   -4.1932   -4.0495    0.0000 H   0  0  0  0  0  0  0  0  0  0  0  0
   -4.9405   -6.1897    0.0000 N   0  0  0  0  0  0  0  0  0  0  0  0
   -4.9382   -7.6897    0.0000 H   0  0  0  0  0  0  0  0  0  0  0  0
   -6.2406   -5.4417    0.0000 C   0  0  0  0  0  0  0  0  0  0  0  0
   -7.2066   -4.2941    0.0000 H   0  0  0  0  0  0  0  0  0  0  0  0
   -5.2782   -4.2911    0.0000 H   0  0  0  0  0  0  0  0  0  0  0  0
   -7.5385   -6.1936    0.0000 C   0  0  0  0  0  0  0  0  0  0  0  0
   -7.5185   -7.6427    0.0000 C   0  0  0  0  0  0  0  0  0  0  0  0
   -6.1994   -8.3568    0.0000 H   0  0  0  0  0  0  0  0  0  0  0  0
   -8.7688   -8.4346    0.0000 C   0  0  0  0  0  0  0  0  0  0  0  0
   -8.7462   -9.9344    0.0000 H   0  0  0  0  0  0  0  0  0  0  0  0
  -10.0583   -7.6714    0.0000 C   0  0  0  0  0  0  0  0  0  0  0  0
  -10.0783   -6.2224    0.0000 C   0  0  0  0  0  0  0  0  0  0  0  0
  -11.3974   -5.5083    0.0000 H   0  0  0  0  0  0  0  0  0  0  0  0
   -8.8280   -5.4305    0.0000 C   0  0  0  0  0  0  0  0  0  0  0  0
   -8.8506   -3.9307    0.0000 H   0  0  0  0  0  0  0  0  0  0  0  0
  -11.3562   -8.4234    0.0000 C   0  0  0  0  0  0  0  0  0  0  0  0
  -12.6581   -7.6767    0.0000 C   0  0  0  0  0  0  0  0  0  0  0  0
  -13.9547   -8.4308    0.0000 C   0  0  0  0  0  0  0  0  0  0  0  0
  -15.2562   -7.6852    0.0000 H   0  0  0  0  0  0  0  0  0  0  0  0
  -13.9494   -9.9317    0.0000 C   0  0  0  0  0  0  0  0  0  0  0  0
  -15.2448  -10.6880    0.0000 H   0  0  0  0  0  0  0  0  0  0  0  0
  -12.6526  -10.6697    0.0000 C   0  0  0  0  0  0  0  0  0  0  0  0
  -12.6455  -12.1697    0.0000 H   0  0  0  0  0  0  0  0  0  0  0  0
  -11.3559   -9.9156    0.0000 C   0  0  0  0  0  0  0  0  0  0  0  0
  -10.0556  -10.6634    0.0000 H   0  0  0  0  0  0  0  0  0  0  0  0
  -12.6626   -6.1767    0.0000 S   0  0  0  0  0  0  0  0  0  0  0  0
  -12.1538   -4.7656    0.0000 O   0  0  0  0  0  0  0  0  0  0  0  0
  -11.1846   -6.4327    0.0000 O   0  0  0  0  0  0  0  0  0  0  0  0
  -13.9639   -5.4306    0.0000 N   0  0  0  0  0  0  0  0  0  0  0  0
  -14.1342   -3.9383    0.0000 C   0  0  0  0  0  0  0  0  0  0  0  0
  -13.9840   -2.4458    0.0000 H   0  0  0  0  0  0  0  0  0  0  0  0
  -12.6342   -3.9283    0.0000 H   0  0  0  0  0  0  0  0  0  0  0  0
  -15.5949   -3.6310    0.0000 C   0  0  0  0  0  0  0  0  0  0  0  0
  -16.9669   -3.0247    0.0000 H   0  0  0  0  0  0  0  0  0  0  0  0
  -15.1348   -2.2033    0.0000 H   0  0  0  0  0  0  0  0  0  0  0  0
  -16.3410   -4.9324    0.0000 C   0  0  0  0  0  0  0  0  0  0  0  0
  -17.3406   -6.0507    0.0000 H   0  0  0  0  0  0  0  0  0  0  0  0
  -17.5574   -4.0547    0.0000 H   0  0  0  0  0  0  0  0  0  0  0  0
  -15.3378   -6.0377    0.0000 C   0  0  0  0  0  0  0  0  0  0  0  0
  -14.5886   -7.3372    0.0000 H   0  0  0  0  0  0  0  0  0  0  0  0
  -16.5499   -6.9214    0.0000 H   0  0  0  0  0  0  0  0  0  0  0  0
   -2.2648   -4.0466    0.0000 O   0  0  0  0  0  0  0  0  0  0  0  0
   -2.7800   -2.6378    0.0000 H   0  0  0  0  0  0  0  0  0  0  0  0
  1  2  1  0  0  0  0 
  1  3  1  0  0  0  0 
  1  4  1  0  0  0  0 
  1  5  1  0  0  0  0 
  5  6  1  0  0  0  0 
  5  7  1  0  0  0  0 
  7  8  1  0  0  0  0 
  7  9  1  0  0  0  0 
  7 10  1  0  0  0  0 
  5 11  1  0  0  0  0 
 11 12  1  0  0  0  0 
 11 13  1  0  0  0  0 
 13 14  1  0  0  0  0 
 13 15  1  0  0  0  0 
 15 16  1  0  0  0  0 
 15 17  1  0  0  0  0 
 15 18  1  0  0  0  0 
 18 19  2  0  0  0  0 
 19 20  1  0  0  0  0 
 19 21  1  0  0  0  0 
 21 22  1  0  0  0  0 
 21 23  2  0  0  0  0 
 23 24  1  0  0  0  0 
 24 25  1  0  0  0  0 
 24 26  2  0  0  0  0 
 18 26  1  0  0  0  0 
 26 27  1  0  0  0  0 
 23 28  1  0  0  0  0 
 28 29  2  0  0  0  0 
 29 30  1  0  0  0  0 
 30 31  1  0  0  0  0 
 30 32  2  0  0  0  0 
 32 33  1  0  0  0  0 
 32 34  1  0  0  0  0 
 34 35  1  0  0  0  0 
 34 36  2  0  0  0  0 
 28 36  1  0  0  0  0 
 36 37  1  0  0  0  0 
 29 38  1  0  0  0  0 
 38 39  2  0  0  0  0 
 38 40  2  0  0  0  0 
 38 41  1  0  0  0  0 
 41 42  1  0  0  0  0 
 42 43  1  0  0  0  0 
 42 44  1  0  0  0  0 
 42 45  1  0  0  0  0 
 45 46  1  0  0  0  0 
 45 47  1  0  0  0  0 
 45 48  1  0  0  0  0 
 48 49  1  0  0  0  0 
 48 50  1  0  0  0  0 
 48 51  1  0  0  0  0 
 41 51  1  0  0  0  0 
 51 52  1  0  0  0  0 
 51 53  1  0  0  0  0 
 11 54  1  0  0  0  0 
 54 55  1  0  0  0  0 
M  END
> <Rank>
6

> <Priority_score>
0.444

> <Reaction_type>
aliphatic hydroxylation

> <Parent_ID>
8

> <Parent_InChI>
InChI=1S/C21H28N2O2S/c1-17(2)15-22-16-18-9-11-19(12-10-18)20-7-3-4-8-21(20)26(24,25)23-13-5-6-14-23/h3-4,7-12,17,22H,5-6,13-16H2,1-2H3

> <Parent_SMILES>
CC(C)CNCc1ccc(-c2ccccc2S(=O)(=O)N2CCCC2)cc1

$$$$
Molecule 8_metabolite 12
  CDK     0516241031

 42 44  0  0  0  0  0  0  0  0999 V2000
   -1.0200    0.1440    0.0000 C   0  0  0  0  0  0  0  0  0  0  0  0
   -1.0175    1.6440    0.0000 H   0  0  0  0  0  0  0  0  0  0  0  0
    0.2789   -0.6062    0.0000 C   0  0  0  0  0  0  0  0  0  0  0  0
    1.5769    0.1456    0.0000 H   0  0  0  0  0  0  0  0  0  0  0  0
    0.2832   -2.0984    0.0000 C   0  0  0  0  0  0  0  0  0  0  0  0
   -1.0165   -2.8490    0.0000 C   0  0  0  0  0  0  0  0  0  0  0  0
   -2.3154   -2.0988    0.0000 C   0  0  0  0  0  0  0  0  0  0  0  0
   -3.6147   -2.8484    0.0000 H   0  0  0  0  0  0  0  0  0  0  0  0
   -2.3147   -0.5979    0.0000 C   0  0  0  0  0  0  0  0  0  0  0  0
   -3.6123    0.1544    0.0000 H   0  0  0  0  0  0  0  0  0  0  0  0
   -1.0165   -4.3490    0.0000 S   0  0  0  0  0  0  0  0  0  0  0  0
   -0.5034   -5.7585    0.0000 O   0  0  0  0  0  0  0  0  0  0  0  0
    0.4608   -4.0885    0.0000 O   0  0  0  0  0  0  0  0  0  0  0  0
   -2.3155   -5.0990    0.0000 N   0  0  0  0  0  0  0  0  0  0  0  0
   -2.4813   -6.5919    0.0000 C   0  0  0  0  0  0  0  0  0  0  0  0
   -2.3265   -8.0839    0.0000 H   0  0  0  0  0  0  0  0  0  0  0  0
   -0.9813   -6.5973    0.0000 H   0  0  0  0  0  0  0  0  0  0  0  0
   -3.9410   -6.9035    0.0000 C   0  0  0  0  0  0  0  0  0  0  0  0
   -5.3112   -7.5140    0.0000 H   0  0  0  0  0  0  0  0  0  0  0  0
   -3.4766   -8.3298    0.0000 H   0  0  0  0  0  0  0  0  0  0  0  0
   -4.6910   -5.6045    0.0000 C   0  0  0  0  0  0  0  0  0  0  0  0
   -5.6941   -4.4892    0.0000 H   0  0  0  0  0  0  0  0  0  0  0  0
   -5.9048   -6.4858    0.0000 H   0  0  0  0  0  0  0  0  0  0  0  0
   -3.6913   -4.4961    0.0000 C   0  0  0  0  0  0  0  0  0  0  0  0
   -2.9460   -3.1944    0.0000 H   0  0  0  0  0  0  0  0  0  0  0  0
   -4.9060   -3.6161    0.0000 H   0  0  0  0  0  0  0  0  0  0  0  0
    1.5834   -2.8464    0.0000 C   0  0  0  0  0  0  0  0  0  0  0  0
    1.5677   -4.2955    0.0000 C   0  0  0  0  0  0  0  0  0  0  0  0
    0.2508   -5.0136    0.0000 H   0  0  0  0  0  0  0  0  0  0  0  0
    2.8204   -5.0836    0.0000 C   0  0  0  0  0  0  0  0  0  0  0  0
    2.8024   -6.5835    0.0000 H   0  0  0  0  0  0  0  0  0  0  0  0
    4.1075   -4.3165    0.0000 C   0  0  0  0  0  0  0  0  0  0  0  0
    4.1232   -2.8674    0.0000 C   0  0  0  0  0  0  0  0  0  0  0  0
    5.4401   -2.1493    0.0000 H   0  0  0  0  0  0  0  0  0  0  0  0
    2.8705   -2.0793    0.0000 C   0  0  0  0  0  0  0  0  0  0  0  0
    2.8885   -0.5795    0.0000 H   0  0  0  0  0  0  0  0  0  0  0  0
    5.4077   -5.0646    0.0000 C   0  0  0  0  0  0  0  0  0  0  0  0
    4.4453   -6.2151    0.0000 H   0  0  0  0  0  0  0  0  0  0  0  0
    6.3736   -6.2122    0.0000 H   0  0  0  0  0  0  0  0  0  0  0  0
    6.7056   -4.3126    0.0000 N   0  0  0  0  0  0  0  0  0  0  0  0
    8.0058   -5.0606    0.0000 H   0  0  0  0  0  0  0  0  0  0  0  0
    6.7033   -2.8126    0.0000 H   0  0  0  0  0  0  0  0  0  0  0  0
  1  2  1  0  0  0  0 
  1  3  2  0  0  0  0 
  3  4  1  0  0  0  0 
  3  5  1  0  0  0  0 
  5  6  2  0  0  0  0 
  6  7  1  0  0  0  0 
  7  8  1  0  0  0  0 
  7  9  2  0  0  0  0 
  1  9  1  0  0  0  0 
  9 10  1  0  0  0  0 
  6 11  1  0  0  0  0 
 11 12  2  0  0  0  0 
 11 13  2  0  0  0  0 
 11 14  1  0  0  0  0 
 14 15  1  0  0  0  0 
 15 16  1  0  0  0  0 
 15 17  1  0  0  0  0 
 15 18  1  0  0  0  0 
 18 19  1  0  0  0  0 
 18 20  1  0  0  0  0 
 18 21  1  0  0  0  0 
 21 22  1  0  0  0  0 
 21 23  1  0  0  0  0 
 21 24  1  0  0  0  0 
 14 24  1  0  0  0  0 
 24 25  1  0  0  0  0 
 24 26  1  0  0  0  0 
  5 27  1  0  0  0  0 
 27 28  2  0  0  0  0 
 28 29  1  0  0  0  0 
 28 30  1  0  0  0  0 
 30 31  1  0  0  0  0 
 30 32  2  0  0  0  0 
 32 33  1  0  0  0  0 
 33 34  1  0  0  0  0 
 33 35  2  0  0  0  0 
 27 35  1  0  0  0  0 
 35 36  1  0  0  0  0 
 32 37  1  0  0  0  0 
 37 38  1  0  0  0  0 
 37 39  1  0  0  0  0 
 37 40  1  0  0  0  0 
 40 41  1  0  0  0  0 
 40 42  1  0  0  0  0 
M  END
> <Rank>
6

> <Priority_score>
0.444

> <Reaction_type>
N-dealkylation_(R-NHCH2-alkyl)

> <Parent_ID>
8

> <Parent_InChI>
InChI=1S/C21H28N2O2S/c1-17(2)15-22-16-18-9-11-19(12-10-18)20-7-3-4-8-21(20)26(24,25)23-13-5-6-14-23/h3-4,7-12,17,22H,5-6,13-16H2,1-2H3

> <Parent_SMILES>
CC(C)CNCc1ccc(-c2ccccc2S(=O)(=O)N2CCCC2)cc1

$$$$
Molecule 8_metabolite 13
  CDK     0516241031

 39 41  0  0  0  0  0  0  0  0999 V2000
   -3.8268   -1.9405    0.0000 C   0  0  0  0  0  0  0  0  0  0  0  0
   -5.1246   -1.1883    0.0000 H   0  0  0  0  0  0  0  0  0  0  0  0
   -2.5276   -1.1907    0.0000 C   0  0  0  0  0  0  0  0  0  0  0  0
   -2.5297    0.3093    0.0000 H   0  0  0  0  0  0  0  0  0  0  0  0
   -1.2332   -1.9330    0.0000 C   0  0  0  0  0  0  0  0  0  0  0  0
   -1.2330   -3.4339    0.0000 C   0  0  0  0  0  0  0  0  0  0  0  0
   -2.5322   -4.1837    0.0000 C   0  0  0  0  0  0  0  0  0  0  0  0
   -2.5326   -5.6837    0.0000 H   0  0  0  0  0  0  0  0  0  0  0  0
   -3.8316   -3.4326    0.0000 C   0  0  0  0  0  0  0  0  0  0  0  0
   -5.1320   -4.1802    0.0000 H   0  0  0  0  0  0  0  0  0  0  0  0
    0.0660   -4.1839    0.0000 S   0  0  0  0  0  0  0  0  0  0  0  0
    1.5433   -4.4443    0.0000 O   0  0  0  0  0  0  0  0  0  0  0  0
    0.5791   -2.7743    0.0000 O   0  0  0  0  0  0  0  0  0  0  0  0
    0.0660   -5.6839    0.0000 N   0  0  0  0  0  0  0  0  0  0  0  0
    1.2760   -6.5739    0.0000 C   0  0  0  0  0  0  0  0  0  0  0  0
    2.6455   -7.1858    0.0000 H   0  0  0  0  0  0  0  0  0  0  0  0
    2.0307   -5.2776    0.0000 H   0  0  0  0  0  0  0  0  0  0  0  0
    0.8160   -7.9939    0.0000 C   0  0  0  0  0  0  0  0  0  0  0  0
    0.6597   -9.4857    0.0000 H   0  0  0  0  0  0  0  0  0  0  0  0
    2.2834   -8.3049    0.0000 H   0  0  0  0  0  0  0  0  0  0  0  0
   -0.6840   -7.9939    0.0000 C   0  0  0  0  0  0  0  0  0  0  0  0
   -2.1514   -8.3049    0.0000 H   0  0  0  0  0  0  0  0  0  0  0  0
   -0.5276   -9.4857    0.0000 H   0  0  0  0  0  0  0  0  0  0  0  0
   -1.1440   -6.5739    0.0000 C   0  0  0  0  0  0  0  0  0  0  0  0
   -1.8986   -5.2776    0.0000 H   0  0  0  0  0  0  0  0  0  0  0  0
   -2.5134   -7.1858    0.0000 H   0  0  0  0  0  0  0  0  0  0  0  0
    0.0647   -1.1811    0.0000 C   0  0  0  0  0  0  0  0  0  0  0  0
    1.3118   -1.9192    0.0000 C   0  0  0  0  0  0  0  0  0  0  0  0
    1.2752   -3.4187    0.0000 H   0  0  0  0  0  0  0  0  0  0  0  0
    2.6207   -1.2283    0.0000 C   0  0  0  0  0  0  0  0  0  0  0  0
    3.9106   -1.9939    0.0000 H   0  0  0  0  0  0  0  0  0  0  0  0
    2.5999    0.2699    0.0000 C   0  0  0  0  0  0  0  0  0  0  0  0
    1.3528    1.0080    0.0000 C   0  0  0  0  0  0  0  0  0  0  0  0
    1.3894    2.5075    0.0000 H   0  0  0  0  0  0  0  0  0  0  0  0
    0.0439    0.3171    0.0000 C   0  0  0  0  0  0  0  0  0  0  0  0
   -1.2460    1.0827    0.0000 H   0  0  0  0  0  0  0  0  0  0  0  0
    3.8978    1.0218    0.0000 C   0  0  0  0  0  0  0  0  0  0  0  0
    3.8956    2.5218    0.0000 H   0  0  0  0  0  0  0  0  0  0  0  0
    5.1980    0.2738    0.0000 O   0  0  0  0  0  0  0  0  0  0  0  0
  1  2  1  0  0  0  0 
  1  3  2  0  0  0  0 
  3  4  1  0  0  0  0 
  3  5  1  0  0  0  0 
  5  6  2  0  0  0  0 
  6  7  1  0  0  0  0 
  7  8  1  0  0  0  0 
  7  9  2  0  0  0  0 
  1  9  1  0  0  0  0 
  9 10  1  0  0  0  0 
  6 11  1  0  0  0  0 
 11 12  2  0  0  0  0 
 11 13  2  0  0  0  0 
 11 14  1  0  0  0  0 
 14 15  1  0  0  0  0 
 15 16  1  0  0  0  0 
 15 17  1  0  0  0  0 
 15 18  1  0  0  0  0 
 18 19  1  0  0  0  0 
 18 20  1  0  0  0  0 
 18 21  1  0  0  0  0 
 21 22  1  0  0  0  0 
 21 23  1  0  0  0  0 
 21 24  1  0  0  0  0 
 14 24  1  0  0  0  0 
 24 25  1  0  0  0  0 
 24 26  1  0  0  0  0 
  5 27  1  0  0  0  0 
 27 28  2  0  0  0  0 
 28 29  1  0  0  0  0 
 28 30  1  0  0  0  0 
 30 31  1  0  0  0  0 
 30 32  2  0  0  0  0 
 32 33  1  0  0  0  0 
 33 34  1  0  0  0  0 
 33 35  2  0  0  0  0 
 27 35  1  0  0  0  0 
 35 36  1  0  0  0  0 
 32 37  1  0  0  0  0 
 37 38  1  0  0  0  0 
 37 39  2  0  0  0  0 
M  END
> <Rank>
13

> <Priority_score>
0.26

> <Reaction_type>
N-dealkylation

> <Parent_ID>
8

> <Parent_InChI>
InChI=1S/C21H28N2O2S/c1-17(2)15-22-16-18-9-11-19(12-10-18)20-7-3-4-8-21(20)26(24,25)23-13-5-6-14-23/h3-4,7-12,17,22H,5-6,13-16H2,1-2H3

> <Parent_SMILES>
CC(C)CNCc1ccc(-c2ccccc2S(=O)(=O)N2CCCC2)cc1

$$$$
Molecule 8_metabolite 14
  CDK     0516241031

 55 57  0  0  0  0  0  0  0  0999 V2000
   -1.7171   -7.3248    0.0000 C   0  0  0  0  0  0  0  0  0  0  0  0
   -0.4170   -8.0729    0.0000 H   0  0  0  0  0  0  0  0  0  0  0  0
   -3.1947   -7.0666    0.0000 H   0  0  0  0  0  0  0  0  0  0  0  0
   -2.2280   -8.7351    0.0000 H   0  0  0  0  0  0  0  0  0  0  0  0
   -1.7194   -5.8248    0.0000 C   0  0  0  0  0  0  0  0  0  0  0  0
   -0.2418   -6.0831    0.0000 H   0  0  0  0  0  0  0  0  0  0  0  0
   -1.0450   -3.9632    0.0000 C   0  0  0  0  0  0  0  0  0  0  0  0
   -2.0109   -2.8156    0.0000 H   0  0  0  0  0  0  0  0  0  0  0  0
   -0.0826   -2.8127    0.0000 H   0  0  0  0  0  0  0  0  0  0  0  0
    0.2552   -4.7112    0.0000 H   0  0  0  0  0  0  0  0  0  0  0  0
   -3.0196   -5.0768    0.0000 C   0  0  0  0  0  0  0  0  0  0  0  0
   -3.9855   -3.9292    0.0000 H   0  0  0  0  0  0  0  0  0  0  0  0
   -2.0571   -3.9263    0.0000 H   0  0  0  0  0  0  0  0  0  0  0  0
   -4.7328   -6.0694    0.0000 N   0  0  0  0  0  0  0  0  0  0  0  0
   -4.7305   -7.5694    0.0000 H   0  0  0  0  0  0  0  0  0  0  0  0
   -6.0330   -5.3214    0.0000 C   0  0  0  0  0  0  0  0  0  0  0  0
   -6.9989   -4.1738    0.0000 H   0  0  0  0  0  0  0  0  0  0  0  0
   -7.3309   -6.0733    0.0000 C   0  0  0  0  0  0  0  0  0  0  0  0
   -7.3108   -7.5224    0.0000 C   0  0  0  0  0  0  0  0  0  0  0  0
   -5.9917   -8.2365    0.0000 H   0  0  0  0  0  0  0  0  0  0  0  0
   -8.5612   -8.3142    0.0000 C   0  0  0  0  0  0  0  0  0  0  0  0
   -8.5386   -9.8141    0.0000 H   0  0  0  0  0  0  0  0  0  0  0  0
   -9.8506   -7.5511    0.0000 C   0  0  0  0  0  0  0  0  0  0  0  0
   -9.8707   -6.1021    0.0000 C   0  0  0  0  0  0  0  0  0  0  0  0
  -11.1898   -5.3879    0.0000 H   0  0  0  0  0  0  0  0  0  0  0  0
   -8.6203   -5.3102    0.0000 C   0  0  0  0  0  0  0  0  0  0  0  0
   -8.6429   -3.8103    0.0000 H   0  0  0  0  0  0  0  0  0  0  0  0
  -11.1485   -8.3031    0.0000 C   0  0  0  0  0  0  0  0  0  0  0  0
  -12.4504   -7.5564    0.0000 C   0  0  0  0  0  0  0  0  0  0  0  0
  -13.7470   -8.3105    0.0000 C   0  0  0  0  0  0  0  0  0  0  0  0
  -15.0486   -7.5649    0.0000 H   0  0  0  0  0  0  0  0  0  0  0  0
  -13.7418   -9.8113    0.0000 C   0  0  0  0  0  0  0  0  0  0  0  0
  -15.0372  -10.5676    0.0000 H   0  0  0  0  0  0  0  0  0  0  0  0
  -12.4449  -10.5494    0.0000 C   0  0  0  0  0  0  0  0  0  0  0  0
  -12.4378  -12.0494    0.0000 H   0  0  0  0  0  0  0  0  0  0  0  0
  -11.1483   -9.7952    0.0000 C   0  0  0  0  0  0  0  0  0  0  0  0
   -9.8480  -10.5431    0.0000 H   0  0  0  0  0  0  0  0  0  0  0  0
  -12.4549   -6.0564    0.0000 S   0  0  0  0  0  0  0  0  0  0  0  0
  -11.9462   -4.6453    0.0000 O   0  0  0  0  0  0  0  0  0  0  0  0
  -10.9770   -6.3124    0.0000 O   0  0  0  0  0  0  0  0  0  0  0  0
  -13.7562   -5.3103    0.0000 N   0  0  0  0  0  0  0  0  0  0  0  0
  -13.9265   -3.8179    0.0000 C   0  0  0  0  0  0  0  0  0  0  0  0
  -13.7763   -2.3255    0.0000 H   0  0  0  0  0  0  0  0  0  0  0  0
  -12.4266   -3.8080    0.0000 H   0  0  0  0  0  0  0  0  0  0  0  0
  -15.3872   -3.5107    0.0000 C   0  0  0  0  0  0  0  0  0  0  0  0
  -16.7592   -2.9044    0.0000 H   0  0  0  0  0  0  0  0  0  0  0  0
  -14.9272   -2.0830    0.0000 H   0  0  0  0  0  0  0  0  0  0  0  0
  -16.1333   -4.8120    0.0000 C   0  0  0  0  0  0  0  0  0  0  0  0
  -17.1329   -5.9304    0.0000 H   0  0  0  0  0  0  0  0  0  0  0  0
  -17.3497   -3.9344    0.0000 H   0  0  0  0  0  0  0  0  0  0  0  0
  -15.1302   -5.9174    0.0000 C   0  0  0  0  0  0  0  0  0  0  0  0
  -14.3809   -7.2169    0.0000 H   0  0  0  0  0  0  0  0  0  0  0  0
  -16.3422   -6.8011    0.0000 H   0  0  0  0  0  0  0  0  0  0  0  0
   -5.0705   -4.1708    0.0000 O   0  0  0  0  0  0  0  0  0  0  0  0
   -5.5857   -2.7621    0.0000 H   0  0  0  0  0  0  0  0  0  0  0  0
  1  2  1  0  0  0  0 
  1  3  1  0  0  0  0 
  1  4  1  0  0  0  0 
  1  5  1  0  0  0  0 
  5  6  1  0  0  0  0 
  5  7  1  0  0  0  0 
  7  8  1  0  0  0  0 
  7  9  1  0  0  0  0 
  7 10  1  0  0  0  0 
  5 11  1  0  0  0  0 
 11 12  1  0  0  0  0 
 11 13  1  0  0  0  0 
 11 14  1  0  0  0  0 
 14 15  1  0  0  0  0 
 14 16  1  0  0  0  0 
 16 17  1  0  0  0  0 
 16 18  1  0  0  0  0 
 18 19  2  0  0  0  0 
 19 20  1  0  0  0  0 
 19 21  1  0  0  0  0 
 21 22  1  0  0  0  0 
 21 23  2  0  0  0  0 
 23 24  1  0  0  0  0 
 24 25  1  0  0  0  0 
 24 26  2  0  0  0  0 
 18 26  1  0  0  0  0 
 26 27  1  0  0  0  0 
 23 28  1  0  0  0  0 
 28 29  2  0  0  0  0 
 29 30  1  0  0  0  0 
 30 31  1  0  0  0  0 
 30 32  2  0  0  0  0 
 32 33  1  0  0  0  0 
 32 34  1  0  0  0  0 
 34 35  1  0  0  0  0 
 34 36  2  0  0  0  0 
 28 36  1  0  0  0  0 
 36 37  1  0  0  0  0 
 29 38  1  0  0  0  0 
 38 39  2  0  0  0  0 
 38 40  2  0  0  0  0 
 38 41  1  0  0  0  0 
 41 42  1  0  0  0  0 
 42 43  1  0  0  0  0 
 42 44  1  0  0  0  0 
 42 45  1  0  0  0  0 
 45 46  1  0  0  0  0 
 45 47  1  0  0  0  0 
 45 48  1  0  0  0  0 
 48 49  1  0  0  0  0 
 48 50  1  0  0  0  0 
 48 51  1  0  0  0  0 
 41 51  1  0  0  0  0 
 51 52  1  0  0  0  0 
 51 53  1  0  0  0  0 
 16 54  1  0  0  0  0 
 54 55  1  0  0  0  0 
M  END
> <Rank>
13

> <Priority_score>
0.26

> <Reaction_type>
aliphatic hydroxylation

> <Parent_ID>
8

> <Parent_InChI>
InChI=1S/C21H28N2O2S/c1-17(2)15-22-16-18-9-11-19(12-10-18)20-7-3-4-8-21(20)26(24,25)23-13-5-6-14-23/h3-4,7-12,17,22H,5-6,13-16H2,1-2H3

> <Parent_SMILES>
CC(C)CNCc1ccc(-c2ccccc2S(=O)(=O)N2CCCC2)cc1

$$$$
Molecule 8_metabolite 15
  CDK     0516241031

 55 57  0  0  0  0  0  0  0  0999 V2000
    5.1395  -11.3388    0.0000 C   0  0  0  0  0  0  0  0  0  0  0  0
    6.6395  -11.3365    0.0000 H   0  0  0  0  0  0  0  0  0  0  0  0
    3.7307  -11.8539    0.0000 H   0  0  0  0  0  0  0  0  0  0  0  0
    5.4022  -12.8156    0.0000 H   0  0  0  0  0  0  0  0  0  0  0  0
    4.1469   -9.6255    0.0000 C   0  0  0  0  0  0  0  0  0  0  0  0
    5.5557   -9.1104    0.0000 C   0  0  0  0  0  0  0  0  0  0  0  0
    6.7062  -10.0728    0.0000 H   0  0  0  0  0  0  0  0  0  0  0  0
    6.7033   -8.1444    0.0000 H   0  0  0  0  0  0  0  0  0  0  0  0
    4.8037   -7.8125    0.0000 H   0  0  0  0  0  0  0  0  0  0  0  0
    2.6469   -9.6278    0.0000 C   0  0  0  0  0  0  0  0  0  0  0  0
    1.2382  -10.1430    0.0000 H   0  0  0  0  0  0  0  0  0  0  0  0
    2.9096  -11.1046    0.0000 H   0  0  0  0  0  0  0  0  0  0  0  0
    1.6543   -7.9146    0.0000 N   0  0  0  0  0  0  0  0  0  0  0  0
    2.4023   -6.6144    0.0000 H   0  0  0  0  0  0  0  0  0  0  0  0
    0.1543   -7.9168    0.0000 C   0  0  0  0  0  0  0  0  0  0  0  0
   -1.2544   -8.4320    0.0000 H   0  0  0  0  0  0  0  0  0  0  0  0
    0.4170   -9.3937    0.0000 H   0  0  0  0  0  0  0  0  0  0  0  0
   -0.5976   -6.6189    0.0000 C   0  0  0  0  0  0  0  0  0  0  0  0
    0.1405   -5.3718    0.0000 C   0  0  0  0  0  0  0  0  0  0  0  0
    1.6400   -5.4084    0.0000 H   0  0  0  0  0  0  0  0  0  0  0  0
   -0.5504   -4.0629    0.0000 C   0  0  0  0  0  0  0  0  0  0  0  0
    0.2152   -2.7730    0.0000 H   0  0  0  0  0  0  0  0  0  0  0  0
   -2.0486   -4.0837    0.0000 C   0  0  0  0  0  0  0  0  0  0  0  0
   -2.7867   -5.3308    0.0000 C   0  0  0  0  0  0  0  0  0  0  0  0
   -4.2863   -5.2942    0.0000 H   0  0  0  0  0  0  0  0  0  0  0  0
   -2.0958   -6.6397    0.0000 C   0  0  0  0  0  0  0  0  0  0  0  0
   -2.8614   -7.9296    0.0000 H   0  0  0  0  0  0  0  0  0  0  0  0
   -2.8006   -2.7858    0.0000 C   0  0  0  0  0  0  0  0  0  0  0  0
   -4.3014   -2.7860    0.0000 C   0  0  0  0  0  0  0  0  0  0  0  0
   -5.0512   -1.4869    0.0000 C   0  0  0  0  0  0  0  0  0  0  0  0
   -6.5512   -1.4864    0.0000 H   0  0  0  0  0  0  0  0  0  0  0  0
   -4.3001   -0.1875    0.0000 C   0  0  0  0  0  0  0  0  0  0  0  0
   -5.0478    1.1129    0.0000 H   0  0  0  0  0  0  0  0  0  0  0  0
   -2.8080   -0.1922    0.0000 C   0  0  0  0  0  0  0  0  0  0  0  0
   -2.0558    1.1056    0.0000 H   0  0  0  0  0  0  0  0  0  0  0  0
   -2.0582   -1.4914    0.0000 C   0  0  0  0  0  0  0  0  0  0  0  0
   -0.5582   -1.4893    0.0000 H   0  0  0  0  0  0  0  0  0  0  0  0
   -5.0514   -4.0851    0.0000 S   0  0  0  0  0  0  0  0  0  0  0  0
   -5.3119   -5.5623    0.0000 O   0  0  0  0  0  0  0  0  0  0  0  0
   -3.6418   -4.5981    0.0000 O   0  0  0  0  0  0  0  0  0  0  0  0
   -6.5514   -4.0851    0.0000 N   0  0  0  0  0  0  0  0  0  0  0  0
   -7.4414   -5.2951    0.0000 C   0  0  0  0  0  0  0  0  0  0  0  0
   -8.0534   -6.6645    0.0000 H   0  0  0  0  0  0  0  0  0  0  0  0
   -6.1451   -6.0497    0.0000 H   0  0  0  0  0  0  0  0  0  0  0  0
   -8.8614   -4.8351    0.0000 C   0  0  0  0  0  0  0  0  0  0  0  0
  -10.3532   -4.6787    0.0000 H   0  0  0  0  0  0  0  0  0  0  0  0
   -9.1724   -6.3025    0.0000 H   0  0  0  0  0  0  0  0  0  0  0  0
   -8.8614   -3.3351    0.0000 C   0  0  0  0  0  0  0  0  0  0  0  0
   -9.1724   -1.8677    0.0000 H   0  0  0  0  0  0  0  0  0  0  0  0
  -10.3532   -3.4914    0.0000 H   0  0  0  0  0  0  0  0  0  0  0  0
   -7.4414   -2.8751    0.0000 C   0  0  0  0  0  0  0  0  0  0  0  0
   -6.1451   -2.1204    0.0000 H   0  0  0  0  0  0  0  0  0  0  0  0
   -8.0534   -1.5056    0.0000 H   0  0  0  0  0  0  0  0  0  0  0  0
    3.8001   -7.6761    0.0000 O   0  0  0  0  0  0  0  0  0  0  0  0
    4.9477   -6.7102    0.0000 H   0  0  0  0  0  0  0  0  0  0  0  0
  1  2  1  0  0  0  0 
  1  3  1  0  0  0  0 
  1  4  1  0  0  0  0 
  1  5  1  0  0  0  0 
  5  6  1  0  0  0  0 
  6  7  1  0  0  0  0 
  6  8  1  0  0  0  0 
  6  9  1  0  0  0  0 
  5 10  1  0  0  0  0 
 10 11  1  0  0  0  0 
 10 12  1  0  0  0  0 
 10 13  1  0  0  0  0 
 13 14  1  0  0  0  0 
 13 15  1  0  0  0  0 
 15 16  1  0  0  0  0 
 15 17  1  0  0  0  0 
 15 18  1  0  0  0  0 
 18 19  2  0  0  0  0 
 19 20  1  0  0  0  0 
 19 21  1  0  0  0  0 
 21 22  1  0  0  0  0 
 21 23  2  0  0  0  0 
 23 24  1  0  0  0  0 
 24 25  1  0  0  0  0 
 24 26  2  0  0  0  0 
 18 26  1  0  0  0  0 
 26 27  1  0  0  0  0 
 23 28  1  0  0  0  0 
 28 29  2  0  0  0  0 
 29 30  1  0  0  0  0 
 30 31  1  0  0  0  0 
 30 32  2  0  0  0  0 
 32 33  1  0  0  0  0 
 32 34  1  0  0  0  0 
 34 35  1  0  0  0  0 
 34 36  2  0  0  0  0 
 28 36  1  0  0  0  0 
 36 37  1  0  0  0  0 
 29 38  1  0  0  0  0 
 38 39  2  0  0  0  0 
 38 40  2  0  0  0  0 
 38 41  1  0  0  0  0 
 41 42  1  0  0  0  0 
 42 43  1  0  0  0  0 
 42 44  1  0  0  0  0 
 42 45  1  0  0  0  0 
 45 46  1  0  0  0  0 
 45 47  1  0  0  0  0 
 45 48  1  0  0  0  0 
 48 49  1  0  0  0  0 
 48 50  1  0  0  0  0 
 48 51  1  0  0  0  0 
 41 51  1  0  0  0  0 
 51 52  1  0  0  0  0 
 51 53  1  0  0  0  0 
  5 54  1  0  0  0  0 
 54 55  1  0  0  0  0 
M  END
> <Rank>
15

> <Priority_score>
0.22

> <Reaction_type>
aliphatic_hydroxylation_(tert_carbon_linked_to_two_CH3_groups)

> <Parent_ID>
8

> <Parent_InChI>
InChI=1S/C21H28N2O2S/c1-17(2)15-22-16-18-9-11-19(12-10-18)20-7-3-4-8-21(20)26(24,25)23-13-5-6-14-23/h3-4,7-12,17,22H,5-6,13-16H2,1-2H3

> <Parent_SMILES>
CC(C)CNCc1ccc(-c2ccccc2S(=O)(=O)N2CCCC2)cc1

$$$$
Molecule 8_metabolite 16
  CDK     0516241031

 54 56  0  0  0  0  0  0  0  0999 V2000
    5.6866   -9.7852    0.0000 C   0  0  0  0  0  0  0  0  0  0  0  0
    6.8371  -10.7477    0.0000 H   0  0  0  0  0  0  0  0  0  0  0  0
    6.8342   -8.8193    0.0000 H   0  0  0  0  0  0  0  0  0  0  0  0
    4.9346   -8.4873    0.0000 H   0  0  0  0  0  0  0  0  0  0  0  0
    4.2778  -10.3004    0.0000 C   0  0  0  0  0  0  0  0  0  0  0  0
    4.0151   -8.8236    0.0000 H   0  0  0  0  0  0  0  0  0  0  0  0
    2.7778  -10.3027    0.0000 C   0  0  0  0  0  0  0  0  0  0  0  0
    1.3691  -10.8178    0.0000 H   0  0  0  0  0  0  0  0  0  0  0  0
    3.0405  -11.7795    0.0000 H   0  0  0  0  0  0  0  0  0  0  0  0
    1.7852   -8.5894    0.0000 N   0  0  0  0  0  0  0  0  0  0  0  0
    2.5333   -7.2893    0.0000 H   0  0  0  0  0  0  0  0  0  0  0  0
    0.2852   -8.5917    0.0000 C   0  0  0  0  0  0  0  0  0  0  0  0
   -1.1235   -9.1069    0.0000 H   0  0  0  0  0  0  0  0  0  0  0  0
    0.5479  -10.0685    0.0000 H   0  0  0  0  0  0  0  0  0  0  0  0
   -0.4667   -7.2938    0.0000 C   0  0  0  0  0  0  0  0  0  0  0  0
    0.2714   -6.0467    0.0000 C   0  0  0  0  0  0  0  0  0  0  0  0
    1.7709   -6.0833    0.0000 H   0  0  0  0  0  0  0  0  0  0  0  0
   -0.4195   -4.7378    0.0000 C   0  0  0  0  0  0  0  0  0  0  0  0
    0.3461   -3.4479    0.0000 H   0  0  0  0  0  0  0  0  0  0  0  0
   -1.9177   -4.7586    0.0000 C   0  0  0  0  0  0  0  0  0  0  0  0
   -2.6558   -6.0057    0.0000 C   0  0  0  0  0  0  0  0  0  0  0  0
   -4.1553   -5.9691    0.0000 H   0  0  0  0  0  0  0  0  0  0  0  0
   -1.9649   -7.3146    0.0000 C   0  0  0  0  0  0  0  0  0  0  0  0
   -2.7305   -8.6045    0.0000 H   0  0  0  0  0  0  0  0  0  0  0  0
   -2.6696   -3.4606    0.0000 C   0  0  0  0  0  0  0  0  0  0  0  0
   -4.1705   -3.4609    0.0000 C   0  0  0  0  0  0  0  0  0  0  0  0
   -4.9203   -2.1617    0.0000 C   0  0  0  0  0  0  0  0  0  0  0  0
   -6.4203   -2.1613    0.0000 H   0  0  0  0  0  0  0  0  0  0  0  0
   -4.1692   -0.8623    0.0000 C   0  0  0  0  0  0  0  0  0  0  0  0
   -4.9168    0.4381    0.0000 H   0  0  0  0  0  0  0  0  0  0  0  0
   -2.6770   -0.8671    0.0000 C   0  0  0  0  0  0  0  0  0  0  0  0
   -1.9249    0.4307    0.0000 H   0  0  0  0  0  0  0  0  0  0  0  0
   -1.9273   -2.1662    0.0000 C   0  0  0  0  0  0  0  0  0  0  0  0
   -0.4273   -2.1642    0.0000 H   0  0  0  0  0  0  0  0  0  0  0  0
   -4.9205   -4.7599    0.0000 S   0  0  0  0  0  0  0  0  0  0  0  0
   -5.1809   -6.2371    0.0000 O   0  0  0  0  0  0  0  0  0  0  0  0
   -3.5109   -5.2730    0.0000 O   0  0  0  0  0  0  0  0  0  0  0  0
   -6.4205   -4.7599    0.0000 N   0  0  0  0  0  0  0  0  0  0  0  0
   -7.3105   -5.9699    0.0000 C   0  0  0  0  0  0  0  0  0  0  0  0
   -7.9224   -7.3394    0.0000 H   0  0  0  0  0  0  0  0  0  0  0  0
   -6.0142   -6.7246    0.0000 H   0  0  0  0  0  0  0  0  0  0  0  0
   -8.7305   -5.5099    0.0000 C   0  0  0  0  0  0  0  0  0  0  0  0
  -10.2223   -5.3536    0.0000 H   0  0  0  0  0  0  0  0  0  0  0  0
   -9.0415   -6.9773    0.0000 H   0  0  0  0  0  0  0  0  0  0  0  0
   -8.7305   -4.0099    0.0000 C   0  0  0  0  0  0  0  0  0  0  0  0
   -9.0415   -2.5425    0.0000 H   0  0  0  0  0  0  0  0  0  0  0  0
  -10.2223   -4.1663    0.0000 H   0  0  0  0  0  0  0  0  0  0  0  0
   -7.3105   -3.5499    0.0000 C   0  0  0  0  0  0  0  0  0  0  0  0
   -6.0142   -2.7952    0.0000 H   0  0  0  0  0  0  0  0  0  0  0  0
   -7.9224   -2.1804    0.0000 H   0  0  0  0  0  0  0  0  0  0  0  0
    5.0298  -11.5983    0.0000 C   0  0  0  0  0  0  0  0  0  0  0  0
    4.2818  -12.8985    0.0000 O   0  0  0  0  0  0  0  0  0  0  0  0
    6.5298  -11.5960    0.0000 O   0  0  0  0  0  0  0  0  0  0  0  0
    7.2818  -12.8939    0.0000 H   0  0  0  0  0  0  0  0  0  0  0  0
  1  2  1  0  0  0  0 
  1  3  1  0  0  0  0 
  1  4  1  0  0  0  0 
  1  5  1  0  0  0  0 
  5  6  1  0  0  0  0 
  5  7  1  0  0  0  0 
  7  8  1  0  0  0  0 
  7  9  1  0  0  0  0 
  7 10  1  0  0  0  0 
 10 11  1  0  0  0  0 
 10 12  1  0  0  0  0 
 12 13  1  0  0  0  0 
 12 14  1  0  0  0  0 
 12 15  1  0  0  0  0 
 15 16  2  0  0  0  0 
 16 17  1  0  0  0  0 
 16 18  1  0  0  0  0 
 18 19  1  0  0  0  0 
 18 20  2  0  0  0  0 
 20 21  1  0  0  0  0 
 21 22  1  0  0  0  0 
 21 23  2  0  0  0  0 
 15 23  1  0  0  0  0 
 23 24  1  0  0  0  0 
 20 25  1  0  0  0  0 
 25 26  2  0  0  0  0 
 26 27  1  0  0  0  0 
 27 28  1  0  0  0  0 
 27 29  2  0  0  0  0 
 29 30  1  0  0  0  0 
 29 31  1  0  0  0  0 
 31 32  1  0  0  0  0 
 31 33  2  0  0  0  0 
 25 33  1  0  0  0  0 
 33 34  1  0  0  0  0 
 26 35  1  0  0  0  0 
 35 36  2  0  0  0  0 
 35 37  2  0  0  0  0 
 35 38  1  0  0  0  0 
 38 39  1  0  0  0  0 
 39 40  1  0  0  0  0 
 39 41  1  0  0  0  0 
 39 42  1  0  0  0  0 
 42 43  1  0  0  0  0 
 42 44  1  0  0  0  0 
 42 45  1  0  0  0  0 
 45 46  1  0  0  0  0 
 45 47  1  0  0  0  0 
 45 48  1  0  0  0  0 
 38 48  1  0  0  0  0 
 48 49  1  0  0  0  0 
 48 50  1  0  0  0  0 
  5 51  1  0  0  0  0 
 51 52  2  0  0  0  0 
 51 53  1  0  0  0  0 
 53 54  1  0  0  0  0 
M  END
> <Rank>
15

> <Priority_score>
0.22

> <Reaction_type>
carboxylation_(primary_carbon_next_to_tert_carbon)

> <Parent_ID>
8

> <Parent_InChI>
InChI=1S/C21H28N2O2S/c1-17(2)15-22-16-18-9-11-19(12-10-18)20-7-3-4-8-21(20)26(24,25)23-13-5-6-14-23/h3-4,7-12,17,22H,5-6,13-16H2,1-2H3

> <Parent_SMILES>
CC(C)CNCc1ccc(-c2ccccc2S(=O)(=O)N2CCCC2)cc1

$$$$
Molecule 8_metabolite 17
  CDK     0516241031

 55 57  0  0  0  0  0  0  0  0999 V2000
    5.6856   -9.3689    0.0000 C   0  0  0  0  0  0  0  0  0  0  0  0
    6.8361  -10.3314    0.0000 H   0  0  0  0  0  0  0  0  0  0  0  0
    6.8332   -8.4030    0.0000 H   0  0  0  0  0  0  0  0  0  0  0  0
    4.9336   -8.0710    0.0000 H   0  0  0  0  0  0  0  0  0  0  0  0
    4.2769   -9.8841    0.0000 C   0  0  0  0  0  0  0  0  0  0  0  0
    4.0141   -8.4073    0.0000 H   0  0  0  0  0  0  0  0  0  0  0  0
    2.7769   -9.8864    0.0000 C   0  0  0  0  0  0  0  0  0  0  0  0
    1.3681  -10.4015    0.0000 H   0  0  0  0  0  0  0  0  0  0  0  0
    3.0396  -11.3632    0.0000 H   0  0  0  0  0  0  0  0  0  0  0  0
    1.7843   -8.1731    0.0000 N   0  0  0  0  0  0  0  0  0  0  0  0
    2.5323   -6.8730    0.0000 H   0  0  0  0  0  0  0  0  0  0  0  0
    0.2843   -8.1754    0.0000 C   0  0  0  0  0  0  0  0  0  0  0  0
   -1.1245   -8.6906    0.0000 H   0  0  0  0  0  0  0  0  0  0  0  0
    0.5470   -9.6522    0.0000 H   0  0  0  0  0  0  0  0  0  0  0  0
   -0.4677   -6.8775    0.0000 C   0  0  0  0  0  0  0  0  0  0  0  0
    0.2704   -5.6304    0.0000 C   0  0  0  0  0  0  0  0  0  0  0  0
    1.7700   -5.6670    0.0000 H   0  0  0  0  0  0  0  0  0  0  0  0
   -0.4205   -4.3215    0.0000 C   0  0  0  0  0  0  0  0  0  0  0  0
    0.3451   -3.0316    0.0000 H   0  0  0  0  0  0  0  0  0  0  0  0
   -1.9186   -4.3422    0.0000 C   0  0  0  0  0  0  0  0  0  0  0  0
   -2.6568   -5.5894    0.0000 C   0  0  0  0  0  0  0  0  0  0  0  0
   -4.1563   -5.5528    0.0000 H   0  0  0  0  0  0  0  0  0  0  0  0
   -1.9659   -6.8983    0.0000 C   0  0  0  0  0  0  0  0  0  0  0  0
   -2.7315   -8.1882    0.0000 H   0  0  0  0  0  0  0  0  0  0  0  0
   -2.6706   -3.0443    0.0000 C   0  0  0  0  0  0  0  0  0  0  0  0
   -4.1714   -3.0446    0.0000 C   0  0  0  0  0  0  0  0  0  0  0  0
   -4.9212   -1.7454    0.0000 C   0  0  0  0  0  0  0  0  0  0  0  0
   -6.4212   -1.7450    0.0000 H   0  0  0  0  0  0  0  0  0  0  0  0
   -4.1702   -0.4460    0.0000 C   0  0  0  0  0  0  0  0  0  0  0  0
   -4.9178    0.8544    0.0000 H   0  0  0  0  0  0  0  0  0  0  0  0
   -2.6780   -0.4508    0.0000 C   0  0  0  0  0  0  0  0  0  0  0  0
   -1.9258    0.8470    0.0000 H   0  0  0  0  0  0  0  0  0  0  0  0
   -1.9282   -1.7499    0.0000 C   0  0  0  0  0  0  0  0  0  0  0  0
   -0.4282   -1.7479    0.0000 H   0  0  0  0  0  0  0  0  0  0  0  0
   -4.9214   -4.3436    0.0000 S   0  0  0  0  0  0  0  0  0  0  0  0
   -5.1819   -5.8208    0.0000 O   0  0  0  0  0  0  0  0  0  0  0  0
   -3.5119   -4.8567    0.0000 O   0  0  0  0  0  0  0  0  0  0  0  0
   -6.4214   -4.3436    0.0000 N   0  0  0  0  0  0  0  0  0  0  0  0
   -7.3114   -5.5536    0.0000 C   0  0  0  0  0  0  0  0  0  0  0  0
   -7.9234   -6.9231    0.0000 H   0  0  0  0  0  0  0  0  0  0  0  0
   -6.0151   -6.3083    0.0000 H   0  0  0  0  0  0  0  0  0  0  0  0
   -8.7314   -5.0936    0.0000 C   0  0  0  0  0  0  0  0  0  0  0  0
  -10.2233   -4.9373    0.0000 H   0  0  0  0  0  0  0  0  0  0  0  0
   -9.0424   -6.5610    0.0000 H   0  0  0  0  0  0  0  0  0  0  0  0
   -8.7314   -3.5936    0.0000 C   0  0  0  0  0  0  0  0  0  0  0  0
   -9.0424   -2.1262    0.0000 H   0  0  0  0  0  0  0  0  0  0  0  0
  -10.2233   -3.7500    0.0000 H   0  0  0  0  0  0  0  0  0  0  0  0
   -7.3114   -3.1336    0.0000 C   0  0  0  0  0  0  0  0  0  0  0  0
   -6.0151   -2.3789    0.0000 H   0  0  0  0  0  0  0  0  0  0  0  0
   -7.9234   -1.7641    0.0000 H   0  0  0  0  0  0  0  0  0  0  0  0
    5.2694  -11.5973    0.0000 C   0  0  0  0  0  0  0  0  0  0  0  0
    3.8607  -12.1125    0.0000 H   0  0  0  0  0  0  0  0  0  0  0  0
    5.5322  -13.0741    0.0000 H   0  0  0  0  0  0  0  0  0  0  0  0
    6.7694  -11.5951    0.0000 O   0  0  0  0  0  0  0  0  0  0  0  0
    7.5214  -12.8930    0.0000 H   0  0  0  0  0  0  0  0  0  0  0  0
  1  2  1  0  0  0  0 
  1  3  1  0  0  0  0 
  1  4  1  0  0  0  0 
  1  5  1  0  0  0  0 
  5  6  1  0  0  0  0 
  5  7  1  0  0  0  0 
  7  8  1  0  0  0  0 
  7  9  1  0  0  0  0 
  7 10  1  0  0  0  0 
 10 11  1  0  0  0  0 
 10 12  1  0  0  0  0 
 12 13  1  0  0  0  0 
 12 14  1  0  0  0  0 
 12 15  1  0  0  0  0 
 15 16  2  0  0  0  0 
 16 17  1  0  0  0  0 
 16 18  1  0  0  0  0 
 18 19  1  0  0  0  0 
 18 20  2  0  0  0  0 
 20 21  1  0  0  0  0 
 21 22  1  0  0  0  0 
 21 23  2  0  0  0  0 
 15 23  1  0  0  0  0 
 23 24  1  0  0  0  0 
 20 25  1  0  0  0  0 
 25 26  2  0  0  0  0 
 26 27  1  0  0  0  0 
 27 28  1  0  0  0  0 
 27 29  2  0  0  0  0 
 29 30  1  0  0  0  0 
 29 31  1  0  0  0  0 
 31 32  1  0  0  0  0 
 31 33  2  0  0  0  0 
 25 33  1  0  0  0  0 
 33 34  1  0  0  0  0 
 26 35  1  0  0  0  0 
 35 36  2  0  0  0  0 
 35 37  2  0  0  0  0 
 35 38  1  0  0  0  0 
 38 39  1  0  0  0  0 
 39 40  1  0  0  0  0 
 39 41  1  0  0  0  0 
 39 42  1  0  0  0  0 
 42 43  1  0  0  0  0 
 42 44  1  0  0  0  0 
 42 45  1  0  0  0  0 
 45 46  1  0  0  0  0 
 45 47  1  0  0  0  0 
 45 48  1  0  0  0  0 
 38 48  1  0  0  0  0 
 48 49  1  0  0  0  0 
 48 50  1  0  0  0  0 
  5 51  1  0  0  0  0 
 51 52  1  0  0  0  0 
 51 53  1  0  0  0  0 
 51 54  1  0  0  0  0 
 54 55  1  0  0  0  0 
M  END
> <Rank>
15

> <Priority_score>
0.22

> <Reaction_type>
aliphatic_hydroxylation_(primary_carbon_next_to_tert_carbon)

> <Parent_ID>
8

> <Parent_InChI>
InChI=1S/C21H28N2O2S/c1-17(2)15-22-16-18-9-11-19(12-10-18)20-7-3-4-8-21(20)26(24,25)23-13-5-6-14-23/h3-4,7-12,17,22H,5-6,13-16H2,1-2H3

> <Parent_SMILES>
CC(C)CNCc1ccc(-c2ccccc2S(=O)(=O)N2CCCC2)cc1

$$$$
Molecule 8_metabolite 18
  CDK     0516241031

 52 54  0  0  0  0  0  0  0  0999 V2000
    1.9929   14.8496    0.0000 C   0  0  0  0  0  0  0  0  0  0  0  0
    1.2409   16.1475    0.0000 H   0  0  0  0  0  0  0  0  0  0  0  0
    3.1434   13.8872    0.0000 H   0  0  0  0  0  0  0  0  0  0  0  0
    3.1405   15.8155    0.0000 H   0  0  0  0  0  0  0  0  0  0  0  0
    1.2449   13.5495    0.0000 C   0  0  0  0  0  0  0  0  0  0  0  0
    0.0943   14.5119    0.0000 H   0  0  0  0  0  0  0  0  0  0  0  0
   -0.2700   12.2744    0.0000 C   0  0  0  0  0  0  0  0  0  0  0  0
   -0.0073   10.7976    0.0000 H   0  0  0  0  0  0  0  0  0  0  0  0
   -1.6787   11.7593    0.0000 H   0  0  0  0  0  0  0  0  0  0  0  0
   -1.0220   13.5723    0.0000 H   0  0  0  0  0  0  0  0  0  0  0  0
    1.9968   12.2516    0.0000 C   0  0  0  0  0  0  0  0  0  0  0  0
    2.2595   10.7747    0.0000 H   0  0  0  0  0  0  0  0  0  0  0  0
    0.5881   11.7364    0.0000 H   0  0  0  0  0  0  0  0  0  0  0  0
    3.9768   12.2545    0.0000 N   0  0  0  0  0  0  0  0  0  0  0  0
    4.7248   13.5547    0.0000 H   0  0  0  0  0  0  0  0  0  0  0  0
    4.7288   10.9566    0.0000 C   0  0  0  0  0  0  0  0  0  0  0  0
    4.9915    9.4798    0.0000 H   0  0  0  0  0  0  0  0  0  0  0  0
    3.3200   10.4415    0.0000 H   0  0  0  0  0  0  0  0  0  0  0  0
    6.2288   10.9589    0.0000 C   0  0  0  0  0  0  0  0  0  0  0  0
    6.9359   12.2238    0.0000 C   0  0  0  0  0  0  0  0  0  0  0  0
    6.1506   13.5018    0.0000 H   0  0  0  0  0  0  0  0  0  0  0  0
    8.4147   12.2845    0.0000 C   0  0  0  0  0  0  0  0  0  0  0  0
    9.1450   13.5947    0.0000 H   0  0  0  0  0  0  0  0  0  0  0  0
    9.1498   10.9789    0.0000 C   0  0  0  0  0  0  0  0  0  0  0  0
    8.4427    9.7139    0.0000 C   0  0  0  0  0  0  0  0  0  0  0  0
    9.2280    8.4359    0.0000 H   0  0  0  0  0  0  0  0  0  0  0  0
    6.9639    9.6533    0.0000 C   0  0  0  0  0  0  0  0  0  0  0  0
    6.2335    8.3431    0.0000 H   0  0  0  0  0  0  0  0  0  0  0  0
   10.6498   10.9811    0.0000 C   0  0  0  0  0  0  0  0  0  0  0  0
   11.4039    9.6835    0.0000 C   0  0  0  0  0  0  0  0  0  0  0  0
   12.9039    9.6883    0.0000 C   0  0  0  0  0  0  0  0  0  0  0  0
   13.6583    8.3918    0.0000 H   0  0  0  0  0  0  0  0  0  0  0  0
   13.6498   10.9907    0.0000 C   0  0  0  0  0  0  0  0  0  0  0  0
   15.1498   10.9980    0.0000 H   0  0  0  0  0  0  0  0  0  0  0  0
   12.8957   12.2783    0.0000 C   0  0  0  0  0  0  0  0  0  0  0  0
   13.6396   13.5808    0.0000 H   0  0  0  0  0  0  0  0  0  0  0  0
   11.3957   12.2735    0.0000 C   0  0  0  0  0  0  0  0  0  0  0  0
   10.6435   13.5713    0.0000 H   0  0  0  0  0  0  0  0  0  0  0  0
   10.6579    8.3822    0.0000 S   0  0  0  0  0  0  0  0  0  0  0  0
    9.5059    9.3429    0.0000 O   0  0  0  0  0  0  0  0  0  0  0  0
    9.5117    7.4146    0.0000 O   0  0  0  0  0  0  0  0  0  0  0  0
   11.4118    7.0855    0.0000 N   0  0  0  0  0  0  0  0  0  0  0  0
   10.8131    5.7079    0.0000 C   0  0  0  0  0  0  0  0  0  0  0  0
    9.3476    5.3879    0.0000 H   0  0  0  0  0  0  0  0  0  0  0  0
   11.9245    4.7115    0.0000 C   0  0  0  0  0  0  0  0  0  0  0  0
   11.7716    3.2193    0.0000 H   0  0  0  0  0  0  0  0  0  0  0  0
   13.2212    5.4654    0.0000 C   0  0  0  0  0  0  0  0  0  0  0  0
   14.6461    5.9341    0.0000 H   0  0  0  0  0  0  0  0  0  0  0  0
   13.8359    4.0971    0.0000 H   0  0  0  0  0  0  0  0  0  0  0  0
   12.9052    6.9242    0.0000 C   0  0  0  0  0  0  0  0  0  0  0  0
   12.9061    8.4242    0.0000 H   0  0  0  0  0  0  0  0  0  0  0  0
   14.3967    7.0835    0.0000 H   0  0  0  0  0  0  0  0  0  0  0  0
  1  2  1  0  0  0  0 
  1  3  1  0  0  0  0 
  1  4  1  0  0  0  0 
  1  5  1  0  0  0  0 
  5  6  1  0  0  0  0 
  5  7  1  0  0  0  0 
  7  8  1  0  0  0  0 
  7  9  1  0  0  0  0 
  7 10  1  0  0  0  0 
  5 11  1  0  0  0  0 
 11 12  1  0  0  0  0 
 11 13  1  0  0  0  0 
 11 14  1  0  0  0  0 
 14 15  1  0  0  0  0 
 14 16  1  0  0  0  0 
 16 17  1  0  0  0  0 
 16 18  1  0  0  0  0 
 16 19  1  0  0  0  0 
 19 20  2  0  0  0  0 
 20 21  1  0  0  0  0 
 20 22  1  0  0  0  0 
 22 23  1  0  0  0  0 
 22 24  2  0  0  0  0 
 24 25  1  0  0  0  0 
 25 26  1  0  0  0  0 
 25 27  2  0  0  0  0 
 19 27  1  0  0  0  0 
 27 28  1  0  0  0  0 
 24 29  1  0  0  0  0 
 29 30  2  0  0  0  0 
 30 31  1  0  0  0  0 
 31 32  1  0  0  0  0 
 31 33  2  0  0  0  0 
 33 34  1  0  0  0  0 
 33 35  1  0  0  0  0 
 35 36  1  0  0  0  0 
 35 37  2  0  0  0  0 
 29 37  1  0  0  0  0 
 37 38  1  0  0  0  0 
 30 39  1  0  0  0  0 
 39 40  2  0  0  0  0 
 39 41  2  0  0  0  0 
 39 42  1  0  0  0  0 
 42 43  1  0  0  0  0 
 43 44  1  0  0  0  0 
 43 45  2  0  0  0  0 
 45 46  1  0  0  0  0 
 45 47  1  0  0  0  0 
 47 48  1  0  0  0  0 
 47 49  1  0  0  0  0 
 47 50  1  0  0  0  0 
 42 50  1  0  0  0  0 
 50 51  1  0  0  0  0 
 50 52  1  0  0  0  0 
M  END
> <Rank>
18

> <Priority_score>
0.11040000000000001

> <Reaction_type>
alkyl dehydrogenation

> <Parent_ID>
8

> <Parent_InChI>
InChI=1S/C21H28N2O2S/c1-17(2)15-22-16-18-9-11-19(12-10-18)20-7-3-4-8-21(20)26(24,25)23-13-5-6-14-23/h3-4,7-12,17,22H,5-6,13-16H2,1-2H3

> <Parent_SMILES>
CC(C)CNCc1ccc(-c2ccccc2S(=O)(=O)N2CCCC2)cc1

$$$$
Molecule 8_metabolite 19
  CDK     0516241031

 53 55  0  0  0  0  0  0  0  0999 V2000
   18.8039   -7.3687    0.0000 C   0  0  0  0  0  0  0  0  0  0  0  0
   20.0996   -8.1246    0.0000 H   0  0  0  0  0  0  0  0  0  0  0  0
   17.3279   -7.1016    0.0000 H   0  0  0  0  0  0  0  0  0  0  0  0
   18.2845   -8.7759    0.0000 H   0  0  0  0  0  0  0  0  0  0  0  0
   18.8108   -5.8688    0.0000 C   0  0  0  0  0  0  0  0  0  0  0  0
   20.2868   -6.1359    0.0000 H   0  0  0  0  0  0  0  0  0  0  0  0
   19.4964   -4.0113    0.0000 C   0  0  0  0  0  0  0  0  0  0  0  0
   18.5375   -2.8578    0.0000 H   0  0  0  0  0  0  0  0  0  0  0  0
   20.4658   -2.8666    0.0000 H   0  0  0  0  0  0  0  0  0  0  0  0
   20.7920   -4.7672    0.0000 H   0  0  0  0  0  0  0  0  0  0  0  0
   17.5151   -5.1129    0.0000 C   0  0  0  0  0  0  0  0  0  0  0  0
   16.5562   -3.9594    0.0000 H   0  0  0  0  0  0  0  0  0  0  0  0
   18.4845   -3.9682    0.0000 H   0  0  0  0  0  0  0  0  0  0  0  0
   15.7959   -6.0951    0.0000 N   0  0  0  0  0  0  0  0  0  0  0  0
   15.7891   -7.5950    0.0000 H   0  0  0  0  0  0  0  0  0  0  0  0
   14.5003   -5.3392    0.0000 C   0  0  0  0  0  0  0  0  0  0  0  0
   13.5414   -4.1857    0.0000 H   0  0  0  0  0  0  0  0  0  0  0  0
   15.4697   -4.1945    0.0000 H   0  0  0  0  0  0  0  0  0  0  0  0
   13.1979   -6.0833    0.0000 C   0  0  0  0  0  0  0  0  0  0  0  0
   13.2092   -7.5324    0.0000 C   0  0  0  0  0  0  0  0  0  0  0  0
   14.5239   -8.2545    0.0000 H   0  0  0  0  0  0  0  0  0  0  0  0
   11.9540   -8.3167    0.0000 C   0  0  0  0  0  0  0  0  0  0  0  0
   11.9676   -9.8166    0.0000 H   0  0  0  0  0  0  0  0  0  0  0  0
   10.6693   -7.5457    0.0000 C   0  0  0  0  0  0  0  0  0  0  0  0
   10.6580   -6.0966    0.0000 C   0  0  0  0  0  0  0  0  0  0  0  0
    9.3432   -5.3745    0.0000 H   0  0  0  0  0  0  0  0  0  0  0  0
   11.9131   -5.3123    0.0000 C   0  0  0  0  0  0  0  0  0  0  0  0
   11.8996   -3.8124    0.0000 H   0  0  0  0  0  0  0  0  0  0  0  0
    9.3668   -8.2898    0.0000 C   0  0  0  0  0  0  0  0  0  0  0  0
    8.0695   -7.5353    0.0000 C   0  0  0  0  0  0  0  0  0  0  0  0
    6.7683   -8.2815    0.0000 C   0  0  0  0  0  0  0  0  0  0  0  0
    5.4713   -7.5280    0.0000 H   0  0  0  0  0  0  0  0  0  0  0  0
    6.7645   -9.7824    0.0000 C   0  0  0  0  0  0  0  0  0  0  0  0
    5.4645  -10.5308    0.0000 H   0  0  0  0  0  0  0  0  0  0  0  0
    8.0568  -10.5283    0.0000 C   0  0  0  0  0  0  0  0  0  0  0  0
    8.0548  -12.0283    0.0000 H   0  0  0  0  0  0  0  0  0  0  0  0
    9.3580   -9.7820    0.0000 C   0  0  0  0  0  0  0  0  0  0  0  0
   10.6538  -10.5377    0.0000 H   0  0  0  0  0  0  0  0  0  0  0  0
    8.0740   -6.0353    0.0000 S   0  0  0  0  0  0  0  0  0  0  0  0
    9.5504   -6.3002    0.0000 O   0  0  0  0  0  0  0  0  0  0  0  0
    8.5913   -4.6273    0.0000 O   0  0  0  0  0  0  0  0  0  0  0  0
    6.7772   -5.2814    0.0000 N   0  0  0  0  0  0  0  0  0  0  0  0
    6.6160   -3.7880    0.0000 C   0  0  0  0  0  0  0  0  0  0  0  0
    7.7313   -2.7849    0.0000 H   0  0  0  0  0  0  0  0  0  0  0  0
    5.1572   -3.4719    0.0000 C   0  0  0  0  0  0  0  0  0  0  0  0
    3.7889   -2.8573    0.0000 H   0  0  0  0  0  0  0  0  0  0  0  0
    5.6259   -2.0470    0.0000 H   0  0  0  0  0  0  0  0  0  0  0  0
    4.4033   -4.7687    0.0000 C   0  0  0  0  0  0  0  0  0  0  0  0
    3.3969   -5.8809    0.0000 H   0  0  0  0  0  0  0  0  0  0  0  0
    3.1922   -3.8837    0.0000 H   0  0  0  0  0  0  0  0  0  0  0  0
    5.3997   -5.8801    0.0000 C   0  0  0  0  0  0  0  0  0  0  0  0
    6.1410   -7.1841    0.0000 H   0  0  0  0  0  0  0  0  0  0  0  0
    4.1823   -6.7564    0.0000 H   0  0  0  0  0  0  0  0  0  0  0  0
  1  2  1  0  0  0  0 
  1  3  1  0  0  0  0 
  1  4  1  0  0  0  0 
  1  5  1  0  0  0  0 
  5  6  1  0  0  0  0 
  5  7  1  0  0  0  0 
  7  8  1  0  0  0  0 
  7  9  1  0  0  0  0 
  7 10  1  0  0  0  0 
  5 11  1  0  0  0  0 
 11 12  1  0  0  0  0 
 11 13  1  0  0  0  0 
 11 14  1  0  0  0  0 
 14 15  1  0  0  0  0 
 14 16  1  0  0  0  0 
 16 17  1  0  0  0  0 
 16 18  1  0  0  0  0 
 16 19  1  0  0  0  0 
 19 20  2  0  0  0  0 
 20 21  1  0  0  0  0 
 20 22  1  0  0  0  0 
 22 23  1  0  0  0  0 
 22 24  2  0  0  0  0 
 24 25  1  0  0  0  0 
 25 26  1  0  0  0  0 
 25 27  2  0  0  0  0 
 19 27  1  0  0  0  0 
 27 28  1  0  0  0  0 
 24 29  1  0  0  0  0 
 29 30  2  0  0  0  0 
 30 31  1  0  0  0  0 
 31 32  1  0  0  0  0 
 31 33  2  0  0  0  0 
 33 34  1  0  0  0  0 
 33 35  1  0  0  0  0 
 35 36  1  0  0  0  0 
 35 37  2  0  0  0  0 
 29 37  1  0  0  0  0 
 37 38  1  0  0  0  0 
 30 39  1  0  0  0  0 
 39 40  2  0  0  0  0 
 39 41  2  0  0  0  0 
 39 42  1  0  0  0  0 
 42 43  2  0  0  0  0 
 43 44  1  0  0  0  0 
 43 45  1  0  0  0  0 
 45 46  1  0  0  0  0 
 45 47  1  0  0  0  0 
 45 48  1  0  0  0  0 
 48 49  1  0  0  0  0 
 48 50  1  0  0  0  0 
 48 51  1  0  0  0  0 
 42 51  1  0  0  0  0 
 51 52  1  0  0  0  0 
 51 53  1  0  0  0  0 
M  CHG  1  42   1
M  END
> <Rank>
18

> <Priority_score>
0.11040000000000001

> <Reaction_type>
dehydration of N-C bond

> <Parent_ID>
8

> <Parent_InChI>
InChI=1S/C21H28N2O2S/c1-17(2)15-22-16-18-9-11-19(12-10-18)20-7-3-4-8-21(20)26(24,25)23-13-5-6-14-23/h3-4,7-12,17,22H,5-6,13-16H2,1-2H3

> <Parent_SMILES>
CC(C)CNCc1ccc(-c2ccccc2S(=O)(=O)N2CCCC2)cc1

$$$$
Molecule 8_metabolite 20
  CDK     0516241031

 55 57  0  0  0  0  0  0  0  0999 V2000
   -1.6153   -5.0917    0.0000 C   0  0  0  0  0  0  0  0  0  0  0  0
   -0.1377   -5.3499    0.0000 H   0  0  0  0  0  0  0  0  0  0  0  0
   -3.0921   -5.3544    0.0000 H   0  0  0  0  0  0  0  0  0  0  0  0
   -1.6130   -6.5917    0.0000 H   0  0  0  0  0  0  0  0  0  0  0  0
   -2.1304   -3.6829    0.0000 C   0  0  0  0  0  0  0  0  0  0  0  0
   -0.6536   -3.4202    0.0000 H   0  0  0  0  0  0  0  0  0  0  0  0
   -2.1334   -1.7029    0.0000 C   0  0  0  0  0  0  0  0  0  0  0  0
   -3.4336   -0.9549    0.0000 H   0  0  0  0  0  0  0  0  0  0  0  0
   -1.6225   -0.2926    0.0000 H   0  0  0  0  0  0  0  0  0  0  0  0
   -0.6558   -1.9612    0.0000 H   0  0  0  0  0  0  0  0  0  0  0  0
   -3.6080   -3.4247    0.0000 C   0  0  0  0  0  0  0  0  0  0  0  0
   -4.9082   -2.6767    0.0000 H   0  0  0  0  0  0  0  0  0  0  0  0
   -3.0971   -2.0144    0.0000 H   0  0  0  0  0  0  0  0  0  0  0  0
   -4.8785   -4.9434    0.0000 N   0  0  0  0  0  0  0  0  0  0  0  0
   -4.3633   -6.3521    0.0000 H   0  0  0  0  0  0  0  0  0  0  0  0
   -6.3561   -4.6851    0.0000 C   0  0  0  0  0  0  0  0  0  0  0  0
   -7.6562   -3.9371    0.0000 H   0  0  0  0  0  0  0  0  0  0  0  0
   -5.8452   -3.2748    0.0000 H   0  0  0  0  0  0  0  0  0  0  0  0
   -7.3185   -5.8357    0.0000 C   0  0  0  0  0  0  0  0  0  0  0  0
   -6.8040   -7.1905    0.0000 C   0  0  0  0  0  0  0  0  0  0  0  0
   -5.3203   -7.4103    0.0000 H   0  0  0  0  0  0  0  0  0  0  0  0
   -7.7082   -8.3622    0.0000 C   0  0  0  0  0  0  0  0  0  0  0  0
   -7.1739   -9.7639    0.0000 H   0  0  0  0  0  0  0  0  0  0  0  0
   -9.1808   -8.0861    0.0000 C   0  0  0  0  0  0  0  0  0  0  0  0
   -9.6953   -6.7313    0.0000 C   0  0  0  0  0  0  0  0  0  0  0  0
  -11.1791   -6.5114    0.0000 H   0  0  0  0  0  0  0  0  0  0  0  0
   -8.7912   -5.5595    0.0000 C   0  0  0  0  0  0  0  0  0  0  0  0
   -9.3254   -4.1579    0.0000 H   0  0  0  0  0  0  0  0  0  0  0  0
  -10.1433   -9.2366    0.0000 C   0  0  0  0  0  0  0  0  0  0  0  0
  -11.6441   -9.2409    0.0000 C   0  0  0  0  0  0  0  0  0  0  0  0
  -12.3900  -10.5424    0.0000 C   0  0  0  0  0  0  0  0  0  0  0  0
  -13.8899  -10.5474    0.0000 H   0  0  0  0  0  0  0  0  0  0  0  0
  -11.6350  -11.8395    0.0000 C   0  0  0  0  0  0  0  0  0  0  0  0
  -12.3787  -13.1422    0.0000 H   0  0  0  0  0  0  0  0  0  0  0  0
  -10.1428  -11.8302    0.0000 C   0  0  0  0  0  0  0  0  0  0  0  0
   -9.3867  -13.1257    0.0000 H   0  0  0  0  0  0  0  0  0  0  0  0
   -9.3970  -10.5288    0.0000 C   0  0  0  0  0  0  0  0  0  0  0  0
   -7.8970  -10.5263    0.0000 H   0  0  0  0  0  0  0  0  0  0  0  0
  -12.6393   -7.5292    0.0000 S   0  0  0  0  0  0  0  0  0  0  0  0
  -13.3932   -6.2325    0.0000 O   0  0  0  0  0  0  0  0  0  0  0  0
  -11.8932   -6.2279    0.0000 O   0  0  0  0  0  0  0  0  0  0  0  0
  -11.1393   -7.5247    0.0000 O   0  0  0  0  0  0  0  0  0  0  0  0
  -15.0993   -7.5367    0.0000 N   0  0  0  0  0  0  0  0  0  0  0  0
  -15.9929   -6.3294    0.0000 C   0  0  0  0  0  0  0  0  0  0  0  0
  -16.6091   -4.9617    0.0000 H   0  0  0  0  0  0  0  0  0  0  0  0
  -14.6989   -5.5708    0.0000 H   0  0  0  0  0  0  0  0  0  0  0  0
  -17.4115   -6.7937    0.0000 C   0  0  0  0  0  0  0  0  0  0  0  0
  -18.9029   -6.9545    0.0000 H   0  0  0  0  0  0  0  0  0  0  0  0
  -17.7270   -5.3272    0.0000 H   0  0  0  0  0  0  0  0  0  0  0  0
  -17.4070   -8.2937    0.0000 C   0  0  0  0  0  0  0  0  0  0  0  0
  -17.7136   -9.7620    0.0000 H   0  0  0  0  0  0  0  0  0  0  0  0
  -18.8993   -8.1418    0.0000 H   0  0  0  0  0  0  0  0  0  0  0  0
  -15.9856   -8.7494    0.0000 C   0  0  0  0  0  0  0  0  0  0  0  0
  -14.6870   -9.5001    0.0000 H   0  0  0  0  0  0  0  0  0  0  0  0
  -16.5934  -10.1207    0.0000 H   0  0  0  0  0  0  0  0  0  0  0  0
  1  2  1  0  0  0  0 
  1  3  1  0  0  0  0 
  1  4  1  0  0  0  0 
  1  5  1  0  0  0  0 
  5  6  1  0  0  0  0 
  5  7  1  0  0  0  0 
  7  8  1  0  0  0  0 
  7  9  1  0  0  0  0 
  7 10  1  0  0  0  0 
  5 11  1  0  0  0  0 
 11 12  1  0  0  0  0 
 11 13  1  0  0  0  0 
 11 14  1  0  0  0  0 
 14 15  1  0  0  0  0 
 14 16  1  0  0  0  0 
 16 17  1  0  0  0  0 
 16 18  1  0  0  0  0 
 16 19  1  0  0  0  0 
 19 20  2  0  0  0  0 
 20 21  1  0  0  0  0 
 20 22  1  0  0  0  0 
 22 23  1  0  0  0  0 
 22 24  2  0  0  0  0 
 24 25  1  0  0  0  0 
 25 26  1  0  0  0  0 
 25 27  2  0  0  0  0 
 19 27  1  0  0  0  0 
 27 28  1  0  0  0  0 
 24 29  1  0  0  0  0 
 29 30  2  0  0  0  0 
 30 31  1  0  0  0  0 
 31 32  1  0  0  0  0 
 31 33  2  0  0  0  0 
 33 34  1  0  0  0  0 
 33 35  1  0  0  0  0 
 35 36  1  0  0  0  0 
 35 37  2  0  0  0  0 
 29 37  1  0  0  0  0 
 37 38  1  0  0  0  0 
 30 39  1  0  0  0  0 
 39 40  2  0  0  0  0 
 39 41  2  0  0  0  0 
 39 42  2  0  0  0  0 
 39 43  1  0  0  0  0 
 43 44  1  0  0  0  0 
 44 45  1  0  0  0  0 
 44 46  1  0  0  0  0 
 44 47  1  0  0  0  0 
 47 48  1  0  0  0  0 
 47 49  1  0  0  0  0 
 47 50  1  0  0  0  0 
 50 51  1  0  0  0  0 
 50 52  1  0  0  0  0 
 50 53  1  0  0  0  0 
 43 53  1  0  0  0  0 
 53 54  1  0  0  0  0 
 53 55  1  0  0  0  0 
M  END
> <Rank>
20

> <Priority_score>
0.092

> <Reaction_type>
S-oxidation

> <Parent_ID>
8

> <Parent_InChI>
InChI=1S/C21H28N2O2S/c1-17(2)15-22-16-18-9-11-19(12-10-18)20-7-3-4-8-21(20)26(24,25)23-13-5-6-14-23/h3-4,7-12,17,22H,5-6,13-16H2,1-2H3

> <Parent_SMILES>
CC(C)CNCc1ccc(-c2ccccc2S(=O)(=O)N2CCCC2)cc1

$$$$
Molecule 8_metabolite 21
  CDK     0516241031

 53 55  0  0  0  0  0  0  0  0999 V2000
   -1.7784   -7.0368    0.0000 C   0  0  0  0  0  0  0  0  0  0  0  0
   -0.4782   -7.7848    0.0000 H   0  0  0  0  0  0  0  0  0  0  0  0
   -3.2560   -6.7785    0.0000 H   0  0  0  0  0  0  0  0  0  0  0  0
   -2.2893   -8.4471    0.0000 H   0  0  0  0  0  0  0  0  0  0  0  0
   -1.7807   -5.5368    0.0000 C   0  0  0  0  0  0  0  0  0  0  0  0
   -0.3031   -5.7950    0.0000 H   0  0  0  0  0  0  0  0  0  0  0  0
   -1.2698   -4.1264    0.0000 C   0  0  0  0  0  0  0  0  0  0  0  0
   -2.2357   -2.9788    0.0000 H   0  0  0  0  0  0  0  0  0  0  0  0
   -0.3073   -2.9759    0.0000 H   0  0  0  0  0  0  0  0  0  0  0  0
    0.0304   -4.8745    0.0000 H   0  0  0  0  0  0  0  0  0  0  0  0
   -3.0808   -4.7887    0.0000 C   0  0  0  0  0  0  0  0  0  0  0  0
   -3.0831   -3.2887    0.0000 H   0  0  0  0  0  0  0  0  0  0  0  0
   -4.3787   -5.5407    0.0000 N   0  0  0  0  0  0  0  0  0  0  0  0
   -4.3765   -7.0407    0.0000 H   0  0  0  0  0  0  0  0  0  0  0  0
   -5.6789   -4.7927    0.0000 C   0  0  0  0  0  0  0  0  0  0  0  0
   -6.6448   -3.6451    0.0000 H   0  0  0  0  0  0  0  0  0  0  0  0
   -4.7165   -3.6421    0.0000 H   0  0  0  0  0  0  0  0  0  0  0  0
   -6.9768   -5.5446    0.0000 C   0  0  0  0  0  0  0  0  0  0  0  0
   -6.9567   -6.9937    0.0000 C   0  0  0  0  0  0  0  0  0  0  0  0
   -5.6376   -7.7078    0.0000 H   0  0  0  0  0  0  0  0  0  0  0  0
   -8.2071   -7.7855    0.0000 C   0  0  0  0  0  0  0  0  0  0  0  0
   -8.1845   -9.2854    0.0000 H   0  0  0  0  0  0  0  0  0  0  0  0
   -9.4965   -7.0224    0.0000 C   0  0  0  0  0  0  0  0  0  0  0  0
   -9.5166   -5.5734    0.0000 C   0  0  0  0  0  0  0  0  0  0  0  0
  -10.8357   -4.8592    0.0000 H   0  0  0  0  0  0  0  0  0  0  0  0
   -8.2662   -4.7815    0.0000 C   0  0  0  0  0  0  0  0  0  0  0  0
   -8.2888   -3.2816    0.0000 H   0  0  0  0  0  0  0  0  0  0  0  0
  -10.7944   -7.7744    0.0000 C   0  0  0  0  0  0  0  0  0  0  0  0
  -12.0963   -7.0277    0.0000 C   0  0  0  0  0  0  0  0  0  0  0  0
  -13.3930   -7.7818    0.0000 C   0  0  0  0  0  0  0  0  0  0  0  0
  -14.6945   -7.0362    0.0000 H   0  0  0  0  0  0  0  0  0  0  0  0
  -13.3877   -9.2826    0.0000 C   0  0  0  0  0  0  0  0  0  0  0  0
  -14.6831  -10.0389    0.0000 H   0  0  0  0  0  0  0  0  0  0  0  0
  -12.0908  -10.0207    0.0000 C   0  0  0  0  0  0  0  0  0  0  0  0
  -12.0838  -11.5207    0.0000 H   0  0  0  0  0  0  0  0  0  0  0  0
  -10.7942   -9.2665    0.0000 C   0  0  0  0  0  0  0  0  0  0  0  0
   -9.4939  -10.0144    0.0000 H   0  0  0  0  0  0  0  0  0  0  0  0
  -12.1009   -5.5277    0.0000 S   0  0  0  0  0  0  0  0  0  0  0  0
  -11.5921   -4.1166    0.0000 O   0  0  0  0  0  0  0  0  0  0  0  0
  -10.6229   -5.7837    0.0000 O   0  0  0  0  0  0  0  0  0  0  0  0
  -13.4022   -4.7816    0.0000 N   0  0  0  0  0  0  0  0  0  0  0  0
  -13.5725   -3.2892    0.0000 C   0  0  0  0  0  0  0  0  0  0  0  0
  -13.4222   -1.7968    0.0000 H   0  0  0  0  0  0  0  0  0  0  0  0
  -12.0725   -3.2793    0.0000 H   0  0  0  0  0  0  0  0  0  0  0  0
  -15.0332   -2.9820    0.0000 C   0  0  0  0  0  0  0  0  0  0  0  0
  -16.4051   -2.3757    0.0000 H   0  0  0  0  0  0  0  0  0  0  0  0
  -14.5731   -1.5543    0.0000 H   0  0  0  0  0  0  0  0  0  0  0  0
  -15.7792   -4.2833    0.0000 C   0  0  0  0  0  0  0  0  0  0  0  0
  -16.7789   -5.4017    0.0000 H   0  0  0  0  0  0  0  0  0  0  0  0
  -16.9957   -3.4057    0.0000 H   0  0  0  0  0  0  0  0  0  0  0  0
  -14.7761   -5.3887    0.0000 C   0  0  0  0  0  0  0  0  0  0  0  0
  -14.0269   -6.6882    0.0000 H   0  0  0  0  0  0  0  0  0  0  0  0
  -15.9882   -6.2724    0.0000 H   0  0  0  0  0  0  0  0  0  0  0  0
  1  2  1  0  0  0  0 
  1  3  1  0  0  0  0 
  1  4  1  0  0  0  0 
  1  5  1  0  0  0  0 
  5  6  1  0  0  0  0 
  5  7  1  0  0  0  0 
  7  8  1  0  0  0  0 
  7  9  1  0  0  0  0 
  7 10  1  0  0  0  0 
  5 11  1  0  0  0  0 
 11 12  1  4  0  0  0 
 11 13  2  0  0  0  0 
 13 14  1  0  0  0  0 
 13 15  1  0  0  0  0 
 15 16  1  0  0  0  0 
 15 17  1  0  0  0  0 
 15 18  1  0  0  0  0 
 18 19  2  0  0  0  0 
 19 20  1  0  0  0  0 
 19 21  1  0  0  0  0 
 21 22  1  0  0  0  0 
 21 23  2  0  0  0  0 
 23 24  1  0  0  0  0 
 24 25  1  0  0  0  0 
 24 26  2  0  0  0  0 
 18 26  1  0  0  0  0 
 26 27  1  0  0  0  0 
 23 28  1  0  0  0  0 
 28 29  2  0  0  0  0 
 29 30  1  0  0  0  0 
 30 31  1  0  0  0  0 
 30 32  2  0  0  0  0 
 32 33  1  0  0  0  0 
 32 34  1  0  0  0  0 
 34 35  1  0  0  0  0 
 34 36  2  0  0  0  0 
 28 36  1  0  0  0  0 
 36 37  1  0  0  0  0 
 29 38  1  0  0  0  0 
 38 39  2  0  0  0  0 
 38 40  2  0  0  0  0 
 38 41  1  0  0  0  0 
 41 42  1  0  0  0  0 
 42 43  1  0  0  0  0 
 42 44  1  0  0  0  0 
 42 45  1  0  0  0  0 
 45 46  1  0  0  0  0 
 45 47  1  0  0  0  0 
 45 48  1  0  0  0  0 
 48 49  1  0  0  0  0 
 48 50  1  0  0  0  0 
 48 51  1  0  0  0  0 
 41 51  1  0  0  0  0 
 51 52  1  0  0  0  0 
 51 53  1  0  0  0  0 
M  CHG  1  13   1
M  END
> <Rank>
21

> <Priority_score>
0.0888

> <Reaction_type>
dehydration of N-C bond

> <Parent_ID>
8

> <Parent_InChI>
InChI=1S/C21H28N2O2S/c1-17(2)15-22-16-18-9-11-19(12-10-18)20-7-3-4-8-21(20)26(24,25)23-13-5-6-14-23/h3-4,7-12,17,22H,5-6,13-16H2,1-2H3

> <Parent_SMILES>
CC(C)CNCc1ccc(-c2ccccc2S(=O)(=O)N2CCCC2)cc1

$$$$
Molecule 8_metabolite 22
  CDK     0516241031

 52 54  0  0  0  0  0  0  0  0999 V2000
    5.4048  -10.8060    0.0000 C   0  0  0  0  0  0  0  0  0  0  0  0
    6.9048  -10.8038    0.0000 H   0  0  0  0  0  0  0  0  0  0  0  0
    3.9960  -11.3212    0.0000 H   0  0  0  0  0  0  0  0  0  0  0  0
    5.6675  -12.2828    0.0000 H   0  0  0  0  0  0  0  0  0  0  0  0
    4.6528   -9.5081    0.0000 C   0  0  0  0  0  0  0  0  0  0  0  0
    3.1528   -9.5104    0.0000 C   0  0  0  0  0  0  0  0  0  0  0  0
    2.4048  -10.8106    0.0000 H   0  0  0  0  0  0  0  0  0  0  0  0
    2.4009   -8.2125    0.0000 N   0  0  0  0  0  0  0  0  0  0  0  0
    3.1489   -6.9123    0.0000 H   0  0  0  0  0  0  0  0  0  0  0  0
    0.9009   -8.2148    0.0000 C   0  0  0  0  0  0  0  0  0  0  0  0
   -0.5079   -8.7299    0.0000 H   0  0  0  0  0  0  0  0  0  0  0  0
    1.1636   -9.6916    0.0000 H   0  0  0  0  0  0  0  0  0  0  0  0
    0.1489   -6.9169    0.0000 C   0  0  0  0  0  0  0  0  0  0  0  0
    0.8870   -5.6698    0.0000 C   0  0  0  0  0  0  0  0  0  0  0  0
    2.3866   -5.7063    0.0000 H   0  0  0  0  0  0  0  0  0  0  0  0
    0.1962   -4.3609    0.0000 C   0  0  0  0  0  0  0  0  0  0  0  0
    0.9618   -3.0709    0.0000 H   0  0  0  0  0  0  0  0  0  0  0  0
   -1.3020   -4.3816    0.0000 C   0  0  0  0  0  0  0  0  0  0  0  0
   -2.0401   -5.6287    0.0000 C   0  0  0  0  0  0  0  0  0  0  0  0
   -3.5397   -5.5921    0.0000 H   0  0  0  0  0  0  0  0  0  0  0  0
   -1.3493   -6.9376    0.0000 C   0  0  0  0  0  0  0  0  0  0  0  0
   -2.1149   -8.2275    0.0000 H   0  0  0  0  0  0  0  0  0  0  0  0
   -2.0540   -3.0837    0.0000 C   0  0  0  0  0  0  0  0  0  0  0  0
   -3.5548   -3.0839    0.0000 C   0  0  0  0  0  0  0  0  0  0  0  0
   -4.3046   -1.7848    0.0000 C   0  0  0  0  0  0  0  0  0  0  0  0
   -5.8046   -1.7843    0.0000 H   0  0  0  0  0  0  0  0  0  0  0  0
   -3.5536   -0.4854    0.0000 C   0  0  0  0  0  0  0  0  0  0  0  0
   -4.3012    0.8150    0.0000 H   0  0  0  0  0  0  0  0  0  0  0  0
   -2.0614   -0.4901    0.0000 C   0  0  0  0  0  0  0  0  0  0  0  0
   -1.3092    0.8076    0.0000 H   0  0  0  0  0  0  0  0  0  0  0  0
   -1.3116   -1.7893    0.0000 C   0  0  0  0  0  0  0  0  0  0  0  0
    0.1884   -1.7873    0.0000 H   0  0  0  0  0  0  0  0  0  0  0  0
   -4.3048   -4.3830    0.0000 S   0  0  0  0  0  0  0  0  0  0  0  0
   -4.5653   -5.8602    0.0000 O   0  0  0  0  0  0  0  0  0  0  0  0
   -2.8953   -4.8960    0.0000 O   0  0  0  0  0  0  0  0  0  0  0  0
   -5.8048   -4.3830    0.0000 N   0  0  0  0  0  0  0  0  0  0  0  0
   -6.6948   -5.5930    0.0000 C   0  0  0  0  0  0  0  0  0  0  0  0
   -7.3068   -6.9625    0.0000 H   0  0  0  0  0  0  0  0  0  0  0  0
   -5.3985   -6.3477    0.0000 H   0  0  0  0  0  0  0  0  0  0  0  0
   -8.1148   -5.1330    0.0000 C   0  0  0  0  0  0  0  0  0  0  0  0
   -9.6067   -4.9766    0.0000 H   0  0  0  0  0  0  0  0  0  0  0  0
   -8.4258   -6.6004    0.0000 H   0  0  0  0  0  0  0  0  0  0  0  0
   -8.1148   -3.6330    0.0000 C   0  0  0  0  0  0  0  0  0  0  0  0
   -8.4258   -2.1656    0.0000 H   0  0  0  0  0  0  0  0  0  0  0  0
   -9.6067   -3.7893    0.0000 H   0  0  0  0  0  0  0  0  0  0  0  0
   -6.6948   -3.1730    0.0000 C   0  0  0  0  0  0  0  0  0  0  0  0
   -5.3985   -2.4183    0.0000 H   0  0  0  0  0  0  0  0  0  0  0  0
   -7.3068   -1.8035    0.0000 H   0  0  0  0  0  0  0  0  0  0  0  0
    5.4009   -8.2079    0.0000 C   0  0  0  0  0  0  0  0  0  0  0  0
    6.9009   -8.2057    0.0000 H   0  0  0  0  0  0  0  0  0  0  0  0
    5.6591   -6.7303    0.0000 H   0  0  0  0  0  0  0  0  0  0  0  0
    3.9906   -7.6971    0.0000 H   0  0  0  0  0  0  0  0  0  0  0  0
  1  2  1  0  0  0  0 
  1  3  1  0  0  0  0 
  1  4  1  0  0  0  0 
  1  5  1  0  0  0  0 
  5  6  2  0  0  0  0 
  6  7  1  0  0  0  0 
  6  8  1  0  0  0  0 
  8  9  1  0  0  0  0 
  8 10  1  0  0  0  0 
 10 11  1  0  0  0  0 
 10 12  1  0  0  0  0 
 10 13  1  0  0  0  0 
 13 14  2  0  0  0  0 
 14 15  1  0  0  0  0 
 14 16  1  0  0  0  0 
 16 17  1  0  0  0  0 
 16 18  2  0  0  0  0 
 18 19  1  0  0  0  0 
 19 20  1  0  0  0  0 
 19 21  2  0  0  0  0 
 13 21  1  0  0  0  0 
 21 22  1  0  0  0  0 
 18 23  1  0  0  0  0 
 23 24  2  0  0  0  0 
 24 25  1  0  0  0  0 
 25 26  1  0  0  0  0 
 25 27  2  0  0  0  0 
 27 28  1  0  0  0  0 
 27 29  1  0  0  0  0 
 29 30  1  0  0  0  0 
 29 31  2  0  0  0  0 
 23 31  1  0  0  0  0 
 31 32  1  0  0  0  0 
 24 33  1  0  0  0  0 
 33 34  2  0  0  0  0 
 33 35  2  0  0  0  0 
 33 36  1  0  0  0  0 
 36 37  1  0  0  0  0 
 37 38  1  0  0  0  0 
 37 39  1  0  0  0  0 
 37 40  1  0  0  0  0 
 40 41  1  0  0  0  0 
 40 42  1  0  0  0  0 
 40 43  1  0  0  0  0 
 43 44  1  0  0  0  0 
 43 45  1  0  0  0  0 
 43 46  1  0  0  0  0 
 36 46  1  0  0  0  0 
 46 47  1  0  0  0  0 
 46 48  1  0  0  0  0 
  5 49  1  0  0  0  0 
 49 50  1  0  0  0  0 
 49 51  1  0  0  0  0 
 49 52  1  0  0  0  0 
M  END
> <Rank>
21

> <Priority_score>
0.0888

> <Reaction_type>
alkyl dehydrogenation

> <Parent_ID>
8

> <Parent_InChI>
InChI=1S/C21H28N2O2S/c1-17(2)15-22-16-18-9-11-19(12-10-18)20-7-3-4-8-21(20)26(24,25)23-13-5-6-14-23/h3-4,7-12,17,22H,5-6,13-16H2,1-2H3

> <Parent_SMILES>
CC(C)CNCc1ccc(-c2ccccc2S(=O)(=O)N2CCCC2)cc1

$$$$
Molecule 8_metabolite 23
  CDK     0516241031

 52 54  0  0  0  0  0  0  0  0999 V2000
    5.4048  -10.8060    0.0000 C   0  0  0  0  0  0  0  0  0  0  0  0
    6.9048  -10.8038    0.0000 H   0  0  0  0  0  0  0  0  0  0  0  0
    3.9960  -11.3212    0.0000 H   0  0  0  0  0  0  0  0  0  0  0  0
    5.6675  -12.2828    0.0000 H   0  0  0  0  0  0  0  0  0  0  0  0
    4.6528   -9.5081    0.0000 C   0  0  0  0  0  0  0  0  0  0  0  0
    6.0616   -8.9930    0.0000 H   0  0  0  0  0  0  0  0  0  0  0  0
    4.3901   -8.0313    0.0000 C   0  0  0  0  0  0  0  0  0  0  0  0
    2.9798   -7.5204    0.0000 H   0  0  0  0  0  0  0  0  0  0  0  0
    4.6484   -6.5537    0.0000 H   0  0  0  0  0  0  0  0  0  0  0  0
    5.8901   -8.0290    0.0000 H   0  0  0  0  0  0  0  0  0  0  0  0
    3.1528   -9.5104    0.0000 C   0  0  0  0  0  0  0  0  0  0  0  0
    2.4048  -10.8106    0.0000 H   0  0  0  0  0  0  0  0  0  0  0  0
    2.4009   -8.2125    0.0000 N   0  0  0  0  0  0  0  0  0  0  0  0
    0.9009   -8.2148    0.0000 C   0  0  0  0  0  0  0  0  0  0  0  0
   -0.5079   -8.7299    0.0000 H   0  0  0  0  0  0  0  0  0  0  0  0
    1.1636   -9.6916    0.0000 H   0  0  0  0  0  0  0  0  0  0  0  0
    0.1489   -6.9169    0.0000 C   0  0  0  0  0  0  0  0  0  0  0  0
    0.8870   -5.6698    0.0000 C   0  0  0  0  0  0  0  0  0  0  0  0
    2.3866   -5.7063    0.0000 H   0  0  0  0  0  0  0  0  0  0  0  0
    0.1962   -4.3609    0.0000 C   0  0  0  0  0  0  0  0  0  0  0  0
    0.9618   -3.0709    0.0000 H   0  0  0  0  0  0  0  0  0  0  0  0
   -1.3020   -4.3816    0.0000 C   0  0  0  0  0  0  0  0  0  0  0  0
   -2.0401   -5.6287    0.0000 C   0  0  0  0  0  0  0  0  0  0  0  0
   -3.5397   -5.5921    0.0000 H   0  0  0  0  0  0  0  0  0  0  0  0
   -1.3493   -6.9376    0.0000 C   0  0  0  0  0  0  0  0  0  0  0  0
   -2.1149   -8.2275    0.0000 H   0  0  0  0  0  0  0  0  0  0  0  0
   -2.0540   -3.0837    0.0000 C   0  0  0  0  0  0  0  0  0  0  0  0
   -3.5548   -3.0839    0.0000 C   0  0  0  0  0  0  0  0  0  0  0  0
   -4.3046   -1.7848    0.0000 C   0  0  0  0  0  0  0  0  0  0  0  0
   -5.8046   -1.7843    0.0000 H   0  0  0  0  0  0  0  0  0  0  0  0
   -3.5536   -0.4854    0.0000 C   0  0  0  0  0  0  0  0  0  0  0  0
   -4.3012    0.8150    0.0000 H   0  0  0  0  0  0  0  0  0  0  0  0
   -2.0614   -0.4901    0.0000 C   0  0  0  0  0  0  0  0  0  0  0  0
   -1.3092    0.8076    0.0000 H   0  0  0  0  0  0  0  0  0  0  0  0
   -1.3116   -1.7893    0.0000 C   0  0  0  0  0  0  0  0  0  0  0  0
    0.1884   -1.7873    0.0000 H   0  0  0  0  0  0  0  0  0  0  0  0
   -4.3048   -4.3830    0.0000 S   0  0  0  0  0  0  0  0  0  0  0  0
   -4.5653   -5.8602    0.0000 O   0  0  0  0  0  0  0  0  0  0  0  0
   -2.8953   -4.8960    0.0000 O   0  0  0  0  0  0  0  0  0  0  0  0
   -5.8048   -4.3830    0.0000 N   0  0  0  0  0  0  0  0  0  0  0  0
   -6.6948   -5.5930    0.0000 C   0  0  0  0  0  0  0  0  0  0  0  0
   -7.3068   -6.9625    0.0000 H   0  0  0  0  0  0  0  0  0  0  0  0
   -5.3985   -6.3477    0.0000 H   0  0  0  0  0  0  0  0  0  0  0  0
   -8.1148   -5.1330    0.0000 C   0  0  0  0  0  0  0  0  0  0  0  0
   -9.6067   -4.9766    0.0000 H   0  0  0  0  0  0  0  0  0  0  0  0
   -8.4258   -6.6004    0.0000 H   0  0  0  0  0  0  0  0  0  0  0  0
   -8.1148   -3.6330    0.0000 C   0  0  0  0  0  0  0  0  0  0  0  0
   -8.4258   -2.1656    0.0000 H   0  0  0  0  0  0  0  0  0  0  0  0
   -9.6067   -3.7893    0.0000 H   0  0  0  0  0  0  0  0  0  0  0  0
   -6.6948   -3.1730    0.0000 C   0  0  0  0  0  0  0  0  0  0  0  0
   -5.3985   -2.4183    0.0000 H   0  0  0  0  0  0  0  0  0  0  0  0
   -7.3068   -1.8035    0.0000 H   0  0  0  0  0  0  0  0  0  0  0  0
  1  2  1  0  0  0  0 
  1  3  1  0  0  0  0 
  1  4  1  0  0  0  0 
  1  5  1  0  0  0  0 
  5  6  1  0  0  0  0 
  5  7  1  0  0  0  0 
  7  8  1  0  0  0  0 
  7  9  1  0  0  0  0 
  7 10  1  0  0  0  0 
  5 11  1  0  0  0  0 
 11 12  1  4  0  0  0 
 11 13  2  0  0  0  0 
 13 14  1  0  0  0  0 
 14 15  1  0  0  0  0 
 14 16  1  0  0  0  0 
 14 17  1  0  0  0  0 
 17 18  2  0  0  0  0 
 18 19  1  0  0  0  0 
 18 20  1  0  0  0  0 
 20 21  1  0  0  0  0 
 20 22  2  0  0  0  0 
 22 23  1  0  0  0  0 
 23 24  1  0  0  0  0 
 23 25  2  0  0  0  0 
 17 25  1  0  0  0  0 
 25 26  1  0  0  0  0 
 22 27  1  0  0  0  0 
 27 28  2  0  0  0  0 
 28 29  1  0  0  0  0 
 29 30  1  0  0  0  0 
 29 31  2  0  0  0  0 
 31 32  1  0  0  0  0 
 31 33  1  0  0  0  0 
 33 34  1  0  0  0  0 
 33 35  2  0  0  0  0 
 27 35  1  0  0  0  0 
 35 36  1  0  0  0  0 
 28 37  1  0  0  0  0 
 37 38  2  0  0  0  0 
 37 39  2  0  0  0  0 
 37 40  1  0  0  0  0 
 40 41  1  0  0  0  0 
 41 42  1  0  0  0  0 
 41 43  1  0  0  0  0 
 41 44  1  0  0  0  0 
 44 45  1  0  0  0  0 
 44 46  1  0  0  0  0 
 44 47  1  0  0  0  0 
 47 48  1  0  0  0  0 
 47 49  1  0  0  0  0 
 47 50  1  0  0  0  0 
 40 50  1  0  0  0  0 
 50 51  1  0  0  0  0 
 50 52  1  0  0  0  0 
M  END
> <Rank>
21

> <Priority_score>
0.0888

> <Reaction_type>
dehydration of N-C bond

> <Parent_ID>
8

> <Parent_InChI>
InChI=1S/C21H28N2O2S/c1-17(2)15-22-16-18-9-11-19(12-10-18)20-7-3-4-8-21(20)26(24,25)23-13-5-6-14-23/h3-4,7-12,17,22H,5-6,13-16H2,1-2H3

> <Parent_SMILES>
CC(C)CNCc1ccc(-c2ccccc2S(=O)(=O)N2CCCC2)cc1

$$$$
Molecule 8_metabolite 24
  CDK     0516241031

 55 57  0  0  0  0  0  0  0  0999 V2000
   -9.4471   -8.2205    0.0000 C   0  0  0  0  0  0  0  0  0  0  0  0
  -10.7464   -7.4710    0.0000 H   0  0  0  0  0  0  0  0  0  0  0  0
  -10.4109   -9.3699    0.0000 H   0  0  0  0  0  0  0  0  0  0  0  0
   -8.4825   -9.3693    0.0000 H   0  0  0  0  0  0  0  0  0  0  0  0
   -7.7327   -7.2300    0.0000 C   0  0  0  0  0  0  0  0  0  0  0  0
   -6.7689   -6.0806    0.0000 H   0  0  0  0  0  0  0  0  0  0  0  0
   -8.6972   -6.0812    0.0000 C   0  0  0  0  0  0  0  0  0  0  0  0
  -10.1743   -6.3422    0.0000 H   0  0  0  0  0  0  0  0  0  0  0  0
   -7.3984   -5.3308    0.0000 H   0  0  0  0  0  0  0  0  0  0  0  0
   -9.2107   -4.6719    0.0000 H   0  0  0  0  0  0  0  0  0  0  0  0
   -6.4334   -7.9796    0.0000 C   0  0  0  0  0  0  0  0  0  0  0  0
   -7.3972   -9.1290    0.0000 H   0  0  0  0  0  0  0  0  0  0  0  0
   -5.4688   -9.1283    0.0000 H   0  0  0  0  0  0  0  0  0  0  0  0
   -4.7190   -6.9890    0.0000 N   0  0  0  0  0  0  0  0  0  0  0  0
   -4.7195   -5.4890    0.0000 H   0  0  0  0  0  0  0  0  0  0  0  0
   -3.4197   -7.7386    0.0000 C   0  0  0  0  0  0  0  0  0  0  0  0
   -4.3835   -8.8880    0.0000 H   0  0  0  0  0  0  0  0  0  0  0  0
   -2.4551   -8.8874    0.0000 H   0  0  0  0  0  0  0  0  0  0  0  0
   -2.1209   -6.9882    0.0000 C   0  0  0  0  0  0  0  0  0  0  0  0
   -0.8747   -7.7278    0.0000 C   0  0  0  0  0  0  0  0  0  0  0  0
   -0.9130   -9.2273    0.0000 H   0  0  0  0  0  0  0  0  0  0  0  0
    0.4350   -7.0385    0.0000 C   0  0  0  0  0  0  0  0  0  0  0  0
    1.7240   -7.8056    0.0000 H   0  0  0  0  0  0  0  0  0  0  0  0
    0.4161   -5.5403    0.0000 C   0  0  0  0  0  0  0  0  0  0  0  0
   -0.8301   -4.8007    0.0000 C   0  0  0  0  0  0  0  0  0  0  0  0
   -0.7918   -3.3012    0.0000 H   0  0  0  0  0  0  0  0  0  0  0  0
   -2.1399   -5.4900    0.0000 C   0  0  0  0  0  0  0  0  0  0  0  0
   -3.4288   -4.7228    0.0000 H   0  0  0  0  0  0  0  0  0  0  0  0
    1.7149   -4.7899    0.0000 C   0  0  0  0  0  0  0  0  0  0  0  0
    3.0150   -5.5397    0.0000 C   0  0  0  0  0  0  0  0  0  0  0  0
    3.0153   -7.0397    0.0000 H   0  0  0  0  0  0  0  0  0  0  0  0
    4.3149   -4.7895    0.0000 C   0  0  0  0  0  0  0  0  0  0  0  0
    4.3147   -3.2895    0.0000 C   0  0  0  0  0  0  0  0  0  0  0  0
    5.6135   -2.5390    0.0000 H   0  0  0  0  0  0  0  0  0  0  0  0
    3.0145   -2.5397    0.0000 C   0  0  0  0  0  0  0  0  0  0  0  0
    3.0143   -1.0397    0.0000 H   0  0  0  0  0  0  0  0  0  0  0  0
    1.7147   -3.2899    0.0000 C   0  0  0  0  0  0  0  0  0  0  0  0
    0.4156   -2.5399    0.0000 S   0  0  0  0  0  0  0  0  0  0  0  0
   -1.0616   -2.2794    0.0000 O   0  0  0  0  0  0  0  0  0  0  0  0
   -0.0974   -3.9494    0.0000 O   0  0  0  0  0  0  0  0  0  0  0  0
    0.4156   -1.0399    0.0000 N   0  0  0  0  0  0  0  0  0  0  0  0
   -0.7944   -0.1499    0.0000 C   0  0  0  0  0  0  0  0  0  0  0  0
   -2.1639    0.4621    0.0000 H   0  0  0  0  0  0  0  0  0  0  0  0
   -1.5491   -1.4462    0.0000 H   0  0  0  0  0  0  0  0  0  0  0  0
   -0.3344    1.2701    0.0000 C   0  0  0  0  0  0  0  0  0  0  0  0
   -0.1780    2.7620    0.0000 H   0  0  0  0  0  0  0  0  0  0  0  0
   -1.8018    1.5811    0.0000 H   0  0  0  0  0  0  0  0  0  0  0  0
    1.1656    1.2701    0.0000 C   0  0  0  0  0  0  0  0  0  0  0  0
    2.6330    1.5811    0.0000 H   0  0  0  0  0  0  0  0  0  0  0  0
    1.0093    2.7620    0.0000 H   0  0  0  0  0  0  0  0  0  0  0  0
    1.6256   -0.1499    0.0000 C   0  0  0  0  0  0  0  0  0  0  0  0
    2.3803   -1.4462    0.0000 H   0  0  0  0  0  0  0  0  0  0  0  0
    2.9951    0.4621    0.0000 H   0  0  0  0  0  0  0  0  0  0  0  0
    5.6139   -5.5395    0.0000 O   0  0  0  0  0  0  0  0  0  0  0  0
    6.9130   -4.7895    0.0000 H   0  0  0  0  0  0  0  0  0  0  0  0
  1  2  1  0  0  0  0 
  1  3  1  0  0  0  0 
  1  4  1  0  0  0  0 
  1  5  1  0  0  0  0 
  5  6  1  0  0  0  0 
  5  7  1  0  0  0  0 
  7  8  1  0  0  0  0 
  7  9  1  0  0  0  0 
  7 10  1  0  0  0  0 
  5 11  1  0  0  0  0 
 11 12  1  0  0  0  0 
 11 13  1  0  0  0  0 
 11 14  1  0  0  0  0 
 14 15  1  0  0  0  0 
 14 16  1  0  0  0  0 
 16 17  1  0  0  0  0 
 16 18  1  0  0  0  0 
 16 19  1  0  0  0  0 
 19 20  2  0  0  0  0 
 20 21  1  0  0  0  0 
 20 22  1  0  0  0  0 
 22 23  1  0  0  0  0 
 22 24  2  0  0  0  0 
 24 25  1  0  0  0  0 
 25 26  1  0  0  0  0 
 25 27  2  0  0  0  0 
 19 27  1  0  0  0  0 
 27 28  1  0  0  0  0 
 24 29  1  0  0  0  0 
 29 30  2  0  0  0  0 
 30 31  1  0  0  0  0 
 30 32  1  0  0  0  0 
 32 33  2  0  0  0  0 
 33 34  1  0  0  0  0 
 33 35  1  0  0  0  0 
 35 36  1  0  0  0  0 
 35 37  2  0  0  0  0 
 29 37  1  0  0  0  0 
 37 38  1  0  0  0  0 
 38 39  2  0  0  0  0 
 38 40  2  0  0  0  0 
 38 41  1  0  0  0  0 
 41 42  1  0  0  0  0 
 42 43  1  0  0  0  0 
 42 44  1  0  0  0  0 
 42 45  1  0  0  0  0 
 45 46  1  0  0  0  0 
 45 47  1  0  0  0  0 
 45 48  1  0  0  0  0 
 48 49  1  0  0  0  0 
 48 50  1  0  0  0  0 
 48 51  1  0  0  0  0 
 41 51  1  0  0  0  0 
 51 52  1  0  0  0  0 
 51 53  1  0  0  0  0 
 32 54  1  0  0  0  0 
 54 55  1  0  0  0  0 
M  END
> <Rank>
24

> <Priority_score>
0.072

> <Reaction_type>
aromatic_hydroxylation_(meta_to_carbon)

> <Parent_ID>
8

> <Parent_InChI>
InChI=1S/C21H28N2O2S/c1-17(2)15-22-16-18-9-11-19(12-10-18)20-7-3-4-8-21(20)26(24,25)23-13-5-6-14-23/h3-4,7-12,17,22H,5-6,13-16H2,1-2H3

> <Parent_SMILES>
CC(C)CNCc1ccc(-c2ccccc2S(=O)(=O)N2CCCC2)cc1

$$$$
Molecule 8_metabolite 25
  CDK     0516241031

 55 57  0  0  0  0  0  0  0  0999 V2000
   -1.7239   -7.3204    0.0000 C   0  0  0  0  0  0  0  0  0  0  0  0
   -0.4250   -8.0707    0.0000 H   0  0  0  0  0  0  0  0  0  0  0  0
   -3.2011   -7.0597    0.0000 H   0  0  0  0  0  0  0  0  0  0  0  0
   -2.2372   -8.7299    0.0000 H   0  0  0  0  0  0  0  0  0  0  0  0
   -1.7237   -5.8204    0.0000 C   0  0  0  0  0  0  0  0  0  0  0  0
   -0.2465   -6.0812    0.0000 H   0  0  0  0  0  0  0  0  0  0  0  0
   -1.0462   -3.9600    0.0000 C   0  0  0  0  0  0  0  0  0  0  0  0
   -2.0102   -2.8107    0.0000 H   0  0  0  0  0  0  0  0  0  0  0  0
   -0.0818   -2.8111    0.0000 H   0  0  0  0  0  0  0  0  0  0  0  0
    0.2527   -4.7102    0.0000 H   0  0  0  0  0  0  0  0  0  0  0  0
   -3.0226   -5.0702    0.0000 C   0  0  0  0  0  0  0  0  0  0  0  0
   -3.9866   -3.9210    0.0000 H   0  0  0  0  0  0  0  0  0  0  0  0
   -2.0582   -3.9213    0.0000 H   0  0  0  0  0  0  0  0  0  0  0  0
   -4.7375   -6.0600    0.0000 N   0  0  0  0  0  0  0  0  0  0  0  0
   -4.7377   -7.5600    0.0000 H   0  0  0  0  0  0  0  0  0  0  0  0
   -6.0364   -5.3098    0.0000 C   0  0  0  0  0  0  0  0  0  0  0  0
   -7.0004   -4.1605    0.0000 H   0  0  0  0  0  0  0  0  0  0  0  0
   -5.0720   -4.1608    0.0000 H   0  0  0  0  0  0  0  0  0  0  0  0
   -7.3356   -6.0595    0.0000 C   0  0  0  0  0  0  0  0  0  0  0  0
   -7.3179   -7.5086    0.0000 C   0  0  0  0  0  0  0  0  0  0  0  0
   -6.0000   -8.2249    0.0000 H   0  0  0  0  0  0  0  0  0  0  0  0
   -8.5696   -8.2984    0.0000 C   0  0  0  0  0  0  0  0  0  0  0  0
   -8.5495   -9.7983    0.0000 H   0  0  0  0  0  0  0  0  0  0  0  0
   -9.8578   -7.5331    0.0000 C   0  0  0  0  0  0  0  0  0  0  0  0
   -9.8754   -6.0840    0.0000 C   0  0  0  0  0  0  0  0  0  0  0  0
  -11.1933   -5.3677    0.0000 H   0  0  0  0  0  0  0  0  0  0  0  0
   -8.6237   -5.2942    0.0000 C   0  0  0  0  0  0  0  0  0  0  0  0
   -8.6438   -3.7944    0.0000 H   0  0  0  0  0  0  0  0  0  0  0  0
  -11.1569   -8.2829    0.0000 C   0  0  0  0  0  0  0  0  0  0  0  0
  -12.4567   -7.5325    0.0000 C   0  0  0  0  0  0  0  0  0  0  0  0
  -13.7569   -8.2821    0.0000 C   0  0  0  0  0  0  0  0  0  0  0  0
  -13.7574   -9.7821    0.0000 C   0  0  0  0  0  0  0  0  0  0  0  0
  -15.0566  -10.5318    0.0000 H   0  0  0  0  0  0  0  0  0  0  0  0
  -12.4576  -10.5325    0.0000 C   0  0  0  0  0  0  0  0  0  0  0  0
  -12.4581  -12.0325    0.0000 H   0  0  0  0  0  0  0  0  0  0  0  0
  -11.1574   -9.7829    0.0000 C   0  0  0  0  0  0  0  0  0  0  0  0
   -9.8587  -10.5335    0.0000 H   0  0  0  0  0  0  0  0  0  0  0  0
  -15.0556   -7.5314    0.0000 O   0  0  0  0  0  0  0  0  0  0  0  0
  -16.3550   -8.2808    0.0000 H   0  0  0  0  0  0  0  0  0  0  0  0
  -12.4562   -6.0325    0.0000 S   0  0  0  0  0  0  0  0  0  0  0  0
  -11.9427   -4.6231    0.0000 O   0  0  0  0  0  0  0  0  0  0  0  0
  -10.9791   -6.2934    0.0000 O   0  0  0  0  0  0  0  0  0  0  0  0
  -13.7550   -5.2821    0.0000 N   0  0  0  0  0  0  0  0  0  0  0  0
  -13.9203   -3.7891    0.0000 C   0  0  0  0  0  0  0  0  0  0  0  0
  -13.7650   -2.2972    0.0000 H   0  0  0  0  0  0  0  0  0  0  0  0
  -12.4203   -3.7842    0.0000 H   0  0  0  0  0  0  0  0  0  0  0  0
  -15.3799   -3.4770    0.0000 C   0  0  0  0  0  0  0  0  0  0  0  0
  -16.7499   -2.8661    0.0000 H   0  0  0  0  0  0  0  0  0  0  0  0
  -14.9151   -2.0509    0.0000 H   0  0  0  0  0  0  0  0  0  0  0  0
  -16.1303   -4.7758    0.0000 C   0  0  0  0  0  0  0  0  0  0  0  0
  -17.1337   -5.8908    0.0000 H   0  0  0  0  0  0  0  0  0  0  0  0
  -17.3438   -3.8941    0.0000 H   0  0  0  0  0  0  0  0  0  0  0  0
  -15.1309   -5.8845    0.0000 C   0  0  0  0  0  0  0  0  0  0  0  0
  -14.3861   -7.1865    0.0000 H   0  0  0  0  0  0  0  0  0  0  0  0
  -16.3460   -6.7641    0.0000 H   0  0  0  0  0  0  0  0  0  0  0  0
  1  2  1  0  0  0  0 
  1  3  1  0  0  0  0 
  1  4  1  0  0  0  0 
  1  5  1  0  0  0  0 
  5  6  1  0  0  0  0 
  5  7  1  0  0  0  0 
  7  8  1  0  0  0  0 
  7  9  1  0  0  0  0 
  7 10  1  0  0  0  0 
  5 11  1  0  0  0  0 
 11 12  1  0  0  0  0 
 11 13  1  0  0  0  0 
 11 14  1  0  0  0  0 
 14 15  1  0  0  0  0 
 14 16  1  0  0  0  0 
 16 17  1  0  0  0  0 
 16 18  1  0  0  0  0 
 16 19  1  0  0  0  0 
 19 20  2  0  0  0  0 
 20 21  1  0  0  0  0 
 20 22  1  0  0  0  0 
 22 23  1  0  0  0  0 
 22 24  2  0  0  0  0 
 24 25  1  0  0  0  0 
 25 26  1  0  0  0  0 
 25 27  2  0  0  0  0 
 19 27  1  0  0  0  0 
 27 28  1  0  0  0  0 
 24 29  1  0  0  0  0 
 29 30  2  0  0  0  0 
 30 31  1  0  0  0  0 
 31 32  2  0  0  0  0 
 32 33  1  0  0  0  0 
 32 34  1  0  0  0  0 
 34 35  1  0  0  0  0 
 34 36  2  0  0  0  0 
 29 36  1  0  0  0  0 
 36 37  1  0  0  0  0 
 31 38  1  0  0  0  0 
 38 39  1  0  0  0  0 
 30 40  1  0  0  0  0 
 40 41  2  0  0  0  0 
 40 42  2  0  0  0  0 
 40 43  1  0  0  0  0 
 43 44  1  0  0  0  0 
 44 45  1  0  0  0  0 
 44 46  1  0  0  0  0 
 44 47  1  0  0  0  0 
 47 48  1  0  0  0  0 
 47 49  1  0  0  0  0 
 47 50  1  0  0  0  0 
 50 51  1  0  0  0  0 
 50 52  1  0  0  0  0 
 50 53  1  0  0  0  0 
 43 53  1  0  0  0  0 
 53 54  1  0  0  0  0 
 53 55  1  0  0  0  0 
M  END
> <Rank>
24

> <Priority_score>
0.072

> <Reaction_type>
aromatic_hydroxylation_(meta_to_carbon)

> <Parent_ID>
8

> <Parent_InChI>
InChI=1S/C21H28N2O2S/c1-17(2)15-22-16-18-9-11-19(12-10-18)20-7-3-4-8-21(20)26(24,25)23-13-5-6-14-23/h3-4,7-12,17,22H,5-6,13-16H2,1-2H3

> <Parent_SMILES>
CC(C)CNCc1ccc(-c2ccccc2S(=O)(=O)N2CCCC2)cc1

$$$$
Molecule 8_metabolite 26
  CDK     0516241031

 55 57  0  0  0  0  0  0  0  0999 V2000
    5.6135    1.6126    0.0000 C   0  0  0  0  0  0  0  0  0  0  0  0
    6.9127    0.8630    0.0000 H   0  0  0  0  0  0  0  0  0  0  0  0
    6.5773    2.7620    0.0000 H   0  0  0  0  0  0  0  0  0  0  0  0
    4.6489    2.7613    0.0000 H   0  0  0  0  0  0  0  0  0  0  0  0
    3.8990    0.6220    0.0000 C   0  0  0  0  0  0  0  0  0  0  0  0
    2.9352   -0.5273    0.0000 H   0  0  0  0  0  0  0  0  0  0  0  0
    4.8636   -0.5267    0.0000 C   0  0  0  0  0  0  0  0  0  0  0  0
    6.3407   -0.2658    0.0000 H   0  0  0  0  0  0  0  0  0  0  0  0
    3.5648   -1.2771    0.0000 H   0  0  0  0  0  0  0  0  0  0  0  0
    5.3771   -1.9361    0.0000 H   0  0  0  0  0  0  0  0  0  0  0  0
    2.5998    1.3716    0.0000 C   0  0  0  0  0  0  0  0  0  0  0  0
    3.5636    2.5210    0.0000 H   0  0  0  0  0  0  0  0  0  0  0  0
    1.6352    2.5204    0.0000 H   0  0  0  0  0  0  0  0  0  0  0  0
    0.8853    0.3811    0.0000 N   0  0  0  0  0  0  0  0  0  0  0  0
    0.8858   -1.1189    0.0000 H   0  0  0  0  0  0  0  0  0  0  0  0
   -0.4139    1.1307    0.0000 C   0  0  0  0  0  0  0  0  0  0  0  0
    0.5499    2.2800    0.0000 H   0  0  0  0  0  0  0  0  0  0  0  0
   -1.3785    2.2794    0.0000 H   0  0  0  0  0  0  0  0  0  0  0  0
   -1.7127    0.3802    0.0000 C   0  0  0  0  0  0  0  0  0  0  0  0
   -2.9590    1.1198    0.0000 C   0  0  0  0  0  0  0  0  0  0  0  0
   -2.9206    2.6194    0.0000 H   0  0  0  0  0  0  0  0  0  0  0  0
   -4.2687    0.4305    0.0000 C   0  0  0  0  0  0  0  0  0  0  0  0
   -5.5577    1.1977    0.0000 H   0  0  0  0  0  0  0  0  0  0  0  0
   -4.2497   -1.0677    0.0000 C   0  0  0  0  0  0  0  0  0  0  0  0
   -3.0035   -1.8073    0.0000 C   0  0  0  0  0  0  0  0  0  0  0  0
   -3.0418   -3.3068    0.0000 H   0  0  0  0  0  0  0  0  0  0  0  0
   -1.6938   -1.1180    0.0000 C   0  0  0  0  0  0  0  0  0  0  0  0
   -0.4048   -1.8851    0.0000 H   0  0  0  0  0  0  0  0  0  0  0  0
   -5.5485   -1.8181    0.0000 C   0  0  0  0  0  0  0  0  0  0  0  0
   -6.8486   -1.0683    0.0000 C   0  0  0  0  0  0  0  0  0  0  0  0
   -6.8489    0.4317    0.0000 H   0  0  0  0  0  0  0  0  0  0  0  0
   -8.1485   -1.8185    0.0000 C   0  0  0  0  0  0  0  0  0  0  0  0
   -9.4476   -1.0685    0.0000 H   0  0  0  0  0  0  0  0  0  0  0  0
   -8.1483   -3.3185    0.0000 C   0  0  0  0  0  0  0  0  0  0  0  0
   -6.8482   -4.0683    0.0000 C   0  0  0  0  0  0  0  0  0  0  0  0
   -6.8479   -5.5683    0.0000 H   0  0  0  0  0  0  0  0  0  0  0  0
   -5.5483   -3.3181    0.0000 C   0  0  0  0  0  0  0  0  0  0  0  0
   -4.2492   -4.0681    0.0000 S   0  0  0  0  0  0  0  0  0  0  0  0
   -2.7720   -4.3286    0.0000 O   0  0  0  0  0  0  0  0  0  0  0  0
   -3.7362   -2.6585    0.0000 O   0  0  0  0  0  0  0  0  0  0  0  0
   -4.2492   -5.5681    0.0000 N   0  0  0  0  0  0  0  0  0  0  0  0
   -3.0392   -6.4581    0.0000 C   0  0  0  0  0  0  0  0  0  0  0  0
   -1.6698   -7.0701    0.0000 H   0  0  0  0  0  0  0  0  0  0  0  0
   -2.2846   -5.1618    0.0000 H   0  0  0  0  0  0  0  0  0  0  0  0
   -3.4992   -7.8781    0.0000 C   0  0  0  0  0  0  0  0  0  0  0  0
   -3.6556   -9.3699    0.0000 H   0  0  0  0  0  0  0  0  0  0  0  0
   -2.0318   -8.1891    0.0000 H   0  0  0  0  0  0  0  0  0  0  0  0
   -4.9992   -7.8781    0.0000 C   0  0  0  0  0  0  0  0  0  0  0  0
   -6.4667   -8.1891    0.0000 H   0  0  0  0  0  0  0  0  0  0  0  0
   -4.8429   -9.3699    0.0000 H   0  0  0  0  0  0  0  0  0  0  0  0
   -5.4592   -6.4581    0.0000 C   0  0  0  0  0  0  0  0  0  0  0  0
   -6.2139   -5.1618    0.0000 H   0  0  0  0  0  0  0  0  0  0  0  0
   -6.8287   -7.0701    0.0000 H   0  0  0  0  0  0  0  0  0  0  0  0
   -9.4471   -4.0689    0.0000 O   0  0  0  0  0  0  0  0  0  0  0  0
  -10.7464   -3.3193    0.0000 H   0  0  0  0  0  0  0  0  0  0  0  0
  1  2  1  0  0  0  0 
  1  3  1  0  0  0  0 
  1  4  1  0  0  0  0 
  1  5  1  0  0  0  0 
  5  6  1  0  0  0  0 
  5  7  1  0  0  0  0 
  7  8  1  0  0  0  0 
  7  9  1  0  0  0  0 
  7 10  1  0  0  0  0 
  5 11  1  0  0  0  0 
 11 12  1  0  0  0  0 
 11 13  1  0  0  0  0 
 11 14  1  0  0  0  0 
 14 15  1  0  0  0  0 
 14 16  1  0  0  0  0 
 16 17  1  0  0  0  0 
 16 18  1  0  0  0  0 
 16 19  1  0  0  0  0 
 19 20  2  0  0  0  0 
 20 21  1  0  0  0  0 
 20 22  1  0  0  0  0 
 22 23  1  0  0  0  0 
 22 24  2  0  0  0  0 
 24 25  1  0  0  0  0 
 25 26  1  0  0  0  0 
 25 27  2  0  0  0  0 
 19 27  1  0  0  0  0 
 27 28  1  0  0  0  0 
 24 29  1  0  0  0  0 
 29 30  2  0  0  0  0 
 30 31  1  0  0  0  0 
 30 32  1  0  0  0  0 
 32 33  1  0  0  0  0 
 32 34  2  0  0  0  0 
 34 35  1  0  0  0  0 
 35 36  1  0  0  0  0 
 35 37  2  0  0  0  0 
 29 37  1  0  0  0  0 
 37 38  1  0  0  0  0 
 38 39  2  0  0  0  0 
 38 40  2  0  0  0  0 
 38 41  1  0  0  0  0 
 41 42  1  0  0  0  0 
 42 43  1  0  0  0  0 
 42 44  1  0  0  0  0 
 42 45  1  0  0  0  0 
 45 46  1  0  0  0  0 
 45 47  1  0  0  0  0 
 45 48  1  0  0  0  0 
 48 49  1  0  0  0  0 
 48 50  1  0  0  0  0 
 48 51  1  0  0  0  0 
 41 51  1  0  0  0  0 
 51 52  1  0  0  0  0 
 51 53  1  0  0  0  0 
 34 54  1  0  0  0  0 
 54 55  1  0  0  0  0 
M  END
> <Rank>
24

> <Priority_score>
0.072

> <Reaction_type>
aromatic_hydroxylation_(para_to_carbon)

> <Parent_ID>
8

> <Parent_InChI>
InChI=1S/C21H28N2O2S/c1-17(2)15-22-16-18-9-11-19(12-10-18)20-7-3-4-8-21(20)26(24,25)23-13-5-6-14-23/h3-4,7-12,17,22H,5-6,13-16H2,1-2H3

> <Parent_SMILES>
CC(C)CNCc1ccc(-c2ccccc2S(=O)(=O)N2CCCC2)cc1

$$$$
Molecule 8_metabolite 27
  CDK     0516241031

 52 54  0  0  0  0  0  0  0  0999 V2000
   -4.5515  -11.0174    0.0000 C   0  0  0  0  0  0  0  0  0  0  0  0
   -3.7995  -12.3153    0.0000 H   0  0  0  0  0  0  0  0  0  0  0  0
   -5.7020  -10.0549    0.0000 H   0  0  0  0  0  0  0  0  0  0  0  0
   -5.6991  -11.9833    0.0000 H   0  0  0  0  0  0  0  0  0  0  0  0
   -3.8034   -9.7172    0.0000 C   0  0  0  0  0  0  0  0  0  0  0  0
   -2.6529  -10.6796    0.0000 H   0  0  0  0  0  0  0  0  0  0  0  0
   -2.6558   -8.7513    0.0000 C   0  0  0  0  0  0  0  0  0  0  0  0
   -1.2455   -9.2622    0.0000 H   0  0  0  0  0  0  0  0  0  0  0  0
   -1.9078   -7.4511    0.0000 H   0  0  0  0  0  0  0  0  0  0  0  0
   -3.8064   -7.7888    0.0000 H   0  0  0  0  0  0  0  0  0  0  0  0
   -5.0367   -7.5886    0.0000 C   0  0  0  0  0  0  0  0  0  0  0  0
   -5.2994   -6.1118    0.0000 H   0  0  0  0  0  0  0  0  0  0  0  0
   -2.2755   -6.5789    0.0000 H   0  0  0  0  0  0  0  0  0  0  0  0
   -6.5367   -7.5909    0.0000 N   0  0  0  0  0  0  0  0  0  0  0  0
   -7.2886   -6.2930    0.0000 C   0  0  0  0  0  0  0  0  0  0  0  0
   -6.5406   -4.9928    0.0000 H   0  0  0  0  0  0  0  0  0  0  0  0
   -8.7886   -6.2953    0.0000 C   0  0  0  0  0  0  0  0  0  0  0  0
   -9.4958   -7.5602    0.0000 C   0  0  0  0  0  0  0  0  0  0  0  0
   -8.7105   -8.8382    0.0000 H   0  0  0  0  0  0  0  0  0  0  0  0
  -10.9746   -7.6208    0.0000 C   0  0  0  0  0  0  0  0  0  0  0  0
  -11.7049   -8.9310    0.0000 H   0  0  0  0  0  0  0  0  0  0  0  0
  -11.7097   -6.3152    0.0000 C   0  0  0  0  0  0  0  0  0  0  0  0
  -11.0025   -5.0503    0.0000 C   0  0  0  0  0  0  0  0  0  0  0  0
  -11.7878   -3.7723    0.0000 H   0  0  0  0  0  0  0  0  0  0  0  0
   -9.5237   -4.9897    0.0000 C   0  0  0  0  0  0  0  0  0  0  0  0
   -8.7934   -3.6795    0.0000 H   0  0  0  0  0  0  0  0  0  0  0  0
  -13.2097   -6.3175    0.0000 C   0  0  0  0  0  0  0  0  0  0  0  0
  -13.9638   -5.0199    0.0000 C   0  0  0  0  0  0  0  0  0  0  0  0
  -15.4638   -5.0247    0.0000 C   0  0  0  0  0  0  0  0  0  0  0  0
  -16.2181   -3.7281    0.0000 H   0  0  0  0  0  0  0  0  0  0  0  0
  -16.2096   -6.3271    0.0000 C   0  0  0  0  0  0  0  0  0  0  0  0
  -17.7096   -6.3343    0.0000 H   0  0  0  0  0  0  0  0  0  0  0  0
  -15.4555   -7.6147    0.0000 C   0  0  0  0  0  0  0  0  0  0  0  0
  -16.1994   -8.9172    0.0000 H   0  0  0  0  0  0  0  0  0  0  0  0
  -13.9555   -7.6099    0.0000 C   0  0  0  0  0  0  0  0  0  0  0  0
  -13.2034   -8.9076    0.0000 H   0  0  0  0  0  0  0  0  0  0  0  0
  -13.2177   -3.7186    0.0000 S   0  0  0  0  0  0  0  0  0  0  0  0
  -12.0716   -2.7509    0.0000 O   0  0  0  0  0  0  0  0  0  0  0  0
  -12.0657   -4.6793    0.0000 O   0  0  0  0  0  0  0  0  0  0  0  0
  -13.9717   -2.4218    0.0000 N   0  0  0  0  0  0  0  0  0  0  0  0
  -13.3729   -1.0442    0.0000 C   0  0  0  0  0  0  0  0  0  0  0  0
  -12.4966    0.1732    0.0000 H   0  0  0  0  0  0  0  0  0  0  0  0
  -12.0689   -1.7856    0.0000 H   0  0  0  0  0  0  0  0  0  0  0  0
  -14.4843   -0.0478    0.0000 C   0  0  0  0  0  0  0  0  0  0  0  0
  -15.3693    1.1633    0.0000 H   0  0  0  0  0  0  0  0  0  0  0  0
  -13.3721    0.9586    0.0000 H   0  0  0  0  0  0  0  0  0  0  0  0
  -15.7811   -0.8018    0.0000 C   0  0  0  0  0  0  0  0  0  0  0  0
  -17.2060   -1.2705    0.0000 H   0  0  0  0  0  0  0  0  0  0  0  0
  -16.3958    0.5665    0.0000 H   0  0  0  0  0  0  0  0  0  0  0  0
  -15.4650   -2.2606    0.0000 C   0  0  0  0  0  0  0  0  0  0  0  0
  -15.4659   -3.7606    0.0000 H   0  0  0  0  0  0  0  0  0  0  0  0
  -16.9566   -2.4199    0.0000 H   0  0  0  0  0  0  0  0  0  0  0  0
  1  2  1  0  0  0  0 
  1  3  1  0  0  0  0 
  1  4  1  0  0  0  0 
  1  5  1  0  0  0  0 
  5  6  1  0  0  0  0 
  5  7  1  0  0  0  0 
  7  8  1  0  0  0  0 
  7  9  1  0  0  0  0 
  7 10  1  0  0  0  0 
  5 11  1  0  0  0  0 
 11 12  1  0  0  0  0 
 11 13  1  0  0  0  0 
 11 14  1  0  0  0  0 
 14 15  2  0  0  0  0 
 15 16  1  4  0  0  0 
 15 17  1  0  0  0  0 
 17 18  2  0  0  0  0 
 18 19  1  0  0  0  0 
 18 20  1  0  0  0  0 
 20 21  1  0  0  0  0 
 20 22  2  0  0  0  0 
 22 23  1  0  0  0  0 
 23 24  1  0  0  0  0 
 23 25  2  0  0  0  0 
 17 25  1  0  0  0  0 
 25 26  1  0  0  0  0 
 22 27  1  0  0  0  0 
 27 28  2  0  0  0  0 
 28 29  1  0  0  0  0 
 29 30  1  0  0  0  0 
 29 31  2  0  0  0  0 
 31 32  1  0  0  0  0 
 31 33  1  0  0  0  0 
 33 34  1  0  0  0  0 
 33 35  2  0  0  0  0 
 27 35  1  0  0  0  0 
 35 36  1  0  0  0  0 
 28 37  1  0  0  0  0 
 37 38  2  0  0  0  0 
 37 39  2  0  0  0  0 
 37 40  1  0  0  0  0 
 40 41  1  0  0  0  0 
 41 42  1  0  0  0  0 
 41 43  1  0  0  0  0 
 41 44  1  0  0  0  0 
 44 45  1  0  0  0  0 
 44 46  1  0  0  0  0 
 44 47  1  0  0  0  0 
 47 48  1  0  0  0  0 
 47 49  1  0  0  0  0 
 47 50  1  0  0  0  0 
 40 50  1  0  0  0  0 
 50 51  1  0  0  0  0 
 50 52  1  0  0  0  0 
M  END
> <Rank>
27

> <Priority_score>
0.052000000000000005

> <Reaction_type>
dehydration of N-C bond

> <Parent_ID>
8

> <Parent_InChI>
InChI=1S/C21H28N2O2S/c1-17(2)15-22-16-18-9-11-19(12-10-18)20-7-3-4-8-21(20)26(24,25)23-13-5-6-14-23/h3-4,7-12,17,22H,5-6,13-16H2,1-2H3

> <Parent_SMILES>
CC(C)CNCc1ccc(-c2ccccc2S(=O)(=O)N2CCCC2)cc1

$$$$
Molecule 8_metabolite 28
  CDK     0516241031

 53 55  0  0  0  0  0  0  0  0999 V2000
   -4.5515  -11.0174    0.0000 C   0  0  0  0  0  0  0  0  0  0  0  0
   -3.7995  -12.3153    0.0000 H   0  0  0  0  0  0  0  0  0  0  0  0
   -5.7020  -10.0549    0.0000 H   0  0  0  0  0  0  0  0  0  0  0  0
   -5.6991  -11.9833    0.0000 H   0  0  0  0  0  0  0  0  0  0  0  0
   -3.8034   -9.7172    0.0000 C   0  0  0  0  0  0  0  0  0  0  0  0
   -2.6529  -10.6796    0.0000 H   0  0  0  0  0  0  0  0  0  0  0  0
   -2.6558   -8.7513    0.0000 C   0  0  0  0  0  0  0  0  0  0  0  0
   -1.2455   -9.2622    0.0000 H   0  0  0  0  0  0  0  0  0  0  0  0
   -1.9078   -7.4511    0.0000 H   0  0  0  0  0  0  0  0  0  0  0  0
   -3.8064   -7.7888    0.0000 H   0  0  0  0  0  0  0  0  0  0  0  0
   -5.0367   -7.5886    0.0000 C   0  0  0  0  0  0  0  0  0  0  0  0
   -5.2994   -6.1118    0.0000 H   0  0  0  0  0  0  0  0  0  0  0  0
   -2.2755   -6.5789    0.0000 H   0  0  0  0  0  0  0  0  0  0  0  0
   -6.5367   -7.5909    0.0000 N   0  0  0  0  0  0  0  0  0  0  0  0
   -7.2847   -8.8911    0.0000 H   0  0  0  0  0  0  0  0  0  0  0  0
   -7.2886   -6.2930    0.0000 C   0  0  0  0  0  0  0  0  0  0  0  0
   -6.5406   -4.9928    0.0000 H   0  0  0  0  0  0  0  0  0  0  0  0
   -8.7886   -6.2953    0.0000 C   0  0  0  0  0  0  0  0  0  0  0  0
   -9.4958   -7.5602    0.0000 C   0  0  0  0  0  0  0  0  0  0  0  0
   -8.7105   -8.8382    0.0000 H   0  0  0  0  0  0  0  0  0  0  0  0
  -10.9746   -7.6208    0.0000 C   0  0  0  0  0  0  0  0  0  0  0  0
  -11.7049   -8.9310    0.0000 H   0  0  0  0  0  0  0  0  0  0  0  0
  -11.7097   -6.3152    0.0000 C   0  0  0  0  0  0  0  0  0  0  0  0
  -11.0025   -5.0503    0.0000 C   0  0  0  0  0  0  0  0  0  0  0  0
  -11.7878   -3.7723    0.0000 H   0  0  0  0  0  0  0  0  0  0  0  0
   -9.5237   -4.9897    0.0000 C   0  0  0  0  0  0  0  0  0  0  0  0
   -8.7934   -3.6795    0.0000 H   0  0  0  0  0  0  0  0  0  0  0  0
  -13.2097   -6.3175    0.0000 C   0  0  0  0  0  0  0  0  0  0  0  0
  -13.9638   -5.0199    0.0000 C   0  0  0  0  0  0  0  0  0  0  0  0
  -15.4638   -5.0247    0.0000 C   0  0  0  0  0  0  0  0  0  0  0  0
  -16.2181   -3.7281    0.0000 H   0  0  0  0  0  0  0  0  0  0  0  0
  -16.2096   -6.3271    0.0000 C   0  0  0  0  0  0  0  0  0  0  0  0
  -17.7096   -6.3343    0.0000 H   0  0  0  0  0  0  0  0  0  0  0  0
  -15.4555   -7.6147    0.0000 C   0  0  0  0  0  0  0  0  0  0  0  0
  -16.1994   -8.9172    0.0000 H   0  0  0  0  0  0  0  0  0  0  0  0
  -13.9555   -7.6099    0.0000 C   0  0  0  0  0  0  0  0  0  0  0  0
  -13.2034   -8.9076    0.0000 H   0  0  0  0  0  0  0  0  0  0  0  0
  -13.2177   -3.7186    0.0000 S   0  0  0  0  0  0  0  0  0  0  0  0
  -12.0716   -2.7509    0.0000 O   0  0  0  0  0  0  0  0  0  0  0  0
  -12.0657   -4.6793    0.0000 O   0  0  0  0  0  0  0  0  0  0  0  0
  -13.9717   -2.4218    0.0000 N   0  0  0  0  0  0  0  0  0  0  0  0
  -13.3729   -1.0442    0.0000 C   0  0  0  0  0  0  0  0  0  0  0  0
  -12.4966    0.1732    0.0000 H   0  0  0  0  0  0  0  0  0  0  0  0
  -12.0689   -1.7856    0.0000 H   0  0  0  0  0  0  0  0  0  0  0  0
  -14.4843   -0.0478    0.0000 C   0  0  0  0  0  0  0  0  0  0  0  0
  -15.3693    1.1633    0.0000 H   0  0  0  0  0  0  0  0  0  0  0  0
  -13.3721    0.9586    0.0000 H   0  0  0  0  0  0  0  0  0  0  0  0
  -15.7811   -0.8018    0.0000 C   0  0  0  0  0  0  0  0  0  0  0  0
  -17.2060   -1.2705    0.0000 H   0  0  0  0  0  0  0  0  0  0  0  0
  -16.3958    0.5665    0.0000 H   0  0  0  0  0  0  0  0  0  0  0  0
  -15.4650   -2.2606    0.0000 C   0  0  0  0  0  0  0  0  0  0  0  0
  -15.4659   -3.7606    0.0000 H   0  0  0  0  0  0  0  0  0  0  0  0
  -16.9566   -2.4199    0.0000 H   0  0  0  0  0  0  0  0  0  0  0  0
  1  2  1  0  0  0  0 
  1  3  1  0  0  0  0 
  1  4  1  0  0  0  0 
  1  5  1  0  0  0  0 
  5  6  1  0  0  0  0 
  5  7  1  0  0  0  0 
  7  8  1  0  0  0  0 
  7  9  1  0  0  0  0 
  7 10  1  0  0  0  0 
  5 11  1  0  0  0  0 
 11 12  1  0  0  0  0 
 11 13  1  0  0  0  0 
 11 14  1  0  0  0  0 
 14 15  1  4  0  0  0 
 14 16  2  0  0  0  0 
 16 17  1  0  0  0  0 
 16 18  1  0  0  0  0 
 18 19  2  0  0  0  0 
 19 20  1  0  0  0  0 
 19 21  1  0  0  0  0 
 21 22  1  0  0  0  0 
 21 23  2  0  0  0  0 
 23 24  1  0  0  0  0 
 24 25  1  0  0  0  0 
 24 26  2  0  0  0  0 
 18 26  1  0  0  0  0 
 26 27  1  0  0  0  0 
 23 28  1  0  0  0  0 
 28 29  2  0  0  0  0 
 29 30  1  0  0  0  0 
 30 31  1  0  0  0  0 
 30 32  2  0  0  0  0 
 32 33  1  0  0  0  0 
 32 34  1  0  0  0  0 
 34 35  1  0  0  0  0 
 34 36  2  0  0  0  0 
 28 36  1  0  0  0  0 
 36 37  1  0  0  0  0 
 29 38  1  0  0  0  0 
 38 39  2  0  0  0  0 
 38 40  2  0  0  0  0 
 38 41  1  0  0  0  0 
 41 42  1  0  0  0  0 
 42 43  1  0  0  0  0 
 42 44  1  0  0  0  0 
 42 45  1  0  0  0  0 
 45 46  1  0  0  0  0 
 45 47  1  0  0  0  0 
 45 48  1  0  0  0  0 
 48 49  1  0  0  0  0 
 48 50  1  0  0  0  0 
 48 51  1  0  0  0  0 
 41 51  1  0  0  0  0 
 51 52  1  0  0  0  0 
 51 53  1  0  0  0  0 
M  CHG  1  14   1
M  END
> <Rank>
27

> <Priority_score>
0.052000000000000005

> <Reaction_type>
dehydration of N-C bond

> <Parent_ID>
8

> <Parent_InChI>
InChI=1S/C21H28N2O2S/c1-17(2)15-22-16-18-9-11-19(12-10-18)20-7-3-4-8-21(20)26(24,25)23-13-5-6-14-23/h3-4,7-12,17,22H,5-6,13-16H2,1-2H3

> <Parent_SMILES>
CC(C)CNCc1ccc(-c2ccccc2S(=O)(=O)N2CCCC2)cc1

$$$$
Molecule 8_metabolite 29
  CDK     0516241031

 52 54  0  0  0  0  0  0  0  0999 V2000
    5.4058  -11.2223    0.0000 C   0  0  0  0  0  0  0  0  0  0  0  0
    6.9058  -11.2201    0.0000 H   0  0  0  0  0  0  0  0  0  0  0  0
    4.6577  -12.5225    0.0000 H   0  0  0  0  0  0  0  0  0  0  0  0
    4.6538   -9.9244    0.0000 C   0  0  0  0  0  0  0  0  0  0  0  0
    5.4018   -8.6242    0.0000 C   0  0  0  0  0  0  0  0  0  0  0  0
    6.9018   -8.6220    0.0000 H   0  0  0  0  0  0  0  0  0  0  0  0
    3.9915   -8.1134    0.0000 H   0  0  0  0  0  0  0  0  0  0  0  0
    5.6601   -7.1466    0.0000 H   0  0  0  0  0  0  0  0  0  0  0  0
    3.1538   -9.9267    0.0000 C   0  0  0  0  0  0  0  0  0  0  0  0
    1.7451  -10.4419    0.0000 H   0  0  0  0  0  0  0  0  0  0  0  0
    3.4165  -11.4035    0.0000 H   0  0  0  0  0  0  0  0  0  0  0  0
    2.1612   -8.2135    0.0000 N   0  0  0  0  0  0  0  0  0  0  0  0
    2.9092   -6.9133    0.0000 H   0  0  0  0  0  0  0  0  0  0  0  0
    0.6612   -8.2157    0.0000 C   0  0  0  0  0  0  0  0  0  0  0  0
   -0.7475   -8.7309    0.0000 H   0  0  0  0  0  0  0  0  0  0  0  0
    0.9239   -9.6925    0.0000 H   0  0  0  0  0  0  0  0  0  0  0  0
   -0.0907   -6.9178    0.0000 C   0  0  0  0  0  0  0  0  0  0  0  0
    0.6474   -5.6707    0.0000 C   0  0  0  0  0  0  0  0  0  0  0  0
    2.1469   -5.7073    0.0000 H   0  0  0  0  0  0  0  0  0  0  0  0
   -0.0435   -4.3618    0.0000 C   0  0  0  0  0  0  0  0  0  0  0  0
    0.7221   -3.0719    0.0000 H   0  0  0  0  0  0  0  0  0  0  0  0
   -1.5417   -4.3826    0.0000 C   0  0  0  0  0  0  0  0  0  0  0  0
   -2.2798   -5.6297    0.0000 C   0  0  0  0  0  0  0  0  0  0  0  0
   -3.7794   -5.5931    0.0000 H   0  0  0  0  0  0  0  0  0  0  0  0
   -1.5889   -6.9386    0.0000 C   0  0  0  0  0  0  0  0  0  0  0  0
   -2.3545   -8.2285    0.0000 H   0  0  0  0  0  0  0  0  0  0  0  0
   -2.2937   -3.0847    0.0000 C   0  0  0  0  0  0  0  0  0  0  0  0
   -3.7945   -3.0849    0.0000 C   0  0  0  0  0  0  0  0  0  0  0  0
   -4.5443   -1.7857    0.0000 C   0  0  0  0  0  0  0  0  0  0  0  0
   -6.0443   -1.7853    0.0000 H   0  0  0  0  0  0  0  0  0  0  0  0
   -3.7932   -0.4863    0.0000 C   0  0  0  0  0  0  0  0  0  0  0  0
   -4.5409    0.8141    0.0000 H   0  0  0  0  0  0  0  0  0  0  0  0
   -2.3011   -0.4911    0.0000 C   0  0  0  0  0  0  0  0  0  0  0  0
   -1.5489    0.8067    0.0000 H   0  0  0  0  0  0  0  0  0  0  0  0
   -1.5513   -1.7903    0.0000 C   0  0  0  0  0  0  0  0  0  0  0  0
   -0.0513   -1.7882    0.0000 H   0  0  0  0  0  0  0  0  0  0  0  0
   -4.5445   -4.3839    0.0000 S   0  0  0  0  0  0  0  0  0  0  0  0
   -4.8050   -5.8612    0.0000 O   0  0  0  0  0  0  0  0  0  0  0  0
   -3.1349   -4.8970    0.0000 O   0  0  0  0  0  0  0  0  0  0  0  0
   -6.0445   -4.3839    0.0000 N   0  0  0  0  0  0  0  0  0  0  0  0
   -6.9345   -5.5939    0.0000 C   0  0  0  0  0  0  0  0  0  0  0  0
   -7.5465   -6.9634    0.0000 H   0  0  0  0  0  0  0  0  0  0  0  0
   -5.6382   -6.3486    0.0000 H   0  0  0  0  0  0  0  0  0  0  0  0
   -8.3545   -5.1339    0.0000 C   0  0  0  0  0  0  0  0  0  0  0  0
   -9.8463   -4.9776    0.0000 H   0  0  0  0  0  0  0  0  0  0  0  0
   -8.6655   -6.6013    0.0000 H   0  0  0  0  0  0  0  0  0  0  0  0
   -8.3545   -3.6339    0.0000 C   0  0  0  0  0  0  0  0  0  0  0  0
   -8.6655   -2.1665    0.0000 H   0  0  0  0  0  0  0  0  0  0  0  0
   -9.8463   -3.7903    0.0000 H   0  0  0  0  0  0  0  0  0  0  0  0
   -6.9345   -3.1739    0.0000 C   0  0  0  0  0  0  0  0  0  0  0  0
   -5.6382   -2.4193    0.0000 H   0  0  0  0  0  0  0  0  0  0  0  0
   -7.5465   -1.8045    0.0000 H   0  0  0  0  0  0  0  0  0  0  0  0
  1  2  1  0  0  0  0 
  1  3  1  0  0  0  0 
  1  4  2  0  0  0  0 
  4  5  1  0  0  0  0 
  5  6  1  0  0  0  0 
  5  7  1  0  0  0  0 
  5  8  1  0  0  0  0 
  4  9  1  0  0  0  0 
  9 10  1  0  0  0  0 
  9 11  1  0  0  0  0 
  9 12  1  0  0  0  0 
 12 13  1  0  0  0  0 
 12 14  1  0  0  0  0 
 14 15  1  0  0  0  0 
 14 16  1  0  0  0  0 
 14 17  1  0  0  0  0 
 17 18  2  0  0  0  0 
 18 19  1  0  0  0  0 
 18 20  1  0  0  0  0 
 20 21  1  0  0  0  0 
 20 22  2  0  0  0  0 
 22 23  1  0  0  0  0 
 23 24  1  0  0  0  0 
 23 25  2  0  0  0  0 
 17 25  1  0  0  0  0 
 25 26  1  0  0  0  0 
 22 27  1  0  0  0  0 
 27 28  2  0  0  0  0 
 28 29  1  0  0  0  0 
 29 30  1  0  0  0  0 
 29 31  2  0  0  0  0 
 31 32  1  0  0  0  0 
 31 33  1  0  0  0  0 
 33 34  1  0  0  0  0 
 33 35  2  0  0  0  0 
 27 35  1  0  0  0  0 
 35 36  1  0  0  0  0 
 28 37  1  0  0  0  0 
 37 38  2  0  0  0  0 
 37 39  2  0  0  0  0 
 37 40  1  0  0  0  0 
 40 41  1  0  0  0  0 
 41 42  1  0  0  0  0 
 41 43  1  0  0  0  0 
 41 44  1  0  0  0  0 
 44 45  1  0  0  0  0 
 44 46  1  0  0  0  0 
 44 47  1  0  0  0  0 
 47 48  1  0  0  0  0 
 47 49  1  0  0  0  0 
 47 50  1  0  0  0  0 
 40 50  1  0  0  0  0 
 50 51  1  0  0  0  0 
 50 52  1  0  0  0  0 
M  END
> <Rank>
29

> <Priority_score>
0.044000000000000004

> <Reaction_type>
alkyl dehydrogenation

> <Parent_ID>
8

> <Parent_InChI>
InChI=1S/C21H28N2O2S/c1-17(2)15-22-16-18-9-11-19(12-10-18)20-7-3-4-8-21(20)26(24,25)23-13-5-6-14-23/h3-4,7-12,17,22H,5-6,13-16H2,1-2H3

> <Parent_SMILES>
CC(C)CNCc1ccc(-c2ccccc2S(=O)(=O)N2CCCC2)cc1

$$$$
Molecule 8_metabolite 30
  CDK     0516241031

 55 57  0  0  0  0  0  0  0  0999 V2000
   -1.7239   -7.3204    0.0000 C   0  0  0  0  0  0  0  0  0  0  0  0
   -0.4250   -8.0707    0.0000 H   0  0  0  0  0  0  0  0  0  0  0  0
   -3.2011   -7.0597    0.0000 H   0  0  0  0  0  0  0  0  0  0  0  0
   -2.2372   -8.7299    0.0000 H   0  0  0  0  0  0  0  0  0  0  0  0
   -1.7237   -5.8204    0.0000 C   0  0  0  0  0  0  0  0  0  0  0  0
   -0.2465   -6.0812    0.0000 H   0  0  0  0  0  0  0  0  0  0  0  0
   -1.0462   -3.9600    0.0000 C   0  0  0  0  0  0  0  0  0  0  0  0
   -2.0102   -2.8107    0.0000 H   0  0  0  0  0  0  0  0  0  0  0  0
   -0.0818   -2.8111    0.0000 H   0  0  0  0  0  0  0  0  0  0  0  0
    0.2527   -4.7102    0.0000 H   0  0  0  0  0  0  0  0  0  0  0  0
   -3.0226   -5.0702    0.0000 C   0  0  0  0  0  0  0  0  0  0  0  0
   -3.9866   -3.9210    0.0000 H   0  0  0  0  0  0  0  0  0  0  0  0
   -2.0582   -3.9213    0.0000 H   0  0  0  0  0  0  0  0  0  0  0  0
   -4.7375   -6.0600    0.0000 N   0  0  0  0  0  0  0  0  0  0  0  0
   -4.7377   -7.5600    0.0000 H   0  0  0  0  0  0  0  0  0  0  0  0
   -6.0364   -5.3098    0.0000 C   0  0  0  0  0  0  0  0  0  0  0  0
   -7.0004   -4.1605    0.0000 H   0  0  0  0  0  0  0  0  0  0  0  0
   -5.0720   -4.1608    0.0000 H   0  0  0  0  0  0  0  0  0  0  0  0
   -7.3356   -6.0595    0.0000 C   0  0  0  0  0  0  0  0  0  0  0  0
   -7.3179   -7.5086    0.0000 C   0  0  0  0  0  0  0  0  0  0  0  0
   -6.0000   -8.2249    0.0000 H   0  0  0  0  0  0  0  0  0  0  0  0
   -8.5696   -8.2984    0.0000 C   0  0  0  0  0  0  0  0  0  0  0  0
   -8.5495   -9.7983    0.0000 H   0  0  0  0  0  0  0  0  0  0  0  0
   -9.8578   -7.5331    0.0000 C   0  0  0  0  0  0  0  0  0  0  0  0
   -9.8754   -6.0840    0.0000 C   0  0  0  0  0  0  0  0  0  0  0  0
  -11.1933   -5.3677    0.0000 H   0  0  0  0  0  0  0  0  0  0  0  0
   -8.6237   -5.2942    0.0000 C   0  0  0  0  0  0  0  0  0  0  0  0
   -8.6438   -3.7944    0.0000 H   0  0  0  0  0  0  0  0  0  0  0  0
  -11.1569   -8.2829    0.0000 C   0  0  0  0  0  0  0  0  0  0  0  0
  -12.4567   -7.5325    0.0000 C   0  0  0  0  0  0  0  0  0  0  0  0
  -13.7569   -8.2821    0.0000 C   0  0  0  0  0  0  0  0  0  0  0  0
  -15.0556   -7.5314    0.0000 H   0  0  0  0  0  0  0  0  0  0  0  0
  -13.7574   -9.7821    0.0000 C   0  0  0  0  0  0  0  0  0  0  0  0
  -15.0566  -10.5318    0.0000 H   0  0  0  0  0  0  0  0  0  0  0  0
  -12.4576  -10.5325    0.0000 C   0  0  0  0  0  0  0  0  0  0  0  0
  -12.4581  -12.0325    0.0000 H   0  0  0  0  0  0  0  0  0  0  0  0
  -11.1574   -9.7829    0.0000 C   0  0  0  0  0  0  0  0  0  0  0  0
   -9.8587  -10.5335    0.0000 O   0  0  0  0  0  0  0  0  0  0  0  0
   -9.8594  -12.0335    0.0000 H   0  0  0  0  0  0  0  0  0  0  0  0
  -12.4562   -6.0325    0.0000 S   0  0  0  0  0  0  0  0  0  0  0  0
  -11.9427   -4.6231    0.0000 O   0  0  0  0  0  0  0  0  0  0  0  0
  -10.9791   -6.2934    0.0000 O   0  0  0  0  0  0  0  0  0  0  0  0
  -13.7550   -5.2821    0.0000 N   0  0  0  0  0  0  0  0  0  0  0  0
  -13.9203   -3.7891    0.0000 C   0  0  0  0  0  0  0  0  0  0  0  0
  -13.7650   -2.2972    0.0000 H   0  0  0  0  0  0  0  0  0  0  0  0
  -12.4203   -3.7842    0.0000 H   0  0  0  0  0  0  0  0  0  0  0  0
  -15.3799   -3.4770    0.0000 C   0  0  0  0  0  0  0  0  0  0  0  0
  -16.7499   -2.8661    0.0000 H   0  0  0  0  0  0  0  0  0  0  0  0
  -14.9151   -2.0509    0.0000 H   0  0  0  0  0  0  0  0  0  0  0  0
  -16.1303   -4.7758    0.0000 C   0  0  0  0  0  0  0  0  0  0  0  0
  -17.1337   -5.8908    0.0000 H   0  0  0  0  0  0  0  0  0  0  0  0
  -17.3438   -3.8941    0.0000 H   0  0  0  0  0  0  0  0  0  0  0  0
  -15.1309   -5.8845    0.0000 C   0  0  0  0  0  0  0  0  0  0  0  0
  -14.3861   -7.1865    0.0000 H   0  0  0  0  0  0  0  0  0  0  0  0
  -16.3460   -6.7641    0.0000 H   0  0  0  0  0  0  0  0  0  0  0  0
  1  2  1  0  0  0  0 
  1  3  1  0  0  0  0 
  1  4  1  0  0  0  0 
  1  5  1  0  0  0  0 
  5  6  1  0  0  0  0 
  5  7  1  0  0  0  0 
  7  8  1  0  0  0  0 
  7  9  1  0  0  0  0 
  7 10  1  0  0  0  0 
  5 11  1  0  0  0  0 
 11 12  1  0  0  0  0 
 11 13  1  0  0  0  0 
 11 14  1  0  0  0  0 
 14 15  1  0  0  0  0 
 14 16  1  0  0  0  0 
 16 17  1  0  0  0  0 
 16 18  1  0  0  0  0 
 16 19  1  0  0  0  0 
 19 20  2  0  0  0  0 
 20 21  1  0  0  0  0 
 20 22  1  0  0  0  0 
 22 23  1  0  0  0  0 
 22 24  2  0  0  0  0 
 24 25  1  0  0  0  0 
 25 26  1  0  0  0  0 
 25 27  2  0  0  0  0 
 19 27  1  0  0  0  0 
 27 28  1  0  0  0  0 
 24 29  1  0  0  0  0 
 29 30  2  0  0  0  0 
 30 31  1  0  0  0  0 
 31 32  1  0  0  0  0 
 31 33  2  0  0  0  0 
 33 34  1  0  0  0  0 
 33 35  1  0  0  0  0 
 35 36  1  0  0  0  0 
 35 37  2  0  0  0  0 
 29 37  1  0  0  0  0 
 37 38  1  0  0  0  0 
 38 39  1  0  0  0  0 
 30 40  1  0  0  0  0 
 40 41  2  0  0  0  0 
 40 42  2  0  0  0  0 
 40 43  1  0  0  0  0 
 43 44  1  0  0  0  0 
 44 45  1  0  0  0  0 
 44 46  1  0  0  0  0 
 44 47  1  0  0  0  0 
 47 48  1  0  0  0  0 
 47 49  1  0  0  0  0 
 47 50  1  0  0  0  0 
 50 51  1  0  0  0  0 
 50 52  1  0  0  0  0 
 50 53  1  0  0  0  0 
 43 53  1  0  0  0  0 
 53 54  1  0  0  0  0 
 53 55  1  0  0  0  0 
M  END
> <Rank>
30

> <Priority_score>
0.032

> <Reaction_type>
aromatic hydroxylation

> <Parent_ID>
8

> <Parent_InChI>
InChI=1S/C21H28N2O2S/c1-17(2)15-22-16-18-9-11-19(12-10-18)20-7-3-4-8-21(20)26(24,25)23-13-5-6-14-23/h3-4,7-12,17,22H,5-6,13-16H2,1-2H3

> <Parent_SMILES>
CC(C)CNCc1ccc(-c2ccccc2S(=O)(=O)N2CCCC2)cc1

$$$$
Molecule 8_metabolite 31
  CDK     0516241031

 52 54  0  0  0  0  0  0  0  0999 V2000
   -1.8364   -7.3937    0.0000 C   0  0  0  0  0  0  0  0  0  0  0  0
   -0.5363   -8.1417    0.0000 H   0  0  0  0  0  0  0  0  0  0  0  0
   -3.3140   -7.1355    0.0000 H   0  0  0  0  0  0  0  0  0  0  0  0
   -2.3473   -8.8040    0.0000 H   0  0  0  0  0  0  0  0  0  0  0  0
   -1.8387   -5.8937    0.0000 C   0  0  0  0  0  0  0  0  0  0  0  0
   -0.3611   -6.1519    0.0000 H   0  0  0  0  0  0  0  0  0  0  0  0
   -1.1643   -4.0321    0.0000 C   0  0  0  0  0  0  0  0  0  0  0  0
   -2.1303   -2.8845    0.0000 H   0  0  0  0  0  0  0  0  0  0  0  0
   -0.2019   -2.8816    0.0000 H   0  0  0  0  0  0  0  0  0  0  0  0
    0.1358   -4.7801    0.0000 H   0  0  0  0  0  0  0  0  0  0  0  0
   -3.1389   -5.1457    0.0000 C   0  0  0  0  0  0  0  0  0  0  0  0
   -4.1048   -3.9981    0.0000 H   0  0  0  0  0  0  0  0  0  0  0  0
   -2.1764   -3.9952    0.0000 H   0  0  0  0  0  0  0  0  0  0  0  0
   -4.8521   -6.1383    0.0000 N   0  0  0  0  0  0  0  0  0  0  0  0
   -4.8498   -7.6383    0.0000 H   0  0  0  0  0  0  0  0  0  0  0  0
   -6.1523   -5.3902    0.0000 C   0  0  0  0  0  0  0  0  0  0  0  0
   -7.1182   -4.2426    0.0000 H   0  0  0  0  0  0  0  0  0  0  0  0
   -5.1898   -4.2397    0.0000 H   0  0  0  0  0  0  0  0  0  0  0  0
   -7.4502   -6.1422    0.0000 C   0  0  0  0  0  0  0  0  0  0  0  0
   -7.4301   -7.5912    0.0000 C   0  0  0  0  0  0  0  0  0  0  0  0
   -6.1110   -8.3054    0.0000 H   0  0  0  0  0  0  0  0  0  0  0  0
   -8.6805   -8.3831    0.0000 C   0  0  0  0  0  0  0  0  0  0  0  0
   -8.6579   -9.8830    0.0000 H   0  0  0  0  0  0  0  0  0  0  0  0
   -9.9699   -7.6200    0.0000 C   0  0  0  0  0  0  0  0  0  0  0  0
   -9.9900   -6.1709    0.0000 C   0  0  0  0  0  0  0  0  0  0  0  0
  -11.3091   -5.4568    0.0000 H   0  0  0  0  0  0  0  0  0  0  0  0
   -8.7396   -5.3791    0.0000 C   0  0  0  0  0  0  0  0  0  0  0  0
   -8.7622   -3.8792    0.0000 H   0  0  0  0  0  0  0  0  0  0  0  0
  -11.2678   -8.3719    0.0000 C   0  0  0  0  0  0  0  0  0  0  0  0
  -12.5697   -7.6253    0.0000 C   0  0  0  0  0  0  0  0  0  0  0  0
  -13.8664   -8.3794    0.0000 C   0  0  0  0  0  0  0  0  0  0  0  0
  -15.1679   -7.6338    0.0000 H   0  0  0  0  0  0  0  0  0  0  0  0
  -13.8611   -9.8802    0.0000 C   0  0  0  0  0  0  0  0  0  0  0  0
  -15.1565  -10.6365    0.0000 H   0  0  0  0  0  0  0  0  0  0  0  0
  -12.5642  -10.6183    0.0000 C   0  0  0  0  0  0  0  0  0  0  0  0
  -12.5572  -12.1182    0.0000 H   0  0  0  0  0  0  0  0  0  0  0  0
  -11.2676   -9.8641    0.0000 C   0  0  0  0  0  0  0  0  0  0  0  0
   -9.9673  -10.6120    0.0000 H   0  0  0  0  0  0  0  0  0  0  0  0
  -12.5743   -6.1253    0.0000 S   0  0  0  0  0  0  0  0  0  0  0  0
  -12.0655   -4.7142    0.0000 O   0  0  0  0  0  0  0  0  0  0  0  0
  -11.0963   -6.3813    0.0000 O   0  0  0  0  0  0  0  0  0  0  0  0
  -13.8756   -5.3792    0.0000 N   0  0  0  0  0  0  0  0  0  0  0  0
  -14.0458   -3.8868    0.0000 C   0  0  0  0  0  0  0  0  0  0  0  0
  -13.8956   -2.3944    0.0000 H   0  0  0  0  0  0  0  0  0  0  0  0
  -12.5459   -3.8769    0.0000 H   0  0  0  0  0  0  0  0  0  0  0  0
  -15.5065   -3.5796    0.0000 C   0  0  0  0  0  0  0  0  0  0  0  0
  -16.1202   -2.2109    0.0000 H   0  0  0  0  0  0  0  0  0  0  0  0
  -16.2526   -4.8809    0.0000 C   0  0  0  0  0  0  0  0  0  0  0  0
  -17.7438   -5.0429    0.0000 H   0  0  0  0  0  0  0  0  0  0  0  0
  -15.2495   -5.9863    0.0000 C   0  0  0  0  0  0  0  0  0  0  0  0
  -14.5003   -7.2857    0.0000 H   0  0  0  0  0  0  0  0  0  0  0  0
  -16.4616   -6.8700    0.0000 H   0  0  0  0  0  0  0  0  0  0  0  0
  1  2  1  0  0  0  0 
  1  3  1  0  0  0  0 
  1  4  1  0  0  0  0 
  1  5  1  0  0  0  0 
  5  6  1  0  0  0  0 
  5  7  1  0  0  0  0 
  7  8  1  0  0  0  0 
  7  9  1  0  0  0  0 
  7 10  1  0  0  0  0 
  5 11  1  0  0  0  0 
 11 12  1  0  0  0  0 
 11 13  1  0  0  0  0 
 11 14  1  0  0  0  0 
 14 15  1  0  0  0  0 
 14 16  1  0  0  0  0 
 16 17  1  0  0  0  0 
 16 18  1  0  0  0  0 
 16 19  1  0  0  0  0 
 19 20  2  0  0  0  0 
 20 21  1  0  0  0  0 
 20 22  1  0  0  0  0 
 22 23  1  0  0  0  0 
 22 24  2  0  0  0  0 
 24 25  1  0  0  0  0 
 25 26  1  0  0  0  0 
 25 27  2  0  0  0  0 
 19 27  1  0  0  0  0 
 27 28  1  0  0  0  0 
 24 29  1  0  0  0  0 
 29 30  2  0  0  0  0 
 30 31  1  0  0  0  0 
 31 32  1  0  0  0  0 
 31 33  2  0  0  0  0 
 33 34  1  0  0  0  0 
 33 35  1  0  0  0  0 
 35 36  1  0  0  0  0 
 35 37  2  0  0  0  0 
 29 37  1  0  0  0  0 
 37 38  1  0  0  0  0 
 30 39  1  0  0  0  0 
 39 40  2  0  0  0  0 
 39 41  2  0  0  0  0 
 39 42  1  0  0  0  0 
 42 43  1  0  0  0  0 
 43 44  1  0  0  0  0 
 43 45  1  0  0  0  0 
 43 46  1  0  0  0  0 
 46 47  1  0  0  0  0 
 46 48  2  0  0  0  0 
 48 49  1  0  0  0  0 
 48 50  1  0  0  0  0 
 42 50  1  0  0  0  0 
 50 51  1  0  0  0  0 
 50 52  1  0  0  0  0 
M  END
> <Rank>
31

> <Priority_score>
0.031200000000000002

> <Reaction_type>
alkyl dehydrogenation

> <Parent_ID>
8

> <Parent_InChI>
InChI=1S/C21H28N2O2S/c1-17(2)15-22-16-18-9-11-19(12-10-18)20-7-3-4-8-21(20)26(24,25)23-13-5-6-14-23/h3-4,7-12,17,22H,5-6,13-16H2,1-2H3

> <Parent_SMILES>
CC(C)CNCc1ccc(-c2ccccc2S(=O)(=O)N2CCCC2)cc1

$$$$
Molecule 8_metabolite 32
  CDK     0516241031

 55 57  0  0  0  0  0  0  0  0999 V2000
   -1.7700   -7.3383    0.0000 C   0  0  0  0  0  0  0  0  0  0  0  0
   -0.4698   -8.0864    0.0000 H   0  0  0  0  0  0  0  0  0  0  0  0
   -3.2476   -7.0801    0.0000 H   0  0  0  0  0  0  0  0  0  0  0  0
   -2.2809   -8.7486    0.0000 H   0  0  0  0  0  0  0  0  0  0  0  0
   -1.7722   -5.8383    0.0000 C   0  0  0  0  0  0  0  0  0  0  0  0
   -0.2946   -6.0966    0.0000 H   0  0  0  0  0  0  0  0  0  0  0  0
   -1.0979   -3.9767    0.0000 C   0  0  0  0  0  0  0  0  0  0  0  0
   -2.0638   -2.8291    0.0000 H   0  0  0  0  0  0  0  0  0  0  0  0
   -0.1354   -2.8262    0.0000 H   0  0  0  0  0  0  0  0  0  0  0  0
    0.2023   -4.7248    0.0000 H   0  0  0  0  0  0  0  0  0  0  0  0
   -3.0724   -5.0903    0.0000 C   0  0  0  0  0  0  0  0  0  0  0  0
   -4.0383   -3.9427    0.0000 H   0  0  0  0  0  0  0  0  0  0  0  0
   -2.1100   -3.9398    0.0000 H   0  0  0  0  0  0  0  0  0  0  0  0
   -4.7856   -6.0829    0.0000 N   0  0  0  0  0  0  0  0  0  0  0  0
   -4.7834   -7.5829    0.0000 H   0  0  0  0  0  0  0  0  0  0  0  0
   -6.0858   -5.3349    0.0000 C   0  0  0  0  0  0  0  0  0  0  0  0
   -7.0517   -4.1873    0.0000 H   0  0  0  0  0  0  0  0  0  0  0  0
   -5.1234   -4.1843    0.0000 H   0  0  0  0  0  0  0  0  0  0  0  0
   -7.3837   -6.0868    0.0000 C   0  0  0  0  0  0  0  0  0  0  0  0
   -8.6844   -5.3380    0.0000 C   0  0  0  0  0  0  0  0  0  0  0  0
   -8.6864   -3.8380    0.0000 H   0  0  0  0  0  0  0  0  0  0  0  0
   -9.9823   -6.0899    0.0000 C   0  0  0  0  0  0  0  0  0  0  0  0
  -11.2826   -5.3421    0.0000 H   0  0  0  0  0  0  0  0  0  0  0  0
   -9.9795   -7.5908    0.0000 C   0  0  0  0  0  0  0  0  0  0  0  0
   -8.6789   -8.3396    0.0000 C   0  0  0  0  0  0  0  0  0  0  0  0
   -8.6768   -9.8396    0.0000 H   0  0  0  0  0  0  0  0  0  0  0  0
   -7.3810   -7.5877    0.0000 C   0  0  0  0  0  0  0  0  0  0  0  0
   -6.0807   -8.3355    0.0000 O   0  0  0  0  0  0  0  0  0  0  0  0
   -6.0782   -9.8355    0.0000 H   0  0  0  0  0  0  0  0  0  0  0  0
  -11.2774   -8.3427    0.0000 C   0  0  0  0  0  0  0  0  0  0  0  0
  -12.5793   -7.5960    0.0000 C   0  0  0  0  0  0  0  0  0  0  0  0
  -13.8760   -8.3502    0.0000 C   0  0  0  0  0  0  0  0  0  0  0  0
  -15.1775   -7.6045    0.0000 H   0  0  0  0  0  0  0  0  0  0  0  0
  -13.8707   -9.8510    0.0000 C   0  0  0  0  0  0  0  0  0  0  0  0
  -15.1661  -10.6073    0.0000 H   0  0  0  0  0  0  0  0  0  0  0  0
  -12.5738  -10.5890    0.0000 C   0  0  0  0  0  0  0  0  0  0  0  0
  -12.5668  -12.0890    0.0000 H   0  0  0  0  0  0  0  0  0  0  0  0
  -11.2772   -9.8349    0.0000 C   0  0  0  0  0  0  0  0  0  0  0  0
   -9.9769  -10.5827    0.0000 H   0  0  0  0  0  0  0  0  0  0  0  0
  -12.5839   -6.0961    0.0000 S   0  0  0  0  0  0  0  0  0  0  0  0
  -12.0751   -4.6850    0.0000 O   0  0  0  0  0  0  0  0  0  0  0  0
  -11.1059   -6.3520    0.0000 O   0  0  0  0  0  0  0  0  0  0  0  0
  -13.8852   -5.3500    0.0000 N   0  0  0  0  0  0  0  0  0  0  0  0
  -14.0555   -3.8576    0.0000 C   0  0  0  0  0  0  0  0  0  0  0  0
  -13.9052   -2.3651    0.0000 H   0  0  0  0  0  0  0  0  0  0  0  0
  -12.5555   -3.8476    0.0000 H   0  0  0  0  0  0  0  0  0  0  0  0
  -15.5161   -3.5504    0.0000 C   0  0  0  0  0  0  0  0  0  0  0  0
  -16.8881   -2.9440    0.0000 H   0  0  0  0  0  0  0  0  0  0  0  0
  -15.0561   -2.1227    0.0000 H   0  0  0  0  0  0  0  0  0  0  0  0
  -16.2622   -4.8517    0.0000 C   0  0  0  0  0  0  0  0  0  0  0  0
  -17.2619   -5.9700    0.0000 H   0  0  0  0  0  0  0  0  0  0  0  0
  -17.4787   -3.9741    0.0000 H   0  0  0  0  0  0  0  0  0  0  0  0
  -15.2591   -5.9570    0.0000 C   0  0  0  0  0  0  0  0  0  0  0  0
  -14.5099   -7.2565    0.0000 H   0  0  0  0  0  0  0  0  0  0  0  0
  -16.4712   -6.8407    0.0000 H   0  0  0  0  0  0  0  0  0  0  0  0
  1  2  1  0  0  0  0 
  1  3  1  0  0  0  0 
  1  4  1  0  0  0  0 
  1  5  1  0  0  0  0 
  5  6  1  0  0  0  0 
  5  7  1  0  0  0  0 
  7  8  1  0  0  0  0 
  7  9  1  0  0  0  0 
  7 10  1  0  0  0  0 
  5 11  1  0  0  0  0 
 11 12  1  0  0  0  0 
 11 13  1  0  0  0  0 
 11 14  1  0  0  0  0 
 14 15  1  0  0  0  0 
 14 16  1  0  0  0  0 
 16 17  1  0  0  0  0 
 16 18  1  0  0  0  0 
 16 19  1  0  0  0  0 
 19 20  2  0  0  0  0 
 20 21  1  0  0  0  0 
 20 22  1  0  0  0  0 
 22 23  1  0  0  0  0 
 22 24  2  0  0  0  0 
 24 25  1  0  0  0  0 
 25 26  1  0  0  0  0 
 25 27  2  0  0  0  0 
 19 27  1  0  0  0  0 
 27 28  1  0  0  0  0 
 28 29  1  0  0  0  0 
 24 30  1  0  0  0  0 
 30 31  2  0  0  0  0 
 31 32  1  0  0  0  0 
 32 33  1  0  0  0  0 
 32 34  2  0  0  0  0 
 34 35  1  0  0  0  0 
 34 36  1  0  0  0  0 
 36 37  1  0  0  0  0 
 36 38  2  0  0  0  0 
 30 38  1  0  0  0  0 
 38 39  1  0  0  0  0 
 31 40  1  0  0  0  0 
 40 41  2  0  0  0  0 
 40 42  2  0  0  0  0 
 40 43  1  0  0  0  0 
 43 44  1  0  0  0  0 
 44 45  1  0  0  0  0 
 44 46  1  0  0  0  0 
 44 47  1  0  0  0  0 
 47 48  1  0  0  0  0 
 47 49  1  0  0  0  0 
 47 50  1  0  0  0  0 
 50 51  1  0  0  0  0 
 50 52  1  0  0  0  0 
 50 53  1  0  0  0  0 
 43 53  1  0  0  0  0 
 53 54  1  0  0  0  0 
 53 55  1  0  0  0  0 
M  END
> <Rank>
32

> <Priority_score>
0.008

> <Reaction_type>
aromatic hydroxylation

> <Parent_ID>
8

> <Parent_InChI>
InChI=1S/C21H28N2O2S/c1-17(2)15-22-16-18-9-11-19(12-10-18)20-7-3-4-8-21(20)26(24,25)23-13-5-6-14-23/h3-4,7-12,17,22H,5-6,13-16H2,1-2H3

> <Parent_SMILES>
CC(C)CNCc1ccc(-c2ccccc2S(=O)(=O)N2CCCC2)cc1

$$$$
Molecule 8_metabolite 33
  CDK     0516241031

 55 57  0  0  0  0  0  0  0  0999 V2000
  -12.6647   -7.5092    0.0000 C   0  0  0  0  0  0  0  0  0  0  0  0
  -12.6624   -9.0092    0.0000 H   0  0  0  0  0  0  0  0  0  0  0  0
  -12.1538   -6.0989    0.0000 H   0  0  0  0  0  0  0  0  0  0  0  0
  -11.1871   -7.7675    0.0000 H   0  0  0  0  0  0  0  0  0  0  0  0
  -13.9649   -6.7612    0.0000 C   0  0  0  0  0  0  0  0  0  0  0  0
  -14.4758   -8.1715    0.0000 H   0  0  0  0  0  0  0  0  0  0  0  0
  -15.9153   -6.4203    0.0000 C   0  0  0  0  0  0  0  0  0  0  0  0
  -16.4305   -5.0116    0.0000 H   0  0  0  0  0  0  0  0  0  0  0  0
  -17.3921   -6.6830    0.0000 H   0  0  0  0  0  0  0  0  0  0  0  0
  -15.9131   -7.9203    0.0000 H   0  0  0  0  0  0  0  0  0  0  0  0
  -13.9672   -5.2612    0.0000 C   0  0  0  0  0  0  0  0  0  0  0  0
  -14.4823   -3.8524    0.0000 H   0  0  0  0  0  0  0  0  0  0  0  0
  -15.4440   -5.5239    0.0000 H   0  0  0  0  0  0  0  0  0  0  0  0
  -12.2539   -4.2686    0.0000 N   0  0  0  0  0  0  0  0  0  0  0  0
  -10.9538   -5.0166    0.0000 H   0  0  0  0  0  0  0  0  0  0  0  0
  -12.2562   -2.7686    0.0000 C   0  0  0  0  0  0  0  0  0  0  0  0
  -12.7714   -1.3598    0.0000 H   0  0  0  0  0  0  0  0  0  0  0  0
  -13.7330   -3.0313    0.0000 H   0  0  0  0  0  0  0  0  0  0  0  0
  -10.9583   -2.0166    0.0000 C   0  0  0  0  0  0  0  0  0  0  0  0
   -9.6576   -2.7655    0.0000 C   0  0  0  0  0  0  0  0  0  0  0  0
   -9.6556   -4.2655    0.0000 H   0  0  0  0  0  0  0  0  0  0  0  0
   -8.3597   -2.0135    0.0000 C   0  0  0  0  0  0  0  0  0  0  0  0
   -7.0594   -2.7614    0.0000 H   0  0  0  0  0  0  0  0  0  0  0  0
   -8.3625   -0.5127    0.0000 C   0  0  0  0  0  0  0  0  0  0  0  0
   -7.0646    0.2393    0.0000 C   0  0  0  0  0  0  0  0  0  0  0  0
   -5.7627   -0.5074    0.0000 C   0  0  0  0  0  0  0  0  0  0  0  0
   -4.4660    0.2467    0.0000 C   0  0  0  0  0  0  0  0  0  0  0  0
   -3.1645   -0.4989    0.0000 H   0  0  0  0  0  0  0  0  0  0  0  0
   -4.4713    1.7475    0.0000 C   0  0  0  0  0  0  0  0  0  0  0  0
   -3.1759    2.5038    0.0000 H   0  0  0  0  0  0  0  0  0  0  0  0
   -5.7682    2.4856    0.0000 C   0  0  0  0  0  0  0  0  0  0  0  0
   -5.7752    3.9856    0.0000 H   0  0  0  0  0  0  0  0  0  0  0  0
   -7.0648    1.7314    0.0000 C   0  0  0  0  0  0  0  0  0  0  0  0
   -8.3651    2.4793    0.0000 H   0  0  0  0  0  0  0  0  0  0  0  0
   -5.7581   -2.0074    0.0000 S   0  0  0  0  0  0  0  0  0  0  0  0
   -6.2669   -3.4185    0.0000 O   0  0  0  0  0  0  0  0  0  0  0  0
   -7.2361   -1.7514    0.0000 O   0  0  0  0  0  0  0  0  0  0  0  0
   -4.4568   -2.7535    0.0000 N   0  0  0  0  0  0  0  0  0  0  0  0
   -4.2866   -4.2459    0.0000 C   0  0  0  0  0  0  0  0  0  0  0  0
   -4.4368   -5.7383    0.0000 H   0  0  0  0  0  0  0  0  0  0  0  0
   -5.7865   -4.2558    0.0000 H   0  0  0  0  0  0  0  0  0  0  0  0
   -2.8259   -4.5531    0.0000 C   0  0  0  0  0  0  0  0  0  0  0  0
   -1.4539   -5.1594    0.0000 H   0  0  0  0  0  0  0  0  0  0  0  0
   -3.2859   -5.9808    0.0000 H   0  0  0  0  0  0  0  0  0  0  0  0
   -2.0798   -3.2518    0.0000 C   0  0  0  0  0  0  0  0  0  0  0  0
   -1.0801   -2.1334    0.0000 H   0  0  0  0  0  0  0  0  0  0  0  0
   -0.8634   -4.1294    0.0000 H   0  0  0  0  0  0  0  0  0  0  0  0
   -3.0829   -2.1464    0.0000 C   0  0  0  0  0  0  0  0  0  0  0  0
   -3.8322   -0.8470    0.0000 H   0  0  0  0  0  0  0  0  0  0  0  0
   -1.8709   -1.2627    0.0000 H   0  0  0  0  0  0  0  0  0  0  0  0
   -9.6631    0.2362    0.0000 C   0  0  0  0  0  0  0  0  0  0  0  0
  -10.9611   -0.5158    0.0000 C   0  0  0  0  0  0  0  0  0  0  0  0
  -12.2613    0.2320    0.0000 H   0  0  0  0  0  0  0  0  0  0  0  0
   -9.6652    1.7362    0.0000 O   0  0  0  0  0  0  0  0  0  0  0  0
  -10.9652    2.4844    0.0000 H   0  0  0  0  0  0  0  0  0  0  0  0
  1  2  1  0  0  0  0 
  1  3  1  0  0  0  0 
  1  4  1  0  0  0  0 
  1  5  1  0  0  0  0 
  5  6  1  0  0  0  0 
  5  7  1  0  0  0  0 
  7  8  1  0  0  0  0 
  7  9  1  0  0  0  0 
  7 10  1  0  0  0  0 
  5 11  1  0  0  0  0 
 11 12  1  0  0  0  0 
 11 13  1  0  0  0  0 
 11 14  1  0  0  0  0 
 14 15  1  0  0  0  0 
 14 16  1  0  0  0  0 
 16 17  1  0  0  0  0 
 16 18  1  0  0  0  0 
 16 19  1  0  0  0  0 
 19 20  2  0  0  0  0 
 20 21  1  0  0  0  0 
 20 22  1  0  0  0  0 
 22 23  1  0  0  0  0 
 22 24  2  0  0  0  0 
 24 25  1  0  0  0  0 
 25 26  2  0  0  0  0 
 26 27  1  0  0  0  0 
 27 28  1  0  0  0  0 
 27 29  2  0  0  0  0 
 29 30  1  0  0  0  0 
 29 31  1  0  0  0  0 
 31 32  1  0  0  0  0 
 31 33  2  0  0  0  0 
 25 33  1  0  0  0  0 
 33 34  1  0  0  0  0 
 26 35  1  0  0  0  0 
 35 36  2  0  0  0  0 
 35 37  2  0  0  0  0 
 35 38  1  0  0  0  0 
 38 39  1  0  0  0  0 
 39 40  1  0  0  0  0 
 39 41  1  0  0  0  0 
 39 42  1  0  0  0  0 
 42 43  1  0  0  0  0 
 42 44  1  0  0  0  0 
 42 45  1  0  0  0  0 
 45 46  1  0  0  0  0 
 45 47  1  0  0  0  0 
 45 48  1  0  0  0  0 
 38 48  1  0  0  0  0 
 48 49  1  0  0  0  0 
 48 50  1  0  0  0  0 
 24 51  1  0  0  0  0 
 51 52  2  0  0  0  0 
 19 52  1  0  0  0  0 
 52 53  1  0  0  0  0 
 51 54  1  0  0  0  0 
 54 55  1  0  0  0  0 
M  END
> <Rank>
32

> <Priority_score>
0.008

> <Reaction_type>
aromatic hydroxylation

> <Parent_ID>
8

> <Parent_InChI>
InChI=1S/C21H28N2O2S/c1-17(2)15-22-16-18-9-11-19(12-10-18)20-7-3-4-8-21(20)26(24,25)23-13-5-6-14-23/h3-4,7-12,17,22H,5-6,13-16H2,1-2H3

> <Parent_SMILES>
CC(C)CNCc1ccc(-c2ccccc2S(=O)(=O)N2CCCC2)cc1

$$$$
Molecule 9
  CDK     0516241031

 19 19  0  0  0  0  0  0  0  0999 V2000
    5.2008    0.0429    0.0000 C   0  0  0  0  0  0  0  0  0  0  0  0
    3.9080   -0.7178    0.0000 C   0  0  0  0  0  0  0  0  0  0  0  0
    3.9203   -2.2177    0.0000 C   0  0  0  0  0  0  0  0  0  0  0  0
    2.6028    0.0215    0.0000 N   0  0  0  0  0  0  0  0  0  0  0  0
    1.3100   -0.7392    0.0000 C   0  0  0  0  0  0  0  0  0  0  0  0
    0.0048    0.0001    0.0000 C   0  0  0  0  0  0  0  0  0  0  0  0
   -1.2880   -0.7606    0.0000 C   0  0  0  0  0  0  0  0  0  0  0  0
   -2.5932   -0.0214    0.0000 O   0  0  0  0  0  0  0  0  0  0  0  0
   -3.8860   -0.7821    0.0000 C   0  0  0  0  0  0  0  0  0  0  0  0
   -5.2360   -0.0321    0.0000 C   0  0  0  0  0  0  0  0  0  0  0  0
   -6.5060   -0.7821    0.0000 C   0  0  0  0  0  0  0  0  0  0  0  0
   -6.5060   -2.2821    0.0000 C   0  0  0  0  0  0  0  0  0  0  0  0
   -5.2360   -3.0321    0.0000 C   0  0  0  0  0  0  0  0  0  0  0  0
   -3.8860   -2.2821    0.0000 C   0  0  0  0  0  0  0  0  0  0  0  0
   -7.8087   -3.0257    0.0000 C   0  0  0  0  0  0  0  0  0  0  0  0
   -9.1041   -2.2693    0.0000 C   0  0  0  0  0  0  0  0  0  0  0  0
   -9.0967   -0.7693    0.0000 O   0  0  0  0  0  0  0  0  0  0  0  0
  -10.4068   -3.0129    0.0000 N   0  0  0  0  0  0  0  0  0  0  0  0
   -0.0076    1.5000    0.0000 O   0  0  0  0  0  0  0  0  0  0  0  0
  1  2  1  0  0  0  0 
  2  3  1  0  0  0  0 
  2  4  1  0  0  0  0 
  4  5  1  0  0  0  0 
  5  6  1  0  0  0  0 
  6  7  1  0  0  0  0 
  7  8  1  0  0  0  0 
  8  9  1  0  0  0  0 
  9 10  2  0  0  0  0 
 10 11  1  0  0  0  0 
 11 12  2  0  0  0  0 
 12 13  1  0  0  0  0 
 13 14  2  0  0  0  0 
  9 14  1  0  0  0  0 
 12 15  1  0  0  0  0 
 15 16  1  0  0  0  0 
 16 17  2  0  0  0  0 
 16 18  1  0  0  0  0 
  6 19  1  0  0  0  0 
M  END
> <SMILES>
CC(C)NCC(O)COc1ccc(CC(N)=O)cc1

$$$$
Molecule 9_metabolite 1
  CDK     0516241031

 61 62  0  0  0  0  0  0  0  0999 V2000
    9.8813    4.0721    0.0000 C   0  0  0  0  0  0  0  0  0  0  0  0
   11.3591    3.8150    0.0000 H   0  0  0  0  0  0  0  0  0  0  0  0
   10.3911    5.4828    0.0000 H   0  0  0  0  0  0  0  0  0  0  0  0
    8.5806    4.8191    0.0000 H   0  0  0  0  0  0  0  0  0  0  0  0
    8.9198    2.9208    0.0000 C   0  0  0  0  0  0  0  0  0  0  0  0
    8.4100    1.5101    0.0000 H   0  0  0  0  0  0  0  0  0  0  0  0
   10.2206    2.1738    0.0000 C   0  0  0  0  0  0  0  0  0  0  0  0
   11.5179    2.9268    0.0000 H   0  0  0  0  0  0  0  0  0  0  0  0
    9.2590    1.0225    0.0000 H   0  0  0  0  0  0  0  0  0  0  0  0
   11.1874    1.0269    0.0000 H   0  0  0  0  0  0  0  0  0  0  0  0
    6.9691    3.2601    0.0000 N   0  0  0  0  0  0  0  0  0  0  0  0
    6.4528    4.6685    0.0000 H   0  0  0  0  0  0  0  0  0  0  0  0
    6.0076    2.1088    0.0000 C   0  0  0  0  0  0  0  0  0  0  0  0
    5.4978    0.6981    0.0000 H   0  0  0  0  0  0  0  0  0  0  0  0
    7.3083    1.3618    0.0000 H   0  0  0  0  0  0  0  0  0  0  0  0
    4.5297    2.3659    0.0000 C   0  0  0  0  0  0  0  0  0  0  0  0
    5.0395    3.7766    0.0000 H   0  0  0  0  0  0  0  0  0  0  0  0
    3.2290    3.1129    0.0000 C   0  0  0  0  0  0  0  0  0  0  0  0
    1.7512    3.3700    0.0000 H   0  0  0  0  0  0  0  0  0  0  0  0
    2.7192    1.7022    0.0000 H   0  0  0  0  0  0  0  0  0  0  0  0
    3.2255    4.6129    0.0000 O   0  0  0  0  0  0  0  0  0  0  0  0
    1.9248    5.3599    0.0000 C   0  0  0  0  0  0  0  0  0  0  0  0
    1.9085    6.9042    0.0000 C   0  0  0  0  0  0  0  0  0  0  0  0
    3.2021    7.6636    0.0000 H   0  0  0  0  0  0  0  0  0  0  0  0
    0.6283    7.6367    0.0000 C   0  0  0  0  0  0  0  0  0  0  0  0
    0.6298    9.1367    0.0000 H   0  0  0  0  0  0  0  0  0  0  0  0
   -0.6752    6.8944    0.0000 C   0  0  0  0  0  0  0  0  0  0  0  0
   -0.6985    5.4197    0.0000 C   0  0  0  0  0  0  0  0  0  0  0  0
   -2.0116    4.6947    0.0000 H   0  0  0  0  0  0  0  0  0  0  0  0
    0.6213    4.6177    0.0000 C   0  0  0  0  0  0  0  0  0  0  0  0
    0.6000    3.1178    0.0000 H   0  0  0  0  0  0  0  0  0  0  0  0
   -1.9660    7.6585    0.0000 C   0  0  0  0  0  0  0  0  0  0  0  0
   -3.4403    7.9350    0.0000 H   0  0  0  0  0  0  0  0  0  0  0  0
   -2.4943    6.2546    0.0000 H   0  0  0  0  0  0  0  0  0  0  0  0
   -1.9497    9.1584    0.0000 C   0  0  0  0  0  0  0  0  0  0  0  0
   -0.6426    9.8942    0.0000 O   0  0  0  0  0  0  0  0  0  0  0  0
   -3.2405    9.9225    0.0000 N   0  0  0  0  0  0  0  0  0  0  0  0
   -3.2242   11.4224    0.0000 H   0  0  0  0  0  0  0  0  0  0  0  0
   -4.5476    9.1866    0.0000 H   0  0  0  0  0  0  0  0  0  0  0  0
    3.2605    0.8462    0.0000 O   0  0  0  0  0  0  0  0  0  0  0  0
    1.7827    1.1033    0.0000 C   0  0  0  0  0  0  0  0  0  0  0  0
    2.2893    2.5152    0.0000 H   0  0  0  0  0  0  0  0  0  0  0  0
    1.7827   -0.3867    0.0000 C   0  0  0  0  0  0  0  0  0  0  0  0
    2.2946   -1.7966    0.0000 H   0  0  0  0  0  0  0  0  0  0  0  0
    0.4627   -1.1467    0.0000 C   0  0  0  0  0  0  0  0  0  0  0  0
   -0.5061   -2.2919    0.0000 H   0  0  0  0  0  0  0  0  0  0  0  0
   -0.8373   -0.3867    0.0000 C   0  0  0  0  0  0  0  0  0  0  0  0
   -2.3140   -0.1236    0.0000 H   0  0  0  0  0  0  0  0  0  0  0  0
   -0.8373    1.1033    0.0000 C   0  0  0  0  0  0  0  0  0  0  0  0
   -1.3500    2.5129    0.0000 H   0  0  0  0  0  0  0  0  0  0  0  0
   -2.7872    0.7597    0.0000 C   0  0  0  0  0  0  0  0  0  0  0  0
   -3.7513    1.9089    0.0000 O   0  0  0  0  0  0  0  0  0  0  0  0
   -3.3004   -0.6498    0.0000 O   0  0  0  0  0  0  0  0  0  0  0  0
   -4.7777   -0.9101    0.0000 H   0  0  0  0  0  0  0  0  0  0  0  0
    0.4627    1.8533    0.0000 O   0  0  0  0  0  0  0  0  0  0  0  0
   -1.3554   -1.7944    0.0000 O   0  0  0  0  0  0  0  0  0  0  0  0
   -2.8336   -2.0495    0.0000 H   0  0  0  0  0  0  0  0  0  0  0  0
    1.4239   -2.2983    0.0000 O   0  0  0  0  0  0  0  0  0  0  0  0
    0.9072   -3.7065    0.0000 H   0  0  0  0  0  0  0  0  0  0  0  0
    3.2600   -0.1268    0.0000 O   0  0  0  0  0  0  0  0  0  0  0  0
    4.2238   -1.2763    0.0000 H   0  0  0  0  0  0  0  0  0  0  0  0
  1  2  1  0  0  0  0 
  1  3  1  0  0  0  0 
  1  4  1  0  0  0  0 
  1  5  1  0  0  0  0 
  5  6  1  0  0  0  0 
  5  7  1  0  0  0  0 
  7  8  1  0  0  0  0 
  7  9  1  0  0  0  0 
  7 10  1  0  0  0  0 
  5 11  1  0  0  0  0 
 11 12  1  0  0  0  0 
 11 13  1  0  0  0  0 
 13 14  1  0  0  0  0 
 13 15  1  0  0  0  0 
 13 16  1  0  0  0  0 
 16 17  1  0  0  0  0 
 16 18  1  0  0  0  0 
 18 19  1  0  0  0  0 
 18 20  1  0  0  0  0 
 18 21  1  0  0  0  0 
 21 22  1  0  0  0  0 
 22 23  2  0  0  0  0 
 23 24  1  0  0  0  0 
 23 25  1  0  0  0  0 
 25 26  1  0  0  0  0 
 25 27  2  0  0  0  0 
 27 28  1  0  0  0  0 
 28 29  1  0  0  0  0 
 28 30  2  0  0  0  0 
 22 30  1  0  0  0  0 
 30 31  1  0  0  0  0 
 27 32  1  0  0  0  0 
 32 33  1  0  0  0  0 
 32 34  1  0  0  0  0 
 32 35  1  0  0  0  0 
 35 36  2  0  0  0  0 
 35 37  1  0  0  0  0 
 37 38  1  0  0  0  0 
 37 39  1  0  0  0  0 
 16 40  1  0  0  0  0 
 40 41  1  0  0  0  0 
 41 42  1  0  0  0  0 
 41 43  1  0  0  0  0 
 43 44  1  0  0  0  0 
 43 45  1  0  0  0  0 
 45 46  1  0  0  0  0 
 45 47  1  0  0  0  0 
 47 48  1  0  0  0  0 
 47 49  1  0  0  0  0 
 49 50  1  0  0  0  0 
 49 51  1  0  0  0  0 
 51 52  2  0  0  0  0 
 51 53  1  0  0  0  0 
 53 54  1  0  0  0  0 
 49 55  1  0  0  0  0 
 41 55  1  0  0  0  0 
 47 56  1  0  0  0  0 
 56 57  1  0  0  0  0 
 45 58  1  0  0  0  0 
 58 59  1  0  0  0  0 
 43 60  1  0  0  0  0 
 60 61  1  0  0  0  0 
M  END
> <Rank>
1

> <Priority_score>
0.9

> <Reaction_type>
O-glucuronidation_(aliphatic_hydroxyl)

> <Parent_ID>
9

> <Parent_InChI>
InChI=1S/C14H22N2O3/c1-10(2)16-8-12(17)9-19-13-5-3-11(4-6-13)7-14(15)18/h3-6,10,12,16-17H,7-9H2,1-2H3,(H2,15,18)

> <Parent_SMILES>
CC(C)NCC(O)COc1ccc(CC(N)=O)cc1

$$$$
Molecule 9_metabolite 2
  CDK     0516241031

 45 45  0  0  0  0  0  0  0  0999 V2000
    4.7833   -3.4152    0.0000 C   0  0  0  0  0  0  0  0  0  0  0  0
    6.1885   -2.8906    0.0000 H   0  0  0  0  0  0  0  0  0  0  0  0
    5.5440   -4.7080    0.0000 H   0  0  0  0  0  0  0  0  0  0  0  0
    3.6422   -4.3888    0.0000 H   0  0  0  0  0  0  0  0  0  0  0  0
    3.6263   -2.4605    0.0000 C   0  0  0  0  0  0  0  0  0  0  0  0
    2.8656   -1.1677    0.0000 H   0  0  0  0  0  0  0  0  0  0  0  0
    4.7674   -1.4869    0.0000 C   0  0  0  0  0  0  0  0  0  0  0  0
    6.1811   -1.9883    0.0000 H   0  0  0  0  0  0  0  0  0  0  0  0
    3.6104   -0.5322    0.0000 H   0  0  0  0  0  0  0  0  0  0  0  0
    5.5066   -0.1817    0.0000 H   0  0  0  0  0  0  0  0  0  0  0  0
    1.7714   -3.1531    0.0000 N   0  0  0  0  0  0  0  0  0  0  0  0
    1.5231   -4.6324    0.0000 H   0  0  0  0  0  0  0  0  0  0  0  0
    0.6144   -2.1984    0.0000 C   0  0  0  0  0  0  0  0  0  0  0  0
   -0.1463   -0.9056    0.0000 H   0  0  0  0  0  0  0  0  0  0  0  0
    1.7555   -1.2248    0.0000 H   0  0  0  0  0  0  0  0  0  0  0  0
   -0.7909   -2.7230    0.0000 C   0  0  0  0  0  0  0  0  0  0  0  0
   -0.0302   -4.0158    0.0000 H   0  0  0  0  0  0  0  0  0  0  0  0
   -1.9479   -1.7684    0.0000 C   0  0  0  0  0  0  0  0  0  0  0  0
   -3.3616   -1.2670    0.0000 H   0  0  0  0  0  0  0  0  0  0  0  0
   -2.6871   -3.0735    0.0000 H   0  0  0  0  0  0  0  0  0  0  0  0
   -1.6996   -0.2891    0.0000 O   0  0  0  0  0  0  0  0  0  0  0  0
   -2.8566    0.6656    0.0000 C   0  0  0  0  0  0  0  0  0  0  0  0
   -2.6135    2.1907    0.0000 C   0  0  0  0  0  0  0  0  0  0  0  0
   -1.2109    2.7223    0.0000 H   0  0  0  0  0  0  0  0  0  0  0  0
   -3.7527    3.1276    0.0000 C   0  0  0  0  0  0  0  0  0  0  0  0
   -3.4995    4.6061    0.0000 H   0  0  0  0  0  0  0  0  0  0  0  0
   -5.1622    2.6146    0.0000 C   0  0  0  0  0  0  0  0  0  0  0  0
   -5.4326    1.1647    0.0000 C   0  0  0  0  0  0  0  0  0  0  0  0
   -6.8488    0.6702    0.0000 H   0  0  0  0  0  0  0  0  0  0  0  0
   -4.2661    0.1526    0.0000 C   0  0  0  0  0  0  0  0  0  0  0  0
   -4.5388   -1.3224    0.0000 H   0  0  0  0  0  0  0  0  0  0  0  0
   -6.3065    3.5844    0.0000 C   0  0  0  0  0  0  0  0  0  0  0  0
   -7.7135    4.1044    0.0000 H   0  0  0  0  0  0  0  0  0  0  0  0
   -7.0629    2.2891    0.0000 H   0  0  0  0  0  0  0  0  0  0  0  0
   -6.0388    5.0603    0.0000 C   0  0  0  0  0  0  0  0  0  0  0  0
   -4.6267    5.5664    0.0000 O   0  0  0  0  0  0  0  0  0  0  0  0
   -7.1831    6.0301    0.0000 N   0  0  0  0  0  0  0  0  0  0  0  0
   -6.9153    7.5061    0.0000 H   0  0  0  0  0  0  0  0  0  0  0  0
   -8.5951    5.5241    0.0000 H   0  0  0  0  0  0  0  0  0  0  0  0
   -1.9320   -3.6967    0.0000 O   0  0  0  0  0  0  0  0  0  0  0  0
   -1.6593   -5.1717    0.0000 S   0  0  0  0  0  0  0  0  0  0  0  0
   -3.1593   -5.1840    0.0000 O   0  0  0  0  0  0  0  0  0  0  0  0
   -1.9076   -6.6510    0.0000 O   0  0  0  0  0  0  0  0  0  0  0  0
   -0.2456   -5.6731    0.0000 O   0  0  0  0  0  0  0  0  0  0  0  0
    0.0271   -7.1481    0.0000 H   0  0  0  0  0  0  0  0  0  0  0  0
  1  2  1  0  0  0  0 
  1  3  1  0  0  0  0 
  1  4  1  0  0  0  0 
  1  5  1  0  0  0  0 
  5  6  1  0  0  0  0 
  5  7  1  0  0  0  0 
  7  8  1  0  0  0  0 
  7  9  1  0  0  0  0 
  7 10  1  0  0  0  0 
  5 11  1  0  0  0  0 
 11 12  1  0  0  0  0 
 11 13  1  0  0  0  0 
 13 14  1  0  0  0  0 
 13 15  1  0  0  0  0 
 13 16  1  0  0  0  0 
 16 17  1  0  0  0  0 
 16 18  1  0  0  0  0 
 18 19  1  0  0  0  0 
 18 20  1  0  0  0  0 
 18 21  1  0  0  0  0 
 21 22  1  0  0  0  0 
 22 23  2  0  0  0  0 
 23 24  1  0  0  0  0 
 23 25  1  0  0  0  0 
 25 26  1  0  0  0  0 
 25 27  2  0  0  0  0 
 27 28  1  0  0  0  0 
 28 29  1  0  0  0  0 
 28 30  2  0  0  0  0 
 22 30  1  0  0  0  0 
 30 31  1  0  0  0  0 
 27 32  1  0  0  0  0 
 32 33  1  0  0  0  0 
 32 34  1  0  0  0  0 
 32 35  1  0  0  0  0 
 35 36  2  0  0  0  0 
 35 37  1  0  0  0  0 
 37 38  1  0  0  0  0 
 37 39  1  0  0  0  0 
 16 40  1  0  0  0  0 
 40 41  1  0  0  0  0 
 41 42  2  0  0  0  0 
 41 43  2  0  0  0  0 
 41 44  1  0  0  0  0 
 44 45  1  0  0  0  0 
M  END
> <Rank>
2

> <Priority_score>
0.872

> <Reaction_type>
sulfation_(aliphatic_hydroxyl)

> <Parent_ID>
9

> <Parent_InChI>
InChI=1S/C14H22N2O3/c1-10(2)16-8-12(17)9-19-13-5-3-11(4-6-13)7-14(15)18/h3-6,10,12,16-17H,7-9H2,1-2H3,(H2,15,18)

> <Parent_SMILES>
CC(C)NCC(O)COc1ccc(CC(N)=O)cc1

$$$$
Molecule 9_metabolite 3
  CDK     0516241031

 40 40  0  0  0  0  0  0  0  0999 V2000
    5.6086   -0.2217    0.0000 C   0  0  0  0  0  0  0  0  0  0  0  0
    6.9137   -0.9610    0.0000 H   0  0  0  0  0  0  0  0  0  0  0  0
    6.5632    0.9352    0.0000 H   0  0  0  0  0  0  0  0  0  0  0  0
    4.6349    0.9193    0.0000 H   0  0  0  0  0  0  0  0  0  0  0  0
    4.3158   -0.9824    0.0000 C   0  0  0  0  0  0  0  0  0  0  0  0
    3.3611   -2.1394    0.0000 H   0  0  0  0  0  0  0  0  0  0  0  0
    5.2894   -2.1235    0.0000 C   0  0  0  0  0  0  0  0  0  0  0  0
    6.7644   -1.8509    0.0000 H   0  0  0  0  0  0  0  0  0  0  0  0
    3.9966   -2.8842    0.0000 H   0  0  0  0  0  0  0  0  0  0  0  0
    5.8140   -3.5288    0.0000 H   0  0  0  0  0  0  0  0  0  0  0  0
    2.5929   -0.0066    0.0000 N   0  0  0  0  0  0  0  0  0  0  0  0
    2.5805    1.4933    0.0000 H   0  0  0  0  0  0  0  0  0  0  0  0
    1.3001   -0.7673    0.0000 C   0  0  0  0  0  0  0  0  0  0  0  0
    0.3454   -1.9243    0.0000 H   0  0  0  0  0  0  0  0  0  0  0  0
    2.2737   -1.9084    0.0000 H   0  0  0  0  0  0  0  0  0  0  0  0
   -0.4227    0.2085    0.0000 C   0  0  0  0  0  0  0  0  0  0  0  0
    0.5319    1.3655    0.0000 H   0  0  0  0  0  0  0  0  0  0  0  0
   -1.7155   -0.5522    0.0000 C   0  0  0  0  0  0  0  0  0  0  0  0
   -2.6702   -1.7092    0.0000 H   0  0  0  0  0  0  0  0  0  0  0  0
   -0.7419   -1.6933    0.0000 H   0  0  0  0  0  0  0  0  0  0  0  0
   -3.0207    0.1871    0.0000 O   0  0  0  0  0  0  0  0  0  0  0  0
   -4.3135   -0.5736    0.0000 C   0  0  0  0  0  0  0  0  0  0  0  0
   -5.6635    0.1764    0.0000 C   0  0  0  0  0  0  0  0  0  0  0  0
   -5.6833    1.6763    0.0000 H   0  0  0  0  0  0  0  0  0  0  0  0
   -6.9335   -0.5736    0.0000 C   0  0  0  0  0  0  0  0  0  0  0  0
   -8.2362    0.1700    0.0000 H   0  0  0  0  0  0  0  0  0  0  0  0
   -6.9335   -2.0736    0.0000 C   0  0  0  0  0  0  0  0  0  0  0  0
   -5.6635   -2.8236    0.0000 C   0  0  0  0  0  0  0  0  0  0  0  0
   -5.6833   -4.3235    0.0000 H   0  0  0  0  0  0  0  0  0  0  0  0
   -4.3135   -2.0736    0.0000 C   0  0  0  0  0  0  0  0  0  0  0  0
   -3.0207   -2.8343    0.0000 H   0  0  0  0  0  0  0  0  0  0  0  0
   -8.2362   -2.8172    0.0000 C   0  0  0  0  0  0  0  0  0  0  0  0
   -9.2061   -3.9615    0.0000 H   0  0  0  0  0  0  0  0  0  0  0  0
   -7.2777   -3.9710    0.0000 H   0  0  0  0  0  0  0  0  0  0  0  0
   -9.5316   -2.0608    0.0000 C   0  0  0  0  0  0  0  0  0  0  0  0
   -9.5242   -0.5608    0.0000 O   0  0  0  0  0  0  0  0  0  0  0  0
  -10.8343   -2.8044    0.0000 O   0  0  0  0  0  0  0  0  0  0  0  0
  -12.1296   -2.0480    0.0000 H   0  0  0  0  0  0  0  0  0  0  0  0
   -1.3964    1.3496    0.0000 O   0  0  0  0  0  0  0  0  0  0  0  0
   -0.8950    2.7633    0.0000 H   0  0  0  0  0  0  0  0  0  0  0  0
  1  2  1  0  0  0  0 
  1  3  1  0  0  0  0 
  1  4  1  0  0  0  0 
  1  5  1  0  0  0  0 
  5  6  1  0  0  0  0 
  5  7  1  0  0  0  0 
  7  8  1  0  0  0  0 
  7  9  1  0  0  0  0 
  7 10  1  0  0  0  0 
  5 11  1  0  0  0  0 
 11 12  1  0  0  0  0 
 11 13  1  0  0  0  0 
 13 14  1  0  0  0  0 
 13 15  1  0  0  0  0 
 13 16  1  0  0  0  0 
 16 17  1  0  0  0  0 
 16 18  1  0  0  0  0 
 18 19  1  0  0  0  0 
 18 20  1  0  0  0  0 
 18 21  1  0  0  0  0 
 21 22  1  0  0  0  0 
 22 23  2  0  0  0  0 
 23 24  1  0  0  0  0 
 23 25  1  0  0  0  0 
 25 26  1  0  0  0  0 
 25 27  2  0  0  0  0 
 27 28  1  0  0  0  0 
 28 29  1  0  0  0  0 
 28 30  2  0  0  0  0 
 22 30  1  0  0  0  0 
 30 31  1  0  0  0  0 
 27 32  1  0  0  0  0 
 32 33  1  0  0  0  0 
 32 34  1  0  0  0  0 
 32 35  1  0  0  0  0 
 35 36  2  0  0  0  0 
 35 37  1  0  0  0  0 
 37 38  1  0  0  0  0 
 16 39  1  0  0  0  0 
 39 40  1  0  0  0  0 
M  END
> <Rank>
3

> <Priority_score>
0.444

> <Reaction_type>
hydrolysis_(primary_amide)

> <Parent_ID>
9

> <Parent_InChI>
InChI=1S/C14H22N2O3/c1-10(2)16-8-12(17)9-19-13-5-3-11(4-6-13)7-14(15)18/h3-6,10,12,16-17H,7-9H2,1-2H3,(H2,15,18)

> <Parent_SMILES>
CC(C)NCC(O)COc1ccc(CC(N)=O)cc1

$$$$
Molecule 9_metabolite 4
  CDK     0516241031

 42 42  0  0  0  0  0  0  0  0999 V2000
    5.6086    0.8328    0.0000 C   0  0  0  0  0  0  0  0  0  0  0  0
    6.9137    0.0935    0.0000 H   0  0  0  0  0  0  0  0  0  0  0  0
    6.5632    1.9898    0.0000 H   0  0  0  0  0  0  0  0  0  0  0  0
    4.6349    1.9739    0.0000 H   0  0  0  0  0  0  0  0  0  0  0  0
    4.3158    0.0721    0.0000 C   0  0  0  0  0  0  0  0  0  0  0  0
    3.3611   -1.0849    0.0000 H   0  0  0  0  0  0  0  0  0  0  0  0
    5.2894   -1.0690    0.0000 C   0  0  0  0  0  0  0  0  0  0  0  0
    6.7644   -0.7963    0.0000 H   0  0  0  0  0  0  0  0  0  0  0  0
    3.9966   -1.8297    0.0000 H   0  0  0  0  0  0  0  0  0  0  0  0
    5.8140   -2.4742    0.0000 H   0  0  0  0  0  0  0  0  0  0  0  0
    2.5929    1.0479    0.0000 N   0  0  0  0  0  0  0  0  0  0  0  0
    2.5805    2.5479    0.0000 H   0  0  0  0  0  0  0  0  0  0  0  0
    1.3001    0.2872    0.0000 C   0  0  0  0  0  0  0  0  0  0  0  0
    0.3454   -0.8698    0.0000 H   0  0  0  0  0  0  0  0  0  0  0  0
    2.2737   -0.8539    0.0000 H   0  0  0  0  0  0  0  0  0  0  0  0
   -0.4227    1.2630    0.0000 C   0  0  0  0  0  0  0  0  0  0  0  0
    0.5319    2.4200    0.0000 H   0  0  0  0  0  0  0  0  0  0  0  0
   -1.7155    0.5023    0.0000 C   0  0  0  0  0  0  0  0  0  0  0  0
   -2.6702   -0.6546    0.0000 H   0  0  0  0  0  0  0  0  0  0  0  0
   -0.7419   -0.6387    0.0000 H   0  0  0  0  0  0  0  0  0  0  0  0
   -3.0207    1.2416    0.0000 O   0  0  0  0  0  0  0  0  0  0  0  0
   -4.3135    0.4809    0.0000 C   0  0  0  0  0  0  0  0  0  0  0  0
   -5.6635    1.2309    0.0000 C   0  0  0  0  0  0  0  0  0  0  0  0
   -5.6833    2.7308    0.0000 H   0  0  0  0  0  0  0  0  0  0  0  0
   -6.9335    0.4809    0.0000 C   0  0  0  0  0  0  0  0  0  0  0  0
   -8.2362    1.2245    0.0000 H   0  0  0  0  0  0  0  0  0  0  0  0
   -6.9335   -1.0191    0.0000 C   0  0  0  0  0  0  0  0  0  0  0  0
   -5.6635   -1.7691    0.0000 C   0  0  0  0  0  0  0  0  0  0  0  0
   -5.6833   -3.2690    0.0000 H   0  0  0  0  0  0  0  0  0  0  0  0
   -4.3135   -1.0191    0.0000 C   0  0  0  0  0  0  0  0  0  0  0  0
   -3.0207   -1.7798    0.0000 H   0  0  0  0  0  0  0  0  0  0  0  0
   -8.2362   -1.7627    0.0000 C   0  0  0  0  0  0  0  0  0  0  0  0
   -9.2061   -2.9070    0.0000 H   0  0  0  0  0  0  0  0  0  0  0  0
   -9.5316   -1.0063    0.0000 C   0  0  0  0  0  0  0  0  0  0  0  0
   -9.5242    0.4937    0.0000 O   0  0  0  0  0  0  0  0  0  0  0  0
  -10.8343   -1.7499    0.0000 N   0  0  0  0  0  0  0  0  0  0  0  0
  -12.1296   -0.9935    0.0000 H   0  0  0  0  0  0  0  0  0  0  0  0
  -10.8417   -3.2499    0.0000 H   0  0  0  0  0  0  0  0  0  0  0  0
   -7.2777   -2.9165    0.0000 O   0  0  0  0  0  0  0  0  0  0  0  0
   -7.7977   -4.3235    0.0000 H   0  0  0  0  0  0  0  0  0  0  0  0
   -1.3964    2.4041    0.0000 O   0  0  0  0  0  0  0  0  0  0  0  0
   -0.8950    3.8178    0.0000 H   0  0  0  0  0  0  0  0  0  0  0  0
  1  2  1  0  0  0  0 
  1  3  1  0  0  0  0 
  1  4  1  0  0  0  0 
  1  5  1  0  0  0  0 
  5  6  1  0  0  0  0 
  5  7  1  0  0  0  0 
  7  8  1  0  0  0  0 
  7  9  1  0  0  0  0 
  7 10  1  0  0  0  0 
  5 11  1  0  0  0  0 
 11 12  1  0  0  0  0 
 11 13  1  0  0  0  0 
 13 14  1  0  0  0  0 
 13 15  1  0  0  0  0 
 13 16  1  0  0  0  0 
 16 17  1  0  0  0  0 
 16 18  1  0  0  0  0 
 18 19  1  0  0  0  0 
 18 20  1  0  0  0  0 
 18 21  1  0  0  0  0 
 21 22  1  0  0  0  0 
 22 23  2  0  0  0  0 
 23 24  1  0  0  0  0 
 23 25  1  0  0  0  0 
 25 26  1  0  0  0  0 
 25 27  2  0  0  0  0 
 27 28  1  0  0  0  0 
 28 29  1  0  0  0  0 
 28 30  2  0  0  0  0 
 22 30  1  0  0  0  0 
 30 31  1  0  0  0  0 
 27 32  1  0  0  0  0 
 32 33  1  0  0  0  0 
 32 34  1  0  0  0  0 
 34 35  2  0  0  0  0 
 34 36  1  0  0  0  0 
 36 37  1  0  0  0  0 
 36 38  1  0  0  0  0 
 32 39  1  0  0  0  0 
 39 40  1  0  0  0  0 
 16 41  1  0  0  0  0 
 41 42  1  0  0  0  0 
M  END
> <Rank>
3

> <Priority_score>
0.444

> <Reaction_type>
benzylic_hydroxylation_(c-CH2-CR)

> <Parent_ID>
9

> <Parent_InChI>
InChI=1S/C14H22N2O3/c1-10(2)16-8-12(17)9-19-13-5-3-11(4-6-13)7-14(15)18/h3-6,10,12,16-17H,7-9H2,1-2H3,(H2,15,18)

> <Parent_SMILES>
CC(C)NCC(O)COc1ccc(CC(N)=O)cc1

$$$$
Molecule 9_metabolite 5
  CDK     0516241031

 42 42  0  0  0  0  0  0  0  0999 V2000
  -10.8244   -1.3384    0.0000 C   0  0  0  0  0  0  0  0  0  0  0  0
  -12.1296   -0.5992    0.0000 H   0  0  0  0  0  0  0  0  0  0  0  0
  -11.7791   -2.4954    0.0000 H   0  0  0  0  0  0  0  0  0  0  0  0
   -9.8508   -2.4795    0.0000 H   0  0  0  0  0  0  0  0  0  0  0  0
   -9.5316   -0.5777    0.0000 C   0  0  0  0  0  0  0  0  0  0  0  0
   -8.5770    0.5792    0.0000 H   0  0  0  0  0  0  0  0  0  0  0  0
  -10.5052    0.5633    0.0000 C   0  0  0  0  0  0  0  0  0  0  0  0
  -11.9803    0.2907    0.0000 H   0  0  0  0  0  0  0  0  0  0  0  0
   -9.2124    1.3240    0.0000 H   0  0  0  0  0  0  0  0  0  0  0  0
  -11.0299    1.9686    0.0000 H   0  0  0  0  0  0  0  0  0  0  0  0
   -7.8088   -1.5536    0.0000 N   0  0  0  0  0  0  0  0  0  0  0  0
   -7.7964   -3.0535    0.0000 H   0  0  0  0  0  0  0  0  0  0  0  0
   -6.5160   -0.7929    0.0000 C   0  0  0  0  0  0  0  0  0  0  0  0
   -5.5613    0.3641    0.0000 H   0  0  0  0  0  0  0  0  0  0  0  0
   -7.4896    0.3482    0.0000 H   0  0  0  0  0  0  0  0  0  0  0  0
   -4.7931   -1.7687    0.0000 C   0  0  0  0  0  0  0  0  0  0  0  0
   -5.7478   -2.9257    0.0000 H   0  0  0  0  0  0  0  0  0  0  0  0
   -3.5003   -1.0080    0.0000 C   0  0  0  0  0  0  0  0  0  0  0  0
   -2.5457    0.1490    0.0000 H   0  0  0  0  0  0  0  0  0  0  0  0
   -4.4740    0.1331    0.0000 H   0  0  0  0  0  0  0  0  0  0  0  0
   -2.1951   -1.7473    0.0000 O   0  0  0  0  0  0  0  0  0  0  0  0
   -0.9023   -0.9866    0.0000 C   0  0  0  0  0  0  0  0  0  0  0  0
    0.4477   -1.7366    0.0000 C   0  0  0  0  0  0  0  0  0  0  0  0
    0.4674   -3.2364    0.0000 H   0  0  0  0  0  0  0  0  0  0  0  0
    1.7177   -0.9866    0.0000 C   0  0  0  0  0  0  0  0  0  0  0  0
    3.0204   -1.7302    0.0000 H   0  0  0  0  0  0  0  0  0  0  0  0
    1.7177    0.5134    0.0000 C   0  0  0  0  0  0  0  0  0  0  0  0
    0.4477    1.2634    0.0000 C   0  0  0  0  0  0  0  0  0  0  0  0
    0.4674    2.7633    0.0000 H   0  0  0  0  0  0  0  0  0  0  0  0
   -0.9023    0.5134    0.0000 C   0  0  0  0  0  0  0  0  0  0  0  0
   -2.1951    1.2741    0.0000 H   0  0  0  0  0  0  0  0  0  0  0  0
    3.0204    1.2570    0.0000 C   0  0  0  0  0  0  0  0  0  0  0  0
    3.9902    2.4013    0.0000 H   0  0  0  0  0  0  0  0  0  0  0  0
    2.0619    2.4108    0.0000 H   0  0  0  0  0  0  0  0  0  0  0  0
    4.3157    0.5006    0.0000 C   0  0  0  0  0  0  0  0  0  0  0  0
    4.3083   -0.9993    0.0000 O   0  0  0  0  0  0  0  0  0  0  0  0
    5.6184    1.2442    0.0000 N   0  0  0  0  0  0  0  0  0  0  0  0
    5.6258    2.7442    0.0000 H   0  0  0  0  0  0  0  0  0  0  0  0
    6.9137    0.4879    0.0000 O   0  0  0  0  0  0  0  0  0  0  0  0
    8.2165    1.2315    0.0000 H   0  0  0  0  0  0  0  0  0  0  0  0
   -3.8195   -2.9098    0.0000 O   0  0  0  0  0  0  0  0  0  0  0  0
   -4.3209   -4.3235    0.0000 H   0  0  0  0  0  0  0  0  0  0  0  0
  1  2  1  0  0  0  0 
  1  3  1  0  0  0  0 
  1  4  1  0  0  0  0 
  1  5  1  0  0  0  0 
  5  6  1  0  0  0  0 
  5  7  1  0  0  0  0 
  7  8  1  0  0  0  0 
  7  9  1  0  0  0  0 
  7 10  1  0  0  0  0 
  5 11  1  0  0  0  0 
 11 12  1  0  0  0  0 
 11 13  1  0  0  0  0 
 13 14  1  0  0  0  0 
 13 15  1  0  0  0  0 
 13 16  1  0  0  0  0 
 16 17  1  0  0  0  0 
 16 18  1  0  0  0  0 
 18 19  1  0  0  0  0 
 18 20  1  0  0  0  0 
 18 21  1  0  0  0  0 
 21 22  1  0  0  0  0 
 22 23  2  0  0  0  0 
 23 24  1  0  0  0  0 
 23 25  1  0  0  0  0 
 25 26  1  0  0  0  0 
 25 27  2  0  0  0  0 
 27 28  1  0  0  0  0 
 28 29  1  0  0  0  0 
 28 30  2  0  0  0  0 
 22 30  1  0  0  0  0 
 30 31  1  0  0  0  0 
 27 32  1  0  0  0  0 
 32 33  1  0  0  0  0 
 32 34  1  0  0  0  0 
 32 35  1  0  0  0  0 
 35 36  2  0  0  0  0 
 35 37  1  0  0  0  0 
 37 38  1  0  0  0  0 
 37 39  1  0  0  0  0 
 39 40  1  0  0  0  0 
 16 41  1  0  0  0  0 
 41 42  1  0  0  0  0 
M  END
> <Rank>
3

> <Priority_score>
0.444

> <Reaction_type>
amine hydroxylation

> <Parent_ID>
9

> <Parent_InChI>
InChI=1S/C14H22N2O3/c1-10(2)16-8-12(17)9-19-13-5-3-11(4-6-13)7-14(15)18/h3-6,10,12,16-17H,7-9H2,1-2H3,(H2,15,18)

> <Parent_SMILES>
CC(C)NCC(O)COc1ccc(CC(N)=O)cc1

$$$$
Molecule 9_metabolite 6
  CDK     0516241031

 61 62  0  0  0  0  0  0  0  0999 V2000
   15.9391  -10.2344    0.0000 C   0  0  0  0  0  0  0  0  0  0  0  0
   16.4703  -11.6371    0.0000 H   0  0  0  0  0  0  0  0  0  0  0  0
   17.4128   -9.9548    0.0000 H   0  0  0  0  0  0  0  0  0  0  0  0
   15.9196   -8.7345    0.0000 H   0  0  0  0  0  0  0  0  0  0  0  0
   14.4586   -9.9930    0.0000 C   0  0  0  0  0  0  0  0  0  0  0  0
   12.9849  -10.2726    0.0000 H   0  0  0  0  0  0  0  0  0  0  0  0
   14.4781  -11.4929    0.0000 C   0  0  0  0  0  0  0  0  0  0  0  0
   15.7867  -12.2260    0.0000 H   0  0  0  0  0  0  0  0  0  0  0  0
   12.9976  -11.2516    0.0000 H   0  0  0  0  0  0  0  0  0  0  0  0
   13.9833  -12.9090    0.0000 H   0  0  0  0  0  0  0  0  0  0  0  0
   13.7574   -8.1414    0.0000 N   0  0  0  0  0  0  0  0  0  0  0  0
   14.7066   -6.9799    0.0000 H   0  0  0  0  0  0  0  0  0  0  0  0
   12.2769   -7.9001    0.0000 C   0  0  0  0  0  0  0  0  0  0  0  0
   10.8032   -8.1797    0.0000 H   0  0  0  0  0  0  0  0  0  0  0  0
   12.2963   -9.4000    0.0000 H   0  0  0  0  0  0  0  0  0  0  0  0
   11.5757   -6.0484    0.0000 C   0  0  0  0  0  0  0  0  0  0  0  0
   13.0494   -5.7688    0.0000 H   0  0  0  0  0  0  0  0  0  0  0  0
   10.0952   -5.8071    0.0000 C   0  0  0  0  0  0  0  0  0  0  0  0
    8.6215   -6.0867    0.0000 H   0  0  0  0  0  0  0  0  0  0  0  0
   10.1146   -7.3070    0.0000 H   0  0  0  0  0  0  0  0  0  0  0  0
    9.5639   -4.4043    0.0000 O   0  0  0  0  0  0  0  0  0  0  0  0
    8.0835   -4.1630    0.0000 C   0  0  0  0  0  0  0  0  0  0  0  0
    7.5246   -2.7233    0.0000 C   0  0  0  0  0  0  0  0  0  0  0  0
    8.4681   -1.5572    0.0000 H   0  0  0  0  0  0  0  0  0  0  0  0
    6.0685   -2.4884    0.0000 C   0  0  0  0  0  0  0  0  0  0  0  0
    5.5419   -1.0839    0.0000 H   0  0  0  0  0  0  0  0  0  0  0  0
    5.1098   -3.6420    0.0000 C   0  0  0  0  0  0  0  0  0  0  0  0
    5.6071   -5.0305    0.0000 C   0  0  0  0  0  0  0  0  0  0  0  0
    4.6332   -6.1714    0.0000 H   0  0  0  0  0  0  0  0  0  0  0  0
    7.1247   -5.3166    0.0000 C   0  0  0  0  0  0  0  0  0  0  0  0
    7.6327   -6.7280    0.0000 H   0  0  0  0  0  0  0  0  0  0  0  0
    3.6326   -3.3812    0.0000 C   0  0  0  0  0  0  0  0  0  0  0  0
    2.1553   -3.6414    0.0000 H   0  0  0  0  0  0  0  0  0  0  0  0
    3.6323   -4.8812    0.0000 H   0  0  0  0  0  0  0  0  0  0  0  0
    3.1199   -1.9715    0.0000 C   0  0  0  0  0  0  0  0  0  0  0  0
    4.0843   -0.8227    0.0000 O   0  0  0  0  0  0  0  0  0  0  0  0
    1.6427   -1.7108    0.0000 N   0  0  0  0  0  0  0  0  0  0  0  0
    0.6783   -2.8596    0.0000 H   0  0  0  0  0  0  0  0  0  0  0  0
    1.1300   -0.3011    0.0000 C   0  0  0  0  0  0  0  0  0  0  0  0
    2.6072   -0.0408    0.0000 H   0  0  0  0  0  0  0  0  0  0  0  0
    1.1300    1.1989    0.0000 C   0  0  0  0  0  0  0  0  0  0  0  0
    2.6072    0.9386    0.0000 H   0  0  0  0  0  0  0  0  0  0  0  0
   -0.1700    1.9489    0.0000 C   0  0  0  0  0  0  0  0  0  0  0  0
    0.7941    3.0981    0.0000 H   0  0  0  0  0  0  0  0  0  0  0  0
   -1.4700    1.1989    0.0000 C   0  0  0  0  0  0  0  0  0  0  0  0
   -1.9827    2.6085    0.0000 H   0  0  0  0  0  0  0  0  0  0  0  0
   -1.4700   -0.3011    0.0000 C   0  0  0  0  0  0  0  0  0  0  0  0
   -2.9472   -0.0408    0.0000 H   0  0  0  0  0  0  0  0  0  0  0  0
   -1.9827   -1.7108    0.0000 C   0  0  0  0  0  0  0  0  0  0  0  0
   -1.0183   -2.8596    0.0000 O   0  0  0  0  0  0  0  0  0  0  0  0
   -3.4599   -1.9715    0.0000 O   0  0  0  0  0  0  0  0  0  0  0  0
   -4.4243   -0.8227    0.0000 H   0  0  0  0  0  0  0  0  0  0  0  0
   -0.1700   -1.0511    0.0000 O   0  0  0  0  0  0  0  0  0  0  0  0
   -2.9472    0.9386    0.0000 O   0  0  0  0  0  0  0  0  0  0  0  0
   -3.9113    2.0877    0.0000 H   0  0  0  0  0  0  0  0  0  0  0  0
   -1.1341    3.0981    0.0000 O   0  0  0  0  0  0  0  0  0  0  0  0
   -0.6209    4.5075    0.0000 H   0  0  0  0  0  0  0  0  0  0  0  0
    1.6427    2.6085    0.0000 O   0  0  0  0  0  0  0  0  0  0  0  0
    3.1199    2.8693    0.0000 H   0  0  0  0  0  0  0  0  0  0  0  0
   11.5562   -4.5485    0.0000 O   0  0  0  0  0  0  0  0  0  0  0  0
   12.8454   -3.7818    0.0000 H   0  0  0  0  0  0  0  0  0  0  0  0
  1  2  1  0  0  0  0 
  1  3  1  0  0  0  0 
  1  4  1  0  0  0  0 
  1  5  1  0  0  0  0 
  5  6  1  0  0  0  0 
  5  7  1  0  0  0  0 
  7  8  1  0  0  0  0 
  7  9  1  0  0  0  0 
  7 10  1  0  0  0  0 
  5 11  1  0  0  0  0 
 11 12  1  0  0  0  0 
 11 13  1  0  0  0  0 
 13 14  1  0  0  0  0 
 13 15  1  0  0  0  0 
 13 16  1  0  0  0  0 
 16 17  1  0  0  0  0 
 16 18  1  0  0  0  0 
 18 19  1  0  0  0  0 
 18 20  1  0  0  0  0 
 18 21  1  0  0  0  0 
 21 22  1  0  0  0  0 
 22 23  2  0  0  0  0 
 23 24  1  0  0  0  0 
 23 25  1  0  0  0  0 
 25 26  1  0  0  0  0 
 25 27  2  0  0  0  0 
 27 28  1  0  0  0  0 
 28 29  1  0  0  0  0 
 28 30  2  0  0  0  0 
 22 30  1  0  0  0  0 
 30 31  1  0  0  0  0 
 27 32  1  0  0  0  0 
 32 33  1  0  0  0  0 
 32 34  1  0  0  0  0 
 32 35  1  0  0  0  0 
 35 36  2  0  0  0  0 
 35 37  1  0  0  0  0 
 37 38  1  0  0  0  0 
 37 39  1  0  0  0  0 
 39 40  1  0  0  0  0 
 39 41  1  0  0  0  0 
 41 42  1  0  0  0  0 
 41 43  1  0  0  0  0 
 43 44  1  0  0  0  0 
 43 45  1  0  0  0  0 
 45 46  1  0  0  0  0 
 45 47  1  0  0  0  0 
 47 48  1  0  0  0  0 
 47 49  1  0  0  0  0 
 49 50  2  0  0  0  0 
 49 51  1  0  0  0  0 
 51 52  1  0  0  0  0 
 47 53  1  0  0  0  0 
 39 53  1  0  0  0  0 
 45 54  1  0  0  0  0 
 54 55  1  0  0  0  0 
 43 56  1  0  0  0  0 
 56 57  1  0  0  0  0 
 41 58  1  0  0  0  0 
 58 59  1  0  0  0  0 
 16 60  1  0  0  0  0 
 60 61  1  0  0  0  0 
M  END
> <Rank>
6

> <Priority_score>
0.344

> <Reaction_type>
N-glucuronidation_(aliphatic_NH2)

> <Parent_ID>
9

> <Parent_InChI>
InChI=1S/C14H22N2O3/c1-10(2)16-8-12(17)9-19-13-5-3-11(4-6-13)7-14(15)18/h3-6,10,12,16-17H,7-9H2,1-2H3,(H2,15,18)

> <Parent_SMILES>
CC(C)NCC(O)COc1ccc(CC(N)=O)cc1

$$$$
Molecule 9_metabolite 7
  CDK     0516241031

 13 12  0  0  0  0  0  0  0  0999 V2000
    1.9372   -1.3229    0.0000 C   0  0  0  0  0  0  0  0  0  0  0  0
    0.4372   -1.3229    0.0000 H   0  0  0  0  0  0  0  0  0  0  0  0
    1.6767   -2.8001    0.0000 H   0  0  0  0  0  0  0  0  0  0  0  0
    3.3467   -1.8359    0.0000 H   0  0  0  0  0  0  0  0  0  0  0  0
    2.6872   -0.0239    0.0000 C   0  0  0  0  0  0  0  0  0  0  0  0
    2.9476    1.4533    0.0000 H   0  0  0  0  0  0  0  0  0  0  0  0
    4.1872   -0.0239    0.0000 C   0  0  0  0  0  0  0  0  0  0  0  0
    4.9372   -1.3229    0.0000 H   0  0  0  0  0  0  0  0  0  0  0  0
    3.9267    1.4533    0.0000 H   0  0  0  0  0  0  0  0  0  0  0  0
    5.5967    0.4892    0.0000 H   0  0  0  0  0  0  0  0  0  0  0  0
    1.2776    0.4892    0.0000 N   0  0  0  0  0  0  0  0  0  0  0  0
    1.0172    1.9664    0.0000 H   0  0  0  0  0  0  0  0  0  0  0  0
    0.1286   -0.4750    0.0000 H   0  0  0  0  0  0  0  0  0  0  0  0
  1  2  1  0  0  0  0 
  1  3  1  0  0  0  0 
  1  4  1  0  0  0  0 
  1  5  1  0  0  0  0 
  5  6  1  0  0  0  0 
  5  7  1  0  0  0  0 
  7  8  1  0  0  0  0 
  7  9  1  0  0  0  0 
  7 10  1  0  0  0  0 
  5 11  1  0  0  0  0 
 11 12  1  0  0  0  0 
 11 13  1  0  0  0  0 
M  END
> <Rank>
7

> <Priority_score>
0.136

> <Reaction_type>
N-dealkylation_(R-NHCH2-alkyl)

> <Parent_ID>
9

> <Parent_InChI>
InChI=1S/C14H22N2O3/c1-10(2)16-8-12(17)9-19-13-5-3-11(4-6-13)7-14(15)18/h3-6,10,12,16-17H,7-9H2,1-2H3,(H2,15,18)

> <Parent_SMILES>
CC(C)NCC(O)COc1ccc(CC(N)=O)cc1

$$$$
Molecule 9_metabolite 8
  CDK     0516241031

 42 42  0  0  0  0  0  0  0  0999 V2000
    5.6086   -0.2217    0.0000 C   0  0  0  0  0  0  0  0  0  0  0  0
    6.9137   -0.9610    0.0000 H   0  0  0  0  0  0  0  0  0  0  0  0
    6.5632    0.9352    0.0000 H   0  0  0  0  0  0  0  0  0  0  0  0
    4.6349    0.9193    0.0000 H   0  0  0  0  0  0  0  0  0  0  0  0
    4.3158   -0.9824    0.0000 C   0  0  0  0  0  0  0  0  0  0  0  0
    3.3611   -2.1394    0.0000 H   0  0  0  0  0  0  0  0  0  0  0  0
    5.2894   -2.1235    0.0000 C   0  0  0  0  0  0  0  0  0  0  0  0
    6.7644   -1.8509    0.0000 H   0  0  0  0  0  0  0  0  0  0  0  0
    3.9966   -2.8842    0.0000 H   0  0  0  0  0  0  0  0  0  0  0  0
    5.8140   -3.5288    0.0000 H   0  0  0  0  0  0  0  0  0  0  0  0
    2.5929   -0.0066    0.0000 N   0  0  0  0  0  0  0  0  0  0  0  0
    2.5805    1.4933    0.0000 H   0  0  0  0  0  0  0  0  0  0  0  0
    1.3001   -0.7673    0.0000 C   0  0  0  0  0  0  0  0  0  0  0  0
    0.3454   -1.9243    0.0000 H   0  0  0  0  0  0  0  0  0  0  0  0
   -0.4227    0.2085    0.0000 C   0  0  0  0  0  0  0  0  0  0  0  0
    0.5319    1.3655    0.0000 H   0  0  0  0  0  0  0  0  0  0  0  0
   -1.7155   -0.5522    0.0000 C   0  0  0  0  0  0  0  0  0  0  0  0
   -2.6702   -1.7092    0.0000 H   0  0  0  0  0  0  0  0  0  0  0  0
   -0.7419   -1.6933    0.0000 H   0  0  0  0  0  0  0  0  0  0  0  0
   -3.0207    0.1871    0.0000 O   0  0  0  0  0  0  0  0  0  0  0  0
   -4.3135   -0.5736    0.0000 C   0  0  0  0  0  0  0  0  0  0  0  0
   -5.6635    0.1764    0.0000 C   0  0  0  0  0  0  0  0  0  0  0  0
   -5.6833    1.6763    0.0000 H   0  0  0  0  0  0  0  0  0  0  0  0
   -6.9335   -0.5736    0.0000 C   0  0  0  0  0  0  0  0  0  0  0  0
   -8.2362    0.1700    0.0000 H   0  0  0  0  0  0  0  0  0  0  0  0
   -6.9335   -2.0736    0.0000 C   0  0  0  0  0  0  0  0  0  0  0  0
   -5.6635   -2.8236    0.0000 C   0  0  0  0  0  0  0  0  0  0  0  0
   -5.6833   -4.3235    0.0000 H   0  0  0  0  0  0  0  0  0  0  0  0
   -4.3135   -2.0736    0.0000 C   0  0  0  0  0  0  0  0  0  0  0  0
   -3.0207   -2.8343    0.0000 H   0  0  0  0  0  0  0  0  0  0  0  0
   -8.2362   -2.8172    0.0000 C   0  0  0  0  0  0  0  0  0  0  0  0
   -9.2061   -3.9615    0.0000 H   0  0  0  0  0  0  0  0  0  0  0  0
   -7.2777   -3.9710    0.0000 H   0  0  0  0  0  0  0  0  0  0  0  0
   -9.5316   -2.0608    0.0000 C   0  0  0  0  0  0  0  0  0  0  0  0
   -9.5242   -0.5608    0.0000 O   0  0  0  0  0  0  0  0  0  0  0  0
  -10.8343   -2.8044    0.0000 N   0  0  0  0  0  0  0  0  0  0  0  0
  -12.1296   -2.0480    0.0000 H   0  0  0  0  0  0  0  0  0  0  0  0
  -10.8417   -4.3044    0.0000 H   0  0  0  0  0  0  0  0  0  0  0  0
   -1.3964    1.3496    0.0000 O   0  0  0  0  0  0  0  0  0  0  0  0
   -0.8950    2.7633    0.0000 H   0  0  0  0  0  0  0  0  0  0  0  0
    2.2737   -1.9084    0.0000 O   0  0  0  0  0  0  0  0  0  0  0  0
    1.7724   -3.3221    0.0000 H   0  0  0  0  0  0  0  0  0  0  0  0
  1  2  1  0  0  0  0 
  1  3  1  0  0  0  0 
  1  4  1  0  0  0  0 
  1  5  1  0  0  0  0 
  5  6  1  0  0  0  0 
  5  7  1  0  0  0  0 
  7  8  1  0  0  0  0 
  7  9  1  0  0  0  0 
  7 10  1  0  0  0  0 
  5 11  1  0  0  0  0 
 11 12  1  0  0  0  0 
 11 13  1  0  0  0  0 
 13 14  1  0  0  0  0 
 13 15  1  0  0  0  0 
 15 16  1  0  0  0  0 
 15 17  1  0  0  0  0 
 17 18  1  0  0  0  0 
 17 19  1  0  0  0  0 
 17 20  1  0  0  0  0 
 20 21  1  0  0  0  0 
 21 22  2  0  0  0  0 
 22 23  1  0  0  0  0 
 22 24  1  0  0  0  0 
 24 25  1  0  0  0  0 
 24 26  2  0  0  0  0 
 26 27  1  0  0  0  0 
 27 28  1  0  0  0  0 
 27 29  2  0  0  0  0 
 21 29  1  0  0  0  0 
 29 30  1  0  0  0  0 
 26 31  1  0  0  0  0 
 31 32  1  0  0  0  0 
 31 33  1  0  0  0  0 
 31 34  1  0  0  0  0 
 34 35  2  0  0  0  0 
 34 36  1  0  0  0  0 
 36 37  1  0  0  0  0 
 36 38  1  0  0  0  0 
 15 39  1  0  0  0  0 
 39 40  1  0  0  0  0 
 13 41  1  0  0  0  0 
 41 42  1  0  0  0  0 
M  END
> <Rank>
7

> <Priority_score>
0.136

> <Reaction_type>
aliphatic hydroxylation

> <Parent_ID>
9

> <Parent_InChI>
InChI=1S/C14H22N2O3/c1-10(2)16-8-12(17)9-19-13-5-3-11(4-6-13)7-14(15)18/h3-6,10,12,16-17H,7-9H2,1-2H3,(H2,15,18)

> <Parent_SMILES>
CC(C)NCC(O)COc1ccc(CC(N)=O)cc1

$$$$
Molecule 9_metabolite 9
  CDK     0516241031

 42 42  0  0  0  0  0  0  0  0999 V2000
    5.6086   -0.2217    0.0000 C   0  0  0  0  0  0  0  0  0  0  0  0
    6.9137   -0.9610    0.0000 H   0  0  0  0  0  0  0  0  0  0  0  0
    6.5632    0.9352    0.0000 H   0  0  0  0  0  0  0  0  0  0  0  0
    4.6349    0.9193    0.0000 H   0  0  0  0  0  0  0  0  0  0  0  0
    4.3158   -0.9824    0.0000 C   0  0  0  0  0  0  0  0  0  0  0  0
    3.3611   -2.1394    0.0000 H   0  0  0  0  0  0  0  0  0  0  0  0
    5.2894   -2.1235    0.0000 C   0  0  0  0  0  0  0  0  0  0  0  0
    6.7644   -1.8509    0.0000 H   0  0  0  0  0  0  0  0  0  0  0  0
    3.9966   -2.8842    0.0000 H   0  0  0  0  0  0  0  0  0  0  0  0
    5.8140   -3.5288    0.0000 H   0  0  0  0  0  0  0  0  0  0  0  0
    2.5929   -0.0066    0.0000 N   0  0  0  0  0  0  0  0  0  0  0  0
    1.3001   -0.7673    0.0000 C   0  0  0  0  0  0  0  0  0  0  0  0
    0.3454   -1.9243    0.0000 H   0  0  0  0  0  0  0  0  0  0  0  0
    2.2737   -1.9084    0.0000 H   0  0  0  0  0  0  0  0  0  0  0  0
   -0.4227    0.2085    0.0000 C   0  0  0  0  0  0  0  0  0  0  0  0
    0.5319    1.3655    0.0000 H   0  0  0  0  0  0  0  0  0  0  0  0
   -1.7155   -0.5522    0.0000 C   0  0  0  0  0  0  0  0  0  0  0  0
   -2.6702   -1.7092    0.0000 H   0  0  0  0  0  0  0  0  0  0  0  0
   -0.7419   -1.6933    0.0000 H   0  0  0  0  0  0  0  0  0  0  0  0
   -3.0207    0.1871    0.0000 O   0  0  0  0  0  0  0  0  0  0  0  0
   -4.3135   -0.5736    0.0000 C   0  0  0  0  0  0  0  0  0  0  0  0
   -5.6635    0.1764    0.0000 C   0  0  0  0  0  0  0  0  0  0  0  0
   -5.6833    1.6763    0.0000 H   0  0  0  0  0  0  0  0  0  0  0  0
   -6.9335   -0.5736    0.0000 C   0  0  0  0  0  0  0  0  0  0  0  0
   -8.2362    0.1700    0.0000 H   0  0  0  0  0  0  0  0  0  0  0  0
   -6.9335   -2.0736    0.0000 C   0  0  0  0  0  0  0  0  0  0  0  0
   -5.6635   -2.8236    0.0000 C   0  0  0  0  0  0  0  0  0  0  0  0
   -5.6833   -4.3235    0.0000 H   0  0  0  0  0  0  0  0  0  0  0  0
   -4.3135   -2.0736    0.0000 C   0  0  0  0  0  0  0  0  0  0  0  0
   -3.0207   -2.8343    0.0000 H   0  0  0  0  0  0  0  0  0  0  0  0
   -8.2362   -2.8172    0.0000 C   0  0  0  0  0  0  0  0  0  0  0  0
   -9.2061   -3.9615    0.0000 H   0  0  0  0  0  0  0  0  0  0  0  0
   -7.2777   -3.9710    0.0000 H   0  0  0  0  0  0  0  0  0  0  0  0
   -9.5316   -2.0608    0.0000 C   0  0  0  0  0  0  0  0  0  0  0  0
   -9.5242   -0.5608    0.0000 O   0  0  0  0  0  0  0  0  0  0  0  0
  -10.8343   -2.8044    0.0000 N   0  0  0  0  0  0  0  0  0  0  0  0
  -12.1296   -2.0480    0.0000 H   0  0  0  0  0  0  0  0  0  0  0  0
  -10.8417   -4.3044    0.0000 H   0  0  0  0  0  0  0  0  0  0  0  0
   -1.3964    1.3496    0.0000 O   0  0  0  0  0  0  0  0  0  0  0  0
   -0.8950    2.7633    0.0000 H   0  0  0  0  0  0  0  0  0  0  0  0
    2.5805    1.4933    0.0000 O   0  0  0  0  0  0  0  0  0  0  0  0
    3.8734    2.2540    0.0000 H   0  0  0  0  0  0  0  0  0  0  0  0
  1  2  1  0  0  0  0 
  1  3  1  0  0  0  0 
  1  4  1  0  0  0  0 
  1  5  1  0  0  0  0 
  5  6  1  0  0  0  0 
  5  7  1  0  0  0  0 
  7  8  1  0  0  0  0 
  7  9  1  0  0  0  0 
  7 10  1  0  0  0  0 
  5 11  1  0  0  0  0 
 11 12  1  0  0  0  0 
 12 13  1  0  0  0  0 
 12 14  1  0  0  0  0 
 12 15  1  0  0  0  0 
 15 16  1  0  0  0  0 
 15 17  1  0  0  0  0 
 17 18  1  0  0  0  0 
 17 19  1  0  0  0  0 
 17 20  1  0  0  0  0 
 20 21  1  0  0  0  0 
 21 22  2  0  0  0  0 
 22 23  1  0  0  0  0 
 22 24  1  0  0  0  0 
 24 25  1  0  0  0  0 
 24 26  2  0  0  0  0 
 26 27  1  0  0  0  0 
 27 28  1  0  0  0  0 
 27 29  2  0  0  0  0 
 21 29  1  0  0  0  0 
 29 30  1  0  0  0  0 
 26 31  1  0  0  0  0 
 31 32  1  0  0  0  0 
 31 33  1  0  0  0  0 
 31 34  1  0  0  0  0 
 34 35  2  0  0  0  0 
 34 36  1  0  0  0  0 
 36 37  1  0  0  0  0 
 36 38  1  0  0  0  0 
 15 39  1  0  0  0  0 
 39 40  1  0  0  0  0 
 11 41  1  0  0  0  0 
 41 42  1  0  0  0  0 
M  END
> <Rank>
7

> <Priority_score>
0.136

> <Reaction_type>
amine hydroxylation

> <Parent_ID>
9

> <Parent_InChI>
InChI=1S/C14H22N2O3/c1-10(2)16-8-12(17)9-19-13-5-3-11(4-6-13)7-14(15)18/h3-6,10,12,16-17H,7-9H2,1-2H3,(H2,15,18)

> <Parent_SMILES>
CC(C)NCC(O)COc1ccc(CC(N)=O)cc1

$$$$
Molecule 9_metabolite 10
  CDK     0516241031

 29 29  0  0  0  0  0  0  0  0999 V2000
   -1.3427   -2.5871    0.0000 C   0  0  0  0  0  0  0  0  0  0  0  0
   -1.3625   -4.0869    0.0000 H   0  0  0  0  0  0  0  0  0  0  0  0
   -2.6127   -1.8371    0.0000 C   0  0  0  0  0  0  0  0  0  0  0  0
   -2.6127   -0.3371    0.0000 C   0  0  0  0  0  0  0  0  0  0  0  0
   -3.9154    0.4065    0.0000 H   0  0  0  0  0  0  0  0  0  0  0  0
   -1.3427    0.4129    0.0000 C   0  0  0  0  0  0  0  0  0  0  0  0
   -1.3625    1.9128    0.0000 H   0  0  0  0  0  0  0  0  0  0  0  0
    0.0073   -0.3371    0.0000 C   0  0  0  0  0  0  0  0  0  0  0  0
    0.0073   -1.8371    0.0000 C   0  0  0  0  0  0  0  0  0  0  0  0
    1.3001   -2.5977    0.0000 H   0  0  0  0  0  0  0  0  0  0  0  0
    1.3001    0.4236    0.0000 O   0  0  0  0  0  0  0  0  0  0  0  0
    2.6053   -0.3156    0.0000 C   0  0  0  0  0  0  0  0  0  0  0  0
    1.6506   -1.4726    0.0000 H   0  0  0  0  0  0  0  0  0  0  0  0
    3.5789   -1.4567    0.0000 H   0  0  0  0  0  0  0  0  0  0  0  0
    3.8981    0.4451    0.0000 C   0  0  0  0  0  0  0  0  0  0  0  0
    4.8528    1.6021    0.0000 H   0  0  0  0  0  0  0  0  0  0  0  0
    5.2033   -0.2942    0.0000 C   0  0  0  0  0  0  0  0  0  0  0  0
    6.4961    0.4665    0.0000 H   0  0  0  0  0  0  0  0  0  0  0  0
    5.2157   -1.7941    0.0000 O   0  0  0  0  0  0  0  0  0  0  0  0
    2.9245    1.5861    0.0000 O   0  0  0  0  0  0  0  0  0  0  0  0
    3.4259    2.9999    0.0000 H   0  0  0  0  0  0  0  0  0  0  0  0
   -3.9154   -2.5806    0.0000 C   0  0  0  0  0  0  0  0  0  0  0  0
   -4.8852   -3.7250    0.0000 H   0  0  0  0  0  0  0  0  0  0  0  0
   -2.9569   -3.7344    0.0000 H   0  0  0  0  0  0  0  0  0  0  0  0
   -5.2107   -1.8243    0.0000 C   0  0  0  0  0  0  0  0  0  0  0  0
   -5.2034   -0.3243    0.0000 O   0  0  0  0  0  0  0  0  0  0  0  0
   -6.5135   -2.5679    0.0000 N   0  0  0  0  0  0  0  0  0  0  0  0
   -7.8088   -1.8115    0.0000 H   0  0  0  0  0  0  0  0  0  0  0  0
   -6.5208   -4.0678    0.0000 H   0  0  0  0  0  0  0  0  0  0  0  0
  1  2  1  0  0  0  0 
  1  3  2  0  0  0  0 
  3  4  1  0  0  0  0 
  4  5  1  0  0  0  0 
  4  6  2  0  0  0  0 
  6  7  1  0  0  0  0 
  6  8  1  0  0  0  0 
  8  9  2  0  0  0  0 
  1  9  1  0  0  0  0 
  9 10  1  0  0  0  0 
  8 11  1  0  0  0  0 
 11 12  1  0  0  0  0 
 12 13  1  0  0  0  0 
 12 14  1  0  0  0  0 
 12 15  1  0  0  0  0 
 15 16  1  0  0  0  0 
 15 17  1  0  0  0  0 
 17 18  1  0  0  0  0 
 17 19  2  0  0  0  0 
 15 20  1  0  0  0  0 
 20 21  1  0  0  0  0 
  3 22  1  0  0  0  0 
 22 23  1  0  0  0  0 
 22 24  1  0  0  0  0 
 22 25  1  0  0  0  0 
 25 26  2  0  0  0  0 
 25 27  1  0  0  0  0 
 27 28  1  0  0  0  0 
 27 29  1  0  0  0  0 
M  END
> <Rank>
7

> <Priority_score>
0.136

> <Reaction_type>
N-dealkylation

> <Parent_ID>
9

> <Parent_InChI>
InChI=1S/C14H22N2O3/c1-10(2)16-8-12(17)9-19-13-5-3-11(4-6-13)7-14(15)18/h3-6,10,12,16-17H,7-9H2,1-2H3,(H2,15,18)

> <Parent_SMILES>
CC(C)NCC(O)COc1ccc(CC(N)=O)cc1

$$$$
Molecule 9_metabolite 11
  CDK     0516241031

 31 31  0  0  0  0  0  0  0  0999 V2000
   -5.3048    1.9421    0.0000 C   0  0  0  0  0  0  0  0  0  0  0  0
   -6.6255    2.6532    0.0000 H   0  0  0  0  0  0  0  0  0  0  0  0
   -5.2659    0.4677    0.0000 C   0  0  0  0  0  0  0  0  0  0  0  0
   -3.9547   -0.2608    0.0000 C   0  0  0  0  0  0  0  0  0  0  0  0
   -3.9373   -1.7607    0.0000 H   0  0  0  0  0  0  0  0  0  0  0  0
   -2.6823    0.4852    0.0000 C   0  0  0  0  0  0  0  0  0  0  0  0
   -1.3808   -0.2605    0.0000 H   0  0  0  0  0  0  0  0  0  0  0  0
   -2.6823    2.0295    0.0000 C   0  0  0  0  0  0  0  0  0  0  0  0
   -3.9936    2.7580    0.0000 C   0  0  0  0  0  0  0  0  0  0  0  0
   -4.0307    4.2575    0.0000 H   0  0  0  0  0  0  0  0  0  0  0  0
   -1.3895    2.7902    0.0000 O   0  0  0  0  0  0  0  0  0  0  0  0
   -1.4019    4.2902    0.0000 C   0  0  0  0  0  0  0  0  0  0  0  0
   -2.8769    4.0175    0.0000 H   0  0  0  0  0  0  0  0  0  0  0  0
   -1.9265    5.6954    0.0000 H   0  0  0  0  0  0  0  0  0  0  0  0
   -0.1091    5.0509    0.0000 C   0  0  0  0  0  0  0  0  0  0  0  0
    0.8456    6.2078    0.0000 H   0  0  0  0  0  0  0  0  0  0  0  0
    1.1961    4.3116    0.0000 C   0  0  0  0  0  0  0  0  0  0  0  0
    0.2414    3.1546    0.0000 H   0  0  0  0  0  0  0  0  0  0  0  0
    2.1697    3.1705    0.0000 H   0  0  0  0  0  0  0  0  0  0  0  0
    2.4889    5.0723    0.0000 O   0  0  0  0  0  0  0  0  0  0  0  0
    3.7941    4.3330    0.0000 H   0  0  0  0  0  0  0  0  0  0  0  0
   -1.0827    6.1919    0.0000 O   0  0  0  0  0  0  0  0  0  0  0  0
   -0.5813    7.6057    0.0000 H   0  0  0  0  0  0  0  0  0  0  0  0
   -6.5486   -0.3100    0.0000 C   0  0  0  0  0  0  0  0  0  0  0  0
   -8.0199   -0.6020    0.0000 H   0  0  0  0  0  0  0  0  0  0  0  0
   -7.0917    1.0883    0.0000 H   0  0  0  0  0  0  0  0  0  0  0  0
   -6.5165   -1.8096    0.0000 C   0  0  0  0  0  0  0  0  0  0  0  0
   -5.2017   -2.5316    0.0000 O   0  0  0  0  0  0  0  0  0  0  0  0
   -7.7992   -2.5873    0.0000 N   0  0  0  0  0  0  0  0  0  0  0  0
   -7.7670   -4.0869    0.0000 H   0  0  0  0  0  0  0  0  0  0  0  0
   -9.1140   -1.8653    0.0000 H   0  0  0  0  0  0  0  0  0  0  0  0
  1  2  1  0  0  0  0 
  1  3  2  0  0  0  0 
  3  4  1  0  0  0  0 
  4  5  1  0  0  0  0 
  4  6  2  0  0  0  0 
  6  7  1  0  0  0  0 
  6  8  1  0  0  0  0 
  8  9  2  0  0  0  0 
  1  9  1  0  0  0  0 
  9 10  1  0  0  0  0 
  8 11  1  0  0  0  0 
 11 12  1  0  0  0  0 
 12 13  1  0  0  0  0 
 12 14  1  0  0  0  0 
 12 15  1  0  0  0  0 
 15 16  1  0  0  0  0 
 15 17  1  0  0  0  0 
 17 18  1  0  0  0  0 
 17 19  1  0  0  0  0 
 17 20  1  0  0  0  0 
 20 21  1  0  0  0  0 
 15 22  1  0  0  0  0 
 22 23  1  0  0  0  0 
  3 24  1  0  0  0  0 
 24 25  1  0  0  0  0 
 24 26  1  0  0  0  0 
 24 27  1  0  0  0  0 
 27 28  2  0  0  0  0 
 27 29  1  0  0  0  0 
 29 30  1  0  0  0  0 
 29 31  1  0  0  0  0 
M  END
> <Rank>
7

> <Priority_score>
0.136

> <Reaction_type>
N-dealkylation_(R-NHCH2-alkyl)

> <Parent_ID>
9

> <Parent_InChI>
InChI=1S/C14H22N2O3/c1-10(2)16-8-12(17)9-19-13-5-3-11(4-6-13)7-14(15)18/h3-6,10,12,16-17H,7-9H2,1-2H3,(H2,15,18)

> <Parent_SMILES>
CC(C)NCC(O)COc1ccc(CC(N)=O)cc1

$$$$
Molecule 9_metabolite 12
  CDK     0516241031

 39 39  0  0  0  0  0  0  0  0999 V2000
    2.4889    5.8906    0.0000 C   0  0  0  0  0  0  0  0  0  0  0  0
    3.7941    5.1513    0.0000 H   0  0  0  0  0  0  0  0  0  0  0  0
    3.4436    7.0476    0.0000 H   0  0  0  0  0  0  0  0  0  0  0  0
    1.5153    7.0317    0.0000 H   0  0  0  0  0  0  0  0  0  0  0  0
    1.1961    5.1299    0.0000 C   0  0  0  0  0  0  0  0  0  0  0  0
    0.2414    3.9729    0.0000 H   0  0  0  0  0  0  0  0  0  0  0  0
    2.1697    3.9888    0.0000 C   0  0  0  0  0  0  0  0  0  0  0  0
    3.6447    4.2615    0.0000 H   0  0  0  0  0  0  0  0  0  0  0  0
    0.8769    3.2281    0.0000 H   0  0  0  0  0  0  0  0  0  0  0  0
    2.6944    2.5836    0.0000 H   0  0  0  0  0  0  0  0  0  0  0  0
   -0.5267    6.1057    0.0000 N   0  0  0  0  0  0  0  0  0  0  0  0
   -0.5391    7.6057    0.0000 H   0  0  0  0  0  0  0  0  0  0  0  0
   -1.8195    5.3450    0.0000 C   0  0  0  0  0  0  0  0  0  0  0  0
   -2.7742    4.1880    0.0000 H   0  0  0  0  0  0  0  0  0  0  0  0
   -0.8459    4.2039    0.0000 H   0  0  0  0  0  0  0  0  0  0  0  0
   -3.1247    6.0843    0.0000 C   0  0  0  0  0  0  0  0  0  0  0  0
   -3.1371    7.5842    0.0000 O   0  0  0  0  0  0  0  0  0  0  0  0
   -4.4175    5.3236    0.0000 C   0  0  0  0  0  0  0  0  0  0  0  0
   -5.8925    5.0509    0.0000 H   0  0  0  0  0  0  0  0  0  0  0  0
   -4.9422    6.7288    0.0000 H   0  0  0  0  0  0  0  0  0  0  0  0
   -4.4052    3.8236    0.0000 O   0  0  0  0  0  0  0  0  0  0  0  0
   -5.6980    3.0629    0.0000 C   0  0  0  0  0  0  0  0  0  0  0  0
   -5.6980    1.5186    0.0000 C   0  0  0  0  0  0  0  0  0  0  0  0
   -4.3964    0.7729    0.0000 H   0  0  0  0  0  0  0  0  0  0  0  0
   -6.9703    0.7726    0.0000 C   0  0  0  0  0  0  0  0  0  0  0  0
   -6.9530   -0.7273    0.0000 H   0  0  0  0  0  0  0  0  0  0  0  0
   -8.2816    1.5011    0.0000 C   0  0  0  0  0  0  0  0  0  0  0  0
   -8.3204    2.9755    0.0000 C   0  0  0  0  0  0  0  0  0  0  0  0
   -9.6412    3.6867    0.0000 H   0  0  0  0  0  0  0  0  0  0  0  0
   -7.0092    3.7914    0.0000 C   0  0  0  0  0  0  0  0  0  0  0  0
   -7.0463    5.2909    0.0000 H   0  0  0  0  0  0  0  0  0  0  0  0
   -9.5643    0.7235    0.0000 C   0  0  0  0  0  0  0  0  0  0  0  0
  -11.0356    0.4314    0.0000 H   0  0  0  0  0  0  0  0  0  0  0  0
  -10.1074    2.1217    0.0000 H   0  0  0  0  0  0  0  0  0  0  0  0
   -9.5321   -0.7762    0.0000 C   0  0  0  0  0  0  0  0  0  0  0  0
   -8.2173   -1.4982    0.0000 O   0  0  0  0  0  0  0  0  0  0  0  0
  -10.8148   -1.5539    0.0000 N   0  0  0  0  0  0  0  0  0  0  0  0
  -10.7827   -3.0535    0.0000 H   0  0  0  0  0  0  0  0  0  0  0  0
  -12.1296   -0.8319    0.0000 H   0  0  0  0  0  0  0  0  0  0  0  0
  1  2  1  0  0  0  0 
  1  3  1  0  0  0  0 
  1  4  1  0  0  0  0 
  1  5  1  0  0  0  0 
  5  6  1  0  0  0  0 
  5  7  1  0  0  0  0 
  7  8  1  0  0  0  0 
  7  9  1  0  0  0  0 
  7 10  1  0  0  0  0 
  5 11  1  0  0  0  0 
 11 12  1  0  0  0  0 
 11 13  1  0  0  0  0 
 13 14  1  0  0  0  0 
 13 15  1  0  0  0  0 
 13 16  1  0  0  0  0 
 16 17  2  0  0  0  0 
 16 18  1  0  0  0  0 
 18 19  1  0  0  0  0 
 18 20  1  0  0  0  0 
 18 21  1  0  0  0  0 
 21 22  1  0  0  0  0 
 22 23  2  0  0  0  0 
 23 24  1  0  0  0  0 
 23 25  1  0  0  0  0 
 25 26  1  0  0  0  0 
 25 27  2  0  0  0  0 
 27 28  1  0  0  0  0 
 28 29  1  0  0  0  0 
 28 30  2  0  0  0  0 
 22 30  1  0  0  0  0 
 30 31  1  0  0  0  0 
 27 32  1  0  0  0  0 
 32 33  1  0  0  0  0 
 32 34  1  0  0  0  0 
 32 35  1  0  0  0  0 
 35 36  2  0  0  0  0 
 35 37  1  0  0  0  0 
 37 38  1  0  0  0  0 
 37 39  1  0  0  0  0 
M  END
> <Rank>
7

> <Priority_score>
0.136

> <Reaction_type>
secondary_alcohol_oxidation_(aliphatic)

> <Parent_ID>
9

> <Parent_InChI>
InChI=1S/C14H22N2O3/c1-10(2)16-8-12(17)9-19-13-5-3-11(4-6-13)7-14(15)18/h3-6,10,12,16-17H,7-9H2,1-2H3,(H2,15,18)

> <Parent_SMILES>
CC(C)NCC(O)COc1ccc(CC(N)=O)cc1

$$$$
Molecule 9_metabolite 13
  CDK     0516241031

 42 42  0  0  0  0  0  0  0  0999 V2000
   -7.8459    2.9463    0.0000 C   0  0  0  0  0  0  0  0  0  0  0  0
   -9.1511    3.6855    0.0000 H   0  0  0  0  0  0  0  0  0  0  0  0
   -7.3445    4.3600    0.0000 H   0  0  0  0  0  0  0  0  0  0  0  0
   -6.3666    2.6980    0.0000 H   0  0  0  0  0  0  0  0  0  0  0  0
   -7.8335    1.4463    0.0000 C   0  0  0  0  0  0  0  0  0  0  0  0
   -8.3349    0.0326    0.0000 H   0  0  0  0  0  0  0  0  0  0  0  0
   -9.3128    1.6946    0.0000 C   0  0  0  0  0  0  0  0  0  0  0  0
   -9.8375    3.0999    0.0000 H   0  0  0  0  0  0  0  0  0  0  0  0
   -9.3005    0.1947    0.0000 H   0  0  0  0  0  0  0  0  0  0  0  0
  -10.7879    1.4220    0.0000 H   0  0  0  0  0  0  0  0  0  0  0  0
   -6.5284    0.7071    0.0000 N   0  0  0  0  0  0  0  0  0  0  0  0
   -5.2355    1.4678    0.0000 H   0  0  0  0  0  0  0  0  0  0  0  0
   -6.5120   -1.2729    0.0000 C   0  0  0  0  0  0  0  0  0  0  0  0
   -7.0134   -2.6866    0.0000 H   0  0  0  0  0  0  0  0  0  0  0  0
   -7.9913   -1.0246    0.0000 H   0  0  0  0  0  0  0  0  0  0  0  0
   -5.2068   -2.0121    0.0000 C   0  0  0  0  0  0  0  0  0  0  0  0
   -3.9140   -1.2514    0.0000 C   0  0  0  0  0  0  0  0  0  0  0  0
   -2.9594   -0.0944    0.0000 H   0  0  0  0  0  0  0  0  0  0  0  0
   -4.8877   -0.1103    0.0000 H   0  0  0  0  0  0  0  0  0  0  0  0
   -2.6088   -1.9907    0.0000 O   0  0  0  0  0  0  0  0  0  0  0  0
   -1.3160   -1.2300    0.0000 C   0  0  0  0  0  0  0  0  0  0  0  0
    0.0340   -1.9800    0.0000 C   0  0  0  0  0  0  0  0  0  0  0  0
    0.0537   -3.4799    0.0000 H   0  0  0  0  0  0  0  0  0  0  0  0
    1.3040   -1.2300    0.0000 C   0  0  0  0  0  0  0  0  0  0  0  0
    2.6067   -1.9736    0.0000 H   0  0  0  0  0  0  0  0  0  0  0  0
    1.3040    0.2700    0.0000 C   0  0  0  0  0  0  0  0  0  0  0  0
    0.0340    1.0200    0.0000 C   0  0  0  0  0  0  0  0  0  0  0  0
    0.0537    2.5199    0.0000 H   0  0  0  0  0  0  0  0  0  0  0  0
   -1.3160    0.2700    0.0000 C   0  0  0  0  0  0  0  0  0  0  0  0
   -2.6088    1.0307    0.0000 H   0  0  0  0  0  0  0  0  0  0  0  0
    2.6067    1.0136    0.0000 C   0  0  0  0  0  0  0  0  0  0  0  0
    3.5765    2.1579    0.0000 H   0  0  0  0  0  0  0  0  0  0  0  0
    1.6482    2.1674    0.0000 H   0  0  0  0  0  0  0  0  0  0  0  0
    3.9020    0.2572    0.0000 C   0  0  0  0  0  0  0  0  0  0  0  0
    3.8946   -1.2428    0.0000 O   0  0  0  0  0  0  0  0  0  0  0  0
    5.2047    1.0008    0.0000 N   0  0  0  0  0  0  0  0  0  0  0  0
    6.5000    0.2444    0.0000 H   0  0  0  0  0  0  0  0  0  0  0  0
    5.2121    2.5008    0.0000 H   0  0  0  0  0  0  0  0  0  0  0  0
   -6.1615   -3.1691    0.0000 O   0  0  0  0  0  0  0  0  0  0  0  0
   -5.6369   -4.5743    0.0000 H   0  0  0  0  0  0  0  0  0  0  0  0
   -4.2332   -3.1532    0.0000 O   0  0  0  0  0  0  0  0  0  0  0  0
   -4.7346   -4.5669    0.0000 H   0  0  0  0  0  0  0  0  0  0  0  0
  1  2  1  0  0  0  0 
  1  3  1  0  0  0  0 
  1  4  1  0  0  0  0 
  1  5  1  0  0  0  0 
  5  6  1  0  0  0  0 
  5  7  1  0  0  0  0 
  7  8  1  0  0  0  0 
  7  9  1  0  0  0  0 
  7 10  1  0  0  0  0 
  5 11  1  0  0  0  0 
 11 12  1  0  0  0  0 
 11 13  1  0  0  0  0 
 13 14  1  0  0  0  0 
 13 15  1  0  0  0  0 
 13 16  1  0  0  0  0 
 16 17  1  0  0  0  0 
 17 18  1  0  0  0  0 
 17 19  1  0  0  0  0 
 17 20  1  0  0  0  0 
 20 21  1  0  0  0  0 
 21 22  2  0  0  0  0 
 22 23  1  0  0  0  0 
 22 24  1  0  0  0  0 
 24 25  1  0  0  0  0 
 24 26  2  0  0  0  0 
 26 27  1  0  0  0  0 
 27 28  1  0  0  0  0 
 27 29  2  0  0  0  0 
 21 29  1  0  0  0  0 
 29 30  1  0  0  0  0 
 26 31  1  0  0  0  0 
 31 32  1  0  0  0  0 
 31 33  1  0  0  0  0 
 31 34  1  0  0  0  0 
 34 35  2  0  0  0  0 
 34 36  1  0  0  0  0 
 36 37  1  0  0  0  0 
 36 38  1  0  0  0  0 
 16 39  1  0  0  0  0 
 39 40  1  0  0  0  0 
 16 41  1  0  0  0  0 
 41 42  1  0  0  0  0 
M  END
> <Rank>
13

> <Priority_score>
0.13107326372273786

> <Reaction_type>
aliphatic hydroxylation

> <Parent_ID>
9

> <Parent_InChI>
InChI=1S/C14H22N2O3/c1-10(2)16-8-12(17)9-19-13-5-3-11(4-6-13)7-14(15)18/h3-6,10,12,16-17H,7-9H2,1-2H3,(H2,15,18)

> <Parent_SMILES>
CC(C)NCC(O)COc1ccc(CC(N)=O)cc1

$$$$
Molecule 9_metabolite 14
  CDK     0516241031

 10  9  0  0  0  0  0  0  0  0999 V2000
    2.7109   -0.6849    0.0000 C   0  0  0  0  0  0  0  0  0  0  0  0
    1.4118   -1.4349    0.0000 H   0  0  0  0  0  0  0  0  0  0  0  0
    3.2239   -2.0944    0.0000 H   0  0  0  0  0  0  0  0  0  0  0  0
    4.1881   -0.4244    0.0000 H   0  0  0  0  0  0  0  0  0  0  0  0
    2.7109    0.8151    0.0000 C   0  0  0  0  0  0  0  0  0  0  0  0
    4.0099    1.5651    0.0000 O   0  0  0  0  0  0  0  0  0  0  0  0
    1.4118    1.5651    0.0000 C   0  0  0  0  0  0  0  0  0  0  0  0
    1.4118    3.0651    0.0000 H   0  0  0  0  0  0  0  0  0  0  0  0
    0.8988    0.1556    0.0000 H   0  0  0  0  0  0  0  0  0  0  0  0
   -0.0654    1.8256    0.0000 H   0  0  0  0  0  0  0  0  0  0  0  0
  1  2  1  0  0  0  0 
  1  3  1  0  0  0  0 
  1  4  1  0  0  0  0 
  1  5  1  0  0  0  0 
  5  6  2  0  0  0  0 
  5  7  1  0  0  0  0 
  7  8  1  0  0  0  0 
  7  9  1  0  0  0  0 
  7 10  1  0  0  0  0 
M  END
> <Rank>
14

> <Priority_score>
0.10372671934774776

> <Reaction_type>
N-dealkylation

> <Parent_ID>
9

> <Parent_InChI>
InChI=1S/C14H22N2O3/c1-10(2)16-8-12(17)9-19-13-5-3-11(4-6-13)7-14(15)18/h3-6,10,12,16-17H,7-9H2,1-2H3,(H2,15,18)

> <Parent_SMILES>
CC(C)NCC(O)COc1ccc(CC(N)=O)cc1

$$$$
Molecule 9_metabolite 15
  CDK     0516241031

 32 32  0  0  0  0  0  0  0  0999 V2000
   -3.8241    4.1412    0.0000 C   0  0  0  0  0  0  0  0  0  0  0  0
   -3.8686    5.6406    0.0000 H   0  0  0  0  0  0  0  0  0  0  0  0
   -5.0816    3.3704    0.0000 C   0  0  0  0  0  0  0  0  0  0  0  0
   -5.0568    1.8706    0.0000 C   0  0  0  0  0  0  0  0  0  0  0  0
   -6.3471    1.1056    0.0000 H   0  0  0  0  0  0  0  0  0  0  0  0
   -3.7746    1.1417    0.0000 C   0  0  0  0  0  0  0  0  0  0  0  0
   -3.7696   -0.3583    0.0000 H   0  0  0  0  0  0  0  0  0  0  0  0
   -2.4372    1.9138    0.0000 C   0  0  0  0  0  0  0  0  0  0  0  0
   -2.4619    3.4136    0.0000 C   0  0  0  0  0  0  0  0  0  0  0  0
   -1.1818    4.1955    0.0000 H   0  0  0  0  0  0  0  0  0  0  0  0
   -1.1320    1.1746    0.0000 O   0  0  0  0  0  0  0  0  0  0  0  0
    0.1608    1.9353    0.0000 C   0  0  0  0  0  0  0  0  0  0  0  0
   -0.8128    3.0763    0.0000 H   0  0  0  0  0  0  0  0  0  0  0  0
    1.1155    3.0922    0.0000 H   0  0  0  0  0  0  0  0  0  0  0  0
    1.4660    1.1960    0.0000 C   0  0  0  0  0  0  0  0  0  0  0  0
    2.9453    0.9477    0.0000 H   0  0  0  0  0  0  0  0  0  0  0  0
    1.4784   -0.3039    0.0000 C   0  0  0  0  0  0  0  0  0  0  0  0
   -0.0009   -0.0557    0.0000 H   0  0  0  0  0  0  0  0  0  0  0  0
    0.9770   -1.7177    0.0000 H   0  0  0  0  0  0  0  0  0  0  0  0
    2.7836   -1.0432    0.0000 N   0  0  0  0  0  0  0  0  0  0  0  0
    2.7959   -2.5431    0.0000 H   0  0  0  0  0  0  0  0  0  0  0  0
    4.0764   -0.2825    0.0000 H   0  0  0  0  0  0  0  0  0  0  0  0
    1.9674    2.6097    0.0000 O   0  0  0  0  0  0  0  0  0  0  0  0
    3.4424    2.8824    0.0000 H   0  0  0  0  0  0  0  0  0  0  0  0
   -6.3964    4.0924    0.0000 C   0  0  0  0  0  0  0  0  0  0  0  0
   -7.3849    5.2205    0.0000 H   0  0  0  0  0  0  0  0  0  0  0  0
   -5.4570    5.2619    0.0000 H   0  0  0  0  0  0  0  0  0  0  0  0
   -7.6790    3.3147    0.0000 C   0  0  0  0  0  0  0  0  0  0  0  0
   -7.6469    1.8151    0.0000 O   0  0  0  0  0  0  0  0  0  0  0  0
   -8.9938    4.0367    0.0000 N   0  0  0  0  0  0  0  0  0  0  0  0
  -10.2765    3.2591    0.0000 H   0  0  0  0  0  0  0  0  0  0  0  0
   -9.0260    5.5364    0.0000 H   0  0  0  0  0  0  0  0  0  0  0  0
  1  2  1  0  0  0  0 
  1  3  2  0  0  0  0 
  3  4  1  0  0  0  0 
  4  5  1  0  0  0  0 
  4  6  2  0  0  0  0 
  6  7  1  0  0  0  0 
  6  8  1  0  0  0  0 
  8  9  2  0  0  0  0 
  1  9  1  0  0  0  0 
  9 10  1  0  0  0  0 
  8 11  1  0  0  0  0 
 11 12  1  0  0  0  0 
 12 13  1  0  0  0  0 
 12 14  1  0  0  0  0 
 12 15  1  0  0  0  0 
 15 16  1  0  0  0  0 
 15 17  1  0  0  0  0 
 17 18  1  0  0  0  0 
 17 19  1  0  0  0  0 
 17 20  1  0  0  0  0 
 20 21  1  0  0  0  0 
 20 22  1  0  0  0  0 
 15 23  1  0  0  0  0 
 23 24  1  0  0  0  0 
  3 25  1  0  0  0  0 
 25 26  1  0  0  0  0 
 25 27  1  0  0  0  0 
 25 28  1  0  0  0  0 
 28 29  2  0  0  0  0 
 28 30  1  0  0  0  0 
 30 31  1  0  0  0  0 
 30 32  1  0  0  0  0 
M  END
> <Rank>
14

> <Priority_score>
0.10372671934774776

> <Reaction_type>
N-depropylation

> <Parent_ID>
9

> <Parent_InChI>
InChI=1S/C14H22N2O3/c1-10(2)16-8-12(17)9-19-13-5-3-11(4-6-13)7-14(15)18/h3-6,10,12,16-17H,7-9H2,1-2H3,(H2,15,18)

> <Parent_SMILES>
CC(C)NCC(O)COc1ccc(CC(N)=O)cc1

$$$$
Molecule 9_metabolite 16
  CDK     0516241031

 42 42  0  0  0  0  0  0  0  0999 V2000
    2.9026    5.5806    0.0000 C   0  0  0  0  0  0  0  0  0  0  0  0
    4.2078    4.8413    0.0000 H   0  0  0  0  0  0  0  0  0  0  0  0
    3.8573    6.7376    0.0000 H   0  0  0  0  0  0  0  0  0  0  0  0
    1.9290    6.7216    0.0000 H   0  0  0  0  0  0  0  0  0  0  0  0
    1.6098    4.8199    0.0000 C   0  0  0  0  0  0  0  0  0  0  0  0
    0.6551    3.6629    0.0000 C   0  0  0  0  0  0  0  0  0  0  0  0
   -0.8242    3.9112    0.0000 H   0  0  0  0  0  0  0  0  0  0  0  0
    1.9603    2.9236    0.0000 H   0  0  0  0  0  0  0  0  0  0  0  0
    0.1537    2.2492    0.0000 H   0  0  0  0  0  0  0  0  0  0  0  0
    0.3046    5.5591    0.0000 N   0  0  0  0  0  0  0  0  0  0  0  0
    0.2922    7.0591    0.0000 H   0  0  0  0  0  0  0  0  0  0  0  0
   -1.4019    4.5550    0.0000 C   0  0  0  0  0  0  0  0  0  0  0  0
   -2.3566    3.3980    0.0000 H   0  0  0  0  0  0  0  0  0  0  0  0
   -0.8772    3.1498    0.0000 H   0  0  0  0  0  0  0  0  0  0  0  0
   -2.7071    5.2943    0.0000 C   0  0  0  0  0  0  0  0  0  0  0  0
   -1.7524    6.4513    0.0000 H   0  0  0  0  0  0  0  0  0  0  0  0
   -3.9999    4.5336    0.0000 C   0  0  0  0  0  0  0  0  0  0  0  0
   -5.4749    4.2609    0.0000 H   0  0  0  0  0  0  0  0  0  0  0  0
   -4.5245    5.9388    0.0000 H   0  0  0  0  0  0  0  0  0  0  0  0
   -3.9875    3.0336    0.0000 O   0  0  0  0  0  0  0  0  0  0  0  0
   -5.2803    2.2729    0.0000 C   0  0  0  0  0  0  0  0  0  0  0  0
   -5.2803    0.7286    0.0000 C   0  0  0  0  0  0  0  0  0  0  0  0
   -3.9788   -0.0171    0.0000 H   0  0  0  0  0  0  0  0  0  0  0  0
   -6.5527   -0.0173    0.0000 C   0  0  0  0  0  0  0  0  0  0  0  0
   -6.5353   -1.5172    0.0000 H   0  0  0  0  0  0  0  0  0  0  0  0
   -7.8639    0.7111    0.0000 C   0  0  0  0  0  0  0  0  0  0  0  0
   -7.9028    2.1855    0.0000 C   0  0  0  0  0  0  0  0  0  0  0  0
   -9.2235    2.8967    0.0000 H   0  0  0  0  0  0  0  0  0  0  0  0
   -6.5915    3.0014    0.0000 C   0  0  0  0  0  0  0  0  0  0  0  0
   -6.6287    4.5010    0.0000 H   0  0  0  0  0  0  0  0  0  0  0  0
   -9.1466   -0.0665    0.0000 C   0  0  0  0  0  0  0  0  0  0  0  0
  -10.6179   -0.3586    0.0000 H   0  0  0  0  0  0  0  0  0  0  0  0
   -9.6897    1.3317    0.0000 H   0  0  0  0  0  0  0  0  0  0  0  0
   -9.1145   -1.5662    0.0000 C   0  0  0  0  0  0  0  0  0  0  0  0
   -7.7997   -2.2882    0.0000 O   0  0  0  0  0  0  0  0  0  0  0  0
  -10.3971   -2.3438    0.0000 N   0  0  0  0  0  0  0  0  0  0  0  0
  -10.3650   -3.8435    0.0000 H   0  0  0  0  0  0  0  0  0  0  0  0
  -11.7120   -1.6218    0.0000 H   0  0  0  0  0  0  0  0  0  0  0  0
   -3.6807    6.4354    0.0000 O   0  0  0  0  0  0  0  0  0  0  0  0
   -3.1793    7.8491    0.0000 H   0  0  0  0  0  0  0  0  0  0  0  0
    2.5834    3.6788    0.0000 O   0  0  0  0  0  0  0  0  0  0  0  0
    4.0584    3.9515    0.0000 H   0  0  0  0  0  0  0  0  0  0  0  0
  1  2  1  0  0  0  0 
  1  3  1  0  0  0  0 
  1  4  1  0  0  0  0 
  1  5  1  0  0  0  0 
  5  6  1  0  0  0  0 
  6  7  1  0  0  0  0 
  6  8  1  0  0  0  0 
  6  9  1  0  0  0  0 
  5 10  1  0  0  0  0 
 10 11  1  0  0  0  0 
 10 12  1  0  0  0  0 
 12 13  1  0  0  0  0 
 12 14  1  0  0  0  0 
 12 15  1  0  0  0  0 
 15 16  1  0  0  0  0 
 15 17  1  0  0  0  0 
 17 18  1  0  0  0  0 
 17 19  1  0  0  0  0 
 17 20  1  0  0  0  0 
 20 21  1  0  0  0  0 
 21 22  2  0  0  0  0 
 22 23  1  0  0  0  0 
 22 24  1  0  0  0  0 
 24 25  1  0  0  0  0 
 24 26  2  0  0  0  0 
 26 27  1  0  0  0  0 
 27 28  1  0  0  0  0 
 27 29  2  0  0  0  0 
 21 29  1  0  0  0  0 
 29 30  1  0  0  0  0 
 26 31  1  0  0  0  0 
 31 32  1  0  0  0  0 
 31 33  1  0  0  0  0 
 31 34  1  0  0  0  0 
 34 35  2  0  0  0  0 
 34 36  1  0  0  0  0 
 36 37  1  0  0  0  0 
 36 38  1  0  0  0  0 
 15 39  1  0  0  0  0 
 39 40  1  0  0  0  0 
  5 41  1  0  0  0  0 
 41 42  1  0  0  0  0 
M  END
> <Rank>
14

> <Priority_score>
0.10372671934774776

> <Reaction_type>
aliphatic_hydroxylation_(tert_carbon_linked_to_two_CH3_groups)

> <Parent_ID>
9

> <Parent_InChI>
InChI=1S/C14H22N2O3/c1-10(2)16-8-12(17)9-19-13-5-3-11(4-6-13)7-14(15)18/h3-6,10,12,16-17H,7-9H2,1-2H3,(H2,15,18)

> <Parent_SMILES>
CC(C)NCC(O)COc1ccc(CC(N)=O)cc1

$$$$
Molecule 9_metabolite 17
  CDK     0516241031

 42 42  0  0  0  0  0  0  0  0999 V2000
   -4.6692    2.2599    0.0000 C   0  0  0  0  0  0  0  0  0  0  0  0
   -5.9681    3.0101    0.0000 H   0  0  0  0  0  0  0  0  0  0  0  0
   -3.7052    1.1106    0.0000 H   0  0  0  0  0  0  0  0  0  0  0  0
   -5.6335    1.1110    0.0000 H   0  0  0  0  0  0  0  0  0  0  0  0
   -3.3700    3.0097    0.0000 C   0  0  0  0  0  0  0  0  0  0  0  0
   -2.8572    1.6000    0.0000 H   0  0  0  0  0  0  0  0  0  0  0  0
   -1.8928    3.2699    0.0000 C   0  0  0  0  0  0  0  0  0  0  0  0
   -1.3795    4.6794    0.0000 H   0  0  0  0  0  0  0  0  0  0  0  0
   -0.4156    3.0092    0.0000 H   0  0  0  0  0  0  0  0  0  0  0  0
   -1.8930    1.7699    0.0000 H   0  0  0  0  0  0  0  0  0  0  0  0
   -3.3698    4.5097    0.0000 N   0  0  0  0  0  0  0  0  0  0  0  0
   -2.0706    5.2595    0.0000 H   0  0  0  0  0  0  0  0  0  0  0  0
   -5.0844    5.4999    0.0000 C   0  0  0  0  0  0  0  0  0  0  0  0
   -5.5976    4.0905    0.0000 H   0  0  0  0  0  0  0  0  0  0  0  0
   -6.5615    5.7606    0.0000 H   0  0  0  0  0  0  0  0  0  0  0  0
   -5.0841    6.9999    0.0000 C   0  0  0  0  0  0  0  0  0  0  0  0
   -4.5709    8.4094    0.0000 H   0  0  0  0  0  0  0  0  0  0  0  0
   -6.3830    7.7501    0.0000 C   0  0  0  0  0  0  0  0  0  0  0  0
   -5.4187    8.8991    0.0000 H   0  0  0  0  0  0  0  0  0  0  0  0
   -7.3470    8.8994    0.0000 H   0  0  0  0  0  0  0  0  0  0  0  0
   -7.6822    7.0004    0.0000 O   0  0  0  0  0  0  0  0  0  0  0  0
   -8.9811    7.7506    0.0000 C   0  0  0  0  0  0  0  0  0  0  0  0
  -10.2811    7.0006    0.0000 C   0  0  0  0  0  0  0  0  0  0  0  0
  -10.2811    5.5006    0.0000 H   0  0  0  0  0  0  0  0  0  0  0  0
  -11.5811    7.7506    0.0000 C   0  0  0  0  0  0  0  0  0  0  0  0
  -12.8800    7.0004    0.0000 H   0  0  0  0  0  0  0  0  0  0  0  0
  -11.5811    9.2506    0.0000 C   0  0  0  0  0  0  0  0  0  0  0  0
  -12.8800   10.0008    0.0000 C   0  0  0  0  0  0  0  0  0  0  0  0
  -11.9157   11.1497    0.0000 H   0  0  0  0  0  0  0  0  0  0  0  0
  -13.8440   11.1500    0.0000 H   0  0  0  0  0  0  0  0  0  0  0  0
  -14.1792    9.2510    0.0000 C   0  0  0  0  0  0  0  0  0  0  0  0
  -14.1794    7.7510    0.0000 O   0  0  0  0  0  0  0  0  0  0  0  0
  -15.4781   10.0012    0.0000 N   0  0  0  0  0  0  0  0  0  0  0  0
  -16.7773    9.2514    0.0000 H   0  0  0  0  0  0  0  0  0  0  0  0
  -15.4779   11.5012    0.0000 H   0  0  0  0  0  0  0  0  0  0  0  0
  -10.2811   10.0006    0.0000 C   0  0  0  0  0  0  0  0  0  0  0  0
   -8.9811    9.2506    0.0000 C   0  0  0  0  0  0  0  0  0  0  0  0
   -7.6822   10.0008    0.0000 H   0  0  0  0  0  0  0  0  0  0  0  0
  -10.2811   11.5006    0.0000 O   0  0  0  0  0  0  0  0  0  0  0  0
  -11.5801   12.2506    0.0000 H   0  0  0  0  0  0  0  0  0  0  0  0
   -3.6069    6.7392    0.0000 O   0  0  0  0  0  0  0  0  0  0  0  0
   -2.6426    7.8881    0.0000 H   0  0  0  0  0  0  0  0  0  0  0  0
  1  2  1  0  0  0  0 
  1  3  1  0  0  0  0 
  1  4  1  0  0  0  0 
  1  5  1  0  0  0  0 
  5  6  1  0  0  0  0 
  5  7  1  0  0  0  0 
  7  8  1  0  0  0  0 
  7  9  1  0  0  0  0 
  7 10  1  0  0  0  0 
  5 11  1  0  0  0  0 
 11 12  1  0  0  0  0 
 11 13  1  0  0  0  0 
 13 14  1  0  0  0  0 
 13 15  1  0  0  0  0 
 13 16  1  0  0  0  0 
 16 17  1  0  0  0  0 
 16 18  1  0  0  0  0 
 18 19  1  0  0  0  0 
 18 20  1  0  0  0  0 
 18 21  1  0  0  0  0 
 21 22  1  0  0  0  0 
 22 23  2  0  0  0  0 
 23 24  1  0  0  0  0 
 23 25  1  0  0  0  0 
 25 26  1  0  0  0  0 
 25 27  2  0  0  0  0 
 27 28  1  0  0  0  0 
 28 29  1  0  0  0  0 
 28 30  1  0  0  0  0 
 28 31  1  0  0  0  0 
 31 32  2  0  0  0  0 
 31 33  1  0  0  0  0 
 33 34  1  0  0  0  0 
 33 35  1  0  0  0  0 
 27 36  1  0  0  0  0 
 36 37  2  0  0  0  0 
 22 37  1  0  0  0  0 
 37 38  1  0  0  0  0 
 36 39  1  0  0  0  0 
 39 40  1  0  0  0  0 
 16 41  1  0  0  0  0 
 41 42  1  0  0  0  0 
M  END
> <Rank>
17

> <Priority_score>
0.07160668037821331

> <Reaction_type>
aromatic hydroxylation

> <Parent_ID>
9

> <Parent_InChI>
InChI=1S/C14H22N2O3/c1-10(2)16-8-12(17)9-19-13-5-3-11(4-6-13)7-14(15)18/h3-6,10,12,16-17H,7-9H2,1-2H3,(H2,15,18)

> <Parent_SMILES>
CC(C)NCC(O)COc1ccc(CC(N)=O)cc1

$$$$
Molecule 9_metabolite 18
  CDK     0516241031

 42 42  0  0  0  0  0  0  0  0999 V2000
   -7.9869  -12.0014    0.0000 C   0  0  0  0  0  0  0  0  0  0  0  0
   -6.6879  -11.2514    0.0000 H   0  0  0  0  0  0  0  0  0  0  0  0
   -9.4641  -12.2619    0.0000 H   0  0  0  0  0  0  0  0  0  0  0  0
   -8.4999  -10.5919    0.0000 H   0  0  0  0  0  0  0  0  0  0  0  0
   -7.9869  -13.5014    0.0000 C   0  0  0  0  0  0  0  0  0  0  0  0
   -9.4641  -13.2409    0.0000 H   0  0  0  0  0  0  0  0  0  0  0  0
   -8.4999  -14.9109    0.0000 C   0  0  0  0  0  0  0  0  0  0  0  0
   -7.5357  -16.0600    0.0000 H   0  0  0  0  0  0  0  0  0  0  0  0
   -9.4641  -16.0600    0.0000 H   0  0  0  0  0  0  0  0  0  0  0  0
   -9.7990  -14.1609    0.0000 H   0  0  0  0  0  0  0  0  0  0  0  0
   -6.6879  -14.2514    0.0000 N   0  0  0  0  0  0  0  0  0  0  0  0
   -6.6879  -15.7514    0.0000 H   0  0  0  0  0  0  0  0  0  0  0  0
   -4.9731  -13.2614    0.0000 C   0  0  0  0  0  0  0  0  0  0  0  0
   -5.9373  -12.1123    0.0000 H   0  0  0  0  0  0  0  0  0  0  0  0
   -4.0089  -12.1123    0.0000 H   0  0  0  0  0  0  0  0  0  0  0  0
   -3.6741  -14.0114    0.0000 C   0  0  0  0  0  0  0  0  0  0  0  0
   -2.7099  -15.1605    0.0000 H   0  0  0  0  0  0  0  0  0  0  0  0
   -2.3750  -13.2614    0.0000 C   0  0  0  0  0  0  0  0  0  0  0  0
   -1.8620  -14.6709    0.0000 H   0  0  0  0  0  0  0  0  0  0  0  0
   -0.8978  -13.0009    0.0000 H   0  0  0  0  0  0  0  0  0  0  0  0
   -2.3750  -11.7614    0.0000 O   0  0  0  0  0  0  0  0  0  0  0  0
   -1.0760  -11.0114    0.0000 C   0  0  0  0  0  0  0  0  0  0  0  0
   -1.0765   -9.5106    0.0000 C   0  0  0  0  0  0  0  0  0  0  0  0
   -2.3756   -8.7608    0.0000 H   0  0  0  0  0  0  0  0  0  0  0  0
    0.2225   -8.7606    0.0000 C   0  0  0  0  0  0  0  0  0  0  0  0
    0.2228   -7.2606    0.0000 H   0  0  0  0  0  0  0  0  0  0  0  0
    1.5221   -9.5114    0.0000 C   0  0  0  0  0  0  0  0  0  0  0  0
    1.5225  -11.0122    0.0000 C   0  0  0  0  0  0  0  0  0  0  0  0
    2.8217  -11.7620    0.0000 H   0  0  0  0  0  0  0  0  0  0  0  0
    0.2235  -11.7622    0.0000 C   0  0  0  0  0  0  0  0  0  0  0  0
    0.2233  -13.2622    0.0000 O   0  0  0  0  0  0  0  0  0  0  0  0
    1.5222  -14.0124    0.0000 H   0  0  0  0  0  0  0  0  0  0  0  0
    2.8211   -8.7614    0.0000 C   0  0  0  0  0  0  0  0  0  0  0  0
    3.3341  -10.1709    0.0000 H   0  0  0  0  0  0  0  0  0  0  0  0
    4.2983   -8.5009    0.0000 H   0  0  0  0  0  0  0  0  0  0  0  0
    2.8211   -7.2614    0.0000 C   0  0  0  0  0  0  0  0  0  0  0  0
    1.5221   -6.5114    0.0000 O   0  0  0  0  0  0  0  0  0  0  0  0
    4.1201   -6.5114    0.0000 N   0  0  0  0  0  0  0  0  0  0  0  0
    4.1201   -5.0114    0.0000 H   0  0  0  0  0  0  0  0  0  0  0  0
    5.4192   -7.2614    0.0000 H   0  0  0  0  0  0  0  0  0  0  0  0
   -4.6383  -15.1605    0.0000 O   0  0  0  0  0  0  0  0  0  0  0  0
   -4.1252  -16.5700    0.0000 H   0  0  0  0  0  0  0  0  0  0  0  0
  1  2  1  0  0  0  0 
  1  3  1  0  0  0  0 
  1  4  1  0  0  0  0 
  1  5  1  0  0  0  0 
  5  6  1  0  0  0  0 
  5  7  1  0  0  0  0 
  7  8  1  0  0  0  0 
  7  9  1  0  0  0  0 
  7 10  1  0  0  0  0 
  5 11  1  0  0  0  0 
 11 12  1  0  0  0  0 
 11 13  1  0  0  0  0 
 13 14  1  0  0  0  0 
 13 15  1  0  0  0  0 
 13 16  1  0  0  0  0 
 16 17  1  0  0  0  0 
 16 18  1  0  0  0  0 
 18 19  1  0  0  0  0 
 18 20  1  0  0  0  0 
 18 21  1  0  0  0  0 
 21 22  1  0  0  0  0 
 22 23  2  0  0  0  0 
 23 24  1  0  0  0  0 
 23 25  1  0  0  0  0 
 25 26  1  0  0  0  0 
 25 27  2  0  0  0  0 
 27 28  1  0  0  0  0 
 28 29  1  0  0  0  0 
 28 30  2  0  0  0  0 
 22 30  1  0  0  0  0 
 30 31  1  0  0  0  0 
 31 32  1  0  0  0  0 
 27 33  1  0  0  0  0 
 33 34  1  0  0  0  0 
 33 35  1  0  0  0  0 
 33 36  1  0  0  0  0 
 36 37  2  0  0  0  0 
 36 38  1  0  0  0  0 
 38 39  1  0  0  0  0 
 38 40  1  0  0  0  0 
 16 41  1  0  0  0  0 
 41 42  1  0  0  0  0 
M  END
> <Rank>
17

> <Priority_score>
0.07160668037821331

> <Reaction_type>
aromatic_hydroxylation_(ortho_to_oxygen)

> <Parent_ID>
9

> <Parent_InChI>
InChI=1S/C14H22N2O3/c1-10(2)16-8-12(17)9-19-13-5-3-11(4-6-13)7-14(15)18/h3-6,10,12,16-17H,7-9H2,1-2H3,(H2,15,18)

> <Parent_SMILES>
CC(C)NCC(O)COc1ccc(CC(N)=O)cc1

$$$$
Molecule 9_metabolite 19
  CDK     0516241031

 23 22  0  0  0  0  0  0  0  0999 V2000
    0.4677   -0.7500    0.0000 C   0  0  0  0  0  0  0  0  0  0  0  0
   -0.8314    0.0000    0.0000 H   0  0  0  0  0  0  0  0  0  0  0  0
   -0.4965   -1.8991    0.0000 H   0  0  0  0  0  0  0  0  0  0  0  0
    1.4318   -1.8991    0.0000 H   0  0  0  0  0  0  0  0  0  0  0  0
    1.7667    0.0000    0.0000 C   0  0  0  0  0  0  0  0  0  0  0  0
    2.7309    1.1491    0.0000 H   0  0  0  0  0  0  0  0  0  0  0  0
    0.8025    1.1491    0.0000 C   0  0  0  0  0  0  0  0  0  0  0  0
   -0.6747    0.8886    0.0000 H   0  0  0  0  0  0  0  0  0  0  0  0
    2.1015    1.8991    0.0000 H   0  0  0  0  0  0  0  0  0  0  0  0
    0.2895    2.5586    0.0000 H   0  0  0  0  0  0  0  0  0  0  0  0
    3.4814   -0.9900    0.0000 N   0  0  0  0  0  0  0  0  0  0  0  0
    3.4814   -2.4900    0.0000 H   0  0  0  0  0  0  0  0  0  0  0  0
    4.7805   -0.2400    0.0000 C   0  0  0  0  0  0  0  0  0  0  0  0
    5.7446    0.9091    0.0000 H   0  0  0  0  0  0  0  0  0  0  0  0
    3.8163    0.9091    0.0000 H   0  0  0  0  0  0  0  0  0  0  0  0
    6.0795   -0.9900    0.0000 C   0  0  0  0  0  0  0  0  0  0  0  0
    5.1153   -2.1391    0.0000 H   0  0  0  0  0  0  0  0  0  0  0  0
    7.7942   -0.0000    0.0000 C   0  0  0  0  0  0  0  0  0  0  0  0
    9.0933   -0.7500    0.0000 H   0  0  0  0  0  0  0  0  0  0  0  0
    8.7584    1.1491    0.0000 H   0  0  0  0  0  0  0  0  0  0  0  0
    6.8300    1.1491    0.0000 H   0  0  0  0  0  0  0  0  0  0  0  0
    7.0437   -2.1391    0.0000 O   0  0  0  0  0  0  0  0  0  0  0  0
    8.5209   -1.8786    0.0000 H   0  0  0  0  0  0  0  0  0  0  0  0
  1  2  1  0  0  0  0 
  1  3  1  0  0  0  0 
  1  4  1  0  0  0  0 
  1  5  1  0  0  0  0 
  5  6  1  0  0  0  0 
  5  7  1  0  0  0  0 
  7  8  1  0  0  0  0 
  7  9  1  0  0  0  0 
  7 10  1  0  0  0  0 
  5 11  1  0  0  0  0 
 11 12  1  0  0  0  0 
 11 13  1  0  0  0  0 
 13 14  1  0  0  0  0 
 13 15  1  0  0  0  0 
 13 16  1  0  0  0  0 
 16 17  1  0  0  0  0 
 16 18  1  0  0  0  0 
 18 19  1  0  0  0  0 
 18 20  1  0  0  0  0 
 18 21  1  0  0  0  0 
 16 22  1  0  0  0  0 
 22 23  1  0  0  0  0 
M  END
> <Rank>
19

> <Priority_score>
0.038400000000000004

> <Reaction_type>
oxidation of 4-substituted anisole to quinone (substituent not a leaving group)

> <Parent_ID>
9

> <Parent_InChI>
InChI=1S/C14H22N2O3/c1-10(2)16-8-12(17)9-19-13-5-3-11(4-6-13)7-14(15)18/h3-6,10,12,16-17H,7-9H2,1-2H3,(H2,15,18)

> <Parent_SMILES>
CC(C)NCC(O)COc1ccc(CC(N)=O)cc1

$$$$
Molecule 9_metabolite 20
  CDK     0516241031

 21 21  0  0  0  0  0  0  0  0999 V2000
    4.4680   -0.2014    0.0000 C   0  0  0  0  0  0  0  0  0  0  0  0
    5.7669   -0.9516    0.0000 H   0  0  0  0  0  0  0  0  0  0  0  0
    3.1680   -0.9514    0.0000 C   0  0  0  0  0  0  0  0  0  0  0  0
    3.1680   -2.4514    0.0000 H   0  0  0  0  0  0  0  0  0  0  0  0
    1.8680   -0.2014    0.0000 C   0  0  0  0  0  0  0  0  0  0  0  0
    1.8680    1.2986    0.0000 C   0  0  0  0  0  0  0  0  0  0  0  0
    0.1535    2.2889    0.0000 H   0  0  0  0  0  0  0  0  0  0  0  0
    3.1680    2.0486    0.0000 C   0  0  0  0  0  0  0  0  0  0  0  0
    3.1680    3.5486    0.0000 H   0  0  0  0  0  0  0  0  0  0  0  0
    4.4680    1.2986    0.0000 C   0  0  0  0  0  0  0  0  0  0  0  0
    5.7669    2.0488    0.0000 O   0  0  0  0  0  0  0  0  0  0  0  0
    0.3908    0.0589    0.0000 C   0  0  0  0  0  0  0  0  0  0  0  0
    0.9037    1.4685    0.0000 H   0  0  0  0  0  0  0  0  0  0  0  0
   -0.9083    0.8088    0.0000 H   0  0  0  0  0  0  0  0  0  0  0  0
   -0.5733   -1.0903    0.0000 C   0  0  0  0  0  0  0  0  0  0  0  0
   -0.0601   -2.4998    0.0000 O   0  0  0  0  0  0  0  0  0  0  0  0
   -2.0505   -0.8300    0.0000 N   0  0  0  0  0  0  0  0  0  0  0  0
   -3.0146   -1.9791    0.0000 H   0  0  0  0  0  0  0  0  0  0  0  0
   -2.5637    0.5795    0.0000 H   0  0  0  0  0  0  0  0  0  0  0  0
    1.3553   -1.6111    0.0000 O   0  0  0  0  0  0  0  0  0  0  0  0
    2.3197   -2.7599    0.0000 H   0  0  0  0  0  0  0  0  0  0  0  0
  1  2  1  0  0  0  0 
  1  3  2  0  0  0  0 
  3  4  1  0  0  0  0 
  3  5  1  0  0  0  0 
  5  6  1  0  0  0  0 
  6  7  1  0  0  0  0 
  6  8  2  0  0  0  0 
  8  9  1  0  0  0  0 
  8 10  1  0  0  0  0 
  1 10  1  0  0  0  0 
 10 11  2  0  0  0  0 
  5 12  1  0  0  0  0 
 12 13  1  0  0  0  0 
 12 14  1  0  0  0  0 
 12 15  1  0  0  0  0 
 15 16  2  0  0  0  0 
 15 17  1  0  0  0  0 
 17 18  1  0  0  0  0 
 17 19  1  0  0  0  0 
  5 20  1  0  0  0  0 
 20 21  1  0  0  0  0 
M  END
> <Rank>
19

> <Priority_score>
0.038400000000000004

> <Reaction_type>
oxidation of 4-substituted anisole to quinone (substituent not a leaving group)

> <Parent_ID>
9

> <Parent_InChI>
InChI=1S/C14H22N2O3/c1-10(2)16-8-12(17)9-19-13-5-3-11(4-6-13)7-14(15)18/h3-6,10,12,16-17H,7-9H2,1-2H3,(H2,15,18)

> <Parent_SMILES>
CC(C)NCC(O)COc1ccc(CC(N)=O)cc1

$$$$
Molecule 9_metabolite 21
  CDK     0516241031

 39 39  0  0  0  0  0  0  0  0999 V2000
  -10.4068   -1.5750    0.0000 C   0  0  0  0  0  0  0  0  0  0  0  0
  -11.7120   -0.8357    0.0000 H   0  0  0  0  0  0  0  0  0  0  0  0
  -11.3614   -2.7320    0.0000 H   0  0  0  0  0  0  0  0  0  0  0  0
   -9.4331   -2.7161    0.0000 H   0  0  0  0  0  0  0  0  0  0  0  0
   -9.1140   -0.8143    0.0000 C   0  0  0  0  0  0  0  0  0  0  0  0
   -8.1593    0.3427    0.0000 H   0  0  0  0  0  0  0  0  0  0  0  0
  -10.0876    0.3268    0.0000 C   0  0  0  0  0  0  0  0  0  0  0  0
  -11.5626    0.0541    0.0000 H   0  0  0  0  0  0  0  0  0  0  0  0
   -8.7948    1.0875    0.0000 H   0  0  0  0  0  0  0  0  0  0  0  0
  -10.6122    1.7320    0.0000 H   0  0  0  0  0  0  0  0  0  0  0  0
   -7.8088   -1.5536    0.0000 N   0  0  0  0  0  0  0  0  0  0  0  0
   -6.5160   -0.7929    0.0000 C   0  0  0  0  0  0  0  0  0  0  0  0
   -6.5284    0.7071    0.0000 H   0  0  0  0  0  0  0  0  0  0  0  0
   -5.2108   -1.5321    0.0000 C   0  0  0  0  0  0  0  0  0  0  0  0
   -6.1655   -2.6891    0.0000 H   0  0  0  0  0  0  0  0  0  0  0  0
   -3.9180   -0.7714    0.0000 C   0  0  0  0  0  0  0  0  0  0  0  0
   -2.9633    0.3855    0.0000 H   0  0  0  0  0  0  0  0  0  0  0  0
   -4.8916    0.3696    0.0000 H   0  0  0  0  0  0  0  0  0  0  0  0
   -2.6128   -1.5107    0.0000 O   0  0  0  0  0  0  0  0  0  0  0  0
   -1.3200   -0.7500    0.0000 C   0  0  0  0  0  0  0  0  0  0  0  0
    0.0300   -1.5000    0.0000 C   0  0  0  0  0  0  0  0  0  0  0  0
    0.0498   -2.9999    0.0000 H   0  0  0  0  0  0  0  0  0  0  0  0
    1.3000   -0.7500    0.0000 C   0  0  0  0  0  0  0  0  0  0  0  0
    2.6027   -1.4936    0.0000 H   0  0  0  0  0  0  0  0  0  0  0  0
    1.3000    0.7500    0.0000 C   0  0  0  0  0  0  0  0  0  0  0  0
    0.0300    1.5000    0.0000 C   0  0  0  0  0  0  0  0  0  0  0  0
    0.0498    2.9999    0.0000 H   0  0  0  0  0  0  0  0  0  0  0  0
   -1.3200    0.7500    0.0000 C   0  0  0  0  0  0  0  0  0  0  0  0
   -2.6128    1.5107    0.0000 H   0  0  0  0  0  0  0  0  0  0  0  0
    2.6027    1.4936    0.0000 C   0  0  0  0  0  0  0  0  0  0  0  0
    3.5725    2.6379    0.0000 H   0  0  0  0  0  0  0  0  0  0  0  0
    1.6442    2.6474    0.0000 H   0  0  0  0  0  0  0  0  0  0  0  0
    3.8980    0.7372    0.0000 C   0  0  0  0  0  0  0  0  0  0  0  0
    3.8907   -0.7628    0.0000 O   0  0  0  0  0  0  0  0  0  0  0  0
    5.2008    1.4808    0.0000 N   0  0  0  0  0  0  0  0  0  0  0  0
    6.4961    0.7244    0.0000 H   0  0  0  0  0  0  0  0  0  0  0  0
    5.2081    2.9808    0.0000 H   0  0  0  0  0  0  0  0  0  0  0  0
   -4.2372   -2.6732    0.0000 O   0  0  0  0  0  0  0  0  0  0  0  0
   -4.7385   -4.0869    0.0000 H   0  0  0  0  0  0  0  0  0  0  0  0
  1  2  1  0  0  0  0 
  1  3  1  0  0  0  0 
  1  4  1  0  0  0  0 
  1  5  1  0  0  0  0 
  5  6  1  0  0  0  0 
  5  7  1  0  0  0  0 
  7  8  1  0  0  0  0 
  7  9  1  0  0  0  0 
  7 10  1  0  0  0  0 
  5 11  1  0  0  0  0 
 11 12  2  0  0  0  0 
 12 13  1  4  0  0  0 
 12 14  1  0  0  0  0 
 14 15  1  0  0  0  0 
 14 16  1  0  0  0  0 
 16 17  1  0  0  0  0 
 16 18  1  0  0  0  0 
 16 19  1  0  0  0  0 
 19 20  1  0  0  0  0 
 20 21  2  0  0  0  0 
 21 22  1  0  0  0  0 
 21 23  1  0  0  0  0 
 23 24  1  0  0  0  0 
 23 25  2  0  0  0  0 
 25 26  1  0  0  0  0 
 26 27  1  0  0  0  0 
 26 28  2  0  0  0  0 
 20 28  1  0  0  0  0 
 28 29  1  0  0  0  0 
 25 30  1  0  0  0  0 
 30 31  1  0  0  0  0 
 30 32  1  0  0  0  0 
 30 33  1  0  0  0  0 
 33 34  2  0  0  0  0 
 33 35  1  0  0  0  0 
 35 36  1  0  0  0  0 
 35 37  1  0  0  0  0 
 14 38  1  0  0  0  0 
 38 39  1  0  0  0  0 
M  END
> <Rank>
21

> <Priority_score>
0.027200000000000002

> <Reaction_type>
dehydration of N-C bond

> <Parent_ID>
9

> <Parent_InChI>
InChI=1S/C14H22N2O3/c1-10(2)16-8-12(17)9-19-13-5-3-11(4-6-13)7-14(15)18/h3-6,10,12,16-17H,7-9H2,1-2H3,(H2,15,18)

> <Parent_SMILES>
CC(C)NCC(O)COc1ccc(CC(N)=O)cc1

$$$$
Molecule 9_metabolite 22
  CDK     0516241031

 39 39  0  0  0  0  0  0  0  0999 V2000
  -10.4068   -1.5750    0.0000 C   0  0  0  0  0  0  0  0  0  0  0  0
  -11.7120   -0.8357    0.0000 H   0  0  0  0  0  0  0  0  0  0  0  0
  -11.3614   -2.7320    0.0000 H   0  0  0  0  0  0  0  0  0  0  0  0
   -9.4331   -2.7161    0.0000 H   0  0  0  0  0  0  0  0  0  0  0  0
   -9.1140   -0.8143    0.0000 C   0  0  0  0  0  0  0  0  0  0  0  0
   -8.1593    0.3427    0.0000 H   0  0  0  0  0  0  0  0  0  0  0  0
  -10.0876    0.3268    0.0000 C   0  0  0  0  0  0  0  0  0  0  0  0
  -11.5626    0.0541    0.0000 H   0  0  0  0  0  0  0  0  0  0  0  0
   -8.7948    1.0875    0.0000 H   0  0  0  0  0  0  0  0  0  0  0  0
  -10.6122    1.7320    0.0000 H   0  0  0  0  0  0  0  0  0  0  0  0
   -7.8088   -1.5536    0.0000 N   0  0  0  0  0  0  0  0  0  0  0  0
   -7.7964   -3.0535    0.0000 H   0  0  0  0  0  0  0  0  0  0  0  0
   -6.5160   -0.7929    0.0000 C   0  0  0  0  0  0  0  0  0  0  0  0
   -6.5284    0.7071    0.0000 H   0  0  0  0  0  0  0  0  0  0  0  0
   -5.2108   -1.5321    0.0000 C   0  0  0  0  0  0  0  0  0  0  0  0
   -3.9180   -0.7714    0.0000 C   0  0  0  0  0  0  0  0  0  0  0  0
   -2.9633    0.3855    0.0000 H   0  0  0  0  0  0  0  0  0  0  0  0
   -4.8916    0.3696    0.0000 H   0  0  0  0  0  0  0  0  0  0  0  0
   -2.6128   -1.5107    0.0000 O   0  0  0  0  0  0  0  0  0  0  0  0
   -1.3200   -0.7500    0.0000 C   0  0  0  0  0  0  0  0  0  0  0  0
    0.0300   -1.5000    0.0000 C   0  0  0  0  0  0  0  0  0  0  0  0
    0.0498   -2.9999    0.0000 H   0  0  0  0  0  0  0  0  0  0  0  0
    1.3000   -0.7500    0.0000 C   0  0  0  0  0  0  0  0  0  0  0  0
    2.6027   -1.4936    0.0000 H   0  0  0  0  0  0  0  0  0  0  0  0
    1.3000    0.7500    0.0000 C   0  0  0  0  0  0  0  0  0  0  0  0
    0.0300    1.5000    0.0000 C   0  0  0  0  0  0  0  0  0  0  0  0
    0.0498    2.9999    0.0000 H   0  0  0  0  0  0  0  0  0  0  0  0
   -1.3200    0.7500    0.0000 C   0  0  0  0  0  0  0  0  0  0  0  0
   -2.6128    1.5107    0.0000 H   0  0  0  0  0  0  0  0  0  0  0  0
    2.6027    1.4936    0.0000 C   0  0  0  0  0  0  0  0  0  0  0  0
    3.5725    2.6379    0.0000 H   0  0  0  0  0  0  0  0  0  0  0  0
    1.6442    2.6474    0.0000 H   0  0  0  0  0  0  0  0  0  0  0  0
    3.8980    0.7372    0.0000 C   0  0  0  0  0  0  0  0  0  0  0  0
    3.8907   -0.7628    0.0000 O   0  0  0  0  0  0  0  0  0  0  0  0
    5.2008    1.4808    0.0000 N   0  0  0  0  0  0  0  0  0  0  0  0
    6.4961    0.7244    0.0000 H   0  0  0  0  0  0  0  0  0  0  0  0
    5.2081    2.9808    0.0000 H   0  0  0  0  0  0  0  0  0  0  0  0
   -5.1984   -3.0321    0.0000 O   0  0  0  0  0  0  0  0  0  0  0  0
   -6.4912   -3.7928    0.0000 H   0  0  0  0  0  0  0  0  0  0  0  0
  1  2  1  0  0  0  0 
  1  3  1  0  0  0  0 
  1  4  1  0  0  0  0 
  1  5  1  0  0  0  0 
  5  6  1  0  0  0  0 
  5  7  1  0  0  0  0 
  7  8  1  0  0  0  0 
  7  9  1  0  0  0  0 
  7 10  1  0  0  0  0 
  5 11  1  0  0  0  0 
 11 12  1  0  0  0  0 
 11 13  1  0  0  0  0 
 13 14  1  4  0  0  0 
 13 15  2  0  0  0  0 
 15 16  1  0  0  0  0 
 16 17  1  0  0  0  0 
 16 18  1  0  0  0  0 
 16 19  1  0  0  0  0 
 19 20  1  0  0  0  0 
 20 21  2  0  0  0  0 
 21 22  1  0  0  0  0 
 21 23  1  0  0  0  0 
 23 24  1  0  0  0  0 
 23 25  2  0  0  0  0 
 25 26  1  0  0  0  0 
 26 27  1  0  0  0  0 
 26 28  2  0  0  0  0 
 20 28  1  0  0  0  0 
 28 29  1  0  0  0  0 
 25 30  1  0  0  0  0 
 30 31  1  0  0  0  0 
 30 32  1  0  0  0  0 
 30 33  1  0  0  0  0 
 33 34  2  0  0  0  0 
 33 35  1  0  0  0  0 
 35 36  1  0  0  0  0 
 35 37  1  0  0  0  0 
 15 38  1  0  0  0  0 
 38 39  1  0  0  0  0 
M  END
> <Rank>
21

> <Priority_score>
0.027200000000000002

> <Reaction_type>
alkyl dehydrogenation

> <Parent_ID>
9

> <Parent_InChI>
InChI=1S/C14H22N2O3/c1-10(2)16-8-12(17)9-19-13-5-3-11(4-6-13)7-14(15)18/h3-6,10,12,16-17H,7-9H2,1-2H3,(H2,15,18)

> <Parent_SMILES>
CC(C)NCC(O)COc1ccc(CC(N)=O)cc1

$$$$
Molecule 9_metabolite 23
  CDK     0516241031

 40 40  0  0  0  0  0  0  0  0999 V2000
  -10.4068   -1.5750    0.0000 C   0  0  0  0  0  0  0  0  0  0  0  0
  -11.7120   -0.8357    0.0000 H   0  0  0  0  0  0  0  0  0  0  0  0
  -11.3614   -2.7320    0.0000 H   0  0  0  0  0  0  0  0  0  0  0  0
   -9.4331   -2.7161    0.0000 H   0  0  0  0  0  0  0  0  0  0  0  0
   -9.1140   -0.8143    0.0000 C   0  0  0  0  0  0  0  0  0  0  0  0
   -8.1593    0.3427    0.0000 H   0  0  0  0  0  0  0  0  0  0  0  0
  -10.0876    0.3268    0.0000 C   0  0  0  0  0  0  0  0  0  0  0  0
  -11.5626    0.0541    0.0000 H   0  0  0  0  0  0  0  0  0  0  0  0
   -8.7948    1.0875    0.0000 H   0  0  0  0  0  0  0  0  0  0  0  0
  -10.6122    1.7320    0.0000 H   0  0  0  0  0  0  0  0  0  0  0  0
   -7.8088   -1.5536    0.0000 N   0  0  0  0  0  0  0  0  0  0  0  0
   -7.7964   -3.0535    0.0000 H   0  0  0  0  0  0  0  0  0  0  0  0
   -6.5160   -0.7929    0.0000 C   0  0  0  0  0  0  0  0  0  0  0  0
   -6.5284    0.7071    0.0000 H   0  0  0  0  0  0  0  0  0  0  0  0
   -5.2108   -1.5321    0.0000 C   0  0  0  0  0  0  0  0  0  0  0  0
   -6.1655   -2.6891    0.0000 H   0  0  0  0  0  0  0  0  0  0  0  0
   -3.9180   -0.7714    0.0000 C   0  0  0  0  0  0  0  0  0  0  0  0
   -2.9633    0.3855    0.0000 H   0  0  0  0  0  0  0  0  0  0  0  0
   -4.8916    0.3696    0.0000 H   0  0  0  0  0  0  0  0  0  0  0  0
   -2.6128   -1.5107    0.0000 O   0  0  0  0  0  0  0  0  0  0  0  0
   -1.3200   -0.7500    0.0000 C   0  0  0  0  0  0  0  0  0  0  0  0
    0.0300   -1.5000    0.0000 C   0  0  0  0  0  0  0  0  0  0  0  0
    0.0498   -2.9999    0.0000 H   0  0  0  0  0  0  0  0  0  0  0  0
    1.3000   -0.7500    0.0000 C   0  0  0  0  0  0  0  0  0  0  0  0
    2.6027   -1.4936    0.0000 H   0  0  0  0  0  0  0  0  0  0  0  0
    1.3000    0.7500    0.0000 C   0  0  0  0  0  0  0  0  0  0  0  0
    0.0300    1.5000    0.0000 C   0  0  0  0  0  0  0  0  0  0  0  0
    0.0498    2.9999    0.0000 H   0  0  0  0  0  0  0  0  0  0  0  0
   -1.3200    0.7500    0.0000 C   0  0  0  0  0  0  0  0  0  0  0  0
   -2.6128    1.5107    0.0000 H   0  0  0  0  0  0  0  0  0  0  0  0
    2.6027    1.4936    0.0000 C   0  0  0  0  0  0  0  0  0  0  0  0
    3.5725    2.6379    0.0000 H   0  0  0  0  0  0  0  0  0  0  0  0
    1.6442    2.6474    0.0000 H   0  0  0  0  0  0  0  0  0  0  0  0
    3.8980    0.7372    0.0000 C   0  0  0  0  0  0  0  0  0  0  0  0
    3.8907   -0.7628    0.0000 O   0  0  0  0  0  0  0  0  0  0  0  0
    5.2008    1.4808    0.0000 N   0  0  0  0  0  0  0  0  0  0  0  0
    6.4961    0.7244    0.0000 H   0  0  0  0  0  0  0  0  0  0  0  0
    5.2081    2.9808    0.0000 H   0  0  0  0  0  0  0  0  0  0  0  0
   -4.2372   -2.6732    0.0000 O   0  0  0  0  0  0  0  0  0  0  0  0
   -4.7385   -4.0869    0.0000 H   0  0  0  0  0  0  0  0  0  0  0  0
  1  2  1  0  0  0  0 
  1  3  1  0  0  0  0 
  1  4  1  0  0  0  0 
  1  5  1  0  0  0  0 
  5  6  1  0  0  0  0 
  5  7  1  0  0  0  0 
  7  8  1  0  0  0  0 
  7  9  1  0  0  0  0 
  7 10  1  0  0  0  0 
  5 11  1  0  0  0  0 
 11 12  1  4  0  0  0 
 11 13  2  0  0  0  0 
 13 14  1  0  0  0  0 
 13 15  1  0  0  0  0 
 15 16  1  0  0  0  0 
 15 17  1  0  0  0  0 
 17 18  1  0  0  0  0 
 17 19  1  0  0  0  0 
 17 20  1  0  0  0  0 
 20 21  1  0  0  0  0 
 21 22  2  0  0  0  0 
 22 23  1  0  0  0  0 
 22 24  1  0  0  0  0 
 24 25  1  0  0  0  0 
 24 26  2  0  0  0  0 
 26 27  1  0  0  0  0 
 27 28  1  0  0  0  0 
 27 29  2  0  0  0  0 
 21 29  1  0  0  0  0 
 29 30  1  0  0  0  0 
 26 31  1  0  0  0  0 
 31 32  1  0  0  0  0 
 31 33  1  0  0  0  0 
 31 34  1  0  0  0  0 
 34 35  2  0  0  0  0 
 34 36  1  0  0  0  0 
 36 37  1  0  0  0  0 
 36 38  1  0  0  0  0 
 15 39  1  0  0  0  0 
 39 40  1  0  0  0  0 
M  CHG  1  11   1
M  END
> <Rank>
21

> <Priority_score>
0.027200000000000002

> <Reaction_type>
dehydration of N-C bond

> <Parent_ID>
9

> <Parent_InChI>
InChI=1S/C14H22N2O3/c1-10(2)16-8-12(17)9-19-13-5-3-11(4-6-13)7-14(15)18/h3-6,10,12,16-17H,7-9H2,1-2H3,(H2,15,18)

> <Parent_SMILES>
CC(C)NCC(O)COc1ccc(CC(N)=O)cc1

$$$$
Molecule 9_metabolite 24
  CDK     0516241031

 39 39  0  0  0  0  0  0  0  0999 V2000
    5.1909    0.5455    0.0000 C   0  0  0  0  0  0  0  0  0  0  0  0
    6.4961   -0.1937    0.0000 H   0  0  0  0  0  0  0  0  0  0  0  0
    6.1456    1.7025    0.0000 H   0  0  0  0  0  0  0  0  0  0  0  0
    4.2173    1.6866    0.0000 H   0  0  0  0  0  0  0  0  0  0  0  0
    3.8981   -0.2152    0.0000 C   0  0  0  0  0  0  0  0  0  0  0  0
    2.9434   -1.3721    0.0000 H   0  0  0  0  0  0  0  0  0  0  0  0
    4.8717   -1.3562    0.0000 C   0  0  0  0  0  0  0  0  0  0  0  0
    6.3467   -1.0836    0.0000 H   0  0  0  0  0  0  0  0  0  0  0  0
    3.5789   -2.1169    0.0000 H   0  0  0  0  0  0  0  0  0  0  0  0
    5.3964   -2.7615    0.0000 H   0  0  0  0  0  0  0  0  0  0  0  0
    2.1753    0.7607    0.0000 N   0  0  0  0  0  0  0  0  0  0  0  0
    2.1629    2.2606    0.0000 H   0  0  0  0  0  0  0  0  0  0  0  0
    0.8825   -0.0000    0.0000 C   0  0  0  0  0  0  0  0  0  0  0  0
   -0.0722   -1.1570    0.0000 H   0  0  0  0  0  0  0  0  0  0  0  0
    1.8561   -1.1411    0.0000 H   0  0  0  0  0  0  0  0  0  0  0  0
   -0.4227    0.7392    0.0000 C   0  0  0  0  0  0  0  0  0  0  0  0
   -1.7155   -0.0215    0.0000 C   0  0  0  0  0  0  0  0  0  0  0  0
   -1.7032   -1.5214    0.0000 H   0  0  0  0  0  0  0  0  0  0  0  0
   -3.0207    0.7178    0.0000 O   0  0  0  0  0  0  0  0  0  0  0  0
   -4.3135   -0.0429    0.0000 C   0  0  0  0  0  0  0  0  0  0  0  0
   -5.6635    0.7071    0.0000 C   0  0  0  0  0  0  0  0  0  0  0  0
   -5.6833    2.2070    0.0000 H   0  0  0  0  0  0  0  0  0  0  0  0
   -6.9335   -0.0429    0.0000 C   0  0  0  0  0  0  0  0  0  0  0  0
   -8.2362    0.7007    0.0000 H   0  0  0  0  0  0  0  0  0  0  0  0
   -6.9335   -1.5429    0.0000 C   0  0  0  0  0  0  0  0  0  0  0  0
   -5.6635   -2.2929    0.0000 C   0  0  0  0  0  0  0  0  0  0  0  0
   -5.6833   -3.7928    0.0000 H   0  0  0  0  0  0  0  0  0  0  0  0
   -4.3135   -1.5429    0.0000 C   0  0  0  0  0  0  0  0  0  0  0  0
   -3.0207   -2.3036    0.0000 H   0  0  0  0  0  0  0  0  0  0  0  0
   -8.2362   -2.2865    0.0000 C   0  0  0  0  0  0  0  0  0  0  0  0
   -9.2061   -3.4308    0.0000 H   0  0  0  0  0  0  0  0  0  0  0  0
   -7.2777   -3.4403    0.0000 H   0  0  0  0  0  0  0  0  0  0  0  0
   -9.5316   -1.5301    0.0000 C   0  0  0  0  0  0  0  0  0  0  0  0
   -9.5242   -0.0301    0.0000 O   0  0  0  0  0  0  0  0  0  0  0  0
  -10.8343   -2.2737    0.0000 N   0  0  0  0  0  0  0  0  0  0  0  0
  -12.1296   -1.5173    0.0000 H   0  0  0  0  0  0  0  0  0  0  0  0
  -10.8417   -3.7737    0.0000 H   0  0  0  0  0  0  0  0  0  0  0  0
   -0.4351    2.2392    0.0000 O   0  0  0  0  0  0  0  0  0  0  0  0
    0.8577    2.9999    0.0000 H   0  0  0  0  0  0  0  0  0  0  0  0
  1  2  1  0  0  0  0 
  1  3  1  0  0  0  0 
  1  4  1  0  0  0  0 
  1  5  1  0  0  0  0 
  5  6  1  0  0  0  0 
  5  7  1  0  0  0  0 
  7  8  1  0  0  0  0 
  7  9  1  0  0  0  0 
  7 10  1  0  0  0  0 
  5 11  1  0  0  0  0 
 11 12  1  0  0  0  0 
 11 13  1  0  0  0  0 
 13 14  1  0  0  0  0 
 13 15  1  0  0  0  0 
 13 16  1  0  0  0  0 
 16 17  2  0  0  0  0 
 17 18  1  4  0  0  0 
 17 19  1  0  0  0  0 
 19 20  1  0  0  0  0 
 20 21  2  0  0  0  0 
 21 22  1  0  0  0  0 
 21 23  1  0  0  0  0 
 23 24  1  0  0  0  0 
 23 25  2  0  0  0  0 
 25 26  1  0  0  0  0 
 26 27  1  0  0  0  0 
 26 28  2  0  0  0  0 
 20 28  1  0  0  0  0 
 28 29  1  0  0  0  0 
 25 30  1  0  0  0  0 
 30 31  1  0  0  0  0 
 30 32  1  0  0  0  0 
 30 33  1  0  0  0  0 
 33 34  2  0  0  0  0 
 33 35  1  0  0  0  0 
 35 36  1  0  0  0  0 
 35 37  1  0  0  0  0 
 16 38  1  0  0  0  0 
 38 39  1  0  0  0  0 
M  END
> <Rank>
24

> <Priority_score>
0.026214652744547574

> <Reaction_type>
alkyl dehydrogenation

> <Parent_ID>
9

> <Parent_InChI>
InChI=1S/C14H22N2O3/c1-10(2)16-8-12(17)9-19-13-5-3-11(4-6-13)7-14(15)18/h3-6,10,12,16-17H,7-9H2,1-2H3,(H2,15,18)

> <Parent_SMILES>
CC(C)NCC(O)COc1ccc(CC(N)=O)cc1

$$$$
Molecule 9_metabolite 25
  CDK     0516241031

 40 40  0  0  0  0  0  0  0  0999 V2000
    5.6086    0.0148    0.0000 C   0  0  0  0  0  0  0  0  0  0  0  0
    6.9137   -0.7244    0.0000 H   0  0  0  0  0  0  0  0  0  0  0  0
    6.5632    1.1718    0.0000 H   0  0  0  0  0  0  0  0  0  0  0  0
    4.6349    1.1559    0.0000 H   0  0  0  0  0  0  0  0  0  0  0  0
    4.3158   -0.7459    0.0000 C   0  0  0  0  0  0  0  0  0  0  0  0
    3.0106   -0.0066    0.0000 N   0  0  0  0  0  0  0  0  0  0  0  0
    2.9982    1.4933    0.0000 H   0  0  0  0  0  0  0  0  0  0  0  0
    1.7178   -0.7673    0.0000 C   0  0  0  0  0  0  0  0  0  0  0  0
    0.7631   -1.9243    0.0000 H   0  0  0  0  0  0  0  0  0  0  0  0
    2.6914   -1.9084    0.0000 H   0  0  0  0  0  0  0  0  0  0  0  0
   -0.0051    0.2085    0.0000 C   0  0  0  0  0  0  0  0  0  0  0  0
    0.9496    1.3655    0.0000 H   0  0  0  0  0  0  0  0  0  0  0  0
   -1.2979   -0.5522    0.0000 C   0  0  0  0  0  0  0  0  0  0  0  0
   -2.2525   -1.7092    0.0000 H   0  0  0  0  0  0  0  0  0  0  0  0
   -0.3242   -1.6933    0.0000 H   0  0  0  0  0  0  0  0  0  0  0  0
   -2.6031    0.1871    0.0000 O   0  0  0  0  0  0  0  0  0  0  0  0
   -3.8959   -0.5736    0.0000 C   0  0  0  0  0  0  0  0  0  0  0  0
   -5.2459    0.1764    0.0000 C   0  0  0  0  0  0  0  0  0  0  0  0
   -5.2656    1.6763    0.0000 H   0  0  0  0  0  0  0  0  0  0  0  0
   -6.5159   -0.5736    0.0000 C   0  0  0  0  0  0  0  0  0  0  0  0
   -7.8186    0.1700    0.0000 H   0  0  0  0  0  0  0  0  0  0  0  0
   -6.5159   -2.0736    0.0000 C   0  0  0  0  0  0  0  0  0  0  0  0
   -5.2459   -2.8236    0.0000 C   0  0  0  0  0  0  0  0  0  0  0  0
   -5.2656   -4.3235    0.0000 H   0  0  0  0  0  0  0  0  0  0  0  0
   -3.8959   -2.0736    0.0000 C   0  0  0  0  0  0  0  0  0  0  0  0
   -2.6031   -2.8343    0.0000 H   0  0  0  0  0  0  0  0  0  0  0  0
   -7.8186   -2.8172    0.0000 C   0  0  0  0  0  0  0  0  0  0  0  0
   -8.7884   -3.9615    0.0000 H   0  0  0  0  0  0  0  0  0  0  0  0
   -6.8601   -3.9710    0.0000 H   0  0  0  0  0  0  0  0  0  0  0  0
   -9.1139   -2.0608    0.0000 C   0  0  0  0  0  0  0  0  0  0  0  0
   -9.1065   -0.5608    0.0000 O   0  0  0  0  0  0  0  0  0  0  0  0
  -10.4166   -2.8044    0.0000 N   0  0  0  0  0  0  0  0  0  0  0  0
  -11.7120   -2.0480    0.0000 H   0  0  0  0  0  0  0  0  0  0  0  0
  -10.4240   -4.3044    0.0000 H   0  0  0  0  0  0  0  0  0  0  0  0
   -0.9787    1.3496    0.0000 O   0  0  0  0  0  0  0  0  0  0  0  0
   -0.4773    2.7633    0.0000 H   0  0  0  0  0  0  0  0  0  0  0  0
    4.3281   -2.2458    0.0000 C   0  0  0  0  0  0  0  0  0  0  0  0
    3.0353   -3.0065    0.0000 H   0  0  0  0  0  0  0  0  0  0  0  0
    5.8031   -1.9732    0.0000 H   0  0  0  0  0  0  0  0  0  0  0  0
    4.8528   -3.6511    0.0000 H   0  0  0  0  0  0  0  0  0  0  0  0
  1  2  1  0  0  0  0 
  1  3  1  0  0  0  0 
  1  4  1  0  0  0  0 
  1  5  1  0  0  0  0 
  5  6  2  0  0  0  0 
  6  7  1  0  0  0  0 
  6  8  1  0  0  0  0 
  8  9  1  0  0  0  0 
  8 10  1  0  0  0  0 
  8 11  1  0  0  0  0 
 11 12  1  0  0  0  0 
 11 13  1  0  0  0  0 
 13 14  1  0  0  0  0 
 13 15  1  0  0  0  0 
 13 16  1  0  0  0  0 
 16 17  1  0  0  0  0 
 17 18  2  0  0  0  0 
 18 19  1  0  0  0  0 
 18 20  1  0  0  0  0 
 20 21  1  0  0  0  0 
 20 22  2  0  0  0  0 
 22 23  1  0  0  0  0 
 23 24  1  0  0  0  0 
 23 25  2  0  0  0  0 
 17 25  1  0  0  0  0 
 25 26  1  0  0  0  0 
 22 27  1  0  0  0  0 
 27 28  1  0  0  0  0 
 27 29  1  0  0  0  0 
 27 30  1  0  0  0  0 
 30 31  2  0  0  0  0 
 30 32  1  0  0  0  0 
 32 33  1  0  0  0  0 
 32 34  1  0  0  0  0 
 11 35  1  0  0  0  0 
 35 36  1  0  0  0  0 
  5 37  1  0  0  0  0 
 37 38  1  0  0  0  0 
 37 39  1  0  0  0  0 
 37 40  1  0  0  0  0 
M  CHG  1   6   1
M  END
> <Rank>
25

> <Priority_score>
0.020745343869549553

> <Reaction_type>
dehydration of N-C bond

> <Parent_ID>
9

> <Parent_InChI>
InChI=1S/C14H22N2O3/c1-10(2)16-8-12(17)9-19-13-5-3-11(4-6-13)7-14(15)18/h3-6,10,12,16-17H,7-9H2,1-2H3,(H2,15,18)

> <Parent_SMILES>
CC(C)NCC(O)COc1ccc(CC(N)=O)cc1

$$$$
Molecule 9_metabolite 26
  CDK     0516241031

 39 39  0  0  0  0  0  0  0  0999 V2000
  -10.8205   -1.8184    0.0000 C   0  0  0  0  0  0  0  0  0  0  0  0
  -12.1256   -1.0792    0.0000 H   0  0  0  0  0  0  0  0  0  0  0  0
  -11.7751   -2.9754    0.0000 H   0  0  0  0  0  0  0  0  0  0  0  0
   -9.8468   -2.9595    0.0000 H   0  0  0  0  0  0  0  0  0  0  0  0
   -9.5277   -1.0577    0.0000 C   0  0  0  0  0  0  0  0  0  0  0  0
   -8.2225   -1.7970    0.0000 N   0  0  0  0  0  0  0  0  0  0  0  0
   -6.9297   -1.0363    0.0000 C   0  0  0  0  0  0  0  0  0  0  0  0
   -5.9750    0.1207    0.0000 H   0  0  0  0  0  0  0  0  0  0  0  0
   -7.9033    0.1048    0.0000 H   0  0  0  0  0  0  0  0  0  0  0  0
   -5.6245   -1.7755    0.0000 C   0  0  0  0  0  0  0  0  0  0  0  0
   -6.5792   -2.9325    0.0000 H   0  0  0  0  0  0  0  0  0  0  0  0
   -3.9180   -0.7714    0.0000 C   0  0  0  0  0  0  0  0  0  0  0  0
   -2.9633    0.3855    0.0000 H   0  0  0  0  0  0  0  0  0  0  0  0
   -4.8916    0.3696    0.0000 H   0  0  0  0  0  0  0  0  0  0  0  0
   -2.6128   -1.5107    0.0000 O   0  0  0  0  0  0  0  0  0  0  0  0
   -1.3200   -0.7500    0.0000 C   0  0  0  0  0  0  0  0  0  0  0  0
    0.0300   -1.5000    0.0000 C   0  0  0  0  0  0  0  0  0  0  0  0
    0.0498   -2.9999    0.0000 H   0  0  0  0  0  0  0  0  0  0  0  0
    1.3000   -0.7500    0.0000 C   0  0  0  0  0  0  0  0  0  0  0  0
    2.6027   -1.4936    0.0000 H   0  0  0  0  0  0  0  0  0  0  0  0
    1.3000    0.7500    0.0000 C   0  0  0  0  0  0  0  0  0  0  0  0
    0.0300    1.5000    0.0000 C   0  0  0  0  0  0  0  0  0  0  0  0
    0.0498    2.9999    0.0000 H   0  0  0  0  0  0  0  0  0  0  0  0
   -1.3200    0.7500    0.0000 C   0  0  0  0  0  0  0  0  0  0  0  0
   -2.6128    1.5107    0.0000 H   0  0  0  0  0  0  0  0  0  0  0  0
    2.6027    1.4936    0.0000 C   0  0  0  0  0  0  0  0  0  0  0  0
    3.5725    2.6379    0.0000 H   0  0  0  0  0  0  0  0  0  0  0  0
    1.6442    2.6474    0.0000 H   0  0  0  0  0  0  0  0  0  0  0  0
    3.8980    0.7372    0.0000 C   0  0  0  0  0  0  0  0  0  0  0  0
    3.8907   -0.7628    0.0000 O   0  0  0  0  0  0  0  0  0  0  0  0
    5.2008    1.4808    0.0000 N   0  0  0  0  0  0  0  0  0  0  0  0
    6.4961    0.7244    0.0000 H   0  0  0  0  0  0  0  0  0  0  0  0
    5.2081    2.9808    0.0000 H   0  0  0  0  0  0  0  0  0  0  0  0
   -4.6509   -2.9166    0.0000 O   0  0  0  0  0  0  0  0  0  0  0  0
   -5.1522   -4.3303    0.0000 H   0  0  0  0  0  0  0  0  0  0  0  0
   -9.5400    0.4422    0.0000 C   0  0  0  0  0  0  0  0  0  0  0  0
   -8.2472    1.2029    0.0000 H   0  0  0  0  0  0  0  0  0  0  0  0
  -11.0150    0.1696    0.0000 H   0  0  0  0  0  0  0  0  0  0  0  0
  -10.0647    1.8475    0.0000 H   0  0  0  0  0  0  0  0  0  0  0  0
  1  2  1  0  0  0  0 
  1  3  1  0  0  0  0 
  1  4  1  0  0  0  0 
  1  5  1  0  0  0  0 
  5  6  2  0  0  0  0 
  6  7  1  0  0  0  0 
  7  8  1  0  0  0  0 
  7  9  1  0  0  0  0 
  7 10  1  0  0  0  0 
 10 11  1  0  0  0  0 
 10 12  1  0  0  0  0 
 12 13  1  0  0  0  0 
 12 14  1  0  0  0  0 
 12 15  1  0  0  0  0 
 15 16  1  0  0  0  0 
 16 17  2  0  0  0  0 
 17 18  1  0  0  0  0 
 17 19  1  0  0  0  0 
 19 20  1  0  0  0  0 
 19 21  2  0  0  0  0 
 21 22  1  0  0  0  0 
 22 23  1  0  0  0  0 
 22 24  2  0  0  0  0 
 16 24  1  0  0  0  0 
 24 25  1  0  0  0  0 
 21 26  1  0  0  0  0 
 26 27  1  0  0  0  0 
 26 28  1  0  0  0  0 
 26 29  1  0  0  0  0 
 29 30  2  0  0  0  0 
 29 31  1  0  0  0  0 
 31 32  1  0  0  0  0 
 31 33  1  0  0  0  0 
 10 34  1  0  0  0  0 
 34 35  1  0  0  0  0 
  5 36  1  0  0  0  0 
 36 37  1  0  0  0  0 
 36 38  1  0  0  0  0 
 36 39  1  0  0  0  0 
M  END
> <Rank>
25

> <Priority_score>
0.020745343869549553

> <Reaction_type>
dehydration of N-C bond

> <Parent_ID>
9

> <Parent_InChI>
InChI=1S/C14H22N2O3/c1-10(2)16-8-12(17)9-19-13-5-3-11(4-6-13)7-14(15)18/h3-6,10,12,16-17H,7-9H2,1-2H3,(H2,15,18)

> <Parent_SMILES>
CC(C)NCC(O)COc1ccc(CC(N)=O)cc1

$$$$
Molecule 9_metabolite 27
  CDK     0516241031

 39 39  0  0  0  0  0  0  0  0999 V2000
    4.3281   -2.2458    0.0000 C   0  0  0  0  0  0  0  0  0  0  0  0
    5.6333   -2.9851    0.0000 H   0  0  0  0  0  0  0  0  0  0  0  0
    3.0353   -3.0065    0.0000 H   0  0  0  0  0  0  0  0  0  0  0  0
    4.3158   -0.7459    0.0000 C   0  0  0  0  0  0  0  0  0  0  0  0
    5.6086    0.0148    0.0000 C   0  0  0  0  0  0  0  0  0  0  0  0
    6.9137   -0.7244    0.0000 H   0  0  0  0  0  0  0  0  0  0  0  0
    6.5632    1.1718    0.0000 H   0  0  0  0  0  0  0  0  0  0  0  0
    4.6349    1.1559    0.0000 H   0  0  0  0  0  0  0  0  0  0  0  0
    3.0106   -0.0066    0.0000 N   0  0  0  0  0  0  0  0  0  0  0  0
    2.9982    1.4933    0.0000 H   0  0  0  0  0  0  0  0  0  0  0  0
    1.7178   -0.7673    0.0000 C   0  0  0  0  0  0  0  0  0  0  0  0
    0.7631   -1.9243    0.0000 H   0  0  0  0  0  0  0  0  0  0  0  0
    2.6914   -1.9084    0.0000 H   0  0  0  0  0  0  0  0  0  0  0  0
   -0.0051    0.2085    0.0000 C   0  0  0  0  0  0  0  0  0  0  0  0
    0.9496    1.3655    0.0000 H   0  0  0  0  0  0  0  0  0  0  0  0
   -1.2979   -0.5522    0.0000 C   0  0  0  0  0  0  0  0  0  0  0  0
   -2.2525   -1.7092    0.0000 H   0  0  0  0  0  0  0  0  0  0  0  0
   -0.3242   -1.6933    0.0000 H   0  0  0  0  0  0  0  0  0  0  0  0
   -2.6031    0.1871    0.0000 O   0  0  0  0  0  0  0  0  0  0  0  0
   -3.8959   -0.5736    0.0000 C   0  0  0  0  0  0  0  0  0  0  0  0
   -5.2459    0.1764    0.0000 C   0  0  0  0  0  0  0  0  0  0  0  0
   -5.2656    1.6763    0.0000 H   0  0  0  0  0  0  0  0  0  0  0  0
   -6.5159   -0.5736    0.0000 C   0  0  0  0  0  0  0  0  0  0  0  0
   -7.8186    0.1700    0.0000 H   0  0  0  0  0  0  0  0  0  0  0  0
   -6.5159   -2.0736    0.0000 C   0  0  0  0  0  0  0  0  0  0  0  0
   -5.2459   -2.8236    0.0000 C   0  0  0  0  0  0  0  0  0  0  0  0
   -5.2656   -4.3235    0.0000 H   0  0  0  0  0  0  0  0  0  0  0  0
   -3.8959   -2.0736    0.0000 C   0  0  0  0  0  0  0  0  0  0  0  0
   -2.6031   -2.8343    0.0000 H   0  0  0  0  0  0  0  0  0  0  0  0
   -7.8186   -2.8172    0.0000 C   0  0  0  0  0  0  0  0  0  0  0  0
   -8.7884   -3.9615    0.0000 H   0  0  0  0  0  0  0  0  0  0  0  0
   -6.8601   -3.9710    0.0000 H   0  0  0  0  0  0  0  0  0  0  0  0
   -9.1139   -2.0608    0.0000 C   0  0  0  0  0  0  0  0  0  0  0  0
   -9.1065   -0.5608    0.0000 O   0  0  0  0  0  0  0  0  0  0  0  0
  -10.4166   -2.8044    0.0000 N   0  0  0  0  0  0  0  0  0  0  0  0
  -11.7120   -2.0480    0.0000 H   0  0  0  0  0  0  0  0  0  0  0  0
  -10.4240   -4.3044    0.0000 H   0  0  0  0  0  0  0  0  0  0  0  0
   -0.9787    1.3496    0.0000 O   0  0  0  0  0  0  0  0  0  0  0  0
   -0.4773    2.7633    0.0000 H   0  0  0  0  0  0  0  0  0  0  0  0
  1  2  1  0  0  0  0 
  1  3  1  0  0  0  0 
  1  4  2  0  0  0  0 
  4  5  1  0  0  0  0 
  5  6  1  0  0  0  0 
  5  7  1  0  0  0  0 
  5  8  1  0  0  0  0 
  4  9  1  0  0  0  0 
  9 10  1  0  0  0  0 
  9 11  1  0  0  0  0 
 11 12  1  0  0  0  0 
 11 13  1  0  0  0  0 
 11 14  1  0  0  0  0 
 14 15  1  0  0  0  0 
 14 16  1  0  0  0  0 
 16 17  1  0  0  0  0 
 16 18  1  0  0  0  0 
 16 19  1  0  0  0  0 
 19 20  1  0  0  0  0 
 20 21  2  0  0  0  0 
 21 22  1  0  0  0  0 
 21 23  1  0  0  0  0 
 23 24  1  0  0  0  0 
 23 25  2  0  0  0  0 
 25 26  1  0  0  0  0 
 26 27  1  0  0  0  0 
 26 28  2  0  0  0  0 
 20 28  1  0  0  0  0 
 28 29  1  0  0  0  0 
 25 30  1  0  0  0  0 
 30 31  1  0  0  0  0 
 30 32  1  0  0  0  0 
 30 33  1  0  0  0  0 
 33 34  2  0  0  0  0 
 33 35  1  0  0  0  0 
 35 36  1  0  0  0  0 
 35 37  1  0  0  0  0 
 14 38  1  0  0  0  0 
 38 39  1  0  0  0  0 
M  END
> <Rank>
25

> <Priority_score>
0.020745343869549553

> <Reaction_type>
alkyl dehydrogenation

> <Parent_ID>
9

> <Parent_InChI>
InChI=1S/C14H22N2O3/c1-10(2)16-8-12(17)9-19-13-5-3-11(4-6-13)7-14(15)18/h3-6,10,12,16-17H,7-9H2,1-2H3,(H2,15,18)

> <Parent_SMILES>
CC(C)NCC(O)COc1ccc(CC(N)=O)cc1

$$$$
Molecule 9_metabolite 28
  CDK     0516241031

 24 23  0  0  0  0  0  0  0  0999 V2000
    0.4677   -0.7500    0.0000 C   0  0  0  0  0  0  0  0  0  0  0  0
   -0.8314    0.0000    0.0000 H   0  0  0  0  0  0  0  0  0  0  0  0
   -0.4965   -1.8991    0.0000 H   0  0  0  0  0  0  0  0  0  0  0  0
    1.4318   -1.8991    0.0000 H   0  0  0  0  0  0  0  0  0  0  0  0
    1.7667    0.0000    0.0000 C   0  0  0  0  0  0  0  0  0  0  0  0
    2.7309    1.1491    0.0000 H   0  0  0  0  0  0  0  0  0  0  0  0
    0.8025    1.1491    0.0000 C   0  0  0  0  0  0  0  0  0  0  0  0
   -0.6747    0.8886    0.0000 H   0  0  0  0  0  0  0  0  0  0  0  0
    2.1015    1.8991    0.0000 H   0  0  0  0  0  0  0  0  0  0  0  0
    0.2895    2.5586    0.0000 H   0  0  0  0  0  0  0  0  0  0  0  0
    3.4814   -0.9900    0.0000 N   0  0  0  0  0  0  0  0  0  0  0  0
    3.4814   -2.4900    0.0000 H   0  0  0  0  0  0  0  0  0  0  0  0
    4.7805   -0.2400    0.0000 C   0  0  0  0  0  0  0  0  0  0  0  0
    5.7446    0.9091    0.0000 H   0  0  0  0  0  0  0  0  0  0  0  0
    3.8163    0.9091    0.0000 H   0  0  0  0  0  0  0  0  0  0  0  0
    6.0795   -0.9900    0.0000 C   0  0  0  0  0  0  0  0  0  0  0  0
    5.1153   -2.1391    0.0000 H   0  0  0  0  0  0  0  0  0  0  0  0
    7.7942   -0.0000    0.0000 C   0  0  0  0  0  0  0  0  0  0  0  0
    8.7584    1.1491    0.0000 H   0  0  0  0  0  0  0  0  0  0  0  0
    6.8300    1.1491    0.0000 H   0  0  0  0  0  0  0  0  0  0  0  0
    9.0933   -0.7500    0.0000 O   0  0  0  0  0  0  0  0  0  0  0  0
   10.3923   -0.0000    0.0000 H   0  0  0  0  0  0  0  0  0  0  0  0
    7.0437   -2.1391    0.0000 O   0  0  0  0  0  0  0  0  0  0  0  0
    8.5209   -1.8786    0.0000 H   0  0  0  0  0  0  0  0  0  0  0  0
  1  2  1  0  0  0  0 
  1  3  1  0  0  0  0 
  1  4  1  0  0  0  0 
  1  5  1  0  0  0  0 
  5  6  1  0  0  0  0 
  5  7  1  0  0  0  0 
  7  8  1  0  0  0  0 
  7  9  1  0  0  0  0 
  7 10  1  0  0  0  0 
  5 11  1  0  0  0  0 
 11 12  1  0  0  0  0 
 11 13  1  0  0  0  0 
 13 14  1  0  0  0  0 
 13 15  1  0  0  0  0 
 13 16  1  0  0  0  0 
 16 17  1  0  0  0  0 
 16 18  1  0  0  0  0 
 18 19  1  0  0  0  0 
 18 20  1  0  0  0  0 
 18 21  1  0  0  0  0 
 21 22  1  0  0  0  0 
 16 23  1  0  0  0  0 
 23 24  1  0  0  0  0 
M  END
> <Rank>
28

> <Priority_score>
0.02

> <Reaction_type>
O-dealkylation_(aromatic)

> <Parent_ID>
9

> <Parent_InChI>
InChI=1S/C14H22N2O3/c1-10(2)16-8-12(17)9-19-13-5-3-11(4-6-13)7-14(15)18/h3-6,10,12,16-17H,7-9H2,1-2H3,(H2,15,18)

> <Parent_SMILES>
CC(C)NCC(O)COc1ccc(CC(N)=O)cc1

$$$$
Molecule 9_metabolite 29
  CDK     0516241031

 22 21  0  0  0  0  0  0  0  0999 V2000
    0.8833   -0.5100    0.0000 C   0  0  0  0  0  0  0  0  0  0  0  0
   -0.4157    0.2400    0.0000 H   0  0  0  0  0  0  0  0  0  0  0  0
   -0.0808   -1.6591    0.0000 H   0  0  0  0  0  0  0  0  0  0  0  0
    1.8475   -1.6591    0.0000 H   0  0  0  0  0  0  0  0  0  0  0  0
    2.1824    0.2400    0.0000 C   0  0  0  0  0  0  0  0  0  0  0  0
    3.1466    1.3891    0.0000 H   0  0  0  0  0  0  0  0  0  0  0  0
    1.2182    1.3891    0.0000 C   0  0  0  0  0  0  0  0  0  0  0  0
   -0.2590    1.1286    0.0000 H   0  0  0  0  0  0  0  0  0  0  0  0
    2.5172    2.1391    0.0000 H   0  0  0  0  0  0  0  0  0  0  0  0
    0.7052    2.7986    0.0000 H   0  0  0  0  0  0  0  0  0  0  0  0
    3.8971   -0.7500    0.0000 N   0  0  0  0  0  0  0  0  0  0  0  0
    3.8971   -2.2500    0.0000 H   0  0  0  0  0  0  0  0  0  0  0  0
    5.1962   -0.0000    0.0000 C   0  0  0  0  0  0  0  0  0  0  0  0
    6.1603    1.1491    0.0000 H   0  0  0  0  0  0  0  0  0  0  0  0
    4.2320    1.1491    0.0000 H   0  0  0  0  0  0  0  0  0  0  0  0
    6.4952   -0.7500    0.0000 C   0  0  0  0  0  0  0  0  0  0  0  0
    5.5310   -1.8991    0.0000 H   0  0  0  0  0  0  0  0  0  0  0  0
    7.7942   -0.0000    0.0000 C   0  0  0  0  0  0  0  0  0  0  0  0
    9.0933   -0.7500    0.0000 H   0  0  0  0  0  0  0  0  0  0  0  0
    7.7942    1.5000    0.0000 O   0  0  0  0  0  0  0  0  0  0  0  0
    7.4594   -1.8991    0.0000 O   0  0  0  0  0  0  0  0  0  0  0  0
    8.9366   -1.6386    0.0000 H   0  0  0  0  0  0  0  0  0  0  0  0
  1  2  1  0  0  0  0 
  1  3  1  0  0  0  0 
  1  4  1  0  0  0  0 
  1  5  1  0  0  0  0 
  5  6  1  0  0  0  0 
  5  7  1  0  0  0  0 
  7  8  1  0  0  0  0 
  7  9  1  0  0  0  0 
  7 10  1  0  0  0  0 
  5 11  1  0  0  0  0 
 11 12  1  0  0  0  0 
 11 13  1  0  0  0  0 
 13 14  1  0  0  0  0 
 13 15  1  0  0  0  0 
 13 16  1  0  0  0  0 
 16 17  1  0  0  0  0 
 16 18  1  0  0  0  0 
 18 19  1  0  0  0  0 
 18 20  2  0  0  0  0 
 16 21  1  0  0  0  0 
 21 22  1  0  0  0  0 
M  END
> <Rank>
28

> <Priority_score>
0.02

> <Reaction_type>
oxidative ether cleavage to one alcohol and one aldehyde/ketone

> <Parent_ID>
9

> <Parent_InChI>
InChI=1S/C14H22N2O3/c1-10(2)16-8-12(17)9-19-13-5-3-11(4-6-13)7-14(15)18/h3-6,10,12,16-17H,7-9H2,1-2H3,(H2,15,18)

> <Parent_SMILES>
CC(C)NCC(O)COc1ccc(CC(N)=O)cc1

$$$$
Molecule 9_metabolite 30
  CDK     0516241031

 20 20  0  0  0  0  0  0  0  0999 V2000
    2.5481   -1.5000    0.0000 C   0  0  0  0  0  0  0  0  0  0  0  0
    2.5283   -2.9999    0.0000 H   0  0  0  0  0  0  0  0  0  0  0  0
    1.2781   -0.7500    0.0000 C   0  0  0  0  0  0  0  0  0  0  0  0
    1.2781    0.7500    0.0000 C   0  0  0  0  0  0  0  0  0  0  0  0
   -0.0246    1.4936    0.0000 H   0  0  0  0  0  0  0  0  0  0  0  0
    2.5481    1.5000    0.0000 C   0  0  0  0  0  0  0  0  0  0  0  0
    2.5283    2.9999    0.0000 H   0  0  0  0  0  0  0  0  0  0  0  0
    3.8981    0.7500    0.0000 C   0  0  0  0  0  0  0  0  0  0  0  0
    3.8981   -0.7500    0.0000 C   0  0  0  0  0  0  0  0  0  0  0  0
    5.1909   -1.5107    0.0000 H   0  0  0  0  0  0  0  0  0  0  0  0
    5.1909    1.5107    0.0000 O   0  0  0  0  0  0  0  0  0  0  0  0
    6.4961    0.7714    0.0000 H   0  0  0  0  0  0  0  0  0  0  0  0
   -0.0246   -1.4936    0.0000 C   0  0  0  0  0  0  0  0  0  0  0  0
   -0.9944   -2.6379    0.0000 H   0  0  0  0  0  0  0  0  0  0  0  0
    0.9339   -2.6474    0.0000 H   0  0  0  0  0  0  0  0  0  0  0  0
   -1.3199   -0.7372    0.0000 C   0  0  0  0  0  0  0  0  0  0  0  0
   -1.3126    0.7628    0.0000 O   0  0  0  0  0  0  0  0  0  0  0  0
   -2.6227   -1.4808    0.0000 N   0  0  0  0  0  0  0  0  0  0  0  0
   -3.9180   -0.7244    0.0000 H   0  0  0  0  0  0  0  0  0  0  0  0
   -2.6300   -2.9808    0.0000 H   0  0  0  0  0  0  0  0  0  0  0  0
  1  2  1  0  0  0  0 
  1  3  2  0  0  0  0 
  3  4  1  0  0  0  0 
  4  5  1  0  0  0  0 
  4  6  2  0  0  0  0 
  6  7  1  0  0  0  0 
  6  8  1  0  0  0  0 
  8  9  2  0  0  0  0 
  1  9  1  0  0  0  0 
  9 10  1  0  0  0  0 
  8 11  1  0  0  0  0 
 11 12  1  0  0  0  0 
  3 13  1  0  0  0  0 
 13 14  1  0  0  0  0 
 13 15  1  0  0  0  0 
 13 16  1  0  0  0  0 
 16 17  2  0  0  0  0 
 16 18  1  0  0  0  0 
 18 19  1  0  0  0  0 
 18 20  1  0  0  0  0 
M  END
> <Rank>
28

> <Priority_score>
0.02

> <Reaction_type>
O-dealkylation_(aromatic)

> <Parent_ID>
9

> <Parent_InChI>
InChI=1S/C14H22N2O3/c1-10(2)16-8-12(17)9-19-13-5-3-11(4-6-13)7-14(15)18/h3-6,10,12,16-17H,7-9H2,1-2H3,(H2,15,18)

> <Parent_SMILES>
CC(C)NCC(O)COc1ccc(CC(N)=O)cc1

$$$$
Molecule 9_metabolite 31
  CDK     0516241031

 42 42  0  0  0  0  0  0  0  0999 V2000
   -0.6377    3.6629    0.0000 C   0  0  0  0  0  0  0  0  0  0  0  0
   -2.1170    3.9112    0.0000 H   0  0  0  0  0  0  0  0  0  0  0  0
    0.6675    2.9236    0.0000 H   0  0  0  0  0  0  0  0  0  0  0  0
   -1.1391    2.2492    0.0000 H   0  0  0  0  0  0  0  0  0  0  0  0
    0.3170    4.8199    0.0000 C   0  0  0  0  0  0  0  0  0  0  0  0
    1.2906    3.6788    0.0000 H   0  0  0  0  0  0  0  0  0  0  0  0
    1.6098    5.5806    0.0000 C   0  0  0  0  0  0  0  0  0  0  0  0
    2.5645    6.7376    0.0000 H   0  0  0  0  0  0  0  0  0  0  0  0
    0.6362    6.7216    0.0000 H   0  0  0  0  0  0  0  0  0  0  0  0
    2.9150    4.8413    0.0000 O   0  0  0  0  0  0  0  0  0  0  0  0
    4.2078    5.6020    0.0000 H   0  0  0  0  0  0  0  0  0  0  0  0
   -0.9882    5.5591    0.0000 N   0  0  0  0  0  0  0  0  0  0  0  0
   -1.0006    7.0591    0.0000 H   0  0  0  0  0  0  0  0  0  0  0  0
   -2.6947    4.5550    0.0000 C   0  0  0  0  0  0  0  0  0  0  0  0
   -3.6494    3.3980    0.0000 H   0  0  0  0  0  0  0  0  0  0  0  0
   -2.1701    3.1498    0.0000 H   0  0  0  0  0  0  0  0  0  0  0  0
   -3.9999    5.2943    0.0000 C   0  0  0  0  0  0  0  0  0  0  0  0
   -3.0452    6.4513    0.0000 H   0  0  0  0  0  0  0  0  0  0  0  0
   -5.2927    4.5336    0.0000 C   0  0  0  0  0  0  0  0  0  0  0  0
   -6.7677    4.2609    0.0000 H   0  0  0  0  0  0  0  0  0  0  0  0
   -5.8173    5.9388    0.0000 H   0  0  0  0  0  0  0  0  0  0  0  0
   -5.2803    3.0336    0.0000 O   0  0  0  0  0  0  0  0  0  0  0  0
   -6.5731    2.2729    0.0000 C   0  0  0  0  0  0  0  0  0  0  0  0
   -6.5731    0.7286    0.0000 C   0  0  0  0  0  0  0  0  0  0  0  0
   -5.2716   -0.0171    0.0000 H   0  0  0  0  0  0  0  0  0  0  0  0
   -7.8455   -0.0173    0.0000 C   0  0  0  0  0  0  0  0  0  0  0  0
   -7.8281   -1.5172    0.0000 H   0  0  0  0  0  0  0  0  0  0  0  0
   -9.1567    0.7111    0.0000 C   0  0  0  0  0  0  0  0  0  0  0  0
   -9.1956    2.1855    0.0000 C   0  0  0  0  0  0  0  0  0  0  0  0
  -10.5163    2.8967    0.0000 H   0  0  0  0  0  0  0  0  0  0  0  0
   -7.8843    3.0014    0.0000 C   0  0  0  0  0  0  0  0  0  0  0  0
   -7.9215    4.5010    0.0000 H   0  0  0  0  0  0  0  0  0  0  0  0
  -10.4394   -0.0665    0.0000 C   0  0  0  0  0  0  0  0  0  0  0  0
  -11.9107   -0.3586    0.0000 H   0  0  0  0  0  0  0  0  0  0  0  0
  -10.9825    1.3317    0.0000 H   0  0  0  0  0  0  0  0  0  0  0  0
  -10.4073   -1.5662    0.0000 C   0  0  0  0  0  0  0  0  0  0  0  0
   -9.0925   -2.2882    0.0000 O   0  0  0  0  0  0  0  0  0  0  0  0
  -11.6900   -2.3438    0.0000 N   0  0  0  0  0  0  0  0  0  0  0  0
  -11.6578   -3.8435    0.0000 H   0  0  0  0  0  0  0  0  0  0  0  0
  -13.0048   -1.6218    0.0000 H   0  0  0  0  0  0  0  0  0  0  0  0
   -4.9735    6.4354    0.0000 O   0  0  0  0  0  0  0  0  0  0  0  0
   -4.4721    7.8491    0.0000 H   0  0  0  0  0  0  0  0  0  0  0  0
  1  2  1  0  0  0  0 
  1  3  1  0  0  0  0 
  1  4  1  0  0  0  0 
  1  5  1  0  0  0  0 
  5  6  1  0  0  0  0 
  5  7  1  0  0  0  0 
  7  8  1  0  0  0  0 
  7  9  1  0  0  0  0 
  7 10  1  0  0  0  0 
 10 11  1  0  0  0  0 
  5 12  1  0  0  0  0 
 12 13  1  0  0  0  0 
 12 14  1  0  0  0  0 
 14 15  1  0  0  0  0 
 14 16  1  0  0  0  0 
 14 17  1  0  0  0  0 
 17 18  1  0  0  0  0 
 17 19  1  0  0  0  0 
 19 20  1  0  0  0  0 
 19 21  1  0  0  0  0 
 19 22  1  0  0  0  0 
 22 23  1  0  0  0  0 
 23 24  2  0  0  0  0 
 24 25  1  0  0  0  0 
 24 26  1  0  0  0  0 
 26 27  1  0  0  0  0 
 26 28  2  0  0  0  0 
 28 29  1  0  0  0  0 
 29 30  1  0  0  0  0 
 29 31  2  0  0  0  0 
 23 31  1  0  0  0  0 
 31 32  1  0  0  0  0 
 28 33  1  0  0  0  0 
 33 34  1  0  0  0  0 
 33 35  1  0  0  0  0 
 33 36  1  0  0  0  0 
 36 37  2  0  0  0  0 
 36 38  1  0  0  0  0 
 38 39  1  0  0  0  0 
 38 40  1  0  0  0  0 
 17 41  1  0  0  0  0 
 41 42  1  0  0  0  0 
M  END
> <Rank>
31

> <Priority_score>
0.012

> <Reaction_type>
aliphatic hydroxylation

> <Parent_ID>
9

> <Parent_InChI>
InChI=1S/C14H22N2O3/c1-10(2)16-8-12(17)9-19-13-5-3-11(4-6-13)7-14(15)18/h3-6,10,12,16-17H,7-9H2,1-2H3,(H2,15,18)

> <Parent_SMILES>
CC(C)NCC(O)COc1ccc(CC(N)=O)cc1

$$$$
Molecule 9_metabolite 32
  CDK     0516241031

 42 42  0  0  0  0  0  0  0  0999 V2000
    2.4889    4.8572    0.0000 C   0  0  0  0  0  0  0  0  0  0  0  0
    3.7941    4.1179    0.0000 H   0  0  0  0  0  0  0  0  0  0  0  0
    3.4436    6.0141    0.0000 H   0  0  0  0  0  0  0  0  0  0  0  0
    1.5153    5.9982    0.0000 H   0  0  0  0  0  0  0  0  0  0  0  0
    1.1961    4.0965    0.0000 C   0  0  0  0  0  0  0  0  0  0  0  0
    0.2414    2.9395    0.0000 H   0  0  0  0  0  0  0  0  0  0  0  0
    2.1697    2.9554    0.0000 C   0  0  0  0  0  0  0  0  0  0  0  0
    3.6447    3.2280    0.0000 H   0  0  0  0  0  0  0  0  0  0  0  0
    0.8769    2.1947    0.0000 H   0  0  0  0  0  0  0  0  0  0  0  0
    2.6944    1.5501    0.0000 H   0  0  0  0  0  0  0  0  0  0  0  0
   -0.5267    5.0723    0.0000 N   0  0  0  0  0  0  0  0  0  0  0  0
   -0.5391    6.5722    0.0000 H   0  0  0  0  0  0  0  0  0  0  0  0
   -1.8195    4.3116    0.0000 C   0  0  0  0  0  0  0  0  0  0  0  0
   -2.7742    3.1546    0.0000 H   0  0  0  0  0  0  0  0  0  0  0  0
   -0.8459    3.1705    0.0000 H   0  0  0  0  0  0  0  0  0  0  0  0
   -3.1247    5.0509    0.0000 C   0  0  0  0  0  0  0  0  0  0  0  0
   -2.1701    6.2078    0.0000 H   0  0  0  0  0  0  0  0  0  0  0  0
   -4.4175    4.2902    0.0000 C   0  0  0  0  0  0  0  0  0  0  0  0
   -5.8925    4.0175    0.0000 H   0  0  0  0  0  0  0  0  0  0  0  0
   -4.9422    5.6954    0.0000 O   0  0  0  0  0  0  0  0  0  0  0  0
   -6.4215    5.9437    0.0000 H   0  0  0  0  0  0  0  0  0  0  0  0
   -4.4052    2.7902    0.0000 O   0  0  0  0  0  0  0  0  0  0  0  0
   -5.6980    2.0295    0.0000 C   0  0  0  0  0  0  0  0  0  0  0  0
   -5.6980    0.4852    0.0000 C   0  0  0  0  0  0  0  0  0  0  0  0
   -4.3964   -0.2605    0.0000 H   0  0  0  0  0  0  0  0  0  0  0  0
   -6.9703   -0.2608    0.0000 C   0  0  0  0  0  0  0  0  0  0  0  0
   -6.9530   -1.7607    0.0000 H   0  0  0  0  0  0  0  0  0  0  0  0
   -8.2816    0.4677    0.0000 C   0  0  0  0  0  0  0  0  0  0  0  0
   -8.3204    1.9421    0.0000 C   0  0  0  0  0  0  0  0  0  0  0  0
   -9.6412    2.6532    0.0000 H   0  0  0  0  0  0  0  0  0  0  0  0
   -7.0092    2.7580    0.0000 C   0  0  0  0  0  0  0  0  0  0  0  0
   -7.0463    4.2575    0.0000 H   0  0  0  0  0  0  0  0  0  0  0  0
   -9.5643   -0.3100    0.0000 C   0  0  0  0  0  0  0  0  0  0  0  0
  -11.0356   -0.6020    0.0000 H   0  0  0  0  0  0  0  0  0  0  0  0
  -10.1074    1.0883    0.0000 H   0  0  0  0  0  0  0  0  0  0  0  0
   -9.5321   -1.8096    0.0000 C   0  0  0  0  0  0  0  0  0  0  0  0
   -8.2173   -2.5316    0.0000 O   0  0  0  0  0  0  0  0  0  0  0  0
  -10.8148   -2.5873    0.0000 N   0  0  0  0  0  0  0  0  0  0  0  0
  -10.7827   -4.0869    0.0000 H   0  0  0  0  0  0  0  0  0  0  0  0
  -12.1296   -1.8653    0.0000 H   0  0  0  0  0  0  0  0  0  0  0  0
   -4.0984    6.1919    0.0000 O   0  0  0  0  0  0  0  0  0  0  0  0
   -3.5970    7.6057    0.0000 H   0  0  0  0  0  0  0  0  0  0  0  0
  1  2  1  0  0  0  0 
  1  3  1  0  0  0  0 
  1  4  1  0  0  0  0 
  1  5  1  0  0  0  0 
  5  6  1  0  0  0  0 
  5  7  1  0  0  0  0 
  7  8  1  0  0  0  0 
  7  9  1  0  0  0  0 
  7 10  1  0  0  0  0 
  5 11  1  0  0  0  0 
 11 12  1  0  0  0  0 
 11 13  1  0  0  0  0 
 13 14  1  0  0  0  0 
 13 15  1  0  0  0  0 
 13 16  1  0  0  0  0 
 16 17  1  0  0  0  0 
 16 18  1  0  0  0  0 
 18 19  1  0  0  0  0 
 18 20  1  0  0  0  0 
 20 21  1  0  0  0  0 
 18 22  1  0  0  0  0 
 22 23  1  0  0  0  0 
 23 24  2  0  0  0  0 
 24 25  1  0  0  0  0 
 24 26  1  0  0  0  0 
 26 27  1  0  0  0  0 
 26 28  2  0  0  0  0 
 28 29  1  0  0  0  0 
 29 30  1  0  0  0  0 
 29 31  2  0  0  0  0 
 23 31  1  0  0  0  0 
 31 32  1  0  0  0  0 
 28 33  1  0  0  0  0 
 33 34  1  0  0  0  0 
 33 35  1  0  0  0  0 
 33 36  1  0  0  0  0 
 36 37  2  0  0  0  0 
 36 38  1  0  0  0  0 
 38 39  1  0  0  0  0 
 38 40  1  0  0  0  0 
 16 41  1  0  0  0  0 
 41 42  1  0  0  0  0 
M  END
> <Rank>
32

> <Priority_score>
0.008

> <Reaction_type>
aliphatic hydroxylation

> <Parent_ID>
9

> <Parent_InChI>
InChI=1S/C14H22N2O3/c1-10(2)16-8-12(17)9-19-13-5-3-11(4-6-13)7-14(15)18/h3-6,10,12,16-17H,7-9H2,1-2H3,(H2,15,18)

> <Parent_SMILES>
CC(C)NCC(O)COc1ccc(CC(N)=O)cc1

$$$$
Molecule 10
  CDK     0516241031

 35 36  0  0  0  0  0  0  0  0999 V2000
    3.1225   -0.6120    0.0000 C   0  0  0  0  0  0  0  0  0  0  0  0
    2.6487    0.8113    0.0000 C   0  0  0  0  0  0  0  0  0  0  0  0
    3.6444    1.9331    0.0000 C   0  0  0  0  0  0  0  0  0  0  0  0
    1.1793    1.1126    0.0000 O   0  0  0  0  0  0  0  0  0  0  0  0
    0.7056    2.5358    0.0000 C   0  0  0  0  0  0  0  0  0  0  0  0
    1.7013    3.6577    0.0000 O   0  0  0  0  0  0  0  0  0  0  0  0
   -0.7638    2.8372    0.0000 C   0  0  0  0  0  0  0  0  0  0  0  0
   -1.2376    4.2604    0.0000 C   0  0  0  0  0  0  0  0  0  0  0  0
   -2.7070    4.5618    0.0000 C   0  0  0  0  0  0  0  0  0  0  0  0
   -3.1807    5.9850    0.0000 C   0  0  0  0  0  0  0  0  0  0  0  0
   -4.6501    6.2863    0.0000 C   0  0  0  0  0  0  0  0  0  0  0  0
   -5.6458    5.1645    0.0000 C   0  0  0  0  0  0  0  0  0  0  0  0
   -7.1152    5.4658    0.0000 C   0  0  2  0  0  0  0  0  0  0  0  0
   -8.2189    4.4499    0.0000 C   0  0  1  0  0  0  0  0  0  0  0  0
   -8.0432    2.9603    0.0000 C   0  0  0  0  0  0  0  0  0  0  0  0
   -6.6653    2.3676    0.0000 C   0  0  0  0  0  0  0  0  0  0  0  0
   -6.4896    0.8779    0.0000 C   0  0  2  0  0  0  0  0  0  0  0  0
   -5.1117    0.2852    0.0000 C   0  0  0  0  0  0  0  0  0  0  0  0
   -4.9361   -1.2045    0.0000 O   0  0  0  0  0  0  0  0  0  0  0  0
   -3.5581   -1.7972    0.0000 C   0  0  0  0  0  0  0  0  0  0  0  0
   -3.3804   -3.2875    0.0000 C   0  0  0  0  0  0  0  0  0  0  0  0
   -2.0014   -3.8779    0.0000 C   0  0  0  0  0  0  0  0  0  0  0  0
   -0.8003   -2.9780    0.0000 C   0  0  0  0  0  0  0  0  0  0  0  0
   -0.9820   -1.4970    0.0000 C   0  0  0  0  0  0  0  0  0  0  0  0
   -2.3609   -0.9066    0.0000 C   0  0  0  0  0  0  0  0  0  0  0  0
   -1.8230   -5.3673    0.0000 C   0  0  0  0  0  0  0  0  0  0  0  0
   -0.4440   -5.9574    0.0000 F   0  0  0  0  0  0  0  0  0  0  0  0
   -2.1648   -6.8278    0.0000 F   0  0  0  0  0  0  0  0  0  0  0  0
   -3.3207   -5.2843    0.0000 F   0  0  0  0  0  0  0  0  0  0  0  0
   -7.6919   -0.0191    0.0000 O   0  0  0  0  0  0  0  0  0  0  0  0
   -9.5332    5.1838    0.0000 C   0  0  1  0  0  0  0  0  0  0  0  0
   -9.2241    6.6643    0.0000 C   0  0  0  0  0  0  0  0  0  0  0  0
   -7.7243    6.8215    0.0000 C   0  0  2  0  0  0  0  0  0  0  0  0
   -6.9764    8.1217    0.0000 O   0  0  0  0  0  0  0  0  0  0  0  0
  -10.8979    4.5614    0.0000 O   0  0  0  0  0  0  0  0  0  0  0  0
  1  2  1  0  0  0  0 
  2  3  1  0  0  0  0 
  2  4  1  0  0  0  0 
  4  5  1  0  0  0  0 
  5  6  2  0  0  0  0 
  5  7  1  0  0  0  0 
  7  8  1  0  0  0  0 
  8  9  1  0  0  0  0 
  9 10  1  0  0  0  0 
 10 11  2  0  0  0  0 
 11 12  1  0  0  0  0 
 13 12  1  6  0  0  0 
 13 14  1  0  0  0  0 
 14 15  1  1  0  0  0 
 15 16  2  0  0  0  0 
 16 17  1  0  0  0  0 
 17 18  1  0  0  0  0 
 18 19  1  0  0  0  0 
 19 20  1  0  0  0  0 
 20 21  2  0  0  0  0 
 21 22  1  0  0  0  0 
 22 23  2  0  0  0  0 
 23 24  1  0  0  0  0 
 24 25  2  0  0  0  0 
 20 25  1  0  0  0  0 
 22 26  1  0  0  0  0 
 26 27  1  0  0  0  0 
 26 28  1  0  0  0  0 
 26 29  1  0  0  0  0 
 17 30  1  6  0  0  0 
 14 31  1  0  0  0  0 
 31 32  1  0  0  0  0 
 32 33  1  0  0  0  0 
 13 33  1  0  0  0  0 
 33 34  1  6  0  0  0 
 31 35  1  6  0  0  0 
M  END
> <SMILES>
CC(C)OC(=O)CCC/C=C\C[C@H]1[C@@H](O)C[C@@H](O)[C@@H]1/C=C/[C@@H](O)COc1cccc(C(F)(F)F)c1

$$$$
Molecule 10_metabolite 1
  CDK     0516241031

 90 92  0  0  0  0  0  0  0  0999 V2000
   -5.8717    1.8339    0.0000 C   0  0  0  0  0  0  0  0  0  0  0  0
   -7.3175    2.2334    0.0000 H   0  0  0  0  0  0  0  0  0  0  0  0
   -6.5163    0.4794    0.0000 H   0  0  0  0  0  0  0  0  0  0  0  0
   -4.6498    0.9639    0.0000 H   0  0  0  0  0  0  0  0  0  0  0  0
   -4.8028    2.8862    0.0000 C   0  0  0  0  0  0  0  0  0  0  0  0
   -4.1583    4.2406    0.0000 H   0  0  0  0  0  0  0  0  0  0  0  0
   -6.0248    3.7561    0.0000 C   0  0  0  0  0  0  0  0  0  0  0  0
   -7.3891    3.1329    0.0000 H   0  0  0  0  0  0  0  0  0  0  0  0
   -4.9558    4.8085    0.0000 H   0  0  0  0  0  0  0  0  0  0  0  0
   -6.8755    4.9916    0.0000 H   0  0  0  0  0  0  0  0  0  0  0  0
   -3.3570    2.4866    0.0000 O   0  0  0  0  0  0  0  0  0  0  0  0
   -2.2881    3.5389    0.0000 C   0  0  0  0  0  0  0  0  0  0  0  0
   -2.6649    4.9908    0.0000 O   0  0  0  0  0  0  0  0  0  0  0  0
   -0.8423    3.1394    0.0000 C   0  0  0  0  0  0  0  0  0  0  0  0
   -1.4868    1.7849    0.0000 H   0  0  0  0  0  0  0  0  0  0  0  0
    0.3797    2.2694    0.0000 H   0  0  0  0  0  0  0  0  0  0  0  0
    0.2267    4.1917    0.0000 C   0  0  0  0  0  0  0  0  0  0  0  0
    0.8712    5.5461    0.0000 H   0  0  0  0  0  0  0  0  0  0  0  0
   -0.9953    5.0617    0.0000 H   0  0  0  0  0  0  0  0  0  0  0  0
    2.5978    3.5364    0.0000 C   0  0  0  0  0  0  0  0  0  0  0  0
    1.9532    2.1819    0.0000 H   0  0  0  0  0  0  0  0  0  0  0  0
    3.8197    2.6664    0.0000 H   0  0  0  0  0  0  0  0  0  0  0  0
    3.6667    4.5887    0.0000 C   0  0  0  0  0  0  0  0  0  0  0  0
    3.2898    6.0406    0.0000 H   0  0  0  0  0  0  0  0  0  0  0  0
    6.0378    3.9334    0.0000 C   0  0  0  0  0  0  0  0  0  0  0  0
    7.1068    4.9858    0.0000 H   0  0  0  0  0  0  0  0  0  0  0  0
    6.4147    2.4816    0.0000 C   0  0  0  0  0  0  0  0  0  0  0  0
    6.2723    0.9883    0.0000 H   0  0  0  0  0  0  0  0  0  0  0  0
    4.9194    2.3625    0.0000 H   0  0  0  0  0  0  0  0  0  0  0  0
    9.2485    1.6984    0.0000 C   0  0  2  0  0  0  0  0  0  0  0  0
    9.4910    3.1787    0.0000 H   0  0  0  0  0  0  0  0  0  0  0  0
   10.7462    1.6158    0.0000 C   0  0  1  0  0  0  0  0  0  0  0  0
   10.6702    3.1138    0.0000 H   0  0  0  0  0  0  0  0  0  0  0  0
   12.7020    1.9245    0.0000 C   0  0  0  0  0  0  0  0  0  0  0  0
   13.6454    0.7583    0.0000 H   0  0  0  0  0  0  0  0  0  0  0  0
   13.2403    3.3246    0.0000 C   0  0  0  0  0  0  0  0  0  0  0  0
   12.2969    4.4908    0.0000 H   0  0  0  0  0  0  0  0  0  0  0  0
   14.7219    3.5585    0.0000 C   0  0  2  0  0  0  0  0  0  0  0  0
   14.6950    2.0587    0.0000 H   0  0  0  0  0  0  0  0  0  0  0  0
   16.1942    3.2715    0.0000 C   0  0  0  0  0  0  0  0  0  0  0  0
   15.6559    1.8714    0.0000 H   0  0  0  0  0  0  0  0  0  0  0  0
   17.4796    2.4983    0.0000 H   0  0  0  0  0  0  0  0  0  0  0  0
   17.1789    4.4031    0.0000 O   0  0  0  0  0  0  0  0  0  0  0  0
   18.6512    4.1161    0.0000 C   0  0  0  0  0  0  0  0  0  0  0  0
   19.6379    5.2470    0.0000 C   0  0  0  0  0  0  0  0  0  0  0  0
   19.1524    6.6662    0.0000 H   0  0  0  0  0  0  0  0  0  0  0  0
   21.1097    4.9575    0.0000 C   0  0  0  0  0  0  0  0  0  0  0  0
   21.5948    3.5373    0.0000 C   0  0  0  0  0  0  0  0  0  0  0  0
   23.0661    3.2454    0.0000 H   0  0  0  0  0  0  0  0  0  0  0  0
   20.6100    2.4162    0.0000 C   0  0  0  0  0  0  0  0  0  0  0  0
   21.0931    0.9961    0.0000 H   0  0  0  0  0  0  0  0  0  0  0  0
   19.1382    2.7056    0.0000 C   0  0  0  0  0  0  0  0  0  0  0  0
   18.1533    1.5742    0.0000 H   0  0  0  0  0  0  0  0  0  0  0  0
   22.0965    6.0873    0.0000 C   0  0  0  0  0  0  0  0  0  0  0  0
   23.5682    5.7976    0.0000 F   0  0  0  0  0  0  0  0  0  0  0  0
   22.6373    7.4864    0.0000 F   0  0  0  0  0  0  0  0  0  0  0  0
   20.8125    6.8629    0.0000 F   0  0  0  0  0  0  0  0  0  0  0  0
   15.2602    4.9586    0.0000 O   0  0  0  0  0  0  0  0  0  0  0  0
   14.3168    6.1248    0.0000 C   0  0  0  0  0  0  0  0  0  0  0  0
   13.3295    4.9955    0.0000 H   0  0  0  0  0  0  0  0  0  0  0  0
   15.6187    6.8495    0.0000 C   0  0  0  0  0  0  0  0  0  0  0  0
   17.0996    7.0880    0.0000 H   0  0  0  0  0  0  0  0  0  0  0  0
   15.6407    8.3725    0.0000 C   0  0  0  0  0  0  0  0  0  0  0  0
   16.1701    9.7760    0.0000 H   0  0  0  0  0  0  0  0  0  0  0  0
   14.3444    9.1387    0.0000 C   0  0  0  0  0  0  0  0  0  0  0  0
   13.3962   10.3010    0.0000 H   0  0  0  0  0  0  0  0  0  0  0  0
   13.0425    8.4140    0.0000 C   0  0  0  0  0  0  0  0  0  0  0  0
   11.5614    8.1764    0.0000 H   0  0  0  0  0  0  0  0  0  0  0  0
   12.2372   10.7385    0.0000 C   0  0  0  0  0  0  0  0  0  0  0  0
   10.7642   11.0219    0.0000 O   0  0  0  0  0  0  0  0  0  0  0  0
   13.2191   11.8724    0.0000 O   0  0  0  0  0  0  0  0  0  0  0  0
   12.7281   13.2897    0.0000 H   0  0  0  0  0  0  0  0  0  0  0  0
   13.0195    6.9134    0.0000 O   0  0  0  0  0  0  0  0  0  0  0  0
   15.3223   10.2761    0.0000 O   0  0  0  0  0  0  0  0  0  0  0  0
   14.8263   11.6917    0.0000 H   0  0  0  0  0  0  0  0  0  0  0  0
   17.1144    8.0927    0.0000 O   0  0  0  0  0  0  0  0  0  0  0  0
   18.0935    9.2291    0.0000 H   0  0  0  0  0  0  0  0  0  0  0  0
   16.1101    5.4323    0.0000 O   0  0  0  0  0  0  0  0  0  0  0  0
   17.5832    5.1493    0.0000 H   0  0  0  0  0  0  0  0  0  0  0  0
   11.1367    0.1620    0.0000 C   0  0  1  0  0  0  0  0  0  0  0  0
   12.5386    0.6955    0.0000 H   0  0  0  0  0  0  0  0  0  0  0  0
    9.8601   -0.6489    0.0000 C   0  0  0  0  0  0  0  0  0  0  0  0
   10.7907   -1.8252    0.0000 H   0  0  0  0  0  0  0  0  0  0  0  0
    8.7861   -1.6960    0.0000 H   0  0  0  0  0  0  0  0  0  0  0  0
    8.7015    0.3165    0.0000 C   0  0  2  0  0  0  0  0  0  0  0  0
    7.8685   -0.9310    0.0000 H   0  0  0  0  0  0  0  0  0  0  0  0
    7.3730    1.0129    0.0000 O   0  0  0  0  0  0  0  0  0  0  0  0
    6.1056    0.2105    0.0000 H   0  0  0  0  0  0  0  0  0  0  0  0
   11.8090   -1.1789    0.0000 O   0  0  0  0  0  0  0  0  0  0  0  0
   13.3064   -1.2671    0.0000 H   0  0  0  0  0  0  0  0  0  0  0  0
  1  2  1  0  0  0  0 
  1  3  1  0  0  0  0 
  1  4  1  0  0  0  0 
  1  5  1  0  0  0  0 
  5  6  1  0  0  0  0 
  5  7  1  0  0  0  0 
  7  8  1  0  0  0  0 
  7  9  1  0  0  0  0 
  7 10  1  0  0  0  0 
  5 11  1  0  0  0  0 
 11 12  1  0  0  0  0 
 12 13  2  0  0  0  0 
 12 14  1  0  0  0  0 
 14 15  1  0  0  0  0 
 14 16  1  0  0  0  0 
 14 17  1  0  0  0  0 
 17 18  1  0  0  0  0 
 17 19  1  0  0  0  0 
 17 20  1  0  0  0  0 
 20 21  1  0  0  0  0 
 20 22  1  0  0  0  0 
 20 23  1  0  0  0  0 
 23 24  1  0  0  0  0 
 23 25  2  0  0  0  0 
 25 26  1  0  0  0  0 
 25 27  1  0  0  0  0 
 27 28  1  0  0  0  0 
 27 29  1  0  0  0  0 
 30 27  1  6  0  0  0 
 30 31  1  1  0  0  0 
 30 32  1  0  0  0  0 
 32 33  1  6  0  0  0 
 32 34  1  1  0  0  0 
 34 35  1  0  0  0  0 
 34 36  2  0  0  0  0 
 36 37  1  0  0  0  0 
 36 38  1  0  0  0  0 
 38 39  1  6  0  0  0 
 38 40  1  1  0  0  0 
 40 41  1  0  0  0  0 
 40 42  1  0  0  0  0 
 40 43  1  0  0  0  0 
 43 44  1  0  0  0  0 
 44 45  2  0  0  0  0 
 45 46  1  0  0  0  0 
 45 47  1  0  0  0  0 
 47 48  2  0  0  0  0 
 48 49  1  0  0  0  0 
 48 50  1  0  0  0  0 
 50 51  1  0  0  0  0 
 50 52  2  0  0  0  0 
 44 52  1  0  0  0  0 
 52 53  1  0  0  0  0 
 47 54  1  0  0  0  0 
 54 55  1  0  0  0  0 
 54 56  1  0  0  0  0 
 54 57  1  0  0  0  0 
 38 58  1  0  0  0  0 
 58 59  1  0  0  0  0 
 59 60  1  0  0  0  0 
 59 61  1  0  0  0  0 
 61 62  1  0  0  0  0 
 61 63  1  0  0  0  0 
 63 64  1  0  0  0  0 
 63 65  1  0  0  0  0 
 65 66  1  0  0  0  0 
 65 67  1  0  0  0  0 
 67 68  1  0  0  0  0 
 67 69  1  0  0  0  0 
 69 70  2  0  0  0  0 
 69 71  1  0  0  0  0 
 71 72  1  0  0  0  0 
 67 73  1  0  0  0  0 
 59 73  1  0  0  0  0 
 65 74  1  0  0  0  0 
 74 75  1  0  0  0  0 
 63 76  1  0  0  0  0 
 76 77  1  0  0  0  0 
 61 78  1  0  0  0  0 
 78 79  1  0  0  0  0 
 32 80  1  0  0  0  0 
 80 81  1  1  0  0  0 
 80 82  1  0  0  0  0 
 82 83  1  0  0  0  0 
 82 84  1  0  0  0  0 
 82 85  1  0  0  0  0 
 30 85  1  0  0  0  0 
 85 86  1  1  0  0  0 
 85 87  1  6  0  0  0 
 87 88  1  0  0  0  0 
 80 89  1  6  0  0  0 
 89 90  1  0  0  0  0 
M  END
> <Rank>
1

> <Priority_score>
0.772

> <Reaction_type>
O-glucuronidation_(aliphatic_hydroxyl)

> <Parent_ID>
10

> <Parent_InChI>
InChI=1S/C26H35F3O6/c1-17(2)35-25(33)11-6-4-3-5-10-21-22(24(32)15-23(21)31)13-12-19(30)16-34-20-9-7-8-18(14-20)26(27,28)29/h3,5,7-9,12-14,17,19,21-24,30-32H,4,6,10-11,15-16H2,1-2H3

> <Parent_SMILES>
CC(C)OC(=O)CCC/C=C\C[C@H]1[C@@H](O)C[C@@H](O)[C@@H]1/C=C/[C@@H](O)COc1cccc(C(F)(F)F)c1

$$$$
Molecule 10_metabolite 2
  CDK     0516241031

 74 75  0  0  0  0  0  0  0  0999 V2000
  -10.4505   11.5042    0.0000 C   0  0  0  0  0  0  0  0  0  0  0  0
   -9.8281   10.1394    0.0000 H   0  0  0  0  0  0  0  0  0  0  0  0
  -10.5686   12.9995    0.0000 H   0  0  0  0  0  0  0  0  0  0  0  0
   -8.9984   11.8801    0.0000 H   0  0  0  0  0  0  0  0  0  0  0  0
  -11.9437   11.6476    0.0000 C   0  0  0  0  0  0  0  0  0  0  0  0
  -11.8256   10.1522    0.0000 H   0  0  0  0  0  0  0  0  0  0  0  0
  -13.3958   11.2716    0.0000 C   0  0  0  0  0  0  0  0  0  0  0  0
  -13.7963    9.8260    0.0000 H   0  0  0  0  0  0  0  0  0  0  0  0
  -14.8889   11.4150    0.0000 H   0  0  0  0  0  0  0  0  0  0  0  0
  -13.5139   12.7669    0.0000 H   0  0  0  0  0  0  0  0  0  0  0  0
  -12.5661   13.0123    0.0000 O   0  0  0  0  0  0  0  0  0  0  0  0
  -11.6954   14.2337    0.0000 C   0  0  0  0  0  0  0  0  0  0  0  0
  -10.2022   14.0904    0.0000 O   0  0  0  0  0  0  0  0  0  0  0  0
  -12.3178   15.5985    0.0000 C   0  0  0  0  0  0  0  0  0  0  0  0
  -13.3694   16.6681    0.0000 H   0  0  0  0  0  0  0  0  0  0  0  0
  -13.5537   14.7486    0.0000 H   0  0  0  0  0  0  0  0  0  0  0  0
  -11.4470   16.8199    0.0000 C   0  0  0  0  0  0  0  0  0  0  0  0
  -12.8011   17.4653    0.0000 H   0  0  0  0  0  0  0  0  0  0  0  0
  -11.0466   18.2655    0.0000 H   0  0  0  0  0  0  0  0  0  0  0  0
   -9.9539   16.6766    0.0000 C   0  0  0  0  0  0  0  0  0  0  0  0
   -8.5999   16.0311    0.0000 H   0  0  0  0  0  0  0  0  0  0  0  0
  -10.3544   15.2310    0.0000 H   0  0  0  0  0  0  0  0  0  0  0  0
   -9.0832   17.8980    0.0000 C   0  0  0  0  0  0  0  0  0  0  0  0
   -9.7056   19.2627    0.0000 H   0  0  0  0  0  0  0  0  0  0  0  0
   -7.1122   17.7087    0.0000 C   0  0  0  0  0  0  0  0  0  0  0  0
   -6.2415   18.9301    0.0000 H   0  0  0  0  0  0  0  0  0  0  0  0
   -6.0915   15.4705    0.0000 C   0  0  0  0  0  0  0  0  0  0  0  0
   -7.5436   15.0945    0.0000 H   0  0  0  0  0  0  0  0  0  0  0  0
   -5.9734   13.9751    0.0000 H   0  0  0  0  0  0  0  0  0  0  0  0
   -4.1206   15.2812    0.0000 C   0  0  2  0  0  0  0  0  0  0  0  0
   -4.4229   13.8120    0.0000 H   0  0  0  0  0  0  0  0  0  0  0  0
   -2.6922   14.8233    0.0000 C   0  0  1  0  0  0  0  0  0  0  0  0
   -3.2984   13.4513    0.0000 H   0  0  0  0  0  0  0  0  0  0  0  0
   -0.9758   13.8362    0.0000 C   0  0  0  0  0  0  0  0  0  0  0  0
    0.3220   14.5884    0.0000 H   0  0  0  0  0  0  0  0  0  0  0  0
   -0.9733   12.3362    0.0000 C   0  0  0  0  0  0  0  0  0  0  0  0
   -2.2710   11.5840    0.0000 H   0  0  0  0  0  0  0  0  0  0  0  0
    0.3270   11.5884    0.0000 C   0  0  2  0  0  0  0  0  0  0  0  0
    1.8047   11.3304    0.0000 H   0  0  0  0  0  0  0  0  0  0  0  0
    0.3295   10.0884    0.0000 C   0  0  0  0  0  0  0  0  0  0  0  0
   -1.1481   10.3464    0.0000 H   0  0  0  0  0  0  0  0  0  0  0  0
   -0.1811    8.6780    0.0000 H   0  0  0  0  0  0  0  0  0  0  0  0
    1.6298    9.3406    0.0000 O   0  0  0  0  0  0  0  0  0  0  0  0
    1.6323    7.8406    0.0000 C   0  0  0  0  0  0  0  0  0  0  0  0
    2.9323    7.0906    0.0000 C   0  0  0  0  0  0  0  0  0  0  0  0
    4.2313    7.8408    0.0000 H   0  0  0  0  0  0  0  0  0  0  0  0
    2.9323    5.5906    0.0000 C   0  0  0  0  0  0  0  0  0  0  0  0
    1.6323    4.8406    0.0000 C   0  0  0  0  0  0  0  0  0  0  0  0
    1.6298    3.3406    0.0000 H   0  0  0  0  0  0  0  0  0  0  0  0
    0.3423    5.5906    0.0000 C   0  0  0  0  0  0  0  0  0  0  0  0
   -0.9578    4.8425    0.0000 H   0  0  0  0  0  0  0  0  0  0  0  0
    0.3423    7.0906    0.0000 C   0  0  0  0  0  0  0  0  0  0  0  0
   -0.9578    7.8386    0.0000 H   0  0  0  0  0  0  0  0  0  0  0  0
    4.2313    4.8404    0.0000 C   0  0  0  0  0  0  0  0  0  0  0  0
    4.2310    3.3404    0.0000 F   0  0  0  0  0  0  0  0  0  0  0  0
    5.7084    4.5796    0.0000 F   0  0  0  0  0  0  0  0  0  0  0  0
    4.7445    6.2498    0.0000 F   0  0  0  0  0  0  0  0  0  0  0  0
    0.8377   12.9988    0.0000 O   0  0  0  0  0  0  0  0  0  0  0  0
    2.3145   13.2617    0.0000 S   0  0  0  0  0  0  0  0  0  0  0  0
    3.6122   14.0139    0.0000 O   0  0  0  0  0  0  0  0  0  0  0  0
    1.7991   14.6704    0.0000 O   0  0  0  0  0  0  0  0  0  0  0  0
    3.2806   12.1143    0.0000 O   0  0  0  0  0  0  0  0  0  0  0  0
    4.7573   12.3772    0.0000 H   0  0  0  0  0  0  0  0  0  0  0  0
   -1.8081   16.0416    0.0000 C   0  0  1  0  0  0  0  0  0  0  0  0
   -0.6892   15.0425    0.0000 H   0  0  0  0  0  0  0  0  0  0  0  0
   -2.7107   17.2551    0.0000 C   0  0  0  0  0  0  0  0  0  0  0  0
   -1.4212   18.0213    0.0000 H   0  0  0  0  0  0  0  0  0  0  0  0
   -3.3397   18.6168    0.0000 H   0  0  0  0  0  0  0  0  0  0  0  0
   -4.1377   16.7674    0.0000 C   0  0  2  0  0  0  0  0  0  0  0  0
   -4.4700   18.2301    0.0000 H   0  0  0  0  0  0  0  0  0  0  0  0
   -5.6274   16.5916    0.0000 O   0  0  0  0  0  0  0  0  0  0  0  0
   -7.0985   18.5633    0.0000 H   0  0  0  0  0  0  0  0  0  0  0  0
   -0.7011   17.0538    0.0000 O   0  0  0  0  0  0  0  0  0  0  0  0
    0.7290   16.6012    0.0000 H   0  0  0  0  0  0  0  0  0  0  0  0
  1  2  1  0  0  0  0 
  1  3  1  0  0  0  0 
  1  4  1  0  0  0  0 
  1  5  1  0  0  0  0 
  5  6  1  0  0  0  0 
  5  7  1  0  0  0  0 
  7  8  1  0  0  0  0 
  7  9  1  0  0  0  0 
  7 10  1  0  0  0  0 
  5 11  1  0  0  0  0 
 11 12  1  0  0  0  0 
 12 13  2  0  0  0  0 
 12 14  1  0  0  0  0 
 14 15  1  0  0  0  0 
 14 16  1  0  0  0  0 
 14 17  1  0  0  0  0 
 17 18  1  0  0  0  0 
 17 19  1  0  0  0  0 
 17 20  1  0  0  0  0 
 20 21  1  0  0  0  0 
 20 22  1  0  0  0  0 
 20 23  1  0  0  0  0 
 23 24  1  0  0  0  0 
 23 25  2  0  0  0  0 
 25 26  1  0  0  0  0 
 25 27  1  0  0  0  0 
 27 28  1  0  0  0  0 
 27 29  1  0  0  0  0 
 30 27  1  1  0  0  0 
 30 31  1  6  0  0  0 
 30 32  1  0  0  0  0 
 32 33  1  1  0  0  0 
 32 34  1  6  0  0  0 
 34 35  1  0  0  0  0 
 34 36  2  0  0  0  0 
 36 37  1  0  0  0  0 
 36 38  1  0  0  0  0 
 38 39  1  6  0  0  0 
 38 40  1  0  0  0  0 
 40 41  1  0  0  0  0 
 40 42  1  0  0  0  0 
 40 43  1  0  0  0  0 
 43 44  1  0  0  0  0 
 44 45  2  0  0  0  0 
 45 46  1  0  0  0  0 
 45 47  1  0  0  0  0 
 47 48  2  0  0  0  0 
 48 49  1  0  0  0  0 
 48 50  1  0  0  0  0 
 50 51  1  0  0  0  0 
 50 52  2  0  0  0  0 
 44 52  1  0  0  0  0 
 52 53  1  0  0  0  0 
 47 54  1  0  0  0  0 
 54 55  1  0  0  0  0 
 54 56  1  0  0  0  0 
 54 57  1  0  0  0  0 
 38 58  1  1  0  0  0 
 58 59  1  0  0  0  0 
 59 60  2  0  0  0  0 
 59 61  2  0  0  0  0 
 59 62  1  0  0  0  0 
 62 63  1  0  0  0  0 
 32 64  1  0  0  0  0 
 64 65  1  6  0  0  0 
 64 66  1  0  0  0  0 
 66 67  1  0  0  0  0 
 66 68  1  0  0  0  0 
 66 69  1  0  0  0  0 
 30 69  1  0  0  0  0 
 69 70  1  6  0  0  0 
 69 71  1  1  0  0  0 
 71 72  1  0  0  0  0 
 64 73  1  1  0  0  0 
 73 74  1  0  0  0  0 
M  END
> <Rank>
2

> <Priority_score>
0.324

> <Reaction_type>
sulfation_(aliphatic_hydroxyl)

> <Parent_ID>
10

> <Parent_InChI>
InChI=1S/C26H35F3O6/c1-17(2)35-25(33)11-6-4-3-5-10-21-22(24(32)15-23(21)31)13-12-19(30)16-34-20-9-7-8-18(14-20)26(27,28)29/h3,5,7-9,12-14,17,19,21-24,30-32H,4,6,10-11,15-16H2,1-2H3

> <Parent_SMILES>
CC(C)OC(=O)CCC/C=C\C[C@H]1[C@@H](O)C[C@@H](O)[C@@H]1/C=C/[C@@H](O)COc1cccc(C(F)(F)F)c1

$$$$
Molecule 10_metabolite 3
  CDK     0516241031

 71 72  0  0  0  0  0  0  0  0999 V2000
    4.3229   11.8842    0.0000 C   0  0  0  0  0  0  0  0  0  0  0  0
    3.4522   10.6628    0.0000 H   0  0  0  0  0  0  0  0  0  0  0  0
    5.5589   12.7341    0.0000 H   0  0  0  0  0  0  0  0  0  0  0  0
    5.3745   10.8146    0.0000 H   0  0  0  0  0  0  0  0  0  0  0  0
    3.7005   13.2490    0.0000 C   0  0  0  0  0  0  0  0  0  0  0  0
    1.2780   11.5831    0.0000 C   0  0  0  0  0  0  0  0  0  0  0  0
    1.3961   10.0877    0.0000 H   0  0  0  0  0  0  0  0  0  0  0  0
   -0.1741   11.2071    0.0000 H   0  0  0  0  0  0  0  0  0  0  0  0
    0.6556   12.9479    0.0000 H   0  0  0  0  0  0  0  0  0  0  0  0
    2.6488   14.3186    0.0000 O   0  0  0  0  0  0  0  0  0  0  0  0
    1.1967   13.9426    0.0000 H   0  0  0  0  0  0  0  0  0  0  0  0
    4.5712   14.4704    0.0000 O   0  0  0  0  0  0  0  0  0  0  0  0
    3.9488   15.8352    0.0000 C   0  0  0  0  0  0  0  0  0  0  0  0
    2.4557   15.9785    0.0000 O   0  0  0  0  0  0  0  0  0  0  0  0
    4.8195   17.0566    0.0000 C   0  0  0  0  0  0  0  0  0  0  0  0
    6.0555   17.9065    0.0000 H   0  0  0  0  0  0  0  0  0  0  0  0
    5.8712   15.9870    0.0000 H   0  0  0  0  0  0  0  0  0  0  0  0
    4.1971   18.4213    0.0000 C   0  0  0  0  0  0  0  0  0  0  0  0
    5.6492   18.7973    0.0000 H   0  0  0  0  0  0  0  0  0  0  0  0
    4.0790   19.9167    0.0000 H   0  0  0  0  0  0  0  0  0  0  0  0
    2.7040   18.5647    0.0000 C   0  0  0  0  0  0  0  0  0  0  0  0
    1.2519   18.1887    0.0000 H   0  0  0  0  0  0  0  0  0  0  0  0
    2.8221   17.0694    0.0000 H   0  0  0  0  0  0  0  0  0  0  0  0
    2.0816   19.9295    0.0000 C   0  0  0  0  0  0  0  0  0  0  0  0
    2.9523   21.1509    0.0000 H   0  0  0  0  0  0  0  0  0  0  0  0
    0.1107   20.1187    0.0000 C   0  0  0  0  0  0  0  0  0  0  0  0
   -0.5118   21.4835    0.0000 H   0  0  0  0  0  0  0  0  0  0  0  0
   -1.3173   18.1156    0.0000 C   0  0  0  0  0  0  0  0  0  0  0  0
    0.0367   17.4702    0.0000 H   0  0  0  0  0  0  0  0  0  0  0  0
   -1.7178   16.6701    0.0000 H   0  0  0  0  0  0  0  0  0  0  0  0
   -3.2883   18.3049    0.0000 C   0  0  2  0  0  0  0  0  0  0  0  0
   -3.2710   16.8050    0.0000 H   0  0  0  0  0  0  0  0  0  0  0  0
   -4.7777   18.1271    0.0000 C   0  0  1  0  0  0  0  0  0  0  0  0
   -4.4436   16.6648    0.0000 H   0  0  0  0  0  0  0  0  0  0  0  0
   -6.6506   17.4846    0.0000 C   0  0  0  0  0  0  0  0  0  0  0  0
   -7.7815   18.4700    0.0000 H   0  0  0  0  0  0  0  0  0  0  0  0
   -6.9385   16.0125    0.0000 C   0  0  0  0  0  0  0  0  0  0  0  0
   -5.8075   15.0271    0.0000 H   0  0  0  0  0  0  0  0  0  0  0  0
   -8.3573   15.5258    0.0000 C   0  0  2  0  0  0  0  0  0  0  0  0
   -9.8570   15.5537    0.0000 H   0  0  0  0  0  0  0  0  0  0  0  0
   -8.6452   14.0537    0.0000 C   0  0  0  0  0  0  0  0  0  0  0  0
   -7.1454   14.0258    0.0000 H   0  0  0  0  0  0  0  0  0  0  0  0
   -8.4122   12.5719    0.0000 H   0  0  0  0  0  0  0  0  0  0  0  0
  -10.0640   13.5669    0.0000 O   0  0  0  0  0  0  0  0  0  0  0  0
  -10.3519   12.0948    0.0000 C   0  0  0  0  0  0  0  0  0  0  0  0
  -11.7709   11.6059    0.0000 C   0  0  0  0  0  0  0  0  0  0  0  0
  -12.9033   12.5895    0.0000 H   0  0  0  0  0  0  0  0  0  0  0  0
  -12.0563   10.1333    0.0000 C   0  0  0  0  0  0  0  0  0  0  0  0
  -10.9227    9.1496    0.0000 C   0  0  0  0  0  0  0  0  0  0  0  0
  -11.2057    7.6765    0.0000 H   0  0  0  0  0  0  0  0  0  0  0  0
   -9.5136    9.6405    0.0000 C   0  0  0  0  0  0  0  0  0  0  0  0
   -8.3795    8.6587    0.0000 H   0  0  0  0  0  0  0  0  0  0  0  0
   -9.2282   11.1130    0.0000 C   0  0  0  0  0  0  0  0  0  0  0  0
   -7.8094   11.6000    0.0000 H   0  0  0  0  0  0  0  0  0  0  0  0
  -13.4742    9.6439    0.0000 C   0  0  0  0  0  0  0  0  0  0  0  0
  -13.7594    8.1713    0.0000 F   0  0  0  0  0  0  0  0  0  0  0  0
  -14.9740    9.6691    0.0000 F   0  0  0  0  0  0  0  0  0  0  0  0
  -13.7099   11.1253    0.0000 F   0  0  0  0  0  0  0  0  0  0  0  0
   -8.5903   17.0076    0.0000 O   0  0  0  0  0  0  0  0  0  0  0  0
   -9.9900   17.5467    0.0000 H   0  0  0  0  0  0  0  0  0  0  0  0
   -5.4138   19.4914    0.0000 C   0  0  1  0  0  0  0  0  0  0  0  0
   -6.7023   18.7234    0.0000 H   0  0  0  0  0  0  0  0  0  0  0  0
   -4.2968   20.5109    0.0000 C   0  0  0  0  0  0  0  0  0  0  0  0
   -5.4170   21.5085    0.0000 H   0  0  0  0  0  0  0  0  0  0  0  0
   -3.4202   21.7281    0.0000 H   0  0  0  0  0  0  0  0  0  0  0  0
   -2.9887   19.7606    0.0000 C   0  0  2  0  0  0  0  0  0  0  0  0
   -2.3841   21.1334    0.0000 H   0  0  0  0  0  0  0  0  0  0  0  0
   -1.5597   19.3046    0.0000 O   0  0  0  0  0  0  0  0  0  0  0  0
    0.2598   20.9603    0.0000 H   0  0  0  0  0  0  0  0  0  0  0  0
   -6.3080   20.6957    0.0000 O   0  0  0  0  0  0  0  0  0  0  0  0
   -7.7981   20.5235    0.0000 H   0  0  0  0  0  0  0  0  0  0  0  0
  1  2  1  0  0  0  0 
  1  3  1  0  0  0  0 
  1  4  1  0  0  0  0 
  1  5  1  0  0  0  0 
  5  6  1  0  0  0  0 
  6  7  1  0  0  0  0 
  6  8  1  0  0  0  0 
  6  9  1  0  0  0  0 
  5 10  1  0  0  0  0 
 10 11  1  0  0  0  0 
  5 12  1  0  0  0  0 
 12 13  1  0  0  0  0 
 13 14  2  0  0  0  0 
 13 15  1  0  0  0  0 
 15 16  1  0  0  0  0 
 15 17  1  0  0  0  0 
 15 18  1  0  0  0  0 
 18 19  1  0  0  0  0 
 18 20  1  0  0  0  0 
 18 21  1  0  0  0  0 
 21 22  1  0  0  0  0 
 21 23  1  0  0  0  0 
 21 24  1  0  0  0  0 
 24 25  1  0  0  0  0 
 24 26  2  0  0  0  0 
 26 27  1  0  0  0  0 
 26 28  1  0  0  0  0 
 28 29  1  0  0  0  0 
 28 30  1  0  0  0  0 
 31 28  1  6  0  0  0 
 31 32  1  1  0  0  0 
 31 33  1  0  0  0  0 
 33 34  1  6  0  0  0 
 33 35  1  1  0  0  0 
 35 36  1  0  0  0  0 
 35 37  2  0  0  0  0 
 37 38  1  0  0  0  0 
 37 39  1  0  0  0  0 
 39 40  1  1  0  0  0 
 39 41  1  0  0  0  0 
 41 42  1  0  0  0  0 
 41 43  1  0  0  0  0 
 41 44  1  0  0  0  0 
 44 45  1  0  0  0  0 
 45 46  2  0  0  0  0 
 46 47  1  0  0  0  0 
 46 48  1  0  0  0  0 
 48 49  2  0  0  0  0 
 49 50  1  0  0  0  0 
 49 51  1  0  0  0  0 
 51 52  1  0  0  0  0 
 51 53  2  0  0  0  0 
 45 53  1  0  0  0  0 
 53 54  1  0  0  0  0 
 48 55  1  0  0  0  0 
 55 56  1  0  0  0  0 
 55 57  1  0  0  0  0 
 55 58  1  0  0  0  0 
 39 59  1  6  0  0  0 
 59 60  1  0  0  0  0 
 33 61  1  0  0  0  0 
 61 62  1  1  0  0  0 
 61 63  1  0  0  0  0 
 63 64  1  0  0  0  0 
 63 65  1  0  0  0  0 
 63 66  1  0  0  0  0 
 31 66  1  0  0  0  0 
 66 67  1  1  0  0  0 
 66 68  1  6  0  0  0 
 68 69  1  0  0  0  0 
 61 70  1  6  0  0  0 
 70 71  1  0  0  0  0 
M  END
> <Rank>
3

> <Priority_score>
0.284

> <Reaction_type>
aliphatic_hydroxylation_(tert_carbon_linked_to_two_CH3_groups)

> <Parent_ID>
10

> <Parent_InChI>
InChI=1S/C26H35F3O6/c1-17(2)35-25(33)11-6-4-3-5-10-21-22(24(32)15-23(21)31)13-12-19(30)16-34-20-9-7-8-18(14-20)26(27,28)29/h3,5,7-9,12-14,17,19,21-24,30-32H,4,6,10-11,15-16H2,1-2H3

> <Parent_SMILES>
CC(C)OC(=O)CCC/C=C\C[C@H]1[C@@H](O)C[C@@H](O)[C@@H]1/C=C/[C@@H](O)COc1cccc(C(F)(F)F)c1

$$$$
Molecule 10_metabolite 4
  CDK     0516241031

 61 62  0  0  0  0  0  0  0  0999 V2000
    5.5856   18.5980    0.0000 C   0  0  0  0  0  0  0  0  0  0  0  0
    6.8215   19.4479    0.0000 H   0  0  0  0  0  0  0  0  0  0  0  0
    3.7982   19.4499    0.0000 C   0  0  0  0  0  0  0  0  0  0  0  0
    3.6801   20.9452    0.0000 H   0  0  0  0  0  0  0  0  0  0  0  0
    2.1667   18.3280    0.0000 C   0  0  0  0  0  0  0  0  0  0  0  0
    3.2184   17.2584    0.0000 H   0  0  0  0  0  0  0  0  0  0  0  0
    1.2960   17.1066    0.0000 H   0  0  0  0  0  0  0  0  0  0  0  0
   -0.0539   19.3864    0.0000 C   0  0  2  0  0  0  0  0  0  0  0  0
   -0.0366   17.8865    0.0000 H   0  0  0  0  0  0  0  0  0  0  0  0
   -1.5433   19.2087    0.0000 C   0  0  1  0  0  0  0  0  0  0  0  0
   -1.2092   17.7464    0.0000 H   0  0  0  0  0  0  0  0  0  0  0  0
   -3.4162   18.5662    0.0000 C   0  0  0  0  0  0  0  0  0  0  0  0
   -4.5471   19.5516    0.0000 H   0  0  0  0  0  0  0  0  0  0  0  0
   -3.7041   17.0941    0.0000 C   0  0  0  0  0  0  0  0  0  0  0  0
   -2.5731   16.1087    0.0000 H   0  0  0  0  0  0  0  0  0  0  0  0
   -5.1229   16.6073    0.0000 C   0  0  2  0  0  0  0  0  0  0  0  0
   -6.6227   16.6352    0.0000 H   0  0  0  0  0  0  0  0  0  0  0  0
   -5.4108   15.1352    0.0000 C   0  0  0  0  0  0  0  0  0  0  0  0
   -3.9111   15.1073    0.0000 H   0  0  0  0  0  0  0  0  0  0  0  0
   -5.1778   13.6534    0.0000 H   0  0  0  0  0  0  0  0  0  0  0  0
   -6.8296   14.6485    0.0000 O   0  0  0  0  0  0  0  0  0  0  0  0
   -7.1175   13.1764    0.0000 C   0  0  0  0  0  0  0  0  0  0  0  0
   -8.5365   12.6874    0.0000 C   0  0  0  0  0  0  0  0  0  0  0  0
   -9.6689   13.6711    0.0000 H   0  0  0  0  0  0  0  0  0  0  0  0
   -8.8219   11.2149    0.0000 C   0  0  0  0  0  0  0  0  0  0  0  0
   -7.6884   10.2312    0.0000 C   0  0  0  0  0  0  0  0  0  0  0  0
   -7.9713    8.7581    0.0000 H   0  0  0  0  0  0  0  0  0  0  0  0
   -6.2792   10.7220    0.0000 C   0  0  0  0  0  0  0  0  0  0  0  0
   -5.1451    9.7403    0.0000 H   0  0  0  0  0  0  0  0  0  0  0  0
   -5.9938   12.1946    0.0000 C   0  0  0  0  0  0  0  0  0  0  0  0
   -4.5751   12.6816    0.0000 H   0  0  0  0  0  0  0  0  0  0  0  0
  -10.2398   10.7255    0.0000 C   0  0  0  0  0  0  0  0  0  0  0  0
  -10.5250    9.2529    0.0000 F   0  0  0  0  0  0  0  0  0  0  0  0
  -11.7396   10.7506    0.0000 F   0  0  0  0  0  0  0  0  0  0  0  0
  -10.4755   12.2069    0.0000 F   0  0  0  0  0  0  0  0  0  0  0  0
   -5.3559   18.0891    0.0000 O   0  0  0  0  0  0  0  0  0  0  0  0
   -6.7556   18.6283    0.0000 H   0  0  0  0  0  0  0  0  0  0  0  0
   -2.1795   20.5729    0.0000 C   0  0  1  0  0  0  0  0  0  0  0  0
   -3.4680   19.8050    0.0000 H   0  0  0  0  0  0  0  0  0  0  0  0
   -1.0624   21.5925    0.0000 C   0  0  0  0  0  0  0  0  0  0  0  0
   -2.1826   22.5901    0.0000 H   0  0  0  0  0  0  0  0  0  0  0  0
   -0.1858   22.8097    0.0000 H   0  0  0  0  0  0  0  0  0  0  0  0
    0.2457   20.8422    0.0000 C   0  0  2  0  0  0  0  0  0  0  0  0
    0.8502   22.2150    0.0000 H   0  0  0  0  0  0  0  0  0  0  0  0
    1.6747   20.3862    0.0000 O   0  0  0  0  0  0  0  0  0  0  0  0
    3.8492   22.3649    0.0000 H   0  0  0  0  0  0  0  0  0  0  0  0
   -3.0736   21.7773    0.0000 O   0  0  0  0  0  0  0  0  0  0  0  0
   -4.5637   21.6051    0.0000 H   0  0  0  0  0  0  0  0  0  0  0  0
    5.7036   17.1026    0.0000 C   0  0  0  0  0  0  0  0  0  0  0  0
    4.2105   17.2460    0.0000 H   0  0  0  0  0  0  0  0  0  0  0  0
    5.3032   15.6571    0.0000 H   0  0  0  0  0  0  0  0  0  0  0  0
    7.0577   16.4572    0.0000 C   0  0  0  0  0  0  0  0  0  0  0  0
    8.5508   16.3139    0.0000 H   0  0  0  0  0  0  0  0  0  0  0  0
    7.4582   17.9028    0.0000 H   0  0  0  0  0  0  0  0  0  0  0  0
    7.1758   14.9619    0.0000 C   0  0  0  0  0  0  0  0  0  0  0  0
    8.6279   15.3378    0.0000 H   0  0  0  0  0  0  0  0  0  0  0  0
    7.7982   13.5971    0.0000 H   0  0  0  0  0  0  0  0  0  0  0  0
    5.9398   14.1119    0.0000 C   0  0  0  0  0  0  0  0  0  0  0  0
    4.5858   14.7573    0.0000 O   0  0  0  0  0  0  0  0  0  0  0  0
    6.0579   12.6166    0.0000 O   0  0  0  0  0  0  0  0  0  0  0  0
    4.8220   11.7666    0.0000 H   0  0  0  0  0  0  0  0  0  0  0  0
  1  2  1  0  0  0  0 
  1  3  2  0  0  0  0 
  3  4  1  0  0  0  0 
  3  5  1  0  0  0  0 
  5  6  1  0  0  0  0 
  5  7  1  0  0  0  0 
  8  5  1  6  0  0  0 
  8  9  1  1  0  0  0 
  8 10  1  0  0  0  0 
 10 11  1  6  0  0  0 
 10 12  1  1  0  0  0 
 12 13  1  0  0  0  0 
 12 14  2  0  0  0  0 
 14 15  1  0  0  0  0 
 14 16  1  0  0  0  0 
 16 17  1  1  0  0  0 
 16 18  1  0  0  0  0 
 18 19  1  0  0  0  0 
 18 20  1  0  0  0  0 
 18 21  1  0  0  0  0 
 21 22  1  0  0  0  0 
 22 23  2  0  0  0  0 
 23 24  1  0  0  0  0 
 23 25  1  0  0  0  0 
 25 26  2  0  0  0  0 
 26 27  1  0  0  0  0 
 26 28  1  0  0  0  0 
 28 29  1  0  0  0  0 
 28 30  2  0  0  0  0 
 22 30  1  0  0  0  0 
 30 31  1  0  0  0  0 
 25 32  1  0  0  0  0 
 32 33  1  0  0  0  0 
 32 34  1  0  0  0  0 
 32 35  1  0  0  0  0 
 16 36  1  6  0  0  0 
 36 37  1  0  0  0  0 
 10 38  1  0  0  0  0 
 38 39  1  1  0  0  0 
 38 40  1  0  0  0  0 
 40 41  1  0  0  0  0 
 40 42  1  0  0  0  0 
 40 43  1  0  0  0  0 
  8 43  1  0  0  0  0 
 43 44  1  1  0  0  0 
 43 45  1  6  0  0  0 
 45 46  1  0  0  0  0 
 38 47  1  6  0  0  0 
 47 48  1  0  0  0  0 
  1 49  1  0  0  0  0 
 49 50  1  0  0  0  0 
 49 51  1  0  0  0  0 
 49 52  1  0  0  0  0 
 52 53  1  0  0  0  0 
 52 54  1  0  0  0  0 
 52 55  1  0  0  0  0 
 55 56  1  0  0  0  0 
 55 57  1  0  0  0  0 
 55 58  1  0  0  0  0 
 58 59  2  0  0  0  0 
 58 60  1  0  0  0  0 
 60 61  1  0  0  0  0 
M  END
> <Rank>
3

> <Priority_score>
0.284

> <Reaction_type>
hydrolysis_(ester)

> <Parent_ID>
10

> <Parent_InChI>
InChI=1S/C26H35F3O6/c1-17(2)35-25(33)11-6-4-3-5-10-21-22(24(32)15-23(21)31)13-12-19(30)16-34-20-9-7-8-18(14-20)26(27,28)29/h3,5,7-9,12-14,17,19,21-24,30-32H,4,6,10-11,15-16H2,1-2H3

> <Parent_SMILES>
CC(C)OC(=O)CCC/C=C\C[C@H]1[C@@H](O)C[C@@H](O)[C@@H]1/C=C/[C@@H](O)COc1cccc(C(F)(F)F)c1

$$$$
Molecule 10_metabolite 5
  CDK     0516241031

 12 11  0  0  0  0  0  0  0  0999 V2000
    1.1209    0.7500    0.0000 C   0  0  0  0  0  0  0  0  0  0  0  0
   -0.1782    0.0000    0.0000 H   0  0  0  0  0  0  0  0  0  0  0  0
    0.1567    1.8991    0.0000 H   0  0  0  0  0  0  0  0  0  0  0  0
    2.0850    1.8991    0.0000 H   0  0  0  0  0  0  0  0  0  0  0  0
    2.4199   -0.0000    0.0000 C   0  0  0  0  0  0  0  0  0  0  0  0
    3.8971   -0.2605    0.0000 H   0  0  0  0  0  0  0  0  0  0  0  0
    2.4199   -1.5000    0.0000 C   0  0  0  0  0  0  0  0  0  0  0  0
    3.7189   -2.2500    0.0000 H   0  0  0  0  0  0  0  0  0  0  0  0
    0.9427   -1.2395    0.0000 H   0  0  0  0  0  0  0  0  0  0  0  0
    1.9069   -2.9095    0.0000 H   0  0  0  0  0  0  0  0  0  0  0  0
    2.9329    1.4095    0.0000 O   0  0  0  0  0  0  0  0  0  0  0  0
    4.4101    1.6700    0.0000 H   0  0  0  0  0  0  0  0  0  0  0  0
  1  2  1  0  0  0  0 
  1  3  1  0  0  0  0 
  1  4  1  0  0  0  0 
  1  5  1  0  0  0  0 
  5  6  1  0  0  0  0 
  5  7  1  0  0  0  0 
  7  8  1  0  0  0  0 
  7  9  1  0  0  0  0 
  7 10  1  0  0  0  0 
  5 11  1  0  0  0  0 
 11 12  1  0  0  0  0 
M  END
> <Rank>
3

> <Priority_score>
0.284

> <Reaction_type>
hydrolysis_(ester)

> <Parent_ID>
10

> <Parent_InChI>
InChI=1S/C26H35F3O6/c1-17(2)35-25(33)11-6-4-3-5-10-21-22(24(32)15-23(21)31)13-12-19(30)16-34-20-9-7-8-18(14-20)26(27,28)29/h3,5,7-9,12-14,17,19,21-24,30-32H,4,6,10-11,15-16H2,1-2H3

> <Parent_SMILES>
CC(C)OC(=O)CCC/C=C\C[C@H]1[C@@H](O)C[C@@H](O)[C@@H]1/C=C/[C@@H](O)COc1cccc(C(F)(F)F)c1

$$$$
Molecule 10_metabolite 6
  CDK     0516241031

 10  9  0  0  0  0  0  0  0  0999 V2000
    2.7109   -0.6849    0.0000 C   0  0  0  0  0  0  0  0  0  0  0  0
    1.4118   -1.4349    0.0000 H   0  0  0  0  0  0  0  0  0  0  0  0
    3.2239   -2.0944    0.0000 H   0  0  0  0  0  0  0  0  0  0  0  0
    4.1881   -0.4244    0.0000 H   0  0  0  0  0  0  0  0  0  0  0  0
    2.7109    0.8151    0.0000 C   0  0  0  0  0  0  0  0  0  0  0  0
    4.0099    1.5651    0.0000 O   0  0  0  0  0  0  0  0  0  0  0  0
    1.4118    1.5651    0.0000 C   0  0  0  0  0  0  0  0  0  0  0  0
    1.4118    3.0651    0.0000 H   0  0  0  0  0  0  0  0  0  0  0  0
    0.8988    0.1556    0.0000 H   0  0  0  0  0  0  0  0  0  0  0  0
   -0.0654    1.8256    0.0000 H   0  0  0  0  0  0  0  0  0  0  0  0
  1  2  1  0  0  0  0 
  1  3  1  0  0  0  0 
  1  4  1  0  0  0  0 
  1  5  1  0  0  0  0 
  5  6  2  0  0  0  0 
  5  7  1  0  0  0  0 
  7  8  1  0  0  0  0 
  7  9  1  0  0  0  0 
  7 10  1  0  0  0  0 
M  END
> <Rank>
3

> <Priority_score>
0.284

> <Reaction_type>
oxidative ether cleavage to one alcohol and one aldehyde/ketone

> <Parent_ID>
10

> <Parent_InChI>
InChI=1S/C26H35F3O6/c1-17(2)35-25(33)11-6-4-3-5-10-21-22(24(32)15-23(21)31)13-12-19(30)16-34-20-9-7-8-18(14-20)26(27,28)29/h3,5,7-9,12-14,17,19,21-24,30-32H,4,6,10-11,15-16H2,1-2H3

> <Parent_SMILES>
CC(C)OC(=O)CCC/C=C\C[C@H]1[C@@H](O)C[C@@H](O)[C@@H]1/C=C/[C@@H](O)COc1cccc(C(F)(F)F)c1

$$$$
Molecule 10_metabolite 7
  CDK     0516241031

 71 72  0  0  0  0  0  0  0  0999 V2000
  -11.2218   30.0888    0.0000 C   0  0  0  0  0  0  0  0  0  0  0  0
  -12.7150   30.2322    0.0000 H   0  0  0  0  0  0  0  0  0  0  0  0
   -9.8678   29.4434    0.0000 H   0  0  0  0  0  0  0  0  0  0  0  0
  -11.6223   28.6433    0.0000 H   0  0  0  0  0  0  0  0  0  0  0  0
  -10.3511   31.3102    0.0000 C   0  0  0  0  0  0  0  0  0  0  0  0
  -11.7051   31.9557    0.0000 H   0  0  0  0  0  0  0  0  0  0  0  0
   -9.9506   32.7558    0.0000 C   0  0  0  0  0  0  0  0  0  0  0  0
   -8.4985   33.1318    0.0000 H   0  0  0  0  0  0  0  0  0  0  0  0
  -10.0687   34.2511    0.0000 H   0  0  0  0  0  0  0  0  0  0  0  0
  -11.4438   32.8992    0.0000 H   0  0  0  0  0  0  0  0  0  0  0  0
   -8.8580   31.1669    0.0000 O   0  0  0  0  0  0  0  0  0  0  0  0
   -8.2356   29.8021    0.0000 C   0  0  0  0  0  0  0  0  0  0  0  0
   -9.1063   28.5807    0.0000 O   0  0  0  0  0  0  0  0  0  0  0  0
   -6.7424   29.6587    0.0000 C   0  0  0  0  0  0  0  0  0  0  0  0
   -5.2903   30.0347    0.0000 H   0  0  0  0  0  0  0  0  0  0  0  0
   -6.1200   28.2940    0.0000 C   0  0  0  0  0  0  0  0  0  0  0  0
   -4.8841   29.1439    0.0000 H   0  0  0  0  0  0  0  0  0  0  0  0
   -5.0684   27.2244    0.0000 H   0  0  0  0  0  0  0  0  0  0  0  0
   -6.9907   27.0726    0.0000 C   0  0  0  0  0  0  0  0  0  0  0  0
   -8.2267   26.2226    0.0000 H   0  0  0  0  0  0  0  0  0  0  0  0
   -8.0424   28.1421    0.0000 H   0  0  0  0  0  0  0  0  0  0  0  0
   -6.3683   25.7078    0.0000 C   0  0  0  0  0  0  0  0  0  0  0  0
   -4.8752   25.5644    0.0000 H   0  0  0  0  0  0  0  0  0  0  0  0
   -7.5177   24.0955    0.0000 C   0  0  0  0  0  0  0  0  0  0  0  0
   -6.8953   22.7307    0.0000 H   0  0  0  0  0  0  0  0  0  0  0  0
   -9.9664   24.3306    0.0000 C   0  0  0  0  0  0  0  0  0  0  0  0
   -9.5660   25.7762    0.0000 H   0  0  0  0  0  0  0  0  0  0  0  0
  -11.3205   24.9760    0.0000 H   0  0  0  0  0  0  0  0  0  0  0  0
  -11.1158   22.7184    0.0000 C   0  0  2  0  0  0  0  0  0  0  0  0
  -12.2370   23.7149    0.0000 H   0  0  0  0  0  0  0  0  0  0  0  0
  -12.2266   21.7103    0.0000 C   0  0  1  0  0  0  0  0  0  0  0  0
  -13.1116   22.9214    0.0000 H   0  0  0  0  0  0  0  0  0  0  0  0
  -13.9396   20.7174    0.0000 C   0  0  0  0  0  0  0  0  0  0  0  0
  -13.9371   19.2174    0.0000 H   0  0  0  0  0  0  0  0  0  0  0  0
  -15.2399   21.4653    0.0000 C   0  0  0  0  0  0  0  0  0  0  0  0
  -15.2424   22.9653    0.0000 H   0  0  0  0  0  0  0  0  0  0  0  0
  -16.5377   20.7131    0.0000 C   0  0  2  0  0  0  0  0  0  0  0  0
  -17.5000   19.5624    0.0000 H   0  0  0  0  0  0  0  0  0  0  0  0
  -17.8380   21.4609    0.0000 C   0  0  0  0  0  0  0  0  0  0  0  0
  -16.8757   22.6116    0.0000 H   0  0  0  0  0  0  0  0  0  0  0  0
  -18.8041   22.6084    0.0000 H   0  0  0  0  0  0  0  0  0  0  0  0
  -19.1358   20.7087    0.0000 O   0  0  0  0  0  0  0  0  0  0  0  0
  -20.4361   21.4566    0.0000 C   0  0  0  0  0  0  0  0  0  0  0  0
  -21.7356   20.7057    0.0000 C   0  0  0  0  0  0  0  0  0  0  0  0
  -21.7353   19.2057    0.0000 H   0  0  0  0  0  0  0  0  0  0  0  0
  -23.0346   21.4557    0.0000 C   0  0  0  0  0  0  0  0  0  0  0  0
  -23.0341   22.9566    0.0000 C   0  0  0  0  0  0  0  0  0  0  0  0
  -24.3319   23.7087    0.0000 H   0  0  0  0  0  0  0  0  0  0  0  0
  -21.7396   23.6987    0.0000 C   0  0  0  0  0  0  0  0  0  0  0  0
  -21.7373   25.1987    0.0000 H   0  0  0  0  0  0  0  0  0  0  0  0
  -20.4406   22.9487    0.0000 C   0  0  0  0  0  0  0  0  0  0  0  0
  -19.1427   23.7007    0.0000 H   0  0  0  0  0  0  0  0  0  0  0  0
  -24.3338   20.7059    0.0000 C   0  0  0  0  0  0  0  0  0  0  0  0
  -25.6327   21.4562    0.0000 F   0  0  0  0  0  0  0  0  0  0  0  0
  -25.2981   19.5570    0.0000 F   0  0  0  0  0  0  0  0  0  0  0  0
  -23.3698   19.5567    0.0000 F   0  0  0  0  0  0  0  0  0  0  0  0
  -15.5716   19.5656    0.0000 O   0  0  0  0  0  0  0  0  0  0  0  0
  -16.0823   18.1552    0.0000 H   0  0  0  0  0  0  0  0  0  0  0  0
  -11.6136   20.3355    0.0000 C   0  0  1  0  0  0  0  0  0  0  0  0
  -13.0382   19.8661    0.0000 H   0  0  0  0  0  0  0  0  0  0  0  0
  -10.1113   20.5105    0.0000 C   0  0  0  0  0  0  0  0  0  0  0  0
  -10.0925   19.0106    0.0000 H   0  0  0  0  0  0  0  0  0  0  0  0
   -8.6175   20.3744    0.0000 H   0  0  0  0  0  0  0  0  0  0  0  0
   -9.8202   21.9901    0.0000 C   0  0  2  0  0  0  0  0  0  0  0  0
   -8.3873   21.5465    0.0000 H   0  0  0  0  0  0  0  0  0  0  0  0
   -8.6180   22.8872    0.0000 O   0  0  0  0  0  0  0  0  0  0  0  0
   -6.3581   21.9153    0.0000 H   0  0  0  0  0  0  0  0  0  0  0  0
  -11.2904   18.8707    0.0000 O   0  0  0  0  0  0  0  0  0  0  0  0
  -12.3974   17.8585    0.0000 H   0  0  0  0  0  0  0  0  0  0  0  0
   -6.8605   31.1541    0.0000 O   0  0  0  0  0  0  0  0  0  0  0  0
   -8.2146   31.7995    0.0000 H   0  0  0  0  0  0  0  0  0  0  0  0
  1  2  1  0  0  0  0 
  1  3  1  0  0  0  0 
  1  4  1  0  0  0  0 
  1  5  1  0  0  0  0 
  5  6  1  0  0  0  0 
  5  7  1  0  0  0  0 
  7  8  1  0  0  0  0 
  7  9  1  0  0  0  0 
  7 10  1  0  0  0  0 
  5 11  1  0  0  0  0 
 11 12  1  0  0  0  0 
 12 13  2  0  0  0  0 
 12 14  1  0  0  0  0 
 14 15  1  0  0  0  0 
 14 16  1  0  0  0  0 
 16 17  1  0  0  0  0 
 16 18  1  0  0  0  0 
 16 19  1  0  0  0  0 
 19 20  1  0  0  0  0 
 19 21  1  0  0  0  0 
 19 22  1  0  0  0  0 
 22 23  1  0  0  0  0 
 22 24  2  0  0  0  0 
 24 25  1  0  0  0  0 
 24 26  1  0  0  0  0 
 26 27  1  0  0  0  0 
 26 28  1  0  0  0  0 
 29 26  1  1  0  0  0 
 29 30  1  6  0  0  0 
 29 31  1  0  0  0  0 
 31 32  1  1  0  0  0 
 31 33  1  6  0  0  0 
 33 34  1  0  0  0  0 
 33 35  2  0  0  0  0 
 35 36  1  0  0  0  0 
 35 37  1  0  0  0  0 
 37 38  1  6  0  0  0 
 37 39  1  0  0  0  0 
 39 40  1  0  0  0  0 
 39 41  1  0  0  0  0 
 39 42  1  0  0  0  0 
 42 43  1  0  0  0  0 
 43 44  2  0  0  0  0 
 44 45  1  0  0  0  0 
 44 46  1  0  0  0  0 
 46 47  2  0  0  0  0 
 47 48  1  0  0  0  0 
 47 49  1  0  0  0  0 
 49 50  1  0  0  0  0 
 49 51  2  0  0  0  0 
 43 51  1  0  0  0  0 
 51 52  1  0  0  0  0 
 46 53  1  0  0  0  0 
 53 54  1  0  0  0  0 
 53 55  1  0  0  0  0 
 53 56  1  0  0  0  0 
 37 57  1  1  0  0  0 
 57 58  1  0  0  0  0 
 31 59  1  0  0  0  0 
 59 60  1  6  0  0  0 
 59 61  1  0  0  0  0 
 61 62  1  0  0  0  0 
 61 63  1  0  0  0  0 
 61 64  1  0  0  0  0 
 29 64  1  0  0  0  0 
 64 65  1  6  0  0  0 
 64 66  1  1  0  0  0 
 66 67  1  0  0  0  0 
 59 68  1  1  0  0  0 
 68 69  1  0  0  0  0 
 14 70  1  0  0  0  0 
 70 71  1  0  0  0  0 
M  END
> <Rank>
7

> <Priority_score>
0.2

> <Reaction_type>
aliphatic_hydroxylation_(sec_carbon_next_to_SP2,not_in_a_ring)

> <Parent_ID>
10

> <Parent_InChI>
InChI=1S/C26H35F3O6/c1-17(2)35-25(33)11-6-4-3-5-10-21-22(24(32)15-23(21)31)13-12-19(30)16-34-20-9-7-8-18(14-20)26(27,28)29/h3,5,7-9,12-14,17,19,21-24,30-32H,4,6,10-11,15-16H2,1-2H3

> <Parent_SMILES>
CC(C)OC(=O)CCC/C=C\C[C@H]1[C@@H](O)C[C@@H](O)[C@@H]1/C=C/[C@@H](O)COc1cccc(C(F)(F)F)c1

$$$$
Molecule 10_metabolite 8
  CDK     0516241031

 67 68  0  0  0  0  0  0  0  0999 V2000
  -10.4505   11.5042    0.0000 C   0  0  0  0  0  0  0  0  0  0  0  0
   -9.8281   10.1394    0.0000 H   0  0  0  0  0  0  0  0  0  0  0  0
  -10.5686   12.9995    0.0000 H   0  0  0  0  0  0  0  0  0  0  0  0
   -8.9984   11.8801    0.0000 H   0  0  0  0  0  0  0  0  0  0  0  0
  -11.9437   11.6476    0.0000 C   0  0  0  0  0  0  0  0  0  0  0  0
  -11.8256   10.1522    0.0000 H   0  0  0  0  0  0  0  0  0  0  0  0
  -13.3958   11.2716    0.0000 C   0  0  0  0  0  0  0  0  0  0  0  0
  -13.7963    9.8260    0.0000 H   0  0  0  0  0  0  0  0  0  0  0  0
  -14.8889   11.4150    0.0000 H   0  0  0  0  0  0  0  0  0  0  0  0
  -13.5139   12.7669    0.0000 H   0  0  0  0  0  0  0  0  0  0  0  0
  -12.5661   13.0123    0.0000 O   0  0  0  0  0  0  0  0  0  0  0  0
  -11.6954   14.2337    0.0000 C   0  0  0  0  0  0  0  0  0  0  0  0
  -10.2022   14.0904    0.0000 O   0  0  0  0  0  0  0  0  0  0  0  0
  -12.3178   15.5985    0.0000 C   0  0  0  0  0  0  0  0  0  0  0  0
  -13.3694   16.6681    0.0000 H   0  0  0  0  0  0  0  0  0  0  0  0
  -13.5537   14.7486    0.0000 H   0  0  0  0  0  0  0  0  0  0  0  0
  -11.4470   16.8199    0.0000 C   0  0  0  0  0  0  0  0  0  0  0  0
  -12.8011   17.4653    0.0000 H   0  0  0  0  0  0  0  0  0  0  0  0
  -11.0466   18.2655    0.0000 H   0  0  0  0  0  0  0  0  0  0  0  0
   -9.9539   16.6766    0.0000 C   0  0  0  0  0  0  0  0  0  0  0  0
   -8.5999   16.0311    0.0000 H   0  0  0  0  0  0  0  0  0  0  0  0
  -10.3544   15.2310    0.0000 H   0  0  0  0  0  0  0  0  0  0  0  0
   -9.0832   17.8980    0.0000 C   0  0  0  0  0  0  0  0  0  0  0  0
   -9.7056   19.2627    0.0000 H   0  0  0  0  0  0  0  0  0  0  0  0
   -7.1122   17.7087    0.0000 C   0  0  0  0  0  0  0  0  0  0  0  0
   -6.2415   18.9301    0.0000 H   0  0  0  0  0  0  0  0  0  0  0  0
   -6.0915   15.4705    0.0000 C   0  0  0  0  0  0  0  0  0  0  0  0
   -7.5436   15.0945    0.0000 H   0  0  0  0  0  0  0  0  0  0  0  0
   -5.9734   13.9751    0.0000 H   0  0  0  0  0  0  0  0  0  0  0  0
   -4.1206   15.2812    0.0000 C   0  0  2  0  0  0  0  0  0  0  0  0
   -4.4229   13.8120    0.0000 H   0  0  0  0  0  0  0  0  0  0  0  0
   -2.6922   14.8233    0.0000 C   0  0  1  0  0  0  0  0  0  0  0  0
   -3.2984   13.4513    0.0000 H   0  0  0  0  0  0  0  0  0  0  0  0
   -0.9758   13.8362    0.0000 C   0  0  0  0  0  0  0  0  0  0  0  0
    0.3220   14.5884    0.0000 H   0  0  0  0  0  0  0  0  0  0  0  0
   -0.9733   12.3362    0.0000 C   0  0  0  0  0  0  0  0  0  0  0  0
   -2.2710   11.5840    0.0000 H   0  0  0  0  0  0  0  0  0  0  0  0
    0.3270   11.5884    0.0000 C   0  0  0  0  0  0  0  0  0  0  0  0
    1.6248   12.3406    0.0000 H   0  0  0  0  0  0  0  0  0  0  0  0
    0.3295   10.0884    0.0000 C   0  0  0  0  0  0  0  0  0  0  0  0
   -0.9682    9.3362    0.0000 H   0  0  0  0  0  0  0  0  0  0  0  0
    1.6298    9.3406    0.0000 O   0  0  0  0  0  0  0  0  0  0  0  0
    1.6323    7.8406    0.0000 C   0  0  0  0  0  0  0  0  0  0  0  0
    2.9323    7.0906    0.0000 C   0  0  0  0  0  0  0  0  0  0  0  0
    4.2313    7.8408    0.0000 H   0  0  0  0  0  0  0  0  0  0  0  0
    2.9323    5.5906    0.0000 C   0  0  0  0  0  0  0  0  0  0  0  0
    1.6323    4.8406    0.0000 C   0  0  0  0  0  0  0  0  0  0  0  0
    1.6298    3.3406    0.0000 H   0  0  0  0  0  0  0  0  0  0  0  0
    0.3423    5.5906    0.0000 C   0  0  0  0  0  0  0  0  0  0  0  0
   -0.9578    4.8425    0.0000 H   0  0  0  0  0  0  0  0  0  0  0  0
    0.3423    7.0906    0.0000 C   0  0  0  0  0  0  0  0  0  0  0  0
   -0.9578    7.8386    0.0000 H   0  0  0  0  0  0  0  0  0  0  0  0
    4.2313    4.8404    0.0000 C   0  0  0  0  0  0  0  0  0  0  0  0
    4.2310    3.3404    0.0000 F   0  0  0  0  0  0  0  0  0  0  0  0
    5.7084    4.5796    0.0000 F   0  0  0  0  0  0  0  0  0  0  0  0
    4.7445    6.2498    0.0000 F   0  0  0  0  0  0  0  0  0  0  0  0
   -1.8081   16.0416    0.0000 C   0  0  1  0  0  0  0  0  0  0  0  0
   -0.6892   15.0425    0.0000 H   0  0  0  0  0  0  0  0  0  0  0  0
   -2.7107   17.2551    0.0000 C   0  0  0  0  0  0  0  0  0  0  0  0
   -1.4212   18.0213    0.0000 H   0  0  0  0  0  0  0  0  0  0  0  0
   -3.3397   18.6168    0.0000 H   0  0  0  0  0  0  0  0  0  0  0  0
   -4.1377   16.7674    0.0000 C   0  0  2  0  0  0  0  0  0  0  0  0
   -4.4700   18.2301    0.0000 H   0  0  0  0  0  0  0  0  0  0  0  0
   -5.5157   17.3600    0.0000 O   0  0  0  0  0  0  0  0  0  0  0  0
   -5.8039   19.8031    0.0000 H   0  0  0  0  0  0  0  0  0  0  0  0
   -0.7011   17.0538    0.0000 O   0  0  0  0  0  0  0  0  0  0  0  0
    0.7290   16.6012    0.0000 H   0  0  0  0  0  0  0  0  0  0  0  0
  1  2  1  0  0  0  0 
  1  3  1  0  0  0  0 
  1  4  1  0  0  0  0 
  1  5  1  0  0  0  0 
  5  6  1  0  0  0  0 
  5  7  1  0  0  0  0 
  7  8  1  0  0  0  0 
  7  9  1  0  0  0  0 
  7 10  1  0  0  0  0 
  5 11  1  0  0  0  0 
 11 12  1  0  0  0  0 
 12 13  2  0  0  0  0 
 12 14  1  0  0  0  0 
 14 15  1  0  0  0  0 
 14 16  1  0  0  0  0 
 14 17  1  0  0  0  0 
 17 18  1  0  0  0  0 
 17 19  1  0  0  0  0 
 17 20  1  0  0  0  0 
 20 21  1  0  0  0  0 
 20 22  1  0  0  0  0 
 20 23  1  0  0  0  0 
 23 24  1  0  0  0  0 
 23 25  2  0  0  0  0 
 25 26  1  0  0  0  0 
 25 27  1  0  0  0  0 
 27 28  1  0  0  0  0 
 27 29  1  0  0  0  0 
 30 27  1  1  0  0  0 
 30 31  1  6  0  0  0 
 30 32  1  0  0  0  0 
 32 33  1  1  0  0  0 
 32 34  1  6  0  0  0 
 34 35  1  0  0  0  0 
 34 36  2  0  0  0  0 
 36 37  1  0  0  0  0 
 36 38  1  0  0  0  0 
 38 39  1  4  0  0  0 
 38 40  2  0  0  0  0 
 40 41  1  0  0  0  0 
 40 42  1  0  0  0  0 
 42 43  1  0  0  0  0 
 43 44  2  0  0  0  0 
 44 45  1  0  0  0  0 
 44 46  1  0  0  0  0 
 46 47  2  0  0  0  0 
 47 48  1  0  0  0  0 
 47 49  1  0  0  0  0 
 49 50  1  0  0  0  0 
 49 51  2  0  0  0  0 
 43 51  1  0  0  0  0 
 51 52  1  0  0  0  0 
 46 53  1  0  0  0  0 
 53 54  1  0  0  0  0 
 53 55  1  0  0  0  0 
 53 56  1  0  0  0  0 
 32 57  1  0  0  0  0 
 57 58  1  6  0  0  0 
 57 59  1  0  0  0  0 
 59 60  1  0  0  0  0 
 59 61  1  0  0  0  0 
 59 62  1  0  0  0  0 
 30 62  1  0  0  0  0 
 62 63  1  6  0  0  0 
 62 64  1  1  0  0  0 
 64 65  1  0  0  0  0 
 57 66  1  1  0  0  0 
 66 67  1  0  0  0  0 
M  END
> <Rank>
8

> <Priority_score>
0.136

> <Reaction_type>
dehydration_next_to_SP2_a

> <Parent_ID>
10

> <Parent_InChI>
InChI=1S/C26H35F3O6/c1-17(2)35-25(33)11-6-4-3-5-10-21-22(24(32)15-23(21)31)13-12-19(30)16-34-20-9-7-8-18(14-20)26(27,28)29/h3,5,7-9,12-14,17,19,21-24,30-32H,4,6,10-11,15-16H2,1-2H3

> <Parent_SMILES>
CC(C)OC(=O)CCC/C=C\C[C@H]1[C@@H](O)C[C@@H](O)[C@@H]1/C=C/[C@@H](O)COc1cccc(C(F)(F)F)c1

$$$$
Molecule 10_metabolite 9
  CDK     0516241031

 16 16  0  0  0  0  0  0  0  0999 V2000
    0.4562    2.5063    0.0000 C   0  0  0  0  0  0  0  0  0  0  0  0
    0.4585    4.0063    0.0000 H   0  0  0  0  0  0  0  0  0  0  0  0
    1.7552    1.7563    0.0000 C   0  0  0  0  0  0  0  0  0  0  0  0
    3.0531    2.5083    0.0000 H   0  0  0  0  0  0  0  0  0  0  0  0
    1.7597    0.2641    0.0000 C   0  0  0  0  0  0  0  0  0  0  0  0
    0.4602   -0.4867    0.0000 C   0  0  0  0  0  0  0  0  0  0  0  0
    0.4605   -1.9867    0.0000 H   0  0  0  0  0  0  0  0  0  0  0  0
   -0.8388    0.2633    0.0000 C   0  0  0  0  0  0  0  0  0  0  0  0
   -0.8383    1.7641    0.0000 C   0  0  0  0  0  0  0  0  0  0  0  0
   -2.1361    2.5163    0.0000 H   0  0  0  0  0  0  0  0  0  0  0  0
   -2.1380   -0.4865    0.0000 C   0  0  0  0  0  0  0  0  0  0  0  0
   -3.4369    0.2637    0.0000 F   0  0  0  0  0  0  0  0  0  0  0  0
   -3.1023   -1.6354    0.0000 F   0  0  0  0  0  0  0  0  0  0  0  0
   -1.1740   -1.6357    0.0000 F   0  0  0  0  0  0  0  0  0  0  0  0
    3.0600   -0.4837    0.0000 O   0  0  0  0  0  0  0  0  0  0  0  0
    4.3578    0.2685    0.0000 H   0  0  0  0  0  0  0  0  0  0  0  0
  1  2  1  0  0  0  0 
  1  3  2  0  0  0  0 
  3  4  1  0  0  0  0 
  3  5  1  0  0  0  0 
  5  6  2  0  0  0  0 
  6  7  1  0  0  0  0 
  6  8  1  0  0  0  0 
  8  9  2  0  0  0  0 
  1  9  1  0  0  0  0 
  9 10  1  0  0  0  0 
  8 11  1  0  0  0  0 
 11 12  1  0  0  0  0 
 11 13  1  0  0  0  0 
 11 14  1  0  0  0  0 
  5 15  1  0  0  0  0 
 15 16  1  0  0  0  0 
M  END
> <Rank>
8

> <Priority_score>
0.136

> <Reaction_type>
O-dealkylation_(aromatic)

> <Parent_ID>
10

> <Parent_InChI>
InChI=1S/C26H35F3O6/c1-17(2)35-25(33)11-6-4-3-5-10-21-22(24(32)15-23(21)31)13-12-19(30)16-34-20-9-7-8-18(14-20)26(27,28)29/h3,5,7-9,12-14,17,19,21-24,30-32H,4,6,10-11,15-16H2,1-2H3

> <Parent_SMILES>
CC(C)OC(=O)CCC/C=C\C[C@H]1[C@@H](O)C[C@@H](O)[C@@H]1/C=C/[C@@H](O)COc1cccc(C(F)(F)F)c1

$$$$
Molecule 10_metabolite 10
  CDK     0516241031

 57 57  0  0  0  0  0  0  0  0999 V2000
   10.4476   -6.5974    0.0000 C   0  0  0  0  0  0  0  0  0  0  0  0
   11.4569   -7.7071    0.0000 H   0  0  0  0  0  0  0  0  0  0  0  0
   11.7156   -5.7961    0.0000 H   0  0  0  0  0  0  0  0  0  0  0  0
    9.8787   -5.2095    0.0000 H   0  0  0  0  0  0  0  0  0  0  0  0
    8.9820   -6.9167    0.0000 C   0  0  0  0  0  0  0  0  0  0  0  0
    7.7140   -7.7180    0.0000 H   0  0  0  0  0  0  0  0  0  0  0  0
    9.5509   -8.3046    0.0000 C   0  0  0  0  0  0  0  0  0  0  0  0
   11.0374   -8.5059    0.0000 H   0  0  0  0  0  0  0  0  0  0  0  0
    8.0853   -8.6239    0.0000 H   0  0  0  0  0  0  0  0  0  0  0  0
    9.6109   -9.8034    0.0000 H   0  0  0  0  0  0  0  0  0  0  0  0
    7.9727   -5.8071    0.0000 O   0  0  0  0  0  0  0  0  0  0  0  0
    6.5070   -6.1264    0.0000 C   0  0  0  0  0  0  0  0  0  0  0  0
    6.0507   -7.5553    0.0000 O   0  0  0  0  0  0  0  0  0  0  0  0
    5.4977   -5.0168    0.0000 C   0  0  0  0  0  0  0  0  0  0  0  0
    6.7657   -4.2155    0.0000 H   0  0  0  0  0  0  0  0  0  0  0  0
    4.9288   -3.6289    0.0000 H   0  0  0  0  0  0  0  0  0  0  0  0
    4.0321   -5.3361    0.0000 C   0  0  0  0  0  0  0  0  0  0  0  0
    2.7641   -6.1374    0.0000 H   0  0  0  0  0  0  0  0  0  0  0  0
    4.6010   -6.7240    0.0000 H   0  0  0  0  0  0  0  0  0  0  0  0
    2.6998   -3.8714    0.0000 C   0  0  0  0  0  0  0  0  0  0  0  0
    3.9678   -3.0700    0.0000 H   0  0  0  0  0  0  0  0  0  0  0  0
    2.1308   -2.4834    0.0000 H   0  0  0  0  0  0  0  0  0  0  0  0
    1.2342   -4.1906    0.0000 C   0  0  0  0  0  0  0  0  0  0  0  0
    0.7779   -5.6196    0.0000 H   0  0  0  0  0  0  0  0  0  0  0  0
   -0.4211   -2.3709    0.0000 C   0  0  0  0  0  0  0  0  0  0  0  0
   -1.8868   -2.6901    0.0000 H   0  0  0  0  0  0  0  0  0  0  0  0
    0.0352   -0.9419    0.0000 C   0  0  0  0  0  0  0  0  0  0  0  0
    1.8335    1.3839    0.0000 H   0  0  0  0  0  0  0  0  0  0  0  0
    1.3631   -1.6394    0.0000 H   0  0  0  0  0  0  0  0  0  0  0  0
   -1.9431    1.2329    0.0000 C   0  0  2  0  0  0  0  0  0  0  0  0
   -2.9383    0.1106    0.0000 H   0  0  0  0  0  0  0  0  0  0  0  0
   -3.1655    2.1023    0.0000 C   0  0  1  0  0  0  0  0  0  0  0  0
   -3.9008    0.7949    0.0000 H   0  0  0  0  0  0  0  0  0  0  0  0
   -4.9842    2.8851    0.0000 C   0  0  0  0  0  0  0  0  0  0  0  0
   -5.1594    4.3749    0.0000 H   0  0  0  0  0  0  0  0  0  0  0  0
   -6.1867    1.9885    0.0000 C   0  0  0  0  0  0  0  0  0  0  0  0
   -6.0114    0.4988    0.0000 H   0  0  0  0  0  0  0  0  0  0  0  0
   -7.5644    2.5816    0.0000 C   0  0  2  0  0  0  0  0  0  0  0  0
   -6.7411    3.8355    0.0000 H   0  0  0  0  0  0  0  0  0  0  0  0
   -8.7670    1.6850    0.0000 C   0  0  0  0  0  0  0  0  0  0  0  0
   -9.5903    0.4311    0.0000 H   0  0  0  0  0  0  0  0  0  0  0  0
   -7.6751    0.6564    0.0000 H   0  0  0  0  0  0  0  0  0  0  0  0
  -10.1447    2.2781    0.0000 O   0  0  0  0  0  0  0  0  0  0  0  0
  -11.3472    1.3814    0.0000 H   0  0  0  0  0  0  0  0  0  0  0  0
   -8.6563    3.6102    0.0000 O   0  0  0  0  0  0  0  0  0  0  0  0
  -10.0929    3.1789    0.0000 H   0  0  0  0  0  0  0  0  0  0  0  0
   -2.7197    3.5400    0.0000 C   0  0  1  0  0  0  0  0  0  0  0  0
   -4.1900    3.8373    0.0000 H   0  0  0  0  0  0  0  0  0  0  0  0
   -1.2074    3.5443    0.0000 C   0  0  0  0  0  0  0  0  0  0  0  0
   -1.3664    5.0358    0.0000 H   0  0  0  0  0  0  0  0  0  0  0  0
    0.2598    3.8565    0.0000 H   0  0  0  0  0  0  0  0  0  0  0  0
   -0.7429    2.1096    0.0000 C   0  0  2  0  0  0  0  0  0  0  0  0
    0.6273    2.7198    0.0000 H   0  0  0  0  0  0  0  0  0  0  0  0
    0.0088    0.8115    0.0000 O   0  0  0  0  0  0  0  0  0  0  0  0
    2.9488    0.8154    0.0000 H   0  0  0  0  0  0  0  0  0  0  0  0
   -2.5725    5.0328    0.0000 O   0  0  0  0  0  0  0  0  0  0  0  0
   -3.7916    5.9067    0.0000 H   0  0  0  0  0  0  0  0  0  0  0  0
  1  2  1  0  0  0  0 
  1  3  1  0  0  0  0 
  1  4  1  0  0  0  0 
  1  5  1  0  0  0  0 
  5  6  1  0  0  0  0 
  5  7  1  0  0  0  0 
  7  8  1  0  0  0  0 
  7  9  1  0  0  0  0 
  7 10  1  0  0  0  0 
  5 11  1  0  0  0  0 
 11 12  1  0  0  0  0 
 12 13  2  0  0  0  0 
 12 14  1  0  0  0  0 
 14 15  1  0  0  0  0 
 14 16  1  0  0  0  0 
 14 17  1  0  0  0  0 
 17 18  1  0  0  0  0 
 17 19  1  0  0  0  0 
 17 20  1  0  0  0  0 
 20 21  1  0  0  0  0 
 20 22  1  0  0  0  0 
 20 23  1  0  0  0  0 
 23 24  1  0  0  0  0 
 23 25  2  0  0  0  0 
 25 26  1  0  0  0  0 
 25 27  1  0  0  0  0 
 27 28  1  0  0  0  0 
 27 29  1  0  0  0  0 
 30 27  1  6  0  0  0 
 30 31  1  1  0  0  0 
 30 32  1  0  0  0  0 
 32 33  1  6  0  0  0 
 32 34  1  1  0  0  0 
 34 35  1  0  0  0  0 
 34 36  2  0  0  0  0 
 36 37  1  0  0  0  0 
 36 38  1  0  0  0  0 
 38 39  1  1  0  0  0 
 38 40  1  0  0  0  0 
 40 41  1  0  0  0  0 
 40 42  1  0  0  0  0 
 40 43  1  0  0  0  0 
 43 44  1  0  0  0  0 
 38 45  1  6  0  0  0 
 45 46  1  0  0  0  0 
 32 47  1  0  0  0  0 
 47 48  1  1  0  0  0 
 47 49  1  0  0  0  0 
 49 50  1  0  0  0  0 
 49 51  1  0  0  0  0 
 49 52  1  0  0  0  0 
 30 52  1  0  0  0  0 
 52 53  1  1  0  0  0 
 52 54  1  6  0  0  0 
 54 55  1  0  0  0  0 
 47 56  1  6  0  0  0 
 56 57  1  0  0  0  0 
M  END
> <Rank>
8

> <Priority_score>
0.136

> <Reaction_type>
O-dealkylation_(aromatic)

> <Parent_ID>
10

> <Parent_InChI>
InChI=1S/C26H35F3O6/c1-17(2)35-25(33)11-6-4-3-5-10-21-22(24(32)15-23(21)31)13-12-19(30)16-34-20-9-7-8-18(14-20)26(27,28)29/h3,5,7-9,12-14,17,19,21-24,30-32H,4,6,10-11,15-16H2,1-2H3

> <Parent_SMILES>
CC(C)OC(=O)CCC/C=C\C[C@H]1[C@@H](O)C[C@@H](O)[C@@H]1/C=C/[C@@H](O)COc1cccc(C(F)(F)F)c1

$$$$
Molecule 10_metabolite 11
  CDK     0516241031

 55 55  0  0  0  0  0  0  0  0999 V2000
   10.5474   -6.9699    0.0000 C   0  0  0  0  0  0  0  0  0  0  0  0
   11.5567   -8.0795    0.0000 H   0  0  0  0  0  0  0  0  0  0  0  0
   11.8154   -6.1686    0.0000 H   0  0  0  0  0  0  0  0  0  0  0  0
    9.9785   -5.5820    0.0000 H   0  0  0  0  0  0  0  0  0  0  0  0
    9.0818   -7.2892    0.0000 C   0  0  0  0  0  0  0  0  0  0  0  0
    7.8137   -8.0905    0.0000 H   0  0  0  0  0  0  0  0  0  0  0  0
    9.6507   -8.6771    0.0000 C   0  0  0  0  0  0  0  0  0  0  0  0
   11.1372   -8.8783    0.0000 H   0  0  0  0  0  0  0  0  0  0  0  0
    8.1851   -8.9964    0.0000 H   0  0  0  0  0  0  0  0  0  0  0  0
    9.7107  -10.1759    0.0000 H   0  0  0  0  0  0  0  0  0  0  0  0
    8.0725   -6.1795    0.0000 O   0  0  0  0  0  0  0  0  0  0  0  0
    6.6068   -6.4988    0.0000 C   0  0  0  0  0  0  0  0  0  0  0  0
    6.1505   -7.9277    0.0000 O   0  0  0  0  0  0  0  0  0  0  0  0
    5.5975   -5.3892    0.0000 C   0  0  0  0  0  0  0  0  0  0  0  0
    6.8655   -4.5879    0.0000 H   0  0  0  0  0  0  0  0  0  0  0  0
    5.0286   -4.0013    0.0000 H   0  0  0  0  0  0  0  0  0  0  0  0
    4.1319   -5.7085    0.0000 C   0  0  0  0  0  0  0  0  0  0  0  0
    2.8638   -6.5098    0.0000 H   0  0  0  0  0  0  0  0  0  0  0  0
    4.7008   -7.0964    0.0000 H   0  0  0  0  0  0  0  0  0  0  0  0
    2.7996   -4.2438    0.0000 C   0  0  0  0  0  0  0  0  0  0  0  0
    4.0676   -3.4425    0.0000 H   0  0  0  0  0  0  0  0  0  0  0  0
    2.2306   -2.8559    0.0000 H   0  0  0  0  0  0  0  0  0  0  0  0
    1.3339   -4.5631    0.0000 C   0  0  0  0  0  0  0  0  0  0  0  0
    0.8776   -5.9920    0.0000 H   0  0  0  0  0  0  0  0  0  0  0  0
   -0.3213   -2.7433    0.0000 C   0  0  0  0  0  0  0  0  0  0  0  0
   -1.7870   -3.0626    0.0000 H   0  0  0  0  0  0  0  0  0  0  0  0
    0.1350   -1.3144    0.0000 C   0  0  0  0  0  0  0  0  0  0  0  0
    1.9333    1.0115    0.0000 H   0  0  0  0  0  0  0  0  0  0  0  0
    1.4629   -2.0119    0.0000 H   0  0  0  0  0  0  0  0  0  0  0  0
   -1.8433    0.8605    0.0000 C   0  0  2  0  0  0  0  0  0  0  0  0
   -2.8385   -0.2618    0.0000 H   0  0  0  0  0  0  0  0  0  0  0  0
   -3.0657    1.7298    0.0000 C   0  0  1  0  0  0  0  0  0  0  0  0
   -3.8010    0.4224    0.0000 H   0  0  0  0  0  0  0  0  0  0  0  0
   -4.8844    2.5127    0.0000 C   0  0  0  0  0  0  0  0  0  0  0  0
   -5.0596    4.0024    0.0000 H   0  0  0  0  0  0  0  0  0  0  0  0
   -6.0869    1.6161    0.0000 C   0  0  0  0  0  0  0  0  0  0  0  0
   -5.9116    0.1264    0.0000 H   0  0  0  0  0  0  0  0  0  0  0  0
   -7.4646    2.2092    0.0000 C   0  0  2  0  0  0  0  0  0  0  0  0
   -6.6413    3.4630    0.0000 H   0  0  0  0  0  0  0  0  0  0  0  0
   -8.6672    1.3125    0.0000 C   0  0  0  0  0  0  0  0  0  0  0  0
  -10.0449    1.9056    0.0000 H   0  0  0  0  0  0  0  0  0  0  0  0
   -8.4919   -0.1772    0.0000 O   0  0  0  0  0  0  0  0  0  0  0  0
   -8.5565    3.2377    0.0000 O   0  0  0  0  0  0  0  0  0  0  0  0
   -9.9931    2.8064    0.0000 H   0  0  0  0  0  0  0  0  0  0  0  0
   -2.6199    3.1676    0.0000 C   0  0  1  0  0  0  0  0  0  0  0  0
   -4.0902    3.4648    0.0000 H   0  0  0  0  0  0  0  0  0  0  0  0
   -1.1076    3.1718    0.0000 C   0  0  0  0  0  0  0  0  0  0  0  0
   -1.2666    4.6634    0.0000 H   0  0  0  0  0  0  0  0  0  0  0  0
    0.3596    3.4840    0.0000 H   0  0  0  0  0  0  0  0  0  0  0  0
   -0.6431    1.7371    0.0000 C   0  0  2  0  0  0  0  0  0  0  0  0
    0.7271    2.3474    0.0000 H   0  0  0  0  0  0  0  0  0  0  0  0
    0.1086    0.4391    0.0000 O   0  0  0  0  0  0  0  0  0  0  0  0
    3.0486    0.4430    0.0000 H   0  0  0  0  0  0  0  0  0  0  0  0
   -2.4727    4.6603    0.0000 O   0  0  0  0  0  0  0  0  0  0  0  0
   -3.6918    5.5342    0.0000 H   0  0  0  0  0  0  0  0  0  0  0  0
  1  2  1  0  0  0  0 
  1  3  1  0  0  0  0 
  1  4  1  0  0  0  0 
  1  5  1  0  0  0  0 
  5  6  1  0  0  0  0 
  5  7  1  0  0  0  0 
  7  8  1  0  0  0  0 
  7  9  1  0  0  0  0 
  7 10  1  0  0  0  0 
  5 11  1  0  0  0  0 
 11 12  1  0  0  0  0 
 12 13  2  0  0  0  0 
 12 14  1  0  0  0  0 
 14 15  1  0  0  0  0 
 14 16  1  0  0  0  0 
 14 17  1  0  0  0  0 
 17 18  1  0  0  0  0 
 17 19  1  0  0  0  0 
 17 20  1  0  0  0  0 
 20 21  1  0  0  0  0 
 20 22  1  0  0  0  0 
 20 23  1  0  0  0  0 
 23 24  1  0  0  0  0 
 23 25  2  0  0  0  0 
 25 26  1  0  0  0  0 
 25 27  1  0  0  0  0 
 27 28  1  0  0  0  0 
 27 29  1  0  0  0  0 
 30 27  1  6  0  0  0 
 30 31  1  1  0  0  0 
 30 32  1  0  0  0  0 
 32 33  1  6  0  0  0 
 32 34  1  1  0  0  0 
 34 35  1  0  0  0  0 
 34 36  2  0  0  0  0 
 36 37  1  0  0  0  0 
 36 38  1  0  0  0  0 
 38 39  1  1  0  0  0 
 38 40  1  0  0  0  0 
 40 41  1  0  0  0  0 
 40 42  2  0  0  0  0 
 38 43  1  6  0  0  0 
 43 44  1  0  0  0  0 
 32 45  1  0  0  0  0 
 45 46  1  1  0  0  0 
 45 47  1  0  0  0  0 
 47 48  1  0  0  0  0 
 47 49  1  0  0  0  0 
 47 50  1  0  0  0  0 
 30 50  1  0  0  0  0 
 50 51  1  1  0  0  0 
 50 52  1  6  0  0  0 
 52 53  1  0  0  0  0 
 45 54  1  6  0  0  0 
 54 55  1  0  0  0  0 
M  END
> <Rank>
8

> <Priority_score>
0.136

> <Reaction_type>
oxidative ether cleavage to one alcohol and one aldehyde/ketone

> <Parent_ID>
10

> <Parent_InChI>
InChI=1S/C26H35F3O6/c1-17(2)35-25(33)11-6-4-3-5-10-21-22(24(32)15-23(21)31)13-12-19(30)16-34-20-9-7-8-18(14-20)26(27,28)29/h3,5,7-9,12-14,17,19,21-24,30-32H,4,6,10-11,15-16H2,1-2H3

> <Parent_SMILES>
CC(C)OC(=O)CCC/C=C\C[C@H]1[C@@H](O)C[C@@H](O)[C@@H]1/C=C/[C@@H](O)COc1cccc(C(F)(F)F)c1

$$$$
Molecule 10_metabolite 12
  CDK     0516241031

 71 72  0  0  0  0  0  0  0  0999 V2000
  -10.4505   11.5042    0.0000 C   0  0  0  0  0  0  0  0  0  0  0  0
   -9.8281   10.1394    0.0000 H   0  0  0  0  0  0  0  0  0  0  0  0
  -10.5686   12.9995    0.0000 H   0  0  0  0  0  0  0  0  0  0  0  0
   -8.9984   11.8801    0.0000 H   0  0  0  0  0  0  0  0  0  0  0  0
  -11.9437   11.6476    0.0000 C   0  0  0  0  0  0  0  0  0  0  0  0
  -11.8256   10.1522    0.0000 H   0  0  0  0  0  0  0  0  0  0  0  0
  -13.3958   11.2716    0.0000 C   0  0  0  0  0  0  0  0  0  0  0  0
  -13.7963    9.8260    0.0000 H   0  0  0  0  0  0  0  0  0  0  0  0
  -14.8889   11.4150    0.0000 H   0  0  0  0  0  0  0  0  0  0  0  0
  -13.5139   12.7669    0.0000 H   0  0  0  0  0  0  0  0  0  0  0  0
  -12.5661   13.0123    0.0000 O   0  0  0  0  0  0  0  0  0  0  0  0
  -11.6954   14.2337    0.0000 C   0  0  0  0  0  0  0  0  0  0  0  0
  -10.2022   14.0904    0.0000 O   0  0  0  0  0  0  0  0  0  0  0  0
  -12.3178   15.5985    0.0000 C   0  0  0  0  0  0  0  0  0  0  0  0
  -13.3694   16.6681    0.0000 H   0  0  0  0  0  0  0  0  0  0  0  0
  -13.5537   14.7486    0.0000 H   0  0  0  0  0  0  0  0  0  0  0  0
  -11.4470   16.8199    0.0000 C   0  0  0  0  0  0  0  0  0  0  0  0
  -12.8011   17.4653    0.0000 H   0  0  0  0  0  0  0  0  0  0  0  0
  -11.0466   18.2655    0.0000 H   0  0  0  0  0  0  0  0  0  0  0  0
   -9.9539   16.6766    0.0000 C   0  0  0  0  0  0  0  0  0  0  0  0
   -8.5999   16.0311    0.0000 H   0  0  0  0  0  0  0  0  0  0  0  0
  -10.3544   15.2310    0.0000 H   0  0  0  0  0  0  0  0  0  0  0  0
   -9.0832   17.8980    0.0000 C   0  0  0  0  0  0  0  0  0  0  0  0
   -9.7056   19.2627    0.0000 H   0  0  0  0  0  0  0  0  0  0  0  0
   -7.1122   17.7087    0.0000 C   0  0  0  0  0  0  0  0  0  0  0  0
   -6.2415   18.9301    0.0000 H   0  0  0  0  0  0  0  0  0  0  0  0
   -6.0915   15.4705    0.0000 C   0  0  0  0  0  0  0  0  0  0  0  0
   -7.5436   15.0945    0.0000 H   0  0  0  0  0  0  0  0  0  0  0  0
   -5.9734   13.9751    0.0000 H   0  0  0  0  0  0  0  0  0  0  0  0
   -4.1206   15.2812    0.0000 C   0  0  2  0  0  0  0  0  0  0  0  0
   -4.4229   13.8120    0.0000 H   0  0  0  0  0  0  0  0  0  0  0  0
   -2.6922   14.8233    0.0000 C   0  0  1  0  0  0  0  0  0  0  0  0
   -3.2984   13.4513    0.0000 H   0  0  0  0  0  0  0  0  0  0  0  0
   -0.9758   13.8362    0.0000 C   0  0  0  0  0  0  0  0  0  0  0  0
    0.3220   14.5884    0.0000 H   0  0  0  0  0  0  0  0  0  0  0  0
   -0.9733   12.3362    0.0000 C   0  0  0  0  0  0  0  0  0  0  0  0
   -2.2710   11.5840    0.0000 H   0  0  0  0  0  0  0  0  0  0  0  0
    0.3270   11.5884    0.0000 C   0  0  2  0  0  0  0  0  0  0  0  0
    1.8047   11.3304    0.0000 H   0  0  0  0  0  0  0  0  0  0  0  0
    0.3295   10.0884    0.0000 C   0  0  0  0  0  0  0  0  0  0  0  0
   -1.1481   10.3464    0.0000 H   0  0  0  0  0  0  0  0  0  0  0  0
   -0.1811    8.6780    0.0000 O   0  0  0  0  0  0  0  0  0  0  0  0
   -1.6579    8.4150    0.0000 H   0  0  0  0  0  0  0  0  0  0  0  0
    1.6298    9.3406    0.0000 O   0  0  0  0  0  0  0  0  0  0  0  0
    1.6323    7.8406    0.0000 C   0  0  0  0  0  0  0  0  0  0  0  0
    2.9323    7.0906    0.0000 C   0  0  0  0  0  0  0  0  0  0  0  0
    4.2313    7.8408    0.0000 H   0  0  0  0  0  0  0  0  0  0  0  0
    2.9323    5.5906    0.0000 C   0  0  0  0  0  0  0  0  0  0  0  0
    1.6323    4.8406    0.0000 C   0  0  0  0  0  0  0  0  0  0  0  0
    1.6298    3.3406    0.0000 H   0  0  0  0  0  0  0  0  0  0  0  0
    0.3423    5.5906    0.0000 C   0  0  0  0  0  0  0  0  0  0  0  0
   -0.9578    4.8425    0.0000 H   0  0  0  0  0  0  0  0  0  0  0  0
    0.3423    7.0906    0.0000 C   0  0  0  0  0  0  0  0  0  0  0  0
   -0.9578    7.8386    0.0000 H   0  0  0  0  0  0  0  0  0  0  0  0
    4.2313    4.8404    0.0000 C   0  0  0  0  0  0  0  0  0  0  0  0
    4.2310    3.3404    0.0000 F   0  0  0  0  0  0  0  0  0  0  0  0
    5.7084    4.5796    0.0000 F   0  0  0  0  0  0  0  0  0  0  0  0
    4.7445    6.2498    0.0000 F   0  0  0  0  0  0  0  0  0  0  0  0
    0.8377   12.9988    0.0000 O   0  0  0  0  0  0  0  0  0  0  0  0
    2.3145   13.2617    0.0000 H   0  0  0  0  0  0  0  0  0  0  0  0
   -1.8081   16.0416    0.0000 C   0  0  1  0  0  0  0  0  0  0  0  0
   -0.6892   15.0425    0.0000 H   0  0  0  0  0  0  0  0  0  0  0  0
   -2.7107   17.2551    0.0000 C   0  0  0  0  0  0  0  0  0  0  0  0
   -1.4212   18.0213    0.0000 H   0  0  0  0  0  0  0  0  0  0  0  0
   -3.3397   18.6168    0.0000 H   0  0  0  0  0  0  0  0  0  0  0  0
   -4.1377   16.7674    0.0000 C   0  0  2  0  0  0  0  0  0  0  0  0
   -4.4700   18.2301    0.0000 H   0  0  0  0  0  0  0  0  0  0  0  0
   -5.5157   17.3600    0.0000 O   0  0  0  0  0  0  0  0  0  0  0  0
   -5.8039   19.8031    0.0000 H   0  0  0  0  0  0  0  0  0  0  0  0
   -0.7011   17.0538    0.0000 O   0  0  0  0  0  0  0  0  0  0  0  0
    0.7290   16.6012    0.0000 H   0  0  0  0  0  0  0  0  0  0  0  0
  1  2  1  0  0  0  0 
  1  3  1  0  0  0  0 
  1  4  1  0  0  0  0 
  1  5  1  0  0  0  0 
  5  6  1  0  0  0  0 
  5  7  1  0  0  0  0 
  7  8  1  0  0  0  0 
  7  9  1  0  0  0  0 
  7 10  1  0  0  0  0 
  5 11  1  0  0  0  0 
 11 12  1  0  0  0  0 
 12 13  2  0  0  0  0 
 12 14  1  0  0  0  0 
 14 15  1  0  0  0  0 
 14 16  1  0  0  0  0 
 14 17  1  0  0  0  0 
 17 18  1  0  0  0  0 
 17 19  1  0  0  0  0 
 17 20  1  0  0  0  0 
 20 21  1  0  0  0  0 
 20 22  1  0  0  0  0 
 20 23  1  0  0  0  0 
 23 24  1  0  0  0  0 
 23 25  2  0  0  0  0 
 25 26  1  0  0  0  0 
 25 27  1  0  0  0  0 
 27 28  1  0  0  0  0 
 27 29  1  0  0  0  0 
 30 27  1  1  0  0  0 
 30 31  1  6  0  0  0 
 30 32  1  0  0  0  0 
 32 33  1  1  0  0  0 
 32 34  1  6  0  0  0 
 34 35  1  0  0  0  0 
 34 36  2  0  0  0  0 
 36 37  1  0  0  0  0 
 36 38  1  0  0  0  0 
 38 39  1  6  0  0  0 
 38 40  1  0  0  0  0 
 40 41  1  0  0  0  0 
 40 42  1  0  0  0  0 
 42 43  1  0  0  0  0 
 40 44  1  0  0  0  0 
 44 45  1  0  0  0  0 
 45 46  2  0  0  0  0 
 46 47  1  0  0  0  0 
 46 48  1  0  0  0  0 
 48 49  2  0  0  0  0 
 49 50  1  0  0  0  0 
 49 51  1  0  0  0  0 
 51 52  1  0  0  0  0 
 51 53  2  0  0  0  0 
 45 53  1  0  0  0  0 
 53 54  1  0  0  0  0 
 48 55  1  0  0  0  0 
 55 56  1  0  0  0  0 
 55 57  1  0  0  0  0 
 55 58  1  0  0  0  0 
 38 59  1  1  0  0  0 
 59 60  1  0  0  0  0 
 32 61  1  0  0  0  0 
 61 62  1  6  0  0  0 
 61 63  1  0  0  0  0 
 63 64  1  0  0  0  0 
 63 65  1  0  0  0  0 
 63 66  1  0  0  0  0 
 30 66  1  0  0  0  0 
 66 67  1  6  0  0  0 
 66 68  1  1  0  0  0 
 68 69  1  0  0  0  0 
 61 70  1  1  0  0  0 
 70 71  1  0  0  0  0 
M  END
> <Rank>
8

> <Priority_score>
0.136

> <Reaction_type>
aliphatic hydroxylation

> <Parent_ID>
10

> <Parent_InChI>
InChI=1S/C26H35F3O6/c1-17(2)35-25(33)11-6-4-3-5-10-21-22(24(32)15-23(21)31)13-12-19(30)16-34-20-9-7-8-18(14-20)26(27,28)29/h3,5,7-9,12-14,17,19,21-24,30-32H,4,6,10-11,15-16H2,1-2H3

> <Parent_SMILES>
CC(C)OC(=O)CCC/C=C\C[C@H]1[C@@H](O)C[C@@H](O)[C@@H]1/C=C/[C@@H](O)COc1cccc(C(F)(F)F)c1

$$$$
Molecule 10_metabolite 13
  CDK     0516241031

 68 69  0  0  0  0  0  0  0  0999 V2000
  -10.4505   11.5042    0.0000 C   0  0  0  0  0  0  0  0  0  0  0  0
   -9.8281   10.1394    0.0000 H   0  0  0  0  0  0  0  0  0  0  0  0
  -10.5686   12.9995    0.0000 H   0  0  0  0  0  0  0  0  0  0  0  0
   -8.9984   11.8801    0.0000 H   0  0  0  0  0  0  0  0  0  0  0  0
  -11.9437   11.6476    0.0000 C   0  0  0  0  0  0  0  0  0  0  0  0
  -11.8256   10.1522    0.0000 H   0  0  0  0  0  0  0  0  0  0  0  0
  -13.3958   11.2716    0.0000 C   0  0  0  0  0  0  0  0  0  0  0  0
  -13.7963    9.8260    0.0000 H   0  0  0  0  0  0  0  0  0  0  0  0
  -14.8889   11.4150    0.0000 H   0  0  0  0  0  0  0  0  0  0  0  0
  -13.5139   12.7669    0.0000 H   0  0  0  0  0  0  0  0  0  0  0  0
  -12.5661   13.0123    0.0000 O   0  0  0  0  0  0  0  0  0  0  0  0
  -11.6954   14.2337    0.0000 C   0  0  0  0  0  0  0  0  0  0  0  0
  -10.2022   14.0904    0.0000 O   0  0  0  0  0  0  0  0  0  0  0  0
  -12.3178   15.5985    0.0000 C   0  0  0  0  0  0  0  0  0  0  0  0
  -13.3694   16.6681    0.0000 H   0  0  0  0  0  0  0  0  0  0  0  0
  -13.5537   14.7486    0.0000 H   0  0  0  0  0  0  0  0  0  0  0  0
  -11.4470   16.8199    0.0000 C   0  0  0  0  0  0  0  0  0  0  0  0
  -12.8011   17.4653    0.0000 H   0  0  0  0  0  0  0  0  0  0  0  0
  -11.0466   18.2655    0.0000 H   0  0  0  0  0  0  0  0  0  0  0  0
   -9.9539   16.6766    0.0000 C   0  0  0  0  0  0  0  0  0  0  0  0
   -8.5999   16.0311    0.0000 H   0  0  0  0  0  0  0  0  0  0  0  0
  -10.3544   15.2310    0.0000 H   0  0  0  0  0  0  0  0  0  0  0  0
   -9.0832   17.8980    0.0000 C   0  0  0  0  0  0  0  0  0  0  0  0
   -9.7056   19.2627    0.0000 H   0  0  0  0  0  0  0  0  0  0  0  0
   -7.1122   17.7087    0.0000 C   0  0  0  0  0  0  0  0  0  0  0  0
   -6.2415   18.9301    0.0000 H   0  0  0  0  0  0  0  0  0  0  0  0
   -6.0915   15.4705    0.0000 C   0  0  0  0  0  0  0  0  0  0  0  0
   -7.5436   15.0945    0.0000 H   0  0  0  0  0  0  0  0  0  0  0  0
   -5.9734   13.9751    0.0000 H   0  0  0  0  0  0  0  0  0  0  0  0
   -4.1206   15.2812    0.0000 C   0  0  2  0  0  0  0  0  0  0  0  0
   -4.4229   13.8120    0.0000 H   0  0  0  0  0  0  0  0  0  0  0  0
   -2.6922   14.8233    0.0000 C   0  0  1  0  0  0  0  0  0  0  0  0
   -3.2984   13.4513    0.0000 H   0  0  0  0  0  0  0  0  0  0  0  0
   -0.9758   13.8362    0.0000 C   0  0  0  0  0  0  0  0  0  0  0  0
    0.3220   14.5884    0.0000 H   0  0  0  0  0  0  0  0  0  0  0  0
   -0.9733   12.3362    0.0000 C   0  0  0  0  0  0  0  0  0  0  0  0
   -2.2710   11.5840    0.0000 H   0  0  0  0  0  0  0  0  0  0  0  0
    0.3270   11.5884    0.0000 C   0  0  0  0  0  0  0  0  0  0  0  0
    1.6248   12.3406    0.0000 O   0  0  0  0  0  0  0  0  0  0  0  0
    0.3295   10.0884    0.0000 C   0  0  0  0  0  0  0  0  0  0  0  0
   -1.1481   10.3464    0.0000 H   0  0  0  0  0  0  0  0  0  0  0  0
   -0.1811    8.6780    0.0000 H   0  0  0  0  0  0  0  0  0  0  0  0
    1.6298    9.3406    0.0000 O   0  0  0  0  0  0  0  0  0  0  0  0
    1.6323    7.8406    0.0000 C   0  0  0  0  0  0  0  0  0  0  0  0
    2.9323    7.0906    0.0000 C   0  0  0  0  0  0  0  0  0  0  0  0
    4.2313    7.8408    0.0000 H   0  0  0  0  0  0  0  0  0  0  0  0
    2.9323    5.5906    0.0000 C   0  0  0  0  0  0  0  0  0  0  0  0
    1.6323    4.8406    0.0000 C   0  0  0  0  0  0  0  0  0  0  0  0
    1.6298    3.3406    0.0000 H   0  0  0  0  0  0  0  0  0  0  0  0
    0.3423    5.5906    0.0000 C   0  0  0  0  0  0  0  0  0  0  0  0
   -0.9578    4.8425    0.0000 H   0  0  0  0  0  0  0  0  0  0  0  0
    0.3423    7.0906    0.0000 C   0  0  0  0  0  0  0  0  0  0  0  0
   -0.9578    7.8386    0.0000 H   0  0  0  0  0  0  0  0  0  0  0  0
    4.2313    4.8404    0.0000 C   0  0  0  0  0  0  0  0  0  0  0  0
    4.2310    3.3404    0.0000 F   0  0  0  0  0  0  0  0  0  0  0  0
    5.7084    4.5796    0.0000 F   0  0  0  0  0  0  0  0  0  0  0  0
    4.7445    6.2498    0.0000 F   0  0  0  0  0  0  0  0  0  0  0  0
   -1.8081   16.0416    0.0000 C   0  0  1  0  0  0  0  0  0  0  0  0
   -0.6892   15.0425    0.0000 H   0  0  0  0  0  0  0  0  0  0  0  0
   -2.7107   17.2551    0.0000 C   0  0  0  0  0  0  0  0  0  0  0  0
   -1.4212   18.0213    0.0000 H   0  0  0  0  0  0  0  0  0  0  0  0
   -3.3397   18.6168    0.0000 H   0  0  0  0  0  0  0  0  0  0  0  0
   -4.1377   16.7674    0.0000 C   0  0  2  0  0  0  0  0  0  0  0  0
   -4.4700   18.2301    0.0000 H   0  0  0  0  0  0  0  0  0  0  0  0
   -5.5157   17.3600    0.0000 O   0  0  0  0  0  0  0  0  0  0  0  0
   -5.8039   19.8031    0.0000 H   0  0  0  0  0  0  0  0  0  0  0  0
   -0.7011   17.0538    0.0000 O   0  0  0  0  0  0  0  0  0  0  0  0
    0.7290   16.6012    0.0000 H   0  0  0  0  0  0  0  0  0  0  0  0
  1  2  1  0  0  0  0 
  1  3  1  0  0  0  0 
  1  4  1  0  0  0  0 
  1  5  1  0  0  0  0 
  5  6  1  0  0  0  0 
  5  7  1  0  0  0  0 
  7  8  1  0  0  0  0 
  7  9  1  0  0  0  0 
  7 10  1  0  0  0  0 
  5 11  1  0  0  0  0 
 11 12  1  0  0  0  0 
 12 13  2  0  0  0  0 
 12 14  1  0  0  0  0 
 14 15  1  0  0  0  0 
 14 16  1  0  0  0  0 
 14 17  1  0  0  0  0 
 17 18  1  0  0  0  0 
 17 19  1  0  0  0  0 
 17 20  1  0  0  0  0 
 20 21  1  0  0  0  0 
 20 22  1  0  0  0  0 
 20 23  1  0  0  0  0 
 23 24  1  0  0  0  0 
 23 25  2  0  0  0  0 
 25 26  1  0  0  0  0 
 25 27  1  0  0  0  0 
 27 28  1  0  0  0  0 
 27 29  1  0  0  0  0 
 30 27  1  1  0  0  0 
 30 31  1  6  0  0  0 
 30 32  1  0  0  0  0 
 32 33  1  1  0  0  0 
 32 34  1  6  0  0  0 
 34 35  1  0  0  0  0 
 34 36  2  0  0  0  0 
 36 37  1  0  0  0  0 
 36 38  1  0  0  0  0 
 38 39  2  0  0  0  0 
 38 40  1  0  0  0  0 
 40 41  1  0  0  0  0 
 40 42  1  0  0  0  0 
 40 43  1  0  0  0  0 
 43 44  1  0  0  0  0 
 44 45  2  0  0  0  0 
 45 46  1  0  0  0  0 
 45 47  1  0  0  0  0 
 47 48  2  0  0  0  0 
 48 49  1  0  0  0  0 
 48 50  1  0  0  0  0 
 50 51  1  0  0  0  0 
 50 52  2  0  0  0  0 
 44 52  1  0  0  0  0 
 52 53  1  0  0  0  0 
 47 54  1  0  0  0  0 
 54 55  1  0  0  0  0 
 54 56  1  0  0  0  0 
 54 57  1  0  0  0  0 
 32 58  1  0  0  0  0 
 58 59  1  6  0  0  0 
 58 60  1  0  0  0  0 
 60 61  1  0  0  0  0 
 60 62  1  0  0  0  0 
 60 63  1  0  0  0  0 
 30 63  1  0  0  0  0 
 63 64  1  6  0  0  0 
 63 65  1  1  0  0  0 
 65 66  1  0  0  0  0 
 58 67  1  1  0  0  0 
 67 68  1  0  0  0  0 
M  END
> <Rank>
8

> <Priority_score>
0.136

> <Reaction_type>
secondary_alcohol_oxidation_(aliphatic)

> <Parent_ID>
10

> <Parent_InChI>
InChI=1S/C26H35F3O6/c1-17(2)35-25(33)11-6-4-3-5-10-21-22(24(32)15-23(21)31)13-12-19(30)16-34-20-9-7-8-18(14-20)26(27,28)29/h3,5,7-9,12-14,17,19,21-24,30-32H,4,6,10-11,15-16H2,1-2H3

> <Parent_SMILES>
CC(C)OC(=O)CCC/C=C\C[C@H]1[C@@H](O)C[C@@H](O)[C@@H]1/C=C/[C@@H](O)COc1cccc(C(F)(F)F)c1

$$$$
Molecule 10_metabolite 14
  CDK     0516241031

 74 75  0  0  0  0  0  0  0  0999 V2000
  -10.4505   11.5042    0.0000 C   0  0  0  0  0  0  0  0  0  0  0  0
   -9.8281   10.1394    0.0000 H   0  0  0  0  0  0  0  0  0  0  0  0
  -10.5686   12.9995    0.0000 H   0  0  0  0  0  0  0  0  0  0  0  0
   -8.9984   11.8801    0.0000 H   0  0  0  0  0  0  0  0  0  0  0  0
  -11.9437   11.6476    0.0000 C   0  0  0  0  0  0  0  0  0  0  0  0
  -11.8256   10.1522    0.0000 H   0  0  0  0  0  0  0  0  0  0  0  0
  -13.3958   11.2716    0.0000 C   0  0  0  0  0  0  0  0  0  0  0  0
  -13.7963    9.8260    0.0000 H   0  0  0  0  0  0  0  0  0  0  0  0
  -14.8889   11.4150    0.0000 H   0  0  0  0  0  0  0  0  0  0  0  0
  -13.5139   12.7669    0.0000 H   0  0  0  0  0  0  0  0  0  0  0  0
  -12.5661   13.0123    0.0000 O   0  0  0  0  0  0  0  0  0  0  0  0
  -11.6954   14.2337    0.0000 C   0  0  0  0  0  0  0  0  0  0  0  0
  -10.2022   14.0904    0.0000 O   0  0  0  0  0  0  0  0  0  0  0  0
  -12.3178   15.5985    0.0000 C   0  0  0  0  0  0  0  0  0  0  0  0
  -13.3694   16.6681    0.0000 H   0  0  0  0  0  0  0  0  0  0  0  0
  -13.5537   14.7486    0.0000 H   0  0  0  0  0  0  0  0  0  0  0  0
  -11.4470   16.8199    0.0000 C   0  0  0  0  0  0  0  0  0  0  0  0
  -12.8011   17.4653    0.0000 H   0  0  0  0  0  0  0  0  0  0  0  0
  -11.0466   18.2655    0.0000 H   0  0  0  0  0  0  0  0  0  0  0  0
   -9.9539   16.6766    0.0000 C   0  0  0  0  0  0  0  0  0  0  0  0
   -8.5999   16.0311    0.0000 H   0  0  0  0  0  0  0  0  0  0  0  0
  -10.3544   15.2310    0.0000 H   0  0  0  0  0  0  0  0  0  0  0  0
   -9.0832   17.8980    0.0000 C   0  0  0  0  0  0  0  0  0  0  0  0
   -9.7056   19.2627    0.0000 H   0  0  0  0  0  0  0  0  0  0  0  0
   -7.1122   17.7087    0.0000 C   0  0  0  0  0  0  0  0  0  0  0  0
   -6.2415   18.9301    0.0000 H   0  0  0  0  0  0  0  0  0  0  0  0
   -6.0915   15.4705    0.0000 C   0  0  0  0  0  0  0  0  0  0  0  0
   -7.5436   15.0945    0.0000 H   0  0  0  0  0  0  0  0  0  0  0  0
   -5.9734   13.9751    0.0000 H   0  0  0  0  0  0  0  0  0  0  0  0
   -4.1206   15.2812    0.0000 C   0  0  2  0  0  0  0  0  0  0  0  0
   -4.4229   13.8120    0.0000 H   0  0  0  0  0  0  0  0  0  0  0  0
   -2.6922   14.8233    0.0000 C   0  0  1  0  0  0  0  0  0  0  0  0
   -3.2984   13.4513    0.0000 H   0  0  0  0  0  0  0  0  0  0  0  0
   -0.9758   13.8362    0.0000 C   0  0  0  0  0  0  0  0  0  0  0  0
    0.3220   14.5884    0.0000 H   0  0  0  0  0  0  0  0  0  0  0  0
   -0.9733   12.3362    0.0000 C   0  0  0  0  0  0  0  0  0  0  0  0
   -2.2710   11.5840    0.0000 H   0  0  0  0  0  0  0  0  0  0  0  0
    0.3270   11.5884    0.0000 C   0  0  2  0  0  0  0  0  0  0  0  0
    1.8047   11.3304    0.0000 H   0  0  0  0  0  0  0  0  0  0  0  0
    0.3295   10.0884    0.0000 C   0  0  0  0  0  0  0  0  0  0  0  0
   -1.1481   10.3464    0.0000 H   0  0  0  0  0  0  0  0  0  0  0  0
   -0.1811    8.6780    0.0000 H   0  0  0  0  0  0  0  0  0  0  0  0
    1.6298    9.3406    0.0000 O   0  0  0  0  0  0  0  0  0  0  0  0
    1.6323    7.8406    0.0000 C   0  0  0  0  0  0  0  0  0  0  0  0
    2.9323    7.0906    0.0000 C   0  0  0  0  0  0  0  0  0  0  0  0
    4.2313    7.8408    0.0000 H   0  0  0  0  0  0  0  0  0  0  0  0
    2.9323    5.5906    0.0000 C   0  0  0  0  0  0  0  0  0  0  0  0
    1.6323    4.8406    0.0000 C   0  0  0  0  0  0  0  0  0  0  0  0
    1.6298    3.3406    0.0000 H   0  0  0  0  0  0  0  0  0  0  0  0
    0.3423    5.5906    0.0000 C   0  0  0  0  0  0  0  0  0  0  0  0
   -0.9578    4.8425    0.0000 H   0  0  0  0  0  0  0  0  0  0  0  0
    0.3423    7.0906    0.0000 C   0  0  0  0  0  0  0  0  0  0  0  0
   -0.9578    7.8386    0.0000 H   0  0  0  0  0  0  0  0  0  0  0  0
    4.2313    4.8404    0.0000 C   0  0  0  0  0  0  0  0  0  0  0  0
    4.2310    3.3404    0.0000 F   0  0  0  0  0  0  0  0  0  0  0  0
    5.7084    4.5796    0.0000 F   0  0  0  0  0  0  0  0  0  0  0  0
    4.7445    6.2498    0.0000 F   0  0  0  0  0  0  0  0  0  0  0  0
    0.8377   12.9988    0.0000 O   0  0  0  0  0  0  0  0  0  0  0  0
    2.3145   13.2617    0.0000 H   0  0  0  0  0  0  0  0  0  0  0  0
   -1.8081   16.0416    0.0000 C   0  0  1  0  0  0  0  0  0  0  0  0
   -0.6892   15.0425    0.0000 H   0  0  0  0  0  0  0  0  0  0  0  0
   -2.7107   17.2551    0.0000 C   0  0  0  0  0  0  0  0  0  0  0  0
   -1.4212   18.0213    0.0000 H   0  0  0  0  0  0  0  0  0  0  0  0
   -3.3397   18.6168    0.0000 H   0  0  0  0  0  0  0  0  0  0  0  0
   -4.1377   16.7674    0.0000 C   0  0  2  0  0  0  0  0  0  0  0  0
   -4.4700   18.2301    0.0000 H   0  0  0  0  0  0  0  0  0  0  0  0
   -5.6274   16.5916    0.0000 O   0  0  0  0  0  0  0  0  0  0  0  0
   -7.0985   18.5633    0.0000 H   0  0  0  0  0  0  0  0  0  0  0  0
   -0.7011   17.0538    0.0000 O   0  0  0  0  0  0  0  0  0  0  0  0
    0.7290   16.6012    0.0000 S   0  0  0  0  0  0  0  0  0  0  0  0
    0.9264   18.0882    0.0000 O   0  0  0  0  0  0  0  0  0  0  0  0
    2.2277   16.6651    0.0000 O   0  0  0  0  0  0  0  0  0  0  0  0
    1.0521   15.1365    0.0000 O   0  0  0  0  0  0  0  0  0  0  0  0
    2.4822   14.6839    0.0000 H   0  0  0  0  0  0  0  0  0  0  0  0
  1  2  1  0  0  0  0 
  1  3  1  0  0  0  0 
  1  4  1  0  0  0  0 
  1  5  1  0  0  0  0 
  5  6  1  0  0  0  0 
  5  7  1  0  0  0  0 
  7  8  1  0  0  0  0 
  7  9  1  0  0  0  0 
  7 10  1  0  0  0  0 
  5 11  1  0  0  0  0 
 11 12  1  0  0  0  0 
 12 13  2  0  0  0  0 
 12 14  1  0  0  0  0 
 14 15  1  0  0  0  0 
 14 16  1  0  0  0  0 
 14 17  1  0  0  0  0 
 17 18  1  0  0  0  0 
 17 19  1  0  0  0  0 
 17 20  1  0  0  0  0 
 20 21  1  0  0  0  0 
 20 22  1  0  0  0  0 
 20 23  1  0  0  0  0 
 23 24  1  0  0  0  0 
 23 25  2  0  0  0  0 
 25 26  1  0  0  0  0 
 25 27  1  0  0  0  0 
 27 28  1  0  0  0  0 
 27 29  1  0  0  0  0 
 30 27  1  1  0  0  0 
 30 31  1  6  0  0  0 
 30 32  1  0  0  0  0 
 32 33  1  1  0  0  0 
 32 34  1  6  0  0  0 
 34 35  1  0  0  0  0 
 34 36  2  0  0  0  0 
 36 37  1  0  0  0  0 
 36 38  1  0  0  0  0 
 38 39  1  6  0  0  0 
 38 40  1  0  0  0  0 
 40 41  1  0  0  0  0 
 40 42  1  0  0  0  0 
 40 43  1  0  0  0  0 
 43 44  1  0  0  0  0 
 44 45  2  0  0  0  0 
 45 46  1  0  0  0  0 
 45 47  1  0  0  0  0 
 47 48  2  0  0  0  0 
 48 49  1  0  0  0  0 
 48 50  1  0  0  0  0 
 50 51  1  0  0  0  0 
 50 52  2  0  0  0  0 
 44 52  1  0  0  0  0 
 52 53  1  0  0  0  0 
 47 54  1  0  0  0  0 
 54 55  1  0  0  0  0 
 54 56  1  0  0  0  0 
 54 57  1  0  0  0  0 
 38 58  1  1  0  0  0 
 58 59  1  0  0  0  0 
 32 60  1  0  0  0  0 
 60 61  1  6  0  0  0 
 60 62  1  0  0  0  0 
 62 63  1  0  0  0  0 
 62 64  1  0  0  0  0 
 62 65  1  0  0  0  0 
 30 65  1  0  0  0  0 
 65 66  1  6  0  0  0 
 65 67  1  1  0  0  0 
 67 68  1  0  0  0  0 
 60 69  1  1  0  0  0 
 69 70  1  0  0  0  0 
 70 71  2  0  0  0  0 
 70 72  2  0  0  0  0 
 70 73  1  0  0  0  0 
 73 74  1  0  0  0  0 
M  END
> <Rank>
14

> <Priority_score>
0.13123836389280677

> <Reaction_type>
sulfation_(aliphatic_hydroxyl)

> <Parent_ID>
10

> <Parent_InChI>
InChI=1S/C26H35F3O6/c1-17(2)35-25(33)11-6-4-3-5-10-21-22(24(32)15-23(21)31)13-12-19(30)16-34-20-9-7-8-18(14-20)26(27,28)29/h3,5,7-9,12-14,17,19,21-24,30-32H,4,6,10-11,15-16H2,1-2H3

> <Parent_SMILES>
CC(C)OC(=O)CCC/C=C\C[C@H]1[C@@H](O)C[C@@H](O)[C@@H]1/C=C/[C@@H](O)COc1cccc(C(F)(F)F)c1

$$$$
Molecule 10_metabolite 15
  CDK     0516241031

 74 75  0  0  0  0  0  0  0  0999 V2000
  -16.8183   10.2717    0.0000 C   0  0  0  0  0  0  0  0  0  0  0  0
  -18.2639   10.6721    0.0000 H   0  0  0  0  0  0  0  0  0  0  0  0
  -15.5969    9.4009    0.0000 H   0  0  0  0  0  0  0  0  0  0  0  0
  -17.4637    8.9176    0.0000 H   0  0  0  0  0  0  0  0  0  0  0  0
  -15.7487   11.3233    0.0000 C   0  0  0  0  0  0  0  0  0  0  0  0
  -16.9701   12.1940    0.0000 H   0  0  0  0  0  0  0  0  0  0  0  0
  -15.1033   12.6774    0.0000 C   0  0  0  0  0  0  0  0  0  0  0  0
  -15.9533   13.9133    0.0000 H   0  0  0  0  0  0  0  0  0  0  0  0
  -14.0337   13.7290    0.0000 H   0  0  0  0  0  0  0  0  0  0  0  0
  -13.8819   11.8066    0.0000 H   0  0  0  0  0  0  0  0  0  0  0  0
  -14.3032   10.9228    0.0000 O   0  0  0  0  0  0  0  0  0  0  0  0
  -13.9272    9.4707    0.0000 C   0  0  0  0  0  0  0  0  0  0  0  0
  -14.9968    8.4191    0.0000 O   0  0  0  0  0  0  0  0  0  0  0  0
  -12.4817    9.0703    0.0000 C   0  0  0  0  0  0  0  0  0  0  0  0
  -10.9863    9.1883    0.0000 H   0  0  0  0  0  0  0  0  0  0  0  0
  -12.3383   10.5634    0.0000 H   0  0  0  0  0  0  0  0  0  0  0  0
  -12.1057    7.6181    0.0000 C   0  0  0  0  0  0  0  0  0  0  0  0
  -13.6010    7.5000    0.0000 H   0  0  0  0  0  0  0  0  0  0  0  0
  -12.2491    6.1250    0.0000 H   0  0  0  0  0  0  0  0  0  0  0  0
  -10.6601    7.2177    0.0000 C   0  0  0  0  0  0  0  0  0  0  0  0
   -9.4387    6.3469    0.0000 H   0  0  0  0  0  0  0  0  0  0  0  0
  -11.3055    5.8636    0.0000 H   0  0  0  0  0  0  0  0  0  0  0  0
   -9.5905    8.2693    0.0000 C   0  0  0  0  0  0  0  0  0  0  0  0
   -9.9665    9.7214    0.0000 H   0  0  0  0  0  0  0  0  0  0  0  0
   -7.6824    7.7407    0.0000 C   0  0  0  0  0  0  0  0  0  0  0  0
   -6.6128    8.7923    0.0000 H   0  0  0  0  0  0  0  0  0  0  0  0
   -7.3065    6.2886    0.0000 C   0  0  0  0  0  0  0  0  0  0  0  0
   -8.6605    6.9340    0.0000 H   0  0  0  0  0  0  0  0  0  0  0  0
   -7.4498    4.7954    0.0000 H   0  0  0  0  0  0  0  0  0  0  0  0
   -4.9357    5.6318    0.0000 C   0  0  2  0  0  0  0  0  0  0  0  0
   -4.9530    7.1317    0.0000 H   0  0  0  0  0  0  0  0  0  0  0  0
   -3.4463    5.8095    0.0000 C   0  0  1  0  0  0  0  0  0  0  0  0
   -3.7804    7.2719    0.0000 H   0  0  0  0  0  0  0  0  0  0  0  0
   -1.5735    6.4520    0.0000 C   0  0  0  0  0  0  0  0  0  0  0  0
   -0.4425    5.4667    0.0000 H   0  0  0  0  0  0  0  0  0  0  0  0
   -1.2856    7.9242    0.0000 C   0  0  0  0  0  0  0  0  0  0  0  0
   -2.4165    8.9095    0.0000 H   0  0  0  0  0  0  0  0  0  0  0  0
    0.1333    8.4109    0.0000 C   0  0  2  0  0  0  0  0  0  0  0  0
    1.6330    8.3830    0.0000 H   0  0  0  0  0  0  0  0  0  0  0  0
    0.4212    9.8830    0.0000 C   0  0  0  0  0  0  0  0  0  0  0  0
   -1.0786    9.9109    0.0000 H   0  0  0  0  0  0  0  0  0  0  0  0
    0.1882   11.3648    0.0000 H   0  0  0  0  0  0  0  0  0  0  0  0
    1.8400   10.3697    0.0000 O   0  0  0  0  0  0  0  0  0  0  0  0
    2.1279   11.8419    0.0000 C   0  0  0  0  0  0  0  0  0  0  0  0
    3.5468   12.3308    0.0000 C   0  0  0  0  0  0  0  0  0  0  0  0
    4.6793   11.3471    0.0000 H   0  0  0  0  0  0  0  0  0  0  0  0
    3.8323   13.8034    0.0000 C   0  0  0  0  0  0  0  0  0  0  0  0
    2.6987   14.7871    0.0000 C   0  0  0  0  0  0  0  0  0  0  0  0
    2.9817   16.2601    0.0000 H   0  0  0  0  0  0  0  0  0  0  0  0
    1.2896   14.2962    0.0000 C   0  0  0  0  0  0  0  0  0  0  0  0
    0.1555   15.2780    0.0000 H   0  0  0  0  0  0  0  0  0  0  0  0
    1.0042   12.8236    0.0000 C   0  0  0  0  0  0  0  0  0  0  0  0
   -0.4146   12.3367    0.0000 H   0  0  0  0  0  0  0  0  0  0  0  0
    5.2502   14.2927    0.0000 C   0  0  0  0  0  0  0  0  0  0  0  0
    5.5354   15.7654    0.0000 F   0  0  0  0  0  0  0  0  0  0  0  0
    6.7500   14.2676    0.0000 F   0  0  0  0  0  0  0  0  0  0  0  0
    5.4859   12.8114    0.0000 F   0  0  0  0  0  0  0  0  0  0  0  0
    0.3662    6.9291    0.0000 O   0  0  0  0  0  0  0  0  0  0  0  0
    1.7660    6.3900    0.0000 H   0  0  0  0  0  0  0  0  0  0  0  0
   -2.8102    4.4453    0.0000 C   0  0  1  0  0  0  0  0  0  0  0  0
   -1.5217    5.2133    0.0000 H   0  0  0  0  0  0  0  0  0  0  0  0
   -3.9272    3.4258    0.0000 C   0  0  0  0  0  0  0  0  0  0  0  0
   -2.8071    2.4282    0.0000 H   0  0  0  0  0  0  0  0  0  0  0  0
   -4.8039    2.2086    0.0000 H   0  0  0  0  0  0  0  0  0  0  0  0
   -5.2354    4.1760    0.0000 C   0  0  2  0  0  0  0  0  0  0  0  0
   -5.8399    2.8033    0.0000 H   0  0  0  0  0  0  0  0  0  0  0  0
   -6.6644    4.6321    0.0000 O   0  0  0  0  0  0  0  0  0  0  0  0
   -7.7738    3.6225    0.0000 S   0  0  0  0  0  0  0  0  0  0  0  0
   -9.1616    3.0533    0.0000 O   0  0  0  0  0  0  0  0  0  0  0  0
   -8.5753    4.8904    0.0000 O   0  0  0  0  0  0  0  0  0  0  0  0
   -7.4542    2.1570    0.0000 O   0  0  0  0  0  0  0  0  0  0  0  0
   -8.5636    1.1474    0.0000 H   0  0  0  0  0  0  0  0  0  0  0  0
   -1.9160    3.2410    0.0000 O   0  0  0  0  0  0  0  0  0  0  0  0
   -0.4259    3.4131    0.0000 H   0  0  0  0  0  0  0  0  0  0  0  0
  1  2  1  0  0  0  0 
  1  3  1  0  0  0  0 
  1  4  1  0  0  0  0 
  1  5  1  0  0  0  0 
  5  6  1  0  0  0  0 
  5  7  1  0  0  0  0 
  7  8  1  0  0  0  0 
  7  9  1  0  0  0  0 
  7 10  1  0  0  0  0 
  5 11  1  0  0  0  0 
 11 12  1  0  0  0  0 
 12 13  2  0  0  0  0 
 12 14  1  0  0  0  0 
 14 15  1  0  0  0  0 
 14 16  1  0  0  0  0 
 14 17  1  0  0  0  0 
 17 18  1  0  0  0  0 
 17 19  1  0  0  0  0 
 17 20  1  0  0  0  0 
 20 21  1  0  0  0  0 
 20 22  1  0  0  0  0 
 20 23  1  0  0  0  0 
 23 24  1  0  0  0  0 
 23 25  2  0  0  0  0 
 25 26  1  0  0  0  0 
 25 27  1  0  0  0  0 
 27 28  1  0  0  0  0 
 27 29  1  0  0  0  0 
 30 27  1  6  0  0  0 
 30 31  1  1  0  0  0 
 30 32  1  0  0  0  0 
 32 33  1  6  0  0  0 
 32 34  1  1  0  0  0 
 34 35  1  0  0  0  0 
 34 36  2  0  0  0  0 
 36 37  1  0  0  0  0 
 36 38  1  0  0  0  0 
 38 39  1  1  0  0  0 
 38 40  1  0  0  0  0 
 40 41  1  0  0  0  0 
 40 42  1  0  0  0  0 
 40 43  1  0  0  0  0 
 43 44  1  0  0  0  0 
 44 45  2  0  0  0  0 
 45 46  1  0  0  0  0 
 45 47  1  0  0  0  0 
 47 48  2  0  0  0  0 
 48 49  1  0  0  0  0 
 48 50  1  0  0  0  0 
 50 51  1  0  0  0  0 
 50 52  2  0  0  0  0 
 44 52  1  0  0  0  0 
 52 53  1  0  0  0  0 
 47 54  1  0  0  0  0 
 54 55  1  0  0  0  0 
 54 56  1  0  0  0  0 
 54 57  1  0  0  0  0 
 38 58  1  6  0  0  0 
 58 59  1  0  0  0  0 
 32 60  1  0  0  0  0 
 60 61  1  1  0  0  0 
 60 62  1  0  0  0  0 
 62 63  1  0  0  0  0 
 62 64  1  0  0  0  0 
 62 65  1  0  0  0  0 
 30 65  1  0  0  0  0 
 65 66  1  1  0  0  0 
 65 67  1  6  0  0  0 
 67 68  1  0  0  0  0 
 68 69  2  0  0  0  0 
 68 70  2  0  0  0  0 
 68 71  1  0  0  0  0 
 71 72  1  0  0  0  0 
 60 73  1  6  0  0  0 
 73 74  1  0  0  0  0 
M  END
> <Rank>
15

> <Priority_score>
0.130696195218108

> <Reaction_type>
sulfation_(aliphatic_hydroxyl)

> <Parent_ID>
10

> <Parent_InChI>
InChI=1S/C26H35F3O6/c1-17(2)35-25(33)11-6-4-3-5-10-21-22(24(32)15-23(21)31)13-12-19(30)16-34-20-9-7-8-18(14-20)26(27,28)29/h3,5,7-9,12-14,17,19,21-24,30-32H,4,6,10-11,15-16H2,1-2H3

> <Parent_SMILES>
CC(C)OC(=O)CCC/C=C\C[C@H]1[C@@H](O)C[C@@H](O)[C@@H]1/C=C/[C@@H](O)COc1cccc(C(F)(F)F)c1

$$$$
Molecule 10_metabolite 16
  CDK     0516241031

 71 72  0  0  0  0  0  0  0  0999 V2000
    9.8135  -11.8811    0.0000 C   0  0  0  0  0  0  0  0  0  0  0  0
    9.1933  -10.5153    0.0000 H   0  0  0  0  0  0  0  0  0  0  0  0
    9.9290  -13.3767    0.0000 H   0  0  0  0  0  0  0  0  0  0  0  0
    8.3607  -12.2546    0.0000 H   0  0  0  0  0  0  0  0  0  0  0  0
   11.3064  -12.0270    0.0000 C   0  0  0  0  0  0  0  0  0  0  0  0
   11.1908  -10.5314    0.0000 H   0  0  0  0  0  0  0  0  0  0  0  0
   12.7591  -11.6535    0.0000 C   0  0  0  0  0  0  0  0  0  0  0  0
   13.1620  -10.2086    0.0000 H   0  0  0  0  0  0  0  0  0  0  0  0
   14.2520  -11.7993    0.0000 H   0  0  0  0  0  0  0  0  0  0  0  0
   12.8747  -13.1490    0.0000 H   0  0  0  0  0  0  0  0  0  0  0  0
   11.9265  -13.3928    0.0000 O   0  0  0  0  0  0  0  0  0  0  0  0
   11.0537  -14.6128    0.0000 C   0  0  0  0  0  0  0  0  0  0  0  0
    9.5608  -14.4669    0.0000 O   0  0  0  0  0  0  0  0  0  0  0  0
   11.6738  -15.9786    0.0000 C   0  0  0  0  0  0  0  0  0  0  0  0
   12.7237  -17.0499    0.0000 H   0  0  0  0  0  0  0  0  0  0  0  0
   12.9112  -15.1307    0.0000 H   0  0  0  0  0  0  0  0  0  0  0  0
   10.8011  -17.1985    0.0000 C   0  0  0  0  0  0  0  0  0  0  0  0
   12.1540  -17.8462    0.0000 H   0  0  0  0  0  0  0  0  0  0  0  0
   10.3982  -18.6434    0.0000 H   0  0  0  0  0  0  0  0  0  0  0  0
    9.3082  -17.0526    0.0000 C   0  0  0  0  0  0  0  0  0  0  0  0
    7.9552  -16.4050    0.0000 H   0  0  0  0  0  0  0  0  0  0  0  0
    9.7111  -15.6078    0.0000 H   0  0  0  0  0  0  0  0  0  0  0  0
    8.4354  -18.2726    0.0000 C   0  0  0  0  0  0  0  0  0  0  0  0
    9.0555  -19.6384    0.0000 H   0  0  0  0  0  0  0  0  0  0  0  0
    6.4648  -18.0800    0.0000 C   0  0  0  0  0  0  0  0  0  0  0  0
    5.5920  -19.3000    0.0000 H   0  0  0  0  0  0  0  0  0  0  0  0
    5.4478  -15.8401    0.0000 C   0  0  0  0  0  0  0  0  0  0  0  0
    6.9005  -15.4666    0.0000 H   0  0  0  0  0  0  0  0  0  0  0  0
    5.3322  -14.3446    0.0000 H   0  0  0  0  0  0  0  0  0  0  0  0
    3.4772  -15.6476    0.0000 C   0  0  2  0  0  0  0  0  0  0  0  0
    3.7820  -14.1789    0.0000 H   0  0  0  0  0  0  0  0  0  0  0  0
    2.0495  -15.1873    0.0000 C   0  0  1  0  0  0  0  0  0  0  0  0
    2.6581  -13.8163    0.0000 H   0  0  0  0  0  0  0  0  0  0  0  0
    0.3348  -14.1973    0.0000 C   0  0  0  0  0  0  0  0  0  0  0  0
   -0.9642  -14.9473    0.0000 H   0  0  0  0  0  0  0  0  0  0  0  0
    0.3348  -12.6973    0.0000 C   0  0  0  0  0  0  0  0  0  0  0  0
    1.6338  -11.9473    0.0000 H   0  0  0  0  0  0  0  0  0  0  0  0
   -0.9642  -11.9473    0.0000 C   0  0  2  0  0  0  0  0  0  0  0  0
   -2.4414  -11.6868    0.0000 H   0  0  0  0  0  0  0  0  0  0  0  0
   -0.9642  -10.4473    0.0000 C   0  0  0  0  0  0  0  0  0  0  0  0
    0.5130  -10.7077    0.0000 H   0  0  0  0  0  0  0  0  0  0  0  0
   -0.4512   -9.0377    0.0000 H   0  0  0  0  0  0  0  0  0  0  0  0
   -2.2633   -9.6973    0.0000 O   0  0  0  0  0  0  0  0  0  0  0  0
   -2.2633   -8.1973    0.0000 C   0  0  0  0  0  0  0  0  0  0  0  0
   -3.5633   -7.4473    0.0000 C   0  0  0  0  0  0  0  0  0  0  0  0
   -4.8622   -8.1975    0.0000 H   0  0  0  0  0  0  0  0  0  0  0  0
   -3.5633   -5.9473    0.0000 C   0  0  0  0  0  0  0  0  0  0  0  0
   -4.8622   -5.1971    0.0000 H   0  0  0  0  0  0  0  0  0  0  0  0
   -2.2633   -5.1973    0.0000 C   0  0  0  0  0  0  0  0  0  0  0  0
   -0.9633   -5.9473    0.0000 C   0  0  0  0  0  0  0  0  0  0  0  0
   -0.9633   -7.4473    0.0000 C   0  0  0  0  0  0  0  0  0  0  0  0
    0.3356   -8.1975    0.0000 H   0  0  0  0  0  0  0  0  0  0  0  0
    0.3356   -5.1971    0.0000 C   0  0  0  0  0  0  0  0  0  0  0  0
    0.3354   -3.6971    0.0000 F   0  0  0  0  0  0  0  0  0  0  0  0
    0.8489   -6.6065    0.0000 F   0  0  0  0  0  0  0  0  0  0  0  0
    1.8128   -4.9363    0.0000 F   0  0  0  0  0  0  0  0  0  0  0  0
   -2.2633   -3.6973    0.0000 O   0  0  0  0  0  0  0  0  0  0  0  0
   -3.5623   -2.9473    0.0000 H   0  0  0  0  0  0  0  0  0  0  0  0
   -1.4773  -13.3568    0.0000 O   0  0  0  0  0  0  0  0  0  0  0  0
   -2.9545  -13.6173    0.0000 H   0  0  0  0  0  0  0  0  0  0  0  0
    1.1634  -16.4040    0.0000 C   0  0  1  0  0  0  0  0  0  0  0  0
    0.0462  -15.4031    0.0000 H   0  0  0  0  0  0  0  0  0  0  0  0
    2.0640  -17.6190    0.0000 C   0  0  0  0  0  0  0  0  0  0  0  0
    0.7732  -18.3831    0.0000 H   0  0  0  0  0  0  0  0  0  0  0  0
    2.6907  -18.9818    0.0000 H   0  0  0  0  0  0  0  0  0  0  0  0
    3.4918  -17.1338    0.0000 C   0  0  2  0  0  0  0  0  0  0  0  0
    3.8216  -18.5971    0.0000 H   0  0  0  0  0  0  0  0  0  0  0  0
    4.8688  -17.7287    0.0000 O   0  0  0  0  0  0  0  0  0  0  0  0
    5.1530  -20.1722    0.0000 H   0  0  0  0  0  0  0  0  0  0  0  0
    0.0547  -17.4144    0.0000 O   0  0  0  0  0  0  0  0  0  0  0  0
   -1.3746  -16.9594    0.0000 H   0  0  0  0  0  0  0  0  0  0  0  0
  1  2  1  0  0  0  0 
  1  3  1  0  0  0  0 
  1  4  1  0  0  0  0 
  1  5  1  0  0  0  0 
  5  6  1  0  0  0  0 
  5  7  1  0  0  0  0 
  7  8  1  0  0  0  0 
  7  9  1  0  0  0  0 
  7 10  1  0  0  0  0 
  5 11  1  0  0  0  0 
 11 12  1  0  0  0  0 
 12 13  2  0  0  0  0 
 12 14  1  0  0  0  0 
 14 15  1  0  0  0  0 
 14 16  1  0  0  0  0 
 14 17  1  0  0  0  0 
 17 18  1  0  0  0  0 
 17 19  1  0  0  0  0 
 17 20  1  0  0  0  0 
 20 21  1  0  0  0  0 
 20 22  1  0  0  0  0 
 20 23  1  0  0  0  0 
 23 24  1  0  0  0  0 
 23 25  2  0  0  0  0 
 25 26  1  0  0  0  0 
 25 27  1  0  0  0  0 
 27 28  1  0  0  0  0 
 27 29  1  0  0  0  0 
 30 27  1  1  0  0  0 
 30 31  1  6  0  0  0 
 30 32  1  0  0  0  0 
 32 33  1  1  0  0  0 
 32 34  1  6  0  0  0 
 34 35  1  0  0  0  0 
 34 36  2  0  0  0  0 
 36 37  1  0  0  0  0 
 36 38  1  0  0  0  0 
 38 39  1  6  0  0  0 
 38 40  1  0  0  0  0 
 40 41  1  0  0  0  0 
 40 42  1  0  0  0  0 
 40 43  1  0  0  0  0 
 43 44  1  0  0  0  0 
 44 45  2  0  0  0  0 
 45 46  1  0  0  0  0 
 45 47  1  0  0  0  0 
 47 48  1  0  0  0  0 
 47 49  2  0  0  0  0 
 49 50  1  0  0  0  0 
 50 51  2  0  0  0  0 
 44 51  1  0  0  0  0 
 51 52  1  0  0  0  0 
 50 53  1  0  0  0  0 
 53 54  1  0  0  0  0 
 53 55  1  0  0  0  0 
 53 56  1  0  0  0  0 
 49 57  1  0  0  0  0 
 57 58  1  0  0  0  0 
 38 59  1  1  0  0  0 
 59 60  1  0  0  0  0 
 32 61  1  0  0  0  0 
 61 62  1  6  0  0  0 
 61 63  1  0  0  0  0 
 63 64  1  0  0  0  0 
 63 65  1  0  0  0  0 
 63 66  1  0  0  0  0 
 30 66  1  0  0  0  0 
 66 67  1  6  0  0  0 
 66 68  1  1  0  0  0 
 68 69  1  0  0  0  0 
 61 70  1  1  0  0  0 
 70 71  1  0  0  0  0 
M  END
> <Rank>
16

> <Priority_score>
0.12

> <Reaction_type>
aromatic_hydroxylation_(para_to_oxygen)

> <Parent_ID>
10

> <Parent_InChI>
InChI=1S/C26H35F3O6/c1-17(2)35-25(33)11-6-4-3-5-10-21-22(24(32)15-23(21)31)13-12-19(30)16-34-20-9-7-8-18(14-20)26(27,28)29/h3,5,7-9,12-14,17,19,21-24,30-32H,4,6,10-11,15-16H2,1-2H3

> <Parent_SMILES>
CC(C)OC(=O)CCC/C=C\C[C@H]1[C@@H](O)C[C@@H](O)[C@@H]1/C=C/[C@@H](O)COc1cccc(C(F)(F)F)c1

$$$$
Molecule 10_metabolite 17
  CDK     0516241031

 71 72  0  0  0  0  0  0  0  0999 V2000
   -0.5573   -8.0580    0.0000 C   0  0  0  0  0  0  0  0  0  0  0  0
   -2.0502   -7.9124    0.0000 H   0  0  0  0  0  0  0  0  0  0  0  0
   -0.9599   -9.5030    0.0000 H   0  0  0  0  0  0  0  0  0  0  0  0
    0.7958   -8.7055    0.0000 H   0  0  0  0  0  0  0  0  0  0  0  0
    0.3153   -6.8380    0.0000 C   0  0  0  0  0  0  0  0  0  0  0  0
    0.7180   -5.3930    0.0000 H   0  0  0  0  0  0  0  0  0  0  0  0
   -1.0378   -6.1905    0.0000 C   0  0  0  0  0  0  0  0  0  0  0  0
   -2.2750   -7.0386    0.0000 H   0  0  0  0  0  0  0  0  0  0  0  0
   -0.1652   -4.9704    0.0000 H   0  0  0  0  0  0  0  0  0  0  0  0
   -2.0878   -5.1193    0.0000 H   0  0  0  0  0  0  0  0  0  0  0  0
    1.8082   -6.9836    0.0000 O   0  0  0  0  0  0  0  0  0  0  0  0
    2.6808   -5.7635    0.0000 C   0  0  0  0  0  0  0  0  0  0  0  0
    2.0605   -4.3978    0.0000 O   0  0  0  0  0  0  0  0  0  0  0  0
    4.1737   -5.9091    0.0000 C   0  0  0  0  0  0  0  0  0  0  0  0
    3.7711   -7.3541    0.0000 H   0  0  0  0  0  0  0  0  0  0  0  0
    5.5268   -6.5566    0.0000 H   0  0  0  0  0  0  0  0  0  0  0  0
    5.0463   -4.6890    0.0000 C   0  0  0  0  0  0  0  0  0  0  0  0
    5.4490   -3.2441    0.0000 H   0  0  0  0  0  0  0  0  0  0  0  0
    3.6932   -4.0416    0.0000 H   0  0  0  0  0  0  0  0  0  0  0  0
    7.0169   -4.8813    0.0000 C   0  0  0  0  0  0  0  0  0  0  0  0
    6.6143   -6.3262    0.0000 H   0  0  0  0  0  0  0  0  0  0  0  0
    8.3700   -5.5287    0.0000 H   0  0  0  0  0  0  0  0  0  0  0  0
    7.8895   -3.6612    0.0000 C   0  0  0  0  0  0  0  0  0  0  0  0
    7.2692   -2.2955    0.0000 H   0  0  0  0  0  0  0  0  0  0  0  0
   10.3379   -3.9000    0.0000 C   0  0  0  0  0  0  0  0  0  0  0  0
   11.2105   -2.6799    0.0000 H   0  0  0  0  0  0  0  0  0  0  0  0
   10.9582   -5.2657    0.0000 C   0  0  0  0  0  0  0  0  0  0  0  0
   11.1853   -8.1970    0.0000 H   0  0  0  0  0  0  0  0  0  0  0  0
    9.5055   -5.6395    0.0000 H   0  0  0  0  0  0  0  0  0  0  0  0
   13.4066   -5.5046    0.0000 C   0  0  2  0  0  0  0  0  0  0  0  0
   13.3916   -4.0046    0.0000 H   0  0  0  0  0  0  0  0  0  0  0  0
   14.8963   -5.3291    0.0000 C   0  0  1  0  0  0  0  0  0  0  0  0
   14.5644   -3.8662    0.0000 H   0  0  0  0  0  0  0  0  0  0  0  0
   16.7701   -4.6894    0.0000 C   0  0  0  0  0  0  0  0  0  0  0  0
   17.8996   -5.6765    0.0000 H   0  0  0  0  0  0  0  0  0  0  0  0
   17.0603   -3.2177    0.0000 C   0  0  0  0  0  0  0  0  0  0  0  0
   15.9308   -2.2306    0.0000 H   0  0  0  0  0  0  0  0  0  0  0  0
   18.4798   -2.7331    0.0000 C   0  0  2  0  0  0  0  0  0  0  0  0
   18.7106   -4.2153    0.0000 H   0  0  0  0  0  0  0  0  0  0  0  0
   18.7699   -1.2615    0.0000 C   0  0  0  0  0  0  0  0  0  0  0  0
   18.5392    0.2207    0.0000 H   0  0  0  0  0  0  0  0  0  0  0  0
   17.2703   -1.2313    0.0000 H   0  0  0  0  0  0  0  0  0  0  0  0
   20.1895   -0.7769    0.0000 O   0  0  0  0  0  0  0  0  0  0  0  0
   20.4796    0.6948    0.0000 C   0  0  0  0  0  0  0  0  0  0  0  0
   21.8999    1.1799    0.0000 C   0  0  0  0  0  0  0  0  0  0  0  0
   22.1909    2.6522    0.0000 C   0  0  0  0  0  0  0  0  0  0  0  0
   21.0616    3.6395    0.0000 C   0  0  0  0  0  0  0  0  0  0  0  0
   21.3517    5.1112    0.0000 H   0  0  0  0  0  0  0  0  0  0  0  0
   19.6413    3.1544    0.0000 C   0  0  0  0  0  0  0  0  0  0  0  0
   18.5120    4.1417    0.0000 H   0  0  0  0  0  0  0  0  0  0  0  0
   19.3503    1.6821    0.0000 C   0  0  0  0  0  0  0  0  0  0  0  0
   17.9306    1.1979    0.0000 H   0  0  0  0  0  0  0  0  0  0  0  0
   23.6106    3.1364    0.0000 C   0  0  0  0  0  0  0  0  0  0  0  0
   23.9012    4.6080    0.0000 F   0  0  0  0  0  0  0  0  0  0  0  0
   23.8409    1.6541    0.0000 F   0  0  0  0  0  0  0  0  0  0  0  0
   25.1103    3.1057    0.0000 F   0  0  0  0  0  0  0  0  0  0  0  0
   23.0292    0.1926    0.0000 O   0  0  0  0  0  0  0  0  0  0  0  0
   24.4488    0.6770    0.0000 H   0  0  0  0  0  0  0  0  0  0  0  0
   19.9795   -2.7633    0.0000 O   0  0  0  0  0  0  0  0  0  0  0  0
   20.7555   -1.4796    0.0000 H   0  0  0  0  0  0  0  0  0  0  0  0
   15.5304   -6.6943    0.0000 C   0  0  1  0  0  0  0  0  0  0  0  0
   16.8201   -5.9283    0.0000 H   0  0  0  0  0  0  0  0  0  0  0  0
   14.4118   -7.7121    0.0000 C   0  0  0  0  0  0  0  0  0  0  0  0
   15.5305   -8.7114    0.0000 H   0  0  0  0  0  0  0  0  0  0  0  0
   13.5333   -8.9280    0.0000 H   0  0  0  0  0  0  0  0  0  0  0  0
   13.1048   -6.9599    0.0000 C   0  0  2  0  0  0  0  0  0  0  0  0
   12.4982   -8.3317    0.0000 H   0  0  0  0  0  0  0  0  0  0  0  0
   11.6765   -6.5017    0.0000 O   0  0  0  0  0  0  0  0  0  0  0  0
   10.5655   -7.5096    0.0000 H   0  0  0  0  0  0  0  0  0  0  0  0
   16.4227   -7.9000    0.0000 O   0  0  0  0  0  0  0  0  0  0  0  0
   17.9131   -7.7301    0.0000 H   0  0  0  0  0  0  0  0  0  0  0  0
  1  2  1  0  0  0  0 
  1  3  1  0  0  0  0 
  1  4  1  0  0  0  0 
  1  5  1  0  0  0  0 
  5  6  1  0  0  0  0 
  5  7  1  0  0  0  0 
  7  8  1  0  0  0  0 
  7  9  1  0  0  0  0 
  7 10  1  0  0  0  0 
  5 11  1  0  0  0  0 
 11 12  1  0  0  0  0 
 12 13  2  0  0  0  0 
 12 14  1  0  0  0  0 
 14 15  1  0  0  0  0 
 14 16  1  0  0  0  0 
 14 17  1  0  0  0  0 
 17 18  1  0  0  0  0 
 17 19  1  0  0  0  0 
 17 20  1  0  0  0  0 
 20 21  1  0  0  0  0 
 20 22  1  0  0  0  0 
 20 23  1  0  0  0  0 
 23 24  1  0  0  0  0 
 23 25  2  0  0  0  0 
 25 26  1  0  0  0  0 
 25 27  1  0  0  0  0 
 27 28  1  0  0  0  0 
 27 29  1  0  0  0  0 
 30 27  1  6  0  0  0 
 30 31  1  1  0  0  0 
 30 32  1  0  0  0  0 
 32 33  1  6  0  0  0 
 32 34  1  1  0  0  0 
 34 35  1  0  0  0  0 
 34 36  2  0  0  0  0 
 36 37  1  0  0  0  0 
 36 38  1  0  0  0  0 
 38 39  1  1  0  0  0 
 38 40  1  0  0  0  0 
 40 41  1  0  0  0  0 
 40 42  1  0  0  0  0 
 40 43  1  0  0  0  0 
 43 44  1  0  0  0  0 
 44 45  2  0  0  0  0 
 45 46  1  0  0  0  0 
 46 47  2  0  0  0  0 
 47 48  1  0  0  0  0 
 47 49  1  0  0  0  0 
 49 50  1  0  0  0  0 
 49 51  2  0  0  0  0 
 44 51  1  0  0  0  0 
 51 52  1  0  0  0  0 
 46 53  1  0  0  0  0 
 53 54  1  0  0  0  0 
 53 55  1  0  0  0  0 
 53 56  1  0  0  0  0 
 45 57  1  0  0  0  0 
 57 58  1  0  0  0  0 
 38 59  1  6  0  0  0 
 59 60  1  0  0  0  0 
 32 61  1  0  0  0  0 
 61 62  1  1  0  0  0 
 61 63  1  0  0  0  0 
 63 64  1  0  0  0  0 
 63 65  1  0  0  0  0 
 63 66  1  0  0  0  0 
 30 66  1  0  0  0  0 
 66 67  1  1  0  0  0 
 66 68  1  6  0  0  0 
 68 69  1  0  0  0  0 
 61 70  1  6  0  0  0 
 70 71  1  0  0  0  0 
M  END
> <Rank>
16

> <Priority_score>
0.12

> <Reaction_type>
aromatic_hydroxylation_(ortho_to_2_substituents)

> <Parent_ID>
10

> <Parent_InChI>
InChI=1S/C26H35F3O6/c1-17(2)35-25(33)11-6-4-3-5-10-21-22(24(32)15-23(21)31)13-12-19(30)16-34-20-9-7-8-18(14-20)26(27,28)29/h3,5,7-9,12-14,17,19,21-24,30-32H,4,6,10-11,15-16H2,1-2H3

> <Parent_SMILES>
CC(C)OC(=O)CCC/C=C\C[C@H]1[C@@H](O)C[C@@H](O)[C@@H]1/C=C/[C@@H](O)COc1cccc(C(F)(F)F)c1

$$$$
Molecule 10_metabolite 18
  CDK     0516241031

 90 92  0  0  0  0  0  0  0  0999 V2000
    7.6939    6.1186    0.0000 C   0  0  0  0  0  0  0  0  0  0  0  0
    6.4883    7.0111    0.0000 H   0  0  0  0  0  0  0  0  0  0  0  0
    8.5216    4.8676    0.0000 H   0  0  0  0  0  0  0  0  0  0  0  0
    6.6057    5.0863    0.0000 H   0  0  0  0  0  0  0  0  0  0  0  0
    9.0696    6.7165    0.0000 C   0  0  0  0  0  0  0  0  0  0  0  0
    8.2419    7.9675    0.0000 H   0  0  0  0  0  0  0  0  0  0  0  0
   10.1578    7.7488    0.0000 C   0  0  0  0  0  0  0  0  0  0  0  0
    9.8079    9.2074    0.0000 H   0  0  0  0  0  0  0  0  0  0  0  0
   11.5335    8.3467    0.0000 H   0  0  0  0  0  0  0  0  0  0  0  0
   10.9855    6.4979    0.0000 H   0  0  0  0  0  0  0  0  0  0  0  0
   10.2752    5.8240    0.0000 O   0  0  0  0  0  0  0  0  0  0  0  0
   10.1052    4.3337    0.0000 C   0  0  0  0  0  0  0  0  0  0  0  0
    8.7295    3.7358    0.0000 O   0  0  0  0  0  0  0  0  0  0  0  0
   11.3108    3.4413    0.0000 C   0  0  0  0  0  0  0  0  0  0  0  0
   12.7489    3.0150    0.0000 H   0  0  0  0  0  0  0  0  0  0  0  0
   11.9803    4.7836    0.0000 H   0  0  0  0  0  0  0  0  0  0  0  0
   11.1407    1.9509    0.0000 C   0  0  0  0  0  0  0  0  0  0  0  0
    9.7026    2.3772    0.0000 H   0  0  0  0  0  0  0  0  0  0  0  0
   10.4712    0.6087    0.0000 H   0  0  0  0  0  0  0  0  0  0  0  0
   12.3463    1.0585    0.0000 C   0  0  0  0  0  0  0  0  0  0  0  0
   13.1740   -0.1925    0.0000 H   0  0  0  0  0  0  0  0  0  0  0  0
   11.2581    0.0262    0.0000 H   0  0  0  0  0  0  0  0  0  0  0  0
   13.7220    1.6564    0.0000 C   0  0  0  0  0  0  0  0  0  0  0  0
   13.8921    3.1467    0.0000 H   0  0  0  0  0  0  0  0  0  0  0  0
   14.9277    0.7639    0.0000 C   0  0  0  0  0  0  0  0  0  0  0  0
   16.3034    1.3618    0.0000 H   0  0  0  0  0  0  0  0  0  0  0  0
   14.7032   -1.2033    0.0000 C   0  0  0  0  0  0  0  0  0  0  0  0
   15.0531   -2.6619    0.0000 H   0  0  0  0  0  0  0  0  0  0  0  0
   16.2004   -1.1120    0.0000 H   0  0  0  0  0  0  0  0  0  0  0  0
   12.0068   -2.3752    0.0000 C   0  0  2  0  0  0  0  0  0  0  0  0
   11.5596   -0.9434    0.0000 H   0  0  0  0  0  0  0  0  0  0  0  0
   10.5354   -2.6665    0.0000 C   0  0  1  0  0  0  0  0  0  0  0  0
   10.4011   -1.1725    0.0000 H   0  0  0  0  0  0  0  0  0  0  0  0
    8.5556   -2.6344    0.0000 C   0  0  0  0  0  0  0  0  0  0  0  0
    7.8268   -1.3233    0.0000 H   0  0  0  0  0  0  0  0  0  0  0  0
    7.7847   -3.9211    0.0000 C   0  0  0  0  0  0  0  0  0  0  0  0
    8.5135   -5.2321    0.0000 H   0  0  0  0  0  0  0  0  0  0  0  0
    6.2849   -3.8967    0.0000 C   0  0  2  0  0  0  0  0  0  0  0  0
    6.5693   -2.4240    0.0000 H   0  0  0  0  0  0  0  0  0  0  0  0
    5.5139   -5.1834    0.0000 C   0  0  0  0  0  0  0  0  0  0  0  0
    5.2295   -6.6562    0.0000 H   0  0  0  0  0  0  0  0  0  0  0  0
    6.9149   -5.7193    0.0000 H   0  0  0  0  0  0  0  0  0  0  0  0
    4.0141   -5.1591    0.0000 O   0  0  0  0  0  0  0  0  0  0  0  0
    3.2431   -6.4458    0.0000 C   0  0  0  0  0  0  0  0  0  0  0  0
    3.9706   -7.7586    0.0000 C   0  0  0  0  0  0  0  0  0  0  0  0
    5.4703   -7.7852    0.0000 H   0  0  0  0  0  0  0  0  0  0  0  0
    3.1974   -9.0440    0.0000 C   0  0  0  0  0  0  0  0  0  0  0  0
    1.6969   -9.0166    0.0000 C   0  0  0  0  0  0  0  0  0  0  0  0
    0.9216  -10.3007    0.0000 H   0  0  0  0  0  0  0  0  0  0  0  0
    0.9780   -7.7090    0.0000 C   0  0  0  0  0  0  0  0  0  0  0  0
   -0.5217   -7.6799    0.0000 H   0  0  0  0  0  0  0  0  0  0  0  0
    1.7511   -6.4236    0.0000 C   0  0  0  0  0  0  0  0  0  0  0  0
    1.0225   -5.1125    0.0000 H   0  0  0  0  0  0  0  0  0  0  0  0
    3.9239  -10.3563    0.0000 C   0  0  0  0  0  0  0  0  0  0  0  0
    3.1505  -11.6416    0.0000 F   0  0  0  0  0  0  0  0  0  0  0  0
    5.0553  -11.3411    0.0000 F   0  0  0  0  0  0  0  0  0  0  0  0
    5.0902   -9.4131    0.0000 F   0  0  0  0  0  0  0  0  0  0  0  0
    4.8838   -3.3609    0.0000 O   0  0  0  0  0  0  0  0  0  0  0  0
    3.7193   -4.3063    0.0000 H   0  0  0  0  0  0  0  0  0  0  0  0
   10.3521   -4.1606    0.0000 C   0  0  1  0  0  0  0  0  0  0  0  0
    8.8893   -3.8285    0.0000 H   0  0  0  0  0  0  0  0  0  0  0  0
   11.7296   -4.7849    0.0000 C   0  0  0  0  0  0  0  0  0  0  0  0
   10.9726   -6.0799    0.0000 H   0  0  0  0  0  0  0  0  0  0  0  0
   12.9395   -5.6715    0.0000 H   0  0  0  0  0  0  0  0  0  0  0  0
   12.7417   -3.6670    0.0000 C   0  0  2  0  0  0  0  0  0  0  0  0
   13.7410   -4.7857    0.0000 H   0  0  0  0  0  0  0  0  0  0  0  0
   13.9598   -2.7916    0.0000 O   0  0  0  0  0  0  0  0  0  0  0  0
   16.6394   -4.0013    0.0000 C   0  0  0  0  0  0  0  0  0  0  0  0
   16.4938   -2.5084    0.0000 H   0  0  0  0  0  0  0  0  0  0  0  0
   16.2748   -5.4460    0.0000 C   0  0  0  0  0  0  0  0  0  0  0  0
   15.4334   -6.6878    0.0000 H   0  0  0  0  0  0  0  0  0  0  0  0
   17.3687   -6.5059    0.0000 C   0  0  0  0  0  0  0  0  0  0  0  0
   18.0278   -7.8533    0.0000 H   0  0  0  0  0  0  0  0  0  0  0  0
   18.8152   -6.0871    0.0000 C   0  0  0  0  0  0  0  0  0  0  0  0
   20.3114   -6.1933    0.0000 H   0  0  0  0  0  0  0  0  0  0  0  0
   19.1798   -4.6424    0.0000 C   0  0  0  0  0  0  0  0  0  0  0  0
   20.0218   -3.4011    0.0000 H   0  0  0  0  0  0  0  0  0  0  0  0
   21.4243   -5.6492    0.0000 C   0  0  0  0  0  0  0  0  0  0  0  0
   21.5770   -7.1414    0.0000 O   0  0  0  0  0  0  0  0  0  0  0  0
   22.6403   -4.7709    0.0000 O   0  0  0  0  0  0  0  0  0  0  0  0
   24.0089   -5.3847    0.0000 H   0  0  0  0  0  0  0  0  0  0  0  0
   18.1028   -3.5971    0.0000 O   0  0  0  0  0  0  0  0  0  0  0  0
   18.9731   -7.5788    0.0000 O   0  0  0  0  0  0  0  0  0  0  0  0
   20.3438   -8.1878    0.0000 H   0  0  0  0  0  0  0  0  0  0  0  0
   16.1549   -7.3873    0.0000 O   0  0  0  0  0  0  0  0  0  0  0  0
   16.3114   -8.8791    0.0000 H   0  0  0  0  0  0  0  0  0  0  0  0
   14.9060   -4.8325    0.0000 O   0  0  0  0  0  0  0  0  0  0  0  0
   13.6903   -5.7112    0.0000 H   0  0  0  0  0  0  0  0  0  0  0  0
    9.5680   -6.4923    0.0000 O   0  0  0  0  0  0  0  0  0  0  0  0
   10.5603   -7.6172    0.0000 H   0  0  0  0  0  0  0  0  0  0  0  0
  1  2  1  0  0  0  0 
  1  3  1  0  0  0  0 
  1  4  1  0  0  0  0 
  1  5  1  0  0  0  0 
  5  6  1  0  0  0  0 
  5  7  1  0  0  0  0 
  7  8  1  0  0  0  0 
  7  9  1  0  0  0  0 
  7 10  1  0  0  0  0 
  5 11  1  0  0  0  0 
 11 12  1  0  0  0  0 
 12 13  2  0  0  0  0 
 12 14  1  0  0  0  0 
 14 15  1  0  0  0  0 
 14 16  1  0  0  0  0 
 14 17  1  0  0  0  0 
 17 18  1  0  0  0  0 
 17 19  1  0  0  0  0 
 17 20  1  0  0  0  0 
 20 21  1  0  0  0  0 
 20 22  1  0  0  0  0 
 20 23  1  0  0  0  0 
 23 24  1  0  0  0  0 
 23 25  2  0  0  0  0 
 25 26  1  0  0  0  0 
 25 27  1  0  0  0  0 
 27 28  1  0  0  0  0 
 27 29  1  0  0  0  0 
 30 27  1  1  0  0  0 
 30 31  1  6  0  0  0 
 30 32  1  0  0  0  0 
 32 33  1  1  0  0  0 
 32 34  1  6  0  0  0 
 34 35  1  0  0  0  0 
 34 36  2  0  0  0  0 
 36 37  1  0  0  0  0 
 36 38  1  0  0  0  0 
 38 39  1  1  0  0  0 
 38 40  1  0  0  0  0 
 40 41  1  0  0  0  0 
 40 42  1  0  0  0  0 
 40 43  1  0  0  0  0 
 43 44  1  0  0  0  0 
 44 45  2  0  0  0  0 
 45 46  1  0  0  0  0 
 45 47  1  0  0  0  0 
 47 48  2  0  0  0  0 
 48 49  1  0  0  0  0 
 48 50  1  0  0  0  0 
 50 51  1  0  0  0  0 
 50 52  2  0  0  0  0 
 44 52  1  0  0  0  0 
 52 53  1  0  0  0  0 
 47 54  1  0  0  0  0 
 54 55  1  0  0  0  0 
 54 56  1  0  0  0  0 
 54 57  1  0  0  0  0 
 38 58  1  6  0  0  0 
 58 59  1  0  0  0  0 
 32 60  1  0  0  0  0 
 60 61  1  6  0  0  0 
 60 62  1  0  0  0  0 
 62 63  1  0  0  0  0 
 62 64  1  0  0  0  0 
 62 65  1  0  0  0  0 
 30 65  1  0  0  0  0 
 65 66  1  6  0  0  0 
 65 67  1  1  0  0  0 
 67 68  1  0  0  0  0 
 68 69  1  0  0  0  0 
 68 70  1  0  0  0  0 
 70 71  1  0  0  0  0 
 70 72  1  0  0  0  0 
 72 73  1  0  0  0  0 
 72 74  1  0  0  0  0 
 74 75  1  0  0  0  0 
 74 76  1  0  0  0  0 
 76 77  1  0  0  0  0 
 76 78  1  0  0  0  0 
 78 79  2  0  0  0  0 
 78 80  1  0  0  0  0 
 80 81  1  0  0  0  0 
 76 82  1  0  0  0  0 
 68 82  1  0  0  0  0 
 74 83  1  0  0  0  0 
 83 84  1  0  0  0  0 
 72 85  1  0  0  0  0 
 85 86  1  0  0  0  0 
 70 87  1  0  0  0  0 
 87 88  1  0  0  0  0 
 60 89  1  1  0  0  0 
 89 90  1  0  0  0  0 
M  END
> <Rank>
18

> <Priority_score>
0.11135582636720717

> <Reaction_type>
O-glucuronidation_(aliphatic_hydroxyl)

> <Parent_ID>
10

> <Parent_InChI>
InChI=1S/C26H35F3O6/c1-17(2)35-25(33)11-6-4-3-5-10-21-22(24(32)15-23(21)31)13-12-19(30)16-34-20-9-7-8-18(14-20)26(27,28)29/h3,5,7-9,12-14,17,19,21-24,30-32H,4,6,10-11,15-16H2,1-2H3

> <Parent_SMILES>
CC(C)OC(=O)CCC/C=C\C[C@H]1[C@@H](O)C[C@@H](O)[C@@H]1/C=C/[C@@H](O)COc1cccc(C(F)(F)F)c1

$$$$
Molecule 10_metabolite 19
  CDK     0516241031

 71 72  0  0  0  0  0  0  0  0999 V2000
  -10.1035   11.7111    0.0000 C   0  0  0  0  0  0  0  0  0  0  0  0
   -9.4833   10.3453    0.0000 H   0  0  0  0  0  0  0  0  0  0  0  0
  -10.2190   13.2067    0.0000 H   0  0  0  0  0  0  0  0  0  0  0  0
   -8.6507   12.0846    0.0000 H   0  0  0  0  0  0  0  0  0  0  0  0
  -11.5964   11.8570    0.0000 C   0  0  0  0  0  0  0  0  0  0  0  0
  -11.4808   10.3614    0.0000 H   0  0  0  0  0  0  0  0  0  0  0  0
  -13.0491   11.4835    0.0000 C   0  0  0  0  0  0  0  0  0  0  0  0
  -13.4520   10.0386    0.0000 H   0  0  0  0  0  0  0  0  0  0  0  0
  -14.5420   11.6293    0.0000 H   0  0  0  0  0  0  0  0  0  0  0  0
  -13.1647   12.9790    0.0000 H   0  0  0  0  0  0  0  0  0  0  0  0
  -12.2165   13.2228    0.0000 O   0  0  0  0  0  0  0  0  0  0  0  0
  -11.3437   14.4428    0.0000 C   0  0  0  0  0  0  0  0  0  0  0  0
   -9.8508   14.2969    0.0000 O   0  0  0  0  0  0  0  0  0  0  0  0
  -11.9638   15.8086    0.0000 C   0  0  0  0  0  0  0  0  0  0  0  0
  -13.0137   16.8799    0.0000 H   0  0  0  0  0  0  0  0  0  0  0  0
  -13.2012   14.9607    0.0000 H   0  0  0  0  0  0  0  0  0  0  0  0
  -11.0911   17.0285    0.0000 C   0  0  0  0  0  0  0  0  0  0  0  0
  -12.4440   17.6762    0.0000 H   0  0  0  0  0  0  0  0  0  0  0  0
  -10.6882   18.4734    0.0000 H   0  0  0  0  0  0  0  0  0  0  0  0
   -9.5982   16.8826    0.0000 C   0  0  0  0  0  0  0  0  0  0  0  0
   -8.2452   16.2350    0.0000 H   0  0  0  0  0  0  0  0  0  0  0  0
  -10.0011   15.4378    0.0000 H   0  0  0  0  0  0  0  0  0  0  0  0
   -8.7254   18.1026    0.0000 C   0  0  0  0  0  0  0  0  0  0  0  0
   -9.3455   19.4684    0.0000 H   0  0  0  0  0  0  0  0  0  0  0  0
   -6.7548   17.9100    0.0000 C   0  0  0  0  0  0  0  0  0  0  0  0
   -5.8820   19.1300    0.0000 H   0  0  0  0  0  0  0  0  0  0  0  0
   -5.7378   15.6701    0.0000 C   0  0  0  0  0  0  0  0  0  0  0  0
   -7.1905   15.2966    0.0000 H   0  0  0  0  0  0  0  0  0  0  0  0
   -5.6222   14.1746    0.0000 H   0  0  0  0  0  0  0  0  0  0  0  0
   -3.7672   15.4776    0.0000 C   0  0  2  0  0  0  0  0  0  0  0  0
   -4.0720   14.0089    0.0000 H   0  0  0  0  0  0  0  0  0  0  0  0
   -2.3395   15.0173    0.0000 C   0  0  1  0  0  0  0  0  0  0  0  0
   -2.9481   13.6463    0.0000 H   0  0  0  0  0  0  0  0  0  0  0  0
   -0.6248   14.0273    0.0000 C   0  0  0  0  0  0  0  0  0  0  0  0
    0.6742   14.7773    0.0000 H   0  0  0  0  0  0  0  0  0  0  0  0
   -0.6248   12.5273    0.0000 C   0  0  0  0  0  0  0  0  0  0  0  0
   -1.9238   11.7773    0.0000 H   0  0  0  0  0  0  0  0  0  0  0  0
    0.6742   11.7773    0.0000 C   0  0  2  0  0  0  0  0  0  0  0  0
    2.1514   11.5168    0.0000 H   0  0  0  0  0  0  0  0  0  0  0  0
    0.6742   10.2773    0.0000 C   0  0  0  0  0  0  0  0  0  0  0  0
   -0.8030   10.5377    0.0000 H   0  0  0  0  0  0  0  0  0  0  0  0
    0.1612    8.8677    0.0000 H   0  0  0  0  0  0  0  0  0  0  0  0
    1.9733    9.5273    0.0000 O   0  0  0  0  0  0  0  0  0  0  0  0
    1.9733    8.0273    0.0000 C   0  0  0  0  0  0  0  0  0  0  0  0
    0.6733    7.2773    0.0000 C   0  0  0  0  0  0  0  0  0  0  0  0
   -0.6256    8.0275    0.0000 H   0  0  0  0  0  0  0  0  0  0  0  0
    0.6733    5.7773    0.0000 C   0  0  0  0  0  0  0  0  0  0  0  0
    1.9733    5.0273    0.0000 C   0  0  0  0  0  0  0  0  0  0  0  0
    1.9733    3.5273    0.0000 H   0  0  0  0  0  0  0  0  0  0  0  0
    3.2733    5.7773    0.0000 C   0  0  0  0  0  0  0  0  0  0  0  0
    3.2733    7.2773    0.0000 C   0  0  0  0  0  0  0  0  0  0  0  0
    4.5722    8.0275    0.0000 H   0  0  0  0  0  0  0  0  0  0  0  0
    4.5722    5.0271    0.0000 C   0  0  0  0  0  0  0  0  0  0  0  0
    4.5719    3.5271    0.0000 F   0  0  0  0  0  0  0  0  0  0  0  0
    6.0494    4.7663    0.0000 F   0  0  0  0  0  0  0  0  0  0  0  0
    5.0854    6.4365    0.0000 F   0  0  0  0  0  0  0  0  0  0  0  0
   -0.6256    5.0271    0.0000 O   0  0  0  0  0  0  0  0  0  0  0  0
   -0.6254    3.5271    0.0000 H   0  0  0  0  0  0  0  0  0  0  0  0
    1.1873   13.1868    0.0000 O   0  0  0  0  0  0  0  0  0  0  0  0
    2.6645   13.4473    0.0000 H   0  0  0  0  0  0  0  0  0  0  0  0
   -1.4534   16.2340    0.0000 C   0  0  1  0  0  0  0  0  0  0  0  0
   -0.3362   15.2331    0.0000 H   0  0  0  0  0  0  0  0  0  0  0  0
   -2.3540   17.4490    0.0000 C   0  0  0  0  0  0  0  0  0  0  0  0
   -1.0632   18.2131    0.0000 H   0  0  0  0  0  0  0  0  0  0  0  0
   -2.9807   18.8118    0.0000 H   0  0  0  0  0  0  0  0  0  0  0  0
   -3.7818   16.9638    0.0000 C   0  0  2  0  0  0  0  0  0  0  0  0
   -4.1116   18.4271    0.0000 H   0  0  0  0  0  0  0  0  0  0  0  0
   -5.1588   17.5587    0.0000 O   0  0  0  0  0  0  0  0  0  0  0  0
   -5.4430   20.0022    0.0000 H   0  0  0  0  0  0  0  0  0  0  0  0
   -0.3447   17.2444    0.0000 O   0  0  0  0  0  0  0  0  0  0  0  0
    1.0846   16.7894    0.0000 H   0  0  0  0  0  0  0  0  0  0  0  0
  1  2  1  0  0  0  0 
  1  3  1  0  0  0  0 
  1  4  1  0  0  0  0 
  1  5  1  0  0  0  0 
  5  6  1  0  0  0  0 
  5  7  1  0  0  0  0 
  7  8  1  0  0  0  0 
  7  9  1  0  0  0  0 
  7 10  1  0  0  0  0 
  5 11  1  0  0  0  0 
 11 12  1  0  0  0  0 
 12 13  2  0  0  0  0 
 12 14  1  0  0  0  0 
 14 15  1  0  0  0  0 
 14 16  1  0  0  0  0 
 14 17  1  0  0  0  0 
 17 18  1  0  0  0  0 
 17 19  1  0  0  0  0 
 17 20  1  0  0  0  0 
 20 21  1  0  0  0  0 
 20 22  1  0  0  0  0 
 20 23  1  0  0  0  0 
 23 24  1  0  0  0  0 
 23 25  2  0  0  0  0 
 25 26  1  0  0  0  0 
 25 27  1  0  0  0  0 
 27 28  1  0  0  0  0 
 27 29  1  0  0  0  0 
 30 27  1  1  0  0  0 
 30 31  1  6  0  0  0 
 30 32  1  0  0  0  0 
 32 33  1  1  0  0  0 
 32 34  1  6  0  0  0 
 34 35  1  0  0  0  0 
 34 36  2  0  0  0  0 
 36 37  1  0  0  0  0 
 36 38  1  0  0  0  0 
 38 39  1  6  0  0  0 
 38 40  1  0  0  0  0 
 40 41  1  0  0  0  0 
 40 42  1  0  0  0  0 
 40 43  1  0  0  0  0 
 43 44  1  0  0  0  0 
 44 45  2  0  0  0  0 
 45 46  1  0  0  0  0 
 45 47  1  0  0  0  0 
 47 48  2  0  0  0  0 
 48 49  1  0  0  0  0 
 48 50  1  0  0  0  0 
 50 51  2  0  0  0  0 
 44 51  1  0  0  0  0 
 51 52  1  0  0  0  0 
 50 53  1  0  0  0  0 
 53 54  1  0  0  0  0 
 53 55  1  0  0  0  0 
 53 56  1  0  0  0  0 
 47 57  1  0  0  0  0 
 57 58  1  0  0  0  0 
 38 59  1  1  0  0  0 
 59 60  1  0  0  0  0 
 32 61  1  0  0  0  0 
 61 62  1  6  0  0  0 
 61 63  1  0  0  0  0 
 63 64  1  0  0  0  0 
 63 65  1  0  0  0  0 
 63 66  1  0  0  0  0 
 30 66  1  0  0  0  0 
 66 67  1  6  0  0  0 
 66 68  1  1  0  0  0 
 68 69  1  0  0  0  0 
 61 70  1  1  0  0  0 
 70 71  1  0  0  0  0 
M  END
> <Rank>
19

> <Priority_score>
0.108

> <Reaction_type>
aromatic_hydroxylation_(meta_to_carbon)

> <Parent_ID>
10

> <Parent_InChI>
InChI=1S/C26H35F3O6/c1-17(2)35-25(33)11-6-4-3-5-10-21-22(24(32)15-23(21)31)13-12-19(30)16-34-20-9-7-8-18(14-20)26(27,28)29/h3,5,7-9,12-14,17,19,21-24,30-32H,4,6,10-11,15-16H2,1-2H3

> <Parent_SMILES>
CC(C)OC(=O)CCC/C=C\C[C@H]1[C@@H](O)C[C@@H](O)[C@@H]1/C=C/[C@@H](O)COc1cccc(C(F)(F)F)c1

$$$$
Molecule 10_metabolite 20
  CDK     0516241031

 71 72  0  0  0  0  0  0  0  0999 V2000
    6.1995   -0.2553    0.0000 C   0  0  0  0  0  0  0  0  0  0  0  0
    6.8194   -1.6212    0.0000 H   0  0  0  0  0  0  0  0  0  0  0  0
    6.0841    1.2403    0.0000 H   0  0  0  0  0  0  0  0  0  0  0  0
    7.6523    0.1180    0.0000 H   0  0  0  0  0  0  0  0  0  0  0  0
    4.7066   -0.1092    0.0000 C   0  0  0  0  0  0  0  0  0  0  0  0
    4.8219   -1.6047    0.0000 H   0  0  0  0  0  0  0  0  0  0  0  0
    3.2538   -0.4825    0.0000 C   0  0  0  0  0  0  0  0  0  0  0  0
    2.8507   -1.9273    0.0000 H   0  0  0  0  0  0  0  0  0  0  0  0
    1.7609   -0.3363    0.0000 H   0  0  0  0  0  0  0  0  0  0  0  0
    3.1384    1.0131    0.0000 H   0  0  0  0  0  0  0  0  0  0  0  0
    4.0867    1.2568    0.0000 O   0  0  0  0  0  0  0  0  0  0  0  0
    4.9597    2.4766    0.0000 C   0  0  0  0  0  0  0  0  0  0  0  0
    6.4525    2.3305    0.0000 O   0  0  0  0  0  0  0  0  0  0  0  0
    4.3398    3.8425    0.0000 C   0  0  0  0  0  0  0  0  0  0  0  0
    3.2901    4.9140    0.0000 H   0  0  0  0  0  0  0  0  0  0  0  0
    3.1022    2.9948    0.0000 H   0  0  0  0  0  0  0  0  0  0  0  0
    5.2127    5.0623    0.0000 C   0  0  0  0  0  0  0  0  0  0  0  0
    3.8599    5.7102    0.0000 H   0  0  0  0  0  0  0  0  0  0  0  0
    5.6159    6.5071    0.0000 H   0  0  0  0  0  0  0  0  0  0  0  0
    6.7056    4.9162    0.0000 C   0  0  0  0  0  0  0  0  0  0  0  0
    8.0585    4.2683    0.0000 H   0  0  0  0  0  0  0  0  0  0  0  0
    6.3025    3.4714    0.0000 H   0  0  0  0  0  0  0  0  0  0  0  0
    7.5786    6.1360    0.0000 C   0  0  0  0  0  0  0  0  0  0  0  0
    6.9587    7.5019    0.0000 H   0  0  0  0  0  0  0  0  0  0  0  0
    9.5491    5.9431    0.0000 C   0  0  0  0  0  0  0  0  0  0  0  0
   10.4221    7.1629    0.0000 H   0  0  0  0  0  0  0  0  0  0  0  0
   10.5658    3.7030    0.0000 C   0  0  0  0  0  0  0  0  0  0  0  0
    9.1130    3.3297    0.0000 H   0  0  0  0  0  0  0  0  0  0  0  0
   10.6811    2.2075    0.0000 H   0  0  0  0  0  0  0  0  0  0  0  0
   12.5364    3.5102    0.0000 C   0  0  2  0  0  0  0  0  0  0  0  0
   12.2313    2.0415    0.0000 H   0  0  0  0  0  0  0  0  0  0  0  0
   13.9639    3.0496    0.0000 C   0  0  1  0  0  0  0  0  0  0  0  0
   13.3552    1.6787    0.0000 H   0  0  0  0  0  0  0  0  0  0  0  0
   15.6785    2.0594    0.0000 C   0  0  0  0  0  0  0  0  0  0  0  0
   16.9777    2.8092    0.0000 H   0  0  0  0  0  0  0  0  0  0  0  0
   15.6783    0.5594    0.0000 C   0  0  0  0  0  0  0  0  0  0  0  0
   14.3791   -0.1904    0.0000 H   0  0  0  0  0  0  0  0  0  0  0  0
   16.9772   -0.1908    0.0000 C   0  0  2  0  0  0  0  0  0  0  0  0
   18.4543   -0.4516    0.0000 H   0  0  0  0  0  0  0  0  0  0  0  0
   16.9769   -1.6908    0.0000 C   0  0  0  0  0  0  0  0  0  0  0  0
   15.4998   -1.4301    0.0000 H   0  0  0  0  0  0  0  0  0  0  0  0
   16.4637   -3.1003    0.0000 H   0  0  0  0  0  0  0  0  0  0  0  0
   18.2759   -2.4411    0.0000 O   0  0  0  0  0  0  0  0  0  0  0  0
   18.2756   -3.9411    0.0000 C   0  0  0  0  0  0  0  0  0  0  0  0
   16.9766   -4.6911    0.0000 C   0  0  0  0  0  0  0  0  0  0  0  0
   15.6774   -3.9413    0.0000 H   0  0  0  0  0  0  0  0  0  0  0  0
   16.9771   -6.1919    0.0000 C   0  0  0  0  0  0  0  0  0  0  0  0
   18.2766   -6.9427    0.0000 C   0  0  0  0  0  0  0  0  0  0  0  0
   18.2763   -8.4427    0.0000 H   0  0  0  0  0  0  0  0  0  0  0  0
   19.5756   -6.1927    0.0000 C   0  0  0  0  0  0  0  0  0  0  0  0
   20.8748   -6.9425    0.0000 H   0  0  0  0  0  0  0  0  0  0  0  0
   19.5751   -4.6919    0.0000 C   0  0  0  0  0  0  0  0  0  0  0  0
   20.8742   -3.9419    0.0000 O   0  0  0  0  0  0  0  0  0  0  0  0
   22.1732   -4.6919    0.0000 H   0  0  0  0  0  0  0  0  0  0  0  0
   15.6780   -6.9419    0.0000 C   0  0  0  0  0  0  0  0  0  0  0  0
   15.6780   -8.4419    0.0000 F   0  0  0  0  0  0  0  0  0  0  0  0
   15.1650   -5.5323    0.0000 F   0  0  0  0  0  0  0  0  0  0  0  0
   14.2008   -7.2024    0.0000 F   0  0  0  0  0  0  0  0  0  0  0  0
   17.4904    1.2186    0.0000 O   0  0  0  0  0  0  0  0  0  0  0  0
   18.9677    1.4788    0.0000 H   0  0  0  0  0  0  0  0  0  0  0  0
   14.8503    4.2663    0.0000 C   0  0  1  0  0  0  0  0  0  0  0  0
   15.9673    3.2651    0.0000 H   0  0  0  0  0  0  0  0  0  0  0  0
   13.9498    5.4814    0.0000 C   0  0  0  0  0  0  0  0  0  0  0  0
   15.2408    6.2453    0.0000 H   0  0  0  0  0  0  0  0  0  0  0  0
   13.3233    6.8443    0.0000 H   0  0  0  0  0  0  0  0  0  0  0  0
   12.5220    4.9964    0.0000 C   0  0  2  0  0  0  0  0  0  0  0  0
   12.1924    6.4597    0.0000 H   0  0  0  0  0  0  0  0  0  0  0  0
   11.1451    5.5915    0.0000 O   0  0  0  0  0  0  0  0  0  0  0  0
   10.8613    8.0351    0.0000 H   0  0  0  0  0  0  0  0  0  0  0  0
   15.9591    5.2765    0.0000 O   0  0  0  0  0  0  0  0  0  0  0  0
   17.3884    4.8213    0.0000 H   0  0  0  0  0  0  0  0  0  0  0  0
  1  2  1  0  0  0  0 
  1  3  1  0  0  0  0 
  1  4  1  0  0  0  0 
  1  5  1  0  0  0  0 
  5  6  1  0  0  0  0 
  5  7  1  0  0  0  0 
  7  8  1  0  0  0  0 
  7  9  1  0  0  0  0 
  7 10  1  0  0  0  0 
  5 11  1  0  0  0  0 
 11 12  1  0  0  0  0 
 12 13  2  0  0  0  0 
 12 14  1  0  0  0  0 
 14 15  1  0  0  0  0 
 14 16  1  0  0  0  0 
 14 17  1  0  0  0  0 
 17 18  1  0  0  0  0 
 17 19  1  0  0  0  0 
 17 20  1  0  0  0  0 
 20 21  1  0  0  0  0 
 20 22  1  0  0  0  0 
 20 23  1  0  0  0  0 
 23 24  1  0  0  0  0 
 23 25  2  0  0  0  0 
 25 26  1  0  0  0  0 
 25 27  1  0  0  0  0 
 27 28  1  0  0  0  0 
 27 29  1  0  0  0  0 
 30 27  1  1  0  0  0 
 30 31  1  6  0  0  0 
 30 32  1  0  0  0  0 
 32 33  1  1  0  0  0 
 32 34  1  6  0  0  0 
 34 35  1  0  0  0  0 
 34 36  2  0  0  0  0 
 36 37  1  0  0  0  0 
 36 38  1  0  0  0  0 
 38 39  1  6  0  0  0 
 38 40  1  0  0  0  0 
 40 41  1  0  0  0  0 
 40 42  1  0  0  0  0 
 40 43  1  0  0  0  0 
 43 44  1  0  0  0  0 
 44 45  2  0  0  0  0 
 45 46  1  0  0  0  0 
 45 47  1  0  0  0  0 
 47 48  2  0  0  0  0 
 48 49  1  0  0  0  0 
 48 50  1  0  0  0  0 
 50 51  1  0  0  0  0 
 50 52  2  0  0  0  0 
 44 52  1  0  0  0  0 
 52 53  1  0  0  0  0 
 53 54  1  0  0  0  0 
 47 55  1  0  0  0  0 
 55 56  1  0  0  0  0 
 55 57  1  0  0  0  0 
 55 58  1  0  0  0  0 
 38 59  1  1  0  0  0 
 59 60  1  0  0  0  0 
 32 61  1  0  0  0  0 
 61 62  1  6  0  0  0 
 61 63  1  0  0  0  0 
 63 64  1  0  0  0  0 
 63 65  1  0  0  0  0 
 63 66  1  0  0  0  0 
 30 66  1  0  0  0  0 
 66 67  1  6  0  0  0 
 66 68  1  1  0  0  0 
 68 69  1  0  0  0  0 
 61 70  1  1  0  0  0 
 70 71  1  0  0  0  0 
M  END
> <Rank>
19

> <Priority_score>
0.108

> <Reaction_type>
aromatic_hydroxylation_(para_to_carbon)

> <Parent_ID>
10

> <Parent_InChI>
InChI=1S/C26H35F3O6/c1-17(2)35-25(33)11-6-4-3-5-10-21-22(24(32)15-23(21)31)13-12-19(30)16-34-20-9-7-8-18(14-20)26(27,28)29/h3,5,7-9,12-14,17,19,21-24,30-32H,4,6,10-11,15-16H2,1-2H3

> <Parent_SMILES>
CC(C)OC(=O)CCC/C=C\C[C@H]1[C@@H](O)C[C@@H](O)[C@@H]1/C=C/[C@@H](O)COc1cccc(C(F)(F)F)c1

$$$$
Molecule 10_metabolite 21
  CDK     0516241031

 90 92  0  0  0  0  0  0  0  0999 V2000
   -6.0862   -5.1442    0.0000 C   0  0  0  0  0  0  0  0  0  0  0  0
   -7.5851   -5.2019    0.0000 H   0  0  0  0  0  0  0  0  0  0  0  0
   -6.2896   -6.6303    0.0000 H   0  0  0  0  0  0  0  0  0  0  0  0
   -4.6579   -5.6025    0.0000 H   0  0  0  0  0  0  0  0  0  0  0  0
   -5.3868   -3.8172    0.0000 C   0  0  0  0  0  0  0  0  0  0  0  0
   -5.1834   -2.3310    0.0000 H   0  0  0  0  0  0  0  0  0  0  0  0
   -6.8150   -3.3588    0.0000 C   0  0  0  0  0  0  0  0  0  0  0  0
   -7.9261   -4.3666    0.0000 H   0  0  0  0  0  0  0  0  0  0  0  0
   -6.1156   -2.0319    0.0000 H   0  0  0  0  0  0  0  0  0  0  0  0
   -8.0004   -2.4396    0.0000 H   0  0  0  0  0  0  0  0  0  0  0  0
   -3.8879   -3.7594    0.0000 O   0  0  0  0  0  0  0  0  0  0  0  0
   -3.1885   -2.4324    0.0000 C   0  0  0  0  0  0  0  0  0  0  0  0
   -3.9880   -1.1633    0.0000 O   0  0  0  0  0  0  0  0  0  0  0  0
   -1.6896   -2.3747    0.0000 C   0  0  0  0  0  0  0  0  0  0  0  0
   -1.8930   -3.8608    0.0000 H   0  0  0  0  0  0  0  0  0  0  0  0
   -0.2614   -2.8330    0.0000 H   0  0  0  0  0  0  0  0  0  0  0  0
   -0.9902   -1.0477    0.0000 C   0  0  0  0  0  0  0  0  0  0  0  0
   -0.7868    0.4385    0.0000 H   0  0  0  0  0  0  0  0  0  0  0  0
   -2.4185   -0.5893    0.0000 H   0  0  0  0  0  0  0  0  0  0  0  0
    1.4680   -0.9529    0.0000 C   0  0  0  0  0  0  0  0  0  0  0  0
    1.2646   -2.4391    0.0000 H   0  0  0  0  0  0  0  0  0  0  0  0
    2.8962   -1.4113    0.0000 H   0  0  0  0  0  0  0  0  0  0  0  0
    2.1674    0.3740    0.0000 C   0  0  0  0  0  0  0  0  0  0  0  0
    1.3679    1.6432    0.0000 H   0  0  0  0  0  0  0  0  0  0  0  0
    4.6255    0.4688    0.0000 C   0  0  0  0  0  0  0  0  0  0  0  0
    5.3249    1.7958    0.0000 H   0  0  0  0  0  0  0  0  0  0  0  0
    5.4250   -0.8004    0.0000 C   0  0  0  0  0  0  0  0  0  0  0  0
    5.7422   -2.2665    0.0000 H   0  0  0  0  0  0  0  0  0  0  0  0
    4.0363   -1.3673    0.0000 H   0  0  0  0  0  0  0  0  0  0  0  0
    8.3628   -0.6871    0.0000 C   0  0  2  0  0  0  0  0  0  0  0  0
    8.1449    0.7970    0.0000 H   0  0  0  0  0  0  0  0  0  0  0  0
    9.8151   -0.3116    0.0000 C   0  0  1  0  0  0  0  0  0  0  0  0
    9.2882    1.0928    0.0000 H   0  0  0  0  0  0  0  0  0  0  0  0
   11.5851    0.5758    0.0000 C   0  0  0  0  0  0  0  0  0  0  0  0
   12.8378   -0.2493    0.0000 H   0  0  0  0  0  0  0  0  0  0  0  0
   11.6733    2.0732    0.0000 C   0  0  0  0  0  0  0  0  0  0  0  0
   10.4207    2.8983    0.0000 H   0  0  0  0  0  0  0  0  0  0  0  0
   13.0143    2.7455    0.0000 C   0  0  2  0  0  0  0  0  0  0  0  0
   13.4435    1.3082    0.0000 H   0  0  0  0  0  0  0  0  0  0  0  0
   13.1025    4.2429    0.0000 C   0  0  0  0  0  0  0  0  0  0  0  0
   12.6733    5.6801    0.0000 H   0  0  0  0  0  0  0  0  0  0  0  0
   11.6125    4.0698    0.0000 H   0  0  0  0  0  0  0  0  0  0  0  0
   14.4434    4.9151    0.0000 O   0  0  0  0  0  0  0  0  0  0  0  0
   14.5317    6.4125    0.0000 C   0  0  0  0  0  0  0  0  0  0  0  0
   13.2794    7.2398    0.0000 C   0  0  0  0  0  0  0  0  0  0  0  0
   11.9375    6.5696    0.0000 H   0  0  0  0  0  0  0  0  0  0  0  0
   13.3702    8.7371    0.0000 C   0  0  0  0  0  0  0  0  0  0  0  0
   14.7132    9.4070    0.0000 C   0  0  0  0  0  0  0  0  0  0  0  0
   14.8064   10.9041    0.0000 H   0  0  0  0  0  0  0  0  0  0  0  0
   15.9554    8.5804    0.0000 C   0  0  0  0  0  0  0  0  0  0  0  0
   17.2985    9.2484    0.0000 H   0  0  0  0  0  0  0  0  0  0  0  0
   15.8647    7.0831    0.0000 C   0  0  0  0  0  0  0  0  0  0  0  0
   17.1172    6.2578    0.0000 H   0  0  0  0  0  0  0  0  0  0  0  0
   12.1190    9.5645    0.0000 C   0  0  0  0  0  0  0  0  0  0  0  0
   12.2100   11.0617    0.0000 F   0  0  0  0  0  0  0  0  0  0  0  0
   10.6603    9.9141    0.0000 F   0  0  0  0  0  0  0  0  0  0  0  0
   11.5214    8.1887    0.0000 F   0  0  0  0  0  0  0  0  0  0  0  0
   14.5042    2.9186    0.0000 O   0  0  0  0  0  0  0  0  0  0  0  0
   15.0993    4.2955    0.0000 H   0  0  0  0  0  0  0  0  0  0  0  0
   10.6281   -1.5784    0.0000 C   0  0  1  0  0  0  0  0  0  0  0  0
   11.8022   -0.6449    0.0000 H   0  0  0  0  0  0  0  0  0  0  0  0
    9.6576   -2.7383    0.0000 C   0  0  0  0  0  0  0  0  0  0  0  0
   10.9012   -3.5770    0.0000 H   0  0  0  0  0  0  0  0  0  0  0  0
    8.9518   -4.0619    0.0000 H   0  0  0  0  0  0  0  0  0  0  0  0
    8.2608   -2.1699    0.0000 C   0  0  2  0  0  0  0  0  0  0  0  0
    7.8454   -3.6112    0.0000 H   0  0  0  0  0  0  0  0  0  0  0  0
    6.7836   -1.9093    0.0000 O   0  0  0  0  0  0  0  0  0  0  0  0
    5.8193   -3.0582    0.0000 H   0  0  0  0  0  0  0  0  0  0  0  0
   12.0106   -2.9959    0.0000 O   0  0  0  0  0  0  0  0  0  0  0  0
   13.4642   -2.6258    0.0000 C   0  0  0  0  0  0  0  0  0  0  0  0
   12.8505   -1.2571    0.0000 H   0  0  0  0  0  0  0  0  0  0  0  0
   13.5789   -4.1114    0.0000 C   0  0  0  0  0  0  0  0  0  0  0  0
   13.1771   -5.5566    0.0000 H   0  0  0  0  0  0  0  0  0  0  0  0
   14.9535   -4.7675    0.0000 C   0  0  0  0  0  0  0  0  0  0  0  0
   16.0076   -5.8347    0.0000 H   0  0  0  0  0  0  0  0  0  0  0  0
   16.1911   -3.9097    0.0000 C   0  0  0  0  0  0  0  0  0  0  0  0
   17.6432   -3.5336    0.0000 H   0  0  0  0  0  0  0  0  0  0  0  0
   16.0764   -2.4241    0.0000 C   0  0  0  0  0  0  0  0  0  0  0  0
   16.4791   -0.9792    0.0000 H   0  0  0  0  0  0  0  0  0  0  0  0
   18.5248   -2.6632    0.0000 C   0  0  0  0  0  0  0  0  0  0  0  0
   19.3975   -1.4433    0.0000 O   0  0  0  0  0  0  0  0  0  0  0  0
   19.1449   -4.0290    0.0000 O   0  0  0  0  0  0  0  0  0  0  0  0
   20.6378   -4.1748    0.0000 H   0  0  0  0  0  0  0  0  0  0  0  0
   14.7225   -1.7764    0.0000 O   0  0  0  0  0  0  0  0  0  0  0  0
   16.8161   -5.2733    0.0000 O   0  0  0  0  0  0  0  0  0  0  0  0
   18.3095   -5.4138    0.0000 H   0  0  0  0  0  0  0  0  0  0  0  0
   14.0838   -5.9897    0.0000 O   0  0  0  0  0  0  0  0  0  0  0  0
   14.7074   -7.3539    0.0000 H   0  0  0  0  0  0  0  0  0  0  0  0
   12.0860   -3.9660    0.0000 O   0  0  0  0  0  0  0  0  0  0  0  0
   11.2136   -5.1862    0.0000 H   0  0  0  0  0  0  0  0  0  0  0  0
  1  2  1  0  0  0  0 
  1  3  1  0  0  0  0 
  1  4  1  0  0  0  0 
  1  5  1  0  0  0  0 
  5  6  1  0  0  0  0 
  5  7  1  0  0  0  0 
  7  8  1  0  0  0  0 
  7  9  1  0  0  0  0 
  7 10  1  0  0  0  0 
  5 11  1  0  0  0  0 
 11 12  1  0  0  0  0 
 12 13  2  0  0  0  0 
 12 14  1  0  0  0  0 
 14 15  1  0  0  0  0 
 14 16  1  0  0  0  0 
 14 17  1  0  0  0  0 
 17 18  1  0  0  0  0 
 17 19  1  0  0  0  0 
 17 20  1  0  0  0  0 
 20 21  1  0  0  0  0 
 20 22  1  0  0  0  0 
 20 23  1  0  0  0  0 
 23 24  1  0  0  0  0 
 23 25  2  0  0  0  0 
 25 26  1  0  0  0  0 
 25 27  1  0  0  0  0 
 27 28  1  0  0  0  0 
 27 29  1  0  0  0  0 
 30 27  1  6  0  0  0 
 30 31  1  1  0  0  0 
 30 32  1  0  0  0  0 
 32 33  1  6  0  0  0 
 32 34  1  1  0  0  0 
 34 35  1  0  0  0  0 
 34 36  2  0  0  0  0 
 36 37  1  0  0  0  0 
 36 38  1  0  0  0  0 
 38 39  1  1  0  0  0 
 38 40  1  0  0  0  0 
 40 41  1  0  0  0  0 
 40 42  1  0  0  0  0 
 40 43  1  0  0  0  0 
 43 44  1  0  0  0  0 
 44 45  2  0  0  0  0 
 45 46  1  0  0  0  0 
 45 47  1  0  0  0  0 
 47 48  2  0  0  0  0 
 48 49  1  0  0  0  0 
 48 50  1  0  0  0  0 
 50 51  1  0  0  0  0 
 50 52  2  0  0  0  0 
 44 52  1  0  0  0  0 
 52 53  1  0  0  0  0 
 47 54  1  0  0  0  0 
 54 55  1  0  0  0  0 
 54 56  1  0  0  0  0 
 54 57  1  0  0  0  0 
 38 58  1  6  0  0  0 
 58 59  1  0  0  0  0 
 32 60  1  0  0  0  0 
 60 61  1  1  0  0  0 
 60 62  1  0  0  0  0 
 62 63  1  0  0  0  0 
 62 64  1  0  0  0  0 
 62 65  1  0  0  0  0 
 30 65  1  0  0  0  0 
 65 66  1  1  0  0  0 
 65 67  1  6  0  0  0 
 67 68  1  0  0  0  0 
 60 69  1  6  0  0  0 
 69 70  1  0  0  0  0 
 70 71  1  0  0  0  0 
 70 72  1  0  0  0  0 
 72 73  1  0  0  0  0 
 72 74  1  0  0  0  0 
 74 75  1  0  0  0  0 
 74 76  1  0  0  0  0 
 76 77  1  0  0  0  0 
 76 78  1  0  0  0  0 
 78 79  1  0  0  0  0 
 78 80  1  0  0  0  0 
 80 81  2  0  0  0  0 
 80 82  1  0  0  0  0 
 82 83  1  0  0  0  0 
 78 84  1  0  0  0  0 
 70 84  1  0  0  0  0 
 76 85  1  0  0  0  0 
 85 86  1  0  0  0  0 
 74 87  1  0  0  0  0 
 87 88  1  0  0  0  0 
 72 89  1  0  0  0  0 
 89 90  1  0  0  0  0 
M  END
> <Rank>
21

> <Priority_score>
0.10335582636720717

> <Reaction_type>
O-glucuronidation_(aliphatic_hydroxyl)

> <Parent_ID>
10

> <Parent_InChI>
InChI=1S/C26H35F3O6/c1-17(2)35-25(33)11-6-4-3-5-10-21-22(24(32)15-23(21)31)13-12-19(30)16-34-20-9-7-8-18(14-20)26(27,28)29/h3,5,7-9,12-14,17,19,21-24,30-32H,4,6,10-11,15-16H2,1-2H3

> <Parent_SMILES>
CC(C)OC(=O)CCC/C=C\C[C@H]1[C@@H](O)C[C@@H](O)[C@@H]1/C=C/[C@@H](O)COc1cccc(C(F)(F)F)c1

$$$$
Molecule 10_metabolite 22
  CDK     0516241031

 68 69  0  0  0  0  0  0  0  0999 V2000
   -8.3912   19.9860    0.0000 C   0  0  0  0  0  0  0  0  0  0  0  0
   -7.0264   20.6084    0.0000 H   0  0  0  0  0  0  0  0  0  0  0  0
   -8.5346   18.4929    0.0000 H   0  0  0  0  0  0  0  0  0  0  0  0
   -9.6126   20.8568    0.0000 C   0  0  0  0  0  0  0  0  0  0  0  0
   -9.4692   22.3499    0.0000 C   0  0  0  0  0  0  0  0  0  0  0  0
   -8.1045   22.9723    0.0000 H   0  0  0  0  0  0  0  0  0  0  0  0
  -10.9646   22.2318    0.0000 H   0  0  0  0  0  0  0  0  0  0  0  0
   -9.8452   23.8020    0.0000 H   0  0  0  0  0  0  0  0  0  0  0  0
  -10.9774   20.2343    0.0000 O   0  0  0  0  0  0  0  0  0  0  0  0
  -11.1208   18.7412    0.0000 C   0  0  0  0  0  0  0  0  0  0  0  0
   -9.8993   17.8705    0.0000 O   0  0  0  0  0  0  0  0  0  0  0  0
  -12.4855   18.1188    0.0000 C   0  0  0  0  0  0  0  0  0  0  0  0
  -13.9809   18.0007    0.0000 H   0  0  0  0  0  0  0  0  0  0  0  0
  -12.8615   19.5709    0.0000 H   0  0  0  0  0  0  0  0  0  0  0  0
  -12.6289   16.6257    0.0000 C   0  0  0  0  0  0  0  0  0  0  0  0
  -14.0744   17.0261    0.0000 H   0  0  0  0  0  0  0  0  0  0  0  0
  -13.2743   15.2716    0.0000 H   0  0  0  0  0  0  0  0  0  0  0  0
  -11.4075   15.7550    0.0000 C   0  0  0  0  0  0  0  0  0  0  0  0
   -9.9619   15.3545    0.0000 H   0  0  0  0  0  0  0  0  0  0  0  0
  -10.7621   17.1090    0.0000 H   0  0  0  0  0  0  0  0  0  0  0  0
  -11.5509   14.2618    0.0000 C   0  0  0  0  0  0  0  0  0  0  0  0
  -12.9156   13.6394    0.0000 H   0  0  0  0  0  0  0  0  0  0  0  0
   -9.9386   13.1125    0.0000 C   0  0  0  0  0  0  0  0  0  0  0  0
  -10.0820   11.6193    0.0000 H   0  0  0  0  0  0  0  0  0  0  0  0
   -7.7004   14.1332    0.0000 C   0  0  0  0  0  0  0  0  0  0  0  0
   -8.5503   15.3692    0.0000 H   0  0  0  0  0  0  0  0  0  0  0  0
   -6.6308   15.1849    0.0000 H   0  0  0  0  0  0  0  0  0  0  0  0
   -6.0881   12.9838    0.0000 C   0  0  2  0  0  0  0  0  0  0  0  0
   -5.3531   14.2914    0.0000 H   0  0  0  0  0  0  0  0  0  0  0  0
   -4.7094   12.3931    0.0000 C   0  0  1  0  0  0  0  0  0  0  0  0
   -4.2675   13.8265    0.0000 H   0  0  0  0  0  0  0  0  0  0  0  0
   -2.7662   12.0130    0.0000 C   0  0  0  0  0  0  0  0  0  0  0  0
   -2.2794   10.5942    0.0000 H   0  0  0  0  0  0  0  0  0  0  0  0
   -1.7808   13.1440    0.0000 C   0  0  0  0  0  0  0  0  0  0  0  0
   -2.2675   14.5628    0.0000 H   0  0  0  0  0  0  0  0  0  0  0  0
   -0.3087   12.8561    0.0000 C   0  0  2  0  0  0  0  0  0  0  0  0
    0.9762   12.0821    0.0000 H   0  0  0  0  0  0  0  0  0  0  0  0
    0.6767   13.9870    0.0000 C   0  0  0  0  0  0  0  0  0  0  0  0
   -0.6082   14.7611    0.0000 H   0  0  0  0  0  0  0  0  0  0  0  0
    1.2158   15.3868    0.0000 H   0  0  0  0  0  0  0  0  0  0  0  0
    2.1488   13.6992    0.0000 O   0  0  0  0  0  0  0  0  0  0  0  0
    3.1342   14.8301    0.0000 C   0  0  0  0  0  0  0  0  0  0  0  0
    4.6075   14.5441    0.0000 C   0  0  0  0  0  0  0  0  0  0  0  0
    5.0964   13.1260    0.0000 H   0  0  0  0  0  0  0  0  0  0  0  0
    5.5910   15.6766    0.0000 C   0  0  0  0  0  0  0  0  0  0  0  0
    5.1012   17.0953    0.0000 C   0  0  0  0  0  0  0  0  0  0  0  0
    6.0827   18.2295    0.0000 H   0  0  0  0  0  0  0  0  0  0  0  0
    3.6354   17.3748    0.0000 C   0  0  0  0  0  0  0  0  0  0  0  0
    3.1441   18.7921    0.0000 H   0  0  0  0  0  0  0  0  0  0  0  0
    2.6519   16.2422    0.0000 C   0  0  0  0  0  0  0  0  0  0  0  0
    1.1797   16.5298    0.0000 H   0  0  0  0  0  0  0  0  0  0  0  0
    7.0636   15.3915    0.0000 C   0  0  0  0  0  0  0  0  0  0  0  0
    8.0469   16.5242    0.0000 F   0  0  0  0  0  0  0  0  0  0  0  0
    8.3499   14.6198    0.0000 F   0  0  0  0  0  0  0  0  0  0  0  0
    6.5271   13.9907    0.0000 F   0  0  0  0  0  0  0  0  0  0  0  0
   -0.8478   11.4563    0.0000 O   0  0  0  0  0  0  0  0  0  0  0  0
    0.0948   10.2896    0.0000 H   0  0  0  0  0  0  0  0  0  0  0  0
   -4.8406   10.8935    0.0000 C   0  0  1  0  0  0  0  0  0  0  0  0
   -3.3407   10.9144    0.0000 H   0  0  0  0  0  0  0  0  0  0  0  0
   -6.3177   10.5691    0.0000 C   0  0  0  0  0  0  0  0  0  0  0  0
   -5.8464    9.1451    0.0000 H   0  0  0  0  0  0  0  0  0  0  0  0
   -7.6855    9.9533    0.0000 H   0  0  0  0  0  0  0  0  0  0  0  0
   -7.0755   11.8729    0.0000 C   0  0  2  0  0  0  0  0  0  0  0  0
   -8.2854   10.9863    0.0000 H   0  0  0  0  0  0  0  0  0  0  0  0
   -8.0850   12.9823    0.0000 O   0  0  0  0  0  0  0  0  0  0  0  0
  -10.4885   12.4582    0.0000 H   0  0  0  0  0  0  0  0  0  0  0  0
   -4.6684    9.4034    0.0000 O   0  0  0  0  0  0  0  0  0  0  0  0
   -3.2918    8.8075    0.0000 H   0  0  0  0  0  0  0  0  0  0  0  0
  1  2  1  0  0  0  0 
  1  3  1  0  0  0  0 
  1  4  2  0  0  0  0 
  4  5  1  0  0  0  0 
  5  6  1  0  0  0  0 
  5  7  1  0  0  0  0 
  5  8  1  0  0  0  0 
  4  9  1  0  0  0  0 
  9 10  1  0  0  0  0 
 10 11  2  0  0  0  0 
 10 12  1  0  0  0  0 
 12 13  1  0  0  0  0 
 12 14  1  0  0  0  0 
 12 15  1  0  0  0  0 
 15 16  1  0  0  0  0 
 15 17  1  0  0  0  0 
 15 18  1  0  0  0  0 
 18 19  1  0  0  0  0 
 18 20  1  0  0  0  0 
 18 21  1  0  0  0  0 
 21 22  1  0  0  0  0 
 21 23  2  0  0  0  0 
 23 24  1  0  0  0  0 
 23 25  1  0  0  0  0 
 25 26  1  0  0  0  0 
 25 27  1  0  0  0  0 
 28 25  1  6  0  0  0 
 28 29  1  1  0  0  0 
 28 30  1  0  0  0  0 
 30 31  1  6  0  0  0 
 30 32  1  1  0  0  0 
 32 33  1  0  0  0  0 
 32 34  2  0  0  0  0 
 34 35  1  0  0  0  0 
 34 36  1  0  0  0  0 
 36 37  1  1  0  0  0 
 36 38  1  0  0  0  0 
 38 39  1  0  0  0  0 
 38 40  1  0  0  0  0 
 38 41  1  0  0  0  0 
 41 42  1  0  0  0  0 
 42 43  2  0  0  0  0 
 43 44  1  0  0  0  0 
 43 45  1  0  0  0  0 
 45 46  2  0  0  0  0 
 46 47  1  0  0  0  0 
 46 48  1  0  0  0  0 
 48 49  1  0  0  0  0 
 48 50  2  0  0  0  0 
 42 50  1  0  0  0  0 
 50 51  1  0  0  0  0 
 45 52  1  0  0  0  0 
 52 53  1  0  0  0  0 
 52 54  1  0  0  0  0 
 52 55  1  0  0  0  0 
 36 56  1  6  0  0  0 
 56 57  1  0  0  0  0 
 30 58  1  0  0  0  0 
 58 59  1  1  0  0  0 
 58 60  1  0  0  0  0 
 60 61  1  0  0  0  0 
 60 62  1  0  0  0  0 
 60 63  1  0  0  0  0 
 28 63  1  0  0  0  0 
 63 64  1  1  0  0  0 
 63 65  1  6  0  0  0 
 65 66  1  0  0  0  0 
 58 67  1  6  0  0  0 
 67 68  1  0  0  0  0 
M  END
> <Rank>
22

> <Priority_score>
0.056799999999999996

> <Reaction_type>
alkyl dehydrogenation

> <Parent_ID>
10

> <Parent_InChI>
InChI=1S/C26H35F3O6/c1-17(2)35-25(33)11-6-4-3-5-10-21-22(24(32)15-23(21)31)13-12-19(30)16-34-20-9-7-8-18(14-20)26(27,28)29/h3,5,7-9,12-14,17,19,21-24,30-32H,4,6,10-11,15-16H2,1-2H3

> <Parent_SMILES>
CC(C)OC(=O)CCC/C=C\C[C@H]1[C@@H](O)C[C@@H](O)[C@@H]1/C=C/[C@@H](O)COc1cccc(C(F)(F)F)c1

$$$$
Molecule 10_metabolite 23
  CDK     0516241031

 71 72  0  0  0  0  0  0  0  0999 V2000
    3.6510   13.2150    0.0000 C   0  0  0  0  0  0  0  0  0  0  0  0
    3.7691   11.7196    0.0000 H   0  0  0  0  0  0  0  0  0  0  0  0
    2.1989   12.8390    0.0000 H   0  0  0  0  0  0  0  0  0  0  0  0
    3.0286   14.5798    0.0000 H   0  0  0  0  0  0  0  0  0  0  0  0
    4.8870   14.0649    0.0000 C   0  0  0  0  0  0  0  0  0  0  0  0
    3.8354   15.1345    0.0000 H   0  0  0  0  0  0  0  0  0  0  0  0
    5.5094   12.7001    0.0000 C   0  0  0  0  0  0  0  0  0  0  0  0
    6.7454   13.5501    0.0000 H   0  0  0  0  0  0  0  0  0  0  0  0
    6.5611   11.6306    0.0000 H   0  0  0  0  0  0  0  0  0  0  0  0
    4.6387   11.4787    0.0000 O   0  0  0  0  0  0  0  0  0  0  0  0
    5.2611   10.1140    0.0000 H   0  0  0  0  0  0  0  0  0  0  0  0
    5.7577   15.2863    0.0000 O   0  0  0  0  0  0  0  0  0  0  0  0
    5.1353   16.6511    0.0000 C   0  0  0  0  0  0  0  0  0  0  0  0
    3.6422   16.7945    0.0000 O   0  0  0  0  0  0  0  0  0  0  0  0
    6.0061   17.8725    0.0000 C   0  0  0  0  0  0  0  0  0  0  0  0
    7.2420   18.7224    0.0000 H   0  0  0  0  0  0  0  0  0  0  0  0
    7.0577   16.8029    0.0000 H   0  0  0  0  0  0  0  0  0  0  0  0
    5.3836   19.2373    0.0000 C   0  0  0  0  0  0  0  0  0  0  0  0
    6.8358   19.6132    0.0000 H   0  0  0  0  0  0  0  0  0  0  0  0
    5.2656   20.7326    0.0000 H   0  0  0  0  0  0  0  0  0  0  0  0
    3.8905   19.3806    0.0000 C   0  0  0  0  0  0  0  0  0  0  0  0
    2.4384   19.0047    0.0000 H   0  0  0  0  0  0  0  0  0  0  0  0
    4.0086   17.8853    0.0000 H   0  0  0  0  0  0  0  0  0  0  0  0
    3.2681   20.7454    0.0000 C   0  0  0  0  0  0  0  0  0  0  0  0
    4.1388   21.9668    0.0000 H   0  0  0  0  0  0  0  0  0  0  0  0
    1.2972   20.9347    0.0000 C   0  0  0  0  0  0  0  0  0  0  0  0
    0.6748   22.2994    0.0000 H   0  0  0  0  0  0  0  0  0  0  0  0
   -0.1308   18.9316    0.0000 C   0  0  0  0  0  0  0  0  0  0  0  0
    1.2232   18.2862    0.0000 H   0  0  0  0  0  0  0  0  0  0  0  0
   -0.5313   17.4860    0.0000 H   0  0  0  0  0  0  0  0  0  0  0  0
   -2.1018   19.1208    0.0000 C   0  0  2  0  0  0  0  0  0  0  0  0
   -2.0845   17.6209    0.0000 H   0  0  0  0  0  0  0  0  0  0  0  0
   -3.5912   18.9431    0.0000 C   0  0  1  0  0  0  0  0  0  0  0  0
   -3.2571   17.4807    0.0000 H   0  0  0  0  0  0  0  0  0  0  0  0
   -5.4640   18.3006    0.0000 C   0  0  0  0  0  0  0  0  0  0  0  0
   -6.5950   19.2859    0.0000 H   0  0  0  0  0  0  0  0  0  0  0  0
   -5.7519   16.8285    0.0000 C   0  0  0  0  0  0  0  0  0  0  0  0
   -4.6210   15.8431    0.0000 H   0  0  0  0  0  0  0  0  0  0  0  0
   -7.1708   16.3417    0.0000 C   0  0  2  0  0  0  0  0  0  0  0  0
   -8.6705   16.3696    0.0000 H   0  0  0  0  0  0  0  0  0  0  0  0
   -7.4587   14.8696    0.0000 C   0  0  0  0  0  0  0  0  0  0  0  0
   -5.9589   14.8417    0.0000 H   0  0  0  0  0  0  0  0  0  0  0  0
   -7.2257   13.3878    0.0000 H   0  0  0  0  0  0  0  0  0  0  0  0
   -8.8775   14.3829    0.0000 O   0  0  0  0  0  0  0  0  0  0  0  0
   -9.1654   12.9107    0.0000 C   0  0  0  0  0  0  0  0  0  0  0  0
  -10.5843   12.4218    0.0000 C   0  0  0  0  0  0  0  0  0  0  0  0
  -11.7168   13.4055    0.0000 H   0  0  0  0  0  0  0  0  0  0  0  0
  -10.8698   10.9492    0.0000 C   0  0  0  0  0  0  0  0  0  0  0  0
   -9.7362    9.9656    0.0000 C   0  0  0  0  0  0  0  0  0  0  0  0
  -10.0192    8.4925    0.0000 H   0  0  0  0  0  0  0  0  0  0  0  0
   -8.3271   10.4564    0.0000 C   0  0  0  0  0  0  0  0  0  0  0  0
   -7.1930    9.4746    0.0000 H   0  0  0  0  0  0  0  0  0  0  0  0
   -8.0417   11.9290    0.0000 C   0  0  0  0  0  0  0  0  0  0  0  0
   -6.6229   12.4160    0.0000 H   0  0  0  0  0  0  0  0  0  0  0  0
  -12.2877   10.4599    0.0000 C   0  0  0  0  0  0  0  0  0  0  0  0
  -12.5729    8.9872    0.0000 F   0  0  0  0  0  0  0  0  0  0  0  0
  -13.7875   10.4850    0.0000 F   0  0  0  0  0  0  0  0  0  0  0  0
  -12.5234   11.9413    0.0000 F   0  0  0  0  0  0  0  0  0  0  0  0
   -7.4037   17.8235    0.0000 O   0  0  0  0  0  0  0  0  0  0  0  0
   -8.8035   18.3627    0.0000 H   0  0  0  0  0  0  0  0  0  0  0  0
   -4.2273   20.3073    0.0000 C   0  0  1  0  0  0  0  0  0  0  0  0
   -5.5158   19.5393    0.0000 H   0  0  0  0  0  0  0  0  0  0  0  0
   -3.1103   21.3268    0.0000 C   0  0  0  0  0  0  0  0  0  0  0  0
   -4.2304   22.3244    0.0000 H   0  0  0  0  0  0  0  0  0  0  0  0
   -2.2336   22.5440    0.0000 H   0  0  0  0  0  0  0  0  0  0  0  0
   -1.8021   20.5766    0.0000 C   0  0  2  0  0  0  0  0  0  0  0  0
   -1.1976   21.9494    0.0000 H   0  0  0  0  0  0  0  0  0  0  0  0
   -0.3731   20.1206    0.0000 O   0  0  0  0  0  0  0  0  0  0  0  0
    1.4463   21.7762    0.0000 H   0  0  0  0  0  0  0  0  0  0  0  0
   -5.1215   21.5117    0.0000 O   0  0  0  0  0  0  0  0  0  0  0  0
   -6.6116   21.3395    0.0000 H   0  0  0  0  0  0  0  0  0  0  0  0
  1  2  1  0  0  0  0 
  1  3  1  0  0  0  0 
  1  4  1  0  0  0  0 
  1  5  1  0  0  0  0 
  5  6  1  0  0  0  0 
  5  7  1  0  0  0  0 
  7  8  1  0  0  0  0 
  7  9  1  0  0  0  0 
  7 10  1  0  0  0  0 
 10 11  1  0  0  0  0 
  5 12  1  0  0  0  0 
 12 13  1  0  0  0  0 
 13 14  2  0  0  0  0 
 13 15  1  0  0  0  0 
 15 16  1  0  0  0  0 
 15 17  1  0  0  0  0 
 15 18  1  0  0  0  0 
 18 19  1  0  0  0  0 
 18 20  1  0  0  0  0 
 18 21  1  0  0  0  0 
 21 22  1  0  0  0  0 
 21 23  1  0  0  0  0 
 21 24  1  0  0  0  0 
 24 25  1  0  0  0  0 
 24 26  2  0  0  0  0 
 26 27  1  0  0  0  0 
 26 28  1  0  0  0  0 
 28 29  1  0  0  0  0 
 28 30  1  0  0  0  0 
 31 28  1  6  0  0  0 
 31 32  1  1  0  0  0 
 31 33  1  0  0  0  0 
 33 34  1  6  0  0  0 
 33 35  1  1  0  0  0 
 35 36  1  0  0  0  0 
 35 37  2  0  0  0  0 
 37 38  1  0  0  0  0 
 37 39  1  0  0  0  0 
 39 40  1  1  0  0  0 
 39 41  1  0  0  0  0 
 41 42  1  0  0  0  0 
 41 43  1  0  0  0  0 
 41 44  1  0  0  0  0 
 44 45  1  0  0  0  0 
 45 46  2  0  0  0  0 
 46 47  1  0  0  0  0 
 46 48  1  0  0  0  0 
 48 49  2  0  0  0  0 
 49 50  1  0  0  0  0 
 49 51  1  0  0  0  0 
 51 52  1  0  0  0  0 
 51 53  2  0  0  0  0 
 45 53  1  0  0  0  0 
 53 54  1  0  0  0  0 
 48 55  1  0  0  0  0 
 55 56  1  0  0  0  0 
 55 57  1  0  0  0  0 
 55 58  1  0  0  0  0 
 39 59  1  6  0  0  0 
 59 60  1  0  0  0  0 
 33 61  1  0  0  0  0 
 61 62  1  1  0  0  0 
 61 63  1  0  0  0  0 
 63 64  1  0  0  0  0 
 63 65  1  0  0  0  0 
 63 66  1  0  0  0  0 
 31 66  1  0  0  0  0 
 66 67  1  1  0  0  0 
 66 68  1  6  0  0  0 
 68 69  1  0  0  0  0 
 61 70  1  6  0  0  0 
 70 71  1  0  0  0  0 
M  END
> <Rank>
23

> <Priority_score>
0.052

> <Reaction_type>
aliphatic hydroxylation

> <Parent_ID>
10

> <Parent_InChI>
InChI=1S/C26H35F3O6/c1-17(2)35-25(33)11-6-4-3-5-10-21-22(24(32)15-23(21)31)13-12-19(30)16-34-20-9-7-8-18(14-20)26(27,28)29/h3,5,7-9,12-14,17,19,21-24,30-32H,4,6,10-11,15-16H2,1-2H3

> <Parent_SMILES>
CC(C)OC(=O)CCC/C=C\C[C@H]1[C@@H](O)C[C@@H](O)[C@@H]1/C=C/[C@@H](O)COc1cccc(C(F)(F)F)c1

$$$$
Molecule 10_metabolite 24
  CDK     0516241031

 71 72  0  0  0  0  0  0  0  0999 V2000
  -10.4505   11.5042    0.0000 C   0  0  0  0  0  0  0  0  0  0  0  0
   -9.8281   10.1394    0.0000 H   0  0  0  0  0  0  0  0  0  0  0  0
  -10.5686   12.9995    0.0000 H   0  0  0  0  0  0  0  0  0  0  0  0
   -8.9984   11.8801    0.0000 H   0  0  0  0  0  0  0  0  0  0  0  0
  -11.9437   11.6476    0.0000 C   0  0  0  0  0  0  0  0  0  0  0  0
  -11.8256   10.1522    0.0000 H   0  0  0  0  0  0  0  0  0  0  0  0
  -13.3958   11.2716    0.0000 C   0  0  0  0  0  0  0  0  0  0  0  0
  -13.7963    9.8260    0.0000 H   0  0  0  0  0  0  0  0  0  0  0  0
  -14.8889   11.4150    0.0000 H   0  0  0  0  0  0  0  0  0  0  0  0
  -13.5139   12.7669    0.0000 H   0  0  0  0  0  0  0  0  0  0  0  0
  -12.5661   13.0123    0.0000 O   0  0  0  0  0  0  0  0  0  0  0  0
  -11.6954   14.2337    0.0000 C   0  0  0  0  0  0  0  0  0  0  0  0
  -10.2022   14.0904    0.0000 O   0  0  0  0  0  0  0  0  0  0  0  0
  -12.3178   15.5985    0.0000 C   0  0  0  0  0  0  0  0  0  0  0  0
  -13.3694   16.6681    0.0000 H   0  0  0  0  0  0  0  0  0  0  0  0
  -13.5537   14.7486    0.0000 H   0  0  0  0  0  0  0  0  0  0  0  0
  -11.4470   16.8199    0.0000 C   0  0  0  0  0  0  0  0  0  0  0  0
  -12.8011   17.4653    0.0000 H   0  0  0  0  0  0  0  0  0  0  0  0
  -11.0466   18.2655    0.0000 H   0  0  0  0  0  0  0  0  0  0  0  0
   -9.9539   16.6766    0.0000 C   0  0  0  0  0  0  0  0  0  0  0  0
   -8.5999   16.0311    0.0000 H   0  0  0  0  0  0  0  0  0  0  0  0
  -10.3544   15.2310    0.0000 H   0  0  0  0  0  0  0  0  0  0  0  0
   -9.0832   17.8980    0.0000 C   0  0  0  0  0  0  0  0  0  0  0  0
   -9.7056   19.2627    0.0000 H   0  0  0  0  0  0  0  0  0  0  0  0
   -7.1122   17.7087    0.0000 C   0  0  0  0  0  0  0  0  0  0  0  0
   -6.2415   18.9301    0.0000 H   0  0  0  0  0  0  0  0  0  0  0  0
   -6.0915   15.4705    0.0000 C   0  0  0  0  0  0  0  0  0  0  0  0
   -7.5436   15.0945    0.0000 H   0  0  0  0  0  0  0  0  0  0  0  0
   -5.9734   13.9751    0.0000 H   0  0  0  0  0  0  0  0  0  0  0  0
   -4.1206   15.2812    0.0000 C   0  0  2  0  0  0  0  0  0  0  0  0
   -4.4229   13.8120    0.0000 H   0  0  0  0  0  0  0  0  0  0  0  0
   -2.6922   14.8233    0.0000 C   0  0  1  0  0  0  0  0  0  0  0  0
   -3.2984   13.4513    0.0000 H   0  0  0  0  0  0  0  0  0  0  0  0
   -0.9758   13.8362    0.0000 C   0  0  0  0  0  0  0  0  0  0  0  0
    0.3220   14.5884    0.0000 H   0  0  0  0  0  0  0  0  0  0  0  0
   -0.9733   12.3362    0.0000 C   0  0  0  0  0  0  0  0  0  0  0  0
   -2.2710   11.5840    0.0000 H   0  0  0  0  0  0  0  0  0  0  0  0
    0.3270   11.5884    0.0000 C   0  0  2  0  0  0  0  0  0  0  0  0
    0.3295   10.0884    0.0000 C   0  0  0  0  0  0  0  0  0  0  0  0
   -1.1481   10.3464    0.0000 H   0  0  0  0  0  0  0  0  0  0  0  0
   -0.1811    8.6780    0.0000 H   0  0  0  0  0  0  0  0  0  0  0  0
    1.6298    9.3406    0.0000 O   0  0  0  0  0  0  0  0  0  0  0  0
    1.6323    7.8406    0.0000 C   0  0  0  0  0  0  0  0  0  0  0  0
    2.9323    7.0906    0.0000 C   0  0  0  0  0  0  0  0  0  0  0  0
    4.2313    7.8408    0.0000 H   0  0  0  0  0  0  0  0  0  0  0  0
    2.9323    5.5906    0.0000 C   0  0  0  0  0  0  0  0  0  0  0  0
    1.6323    4.8406    0.0000 C   0  0  0  0  0  0  0  0  0  0  0  0
    1.6298    3.3406    0.0000 H   0  0  0  0  0  0  0  0  0  0  0  0
    0.3423    5.5906    0.0000 C   0  0  0  0  0  0  0  0  0  0  0  0
   -0.9578    4.8425    0.0000 H   0  0  0  0  0  0  0  0  0  0  0  0
    0.3423    7.0906    0.0000 C   0  0  0  0  0  0  0  0  0  0  0  0
   -0.9578    7.8386    0.0000 H   0  0  0  0  0  0  0  0  0  0  0  0
    4.2313    4.8404    0.0000 C   0  0  0  0  0  0  0  0  0  0  0  0
    4.2310    3.3404    0.0000 F   0  0  0  0  0  0  0  0  0  0  0  0
    5.7084    4.5796    0.0000 F   0  0  0  0  0  0  0  0  0  0  0  0
    4.7445    6.2498    0.0000 F   0  0  0  0  0  0  0  0  0  0  0  0
    1.8047   11.3304    0.0000 O   0  0  0  0  0  0  0  0  0  0  0  0
    2.3201    9.9217    0.0000 H   0  0  0  0  0  0  0  0  0  0  0  0
    0.8377   12.9988    0.0000 O   0  0  0  0  0  0  0  0  0  0  0  0
    2.3145   13.2617    0.0000 H   0  0  0  0  0  0  0  0  0  0  0  0
   -1.8081   16.0416    0.0000 C   0  0  1  0  0  0  0  0  0  0  0  0
   -0.6892   15.0425    0.0000 H   0  0  0  0  0  0  0  0  0  0  0  0
   -2.7107   17.2551    0.0000 C   0  0  0  0  0  0  0  0  0  0  0  0
   -1.4212   18.0213    0.0000 H   0  0  0  0  0  0  0  0  0  0  0  0
   -3.3397   18.6168    0.0000 H   0  0  0  0  0  0  0  0  0  0  0  0
   -4.1377   16.7674    0.0000 C   0  0  2  0  0  0  0  0  0  0  0  0
   -4.4700   18.2301    0.0000 H   0  0  0  0  0  0  0  0  0  0  0  0
   -5.5157   17.3600    0.0000 O   0  0  0  0  0  0  0  0  0  0  0  0
   -5.8039   19.8031    0.0000 H   0  0  0  0  0  0  0  0  0  0  0  0
   -0.7011   17.0538    0.0000 O   0  0  0  0  0  0  0  0  0  0  0  0
    0.7290   16.6012    0.0000 H   0  0  0  0  0  0  0  0  0  0  0  0
  1  2  1  0  0  0  0 
  1  3  1  0  0  0  0 
  1  4  1  0  0  0  0 
  1  5  1  0  0  0  0 
  5  6  1  0  0  0  0 
  5  7  1  0  0  0  0 
  7  8  1  0  0  0  0 
  7  9  1  0  0  0  0 
  7 10  1  0  0  0  0 
  5 11  1  0  0  0  0 
 11 12  1  0  0  0  0 
 12 13  2  0  0  0  0 
 12 14  1  0  0  0  0 
 14 15  1  0  0  0  0 
 14 16  1  0  0  0  0 
 14 17  1  0  0  0  0 
 17 18  1  0  0  0  0 
 17 19  1  0  0  0  0 
 17 20  1  0  0  0  0 
 20 21  1  0  0  0  0 
 20 22  1  0  0  0  0 
 20 23  1  0  0  0  0 
 23 24  1  0  0  0  0 
 23 25  2  0  0  0  0 
 25 26  1  0  0  0  0 
 25 27  1  0  0  0  0 
 27 28  1  0  0  0  0 
 27 29  1  0  0  0  0 
 30 27  1  1  0  0  0 
 30 31  1  6  0  0  0 
 30 32  1  0  0  0  0 
 32 33  1  1  0  0  0 
 32 34  1  6  0  0  0 
 34 35  1  0  0  0  0 
 34 36  2  0  0  0  0 
 36 37  1  0  0  0  0 
 36 38  1  0  0  0  0 
 38 39  1  0  0  0  0 
 39 40  1  0  0  0  0 
 39 41  1  0  0  0  0 
 39 42  1  0  0  0  0 
 42 43  1  0  0  0  0 
 43 44  2  0  0  0  0 
 44 45  1  0  0  0  0 
 44 46  1  0  0  0  0 
 46 47  2  0  0  0  0 
 47 48  1  0  0  0  0 
 47 49  1  0  0  0  0 
 49 50  1  0  0  0  0 
 49 51  2  0  0  0  0 
 43 51  1  0  0  0  0 
 51 52  1  0  0  0  0 
 46 53  1  0  0  0  0 
 53 54  1  0  0  0  0 
 53 55  1  0  0  0  0 
 53 56  1  0  0  0  0 
 38 57  1  1  0  0  0 
 57 58  1  0  0  0  0 
 38 59  1  6  0  0  0 
 59 60  1  0  0  0  0 
 32 61  1  0  0  0  0 
 61 62  1  6  0  0  0 
 61 63  1  0  0  0  0 
 63 64  1  0  0  0  0 
 63 65  1  0  0  0  0 
 63 66  1  0  0  0  0 
 30 66  1  0  0  0  0 
 66 67  1  6  0  0  0 
 66 68  1  1  0  0  0 
 68 69  1  0  0  0  0 
 61 70  1  1  0  0  0 
 70 71  1  0  0  0  0 
M  END
> <Rank>
23

> <Priority_score>
0.052

> <Reaction_type>
aliphatic hydroxylation

> <Parent_ID>
10

> <Parent_InChI>
InChI=1S/C26H35F3O6/c1-17(2)35-25(33)11-6-4-3-5-10-21-22(24(32)15-23(21)31)13-12-19(30)16-34-20-9-7-8-18(14-20)26(27,28)29/h3,5,7-9,12-14,17,19,21-24,30-32H,4,6,10-11,15-16H2,1-2H3

> <Parent_SMILES>
CC(C)OC(=O)CCC/C=C\C[C@H]1[C@@H](O)C[C@@H](O)[C@@H]1/C=C/[C@@H](O)COc1cccc(C(F)(F)F)c1

$$$$
Molecule 10_metabolite 25
  CDK     0516241031

 72 73  0  0  0  0  0  0  0  0999 V2000
   -9.5967   11.7397    0.0000 C   0  0  0  0  0  0  0  0  0  0  0  0
   -8.9743   10.3749    0.0000 H   0  0  0  0  0  0  0  0  0  0  0  0
   -9.7148   13.2350    0.0000 H   0  0  0  0  0  0  0  0  0  0  0  0
   -8.1446   12.1156    0.0000 H   0  0  0  0  0  0  0  0  0  0  0  0
  -11.0898   11.8831    0.0000 C   0  0  0  0  0  0  0  0  0  0  0  0
  -10.9717   10.3877    0.0000 H   0  0  0  0  0  0  0  0  0  0  0  0
  -12.5419   11.5071    0.0000 C   0  0  0  0  0  0  0  0  0  0  0  0
  -12.9424   10.0615    0.0000 H   0  0  0  0  0  0  0  0  0  0  0  0
  -14.0351   11.6505    0.0000 H   0  0  0  0  0  0  0  0  0  0  0  0
  -12.6600   13.0024    0.0000 H   0  0  0  0  0  0  0  0  0  0  0  0
  -11.7122   13.2478    0.0000 O   0  0  0  0  0  0  0  0  0  0  0  0
  -10.8415   14.4692    0.0000 C   0  0  0  0  0  0  0  0  0  0  0  0
   -9.3484   14.3259    0.0000 O   0  0  0  0  0  0  0  0  0  0  0  0
  -11.4639   15.8340    0.0000 C   0  0  0  0  0  0  0  0  0  0  0  0
  -12.5156   16.9036    0.0000 H   0  0  0  0  0  0  0  0  0  0  0  0
  -12.6999   14.9841    0.0000 H   0  0  0  0  0  0  0  0  0  0  0  0
  -10.5932   17.0554    0.0000 C   0  0  0  0  0  0  0  0  0  0  0  0
  -11.9472   17.7008    0.0000 H   0  0  0  0  0  0  0  0  0  0  0  0
  -10.1927   18.5010    0.0000 H   0  0  0  0  0  0  0  0  0  0  0  0
   -9.1000   16.9120    0.0000 C   0  0  0  0  0  0  0  0  0  0  0  0
   -7.7460   16.2666    0.0000 H   0  0  0  0  0  0  0  0  0  0  0  0
   -9.5005   15.4665    0.0000 H   0  0  0  0  0  0  0  0  0  0  0  0
   -8.2293   18.1335    0.0000 C   0  0  0  0  0  0  0  0  0  0  0  0
   -8.8517   19.4982    0.0000 H   0  0  0  0  0  0  0  0  0  0  0  0
   -6.2584   17.9442    0.0000 C   0  0  0  0  0  0  0  0  0  0  0  0
   -5.3877   19.1656    0.0000 H   0  0  0  0  0  0  0  0  0  0  0  0
   -5.2376   15.7060    0.0000 C   0  0  0  0  0  0  0  0  0  0  0  0
   -6.6898   15.3300    0.0000 H   0  0  0  0  0  0  0  0  0  0  0  0
   -5.1195   14.2106    0.0000 H   0  0  0  0  0  0  0  0  0  0  0  0
   -3.2667   15.5167    0.0000 C   0  0  2  0  0  0  0  0  0  0  0  0
   -3.5691   14.0475    0.0000 H   0  0  0  0  0  0  0  0  0  0  0  0
   -1.8383   15.0588    0.0000 C   0  0  1  0  0  0  0  0  0  0  0  0
   -2.4446   13.6868    0.0000 H   0  0  0  0  0  0  0  0  0  0  0  0
    0.7103   13.5931    0.0000 C   0  0  0  0  0  0  0  0  0  0  0  0
    2.1879   13.3351    0.0000 H   0  0  0  0  0  0  0  0  0  0  0  0
    1.2209   15.0035    0.0000 H   0  0  0  0  0  0  0  0  0  0  0  0
    0.7144   11.1331    0.0000 C   0  0  0  0  0  0  0  0  0  0  0  0
   -0.7633   11.3911    0.0000 H   0  0  0  0  0  0  0  0  0  0  0  0
    0.2037    9.7227    0.0000 H   0  0  0  0  0  0  0  0  0  0  0  0
    2.4308   10.1460    0.0000 C   0  0  2  0  0  0  0  0  0  0  0  0
    3.9084    9.8880    0.0000 H   0  0  0  0  0  0  0  0  0  0  0  0
    2.4333    8.6460    0.0000 C   0  0  0  0  0  0  0  0  0  0  0  0
    0.9556    8.9040    0.0000 H   0  0  0  0  0  0  0  0  0  0  0  0
    1.9226    7.2356    0.0000 H   0  0  0  0  0  0  0  0  0  0  0  0
    3.7336    7.8981    0.0000 O   0  0  0  0  0  0  0  0  0  0  0  0
    3.7361    6.3981    0.0000 C   0  0  0  0  0  0  0  0  0  0  0  0
    5.0361    5.6481    0.0000 C   0  0  0  0  0  0  0  0  0  0  0  0
    6.3350    6.3984    0.0000 H   0  0  0  0  0  0  0  0  0  0  0  0
    5.0361    4.1481    0.0000 C   0  0  0  0  0  0  0  0  0  0  0  0
    3.7361    3.3981    0.0000 C   0  0  0  0  0  0  0  0  0  0  0  0
    3.7336    1.8981    0.0000 H   0  0  0  0  0  0  0  0  0  0  0  0
    2.4461    4.1481    0.0000 C   0  0  0  0  0  0  0  0  0  0  0  0
    1.1459    3.4001    0.0000 H   0  0  0  0  0  0  0  0  0  0  0  0
    2.4461    5.6481    0.0000 C   0  0  0  0  0  0  0  0  0  0  0  0
    1.1459    6.3962    0.0000 H   0  0  0  0  0  0  0  0  0  0  0  0
    6.3350    3.3979    0.0000 C   0  0  0  0  0  0  0  0  0  0  0  0
    6.3348    1.8979    0.0000 F   0  0  0  0  0  0  0  0  0  0  0  0
    7.8122    3.1372    0.0000 F   0  0  0  0  0  0  0  0  0  0  0  0
    6.8483    4.8074    0.0000 F   0  0  0  0  0  0  0  0  0  0  0  0
    2.9414   11.5564    0.0000 O   0  0  0  0  0  0  0  0  0  0  0  0
    4.4182   11.8193    0.0000 H   0  0  0  0  0  0  0  0  0  0  0  0
   -0.9542   16.2771    0.0000 C   0  0  1  0  0  0  0  0  0  0  0  0
    0.1646   15.2780    0.0000 H   0  0  0  0  0  0  0  0  0  0  0  0
   -1.8568   17.4906    0.0000 C   0  0  0  0  0  0  0  0  0  0  0  0
   -0.5673   18.2568    0.0000 H   0  0  0  0  0  0  0  0  0  0  0  0
   -2.4859   18.8523    0.0000 H   0  0  0  0  0  0  0  0  0  0  0  0
   -3.2838   17.0029    0.0000 C   0  0  2  0  0  0  0  0  0  0  0  0
   -3.6161   18.4656    0.0000 H   0  0  0  0  0  0  0  0  0  0  0  0
   -4.6618   17.5955    0.0000 O   0  0  0  0  0  0  0  0  0  0  0  0
   -4.9501   20.0386    0.0000 H   0  0  0  0  0  0  0  0  0  0  0  0
    0.1528   17.2893    0.0000 O   0  0  0  0  0  0  0  0  0  0  0  0
    1.5829   16.8367    0.0000 H   0  0  0  0  0  0  0  0  0  0  0  0
  1  2  1  0  0  0  0 
  1  3  1  0  0  0  0 
  1  4  1  0  0  0  0 
  1  5  1  0  0  0  0 
  5  6  1  0  0  0  0 
  5  7  1  0  0  0  0 
  7  8  1  0  0  0  0 
  7  9  1  0  0  0  0 
  7 10  1  0  0  0  0 
  5 11  1  0  0  0  0 
 11 12  1  0  0  0  0 
 12 13  2  0  0  0  0 
 12 14  1  0  0  0  0 
 14 15  1  0  0  0  0 
 14 16  1  0  0  0  0 
 14 17  1  0  0  0  0 
 17 18  1  0  0  0  0 
 17 19  1  0  0  0  0 
 17 20  1  0  0  0  0 
 20 21  1  0  0  0  0 
 20 22  1  0  0  0  0 
 20 23  1  0  0  0  0 
 23 24  1  0  0  0  0 
 23 25  2  0  0  0  0 
 25 26  1  0  0  0  0 
 25 27  1  0  0  0  0 
 27 28  1  0  0  0  0 
 27 29  1  0  0  0  0 
 30 27  1  1  0  0  0 
 30 31  1  6  0  0  0 
 30 32  1  0  0  0  0 
 32 33  1  1  0  0  0 
 32 34  1  6  0  0  0 
 34 35  1  0  0  0  0 
 34 36  1  0  0  0  0 
 34 37  1  0  0  0  0 
 37 38  1  0  0  0  0 
 37 39  1  0  0  0  0 
 37 40  1  0  0  0  0 
 40 41  1  6  0  0  0 
 40 42  1  0  0  0  0 
 42 43  1  0  0  0  0 
 42 44  1  0  0  0  0 
 42 45  1  0  0  0  0 
 45 46  1  0  0  0  0 
 46 47  2  0  0  0  0 
 47 48  1  0  0  0  0 
 47 49  1  0  0  0  0 
 49 50  2  0  0  0  0 
 50 51  1  0  0  0  0 
 50 52  1  0  0  0  0 
 52 53  1  0  0  0  0 
 52 54  2  0  0  0  0 
 46 54  1  0  0  0  0 
 54 55  1  0  0  0  0 
 49 56  1  0  0  0  0 
 56 57  1  0  0  0  0 
 56 58  1  0  0  0  0 
 56 59  1  0  0  0  0 
 40 60  1  1  0  0  0 
 60 61  1  0  0  0  0 
 32 62  1  0  0  0  0 
 62 63  1  6  0  0  0 
 62 64  1  0  0  0  0 
 64 65  1  0  0  0  0 
 64 66  1  0  0  0  0 
 64 67  1  0  0  0  0 
 30 67  1  0  0  0  0 
 67 68  1  6  0  0  0 
 67 69  1  1  0  0  0 
 69 70  1  0  0  0  0 
 62 71  1  1  0  0  0 
 71 72  1  0  0  0  0 
M  END
> <Rank>
23

> <Priority_score>
0.052

> <Reaction_type>
double_bond_reduction

> <Parent_ID>
10

> <Parent_InChI>
InChI=1S/C26H35F3O6/c1-17(2)35-25(33)11-6-4-3-5-10-21-22(24(32)15-23(21)31)13-12-19(30)16-34-20-9-7-8-18(14-20)26(27,28)29/h3,5,7-9,12-14,17,19,21-24,30-32H,4,6,10-11,15-16H2,1-2H3

> <Parent_SMILES>
CC(C)OC(=O)CCC/C=C\C[C@H]1[C@@H](O)C[C@@H](O)[C@@H]1/C=C/[C@@H](O)COc1cccc(C(F)(F)F)c1

$$$$
Molecule 10_metabolite 26
  CDK     0516241031

 14 13  0  0  0  0  0  0  0  0999 V2000
    1.2990   -0.7500    0.0000 C   0  0  0  0  0  0  0  0  0  0  0  0
    0.0000    0.0000    0.0000 H   0  0  0  0  0  0  0  0  0  0  0  0
    0.3349   -1.8991    0.0000 H   0  0  0  0  0  0  0  0  0  0  0  0
    2.2632   -1.8991    0.0000 H   0  0  0  0  0  0  0  0  0  0  0  0
    2.5981   -0.0000    0.0000 C   0  0  0  0  0  0  0  0  0  0  0  0
    3.5623    1.1491    0.0000 H   0  0  0  0  0  0  0  0  0  0  0  0
    1.6339    1.1491    0.0000 C   0  0  0  0  0  0  0  0  0  0  0  0
    0.1567    0.8886    0.0000 H   0  0  0  0  0  0  0  0  0  0  0  0
    1.1209    2.5586    0.0000 H   0  0  0  0  0  0  0  0  0  0  0  0
    2.9329    1.8991    0.0000 H   0  0  0  0  0  0  0  0  0  0  0  0
    3.8971   -0.7500    0.0000 O   0  0  0  0  0  0  0  0  0  0  0  0
    5.1962   -0.0000    0.0000 C   0  0  0  0  0  0  0  0  0  0  0  0
    6.4952   -0.7500    0.0000 H   0  0  0  0  0  0  0  0  0  0  0  0
    5.1962    1.5000    0.0000 O   0  0  0  0  0  0  0  0  0  0  0  0
  1  2  1  0  0  0  0 
  1  3  1  0  0  0  0 
  1  4  1  0  0  0  0 
  1  5  1  0  0  0  0 
  5  6  1  0  0  0  0 
  5  7  1  0  0  0  0 
  7  8  1  0  0  0  0 
  7  9  1  0  0  0  0 
  7 10  1  0  0  0  0 
  5 11  1  0  0  0  0 
 11 12  1  0  0  0  0 
 12 13  1  0  0  0  0 
 12 14  2  0  0  0  0 
M  END
> <Rank>
26

> <Priority_score>
0.04000000000000001

> <Reaction_type>
deformylation

> <Parent_ID>
10

> <Parent_InChI>
InChI=1S/C26H35F3O6/c1-17(2)35-25(33)11-6-4-3-5-10-21-22(24(32)15-23(21)31)13-12-19(30)16-34-20-9-7-8-18(14-20)26(27,28)29/h3,5,7-9,12-14,17,19,21-24,30-32H,4,6,10-11,15-16H2,1-2H3

> <Parent_SMILES>
CC(C)OC(=O)CCC/C=C\C[C@H]1[C@@H](O)C[C@@H](O)[C@@H]1/C=C/[C@@H](O)COc1cccc(C(F)(F)F)c1

$$$$
Molecule 10_metabolite 27
  CDK     0516241031

 56 57  0  0  0  0  0  0  0  0999 V2000
  -23.1359    4.0186    0.0000 C   0  0  0  0  0  0  0  0  0  0  0  0
  -21.6428    3.8752    0.0000 H   0  0  0  0  0  0  0  0  0  0  0  0
  -24.0067    2.7972    0.0000 H   0  0  0  0  0  0  0  0  0  0  0  0
  -23.7583    5.3834    0.0000 C   0  0  0  0  0  0  0  0  0  0  0  0
  -22.8876    6.6048    0.0000 H   0  0  0  0  0  0  0  0  0  0  0  0
  -25.2515    5.5267    0.0000 C   0  0  0  0  0  0  0  0  0  0  0  0
  -26.7036    5.1508    0.0000 H   0  0  0  0  0  0  0  0  0  0  0  0
  -25.1334    4.0314    0.0000 H   0  0  0  0  0  0  0  0  0  0  0  0
  -25.8739    6.8915    0.0000 C   0  0  0  0  0  0  0  0  0  0  0  0
  -27.3670    7.0349    0.0000 H   0  0  0  0  0  0  0  0  0  0  0  0
  -25.0031    8.1129    0.0000 C   0  0  0  0  0  0  0  0  0  0  0  0
  -25.6255    9.4777    0.0000 H   0  0  0  0  0  0  0  0  0  0  0  0
  -23.5100    7.9695    0.0000 C   0  0  0  0  0  0  0  0  0  0  0  0
  -23.9105    6.5240    0.0000 H   0  0  0  0  0  0  0  0  0  0  0  0
  -22.1560    7.3241    0.0000 H   0  0  0  0  0  0  0  0  0  0  0  0
  -22.3607    9.5818    0.0000 C   0  0  2  0  0  0  0  0  0  0  0  0
  -21.2395    8.5853    0.0000 H   0  0  0  0  0  0  0  0  0  0  0  0
  -21.2499   10.5899    0.0000 C   0  0  1  0  0  0  0  0  0  0  0  0
  -20.3648    9.3788    0.0000 H   0  0  0  0  0  0  0  0  0  0  0  0
  -19.5368   11.5827    0.0000 C   0  0  0  0  0  0  0  0  0  0  0  0
  -19.5393   13.0827    0.0000 H   0  0  0  0  0  0  0  0  0  0  0  0
  -18.2365   10.8349    0.0000 C   0  0  0  0  0  0  0  0  0  0  0  0
  -18.2340    9.3349    0.0000 H   0  0  0  0  0  0  0  0  0  0  0  0
  -16.9387   11.5871    0.0000 C   0  0  2  0  0  0  0  0  0  0  0  0
  -15.9765   12.7378    0.0000 H   0  0  0  0  0  0  0  0  0  0  0  0
  -15.6385   10.8393    0.0000 C   0  0  0  0  0  0  0  0  0  0  0  0
  -16.6007    9.6886    0.0000 H   0  0  0  0  0  0  0  0  0  0  0  0
  -14.6724    9.6918    0.0000 H   0  0  0  0  0  0  0  0  0  0  0  0
  -14.3407   11.5914    0.0000 O   0  0  0  0  0  0  0  0  0  0  0  0
  -13.0404   10.8436    0.0000 C   0  0  0  0  0  0  0  0  0  0  0  0
  -11.7409   11.5944    0.0000 C   0  0  0  0  0  0  0  0  0  0  0  0
  -11.7411   13.0944    0.0000 H   0  0  0  0  0  0  0  0  0  0  0  0
  -10.4418   10.8444    0.0000 C   0  0  0  0  0  0  0  0  0  0  0  0
  -10.4423    9.3436    0.0000 C   0  0  0  0  0  0  0  0  0  0  0  0
   -9.1445    8.5914    0.0000 H   0  0  0  0  0  0  0  0  0  0  0  0
  -11.7368    8.6014    0.0000 C   0  0  0  0  0  0  0  0  0  0  0  0
  -11.7391    7.1014    0.0000 H   0  0  0  0  0  0  0  0  0  0  0  0
  -13.0359    9.3514    0.0000 C   0  0  0  0  0  0  0  0  0  0  0  0
  -14.3338    8.5995    0.0000 H   0  0  0  0  0  0  0  0  0  0  0  0
   -9.1427   11.5942    0.0000 C   0  0  0  0  0  0  0  0  0  0  0  0
   -7.8438   10.8440    0.0000 F   0  0  0  0  0  0  0  0  0  0  0  0
   -8.1783   12.7432    0.0000 F   0  0  0  0  0  0  0  0  0  0  0  0
  -10.1067   12.7435    0.0000 F   0  0  0  0  0  0  0  0  0  0  0  0
  -17.9049   12.7345    0.0000 O   0  0  0  0  0  0  0  0  0  0  0  0
  -17.3942   14.1449    0.0000 H   0  0  0  0  0  0  0  0  0  0  0  0
  -21.8629   11.9647    0.0000 C   0  0  1  0  0  0  0  0  0  0  0  0
  -20.4382   12.4340    0.0000 H   0  0  0  0  0  0  0  0  0  0  0  0
  -23.3651   11.7897    0.0000 C   0  0  0  0  0  0  0  0  0  0  0  0
  -23.3839   13.2896    0.0000 H   0  0  0  0  0  0  0  0  0  0  0  0
  -24.8589   11.9258    0.0000 H   0  0  0  0  0  0  0  0  0  0  0  0
  -23.6563   10.3100    0.0000 C   0  0  2  0  0  0  0  0  0  0  0  0
  -25.0892   10.7536    0.0000 H   0  0  0  0  0  0  0  0  0  0  0  0
  -24.2489    8.9321    0.0000 O   0  0  0  0  0  0  0  0  0  0  0  0
  -26.2153    8.7001    0.0000 H   0  0  0  0  0  0  0  0  0  0  0  0
  -22.1860   13.4294    0.0000 O   0  0  0  0  0  0  0  0  0  0  0  0
  -21.0790   14.4417    0.0000 H   0  0  0  0  0  0  0  0  0  0  0  0
  1  2  1  0  0  0  0 
  1  3  1  0  0  0  0 
  1  4  2  0  0  0  0 
  4  5  1  0  0  0  0 
  4  6  1  0  0  0  0 
  6  7  1  0  0  0  0 
  6  8  1  0  0  0  0 
  6  9  1  0  0  0  0 
  9 10  1  0  0  0  0 
  9 11  2  0  0  0  0 
 11 12  1  0  0  0  0 
 11 13  1  0  0  0  0 
 13 14  1  0  0  0  0 
 13 15  1  0  0  0  0 
 16 13  1  1  0  0  0 
 16 17  1  6  0  0  0 
 16 18  1  0  0  0  0 
 18 19  1  1  0  0  0 
 18 20  1  6  0  0  0 
 20 21  1  0  0  0  0 
 20 22  2  0  0  0  0 
 22 23  1  0  0  0  0 
 22 24  1  0  0  0  0 
 24 25  1  6  0  0  0 
 24 26  1  0  0  0  0 
 26 27  1  0  0  0  0 
 26 28  1  0  0  0  0 
 26 29  1  0  0  0  0 
 29 30  1  0  0  0  0 
 30 31  2  0  0  0  0 
 31 32  1  0  0  0  0 
 31 33  1  0  0  0  0 
 33 34  2  0  0  0  0 
 34 35  1  0  0  0  0 
 34 36  1  0  0  0  0 
 36 37  1  0  0  0  0 
 36 38  2  0  0  0  0 
 30 38  1  0  0  0  0 
 38 39  1  0  0  0  0 
 33 40  1  0  0  0  0 
 40 41  1  0  0  0  0 
 40 42  1  0  0  0  0 
 40 43  1  0  0  0  0 
 24 44  1  1  0  0  0 
 44 45  1  0  0  0  0 
 18 46  1  0  0  0  0 
 46 47  1  6  0  0  0 
 46 48  1  0  0  0  0 
 48 49  1  0  0  0  0 
 48 50  1  0  0  0  0 
 48 51  1  0  0  0  0 
 16 51  1  0  0  0  0 
 51 52  1  6  0  0  0 
 51 53  1  1  0  0  0 
 53 54  1  0  0  0  0 
 46 55  1  1  0  0  0 
 55 56  1  0  0  0  0 
M  END
> <Rank>
26

> <Priority_score>
0.04000000000000001

> <Reaction_type>
deformylation

> <Parent_ID>
10

> <Parent_InChI>
InChI=1S/C26H35F3O6/c1-17(2)35-25(33)11-6-4-3-5-10-21-22(24(32)15-23(21)31)13-12-19(30)16-34-20-9-7-8-18(14-20)26(27,28)29/h3,5,7-9,12-14,17,19,21-24,30-32H,4,6,10-11,15-16H2,1-2H3

> <Parent_SMILES>
CC(C)OC(=O)CCC/C=C\C[C@H]1[C@@H](O)C[C@@H](O)[C@@H]1/C=C/[C@@H](O)COc1cccc(C(F)(F)F)c1

$$$$
Molecule 10_metabolite 28
  CDK     0516241031

 71 72  0  0  0  0  0  0  0  0999 V2000
    7.1160   23.7858    0.0000 C   0  0  0  0  0  0  0  0  0  0  0  0
    8.6091   23.6425    0.0000 H   0  0  0  0  0  0  0  0  0  0  0  0
    5.6639   23.4099    0.0000 H   0  0  0  0  0  0  0  0  0  0  0  0
    7.2341   22.2905    0.0000 H   0  0  0  0  0  0  0  0  0  0  0  0
    6.4936   25.1506    0.0000 C   0  0  0  0  0  0  0  0  0  0  0  0
    7.9457   25.5266    0.0000 H   0  0  0  0  0  0  0  0  0  0  0  0
    6.3755   26.6460    0.0000 C   0  0  0  0  0  0  0  0  0  0  0  0
    7.6115   27.4959    0.0000 H   0  0  0  0  0  0  0  0  0  0  0  0
    5.7531   28.0107    0.0000 H   0  0  0  0  0  0  0  0  0  0  0  0
    4.9234   26.2700    0.0000 H   0  0  0  0  0  0  0  0  0  0  0  0
    5.0005   25.2940    0.0000 O   0  0  0  0  0  0  0  0  0  0  0  0
    4.1297   24.0726    0.0000 C   0  0  0  0  0  0  0  0  0  0  0  0
    4.7521   22.7078    0.0000 O   0  0  0  0  0  0  0  0  0  0  0  0
    2.6366   24.2160    0.0000 C   0  0  0  0  0  0  0  0  0  0  0  0
    1.2826   24.8614    0.0000 H   0  0  0  0  0  0  0  0  0  0  0  0
    3.0371   25.6615    0.0000 H   0  0  0  0  0  0  0  0  0  0  0  0
    1.7659   22.9945    0.0000 C   0  0  0  0  0  0  0  0  0  0  0  0
    3.1199   22.3491    0.0000 H   0  0  0  0  0  0  0  0  0  0  0  0
    1.3654   21.5490    0.0000 H   0  0  0  0  0  0  0  0  0  0  0  0
    0.2727   23.1379    0.0000 C   0  0  0  0  0  0  0  0  0  0  0  0
   -1.1794   22.7620    0.0000 H   0  0  0  0  0  0  0  0  0  0  0  0
   -0.3497   24.5027    0.0000 C   0  0  0  0  0  0  0  0  0  0  0  0
    0.5211   25.7241    0.0000 H   0  0  0  0  0  0  0  0  0  0  0  0
   -2.3206   24.6919    0.0000 C   0  0  0  0  0  0  0  0  0  0  0  0
   -2.9430   26.0567    0.0000 H   0  0  0  0  0  0  0  0  0  0  0  0
   -3.4700   23.0797    0.0000 C   0  0  0  0  0  0  0  0  0  0  0  0
   -2.1159   22.4343    0.0000 H   0  0  0  0  0  0  0  0  0  0  0  0
   -3.8704   21.6341    0.0000 H   0  0  0  0  0  0  0  0  0  0  0  0
   -5.9187   23.3148    0.0000 C   0  0  2  0  0  0  0  0  0  0  0  0
   -5.9014   21.8149    0.0000 H   0  0  0  0  0  0  0  0  0  0  0  0
   -7.4081   23.1371    0.0000 C   0  0  1  0  0  0  0  0  0  0  0  0
   -7.0740   21.6747    0.0000 H   0  0  0  0  0  0  0  0  0  0  0  0
   -9.2810   22.4946    0.0000 C   0  0  0  0  0  0  0  0  0  0  0  0
  -10.4119   23.4799    0.0000 H   0  0  0  0  0  0  0  0  0  0  0  0
   -9.5689   21.0224    0.0000 C   0  0  0  0  0  0  0  0  0  0  0  0
   -8.4379   20.0371    0.0000 H   0  0  0  0  0  0  0  0  0  0  0  0
  -10.9877   20.5357    0.0000 C   0  0  2  0  0  0  0  0  0  0  0  0
  -12.4874   20.5636    0.0000 H   0  0  0  0  0  0  0  0  0  0  0  0
  -11.2756   19.0636    0.0000 C   0  0  0  0  0  0  0  0  0  0  0  0
   -9.7759   19.0357    0.0000 H   0  0  0  0  0  0  0  0  0  0  0  0
  -11.0426   17.5818    0.0000 H   0  0  0  0  0  0  0  0  0  0  0  0
  -12.6944   18.5769    0.0000 O   0  0  0  0  0  0  0  0  0  0  0  0
  -12.9823   17.1047    0.0000 C   0  0  0  0  0  0  0  0  0  0  0  0
  -14.4013   16.6158    0.0000 C   0  0  0  0  0  0  0  0  0  0  0  0
  -15.5337   17.5995    0.0000 H   0  0  0  0  0  0  0  0  0  0  0  0
  -14.6867   15.1432    0.0000 C   0  0  0  0  0  0  0  0  0  0  0  0
  -13.5532   14.1595    0.0000 C   0  0  0  0  0  0  0  0  0  0  0  0
  -13.8361   12.6865    0.0000 H   0  0  0  0  0  0  0  0  0  0  0  0
  -12.1440   14.6504    0.0000 C   0  0  0  0  0  0  0  0  0  0  0  0
  -11.0099   13.6686    0.0000 H   0  0  0  0  0  0  0  0  0  0  0  0
  -11.8586   16.1230    0.0000 C   0  0  0  0  0  0  0  0  0  0  0  0
  -10.4398   16.6099    0.0000 H   0  0  0  0  0  0  0  0  0  0  0  0
  -16.1046   14.6539    0.0000 C   0  0  0  0  0  0  0  0  0  0  0  0
  -16.3898   13.1812    0.0000 F   0  0  0  0  0  0  0  0  0  0  0  0
  -17.6044   14.6790    0.0000 F   0  0  0  0  0  0  0  0  0  0  0  0
  -16.3403   16.1352    0.0000 F   0  0  0  0  0  0  0  0  0  0  0  0
  -11.2207   22.0175    0.0000 O   0  0  0  0  0  0  0  0  0  0  0  0
  -12.6204   22.5566    0.0000 H   0  0  0  0  0  0  0  0  0  0  0  0
   -8.0443   24.5013    0.0000 C   0  0  1  0  0  0  0  0  0  0  0  0
   -9.3328   23.7333    0.0000 H   0  0  0  0  0  0  0  0  0  0  0  0
   -6.9272   25.5208    0.0000 C   0  0  0  0  0  0  0  0  0  0  0  0
   -8.0474   26.5184    0.0000 H   0  0  0  0  0  0  0  0  0  0  0  0
   -6.0506   26.7380    0.0000 H   0  0  0  0  0  0  0  0  0  0  0  0
   -5.6191   24.7706    0.0000 C   0  0  2  0  0  0  0  0  0  0  0  0
   -5.0145   26.1433    0.0000 H   0  0  0  0  0  0  0  0  0  0  0  0
   -4.1901   24.3145    0.0000 O   0  0  0  0  0  0  0  0  0  0  0  0
   -2.0156   26.2933    0.0000 H   0  0  0  0  0  0  0  0  0  0  0  0
   -8.9384   25.7056    0.0000 O   0  0  0  0  0  0  0  0  0  0  0  0
  -10.4285   25.5335    0.0000 H   0  0  0  0  0  0  0  0  0  0  0  0
    0.3908   21.6426    0.0000 O   0  0  0  0  0  0  0  0  0  0  0  0
   -0.8451   20.7926    0.0000 H   0  0  0  0  0  0  0  0  0  0  0  0
  1  2  1  0  0  0  0 
  1  3  1  0  0  0  0 
  1  4  1  0  0  0  0 
  1  5  1  0  0  0  0 
  5  6  1  0  0  0  0 
  5  7  1  0  0  0  0 
  7  8  1  0  0  0  0 
  7  9  1  0  0  0  0 
  7 10  1  0  0  0  0 
  5 11  1  0  0  0  0 
 11 12  1  0  0  0  0 
 12 13  2  0  0  0  0 
 12 14  1  0  0  0  0 
 14 15  1  0  0  0  0 
 14 16  1  0  0  0  0 
 14 17  1  0  0  0  0 
 17 18  1  0  0  0  0 
 17 19  1  0  0  0  0 
 17 20  1  0  0  0  0 
 20 21  1  0  0  0  0 
 20 22  1  0  0  0  0 
 22 23  1  0  0  0  0 
 22 24  2  0  0  0  0 
 24 25  1  0  0  0  0 
 24 26  1  0  0  0  0 
 26 27  1  0  0  0  0 
 26 28  1  0  0  0  0 
 29 26  1  6  0  0  0 
 29 30  1  1  0  0  0 
 29 31  1  0  0  0  0 
 31 32  1  6  0  0  0 
 31 33  1  1  0  0  0 
 33 34  1  0  0  0  0 
 33 35  2  0  0  0  0 
 35 36  1  0  0  0  0 
 35 37  1  0  0  0  0 
 37 38  1  1  0  0  0 
 37 39  1  0  0  0  0 
 39 40  1  0  0  0  0 
 39 41  1  0  0  0  0 
 39 42  1  0  0  0  0 
 42 43  1  0  0  0  0 
 43 44  2  0  0  0  0 
 44 45  1  0  0  0  0 
 44 46  1  0  0  0  0 
 46 47  2  0  0  0  0 
 47 48  1  0  0  0  0 
 47 49  1  0  0  0  0 
 49 50  1  0  0  0  0 
 49 51  2  0  0  0  0 
 43 51  1  0  0  0  0 
 51 52  1  0  0  0  0 
 46 53  1  0  0  0  0 
 53 54  1  0  0  0  0 
 53 55  1  0  0  0  0 
 53 56  1  0  0  0  0 
 37 57  1  6  0  0  0 
 57 58  1  0  0  0  0 
 31 59  1  0  0  0  0 
 59 60  1  1  0  0  0 
 59 61  1  0  0  0  0 
 61 62  1  0  0  0  0 
 61 63  1  0  0  0  0 
 61 64  1  0  0  0  0 
 29 64  1  0  0  0  0 
 64 65  1  1  0  0  0 
 64 66  1  6  0  0  0 
 66 67  1  0  0  0  0 
 59 68  1  6  0  0  0 
 68 69  1  0  0  0  0 
 20 70  1  0  0  0  0 
 70 71  1  0  0  0  0 
M  END
> <Rank>
28

> <Priority_score>
0.036

> <Reaction_type>
aliphatic_hydroxylation_(sec_carbon_next_to_SP2,not_in_a_ring)

> <Parent_ID>
10

> <Parent_InChI>
InChI=1S/C26H35F3O6/c1-17(2)35-25(33)11-6-4-3-5-10-21-22(24(32)15-23(21)31)13-12-19(30)16-34-20-9-7-8-18(14-20)26(27,28)29/h3,5,7-9,12-14,17,19,21-24,30-32H,4,6,10-11,15-16H2,1-2H3

> <Parent_SMILES>
CC(C)OC(=O)CCC/C=C\C[C@H]1[C@@H](O)C[C@@H](O)[C@@H]1/C=C/[C@@H](O)COc1cccc(C(F)(F)F)c1

$$$$
Molecule 10_metabolite 29
  CDK     0516241031

 71 73  0  0  0  0  0  0  0  0999 V2000
   -9.9361    2.4102    0.0000 C   0  0  0  0  0  0  0  0  0  0  0  0
  -11.2354    3.1597    0.0000 H   0  0  0  0  0  0  0  0  0  0  0  0
   -8.9716    1.2614    0.0000 H   0  0  0  0  0  0  0  0  0  0  0  0
  -10.8999    1.2608    0.0000 H   0  0  0  0  0  0  0  0  0  0  0  0
   -8.6373    3.1606    0.0000 C   0  0  0  0  0  0  0  0  0  0  0  0
   -9.6019    4.3093    0.0000 H   0  0  0  0  0  0  0  0  0  0  0  0
   -7.6735    4.3099    0.0000 C   0  0  0  0  0  0  0  0  0  0  0  0
   -8.1870    5.7193    0.0000 H   0  0  0  0  0  0  0  0  0  0  0  0
   -6.3747    5.0604    0.0000 H   0  0  0  0  0  0  0  0  0  0  0  0
   -6.7090    3.1612    0.0000 H   0  0  0  0  0  0  0  0  0  0  0  0
   -7.3380    2.4110    0.0000 O   0  0  0  0  0  0  0  0  0  0  0  0
   -7.3376    0.9110    0.0000 C   0  0  0  0  0  0  0  0  0  0  0  0
   -8.6364    0.1606    0.0000 O   0  0  0  0  0  0  0  0  0  0  0  0
   -6.0383    0.1614    0.0000 C   0  0  0  0  0  0  0  0  0  0  0  0
   -4.5610   -0.0986    0.0000 H   0  0  0  0  0  0  0  0  0  0  0  0
   -5.5257    1.5711    0.0000 H   0  0  0  0  0  0  0  0  0  0  0  0
   -6.0378   -1.3386    0.0000 C   0  0  0  0  0  0  0  0  0  0  0  0
   -7.5151   -1.0786    0.0000 H   0  0  0  0  0  0  0  0  0  0  0  0
   -6.5504   -2.7483    0.0000 H   0  0  0  0  0  0  0  0  0  0  0  0
   -4.3228   -2.3280    0.0000 C   0  0  0  0  0  0  0  0  0  0  0  0
   -2.8455   -2.5880    0.0000 H   0  0  0  0  0  0  0  0  0  0  0  0
   -3.8102   -0.9183    0.0000 H   0  0  0  0  0  0  0  0  0  0  0  0
   -4.3221   -4.3080    0.0000 C   0  0  0  0  0  0  0  0  0  0  0  0
   -5.7993   -4.5688    0.0000 H   0  0  0  0  0  0  0  0  0  0  0  0
   -2.8448   -4.5679    0.0000 C   0  0  0  0  0  0  0  0  0  0  0  0
   -1.5453   -5.3171    0.0000 H   0  0  0  0  0  0  0  0  0  0  0  0
   -2.3325   -3.1581    0.0000 C   0  0  0  0  0  0  0  0  0  0  0  0
   -2.3333   -1.6581    0.0000 H   0  0  0  0  0  0  0  0  0  0  0  0
   -3.8099   -2.8984    0.0000 H   0  0  0  0  0  0  0  0  0  0  0  0
    0.5625   -2.6460    0.0000 C   0  0  2  0  0  0  0  0  0  0  0  0
    0.1447   -1.2054    0.0000 H   0  0  0  0  0  0  0  0  0  0  0  0
    1.9501   -2.0763    0.0000 C   0  0  1  0  0  0  0  0  0  0  0  0
    1.2370   -0.7567    0.0000 H   0  0  0  0  0  0  0  0  0  0  0  0
    3.5829   -0.9563    0.0000 C   0  0  0  0  0  0  0  0  0  0  0  0
    4.9362   -1.6032    0.0000 H   0  0  0  0  0  0  0  0  0  0  0  0
    3.4665    0.5392    0.0000 C   0  0  0  0  0  0  0  0  0  0  0  0
    2.1132    1.1862    0.0000 H   0  0  0  0  0  0  0  0  0  0  0  0
    4.7034    1.3877    0.0000 C   0  0  2  0  0  0  0  0  0  0  0  0
    6.1560    1.7621    0.0000 H   0  0  0  0  0  0  0  0  0  0  0  0
    4.5871    2.8832    0.0000 C   0  0  0  0  0  0  0  0  0  0  0  0
    3.1345    2.5089    0.0000 H   0  0  0  0  0  0  0  0  0  0  0  0
    3.9662    4.2487    0.0000 H   0  0  0  0  0  0  0  0  0  0  0  0
    5.8240    3.7318    0.0000 O   0  0  0  0  0  0  0  0  0  0  0  0
    5.7076    5.2272    0.0000 C   0  0  0  0  0  0  0  0  0  0  0  0
    6.9441    6.0779    0.0000 C   0  0  0  0  0  0  0  0  0  0  0  0
    8.2984    5.4330    0.0000 H   0  0  0  0  0  0  0  0  0  0  0  0
    6.8252    7.5732    0.0000 C   0  0  0  0  0  0  0  0  0  0  0  0
    5.4698    8.2178    0.0000 C   0  0  0  0  0  0  0  0  0  0  0  0
    5.3484    9.7129    0.0000 H   0  0  0  0  0  0  0  0  0  0  0  0
    4.2433    7.3679    0.0000 C   0  0  0  0  0  0  0  0  0  0  0  0
    2.8880    8.0105    0.0000 H   0  0  0  0  0  0  0  0  0  0  0  0
    4.3622    5.8726    0.0000 C   0  0  0  0  0  0  0  0  0  0  0  0
    3.1254    5.0239    0.0000 H   0  0  0  0  0  0  0  0  0  0  0  0
    8.0605    8.4240    0.0000 C   0  0  0  0  0  0  0  0  0  0  0  0
    7.9414    9.9193    0.0000 F   0  0  0  0  0  0  0  0  0  0  0  0
    9.5124    8.8010    0.0000 F   0  0  0  0  0  0  0  0  0  0  0  0
    8.6839    7.0597    0.0000 F   0  0  0  0  0  0  0  0  0  0  0  0
    5.3243    0.0223    0.0000 O   0  0  0  0  0  0  0  0  0  0  0  0
    6.8173   -0.1228    0.0000 H   0  0  0  0  0  0  0  0  0  0  0  0
    2.9280   -3.2207    0.0000 C   0  0  1  0  0  0  0  0  0  0  0  0
    3.9641   -2.1360    0.0000 H   0  0  0  0  0  0  0  0  0  0  0  0
    2.1244   -4.5019    0.0000 C   0  0  0  0  0  0  0  0  0  0  0  0
    3.4706   -5.1635    0.0000 H   0  0  0  0  0  0  0  0  0  0  0  0
    1.6053   -5.9092    0.0000 H   0  0  0  0  0  0  0  0  0  0  0  0
    0.6633   -4.1289    0.0000 C   0  0  2  0  0  0  0  0  0  0  0  0
    0.4480   -5.6133    0.0000 H   0  0  0  0  0  0  0  0  0  0  0  0
   -0.8357   -4.0717    0.0000 O   0  0  0  0  0  0  0  0  0  0  0  0
   -2.4016   -6.5600    0.0000 H   0  0  0  0  0  0  0  0  0  0  0  0
    4.1118   -4.1420    0.0000 O   0  0  0  0  0  0  0  0  0  0  0  0
    5.5015   -3.5775    0.0000 H   0  0  0  0  0  0  0  0  0  0  0  0
   -3.8087   -5.7183    0.0000 O   0  0  0  0  0  0  0  0  0  0  0  0
  1  2  1  0  0  0  0 
  1  3  1  0  0  0  0 
  1  4  1  0  0  0  0 
  1  5  1  0  0  0  0 
  5  6  1  0  0  0  0 
  5  7  1  0  0  0  0 
  7  8  1  0  0  0  0 
  7  9  1  0  0  0  0 
  7 10  1  0  0  0  0 
  5 11  1  0  0  0  0 
 11 12  1  0  0  0  0 
 12 13  2  0  0  0  0 
 12 14  1  0  0  0  0 
 14 15  1  0  0  0  0 
 14 16  1  0  0  0  0 
 14 17  1  0  0  0  0 
 17 18  1  0  0  0  0 
 17 19  1  0  0  0  0 
 17 20  1  0  0  0  0 
 20 21  1  0  0  0  0 
 20 22  1  0  0  0  0 
 20 23  1  0  0  0  0 
 23 24  1  0  0  0  0 
 23 25  1  0  0  0  0 
 25 26  1  0  0  0  0 
 25 27  1  0  0  0  0 
 27 28  1  0  0  0  0 
 27 29  1  0  0  0  0 
 30 27  1  6  0  0  0 
 30 31  1  1  0  0  0 
 30 32  1  0  0  0  0 
 32 33  1  6  0  0  0 
 32 34  1  1  0  0  0 
 34 35  1  0  0  0  0 
 34 36  2  0  0  0  0 
 36 37  1  0  0  0  0 
 36 38  1  0  0  0  0 
 38 39  1  1  0  0  0 
 38 40  1  0  0  0  0 
 40 41  1  0  0  0  0 
 40 42  1  0  0  0  0 
 40 43  1  0  0  0  0 
 43 44  1  0  0  0  0 
 44 45  2  0  0  0  0 
 45 46  1  0  0  0  0 
 45 47  1  0  0  0  0 
 47 48  2  0  0  0  0 
 48 49  1  0  0  0  0 
 48 50  1  0  0  0  0 
 50 51  1  0  0  0  0 
 50 52  2  0  0  0  0 
 44 52  1  0  0  0  0 
 52 53  1  0  0  0  0 
 47 54  1  0  0  0  0 
 54 55  1  0  0  0  0 
 54 56  1  0  0  0  0 
 54 57  1  0  0  0  0 
 38 58  1  6  0  0  0 
 58 59  1  0  0  0  0 
 32 60  1  0  0  0  0 
 60 61  1  1  0  0  0 
 60 62  1  0  0  0  0 
 62 63  1  0  0  0  0 
 62 64  1  0  0  0  0 
 62 65  1  0  0  0  0 
 30 65  1  0  0  0  0 
 65 66  1  1  0  0  0 
 65 67  1  6  0  0  0 
 67 68  1  0  0  0  0 
 60 69  1  6  0  0  0 
 69 70  1  0  0  0  0 
 25 71  1  0  0  0  0 
 23 71  1  0  0  0  0 
M  END
> <Rank>
28

> <Priority_score>
0.036

> <Reaction_type>
epoxidation

> <Parent_ID>
10

> <Parent_InChI>
InChI=1S/C26H35F3O6/c1-17(2)35-25(33)11-6-4-3-5-10-21-22(24(32)15-23(21)31)13-12-19(30)16-34-20-9-7-8-18(14-20)26(27,28)29/h3,5,7-9,12-14,17,19,21-24,30-32H,4,6,10-11,15-16H2,1-2H3

> <Parent_SMILES>
CC(C)OC(=O)CCC/C=C\C[C@H]1[C@@H](O)C[C@@H](O)[C@@H]1/C=C/[C@@H](O)COc1cccc(C(F)(F)F)c1

$$$$
Molecule 10_metabolite 30
  CDK     0516241031

 15 15  0  0  0  0  0  0  0  0999 V2000
    1.9839   -1.4834    0.0000 C   0  0  0  0  0  0  0  0  0  0  0  0
    3.2830   -2.2332    0.0000 H   0  0  0  0  0  0  0  0  0  0  0  0
    0.6848   -2.2334    0.0000 C   0  0  0  0  0  0  0  0  0  0  0  0
    0.6846   -3.7334    0.0000 H   0  0  0  0  0  0  0  0  0  0  0  0
   -0.6147   -1.4826    0.0000 C   0  0  0  0  0  0  0  0  0  0  0  0
   -1.9137   -2.2326    0.0000 O   0  0  0  0  0  0  0  0  0  0  0  0
   -0.6152    0.0183    0.0000 C   0  0  0  0  0  0  0  0  0  0  0  0
    0.6839    0.7683    0.0000 C   0  0  0  0  0  0  0  0  0  0  0  0
    0.6841    2.2683    0.0000 H   0  0  0  0  0  0  0  0  0  0  0  0
    1.9834    0.0174    0.0000 C   0  0  0  0  0  0  0  0  0  0  0  0
    3.2824    0.7674    0.0000 O   0  0  0  0  0  0  0  0  0  0  0  0
   -1.9143    0.7681    0.0000 C   0  0  0  0  0  0  0  0  0  0  0  0
   -1.9145    2.2681    0.0000 F   0  0  0  0  0  0  0  0  0  0  0  0
   -3.3916    1.0283    0.0000 F   0  0  0  0  0  0  0  0  0  0  0  0
   -2.4271   -0.6415    0.0000 F   0  0  0  0  0  0  0  0  0  0  0  0
  1  2  1  0  0  0  0 
  1  3  2  0  0  0  0 
  3  4  1  0  0  0  0 
  3  5  1  0  0  0  0 
  5  6  2  0  0  0  0 
  5  7  1  0  0  0  0 
  7  8  2  0  0  0  0 
  8  9  1  0  0  0  0 
  8 10  1  0  0  0  0 
  1 10  1  0  0  0  0 
 10 11  2  0  0  0  0 
  7 12  1  0  0  0  0 
 12 13  1  0  0  0  0 
 12 14  1  0  0  0  0 
 12 15  1  0  0  0  0 
M  END
> <Rank>
30

> <Priority_score>
0.027200000000000002

> <Reaction_type>
oxidation of 4-substituted anisole to quinone

> <Parent_ID>
10

> <Parent_InChI>
InChI=1S/C26H35F3O6/c1-17(2)35-25(33)11-6-4-3-5-10-21-22(24(32)15-23(21)31)13-12-19(30)16-34-20-9-7-8-18(14-20)26(27,28)29/h3,5,7-9,12-14,17,19,21-24,30-32H,4,6,10-11,15-16H2,1-2H3

> <Parent_SMILES>
CC(C)OC(=O)CCC/C=C\C[C@H]1[C@@H](O)C[C@@H](O)[C@@H]1/C=C/[C@@H](O)COc1cccc(C(F)(F)F)c1

$$$$
Molecule 10_metabolite 31
  CDK     0516241031

 68 69  0  0  0  0  0  0  0  0999 V2000
  -10.4505   11.5042    0.0000 C   0  0  0  0  0  0  0  0  0  0  0  0
   -9.8281   10.1394    0.0000 H   0  0  0  0  0  0  0  0  0  0  0  0
  -10.5686   12.9995    0.0000 H   0  0  0  0  0  0  0  0  0  0  0  0
   -8.9984   11.8801    0.0000 H   0  0  0  0  0  0  0  0  0  0  0  0
  -11.9437   11.6476    0.0000 C   0  0  0  0  0  0  0  0  0  0  0  0
  -11.8256   10.1522    0.0000 H   0  0  0  0  0  0  0  0  0  0  0  0
  -13.3958   11.2716    0.0000 C   0  0  0  0  0  0  0  0  0  0  0  0
  -13.7963    9.8260    0.0000 H   0  0  0  0  0  0  0  0  0  0  0  0
  -14.8889   11.4150    0.0000 H   0  0  0  0  0  0  0  0  0  0  0  0
  -13.5139   12.7669    0.0000 H   0  0  0  0  0  0  0  0  0  0  0  0
  -12.5661   13.0123    0.0000 O   0  0  0  0  0  0  0  0  0  0  0  0
  -11.6954   14.2337    0.0000 C   0  0  0  0  0  0  0  0  0  0  0  0
  -10.2022   14.0904    0.0000 O   0  0  0  0  0  0  0  0  0  0  0  0
  -12.3178   15.5985    0.0000 C   0  0  0  0  0  0  0  0  0  0  0  0
  -13.3694   16.6681    0.0000 H   0  0  0  0  0  0  0  0  0  0  0  0
  -13.5537   14.7486    0.0000 H   0  0  0  0  0  0  0  0  0  0  0  0
  -11.4470   16.8199    0.0000 C   0  0  0  0  0  0  0  0  0  0  0  0
  -12.8011   17.4653    0.0000 H   0  0  0  0  0  0  0  0  0  0  0  0
  -11.0466   18.2655    0.0000 H   0  0  0  0  0  0  0  0  0  0  0  0
   -9.9539   16.6766    0.0000 C   0  0  0  0  0  0  0  0  0  0  0  0
   -8.5999   16.0311    0.0000 H   0  0  0  0  0  0  0  0  0  0  0  0
  -10.3544   15.2310    0.0000 H   0  0  0  0  0  0  0  0  0  0  0  0
   -9.0832   17.8980    0.0000 C   0  0  0  0  0  0  0  0  0  0  0  0
   -9.7056   19.2627    0.0000 H   0  0  0  0  0  0  0  0  0  0  0  0
   -7.1122   17.7087    0.0000 C   0  0  0  0  0  0  0  0  0  0  0  0
   -6.2415   18.9301    0.0000 H   0  0  0  0  0  0  0  0  0  0  0  0
   -6.0915   15.4705    0.0000 C   0  0  0  0  0  0  0  0  0  0  0  0
   -7.5436   15.0945    0.0000 H   0  0  0  0  0  0  0  0  0  0  0  0
   -5.9734   13.9751    0.0000 H   0  0  0  0  0  0  0  0  0  0  0  0
   -4.1206   15.2812    0.0000 C   0  0  2  0  0  0  0  0  0  0  0  0
   -4.4229   13.8120    0.0000 H   0  0  0  0  0  0  0  0  0  0  0  0
   -2.6922   14.8233    0.0000 C   0  0  1  0  0  0  0  0  0  0  0  0
   -3.2984   13.4513    0.0000 H   0  0  0  0  0  0  0  0  0  0  0  0
   -0.9758   13.8362    0.0000 C   0  0  0  0  0  0  0  0  0  0  0  0
    0.3220   14.5884    0.0000 H   0  0  0  0  0  0  0  0  0  0  0  0
   -0.9733   12.3362    0.0000 C   0  0  0  0  0  0  0  0  0  0  0  0
   -2.2710   11.5840    0.0000 H   0  0  0  0  0  0  0  0  0  0  0  0
    0.3270   11.5884    0.0000 C   0  0  0  0  0  0  0  0  0  0  0  0
    0.3295   10.0884    0.0000 C   0  0  0  0  0  0  0  0  0  0  0  0
   -0.9682    9.3362    0.0000 H   0  0  0  0  0  0  0  0  0  0  0  0
    1.6298    9.3406    0.0000 O   0  0  0  0  0  0  0  0  0  0  0  0
    1.6323    7.8406    0.0000 C   0  0  0  0  0  0  0  0  0  0  0  0
    2.9323    7.0906    0.0000 C   0  0  0  0  0  0  0  0  0  0  0  0
    4.2313    7.8408    0.0000 H   0  0  0  0  0  0  0  0  0  0  0  0
    2.9323    5.5906    0.0000 C   0  0  0  0  0  0  0  0  0  0  0  0
    1.6323    4.8406    0.0000 C   0  0  0  0  0  0  0  0  0  0  0  0
    1.6298    3.3406    0.0000 H   0  0  0  0  0  0  0  0  0  0  0  0
    0.3423    5.5906    0.0000 C   0  0  0  0  0  0  0  0  0  0  0  0
   -0.9578    4.8425    0.0000 H   0  0  0  0  0  0  0  0  0  0  0  0
    0.3423    7.0906    0.0000 C   0  0  0  0  0  0  0  0  0  0  0  0
   -0.9578    7.8386    0.0000 H   0  0  0  0  0  0  0  0  0  0  0  0
    4.2313    4.8404    0.0000 C   0  0  0  0  0  0  0  0  0  0  0  0
    4.2310    3.3404    0.0000 F   0  0  0  0  0  0  0  0  0  0  0  0
    5.7084    4.5796    0.0000 F   0  0  0  0  0  0  0  0  0  0  0  0
    4.7445    6.2498    0.0000 F   0  0  0  0  0  0  0  0  0  0  0  0
    1.6248   12.3406    0.0000 O   0  0  0  0  0  0  0  0  0  0  0  0
    2.9251   11.5927    0.0000 H   0  0  0  0  0  0  0  0  0  0  0  0
   -1.8081   16.0416    0.0000 C   0  0  1  0  0  0  0  0  0  0  0  0
   -0.6892   15.0425    0.0000 H   0  0  0  0  0  0  0  0  0  0  0  0
   -2.7107   17.2551    0.0000 C   0  0  0  0  0  0  0  0  0  0  0  0
   -1.4212   18.0213    0.0000 H   0  0  0  0  0  0  0  0  0  0  0  0
   -3.3397   18.6168    0.0000 H   0  0  0  0  0  0  0  0  0  0  0  0
   -4.1377   16.7674    0.0000 C   0  0  2  0  0  0  0  0  0  0  0  0
   -4.4700   18.2301    0.0000 H   0  0  0  0  0  0  0  0  0  0  0  0
   -5.5157   17.3600    0.0000 O   0  0  0  0  0  0  0  0  0  0  0  0
   -5.8039   19.8031    0.0000 H   0  0  0  0  0  0  0  0  0  0  0  0
   -0.7011   17.0538    0.0000 O   0  0  0  0  0  0  0  0  0  0  0  0
    0.7290   16.6012    0.0000 H   0  0  0  0  0  0  0  0  0  0  0  0
  1  2  1  0  0  0  0 
  1  3  1  0  0  0  0 
  1  4  1  0  0  0  0 
  1  5  1  0  0  0  0 
  5  6  1  0  0  0  0 
  5  7  1  0  0  0  0 
  7  8  1  0  0  0  0 
  7  9  1  0  0  0  0 
  7 10  1  0  0  0  0 
  5 11  1  0  0  0  0 
 11 12  1  0  0  0  0 
 12 13  2  0  0  0  0 
 12 14  1  0  0  0  0 
 14 15  1  0  0  0  0 
 14 16  1  0  0  0  0 
 14 17  1  0  0  0  0 
 17 18  1  0  0  0  0 
 17 19  1  0  0  0  0 
 17 20  1  0  0  0  0 
 20 21  1  0  0  0  0 
 20 22  1  0  0  0  0 
 20 23  1  0  0  0  0 
 23 24  1  0  0  0  0 
 23 25  2  0  0  0  0 
 25 26  1  0  0  0  0 
 25 27  1  0  0  0  0 
 27 28  1  0  0  0  0 
 27 29  1  0  0  0  0 
 30 27  1  1  0  0  0 
 30 31  1  6  0  0  0 
 30 32  1  0  0  0  0 
 32 33  1  1  0  0  0 
 32 34  1  6  0  0  0 
 34 35  1  0  0  0  0 
 34 36  2  0  0  0  0 
 36 37  1  0  0  0  0 
 36 38  1  0  0  0  0 
 38 39  2  0  0  0  0 
 39 40  1  4  0  0  0 
 39 41  1  0  0  0  0 
 41 42  1  0  0  0  0 
 42 43  2  0  0  0  0 
 43 44  1  0  0  0  0 
 43 45  1  0  0  0  0 
 45 46  2  0  0  0  0 
 46 47  1  0  0  0  0 
 46 48  1  0  0  0  0 
 48 49  1  0  0  0  0 
 48 50  2  0  0  0  0 
 42 50  1  0  0  0  0 
 50 51  1  0  0  0  0 
 45 52  1  0  0  0  0 
 52 53  1  0  0  0  0 
 52 54  1  0  0  0  0 
 52 55  1  0  0  0  0 
 38 56  1  0  0  0  0 
 56 57  1  0  0  0  0 
 32 58  1  0  0  0  0 
 58 59  1  6  0  0  0 
 58 60  1  0  0  0  0 
 60 61  1  0  0  0  0 
 60 62  1  0  0  0  0 
 60 63  1  0  0  0  0 
 30 63  1  0  0  0  0 
 63 64  1  6  0  0  0 
 63 65  1  1  0  0  0 
 65 66  1  0  0  0  0 
 58 67  1  1  0  0  0 
 67 68  1  0  0  0  0 
M  END
> <Rank>
30

> <Priority_score>
0.027200000000000002

> <Reaction_type>
alkyl dehydrogenation

> <Parent_ID>
10

> <Parent_InChI>
InChI=1S/C26H35F3O6/c1-17(2)35-25(33)11-6-4-3-5-10-21-22(24(32)15-23(21)31)13-12-19(30)16-34-20-9-7-8-18(14-20)26(27,28)29/h3,5,7-9,12-14,17,19,21-24,30-32H,4,6,10-11,15-16H2,1-2H3

> <Parent_SMILES>
CC(C)OC(=O)CCC/C=C\C[C@H]1[C@@H](O)C[C@@H](O)[C@@H]1/C=C/[C@@H](O)COc1cccc(C(F)(F)F)c1

$$$$
Molecule 10_metabolite 32
  CDK     0516241031

 56 56  0  0  0  0  0  0  0  0999 V2000
   10.5177   -6.8590    0.0000 C   0  0  0  0  0  0  0  0  0  0  0  0
   11.5270   -7.9687    0.0000 H   0  0  0  0  0  0  0  0  0  0  0  0
   11.7857   -6.0577    0.0000 H   0  0  0  0  0  0  0  0  0  0  0  0
    9.9488   -5.4711    0.0000 H   0  0  0  0  0  0  0  0  0  0  0  0
    9.0521   -7.1783    0.0000 C   0  0  0  0  0  0  0  0  0  0  0  0
    7.7841   -7.9796    0.0000 H   0  0  0  0  0  0  0  0  0  0  0  0
    9.6210   -8.5662    0.0000 C   0  0  0  0  0  0  0  0  0  0  0  0
   11.1075   -8.7675    0.0000 H   0  0  0  0  0  0  0  0  0  0  0  0
    8.1554   -8.8855    0.0000 H   0  0  0  0  0  0  0  0  0  0  0  0
    9.6810  -10.0650    0.0000 H   0  0  0  0  0  0  0  0  0  0  0  0
    8.0428   -6.0687    0.0000 O   0  0  0  0  0  0  0  0  0  0  0  0
    6.5771   -6.3880    0.0000 C   0  0  0  0  0  0  0  0  0  0  0  0
    6.1208   -7.8169    0.0000 O   0  0  0  0  0  0  0  0  0  0  0  0
    5.5678   -5.2784    0.0000 C   0  0  0  0  0  0  0  0  0  0  0  0
    6.8358   -4.4771    0.0000 H   0  0  0  0  0  0  0  0  0  0  0  0
    4.9989   -3.8905    0.0000 H   0  0  0  0  0  0  0  0  0  0  0  0
    4.1022   -5.5977    0.0000 C   0  0  0  0  0  0  0  0  0  0  0  0
    2.8342   -6.3990    0.0000 H   0  0  0  0  0  0  0  0  0  0  0  0
    4.6711   -6.9856    0.0000 H   0  0  0  0  0  0  0  0  0  0  0  0
    2.7699   -4.1330    0.0000 C   0  0  0  0  0  0  0  0  0  0  0  0
    4.0379   -3.3316    0.0000 H   0  0  0  0  0  0  0  0  0  0  0  0
    2.2009   -2.7450    0.0000 H   0  0  0  0  0  0  0  0  0  0  0  0
    1.3043   -4.4522    0.0000 C   0  0  0  0  0  0  0  0  0  0  0  0
    0.8480   -5.8812    0.0000 H   0  0  0  0  0  0  0  0  0  0  0  0
   -0.3510   -2.6325    0.0000 C   0  0  0  0  0  0  0  0  0  0  0  0
   -1.8167   -2.9518    0.0000 H   0  0  0  0  0  0  0  0  0  0  0  0
    0.1053   -1.2036    0.0000 C   0  0  0  0  0  0  0  0  0  0  0  0
    1.9036    1.1223    0.0000 H   0  0  0  0  0  0  0  0  0  0  0  0
    1.4332   -1.9010    0.0000 H   0  0  0  0  0  0  0  0  0  0  0  0
   -1.8730    0.9713    0.0000 C   0  0  2  0  0  0  0  0  0  0  0  0
   -2.8682   -0.1510    0.0000 H   0  0  0  0  0  0  0  0  0  0  0  0
   -3.0954    1.8407    0.0000 C   0  0  1  0  0  0  0  0  0  0  0  0
   -3.8307    0.5333    0.0000 H   0  0  0  0  0  0  0  0  0  0  0  0
   -4.9141    2.6235    0.0000 C   0  0  0  0  0  0  0  0  0  0  0  0
   -5.0893    4.1133    0.0000 H   0  0  0  0  0  0  0  0  0  0  0  0
   -6.1166    1.7269    0.0000 C   0  0  0  0  0  0  0  0  0  0  0  0
   -5.9413    0.2372    0.0000 H   0  0  0  0  0  0  0  0  0  0  0  0
   -7.4943    2.3200    0.0000 C   0  0  2  0  0  0  0  0  0  0  0  0
   -6.6710    3.5738    0.0000 H   0  0  0  0  0  0  0  0  0  0  0  0
   -8.6969    1.4234    0.0000 C   0  0  0  0  0  0  0  0  0  0  0  0
  -10.0746    2.0165    0.0000 H   0  0  0  0  0  0  0  0  0  0  0  0
   -9.5202    0.1695    0.0000 H   0  0  0  0  0  0  0  0  0  0  0  0
   -7.6050    0.3948    0.0000 H   0  0  0  0  0  0  0  0  0  0  0  0
   -8.5862    3.3485    0.0000 O   0  0  0  0  0  0  0  0  0  0  0  0
  -10.0228    2.9173    0.0000 H   0  0  0  0  0  0  0  0  0  0  0  0
   -2.6496    3.2784    0.0000 C   0  0  1  0  0  0  0  0  0  0  0  0
   -4.1199    3.5757    0.0000 H   0  0  0  0  0  0  0  0  0  0  0  0
   -1.1373    3.2827    0.0000 C   0  0  0  0  0  0  0  0  0  0  0  0
   -1.2963    4.7742    0.0000 H   0  0  0  0  0  0  0  0  0  0  0  0
    0.3299    3.5949    0.0000 H   0  0  0  0  0  0  0  0  0  0  0  0
   -0.6728    1.8480    0.0000 C   0  0  2  0  0  0  0  0  0  0  0  0
    0.6974    2.4582    0.0000 H   0  0  0  0  0  0  0  0  0  0  0  0
    0.0789    0.5499    0.0000 O   0  0  0  0  0  0  0  0  0  0  0  0
    3.0189    0.5538    0.0000 H   0  0  0  0  0  0  0  0  0  0  0  0
   -2.5024    4.7712    0.0000 O   0  0  0  0  0  0  0  0  0  0  0  0
   -3.7215    5.6451    0.0000 H   0  0  0  0  0  0  0  0  0  0  0  0
  1  2  1  0  0  0  0 
  1  3  1  0  0  0  0 
  1  4  1  0  0  0  0 
  1  5  1  0  0  0  0 
  5  6  1  0  0  0  0 
  5  7  1  0  0  0  0 
  7  8  1  0  0  0  0 
  7  9  1  0  0  0  0 
  7 10  1  0  0  0  0 
  5 11  1  0  0  0  0 
 11 12  1  0  0  0  0 
 12 13  2  0  0  0  0 
 12 14  1  0  0  0  0 
 14 15  1  0  0  0  0 
 14 16  1  0  0  0  0 
 14 17  1  0  0  0  0 
 17 18  1  0  0  0  0 
 17 19  1  0  0  0  0 
 17 20  1  0  0  0  0 
 20 21  1  0  0  0  0 
 20 22  1  0  0  0  0 
 20 23  1  0  0  0  0 
 23 24  1  0  0  0  0 
 23 25  2  0  0  0  0 
 25 26  1  0  0  0  0 
 25 27  1  0  0  0  0 
 27 28  1  0  0  0  0 
 27 29  1  0  0  0  0 
 30 27  1  6  0  0  0 
 30 31  1  1  0  0  0 
 30 32  1  0  0  0  0 
 32 33  1  6  0  0  0 
 32 34  1  1  0  0  0 
 34 35  1  0  0  0  0 
 34 36  2  0  0  0  0 
 36 37  1  0  0  0  0 
 36 38  1  0  0  0  0 
 38 39  1  1  0  0  0 
 38 40  1  0  0  0  0 
 40 41  1  0  0  0  0 
 40 42  1  0  0  0  0 
 40 43  1  0  0  0  0 
 38 44  1  6  0  0  0 
 44 45  1  0  0  0  0 
 32 46  1  0  0  0  0 
 46 47  1  1  0  0  0 
 46 48  1  0  0  0  0 
 48 49  1  0  0  0  0 
 48 50  1  0  0  0  0 
 48 51  1  0  0  0  0 
 30 51  1  0  0  0  0 
 51 52  1  1  0  0  0 
 51 53  1  6  0  0  0 
 53 54  1  0  0  0  0 
 46 55  1  6  0  0  0 
 55 56  1  0  0  0  0 
M  END
> <Rank>
30

> <Priority_score>
0.027200000000000002

> <Reaction_type>
oxidation of 4-substituted anisole to quinone

> <Parent_ID>
10

> <Parent_InChI>
InChI=1S/C26H35F3O6/c1-17(2)35-25(33)11-6-4-3-5-10-21-22(24(32)15-23(21)31)13-12-19(30)16-34-20-9-7-8-18(14-20)26(27,28)29/h3,5,7-9,12-14,17,19,21-24,30-32H,4,6,10-11,15-16H2,1-2H3

> <Parent_SMILES>
CC(C)OC(=O)CCC/C=C\C[C@H]1[C@@H](O)C[C@@H](O)[C@@H]1/C=C/[C@@H](O)COc1cccc(C(F)(F)F)c1

$$$$
Molecule 10_metabolite 33
  CDK     0516241031

 68 69  0  0  0  0  0  0  0  0999 V2000
   14.1521    5.4313    0.0000 C   0  0  0  0  0  0  0  0  0  0  0  0
   15.6187    5.1165    0.0000 H   0  0  0  0  0  0  0  0  0  0  0  0
   12.6663    5.2255    0.0000 H   0  0  0  0  0  0  0  0  0  0  0  0
   14.0968    3.9323    0.0000 H   0  0  0  0  0  0  0  0  0  0  0  0
   13.6914    6.8588    0.0000 C   0  0  0  0  0  0  0  0  0  0  0  0
   15.1772    7.0646    0.0000 H   0  0  0  0  0  0  0  0  0  0  0  0
   13.7467    8.3578    0.0000 C   0  0  0  0  0  0  0  0  0  0  0  0
   15.0726    9.0594    0.0000 H   0  0  0  0  0  0  0  0  0  0  0  0
   13.2861    9.7853    0.0000 H   0  0  0  0  0  0  0  0  0  0  0  0
   12.2609    8.1520    0.0000 H   0  0  0  0  0  0  0  0  0  0  0  0
   12.2248    7.1736    0.0000 O   0  0  0  0  0  0  0  0  0  0  0  0
   11.2189    6.0609    0.0000 C   0  0  0  0  0  0  0  0  0  0  0  0
   11.6796    4.6334    0.0000 O   0  0  0  0  0  0  0  0  0  0  0  0
    9.7523    6.3756    0.0000 C   0  0  0  0  0  0  0  0  0  0  0  0
    8.4818    7.1730    0.0000 H   0  0  0  0  0  0  0  0  0  0  0  0
   10.3170    7.7653    0.0000 H   0  0  0  0  0  0  0  0  0  0  0  0
    8.7464    5.2629    0.0000 C   0  0  0  0  0  0  0  0  0  0  0  0
   10.0169    4.4655    0.0000 H   0  0  0  0  0  0  0  0  0  0  0  0
    8.1817    3.8733    0.0000 H   0  0  0  0  0  0  0  0  0  0  0  0
    7.2798    5.5777    0.0000 C   0  0  0  0  0  0  0  0  0  0  0  0
    5.7940    5.3719    0.0000 H   0  0  0  0  0  0  0  0  0  0  0  0
    7.2245    4.0787    0.0000 H   0  0  0  0  0  0  0  0  0  0  0  0
    6.8191    7.0052    0.0000 C   0  0  0  0  0  0  0  0  0  0  0  0
    7.8250    8.1179    0.0000 H   0  0  0  0  0  0  0  0  0  0  0  0
    5.3525    7.3200    0.0000 C   0  0  0  0  0  0  0  0  0  0  0  0
    4.8918    8.7475    0.0000 H   0  0  0  0  0  0  0  0  0  0  0  0
    3.7028    5.4951    0.0000 C   0  0  0  0  0  0  0  0  0  0  0  0
    1.9527    4.5690    0.0000 H   0  0  0  0  0  0  0  0  0  0  0  0
    2.7817    6.6790    0.0000 H   0  0  0  0  0  0  0  0  0  0  0  0
    4.3109    3.6108    0.0000 C   0  0  2  0  0  0  0  0  0  0  0  0
    5.6818    4.2198    0.0000 H   0  0  0  0  0  0  0  0  0  0  0  0
    2.8428    3.3035    0.0000 C   0  0  1  0  0  0  0  0  0  0  0  0
    1.3428    3.3158    0.0000 H   0  0  0  0  0  0  0  0  0  0  0  0
    2.5994    5.7515    0.0000 C   0  0  0  0  0  0  0  0  0  0  0  0
    3.8179    6.6263    0.0000 H   0  0  0  0  0  0  0  0  0  0  0  0
    0.7952    6.5670    0.0000 C   0  0  0  0  0  0  0  0  0  0  0  0
   -0.4233    5.6922    0.0000 H   0  0  0  0  0  0  0  0  0  0  0  0
    0.6468    8.0596    0.0000 C   0  0  2  0  0  0  0  0  0  0  0  0
    1.0179    9.5130    0.0000 H   0  0  0  0  0  0  0  0  0  0  0  0
   -0.7200    8.6775    0.0000 C   0  0  0  0  0  0  0  0  0  0  0  0
   -1.0911    7.2241    0.0000 H   0  0  0  0  0  0  0  0  0  0  0  0
   -2.2158    8.7906    0.0000 H   0  0  0  0  0  0  0  0  0  0  0  0
   -0.8684   10.1701    0.0000 O   0  0  0  0  0  0  0  0  0  0  0  0
   -2.2353   10.7880    0.0000 C   0  0  0  0  0  0  0  0  0  0  0  0
   -2.3857   12.2812    0.0000 C   0  0  0  0  0  0  0  0  0  0  0  0
   -1.1686   13.1579    0.0000 H   0  0  0  0  0  0  0  0  0  0  0  0
   -3.7536   12.8968    0.0000 C   0  0  0  0  0  0  0  0  0  0  0  0
   -4.9710   12.0190    0.0000 C   0  0  0  0  0  0  0  0  0  0  0  0
   -6.3399   12.6323    0.0000 H   0  0  0  0  0  0  0  0  0  0  0  0
   -4.8164   10.5349    0.0000 C   0  0  0  0  0  0  0  0  0  0  0  0
   -6.0321    9.6562    0.0000 H   0  0  0  0  0  0  0  0  0  0  0  0
   -3.4486    9.9193    0.0000 C   0  0  0  0  0  0  0  0  0  0  0  0
   -3.3000    8.4267    0.0000 H   0  0  0  0  0  0  0  0  0  0  0  0
   -3.9047   14.3891    0.0000 C   0  0  0  0  0  0  0  0  0  0  0  0
   -5.2727   15.0045    0.0000 F   0  0  0  0  0  0  0  0  0  0  0  0
   -3.5363   15.8432    0.0000 F   0  0  0  0  0  0  0  0  0  0  0  0
   -2.4088   14.2788    0.0000 F   0  0  0  0  0  0  0  0  0  0  0  0
    2.1426    7.9466    0.0000 O   0  0  0  0  0  0  0  0  0  0  0  0
    2.9883    9.1854    0.0000 H   0  0  0  0  0  0  0  0  0  0  0  0
    2.6716    1.8271    0.0000 C   0  0  0  0  0  0  0  0  0  0  0  0
    1.3633    1.0935    0.0000 O   0  0  0  0  0  0  0  0  0  0  0  0
    4.0403    1.1941    0.0000 C   0  0  0  0  0  0  0  0  0  0  0  0
    5.2434    0.2983    0.0000 H   0  0  0  0  0  0  0  0  0  0  0  0
    3.2734   -0.0950    0.0000 H   0  0  0  0  0  0  0  0  0  0  0  0
    5.0639    2.3074    0.0000 C   0  0  2  0  0  0  0  0  0  0  0  0
    6.2803    3.1851    0.0000 H   0  0  0  0  0  0  0  0  0  0  0  0
    6.0600    1.1859    0.0000 O   0  0  0  0  0  0  0  0  0  0  0  0
    7.5293    1.4877    0.0000 H   0  0  0  0  0  0  0  0  0  0  0  0
  1  2  1  0  0  0  0 
  1  3  1  0  0  0  0 
  1  4  1  0  0  0  0 
  1  5  1  0  0  0  0 
  5  6  1  0  0  0  0 
  5  7  1  0  0  0  0 
  7  8  1  0  0  0  0 
  7  9  1  0  0  0  0 
  7 10  1  0  0  0  0 
  5 11  1  0  0  0  0 
 11 12  1  0  0  0  0 
 12 13  2  0  0  0  0 
 12 14  1  0  0  0  0 
 14 15  1  0  0  0  0 
 14 16  1  0  0  0  0 
 14 17  1  0  0  0  0 
 17 18  1  0  0  0  0 
 17 19  1  0  0  0  0 
 17 20  1  0  0  0  0 
 20 21  1  0  0  0  0 
 20 22  1  0  0  0  0 
 20 23  1  0  0  0  0 
 23 24  1  0  0  0  0 
 23 25  2  0  0  0  0 
 25 26  1  0  0  0  0 
 25 27  1  0  0  0  0 
 27 28  1  0  0  0  0 
 27 29  1  0  0  0  0 
 30 27  1  1  0  0  0 
 30 31  1  6  0  0  0 
 30 32  1  0  0  0  0 
 32 33  1  1  0  0  0 
 32 34  1  0  0  0  0 
 34 35  1  0  0  0  0 
 34 36  2  0  0  0  0 
 36 37  1  0  0  0  0 
 36 38  1  0  0  0  0 
 38 39  1  1  0  0  0 
 38 40  1  0  0  0  0 
 40 41  1  0  0  0  0 
 40 42  1  0  0  0  0 
 40 43  1  0  0  0  0 
 43 44  1  0  0  0  0 
 44 45  2  0  0  0  0 
 45 46  1  0  0  0  0 
 45 47  1  0  0  0  0 
 47 48  2  0  0  0  0 
 48 49  1  0  0  0  0 
 48 50  1  0  0  0  0 
 50 51  1  0  0  0  0 
 50 52  2  0  0  0  0 
 44 52  1  0  0  0  0 
 52 53  1  0  0  0  0 
 47 54  1  0  0  0  0 
 54 55  1  0  0  0  0 
 54 56  1  0  0  0  0 
 54 57  1  0  0  0  0 
 38 58  1  6  0  0  0 
 58 59  1  0  0  0  0 
 32 60  1  6  0  0  0 
 60 61  2  0  0  0  0 
 60 62  1  0  0  0  0 
 62 63  1  0  0  0  0 
 62 64  1  0  0  0  0 
 62 65  1  0  0  0  0 
 30 65  1  0  0  0  0 
 65 66  1  6  0  0  0 
 65 67  1  1  0  0  0 
 67 68  1  0  0  0  0 
M  END
> <Rank>
33

> <Priority_score>
0.02

> <Reaction_type>
secondary_alcohol_oxidation_(aliphatic)

> <Parent_ID>
10

> <Parent_InChI>
InChI=1S/C26H35F3O6/c1-17(2)35-25(33)11-6-4-3-5-10-21-22(24(32)15-23(21)31)13-12-19(30)16-34-20-9-7-8-18(14-20)26(27,28)29/h3,5,7-9,12-14,17,19,21-24,30-32H,4,6,10-11,15-16H2,1-2H3

> <Parent_SMILES>
CC(C)OC(=O)CCC/C=C\C[C@H]1[C@@H](O)C[C@@H](O)[C@@H]1/C=C/[C@@H](O)COc1cccc(C(F)(F)F)c1

$$$$
Molecule 10_metabolite 34
  CDK     0516241031

 67 68  0  0  0  0  0  0  0  0999 V2000
  -13.3116   -2.9308    0.0000 C   0  0  0  0  0  0  0  0  0  0  0  0
  -14.7788   -2.6187    0.0000 H   0  0  0  0  0  0  0  0  0  0  0  0
  -13.8738   -4.3215    0.0000 H   0  0  0  0  0  0  0  0  0  0  0  0
  -12.0397   -3.7259    0.0000 H   0  0  0  0  0  0  0  0  0  0  0  0
  -12.3078   -1.8162    0.0000 C   0  0  0  0  0  0  0  0  0  0  0  0
  -11.7456   -0.4255    0.0000 H   0  0  0  0  0  0  0  0  0  0  0  0
  -13.5797   -1.0212    0.0000 C   0  0  0  0  0  0  0  0  0  0  0  0
  -14.9042   -1.7251    0.0000 H   0  0  0  0  0  0  0  0  0  0  0  0
  -12.5758    0.0934    0.0000 H   0  0  0  0  0  0  0  0  0  0  0  0
  -14.5030    0.1610    0.0000 H   0  0  0  0  0  0  0  0  0  0  0  0
  -10.8406   -2.1283    0.0000 O   0  0  0  0  0  0  0  0  0  0  0  0
   -9.8367   -1.0138    0.0000 C   0  0  0  0  0  0  0  0  0  0  0  0
  -10.3000    0.4129    0.0000 O   0  0  0  0  0  0  0  0  0  0  0  0
   -8.3695   -1.3259    0.0000 C   0  0  0  0  0  0  0  0  0  0  0  0
   -8.9317   -2.7166    0.0000 H   0  0  0  0  0  0  0  0  0  0  0  0
   -7.0976   -2.1210    0.0000 H   0  0  0  0  0  0  0  0  0  0  0  0
   -7.3657   -0.2113    0.0000 C   0  0  0  0  0  0  0  0  0  0  0  0
   -6.8035    1.1794    0.0000 H   0  0  0  0  0  0  0  0  0  0  0  0
   -8.6376    0.5838    0.0000 H   0  0  0  0  0  0  0  0  0  0  0  0
   -5.4290   -0.6233    0.0000 C   0  0  0  0  0  0  0  0  0  0  0  0
   -5.9911   -2.0140    0.0000 H   0  0  0  0  0  0  0  0  0  0  0  0
   -4.1571   -1.4184    0.0000 H   0  0  0  0  0  0  0  0  0  0  0  0
   -4.4251    0.4913    0.0000 C   0  0  0  0  0  0  0  0  0  0  0  0
   -4.8884    1.9179    0.0000 H   0  0  0  0  0  0  0  0  0  0  0  0
   -2.0190   -0.0206    0.0000 C   0  0  0  0  0  0  0  0  0  0  0  0
   -1.0151    1.0940    0.0000 H   0  0  0  0  0  0  0  0  0  0  0  0
   -1.5557   -1.4472    0.0000 C   0  0  0  0  0  0  0  0  0  0  0  0
   -1.6587   -4.3854    0.0000 H   0  0  0  0  0  0  0  0  0  0  0  0
   -3.0411   -1.6558    0.0000 H   0  0  0  0  0  0  0  0  0  0  0  0
    0.8505   -1.9591    0.0000 C   0  0  2  0  0  0  0  0  0  0  0  0
    1.0080   -0.4674    0.0000 H   0  0  0  0  0  0  0  0  0  0  0  0
    2.3466   -1.9603    0.0000 C   0  0  0  0  0  0  0  0  0  0  0  0
    2.8087   -3.3796    0.0000 C   0  0  0  0  0  0  0  0  0  0  0  0
    4.2353   -3.8430    0.0000 H   0  0  0  0  0  0  0  0  0  0  0  0
    1.5949   -4.2609    0.0000 C   0  0  0  0  0  0  0  0  0  0  0  0
    2.5979   -5.3762    0.0000 H   0  0  0  0  0  0  0  0  0  0  0  0
    0.5902   -5.3747    0.0000 H   0  0  0  0  0  0  0  0  0  0  0  0
    0.3884   -3.3821    0.0000 C   0  0  2  0  0  0  0  0  0  0  0  0
   -0.3626   -4.6806    0.0000 H   0  0  0  0  0  0  0  0  0  0  0  0
   -0.9818   -2.7716    0.0000 O   0  0  0  0  0  0  0  0  0  0  0  0
   -2.1956   -3.6529    0.0000 H   0  0  0  0  0  0  0  0  0  0  0  0
    3.2285   -0.7469    0.0000 C   0  0  0  0  0  0  0  0  0  0  0  0
    2.6185    0.6235    0.0000 H   0  0  0  0  0  0  0  0  0  0  0  0
    4.7202   -0.9038    0.0000 C   0  0  0  0  0  0  0  0  0  0  0  0
    5.3302   -2.2742    0.0000 H   0  0  0  0  0  0  0  0  0  0  0  0
    5.6020    0.3096    0.0000 C   0  0  2  0  0  0  0  0  0  0  0  0
    6.0157    1.7514    0.0000 H   0  0  0  0  0  0  0  0  0  0  0  0
    7.0938    0.1526    0.0000 C   0  0  0  0  0  0  0  0  0  0  0  0
    6.6802   -1.2892    0.0000 H   0  0  0  0  0  0  0  0  0  0  0  0
    8.4419   -0.5051    0.0000 H   0  0  0  0  0  0  0  0  0  0  0  0
    7.9756    1.3661    0.0000 O   0  0  0  0  0  0  0  0  0  0  0  0
    9.4674    1.2091    0.0000 C   0  0  0  0  0  0  0  0  0  0  0  0
   10.3513    2.4220    0.0000 C   0  0  0  0  0  0  0  0  0  0  0  0
    9.7435    3.7933    0.0000 H   0  0  0  0  0  0  0  0  0  0  0  0
   11.8428    2.2625    0.0000 C   0  0  0  0  0  0  0  0  0  0  0  0
   12.4504    0.8902    0.0000 C   0  0  0  0  0  0  0  0  0  0  0  0
   13.9416    0.7282    0.0000 H   0  0  0  0  0  0  0  0  0  0  0  0
   11.5675   -0.3128    0.0000 C   0  0  0  0  0  0  0  0  0  0  0  0
   12.1731   -1.6851    0.0000 H   0  0  0  0  0  0  0  0  0  0  0  0
   10.0760   -0.1533    0.0000 C   0  0  0  0  0  0  0  0  0  0  0  0
    9.1940   -1.3666    0.0000 H   0  0  0  0  0  0  0  0  0  0  0  0
   12.7269    3.4743    0.0000 C   0  0  0  0  0  0  0  0  0  0  0  0
   14.2184    3.3146    0.0000 F   0  0  0  0  0  0  0  0  0  0  0  0
   13.1432    4.9154    0.0000 F   0  0  0  0  0  0  0  0  0  0  0  0
   11.3800    4.1345    0.0000 F   0  0  0  0  0  0  0  0  0  0  0  0
    4.2539    0.9673    0.0000 O   0  0  0  0  0  0  0  0  0  0  0  0
    4.1495    2.4637    0.0000 H   0  0  0  0  0  0  0  0  0  0  0  0
  1  2  1  0  0  0  0 
  1  3  1  0  0  0  0 
  1  4  1  0  0  0  0 
  1  5  1  0  0  0  0 
  5  6  1  0  0  0  0 
  5  7  1  0  0  0  0 
  7  8  1  0  0  0  0 
  7  9  1  0  0  0  0 
  7 10  1  0  0  0  0 
  5 11  1  0  0  0  0 
 11 12  1  0  0  0  0 
 12 13  2  0  0  0  0 
 12 14  1  0  0  0  0 
 14 15  1  0  0  0  0 
 14 16  1  0  0  0  0 
 14 17  1  0  0  0  0 
 17 18  1  0  0  0  0 
 17 19  1  0  0  0  0 
 17 20  1  0  0  0  0 
 20 21  1  0  0  0  0 
 20 22  1  0  0  0  0 
 20 23  1  0  0  0  0 
 23 24  1  0  0  0  0 
 23 25  2  0  0  0  0 
 25 26  1  0  0  0  0 
 25 27  1  0  0  0  0 
 27 28  1  0  0  0  0 
 27 29  1  0  0  0  0 
 27 30  1  0  0  0  0 
 30 31  1  1  0  0  0 
 30 32  1  6  0  0  0 
 32 33  2  0  0  0  0 
 33 34  1  0  0  0  0 
 33 35  1  0  0  0  0 
 35 36  1  0  0  0  0 
 35 37  1  0  0  0  0 
 35 38  1  0  0  0  0 
 30 38  1  0  0  0  0 
 38 39  1  1  0  0  0 
 38 40  1  6  0  0  0 
 40 41  1  0  0  0  0 
 32 42  1  0  0  0  0 
 42 43  1  0  0  0  0 
 42 44  2  0  0  0  0 
 44 45  1  0  0  0  0 
 44 46  1  0  0  0  0 
 46 47  1  6  0  0  0 
 46 48  1  0  0  0  0 
 48 49  1  0  0  0  0 
 48 50  1  0  0  0  0 
 48 51  1  0  0  0  0 
 51 52  1  0  0  0  0 
 52 53  2  0  0  0  0 
 53 54  1  0  0  0  0 
 53 55  1  0  0  0  0 
 55 56  2  0  0  0  0 
 56 57  1  0  0  0  0 
 56 58  1  0  0  0  0 
 58 59  1  0  0  0  0 
 58 60  2  0  0  0  0 
 52 60  1  0  0  0  0 
 60 61  1  0  0  0  0 
 55 62  1  0  0  0  0 
 62 63  1  0  0  0  0 
 62 64  1  0  0  0  0 
 62 65  1  0  0  0  0 
 46 66  1  1  0  0  0 
 66 67  1  0  0  0  0 
M  END
> <Rank>
33

> <Priority_score>
0.02

> <Reaction_type>
dehydration_next_to_SP2_b

> <Parent_ID>
10

> <Parent_InChI>
InChI=1S/C26H35F3O6/c1-17(2)35-25(33)11-6-4-3-5-10-21-22(24(32)15-23(21)31)13-12-19(30)16-34-20-9-7-8-18(14-20)26(27,28)29/h3,5,7-9,12-14,17,19,21-24,30-32H,4,6,10-11,15-16H2,1-2H3

> <Parent_SMILES>
CC(C)OC(=O)CCC/C=C\C[C@H]1[C@@H](O)C[C@@H](O)[C@@H]1/C=C/[C@@H](O)COc1cccc(C(F)(F)F)c1

$$$$
Molecule 10_metabolite 35
  CDK     0516241031

 71 72  0  0  0  0  0  0  0  0999 V2000
   -5.7141    1.5610    0.0000 C   0  0  0  0  0  0  0  0  0  0  0  0
   -6.3698    2.9101    0.0000 H   0  0  0  0  0  0  0  0  0  0  0  0
   -7.1565    1.1495    0.0000 H   0  0  0  0  0  0  0  0  0  0  0  0
   -5.5593    0.0690    0.0000 H   0  0  0  0  0  0  0  0  0  0  0  0
   -4.2179    1.4543    0.0000 C   0  0  0  0  0  0  0  0  0  0  0  0
   -2.7754    1.8658    0.0000 H   0  0  0  0  0  0  0  0  0  0  0  0
   -4.3726    2.9463    0.0000 C   0  0  0  0  0  0  0  0  0  0  0  0
   -5.7421    3.5583    0.0000 H   0  0  0  0  0  0  0  0  0  0  0  0
   -2.8764    2.8396    0.0000 H   0  0  0  0  0  0  0  0  0  0  0  0
   -4.0077    4.4012    0.0000 H   0  0  0  0  0  0  0  0  0  0  0  0
   -3.5621    0.1052    0.0000 O   0  0  0  0  0  0  0  0  0  0  0  0
   -2.0659   -0.0015    0.0000 C   0  0  0  0  0  0  0  0  0  0  0  0
   -1.2255    1.2409    0.0000 O   0  0  0  0  0  0  0  0  0  0  0  0
   -1.4102   -1.3506    0.0000 C   0  0  0  0  0  0  0  0  0  0  0  0
   -2.8527   -1.7621    0.0000 H   0  0  0  0  0  0  0  0  0  0  0  0
   -1.2555   -2.8426    0.0000 H   0  0  0  0  0  0  0  0  0  0  0  0
    0.0860   -1.4572    0.0000 C   0  0  0  0  0  0  0  0  0  0  0  0
    1.5284   -1.0458    0.0000 H   0  0  0  0  0  0  0  0  0  0  0  0
   -0.0688    0.0348    0.0000 H   0  0  0  0  0  0  0  0  0  0  0  0
    0.7417   -2.8063    0.0000 C   0  0  0  0  0  0  0  0  0  0  0  0
    1.9564   -1.9263    0.0000 H   0  0  0  0  0  0  0  0  0  0  0  0
    1.8193   -3.8498    0.0000 H   0  0  0  0  0  0  0  0  0  0  0  0
   -0.0988   -4.0487    0.0000 C   0  0  0  0  0  0  0  0  0  0  0  0
   -1.5950   -3.9421    0.0000 H   0  0  0  0  0  0  0  0  0  0  0  0
    0.5569   -5.3978    0.0000 C   0  0  0  0  0  0  0  0  0  0  0  0
   -0.2836   -6.6402    0.0000 H   0  0  0  0  0  0  0  0  0  0  0  0
    3.0107   -5.5728    0.0000 C   0  0  0  0  0  0  0  0  0  0  0  0
    4.4532   -5.1613    0.0000 H   0  0  0  0  0  0  0  0  0  0  0  0
    2.8559   -4.0808    0.0000 H   0  0  0  0  0  0  0  0  0  0  0  0
    4.0861   -7.7853    0.0000 C   0  0  1  0  0  0  0  0  0  0  0  0
    2.7843   -8.5306    0.0000 H   0  0  0  0  0  0  0  0  0  0  0  0
    4.6890   -9.1610    0.0000 C   0  0  2  0  0  0  0  0  0  0  0  0
    3.2615   -9.6218    0.0000 H   0  0  0  0  0  0  0  0  0  0  0  0
    6.1819   -8.9953    0.0000 C   0  0  0  0  0  0  0  0  0  0  0  0
    6.1873  -10.4953    0.0000 H   0  0  0  0  0  0  0  0  0  0  0  0
    7.6738   -9.1500    0.0000 H   0  0  0  0  0  0  0  0  0  0  0  0
    6.4935   -7.5355    0.0000 C   0  0  2  0  0  0  0  0  0  0  0  0
    7.9198   -7.9999    0.0000 H   0  0  0  0  0  0  0  0  0  0  0  0
    5.1944   -6.7855    0.0000 C   0  0  2  0  0  0  0  0  0  0  0  0
    6.6398   -4.7949    0.0000 C   0  0  0  0  0  0  0  0  0  0  0  0
    6.0293   -3.4248    0.0000 H   0  0  0  0  0  0  0  0  0  0  0  0
    8.6090   -5.0013    0.0000 C   0  0  0  0  0  0  0  0  0  0  0  0
    9.8056   -7.6868    0.0000 H   0  0  0  0  0  0  0  0  0  0  0  0
    9.4903   -3.7875    0.0000 C   0  0  2  0  0  0  0  0  0  0  0  0
    9.9034   -2.3455    0.0000 H   0  0  0  0  0  0  0  0  0  0  0  0
   10.9822   -3.9439    0.0000 C   0  0  0  0  0  0  0  0  0  0  0  0
   10.5691   -5.3859    0.0000 H   0  0  0  0  0  0  0  0  0  0  0  0
   12.3306   -4.6010    0.0000 H   0  0  0  0  0  0  0  0  0  0  0  0
   11.8635   -2.7301    0.0000 O   0  0  0  0  0  0  0  0  0  0  0  0
   13.3553   -2.8864    0.0000 C   0  0  0  0  0  0  0  0  0  0  0  0
   14.2388   -1.6732    0.0000 C   0  0  0  0  0  0  0  0  0  0  0  0
   13.6303   -0.3021    0.0000 H   0  0  0  0  0  0  0  0  0  0  0  0
   15.7303   -1.8320    0.0000 C   0  0  0  0  0  0  0  0  0  0  0  0
   16.3385   -3.2041    0.0000 C   0  0  0  0  0  0  0  0  0  0  0  0
   17.8297   -3.3655    0.0000 H   0  0  0  0  0  0  0  0  0  0  0  0
   15.4561   -4.4075    0.0000 C   0  0  0  0  0  0  0  0  0  0  0  0
   16.0622   -5.7795    0.0000 H   0  0  0  0  0  0  0  0  0  0  0  0
   13.9645   -4.2486    0.0000 C   0  0  0  0  0  0  0  0  0  0  0  0
   13.0830   -5.4623    0.0000 H   0  0  0  0  0  0  0  0  0  0  0  0
   16.6139   -0.6199    0.0000 C   0  0  0  0  0  0  0  0  0  0  0  0
   18.1054   -0.7790    0.0000 F   0  0  0  0  0  0  0  0  0  0  0  0
   17.0296    0.8214    0.0000 F   0  0  0  0  0  0  0  0  0  0  0  0
   15.2667    0.0398    0.0000 F   0  0  0  0  0  0  0  0  0  0  0  0
    8.1420   -3.1304    0.0000 O   0  0  0  0  0  0  0  0  0  0  0  0
    8.0369   -1.6340    0.0000 H   0  0  0  0  0  0  0  0  0  0  0  0
    4.0791   -5.7825    0.0000 O   0  0  0  0  0  0  0  0  0  0  0  0
    4.3901   -4.3151    0.0000 H   0  0  0  0  0  0  0  0  0  0  0  0
    7.1040   -6.1654    0.0000 O   0  0  0  0  0  0  0  0  0  0  0  0
    8.5958   -6.0090    0.0000 H   0  0  0  0  0  0  0  0  0  0  0  0
    5.0037  -10.6277    0.0000 O   0  0  0  0  0  0  0  0  0  0  0  0
    3.8909  -11.6335    0.0000 H   0  0  0  0  0  0  0  0  0  0  0  0
  1  2  1  0  0  0  0 
  1  3  1  0  0  0  0 
  1  4  1  0  0  0  0 
  1  5  1  0  0  0  0 
  5  6  1  0  0  0  0 
  5  7  1  0  0  0  0 
  7  8  1  0  0  0  0 
  7  9  1  0  0  0  0 
  7 10  1  0  0  0  0 
  5 11  1  0  0  0  0 
 11 12  1  0  0  0  0 
 12 13  2  0  0  0  0 
 12 14  1  0  0  0  0 
 14 15  1  0  0  0  0 
 14 16  1  0  0  0  0 
 14 17  1  0  0  0  0 
 17 18  1  0  0  0  0 
 17 19  1  0  0  0  0 
 17 20  1  0  0  0  0 
 20 21  1  0  0  0  0 
 20 22  1  0  0  0  0 
 20 23  1  0  0  0  0 
 23 24  1  0  0  0  0 
 23 25  2  0  0  0  0 
 25 26  1  0  0  0  0 
 25 27  1  0  0  0  0 
 27 28  1  0  0  0  0 
 27 29  1  0  0  0  0 
 30 27  1  6  0  0  0 
 30 31  1  1  0  0  0 
 30 32  1  0  0  0  0 
 32 33  1  1  0  0  0 
 32 34  1  0  0  0  0 
 34 35  1  0  0  0  0 
 34 36  1  0  0  0  0 
 34 37  1  0  0  0  0 
 37 38  1  1  0  0  0 
 37 39  1  0  0  0  0 
 30 39  1  0  0  0  0 
 39 40  1  1  0  0  0 
 40 41  1  0  0  0  0 
 40 42  2  0  0  0  0 
 42 43  1  0  0  0  0 
 42 44  1  0  0  0  0 
 44 45  1  6  0  0  0 
 44 46  1  0  0  0  0 
 46 47  1  0  0  0  0 
 46 48  1  0  0  0  0 
 46 49  1  0  0  0  0 
 49 50  1  0  0  0  0 
 50 51  2  0  0  0  0 
 51 52  1  0  0  0  0 
 51 53  1  0  0  0  0 
 53 54  2  0  0  0  0 
 54 55  1  0  0  0  0 
 54 56  1  0  0  0  0 
 56 57  1  0  0  0  0 
 56 58  2  0  0  0  0 
 50 58  1  0  0  0  0 
 58 59  1  0  0  0  0 
 53 60  1  0  0  0  0 
 60 61  1  0  0  0  0 
 60 62  1  0  0  0  0 
 60 63  1  0  0  0  0 
 44 64  1  1  0  0  0 
 64 65  1  0  0  0  0 
 39 66  1  6  0  0  0 
 66 67  1  0  0  0  0 
 37 68  1  6  0  0  0 
 68 69  1  0  0  0  0 
 32 70  1  6  0  0  0 
 70 71  1  0  0  0  0 
M  END
> <Rank>
33

> <Priority_score>
0.02

> <Reaction_type>
aliphatic_hydroxylation_(tert_carbon_next_to_SP2)

> <Parent_ID>
10

> <Parent_InChI>
InChI=1S/C26H35F3O6/c1-17(2)35-25(33)11-6-4-3-5-10-21-22(24(32)15-23(21)31)13-12-19(30)16-34-20-9-7-8-18(14-20)26(27,28)29/h3,5,7-9,12-14,17,19,21-24,30-32H,4,6,10-11,15-16H2,1-2H3

> <Parent_SMILES>
CC(C)OC(=O)CCC/C=C\C[C@H]1[C@@H](O)C[C@@H](O)[C@@H]1/C=C/[C@@H](O)COc1cccc(C(F)(F)F)c1

$$$$
Molecule 10_metabolite 36
  CDK     0516241031

 71 73  0  0  0  0  0  0  0  0999 V2000
  -10.5985   -0.9138    0.0000 C   0  0  0  0  0  0  0  0  0  0  0  0
  -11.2977    0.4133    0.0000 H   0  0  0  0  0  0  0  0  0  0  0  0
  -12.0268   -1.3719    0.0000 H   0  0  0  0  0  0  0  0  0  0  0  0
  -10.3954   -2.4000    0.0000 H   0  0  0  0  0  0  0  0  0  0  0  0
   -9.0996   -0.9718    0.0000 C   0  0  0  0  0  0  0  0  0  0  0  0
   -7.6713   -0.5136    0.0000 H   0  0  0  0  0  0  0  0  0  0  0  0
   -9.3028    0.5144    0.0000 C   0  0  0  0  0  0  0  0  0  0  0  0
  -10.6915    1.0815    0.0000 H   0  0  0  0  0  0  0  0  0  0  0  0
   -7.8039    0.4564    0.0000 H   0  0  0  0  0  0  0  0  0  0  0  0
   -8.9854    1.9804    0.0000 H   0  0  0  0  0  0  0  0  0  0  0  0
   -8.4004   -2.2988    0.0000 O   0  0  0  0  0  0  0  0  0  0  0  0
   -6.9016   -2.3568    0.0000 C   0  0  0  0  0  0  0  0  0  0  0  0
   -6.1019   -1.0878    0.0000 O   0  0  0  0  0  0  0  0  0  0  0  0
   -6.2023   -3.6839    0.0000 C   0  0  0  0  0  0  0  0  0  0  0  0
   -7.6307   -4.1420    0.0000 H   0  0  0  0  0  0  0  0  0  0  0  0
   -5.9992   -5.1701    0.0000 H   0  0  0  0  0  0  0  0  0  0  0  0
   -4.7035   -3.7419    0.0000 C   0  0  0  0  0  0  0  0  0  0  0  0
   -3.2751   -3.2837    0.0000 H   0  0  0  0  0  0  0  0  0  0  0  0
   -4.9066   -2.2557    0.0000 H   0  0  0  0  0  0  0  0  0  0  0  0
   -4.0042   -5.0690    0.0000 C   0  0  0  0  0  0  0  0  0  0  0  0
   -2.8188   -4.1499    0.0000 H   0  0  0  0  0  0  0  0  0  0  0  0
   -2.8933   -6.0768    0.0000 H   0  0  0  0  0  0  0  0  0  0  0  0
   -5.0598   -6.7441    0.0000 C   0  0  0  0  0  0  0  0  0  0  0  0
   -6.5587   -6.6861    0.0000 H   0  0  0  0  0  0  0  0  0  0  0  0
   -4.3606   -8.0712    0.0000 C   0  0  0  0  0  0  0  0  0  0  0  0
   -5.1603   -9.3403    0.0000 H   0  0  0  0  0  0  0  0  0  0  0  0
   -1.9024   -8.1663    0.0000 C   0  0  0  0  0  0  0  0  0  0  0  0
   -0.4741   -7.7082    0.0000 H   0  0  0  0  0  0  0  0  0  0  0  0
   -2.1056   -6.6801    0.0000 H   0  0  0  0  0  0  0  0  0  0  0  0
   -0.9795   -9.9180    0.0000 C   0  0  1  0  0  0  0  0  0  0  0  0
   -2.3730  -10.4731    0.0000 H   0  0  0  0  0  0  0  0  0  0  0  0
   -0.5733  -11.3675    0.0000 C   0  0  2  0  0  0  0  0  0  0  0  0
   -2.0511  -11.6243    0.0000 H   0  0  0  0  0  0  0  0  0  0  0  0
    0.9384  -11.4132    0.0000 C   0  0  0  0  0  0  0  0  0  0  0  0
    0.7385  -12.8998    0.0000 H   0  0  0  0  0  0  0  0  0  0  0  0
    2.3964  -11.7655    0.0000 H   0  0  0  0  0  0  0  0  0  0  0  0
    1.4420   -9.9918    0.0000 C   0  0  2  0  0  0  0  0  0  0  0  0
    2.7950  -10.6394    0.0000 H   0  0  0  0  0  0  0  0  0  0  0  0
    0.2663   -9.0825    0.0000 C   0  0  2  0  0  0  0  0  0  0  0  0
    1.3057   -8.0010    0.0000 H   0  0  0  0  0  0  0  0  0  0  0  0
   -1.3148   -7.1979    0.0000 C   0  0  0  0  0  0  0  0  0  0  0  0
   -2.6138   -7.9479    0.0000 H   0  0  0  0  0  0  0  0  0  0  0  0
   -0.3503   -6.0490    0.0000 C   0  0  0  0  0  0  0  0  0  0  0  0
    0.1633   -4.6397    0.0000 H   0  0  0  0  0  0  0  0  0  0  0  0
    2.1953   -7.5198    0.0000 C   0  0  2  0  0  0  0  0  0  0  0  0
    1.2308   -8.6686    0.0000 H   0  0  0  0  0  0  0  0  0  0  0  0
    3.4946   -6.7703    0.0000 C   0  0  0  0  0  0  0  0  0  0  0  0
    4.4591   -5.6215    0.0000 H   0  0  0  0  0  0  0  0  0  0  0  0
    2.5308   -5.6209    0.0000 H   0  0  0  0  0  0  0  0  0  0  0  0
    4.7934   -7.5207    0.0000 O   0  0  0  0  0  0  0  0  0  0  0  0
    6.0927   -6.7711    0.0000 C   0  0  0  0  0  0  0  0  0  0  0  0
    6.0952   -5.2703    0.0000 C   0  0  0  0  0  0  0  0  0  0  0  0
    4.7975   -4.5179    0.0000 H   0  0  0  0  0  0  0  0  0  0  0  0
    7.3957   -4.5229    0.0000 C   0  0  0  0  0  0  0  0  0  0  0  0
    8.6937   -5.2763    0.0000 C   0  0  0  0  0  0  0  0  0  0  0  0
    9.9955   -4.5311    0.0000 H   0  0  0  0  0  0  0  0  0  0  0  0
    8.6862   -6.7684    0.0000 C   0  0  0  0  0  0  0  0  0  0  0  0
    9.9826   -7.5230    0.0000 H   0  0  0  0  0  0  0  0  0  0  0  0
    7.3857   -7.5158    0.0000 C   0  0  0  0  0  0  0  0  0  0  0  0
    7.3850   -9.0158    0.0000 H   0  0  0  0  0  0  0  0  0  0  0  0
    7.3989   -3.0229    0.0000 C   0  0  0  0  0  0  0  0  0  0  0  0
    8.6996   -2.2757    0.0000 F   0  0  0  0  0  0  0  0  0  0  0  0
    6.8889   -1.6122    0.0000 F   0  0  0  0  0  0  0  0  0  0  0  0
    5.9212   -3.2801    0.0000 F   0  0  0  0  0  0  0  0  0  0  0  0
    3.1591   -8.6692    0.0000 O   0  0  0  0  0  0  0  0  0  0  0  0
    4.6364   -8.4092    0.0000 H   0  0  0  0  0  0  0  0  0  0  0  0
   -1.8282   -5.7876    0.0000 O   0  0  0  0  0  0  0  0  0  0  0  0
    2.7621   -9.2794    0.0000 O   0  0  0  0  0  0  0  0  0  0  0  0
    4.0390  -10.0664    0.0000 H   0  0  0  0  0  0  0  0  0  0  0  0
   -0.4670  -12.8637    0.0000 O   0  0  0  0  0  0  0  0  0  0  0  0
   -1.7096  -13.7038    0.0000 H   0  0  0  0  0  0  0  0  0  0  0  0
  1  2  1  0  0  0  0 
  1  3  1  0  0  0  0 
  1  4  1  0  0  0  0 
  1  5  1  0  0  0  0 
  5  6  1  0  0  0  0 
  5  7  1  0  0  0  0 
  7  8  1  0  0  0  0 
  7  9  1  0  0  0  0 
  7 10  1  0  0  0  0 
  5 11  1  0  0  0  0 
 11 12  1  0  0  0  0 
 12 13  2  0  0  0  0 
 12 14  1  0  0  0  0 
 14 15  1  0  0  0  0 
 14 16  1  0  0  0  0 
 14 17  1  0  0  0  0 
 17 18  1  0  0  0  0 
 17 19  1  0  0  0  0 
 17 20  1  0  0  0  0 
 20 21  1  0  0  0  0 
 20 22  1  0  0  0  0 
 20 23  1  0  0  0  0 
 23 24  1  0  0  0  0 
 23 25  2  0  0  0  0 
 25 26  1  0  0  0  0 
 25 27  1  0  0  0  0 
 27 28  1  0  0  0  0 
 27 29  1  0  0  0  0 
 30 27  1  6  0  0  0 
 30 31  1  1  0  0  0 
 30 32  1  0  0  0  0 
 32 33  1  1  0  0  0 
 32 34  1  0  0  0  0 
 34 35  1  0  0  0  0 
 34 36  1  0  0  0  0 
 34 37  1  0  0  0  0 
 37 38  1  1  0  0  0 
 37 39  1  0  0  0  0 
 30 39  1  0  0  0  0 
 39 40  1  6  0  0  0 
 39 41  1  1  0  0  0 
 41 42  1  0  0  0  0 
 41 43  1  0  0  0  0 
 43 44  1  0  0  0  0 
 43 45  1  0  0  0  0 
 45 46  1  1  0  0  0 
 45 47  1  0  0  0  0 
 47 48  1  0  0  0  0 
 47 49  1  0  0  0  0 
 47 50  1  0  0  0  0 
 50 51  1  0  0  0  0 
 51 52  2  0  0  0  0 
 52 53  1  0  0  0  0 
 52 54  1  0  0  0  0 
 54 55  2  0  0  0  0 
 55 56  1  0  0  0  0 
 55 57  1  0  0  0  0 
 57 58  1  0  0  0  0 
 57 59  2  0  0  0  0 
 51 59  1  0  0  0  0 
 59 60  1  0  0  0  0 
 54 61  1  0  0  0  0 
 61 62  1  0  0  0  0 
 61 63  1  0  0  0  0 
 61 64  1  0  0  0  0 
 45 65  1  6  0  0  0 
 65 66  1  0  0  0  0 
 43 67  1  0  0  0  0 
 41 67  1  0  0  0  0 
 37 68  1  6  0  0  0 
 68 69  1  0  0  0  0 
 32 70  1  6  0  0  0 
 70 71  1  0  0  0  0 
M  END
> <Rank>
33

> <Priority_score>
0.02

> <Reaction_type>
epoxidation

> <Parent_ID>
10

> <Parent_InChI>
InChI=1S/C26H35F3O6/c1-17(2)35-25(33)11-6-4-3-5-10-21-22(24(32)15-23(21)31)13-12-19(30)16-34-20-9-7-8-18(14-20)26(27,28)29/h3,5,7-9,12-14,17,19,21-24,30-32H,4,6,10-11,15-16H2,1-2H3

> <Parent_SMILES>
CC(C)OC(=O)CCC/C=C\C[C@H]1[C@@H](O)C[C@@H](O)[C@@H]1/C=C/[C@@H](O)COc1cccc(C(F)(F)F)c1

$$$$
Molecule 10_metabolite 37
  CDK     0516241031

 71 72  0  0  0  0  0  0  0  0999 V2000
  -10.4197   11.5645    0.0000 C   0  0  0  0  0  0  0  0  0  0  0  0
   -9.8118   10.1932    0.0000 H   0  0  0  0  0  0  0  0  0  0  0  0
  -10.5218   13.0610    0.0000 H   0  0  0  0  0  0  0  0  0  0  0  0
   -8.9636   11.9250    0.0000 H   0  0  0  0  0  0  0  0  0  0  0  0
  -11.9112   11.7238    0.0000 C   0  0  0  0  0  0  0  0  0  0  0  0
  -11.8090   10.2272    0.0000 H   0  0  0  0  0  0  0  0  0  0  0  0
  -13.3672   11.3633    0.0000 C   0  0  0  0  0  0  0  0  0  0  0  0
  -13.7830    9.9221    0.0000 H   0  0  0  0  0  0  0  0  0  0  0  0
  -14.8587   11.5225    0.0000 H   0  0  0  0  0  0  0  0  0  0  0  0
  -13.4694   12.8598    0.0000 H   0  0  0  0  0  0  0  0  0  0  0  0
  -12.5190   13.0951    0.0000 O   0  0  0  0  0  0  0  0  0  0  0  0
  -11.6354   14.3072    0.0000 C   0  0  0  0  0  0  0  0  0  0  0  0
  -10.1438   14.1479    0.0000 O   0  0  0  0  0  0  0  0  0  0  0  0
  -12.2432   15.6785    0.0000 C   0  0  0  0  0  0  0  0  0  0  0  0
  -13.2834   16.7592    0.0000 H   0  0  0  0  0  0  0  0  0  0  0  0
  -13.4881   14.8417    0.0000 H   0  0  0  0  0  0  0  0  0  0  0  0
  -11.3595   16.8905    0.0000 C   0  0  0  0  0  0  0  0  0  0  0  0
  -12.7066   17.5503    0.0000 H   0  0  0  0  0  0  0  0  0  0  0  0
  -10.9437   18.3318    0.0000 H   0  0  0  0  0  0  0  0  0  0  0  0
   -9.8680   16.7313    0.0000 C   0  0  0  0  0  0  0  0  0  0  0  0
   -8.5209   16.0715    0.0000 H   0  0  0  0  0  0  0  0  0  0  0  0
  -10.2838   15.2901    0.0000 H   0  0  0  0  0  0  0  0  0  0  0  0
   -8.9843   17.9434    0.0000 C   0  0  0  0  0  0  0  0  0  0  0  0
   -9.5922   19.3147    0.0000 H   0  0  0  0  0  0  0  0  0  0  0  0
   -7.0155   17.7332    0.0000 C   0  0  0  0  0  0  0  0  0  0  0  0
   -6.1319   18.9452    0.0000 H   0  0  0  0  0  0  0  0  0  0  0  0
   -6.0187   15.4842    0.0000 C   0  0  0  0  0  0  0  0  0  0  0  0
   -7.4747   15.1237    0.0000 H   0  0  0  0  0  0  0  0  0  0  0  0
   -5.9165   13.9877    0.0000 H   0  0  0  0  0  0  0  0  0  0  0  0
   -4.0498   15.2740    0.0000 C   0  0  2  0  0  0  0  0  0  0  0  0
   -4.3674   13.8080    0.0000 H   0  0  0  0  0  0  0  0  0  0  0  0
   -2.6242   14.8011    0.0000 C   0  0  1  0  0  0  0  0  0  0  0  0
   -3.2373   13.4321    0.0000 H   0  0  0  0  0  0  0  0  0  0  0  0
   -0.9078   13.8139    0.0000 C   0  0  0  0  0  0  0  0  0  0  0  0
    0.3900   14.5661    0.0000 H   0  0  0  0  0  0  0  0  0  0  0  0
   -0.9053   12.3139    0.0000 C   0  0  0  0  0  0  0  0  0  0  0  0
   -2.2031   11.5618    0.0000 H   0  0  0  0  0  0  0  0  0  0  0  0
    0.3950   11.5661    0.0000 C   0  0  2  0  0  0  0  0  0  0  0  0
    1.8727   11.3081    0.0000 H   0  0  0  0  0  0  0  0  0  0  0  0
    0.3975   10.0661    0.0000 C   0  0  0  0  0  0  0  0  0  0  0  0
   -1.0801   10.3241    0.0000 H   0  0  0  0  0  0  0  0  0  0  0  0
   -0.1131    8.6557    0.0000 H   0  0  0  0  0  0  0  0  0  0  0  0
    1.6978    9.3183    0.0000 O   0  0  0  0  0  0  0  0  0  0  0  0
    1.7003    7.8183    0.0000 C   0  0  0  0  0  0  0  0  0  0  0  0
    3.0003    7.0683    0.0000 C   0  0  0  0  0  0  0  0  0  0  0  0
    4.2992    7.8185    0.0000 H   0  0  0  0  0  0  0  0  0  0  0  0
    3.0003    5.5683    0.0000 C   0  0  0  0  0  0  0  0  0  0  0  0
    1.7003    4.8183    0.0000 C   0  0  0  0  0  0  0  0  0  0  0  0
    1.6978    3.3183    0.0000 H   0  0  0  0  0  0  0  0  0  0  0  0
    0.4103    5.5683    0.0000 C   0  0  0  0  0  0  0  0  0  0  0  0
   -0.8898    4.8203    0.0000 H   0  0  0  0  0  0  0  0  0  0  0  0
    0.4103    7.0683    0.0000 C   0  0  0  0  0  0  0  0  0  0  0  0
   -0.8898    7.8163    0.0000 H   0  0  0  0  0  0  0  0  0  0  0  0
    4.2992    4.8181    0.0000 C   0  0  0  0  0  0  0  0  0  0  0  0
    4.2990    3.3181    0.0000 F   0  0  0  0  0  0  0  0  0  0  0  0
    5.7764    4.5574    0.0000 F   0  0  0  0  0  0  0  0  0  0  0  0
    4.8125    6.2276    0.0000 F   0  0  0  0  0  0  0  0  0  0  0  0
    0.9057   12.9765    0.0000 O   0  0  0  0  0  0  0  0  0  0  0  0
    2.3825   13.2395    0.0000 H   0  0  0  0  0  0  0  0  0  0  0  0
   -1.7481   16.0212    0.0000 C   0  0  1  0  0  0  0  0  0  0  0  0
   -2.6240   17.2298    0.0000 C   0  0  0  0  0  0  0  0  0  0  0  0
   -1.3243   17.9786    0.0000 H   0  0  0  0  0  0  0  0  0  0  0  0
   -3.2334   18.6004    0.0000 H   0  0  0  0  0  0  0  0  0  0  0  0
   -4.0507   16.7667    0.0000 C   0  0  2  0  0  0  0  0  0  0  0  0
   -4.3626   18.2339    0.0000 H   0  0  0  0  0  0  0  0  0  0  0  0
   -5.4213   17.3763    0.0000 O   0  0  0  0  0  0  0  0  0  0  0  0
   -5.6792   19.8228    0.0000 H   0  0  0  0  0  0  0  0  0  0  0  0
   -0.6300   15.0212    0.0000 O   0  0  0  0  0  0  0  0  0  0  0  0
    0.7950   15.4895    0.0000 H   0  0  0  0  0  0  0  0  0  0  0  0
   -0.6345   17.0261    0.0000 O   0  0  0  0  0  0  0  0  0  0  0  0
    0.7926   16.5641    0.0000 H   0  0  0  0  0  0  0  0  0  0  0  0
  1  2  1  0  0  0  0 
  1  3  1  0  0  0  0 
  1  4  1  0  0  0  0 
  1  5  1  0  0  0  0 
  5  6  1  0  0  0  0 
  5  7  1  0  0  0  0 
  7  8  1  0  0  0  0 
  7  9  1  0  0  0  0 
  7 10  1  0  0  0  0 
  5 11  1  0  0  0  0 
 11 12  1  0  0  0  0 
 12 13  2  0  0  0  0 
 12 14  1  0  0  0  0 
 14 15  1  0  0  0  0 
 14 16  1  0  0  0  0 
 14 17  1  0  0  0  0 
 17 18  1  0  0  0  0 
 17 19  1  0  0  0  0 
 17 20  1  0  0  0  0 
 20 21  1  0  0  0  0 
 20 22  1  0  0  0  0 
 20 23  1  0  0  0  0 
 23 24  1  0  0  0  0 
 23 25  2  0  0  0  0 
 25 26  1  0  0  0  0 
 25 27  1  0  0  0  0 
 27 28  1  0  0  0  0 
 27 29  1  0  0  0  0 
 30 27  1  1  0  0  0 
 30 31  1  6  0  0  0 
 30 32  1  0  0  0  0 
 32 33  1  1  0  0  0 
 32 34  1  6  0  0  0 
 34 35  1  0  0  0  0 
 34 36  2  0  0  0  0 
 36 37  1  0  0  0  0 
 36 38  1  0  0  0  0 
 38 39  1  6  0  0  0 
 38 40  1  0  0  0  0 
 40 41  1  0  0  0  0 
 40 42  1  0  0  0  0 
 40 43  1  0  0  0  0 
 43 44  1  0  0  0  0 
 44 45  2  0  0  0  0 
 45 46  1  0  0  0  0 
 45 47  1  0  0  0  0 
 47 48  2  0  0  0  0 
 48 49  1  0  0  0  0 
 48 50  1  0  0  0  0 
 50 51  1  0  0  0  0 
 50 52  2  0  0  0  0 
 44 52  1  0  0  0  0 
 52 53  1  0  0  0  0 
 47 54  1  0  0  0  0 
 54 55  1  0  0  0  0 
 54 56  1  0  0  0  0 
 54 57  1  0  0  0  0 
 38 58  1  1  0  0  0 
 58 59  1  0  0  0  0 
 32 60  1  0  0  0  0 
 60 61  1  0  0  0  0 
 61 62  1  0  0  0  0 
 61 63  1  0  0  0  0 
 61 64  1  0  0  0  0 
 30 64  1  0  0  0  0 
 64 65  1  6  0  0  0 
 64 66  1  1  0  0  0 
 66 67  1  0  0  0  0 
 60 68  1  1  0  0  0 
 68 69  1  0  0  0  0 
 60 70  1  6  0  0  0 
 70 71  1  0  0  0  0 
M  END
> <Rank>
33

> <Priority_score>
0.02

> <Reaction_type>
aliphatic hydroxylation

> <Parent_ID>
10

> <Parent_InChI>
InChI=1S/C26H35F3O6/c1-17(2)35-25(33)11-6-4-3-5-10-21-22(24(32)15-23(21)31)13-12-19(30)16-34-20-9-7-8-18(14-20)26(27,28)29/h3,5,7-9,12-14,17,19,21-24,30-32H,4,6,10-11,15-16H2,1-2H3

> <Parent_SMILES>
CC(C)OC(=O)CCC/C=C\C[C@H]1[C@@H](O)C[C@@H](O)[C@@H]1/C=C/[C@@H](O)COc1cccc(C(F)(F)F)c1

$$$$
Molecule 10_metabolite 38
  CDK     0516241031

 71 72  0  0  0  0  0  0  0  0999 V2000
  -16.2772   15.1832    0.0000 C   0  0  0  0  0  0  0  0  0  0  0  0
  -17.7704   15.3265    0.0000 H   0  0  0  0  0  0  0  0  0  0  0  0
  -14.8251   15.5591    0.0000 H   0  0  0  0  0  0  0  0  0  0  0  0
  -16.3953   16.6785    0.0000 H   0  0  0  0  0  0  0  0  0  0  0  0
  -15.6548   13.8184    0.0000 C   0  0  0  0  0  0  0  0  0  0  0  0
  -17.1069   13.4424    0.0000 H   0  0  0  0  0  0  0  0  0  0  0  0
  -15.5367   12.3230    0.0000 C   0  0  0  0  0  0  0  0  0  0  0  0
  -16.7727   11.4731    0.0000 H   0  0  0  0  0  0  0  0  0  0  0  0
  -14.9143   10.9583    0.0000 H   0  0  0  0  0  0  0  0  0  0  0  0
  -14.0846   12.6990    0.0000 H   0  0  0  0  0  0  0  0  0  0  0  0
  -14.1617   13.6750    0.0000 O   0  0  0  0  0  0  0  0  0  0  0  0
  -13.2910   14.8964    0.0000 C   0  0  0  0  0  0  0  0  0  0  0  0
  -13.9134   16.2612    0.0000 O   0  0  0  0  0  0  0  0  0  0  0  0
  -11.7978   14.7530    0.0000 C   0  0  0  0  0  0  0  0  0  0  0  0
  -10.4438   14.1076    0.0000 H   0  0  0  0  0  0  0  0  0  0  0  0
  -12.1983   13.3075    0.0000 H   0  0  0  0  0  0  0  0  0  0  0  0
  -10.9271   15.9745    0.0000 C   0  0  0  0  0  0  0  0  0  0  0  0
  -12.2812   16.6199    0.0000 H   0  0  0  0  0  0  0  0  0  0  0  0
  -10.5266   17.4200    0.0000 H   0  0  0  0  0  0  0  0  0  0  0  0
   -8.9562   15.7852    0.0000 C   0  0  0  0  0  0  0  0  0  0  0  0
   -7.6021   15.1398    0.0000 H   0  0  0  0  0  0  0  0  0  0  0  0
   -9.3566   14.3397    0.0000 H   0  0  0  0  0  0  0  0  0  0  0  0
   -8.0854   17.0066    0.0000 C   0  0  0  0  0  0  0  0  0  0  0  0
   -8.7078   18.3714    0.0000 H   0  0  0  0  0  0  0  0  0  0  0  0
   -6.1145   16.8174    0.0000 C   0  0  0  0  0  0  0  0  0  0  0  0
   -5.2438   18.0388    0.0000 H   0  0  0  0  0  0  0  0  0  0  0  0
   -5.2929   15.0159    0.0000 C   0  0  0  0  0  0  0  0  0  0  0  0
   -6.7451   14.6399    0.0000 H   0  0  0  0  0  0  0  0  0  0  0  0
   -2.8442   14.7807    0.0000 C   0  0  2  0  0  0  0  0  0  0  0  0
   -3.1466   13.3115    0.0000 H   0  0  0  0  0  0  0  0  0  0  0  0
   -1.4158   14.3228    0.0000 C   0  0  1  0  0  0  0  0  0  0  0  0
   -2.0221   12.9508    0.0000 H   0  0  0  0  0  0  0  0  0  0  0  0
    0.3006   13.3357    0.0000 C   0  0  0  0  0  0  0  0  0  0  0  0
    1.5984   14.0879    0.0000 H   0  0  0  0  0  0  0  0  0  0  0  0
    0.3031   11.8357    0.0000 C   0  0  0  0  0  0  0  0  0  0  0  0
   -0.9947   11.0835    0.0000 H   0  0  0  0  0  0  0  0  0  0  0  0
    1.6034   11.0879    0.0000 C   0  0  2  0  0  0  0  0  0  0  0  0
    3.0810   10.8299    0.0000 H   0  0  0  0  0  0  0  0  0  0  0  0
    1.6059    9.5879    0.0000 C   0  0  0  0  0  0  0  0  0  0  0  0
    0.1283    9.8459    0.0000 H   0  0  0  0  0  0  0  0  0  0  0  0
    1.0952    8.1775    0.0000 H   0  0  0  0  0  0  0  0  0  0  0  0
    2.9062    8.8401    0.0000 O   0  0  0  0  0  0  0  0  0  0  0  0
    2.9087    7.3401    0.0000 C   0  0  0  0  0  0  0  0  0  0  0  0
    4.2087    6.5901    0.0000 C   0  0  0  0  0  0  0  0  0  0  0  0
    5.5076    7.3403    0.0000 H   0  0  0  0  0  0  0  0  0  0  0  0
    4.2087    5.0901    0.0000 C   0  0  0  0  0  0  0  0  0  0  0  0
    2.9087    4.3401    0.0000 C   0  0  0  0  0  0  0  0  0  0  0  0
    2.9062    2.8401    0.0000 H   0  0  0  0  0  0  0  0  0  0  0  0
    1.6187    5.0901    0.0000 C   0  0  0  0  0  0  0  0  0  0  0  0
    0.3185    4.3420    0.0000 H   0  0  0  0  0  0  0  0  0  0  0  0
    1.6187    6.5901    0.0000 C   0  0  0  0  0  0  0  0  0  0  0  0
    0.3185    7.3381    0.0000 H   0  0  0  0  0  0  0  0  0  0  0  0
    5.5076    4.3399    0.0000 C   0  0  0  0  0  0  0  0  0  0  0  0
    5.5074    2.8399    0.0000 F   0  0  0  0  0  0  0  0  0  0  0  0
    6.9848    4.0792    0.0000 F   0  0  0  0  0  0  0  0  0  0  0  0
    6.0209    5.7493    0.0000 F   0  0  0  0  0  0  0  0  0  0  0  0
    2.1141   12.4983    0.0000 O   0  0  0  0  0  0  0  0  0  0  0  0
    3.5908   12.7612    0.0000 H   0  0  0  0  0  0  0  0  0  0  0  0
   -0.5317   15.5411    0.0000 C   0  0  1  0  0  0  0  0  0  0  0  0
    0.5871   14.5420    0.0000 H   0  0  0  0  0  0  0  0  0  0  0  0
   -1.4343   16.7546    0.0000 C   0  0  0  0  0  0  0  0  0  0  0  0
   -0.1448   17.5208    0.0000 H   0  0  0  0  0  0  0  0  0  0  0  0
   -2.0633   18.1163    0.0000 H   0  0  0  0  0  0  0  0  0  0  0  0
   -2.8613   16.2669    0.0000 C   0  0  2  0  0  0  0  0  0  0  0  0
   -3.1936   17.7297    0.0000 H   0  0  0  0  0  0  0  0  0  0  0  0
   -4.3510   16.0911    0.0000 O   0  0  0  0  0  0  0  0  0  0  0  0
   -6.1092   18.4475    0.0000 H   0  0  0  0  0  0  0  0  0  0  0  0
    0.5753   16.5533    0.0000 O   0  0  0  0  0  0  0  0  0  0  0  0
    2.0054   16.1007    0.0000 H   0  0  0  0  0  0  0  0  0  0  0  0
   -5.1748   13.5205    0.0000 O   0  0  0  0  0  0  0  0  0  0  0  0
   -6.4108   12.6706    0.0000 H   0  0  0  0  0  0  0  0  0  0  0  0
  1  2  1  0  0  0  0 
  1  3  1  0  0  0  0 
  1  4  1  0  0  0  0 
  1  5  1  0  0  0  0 
  5  6  1  0  0  0  0 
  5  7  1  0  0  0  0 
  7  8  1  0  0  0  0 
  7  9  1  0  0  0  0 
  7 10  1  0  0  0  0 
  5 11  1  0  0  0  0 
 11 12  1  0  0  0  0 
 12 13  2  0  0  0  0 
 12 14  1  0  0  0  0 
 14 15  1  0  0  0  0 
 14 16  1  0  0  0  0 
 14 17  1  0  0  0  0 
 17 18  1  0  0  0  0 
 17 19  1  0  0  0  0 
 17 20  1  0  0  0  0 
 20 21  1  0  0  0  0 
 20 22  1  0  0  0  0 
 20 23  1  0  0  0  0 
 23 24  1  0  0  0  0 
 23 25  2  0  0  0  0 
 25 26  1  0  0  0  0 
 25 27  1  0  0  0  0 
 27 28  1  0  0  0  0 
 29 27  1  1  0  0  0 
 29 30  1  6  0  0  0 
 29 31  1  0  0  0  0 
 31 32  1  1  0  0  0 
 31 33  1  6  0  0  0 
 33 34  1  0  0  0  0 
 33 35  2  0  0  0  0 
 35 36  1  0  0  0  0 
 35 37  1  0  0  0  0 
 37 38  1  6  0  0  0 
 37 39  1  0  0  0  0 
 39 40  1  0  0  0  0 
 39 41  1  0  0  0  0 
 39 42  1  0  0  0  0 
 42 43  1  0  0  0  0 
 43 44  2  0  0  0  0 
 44 45  1  0  0  0  0 
 44 46  1  0  0  0  0 
 46 47  2  0  0  0  0 
 47 48  1  0  0  0  0 
 47 49  1  0  0  0  0 
 49 50  1  0  0  0  0 
 49 51  2  0  0  0  0 
 43 51  1  0  0  0  0 
 51 52  1  0  0  0  0 
 46 53  1  0  0  0  0 
 53 54  1  0  0  0  0 
 53 55  1  0  0  0  0 
 53 56  1  0  0  0  0 
 37 57  1  1  0  0  0 
 57 58  1  0  0  0  0 
 31 59  1  0  0  0  0 
 59 60  1  6  0  0  0 
 59 61  1  0  0  0  0 
 61 62  1  0  0  0  0 
 61 63  1  0  0  0  0 
 61 64  1  0  0  0  0 
 29 64  1  0  0  0  0 
 64 65  1  6  0  0  0 
 64 66  1  1  0  0  0 
 66 67  1  0  0  0  0 
 59 68  1  1  0  0  0 
 68 69  1  0  0  0  0 
 27 70  1  0  0  0  0 
 70 71  1  0  0  0  0 
M  END
> <Rank>
38

> <Priority_score>
0.016

> <Reaction_type>
aliphatic_hydroxylation_(sec_carbon_next_to_SP2,not_in_a_ring)

> <Parent_ID>
10

> <Parent_InChI>
InChI=1S/C26H35F3O6/c1-17(2)35-25(33)11-6-4-3-5-10-21-22(24(32)15-23(21)31)13-12-19(30)16-34-20-9-7-8-18(14-20)26(27,28)29/h3,5,7-9,12-14,17,19,21-24,30-32H,4,6,10-11,15-16H2,1-2H3

> <Parent_SMILES>
CC(C)OC(=O)CCC/C=C\C[C@H]1[C@@H](O)C[C@@H](O)[C@@H]1/C=C/[C@@H](O)COc1cccc(C(F)(F)F)c1

$$$$
Molecule 10_metabolite 39
  CDK     0516241031

 68 69  0  0  0  0  0  0  0  0999 V2000
  -22.7871   12.7163    0.0000 C   0  0  0  0  0  0  0  0  0  0  0  0
  -23.4096   14.0811    0.0000 H   0  0  0  0  0  0  0  0  0  0  0  0
  -21.7355   11.6467    0.0000 H   0  0  0  0  0  0  0  0  0  0  0  0
  -21.5512   13.5662    0.0000 H   0  0  0  0  0  0  0  0  0  0  0  0
  -23.6579   11.4949    0.0000 C   0  0  0  0  0  0  0  0  0  0  0  0
  -24.7095   12.5645    0.0000 H   0  0  0  0  0  0  0  0  0  0  0  0
  -24.8938   10.6449    0.0000 C   0  0  0  0  0  0  0  0  0  0  0  0
  -26.2479   11.2903    0.0000 H   0  0  0  0  0  0  0  0  0  0  0  0
  -25.7646    9.4235    0.0000 H   0  0  0  0  0  0  0  0  0  0  0  0
  -23.8422    9.5753    0.0000 H   0  0  0  0  0  0  0  0  0  0  0  0
  -23.0355   10.1301    0.0000 O   0  0  0  0  0  0  0  0  0  0  0  0
  -21.5423    9.9867    0.0000 C   0  0  0  0  0  0  0  0  0  0  0  0
  -20.6716   11.2081    0.0000 O   0  0  0  0  0  0  0  0  0  0  0  0
  -20.9199    8.6220    0.0000 C   0  0  0  0  0  0  0  0  0  0  0  0
  -20.8018    7.1266    0.0000 H   0  0  0  0  0  0  0  0  0  0  0  0
  -22.3720    8.2460    0.0000 H   0  0  0  0  0  0  0  0  0  0  0  0
  -19.4268    8.4786    0.0000 C   0  0  0  0  0  0  0  0  0  0  0  0
  -19.8273    7.0330    0.0000 H   0  0  0  0  0  0  0  0  0  0  0  0
  -18.0727    7.8332    0.0000 H   0  0  0  0  0  0  0  0  0  0  0  0
  -18.5561    9.7000    0.0000 C   0  0  0  0  0  0  0  0  0  0  0  0
  -18.1556   11.1456    0.0000 H   0  0  0  0  0  0  0  0  0  0  0  0
  -19.9101   10.3454    0.0000 H   0  0  0  0  0  0  0  0  0  0  0  0
  -17.0629    9.5566    0.0000 C   0  0  0  0  0  0  0  0  0  0  0  0
  -16.4405    8.1919    0.0000 H   0  0  0  0  0  0  0  0  0  0  0  0
  -15.9136   11.1689    0.0000 C   0  0  0  0  0  0  0  0  0  0  0  0
  -14.4204   11.0255    0.0000 H   0  0  0  0  0  0  0  0  0  0  0  0
  -16.7352   12.9704    0.0000 C   0  0  0  0  0  0  0  0  0  0  0  0
  -17.9711   12.1205    0.0000 H   0  0  0  0  0  0  0  0  0  0  0  0
  -17.7868   14.0400    0.0000 H   0  0  0  0  0  0  0  0  0  0  0  0
  -15.8644   14.1918    0.0000 C   0  0  2  0  0  0  0  0  0  0  0  0
  -14.7432   13.1953    0.0000 H   0  0  0  0  0  0  0  0  0  0  0  0
  -14.7537   15.1999    0.0000 C   0  0  1  0  0  0  0  0  0  0  0  0
  -13.8686   13.9888    0.0000 H   0  0  0  0  0  0  0  0  0  0  0  0
  -13.0406   16.1927    0.0000 C   0  0  0  0  0  0  0  0  0  0  0  0
  -13.0431   17.6927    0.0000 H   0  0  0  0  0  0  0  0  0  0  0  0
  -11.7403   15.4449    0.0000 C   0  0  0  0  0  0  0  0  0  0  0  0
  -11.7378   13.9449    0.0000 H   0  0  0  0  0  0  0  0  0  0  0  0
  -10.4425   16.1971    0.0000 C   0  0  2  0  0  0  0  0  0  0  0  0
   -9.4803   17.3478    0.0000 H   0  0  0  0  0  0  0  0  0  0  0  0
   -9.1422   15.4493    0.0000 C   0  0  0  0  0  0  0  0  0  0  0  0
  -10.1045   14.2986    0.0000 H   0  0  0  0  0  0  0  0  0  0  0  0
   -8.1761   14.3018    0.0000 H   0  0  0  0  0  0  0  0  0  0  0  0
   -7.8445   16.2014    0.0000 O   0  0  0  0  0  0  0  0  0  0  0  0
   -6.5442   15.4536    0.0000 C   0  0  0  0  0  0  0  0  0  0  0  0
   -5.2446   16.2045    0.0000 C   0  0  0  0  0  0  0  0  0  0  0  0
   -5.2449   17.7045    0.0000 H   0  0  0  0  0  0  0  0  0  0  0  0
   -3.9456   15.4545    0.0000 C   0  0  0  0  0  0  0  0  0  0  0  0
   -3.9461   13.9536    0.0000 C   0  0  0  0  0  0  0  0  0  0  0  0
   -2.6483   13.2014    0.0000 H   0  0  0  0  0  0  0  0  0  0  0  0
   -5.2406   13.2114    0.0000 C   0  0  0  0  0  0  0  0  0  0  0  0
   -5.2429   11.7114    0.0000 H   0  0  0  0  0  0  0  0  0  0  0  0
   -6.5396   13.9614    0.0000 C   0  0  0  0  0  0  0  0  0  0  0  0
   -7.8375   13.2095    0.0000 H   0  0  0  0  0  0  0  0  0  0  0  0
   -2.6464   16.2042    0.0000 C   0  0  0  0  0  0  0  0  0  0  0  0
   -1.3475   15.4540    0.0000 F   0  0  0  0  0  0  0  0  0  0  0  0
   -1.6821   17.3532    0.0000 F   0  0  0  0  0  0  0  0  0  0  0  0
   -3.6104   17.3535    0.0000 F   0  0  0  0  0  0  0  0  0  0  0  0
  -11.4086   17.3445    0.0000 O   0  0  0  0  0  0  0  0  0  0  0  0
  -10.8980   18.7549    0.0000 H   0  0  0  0  0  0  0  0  0  0  0  0
  -15.3667   16.5747    0.0000 C   0  0  1  0  0  0  0  0  0  0  0  0
  -13.9420   17.0440    0.0000 H   0  0  0  0  0  0  0  0  0  0  0  0
  -16.8689   16.3997    0.0000 C   0  0  0  0  0  0  0  0  0  0  0  0
  -16.8877   17.8996    0.0000 H   0  0  0  0  0  0  0  0  0  0  0  0
  -18.3627   16.5358    0.0000 H   0  0  0  0  0  0  0  0  0  0  0  0
  -17.1601   14.9201    0.0000 C   0  0  0  0  0  0  0  0  0  0  0  0
  -18.5221   14.2917    0.0000 O   0  0  0  0  0  0  0  0  0  0  0  0
  -15.6898   18.0394    0.0000 O   0  0  0  0  0  0  0  0  0  0  0  0
  -14.5828   19.0517    0.0000 H   0  0  0  0  0  0  0  0  0  0  0  0
  1  2  1  0  0  0  0 
  1  3  1  0  0  0  0 
  1  4  1  0  0  0  0 
  1  5  1  0  0  0  0 
  5  6  1  0  0  0  0 
  5  7  1  0  0  0  0 
  7  8  1  0  0  0  0 
  7  9  1  0  0  0  0 
  7 10  1  0  0  0  0 
  5 11  1  0  0  0  0 
 11 12  1  0  0  0  0 
 12 13  2  0  0  0  0 
 12 14  1  0  0  0  0 
 14 15  1  0  0  0  0 
 14 16  1  0  0  0  0 
 14 17  1  0  0  0  0 
 17 18  1  0  0  0  0 
 17 19  1  0  0  0  0 
 17 20  1  0  0  0  0 
 20 21  1  0  0  0  0 
 20 22  1  0  0  0  0 
 20 23  1  0  0  0  0 
 23 24  1  0  0  0  0 
 23 25  2  0  0  0  0 
 25 26  1  0  0  0  0 
 25 27  1  0  0  0  0 
 27 28  1  0  0  0  0 
 27 29  1  0  0  0  0 
 30 27  1  1  0  0  0 
 30 31  1  6  0  0  0 
 30 32  1  0  0  0  0 
 32 33  1  1  0  0  0 
 32 34  1  6  0  0  0 
 34 35  1  0  0  0  0 
 34 36  2  0  0  0  0 
 36 37  1  0  0  0  0 
 36 38  1  0  0  0  0 
 38 39  1  6  0  0  0 
 38 40  1  0  0  0  0 
 40 41  1  0  0  0  0 
 40 42  1  0  0  0  0 
 40 43  1  0  0  0  0 
 43 44  1  0  0  0  0 
 44 45  2  0  0  0  0 
 45 46  1  0  0  0  0 
 45 47  1  0  0  0  0 
 47 48  2  0  0  0  0 
 48 49  1  0  0  0  0 
 48 50  1  0  0  0  0 
 50 51  1  0  0  0  0 
 50 52  2  0  0  0  0 
 44 52  1  0  0  0  0 
 52 53  1  0  0  0  0 
 47 54  1  0  0  0  0 
 54 55  1  0  0  0  0 
 54 56  1  0  0  0  0 
 54 57  1  0  0  0  0 
 38 58  1  1  0  0  0 
 58 59  1  0  0  0  0 
 32 60  1  0  0  0  0 
 60 61  1  6  0  0  0 
 60 62  1  0  0  0  0 
 62 63  1  0  0  0  0 
 62 64  1  0  0  0  0 
 62 65  1  0  0  0  0 
 30 65  1  0  0  0  0 
 65 66  2  0  0  0  0 
 60 67  1  1  0  0  0 
 67 68  1  0  0  0  0 
M  END
> <Rank>
38

> <Priority_score>
0.016

> <Reaction_type>
secondary_alcohol_oxidation_(aliphatic)

> <Parent_ID>
10

> <Parent_InChI>
InChI=1S/C26H35F3O6/c1-17(2)35-25(33)11-6-4-3-5-10-21-22(24(32)15-23(21)31)13-12-19(30)16-34-20-9-7-8-18(14-20)26(27,28)29/h3,5,7-9,12-14,17,19,21-24,30-32H,4,6,10-11,15-16H2,1-2H3

> <Parent_SMILES>
CC(C)OC(=O)CCC/C=C\C[C@H]1[C@@H](O)C[C@@H](O)[C@@H]1/C=C/[C@@H](O)COc1cccc(C(F)(F)F)c1

$$$$
Molecule 10_metabolite 40
  CDK     0516241031

 71 72  0  0  0  0  0  0  0  0999 V2000
  -10.4197   11.5645    0.0000 C   0  0  0  0  0  0  0  0  0  0  0  0
   -9.8118   10.1932    0.0000 H   0  0  0  0  0  0  0  0  0  0  0  0
  -10.5218   13.0610    0.0000 H   0  0  0  0  0  0  0  0  0  0  0  0
   -8.9636   11.9250    0.0000 H   0  0  0  0  0  0  0  0  0  0  0  0
  -11.9112   11.7238    0.0000 C   0  0  0  0  0  0  0  0  0  0  0  0
  -11.8090   10.2272    0.0000 H   0  0  0  0  0  0  0  0  0  0  0  0
  -13.3672   11.3633    0.0000 C   0  0  0  0  0  0  0  0  0  0  0  0
  -13.7830    9.9221    0.0000 H   0  0  0  0  0  0  0  0  0  0  0  0
  -14.8587   11.5225    0.0000 H   0  0  0  0  0  0  0  0  0  0  0  0
  -13.4694   12.8598    0.0000 H   0  0  0  0  0  0  0  0  0  0  0  0
  -12.5190   13.0951    0.0000 O   0  0  0  0  0  0  0  0  0  0  0  0
  -11.6354   14.3072    0.0000 C   0  0  0  0  0  0  0  0  0  0  0  0
  -10.1438   14.1479    0.0000 O   0  0  0  0  0  0  0  0  0  0  0  0
  -12.2432   15.6785    0.0000 C   0  0  0  0  0  0  0  0  0  0  0  0
  -13.2834   16.7592    0.0000 H   0  0  0  0  0  0  0  0  0  0  0  0
  -13.4881   14.8417    0.0000 H   0  0  0  0  0  0  0  0  0  0  0  0
  -11.3595   16.8905    0.0000 C   0  0  0  0  0  0  0  0  0  0  0  0
  -12.7066   17.5503    0.0000 H   0  0  0  0  0  0  0  0  0  0  0  0
  -10.9437   18.3318    0.0000 H   0  0  0  0  0  0  0  0  0  0  0  0
   -9.8680   16.7313    0.0000 C   0  0  0  0  0  0  0  0  0  0  0  0
   -8.5209   16.0715    0.0000 H   0  0  0  0  0  0  0  0  0  0  0  0
  -10.2838   15.2901    0.0000 H   0  0  0  0  0  0  0  0  0  0  0  0
   -8.9843   17.9434    0.0000 C   0  0  0  0  0  0  0  0  0  0  0  0
   -9.5922   19.3147    0.0000 H   0  0  0  0  0  0  0  0  0  0  0  0
   -7.0155   17.7332    0.0000 C   0  0  0  0  0  0  0  0  0  0  0  0
   -6.1319   18.9452    0.0000 H   0  0  0  0  0  0  0  0  0  0  0  0
   -6.0187   15.4842    0.0000 C   0  0  0  0  0  0  0  0  0  0  0  0
   -7.4747   15.1237    0.0000 H   0  0  0  0  0  0  0  0  0  0  0  0
   -5.9165   13.9877    0.0000 H   0  0  0  0  0  0  0  0  0  0  0  0
   -4.0498   15.2740    0.0000 C   0  0  2  0  0  0  0  0  0  0  0  0
   -4.3674   13.8080    0.0000 H   0  0  0  0  0  0  0  0  0  0  0  0
   -2.6242   14.8011    0.0000 C   0  0  1  0  0  0  0  0  0  0  0  0
   -3.2373   13.4321    0.0000 H   0  0  0  0  0  0  0  0  0  0  0  0
   -0.9078   13.8139    0.0000 C   0  0  0  0  0  0  0  0  0  0  0  0
    0.3900   14.5661    0.0000 H   0  0  0  0  0  0  0  0  0  0  0  0
   -0.9053   12.3139    0.0000 C   0  0  0  0  0  0  0  0  0  0  0  0
   -2.2031   11.5618    0.0000 H   0  0  0  0  0  0  0  0  0  0  0  0
    0.3950   11.5661    0.0000 C   0  0  2  0  0  0  0  0  0  0  0  0
    1.8727   11.3081    0.0000 H   0  0  0  0  0  0  0  0  0  0  0  0
    0.3975   10.0661    0.0000 C   0  0  0  0  0  0  0  0  0  0  0  0
   -1.0801   10.3241    0.0000 H   0  0  0  0  0  0  0  0  0  0  0  0
   -0.1131    8.6557    0.0000 H   0  0  0  0  0  0  0  0  0  0  0  0
    1.6978    9.3183    0.0000 O   0  0  0  0  0  0  0  0  0  0  0  0
    1.7003    7.8183    0.0000 C   0  0  0  0  0  0  0  0  0  0  0  0
    3.0003    7.0683    0.0000 C   0  0  0  0  0  0  0  0  0  0  0  0
    4.2992    7.8185    0.0000 H   0  0  0  0  0  0  0  0  0  0  0  0
    3.0003    5.5683    0.0000 C   0  0  0  0  0  0  0  0  0  0  0  0
    1.7003    4.8183    0.0000 C   0  0  0  0  0  0  0  0  0  0  0  0
    1.6978    3.3183    0.0000 H   0  0  0  0  0  0  0  0  0  0  0  0
    0.4103    5.5683    0.0000 C   0  0  0  0  0  0  0  0  0  0  0  0
   -0.8898    4.8203    0.0000 H   0  0  0  0  0  0  0  0  0  0  0  0
    0.4103    7.0683    0.0000 C   0  0  0  0  0  0  0  0  0  0  0  0
   -0.8898    7.8163    0.0000 H   0  0  0  0  0  0  0  0  0  0  0  0
    4.2992    4.8181    0.0000 C   0  0  0  0  0  0  0  0  0  0  0  0
    4.2990    3.3181    0.0000 F   0  0  0  0  0  0  0  0  0  0  0  0
    5.7764    4.5574    0.0000 F   0  0  0  0  0  0  0  0  0  0  0  0
    4.8125    6.2276    0.0000 F   0  0  0  0  0  0  0  0  0  0  0  0
    0.9057   12.9765    0.0000 O   0  0  0  0  0  0  0  0  0  0  0  0
    2.3825   13.2395    0.0000 H   0  0  0  0  0  0  0  0  0  0  0  0
   -1.7481   16.0212    0.0000 C   0  0  1  0  0  0  0  0  0  0  0  0
   -0.6300   15.0212    0.0000 H   0  0  0  0  0  0  0  0  0  0  0  0
   -2.6240   17.2298    0.0000 C   0  0  0  0  0  0  0  0  0  0  0  0
   -1.3243   17.9786    0.0000 H   0  0  0  0  0  0  0  0  0  0  0  0
   -4.0507   16.7667    0.0000 C   0  0  2  0  0  0  0  0  0  0  0  0
   -4.3626   18.2339    0.0000 H   0  0  0  0  0  0  0  0  0  0  0  0
   -5.4213   17.3763    0.0000 O   0  0  0  0  0  0  0  0  0  0  0  0
   -5.6792   19.8228    0.0000 H   0  0  0  0  0  0  0  0  0  0  0  0
   -3.2334   18.6004    0.0000 O   0  0  0  0  0  0  0  0  0  0  0  0
   -2.3510   19.8135    0.0000 H   0  0  0  0  0  0  0  0  0  0  0  0
   -0.6345   17.0261    0.0000 O   0  0  0  0  0  0  0  0  0  0  0  0
    0.7926   16.5641    0.0000 H   0  0  0  0  0  0  0  0  0  0  0  0
  1  2  1  0  0  0  0 
  1  3  1  0  0  0  0 
  1  4  1  0  0  0  0 
  1  5  1  0  0  0  0 
  5  6  1  0  0  0  0 
  5  7  1  0  0  0  0 
  7  8  1  0  0  0  0 
  7  9  1  0  0  0  0 
  7 10  1  0  0  0  0 
  5 11  1  0  0  0  0 
 11 12  1  0  0  0  0 
 12 13  2  0  0  0  0 
 12 14  1  0  0  0  0 
 14 15  1  0  0  0  0 
 14 16  1  0  0  0  0 
 14 17  1  0  0  0  0 
 17 18  1  0  0  0  0 
 17 19  1  0  0  0  0 
 17 20  1  0  0  0  0 
 20 21  1  0  0  0  0 
 20 22  1  0  0  0  0 
 20 23  1  0  0  0  0 
 23 24  1  0  0  0  0 
 23 25  2  0  0  0  0 
 25 26  1  0  0  0  0 
 25 27  1  0  0  0  0 
 27 28  1  0  0  0  0 
 27 29  1  0  0  0  0 
 30 27  1  1  0  0  0 
 30 31  1  6  0  0  0 
 30 32  1  0  0  0  0 
 32 33  1  1  0  0  0 
 32 34  1  6  0  0  0 
 34 35  1  0  0  0  0 
 34 36  2  0  0  0  0 
 36 37  1  0  0  0  0 
 36 38  1  0  0  0  0 
 38 39  1  6  0  0  0 
 38 40  1  0  0  0  0 
 40 41  1  0  0  0  0 
 40 42  1  0  0  0  0 
 40 43  1  0  0  0  0 
 43 44  1  0  0  0  0 
 44 45  2  0  0  0  0 
 45 46  1  0  0  0  0 
 45 47  1  0  0  0  0 
 47 48  2  0  0  0  0 
 48 49  1  0  0  0  0 
 48 50  1  0  0  0  0 
 50 51  1  0  0  0  0 
 50 52  2  0  0  0  0 
 44 52  1  0  0  0  0 
 52 53  1  0  0  0  0 
 47 54  1  0  0  0  0 
 54 55  1  0  0  0  0 
 54 56  1  0  0  0  0 
 54 57  1  0  0  0  0 
 38 58  1  1  0  0  0 
 58 59  1  0  0  0  0 
 32 60  1  0  0  0  0 
 60 61  1  6  0  0  0 
 60 62  1  0  0  0  0 
 62 63  1  0  0  0  0 
 62 64  1  0  0  0  0 
 30 64  1  0  0  0  0 
 64 65  1  6  0  0  0 
 64 66  1  1  0  0  0 
 66 67  1  0  0  0  0 
 62 68  1  0  0  0  0 
 68 69  1  0  0  0  0 
 60 70  1  1  0  0  0 
 70 71  1  0  0  0  0 
M  END
> <Rank>
40

> <Priority_score>
0.012

> <Reaction_type>
aliphatic hydroxylation

> <Parent_ID>
10

> <Parent_InChI>
InChI=1S/C26H35F3O6/c1-17(2)35-25(33)11-6-4-3-5-10-21-22(24(32)15-23(21)31)13-12-19(30)16-34-20-9-7-8-18(14-20)26(27,28)29/h3,5,7-9,12-14,17,19,21-24,30-32H,4,6,10-11,15-16H2,1-2H3

> <Parent_SMILES>
CC(C)OC(=O)CCC/C=C\C[C@H]1[C@@H](O)C[C@@H](O)[C@@H]1/C=C/[C@@H](O)COc1cccc(C(F)(F)F)c1

$$$$
Molecule 10_metabolite 41
  CDK     0516241031

 68 69  0  0  0  0  0  0  0  0999 V2000
  -16.7827   12.1760    0.0000 C   0  0  0  0  0  0  0  0  0  0  0  0
  -18.0041   13.0467    0.0000 H   0  0  0  0  0  0  0  0  0  0  0  0
  -17.8523   11.1244    0.0000 H   0  0  0  0  0  0  0  0  0  0  0  0
  -15.9328   10.9401    0.0000 H   0  0  0  0  0  0  0  0  0  0  0  0
  -15.4179   12.7984    0.0000 C   0  0  0  0  0  0  0  0  0  0  0  0
  -14.3483   13.8501    0.0000 H   0  0  0  0  0  0  0  0  0  0  0  0
  -16.2679   14.0344    0.0000 C   0  0  0  0  0  0  0  0  0  0  0  0
  -17.7632   13.9163    0.0000 H   0  0  0  0  0  0  0  0  0  0  0  0
  -14.9031   14.6568    0.0000 H   0  0  0  0  0  0  0  0  0  0  0  0
  -16.6438   15.4865    0.0000 H   0  0  0  0  0  0  0  0  0  0  0  0
  -14.1965   11.9277    0.0000 O   0  0  0  0  0  0  0  0  0  0  0  0
  -12.8318   12.5501    0.0000 C   0  0  0  0  0  0  0  0  0  0  0  0
  -12.6884   14.0432    0.0000 O   0  0  0  0  0  0  0  0  0  0  0  0
  -11.6104   11.6794    0.0000 C   0  0  0  0  0  0  0  0  0  0  0  0
  -12.6799   10.6277    0.0000 H   0  0  0  0  0  0  0  0  0  0  0  0
  -10.7604   10.4434    0.0000 H   0  0  0  0  0  0  0  0  0  0  0  0
  -10.2456   12.3018    0.0000 C   0  0  0  0  0  0  0  0  0  0  0  0
   -9.1760   13.3534    0.0000 H   0  0  0  0  0  0  0  0  0  0  0  0
  -11.0955   13.5377    0.0000 H   0  0  0  0  0  0  0  0  0  0  0  0
   -8.6333   11.1524    0.0000 C   0  0  0  0  0  0  0  0  0  0  0  0
   -9.7029   10.1008    0.0000 H   0  0  0  0  0  0  0  0  0  0  0  0
   -7.7834    9.9165    0.0000 H   0  0  0  0  0  0  0  0  0  0  0  0
   -7.2685   11.7748    0.0000 C   0  0  0  0  0  0  0  0  0  0  0  0
   -7.1252   13.2680    0.0000 H   0  0  0  0  0  0  0  0  0  0  0  0
   -5.2654   10.3468    0.0000 C   0  0  0  0  0  0  0  0  0  0  0  0
   -3.9007   10.9692    0.0000 H   0  0  0  0  0  0  0  0  0  0  0  0
   -5.4088    8.8537    0.0000 C   0  0  0  0  0  0  0  0  0  0  0  0
   -6.6738    6.1998    0.0000 H   0  0  0  0  0  0  0  0  0  0  0  0
   -6.8544    9.2542    0.0000 H   0  0  0  0  0  0  0  0  0  0  0  0
   -3.4057    7.4257    0.0000 C   0  0  2  0  0  0  0  0  0  0  0  0
   -2.6707    8.7333    0.0000 H   0  0  0  0  0  0  0  0  0  0  0  0
   -2.0269    6.8349    0.0000 C   0  0  1  0  0  0  0  0  0  0  0  0
   -1.5851    8.2684    0.0000 H   0  0  0  0  0  0  0  0  0  0  0  0
   -0.0837    6.4549    0.0000 C   0  0  0  0  0  0  0  0  0  0  0  0
    0.4030    5.0361    0.0000 H   0  0  0  0  0  0  0  0  0  0  0  0
    0.9016    7.5859    0.0000 C   0  0  0  0  0  0  0  0  0  0  0  0
    1.8870    8.7168    0.0000 C   0  0  0  0  0  0  0  0  0  0  0  0
    3.3591    8.4289    0.0000 C   0  0  0  0  0  0  0  0  0  0  0  0
    2.8200    7.0292    0.0000 H   0  0  0  0  0  0  0  0  0  0  0  0
    4.6440    7.6549    0.0000 H   0  0  0  0  0  0  0  0  0  0  0  0
    4.3445    9.5599    0.0000 O   0  0  0  0  0  0  0  0  0  0  0  0
    5.8166    9.2720    0.0000 C   0  0  0  0  0  0  0  0  0  0  0  0
    6.8041   10.4022    0.0000 C   0  0  0  0  0  0  0  0  0  0  0  0
    6.3195   11.8218    0.0000 H   0  0  0  0  0  0  0  0  0  0  0  0
    8.2757   10.1119    0.0000 C   0  0  0  0  0  0  0  0  0  0  0  0
    8.7599    8.6913    0.0000 C   0  0  0  0  0  0  0  0  0  0  0  0
   10.2310    8.3985    0.0000 H   0  0  0  0  0  0  0  0  0  0  0  0
    7.7743    7.5708    0.0000 C   0  0  0  0  0  0  0  0  0  0  0  0
    8.2566    6.1505    0.0000 H   0  0  0  0  0  0  0  0  0  0  0  0
    6.3027    7.8612    0.0000 C   0  0  0  0  0  0  0  0  0  0  0  0
    5.3172    6.7304    0.0000 H   0  0  0  0  0  0  0  0  0  0  0  0
    9.2631   11.2410    0.0000 C   0  0  0  0  0  0  0  0  0  0  0  0
   10.7347   10.9504    0.0000 F   0  0  0  0  0  0  0  0  0  0  0  0
    9.8049   12.6398    0.0000 F   0  0  0  0  0  0  0  0  0  0  0  0
    7.9797   12.0174    0.0000 F   0  0  0  0  0  0  0  0  0  0  0  0
    1.4003   10.1356    0.0000 O   0  0  0  0  0  0  0  0  0  0  0  0
    2.3856   11.2666    0.0000 H   0  0  0  0  0  0  0  0  0  0  0  0
   -2.1581    5.3354    0.0000 C   0  0  1  0  0  0  0  0  0  0  0  0
   -0.6583    5.3562    0.0000 H   0  0  0  0  0  0  0  0  0  0  0  0
   -3.6353    5.0110    0.0000 C   0  0  0  0  0  0  0  0  0  0  0  0
   -3.1640    3.5869    0.0000 H   0  0  0  0  0  0  0  0  0  0  0  0
   -5.0031    4.3952    0.0000 H   0  0  0  0  0  0  0  0  0  0  0  0
   -4.3930    6.3148    0.0000 C   0  0  2  0  0  0  0  0  0  0  0  0
   -5.6030    5.4282    0.0000 H   0  0  0  0  0  0  0  0  0  0  0  0
   -5.4026    7.4242    0.0000 O   0  0  0  0  0  0  0  0  0  0  0  0
   -6.8682    7.1046    0.0000 H   0  0  0  0  0  0  0  0  0  0  0  0
   -1.9860    3.8453    0.0000 O   0  0  0  0  0  0  0  0  0  0  0  0
   -0.6094    3.2494    0.0000 H   0  0  0  0  0  0  0  0  0  0  0  0
  1  2  1  0  0  0  0 
  1  3  1  0  0  0  0 
  1  4  1  0  0  0  0 
  1  5  1  0  0  0  0 
  5  6  1  0  0  0  0 
  5  7  1  0  0  0  0 
  7  8  1  0  0  0  0 
  7  9  1  0  0  0  0 
  7 10  1  0  0  0  0 
  5 11  1  0  0  0  0 
 11 12  1  0  0  0  0 
 12 13  2  0  0  0  0 
 12 14  1  0  0  0  0 
 14 15  1  0  0  0  0 
 14 16  1  0  0  0  0 
 14 17  1  0  0  0  0 
 17 18  1  0  0  0  0 
 17 19  1  0  0  0  0 
 17 20  1  0  0  0  0 
 20 21  1  0  0  0  0 
 20 22  1  0  0  0  0 
 20 23  1  0  0  0  0 
 23 24  1  0  0  0  0 
 23 25  2  0  0  0  0 
 25 26  1  0  0  0  0 
 25 27  1  0  0  0  0 
 27 28  1  0  0  0  0 
 27 29  1  0  0  0  0 
 30 27  1  6  0  0  0 
 30 31  1  1  0  0  0 
 30 32  1  0  0  0  0 
 32 33  1  6  0  0  0 
 32 34  1  1  0  0  0 
 34 35  1  0  0  0  0 
 34 36  2  0  0  0  0 
 36 37  2  0  0  0  0 
 37 38  1  0  0  0  0 
 38 39  1  0  0  0  0 
 38 40  1  0  0  0  0 
 38 41  1  0  0  0  0 
 41 42  1  0  0  0  0 
 42 43  2  0  0  0  0 
 43 44  1  0  0  0  0 
 43 45  1  0  0  0  0 
 45 46  2  0  0  0  0 
 46 47  1  0  0  0  0 
 46 48  1  0  0  0  0 
 48 49  1  0  0  0  0 
 48 50  2  0  0  0  0 
 42 50  1  0  0  0  0 
 50 51  1  0  0  0  0 
 45 52  1  0  0  0  0 
 52 53  1  0  0  0  0 
 52 54  1  0  0  0  0 
 52 55  1  0  0  0  0 
 37 56  1  0  0  0  0 
 56 57  1  0  0  0  0 
 32 58  1  0  0  0  0 
 58 59  1  1  0  0  0 
 58 60  1  0  0  0  0 
 60 61  1  0  0  0  0 
 60 62  1  0  0  0  0 
 60 63  1  0  0  0  0 
 30 63  1  0  0  0  0 
 63 64  1  1  0  0  0 
 63 65  1  6  0  0  0 
 65 66  1  0  0  0  0 
 58 67  1  6  0  0  0 
 67 68  1  0  0  0  0 
M  END
> <Rank>
41

> <Priority_score>
0.0104

> <Reaction_type>
alkyl dehydrogenation

> <Parent_ID>
10

> <Parent_InChI>
InChI=1S/C26H35F3O6/c1-17(2)35-25(33)11-6-4-3-5-10-21-22(24(32)15-23(21)31)13-12-19(30)16-34-20-9-7-8-18(14-20)26(27,28)29/h3,5,7-9,12-14,17,19,21-24,30-32H,4,6,10-11,15-16H2,1-2H3

> <Parent_SMILES>
CC(C)OC(=O)CCC/C=C\C[C@H]1[C@@H](O)C[C@@H](O)[C@@H]1/C=C/[C@@H](O)COc1cccc(C(F)(F)F)c1

$$$$
Molecule 10_metabolite 42
  CDK     0516241031

 71 72  0  0  0  0  0  0  0  0999 V2000
   -8.3420    0.6478    0.0000 C   0  0  0  0  0  0  0  0  0  0  0  0
   -8.9505    2.0188    0.0000 H   0  0  0  0  0  0  0  0  0  0  0  0
   -9.7978    0.2865    0.0000 H   0  0  0  0  0  0  0  0  0  0  0  0
   -8.2390   -0.8487    0.0000 H   0  0  0  0  0  0  0  0  0  0  0  0
   -6.8504    0.4893    0.0000 C   0  0  0  0  0  0  0  0  0  0  0  0
   -5.3945    0.8505    0.0000 H   0  0  0  0  0  0  0  0  0  0  0  0
   -6.9533    1.9858    0.0000 C   0  0  0  0  0  0  0  0  0  0  0  0
   -8.3007    2.6448    0.0000 H   0  0  0  0  0  0  0  0  0  0  0  0
   -5.4617    1.8273    0.0000 H   0  0  0  0  0  0  0  0  0  0  0  0
   -6.5382    3.4272    0.0000 H   0  0  0  0  0  0  0  0  0  0  0  0
   -6.2418   -0.8817    0.0000 O   0  0  0  0  0  0  0  0  0  0  0  0
   -4.7502   -1.0402    0.0000 C   0  0  0  0  0  0  0  0  0  0  0  0
   -3.8671    0.1723    0.0000 O   0  0  0  0  0  0  0  0  0  0  0  0
   -4.1416   -2.4112    0.0000 C   0  0  0  0  0  0  0  0  0  0  0  0
   -5.5975   -2.7724    0.0000 H   0  0  0  0  0  0  0  0  0  0  0  0
   -4.0387   -3.9077    0.0000 H   0  0  0  0  0  0  0  0  0  0  0  0
   -2.6500   -2.5697    0.0000 C   0  0  0  0  0  0  0  0  0  0  0  0
   -1.3026   -3.2288    0.0000 H   0  0  0  0  0  0  0  0  0  0  0  0
   -3.0651   -4.0111    0.0000 H   0  0  0  0  0  0  0  0  0  0  0  0
   -1.4844   -0.9691    0.0000 C   0  0  0  0  0  0  0  0  0  0  0  0
   -2.8319   -0.3101    0.0000 H   0  0  0  0  0  0  0  0  0  0  0  0
   -1.0693    0.4723    0.0000 H   0  0  0  0  0  0  0  0  0  0  0  0
    0.4845   -1.1783    0.0000 C   0  0  0  0  0  0  0  0  0  0  0  0
    1.6773   -3.8655    0.0000 H   0  0  0  0  0  0  0  0  0  0  0  0
    1.6501    0.4222    0.0000 C   0  0  0  0  0  0  0  0  0  0  0  0
    3.1417    0.2637    0.0000 H   0  0  0  0  0  0  0  0  0  0  0  0
    1.0416    1.7932    0.0000 C   0  0  0  0  0  0  0  0  0  0  0  0
    0.0008    2.8734    0.0000 H   0  0  0  0  0  0  0  0  0  0  0  0
   -0.2029    0.9558    0.0000 H   0  0  0  0  0  0  0  0  0  0  0  0
    2.7724    4.1698    0.0000 C   0  0  1  0  0  0  0  0  0  0  0  0
    1.4733    3.4198    0.0000 H   0  0  0  0  0  0  0  0  0  0  0  0
    1.8862    5.3865    0.0000 C   0  0  2  0  0  0  0  0  0  0  0  0
    0.7691    4.3856    0.0000 H   0  0  0  0  0  0  0  0  0  0  0  0
    2.7868    6.6015    0.0000 C   0  0  0  0  0  0  0  0  0  0  0  0
    1.4960    7.3656    0.0000 H   0  0  0  0  0  0  0  0  0  0  0  0
    3.4135    7.9643    0.0000 H   0  0  0  0  0  0  0  0  0  0  0  0
    4.2146    6.1163    0.0000 C   0  0  2  0  0  0  0  0  0  0  0  0
    4.5445    7.5796    0.0000 H   0  0  0  0  0  0  0  0  0  0  0  0
    4.2000    4.6301    0.0000 C   0  0  2  0  0  0  0  0  0  0  0  0
    5.6449    5.0330    0.0000 H   0  0  0  0  0  0  0  0  0  0  0  0
    4.5048    3.1614    0.0000 C   0  0  0  0  0  0  0  0  0  0  0  0
    4.2889    1.6770    0.0000 H   0  0  0  0  0  0  0  0  0  0  0  0
    6.8407    2.3900    0.0000 C   0  0  0  0  0  0  0  0  0  0  0  0
    7.1456    0.9213    0.0000 H   0  0  0  0  0  0  0  0  0  0  0  0
    9.3414    3.9360    0.0000 C   0  0  0  0  0  0  0  0  0  0  0  0
    9.2963    5.4353    0.0000 C   0  0  0  0  0  0  0  0  0  0  0  0
    7.8276    5.1305    0.0000 H   0  0  0  0  0  0  0  0  0  0  0  0
    8.7410    6.8288    0.0000 H   0  0  0  0  0  0  0  0  0  0  0  0
   10.5721    6.2241    0.0000 O   0  0  0  0  0  0  0  0  0  0  0  0
   10.5270    7.7234    0.0000 C   0  0  0  0  0  0  0  0  0  0  0  0
   11.8025    8.5144    0.0000 C   0  0  0  0  0  0  0  0  0  0  0  0
   13.1246    7.8058    0.0000 H   0  0  0  0  0  0  0  0  0  0  0  0
   11.7548   10.0136    0.0000 C   0  0  0  0  0  0  0  0  0  0  0  0
   10.4316   10.7219    0.0000 C   0  0  0  0  0  0  0  0  0  0  0  0
   10.3814   12.2211    0.0000 H   0  0  0  0  0  0  0  0  0  0  0  0
    9.1661    9.9313    0.0000 C   0  0  0  0  0  0  0  0  0  0  0  0
    7.8428   10.6376    0.0000 H   0  0  0  0  0  0  0  0  0  0  0  0
    9.2138    8.4320    0.0000 C   0  0  0  0  0  0  0  0  0  0  0  0
    7.9380    7.6430    0.0000 H   0  0  0  0  0  0  0  0  0  0  0  0
   13.0292   10.8047    0.0000 C   0  0  0  0  0  0  0  0  0  0  0  0
   12.9813   12.3039    0.0000 F   0  0  0  0  0  0  0  0  0  0  0  0
   14.4973   11.1122    0.0000 F   0  0  0  0  0  0  0  0  0  0  0  0
   13.5870    9.4123    0.0000 F   0  0  0  0  0  0  0  0  0  0  0  0
   10.6625    3.2255    0.0000 O   0  0  0  0  0  0  0  0  0  0  0  0
   11.9383    4.0142    0.0000 H   0  0  0  0  0  0  0  0  0  0  0  0
    3.0055    3.1162    0.0000 O   0  0  0  0  0  0  0  0  0  0  0  0
    2.2950    1.7952    0.0000 H   0  0  0  0  0  0  0  0  0  0  0  0
    5.7046    5.9430    0.0000 O   0  0  0  0  0  0  0  0  0  0  0  0
    6.5996    7.1467    0.0000 H   0  0  0  0  0  0  0  0  0  0  0  0
    0.7775    6.3969    0.0000 O   0  0  0  0  0  0  0  0  0  0  0  0
   -0.6518    5.9420    0.0000 H   0  0  0  0  0  0  0  0  0  0  0  0
  1  2  1  0  0  0  0 
  1  3  1  0  0  0  0 
  1  4  1  0  0  0  0 
  1  5  1  0  0  0  0 
  5  6  1  0  0  0  0 
  5  7  1  0  0  0  0 
  7  8  1  0  0  0  0 
  7  9  1  0  0  0  0 
  7 10  1  0  0  0  0 
  5 11  1  0  0  0  0 
 11 12  1  0  0  0  0 
 12 13  2  0  0  0  0 
 12 14  1  0  0  0  0 
 14 15  1  0  0  0  0 
 14 16  1  0  0  0  0 
 14 17  1  0  0  0  0 
 17 18  1  0  0  0  0 
 17 19  1  0  0  0  0 
 17 20  1  0  0  0  0 
 20 21  1  0  0  0  0 
 20 22  1  0  0  0  0 
 20 23  1  0  0  0  0 
 23 24  1  0  0  0  0 
 23 25  2  0  0  0  0 
 25 26  1  0  0  0  0 
 25 27  1  0  0  0  0 
 27 28  1  0  0  0  0 
 27 29  1  0  0  0  0 
 30 27  1  1  0  0  0 
 30 31  1  6  0  0  0 
 30 32  1  0  0  0  0 
 32 33  1  6  0  0  0 
 32 34  1  0  0  0  0 
 34 35  1  0  0  0  0 
 34 36  1  0  0  0  0 
 34 37  1  0  0  0  0 
 37 38  1  6  0  0  0 
 37 39  1  0  0  0  0 
 30 39  1  0  0  0  0 
 39 40  1  1  0  0  0 
 39 41  1  6  0  0  0 
 41 42  1  0  0  0  0 
 41 43  1  0  0  0  0 
 43 44  1  4  0  0  0 
 43 45  2  0  0  0  0 
 45 46  1  0  0  0  0 
 46 47  1  0  0  0  0 
 46 48  1  0  0  0  0 
 46 49  1  0  0  0  0 
 49 50  1  0  0  0  0 
 50 51  2  0  0  0  0 
 51 52  1  0  0  0  0 
 51 53  1  0  0  0  0 
 53 54  2  0  0  0  0 
 54 55  1  0  0  0  0 
 54 56  1  0  0  0  0 
 56 57  1  0  0  0  0 
 56 58  2  0  0  0  0 
 50 58  1  0  0  0  0 
 58 59  1  0  0  0  0 
 53 60  1  0  0  0  0 
 60 61  1  0  0  0  0 
 60 62  1  0  0  0  0 
 60 63  1  0  0  0  0 
 45 64  1  0  0  0  0 
 64 65  1  0  0  0  0 
 41 66  1  0  0  0  0 
 66 67  1  0  0  0  0 
 37 68  1  1  0  0  0 
 68 69  1  0  0  0  0 
 32 70  1  1  0  0  0 
 70 71  1  0  0  0  0 
M  END
> <Rank>
41

> <Priority_score>
0.0104

> <Reaction_type>
aliphatic hydroxylation with allylic rearrangement 1

> <Parent_ID>
10

> <Parent_InChI>
InChI=1S/C26H35F3O6/c1-17(2)35-25(33)11-6-4-3-5-10-21-22(24(32)15-23(21)31)13-12-19(30)16-34-20-9-7-8-18(14-20)26(27,28)29/h3,5,7-9,12-14,17,19,21-24,30-32H,4,6,10-11,15-16H2,1-2H3

> <Parent_SMILES>
CC(C)OC(=O)CCC/C=C\C[C@H]1[C@@H](O)C[C@@H](O)[C@@H]1/C=C/[C@@H](O)COc1cccc(C(F)(F)F)c1

$$$$
Molecule 10_metabolite 43
  CDK     0516241031

 71 72  0  0  0  0  0  0  0  0999 V2000
  -10.0041   11.8048    0.0000 C   0  0  0  0  0  0  0  0  0  0  0  0
   -9.3963   10.4334    0.0000 H   0  0  0  0  0  0  0  0  0  0  0  0
  -10.1063   13.3013    0.0000 H   0  0  0  0  0  0  0  0  0  0  0  0
   -8.5481   12.1653    0.0000 H   0  0  0  0  0  0  0  0  0  0  0  0
  -11.4956   11.9640    0.0000 C   0  0  0  0  0  0  0  0  0  0  0  0
  -11.3935   10.4675    0.0000 H   0  0  0  0  0  0  0  0  0  0  0  0
  -12.9517   11.6035    0.0000 C   0  0  0  0  0  0  0  0  0  0  0  0
  -13.3675   10.1623    0.0000 H   0  0  0  0  0  0  0  0  0  0  0  0
  -14.4432   11.7628    0.0000 H   0  0  0  0  0  0  0  0  0  0  0  0
  -13.0538   13.1000    0.0000 H   0  0  0  0  0  0  0  0  0  0  0  0
  -12.1035   13.3353    0.0000 O   0  0  0  0  0  0  0  0  0  0  0  0
  -11.2198   14.5474    0.0000 C   0  0  0  0  0  0  0  0  0  0  0  0
   -9.7283   14.3882    0.0000 O   0  0  0  0  0  0  0  0  0  0  0  0
  -11.8277   15.9187    0.0000 C   0  0  0  0  0  0  0  0  0  0  0  0
  -12.8679   16.9994    0.0000 H   0  0  0  0  0  0  0  0  0  0  0  0
  -13.0726   15.0820    0.0000 H   0  0  0  0  0  0  0  0  0  0  0  0
  -10.9440   17.1308    0.0000 C   0  0  0  0  0  0  0  0  0  0  0  0
  -12.2911   17.7906    0.0000 H   0  0  0  0  0  0  0  0  0  0  0  0
  -10.5282   18.5720    0.0000 H   0  0  0  0  0  0  0  0  0  0  0  0
   -9.4525   16.9716    0.0000 C   0  0  0  0  0  0  0  0  0  0  0  0
   -8.1054   16.3118    0.0000 H   0  0  0  0  0  0  0  0  0  0  0  0
   -9.8683   15.5303    0.0000 H   0  0  0  0  0  0  0  0  0  0  0  0
   -8.5688   18.1836    0.0000 C   0  0  0  0  0  0  0  0  0  0  0  0
   -9.1766   19.5549    0.0000 H   0  0  0  0  0  0  0  0  0  0  0  0
   -6.6000   17.9734    0.0000 C   0  0  0  0  0  0  0  0  0  0  0  0
   -5.7163   19.1855    0.0000 H   0  0  0  0  0  0  0  0  0  0  0  0
   -5.6031   15.7245    0.0000 C   0  0  0  0  0  0  0  0  0  0  0  0
   -7.0591   15.3640    0.0000 H   0  0  0  0  0  0  0  0  0  0  0  0
   -5.5009   14.2279    0.0000 H   0  0  0  0  0  0  0  0  0  0  0  0
   -2.6797   15.4123    0.0000 C   0  0  2  0  0  0  0  0  0  0  0  0
   -1.2541   14.9394    0.0000 C   0  0  1  0  0  0  0  0  0  0  0  0
   -1.8672   13.5705    0.0000 H   0  0  0  0  0  0  0  0  0  0  0  0
    0.4623   13.9523    0.0000 C   0  0  0  0  0  0  0  0  0  0  0  0
    1.7601   14.7045    0.0000 H   0  0  0  0  0  0  0  0  0  0  0  0
    0.4648   12.4523    0.0000 C   0  0  0  0  0  0  0  0  0  0  0  0
   -0.8329   11.7001    0.0000 H   0  0  0  0  0  0  0  0  0  0  0  0
    1.7651   11.7045    0.0000 C   0  0  2  0  0  0  0  0  0  0  0  0
    3.2428   11.4465    0.0000 H   0  0  0  0  0  0  0  0  0  0  0  0
    1.7676   10.2045    0.0000 C   0  0  0  0  0  0  0  0  0  0  0  0
    0.2900   10.4625    0.0000 H   0  0  0  0  0  0  0  0  0  0  0  0
    1.2570    8.7941    0.0000 H   0  0  0  0  0  0  0  0  0  0  0  0
    3.0679    9.4566    0.0000 O   0  0  0  0  0  0  0  0  0  0  0  0
    3.0705    7.9566    0.0000 C   0  0  0  0  0  0  0  0  0  0  0  0
    4.3705    7.2066    0.0000 C   0  0  0  0  0  0  0  0  0  0  0  0
    5.6694    7.9568    0.0000 H   0  0  0  0  0  0  0  0  0  0  0  0
    4.3705    5.7066    0.0000 C   0  0  0  0  0  0  0  0  0  0  0  0
    3.0705    4.9566    0.0000 C   0  0  0  0  0  0  0  0  0  0  0  0
    3.0679    3.4566    0.0000 H   0  0  0  0  0  0  0  0  0  0  0  0
    1.7805    5.7066    0.0000 C   0  0  0  0  0  0  0  0  0  0  0  0
    0.4803    4.9586    0.0000 H   0  0  0  0  0  0  0  0  0  0  0  0
    1.7805    7.2066    0.0000 C   0  0  0  0  0  0  0  0  0  0  0  0
    0.4803    7.9547    0.0000 H   0  0  0  0  0  0  0  0  0  0  0  0
    5.6694    4.9564    0.0000 C   0  0  0  0  0  0  0  0  0  0  0  0
    5.6691    3.4564    0.0000 F   0  0  0  0  0  0  0  0  0  0  0  0
    7.1465    4.6957    0.0000 F   0  0  0  0  0  0  0  0  0  0  0  0
    6.1826    6.3659    0.0000 F   0  0  0  0  0  0  0  0  0  0  0  0
    2.2758   13.1149    0.0000 O   0  0  0  0  0  0  0  0  0  0  0  0
    3.7526   13.3778    0.0000 H   0  0  0  0  0  0  0  0  0  0  0  0
   -0.3780   16.1595    0.0000 C   0  0  1  0  0  0  0  0  0  0  0  0
    0.7401   15.1595    0.0000 H   0  0  0  0  0  0  0  0  0  0  0  0
   -1.2539   17.3681    0.0000 C   0  0  0  0  0  0  0  0  0  0  0  0
    0.0458   18.1170    0.0000 H   0  0  0  0  0  0  0  0  0  0  0  0
   -1.8632   18.7388    0.0000 H   0  0  0  0  0  0  0  0  0  0  0  0
   -2.6806   16.9050    0.0000 C   0  0  2  0  0  0  0  0  0  0  0  0
   -2.9925   18.3722    0.0000 H   0  0  0  0  0  0  0  0  0  0  0  0
   -4.1724   16.7477    0.0000 O   0  0  0  0  0  0  0  0  0  0  0  0
   -4.8512   19.1122    0.0000 H   0  0  0  0  0  0  0  0  0  0  0  0
    0.7357   17.1644    0.0000 O   0  0  0  0  0  0  0  0  0  0  0  0
    2.1628   16.7024    0.0000 H   0  0  0  0  0  0  0  0  0  0  0  0
   -3.0989   13.4772    0.0000 O   0  0  0  0  0  0  0  0  0  0  0  0
   -4.5273   13.0193    0.0000 H   0  0  0  0  0  0  0  0  0  0  0  0
  1  2  1  0  0  0  0 
  1  3  1  0  0  0  0 
  1  4  1  0  0  0  0 
  1  5  1  0  0  0  0 
  5  6  1  0  0  0  0 
  5  7  1  0  0  0  0 
  7  8  1  0  0  0  0 
  7  9  1  0  0  0  0 
  7 10  1  0  0  0  0 
  5 11  1  0  0  0  0 
 11 12  1  0  0  0  0 
 12 13  2  0  0  0  0 
 12 14  1  0  0  0  0 
 14 15  1  0  0  0  0 
 14 16  1  0  0  0  0 
 14 17  1  0  0  0  0 
 17 18  1  0  0  0  0 
 17 19  1  0  0  0  0 
 17 20  1  0  0  0  0 
 20 21  1  0  0  0  0 
 20 22  1  0  0  0  0 
 20 23  1  0  0  0  0 
 23 24  1  0  0  0  0 
 23 25  2  0  0  0  0 
 25 26  1  0  0  0  0 
 25 27  1  0  0  0  0 
 27 28  1  0  0  0  0 
 27 29  1  0  0  0  0 
 30 27  1  1  0  0  0 
 30 31  1  0  0  0  0 
 31 32  1  1  0  0  0 
 31 33  1  6  0  0  0 
 33 34  1  0  0  0  0 
 33 35  2  0  0  0  0 
 35 36  1  0  0  0  0 
 35 37  1  0  0  0  0 
 37 38  1  6  0  0  0 
 37 39  1  0  0  0  0 
 39 40  1  0  0  0  0 
 39 41  1  0  0  0  0 
 39 42  1  0  0  0  0 
 42 43  1  0  0  0  0 
 43 44  2  0  0  0  0 
 44 45  1  0  0  0  0 
 44 46  1  0  0  0  0 
 46 47  2  0  0  0  0 
 47 48  1  0  0  0  0 
 47 49  1  0  0  0  0 
 49 50  1  0  0  0  0 
 49 51  2  0  0  0  0 
 43 51  1  0  0  0  0 
 51 52  1  0  0  0  0 
 46 53  1  0  0  0  0 
 53 54  1  0  0  0  0 
 53 55  1  0  0  0  0 
 53 56  1  0  0  0  0 
 37 57  1  1  0  0  0 
 57 58  1  0  0  0  0 
 31 59  1  0  0  0  0 
 59 60  1  6  0  0  0 
 59 61  1  0  0  0  0 
 61 62  1  0  0  0  0 
 61 63  1  0  0  0  0 
 61 64  1  0  0  0  0 
 30 64  1  0  0  0  0 
 64 65  1  6  0  0  0 
 64 66  1  1  0  0  0 
 66 67  1  0  0  0  0 
 59 68  1  1  0  0  0 
 68 69  1  0  0  0  0 
 30 70  1  6  0  0  0 
 70 71  1  0  0  0  0 
M  END
> <Rank>
43

> <Priority_score>
0.008

> <Reaction_type>
aliphatic hydroxylation

> <Parent_ID>
10

> <Parent_InChI>
InChI=1S/C26H35F3O6/c1-17(2)35-25(33)11-6-4-3-5-10-21-22(24(32)15-23(21)31)13-12-19(30)16-34-20-9-7-8-18(14-20)26(27,28)29/h3,5,7-9,12-14,17,19,21-24,30-32H,4,6,10-11,15-16H2,1-2H3

> <Parent_SMILES>
CC(C)OC(=O)CCC/C=C\C[C@H]1[C@@H](O)C[C@@H](O)[C@@H]1/C=C/[C@@H](O)COc1cccc(C(F)(F)F)c1

$$$$
Molecule 10_metabolite 44
  CDK     0516241031

 71 72  0  0  0  0  0  0  0  0999 V2000
  -10.8972   11.5159    0.0000 C   0  0  0  0  0  0  0  0  0  0  0  0
  -10.2893   10.1446    0.0000 H   0  0  0  0  0  0  0  0  0  0  0  0
  -10.9994   13.0124    0.0000 H   0  0  0  0  0  0  0  0  0  0  0  0
   -9.4412   11.8764    0.0000 H   0  0  0  0  0  0  0  0  0  0  0  0
  -12.3887   11.6752    0.0000 C   0  0  0  0  0  0  0  0  0  0  0  0
  -12.2865   10.1786    0.0000 H   0  0  0  0  0  0  0  0  0  0  0  0
  -13.8448   11.3147    0.0000 C   0  0  0  0  0  0  0  0  0  0  0  0
  -14.2606    9.8735    0.0000 H   0  0  0  0  0  0  0  0  0  0  0  0
  -15.3363   11.4739    0.0000 H   0  0  0  0  0  0  0  0  0  0  0  0
  -13.9469   12.8112    0.0000 H   0  0  0  0  0  0  0  0  0  0  0  0
  -12.9966   13.0465    0.0000 O   0  0  0  0  0  0  0  0  0  0  0  0
  -12.1129   14.2586    0.0000 C   0  0  0  0  0  0  0  0  0  0  0  0
  -10.6214   14.0993    0.0000 O   0  0  0  0  0  0  0  0  0  0  0  0
  -12.7207   15.6299    0.0000 C   0  0  0  0  0  0  0  0  0  0  0  0
  -13.7610   16.7106    0.0000 H   0  0  0  0  0  0  0  0  0  0  0  0
  -13.9657   14.7931    0.0000 H   0  0  0  0  0  0  0  0  0  0  0  0
  -11.8371   16.8420    0.0000 C   0  0  0  0  0  0  0  0  0  0  0  0
  -13.1842   17.5017    0.0000 H   0  0  0  0  0  0  0  0  0  0  0  0
  -11.4212   18.2832    0.0000 H   0  0  0  0  0  0  0  0  0  0  0  0
  -10.3455   16.6827    0.0000 C   0  0  0  0  0  0  0  0  0  0  0  0
   -8.9984   16.0229    0.0000 H   0  0  0  0  0  0  0  0  0  0  0  0
  -10.7614   15.2415    0.0000 H   0  0  0  0  0  0  0  0  0  0  0  0
   -9.4619   17.8948    0.0000 C   0  0  0  0  0  0  0  0  0  0  0  0
  -10.0697   19.2661    0.0000 H   0  0  0  0  0  0  0  0  0  0  0  0
   -7.4931   17.6846    0.0000 C   0  0  0  0  0  0  0  0  0  0  0  0
   -6.6094   18.8966    0.0000 H   0  0  0  0  0  0  0  0  0  0  0  0
   -6.4962   15.4356    0.0000 C   0  0  0  0  0  0  0  0  0  0  0  0
   -7.9522   15.0751    0.0000 H   0  0  0  0  0  0  0  0  0  0  0  0
   -6.3940   13.9391    0.0000 H   0  0  0  0  0  0  0  0  0  0  0  0
   -4.5274   15.2254    0.0000 C   0  0  2  0  0  0  0  0  0  0  0  0
   -4.8450   13.7594    0.0000 H   0  0  0  0  0  0  0  0  0  0  0  0
   -3.1017   14.7525    0.0000 C   0  0  1  0  0  0  0  0  0  0  0  0
   -3.7149   13.3835    0.0000 H   0  0  0  0  0  0  0  0  0  0  0  0
   -1.3853   13.7654    0.0000 C   0  0  0  0  0  0  0  0  0  0  0  0
   -0.0875   14.5175    0.0000 H   0  0  0  0  0  0  0  0  0  0  0  0
   -1.3828   12.2654    0.0000 C   0  0  0  0  0  0  0  0  0  0  0  0
   -2.6806   11.5132    0.0000 H   0  0  0  0  0  0  0  0  0  0  0  0
   -0.0825   11.5175    0.0000 C   0  0  2  0  0  0  0  0  0  0  0  0
    1.3951   11.2595    0.0000 H   0  0  0  0  0  0  0  0  0  0  0  0
   -0.0800   10.0175    0.0000 C   0  0  0  0  0  0  0  0  0  0  0  0
   -1.5577   10.2755    0.0000 H   0  0  0  0  0  0  0  0  0  0  0  0
   -0.5907    8.6071    0.0000 H   0  0  0  0  0  0  0  0  0  0  0  0
    1.2203    9.2697    0.0000 O   0  0  0  0  0  0  0  0  0  0  0  0
    1.2228    7.7697    0.0000 C   0  0  0  0  0  0  0  0  0  0  0  0
    2.5228    7.0197    0.0000 C   0  0  0  0  0  0  0  0  0  0  0  0
    3.8217    7.7699    0.0000 H   0  0  0  0  0  0  0  0  0  0  0  0
    2.5228    5.5197    0.0000 C   0  0  0  0  0  0  0  0  0  0  0  0
    1.2228    4.7697    0.0000 C   0  0  0  0  0  0  0  0  0  0  0  0
    1.2203    3.2697    0.0000 H   0  0  0  0  0  0  0  0  0  0  0  0
   -0.0672    5.5197    0.0000 C   0  0  0  0  0  0  0  0  0  0  0  0
   -1.3674    4.7717    0.0000 H   0  0  0  0  0  0  0  0  0  0  0  0
   -0.0672    7.0197    0.0000 C   0  0  0  0  0  0  0  0  0  0  0  0
   -1.3674    7.7677    0.0000 H   0  0  0  0  0  0  0  0  0  0  0  0
    3.8217    4.7695    0.0000 C   0  0  0  0  0  0  0  0  0  0  0  0
    3.8215    3.2695    0.0000 F   0  0  0  0  0  0  0  0  0  0  0  0
    5.2989    4.5088    0.0000 F   0  0  0  0  0  0  0  0  0  0  0  0
    4.3350    6.1790    0.0000 F   0  0  0  0  0  0  0  0  0  0  0  0
    0.4281   12.9279    0.0000 O   0  0  0  0  0  0  0  0  0  0  0  0
    1.9049   13.1909    0.0000 H   0  0  0  0  0  0  0  0  0  0  0  0
   -2.2256   15.9726    0.0000 C   0  0  1  0  0  0  0  0  0  0  0  0
   -1.1076   14.9726    0.0000 H   0  0  0  0  0  0  0  0  0  0  0  0
   -3.1016   17.1812    0.0000 C   0  0  0  0  0  0  0  0  0  0  0  0
   -1.8019   17.9301    0.0000 H   0  0  0  0  0  0  0  0  0  0  0  0
   -3.7109   18.5518    0.0000 H   0  0  0  0  0  0  0  0  0  0  0  0
   -4.5283   16.7181    0.0000 C   0  0  2  0  0  0  0  0  0  0  0  0
   -4.9400   18.6548    0.0000 O   0  0  0  0  0  0  0  0  0  0  0  0
   -3.8253   19.6585    0.0000 H   0  0  0  0  0  0  0  0  0  0  0  0
   -6.0200   16.5608    0.0000 O   0  0  0  0  0  0  0  0  0  0  0  0
   -7.4666   18.5505    0.0000 H   0  0  0  0  0  0  0  0  0  0  0  0
   -1.1120   16.9775    0.0000 O   0  0  0  0  0  0  0  0  0  0  0  0
    0.3151   16.5155    0.0000 H   0  0  0  0  0  0  0  0  0  0  0  0
  1  2  1  0  0  0  0 
  1  3  1  0  0  0  0 
  1  4  1  0  0  0  0 
  1  5  1  0  0  0  0 
  5  6  1  0  0  0  0 
  5  7  1  0  0  0  0 
  7  8  1  0  0  0  0 
  7  9  1  0  0  0  0 
  7 10  1  0  0  0  0 
  5 11  1  0  0  0  0 
 11 12  1  0  0  0  0 
 12 13  2  0  0  0  0 
 12 14  1  0  0  0  0 
 14 15  1  0  0  0  0 
 14 16  1  0  0  0  0 
 14 17  1  0  0  0  0 
 17 18  1  0  0  0  0 
 17 19  1  0  0  0  0 
 17 20  1  0  0  0  0 
 20 21  1  0  0  0  0 
 20 22  1  0  0  0  0 
 20 23  1  0  0  0  0 
 23 24  1  0  0  0  0 
 23 25  2  0  0  0  0 
 25 26  1  0  0  0  0 
 25 27  1  0  0  0  0 
 27 28  1  0  0  0  0 
 27 29  1  0  0  0  0 
 30 27  1  1  0  0  0 
 30 31  1  6  0  0  0 
 30 32  1  0  0  0  0 
 32 33  1  1  0  0  0 
 32 34  1  6  0  0  0 
 34 35  1  0  0  0  0 
 34 36  2  0  0  0  0 
 36 37  1  0  0  0  0 
 36 38  1  0  0  0  0 
 38 39  1  6  0  0  0 
 38 40  1  0  0  0  0 
 40 41  1  0  0  0  0 
 40 42  1  0  0  0  0 
 40 43  1  0  0  0  0 
 43 44  1  0  0  0  0 
 44 45  2  0  0  0  0 
 45 46  1  0  0  0  0 
 45 47  1  0  0  0  0 
 47 48  2  0  0  0  0 
 48 49  1  0  0  0  0 
 48 50  1  0  0  0  0 
 50 51  1  0  0  0  0 
 50 52  2  0  0  0  0 
 44 52  1  0  0  0  0 
 52 53  1  0  0  0  0 
 47 54  1  0  0  0  0 
 54 55  1  0  0  0  0 
 54 56  1  0  0  0  0 
 54 57  1  0  0  0  0 
 38 58  1  1  0  0  0 
 58 59  1  0  0  0  0 
 32 60  1  0  0  0  0 
 60 61  1  6  0  0  0 
 60 62  1  0  0  0  0 
 62 63  1  0  0  0  0 
 62 64  1  0  0  0  0 
 62 65  1  0  0  0  0 
 30 65  1  0  0  0  0 
 65 66  1  1  0  0  0 
 66 67  1  0  0  0  0 
 65 68  1  6  0  0  0 
 68 69  1  0  0  0  0 
 60 70  1  1  0  0  0 
 70 71  1  0  0  0  0 
M  END
> <Rank>
43

> <Priority_score>
0.008

> <Reaction_type>
aliphatic hydroxylation

> <Parent_ID>
10

> <Parent_InChI>
InChI=1S/C26H35F3O6/c1-17(2)35-25(33)11-6-4-3-5-10-21-22(24(32)15-23(21)31)13-12-19(30)16-34-20-9-7-8-18(14-20)26(27,28)29/h3,5,7-9,12-14,17,19,21-24,30-32H,4,6,10-11,15-16H2,1-2H3

> <Parent_SMILES>
CC(C)OC(=O)CCC/C=C\C[C@H]1[C@@H](O)C[C@@H](O)[C@@H]1/C=C/[C@@H](O)COc1cccc(C(F)(F)F)c1

$$$$
Molecule 10_metabolite 45
  CDK     0516241031

 71 72  0  0  0  0  0  0  0  0999 V2000
  -10.4189   11.1034    0.0000 C   0  0  0  0  0  0  0  0  0  0  0  0
   -9.7965    9.7387    0.0000 H   0  0  0  0  0  0  0  0  0  0  0  0
  -10.5370   12.5988    0.0000 H   0  0  0  0  0  0  0  0  0  0  0  0
   -8.9668   11.4794    0.0000 H   0  0  0  0  0  0  0  0  0  0  0  0
  -11.9120   11.2468    0.0000 C   0  0  0  0  0  0  0  0  0  0  0  0
  -11.7939    9.7515    0.0000 H   0  0  0  0  0  0  0  0  0  0  0  0
  -13.3642   10.8708    0.0000 C   0  0  0  0  0  0  0  0  0  0  0  0
  -13.7646    9.4253    0.0000 H   0  0  0  0  0  0  0  0  0  0  0  0
  -14.8573   11.0142    0.0000 H   0  0  0  0  0  0  0  0  0  0  0  0
  -13.4822   12.3662    0.0000 H   0  0  0  0  0  0  0  0  0  0  0  0
  -12.5344   12.6116    0.0000 O   0  0  0  0  0  0  0  0  0  0  0  0
  -11.6637   13.8330    0.0000 C   0  0  0  0  0  0  0  0  0  0  0  0
  -10.1706   13.6896    0.0000 O   0  0  0  0  0  0  0  0  0  0  0  0
  -12.2861   15.1978    0.0000 C   0  0  0  0  0  0  0  0  0  0  0  0
  -13.3378   16.2674    0.0000 H   0  0  0  0  0  0  0  0  0  0  0  0
  -13.5221   14.3478    0.0000 H   0  0  0  0  0  0  0  0  0  0  0  0
  -11.4154   16.4192    0.0000 C   0  0  0  0  0  0  0  0  0  0  0  0
  -12.7694   17.0646    0.0000 H   0  0  0  0  0  0  0  0  0  0  0  0
   -8.9667   16.1840    0.0000 C   0  0  0  0  0  0  0  0  0  0  0  0
   -7.6126   15.5386    0.0000 H   0  0  0  0  0  0  0  0  0  0  0  0
   -9.3671   14.7385    0.0000 H   0  0  0  0  0  0  0  0  0  0  0  0
   -7.8173   17.7963    0.0000 C   0  0  0  0  0  0  0  0  0  0  0  0
   -8.4397   19.1611    0.0000 H   0  0  0  0  0  0  0  0  0  0  0  0
   -5.3686   17.5612    0.0000 C   0  0  0  0  0  0  0  0  0  0  0  0
   -4.4978   18.7826    0.0000 H   0  0  0  0  0  0  0  0  0  0  0  0
   -4.1486   14.8862    0.0000 C   0  0  0  0  0  0  0  0  0  0  0  0
   -5.6008   14.5103    0.0000 H   0  0  0  0  0  0  0  0  0  0  0  0
   -3.9172   11.9553    0.0000 H   0  0  0  0  0  0  0  0  0  0  0  0
   -1.6999   14.6511    0.0000 C   0  0  2  0  0  0  0  0  0  0  0  0
   -2.0023   13.1819    0.0000 H   0  0  0  0  0  0  0  0  0  0  0  0
   -0.2715   14.1932    0.0000 C   0  0  1  0  0  0  0  0  0  0  0  0
   -0.8778   12.8212    0.0000 H   0  0  0  0  0  0  0  0  0  0  0  0
    1.4449   13.2061    0.0000 C   0  0  0  0  0  0  0  0  0  0  0  0
    2.7427   13.9582    0.0000 H   0  0  0  0  0  0  0  0  0  0  0  0
    1.4474   11.7061    0.0000 C   0  0  0  0  0  0  0  0  0  0  0  0
    0.1496   10.9539    0.0000 H   0  0  0  0  0  0  0  0  0  0  0  0
    2.7477   10.9582    0.0000 C   0  0  2  0  0  0  0  0  0  0  0  0
    4.2253   10.7002    0.0000 H   0  0  0  0  0  0  0  0  0  0  0  0
    2.7502    9.4582    0.0000 C   0  0  0  0  0  0  0  0  0  0  0  0
    1.2726    9.7162    0.0000 H   0  0  0  0  0  0  0  0  0  0  0  0
    2.2395    8.0478    0.0000 H   0  0  0  0  0  0  0  0  0  0  0  0
    4.0505    8.7104    0.0000 O   0  0  0  0  0  0  0  0  0  0  0  0
    4.0530    7.2104    0.0000 C   0  0  0  0  0  0  0  0  0  0  0  0
    5.3530    6.4604    0.0000 C   0  0  0  0  0  0  0  0  0  0  0  0
    6.6519    7.2106    0.0000 H   0  0  0  0  0  0  0  0  0  0  0  0
    5.3530    4.9604    0.0000 C   0  0  0  0  0  0  0  0  0  0  0  0
    4.0530    4.2104    0.0000 C   0  0  0  0  0  0  0  0  0  0  0  0
    4.0505    2.7104    0.0000 H   0  0  0  0  0  0  0  0  0  0  0  0
    2.7630    4.9604    0.0000 C   0  0  0  0  0  0  0  0  0  0  0  0
    1.4628    4.2124    0.0000 H   0  0  0  0  0  0  0  0  0  0  0  0
    2.7630    6.4604    0.0000 C   0  0  0  0  0  0  0  0  0  0  0  0
    1.4628    7.2085    0.0000 H   0  0  0  0  0  0  0  0  0  0  0  0
    6.6519    4.2102    0.0000 C   0  0  0  0  0  0  0  0  0  0  0  0
    6.6517    2.7102    0.0000 F   0  0  0  0  0  0  0  0  0  0  0  0
    8.1291    3.9495    0.0000 F   0  0  0  0  0  0  0  0  0  0  0  0
    7.1652    5.6197    0.0000 F   0  0  0  0  0  0  0  0  0  0  0  0
    3.2584   12.3686    0.0000 O   0  0  0  0  0  0  0  0  0  0  0  0
    4.7351   12.6316    0.0000 H   0  0  0  0  0  0  0  0  0  0  0  0
    0.6126   15.4115    0.0000 C   0  0  1  0  0  0  0  0  0  0  0  0
    1.7314   14.4123    0.0000 H   0  0  0  0  0  0  0  0  0  0  0  0
   -0.2900   16.6249    0.0000 C   0  0  0  0  0  0  0  0  0  0  0  0
    0.9995   17.3912    0.0000 H   0  0  0  0  0  0  0  0  0  0  0  0
   -0.9191   17.9867    0.0000 H   0  0  0  0  0  0  0  0  0  0  0  0
   -1.7170   16.1373    0.0000 C   0  0  2  0  0  0  0  0  0  0  0  0
   -2.0493   17.6000    0.0000 H   0  0  0  0  0  0  0  0  0  0  0  0
   -3.2067   15.9615    0.0000 O   0  0  0  0  0  0  0  0  0  0  0  0
   -3.4950   18.4046    0.0000 H   0  0  0  0  0  0  0  0  0  0  0  0
    1.7196   16.4237    0.0000 O   0  0  0  0  0  0  0  0  0  0  0  0
    3.1497   15.9711    0.0000 H   0  0  0  0  0  0  0  0  0  0  0  0
  -10.8868   18.3273    0.0000 O   0  0  0  0  0  0  0  0  0  0  0  0
  -11.9384   19.3969    0.0000 H   0  0  0  0  0  0  0  0  0  0  0  0
  1  2  1  0  0  0  0 
  1  3  1  0  0  0  0 
  1  4  1  0  0  0  0 
  1  5  1  0  0  0  0 
  5  6  1  0  0  0  0 
  5  7  1  0  0  0  0 
  7  8  1  0  0  0  0 
  7  9  1  0  0  0  0 
  7 10  1  0  0  0  0 
  5 11  1  0  0  0  0 
 11 12  1  0  0  0  0 
 12 13  2  0  0  0  0 
 12 14  1  0  0  0  0 
 14 15  1  0  0  0  0 
 14 16  1  0  0  0  0 
 14 17  1  0  0  0  0 
 17 18  1  0  0  0  0 
 17 19  1  0  0  0  0 
 19 20  1  0  0  0  0 
 19 21  1  0  0  0  0 
 19 22  1  0  0  0  0 
 22 23  1  0  0  0  0 
 22 24  2  0  0  0  0 
 24 25  1  0  0  0  0 
 24 26  1  0  0  0  0 
 26 27  1  0  0  0  0 
 26 28  1  0  0  0  0 
 29 26  1  1  0  0  0 
 29 30  1  6  0  0  0 
 29 31  1  0  0  0  0 
 31 32  1  1  0  0  0 
 31 33  1  6  0  0  0 
 33 34  1  0  0  0  0 
 33 35  2  0  0  0  0 
 35 36  1  0  0  0  0 
 35 37  1  0  0  0  0 
 37 38  1  6  0  0  0 
 37 39  1  0  0  0  0 
 39 40  1  0  0  0  0 
 39 41  1  0  0  0  0 
 39 42  1  0  0  0  0 
 42 43  1  0  0  0  0 
 43 44  2  0  0  0  0 
 44 45  1  0  0  0  0 
 44 46  1  0  0  0  0 
 46 47  2  0  0  0  0 
 47 48  1  0  0  0  0 
 47 49  1  0  0  0  0 
 49 50  1  0  0  0  0 
 49 51  2  0  0  0  0 
 43 51  1  0  0  0  0 
 51 52  1  0  0  0  0 
 46 53  1  0  0  0  0 
 53 54  1  0  0  0  0 
 53 55  1  0  0  0  0 
 53 56  1  0  0  0  0 
 37 57  1  1  0  0  0 
 57 58  1  0  0  0  0 
 31 59  1  0  0  0  0 
 59 60  1  6  0  0  0 
 59 61  1  0  0  0  0 
 61 62  1  0  0  0  0 
 61 63  1  0  0  0  0 
 61 64  1  0  0  0  0 
 29 64  1  0  0  0  0 
 64 65  1  6  0  0  0 
 64 66  1  1  0  0  0 
 66 67  1  0  0  0  0 
 59 68  1  1  0  0  0 
 68 69  1  0  0  0  0 
 17 70  1  0  0  0  0 
 70 71  1  0  0  0  0 
M  END
> <Rank>
43

> <Priority_score>
0.008

> <Reaction_type>
aliphatic hydroxylation

> <Parent_ID>
10

> <Parent_InChI>
InChI=1S/C26H35F3O6/c1-17(2)35-25(33)11-6-4-3-5-10-21-22(24(32)15-23(21)31)13-12-19(30)16-34-20-9-7-8-18(14-20)26(27,28)29/h3,5,7-9,12-14,17,19,21-24,30-32H,4,6,10-11,15-16H2,1-2H3

> <Parent_SMILES>
CC(C)OC(=O)CCC/C=C\C[C@H]1[C@@H](O)C[C@@H](O)[C@@H]1/C=C/[C@@H](O)COc1cccc(C(F)(F)F)c1

$$$$
Molecule 10_metabolite 46
  CDK     0516241031

 71 72  0  0  0  0  0  0  0  0999 V2000
    3.5185    0.6482    0.0000 C   0  0  0  0  0  0  0  0  0  0  0  0
    5.0116    0.5048    0.0000 H   0  0  0  0  0  0  0  0  0  0  0  0
    2.1644    1.2936    0.0000 H   0  0  0  0  0  0  0  0  0  0  0  0
    3.9190    2.0938    0.0000 H   0  0  0  0  0  0  0  0  0  0  0  0
    2.6478   -0.5732    0.0000 C   0  0  0  0  0  0  0  0  0  0  0  0
    4.0018   -1.2186    0.0000 H   0  0  0  0  0  0  0  0  0  0  0  0
    2.2473   -2.0187    0.0000 C   0  0  0  0  0  0  0  0  0  0  0  0
    3.2989   -3.0883    0.0000 H   0  0  0  0  0  0  0  0  0  0  0  0
    1.3766   -3.2401    0.0000 H   0  0  0  0  0  0  0  0  0  0  0  0
    0.8932   -1.3733    0.0000 H   0  0  0  0  0  0  0  0  0  0  0  0
    1.1546   -0.4298    0.0000 O   0  0  0  0  0  0  0  0  0  0  0  0
    0.5322    0.9350    0.0000 C   0  0  0  0  0  0  0  0  0  0  0  0
    1.4030    2.1564    0.0000 O   0  0  0  0  0  0  0  0  0  0  0  0
   -0.9609    1.0783    0.0000 C   0  0  0  0  0  0  0  0  0  0  0  0
   -2.4130    0.7024    0.0000 H   0  0  0  0  0  0  0  0  0  0  0  0
   -0.8428   -0.4170    0.0000 H   0  0  0  0  0  0  0  0  0  0  0  0
   -1.5833    2.4431    0.0000 C   0  0  0  0  0  0  0  0  0  0  0  0
   -0.1312    2.8191    0.0000 H   0  0  0  0  0  0  0  0  0  0  0  0
   -1.7014    3.9384    0.0000 H   0  0  0  0  0  0  0  0  0  0  0  0
   -3.0764    2.5865    0.0000 C   0  0  0  0  0  0  0  0  0  0  0  0
   -3.9472    1.3651    0.0000 H   0  0  0  0  0  0  0  0  0  0  0  0
   -3.6988    3.9512    0.0000 C   0  0  0  0  0  0  0  0  0  0  0  0
   -2.8281    5.1726    0.0000 H   0  0  0  0  0  0  0  0  0  0  0  0
   -5.1920    4.0946    0.0000 C   0  0  0  0  0  0  0  0  0  0  0  0
   -6.6441    3.7186    0.0000 H   0  0  0  0  0  0  0  0  0  0  0  0
   -5.8144    5.4594    0.0000 C   0  0  0  0  0  0  0  0  0  0  0  0
   -4.3623    5.8353    0.0000 H   0  0  0  0  0  0  0  0  0  0  0  0
   -5.9703    7.4332    0.0000 H   0  0  0  0  0  0  0  0  0  0  0  0
   -7.7853    5.6486    0.0000 C   0  0  2  0  0  0  0  0  0  0  0  0
   -7.7680    4.1487    0.0000 H   0  0  0  0  0  0  0  0  0  0  0  0
   -9.2748    5.4709    0.0000 C   0  0  1  0  0  0  0  0  0  0  0  0
   -8.9406    4.0086    0.0000 H   0  0  0  0  0  0  0  0  0  0  0  0
  -11.1476    4.8284    0.0000 C   0  0  0  0  0  0  0  0  0  0  0  0
  -12.2786    5.8138    0.0000 H   0  0  0  0  0  0  0  0  0  0  0  0
  -11.4355    3.3563    0.0000 C   0  0  0  0  0  0  0  0  0  0  0  0
  -10.3046    2.3709    0.0000 H   0  0  0  0  0  0  0  0  0  0  0  0
  -12.8543    2.8695    0.0000 C   0  0  2  0  0  0  0  0  0  0  0  0
  -14.3541    2.8974    0.0000 H   0  0  0  0  0  0  0  0  0  0  0  0
  -13.1422    1.3974    0.0000 C   0  0  0  0  0  0  0  0  0  0  0  0
  -11.6425    1.3695    0.0000 H   0  0  0  0  0  0  0  0  0  0  0  0
  -12.9093   -0.0844    0.0000 H   0  0  0  0  0  0  0  0  0  0  0  0
  -14.5611    0.9107    0.0000 O   0  0  0  0  0  0  0  0  0  0  0  0
  -14.8489   -0.5614    0.0000 C   0  0  0  0  0  0  0  0  0  0  0  0
  -16.2679   -1.0504    0.0000 C   0  0  0  0  0  0  0  0  0  0  0  0
  -17.4003   -0.0667    0.0000 H   0  0  0  0  0  0  0  0  0  0  0  0
  -16.5533   -2.5230    0.0000 C   0  0  0  0  0  0  0  0  0  0  0  0
  -15.4198   -3.5066    0.0000 C   0  0  0  0  0  0  0  0  0  0  0  0
  -15.7027   -4.9797    0.0000 H   0  0  0  0  0  0  0  0  0  0  0  0
  -14.0106   -3.0158    0.0000 C   0  0  0  0  0  0  0  0  0  0  0  0
  -12.8766   -3.9976    0.0000 H   0  0  0  0  0  0  0  0  0  0  0  0
  -13.7252   -1.5432    0.0000 C   0  0  0  0  0  0  0  0  0  0  0  0
  -12.3065   -1.0562    0.0000 H   0  0  0  0  0  0  0  0  0  0  0  0
  -17.9713   -3.0123    0.0000 C   0  0  0  0  0  0  0  0  0  0  0  0
  -18.2565   -4.4849    0.0000 F   0  0  0  0  0  0  0  0  0  0  0  0
  -19.4711   -2.9872    0.0000 F   0  0  0  0  0  0  0  0  0  0  0  0
  -18.2069   -1.5309    0.0000 F   0  0  0  0  0  0  0  0  0  0  0  0
  -13.0873    4.3513    0.0000 O   0  0  0  0  0  0  0  0  0  0  0  0
  -14.4871    4.8905    0.0000 H   0  0  0  0  0  0  0  0  0  0  0  0
   -9.9109    6.8351    0.0000 C   0  0  1  0  0  0  0  0  0  0  0  0
  -11.1994    6.0672    0.0000 H   0  0  0  0  0  0  0  0  0  0  0  0
   -8.7938    7.8547    0.0000 C   0  0  0  0  0  0  0  0  0  0  0  0
   -9.9140    8.8523    0.0000 H   0  0  0  0  0  0  0  0  0  0  0  0
   -7.9172    9.0718    0.0000 H   0  0  0  0  0  0  0  0  0  0  0  0
   -7.4857    7.1044    0.0000 C   0  0  2  0  0  0  0  0  0  0  0  0
   -6.8812    8.4772    0.0000 H   0  0  0  0  0  0  0  0  0  0  0  0
   -6.0567    6.6484    0.0000 O   0  0  0  0  0  0  0  0  0  0  0  0
   -4.9473    7.6579    0.0000 H   0  0  0  0  0  0  0  0  0  0  0  0
  -10.8050    8.0395    0.0000 O   0  0  0  0  0  0  0  0  0  0  0  0
  -12.2951    7.8673    0.0000 H   0  0  0  0  0  0  0  0  0  0  0  0
   -5.0739    2.5993    0.0000 O   0  0  0  0  0  0  0  0  0  0  0  0
   -6.3099    1.7493    0.0000 H   0  0  0  0  0  0  0  0  0  0  0  0
  1  2  1  0  0  0  0 
  1  3  1  0  0  0  0 
  1  4  1  0  0  0  0 
  1  5  1  0  0  0  0 
  5  6  1  0  0  0  0 
  5  7  1  0  0  0  0 
  7  8  1  0  0  0  0 
  7  9  1  0  0  0  0 
  7 10  1  0  0  0  0 
  5 11  1  0  0  0  0 
 11 12  1  0  0  0  0 
 12 13  2  0  0  0  0 
 12 14  1  0  0  0  0 
 14 15  1  0  0  0  0 
 14 16  1  0  0  0  0 
 14 17  1  0  0  0  0 
 17 18  1  0  0  0  0 
 17 19  1  0  0  0  0 
 17 20  1  0  0  0  0 
 20 21  1  4  0  0  0 
 20 22  2  0  0  0  0 
 22 23  1  0  0  0  0 
 22 24  1  0  0  0  0 
 24 25  1  0  0  0  0 
 24 26  1  0  0  0  0 
 26 27  1  0  0  0  0 
 26 28  1  0  0  0  0 
 29 26  1  6  0  0  0 
 29 30  1  1  0  0  0 
 29 31  1  0  0  0  0 
 31 32  1  6  0  0  0 
 31 33  1  1  0  0  0 
 33 34  1  0  0  0  0 
 33 35  2  0  0  0  0 
 35 36  1  0  0  0  0 
 35 37  1  0  0  0  0 
 37 38  1  1  0  0  0 
 37 39  1  0  0  0  0 
 39 40  1  0  0  0  0 
 39 41  1  0  0  0  0 
 39 42  1  0  0  0  0 
 42 43  1  0  0  0  0 
 43 44  2  0  0  0  0 
 44 45  1  0  0  0  0 
 44 46  1  0  0  0  0 
 46 47  2  0  0  0  0 
 47 48  1  0  0  0  0 
 47 49  1  0  0  0  0 
 49 50  1  0  0  0  0 
 49 51  2  0  0  0  0 
 43 51  1  0  0  0  0 
 51 52  1  0  0  0  0 
 46 53  1  0  0  0  0 
 53 54  1  0  0  0  0 
 53 55  1  0  0  0  0 
 53 56  1  0  0  0  0 
 37 57  1  6  0  0  0 
 57 58  1  0  0  0  0 
 31 59  1  0  0  0  0 
 59 60  1  1  0  0  0 
 59 61  1  0  0  0  0 
 61 62  1  0  0  0  0 
 61 63  1  0  0  0  0 
 61 64  1  0  0  0  0 
 29 64  1  0  0  0  0 
 64 65  1  1  0  0  0 
 64 66  1  6  0  0  0 
 66 67  1  0  0  0  0 
 59 68  1  6  0  0  0 
 68 69  1  0  0  0  0 
 24 70  1  0  0  0  0 
 70 71  1  0  0  0  0 
M  END
> <Rank>
46

> <Priority_score>
0.0072

> <Reaction_type>
aliphatic hydroxylation with allylic rearrangement 1

> <Parent_ID>
10

> <Parent_InChI>
InChI=1S/C26H35F3O6/c1-17(2)35-25(33)11-6-4-3-5-10-21-22(24(32)15-23(21)31)13-12-19(30)16-34-20-9-7-8-18(14-20)26(27,28)29/h3,5,7-9,12-14,17,19,21-24,30-32H,4,6,10-11,15-16H2,1-2H3

> <Parent_SMILES>
CC(C)OC(=O)CCC/C=C\C[C@H]1[C@@H](O)C[C@@H](O)[C@@H]1/C=C/[C@@H](O)COc1cccc(C(F)(F)F)c1

$$$$
Molecule 10_metabolite 47
  CDK     0516241031

 68 69  0  0  0  0  0  0  0  0999 V2000
  -18.6528    4.2627    0.0000 C   0  0  0  0  0  0  0  0  0  0  0  0
  -19.5235    3.0413    0.0000 H   0  0  0  0  0  0  0  0  0  0  0  0
  -20.0068    4.9081    0.0000 H   0  0  0  0  0  0  0  0  0  0  0  0
  -18.2523    5.7082    0.0000 H   0  0  0  0  0  0  0  0  0  0  0  0
  -17.1596    4.1193    0.0000 C   0  0  0  0  0  0  0  0  0  0  0  0
  -15.8056    3.4739    0.0000 H   0  0  0  0  0  0  0  0  0  0  0  0
  -17.5601    2.6738    0.0000 C   0  0  0  0  0  0  0  0  0  0  0  0
  -19.0122    2.2978    0.0000 H   0  0  0  0  0  0  0  0  0  0  0  0
  -16.0670    2.5304    0.0000 H   0  0  0  0  0  0  0  0  0  0  0  0
  -17.4420    1.1784    0.0000 H   0  0  0  0  0  0  0  0  0  0  0  0
  -16.2889    5.3407    0.0000 O   0  0  0  0  0  0  0  0  0  0  0  0
  -14.7958    5.1974    0.0000 C   0  0  0  0  0  0  0  0  0  0  0  0
  -14.1734    3.8326    0.0000 O   0  0  0  0  0  0  0  0  0  0  0  0
  -13.9250    6.4188    0.0000 C   0  0  0  0  0  0  0  0  0  0  0  0
  -15.2791    7.0642    0.0000 H   0  0  0  0  0  0  0  0  0  0  0  0
  -13.5246    7.8643    0.0000 H   0  0  0  0  0  0  0  0  0  0  0  0
  -12.4319    6.2754    0.0000 C   0  0  0  0  0  0  0  0  0  0  0  0
  -11.0779    5.6300    0.0000 H   0  0  0  0  0  0  0  0  0  0  0  0
  -12.8324    4.8298    0.0000 H   0  0  0  0  0  0  0  0  0  0  0  0
  -11.5612    7.4968    0.0000 C   0  0  0  0  0  0  0  0  0  0  0  0
  -12.1836    8.8616    0.0000 H   0  0  0  0  0  0  0  0  0  0  0  0
  -10.0680    7.3534    0.0000 C   0  0  0  0  0  0  0  0  0  0  0  0
   -8.5749    7.2101    0.0000 C   0  0  0  0  0  0  0  0  0  0  0  0
   -7.9525    5.8453    0.0000 H   0  0  0  0  0  0  0  0  0  0  0  0
   -7.7042    8.4315    0.0000 C   0  0  0  0  0  0  0  0  0  0  0  0
   -9.0582    9.0769    0.0000 H   0  0  0  0  0  0  0  0  0  0  0  0
   -7.1756   10.3396    0.0000 H   0  0  0  0  0  0  0  0  0  0  0  0
   -5.7333    8.2422    0.0000 C   0  0  2  0  0  0  0  0  0  0  0  0
   -6.0356    6.7730    0.0000 H   0  0  0  0  0  0  0  0  0  0  0  0
   -4.3049    7.7843    0.0000 C   0  0  1  0  0  0  0  0  0  0  0  0
   -4.9111    6.4123    0.0000 H   0  0  0  0  0  0  0  0  0  0  0  0
   -2.5885    6.7972    0.0000 C   0  0  0  0  0  0  0  0  0  0  0  0
   -1.2907    7.5494    0.0000 H   0  0  0  0  0  0  0  0  0  0  0  0
   -2.5860    5.2972    0.0000 C   0  0  0  0  0  0  0  0  0  0  0  0
   -3.8837    4.5450    0.0000 H   0  0  0  0  0  0  0  0  0  0  0  0
   -1.2857    4.5494    0.0000 C   0  0  2  0  0  0  0  0  0  0  0  0
    0.1920    4.2914    0.0000 H   0  0  0  0  0  0  0  0  0  0  0  0
   -1.2832    3.0494    0.0000 C   0  0  0  0  0  0  0  0  0  0  0  0
   -2.7608    3.3074    0.0000 H   0  0  0  0  0  0  0  0  0  0  0  0
   -1.7938    1.6390    0.0000 H   0  0  0  0  0  0  0  0  0  0  0  0
    0.0171    2.3015    0.0000 O   0  0  0  0  0  0  0  0  0  0  0  0
    0.0197    0.8015    0.0000 C   0  0  0  0  0  0  0  0  0  0  0  0
    1.3197    0.0515    0.0000 C   0  0  0  0  0  0  0  0  0  0  0  0
    2.6186    0.8018    0.0000 H   0  0  0  0  0  0  0  0  0  0  0  0
    1.3197   -1.4485    0.0000 C   0  0  0  0  0  0  0  0  0  0  0  0
    0.0197   -2.1985    0.0000 C   0  0  0  0  0  0  0  0  0  0  0  0
    0.0171   -3.6985    0.0000 H   0  0  0  0  0  0  0  0  0  0  0  0
   -1.2703   -1.4485    0.0000 C   0  0  0  0  0  0  0  0  0  0  0  0
   -2.5705   -2.1965    0.0000 H   0  0  0  0  0  0  0  0  0  0  0  0
   -1.2703    0.0515    0.0000 C   0  0  0  0  0  0  0  0  0  0  0  0
   -2.5705    0.7996    0.0000 H   0  0  0  0  0  0  0  0  0  0  0  0
    2.6186   -2.1987    0.0000 C   0  0  0  0  0  0  0  0  0  0  0  0
    2.6183   -3.6987    0.0000 F   0  0  0  0  0  0  0  0  0  0  0  0
    4.0957   -2.4594    0.0000 F   0  0  0  0  0  0  0  0  0  0  0  0
    3.1318   -0.7892    0.0000 F   0  0  0  0  0  0  0  0  0  0  0  0
   -0.7750    5.9598    0.0000 O   0  0  0  0  0  0  0  0  0  0  0  0
    0.7018    6.2227    0.0000 H   0  0  0  0  0  0  0  0  0  0  0  0
   -3.4207    9.0026    0.0000 C   0  0  1  0  0  0  0  0  0  0  0  0
   -2.3019    8.0035    0.0000 H   0  0  0  0  0  0  0  0  0  0  0  0
   -4.3234   10.2161    0.0000 C   0  0  0  0  0  0  0  0  0  0  0  0
   -3.0339   10.9823    0.0000 H   0  0  0  0  0  0  0  0  0  0  0  0
   -4.9524   11.5778    0.0000 H   0  0  0  0  0  0  0  0  0  0  0  0
   -5.7504    9.7284    0.0000 C   0  0  2  0  0  0  0  0  0  0  0  0
   -6.0827   11.1911    0.0000 H   0  0  0  0  0  0  0  0  0  0  0  0
   -7.2400    9.5526    0.0000 O   0  0  0  0  0  0  0  0  0  0  0  0
   -8.1371   10.7548    0.0000 H   0  0  0  0  0  0  0  0  0  0  0  0
   -2.3138   10.0148    0.0000 O   0  0  0  0  0  0  0  0  0  0  0  0
   -0.8837    9.5622    0.0000 H   0  0  0  0  0  0  0  0  0  0  0  0
  1  2  1  0  0  0  0 
  1  3  1  0  0  0  0 
  1  4  1  0  0  0  0 
  1  5  1  0  0  0  0 
  5  6  1  0  0  0  0 
  5  7  1  0  0  0  0 
  7  8  1  0  0  0  0 
  7  9  1  0  0  0  0 
  7 10  1  0  0  0  0 
  5 11  1  0  0  0  0 
 11 12  1  0  0  0  0 
 12 13  2  0  0  0  0 
 12 14  1  0  0  0  0 
 14 15  1  0  0  0  0 
 14 16  1  0  0  0  0 
 14 17  1  0  0  0  0 
 17 18  1  0  0  0  0 
 17 19  1  0  0  0  0 
 17 20  1  0  0  0  0 
 20 21  1  0  0  0  0 
 20 22  2  0  0  0  0 
 22 23  2  0  0  0  0 
 23 24  1  0  0  0  0 
 23 25  1  0  0  0  0 
 25 26  1  0  0  0  0 
 25 27  1  0  0  0  0 
 28 25  1  1  0  0  0 
 28 29  1  6  0  0  0 
 28 30  1  0  0  0  0 
 30 31  1  1  0  0  0 
 30 32  1  6  0  0  0 
 32 33  1  0  0  0  0 
 32 34  2  0  0  0  0 
 34 35  1  0  0  0  0 
 34 36  1  0  0  0  0 
 36 37  1  6  0  0  0 
 36 38  1  0  0  0  0 
 38 39  1  0  0  0  0 
 38 40  1  0  0  0  0 
 38 41  1  0  0  0  0 
 41 42  1  0  0  0  0 
 42 43  2  0  0  0  0 
 43 44  1  0  0  0  0 
 43 45  1  0  0  0  0 
 45 46  2  0  0  0  0 
 46 47  1  0  0  0  0 
 46 48  1  0  0  0  0 
 48 49  1  0  0  0  0 
 48 50  2  0  0  0  0 
 42 50  1  0  0  0  0 
 50 51  1  0  0  0  0 
 45 52  1  0  0  0  0 
 52 53  1  0  0  0  0 
 52 54  1  0  0  0  0 
 52 55  1  0  0  0  0 
 36 56  1  1  0  0  0 
 56 57  1  0  0  0  0 
 30 58  1  0  0  0  0 
 58 59  1  6  0  0  0 
 58 60  1  0  0  0  0 
 60 61  1  0  0  0  0 
 60 62  1  0  0  0  0 
 60 63  1  0  0  0  0 
 28 63  1  0  0  0  0 
 63 64  1  6  0  0  0 
 63 65  1  1  0  0  0 
 65 66  1  0  0  0  0 
 58 67  1  1  0  0  0 
 67 68  1  0  0  0  0 
M  END
> <Rank>
46

> <Priority_score>
0.0072

> <Reaction_type>
alkyl dehydrogenation

> <Parent_ID>
10

> <Parent_InChI>
InChI=1S/C26H35F3O6/c1-17(2)35-25(33)11-6-4-3-5-10-21-22(24(32)15-23(21)31)13-12-19(30)16-34-20-9-7-8-18(14-20)26(27,28)29/h3,5,7-9,12-14,17,19,21-24,30-32H,4,6,10-11,15-16H2,1-2H3

> <Parent_SMILES>
CC(C)OC(=O)CCC/C=C\C[C@H]1[C@@H](O)C[C@@H](O)[C@@H]1/C=C/[C@@H](O)COc1cccc(C(F)(F)F)c1

$$$$
Molecule 10_metabolite 48
  CDK     0516241031

 71 72  0  0  0  0  0  0  0  0999 V2000
  -17.9401    2.9654    0.0000 C   0  0  0  0  0  0  0  0  0  0  0  0
  -19.4333    3.1088    0.0000 H   0  0  0  0  0  0  0  0  0  0  0  0
  -16.5861    2.3200    0.0000 H   0  0  0  0  0  0  0  0  0  0  0  0
  -18.3406    1.5199    0.0000 H   0  0  0  0  0  0  0  0  0  0  0  0
  -17.0694    4.1868    0.0000 C   0  0  0  0  0  0  0  0  0  0  0  0
  -18.4235    4.8322    0.0000 H   0  0  0  0  0  0  0  0  0  0  0  0
  -16.6689    5.6324    0.0000 C   0  0  0  0  0  0  0  0  0  0  0  0
  -17.7206    6.7020    0.0000 H   0  0  0  0  0  0  0  0  0  0  0  0
  -15.7982    6.8538    0.0000 H   0  0  0  0  0  0  0  0  0  0  0  0
  -15.3149    4.9870    0.0000 H   0  0  0  0  0  0  0  0  0  0  0  0
  -15.5763    4.0435    0.0000 O   0  0  0  0  0  0  0  0  0  0  0  0
  -14.9539    2.6787    0.0000 C   0  0  0  0  0  0  0  0  0  0  0  0
  -15.8246    1.4573    0.0000 O   0  0  0  0  0  0  0  0  0  0  0  0
  -13.4607    2.5353    0.0000 C   0  0  0  0  0  0  0  0  0  0  0  0
  -12.0086    2.9113    0.0000 H   0  0  0  0  0  0  0  0  0  0  0  0
  -13.5788    4.0307    0.0000 H   0  0  0  0  0  0  0  0  0  0  0  0
  -12.6392    0.7338    0.0000 C   0  0  0  0  0  0  0  0  0  0  0  0
  -14.0913    0.3579    0.0000 H   0  0  0  0  0  0  0  0  0  0  0  0
  -12.5211   -0.7615    0.0000 H   0  0  0  0  0  0  0  0  0  0  0  0
  -10.6682    0.5446    0.0000 C   0  0  0  0  0  0  0  0  0  0  0  0
   -9.2161    0.9205    0.0000 H   0  0  0  0  0  0  0  0  0  0  0  0
  -10.7863    2.0399    0.0000 H   0  0  0  0  0  0  0  0  0  0  0  0
  -10.0458   -0.8202    0.0000 C   0  0  0  0  0  0  0  0  0  0  0  0
  -11.4979   -1.1962    0.0000 H   0  0  0  0  0  0  0  0  0  0  0  0
   -8.5527   -0.9636    0.0000 C   0  0  0  0  0  0  0  0  0  0  0  0
   -7.6820    0.2578    0.0000 H   0  0  0  0  0  0  0  0  0  0  0  0
   -7.9303   -2.3283    0.0000 C   0  0  0  0  0  0  0  0  0  0  0  0
   -8.8010   -3.5498    0.0000 H   0  0  0  0  0  0  0  0  0  0  0  0
   -5.9593   -2.5176    0.0000 C   0  0  2  0  0  0  0  0  0  0  0  0
   -5.9766   -1.0177    0.0000 H   0  0  0  0  0  0  0  0  0  0  0  0
   -4.4699   -2.3398    0.0000 C   0  0  1  0  0  0  0  0  0  0  0  0
   -4.8040   -0.8775    0.0000 H   0  0  0  0  0  0  0  0  0  0  0  0
   -2.5971   -1.6974    0.0000 C   0  0  0  0  0  0  0  0  0  0  0  0
   -1.4661   -2.6827    0.0000 H   0  0  0  0  0  0  0  0  0  0  0  0
   -2.3092   -0.2252    0.0000 C   0  0  0  0  0  0  0  0  0  0  0  0
   -3.4401    0.7601    0.0000 H   0  0  0  0  0  0  0  0  0  0  0  0
   -0.8903    0.2615    0.0000 C   0  0  2  0  0  0  0  0  0  0  0  0
    0.6094    0.2336    0.0000 H   0  0  0  0  0  0  0  0  0  0  0  0
   -0.6024    1.7336    0.0000 C   0  0  0  0  0  0  0  0  0  0  0  0
   -2.1022    1.7615    0.0000 H   0  0  0  0  0  0  0  0  0  0  0  0
   -0.8354    3.2154    0.0000 H   0  0  0  0  0  0  0  0  0  0  0  0
    0.8164    2.2204    0.0000 O   0  0  0  0  0  0  0  0  0  0  0  0
    1.1043    3.6925    0.0000 C   0  0  0  0  0  0  0  0  0  0  0  0
    2.5232    4.1814    0.0000 C   0  0  0  0  0  0  0  0  0  0  0  0
    3.6557    3.1977    0.0000 H   0  0  0  0  0  0  0  0  0  0  0  0
    2.8087    5.6540    0.0000 C   0  0  0  0  0  0  0  0  0  0  0  0
    1.6751    6.6377    0.0000 C   0  0  0  0  0  0  0  0  0  0  0  0
    1.9581    8.1107    0.0000 H   0  0  0  0  0  0  0  0  0  0  0  0
    0.2660    6.1468    0.0000 C   0  0  0  0  0  0  0  0  0  0  0  0
   -0.8681    7.1286    0.0000 H   0  0  0  0  0  0  0  0  0  0  0  0
   -0.0194    4.6742    0.0000 C   0  0  0  0  0  0  0  0  0  0  0  0
   -1.4382    4.1873    0.0000 H   0  0  0  0  0  0  0  0  0  0  0  0
    4.2266    6.1433    0.0000 C   0  0  0  0  0  0  0  0  0  0  0  0
    4.5118    7.6160    0.0000 F   0  0  0  0  0  0  0  0  0  0  0  0
    5.7264    6.1182    0.0000 F   0  0  0  0  0  0  0  0  0  0  0  0
    4.4623    4.6620    0.0000 F   0  0  0  0  0  0  0  0  0  0  0  0
   -0.6574   -1.2203    0.0000 O   0  0  0  0  0  0  0  0  0  0  0  0
    0.7424   -1.7594    0.0000 H   0  0  0  0  0  0  0  0  0  0  0  0
   -3.8338   -3.7041    0.0000 C   0  0  1  0  0  0  0  0  0  0  0  0
   -2.5453   -2.9361    0.0000 H   0  0  0  0  0  0  0  0  0  0  0  0
   -4.9508   -4.7236    0.0000 C   0  0  0  0  0  0  0  0  0  0  0  0
   -3.8307   -5.7212    0.0000 H   0  0  0  0  0  0  0  0  0  0  0  0
   -5.8275   -5.9408    0.0000 H   0  0  0  0  0  0  0  0  0  0  0  0
   -6.2589   -3.9734    0.0000 C   0  0  2  0  0  0  0  0  0  0  0  0
   -6.8635   -5.3461    0.0000 H   0  0  0  0  0  0  0  0  0  0  0  0
   -7.6880   -3.5173    0.0000 O   0  0  0  0  0  0  0  0  0  0  0  0
   -8.7974   -4.5269    0.0000 H   0  0  0  0  0  0  0  0  0  0  0  0
   -2.9396   -4.9084    0.0000 O   0  0  0  0  0  0  0  0  0  0  0  0
   -1.4495   -4.7363    0.0000 H   0  0  0  0  0  0  0  0  0  0  0  0
   -9.9277   -2.3155    0.0000 O   0  0  0  0  0  0  0  0  0  0  0  0
  -11.1637   -3.1655    0.0000 H   0  0  0  0  0  0  0  0  0  0  0  0
  1  2  1  0  0  0  0 
  1  3  1  0  0  0  0 
  1  4  1  0  0  0  0 
  1  5  1  0  0  0  0 
  5  6  1  0  0  0  0 
  5  7  1  0  0  0  0 
  7  8  1  0  0  0  0 
  7  9  1  0  0  0  0 
  7 10  1  0  0  0  0 
  5 11  1  0  0  0  0 
 11 12  1  0  0  0  0 
 12 13  2  0  0  0  0 
 12 14  1  0  0  0  0 
 14 15  1  0  0  0  0 
 14 16  1  0  0  0  0 
 14 17  1  0  0  0  0 
 17 18  1  0  0  0  0 
 17 19  1  0  0  0  0 
 17 20  1  0  0  0  0 
 20 21  1  0  0  0  0 
 20 22  1  0  0  0  0 
 20 23  1  0  0  0  0 
 23 24  1  0  0  0  0 
 23 25  1  0  0  0  0 
 25 26  1  4  0  0  0 
 25 27  2  0  0  0  0 
 27 28  1  0  0  0  0 
 29 27  1  6  0  0  0 
 29 30  1  1  0  0  0 
 29 31  1  0  0  0  0 
 31 32  1  6  0  0  0 
 31 33  1  1  0  0  0 
 33 34  1  0  0  0  0 
 33 35  2  0  0  0  0 
 35 36  1  0  0  0  0 
 35 37  1  0  0  0  0 
 37 38  1  1  0  0  0 
 37 39  1  0  0  0  0 
 39 40  1  0  0  0  0 
 39 41  1  0  0  0  0 
 39 42  1  0  0  0  0 
 42 43  1  0  0  0  0 
 43 44  2  0  0  0  0 
 44 45  1  0  0  0  0 
 44 46  1  0  0  0  0 
 46 47  2  0  0  0  0 
 47 48  1  0  0  0  0 
 47 49  1  0  0  0  0 
 49 50  1  0  0  0  0 
 49 51  2  0  0  0  0 
 43 51  1  0  0  0  0 
 51 52  1  0  0  0  0 
 46 53  1  0  0  0  0 
 53 54  1  0  0  0  0 
 53 55  1  0  0  0  0 
 53 56  1  0  0  0  0 
 37 57  1  6  0  0  0 
 57 58  1  0  0  0  0 
 31 59  1  0  0  0  0 
 59 60  1  1  0  0  0 
 59 61  1  0  0  0  0 
 61 62  1  0  0  0  0 
 61 63  1  0  0  0  0 
 61 64  1  0  0  0  0 
 29 64  1  0  0  0  0 
 64 65  1  1  0  0  0 
 64 66  1  6  0  0  0 
 66 67  1  0  0  0  0 
 59 68  1  6  0  0  0 
 68 69  1  0  0  0  0 
 23 70  1  0  0  0  0 
 70 71  1  0  0  0  0 
M  END
> <Rank>
46

> <Priority_score>
0.0072

> <Reaction_type>
aliphatic hydroxylation with allylic rearrangement 1

> <Parent_ID>
10

> <Parent_InChI>
InChI=1S/C26H35F3O6/c1-17(2)35-25(33)11-6-4-3-5-10-21-22(24(32)15-23(21)31)13-12-19(30)16-34-20-9-7-8-18(14-20)26(27,28)29/h3,5,7-9,12-14,17,19,21-24,30-32H,4,6,10-11,15-16H2,1-2H3

> <Parent_SMILES>
CC(C)OC(=O)CCC/C=C\C[C@H]1[C@@H](O)C[C@@H](O)[C@@H]1/C=C/[C@@H](O)COc1cccc(C(F)(F)F)c1

$$$$
Molecule 10_metabolite 49
  CDK     0516241031

 68 69  0  0  0  0  0  0  0  0999 V2000
  -16.0865   15.5220    0.0000 C   0  0  0  0  0  0  0  0  0  0  0  0
  -17.5796   15.6653    0.0000 H   0  0  0  0  0  0  0  0  0  0  0  0
  -14.6344   15.8979    0.0000 H   0  0  0  0  0  0  0  0  0  0  0  0
  -16.2046   17.0173    0.0000 H   0  0  0  0  0  0  0  0  0  0  0  0
  -15.4641   14.1572    0.0000 C   0  0  0  0  0  0  0  0  0  0  0  0
  -16.9162   13.7812    0.0000 H   0  0  0  0  0  0  0  0  0  0  0  0
  -15.3460   12.6619    0.0000 C   0  0  0  0  0  0  0  0  0  0  0  0
  -16.5819   11.8119    0.0000 H   0  0  0  0  0  0  0  0  0  0  0  0
  -14.7236   11.2971    0.0000 H   0  0  0  0  0  0  0  0  0  0  0  0
  -13.8939   13.0378    0.0000 H   0  0  0  0  0  0  0  0  0  0  0  0
  -13.9709   14.0138    0.0000 O   0  0  0  0  0  0  0  0  0  0  0  0
  -13.1002   15.2352    0.0000 C   0  0  0  0  0  0  0  0  0  0  0  0
  -13.7226   16.6000    0.0000 O   0  0  0  0  0  0  0  0  0  0  0  0
  -11.6071   15.0919    0.0000 C   0  0  0  0  0  0  0  0  0  0  0  0
  -10.2530   14.4465    0.0000 H   0  0  0  0  0  0  0  0  0  0  0  0
  -12.0076   13.6463    0.0000 H   0  0  0  0  0  0  0  0  0  0  0  0
  -10.7364   16.3133    0.0000 C   0  0  0  0  0  0  0  0  0  0  0  0
  -11.3588   17.6781    0.0000 H   0  0  0  0  0  0  0  0  0  0  0  0
   -9.2432   16.1699    0.0000 C   0  0  0  0  0  0  0  0  0  0  0  0
   -8.6208   14.8051    0.0000 H   0  0  0  0  0  0  0  0  0  0  0  0
   -8.3725   17.3913    0.0000 C   0  0  0  0  0  0  0  0  0  0  0  0
   -8.9949   18.7561    0.0000 H   0  0  0  0  0  0  0  0  0  0  0  0
   -6.8794   17.2480    0.0000 C   0  0  0  0  0  0  0  0  0  0  0  0
   -6.0086   18.4694    0.0000 H   0  0  0  0  0  0  0  0  0  0  0  0
   -5.6594   14.5730    0.0000 C   0  0  0  0  0  0  0  0  0  0  0  0
   -7.1116   14.1970    0.0000 H   0  0  0  0  0  0  0  0  0  0  0  0
   -5.5414   13.0777    0.0000 H   0  0  0  0  0  0  0  0  0  0  0  0
   -3.2107   14.3379    0.0000 C   0  0  2  0  0  0  0  0  0  0  0  0
   -3.5131   12.8687    0.0000 H   0  0  0  0  0  0  0  0  0  0  0  0
   -1.7823   13.8800    0.0000 C   0  0  1  0  0  0  0  0  0  0  0  0
   -2.3886   12.5079    0.0000 H   0  0  0  0  0  0  0  0  0  0  0  0
   -0.0659   12.8928    0.0000 C   0  0  0  0  0  0  0  0  0  0  0  0
    1.2319   13.6450    0.0000 H   0  0  0  0  0  0  0  0  0  0  0  0
   -0.0634   11.3928    0.0000 C   0  0  0  0  0  0  0  0  0  0  0  0
   -1.3612   10.6407    0.0000 H   0  0  0  0  0  0  0  0  0  0  0  0
    1.2369   10.6450    0.0000 C   0  0  2  0  0  0  0  0  0  0  0  0
    2.7145   10.3870    0.0000 H   0  0  0  0  0  0  0  0  0  0  0  0
    1.2394    9.1450    0.0000 C   0  0  0  0  0  0  0  0  0  0  0  0
   -0.2383    9.4030    0.0000 H   0  0  0  0  0  0  0  0  0  0  0  0
    0.7287    7.7346    0.0000 H   0  0  0  0  0  0  0  0  0  0  0  0
    2.5397    8.3972    0.0000 O   0  0  0  0  0  0  0  0  0  0  0  0
    2.5422    6.8972    0.0000 C   0  0  0  0  0  0  0  0  0  0  0  0
    3.8422    6.1472    0.0000 C   0  0  0  0  0  0  0  0  0  0  0  0
    5.1411    6.8974    0.0000 H   0  0  0  0  0  0  0  0  0  0  0  0
    3.8422    4.6472    0.0000 C   0  0  0  0  0  0  0  0  0  0  0  0
    2.5422    3.8972    0.0000 C   0  0  0  0  0  0  0  0  0  0  0  0
    2.5397    2.3972    0.0000 H   0  0  0  0  0  0  0  0  0  0  0  0
    1.2522    4.6472    0.0000 C   0  0  0  0  0  0  0  0  0  0  0  0
   -0.0480    3.8992    0.0000 H   0  0  0  0  0  0  0  0  0  0  0  0
    1.2522    6.1472    0.0000 C   0  0  0  0  0  0  0  0  0  0  0  0
   -0.0480    6.8952    0.0000 H   0  0  0  0  0  0  0  0  0  0  0  0
    5.1411    3.8970    0.0000 C   0  0  0  0  0  0  0  0  0  0  0  0
    5.1409    2.3970    0.0000 F   0  0  0  0  0  0  0  0  0  0  0  0
    6.6183    3.6363    0.0000 F   0  0  0  0  0  0  0  0  0  0  0  0
    5.6544    5.3064    0.0000 F   0  0  0  0  0  0  0  0  0  0  0  0
    1.7475   12.0554    0.0000 O   0  0  0  0  0  0  0  0  0  0  0  0
    3.2243   12.3184    0.0000 H   0  0  0  0  0  0  0  0  0  0  0  0
   -0.8982   15.0982    0.0000 C   0  0  1  0  0  0  0  0  0  0  0  0
    0.2206   14.0991    0.0000 H   0  0  0  0  0  0  0  0  0  0  0  0
   -1.8009   16.3117    0.0000 C   0  0  0  0  0  0  0  0  0  0  0  0
   -0.5113   17.0779    0.0000 H   0  0  0  0  0  0  0  0  0  0  0  0
   -2.4299   17.6734    0.0000 H   0  0  0  0  0  0  0  0  0  0  0  0
   -3.2278   15.8240    0.0000 C   0  0  2  0  0  0  0  0  0  0  0  0
   -3.5601   17.2868    0.0000 H   0  0  0  0  0  0  0  0  0  0  0  0
   -4.7175   15.6483    0.0000 O   0  0  0  0  0  0  0  0  0  0  0  0
   -5.0058   18.0913    0.0000 H   0  0  0  0  0  0  0  0  0  0  0  0
    0.2088   16.1104    0.0000 O   0  0  0  0  0  0  0  0  0  0  0  0
    1.6389   15.6579    0.0000 H   0  0  0  0  0  0  0  0  0  0  0  0
  1  2  1  0  0  0  0 
  1  3  1  0  0  0  0 
  1  4  1  0  0  0  0 
  1  5  1  0  0  0  0 
  5  6  1  0  0  0  0 
  5  7  1  0  0  0  0 
  7  8  1  0  0  0  0 
  7  9  1  0  0  0  0 
  7 10  1  0  0  0  0 
  5 11  1  0  0  0  0 
 11 12  1  0  0  0  0 
 12 13  2  0  0  0  0 
 12 14  1  0  0  0  0 
 14 15  1  0  0  0  0 
 14 16  1  0  0  0  0 
 14 17  1  0  0  0  0 
 17 18  1  4  0  0  0 
 17 19  2  0  0  0  0 
 19 20  1  0  0  0  0 
 19 21  1  0  0  0  0 
 21 22  1  0  0  0  0 
 21 23  2  0  0  0  0 
 23 24  1  0  0  0  0 
 23 25  1  0  0  0  0 
 25 26  1  0  0  0  0 
 25 27  1  0  0  0  0 
 28 25  1  1  0  0  0 
 28 29  1  6  0  0  0 
 28 30  1  0  0  0  0 
 30 31  1  1  0  0  0 
 30 32  1  6  0  0  0 
 32 33  1  0  0  0  0 
 32 34  2  0  0  0  0 
 34 35  1  0  0  0  0 
 34 36  1  0  0  0  0 
 36 37  1  6  0  0  0 
 36 38  1  0  0  0  0 
 38 39  1  0  0  0  0 
 38 40  1  0  0  0  0 
 38 41  1  0  0  0  0 
 41 42  1  0  0  0  0 
 42 43  2  0  0  0  0 
 43 44  1  0  0  0  0 
 43 45  1  0  0  0  0 
 45 46  2  0  0  0  0 
 46 47  1  0  0  0  0 
 46 48  1  0  0  0  0 
 48 49  1  0  0  0  0 
 48 50  2  0  0  0  0 
 42 50  1  0  0  0  0 
 50 51  1  0  0  0  0 
 45 52  1  0  0  0  0 
 52 53  1  0  0  0  0 
 52 54  1  0  0  0  0 
 52 55  1  0  0  0  0 
 36 56  1  1  0  0  0 
 56 57  1  0  0  0  0 
 30 58  1  0  0  0  0 
 58 59  1  6  0  0  0 
 58 60  1  0  0  0  0 
 60 61  1  0  0  0  0 
 60 62  1  0  0  0  0 
 60 63  1  0  0  0  0 
 28 63  1  0  0  0  0 
 63 64  1  6  0  0  0 
 63 65  1  1  0  0  0 
 65 66  1  0  0  0  0 
 58 67  1  1  0  0  0 
 67 68  1  0  0  0  0 
M  END
> <Rank>
46

> <Priority_score>
0.0072

> <Reaction_type>
alkyl dehydrogenation

> <Parent_ID>
10

> <Parent_InChI>
InChI=1S/C26H35F3O6/c1-17(2)35-25(33)11-6-4-3-5-10-21-22(24(32)15-23(21)31)13-12-19(30)16-34-20-9-7-8-18(14-20)26(27,28)29/h3,5,7-9,12-14,17,19,21-24,30-32H,4,6,10-11,15-16H2,1-2H3

> <Parent_SMILES>
CC(C)OC(=O)CCC/C=C\C[C@H]1[C@@H](O)C[C@@H](O)[C@@H]1/C=C/[C@@H](O)COc1cccc(C(F)(F)F)c1

$$$$
Molecule 10_metabolite 50
  CDK     0516241031

 68 69  0  0  0  0  0  0  0  0999 V2000
  -10.8124   11.8195    0.0000 C   0  0  0  0  0  0  0  0  0  0  0  0
  -10.1900   10.4547    0.0000 H   0  0  0  0  0  0  0  0  0  0  0  0
  -10.9305   13.3149    0.0000 H   0  0  0  0  0  0  0  0  0  0  0  0
   -9.3603   12.1955    0.0000 H   0  0  0  0  0  0  0  0  0  0  0  0
  -12.3056   11.9629    0.0000 C   0  0  0  0  0  0  0  0  0  0  0  0
  -12.1875   10.4675    0.0000 H   0  0  0  0  0  0  0  0  0  0  0  0
  -13.7577   11.5869    0.0000 C   0  0  0  0  0  0  0  0  0  0  0  0
  -14.1582   10.1414    0.0000 H   0  0  0  0  0  0  0  0  0  0  0  0
  -15.2508   11.7303    0.0000 H   0  0  0  0  0  0  0  0  0  0  0  0
  -13.8758   13.0823    0.0000 H   0  0  0  0  0  0  0  0  0  0  0  0
  -12.9280   13.3277    0.0000 O   0  0  0  0  0  0  0  0  0  0  0  0
  -12.0573   14.5491    0.0000 C   0  0  0  0  0  0  0  0  0  0  0  0
  -10.5641   14.4057    0.0000 O   0  0  0  0  0  0  0  0  0  0  0  0
  -12.6797   15.9138    0.0000 C   0  0  0  0  0  0  0  0  0  0  0  0
  -13.7313   16.9834    0.0000 H   0  0  0  0  0  0  0  0  0  0  0  0
  -13.9156   15.0639    0.0000 H   0  0  0  0  0  0  0  0  0  0  0  0
  -11.8089   17.1352    0.0000 C   0  0  0  0  0  0  0  0  0  0  0  0
  -13.1630   17.7806    0.0000 H   0  0  0  0  0  0  0  0  0  0  0  0
  -11.4085   18.5808    0.0000 H   0  0  0  0  0  0  0  0  0  0  0  0
  -10.3158   16.9919    0.0000 C   0  0  0  0  0  0  0  0  0  0  0  0
   -8.9618   16.3465    0.0000 H   0  0  0  0  0  0  0  0  0  0  0  0
  -10.7163   15.5463    0.0000 H   0  0  0  0  0  0  0  0  0  0  0  0
   -9.4451   18.2133    0.0000 C   0  0  0  0  0  0  0  0  0  0  0  0
  -10.0675   19.5781    0.0000 H   0  0  0  0  0  0  0  0  0  0  0  0
   -7.4741   18.0240    0.0000 C   0  0  0  0  0  0  0  0  0  0  0  0
   -6.6034   19.2454    0.0000 H   0  0  0  0  0  0  0  0  0  0  0  0
   -6.4534   15.7858    0.0000 C   0  0  0  0  0  0  0  0  0  0  0  0
   -7.9055   15.4098    0.0000 H   0  0  0  0  0  0  0  0  0  0  0  0
   -6.3353   14.2905    0.0000 H   0  0  0  0  0  0  0  0  0  0  0  0
   -4.4825   15.5966    0.0000 C   0  0  2  0  0  0  0  0  0  0  0  0
   -4.7848   14.1274    0.0000 H   0  0  0  0  0  0  0  0  0  0  0  0
   -3.0541   15.1386    0.0000 C   0  0  1  0  0  0  0  0  0  0  0  0
   -3.6603   13.7666    0.0000 H   0  0  0  0  0  0  0  0  0  0  0  0
   -1.7538   14.3908    0.0000 C   0  0  0  0  0  0  0  0  0  0  0  0
   -0.4560   15.1430    0.0000 H   0  0  0  0  0  0  0  0  0  0  0  0
   -1.7513   12.8908    0.0000 C   0  0  0  0  0  0  0  0  0  0  0  0
   -3.0490   12.1387    0.0000 H   0  0  0  0  0  0  0  0  0  0  0  0
   -0.4510   12.1430    0.0000 C   0  0  2  0  0  0  0  0  0  0  0  0
    1.0267   11.8850    0.0000 H   0  0  0  0  0  0  0  0  0  0  0  0
   -0.4485   10.6430    0.0000 C   0  0  0  0  0  0  0  0  0  0  0  0
   -1.9261   10.9010    0.0000 H   0  0  0  0  0  0  0  0  0  0  0  0
   -0.9591    9.2326    0.0000 H   0  0  0  0  0  0  0  0  0  0  0  0
    0.8518    9.8952    0.0000 O   0  0  0  0  0  0  0  0  0  0  0  0
    0.8543    8.3952    0.0000 C   0  0  0  0  0  0  0  0  0  0  0  0
    2.1543    7.6452    0.0000 C   0  0  0  0  0  0  0  0  0  0  0  0
    3.4533    8.3954    0.0000 H   0  0  0  0  0  0  0  0  0  0  0  0
    2.1543    6.1452    0.0000 C   0  0  0  0  0  0  0  0  0  0  0  0
    0.8543    5.3952    0.0000 C   0  0  0  0  0  0  0  0  0  0  0  0
    0.8518    3.8952    0.0000 H   0  0  0  0  0  0  0  0  0  0  0  0
   -0.4357    6.1452    0.0000 C   0  0  0  0  0  0  0  0  0  0  0  0
   -1.7358    5.3972    0.0000 H   0  0  0  0  0  0  0  0  0  0  0  0
   -0.4357    7.6452    0.0000 C   0  0  0  0  0  0  0  0  0  0  0  0
   -1.7358    8.3932    0.0000 H   0  0  0  0  0  0  0  0  0  0  0  0
    3.4533    5.3950    0.0000 C   0  0  0  0  0  0  0  0  0  0  0  0
    3.4530    3.8950    0.0000 F   0  0  0  0  0  0  0  0  0  0  0  0
    4.9304    5.1343    0.0000 F   0  0  0  0  0  0  0  0  0  0  0  0
    3.9665    6.8044    0.0000 F   0  0  0  0  0  0  0  0  0  0  0  0
    0.0597   13.5534    0.0000 O   0  0  0  0  0  0  0  0  0  0  0  0
    1.5365   13.8163    0.0000 H   0  0  0  0  0  0  0  0  0  0  0  0
   -2.1700   16.3569    0.0000 C   0  0  0  0  0  0  0  0  0  0  0  0
   -3.0726   17.5704    0.0000 C   0  0  0  0  0  0  0  0  0  0  0  0
   -2.6279   19.0030    0.0000 H   0  0  0  0  0  0  0  0  0  0  0  0
   -4.4996   17.0827    0.0000 C   0  0  2  0  0  0  0  0  0  0  0  0
   -4.8319   18.5455    0.0000 H   0  0  0  0  0  0  0  0  0  0  0  0
   -5.8776   17.6753    0.0000 O   0  0  0  0  0  0  0  0  0  0  0  0
   -6.1658   20.1184    0.0000 H   0  0  0  0  0  0  0  0  0  0  0  0
   -0.6700   16.3657    0.0000 O   0  0  0  0  0  0  0  0  0  0  0  0
    0.0723   17.6692    0.0000 H   0  0  0  0  0  0  0  0  0  0  0  0
  1  2  1  0  0  0  0 
  1  3  1  0  0  0  0 
  1  4  1  0  0  0  0 
  1  5  1  0  0  0  0 
  5  6  1  0  0  0  0 
  5  7  1  0  0  0  0 
  7  8  1  0  0  0  0 
  7  9  1  0  0  0  0 
  7 10  1  0  0  0  0 
  5 11  1  0  0  0  0 
 11 12  1  0  0  0  0 
 12 13  2  0  0  0  0 
 12 14  1  0  0  0  0 
 14 15  1  0  0  0  0 
 14 16  1  0  0  0  0 
 14 17  1  0  0  0  0 
 17 18  1  0  0  0  0 
 17 19  1  0  0  0  0 
 17 20  1  0  0  0  0 
 20 21  1  0  0  0  0 
 20 22  1  0  0  0  0 
 20 23  1  0  0  0  0 
 23 24  1  0  0  0  0 
 23 25  2  0  0  0  0 
 25 26  1  0  0  0  0 
 25 27  1  0  0  0  0 
 27 28  1  0  0  0  0 
 27 29  1  0  0  0  0 
 30 27  1  1  0  0  0 
 30 31  1  6  0  0  0 
 30 32  1  0  0  0  0 
 32 33  1  1  0  0  0 
 32 34  1  6  0  0  0 
 34 35  1  0  0  0  0 
 34 36  2  0  0  0  0 
 36 37  1  0  0  0  0 
 36 38  1  0  0  0  0 
 38 39  1  6  0  0  0 
 38 40  1  0  0  0  0 
 40 41  1  0  0  0  0 
 40 42  1  0  0  0  0 
 40 43  1  0  0  0  0 
 43 44  1  0  0  0  0 
 44 45  2  0  0  0  0 
 45 46  1  0  0  0  0 
 45 47  1  0  0  0  0 
 47 48  2  0  0  0  0 
 48 49  1  0  0  0  0 
 48 50  1  0  0  0  0 
 50 51  1  0  0  0  0 
 50 52  2  0  0  0  0 
 44 52  1  0  0  0  0 
 52 53  1  0  0  0  0 
 47 54  1  0  0  0  0 
 54 55  1  0  0  0  0 
 54 56  1  0  0  0  0 
 54 57  1  0  0  0  0 
 38 58  1  1  0  0  0 
 58 59  1  0  0  0  0 
 32 60  1  0  0  0  0 
 60 61  2  0  0  0  0 
 61 62  1  0  0  0  0 
 61 63  1  0  0  0  0 
 30 63  1  0  0  0  0 
 63 64  1  6  0  0  0 
 63 65  1  1  0  0  0 
 65 66  1  0  0  0  0 
 60 67  1  0  0  0  0 
 67 68  1  0  0  0  0 
M  END
> <Rank>
50

> <Priority_score>
0.004

> <Reaction_type>
alkyl dehydrogenation

> <Parent_ID>
10

> <Parent_InChI>
InChI=1S/C26H35F3O6/c1-17(2)35-25(33)11-6-4-3-5-10-21-22(24(32)15-23(21)31)13-12-19(30)16-34-20-9-7-8-18(14-20)26(27,28)29/h3,5,7-9,12-14,17,19,21-24,30-32H,4,6,10-11,15-16H2,1-2H3

> <Parent_SMILES>
CC(C)OC(=O)CCC/C=C\C[C@H]1[C@@H](O)C[C@@H](O)[C@@H]1/C=C/[C@@H](O)COc1cccc(C(F)(F)F)c1

$$$$
Molecule 10_metabolite 51
  CDK     0516241031

 68 69  0  0  0  0  0  0  0  0999 V2000
   12.3307   -5.8243    0.0000 C   0  0  0  0  0  0  0  0  0  0  0  0
   13.3401   -6.9340    0.0000 H   0  0  0  0  0  0  0  0  0  0  0  0
   13.5988   -5.0230    0.0000 H   0  0  0  0  0  0  0  0  0  0  0  0
   11.7618   -4.4364    0.0000 H   0  0  0  0  0  0  0  0  0  0  0  0
   10.8651   -6.1436    0.0000 C   0  0  0  0  0  0  0  0  0  0  0  0
    9.5971   -6.9449    0.0000 H   0  0  0  0  0  0  0  0  0  0  0  0
   11.4341   -7.5315    0.0000 C   0  0  0  0  0  0  0  0  0  0  0  0
   12.9205   -7.7328    0.0000 H   0  0  0  0  0  0  0  0  0  0  0  0
    9.9684   -7.8508    0.0000 H   0  0  0  0  0  0  0  0  0  0  0  0
   11.4940   -9.0303    0.0000 H   0  0  0  0  0  0  0  0  0  0  0  0
    9.8558   -5.0340    0.0000 O   0  0  0  0  0  0  0  0  0  0  0  0
    8.3902   -5.3533    0.0000 C   0  0  0  0  0  0  0  0  0  0  0  0
    7.9339   -6.7822    0.0000 O   0  0  0  0  0  0  0  0  0  0  0  0
    7.3809   -4.2437    0.0000 C   0  0  0  0  0  0  0  0  0  0  0  0
    8.6489   -3.4424    0.0000 H   0  0  0  0  0  0  0  0  0  0  0  0
    6.8119   -2.8558    0.0000 H   0  0  0  0  0  0  0  0  0  0  0  0
    5.9152   -4.5630    0.0000 C   0  0  0  0  0  0  0  0  0  0  0  0
    4.6472   -5.3643    0.0000 H   0  0  0  0  0  0  0  0  0  0  0  0
    6.4842   -5.9509    0.0000 H   0  0  0  0  0  0  0  0  0  0  0  0
    4.5829   -3.0983    0.0000 C   0  0  0  0  0  0  0  0  0  0  0  0
    5.8510   -2.2970    0.0000 H   0  0  0  0  0  0  0  0  0  0  0  0
    4.0140   -1.7103    0.0000 H   0  0  0  0  0  0  0  0  0  0  0  0
    3.1173   -3.4175    0.0000 C   0  0  0  0  0  0  0  0  0  0  0  0
    2.6610   -4.8465    0.0000 H   0  0  0  0  0  0  0  0  0  0  0  0
    1.4620   -1.5978    0.0000 C   0  0  0  0  0  0  0  0  0  0  0  0
   -0.0036   -1.9171    0.0000 H   0  0  0  0  0  0  0  0  0  0  0  0
    1.9183   -0.1689    0.0000 C   0  0  0  0  0  0  0  0  0  0  0  0
    3.7166    2.1570    0.0000 H   0  0  0  0  0  0  0  0  0  0  0  0
    3.2463   -0.8664    0.0000 H   0  0  0  0  0  0  0  0  0  0  0  0
    0.2630    1.6509    0.0000 C   0  0  2  0  0  0  0  0  0  0  0  0
   -0.7322    0.5286    0.0000 H   0  0  0  0  0  0  0  0  0  0  0  0
   -0.9594    2.5203    0.0000 C   0  0  0  0  0  0  0  0  0  0  0  0
   -0.5136    3.9580    0.0000 C   0  0  0  0  0  0  0  0  0  0  0  0
    0.9988    3.9623    0.0000 C   0  0  0  0  0  0  0  0  0  0  0  0
    0.8397    5.4538    0.0000 H   0  0  0  0  0  0  0  0  0  0  0  0
    2.4659    4.2745    0.0000 H   0  0  0  0  0  0  0  0  0  0  0  0
    1.4632    2.5276    0.0000 C   0  0  2  0  0  0  0  0  0  0  0  0
    2.8335    3.1378    0.0000 H   0  0  0  0  0  0  0  0  0  0  0  0
    2.2149    1.2295    0.0000 O   0  0  0  0  0  0  0  0  0  0  0  0
    3.7149    1.2315    0.0000 H   0  0  0  0  0  0  0  0  0  0  0  0
   -1.4052    5.1643    0.0000 O   0  0  0  0  0  0  0  0  0  0  0  0
   -0.8063    6.5396    0.0000 H   0  0  0  0  0  0  0  0  0  0  0  0
   -2.3804    2.0399    0.0000 C   0  0  0  0  0  0  0  0  0  0  0  0
   -2.6749    0.5691    0.0000 H   0  0  0  0  0  0  0  0  0  0  0  0
   -3.5069    3.0304    0.0000 C   0  0  0  0  0  0  0  0  0  0  0  0
   -3.2124    4.5012    0.0000 H   0  0  0  0  0  0  0  0  0  0  0  0
   -4.9279    2.5500    0.0000 C   0  0  2  0  0  0  0  0  0  0  0  0
   -6.0989    1.6126    0.0000 H   0  0  0  0  0  0  0  0  0  0  0  0
   -6.0544    3.5405    0.0000 C   0  0  0  0  0  0  0  0  0  0  0  0
   -4.8834    4.4779    0.0000 H   0  0  0  0  0  0  0  0  0  0  0  0
   -6.7742    4.8565    0.0000 H   0  0  0  0  0  0  0  0  0  0  0  0
   -7.4754    3.0601    0.0000 O   0  0  0  0  0  0  0  0  0  0  0  0
   -8.6019    4.0506    0.0000 C   0  0  0  0  0  0  0  0  0  0  0  0
  -10.0243    3.5719    0.0000 C   0  0  0  0  0  0  0  0  0  0  0  0
  -10.3211    2.1015    0.0000 H   0  0  0  0  0  0  0  0  0  0  0  0
  -11.1492    4.5642    0.0000 C   0  0  0  0  0  0  0  0  0  0  0  0
  -10.8516    6.0353    0.0000 C   0  0  0  0  0  0  0  0  0  0  0  0
  -11.9748    7.0295    0.0000 H   0  0  0  0  0  0  0  0  0  0  0  0
   -9.4357    6.5065    0.0000 C   0  0  0  0  0  0  0  0  0  0  0  0
   -9.1365    7.9763    0.0000 H   0  0  0  0  0  0  0  0  0  0  0  0
   -8.3109    5.5141    0.0000 C   0  0  0  0  0  0  0  0  0  0  0  0
   -6.8898    5.9942    0.0000 H   0  0  0  0  0  0  0  0  0  0  0  0
  -12.5711    4.0865    0.0000 C   0  0  0  0  0  0  0  0  0  0  0  0
  -13.6958    5.0790    0.0000 F   0  0  0  0  0  0  0  0  0  0  0  0
  -13.7438    3.1513    0.0000 F   0  0  0  0  0  0  0  0  0  0  0  0
  -11.8537    2.7692    0.0000 F   0  0  0  0  0  0  0  0  0  0  0  0
   -4.2081    1.2340    0.0000 O   0  0  0  0  0  0  0  0  0  0  0  0
   -4.9879   -0.0474    0.0000 H   0  0  0  0  0  0  0  0  0  0  0  0
  1  2  1  0  0  0  0 
  1  3  1  0  0  0  0 
  1  4  1  0  0  0  0 
  1  5  1  0  0  0  0 
  5  6  1  0  0  0  0 
  5  7  1  0  0  0  0 
  7  8  1  0  0  0  0 
  7  9  1  0  0  0  0 
  7 10  1  0  0  0  0 
  5 11  1  0  0  0  0 
 11 12  1  0  0  0  0 
 12 13  2  0  0  0  0 
 12 14  1  0  0  0  0 
 14 15  1  0  0  0  0 
 14 16  1  0  0  0  0 
 14 17  1  0  0  0  0 
 17 18  1  0  0  0  0 
 17 19  1  0  0  0  0 
 17 20  1  0  0  0  0 
 20 21  1  0  0  0  0 
 20 22  1  0  0  0  0 
 20 23  1  0  0  0  0 
 23 24  1  0  0  0  0 
 23 25  2  0  0  0  0 
 25 26  1  0  0  0  0 
 25 27  1  0  0  0  0 
 27 28  1  0  0  0  0 
 27 29  1  0  0  0  0 
 27 30  1  0  0  0  0 
 30 31  1  1  0  0  0 
 30 32  1  6  0  0  0 
 32 33  2  0  0  0  0 
 33 34  1  0  0  0  0 
 34 35  1  0  0  0  0 
 34 36  1  0  0  0  0 
 34 37  1  0  0  0  0 
 30 37  1  0  0  0  0 
 37 38  1  1  0  0  0 
 37 39  1  6  0  0  0 
 39 40  1  0  0  0  0 
 33 41  1  0  0  0  0 
 41 42  1  0  0  0  0 
 32 43  1  0  0  0  0 
 43 44  1  0  0  0  0 
 43 45  2  0  0  0  0 
 45 46  1  0  0  0  0 
 45 47  1  0  0  0  0 
 47 48  1  6  0  0  0 
 47 49  1  0  0  0  0 
 49 50  1  0  0  0  0 
 49 51  1  0  0  0  0 
 49 52  1  0  0  0  0 
 52 53  1  0  0  0  0 
 53 54  2  0  0  0  0 
 54 55  1  0  0  0  0 
 54 56  1  0  0  0  0 
 56 57  2  0  0  0  0 
 57 58  1  0  0  0  0 
 57 59  1  0  0  0  0 
 59 60  1  0  0  0  0 
 59 61  2  0  0  0  0 
 53 61  1  0  0  0  0 
 61 62  1  0  0  0  0 
 56 63  1  0  0  0  0 
 63 64  1  0  0  0  0 
 63 65  1  0  0  0  0 
 63 66  1  0  0  0  0 
 47 67  1  1  0  0  0 
 67 68  1  0  0  0  0 
M  END
> <Rank>
50

> <Priority_score>
0.004

> <Reaction_type>
alkyl dehydrogenation

> <Parent_ID>
10

> <Parent_InChI>
InChI=1S/C26H35F3O6/c1-17(2)35-25(33)11-6-4-3-5-10-21-22(24(32)15-23(21)31)13-12-19(30)16-34-20-9-7-8-18(14-20)26(27,28)29/h3,5,7-9,12-14,17,19,21-24,30-32H,4,6,10-11,15-16H2,1-2H3

> <Parent_SMILES>
CC(C)OC(=O)CCC/C=C\C[C@H]1[C@@H](O)C[C@@H](O)[C@@H]1/C=C/[C@@H](O)COc1cccc(C(F)(F)F)c1

$$$$
Molecule 10_metabolite 52
  CDK     0516241031

 71 72  0  0  0  0  0  0  0  0999 V2000
   -9.3294   12.1141    0.0000 C   0  0  0  0  0  0  0  0  0  0  0  0
  -10.8031   12.3937    0.0000 H   0  0  0  0  0  0  0  0  0  0  0  0
   -9.3100   13.6140    0.0000 H   0  0  0  0  0  0  0  0  0  0  0  0
   -7.8489   12.3554    0.0000 H   0  0  0  0  0  0  0  0  0  0  0  0
   -8.8347   10.6981    0.0000 C   0  0  0  0  0  0  0  0  0  0  0  0
   -8.8541    9.1982    0.0000 H   0  0  0  0  0  0  0  0  0  0  0  0
  -10.3152   10.4568    0.0000 C   0  0  0  0  0  0  0  0  0  0  0  0
  -11.2644   11.6182    0.0000 H   0  0  0  0  0  0  0  0  0  0  0  0
   -9.8204    9.0407    0.0000 H   0  0  0  0  0  0  0  0  0  0  0  0
  -11.6238    9.7237    0.0000 H   0  0  0  0  0  0  0  0  0  0  0  0
   -7.3610   10.4185    0.0000 O   0  0  0  0  0  0  0  0  0  0  0  0
   -6.8663    9.0024    0.0000 C   0  0  0  0  0  0  0  0  0  0  0  0
   -7.8453    7.8659    0.0000 O   0  0  0  0  0  0  0  0  0  0  0  0
   -5.3926    8.7228    0.0000 C   0  0  0  0  0  0  0  0  0  0  0  0
   -5.3731   10.2227    0.0000 H   0  0  0  0  0  0  0  0  0  0  0  0
   -3.9121    8.9641    0.0000 H   0  0  0  0  0  0  0  0  0  0  0  0
   -4.8978    7.3067    0.0000 C   0  0  0  0  0  0  0  0  0  0  0  0
   -3.9486    6.1452    0.0000 H   0  0  0  0  0  0  0  0  0  0  0  0
   -3.5892    8.0398    0.0000 H   0  0  0  0  0  0  0  0  0  0  0  0
   -5.8768    6.1702    0.0000 C   0  0  0  0  0  0  0  0  0  0  0  0
   -6.8260    7.3317    0.0000 H   0  0  0  0  0  0  0  0  0  0  0  0
   -7.1855    5.4372    0.0000 H   0  0  0  0  0  0  0  0  0  0  0  0
   -5.3821    4.7542    0.0000 C   0  0  0  0  0  0  0  0  0  0  0  0
   -3.9084    4.4746    0.0000 H   0  0  0  0  0  0  0  0  0  0  0  0
   -6.6744    3.2540    0.0000 C   0  0  0  0  0  0  0  0  0  0  0  0
   -6.1797    1.8380    0.0000 H   0  0  0  0  0  0  0  0  0  0  0  0
   -9.0913    3.7126    0.0000 C   0  0  0  0  0  0  0  0  0  0  0  0
   -8.5600    5.1154    0.0000 H   0  0  0  0  0  0  0  0  0  0  0  0
  -10.3805    4.4794    0.0000 H   0  0  0  0  0  0  0  0  0  0  0  0
  -11.0101    1.4851    0.0000 C   0  0  2  0  0  0  0  0  0  0  0  0
  -12.0353    2.5801    0.0000 H   0  0  0  0  0  0  0  0  0  0  0  0
  -12.2086    0.5831    0.0000 C   0  0  0  0  0  0  0  0  0  0  0  0
  -14.1008    1.1663    0.0000 C   0  0  0  0  0  0  0  0  0  0  0  0
  -15.2001    0.1457    0.0000 H   0  0  0  0  0  0  0  0  0  0  0  0
  -14.4349    2.6286    0.0000 C   0  0  0  0  0  0  0  0  0  0  0  0
  -12.9368    2.7037    0.0000 H   0  0  0  0  0  0  0  0  0  0  0  0
  -15.8683    3.0704    0.0000 C   0  0  2  0  0  0  0  0  0  0  0  0
  -17.0642    3.9758    0.0000 H   0  0  0  0  0  0  0  0  0  0  0  0
  -16.9677    2.0499    0.0000 C   0  0  0  0  0  0  0  0  0  0  0  0
  -15.7718    1.1444    0.0000 H   0  0  0  0  0  0  0  0  0  0  0  0
  -17.6517    0.7149    0.0000 H   0  0  0  0  0  0  0  0  0  0  0  0
  -18.4011    2.4917    0.0000 O   0  0  0  0  0  0  0  0  0  0  0  0
  -19.5005    1.4712    0.0000 C   0  0  0  0  0  0  0  0  0  0  0  0
  -20.9353    1.9113    0.0000 C   0  0  0  0  0  0  0  0  0  0  0  0
  -21.2717    3.3731    0.0000 H   0  0  0  0  0  0  0  0  0  0  0  0
  -22.0330    0.8889    0.0000 C   0  0  0  0  0  0  0  0  0  0  0  0
  -21.6958   -0.5735    0.0000 C   0  0  0  0  0  0  0  0  0  0  0  0
  -22.7917   -1.5977    0.0000 H   0  0  0  0  0  0  0  0  0  0  0  0
  -20.2677   -1.0063    0.0000 C   0  0  0  0  0  0  0  0  0  0  0  0
  -19.9290   -2.4676    0.0000 H   0  0  0  0  0  0  0  0  0  0  0  0
  -19.1701    0.0160    0.0000 C   0  0  0  0  0  0  0  0  0  0  0  0
  -17.7366   -0.4255    0.0000 H   0  0  0  0  0  0  0  0  0  0  0  0
  -23.4672    1.3281    0.0000 C   0  0  0  0  0  0  0  0  0  0  0  0
  -24.5647    0.3056    0.0000 F   0  0  0  0  0  0  0  0  0  0  0  0
  -24.6648    2.2314    0.0000 F   0  0  0  0  0  0  0  0  0  0  0  0
  -22.7857    2.6643    0.0000 F   0  0  0  0  0  0  0  0  0  0  0  0
  -15.1843    4.4053    0.0000 O   0  0  0  0  0  0  0  0  0  0  0  0
  -15.9984    5.6652    0.0000 H   0  0  0  0  0  0  0  0  0  0  0  0
  -14.2487    4.1170    0.0000 O   0  0  0  0  0  0  0  0  0  0  0  0
  -12.8666    4.6999    0.0000 H   0  0  0  0  0  0  0  0  0  0  0  0
  -11.7242   -0.8421    0.0000 C   0  0  1  0  0  0  0  0  0  0  0  0
  -13.1859   -1.1790    0.0000 H   0  0  0  0  0  0  0  0  0  0  0  0
  -10.2122   -0.8055    0.0000 C   0  0  0  0  0  0  0  0  0  0  0  0
  -10.3310   -2.3008    0.0000 H   0  0  0  0  0  0  0  0  0  0  0  0
   -8.7372   -1.0780    0.0000 H   0  0  0  0  0  0  0  0  0  0  0  0
   -9.7867    0.6412    0.0000 C   0  0  2  0  0  0  0  0  0  0  0  0
   -8.4005    0.0681    0.0000 H   0  0  0  0  0  0  0  0  0  0  0  0
   -9.0703    1.9590    0.0000 O   0  0  0  0  0  0  0  0  0  0  0  0
   -6.7378    1.1773    0.0000 H   0  0  0  0  0  0  0  0  0  0  0  0
  -11.5367   -2.3303    0.0000 O   0  0  0  0  0  0  0  0  0  0  0  0
  -12.7318   -3.2369    0.0000 H   0  0  0  0  0  0  0  0  0  0  0  0
  1  2  1  0  0  0  0 
  1  3  1  0  0  0  0 
  1  4  1  0  0  0  0 
  1  5  1  0  0  0  0 
  5  6  1  0  0  0  0 
  5  7  1  0  0  0  0 
  7  8  1  0  0  0  0 
  7  9  1  0  0  0  0 
  7 10  1  0  0  0  0 
  5 11  1  0  0  0  0 
 11 12  1  0  0  0  0 
 12 13  2  0  0  0  0 
 12 14  1  0  0  0  0 
 14 15  1  0  0  0  0 
 14 16  1  0  0  0  0 
 14 17  1  0  0  0  0 
 17 18  1  0  0  0  0 
 17 19  1  0  0  0  0 
 17 20  1  0  0  0  0 
 20 21  1  0  0  0  0 
 20 22  1  0  0  0  0 
 20 23  1  0  0  0  0 
 23 24  1  0  0  0  0 
 23 25  2  0  0  0  0 
 25 26  1  0  0  0  0 
 25 27  1  0  0  0  0 
 27 28  1  0  0  0  0 
 27 29  1  0  0  0  0 
 27 30  1  0  0  0  0 
 30 31  1  6  0  0  0 
 30 32  1  1  0  0  0 
 32 33  2  0  0  0  0 
 33 34  1  4  0  0  0 
 33 35  1  0  0  0  0 
 35 36  1  0  0  0  0 
 35 37  1  0  0  0  0 
 37 38  1  1  0  0  0 
 37 39  1  0  0  0  0 
 39 40  1  0  0  0  0 
 39 41  1  0  0  0  0 
 39 42  1  0  0  0  0 
 42 43  1  0  0  0  0 
 43 44  2  0  0  0  0 
 44 45  1  0  0  0  0 
 44 46  1  0  0  0  0 
 46 47  2  0  0  0  0 
 47 48  1  0  0  0  0 
 47 49  1  0  0  0  0 
 49 50  1  0  0  0  0 
 49 51  2  0  0  0  0 
 43 51  1  0  0  0  0 
 51 52  1  0  0  0  0 
 46 53  1  0  0  0  0 
 53 54  1  0  0  0  0 
 53 55  1  0  0  0  0 
 53 56  1  0  0  0  0 
 37 57  1  6  0  0  0 
 57 58  1  0  0  0  0 
 35 59  1  0  0  0  0 
 59 60  1  0  0  0  0 
 32 61  1  0  0  0  0 
 61 62  1  6  0  0  0 
 61 63  1  0  0  0  0 
 63 64  1  0  0  0  0 
 63 65  1  0  0  0  0 
 63 66  1  0  0  0  0 
 30 66  1  0  0  0  0 
 66 67  1  6  0  0  0 
 66 68  1  1  0  0  0 
 68 69  1  0  0  0  0 
 61 70  1  1  0  0  0 
 70 71  1  0  0  0  0 
M  END
> <Rank>
50

> <Priority_score>
0.004

> <Reaction_type>
aliphatic hydroxylation with allylic rearrangement 1

> <Parent_ID>
10

> <Parent_InChI>
InChI=1S/C26H35F3O6/c1-17(2)35-25(33)11-6-4-3-5-10-21-22(24(32)15-23(21)31)13-12-19(30)16-34-20-9-7-8-18(14-20)26(27,28)29/h3,5,7-9,12-14,17,19,21-24,30-32H,4,6,10-11,15-16H2,1-2H3

> <Parent_SMILES>
CC(C)OC(=O)CCC/C=C\C[C@H]1[C@@H](O)C[C@@H](O)[C@@H]1/C=C/[C@@H](O)COc1cccc(C(F)(F)F)c1

$$$$
Molecule 10_metabolite 53
  CDK     0516241031

 68 69  0  0  0  0  0  0  0  0999 V2000
   -9.1994   10.8575    0.0000 C   0  0  0  0  0  0  0  0  0  0  0  0
   -8.3075    9.6515    0.0000 H   0  0  0  0  0  0  0  0  0  0  0  0
   -9.6250   12.2959    0.0000 H   0  0  0  0  0  0  0  0  0  0  0  0
   -7.8568   11.5264    0.0000 H   0  0  0  0  0  0  0  0  0  0  0  0
  -10.6898   10.6882    0.0000 C   0  0  0  0  0  0  0  0  0  0  0  0
  -10.2642    9.2498    0.0000 H   0  0  0  0  0  0  0  0  0  0  0  0
  -12.0324   10.0193    0.0000 C   0  0  0  0  0  0  0  0  0  0  0  0
  -12.1244    8.5221    0.0000 H   0  0  0  0  0  0  0  0  0  0  0  0
  -13.5228    9.8499    0.0000 H   0  0  0  0  0  0  0  0  0  0  0  0
  -12.4580   11.4576    0.0000 H   0  0  0  0  0  0  0  0  0  0  0  0
  -11.5817   11.8942    0.0000 O   0  0  0  0  0  0  0  0  0  0  0  0
  -10.9832   13.2696    0.0000 C   0  0  0  0  0  0  0  0  0  0  0  0
   -9.4928   13.4390    0.0000 O   0  0  0  0  0  0  0  0  0  0  0  0
  -11.8751   14.4757    0.0000 C   0  0  0  0  0  0  0  0  0  0  0  0
  -13.1256   15.3040    0.0000 H   0  0  0  0  0  0  0  0  0  0  0  0
  -12.9079   13.3879    0.0000 H   0  0  0  0  0  0  0  0  0  0  0  0
  -11.2765   15.8511    0.0000 C   0  0  0  0  0  0  0  0  0  0  0  0
  -12.7350   16.2017    0.0000 H   0  0  0  0  0  0  0  0  0  0  0  0
  -11.1845   17.3483    0.0000 H   0  0  0  0  0  0  0  0  0  0  0  0
   -9.3092   16.0747    0.0000 C   0  0  0  0  0  0  0  0  0  0  0  0
   -7.8507   15.7241    0.0000 H   0  0  0  0  0  0  0  0  0  0  0  0
   -9.4012   14.5775    0.0000 H   0  0  0  0  0  0  0  0  0  0  0  0
   -8.5191   17.8902    0.0000 C   0  0  0  0  0  0  0  0  0  0  0  0
   -9.4110   19.0963    0.0000 H   0  0  0  0  0  0  0  0  0  0  0  0
   -6.0749   18.1680    0.0000 C   0  0  0  0  0  0  0  0  0  0  0  0
   -5.4763   19.5434    0.0000 H   0  0  0  0  0  0  0  0  0  0  0  0
   -4.3268   15.8041    0.0000 C   0  0  0  0  0  0  0  0  0  0  0  0
   -5.6694   15.1352    0.0000 H   0  0  0  0  0  0  0  0  0  0  0  0
   -3.9012   14.3657    0.0000 H   0  0  0  0  0  0  0  0  0  0  0  0
   -1.8825   16.0819    0.0000 C   0  0  2  0  0  0  0  0  0  0  0  0
   -1.8737   14.5819    0.0000 H   0  0  0  0  0  0  0  0  0  0  0  0
   -0.3902   15.9301    0.0000 C   0  0  0  0  0  0  0  0  0  0  0  0
    0.3620   14.6323    0.0000 C   0  0  0  0  0  0  0  0  0  0  0  0
    1.1141   13.3345    0.0000 C   0  0  0  0  0  0  0  0  0  0  0  0
    0.3663   12.0342    0.0000 H   0  0  0  0  0  0  0  0  0  0  0  0
    2.6141   13.3370    0.0000 C   0  0  2  0  0  0  0  0  0  0  0  0
    4.0228   13.8524    0.0000 H   0  0  0  0  0  0  0  0  0  0  0  0
    3.3663   12.0393    0.0000 C   0  0  0  0  0  0  0  0  0  0  0  0
    1.9576   11.5239    0.0000 H   0  0  0  0  0  0  0  0  0  0  0  0
    3.6293   10.5625    0.0000 H   0  0  0  0  0  0  0  0  0  0  0  0
    4.8663   12.0418    0.0000 O   0  0  0  0  0  0  0  0  0  0  0  0
    5.6185   10.7440    0.0000 C   0  0  0  0  0  0  0  0  0  0  0  0
    7.1193   10.7445    0.0000 C   0  0  0  0  0  0  0  0  0  0  0  0
    7.8691   12.0436    0.0000 H   0  0  0  0  0  0  0  0  0  0  0  0
    7.8693    9.4454    0.0000 C   0  0  0  0  0  0  0  0  0  0  0  0
    7.1185    8.1459    0.0000 C   0  0  0  0  0  0  0  0  0  0  0  0
    7.8663    6.8456    0.0000 H   0  0  0  0  0  0  0  0  0  0  0  0
    5.6263    8.1504    0.0000 C   0  0  0  0  0  0  0  0  0  0  0  0
    4.8744    6.8525    0.0000 H   0  0  0  0  0  0  0  0  0  0  0  0
    4.8763    9.4495    0.0000 C   0  0  0  0  0  0  0  0  0  0  0  0
    3.3763    9.4472    0.0000 H   0  0  0  0  0  0  0  0  0  0  0  0
    9.3693    9.4452    0.0000 C   0  0  0  0  0  0  0  0  0  0  0  0
   10.1191    8.1460    0.0000 F   0  0  0  0  0  0  0  0  0  0  0  0
   10.7789    9.9580    0.0000 F   0  0  0  0  0  0  0  0  0  0  0  0
    9.1091   10.9224    0.0000 F   0  0  0  0  0  0  0  0  0  0  0  0
    2.3512   14.8138    0.0000 O   0  0  0  0  0  0  0  0  0  0  0  0
    3.4987   15.7799    0.0000 H   0  0  0  0  0  0  0  0  0  0  0  0
    0.2221   17.3052    0.0000 C   0  0  1  0  0  0  0  0  0  0  0  0
    1.5238   16.5598    0.0000 H   0  0  0  0  0  0  0  0  0  0  0  0
   -0.9126   18.3051    0.0000 C   0  0  0  0  0  0  0  0  0  0  0  0
    0.1900   19.3221    0.0000 H   0  0  0  0  0  0  0  0  0  0  0  0
   -1.8103   19.5068    0.0000 H   0  0  0  0  0  0  0  0  0  0  0  0
   -2.2074   17.5322    0.0000 C   0  0  2  0  0  0  0  0  0  0  0  0
   -2.8358   18.8942    0.0000 H   0  0  0  0  0  0  0  0  0  0  0  0
   -3.6283   17.0513    0.0000 O   0  0  0  0  0  0  0  0  0  0  0  0
   -4.4169   19.3815    0.0000 H   0  0  0  0  0  0  0  0  0  0  0  0
    1.0951   18.5250    0.0000 O   0  0  0  0  0  0  0  0  0  0  0  0
    2.5880   18.3788    0.0000 H   0  0  0  0  0  0  0  0  0  0  0  0
  1  2  1  0  0  0  0 
  1  3  1  0  0  0  0 
  1  4  1  0  0  0  0 
  1  5  1  0  0  0  0 
  5  6  1  0  0  0  0 
  5  7  1  0  0  0  0 
  7  8  1  0  0  0  0 
  7  9  1  0  0  0  0 
  7 10  1  0  0  0  0 
  5 11  1  0  0  0  0 
 11 12  1  0  0  0  0 
 12 13  2  0  0  0  0 
 12 14  1  0  0  0  0 
 14 15  1  0  0  0  0 
 14 16  1  0  0  0  0 
 14 17  1  0  0  0  0 
 17 18  1  0  0  0  0 
 17 19  1  0  0  0  0 
 17 20  1  0  0  0  0 
 20 21  1  0  0  0  0 
 20 22  1  0  0  0  0 
 20 23  1  0  0  0  0 
 23 24  1  0  0  0  0 
 23 25  2  0  0  0  0 
 25 26  1  0  0  0  0 
 25 27  1  0  0  0  0 
 27 28  1  0  0  0  0 
 27 29  1  0  0  0  0 
 27 30  1  0  0  0  0 
 30 31  1  6  0  0  0 
 30 32  1  1  0  0  0 
 32 33  2  0  0  0  0 
 33 34  2  0  0  0  0 
 34 35  1  0  0  0  0 
 34 36  1  0  0  0  0 
 36 37  1  6  0  0  0 
 36 38  1  0  0  0  0 
 38 39  1  0  0  0  0 
 38 40  1  0  0  0  0 
 38 41  1  0  0  0  0 
 41 42  1  0  0  0  0 
 42 43  2  0  0  0  0 
 43 44  1  0  0  0  0 
 43 45  1  0  0  0  0 
 45 46  2  0  0  0  0 
 46 47  1  0  0  0  0 
 46 48  1  0  0  0  0 
 48 49  1  0  0  0  0 
 48 50  2  0  0  0  0 
 42 50  1  0  0  0  0 
 50 51  1  0  0  0  0 
 45 52  1  0  0  0  0 
 52 53  1  0  0  0  0 
 52 54  1  0  0  0  0 
 52 55  1  0  0  0  0 
 36 56  1  1  0  0  0 
 56 57  1  0  0  0  0 
 32 58  1  0  0  0  0 
 58 59  1  6  0  0  0 
 58 60  1  0  0  0  0 
 60 61  1  0  0  0  0 
 60 62  1  0  0  0  0 
 60 63  1  0  0  0  0 
 30 63  1  0  0  0  0 
 63 64  1  6  0  0  0 
 63 65  1  1  0  0  0 
 65 66  1  0  0  0  0 
 58 67  1  1  0  0  0 
 67 68  1  0  0  0  0 
M  END
> <Rank>
50

> <Priority_score>
0.004

> <Reaction_type>
alkyl dehydrogenation

> <Parent_ID>
10

> <Parent_InChI>
InChI=1S/C26H35F3O6/c1-17(2)35-25(33)11-6-4-3-5-10-21-22(24(32)15-23(21)31)13-12-19(30)16-34-20-9-7-8-18(14-20)26(27,28)29/h3,5,7-9,12-14,17,19,21-24,30-32H,4,6,10-11,15-16H2,1-2H3

> <Parent_SMILES>
CC(C)OC(=O)CCC/C=C\C[C@H]1[C@@H](O)C[C@@H](O)[C@@H]1/C=C/[C@@H](O)COc1cccc(C(F)(F)F)c1

$$$$
Molecule 10_metabolite 54
  CDK     0516241031

 68 69  0  0  0  0  0  0  0  0999 V2000
  -17.9022    3.3605    0.0000 C   0  0  0  0  0  0  0  0  0  0  0  0
  -18.7729    2.1391    0.0000 H   0  0  0  0  0  0  0  0  0  0  0  0
  -19.2563    4.0059    0.0000 H   0  0  0  0  0  0  0  0  0  0  0  0
  -17.5017    4.8060    0.0000 H   0  0  0  0  0  0  0  0  0  0  0  0
  -16.4091    3.2171    0.0000 C   0  0  0  0  0  0  0  0  0  0  0  0
  -15.0550    2.5717    0.0000 H   0  0  0  0  0  0  0  0  0  0  0  0
  -16.8095    1.7716    0.0000 C   0  0  0  0  0  0  0  0  0  0  0  0
  -18.2617    1.3956    0.0000 H   0  0  0  0  0  0  0  0  0  0  0  0
  -15.3164    1.6282    0.0000 H   0  0  0  0  0  0  0  0  0  0  0  0
  -16.6914    0.2762    0.0000 H   0  0  0  0  0  0  0  0  0  0  0  0
  -15.5383    4.4385    0.0000 O   0  0  0  0  0  0  0  0  0  0  0  0
  -14.0452    4.2952    0.0000 C   0  0  0  0  0  0  0  0  0  0  0  0
  -13.4228    2.9304    0.0000 O   0  0  0  0  0  0  0  0  0  0  0  0
  -13.1745    5.5166    0.0000 C   0  0  0  0  0  0  0  0  0  0  0  0
  -14.5285    6.1620    0.0000 H   0  0  0  0  0  0  0  0  0  0  0  0
  -12.7740    6.9621    0.0000 H   0  0  0  0  0  0  0  0  0  0  0  0
  -11.2035    5.3273    0.0000 C   0  0  0  0  0  0  0  0  0  0  0  0
   -9.8495    4.6819    0.0000 H   0  0  0  0  0  0  0  0  0  0  0  0
  -11.6040    3.8818    0.0000 H   0  0  0  0  0  0  0  0  0  0  0  0
  -10.3328    6.5487    0.0000 C   0  0  0  0  0  0  0  0  0  0  0  0
  -11.6869    7.1941    0.0000 H   0  0  0  0  0  0  0  0  0  0  0  0
   -9.9323    7.9943    0.0000 H   0  0  0  0  0  0  0  0  0  0  0  0
   -8.8397    6.4054    0.0000 C   0  0  0  0  0  0  0  0  0  0  0  0
   -8.2173    5.0406    0.0000 H   0  0  0  0  0  0  0  0  0  0  0  0
   -7.9690    7.6268    0.0000 C   0  0  0  0  0  0  0  0  0  0  0  0
   -7.0982    8.8482    0.0000 C   0  0  0  0  0  0  0  0  0  0  0  0
   -7.7206   10.2129    0.0000 H   0  0  0  0  0  0  0  0  0  0  0  0
   -5.1273    8.6589    0.0000 C   0  0  2  0  0  0  0  0  0  0  0  0
   -5.4297    7.1897    0.0000 H   0  0  0  0  0  0  0  0  0  0  0  0
   -3.6989    8.2010    0.0000 C   0  0  1  0  0  0  0  0  0  0  0  0
   -4.3052    6.8290    0.0000 H   0  0  0  0  0  0  0  0  0  0  0  0
   -1.9825    7.2139    0.0000 C   0  0  0  0  0  0  0  0  0  0  0  0
   -0.6847    7.9661    0.0000 H   0  0  0  0  0  0  0  0  0  0  0  0
   -1.9800    5.7139    0.0000 C   0  0  0  0  0  0  0  0  0  0  0  0
   -3.2778    4.9617    0.0000 H   0  0  0  0  0  0  0  0  0  0  0  0
   -0.6797    4.9661    0.0000 C   0  0  2  0  0  0  0  0  0  0  0  0
    0.7979    4.7081    0.0000 H   0  0  0  0  0  0  0  0  0  0  0  0
   -0.6772    3.4661    0.0000 C   0  0  0  0  0  0  0  0  0  0  0  0
   -2.1548    3.7241    0.0000 H   0  0  0  0  0  0  0  0  0  0  0  0
   -1.1879    2.0557    0.0000 H   0  0  0  0  0  0  0  0  0  0  0  0
    0.6231    2.7182    0.0000 O   0  0  0  0  0  0  0  0  0  0  0  0
    0.6256    1.2182    0.0000 C   0  0  0  0  0  0  0  0  0  0  0  0
    1.9256    0.4682    0.0000 C   0  0  0  0  0  0  0  0  0  0  0  0
    3.2245    1.2185    0.0000 H   0  0  0  0  0  0  0  0  0  0  0  0
    1.9256   -1.0318    0.0000 C   0  0  0  0  0  0  0  0  0  0  0  0
    0.6256   -1.7818    0.0000 C   0  0  0  0  0  0  0  0  0  0  0  0
    0.6231   -3.2818    0.0000 H   0  0  0  0  0  0  0  0  0  0  0  0
   -0.6644   -1.0318    0.0000 C   0  0  0  0  0  0  0  0  0  0  0  0
   -1.9646   -1.7798    0.0000 H   0  0  0  0  0  0  0  0  0  0  0  0
   -0.6644    0.4682    0.0000 C   0  0  0  0  0  0  0  0  0  0  0  0
   -1.9646    1.2163    0.0000 H   0  0  0  0  0  0  0  0  0  0  0  0
    3.2245   -1.7820    0.0000 C   0  0  0  0  0  0  0  0  0  0  0  0
    3.2243   -3.2820    0.0000 F   0  0  0  0  0  0  0  0  0  0  0  0
    4.7017   -2.0427    0.0000 F   0  0  0  0  0  0  0  0  0  0  0  0
    3.7378   -0.3725    0.0000 F   0  0  0  0  0  0  0  0  0  0  0  0
   -0.1690    6.3765    0.0000 O   0  0  0  0  0  0  0  0  0  0  0  0
    1.3077    6.6394    0.0000 H   0  0  0  0  0  0  0  0  0  0  0  0
   -2.8148    9.4193    0.0000 C   0  0  1  0  0  0  0  0  0  0  0  0
   -1.6960    8.4202    0.0000 H   0  0  0  0  0  0  0  0  0  0  0  0
   -3.7174   10.6328    0.0000 C   0  0  0  0  0  0  0  0  0  0  0  0
   -2.4279   11.3990    0.0000 H   0  0  0  0  0  0  0  0  0  0  0  0
   -4.3464   11.9945    0.0000 H   0  0  0  0  0  0  0  0  0  0  0  0
   -5.1444   10.1451    0.0000 C   0  0  2  0  0  0  0  0  0  0  0  0
   -5.4767   11.6078    0.0000 H   0  0  0  0  0  0  0  0  0  0  0  0
   -6.6341    9.9693    0.0000 O   0  0  0  0  0  0  0  0  0  0  0  0
   -7.5311   11.1715    0.0000 H   0  0  0  0  0  0  0  0  0  0  0  0
   -1.7078   10.4315    0.0000 O   0  0  0  0  0  0  0  0  0  0  0  0
   -0.2777    9.9789    0.0000 H   0  0  0  0  0  0  0  0  0  0  0  0
  1  2  1  0  0  0  0 
  1  3  1  0  0  0  0 
  1  4  1  0  0  0  0 
  1  5  1  0  0  0  0 
  5  6  1  0  0  0  0 
  5  7  1  0  0  0  0 
  7  8  1  0  0  0  0 
  7  9  1  0  0  0  0 
  7 10  1  0  0  0  0 
  5 11  1  0  0  0  0 
 11 12  1  0  0  0  0 
 12 13  2  0  0  0  0 
 12 14  1  0  0  0  0 
 14 15  1  0  0  0  0 
 14 16  1  0  0  0  0 
 14 17  1  0  0  0  0 
 17 18  1  0  0  0  0 
 17 19  1  0  0  0  0 
 17 20  1  0  0  0  0 
 20 21  1  0  0  0  0 
 20 22  1  0  0  0  0 
 20 23  1  0  0  0  0 
 23 24  1  0  0  0  0 
 23 25  2  0  0  0  0 
 25 26  2  0  0  0  0 
 26 27  1  0  0  0  0 
 28 26  1  1  0  0  0 
 28 29  1  6  0  0  0 
 28 30  1  0  0  0  0 
 30 31  1  1  0  0  0 
 30 32  1  6  0  0  0 
 32 33  1  0  0  0  0 
 32 34  2  0  0  0  0 
 34 35  1  0  0  0  0 
 34 36  1  0  0  0  0 
 36 37  1  6  0  0  0 
 36 38  1  0  0  0  0 
 38 39  1  0  0  0  0 
 38 40  1  0  0  0  0 
 38 41  1  0  0  0  0 
 41 42  1  0  0  0  0 
 42 43  2  0  0  0  0 
 43 44  1  0  0  0  0 
 43 45  1  0  0  0  0 
 45 46  2  0  0  0  0 
 46 47  1  0  0  0  0 
 46 48  1  0  0  0  0 
 48 49  1  0  0  0  0 
 48 50  2  0  0  0  0 
 42 50  1  0  0  0  0 
 50 51  1  0  0  0  0 
 45 52  1  0  0  0  0 
 52 53  1  0  0  0  0 
 52 54  1  0  0  0  0 
 52 55  1  0  0  0  0 
 36 56  1  1  0  0  0 
 56 57  1  0  0  0  0 
 30 58  1  0  0  0  0 
 58 59  1  6  0  0  0 
 58 60  1  0  0  0  0 
 60 61  1  0  0  0  0 
 60 62  1  0  0  0  0 
 60 63  1  0  0  0  0 
 28 63  1  0  0  0  0 
 63 64  1  6  0  0  0 
 63 65  1  1  0  0  0 
 65 66  1  0  0  0  0 
 58 67  1  1  0  0  0 
 67 68  1  0  0  0  0 
M  END
> <Rank>
54

> <Priority_score>
0.0032

> <Reaction_type>
alkyl dehydrogenation

> <Parent_ID>
10

> <Parent_InChI>
InChI=1S/C26H35F3O6/c1-17(2)35-25(33)11-6-4-3-5-10-21-22(24(32)15-23(21)31)13-12-19(30)16-34-20-9-7-8-18(14-20)26(27,28)29/h3,5,7-9,12-14,17,19,21-24,30-32H,4,6,10-11,15-16H2,1-2H3

> <Parent_SMILES>
CC(C)OC(=O)CCC/C=C\C[C@H]1[C@@H](O)C[C@@H](O)[C@@H]1/C=C/[C@@H](O)COc1cccc(C(F)(F)F)c1

$$$$
Molecule 10_metabolite 55
  CDK     0516241031

 68 69  0  0  0  0  0  0  0  0999 V2000
  -16.7972   16.0286    0.0000 C   0  0  0  0  0  0  0  0  0  0  0  0
  -18.2903   16.1720    0.0000 H   0  0  0  0  0  0  0  0  0  0  0  0
  -15.3450   16.4046    0.0000 H   0  0  0  0  0  0  0  0  0  0  0  0
  -16.9153   17.5240    0.0000 H   0  0  0  0  0  0  0  0  0  0  0  0
  -16.1748   14.6638    0.0000 C   0  0  0  0  0  0  0  0  0  0  0  0
  -17.6269   14.2879    0.0000 H   0  0  0  0  0  0  0  0  0  0  0  0
  -16.0567   13.1685    0.0000 C   0  0  0  0  0  0  0  0  0  0  0  0
  -17.2926   12.3186    0.0000 H   0  0  0  0  0  0  0  0  0  0  0  0
  -15.4343   11.8037    0.0000 H   0  0  0  0  0  0  0  0  0  0  0  0
  -14.6045   13.5445    0.0000 H   0  0  0  0  0  0  0  0  0  0  0  0
  -14.6816   14.5205    0.0000 O   0  0  0  0  0  0  0  0  0  0  0  0
  -13.8109   15.7419    0.0000 C   0  0  0  0  0  0  0  0  0  0  0  0
  -14.4333   17.1067    0.0000 O   0  0  0  0  0  0  0  0  0  0  0  0
  -12.3178   15.5985    0.0000 C   0  0  0  0  0  0  0  0  0  0  0  0
  -11.6954   14.2337    0.0000 H   0  0  0  0  0  0  0  0  0  0  0  0
  -11.4470   16.8199    0.0000 C   0  0  0  0  0  0  0  0  0  0  0  0
  -12.0694   18.1847    0.0000 H   0  0  0  0  0  0  0  0  0  0  0  0
   -9.9539   16.6766    0.0000 C   0  0  0  0  0  0  0  0  0  0  0  0
   -8.5999   16.0311    0.0000 H   0  0  0  0  0  0  0  0  0  0  0  0
  -10.3544   15.2310    0.0000 H   0  0  0  0  0  0  0  0  0  0  0  0
   -9.0832   17.8980    0.0000 C   0  0  0  0  0  0  0  0  0  0  0  0
   -7.5900   17.7546    0.0000 H   0  0  0  0  0  0  0  0  0  0  0  0
   -9.7056   19.2627    0.0000 C   0  0  0  0  0  0  0  0  0  0  0  0
   -8.8349   20.4841    0.0000 H   0  0  0  0  0  0  0  0  0  0  0  0
  -11.1987   19.4061    0.0000 C   0  0  0  0  0  0  0  0  0  0  0  0
  -11.0806   17.9108    0.0000 H   0  0  0  0  0  0  0  0  0  0  0  0
  -12.6508   19.0301    0.0000 H   0  0  0  0  0  0  0  0  0  0  0  0
  -12.2195   21.6443    0.0000 C   0  0  2  0  0  0  0  0  0  0  0  0
  -13.5098   20.8794    0.0000 H   0  0  0  0  0  0  0  0  0  0  0  0
  -13.1181   22.8453    0.0000 C   0  0  1  0  0  0  0  0  0  0  0  0
  -14.2175   21.8248    0.0000 H   0  0  0  0  0  0  0  0  0  0  0  0
  -14.6110   24.1460    0.0000 C   0  0  0  0  0  0  0  0  0  0  0  0
  -14.3231   25.6182    0.0000 H   0  0  0  0  0  0  0  0  0  0  0  0
  -16.0298   23.6593    0.0000 C   0  0  0  0  0  0  0  0  0  0  0  0
  -16.3177   22.1872    0.0000 H   0  0  0  0  0  0  0  0  0  0  0  0
  -17.1607   24.6447    0.0000 C   0  0  2  0  0  0  0  0  0  0  0  0
  -17.8865   25.9574    0.0000 H   0  0  0  0  0  0  0  0  0  0  0  0
  -18.5796   24.1579    0.0000 C   0  0  0  0  0  0  0  0  0  0  0  0
  -17.8538   22.8452    0.0000 H   0  0  0  0  0  0  0  0  0  0  0  0
  -19.7464   23.2153    0.0000 H   0  0  0  0  0  0  0  0  0  0  0  0
  -19.7105   25.1433    0.0000 O   0  0  0  0  0  0  0  0  0  0  0  0
  -21.1293   24.6566    0.0000 C   0  0  0  0  0  0  0  0  0  0  0  0
  -22.2623   25.6410    0.0000 C   0  0  0  0  0  0  0  0  0  0  0  0
  -21.9766   27.1135    0.0000 H   0  0  0  0  0  0  0  0  0  0  0  0
  -23.6803   25.1519    0.0000 C   0  0  0  0  0  0  0  0  0  0  0  0
  -23.9654   23.6784    0.0000 C   0  0  0  0  0  0  0  0  0  0  0  0
  -25.3826   23.1869    0.0000 H   0  0  0  0  0  0  0  0  0  0  0  0
  -22.8357   22.7034    0.0000 C   0  0  0  0  0  0  0  0  0  0  0  0
  -23.1189   21.2304    0.0000 H   0  0  0  0  0  0  0  0  0  0  0  0
  -21.4177   23.1925    0.0000 C   0  0  0  0  0  0  0  0  0  0  0  0
  -20.2866   22.2073    0.0000 H   0  0  0  0  0  0  0  0  0  0  0  0
  -24.8130   26.1352    0.0000 C   0  0  0  0  0  0  0  0  0  0  0  0
  -26.2310   25.6458    0.0000 F   0  0  0  0  0  0  0  0  0  0  0  0
  -25.5411   27.4466    0.0000 F   0  0  0  0  0  0  0  0  0  0  0  0
  -23.6480   27.0799    0.0000 F   0  0  0  0  0  0  0  0  0  0  0  0
  -15.9939   25.5873    0.0000 O   0  0  0  0  0  0  0  0  0  0  0  0
  -16.2269   27.0691    0.0000 H   0  0  0  0  0  0  0  0  0  0  0  0
  -12.2547   24.0784    0.0000 C   0  0  1  0  0  0  0  0  0  0  0  0
  -13.5640   24.8103    0.0000 H   0  0  0  0  0  0  0  0  0  0  0  0
  -10.8132   23.6208    0.0000 C   0  0  0  0  0  0  0  0  0  0  0  0
  -10.5094   25.0897    0.0000 H   0  0  0  0  0  0  0  0  0  0  0  0
   -9.3208   23.4702    0.0000 H   0  0  0  0  0  0  0  0  0  0  0  0
  -10.8089   22.1127    0.0000 C   0  0  2  0  0  0  0  0  0  0  0  0
   -9.3178   22.2756    0.0000 H   0  0  0  0  0  0  0  0  0  0  0  0
  -10.4894   20.6472    0.0000 O   0  0  0  0  0  0  0  0  0  0  0  0
   -8.1458   19.8993    0.0000 H   0  0  0  0  0  0  0  0  0  0  0  0
  -11.6588   25.4549    0.0000 O   0  0  0  0  0  0  0  0  0  0  0  0
  -12.5529   26.6593    0.0000 H   0  0  0  0  0  0  0  0  0  0  0  0
  1  2  1  0  0  0  0 
  1  3  1  0  0  0  0 
  1  4  1  0  0  0  0 
  1  5  1  0  0  0  0 
  5  6  1  0  0  0  0 
  5  7  1  0  0  0  0 
  7  8  1  0  0  0  0 
  7  9  1  0  0  0  0 
  7 10  1  0  0  0  0 
  5 11  1  0  0  0  0 
 11 12  1  0  0  0  0 
 12 13  2  0  0  0  0 
 12 14  1  0  0  0  0 
 14 15  1  4  0  0  0 
 14 16  2  0  0  0  0 
 16 17  1  0  0  0  0 
 16 18  1  0  0  0  0 
 18 19  1  0  0  0  0 
 18 20  1  0  0  0  0 
 18 21  1  0  0  0  0 
 21 22  1  0  0  0  0 
 21 23  2  0  0  0  0 
 23 24  1  0  0  0  0 
 23 25  1  0  0  0  0 
 25 26  1  0  0  0  0 
 25 27  1  0  0  0  0 
 28 25  1  6  0  0  0 
 28 29  1  1  0  0  0 
 28 30  1  0  0  0  0 
 30 31  1  6  0  0  0 
 30 32  1  1  0  0  0 
 32 33  1  0  0  0  0 
 32 34  2  0  0  0  0 
 34 35  1  0  0  0  0 
 34 36  1  0  0  0  0 
 36 37  1  1  0  0  0 
 36 38  1  0  0  0  0 
 38 39  1  0  0  0  0 
 38 40  1  0  0  0  0 
 38 41  1  0  0  0  0 
 41 42  1  0  0  0  0 
 42 43  2  0  0  0  0 
 43 44  1  0  0  0  0 
 43 45  1  0  0  0  0 
 45 46  2  0  0  0  0 
 46 47  1  0  0  0  0 
 46 48  1  0  0  0  0 
 48 49  1  0  0  0  0 
 48 50  2  0  0  0  0 
 42 50  1  0  0  0  0 
 50 51  1  0  0  0  0 
 45 52  1  0  0  0  0 
 52 53  1  0  0  0  0 
 52 54  1  0  0  0  0 
 52 55  1  0  0  0  0 
 36 56  1  6  0  0  0 
 56 57  1  0  0  0  0 
 30 58  1  0  0  0  0 
 58 59  1  1  0  0  0 
 58 60  1  0  0  0  0 
 60 61  1  0  0  0  0 
 60 62  1  0  0  0  0 
 60 63  1  0  0  0  0 
 28 63  1  0  0  0  0 
 63 64  1  1  0  0  0 
 63 65  1  6  0  0  0 
 65 66  1  0  0  0  0 
 58 67  1  6  0  0  0 
 67 68  1  0  0  0  0 
M  END
> <Rank>
54

> <Priority_score>
0.0032

> <Reaction_type>
alkyl dehydrogenation

> <Parent_ID>
10

> <Parent_InChI>
InChI=1S/C26H35F3O6/c1-17(2)35-25(33)11-6-4-3-5-10-21-22(24(32)15-23(21)31)13-12-19(30)16-34-20-9-7-8-18(14-20)26(27,28)29/h3,5,7-9,12-14,17,19,21-24,30-32H,4,6,10-11,15-16H2,1-2H3

> <Parent_SMILES>
CC(C)OC(=O)CCC/C=C\C[C@H]1[C@@H](O)C[C@@H](O)[C@@H]1/C=C/[C@@H](O)COc1cccc(C(F)(F)F)c1

$$$$
Molecule 10_metabolite 56
  CDK     0516241031

 68 69  0  0  0  0  0  0  0  0999 V2000
  -22.7871   12.7163    0.0000 C   0  0  0  0  0  0  0  0  0  0  0  0
  -23.4096   14.0811    0.0000 H   0  0  0  0  0  0  0  0  0  0  0  0
  -21.7355   11.6467    0.0000 H   0  0  0  0  0  0  0  0  0  0  0  0
  -21.5512   13.5662    0.0000 H   0  0  0  0  0  0  0  0  0  0  0  0
  -23.6579   11.4949    0.0000 C   0  0  0  0  0  0  0  0  0  0  0  0
  -24.7095   12.5645    0.0000 H   0  0  0  0  0  0  0  0  0  0  0  0
  -24.8938   10.6449    0.0000 C   0  0  0  0  0  0  0  0  0  0  0  0
  -26.2479   11.2903    0.0000 H   0  0  0  0  0  0  0  0  0  0  0  0
  -25.7646    9.4235    0.0000 H   0  0  0  0  0  0  0  0  0  0  0  0
  -23.8422    9.5753    0.0000 H   0  0  0  0  0  0  0  0  0  0  0  0
  -23.0355   10.1301    0.0000 O   0  0  0  0  0  0  0  0  0  0  0  0
  -21.5423    9.9867    0.0000 C   0  0  0  0  0  0  0  0  0  0  0  0
  -20.6716   11.2081    0.0000 O   0  0  0  0  0  0  0  0  0  0  0  0
  -20.9199    8.6220    0.0000 C   0  0  0  0  0  0  0  0  0  0  0  0
  -20.8018    7.1266    0.0000 H   0  0  0  0  0  0  0  0  0  0  0  0
  -22.3720    8.2460    0.0000 H   0  0  0  0  0  0  0  0  0  0  0  0
  -19.4268    8.4786    0.0000 C   0  0  0  0  0  0  0  0  0  0  0  0
  -19.8273    7.0330    0.0000 H   0  0  0  0  0  0  0  0  0  0  0  0
  -18.0727    7.8332    0.0000 H   0  0  0  0  0  0  0  0  0  0  0  0
  -18.5561    9.7000    0.0000 C   0  0  0  0  0  0  0  0  0  0  0  0
  -18.1556   11.1456    0.0000 H   0  0  0  0  0  0  0  0  0  0  0  0
  -19.9101   10.3454    0.0000 H   0  0  0  0  0  0  0  0  0  0  0  0
  -17.0629    9.5566    0.0000 C   0  0  0  0  0  0  0  0  0  0  0  0
  -16.4405    8.1919    0.0000 H   0  0  0  0  0  0  0  0  0  0  0  0
  -15.9136   11.1689    0.0000 C   0  0  0  0  0  0  0  0  0  0  0  0
  -14.4204   11.0255    0.0000 H   0  0  0  0  0  0  0  0  0  0  0  0
  -16.7352   12.9704    0.0000 C   0  0  0  0  0  0  0  0  0  0  0  0
  -17.9711   12.1205    0.0000 H   0  0  0  0  0  0  0  0  0  0  0  0
  -17.7868   14.0400    0.0000 H   0  0  0  0  0  0  0  0  0  0  0  0
  -15.8644   14.1918    0.0000 C   0  0  2  0  0  0  0  0  0  0  0  0
  -14.7432   13.1953    0.0000 H   0  0  0  0  0  0  0  0  0  0  0  0
  -14.7537   15.1999    0.0000 C   0  0  1  0  0  0  0  0  0  0  0  0
  -13.8686   13.9888    0.0000 H   0  0  0  0  0  0  0  0  0  0  0  0
  -13.0406   16.1927    0.0000 C   0  0  0  0  0  0  0  0  0  0  0  0
  -13.0431   17.6927    0.0000 H   0  0  0  0  0  0  0  0  0  0  0  0
  -11.7403   15.4449    0.0000 C   0  0  0  0  0  0  0  0  0  0  0  0
  -11.7378   13.9449    0.0000 H   0  0  0  0  0  0  0  0  0  0  0  0
  -10.4425   16.1971    0.0000 C   0  0  2  0  0  0  0  0  0  0  0  0
   -9.4803   17.3478    0.0000 H   0  0  0  0  0  0  0  0  0  0  0  0
   -9.1422   15.4493    0.0000 C   0  0  0  0  0  0  0  0  0  0  0  0
  -10.1045   14.2986    0.0000 H   0  0  0  0  0  0  0  0  0  0  0  0
   -8.1761   14.3018    0.0000 H   0  0  0  0  0  0  0  0  0  0  0  0
   -7.8445   16.2014    0.0000 O   0  0  0  0  0  0  0  0  0  0  0  0
   -6.5442   15.4536    0.0000 C   0  0  0  0  0  0  0  0  0  0  0  0
   -5.2446   16.2045    0.0000 C   0  0  0  0  0  0  0  0  0  0  0  0
   -5.2449   17.7045    0.0000 H   0  0  0  0  0  0  0  0  0  0  0  0
   -3.9456   15.4545    0.0000 C   0  0  0  0  0  0  0  0  0  0  0  0
   -3.9461   13.9536    0.0000 C   0  0  0  0  0  0  0  0  0  0  0  0
   -2.6483   13.2014    0.0000 H   0  0  0  0  0  0  0  0  0  0  0  0
   -5.2406   13.2114    0.0000 C   0  0  0  0  0  0  0  0  0  0  0  0
   -5.2429   11.7114    0.0000 H   0  0  0  0  0  0  0  0  0  0  0  0
   -6.5396   13.9614    0.0000 C   0  0  0  0  0  0  0  0  0  0  0  0
   -7.8375   13.2095    0.0000 H   0  0  0  0  0  0  0  0  0  0  0  0
   -2.6464   16.2042    0.0000 C   0  0  0  0  0  0  0  0  0  0  0  0
   -1.3475   15.4540    0.0000 F   0  0  0  0  0  0  0  0  0  0  0  0
   -1.6821   17.3532    0.0000 F   0  0  0  0  0  0  0  0  0  0  0  0
   -3.6104   17.3535    0.0000 F   0  0  0  0  0  0  0  0  0  0  0  0
  -11.4086   17.3445    0.0000 O   0  0  0  0  0  0  0  0  0  0  0  0
  -10.8980   18.7549    0.0000 H   0  0  0  0  0  0  0  0  0  0  0  0
  -15.3667   16.5747    0.0000 C   0  0  1  0  0  0  0  0  0  0  0  0
  -13.9420   17.0440    0.0000 H   0  0  0  0  0  0  0  0  0  0  0  0
  -16.8689   16.3997    0.0000 C   0  0  0  0  0  0  0  0  0  0  0  0
  -17.8872   17.5011    0.0000 H   0  0  0  0  0  0  0  0  0  0  0  0
  -17.1601   14.9201    0.0000 C   0  0  0  0  0  0  0  0  0  0  0  0
  -18.5221   14.2917    0.0000 O   0  0  0  0  0  0  0  0  0  0  0  0
  -19.7473   15.1572    0.0000 H   0  0  0  0  0  0  0  0  0  0  0  0
  -15.6898   18.0394    0.0000 O   0  0  0  0  0  0  0  0  0  0  0  0
  -14.5828   19.0517    0.0000 H   0  0  0  0  0  0  0  0  0  0  0  0
  1  2  1  0  0  0  0 
  1  3  1  0  0  0  0 
  1  4  1  0  0  0  0 
  1  5  1  0  0  0  0 
  5  6  1  0  0  0  0 
  5  7  1  0  0  0  0 
  7  8  1  0  0  0  0 
  7  9  1  0  0  0  0 
  7 10  1  0  0  0  0 
  5 11  1  0  0  0  0 
 11 12  1  0  0  0  0 
 12 13  2  0  0  0  0 
 12 14  1  0  0  0  0 
 14 15  1  0  0  0  0 
 14 16  1  0  0  0  0 
 14 17  1  0  0  0  0 
 17 18  1  0  0  0  0 
 17 19  1  0  0  0  0 
 17 20  1  0  0  0  0 
 20 21  1  0  0  0  0 
 20 22  1  0  0  0  0 
 20 23  1  0  0  0  0 
 23 24  1  0  0  0  0 
 23 25  2  0  0  0  0 
 25 26  1  0  0  0  0 
 25 27  1  0  0  0  0 
 27 28  1  0  0  0  0 
 27 29  1  0  0  0  0 
 30 27  1  1  0  0  0 
 30 31  1  6  0  0  0 
 30 32  1  0  0  0  0 
 32 33  1  1  0  0  0 
 32 34  1  6  0  0  0 
 34 35  1  0  0  0  0 
 34 36  2  0  0  0  0 
 36 37  1  0  0  0  0 
 36 38  1  0  0  0  0 
 38 39  1  6  0  0  0 
 38 40  1  0  0  0  0 
 40 41  1  0  0  0  0 
 40 42  1  0  0  0  0 
 40 43  1  0  0  0  0 
 43 44  1  0  0  0  0 
 44 45  2  0  0  0  0 
 45 46  1  0  0  0  0 
 45 47  1  0  0  0  0 
 47 48  2  0  0  0  0 
 48 49  1  0  0  0  0 
 48 50  1  0  0  0  0 
 50 51  1  0  0  0  0 
 50 52  2  0  0  0  0 
 44 52  1  0  0  0  0 
 52 53  1  0  0  0  0 
 47 54  1  0  0  0  0 
 54 55  1  0  0  0  0 
 54 56  1  0  0  0  0 
 54 57  1  0  0  0  0 
 38 58  1  1  0  0  0 
 58 59  1  0  0  0  0 
 32 60  1  0  0  0  0 
 60 61  1  6  0  0  0 
 60 62  1  0  0  0  0 
 62 63  1  0  0  0  0 
 62 64  2  0  0  0  0 
 30 64  1  0  0  0  0 
 64 65  1  0  0  0  0 
 65 66  1  0  0  0  0 
 60 67  1  1  0  0  0 
 67 68  1  0  0  0  0 
M  END
> <Rank>
56

> <Priority_score>
0.0024000000000000002

> <Reaction_type>
alkyl dehydrogenation

> <Parent_ID>
10

> <Parent_InChI>
InChI=1S/C26H35F3O6/c1-17(2)35-25(33)11-6-4-3-5-10-21-22(24(32)15-23(21)31)13-12-19(30)16-34-20-9-7-8-18(14-20)26(27,28)29/h3,5,7-9,12-14,17,19,21-24,30-32H,4,6,10-11,15-16H2,1-2H3

> <Parent_SMILES>
CC(C)OC(=O)CCC/C=C\C[C@H]1[C@@H](O)C[C@@H](O)[C@@H]1/C=C/[C@@H](O)COc1cccc(C(F)(F)F)c1

$$$$
Molecule 10_metabolite 57
  CDK     0516241031

 68 69  0  0  0  0  0  0  0  0999 V2000
    6.2562    2.6415    0.0000 C   0  0  0  0  0  0  0  0  0  0  0  0
    6.4105    1.1495    0.0000 H   0  0  0  0  0  0  0  0  0  0  0  0
    7.7524    2.5343    0.0000 H   0  0  0  0  0  0  0  0  0  0  0  0
    6.6216    4.0963    0.0000 H   0  0  0  0  0  0  0  0  0  0  0  0
    4.8869    3.2539    0.0000 C   0  0  0  0  0  0  0  0  0  0  0  0
    3.3908    3.3611    0.0000 H   0  0  0  0  0  0  0  0  0  0  0  0
    4.5216    1.7991    0.0000 C   0  0  0  0  0  0  0  0  0  0  0  0
    5.5988    0.7553    0.0000 H   0  0  0  0  0  0  0  0  0  0  0  0
    3.1523    2.4115    0.0000 H   0  0  0  0  0  0  0  0  0  0  0  0
    3.6807    0.5570    0.0000 H   0  0  0  0  0  0  0  0  0  0  0  0
    4.7327    4.7460    0.0000 O   0  0  0  0  0  0  0  0  0  0  0  0
    3.3634    5.3584    0.0000 C   0  0  0  0  0  0  0  0  0  0  0  0
    2.1484    4.4788    0.0000 O   0  0  0  0  0  0  0  0  0  0  0  0
    3.2091    6.8505    0.0000 C   0  0  0  0  0  0  0  0  0  0  0  0
    4.7053    6.7433    0.0000 H   0  0  0  0  0  0  0  0  0  0  0  0
    3.5745    8.3053    0.0000 H   0  0  0  0  0  0  0  0  0  0  0  0
    1.8398    7.4629    0.0000 C   0  0  0  0  0  0  0  0  0  0  0  0
    0.3437    7.5701    0.0000 H   0  0  0  0  0  0  0  0  0  0  0  0
    1.4745    6.0081    0.0000 H   0  0  0  0  0  0  0  0  0  0  0  0
    1.6362    9.4324    0.0000 C   0  0  0  0  0  0  0  0  0  0  0  0
    0.1936    9.0214    0.0000 H   0  0  0  0  0  0  0  0  0  0  0  0
    0.9809   10.7817    0.0000 H   0  0  0  0  0  0  0  0  0  0  0  0
    2.8512   10.3120    0.0000 C   0  0  0  0  0  0  0  0  0  0  0  0
    4.2205    9.6996    0.0000 H   0  0  0  0  0  0  0  0  0  0  0  0
    2.6970   11.8041    0.0000 C   0  0  0  0  0  0  0  0  0  0  0  0
    3.9120   12.6837    0.0000 H   0  0  0  0  0  0  0  0  0  0  0  0
    0.4513   12.8084    0.0000 C   0  0  0  0  0  0  0  0  0  0  0  0
   -1.0448   12.9156    0.0000 H   0  0  0  0  0  0  0  0  0  0  0  0
    0.0860   11.3536    0.0000 H   0  0  0  0  0  0  0  0  0  0  0  0
    0.2971   14.3005    0.0000 C   0  0  0  0  0  0  0  0  0  0  0  0
    1.4191   15.3039    0.0000 C   0  0  0  0  0  0  0  0  0  0  0  0
    0.7939   16.6810    0.0000 C   0  0  0  0  0  0  0  0  0  0  0  0
    2.2164   17.1568    0.0000 H   0  0  0  0  0  0  0  0  0  0  0  0
    0.4675   18.1451    0.0000 H   0  0  0  0  0  0  0  0  0  0  0  0
   -0.7040   16.5066    0.0000 C   0  0  2  0  0  0  0  0  0  0  0  0
   -0.7190   18.0065    0.0000 H   0  0  0  0  0  0  0  0  0  0  0  0
   -1.0020   15.0505    0.0000 C   0  0  2  0  0  0  0  0  0  0  0  0
   -2.4309   15.5068    0.0000 H   0  0  0  0  0  0  0  0  0  0  0  0
   -1.8027   13.2396    0.0000 C   0  0  0  0  0  0  0  0  0  0  0  0
   -0.9180   12.0283    0.0000 H   0  0  0  0  0  0  0  0  0  0  0  0
   -3.2941   13.0791    0.0000 C   0  0  0  0  0  0  0  0  0  0  0  0
   -4.1788   14.2904    0.0000 H   0  0  0  0  0  0  0  0  0  0  0  0
   -3.9007   11.7072    0.0000 C   0  0  2  0  0  0  0  0  0  0  0  0
   -2.4444   11.3480    0.0000 H   0  0  0  0  0  0  0  0  0  0  0  0
   -5.3921   11.5466    0.0000 C   0  0  0  0  0  0  0  0  0  0  0  0
   -6.8485   11.9058    0.0000 H   0  0  0  0  0  0  0  0  0  0  0  0
   -5.2913   13.0432    0.0000 H   0  0  0  0  0  0  0  0  0  0  0  0
   -5.9988   10.1748    0.0000 O   0  0  0  0  0  0  0  0  0  0  0  0
   -7.4901   10.0142    0.0000 C   0  0  0  0  0  0  0  0  0  0  0  0
   -8.3770   11.2250    0.0000 C   0  0  0  0  0  0  0  0  0  0  0  0
   -7.7725   12.5978    0.0000 H   0  0  0  0  0  0  0  0  0  0  0  0
   -9.8681   11.0619    0.0000 C   0  0  0  0  0  0  0  0  0  0  0  0
  -10.4724    9.6881    0.0000 C   0  0  0  0  0  0  0  0  0  0  0  0
  -11.9632    9.5225    0.0000 H   0  0  0  0  0  0  0  0  0  0  0  0
   -9.5866    8.4873    0.0000 C   0  0  0  0  0  0  0  0  0  0  0  0
  -10.1888    7.1135    0.0000 H   0  0  0  0  0  0  0  0  0  0  0  0
   -8.0955    8.6503    0.0000 C   0  0  0  0  0  0  0  0  0  0  0  0
   -7.2105    7.4392    0.0000 H   0  0  0  0  0  0  0  0  0  0  0  0
  -10.7551   12.2716    0.0000 C   0  0  0  0  0  0  0  0  0  0  0  0
  -12.2462   12.1083    0.0000 F   0  0  0  0  0  0  0  0  0  0  0  0
  -11.1748   13.7117    0.0000 F   0  0  0  0  0  0  0  0  0  0  0  0
   -9.4098   12.9350    0.0000 F   0  0  0  0  0  0  0  0  0  0  0  0
   -4.0016   10.2106    0.0000 O   0  0  0  0  0  0  0  0  0  0  0  0
   -5.3481    9.5496    0.0000 H   0  0  0  0  0  0  0  0  0  0  0  0
   -2.1971   16.6502    0.0000 O   0  0  0  0  0  0  0  0  0  0  0  0
   -2.8192   18.0151    0.0000 H   0  0  0  0  0  0  0  0  0  0  0  0
    4.2961   14.6983    0.0000 O   0  0  0  0  0  0  0  0  0  0  0  0
    5.2976   15.8149    0.0000 H   0  0  0  0  0  0  0  0  0  0  0  0
  1  2  1  0  0  0  0 
  1  3  1  0  0  0  0 
  1  4  1  0  0  0  0 
  1  5  1  0  0  0  0 
  5  6  1  0  0  0  0 
  5  7  1  0  0  0  0 
  7  8  1  0  0  0  0 
  7  9  1  0  0  0  0 
  7 10  1  0  0  0  0 
  5 11  1  0  0  0  0 
 11 12  1  0  0  0  0 
 12 13  2  0  0  0  0 
 12 14  1  0  0  0  0 
 14 15  1  0  0  0  0 
 14 16  1  0  0  0  0 
 14 17  1  0  0  0  0 
 17 18  1  0  0  0  0 
 17 19  1  0  0  0  0 
 17 20  1  0  0  0  0 
 20 21  1  0  0  0  0 
 20 22  1  0  0  0  0 
 20 23  1  0  0  0  0 
 23 24  1  0  0  0  0 
 23 25  2  0  0  0  0 
 25 26  1  0  0  0  0 
 25 27  1  0  0  0  0 
 27 28  1  0  0  0  0 
 27 29  1  0  0  0  0 
 27 30  1  0  0  0  0 
 30 31  2  0  0  0  0 
 31 32  1  0  0  0  0 
 32 33  1  0  0  0  0 
 32 34  1  0  0  0  0 
 32 35  1  0  0  0  0 
 35 36  1  1  0  0  0 
 35 37  1  0  0  0  0 
 30 37  1  0  0  0  0 
 37 38  1  6  0  0  0 
 37 39  1  1  0  0  0 
 39 40  1  0  0  0  0 
 39 41  2  0  0  0  0 
 41 42  1  0  0  0  0 
 41 43  1  0  0  0  0 
 43 44  1  6  0  0  0 
 43 45  1  0  0  0  0 
 45 46  1  0  0  0  0 
 45 47  1  0  0  0  0 
 45 48  1  0  0  0  0 
 48 49  1  0  0  0  0 
 49 50  2  0  0  0  0 
 50 51  1  0  0  0  0 
 50 52  1  0  0  0  0 
 52 53  2  0  0  0  0 
 53 54  1  0  0  0  0 
 53 55  1  0  0  0  0 
 55 56  1  0  0  0  0 
 55 57  2  0  0  0  0 
 49 57  1  0  0  0  0 
 57 58  1  0  0  0  0 
 52 59  1  0  0  0  0 
 59 60  1  0  0  0  0 
 59 61  1  0  0  0  0 
 59 62  1  0  0  0  0 
 43 63  1  1  0  0  0 
 63 64  1  0  0  0  0 
 35 65  1  6  0  0  0 
 65 66  1  0  0  0  0 
 31 67  1  0  0  0  0 
 67 68  1  0  0  0  0 
M  END
> <Rank>
57

> <Priority_score>
0.0016

> <Reaction_type>
alkyl dehydrogenation

> <Parent_ID>
10

> <Parent_InChI>
InChI=1S/C26H35F3O6/c1-17(2)35-25(33)11-6-4-3-5-10-21-22(24(32)15-23(21)31)13-12-19(30)16-34-20-9-7-8-18(14-20)26(27,28)29/h3,5,7-9,12-14,17,19,21-24,30-32H,4,6,10-11,15-16H2,1-2H3

> <Parent_SMILES>
CC(C)OC(=O)CCC/C=C\C[C@H]1[C@@H](O)C[C@@H](O)[C@@H]1/C=C/[C@@H](O)COc1cccc(C(F)(F)F)c1

$$$$
Molecule 10_metabolite 58
  CDK     0516241031

 68 69  0  0  0  0  0  0  0  0999 V2000
  -13.2429   -6.0012    0.0000 C   0  0  0  0  0  0  0  0  0  0  0  0
  -13.5442   -7.4706    0.0000 H   0  0  0  0  0  0  0  0  0  0  0  0
  -14.7423   -5.9596    0.0000 H   0  0  0  0  0  0  0  0  0  0  0  0
  -13.4623   -4.5173    0.0000 H   0  0  0  0  0  0  0  0  0  0  0  0
  -11.8196   -5.5274    0.0000 C   0  0  0  0  0  0  0  0  0  0  0  0
  -10.3202   -5.5690    0.0000 H   0  0  0  0  0  0  0  0  0  0  0  0
  -11.6002   -7.0113    0.0000 C   0  0  0  0  0  0  0  0  0  0  0  0
  -12.7756   -7.9432    0.0000 H   0  0  0  0  0  0  0  0  0  0  0  0
  -10.1770   -6.5376    0.0000 H   0  0  0  0  0  0  0  0  0  0  0  0
  -10.8866   -8.3306    0.0000 H   0  0  0  0  0  0  0  0  0  0  0  0
  -11.5183   -4.0580    0.0000 O   0  0  0  0  0  0  0  0  0  0  0  0
  -10.0951   -3.5843    0.0000 C   0  0  0  0  0  0  0  0  0  0  0  0
   -8.9732   -4.5800    0.0000 O   0  0  0  0  0  0  0  0  0  0  0  0
   -9.7937   -2.1149    0.0000 C   0  0  0  0  0  0  0  0  0  0  0  0
  -11.2931   -2.0733    0.0000 H   0  0  0  0  0  0  0  0  0  0  0  0
  -10.0131   -0.6310    0.0000 H   0  0  0  0  0  0  0  0  0  0  0  0
   -8.3705   -1.6411    0.0000 C   0  0  0  0  0  0  0  0  0  0  0  0
   -6.8711   -1.6827    0.0000 H   0  0  0  0  0  0  0  0  0  0  0  0
   -8.1511   -3.1250    0.0000 H   0  0  0  0  0  0  0  0  0  0  0  0
   -7.9727    0.2985    0.0000 C   0  0  0  0  0  0  0  0  0  0  0  0
   -6.5779   -0.2534    0.0000 H   0  0  0  0  0  0  0  0  0  0  0  0
   -7.1870    1.5762    0.0000 H   0  0  0  0  0  0  0  0  0  0  0  0
   -9.4536    1.6128    0.0000 C   0  0  0  0  0  0  0  0  0  0  0  0
  -10.8768    1.1391    0.0000 H   0  0  0  0  0  0  0  0  0  0  0  0
   -9.0558    3.5524    0.0000 C   0  0  0  0  0  0  0  0  0  0  0  0
  -10.1777    4.5481    0.0000 H   0  0  0  0  0  0  0  0  0  0  0  0
   -7.6326    4.0262    0.0000 C   0  0  0  0  0  0  0  0  0  0  0  0
   -7.4132    2.5423    0.0000 H   0  0  0  0  0  0  0  0  0  0  0  0
   -6.1332    3.9846    0.0000 H   0  0  0  0  0  0  0  0  0  0  0  0
   -7.3312    5.4956    0.0000 C   0  0  0  0  0  0  0  0  0  0  0  0
   -5.9630    6.1103    0.0000 C   0  0  0  0  0  0  0  0  0  0  0  0
   -4.6627    5.3625    0.0000 C   0  0  0  0  0  0  0  0  0  0  0  0
   -3.3649    6.1147    0.0000 H   0  0  0  0  0  0  0  0  0  0  0  0
   -4.6602    3.8625    0.0000 C   0  0  0  0  0  0  0  0  0  0  0  0
   -5.9580    3.1103    0.0000 H   0  0  0  0  0  0  0  0  0  0  0  0
   -3.3599    3.1147    0.0000 C   0  0  2  0  0  0  0  0  0  0  0  0
   -1.8822    2.8567    0.0000 H   0  0  0  0  0  0  0  0  0  0  0  0
   -3.3574    1.6147    0.0000 C   0  0  0  0  0  0  0  0  0  0  0  0
   -4.8350    1.8727    0.0000 H   0  0  0  0  0  0  0  0  0  0  0  0
   -3.8680    0.2043    0.0000 H   0  0  0  0  0  0  0  0  0  0  0  0
   -2.0571    0.8668    0.0000 O   0  0  0  0  0  0  0  0  0  0  0  0
   -2.0546   -0.6332    0.0000 C   0  0  0  0  0  0  0  0  0  0  0  0
   -0.7546   -1.3832    0.0000 C   0  0  0  0  0  0  0  0  0  0  0  0
    0.5443   -0.6329    0.0000 H   0  0  0  0  0  0  0  0  0  0  0  0
   -0.7546   -2.8832    0.0000 C   0  0  0  0  0  0  0  0  0  0  0  0
   -2.0546   -3.6332    0.0000 C   0  0  0  0  0  0  0  0  0  0  0  0
   -2.0571   -5.1332    0.0000 H   0  0  0  0  0  0  0  0  0  0  0  0
   -3.3446   -2.8832    0.0000 C   0  0  0  0  0  0  0  0  0  0  0  0
   -4.6447   -3.6312    0.0000 H   0  0  0  0  0  0  0  0  0  0  0  0
   -3.3446   -1.3832    0.0000 C   0  0  0  0  0  0  0  0  0  0  0  0
   -4.6447   -0.6351    0.0000 H   0  0  0  0  0  0  0  0  0  0  0  0
    0.5443   -3.6334    0.0000 C   0  0  0  0  0  0  0  0  0  0  0  0
    0.5441   -5.1334    0.0000 F   0  0  0  0  0  0  0  0  0  0  0  0
    2.0215   -3.8941    0.0000 F   0  0  0  0  0  0  0  0  0  0  0  0
    1.0576   -2.2239    0.0000 F   0  0  0  0  0  0  0  0  0  0  0  0
   -2.8492    4.5251    0.0000 O   0  0  0  0  0  0  0  0  0  0  0  0
   -1.3724    4.7880    0.0000 H   0  0  0  0  0  0  0  0  0  0  0  0
   -6.1203    7.6073    0.0000 C   0  0  1  0  0  0  0  0  0  0  0  0
   -4.6203    7.6126    0.0000 H   0  0  0  0  0  0  0  0  0  0  0  0
   -7.6029    7.9060    0.0000 C   0  0  0  0  0  0  0  0  0  0  0  0
   -7.1565    9.3380    0.0000 H   0  0  0  0  0  0  0  0  0  0  0  0
   -8.9812    8.4978    0.0000 H   0  0  0  0  0  0  0  0  0  0  0  0
   -8.3378    6.5891    0.0000 C   0  0  2  0  0  0  0  0  0  0  0  0
   -9.5630    7.4545    0.0000 H   0  0  0  0  0  0  0  0  0  0  0  0
   -9.3279    5.4623    0.0000 O   0  0  0  0  0  0  0  0  0  0  0  0
  -10.7988    5.7563    0.0000 H   0  0  0  0  0  0  0  0  0  0  0  0
   -5.9741    9.1002    0.0000 O   0  0  0  0  0  0  0  0  0  0  0  0
   -4.6082    9.7200    0.0000 H   0  0  0  0  0  0  0  0  0  0  0  0
  1  2  1  0  0  0  0 
  1  3  1  0  0  0  0 
  1  4  1  0  0  0  0 
  1  5  1  0  0  0  0 
  5  6  1  0  0  0  0 
  5  7  1  0  0  0  0 
  7  8  1  0  0  0  0 
  7  9  1  0  0  0  0 
  7 10  1  0  0  0  0 
  5 11  1  0  0  0  0 
 11 12  1  0  0  0  0 
 12 13  2  0  0  0  0 
 12 14  1  0  0  0  0 
 14 15  1  0  0  0  0 
 14 16  1  0  0  0  0 
 14 17  1  0  0  0  0 
 17 18  1  0  0  0  0 
 17 19  1  0  0  0  0 
 17 20  1  0  0  0  0 
 20 21  1  0  0  0  0 
 20 22  1  0  0  0  0 
 20 23  1  0  0  0  0 
 23 24  1  0  0  0  0 
 23 25  2  0  0  0  0 
 25 26  1  0  0  0  0 
 25 27  1  0  0  0  0 
 27 28  1  0  0  0  0 
 27 29  1  0  0  0  0 
 27 30  1  0  0  0  0 
 30 31  2  0  0  0  0 
 31 32  1  0  0  0  0 
 32 33  1  0  0  0  0 
 32 34  2  0  0  0  0 
 34 35  1  0  0  0  0 
 34 36  1  0  0  0  0 
 36 37  1  6  0  0  0 
 36 38  1  0  0  0  0 
 38 39  1  0  0  0  0 
 38 40  1  0  0  0  0 
 38 41  1  0  0  0  0 
 41 42  1  0  0  0  0 
 42 43  2  0  0  0  0 
 43 44  1  0  0  0  0 
 43 45  1  0  0  0  0 
 45 46  2  0  0  0  0 
 46 47  1  0  0  0  0 
 46 48  1  0  0  0  0 
 48 49  1  0  0  0  0 
 48 50  2  0  0  0  0 
 42 50  1  0  0  0  0 
 50 51  1  0  0  0  0 
 45 52  1  0  0  0  0 
 52 53  1  0  0  0  0 
 52 54  1  0  0  0  0 
 52 55  1  0  0  0  0 
 36 56  1  1  0  0  0 
 56 57  1  0  0  0  0 
 31 58  1  0  0  0  0 
 58 59  1  6  0  0  0 
 58 60  1  0  0  0  0 
 60 61  1  0  0  0  0 
 60 62  1  0  0  0  0 
 60 63  1  0  0  0  0 
 30 63  1  0  0  0  0 
 63 64  1  6  0  0  0 
 63 65  1  1  0  0  0 
 65 66  1  0  0  0  0 
 58 67  1  1  0  0  0 
 67 68  1  0  0  0  0 
M  END
> <Rank>
57

> <Priority_score>
0.0016

> <Reaction_type>
alkyl dehydrogenation

> <Parent_ID>
10

> <Parent_InChI>
InChI=1S/C26H35F3O6/c1-17(2)35-25(33)11-6-4-3-5-10-21-22(24(32)15-23(21)31)13-12-19(30)16-34-20-9-7-8-18(14-20)26(27,28)29/h3,5,7-9,12-14,17,19,21-24,30-32H,4,6,10-11,15-16H2,1-2H3

> <Parent_SMILES>
CC(C)OC(=O)CCC/C=C\C[C@H]1[C@@H](O)C[C@@H](O)[C@@H]1/C=C/[C@@H](O)COc1cccc(C(F)(F)F)c1

$$$$
Molecule 10_metabolite 59
  CDK     0516241031

 68 69  0  0  0  0  0  0  0  0999 V2000
    4.3632    8.7027    0.0000 C   0  0  0  0  0  0  0  0  0  0  0  0
    5.5699    9.5937    0.0000 H   0  0  0  0  0  0  0  0  0  0  0  0
    5.4503    7.6691    0.0000 H   0  0  0  0  0  0  0  0  0  0  0  0
    3.5341    7.4527    0.0000 H   0  0  0  0  0  0  0  0  0  0  0  0
    2.9882    9.3022    0.0000 C   0  0  0  0  0  0  0  0  0  0  0  0
    1.9012   10.3358    0.0000 H   0  0  0  0  0  0  0  0  0  0  0  0
    3.8174   10.5522    0.0000 C   0  0  0  0  0  0  0  0  0  0  0  0
    5.3145   10.4591    0.0000 H   0  0  0  0  0  0  0  0  0  0  0  0
    2.4424   11.1517    0.0000 H   0  0  0  0  0  0  0  0  0  0  0  0
    4.1690   12.0104    0.0000 H   0  0  0  0  0  0  0  0  0  0  0  0
    1.7816    8.4111    0.0000 O   0  0  0  0  0  0  0  0  0  0  0  0
    0.4066    9.0106    0.0000 C   0  0  0  0  0  0  0  0  0  0  0  0
    0.2383   10.5012    0.0000 O   0  0  0  0  0  0  0  0  0  0  0  0
   -0.8001    8.1196    0.0000 C   0  0  0  0  0  0  0  0  0  0  0  0
    0.2869    7.0860    0.0000 H   0  0  0  0  0  0  0  0  0  0  0  0
   -1.6292    6.8696    0.0000 H   0  0  0  0  0  0  0  0  0  0  0  0
   -2.1751    8.7191    0.0000 C   0  0  0  0  0  0  0  0  0  0  0  0
   -3.2621    9.7527    0.0000 H   0  0  0  0  0  0  0  0  0  0  0  0
   -1.3459    9.9691    0.0000 H   0  0  0  0  0  0  0  0  0  0  0  0
   -3.3818    7.8281    0.0000 C   0  0  0  0  0  0  0  0  0  0  0  0
   -4.0497    9.1711    0.0000 H   0  0  0  0  0  0  0  0  0  0  0  0
   -4.8204    7.4035    0.0000 H   0  0  0  0  0  0  0  0  0  0  0  0
   -3.2134    6.3375    0.0000 C   0  0  0  0  0  0  0  0  0  0  0  0
   -1.8384    5.7381    0.0000 H   0  0  0  0  0  0  0  0  0  0  0  0
   -4.4201    5.4465    0.0000 C   0  0  0  0  0  0  0  0  0  0  0  0
   -4.2518    3.9560    0.0000 H   0  0  0  0  0  0  0  0  0  0  0  0
   -5.7951    6.0460    0.0000 C   0  0  0  0  0  0  0  0  0  0  0  0
   -5.9634    7.5365    0.0000 H   0  0  0  0  0  0  0  0  0  0  0  0
   -7.0018    5.1550    0.0000 C   0  0  0  0  0  0  0  0  0  0  0  0
   -8.4302    5.6129    0.0000 C   0  0  1  0  0  0  0  0  0  0  0  0
   -7.8239    6.9849    0.0000 H   0  0  0  0  0  0  0  0  0  0  0  0
  -10.1466    6.6000    0.0000 C   0  0  0  0  0  0  0  0  0  0  0  0
  -11.4443    5.8478    0.0000 H   0  0  0  0  0  0  0  0  0  0  0  0
  -10.1491    8.1000    0.0000 C   0  0  0  0  0  0  0  0  0  0  0  0
   -8.8513    8.8522    0.0000 H   0  0  0  0  0  0  0  0  0  0  0  0
  -11.4494    8.8478    0.0000 C   0  0  2  0  0  0  0  0  0  0  0  0
  -12.9270    9.1058    0.0000 H   0  0  0  0  0  0  0  0  0  0  0  0
  -11.4519   10.3478    0.0000 C   0  0  0  0  0  0  0  0  0  0  0  0
   -9.9742   10.0898    0.0000 H   0  0  0  0  0  0  0  0  0  0  0  0
  -10.9412   11.7582    0.0000 H   0  0  0  0  0  0  0  0  0  0  0  0
  -12.7522   11.0957    0.0000 O   0  0  0  0  0  0  0  0  0  0  0  0
  -12.7547   12.5957    0.0000 C   0  0  0  0  0  0  0  0  0  0  0  0
  -14.0547   13.3457    0.0000 C   0  0  0  0  0  0  0  0  0  0  0  0
  -15.3536   12.5954    0.0000 H   0  0  0  0  0  0  0  0  0  0  0  0
  -14.0547   14.8457    0.0000 C   0  0  0  0  0  0  0  0  0  0  0  0
  -12.7547   15.5957    0.0000 C   0  0  0  0  0  0  0  0  0  0  0  0
  -12.7522   17.0957    0.0000 H   0  0  0  0  0  0  0  0  0  0  0  0
  -11.4647   14.8457    0.0000 C   0  0  0  0  0  0  0  0  0  0  0  0
  -10.1645   15.5937    0.0000 H   0  0  0  0  0  0  0  0  0  0  0  0
  -11.4647   13.3457    0.0000 C   0  0  0  0  0  0  0  0  0  0  0  0
  -10.1645   12.5976    0.0000 H   0  0  0  0  0  0  0  0  0  0  0  0
  -15.3536   15.5959    0.0000 C   0  0  0  0  0  0  0  0  0  0  0  0
  -15.3534   17.0959    0.0000 F   0  0  0  0  0  0  0  0  0  0  0  0
  -16.8308   15.8566    0.0000 F   0  0  0  0  0  0  0  0  0  0  0  0
  -15.8669   14.1864    0.0000 F   0  0  0  0  0  0  0  0  0  0  0  0
  -11.9600    7.4374    0.0000 O   0  0  0  0  0  0  0  0  0  0  0  0
  -13.4368    7.1745    0.0000 H   0  0  0  0  0  0  0  0  0  0  0  0
   -9.3143    4.3946    0.0000 C   0  0  1  0  0  0  0  0  0  0  0  0
  -10.4331    5.3937    0.0000 H   0  0  0  0  0  0  0  0  0  0  0  0
   -8.4116    3.1811    0.0000 C   0  0  0  0  0  0  0  0  0  0  0  0
   -9.7012    2.4149    0.0000 H   0  0  0  0  0  0  0  0  0  0  0  0
   -7.7826    1.8194    0.0000 H   0  0  0  0  0  0  0  0  0  0  0  0
   -6.9847    3.6688    0.0000 C   0  0  2  0  0  0  0  0  0  0  0  0
   -6.6524    2.2061    0.0000 H   0  0  0  0  0  0  0  0  0  0  0  0
   -5.4950    3.8446    0.0000 O   0  0  0  0  0  0  0  0  0  0  0  0
   -4.5979    2.6424    0.0000 H   0  0  0  0  0  0  0  0  0  0  0  0
  -10.4213    3.3824    0.0000 O   0  0  0  0  0  0  0  0  0  0  0  0
  -11.8514    3.8350    0.0000 H   0  0  0  0  0  0  0  0  0  0  0  0
  1  2  1  0  0  0  0 
  1  3  1  0  0  0  0 
  1  4  1  0  0  0  0 
  1  5  1  0  0  0  0 
  5  6  1  0  0  0  0 
  5  7  1  0  0  0  0 
  7  8  1  0  0  0  0 
  7  9  1  0  0  0  0 
  7 10  1  0  0  0  0 
  5 11  1  0  0  0  0 
 11 12  1  0  0  0  0 
 12 13  2  0  0  0  0 
 12 14  1  0  0  0  0 
 14 15  1  0  0  0  0 
 14 16  1  0  0  0  0 
 14 17  1  0  0  0  0 
 17 18  1  0  0  0  0 
 17 19  1  0  0  0  0 
 17 20  1  0  0  0  0 
 20 21  1  0  0  0  0 
 20 22  1  0  0  0  0 
 20 23  1  0  0  0  0 
 23 24  1  0  0  0  0 
 23 25  2  0  0  0  0 
 25 26  1  0  0  0  0 
 25 27  1  0  0  0  0 
 27 28  1  4  0  0  0 
 27 29  2  0  0  0  0 
 30 29  1  6  0  0  0 
 30 31  1  1  0  0  0 
 30 32  1  0  0  0  0 
 32 33  1  0  0  0  0 
 32 34  2  0  0  0  0 
 34 35  1  0  0  0  0 
 34 36  1  0  0  0  0 
 36 37  1  6  0  0  0 
 36 38  1  0  0  0  0 
 38 39  1  0  0  0  0 
 38 40  1  0  0  0  0 
 38 41  1  0  0  0  0 
 41 42  1  0  0  0  0 
 42 43  2  0  0  0  0 
 43 44  1  0  0  0  0 
 43 45  1  0  0  0  0 
 45 46  2  0  0  0  0 
 46 47  1  0  0  0  0 
 46 48  1  0  0  0  0 
 48 49  1  0  0  0  0 
 48 50  2  0  0  0  0 
 42 50  1  0  0  0  0 
 50 51  1  0  0  0  0 
 45 52  1  0  0  0  0 
 52 53  1  0  0  0  0 
 52 54  1  0  0  0  0 
 52 55  1  0  0  0  0 
 36 56  1  1  0  0  0 
 56 57  1  0  0  0  0 
 30 58  1  0  0  0  0 
 58 59  1  6  0  0  0 
 58 60  1  0  0  0  0 
 60 61  1  0  0  0  0 
 60 62  1  0  0  0  0 
 60 63  1  0  0  0  0 
 29 63  1  0  0  0  0 
 63 64  1  6  0  0  0 
 63 65  1  1  0  0  0 
 65 66  1  0  0  0  0 
 58 67  1  1  0  0  0 
 67 68  1  0  0  0  0 
M  END
> <Rank>
57

> <Priority_score>
0.0016

> <Reaction_type>
alkyl dehydrogenation

> <Parent_ID>
10

> <Parent_InChI>
InChI=1S/C26H35F3O6/c1-17(2)35-25(33)11-6-4-3-5-10-21-22(24(32)15-23(21)31)13-12-19(30)16-34-20-9-7-8-18(14-20)26(27,28)29/h3,5,7-9,12-14,17,19,21-24,30-32H,4,6,10-11,15-16H2,1-2H3

> <Parent_SMILES>
CC(C)OC(=O)CCC/C=C\C[C@H]1[C@@H](O)C[C@@H](O)[C@@H]1/C=C/[C@@H](O)COc1cccc(C(F)(F)F)c1

$$$$
Molecule 11
  CDK     0516241031

 20 22  0  0  0  0  0  0  0  0999 V2000
   -2.5981    2.8000    0.0000 C   0  0  0  0  0  0  0  0  0  0  0  0
   -1.2990    3.5500    0.0000 C   0  0  0  0  0  0  0  0  0  0  0  0
    0.0000    2.8000    0.0000 C   0  0  0  0  0  0  0  0  0  0  0  0
   -0.0000    1.3000    0.0000 N   0  0  0  0  0  0  0  0  0  0  0  0
    1.3000    0.5500    0.0000 C   0  0  0  0  0  0  0  0  0  0  0  0
    1.3000   -0.9500    0.0000 C   0  0  0  0  0  0  0  0  0  0  0  0
    2.6000   -1.7000    0.0000 C   0  0  0  0  0  0  0  0  0  0  0  0
    3.9000   -0.9500    0.0000 C   0  0  0  0  0  0  0  0  0  0  0  0
    3.9000    0.5500    0.0000 C   0  0  0  0  0  0  0  0  0  0  0  0
    2.6000    1.3000    0.0000 C   0  0  0  0  0  0  0  0  0  0  0  0
   -0.0000   -1.7000    0.0000 S   0  0  0  0  0  0  0  0  0  0  0  0
   -1.3000   -0.9500    0.0000 C   0  0  0  0  0  0  0  0  0  0  0  0
   -1.3000    0.5500    0.0000 C   0  0  0  0  0  0  0  0  0  0  0  0
   -2.6000    1.3000    0.0000 C   0  0  0  0  0  0  0  0  0  0  0  0
   -3.9000    0.5500    0.0000 C   0  0  0  0  0  0  0  0  0  0  0  0
   -3.9000   -0.9500    0.0000 C   0  0  0  0  0  0  0  0  0  0  0  0
   -2.6000   -1.7000    0.0000 C   0  0  0  0  0  0  0  0  0  0  0  0
   -1.2990    5.0500    0.0000 N   0  0  0  0  0  0  0  0  0  0  0  0
   -2.5981    5.8000    0.0000 C   0  0  0  0  0  0  0  0  0  0  0  0
    0.0000    5.8000    0.0000 C   0  0  0  0  0  0  0  0  0  0  0  0
  1  2  1  0  0  0  0 
  2  3  1  0  0  0  0 
  3  4  1  0  0  0  0 
  4  5  1  0  0  0  0 
  5  6  2  0  0  0  0 
  6  7  1  0  0  0  0 
  7  8  2  0  0  0  0 
  8  9  1  0  0  0  0 
  9 10  2  0  0  0  0 
  5 10  1  0  0  0  0 
  6 11  1  0  0  0  0 
 11 12  1  0  0  0  0 
 12 13  2  0  0  0  0 
  4 13  1  0  0  0  0 
 13 14  1  0  0  0  0 
 14 15  2  0  0  0  0 
 15 16  1  0  0  0  0 
 16 17  2  0  0  0  0 
 12 17  1  0  0  0  0 
  2 18  1  0  0  0  0 
 18 19  1  0  0  0  0 
 18 20  1  0  0  0  0 
M  END
> <SMILES>
CC(CN1c2ccccc2Sc2ccccc21)N(C)C

$$$$
Molecule 11_metabolite 1
  CDK     0516241031

 41 43  0  0  0  0  0  0  0  0999 V2000
   -2.3606    3.0905    0.0000 C   0  0  0  0  0  0  0  0  0  0  0  0
   -3.3247    1.9414    0.0000 H   0  0  0  0  0  0  0  0  0  0  0  0
   -3.6596    3.8405    0.0000 H   0  0  0  0  0  0  0  0  0  0  0  0
   -1.8475    4.5000    0.0000 H   0  0  0  0  0  0  0  0  0  0  0  0
   -0.8833    2.8300    0.0000 C   0  0  0  0  0  0  0  0  0  0  0  0
   -1.3964    1.4205    0.0000 H   0  0  0  0  0  0  0  0  0  0  0  0
    0.4157    2.0800    0.0000 C   0  0  0  0  0  0  0  0  0  0  0  0
    1.8929    1.8195    0.0000 H   0  0  0  0  0  0  0  0  0  0  0  0
    0.9287    3.4895    0.0000 H   0  0  0  0  0  0  0  0  0  0  0  0
    0.4157    0.5800    0.0000 N   0  0  0  0  0  0  0  0  0  0  0  0
    1.7157   -0.1700    0.0000 C   0  0  0  0  0  0  0  0  0  0  0  0
    1.7157   -1.6700    0.0000 C   0  0  0  0  0  0  0  0  0  0  0  0
    3.0157   -2.4200    0.0000 C   0  0  0  0  0  0  0  0  0  0  0  0
    3.0157   -3.9200    0.0000 H   0  0  0  0  0  0  0  0  0  0  0  0
    4.3157   -1.6700    0.0000 C   0  0  0  0  0  0  0  0  0  0  0  0
    5.6146   -2.4202    0.0000 H   0  0  0  0  0  0  0  0  0  0  0  0
    4.3157   -0.1700    0.0000 C   0  0  0  0  0  0  0  0  0  0  0  0
    5.6146    0.5802    0.0000 H   0  0  0  0  0  0  0  0  0  0  0  0
    3.0157    0.5800    0.0000 C   0  0  0  0  0  0  0  0  0  0  0  0
    3.0157    2.0800    0.0000 H   0  0  0  0  0  0  0  0  0  0  0  0
    0.4157   -2.4200    0.0000 S   0  0  0  0  0  0  0  0  0  0  0  0
   -0.8843   -1.6700    0.0000 C   0  0  0  0  0  0  0  0  0  0  0  0
   -0.8843   -0.1700    0.0000 C   0  0  0  0  0  0  0  0  0  0  0  0
   -2.1843    0.5800    0.0000 C   0  0  0  0  0  0  0  0  0  0  0  0
   -2.1843    2.0800    0.0000 H   0  0  0  0  0  0  0  0  0  0  0  0
   -3.4843   -0.1700    0.0000 C   0  0  0  0  0  0  0  0  0  0  0  0
   -4.7832    0.5802    0.0000 H   0  0  0  0  0  0  0  0  0  0  0  0
   -3.4843   -1.6700    0.0000 C   0  0  0  0  0  0  0  0  0  0  0  0
   -4.7832   -2.4202    0.0000 H   0  0  0  0  0  0  0  0  0  0  0  0
   -2.1843   -2.4200    0.0000 C   0  0  0  0  0  0  0  0  0  0  0  0
   -2.1843   -3.9200    0.0000 H   0  0  0  0  0  0  0  0  0  0  0  0
   -0.8833    4.8100    0.0000 N   0  0  0  0  0  0  0  0  0  0  0  0
   -2.5981    5.8000    0.0000 C   0  0  0  0  0  0  0  0  0  0  0  0
   -2.5981    7.3000    0.0000 H   0  0  0  0  0  0  0  0  0  0  0  0
   -4.0753    6.0605    0.0000 H   0  0  0  0  0  0  0  0  0  0  0  0
   -3.7471    4.8358    0.0000 H   0  0  0  0  0  0  0  0  0  0  0  0
    0.5939    4.5495    0.0000 C   0  0  0  0  0  0  0  0  0  0  0  0
    1.5580    5.6986    0.0000 H   0  0  0  0  0  0  0  0  0  0  0  0
    0.0808    3.1400    0.0000 H   0  0  0  0  0  0  0  0  0  0  0  0
    1.8929    3.7995    0.0000 H   0  0  0  0  0  0  0  0  0  0  0  0
   -0.3703    6.2195    0.0000 O   0  0  0  0  0  0  0  0  0  0  0  0
  1  2  1  0  0  0  0 
  1  3  1  0  0  0  0 
  1  4  1  0  0  0  0 
  1  5  1  0  0  0  0 
  5  6  1  0  0  0  0 
  5  7  1  0  0  0  0 
  7  8  1  0  0  0  0 
  7  9  1  0  0  0  0 
  7 10  1  0  0  0  0 
 10 11  1  0  0  0  0 
 11 12  2  0  0  0  0 
 12 13  1  0  0  0  0 
 13 14  1  0  0  0  0 
 13 15  2  0  0  0  0 
 15 16  1  0  0  0  0 
 15 17  1  0  0  0  0 
 17 18  1  0  0  0  0 
 17 19  2  0  0  0  0 
 11 19  1  0  0  0  0 
 19 20  1  0  0  0  0 
 12 21  1  0  0  0  0 
 21 22  1  0  0  0  0 
 22 23  2  0  0  0  0 
 10 23  1  0  0  0  0 
 23 24  1  0  0  0  0 
 24 25  1  0  0  0  0 
 24 26  2  0  0  0  0 
 26 27  1  0  0  0  0 
 26 28  1  0  0  0  0 
 28 29  1  0  0  0  0 
 28 30  2  0  0  0  0 
 22 30  1  0  0  0  0 
 30 31  1  0  0  0  0 
  5 32  1  0  0  0  0 
 32 33  1  0  0  0  0 
 33 34  1  0  0  0  0 
 33 35  1  0  0  0  0 
 33 36  1  0  0  0  0 
 32 37  1  0  0  0  0 
 37 38  1  0  0  0  0 
 37 39  1  0  0  0  0 
 37 40  1  0  0  0  0 
 32 41  1  0  0  0  0 
M  CHG  1  32   1
M  CHG  1  41  -1
M  END
> <Rank>
1

> <Priority_score>
0.8909132726401533

> <Reaction_type>
N-oxidation_(RN(CH3)2)

> <Parent_ID>
11

> <Parent_InChI>
InChI=1S/C17H20N2S/c1-13(18(2)3)12-19-14-8-4-6-10-16(14)20-17-11-7-5-9-15(17)19/h4-11,13H,12H2,1-3H3

> <Parent_SMILES>
CC(CN1c2ccccc2Sc2ccccc21)N(C)C

$$$$
Molecule 11_metabolite 2
  CDK     0516241031

 41 43  0  0  0  0  0  0  0  0999 V2000
   -2.7762    3.3305    0.0000 C   0  0  0  0  0  0  0  0  0  0  0  0
   -3.7404    2.1814    0.0000 H   0  0  0  0  0  0  0  0  0  0  0  0
   -4.0753    4.0805    0.0000 H   0  0  0  0  0  0  0  0  0  0  0  0
   -2.2632    4.7400    0.0000 H   0  0  0  0  0  0  0  0  0  0  0  0
   -1.2990    3.0700    0.0000 C   0  0  0  0  0  0  0  0  0  0  0  0
   -1.8121    1.6605    0.0000 H   0  0  0  0  0  0  0  0  0  0  0  0
   -0.0000    2.3200    0.0000 C   0  0  0  0  0  0  0  0  0  0  0  0
    1.4772    2.0595    0.0000 H   0  0  0  0  0  0  0  0  0  0  0  0
    0.5130    3.7295    0.0000 H   0  0  0  0  0  0  0  0  0  0  0  0
   -0.0000    0.8200    0.0000 N   0  0  0  0  0  0  0  0  0  0  0  0
    1.3000    0.0700    0.0000 C   0  0  0  0  0  0  0  0  0  0  0  0
    1.3000   -1.4300    0.0000 C   0  0  0  0  0  0  0  0  0  0  0  0
    2.6000   -2.1800    0.0000 C   0  0  0  0  0  0  0  0  0  0  0  0
    2.6000   -3.6800    0.0000 H   0  0  0  0  0  0  0  0  0  0  0  0
    3.9000   -1.4300    0.0000 C   0  0  0  0  0  0  0  0  0  0  0  0
    5.1989   -2.1802    0.0000 H   0  0  0  0  0  0  0  0  0  0  0  0
    3.9000    0.0700    0.0000 C   0  0  0  0  0  0  0  0  0  0  0  0
    5.1989    0.8202    0.0000 H   0  0  0  0  0  0  0  0  0  0  0  0
    2.6000    0.8200    0.0000 C   0  0  0  0  0  0  0  0  0  0  0  0
    2.6000    2.3200    0.0000 H   0  0  0  0  0  0  0  0  0  0  0  0
   -0.0000   -2.1800    0.0000 S   0  0  0  0  0  0  0  0  0  0  0  0
   -1.3000   -1.4300    0.0000 C   0  0  0  0  0  0  0  0  0  0  0  0
   -1.3000    0.0700    0.0000 C   0  0  0  0  0  0  0  0  0  0  0  0
   -2.6000    0.8200    0.0000 C   0  0  0  0  0  0  0  0  0  0  0  0
   -2.6000    2.3200    0.0000 H   0  0  0  0  0  0  0  0  0  0  0  0
   -3.9000    0.0700    0.0000 C   0  0  0  0  0  0  0  0  0  0  0  0
   -5.1989    0.8202    0.0000 H   0  0  0  0  0  0  0  0  0  0  0  0
   -3.9000   -1.4300    0.0000 C   0  0  0  0  0  0  0  0  0  0  0  0
   -5.1989   -2.1802    0.0000 H   0  0  0  0  0  0  0  0  0  0  0  0
   -2.6000   -2.1800    0.0000 C   0  0  0  0  0  0  0  0  0  0  0  0
   -2.6000   -3.6800    0.0000 H   0  0  0  0  0  0  0  0  0  0  0  0
   -1.2990    5.0500    0.0000 N   0  0  0  0  0  0  0  0  0  0  0  0
    0.0000    5.8000    0.0000 C   0  0  0  0  0  0  0  0  0  0  0  0
    1.2990    5.0500    0.0000 H   0  0  0  0  0  0  0  0  0  0  0  0
   -0.9642    6.9491    0.0000 H   0  0  0  0  0  0  0  0  0  0  0  0
    0.9642    6.9491    0.0000 H   0  0  0  0  0  0  0  0  0  0  0  0
   -2.5981    5.8000    0.0000 C   0  0  0  0  0  0  0  0  0  0  0  0
   -4.0753    6.0605    0.0000 H   0  0  0  0  0  0  0  0  0  0  0  0
   -3.1111    4.3905    0.0000 H   0  0  0  0  0  0  0  0  0  0  0  0
   -2.5981    7.3000    0.0000 O   0  0  0  0  0  0  0  0  0  0  0  0
   -3.8971    8.0500    0.0000 H   0  0  0  0  0  0  0  0  0  0  0  0
  1  2  1  0  0  0  0 
  1  3  1  0  0  0  0 
  1  4  1  0  0  0  0 
  1  5  1  0  0  0  0 
  5  6  1  0  0  0  0 
  5  7  1  0  0  0  0 
  7  8  1  0  0  0  0 
  7  9  1  0  0  0  0 
  7 10  1  0  0  0  0 
 10 11  1  0  0  0  0 
 11 12  2  0  0  0  0 
 12 13  1  0  0  0  0 
 13 14  1  0  0  0  0 
 13 15  2  0  0  0  0 
 15 16  1  0  0  0  0 
 15 17  1  0  0  0  0 
 17 18  1  0  0  0  0 
 17 19  2  0  0  0  0 
 11 19  1  0  0  0  0 
 19 20  1  0  0  0  0 
 12 21  1  0  0  0  0 
 21 22  1  0  0  0  0 
 22 23  2  0  0  0  0 
 10 23  1  0  0  0  0 
 23 24  1  0  0  0  0 
 24 25  1  0  0  0  0 
 24 26  2  0  0  0  0 
 26 27  1  0  0  0  0 
 26 28  1  0  0  0  0 
 28 29  1  0  0  0  0 
 28 30  2  0  0  0  0 
 22 30  1  0  0  0  0 
 30 31  1  0  0  0  0 
  5 32  1  0  0  0  0 
 32 33  1  0  0  0  0 
 33 34  1  0  0  0  0 
 33 35  1  0  0  0  0 
 33 36  1  0  0  0  0 
 32 37  1  0  0  0  0 
 37 38  1  0  0  0  0 
 37 39  1  0  0  0  0 
 37 40  1  0  0  0  0 
 40 41  1  0  0  0  0 
M  END
> <Rank>
1

> <Priority_score>
0.8909132726401533

> <Reaction_type>
aliphatic hydroxylation

> <Parent_ID>
11

> <Parent_InChI>
InChI=1S/C17H20N2S/c1-13(18(2)3)12-19-14-8-4-6-10-16(14)20-17-11-7-5-9-15(17)19/h4-11,13H,12H2,1-3H3

> <Parent_SMILES>
CC(CN1c2ccccc2Sc2ccccc21)N(C)C

$$$$
Molecule 11_metabolite 3
  CDK     0516241031

 37 39  0  0  0  0  0  0  0  0999 V2000
   -2.7762    3.3305    0.0000 C   0  0  0  0  0  0  0  0  0  0  0  0
   -3.7404    2.1814    0.0000 H   0  0  0  0  0  0  0  0  0  0  0  0
   -4.0753    4.0805    0.0000 H   0  0  0  0  0  0  0  0  0  0  0  0
   -2.2632    4.7400    0.0000 H   0  0  0  0  0  0  0  0  0  0  0  0
   -1.2990    3.0700    0.0000 C   0  0  0  0  0  0  0  0  0  0  0  0
   -1.8121    1.6605    0.0000 H   0  0  0  0  0  0  0  0  0  0  0  0
   -0.0000    2.3200    0.0000 C   0  0  0  0  0  0  0  0  0  0  0  0
    1.4772    2.0595    0.0000 H   0  0  0  0  0  0  0  0  0  0  0  0
    0.5130    3.7295    0.0000 H   0  0  0  0  0  0  0  0  0  0  0  0
   -0.0000    0.8200    0.0000 N   0  0  0  0  0  0  0  0  0  0  0  0
    1.3000    0.0700    0.0000 C   0  0  0  0  0  0  0  0  0  0  0  0
    1.3000   -1.4300    0.0000 C   0  0  0  0  0  0  0  0  0  0  0  0
    2.6000   -2.1800    0.0000 C   0  0  0  0  0  0  0  0  0  0  0  0
    2.6000   -3.6800    0.0000 H   0  0  0  0  0  0  0  0  0  0  0  0
    3.9000   -1.4300    0.0000 C   0  0  0  0  0  0  0  0  0  0  0  0
    5.1989   -2.1802    0.0000 H   0  0  0  0  0  0  0  0  0  0  0  0
    3.9000    0.0700    0.0000 C   0  0  0  0  0  0  0  0  0  0  0  0
    5.1989    0.8202    0.0000 H   0  0  0  0  0  0  0  0  0  0  0  0
    2.6000    0.8200    0.0000 C   0  0  0  0  0  0  0  0  0  0  0  0
    2.6000    2.3200    0.0000 H   0  0  0  0  0  0  0  0  0  0  0  0
   -0.0000   -2.1800    0.0000 S   0  0  0  0  0  0  0  0  0  0  0  0
   -1.3000   -1.4300    0.0000 C   0  0  0  0  0  0  0  0  0  0  0  0
   -1.3000    0.0700    0.0000 C   0  0  0  0  0  0  0  0  0  0  0  0
   -2.6000    0.8200    0.0000 C   0  0  0  0  0  0  0  0  0  0  0  0
   -2.6000    2.3200    0.0000 H   0  0  0  0  0  0  0  0  0  0  0  0
   -3.9000    0.0700    0.0000 C   0  0  0  0  0  0  0  0  0  0  0  0
   -5.1989    0.8202    0.0000 H   0  0  0  0  0  0  0  0  0  0  0  0
   -3.9000   -1.4300    0.0000 C   0  0  0  0  0  0  0  0  0  0  0  0
   -5.1989   -2.1802    0.0000 H   0  0  0  0  0  0  0  0  0  0  0  0
   -2.6000   -2.1800    0.0000 C   0  0  0  0  0  0  0  0  0  0  0  0
   -2.6000   -3.6800    0.0000 H   0  0  0  0  0  0  0  0  0  0  0  0
   -1.2990    5.0500    0.0000 N   0  0  0  0  0  0  0  0  0  0  0  0
    0.0000    5.8000    0.0000 H   0  0  0  0  0  0  0  0  0  0  0  0
   -2.5981    5.8000    0.0000 C   0  0  0  0  0  0  0  0  0  0  0  0
   -2.5981    7.3000    0.0000 H   0  0  0  0  0  0  0  0  0  0  0  0
   -4.0753    6.0605    0.0000 H   0  0  0  0  0  0  0  0  0  0  0  0
   -3.1111    4.3905    0.0000 H   0  0  0  0  0  0  0  0  0  0  0  0
  1  2  1  0  0  0  0 
  1  3  1  0  0  0  0 
  1  4  1  0  0  0  0 
  1  5  1  0  0  0  0 
  5  6  1  0  0  0  0 
  5  7  1  0  0  0  0 
  7  8  1  0  0  0  0 
  7  9  1  0  0  0  0 
  7 10  1  0  0  0  0 
 10 11  1  0  0  0  0 
 11 12  2  0  0  0  0 
 12 13  1  0  0  0  0 
 13 14  1  0  0  0  0 
 13 15  2  0  0  0  0 
 15 16  1  0  0  0  0 
 15 17  1  0  0  0  0 
 17 18  1  0  0  0  0 
 17 19  2  0  0  0  0 
 11 19  1  0  0  0  0 
 19 20  1  0  0  0  0 
 12 21  1  0  0  0  0 
 21 22  1  0  0  0  0 
 22 23  2  0  0  0  0 
 10 23  1  0  0  0  0 
 23 24  1  0  0  0  0 
 24 25  1  0  0  0  0 
 24 26  2  0  0  0  0 
 26 27  1  0  0  0  0 
 26 28  1  0  0  0  0 
 28 29  1  0  0  0  0 
 28 30  2  0  0  0  0 
 22 30  1  0  0  0  0 
 30 31  1  0  0  0  0 
  5 32  1  0  0  0  0 
 32 33  1  0  0  0  0 
 32 34  1  0  0  0  0 
 34 35  1  0  0  0  0 
 34 36  1  0  0  0  0 
 34 37  1  0  0  0  0 
M  END
> <Rank>
1

> <Priority_score>
0.8909132726401533

> <Reaction_type>
N-demethylation_(R-N(CH3)2)

> <Parent_ID>
11

> <Parent_InChI>
InChI=1S/C17H20N2S/c1-13(18(2)3)12-19-14-8-4-6-10-16(14)20-17-11-7-5-9-15(17)19/h4-11,13H,12H2,1-3H3

> <Parent_SMILES>
CC(CN1c2ccccc2Sc2ccccc21)N(C)C

$$$$
Molecule 11_metabolite 4
  CDK     0516241031

 10  9  0  0  0  0  0  0  0  0999 V2000
    2.7109   -0.6849    0.0000 C   0  0  0  0  0  0  0  0  0  0  0  0
    1.4118   -1.4349    0.0000 H   0  0  0  0  0  0  0  0  0  0  0  0
    3.2239   -2.0944    0.0000 H   0  0  0  0  0  0  0  0  0  0  0  0
    4.1881   -0.4244    0.0000 H   0  0  0  0  0  0  0  0  0  0  0  0
    2.7109    0.8151    0.0000 N   0  0  0  0  0  0  0  0  0  0  0  0
    4.0099    1.5651    0.0000 H   0  0  0  0  0  0  0  0  0  0  0  0
    1.4118    1.5651    0.0000 C   0  0  0  0  0  0  0  0  0  0  0  0
    1.4118    3.0651    0.0000 H   0  0  0  0  0  0  0  0  0  0  0  0
    0.8988    0.1556    0.0000 H   0  0  0  0  0  0  0  0  0  0  0  0
   -0.0654    1.8256    0.0000 H   0  0  0  0  0  0  0  0  0  0  0  0
  1  2  1  0  0  0  0 
  1  3  1  0  0  0  0 
  1  4  1  0  0  0  0 
  1  5  1  0  0  0  0 
  5  6  1  0  0  0  0 
  5  7  1  0  0  0  0 
  7  8  1  0  0  0  0 
  7  9  1  0  0  0  0 
  7 10  1  0  0  0  0 
M  END
> <Rank>
4

> <Priority_score>
0.7435576360444704

> <Reaction_type>
N-dealkylation

> <Parent_ID>
11

> <Parent_InChI>
InChI=1S/C17H20N2S/c1-13(18(2)3)12-19-14-8-4-6-10-16(14)20-17-11-7-5-9-15(17)19/h4-11,13H,12H2,1-3H3

> <Parent_SMILES>
CC(CN1c2ccccc2Sc2ccccc21)N(C)C

$$$$
Molecule 11_metabolite 5
  CDK     0516241031

 31 33  0  0  0  0  0  0  0  0999 V2000
   -1.2990    5.0500    0.0000 C   0  0  0  0  0  0  0  0  0  0  0  0
    0.0000    5.8000    0.0000 H   0  0  0  0  0  0  0  0  0  0  0  0
   -2.7762    4.7895    0.0000 H   0  0  0  0  0  0  0  0  0  0  0  0
   -1.8121    6.4595    0.0000 H   0  0  0  0  0  0  0  0  0  0  0  0
   -1.2990    3.5500    0.0000 C   0  0  0  0  0  0  0  0  0  0  0  0
   -2.5981    2.8000    0.0000 O   0  0  0  0  0  0  0  0  0  0  0  0
    0.0000    2.8000    0.0000 C   0  0  0  0  0  0  0  0  0  0  0  0
    1.4772    2.5395    0.0000 H   0  0  0  0  0  0  0  0  0  0  0  0
    0.5130    4.2095    0.0000 H   0  0  0  0  0  0  0  0  0  0  0  0
   -0.0000    0.3400    0.0000 N   0  0  0  0  0  0  0  0  0  0  0  0
    1.3000   -0.4100    0.0000 C   0  0  0  0  0  0  0  0  0  0  0  0
    1.3000   -1.9100    0.0000 C   0  0  0  0  0  0  0  0  0  0  0  0
    2.6000   -2.6600    0.0000 C   0  0  0  0  0  0  0  0  0  0  0  0
    2.6000   -4.1600    0.0000 H   0  0  0  0  0  0  0  0  0  0  0  0
    3.9000   -1.9100    0.0000 C   0  0  0  0  0  0  0  0  0  0  0  0
    5.1989   -2.6602    0.0000 H   0  0  0  0  0  0  0  0  0  0  0  0
    3.9000   -0.4100    0.0000 C   0  0  0  0  0  0  0  0  0  0  0  0
    5.1989    0.3402    0.0000 H   0  0  0  0  0  0  0  0  0  0  0  0
    2.6000    0.3400    0.0000 C   0  0  0  0  0  0  0  0  0  0  0  0
    2.6000    1.8400    0.0000 H   0  0  0  0  0  0  0  0  0  0  0  0
   -0.0000   -2.6600    0.0000 S   0  0  0  0  0  0  0  0  0  0  0  0
   -1.3000   -1.9100    0.0000 C   0  0  0  0  0  0  0  0  0  0  0  0
   -1.3000   -0.4100    0.0000 C   0  0  0  0  0  0  0  0  0  0  0  0
   -2.6000    0.3400    0.0000 C   0  0  0  0  0  0  0  0  0  0  0  0
   -2.6000    1.8400    0.0000 H   0  0  0  0  0  0  0  0  0  0  0  0
   -3.9000   -0.4100    0.0000 C   0  0  0  0  0  0  0  0  0  0  0  0
   -5.1989    0.3402    0.0000 H   0  0  0  0  0  0  0  0  0  0  0  0
   -3.9000   -1.9100    0.0000 C   0  0  0  0  0  0  0  0  0  0  0  0
   -5.1989   -2.6602    0.0000 H   0  0  0  0  0  0  0  0  0  0  0  0
   -2.6000   -2.6600    0.0000 C   0  0  0  0  0  0  0  0  0  0  0  0
   -2.6000   -4.1600    0.0000 H   0  0  0  0  0  0  0  0  0  0  0  0
  1  2  1  0  0  0  0 
  1  3  1  0  0  0  0 
  1  4  1  0  0  0  0 
  1  5  1  0  0  0  0 
  5  6  2  0  0  0  0 
  5  7  1  0  0  0  0 
  7  8  1  0  0  0  0 
  7  9  1  0  0  0  0 
  7 10  1  0  0  0  0 
 10 11  1  0  0  0  0 
 11 12  2  0  0  0  0 
 12 13  1  0  0  0  0 
 13 14  1  0  0  0  0 
 13 15  2  0  0  0  0 
 15 16  1  0  0  0  0 
 15 17  1  0  0  0  0 
 17 18  1  0  0  0  0 
 17 19  2  0  0  0  0 
 11 19  1  0  0  0  0 
 19 20  1  0  0  0  0 
 12 21  1  0  0  0  0 
 21 22  1  0  0  0  0 
 22 23  2  0  0  0  0 
 10 23  1  0  0  0  0 
 23 24  1  0  0  0  0 
 24 25  1  0  0  0  0 
 24 26  2  0  0  0  0 
 26 27  1  0  0  0  0 
 26 28  1  0  0  0  0 
 28 29  1  0  0  0  0 
 28 30  2  0  0  0  0 
 22 30  1  0  0  0  0 
 30 31  1  0  0  0  0 
M  END
> <Rank>
4

> <Priority_score>
0.7435576360444704

> <Reaction_type>
N-dealkylation

> <Parent_ID>
11

> <Parent_InChI>
InChI=1S/C17H20N2S/c1-13(18(2)3)12-19-14-8-4-6-10-16(14)20-17-11-7-5-9-15(17)19/h4-11,13H,12H2,1-3H3

> <Parent_SMILES>
CC(CN1c2ccccc2Sc2ccccc21)N(C)C

$$$$
Molecule 11_metabolite 6
  CDK     0516241031

 41 43  0  0  0  0  0  0  0  0999 V2000
   -1.8308    4.4572    0.0000 C   0  0  0  0  0  0  0  0  0  0  0  0
   -2.7950    3.3081    0.0000 H   0  0  0  0  0  0  0  0  0  0  0  0
   -3.1299    5.2072    0.0000 H   0  0  0  0  0  0  0  0  0  0  0  0
   -1.3178    5.8667    0.0000 H   0  0  0  0  0  0  0  0  0  0  0  0
   -0.3536    4.1967    0.0000 C   0  0  0  0  0  0  0  0  0  0  0  0
    0.9454    3.4467    0.0000 C   0  0  0  0  0  0  0  0  0  0  0  0
    2.4226    3.1862    0.0000 H   0  0  0  0  0  0  0  0  0  0  0  0
    1.4584    4.8562    0.0000 H   0  0  0  0  0  0  0  0  0  0  0  0
    0.9454    0.9867    0.0000 N   0  0  0  0  0  0  0  0  0  0  0  0
    2.2454    0.2367    0.0000 C   0  0  0  0  0  0  0  0  0  0  0  0
    2.2454   -1.2633    0.0000 C   0  0  0  0  0  0  0  0  0  0  0  0
    3.5454   -2.0133    0.0000 C   0  0  0  0  0  0  0  0  0  0  0  0
    3.5454   -3.5133    0.0000 H   0  0  0  0  0  0  0  0  0  0  0  0
    4.8454   -1.2633    0.0000 C   0  0  0  0  0  0  0  0  0  0  0  0
    6.1443   -2.0135    0.0000 H   0  0  0  0  0  0  0  0  0  0  0  0
    4.8454    0.2367    0.0000 C   0  0  0  0  0  0  0  0  0  0  0  0
    6.1443    0.9869    0.0000 H   0  0  0  0  0  0  0  0  0  0  0  0
    3.5454    0.9867    0.0000 C   0  0  0  0  0  0  0  0  0  0  0  0
    3.5454    2.4867    0.0000 H   0  0  0  0  0  0  0  0  0  0  0  0
    0.9454   -2.0133    0.0000 S   0  0  0  0  0  0  0  0  0  0  0  0
   -0.3546   -1.2633    0.0000 C   0  0  0  0  0  0  0  0  0  0  0  0
   -0.3546    0.2367    0.0000 C   0  0  0  0  0  0  0  0  0  0  0  0
   -1.6546    0.9867    0.0000 C   0  0  0  0  0  0  0  0  0  0  0  0
   -1.6546    2.4867    0.0000 H   0  0  0  0  0  0  0  0  0  0  0  0
   -2.9546    0.2367    0.0000 C   0  0  0  0  0  0  0  0  0  0  0  0
   -4.2535    0.9869    0.0000 H   0  0  0  0  0  0  0  0  0  0  0  0
   -2.9546   -1.2633    0.0000 C   0  0  0  0  0  0  0  0  0  0  0  0
   -4.2535   -2.0135    0.0000 H   0  0  0  0  0  0  0  0  0  0  0  0
   -1.6546   -2.0133    0.0000 C   0  0  0  0  0  0  0  0  0  0  0  0
   -1.6546   -3.5133    0.0000 H   0  0  0  0  0  0  0  0  0  0  0  0
   -0.3536    6.1767    0.0000 N   0  0  0  0  0  0  0  0  0  0  0  0
   -1.6527    6.9267    0.0000 C   0  0  0  0  0  0  0  0  0  0  0  0
   -1.6527    8.4267    0.0000 H   0  0  0  0  0  0  0  0  0  0  0  0
   -3.1299    7.1872    0.0000 H   0  0  0  0  0  0  0  0  0  0  0  0
   -2.1657    5.5172    0.0000 H   0  0  0  0  0  0  0  0  0  0  0  0
    0.9454    6.9267    0.0000 C   0  0  0  0  0  0  0  0  0  0  0  0
    2.2445    6.1767    0.0000 H   0  0  0  0  0  0  0  0  0  0  0  0
   -0.0188    8.0758    0.0000 H   0  0  0  0  0  0  0  0  0  0  0  0
    1.9096    8.0758    0.0000 H   0  0  0  0  0  0  0  0  0  0  0  0
   -0.8667    2.7872    0.0000 O   0  0  0  0  0  0  0  0  0  0  0  0
   -3.2893    2.3600    0.0000 H   0  0  0  0  0  0  0  0  0  0  0  0
  1  2  1  0  0  0  0 
  1  3  1  0  0  0  0 
  1  4  1  0  0  0  0 
  1  5  1  0  0  0  0 
  5  6  1  0  0  0  0 
  6  7  1  0  0  0  0 
  6  8  1  0  0  0  0 
  6  9  1  0  0  0  0 
  9 10  1  0  0  0  0 
 10 11  2  0  0  0  0 
 11 12  1  0  0  0  0 
 12 13  1  0  0  0  0 
 12 14  2  0  0  0  0 
 14 15  1  0  0  0  0 
 14 16  1  0  0  0  0 
 16 17  1  0  0  0  0 
 16 18  2  0  0  0  0 
 10 18  1  0  0  0  0 
 18 19  1  0  0  0  0 
 11 20  1  0  0  0  0 
 20 21  1  0  0  0  0 
 21 22  2  0  0  0  0 
  9 22  1  0  0  0  0 
 22 23  1  0  0  0  0 
 23 24  1  0  0  0  0 
 23 25  2  0  0  0  0 
 25 26  1  0  0  0  0 
 25 27  1  0  0  0  0 
 27 28  1  0  0  0  0 
 27 29  2  0  0  0  0 
 21 29  1  0  0  0  0 
 29 30  1  0  0  0  0 
  5 31  1  0  0  0  0 
 31 32  1  0  0  0  0 
 32 33  1  0  0  0  0 
 32 34  1  0  0  0  0 
 32 35  1  0  0  0  0 
 31 36  1  0  0  0  0 
 36 37  1  0  0  0  0 
 36 38  1  0  0  0  0 
 36 39  1  0  0  0  0 
  5 40  1  0  0  0  0 
 40 41  1  0  0  0  0 
M  END
> <Rank>
4

> <Priority_score>
0.7435576360444704

> <Reaction_type>
aliphatic_hydroxylation_(tert_carbon_next_to_SP2)

> <Parent_ID>
11

> <Parent_InChI>
InChI=1S/C17H20N2S/c1-13(18(2)3)12-19-14-8-4-6-10-16(14)20-17-11-7-5-9-15(17)19/h4-11,13H,12H2,1-3H3

> <Parent_SMILES>
CC(CN1c2ccccc2Sc2ccccc21)N(C)C

$$$$
Molecule 11_metabolite 7
  CDK     0516241031

 41 43  0  0  0  0  0  0  0  0999 V2000
   -2.7762    3.5305    0.0000 C   0  0  0  0  0  0  0  0  0  0  0  0
   -3.7404    2.3814    0.0000 H   0  0  0  0  0  0  0  0  0  0  0  0
   -4.0753    4.2805    0.0000 H   0  0  0  0  0  0  0  0  0  0  0  0
   -2.2632    4.9400    0.0000 H   0  0  0  0  0  0  0  0  0  0  0  0
   -1.2990    3.2700    0.0000 C   0  0  0  0  0  0  0  0  0  0  0  0
   -1.8121    1.8605    0.0000 H   0  0  0  0  0  0  0  0  0  0  0  0
   -0.0000    2.5200    0.0000 C   0  0  0  0  0  0  0  0  0  0  0  0
    1.4772    2.2595    0.0000 H   0  0  0  0  0  0  0  0  0  0  0  0
    0.5130    3.9295    0.0000 H   0  0  0  0  0  0  0  0  0  0  0  0
   -0.0000    1.0200    0.0000 N   0  0  0  0  0  0  0  0  0  0  0  0
   -1.3000    0.2700    0.0000 C   0  0  0  0  0  0  0  0  0  0  0  0
   -1.3000   -1.2300    0.0000 C   0  0  0  0  0  0  0  0  0  0  0  0
   -2.6000   -1.9800    0.0000 C   0  0  0  0  0  0  0  0  0  0  0  0
   -2.6000   -3.4800    0.0000 H   0  0  0  0  0  0  0  0  0  0  0  0
   -3.9000   -1.2300    0.0000 C   0  0  0  0  0  0  0  0  0  0  0  0
   -5.1989   -1.9802    0.0000 H   0  0  0  0  0  0  0  0  0  0  0  0
   -3.9000    0.2700    0.0000 C   0  0  0  0  0  0  0  0  0  0  0  0
   -5.1989    1.0202    0.0000 H   0  0  0  0  0  0  0  0  0  0  0  0
   -2.6000    1.0200    0.0000 C   0  0  0  0  0  0  0  0  0  0  0  0
   -2.6000    2.5200    0.0000 H   0  0  0  0  0  0  0  0  0  0  0  0
   -0.0000   -1.9800    0.0000 S   0  0  0  0  0  0  0  0  0  0  0  0
   -0.0000   -3.4800    0.0000 O   0  0  0  0  0  0  0  0  0  0  0  0
    1.3000   -1.2300    0.0000 C   0  0  0  0  0  0  0  0  0  0  0  0
    1.3000    0.2700    0.0000 C   0  0  0  0  0  0  0  0  0  0  0  0
    2.6000    1.0200    0.0000 C   0  0  0  0  0  0  0  0  0  0  0  0
    2.6000    2.5200    0.0000 H   0  0  0  0  0  0  0  0  0  0  0  0
    3.9000    0.2700    0.0000 C   0  0  0  0  0  0  0  0  0  0  0  0
    5.1989    1.0202    0.0000 H   0  0  0  0  0  0  0  0  0  0  0  0
    3.9000   -1.2300    0.0000 C   0  0  0  0  0  0  0  0  0  0  0  0
    5.1989   -1.9802    0.0000 H   0  0  0  0  0  0  0  0  0  0  0  0
    2.6000   -1.9800    0.0000 C   0  0  0  0  0  0  0  0  0  0  0  0
    2.6000   -3.4800    0.0000 H   0  0  0  0  0  0  0  0  0  0  0  0
   -1.2990    5.2500    0.0000 N   0  0  0  0  0  0  0  0  0  0  0  0
   -2.5981    6.0000    0.0000 C   0  0  0  0  0  0  0  0  0  0  0  0
   -2.5981    7.5000    0.0000 H   0  0  0  0  0  0  0  0  0  0  0  0
   -4.0753    6.2605    0.0000 H   0  0  0  0  0  0  0  0  0  0  0  0
   -3.1111    4.5905    0.0000 H   0  0  0  0  0  0  0  0  0  0  0  0
    0.0000    6.0000    0.0000 C   0  0  0  0  0  0  0  0  0  0  0  0
    1.2990    5.2500    0.0000 H   0  0  0  0  0  0  0  0  0  0  0  0
   -0.9642    7.1491    0.0000 H   0  0  0  0  0  0  0  0  0  0  0  0
    0.9642    7.1491    0.0000 H   0  0  0  0  0  0  0  0  0  0  0  0
  1  2  1  0  0  0  0 
  1  3  1  0  0  0  0 
  1  4  1  0  0  0  0 
  1  5  1  0  0  0  0 
  5  6  1  0  0  0  0 
  5  7  1  0  0  0  0 
  7  8  1  0  0  0  0 
  7  9  1  0  0  0  0 
  7 10  1  0  0  0  0 
 10 11  1  0  0  0  0 
 11 12  2  0  0  0  0 
 12 13  1  0  0  0  0 
 13 14  1  0  0  0  0 
 13 15  2  0  0  0  0 
 15 16  1  0  0  0  0 
 15 17  1  0  0  0  0 
 17 18  1  0  0  0  0 
 17 19  2  0  0  0  0 
 11 19  1  0  0  0  0 
 19 20  1  0  0  0  0 
 12 21  1  0  0  0  0 
 21 22  2  0  0  0  0 
 21 23  1  0  0  0  0 
 23 24  2  0  0  0  0 
 10 24  1  0  0  0  0 
 24 25  1  0  0  0  0 
 25 26  1  0  0  0  0 
 25 27  2  0  0  0  0 
 27 28  1  0  0  0  0 
 27 29  1  0  0  0  0 
 29 30  1  0  0  0  0 
 29 31  2  0  0  0  0 
 23 31  1  0  0  0  0 
 31 32  1  0  0  0  0 
  5 33  1  0  0  0  0 
 33 34  1  0  0  0  0 
 34 35  1  0  0  0  0 
 34 36  1  0  0  0  0 
 34 37  1  0  0  0  0 
 33 38  1  0  0  0  0 
 38 39  1  0  0  0  0 
 38 40  1  0  0  0  0 
 38 41  1  0  0  0  0 
M  END
> <Rank>
7

> <Priority_score>
0.448

> <Reaction_type>
sulfide_oxidation_(c-S-c)

> <Parent_ID>
11

> <Parent_InChI>
InChI=1S/C17H20N2S/c1-13(18(2)3)12-19-14-8-4-6-10-16(14)20-17-11-7-5-9-15(17)19/h4-11,13H,12H2,1-3H3

> <Parent_SMILES>
CC(CN1c2ccccc2Sc2ccccc21)N(C)C

$$$$
Molecule 11_metabolite 8
  CDK     0516241031

 41 43  0  0  0  0  0  0  0  0999 V2000
   -2.7762    3.5305    0.0000 C   0  0  0  0  0  0  0  0  0  0  0  0
   -3.7404    2.3814    0.0000 H   0  0  0  0  0  0  0  0  0  0  0  0
   -4.0753    4.2805    0.0000 H   0  0  0  0  0  0  0  0  0  0  0  0
   -2.2632    4.9400    0.0000 H   0  0  0  0  0  0  0  0  0  0  0  0
   -1.2990    3.2700    0.0000 C   0  0  0  0  0  0  0  0  0  0  0  0
   -1.8121    1.8605    0.0000 H   0  0  0  0  0  0  0  0  0  0  0  0
   -0.0000    2.5200    0.0000 C   0  0  0  0  0  0  0  0  0  0  0  0
    1.4772    2.2595    0.0000 H   0  0  0  0  0  0  0  0  0  0  0  0
    0.5130    3.9295    0.0000 H   0  0  0  0  0  0  0  0  0  0  0  0
   -0.0000    1.0200    0.0000 N   0  0  0  0  0  0  0  0  0  0  0  0
   -1.3000    0.2700    0.0000 C   0  0  0  0  0  0  0  0  0  0  0  0
   -1.3000   -1.2300    0.0000 C   0  0  0  0  0  0  0  0  0  0  0  0
   -2.6000   -1.9800    0.0000 C   0  0  0  0  0  0  0  0  0  0  0  0
   -2.6000   -3.4800    0.0000 H   0  0  0  0  0  0  0  0  0  0  0  0
   -3.9000   -1.2300    0.0000 C   0  0  0  0  0  0  0  0  0  0  0  0
   -5.1989   -1.9802    0.0000 H   0  0  0  0  0  0  0  0  0  0  0  0
   -3.9000    0.2700    0.0000 C   0  0  0  0  0  0  0  0  0  0  0  0
   -5.1989    1.0202    0.0000 H   0  0  0  0  0  0  0  0  0  0  0  0
   -2.6000    1.0200    0.0000 C   0  0  0  0  0  0  0  0  0  0  0  0
   -2.6000    2.5200    0.0000 H   0  0  0  0  0  0  0  0  0  0  0  0
   -0.0000   -1.9800    0.0000 S   0  0  0  0  0  0  0  0  0  0  0  0
    1.3000   -1.2300    0.0000 C   0  0  0  0  0  0  0  0  0  0  0  0
    1.3000    0.2700    0.0000 C   0  0  0  0  0  0  0  0  0  0  0  0
    2.6000    1.0200    0.0000 C   0  0  0  0  0  0  0  0  0  0  0  0
    3.9000    0.2700    0.0000 C   0  0  0  0  0  0  0  0  0  0  0  0
    5.1989    1.0202    0.0000 H   0  0  0  0  0  0  0  0  0  0  0  0
    3.9000   -1.2300    0.0000 C   0  0  0  0  0  0  0  0  0  0  0  0
    5.1989   -1.9802    0.0000 H   0  0  0  0  0  0  0  0  0  0  0  0
    2.6000   -1.9800    0.0000 C   0  0  0  0  0  0  0  0  0  0  0  0
    2.6000   -3.4800    0.0000 H   0  0  0  0  0  0  0  0  0  0  0  0
    2.6000    2.5200    0.0000 O   0  0  0  0  0  0  0  0  0  0  0  0
    3.8990    3.2700    0.0000 H   0  0  0  0  0  0  0  0  0  0  0  0
   -1.2990    5.2500    0.0000 N   0  0  0  0  0  0  0  0  0  0  0  0
   -2.5981    6.0000    0.0000 C   0  0  0  0  0  0  0  0  0  0  0  0
   -2.5981    7.5000    0.0000 H   0  0  0  0  0  0  0  0  0  0  0  0
   -4.0753    6.2605    0.0000 H   0  0  0  0  0  0  0  0  0  0  0  0
   -3.1111    4.5905    0.0000 H   0  0  0  0  0  0  0  0  0  0  0  0
    0.0000    6.0000    0.0000 C   0  0  0  0  0  0  0  0  0  0  0  0
    1.2990    5.2500    0.0000 H   0  0  0  0  0  0  0  0  0  0  0  0
   -0.9642    7.1491    0.0000 H   0  0  0  0  0  0  0  0  0  0  0  0
    0.9642    7.1491    0.0000 H   0  0  0  0  0  0  0  0  0  0  0  0
  1  2  1  0  0  0  0 
  1  3  1  0  0  0  0 
  1  4  1  0  0  0  0 
  1  5  1  0  0  0  0 
  5  6  1  0  0  0  0 
  5  7  1  0  0  0  0 
  7  8  1  0  0  0  0 
  7  9  1  0  0  0  0 
  7 10  1  0  0  0  0 
 10 11  1  0  0  0  0 
 11 12  2  0  0  0  0 
 12 13  1  0  0  0  0 
 13 14  1  0  0  0  0 
 13 15  2  0  0  0  0 
 15 16  1  0  0  0  0 
 15 17  1  0  0  0  0 
 17 18  1  0  0  0  0 
 17 19  2  0  0  0  0 
 11 19  1  0  0  0  0 
 19 20  1  0  0  0  0 
 12 21  1  0  0  0  0 
 21 22  1  0  0  0  0 
 22 23  2  0  0  0  0 
 10 23  1  0  0  0  0 
 23 24  1  0  0  0  0 
 24 25  2  0  0  0  0 
 25 26  1  0  0  0  0 
 25 27  1  0  0  0  0 
 27 28  1  0  0  0  0 
 27 29  2  0  0  0  0 
 22 29  1  0  0  0  0 
 29 30  1  0  0  0  0 
 24 31  1  0  0  0  0 
 31 32  1  0  0  0  0 
  5 33  1  0  0  0  0 
 33 34  1  0  0  0  0 
 34 35  1  0  0  0  0 
 34 36  1  0  0  0  0 
 34 37  1  0  0  0  0 
 33 38  1  0  0  0  0 
 38 39  1  0  0  0  0 
 38 40  1  0  0  0  0 
 38 41  1  0  0  0  0 
M  END
> <Rank>
8

> <Priority_score>
0.408

> <Reaction_type>
aromatic_hydroxylation_(ortho_to_nitrogen)

> <Parent_ID>
11

> <Parent_InChI>
InChI=1S/C17H20N2S/c1-13(18(2)3)12-19-14-8-4-6-10-16(14)20-17-11-7-5-9-15(17)19/h4-11,13H,12H2,1-3H3

> <Parent_SMILES>
CC(CN1c2ccccc2Sc2ccccc21)N(C)C

$$$$
Molecule 11_metabolite 9
  CDK     0516241031

 41 43  0  0  0  0  0  0  0  0999 V2000
   -2.7762    3.5305    0.0000 C   0  0  0  0  0  0  0  0  0  0  0  0
   -3.7404    2.3814    0.0000 H   0  0  0  0  0  0  0  0  0  0  0  0
   -4.0753    4.2805    0.0000 H   0  0  0  0  0  0  0  0  0  0  0  0
   -2.2632    4.9400    0.0000 H   0  0  0  0  0  0  0  0  0  0  0  0
   -1.2990    3.2700    0.0000 C   0  0  0  0  0  0  0  0  0  0  0  0
   -1.8121    1.8605    0.0000 H   0  0  0  0  0  0  0  0  0  0  0  0
   -0.0000    2.5200    0.0000 C   0  0  0  0  0  0  0  0  0  0  0  0
    1.4772    2.2595    0.0000 H   0  0  0  0  0  0  0  0  0  0  0  0
    0.5130    3.9295    0.0000 H   0  0  0  0  0  0  0  0  0  0  0  0
   -0.0000    1.0200    0.0000 N   0  0  0  0  0  0  0  0  0  0  0  0
   -1.3000    0.2700    0.0000 C   0  0  0  0  0  0  0  0  0  0  0  0
   -1.3000   -1.2300    0.0000 C   0  0  0  0  0  0  0  0  0  0  0  0
   -2.6000   -1.9800    0.0000 C   0  0  0  0  0  0  0  0  0  0  0  0
   -2.6000   -3.4800    0.0000 H   0  0  0  0  0  0  0  0  0  0  0  0
   -3.9000   -1.2300    0.0000 C   0  0  0  0  0  0  0  0  0  0  0  0
   -5.1989   -1.9802    0.0000 H   0  0  0  0  0  0  0  0  0  0  0  0
   -3.9000    0.2700    0.0000 C   0  0  0  0  0  0  0  0  0  0  0  0
   -5.1989    1.0202    0.0000 H   0  0  0  0  0  0  0  0  0  0  0  0
   -2.6000    1.0200    0.0000 C   0  0  0  0  0  0  0  0  0  0  0  0
   -2.6000    2.5200    0.0000 H   0  0  0  0  0  0  0  0  0  0  0  0
   -0.0000   -1.9800    0.0000 S   0  0  0  0  0  0  0  0  0  0  0  0
    1.3000   -1.2300    0.0000 C   0  0  0  0  0  0  0  0  0  0  0  0
    2.6000   -1.9800    0.0000 C   0  0  0  0  0  0  0  0  0  0  0  0
    2.6000   -3.4800    0.0000 H   0  0  0  0  0  0  0  0  0  0  0  0
    3.9000   -1.2300    0.0000 C   0  0  0  0  0  0  0  0  0  0  0  0
    3.9000    0.2700    0.0000 C   0  0  0  0  0  0  0  0  0  0  0  0
    5.1989    1.0202    0.0000 H   0  0  0  0  0  0  0  0  0  0  0  0
    2.6000    1.0200    0.0000 C   0  0  0  0  0  0  0  0  0  0  0  0
    2.6000    2.5200    0.0000 H   0  0  0  0  0  0  0  0  0  0  0  0
    1.3000    0.2700    0.0000 C   0  0  0  0  0  0  0  0  0  0  0  0
    5.1989   -1.9802    0.0000 O   0  0  0  0  0  0  0  0  0  0  0  0
    6.4981   -1.2304    0.0000 H   0  0  0  0  0  0  0  0  0  0  0  0
   -1.2990    5.2500    0.0000 N   0  0  0  0  0  0  0  0  0  0  0  0
   -2.5981    6.0000    0.0000 C   0  0  0  0  0  0  0  0  0  0  0  0
   -2.5981    7.5000    0.0000 H   0  0  0  0  0  0  0  0  0  0  0  0
   -4.0753    6.2605    0.0000 H   0  0  0  0  0  0  0  0  0  0  0  0
   -3.1111    4.5905    0.0000 H   0  0  0  0  0  0  0  0  0  0  0  0
    0.0000    6.0000    0.0000 C   0  0  0  0  0  0  0  0  0  0  0  0
    1.2990    5.2500    0.0000 H   0  0  0  0  0  0  0  0  0  0  0  0
   -0.9642    7.1491    0.0000 H   0  0  0  0  0  0  0  0  0  0  0  0
    0.9642    7.1491    0.0000 H   0  0  0  0  0  0  0  0  0  0  0  0
  1  2  1  0  0  0  0 
  1  3  1  0  0  0  0 
  1  4  1  0  0  0  0 
  1  5  1  0  0  0  0 
  5  6  1  0  0  0  0 
  5  7  1  0  0  0  0 
  7  8  1  0  0  0  0 
  7  9  1  0  0  0  0 
  7 10  1  0  0  0  0 
 10 11  1  0  0  0  0 
 11 12  2  0  0  0  0 
 12 13  1  0  0  0  0 
 13 14  1  0  0  0  0 
 13 15  2  0  0  0  0 
 15 16  1  0  0  0  0 
 15 17  1  0  0  0  0 
 17 18  1  0  0  0  0 
 17 19  2  0  0  0  0 
 11 19  1  0  0  0  0 
 19 20  1  0  0  0  0 
 12 21  1  0  0  0  0 
 21 22  1  0  0  0  0 
 22 23  2  0  0  0  0 
 23 24  1  0  0  0  0 
 23 25  1  0  0  0  0 
 25 26  2  0  0  0  0 
 26 27  1  0  0  0  0 
 26 28  1  0  0  0  0 
 28 29  1  0  0  0  0 
 28 30  2  0  0  0  0 
 22 30  1  0  0  0  0 
 10 30  1  0  0  0  0 
 25 31  1  0  0  0  0 
 31 32  1  0  0  0  0 
  5 33  1  0  0  0  0 
 33 34  1  0  0  0  0 
 34 35  1  0  0  0  0 
 34 36  1  0  0  0  0 
 34 37  1  0  0  0  0 
 33 38  1  0  0  0  0 
 38 39  1  0  0  0  0 
 38 40  1  0  0  0  0 
 38 41  1  0  0  0  0 
M  END
> <Rank>
8

> <Priority_score>
0.408

> <Reaction_type>
aromatic_hydroxylation_(para_to_nitrogen)

> <Parent_ID>
11

> <Parent_InChI>
InChI=1S/C17H20N2S/c1-13(18(2)3)12-19-14-8-4-6-10-16(14)20-17-11-7-5-9-15(17)19/h4-11,13H,12H2,1-3H3

> <Parent_SMILES>
CC(CN1c2ccccc2Sc2ccccc21)N(C)C

$$$$
Molecule 11_metabolite 10
  CDK     0516241031

 39 41  0  0  0  0  0  0  0  0999 V2000
   -2.7762    3.3305    0.0000 C   0  0  0  0  0  0  0  0  0  0  0  0
   -3.7404    2.1814    0.0000 H   0  0  0  0  0  0  0  0  0  0  0  0
   -4.0753    4.0805    0.0000 H   0  0  0  0  0  0  0  0  0  0  0  0
   -2.2632    4.7400    0.0000 H   0  0  0  0  0  0  0  0  0  0  0  0
   -1.2990    3.0700    0.0000 C   0  0  0  0  0  0  0  0  0  0  0  0
   -1.8121    1.6605    0.0000 H   0  0  0  0  0  0  0  0  0  0  0  0
   -0.0000    2.3200    0.0000 C   0  0  0  0  0  0  0  0  0  0  0  0
    1.4772    2.0595    0.0000 H   0  0  0  0  0  0  0  0  0  0  0  0
    0.5130    3.7295    0.0000 H   0  0  0  0  0  0  0  0  0  0  0  0
   -0.0000    0.8200    0.0000 N   0  0  0  0  0  0  0  0  0  0  0  0
    1.3000    0.0700    0.0000 C   0  0  0  0  0  0  0  0  0  0  0  0
    1.3000   -1.4300    0.0000 C   0  0  0  0  0  0  0  0  0  0  0  0
    2.6000   -2.1800    0.0000 C   0  0  0  0  0  0  0  0  0  0  0  0
    2.6000   -3.6800    0.0000 H   0  0  0  0  0  0  0  0  0  0  0  0
    3.9000   -1.4300    0.0000 C   0  0  0  0  0  0  0  0  0  0  0  0
    5.1989   -2.1802    0.0000 H   0  0  0  0  0  0  0  0  0  0  0  0
    3.9000    0.0700    0.0000 C   0  0  0  0  0  0  0  0  0  0  0  0
    5.1989    0.8202    0.0000 H   0  0  0  0  0  0  0  0  0  0  0  0
    2.6000    0.8200    0.0000 C   0  0  0  0  0  0  0  0  0  0  0  0
    2.6000    2.3200    0.0000 H   0  0  0  0  0  0  0  0  0  0  0  0
   -0.0000   -2.1800    0.0000 S   0  0  0  0  0  0  0  0  0  0  0  0
   -1.3000   -1.4300    0.0000 C   0  0  0  0  0  0  0  0  0  0  0  0
   -1.3000    0.0700    0.0000 C   0  0  0  0  0  0  0  0  0  0  0  0
   -2.6000    0.8200    0.0000 C   0  0  0  0  0  0  0  0  0  0  0  0
   -2.6000    2.3200    0.0000 H   0  0  0  0  0  0  0  0  0  0  0  0
   -3.9000    0.0700    0.0000 C   0  0  0  0  0  0  0  0  0  0  0  0
   -5.1989    0.8202    0.0000 H   0  0  0  0  0  0  0  0  0  0  0  0
   -3.9000   -1.4300    0.0000 C   0  0  0  0  0  0  0  0  0  0  0  0
   -5.1989   -2.1802    0.0000 H   0  0  0  0  0  0  0  0  0  0  0  0
   -2.6000   -2.1800    0.0000 C   0  0  0  0  0  0  0  0  0  0  0  0
   -2.6000   -3.6800    0.0000 H   0  0  0  0  0  0  0  0  0  0  0  0
   -1.2990    5.0500    0.0000 N   0  0  0  0  0  0  0  0  0  0  0  0
    0.0000    5.8000    0.0000 C   0  0  0  0  0  0  0  0  0  0  0  0
    0.0000    7.3000    0.0000 H   0  0  0  0  0  0  0  0  0  0  0  0
    1.2990    5.0500    0.0000 H   0  0  0  0  0  0  0  0  0  0  0  0
   -2.5981    5.8000    0.0000 C   0  0  0  0  0  0  0  0  0  0  0  0
   -2.5981    7.3000    0.0000 H   0  0  0  0  0  0  0  0  0  0  0  0
   -4.0753    6.0605    0.0000 H   0  0  0  0  0  0  0  0  0  0  0  0
   -3.1111    4.3905    0.0000 H   0  0  0  0  0  0  0  0  0  0  0  0
  1  2  1  0  0  0  0 
  1  3  1  0  0  0  0 
  1  4  1  0  0  0  0 
  1  5  1  0  0  0  0 
  5  6  1  0  0  0  0 
  5  7  1  0  0  0  0 
  7  8  1  0  0  0  0 
  7  9  1  0  0  0  0 
  7 10  1  0  0  0  0 
 10 11  1  0  0  0  0 
 11 12  2  0  0  0  0 
 12 13  1  0  0  0  0 
 13 14  1  0  0  0  0 
 13 15  2  0  0  0  0 
 15 16  1  0  0  0  0 
 15 17  1  0  0  0  0 
 17 18  1  0  0  0  0 
 17 19  2  0  0  0  0 
 11 19  1  0  0  0  0 
 19 20  1  0  0  0  0 
 12 21  1  0  0  0  0 
 21 22  1  0  0  0  0 
 22 23  2  0  0  0  0 
 10 23  1  0  0  0  0 
 23 24  1  0  0  0  0 
 24 25  1  0  0  0  0 
 24 26  2  0  0  0  0 
 26 27  1  0  0  0  0 
 26 28  1  0  0  0  0 
 28 29  1  0  0  0  0 
 28 30  2  0  0  0  0 
 22 30  1  0  0  0  0 
 30 31  1  0  0  0  0 
  5 32  1  0  0  0  0 
 32 33  2  0  0  0  0 
 33 34  1  0  0  0  0 
 33 35  1  0  0  0  0 
 32 36  1  0  0  0  0 
 36 37  1  0  0  0  0 
 36 38  1  0  0  0  0 
 36 39  1  0  0  0  0 
M  CHG  1  32   1
M  END
> <Rank>
10

> <Priority_score>
0.17818265452803067

> <Reaction_type>
dehydration of N-C bond

> <Parent_ID>
11

> <Parent_InChI>
InChI=1S/C17H20N2S/c1-13(18(2)3)12-19-14-8-4-6-10-16(14)20-17-11-7-5-9-15(17)19/h4-11,13H,12H2,1-3H3

> <Parent_SMILES>
CC(CN1c2ccccc2Sc2ccccc21)N(C)C

$$$$
Molecule 11_metabolite 11
  CDK     0516241031

 39 41  0  0  0  0  0  0  0  0999 V2000
   -2.7622    3.3089    0.0000 C   0  0  0  0  0  0  0  0  0  0  0  0
   -4.0613    4.0589    0.0000 H   0  0  0  0  0  0  0  0  0  0  0  0
   -3.7264    2.1599    0.0000 H   0  0  0  0  0  0  0  0  0  0  0  0
   -1.7981    2.1599    0.0000 H   0  0  0  0  0  0  0  0  0  0  0  0
   -1.0475    4.2989    0.0000 C   0  0  0  0  0  0  0  0  0  0  0  0
   -1.0475    5.7989    0.0000 N   0  0  0  0  0  0  0  0  0  0  0  0
   -2.3466    6.5489    0.0000 C   0  0  0  0  0  0  0  0  0  0  0  0
   -2.3466    8.0489    0.0000 H   0  0  0  0  0  0  0  0  0  0  0  0
   -3.8238    6.8094    0.0000 H   0  0  0  0  0  0  0  0  0  0  0  0
   -2.8596    5.1394    0.0000 H   0  0  0  0  0  0  0  0  0  0  0  0
    0.2515    6.5489    0.0000 C   0  0  0  0  0  0  0  0  0  0  0  0
    1.5506    5.7989    0.0000 H   0  0  0  0  0  0  0  0  0  0  0  0
   -0.7127    7.6980    0.0000 H   0  0  0  0  0  0  0  0  0  0  0  0
    1.2157    7.6980    0.0000 H   0  0  0  0  0  0  0  0  0  0  0  0
    0.2515    3.5489    0.0000 C   0  0  0  0  0  0  0  0  0  0  0  0
    1.7287    3.2885    0.0000 H   0  0  0  0  0  0  0  0  0  0  0  0
    0.7646    4.9585    0.0000 H   0  0  0  0  0  0  0  0  0  0  0  0
    0.2515    1.0889    0.0000 N   0  0  0  0  0  0  0  0  0  0  0  0
    1.5515    0.3389    0.0000 C   0  0  0  0  0  0  0  0  0  0  0  0
    1.5515   -1.1611    0.0000 C   0  0  0  0  0  0  0  0  0  0  0  0
    2.8515   -1.9111    0.0000 C   0  0  0  0  0  0  0  0  0  0  0  0
    2.8515   -3.4111    0.0000 H   0  0  0  0  0  0  0  0  0  0  0  0
    4.1515   -1.1611    0.0000 C   0  0  0  0  0  0  0  0  0  0  0  0
    5.4504   -1.9113    0.0000 H   0  0  0  0  0  0  0  0  0  0  0  0
    4.1515    0.3389    0.0000 C   0  0  0  0  0  0  0  0  0  0  0  0
    5.4504    1.0892    0.0000 H   0  0  0  0  0  0  0  0  0  0  0  0
    2.8515    1.0889    0.0000 C   0  0  0  0  0  0  0  0  0  0  0  0
    2.8515    2.5889    0.0000 H   0  0  0  0  0  0  0  0  0  0  0  0
    0.2515   -1.9111    0.0000 S   0  0  0  0  0  0  0  0  0  0  0  0
   -1.0485   -1.1611    0.0000 C   0  0  0  0  0  0  0  0  0  0  0  0
   -1.0485    0.3389    0.0000 C   0  0  0  0  0  0  0  0  0  0  0  0
   -2.3485    1.0889    0.0000 C   0  0  0  0  0  0  0  0  0  0  0  0
   -0.8317    2.3617    0.0000 H   0  0  0  0  0  0  0  0  0  0  0  0
   -3.6485    0.3389    0.0000 C   0  0  0  0  0  0  0  0  0  0  0  0
   -4.9474    1.0892    0.0000 H   0  0  0  0  0  0  0  0  0  0  0  0
   -3.6485   -1.1611    0.0000 C   0  0  0  0  0  0  0  0  0  0  0  0
   -4.9474   -1.9113    0.0000 H   0  0  0  0  0  0  0  0  0  0  0  0
   -2.3485   -1.9111    0.0000 C   0  0  0  0  0  0  0  0  0  0  0  0
   -2.3485   -3.4111    0.0000 H   0  0  0  0  0  0  0  0  0  0  0  0
  1  2  1  0  0  0  0 
  1  3  1  0  0  0  0 
  1  4  1  0  0  0  0 
  1  5  1  0  0  0  0 
  5  6  2  0  0  0  0 
  6  7  1  0  0  0  0 
  7  8  1  0  0  0  0 
  7  9  1  0  0  0  0 
  7 10  1  0  0  0  0 
  6 11  1  0  0  0  0 
 11 12  1  0  0  0  0 
 11 13  1  0  0  0  0 
 11 14  1  0  0  0  0 
  5 15  1  0  0  0  0 
 15 16  1  0  0  0  0 
 15 17  1  0  0  0  0 
 15 18  1  0  0  0  0 
 18 19  1  0  0  0  0 
 19 20  2  0  0  0  0 
 20 21  1  0  0  0  0 
 21 22  1  0  0  0  0 
 21 23  2  0  0  0  0 
 23 24  1  0  0  0  0 
 23 25  1  0  0  0  0 
 25 26  1  0  0  0  0 
 25 27  2  0  0  0  0 
 19 27  1  0  0  0  0 
 27 28  1  0  0  0  0 
 20 29  1  0  0  0  0 
 29 30  1  0  0  0  0 
 30 31  2  0  0  0  0 
 18 31  1  0  0  0  0 
 31 32  1  0  0  0  0 
 32 33  1  0  0  0  0 
 32 34  2  0  0  0  0 
 34 35  1  0  0  0  0 
 34 36  1  0  0  0  0 
 36 37  1  0  0  0  0 
 36 38  2  0  0  0  0 
 30 38  1  0  0  0  0 
 38 39  1  0  0  0  0 
M  CHG  1   6   1
M  END
> <Rank>
11

> <Priority_score>
0.1487115272088941

> <Reaction_type>
dehydration of N-C bond

> <Parent_ID>
11

> <Parent_InChI>
InChI=1S/C17H20N2S/c1-13(18(2)3)12-19-14-8-4-6-10-16(14)20-17-11-7-5-9-15(17)19/h4-11,13H,12H2,1-3H3

> <Parent_SMILES>
CC(CN1c2ccccc2Sc2ccccc21)N(C)C

$$$$
Molecule 11_metabolite 12
  CDK     0516241031

 18 17  0  0  0  0  0  0  0  0999 V2000
    2.0304   -2.3377    0.0000 C   0  0  0  0  0  0  0  0  0  0  0  0
    0.7314   -3.0877    0.0000 H   0  0  0  0  0  0  0  0  0  0  0  0
    2.5435   -3.7473    0.0000 H   0  0  0  0  0  0  0  0  0  0  0  0
    3.5076   -2.0773    0.0000 H   0  0  0  0  0  0  0  0  0  0  0  0
    2.0304   -0.8377    0.0000 C   0  0  0  0  0  0  0  0  0  0  0  0
    1.5174    0.5718    0.0000 H   0  0  0  0  0  0  0  0  0  0  0  0
    0.5532   -1.0982    0.0000 C   0  0  0  0  0  0  0  0  0  0  0  0
   -0.4110    0.0509    0.0000 H   0  0  0  0  0  0  0  0  0  0  0  0
    0.0402   -2.5077    0.0000 O   0  0  0  0  0  0  0  0  0  0  0  0
    3.7452    0.1523    0.0000 N   0  0  0  0  0  0  0  0  0  0  0  0
    3.7452    1.6523    0.0000 C   0  0  0  0  0  0  0  0  0  0  0  0
    5.0442    2.4023    0.0000 H   0  0  0  0  0  0  0  0  0  0  0  0
    3.2321    3.0618    0.0000 H   0  0  0  0  0  0  0  0  0  0  0  0
    2.2679    1.3918    0.0000 H   0  0  0  0  0  0  0  0  0  0  0  0
    5.0442   -0.5977    0.0000 C   0  0  0  0  0  0  0  0  0  0  0  0
    5.0442   -2.0977    0.0000 H   0  0  0  0  0  0  0  0  0  0  0  0
    5.5572    0.8118    0.0000 H   0  0  0  0  0  0  0  0  0  0  0  0
    6.5214   -0.8582    0.0000 H   0  0  0  0  0  0  0  0  0  0  0  0
  1  2  1  0  0  0  0 
  1  3  1  0  0  0  0 
  1  4  1  0  0  0  0 
  1  5  1  0  0  0  0 
  5  6  1  0  0  0  0 
  5  7  1  0  0  0  0 
  7  8  1  0  0  0  0 
  7  9  2  0  0  0  0 
  5 10  1  0  0  0  0 
 10 11  1  0  0  0  0 
 11 12  1  0  0  0  0 
 11 13  1  0  0  0  0 
 11 14  1  0  0  0  0 
 10 15  1  0  0  0  0 
 15 16  1  0  0  0  0 
 15 17  1  0  0  0  0 
 15 18  1  0  0  0  0 
M  END
> <Rank>
12

> <Priority_score>
0.136

> <Reaction_type>
N-dealkylation

> <Parent_ID>
11

> <Parent_InChI>
InChI=1S/C17H20N2S/c1-13(18(2)3)12-19-14-8-4-6-10-16(14)20-17-11-7-5-9-15(17)19/h4-11,13H,12H2,1-3H3

> <Parent_SMILES>
CC(CN1c2ccccc2Sc2ccccc21)N(C)C

$$$$
Molecule 11_metabolite 13
  CDK     0516241031

 23 25  0  0  0  0  0  0  0  0999 V2000
   -3.9000    0.7500    0.0000 C   0  0  0  0  0  0  0  0  0  0  0  0
   -5.1989    1.5002    0.0000 H   0  0  0  0  0  0  0  0  0  0  0  0
   -2.6000    1.5000    0.0000 C   0  0  0  0  0  0  0  0  0  0  0  0
   -2.6000    3.0000    0.0000 H   0  0  0  0  0  0  0  0  0  0  0  0
   -1.3000    0.7500    0.0000 C   0  0  0  0  0  0  0  0  0  0  0  0
   -1.3000   -0.7500    0.0000 C   0  0  0  0  0  0  0  0  0  0  0  0
   -2.6000   -1.5000    0.0000 C   0  0  0  0  0  0  0  0  0  0  0  0
   -2.6000   -3.0000    0.0000 H   0  0  0  0  0  0  0  0  0  0  0  0
   -3.9000   -0.7500    0.0000 C   0  0  0  0  0  0  0  0  0  0  0  0
   -5.1989   -1.5002    0.0000 H   0  0  0  0  0  0  0  0  0  0  0  0
   -0.0000   -1.5000    0.0000 S   0  0  0  0  0  0  0  0  0  0  0  0
    1.3000   -0.7500    0.0000 C   0  0  0  0  0  0  0  0  0  0  0  0
    1.3000    0.7500    0.0000 C   0  0  0  0  0  0  0  0  0  0  0  0
    2.6000    1.5000    0.0000 C   0  0  0  0  0  0  0  0  0  0  0  0
    2.6000    3.0000    0.0000 H   0  0  0  0  0  0  0  0  0  0  0  0
    3.9000    0.7500    0.0000 C   0  0  0  0  0  0  0  0  0  0  0  0
    5.1989    1.5002    0.0000 H   0  0  0  0  0  0  0  0  0  0  0  0
    3.9000   -0.7500    0.0000 C   0  0  0  0  0  0  0  0  0  0  0  0
    5.1989   -1.5002    0.0000 H   0  0  0  0  0  0  0  0  0  0  0  0
    2.6000   -1.5000    0.0000 C   0  0  0  0  0  0  0  0  0  0  0  0
    2.6000   -3.0000    0.0000 H   0  0  0  0  0  0  0  0  0  0  0  0
   -0.0000    1.5000    0.0000 N   0  0  0  0  0  0  0  0  0  0  0  0
    0.0000    3.0000    0.0000 H   0  0  0  0  0  0  0  0  0  0  0  0
  1  2  1  0  0  0  0 
  1  3  2  0  0  0  0 
  3  4  1  0  0  0  0 
  3  5  1  0  0  0  0 
  5  6  2  0  0  0  0 
  6  7  1  0  0  0  0 
  7  8  1  0  0  0  0 
  7  9  2  0  0  0  0 
  1  9  1  0  0  0  0 
  9 10  1  0  0  0  0 
  6 11  1  0  0  0  0 
 11 12  1  0  0  0  0 
 12 13  2  0  0  0  0 
 13 14  1  0  0  0  0 
 14 15  1  0  0  0  0 
 14 16  2  0  0  0  0 
 16 17  1  0  0  0  0 
 16 18  1  0  0  0  0 
 18 19  1  0  0  0  0 
 18 20  2  0  0  0  0 
 12 20  1  0  0  0  0 
 20 21  1  0  0  0  0 
 13 22  1  0  0  0  0 
  5 22  1  0  0  0  0 
 22 23  1  0  0  0  0 
M  END
> <Rank>
12

> <Priority_score>
0.136

> <Reaction_type>
N-dealkylation_(tertiaryN-CH2-alkyl)

> <Parent_ID>
11

> <Parent_InChI>
InChI=1S/C17H20N2S/c1-13(18(2)3)12-19-14-8-4-6-10-16(14)20-17-11-7-5-9-15(17)19/h4-11,13H,12H2,1-3H3

> <Parent_SMILES>
CC(CN1c2ccccc2Sc2ccccc21)N(C)C

$$$$
Molecule 11_metabolite 14
  CDK     0516241031

 41 43  0  0  0  0  0  0  0  0999 V2000
   -2.7762    3.3305    0.0000 C   0  0  0  0  0  0  0  0  0  0  0  0
   -3.7404    2.1814    0.0000 H   0  0  0  0  0  0  0  0  0  0  0  0
   -4.0753    4.0805    0.0000 H   0  0  0  0  0  0  0  0  0  0  0  0
   -2.2632    4.7400    0.0000 H   0  0  0  0  0  0  0  0  0  0  0  0
   -1.2990    3.0700    0.0000 C   0  0  0  0  0  0  0  0  0  0  0  0
   -1.8121    1.6605    0.0000 H   0  0  0  0  0  0  0  0  0  0  0  0
   -0.0000    2.3200    0.0000 C   0  0  0  0  0  0  0  0  0  0  0  0
    1.4772    2.0595    0.0000 H   0  0  0  0  0  0  0  0  0  0  0  0
   -0.0000    0.8200    0.0000 N   0  0  0  0  0  0  0  0  0  0  0  0
    1.3000    0.0700    0.0000 C   0  0  0  0  0  0  0  0  0  0  0  0
    1.3000   -1.4300    0.0000 C   0  0  0  0  0  0  0  0  0  0  0  0
    2.6000   -2.1800    0.0000 C   0  0  0  0  0  0  0  0  0  0  0  0
    2.6000   -3.6800    0.0000 H   0  0  0  0  0  0  0  0  0  0  0  0
    3.9000   -1.4300    0.0000 C   0  0  0  0  0  0  0  0  0  0  0  0
    5.1989   -2.1802    0.0000 H   0  0  0  0  0  0  0  0  0  0  0  0
    3.9000    0.0700    0.0000 C   0  0  0  0  0  0  0  0  0  0  0  0
    5.1989    0.8202    0.0000 H   0  0  0  0  0  0  0  0  0  0  0  0
    2.6000    0.8200    0.0000 C   0  0  0  0  0  0  0  0  0  0  0  0
    2.6000    2.3200    0.0000 H   0  0  0  0  0  0  0  0  0  0  0  0
   -0.0000   -2.1800    0.0000 S   0  0  0  0  0  0  0  0  0  0  0  0
   -1.3000   -1.4300    0.0000 C   0  0  0  0  0  0  0  0  0  0  0  0
   -1.3000    0.0700    0.0000 C   0  0  0  0  0  0  0  0  0  0  0  0
   -2.6000    0.8200    0.0000 C   0  0  0  0  0  0  0  0  0  0  0  0
   -2.6000    2.3200    0.0000 H   0  0  0  0  0  0  0  0  0  0  0  0
   -3.9000    0.0700    0.0000 C   0  0  0  0  0  0  0  0  0  0  0  0
   -5.1989    0.8202    0.0000 H   0  0  0  0  0  0  0  0  0  0  0  0
   -3.9000   -1.4300    0.0000 C   0  0  0  0  0  0  0  0  0  0  0  0
   -5.1989   -2.1802    0.0000 H   0  0  0  0  0  0  0  0  0  0  0  0
   -2.6000   -2.1800    0.0000 C   0  0  0  0  0  0  0  0  0  0  0  0
   -2.6000   -3.6800    0.0000 H   0  0  0  0  0  0  0  0  0  0  0  0
    0.5130    3.7295    0.0000 O   0  0  0  0  0  0  0  0  0  0  0  0
    1.9902    3.9900    0.0000 H   0  0  0  0  0  0  0  0  0  0  0  0
   -1.2990    5.0500    0.0000 N   0  0  0  0  0  0  0  0  0  0  0  0
   -2.5981    5.8000    0.0000 C   0  0  0  0  0  0  0  0  0  0  0  0
   -2.5981    7.3000    0.0000 H   0  0  0  0  0  0  0  0  0  0  0  0
   -4.0753    6.0605    0.0000 H   0  0  0  0  0  0  0  0  0  0  0  0
   -3.1111    4.3905    0.0000 H   0  0  0  0  0  0  0  0  0  0  0  0
    0.0000    5.8000    0.0000 C   0  0  0  0  0  0  0  0  0  0  0  0
    1.2990    5.0500    0.0000 H   0  0  0  0  0  0  0  0  0  0  0  0
   -0.9642    6.9491    0.0000 H   0  0  0  0  0  0  0  0  0  0  0  0
    0.9642    6.9491    0.0000 H   0  0  0  0  0  0  0  0  0  0  0  0
  1  2  1  0  0  0  0 
  1  3  1  0  0  0  0 
  1  4  1  0  0  0  0 
  1  5  1  0  0  0  0 
  5  6  1  0  0  0  0 
  5  7  1  0  0  0  0 
  7  8  1  0  0  0  0 
  7  9  1  0  0  0  0 
  9 10  1  0  0  0  0 
 10 11  2  0  0  0  0 
 11 12  1  0  0  0  0 
 12 13  1  0  0  0  0 
 12 14  2  0  0  0  0 
 14 15  1  0  0  0  0 
 14 16  1  0  0  0  0 
 16 17  1  0  0  0  0 
 16 18  2  0  0  0  0 
 10 18  1  0  0  0  0 
 18 19  1  0  0  0  0 
 11 20  1  0  0  0  0 
 20 21  1  0  0  0  0 
 21 22  2  0  0  0  0 
  9 22  1  0  0  0  0 
 22 23  1  0  0  0  0 
 23 24  1  0  0  0  0 
 23 25  2  0  0  0  0 
 25 26  1  0  0  0  0 
 25 27  1  0  0  0  0 
 27 28  1  0  0  0  0 
 27 29  2  0  0  0  0 
 21 29  1  0  0  0  0 
 29 30  1  0  0  0  0 
  7 31  1  0  0  0  0 
 31 32  1  0  0  0  0 
  5 33  1  0  0  0  0 
 33 34  1  0  0  0  0 
 34 35  1  0  0  0  0 
 34 36  1  0  0  0  0 
 34 37  1  0  0  0  0 
 33 38  1  0  0  0  0 
 38 39  1  0  0  0  0 
 38 40  1  0  0  0  0 
 38 41  1  0  0  0  0 
M  END
> <Rank>
12

> <Priority_score>
0.136

> <Reaction_type>
aliphatic hydroxylation

> <Parent_ID>
11

> <Parent_InChI>
InChI=1S/C17H20N2S/c1-13(18(2)3)12-19-14-8-4-6-10-16(14)20-17-11-7-5-9-15(17)19/h4-11,13H,12H2,1-3H3

> <Parent_SMILES>
CC(CN1c2ccccc2Sc2ccccc21)N(C)C

$$$$
Molecule 11_metabolite 15
  CDK     0516241031

 41 43  0  0  0  0  0  0  0  0999 V2000
   -0.9861    5.2909    0.0000 C   0  0  0  0  0  0  0  0  0  0  0  0
   -0.4733    6.7005    0.0000 H   0  0  0  0  0  0  0  0  0  0  0  0
   -2.2853    6.0408    0.0000 H   0  0  0  0  0  0  0  0  0  0  0  0
   -1.9502    4.1417    0.0000 H   0  0  0  0  0  0  0  0  0  0  0  0
   -0.0218    4.1420    0.0000 C   0  0  0  0  0  0  0  0  0  0  0  0
   -1.3208    3.3918    0.0000 H   0  0  0  0  0  0  0  0  0  0  0  0
    0.6556    2.2814    0.0000 C   0  0  0  0  0  0  0  0  0  0  0  0
    0.9162    0.8043    0.0000 H   0  0  0  0  0  0  0  0  0  0  0  0
    1.9545    3.0316    0.0000 H   0  0  0  0  0  0  0  0  0  0  0  0
   -0.9255    0.3968    0.0000 N   0  0  0  0  0  0  0  0  0  0  0  0
   -2.2255   -0.3532    0.0000 C   0  0  0  0  0  0  0  0  0  0  0  0
   -2.2255   -1.8532    0.0000 C   0  0  0  0  0  0  0  0  0  0  0  0
   -3.5255   -2.6032    0.0000 C   0  0  0  0  0  0  0  0  0  0  0  0
   -3.5255   -4.1032    0.0000 H   0  0  0  0  0  0  0  0  0  0  0  0
   -4.8255   -1.8532    0.0000 C   0  0  0  0  0  0  0  0  0  0  0  0
   -6.1244   -2.6034    0.0000 H   0  0  0  0  0  0  0  0  0  0  0  0
   -4.8255   -0.3532    0.0000 C   0  0  0  0  0  0  0  0  0  0  0  0
   -6.1244    0.3970    0.0000 H   0  0  0  0  0  0  0  0  0  0  0  0
   -3.5255    0.3968    0.0000 C   0  0  0  0  0  0  0  0  0  0  0  0
   -3.5255    1.8968    0.0000 H   0  0  0  0  0  0  0  0  0  0  0  0
   -0.9255   -2.6032    0.0000 S   0  0  0  0  0  0  0  0  0  0  0  0
    0.3745   -1.8532    0.0000 C   0  0  0  0  0  0  0  0  0  0  0  0
    0.3745   -0.3532    0.0000 C   0  0  0  0  0  0  0  0  0  0  0  0
    1.6745    0.3968    0.0000 C   0  0  0  0  0  0  0  0  0  0  0  0
    2.1875    1.8063    0.0000 H   0  0  0  0  0  0  0  0  0  0  0  0
    2.9745   -0.3532    0.0000 C   0  0  0  0  0  0  0  0  0  0  0  0
    4.2734    0.3970    0.0000 H   0  0  0  0  0  0  0  0  0  0  0  0
    2.9745   -1.8532    0.0000 C   0  0  0  0  0  0  0  0  0  0  0  0
    4.2734   -2.6034    0.0000 H   0  0  0  0  0  0  0  0  0  0  0  0
    1.6745   -2.6032    0.0000 C   0  0  0  0  0  0  0  0  0  0  0  0
    1.6745   -4.1032    0.0000 H   0  0  0  0  0  0  0  0  0  0  0  0
   -1.8896    1.5460    0.0000 O   0  0  0  0  0  0  0  0  0  0  0  0
    0.9422    5.2911    0.0000 N   0  0  0  0  0  0  0  0  0  0  0  0
    0.2648    7.1516    0.0000 C   0  0  0  0  0  0  0  0  0  0  0  0
   -1.2124    7.4120    0.0000 H   0  0  0  0  0  0  0  0  0  0  0  0
    0.2647    8.6516    0.0000 H   0  0  0  0  0  0  0  0  0  0  0  0
    1.7420    7.4123    0.0000 H   0  0  0  0  0  0  0  0  0  0  0  0
    2.8922    4.9475    0.0000 C   0  0  0  0  0  0  0  0  0  0  0  0
    3.4054    3.5380    0.0000 H   0  0  0  0  0  0  0  0  0  0  0  0
    2.8920    6.4475    0.0000 H   0  0  0  0  0  0  0  0  0  0  0  0
    4.3694    5.2081    0.0000 H   0  0  0  0  0  0  0  0  0  0  0  0
  1  2  1  0  0  0  0 
  1  3  1  0  0  0  0 
  1  4  1  0  0  0  0 
  1  5  1  0  0  0  0 
  5  6  1  0  0  0  0 
  5  7  1  0  0  0  0 
  7  8  1  0  0  0  0 
  7  9  1  0  0  0  0 
  7 10  1  0  0  0  0 
 10 11  1  0  0  0  0 
 11 12  2  0  0  0  0 
 12 13  1  0  0  0  0 
 13 14  1  0  0  0  0 
 13 15  2  0  0  0  0 
 15 16  1  0  0  0  0 
 15 17  1  0  0  0  0 
 17 18  1  0  0  0  0 
 17 19  2  0  0  0  0 
 11 19  1  0  0  0  0 
 19 20  1  0  0  0  0 
 12 21  1  0  0  0  0 
 21 22  1  0  0  0  0 
 22 23  2  0  0  0  0 
 10 23  1  0  0  0  0 
 23 24  1  0  0  0  0 
 24 25  1  0  0  0  0 
 24 26  2  0  0  0  0 
 26 27  1  0  0  0  0 
 26 28  1  0  0  0  0 
 28 29  1  0  0  0  0 
 28 30  2  0  0  0  0 
 22 30  1  0  0  0  0 
 30 31  1  0  0  0  0 
 10 32  1  0  0  0  0 
  5 33  1  0  0  0  0 
 33 34  1  0  0  0  0 
 34 35  1  0  0  0  0 
 34 36  1  0  0  0  0 
 34 37  1  0  0  0  0 
 33 38  1  0  0  0  0 
 38 39  1  0  0  0  0 
 38 40  1  0  0  0  0 
 38 41  1  0  0  0  0 
M  CHG  1  10   1
M  CHG  1  32  -1
M  END
> <Rank>
12

> <Priority_score>
0.136

> <Reaction_type>
N-oxidation

> <Parent_ID>
11

> <Parent_InChI>
InChI=1S/C17H20N2S/c1-13(18(2)3)12-19-14-8-4-6-10-16(14)20-17-11-7-5-9-15(17)19/h4-11,13H,12H2,1-3H3

> <Parent_SMILES>
CC(CN1c2ccccc2Sc2ccccc21)N(C)C

$$$$
Molecule 11_metabolite 16
  CDK     0516241031

 20 19  0  0  0  0  0  0  0  0999 V2000
    2.9329   -2.3791    0.0000 C   0  0  0  0  0  0  0  0  0  0  0  0
    1.4557   -2.1186    0.0000 H   0  0  0  0  0  0  0  0  0  0  0  0
    4.2320   -3.1291    0.0000 H   0  0  0  0  0  0  0  0  0  0  0  0
    2.4199   -3.7886    0.0000 H   0  0  0  0  0  0  0  0  0  0  0  0
    3.8971   -1.2300    0.0000 C   0  0  0  0  0  0  0  0  0  0  0  0
    4.8613   -2.3791    0.0000 H   0  0  0  0  0  0  0  0  0  0  0  0
    2.5981   -0.4800    0.0000 C   0  0  0  0  0  0  0  0  0  0  0  0
    3.5623    0.6691    0.0000 H   0  0  0  0  0  0  0  0  0  0  0  0
    1.6339    0.6691    0.0000 H   0  0  0  0  0  0  0  0  0  0  0  0
    1.2990   -1.2300    0.0000 O   0  0  0  0  0  0  0  0  0  0  0  0
   -0.0000   -0.4800    0.0000 H   0  0  0  0  0  0  0  0  0  0  0  0
    5.1962   -0.4800    0.0000 N   0  0  0  0  0  0  0  0  0  0  0  0
    6.4952   -1.2300    0.0000 C   0  0  0  0  0  0  0  0  0  0  0  0
    6.4952   -2.7300    0.0000 H   0  0  0  0  0  0  0  0  0  0  0  0
    7.0082    0.1795    0.0000 H   0  0  0  0  0  0  0  0  0  0  0  0
    7.9724   -1.4905    0.0000 H   0  0  0  0  0  0  0  0  0  0  0  0
    5.1962    1.5000    0.0000 C   0  0  0  0  0  0  0  0  0  0  0  0
    3.8971    2.2500    0.0000 H   0  0  0  0  0  0  0  0  0  0  0  0
    5.7092    2.9095    0.0000 H   0  0  0  0  0  0  0  0  0  0  0  0
    6.6734    1.2395    0.0000 H   0  0  0  0  0  0  0  0  0  0  0  0
  1  2  1  0  0  0  0 
  1  3  1  0  0  0  0 
  1  4  1  0  0  0  0 
  1  5  1  0  0  0  0 
  5  6  1  0  0  0  0 
  5  7  1  0  0  0  0 
  7  8  1  0  0  0  0 
  7  9  1  0  0  0  0 
  7 10  1  0  0  0  0 
 10 11  1  0  0  0  0 
  5 12  1  0  0  0  0 
 12 13  1  0  0  0  0 
 13 14  1  0  0  0  0 
 13 15  1  0  0  0  0 
 13 16  1  0  0  0  0 
 12 17  1  0  0  0  0 
 17 18  1  0  0  0  0 
 17 19  1  0  0  0  0 
 17 20  1  0  0  0  0 
M  END
> <Rank>
12

> <Priority_score>
0.136

> <Reaction_type>
N-dealkylation_(tertiaryN-CH2-alkyl)

> <Parent_ID>
11

> <Parent_InChI>
InChI=1S/C17H20N2S/c1-13(18(2)3)12-19-14-8-4-6-10-16(14)20-17-11-7-5-9-15(17)19/h4-11,13H,12H2,1-3H3

> <Parent_SMILES>
CC(CN1c2ccccc2Sc2ccccc21)N(C)C

$$$$
Molecule 11_metabolite 17
  CDK     0516241031

 41 43  0  0  0  0  0  0  0  0999 V2000
   -1.5956    6.7701    0.0000 C   0  0  0  0  0  0  0  0  0  0  0  0
   -2.8947    6.0201    0.0000 H   0  0  0  0  0  0  0  0  0  0  0  0
   -2.5598    7.9191    0.0000 H   0  0  0  0  0  0  0  0  0  0  0  0
   -0.6315    7.9191    0.0000 H   0  0  0  0  0  0  0  0  0  0  0  0
   -0.2966    6.0201    0.0000 N   0  0  0  0  0  0  0  0  0  0  0  0
    1.4181    7.0101    0.0000 C   0  0  0  0  0  0  0  0  0  0  0  0
    2.7172    6.2601    0.0000 H   0  0  0  0  0  0  0  0  0  0  0  0
    0.4539    8.1591    0.0000 H   0  0  0  0  0  0  0  0  0  0  0  0
    2.3823    8.1591    0.0000 H   0  0  0  0  0  0  0  0  0  0  0  0
   -0.2966    4.5201    0.0000 C   0  0  0  0  0  0  0  0  0  0  0  0
   -1.7738    4.7805    0.0000 H   0  0  0  0  0  0  0  0  0  0  0  0
    1.0024    3.7701    0.0000 C   0  0  0  0  0  0  0  0  0  0  0  0
    2.4796    3.5096    0.0000 H   0  0  0  0  0  0  0  0  0  0  0  0
    1.5155    5.1796    0.0000 H   0  0  0  0  0  0  0  0  0  0  0  0
    1.0024    1.3101    0.0000 N   0  0  0  0  0  0  0  0  0  0  0  0
    2.3024    0.5601    0.0000 C   0  0  0  0  0  0  0  0  0  0  0  0
    2.3024   -0.9399    0.0000 C   0  0  0  0  0  0  0  0  0  0  0  0
    3.6024   -1.6899    0.0000 C   0  0  0  0  0  0  0  0  0  0  0  0
    3.6024   -3.1899    0.0000 H   0  0  0  0  0  0  0  0  0  0  0  0
    4.9024   -0.9399    0.0000 C   0  0  0  0  0  0  0  0  0  0  0  0
    6.2013   -1.6902    0.0000 H   0  0  0  0  0  0  0  0  0  0  0  0
    4.9024    0.5601    0.0000 C   0  0  0  0  0  0  0  0  0  0  0  0
    6.2013    1.3103    0.0000 H   0  0  0  0  0  0  0  0  0  0  0  0
    3.6024    1.3101    0.0000 C   0  0  0  0  0  0  0  0  0  0  0  0
    3.6024    2.8101    0.0000 H   0  0  0  0  0  0  0  0  0  0  0  0
    1.0024   -1.6899    0.0000 S   0  0  0  0  0  0  0  0  0  0  0  0
   -0.2976   -0.9399    0.0000 C   0  0  0  0  0  0  0  0  0  0  0  0
   -0.2976    0.5601    0.0000 C   0  0  0  0  0  0  0  0  0  0  0  0
   -1.5976    1.3101    0.0000 C   0  0  0  0  0  0  0  0  0  0  0  0
   -1.5976    2.8101    0.0000 H   0  0  0  0  0  0  0  0  0  0  0  0
   -2.8976    0.5601    0.0000 C   0  0  0  0  0  0  0  0  0  0  0  0
   -4.1965    1.3103    0.0000 H   0  0  0  0  0  0  0  0  0  0  0  0
   -2.8976   -0.9399    0.0000 C   0  0  0  0  0  0  0  0  0  0  0  0
   -4.1965   -1.6902    0.0000 H   0  0  0  0  0  0  0  0  0  0  0  0
   -1.5976   -1.6899    0.0000 C   0  0  0  0  0  0  0  0  0  0  0  0
   -1.5976   -3.1899    0.0000 H   0  0  0  0  0  0  0  0  0  0  0  0
   -0.8096    3.1105    0.0000 C   0  0  0  0  0  0  0  0  0  0  0  0
   -0.8096    1.6105    0.0000 H   0  0  0  0  0  0  0  0  0  0  0  0
    0.6676    2.8500    0.0000 H   0  0  0  0  0  0  0  0  0  0  0  0
   -3.7050    2.6000    0.0000 O   0  0  0  0  0  0  0  0  0  0  0  0
   -4.6692    3.7491    0.0000 H   0  0  0  0  0  0  0  0  0  0  0  0
  1  2  1  0  0  0  0 
  1  3  1  0  0  0  0 
  1  4  1  0  0  0  0 
  1  5  1  0  0  0  0 
  5  6  1  0  0  0  0 
  6  7  1  0  0  0  0 
  6  8  1  0  0  0  0 
  6  9  1  0  0  0  0 
  5 10  1  0  0  0  0 
 10 11  1  0  0  0  0 
 10 12  1  0  0  0  0 
 12 13  1  0  0  0  0 
 12 14  1  0  0  0  0 
 12 15  1  0  0  0  0 
 15 16  1  0  0  0  0 
 16 17  2  0  0  0  0 
 17 18  1  0  0  0  0 
 18 19  1  0  0  0  0 
 18 20  2  0  0  0  0 
 20 21  1  0  0  0  0 
 20 22  1  0  0  0  0 
 22 23  1  0  0  0  0 
 22 24  2  0  0  0  0 
 16 24  1  0  0  0  0 
 24 25  1  0  0  0  0 
 17 26  1  0  0  0  0 
 26 27  1  0  0  0  0 
 27 28  2  0  0  0  0 
 15 28  1  0  0  0  0 
 28 29  1  0  0  0  0 
 29 30  1  0  0  0  0 
 29 31  2  0  0  0  0 
 31 32  1  0  0  0  0 
 31 33  1  0  0  0  0 
 33 34  1  0  0  0  0 
 33 35  2  0  0  0  0 
 27 35  1  0  0  0  0 
 35 36  1  0  0  0  0 
 10 37  1  0  0  0  0 
 37 38  1  0  0  0  0 
 37 39  1  0  0  0  0 
 37 40  1  0  0  0  0 
 40 41  1  0  0  0  0 
M  END
> <Rank>
17

> <Priority_score>
0.116

> <Reaction_type>
aliphatic hydroxylation

> <Parent_ID>
11

> <Parent_InChI>
InChI=1S/C17H20N2S/c1-13(18(2)3)12-19-14-8-4-6-10-16(14)20-17-11-7-5-9-15(17)19/h4-11,13H,12H2,1-3H3

> <Parent_SMILES>
CC(CN1c2ccccc2Sc2ccccc21)N(C)C

$$$$
Molecule 11_metabolite 18
  CDK     0516241031

 41 43  0  0  0  0  0  0  0  0999 V2000
   -2.7762    3.5305    0.0000 C   0  0  0  0  0  0  0  0  0  0  0  0
   -3.7404    2.3814    0.0000 H   0  0  0  0  0  0  0  0  0  0  0  0
   -4.0753    4.2805    0.0000 H   0  0  0  0  0  0  0  0  0  0  0  0
   -2.2632    4.9400    0.0000 H   0  0  0  0  0  0  0  0  0  0  0  0
   -1.2990    3.2700    0.0000 C   0  0  0  0  0  0  0  0  0  0  0  0
   -1.8121    1.8605    0.0000 H   0  0  0  0  0  0  0  0  0  0  0  0
   -0.0000    2.5200    0.0000 C   0  0  0  0  0  0  0  0  0  0  0  0
    1.4772    2.2595    0.0000 H   0  0  0  0  0  0  0  0  0  0  0  0
    0.5130    3.9295    0.0000 H   0  0  0  0  0  0  0  0  0  0  0  0
   -0.0000    1.0200    0.0000 N   0  0  0  0  0  0  0  0  0  0  0  0
   -1.3000    0.2700    0.0000 C   0  0  0  0  0  0  0  0  0  0  0  0
   -1.3000   -1.2300    0.0000 C   0  0  0  0  0  0  0  0  0  0  0  0
   -2.6000   -1.9800    0.0000 C   0  0  0  0  0  0  0  0  0  0  0  0
   -2.6000   -3.4800    0.0000 H   0  0  0  0  0  0  0  0  0  0  0  0
   -3.9000   -1.2300    0.0000 C   0  0  0  0  0  0  0  0  0  0  0  0
   -5.1989   -1.9802    0.0000 H   0  0  0  0  0  0  0  0  0  0  0  0
   -3.9000    0.2700    0.0000 C   0  0  0  0  0  0  0  0  0  0  0  0
   -5.1989    1.0202    0.0000 H   0  0  0  0  0  0  0  0  0  0  0  0
   -2.6000    1.0200    0.0000 C   0  0  0  0  0  0  0  0  0  0  0  0
   -2.6000    2.5200    0.0000 H   0  0  0  0  0  0  0  0  0  0  0  0
   -0.0000   -1.9800    0.0000 S   0  0  0  0  0  0  0  0  0  0  0  0
    1.3000   -1.2300    0.0000 C   0  0  0  0  0  0  0  0  0  0  0  0
    2.6000   -1.9800    0.0000 C   0  0  0  0  0  0  0  0  0  0  0  0
    3.9000   -1.2300    0.0000 C   0  0  0  0  0  0  0  0  0  0  0  0
    5.1989   -1.9802    0.0000 H   0  0  0  0  0  0  0  0  0  0  0  0
    3.9000    0.2700    0.0000 C   0  0  0  0  0  0  0  0  0  0  0  0
    5.1989    1.0202    0.0000 H   0  0  0  0  0  0  0  0  0  0  0  0
    2.6000    1.0200    0.0000 C   0  0  0  0  0  0  0  0  0  0  0  0
    2.6000    2.5200    0.0000 H   0  0  0  0  0  0  0  0  0  0  0  0
    1.3000    0.2700    0.0000 C   0  0  0  0  0  0  0  0  0  0  0  0
    2.6000   -3.4800    0.0000 O   0  0  0  0  0  0  0  0  0  0  0  0
    3.8990   -4.2300    0.0000 H   0  0  0  0  0  0  0  0  0  0  0  0
   -1.2990    5.2500    0.0000 N   0  0  0  0  0  0  0  0  0  0  0  0
   -2.5981    6.0000    0.0000 C   0  0  0  0  0  0  0  0  0  0  0  0
   -2.5981    7.5000    0.0000 H   0  0  0  0  0  0  0  0  0  0  0  0
   -4.0753    6.2605    0.0000 H   0  0  0  0  0  0  0  0  0  0  0  0
   -3.1111    4.5905    0.0000 H   0  0  0  0  0  0  0  0  0  0  0  0
    0.0000    6.0000    0.0000 C   0  0  0  0  0  0  0  0  0  0  0  0
    1.2990    5.2500    0.0000 H   0  0  0  0  0  0  0  0  0  0  0  0
   -0.9642    7.1491    0.0000 H   0  0  0  0  0  0  0  0  0  0  0  0
    0.9642    7.1491    0.0000 H   0  0  0  0  0  0  0  0  0  0  0  0
  1  2  1  0  0  0  0 
  1  3  1  0  0  0  0 
  1  4  1  0  0  0  0 
  1  5  1  0  0  0  0 
  5  6  1  0  0  0  0 
  5  7  1  0  0  0  0 
  7  8  1  0  0  0  0 
  7  9  1  0  0  0  0 
  7 10  1  0  0  0  0 
 10 11  1  0  0  0  0 
 11 12  2  0  0  0  0 
 12 13  1  0  0  0  0 
 13 14  1  0  0  0  0 
 13 15  2  0  0  0  0 
 15 16  1  0  0  0  0 
 15 17  1  0  0  0  0 
 17 18  1  0  0  0  0 
 17 19  2  0  0  0  0 
 11 19  1  0  0  0  0 
 19 20  1  0  0  0  0 
 12 21  1  0  0  0  0 
 21 22  1  0  0  0  0 
 22 23  2  0  0  0  0 
 23 24  1  0  0  0  0 
 24 25  1  0  0  0  0 
 24 26  2  0  0  0  0 
 26 27  1  0  0  0  0 
 26 28  1  0  0  0  0 
 28 29  1  0  0  0  0 
 28 30  2  0  0  0  0 
 22 30  1  0  0  0  0 
 10 30  1  0  0  0  0 
 23 31  1  0  0  0  0 
 31 32  1  0  0  0  0 
  5 33  1  0  0  0  0 
 33 34  1  0  0  0  0 
 34 35  1  0  0  0  0 
 34 36  1  0  0  0  0 
 34 37  1  0  0  0  0 
 33 38  1  0  0  0  0 
 38 39  1  0  0  0  0 
 38 40  1  0  0  0  0 
 38 41  1  0  0  0  0 
M  END
> <Rank>
18

> <Priority_score>
0.07976587178693094

> <Reaction_type>
aromatic hydroxylation

> <Parent_ID>
11

> <Parent_InChI>
InChI=1S/C17H20N2S/c1-13(18(2)3)12-19-14-8-4-6-10-16(14)20-17-11-7-5-9-15(17)19/h4-11,13H,12H2,1-3H3

> <Parent_SMILES>
CC(CN1c2ccccc2Sc2ccccc21)N(C)C

$$$$
Molecule 11_metabolite 19
  CDK     0516241031

 38 40  0  0  0  0  0  0  0  0999 V2000
   -2.5981    2.8000    0.0000 C   0  0  0  0  0  0  0  0  0  0  0  0
   -3.8971    3.5500    0.0000 H   0  0  0  0  0  0  0  0  0  0  0  0
   -2.5981    1.3000    0.0000 H   0  0  0  0  0  0  0  0  0  0  0  0
   -1.2990    3.5500    0.0000 C   0  0  0  0  0  0  0  0  0  0  0  0
    0.4157    2.5600    0.0000 C   0  0  0  0  0  0  0  0  0  0  0  0
    1.8929    2.2995    0.0000 H   0  0  0  0  0  0  0  0  0  0  0  0
    0.9287    3.9695    0.0000 H   0  0  0  0  0  0  0  0  0  0  0  0
    0.4157    0.5800    0.0000 N   0  0  0  0  0  0  0  0  0  0  0  0
    1.7157   -0.1700    0.0000 C   0  0  0  0  0  0  0  0  0  0  0  0
    1.7157   -1.6700    0.0000 C   0  0  0  0  0  0  0  0  0  0  0  0
    3.0157   -2.4200    0.0000 C   0  0  0  0  0  0  0  0  0  0  0  0
    3.0157   -3.9200    0.0000 H   0  0  0  0  0  0  0  0  0  0  0  0
    4.3157   -1.6700    0.0000 C   0  0  0  0  0  0  0  0  0  0  0  0
    5.6146   -2.4202    0.0000 H   0  0  0  0  0  0  0  0  0  0  0  0
    4.3157   -0.1700    0.0000 C   0  0  0  0  0  0  0  0  0  0  0  0
    5.6146    0.5802    0.0000 H   0  0  0  0  0  0  0  0  0  0  0  0
    3.0157    0.5800    0.0000 C   0  0  0  0  0  0  0  0  0  0  0  0
    3.0157    2.0800    0.0000 H   0  0  0  0  0  0  0  0  0  0  0  0
    0.4157   -2.4200    0.0000 S   0  0  0  0  0  0  0  0  0  0  0  0
   -0.8843   -1.6700    0.0000 C   0  0  0  0  0  0  0  0  0  0  0  0
   -0.8843   -0.1700    0.0000 C   0  0  0  0  0  0  0  0  0  0  0  0
   -2.1843    0.5800    0.0000 C   0  0  0  0  0  0  0  0  0  0  0  0
   -1.2201    1.7291    0.0000 H   0  0  0  0  0  0  0  0  0  0  0  0
   -3.4843   -0.1700    0.0000 C   0  0  0  0  0  0  0  0  0  0  0  0
   -4.7832    0.5802    0.0000 H   0  0  0  0  0  0  0  0  0  0  0  0
   -3.4843   -1.6700    0.0000 C   0  0  0  0  0  0  0  0  0  0  0  0
   -4.7832   -2.4202    0.0000 H   0  0  0  0  0  0  0  0  0  0  0  0
   -2.1843   -2.4200    0.0000 C   0  0  0  0  0  0  0  0  0  0  0  0
   -2.1843   -3.9200    0.0000 H   0  0  0  0  0  0  0  0  0  0  0  0
   -1.2990    5.0500    0.0000 N   0  0  0  0  0  0  0  0  0  0  0  0
   -2.5981    5.8000    0.0000 C   0  0  0  0  0  0  0  0  0  0  0  0
   -2.5981    7.3000    0.0000 H   0  0  0  0  0  0  0  0  0  0  0  0
   -4.0753    6.0605    0.0000 H   0  0  0  0  0  0  0  0  0  0  0  0
   -3.1111    4.3905    0.0000 H   0  0  0  0  0  0  0  0  0  0  0  0
    0.0000    5.8000    0.0000 C   0  0  0  0  0  0  0  0  0  0  0  0
    1.2990    5.0500    0.0000 H   0  0  0  0  0  0  0  0  0  0  0  0
   -0.9642    6.9491    0.0000 H   0  0  0  0  0  0  0  0  0  0  0  0
    0.9642    6.9491    0.0000 H   0  0  0  0  0  0  0  0  0  0  0  0
  1  2  1  0  0  0  0 
  1  3  1  0  0  0  0 
  1  4  2  0  0  0  0 
  4  5  1  0  0  0  0 
  5  6  1  0  0  0  0 
  5  7  1  0  0  0  0 
  5  8  1  0  0  0  0 
  8  9  1  0  0  0  0 
  9 10  2  0  0  0  0 
 10 11  1  0  0  0  0 
 11 12  1  0  0  0  0 
 11 13  2  0  0  0  0 
 13 14  1  0  0  0  0 
 13 15  1  0  0  0  0 
 15 16  1  0  0  0  0 
 15 17  2  0  0  0  0 
  9 17  1  0  0  0  0 
 17 18  1  0  0  0  0 
 10 19  1  0  0  0  0 
 19 20  1  0  0  0  0 
 20 21  2  0  0  0  0 
  8 21  1  0  0  0  0 
 21 22  1  0  0  0  0 
 22 23  1  0  0  0  0 
 22 24  2  0  0  0  0 
 24 25  1  0  0  0  0 
 24 26  1  0  0  0  0 
 26 27  1  0  0  0  0 
 26 28  2  0  0  0  0 
 20 28  1  0  0  0  0 
 28 29  1  0  0  0  0 
  4 30  1  0  0  0  0 
 30 31  1  0  0  0  0 
 31 32  1  0  0  0  0 
 31 33  1  0  0  0  0 
 31 34  1  0  0  0  0 
 30 35  1  0  0  0  0 
 35 36  1  0  0  0  0 
 35 37  1  0  0  0  0 
 35 38  1  0  0  0  0 
M  END
> <Rank>
19

> <Priority_score>
0.06720000000000001

> <Reaction_type>
alkyl dehydrogenation

> <Parent_ID>
11

> <Parent_InChI>
InChI=1S/C17H20N2S/c1-13(18(2)3)12-19-14-8-4-6-10-16(14)20-17-11-7-5-9-15(17)19/h4-11,13H,12H2,1-3H3

> <Parent_SMILES>
CC(CN1c2ccccc2Sc2ccccc21)N(C)C

$$$$
Molecule 11_metabolite 20
  CDK     0516241031

 38 40  0  0  0  0  0  0  0  0999 V2000
   -2.5981    2.8000    0.0000 C   0  0  0  0  0  0  0  0  0  0  0  0
   -3.8971    3.5500    0.0000 H   0  0  0  0  0  0  0  0  0  0  0  0
   -3.5623    1.6509    0.0000 H   0  0  0  0  0  0  0  0  0  0  0  0
   -1.6339    1.6509    0.0000 H   0  0  0  0  0  0  0  0  0  0  0  0
   -1.2990    3.5500    0.0000 C   0  0  0  0  0  0  0  0  0  0  0  0
    0.0000    2.8000    0.0000 C   0  0  0  0  0  0  0  0  0  0  0  0
    1.2990    3.5500    0.0000 H   0  0  0  0  0  0  0  0  0  0  0  0
   -0.0000   -0.1400    0.0000 N   0  0  0  0  0  0  0  0  0  0  0  0
    1.3000   -0.8900    0.0000 C   0  0  0  0  0  0  0  0  0  0  0  0
    1.3000   -2.3900    0.0000 C   0  0  0  0  0  0  0  0  0  0  0  0
    2.6000   -3.1400    0.0000 C   0  0  0  0  0  0  0  0  0  0  0  0
    2.6000   -4.6400    0.0000 H   0  0  0  0  0  0  0  0  0  0  0  0
    3.9000   -2.3900    0.0000 C   0  0  0  0  0  0  0  0  0  0  0  0
    5.1989   -3.1402    0.0000 H   0  0  0  0  0  0  0  0  0  0  0  0
    3.9000   -0.8900    0.0000 C   0  0  0  0  0  0  0  0  0  0  0  0
    5.1989   -0.1398    0.0000 H   0  0  0  0  0  0  0  0  0  0  0  0
    2.6000   -0.1400    0.0000 C   0  0  0  0  0  0  0  0  0  0  0  0
    2.6000    1.3600    0.0000 H   0  0  0  0  0  0  0  0  0  0  0  0
   -0.0000   -3.1400    0.0000 S   0  0  0  0  0  0  0  0  0  0  0  0
   -1.3000   -2.3900    0.0000 C   0  0  0  0  0  0  0  0  0  0  0  0
   -1.3000   -0.8900    0.0000 C   0  0  0  0  0  0  0  0  0  0  0  0
   -2.6000   -0.1400    0.0000 C   0  0  0  0  0  0  0  0  0  0  0  0
   -2.3395    1.3372    0.0000 H   0  0  0  0  0  0  0  0  0  0  0  0
   -3.9000   -0.8900    0.0000 C   0  0  0  0  0  0  0  0  0  0  0  0
   -5.1989   -0.1398    0.0000 H   0  0  0  0  0  0  0  0  0  0  0  0
   -3.9000   -2.3900    0.0000 C   0  0  0  0  0  0  0  0  0  0  0  0
   -5.1989   -3.1402    0.0000 H   0  0  0  0  0  0  0  0  0  0  0  0
   -2.6000   -3.1400    0.0000 C   0  0  0  0  0  0  0  0  0  0  0  0
   -2.6000   -4.6400    0.0000 H   0  0  0  0  0  0  0  0  0  0  0  0
   -1.2990    5.0500    0.0000 N   0  0  0  0  0  0  0  0  0  0  0  0
   -2.5981    5.8000    0.0000 C   0  0  0  0  0  0  0  0  0  0  0  0
   -2.5981    7.3000    0.0000 H   0  0  0  0  0  0  0  0  0  0  0  0
   -4.0753    6.0605    0.0000 H   0  0  0  0  0  0  0  0  0  0  0  0
   -3.1111    4.3905    0.0000 H   0  0  0  0  0  0  0  0  0  0  0  0
    0.0000    5.8000    0.0000 C   0  0  0  0  0  0  0  0  0  0  0  0
    0.0000    7.3000    0.0000 H   0  0  0  0  0  0  0  0  0  0  0  0
    0.5130    4.3905    0.0000 H   0  0  0  0  0  0  0  0  0  0  0  0
    1.4772    6.0605    0.0000 H   0  0  0  0  0  0  0  0  0  0  0  0
  1  2  1  0  0  0  0 
  1  3  1  0  0  0  0 
  1  4  1  0  0  0  0 
  1  5  1  0  0  0  0 
  5  6  2  0  0  0  0 
  6  7  1  4  0  0  0 
  6  8  1  0  0  0  0 
  8  9  1  0  0  0  0 
  9 10  2  0  0  0  0 
 10 11  1  0  0  0  0 
 11 12  1  0  0  0  0 
 11 13  2  0  0  0  0 
 13 14  1  0  0  0  0 
 13 15  1  0  0  0  0 
 15 16  1  0  0  0  0 
 15 17  2  0  0  0  0 
  9 17  1  0  0  0  0 
 17 18  1  0  0  0  0 
 10 19  1  0  0  0  0 
 19 20  1  0  0  0  0 
 20 21  2  0  0  0  0 
  8 21  1  0  0  0  0 
 21 22  1  0  0  0  0 
 22 23  1  0  0  0  0 
 22 24  2  0  0  0  0 
 24 25  1  0  0  0  0 
 24 26  1  0  0  0  0 
 26 27  1  0  0  0  0 
 26 28  2  0  0  0  0 
 20 28  1  0  0  0  0 
 28 29  1  0  0  0  0 
  5 30  1  0  0  0  0 
 30 31  1  0  0  0  0 
 31 32  1  0  0  0  0 
 31 33  1  0  0  0  0 
 31 34  1  0  0  0  0 
 30 35  1  0  0  0  0 
 35 36  1  0  0  0  0 
 35 37  1  0  0  0  0 
 35 38  1  0  0  0  0 
M  END
> <Rank>
19

> <Priority_score>
0.06720000000000001

> <Reaction_type>
alkyl dehydrogenation

> <Parent_ID>
11

> <Parent_InChI>
InChI=1S/C17H20N2S/c1-13(18(2)3)12-19-14-8-4-6-10-16(14)20-17-11-7-5-9-15(17)19/h4-11,13H,12H2,1-3H3

> <Parent_SMILES>
CC(CN1c2ccccc2Sc2ccccc21)N(C)C

$$$$
Molecule 11_metabolite 21
  CDK     0516241031

 41 43  0  0  0  0  0  0  0  0999 V2000
   -2.7762    3.5305    0.0000 C   0  0  0  0  0  0  0  0  0  0  0  0
   -3.7404    2.3814    0.0000 H   0  0  0  0  0  0  0  0  0  0  0  0
   -4.0753    4.2805    0.0000 H   0  0  0  0  0  0  0  0  0  0  0  0
   -2.2632    4.9400    0.0000 H   0  0  0  0  0  0  0  0  0  0  0  0
   -1.2990    3.2700    0.0000 C   0  0  0  0  0  0  0  0  0  0  0  0
   -1.8121    1.8605    0.0000 H   0  0  0  0  0  0  0  0  0  0  0  0
   -0.0000    2.5200    0.0000 C   0  0  0  0  0  0  0  0  0  0  0  0
    1.4772    2.2595    0.0000 H   0  0  0  0  0  0  0  0  0  0  0  0
    0.5130    3.9295    0.0000 H   0  0  0  0  0  0  0  0  0  0  0  0
   -0.0000    1.0200    0.0000 N   0  0  0  0  0  0  0  0  0  0  0  0
   -1.3000    0.2700    0.0000 C   0  0  0  0  0  0  0  0  0  0  0  0
   -1.3000   -1.2300    0.0000 C   0  0  0  0  0  0  0  0  0  0  0  0
   -2.6000   -1.9800    0.0000 C   0  0  0  0  0  0  0  0  0  0  0  0
   -2.6000   -3.4800    0.0000 H   0  0  0  0  0  0  0  0  0  0  0  0
   -3.9000   -1.2300    0.0000 C   0  0  0  0  0  0  0  0  0  0  0  0
   -5.1989   -1.9802    0.0000 H   0  0  0  0  0  0  0  0  0  0  0  0
   -3.9000    0.2700    0.0000 C   0  0  0  0  0  0  0  0  0  0  0  0
   -5.1989    1.0202    0.0000 H   0  0  0  0  0  0  0  0  0  0  0  0
   -2.6000    1.0200    0.0000 C   0  0  0  0  0  0  0  0  0  0  0  0
   -2.6000    2.5200    0.0000 H   0  0  0  0  0  0  0  0  0  0  0  0
   -0.0000   -1.9800    0.0000 S   0  0  0  0  0  0  0  0  0  0  0  0
    1.3000   -1.2300    0.0000 C   0  0  0  0  0  0  0  0  0  0  0  0
    2.6000   -1.9800    0.0000 C   0  0  0  0  0  0  0  0  0  0  0  0
    2.6000   -3.4800    0.0000 H   0  0  0  0  0  0  0  0  0  0  0  0
    3.9000   -1.2300    0.0000 C   0  0  0  0  0  0  0  0  0  0  0  0
    5.1989   -1.9802    0.0000 H   0  0  0  0  0  0  0  0  0  0  0  0
    3.9000    0.2700    0.0000 C   0  0  0  0  0  0  0  0  0  0  0  0
    2.6000    1.0200    0.0000 C   0  0  0  0  0  0  0  0  0  0  0  0
    2.6000    2.5200    0.0000 H   0  0  0  0  0  0  0  0  0  0  0  0
    1.3000    0.2700    0.0000 C   0  0  0  0  0  0  0  0  0  0  0  0
    5.1989    1.0202    0.0000 O   0  0  0  0  0  0  0  0  0  0  0  0
    6.4981    0.2704    0.0000 H   0  0  0  0  0  0  0  0  0  0  0  0
   -1.2990    5.2500    0.0000 N   0  0  0  0  0  0  0  0  0  0  0  0
   -2.5981    6.0000    0.0000 C   0  0  0  0  0  0  0  0  0  0  0  0
   -2.5981    7.5000    0.0000 H   0  0  0  0  0  0  0  0  0  0  0  0
   -4.0753    6.2605    0.0000 H   0  0  0  0  0  0  0  0  0  0  0  0
   -3.1111    4.5905    0.0000 H   0  0  0  0  0  0  0  0  0  0  0  0
    0.0000    6.0000    0.0000 C   0  0  0  0  0  0  0  0  0  0  0  0
    1.2990    5.2500    0.0000 H   0  0  0  0  0  0  0  0  0  0  0  0
   -0.9642    7.1491    0.0000 H   0  0  0  0  0  0  0  0  0  0  0  0
    0.9642    7.1491    0.0000 H   0  0  0  0  0  0  0  0  0  0  0  0
  1  2  1  0  0  0  0 
  1  3  1  0  0  0  0 
  1  4  1  0  0  0  0 
  1  5  1  0  0  0  0 
  5  6  1  0  0  0  0 
  5  7  1  0  0  0  0 
  7  8  1  0  0  0  0 
  7  9  1  0  0  0  0 
  7 10  1  0  0  0  0 
 10 11  1  0  0  0  0 
 11 12  2  0  0  0  0 
 12 13  1  0  0  0  0 
 13 14  1  0  0  0  0 
 13 15  2  0  0  0  0 
 15 16  1  0  0  0  0 
 15 17  1  0  0  0  0 
 17 18  1  0  0  0  0 
 17 19  2  0  0  0  0 
 11 19  1  0  0  0  0 
 19 20  1  0  0  0  0 
 12 21  1  0  0  0  0 
 21 22  1  0  0  0  0 
 22 23  2  0  0  0  0 
 23 24  1  0  0  0  0 
 23 25  1  0  0  0  0 
 25 26  1  0  0  0  0 
 25 27  2  0  0  0  0 
 27 28  1  0  0  0  0 
 28 29  1  0  0  0  0 
 28 30  2  0  0  0  0 
 22 30  1  0  0  0  0 
 10 30  1  0  0  0  0 
 27 31  1  0  0  0  0 
 31 32  1  0  0  0  0 
  5 33  1  0  0  0  0 
 33 34  1  0  0  0  0 
 34 35  1  0  0  0  0 
 34 36  1  0  0  0  0 
 34 37  1  0  0  0  0 
 33 38  1  0  0  0  0 
 38 39  1  0  0  0  0 
 38 40  1  0  0  0  0 
 38 41  1  0  0  0  0 
M  END
> <Rank>
21

> <Priority_score>
0.05920337197049525

> <Reaction_type>
aromatic hydroxylation

> <Parent_ID>
11

> <Parent_InChI>
InChI=1S/C17H20N2S/c1-13(18(2)3)12-19-14-8-4-6-10-16(14)20-17-11-7-5-9-15(17)19/h4-11,13H,12H2,1-3H3

> <Parent_SMILES>
CC(CN1c2ccccc2Sc2ccccc21)N(C)C

$$$$
Molecule 11_metabolite 22
  CDK     0516241031

 39 41  0  0  0  0  0  0  0  0999 V2000
   -2.7762    3.3305    0.0000 C   0  0  0  0  0  0  0  0  0  0  0  0
   -3.7404    2.1814    0.0000 H   0  0  0  0  0  0  0  0  0  0  0  0
   -4.0753    4.0805    0.0000 H   0  0  0  0  0  0  0  0  0  0  0  0
   -2.2632    4.7400    0.0000 H   0  0  0  0  0  0  0  0  0  0  0  0
   -1.2990    3.0700    0.0000 C   0  0  0  0  0  0  0  0  0  0  0  0
   -1.8121    1.6605    0.0000 H   0  0  0  0  0  0  0  0  0  0  0  0
   -0.0000    2.3200    0.0000 C   0  0  0  0  0  0  0  0  0  0  0  0
    1.2990    3.0700    0.0000 H   0  0  0  0  0  0  0  0  0  0  0  0
   -0.0000    0.8200    0.0000 N   0  0  0  0  0  0  0  0  0  0  0  0
    1.3000    0.0700    0.0000 C   0  0  0  0  0  0  0  0  0  0  0  0
    1.3000   -1.4300    0.0000 C   0  0  0  0  0  0  0  0  0  0  0  0
    2.6000   -2.1800    0.0000 C   0  0  0  0  0  0  0  0  0  0  0  0
    2.6000   -3.6800    0.0000 H   0  0  0  0  0  0  0  0  0  0  0  0
    3.9000   -1.4300    0.0000 C   0  0  0  0  0  0  0  0  0  0  0  0
    5.1989   -2.1802    0.0000 H   0  0  0  0  0  0  0  0  0  0  0  0
    3.9000    0.0700    0.0000 C   0  0  0  0  0  0  0  0  0  0  0  0
    5.1989    0.8202    0.0000 H   0  0  0  0  0  0  0  0  0  0  0  0
    2.6000    0.8200    0.0000 C   0  0  0  0  0  0  0  0  0  0  0  0
    2.6000    2.3200    0.0000 H   0  0  0  0  0  0  0  0  0  0  0  0
   -0.0000   -2.1800    0.0000 S   0  0  0  0  0  0  0  0  0  0  0  0
   -1.3000   -1.4300    0.0000 C   0  0  0  0  0  0  0  0  0  0  0  0
   -1.3000    0.0700    0.0000 C   0  0  0  0  0  0  0  0  0  0  0  0
   -2.6000    0.8200    0.0000 C   0  0  0  0  0  0  0  0  0  0  0  0
   -2.6000    2.3200    0.0000 H   0  0  0  0  0  0  0  0  0  0  0  0
   -3.9000    0.0700    0.0000 C   0  0  0  0  0  0  0  0  0  0  0  0
   -5.1989    0.8202    0.0000 H   0  0  0  0  0  0  0  0  0  0  0  0
   -3.9000   -1.4300    0.0000 C   0  0  0  0  0  0  0  0  0  0  0  0
   -5.1989   -2.1802    0.0000 H   0  0  0  0  0  0  0  0  0  0  0  0
   -2.6000   -2.1800    0.0000 C   0  0  0  0  0  0  0  0  0  0  0  0
   -2.6000   -3.6800    0.0000 H   0  0  0  0  0  0  0  0  0  0  0  0
   -1.2990    5.0500    0.0000 N   0  0  0  0  0  0  0  0  0  0  0  0
   -2.5981    5.8000    0.0000 C   0  0  0  0  0  0  0  0  0  0  0  0
   -2.5981    7.3000    0.0000 H   0  0  0  0  0  0  0  0  0  0  0  0
   -4.0753    6.0605    0.0000 H   0  0  0  0  0  0  0  0  0  0  0  0
   -3.1111    4.3905    0.0000 H   0  0  0  0  0  0  0  0  0  0  0  0
    0.0000    5.8000    0.0000 C   0  0  0  0  0  0  0  0  0  0  0  0
    0.0000    7.3000    0.0000 H   0  0  0  0  0  0  0  0  0  0  0  0
    0.5130    4.3905    0.0000 H   0  0  0  0  0  0  0  0  0  0  0  0
    1.4772    6.0605    0.0000 H   0  0  0  0  0  0  0  0  0  0  0  0
  1  2  1  0  0  0  0 
  1  3  1  0  0  0  0 
  1  4  1  0  0  0  0 
  1  5  1  0  0  0  0 
  5  6  1  0  0  0  0 
  5  7  1  0  0  0  0 
  7  8  1  4  0  0  0 
  7  9  2  0  0  0  0 
  9 10  1  0  0  0  0 
 10 11  2  0  0  0  0 
 11 12  1  0  0  0  0 
 12 13  1  0  0  0  0 
 12 14  2  0  0  0  0 
 14 15  1  0  0  0  0 
 14 16  1  0  0  0  0 
 16 17  1  0  0  0  0 
 16 18  2  0  0  0  0 
 10 18  1  0  0  0  0 
 18 19  1  0  0  0  0 
 11 20  1  0  0  0  0 
 20 21  1  0  0  0  0 
 21 22  2  0  0  0  0 
  9 22  1  0  0  0  0 
 22 23  1  0  0  0  0 
 23 24  1  0  0  0  0 
 23 25  2  0  0  0  0 
 25 26  1  0  0  0  0 
 25 27  1  0  0  0  0 
 27 28  1  0  0  0  0 
 27 29  2  0  0  0  0 
 21 29  1  0  0  0  0 
 29 30  1  0  0  0  0 
  5 31  1  0  0  0  0 
 31 32  1  0  0  0  0 
 32 33  1  0  0  0  0 
 32 34  1  0  0  0  0 
 32 35  1  0  0  0  0 
 31 36  1  0  0  0  0 
 36 37  1  0  0  0  0 
 36 38  1  0  0  0  0 
 36 39  1  0  0  0  0 
M  CHG  1   9   1
M  END
> <Rank>
22

> <Priority_score>
0.027200000000000002

> <Reaction_type>
dehydration of N-C bond

> <Parent_ID>
11

> <Parent_InChI>
InChI=1S/C17H20N2S/c1-13(18(2)3)12-19-14-8-4-6-10-16(14)20-17-11-7-5-9-15(17)19/h4-11,13H,12H2,1-3H3

> <Parent_SMILES>
CC(CN1c2ccccc2Sc2ccccc21)N(C)C

$$$$
Molecule 12
  CDK     0516241031

 61 68  0  0  0  0  0  0  0  0999 V2000
  -11.5860   -9.4917    0.0000 C   0  0  0  0  0  0  0  0  0  0  0  0
  -10.1089   -9.7527    0.0000 C   0  0  0  0  0  0  0  0  0  0  0  0
  -10.6223  -11.1621    0.0000 C   0  0  0  0  0  0  0  0  0  0  0  0
  -10.1082   -8.2519    0.0000 C   0  0  0  0  0  0  0  0  0  0  0  0
   -8.8086   -7.5012    0.0000 C   0  0  0  0  0  0  0  0  0  0  0  0
   -7.5096   -8.2515    0.0000 C   0  0  0  0  0  0  0  0  0  0  0  0
   -7.5104   -9.7523    0.0000 C   0  0  0  0  0  0  0  0  0  0  0  0
   -8.8100  -10.5029    0.0000 C   0  0  0  0  0  0  0  0  0  0  0  0
   -6.2114  -10.5025    0.0000 C   0  0  0  0  0  0  0  0  0  0  0  0
   -6.2096  -11.9860    0.0000 C   0  0  0  0  0  0  0  0  0  0  0  0
   -4.9145  -12.7428    0.0000 C   0  0  0  0  0  0  0  0  0  0  0  0
   -3.6125  -12.0210    0.0000 C   0  0  0  0  0  0  0  0  0  0  0  0
   -3.6079  -10.5065    0.0000 C   0  0  0  0  0  0  0  0  0  0  0  0
   -4.9030   -9.7498    0.0000 C   0  0  0  0  0  0  0  0  0  0  0  0
   -2.3213  -12.7843    0.0000 Cl  0  0  0  0  0  0  0  0  0  0  0  0
   -6.2104   -7.5019    0.0000 C   0  0  0  0  0  0  0  0  0  0  0  0
   -6.2099   -6.0019    0.0000 N   0  0  0  0  0  0  0  0  0  0  0  0
   -4.9100   -5.2517    0.0000 C   0  0  0  0  0  0  0  0  0  0  0  0
   -4.9088   -3.7508    0.0000 C   0  0  0  0  0  0  0  0  0  0  0  0
   -6.2075   -3.0002    0.0000 N   0  0  0  0  0  0  0  0  0  0  0  0
   -7.5074   -3.7504    0.0000 C   0  0  0  0  0  0  0  0  0  0  0  0
   -7.5086   -5.2512    0.0000 C   0  0  0  0  0  0  0  0  0  0  0  0
   -6.2070   -1.5002    0.0000 C   0  0  0  0  0  0  0  0  0  0  0  0
   -7.5064   -0.7492    0.0000 C   0  0  0  0  0  0  0  0  0  0  0  0
   -7.5066    0.7517    0.0000 C   0  0  0  0  0  0  0  0  0  0  0  0
   -6.2075    1.5015    0.0000 C   0  0  0  0  0  0  0  0  0  0  0  0
   -4.9081    0.7504    0.0000 C   0  0  0  0  0  0  0  0  0  0  0  0
   -4.9078   -0.7504    0.0000 C   0  0  0  0  0  0  0  0  0  0  0  0
   -3.6089    1.5002    0.0000 O   0  0  0  0  0  0  0  0  0  0  0  0
   -2.3100    0.7500    0.0000 C   0  0  0  0  0  0  0  0  0  0  0  0
   -1.0100    1.5000    0.0000 C   0  0  0  0  0  0  0  0  0  0  0  0
    0.2900    0.7500    0.0000 C   0  0  0  0  0  0  0  0  0  0  0  0
    0.2900   -0.7500    0.0000 C   0  0  0  0  0  0  0  0  0  0  0  0
    1.7200   -1.2100    0.0000 N   0  0  0  0  0  0  0  0  0  0  0  0
    2.6000    0.0000    0.0000 C   0  0  0  0  0  0  0  0  0  0  0  0
    1.7200    1.2100    0.0000 C   0  0  0  0  0  0  0  0  0  0  0  0
   -1.0100   -1.5000    0.0000 N   0  0  0  0  0  0  0  0  0  0  0  0
   -2.3100   -0.7500    0.0000 C   0  0  0  0  0  0  0  0  0  0  0  0
   -6.2070    3.0015    0.0000 C   0  0  0  0  0  0  0  0  0  0  0  0
   -4.9077    3.7510    0.0000 O   0  0  0  0  0  0  0  0  0  0  0  0
   -7.5058    3.7519    0.0000 N   0  0  0  0  0  0  0  0  0  0  0  0
   -7.5053    5.2519    0.0000 S   0  0  0  0  0  0  0  0  0  0  0  0
   -6.0282    4.9909    0.0000 O   0  0  0  0  0  0  0  0  0  0  0  0
   -6.9918    6.6612    0.0000 O   0  0  0  0  0  0  0  0  0  0  0  0
   -8.8041    6.0023    0.0000 C   0  0  0  0  0  0  0  0  0  0  0  0
  -10.1042    5.2525    0.0000 C   0  0  0  0  0  0  0  0  0  0  0  0
  -11.4041    6.0027    0.0000 C   0  0  0  0  0  0  0  0  0  0  0  0
  -11.4039    7.5027    0.0000 C   0  0  0  0  0  0  0  0  0  0  0  0
  -10.1037    8.2525    0.0000 C   0  0  0  0  0  0  0  0  0  0  0  0
   -8.8039    7.5023    0.0000 C   0  0  0  0  0  0  0  0  0  0  0  0
  -10.1035    9.7525    0.0000 N   0  0  0  0  0  0  0  0  0  0  0  0
  -11.4024   10.5027    0.0000 O   0  0  0  0  0  0  0  0  0  0  0  0
   -8.8043   10.5023    0.0000 O   0  0  0  0  0  0  0  0  0  0  0  0
  -12.7027    8.2531    0.0000 N   0  0  0  0  0  0  0  0  0  0  0  0
  -12.7022    9.7531    0.0000 C   0  0  0  0  0  0  0  0  0  0  0  0
  -14.0010   10.5035    0.0000 C   0  0  0  0  0  0  0  0  0  0  0  0
  -15.3007    9.7531    0.0000 C   0  0  0  0  0  0  0  0  0  0  0  0
  -16.5995   10.5035    0.0000 C   0  0  0  0  0  0  0  0  0  0  0  0
  -16.5986   12.0044    0.0000 O   0  0  0  0  0  0  0  0  0  0  0  0
  -15.2988   12.7548    0.0000 C   0  0  0  0  0  0  0  0  0  0  0  0
  -14.0000   12.0044    0.0000 C   0  0  0  0  0  0  0  0  0  0  0  0
  1  2  1  0  0  0  0 
  2  3  1  0  0  0  0 
  2  4  1  0  0  0  0 
  4  5  1  0  0  0  0 
  5  6  1  0  0  0  0 
  6  7  2  0  0  0  0 
  7  8  1  0  0  0  0 
  2  8  1  0  0  0  0 
  7  9  1  0  0  0  0 
  9 10  2  0  0  0  0 
 10 11  1  0  0  0  0 
 11 12  2  0  0  0  0 
 12 13  1  0  0  0  0 
 13 14  2  0  0  0  0 
  9 14  1  0  0  0  0 
 12 15  1  0  0  0  0 
  6 16  1  0  0  0  0 
 16 17  1  0  0  0  0 
 17 18  1  0  0  0  0 
 18 19  1  0  0  0  0 
 19 20  1  0  0  0  0 
 20 21  1  0  0  0  0 
 21 22  1  0  0  0  0 
 17 22  1  0  0  0  0 
 20 23  1  0  0  0  0 
 23 24  2  0  0  0  0 
 24 25  1  0  0  0  0 
 25 26  2  0  0  0  0 
 26 27  1  0  0  0  0 
 27 28  2  0  0  0  0 
 23 28  1  0  0  0  0 
 27 29  1  0  0  0  0 
 29 30  1  0  0  0  0 
 30 31  2  0  0  0  0 
 31 32  1  0  0  0  0 
 32 33  2  0  0  0  0 
 33 34  1  0  0  0  0 
 34 35  1  0  0  0  0 
 35 36  2  0  0  0  0 
 32 36  1  0  0  0  0 
 33 37  1  0  0  0  0 
 37 38  2  0  0  0  0 
 30 38  1  0  0  0  0 
 26 39  1  0  0  0  0 
 39 40  2  0  0  0  0 
 39 41  1  0  0  0  0 
 41 42  1  0  0  0  0 
 42 43  2  0  0  0  0 
 42 44  2  0  0  0  0 
 42 45  1  0  0  0  0 
 45 46  2  0  0  0  0 
 46 47  1  0  0  0  0 
 47 48  2  0  0  0  0 
 48 49  1  0  0  0  0 
 49 50  2  0  0  0  0 
 45 50  1  0  0  0  0 
 49 51  1  0  0  0  0 
 51 52  2  0  0  0  0 
 51 53  1  0  0  0  0 
 48 54  1  0  0  0  0 
 54 55  1  0  0  0  0 
 55 56  1  0  0  0  0 
 56 57  1  0  0  0  0 
 57 58  1  0  0  0  0 
 58 59  1  0  0  0  0 
 59 60  1  0  0  0  0 
 60 61  1  0  0  0  0 
 56 61  1  0  0  0  0 
M  CHG  1  51   1
M  CHG  1  53  -1
M  END
> <SMILES>
CC1(C)CCC(CN2CCN(c3ccc(C(=O)NS(=O)(=O)c4ccc(NCC5CCOCC5)c([N+](=O)[O-])c4)c(Oc4cnc5[nH]ccc5c4)c3)CC2)=C(c2ccc(Cl)cc2)C1

$$$$
Molecule 12_metabolite 1
  CDK     0516241031

112118  0  0  0  0  0  0  0  0999 V2000
    3.1495   17.9708    0.0000 C   0  0  0  0  0  0  0  0  0  0  0  0
    1.6722   17.7108    0.0000 H   0  0  0  0  0  0  0  0  0  0  0  0
    4.4487   18.7205    0.0000 H   0  0  0  0  0  0  0  0  0  0  0  0
    2.6368   19.3805    0.0000 H   0  0  0  0  0  0  0  0  0  0  0  0
    4.7303   16.0860    0.0000 C   0  0  0  0  0  0  0  0  0  0  0  0
    6.3122   17.9698    0.0000 C   0  0  0  0  0  0  0  0  0  0  0  0
    5.7997   19.3796    0.0000 H   0  0  0  0  0  0  0  0  0  0  0  0
    7.6115   18.7193    0.0000 H   0  0  0  0  0  0  0  0  0  0  0  0
    7.2760   16.8204    0.0000 H   0  0  0  0  0  0  0  0  0  0  0  0
    3.4304   15.3357    0.0000 C   0  0  0  0  0  0  0  0  0  0  0  0
    1.9530   15.0761    0.0000 H   0  0  0  0  0  0  0  0  0  0  0  0
    2.9179   16.7455    0.0000 H   0  0  0  0  0  0  0  0  0  0  0  0
    3.4292   13.8349    0.0000 C   0  0  0  0  0  0  0  0  0  0  0  0
    2.7509   11.9747    0.0000 H   0  0  0  0  0  0  0  0  0  0  0  0
    1.9521   14.0964    0.0000 H   0  0  0  0  0  0  0  0  0  0  0  0
    4.7279   13.0843    0.0000 C   0  0  0  0  0  0  0  0  0  0  0  0
    6.0277   13.8345    0.0000 C   0  0  0  0  0  0  0  0  0  0  0  0
    6.0289   15.3353    0.0000 C   0  0  0  0  0  0  0  0  0  0  0  0
    6.5428   16.7446    0.0000 H   0  0  0  0  0  0  0  0  0  0  0  0
    7.5060   15.0738    0.0000 H   0  0  0  0  0  0  0  0  0  0  0  0
    7.3264   13.0839    0.0000 C   0  0  0  0  0  0  0  0  0  0  0  0
    8.6126   13.8232    0.0000 C   0  0  0  0  0  0  0  0  0  0  0  0
    8.6106   15.3232    0.0000 H   0  0  0  0  0  0  0  0  0  0  0  0
    9.9150   13.0791    0.0000 C   0  0  0  0  0  0  0  0  0  0  0  0
   11.2060   13.8429    0.0000 H   0  0  0  0  0  0  0  0  0  0  0  0
    9.9400   11.5907    0.0000 C   0  0  0  0  0  0  0  0  0  0  0  0
    8.6302   10.8303    0.0000 C   0  0  0  0  0  0  0  0  0  0  0  0
    8.6355    9.3303    0.0000 H   0  0  0  0  0  0  0  0  0  0  0  0
    7.3278   11.5744    0.0000 C   0  0  0  0  0  0  0  0  0  0  0  0
    6.0308   10.8208    0.0000 H   0  0  0  0  0  0  0  0  0  0  0  0
   11.2461   10.8532    0.0000 Cl  0  0  0  0  0  0  0  0  0  0  0  0
    4.7274   11.5843    0.0000 C   0  0  0  0  0  0  0  0  0  0  0  0
    6.2047   11.8443    0.0000 H   0  0  0  0  0  0  0  0  0  0  0  0
    5.2400   10.1746    0.0000 H   0  0  0  0  0  0  0  0  0  0  0  0
    2.1808   10.1151    0.0000 N   0  0  0  0  0  0  0  0  0  0  0  0
    2.1801    8.6143    0.0000 C   0  0  0  0  0  0  0  0  0  0  0  0
    3.6573    8.8743    0.0000 H   0  0  0  0  0  0  0  0  0  0  0  0
    2.6930    7.2047    0.0000 H   0  0  0  0  0  0  0  0  0  0  0  0
    0.8804    7.8636    0.0000 C   0  0  0  0  0  0  0  0  0  0  0  0
    1.8447    6.7146    0.0000 H   0  0  0  0  0  0  0  0  0  0  0  0
   -0.0838    6.7146    0.0000 H   0  0  0  0  0  0  0  0  0  0  0  0
   -0.4185    8.6139    0.0000 N   0  0  0  0  0  0  0  0  0  0  0  0
   -0.4178   10.1147    0.0000 C   0  0  0  0  0  0  0  0  0  0  0  0
   -1.8951    9.8546    0.0000 H   0  0  0  0  0  0  0  0  0  0  0  0
   -0.9307   11.5243    0.0000 H   0  0  0  0  0  0  0  0  0  0  0  0
    0.8819   10.8653    0.0000 C   0  0  0  0  0  0  0  0  0  0  0  0
   -0.0824   12.0143    0.0000 H   0  0  0  0  0  0  0  0  0  0  0  0
    1.8461   12.0143    0.0000 H   0  0  0  0  0  0  0  0  0  0  0  0
   -1.7178    7.8643    0.0000 C   0  0  0  0  0  0  0  0  0  0  0  0
   -3.0174    8.6149    0.0000 C   0  0  0  0  0  0  0  0  0  0  0  0
   -3.0167   10.1149    0.0000 H   0  0  0  0  0  0  0  0  0  0  0  0
   -4.3178    7.8655    0.0000 C   0  0  0  0  0  0  0  0  0  0  0  0
   -5.6163    8.6164    0.0000 H   0  0  0  0  0  0  0  0  0  0  0  0
   -4.3185    6.3655    0.0000 C   0  0  0  0  0  0  0  0  0  0  0  0
   -3.0189    5.6149    0.0000 C   0  0  0  0  0  0  0  0  0  0  0  0
   -1.7185    6.3643    0.0000 C   0  0  0  0  0  0  0  0  0  0  0  0
   -0.4199    5.6134    0.0000 H   0  0  0  0  0  0  0  0  0  0  0  0
   -3.0200    3.1549    0.0000 O   0  0  0  0  0  0  0  0  0  0  0  0
   -1.7214    2.4043    0.0000 C   0  0  0  0  0  0  0  0  0  0  0  0
   -1.7218    0.9034    0.0000 C   0  0  0  0  0  0  0  0  0  0  0  0
   -3.0214    0.1543    0.0000 H   0  0  0  0  0  0  0  0  0  0  0  0
   -0.4228    0.1518    0.0000 C   0  0  0  0  0  0  0  0  0  0  0  0
    0.8767    0.9009    0.0000 C   0  0  0  0  0  0  0  0  0  0  0  0
    1.9894   -0.1082    0.0000 N   0  0  0  0  0  0  0  0  0  0  0  0
    3.4572    0.2009    0.0000 H   0  0  0  0  0  0  0  0  0  0  0  0
    1.3807   -1.4749    0.0000 C   0  0  0  0  0  0  0  0  0  0  0  0
    2.1298   -2.7744    0.0000 H   0  0  0  0  0  0  0  0  0  0  0  0
   -0.1071   -1.3168    0.0000 C   0  0  0  0  0  0  0  0  0  0  0  0
   -1.1102   -2.4322    0.0000 H   0  0  0  0  0  0  0  0  0  0  0  0
    0.8772    2.4018    0.0000 N   0  0  0  0  0  0  0  0  0  0  0  0
   -0.4218    3.1534    0.0000 C   0  0  0  0  0  0  0  0  0  0  0  0
   -0.4206    4.6534    0.0000 H   0  0  0  0  0  0  0  0  0  0  0  0
   -5.6178    5.6159    0.0000 C   0  0  0  0  0  0  0  0  0  0  0  0
   -5.6183    4.1159    0.0000 O   0  0  0  0  0  0  0  0  0  0  0  0
   -6.9166    6.3664    0.0000 N   0  0  0  0  0  0  0  0  0  0  0  0
   -6.9161    7.8664    0.0000 H   0  0  0  0  0  0  0  0  0  0  0  0
   -8.2158    5.6168    0.0000 S   0  0  0  0  0  0  0  0  0  0  0  0
   -7.2520    4.4674    0.0000 O   0  0  0  0  0  0  0  0  0  0  0  0
   -9.1804    4.4680    0.0000 O   0  0  0  0  0  0  0  0  0  0  0  0
   -9.5146    6.3672    0.0000 C   0  0  0  0  0  0  0  0  0  0  0  0
   -9.5144    7.8680    0.0000 C   0  0  0  0  0  0  0  0  0  0  0  0
   -8.2150    8.6174    0.0000 H   0  0  0  0  0  0  0  0  0  0  0  0
  -10.8136    8.6195    0.0000 C   0  0  0  0  0  0  0  0  0  0  0  0
  -10.8126   10.1195    0.0000 H   0  0  0  0  0  0  0  0  0  0  0  0
  -12.1130    7.8701    0.0000 C   0  0  0  0  0  0  0  0  0  0  0  0
  -12.1132    6.3693    0.0000 C   0  0  0  0  0  0  0  0  0  0  0  0
  -10.8140    5.6178    0.0000 C   0  0  0  0  0  0  0  0  0  0  0  0
  -10.8150    4.1178    0.0000 H   0  0  0  0  0  0  0  0  0  0  0  0
  -13.4126    5.6199    0.0000 N   0  0  0  0  0  0  0  0  0  0  0  0
  -14.7113    6.3705    0.0000 O   0  0  0  0  0  0  0  0  0  0  0  0
  -13.4133    4.1199    0.0000 O   0  0  0  0  0  0  0  0  0  0  0  0
  -13.4118    8.6205    0.0000 N   0  0  0  0  0  0  0  0  0  0  0  0
  -14.7110    7.8709    0.0000 H   0  0  0  0  0  0  0  0  0  0  0  0
  -13.4113   10.1205    0.0000 C   0  0  0  0  0  0  0  0  0  0  0  0
  -11.9341    9.8596    0.0000 H   0  0  0  0  0  0  0  0  0  0  0  0
  -12.8978   11.5299    0.0000 H   0  0  0  0  0  0  0  0  0  0  0  0
  -15.5413   11.3512    0.0000 C   0  0  0  0  0  0  0  0  0  0  0  0
  -16.5051   12.5006    0.0000 H   0  0  0  0  0  0  0  0  0  0  0  0
  -13.6508   13.6028    0.0000 C   0  0  0  0  0  0  0  0  0  0  0  0
  -12.3515   14.3523    0.0000 H   0  0  0  0  0  0  0  0  0  0  0  0
  -12.6870   12.4534    0.0000 H   0  0  0  0  0  0  0  0  0  0  0  0
  -14.1634   15.0125    0.0000 C   0  0  0  0  0  0  0  0  0  0  0  0
  -15.6405   15.2734    0.0000 H   0  0  0  0  0  0  0  0  0  0  0  0
  -13.1988   16.1612    0.0000 O   0  0  0  0  0  0  0  0  0  0  0  0
  -16.8406   10.6016    0.0000 C   0  0  0  0  0  0  0  0  0  0  0  0
  -15.8768    9.4522    0.0000 H   0  0  0  0  0  0  0  0  0  0  0  0
  -17.8051    9.4529    0.0000 H   0  0  0  0  0  0  0  0  0  0  0  0
  -18.1394   11.3520    0.0000 C   0  0  0  0  0  0  0  0  0  0  0  0
  -19.6165   11.6130    0.0000 H   0  0  0  0  0  0  0  0  0  0  0  0
  -18.6529    9.9427    0.0000 H   0  0  0  0  0  0  0  0  0  0  0  0
  -18.1389   12.8520    0.0000 O   0  0  0  0  0  0  0  0  0  0  0  0
  -19.4377   13.6024    0.0000 H   0  0  0  0  0  0  0  0  0  0  0  0
  1  2  1  0  0  0  0 
  1  3  1  0  0  0  0 
  1  4  1  0  0  0  0 
  1  5  1  0  0  0  0 
  5  6  1  0  0  0  0 
  6  7  1  0  0  0  0 
  6  8  1  0  0  0  0 
  6  9  1  0  0  0  0 
  5 10  1  0  0  0  0 
 10 11  1  0  0  0  0 
 10 12  1  0  0  0  0 
 10 13  1  0  0  0  0 
 13 14  1  0  0  0  0 
 13 15  1  0  0  0  0 
 13 16  1  0  0  0  0 
 16 17  2  0  0  0  0 
 17 18  1  0  0  0  0 
  5 18  1  0  0  0  0 
 18 19  1  0  0  0  0 
 18 20  1  0  0  0  0 
 17 21  1  0  0  0  0 
 21 22  2  0  0  0  0 
 22 23  1  0  0  0  0 
 22 24  1  0  0  0  0 
 24 25  1  0  0  0  0 
 24 26  2  0  0  0  0 
 26 27  1  0  0  0  0 
 27 28  1  0  0  0  0 
 27 29  2  0  0  0  0 
 21 29  1  0  0  0  0 
 29 30  1  0  0  0  0 
 26 31  1  0  0  0  0 
 16 32  1  0  0  0  0 
 32 33  1  0  0  0  0 
 32 34  1  0  0  0  0 
 32 35  1  0  0  0  0 
 35 36  1  0  0  0  0 
 36 37  1  0  0  0  0 
 36 38  1  0  0  0  0 
 36 39  1  0  0  0  0 
 39 40  1  0  0  0  0 
 39 41  1  0  0  0  0 
 39 42  1  0  0  0  0 
 42 43  1  0  0  0  0 
 43 44  1  0  0  0  0 
 43 45  1  0  0  0  0 
 43 46  1  0  0  0  0 
 35 46  1  0  0  0  0 
 46 47  1  0  0  0  0 
 46 48  1  0  0  0  0 
 42 49  1  0  0  0  0 
 49 50  2  0  0  0  0 
 50 51  1  0  0  0  0 
 50 52  1  0  0  0  0 
 52 53  1  0  0  0  0 
 52 54  2  0  0  0  0 
 54 55  1  0  0  0  0 
 55 56  2  0  0  0  0 
 49 56  1  0  0  0  0 
 56 57  1  0  0  0  0 
 55 58  1  0  0  0  0 
 58 59  1  0  0  0  0 
 59 60  2  0  0  0  0 
 60 61  1  0  0  0  0 
 60 62  1  0  0  0  0 
 62 63  2  0  0  0  0 
 63 64  1  0  0  0  0 
 64 65  1  0  0  0  0 
 64 66  1  0  0  0  0 
 66 67  1  0  0  0  0 
 66 68  2  0  0  0  0 
 62 68  1  0  0  0  0 
 68 69  1  0  0  0  0 
 63 70  1  0  0  0  0 
 70 71  2  0  0  0  0 
 59 71  1  0  0  0  0 
 71 72  1  0  0  0  0 
 54 73  1  0  0  0  0 
 73 74  2  0  0  0  0 
 73 75  1  0  0  0  0 
 75 76  1  0  0  0  0 
 75 77  1  0  0  0  0 
 77 78  2  0  0  0  0 
 77 79  2  0  0  0  0 
 77 80  1  0  0  0  0 
 80 81  2  0  0  0  0 
 81 82  1  0  0  0  0 
 81 83  1  0  0  0  0 
 83 84  1  0  0  0  0 
 83 85  2  0  0  0  0 
 85 86  1  0  0  0  0 
 86 87  2  0  0  0  0 
 80 87  1  0  0  0  0 
 87 88  1  0  0  0  0 
 86 89  1  0  0  0  0 
 89 90  2  0  0  0  0 
 89 91  1  0  0  0  0 
 85 92  1  0  0  0  0 
 92 93  1  0  0  0  0 
 92 94  1  0  0  0  0 
 94 95  1  0  0  0  0 
 94 96  1  0  0  0  0 
 94 97  1  0  0  0  0 
 97 98  1  0  0  0  0 
 97 99  1  0  0  0  0 
 99100  1  0  0  0  0 
 99101  1  0  0  0  0 
 99102  1  0  0  0  0 
102103  1  0  0  0  0 
102104  2  0  0  0  0 
 97105  1  0  0  0  0 
105106  1  0  0  0  0 
105107  1  0  0  0  0 
105108  1  0  0  0  0 
108109  1  0  0  0  0 
108110  1  0  0  0  0 
108111  1  0  0  0  0 
111112  1  0  0  0  0 
M  CHG  1  89   1
M  CHG  1  91  -1
M  END
> <Rank>
1

> <Priority_score>
0.376

> <Reaction_type>
oxidative ether cleavage to one alcohol and one aldehyde/ketone

> <Parent_ID>
12

> <Parent_InChI>
InChI=1S/C45H50ClN7O7S/c1-45(2)15-11-33(39(26-45)31-3-5-34(46)6-4-31)29-51-17-19-52(20-18-51)35-7-9-38(42(24-35)60-36-23-32-12-16-47-43(32)49-28-36)44(54)50-61(57,58)37-8-10-40(41(25-37)53(55)56)48-27-30-13-21-59-22-14-30/h3-10,12,16,23-25,28,30,48H,11,13-15,17-22,26-27,29H2,1-2H3,(H,47,49)(H,50,54)

> <Parent_SMILES>
CC1(C)CCC(CN2CCN(c3ccc(C(=O)NS(=O)(=O)c4ccc(NCC5CCOCC5)c([N+](=O)[O-])c4)c(Oc4cnc5[nH]ccc5c4)c3)CC2)=C(c2ccc(Cl)cc2)C1

$$$$
Molecule 12_metabolite 2
  CDK     0516241031

114120  0  0  0  0  0  0  0  0999 V2000
    3.1495   17.9708    0.0000 C   0  0  0  0  0  0  0  0  0  0  0  0
    1.6722   17.7108    0.0000 H   0  0  0  0  0  0  0  0  0  0  0  0
    4.4487   18.7205    0.0000 H   0  0  0  0  0  0  0  0  0  0  0  0
    2.6368   19.3805    0.0000 H   0  0  0  0  0  0  0  0  0  0  0  0
    4.7303   16.0860    0.0000 C   0  0  0  0  0  0  0  0  0  0  0  0
    6.3122   17.9698    0.0000 C   0  0  0  0  0  0  0  0  0  0  0  0
    5.7997   19.3796    0.0000 H   0  0  0  0  0  0  0  0  0  0  0  0
    7.6115   18.7193    0.0000 H   0  0  0  0  0  0  0  0  0  0  0  0
    7.2760   16.8204    0.0000 H   0  0  0  0  0  0  0  0  0  0  0  0
    3.4304   15.3357    0.0000 C   0  0  0  0  0  0  0  0  0  0  0  0
    1.9530   15.0761    0.0000 H   0  0  0  0  0  0  0  0  0  0  0  0
    2.9179   16.7455    0.0000 H   0  0  0  0  0  0  0  0  0  0  0  0
    3.4292   13.8349    0.0000 C   0  0  0  0  0  0  0  0  0  0  0  0
    2.7509   11.9747    0.0000 H   0  0  0  0  0  0  0  0  0  0  0  0
    1.9521   14.0964    0.0000 H   0  0  0  0  0  0  0  0  0  0  0  0
    4.7279   13.0843    0.0000 C   0  0  0  0  0  0  0  0  0  0  0  0
    6.0277   13.8345    0.0000 C   0  0  0  0  0  0  0  0  0  0  0  0
    6.0289   15.3353    0.0000 C   0  0  0  0  0  0  0  0  0  0  0  0
    6.5428   16.7446    0.0000 H   0  0  0  0  0  0  0  0  0  0  0  0
    7.5060   15.0738    0.0000 H   0  0  0  0  0  0  0  0  0  0  0  0
    7.3264   13.0839    0.0000 C   0  0  0  0  0  0  0  0  0  0  0  0
    8.6126   13.8232    0.0000 C   0  0  0  0  0  0  0  0  0  0  0  0
    8.6106   15.3232    0.0000 H   0  0  0  0  0  0  0  0  0  0  0  0
    9.9150   13.0791    0.0000 C   0  0  0  0  0  0  0  0  0  0  0  0
   11.2060   13.8429    0.0000 H   0  0  0  0  0  0  0  0  0  0  0  0
    9.9400   11.5907    0.0000 C   0  0  0  0  0  0  0  0  0  0  0  0
    8.6302   10.8303    0.0000 C   0  0  0  0  0  0  0  0  0  0  0  0
    8.6355    9.3303    0.0000 H   0  0  0  0  0  0  0  0  0  0  0  0
    7.3278   11.5744    0.0000 C   0  0  0  0  0  0  0  0  0  0  0  0
    6.0308   10.8208    0.0000 H   0  0  0  0  0  0  0  0  0  0  0  0
   11.2461   10.8532    0.0000 Cl  0  0  0  0  0  0  0  0  0  0  0  0
    4.7274   11.5843    0.0000 C   0  0  0  0  0  0  0  0  0  0  0  0
    6.2047   11.8443    0.0000 H   0  0  0  0  0  0  0  0  0  0  0  0
    5.2400   10.1746    0.0000 H   0  0  0  0  0  0  0  0  0  0  0  0
    2.1808   10.1151    0.0000 N   0  0  0  0  0  0  0  0  0  0  0  0
    2.1801    8.6143    0.0000 C   0  0  0  0  0  0  0  0  0  0  0  0
    3.6573    8.8743    0.0000 H   0  0  0  0  0  0  0  0  0  0  0  0
    2.6930    7.2047    0.0000 H   0  0  0  0  0  0  0  0  0  0  0  0
    0.8804    7.8636    0.0000 C   0  0  0  0  0  0  0  0  0  0  0  0
    1.8447    6.7146    0.0000 H   0  0  0  0  0  0  0  0  0  0  0  0
   -0.0838    6.7146    0.0000 H   0  0  0  0  0  0  0  0  0  0  0  0
   -0.4185    8.6139    0.0000 N   0  0  0  0  0  0  0  0  0  0  0  0
   -0.4178   10.1147    0.0000 C   0  0  0  0  0  0  0  0  0  0  0  0
   -1.8951    9.8546    0.0000 H   0  0  0  0  0  0  0  0  0  0  0  0
   -0.9307   11.5243    0.0000 H   0  0  0  0  0  0  0  0  0  0  0  0
    0.8819   10.8653    0.0000 C   0  0  0  0  0  0  0  0  0  0  0  0
   -0.0824   12.0143    0.0000 H   0  0  0  0  0  0  0  0  0  0  0  0
    1.8461   12.0143    0.0000 H   0  0  0  0  0  0  0  0  0  0  0  0
   -1.7178    7.8643    0.0000 C   0  0  0  0  0  0  0  0  0  0  0  0
   -3.0174    8.6149    0.0000 C   0  0  0  0  0  0  0  0  0  0  0  0
   -3.0167   10.1149    0.0000 H   0  0  0  0  0  0  0  0  0  0  0  0
   -4.3178    7.8655    0.0000 C   0  0  0  0  0  0  0  0  0  0  0  0
   -5.6163    8.6164    0.0000 H   0  0  0  0  0  0  0  0  0  0  0  0
   -4.3185    6.3655    0.0000 C   0  0  0  0  0  0  0  0  0  0  0  0
   -3.0189    5.6149    0.0000 C   0  0  0  0  0  0  0  0  0  0  0  0
   -1.7185    6.3643    0.0000 C   0  0  0  0  0  0  0  0  0  0  0  0
   -0.4199    5.6134    0.0000 H   0  0  0  0  0  0  0  0  0  0  0  0
   -3.0200    3.1549    0.0000 O   0  0  0  0  0  0  0  0  0  0  0  0
   -1.7214    2.4043    0.0000 C   0  0  0  0  0  0  0  0  0  0  0  0
   -1.7218    0.9034    0.0000 C   0  0  0  0  0  0  0  0  0  0  0  0
   -3.0214    0.1543    0.0000 H   0  0  0  0  0  0  0  0  0  0  0  0
   -0.4228    0.1518    0.0000 C   0  0  0  0  0  0  0  0  0  0  0  0
    0.8767    0.9009    0.0000 C   0  0  0  0  0  0  0  0  0  0  0  0
    1.9894   -0.1082    0.0000 N   0  0  0  0  0  0  0  0  0  0  0  0
    3.4572    0.2009    0.0000 H   0  0  0  0  0  0  0  0  0  0  0  0
    1.3807   -1.4749    0.0000 C   0  0  0  0  0  0  0  0  0  0  0  0
    2.1298   -2.7744    0.0000 H   0  0  0  0  0  0  0  0  0  0  0  0
   -0.1071   -1.3168    0.0000 C   0  0  0  0  0  0  0  0  0  0  0  0
   -1.1102   -2.4322    0.0000 H   0  0  0  0  0  0  0  0  0  0  0  0
    0.8772    2.4018    0.0000 N   0  0  0  0  0  0  0  0  0  0  0  0
   -0.4218    3.1534    0.0000 C   0  0  0  0  0  0  0  0  0  0  0  0
   -0.4206    4.6534    0.0000 H   0  0  0  0  0  0  0  0  0  0  0  0
   -5.6178    5.6159    0.0000 C   0  0  0  0  0  0  0  0  0  0  0  0
   -5.6183    4.1159    0.0000 O   0  0  0  0  0  0  0  0  0  0  0  0
   -6.9166    6.3664    0.0000 N   0  0  0  0  0  0  0  0  0  0  0  0
   -6.9161    7.8664    0.0000 H   0  0  0  0  0  0  0  0  0  0  0  0
   -8.2158    5.6168    0.0000 S   0  0  0  0  0  0  0  0  0  0  0  0
   -7.2520    4.4674    0.0000 O   0  0  0  0  0  0  0  0  0  0  0  0
   -9.1804    4.4680    0.0000 O   0  0  0  0  0  0  0  0  0  0  0  0
   -9.5146    6.3672    0.0000 C   0  0  0  0  0  0  0  0  0  0  0  0
   -9.5144    7.8680    0.0000 C   0  0  0  0  0  0  0  0  0  0  0  0
   -8.2150    8.6174    0.0000 H   0  0  0  0  0  0  0  0  0  0  0  0
  -10.8136    8.6195    0.0000 C   0  0  0  0  0  0  0  0  0  0  0  0
  -10.8126   10.1195    0.0000 H   0  0  0  0  0  0  0  0  0  0  0  0
  -12.1130    7.8701    0.0000 C   0  0  0  0  0  0  0  0  0  0  0  0
  -12.1132    6.3693    0.0000 C   0  0  0  0  0  0  0  0  0  0  0  0
  -10.8140    5.6178    0.0000 C   0  0  0  0  0  0  0  0  0  0  0  0
  -10.8150    4.1178    0.0000 H   0  0  0  0  0  0  0  0  0  0  0  0
  -13.4126    5.6199    0.0000 N   0  0  0  0  0  0  0  0  0  0  0  0
  -14.7113    6.3705    0.0000 O   0  0  0  0  0  0  0  0  0  0  0  0
  -13.4133    4.1199    0.0000 O   0  0  0  0  0  0  0  0  0  0  0  0
  -13.4118    8.6205    0.0000 N   0  0  0  0  0  0  0  0  0  0  0  0
  -14.7110    7.8709    0.0000 H   0  0  0  0  0  0  0  0  0  0  0  0
  -13.4113   10.1205    0.0000 C   0  0  0  0  0  0  0  0  0  0  0  0
  -11.9341    9.8596    0.0000 H   0  0  0  0  0  0  0  0  0  0  0  0
  -12.8978   11.5299    0.0000 H   0  0  0  0  0  0  0  0  0  0  0  0
  -15.5413   11.3512    0.0000 C   0  0  0  0  0  0  0  0  0  0  0  0
  -16.5051   12.5006    0.0000 H   0  0  0  0  0  0  0  0  0  0  0  0
  -16.8406   10.6016    0.0000 C   0  0  0  0  0  0  0  0  0  0  0  0
  -15.8768    9.4522    0.0000 H   0  0  0  0  0  0  0  0  0  0  0  0
  -17.8051    9.4529    0.0000 H   0  0  0  0  0  0  0  0  0  0  0  0
  -18.1394   11.3520    0.0000 C   0  0  0  0  0  0  0  0  0  0  0  0
  -19.6165   11.6130    0.0000 H   0  0  0  0  0  0  0  0  0  0  0  0
  -18.6529    9.9427    0.0000 H   0  0  0  0  0  0  0  0  0  0  0  0
  -18.1389   12.8520    0.0000 O   0  0  0  0  0  0  0  0  0  0  0  0
  -19.4377   13.6024    0.0000 H   0  0  0  0  0  0  0  0  0  0  0  0
  -13.6508   13.6028    0.0000 C   0  0  0  0  0  0  0  0  0  0  0  0
  -12.3515   14.3523    0.0000 H   0  0  0  0  0  0  0  0  0  0  0  0
  -12.6870   12.4534    0.0000 H   0  0  0  0  0  0  0  0  0  0  0  0
  -14.1634   15.0125    0.0000 C   0  0  0  0  0  0  0  0  0  0  0  0
  -14.1629   16.5125    0.0000 H   0  0  0  0  0  0  0  0  0  0  0  0
  -12.6861   15.2725    0.0000 H   0  0  0  0  0  0  0  0  0  0  0  0
  -15.6405   15.2734    0.0000 O   0  0  0  0  0  0  0  0  0  0  0  0
  -16.1531   16.6831    0.0000 H   0  0  0  0  0  0  0  0  0  0  0  0
  1  2  1  0  0  0  0 
  1  3  1  0  0  0  0 
  1  4  1  0  0  0  0 
  1  5  1  0  0  0  0 
  5  6  1  0  0  0  0 
  6  7  1  0  0  0  0 
  6  8  1  0  0  0  0 
  6  9  1  0  0  0  0 
  5 10  1  0  0  0  0 
 10 11  1  0  0  0  0 
 10 12  1  0  0  0  0 
 10 13  1  0  0  0  0 
 13 14  1  0  0  0  0 
 13 15  1  0  0  0  0 
 13 16  1  0  0  0  0 
 16 17  2  0  0  0  0 
 17 18  1  0  0  0  0 
  5 18  1  0  0  0  0 
 18 19  1  0  0  0  0 
 18 20  1  0  0  0  0 
 17 21  1  0  0  0  0 
 21 22  2  0  0  0  0 
 22 23  1  0  0  0  0 
 22 24  1  0  0  0  0 
 24 25  1  0  0  0  0 
 24 26  2  0  0  0  0 
 26 27  1  0  0  0  0 
 27 28  1  0  0  0  0 
 27 29  2  0  0  0  0 
 21 29  1  0  0  0  0 
 29 30  1  0  0  0  0 
 26 31  1  0  0  0  0 
 16 32  1  0  0  0  0 
 32 33  1  0  0  0  0 
 32 34  1  0  0  0  0 
 32 35  1  0  0  0  0 
 35 36  1  0  0  0  0 
 36 37  1  0  0  0  0 
 36 38  1  0  0  0  0 
 36 39  1  0  0  0  0 
 39 40  1  0  0  0  0 
 39 41  1  0  0  0  0 
 39 42  1  0  0  0  0 
 42 43  1  0  0  0  0 
 43 44  1  0  0  0  0 
 43 45  1  0  0  0  0 
 43 46  1  0  0  0  0 
 35 46  1  0  0  0  0 
 46 47  1  0  0  0  0 
 46 48  1  0  0  0  0 
 42 49  1  0  0  0  0 
 49 50  2  0  0  0  0 
 50 51  1  0  0  0  0 
 50 52  1  0  0  0  0 
 52 53  1  0  0  0  0 
 52 54  2  0  0  0  0 
 54 55  1  0  0  0  0 
 55 56  2  0  0  0  0 
 49 56  1  0  0  0  0 
 56 57  1  0  0  0  0 
 55 58  1  0  0  0  0 
 58 59  1  0  0  0  0 
 59 60  2  0  0  0  0 
 60 61  1  0  0  0  0 
 60 62  1  0  0  0  0 
 62 63  2  0  0  0  0 
 63 64  1  0  0  0  0 
 64 65  1  0  0  0  0 
 64 66  1  0  0  0  0 
 66 67  1  0  0  0  0 
 66 68  2  0  0  0  0 
 62 68  1  0  0  0  0 
 68 69  1  0  0  0  0 
 63 70  1  0  0  0  0 
 70 71  2  0  0  0  0 
 59 71  1  0  0  0  0 
 71 72  1  0  0  0  0 
 54 73  1  0  0  0  0 
 73 74  2  0  0  0  0 
 73 75  1  0  0  0  0 
 75 76  1  0  0  0  0 
 75 77  1  0  0  0  0 
 77 78  2  0  0  0  0 
 77 79  2  0  0  0  0 
 77 80  1  0  0  0  0 
 80 81  2  0  0  0  0 
 81 82  1  0  0  0  0 
 81 83  1  0  0  0  0 
 83 84  1  0  0  0  0 
 83 85  2  0  0  0  0 
 85 86  1  0  0  0  0 
 86 87  2  0  0  0  0 
 80 87  1  0  0  0  0 
 87 88  1  0  0  0  0 
 86 89  1  0  0  0  0 
 89 90  2  0  0  0  0 
 89 91  1  0  0  0  0 
 85 92  1  0  0  0  0 
 92 93  1  0  0  0  0 
 92 94  1  0  0  0  0 
 94 95  1  0  0  0  0 
 94 96  1  0  0  0  0 
 94 97  1  0  0  0  0 
 97 98  1  0  0  0  0 
 97 99  1  0  0  0  0 
 99100  1  0  0  0  0 
 99101  1  0  0  0  0 
 99102  1  0  0  0  0 
102103  1  0  0  0  0 
102104  1  0  0  0  0 
102105  1  0  0  0  0 
105106  1  0  0  0  0 
 97107  1  0  0  0  0 
107108  1  0  0  0  0 
107109  1  0  0  0  0 
107110  1  0  0  0  0 
110111  1  0  0  0  0 
110112  1  0  0  0  0 
110113  1  0  0  0  0 
113114  1  0  0  0  0 
M  CHG  1  89   1
M  CHG  1  91  -1
M  END
> <Rank>
1

> <Priority_score>
0.376

> <Reaction_type>
O-dealkylation_(aliphatic)

> <Parent_ID>
12

> <Parent_InChI>
InChI=1S/C45H50ClN7O7S/c1-45(2)15-11-33(39(26-45)31-3-5-34(46)6-4-31)29-51-17-19-52(20-18-51)35-7-9-38(42(24-35)60-36-23-32-12-16-47-43(32)49-28-36)44(54)50-61(57,58)37-8-10-40(41(25-37)53(55)56)48-27-30-13-21-59-22-14-30/h3-10,12,16,23-25,28,30,48H,11,13-15,17-22,26-27,29H2,1-2H3,(H,47,49)(H,50,54)

> <Parent_SMILES>
CC1(C)CCC(CN2CCN(c3ccc(C(=O)NS(=O)(=O)c4ccc(NCC5CCOCC5)c([N+](=O)[O-])c4)c(Oc4cnc5[nH]ccc5c4)c3)CC2)=C(c2ccc(Cl)cc2)C1

$$$$
Molecule 12_metabolite 3
  CDK     0516241031

112119  0  0  0  0  0  0  0  0999 V2000
    4.0755   19.0737    0.0000 C   0  0  0  0  0  0  0  0  0  0  0  0
    2.5982   18.8136    0.0000 H   0  0  0  0  0  0  0  0  0  0  0  0
    5.3747   19.8233    0.0000 H   0  0  0  0  0  0  0  0  0  0  0  0
    3.5628   20.4833    0.0000 H   0  0  0  0  0  0  0  0  0  0  0  0
    5.6562   17.1888    0.0000 C   0  0  0  0  0  0  0  0  0  0  0  0
    7.2382   19.0726    0.0000 C   0  0  0  0  0  0  0  0  0  0  0  0
    6.7257   20.4824    0.0000 H   0  0  0  0  0  0  0  0  0  0  0  0
    8.5375   19.8222    0.0000 H   0  0  0  0  0  0  0  0  0  0  0  0
    8.2019   17.9232    0.0000 H   0  0  0  0  0  0  0  0  0  0  0  0
    4.3563   16.4386    0.0000 C   0  0  0  0  0  0  0  0  0  0  0  0
    2.8790   16.1789    0.0000 H   0  0  0  0  0  0  0  0  0  0  0  0
    3.8438   17.8483    0.0000 H   0  0  0  0  0  0  0  0  0  0  0  0
    4.3551   14.9377    0.0000 C   0  0  0  0  0  0  0  0  0  0  0  0
    3.6768   13.0775    0.0000 H   0  0  0  0  0  0  0  0  0  0  0  0
    2.8781   15.1992    0.0000 H   0  0  0  0  0  0  0  0  0  0  0  0
    5.6538   14.1871    0.0000 C   0  0  0  0  0  0  0  0  0  0  0  0
    6.9537   14.9373    0.0000 C   0  0  0  0  0  0  0  0  0  0  0  0
    6.9549   16.4381    0.0000 C   0  0  0  0  0  0  0  0  0  0  0  0
    7.4688   17.8474    0.0000 H   0  0  0  0  0  0  0  0  0  0  0  0
    8.4319   16.1766    0.0000 H   0  0  0  0  0  0  0  0  0  0  0  0
    8.2524   14.1867    0.0000 C   0  0  0  0  0  0  0  0  0  0  0  0
    9.5386   14.9260    0.0000 C   0  0  0  0  0  0  0  0  0  0  0  0
    9.5365   16.4260    0.0000 H   0  0  0  0  0  0  0  0  0  0  0  0
   10.8410   14.1819    0.0000 C   0  0  0  0  0  0  0  0  0  0  0  0
   12.1320   14.9457    0.0000 H   0  0  0  0  0  0  0  0  0  0  0  0
   10.8659   12.6935    0.0000 C   0  0  0  0  0  0  0  0  0  0  0  0
    9.5562   11.9331    0.0000 C   0  0  0  0  0  0  0  0  0  0  0  0
    9.5614   10.4331    0.0000 H   0  0  0  0  0  0  0  0  0  0  0  0
    8.2538   12.6772    0.0000 C   0  0  0  0  0  0  0  0  0  0  0  0
    6.9568   11.9236    0.0000 H   0  0  0  0  0  0  0  0  0  0  0  0
   12.1721   11.9560    0.0000 Cl  0  0  0  0  0  0  0  0  0  0  0  0
    5.6533   12.6871    0.0000 C   0  0  0  0  0  0  0  0  0  0  0  0
    7.1306   12.9471    0.0000 H   0  0  0  0  0  0  0  0  0  0  0  0
    6.1659   11.2774    0.0000 H   0  0  0  0  0  0  0  0  0  0  0  0
    3.1068   11.2179    0.0000 N   0  0  0  0  0  0  0  0  0  0  0  0
    3.1060    9.7171    0.0000 C   0  0  0  0  0  0  0  0  0  0  0  0
    4.5833    9.9772    0.0000 H   0  0  0  0  0  0  0  0  0  0  0  0
    3.6190    8.3075    0.0000 H   0  0  0  0  0  0  0  0  0  0  0  0
    1.8064    8.9665    0.0000 C   0  0  0  0  0  0  0  0  0  0  0  0
    2.7706    7.8174    0.0000 H   0  0  0  0  0  0  0  0  0  0  0  0
    0.8422    7.8174    0.0000 H   0  0  0  0  0  0  0  0  0  0  0  0
    0.5075    9.7167    0.0000 N   0  0  0  0  0  0  0  0  0  0  0  0
    0.5082   11.2175    0.0000 C   0  0  0  0  0  0  0  0  0  0  0  0
   -0.9691   10.9574    0.0000 H   0  0  0  0  0  0  0  0  0  0  0  0
   -0.0048   12.6271    0.0000 H   0  0  0  0  0  0  0  0  0  0  0  0
    1.8078   11.9681    0.0000 C   0  0  0  0  0  0  0  0  0  0  0  0
    0.8436   13.1171    0.0000 H   0  0  0  0  0  0  0  0  0  0  0  0
    2.7721   13.1171    0.0000 H   0  0  0  0  0  0  0  0  0  0  0  0
   -0.7918    8.9671    0.0000 C   0  0  0  0  0  0  0  0  0  0  0  0
   -2.0914    9.7177    0.0000 C   0  0  0  0  0  0  0  0  0  0  0  0
   -2.0907   11.2177    0.0000 H   0  0  0  0  0  0  0  0  0  0  0  0
   -3.3918    8.9683    0.0000 C   0  0  0  0  0  0  0  0  0  0  0  0
   -4.6904    9.7192    0.0000 H   0  0  0  0  0  0  0  0  0  0  0  0
   -3.3925    7.4683    0.0000 C   0  0  0  0  0  0  0  0  0  0  0  0
   -2.0929    6.7177    0.0000 C   0  0  0  0  0  0  0  0  0  0  0  0
   -0.7925    7.4671    0.0000 C   0  0  0  0  0  0  0  0  0  0  0  0
    0.5060    6.7162    0.0000 H   0  0  0  0  0  0  0  0  0  0  0  0
   -2.0941    4.2577    0.0000 O   0  0  0  0  0  0  0  0  0  0  0  0
   -0.7954    3.5071    0.0000 C   0  0  0  0  0  0  0  0  0  0  0  0
   -0.7959    2.0062    0.0000 C   0  0  0  0  0  0  0  0  0  0  0  0
   -2.0954    1.2571    0.0000 H   0  0  0  0  0  0  0  0  0  0  0  0
    0.5032    1.2546    0.0000 C   0  0  0  0  0  0  0  0  0  0  0  0
    1.8027    2.0037    0.0000 C   0  0  0  0  0  0  0  0  0  0  0  0
    2.9154    0.9946    0.0000 N   0  0  0  0  0  0  0  0  0  0  0  0
    4.3832    1.3037    0.0000 H   0  0  0  0  0  0  0  0  0  0  0  0
    2.3066   -0.3721    0.0000 C   0  0  0  0  0  0  0  0  0  0  0  0
    3.0558   -1.6716    0.0000 H   0  0  0  0  0  0  0  0  0  0  0  0
    0.8189   -0.2140    0.0000 C   0  0  0  0  0  0  0  0  0  0  0  0
   -0.1842   -1.3293    0.0000 H   0  0  0  0  0  0  0  0  0  0  0  0
    1.8032    3.5046    0.0000 N   0  0  0  0  0  0  0  0  0  0  0  0
    0.5041    4.2562    0.0000 C   0  0  0  0  0  0  0  0  0  0  0  0
    0.5053    5.7562    0.0000 H   0  0  0  0  0  0  0  0  0  0  0  0
   -4.6918    6.7187    0.0000 C   0  0  0  0  0  0  0  0  0  0  0  0
   -4.6923    5.2187    0.0000 O   0  0  0  0  0  0  0  0  0  0  0  0
   -5.9906    7.4692    0.0000 N   0  0  0  0  0  0  0  0  0  0  0  0
   -5.9901    8.9692    0.0000 H   0  0  0  0  0  0  0  0  0  0  0  0
   -7.2899    6.7196    0.0000 S   0  0  0  0  0  0  0  0  0  0  0  0
   -6.3261    5.5702    0.0000 O   0  0  0  0  0  0  0  0  0  0  0  0
   -8.2544    5.5708    0.0000 O   0  0  0  0  0  0  0  0  0  0  0  0
   -8.5887    7.4700    0.0000 C   0  0  0  0  0  0  0  0  0  0  0  0
   -8.5884    8.9708    0.0000 C   0  0  0  0  0  0  0  0  0  0  0  0
   -7.2890    9.7202    0.0000 H   0  0  0  0  0  0  0  0  0  0  0  0
   -9.8876    9.7223    0.0000 C   0  0  0  0  0  0  0  0  0  0  0  0
   -9.8866   11.2223    0.0000 H   0  0  0  0  0  0  0  0  0  0  0  0
  -11.1870    8.9729    0.0000 C   0  0  0  0  0  0  0  0  0  0  0  0
  -11.1872    7.4721    0.0000 C   0  0  0  0  0  0  0  0  0  0  0  0
   -9.8881    6.7206    0.0000 C   0  0  0  0  0  0  0  0  0  0  0  0
   -9.8890    5.2206    0.0000 H   0  0  0  0  0  0  0  0  0  0  0  0
  -12.4866    6.7227    0.0000 N   0  0  0  0  0  0  0  0  0  0  0  0
  -13.7853    7.4733    0.0000 O   0  0  0  0  0  0  0  0  0  0  0  0
  -12.4874    5.2227    0.0000 O   0  0  0  0  0  0  0  0  0  0  0  0
  -12.4858    9.7233    0.0000 N   0  0  0  0  0  0  0  0  0  0  0  0
  -13.7851    8.9737    0.0000 H   0  0  0  0  0  0  0  0  0  0  0  0
  -12.4853   11.2233    0.0000 C   0  0  0  0  0  0  0  0  0  0  0  0
  -11.0082   10.9624    0.0000 H   0  0  0  0  0  0  0  0  0  0  0  0
  -11.9718   12.6327    0.0000 H   0  0  0  0  0  0  0  0  0  0  0  0
  -14.6153   12.4540    0.0000 C   0  0  0  0  0  0  0  0  0  0  0  0
  -15.1285   11.0445    0.0000 H   0  0  0  0  0  0  0  0  0  0  0  0
  -13.6500   13.6032    0.0000 C   0  0  0  0  0  0  0  0  0  0  0  0
  -12.3507   14.3528    0.0000 H   0  0  0  0  0  0  0  0  0  0  0  0
  -12.6863   12.4537    0.0000 H   0  0  0  0  0  0  0  0  0  0  0  0
  -14.1627   15.0128    0.0000 C   0  0  0  0  0  0  0  0  0  0  0  0
  -14.1627   16.5128    0.0000 H   0  0  0  0  0  0  0  0  0  0  0  0
  -12.6855   15.2732    0.0000 H   0  0  0  0  0  0  0  0  0  0  0  0
  -15.6408   15.2733    0.0000 O   0  0  0  0  0  0  0  0  0  0  0  0
  -16.6061   14.1241    0.0000 C   0  0  0  0  0  0  0  0  0  0  0  0
  -17.9054   13.3745    0.0000 H   0  0  0  0  0  0  0  0  0  0  0  0
  -16.0934   12.7145    0.0000 C   0  0  0  0  0  0  0  0  0  0  0  0
  -16.0934   11.2145    0.0000 H   0  0  0  0  0  0  0  0  0  0  0  0
  -17.5706   12.4541    0.0000 H   0  0  0  0  0  0  0  0  0  0  0  0
  -17.5698   15.2736    0.0000 O   0  0  0  0  0  0  0  0  0  0  0  0
  -19.0471   15.0138    0.0000 H   0  0  0  0  0  0  0  0  0  0  0  0
  1  2  1  0  0  0  0 
  1  3  1  0  0  0  0 
  1  4  1  0  0  0  0 
  1  5  1  0  0  0  0 
  5  6  1  0  0  0  0 
  6  7  1  0  0  0  0 
  6  8  1  0  0  0  0 
  6  9  1  0  0  0  0 
  5 10  1  0  0  0  0 
 10 11  1  0  0  0  0 
 10 12  1  0  0  0  0 
 10 13  1  0  0  0  0 
 13 14  1  0  0  0  0 
 13 15  1  0  0  0  0 
 13 16  1  0  0  0  0 
 16 17  2  0  0  0  0 
 17 18  1  0  0  0  0 
  5 18  1  0  0  0  0 
 18 19  1  0  0  0  0 
 18 20  1  0  0  0  0 
 17 21  1  0  0  0  0 
 21 22  2  0  0  0  0 
 22 23  1  0  0  0  0 
 22 24  1  0  0  0  0 
 24 25  1  0  0  0  0 
 24 26  2  0  0  0  0 
 26 27  1  0  0  0  0 
 27 28  1  0  0  0  0 
 27 29  2  0  0  0  0 
 21 29  1  0  0  0  0 
 29 30  1  0  0  0  0 
 26 31  1  0  0  0  0 
 16 32  1  0  0  0  0 
 32 33  1  0  0  0  0 
 32 34  1  0  0  0  0 
 32 35  1  0  0  0  0 
 35 36  1  0  0  0  0 
 36 37  1  0  0  0  0 
 36 38  1  0  0  0  0 
 36 39  1  0  0  0  0 
 39 40  1  0  0  0  0 
 39 41  1  0  0  0  0 
 39 42  1  0  0  0  0 
 42 43  1  0  0  0  0 
 43 44  1  0  0  0  0 
 43 45  1  0  0  0  0 
 43 46  1  0  0  0  0 
 35 46  1  0  0  0  0 
 46 47  1  0  0  0  0 
 46 48  1  0  0  0  0 
 42 49  1  0  0  0  0 
 49 50  2  0  0  0  0 
 50 51  1  0  0  0  0 
 50 52  1  0  0  0  0 
 52 53  1  0  0  0  0 
 52 54  2  0  0  0  0 
 54 55  1  0  0  0  0 
 55 56  2  0  0  0  0 
 49 56  1  0  0  0  0 
 56 57  1  0  0  0  0 
 55 58  1  0  0  0  0 
 58 59  1  0  0  0  0 
 59 60  2  0  0  0  0 
 60 61  1  0  0  0  0 
 60 62  1  0  0  0  0 
 62 63  2  0  0  0  0 
 63 64  1  0  0  0  0 
 64 65  1  0  0  0  0 
 64 66  1  0  0  0  0 
 66 67  1  0  0  0  0 
 66 68  2  0  0  0  0 
 62 68  1  0  0  0  0 
 68 69  1  0  0  0  0 
 63 70  1  0  0  0  0 
 70 71  2  0  0  0  0 
 59 71  1  0  0  0  0 
 71 72  1  0  0  0  0 
 54 73  1  0  0  0  0 
 73 74  2  0  0  0  0 
 73 75  1  0  0  0  0 
 75 76  1  0  0  0  0 
 75 77  1  0  0  0  0 
 77 78  2  0  0  0  0 
 77 79  2  0  0  0  0 
 77 80  1  0  0  0  0 
 80 81  2  0  0  0  0 
 81 82  1  0  0  0  0 
 81 83  1  0  0  0  0 
 83 84  1  0  0  0  0 
 83 85  2  0  0  0  0 
 85 86  1  0  0  0  0 
 86 87  2  0  0  0  0 
 80 87  1  0  0  0  0 
 87 88  1  0  0  0  0 
 86 89  1  0  0  0  0 
 89 90  2  0  0  0  0 
 89 91  1  0  0  0  0 
 85 92  1  0  0  0  0 
 92 93  1  0  0  0  0 
 92 94  1  0  0  0  0 
 94 95  1  0  0  0  0 
 94 96  1  0  0  0  0 
 94 97  1  0  0  0  0 
 97 98  1  0  0  0  0 
 97 99  1  0  0  0  0 
 99100  1  0  0  0  0 
 99101  1  0  0  0  0 
 99102  1  0  0  0  0 
102103  1  0  0  0  0 
102104  1  0  0  0  0 
102105  1  0  0  0  0 
105106  1  0  0  0  0 
106107  1  0  0  0  0 
106108  1  0  0  0  0 
 97108  1  0  0  0  0 
108109  1  0  0  0  0 
108110  1  0  0  0  0 
106111  1  0  0  0  0 
111112  1  0  0  0  0 
M  CHG  1  89   1
M  CHG  1  91  -1
M  END
> <Rank>
1

> <Priority_score>
0.376

> <Reaction_type>
aliphatic hydroxylation

> <Parent_ID>
12

> <Parent_InChI>
InChI=1S/C45H50ClN7O7S/c1-45(2)15-11-33(39(26-45)31-3-5-34(46)6-4-31)29-51-17-19-52(20-18-51)35-7-9-38(42(24-35)60-36-23-32-12-16-47-43(32)49-28-36)44(54)50-61(57,58)37-8-10-40(41(25-37)53(55)56)48-27-30-13-21-59-22-14-30/h3-10,12,16,23-25,28,30,48H,11,13-15,17-22,26-27,29H2,1-2H3,(H,47,49)(H,50,54)

> <Parent_SMILES>
CC1(C)CCC(CN2CCN(c3ccc(C(=O)NS(=O)(=O)c4ccc(NCC5CCOCC5)c([N+](=O)[O-])c4)c(Oc4cnc5[nH]ccc5c4)c3)CC2)=C(c2ccc(Cl)cc2)C1

$$$$
Molecule 12_metabolite 4
  CDK     0516241031

112119  0  0  0  0  0  0  0  0999 V2000
    4.0755   19.0737    0.0000 C   0  0  0  0  0  0  0  0  0  0  0  0
    2.5982   18.8136    0.0000 H   0  0  0  0  0  0  0  0  0  0  0  0
    5.3747   19.8233    0.0000 H   0  0  0  0  0  0  0  0  0  0  0  0
    3.5628   20.4833    0.0000 H   0  0  0  0  0  0  0  0  0  0  0  0
    5.6562   17.1888    0.0000 C   0  0  0  0  0  0  0  0  0  0  0  0
    7.2382   19.0726    0.0000 C   0  0  0  0  0  0  0  0  0  0  0  0
    6.7257   20.4824    0.0000 H   0  0  0  0  0  0  0  0  0  0  0  0
    8.5375   19.8222    0.0000 H   0  0  0  0  0  0  0  0  0  0  0  0
    8.2019   17.9232    0.0000 H   0  0  0  0  0  0  0  0  0  0  0  0
    4.3563   16.4386    0.0000 C   0  0  0  0  0  0  0  0  0  0  0  0
    2.8790   16.1789    0.0000 H   0  0  0  0  0  0  0  0  0  0  0  0
    3.8438   17.8483    0.0000 H   0  0  0  0  0  0  0  0  0  0  0  0
    4.3551   14.9377    0.0000 C   0  0  0  0  0  0  0  0  0  0  0  0
    3.6768   13.0775    0.0000 H   0  0  0  0  0  0  0  0  0  0  0  0
    2.8781   15.1992    0.0000 H   0  0  0  0  0  0  0  0  0  0  0  0
    5.6538   14.1871    0.0000 C   0  0  0  0  0  0  0  0  0  0  0  0
    6.9537   14.9373    0.0000 C   0  0  0  0  0  0  0  0  0  0  0  0
    6.9549   16.4381    0.0000 C   0  0  0  0  0  0  0  0  0  0  0  0
    7.4688   17.8474    0.0000 H   0  0  0  0  0  0  0  0  0  0  0  0
    8.4319   16.1766    0.0000 H   0  0  0  0  0  0  0  0  0  0  0  0
    8.2524   14.1867    0.0000 C   0  0  0  0  0  0  0  0  0  0  0  0
    9.5386   14.9260    0.0000 C   0  0  0  0  0  0  0  0  0  0  0  0
    9.5365   16.4260    0.0000 H   0  0  0  0  0  0  0  0  0  0  0  0
   10.8410   14.1819    0.0000 C   0  0  0  0  0  0  0  0  0  0  0  0
   12.1320   14.9457    0.0000 H   0  0  0  0  0  0  0  0  0  0  0  0
   10.8659   12.6935    0.0000 C   0  0  0  0  0  0  0  0  0  0  0  0
    9.5562   11.9331    0.0000 C   0  0  0  0  0  0  0  0  0  0  0  0
    9.5614   10.4331    0.0000 H   0  0  0  0  0  0  0  0  0  0  0  0
    8.2538   12.6772    0.0000 C   0  0  0  0  0  0  0  0  0  0  0  0
    6.9568   11.9236    0.0000 H   0  0  0  0  0  0  0  0  0  0  0  0
   12.1721   11.9560    0.0000 Cl  0  0  0  0  0  0  0  0  0  0  0  0
    5.6533   12.6871    0.0000 C   0  0  0  0  0  0  0  0  0  0  0  0
    7.1306   12.9471    0.0000 H   0  0  0  0  0  0  0  0  0  0  0  0
    6.1659   11.2774    0.0000 H   0  0  0  0  0  0  0  0  0  0  0  0
    3.1068   11.2179    0.0000 N   0  0  0  0  0  0  0  0  0  0  0  0
    3.1060    9.7171    0.0000 C   0  0  0  0  0  0  0  0  0  0  0  0
    4.5833    9.9772    0.0000 H   0  0  0  0  0  0  0  0  0  0  0  0
    3.6190    8.3075    0.0000 H   0  0  0  0  0  0  0  0  0  0  0  0
    1.8064    8.9665    0.0000 C   0  0  0  0  0  0  0  0  0  0  0  0
    2.7706    7.8174    0.0000 H   0  0  0  0  0  0  0  0  0  0  0  0
    0.8422    7.8174    0.0000 H   0  0  0  0  0  0  0  0  0  0  0  0
    0.5075    9.7167    0.0000 N   0  0  0  0  0  0  0  0  0  0  0  0
    0.5082   11.2175    0.0000 C   0  0  0  0  0  0  0  0  0  0  0  0
   -0.9691   10.9574    0.0000 H   0  0  0  0  0  0  0  0  0  0  0  0
   -0.0048   12.6271    0.0000 H   0  0  0  0  0  0  0  0  0  0  0  0
    1.8078   11.9681    0.0000 C   0  0  0  0  0  0  0  0  0  0  0  0
    0.8436   13.1171    0.0000 H   0  0  0  0  0  0  0  0  0  0  0  0
    2.7721   13.1171    0.0000 H   0  0  0  0  0  0  0  0  0  0  0  0
   -0.7918    8.9671    0.0000 C   0  0  0  0  0  0  0  0  0  0  0  0
   -2.0914    9.7177    0.0000 C   0  0  0  0  0  0  0  0  0  0  0  0
   -2.0907   11.2177    0.0000 H   0  0  0  0  0  0  0  0  0  0  0  0
   -3.3918    8.9683    0.0000 C   0  0  0  0  0  0  0  0  0  0  0  0
   -4.6904    9.7192    0.0000 H   0  0  0  0  0  0  0  0  0  0  0  0
   -3.3925    7.4683    0.0000 C   0  0  0  0  0  0  0  0  0  0  0  0
   -2.0929    6.7177    0.0000 C   0  0  0  0  0  0  0  0  0  0  0  0
   -0.7925    7.4671    0.0000 C   0  0  0  0  0  0  0  0  0  0  0  0
    0.5060    6.7162    0.0000 H   0  0  0  0  0  0  0  0  0  0  0  0
   -2.0941    4.2577    0.0000 O   0  0  0  0  0  0  0  0  0  0  0  0
   -0.7954    3.5071    0.0000 C   0  0  0  0  0  0  0  0  0  0  0  0
   -0.7959    2.0062    0.0000 C   0  0  0  0  0  0  0  0  0  0  0  0
   -2.0954    1.2571    0.0000 H   0  0  0  0  0  0  0  0  0  0  0  0
    0.5032    1.2546    0.0000 C   0  0  0  0  0  0  0  0  0  0  0  0
    1.8027    2.0037    0.0000 C   0  0  0  0  0  0  0  0  0  0  0  0
    2.9154    0.9946    0.0000 N   0  0  0  0  0  0  0  0  0  0  0  0
    4.3832    1.3037    0.0000 H   0  0  0  0  0  0  0  0  0  0  0  0
    2.3066   -0.3721    0.0000 C   0  0  0  0  0  0  0  0  0  0  0  0
    3.0558   -1.6716    0.0000 H   0  0  0  0  0  0  0  0  0  0  0  0
    0.8189   -0.2140    0.0000 C   0  0  0  0  0  0  0  0  0  0  0  0
   -0.1842   -1.3293    0.0000 H   0  0  0  0  0  0  0  0  0  0  0  0
    1.8032    3.5046    0.0000 N   0  0  0  0  0  0  0  0  0  0  0  0
    0.5041    4.2562    0.0000 C   0  0  0  0  0  0  0  0  0  0  0  0
    0.5053    5.7562    0.0000 H   0  0  0  0  0  0  0  0  0  0  0  0
   -4.6918    6.7187    0.0000 C   0  0  0  0  0  0  0  0  0  0  0  0
   -4.6923    5.2187    0.0000 O   0  0  0  0  0  0  0  0  0  0  0  0
   -5.9906    7.4692    0.0000 N   0  0  0  0  0  0  0  0  0  0  0  0
   -5.9901    8.9692    0.0000 H   0  0  0  0  0  0  0  0  0  0  0  0
   -7.2899    6.7196    0.0000 S   0  0  0  0  0  0  0  0  0  0  0  0
   -6.3261    5.5702    0.0000 O   0  0  0  0  0  0  0  0  0  0  0  0
   -8.2544    5.5708    0.0000 O   0  0  0  0  0  0  0  0  0  0  0  0
   -8.5887    7.4700    0.0000 C   0  0  0  0  0  0  0  0  0  0  0  0
   -8.5884    8.9708    0.0000 C   0  0  0  0  0  0  0  0  0  0  0  0
   -7.2890    9.7202    0.0000 H   0  0  0  0  0  0  0  0  0  0  0  0
   -9.8876    9.7223    0.0000 C   0  0  0  0  0  0  0  0  0  0  0  0
   -9.8866   11.2223    0.0000 H   0  0  0  0  0  0  0  0  0  0  0  0
  -11.1870    8.9729    0.0000 C   0  0  0  0  0  0  0  0  0  0  0  0
  -11.1872    7.4721    0.0000 C   0  0  0  0  0  0  0  0  0  0  0  0
   -9.8881    6.7206    0.0000 C   0  0  0  0  0  0  0  0  0  0  0  0
   -9.8890    5.2206    0.0000 H   0  0  0  0  0  0  0  0  0  0  0  0
  -12.4866    6.7227    0.0000 N   0  0  0  0  0  0  0  0  0  0  0  0
  -13.7853    7.4733    0.0000 O   0  0  0  0  0  0  0  0  0  0  0  0
  -11.5230    5.5732    0.0000 O   0  0  0  0  0  0  0  0  0  0  0  0
  -13.4514    5.5741    0.0000 O   0  0  0  0  0  0  0  0  0  0  0  0
  -12.4858    9.7233    0.0000 N   0  0  0  0  0  0  0  0  0  0  0  0
  -13.7851    8.9737    0.0000 H   0  0  0  0  0  0  0  0  0  0  0  0
  -12.4853   11.2233    0.0000 C   0  0  0  0  0  0  0  0  0  0  0  0
  -11.0082   10.9624    0.0000 H   0  0  0  0  0  0  0  0  0  0  0  0
  -11.9718   12.6327    0.0000 H   0  0  0  0  0  0  0  0  0  0  0  0
  -14.6153   12.4540    0.0000 C   0  0  0  0  0  0  0  0  0  0  0  0
  -15.1285   11.0445    0.0000 H   0  0  0  0  0  0  0  0  0  0  0  0
  -13.6500   13.6032    0.0000 C   0  0  0  0  0  0  0  0  0  0  0  0
  -12.3507   14.3528    0.0000 H   0  0  0  0  0  0  0  0  0  0  0  0
  -12.6863   12.4537    0.0000 H   0  0  0  0  0  0  0  0  0  0  0  0
  -14.1627   15.0128    0.0000 C   0  0  0  0  0  0  0  0  0  0  0  0
  -14.1627   16.5128    0.0000 H   0  0  0  0  0  0  0  0  0  0  0  0
  -12.6855   15.2732    0.0000 H   0  0  0  0  0  0  0  0  0  0  0  0
  -15.6408   15.2733    0.0000 O   0  0  0  0  0  0  0  0  0  0  0  0
  -16.6061   14.1241    0.0000 C   0  0  0  0  0  0  0  0  0  0  0  0
  -17.9054   13.3745    0.0000 H   0  0  0  0  0  0  0  0  0  0  0  0
  -17.5698   15.2736    0.0000 H   0  0  0  0  0  0  0  0  0  0  0  0
  -16.0934   12.7145    0.0000 C   0  0  0  0  0  0  0  0  0  0  0  0
  -16.0934   11.2145    0.0000 H   0  0  0  0  0  0  0  0  0  0  0  0
  -17.5706   12.4541    0.0000 H   0  0  0  0  0  0  0  0  0  0  0  0
  1  2  1  0  0  0  0 
  1  3  1  0  0  0  0 
  1  4  1  0  0  0  0 
  1  5  1  0  0  0  0 
  5  6  1  0  0  0  0 
  6  7  1  0  0  0  0 
  6  8  1  0  0  0  0 
  6  9  1  0  0  0  0 
  5 10  1  0  0  0  0 
 10 11  1  0  0  0  0 
 10 12  1  0  0  0  0 
 10 13  1  0  0  0  0 
 13 14  1  0  0  0  0 
 13 15  1  0  0  0  0 
 13 16  1  0  0  0  0 
 16 17  2  0  0  0  0 
 17 18  1  0  0  0  0 
  5 18  1  0  0  0  0 
 18 19  1  0  0  0  0 
 18 20  1  0  0  0  0 
 17 21  1  0  0  0  0 
 21 22  2  0  0  0  0 
 22 23  1  0  0  0  0 
 22 24  1  0  0  0  0 
 24 25  1  0  0  0  0 
 24 26  2  0  0  0  0 
 26 27  1  0  0  0  0 
 27 28  1  0  0  0  0 
 27 29  2  0  0  0  0 
 21 29  1  0  0  0  0 
 29 30  1  0  0  0  0 
 26 31  1  0  0  0  0 
 16 32  1  0  0  0  0 
 32 33  1  0  0  0  0 
 32 34  1  0  0  0  0 
 32 35  1  0  0  0  0 
 35 36  1  0  0  0  0 
 36 37  1  0  0  0  0 
 36 38  1  0  0  0  0 
 36 39  1  0  0  0  0 
 39 40  1  0  0  0  0 
 39 41  1  0  0  0  0 
 39 42  1  0  0  0  0 
 42 43  1  0  0  0  0 
 43 44  1  0  0  0  0 
 43 45  1  0  0  0  0 
 43 46  1  0  0  0  0 
 35 46  1  0  0  0  0 
 46 47  1  0  0  0  0 
 46 48  1  0  0  0  0 
 42 49  1  0  0  0  0 
 49 50  2  0  0  0  0 
 50 51  1  0  0  0  0 
 50 52  1  0  0  0  0 
 52 53  1  0  0  0  0 
 52 54  2  0  0  0  0 
 54 55  1  0  0  0  0 
 55 56  2  0  0  0  0 
 49 56  1  0  0  0  0 
 56 57  1  0  0  0  0 
 55 58  1  0  0  0  0 
 58 59  1  0  0  0  0 
 59 60  2  0  0  0  0 
 60 61  1  0  0  0  0 
 60 62  1  0  0  0  0 
 62 63  2  0  0  0  0 
 63 64  1  0  0  0  0 
 64 65  1  0  0  0  0 
 64 66  1  0  0  0  0 
 66 67  1  0  0  0  0 
 66 68  2  0  0  0  0 
 62 68  1  0  0  0  0 
 68 69  1  0  0  0  0 
 63 70  1  0  0  0  0 
 70 71  2  0  0  0  0 
 59 71  1  0  0  0  0 
 71 72  1  0  0  0  0 
 54 73  1  0  0  0  0 
 73 74  2  0  0  0  0 
 73 75  1  0  0  0  0 
 75 76  1  0  0  0  0 
 75 77  1  0  0  0  0 
 77 78  2  0  0  0  0 
 77 79  2  0  0  0  0 
 77 80  1  0  0  0  0 
 80 81  2  0  0  0  0 
 81 82  1  0  0  0  0 
 81 83  1  0  0  0  0 
 83 84  1  0  0  0  0 
 83 85  2  0  0  0  0 
 85 86  1  0  0  0  0 
 86 87  2  0  0  0  0 
 80 87  1  0  0  0  0 
 87 88  1  0  0  0  0 
 86 89  1  0  0  0  0 
 89 90  2  0  0  0  0 
 89 91  1  0  0  0  0 
 89 92  1  0  0  0  0 
 85 93  1  0  0  0  0 
 93 94  1  0  0  0  0 
 93 95  1  0  0  0  0 
 95 96  1  0  0  0  0 
 95 97  1  0  0  0  0 
 95 98  1  0  0  0  0 
 98 99  1  0  0  0  0 
 98100  1  0  0  0  0 
100101  1  0  0  0  0 
100102  1  0  0  0  0 
100103  1  0  0  0  0 
103104  1  0  0  0  0 
103105  1  0  0  0  0 
103106  1  0  0  0  0 
106107  1  0  0  0  0 
107108  1  0  0  0  0 
107109  1  0  0  0  0 
107110  1  0  0  0  0 
 98110  1  0  0  0  0 
110111  1  0  0  0  0 
110112  1  0  0  0  0 
M  CHG  1  89   1
M  CHG  1  91  -1
M  CHG  1  92  -1
M  END
> <Rank>
4

> <Priority_score>
0.272

> <Reaction_type>
N-oxidation

> <Parent_ID>
12

> <Parent_InChI>
InChI=1S/C45H50ClN7O7S/c1-45(2)15-11-33(39(26-45)31-3-5-34(46)6-4-31)29-51-17-19-52(20-18-51)35-7-9-38(42(24-35)60-36-23-32-12-16-47-43(32)49-28-36)44(54)50-61(57,58)37-8-10-40(41(25-37)53(55)56)48-27-30-13-21-59-22-14-30/h3-10,12,16,23-25,28,30,48H,11,13-15,17-22,26-27,29H2,1-2H3,(H,47,49)(H,50,54)

> <Parent_SMILES>
CC1(C)CCC(CN2CCN(c3ccc(C(=O)NS(=O)(=O)c4ccc(NCC5CCOCC5)c([N+](=O)[O-])c4)c(Oc4cnc5[nH]ccc5c4)c3)CC2)=C(c2ccc(Cl)cc2)C1

$$$$
Molecule 12_metabolite 5
  CDK     0516241031

112119  0  0  0  0  0  0  0  0999 V2000
    4.0755   19.0737    0.0000 C   0  0  0  0  0  0  0  0  0  0  0  0
    2.5982   18.8136    0.0000 H   0  0  0  0  0  0  0  0  0  0  0  0
    5.3747   19.8233    0.0000 H   0  0  0  0  0  0  0  0  0  0  0  0
    3.5628   20.4833    0.0000 H   0  0  0  0  0  0  0  0  0  0  0  0
    5.6562   17.1888    0.0000 C   0  0  0  0  0  0  0  0  0  0  0  0
    7.2382   19.0726    0.0000 C   0  0  0  0  0  0  0  0  0  0  0  0
    6.7257   20.4824    0.0000 H   0  0  0  0  0  0  0  0  0  0  0  0
    8.5375   19.8222    0.0000 H   0  0  0  0  0  0  0  0  0  0  0  0
    8.2019   17.9232    0.0000 H   0  0  0  0  0  0  0  0  0  0  0  0
    4.3563   16.4386    0.0000 C   0  0  0  0  0  0  0  0  0  0  0  0
    2.8790   16.1789    0.0000 H   0  0  0  0  0  0  0  0  0  0  0  0
    3.8438   17.8483    0.0000 H   0  0  0  0  0  0  0  0  0  0  0  0
    4.3551   14.9377    0.0000 C   0  0  0  0  0  0  0  0  0  0  0  0
    3.6768   13.0775    0.0000 H   0  0  0  0  0  0  0  0  0  0  0  0
    2.8781   15.1992    0.0000 H   0  0  0  0  0  0  0  0  0  0  0  0
    5.6538   14.1871    0.0000 C   0  0  0  0  0  0  0  0  0  0  0  0
    6.9537   14.9373    0.0000 C   0  0  0  0  0  0  0  0  0  0  0  0
    6.9549   16.4381    0.0000 C   0  0  0  0  0  0  0  0  0  0  0  0
    7.4688   17.8474    0.0000 H   0  0  0  0  0  0  0  0  0  0  0  0
    8.4319   16.1766    0.0000 H   0  0  0  0  0  0  0  0  0  0  0  0
    8.2524   14.1867    0.0000 C   0  0  0  0  0  0  0  0  0  0  0  0
    9.5386   14.9260    0.0000 C   0  0  0  0  0  0  0  0  0  0  0  0
    9.5365   16.4260    0.0000 H   0  0  0  0  0  0  0  0  0  0  0  0
   10.8410   14.1819    0.0000 C   0  0  0  0  0  0  0  0  0  0  0  0
   12.1320   14.9457    0.0000 H   0  0  0  0  0  0  0  0  0  0  0  0
   10.8659   12.6935    0.0000 C   0  0  0  0  0  0  0  0  0  0  0  0
    9.5562   11.9331    0.0000 C   0  0  0  0  0  0  0  0  0  0  0  0
    9.5614   10.4331    0.0000 H   0  0  0  0  0  0  0  0  0  0  0  0
    8.2538   12.6772    0.0000 C   0  0  0  0  0  0  0  0  0  0  0  0
    6.9568   11.9236    0.0000 H   0  0  0  0  0  0  0  0  0  0  0  0
   12.1721   11.9560    0.0000 Cl  0  0  0  0  0  0  0  0  0  0  0  0
    5.6533   12.6871    0.0000 C   0  0  0  0  0  0  0  0  0  0  0  0
    7.1306   12.9471    0.0000 H   0  0  0  0  0  0  0  0  0  0  0  0
    6.1659   11.2774    0.0000 H   0  0  0  0  0  0  0  0  0  0  0  0
    3.1068   11.2179    0.0000 N   0  0  0  0  0  0  0  0  0  0  0  0
    3.1060    9.7171    0.0000 C   0  0  0  0  0  0  0  0  0  0  0  0
    4.5833    9.9772    0.0000 H   0  0  0  0  0  0  0  0  0  0  0  0
    3.6190    8.3075    0.0000 H   0  0  0  0  0  0  0  0  0  0  0  0
    1.8064    8.9665    0.0000 C   0  0  0  0  0  0  0  0  0  0  0  0
    2.7706    7.8174    0.0000 H   0  0  0  0  0  0  0  0  0  0  0  0
    0.8422    7.8174    0.0000 H   0  0  0  0  0  0  0  0  0  0  0  0
    0.5075    9.7167    0.0000 N   0  0  0  0  0  0  0  0  0  0  0  0
    0.5082   11.2175    0.0000 C   0  0  0  0  0  0  0  0  0  0  0  0
   -0.9691   10.9574    0.0000 H   0  0  0  0  0  0  0  0  0  0  0  0
   -0.0048   12.6271    0.0000 H   0  0  0  0  0  0  0  0  0  0  0  0
    1.8078   11.9681    0.0000 C   0  0  0  0  0  0  0  0  0  0  0  0
    0.8436   13.1171    0.0000 H   0  0  0  0  0  0  0  0  0  0  0  0
    2.7721   13.1171    0.0000 H   0  0  0  0  0  0  0  0  0  0  0  0
   -0.7918    8.9671    0.0000 C   0  0  0  0  0  0  0  0  0  0  0  0
   -2.0914    9.7177    0.0000 C   0  0  0  0  0  0  0  0  0  0  0  0
   -2.0907   11.2177    0.0000 H   0  0  0  0  0  0  0  0  0  0  0  0
   -3.3918    8.9683    0.0000 C   0  0  0  0  0  0  0  0  0  0  0  0
   -4.6904    9.7192    0.0000 H   0  0  0  0  0  0  0  0  0  0  0  0
   -3.3925    7.4683    0.0000 C   0  0  0  0  0  0  0  0  0  0  0  0
   -2.0929    6.7177    0.0000 C   0  0  0  0  0  0  0  0  0  0  0  0
   -0.7925    7.4671    0.0000 C   0  0  0  0  0  0  0  0  0  0  0  0
    0.5060    6.7162    0.0000 H   0  0  0  0  0  0  0  0  0  0  0  0
   -2.0941    4.2577    0.0000 O   0  0  0  0  0  0  0  0  0  0  0  0
   -0.7954    3.5071    0.0000 C   0  0  0  0  0  0  0  0  0  0  0  0
   -0.7959    2.0062    0.0000 C   0  0  0  0  0  0  0  0  0  0  0  0
   -2.0954    1.2571    0.0000 H   0  0  0  0  0  0  0  0  0  0  0  0
    0.5032    1.2546    0.0000 C   0  0  0  0  0  0  0  0  0  0  0  0
    1.8027    2.0037    0.0000 C   0  0  0  0  0  0  0  0  0  0  0  0
    2.9154    0.9946    0.0000 N   0  0  0  0  0  0  0  0  0  0  0  0
    4.3832    1.3037    0.0000 H   0  0  0  0  0  0  0  0  0  0  0  0
    2.3066   -0.3721    0.0000 C   0  0  0  0  0  0  0  0  0  0  0  0
    3.0558   -1.6716    0.0000 H   0  0  0  0  0  0  0  0  0  0  0  0
    0.8189   -0.2140    0.0000 C   0  0  0  0  0  0  0  0  0  0  0  0
   -0.1842   -1.3293    0.0000 H   0  0  0  0  0  0  0  0  0  0  0  0
    1.8032    3.5046    0.0000 N   0  0  0  0  0  0  0  0  0  0  0  0
    0.5041    4.2562    0.0000 C   0  0  0  0  0  0  0  0  0  0  0  0
    0.5053    5.7562    0.0000 H   0  0  0  0  0  0  0  0  0  0  0  0
   -4.6918    6.7187    0.0000 C   0  0  0  0  0  0  0  0  0  0  0  0
   -4.6923    5.2187    0.0000 O   0  0  0  0  0  0  0  0  0  0  0  0
   -5.9906    7.4692    0.0000 N   0  0  0  0  0  0  0  0  0  0  0  0
   -5.9901    8.9692    0.0000 H   0  0  0  0  0  0  0  0  0  0  0  0
   -7.2899    6.7196    0.0000 S   0  0  0  0  0  0  0  0  0  0  0  0
   -6.3261    5.5702    0.0000 O   0  0  0  0  0  0  0  0  0  0  0  0
   -8.2544    5.5708    0.0000 O   0  0  0  0  0  0  0  0  0  0  0  0
   -8.5887    7.4700    0.0000 C   0  0  0  0  0  0  0  0  0  0  0  0
   -8.5884    8.9708    0.0000 C   0  0  0  0  0  0  0  0  0  0  0  0
   -7.2890    9.7202    0.0000 H   0  0  0  0  0  0  0  0  0  0  0  0
   -9.8876    9.7223    0.0000 C   0  0  0  0  0  0  0  0  0  0  0  0
   -9.8866   11.2223    0.0000 H   0  0  0  0  0  0  0  0  0  0  0  0
  -11.1870    8.9729    0.0000 C   0  0  0  0  0  0  0  0  0  0  0  0
  -11.1872    7.4721    0.0000 C   0  0  0  0  0  0  0  0  0  0  0  0
   -9.8881    6.7206    0.0000 C   0  0  0  0  0  0  0  0  0  0  0  0
   -9.8890    5.2206    0.0000 O   0  0  0  0  0  0  0  0  0  0  0  0
  -11.1886    4.4714    0.0000 H   0  0  0  0  0  0  0  0  0  0  0  0
  -12.4866    6.7227    0.0000 N   0  0  0  0  0  0  0  0  0  0  0  0
  -13.7853    7.4733    0.0000 O   0  0  0  0  0  0  0  0  0  0  0  0
  -12.4874    5.2227    0.0000 O   0  0  0  0  0  0  0  0  0  0  0  0
  -12.4858    9.7233    0.0000 N   0  0  0  0  0  0  0  0  0  0  0  0
  -13.7851    8.9737    0.0000 H   0  0  0  0  0  0  0  0  0  0  0  0
  -12.4853   11.2233    0.0000 C   0  0  0  0  0  0  0  0  0  0  0  0
  -11.0082   10.9624    0.0000 H   0  0  0  0  0  0  0  0  0  0  0  0
  -11.9718   12.6327    0.0000 H   0  0  0  0  0  0  0  0  0  0  0  0
  -14.6153   12.4540    0.0000 C   0  0  0  0  0  0  0  0  0  0  0  0
  -15.1285   11.0445    0.0000 H   0  0  0  0  0  0  0  0  0  0  0  0
  -13.6500   13.6032    0.0000 C   0  0  0  0  0  0  0  0  0  0  0  0
  -12.3507   14.3528    0.0000 H   0  0  0  0  0  0  0  0  0  0  0  0
  -12.6863   12.4537    0.0000 H   0  0  0  0  0  0  0  0  0  0  0  0
  -14.1627   15.0128    0.0000 C   0  0  0  0  0  0  0  0  0  0  0  0
  -14.1627   16.5128    0.0000 H   0  0  0  0  0  0  0  0  0  0  0  0
  -12.6855   15.2732    0.0000 H   0  0  0  0  0  0  0  0  0  0  0  0
  -15.6408   15.2733    0.0000 O   0  0  0  0  0  0  0  0  0  0  0  0
  -16.6061   14.1241    0.0000 C   0  0  0  0  0  0  0  0  0  0  0  0
  -17.9054   13.3745    0.0000 H   0  0  0  0  0  0  0  0  0  0  0  0
  -17.5698   15.2736    0.0000 H   0  0  0  0  0  0  0  0  0  0  0  0
  -16.0934   12.7145    0.0000 C   0  0  0  0  0  0  0  0  0  0  0  0
  -16.0934   11.2145    0.0000 H   0  0  0  0  0  0  0  0  0  0  0  0
  -17.5706   12.4541    0.0000 H   0  0  0  0  0  0  0  0  0  0  0  0
  1  2  1  0  0  0  0 
  1  3  1  0  0  0  0 
  1  4  1  0  0  0  0 
  1  5  1  0  0  0  0 
  5  6  1  0  0  0  0 
  6  7  1  0  0  0  0 
  6  8  1  0  0  0  0 
  6  9  1  0  0  0  0 
  5 10  1  0  0  0  0 
 10 11  1  0  0  0  0 
 10 12  1  0  0  0  0 
 10 13  1  0  0  0  0 
 13 14  1  0  0  0  0 
 13 15  1  0  0  0  0 
 13 16  1  0  0  0  0 
 16 17  2  0  0  0  0 
 17 18  1  0  0  0  0 
  5 18  1  0  0  0  0 
 18 19  1  0  0  0  0 
 18 20  1  0  0  0  0 
 17 21  1  0  0  0  0 
 21 22  2  0  0  0  0 
 22 23  1  0  0  0  0 
 22 24  1  0  0  0  0 
 24 25  1  0  0  0  0 
 24 26  2  0  0  0  0 
 26 27  1  0  0  0  0 
 27 28  1  0  0  0  0 
 27 29  2  0  0  0  0 
 21 29  1  0  0  0  0 
 29 30  1  0  0  0  0 
 26 31  1  0  0  0  0 
 16 32  1  0  0  0  0 
 32 33  1  0  0  0  0 
 32 34  1  0  0  0  0 
 32 35  1  0  0  0  0 
 35 36  1  0  0  0  0 
 36 37  1  0  0  0  0 
 36 38  1  0  0  0  0 
 36 39  1  0  0  0  0 
 39 40  1  0  0  0  0 
 39 41  1  0  0  0  0 
 39 42  1  0  0  0  0 
 42 43  1  0  0  0  0 
 43 44  1  0  0  0  0 
 43 45  1  0  0  0  0 
 43 46  1  0  0  0  0 
 35 46  1  0  0  0  0 
 46 47  1  0  0  0  0 
 46 48  1  0  0  0  0 
 42 49  1  0  0  0  0 
 49 50  2  0  0  0  0 
 50 51  1  0  0  0  0 
 50 52  1  0  0  0  0 
 52 53  1  0  0  0  0 
 52 54  2  0  0  0  0 
 54 55  1  0  0  0  0 
 55 56  2  0  0  0  0 
 49 56  1  0  0  0  0 
 56 57  1  0  0  0  0 
 55 58  1  0  0  0  0 
 58 59  1  0  0  0  0 
 59 60  2  0  0  0  0 
 60 61  1  0  0  0  0 
 60 62  1  0  0  0  0 
 62 63  2  0  0  0  0 
 63 64  1  0  0  0  0 
 64 65  1  0  0  0  0 
 64 66  1  0  0  0  0 
 66 67  1  0  0  0  0 
 66 68  2  0  0  0  0 
 62 68  1  0  0  0  0 
 68 69  1  0  0  0  0 
 63 70  1  0  0  0  0 
 70 71  2  0  0  0  0 
 59 71  1  0  0  0  0 
 71 72  1  0  0  0  0 
 54 73  1  0  0  0  0 
 73 74  2  0  0  0  0 
 73 75  1  0  0  0  0 
 75 76  1  0  0  0  0 
 75 77  1  0  0  0  0 
 77 78  2  0  0  0  0 
 77 79  2  0  0  0  0 
 77 80  1  0  0  0  0 
 80 81  2  0  0  0  0 
 81 82  1  0  0  0  0 
 81 83  1  0  0  0  0 
 83 84  1  0  0  0  0 
 83 85  2  0  0  0  0 
 85 86  1  0  0  0  0 
 86 87  2  0  0  0  0 
 80 87  1  0  0  0  0 
 87 88  1  0  0  0  0 
 88 89  1  0  0  0  0 
 86 90  1  0  0  0  0 
 90 91  2  0  0  0  0 
 90 92  1  0  0  0  0 
 85 93  1  0  0  0  0 
 93 94  1  0  0  0  0 
 93 95  1  0  0  0  0 
 95 96  1  0  0  0  0 
 95 97  1  0  0  0  0 
 95 98  1  0  0  0  0 
 98 99  1  0  0  0  0 
 98100  1  0  0  0  0 
100101  1  0  0  0  0 
100102  1  0  0  0  0 
100103  1  0  0  0  0 
103104  1  0  0  0  0 
103105  1  0  0  0  0 
103106  1  0  0  0  0 
106107  1  0  0  0  0 
107108  1  0  0  0  0 
107109  1  0  0  0  0 
107110  1  0  0  0  0 
 98110  1  0  0  0  0 
110111  1  0  0  0  0 
110112  1  0  0  0  0 
M  CHG  1  90   1
M  CHG  1  92  -1
M  END
> <Rank>
4

> <Priority_score>
0.272

> <Reaction_type>
aromatic_hydroxylation_(ortho_to_nitrogen)

> <Parent_ID>
12

> <Parent_InChI>
InChI=1S/C45H50ClN7O7S/c1-45(2)15-11-33(39(26-45)31-3-5-34(46)6-4-31)29-51-17-19-52(20-18-51)35-7-9-38(42(24-35)60-36-23-32-12-16-47-43(32)49-28-36)44(54)50-61(57,58)37-8-10-40(41(25-37)53(55)56)48-27-30-13-21-59-22-14-30/h3-10,12,16,23-25,28,30,48H,11,13-15,17-22,26-27,29H2,1-2H3,(H,47,49)(H,50,54)

> <Parent_SMILES>
CC1(C)CCC(CN2CCN(c3ccc(C(=O)NS(=O)(=O)c4ccc(NCC5CCOCC5)c([N+](=O)[O-])c4)c(Oc4cnc5[nH]ccc5c4)c3)CC2)=C(c2ccc(Cl)cc2)C1

$$$$
Molecule 12_metabolite 6
  CDK     0516241031

112119  0  0  0  0  0  0  0  0999 V2000
    4.0755   19.0737    0.0000 C   0  0  0  0  0  0  0  0  0  0  0  0
    2.5982   18.8136    0.0000 H   0  0  0  0  0  0  0  0  0  0  0  0
    5.3747   19.8233    0.0000 H   0  0  0  0  0  0  0  0  0  0  0  0
    3.5628   20.4833    0.0000 H   0  0  0  0  0  0  0  0  0  0  0  0
    5.6562   17.1888    0.0000 C   0  0  0  0  0  0  0  0  0  0  0  0
    7.2382   19.0726    0.0000 C   0  0  0  0  0  0  0  0  0  0  0  0
    6.7257   20.4824    0.0000 H   0  0  0  0  0  0  0  0  0  0  0  0
    8.5375   19.8222    0.0000 H   0  0  0  0  0  0  0  0  0  0  0  0
    8.2019   17.9232    0.0000 H   0  0  0  0  0  0  0  0  0  0  0  0
    4.3563   16.4386    0.0000 C   0  0  0  0  0  0  0  0  0  0  0  0
    2.8790   16.1789    0.0000 H   0  0  0  0  0  0  0  0  0  0  0  0
    3.8438   17.8483    0.0000 H   0  0  0  0  0  0  0  0  0  0  0  0
    4.3551   14.9377    0.0000 C   0  0  0  0  0  0  0  0  0  0  0  0
    3.6768   13.0775    0.0000 H   0  0  0  0  0  0  0  0  0  0  0  0
    2.8781   15.1992    0.0000 H   0  0  0  0  0  0  0  0  0  0  0  0
    5.6538   14.1871    0.0000 C   0  0  0  0  0  0  0  0  0  0  0  0
    6.9537   14.9373    0.0000 C   0  0  0  0  0  0  0  0  0  0  0  0
    6.9549   16.4381    0.0000 C   0  0  0  0  0  0  0  0  0  0  0  0
    7.4688   17.8474    0.0000 H   0  0  0  0  0  0  0  0  0  0  0  0
    8.4319   16.1766    0.0000 H   0  0  0  0  0  0  0  0  0  0  0  0
    8.2524   14.1867    0.0000 C   0  0  0  0  0  0  0  0  0  0  0  0
    9.5386   14.9260    0.0000 C   0  0  0  0  0  0  0  0  0  0  0  0
    9.5365   16.4260    0.0000 H   0  0  0  0  0  0  0  0  0  0  0  0
   10.8410   14.1819    0.0000 C   0  0  0  0  0  0  0  0  0  0  0  0
   12.1320   14.9457    0.0000 H   0  0  0  0  0  0  0  0  0  0  0  0
   10.8659   12.6935    0.0000 C   0  0  0  0  0  0  0  0  0  0  0  0
    9.5562   11.9331    0.0000 C   0  0  0  0  0  0  0  0  0  0  0  0
    9.5614   10.4331    0.0000 H   0  0  0  0  0  0  0  0  0  0  0  0
    8.2538   12.6772    0.0000 C   0  0  0  0  0  0  0  0  0  0  0  0
    6.9568   11.9236    0.0000 H   0  0  0  0  0  0  0  0  0  0  0  0
   12.1721   11.9560    0.0000 Cl  0  0  0  0  0  0  0  0  0  0  0  0
    5.6533   12.6871    0.0000 C   0  0  0  0  0  0  0  0  0  0  0  0
    7.1306   12.9471    0.0000 H   0  0  0  0  0  0  0  0  0  0  0  0
    6.1659   11.2774    0.0000 H   0  0  0  0  0  0  0  0  0  0  0  0
    3.1068   11.2179    0.0000 N   0  0  0  0  0  0  0  0  0  0  0  0
    3.1060    9.7171    0.0000 C   0  0  0  0  0  0  0  0  0  0  0  0
    4.5833    9.9772    0.0000 H   0  0  0  0  0  0  0  0  0  0  0  0
    3.6190    8.3075    0.0000 H   0  0  0  0  0  0  0  0  0  0  0  0
    1.8064    8.9665    0.0000 C   0  0  0  0  0  0  0  0  0  0  0  0
    2.7706    7.8174    0.0000 H   0  0  0  0  0  0  0  0  0  0  0  0
    0.8422    7.8174    0.0000 H   0  0  0  0  0  0  0  0  0  0  0  0
    0.5075    9.7167    0.0000 N   0  0  0  0  0  0  0  0  0  0  0  0
    0.5082   11.2175    0.0000 C   0  0  0  0  0  0  0  0  0  0  0  0
   -0.9691   10.9574    0.0000 H   0  0  0  0  0  0  0  0  0  0  0  0
   -0.0048   12.6271    0.0000 H   0  0  0  0  0  0  0  0  0  0  0  0
    1.8078   11.9681    0.0000 C   0  0  0  0  0  0  0  0  0  0  0  0
    0.8436   13.1171    0.0000 H   0  0  0  0  0  0  0  0  0  0  0  0
    2.7721   13.1171    0.0000 H   0  0  0  0  0  0  0  0  0  0  0  0
   -0.7918    8.9671    0.0000 C   0  0  0  0  0  0  0  0  0  0  0  0
   -2.0914    9.7177    0.0000 C   0  0  0  0  0  0  0  0  0  0  0  0
   -2.0907   11.2177    0.0000 H   0  0  0  0  0  0  0  0  0  0  0  0
   -3.3918    8.9683    0.0000 C   0  0  0  0  0  0  0  0  0  0  0  0
   -4.6904    9.7192    0.0000 H   0  0  0  0  0  0  0  0  0  0  0  0
   -3.3925    7.4683    0.0000 C   0  0  0  0  0  0  0  0  0  0  0  0
   -2.0929    6.7177    0.0000 C   0  0  0  0  0  0  0  0  0  0  0  0
   -0.7925    7.4671    0.0000 C   0  0  0  0  0  0  0  0  0  0  0  0
    0.5060    6.7162    0.0000 H   0  0  0  0  0  0  0  0  0  0  0  0
   -2.0941    4.2577    0.0000 O   0  0  0  0  0  0  0  0  0  0  0  0
   -0.7954    3.5071    0.0000 C   0  0  0  0  0  0  0  0  0  0  0  0
   -0.7959    2.0062    0.0000 C   0  0  0  0  0  0  0  0  0  0  0  0
   -2.0954    1.2571    0.0000 H   0  0  0  0  0  0  0  0  0  0  0  0
    0.5032    1.2546    0.0000 C   0  0  0  0  0  0  0  0  0  0  0  0
    1.8027    2.0037    0.0000 C   0  0  0  0  0  0  0  0  0  0  0  0
    2.9154    0.9946    0.0000 N   0  0  0  0  0  0  0  0  0  0  0  0
    4.3832    1.3037    0.0000 H   0  0  0  0  0  0  0  0  0  0  0  0
    2.3066   -0.3721    0.0000 C   0  0  0  0  0  0  0  0  0  0  0  0
    3.0558   -1.6716    0.0000 H   0  0  0  0  0  0  0  0  0  0  0  0
    0.8189   -0.2140    0.0000 C   0  0  0  0  0  0  0  0  0  0  0  0
   -0.1842   -1.3293    0.0000 H   0  0  0  0  0  0  0  0  0  0  0  0
    1.8032    3.5046    0.0000 N   0  0  0  0  0  0  0  0  0  0  0  0
    0.5041    4.2562    0.0000 C   0  0  0  0  0  0  0  0  0  0  0  0
    0.5053    5.7562    0.0000 H   0  0  0  0  0  0  0  0  0  0  0  0
   -4.6918    6.7187    0.0000 C   0  0  0  0  0  0  0  0  0  0  0  0
   -4.6923    5.2187    0.0000 O   0  0  0  0  0  0  0  0  0  0  0  0
   -5.9906    7.4692    0.0000 N   0  0  0  0  0  0  0  0  0  0  0  0
   -5.9901    8.9692    0.0000 H   0  0  0  0  0  0  0  0  0  0  0  0
   -7.2899    6.7196    0.0000 S   0  0  0  0  0  0  0  0  0  0  0  0
   -6.3261    5.5702    0.0000 O   0  0  0  0  0  0  0  0  0  0  0  0
   -8.2544    5.5708    0.0000 O   0  0  0  0  0  0  0  0  0  0  0  0
   -8.5887    7.4700    0.0000 C   0  0  0  0  0  0  0  0  0  0  0  0
   -8.5884    8.9708    0.0000 C   0  0  0  0  0  0  0  0  0  0  0  0
   -7.2890    9.7202    0.0000 H   0  0  0  0  0  0  0  0  0  0  0  0
   -9.8876    9.7223    0.0000 C   0  0  0  0  0  0  0  0  0  0  0  0
  -11.1870    8.9729    0.0000 C   0  0  0  0  0  0  0  0  0  0  0  0
  -11.1872    7.4721    0.0000 C   0  0  0  0  0  0  0  0  0  0  0  0
  -12.4866    6.7227    0.0000 H   0  0  0  0  0  0  0  0  0  0  0  0
   -9.8881    6.7206    0.0000 C   0  0  0  0  0  0  0  0  0  0  0  0
   -9.8890    5.2206    0.0000 O   0  0  0  0  0  0  0  0  0  0  0  0
  -11.1886    4.4714    0.0000 H   0  0  0  0  0  0  0  0  0  0  0  0
  -12.4858    9.7233    0.0000 N   0  0  0  0  0  0  0  0  0  0  0  0
  -12.4853   11.2233    0.0000 H   0  0  0  0  0  0  0  0  0  0  0  0
  -13.7851    8.9737    0.0000 C   0  0  0  0  0  0  0  0  0  0  0  0
  -12.8213    7.8244    0.0000 H   0  0  0  0  0  0  0  0  0  0  0  0
  -14.7496    7.8250    0.0000 H   0  0  0  0  0  0  0  0  0  0  0  0
  -15.9151   10.2044    0.0000 C   0  0  0  0  0  0  0  0  0  0  0  0
  -14.9503   11.3530    0.0000 H   0  0  0  0  0  0  0  0  0  0  0  0
  -16.4286    8.7942    0.0000 C   0  0  0  0  0  0  0  0  0  0  0  0
  -16.4290    7.2942    0.0000 H   0  0  0  0  0  0  0  0  0  0  0  0
  -14.9514    8.5334    0.0000 H   0  0  0  0  0  0  0  0  0  0  0  0
  -17.9059    8.5343    0.0000 C   0  0  0  0  0  0  0  0  0  0  0  0
  -19.2054    7.7851    0.0000 H   0  0  0  0  0  0  0  0  0  0  0  0
  -17.3936    7.1245    0.0000 H   0  0  0  0  0  0  0  0  0  0  0  0
  -18.8697    9.6847    0.0000 O   0  0  0  0  0  0  0  0  0  0  0  0
  -18.3563   11.0950    0.0000 C   0  0  0  0  0  0  0  0  0  0  0  0
  -18.3558   12.5950    0.0000 H   0  0  0  0  0  0  0  0  0  0  0  0
  -19.8334   11.3558    0.0000 H   0  0  0  0  0  0  0  0  0  0  0  0
  -16.8790   11.3548    0.0000 C   0  0  0  0  0  0  0  0  0  0  0  0
  -15.5794   12.1040    0.0000 H   0  0  0  0  0  0  0  0  0  0  0  0
  -17.3912   12.7647    0.0000 H   0  0  0  0  0  0  0  0  0  0  0  0
   -9.8866   11.2223    0.0000 N   0  0  0  0  0  0  0  0  0  0  0  0
  -11.1852   11.9731    0.0000 O   0  0  0  0  0  0  0  0  0  0  0  0
   -8.5871   11.9714    0.0000 O   0  0  0  0  0  0  0  0  0  0  0  0
  1  2  1  0  0  0  0 
  1  3  1  0  0  0  0 
  1  4  1  0  0  0  0 
  1  5  1  0  0  0  0 
  5  6  1  0  0  0  0 
  6  7  1  0  0  0  0 
  6  8  1  0  0  0  0 
  6  9  1  0  0  0  0 
  5 10  1  0  0  0  0 
 10 11  1  0  0  0  0 
 10 12  1  0  0  0  0 
 10 13  1  0  0  0  0 
 13 14  1  0  0  0  0 
 13 15  1  0  0  0  0 
 13 16  1  0  0  0  0 
 16 17  2  0  0  0  0 
 17 18  1  0  0  0  0 
  5 18  1  0  0  0  0 
 18 19  1  0  0  0  0 
 18 20  1  0  0  0  0 
 17 21  1  0  0  0  0 
 21 22  2  0  0  0  0 
 22 23  1  0  0  0  0 
 22 24  1  0  0  0  0 
 24 25  1  0  0  0  0 
 24 26  2  0  0  0  0 
 26 27  1  0  0  0  0 
 27 28  1  0  0  0  0 
 27 29  2  0  0  0  0 
 21 29  1  0  0  0  0 
 29 30  1  0  0  0  0 
 26 31  1  0  0  0  0 
 16 32  1  0  0  0  0 
 32 33  1  0  0  0  0 
 32 34  1  0  0  0  0 
 32 35  1  0  0  0  0 
 35 36  1  0  0  0  0 
 36 37  1  0  0  0  0 
 36 38  1  0  0  0  0 
 36 39  1  0  0  0  0 
 39 40  1  0  0  0  0 
 39 41  1  0  0  0  0 
 39 42  1  0  0  0  0 
 42 43  1  0  0  0  0 
 43 44  1  0  0  0  0 
 43 45  1  0  0  0  0 
 43 46  1  0  0  0  0 
 35 46  1  0  0  0  0 
 46 47  1  0  0  0  0 
 46 48  1  0  0  0  0 
 42 49  1  0  0  0  0 
 49 50  2  0  0  0  0 
 50 51  1  0  0  0  0 
 50 52  1  0  0  0  0 
 52 53  1  0  0  0  0 
 52 54  2  0  0  0  0 
 54 55  1  0  0  0  0 
 55 56  2  0  0  0  0 
 49 56  1  0  0  0  0 
 56 57  1  0  0  0  0 
 55 58  1  0  0  0  0 
 58 59  1  0  0  0  0 
 59 60  2  0  0  0  0 
 60 61  1  0  0  0  0 
 60 62  1  0  0  0  0 
 62 63  2  0  0  0  0 
 63 64  1  0  0  0  0 
 64 65  1  0  0  0  0 
 64 66  1  0  0  0  0 
 66 67  1  0  0  0  0 
 66 68  2  0  0  0  0 
 62 68  1  0  0  0  0 
 68 69  1  0  0  0  0 
 63 70  1  0  0  0  0 
 70 71  2  0  0  0  0 
 59 71  1  0  0  0  0 
 71 72  1  0  0  0  0 
 54 73  1  0  0  0  0 
 73 74  2  0  0  0  0 
 73 75  1  0  0  0  0 
 75 76  1  0  0  0  0 
 75 77  1  0  0  0  0 
 77 78  2  0  0  0  0 
 77 79  2  0  0  0  0 
 77 80  1  0  0  0  0 
 80 81  2  0  0  0  0 
 81 82  1  0  0  0  0 
 81 83  1  0  0  0  0 
 83 84  2  0  0  0  0 
 84 85  1  0  0  0  0 
 85 86  1  0  0  0  0 
 85 87  2  0  0  0  0 
 80 87  1  0  0  0  0 
 87 88  1  0  0  0  0 
 88 89  1  0  0  0  0 
 84 90  1  0  0  0  0 
 90 91  1  0  0  0  0 
 90 92  1  0  0  0  0 
 92 93  1  0  0  0  0 
 92 94  1  0  0  0  0 
 92 95  1  0  0  0  0 
 95 96  1  0  0  0  0 
 95 97  1  0  0  0  0 
 97 98  1  0  0  0  0 
 97 99  1  0  0  0  0 
 97100  1  0  0  0  0 
100101  1  0  0  0  0 
100102  1  0  0  0  0 
100103  1  0  0  0  0 
103104  1  0  0  0  0 
104105  1  0  0  0  0 
104106  1  0  0  0  0 
104107  1  0  0  0  0 
 95107  1  0  0  0  0 
107108  1  0  0  0  0 
107109  1  0  0  0  0 
 83110  1  0  0  0  0 
110111  2  0  0  0  0 
110112  1  0  0  0  0 
M  CHG  1 110   1
M  CHG  1 112  -1
M  END
> <Rank>
4

> <Priority_score>
0.272

> <Reaction_type>
aromatic_hydroxylation_(para_to_nitrogen)

> <Parent_ID>
12

> <Parent_InChI>
InChI=1S/C45H50ClN7O7S/c1-45(2)15-11-33(39(26-45)31-3-5-34(46)6-4-31)29-51-17-19-52(20-18-51)35-7-9-38(42(24-35)60-36-23-32-12-16-47-43(32)49-28-36)44(54)50-61(57,58)37-8-10-40(41(25-37)53(55)56)48-27-30-13-21-59-22-14-30/h3-10,12,16,23-25,28,30,48H,11,13-15,17-22,26-27,29H2,1-2H3,(H,47,49)(H,50,54)

> <Parent_SMILES>
CC1(C)CCC(CN2CCN(c3ccc(C(=O)NS(=O)(=O)c4ccc(NCC5CCOCC5)c([N+](=O)[O-])c4)c(Oc4cnc5[nH]ccc5c4)c3)CC2)=C(c2ccc(Cl)cc2)C1

$$$$
Molecule 12_metabolite 7
  CDK     0516241031

111118  0  0  0  0  0  0  0  0999 V2000
    4.0755   19.0737    0.0000 C   0  0  0  0  0  0  0  0  0  0  0  0
    2.5982   18.8136    0.0000 H   0  0  0  0  0  0  0  0  0  0  0  0
    5.3747   19.8233    0.0000 H   0  0  0  0  0  0  0  0  0  0  0  0
    3.5628   20.4833    0.0000 H   0  0  0  0  0  0  0  0  0  0  0  0
    5.6562   17.1888    0.0000 C   0  0  0  0  0  0  0  0  0  0  0  0
    7.2382   19.0726    0.0000 C   0  0  0  0  0  0  0  0  0  0  0  0
    6.7257   20.4824    0.0000 H   0  0  0  0  0  0  0  0  0  0  0  0
    8.5375   19.8222    0.0000 H   0  0  0  0  0  0  0  0  0  0  0  0
    8.2019   17.9232    0.0000 H   0  0  0  0  0  0  0  0  0  0  0  0
    4.3563   16.4386    0.0000 C   0  0  0  0  0  0  0  0  0  0  0  0
    2.8790   16.1789    0.0000 H   0  0  0  0  0  0  0  0  0  0  0  0
    3.8438   17.8483    0.0000 H   0  0  0  0  0  0  0  0  0  0  0  0
    4.3551   14.9377    0.0000 C   0  0  0  0  0  0  0  0  0  0  0  0
    3.6768   13.0775    0.0000 H   0  0  0  0  0  0  0  0  0  0  0  0
    2.8781   15.1992    0.0000 H   0  0  0  0  0  0  0  0  0  0  0  0
    5.6538   14.1871    0.0000 C   0  0  0  0  0  0  0  0  0  0  0  0
    6.9537   14.9373    0.0000 C   0  0  0  0  0  0  0  0  0  0  0  0
    6.9549   16.4381    0.0000 C   0  0  0  0  0  0  0  0  0  0  0  0
    7.4688   17.8474    0.0000 H   0  0  0  0  0  0  0  0  0  0  0  0
    8.4319   16.1766    0.0000 H   0  0  0  0  0  0  0  0  0  0  0  0
    8.2524   14.1867    0.0000 C   0  0  0  0  0  0  0  0  0  0  0  0
    9.5386   14.9260    0.0000 C   0  0  0  0  0  0  0  0  0  0  0  0
    9.5365   16.4260    0.0000 H   0  0  0  0  0  0  0  0  0  0  0  0
   10.8410   14.1819    0.0000 C   0  0  0  0  0  0  0  0  0  0  0  0
   12.1320   14.9457    0.0000 H   0  0  0  0  0  0  0  0  0  0  0  0
   10.8659   12.6935    0.0000 C   0  0  0  0  0  0  0  0  0  0  0  0
    9.5562   11.9331    0.0000 C   0  0  0  0  0  0  0  0  0  0  0  0
    9.5614   10.4331    0.0000 H   0  0  0  0  0  0  0  0  0  0  0  0
    8.2538   12.6772    0.0000 C   0  0  0  0  0  0  0  0  0  0  0  0
    6.9568   11.9236    0.0000 H   0  0  0  0  0  0  0  0  0  0  0  0
   12.1721   11.9560    0.0000 Cl  0  0  0  0  0  0  0  0  0  0  0  0
    5.6533   12.6871    0.0000 C   0  0  0  0  0  0  0  0  0  0  0  0
    7.1306   12.9471    0.0000 H   0  0  0  0  0  0  0  0  0  0  0  0
    6.1659   11.2774    0.0000 H   0  0  0  0  0  0  0  0  0  0  0  0
    3.1068   11.2179    0.0000 N   0  0  0  0  0  0  0  0  0  0  0  0
    3.1060    9.7171    0.0000 C   0  0  0  0  0  0  0  0  0  0  0  0
    4.5833    9.9772    0.0000 H   0  0  0  0  0  0  0  0  0  0  0  0
    3.6190    8.3075    0.0000 H   0  0  0  0  0  0  0  0  0  0  0  0
    1.8064    8.9665    0.0000 C   0  0  0  0  0  0  0  0  0  0  0  0
    2.7706    7.8174    0.0000 H   0  0  0  0  0  0  0  0  0  0  0  0
    0.8422    7.8174    0.0000 H   0  0  0  0  0  0  0  0  0  0  0  0
    0.5075    9.7167    0.0000 N   0  0  0  0  0  0  0  0  0  0  0  0
    0.5082   11.2175    0.0000 C   0  0  0  0  0  0  0  0  0  0  0  0
   -0.9691   10.9574    0.0000 H   0  0  0  0  0  0  0  0  0  0  0  0
   -0.0048   12.6271    0.0000 H   0  0  0  0  0  0  0  0  0  0  0  0
    1.8078   11.9681    0.0000 C   0  0  0  0  0  0  0  0  0  0  0  0
    0.8436   13.1171    0.0000 H   0  0  0  0  0  0  0  0  0  0  0  0
    2.7721   13.1171    0.0000 H   0  0  0  0  0  0  0  0  0  0  0  0
   -0.7918    8.9671    0.0000 C   0  0  0  0  0  0  0  0  0  0  0  0
   -2.0914    9.7177    0.0000 C   0  0  0  0  0  0  0  0  0  0  0  0
   -2.0907   11.2177    0.0000 H   0  0  0  0  0  0  0  0  0  0  0  0
   -3.3918    8.9683    0.0000 C   0  0  0  0  0  0  0  0  0  0  0  0
   -4.6904    9.7192    0.0000 H   0  0  0  0  0  0  0  0  0  0  0  0
   -3.3925    7.4683    0.0000 C   0  0  0  0  0  0  0  0  0  0  0  0
   -2.0929    6.7177    0.0000 C   0  0  0  0  0  0  0  0  0  0  0  0
   -0.7925    7.4671    0.0000 C   0  0  0  0  0  0  0  0  0  0  0  0
    0.5060    6.7162    0.0000 H   0  0  0  0  0  0  0  0  0  0  0  0
   -2.0941    4.2577    0.0000 O   0  0  0  0  0  0  0  0  0  0  0  0
   -0.7954    3.5071    0.0000 C   0  0  0  0  0  0  0  0  0  0  0  0
   -0.7959    2.0062    0.0000 C   0  0  0  0  0  0  0  0  0  0  0  0
   -2.0954    1.2571    0.0000 H   0  0  0  0  0  0  0  0  0  0  0  0
    0.5032    1.2546    0.0000 C   0  0  0  0  0  0  0  0  0  0  0  0
    1.8027    2.0037    0.0000 C   0  0  0  0  0  0  0  0  0  0  0  0
    2.9154    0.9946    0.0000 N   0  0  0  0  0  0  0  0  0  0  0  0
    4.3832    1.3037    0.0000 H   0  0  0  0  0  0  0  0  0  0  0  0
    2.3066   -0.3721    0.0000 C   0  0  0  0  0  0  0  0  0  0  0  0
    3.0558   -1.6716    0.0000 H   0  0  0  0  0  0  0  0  0  0  0  0
    0.8189   -0.2140    0.0000 C   0  0  0  0  0  0  0  0  0  0  0  0
   -0.1842   -1.3293    0.0000 H   0  0  0  0  0  0  0  0  0  0  0  0
    1.8032    3.5046    0.0000 N   0  0  0  0  0  0  0  0  0  0  0  0
    0.5041    4.2562    0.0000 C   0  0  0  0  0  0  0  0  0  0  0  0
    0.5053    5.7562    0.0000 H   0  0  0  0  0  0  0  0  0  0  0  0
   -4.6918    6.7187    0.0000 C   0  0  0  0  0  0  0  0  0  0  0  0
   -4.6923    5.2187    0.0000 O   0  0  0  0  0  0  0  0  0  0  0  0
   -5.9906    7.4692    0.0000 N   0  0  0  0  0  0  0  0  0  0  0  0
   -5.9901    8.9692    0.0000 H   0  0  0  0  0  0  0  0  0  0  0  0
   -7.2899    6.7196    0.0000 S   0  0  0  0  0  0  0  0  0  0  0  0
   -6.3261    5.5702    0.0000 O   0  0  0  0  0  0  0  0  0  0  0  0
   -8.2544    5.5708    0.0000 O   0  0  0  0  0  0  0  0  0  0  0  0
   -8.5887    7.4700    0.0000 C   0  0  0  0  0  0  0  0  0  0  0  0
   -8.5884    8.9708    0.0000 C   0  0  0  0  0  0  0  0  0  0  0  0
   -7.2890    9.7202    0.0000 H   0  0  0  0  0  0  0  0  0  0  0  0
   -9.8876    9.7223    0.0000 C   0  0  0  0  0  0  0  0  0  0  0  0
   -9.8866   11.2223    0.0000 H   0  0  0  0  0  0  0  0  0  0  0  0
  -11.1870    8.9729    0.0000 C   0  0  0  0  0  0  0  0  0  0  0  0
  -11.1872    7.4721    0.0000 C   0  0  0  0  0  0  0  0  0  0  0  0
   -9.8881    6.7206    0.0000 C   0  0  0  0  0  0  0  0  0  0  0  0
   -9.8890    5.2206    0.0000 H   0  0  0  0  0  0  0  0  0  0  0  0
  -12.4866    6.7227    0.0000 N   0  0  0  0  0  0  0  0  0  0  0  0
  -13.7853    7.4733    0.0000 H   0  0  0  0  0  0  0  0  0  0  0  0
  -12.4874    5.2227    0.0000 H   0  0  0  0  0  0  0  0  0  0  0  0
  -12.4858    9.7233    0.0000 N   0  0  0  0  0  0  0  0  0  0  0  0
  -13.7851    8.9737    0.0000 H   0  0  0  0  0  0  0  0  0  0  0  0
  -12.4853   11.2233    0.0000 C   0  0  0  0  0  0  0  0  0  0  0  0
  -11.0082   10.9624    0.0000 H   0  0  0  0  0  0  0  0  0  0  0  0
  -11.9718   12.6327    0.0000 H   0  0  0  0  0  0  0  0  0  0  0  0
  -14.6153   12.4540    0.0000 C   0  0  0  0  0  0  0  0  0  0  0  0
  -15.1285   11.0445    0.0000 H   0  0  0  0  0  0  0  0  0  0  0  0
  -13.6500   13.6032    0.0000 C   0  0  0  0  0  0  0  0  0  0  0  0
  -12.3507   14.3528    0.0000 H   0  0  0  0  0  0  0  0  0  0  0  0
  -12.6863   12.4537    0.0000 H   0  0  0  0  0  0  0  0  0  0  0  0
  -14.1627   15.0128    0.0000 C   0  0  0  0  0  0  0  0  0  0  0  0
  -14.1627   16.5128    0.0000 H   0  0  0  0  0  0  0  0  0  0  0  0
  -12.6855   15.2732    0.0000 H   0  0  0  0  0  0  0  0  0  0  0  0
  -15.6408   15.2733    0.0000 O   0  0  0  0  0  0  0  0  0  0  0  0
  -16.6061   14.1241    0.0000 C   0  0  0  0  0  0  0  0  0  0  0  0
  -17.9054   13.3745    0.0000 H   0  0  0  0  0  0  0  0  0  0  0  0
  -17.5698   15.2736    0.0000 H   0  0  0  0  0  0  0  0  0  0  0  0
  -16.0934   12.7145    0.0000 C   0  0  0  0  0  0  0  0  0  0  0  0
  -16.0934   11.2145    0.0000 H   0  0  0  0  0  0  0  0  0  0  0  0
  -17.5706   12.4541    0.0000 H   0  0  0  0  0  0  0  0  0  0  0  0
  1  2  1  0  0  0  0 
  1  3  1  0  0  0  0 
  1  4  1  0  0  0  0 
  1  5  1  0  0  0  0 
  5  6  1  0  0  0  0 
  6  7  1  0  0  0  0 
  6  8  1  0  0  0  0 
  6  9  1  0  0  0  0 
  5 10  1  0  0  0  0 
 10 11  1  0  0  0  0 
 10 12  1  0  0  0  0 
 10 13  1  0  0  0  0 
 13 14  1  0  0  0  0 
 13 15  1  0  0  0  0 
 13 16  1  0  0  0  0 
 16 17  2  0  0  0  0 
 17 18  1  0  0  0  0 
  5 18  1  0  0  0  0 
 18 19  1  0  0  0  0 
 18 20  1  0  0  0  0 
 17 21  1  0  0  0  0 
 21 22  2  0  0  0  0 
 22 23  1  0  0  0  0 
 22 24  1  0  0  0  0 
 24 25  1  0  0  0  0 
 24 26  2  0  0  0  0 
 26 27  1  0  0  0  0 
 27 28  1  0  0  0  0 
 27 29  2  0  0  0  0 
 21 29  1  0  0  0  0 
 29 30  1  0  0  0  0 
 26 31  1  0  0  0  0 
 16 32  1  0  0  0  0 
 32 33  1  0  0  0  0 
 32 34  1  0  0  0  0 
 32 35  1  0  0  0  0 
 35 36  1  0  0  0  0 
 36 37  1  0  0  0  0 
 36 38  1  0  0  0  0 
 36 39  1  0  0  0  0 
 39 40  1  0  0  0  0 
 39 41  1  0  0  0  0 
 39 42  1  0  0  0  0 
 42 43  1  0  0  0  0 
 43 44  1  0  0  0  0 
 43 45  1  0  0  0  0 
 43 46  1  0  0  0  0 
 35 46  1  0  0  0  0 
 46 47  1  0  0  0  0 
 46 48  1  0  0  0  0 
 42 49  1  0  0  0  0 
 49 50  2  0  0  0  0 
 50 51  1  0  0  0  0 
 50 52  1  0  0  0  0 
 52 53  1  0  0  0  0 
 52 54  2  0  0  0  0 
 54 55  1  0  0  0  0 
 55 56  2  0  0  0  0 
 49 56  1  0  0  0  0 
 56 57  1  0  0  0  0 
 55 58  1  0  0  0  0 
 58 59  1  0  0  0  0 
 59 60  2  0  0  0  0 
 60 61  1  0  0  0  0 
 60 62  1  0  0  0  0 
 62 63  2  0  0  0  0 
 63 64  1  0  0  0  0 
 64 65  1  0  0  0  0 
 64 66  1  0  0  0  0 
 66 67  1  0  0  0  0 
 66 68  2  0  0  0  0 
 62 68  1  0  0  0  0 
 68 69  1  0  0  0  0 
 63 70  1  0  0  0  0 
 70 71  2  0  0  0  0 
 59 71  1  0  0  0  0 
 71 72  1  0  0  0  0 
 54 73  1  0  0  0  0 
 73 74  2  0  0  0  0 
 73 75  1  0  0  0  0 
 75 76  1  0  0  0  0 
 75 77  1  0  0  0  0 
 77 78  2  0  0  0  0 
 77 79  2  0  0  0  0 
 77 80  1  0  0  0  0 
 80 81  2  0  0  0  0 
 81 82  1  0  0  0  0 
 81 83  1  0  0  0  0 
 83 84  1  0  0  0  0 
 83 85  2  0  0  0  0 
 85 86  1  0  0  0  0 
 86 87  2  0  0  0  0 
 80 87  1  0  0  0  0 
 87 88  1  0  0  0  0 
 86 89  1  0  0  0  0 
 89 90  1  0  0  0  0 
 89 91  1  0  0  0  0 
 85 92  1  0  0  0  0 
 92 93  1  0  0  0  0 
 92 94  1  0  0  0  0 
 94 95  1  0  0  0  0 
 94 96  1  0  0  0  0 
 94 97  1  0  0  0  0 
 97 98  1  0  0  0  0 
 97 99  1  0  0  0  0 
 99100  1  0  0  0  0 
 99101  1  0  0  0  0 
 99102  1  0  0  0  0 
102103  1  0  0  0  0 
102104  1  0  0  0  0 
102105  1  0  0  0  0 
105106  1  0  0  0  0 
106107  1  0  0  0  0 
106108  1  0  0  0  0 
106109  1  0  0  0  0 
 97109  1  0  0  0  0 
109110  1  0  0  0  0 
109111  1  0  0  0  0 
M  END
> <Rank>
4

> <Priority_score>
0.272

> <Reaction_type>
nitro_to_aniline

> <Parent_ID>
12

> <Parent_InChI>
InChI=1S/C45H50ClN7O7S/c1-45(2)15-11-33(39(26-45)31-3-5-34(46)6-4-31)29-51-17-19-52(20-18-51)35-7-9-38(42(24-35)60-36-23-32-12-16-47-43(32)49-28-36)44(54)50-61(57,58)37-8-10-40(41(25-37)53(55)56)48-27-30-13-21-59-22-14-30/h3-10,12,16,23-25,28,30,48H,11,13-15,17-22,26-27,29H2,1-2H3,(H,47,49)(H,50,54)

> <Parent_SMILES>
CC1(C)CCC(CN2CCN(c3ccc(C(=O)NS(=O)(=O)c4ccc(NCC5CCOCC5)c([N+](=O)[O-])c4)c(Oc4cnc5[nH]ccc5c4)c3)CC2)=C(c2ccc(Cl)cc2)C1

$$$$
Molecule 12_metabolite 8
  CDK     0516241031

112119  0  0  0  0  0  0  0  0999 V2000
    4.4911   18.8335    0.0000 C   0  0  0  0  0  0  0  0  0  0  0  0
    3.0138   18.5734    0.0000 H   0  0  0  0  0  0  0  0  0  0  0  0
    5.7903   19.5832    0.0000 H   0  0  0  0  0  0  0  0  0  0  0  0
    3.9784   20.2432    0.0000 H   0  0  0  0  0  0  0  0  0  0  0  0
    6.0718   16.9486    0.0000 C   0  0  0  0  0  0  0  0  0  0  0  0
    7.6538   18.8325    0.0000 C   0  0  0  0  0  0  0  0  0  0  0  0
    7.1413   20.2422    0.0000 H   0  0  0  0  0  0  0  0  0  0  0  0
    8.9531   19.5820    0.0000 H   0  0  0  0  0  0  0  0  0  0  0  0
    8.6176   17.6831    0.0000 H   0  0  0  0  0  0  0  0  0  0  0  0
    4.7720   16.1984    0.0000 C   0  0  0  0  0  0  0  0  0  0  0  0
    3.2946   15.9388    0.0000 H   0  0  0  0  0  0  0  0  0  0  0  0
    4.2595   17.6081    0.0000 H   0  0  0  0  0  0  0  0  0  0  0  0
    4.7708   14.6976    0.0000 C   0  0  0  0  0  0  0  0  0  0  0  0
    4.0925   12.8374    0.0000 H   0  0  0  0  0  0  0  0  0  0  0  0
    3.2937   14.9591    0.0000 H   0  0  0  0  0  0  0  0  0  0  0  0
    6.0694   13.9470    0.0000 C   0  0  0  0  0  0  0  0  0  0  0  0
    7.3693   14.6972    0.0000 C   0  0  0  0  0  0  0  0  0  0  0  0
    7.3705   16.1980    0.0000 C   0  0  0  0  0  0  0  0  0  0  0  0
    7.8844   17.6072    0.0000 H   0  0  0  0  0  0  0  0  0  0  0  0
    8.8475   15.9365    0.0000 H   0  0  0  0  0  0  0  0  0  0  0  0
    8.6680   13.9465    0.0000 C   0  0  0  0  0  0  0  0  0  0  0  0
    9.9542   14.6859    0.0000 C   0  0  0  0  0  0  0  0  0  0  0  0
    9.9522   16.1859    0.0000 H   0  0  0  0  0  0  0  0  0  0  0  0
   11.2566   13.9418    0.0000 C   0  0  0  0  0  0  0  0  0  0  0  0
   12.5476   14.7056    0.0000 H   0  0  0  0  0  0  0  0  0  0  0  0
   11.2815   12.4534    0.0000 C   0  0  0  0  0  0  0  0  0  0  0  0
    9.9718   11.6930    0.0000 C   0  0  0  0  0  0  0  0  0  0  0  0
    9.9770   10.1930    0.0000 H   0  0  0  0  0  0  0  0  0  0  0  0
    8.6694   12.4370    0.0000 C   0  0  0  0  0  0  0  0  0  0  0  0
    7.3724   11.6835    0.0000 H   0  0  0  0  0  0  0  0  0  0  0  0
   12.5877   11.7159    0.0000 Cl  0  0  0  0  0  0  0  0  0  0  0  0
    6.0690   12.4470    0.0000 C   0  0  0  0  0  0  0  0  0  0  0  0
    7.5462   12.7070    0.0000 H   0  0  0  0  0  0  0  0  0  0  0  0
    6.5815   11.0373    0.0000 H   0  0  0  0  0  0  0  0  0  0  0  0
    3.5224   10.9778    0.0000 N   0  0  0  0  0  0  0  0  0  0  0  0
    3.5216    9.4769    0.0000 C   0  0  0  0  0  0  0  0  0  0  0  0
    4.9989    9.7370    0.0000 H   0  0  0  0  0  0  0  0  0  0  0  0
    4.0346    8.0674    0.0000 H   0  0  0  0  0  0  0  0  0  0  0  0
    2.2220    8.7263    0.0000 C   0  0  0  0  0  0  0  0  0  0  0  0
    3.1863    7.5773    0.0000 H   0  0  0  0  0  0  0  0  0  0  0  0
    1.2578    7.5773    0.0000 H   0  0  0  0  0  0  0  0  0  0  0  0
    0.9231    9.4765    0.0000 N   0  0  0  0  0  0  0  0  0  0  0  0
    0.9238   10.9774    0.0000 C   0  0  0  0  0  0  0  0  0  0  0  0
   -0.5535   10.7173    0.0000 H   0  0  0  0  0  0  0  0  0  0  0  0
    0.4109   12.3869    0.0000 H   0  0  0  0  0  0  0  0  0  0  0  0
    2.2235   11.7280    0.0000 C   0  0  0  0  0  0  0  0  0  0  0  0
    1.2592   12.8770    0.0000 H   0  0  0  0  0  0  0  0  0  0  0  0
    3.1877   12.8770    0.0000 H   0  0  0  0  0  0  0  0  0  0  0  0
   -0.3762    8.7269    0.0000 C   0  0  0  0  0  0  0  0  0  0  0  0
   -1.6758    9.4776    0.0000 C   0  0  0  0  0  0  0  0  0  0  0  0
   -1.6751   10.9776    0.0000 H   0  0  0  0  0  0  0  0  0  0  0  0
   -2.9762    8.7282    0.0000 C   0  0  0  0  0  0  0  0  0  0  0  0
   -4.2747    9.4790    0.0000 H   0  0  0  0  0  0  0  0  0  0  0  0
   -2.9769    7.2282    0.0000 C   0  0  0  0  0  0  0  0  0  0  0  0
   -1.6773    6.4776    0.0000 C   0  0  0  0  0  0  0  0  0  0  0  0
   -0.3769    7.2269    0.0000 C   0  0  0  0  0  0  0  0  0  0  0  0
    0.9216    6.4761    0.0000 H   0  0  0  0  0  0  0  0  0  0  0  0
   -1.6785    4.0176    0.0000 O   0  0  0  0  0  0  0  0  0  0  0  0
   -0.3798    3.2669    0.0000 C   0  0  0  0  0  0  0  0  0  0  0  0
   -0.3803    1.7661    0.0000 C   0  0  0  0  0  0  0  0  0  0  0  0
   -1.6798    1.0169    0.0000 H   0  0  0  0  0  0  0  0  0  0  0  0
    0.9188    1.0144    0.0000 C   0  0  0  0  0  0  0  0  0  0  0  0
    2.2183    1.7636    0.0000 C   0  0  0  0  0  0  0  0  0  0  0  0
    3.3310    0.7545    0.0000 N   0  0  0  0  0  0  0  0  0  0  0  0
    4.7988    1.0636    0.0000 H   0  0  0  0  0  0  0  0  0  0  0  0
    2.7223   -0.6122    0.0000 C   0  0  0  0  0  0  0  0  0  0  0  0
    3.4714   -1.9117    0.0000 H   0  0  0  0  0  0  0  0  0  0  0  0
    1.2345   -0.4542    0.0000 C   0  0  0  0  0  0  0  0  0  0  0  0
    0.2314   -1.5695    0.0000 H   0  0  0  0  0  0  0  0  0  0  0  0
    2.2188    3.2644    0.0000 N   0  0  0  0  0  0  0  0  0  0  0  0
    0.9197    4.0161    0.0000 C   0  0  0  0  0  0  0  0  0  0  0  0
    0.9209    5.5161    0.0000 H   0  0  0  0  0  0  0  0  0  0  0  0
   -4.2762    6.4786    0.0000 C   0  0  0  0  0  0  0  0  0  0  0  0
   -4.2767    4.9786    0.0000 O   0  0  0  0  0  0  0  0  0  0  0  0
   -5.5750    7.2290    0.0000 N   0  0  0  0  0  0  0  0  0  0  0  0
   -5.5745    8.7290    0.0000 H   0  0  0  0  0  0  0  0  0  0  0  0
   -6.8743    6.4794    0.0000 S   0  0  0  0  0  0  0  0  0  0  0  0
   -5.9104    5.3301    0.0000 O   0  0  0  0  0  0  0  0  0  0  0  0
   -7.8388    5.3307    0.0000 O   0  0  0  0  0  0  0  0  0  0  0  0
   -8.1731    7.2299    0.0000 C   0  0  0  0  0  0  0  0  0  0  0  0
   -8.1728    8.7307    0.0000 C   0  0  0  0  0  0  0  0  0  0  0  0
   -6.8734    9.4801    0.0000 H   0  0  0  0  0  0  0  0  0  0  0  0
   -9.4720    9.4821    0.0000 C   0  0  0  0  0  0  0  0  0  0  0  0
   -9.4710   10.9821    0.0000 H   0  0  0  0  0  0  0  0  0  0  0  0
  -10.7714    8.7328    0.0000 C   0  0  0  0  0  0  0  0  0  0  0  0
  -10.7716    7.2319    0.0000 C   0  0  0  0  0  0  0  0  0  0  0  0
   -9.4725    6.4805    0.0000 C   0  0  0  0  0  0  0  0  0  0  0  0
   -9.4734    4.9805    0.0000 H   0  0  0  0  0  0  0  0  0  0  0  0
  -12.0710    6.4826    0.0000 N   0  0  0  0  0  0  0  0  0  0  0  0
  -13.3697    7.2332    0.0000 O   0  0  0  0  0  0  0  0  0  0  0  0
  -12.0717    4.9826    0.0000 O   0  0  0  0  0  0  0  0  0  0  0  0
  -12.4858    9.7233    0.0000 N   0  0  0  0  0  0  0  0  0  0  0  0
  -13.7851    8.9737    0.0000 C   0  0  0  0  0  0  0  0  0  0  0  0
  -12.8213    7.8244    0.0000 H   0  0  0  0  0  0  0  0  0  0  0  0
  -14.7496    7.8250    0.0000 H   0  0  0  0  0  0  0  0  0  0  0  0
  -15.9151   10.2044    0.0000 C   0  0  0  0  0  0  0  0  0  0  0  0
  -14.9503   11.3530    0.0000 H   0  0  0  0  0  0  0  0  0  0  0  0
  -16.4286    8.7942    0.0000 C   0  0  0  0  0  0  0  0  0  0  0  0
  -16.4290    7.2942    0.0000 H   0  0  0  0  0  0  0  0  0  0  0  0
  -14.9514    8.5334    0.0000 H   0  0  0  0  0  0  0  0  0  0  0  0
  -17.9059    8.5343    0.0000 C   0  0  0  0  0  0  0  0  0  0  0  0
  -19.2054    7.7851    0.0000 H   0  0  0  0  0  0  0  0  0  0  0  0
  -17.3936    7.1245    0.0000 H   0  0  0  0  0  0  0  0  0  0  0  0
  -18.8697    9.6847    0.0000 O   0  0  0  0  0  0  0  0  0  0  0  0
  -18.3563   11.0950    0.0000 C   0  0  0  0  0  0  0  0  0  0  0  0
  -18.3558   12.5950    0.0000 H   0  0  0  0  0  0  0  0  0  0  0  0
  -19.8334   11.3558    0.0000 H   0  0  0  0  0  0  0  0  0  0  0  0
  -16.8790   11.3548    0.0000 C   0  0  0  0  0  0  0  0  0  0  0  0
  -15.5794   12.1040    0.0000 H   0  0  0  0  0  0  0  0  0  0  0  0
  -17.3912   12.7647    0.0000 H   0  0  0  0  0  0  0  0  0  0  0  0
  -12.4853   11.2233    0.0000 O   0  0  0  0  0  0  0  0  0  0  0  0
  -11.1860   11.9729    0.0000 H   0  0  0  0  0  0  0  0  0  0  0  0
  1  2  1  0  0  0  0 
  1  3  1  0  0  0  0 
  1  4  1  0  0  0  0 
  1  5  1  0  0  0  0 
  5  6  1  0  0  0  0 
  6  7  1  0  0  0  0 
  6  8  1  0  0  0  0 
  6  9  1  0  0  0  0 
  5 10  1  0  0  0  0 
 10 11  1  0  0  0  0 
 10 12  1  0  0  0  0 
 10 13  1  0  0  0  0 
 13 14  1  0  0  0  0 
 13 15  1  0  0  0  0 
 13 16  1  0  0  0  0 
 16 17  2  0  0  0  0 
 17 18  1  0  0  0  0 
  5 18  1  0  0  0  0 
 18 19  1  0  0  0  0 
 18 20  1  0  0  0  0 
 17 21  1  0  0  0  0 
 21 22  2  0  0  0  0 
 22 23  1  0  0  0  0 
 22 24  1  0  0  0  0 
 24 25  1  0  0  0  0 
 24 26  2  0  0  0  0 
 26 27  1  0  0  0  0 
 27 28  1  0  0  0  0 
 27 29  2  0  0  0  0 
 21 29  1  0  0  0  0 
 29 30  1  0  0  0  0 
 26 31  1  0  0  0  0 
 16 32  1  0  0  0  0 
 32 33  1  0  0  0  0 
 32 34  1  0  0  0  0 
 32 35  1  0  0  0  0 
 35 36  1  0  0  0  0 
 36 37  1  0  0  0  0 
 36 38  1  0  0  0  0 
 36 39  1  0  0  0  0 
 39 40  1  0  0  0  0 
 39 41  1  0  0  0  0 
 39 42  1  0  0  0  0 
 42 43  1  0  0  0  0 
 43 44  1  0  0  0  0 
 43 45  1  0  0  0  0 
 43 46  1  0  0  0  0 
 35 46  1  0  0  0  0 
 46 47  1  0  0  0  0 
 46 48  1  0  0  0  0 
 42 49  1  0  0  0  0 
 49 50  2  0  0  0  0 
 50 51  1  0  0  0  0 
 50 52  1  0  0  0  0 
 52 53  1  0  0  0  0 
 52 54  2  0  0  0  0 
 54 55  1  0  0  0  0 
 55 56  2  0  0  0  0 
 49 56  1  0  0  0  0 
 56 57  1  0  0  0  0 
 55 58  1  0  0  0  0 
 58 59  1  0  0  0  0 
 59 60  2  0  0  0  0 
 60 61  1  0  0  0  0 
 60 62  1  0  0  0  0 
 62 63  2  0  0  0  0 
 63 64  1  0  0  0  0 
 64 65  1  0  0  0  0 
 64 66  1  0  0  0  0 
 66 67  1  0  0  0  0 
 66 68  2  0  0  0  0 
 62 68  1  0  0  0  0 
 68 69  1  0  0  0  0 
 63 70  1  0  0  0  0 
 70 71  2  0  0  0  0 
 59 71  1  0  0  0  0 
 71 72  1  0  0  0  0 
 54 73  1  0  0  0  0 
 73 74  2  0  0  0  0 
 73 75  1  0  0  0  0 
 75 76  1  0  0  0  0 
 75 77  1  0  0  0  0 
 77 78  2  0  0  0  0 
 77 79  2  0  0  0  0 
 77 80  1  0  0  0  0 
 80 81  2  0  0  0  0 
 81 82  1  0  0  0  0 
 81 83  1  0  0  0  0 
 83 84  1  0  0  0  0 
 83 85  2  0  0  0  0 
 85 86  1  0  0  0  0 
 86 87  2  0  0  0  0 
 80 87  1  0  0  0  0 
 87 88  1  0  0  0  0 
 86 89  1  0  0  0  0 
 89 90  2  0  0  0  0 
 89 91  1  0  0  0  0 
 85 92  1  0  0  0  0 
 92 93  1  0  0  0  0 
 93 94  1  0  0  0  0 
 93 95  1  0  0  0  0 
 93 96  1  0  0  0  0 
 96 97  1  0  0  0  0 
 96 98  1  0  0  0  0 
 98 99  1  0  0  0  0 
 98100  1  0  0  0  0 
 98101  1  0  0  0  0 
101102  1  0  0  0  0 
101103  1  0  0  0  0 
101104  1  0  0  0  0 
104105  1  0  0  0  0 
105106  1  0  0  0  0 
105107  1  0  0  0  0 
105108  1  0  0  0  0 
 96108  1  0  0  0  0 
108109  1  0  0  0  0 
108110  1  0  0  0  0 
 92111  1  0  0  0  0 
111112  1  0  0  0  0 
M  CHG  1  89   1
M  CHG  1  91  -1
M  END
> <Rank>
8

> <Priority_score>
0.192

> <Reaction_type>
amine hydroxylation

> <Parent_ID>
12

> <Parent_InChI>
InChI=1S/C45H50ClN7O7S/c1-45(2)15-11-33(39(26-45)31-3-5-34(46)6-4-31)29-51-17-19-52(20-18-51)35-7-9-38(42(24-35)60-36-23-32-12-16-47-43(32)49-28-36)44(54)50-61(57,58)37-8-10-40(41(25-37)53(55)56)48-27-30-13-21-59-22-14-30/h3-10,12,16,23-25,28,30,48H,11,13-15,17-22,26-27,29H2,1-2H3,(H,47,49)(H,50,54)

> <Parent_SMILES>
CC1(C)CCC(CN2CCN(c3ccc(C(=O)NS(=O)(=O)c4ccc(NCC5CCOCC5)c([N+](=O)[O-])c4)c(Oc4cnc5[nH]ccc5c4)c3)CC2)=C(c2ccc(Cl)cc2)C1

$$$$
Molecule 12_metabolite 9
  CDK     0516241031

 20 20  0  0  0  0  0  0  0  0999 V2000
   -0.7290    2.2148    0.0000 C   0  0  0  0  0  0  0  0  0  0  0  0
   -2.2062    2.4751    0.0000 H   0  0  0  0  0  0  0  0  0  0  0  0
   -1.2417    0.8051    0.0000 H   0  0  0  0  0  0  0  0  0  0  0  0
   -0.7290    3.7148    0.0000 C   0  0  0  0  0  0  0  0  0  0  0  0
   -1.2417    5.1244    0.0000 H   0  0  0  0  0  0  0  0  0  0  0  0
   -2.2062    3.4544    0.0000 H   0  0  0  0  0  0  0  0  0  0  0  0
    0.5710    4.4648    0.0000 O   0  0  0  0  0  0  0  0  0  0  0  0
    1.8710    3.7148    0.0000 C   0  0  0  0  0  0  0  0  0  0  0  0
    3.3482    3.4544    0.0000 H   0  0  0  0  0  0  0  0  0  0  0  0
    2.3837    5.1244    0.0000 H   0  0  0  0  0  0  0  0  0  0  0  0
    1.8710    2.2148    0.0000 C   0  0  0  0  0  0  0  0  0  0  0  0
    2.5478    0.3540    0.0000 H   0  0  0  0  0  0  0  0  0  0  0  0
    3.3482    2.4751    0.0000 H   0  0  0  0  0  0  0  0  0  0  0  0
    0.5710    1.4648    0.0000 C   0  0  0  0  0  0  0  0  0  0  0  0
   -0.3931    0.3156    0.0000 H   0  0  0  0  0  0  0  0  0  0  0  0
    2.1521   -0.4199    0.0000 C   0  0  0  0  0  0  0  0  0  0  0  0
    3.4510   -1.1700    0.0000 H   0  0  0  0  0  0  0  0  0  0  0  0
    3.8669    0.5699    0.0000 H   0  0  0  0  0  0  0  0  0  0  0  0
    1.6389   -1.8294    0.0000 O   0  0  0  0  0  0  0  0  0  0  0  0
    2.6029   -2.9785    0.0000 H   0  0  0  0  0  0  0  0  0  0  0  0
  1  2  1  0  0  0  0 
  1  3  1  0  0  0  0 
  1  4  1  0  0  0  0 
  4  5  1  0  0  0  0 
  4  6  1  0  0  0  0 
  4  7  1  0  0  0  0 
  7  8  1  0  0  0  0 
  8  9  1  0  0  0  0 
  8 10  1  0  0  0  0 
  8 11  1  0  0  0  0 
 11 12  1  0  0  0  0 
 11 13  1  0  0  0  0 
 11 14  1  0  0  0  0 
  1 14  1  0  0  0  0 
 14 15  1  0  0  0  0 
 14 16  1  0  0  0  0 
 16 17  1  0  0  0  0 
 16 18  1  0  0  0  0 
 16 19  1  0  0  0  0 
 19 20  1  0  0  0  0 
M  END
> <Rank>
8

> <Priority_score>
0.192

> <Reaction_type>
N-dealkylation_(R-NHCH2-alkyl)

> <Parent_ID>
12

> <Parent_InChI>
InChI=1S/C45H50ClN7O7S/c1-45(2)15-11-33(39(26-45)31-3-5-34(46)6-4-31)29-51-17-19-52(20-18-51)35-7-9-38(42(24-35)60-36-23-32-12-16-47-43(32)49-28-36)44(54)50-61(57,58)37-8-10-40(41(25-37)53(55)56)48-27-30-13-21-59-22-14-30/h3-10,12,16,23-25,28,30,48H,11,13-15,17-22,26-27,29H2,1-2H3,(H,47,49)(H,50,54)

> <Parent_SMILES>
CC1(C)CCC(CN2CCN(c3ccc(C(=O)NS(=O)(=O)c4ccc(NCC5CCOCC5)c([N+](=O)[O-])c4)c(Oc4cnc5[nH]ccc5c4)c3)CC2)=C(c2ccc(Cl)cc2)C1

$$$$
Molecule 12_metabolite 10
  CDK     0516241031

 18 18  0  0  0  0  0  0  0  0999 V2000
   -0.9915    1.1490    0.0000 C   0  0  0  0  0  0  0  0  0  0  0  0
   -2.4687    1.4093    0.0000 H   0  0  0  0  0  0  0  0  0  0  0  0
   -1.5042   -0.2606    0.0000 H   0  0  0  0  0  0  0  0  0  0  0  0
   -0.9915    2.6490    0.0000 C   0  0  0  0  0  0  0  0  0  0  0  0
   -1.5042    4.0587    0.0000 H   0  0  0  0  0  0  0  0  0  0  0  0
   -2.4687    2.3887    0.0000 H   0  0  0  0  0  0  0  0  0  0  0  0
    0.3085    3.3990    0.0000 O   0  0  0  0  0  0  0  0  0  0  0  0
    1.6085    2.6490    0.0000 C   0  0  0  0  0  0  0  0  0  0  0  0
    3.0857    2.3887    0.0000 H   0  0  0  0  0  0  0  0  0  0  0  0
    2.1212    4.0587    0.0000 H   0  0  0  0  0  0  0  0  0  0  0  0
    1.6085    1.1490    0.0000 C   0  0  0  0  0  0  0  0  0  0  0  0
    2.1212   -0.2606    0.0000 H   0  0  0  0  0  0  0  0  0  0  0  0
    3.0857    1.4093    0.0000 H   0  0  0  0  0  0  0  0  0  0  0  0
    0.3085    0.3990    0.0000 C   0  0  0  0  0  0  0  0  0  0  0  0
   -0.6556   -0.7502    0.0000 H   0  0  0  0  0  0  0  0  0  0  0  0
    1.5811   -1.1179    0.0000 C   0  0  0  0  0  0  0  0  0  0  0  0
    1.0679   -2.5274    0.0000 H   0  0  0  0  0  0  0  0  0  0  0  0
    3.0583   -0.8576    0.0000 O   0  0  0  0  0  0  0  0  0  0  0  0
  1  2  1  0  0  0  0 
  1  3  1  0  0  0  0 
  1  4  1  0  0  0  0 
  4  5  1  0  0  0  0 
  4  6  1  0  0  0  0 
  4  7  1  0  0  0  0 
  7  8  1  0  0  0  0 
  8  9  1  0  0  0  0 
  8 10  1  0  0  0  0 
  8 11  1  0  0  0  0 
 11 12  1  0  0  0  0 
 11 13  1  0  0  0  0 
 11 14  1  0  0  0  0 
  1 14  1  0  0  0  0 
 14 15  1  0  0  0  0 
 14 16  1  0  0  0  0 
 16 17  1  0  0  0  0 
 16 18  2  0  0  0  0 
M  END
> <Rank>
8

> <Priority_score>
0.192

> <Reaction_type>
N-dealkylation

> <Parent_ID>
12

> <Parent_InChI>
InChI=1S/C45H50ClN7O7S/c1-45(2)15-11-33(39(26-45)31-3-5-34(46)6-4-31)29-51-17-19-52(20-18-51)35-7-9-38(42(24-35)60-36-23-32-12-16-47-43(32)49-28-36)44(54)50-61(57,58)37-8-10-40(41(25-37)53(55)56)48-27-30-13-21-59-22-14-30/h3-10,12,16,23-25,28,30,48H,11,13-15,17-22,26-27,29H2,1-2H3,(H,47,49)(H,50,54)

> <Parent_SMILES>
CC1(C)CCC(CN2CCN(c3ccc(C(=O)NS(=O)(=O)c4ccc(NCC5CCOCC5)c([N+](=O)[O-])c4)c(Oc4cnc5[nH]ccc5c4)c3)CC2)=C(c2ccc(Cl)cc2)C1

$$$$
Molecule 12_metabolite 11
  CDK     0516241031

 94100  0  0  0  0  0  0  0  0999 V2000
  -13.6514   -9.2358    0.0000 C   0  0  0  0  0  0  0  0  0  0  0  0
  -14.1639   -7.8261    0.0000 H   0  0  0  0  0  0  0  0  0  0  0  0
  -13.6519  -10.7358    0.0000 H   0  0  0  0  0  0  0  0  0  0  0  0
  -15.1287   -9.4957    0.0000 H   0  0  0  0  0  0  0  0  0  0  0  0
  -11.2289   -9.6639    0.0000 C   0  0  0  0  0  0  0  0  0  0  0  0
  -12.2352  -12.4263    0.0000 C   0  0  0  0  0  0  0  0  0  0  0  0
  -13.7125  -12.6864    0.0000 H   0  0  0  0  0  0  0  0  0  0  0  0
  -12.2356  -13.9263    0.0000 H   0  0  0  0  0  0  0  0  0  0  0  0
  -10.7581  -12.6872    0.0000 H   0  0  0  0  0  0  0  0  0  0  0  0
  -11.2282   -8.1631    0.0000 C   0  0  0  0  0  0  0  0  0  0  0  0
  -11.7411   -6.7535    0.0000 H   0  0  0  0  0  0  0  0  0  0  0  0
  -12.7055   -8.4231    0.0000 H   0  0  0  0  0  0  0  0  0  0  0  0
   -9.9286   -7.4124    0.0000 C   0  0  0  0  0  0  0  0  0  0  0  0
   -8.6558   -5.8957    0.0000 H   0  0  0  0  0  0  0  0  0  0  0  0
  -10.8928   -6.2634    0.0000 H   0  0  0  0  0  0  0  0  0  0  0  0
   -8.6296   -8.1626    0.0000 C   0  0  0  0  0  0  0  0  0  0  0  0
   -8.6304   -9.6635    0.0000 C   0  0  0  0  0  0  0  0  0  0  0  0
   -9.9300  -10.4141    0.0000 C   0  0  0  0  0  0  0  0  0  0  0  0
  -10.8942  -11.5631    0.0000 H   0  0  0  0  0  0  0  0  0  0  0  0
   -8.9658  -11.5631    0.0000 H   0  0  0  0  0  0  0  0  0  0  0  0
   -7.3314  -10.4137    0.0000 C   0  0  0  0  0  0  0  0  0  0  0  0
   -7.3296  -11.8972    0.0000 C   0  0  0  0  0  0  0  0  0  0  0  0
   -8.6301  -12.6447    0.0000 H   0  0  0  0  0  0  0  0  0  0  0  0
   -6.0345  -12.6539    0.0000 C   0  0  0  0  0  0  0  0  0  0  0  0
   -6.0514  -14.1538    0.0000 H   0  0  0  0  0  0  0  0  0  0  0  0
   -4.7325  -11.9322    0.0000 C   0  0  0  0  0  0  0  0  0  0  0  0
   -4.7279  -10.4177    0.0000 C   0  0  0  0  0  0  0  0  0  0  0  0
   -3.4257   -9.6731    0.0000 H   0  0  0  0  0  0  0  0  0  0  0  0
   -6.0230   -9.6610    0.0000 C   0  0  0  0  0  0  0  0  0  0  0  0
   -6.0179   -8.1610    0.0000 H   0  0  0  0  0  0  0  0  0  0  0  0
   -3.4413  -12.6954    0.0000 Cl  0  0  0  0  0  0  0  0  0  0  0  0
   -7.3304   -7.4131    0.0000 C   0  0  0  0  0  0  0  0  0  0  0  0
   -6.8178   -8.8228    0.0000 H   0  0  0  0  0  0  0  0  0  0  0  0
   -4.4349   -6.9035    0.0000 H   0  0  0  0  0  0  0  0  0  0  0  0
   -7.3294   -4.4731    0.0000 N   0  0  0  0  0  0  0  0  0  0  0  0
   -6.0295   -3.7228    0.0000 C   0  0  0  0  0  0  0  0  0  0  0  0
   -5.5170   -5.1326    0.0000 H   0  0  0  0  0  0  0  0  0  0  0  0
   -4.5522   -3.4632    0.0000 H   0  0  0  0  0  0  0  0  0  0  0  0
   -6.0283   -2.2220    0.0000 C   0  0  0  0  0  0  0  0  0  0  0  0
   -4.5513   -2.4835    0.0000 H   0  0  0  0  0  0  0  0  0  0  0  0
   -5.5145   -0.8128    0.0000 H   0  0  0  0  0  0  0  0  0  0  0  0
   -7.3270   -1.4714    0.0000 N   0  0  0  0  0  0  0  0  0  0  0  0
   -8.6269   -2.2216    0.0000 C   0  0  0  0  0  0  0  0  0  0  0  0
   -9.1394   -0.8119    0.0000 H   0  0  0  0  0  0  0  0  0  0  0  0
  -10.1043   -2.4812    0.0000 H   0  0  0  0  0  0  0  0  0  0  0  0
   -8.6281   -3.7224    0.0000 C   0  0  0  0  0  0  0  0  0  0  0  0
  -10.1051   -3.4609    0.0000 H   0  0  0  0  0  0  0  0  0  0  0  0
   -9.1420   -5.1317    0.0000 H   0  0  0  0  0  0  0  0  0  0  0  0
   -7.3265    0.0286    0.0000 C   0  0  0  0  0  0  0  0  0  0  0  0
   -8.6259    0.7797    0.0000 C   0  0  0  0  0  0  0  0  0  0  0  0
   -9.9251    0.0299    0.0000 H   0  0  0  0  0  0  0  0  0  0  0  0
   -8.6262    2.2805    0.0000 C   0  0  0  0  0  0  0  0  0  0  0  0
   -9.9252    3.0305    0.0000 H   0  0  0  0  0  0  0  0  0  0  0  0
   -7.3270    3.0303    0.0000 C   0  0  0  0  0  0  0  0  0  0  0  0
   -6.0276    2.2792    0.0000 C   0  0  0  0  0  0  0  0  0  0  0  0
   -6.0274    0.7784    0.0000 C   0  0  0  0  0  0  0  0  0  0  0  0
   -4.7283    0.0284    0.0000 H   0  0  0  0  0  0  0  0  0  0  0  0
   -3.8970    3.5089    0.0000 O   0  0  0  0  0  0  0  0  0  0  0  0
   -2.5981    2.7587    0.0000 C   0  0  0  0  0  0  0  0  0  0  0  0
   -1.2981    3.5087    0.0000 C   0  0  0  0  0  0  0  0  0  0  0  0
   -1.2981    5.0087    0.0000 H   0  0  0  0  0  0  0  0  0  0  0  0
    0.0019    2.7587    0.0000 C   0  0  0  0  0  0  0  0  0  0  0  0
    0.0019    1.2587    0.0000 C   0  0  0  0  0  0  0  0  0  0  0  0
    1.4319    0.7987    0.0000 N   0  0  0  0  0  0  0  0  0  0  0  0
    1.8972   -0.6273    0.0000 H   0  0  0  0  0  0  0  0  0  0  0  0
    2.3119    2.0087    0.0000 C   0  0  0  0  0  0  0  0  0  0  0  0
    3.8119    2.0087    0.0000 H   0  0  0  0  0  0  0  0  0  0  0  0
    1.4319    3.2187    0.0000 C   0  0  0  0  0  0  0  0  0  0  0  0
    1.8972    4.6447    0.0000 H   0  0  0  0  0  0  0  0  0  0  0  0
   -1.2981    0.5087    0.0000 N   0  0  0  0  0  0  0  0  0  0  0  0
   -2.5981    1.2587    0.0000 C   0  0  0  0  0  0  0  0  0  0  0  0
   -3.8970    0.5085    0.0000 H   0  0  0  0  0  0  0  0  0  0  0  0
   -7.3265    4.5303    0.0000 C   0  0  0  0  0  0  0  0  0  0  0  0
   -6.0273    5.2799    0.0000 O   0  0  0  0  0  0  0  0  0  0  0  0
   -8.6253    5.2807    0.0000 N   0  0  0  0  0  0  0  0  0  0  0  0
   -9.9246    4.5311    0.0000 H   0  0  0  0  0  0  0  0  0  0  0  0
   -8.6248    6.7807    0.0000 S   0  0  0  0  0  0  0  0  0  0  0  0
   -7.1477    6.5197    0.0000 O   0  0  0  0  0  0  0  0  0  0  0  0
   -8.1114    8.1901    0.0000 O   0  0  0  0  0  0  0  0  0  0  0  0
   -9.9236    7.5311    0.0000 C   0  0  0  0  0  0  0  0  0  0  0  0
  -11.2238    6.7813    0.0000 C   0  0  0  0  0  0  0  0  0  0  0  0
  -11.2240    5.2813    0.0000 H   0  0  0  0  0  0  0  0  0  0  0  0
  -12.5236    7.5315    0.0000 C   0  0  0  0  0  0  0  0  0  0  0  0
  -13.8227    6.7815    0.0000 H   0  0  0  0  0  0  0  0  0  0  0  0
  -12.5234    9.0315    0.0000 C   0  0  0  0  0  0  0  0  0  0  0  0
  -11.2233    9.7813    0.0000 C   0  0  0  0  0  0  0  0  0  0  0  0
   -9.9234    9.0311    0.0000 C   0  0  0  0  0  0  0  0  0  0  0  0
   -8.6244    9.7811    0.0000 H   0  0  0  0  0  0  0  0  0  0  0  0
  -11.2230   11.2813    0.0000 N   0  0  0  0  0  0  0  0  0  0  0  0
  -12.5220   12.0315    0.0000 O   0  0  0  0  0  0  0  0  0  0  0  0
   -9.9239   12.0311    0.0000 O   0  0  0  0  0  0  0  0  0  0  0  0
  -13.8222    9.7819    0.0000 N   0  0  0  0  0  0  0  0  0  0  0  0
  -13.8217   11.2819    0.0000 H   0  0  0  0  0  0  0  0  0  0  0  0
  -15.1215    9.0324    0.0000 H   0  0  0  0  0  0  0  0  0  0  0  0
  1  2  1  0  0  0  0 
  1  3  1  0  0  0  0 
  1  4  1  0  0  0  0 
  1  5  1  0  0  0  0 
  5  6  1  0  0  0  0 
  6  7  1  0  0  0  0 
  6  8  1  0  0  0  0 
  6  9  1  0  0  0  0 
  5 10  1  0  0  0  0 
 10 11  1  0  0  0  0 
 10 12  1  0  0  0  0 
 10 13  1  0  0  0  0 
 13 14  1  0  0  0  0 
 13 15  1  0  0  0  0 
 13 16  1  0  0  0  0 
 16 17  2  0  0  0  0 
 17 18  1  0  0  0  0 
  5 18  1  0  0  0  0 
 18 19  1  0  0  0  0 
 18 20  1  0  0  0  0 
 17 21  1  0  0  0  0 
 21 22  2  0  0  0  0 
 22 23  1  0  0  0  0 
 22 24  1  0  0  0  0 
 24 25  1  0  0  0  0 
 24 26  2  0  0  0  0 
 26 27  1  0  0  0  0 
 27 28  1  0  0  0  0 
 27 29  2  0  0  0  0 
 21 29  1  0  0  0  0 
 29 30  1  0  0  0  0 
 26 31  1  0  0  0  0 
 16 32  1  0  0  0  0 
 32 33  1  0  0  0  0 
 32 34  1  0  0  0  0 
 32 35  1  0  0  0  0 
 35 36  1  0  0  0  0 
 36 37  1  0  0  0  0 
 36 38  1  0  0  0  0 
 36 39  1  0  0  0  0 
 39 40  1  0  0  0  0 
 39 41  1  0  0  0  0 
 39 42  1  0  0  0  0 
 42 43  1  0  0  0  0 
 43 44  1  0  0  0  0 
 43 45  1  0  0  0  0 
 43 46  1  0  0  0  0 
 35 46  1  0  0  0  0 
 46 47  1  0  0  0  0 
 46 48  1  0  0  0  0 
 42 49  1  0  0  0  0 
 49 50  2  0  0  0  0 
 50 51  1  0  0  0  0 
 50 52  1  0  0  0  0 
 52 53  1  0  0  0  0 
 52 54  2  0  0  0  0 
 54 55  1  0  0  0  0 
 55 56  2  0  0  0  0 
 49 56  1  0  0  0  0 
 56 57  1  0  0  0  0 
 55 58  1  0  0  0  0 
 58 59  1  0  0  0  0 
 59 60  2  0  0  0  0 
 60 61  1  0  0  0  0 
 60 62  1  0  0  0  0 
 62 63  2  0  0  0  0 
 63 64  1  0  0  0  0 
 64 65  1  0  0  0  0 
 64 66  1  0  0  0  0 
 66 67  1  0  0  0  0 
 66 68  2  0  0  0  0 
 62 68  1  0  0  0  0 
 68 69  1  0  0  0  0 
 63 70  1  0  0  0  0 
 70 71  2  0  0  0  0 
 59 71  1  0  0  0  0 
 71 72  1  0  0  0  0 
 54 73  1  0  0  0  0 
 73 74  2  0  0  0  0 
 73 75  1  0  0  0  0 
 75 76  1  0  0  0  0 
 75 77  1  0  0  0  0 
 77 78  2  0  0  0  0 
 77 79  2  0  0  0  0 
 77 80  1  0  0  0  0 
 80 81  2  0  0  0  0 
 81 82  1  0  0  0  0 
 81 83  1  0  0  0  0 
 83 84  1  0  0  0  0 
 83 85  2  0  0  0  0 
 85 86  1  0  0  0  0 
 86 87  2  0  0  0  0 
 80 87  1  0  0  0  0 
 87 88  1  0  0  0  0 
 86 89  1  0  0  0  0 
 89 90  2  0  0  0  0 
 89 91  1  0  0  0  0 
 85 92  1  0  0  0  0 
 92 93  1  0  0  0  0 
 92 94  1  0  0  0  0 
M  CHG  1  89   1
M  CHG  1  91  -1
M  END
> <Rank>
8

> <Priority_score>
0.192

> <Reaction_type>
N-dealkylation_(R-NHCH2-alkyl)

> <Parent_ID>
12

> <Parent_InChI>
InChI=1S/C45H50ClN7O7S/c1-45(2)15-11-33(39(26-45)31-3-5-34(46)6-4-31)29-51-17-19-52(20-18-51)35-7-9-38(42(24-35)60-36-23-32-12-16-47-43(32)49-28-36)44(54)50-61(57,58)37-8-10-40(41(25-37)53(55)56)48-27-30-13-21-59-22-14-30/h3-10,12,16,23-25,28,30,48H,11,13-15,17-22,26-27,29H2,1-2H3,(H,47,49)(H,50,54)

> <Parent_SMILES>
CC1(C)CCC(CN2CCN(c3ccc(C(=O)NS(=O)(=O)c4ccc(NCC5CCOCC5)c([N+](=O)[O-])c4)c(Oc4cnc5[nH]ccc5c4)c3)CC2)=C(c2ccc(Cl)cc2)C1

$$$$
Molecule 12_metabolite 12
  CDK     0516241031

112119  0  0  0  0  0  0  0  0999 V2000
    4.0755   19.0737    0.0000 C   0  0  0  0  0  0  0  0  0  0  0  0
    2.5982   18.8136    0.0000 H   0  0  0  0  0  0  0  0  0  0  0  0
    5.3747   19.8233    0.0000 H   0  0  0  0  0  0  0  0  0  0  0  0
    3.5628   20.4833    0.0000 H   0  0  0  0  0  0  0  0  0  0  0  0
    5.6562   17.1888    0.0000 C   0  0  0  0  0  0  0  0  0  0  0  0
    7.2382   19.0726    0.0000 C   0  0  0  0  0  0  0  0  0  0  0  0
    6.7257   20.4824    0.0000 H   0  0  0  0  0  0  0  0  0  0  0  0
    8.5375   19.8222    0.0000 H   0  0  0  0  0  0  0  0  0  0  0  0
    8.2019   17.9232    0.0000 H   0  0  0  0  0  0  0  0  0  0  0  0
    4.3563   16.4386    0.0000 C   0  0  0  0  0  0  0  0  0  0  0  0
    2.8790   16.1789    0.0000 H   0  0  0  0  0  0  0  0  0  0  0  0
    3.8438   17.8483    0.0000 H   0  0  0  0  0  0  0  0  0  0  0  0
    4.3551   14.9377    0.0000 C   0  0  0  0  0  0  0  0  0  0  0  0
    3.6768   13.0775    0.0000 H   0  0  0  0  0  0  0  0  0  0  0  0
    2.8781   15.1992    0.0000 H   0  0  0  0  0  0  0  0  0  0  0  0
    5.6538   14.1871    0.0000 C   0  0  0  0  0  0  0  0  0  0  0  0
    6.9537   14.9373    0.0000 C   0  0  0  0  0  0  0  0  0  0  0  0
    6.9549   16.4381    0.0000 C   0  0  0  0  0  0  0  0  0  0  0  0
    7.4688   17.8474    0.0000 H   0  0  0  0  0  0  0  0  0  0  0  0
    8.4319   16.1766    0.0000 H   0  0  0  0  0  0  0  0  0  0  0  0
    8.2524   14.1867    0.0000 C   0  0  0  0  0  0  0  0  0  0  0  0
    9.5386   14.9260    0.0000 C   0  0  0  0  0  0  0  0  0  0  0  0
    9.5365   16.4260    0.0000 H   0  0  0  0  0  0  0  0  0  0  0  0
   10.8410   14.1819    0.0000 C   0  0  0  0  0  0  0  0  0  0  0  0
   12.1320   14.9457    0.0000 H   0  0  0  0  0  0  0  0  0  0  0  0
   10.8659   12.6935    0.0000 C   0  0  0  0  0  0  0  0  0  0  0  0
    9.5562   11.9331    0.0000 C   0  0  0  0  0  0  0  0  0  0  0  0
    9.5614   10.4331    0.0000 H   0  0  0  0  0  0  0  0  0  0  0  0
    8.2538   12.6772    0.0000 C   0  0  0  0  0  0  0  0  0  0  0  0
    6.9568   11.9236    0.0000 H   0  0  0  0  0  0  0  0  0  0  0  0
   12.1721   11.9560    0.0000 Cl  0  0  0  0  0  0  0  0  0  0  0  0
    5.6533   12.6871    0.0000 C   0  0  0  0  0  0  0  0  0  0  0  0
    7.1306   12.9471    0.0000 H   0  0  0  0  0  0  0  0  0  0  0  0
    6.1659   11.2774    0.0000 H   0  0  0  0  0  0  0  0  0  0  0  0
    3.1068   11.2179    0.0000 N   0  0  0  0  0  0  0  0  0  0  0  0
    3.1060    9.7171    0.0000 C   0  0  0  0  0  0  0  0  0  0  0  0
    4.5833    9.9772    0.0000 H   0  0  0  0  0  0  0  0  0  0  0  0
    3.6190    8.3075    0.0000 H   0  0  0  0  0  0  0  0  0  0  0  0
    1.8064    8.9665    0.0000 C   0  0  0  0  0  0  0  0  0  0  0  0
    2.7706    7.8174    0.0000 H   0  0  0  0  0  0  0  0  0  0  0  0
    0.8422    7.8174    0.0000 H   0  0  0  0  0  0  0  0  0  0  0  0
    0.5075    9.7167    0.0000 N   0  0  0  0  0  0  0  0  0  0  0  0
    0.5082   11.2175    0.0000 C   0  0  0  0  0  0  0  0  0  0  0  0
   -0.9691   10.9574    0.0000 H   0  0  0  0  0  0  0  0  0  0  0  0
   -0.0048   12.6271    0.0000 H   0  0  0  0  0  0  0  0  0  0  0  0
    1.8078   11.9681    0.0000 C   0  0  0  0  0  0  0  0  0  0  0  0
    0.8436   13.1171    0.0000 H   0  0  0  0  0  0  0  0  0  0  0  0
    2.7721   13.1171    0.0000 H   0  0  0  0  0  0  0  0  0  0  0  0
   -0.7918    8.9671    0.0000 C   0  0  0  0  0  0  0  0  0  0  0  0
   -2.0914    9.7177    0.0000 C   0  0  0  0  0  0  0  0  0  0  0  0
   -2.0907   11.2177    0.0000 H   0  0  0  0  0  0  0  0  0  0  0  0
   -3.3918    8.9683    0.0000 C   0  0  0  0  0  0  0  0  0  0  0  0
   -4.6904    9.7192    0.0000 H   0  0  0  0  0  0  0  0  0  0  0  0
   -3.3925    7.4683    0.0000 C   0  0  0  0  0  0  0  0  0  0  0  0
   -2.0929    6.7177    0.0000 C   0  0  0  0  0  0  0  0  0  0  0  0
   -0.7925    7.4671    0.0000 C   0  0  0  0  0  0  0  0  0  0  0  0
    0.5060    6.7162    0.0000 H   0  0  0  0  0  0  0  0  0  0  0  0
   -2.0941    4.2577    0.0000 O   0  0  0  0  0  0  0  0  0  0  0  0
   -0.7954    3.5071    0.0000 C   0  0  0  0  0  0  0  0  0  0  0  0
   -0.7959    2.0062    0.0000 C   0  0  0  0  0  0  0  0  0  0  0  0
   -2.0954    1.2571    0.0000 H   0  0  0  0  0  0  0  0  0  0  0  0
    0.5032    1.2546    0.0000 C   0  0  0  0  0  0  0  0  0  0  0  0
    1.8027    2.0037    0.0000 C   0  0  0  0  0  0  0  0  0  0  0  0
    2.9154    0.9946    0.0000 N   0  0  0  0  0  0  0  0  0  0  0  0
    4.3832    1.3037    0.0000 H   0  0  0  0  0  0  0  0  0  0  0  0
    2.3066   -0.3721    0.0000 C   0  0  0  0  0  0  0  0  0  0  0  0
    3.0558   -1.6716    0.0000 H   0  0  0  0  0  0  0  0  0  0  0  0
    0.8189   -0.2140    0.0000 C   0  0  0  0  0  0  0  0  0  0  0  0
   -0.1842   -1.3293    0.0000 H   0  0  0  0  0  0  0  0  0  0  0  0
    1.8032    3.5046    0.0000 N   0  0  0  0  0  0  0  0  0  0  0  0
    0.5041    4.2562    0.0000 C   0  0  0  0  0  0  0  0  0  0  0  0
    0.5053    5.7562    0.0000 H   0  0  0  0  0  0  0  0  0  0  0  0
   -4.6918    6.7187    0.0000 C   0  0  0  0  0  0  0  0  0  0  0  0
   -4.6923    5.2187    0.0000 O   0  0  0  0  0  0  0  0  0  0  0  0
   -5.9906    7.4692    0.0000 N   0  0  0  0  0  0  0  0  0  0  0  0
   -5.9901    8.9692    0.0000 H   0  0  0  0  0  0  0  0  0  0  0  0
   -7.2899    6.7196    0.0000 S   0  0  0  0  0  0  0  0  0  0  0  0
   -6.3261    5.5702    0.0000 O   0  0  0  0  0  0  0  0  0  0  0  0
   -8.2544    5.5708    0.0000 O   0  0  0  0  0  0  0  0  0  0  0  0
   -8.5887    7.4700    0.0000 C   0  0  0  0  0  0  0  0  0  0  0  0
   -8.5884    8.9708    0.0000 C   0  0  0  0  0  0  0  0  0  0  0  0
   -7.2890    9.7202    0.0000 H   0  0  0  0  0  0  0  0  0  0  0  0
   -9.8876    9.7223    0.0000 C   0  0  0  0  0  0  0  0  0  0  0  0
   -9.8866   11.2223    0.0000 H   0  0  0  0  0  0  0  0  0  0  0  0
  -11.1870    8.9729    0.0000 C   0  0  0  0  0  0  0  0  0  0  0  0
  -11.1872    7.4721    0.0000 C   0  0  0  0  0  0  0  0  0  0  0  0
   -9.8881    6.7206    0.0000 C   0  0  0  0  0  0  0  0  0  0  0  0
   -9.8890    5.2206    0.0000 H   0  0  0  0  0  0  0  0  0  0  0  0
  -12.4866    6.7227    0.0000 N   0  0  0  0  0  0  0  0  0  0  0  0
  -13.7853    7.4733    0.0000 O   0  0  0  0  0  0  0  0  0  0  0  0
  -12.4874    5.2227    0.0000 O   0  0  0  0  0  0  0  0  0  0  0  0
  -12.4858    9.7233    0.0000 N   0  0  0  0  0  0  0  0  0  0  0  0
  -13.7851    8.9737    0.0000 H   0  0  0  0  0  0  0  0  0  0  0  0
  -12.4853   11.2233    0.0000 C   0  0  0  0  0  0  0  0  0  0  0  0
  -11.0082   10.9624    0.0000 H   0  0  0  0  0  0  0  0  0  0  0  0
  -14.6153   12.4540    0.0000 C   0  0  0  0  0  0  0  0  0  0  0  0
  -15.1285   11.0445    0.0000 H   0  0  0  0  0  0  0  0  0  0  0  0
  -13.6500   13.6032    0.0000 C   0  0  0  0  0  0  0  0  0  0  0  0
  -12.3507   14.3528    0.0000 H   0  0  0  0  0  0  0  0  0  0  0  0
  -12.6863   12.4537    0.0000 H   0  0  0  0  0  0  0  0  0  0  0  0
  -14.1627   15.0128    0.0000 C   0  0  0  0  0  0  0  0  0  0  0  0
  -14.1627   16.5128    0.0000 H   0  0  0  0  0  0  0  0  0  0  0  0
  -12.6855   15.2732    0.0000 H   0  0  0  0  0  0  0  0  0  0  0  0
  -15.6408   15.2733    0.0000 O   0  0  0  0  0  0  0  0  0  0  0  0
  -16.6061   14.1241    0.0000 C   0  0  0  0  0  0  0  0  0  0  0  0
  -17.9054   13.3745    0.0000 H   0  0  0  0  0  0  0  0  0  0  0  0
  -17.5698   15.2736    0.0000 H   0  0  0  0  0  0  0  0  0  0  0  0
  -16.0934   12.7145    0.0000 C   0  0  0  0  0  0  0  0  0  0  0  0
  -16.0934   11.2145    0.0000 H   0  0  0  0  0  0  0  0  0  0  0  0
  -17.5706   12.4541    0.0000 H   0  0  0  0  0  0  0  0  0  0  0  0
  -11.9718   12.6327    0.0000 O   0  0  0  0  0  0  0  0  0  0  0  0
  -10.4945   12.8927    0.0000 H   0  0  0  0  0  0  0  0  0  0  0  0
  1  2  1  0  0  0  0 
  1  3  1  0  0  0  0 
  1  4  1  0  0  0  0 
  1  5  1  0  0  0  0 
  5  6  1  0  0  0  0 
  6  7  1  0  0  0  0 
  6  8  1  0  0  0  0 
  6  9  1  0  0  0  0 
  5 10  1  0  0  0  0 
 10 11  1  0  0  0  0 
 10 12  1  0  0  0  0 
 10 13  1  0  0  0  0 
 13 14  1  0  0  0  0 
 13 15  1  0  0  0  0 
 13 16  1  0  0  0  0 
 16 17  2  0  0  0  0 
 17 18  1  0  0  0  0 
  5 18  1  0  0  0  0 
 18 19  1  0  0  0  0 
 18 20  1  0  0  0  0 
 17 21  1  0  0  0  0 
 21 22  2  0  0  0  0 
 22 23  1  0  0  0  0 
 22 24  1  0  0  0  0 
 24 25  1  0  0  0  0 
 24 26  2  0  0  0  0 
 26 27  1  0  0  0  0 
 27 28  1  0  0  0  0 
 27 29  2  0  0  0  0 
 21 29  1  0  0  0  0 
 29 30  1  0  0  0  0 
 26 31  1  0  0  0  0 
 16 32  1  0  0  0  0 
 32 33  1  0  0  0  0 
 32 34  1  0  0  0  0 
 32 35  1  0  0  0  0 
 35 36  1  0  0  0  0 
 36 37  1  0  0  0  0 
 36 38  1  0  0  0  0 
 36 39  1  0  0  0  0 
 39 40  1  0  0  0  0 
 39 41  1  0  0  0  0 
 39 42  1  0  0  0  0 
 42 43  1  0  0  0  0 
 43 44  1  0  0  0  0 
 43 45  1  0  0  0  0 
 43 46  1  0  0  0  0 
 35 46  1  0  0  0  0 
 46 47  1  0  0  0  0 
 46 48  1  0  0  0  0 
 42 49  1  0  0  0  0 
 49 50  2  0  0  0  0 
 50 51  1  0  0  0  0 
 50 52  1  0  0  0  0 
 52 53  1  0  0  0  0 
 52 54  2  0  0  0  0 
 54 55  1  0  0  0  0 
 55 56  2  0  0  0  0 
 49 56  1  0  0  0  0 
 56 57  1  0  0  0  0 
 55 58  1  0  0  0  0 
 58 59  1  0  0  0  0 
 59 60  2  0  0  0  0 
 60 61  1  0  0  0  0 
 60 62  1  0  0  0  0 
 62 63  2  0  0  0  0 
 63 64  1  0  0  0  0 
 64 65  1  0  0  0  0 
 64 66  1  0  0  0  0 
 66 67  1  0  0  0  0 
 66 68  2  0  0  0  0 
 62 68  1  0  0  0  0 
 68 69  1  0  0  0  0 
 63 70  1  0  0  0  0 
 70 71  2  0  0  0  0 
 59 71  1  0  0  0  0 
 71 72  1  0  0  0  0 
 54 73  1  0  0  0  0 
 73 74  2  0  0  0  0 
 73 75  1  0  0  0  0 
 75 76  1  0  0  0  0 
 75 77  1  0  0  0  0 
 77 78  2  0  0  0  0 
 77 79  2  0  0  0  0 
 77 80  1  0  0  0  0 
 80 81  2  0  0  0  0 
 81 82  1  0  0  0  0 
 81 83  1  0  0  0  0 
 83 84  1  0  0  0  0 
 83 85  2  0  0  0  0 
 85 86  1  0  0  0  0 
 86 87  2  0  0  0  0 
 80 87  1  0  0  0  0 
 87 88  1  0  0  0  0 
 86 89  1  0  0  0  0 
 89 90  2  0  0  0  0 
 89 91  1  0  0  0  0 
 85 92  1  0  0  0  0 
 92 93  1  0  0  0  0 
 92 94  1  0  0  0  0 
 94 95  1  0  0  0  0 
 94 96  1  0  0  0  0 
 96 97  1  0  0  0  0 
 96 98  1  0  0  0  0 
 98 99  1  0  0  0  0 
 98100  1  0  0  0  0 
 98101  1  0  0  0  0 
101102  1  0  0  0  0 
101103  1  0  0  0  0 
101104  1  0  0  0  0 
104105  1  0  0  0  0 
105106  1  0  0  0  0 
105107  1  0  0  0  0 
105108  1  0  0  0  0 
 96108  1  0  0  0  0 
108109  1  0  0  0  0 
108110  1  0  0  0  0 
 94111  1  0  0  0  0 
111112  1  0  0  0  0 
M  CHG  1  89   1
M  CHG  1  91  -1
M  END
> <Rank>
8

> <Priority_score>
0.192

> <Reaction_type>
aliphatic hydroxylation

> <Parent_ID>
12

> <Parent_InChI>
InChI=1S/C45H50ClN7O7S/c1-45(2)15-11-33(39(26-45)31-3-5-34(46)6-4-31)29-51-17-19-52(20-18-51)35-7-9-38(42(24-35)60-36-23-32-12-16-47-43(32)49-28-36)44(54)50-61(57,58)37-8-10-40(41(25-37)53(55)56)48-27-30-13-21-59-22-14-30/h3-10,12,16,23-25,28,30,48H,11,13-15,17-22,26-27,29H2,1-2H3,(H,47,49)(H,50,54)

> <Parent_SMILES>
CC1(C)CCC(CN2CCN(c3ccc(C(=O)NS(=O)(=O)c4ccc(NCC5CCOCC5)c([N+](=O)[O-])c4)c(Oc4cnc5[nH]ccc5c4)c3)CC2)=C(c2ccc(Cl)cc2)C1

$$$$
Molecule 12_metabolite 13
  CDK     0516241031

112119  0  0  0  0  0  0  0  0999 V2000
    4.0755   19.0737    0.0000 C   0  0  0  0  0  0  0  0  0  0  0  0
    2.5982   18.8136    0.0000 H   0  0  0  0  0  0  0  0  0  0  0  0
    5.3747   19.8233    0.0000 H   0  0  0  0  0  0  0  0  0  0  0  0
    3.5628   20.4833    0.0000 H   0  0  0  0  0  0  0  0  0  0  0  0
    5.6562   17.1888    0.0000 C   0  0  0  0  0  0  0  0  0  0  0  0
    7.2382   19.0726    0.0000 C   0  0  0  0  0  0  0  0  0  0  0  0
    6.7257   20.4824    0.0000 H   0  0  0  0  0  0  0  0  0  0  0  0
    8.5375   19.8222    0.0000 H   0  0  0  0  0  0  0  0  0  0  0  0
    8.2019   17.9232    0.0000 H   0  0  0  0  0  0  0  0  0  0  0  0
    4.3563   16.4386    0.0000 C   0  0  0  0  0  0  0  0  0  0  0  0
    2.8790   16.1789    0.0000 H   0  0  0  0  0  0  0  0  0  0  0  0
    3.8438   17.8483    0.0000 H   0  0  0  0  0  0  0  0  0  0  0  0
    4.3551   14.9377    0.0000 C   0  0  0  0  0  0  0  0  0  0  0  0
    3.6768   13.0775    0.0000 H   0  0  0  0  0  0  0  0  0  0  0  0
    2.8781   15.1992    0.0000 H   0  0  0  0  0  0  0  0  0  0  0  0
    5.6538   14.1871    0.0000 C   0  0  0  0  0  0  0  0  0  0  0  0
    6.9537   14.9373    0.0000 C   0  0  0  0  0  0  0  0  0  0  0  0
    6.9549   16.4381    0.0000 C   0  0  0  0  0  0  0  0  0  0  0  0
    7.4688   17.8474    0.0000 H   0  0  0  0  0  0  0  0  0  0  0  0
    8.4319   16.1766    0.0000 H   0  0  0  0  0  0  0  0  0  0  0  0
    8.2524   14.1867    0.0000 C   0  0  0  0  0  0  0  0  0  0  0  0
    9.5386   14.9260    0.0000 C   0  0  0  0  0  0  0  0  0  0  0  0
    9.5365   16.4260    0.0000 H   0  0  0  0  0  0  0  0  0  0  0  0
   10.8410   14.1819    0.0000 C   0  0  0  0  0  0  0  0  0  0  0  0
   12.1320   14.9457    0.0000 H   0  0  0  0  0  0  0  0  0  0  0  0
   10.8659   12.6935    0.0000 C   0  0  0  0  0  0  0  0  0  0  0  0
    9.5562   11.9331    0.0000 C   0  0  0  0  0  0  0  0  0  0  0  0
    9.5614   10.4331    0.0000 H   0  0  0  0  0  0  0  0  0  0  0  0
    8.2538   12.6772    0.0000 C   0  0  0  0  0  0  0  0  0  0  0  0
    6.9568   11.9236    0.0000 H   0  0  0  0  0  0  0  0  0  0  0  0
   12.1721   11.9560    0.0000 Cl  0  0  0  0  0  0  0  0  0  0  0  0
    5.6533   12.6871    0.0000 C   0  0  0  0  0  0  0  0  0  0  0  0
    7.1306   12.9471    0.0000 H   0  0  0  0  0  0  0  0  0  0  0  0
    6.1659   11.2774    0.0000 H   0  0  0  0  0  0  0  0  0  0  0  0
    3.1068   11.2179    0.0000 N   0  0  0  0  0  0  0  0  0  0  0  0
    3.1060    9.7171    0.0000 C   0  0  0  0  0  0  0  0  0  0  0  0
    4.5833    9.9772    0.0000 H   0  0  0  0  0  0  0  0  0  0  0  0
    3.6190    8.3075    0.0000 H   0  0  0  0  0  0  0  0  0  0  0  0
    1.8064    8.9665    0.0000 C   0  0  0  0  0  0  0  0  0  0  0  0
    2.7706    7.8174    0.0000 H   0  0  0  0  0  0  0  0  0  0  0  0
    0.8422    7.8174    0.0000 H   0  0  0  0  0  0  0  0  0  0  0  0
    0.5075    9.7167    0.0000 N   0  0  0  0  0  0  0  0  0  0  0  0
    0.5082   11.2175    0.0000 C   0  0  0  0  0  0  0  0  0  0  0  0
   -0.9691   10.9574    0.0000 H   0  0  0  0  0  0  0  0  0  0  0  0
   -0.0048   12.6271    0.0000 H   0  0  0  0  0  0  0  0  0  0  0  0
    1.8078   11.9681    0.0000 C   0  0  0  0  0  0  0  0  0  0  0  0
    0.8436   13.1171    0.0000 H   0  0  0  0  0  0  0  0  0  0  0  0
    2.7721   13.1171    0.0000 H   0  0  0  0  0  0  0  0  0  0  0  0
   -0.7918    8.9671    0.0000 C   0  0  0  0  0  0  0  0  0  0  0  0
   -2.0914    9.7177    0.0000 C   0  0  0  0  0  0  0  0  0  0  0  0
   -2.0907   11.2177    0.0000 H   0  0  0  0  0  0  0  0  0  0  0  0
   -3.3918    8.9683    0.0000 C   0  0  0  0  0  0  0  0  0  0  0  0
   -4.6904    9.7192    0.0000 H   0  0  0  0  0  0  0  0  0  0  0  0
   -3.3925    7.4683    0.0000 C   0  0  0  0  0  0  0  0  0  0  0  0
   -2.0929    6.7177    0.0000 C   0  0  0  0  0  0  0  0  0  0  0  0
   -0.7925    7.4671    0.0000 C   0  0  0  0  0  0  0  0  0  0  0  0
    0.5060    6.7162    0.0000 H   0  0  0  0  0  0  0  0  0  0  0  0
   -2.0941    4.2577    0.0000 O   0  0  0  0  0  0  0  0  0  0  0  0
   -0.7954    3.5071    0.0000 C   0  0  0  0  0  0  0  0  0  0  0  0
   -0.7959    2.0062    0.0000 C   0  0  0  0  0  0  0  0  0  0  0  0
   -2.0954    1.2571    0.0000 H   0  0  0  0  0  0  0  0  0  0  0  0
    0.5032    1.2546    0.0000 C   0  0  0  0  0  0  0  0  0  0  0  0
    1.8027    2.0037    0.0000 C   0  0  0  0  0  0  0  0  0  0  0  0
    1.8032    3.5046    0.0000 N   0  0  0  0  0  0  0  0  0  0  0  0
    0.5041    4.2562    0.0000 C   0  0  0  0  0  0  0  0  0  0  0  0
    0.5053    5.7562    0.0000 H   0  0  0  0  0  0  0  0  0  0  0  0
    2.9154    0.9946    0.0000 N   0  0  0  0  0  0  0  0  0  0  0  0
    4.3832    1.3037    0.0000 H   0  0  0  0  0  0  0  0  0  0  0  0
    2.3066   -0.3721    0.0000 C   0  0  0  0  0  0  0  0  0  0  0  0
    0.8189   -0.2140    0.0000 C   0  0  0  0  0  0  0  0  0  0  0  0
   -0.1842   -1.3293    0.0000 H   0  0  0  0  0  0  0  0  0  0  0  0
    3.0558   -1.6716    0.0000 O   0  0  0  0  0  0  0  0  0  0  0  0
    2.3050   -2.9702    0.0000 H   0  0  0  0  0  0  0  0  0  0  0  0
   -4.6918    6.7187    0.0000 C   0  0  0  0  0  0  0  0  0  0  0  0
   -4.6923    5.2187    0.0000 O   0  0  0  0  0  0  0  0  0  0  0  0
   -5.9906    7.4692    0.0000 N   0  0  0  0  0  0  0  0  0  0  0  0
   -5.9901    8.9692    0.0000 H   0  0  0  0  0  0  0  0  0  0  0  0
   -7.2899    6.7196    0.0000 S   0  0  0  0  0  0  0  0  0  0  0  0
   -6.3261    5.5702    0.0000 O   0  0  0  0  0  0  0  0  0  0  0  0
   -8.2544    5.5708    0.0000 O   0  0  0  0  0  0  0  0  0  0  0  0
   -8.5887    7.4700    0.0000 C   0  0  0  0  0  0  0  0  0  0  0  0
   -8.5884    8.9708    0.0000 C   0  0  0  0  0  0  0  0  0  0  0  0
   -7.2890    9.7202    0.0000 H   0  0  0  0  0  0  0  0  0  0  0  0
   -9.8876    9.7223    0.0000 C   0  0  0  0  0  0  0  0  0  0  0  0
   -9.8866   11.2223    0.0000 H   0  0  0  0  0  0  0  0  0  0  0  0
  -11.1870    8.9729    0.0000 C   0  0  0  0  0  0  0  0  0  0  0  0
  -11.1872    7.4721    0.0000 C   0  0  0  0  0  0  0  0  0  0  0  0
   -9.8881    6.7206    0.0000 C   0  0  0  0  0  0  0  0  0  0  0  0
   -9.8890    5.2206    0.0000 H   0  0  0  0  0  0  0  0  0  0  0  0
  -12.4866    6.7227    0.0000 N   0  0  0  0  0  0  0  0  0  0  0  0
  -13.7853    7.4733    0.0000 O   0  0  0  0  0  0  0  0  0  0  0  0
  -12.4874    5.2227    0.0000 O   0  0  0  0  0  0  0  0  0  0  0  0
  -12.4858    9.7233    0.0000 N   0  0  0  0  0  0  0  0  0  0  0  0
  -13.7851    8.9737    0.0000 H   0  0  0  0  0  0  0  0  0  0  0  0
  -12.4853   11.2233    0.0000 C   0  0  0  0  0  0  0  0  0  0  0  0
  -11.0082   10.9624    0.0000 H   0  0  0  0  0  0  0  0  0  0  0  0
  -11.9718   12.6327    0.0000 H   0  0  0  0  0  0  0  0  0  0  0  0
  -14.6153   12.4540    0.0000 C   0  0  0  0  0  0  0  0  0  0  0  0
  -15.1285   11.0445    0.0000 H   0  0  0  0  0  0  0  0  0  0  0  0
  -13.6500   13.6032    0.0000 C   0  0  0  0  0  0  0  0  0  0  0  0
  -12.3507   14.3528    0.0000 H   0  0  0  0  0  0  0  0  0  0  0  0
  -12.6863   12.4537    0.0000 H   0  0  0  0  0  0  0  0  0  0  0  0
  -14.1627   15.0128    0.0000 C   0  0  0  0  0  0  0  0  0  0  0  0
  -14.1627   16.5128    0.0000 H   0  0  0  0  0  0  0  0  0  0  0  0
  -12.6855   15.2732    0.0000 H   0  0  0  0  0  0  0  0  0  0  0  0
  -15.6408   15.2733    0.0000 O   0  0  0  0  0  0  0  0  0  0  0  0
  -16.6061   14.1241    0.0000 C   0  0  0  0  0  0  0  0  0  0  0  0
  -17.9054   13.3745    0.0000 H   0  0  0  0  0  0  0  0  0  0  0  0
  -17.5698   15.2736    0.0000 H   0  0  0  0  0  0  0  0  0  0  0  0
  -16.0934   12.7145    0.0000 C   0  0  0  0  0  0  0  0  0  0  0  0
  -16.0934   11.2145    0.0000 H   0  0  0  0  0  0  0  0  0  0  0  0
  -17.5706   12.4541    0.0000 H   0  0  0  0  0  0  0  0  0  0  0  0
  1  2  1  0  0  0  0 
  1  3  1  0  0  0  0 
  1  4  1  0  0  0  0 
  1  5  1  0  0  0  0 
  5  6  1  0  0  0  0 
  6  7  1  0  0  0  0 
  6  8  1  0  0  0  0 
  6  9  1  0  0  0  0 
  5 10  1  0  0  0  0 
 10 11  1  0  0  0  0 
 10 12  1  0  0  0  0 
 10 13  1  0  0  0  0 
 13 14  1  0  0  0  0 
 13 15  1  0  0  0  0 
 13 16  1  0  0  0  0 
 16 17  2  0  0  0  0 
 17 18  1  0  0  0  0 
  5 18  1  0  0  0  0 
 18 19  1  0  0  0  0 
 18 20  1  0  0  0  0 
 17 21  1  0  0  0  0 
 21 22  2  0  0  0  0 
 22 23  1  0  0  0  0 
 22 24  1  0  0  0  0 
 24 25  1  0  0  0  0 
 24 26  2  0  0  0  0 
 26 27  1  0  0  0  0 
 27 28  1  0  0  0  0 
 27 29  2  0  0  0  0 
 21 29  1  0  0  0  0 
 29 30  1  0  0  0  0 
 26 31  1  0  0  0  0 
 16 32  1  0  0  0  0 
 32 33  1  0  0  0  0 
 32 34  1  0  0  0  0 
 32 35  1  0  0  0  0 
 35 36  1  0  0  0  0 
 36 37  1  0  0  0  0 
 36 38  1  0  0  0  0 
 36 39  1  0  0  0  0 
 39 40  1  0  0  0  0 
 39 41  1  0  0  0  0 
 39 42  1  0  0  0  0 
 42 43  1  0  0  0  0 
 43 44  1  0  0  0  0 
 43 45  1  0  0  0  0 
 43 46  1  0  0  0  0 
 35 46  1  0  0  0  0 
 46 47  1  0  0  0  0 
 46 48  1  0  0  0  0 
 42 49  1  0  0  0  0 
 49 50  2  0  0  0  0 
 50 51  1  0  0  0  0 
 50 52  1  0  0  0  0 
 52 53  1  0  0  0  0 
 52 54  2  0  0  0  0 
 54 55  1  0  0  0  0 
 55 56  2  0  0  0  0 
 49 56  1  0  0  0  0 
 56 57  1  0  0  0  0 
 55 58  1  0  0  0  0 
 58 59  1  0  0  0  0 
 59 60  2  0  0  0  0 
 60 61  1  0  0  0  0 
 60 62  1  0  0  0  0 
 62 63  2  0  0  0  0 
 63 64  1  0  0  0  0 
 64 65  2  0  0  0  0 
 59 65  1  0  0  0  0 
 65 66  1  0  0  0  0 
 63 67  1  0  0  0  0 
 67 68  1  0  0  0  0 
 67 69  1  0  0  0  0 
 69 70  2  0  0  0  0 
 62 70  1  0  0  0  0 
 70 71  1  0  0  0  0 
 69 72  1  0  0  0  0 
 72 73  1  0  0  0  0 
 54 74  1  0  0  0  0 
 74 75  2  0  0  0  0 
 74 76  1  0  0  0  0 
 76 77  1  0  0  0  0 
 76 78  1  0  0  0  0 
 78 79  2  0  0  0  0 
 78 80  2  0  0  0  0 
 78 81  1  0  0  0  0 
 81 82  2  0  0  0  0 
 82 83  1  0  0  0  0 
 82 84  1  0  0  0  0 
 84 85  1  0  0  0  0 
 84 86  2  0  0  0  0 
 86 87  1  0  0  0  0 
 87 88  2  0  0  0  0 
 81 88  1  0  0  0  0 
 88 89  1  0  0  0  0 
 87 90  1  0  0  0  0 
 90 91  2  0  0  0  0 
 90 92  1  0  0  0  0 
 86 93  1  0  0  0  0 
 93 94  1  0  0  0  0 
 93 95  1  0  0  0  0 
 95 96  1  0  0  0  0 
 95 97  1  0  0  0  0 
 95 98  1  0  0  0  0 
 98 99  1  0  0  0  0 
 98100  1  0  0  0  0 
100101  1  0  0  0  0 
100102  1  0  0  0  0 
100103  1  0  0  0  0 
103104  1  0  0  0  0 
103105  1  0  0  0  0 
103106  1  0  0  0  0 
106107  1  0  0  0  0 
107108  1  0  0  0  0 
107109  1  0  0  0  0 
107110  1  0  0  0  0 
 98110  1  0  0  0  0 
110111  1  0  0  0  0 
110112  1  0  0  0  0 
M  CHG  1  90   1
M  CHG  1  92  -1
M  END
> <Rank>
13

> <Priority_score>
0.184

> <Reaction_type>
aromatic hydroxylation

> <Parent_ID>
12

> <Parent_InChI>
InChI=1S/C45H50ClN7O7S/c1-45(2)15-11-33(39(26-45)31-3-5-34(46)6-4-31)29-51-17-19-52(20-18-51)35-7-9-38(42(24-35)60-36-23-32-12-16-47-43(32)49-28-36)44(54)50-61(57,58)37-8-10-40(41(25-37)53(55)56)48-27-30-13-21-59-22-14-30/h3-10,12,16,23-25,28,30,48H,11,13-15,17-22,26-27,29H2,1-2H3,(H,47,49)(H,50,54)

> <Parent_SMILES>
CC1(C)CCC(CN2CCN(c3ccc(C(=O)NS(=O)(=O)c4ccc(NCC5CCOCC5)c([N+](=O)[O-])c4)c(Oc4cnc5[nH]ccc5c4)c3)CC2)=C(c2ccc(Cl)cc2)C1

$$$$
Molecule 12_metabolite 14
  CDK     0516241031

112119  0  0  0  0  0  0  0  0999 V2000
    4.0755   19.0737    0.0000 C   0  0  0  0  0  0  0  0  0  0  0  0
    2.5982   18.8136    0.0000 H   0  0  0  0  0  0  0  0  0  0  0  0
    5.3747   19.8233    0.0000 H   0  0  0  0  0  0  0  0  0  0  0  0
    3.5628   20.4833    0.0000 H   0  0  0  0  0  0  0  0  0  0  0  0
    5.6562   17.1888    0.0000 C   0  0  0  0  0  0  0  0  0  0  0  0
    7.2382   19.0726    0.0000 C   0  0  0  0  0  0  0  0  0  0  0  0
    6.7257   20.4824    0.0000 H   0  0  0  0  0  0  0  0  0  0  0  0
    8.5375   19.8222    0.0000 H   0  0  0  0  0  0  0  0  0  0  0  0
    8.2019   17.9232    0.0000 H   0  0  0  0  0  0  0  0  0  0  0  0
    4.3563   16.4386    0.0000 C   0  0  0  0  0  0  0  0  0  0  0  0
    2.8790   16.1789    0.0000 H   0  0  0  0  0  0  0  0  0  0  0  0
    3.8438   17.8483    0.0000 H   0  0  0  0  0  0  0  0  0  0  0  0
    4.3551   14.9377    0.0000 C   0  0  0  0  0  0  0  0  0  0  0  0
    3.6768   13.0775    0.0000 H   0  0  0  0  0  0  0  0  0  0  0  0
    2.8781   15.1992    0.0000 H   0  0  0  0  0  0  0  0  0  0  0  0
    5.6538   14.1871    0.0000 C   0  0  0  0  0  0  0  0  0  0  0  0
    6.9537   14.9373    0.0000 C   0  0  0  0  0  0  0  0  0  0  0  0
    6.9549   16.4381    0.0000 C   0  0  0  0  0  0  0  0  0  0  0  0
    7.4688   17.8474    0.0000 H   0  0  0  0  0  0  0  0  0  0  0  0
    8.4319   16.1766    0.0000 H   0  0  0  0  0  0  0  0  0  0  0  0
    8.2524   14.1867    0.0000 C   0  0  0  0  0  0  0  0  0  0  0  0
    9.5386   14.9260    0.0000 C   0  0  0  0  0  0  0  0  0  0  0  0
    9.5365   16.4260    0.0000 H   0  0  0  0  0  0  0  0  0  0  0  0
   10.8410   14.1819    0.0000 C   0  0  0  0  0  0  0  0  0  0  0  0
   12.1320   14.9457    0.0000 H   0  0  0  0  0  0  0  0  0  0  0  0
   10.8659   12.6935    0.0000 C   0  0  0  0  0  0  0  0  0  0  0  0
    9.5562   11.9331    0.0000 C   0  0  0  0  0  0  0  0  0  0  0  0
    9.5614   10.4331    0.0000 H   0  0  0  0  0  0  0  0  0  0  0  0
    8.2538   12.6772    0.0000 C   0  0  0  0  0  0  0  0  0  0  0  0
    6.9568   11.9236    0.0000 H   0  0  0  0  0  0  0  0  0  0  0  0
   12.1721   11.9560    0.0000 Cl  0  0  0  0  0  0  0  0  0  0  0  0
    5.6533   12.6871    0.0000 C   0  0  0  0  0  0  0  0  0  0  0  0
    7.1306   12.9471    0.0000 H   0  0  0  0  0  0  0  0  0  0  0  0
    6.1659   11.2774    0.0000 H   0  0  0  0  0  0  0  0  0  0  0  0
    3.1068   11.2179    0.0000 N   0  0  0  0  0  0  0  0  0  0  0  0
    3.1060    9.7171    0.0000 C   0  0  0  0  0  0  0  0  0  0  0  0
    4.5833    9.9772    0.0000 H   0  0  0  0  0  0  0  0  0  0  0  0
    3.6190    8.3075    0.0000 H   0  0  0  0  0  0  0  0  0  0  0  0
    1.8064    8.9665    0.0000 C   0  0  0  0  0  0  0  0  0  0  0  0
    2.7706    7.8174    0.0000 H   0  0  0  0  0  0  0  0  0  0  0  0
    0.8422    7.8174    0.0000 H   0  0  0  0  0  0  0  0  0  0  0  0
    0.5075    9.7167    0.0000 N   0  0  0  0  0  0  0  0  0  0  0  0
    0.5082   11.2175    0.0000 C   0  0  0  0  0  0  0  0  0  0  0  0
   -0.9691   10.9574    0.0000 H   0  0  0  0  0  0  0  0  0  0  0  0
   -0.0048   12.6271    0.0000 H   0  0  0  0  0  0  0  0  0  0  0  0
    1.8078   11.9681    0.0000 C   0  0  0  0  0  0  0  0  0  0  0  0
    0.8436   13.1171    0.0000 H   0  0  0  0  0  0  0  0  0  0  0  0
    2.7721   13.1171    0.0000 H   0  0  0  0  0  0  0  0  0  0  0  0
   -0.7918    8.9671    0.0000 C   0  0  0  0  0  0  0  0  0  0  0  0
   -2.0914    9.7177    0.0000 C   0  0  0  0  0  0  0  0  0  0  0  0
   -2.0907   11.2177    0.0000 H   0  0  0  0  0  0  0  0  0  0  0  0
   -3.3918    8.9683    0.0000 C   0  0  0  0  0  0  0  0  0  0  0  0
   -4.6904    9.7192    0.0000 H   0  0  0  0  0  0  0  0  0  0  0  0
   -3.3925    7.4683    0.0000 C   0  0  0  0  0  0  0  0  0  0  0  0
   -2.0929    6.7177    0.0000 C   0  0  0  0  0  0  0  0  0  0  0  0
   -0.7925    7.4671    0.0000 C   0  0  0  0  0  0  0  0  0  0  0  0
    0.5060    6.7162    0.0000 H   0  0  0  0  0  0  0  0  0  0  0  0
   -2.0941    4.2577    0.0000 O   0  0  0  0  0  0  0  0  0  0  0  0
   -0.7954    3.5071    0.0000 C   0  0  0  0  0  0  0  0  0  0  0  0
   -0.7959    2.0062    0.0000 C   0  0  0  0  0  0  0  0  0  0  0  0
   -2.0954    1.2571    0.0000 H   0  0  0  0  0  0  0  0  0  0  0  0
    0.5032    1.2546    0.0000 C   0  0  0  0  0  0  0  0  0  0  0  0
    1.8027    2.0037    0.0000 C   0  0  0  0  0  0  0  0  0  0  0  0
    2.9154    0.9946    0.0000 N   0  0  0  0  0  0  0  0  0  0  0  0
    4.3832    1.3037    0.0000 H   0  0  0  0  0  0  0  0  0  0  0  0
    2.3066   -0.3721    0.0000 C   0  0  0  0  0  0  0  0  0  0  0  0
    3.0558   -1.6716    0.0000 H   0  0  0  0  0  0  0  0  0  0  0  0
    0.8189   -0.2140    0.0000 C   0  0  0  0  0  0  0  0  0  0  0  0
   -0.1842   -1.3293    0.0000 H   0  0  0  0  0  0  0  0  0  0  0  0
    1.8032    3.5046    0.0000 N   0  0  0  0  0  0  0  0  0  0  0  0
    0.5041    4.2562    0.0000 C   0  0  0  0  0  0  0  0  0  0  0  0
    0.5053    5.7562    0.0000 H   0  0  0  0  0  0  0  0  0  0  0  0
   -4.6918    6.7187    0.0000 C   0  0  0  0  0  0  0  0  0  0  0  0
   -4.6923    5.2187    0.0000 O   0  0  0  0  0  0  0  0  0  0  0  0
   -5.9906    7.4692    0.0000 N   0  0  0  0  0  0  0  0  0  0  0  0
   -5.9901    8.9692    0.0000 O   0  0  0  0  0  0  0  0  0  0  0  0
   -7.2889    9.7196    0.0000 H   0  0  0  0  0  0  0  0  0  0  0  0
   -7.2899    6.7196    0.0000 S   0  0  0  0  0  0  0  0  0  0  0  0
   -6.3261    5.5702    0.0000 O   0  0  0  0  0  0  0  0  0  0  0  0
   -8.2544    5.5708    0.0000 O   0  0  0  0  0  0  0  0  0  0  0  0
   -9.4199    7.9503    0.0000 C   0  0  0  0  0  0  0  0  0  0  0  0
   -9.4197    9.4511    0.0000 C   0  0  0  0  0  0  0  0  0  0  0  0
   -8.1203   10.2005    0.0000 H   0  0  0  0  0  0  0  0  0  0  0  0
  -10.7188   10.2025    0.0000 C   0  0  0  0  0  0  0  0  0  0  0  0
  -10.7179   11.7025    0.0000 H   0  0  0  0  0  0  0  0  0  0  0  0
  -12.0182    9.4532    0.0000 C   0  0  0  0  0  0  0  0  0  0  0  0
  -12.0185    7.9523    0.0000 C   0  0  0  0  0  0  0  0  0  0  0  0
  -10.7193    7.2009    0.0000 C   0  0  0  0  0  0  0  0  0  0  0  0
  -10.7203    5.7009    0.0000 H   0  0  0  0  0  0  0  0  0  0  0  0
  -13.3179    7.2030    0.0000 N   0  0  0  0  0  0  0  0  0  0  0  0
  -14.6165    7.9536    0.0000 O   0  0  0  0  0  0  0  0  0  0  0  0
  -13.3186    5.7030    0.0000 O   0  0  0  0  0  0  0  0  0  0  0  0
  -13.3170   10.2036    0.0000 N   0  0  0  0  0  0  0  0  0  0  0  0
  -14.6163    9.4540    0.0000 H   0  0  0  0  0  0  0  0  0  0  0  0
  -13.3165   11.7036    0.0000 C   0  0  0  0  0  0  0  0  0  0  0  0
  -11.8394   11.4426    0.0000 H   0  0  0  0  0  0  0  0  0  0  0  0
  -12.8031   13.1130    0.0000 H   0  0  0  0  0  0  0  0  0  0  0  0
  -15.4466   12.9343    0.0000 C   0  0  0  0  0  0  0  0  0  0  0  0
  -15.9597   11.5248    0.0000 H   0  0  0  0  0  0  0  0  0  0  0  0
  -14.4812   14.0835    0.0000 C   0  0  0  0  0  0  0  0  0  0  0  0
  -13.1820   14.8330    0.0000 H   0  0  0  0  0  0  0  0  0  0  0  0
  -13.5175   12.9340    0.0000 H   0  0  0  0  0  0  0  0  0  0  0  0
  -14.9940   15.4931    0.0000 C   0  0  0  0  0  0  0  0  0  0  0  0
  -14.9940   16.9931    0.0000 H   0  0  0  0  0  0  0  0  0  0  0  0
  -13.5167   15.7534    0.0000 H   0  0  0  0  0  0  0  0  0  0  0  0
  -16.4720   15.7536    0.0000 O   0  0  0  0  0  0  0  0  0  0  0  0
  -17.4374   14.6044    0.0000 C   0  0  0  0  0  0  0  0  0  0  0  0
  -18.7366   13.8548    0.0000 H   0  0  0  0  0  0  0  0  0  0  0  0
  -18.4010   15.7539    0.0000 H   0  0  0  0  0  0  0  0  0  0  0  0
  -16.9246   13.1947    0.0000 C   0  0  0  0  0  0  0  0  0  0  0  0
  -16.9246   11.6947    0.0000 H   0  0  0  0  0  0  0  0  0  0  0  0
  -18.4019   12.9344    0.0000 H   0  0  0  0  0  0  0  0  0  0  0  0
  1  2  1  0  0  0  0 
  1  3  1  0  0  0  0 
  1  4  1  0  0  0  0 
  1  5  1  0  0  0  0 
  5  6  1  0  0  0  0 
  6  7  1  0  0  0  0 
  6  8  1  0  0  0  0 
  6  9  1  0  0  0  0 
  5 10  1  0  0  0  0 
 10 11  1  0  0  0  0 
 10 12  1  0  0  0  0 
 10 13  1  0  0  0  0 
 13 14  1  0  0  0  0 
 13 15  1  0  0  0  0 
 13 16  1  0  0  0  0 
 16 17  2  0  0  0  0 
 17 18  1  0  0  0  0 
  5 18  1  0  0  0  0 
 18 19  1  0  0  0  0 
 18 20  1  0  0  0  0 
 17 21  1  0  0  0  0 
 21 22  2  0  0  0  0 
 22 23  1  0  0  0  0 
 22 24  1  0  0  0  0 
 24 25  1  0  0  0  0 
 24 26  2  0  0  0  0 
 26 27  1  0  0  0  0 
 27 28  1  0  0  0  0 
 27 29  2  0  0  0  0 
 21 29  1  0  0  0  0 
 29 30  1  0  0  0  0 
 26 31  1  0  0  0  0 
 16 32  1  0  0  0  0 
 32 33  1  0  0  0  0 
 32 34  1  0  0  0  0 
 32 35  1  0  0  0  0 
 35 36  1  0  0  0  0 
 36 37  1  0  0  0  0 
 36 38  1  0  0  0  0 
 36 39  1  0  0  0  0 
 39 40  1  0  0  0  0 
 39 41  1  0  0  0  0 
 39 42  1  0  0  0  0 
 42 43  1  0  0  0  0 
 43 44  1  0  0  0  0 
 43 45  1  0  0  0  0 
 43 46  1  0  0  0  0 
 35 46  1  0  0  0  0 
 46 47  1  0  0  0  0 
 46 48  1  0  0  0  0 
 42 49  1  0  0  0  0 
 49 50  2  0  0  0  0 
 50 51  1  0  0  0  0 
 50 52  1  0  0  0  0 
 52 53  1  0  0  0  0 
 52 54  2  0  0  0  0 
 54 55  1  0  0  0  0 
 55 56  2  0  0  0  0 
 49 56  1  0  0  0  0 
 56 57  1  0  0  0  0 
 55 58  1  0  0  0  0 
 58 59  1  0  0  0  0 
 59 60  2  0  0  0  0 
 60 61  1  0  0  0  0 
 60 62  1  0  0  0  0 
 62 63  2  0  0  0  0 
 63 64  1  0  0  0  0 
 64 65  1  0  0  0  0 
 64 66  1  0  0  0  0 
 66 67  1  0  0  0  0 
 66 68  2  0  0  0  0 
 62 68  1  0  0  0  0 
 68 69  1  0  0  0  0 
 63 70  1  0  0  0  0 
 70 71  2  0  0  0  0 
 59 71  1  0  0  0  0 
 71 72  1  0  0  0  0 
 54 73  1  0  0  0  0 
 73 74  2  0  0  0  0 
 73 75  1  0  0  0  0 
 75 76  1  0  0  0  0 
 76 77  1  0  0  0  0 
 75 78  1  0  0  0  0 
 78 79  2  0  0  0  0 
 78 80  2  0  0  0  0 
 78 81  1  0  0  0  0 
 81 82  2  0  0  0  0 
 82 83  1  0  0  0  0 
 82 84  1  0  0  0  0 
 84 85  1  0  0  0  0 
 84 86  2  0  0  0  0 
 86 87  1  0  0  0  0 
 87 88  2  0  0  0  0 
 81 88  1  0  0  0  0 
 88 89  1  0  0  0  0 
 87 90  1  0  0  0  0 
 90 91  2  0  0  0  0 
 90 92  1  0  0  0  0 
 86 93  1  0  0  0  0 
 93 94  1  0  0  0  0 
 93 95  1  0  0  0  0 
 95 96  1  0  0  0  0 
 95 97  1  0  0  0  0 
 95 98  1  0  0  0  0 
 98 99  1  0  0  0  0 
 98100  1  0  0  0  0 
100101  1  0  0  0  0 
100102  1  0  0  0  0 
100103  1  0  0  0  0 
103104  1  0  0  0  0 
103105  1  0  0  0  0 
103106  1  0  0  0  0 
106107  1  0  0  0  0 
107108  1  0  0  0  0 
107109  1  0  0  0  0 
107110  1  0  0  0  0 
 98110  1  0  0  0  0 
110111  1  0  0  0  0 
110112  1  0  0  0  0 
M  CHG  1  90   1
M  CHG  1  92  -1
M  END
> <Rank>
14

> <Priority_score>
0.18

> <Reaction_type>
amine hydroxylation

> <Parent_ID>
12

> <Parent_InChI>
InChI=1S/C45H50ClN7O7S/c1-45(2)15-11-33(39(26-45)31-3-5-34(46)6-4-31)29-51-17-19-52(20-18-51)35-7-9-38(42(24-35)60-36-23-32-12-16-47-43(32)49-28-36)44(54)50-61(57,58)37-8-10-40(41(25-37)53(55)56)48-27-30-13-21-59-22-14-30/h3-10,12,16,23-25,28,30,48H,11,13-15,17-22,26-27,29H2,1-2H3,(H,47,49)(H,50,54)

> <Parent_SMILES>
CC1(C)CCC(CN2CCN(c3ccc(C(=O)NS(=O)(=O)c4ccc(NCC5CCOCC5)c([N+](=O)[O-])c4)c(Oc4cnc5[nH]ccc5c4)c3)CC2)=C(c2ccc(Cl)cc2)C1

$$$$
Molecule 12_metabolite 15
  CDK     0516241031

 76 81  0  0  0  0  0  0  0  0999 V2000
  -13.6514   -9.2358    0.0000 C   0  0  0  0  0  0  0  0  0  0  0  0
  -14.1639   -7.8261    0.0000 H   0  0  0  0  0  0  0  0  0  0  0  0
  -13.6519  -10.7358    0.0000 H   0  0  0  0  0  0  0  0  0  0  0  0
  -15.1287   -9.4957    0.0000 H   0  0  0  0  0  0  0  0  0  0  0  0
  -11.2289   -9.6639    0.0000 C   0  0  0  0  0  0  0  0  0  0  0  0
  -12.2352  -12.4263    0.0000 C   0  0  0  0  0  0  0  0  0  0  0  0
  -13.7125  -12.6864    0.0000 H   0  0  0  0  0  0  0  0  0  0  0  0
  -12.2356  -13.9263    0.0000 H   0  0  0  0  0  0  0  0  0  0  0  0
  -10.7581  -12.6872    0.0000 H   0  0  0  0  0  0  0  0  0  0  0  0
  -11.2282   -8.1631    0.0000 C   0  0  0  0  0  0  0  0  0  0  0  0
  -11.7411   -6.7535    0.0000 H   0  0  0  0  0  0  0  0  0  0  0  0
  -12.7055   -8.4231    0.0000 H   0  0  0  0  0  0  0  0  0  0  0  0
   -9.9286   -7.4124    0.0000 C   0  0  0  0  0  0  0  0  0  0  0  0
   -8.6558   -5.8957    0.0000 H   0  0  0  0  0  0  0  0  0  0  0  0
  -10.8928   -6.2634    0.0000 H   0  0  0  0  0  0  0  0  0  0  0  0
   -8.6296   -8.1626    0.0000 C   0  0  0  0  0  0  0  0  0  0  0  0
   -8.6304   -9.6635    0.0000 C   0  0  0  0  0  0  0  0  0  0  0  0
   -9.9300  -10.4141    0.0000 C   0  0  0  0  0  0  0  0  0  0  0  0
  -10.8942  -11.5631    0.0000 H   0  0  0  0  0  0  0  0  0  0  0  0
   -8.9658  -11.5631    0.0000 H   0  0  0  0  0  0  0  0  0  0  0  0
   -7.3314  -10.4137    0.0000 C   0  0  0  0  0  0  0  0  0  0  0  0
   -7.3296  -11.8972    0.0000 C   0  0  0  0  0  0  0  0  0  0  0  0
   -8.6301  -12.6447    0.0000 H   0  0  0  0  0  0  0  0  0  0  0  0
   -6.0345  -12.6539    0.0000 C   0  0  0  0  0  0  0  0  0  0  0  0
   -6.0514  -14.1538    0.0000 H   0  0  0  0  0  0  0  0  0  0  0  0
   -4.7325  -11.9322    0.0000 C   0  0  0  0  0  0  0  0  0  0  0  0
   -4.7279  -10.4177    0.0000 C   0  0  0  0  0  0  0  0  0  0  0  0
   -3.4257   -9.6731    0.0000 H   0  0  0  0  0  0  0  0  0  0  0  0
   -6.0230   -9.6610    0.0000 C   0  0  0  0  0  0  0  0  0  0  0  0
   -6.0179   -8.1610    0.0000 H   0  0  0  0  0  0  0  0  0  0  0  0
   -3.4413  -12.6954    0.0000 Cl  0  0  0  0  0  0  0  0  0  0  0  0
   -7.3304   -7.4131    0.0000 C   0  0  0  0  0  0  0  0  0  0  0  0
   -6.8178   -8.8228    0.0000 H   0  0  0  0  0  0  0  0  0  0  0  0
   -4.4349   -6.9035    0.0000 H   0  0  0  0  0  0  0  0  0  0  0  0
   -7.3297   -5.4331    0.0000 N   0  0  0  0  0  0  0  0  0  0  0  0
   -6.0298   -4.6828    0.0000 C   0  0  0  0  0  0  0  0  0  0  0  0
   -5.5173   -6.0926    0.0000 H   0  0  0  0  0  0  0  0  0  0  0  0
   -4.5525   -4.4232    0.0000 H   0  0  0  0  0  0  0  0  0  0  0  0
   -6.0286   -3.1820    0.0000 C   0  0  0  0  0  0  0  0  0  0  0  0
   -4.5516   -3.4435    0.0000 H   0  0  0  0  0  0  0  0  0  0  0  0
   -5.5148   -1.7728    0.0000 H   0  0  0  0  0  0  0  0  0  0  0  0
   -7.3273   -2.4314    0.0000 N   0  0  0  0  0  0  0  0  0  0  0  0
   -8.6272   -3.1816    0.0000 C   0  0  0  0  0  0  0  0  0  0  0  0
   -9.1397   -1.7719    0.0000 H   0  0  0  0  0  0  0  0  0  0  0  0
  -10.1046   -3.4412    0.0000 H   0  0  0  0  0  0  0  0  0  0  0  0
   -8.6284   -4.6824    0.0000 C   0  0  0  0  0  0  0  0  0  0  0  0
  -10.1054   -4.4209    0.0000 H   0  0  0  0  0  0  0  0  0  0  0  0
   -9.5933   -5.8309    0.0000 H   0  0  0  0  0  0  0  0  0  0  0  0
   -7.3268   -0.9314    0.0000 C   0  0  0  0  0  0  0  0  0  0  0  0
   -8.6262   -0.1803    0.0000 C   0  0  0  0  0  0  0  0  0  0  0  0
   -9.9254   -0.9301    0.0000 H   0  0  0  0  0  0  0  0  0  0  0  0
   -8.6265    1.3205    0.0000 C   0  0  0  0  0  0  0  0  0  0  0  0
   -9.9255    2.0705    0.0000 H   0  0  0  0  0  0  0  0  0  0  0  0
   -7.3273    2.0703    0.0000 C   0  0  0  0  0  0  0  0  0  0  0  0
   -6.0279    1.3192    0.0000 C   0  0  0  0  0  0  0  0  0  0  0  0
   -6.0277   -0.1816    0.0000 C   0  0  0  0  0  0  0  0  0  0  0  0
   -4.7286   -0.9316    0.0000 H   0  0  0  0  0  0  0  0  0  0  0  0
   -3.8973    2.5489    0.0000 O   0  0  0  0  0  0  0  0  0  0  0  0
   -2.5984    1.7987    0.0000 C   0  0  0  0  0  0  0  0  0  0  0  0
   -1.2984    2.5487    0.0000 C   0  0  0  0  0  0  0  0  0  0  0  0
   -1.2984    4.0487    0.0000 H   0  0  0  0  0  0  0  0  0  0  0  0
    0.0016    1.7987    0.0000 C   0  0  0  0  0  0  0  0  0  0  0  0
    0.0016    0.2987    0.0000 C   0  0  0  0  0  0  0  0  0  0  0  0
    1.4316   -0.1613    0.0000 N   0  0  0  0  0  0  0  0  0  0  0  0
    1.8969   -1.5873    0.0000 H   0  0  0  0  0  0  0  0  0  0  0  0
    2.3116    1.0487    0.0000 C   0  0  0  0  0  0  0  0  0  0  0  0
    3.8116    1.0487    0.0000 H   0  0  0  0  0  0  0  0  0  0  0  0
    1.4316    2.2587    0.0000 C   0  0  0  0  0  0  0  0  0  0  0  0
    1.8969    3.6847    0.0000 H   0  0  0  0  0  0  0  0  0  0  0  0
   -1.2984   -0.4513    0.0000 N   0  0  0  0  0  0  0  0  0  0  0  0
   -2.5984    0.2987    0.0000 C   0  0  0  0  0  0  0  0  0  0  0  0
   -3.8973   -0.4515    0.0000 H   0  0  0  0  0  0  0  0  0  0  0  0
   -7.3268    3.5703    0.0000 C   0  0  0  0  0  0  0  0  0  0  0  0
   -6.0276    4.3199    0.0000 O   0  0  0  0  0  0  0  0  0  0  0  0
   -8.6256    4.3207    0.0000 O   0  0  0  0  0  0  0  0  0  0  0  0
   -8.6252    5.8207    0.0000 H   0  0  0  0  0  0  0  0  0  0  0  0
  1  2  1  0  0  0  0 
  1  3  1  0  0  0  0 
  1  4  1  0  0  0  0 
  1  5  1  0  0  0  0 
  5  6  1  0  0  0  0 
  6  7  1  0  0  0  0 
  6  8  1  0  0  0  0 
  6  9  1  0  0  0  0 
  5 10  1  0  0  0  0 
 10 11  1  0  0  0  0 
 10 12  1  0  0  0  0 
 10 13  1  0  0  0  0 
 13 14  1  0  0  0  0 
 13 15  1  0  0  0  0 
 13 16  1  0  0  0  0 
 16 17  2  0  0  0  0 
 17 18  1  0  0  0  0 
  5 18  1  0  0  0  0 
 18 19  1  0  0  0  0 
 18 20  1  0  0  0  0 
 17 21  1  0  0  0  0 
 21 22  2  0  0  0  0 
 22 23  1  0  0  0  0 
 22 24  1  0  0  0  0 
 24 25  1  0  0  0  0 
 24 26  2  0  0  0  0 
 26 27  1  0  0  0  0 
 27 28  1  0  0  0  0 
 27 29  2  0  0  0  0 
 21 29  1  0  0  0  0 
 29 30  1  0  0  0  0 
 26 31  1  0  0  0  0 
 16 32  1  0  0  0  0 
 32 33  1  0  0  0  0 
 32 34  1  0  0  0  0 
 32 35  1  0  0  0  0 
 35 36  1  0  0  0  0 
 36 37  1  0  0  0  0 
 36 38  1  0  0  0  0 
 36 39  1  0  0  0  0 
 39 40  1  0  0  0  0 
 39 41  1  0  0  0  0 
 39 42  1  0  0  0  0 
 42 43  1  0  0  0  0 
 43 44  1  0  0  0  0 
 43 45  1  0  0  0  0 
 43 46  1  0  0  0  0 
 35 46  1  0  0  0  0 
 46 47  1  0  0  0  0 
 46 48  1  0  0  0  0 
 42 49  1  0  0  0  0 
 49 50  2  0  0  0  0 
 50 51  1  0  0  0  0 
 50 52  1  0  0  0  0 
 52 53  1  0  0  0  0 
 52 54  2  0  0  0  0 
 54 55  1  0  0  0  0 
 55 56  2  0  0  0  0 
 49 56  1  0  0  0  0 
 56 57  1  0  0  0  0 
 55 58  1  0  0  0  0 
 58 59  1  0  0  0  0 
 59 60  2  0  0  0  0 
 60 61  1  0  0  0  0 
 60 62  1  0  0  0  0 
 62 63  2  0  0  0  0 
 63 64  1  0  0  0  0 
 64 65  1  0  0  0  0 
 64 66  1  0  0  0  0 
 66 67  1  0  0  0  0 
 66 68  2  0  0  0  0 
 62 68  1  0  0  0  0 
 68 69  1  0  0  0  0 
 63 70  1  0  0  0  0 
 70 71  2  0  0  0  0 
 59 71  1  0  0  0  0 
 71 72  1  0  0  0  0 
 54 73  1  0  0  0  0 
 73 74  2  0  0  0  0 
 73 75  1  0  0  0  0 
 75 76  1  0  0  0  0 
M  END
> <Rank>
14

> <Priority_score>
0.18

> <Reaction_type>
hydrolysis_(heteroatom_bonded_amide)

> <Parent_ID>
12

> <Parent_InChI>
InChI=1S/C45H50ClN7O7S/c1-45(2)15-11-33(39(26-45)31-3-5-34(46)6-4-31)29-51-17-19-52(20-18-51)35-7-9-38(42(24-35)60-36-23-32-12-16-47-43(32)49-28-36)44(54)50-61(57,58)37-8-10-40(41(25-37)53(55)56)48-27-30-13-21-59-22-14-30/h3-10,12,16,23-25,28,30,48H,11,13-15,17-22,26-27,29H2,1-2H3,(H,47,49)(H,50,54)

> <Parent_SMILES>
CC1(C)CCC(CN2CCN(c3ccc(C(=O)NS(=O)(=O)c4ccc(NCC5CCOCC5)c([N+](=O)[O-])c4)c(Oc4cnc5[nH]ccc5c4)c3)CC2)=C(c2ccc(Cl)cc2)C1

$$$$
Molecule 12_metabolite 16
  CDK     0516241031

 38 39  0  0  0  0  0  0  0  0999 V2000
   -2.4770    3.1681    0.0000 C   0  0  0  0  0  0  0  0  0  0  0  0
   -1.9640    1.7585    0.0000 H   0  0  0  0  0  0  0  0  0  0  0  0
   -3.9550    3.4290    0.0000 C   0  0  0  0  0  0  0  0  0  0  0  0
   -4.4689    4.8391    0.0000 C   0  0  0  0  0  0  0  0  0  0  0  0
   -5.9462    5.0992    0.0000 H   0  0  0  0  0  0  0  0  0  0  0  0
   -3.5048    5.9883    0.0000 C   0  0  0  0  0  0  0  0  0  0  0  0
   -2.0269    5.7274    0.0000 C   0  0  0  0  0  0  0  0  0  0  0  0
   -1.5129    4.3173    0.0000 C   0  0  0  0  0  0  0  0  0  0  0  0
   -0.0357    4.0572    0.0000 H   0  0  0  0  0  0  0  0  0  0  0  0
   -1.0628    6.8765    0.0000 N   0  0  0  0  0  0  0  0  0  0  0  0
   -1.5760    8.2860    0.0000 H   0  0  0  0  0  0  0  0  0  0  0  0
    0.4144    6.6162    0.0000 C   0  0  0  0  0  0  0  0  0  0  0  0
    1.7136    5.8664    0.0000 H   0  0  0  0  0  0  0  0  0  0  0  0
   -0.0984    5.2066    0.0000 H   0  0  0  0  0  0  0  0  0  0  0  0
    1.6870    8.1331    0.0000 C   0  0  0  0  0  0  0  0  0  0  0  0
    0.3877    8.8827    0.0000 H   0  0  0  0  0  0  0  0  0  0  0  0
    2.6516    6.9833    0.0000 C   0  0  0  0  0  0  0  0  0  0  0  0
    3.1648    5.5738    0.0000 H   0  0  0  0  0  0  0  0  0  0  0  0
    1.2421    6.4703    0.0000 H   0  0  0  0  0  0  0  0  0  0  0  0
    4.1287    7.2441    0.0000 C   0  0  0  0  0  0  0  0  0  0  0  0
    5.6061    6.9843    0.0000 H   0  0  0  0  0  0  0  0  0  0  0  0
    4.1292    5.7441    0.0000 H   0  0  0  0  0  0  0  0  0  0  0  0
    4.6413    8.6547    0.0000 O   0  0  0  0  0  0  0  0  0  0  0  0
    3.6767    9.8045    0.0000 C   0  0  0  0  0  0  0  0  0  0  0  0
    3.1635   11.2140    0.0000 H   0  0  0  0  0  0  0  0  0  0  0  0
    4.9758   10.5545    0.0000 H   0  0  0  0  0  0  0  0  0  0  0  0
    2.1996    9.5437    0.0000 C   0  0  0  0  0  0  0  0  0  0  0  0
    0.7222    9.8036    0.0000 H   0  0  0  0  0  0  0  0  0  0  0  0
    2.1991   11.0437    0.0000 H   0  0  0  0  0  0  0  0  0  0  0  0
   -4.0178    7.3979    0.0000 N   0  0  0  0  0  0  0  0  0  0  0  0
   -5.4950    7.6584    0.0000 O   0  0  0  0  0  0  0  0  0  0  0  0
   -3.0535    8.5469    0.0000 O   0  0  0  0  0  0  0  0  0  0  0  0
   -4.9190    2.2799    0.0000 S   0  0  0  0  0  0  0  0  0  0  0  0
   -5.8833    3.4288    0.0000 O   0  0  0  0  0  0  0  0  0  0  0  0
   -6.2180    1.5297    0.0000 O   0  0  0  0  0  0  0  0  0  0  0  0
   -4.4059    0.8704    0.0000 N   0  0  0  0  0  0  0  0  0  0  0  0
   -5.3699   -0.2788    0.0000 H   0  0  0  0  0  0  0  0  0  0  0  0
   -2.9286    0.6101    0.0000 H   0  0  0  0  0  0  0  0  0  0  0  0
  1  2  1  0  0  0  0 
  1  3  2  0  0  0  0 
  3  4  1  0  0  0  0 
  4  5  1  0  0  0  0 
  4  6  2  0  0  0  0 
  6  7  1  0  0  0  0 
  7  8  2  0  0  0  0 
  1  8  1  0  0  0  0 
  8  9  1  0  0  0  0 
  7 10  1  0  0  0  0 
 10 11  1  0  0  0  0 
 10 12  1  0  0  0  0 
 12 13  1  0  0  0  0 
 12 14  1  0  0  0  0 
 12 15  1  0  0  0  0 
 15 16  1  0  0  0  0 
 15 17  1  0  0  0  0 
 17 18  1  0  0  0  0 
 17 19  1  0  0  0  0 
 17 20  1  0  0  0  0 
 20 21  1  0  0  0  0 
 20 22  1  0  0  0  0 
 20 23  1  0  0  0  0 
 23 24  1  0  0  0  0 
 24 25  1  0  0  0  0 
 24 26  1  0  0  0  0 
 24 27  1  0  0  0  0 
 15 27  1  0  0  0  0 
 27 28  1  0  0  0  0 
 27 29  1  0  0  0  0 
  6 30  1  0  0  0  0 
 30 31  2  0  0  0  0 
 30 32  1  0  0  0  0 
  3 33  1  0  0  0  0 
 33 34  2  0  0  0  0 
 33 35  2  0  0  0  0 
 33 36  1  0  0  0  0 
 36 37  1  0  0  0  0 
 36 38  1  0  0  0  0 
M  CHG  1  30   1
M  CHG  1  32  -1
M  END
> <Rank>
14

> <Priority_score>
0.18

> <Reaction_type>
hydrolysis_(heteroatom_bonded_amide)

> <Parent_ID>
12

> <Parent_InChI>
InChI=1S/C45H50ClN7O7S/c1-45(2)15-11-33(39(26-45)31-3-5-34(46)6-4-31)29-51-17-19-52(20-18-51)35-7-9-38(42(24-35)60-36-23-32-12-16-47-43(32)49-28-36)44(54)50-61(57,58)37-8-10-40(41(25-37)53(55)56)48-27-30-13-21-59-22-14-30/h3-10,12,16,23-25,28,30,48H,11,13-15,17-22,26-27,29H2,1-2H3,(H,47,49)(H,50,54)

> <Parent_SMILES>
CC1(C)CCC(CN2CCN(c3ccc(C(=O)NS(=O)(=O)c4ccc(NCC5CCOCC5)c([N+](=O)[O-])c4)c(Oc4cnc5[nH]ccc5c4)c3)CC2)=C(c2ccc(Cl)cc2)C1

$$$$
Molecule 12_metabolite 17
  CDK     0516241031

112119  0  0  0  0  0  0  0  0999 V2000
    4.0755   19.0737    0.0000 C   0  0  0  0  0  0  0  0  0  0  0  0
    2.5982   18.8136    0.0000 H   0  0  0  0  0  0  0  0  0  0  0  0
    5.3747   19.8233    0.0000 H   0  0  0  0  0  0  0  0  0  0  0  0
    3.5628   20.4833    0.0000 H   0  0  0  0  0  0  0  0  0  0  0  0
    5.6562   17.1888    0.0000 C   0  0  0  0  0  0  0  0  0  0  0  0
    7.2382   19.0726    0.0000 C   0  0  0  0  0  0  0  0  0  0  0  0
    6.7257   20.4824    0.0000 H   0  0  0  0  0  0  0  0  0  0  0  0
    8.5375   19.8222    0.0000 H   0  0  0  0  0  0  0  0  0  0  0  0
    8.2019   17.9232    0.0000 H   0  0  0  0  0  0  0  0  0  0  0  0
    4.3563   16.4386    0.0000 C   0  0  0  0  0  0  0  0  0  0  0  0
    2.8790   16.1789    0.0000 H   0  0  0  0  0  0  0  0  0  0  0  0
    3.8438   17.8483    0.0000 H   0  0  0  0  0  0  0  0  0  0  0  0
    4.3551   14.9377    0.0000 C   0  0  0  0  0  0  0  0  0  0  0  0
    3.6768   13.0775    0.0000 H   0  0  0  0  0  0  0  0  0  0  0  0
    2.8781   15.1992    0.0000 H   0  0  0  0  0  0  0  0  0  0  0  0
    5.6538   14.1871    0.0000 C   0  0  0  0  0  0  0  0  0  0  0  0
    6.9537   14.9373    0.0000 C   0  0  0  0  0  0  0  0  0  0  0  0
    8.2524   14.1867    0.0000 C   0  0  0  0  0  0  0  0  0  0  0  0
    9.5386   14.9260    0.0000 C   0  0  0  0  0  0  0  0  0  0  0  0
    9.5365   16.4260    0.0000 H   0  0  0  0  0  0  0  0  0  0  0  0
   10.8410   14.1819    0.0000 C   0  0  0  0  0  0  0  0  0  0  0  0
   12.1320   14.9457    0.0000 H   0  0  0  0  0  0  0  0  0  0  0  0
   10.8659   12.6935    0.0000 C   0  0  0  0  0  0  0  0  0  0  0  0
    9.5562   11.9331    0.0000 C   0  0  0  0  0  0  0  0  0  0  0  0
    9.5614   10.4331    0.0000 H   0  0  0  0  0  0  0  0  0  0  0  0
    8.2538   12.6772    0.0000 C   0  0  0  0  0  0  0  0  0  0  0  0
    6.9568   11.9236    0.0000 H   0  0  0  0  0  0  0  0  0  0  0  0
   12.1721   11.9560    0.0000 Cl  0  0  0  0  0  0  0  0  0  0  0  0
    6.9549   16.4381    0.0000 C   0  0  0  0  0  0  0  0  0  0  0  0
    7.4688   17.8474    0.0000 H   0  0  0  0  0  0  0  0  0  0  0  0
    8.4319   16.1766    0.0000 O   0  0  0  0  0  0  0  0  0  0  0  0
    9.3969   17.3250    0.0000 H   0  0  0  0  0  0  0  0  0  0  0  0
    5.6533   12.6871    0.0000 C   0  0  0  0  0  0  0  0  0  0  0  0
    7.1306   12.9471    0.0000 H   0  0  0  0  0  0  0  0  0  0  0  0
    6.1659   11.2774    0.0000 H   0  0  0  0  0  0  0  0  0  0  0  0
    3.1068   11.2179    0.0000 N   0  0  0  0  0  0  0  0  0  0  0  0
    3.1060    9.7171    0.0000 C   0  0  0  0  0  0  0  0  0  0  0  0
    4.5833    9.9772    0.0000 H   0  0  0  0  0  0  0  0  0  0  0  0
    3.6190    8.3075    0.0000 H   0  0  0  0  0  0  0  0  0  0  0  0
    1.8064    8.9665    0.0000 C   0  0  0  0  0  0  0  0  0  0  0  0
    2.7706    7.8174    0.0000 H   0  0  0  0  0  0  0  0  0  0  0  0
    0.8422    7.8174    0.0000 H   0  0  0  0  0  0  0  0  0  0  0  0
    0.5075    9.7167    0.0000 N   0  0  0  0  0  0  0  0  0  0  0  0
    0.5082   11.2175    0.0000 C   0  0  0  0  0  0  0  0  0  0  0  0
   -0.9691   10.9574    0.0000 H   0  0  0  0  0  0  0  0  0  0  0  0
   -0.0048   12.6271    0.0000 H   0  0  0  0  0  0  0  0  0  0  0  0
    1.8078   11.9681    0.0000 C   0  0  0  0  0  0  0  0  0  0  0  0
    0.8436   13.1171    0.0000 H   0  0  0  0  0  0  0  0  0  0  0  0
    2.7721   13.1171    0.0000 H   0  0  0  0  0  0  0  0  0  0  0  0
   -0.7918    8.9671    0.0000 C   0  0  0  0  0  0  0  0  0  0  0  0
   -2.0914    9.7177    0.0000 C   0  0  0  0  0  0  0  0  0  0  0  0
   -2.0907   11.2177    0.0000 H   0  0  0  0  0  0  0  0  0  0  0  0
   -3.3918    8.9683    0.0000 C   0  0  0  0  0  0  0  0  0  0  0  0
   -4.6904    9.7192    0.0000 H   0  0  0  0  0  0  0  0  0  0  0  0
   -3.3925    7.4683    0.0000 C   0  0  0  0  0  0  0  0  0  0  0  0
   -2.0929    6.7177    0.0000 C   0  0  0  0  0  0  0  0  0  0  0  0
   -0.7925    7.4671    0.0000 C   0  0  0  0  0  0  0  0  0  0  0  0
    0.5060    6.7162    0.0000 H   0  0  0  0  0  0  0  0  0  0  0  0
   -2.0941    4.2577    0.0000 O   0  0  0  0  0  0  0  0  0  0  0  0
   -0.7954    3.5071    0.0000 C   0  0  0  0  0  0  0  0  0  0  0  0
   -0.7959    2.0062    0.0000 C   0  0  0  0  0  0  0  0  0  0  0  0
   -2.0954    1.2571    0.0000 H   0  0  0  0  0  0  0  0  0  0  0  0
    0.5032    1.2546    0.0000 C   0  0  0  0  0  0  0  0  0  0  0  0
    1.8027    2.0037    0.0000 C   0  0  0  0  0  0  0  0  0  0  0  0
    2.9154    0.9946    0.0000 N   0  0  0  0  0  0  0  0  0  0  0  0
    4.3832    1.3037    0.0000 H   0  0  0  0  0  0  0  0  0  0  0  0
    2.3066   -0.3721    0.0000 C   0  0  0  0  0  0  0  0  0  0  0  0
    3.0558   -1.6716    0.0000 H   0  0  0  0  0  0  0  0  0  0  0  0
    0.8189   -0.2140    0.0000 C   0  0  0  0  0  0  0  0  0  0  0  0
   -0.1842   -1.3293    0.0000 H   0  0  0  0  0  0  0  0  0  0  0  0
    1.8032    3.5046    0.0000 N   0  0  0  0  0  0  0  0  0  0  0  0
    0.5041    4.2562    0.0000 C   0  0  0  0  0  0  0  0  0  0  0  0
    0.5053    5.7562    0.0000 H   0  0  0  0  0  0  0  0  0  0  0  0
   -4.6918    6.7187    0.0000 C   0  0  0  0  0  0  0  0  0  0  0  0
   -4.6923    5.2187    0.0000 O   0  0  0  0  0  0  0  0  0  0  0  0
   -5.9906    7.4692    0.0000 N   0  0  0  0  0  0  0  0  0  0  0  0
   -5.9901    8.9692    0.0000 H   0  0  0  0  0  0  0  0  0  0  0  0
   -7.2899    6.7196    0.0000 S   0  0  0  0  0  0  0  0  0  0  0  0
   -6.3261    5.5702    0.0000 O   0  0  0  0  0  0  0  0  0  0  0  0
   -8.2544    5.5708    0.0000 O   0  0  0  0  0  0  0  0  0  0  0  0
   -8.5887    7.4700    0.0000 C   0  0  0  0  0  0  0  0  0  0  0  0
   -8.5884    8.9708    0.0000 C   0  0  0  0  0  0  0  0  0  0  0  0
   -7.2890    9.7202    0.0000 H   0  0  0  0  0  0  0  0  0  0  0  0
   -9.8876    9.7223    0.0000 C   0  0  0  0  0  0  0  0  0  0  0  0
   -9.8866   11.2223    0.0000 H   0  0  0  0  0  0  0  0  0  0  0  0
  -11.1870    8.9729    0.0000 C   0  0  0  0  0  0  0  0  0  0  0  0
  -11.1872    7.4721    0.0000 C   0  0  0  0  0  0  0  0  0  0  0  0
   -9.8881    6.7206    0.0000 C   0  0  0  0  0  0  0  0  0  0  0  0
   -9.8890    5.2206    0.0000 H   0  0  0  0  0  0  0  0  0  0  0  0
  -12.4866    6.7227    0.0000 N   0  0  0  0  0  0  0  0  0  0  0  0
  -13.7853    7.4733    0.0000 O   0  0  0  0  0  0  0  0  0  0  0  0
  -12.4874    5.2227    0.0000 O   0  0  0  0  0  0  0  0  0  0  0  0
  -12.4858    9.7233    0.0000 N   0  0  0  0  0  0  0  0  0  0  0  0
  -13.7851    8.9737    0.0000 H   0  0  0  0  0  0  0  0  0  0  0  0
  -12.4853   11.2233    0.0000 C   0  0  0  0  0  0  0  0  0  0  0  0
  -11.0082   10.9624    0.0000 H   0  0  0  0  0  0  0  0  0  0  0  0
  -11.9718   12.6327    0.0000 H   0  0  0  0  0  0  0  0  0  0  0  0
  -14.6153   12.4540    0.0000 C   0  0  0  0  0  0  0  0  0  0  0  0
  -15.1285   11.0445    0.0000 H   0  0  0  0  0  0  0  0  0  0  0  0
  -13.6500   13.6032    0.0000 C   0  0  0  0  0  0  0  0  0  0  0  0
  -12.3507   14.3528    0.0000 H   0  0  0  0  0  0  0  0  0  0  0  0
  -12.6863   12.4537    0.0000 H   0  0  0  0  0  0  0  0  0  0  0  0
  -14.1627   15.0128    0.0000 C   0  0  0  0  0  0  0  0  0  0  0  0
  -14.1627   16.5128    0.0000 H   0  0  0  0  0  0  0  0  0  0  0  0
  -12.6855   15.2732    0.0000 H   0  0  0  0  0  0  0  0  0  0  0  0
  -15.6408   15.2733    0.0000 O   0  0  0  0  0  0  0  0  0  0  0  0
  -16.6061   14.1241    0.0000 C   0  0  0  0  0  0  0  0  0  0  0  0
  -17.9054   13.3745    0.0000 H   0  0  0  0  0  0  0  0  0  0  0  0
  -17.5698   15.2736    0.0000 H   0  0  0  0  0  0  0  0  0  0  0  0
  -16.0934   12.7145    0.0000 C   0  0  0  0  0  0  0  0  0  0  0  0
  -16.0934   11.2145    0.0000 H   0  0  0  0  0  0  0  0  0  0  0  0
  -17.5706   12.4541    0.0000 H   0  0  0  0  0  0  0  0  0  0  0  0
  1  2  1  0  0  0  0 
  1  3  1  0  0  0  0 
  1  4  1  0  0  0  0 
  1  5  1  0  0  0  0 
  5  6  1  0  0  0  0 
  6  7  1  0  0  0  0 
  6  8  1  0  0  0  0 
  6  9  1  0  0  0  0 
  5 10  1  0  0  0  0 
 10 11  1  0  0  0  0 
 10 12  1  0  0  0  0 
 10 13  1  0  0  0  0 
 13 14  1  0  0  0  0 
 13 15  1  0  0  0  0 
 13 16  1  0  0  0  0 
 16 17  2  0  0  0  0 
 17 18  1  0  0  0  0 
 18 19  2  0  0  0  0 
 19 20  1  0  0  0  0 
 19 21  1  0  0  0  0 
 21 22  1  0  0  0  0 
 21 23  2  0  0  0  0 
 23 24  1  0  0  0  0 
 24 25  1  0  0  0  0 
 24 26  2  0  0  0  0 
 18 26  1  0  0  0  0 
 26 27  1  0  0  0  0 
 23 28  1  0  0  0  0 
 17 29  1  0  0  0  0 
  5 29  1  0  0  0  0 
 29 30  1  0  0  0  0 
 29 31  1  0  0  0  0 
 31 32  1  0  0  0  0 
 16 33  1  0  0  0  0 
 33 34  1  0  0  0  0 
 33 35  1  0  0  0  0 
 33 36  1  0  0  0  0 
 36 37  1  0  0  0  0 
 37 38  1  0  0  0  0 
 37 39  1  0  0  0  0 
 37 40  1  0  0  0  0 
 40 41  1  0  0  0  0 
 40 42  1  0  0  0  0 
 40 43  1  0  0  0  0 
 43 44  1  0  0  0  0 
 44 45  1  0  0  0  0 
 44 46  1  0  0  0  0 
 44 47  1  0  0  0  0 
 36 47  1  0  0  0  0 
 47 48  1  0  0  0  0 
 47 49  1  0  0  0  0 
 43 50  1  0  0  0  0 
 50 51  2  0  0  0  0 
 51 52  1  0  0  0  0 
 51 53  1  0  0  0  0 
 53 54  1  0  0  0  0 
 53 55  2  0  0  0  0 
 55 56  1  0  0  0  0 
 56 57  2  0  0  0  0 
 50 57  1  0  0  0  0 
 57 58  1  0  0  0  0 
 56 59  1  0  0  0  0 
 59 60  1  0  0  0  0 
 60 61  2  0  0  0  0 
 61 62  1  0  0  0  0 
 61 63  1  0  0  0  0 
 63 64  2  0  0  0  0 
 64 65  1  0  0  0  0 
 65 66  1  0  0  0  0 
 65 67  1  0  0  0  0 
 67 68  1  0  0  0  0 
 67 69  2  0  0  0  0 
 63 69  1  0  0  0  0 
 69 70  1  0  0  0  0 
 64 71  1  0  0  0  0 
 71 72  2  0  0  0  0 
 60 72  1  0  0  0  0 
 72 73  1  0  0  0  0 
 55 74  1  0  0  0  0 
 74 75  2  0  0  0  0 
 74 76  1  0  0  0  0 
 76 77  1  0  0  0  0 
 76 78  1  0  0  0  0 
 78 79  2  0  0  0  0 
 78 80  2  0  0  0  0 
 78 81  1  0  0  0  0 
 81 82  2  0  0  0  0 
 82 83  1  0  0  0  0 
 82 84  1  0  0  0  0 
 84 85  1  0  0  0  0 
 84 86  2  0  0  0  0 
 86 87  1  0  0  0  0 
 87 88  2  0  0  0  0 
 81 88  1  0  0  0  0 
 88 89  1  0  0  0  0 
 87 90  1  0  0  0  0 
 90 91  2  0  0  0  0 
 90 92  1  0  0  0  0 
 86 93  1  0  0  0  0 
 93 94  1  0  0  0  0 
 93 95  1  0  0  0  0 
 95 96  1  0  0  0  0 
 95 97  1  0  0  0  0 
 95 98  1  0  0  0  0 
 98 99  1  0  0  0  0 
 98100  1  0  0  0  0 
100101  1  0  0  0  0 
100102  1  0  0  0  0 
100103  1  0  0  0  0 
103104  1  0  0  0  0 
103105  1  0  0  0  0 
103106  1  0  0  0  0 
106107  1  0  0  0  0 
107108  1  0  0  0  0 
107109  1  0  0  0  0 
107110  1  0  0  0  0 
 98110  1  0  0  0  0 
110111  1  0  0  0  0 
110112  1  0  0  0  0 
M  CHG  1  90   1
M  CHG  1  92  -1
M  END
> <Rank>
17

> <Priority_score>
0.172

> <Reaction_type>
aliphatic_hydroxylation_(sec_carbon_next_to_SP2,in_a_ring)

> <Parent_ID>
12

> <Parent_InChI>
InChI=1S/C45H50ClN7O7S/c1-45(2)15-11-33(39(26-45)31-3-5-34(46)6-4-31)29-51-17-19-52(20-18-51)35-7-9-38(42(24-35)60-36-23-32-12-16-47-43(32)49-28-36)44(54)50-61(57,58)37-8-10-40(41(25-37)53(55)56)48-27-30-13-21-59-22-14-30/h3-10,12,16,23-25,28,30,48H,11,13-15,17-22,26-27,29H2,1-2H3,(H,47,49)(H,50,54)

> <Parent_SMILES>
CC1(C)CCC(CN2CCN(c3ccc(C(=O)NS(=O)(=O)c4ccc(NCC5CCOCC5)c([N+](=O)[O-])c4)c(Oc4cnc5[nH]ccc5c4)c3)CC2)=C(c2ccc(Cl)cc2)C1

$$$$
Molecule 12_metabolite 18
  CDK     0516241031

107113  0  0  0  0  0  0  0  0999 V2000
  -13.8542   -9.0672    0.0000 C   0  0  0  0  0  0  0  0  0  0  0  0
  -14.3667   -7.6574    0.0000 H   0  0  0  0  0  0  0  0  0  0  0  0
  -13.8548  -10.5672    0.0000 H   0  0  0  0  0  0  0  0  0  0  0  0
  -15.3315   -9.3271    0.0000 H   0  0  0  0  0  0  0  0  0  0  0  0
  -11.4318   -9.4952    0.0000 C   0  0  0  0  0  0  0  0  0  0  0  0
  -12.2738  -11.8067    0.0000 C   0  0  0  0  0  0  0  0  0  0  0  0
  -13.7510  -12.0667    0.0000 H   0  0  0  0  0  0  0  0  0  0  0  0
  -12.2742  -13.3067    0.0000 H   0  0  0  0  0  0  0  0  0  0  0  0
  -10.7966  -12.0675    0.0000 H   0  0  0  0  0  0  0  0  0  0  0  0
  -11.4310   -7.9944    0.0000 C   0  0  0  0  0  0  0  0  0  0  0  0
  -11.9440   -6.5848    0.0000 H   0  0  0  0  0  0  0  0  0  0  0  0
  -12.9083   -8.2545    0.0000 H   0  0  0  0  0  0  0  0  0  0  0  0
  -10.1314   -7.2438    0.0000 C   0  0  0  0  0  0  0  0  0  0  0  0
   -9.1672   -6.0948    0.0000 H   0  0  0  0  0  0  0  0  0  0  0  0
  -11.0957   -6.0948    0.0000 H   0  0  0  0  0  0  0  0  0  0  0  0
   -8.8325   -7.9940    0.0000 C   0  0  0  0  0  0  0  0  0  0  0  0
   -8.8332   -9.4948    0.0000 C   0  0  0  0  0  0  0  0  0  0  0  0
  -10.1329  -10.2455    0.0000 C   0  0  0  0  0  0  0  0  0  0  0  0
  -11.0971  -11.3945    0.0000 H   0  0  0  0  0  0  0  0  0  0  0  0
   -9.1686  -11.3945    0.0000 H   0  0  0  0  0  0  0  0  0  0  0  0
   -7.5343  -10.2450    0.0000 C   0  0  0  0  0  0  0  0  0  0  0  0
   -7.5325  -11.7286    0.0000 C   0  0  0  0  0  0  0  0  0  0  0  0
   -8.8330  -12.4760    0.0000 H   0  0  0  0  0  0  0  0  0  0  0  0
   -6.2373  -12.4853    0.0000 C   0  0  0  0  0  0  0  0  0  0  0  0
   -6.2543  -13.9852    0.0000 H   0  0  0  0  0  0  0  0  0  0  0  0
   -4.9354  -11.7635    0.0000 C   0  0  0  0  0  0  0  0  0  0  0  0
   -4.9307  -10.2490    0.0000 C   0  0  0  0  0  0  0  0  0  0  0  0
   -3.6286   -9.5044    0.0000 H   0  0  0  0  0  0  0  0  0  0  0  0
   -6.2259   -9.4923    0.0000 C   0  0  0  0  0  0  0  0  0  0  0  0
   -6.2208   -7.9923    0.0000 H   0  0  0  0  0  0  0  0  0  0  0  0
   -3.6441  -12.5268    0.0000 Cl  0  0  0  0  0  0  0  0  0  0  0  0
   -7.5332   -7.2444    0.0000 C   0  0  0  0  0  0  0  0  0  0  0  0
   -7.0206   -8.6541    0.0000 H   0  0  0  0  0  0  0  0  0  0  0  0
   -6.0559   -6.9844    0.0000 H   0  0  0  0  0  0  0  0  0  0  0  0
   -7.5326   -5.2644    0.0000 N   0  0  0  0  0  0  0  0  0  0  0  0
   -8.8314   -4.5140    0.0000 H   0  0  0  0  0  0  0  0  0  0  0  0
   -6.2333   -4.5148    0.0000 C   0  0  0  0  0  0  0  0  0  0  0  0
   -5.7207   -5.9245    0.0000 H   0  0  0  0  0  0  0  0  0  0  0  0
   -4.7560   -4.2548    0.0000 H   0  0  0  0  0  0  0  0  0  0  0  0
   -6.2328   -3.0148    0.0000 C   0  0  0  0  0  0  0  0  0  0  0  0
   -6.7454   -1.6051    0.0000 H   0  0  0  0  0  0  0  0  0  0  0  0
   -7.7101   -3.2748    0.0000 H   0  0  0  0  0  0  0  0  0  0  0  0
   -4.9335   -2.2652    0.0000 N   0  0  0  0  0  0  0  0  0  0  0  0
   -3.6347   -3.0157    0.0000 H   0  0  0  0  0  0  0  0  0  0  0  0
   -4.9331   -0.7652    0.0000 C   0  0  0  0  0  0  0  0  0  0  0  0
   -6.2325   -0.0142    0.0000 C   0  0  0  0  0  0  0  0  0  0  0  0
   -7.5316   -0.7640    0.0000 H   0  0  0  0  0  0  0  0  0  0  0  0
   -6.2327    1.4866    0.0000 C   0  0  0  0  0  0  0  0  0  0  0  0
   -7.5317    2.2366    0.0000 H   0  0  0  0  0  0  0  0  0  0  0  0
   -4.9335    2.2364    0.0000 C   0  0  0  0  0  0  0  0  0  0  0  0
   -3.6341    1.4854    0.0000 C   0  0  0  0  0  0  0  0  0  0  0  0
   -3.6339   -0.0155    0.0000 C   0  0  0  0  0  0  0  0  0  0  0  0
   -2.3349   -0.7655    0.0000 H   0  0  0  0  0  0  0  0  0  0  0  0
   -2.3350    2.2352    0.0000 O   0  0  0  0  0  0  0  0  0  0  0  0
   -0.2048    1.0048    0.0000 C   0  0  0  0  0  0  0  0  0  0  0  0
    1.0952    1.7548    0.0000 C   0  0  0  0  0  0  0  0  0  0  0  0
    1.0952    3.2548    0.0000 H   0  0  0  0  0  0  0  0  0  0  0  0
    2.3952    1.0048    0.0000 C   0  0  0  0  0  0  0  0  0  0  0  0
    2.3952   -0.4952    0.0000 C   0  0  0  0  0  0  0  0  0  0  0  0
    3.8252   -0.9552    0.0000 N   0  0  0  0  0  0  0  0  0  0  0  0
    4.2905   -2.3812    0.0000 H   0  0  0  0  0  0  0  0  0  0  0  0
    4.7052    0.2548    0.0000 C   0  0  0  0  0  0  0  0  0  0  0  0
    6.2052    0.2548    0.0000 H   0  0  0  0  0  0  0  0  0  0  0  0
    3.8252    1.4648    0.0000 C   0  0  0  0  0  0  0  0  0  0  0  0
    4.2905    2.8908    0.0000 H   0  0  0  0  0  0  0  0  0  0  0  0
    1.0952   -1.2452    0.0000 N   0  0  0  0  0  0  0  0  0  0  0  0
   -0.2048   -0.4952    0.0000 C   0  0  0  0  0  0  0  0  0  0  0  0
   -1.5037   -1.2454    0.0000 H   0  0  0  0  0  0  0  0  0  0  0  0
   -4.9331    3.7364    0.0000 C   0  0  0  0  0  0  0  0  0  0  0  0
   -6.2319    4.4868    0.0000 O   0  0  0  0  0  0  0  0  0  0  0  0
   -3.6338    4.4860    0.0000 N   0  0  0  0  0  0  0  0  0  0  0  0
   -2.3350    3.7356    0.0000 H   0  0  0  0  0  0  0  0  0  0  0  0
   -3.6333    5.9860    0.0000 S   0  0  0  0  0  0  0  0  0  0  0  0
   -4.1459    7.3957    0.0000 O   0  0  0  0  0  0  0  0  0  0  0  0
   -5.1106    5.7260    0.0000 O   0  0  0  0  0  0  0  0  0  0  0  0
   -2.3340    6.7356    0.0000 C   0  0  0  0  0  0  0  0  0  0  0  0
   -2.3333    8.2364    0.0000 C   0  0  0  0  0  0  0  0  0  0  0  0
   -3.6322    8.9866    0.0000 H   0  0  0  0  0  0  0  0  0  0  0  0
   -1.0337    8.9870    0.0000 C   0  0  0  0  0  0  0  0  0  0  0  0
   -1.0337   10.4870    0.0000 H   0  0  0  0  0  0  0  0  0  0  0  0
    0.2653    8.2368    0.0000 C   0  0  0  0  0  0  0  0  0  0  0  0
    0.2645    6.7360    0.0000 C   0  0  0  0  0  0  0  0  0  0  0  0
   -1.0351    5.9854    0.0000 C   0  0  0  0  0  0  0  0  0  0  0  0
   -1.0351    4.4854    0.0000 H   0  0  0  0  0  0  0  0  0  0  0  0
    1.5635    5.9858    0.0000 N   0  0  0  0  0  0  0  0  0  0  0  0
    2.8626    6.7356    0.0000 O   0  0  0  0  0  0  0  0  0  0  0  0
    1.5632    4.4858    0.0000 O   0  0  0  0  0  0  0  0  0  0  0  0
    1.5645    8.9864    0.0000 N   0  0  0  0  0  0  0  0  0  0  0  0
    2.8633    8.2360    0.0000 H   0  0  0  0  0  0  0  0  0  0  0  0
    1.5650   10.4864    0.0000 C   0  0  0  0  0  0  0  0  0  0  0  0
    1.0524   11.8961    0.0000 H   0  0  0  0  0  0  0  0  0  0  0  0
    0.0877   10.2264    0.0000 H   0  0  0  0  0  0  0  0  0  0  0  0
    3.6958   11.7157    0.0000 C   0  0  0  0  0  0  0  0  0  0  0  0
    4.2081   10.3059    0.0000 H   0  0  0  0  0  0  0  0  0  0  0  0
    2.7312   12.8655    0.0000 C   0  0  0  0  0  0  0  0  0  0  0  0
    1.4324   13.6160    0.0000 H   0  0  0  0  0  0  0  0  0  0  0  0
    1.7668   11.7167    0.0000 H   0  0  0  0  0  0  0  0  0  0  0  0
    3.2449   14.2749    0.0000 C   0  0  0  0  0  0  0  0  0  0  0  0
    3.2458   15.7749    0.0000 H   0  0  0  0  0  0  0  0  0  0  0  0
    1.7678   14.5361    0.0000 H   0  0  0  0  0  0  0  0  0  0  0  0
    4.7231   14.5344    0.0000 O   0  0  0  0  0  0  0  0  0  0  0  0
    5.6877   13.3846    0.0000 C   0  0  0  0  0  0  0  0  0  0  0  0
    6.9865   12.6342    0.0000 H   0  0  0  0  0  0  0  0  0  0  0  0
    6.6521   14.5334    0.0000 H   0  0  0  0  0  0  0  0  0  0  0  0
    5.1741   11.9752    0.0000 C   0  0  0  0  0  0  0  0  0  0  0  0
    5.1731   10.4752    0.0000 H   0  0  0  0  0  0  0  0  0  0  0  0
    6.6511   11.7140    0.0000 H   0  0  0  0  0  0  0  0  0  0  0  0
  1  2  1  0  0  0  0 
  1  3  1  0  0  0  0 
  1  4  1  0  0  0  0 
  1  5  1  0  0  0  0 
  5  6  1  0  0  0  0 
  6  7  1  0  0  0  0 
  6  8  1  0  0  0  0 
  6  9  1  0  0  0  0 
  5 10  1  0  0  0  0 
 10 11  1  0  0  0  0 
 10 12  1  0  0  0  0 
 10 13  1  0  0  0  0 
 13 14  1  0  0  0  0 
 13 15  1  0  0  0  0 
 13 16  1  0  0  0  0 
 16 17  2  0  0  0  0 
 17 18  1  0  0  0  0 
  5 18  1  0  0  0  0 
 18 19  1  0  0  0  0 
 18 20  1  0  0  0  0 
 17 21  1  0  0  0  0 
 21 22  2  0  0  0  0 
 22 23  1  0  0  0  0 
 22 24  1  0  0  0  0 
 24 25  1  0  0  0  0 
 24 26  2  0  0  0  0 
 26 27  1  0  0  0  0 
 27 28  1  0  0  0  0 
 27 29  2  0  0  0  0 
 21 29  1  0  0  0  0 
 29 30  1  0  0  0  0 
 26 31  1  0  0  0  0 
 16 32  1  0  0  0  0 
 32 33  1  0  0  0  0 
 32 34  1  0  0  0  0 
 32 35  1  0  0  0  0 
 35 36  1  0  0  0  0 
 35 37  1  0  0  0  0 
 37 38  1  0  0  0  0 
 37 39  1  0  0  0  0 
 37 40  1  0  0  0  0 
 40 41  1  0  0  0  0 
 40 42  1  0  0  0  0 
 40 43  1  0  0  0  0 
 43 44  1  0  0  0  0 
 43 45  1  0  0  0  0 
 45 46  2  0  0  0  0 
 46 47  1  0  0  0  0 
 46 48  1  0  0  0  0 
 48 49  1  0  0  0  0 
 48 50  2  0  0  0  0 
 50 51  1  0  0  0  0 
 51 52  2  0  0  0  0 
 45 52  1  0  0  0  0 
 52 53  1  0  0  0  0 
 51 54  1  0  0  0  0 
 54 55  1  0  0  0  0 
 55 56  2  0  0  0  0 
 56 57  1  0  0  0  0 
 56 58  1  0  0  0  0 
 58 59  2  0  0  0  0 
 59 60  1  0  0  0  0 
 60 61  1  0  0  0  0 
 60 62  1  0  0  0  0 
 62 63  1  0  0  0  0 
 62 64  2  0  0  0  0 
 58 64  1  0  0  0  0 
 64 65  1  0  0  0  0 
 59 66  1  0  0  0  0 
 66 67  2  0  0  0  0 
 55 67  1  0  0  0  0 
 67 68  1  0  0  0  0 
 50 69  1  0  0  0  0 
 69 70  2  0  0  0  0 
 69 71  1  0  0  0  0 
 71 72  1  0  0  0  0 
 71 73  1  0  0  0  0 
 73 74  2  0  0  0  0 
 73 75  2  0  0  0  0 
 73 76  1  0  0  0  0 
 76 77  2  0  0  0  0 
 77 78  1  0  0  0  0 
 77 79  1  0  0  0  0 
 79 80  1  0  0  0  0 
 79 81  2  0  0  0  0 
 81 82  1  0  0  0  0 
 82 83  2  0  0  0  0 
 76 83  1  0  0  0  0 
 83 84  1  0  0  0  0 
 82 85  1  0  0  0  0 
 85 86  2  0  0  0  0 
 85 87  1  0  0  0  0 
 81 88  1  0  0  0  0 
 88 89  1  0  0  0  0 
 88 90  1  0  0  0  0 
 90 91  1  0  0  0  0 
 90 92  1  0  0  0  0 
 90 93  1  0  0  0  0 
 93 94  1  0  0  0  0 
 93 95  1  0  0  0  0 
 95 96  1  0  0  0  0 
 95 97  1  0  0  0  0 
 95 98  1  0  0  0  0 
 98 99  1  0  0  0  0 
 98100  1  0  0  0  0 
 98101  1  0  0  0  0 
101102  1  0  0  0  0 
102103  1  0  0  0  0 
102104  1  0  0  0  0 
102105  1  0  0  0  0 
 93105  1  0  0  0  0 
105106  1  0  0  0  0 
105107  1  0  0  0  0 
M  CHG  1  85   1
M  CHG  1  87  -1
M  END
> <Rank>
18

> <Priority_score>
0.164

> <Reaction_type>
N-dealkylation of piperazine

> <Parent_ID>
12

> <Parent_InChI>
InChI=1S/C45H50ClN7O7S/c1-45(2)15-11-33(39(26-45)31-3-5-34(46)6-4-31)29-51-17-19-52(20-18-51)35-7-9-38(42(24-35)60-36-23-32-12-16-47-43(32)49-28-36)44(54)50-61(57,58)37-8-10-40(41(25-37)53(55)56)48-27-30-13-21-59-22-14-30/h3-10,12,16,23-25,28,30,48H,11,13-15,17-22,26-27,29H2,1-2H3,(H,47,49)(H,50,54)

> <Parent_SMILES>
CC1(C)CCC(CN2CCN(c3ccc(C(=O)NS(=O)(=O)c4ccc(NCC5CCOCC5)c([N+](=O)[O-])c4)c(Oc4cnc5[nH]ccc5c4)c3)CC2)=C(c2ccc(Cl)cc2)C1

$$$$
Molecule 12_metabolite 19
  CDK     0516241031

112119  0  0  0  0  0  0  0  0999 V2000
  -33.9778   -2.8385    0.0000 C   0  0  0  0  0  0  0  0  0  0  0  0
  -33.0136   -3.9875    0.0000 H   0  0  0  0  0  0  0  0  0  0  0  0
  -35.2769   -2.0885    0.0000 H   0  0  0  0  0  0  0  0  0  0  0  0
  -34.9419   -3.9876    0.0000 H   0  0  0  0  0  0  0  0  0  0  0  0
  -33.1366   -0.5268    0.0000 C   0  0  0  0  0  0  0  0  0  0  0  0
  -35.5592   -0.0995    0.0000 C   0  0  0  0  0  0  0  0  0  0  0  0
  -36.5234   -1.2485    0.0000 H   0  0  0  0  0  0  0  0  0  0  0  0
  -36.8582    0.6506    0.0000 H   0  0  0  0  0  0  0  0  0  0  0  0
  -35.0461    1.3100    0.0000 H   0  0  0  0  0  0  0  0  0  0  0  0
  -31.8367   -1.2770    0.0000 C   0  0  0  0  0  0  0  0  0  0  0  0
  -30.8728   -2.4263    0.0000 H   0  0  0  0  0  0  0  0  0  0  0  0
  -32.8009   -2.4260    0.0000 H   0  0  0  0  0  0  0  0  0  0  0  0
  -30.5366   -0.5272    0.0000 C   0  0  0  0  0  0  0  0  0  0  0  0
  -29.0593   -0.2671    0.0000 H   0  0  0  0  0  0  0  0  0  0  0  0
  -30.0240   -1.9369    0.0000 H   0  0  0  0  0  0  0  0  0  0  0  0
  -30.5363    0.9728    0.0000 C   0  0  0  0  0  0  0  0  0  0  0  0
  -31.8362    1.7230    0.0000 C   0  0  0  0  0  0  0  0  0  0  0  0
  -33.1363    0.9732    0.0000 C   0  0  0  0  0  0  0  0  0  0  0  0
  -34.6136    0.7131    0.0000 H   0  0  0  0  0  0  0  0  0  0  0  0
  -33.6488    2.3830    0.0000 H   0  0  0  0  0  0  0  0  0  0  0  0
  -31.8359    3.7030    0.0000 C   0  0  0  0  0  0  0  0  0  0  0  0
  -33.1195    4.4468    0.0000 C   0  0  0  0  0  0  0  0  0  0  0  0
  -34.4173    3.6946    0.0000 H   0  0  0  0  0  0  0  0  0  0  0  0
  -33.1268    5.9468    0.0000 C   0  0  0  0  0  0  0  0  0  0  0  0
  -34.4340    6.6825    0.0000 H   0  0  0  0  0  0  0  0  0  0  0  0
  -31.8505    6.7130    0.0000 C   0  0  0  0  0  0  0  0  0  0  0  0
  -30.5368    5.9594    0.0000 C   0  0  0  0  0  0  0  0  0  0  0  0
  -29.2407    6.7143    0.0000 H   0  0  0  0  0  0  0  0  0  0  0  0
  -30.5295    4.4594    0.0000 C   0  0  0  0  0  0  0  0  0  0  0  0
  -29.2282    3.7133    0.0000 H   0  0  0  0  0  0  0  0  0  0  0  0
  -31.8654    8.2129    0.0000 Cl  0  0  0  0  0  0  0  0  0  0  0  0
  -28.8216    1.9628    0.0000 C   0  0  0  0  0  0  0  0  0  0  0  0
  -27.8574    3.1119    0.0000 H   0  0  0  0  0  0  0  0  0  0  0  0
  -29.7858    3.1119    0.0000 H   0  0  0  0  0  0  0  0  0  0  0  0
  -26.2755    0.4928    0.0000 N   0  0  0  0  0  0  0  0  0  0  0  0
  -25.7625    1.9032    0.0000 C   0  0  0  0  0  0  0  0  0  0  0  0
  -25.7625    3.4032    0.0000 H   0  0  0  0  0  0  0  0  0  0  0  0
  -27.2397    2.1636    0.0000 H   0  0  0  0  0  0  0  0  0  0  0  0
  -24.2852    2.1636    0.0000 C   0  0  0  0  0  0  0  0  0  0  0  0
  -22.9859    2.9131    0.0000 H   0  0  0  0  0  0  0  0  0  0  0  0
  -24.7979    3.5732    0.0000 H   0  0  0  0  0  0  0  0  0  0  0  0
  -23.3210    1.0134    0.0000 N   0  0  0  0  0  0  0  0  0  0  0  0
  -23.8340   -0.3970    0.0000 C   0  0  0  0  0  0  0  0  0  0  0  0
  -23.8340   -1.8970    0.0000 H   0  0  0  0  0  0  0  0  0  0  0  0
  -22.3568   -0.6573    0.0000 H   0  0  0  0  0  0  0  0  0  0  0  0
  -25.3112   -0.6573    0.0000 C   0  0  0  0  0  0  0  0  0  0  0  0
  -26.6105   -1.4069    0.0000 H   0  0  0  0  0  0  0  0  0  0  0  0
  -24.7985   -2.0670    0.0000 H   0  0  0  0  0  0  0  0  0  0  0  0
  -21.8437    1.2737    0.0000 C   0  0  0  0  0  0  0  0  0  0  0  0
  -21.3301    2.6839    0.0000 C   0  0  0  0  0  0  0  0  0  0  0  0
  -22.2943    3.8329    0.0000 H   0  0  0  0  0  0  0  0  0  0  0  0
  -19.8521    2.9451    0.0000 C   0  0  0  0  0  0  0  0  0  0  0  0
  -19.3394    4.3548    0.0000 H   0  0  0  0  0  0  0  0  0  0  0  0
  -18.8879    1.7961    0.0000 C   0  0  0  0  0  0  0  0  0  0  0  0
  -19.4016    0.3859    0.0000 C   0  0  0  0  0  0  0  0  0  0  0  0
  -20.8795    0.1247    0.0000 C   0  0  0  0  0  0  0  0  0  0  0  0
  -21.3922   -1.2849    0.0000 H   0  0  0  0  0  0  0  0  0  0  0  0
  -17.8202   -1.4985    0.0000 O   0  0  0  0  0  0  0  0  0  0  0  0
  -18.3332   -2.9080    0.0000 C   0  0  0  0  0  0  0  0  0  0  0  0
  -17.3686   -4.0579    0.0000 C   0  0  0  0  0  0  0  0  0  0  0  0
  -15.8914   -3.7971    0.0000 H   0  0  0  0  0  0  0  0  0  0  0  0
  -17.8811   -5.4685    0.0000 C   0  0  0  0  0  0  0  0  0  0  0  0
  -19.3583   -5.7292    0.0000 C   0  0  0  0  0  0  0  0  0  0  0  0
  -19.5627   -7.2174    0.0000 N   0  0  0  0  0  0  0  0  0  0  0  0
  -20.8861   -7.9236    0.0000 H   0  0  0  0  0  0  0  0  0  0  0  0
  -18.2181   -7.8737    0.0000 C   0  0  0  0  0  0  0  0  0  0  0  0
  -17.9573   -9.3508    0.0000 H   0  0  0  0  0  0  0  0  0  0  0  0
  -17.1795   -6.7967    0.0000 C   0  0  0  0  0  0  0  0  0  0  0  0
  -15.6943   -7.0070    0.0000 H   0  0  0  0  0  0  0  0  0  0  0  0
  -20.3229   -4.5794    0.0000 N   0  0  0  0  0  0  0  0  0  0  0  0
  -19.8103   -3.1688    0.0000 C   0  0  0  0  0  0  0  0  0  0  0  0
  -20.7749   -2.0201    0.0000 H   0  0  0  0  0  0  0  0  0  0  0  0
  -17.4106    2.0564    0.0000 C   0  0  0  0  0  0  0  0  0  0  0  0
  -16.4466    0.9072    0.0000 O   0  0  0  0  0  0  0  0  0  0  0  0
  -16.8975    3.4659    0.0000 N   0  0  0  0  0  0  0  0  0  0  0  0
  -17.8615    4.6151    0.0000 H   0  0  0  0  0  0  0  0  0  0  0  0
  -15.4202    3.7262    0.0000 S   0  0  0  0  0  0  0  0  0  0  0  0
  -15.4204    2.2262    0.0000 O   0  0  0  0  0  0  0  0  0  0  0  0
  -13.9430    3.4656    0.0000 O   0  0  0  0  0  0  0  0  0  0  0  0
  -14.9070    5.1357    0.0000 C   0  0  0  0  0  0  0  0  0  0  0  0
  -15.8714    6.2856    0.0000 C   0  0  0  0  0  0  0  0  0  0  0  0
  -17.3486    6.0251    0.0000 H   0  0  0  0  0  0  0  0  0  0  0  0
  -15.3587    7.6962    0.0000 C   0  0  0  0  0  0  0  0  0  0  0  0
  -16.3231    8.8450    0.0000 H   0  0  0  0  0  0  0  0  0  0  0  0
  -13.8815    7.9567    0.0000 C   0  0  0  0  0  0  0  0  0  0  0  0
  -12.9171    6.8068    0.0000 C   0  0  0  0  0  0  0  0  0  0  0  0
  -13.4298    5.3962    0.0000 C   0  0  0  0  0  0  0  0  0  0  0  0
  -12.4654    4.2474    0.0000 H   0  0  0  0  0  0  0  0  0  0  0  0
  -11.4399    7.0673    0.0000 N   0  0  0  0  0  0  0  0  0  0  0  0
  -10.9269    8.4769    0.0000 O   0  0  0  0  0  0  0  0  0  0  0  0
  -10.4756    5.9183    0.0000 O   0  0  0  0  0  0  0  0  0  0  0  0
  -13.3683    9.3662    0.0000 N   0  0  0  0  0  0  0  0  0  0  0  0
  -11.8910    9.6265    0.0000 H   0  0  0  0  0  0  0  0  0  0  0  0
  -14.3323   10.5154    0.0000 C   0  0  0  0  0  0  0  0  0  0  0  0
  -15.2966    9.3664    0.0000 H   0  0  0  0  0  0  0  0  0  0  0  0
  -15.6313   11.2655    0.0000 H   0  0  0  0  0  0  0  0  0  0  0  0
  -13.4907   12.8269    0.0000 C   0  0  0  0  0  0  0  0  0  0  0  0
  -12.1919   12.0765    0.0000 H   0  0  0  0  0  0  0  0  0  0  0  0
  -14.9688   13.0874    0.0000 C   0  0  0  0  0  0  0  0  0  0  0  0
  -16.4460   12.8271    0.0000 H   0  0  0  0  0  0  0  0  0  0  0  0
  -14.9688   11.5874    0.0000 H   0  0  0  0  0  0  0  0  0  0  0  0
  -15.4815   14.4970    0.0000 C   0  0  0  0  0  0  0  0  0  0  0  0
  -16.4452   15.6465    0.0000 H   0  0  0  0  0  0  0  0  0  0  0  0
  -16.7808   13.7474    0.0000 H   0  0  0  0  0  0  0  0  0  0  0  0
  -14.5162   15.6462    0.0000 O   0  0  0  0  0  0  0  0  0  0  0  0
  -13.0381   15.3858    0.0000 C   0  0  0  0  0  0  0  0  0  0  0  0
  -11.5609   15.6461    0.0000 H   0  0  0  0  0  0  0  0  0  0  0  0
  -13.0381   16.8858    0.0000 H   0  0  0  0  0  0  0  0  0  0  0  0
  -12.5254   13.9761    0.0000 C   0  0  0  0  0  0  0  0  0  0  0  0
  -11.5617   12.8266    0.0000 H   0  0  0  0  0  0  0  0  0  0  0  0
  -11.2261   14.7257    0.0000 H   0  0  0  0  0  0  0  0  0  0  0  0
  -27.2399   -0.6561    0.0000 O   0  0  0  0  0  0  0  0  0  0  0  0
  1  2  1  0  0  0  0 
  1  3  1  0  0  0  0 
  1  4  1  0  0  0  0 
  1  5  1  0  0  0  0 
  5  6  1  0  0  0  0 
  6  7  1  0  0  0  0 
  6  8  1  0  0  0  0 
  6  9  1  0  0  0  0 
  5 10  1  0  0  0  0 
 10 11  1  0  0  0  0 
 10 12  1  0  0  0  0 
 10 13  1  0  0  0  0 
 13 14  1  0  0  0  0 
 13 15  1  0  0  0  0 
 13 16  1  0  0  0  0 
 16 17  2  0  0  0  0 
 17 18  1  0  0  0  0 
  5 18  1  0  0  0  0 
 18 19  1  0  0  0  0 
 18 20  1  0  0  0  0 
 17 21  1  0  0  0  0 
 21 22  2  0  0  0  0 
 22 23  1  0  0  0  0 
 22 24  1  0  0  0  0 
 24 25  1  0  0  0  0 
 24 26  2  0  0  0  0 
 26 27  1  0  0  0  0 
 27 28  1  0  0  0  0 
 27 29  2  0  0  0  0 
 21 29  1  0  0  0  0 
 29 30  1  0  0  0  0 
 26 31  1  0  0  0  0 
 16 32  1  0  0  0  0 
 32 33  1  0  0  0  0 
 32 34  1  0  0  0  0 
 32 35  1  0  0  0  0 
 35 36  1  0  0  0  0 
 36 37  1  0  0  0  0 
 36 38  1  0  0  0  0 
 36 39  1  0  0  0  0 
 39 40  1  0  0  0  0 
 39 41  1  0  0  0  0 
 39 42  1  0  0  0  0 
 42 43  1  0  0  0  0 
 43 44  1  0  0  0  0 
 43 45  1  0  0  0  0 
 43 46  1  0  0  0  0 
 35 46  1  0  0  0  0 
 46 47  1  0  0  0  0 
 46 48  1  0  0  0  0 
 42 49  1  0  0  0  0 
 49 50  2  0  0  0  0 
 50 51  1  0  0  0  0 
 50 52  1  0  0  0  0 
 52 53  1  0  0  0  0 
 52 54  2  0  0  0  0 
 54 55  1  0  0  0  0 
 55 56  2  0  0  0  0 
 49 56  1  0  0  0  0 
 56 57  1  0  0  0  0 
 55 58  1  0  0  0  0 
 58 59  1  0  0  0  0 
 59 60  2  0  0  0  0 
 60 61  1  0  0  0  0 
 60 62  1  0  0  0  0 
 62 63  2  0  0  0  0 
 63 64  1  0  0  0  0 
 64 65  1  0  0  0  0 
 64 66  1  0  0  0  0 
 66 67  1  0  0  0  0 
 66 68  2  0  0  0  0 
 62 68  1  0  0  0  0 
 68 69  1  0  0  0  0 
 63 70  1  0  0  0  0 
 70 71  2  0  0  0  0 
 59 71  1  0  0  0  0 
 71 72  1  0  0  0  0 
 54 73  1  0  0  0  0 
 73 74  2  0  0  0  0 
 73 75  1  0  0  0  0 
 75 76  1  0  0  0  0 
 75 77  1  0  0  0  0 
 77 78  2  0  0  0  0 
 77 79  2  0  0  0  0 
 77 80  1  0  0  0  0 
 80 81  2  0  0  0  0 
 81 82  1  0  0  0  0 
 81 83  1  0  0  0  0 
 83 84  1  0  0  0  0 
 83 85  2  0  0  0  0 
 85 86  1  0  0  0  0 
 86 87  2  0  0  0  0 
 80 87  1  0  0  0  0 
 87 88  1  0  0  0  0 
 86 89  1  0  0  0  0 
 89 90  2  0  0  0  0 
 89 91  1  0  0  0  0 
 85 92  1  0  0  0  0 
 92 93  1  0  0  0  0 
 92 94  1  0  0  0  0 
 94 95  1  0  0  0  0 
 94 96  1  0  0  0  0 
 94 97  1  0  0  0  0 
 97 98  1  0  0  0  0 
 97 99  1  0  0  0  0 
 99100  1  0  0  0  0 
 99101  1  0  0  0  0 
 99102  1  0  0  0  0 
102103  1  0  0  0  0 
102104  1  0  0  0  0 
102105  1  0  0  0  0 
105106  1  0  0  0  0 
106107  1  0  0  0  0 
106108  1  0  0  0  0 
106109  1  0  0  0  0 
 97109  1  0  0  0  0 
109110  1  0  0  0  0 
109111  1  0  0  0  0 
 35112  1  0  0  0  0 
M  CHG  1  35   1
M  CHG  1  89   1
M  CHG  1  91  -1
M  CHG  1 112  -1
M  END
> <Rank>
18

> <Priority_score>
0.164

> <Reaction_type>
N-oxidation_(tertiary_N)

> <Parent_ID>
12

> <Parent_InChI>
InChI=1S/C45H50ClN7O7S/c1-45(2)15-11-33(39(26-45)31-3-5-34(46)6-4-31)29-51-17-19-52(20-18-51)35-7-9-38(42(24-35)60-36-23-32-12-16-47-43(32)49-28-36)44(54)50-61(57,58)37-8-10-40(41(25-37)53(55)56)48-27-30-13-21-59-22-14-30/h3-10,12,16,23-25,28,30,48H,11,13-15,17-22,26-27,29H2,1-2H3,(H,47,49)(H,50,54)

> <Parent_SMILES>
CC1(C)CCC(CN2CCN(c3ccc(C(=O)NS(=O)(=O)c4ccc(NCC5CCOCC5)c([N+](=O)[O-])c4)c(Oc4cnc5[nH]ccc5c4)c3)CC2)=C(c2ccc(Cl)cc2)C1

$$$$
Molecule 12_metabolite 20
  CDK     0516241031

 34 35  0  0  0  0  0  0  0  0999 V2000
   -5.0922   -0.5138    0.0000 C   0  0  0  0  0  0  0  0  0  0  0  0
   -5.6049    0.8959    0.0000 H   0  0  0  0  0  0  0  0  0  0  0  0
   -5.0925   -2.0138    0.0000 H   0  0  0  0  0  0  0  0  0  0  0  0
   -6.5694   -0.7739    0.0000 H   0  0  0  0  0  0  0  0  0  0  0  0
   -2.6696   -0.9414    0.0000 C   0  0  0  0  0  0  0  0  0  0  0  0
   -3.3470   -2.8020    0.0000 C   0  0  0  0  0  0  0  0  0  0  0  0
   -4.8243   -3.0623    0.0000 H   0  0  0  0  0  0  0  0  0  0  0  0
   -3.3472   -4.3020    0.0000 H   0  0  0  0  0  0  0  0  0  0  0  0
   -1.3972   -3.1460    0.0000 H   0  0  0  0  0  0  0  0  0  0  0  0
   -2.6692    0.5594    0.0000 C   0  0  0  0  0  0  0  0  0  0  0  0
   -3.1823    1.9689    0.0000 H   0  0  0  0  0  0  0  0  0  0  0  0
   -4.1464    0.2991    0.0000 H   0  0  0  0  0  0  0  0  0  0  0  0
   -1.3696    1.3102    0.0000 C   0  0  0  0  0  0  0  0  0  0  0  0
   -0.4056    2.4594    0.0000 H   0  0  0  0  0  0  0  0  0  0  0  0
   -2.3341    2.4591    0.0000 H   0  0  0  0  0  0  0  0  0  0  0  0
   -0.0706    0.5602    0.0000 C   0  0  0  0  0  0  0  0  0  0  0  0
   -0.0711   -0.9406    0.0000 C   0  0  0  0  0  0  0  0  0  0  0  0
   -1.3706   -1.6914    0.0000 C   0  0  0  0  0  0  0  0  0  0  0  0
   -2.3347   -2.8406    0.0000 H   0  0  0  0  0  0  0  0  0  0  0  0
   -0.4062   -2.8403    0.0000 H   0  0  0  0  0  0  0  0  0  0  0  0
    2.0593   -2.1706    0.0000 C   0  0  0  0  0  0  0  0  0  0  0  0
    3.3452   -1.4306    0.0000 C   0  0  0  0  0  0  0  0  0  0  0  0
    3.3424    0.0694    0.0000 H   0  0  0  0  0  0  0  0  0  0  0  0
    4.6480   -2.1741    0.0000 C   0  0  0  0  0  0  0  0  0  0  0  0
    5.9386   -1.4097    0.0000 H   0  0  0  0  0  0  0  0  0  0  0  0
    4.6736   -3.6625    0.0000 C   0  0  0  0  0  0  0  0  0  0  0  0
    3.3642   -4.4236    0.0000 C   0  0  0  0  0  0  0  0  0  0  0  0
    3.3702   -5.9236    0.0000 H   0  0  0  0  0  0  0  0  0  0  0  0
    2.0614   -3.6801    0.0000 C   0  0  0  0  0  0  0  0  0  0  0  0
    0.7648   -4.4343    0.0000 H   0  0  0  0  0  0  0  0  0  0  0  0
    5.9801   -4.3994    0.0000 Cl  0  0  0  0  0  0  0  0  0  0  0  0
    1.2286    1.3100    0.0000 C   0  0  0  0  0  0  0  0  0  0  0  0
    1.2288    2.8100    0.0000 H   0  0  0  0  0  0  0  0  0  0  0  0
    2.5275    0.5598    0.0000 O   0  0  0  0  0  0  0  0  0  0  0  0
  1  2  1  0  0  0  0 
  1  3  1  0  0  0  0 
  1  4  1  0  0  0  0 
  1  5  1  0  0  0  0 
  5  6  1  0  0  0  0 
  6  7  1  0  0  0  0 
  6  8  1  0  0  0  0 
  6  9  1  0  0  0  0 
  5 10  1  0  0  0  0 
 10 11  1  0  0  0  0 
 10 12  1  0  0  0  0 
 10 13  1  0  0  0  0 
 13 14  1  0  0  0  0 
 13 15  1  0  0  0  0 
 13 16  1  0  0  0  0 
 16 17  2  0  0  0  0 
 17 18  1  0  0  0  0 
  5 18  1  0  0  0  0 
 18 19  1  0  0  0  0 
 18 20  1  0  0  0  0 
 17 21  1  0  0  0  0 
 21 22  2  0  0  0  0 
 22 23  1  0  0  0  0 
 22 24  1  0  0  0  0 
 24 25  1  0  0  0  0 
 24 26  2  0  0  0  0 
 26 27  1  0  0  0  0 
 27 28  1  0  0  0  0 
 27 29  2  0  0  0  0 
 21 29  1  0  0  0  0 
 29 30  1  0  0  0  0 
 26 31  1  0  0  0  0 
 16 32  1  0  0  0  0 
 32 33  1  0  0  0  0 
 32 34  2  0  0  0  0 
M  END
> <Rank>
18

> <Priority_score>
0.164

> <Reaction_type>
N-dealkylation

> <Parent_ID>
12

> <Parent_InChI>
InChI=1S/C45H50ClN7O7S/c1-45(2)15-11-33(39(26-45)31-3-5-34(46)6-4-31)29-51-17-19-52(20-18-51)35-7-9-38(42(24-35)60-36-23-32-12-16-47-43(32)49-28-36)44(54)50-61(57,58)37-8-10-40(41(25-37)53(55)56)48-27-30-13-21-59-22-14-30/h3-10,12,16,23-25,28,30,48H,11,13-15,17-22,26-27,29H2,1-2H3,(H,47,49)(H,50,54)

> <Parent_SMILES>
CC1(C)CCC(CN2CCN(c3ccc(C(=O)NS(=O)(=O)c4ccc(NCC5CCOCC5)c([N+](=O)[O-])c4)c(Oc4cnc5[nH]ccc5c4)c3)CC2)=C(c2ccc(Cl)cc2)C1

$$$$
Molecule 12_metabolite 21
  CDK     0516241031

112119  0  0  0  0  0  0  0  0999 V2000
    4.8307   21.1466    0.0000 C   0  0  0  0  0  0  0  0  0  0  0  0
    3.3534   20.8865    0.0000 H   0  0  0  0  0  0  0  0  0  0  0  0
    6.1299   21.8962    0.0000 H   0  0  0  0  0  0  0  0  0  0  0  0
    4.3180   22.5562    0.0000 H   0  0  0  0  0  0  0  0  0  0  0  0
    6.4115   19.2617    0.0000 C   0  0  0  0  0  0  0  0  0  0  0  0
    7.9934   21.1456    0.0000 C   0  0  0  0  0  0  0  0  0  0  0  0
    7.4809   22.5553    0.0000 H   0  0  0  0  0  0  0  0  0  0  0  0
    9.2927   21.8951    0.0000 H   0  0  0  0  0  0  0  0  0  0  0  0
    8.9572   19.9961    0.0000 H   0  0  0  0  0  0  0  0  0  0  0  0
    5.1116   18.5115    0.0000 C   0  0  0  0  0  0  0  0  0  0  0  0
    3.6342   18.2519    0.0000 H   0  0  0  0  0  0  0  0  0  0  0  0
    4.5991   19.9212    0.0000 H   0  0  0  0  0  0  0  0  0  0  0  0
    5.1104   17.0106    0.0000 C   0  0  0  0  0  0  0  0  0  0  0  0
    4.4321   15.1504    0.0000 H   0  0  0  0  0  0  0  0  0  0  0  0
    3.6333   17.2721    0.0000 H   0  0  0  0  0  0  0  0  0  0  0  0
    6.4091   16.2600    0.0000 C   0  0  0  0  0  0  0  0  0  0  0  0
    7.7089   17.0102    0.0000 C   0  0  0  0  0  0  0  0  0  0  0  0
    7.7101   18.5110    0.0000 C   0  0  0  0  0  0  0  0  0  0  0  0
    8.2240   19.9203    0.0000 H   0  0  0  0  0  0  0  0  0  0  0  0
    9.1872   18.2496    0.0000 H   0  0  0  0  0  0  0  0  0  0  0  0
    9.0076   16.2596    0.0000 C   0  0  0  0  0  0  0  0  0  0  0  0
   10.2938   16.9990    0.0000 C   0  0  0  0  0  0  0  0  0  0  0  0
   10.2918   18.4990    0.0000 H   0  0  0  0  0  0  0  0  0  0  0  0
   11.5962   16.2549    0.0000 C   0  0  0  0  0  0  0  0  0  0  0  0
   12.8872   17.0187    0.0000 H   0  0  0  0  0  0  0  0  0  0  0  0
   11.6212   14.7665    0.0000 C   0  0  0  0  0  0  0  0  0  0  0  0
   10.3114   14.0060    0.0000 C   0  0  0  0  0  0  0  0  0  0  0  0
   10.3167   12.5060    0.0000 H   0  0  0  0  0  0  0  0  0  0  0  0
    9.0090   14.7501    0.0000 C   0  0  0  0  0  0  0  0  0  0  0  0
    7.7120   13.9965    0.0000 H   0  0  0  0  0  0  0  0  0  0  0  0
   12.9273   14.0290    0.0000 Cl  0  0  0  0  0  0  0  0  0  0  0  0
    6.4086   14.7600    0.0000 C   0  0  0  0  0  0  0  0  0  0  0  0
    7.8859   15.0200    0.0000 H   0  0  0  0  0  0  0  0  0  0  0  0
    3.8620   13.2908    0.0000 N   0  0  0  0  0  0  0  0  0  0  0  0
    3.8613   11.7900    0.0000 C   0  0  0  0  0  0  0  0  0  0  0  0
    5.3385   12.0501    0.0000 H   0  0  0  0  0  0  0  0  0  0  0  0
    4.3742   10.3804    0.0000 H   0  0  0  0  0  0  0  0  0  0  0  0
    2.5616   11.0394    0.0000 C   0  0  0  0  0  0  0  0  0  0  0  0
    3.5259    9.8904    0.0000 H   0  0  0  0  0  0  0  0  0  0  0  0
    1.5974    9.8904    0.0000 H   0  0  0  0  0  0  0  0  0  0  0  0
    1.2627   11.7896    0.0000 N   0  0  0  0  0  0  0  0  0  0  0  0
    1.2634   13.2904    0.0000 C   0  0  0  0  0  0  0  0  0  0  0  0
   -0.2139   13.0303    0.0000 H   0  0  0  0  0  0  0  0  0  0  0  0
    0.7505   14.7000    0.0000 H   0  0  0  0  0  0  0  0  0  0  0  0
    2.5631   14.0410    0.0000 C   0  0  0  0  0  0  0  0  0  0  0  0
    1.5988   15.1900    0.0000 H   0  0  0  0  0  0  0  0  0  0  0  0
    3.5273   15.1900    0.0000 H   0  0  0  0  0  0  0  0  0  0  0  0
   -0.0366   11.0400    0.0000 C   0  0  0  0  0  0  0  0  0  0  0  0
   -1.3362   11.7906    0.0000 C   0  0  0  0  0  0  0  0  0  0  0  0
   -1.3355   13.2906    0.0000 H   0  0  0  0  0  0  0  0  0  0  0  0
   -2.6366   11.0412    0.0000 C   0  0  0  0  0  0  0  0  0  0  0  0
   -3.9351   11.7921    0.0000 H   0  0  0  0  0  0  0  0  0  0  0  0
   -2.6373    9.5412    0.0000 C   0  0  0  0  0  0  0  0  0  0  0  0
   -1.3377    8.7906    0.0000 C   0  0  0  0  0  0  0  0  0  0  0  0
   -0.0373    9.5400    0.0000 C   0  0  0  0  0  0  0  0  0  0  0  0
    1.2613    8.7892    0.0000 H   0  0  0  0  0  0  0  0  0  0  0  0
   -1.3388    6.3306    0.0000 O   0  0  0  0  0  0  0  0  0  0  0  0
   -0.0402    5.5800    0.0000 C   0  0  0  0  0  0  0  0  0  0  0  0
   -0.0406    4.0792    0.0000 C   0  0  0  0  0  0  0  0  0  0  0  0
   -1.3402    3.3300    0.0000 H   0  0  0  0  0  0  0  0  0  0  0  0
    1.2584    3.3275    0.0000 C   0  0  0  0  0  0  0  0  0  0  0  0
    2.5579    4.0767    0.0000 C   0  0  0  0  0  0  0  0  0  0  0  0
    3.6706    3.0675    0.0000 N   0  0  0  0  0  0  0  0  0  0  0  0
    5.1384    3.3767    0.0000 H   0  0  0  0  0  0  0  0  0  0  0  0
    3.0619    1.7008    0.0000 C   0  0  0  0  0  0  0  0  0  0  0  0
    3.8110    0.4013    0.0000 H   0  0  0  0  0  0  0  0  0  0  0  0
    1.5741    1.8589    0.0000 C   0  0  0  0  0  0  0  0  0  0  0  0
    0.5710    0.7436    0.0000 H   0  0  0  0  0  0  0  0  0  0  0  0
    2.5584    5.5775    0.0000 N   0  0  0  0  0  0  0  0  0  0  0  0
    1.2594    6.3292    0.0000 C   0  0  0  0  0  0  0  0  0  0  0  0
    1.2606    7.8292    0.0000 H   0  0  0  0  0  0  0  0  0  0  0  0
   -3.9366    8.7917    0.0000 C   0  0  0  0  0  0  0  0  0  0  0  0
   -3.9371    7.2917    0.0000 O   0  0  0  0  0  0  0  0  0  0  0  0
   -5.2354    9.5421    0.0000 N   0  0  0  0  0  0  0  0  0  0  0  0
   -5.2349   11.0421    0.0000 H   0  0  0  0  0  0  0  0  0  0  0  0
   -6.5346    8.7925    0.0000 S   0  0  0  0  0  0  0  0  0  0  0  0
   -5.5708    7.6431    0.0000 O   0  0  0  0  0  0  0  0  0  0  0  0
   -7.4992    7.6437    0.0000 O   0  0  0  0  0  0  0  0  0  0  0  0
   -7.8334    9.5429    0.0000 C   0  0  0  0  0  0  0  0  0  0  0  0
   -7.8332   11.0437    0.0000 C   0  0  0  0  0  0  0  0  0  0  0  0
   -6.5338   11.7931    0.0000 H   0  0  0  0  0  0  0  0  0  0  0  0
   -9.1324   11.7952    0.0000 C   0  0  0  0  0  0  0  0  0  0  0  0
   -9.1314   13.2952    0.0000 H   0  0  0  0  0  0  0  0  0  0  0  0
  -10.4318   11.0458    0.0000 C   0  0  0  0  0  0  0  0  0  0  0  0
  -10.4320    9.5450    0.0000 C   0  0  0  0  0  0  0  0  0  0  0  0
   -9.1328    8.7935    0.0000 C   0  0  0  0  0  0  0  0  0  0  0  0
   -9.1338    7.2935    0.0000 H   0  0  0  0  0  0  0  0  0  0  0  0
  -11.7314    8.7956    0.0000 N   0  0  0  0  0  0  0  0  0  0  0  0
  -13.0301    9.5462    0.0000 O   0  0  0  0  0  0  0  0  0  0  0  0
  -11.7321    7.2956    0.0000 O   0  0  0  0  0  0  0  0  0  0  0  0
  -11.7306   11.7962    0.0000 N   0  0  0  0  0  0  0  0  0  0  0  0
  -13.0298   11.0467    0.0000 H   0  0  0  0  0  0  0  0  0  0  0  0
  -11.7301   13.2962    0.0000 C   0  0  0  0  0  0  0  0  0  0  0  0
  -10.2529   13.0353    0.0000 H   0  0  0  0  0  0  0  0  0  0  0  0
  -11.2166   14.7056    0.0000 H   0  0  0  0  0  0  0  0  0  0  0  0
  -13.8601   14.5269    0.0000 C   0  0  0  0  0  0  0  0  0  0  0  0
  -14.3733   13.1174    0.0000 H   0  0  0  0  0  0  0  0  0  0  0  0
  -12.8948   15.6761    0.0000 C   0  0  0  0  0  0  0  0  0  0  0  0
  -11.5955   16.4257    0.0000 H   0  0  0  0  0  0  0  0  0  0  0  0
  -11.9311   14.5266    0.0000 H   0  0  0  0  0  0  0  0  0  0  0  0
  -13.4075   17.0858    0.0000 C   0  0  0  0  0  0  0  0  0  0  0  0
  -13.4075   18.5858    0.0000 H   0  0  0  0  0  0  0  0  0  0  0  0
  -11.9303   17.3461    0.0000 H   0  0  0  0  0  0  0  0  0  0  0  0
  -14.8856   17.3462    0.0000 O   0  0  0  0  0  0  0  0  0  0  0  0
  -15.8509   16.1970    0.0000 C   0  0  0  0  0  0  0  0  0  0  0  0
  -17.1502   15.4474    0.0000 H   0  0  0  0  0  0  0  0  0  0  0  0
  -16.8146   17.3465    0.0000 H   0  0  0  0  0  0  0  0  0  0  0  0
  -15.3382   14.7874    0.0000 C   0  0  0  0  0  0  0  0  0  0  0  0
  -15.3382   13.2874    0.0000 H   0  0  0  0  0  0  0  0  0  0  0  0
  -16.8154   14.5271    0.0000 H   0  0  0  0  0  0  0  0  0  0  0  0
    7.4132   11.9970    0.0000 O   0  0  0  0  0  0  0  0  0  0  0  0
    8.8904   11.7360    0.0000 H   0  0  0  0  0  0  0  0  0  0  0  0
  1  2  1  0  0  0  0 
  1  3  1  0  0  0  0 
  1  4  1  0  0  0  0 
  1  5  1  0  0  0  0 
  5  6  1  0  0  0  0 
  6  7  1  0  0  0  0 
  6  8  1  0  0  0  0 
  6  9  1  0  0  0  0 
  5 10  1  0  0  0  0 
 10 11  1  0  0  0  0 
 10 12  1  0  0  0  0 
 10 13  1  0  0  0  0 
 13 14  1  0  0  0  0 
 13 15  1  0  0  0  0 
 13 16  1  0  0  0  0 
 16 17  2  0  0  0  0 
 17 18  1  0  0  0  0 
  5 18  1  0  0  0  0 
 18 19  1  0  0  0  0 
 18 20  1  0  0  0  0 
 17 21  1  0  0  0  0 
 21 22  2  0  0  0  0 
 22 23  1  0  0  0  0 
 22 24  1  0  0  0  0 
 24 25  1  0  0  0  0 
 24 26  2  0  0  0  0 
 26 27  1  0  0  0  0 
 27 28  1  0  0  0  0 
 27 29  2  0  0  0  0 
 21 29  1  0  0  0  0 
 29 30  1  0  0  0  0 
 26 31  1  0  0  0  0 
 16 32  1  0  0  0  0 
 32 33  1  0  0  0  0 
 32 34  1  0  0  0  0 
 34 35  1  0  0  0  0 
 35 36  1  0  0  0  0 
 35 37  1  0  0  0  0 
 35 38  1  0  0  0  0 
 38 39  1  0  0  0  0 
 38 40  1  0  0  0  0 
 38 41  1  0  0  0  0 
 41 42  1  0  0  0  0 
 42 43  1  0  0  0  0 
 42 44  1  0  0  0  0 
 42 45  1  0  0  0  0 
 34 45  1  0  0  0  0 
 45 46  1  0  0  0  0 
 45 47  1  0  0  0  0 
 41 48  1  0  0  0  0 
 48 49  2  0  0  0  0 
 49 50  1  0  0  0  0 
 49 51  1  0  0  0  0 
 51 52  1  0  0  0  0 
 51 53  2  0  0  0  0 
 53 54  1  0  0  0  0 
 54 55  2  0  0  0  0 
 48 55  1  0  0  0  0 
 55 56  1  0  0  0  0 
 54 57  1  0  0  0  0 
 57 58  1  0  0  0  0 
 58 59  2  0  0  0  0 
 59 60  1  0  0  0  0 
 59 61  1  0  0  0  0 
 61 62  2  0  0  0  0 
 62 63  1  0  0  0  0 
 63 64  1  0  0  0  0 
 63 65  1  0  0  0  0 
 65 66  1  0  0  0  0 
 65 67  2  0  0  0  0 
 61 67  1  0  0  0  0 
 67 68  1  0  0  0  0 
 62 69  1  0  0  0  0 
 69 70  2  0  0  0  0 
 58 70  1  0  0  0  0 
 70 71  1  0  0  0  0 
 53 72  1  0  0  0  0 
 72 73  2  0  0  0  0 
 72 74  1  0  0  0  0 
 74 75  1  0  0  0  0 
 74 76  1  0  0  0  0 
 76 77  2  0  0  0  0 
 76 78  2  0  0  0  0 
 76 79  1  0  0  0  0 
 79 80  2  0  0  0  0 
 80 81  1  0  0  0  0 
 80 82  1  0  0  0  0 
 82 83  1  0  0  0  0 
 82 84  2  0  0  0  0 
 84 85  1  0  0  0  0 
 85 86  2  0  0  0  0 
 79 86  1  0  0  0  0 
 86 87  1  0  0  0  0 
 85 88  1  0  0  0  0 
 88 89  2  0  0  0  0 
 88 90  1  0  0  0  0 
 84 91  1  0  0  0  0 
 91 92  1  0  0  0  0 
 91 93  1  0  0  0  0 
 93 94  1  0  0  0  0 
 93 95  1  0  0  0  0 
 93 96  1  0  0  0  0 
 96 97  1  0  0  0  0 
 96 98  1  0  0  0  0 
 98 99  1  0  0  0  0 
 98100  1  0  0  0  0 
 98101  1  0  0  0  0 
101102  1  0  0  0  0 
101103  1  0  0  0  0 
101104  1  0  0  0  0 
104105  1  0  0  0  0 
105106  1  0  0  0  0 
105107  1  0  0  0  0 
105108  1  0  0  0  0 
 96108  1  0  0  0  0 
108109  1  0  0  0  0 
108110  1  0  0  0  0 
 32111  1  0  0  0  0 
111112  1  0  0  0  0 
M  CHG  1  88   1
M  CHG  1  90  -1
M  END
> <Rank>
18

> <Priority_score>
0.164

> <Reaction_type>
aliphatic hydroxylation

> <Parent_ID>
12

> <Parent_InChI>
InChI=1S/C45H50ClN7O7S/c1-45(2)15-11-33(39(26-45)31-3-5-34(46)6-4-31)29-51-17-19-52(20-18-51)35-7-9-38(42(24-35)60-36-23-32-12-16-47-43(32)49-28-36)44(54)50-61(57,58)37-8-10-40(41(25-37)53(55)56)48-27-30-13-21-59-22-14-30/h3-10,12,16,23-25,28,30,48H,11,13-15,17-22,26-27,29H2,1-2H3,(H,47,49)(H,50,54)

> <Parent_SMILES>
CC1(C)CCC(CN2CCN(c3ccc(C(=O)NS(=O)(=O)c4ccc(NCC5CCOCC5)c([N+](=O)[O-])c4)c(Oc4cnc5[nH]ccc5c4)c3)CC2)=C(c2ccc(Cl)cc2)C1

$$$$
Molecule 12_metabolite 22
  CDK     0516241031

 78 83  0  0  0  0  0  0  0  0999 V2000
   -4.0737   -1.2311    0.0000 C   0  0  0  0  0  0  0  0  0  0  0  0
   -2.7746   -1.9809    0.0000 H   0  0  0  0  0  0  0  0  0  0  0  0
   -4.0742    0.2697    0.0000 C   0  0  0  0  0  0  0  0  0  0  0  0
   -5.3737    1.0205    0.0000 C   0  0  0  0  0  0  0  0  0  0  0  0
   -5.3735    2.5205    0.0000 H   0  0  0  0  0  0  0  0  0  0  0  0
   -6.6728    0.2705    0.0000 C   0  0  0  0  0  0  0  0  0  0  0  0
   -6.6723   -1.2303    0.0000 C   0  0  0  0  0  0  0  0  0  0  0  0
   -5.3728   -1.9811    0.0000 C   0  0  0  0  0  0  0  0  0  0  0  0
   -5.3730   -3.4811    0.0000 H   0  0  0  0  0  0  0  0  0  0  0  0
   -7.9713   -1.9803    0.0000 C   0  0  0  0  0  0  0  0  0  0  0  0
   -9.2704   -1.2303    0.0000 O   0  0  0  0  0  0  0  0  0  0  0  0
   -7.9713   -3.4803    0.0000 N   0  0  0  0  0  0  0  0  0  0  0  0
   -9.2704   -4.2303    0.0000 H   0  0  0  0  0  0  0  0  0  0  0  0
   -6.6723   -4.2303    0.0000 S   0  0  0  0  0  0  0  0  0  0  0  0
   -6.1593   -2.8207    0.0000 O   0  0  0  0  0  0  0  0  0  0  0  0
   -5.1951   -4.4908    0.0000 O   0  0  0  0  0  0  0  0  0  0  0  0
   -6.6723   -5.7303    0.0000 C   0  0  0  0  0  0  0  0  0  0  0  0
   -7.9719   -6.4809    0.0000 C   0  0  0  0  0  0  0  0  0  0  0  0
   -9.2708   -5.7307    0.0000 H   0  0  0  0  0  0  0  0  0  0  0  0
   -7.9726   -7.9817    0.0000 C   0  0  0  0  0  0  0  0  0  0  0  0
   -9.2719   -8.7313    0.0000 H   0  0  0  0  0  0  0  0  0  0  0  0
   -6.6737   -8.7319    0.0000 C   0  0  0  0  0  0  0  0  0  0  0  0
   -5.3741   -7.9813    0.0000 C   0  0  0  0  0  0  0  0  0  0  0  0
   -5.3734   -6.4805    0.0000 C   0  0  0  0  0  0  0  0  0  0  0  0
   -4.0741   -5.7309    0.0000 H   0  0  0  0  0  0  0  0  0  0  0  0
   -4.0752   -8.7315    0.0000 N   0  0  0  0  0  0  0  0  0  0  0  0
   -4.0754  -10.2315    0.0000 O   0  0  0  0  0  0  0  0  0  0  0  0
   -2.7760   -7.9817    0.0000 O   0  0  0  0  0  0  0  0  0  0  0  0
   -6.6737  -10.2319    0.0000 N   0  0  0  0  0  0  0  0  0  0  0  0
   -5.3747  -10.9819    0.0000 H   0  0  0  0  0  0  0  0  0  0  0  0
   -7.9728  -10.9819    0.0000 C   0  0  0  0  0  0  0  0  0  0  0  0
   -8.4858   -9.5724    0.0000 H   0  0  0  0  0  0  0  0  0  0  0  0
   -9.4500  -11.2424    0.0000 H   0  0  0  0  0  0  0  0  0  0  0  0
   -7.9728  -13.9219    0.0000 C   0  0  0  0  0  0  0  0  0  0  0  0
   -6.4956  -13.6612    0.0000 H   0  0  0  0  0  0  0  0  0  0  0  0
   -9.4507  -13.6610    0.0000 C   0  0  0  0  0  0  0  0  0  0  0  0
  -10.7498  -12.9110    0.0000 H   0  0  0  0  0  0  0  0  0  0  0  0
   -8.9376  -12.2515    0.0000 H   0  0  0  0  0  0  0  0  0  0  0  0
  -10.4148  -14.8102    0.0000 C   0  0  0  0  0  0  0  0  0  0  0  0
  -11.7136  -15.5606    0.0000 H   0  0  0  0  0  0  0  0  0  0  0  0
  -11.3792  -13.6613    0.0000 H   0  0  0  0  0  0  0  0  0  0  0  0
   -9.9009  -16.2203    0.0000 O   0  0  0  0  0  0  0  0  0  0  0  0
   -8.4229  -16.4812    0.0000 C   0  0  0  0  0  0  0  0  0  0  0  0
   -7.1239  -17.2312    0.0000 H   0  0  0  0  0  0  0  0  0  0  0  0
   -8.9361  -17.8907    0.0000 H   0  0  0  0  0  0  0  0  0  0  0  0
   -7.4588  -15.3321    0.0000 C   0  0  0  0  0  0  0  0  0  0  0  0
   -6.1601  -14.5816    0.0000 H   0  0  0  0  0  0  0  0  0  0  0  0
   -6.4944  -16.4809    0.0000 H   0  0  0  0  0  0  0  0  0  0  0  0
   -8.8034    1.5002    0.0000 O   0  0  0  0  0  0  0  0  0  0  0  0
   -8.8036    3.0002    0.0000 C   0  0  0  0  0  0  0  0  0  0  0  0
  -10.1034    3.7506    0.0000 C   0  0  0  0  0  0  0  0  0  0  0  0
  -11.4022    3.0002    0.0000 H   0  0  0  0  0  0  0  0  0  0  0  0
  -10.1043    5.2515    0.0000 C   0  0  0  0  0  0  0  0  0  0  0  0
   -8.8056    6.0019    0.0000 C   0  0  0  0  0  0  0  0  0  0  0  0
   -9.1227    7.4702    0.0000 N   0  0  0  0  0  0  0  0  0  0  0  0
   -8.1207    8.5865    0.0000 H   0  0  0  0  0  0  0  0  0  0  0  0
  -10.6106    7.6268    0.0000 C   0  0  0  0  0  0  0  0  0  0  0  0
  -11.3610    8.9256    0.0000 H   0  0  0  0  0  0  0  0  0  0  0  0
  -11.2180    6.2595    0.0000 C   0  0  0  0  0  0  0  0  0  0  0  0
  -12.6855    5.9490    0.0000 H   0  0  0  0  0  0  0  0  0  0  0  0
   -7.5058    5.2515    0.0000 N   0  0  0  0  0  0  0  0  0  0  0  0
   -7.5048    3.7506    0.0000 C   0  0  0  0  0  0  0  0  0  0  0  0
   -6.2054    3.0012    0.0000 H   0  0  0  0  0  0  0  0  0  0  0  0
   -2.7752    1.0197    0.0000 N   0  0  0  0  0  0  0  0  0  0  0  0
   -1.4757    0.2689    0.0000 C   0  0  0  0  0  0  0  0  0  0  0  0
   -0.5116   -0.8803    0.0000 H   0  0  0  0  0  0  0  0  0  0  0  0
   -2.4401   -0.8800    0.0000 H   0  0  0  0  0  0  0  0  0  0  0  0
   -0.1766    1.0189    0.0000 C   0  0  0  0  0  0  0  0  0  0  0  0
    1.3005    1.2797    0.0000 H   0  0  0  0  0  0  0  0  0  0  0  0
    0.3366   -0.3906    0.0000 H   0  0  0  0  0  0  0  0  0  0  0  0
   -0.1771    2.5197    0.0000 N   0  0  0  0  0  0  0  0  0  0  0  0
    1.1219    3.2697    0.0000 H   0  0  0  0  0  0  0  0  0  0  0  0
   -1.4766    3.2705    0.0000 C   0  0  0  0  0  0  0  0  0  0  0  0
   -2.4407    4.4197    0.0000 H   0  0  0  0  0  0  0  0  0  0  0  0
   -0.5122    4.4194    0.0000 H   0  0  0  0  0  0  0  0  0  0  0  0
   -2.7757    2.5205    0.0000 C   0  0  0  0  0  0  0  0  0  0  0  0
   -4.2528    2.2598    0.0000 H   0  0  0  0  0  0  0  0  0  0  0  0
   -3.2888    3.9300    0.0000 H   0  0  0  0  0  0  0  0  0  0  0  0
  1  2  1  0  0  0  0 
  1  3  2  0  0  0  0 
  3  4  1  0  0  0  0 
  4  5  1  0  0  0  0 
  4  6  2  0  0  0  0 
  6  7  1  0  0  0  0 
  7  8  2  0  0  0  0 
  1  8  1  0  0  0  0 
  8  9  1  0  0  0  0 
  7 10  1  0  0  0  0 
 10 11  2  0  0  0  0 
 10 12  1  0  0  0  0 
 12 13  1  0  0  0  0 
 12 14  1  0  0  0  0 
 14 15  2  0  0  0  0 
 14 16  2  0  0  0  0 
 14 17  1  0  0  0  0 
 17 18  2  0  0  0  0 
 18 19  1  0  0  0  0 
 18 20  1  0  0  0  0 
 20 21  1  0  0  0  0 
 20 22  2  0  0  0  0 
 22 23  1  0  0  0  0 
 23 24  2  0  0  0  0 
 17 24  1  0  0  0  0 
 24 25  1  0  0  0  0 
 23 26  1  0  0  0  0 
 26 27  2  0  0  0  0 
 26 28  1  0  0  0  0 
 22 29  1  0  0  0  0 
 29 30  1  0  0  0  0 
 29 31  1  0  0  0  0 
 31 32  1  0  0  0  0 
 31 33  1  0  0  0  0 
 31 34  1  0  0  0  0 
 34 35  1  0  0  0  0 
 34 36  1  0  0  0  0 
 36 37  1  0  0  0  0 
 36 38  1  0  0  0  0 
 36 39  1  0  0  0  0 
 39 40  1  0  0  0  0 
 39 41  1  0  0  0  0 
 39 42  1  0  0  0  0 
 42 43  1  0  0  0  0 
 43 44  1  0  0  0  0 
 43 45  1  0  0  0  0 
 43 46  1  0  0  0  0 
 34 46  1  0  0  0  0 
 46 47  1  0  0  0  0 
 46 48  1  0  0  0  0 
  6 49  1  0  0  0  0 
 49 50  1  0  0  0  0 
 50 51  2  0  0  0  0 
 51 52  1  0  0  0  0 
 51 53  1  0  0  0  0 
 53 54  2  0  0  0  0 
 54 55  1  0  0  0  0 
 55 56  1  0  0  0  0 
 55 57  1  0  0  0  0 
 57 58  1  0  0  0  0 
 57 59  2  0  0  0  0 
 53 59  1  0  0  0  0 
 59 60  1  0  0  0  0 
 54 61  1  0  0  0  0 
 61 62  2  0  0  0  0 
 50 62  1  0  0  0  0 
 62 63  1  0  0  0  0 
  3 64  1  0  0  0  0 
 64 65  1  0  0  0  0 
 65 66  1  0  0  0  0 
 65 67  1  0  0  0  0 
 65 68  1  0  0  0  0 
 68 69  1  0  0  0  0 
 68 70  1  0  0  0  0 
 68 71  1  0  0  0  0 
 71 72  1  0  0  0  0 
 71 73  1  0  0  0  0 
 73 74  1  0  0  0  0 
 73 75  1  0  0  0  0 
 73 76  1  0  0  0  0 
 64 76  1  0  0  0  0 
 76 77  1  0  0  0  0 
 76 78  1  0  0  0  0 
M  CHG  1  26   1
M  CHG  1  28  -1
M  END
> <Rank>
18

> <Priority_score>
0.164

> <Reaction_type>
N-dealkylation_(tertiaryN-CH2-alkyl)

> <Parent_ID>
12

> <Parent_InChI>
InChI=1S/C45H50ClN7O7S/c1-45(2)15-11-33(39(26-45)31-3-5-34(46)6-4-31)29-51-17-19-52(20-18-51)35-7-9-38(42(24-35)60-36-23-32-12-16-47-43(32)49-28-36)44(54)50-61(57,58)37-8-10-40(41(25-37)53(55)56)48-27-30-13-21-59-22-14-30/h3-10,12,16,23-25,28,30,48H,11,13-15,17-22,26-27,29H2,1-2H3,(H,47,49)(H,50,54)

> <Parent_SMILES>
CC1(C)CCC(CN2CCN(c3ccc(C(=O)NS(=O)(=O)c4ccc(NCC5CCOCC5)c([N+](=O)[O-])c4)c(Oc4cnc5[nH]ccc5c4)c3)CC2)=C(c2ccc(Cl)cc2)C1

$$$$
Molecule 12_metabolite 23
  CDK     0516241031

 36 37  0  0  0  0  0  0  0  0999 V2000
    6.2732   -2.2382    0.0000 C   0  0  0  0  0  0  0  0  0  0  0  0
    6.7859   -3.6478    0.0000 H   0  0  0  0  0  0  0  0  0  0  0  0
    6.2735   -0.7382    0.0000 H   0  0  0  0  0  0  0  0  0  0  0  0
    7.7504   -1.9780    0.0000 H   0  0  0  0  0  0  0  0  0  0  0  0
    3.8506   -1.8105    0.0000 C   0  0  0  0  0  0  0  0  0  0  0  0
    4.5280    0.0500    0.0000 C   0  0  0  0  0  0  0  0  0  0  0  0
    6.0053    0.3103    0.0000 H   0  0  0  0  0  0  0  0  0  0  0  0
    4.5282    1.5500    0.0000 H   0  0  0  0  0  0  0  0  0  0  0  0
    2.5781    0.3940    0.0000 H   0  0  0  0  0  0  0  0  0  0  0  0
    3.8501   -3.3113    0.0000 C   0  0  0  0  0  0  0  0  0  0  0  0
    4.3633   -4.7208    0.0000 H   0  0  0  0  0  0  0  0  0  0  0  0
    5.3274   -3.0510    0.0000 H   0  0  0  0  0  0  0  0  0  0  0  0
    2.5506   -4.0622    0.0000 C   0  0  0  0  0  0  0  0  0  0  0  0
    1.5866   -5.2113    0.0000 H   0  0  0  0  0  0  0  0  0  0  0  0
    3.5150   -5.2110    0.0000 H   0  0  0  0  0  0  0  0  0  0  0  0
    1.2516   -3.3122    0.0000 C   0  0  0  0  0  0  0  0  0  0  0  0
    1.2521   -1.8113    0.0000 C   0  0  0  0  0  0  0  0  0  0  0  0
    2.5516   -1.0605    0.0000 C   0  0  0  0  0  0  0  0  0  0  0  0
    3.5156    0.0887    0.0000 H   0  0  0  0  0  0  0  0  0  0  0  0
    1.5872    0.0884    0.0000 H   0  0  0  0  0  0  0  0  0  0  0  0
   -0.0470   -1.0613    0.0000 C   0  0  0  0  0  0  0  0  0  0  0  0
   -0.0490    0.4222    0.0000 C   0  0  0  0  0  0  0  0  0  0  0  0
    1.2514    1.1698    0.0000 H   0  0  0  0  0  0  0  0  0  0  0  0
   -1.3443    1.1787    0.0000 C   0  0  0  0  0  0  0  0  0  0  0  0
   -1.3276    2.6786    0.0000 H   0  0  0  0  0  0  0  0  0  0  0  0
   -2.6461    0.4567    0.0000 C   0  0  0  0  0  0  0  0  0  0  0  0
   -2.6505   -1.0578    0.0000 C   0  0  0  0  0  0  0  0  0  0  0  0
   -3.9526   -1.8026    0.0000 H   0  0  0  0  0  0  0  0  0  0  0  0
   -1.3553   -1.8143    0.0000 C   0  0  0  0  0  0  0  0  0  0  0  0
   -1.3601   -3.3143    0.0000 H   0  0  0  0  0  0  0  0  0  0  0  0
   -3.9375    1.2198    0.0000 Cl  0  0  0  0  0  0  0  0  0  0  0  0
   -0.0476   -4.0620    0.0000 C   0  0  0  0  0  0  0  0  0  0  0  0
   -0.5604   -2.6523    0.0000 H   0  0  0  0  0  0  0  0  0  0  0  0
   -1.5248   -4.3222    0.0000 H   0  0  0  0  0  0  0  0  0  0  0  0
   -0.0478   -5.5620    0.0000 O   0  0  0  0  0  0  0  0  0  0  0  0
   -1.3470   -6.3118    0.0000 H   0  0  0  0  0  0  0  0  0  0  0  0
  1  2  1  0  0  0  0 
  1  3  1  0  0  0  0 
  1  4  1  0  0  0  0 
  1  5  1  0  0  0  0 
  5  6  1  0  0  0  0 
  6  7  1  0  0  0  0 
  6  8  1  0  0  0  0 
  6  9  1  0  0  0  0 
  5 10  1  0  0  0  0 
 10 11  1  0  0  0  0 
 10 12  1  0  0  0  0 
 10 13  1  0  0  0  0 
 13 14  1  0  0  0  0 
 13 15  1  0  0  0  0 
 13 16  1  0  0  0  0 
 16 17  2  0  0  0  0 
 17 18  1  0  0  0  0 
  5 18  1  0  0  0  0 
 18 19  1  0  0  0  0 
 18 20  1  0  0  0  0 
 17 21  1  0  0  0  0 
 21 22  2  0  0  0  0 
 22 23  1  0  0  0  0 
 22 24  1  0  0  0  0 
 24 25  1  0  0  0  0 
 24 26  2  0  0  0  0 
 26 27  1  0  0  0  0 
 27 28  1  0  0  0  0 
 27 29  2  0  0  0  0 
 21 29  1  0  0  0  0 
 29 30  1  0  0  0  0 
 26 31  1  0  0  0  0 
 16 32  1  0  0  0  0 
 32 33  1  0  0  0  0 
 32 34  1  0  0  0  0 
 32 35  1  0  0  0  0 
 35 36  1  0  0  0  0 
M  END
> <Rank>
18

> <Priority_score>
0.164

> <Reaction_type>
N-dealkylation_(tertiaryN-CH2-alkyl)

> <Parent_ID>
12

> <Parent_InChI>
InChI=1S/C45H50ClN7O7S/c1-45(2)15-11-33(39(26-45)31-3-5-34(46)6-4-31)29-51-17-19-52(20-18-51)35-7-9-38(42(24-35)60-36-23-32-12-16-47-43(32)49-28-36)44(54)50-61(57,58)37-8-10-40(41(25-37)53(55)56)48-27-30-13-21-59-22-14-30/h3-10,12,16,23-25,28,30,48H,11,13-15,17-22,26-27,29H2,1-2H3,(H,47,49)(H,50,54)

> <Parent_SMILES>
CC1(C)CCC(CN2CCN(c3ccc(C(=O)NS(=O)(=O)c4ccc(NCC5CCOCC5)c([N+](=O)[O-])c4)c(Oc4cnc5[nH]ccc5c4)c3)CC2)=C(c2ccc(Cl)cc2)C1

$$$$
Molecule 12_metabolite 24
  CDK     0516241031

112119  0  0  0  0  0  0  0  0999 V2000
    4.0755   19.0737    0.0000 C   0  0  0  0  0  0  0  0  0  0  0  0
    2.5982   18.8136    0.0000 H   0  0  0  0  0  0  0  0  0  0  0  0
    5.3747   19.8233    0.0000 H   0  0  0  0  0  0  0  0  0  0  0  0
    3.5628   20.4833    0.0000 H   0  0  0  0  0  0  0  0  0  0  0  0
    5.6562   17.1888    0.0000 C   0  0  0  0  0  0  0  0  0  0  0  0
    7.2382   19.0726    0.0000 C   0  0  0  0  0  0  0  0  0  0  0  0
    6.7257   20.4824    0.0000 H   0  0  0  0  0  0  0  0  0  0  0  0
    8.5375   19.8222    0.0000 H   0  0  0  0  0  0  0  0  0  0  0  0
    8.2019   17.9232    0.0000 H   0  0  0  0  0  0  0  0  0  0  0  0
    4.3563   16.4386    0.0000 C   0  0  0  0  0  0  0  0  0  0  0  0
    2.8790   16.1789    0.0000 H   0  0  0  0  0  0  0  0  0  0  0  0
    3.8438   17.8483    0.0000 H   0  0  0  0  0  0  0  0  0  0  0  0
    4.3551   14.9377    0.0000 C   0  0  0  0  0  0  0  0  0  0  0  0
    3.6768   13.0775    0.0000 H   0  0  0  0  0  0  0  0  0  0  0  0
    2.8781   15.1992    0.0000 H   0  0  0  0  0  0  0  0  0  0  0  0
    5.6538   14.1871    0.0000 C   0  0  0  0  0  0  0  0  0  0  0  0
    6.9537   14.9373    0.0000 C   0  0  0  0  0  0  0  0  0  0  0  0
    6.9549   16.4381    0.0000 C   0  0  0  0  0  0  0  0  0  0  0  0
    7.4688   17.8474    0.0000 H   0  0  0  0  0  0  0  0  0  0  0  0
    8.4319   16.1766    0.0000 H   0  0  0  0  0  0  0  0  0  0  0  0
    8.2524   14.1867    0.0000 C   0  0  0  0  0  0  0  0  0  0  0  0
    9.5386   14.9260    0.0000 C   0  0  0  0  0  0  0  0  0  0  0  0
    9.5365   16.4260    0.0000 H   0  0  0  0  0  0  0  0  0  0  0  0
   10.8410   14.1819    0.0000 C   0  0  0  0  0  0  0  0  0  0  0  0
   12.1320   14.9457    0.0000 H   0  0  0  0  0  0  0  0  0  0  0  0
   10.8659   12.6935    0.0000 C   0  0  0  0  0  0  0  0  0  0  0  0
    9.5562   11.9331    0.0000 C   0  0  0  0  0  0  0  0  0  0  0  0
    9.5614   10.4331    0.0000 H   0  0  0  0  0  0  0  0  0  0  0  0
    8.2538   12.6772    0.0000 C   0  0  0  0  0  0  0  0  0  0  0  0
    6.9568   11.9236    0.0000 H   0  0  0  0  0  0  0  0  0  0  0  0
   12.1721   11.9560    0.0000 Cl  0  0  0  0  0  0  0  0  0  0  0  0
    5.6533   12.6871    0.0000 C   0  0  0  0  0  0  0  0  0  0  0  0
    7.1306   12.9471    0.0000 H   0  0  0  0  0  0  0  0  0  0  0  0
    6.1659   11.2774    0.0000 H   0  0  0  0  0  0  0  0  0  0  0  0
    3.1068   11.2179    0.0000 N   0  0  0  0  0  0  0  0  0  0  0  0
    3.1060    9.7171    0.0000 C   0  0  0  0  0  0  0  0  0  0  0  0
    4.5833    9.9772    0.0000 H   0  0  0  0  0  0  0  0  0  0  0  0
    3.6190    8.3075    0.0000 H   0  0  0  0  0  0  0  0  0  0  0  0
    1.8064    8.9665    0.0000 C   0  0  0  0  0  0  0  0  0  0  0  0
    2.7706    7.8174    0.0000 H   0  0  0  0  0  0  0  0  0  0  0  0
    0.8422    7.8174    0.0000 H   0  0  0  0  0  0  0  0  0  0  0  0
    0.5075    9.7167    0.0000 N   0  0  0  0  0  0  0  0  0  0  0  0
    0.5082   11.2175    0.0000 C   0  0  0  0  0  0  0  0  0  0  0  0
   -0.9691   10.9574    0.0000 H   0  0  0  0  0  0  0  0  0  0  0  0
   -0.0048   12.6271    0.0000 H   0  0  0  0  0  0  0  0  0  0  0  0
    1.8078   11.9681    0.0000 C   0  0  0  0  0  0  0  0  0  0  0  0
    0.8436   13.1171    0.0000 H   0  0  0  0  0  0  0  0  0  0  0  0
    2.7721   13.1171    0.0000 H   0  0  0  0  0  0  0  0  0  0  0  0
   -0.7918    8.9671    0.0000 C   0  0  0  0  0  0  0  0  0  0  0  0
   -2.0914    9.7177    0.0000 C   0  0  0  0  0  0  0  0  0  0  0  0
   -2.0907   11.2177    0.0000 H   0  0  0  0  0  0  0  0  0  0  0  0
   -3.3918    8.9683    0.0000 C   0  0  0  0  0  0  0  0  0  0  0  0
   -4.6904    9.7192    0.0000 H   0  0  0  0  0  0  0  0  0  0  0  0
   -3.3925    7.4683    0.0000 C   0  0  0  0  0  0  0  0  0  0  0  0
   -2.0929    6.7177    0.0000 C   0  0  0  0  0  0  0  0  0  0  0  0
   -0.7925    7.4671    0.0000 C   0  0  0  0  0  0  0  0  0  0  0  0
    0.5060    6.7162    0.0000 H   0  0  0  0  0  0  0  0  0  0  0  0
   -2.0941    4.2577    0.0000 O   0  0  0  0  0  0  0  0  0  0  0  0
   -0.7954    3.5071    0.0000 C   0  0  0  0  0  0  0  0  0  0  0  0
   -0.7959    2.0062    0.0000 C   0  0  0  0  0  0  0  0  0  0  0  0
   -2.0954    1.2571    0.0000 H   0  0  0  0  0  0  0  0  0  0  0  0
    0.5032    1.2546    0.0000 C   0  0  0  0  0  0  0  0  0  0  0  0
    1.8027    2.0037    0.0000 C   0  0  0  0  0  0  0  0  0  0  0  0
    2.9154    0.9946    0.0000 N   0  0  0  0  0  0  0  0  0  0  0  0
    4.3832    1.3037    0.0000 H   0  0  0  0  0  0  0  0  0  0  0  0
    2.3066   -0.3721    0.0000 C   0  0  0  0  0  0  0  0  0  0  0  0
    3.0558   -1.6716    0.0000 H   0  0  0  0  0  0  0  0  0  0  0  0
    0.8189   -0.2140    0.0000 C   0  0  0  0  0  0  0  0  0  0  0  0
   -0.1842   -1.3293    0.0000 H   0  0  0  0  0  0  0  0  0  0  0  0
    1.8032    3.5046    0.0000 N   0  0  0  0  0  0  0  0  0  0  0  0
    0.5041    4.2562    0.0000 C   0  0  0  0  0  0  0  0  0  0  0  0
    0.5053    5.7562    0.0000 H   0  0  0  0  0  0  0  0  0  0  0  0
   -4.6918    6.7187    0.0000 C   0  0  0  0  0  0  0  0  0  0  0  0
   -4.6923    5.2187    0.0000 O   0  0  0  0  0  0  0  0  0  0  0  0
   -5.9906    7.4692    0.0000 N   0  0  0  0  0  0  0  0  0  0  0  0
   -5.9901    8.9692    0.0000 H   0  0  0  0  0  0  0  0  0  0  0  0
   -7.2899    6.7196    0.0000 S   0  0  0  0  0  0  0  0  0  0  0  0
   -6.3261    5.5702    0.0000 O   0  0  0  0  0  0  0  0  0  0  0  0
   -8.2544    5.5708    0.0000 O   0  0  0  0  0  0  0  0  0  0  0  0
   -8.5887    7.4700    0.0000 C   0  0  0  0  0  0  0  0  0  0  0  0
   -8.5884    8.9708    0.0000 C   0  0  0  0  0  0  0  0  0  0  0  0
   -7.2890    9.7202    0.0000 H   0  0  0  0  0  0  0  0  0  0  0  0
   -9.8876    9.7223    0.0000 C   0  0  0  0  0  0  0  0  0  0  0  0
   -9.8866   11.2223    0.0000 H   0  0  0  0  0  0  0  0  0  0  0  0
  -11.1870    8.9729    0.0000 C   0  0  0  0  0  0  0  0  0  0  0  0
  -11.1872    7.4721    0.0000 C   0  0  0  0  0  0  0  0  0  0  0  0
   -9.8881    6.7206    0.0000 C   0  0  0  0  0  0  0  0  0  0  0  0
   -9.8890    5.2206    0.0000 H   0  0  0  0  0  0  0  0  0  0  0  0
  -12.4866    6.7227    0.0000 N   0  0  0  0  0  0  0  0  0  0  0  0
  -13.7853    7.4733    0.0000 O   0  0  0  0  0  0  0  0  0  0  0  0
  -12.4874    5.2227    0.0000 O   0  0  0  0  0  0  0  0  0  0  0  0
  -12.4858    9.7233    0.0000 N   0  0  0  0  0  0  0  0  0  0  0  0
  -13.7851    8.9737    0.0000 H   0  0  0  0  0  0  0  0  0  0  0  0
  -12.4853   11.2233    0.0000 C   0  0  0  0  0  0  0  0  0  0  0  0
  -11.0082   10.9624    0.0000 H   0  0  0  0  0  0  0  0  0  0  0  0
  -11.9718   12.6327    0.0000 H   0  0  0  0  0  0  0  0  0  0  0  0
  -14.6153   12.4540    0.0000 C   0  0  0  0  0  0  0  0  0  0  0  0
  -15.1285   11.0445    0.0000 H   0  0  0  0  0  0  0  0  0  0  0  0
  -13.6500   13.6032    0.0000 C   0  0  0  0  0  0  0  0  0  0  0  0
  -12.3507   14.3528    0.0000 H   0  0  0  0  0  0  0  0  0  0  0  0
  -12.6863   12.4537    0.0000 H   0  0  0  0  0  0  0  0  0  0  0  0
  -14.1627   15.0128    0.0000 C   0  0  0  0  0  0  0  0  0  0  0  0
  -14.1627   16.5128    0.0000 H   0  0  0  0  0  0  0  0  0  0  0  0
  -12.6855   15.2732    0.0000 H   0  0  0  0  0  0  0  0  0  0  0  0
  -15.6408   15.2733    0.0000 O   0  0  0  0  0  0  0  0  0  0  0  0
  -16.6061   14.1241    0.0000 C   0  0  0  0  0  0  0  0  0  0  0  0
  -17.9054   13.3745    0.0000 H   0  0  0  0  0  0  0  0  0  0  0  0
  -17.5698   15.2736    0.0000 H   0  0  0  0  0  0  0  0  0  0  0  0
  -16.0934   12.7145    0.0000 C   0  0  0  0  0  0  0  0  0  0  0  0
  -16.0934   11.2145    0.0000 H   0  0  0  0  0  0  0  0  0  0  0  0
  -17.5706   12.4541    0.0000 O   0  0  0  0  0  0  0  0  0  0  0  0
  -18.0838   11.0447    0.0000 H   0  0  0  0  0  0  0  0  0  0  0  0
  1  2  1  0  0  0  0 
  1  3  1  0  0  0  0 
  1  4  1  0  0  0  0 
  1  5  1  0  0  0  0 
  5  6  1  0  0  0  0 
  6  7  1  0  0  0  0 
  6  8  1  0  0  0  0 
  6  9  1  0  0  0  0 
  5 10  1  0  0  0  0 
 10 11  1  0  0  0  0 
 10 12  1  0  0  0  0 
 10 13  1  0  0  0  0 
 13 14  1  0  0  0  0 
 13 15  1  0  0  0  0 
 13 16  1  0  0  0  0 
 16 17  2  0  0  0  0 
 17 18  1  0  0  0  0 
  5 18  1  0  0  0  0 
 18 19  1  0  0  0  0 
 18 20  1  0  0  0  0 
 17 21  1  0  0  0  0 
 21 22  2  0  0  0  0 
 22 23  1  0  0  0  0 
 22 24  1  0  0  0  0 
 24 25  1  0  0  0  0 
 24 26  2  0  0  0  0 
 26 27  1  0  0  0  0 
 27 28  1  0  0  0  0 
 27 29  2  0  0  0  0 
 21 29  1  0  0  0  0 
 29 30  1  0  0  0  0 
 26 31  1  0  0  0  0 
 16 32  1  0  0  0  0 
 32 33  1  0  0  0  0 
 32 34  1  0  0  0  0 
 32 35  1  0  0  0  0 
 35 36  1  0  0  0  0 
 36 37  1  0  0  0  0 
 36 38  1  0  0  0  0 
 36 39  1  0  0  0  0 
 39 40  1  0  0  0  0 
 39 41  1  0  0  0  0 
 39 42  1  0  0  0  0 
 42 43  1  0  0  0  0 
 43 44  1  0  0  0  0 
 43 45  1  0  0  0  0 
 43 46  1  0  0  0  0 
 35 46  1  0  0  0  0 
 46 47  1  0  0  0  0 
 46 48  1  0  0  0  0 
 42 49  1  0  0  0  0 
 49 50  2  0  0  0  0 
 50 51  1  0  0  0  0 
 50 52  1  0  0  0  0 
 52 53  1  0  0  0  0 
 52 54  2  0  0  0  0 
 54 55  1  0  0  0  0 
 55 56  2  0  0  0  0 
 49 56  1  0  0  0  0 
 56 57  1  0  0  0  0 
 55 58  1  0  0  0  0 
 58 59  1  0  0  0  0 
 59 60  2  0  0  0  0 
 60 61  1  0  0  0  0 
 60 62  1  0  0  0  0 
 62 63  2  0  0  0  0 
 63 64  1  0  0  0  0 
 64 65  1  0  0  0  0 
 64 66  1  0  0  0  0 
 66 67  1  0  0  0  0 
 66 68  2  0  0  0  0 
 62 68  1  0  0  0  0 
 68 69  1  0  0  0  0 
 63 70  1  0  0  0  0 
 70 71  2  0  0  0  0 
 59 71  1  0  0  0  0 
 71 72  1  0  0  0  0 
 54 73  1  0  0  0  0 
 73 74  2  0  0  0  0 
 73 75  1  0  0  0  0 
 75 76  1  0  0  0  0 
 75 77  1  0  0  0  0 
 77 78  2  0  0  0  0 
 77 79  2  0  0  0  0 
 77 80  1  0  0  0  0 
 80 81  2  0  0  0  0 
 81 82  1  0  0  0  0 
 81 83  1  0  0  0  0 
 83 84  1  0  0  0  0 
 83 85  2  0  0  0  0 
 85 86  1  0  0  0  0 
 86 87  2  0  0  0  0 
 80 87  1  0  0  0  0 
 87 88  1  0  0  0  0 
 86 89  1  0  0  0  0 
 89 90  2  0  0  0  0 
 89 91  1  0  0  0  0 
 85 92  1  0  0  0  0 
 92 93  1  0  0  0  0 
 92 94  1  0  0  0  0 
 94 95  1  0  0  0  0 
 94 96  1  0  0  0  0 
 94 97  1  0  0  0  0 
 97 98  1  0  0  0  0 
 97 99  1  0  0  0  0 
 99100  1  0  0  0  0 
 99101  1  0  0  0  0 
 99102  1  0  0  0  0 
102103  1  0  0  0  0 
102104  1  0  0  0  0 
102105  1  0  0  0  0 
105106  1  0  0  0  0 
106107  1  0  0  0  0 
106108  1  0  0  0  0 
106109  1  0  0  0  0 
 97109  1  0  0  0  0 
109110  1  0  0  0  0 
109111  1  0  0  0  0 
111112  1  0  0  0  0 
M  CHG  1  89   1
M  CHG  1  91  -1
M  END
> <Rank>
24

> <Priority_score>
0.15139844463575283

> <Reaction_type>
aliphatic hydroxylation

> <Parent_ID>
12

> <Parent_InChI>
InChI=1S/C45H50ClN7O7S/c1-45(2)15-11-33(39(26-45)31-3-5-34(46)6-4-31)29-51-17-19-52(20-18-51)35-7-9-38(42(24-35)60-36-23-32-12-16-47-43(32)49-28-36)44(54)50-61(57,58)37-8-10-40(41(25-37)53(55)56)48-27-30-13-21-59-22-14-30/h3-10,12,16,23-25,28,30,48H,11,13-15,17-22,26-27,29H2,1-2H3,(H,47,49)(H,50,54)

> <Parent_SMILES>
CC1(C)CCC(CN2CCN(c3ccc(C(=O)NS(=O)(=O)c4ccc(NCC5CCOCC5)c([N+](=O)[O-])c4)c(Oc4cnc5[nH]ccc5c4)c3)CC2)=C(c2ccc(Cl)cc2)C1

$$$$
Molecule 12_metabolite 25
  CDK     0516241031

112119  0  0  0  0  0  0  0  0999 V2000
    4.0755   19.0737    0.0000 C   0  0  0  0  0  0  0  0  0  0  0  0
    2.5982   18.8136    0.0000 H   0  0  0  0  0  0  0  0  0  0  0  0
    5.3747   19.8233    0.0000 H   0  0  0  0  0  0  0  0  0  0  0  0
    3.5628   20.4833    0.0000 H   0  0  0  0  0  0  0  0  0  0  0  0
    5.6562   17.1888    0.0000 C   0  0  0  0  0  0  0  0  0  0  0  0
    7.2382   19.0726    0.0000 C   0  0  0  0  0  0  0  0  0  0  0  0
    6.7257   20.4824    0.0000 H   0  0  0  0  0  0  0  0  0  0  0  0
    8.5375   19.8222    0.0000 H   0  0  0  0  0  0  0  0  0  0  0  0
    8.2019   17.9232    0.0000 H   0  0  0  0  0  0  0  0  0  0  0  0
    4.3563   16.4386    0.0000 C   0  0  0  0  0  0  0  0  0  0  0  0
    2.8790   16.1789    0.0000 H   0  0  0  0  0  0  0  0  0  0  0  0
    3.8438   17.8483    0.0000 H   0  0  0  0  0  0  0  0  0  0  0  0
    4.3551   14.9377    0.0000 C   0  0  0  0  0  0  0  0  0  0  0  0
    3.6768   13.0775    0.0000 H   0  0  0  0  0  0  0  0  0  0  0  0
    2.8781   15.1992    0.0000 H   0  0  0  0  0  0  0  0  0  0  0  0
    5.6538   14.1871    0.0000 C   0  0  0  0  0  0  0  0  0  0  0  0
    6.9537   14.9373    0.0000 C   0  0  0  0  0  0  0  0  0  0  0  0
    6.9549   16.4381    0.0000 C   0  0  0  0  0  0  0  0  0  0  0  0
    7.4688   17.8474    0.0000 H   0  0  0  0  0  0  0  0  0  0  0  0
    8.4319   16.1766    0.0000 H   0  0  0  0  0  0  0  0  0  0  0  0
    8.2524   14.1867    0.0000 C   0  0  0  0  0  0  0  0  0  0  0  0
    9.5386   14.9260    0.0000 C   0  0  0  0  0  0  0  0  0  0  0  0
    9.5365   16.4260    0.0000 H   0  0  0  0  0  0  0  0  0  0  0  0
   10.8410   14.1819    0.0000 C   0  0  0  0  0  0  0  0  0  0  0  0
   12.1320   14.9457    0.0000 H   0  0  0  0  0  0  0  0  0  0  0  0
   10.8659   12.6935    0.0000 C   0  0  0  0  0  0  0  0  0  0  0  0
    9.5562   11.9331    0.0000 C   0  0  0  0  0  0  0  0  0  0  0  0
    9.5614   10.4331    0.0000 H   0  0  0  0  0  0  0  0  0  0  0  0
    8.2538   12.6772    0.0000 C   0  0  0  0  0  0  0  0  0  0  0  0
    6.9568   11.9236    0.0000 H   0  0  0  0  0  0  0  0  0  0  0  0
   12.1721   11.9560    0.0000 Cl  0  0  0  0  0  0  0  0  0  0  0  0
    5.6533   12.6871    0.0000 C   0  0  0  0  0  0  0  0  0  0  0  0
    7.1306   12.9471    0.0000 H   0  0  0  0  0  0  0  0  0  0  0  0
    6.1659   11.2774    0.0000 H   0  0  0  0  0  0  0  0  0  0  0  0
    3.1068   11.2179    0.0000 N   0  0  0  0  0  0  0  0  0  0  0  0
    3.1060    9.7171    0.0000 C   0  0  0  0  0  0  0  0  0  0  0  0
    4.5833    9.9772    0.0000 H   0  0  0  0  0  0  0  0  0  0  0  0
    3.6190    8.3075    0.0000 H   0  0  0  0  0  0  0  0  0  0  0  0
    1.8064    8.9665    0.0000 C   0  0  0  0  0  0  0  0  0  0  0  0
    2.7706    7.8174    0.0000 H   0  0  0  0  0  0  0  0  0  0  0  0
    0.8422    7.8174    0.0000 H   0  0  0  0  0  0  0  0  0  0  0  0
    0.5075    9.7167    0.0000 N   0  0  0  0  0  0  0  0  0  0  0  0
    0.5082   11.2175    0.0000 C   0  0  0  0  0  0  0  0  0  0  0  0
   -0.9691   10.9574    0.0000 H   0  0  0  0  0  0  0  0  0  0  0  0
   -0.0048   12.6271    0.0000 H   0  0  0  0  0  0  0  0  0  0  0  0
    1.8078   11.9681    0.0000 C   0  0  0  0  0  0  0  0  0  0  0  0
    0.8436   13.1171    0.0000 H   0  0  0  0  0  0  0  0  0  0  0  0
    2.7721   13.1171    0.0000 H   0  0  0  0  0  0  0  0  0  0  0  0
   -0.7918    8.9671    0.0000 C   0  0  0  0  0  0  0  0  0  0  0  0
   -2.0914    9.7177    0.0000 C   0  0  0  0  0  0  0  0  0  0  0  0
   -2.0907   11.2177    0.0000 H   0  0  0  0  0  0  0  0  0  0  0  0
   -3.3918    8.9683    0.0000 C   0  0  0  0  0  0  0  0  0  0  0  0
   -4.6904    9.7192    0.0000 H   0  0  0  0  0  0  0  0  0  0  0  0
   -3.3925    7.4683    0.0000 C   0  0  0  0  0  0  0  0  0  0  0  0
   -2.0929    6.7177    0.0000 C   0  0  0  0  0  0  0  0  0  0  0  0
   -0.7925    7.4671    0.0000 C   0  0  0  0  0  0  0  0  0  0  0  0
    0.5060    6.7162    0.0000 O   0  0  0  0  0  0  0  0  0  0  0  0
    1.8056    7.4654    0.0000 H   0  0  0  0  0  0  0  0  0  0  0  0
   -2.0941    4.2577    0.0000 O   0  0  0  0  0  0  0  0  0  0  0  0
   -0.7954    3.5071    0.0000 C   0  0  0  0  0  0  0  0  0  0  0  0
   -0.7959    2.0062    0.0000 C   0  0  0  0  0  0  0  0  0  0  0  0
   -2.0954    1.2571    0.0000 H   0  0  0  0  0  0  0  0  0  0  0  0
    0.5032    1.2546    0.0000 C   0  0  0  0  0  0  0  0  0  0  0  0
    1.8027    2.0037    0.0000 C   0  0  0  0  0  0  0  0  0  0  0  0
    2.9154    0.9946    0.0000 N   0  0  0  0  0  0  0  0  0  0  0  0
    4.3832    1.3037    0.0000 H   0  0  0  0  0  0  0  0  0  0  0  0
    2.3066   -0.3721    0.0000 C   0  0  0  0  0  0  0  0  0  0  0  0
    3.0558   -1.6716    0.0000 H   0  0  0  0  0  0  0  0  0  0  0  0
    0.8189   -0.2140    0.0000 C   0  0  0  0  0  0  0  0  0  0  0  0
   -0.1842   -1.3293    0.0000 H   0  0  0  0  0  0  0  0  0  0  0  0
    1.8032    3.5046    0.0000 N   0  0  0  0  0  0  0  0  0  0  0  0
    0.5041    4.2562    0.0000 C   0  0  0  0  0  0  0  0  0  0  0  0
    0.5053    5.7562    0.0000 H   0  0  0  0  0  0  0  0  0  0  0  0
   -4.6918    6.7187    0.0000 C   0  0  0  0  0  0  0  0  0  0  0  0
   -4.6923    5.2187    0.0000 O   0  0  0  0  0  0  0  0  0  0  0  0
   -5.9906    7.4692    0.0000 N   0  0  0  0  0  0  0  0  0  0  0  0
   -5.9901    8.9692    0.0000 H   0  0  0  0  0  0  0  0  0  0  0  0
   -7.2899    6.7196    0.0000 S   0  0  0  0  0  0  0  0  0  0  0  0
   -6.3261    5.5702    0.0000 O   0  0  0  0  0  0  0  0  0  0  0  0
   -8.2544    5.5708    0.0000 O   0  0  0  0  0  0  0  0  0  0  0  0
   -8.5887    7.4700    0.0000 C   0  0  0  0  0  0  0  0  0  0  0  0
   -8.5884    8.9708    0.0000 C   0  0  0  0  0  0  0  0  0  0  0  0
   -7.2890    9.7202    0.0000 H   0  0  0  0  0  0  0  0  0  0  0  0
   -9.8876    9.7223    0.0000 C   0  0  0  0  0  0  0  0  0  0  0  0
   -9.8866   11.2223    0.0000 H   0  0  0  0  0  0  0  0  0  0  0  0
  -11.1870    8.9729    0.0000 C   0  0  0  0  0  0  0  0  0  0  0  0
  -11.1872    7.4721    0.0000 C   0  0  0  0  0  0  0  0  0  0  0  0
   -9.8881    6.7206    0.0000 C   0  0  0  0  0  0  0  0  0  0  0  0
   -9.8890    5.2206    0.0000 H   0  0  0  0  0  0  0  0  0  0  0  0
  -12.4866    6.7227    0.0000 N   0  0  0  0  0  0  0  0  0  0  0  0
  -13.7853    7.4733    0.0000 O   0  0  0  0  0  0  0  0  0  0  0  0
  -12.4874    5.2227    0.0000 O   0  0  0  0  0  0  0  0  0  0  0  0
  -12.4858    9.7233    0.0000 N   0  0  0  0  0  0  0  0  0  0  0  0
  -13.7851    8.9737    0.0000 H   0  0  0  0  0  0  0  0  0  0  0  0
  -12.4853   11.2233    0.0000 C   0  0  0  0  0  0  0  0  0  0  0  0
  -11.0082   10.9624    0.0000 H   0  0  0  0  0  0  0  0  0  0  0  0
  -11.9718   12.6327    0.0000 H   0  0  0  0  0  0  0  0  0  0  0  0
  -14.6153   12.4540    0.0000 C   0  0  0  0  0  0  0  0  0  0  0  0
  -15.1285   11.0445    0.0000 H   0  0  0  0  0  0  0  0  0  0  0  0
  -13.6500   13.6032    0.0000 C   0  0  0  0  0  0  0  0  0  0  0  0
  -12.3507   14.3528    0.0000 H   0  0  0  0  0  0  0  0  0  0  0  0
  -12.6863   12.4537    0.0000 H   0  0  0  0  0  0  0  0  0  0  0  0
  -14.1627   15.0128    0.0000 C   0  0  0  0  0  0  0  0  0  0  0  0
  -14.1627   16.5128    0.0000 H   0  0  0  0  0  0  0  0  0  0  0  0
  -12.6855   15.2732    0.0000 H   0  0  0  0  0  0  0  0  0  0  0  0
  -15.6408   15.2733    0.0000 O   0  0  0  0  0  0  0  0  0  0  0  0
  -16.6061   14.1241    0.0000 C   0  0  0  0  0  0  0  0  0  0  0  0
  -17.9054   13.3745    0.0000 H   0  0  0  0  0  0  0  0  0  0  0  0
  -17.5698   15.2736    0.0000 H   0  0  0  0  0  0  0  0  0  0  0  0
  -16.0934   12.7145    0.0000 C   0  0  0  0  0  0  0  0  0  0  0  0
  -16.0934   11.2145    0.0000 H   0  0  0  0  0  0  0  0  0  0  0  0
  -17.5706   12.4541    0.0000 H   0  0  0  0  0  0  0  0  0  0  0  0
  1  2  1  0  0  0  0 
  1  3  1  0  0  0  0 
  1  4  1  0  0  0  0 
  1  5  1  0  0  0  0 
  5  6  1  0  0  0  0 
  6  7  1  0  0  0  0 
  6  8  1  0  0  0  0 
  6  9  1  0  0  0  0 
  5 10  1  0  0  0  0 
 10 11  1  0  0  0  0 
 10 12  1  0  0  0  0 
 10 13  1  0  0  0  0 
 13 14  1  0  0  0  0 
 13 15  1  0  0  0  0 
 13 16  1  0  0  0  0 
 16 17  2  0  0  0  0 
 17 18  1  0  0  0  0 
  5 18  1  0  0  0  0 
 18 19  1  0  0  0  0 
 18 20  1  0  0  0  0 
 17 21  1  0  0  0  0 
 21 22  2  0  0  0  0 
 22 23  1  0  0  0  0 
 22 24  1  0  0  0  0 
 24 25  1  0  0  0  0 
 24 26  2  0  0  0  0 
 26 27  1  0  0  0  0 
 27 28  1  0  0  0  0 
 27 29  2  0  0  0  0 
 21 29  1  0  0  0  0 
 29 30  1  0  0  0  0 
 26 31  1  0  0  0  0 
 16 32  1  0  0  0  0 
 32 33  1  0  0  0  0 
 32 34  1  0  0  0  0 
 32 35  1  0  0  0  0 
 35 36  1  0  0  0  0 
 36 37  1  0  0  0  0 
 36 38  1  0  0  0  0 
 36 39  1  0  0  0  0 
 39 40  1  0  0  0  0 
 39 41  1  0  0  0  0 
 39 42  1  0  0  0  0 
 42 43  1  0  0  0  0 
 43 44  1  0  0  0  0 
 43 45  1  0  0  0  0 
 43 46  1  0  0  0  0 
 35 46  1  0  0  0  0 
 46 47  1  0  0  0  0 
 46 48  1  0  0  0  0 
 42 49  1  0  0  0  0 
 49 50  2  0  0  0  0 
 50 51  1  0  0  0  0 
 50 52  1  0  0  0  0 
 52 53  1  0  0  0  0 
 52 54  2  0  0  0  0 
 54 55  1  0  0  0  0 
 55 56  2  0  0  0  0 
 49 56  1  0  0  0  0 
 56 57  1  0  0  0  0 
 57 58  1  0  0  0  0 
 55 59  1  0  0  0  0 
 59 60  1  0  0  0  0 
 60 61  2  0  0  0  0 
 61 62  1  0  0  0  0 
 61 63  1  0  0  0  0 
 63 64  2  0  0  0  0 
 64 65  1  0  0  0  0 
 65 66  1  0  0  0  0 
 65 67  1  0  0  0  0 
 67 68  1  0  0  0  0 
 67 69  2  0  0  0  0 
 63 69  1  0  0  0  0 
 69 70  1  0  0  0  0 
 64 71  1  0  0  0  0 
 71 72  2  0  0  0  0 
 60 72  1  0  0  0  0 
 72 73  1  0  0  0  0 
 54 74  1  0  0  0  0 
 74 75  2  0  0  0  0 
 74 76  1  0  0  0  0 
 76 77  1  0  0  0  0 
 76 78  1  0  0  0  0 
 78 79  2  0  0  0  0 
 78 80  2  0  0  0  0 
 78 81  1  0  0  0  0 
 81 82  2  0  0  0  0 
 82 83  1  0  0  0  0 
 82 84  1  0  0  0  0 
 84 85  1  0  0  0  0 
 84 86  2  0  0  0  0 
 86 87  1  0  0  0  0 
 87 88  2  0  0  0  0 
 81 88  1  0  0  0  0 
 88 89  1  0  0  0  0 
 87 90  1  0  0  0  0 
 90 91  2  0  0  0  0 
 90 92  1  0  0  0  0 
 86 93  1  0  0  0  0 
 93 94  1  0  0  0  0 
 93 95  1  0  0  0  0 
 95 96  1  0  0  0  0 
 95 97  1  0  0  0  0 
 95 98  1  0  0  0  0 
 98 99  1  0  0  0  0 
 98100  1  0  0  0  0 
100101  1  0  0  0  0 
100102  1  0  0  0  0 
100103  1  0  0  0  0 
103104  1  0  0  0  0 
103105  1  0  0  0  0 
103106  1  0  0  0  0 
106107  1  0  0  0  0 
107108  1  0  0  0  0 
107109  1  0  0  0  0 
107110  1  0  0  0  0 
 98110  1  0  0  0  0 
110111  1  0  0  0  0 
110112  1  0  0  0  0 
M  CHG  1  90   1
M  CHG  1  92  -1
M  END
> <Rank>
25

> <Priority_score>
0.148

> <Reaction_type>
aromatic_hydroxylation_(ortho_to_2_substituents)

> <Parent_ID>
12

> <Parent_InChI>
InChI=1S/C45H50ClN7O7S/c1-45(2)15-11-33(39(26-45)31-3-5-34(46)6-4-31)29-51-17-19-52(20-18-51)35-7-9-38(42(24-35)60-36-23-32-12-16-47-43(32)49-28-36)44(54)50-61(57,58)37-8-10-40(41(25-37)53(55)56)48-27-30-13-21-59-22-14-30/h3-10,12,16,23-25,28,30,48H,11,13-15,17-22,26-27,29H2,1-2H3,(H,47,49)(H,50,54)

> <Parent_SMILES>
CC1(C)CCC(CN2CCN(c3ccc(C(=O)NS(=O)(=O)c4ccc(NCC5CCOCC5)c([N+](=O)[O-])c4)c(Oc4cnc5[nH]ccc5c4)c3)CC2)=C(c2ccc(Cl)cc2)C1

$$$$
Molecule 12_metabolite 26
  CDK     0516241031

112119  0  0  0  0  0  0  0  0999 V2000
    4.0747   19.0716    0.0000 C   0  0  0  0  0  0  0  0  0  0  0  0
    2.5975   18.8115    0.0000 H   0  0  0  0  0  0  0  0  0  0  0  0
    5.3740   19.8212    0.0000 H   0  0  0  0  0  0  0  0  0  0  0  0
    3.5621   20.4812    0.0000 H   0  0  0  0  0  0  0  0  0  0  0  0
    5.6555   17.1867    0.0000 C   0  0  0  0  0  0  0  0  0  0  0  0
    7.2375   19.0706    0.0000 C   0  0  0  0  0  0  0  0  0  0  0  0
    6.7250   20.4803    0.0000 H   0  0  0  0  0  0  0  0  0  0  0  0
    8.5368   19.8201    0.0000 H   0  0  0  0  0  0  0  0  0  0  0  0
    8.2012   17.9211    0.0000 H   0  0  0  0  0  0  0  0  0  0  0  0
    4.3556   16.4365    0.0000 C   0  0  0  0  0  0  0  0  0  0  0  0
    2.8783   16.1769    0.0000 H   0  0  0  0  0  0  0  0  0  0  0  0
    3.8431   17.8462    0.0000 H   0  0  0  0  0  0  0  0  0  0  0  0
    4.3544   14.9356    0.0000 C   0  0  0  0  0  0  0  0  0  0  0  0
    3.6761   13.0754    0.0000 H   0  0  0  0  0  0  0  0  0  0  0  0
    2.8774   15.1971    0.0000 H   0  0  0  0  0  0  0  0  0  0  0  0
    5.6531   14.1850    0.0000 C   0  0  0  0  0  0  0  0  0  0  0  0
    6.9530   14.9352    0.0000 C   0  0  0  0  0  0  0  0  0  0  0  0
    6.9542   16.4361    0.0000 C   0  0  0  0  0  0  0  0  0  0  0  0
    7.4680   17.8453    0.0000 H   0  0  0  0  0  0  0  0  0  0  0  0
    8.4312   16.1746    0.0000 H   0  0  0  0  0  0  0  0  0  0  0  0
    8.2517   14.1846    0.0000 C   0  0  0  0  0  0  0  0  0  0  0  0
    9.5378   14.9240    0.0000 C   0  0  0  0  0  0  0  0  0  0  0  0
    9.5358   16.4240    0.0000 H   0  0  0  0  0  0  0  0  0  0  0  0
   10.8403   14.1799    0.0000 C   0  0  0  0  0  0  0  0  0  0  0  0
   12.1312   14.9437    0.0000 H   0  0  0  0  0  0  0  0  0  0  0  0
   10.8652   12.6915    0.0000 C   0  0  0  0  0  0  0  0  0  0  0  0
    9.5555   11.9310    0.0000 C   0  0  0  0  0  0  0  0  0  0  0  0
    9.5607   10.4310    0.0000 H   0  0  0  0  0  0  0  0  0  0  0  0
    8.2530   12.6751    0.0000 C   0  0  0  0  0  0  0  0  0  0  0  0
    6.9560   11.9216    0.0000 H   0  0  0  0  0  0  0  0  0  0  0  0
   12.1714   11.9540    0.0000 Cl  0  0  0  0  0  0  0  0  0  0  0  0
    5.6526   12.6850    0.0000 C   0  0  0  0  0  0  0  0  0  0  0  0
    7.1299   12.9450    0.0000 H   0  0  0  0  0  0  0  0  0  0  0  0
    6.1652   11.2753    0.0000 H   0  0  0  0  0  0  0  0  0  0  0  0
    3.1060   11.2158    0.0000 N   0  0  0  0  0  0  0  0  0  0  0  0
    1.8068   11.9671    0.0000 C   0  0  0  0  0  0  0  0  0  0  0  0
    0.8431   13.1166    0.0000 H   0  0  0  0  0  0  0  0  0  0  0  0
    2.7715   13.1156    0.0000 H   0  0  0  0  0  0  0  0  0  0  0  0
    0.5075   11.2175    0.0000 C   0  0  0  0  0  0  0  0  0  0  0  0
   -0.9698   10.9572    0.0000 H   0  0  0  0  0  0  0  0  0  0  0  0
   -0.0053   12.6271    0.0000 H   0  0  0  0  0  0  0  0  0  0  0  0
    0.5075    9.7167    0.0000 N   0  0  0  0  0  0  0  0  0  0  0  0
   -0.7918    8.9671    0.0000 C   0  0  0  0  0  0  0  0  0  0  0  0
   -2.0914    9.7177    0.0000 C   0  0  0  0  0  0  0  0  0  0  0  0
   -2.0907   11.2177    0.0000 H   0  0  0  0  0  0  0  0  0  0  0  0
   -3.3918    8.9683    0.0000 C   0  0  0  0  0  0  0  0  0  0  0  0
   -4.6904    9.7192    0.0000 H   0  0  0  0  0  0  0  0  0  0  0  0
   -3.3925    7.4683    0.0000 C   0  0  0  0  0  0  0  0  0  0  0  0
   -2.0929    6.7177    0.0000 C   0  0  0  0  0  0  0  0  0  0  0  0
   -0.7925    7.4671    0.0000 C   0  0  0  0  0  0  0  0  0  0  0  0
    0.5060    6.7162    0.0000 H   0  0  0  0  0  0  0  0  0  0  0  0
   -2.0941    4.2577    0.0000 O   0  0  0  0  0  0  0  0  0  0  0  0
   -0.7954    3.5071    0.0000 C   0  0  0  0  0  0  0  0  0  0  0  0
   -0.7959    2.0062    0.0000 C   0  0  0  0  0  0  0  0  0  0  0  0
   -2.0954    1.2571    0.0000 H   0  0  0  0  0  0  0  0  0  0  0  0
    0.5032    1.2546    0.0000 C   0  0  0  0  0  0  0  0  0  0  0  0
    1.8027    2.0037    0.0000 C   0  0  0  0  0  0  0  0  0  0  0  0
    2.9154    0.9946    0.0000 N   0  0  0  0  0  0  0  0  0  0  0  0
    4.3832    1.3037    0.0000 H   0  0  0  0  0  0  0  0  0  0  0  0
    2.3066   -0.3721    0.0000 C   0  0  0  0  0  0  0  0  0  0  0  0
    3.0558   -1.6716    0.0000 H   0  0  0  0  0  0  0  0  0  0  0  0
    0.8189   -0.2140    0.0000 C   0  0  0  0  0  0  0  0  0  0  0  0
   -0.1842   -1.3293    0.0000 H   0  0  0  0  0  0  0  0  0  0  0  0
    1.8032    3.5046    0.0000 N   0  0  0  0  0  0  0  0  0  0  0  0
    0.5041    4.2562    0.0000 C   0  0  0  0  0  0  0  0  0  0  0  0
    0.5053    5.7562    0.0000 H   0  0  0  0  0  0  0  0  0  0  0  0
   -4.6918    6.7187    0.0000 C   0  0  0  0  0  0  0  0  0  0  0  0
   -4.6923    5.2187    0.0000 O   0  0  0  0  0  0  0  0  0  0  0  0
   -5.9906    7.4692    0.0000 N   0  0  0  0  0  0  0  0  0  0  0  0
   -5.9901    8.9692    0.0000 H   0  0  0  0  0  0  0  0  0  0  0  0
   -7.2899    6.7196    0.0000 S   0  0  0  0  0  0  0  0  0  0  0  0
   -6.3261    5.5702    0.0000 O   0  0  0  0  0  0  0  0  0  0  0  0
   -8.2544    5.5708    0.0000 O   0  0  0  0  0  0  0  0  0  0  0  0
   -8.5887    7.4700    0.0000 C   0  0  0  0  0  0  0  0  0  0  0  0
   -8.5884    8.9708    0.0000 C   0  0  0  0  0  0  0  0  0  0  0  0
   -7.2890    9.7202    0.0000 H   0  0  0  0  0  0  0  0  0  0  0  0
   -9.8876    9.7223    0.0000 C   0  0  0  0  0  0  0  0  0  0  0  0
   -9.8866   11.2223    0.0000 H   0  0  0  0  0  0  0  0  0  0  0  0
  -11.1870    8.9729    0.0000 C   0  0  0  0  0  0  0  0  0  0  0  0
  -11.1872    7.4721    0.0000 C   0  0  0  0  0  0  0  0  0  0  0  0
   -9.8881    6.7206    0.0000 C   0  0  0  0  0  0  0  0  0  0  0  0
   -9.8890    5.2206    0.0000 H   0  0  0  0  0  0  0  0  0  0  0  0
  -12.4866    6.7227    0.0000 N   0  0  0  0  0  0  0  0  0  0  0  0
  -13.7853    7.4733    0.0000 O   0  0  0  0  0  0  0  0  0  0  0  0
  -12.4874    5.2227    0.0000 O   0  0  0  0  0  0  0  0  0  0  0  0
  -12.4858    9.7233    0.0000 N   0  0  0  0  0  0  0  0  0  0  0  0
  -13.7851    8.9737    0.0000 H   0  0  0  0  0  0  0  0  0  0  0  0
  -12.4853   11.2233    0.0000 C   0  0  0  0  0  0  0  0  0  0  0  0
  -11.0082   10.9624    0.0000 H   0  0  0  0  0  0  0  0  0  0  0  0
  -11.9718   12.6327    0.0000 H   0  0  0  0  0  0  0  0  0  0  0  0
  -14.6153   12.4540    0.0000 C   0  0  0  0  0  0  0  0  0  0  0  0
  -15.1285   11.0445    0.0000 H   0  0  0  0  0  0  0  0  0  0  0  0
  -13.6500   13.6032    0.0000 C   0  0  0  0  0  0  0  0  0  0  0  0
  -12.3507   14.3528    0.0000 H   0  0  0  0  0  0  0  0  0  0  0  0
  -12.6863   12.4537    0.0000 H   0  0  0  0  0  0  0  0  0  0  0  0
  -14.1627   15.0128    0.0000 C   0  0  0  0  0  0  0  0  0  0  0  0
  -14.1627   16.5128    0.0000 H   0  0  0  0  0  0  0  0  0  0  0  0
  -12.6855   15.2732    0.0000 H   0  0  0  0  0  0  0  0  0  0  0  0
  -15.6408   15.2733    0.0000 O   0  0  0  0  0  0  0  0  0  0  0  0
  -16.6061   14.1241    0.0000 C   0  0  0  0  0  0  0  0  0  0  0  0
  -17.9054   13.3745    0.0000 H   0  0  0  0  0  0  0  0  0  0  0  0
  -17.5698   15.2736    0.0000 H   0  0  0  0  0  0  0  0  0  0  0  0
  -16.0934   12.7145    0.0000 C   0  0  0  0  0  0  0  0  0  0  0  0
  -16.0934   11.2145    0.0000 H   0  0  0  0  0  0  0  0  0  0  0  0
  -17.5706   12.4541    0.0000 H   0  0  0  0  0  0  0  0  0  0  0  0
    1.8068    8.9654    0.0000 C   0  0  0  0  0  0  0  0  0  0  0  0
    2.7704    7.8159    0.0000 H   0  0  0  0  0  0  0  0  0  0  0  0
    3.1060    9.7150    0.0000 C   0  0  0  0  0  0  0  0  0  0  0  0
    4.5833    9.9753    0.0000 H   0  0  0  0  0  0  0  0  0  0  0  0
    3.6188    8.3053    0.0000 H   0  0  0  0  0  0  0  0  0  0  0  0
    0.8420    7.8169    0.0000 O   0  0  0  0  0  0  0  0  0  0  0  0
    1.3542    6.4070    0.0000 H   0  0  0  0  0  0  0  0  0  0  0  0
  1  2  1  0  0  0  0 
  1  3  1  0  0  0  0 
  1  4  1  0  0  0  0 
  1  5  1  0  0  0  0 
  5  6  1  0  0  0  0 
  6  7  1  0  0  0  0 
  6  8  1  0  0  0  0 
  6  9  1  0  0  0  0 
  5 10  1  0  0  0  0 
 10 11  1  0  0  0  0 
 10 12  1  0  0  0  0 
 10 13  1  0  0  0  0 
 13 14  1  0  0  0  0 
 13 15  1  0  0  0  0 
 13 16  1  0  0  0  0 
 16 17  2  0  0  0  0 
 17 18  1  0  0  0  0 
  5 18  1  0  0  0  0 
 18 19  1  0  0  0  0 
 18 20  1  0  0  0  0 
 17 21  1  0  0  0  0 
 21 22  2  0  0  0  0 
 22 23  1  0  0  0  0 
 22 24  1  0  0  0  0 
 24 25  1  0  0  0  0 
 24 26  2  0  0  0  0 
 26 27  1  0  0  0  0 
 27 28  1  0  0  0  0 
 27 29  2  0  0  0  0 
 21 29  1  0  0  0  0 
 29 30  1  0  0  0  0 
 26 31  1  0  0  0  0 
 16 32  1  0  0  0  0 
 32 33  1  0  0  0  0 
 32 34  1  0  0  0  0 
 32 35  1  0  0  0  0 
 35 36  1  0  0  0  0 
 36 37  1  0  0  0  0 
 36 38  1  0  0  0  0 
 36 39  1  0  0  0  0 
 39 40  1  0  0  0  0 
 39 41  1  0  0  0  0 
 39 42  1  0  0  0  0 
 42 43  1  0  0  0  0 
 43 44  2  0  0  0  0 
 44 45  1  0  0  0  0 
 44 46  1  0  0  0  0 
 46 47  1  0  0  0  0 
 46 48  2  0  0  0  0 
 48 49  1  0  0  0  0 
 49 50  2  0  0  0  0 
 43 50  1  0  0  0  0 
 50 51  1  0  0  0  0 
 49 52  1  0  0  0  0 
 52 53  1  0  0  0  0 
 53 54  2  0  0  0  0 
 54 55  1  0  0  0  0 
 54 56  1  0  0  0  0 
 56 57  2  0  0  0  0 
 57 58  1  0  0  0  0 
 58 59  1  0  0  0  0 
 58 60  1  0  0  0  0 
 60 61  1  0  0  0  0 
 60 62  2  0  0  0  0 
 56 62  1  0  0  0  0 
 62 63  1  0  0  0  0 
 57 64  1  0  0  0  0 
 64 65  2  0  0  0  0 
 53 65  1  0  0  0  0 
 65 66  1  0  0  0  0 
 48 67  1  0  0  0  0 
 67 68  2  0  0  0  0 
 67 69  1  0  0  0  0 
 69 70  1  0  0  0  0 
 69 71  1  0  0  0  0 
 71 72  2  0  0  0  0 
 71 73  2  0  0  0  0 
 71 74  1  0  0  0  0 
 74 75  2  0  0  0  0 
 75 76  1  0  0  0  0 
 75 77  1  0  0  0  0 
 77 78  1  0  0  0  0 
 77 79  2  0  0  0  0 
 79 80  1  0  0  0  0 
 80 81  2  0  0  0  0 
 74 81  1  0  0  0  0 
 81 82  1  0  0  0  0 
 80 83  1  0  0  0  0 
 83 84  2  0  0  0  0 
 83 85  1  0  0  0  0 
 79 86  1  0  0  0  0 
 86 87  1  0  0  0  0 
 86 88  1  0  0  0  0 
 88 89  1  0  0  0  0 
 88 90  1  0  0  0  0 
 88 91  1  0  0  0  0 
 91 92  1  0  0  0  0 
 91 93  1  0  0  0  0 
 93 94  1  0  0  0  0 
 93 95  1  0  0  0  0 
 93 96  1  0  0  0  0 
 96 97  1  0  0  0  0 
 96 98  1  0  0  0  0 
 96 99  1  0  0  0  0 
 99100  1  0  0  0  0 
100101  1  0  0  0  0 
100102  1  0  0  0  0 
100103  1  0  0  0  0 
 91103  1  0  0  0  0 
103104  1  0  0  0  0 
103105  1  0  0  0  0 
 42106  1  0  0  0  0 
106107  1  0  0  0  0 
106108  1  0  0  0  0 
 35108  1  0  0  0  0 
108109  1  0  0  0  0 
108110  1  0  0  0  0 
106111  1  0  0  0  0 
111112  1  0  0  0  0 
M  CHG  1  83   1
M  CHG  1  85  -1
M  END
> <Rank>
25

> <Priority_score>
0.148

> <Reaction_type>
aliphatic_hydroxylation_(sec_carbon_next_to_SP2,in_a_ring)

> <Parent_ID>
12

> <Parent_InChI>
InChI=1S/C45H50ClN7O7S/c1-45(2)15-11-33(39(26-45)31-3-5-34(46)6-4-31)29-51-17-19-52(20-18-51)35-7-9-38(42(24-35)60-36-23-32-12-16-47-43(32)49-28-36)44(54)50-61(57,58)37-8-10-40(41(25-37)53(55)56)48-27-30-13-21-59-22-14-30/h3-10,12,16,23-25,28,30,48H,11,13-15,17-22,26-27,29H2,1-2H3,(H,47,49)(H,50,54)

> <Parent_SMILES>
CC1(C)CCC(CN2CCN(c3ccc(C(=O)NS(=O)(=O)c4ccc(NCC5CCOCC5)c([N+](=O)[O-])c4)c(Oc4cnc5[nH]ccc5c4)c3)CC2)=C(c2ccc(Cl)cc2)C1

$$$$
Molecule 12_metabolite 27
  CDK     0516241031

112118  0  0  0  0  0  0  0  0999 V2000
  -15.1526   -6.8168    0.0000 C   0  0  0  0  0  0  0  0  0  0  0  0
  -15.6651   -5.4070    0.0000 H   0  0  0  0  0  0  0  0  0  0  0  0
  -15.1531   -8.3168    0.0000 H   0  0  0  0  0  0  0  0  0  0  0  0
  -16.6299   -7.0767    0.0000 H   0  0  0  0  0  0  0  0  0  0  0  0
  -12.7301   -7.2448    0.0000 C   0  0  0  0  0  0  0  0  0  0  0  0
  -13.5721   -9.5563    0.0000 C   0  0  0  0  0  0  0  0  0  0  0  0
  -15.0494   -9.8163    0.0000 H   0  0  0  0  0  0  0  0  0  0  0  0
  -13.5725  -11.0563    0.0000 H   0  0  0  0  0  0  0  0  0  0  0  0
  -12.0949   -9.8171    0.0000 H   0  0  0  0  0  0  0  0  0  0  0  0
  -12.7294   -5.7440    0.0000 C   0  0  0  0  0  0  0  0  0  0  0  0
  -13.2423   -4.3344    0.0000 H   0  0  0  0  0  0  0  0  0  0  0  0
  -14.2066   -6.0041    0.0000 H   0  0  0  0  0  0  0  0  0  0  0  0
  -11.4297   -4.9934    0.0000 C   0  0  0  0  0  0  0  0  0  0  0  0
  -10.4655   -3.8444    0.0000 H   0  0  0  0  0  0  0  0  0  0  0  0
  -12.3940   -3.8444    0.0000 H   0  0  0  0  0  0  0  0  0  0  0  0
  -10.1308   -5.7436    0.0000 C   0  0  0  0  0  0  0  0  0  0  0  0
  -10.1315   -7.2444    0.0000 C   0  0  0  0  0  0  0  0  0  0  0  0
  -11.4312   -7.9950    0.0000 C   0  0  0  0  0  0  0  0  0  0  0  0
  -12.3954   -9.1441    0.0000 H   0  0  0  0  0  0  0  0  0  0  0  0
  -10.4669   -9.1441    0.0000 H   0  0  0  0  0  0  0  0  0  0  0  0
   -8.8326   -7.9946    0.0000 C   0  0  0  0  0  0  0  0  0  0  0  0
   -8.8308   -9.4782    0.0000 C   0  0  0  0  0  0  0  0  0  0  0  0
  -10.1313  -10.2256    0.0000 H   0  0  0  0  0  0  0  0  0  0  0  0
   -7.5357  -10.2349    0.0000 C   0  0  0  0  0  0  0  0  0  0  0  0
   -7.5526  -11.7348    0.0000 H   0  0  0  0  0  0  0  0  0  0  0  0
   -6.2337   -9.5131    0.0000 C   0  0  0  0  0  0  0  0  0  0  0  0
   -6.2290   -7.9986    0.0000 C   0  0  0  0  0  0  0  0  0  0  0  0
   -4.9269   -7.2540    0.0000 H   0  0  0  0  0  0  0  0  0  0  0  0
   -7.5242   -7.2419    0.0000 C   0  0  0  0  0  0  0  0  0  0  0  0
   -7.5191   -5.7419    0.0000 H   0  0  0  0  0  0  0  0  0  0  0  0
   -4.9424  -10.2764    0.0000 Cl  0  0  0  0  0  0  0  0  0  0  0  0
   -8.8315   -4.9940    0.0000 C   0  0  0  0  0  0  0  0  0  0  0  0
   -7.3542   -4.7340    0.0000 H   0  0  0  0  0  0  0  0  0  0  0  0
   -8.3190   -6.4037    0.0000 H   0  0  0  0  0  0  0  0  0  0  0  0
   -8.8307   -2.5340    0.0000 N   0  0  0  0  0  0  0  0  0  0  0  0
   -7.1157   -1.5445    0.0000 C   0  0  0  0  0  0  0  0  0  0  0  0
   -6.6031   -2.9543    0.0000 H   0  0  0  0  0  0  0  0  0  0  0  0
   -5.6384   -1.2845    0.0000 H   0  0  0  0  0  0  0  0  0  0  0  0
   -7.1152   -0.0445    0.0000 C   0  0  0  0  0  0  0  0  0  0  0  0
   -7.6278    1.3652    0.0000 H   0  0  0  0  0  0  0  0  0  0  0  0
   -8.5925   -0.3045    0.0000 H   0  0  0  0  0  0  0  0  0  0  0  0
   -5.8159    0.7050    0.0000 N   0  0  0  0  0  0  0  0  0  0  0  0
   -4.5171   -0.0454    0.0000 H   0  0  0  0  0  0  0  0  0  0  0  0
   -5.8155    2.2050    0.0000 C   0  0  0  0  0  0  0  0  0  0  0  0
   -7.1149    2.9561    0.0000 C   0  0  0  0  0  0  0  0  0  0  0  0
   -8.4140    2.2063    0.0000 H   0  0  0  0  0  0  0  0  0  0  0  0
   -7.1151    4.4569    0.0000 C   0  0  0  0  0  0  0  0  0  0  0  0
   -8.4141    5.2069    0.0000 H   0  0  0  0  0  0  0  0  0  0  0  0
   -5.8159    5.2067    0.0000 C   0  0  0  0  0  0  0  0  0  0  0  0
   -4.5165    4.4557    0.0000 C   0  0  0  0  0  0  0  0  0  0  0  0
   -4.5163    2.9548    0.0000 C   0  0  0  0  0  0  0  0  0  0  0  0
   -3.2173    2.2048    0.0000 H   0  0  0  0  0  0  0  0  0  0  0  0
   -3.2174    5.2055    0.0000 O   0  0  0  0  0  0  0  0  0  0  0  0
   -1.0872    3.9751    0.0000 C   0  0  0  0  0  0  0  0  0  0  0  0
    0.2128    4.7251    0.0000 C   0  0  0  0  0  0  0  0  0  0  0  0
    0.2128    6.2251    0.0000 H   0  0  0  0  0  0  0  0  0  0  0  0
    1.5128    3.9751    0.0000 C   0  0  0  0  0  0  0  0  0  0  0  0
    1.5128    2.4751    0.0000 C   0  0  0  0  0  0  0  0  0  0  0  0
    2.9428    2.0151    0.0000 N   0  0  0  0  0  0  0  0  0  0  0  0
    3.4081    0.5891    0.0000 H   0  0  0  0  0  0  0  0  0  0  0  0
    3.8228    3.2251    0.0000 C   0  0  0  0  0  0  0  0  0  0  0  0
    5.3228    3.2251    0.0000 H   0  0  0  0  0  0  0  0  0  0  0  0
    2.9428    4.4351    0.0000 C   0  0  0  0  0  0  0  0  0  0  0  0
    3.4081    5.8611    0.0000 H   0  0  0  0  0  0  0  0  0  0  0  0
    0.2128    1.7251    0.0000 N   0  0  0  0  0  0  0  0  0  0  0  0
   -1.0872    2.4751    0.0000 C   0  0  0  0  0  0  0  0  0  0  0  0
   -2.3861    1.7249    0.0000 H   0  0  0  0  0  0  0  0  0  0  0  0
   -5.8155    6.7067    0.0000 C   0  0  0  0  0  0  0  0  0  0  0  0
   -7.1143    7.4571    0.0000 O   0  0  0  0  0  0  0  0  0  0  0  0
   -4.5162    7.4563    0.0000 N   0  0  0  0  0  0  0  0  0  0  0  0
   -3.2174    6.7059    0.0000 H   0  0  0  0  0  0  0  0  0  0  0  0
   -4.5157    8.9563    0.0000 S   0  0  0  0  0  0  0  0  0  0  0  0
   -5.0283   10.3660    0.0000 O   0  0  0  0  0  0  0  0  0  0  0  0
   -5.9930    8.6963    0.0000 O   0  0  0  0  0  0  0  0  0  0  0  0
   -3.2164    9.7059    0.0000 C   0  0  0  0  0  0  0  0  0  0  0  0
   -3.2157   11.2067    0.0000 C   0  0  0  0  0  0  0  0  0  0  0  0
   -4.5146   11.9569    0.0000 H   0  0  0  0  0  0  0  0  0  0  0  0
   -1.9161   11.9573    0.0000 C   0  0  0  0  0  0  0  0  0  0  0  0
   -1.9161   13.4573    0.0000 H   0  0  0  0  0  0  0  0  0  0  0  0
   -0.6171   11.2071    0.0000 C   0  0  0  0  0  0  0  0  0  0  0  0
   -0.6179    9.7063    0.0000 C   0  0  0  0  0  0  0  0  0  0  0  0
   -1.9175    8.9557    0.0000 C   0  0  0  0  0  0  0  0  0  0  0  0
   -1.9175    7.4557    0.0000 H   0  0  0  0  0  0  0  0  0  0  0  0
    0.6811    8.9561    0.0000 N   0  0  0  0  0  0  0  0  0  0  0  0
    1.9802    9.7059    0.0000 O   0  0  0  0  0  0  0  0  0  0  0  0
    0.6808    7.4561    0.0000 O   0  0  0  0  0  0  0  0  0  0  0  0
    0.6821   11.9567    0.0000 N   0  0  0  0  0  0  0  0  0  0  0  0
    1.9809   11.2063    0.0000 H   0  0  0  0  0  0  0  0  0  0  0  0
    0.6826   13.4567    0.0000 C   0  0  0  0  0  0  0  0  0  0  0  0
    0.1700   14.8664    0.0000 H   0  0  0  0  0  0  0  0  0  0  0  0
   -0.7947   13.1967    0.0000 H   0  0  0  0  0  0  0  0  0  0  0  0
    2.8134   14.6860    0.0000 C   0  0  0  0  0  0  0  0  0  0  0  0
    3.3257   13.2762    0.0000 H   0  0  0  0  0  0  0  0  0  0  0  0
    1.8488   15.8358    0.0000 C   0  0  0  0  0  0  0  0  0  0  0  0
    0.5500   16.5862    0.0000 H   0  0  0  0  0  0  0  0  0  0  0  0
    0.8844   14.6870    0.0000 H   0  0  0  0  0  0  0  0  0  0  0  0
    2.3625   17.2451    0.0000 C   0  0  0  0  0  0  0  0  0  0  0  0
    2.3634   18.7451    0.0000 H   0  0  0  0  0  0  0  0  0  0  0  0
    0.8854   17.5064    0.0000 H   0  0  0  0  0  0  0  0  0  0  0  0
    3.8407   17.5047    0.0000 O   0  0  0  0  0  0  0  0  0  0  0  0
    4.8053   16.3549    0.0000 C   0  0  0  0  0  0  0  0  0  0  0  0
    6.1041   15.6044    0.0000 H   0  0  0  0  0  0  0  0  0  0  0  0
    5.7697   17.5037    0.0000 H   0  0  0  0  0  0  0  0  0  0  0  0
    4.2917   14.9455    0.0000 C   0  0  0  0  0  0  0  0  0  0  0  0
    4.2907   13.4455    0.0000 H   0  0  0  0  0  0  0  0  0  0  0  0
    5.7687   14.6843    0.0000 H   0  0  0  0  0  0  0  0  0  0  0  0
  -10.5452   -1.5434    0.0000 C   0  0  0  0  0  0  0  0  0  0  0  0
  -12.0223   -1.2825    0.0000 H   0  0  0  0  0  0  0  0  0  0  0  0
  -11.0586   -2.9528    0.0000 H   0  0  0  0  0  0  0  0  0  0  0  0
  -10.5447   -0.0434    0.0000 C   0  0  0  0  0  0  0  0  0  0  0  0
  -11.8435    0.7070    0.0000 H   0  0  0  0  0  0  0  0  0  0  0  0
   -9.2454    0.7061    0.0000 O   0  0  0  0  0  0  0  0  0  0  0  0
  1  2  1  0  0  0  0 
  1  3  1  0  0  0  0 
  1  4  1  0  0  0  0 
  1  5  1  0  0  0  0 
  5  6  1  0  0  0  0 
  6  7  1  0  0  0  0 
  6  8  1  0  0  0  0 
  6  9  1  0  0  0  0 
  5 10  1  0  0  0  0 
 10 11  1  0  0  0  0 
 10 12  1  0  0  0  0 
 10 13  1  0  0  0  0 
 13 14  1  0  0  0  0 
 13 15  1  0  0  0  0 
 13 16  1  0  0  0  0 
 16 17  2  0  0  0  0 
 17 18  1  0  0  0  0 
  5 18  1  0  0  0  0 
 18 19  1  0  0  0  0 
 18 20  1  0  0  0  0 
 17 21  1  0  0  0  0 
 21 22  2  0  0  0  0 
 22 23  1  0  0  0  0 
 22 24  1  0  0  0  0 
 24 25  1  0  0  0  0 
 24 26  2  0  0  0  0 
 26 27  1  0  0  0  0 
 27 28  1  0  0  0  0 
 27 29  2  0  0  0  0 
 21 29  1  0  0  0  0 
 29 30  1  0  0  0  0 
 26 31  1  0  0  0  0 
 16 32  1  0  0  0  0 
 32 33  1  0  0  0  0 
 32 34  1  0  0  0  0 
 32 35  1  0  0  0  0 
 35 36  1  0  0  0  0 
 36 37  1  0  0  0  0 
 36 38  1  0  0  0  0 
 36 39  1  0  0  0  0 
 39 40  1  0  0  0  0 
 39 41  1  0  0  0  0 
 39 42  1  0  0  0  0 
 42 43  1  0  0  0  0 
 42 44  1  0  0  0  0 
 44 45  2  0  0  0  0 
 45 46  1  0  0  0  0 
 45 47  1  0  0  0  0 
 47 48  1  0  0  0  0 
 47 49  2  0  0  0  0 
 49 50  1  0  0  0  0 
 50 51  2  0  0  0  0 
 44 51  1  0  0  0  0 
 51 52  1  0  0  0  0 
 50 53  1  0  0  0  0 
 53 54  1  0  0  0  0 
 54 55  2  0  0  0  0 
 55 56  1  0  0  0  0 
 55 57  1  0  0  0  0 
 57 58  2  0  0  0  0 
 58 59  1  0  0  0  0 
 59 60  1  0  0  0  0 
 59 61  1  0  0  0  0 
 61 62  1  0  0  0  0 
 61 63  2  0  0  0  0 
 57 63  1  0  0  0  0 
 63 64  1  0  0  0  0 
 58 65  1  0  0  0  0 
 65 66  2  0  0  0  0 
 54 66  1  0  0  0  0 
 66 67  1  0  0  0  0 
 49 68  1  0  0  0  0 
 68 69  2  0  0  0  0 
 68 70  1  0  0  0  0 
 70 71  1  0  0  0  0 
 70 72  1  0  0  0  0 
 72 73  2  0  0  0  0 
 72 74  2  0  0  0  0 
 72 75  1  0  0  0  0 
 75 76  2  0  0  0  0 
 76 77  1  0  0  0  0 
 76 78  1  0  0  0  0 
 78 79  1  0  0  0  0 
 78 80  2  0  0  0  0 
 80 81  1  0  0  0  0 
 81 82  2  0  0  0  0 
 75 82  1  0  0  0  0 
 82 83  1  0  0  0  0 
 81 84  1  0  0  0  0 
 84 85  2  0  0  0  0 
 84 86  1  0  0  0  0 
 80 87  1  0  0  0  0 
 87 88  1  0  0  0  0 
 87 89  1  0  0  0  0 
 89 90  1  0  0  0  0 
 89 91  1  0  0  0  0 
 89 92  1  0  0  0  0 
 92 93  1  0  0  0  0 
 92 94  1  0  0  0  0 
 94 95  1  0  0  0  0 
 94 96  1  0  0  0  0 
 94 97  1  0  0  0  0 
 97 98  1  0  0  0  0 
 97 99  1  0  0  0  0 
 97100  1  0  0  0  0 
100101  1  0  0  0  0 
101102  1  0  0  0  0 
101103  1  0  0  0  0 
101104  1  0  0  0  0 
 92104  1  0  0  0  0 
104105  1  0  0  0  0 
104106  1  0  0  0  0 
 35107  1  0  0  0  0 
107108  1  0  0  0  0 
107109  1  0  0  0  0 
107110  1  0  0  0  0 
110111  1  0  0  0  0 
110112  2  0  0  0  0 
M  CHG  1  84   1
M  CHG  1  86  -1
M  END
> <Rank>
25

> <Priority_score>
0.148

> <Reaction_type>
N-dealkylation

> <Parent_ID>
12

> <Parent_InChI>
InChI=1S/C45H50ClN7O7S/c1-45(2)15-11-33(39(26-45)31-3-5-34(46)6-4-31)29-51-17-19-52(20-18-51)35-7-9-38(42(24-35)60-36-23-32-12-16-47-43(32)49-28-36)44(54)50-61(57,58)37-8-10-40(41(25-37)53(55)56)48-27-30-13-21-59-22-14-30/h3-10,12,16,23-25,28,30,48H,11,13-15,17-22,26-27,29H2,1-2H3,(H,47,49)(H,50,54)

> <Parent_SMILES>
CC1(C)CCC(CN2CCN(c3ccc(C(=O)NS(=O)(=O)c4ccc(NCC5CCOCC5)c([N+](=O)[O-])c4)c(Oc4cnc5[nH]ccc5c4)c3)CC2)=C(c2ccc(Cl)cc2)C1

$$$$
Molecule 12_metabolite 28
  CDK     0516241031

112119  0  0  0  0  0  0  0  0999 V2000
  -21.4810   15.4690    0.0000 C   0  0  0  0  0  0  0  0  0  0  0  0
  -21.4813   13.9690    0.0000 H   0  0  0  0  0  0  0  0  0  0  0  0
  -21.9938   16.8787    0.0000 H   0  0  0  0  0  0  0  0  0  0  0  0
  -22.9583   15.2088    0.0000 H   0  0  0  0  0  0  0  0  0  0  0  0
  -19.3504   16.6987    0.0000 C   0  0  0  0  0  0  0  0  0  0  0  0
  -20.9312   18.5836    0.0000 C   0  0  0  0  0  0  0  0  0  0  0  0
  -22.4084   18.3235    0.0000 H   0  0  0  0  0  0  0  0  0  0  0  0
  -21.4438   19.9933    0.0000 H   0  0  0  0  0  0  0  0  0  0  0  0
  -19.6319   19.3332    0.0000 H   0  0  0  0  0  0  0  0  0  0  0  0
  -18.8372   15.2883    0.0000 C   0  0  0  0  0  0  0  0  0  0  0  0
  -18.8379   13.7883    0.0000 H   0  0  0  0  0  0  0  0  0  0  0  0
  -20.3144   15.0283    0.0000 H   0  0  0  0  0  0  0  0  0  0  0  0
  -17.3593   15.0267    0.0000 C   0  0  0  0  0  0  0  0  0  0  0  0
  -15.6451   14.0359    0.0000 H   0  0  0  0  0  0  0  0  0  0  0  0
  -17.8732   13.6175    0.0000 H   0  0  0  0  0  0  0  0  0  0  0  0
  -16.3947   16.1754    0.0000 C   0  0  0  0  0  0  0  0  0  0  0  0
  -16.9079   17.5858    0.0000 C   0  0  0  0  0  0  0  0  0  0  0  0
  -18.3858   17.8474    0.0000 C   0  0  0  0  0  0  0  0  0  0  0  0
  -19.6845   18.5980    0.0000 H   0  0  0  0  0  0  0  0  0  0  0  0
  -17.8719   19.2566    0.0000 H   0  0  0  0  0  0  0  0  0  0  0  0
  -15.9433   18.7345    0.0000 C   0  0  0  0  0  0  0  0  0  0  0  0
  -16.4483   20.1294    0.0000 C   0  0  0  0  0  0  0  0  0  0  0  0
  -17.9258   20.3878    0.0000 H   0  0  0  0  0  0  0  0  0  0  0  0
  -15.4894   21.2830    0.0000 C   0  0  0  0  0  0  0  0  0  0  0  0
  -16.0176   22.6869    0.0000 H   0  0  0  0  0  0  0  0  0  0  0  0
  -14.0193   21.0492    0.0000 C   0  0  0  0  0  0  0  0  0  0  0  0
  -13.4977   19.6274    0.0000 C   0  0  0  0  0  0  0  0  0  0  0  0
  -12.0195   19.3722    0.0000 H   0  0  0  0  0  0  0  0  0  0  0  0
  -14.4565   18.4739    0.0000 C   0  0  0  0  0  0  0  0  0  0  0  0
  -13.9395   17.0658    0.0000 H   0  0  0  0  0  0  0  0  0  0  0  0
  -13.0663   22.2076    0.0000 Cl  0  0  0  0  0  0  0  0  0  0  0  0
  -14.9175   15.9146    0.0000 C   0  0  0  0  0  0  0  0  0  0  0  0
  -14.9172   17.4146    0.0000 H   0  0  0  0  0  0  0  0  0  0  0  0
  -13.4403   16.1748    0.0000 H   0  0  0  0  0  0  0  0  0  0  0  0
  -13.9126   13.1517    0.0000 N   0  0  0  0  0  0  0  0  0  0  0  0
  -14.8779   12.0025    0.0000 C   0  0  0  0  0  0  0  0  0  0  0  0
  -16.1772   11.2529    0.0000 H   0  0  0  0  0  0  0  0  0  0  0  0
  -15.8416   13.1520    0.0000 H   0  0  0  0  0  0  0  0  0  0  0  0
  -14.3652   10.5929    0.0000 C   0  0  0  0  0  0  0  0  0  0  0  0
  -14.3652    9.0929    0.0000 H   0  0  0  0  0  0  0  0  0  0  0  0
  -15.8424   10.3326    0.0000 H   0  0  0  0  0  0  0  0  0  0  0  0
  -12.8871   10.3324    0.0000 N   0  0  0  0  0  0  0  0  0  0  0  0
  -11.9218   11.4816    0.0000 C   0  0  0  0  0  0  0  0  0  0  0  0
  -10.6225   12.2312    0.0000 H   0  0  0  0  0  0  0  0  0  0  0  0
  -10.9581   10.3321    0.0000 H   0  0  0  0  0  0  0  0  0  0  0  0
  -12.4345   12.8912    0.0000 C   0  0  0  0  0  0  0  0  0  0  0  0
  -12.4345   14.3912    0.0000 H   0  0  0  0  0  0  0  0  0  0  0  0
  -10.9573   13.1516    0.0000 H   0  0  0  0  0  0  0  0  0  0  0  0
  -11.1727    9.3419    0.0000 C   0  0  0  0  0  0  0  0  0  0  0  0
   -9.8726   10.0917    0.0000 C   0  0  0  0  0  0  0  0  0  0  0  0
   -9.8724   11.5917    0.0000 H   0  0  0  0  0  0  0  0  0  0  0  0
   -8.5727    9.3414    0.0000 C   0  0  0  0  0  0  0  0  0  0  0  0
   -7.2737   10.0914    0.0000 H   0  0  0  0  0  0  0  0  0  0  0  0
   -8.5730    7.8414    0.0000 C   0  0  0  0  0  0  0  0  0  0  0  0
   -9.8731    7.0917    0.0000 C   0  0  0  0  0  0  0  0  0  0  0  0
  -11.1730    7.8419    0.0000 C   0  0  0  0  0  0  0  0  0  0  0  0
  -12.4720    7.0919    0.0000 H   0  0  0  0  0  0  0  0  0  0  0  0
   -9.8735    4.6317    0.0000 O   0  0  0  0  0  0  0  0  0  0  0  0
  -11.1726    3.8819    0.0000 C   0  0  0  0  0  0  0  0  0  0  0  0
  -11.1731    2.3810    0.0000 C   0  0  0  0  0  0  0  0  0  0  0  0
   -9.8741    1.6310    0.0000 H   0  0  0  0  0  0  0  0  0  0  0  0
  -12.4726    1.6302    0.0000 C   0  0  0  0  0  0  0  0  0  0  0  0
  -13.7717    2.3802    0.0000 C   0  0  0  0  0  0  0  0  0  0  0  0
  -14.8850    1.3718    0.0000 N   0  0  0  0  0  0  0  0  0  0  0  0
  -16.3526    1.6818    0.0000 H   0  0  0  0  0  0  0  0  0  0  0  0
  -14.2772    0.0047    0.0000 C   0  0  0  0  0  0  0  0  0  0  0  0
  -15.0272   -1.2944    0.0000 H   0  0  0  0  0  0  0  0  0  0  0  0
  -12.7893    0.1618    0.0000 C   0  0  0  0  0  0  0  0  0  0  0  0
  -11.7869   -0.9542    0.0000 H   0  0  0  0  0  0  0  0  0  0  0  0
  -13.7712    3.8810    0.0000 N   0  0  0  0  0  0  0  0  0  0  0  0
  -12.4717    4.6319    0.0000 C   0  0  0  0  0  0  0  0  0  0  0  0
  -12.4719    6.1319    0.0000 H   0  0  0  0  0  0  0  0  0  0  0  0
   -7.2742    7.0910    0.0000 C   0  0  0  0  0  0  0  0  0  0  0  0
   -7.2746    5.5910    0.0000 O   0  0  0  0  0  0  0  0  0  0  0  0
   -5.9749    7.8406    0.0000 N   0  0  0  0  0  0  0  0  0  0  0  0
   -5.9744    9.3406    0.0000 H   0  0  0  0  0  0  0  0  0  0  0  0
   -4.6761    7.0902    0.0000 S   0  0  0  0  0  0  0  0  0  0  0  0
   -5.6406    5.9414    0.0000 O   0  0  0  0  0  0  0  0  0  0  0  0
   -3.7123    5.9408    0.0000 O   0  0  0  0  0  0  0  0  0  0  0  0
   -3.3768    7.8398    0.0000 C   0  0  0  0  0  0  0  0  0  0  0  0
   -3.3761    9.3406    0.0000 C   0  0  0  0  0  0  0  0  0  0  0  0
   -4.6750   10.0908    0.0000 H   0  0  0  0  0  0  0  0  0  0  0  0
   -2.0764   10.0912    0.0000 C   0  0  0  0  0  0  0  0  0  0  0  0
   -2.0764   11.5912    0.0000 H   0  0  0  0  0  0  0  0  0  0  0  0
   -0.7775    9.3410    0.0000 C   0  0  0  0  0  0  0  0  0  0  0  0
   -0.7783    7.8402    0.0000 C   0  0  0  0  0  0  0  0  0  0  0  0
   -2.0779    7.0896    0.0000 C   0  0  0  0  0  0  0  0  0  0  0  0
   -2.0779    5.5896    0.0000 H   0  0  0  0  0  0  0  0  0  0  0  0
    0.5207    7.0900    0.0000 N   0  0  0  0  0  0  0  0  0  0  0  0
    1.8198    7.8398    0.0000 O   0  0  0  0  0  0  0  0  0  0  0  0
    0.5204    5.5900    0.0000 O   0  0  0  0  0  0  0  0  0  0  0  0
    0.5217   10.0906    0.0000 N   0  0  0  0  0  0  0  0  0  0  0  0
    1.8205    9.3402    0.0000 H   0  0  0  0  0  0  0  0  0  0  0  0
    0.5222   11.5906    0.0000 C   0  0  0  0  0  0  0  0  0  0  0  0
   -0.9551   11.3306    0.0000 H   0  0  0  0  0  0  0  0  0  0  0  0
    0.0097   13.0003    0.0000 H   0  0  0  0  0  0  0  0  0  0  0  0
    2.6530   12.8199    0.0000 C   0  0  0  0  0  0  0  0  0  0  0  0
    3.1653   11.4101    0.0000 H   0  0  0  0  0  0  0  0  0  0  0  0
    1.6885   13.9697    0.0000 C   0  0  0  0  0  0  0  0  0  0  0  0
    0.3897   14.7202    0.0000 H   0  0  0  0  0  0  0  0  0  0  0  0
    0.7240   12.8209    0.0000 H   0  0  0  0  0  0  0  0  0  0  0  0
    2.2021   15.3791    0.0000 C   0  0  0  0  0  0  0  0  0  0  0  0
    2.2030   16.8791    0.0000 H   0  0  0  0  0  0  0  0  0  0  0  0
    0.7250   15.6403    0.0000 H   0  0  0  0  0  0  0  0  0  0  0  0
    3.6803   15.6386    0.0000 O   0  0  0  0  0  0  0  0  0  0  0  0
    4.6449   14.4888    0.0000 C   0  0  0  0  0  0  0  0  0  0  0  0
    5.9437   13.7383    0.0000 H   0  0  0  0  0  0  0  0  0  0  0  0
    5.6093   15.6376    0.0000 H   0  0  0  0  0  0  0  0  0  0  0  0
    4.1313   13.0794    0.0000 C   0  0  0  0  0  0  0  0  0  0  0  0
    4.1303   11.5794    0.0000 H   0  0  0  0  0  0  0  0  0  0  0  0
    5.6083   12.8182    0.0000 H   0  0  0  0  0  0  0  0  0  0  0  0
  -13.4003    8.9229    0.0000 O   0  0  0  0  0  0  0  0  0  0  0  0
  1  2  1  0  0  0  0 
  1  3  1  0  0  0  0 
  1  4  1  0  0  0  0 
  1  5  1  0  0  0  0 
  5  6  1  0  0  0  0 
  6  7  1  0  0  0  0 
  6  8  1  0  0  0  0 
  6  9  1  0  0  0  0 
  5 10  1  0  0  0  0 
 10 11  1  0  0  0  0 
 10 12  1  0  0  0  0 
 10 13  1  0  0  0  0 
 13 14  1  0  0  0  0 
 13 15  1  0  0  0  0 
 13 16  1  0  0  0  0 
 16 17  2  0  0  0  0 
 17 18  1  0  0  0  0 
  5 18  1  0  0  0  0 
 18 19  1  0  0  0  0 
 18 20  1  0  0  0  0 
 17 21  1  0  0  0  0 
 21 22  2  0  0  0  0 
 22 23  1  0  0  0  0 
 22 24  1  0  0  0  0 
 24 25  1  0  0  0  0 
 24 26  2  0  0  0  0 
 26 27  1  0  0  0  0 
 27 28  1  0  0  0  0 
 27 29  2  0  0  0  0 
 21 29  1  0  0  0  0 
 29 30  1  0  0  0  0 
 26 31  1  0  0  0  0 
 16 32  1  0  0  0  0 
 32 33  1  0  0  0  0 
 32 34  1  0  0  0  0 
 32 35  1  0  0  0  0 
 35 36  1  0  0  0  0 
 36 37  1  0  0  0  0 
 36 38  1  0  0  0  0 
 36 39  1  0  0  0  0 
 39 40  1  0  0  0  0 
 39 41  1  0  0  0  0 
 39 42  1  0  0  0  0 
 42 43  1  0  0  0  0 
 43 44  1  0  0  0  0 
 43 45  1  0  0  0  0 
 43 46  1  0  0  0  0 
 35 46  1  0  0  0  0 
 46 47  1  0  0  0  0 
 46 48  1  0  0  0  0 
 42 49  1  0  0  0  0 
 49 50  2  0  0  0  0 
 50 51  1  0  0  0  0 
 50 52  1  0  0  0  0 
 52 53  1  0  0  0  0 
 52 54  2  0  0  0  0 
 54 55  1  0  0  0  0 
 55 56  2  0  0  0  0 
 49 56  1  0  0  0  0 
 56 57  1  0  0  0  0 
 55 58  1  0  0  0  0 
 58 59  1  0  0  0  0 
 59 60  2  0  0  0  0 
 60 61  1  0  0  0  0 
 60 62  1  0  0  0  0 
 62 63  2  0  0  0  0 
 63 64  1  0  0  0  0 
 64 65  1  0  0  0  0 
 64 66  1  0  0  0  0 
 66 67  1  0  0  0  0 
 66 68  2  0  0  0  0 
 62 68  1  0  0  0  0 
 68 69  1  0  0  0  0 
 63 70  1  0  0  0  0 
 70 71  2  0  0  0  0 
 59 71  1  0  0  0  0 
 71 72  1  0  0  0  0 
 54 73  1  0  0  0  0 
 73 74  2  0  0  0  0 
 73 75  1  0  0  0  0 
 75 76  1  0  0  0  0 
 75 77  1  0  0  0  0 
 77 78  2  0  0  0  0 
 77 79  2  0  0  0  0 
 77 80  1  0  0  0  0 
 80 81  2  0  0  0  0 
 81 82  1  0  0  0  0 
 81 83  1  0  0  0  0 
 83 84  1  0  0  0  0 
 83 85  2  0  0  0  0 
 85 86  1  0  0  0  0 
 86 87  2  0  0  0  0 
 80 87  1  0  0  0  0 
 87 88  1  0  0  0  0 
 86 89  1  0  0  0  0 
 89 90  2  0  0  0  0 
 89 91  1  0  0  0  0 
 85 92  1  0  0  0  0 
 92 93  1  0  0  0  0 
 92 94  1  0  0  0  0 
 94 95  1  0  0  0  0 
 94 96  1  0  0  0  0 
 94 97  1  0  0  0  0 
 97 98  1  0  0  0  0 
 97 99  1  0  0  0  0 
 99100  1  0  0  0  0 
 99101  1  0  0  0  0 
 99102  1  0  0  0  0 
102103  1  0  0  0  0 
102104  1  0  0  0  0 
102105  1  0  0  0  0 
105106  1  0  0  0  0 
106107  1  0  0  0  0 
106108  1  0  0  0  0 
106109  1  0  0  0  0 
 97109  1  0  0  0  0 
109110  1  0  0  0  0 
109111  1  0  0  0  0 
 42112  1  0  0  0  0 
M  CHG  1  42   1
M  CHG  1  89   1
M  CHG  1  91  -1
M  CHG  1 112  -1
M  END
> <Rank>
25

> <Priority_score>
0.148

> <Reaction_type>
N-oxidation

> <Parent_ID>
12

> <Parent_InChI>
InChI=1S/C45H50ClN7O7S/c1-45(2)15-11-33(39(26-45)31-3-5-34(46)6-4-31)29-51-17-19-52(20-18-51)35-7-9-38(42(24-35)60-36-23-32-12-16-47-43(32)49-28-36)44(54)50-61(57,58)37-8-10-40(41(25-37)53(55)56)48-27-30-13-21-59-22-14-30/h3-10,12,16,23-25,28,30,48H,11,13-15,17-22,26-27,29H2,1-2H3,(H,47,49)(H,50,54)

> <Parent_SMILES>
CC1(C)CCC(CN2CCN(c3ccc(C(=O)NS(=O)(=O)c4ccc(NCC5CCOCC5)c([N+](=O)[O-])c4)c(Oc4cnc5[nH]ccc5c4)c3)CC2)=C(c2ccc(Cl)cc2)C1

$$$$
Molecule 12_metabolite 29
  CDK     0516241031

110117  0  0  0  0  0  0  0  0999 V2000
    4.0747   19.0716    0.0000 C   0  0  0  0  0  0  0  0  0  0  0  0
    2.5975   18.8115    0.0000 H   0  0  0  0  0  0  0  0  0  0  0  0
    5.3740   19.8212    0.0000 H   0  0  0  0  0  0  0  0  0  0  0  0
    3.5621   20.4812    0.0000 H   0  0  0  0  0  0  0  0  0  0  0  0
    5.6555   17.1867    0.0000 C   0  0  0  0  0  0  0  0  0  0  0  0
    7.2375   19.0706    0.0000 C   0  0  0  0  0  0  0  0  0  0  0  0
    6.7250   20.4803    0.0000 H   0  0  0  0  0  0  0  0  0  0  0  0
    8.5368   19.8201    0.0000 H   0  0  0  0  0  0  0  0  0  0  0  0
    8.2012   17.9211    0.0000 H   0  0  0  0  0  0  0  0  0  0  0  0
    4.3556   16.4365    0.0000 C   0  0  0  0  0  0  0  0  0  0  0  0
    2.8783   16.1769    0.0000 H   0  0  0  0  0  0  0  0  0  0  0  0
    3.8431   17.8462    0.0000 H   0  0  0  0  0  0  0  0  0  0  0  0
    4.3544   14.9356    0.0000 C   0  0  0  0  0  0  0  0  0  0  0  0
    3.6761   13.0754    0.0000 H   0  0  0  0  0  0  0  0  0  0  0  0
    2.8774   15.1971    0.0000 H   0  0  0  0  0  0  0  0  0  0  0  0
    5.6531   14.1850    0.0000 C   0  0  0  0  0  0  0  0  0  0  0  0
    6.9530   14.9352    0.0000 C   0  0  0  0  0  0  0  0  0  0  0  0
    6.9542   16.4361    0.0000 C   0  0  0  0  0  0  0  0  0  0  0  0
    7.4680   17.8453    0.0000 H   0  0  0  0  0  0  0  0  0  0  0  0
    8.4312   16.1746    0.0000 H   0  0  0  0  0  0  0  0  0  0  0  0
    8.2517   14.1846    0.0000 C   0  0  0  0  0  0  0  0  0  0  0  0
    9.5378   14.9240    0.0000 C   0  0  0  0  0  0  0  0  0  0  0  0
    9.5358   16.4240    0.0000 H   0  0  0  0  0  0  0  0  0  0  0  0
   10.8403   14.1799    0.0000 C   0  0  0  0  0  0  0  0  0  0  0  0
   12.1312   14.9437    0.0000 H   0  0  0  0  0  0  0  0  0  0  0  0
   10.8652   12.6915    0.0000 C   0  0  0  0  0  0  0  0  0  0  0  0
    9.5555   11.9310    0.0000 C   0  0  0  0  0  0  0  0  0  0  0  0
    9.5607   10.4310    0.0000 H   0  0  0  0  0  0  0  0  0  0  0  0
    8.2530   12.6751    0.0000 C   0  0  0  0  0  0  0  0  0  0  0  0
    6.9560   11.9216    0.0000 H   0  0  0  0  0  0  0  0  0  0  0  0
   12.1714   11.9540    0.0000 Cl  0  0  0  0  0  0  0  0  0  0  0  0
    5.6526   12.6850    0.0000 C   0  0  0  0  0  0  0  0  0  0  0  0
    7.1299   12.9450    0.0000 H   0  0  0  0  0  0  0  0  0  0  0  0
    6.1652   11.2753    0.0000 H   0  0  0  0  0  0  0  0  0  0  0  0
    3.1060   11.2158    0.0000 N   0  0  0  0  0  0  0  0  0  0  0  0
    1.8068   11.9671    0.0000 C   0  0  0  0  0  0  0  0  0  0  0  0
    0.8431   13.1166    0.0000 H   0  0  0  0  0  0  0  0  0  0  0  0
    2.7715   13.1156    0.0000 H   0  0  0  0  0  0  0  0  0  0  0  0
    0.5075   11.2175    0.0000 C   0  0  0  0  0  0  0  0  0  0  0  0
   -0.9698   10.9572    0.0000 H   0  0  0  0  0  0  0  0  0  0  0  0
   -0.0053   12.6271    0.0000 H   0  0  0  0  0  0  0  0  0  0  0  0
    0.5075    9.7167    0.0000 N   0  0  0  0  0  0  0  0  0  0  0  0
   -0.7918    8.9671    0.0000 C   0  0  0  0  0  0  0  0  0  0  0  0
   -2.0914    9.7177    0.0000 C   0  0  0  0  0  0  0  0  0  0  0  0
   -2.0907   11.2177    0.0000 H   0  0  0  0  0  0  0  0  0  0  0  0
   -3.3918    8.9683    0.0000 C   0  0  0  0  0  0  0  0  0  0  0  0
   -4.6904    9.7192    0.0000 H   0  0  0  0  0  0  0  0  0  0  0  0
   -3.3925    7.4683    0.0000 C   0  0  0  0  0  0  0  0  0  0  0  0
   -2.0929    6.7177    0.0000 C   0  0  0  0  0  0  0  0  0  0  0  0
   -0.7925    7.4671    0.0000 C   0  0  0  0  0  0  0  0  0  0  0  0
    0.5060    6.7162    0.0000 H   0  0  0  0  0  0  0  0  0  0  0  0
   -2.0941    4.2577    0.0000 O   0  0  0  0  0  0  0  0  0  0  0  0
   -0.7954    3.5071    0.0000 C   0  0  0  0  0  0  0  0  0  0  0  0
   -0.7959    2.0062    0.0000 C   0  0  0  0  0  0  0  0  0  0  0  0
   -2.0954    1.2571    0.0000 H   0  0  0  0  0  0  0  0  0  0  0  0
    0.5032    1.2546    0.0000 C   0  0  0  0  0  0  0  0  0  0  0  0
    1.8027    2.0037    0.0000 C   0  0  0  0  0  0  0  0  0  0  0  0
    2.9154    0.9946    0.0000 N   0  0  0  0  0  0  0  0  0  0  0  0
    4.3832    1.3037    0.0000 H   0  0  0  0  0  0  0  0  0  0  0  0
    2.3066   -0.3721    0.0000 C   0  0  0  0  0  0  0  0  0  0  0  0
    3.0558   -1.6716    0.0000 H   0  0  0  0  0  0  0  0  0  0  0  0
    0.8189   -0.2140    0.0000 C   0  0  0  0  0  0  0  0  0  0  0  0
   -0.1842   -1.3293    0.0000 H   0  0  0  0  0  0  0  0  0  0  0  0
    1.8032    3.5046    0.0000 N   0  0  0  0  0  0  0  0  0  0  0  0
    0.5041    4.2562    0.0000 C   0  0  0  0  0  0  0  0  0  0  0  0
    0.5053    5.7562    0.0000 H   0  0  0  0  0  0  0  0  0  0  0  0
   -4.6918    6.7187    0.0000 C   0  0  0  0  0  0  0  0  0  0  0  0
   -4.6923    5.2187    0.0000 O   0  0  0  0  0  0  0  0  0  0  0  0
   -5.9906    7.4692    0.0000 N   0  0  0  0  0  0  0  0  0  0  0  0
   -5.9901    8.9692    0.0000 H   0  0  0  0  0  0  0  0  0  0  0  0
   -7.2899    6.7196    0.0000 S   0  0  0  0  0  0  0  0  0  0  0  0
   -6.3261    5.5702    0.0000 O   0  0  0  0  0  0  0  0  0  0  0  0
   -8.2544    5.5708    0.0000 O   0  0  0  0  0  0  0  0  0  0  0  0
   -8.5887    7.4700    0.0000 C   0  0  0  0  0  0  0  0  0  0  0  0
   -8.5884    8.9708    0.0000 C   0  0  0  0  0  0  0  0  0  0  0  0
   -7.2890    9.7202    0.0000 H   0  0  0  0  0  0  0  0  0  0  0  0
   -9.8876    9.7223    0.0000 C   0  0  0  0  0  0  0  0  0  0  0  0
   -9.8866   11.2223    0.0000 H   0  0  0  0  0  0  0  0  0  0  0  0
  -11.1870    8.9729    0.0000 C   0  0  0  0  0  0  0  0  0  0  0  0
  -11.1872    7.4721    0.0000 C   0  0  0  0  0  0  0  0  0  0  0  0
   -9.8881    6.7206    0.0000 C   0  0  0  0  0  0  0  0  0  0  0  0
   -9.8890    5.2206    0.0000 H   0  0  0  0  0  0  0  0  0  0  0  0
  -12.4866    6.7227    0.0000 N   0  0  0  0  0  0  0  0  0  0  0  0
  -13.7853    7.4733    0.0000 O   0  0  0  0  0  0  0  0  0  0  0  0
  -12.4874    5.2227    0.0000 O   0  0  0  0  0  0  0  0  0  0  0  0
  -12.4858    9.7233    0.0000 N   0  0  0  0  0  0  0  0  0  0  0  0
  -13.7851    8.9737    0.0000 H   0  0  0  0  0  0  0  0  0  0  0  0
  -12.4853   11.2233    0.0000 C   0  0  0  0  0  0  0  0  0  0  0  0
  -11.0082   10.9624    0.0000 H   0  0  0  0  0  0  0  0  0  0  0  0
  -11.9718   12.6327    0.0000 H   0  0  0  0  0  0  0  0  0  0  0  0
  -14.6153   12.4540    0.0000 C   0  0  0  0  0  0  0  0  0  0  0  0
  -15.1285   11.0445    0.0000 H   0  0  0  0  0  0  0  0  0  0  0  0
  -13.6500   13.6032    0.0000 C   0  0  0  0  0  0  0  0  0  0  0  0
  -12.3507   14.3528    0.0000 H   0  0  0  0  0  0  0  0  0  0  0  0
  -12.6863   12.4537    0.0000 H   0  0  0  0  0  0  0  0  0  0  0  0
  -14.1627   15.0128    0.0000 C   0  0  0  0  0  0  0  0  0  0  0  0
  -14.1627   16.5128    0.0000 H   0  0  0  0  0  0  0  0  0  0  0  0
  -12.6855   15.2732    0.0000 H   0  0  0  0  0  0  0  0  0  0  0  0
  -15.6408   15.2733    0.0000 O   0  0  0  0  0  0  0  0  0  0  0  0
  -16.6061   14.1241    0.0000 C   0  0  0  0  0  0  0  0  0  0  0  0
  -17.9054   13.3745    0.0000 H   0  0  0  0  0  0  0  0  0  0  0  0
  -17.5698   15.2736    0.0000 H   0  0  0  0  0  0  0  0  0  0  0  0
  -16.0934   12.7145    0.0000 C   0  0  0  0  0  0  0  0  0  0  0  0
  -16.0934   11.2145    0.0000 H   0  0  0  0  0  0  0  0  0  0  0  0
  -17.5706   12.4541    0.0000 H   0  0  0  0  0  0  0  0  0  0  0  0
    1.8068    8.9654    0.0000 C   0  0  0  0  0  0  0  0  0  0  0  0
    1.8060    7.4654    0.0000 O   0  0  0  0  0  0  0  0  0  0  0  0
    3.1060    9.7150    0.0000 C   0  0  0  0  0  0  0  0  0  0  0  0
    4.5833    9.9753    0.0000 H   0  0  0  0  0  0  0  0  0  0  0  0
    3.6188    8.3053    0.0000 H   0  0  0  0  0  0  0  0  0  0  0  0
  1  2  1  0  0  0  0 
  1  3  1  0  0  0  0 
  1  4  1  0  0  0  0 
  1  5  1  0  0  0  0 
  5  6  1  0  0  0  0 
  6  7  1  0  0  0  0 
  6  8  1  0  0  0  0 
  6  9  1  0  0  0  0 
  5 10  1  0  0  0  0 
 10 11  1  0  0  0  0 
 10 12  1  0  0  0  0 
 10 13  1  0  0  0  0 
 13 14  1  0  0  0  0 
 13 15  1  0  0  0  0 
 13 16  1  0  0  0  0 
 16 17  2  0  0  0  0 
 17 18  1  0  0  0  0 
  5 18  1  0  0  0  0 
 18 19  1  0  0  0  0 
 18 20  1  0  0  0  0 
 17 21  1  0  0  0  0 
 21 22  2  0  0  0  0 
 22 23  1  0  0  0  0 
 22 24  1  0  0  0  0 
 24 25  1  0  0  0  0 
 24 26  2  0  0  0  0 
 26 27  1  0  0  0  0 
 27 28  1  0  0  0  0 
 27 29  2  0  0  0  0 
 21 29  1  0  0  0  0 
 29 30  1  0  0  0  0 
 26 31  1  0  0  0  0 
 16 32  1  0  0  0  0 
 32 33  1  0  0  0  0 
 32 34  1  0  0  0  0 
 32 35  1  0  0  0  0 
 35 36  1  0  0  0  0 
 36 37  1  0  0  0  0 
 36 38  1  0  0  0  0 
 36 39  1  0  0  0  0 
 39 40  1  0  0  0  0 
 39 41  1  0  0  0  0 
 39 42  1  0  0  0  0 
 42 43  1  0  0  0  0 
 43 44  2  0  0  0  0 
 44 45  1  0  0  0  0 
 44 46  1  0  0  0  0 
 46 47  1  0  0  0  0 
 46 48  2  0  0  0  0 
 48 49  1  0  0  0  0 
 49 50  2  0  0  0  0 
 43 50  1  0  0  0  0 
 50 51  1  0  0  0  0 
 49 52  1  0  0  0  0 
 52 53  1  0  0  0  0 
 53 54  2  0  0  0  0 
 54 55  1  0  0  0  0 
 54 56  1  0  0  0  0 
 56 57  2  0  0  0  0 
 57 58  1  0  0  0  0 
 58 59  1  0  0  0  0 
 58 60  1  0  0  0  0 
 60 61  1  0  0  0  0 
 60 62  2  0  0  0  0 
 56 62  1  0  0  0  0 
 62 63  1  0  0  0  0 
 57 64  1  0  0  0  0 
 64 65  2  0  0  0  0 
 53 65  1  0  0  0  0 
 65 66  1  0  0  0  0 
 48 67  1  0  0  0  0 
 67 68  2  0  0  0  0 
 67 69  1  0  0  0  0 
 69 70  1  0  0  0  0 
 69 71  1  0  0  0  0 
 71 72  2  0  0  0  0 
 71 73  2  0  0  0  0 
 71 74  1  0  0  0  0 
 74 75  2  0  0  0  0 
 75 76  1  0  0  0  0 
 75 77  1  0  0  0  0 
 77 78  1  0  0  0  0 
 77 79  2  0  0  0  0 
 79 80  1  0  0  0  0 
 80 81  2  0  0  0  0 
 74 81  1  0  0  0  0 
 81 82  1  0  0  0  0 
 80 83  1  0  0  0  0 
 83 84  2  0  0  0  0 
 83 85  1  0  0  0  0 
 79 86  1  0  0  0  0 
 86 87  1  0  0  0  0 
 86 88  1  0  0  0  0 
 88 89  1  0  0  0  0 
 88 90  1  0  0  0  0 
 88 91  1  0  0  0  0 
 91 92  1  0  0  0  0 
 91 93  1  0  0  0  0 
 93 94  1  0  0  0  0 
 93 95  1  0  0  0  0 
 93 96  1  0  0  0  0 
 96 97  1  0  0  0  0 
 96 98  1  0  0  0  0 
 96 99  1  0  0  0  0 
 99100  1  0  0  0  0 
100101  1  0  0  0  0 
100102  1  0  0  0  0 
100103  1  0  0  0  0 
 91103  1  0  0  0  0 
103104  1  0  0  0  0 
103105  1  0  0  0  0 
 42106  1  0  0  0  0 
106107  2  0  0  0  0 
106108  1  0  0  0  0 
 35108  1  0  0  0  0 
108109  1  0  0  0  0 
108110  1  0  0  0  0 
M  CHG  1  83   1
M  CHG  1  85  -1
M  END
> <Rank>
25

> <Priority_score>
0.148

> <Reaction_type>
oxidation_(amine_in_a_ring)

> <Parent_ID>
12

> <Parent_InChI>
InChI=1S/C45H50ClN7O7S/c1-45(2)15-11-33(39(26-45)31-3-5-34(46)6-4-31)29-51-17-19-52(20-18-51)35-7-9-38(42(24-35)60-36-23-32-12-16-47-43(32)49-28-36)44(54)50-61(57,58)37-8-10-40(41(25-37)53(55)56)48-27-30-13-21-59-22-14-30/h3-10,12,16,23-25,28,30,48H,11,13-15,17-22,26-27,29H2,1-2H3,(H,47,49)(H,50,54)

> <Parent_SMILES>
CC1(C)CCC(CN2CCN(c3ccc(C(=O)NS(=O)(=O)c4ccc(NCC5CCOCC5)c([N+](=O)[O-])c4)c(Oc4cnc5[nH]ccc5c4)c3)CC2)=C(c2ccc(Cl)cc2)C1

$$$$
Molecule 12_metabolite 30
  CDK     0516241031

112119  0  0  0  0  0  0  0  0999 V2000
   23.5256   -9.1641    0.0000 C   0  0  0  0  0  0  0  0  0  0  0  0
   24.0390   -7.7547    0.0000 H   0  0  0  0  0  0  0  0  0  0  0  0
   23.5252  -10.6641    0.0000 H   0  0  0  0  0  0  0  0  0  0  0  0
   25.0027   -9.4249    0.0000 H   0  0  0  0  0  0  0  0  0  0  0  0
   21.1028   -9.5906    0.0000 C   0  0  0  0  0  0  0  0  0  0  0  0
   21.9433  -11.9025    0.0000 C   0  0  0  0  0  0  0  0  0  0  0  0
   23.4205  -12.1636    0.0000 H   0  0  0  0  0  0  0  0  0  0  0  0
   21.9428  -13.4025    0.0000 H   0  0  0  0  0  0  0  0  0  0  0  0
   20.4660  -12.1625    0.0000 H   0  0  0  0  0  0  0  0  0  0  0  0
   21.1031   -8.0897    0.0000 C   0  0  0  0  0  0  0  0  0  0  0  0
   21.6169   -6.6805    0.0000 H   0  0  0  0  0  0  0  0  0  0  0  0
   22.5802   -8.3508    0.0000 H   0  0  0  0  0  0  0  0  0  0  0  0
   19.8039   -7.3383    0.0000 C   0  0  0  0  0  0  0  0  0  0  0  0
   18.5045   -8.0877    0.0000 C   0  0  0  0  0  0  0  0  0  0  0  0
   18.5043   -9.5885    0.0000 C   0  0  0  0  0  0  0  0  0  0  0  0
   17.9904  -10.9977    0.0000 H   0  0  0  0  0  0  0  0  0  0  0  0
   16.5545   -9.2439    0.0000 H   0  0  0  0  0  0  0  0  0  0  0  0
   19.8034  -10.3400    0.0000 C   0  0  0  0  0  0  0  0  0  0  0  0
   20.7670  -11.4896    0.0000 H   0  0  0  0  0  0  0  0  0  0  0  0
   18.8385  -11.4884    0.0000 O   0  0  0  0  0  0  0  0  0  0  0  0
   19.3505  -12.8982    0.0000 H   0  0  0  0  0  0  0  0  0  0  0  0
   17.2057   -7.3373    0.0000 C   0  0  0  0  0  0  0  0  0  0  0  0
   18.1703   -6.1885    0.0000 H   0  0  0  0  0  0  0  0  0  0  0  0
   16.2419   -6.1879    0.0000 H   0  0  0  0  0  0  0  0  0  0  0  0
   14.6591   -8.8064    0.0000 N   0  0  0  0  0  0  0  0  0  0  0  0
   13.3595   -8.0558    0.0000 C   0  0  0  0  0  0  0  0  0  0  0  0
   14.3241   -6.9071    0.0000 H   0  0  0  0  0  0  0  0  0  0  0  0
   12.3960   -6.9062    0.0000 H   0  0  0  0  0  0  0  0  0  0  0  0
   12.0591   -8.8052    0.0000 C   0  0  0  0  0  0  0  0  0  0  0  0
   11.5471   -7.3953    0.0000 H   0  0  0  0  0  0  0  0  0  0  0  0
   10.5818   -9.0648    0.0000 H   0  0  0  0  0  0  0  0  0  0  0  0
   12.0584  -10.3052    0.0000 N   0  0  0  0  0  0  0  0  0  0  0  0
   13.3581  -11.0558    0.0000 C   0  0  0  0  0  0  0  0  0  0  0  0
   12.3935  -12.2045    0.0000 H   0  0  0  0  0  0  0  0  0  0  0  0
   14.3216  -12.2054    0.0000 H   0  0  0  0  0  0  0  0  0  0  0  0
   14.6584  -10.3064    0.0000 C   0  0  0  0  0  0  0  0  0  0  0  0
   15.1705  -11.7163    0.0000 H   0  0  0  0  0  0  0  0  0  0  0  0
   16.1358  -10.0468    0.0000 H   0  0  0  0  0  0  0  0  0  0  0  0
   10.7591  -11.0548    0.0000 C   0  0  0  0  0  0  0  0  0  0  0  0
   10.7584  -12.5556    0.0000 C   0  0  0  0  0  0  0  0  0  0  0  0
   12.0573  -13.3058    0.0000 H   0  0  0  0  0  0  0  0  0  0  0  0
    9.4588  -13.3062    0.0000 C   0  0  0  0  0  0  0  0  0  0  0  0
    9.4588  -14.8062    0.0000 H   0  0  0  0  0  0  0  0  0  0  0  0
    8.1599  -12.5560    0.0000 C   0  0  0  0  0  0  0  0  0  0  0  0
    8.1606  -11.0552    0.0000 C   0  0  0  0  0  0  0  0  0  0  0  0
    9.4602  -10.3046    0.0000 C   0  0  0  0  0  0  0  0  0  0  0  0
    9.4602   -8.8046    0.0000 H   0  0  0  0  0  0  0  0  0  0  0  0
    6.0304   -9.8248    0.0000 O   0  0  0  0  0  0  0  0  0  0  0  0
    6.0306   -8.3248    0.0000 C   0  0  0  0  0  0  0  0  0  0  0  0
    4.7311   -7.5740    0.0000 C   0  0  0  0  0  0  0  0  0  0  0  0
    3.4320   -8.3240    0.0000 H   0  0  0  0  0  0  0  0  0  0  0  0
    4.7306   -6.0732    0.0000 C   0  0  0  0  0  0  0  0  0  0  0  0
    6.0296   -5.3232    0.0000 C   0  0  0  0  0  0  0  0  0  0  0  0
    5.7130   -3.8548    0.0000 N   0  0  0  0  0  0  0  0  0  0  0  0
    6.7153   -2.7388    0.0000 H   0  0  0  0  0  0  0  0  0  0  0  0
    4.2251   -3.6977    0.0000 C   0  0  0  0  0  0  0  0  0  0  0  0
    3.4751   -2.3986    0.0000 H   0  0  0  0  0  0  0  0  0  0  0  0
    3.6172   -5.0648    0.0000 C   0  0  0  0  0  0  0  0  0  0  0  0
    2.1496   -5.3748    0.0000 H   0  0  0  0  0  0  0  0  0  0  0  0
    7.3292   -6.0740    0.0000 N   0  0  0  0  0  0  0  0  0  0  0  0
    7.3296   -7.5748    0.0000 C   0  0  0  0  0  0  0  0  0  0  0  0
    8.6288   -8.3246    0.0000 H   0  0  0  0  0  0  0  0  0  0  0  0
    6.8606  -13.3056    0.0000 C   0  0  0  0  0  0  0  0  0  0  0  0
    5.5618  -12.5552    0.0000 O   0  0  0  0  0  0  0  0  0  0  0  0
    6.8601  -14.8056    0.0000 N   0  0  0  0  0  0  0  0  0  0  0  0
    8.1589  -15.5560    0.0000 H   0  0  0  0  0  0  0  0  0  0  0  0
    5.5608  -15.5552    0.0000 S   0  0  0  0  0  0  0  0  0  0  0  0
    5.0483  -14.1455    0.0000 O   0  0  0  0  0  0  0  0  0  0  0  0
    4.0835  -15.8152    0.0000 O   0  0  0  0  0  0  0  0  0  0  0  0
    5.5603  -17.0552    0.0000 C   0  0  0  0  0  0  0  0  0  0  0  0
    6.8597  -17.8062    0.0000 C   0  0  0  0  0  0  0  0  0  0  0  0
    8.1589  -17.0564    0.0000 H   0  0  0  0  0  0  0  0  0  0  0  0
    6.8600  -19.3071    0.0000 C   0  0  0  0  0  0  0  0  0  0  0  0
    8.1590  -20.0571    0.0000 H   0  0  0  0  0  0  0  0  0  0  0  0
    5.5608  -20.0569    0.0000 C   0  0  0  0  0  0  0  0  0  0  0  0
    4.2614  -19.3058    0.0000 C   0  0  0  0  0  0  0  0  0  0  0  0
    4.2612  -17.8050    0.0000 C   0  0  0  0  0  0  0  0  0  0  0  0
    2.9622  -17.0550    0.0000 H   0  0  0  0  0  0  0  0  0  0  0  0
    2.9623  -20.0556    0.0000 N   0  0  0  0  0  0  0  0  0  0  0  0
    2.9620  -21.5556    0.0000 O   0  0  0  0  0  0  0  0  0  0  0  0
    1.6634  -19.3054    0.0000 O   0  0  0  0  0  0  0  0  0  0  0  0
    5.5604  -21.5569    0.0000 N   0  0  0  0  0  0  0  0  0  0  0  0
    4.2611  -22.3064    0.0000 H   0  0  0  0  0  0  0  0  0  0  0  0
    6.8591  -22.3073    0.0000 C   0  0  0  0  0  0  0  0  0  0  0  0
    7.3726  -20.8979    0.0000 H   0  0  0  0  0  0  0  0  0  0  0  0
    8.3363  -22.5682    0.0000 H   0  0  0  0  0  0  0  0  0  0  0  0
    6.8584  -24.7673    0.0000 C   0  0  0  0  0  0  0  0  0  0  0  0
    5.3813  -24.5060    0.0000 H   0  0  0  0  0  0  0  0  0  0  0  0
    8.3364  -24.5068    0.0000 C   0  0  0  0  0  0  0  0  0  0  0  0
    9.6357  -23.7572    0.0000 H   0  0  0  0  0  0  0  0  0  0  0  0
    7.8237  -23.0972    0.0000 H   0  0  0  0  0  0  0  0  0  0  0  0
    9.3001  -25.6563    0.0000 C   0  0  0  0  0  0  0  0  0  0  0  0
   10.5987  -26.4071    0.0000 H   0  0  0  0  0  0  0  0  0  0  0  0
   10.2649  -24.5077    0.0000 H   0  0  0  0  0  0  0  0  0  0  0  0
    8.7857  -27.0662    0.0000 O   0  0  0  0  0  0  0  0  0  0  0  0
    7.3077  -27.3267    0.0000 C   0  0  0  0  0  0  0  0  0  0  0  0
    6.0084  -28.0763    0.0000 H   0  0  0  0  0  0  0  0  0  0  0  0
    7.8204  -28.7363    0.0000 H   0  0  0  0  0  0  0  0  0  0  0  0
    6.3440  -26.1772    0.0000 C   0  0  0  0  0  0  0  0  0  0  0  0
    5.0454  -25.4264    0.0000 H   0  0  0  0  0  0  0  0  0  0  0  0
    5.3792  -27.3258    0.0000 H   0  0  0  0  0  0  0  0  0  0  0  0
   19.8049   -5.8383    0.0000 C   0  0  0  0  0  0  0  0  0  0  0  0
   18.5216   -5.0939    0.0000 C   0  0  0  0  0  0  0  0  0  0  0  0
   17.2235   -5.8454    0.0000 H   0  0  0  0  0  0  0  0  0  0  0  0
   18.5150   -3.5939    0.0000 C   0  0  0  0  0  0  0  0  0  0  0  0
   17.2082   -2.8576    0.0000 H   0  0  0  0  0  0  0  0  0  0  0  0
   19.7917   -2.8283    0.0000 C   0  0  0  0  0  0  0  0  0  0  0  0
   21.1050   -3.5826    0.0000 C   0  0  0  0  0  0  0  0  0  0  0  0
   22.4015   -2.8282    0.0000 H   0  0  0  0  0  0  0  0  0  0  0  0
   21.1116   -5.0826    0.0000 C   0  0  0  0  0  0  0  0  0  0  0  0
   22.4125   -5.8292    0.0000 H   0  0  0  0  0  0  0  0  0  0  0  0
   19.7775   -1.3284    0.0000 Cl  0  0  0  0  0  0  0  0  0  0  0  0
  1  2  1  0  0  0  0 
  1  3  1  0  0  0  0 
  1  4  1  0  0  0  0 
  1  5  1  0  0  0  0 
  5  6  1  0  0  0  0 
  6  7  1  0  0  0  0 
  6  8  1  0  0  0  0 
  6  9  1  0  0  0  0 
  5 10  1  0  0  0  0 
 10 11  1  0  0  0  0 
 10 12  1  0  0  0  0 
 10 13  1  0  0  0  0 
 13 14  2  0  0  0  0 
 14 15  1  0  0  0  0 
 15 16  1  0  0  0  0 
 15 17  1  0  0  0  0 
 15 18  1  0  0  0  0 
  5 18  1  0  0  0  0 
 18 19  1  0  0  0  0 
 18 20  1  0  0  0  0 
 20 21  1  0  0  0  0 
 14 22  1  0  0  0  0 
 22 23  1  0  0  0  0 
 22 24  1  0  0  0  0 
 22 25  1  0  0  0  0 
 25 26  1  0  0  0  0 
 26 27  1  0  0  0  0 
 26 28  1  0  0  0  0 
 26 29  1  0  0  0  0 
 29 30  1  0  0  0  0 
 29 31  1  0  0  0  0 
 29 32  1  0  0  0  0 
 32 33  1  0  0  0  0 
 33 34  1  0  0  0  0 
 33 35  1  0  0  0  0 
 33 36  1  0  0  0  0 
 25 36  1  0  0  0  0 
 36 37  1  0  0  0  0 
 36 38  1  0  0  0  0 
 32 39  1  0  0  0  0 
 39 40  2  0  0  0  0 
 40 41  1  0  0  0  0 
 40 42  1  0  0  0  0 
 42 43  1  0  0  0  0 
 42 44  2  0  0  0  0 
 44 45  1  0  0  0  0 
 45 46  2  0  0  0  0 
 39 46  1  0  0  0  0 
 46 47  1  0  0  0  0 
 45 48  1  0  0  0  0 
 48 49  1  0  0  0  0 
 49 50  2  0  0  0  0 
 50 51  1  0  0  0  0 
 50 52  1  0  0  0  0 
 52 53  2  0  0  0  0 
 53 54  1  0  0  0  0 
 54 55  1  0  0  0  0 
 54 56  1  0  0  0  0 
 56 57  1  0  0  0  0 
 56 58  2  0  0  0  0 
 52 58  1  0  0  0  0 
 58 59  1  0  0  0  0 
 53 60  1  0  0  0  0 
 60 61  2  0  0  0  0 
 49 61  1  0  0  0  0 
 61 62  1  0  0  0  0 
 44 63  1  0  0  0  0 
 63 64  2  0  0  0  0 
 63 65  1  0  0  0  0 
 65 66  1  0  0  0  0 
 65 67  1  0  0  0  0 
 67 68  2  0  0  0  0 
 67 69  2  0  0  0  0 
 67 70  1  0  0  0  0 
 70 71  2  0  0  0  0 
 71 72  1  0  0  0  0 
 71 73  1  0  0  0  0 
 73 74  1  0  0  0  0 
 73 75  2  0  0  0  0 
 75 76  1  0  0  0  0 
 76 77  2  0  0  0  0 
 70 77  1  0  0  0  0 
 77 78  1  0  0  0  0 
 76 79  1  0  0  0  0 
 79 80  2  0  0  0  0 
 79 81  1  0  0  0  0 
 75 82  1  0  0  0  0 
 82 83  1  0  0  0  0 
 82 84  1  0  0  0  0 
 84 85  1  0  0  0  0 
 84 86  1  0  0  0  0 
 84 87  1  0  0  0  0 
 87 88  1  0  0  0  0 
 87 89  1  0  0  0  0 
 89 90  1  0  0  0  0 
 89 91  1  0  0  0  0 
 89 92  1  0  0  0  0 
 92 93  1  0  0  0  0 
 92 94  1  0  0  0  0 
 92 95  1  0  0  0  0 
 95 96  1  0  0  0  0 
 96 97  1  0  0  0  0 
 96 98  1  0  0  0  0 
 96 99  1  0  0  0  0 
 87 99  1  0  0  0  0 
 99100  1  0  0  0  0 
 99101  1  0  0  0  0 
 13102  1  0  0  0  0 
102103  2  0  0  0  0 
103104  1  0  0  0  0 
103105  1  0  0  0  0 
105106  1  0  0  0  0 
105107  2  0  0  0  0 
107108  1  0  0  0  0 
108109  1  0  0  0  0 
108110  2  0  0  0  0 
102110  1  0  0  0  0 
110111  1  0  0  0  0 
107112  1  0  0  0  0 
M  CHG  1  79   1
M  CHG  1  81  -1
M  END
> <Rank>
30

> <Priority_score>
0.14776587178693096

> <Reaction_type>
aliphatic_hydroxylation_(sec_carbon_in_a_ringB)

> <Parent_ID>
12

> <Parent_InChI>
InChI=1S/C45H50ClN7O7S/c1-45(2)15-11-33(39(26-45)31-3-5-34(46)6-4-31)29-51-17-19-52(20-18-51)35-7-9-38(42(24-35)60-36-23-32-12-16-47-43(32)49-28-36)44(54)50-61(57,58)37-8-10-40(41(25-37)53(55)56)48-27-30-13-21-59-22-14-30/h3-10,12,16,23-25,28,30,48H,11,13-15,17-22,26-27,29H2,1-2H3,(H,47,49)(H,50,54)

> <Parent_SMILES>
CC1(C)CCC(CN2CCN(c3ccc(C(=O)NS(=O)(=O)c4ccc(NCC5CCOCC5)c([N+](=O)[O-])c4)c(Oc4cnc5[nH]ccc5c4)c3)CC2)=C(c2ccc(Cl)cc2)C1

$$$$
Molecule 12_metabolite 31
  CDK     0516241031

112119  0  0  0  0  0  0  0  0999 V2000
    4.0755   19.0737    0.0000 C   0  0  0  0  0  0  0  0  0  0  0  0
    4.5889   20.4831    0.0000 H   0  0  0  0  0  0  0  0  0  0  0  0
    3.1110   17.9248    0.0000 H   0  0  0  0  0  0  0  0  0  0  0  0
    2.7766   19.8240    0.0000 H   0  0  0  0  0  0  0  0  0  0  0  0
    5.6562   17.1888    0.0000 C   0  0  0  0  0  0  0  0  0  0  0  0
    4.3563   16.4386    0.0000 C   0  0  0  0  0  0  0  0  0  0  0  0
    2.8790   16.1789    0.0000 H   0  0  0  0  0  0  0  0  0  0  0  0
    3.8438   17.8483    0.0000 H   0  0  0  0  0  0  0  0  0  0  0  0
    4.3551   14.9377    0.0000 C   0  0  0  0  0  0  0  0  0  0  0  0
    3.6768   13.0775    0.0000 H   0  0  0  0  0  0  0  0  0  0  0  0
    2.8781   15.1992    0.0000 H   0  0  0  0  0  0  0  0  0  0  0  0
    5.6538   14.1871    0.0000 C   0  0  0  0  0  0  0  0  0  0  0  0
    6.9537   14.9373    0.0000 C   0  0  0  0  0  0  0  0  0  0  0  0
    6.9549   16.4381    0.0000 C   0  0  0  0  0  0  0  0  0  0  0  0
    7.4688   17.8474    0.0000 H   0  0  0  0  0  0  0  0  0  0  0  0
    8.4319   16.1766    0.0000 H   0  0  0  0  0  0  0  0  0  0  0  0
    8.2524   14.1867    0.0000 C   0  0  0  0  0  0  0  0  0  0  0  0
    9.5386   14.9260    0.0000 C   0  0  0  0  0  0  0  0  0  0  0  0
    9.5365   16.4260    0.0000 H   0  0  0  0  0  0  0  0  0  0  0  0
   10.8410   14.1819    0.0000 C   0  0  0  0  0  0  0  0  0  0  0  0
   12.1320   14.9457    0.0000 H   0  0  0  0  0  0  0  0  0  0  0  0
   10.8659   12.6935    0.0000 C   0  0  0  0  0  0  0  0  0  0  0  0
    9.5562   11.9331    0.0000 C   0  0  0  0  0  0  0  0  0  0  0  0
    9.5614   10.4331    0.0000 H   0  0  0  0  0  0  0  0  0  0  0  0
    8.2538   12.6772    0.0000 C   0  0  0  0  0  0  0  0  0  0  0  0
    6.9568   11.9236    0.0000 H   0  0  0  0  0  0  0  0  0  0  0  0
   12.1721   11.9560    0.0000 Cl  0  0  0  0  0  0  0  0  0  0  0  0
    5.6533   12.6871    0.0000 C   0  0  0  0  0  0  0  0  0  0  0  0
    7.1306   12.9471    0.0000 H   0  0  0  0  0  0  0  0  0  0  0  0
    6.1659   11.2774    0.0000 H   0  0  0  0  0  0  0  0  0  0  0  0
    3.1068   11.2179    0.0000 N   0  0  0  0  0  0  0  0  0  0  0  0
    3.1060    9.7171    0.0000 C   0  0  0  0  0  0  0  0  0  0  0  0
    4.5833    9.9772    0.0000 H   0  0  0  0  0  0  0  0  0  0  0  0
    3.6190    8.3075    0.0000 H   0  0  0  0  0  0  0  0  0  0  0  0
    1.8064    8.9665    0.0000 C   0  0  0  0  0  0  0  0  0  0  0  0
    2.7706    7.8174    0.0000 H   0  0  0  0  0  0  0  0  0  0  0  0
    0.8422    7.8174    0.0000 H   0  0  0  0  0  0  0  0  0  0  0  0
    0.5075    9.7167    0.0000 N   0  0  0  0  0  0  0  0  0  0  0  0
    0.5082   11.2175    0.0000 C   0  0  0  0  0  0  0  0  0  0  0  0
   -0.9691   10.9574    0.0000 H   0  0  0  0  0  0  0  0  0  0  0  0
   -0.0048   12.6271    0.0000 H   0  0  0  0  0  0  0  0  0  0  0  0
    1.8078   11.9681    0.0000 C   0  0  0  0  0  0  0  0  0  0  0  0
    0.8436   13.1171    0.0000 H   0  0  0  0  0  0  0  0  0  0  0  0
    2.7721   13.1171    0.0000 H   0  0  0  0  0  0  0  0  0  0  0  0
   -0.7918    8.9671    0.0000 C   0  0  0  0  0  0  0  0  0  0  0  0
   -2.0914    9.7177    0.0000 C   0  0  0  0  0  0  0  0  0  0  0  0
   -2.0907   11.2177    0.0000 H   0  0  0  0  0  0  0  0  0  0  0  0
   -3.3918    8.9683    0.0000 C   0  0  0  0  0  0  0  0  0  0  0  0
   -4.6904    9.7192    0.0000 H   0  0  0  0  0  0  0  0  0  0  0  0
   -3.3925    7.4683    0.0000 C   0  0  0  0  0  0  0  0  0  0  0  0
   -2.0929    6.7177    0.0000 C   0  0  0  0  0  0  0  0  0  0  0  0
   -0.7925    7.4671    0.0000 C   0  0  0  0  0  0  0  0  0  0  0  0
    0.5060    6.7162    0.0000 H   0  0  0  0  0  0  0  0  0  0  0  0
   -2.0941    4.2577    0.0000 O   0  0  0  0  0  0  0  0  0  0  0  0
   -0.7954    3.5071    0.0000 C   0  0  0  0  0  0  0  0  0  0  0  0
   -0.7959    2.0062    0.0000 C   0  0  0  0  0  0  0  0  0  0  0  0
   -2.0954    1.2571    0.0000 H   0  0  0  0  0  0  0  0  0  0  0  0
    0.5032    1.2546    0.0000 C   0  0  0  0  0  0  0  0  0  0  0  0
    1.8027    2.0037    0.0000 C   0  0  0  0  0  0  0  0  0  0  0  0
    2.9154    0.9946    0.0000 N   0  0  0  0  0  0  0  0  0  0  0  0
    4.3832    1.3037    0.0000 H   0  0  0  0  0  0  0  0  0  0  0  0
    2.3066   -0.3721    0.0000 C   0  0  0  0  0  0  0  0  0  0  0  0
    3.0558   -1.6716    0.0000 H   0  0  0  0  0  0  0  0  0  0  0  0
    0.8189   -0.2140    0.0000 C   0  0  0  0  0  0  0  0  0  0  0  0
   -0.1842   -1.3293    0.0000 H   0  0  0  0  0  0  0  0  0  0  0  0
    1.8032    3.5046    0.0000 N   0  0  0  0  0  0  0  0  0  0  0  0
    0.5041    4.2562    0.0000 C   0  0  0  0  0  0  0  0  0  0  0  0
    0.5053    5.7562    0.0000 H   0  0  0  0  0  0  0  0  0  0  0  0
   -4.6918    6.7187    0.0000 C   0  0  0  0  0  0  0  0  0  0  0  0
   -4.6923    5.2187    0.0000 O   0  0  0  0  0  0  0  0  0  0  0  0
   -5.9906    7.4692    0.0000 N   0  0  0  0  0  0  0  0  0  0  0  0
   -5.9901    8.9692    0.0000 H   0  0  0  0  0  0  0  0  0  0  0  0
   -7.2899    6.7196    0.0000 S   0  0  0  0  0  0  0  0  0  0  0  0
   -6.3261    5.5702    0.0000 O   0  0  0  0  0  0  0  0  0  0  0  0
   -8.2544    5.5708    0.0000 O   0  0  0  0  0  0  0  0  0  0  0  0
   -8.5887    7.4700    0.0000 C   0  0  0  0  0  0  0  0  0  0  0  0
   -8.5884    8.9708    0.0000 C   0  0  0  0  0  0  0  0  0  0  0  0
   -7.2890    9.7202    0.0000 H   0  0  0  0  0  0  0  0  0  0  0  0
   -9.8876    9.7223    0.0000 C   0  0  0  0  0  0  0  0  0  0  0  0
   -9.8866   11.2223    0.0000 H   0  0  0  0  0  0  0  0  0  0  0  0
  -11.1870    8.9729    0.0000 C   0  0  0  0  0  0  0  0  0  0  0  0
  -11.1872    7.4721    0.0000 C   0  0  0  0  0  0  0  0  0  0  0  0
   -9.8881    6.7206    0.0000 C   0  0  0  0  0  0  0  0  0  0  0  0
   -9.8890    5.2206    0.0000 H   0  0  0  0  0  0  0  0  0  0  0  0
  -12.4866    6.7227    0.0000 N   0  0  0  0  0  0  0  0  0  0  0  0
  -13.7853    7.4733    0.0000 O   0  0  0  0  0  0  0  0  0  0  0  0
  -12.4874    5.2227    0.0000 O   0  0  0  0  0  0  0  0  0  0  0  0
  -12.4858    9.7233    0.0000 N   0  0  0  0  0  0  0  0  0  0  0  0
  -13.7851    8.9737    0.0000 H   0  0  0  0  0  0  0  0  0  0  0  0
  -12.4853   11.2233    0.0000 C   0  0  0  0  0  0  0  0  0  0  0  0
  -11.0082   10.9624    0.0000 H   0  0  0  0  0  0  0  0  0  0  0  0
  -11.9718   12.6327    0.0000 H   0  0  0  0  0  0  0  0  0  0  0  0
  -14.6153   12.4540    0.0000 C   0  0  0  0  0  0  0  0  0  0  0  0
  -15.1285   11.0445    0.0000 H   0  0  0  0  0  0  0  0  0  0  0  0
  -13.6500   13.6032    0.0000 C   0  0  0  0  0  0  0  0  0  0  0  0
  -12.3507   14.3528    0.0000 H   0  0  0  0  0  0  0  0  0  0  0  0
  -12.6863   12.4537    0.0000 H   0  0  0  0  0  0  0  0  0  0  0  0
  -14.1627   15.0128    0.0000 C   0  0  0  0  0  0  0  0  0  0  0  0
  -14.1627   16.5128    0.0000 H   0  0  0  0  0  0  0  0  0  0  0  0
  -12.6855   15.2732    0.0000 H   0  0  0  0  0  0  0  0  0  0  0  0
  -15.6408   15.2733    0.0000 O   0  0  0  0  0  0  0  0  0  0  0  0
  -16.6061   14.1241    0.0000 C   0  0  0  0  0  0  0  0  0  0  0  0
  -17.9054   13.3745    0.0000 H   0  0  0  0  0  0  0  0  0  0  0  0
  -17.5698   15.2736    0.0000 H   0  0  0  0  0  0  0  0  0  0  0  0
  -16.0934   12.7145    0.0000 C   0  0  0  0  0  0  0  0  0  0  0  0
  -16.0934   11.2145    0.0000 H   0  0  0  0  0  0  0  0  0  0  0  0
  -17.5706   12.4541    0.0000 H   0  0  0  0  0  0  0  0  0  0  0  0
    7.2382   19.0726    0.0000 C   0  0  0  0  0  0  0  0  0  0  0  0
    5.9394   19.8231    0.0000 H   0  0  0  0  0  0  0  0  0  0  0  0
    7.7517   20.4820    0.0000 H   0  0  0  0  0  0  0  0  0  0  0  0
    8.7153   18.8116    0.0000 O   0  0  0  0  0  0  0  0  0  0  0  0
    9.6799   19.9603    0.0000 H   0  0  0  0  0  0  0  0  0  0  0  0
  1  2  1  0  0  0  0 
  1  3  1  0  0  0  0 
  1  4  1  0  0  0  0 
  1  5  1  0  0  0  0 
  5  6  1  0  0  0  0 
  6  7  1  0  0  0  0 
  6  8  1  0  0  0  0 
  6  9  1  0  0  0  0 
  9 10  1  0  0  0  0 
  9 11  1  0  0  0  0 
  9 12  1  0  0  0  0 
 12 13  2  0  0  0  0 
 13 14  1  0  0  0  0 
  5 14  1  0  0  0  0 
 14 15  1  0  0  0  0 
 14 16  1  0  0  0  0 
 13 17  1  0  0  0  0 
 17 18  2  0  0  0  0 
 18 19  1  0  0  0  0 
 18 20  1  0  0  0  0 
 20 21  1  0  0  0  0 
 20 22  2  0  0  0  0 
 22 23  1  0  0  0  0 
 23 24  1  0  0  0  0 
 23 25  2  0  0  0  0 
 17 25  1  0  0  0  0 
 25 26  1  0  0  0  0 
 22 27  1  0  0  0  0 
 12 28  1  0  0  0  0 
 28 29  1  0  0  0  0 
 28 30  1  0  0  0  0 
 28 31  1  0  0  0  0 
 31 32  1  0  0  0  0 
 32 33  1  0  0  0  0 
 32 34  1  0  0  0  0 
 32 35  1  0  0  0  0 
 35 36  1  0  0  0  0 
 35 37  1  0  0  0  0 
 35 38  1  0  0  0  0 
 38 39  1  0  0  0  0 
 39 40  1  0  0  0  0 
 39 41  1  0  0  0  0 
 39 42  1  0  0  0  0 
 31 42  1  0  0  0  0 
 42 43  1  0  0  0  0 
 42 44  1  0  0  0  0 
 38 45  1  0  0  0  0 
 45 46  2  0  0  0  0 
 46 47  1  0  0  0  0 
 46 48  1  0  0  0  0 
 48 49  1  0  0  0  0 
 48 50  2  0  0  0  0 
 50 51  1  0  0  0  0 
 51 52  2  0  0  0  0 
 45 52  1  0  0  0  0 
 52 53  1  0  0  0  0 
 51 54  1  0  0  0  0 
 54 55  1  0  0  0  0 
 55 56  2  0  0  0  0 
 56 57  1  0  0  0  0 
 56 58  1  0  0  0  0 
 58 59  2  0  0  0  0 
 59 60  1  0  0  0  0 
 60 61  1  0  0  0  0 
 60 62  1  0  0  0  0 
 62 63  1  0  0  0  0 
 62 64  2  0  0  0  0 
 58 64  1  0  0  0  0 
 64 65  1  0  0  0  0 
 59 66  1  0  0  0  0 
 66 67  2  0  0  0  0 
 55 67  1  0  0  0  0 
 67 68  1  0  0  0  0 
 50 69  1  0  0  0  0 
 69 70  2  0  0  0  0 
 69 71  1  0  0  0  0 
 71 72  1  0  0  0  0 
 71 73  1  0  0  0  0 
 73 74  2  0  0  0  0 
 73 75  2  0  0  0  0 
 73 76  1  0  0  0  0 
 76 77  2  0  0  0  0 
 77 78  1  0  0  0  0 
 77 79  1  0  0  0  0 
 79 80  1  0  0  0  0 
 79 81  2  0  0  0  0 
 81 82  1  0  0  0  0 
 82 83  2  0  0  0  0 
 76 83  1  0  0  0  0 
 83 84  1  0  0  0  0 
 82 85  1  0  0  0  0 
 85 86  2  0  0  0  0 
 85 87  1  0  0  0  0 
 81 88  1  0  0  0  0 
 88 89  1  0  0  0  0 
 88 90  1  0  0  0  0 
 90 91  1  0  0  0  0 
 90 92  1  0  0  0  0 
 90 93  1  0  0  0  0 
 93 94  1  0  0  0  0 
 93 95  1  0  0  0  0 
 95 96  1  0  0  0  0 
 95 97  1  0  0  0  0 
 95 98  1  0  0  0  0 
 98 99  1  0  0  0  0 
 98100  1  0  0  0  0 
 98101  1  0  0  0  0 
101102  1  0  0  0  0 
102103  1  0  0  0  0 
102104  1  0  0  0  0 
102105  1  0  0  0  0 
 93105  1  0  0  0  0 
105106  1  0  0  0  0 
105107  1  0  0  0  0 
  5108  1  0  0  0  0 
108109  1  0  0  0  0 
108110  1  0  0  0  0 
108111  1  0  0  0  0 
111112  1  0  0  0  0 
M  CHG  1  85   1
M  CHG  1  87  -1
M  END
> <Rank>
30

> <Priority_score>
0.14776587178693096

> <Reaction_type>
aliphatic hydroxylation

> <Parent_ID>
12

> <Parent_InChI>
InChI=1S/C45H50ClN7O7S/c1-45(2)15-11-33(39(26-45)31-3-5-34(46)6-4-31)29-51-17-19-52(20-18-51)35-7-9-38(42(24-35)60-36-23-32-12-16-47-43(32)49-28-36)44(54)50-61(57,58)37-8-10-40(41(25-37)53(55)56)48-27-30-13-21-59-22-14-30/h3-10,12,16,23-25,28,30,48H,11,13-15,17-22,26-27,29H2,1-2H3,(H,47,49)(H,50,54)

> <Parent_SMILES>
CC1(C)CCC(CN2CCN(c3ccc(C(=O)NS(=O)(=O)c4ccc(NCC5CCOCC5)c([N+](=O)[O-])c4)c(Oc4cnc5[nH]ccc5c4)c3)CC2)=C(c2ccc(Cl)cc2)C1

$$$$
Molecule 12_metabolite 32
  CDK     0516241031

112119  0  0  0  0  0  0  0  0999 V2000
    4.5681   20.4268    0.0000 C   0  0  0  0  0  0  0  0  0  0  0  0
    3.0908   20.1667    0.0000 H   0  0  0  0  0  0  0  0  0  0  0  0
    5.8674   21.1764    0.0000 H   0  0  0  0  0  0  0  0  0  0  0  0
    4.0555   21.8364    0.0000 H   0  0  0  0  0  0  0  0  0  0  0  0
    6.1489   18.5419    0.0000 C   0  0  0  0  0  0  0  0  0  0  0  0
    7.7308   20.4257    0.0000 C   0  0  0  0  0  0  0  0  0  0  0  0
    7.2183   21.8355    0.0000 H   0  0  0  0  0  0  0  0  0  0  0  0
    9.0302   21.1753    0.0000 H   0  0  0  0  0  0  0  0  0  0  0  0
    8.6946   19.2763    0.0000 H   0  0  0  0  0  0  0  0  0  0  0  0
    4.8490   17.7917    0.0000 C   0  0  0  0  0  0  0  0  0  0  0  0
    3.3716   17.5321    0.0000 H   0  0  0  0  0  0  0  0  0  0  0  0
    4.3365   19.2014    0.0000 H   0  0  0  0  0  0  0  0  0  0  0  0
    4.8478   16.2908    0.0000 C   0  0  0  0  0  0  0  0  0  0  0  0
    4.1695   14.4306    0.0000 H   0  0  0  0  0  0  0  0  0  0  0  0
    3.3708   16.5523    0.0000 H   0  0  0  0  0  0  0  0  0  0  0  0
    6.1465   15.5402    0.0000 C   0  0  0  0  0  0  0  0  0  0  0  0
    7.4464   16.2904    0.0000 C   0  0  0  0  0  0  0  0  0  0  0  0
    7.4476   17.7912    0.0000 C   0  0  0  0  0  0  0  0  0  0  0  0
    7.9614   19.2005    0.0000 H   0  0  0  0  0  0  0  0  0  0  0  0
    8.9246   17.5297    0.0000 H   0  0  0  0  0  0  0  0  0  0  0  0
    8.7450   15.5398    0.0000 C   0  0  0  0  0  0  0  0  0  0  0  0
   10.0312   16.2791    0.0000 C   0  0  0  0  0  0  0  0  0  0  0  0
   10.0292   17.7791    0.0000 H   0  0  0  0  0  0  0  0  0  0  0  0
   11.3336   15.5351    0.0000 C   0  0  0  0  0  0  0  0  0  0  0  0
   12.6246   16.2988    0.0000 H   0  0  0  0  0  0  0  0  0  0  0  0
   11.3586   14.0466    0.0000 C   0  0  0  0  0  0  0  0  0  0  0  0
   10.0488   13.2862    0.0000 C   0  0  0  0  0  0  0  0  0  0  0  0
   10.0541   11.7862    0.0000 H   0  0  0  0  0  0  0  0  0  0  0  0
    8.7464   14.0303    0.0000 C   0  0  0  0  0  0  0  0  0  0  0  0
    7.4494   13.2767    0.0000 H   0  0  0  0  0  0  0  0  0  0  0  0
   12.6648   13.3091    0.0000 Cl  0  0  0  0  0  0  0  0  0  0  0  0
    6.1460   14.0402    0.0000 C   0  0  0  0  0  0  0  0  0  0  0  0
    7.6233   14.3002    0.0000 H   0  0  0  0  0  0  0  0  0  0  0  0
    6.6586   12.6305    0.0000 H   0  0  0  0  0  0  0  0  0  0  0  0
    3.5994   12.5710    0.0000 N   0  0  0  0  0  0  0  0  0  0  0  0
    3.5987   11.0702    0.0000 C   0  0  0  0  0  0  0  0  0  0  0  0
    5.0760   11.3303    0.0000 H   0  0  0  0  0  0  0  0  0  0  0  0
    4.1116    9.6606    0.0000 H   0  0  0  0  0  0  0  0  0  0  0  0
    2.2990   10.3196    0.0000 C   0  0  0  0  0  0  0  0  0  0  0  0
    3.2633    9.1705    0.0000 H   0  0  0  0  0  0  0  0  0  0  0  0
    1.3348    9.1705    0.0000 H   0  0  0  0  0  0  0  0  0  0  0  0
    1.0001   11.0698    0.0000 N   0  0  0  0  0  0  0  0  0  0  0  0
    1.0009   12.5706    0.0000 C   0  0  0  0  0  0  0  0  0  0  0  0
   -0.4764   12.3105    0.0000 H   0  0  0  0  0  0  0  0  0  0  0  0
    0.4879   13.9802    0.0000 H   0  0  0  0  0  0  0  0  0  0  0  0
    2.3005   13.3212    0.0000 C   0  0  0  0  0  0  0  0  0  0  0  0
    1.3362   14.4702    0.0000 H   0  0  0  0  0  0  0  0  0  0  0  0
    3.2647   14.4702    0.0000 H   0  0  0  0  0  0  0  0  0  0  0  0
   -0.2991   10.3202    0.0000 C   0  0  0  0  0  0  0  0  0  0  0  0
   -1.5988   11.0708    0.0000 C   0  0  0  0  0  0  0  0  0  0  0  0
   -1.5981   12.5708    0.0000 H   0  0  0  0  0  0  0  0  0  0  0  0
   -2.8991   10.3214    0.0000 C   0  0  0  0  0  0  0  0  0  0  0  0
   -4.1977   11.0723    0.0000 H   0  0  0  0  0  0  0  0  0  0  0  0
   -2.8999    8.8214    0.0000 C   0  0  0  0  0  0  0  0  0  0  0  0
   -1.6002    8.0708    0.0000 C   0  0  0  0  0  0  0  0  0  0  0  0
   -0.2999    8.8202    0.0000 C   0  0  0  0  0  0  0  0  0  0  0  0
    0.9987    8.0693    0.0000 H   0  0  0  0  0  0  0  0  0  0  0  0
   -1.6014    5.6108    0.0000 O   0  0  0  0  0  0  0  0  0  0  0  0
   -0.3027    4.8602    0.0000 C   0  0  0  0  0  0  0  0  0  0  0  0
   -0.3032    3.3593    0.0000 C   0  0  0  0  0  0  0  0  0  0  0  0
   -1.6027    2.6102    0.0000 H   0  0  0  0  0  0  0  0  0  0  0  0
    0.9958    2.6077    0.0000 C   0  0  0  0  0  0  0  0  0  0  0  0
    2.2953    3.3569    0.0000 C   0  0  0  0  0  0  0  0  0  0  0  0
    3.4081    2.3477    0.0000 N   0  0  0  0  0  0  0  0  0  0  0  0
    4.8759    2.6568    0.0000 H   0  0  0  0  0  0  0  0  0  0  0  0
    2.7993    0.9810    0.0000 C   0  0  0  0  0  0  0  0  0  0  0  0
    3.5485   -0.3185    0.0000 H   0  0  0  0  0  0  0  0  0  0  0  0
    1.3115    1.1391    0.0000 C   0  0  0  0  0  0  0  0  0  0  0  0
    0.3085    0.0238    0.0000 H   0  0  0  0  0  0  0  0  0  0  0  0
    2.2958    4.8577    0.0000 N   0  0  0  0  0  0  0  0  0  0  0  0
    0.9968    5.6093    0.0000 C   0  0  0  0  0  0  0  0  0  0  0  0
    0.9980    7.1093    0.0000 H   0  0  0  0  0  0  0  0  0  0  0  0
   -4.1991    8.0718    0.0000 C   0  0  0  0  0  0  0  0  0  0  0  0
   -4.1996    6.5718    0.0000 O   0  0  0  0  0  0  0  0  0  0  0  0
   -5.4979    8.8223    0.0000 N   0  0  0  0  0  0  0  0  0  0  0  0
   -5.4975   10.3223    0.0000 H   0  0  0  0  0  0  0  0  0  0  0  0
   -6.7972    8.0727    0.0000 S   0  0  0  0  0  0  0  0  0  0  0  0
   -5.8334    6.9233    0.0000 O   0  0  0  0  0  0  0  0  0  0  0  0
   -7.7618    6.9239    0.0000 O   0  0  0  0  0  0  0  0  0  0  0  0
   -8.0960    8.8231    0.0000 C   0  0  0  0  0  0  0  0  0  0  0  0
   -8.0958   10.3239    0.0000 C   0  0  0  0  0  0  0  0  0  0  0  0
   -6.7964   11.0733    0.0000 H   0  0  0  0  0  0  0  0  0  0  0  0
   -9.3949   11.0754    0.0000 C   0  0  0  0  0  0  0  0  0  0  0  0
   -9.3940   12.5754    0.0000 H   0  0  0  0  0  0  0  0  0  0  0  0
  -10.6943   10.3260    0.0000 C   0  0  0  0  0  0  0  0  0  0  0  0
  -10.6946    8.8252    0.0000 C   0  0  0  0  0  0  0  0  0  0  0  0
   -9.3954    8.0737    0.0000 C   0  0  0  0  0  0  0  0  0  0  0  0
   -9.3964    6.5737    0.0000 H   0  0  0  0  0  0  0  0  0  0  0  0
  -11.9940    8.0758    0.0000 N   0  0  0  0  0  0  0  0  0  0  0  0
  -13.2927    8.8264    0.0000 O   0  0  0  0  0  0  0  0  0  0  0  0
  -11.9947    6.5758    0.0000 O   0  0  0  0  0  0  0  0  0  0  0  0
  -11.9931   11.0764    0.0000 N   0  0  0  0  0  0  0  0  0  0  0  0
  -13.2924   10.3268    0.0000 H   0  0  0  0  0  0  0  0  0  0  0  0
  -11.9927   12.5764    0.0000 C   0  0  0  0  0  0  0  0  0  0  0  0
  -10.5155   12.3155    0.0000 H   0  0  0  0  0  0  0  0  0  0  0  0
  -11.4792   13.9858    0.0000 H   0  0  0  0  0  0  0  0  0  0  0  0
  -14.1227   13.8071    0.0000 C   0  0  0  0  0  0  0  0  0  0  0  0
  -13.1574   14.9563    0.0000 C   0  0  0  0  0  0  0  0  0  0  0  0
  -11.8581   15.7059    0.0000 H   0  0  0  0  0  0  0  0  0  0  0  0
  -12.1937   13.8068    0.0000 H   0  0  0  0  0  0  0  0  0  0  0  0
  -13.6701   16.3659    0.0000 C   0  0  0  0  0  0  0  0  0  0  0  0
  -13.6701   17.8659    0.0000 H   0  0  0  0  0  0  0  0  0  0  0  0
  -12.1928   16.6263    0.0000 H   0  0  0  0  0  0  0  0  0  0  0  0
  -15.1481   16.6264    0.0000 O   0  0  0  0  0  0  0  0  0  0  0  0
  -16.1135   15.4772    0.0000 C   0  0  0  0  0  0  0  0  0  0  0  0
  -17.4128   14.7276    0.0000 H   0  0  0  0  0  0  0  0  0  0  0  0
  -17.0772   16.6267    0.0000 H   0  0  0  0  0  0  0  0  0  0  0  0
  -15.6007   14.0676    0.0000 C   0  0  0  0  0  0  0  0  0  0  0  0
  -15.6007   12.5676    0.0000 H   0  0  0  0  0  0  0  0  0  0  0  0
  -17.0780   13.8073    0.0000 H   0  0  0  0  0  0  0  0  0  0  0  0
  -15.1285   11.0445    0.0000 O   0  0  0  0  0  0  0  0  0  0  0  0
  -16.6058   10.7842    0.0000 H   0  0  0  0  0  0  0  0  0  0  0  0
  1  2  1  0  0  0  0 
  1  3  1  0  0  0  0 
  1  4  1  0  0  0  0 
  1  5  1  0  0  0  0 
  5  6  1  0  0  0  0 
  6  7  1  0  0  0  0 
  6  8  1  0  0  0  0 
  6  9  1  0  0  0  0 
  5 10  1  0  0  0  0 
 10 11  1  0  0  0  0 
 10 12  1  0  0  0  0 
 10 13  1  0  0  0  0 
 13 14  1  0  0  0  0 
 13 15  1  0  0  0  0 
 13 16  1  0  0  0  0 
 16 17  2  0  0  0  0 
 17 18  1  0  0  0  0 
  5 18  1  0  0  0  0 
 18 19  1  0  0  0  0 
 18 20  1  0  0  0  0 
 17 21  1  0  0  0  0 
 21 22  2  0  0  0  0 
 22 23  1  0  0  0  0 
 22 24  1  0  0  0  0 
 24 25  1  0  0  0  0 
 24 26  2  0  0  0  0 
 26 27  1  0  0  0  0 
 27 28  1  0  0  0  0 
 27 29  2  0  0  0  0 
 21 29  1  0  0  0  0 
 29 30  1  0  0  0  0 
 26 31  1  0  0  0  0 
 16 32  1  0  0  0  0 
 32 33  1  0  0  0  0 
 32 34  1  0  0  0  0 
 32 35  1  0  0  0  0 
 35 36  1  0  0  0  0 
 36 37  1  0  0  0  0 
 36 38  1  0  0  0  0 
 36 39  1  0  0  0  0 
 39 40  1  0  0  0  0 
 39 41  1  0  0  0  0 
 39 42  1  0  0  0  0 
 42 43  1  0  0  0  0 
 43 44  1  0  0  0  0 
 43 45  1  0  0  0  0 
 43 46  1  0  0  0  0 
 35 46  1  0  0  0  0 
 46 47  1  0  0  0  0 
 46 48  1  0  0  0  0 
 42 49  1  0  0  0  0 
 49 50  2  0  0  0  0 
 50 51  1  0  0  0  0 
 50 52  1  0  0  0  0 
 52 53  1  0  0  0  0 
 52 54  2  0  0  0  0 
 54 55  1  0  0  0  0 
 55 56  2  0  0  0  0 
 49 56  1  0  0  0  0 
 56 57  1  0  0  0  0 
 55 58  1  0  0  0  0 
 58 59  1  0  0  0  0 
 59 60  2  0  0  0  0 
 60 61  1  0  0  0  0 
 60 62  1  0  0  0  0 
 62 63  2  0  0  0  0 
 63 64  1  0  0  0  0 
 64 65  1  0  0  0  0 
 64 66  1  0  0  0  0 
 66 67  1  0  0  0  0 
 66 68  2  0  0  0  0 
 62 68  1  0  0  0  0 
 68 69  1  0  0  0  0 
 63 70  1  0  0  0  0 
 70 71  2  0  0  0  0 
 59 71  1  0  0  0  0 
 71 72  1  0  0  0  0 
 54 73  1  0  0  0  0 
 73 74  2  0  0  0  0 
 73 75  1  0  0  0  0 
 75 76  1  0  0  0  0 
 75 77  1  0  0  0  0 
 77 78  2  0  0  0  0 
 77 79  2  0  0  0  0 
 77 80  1  0  0  0  0 
 80 81  2  0  0  0  0 
 81 82  1  0  0  0  0 
 81 83  1  0  0  0  0 
 83 84  1  0  0  0  0 
 83 85  2  0  0  0  0 
 85 86  1  0  0  0  0 
 86 87  2  0  0  0  0 
 80 87  1  0  0  0  0 
 87 88  1  0  0  0  0 
 86 89  1  0  0  0  0 
 89 90  2  0  0  0  0 
 89 91  1  0  0  0  0 
 85 92  1  0  0  0  0 
 92 93  1  0  0  0  0 
 92 94  1  0  0  0  0 
 94 95  1  0  0  0  0 
 94 96  1  0  0  0  0 
 94 97  1  0  0  0  0 
 97 98  1  0  0  0  0 
 98 99  1  0  0  0  0 
 98100  1  0  0  0  0 
 98101  1  0  0  0  0 
101102  1  0  0  0  0 
101103  1  0  0  0  0 
101104  1  0  0  0  0 
104105  1  0  0  0  0 
105106  1  0  0  0  0 
105107  1  0  0  0  0 
105108  1  0  0  0  0 
 97108  1  0  0  0  0 
108109  1  0  0  0  0 
108110  1  0  0  0  0 
 97111  1  0  0  0  0 
111112  1  0  0  0  0 
M  CHG  1  89   1
M  CHG  1  91  -1
M  END
> <Rank>
32

> <Priority_score>
0.136

> <Reaction_type>
aliphatic hydroxylation

> <Parent_ID>
12

> <Parent_InChI>
InChI=1S/C45H50ClN7O7S/c1-45(2)15-11-33(39(26-45)31-3-5-34(46)6-4-31)29-51-17-19-52(20-18-51)35-7-9-38(42(24-35)60-36-23-32-12-16-47-43(32)49-28-36)44(54)50-61(57,58)37-8-10-40(41(25-37)53(55)56)48-27-30-13-21-59-22-14-30/h3-10,12,16,23-25,28,30,48H,11,13-15,17-22,26-27,29H2,1-2H3,(H,47,49)(H,50,54)

> <Parent_SMILES>
CC1(C)CCC(CN2CCN(c3ccc(C(=O)NS(=O)(=O)c4ccc(NCC5CCOCC5)c([N+](=O)[O-])c4)c(Oc4cnc5[nH]ccc5c4)c3)CC2)=C(c2ccc(Cl)cc2)C1

$$$$
Molecule 12_metabolite 33
  CDK     0516241031

112119  0  0  0  0  0  0  0  0999 V2000
    4.4911   18.8335    0.0000 C   0  0  0  0  0  0  0  0  0  0  0  0
    3.0138   18.5734    0.0000 H   0  0  0  0  0  0  0  0  0  0  0  0
    5.7903   19.5832    0.0000 H   0  0  0  0  0  0  0  0  0  0  0  0
    3.9784   20.2432    0.0000 H   0  0  0  0  0  0  0  0  0  0  0  0
    6.0718   16.9486    0.0000 C   0  0  0  0  0  0  0  0  0  0  0  0
    7.6538   18.8325    0.0000 C   0  0  0  0  0  0  0  0  0  0  0  0
    7.1413   20.2422    0.0000 H   0  0  0  0  0  0  0  0  0  0  0  0
    8.9531   19.5820    0.0000 H   0  0  0  0  0  0  0  0  0  0  0  0
    8.6176   17.6831    0.0000 H   0  0  0  0  0  0  0  0  0  0  0  0
    4.7720   16.1984    0.0000 C   0  0  0  0  0  0  0  0  0  0  0  0
    3.2946   15.9388    0.0000 H   0  0  0  0  0  0  0  0  0  0  0  0
    4.2595   17.6081    0.0000 H   0  0  0  0  0  0  0  0  0  0  0  0
    4.7708   14.6976    0.0000 C   0  0  0  0  0  0  0  0  0  0  0  0
    4.0925   12.8374    0.0000 H   0  0  0  0  0  0  0  0  0  0  0  0
    3.2937   14.9591    0.0000 H   0  0  0  0  0  0  0  0  0  0  0  0
    6.0694   13.9470    0.0000 C   0  0  0  0  0  0  0  0  0  0  0  0
    7.3693   14.6972    0.0000 C   0  0  0  0  0  0  0  0  0  0  0  0
    7.3705   16.1980    0.0000 C   0  0  0  0  0  0  0  0  0  0  0  0
    7.8844   17.6072    0.0000 H   0  0  0  0  0  0  0  0  0  0  0  0
    8.8475   15.9365    0.0000 H   0  0  0  0  0  0  0  0  0  0  0  0
    8.6680   13.9465    0.0000 C   0  0  0  0  0  0  0  0  0  0  0  0
    9.9542   14.6859    0.0000 C   0  0  0  0  0  0  0  0  0  0  0  0
    9.9522   16.1859    0.0000 H   0  0  0  0  0  0  0  0  0  0  0  0
   11.2566   13.9418    0.0000 C   0  0  0  0  0  0  0  0  0  0  0  0
   12.5476   14.7056    0.0000 H   0  0  0  0  0  0  0  0  0  0  0  0
   11.2815   12.4534    0.0000 C   0  0  0  0  0  0  0  0  0  0  0  0
    9.9718   11.6930    0.0000 C   0  0  0  0  0  0  0  0  0  0  0  0
    9.9770   10.1930    0.0000 H   0  0  0  0  0  0  0  0  0  0  0  0
    8.6694   12.4370    0.0000 C   0  0  0  0  0  0  0  0  0  0  0  0
    7.3724   11.6835    0.0000 H   0  0  0  0  0  0  0  0  0  0  0  0
   12.5877   11.7159    0.0000 Cl  0  0  0  0  0  0  0  0  0  0  0  0
    6.0690   12.4470    0.0000 C   0  0  0  0  0  0  0  0  0  0  0  0
    7.5462   12.7070    0.0000 H   0  0  0  0  0  0  0  0  0  0  0  0
    6.5815   11.0373    0.0000 H   0  0  0  0  0  0  0  0  0  0  0  0
    3.5224   10.9778    0.0000 N   0  0  0  0  0  0  0  0  0  0  0  0
    3.5216    9.4769    0.0000 C   0  0  0  0  0  0  0  0  0  0  0  0
    4.9989    9.7370    0.0000 H   0  0  0  0  0  0  0  0  0  0  0  0
    4.0346    8.0674    0.0000 H   0  0  0  0  0  0  0  0  0  0  0  0
    2.2220    8.7263    0.0000 C   0  0  0  0  0  0  0  0  0  0  0  0
    3.1863    7.5773    0.0000 H   0  0  0  0  0  0  0  0  0  0  0  0
    1.2578    7.5773    0.0000 H   0  0  0  0  0  0  0  0  0  0  0  0
    0.9231    9.4765    0.0000 N   0  0  0  0  0  0  0  0  0  0  0  0
    0.9238   10.9774    0.0000 C   0  0  0  0  0  0  0  0  0  0  0  0
   -0.5535   10.7173    0.0000 H   0  0  0  0  0  0  0  0  0  0  0  0
    0.4109   12.3869    0.0000 H   0  0  0  0  0  0  0  0  0  0  0  0
    2.2235   11.7280    0.0000 C   0  0  0  0  0  0  0  0  0  0  0  0
    1.2592   12.8770    0.0000 H   0  0  0  0  0  0  0  0  0  0  0  0
    3.1877   12.8770    0.0000 H   0  0  0  0  0  0  0  0  0  0  0  0
   -0.3762    8.7269    0.0000 C   0  0  0  0  0  0  0  0  0  0  0  0
   -1.6758    9.4776    0.0000 C   0  0  0  0  0  0  0  0  0  0  0  0
   -1.6751   10.9776    0.0000 H   0  0  0  0  0  0  0  0  0  0  0  0
   -2.9762    8.7282    0.0000 C   0  0  0  0  0  0  0  0  0  0  0  0
   -4.2747    9.4790    0.0000 H   0  0  0  0  0  0  0  0  0  0  0  0
   -2.9769    7.2282    0.0000 C   0  0  0  0  0  0  0  0  0  0  0  0
   -1.6773    6.4776    0.0000 C   0  0  0  0  0  0  0  0  0  0  0  0
   -0.3769    7.2269    0.0000 C   0  0  0  0  0  0  0  0  0  0  0  0
    0.9216    6.4761    0.0000 H   0  0  0  0  0  0  0  0  0  0  0  0
   -1.6785    4.0176    0.0000 O   0  0  0  0  0  0  0  0  0  0  0  0
   -0.3798    3.2669    0.0000 C   0  0  0  0  0  0  0  0  0  0  0  0
   -0.3803    1.7661    0.0000 C   0  0  0  0  0  0  0  0  0  0  0  0
   -1.6798    1.0169    0.0000 H   0  0  0  0  0  0  0  0  0  0  0  0
    0.9188    1.0144    0.0000 C   0  0  0  0  0  0  0  0  0  0  0  0
    2.2183    1.7636    0.0000 C   0  0  0  0  0  0  0  0  0  0  0  0
    3.3310    0.7545    0.0000 N   0  0  0  0  0  0  0  0  0  0  0  0
    4.7988    1.0636    0.0000 H   0  0  0  0  0  0  0  0  0  0  0  0
    2.7223   -0.6122    0.0000 C   0  0  0  0  0  0  0  0  0  0  0  0
    3.4714   -1.9117    0.0000 H   0  0  0  0  0  0  0  0  0  0  0  0
    1.2345   -0.4542    0.0000 C   0  0  0  0  0  0  0  0  0  0  0  0
    0.2314   -1.5695    0.0000 H   0  0  0  0  0  0  0  0  0  0  0  0
    2.2188    3.2644    0.0000 N   0  0  0  0  0  0  0  0  0  0  0  0
    0.9197    4.0161    0.0000 C   0  0  0  0  0  0  0  0  0  0  0  0
    0.9209    5.5161    0.0000 H   0  0  0  0  0  0  0  0  0  0  0  0
   -4.2762    6.4786    0.0000 C   0  0  0  0  0  0  0  0  0  0  0  0
   -4.2767    4.9786    0.0000 O   0  0  0  0  0  0  0  0  0  0  0  0
   -5.5750    7.2290    0.0000 N   0  0  0  0  0  0  0  0  0  0  0  0
   -5.5745    8.7290    0.0000 H   0  0  0  0  0  0  0  0  0  0  0  0
   -6.8743    6.4794    0.0000 S   0  0  0  0  0  0  0  0  0  0  0  0
   -5.9104    5.3301    0.0000 O   0  0  0  0  0  0  0  0  0  0  0  0
   -7.8388    5.3307    0.0000 O   0  0  0  0  0  0  0  0  0  0  0  0
   -8.1731    7.2299    0.0000 C   0  0  0  0  0  0  0  0  0  0  0  0
   -8.1728    8.7307    0.0000 C   0  0  0  0  0  0  0  0  0  0  0  0
   -6.8734    9.4801    0.0000 H   0  0  0  0  0  0  0  0  0  0  0  0
   -9.4720    9.4821    0.0000 C   0  0  0  0  0  0  0  0  0  0  0  0
  -10.7714    8.7328    0.0000 C   0  0  0  0  0  0  0  0  0  0  0  0
  -10.7716    7.2319    0.0000 C   0  0  0  0  0  0  0  0  0  0  0  0
   -9.4725    6.4805    0.0000 C   0  0  0  0  0  0  0  0  0  0  0  0
   -9.4734    4.9805    0.0000 H   0  0  0  0  0  0  0  0  0  0  0  0
  -12.0710    6.4826    0.0000 N   0  0  0  0  0  0  0  0  0  0  0  0
  -13.3697    7.2332    0.0000 O   0  0  0  0  0  0  0  0  0  0  0  0
  -12.0717    4.9826    0.0000 O   0  0  0  0  0  0  0  0  0  0  0  0
  -12.4858    9.7233    0.0000 N   0  0  0  0  0  0  0  0  0  0  0  0
  -12.4853   11.2233    0.0000 H   0  0  0  0  0  0  0  0  0  0  0  0
  -13.7851    8.9737    0.0000 C   0  0  0  0  0  0  0  0  0  0  0  0
  -12.8213    7.8244    0.0000 H   0  0  0  0  0  0  0  0  0  0  0  0
  -14.7496    7.8250    0.0000 H   0  0  0  0  0  0  0  0  0  0  0  0
  -15.9151   10.2044    0.0000 C   0  0  0  0  0  0  0  0  0  0  0  0
  -14.9503   11.3530    0.0000 H   0  0  0  0  0  0  0  0  0  0  0  0
  -16.4286    8.7942    0.0000 C   0  0  0  0  0  0  0  0  0  0  0  0
  -16.4290    7.2942    0.0000 H   0  0  0  0  0  0  0  0  0  0  0  0
  -14.9514    8.5334    0.0000 H   0  0  0  0  0  0  0  0  0  0  0  0
  -17.9059    8.5343    0.0000 C   0  0  0  0  0  0  0  0  0  0  0  0
  -19.2054    7.7851    0.0000 H   0  0  0  0  0  0  0  0  0  0  0  0
  -17.3936    7.1245    0.0000 H   0  0  0  0  0  0  0  0  0  0  0  0
  -18.8697    9.6847    0.0000 O   0  0  0  0  0  0  0  0  0  0  0  0
  -18.3563   11.0950    0.0000 C   0  0  0  0  0  0  0  0  0  0  0  0
  -18.3558   12.5950    0.0000 H   0  0  0  0  0  0  0  0  0  0  0  0
  -19.8334   11.3558    0.0000 H   0  0  0  0  0  0  0  0  0  0  0  0
  -16.8790   11.3548    0.0000 C   0  0  0  0  0  0  0  0  0  0  0  0
  -15.5794   12.1040    0.0000 H   0  0  0  0  0  0  0  0  0  0  0  0
  -17.3912   12.7647    0.0000 H   0  0  0  0  0  0  0  0  0  0  0  0
   -9.4710   10.9821    0.0000 O   0  0  0  0  0  0  0  0  0  0  0  0
  -10.7696   11.7330    0.0000 H   0  0  0  0  0  0  0  0  0  0  0  0
  1  2  1  0  0  0  0 
  1  3  1  0  0  0  0 
  1  4  1  0  0  0  0 
  1  5  1  0  0  0  0 
  5  6  1  0  0  0  0 
  6  7  1  0  0  0  0 
  6  8  1  0  0  0  0 
  6  9  1  0  0  0  0 
  5 10  1  0  0  0  0 
 10 11  1  0  0  0  0 
 10 12  1  0  0  0  0 
 10 13  1  0  0  0  0 
 13 14  1  0  0  0  0 
 13 15  1  0  0  0  0 
 13 16  1  0  0  0  0 
 16 17  2  0  0  0  0 
 17 18  1  0  0  0  0 
  5 18  1  0  0  0  0 
 18 19  1  0  0  0  0 
 18 20  1  0  0  0  0 
 17 21  1  0  0  0  0 
 21 22  2  0  0  0  0 
 22 23  1  0  0  0  0 
 22 24  1  0  0  0  0 
 24 25  1  0  0  0  0 
 24 26  2  0  0  0  0 
 26 27  1  0  0  0  0 
 27 28  1  0  0  0  0 
 27 29  2  0  0  0  0 
 21 29  1  0  0  0  0 
 29 30  1  0  0  0  0 
 26 31  1  0  0  0  0 
 16 32  1  0  0  0  0 
 32 33  1  0  0  0  0 
 32 34  1  0  0  0  0 
 32 35  1  0  0  0  0 
 35 36  1  0  0  0  0 
 36 37  1  0  0  0  0 
 36 38  1  0  0  0  0 
 36 39  1  0  0  0  0 
 39 40  1  0  0  0  0 
 39 41  1  0  0  0  0 
 39 42  1  0  0  0  0 
 42 43  1  0  0  0  0 
 43 44  1  0  0  0  0 
 43 45  1  0  0  0  0 
 43 46  1  0  0  0  0 
 35 46  1  0  0  0  0 
 46 47  1  0  0  0  0 
 46 48  1  0  0  0  0 
 42 49  1  0  0  0  0 
 49 50  2  0  0  0  0 
 50 51  1  0  0  0  0 
 50 52  1  0  0  0  0 
 52 53  1  0  0  0  0 
 52 54  2  0  0  0  0 
 54 55  1  0  0  0  0 
 55 56  2  0  0  0  0 
 49 56  1  0  0  0  0 
 56 57  1  0  0  0  0 
 55 58  1  0  0  0  0 
 58 59  1  0  0  0  0 
 59 60  2  0  0  0  0 
 60 61  1  0  0  0  0 
 60 62  1  0  0  0  0 
 62 63  2  0  0  0  0 
 63 64  1  0  0  0  0 
 64 65  1  0  0  0  0 
 64 66  1  0  0  0  0 
 66 67  1  0  0  0  0 
 66 68  2  0  0  0  0 
 62 68  1  0  0  0  0 
 68 69  1  0  0  0  0 
 63 70  1  0  0  0  0 
 70 71  2  0  0  0  0 
 59 71  1  0  0  0  0 
 71 72  1  0  0  0  0 
 54 73  1  0  0  0  0 
 73 74  2  0  0  0  0 
 73 75  1  0  0  0  0 
 75 76  1  0  0  0  0 
 75 77  1  0  0  0  0 
 77 78  2  0  0  0  0 
 77 79  2  0  0  0  0 
 77 80  1  0  0  0  0 
 80 81  2  0  0  0  0 
 81 82  1  0  0  0  0 
 81 83  1  0  0  0  0 
 83 84  2  0  0  0  0 
 84 85  1  0  0  0  0 
 85 86  2  0  0  0  0 
 80 86  1  0  0  0  0 
 86 87  1  0  0  0  0 
 85 88  1  0  0  0  0 
 88 89  2  0  0  0  0 
 88 90  1  0  0  0  0 
 84 91  1  0  0  0  0 
 91 92  1  0  0  0  0 
 91 93  1  0  0  0  0 
 93 94  1  0  0  0  0 
 93 95  1  0  0  0  0 
 93 96  1  0  0  0  0 
 96 97  1  0  0  0  0 
 96 98  1  0  0  0  0 
 98 99  1  0  0  0  0 
 98100  1  0  0  0  0 
 98101  1  0  0  0  0 
101102  1  0  0  0  0 
101103  1  0  0  0  0 
101104  1  0  0  0  0 
104105  1  0  0  0  0 
105106  1  0  0  0  0 
105107  1  0  0  0  0 
105108  1  0  0  0  0 
 96108  1  0  0  0  0 
108109  1  0  0  0  0 
108110  1  0  0  0  0 
 83111  1  0  0  0  0 
111112  1  0  0  0  0 
M  CHG  1  88   1
M  CHG  1  90  -1
M  END
> <Rank>
33

> <Priority_score>
0.128

> <Reaction_type>
aromatic_hydroxylation_(ortho_to_nitrogen)

> <Parent_ID>
12

> <Parent_InChI>
InChI=1S/C45H50ClN7O7S/c1-45(2)15-11-33(39(26-45)31-3-5-34(46)6-4-31)29-51-17-19-52(20-18-51)35-7-9-38(42(24-35)60-36-23-32-12-16-47-43(32)49-28-36)44(54)50-61(57,58)37-8-10-40(41(25-37)53(55)56)48-27-30-13-21-59-22-14-30/h3-10,12,16,23-25,28,30,48H,11,13-15,17-22,26-27,29H2,1-2H3,(H,47,49)(H,50,54)

> <Parent_SMILES>
CC1(C)CCC(CN2CCN(c3ccc(C(=O)NS(=O)(=O)c4ccc(NCC5CCOCC5)c([N+](=O)[O-])c4)c(Oc4cnc5[nH]ccc5c4)c3)CC2)=C(c2ccc(Cl)cc2)C1

$$$$
Molecule 12_metabolite 34
  CDK     0516241031

131139  0  0  0  0  0  0  0  0999 V2000
    4.0755   19.0737    0.0000 C   0  0  0  0  0  0  0  0  0  0  0  0
    4.5889   20.4831    0.0000 H   0  0  0  0  0  0  0  0  0  0  0  0
    3.1110   17.9248    0.0000 H   0  0  0  0  0  0  0  0  0  0  0  0
    2.7766   19.8240    0.0000 H   0  0  0  0  0  0  0  0  0  0  0  0
    5.9647   16.8210    0.0000 C   0  0  0  0  0  0  0  0  0  0  0  0
    7.5466   18.7049    0.0000 C   0  0  0  0  0  0  0  0  0  0  0  0
    9.0237   18.4438    0.0000 H   0  0  0  0  0  0  0  0  0  0  0  0
    8.0602   20.1142    0.0000 H   0  0  0  0  0  0  0  0  0  0  0  0
    6.2479   19.4553    0.0000 H   0  0  0  0  0  0  0  0  0  0  0  0
    4.6648   16.0708    0.0000 C   0  0  0  0  0  0  0  0  0  0  0  0
    3.1874   15.8112    0.0000 H   0  0  0  0  0  0  0  0  0  0  0  0
    4.1523   17.4805    0.0000 H   0  0  0  0  0  0  0  0  0  0  0  0
    4.6636   14.5699    0.0000 C   0  0  0  0  0  0  0  0  0  0  0  0
    3.9853   12.7097    0.0000 H   0  0  0  0  0  0  0  0  0  0  0  0
    3.1866   14.8314    0.0000 H   0  0  0  0  0  0  0  0  0  0  0  0
    5.9623   13.8193    0.0000 C   0  0  0  0  0  0  0  0  0  0  0  0
    7.2621   14.5695    0.0000 C   0  0  0  0  0  0  0  0  0  0  0  0
    7.2633   16.0704    0.0000 C   0  0  0  0  0  0  0  0  0  0  0  0
    7.7772   17.4796    0.0000 H   0  0  0  0  0  0  0  0  0  0  0  0
    8.7404   15.8089    0.0000 H   0  0  0  0  0  0  0  0  0  0  0  0
    8.5608   13.8189    0.0000 C   0  0  0  0  0  0  0  0  0  0  0  0
    9.8470   14.5583    0.0000 C   0  0  0  0  0  0  0  0  0  0  0  0
    9.8450   16.0583    0.0000 H   0  0  0  0  0  0  0  0  0  0  0  0
   11.1494   13.8142    0.0000 C   0  0  0  0  0  0  0  0  0  0  0  0
   12.4404   14.5780    0.0000 H   0  0  0  0  0  0  0  0  0  0  0  0
   11.1744   12.3258    0.0000 C   0  0  0  0  0  0  0  0  0  0  0  0
    9.8646   11.5653    0.0000 C   0  0  0  0  0  0  0  0  0  0  0  0
    9.8699   10.0653    0.0000 H   0  0  0  0  0  0  0  0  0  0  0  0
    8.5622   12.3094    0.0000 C   0  0  0  0  0  0  0  0  0  0  0  0
    7.2652   11.5559    0.0000 H   0  0  0  0  0  0  0  0  0  0  0  0
   12.4805   11.5883    0.0000 Cl  0  0  0  0  0  0  0  0  0  0  0  0
    5.9618   12.3193    0.0000 C   0  0  0  0  0  0  0  0  0  0  0  0
    7.4391   12.5793    0.0000 H   0  0  0  0  0  0  0  0  0  0  0  0
    6.4744   10.9096    0.0000 H   0  0  0  0  0  0  0  0  0  0  0  0
    3.4152   10.8501    0.0000 N   0  0  0  0  0  0  0  0  0  0  0  0
    3.4145    9.3493    0.0000 C   0  0  0  0  0  0  0  0  0  0  0  0
    4.8918    9.6094    0.0000 H   0  0  0  0  0  0  0  0  0  0  0  0
    3.9274    7.9397    0.0000 H   0  0  0  0  0  0  0  0  0  0  0  0
    2.1148    8.5987    0.0000 C   0  0  0  0  0  0  0  0  0  0  0  0
    3.0791    7.4497    0.0000 H   0  0  0  0  0  0  0  0  0  0  0  0
    1.1506    7.4497    0.0000 H   0  0  0  0  0  0  0  0  0  0  0  0
    0.8159    9.3489    0.0000 N   0  0  0  0  0  0  0  0  0  0  0  0
    0.8166   10.8497    0.0000 C   0  0  0  0  0  0  0  0  0  0  0  0
   -0.6606   10.5896    0.0000 H   0  0  0  0  0  0  0  0  0  0  0  0
    0.3037   12.2593    0.0000 H   0  0  0  0  0  0  0  0  0  0  0  0
    2.1163   11.6003    0.0000 C   0  0  0  0  0  0  0  0  0  0  0  0
    1.1520   12.7493    0.0000 H   0  0  0  0  0  0  0  0  0  0  0  0
    3.0805   12.7493    0.0000 H   0  0  0  0  0  0  0  0  0  0  0  0
   -0.4834    8.5993    0.0000 C   0  0  0  0  0  0  0  0  0  0  0  0
   -1.7830    9.3499    0.0000 C   0  0  0  0  0  0  0  0  0  0  0  0
   -1.7823   10.8499    0.0000 H   0  0  0  0  0  0  0  0  0  0  0  0
   -3.0834    8.6005    0.0000 C   0  0  0  0  0  0  0  0  0  0  0  0
   -4.3819    9.3514    0.0000 H   0  0  0  0  0  0  0  0  0  0  0  0
   -3.0841    7.1005    0.0000 C   0  0  0  0  0  0  0  0  0  0  0  0
   -1.7844    6.3499    0.0000 C   0  0  0  0  0  0  0  0  0  0  0  0
   -0.4841    7.0993    0.0000 C   0  0  0  0  0  0  0  0  0  0  0  0
    0.8145    6.3485    0.0000 H   0  0  0  0  0  0  0  0  0  0  0  0
   -1.7856    3.8899    0.0000 O   0  0  0  0  0  0  0  0  0  0  0  0
   -0.4869    3.1393    0.0000 C   0  0  0  0  0  0  0  0  0  0  0  0
   -0.4874    1.6385    0.0000 C   0  0  0  0  0  0  0  0  0  0  0  0
   -1.7869    0.8893    0.0000 H   0  0  0  0  0  0  0  0  0  0  0  0
    0.8116    0.8868    0.0000 C   0  0  0  0  0  0  0  0  0  0  0  0
    2.1111    1.6360    0.0000 C   0  0  0  0  0  0  0  0  0  0  0  0
    2.1116    3.1368    0.0000 N   0  0  0  0  0  0  0  0  0  0  0  0
    0.8126    3.8885    0.0000 C   0  0  0  0  0  0  0  0  0  0  0  0
    0.8138    5.3885    0.0000 H   0  0  0  0  0  0  0  0  0  0  0  0
    3.2239    0.6268    0.0000 N   0  0  0  0  0  0  0  0  0  0  0  0
    2.6151   -0.7399    0.0000 C   0  0  0  0  0  0  0  0  0  0  0  0
    3.3643   -2.0394    0.0000 H   0  0  0  0  0  0  0  0  0  0  0  0
    1.1273   -0.5818    0.0000 C   0  0  0  0  0  0  0  0  0  0  0  0
    0.1243   -1.6971    0.0000 H   0  0  0  0  0  0  0  0  0  0  0  0
    5.1613    1.0349    0.0000 C   0  0  0  0  0  0  0  0  0  0  0  0
    4.6022    2.4268    0.0000 H   0  0  0  0  0  0  0  0  0  0  0  0
    6.4351    1.8271    0.0000 C   0  0  0  0  0  0  0  0  0  0  0  0
    5.4338    2.9440    0.0000 H   0  0  0  0  0  0  0  0  0  0  0  0
    7.7585    1.1193    0.0000 C   0  0  0  0  0  0  0  0  0  0  0  0
    8.2252    2.5449    0.0000 H   0  0  0  0  0  0  0  0  0  0  0  0
    7.8083   -0.3807    0.0000 C   0  0  0  0  0  0  0  0  0  0  0  0
    9.2761   -0.0716    0.0000 H   0  0  0  0  0  0  0  0  0  0  0  0
    6.5345   -1.1729    0.0000 C   0  0  0  0  0  0  0  0  0  0  0  0
    7.5358   -2.2898    0.0000 H   0  0  0  0  0  0  0  0  0  0  0  0
    5.6083   -2.3528    0.0000 C   0  0  0  0  0  0  0  0  0  0  0  0
    4.1234   -2.1406    0.0000 O   0  0  0  0  0  0  0  0  0  0  0  0
    6.1671   -3.7449    0.0000 O   0  0  0  0  0  0  0  0  0  0  0  0
    5.2408   -4.9248    0.0000 H   0  0  0  0  0  0  0  0  0  0  0  0
    5.2111   -0.4651    0.0000 O   0  0  0  0  0  0  0  0  0  0  0  0
    8.3674   -1.7726    0.0000 O   0  0  0  0  0  0  0  0  0  0  0  0
    9.8524   -1.9843    0.0000 H   0  0  0  0  0  0  0  0  0  0  0  0
    9.2435    0.9076    0.0000 O   0  0  0  0  0  0  0  0  0  0  0  0
   10.1693    2.0878    0.0000 H   0  0  0  0  0  0  0  0  0  0  0  0
    7.3613    3.0070    0.0000 O   0  0  0  0  0  0  0  0  0  0  0  0
    6.8026    4.3991    0.0000 H   0  0  0  0  0  0  0  0  0  0  0  0
   -4.3834    6.3510    0.0000 C   0  0  0  0  0  0  0  0  0  0  0  0
   -4.3838    4.8510    0.0000 O   0  0  0  0  0  0  0  0  0  0  0  0
   -5.6822    7.1014    0.0000 N   0  0  0  0  0  0  0  0  0  0  0  0
   -5.6817    8.6014    0.0000 H   0  0  0  0  0  0  0  0  0  0  0  0
   -6.9814    6.3518    0.0000 S   0  0  0  0  0  0  0  0  0  0  0  0
   -6.0176    5.2024    0.0000 O   0  0  0  0  0  0  0  0  0  0  0  0
   -7.9460    5.2030    0.0000 O   0  0  0  0  0  0  0  0  0  0  0  0
   -8.2802    7.1022    0.0000 C   0  0  0  0  0  0  0  0  0  0  0  0
   -8.2800    8.6030    0.0000 C   0  0  0  0  0  0  0  0  0  0  0  0
   -6.9806    9.3524    0.0000 H   0  0  0  0  0  0  0  0  0  0  0  0
   -9.5792    9.3545    0.0000 C   0  0  0  0  0  0  0  0  0  0  0  0
   -9.5782   10.8545    0.0000 H   0  0  0  0  0  0  0  0  0  0  0  0
  -10.8786    8.6051    0.0000 C   0  0  0  0  0  0  0  0  0  0  0  0
  -10.8788    7.1043    0.0000 C   0  0  0  0  0  0  0  0  0  0  0  0
   -9.5796    6.3528    0.0000 C   0  0  0  0  0  0  0  0  0  0  0  0
   -9.5806    4.8528    0.0000 H   0  0  0  0  0  0  0  0  0  0  0  0
  -12.1782    6.3549    0.0000 N   0  0  0  0  0  0  0  0  0  0  0  0
  -13.4769    7.1055    0.0000 O   0  0  0  0  0  0  0  0  0  0  0  0
  -12.1789    4.8549    0.0000 O   0  0  0  0  0  0  0  0  0  0  0  0
  -12.1774    9.3555    0.0000 N   0  0  0  0  0  0  0  0  0  0  0  0
  -13.4766    8.6060    0.0000 H   0  0  0  0  0  0  0  0  0  0  0  0
  -12.1769   10.8555    0.0000 C   0  0  0  0  0  0  0  0  0  0  0  0
  -10.6997   10.5946    0.0000 H   0  0  0  0  0  0  0  0  0  0  0  0
  -11.6634   12.2649    0.0000 H   0  0  0  0  0  0  0  0  0  0  0  0
  -14.3069   12.0862    0.0000 C   0  0  0  0  0  0  0  0  0  0  0  0
  -14.8201   10.6767    0.0000 H   0  0  0  0  0  0  0  0  0  0  0  0
  -13.3416   13.2354    0.0000 C   0  0  0  0  0  0  0  0  0  0  0  0
  -12.0423   13.9850    0.0000 H   0  0  0  0  0  0  0  0  0  0  0  0
  -12.3779   12.0859    0.0000 H   0  0  0  0  0  0  0  0  0  0  0  0
  -13.8543   14.6451    0.0000 C   0  0  0  0  0  0  0  0  0  0  0  0
  -13.8543   16.1451    0.0000 H   0  0  0  0  0  0  0  0  0  0  0  0
  -12.3771   14.9054    0.0000 H   0  0  0  0  0  0  0  0  0  0  0  0
  -15.3324   14.9055    0.0000 O   0  0  0  0  0  0  0  0  0  0  0  0
  -16.2977   13.7563    0.0000 C   0  0  0  0  0  0  0  0  0  0  0  0
  -17.5970   13.0067    0.0000 H   0  0  0  0  0  0  0  0  0  0  0  0
  -17.2614   14.9058    0.0000 H   0  0  0  0  0  0  0  0  0  0  0  0
  -15.7850   12.3467    0.0000 C   0  0  0  0  0  0  0  0  0  0  0  0
  -15.7850   10.8467    0.0000 H   0  0  0  0  0  0  0  0  0  0  0  0
  -17.2622   12.0864    0.0000 H   0  0  0  0  0  0  0  0  0  0  0  0
  1  2  1  0  0  0  0 
  1  3  1  0  0  0  0 
  1  4  1  0  0  0  0 
  1  5  1  0  0  0  0 
  5  6  1  0  0  0  0 
  6  7  1  0  0  0  0 
  6  8  1  0  0  0  0 
  6  9  1  0  0  0  0 
  5 10  1  0  0  0  0 
 10 11  1  0  0  0  0 
 10 12  1  0  0  0  0 
 10 13  1  0  0  0  0 
 13 14  1  0  0  0  0 
 13 15  1  0  0  0  0 
 13 16  1  0  0  0  0 
 16 17  2  0  0  0  0 
 17 18  1  0  0  0  0 
  5 18  1  0  0  0  0 
 18 19  1  0  0  0  0 
 18 20  1  0  0  0  0 
 17 21  1  0  0  0  0 
 21 22  2  0  0  0  0 
 22 23  1  0  0  0  0 
 22 24  1  0  0  0  0 
 24 25  1  0  0  0  0 
 24 26  2  0  0  0  0 
 26 27  1  0  0  0  0 
 27 28  1  0  0  0  0 
 27 29  2  0  0  0  0 
 21 29  1  0  0  0  0 
 29 30  1  0  0  0  0 
 26 31  1  0  0  0  0 
 16 32  1  0  0  0  0 
 32 33  1  0  0  0  0 
 32 34  1  0  0  0  0 
 32 35  1  0  0  0  0 
 35 36  1  0  0  0  0 
 36 37  1  0  0  0  0 
 36 38  1  0  0  0  0 
 36 39  1  0  0  0  0 
 39 40  1  0  0  0  0 
 39 41  1  0  0  0  0 
 39 42  1  0  0  0  0 
 42 43  1  0  0  0  0 
 43 44  1  0  0  0  0 
 43 45  1  0  0  0  0 
 43 46  1  0  0  0  0 
 35 46  1  0  0  0  0 
 46 47  1  0  0  0  0 
 46 48  1  0  0  0  0 
 42 49  1  0  0  0  0 
 49 50  2  0  0  0  0 
 50 51  1  0  0  0  0 
 50 52  1  0  0  0  0 
 52 53  1  0  0  0  0 
 52 54  2  0  0  0  0 
 54 55  1  0  0  0  0 
 55 56  2  0  0  0  0 
 49 56  1  0  0  0  0 
 56 57  1  0  0  0  0 
 55 58  1  0  0  0  0 
 58 59  1  0  0  0  0 
 59 60  2  0  0  0  0 
 60 61  1  0  0  0  0 
 60 62  1  0  0  0  0 
 62 63  2  0  0  0  0 
 63 64  1  0  0  0  0 
 64 65  2  0  0  0  0 
 59 65  1  0  0  0  0 
 65 66  1  0  0  0  0 
 63 67  1  0  0  0  0 
 67 68  1  0  0  0  0 
 68 69  1  0  0  0  0 
 68 70  2  0  0  0  0 
 62 70  1  0  0  0  0 
 70 71  1  0  0  0  0 
 67 72  1  0  0  0  0 
 72 73  1  0  0  0  0 
 72 74  1  0  0  0  0 
 74 75  1  0  0  0  0 
 74 76  1  0  0  0  0 
 76 77  1  0  0  0  0 
 76 78  1  0  0  0  0 
 78 79  1  0  0  0  0 
 78 80  1  0  0  0  0 
 80 81  1  0  0  0  0 
 80 82  1  0  0  0  0 
 82 83  2  0  0  0  0 
 82 84  1  0  0  0  0 
 84 85  1  0  0  0  0 
 80 86  1  0  0  0  0 
 72 86  1  0  0  0  0 
 78 87  1  0  0  0  0 
 87 88  1  0  0  0  0 
 76 89  1  0  0  0  0 
 89 90  1  0  0  0  0 
 74 91  1  0  0  0  0 
 91 92  1  0  0  0  0 
 54 93  1  0  0  0  0 
 93 94  2  0  0  0  0 
 93 95  1  0  0  0  0 
 95 96  1  0  0  0  0 
 95 97  1  0  0  0  0 
 97 98  2  0  0  0  0 
 97 99  2  0  0  0  0 
 97100  1  0  0  0  0 
100101  2  0  0  0  0 
101102  1  0  0  0  0 
101103  1  0  0  0  0 
103104  1  0  0  0  0 
103105  2  0  0  0  0 
105106  1  0  0  0  0 
106107  2  0  0  0  0 
100107  1  0  0  0  0 
107108  1  0  0  0  0 
106109  1  0  0  0  0 
109110  2  0  0  0  0 
109111  1  0  0  0  0 
105112  1  0  0  0  0 
112113  1  0  0  0  0 
112114  1  0  0  0  0 
114115  1  0  0  0  0 
114116  1  0  0  0  0 
114117  1  0  0  0  0 
117118  1  0  0  0  0 
117119  1  0  0  0  0 
119120  1  0  0  0  0 
119121  1  0  0  0  0 
119122  1  0  0  0  0 
122123  1  0  0  0  0 
122124  1  0  0  0  0 
122125  1  0  0  0  0 
125126  1  0  0  0  0 
126127  1  0  0  0  0 
126128  1  0  0  0  0 
126129  1  0  0  0  0 
117129  1  0  0  0  0 
129130  1  0  0  0  0 
129131  1  0  0  0  0 
M  CHG  1 109   1
M  CHG  1 111  -1
M  END
> <Rank>
34

> <Priority_score>
0.12

> <Reaction_type>
N-glucuronidation_(aromatic_-nH-)

> <Parent_ID>
12

> <Parent_InChI>
InChI=1S/C45H50ClN7O7S/c1-45(2)15-11-33(39(26-45)31-3-5-34(46)6-4-31)29-51-17-19-52(20-18-51)35-7-9-38(42(24-35)60-36-23-32-12-16-47-43(32)49-28-36)44(54)50-61(57,58)37-8-10-40(41(25-37)53(55)56)48-27-30-13-21-59-22-14-30/h3-10,12,16,23-25,28,30,48H,11,13-15,17-22,26-27,29H2,1-2H3,(H,47,49)(H,50,54)

> <Parent_SMILES>
CC1(C)CCC(CN2CCN(c3ccc(C(=O)NS(=O)(=O)c4ccc(NCC5CCOCC5)c([N+](=O)[O-])c4)c(Oc4cnc5[nH]ccc5c4)c3)CC2)=C(c2ccc(Cl)cc2)C1

$$$$
Molecule 12_metabolite 35
  CDK     0516241031

131139  0  0  0  0  0  0  0  0999 V2000
    6.4096   14.0373    0.0000 C   0  0  0  0  0  0  0  0  0  0  0  0
    7.3741   15.1861    0.0000 H   0  0  0  0  0  0  0  0  0  0  0  0
    5.1104   13.2876    0.0000 H   0  0  0  0  0  0  0  0  0  0  0  0
    5.4457   15.1866    0.0000 H   0  0  0  0  0  0  0  0  0  0  0  0
    7.4144   11.2743    0.0000 C   0  0  0  0  0  0  0  0  0  0  0  0
    9.5453   12.5035    0.0000 C   0  0  0  0  0  0  0  0  0  0  0  0
   10.8441   11.7530    0.0000 H   0  0  0  0  0  0  0  0  0  0  0  0
   10.5099   13.6522    0.0000 H   0  0  0  0  0  0  0  0  0  0  0  0
    8.5816   13.6529    0.0000 H   0  0  0  0  0  0  0  0  0  0  0  0
    5.9364   11.0139    0.0000 C   0  0  0  0  0  0  0  0  0  0  0  0
    4.4593   11.2753    0.0000 H   0  0  0  0  0  0  0  0  0  0  0  0
    5.9369   12.5139    0.0000 H   0  0  0  0  0  0  0  0  0  0  0  0
    5.4219    9.6040    0.0000 C   0  0  0  0  0  0  0  0  0  0  0  0
    4.1483    8.0880    0.0000 H   0  0  0  0  0  0  0  0  0  0  0  0
    4.1234   10.3549    0.0000 H   0  0  0  0  0  0  0  0  0  0  0  0
    6.3855    8.4545    0.0000 C   0  0  0  0  0  0  0  0  0  0  0  0
    7.8636    8.7149    0.0000 C   0  0  0  0  0  0  0  0  0  0  0  0
    8.3781   10.1248    0.0000 C   0  0  0  0  0  0  0  0  0  0  0  0
    9.3429   11.2733    0.0000 H   0  0  0  0  0  0  0  0  0  0  0  0
    9.6766    9.3739    0.0000 H   0  0  0  0  0  0  0  0  0  0  0  0
    8.8272    7.5653    0.0000 C   0  0  0  0  0  0  0  0  0  0  0  0
   10.2887    7.8202    0.0000 C   0  0  0  0  0  0  0  0  0  0  0  0
   10.7999    9.2304    0.0000 H   0  0  0  0  0  0  0  0  0  0  0  0
   11.2581    6.6755    0.0000 C   0  0  0  0  0  0  0  0  0  0  0  0
   12.7325    6.9517    0.0000 H   0  0  0  0  0  0  0  0  0  0  0  0
   10.7725    5.2684    0.0000 C   0  0  0  0  0  0  0  0  0  0  0  0
    9.2816    5.0017    0.0000 C   0  0  0  0  0  0  0  0  0  0  0  0
    8.7735    3.5904    0.0000 H   0  0  0  0  0  0  0  0  0  0  0  0
    8.3123    6.1464    0.0000 C   0  0  0  0  0  0  0  0  0  0  0  0
    6.8358    5.8819    0.0000 H   0  0  0  0  0  0  0  0  0  0  0  0
   11.7477    4.1286    0.0000 Cl  0  0  0  0  0  0  0  0  0  0  0  0
    5.8721    7.0451    0.0000 C   0  0  0  0  0  0  0  0  0  0  0  0
    7.3492    6.7842    0.0000 H   0  0  0  0  0  0  0  0  0  0  0  0
    5.8716    5.5451    0.0000 H   0  0  0  0  0  0  0  0  0  0  0  0
    2.9766    6.5355    0.0000 N   0  0  0  0  0  0  0  0  0  0  0  0
    2.4626    5.1254    0.0000 C   0  0  0  0  0  0  0  0  0  0  0  0
    3.9397    4.8646    0.0000 H   0  0  0  0  0  0  0  0  0  0  0  0
    2.4625    3.6254    0.0000 H   0  0  0  0  0  0  0  0  0  0  0  0
    0.9846    4.8646    0.0000 C   0  0  0  0  0  0  0  0  0  0  0  0
    1.4977    3.4551    0.0000 H   0  0  0  0  0  0  0  0  0  0  0  0
   -0.3145    4.1147    0.0000 H   0  0  0  0  0  0  0  0  0  0  0  0
    0.0206    6.0138    0.0000 N   0  0  0  0  0  0  0  0  0  0  0  0
    0.5346    7.4239    0.0000 C   0  0  0  0  0  0  0  0  0  0  0  0
   -0.9426    7.6848    0.0000 H   0  0  0  0  0  0  0  0  0  0  0  0
    0.5346    8.9239    0.0000 H   0  0  0  0  0  0  0  0  0  0  0  0
    2.0126    7.6847    0.0000 C   0  0  0  0  0  0  0  0  0  0  0  0
    1.4995    9.0943    0.0000 H   0  0  0  0  0  0  0  0  0  0  0  0
    3.3116    8.4347    0.0000 H   0  0  0  0  0  0  0  0  0  0  0  0
   -1.4567    5.7538    0.0000 C   0  0  0  0  0  0  0  0  0  0  0  0
   -2.4213    6.9037    0.0000 C   0  0  0  0  0  0  0  0  0  0  0  0
   -1.9075    8.3130    0.0000 H   0  0  0  0  0  0  0  0  0  0  0  0
   -3.8995    6.6442    0.0000 C   0  0  0  0  0  0  0  0  0  0  0  0
   -4.8629    7.7939    0.0000 H   0  0  0  0  0  0  0  0  0  0  0  0
   -4.4132    5.2349    0.0000 C   0  0  0  0  0  0  0  0  0  0  0  0
   -3.4487    4.0851    0.0000 C   0  0  0  0  0  0  0  0  0  0  0  0
   -1.9704    4.3445    0.0000 C   0  0  0  0  0  0  0  0  0  0  0  0
   -1.0070    3.1948    0.0000 H   0  0  0  0  0  0  0  0  0  0  0  0
   -4.2912    1.7738    0.0000 O   0  0  0  0  0  0  0  0  0  0  0  0
   -3.3275    0.6243    0.0000 C   0  0  0  0  0  0  0  0  0  0  0  0
   -3.8413   -0.7858    0.0000 C   0  0  0  0  0  0  0  0  0  0  0  0
   -5.3187   -1.0454    0.0000 H   0  0  0  0  0  0  0  0  0  0  0  0
   -2.8777   -1.9365    0.0000 C   0  0  0  0  0  0  0  0  0  0  0  0
   -1.4003   -1.6769    0.0000 C   0  0  0  0  0  0  0  0  0  0  0  0
   -0.6998   -3.0058    0.0000 N   0  0  0  0  0  0  0  0  0  0  0  0
    0.7852   -3.2173    0.0000 H   0  0  0  0  0  0  0  0  0  0  0  0
   -1.7393   -4.0819    0.0000 C   0  0  0  0  0  0  0  0  0  0  0  0
   -1.4798   -5.5592    0.0000 H   0  0  0  0  0  0  0  0  0  0  0  0
   -3.0833   -3.4245    0.0000 C   0  0  0  0  0  0  0  0  0  0  0  0
   -4.4073   -4.1295    0.0000 H   0  0  0  0  0  0  0  0  0  0  0  0
   -0.8865   -0.2668    0.0000 N   0  0  0  0  0  0  0  0  0  0  0  0
   -1.8501    0.8838    0.0000 C   0  0  0  0  0  0  0  0  0  0  0  0
   -1.3360    2.2930    0.0000 H   0  0  0  0  0  0  0  0  0  0  0  0
   -5.8905    4.9749    0.0000 C   0  0  0  0  0  0  0  0  0  0  0  0
   -6.4040    3.5656    0.0000 O   0  0  0  0  0  0  0  0  0  0  0  0
   -6.8543    6.1243    0.0000 N   0  0  0  0  0  0  0  0  0  0  0  0
   -6.3408    7.5337    0.0000 H   0  0  0  0  0  0  0  0  0  0  0  0
   -8.3316    5.8643    0.0000 S   0  0  0  0  0  0  0  0  0  0  0  0
   -7.8190    4.4546    0.0000 O   0  0  0  0  0  0  0  0  0  0  0  0
   -9.6309    5.1147    0.0000 O   0  0  0  0  0  0  0  0  0  0  0  0
   -9.2954    7.0137    0.0000 C   0  0  0  0  0  0  0  0  0  0  0  0
   -8.7819    8.4239    0.0000 C   0  0  0  0  0  0  0  0  0  0  0  0
   -7.3045    8.6837    0.0000 H   0  0  0  0  0  0  0  0  0  0  0  0
   -9.7457    9.5744    0.0000 C   0  0  0  0  0  0  0  0  0  0  0  0
   -9.2317   10.9836    0.0000 H   0  0  0  0  0  0  0  0  0  0  0  0
  -11.2230    9.3147    0.0000 C   0  0  0  0  0  0  0  0  0  0  0  0
  -11.7366    7.9044    0.0000 C   0  0  0  0  0  0  0  0  0  0  0  0
  -10.7728    6.7539    0.0000 C   0  0  0  0  0  0  0  0  0  0  0  0
  -11.2867    5.3447    0.0000 H   0  0  0  0  0  0  0  0  0  0  0  0
  -13.2139    7.6447    0.0000 N   0  0  0  0  0  0  0  0  0  0  0  0
  -14.1775    8.7942    0.0000 O   0  0  0  0  0  0  0  0  0  0  0  0
  -13.7276    6.2354    0.0000 O   0  0  0  0  0  0  0  0  0  0  0  0
  -13.1121   11.5674    0.0000 N   0  0  0  0  0  0  0  0  0  0  0  0
  -16.0076   11.0578    0.0000 C   0  0  0  0  0  0  0  0  0  0  0  0
  -15.4950    9.6481    0.0000 H   0  0  0  0  0  0  0  0  0  0  0  0
  -17.3069   10.3082    0.0000 H   0  0  0  0  0  0  0  0  0  0  0  0
  -17.5882   12.9428    0.0000 C   0  0  0  0  0  0  0  0  0  0  0  0
  -16.2888   13.6921    0.0000 H   0  0  0  0  0  0  0  0  0  0  0  0
  -18.5531   11.7932    0.0000 C   0  0  0  0  0  0  0  0  0  0  0  0
  -19.0666   10.3838    0.0000 H   0  0  0  0  0  0  0  0  0  0  0  0
  -17.2542   11.0429    0.0000 H   0  0  0  0  0  0  0  0  0  0  0  0
  -20.0302   12.0543    0.0000 C   0  0  0  0  0  0  0  0  0  0  0  0
  -21.5076   11.7948    0.0000 H   0  0  0  0  0  0  0  0  0  0  0  0
  -20.0310   10.5543    0.0000 H   0  0  0  0  0  0  0  0  0  0  0  0
  -20.5424   13.4650    0.0000 O   0  0  0  0  0  0  0  0  0  0  0  0
  -19.5776   14.6146    0.0000 C   0  0  0  0  0  0  0  0  0  0  0  0
  -19.0641   16.0240    0.0000 H   0  0  0  0  0  0  0  0  0  0  0  0
  -20.8765   15.3649    0.0000 H   0  0  0  0  0  0  0  0  0  0  0  0
  -18.1005   14.3535    0.0000 C   0  0  0  0  0  0  0  0  0  0  0  0
  -16.6231   14.6130    0.0000 H   0  0  0  0  0  0  0  0  0  0  0  0
  -18.0997   15.8535    0.0000 H   0  0  0  0  0  0  0  0  0  0  0  0
  -12.2700   13.8788    0.0000 C   0  0  0  0  0  0  0  0  0  0  0  0
  -11.1203   14.8422    0.0000 H   0  0  0  0  0  0  0  0  0  0  0  0
  -12.7823   15.2886    0.0000 C   0  0  0  0  0  0  0  0  0  0  0  0
  -14.0818   14.5394    0.0000 H   0  0  0  0  0  0  0  0  0  0  0  0
  -11.8166   16.4375    0.0000 C   0  0  0  0  0  0  0  0  0  0  0  0
  -13.1151   17.1883    0.0000 H   0  0  0  0  0  0  0  0  0  0  0  0
  -10.3386   16.1766    0.0000 C   0  0  0  0  0  0  0  0  0  0  0  0
  -10.3381   17.6766    0.0000 H   0  0  0  0  0  0  0  0  0  0  0  0
   -9.8263   14.7668    0.0000 C   0  0  0  0  0  0  0  0  0  0  0  0
   -8.5268   15.5159    0.0000 H   0  0  0  0  0  0  0  0  0  0  0  0
   -8.5547   13.2490    0.0000 C   0  0  0  0  0  0  0  0  0  0  0  0
   -9.0688   11.8399    0.0000 O   0  0  0  0  0  0  0  0  0  0  0  0
   -7.0773   13.5084    0.0000 O   0  0  0  0  0  0  0  0  0  0  0  0
   -6.5632   14.9176    0.0000 H   0  0  0  0  0  0  0  0  0  0  0  0
  -10.7920   13.6179    0.0000 O   0  0  0  0  0  0  0  0  0  0  0  0
   -8.8613   16.4364    0.0000 O   0  0  0  0  0  0  0  0  0  0  0  0
   -8.3476   17.8457    0.0000 H   0  0  0  0  0  0  0  0  0  0  0  0
  -11.3029   17.8468    0.0000 O   0  0  0  0  0  0  0  0  0  0  0  0
  -12.2666   18.9963    0.0000 H   0  0  0  0  0  0  0  0  0  0  0  0
  -13.7456   16.4384    0.0000 O   0  0  0  0  0  0  0  0  0  0  0  0
  -15.2230   16.1790    0.0000 H   0  0  0  0  0  0  0  0  0  0  0  0
  1  2  1  0  0  0  0 
  1  3  1  0  0  0  0 
  1  4  1  0  0  0  0 
  1  5  1  0  0  0  0 
  5  6  1  0  0  0  0 
  6  7  1  0  0  0  0 
  6  8  1  0  0  0  0 
  6  9  1  0  0  0  0 
  5 10  1  0  0  0  0 
 10 11  1  0  0  0  0 
 10 12  1  0  0  0  0 
 10 13  1  0  0  0  0 
 13 14  1  0  0  0  0 
 13 15  1  0  0  0  0 
 13 16  1  0  0  0  0 
 16 17  2  0  0  0  0 
 17 18  1  0  0  0  0 
  5 18  1  0  0  0  0 
 18 19  1  0  0  0  0 
 18 20  1  0  0  0  0 
 17 21  1  0  0  0  0 
 21 22  2  0  0  0  0 
 22 23  1  0  0  0  0 
 22 24  1  0  0  0  0 
 24 25  1  0  0  0  0 
 24 26  2  0  0  0  0 
 26 27  1  0  0  0  0 
 27 28  1  0  0  0  0 
 27 29  2  0  0  0  0 
 21 29  1  0  0  0  0 
 29 30  1  0  0  0  0 
 26 31  1  0  0  0  0 
 16 32  1  0  0  0  0 
 32 33  1  0  0  0  0 
 32 34  1  0  0  0  0 
 32 35  1  0  0  0  0 
 35 36  1  0  0  0  0 
 36 37  1  0  0  0  0 
 36 38  1  0  0  0  0 
 36 39  1  0  0  0  0 
 39 40  1  0  0  0  0 
 39 41  1  0  0  0  0 
 39 42  1  0  0  0  0 
 42 43  1  0  0  0  0 
 43 44  1  0  0  0  0 
 43 45  1  0  0  0  0 
 43 46  1  0  0  0  0 
 35 46  1  0  0  0  0 
 46 47  1  0  0  0  0 
 46 48  1  0  0  0  0 
 42 49  1  0  0  0  0 
 49 50  2  0  0  0  0 
 50 51  1  0  0  0  0 
 50 52  1  0  0  0  0 
 52 53  1  0  0  0  0 
 52 54  2  0  0  0  0 
 54 55  1  0  0  0  0 
 55 56  2  0  0  0  0 
 49 56  1  0  0  0  0 
 56 57  1  0  0  0  0 
 55 58  1  0  0  0  0 
 58 59  1  0  0  0  0 
 59 60  2  0  0  0  0 
 60 61  1  0  0  0  0 
 60 62  1  0  0  0  0 
 62 63  2  0  0  0  0 
 63 64  1  0  0  0  0 
 64 65  1  0  0  0  0 
 64 66  1  0  0  0  0 
 66 67  1  0  0  0  0 
 66 68  2  0  0  0  0 
 62 68  1  0  0  0  0 
 68 69  1  0  0  0  0 
 63 70  1  0  0  0  0 
 70 71  2  0  0  0  0 
 59 71  1  0  0  0  0 
 71 72  1  0  0  0  0 
 54 73  1  0  0  0  0 
 73 74  2  0  0  0  0 
 73 75  1  0  0  0  0 
 75 76  1  0  0  0  0 
 75 77  1  0  0  0  0 
 77 78  2  0  0  0  0 
 77 79  2  0  0  0  0 
 77 80  1  0  0  0  0 
 80 81  2  0  0  0  0 
 81 82  1  0  0  0  0 
 81 83  1  0  0  0  0 
 83 84  1  0  0  0  0 
 83 85  2  0  0  0  0 
 85 86  1  0  0  0  0 
 86 87  2  0  0  0  0 
 80 87  1  0  0  0  0 
 87 88  1  0  0  0  0 
 86 89  1  0  0  0  0 
 89 90  2  0  0  0  0 
 89 91  1  0  0  0  0 
 85 92  1  0  0  0  0 
 92 93  1  0  0  0  0 
 93 94  1  0  0  0  0 
 93 95  1  0  0  0  0 
 93 96  1  0  0  0  0 
 96 97  1  0  0  0  0 
 96 98  1  0  0  0  0 
 98 99  1  0  0  0  0 
 98100  1  0  0  0  0 
 98101  1  0  0  0  0 
101102  1  0  0  0  0 
101103  1  0  0  0  0 
101104  1  0  0  0  0 
104105  1  0  0  0  0 
105106  1  0  0  0  0 
105107  1  0  0  0  0 
105108  1  0  0  0  0 
 96108  1  0  0  0  0 
108109  1  0  0  0  0 
108110  1  0  0  0  0 
 92111  1  0  0  0  0 
111112  1  0  0  0  0 
111113  1  0  0  0  0 
113114  1  0  0  0  0 
113115  1  0  0  0  0 
115116  1  0  0  0  0 
115117  1  0  0  0  0 
117118  1  0  0  0  0 
117119  1  0  0  0  0 
119120  1  0  0  0  0 
119121  1  0  0  0  0 
121122  2  0  0  0  0 
121123  1  0  0  0  0 
123124  1  0  0  0  0 
119125  1  0  0  0  0 
111125  1  0  0  0  0 
117126  1  0  0  0  0 
126127  1  0  0  0  0 
115128  1  0  0  0  0 
128129  1  0  0  0  0 
113130  1  0  0  0  0 
130131  1  0  0  0  0 
M  CHG  1  89   1
M  CHG  1  91  -1
M  END
> <Rank>
35

> <Priority_score>
0.108

> <Reaction_type>
N-glucuronidation_(aniline_NH1-R)

> <Parent_ID>
12

> <Parent_InChI>
InChI=1S/C45H50ClN7O7S/c1-45(2)15-11-33(39(26-45)31-3-5-34(46)6-4-31)29-51-17-19-52(20-18-51)35-7-9-38(42(24-35)60-36-23-32-12-16-47-43(32)49-28-36)44(54)50-61(57,58)37-8-10-40(41(25-37)53(55)56)48-27-30-13-21-59-22-14-30/h3-10,12,16,23-25,28,30,48H,11,13-15,17-22,26-27,29H2,1-2H3,(H,47,49)(H,50,54)

> <Parent_SMILES>
CC1(C)CCC(CN2CCN(c3ccc(C(=O)NS(=O)(=O)c4ccc(NCC5CCOCC5)c([N+](=O)[O-])c4)c(Oc4cnc5[nH]ccc5c4)c3)CC2)=C(c2ccc(Cl)cc2)C1

$$$$
Molecule 12_metabolite 36
  CDK     0516241031

112119  0  0  0  0  0  0  0  0999 V2000
    4.0755   19.0737    0.0000 C   0  0  0  0  0  0  0  0  0  0  0  0
    2.5982   18.8136    0.0000 H   0  0  0  0  0  0  0  0  0  0  0  0
    5.3747   19.8233    0.0000 H   0  0  0  0  0  0  0  0  0  0  0  0
    3.5628   20.4833    0.0000 H   0  0  0  0  0  0  0  0  0  0  0  0
    5.6562   17.1888    0.0000 C   0  0  0  0  0  0  0  0  0  0  0  0
    7.2382   19.0726    0.0000 C   0  0  0  0  0  0  0  0  0  0  0  0
    6.7257   20.4824    0.0000 H   0  0  0  0  0  0  0  0  0  0  0  0
    8.5375   19.8222    0.0000 H   0  0  0  0  0  0  0  0  0  0  0  0
    8.2019   17.9232    0.0000 H   0  0  0  0  0  0  0  0  0  0  0  0
    4.3563   16.4386    0.0000 C   0  0  0  0  0  0  0  0  0  0  0  0
    2.8790   16.1789    0.0000 H   0  0  0  0  0  0  0  0  0  0  0  0
    3.8438   17.8483    0.0000 H   0  0  0  0  0  0  0  0  0  0  0  0
    4.3551   14.9377    0.0000 C   0  0  0  0  0  0  0  0  0  0  0  0
    3.6768   13.0775    0.0000 H   0  0  0  0  0  0  0  0  0  0  0  0
    2.8781   15.1992    0.0000 H   0  0  0  0  0  0  0  0  0  0  0  0
    5.6538   14.1871    0.0000 C   0  0  0  0  0  0  0  0  0  0  0  0
    6.9537   14.9373    0.0000 C   0  0  0  0  0  0  0  0  0  0  0  0
    6.9549   16.4381    0.0000 C   0  0  0  0  0  0  0  0  0  0  0  0
    7.4688   17.8474    0.0000 H   0  0  0  0  0  0  0  0  0  0  0  0
    8.4319   16.1766    0.0000 H   0  0  0  0  0  0  0  0  0  0  0  0
    8.2524   14.1867    0.0000 C   0  0  0  0  0  0  0  0  0  0  0  0
    9.5386   14.9260    0.0000 C   0  0  0  0  0  0  0  0  0  0  0  0
    9.5365   16.4260    0.0000 H   0  0  0  0  0  0  0  0  0  0  0  0
   10.8410   14.1819    0.0000 C   0  0  0  0  0  0  0  0  0  0  0  0
   12.1320   14.9457    0.0000 H   0  0  0  0  0  0  0  0  0  0  0  0
   10.8659   12.6935    0.0000 C   0  0  0  0  0  0  0  0  0  0  0  0
    9.5562   11.9331    0.0000 C   0  0  0  0  0  0  0  0  0  0  0  0
    9.5614   10.4331    0.0000 H   0  0  0  0  0  0  0  0  0  0  0  0
    8.2538   12.6772    0.0000 C   0  0  0  0  0  0  0  0  0  0  0  0
    6.9568   11.9236    0.0000 H   0  0  0  0  0  0  0  0  0  0  0  0
   12.1721   11.9560    0.0000 Cl  0  0  0  0  0  0  0  0  0  0  0  0
    5.6533   12.6871    0.0000 C   0  0  0  0  0  0  0  0  0  0  0  0
    7.1306   12.9471    0.0000 H   0  0  0  0  0  0  0  0  0  0  0  0
    6.1659   11.2774    0.0000 H   0  0  0  0  0  0  0  0  0  0  0  0
    3.1068   11.2179    0.0000 N   0  0  0  0  0  0  0  0  0  0  0  0
    3.1060    9.7171    0.0000 C   0  0  0  0  0  0  0  0  0  0  0  0
    4.5833    9.9772    0.0000 H   0  0  0  0  0  0  0  0  0  0  0  0
    3.6190    8.3075    0.0000 H   0  0  0  0  0  0  0  0  0  0  0  0
    1.8064    8.9665    0.0000 C   0  0  0  0  0  0  0  0  0  0  0  0
    2.7706    7.8174    0.0000 H   0  0  0  0  0  0  0  0  0  0  0  0
    0.8422    7.8174    0.0000 H   0  0  0  0  0  0  0  0  0  0  0  0
    0.5075    9.7167    0.0000 N   0  0  0  0  0  0  0  0  0  0  0  0
    0.5082   11.2175    0.0000 C   0  0  0  0  0  0  0  0  0  0  0  0
   -0.9691   10.9574    0.0000 H   0  0  0  0  0  0  0  0  0  0  0  0
   -0.0048   12.6271    0.0000 H   0  0  0  0  0  0  0  0  0  0  0  0
    1.8078   11.9681    0.0000 C   0  0  0  0  0  0  0  0  0  0  0  0
    0.8436   13.1171    0.0000 H   0  0  0  0  0  0  0  0  0  0  0  0
    2.7721   13.1171    0.0000 H   0  0  0  0  0  0  0  0  0  0  0  0
   -0.7918    8.9671    0.0000 C   0  0  0  0  0  0  0  0  0  0  0  0
   -2.0914    9.7177    0.0000 C   0  0  0  0  0  0  0  0  0  0  0  0
   -2.0907   11.2177    0.0000 H   0  0  0  0  0  0  0  0  0  0  0  0
   -3.3918    8.9683    0.0000 C   0  0  0  0  0  0  0  0  0  0  0  0
   -4.6904    9.7192    0.0000 H   0  0  0  0  0  0  0  0  0  0  0  0
   -3.3925    7.4683    0.0000 C   0  0  0  0  0  0  0  0  0  0  0  0
   -2.0929    6.7177    0.0000 C   0  0  0  0  0  0  0  0  0  0  0  0
   -0.7925    7.4671    0.0000 C   0  0  0  0  0  0  0  0  0  0  0  0
    0.5060    6.7162    0.0000 H   0  0  0  0  0  0  0  0  0  0  0  0
   -2.0941    4.2577    0.0000 O   0  0  0  0  0  0  0  0  0  0  0  0
   -0.7954    3.5071    0.0000 C   0  0  0  0  0  0  0  0  0  0  0  0
   -0.7959    2.0062    0.0000 C   0  0  0  0  0  0  0  0  0  0  0  0
   -2.0954    1.2571    0.0000 H   0  0  0  0  0  0  0  0  0  0  0  0
    0.5032    1.2546    0.0000 C   0  0  0  0  0  0  0  0  0  0  0  0
    1.8027    2.0037    0.0000 C   0  0  0  0  0  0  0  0  0  0  0  0
    1.8032    3.5046    0.0000 N   0  0  0  0  0  0  0  0  0  0  0  0
    0.5041    4.2562    0.0000 C   0  0  0  0  0  0  0  0  0  0  0  0
    0.5053    5.7562    0.0000 H   0  0  0  0  0  0  0  0  0  0  0  0
    2.9154    0.9946    0.0000 N   0  0  0  0  0  0  0  0  0  0  0  0
    4.3832    1.3037    0.0000 H   0  0  0  0  0  0  0  0  0  0  0  0
    2.3066   -0.3721    0.0000 C   0  0  0  0  0  0  0  0  0  0  0  0
    3.0558   -1.6716    0.0000 H   0  0  0  0  0  0  0  0  0  0  0  0
    0.8189   -0.2140    0.0000 C   0  0  0  0  0  0  0  0  0  0  0  0
   -0.1842   -1.3293    0.0000 O   0  0  0  0  0  0  0  0  0  0  0  0
    0.2802   -2.7557    0.0000 H   0  0  0  0  0  0  0  0  0  0  0  0
   -4.6918    6.7187    0.0000 C   0  0  0  0  0  0  0  0  0  0  0  0
   -4.6923    5.2187    0.0000 O   0  0  0  0  0  0  0  0  0  0  0  0
   -5.9906    7.4692    0.0000 N   0  0  0  0  0  0  0  0  0  0  0  0
   -5.9901    8.9692    0.0000 H   0  0  0  0  0  0  0  0  0  0  0  0
   -7.2899    6.7196    0.0000 S   0  0  0  0  0  0  0  0  0  0  0  0
   -6.3261    5.5702    0.0000 O   0  0  0  0  0  0  0  0  0  0  0  0
   -8.2544    5.5708    0.0000 O   0  0  0  0  0  0  0  0  0  0  0  0
   -8.5887    7.4700    0.0000 C   0  0  0  0  0  0  0  0  0  0  0  0
   -8.5884    8.9708    0.0000 C   0  0  0  0  0  0  0  0  0  0  0  0
   -7.2890    9.7202    0.0000 H   0  0  0  0  0  0  0  0  0  0  0  0
   -9.8876    9.7223    0.0000 C   0  0  0  0  0  0  0  0  0  0  0  0
   -9.8866   11.2223    0.0000 H   0  0  0  0  0  0  0  0  0  0  0  0
  -11.1870    8.9729    0.0000 C   0  0  0  0  0  0  0  0  0  0  0  0
  -11.1872    7.4721    0.0000 C   0  0  0  0  0  0  0  0  0  0  0  0
   -9.8881    6.7206    0.0000 C   0  0  0  0  0  0  0  0  0  0  0  0
   -9.8890    5.2206    0.0000 H   0  0  0  0  0  0  0  0  0  0  0  0
  -12.4866    6.7227    0.0000 N   0  0  0  0  0  0  0  0  0  0  0  0
  -13.7853    7.4733    0.0000 O   0  0  0  0  0  0  0  0  0  0  0  0
  -12.4874    5.2227    0.0000 O   0  0  0  0  0  0  0  0  0  0  0  0
  -12.4858    9.7233    0.0000 N   0  0  0  0  0  0  0  0  0  0  0  0
  -13.7851    8.9737    0.0000 H   0  0  0  0  0  0  0  0  0  0  0  0
  -12.4853   11.2233    0.0000 C   0  0  0  0  0  0  0  0  0  0  0  0
  -11.0082   10.9624    0.0000 H   0  0  0  0  0  0  0  0  0  0  0  0
  -11.9718   12.6327    0.0000 H   0  0  0  0  0  0  0  0  0  0  0  0
  -14.6153   12.4540    0.0000 C   0  0  0  0  0  0  0  0  0  0  0  0
  -15.1285   11.0445    0.0000 H   0  0  0  0  0  0  0  0  0  0  0  0
  -13.6500   13.6032    0.0000 C   0  0  0  0  0  0  0  0  0  0  0  0
  -12.3507   14.3528    0.0000 H   0  0  0  0  0  0  0  0  0  0  0  0
  -12.6863   12.4537    0.0000 H   0  0  0  0  0  0  0  0  0  0  0  0
  -14.1627   15.0128    0.0000 C   0  0  0  0  0  0  0  0  0  0  0  0
  -14.1627   16.5128    0.0000 H   0  0  0  0  0  0  0  0  0  0  0  0
  -12.6855   15.2732    0.0000 H   0  0  0  0  0  0  0  0  0  0  0  0
  -15.6408   15.2733    0.0000 O   0  0  0  0  0  0  0  0  0  0  0  0
  -16.6061   14.1241    0.0000 C   0  0  0  0  0  0  0  0  0  0  0  0
  -17.9054   13.3745    0.0000 H   0  0  0  0  0  0  0  0  0  0  0  0
  -17.5698   15.2736    0.0000 H   0  0  0  0  0  0  0  0  0  0  0  0
  -16.0934   12.7145    0.0000 C   0  0  0  0  0  0  0  0  0  0  0  0
  -16.0934   11.2145    0.0000 H   0  0  0  0  0  0  0  0  0  0  0  0
  -17.5706   12.4541    0.0000 H   0  0  0  0  0  0  0  0  0  0  0  0
  1  2  1  0  0  0  0 
  1  3  1  0  0  0  0 
  1  4  1  0  0  0  0 
  1  5  1  0  0  0  0 
  5  6  1  0  0  0  0 
  6  7  1  0  0  0  0 
  6  8  1  0  0  0  0 
  6  9  1  0  0  0  0 
  5 10  1  0  0  0  0 
 10 11  1  0  0  0  0 
 10 12  1  0  0  0  0 
 10 13  1  0  0  0  0 
 13 14  1  0  0  0  0 
 13 15  1  0  0  0  0 
 13 16  1  0  0  0  0 
 16 17  2  0  0  0  0 
 17 18  1  0  0  0  0 
  5 18  1  0  0  0  0 
 18 19  1  0  0  0  0 
 18 20  1  0  0  0  0 
 17 21  1  0  0  0  0 
 21 22  2  0  0  0  0 
 22 23  1  0  0  0  0 
 22 24  1  0  0  0  0 
 24 25  1  0  0  0  0 
 24 26  2  0  0  0  0 
 26 27  1  0  0  0  0 
 27 28  1  0  0  0  0 
 27 29  2  0  0  0  0 
 21 29  1  0  0  0  0 
 29 30  1  0  0  0  0 
 26 31  1  0  0  0  0 
 16 32  1  0  0  0  0 
 32 33  1  0  0  0  0 
 32 34  1  0  0  0  0 
 32 35  1  0  0  0  0 
 35 36  1  0  0  0  0 
 36 37  1  0  0  0  0 
 36 38  1  0  0  0  0 
 36 39  1  0  0  0  0 
 39 40  1  0  0  0  0 
 39 41  1  0  0  0  0 
 39 42  1  0  0  0  0 
 42 43  1  0  0  0  0 
 43 44  1  0  0  0  0 
 43 45  1  0  0  0  0 
 43 46  1  0  0  0  0 
 35 46  1  0  0  0  0 
 46 47  1  0  0  0  0 
 46 48  1  0  0  0  0 
 42 49  1  0  0  0  0 
 49 50  2  0  0  0  0 
 50 51  1  0  0  0  0 
 50 52  1  0  0  0  0 
 52 53  1  0  0  0  0 
 52 54  2  0  0  0  0 
 54 55  1  0  0  0  0 
 55 56  2  0  0  0  0 
 49 56  1  0  0  0  0 
 56 57  1  0  0  0  0 
 55 58  1  0  0  0  0 
 58 59  1  0  0  0  0 
 59 60  2  0  0  0  0 
 60 61  1  0  0  0  0 
 60 62  1  0  0  0  0 
 62 63  2  0  0  0  0 
 63 64  1  0  0  0  0 
 64 65  2  0  0  0  0 
 59 65  1  0  0  0  0 
 65 66  1  0  0  0  0 
 63 67  1  0  0  0  0 
 67 68  1  0  0  0  0 
 67 69  1  0  0  0  0 
 69 70  1  0  0  0  0 
 69 71  2  0  0  0  0 
 62 71  1  0  0  0  0 
 71 72  1  0  0  0  0 
 72 73  1  0  0  0  0 
 54 74  1  0  0  0  0 
 74 75  2  0  0  0  0 
 74 76  1  0  0  0  0 
 76 77  1  0  0  0  0 
 76 78  1  0  0  0  0 
 78 79  2  0  0  0  0 
 78 80  2  0  0  0  0 
 78 81  1  0  0  0  0 
 81 82  2  0  0  0  0 
 82 83  1  0  0  0  0 
 82 84  1  0  0  0  0 
 84 85  1  0  0  0  0 
 84 86  2  0  0  0  0 
 86 87  1  0  0  0  0 
 87 88  2  0  0  0  0 
 81 88  1  0  0  0  0 
 88 89  1  0  0  0  0 
 87 90  1  0  0  0  0 
 90 91  2  0  0  0  0 
 90 92  1  0  0  0  0 
 86 93  1  0  0  0  0 
 93 94  1  0  0  0  0 
 93 95  1  0  0  0  0 
 95 96  1  0  0  0  0 
 95 97  1  0  0  0  0 
 95 98  1  0  0  0  0 
 98 99  1  0  0  0  0 
 98100  1  0  0  0  0 
100101  1  0  0  0  0 
100102  1  0  0  0  0 
100103  1  0  0  0  0 
103104  1  0  0  0  0 
103105  1  0  0  0  0 
103106  1  0  0  0  0 
106107  1  0  0  0  0 
107108  1  0  0  0  0 
107109  1  0  0  0  0 
107110  1  0  0  0  0 
 98110  1  0  0  0  0 
110111  1  0  0  0  0 
110112  1  0  0  0  0 
M  CHG  1  90   1
M  CHG  1  92  -1
M  END
> <Rank>
36

> <Priority_score>
0.1

> <Reaction_type>
aromatic hydroxylation

> <Parent_ID>
12

> <Parent_InChI>
InChI=1S/C45H50ClN7O7S/c1-45(2)15-11-33(39(26-45)31-3-5-34(46)6-4-31)29-51-17-19-52(20-18-51)35-7-9-38(42(24-35)60-36-23-32-12-16-47-43(32)49-28-36)44(54)50-61(57,58)37-8-10-40(41(25-37)53(55)56)48-27-30-13-21-59-22-14-30/h3-10,12,16,23-25,28,30,48H,11,13-15,17-22,26-27,29H2,1-2H3,(H,47,49)(H,50,54)

> <Parent_SMILES>
CC1(C)CCC(CN2CCN(c3ccc(C(=O)NS(=O)(=O)c4ccc(NCC5CCOCC5)c([N+](=O)[O-])c4)c(Oc4cnc5[nH]ccc5c4)c3)CC2)=C(c2ccc(Cl)cc2)C1

$$$$
Molecule 12_metabolite 37
  CDK     0516241031

112119  0  0  0  0  0  0  0  0999 V2000
   -9.3295   -4.1190    0.0000 C   0  0  0  0  0  0  0  0  0  0  0  0
   -9.8416   -2.7091    0.0000 H   0  0  0  0  0  0  0  0  0  0  0  0
   -9.3306   -5.6190    0.0000 H   0  0  0  0  0  0  0  0  0  0  0  0
  -10.8069   -4.3785    0.0000 H   0  0  0  0  0  0  0  0  0  0  0  0
   -6.9072   -4.5479    0.0000 C   0  0  0  0  0  0  0  0  0  0  0  0
   -7.7499   -6.8590    0.0000 C   0  0  0  0  0  0  0  0  0  0  0  0
   -9.2273   -7.1186    0.0000 H   0  0  0  0  0  0  0  0  0  0  0  0
   -7.7508   -8.3590    0.0000 H   0  0  0  0  0  0  0  0  0  0  0  0
   -6.2729   -7.1204    0.0000 H   0  0  0  0  0  0  0  0  0  0  0  0
   -6.9060   -3.0471    0.0000 C   0  0  0  0  0  0  0  0  0  0  0  0
   -7.4185   -1.6373    0.0000 H   0  0  0  0  0  0  0  0  0  0  0  0
   -8.3834   -3.3067    0.0000 H   0  0  0  0  0  0  0  0  0  0  0  0
   -5.6061   -2.2968    0.0000 C   0  0  0  0  0  0  0  0  0  0  0  0
   -4.6415   -1.1481    0.0000 H   0  0  0  0  0  0  0  0  0  0  0  0
   -6.5700   -1.1475    0.0000 H   0  0  0  0  0  0  0  0  0  0  0  0
   -4.3074   -3.0475    0.0000 C   0  0  0  0  0  0  0  0  0  0  0  0
   -4.3086   -4.5483    0.0000 C   0  0  0  0  0  0  0  0  0  0  0  0
   -5.6085   -5.2985    0.0000 C   0  0  0  0  0  0  0  0  0  0  0  0
   -6.5731   -6.4472    0.0000 H   0  0  0  0  0  0  0  0  0  0  0  0
   -4.6446   -6.4478    0.0000 H   0  0  0  0  0  0  0  0  0  0  0  0
   -3.0100   -5.2989    0.0000 C   0  0  0  0  0  0  0  0  0  0  0  0
   -3.0086   -6.7825    0.0000 C   0  0  0  0  0  0  0  0  0  0  0  0
   -4.3094   -7.5295    0.0000 H   0  0  0  0  0  0  0  0  0  0  0  0
   -1.7137   -7.5396    0.0000 C   0  0  0  0  0  0  0  0  0  0  0  0
   -1.7311   -9.0395    0.0000 H   0  0  0  0  0  0  0  0  0  0  0  0
   -0.4115   -6.8183    0.0000 C   0  0  0  0  0  0  0  0  0  0  0  0
   -0.4064   -5.3038    0.0000 C   0  0  0  0  0  0  0  0  0  0  0  0
    0.8960   -4.5596    0.0000 H   0  0  0  0  0  0  0  0  0  0  0  0
   -1.7013   -4.5466    0.0000 C   0  0  0  0  0  0  0  0  0  0  0  0
   -1.6957   -3.0466    0.0000 H   0  0  0  0  0  0  0  0  0  0  0  0
    0.8795   -7.5819    0.0000 Cl  0  0  0  0  0  0  0  0  0  0  0  0
   -3.0079   -2.2983    0.0000 C   0  0  0  0  0  0  0  0  0  0  0  0
   -2.4958   -3.7082    0.0000 H   0  0  0  0  0  0  0  0  0  0  0  0
   -1.5305   -2.0388    0.0000 H   0  0  0  0  0  0  0  0  0  0  0  0
   -3.0060    0.6417    0.0000 N   0  0  0  0  0  0  0  0  0  0  0  0
   -1.7059    1.3915    0.0000 C   0  0  0  0  0  0  0  0  0  0  0  0
   -1.1939   -0.0184    0.0000 H   0  0  0  0  0  0  0  0  0  0  0  0
   -0.2285    1.6506    0.0000 H   0  0  0  0  0  0  0  0  0  0  0  0
   -1.7042    2.8923    0.0000 C   0  0  0  0  0  0  0  0  0  0  0  0
   -0.2273    2.6303    0.0000 H   0  0  0  0  0  0  0  0  0  0  0  0
   -1.1899    4.3014    0.0000 H   0  0  0  0  0  0  0  0  0  0  0  0
   -3.0027    3.6434    0.0000 N   0  0  0  0  0  0  0  0  0  0  0  0
   -4.3028    2.8936    0.0000 C   0  0  0  0  0  0  0  0  0  0  0  0
   -4.8148    4.3035    0.0000 H   0  0  0  0  0  0  0  0  0  0  0  0
   -5.7802    2.6344    0.0000 H   0  0  0  0  0  0  0  0  0  0  0  0
   -4.3045    1.3927    0.0000 C   0  0  0  0  0  0  0  0  0  0  0  0
   -5.7814    1.6547    0.0000 H   0  0  0  0  0  0  0  0  0  0  0  0
   -5.2960   -0.3211    0.0000 H   0  0  0  0  0  0  0  0  0  0  0  0
   -3.0017    5.1434    0.0000 C   0  0  0  0  0  0  0  0  0  0  0  0
   -4.3009    5.8948    0.0000 C   0  0  0  0  0  0  0  0  0  0  0  0
   -5.6003    5.1454    0.0000 H   0  0  0  0  0  0  0  0  0  0  0  0
   -4.3006    7.3956    0.0000 C   0  0  0  0  0  0  0  0  0  0  0  0
   -5.5994    8.1461    0.0000 H   0  0  0  0  0  0  0  0  0  0  0  0
   -3.0012    8.1450    0.0000 C   0  0  0  0  0  0  0  0  0  0  0  0
   -1.7021    7.3936    0.0000 C   0  0  0  0  0  0  0  0  0  0  0  0
   -1.7023    5.8927    0.0000 C   0  0  0  0  0  0  0  0  0  0  0  0
   -0.4035    5.1423    0.0000 H   0  0  0  0  0  0  0  0  0  0  0  0
    0.4289    8.6225    0.0000 O   0  0  0  0  0  0  0  0  0  0  0  0
    1.7276    7.8719    0.0000 C   0  0  0  0  0  0  0  0  0  0  0  0
    1.7271    6.3711    0.0000 C   0  0  0  0  0  0  0  0  0  0  0  0
    0.4276    5.6219    0.0000 H   0  0  0  0  0  0  0  0  0  0  0  0
    3.0262    5.6194    0.0000 C   0  0  0  0  0  0  0  0  0  0  0  0
    4.3257    6.3686    0.0000 C   0  0  0  0  0  0  0  0  0  0  0  0
    5.4384    5.3595    0.0000 N   0  0  0  0  0  0  0  0  0  0  0  0
    6.9062    5.6686    0.0000 H   0  0  0  0  0  0  0  0  0  0  0  0
    4.8297    3.9927    0.0000 C   0  0  0  0  0  0  0  0  0  0  0  0
    5.5788    2.6932    0.0000 H   0  0  0  0  0  0  0  0  0  0  0  0
    3.3419    4.1508    0.0000 C   0  0  0  0  0  0  0  0  0  0  0  0
    2.3388    3.0355    0.0000 H   0  0  0  0  0  0  0  0  0  0  0  0
    4.3262    7.8694    0.0000 N   0  0  0  0  0  0  0  0  0  0  0  0
    3.0271    8.6211    0.0000 C   0  0  0  0  0  0  0  0  0  0  0  0
    3.0283   10.1211    0.0000 O   0  0  0  0  0  0  0  0  0  0  0  0
    1.7299   10.8721    0.0000 H   0  0  0  0  0  0  0  0  0  0  0  0
   -3.0003    9.6450    0.0000 C   0  0  0  0  0  0  0  0  0  0  0  0
   -1.7007   10.3942    0.0000 O   0  0  0  0  0  0  0  0  0  0  0  0
   -4.2988   10.3959    0.0000 N   0  0  0  0  0  0  0  0  0  0  0  0
   -5.5983    9.6467    0.0000 H   0  0  0  0  0  0  0  0  0  0  0  0
   -4.2979   11.8959    0.0000 S   0  0  0  0  0  0  0  0  0  0  0  0
   -2.8208   11.6344    0.0000 O   0  0  0  0  0  0  0  0  0  0  0  0
   -3.7839   13.3051    0.0000 O   0  0  0  0  0  0  0  0  0  0  0  0
   -5.5964   12.6467    0.0000 C   0  0  0  0  0  0  0  0  0  0  0  0
   -6.8968   11.8973    0.0000 C   0  0  0  0  0  0  0  0  0  0  0  0
   -6.8975   10.3973    0.0000 H   0  0  0  0  0  0  0  0  0  0  0  0
   -8.1964   12.6479    0.0000 C   0  0  0  0  0  0  0  0  0  0  0  0
   -9.4957   11.8984    0.0000 H   0  0  0  0  0  0  0  0  0  0  0  0
   -8.1957   14.1479    0.0000 C   0  0  0  0  0  0  0  0  0  0  0  0
   -6.8953   14.8973    0.0000 C   0  0  0  0  0  0  0  0  0  0  0  0
   -5.5957   14.1467    0.0000 C   0  0  0  0  0  0  0  0  0  0  0  0
   -4.2964   14.8963    0.0000 H   0  0  0  0  0  0  0  0  0  0  0  0
   -6.8946   16.3973    0.0000 N   0  0  0  0  0  0  0  0  0  0  0  0
   -8.1933   17.1479    0.0000 O   0  0  0  0  0  0  0  0  0  0  0  0
   -5.5952   17.1467    0.0000 O   0  0  0  0  0  0  0  0  0  0  0  0
   -9.4943   14.8988    0.0000 N   0  0  0  0  0  0  0  0  0  0  0  0
   -9.4933   16.3988    0.0000 H   0  0  0  0  0  0  0  0  0  0  0  0
  -10.7938   14.1496    0.0000 C   0  0  0  0  0  0  0  0  0  0  0  0
   -9.8303   12.9999    0.0000 H   0  0  0  0  0  0  0  0  0  0  0  0
  -11.7587   13.0012    0.0000 H   0  0  0  0  0  0  0  0  0  0  0  0
  -12.9234   15.3810    0.0000 C   0  0  0  0  0  0  0  0  0  0  0  0
  -11.9582   16.5292    0.0000 H   0  0  0  0  0  0  0  0  0  0  0  0
  -13.4373   13.9709    0.0000 C   0  0  0  0  0  0  0  0  0  0  0  0
  -13.4383   12.4709    0.0000 H   0  0  0  0  0  0  0  0  0  0  0  0
  -11.9602   13.7096    0.0000 H   0  0  0  0  0  0  0  0  0  0  0  0
  -14.9147   13.7115    0.0000 C   0  0  0  0  0  0  0  0  0  0  0  0
  -16.2145   12.9627    0.0000 H   0  0  0  0  0  0  0  0  0  0  0  0
  -14.4029   12.3015    0.0000 H   0  0  0  0  0  0  0  0  0  0  0  0
  -15.8782   14.8622    0.0000 O   0  0  0  0  0  0  0  0  0  0  0  0
  -15.3643   16.2723    0.0000 C   0  0  0  0  0  0  0  0  0  0  0  0
  -15.3633   17.7723    0.0000 H   0  0  0  0  0  0  0  0  0  0  0  0
  -16.8414   16.5336    0.0000 H   0  0  0  0  0  0  0  0  0  0  0  0
  -13.8869   16.5317    0.0000 C   0  0  0  0  0  0  0  0  0  0  0  0
  -12.5871   17.2805    0.0000 H   0  0  0  0  0  0  0  0  0  0  0  0
  -14.3987   17.9417    0.0000 H   0  0  0  0  0  0  0  0  0  0  0  0
  1  2  1  0  0  0  0 
  1  3  1  0  0  0  0 
  1  4  1  0  0  0  0 
  1  5  1  0  0  0  0 
  5  6  1  0  0  0  0 
  6  7  1  0  0  0  0 
  6  8  1  0  0  0  0 
  6  9  1  0  0  0  0 
  5 10  1  0  0  0  0 
 10 11  1  0  0  0  0 
 10 12  1  0  0  0  0 
 10 13  1  0  0  0  0 
 13 14  1  0  0  0  0 
 13 15  1  0  0  0  0 
 13 16  1  0  0  0  0 
 16 17  2  0  0  0  0 
 17 18  1  0  0  0  0 
  5 18  1  0  0  0  0 
 18 19  1  0  0  0  0 
 18 20  1  0  0  0  0 
 17 21  1  0  0  0  0 
 21 22  2  0  0  0  0 
 22 23  1  0  0  0  0 
 22 24  1  0  0  0  0 
 24 25  1  0  0  0  0 
 24 26  2  0  0  0  0 
 26 27  1  0  0  0  0 
 27 28  1  0  0  0  0 
 27 29  2  0  0  0  0 
 21 29  1  0  0  0  0 
 29 30  1  0  0  0  0 
 26 31  1  0  0  0  0 
 16 32  1  0  0  0  0 
 32 33  1  0  0  0  0 
 32 34  1  0  0  0  0 
 32 35  1  0  0  0  0 
 35 36  1  0  0  0  0 
 36 37  1  0  0  0  0 
 36 38  1  0  0  0  0 
 36 39  1  0  0  0  0 
 39 40  1  0  0  0  0 
 39 41  1  0  0  0  0 
 39 42  1  0  0  0  0 
 42 43  1  0  0  0  0 
 43 44  1  0  0  0  0 
 43 45  1  0  0  0  0 
 43 46  1  0  0  0  0 
 35 46  1  0  0  0  0 
 46 47  1  0  0  0  0 
 46 48  1  0  0  0  0 
 42 49  1  0  0  0  0 
 49 50  2  0  0  0  0 
 50 51  1  0  0  0  0 
 50 52  1  0  0  0  0 
 52 53  1  0  0  0  0 
 52 54  2  0  0  0  0 
 54 55  1  0  0  0  0 
 55 56  2  0  0  0  0 
 49 56  1  0  0  0  0 
 56 57  1  0  0  0  0 
 55 58  1  0  0  0  0 
 58 59  1  0  0  0  0 
 59 60  2  0  0  0  0 
 60 61  1  0  0  0  0 
 60 62  1  0  0  0  0 
 62 63  2  0  0  0  0 
 63 64  1  0  0  0  0 
 64 65  1  0  0  0  0 
 64 66  1  0  0  0  0 
 66 67  1  0  0  0  0 
 66 68  2  0  0  0  0 
 62 68  1  0  0  0  0 
 68 69  1  0  0  0  0 
 63 70  1  0  0  0  0 
 70 71  2  0  0  0  0 
 59 71  1  0  0  0  0 
 71 72  1  0  0  0  0 
 72 73  1  0  0  0  0 
 54 74  1  0  0  0  0 
 74 75  2  0  0  0  0 
 74 76  1  0  0  0  0 
 76 77  1  0  0  0  0 
 76 78  1  0  0  0  0 
 78 79  2  0  0  0  0 
 78 80  2  0  0  0  0 
 78 81  1  0  0  0  0 
 81 82  2  0  0  0  0 
 82 83  1  0  0  0  0 
 82 84  1  0  0  0  0 
 84 85  1  0  0  0  0 
 84 86  2  0  0  0  0 
 86 87  1  0  0  0  0 
 87 88  2  0  0  0  0 
 81 88  1  0  0  0  0 
 88 89  1  0  0  0  0 
 87 90  1  0  0  0  0 
 90 91  2  0  0  0  0 
 90 92  1  0  0  0  0 
 86 93  1  0  0  0  0 
 93 94  1  0  0  0  0 
 93 95  1  0  0  0  0 
 95 96  1  0  0  0  0 
 95 97  1  0  0  0  0 
 95 98  1  0  0  0  0 
 98 99  1  0  0  0  0 
 98100  1  0  0  0  0 
100101  1  0  0  0  0 
100102  1  0  0  0  0 
100103  1  0  0  0  0 
103104  1  0  0  0  0 
103105  1  0  0  0  0 
103106  1  0  0  0  0 
106107  1  0  0  0  0 
107108  1  0  0  0  0 
107109  1  0  0  0  0 
107110  1  0  0  0  0 
 98110  1  0  0  0  0 
110111  1  0  0  0  0 
110112  1  0  0  0  0 
M  CHG  1  90   1
M  CHG  1  92  -1
M  END
> <Rank>
36

> <Priority_score>
0.1

> <Reaction_type>
aromatic_hydroxylation_(para_to_carbon)

> <Parent_ID>
12

> <Parent_InChI>
InChI=1S/C45H50ClN7O7S/c1-45(2)15-11-33(39(26-45)31-3-5-34(46)6-4-31)29-51-17-19-52(20-18-51)35-7-9-38(42(24-35)60-36-23-32-12-16-47-43(32)49-28-36)44(54)50-61(57,58)37-8-10-40(41(25-37)53(55)56)48-27-30-13-21-59-22-14-30/h3-10,12,16,23-25,28,30,48H,11,13-15,17-22,26-27,29H2,1-2H3,(H,47,49)(H,50,54)

> <Parent_SMILES>
CC1(C)CCC(CN2CCN(c3ccc(C(=O)NS(=O)(=O)c4ccc(NCC5CCOCC5)c([N+](=O)[O-])c4)c(Oc4cnc5[nH]ccc5c4)c3)CC2)=C(c2ccc(Cl)cc2)C1

$$$$
Molecule 12_metabolite 38
  CDK     0516241031

112119  0  0  0  0  0  0  0  0999 V2000
    4.0755   19.0737    0.0000 C   0  0  0  0  0  0  0  0  0  0  0  0
    2.5982   18.8136    0.0000 H   0  0  0  0  0  0  0  0  0  0  0  0
    5.3747   19.8233    0.0000 H   0  0  0  0  0  0  0  0  0  0  0  0
    3.5628   20.4833    0.0000 H   0  0  0  0  0  0  0  0  0  0  0  0
    5.6562   17.1888    0.0000 C   0  0  0  0  0  0  0  0  0  0  0  0
    7.2382   19.0726    0.0000 C   0  0  0  0  0  0  0  0  0  0  0  0
    6.7257   20.4824    0.0000 H   0  0  0  0  0  0  0  0  0  0  0  0
    8.5375   19.8222    0.0000 H   0  0  0  0  0  0  0  0  0  0  0  0
    8.2019   17.9232    0.0000 H   0  0  0  0  0  0  0  0  0  0  0  0
    4.3563   16.4386    0.0000 C   0  0  0  0  0  0  0  0  0  0  0  0
    2.8790   16.1789    0.0000 H   0  0  0  0  0  0  0  0  0  0  0  0
    3.8438   17.8483    0.0000 H   0  0  0  0  0  0  0  0  0  0  0  0
    4.3551   14.9377    0.0000 C   0  0  0  0  0  0  0  0  0  0  0  0
    3.6768   13.0775    0.0000 H   0  0  0  0  0  0  0  0  0  0  0  0
    2.8781   15.1992    0.0000 H   0  0  0  0  0  0  0  0  0  0  0  0
    5.6538   14.1871    0.0000 C   0  0  0  0  0  0  0  0  0  0  0  0
    6.9537   14.9373    0.0000 C   0  0  0  0  0  0  0  0  0  0  0  0
    6.9549   16.4381    0.0000 C   0  0  0  0  0  0  0  0  0  0  0  0
    7.4688   17.8474    0.0000 H   0  0  0  0  0  0  0  0  0  0  0  0
    8.4319   16.1766    0.0000 H   0  0  0  0  0  0  0  0  0  0  0  0
    8.2524   14.1867    0.0000 C   0  0  0  0  0  0  0  0  0  0  0  0
    9.5386   14.9260    0.0000 C   0  0  0  0  0  0  0  0  0  0  0  0
    9.5365   16.4260    0.0000 H   0  0  0  0  0  0  0  0  0  0  0  0
   10.8410   14.1819    0.0000 C   0  0  0  0  0  0  0  0  0  0  0  0
   12.1320   14.9457    0.0000 H   0  0  0  0  0  0  0  0  0  0  0  0
   10.8659   12.6935    0.0000 C   0  0  0  0  0  0  0  0  0  0  0  0
    9.5562   11.9331    0.0000 C   0  0  0  0  0  0  0  0  0  0  0  0
    9.5614   10.4331    0.0000 H   0  0  0  0  0  0  0  0  0  0  0  0
    8.2538   12.6772    0.0000 C   0  0  0  0  0  0  0  0  0  0  0  0
    6.9568   11.9236    0.0000 H   0  0  0  0  0  0  0  0  0  0  0  0
   12.1721   11.9560    0.0000 Cl  0  0  0  0  0  0  0  0  0  0  0  0
    5.6533   12.6871    0.0000 C   0  0  0  0  0  0  0  0  0  0  0  0
    7.1306   12.9471    0.0000 H   0  0  0  0  0  0  0  0  0  0  0  0
    6.1659   11.2774    0.0000 H   0  0  0  0  0  0  0  0  0  0  0  0
    3.1068   11.2179    0.0000 N   0  0  0  0  0  0  0  0  0  0  0  0
    3.1060    9.7171    0.0000 C   0  0  0  0  0  0  0  0  0  0  0  0
    4.5833    9.9772    0.0000 H   0  0  0  0  0  0  0  0  0  0  0  0
    3.6190    8.3075    0.0000 H   0  0  0  0  0  0  0  0  0  0  0  0
    1.8064    8.9665    0.0000 C   0  0  0  0  0  0  0  0  0  0  0  0
    2.7706    7.8174    0.0000 H   0  0  0  0  0  0  0  0  0  0  0  0
    0.8422    7.8174    0.0000 H   0  0  0  0  0  0  0  0  0  0  0  0
    0.5075    9.7167    0.0000 N   0  0  0  0  0  0  0  0  0  0  0  0
    0.5082   11.2175    0.0000 C   0  0  0  0  0  0  0  0  0  0  0  0
   -0.9691   10.9574    0.0000 H   0  0  0  0  0  0  0  0  0  0  0  0
   -0.0048   12.6271    0.0000 H   0  0  0  0  0  0  0  0  0  0  0  0
    1.8078   11.9681    0.0000 C   0  0  0  0  0  0  0  0  0  0  0  0
    0.8436   13.1171    0.0000 H   0  0  0  0  0  0  0  0  0  0  0  0
    2.7721   13.1171    0.0000 H   0  0  0  0  0  0  0  0  0  0  0  0
   -0.7918    8.9671    0.0000 C   0  0  0  0  0  0  0  0  0  0  0  0
   -2.0914    9.7177    0.0000 C   0  0  0  0  0  0  0  0  0  0  0  0
   -2.0907   11.2177    0.0000 H   0  0  0  0  0  0  0  0  0  0  0  0
   -3.3918    8.9683    0.0000 C   0  0  0  0  0  0  0  0  0  0  0  0
   -4.6904    9.7192    0.0000 H   0  0  0  0  0  0  0  0  0  0  0  0
   -3.3925    7.4683    0.0000 C   0  0  0  0  0  0  0  0  0  0  0  0
   -2.0929    6.7177    0.0000 C   0  0  0  0  0  0  0  0  0  0  0  0
   -0.7925    7.4671    0.0000 C   0  0  0  0  0  0  0  0  0  0  0  0
    0.5060    6.7162    0.0000 H   0  0  0  0  0  0  0  0  0  0  0  0
   -2.0941    4.2577    0.0000 O   0  0  0  0  0  0  0  0  0  0  0  0
   -0.7954    3.5071    0.0000 C   0  0  0  0  0  0  0  0  0  0  0  0
   -0.7959    2.0062    0.0000 C   0  0  0  0  0  0  0  0  0  0  0  0
    0.5032    1.2546    0.0000 C   0  0  0  0  0  0  0  0  0  0  0  0
    1.8027    2.0037    0.0000 C   0  0  0  0  0  0  0  0  0  0  0  0
    2.9154    0.9946    0.0000 N   0  0  0  0  0  0  0  0  0  0  0  0
    4.3832    1.3037    0.0000 H   0  0  0  0  0  0  0  0  0  0  0  0
    2.3066   -0.3721    0.0000 C   0  0  0  0  0  0  0  0  0  0  0  0
    3.0558   -1.6716    0.0000 H   0  0  0  0  0  0  0  0  0  0  0  0
    0.8189   -0.2140    0.0000 C   0  0  0  0  0  0  0  0  0  0  0  0
   -0.1842   -1.3293    0.0000 H   0  0  0  0  0  0  0  0  0  0  0  0
    1.8032    3.5046    0.0000 N   0  0  0  0  0  0  0  0  0  0  0  0
    0.5041    4.2562    0.0000 C   0  0  0  0  0  0  0  0  0  0  0  0
    0.5053    5.7562    0.0000 H   0  0  0  0  0  0  0  0  0  0  0  0
   -2.0954    1.2571    0.0000 O   0  0  0  0  0  0  0  0  0  0  0  0
   -2.0964   -0.2429    0.0000 H   0  0  0  0  0  0  0  0  0  0  0  0
   -4.6918    6.7187    0.0000 C   0  0  0  0  0  0  0  0  0  0  0  0
   -4.6923    5.2187    0.0000 O   0  0  0  0  0  0  0  0  0  0  0  0
   -5.9906    7.4692    0.0000 N   0  0  0  0  0  0  0  0  0  0  0  0
   -5.9901    8.9692    0.0000 H   0  0  0  0  0  0  0  0  0  0  0  0
   -7.2899    6.7196    0.0000 S   0  0  0  0  0  0  0  0  0  0  0  0
   -6.3261    5.5702    0.0000 O   0  0  0  0  0  0  0  0  0  0  0  0
   -8.2544    5.5708    0.0000 O   0  0  0  0  0  0  0  0  0  0  0  0
   -8.5887    7.4700    0.0000 C   0  0  0  0  0  0  0  0  0  0  0  0
   -8.5884    8.9708    0.0000 C   0  0  0  0  0  0  0  0  0  0  0  0
   -7.2890    9.7202    0.0000 H   0  0  0  0  0  0  0  0  0  0  0  0
   -9.8876    9.7223    0.0000 C   0  0  0  0  0  0  0  0  0  0  0  0
   -9.8866   11.2223    0.0000 H   0  0  0  0  0  0  0  0  0  0  0  0
  -11.1870    8.9729    0.0000 C   0  0  0  0  0  0  0  0  0  0  0  0
  -11.1872    7.4721    0.0000 C   0  0  0  0  0  0  0  0  0  0  0  0
   -9.8881    6.7206    0.0000 C   0  0  0  0  0  0  0  0  0  0  0  0
   -9.8890    5.2206    0.0000 H   0  0  0  0  0  0  0  0  0  0  0  0
  -12.4866    6.7227    0.0000 N   0  0  0  0  0  0  0  0  0  0  0  0
  -13.7853    7.4733    0.0000 O   0  0  0  0  0  0  0  0  0  0  0  0
  -12.4874    5.2227    0.0000 O   0  0  0  0  0  0  0  0  0  0  0  0
  -12.4858    9.7233    0.0000 N   0  0  0  0  0  0  0  0  0  0  0  0
  -13.7851    8.9737    0.0000 H   0  0  0  0  0  0  0  0  0  0  0  0
  -12.4853   11.2233    0.0000 C   0  0  0  0  0  0  0  0  0  0  0  0
  -11.0082   10.9624    0.0000 H   0  0  0  0  0  0  0  0  0  0  0  0
  -11.9718   12.6327    0.0000 H   0  0  0  0  0  0  0  0  0  0  0  0
  -14.6153   12.4540    0.0000 C   0  0  0  0  0  0  0  0  0  0  0  0
  -15.1285   11.0445    0.0000 H   0  0  0  0  0  0  0  0  0  0  0  0
  -13.6500   13.6032    0.0000 C   0  0  0  0  0  0  0  0  0  0  0  0
  -12.3507   14.3528    0.0000 H   0  0  0  0  0  0  0  0  0  0  0  0
  -12.6863   12.4537    0.0000 H   0  0  0  0  0  0  0  0  0  0  0  0
  -14.1627   15.0128    0.0000 C   0  0  0  0  0  0  0  0  0  0  0  0
  -14.1627   16.5128    0.0000 H   0  0  0  0  0  0  0  0  0  0  0  0
  -12.6855   15.2732    0.0000 H   0  0  0  0  0  0  0  0  0  0  0  0
  -15.6408   15.2733    0.0000 O   0  0  0  0  0  0  0  0  0  0  0  0
  -16.6061   14.1241    0.0000 C   0  0  0  0  0  0  0  0  0  0  0  0
  -17.9054   13.3745    0.0000 H   0  0  0  0  0  0  0  0  0  0  0  0
  -17.5698   15.2736    0.0000 H   0  0  0  0  0  0  0  0  0  0  0  0
  -16.0934   12.7145    0.0000 C   0  0  0  0  0  0  0  0  0  0  0  0
  -16.0934   11.2145    0.0000 H   0  0  0  0  0  0  0  0  0  0  0  0
  -17.5706   12.4541    0.0000 H   0  0  0  0  0  0  0  0  0  0  0  0
  1  2  1  0  0  0  0 
  1  3  1  0  0  0  0 
  1  4  1  0  0  0  0 
  1  5  1  0  0  0  0 
  5  6  1  0  0  0  0 
  6  7  1  0  0  0  0 
  6  8  1  0  0  0  0 
  6  9  1  0  0  0  0 
  5 10  1  0  0  0  0 
 10 11  1  0  0  0  0 
 10 12  1  0  0  0  0 
 10 13  1  0  0  0  0 
 13 14  1  0  0  0  0 
 13 15  1  0  0  0  0 
 13 16  1  0  0  0  0 
 16 17  2  0  0  0  0 
 17 18  1  0  0  0  0 
  5 18  1  0  0  0  0 
 18 19  1  0  0  0  0 
 18 20  1  0  0  0  0 
 17 21  1  0  0  0  0 
 21 22  2  0  0  0  0 
 22 23  1  0  0  0  0 
 22 24  1  0  0  0  0 
 24 25  1  0  0  0  0 
 24 26  2  0  0  0  0 
 26 27  1  0  0  0  0 
 27 28  1  0  0  0  0 
 27 29  2  0  0  0  0 
 21 29  1  0  0  0  0 
 29 30  1  0  0  0  0 
 26 31  1  0  0  0  0 
 16 32  1  0  0  0  0 
 32 33  1  0  0  0  0 
 32 34  1  0  0  0  0 
 32 35  1  0  0  0  0 
 35 36  1  0  0  0  0 
 36 37  1  0  0  0  0 
 36 38  1  0  0  0  0 
 36 39  1  0  0  0  0 
 39 40  1  0  0  0  0 
 39 41  1  0  0  0  0 
 39 42  1  0  0  0  0 
 42 43  1  0  0  0  0 
 43 44  1  0  0  0  0 
 43 45  1  0  0  0  0 
 43 46  1  0  0  0  0 
 35 46  1  0  0  0  0 
 46 47  1  0  0  0  0 
 46 48  1  0  0  0  0 
 42 49  1  0  0  0  0 
 49 50  2  0  0  0  0 
 50 51  1  0  0  0  0 
 50 52  1  0  0  0  0 
 52 53  1  0  0  0  0 
 52 54  2  0  0  0  0 
 54 55  1  0  0  0  0 
 55 56  2  0  0  0  0 
 49 56  1  0  0  0  0 
 56 57  1  0  0  0  0 
 55 58  1  0  0  0  0 
 58 59  1  0  0  0  0 
 59 60  2  0  0  0  0 
 60 61  1  0  0  0  0 
 61 62  2  0  0  0  0 
 62 63  1  0  0  0  0 
 63 64  1  0  0  0  0 
 63 65  1  0  0  0  0 
 65 66  1  0  0  0  0 
 65 67  2  0  0  0  0 
 61 67  1  0  0  0  0 
 67 68  1  0  0  0  0 
 62 69  1  0  0  0  0 
 69 70  2  0  0  0  0 
 59 70  1  0  0  0  0 
 70 71  1  0  0  0  0 
 60 72  1  0  0  0  0 
 72 73  1  0  0  0  0 
 54 74  1  0  0  0  0 
 74 75  2  0  0  0  0 
 74 76  1  0  0  0  0 
 76 77  1  0  0  0  0 
 76 78  1  0  0  0  0 
 78 79  2  0  0  0  0 
 78 80  2  0  0  0  0 
 78 81  1  0  0  0  0 
 81 82  2  0  0  0  0 
 82 83  1  0  0  0  0 
 82 84  1  0  0  0  0 
 84 85  1  0  0  0  0 
 84 86  2  0  0  0  0 
 86 87  1  0  0  0  0 
 87 88  2  0  0  0  0 
 81 88  1  0  0  0  0 
 88 89  1  0  0  0  0 
 87 90  1  0  0  0  0 
 90 91  2  0  0  0  0 
 90 92  1  0  0  0  0 
 86 93  1  0  0  0  0 
 93 94  1  0  0  0  0 
 93 95  1  0  0  0  0 
 95 96  1  0  0  0  0 
 95 97  1  0  0  0  0 
 95 98  1  0  0  0  0 
 98 99  1  0  0  0  0 
 98100  1  0  0  0  0 
100101  1  0  0  0  0 
100102  1  0  0  0  0 
100103  1  0  0  0  0 
103104  1  0  0  0  0 
103105  1  0  0  0  0 
103106  1  0  0  0  0 
106107  1  0  0  0  0 
107108  1  0  0  0  0 
107109  1  0  0  0  0 
107110  1  0  0  0  0 
 98110  1  0  0  0  0 
110111  1  0  0  0  0 
110112  1  0  0  0  0 
M  CHG  1  90   1
M  CHG  1  92  -1
M  END
> <Rank>
36

> <Priority_score>
0.1

> <Reaction_type>
aromatic_hydroxylation_(ortho_to_2_substituents)

> <Parent_ID>
12

> <Parent_InChI>
InChI=1S/C45H50ClN7O7S/c1-45(2)15-11-33(39(26-45)31-3-5-34(46)6-4-31)29-51-17-19-52(20-18-51)35-7-9-38(42(24-35)60-36-23-32-12-16-47-43(32)49-28-36)44(54)50-61(57,58)37-8-10-40(41(25-37)53(55)56)48-27-30-13-21-59-22-14-30/h3-10,12,16,23-25,28,30,48H,11,13-15,17-22,26-27,29H2,1-2H3,(H,47,49)(H,50,54)

> <Parent_SMILES>
CC1(C)CCC(CN2CCN(c3ccc(C(=O)NS(=O)(=O)c4ccc(NCC5CCOCC5)c([N+](=O)[O-])c4)c(Oc4cnc5[nH]ccc5c4)c3)CC2)=C(c2ccc(Cl)cc2)C1

$$$$
Molecule 12_metabolite 39
  CDK     0516241031

112119  0  0  0  0  0  0  0  0999 V2000
    4.0755   19.0737    0.0000 C   0  0  0  0  0  0  0  0  0  0  0  0
    2.5982   18.8136    0.0000 H   0  0  0  0  0  0  0  0  0  0  0  0
    5.3747   19.8233    0.0000 H   0  0  0  0  0  0  0  0  0  0  0  0
    3.5628   20.4833    0.0000 H   0  0  0  0  0  0  0  0  0  0  0  0
    5.6562   17.1888    0.0000 C   0  0  0  0  0  0  0  0  0  0  0  0
    7.2382   19.0726    0.0000 C   0  0  0  0  0  0  0  0  0  0  0  0
    6.7257   20.4824    0.0000 H   0  0  0  0  0  0  0  0  0  0  0  0
    8.5375   19.8222    0.0000 H   0  0  0  0  0  0  0  0  0  0  0  0
    8.2019   17.9232    0.0000 H   0  0  0  0  0  0  0  0  0  0  0  0
    4.3563   16.4386    0.0000 C   0  0  0  0  0  0  0  0  0  0  0  0
    2.8790   16.1789    0.0000 H   0  0  0  0  0  0  0  0  0  0  0  0
    3.8438   17.8483    0.0000 H   0  0  0  0  0  0  0  0  0  0  0  0
    4.3551   14.9377    0.0000 C   0  0  0  0  0  0  0  0  0  0  0  0
    3.6768   13.0775    0.0000 H   0  0  0  0  0  0  0  0  0  0  0  0
    2.8781   15.1992    0.0000 H   0  0  0  0  0  0  0  0  0  0  0  0
    5.6538   14.1871    0.0000 C   0  0  0  0  0  0  0  0  0  0  0  0
    6.9537   14.9373    0.0000 C   0  0  0  0  0  0  0  0  0  0  0  0
    6.9549   16.4381    0.0000 C   0  0  0  0  0  0  0  0  0  0  0  0
    7.4688   17.8474    0.0000 H   0  0  0  0  0  0  0  0  0  0  0  0
    8.4319   16.1766    0.0000 H   0  0  0  0  0  0  0  0  0  0  0  0
    8.2524   14.1867    0.0000 C   0  0  0  0  0  0  0  0  0  0  0  0
    9.6162   14.9577    0.0000 C   0  0  0  0  0  0  0  0  0  0  0  0
    9.6235   16.4577    0.0000 H   0  0  0  0  0  0  0  0  0  0  0  0
   10.9123   14.2082    0.0000 C   0  0  0  0  0  0  0  0  0  0  0  0
   10.9246   12.6882    0.0000 C   0  0  0  0  0  0  0  0  0  0  0  0
    9.6408   11.9178    0.0000 C   0  0  0  0  0  0  0  0  0  0  0  0
    9.6723   10.4182    0.0000 H   0  0  0  0  0  0  0  0  0  0  0  0
    8.2647   12.6667    0.0000 C   0  0  0  0  0  0  0  0  0  0  0  0
    6.9783   11.8952    0.0000 H   0  0  0  0  0  0  0  0  0  0  0  0
   12.2329   11.9545    0.0000 O   0  0  0  0  0  0  0  0  0  0  0  0
   13.5224   12.7206    0.0000 H   0  0  0  0  0  0  0  0  0  0  0  0
   12.2086   14.9629    0.0000 Cl  0  0  0  0  0  0  0  0  0  0  0  0
    5.6533   12.6871    0.0000 C   0  0  0  0  0  0  0  0  0  0  0  0
    7.1306   12.9471    0.0000 H   0  0  0  0  0  0  0  0  0  0  0  0
    6.1659   11.2774    0.0000 H   0  0  0  0  0  0  0  0  0  0  0  0
    3.1068   11.2179    0.0000 N   0  0  0  0  0  0  0  0  0  0  0  0
    3.1060    9.7171    0.0000 C   0  0  0  0  0  0  0  0  0  0  0  0
    4.5833    9.9772    0.0000 H   0  0  0  0  0  0  0  0  0  0  0  0
    3.6190    8.3075    0.0000 H   0  0  0  0  0  0  0  0  0  0  0  0
    1.8064    8.9665    0.0000 C   0  0  0  0  0  0  0  0  0  0  0  0
    2.7706    7.8174    0.0000 H   0  0  0  0  0  0  0  0  0  0  0  0
    0.8422    7.8174    0.0000 H   0  0  0  0  0  0  0  0  0  0  0  0
    0.5075    9.7167    0.0000 N   0  0  0  0  0  0  0  0  0  0  0  0
    0.5082   11.2175    0.0000 C   0  0  0  0  0  0  0  0  0  0  0  0
   -0.9691   10.9574    0.0000 H   0  0  0  0  0  0  0  0  0  0  0  0
   -0.0048   12.6271    0.0000 H   0  0  0  0  0  0  0  0  0  0  0  0
    1.8078   11.9681    0.0000 C   0  0  0  0  0  0  0  0  0  0  0  0
    0.8436   13.1171    0.0000 H   0  0  0  0  0  0  0  0  0  0  0  0
    2.7721   13.1171    0.0000 H   0  0  0  0  0  0  0  0  0  0  0  0
   -0.7918    8.9671    0.0000 C   0  0  0  0  0  0  0  0  0  0  0  0
   -2.0914    9.7177    0.0000 C   0  0  0  0  0  0  0  0  0  0  0  0
   -2.0907   11.2177    0.0000 H   0  0  0  0  0  0  0  0  0  0  0  0
   -3.3918    8.9683    0.0000 C   0  0  0  0  0  0  0  0  0  0  0  0
   -4.6904    9.7192    0.0000 H   0  0  0  0  0  0  0  0  0  0  0  0
   -3.3925    7.4683    0.0000 C   0  0  0  0  0  0  0  0  0  0  0  0
   -2.0929    6.7177    0.0000 C   0  0  0  0  0  0  0  0  0  0  0  0
   -0.7925    7.4671    0.0000 C   0  0  0  0  0  0  0  0  0  0  0  0
    0.5060    6.7162    0.0000 H   0  0  0  0  0  0  0  0  0  0  0  0
   -2.0941    4.2577    0.0000 O   0  0  0  0  0  0  0  0  0  0  0  0
   -0.7954    3.5071    0.0000 C   0  0  0  0  0  0  0  0  0  0  0  0
   -0.7959    2.0062    0.0000 C   0  0  0  0  0  0  0  0  0  0  0  0
   -2.0954    1.2571    0.0000 H   0  0  0  0  0  0  0  0  0  0  0  0
    0.5032    1.2546    0.0000 C   0  0  0  0  0  0  0  0  0  0  0  0
    1.8027    2.0037    0.0000 C   0  0  0  0  0  0  0  0  0  0  0  0
    2.9154    0.9946    0.0000 N   0  0  0  0  0  0  0  0  0  0  0  0
    4.3832    1.3037    0.0000 H   0  0  0  0  0  0  0  0  0  0  0  0
    2.3066   -0.3721    0.0000 C   0  0  0  0  0  0  0  0  0  0  0  0
    3.0558   -1.6716    0.0000 H   0  0  0  0  0  0  0  0  0  0  0  0
    0.8189   -0.2140    0.0000 C   0  0  0  0  0  0  0  0  0  0  0  0
   -0.1842   -1.3293    0.0000 H   0  0  0  0  0  0  0  0  0  0  0  0
    1.8032    3.5046    0.0000 N   0  0  0  0  0  0  0  0  0  0  0  0
    0.5041    4.2562    0.0000 C   0  0  0  0  0  0  0  0  0  0  0  0
    0.5053    5.7562    0.0000 H   0  0  0  0  0  0  0  0  0  0  0  0
   -4.6918    6.7187    0.0000 C   0  0  0  0  0  0  0  0  0  0  0  0
   -4.6923    5.2187    0.0000 O   0  0  0  0  0  0  0  0  0  0  0  0
   -5.9906    7.4692    0.0000 N   0  0  0  0  0  0  0  0  0  0  0  0
   -5.9901    8.9692    0.0000 H   0  0  0  0  0  0  0  0  0  0  0  0
   -7.2899    6.7196    0.0000 S   0  0  0  0  0  0  0  0  0  0  0  0
   -6.3261    5.5702    0.0000 O   0  0  0  0  0  0  0  0  0  0  0  0
   -8.2544    5.5708    0.0000 O   0  0  0  0  0  0  0  0  0  0  0  0
   -8.5887    7.4700    0.0000 C   0  0  0  0  0  0  0  0  0  0  0  0
   -8.5884    8.9708    0.0000 C   0  0  0  0  0  0  0  0  0  0  0  0
   -7.2890    9.7202    0.0000 H   0  0  0  0  0  0  0  0  0  0  0  0
   -9.8876    9.7223    0.0000 C   0  0  0  0  0  0  0  0  0  0  0  0
   -9.8866   11.2223    0.0000 H   0  0  0  0  0  0  0  0  0  0  0  0
  -11.1870    8.9729    0.0000 C   0  0  0  0  0  0  0  0  0  0  0  0
  -11.1872    7.4721    0.0000 C   0  0  0  0  0  0  0  0  0  0  0  0
   -9.8881    6.7206    0.0000 C   0  0  0  0  0  0  0  0  0  0  0  0
   -9.8890    5.2206    0.0000 H   0  0  0  0  0  0  0  0  0  0  0  0
  -12.4866    6.7227    0.0000 N   0  0  0  0  0  0  0  0  0  0  0  0
  -13.7853    7.4733    0.0000 O   0  0  0  0  0  0  0  0  0  0  0  0
  -12.4874    5.2227    0.0000 O   0  0  0  0  0  0  0  0  0  0  0  0
  -12.4858    9.7233    0.0000 N   0  0  0  0  0  0  0  0  0  0  0  0
  -13.7851    8.9737    0.0000 H   0  0  0  0  0  0  0  0  0  0  0  0
  -12.4853   11.2233    0.0000 C   0  0  0  0  0  0  0  0  0  0  0  0
  -11.0082   10.9624    0.0000 H   0  0  0  0  0  0  0  0  0  0  0  0
  -11.9718   12.6327    0.0000 H   0  0  0  0  0  0  0  0  0  0  0  0
  -14.6153   12.4540    0.0000 C   0  0  0  0  0  0  0  0  0  0  0  0
  -15.1285   11.0445    0.0000 H   0  0  0  0  0  0  0  0  0  0  0  0
  -13.6500   13.6032    0.0000 C   0  0  0  0  0  0  0  0  0  0  0  0
  -12.3507   14.3528    0.0000 H   0  0  0  0  0  0  0  0  0  0  0  0
  -12.6863   12.4537    0.0000 H   0  0  0  0  0  0  0  0  0  0  0  0
  -14.1627   15.0128    0.0000 C   0  0  0  0  0  0  0  0  0  0  0  0
  -14.1627   16.5128    0.0000 H   0  0  0  0  0  0  0  0  0  0  0  0
  -12.6855   15.2732    0.0000 H   0  0  0  0  0  0  0  0  0  0  0  0
  -15.6408   15.2733    0.0000 O   0  0  0  0  0  0  0  0  0  0  0  0
  -16.6061   14.1241    0.0000 C   0  0  0  0  0  0  0  0  0  0  0  0
  -17.9054   13.3745    0.0000 H   0  0  0  0  0  0  0  0  0  0  0  0
  -17.5698   15.2736    0.0000 H   0  0  0  0  0  0  0  0  0  0  0  0
  -16.0934   12.7145    0.0000 C   0  0  0  0  0  0  0  0  0  0  0  0
  -16.0934   11.2145    0.0000 H   0  0  0  0  0  0  0  0  0  0  0  0
  -17.5706   12.4541    0.0000 H   0  0  0  0  0  0  0  0  0  0  0  0
  1  2  1  0  0  0  0 
  1  3  1  0  0  0  0 
  1  4  1  0  0  0  0 
  1  5  1  0  0  0  0 
  5  6  1  0  0  0  0 
  6  7  1  0  0  0  0 
  6  8  1  0  0  0  0 
  6  9  1  0  0  0  0 
  5 10  1  0  0  0  0 
 10 11  1  0  0  0  0 
 10 12  1  0  0  0  0 
 10 13  1  0  0  0  0 
 13 14  1  0  0  0  0 
 13 15  1  0  0  0  0 
 13 16  1  0  0  0  0 
 16 17  2  0  0  0  0 
 17 18  1  0  0  0  0 
  5 18  1  0  0  0  0 
 18 19  1  0  0  0  0 
 18 20  1  0  0  0  0 
 17 21  1  0  0  0  0 
 21 22  2  0  0  0  0 
 22 23  1  0  0  0  0 
 22 24  1  0  0  0  0 
 24 25  2  0  0  0  0 
 25 26  1  0  0  0  0 
 26 27  1  0  0  0  0 
 26 28  2  0  0  0  0 
 21 28  1  0  0  0  0 
 28 29  1  0  0  0  0 
 25 30  1  0  0  0  0 
 30 31  1  0  0  0  0 
 24 32  1  0  0  0  0 
 16 33  1  0  0  0  0 
 33 34  1  0  0  0  0 
 33 35  1  0  0  0  0 
 33 36  1  0  0  0  0 
 36 37  1  0  0  0  0 
 37 38  1  0  0  0  0 
 37 39  1  0  0  0  0 
 37 40  1  0  0  0  0 
 40 41  1  0  0  0  0 
 40 42  1  0  0  0  0 
 40 43  1  0  0  0  0 
 43 44  1  0  0  0  0 
 44 45  1  0  0  0  0 
 44 46  1  0  0  0  0 
 44 47  1  0  0  0  0 
 36 47  1  0  0  0  0 
 47 48  1  0  0  0  0 
 47 49  1  0  0  0  0 
 43 50  1  0  0  0  0 
 50 51  2  0  0  0  0 
 51 52  1  0  0  0  0 
 51 53  1  0  0  0  0 
 53 54  1  0  0  0  0 
 53 55  2  0  0  0  0 
 55 56  1  0  0  0  0 
 56 57  2  0  0  0  0 
 50 57  1  0  0  0  0 
 57 58  1  0  0  0  0 
 56 59  1  0  0  0  0 
 59 60  1  0  0  0  0 
 60 61  2  0  0  0  0 
 61 62  1  0  0  0  0 
 61 63  1  0  0  0  0 
 63 64  2  0  0  0  0 
 64 65  1  0  0  0  0 
 65 66  1  0  0  0  0 
 65 67  1  0  0  0  0 
 67 68  1  0  0  0  0 
 67 69  2  0  0  0  0 
 63 69  1  0  0  0  0 
 69 70  1  0  0  0  0 
 64 71  1  0  0  0  0 
 71 72  2  0  0  0  0 
 60 72  1  0  0  0  0 
 72 73  1  0  0  0  0 
 55 74  1  0  0  0  0 
 74 75  2  0  0  0  0 
 74 76  1  0  0  0  0 
 76 77  1  0  0  0  0 
 76 78  1  0  0  0  0 
 78 79  2  0  0  0  0 
 78 80  2  0  0  0  0 
 78 81  1  0  0  0  0 
 81 82  2  0  0  0  0 
 82 83  1  0  0  0  0 
 82 84  1  0  0  0  0 
 84 85  1  0  0  0  0 
 84 86  2  0  0  0  0 
 86 87  1  0  0  0  0 
 87 88  2  0  0  0  0 
 81 88  1  0  0  0  0 
 88 89  1  0  0  0  0 
 87 90  1  0  0  0  0 
 90 91  2  0  0  0  0 
 90 92  1  0  0  0  0 
 86 93  1  0  0  0  0 
 93 94  1  0  0  0  0 
 93 95  1  0  0  0  0 
 95 96  1  0  0  0  0 
 95 97  1  0  0  0  0 
 95 98  1  0  0  0  0 
 98 99  1  0  0  0  0 
 98100  1  0  0  0  0 
100101  1  0  0  0  0 
100102  1  0  0  0  0 
100103  1  0  0  0  0 
103104  1  0  0  0  0 
103105  1  0  0  0  0 
103106  1  0  0  0  0 
106107  1  0  0  0  0 
107108  1  0  0  0  0 
107109  1  0  0  0  0 
107110  1  0  0  0  0 
 98110  1  0  0  0  0 
110111  1  0  0  0  0 
110112  1  0  0  0  0 
M  CHG  1  90   1
M  CHG  1  92  -1
M  END
> <Rank>
39

> <Priority_score>
0.09955763604447046

> <Reaction_type>
aromatic hydroxylation with nih shift

> <Parent_ID>
12

> <Parent_InChI>
InChI=1S/C45H50ClN7O7S/c1-45(2)15-11-33(39(26-45)31-3-5-34(46)6-4-31)29-51-17-19-52(20-18-51)35-7-9-38(42(24-35)60-36-23-32-12-16-47-43(32)49-28-36)44(54)50-61(57,58)37-8-10-40(41(25-37)53(55)56)48-27-30-13-21-59-22-14-30/h3-10,12,16,23-25,28,30,48H,11,13-15,17-22,26-27,29H2,1-2H3,(H,47,49)(H,50,54)

> <Parent_SMILES>
CC1(C)CCC(CN2CCN(c3ccc(C(=O)NS(=O)(=O)c4ccc(NCC5CCOCC5)c([N+](=O)[O-])c4)c(Oc4cnc5[nH]ccc5c4)c3)CC2)=C(c2ccc(Cl)cc2)C1

$$$$
Molecule 12_metabolite 40
  CDK     0516241031

112119  0  0  0  0  0  0  0  0999 V2000
    4.0755   19.0737    0.0000 C   0  0  0  0  0  0  0  0  0  0  0  0
    2.5982   18.8136    0.0000 H   0  0  0  0  0  0  0  0  0  0  0  0
    5.3747   19.8233    0.0000 H   0  0  0  0  0  0  0  0  0  0  0  0
    3.5628   20.4833    0.0000 H   0  0  0  0  0  0  0  0  0  0  0  0
    5.6562   17.1888    0.0000 C   0  0  0  0  0  0  0  0  0  0  0  0
    7.2382   19.0726    0.0000 C   0  0  0  0  0  0  0  0  0  0  0  0
    6.7257   20.4824    0.0000 H   0  0  0  0  0  0  0  0  0  0  0  0
    8.5375   19.8222    0.0000 H   0  0  0  0  0  0  0  0  0  0  0  0
    8.2019   17.9232    0.0000 H   0  0  0  0  0  0  0  0  0  0  0  0
    4.3563   16.4386    0.0000 C   0  0  0  0  0  0  0  0  0  0  0  0
    2.8790   16.1789    0.0000 H   0  0  0  0  0  0  0  0  0  0  0  0
    3.8438   17.8483    0.0000 H   0  0  0  0  0  0  0  0  0  0  0  0
    4.3551   14.9377    0.0000 C   0  0  0  0  0  0  0  0  0  0  0  0
    3.6768   13.0775    0.0000 H   0  0  0  0  0  0  0  0  0  0  0  0
    2.8781   15.1992    0.0000 H   0  0  0  0  0  0  0  0  0  0  0  0
    5.6538   14.1871    0.0000 C   0  0  0  0  0  0  0  0  0  0  0  0
    6.9537   14.9373    0.0000 C   0  0  0  0  0  0  0  0  0  0  0  0
    6.9549   16.4381    0.0000 C   0  0  0  0  0  0  0  0  0  0  0  0
    7.4688   17.8474    0.0000 H   0  0  0  0  0  0  0  0  0  0  0  0
    8.4319   16.1766    0.0000 H   0  0  0  0  0  0  0  0  0  0  0  0
    8.2524   14.1867    0.0000 C   0  0  0  0  0  0  0  0  0  0  0  0
    8.2519   12.6858    0.0000 C   0  0  0  0  0  0  0  0  0  0  0  0
    6.9524   11.9367    0.0000 H   0  0  0  0  0  0  0  0  0  0  0  0
    9.5509   11.9342    0.0000 C   0  0  0  0  0  0  0  0  0  0  0  0
   10.8505   12.6833    0.0000 C   0  0  0  0  0  0  0  0  0  0  0  0
   10.8509   14.1842    0.0000 C   0  0  0  0  0  0  0  0  0  0  0  0
   12.1505   14.9333    0.0000 H   0  0  0  0  0  0  0  0  0  0  0  0
    9.5519   14.9358    0.0000 C   0  0  0  0  0  0  0  0  0  0  0  0
    9.5531   16.4358    0.0000 H   0  0  0  0  0  0  0  0  0  0  0  0
   12.1491   11.9327    0.0000 Cl  0  0  0  0  0  0  0  0  0  0  0  0
    9.5497   10.4342    0.0000 O   0  0  0  0  0  0  0  0  0  0  0  0
   10.8482    9.6831    0.0000 H   0  0  0  0  0  0  0  0  0  0  0  0
    5.6533   12.6871    0.0000 C   0  0  0  0  0  0  0  0  0  0  0  0
    7.1306   12.9471    0.0000 H   0  0  0  0  0  0  0  0  0  0  0  0
    6.1659   11.2774    0.0000 H   0  0  0  0  0  0  0  0  0  0  0  0
    3.1068   11.2179    0.0000 N   0  0  0  0  0  0  0  0  0  0  0  0
    3.1060    9.7171    0.0000 C   0  0  0  0  0  0  0  0  0  0  0  0
    4.5833    9.9772    0.0000 H   0  0  0  0  0  0  0  0  0  0  0  0
    3.6190    8.3075    0.0000 H   0  0  0  0  0  0  0  0  0  0  0  0
    1.8064    8.9665    0.0000 C   0  0  0  0  0  0  0  0  0  0  0  0
    2.7706    7.8174    0.0000 H   0  0  0  0  0  0  0  0  0  0  0  0
    0.8422    7.8174    0.0000 H   0  0  0  0  0  0  0  0  0  0  0  0
    0.5075    9.7167    0.0000 N   0  0  0  0  0  0  0  0  0  0  0  0
    0.5082   11.2175    0.0000 C   0  0  0  0  0  0  0  0  0  0  0  0
   -0.9691   10.9574    0.0000 H   0  0  0  0  0  0  0  0  0  0  0  0
   -0.0048   12.6271    0.0000 H   0  0  0  0  0  0  0  0  0  0  0  0
    1.8078   11.9681    0.0000 C   0  0  0  0  0  0  0  0  0  0  0  0
    0.8436   13.1171    0.0000 H   0  0  0  0  0  0  0  0  0  0  0  0
    2.7721   13.1171    0.0000 H   0  0  0  0  0  0  0  0  0  0  0  0
   -0.7918    8.9671    0.0000 C   0  0  0  0  0  0  0  0  0  0  0  0
   -2.0914    9.7177    0.0000 C   0  0  0  0  0  0  0  0  0  0  0  0
   -2.0907   11.2177    0.0000 H   0  0  0  0  0  0  0  0  0  0  0  0
   -3.3918    8.9683    0.0000 C   0  0  0  0  0  0  0  0  0  0  0  0
   -4.6904    9.7192    0.0000 H   0  0  0  0  0  0  0  0  0  0  0  0
   -3.3925    7.4683    0.0000 C   0  0  0  0  0  0  0  0  0  0  0  0
   -2.0929    6.7177    0.0000 C   0  0  0  0  0  0  0  0  0  0  0  0
   -0.7925    7.4671    0.0000 C   0  0  0  0  0  0  0  0  0  0  0  0
    0.5060    6.7162    0.0000 H   0  0  0  0  0  0  0  0  0  0  0  0
   -2.0941    4.2577    0.0000 O   0  0  0  0  0  0  0  0  0  0  0  0
   -0.7954    3.5071    0.0000 C   0  0  0  0  0  0  0  0  0  0  0  0
   -0.7959    2.0062    0.0000 C   0  0  0  0  0  0  0  0  0  0  0  0
   -2.0954    1.2571    0.0000 H   0  0  0  0  0  0  0  0  0  0  0  0
    0.5032    1.2546    0.0000 C   0  0  0  0  0  0  0  0  0  0  0  0
    1.8027    2.0037    0.0000 C   0  0  0  0  0  0  0  0  0  0  0  0
    2.9154    0.9946    0.0000 N   0  0  0  0  0  0  0  0  0  0  0  0
    4.3832    1.3037    0.0000 H   0  0  0  0  0  0  0  0  0  0  0  0
    2.3066   -0.3721    0.0000 C   0  0  0  0  0  0  0  0  0  0  0  0
    3.0558   -1.6716    0.0000 H   0  0  0  0  0  0  0  0  0  0  0  0
    0.8189   -0.2140    0.0000 C   0  0  0  0  0  0  0  0  0  0  0  0
   -0.1842   -1.3293    0.0000 H   0  0  0  0  0  0  0  0  0  0  0  0
    1.8032    3.5046    0.0000 N   0  0  0  0  0  0  0  0  0  0  0  0
    0.5041    4.2562    0.0000 C   0  0  0  0  0  0  0  0  0  0  0  0
    0.5053    5.7562    0.0000 H   0  0  0  0  0  0  0  0  0  0  0  0
   -4.6918    6.7187    0.0000 C   0  0  0  0  0  0  0  0  0  0  0  0
   -4.6923    5.2187    0.0000 O   0  0  0  0  0  0  0  0  0  0  0  0
   -5.9906    7.4692    0.0000 N   0  0  0  0  0  0  0  0  0  0  0  0
   -5.9901    8.9692    0.0000 H   0  0  0  0  0  0  0  0  0  0  0  0
   -7.2899    6.7196    0.0000 S   0  0  0  0  0  0  0  0  0  0  0  0
   -6.3261    5.5702    0.0000 O   0  0  0  0  0  0  0  0  0  0  0  0
   -8.2544    5.5708    0.0000 O   0  0  0  0  0  0  0  0  0  0  0  0
   -8.5887    7.4700    0.0000 C   0  0  0  0  0  0  0  0  0  0  0  0
   -8.5884    8.9708    0.0000 C   0  0  0  0  0  0  0  0  0  0  0  0
   -7.2890    9.7202    0.0000 H   0  0  0  0  0  0  0  0  0  0  0  0
   -9.8876    9.7223    0.0000 C   0  0  0  0  0  0  0  0  0  0  0  0
   -9.8866   11.2223    0.0000 H   0  0  0  0  0  0  0  0  0  0  0  0
  -11.1870    8.9729    0.0000 C   0  0  0  0  0  0  0  0  0  0  0  0
  -11.1872    7.4721    0.0000 C   0  0  0  0  0  0  0  0  0  0  0  0
   -9.8881    6.7206    0.0000 C   0  0  0  0  0  0  0  0  0  0  0  0
   -9.8890    5.2206    0.0000 H   0  0  0  0  0  0  0  0  0  0  0  0
  -12.4866    6.7227    0.0000 N   0  0  0  0  0  0  0  0  0  0  0  0
  -13.7853    7.4733    0.0000 O   0  0  0  0  0  0  0  0  0  0  0  0
  -12.4874    5.2227    0.0000 O   0  0  0  0  0  0  0  0  0  0  0  0
  -12.4858    9.7233    0.0000 N   0  0  0  0  0  0  0  0  0  0  0  0
  -13.7851    8.9737    0.0000 H   0  0  0  0  0  0  0  0  0  0  0  0
  -12.4853   11.2233    0.0000 C   0  0  0  0  0  0  0  0  0  0  0  0
  -11.0082   10.9624    0.0000 H   0  0  0  0  0  0  0  0  0  0  0  0
  -11.9718   12.6327    0.0000 H   0  0  0  0  0  0  0  0  0  0  0  0
  -14.6153   12.4540    0.0000 C   0  0  0  0  0  0  0  0  0  0  0  0
  -15.1285   11.0445    0.0000 H   0  0  0  0  0  0  0  0  0  0  0  0
  -13.6500   13.6032    0.0000 C   0  0  0  0  0  0  0  0  0  0  0  0
  -12.3507   14.3528    0.0000 H   0  0  0  0  0  0  0  0  0  0  0  0
  -12.6863   12.4537    0.0000 H   0  0  0  0  0  0  0  0  0  0  0  0
  -14.1627   15.0128    0.0000 C   0  0  0  0  0  0  0  0  0  0  0  0
  -14.1627   16.5128    0.0000 H   0  0  0  0  0  0  0  0  0  0  0  0
  -12.6855   15.2732    0.0000 H   0  0  0  0  0  0  0  0  0  0  0  0
  -15.6408   15.2733    0.0000 O   0  0  0  0  0  0  0  0  0  0  0  0
  -16.6061   14.1241    0.0000 C   0  0  0  0  0  0  0  0  0  0  0  0
  -17.9054   13.3745    0.0000 H   0  0  0  0  0  0  0  0  0  0  0  0
  -17.5698   15.2736    0.0000 H   0  0  0  0  0  0  0  0  0  0  0  0
  -16.0934   12.7145    0.0000 C   0  0  0  0  0  0  0  0  0  0  0  0
  -16.0934   11.2145    0.0000 H   0  0  0  0  0  0  0  0  0  0  0  0
  -17.5706   12.4541    0.0000 H   0  0  0  0  0  0  0  0  0  0  0  0
  1  2  1  0  0  0  0 
  1  3  1  0  0  0  0 
  1  4  1  0  0  0  0 
  1  5  1  0  0  0  0 
  5  6  1  0  0  0  0 
  6  7  1  0  0  0  0 
  6  8  1  0  0  0  0 
  6  9  1  0  0  0  0 
  5 10  1  0  0  0  0 
 10 11  1  0  0  0  0 
 10 12  1  0  0  0  0 
 10 13  1  0  0  0  0 
 13 14  1  0  0  0  0 
 13 15  1  0  0  0  0 
 13 16  1  0  0  0  0 
 16 17  2  0  0  0  0 
 17 18  1  0  0  0  0 
  5 18  1  0  0  0  0 
 18 19  1  0  0  0  0 
 18 20  1  0  0  0  0 
 17 21  1  0  0  0  0 
 21 22  2  0  0  0  0 
 22 23  1  0  0  0  0 
 22 24  1  0  0  0  0 
 24 25  2  0  0  0  0 
 25 26  1  0  0  0  0 
 26 27  1  0  0  0  0 
 26 28  2  0  0  0  0 
 21 28  1  0  0  0  0 
 28 29  1  0  0  0  0 
 25 30  1  0  0  0  0 
 24 31  1  0  0  0  0 
 31 32  1  0  0  0  0 
 16 33  1  0  0  0  0 
 33 34  1  0  0  0  0 
 33 35  1  0  0  0  0 
 33 36  1  0  0  0  0 
 36 37  1  0  0  0  0 
 37 38  1  0  0  0  0 
 37 39  1  0  0  0  0 
 37 40  1  0  0  0  0 
 40 41  1  0  0  0  0 
 40 42  1  0  0  0  0 
 40 43  1  0  0  0  0 
 43 44  1  0  0  0  0 
 44 45  1  0  0  0  0 
 44 46  1  0  0  0  0 
 44 47  1  0  0  0  0 
 36 47  1  0  0  0  0 
 47 48  1  0  0  0  0 
 47 49  1  0  0  0  0 
 43 50  1  0  0  0  0 
 50 51  2  0  0  0  0 
 51 52  1  0  0  0  0 
 51 53  1  0  0  0  0 
 53 54  1  0  0  0  0 
 53 55  2  0  0  0  0 
 55 56  1  0  0  0  0 
 56 57  2  0  0  0  0 
 50 57  1  0  0  0  0 
 57 58  1  0  0  0  0 
 56 59  1  0  0  0  0 
 59 60  1  0  0  0  0 
 60 61  2  0  0  0  0 
 61 62  1  0  0  0  0 
 61 63  1  0  0  0  0 
 63 64  2  0  0  0  0 
 64 65  1  0  0  0  0 
 65 66  1  0  0  0  0 
 65 67  1  0  0  0  0 
 67 68  1  0  0  0  0 
 67 69  2  0  0  0  0 
 63 69  1  0  0  0  0 
 69 70  1  0  0  0  0 
 64 71  1  0  0  0  0 
 71 72  2  0  0  0  0 
 60 72  1  0  0  0  0 
 72 73  1  0  0  0  0 
 55 74  1  0  0  0  0 
 74 75  2  0  0  0  0 
 74 76  1  0  0  0  0 
 76 77  1  0  0  0  0 
 76 78  1  0  0  0  0 
 78 79  2  0  0  0  0 
 78 80  2  0  0  0  0 
 78 81  1  0  0  0  0 
 81 82  2  0  0  0  0 
 82 83  1  0  0  0  0 
 82 84  1  0  0  0  0 
 84 85  1  0  0  0  0 
 84 86  2  0  0  0  0 
 86 87  1  0  0  0  0 
 87 88  2  0  0  0  0 
 81 88  1  0  0  0  0 
 88 89  1  0  0  0  0 
 87 90  1  0  0  0  0 
 90 91  2  0  0  0  0 
 90 92  1  0  0  0  0 
 86 93  1  0  0  0  0 
 93 94  1  0  0  0  0 
 93 95  1  0  0  0  0 
 95 96  1  0  0  0  0 
 95 97  1  0  0  0  0 
 95 98  1  0  0  0  0 
 98 99  1  0  0  0  0 
 98100  1  0  0  0  0 
100101  1  0  0  0  0 
100102  1  0  0  0  0 
100103  1  0  0  0  0 
103104  1  0  0  0  0 
103105  1  0  0  0  0 
103106  1  0  0  0  0 
106107  1  0  0  0  0 
107108  1  0  0  0  0 
107109  1  0  0  0  0 
107110  1  0  0  0  0 
 98110  1  0  0  0  0 
110111  1  0  0  0  0 
110112  1  0  0  0  0 
M  CHG  1  90   1
M  CHG  1  92  -1
M  END
> <Rank>
39

> <Priority_score>
0.09955763604447046

> <Reaction_type>
aromatic_hydroxylation_(meta_to_carbon)

> <Parent_ID>
12

> <Parent_InChI>
InChI=1S/C45H50ClN7O7S/c1-45(2)15-11-33(39(26-45)31-3-5-34(46)6-4-31)29-51-17-19-52(20-18-51)35-7-9-38(42(24-35)60-36-23-32-12-16-47-43(32)49-28-36)44(54)50-61(57,58)37-8-10-40(41(25-37)53(55)56)48-27-30-13-21-59-22-14-30/h3-10,12,16,23-25,28,30,48H,11,13-15,17-22,26-27,29H2,1-2H3,(H,47,49)(H,50,54)

> <Parent_SMILES>
CC1(C)CCC(CN2CCN(c3ccc(C(=O)NS(=O)(=O)c4ccc(NCC5CCOCC5)c([N+](=O)[O-])c4)c(Oc4cnc5[nH]ccc5c4)c3)CC2)=C(c2ccc(Cl)cc2)C1

$$$$
Molecule 12_metabolite 41
  CDK     0516241031

112119  0  0  0  0  0  0  0  0999 V2000
   23.6019  -12.7311    0.0000 C   0  0  0  0  0  0  0  0  0  0  0  0
   24.3523  -11.4323    0.0000 H   0  0  0  0  0  0  0  0  0  0  0  0
   23.3411  -14.2083    0.0000 H   0  0  0  0  0  0  0  0  0  0  0  0
   25.0113  -13.2445    0.0000 H   0  0  0  0  0  0  0  0  0  0  0  0
   21.1419  -12.7305    0.0000 C   0  0  0  0  0  0  0  0  0  0  0  0
   21.5682  -15.1533    0.0000 C   0  0  0  0  0  0  0  0  0  0  0  0
   22.9776  -15.6668    0.0000 H   0  0  0  0  0  0  0  0  0  0  0  0
   21.3072  -16.6304    0.0000 H   0  0  0  0  0  0  0  0  0  0  0  0
   20.0682  -15.1527    0.0000 H   0  0  0  0  0  0  0  0  0  0  0  0
   21.4028  -11.2525    0.0000 C   0  0  0  0  0  0  0  0  0  0  0  0
   22.1536   -9.9539    0.0000 H   0  0  0  0  0  0  0  0  0  0  0  0
   22.8121  -11.7661    0.0000 H   0  0  0  0  0  0  0  0  0  0  0  0
   20.2539  -10.2869    0.0000 C   0  0  0  0  0  0  0  0  0  0  0  0
   18.8441  -10.7992    0.0000 C   0  0  0  0  0  0  0  0  0  0  0  0
   16.9550   -8.5464    0.0000 C   0  0  0  0  0  0  0  0  0  0  0  0
   18.2543   -7.7968    0.0000 H   0  0  0  0  0  0  0  0  0  0  0  0
   16.4424   -7.1367    0.0000 H   0  0  0  0  0  0  0  0  0  0  0  0
   15.0050   -8.8896    0.0000 N   0  0  0  0  0  0  0  0  0  0  0  0
   13.8554   -7.9247    0.0000 C   0  0  0  0  0  0  0  0  0  0  0  0
   15.0049   -6.9610    0.0000 H   0  0  0  0  0  0  0  0  0  0  0  0
   13.1062   -6.6253    0.0000 H   0  0  0  0  0  0  0  0  0  0  0  0
   12.4447   -8.4369    0.0000 C   0  0  0  0  0  0  0  0  0  0  0  0
   12.1853   -6.9595    0.0000 H   0  0  0  0  0  0  0  0  0  0  0  0
   10.9447   -8.4360    0.0000 H   0  0  0  0  0  0  0  0  0  0  0  0
   12.1835   -9.9140    0.0000 N   0  0  0  0  0  0  0  0  0  0  0  0
   13.3331  -10.8789    0.0000 C   0  0  0  0  0  0  0  0  0  0  0  0
   12.1836  -11.8427    0.0000 H   0  0  0  0  0  0  0  0  0  0  0  0
   14.0823  -12.1784    0.0000 H   0  0  0  0  0  0  0  0  0  0  0  0
   14.7438  -10.3667    0.0000 C   0  0  0  0  0  0  0  0  0  0  0  0
   15.0032  -11.8441    0.0000 H   0  0  0  0  0  0  0  0  0  0  0  0
   16.2438  -10.3676    0.0000 H   0  0  0  0  0  0  0  0  0  0  0  0
   10.7738  -10.4266    0.0000 C   0  0  0  0  0  0  0  0  0  0  0  0
   10.5125  -11.9045    0.0000 C   0  0  0  0  0  0  0  0  0  0  0  0
   11.6614  -12.8689    0.0000 H   0  0  0  0  0  0  0  0  0  0  0  0
    9.1022  -12.4180    0.0000 C   0  0  0  0  0  0  0  0  0  0  0  0
    8.8418  -13.8952    0.0000 H   0  0  0  0  0  0  0  0  0  0  0  0
    7.9533  -11.4537    0.0000 C   0  0  0  0  0  0  0  0  0  0  0  0
    8.2147   -9.9758    0.0000 C   0  0  0  0  0  0  0  0  0  0  0  0
    9.6249   -9.4622    0.0000 C   0  0  0  0  0  0  0  0  0  0  0  0
    9.8854   -7.9850    0.0000 H   0  0  0  0  0  0  0  0  0  0  0  0
    6.3304   -8.3942    0.0000 O   0  0  0  0  0  0  0  0  0  0  0  0
    6.5912   -6.9170    0.0000 C   0  0  0  0  0  0  0  0  0  0  0  0
    5.4418   -5.9519    0.0000 C   0  0  0  0  0  0  0  0  0  0  0  0
    4.0322   -6.4650    0.0000 H   0  0  0  0  0  0  0  0  0  0  0  0
    5.7019   -4.4738    0.0000 C   0  0  0  0  0  0  0  0  0  0  0  0
    7.1114   -3.9608    0.0000 C   0  0  0  0  0  0  0  0  0  0  0  0
    7.0546   -2.4597    0.0000 N   0  0  0  0  0  0  0  0  0  0  0  0
    8.2355   -1.5348    0.0000 H   0  0  0  0  0  0  0  0  0  0  0  0
    5.6166   -2.0466    0.0000 C   0  0  0  0  0  0  0  0  0  0  0  0
    5.1036   -0.6371    0.0000 H   0  0  0  0  0  0  0  0  0  0  0  0
    4.7806   -3.2874    0.0000 C   0  0  0  0  0  0  0  0  0  0  0  0
    3.2814   -3.3379    0.0000 H   0  0  0  0  0  0  0  0  0  0  0  0
    8.2608   -4.9259    0.0000 N   0  0  0  0  0  0  0  0  0  0  0  0
    8.0007   -6.4040    0.0000 C   0  0  0  0  0  0  0  0  0  0  0  0
    9.1499   -7.3680    0.0000 H   0  0  0  0  0  0  0  0  0  0  0  0
    6.5436  -11.9662    0.0000 C   0  0  0  0  0  0  0  0  0  0  0  0
    5.3949  -11.0017    0.0000 O   0  0  0  0  0  0  0  0  0  0  0  0
    6.2827  -13.4434    0.0000 N   0  0  0  0  0  0  0  0  0  0  0  0
    7.4314  -14.4079    0.0000 H   0  0  0  0  0  0  0  0  0  0  0  0
    4.8730  -13.9559    0.0000 S   0  0  0  0  0  0  0  0  0  0  0  0
    4.6130  -12.4787    0.0000 O   0  0  0  0  0  0  0  0  0  0  0  0
    3.3730  -13.9555    0.0000 O   0  0  0  0  0  0  0  0  0  0  0  0
    4.6120  -15.4331    0.0000 C   0  0  0  0  0  0  0  0  0  0  0  0
    5.7613  -16.3983    0.0000 C   0  0  0  0  0  0  0  0  0  0  0  0
    7.1709  -15.8855    0.0000 H   0  0  0  0  0  0  0  0  0  0  0  0
    5.5009  -17.8764    0.0000 C   0  0  0  0  0  0  0  0  0  0  0  0
    6.6500  -18.8406    0.0000 H   0  0  0  0  0  0  0  0  0  0  0  0
    4.0913  -18.3892    0.0000 C   0  0  0  0  0  0  0  0  0  0  0  0
    2.9420  -17.4240    0.0000 C   0  0  0  0  0  0  0  0  0  0  0  0
    3.2024  -15.9459    0.0000 C   0  0  0  0  0  0  0  0  0  0  0  0
    2.0533  -14.9817    0.0000 H   0  0  0  0  0  0  0  0  0  0  0  0
    1.5324  -17.9368    0.0000 N   0  0  0  0  0  0  0  0  0  0  0  0
    1.2717  -19.4139    0.0000 O   0  0  0  0  0  0  0  0  0  0  0  0
    0.3835  -16.9724    0.0000 O   0  0  0  0  0  0  0  0  0  0  0  0
    3.8303  -19.8664    0.0000 N   0  0  0  0  0  0  0  0  0  0  0  0
    2.4206  -20.3789    0.0000 H   0  0  0  0  0  0  0  0  0  0  0  0
    4.9791  -20.8309    0.0000 C   0  0  0  0  0  0  0  0  0  0  0  0
    5.7295  -19.5321    0.0000 H   0  0  0  0  0  0  0  0  0  0  0  0
    6.3885  -21.3444    0.0000 H   0  0  0  0  0  0  0  0  0  0  0  0
    4.5511  -23.2534    0.0000 C   0  0  0  0  0  0  0  0  0  0  0  0
    3.1419  -22.7396    0.0000 H   0  0  0  0  0  0  0  0  0  0  0  0
    6.0520  -23.2535    0.0000 C   0  0  0  0  0  0  0  0  0  0  0  0
    7.4617  -22.7410    0.0000 H   0  0  0  0  0  0  0  0  0  0  0  0
    5.7918  -21.7763    0.0000 H   0  0  0  0  0  0  0  0  0  0  0  0
    6.8014  -24.5529    0.0000 C   0  0  0  0  0  0  0  0  0  0  0  0
    7.9499  -25.5178    0.0000 H   0  0  0  0  0  0  0  0  0  0  0  0
    7.9510  -23.5893    0.0000 H   0  0  0  0  0  0  0  0  0  0  0  0
    6.0500  -25.8521    0.0000 O   0  0  0  0  0  0  0  0  0  0  0  0
    4.5492  -25.8519    0.0000 C   0  0  0  0  0  0  0  0  0  0  0  0
    3.1395  -26.3645    0.0000 H   0  0  0  0  0  0  0  0  0  0  0  0
    4.8093  -27.3292    0.0000 H   0  0  0  0  0  0  0  0  0  0  0  0
    3.7997  -24.5526    0.0000 C   0  0  0  0  0  0  0  0  0  0  0  0
    2.6513  -23.5877    0.0000 H   0  0  0  0  0  0  0  0  0  0  0  0
    2.6502  -25.5162    0.0000 H   0  0  0  0  0  0  0  0  0  0  0  0
   18.5832  -12.2772    0.0000 C   0  0  0  0  0  0  0  0  0  0  0  0
   17.8325  -13.5758    0.0000 H   0  0  0  0  0  0  0  0  0  0  0  0
   19.7322  -13.2428    0.0000 C   0  0  0  0  0  0  0  0  0  0  0  0
   20.4814  -14.5423    0.0000 H   0  0  0  0  0  0  0  0  0  0  0  0
   18.5824  -14.2062    0.0000 H   0  0  0  0  0  0  0  0  0  0  0  0
   17.1739  -11.7636    0.0000 O   0  0  0  0  0  0  0  0  0  0  0  0
   16.0245  -12.7274    0.0000 H   0  0  0  0  0  0  0  0  0  0  0  0
   20.7662   -7.3918    0.0000 C   0  0  0  0  0  0  0  0  0  0  0  0
   19.6317   -6.4359    0.0000 C   0  0  0  0  0  0  0  0  0  0  0  0
   18.2228   -6.9506    0.0000 H   0  0  0  0  0  0  0  0  0  0  0  0
   19.8857   -4.9576    0.0000 C   0  0  0  0  0  0  0  0  0  0  0  0
   18.7266   -4.0055    0.0000 H   0  0  0  0  0  0  0  0  0  0  0  0
   21.2759   -4.4253    0.0000 C   0  0  0  0  0  0  0  0  0  0  0  0
   22.4383   -5.3962    0.0000 C   0  0  0  0  0  0  0  0  0  0  0  0
   23.8461   -4.8784    0.0000 H   0  0  0  0  0  0  0  0  0  0  0  0
   22.1843   -6.8745    0.0000 C   0  0  0  0  0  0  0  0  0  0  0  0
   23.3359   -7.8357    0.0000 H   0  0  0  0  0  0  0  0  0  0  0  0
   21.5224   -2.9457    0.0000 Cl  0  0  0  0  0  0  0  0  0  0  0  0
  1  2  1  0  0  0  0 
  1  3  1  0  0  0  0 
  1  4  1  0  0  0  0 
  1  5  1  0  0  0  0 
  5  6  1  0  0  0  0 
  6  7  1  0  0  0  0 
  6  8  1  0  0  0  0 
  6  9  1  0  0  0  0 
  5 10  1  0  0  0  0 
 10 11  1  0  0  0  0 
 10 12  1  0  0  0  0 
 10 13  1  0  0  0  0 
 13 14  2  0  0  0  0 
 14 15  1  0  0  0  0 
 15 16  1  0  0  0  0 
 15 17  1  0  0  0  0 
 15 18  1  0  0  0  0 
 18 19  1  0  0  0  0 
 19 20  1  0  0  0  0 
 19 21  1  0  0  0  0 
 19 22  1  0  0  0  0 
 22 23  1  0  0  0  0 
 22 24  1  0  0  0  0 
 22 25  1  0  0  0  0 
 25 26  1  0  0  0  0 
 26 27  1  0  0  0  0 
 26 28  1  0  0  0  0 
 26 29  1  0  0  0  0 
 18 29  1  0  0  0  0 
 29 30  1  0  0  0  0 
 29 31  1  0  0  0  0 
 25 32  1  0  0  0  0 
 32 33  2  0  0  0  0 
 33 34  1  0  0  0  0 
 33 35  1  0  0  0  0 
 35 36  1  0  0  0  0 
 35 37  2  0  0  0  0 
 37 38  1  0  0  0  0 
 38 39  2  0  0  0  0 
 32 39  1  0  0  0  0 
 39 40  1  0  0  0  0 
 38 41  1  0  0  0  0 
 41 42  1  0  0  0  0 
 42 43  2  0  0  0  0 
 43 44  1  0  0  0  0 
 43 45  1  0  0  0  0 
 45 46  2  0  0  0  0 
 46 47  1  0  0  0  0 
 47 48  1  0  0  0  0 
 47 49  1  0  0  0  0 
 49 50  1  0  0  0  0 
 49 51  2  0  0  0  0 
 45 51  1  0  0  0  0 
 51 52  1  0  0  0  0 
 46 53  1  0  0  0  0 
 53 54  2  0  0  0  0 
 42 54  1  0  0  0  0 
 54 55  1  0  0  0  0 
 37 56  1  0  0  0  0 
 56 57  2  0  0  0  0 
 56 58  1  0  0  0  0 
 58 59  1  0  0  0  0 
 58 60  1  0  0  0  0 
 60 61  2  0  0  0  0 
 60 62  2  0  0  0  0 
 60 63  1  0  0  0  0 
 63 64  2  0  0  0  0 
 64 65  1  0  0  0  0 
 64 66  1  0  0  0  0 
 66 67  1  0  0  0  0 
 66 68  2  0  0  0  0 
 68 69  1  0  0  0  0 
 69 70  2  0  0  0  0 
 63 70  1  0  0  0  0 
 70 71  1  0  0  0  0 
 69 72  1  0  0  0  0 
 72 73  2  0  0  0  0 
 72 74  1  0  0  0  0 
 68 75  1  0  0  0  0 
 75 76  1  0  0  0  0 
 75 77  1  0  0  0  0 
 77 78  1  0  0  0  0 
 77 79  1  0  0  0  0 
 77 80  1  0  0  0  0 
 80 81  1  0  0  0  0 
 80 82  1  0  0  0  0 
 82 83  1  0  0  0  0 
 82 84  1  0  0  0  0 
 82 85  1  0  0  0  0 
 85 86  1  0  0  0  0 
 85 87  1  0  0  0  0 
 85 88  1  0  0  0  0 
 88 89  1  0  0  0  0 
 89 90  1  0  0  0  0 
 89 91  1  0  0  0  0 
 89 92  1  0  0  0  0 
 80 92  1  0  0  0  0 
 92 93  1  0  0  0  0 
 92 94  1  0  0  0  0 
 14 95  1  0  0  0  0 
 95 96  1  0  0  0  0 
 95 97  1  0  0  0  0 
  5 97  1  0  0  0  0 
 97 98  1  0  0  0  0 
 97 99  1  0  0  0  0 
 95100  1  0  0  0  0 
100101  1  0  0  0  0 
 13102  1  0  0  0  0 
102103  2  0  0  0  0 
103104  1  0  0  0  0 
103105  1  0  0  0  0 
105106  1  0  0  0  0 
105107  2  0  0  0  0 
107108  1  0  0  0  0 
108109  1  0  0  0  0 
108110  2  0  0  0  0 
102110  1  0  0  0  0 
110111  1  0  0  0  0 
107112  1  0  0  0  0 
M  CHG  1  72   1
M  CHG  1  74  -1
M  END
> <Rank>
41

> <Priority_score>
0.096

> <Reaction_type>
aliphatic_hydroxylation_(sec_carbon_next_to_SP2,in_a_ring)

> <Parent_ID>
12

> <Parent_InChI>
InChI=1S/C45H50ClN7O7S/c1-45(2)15-11-33(39(26-45)31-3-5-34(46)6-4-31)29-51-17-19-52(20-18-51)35-7-9-38(42(24-35)60-36-23-32-12-16-47-43(32)49-28-36)44(54)50-61(57,58)37-8-10-40(41(25-37)53(55)56)48-27-30-13-21-59-22-14-30/h3-10,12,16,23-25,28,30,48H,11,13-15,17-22,26-27,29H2,1-2H3,(H,47,49)(H,50,54)

> <Parent_SMILES>
CC1(C)CCC(CN2CCN(c3ccc(C(=O)NS(=O)(=O)c4ccc(NCC5CCOCC5)c([N+](=O)[O-])c4)c(Oc4cnc5[nH]ccc5c4)c3)CC2)=C(c2ccc(Cl)cc2)C1

$$$$
Molecule 12_metabolite 42
  CDK     0516241031

112120  0  0  0  0  0  0  0  0999 V2000
   22.3802  -10.9092    0.0000 C   0  0  0  0  0  0  0  0  0  0  0  0
   23.5297   -9.9455    0.0000 H   0  0  0  0  0  0  0  0  0  0  0  0
   21.6296  -12.2079    0.0000 H   0  0  0  0  0  0  0  0  0  0  0  0
   23.5288  -11.8739    0.0000 H   0  0  0  0  0  0  0  0  0  0  0  0
   19.6179   -9.9025    0.0000 C   0  0  0  0  0  0  0  0  0  0  0  0
   19.1894  -12.3249    0.0000 C   0  0  0  0  0  0  0  0  0  0  0  0
   17.7796  -12.8371    0.0000 H   0  0  0  0  0  0  0  0  0  0  0  0
   19.4491  -13.8022    0.0000 H   0  0  0  0  0  0  0  0  0  0  0  0
   20.6894  -12.3257    0.0000 H   0  0  0  0  0  0  0  0  0  0  0  0
   18.1179   -9.9015    0.0000 C   0  0  0  0  0  0  0  0  0  0  0  0
   18.3773  -11.3789    0.0000 H   0  0  0  0  0  0  0  0  0  0  0  0
   16.7079  -10.4133    0.0000 H   0  0  0  0  0  0  0  0  0  0  0  0
   17.3687   -8.6010    0.0000 C   0  0  0  0  0  0  0  0  0  0  0  0
   16.2190   -9.5643    0.0000 H   0  0  0  0  0  0  0  0  0  0  0  0
   16.2202   -7.6362    0.0000 H   0  0  0  0  0  0  0  0  0  0  0  0
   18.1196   -7.3015    0.0000 C   0  0  0  0  0  0  0  0  0  0  0  0
   16.8208   -6.5511    0.0000 C   0  0  0  0  0  0  0  0  0  0  0  0
   17.7853   -5.4023    0.0000 H   0  0  0  0  0  0  0  0  0  0  0  0
   15.8570   -5.4017    0.0000 H   0  0  0  0  0  0  0  0  0  0  0  0
   15.1057   -7.5405    0.0000 N   0  0  0  0  0  0  0  0  0  0  0  0
   13.8061   -6.7899    0.0000 C   0  0  0  0  0  0  0  0  0  0  0  0
   14.7707   -5.6412    0.0000 H   0  0  0  0  0  0  0  0  0  0  0  0
   12.8426   -5.6403    0.0000 H   0  0  0  0  0  0  0  0  0  0  0  0
   12.5057   -7.5393    0.0000 C   0  0  0  0  0  0  0  0  0  0  0  0
   11.9937   -6.1294    0.0000 H   0  0  0  0  0  0  0  0  0  0  0  0
   11.0284   -7.7989    0.0000 H   0  0  0  0  0  0  0  0  0  0  0  0
   12.5050   -9.0393    0.0000 N   0  0  0  0  0  0  0  0  0  0  0  0
   13.8046   -9.7899    0.0000 C   0  0  0  0  0  0  0  0  0  0  0  0
   12.8400  -10.9386    0.0000 H   0  0  0  0  0  0  0  0  0  0  0  0
   14.7682  -10.9395    0.0000 H   0  0  0  0  0  0  0  0  0  0  0  0
   15.1050   -9.0405    0.0000 C   0  0  0  0  0  0  0  0  0  0  0  0
   15.6171  -10.4504    0.0000 H   0  0  0  0  0  0  0  0  0  0  0  0
   16.5824   -8.7809    0.0000 H   0  0  0  0  0  0  0  0  0  0  0  0
   11.2057   -9.7889    0.0000 C   0  0  0  0  0  0  0  0  0  0  0  0
   11.2050  -11.2897    0.0000 C   0  0  0  0  0  0  0  0  0  0  0  0
   12.5039  -12.0399    0.0000 H   0  0  0  0  0  0  0  0  0  0  0  0
    9.9054  -12.0403    0.0000 C   0  0  0  0  0  0  0  0  0  0  0  0
    9.9054  -13.5403    0.0000 H   0  0  0  0  0  0  0  0  0  0  0  0
    8.6065  -11.2901    0.0000 C   0  0  0  0  0  0  0  0  0  0  0  0
    8.6072   -9.7893    0.0000 C   0  0  0  0  0  0  0  0  0  0  0  0
    9.9068   -9.0387    0.0000 C   0  0  0  0  0  0  0  0  0  0  0  0
    9.9068   -7.5387    0.0000 H   0  0  0  0  0  0  0  0  0  0  0  0
    6.4769   -8.5589    0.0000 O   0  0  0  0  0  0  0  0  0  0  0  0
    6.4772   -7.0589    0.0000 C   0  0  0  0  0  0  0  0  0  0  0  0
    5.1777   -6.3081    0.0000 C   0  0  0  0  0  0  0  0  0  0  0  0
    3.8786   -7.0581    0.0000 H   0  0  0  0  0  0  0  0  0  0  0  0
    5.1772   -4.8073    0.0000 C   0  0  0  0  0  0  0  0  0  0  0  0
    6.4762   -4.0573    0.0000 C   0  0  0  0  0  0  0  0  0  0  0  0
    6.1596   -2.5889    0.0000 N   0  0  0  0  0  0  0  0  0  0  0  0
    7.1619   -1.4729    0.0000 H   0  0  0  0  0  0  0  0  0  0  0  0
    4.6717   -2.4318    0.0000 C   0  0  0  0  0  0  0  0  0  0  0  0
    3.9217   -1.1327    0.0000 H   0  0  0  0  0  0  0  0  0  0  0  0
    4.0638   -3.7989    0.0000 C   0  0  0  0  0  0  0  0  0  0  0  0
    2.5962   -4.1089    0.0000 H   0  0  0  0  0  0  0  0  0  0  0  0
    7.7757   -4.8081    0.0000 N   0  0  0  0  0  0  0  0  0  0  0  0
    7.7762   -6.3089    0.0000 C   0  0  0  0  0  0  0  0  0  0  0  0
    9.0754   -7.0587    0.0000 H   0  0  0  0  0  0  0  0  0  0  0  0
    7.3072  -12.0397    0.0000 C   0  0  0  0  0  0  0  0  0  0  0  0
    6.0084  -11.2893    0.0000 O   0  0  0  0  0  0  0  0  0  0  0  0
    7.3067  -13.5397    0.0000 N   0  0  0  0  0  0  0  0  0  0  0  0
    8.6055  -14.2901    0.0000 H   0  0  0  0  0  0  0  0  0  0  0  0
    6.0074  -14.2893    0.0000 S   0  0  0  0  0  0  0  0  0  0  0  0
    5.4948  -12.8796    0.0000 O   0  0  0  0  0  0  0  0  0  0  0  0
    4.5301  -14.5493    0.0000 O   0  0  0  0  0  0  0  0  0  0  0  0
    6.0069  -15.7893    0.0000 C   0  0  0  0  0  0  0  0  0  0  0  0
    7.3063  -16.5403    0.0000 C   0  0  0  0  0  0  0  0  0  0  0  0
    8.6055  -15.7905    0.0000 H   0  0  0  0  0  0  0  0  0  0  0  0
    7.3066  -18.0412    0.0000 C   0  0  0  0  0  0  0  0  0  0  0  0
    8.6056  -18.7912    0.0000 H   0  0  0  0  0  0  0  0  0  0  0  0
    6.0074  -18.7910    0.0000 C   0  0  0  0  0  0  0  0  0  0  0  0
    4.7080  -18.0399    0.0000 C   0  0  0  0  0  0  0  0  0  0  0  0
    4.7078  -16.5391    0.0000 C   0  0  0  0  0  0  0  0  0  0  0  0
    3.4087  -15.7891    0.0000 H   0  0  0  0  0  0  0  0  0  0  0  0
    3.4089  -18.7897    0.0000 N   0  0  0  0  0  0  0  0  0  0  0  0
    3.4086  -20.2897    0.0000 O   0  0  0  0  0  0  0  0  0  0  0  0
    2.1099  -18.0395    0.0000 O   0  0  0  0  0  0  0  0  0  0  0  0
    6.0069  -20.2910    0.0000 N   0  0  0  0  0  0  0  0  0  0  0  0
    4.7077  -21.0405    0.0000 H   0  0  0  0  0  0  0  0  0  0  0  0
    7.3057  -21.0414    0.0000 C   0  0  0  0  0  0  0  0  0  0  0  0
    7.8192  -19.6320    0.0000 H   0  0  0  0  0  0  0  0  0  0  0  0
    8.7829  -21.3023    0.0000 H   0  0  0  0  0  0  0  0  0  0  0  0
    7.3049  -23.5014    0.0000 C   0  0  0  0  0  0  0  0  0  0  0  0
    5.8279  -23.2401    0.0000 H   0  0  0  0  0  0  0  0  0  0  0  0
    8.7830  -23.2409    0.0000 C   0  0  0  0  0  0  0  0  0  0  0  0
   10.0823  -22.4913    0.0000 H   0  0  0  0  0  0  0  0  0  0  0  0
    8.2703  -21.8313    0.0000 H   0  0  0  0  0  0  0  0  0  0  0  0
    9.7467  -24.3904    0.0000 C   0  0  0  0  0  0  0  0  0  0  0  0
   11.0453  -25.1412    0.0000 H   0  0  0  0  0  0  0  0  0  0  0  0
   10.7115  -23.2418    0.0000 H   0  0  0  0  0  0  0  0  0  0  0  0
    9.2323  -25.8003    0.0000 O   0  0  0  0  0  0  0  0  0  0  0  0
    7.7543  -26.0608    0.0000 C   0  0  0  0  0  0  0  0  0  0  0  0
    6.4550  -26.8104    0.0000 H   0  0  0  0  0  0  0  0  0  0  0  0
    8.2670  -27.4704    0.0000 H   0  0  0  0  0  0  0  0  0  0  0  0
    6.7906  -24.9113    0.0000 C   0  0  0  0  0  0  0  0  0  0  0  0
    5.4920  -24.1605    0.0000 H   0  0  0  0  0  0  0  0  0  0  0  0
    5.8258  -26.0599    0.0000 H   0  0  0  0  0  0  0  0  0  0  0  0
   19.6196   -7.3025    0.0000 C   0  0  0  0  0  0  0  0  0  0  0  0
   20.3687   -8.6029    0.0000 C   0  0  0  0  0  0  0  0  0  0  0  0
   21.5185   -7.6396    0.0000 H   0  0  0  0  0  0  0  0  0  0  0  0
   21.5173   -9.5677    0.0000 H   0  0  0  0  0  0  0  0  0  0  0  0
   20.9193   -6.5537    0.0000 C   0  0  0  0  0  0  0  0  0  0  0  0
   20.9228   -5.0702    0.0000 C   0  0  0  0  0  0  0  0  0  0  0  0
   19.6231   -4.3213    0.0000 H   0  0  0  0  0  0  0  0  0  0  0  0
   22.2188   -4.3149    0.0000 C   0  0  0  0  0  0  0  0  0  0  0  0
   22.2036   -2.8150    0.0000 H   0  0  0  0  0  0  0  0  0  0  0  0
   23.5199   -5.0381    0.0000 C   0  0  0  0  0  0  0  0  0  0  0  0
   23.5229   -6.5526    0.0000 C   0  0  0  0  0  0  0  0  0  0  0  0
   24.8242   -7.2987    0.0000 H   0  0  0  0  0  0  0  0  0  0  0  0
   22.2269   -7.3079    0.0000 C   0  0  0  0  0  0  0  0  0  0  0  0
   22.2303   -8.8079    0.0000 H   0  0  0  0  0  0  0  0  0  0  0  0
   24.8121   -4.2763    0.0000 Cl  0  0  0  0  0  0  0  0  0  0  0  0
   18.8704   -6.0020    0.0000 O   0  0  0  0  0  0  0  0  0  0  0  0
  1  2  1  0  0  0  0 
  1  3  1  0  0  0  0 
  1  4  1  0  0  0  0 
  1  5  1  0  0  0  0 
  5  6  1  0  0  0  0 
  6  7  1  0  0  0  0 
  6  8  1  0  0  0  0 
  6  9  1  0  0  0  0 
  5 10  1  0  0  0  0 
 10 11  1  0  0  0  0 
 10 12  1  0  0  0  0 
 10 13  1  0  0  0  0 
 13 14  1  0  0  0  0 
 13 15  1  0  0  0  0 
 13 16  1  0  0  0  0 
 16 17  1  0  0  0  0 
 17 18  1  0  0  0  0 
 17 19  1  0  0  0  0 
 17 20  1  0  0  0  0 
 20 21  1  0  0  0  0 
 21 22  1  0  0  0  0 
 21 23  1  0  0  0  0 
 21 24  1  0  0  0  0 
 24 25  1  0  0  0  0 
 24 26  1  0  0  0  0 
 24 27  1  0  0  0  0 
 27 28  1  0  0  0  0 
 28 29  1  0  0  0  0 
 28 30  1  0  0  0  0 
 28 31  1  0  0  0  0 
 20 31  1  0  0  0  0 
 31 32  1  0  0  0  0 
 31 33  1  0  0  0  0 
 27 34  1  0  0  0  0 
 34 35  2  0  0  0  0 
 35 36  1  0  0  0  0 
 35 37  1  0  0  0  0 
 37 38  1  0  0  0  0 
 37 39  2  0  0  0  0 
 39 40  1  0  0  0  0 
 40 41  2  0  0  0  0 
 34 41  1  0  0  0  0 
 41 42  1  0  0  0  0 
 40 43  1  0  0  0  0 
 43 44  1  0  0  0  0 
 44 45  2  0  0  0  0 
 45 46  1  0  0  0  0 
 45 47  1  0  0  0  0 
 47 48  2  0  0  0  0 
 48 49  1  0  0  0  0 
 49 50  1  0  0  0  0 
 49 51  1  0  0  0  0 
 51 52  1  0  0  0  0 
 51 53  2  0  0  0  0 
 47 53  1  0  0  0  0 
 53 54  1  0  0  0  0 
 48 55  1  0  0  0  0 
 55 56  2  0  0  0  0 
 44 56  1  0  0  0  0 
 56 57  1  0  0  0  0 
 39 58  1  0  0  0  0 
 58 59  2  0  0  0  0 
 58 60  1  0  0  0  0 
 60 61  1  0  0  0  0 
 60 62  1  0  0  0  0 
 62 63  2  0  0  0  0 
 62 64  2  0  0  0  0 
 62 65  1  0  0  0  0 
 65 66  2  0  0  0  0 
 66 67  1  0  0  0  0 
 66 68  1  0  0  0  0 
 68 69  1  0  0  0  0 
 68 70  2  0  0  0  0 
 70 71  1  0  0  0  0 
 71 72  2  0  0  0  0 
 65 72  1  0  0  0  0 
 72 73  1  0  0  0  0 
 71 74  1  0  0  0  0 
 74 75  2  0  0  0  0 
 74 76  1  0  0  0  0 
 70 77  1  0  0  0  0 
 77 78  1  0  0  0  0 
 77 79  1  0  0  0  0 
 79 80  1  0  0  0  0 
 79 81  1  0  0  0  0 
 79 82  1  0  0  0  0 
 82 83  1  0  0  0  0 
 82 84  1  0  0  0  0 
 84 85  1  0  0  0  0 
 84 86  1  0  0  0  0 
 84 87  1  0  0  0  0 
 87 88  1  0  0  0  0 
 87 89  1  0  0  0  0 
 87 90  1  0  0  0  0 
 90 91  1  0  0  0  0 
 91 92  1  0  0  0  0 
 91 93  1  0  0  0  0 
 91 94  1  0  0  0  0 
 82 94  1  0  0  0  0 
 94 95  1  0  0  0  0 
 94 96  1  0  0  0  0 
 16 97  1  0  0  0  0 
 97 98  1  0  0  0  0 
  5 98  1  0  0  0  0 
 98 99  1  0  0  0  0 
 98100  1  0  0  0  0 
 97101  1  0  0  0  0 
101102  2  0  0  0  0 
102103  1  0  0  0  0 
102104  1  0  0  0  0 
104105  1  0  0  0  0 
104106  2  0  0  0  0 
106107  1  0  0  0  0 
107108  1  0  0  0  0 
107109  2  0  0  0  0 
101109  1  0  0  0  0 
109110  1  0  0  0  0 
106111  1  0  0  0  0 
 97112  1  0  0  0  0 
 16112  1  0  0  0  0 
M  CHG  1  74   1
M  CHG  1  76  -1
M  END
> <Rank>
42

> <Priority_score>
0.092

> <Reaction_type>
epoxidation

> <Parent_ID>
12

> <Parent_InChI>
InChI=1S/C45H50ClN7O7S/c1-45(2)15-11-33(39(26-45)31-3-5-34(46)6-4-31)29-51-17-19-52(20-18-51)35-7-9-38(42(24-35)60-36-23-32-12-16-47-43(32)49-28-36)44(54)50-61(57,58)37-8-10-40(41(25-37)53(55)56)48-27-30-13-21-59-22-14-30/h3-10,12,16,23-25,28,30,48H,11,13-15,17-22,26-27,29H2,1-2H3,(H,47,49)(H,50,54)

> <Parent_SMILES>
CC1(C)CCC(CN2CCN(c3ccc(C(=O)NS(=O)(=O)c4ccc(NCC5CCOCC5)c([N+](=O)[O-])c4)c(Oc4cnc5[nH]ccc5c4)c3)CC2)=C(c2ccc(Cl)cc2)C1

$$$$
Molecule 12_metabolite 43
  CDK     0516241031

112119  0  0  0  0  0  0  0  0999 V2000
   -2.4139   30.3297    0.0000 C   0  0  0  0  0  0  0  0  0  0  0  0
   -3.8912   30.0699    0.0000 H   0  0  0  0  0  0  0  0  0  0  0  0
   -1.1145   31.0791    0.0000 H   0  0  0  0  0  0  0  0  0  0  0  0
   -2.9263   31.7395    0.0000 H   0  0  0  0  0  0  0  0  0  0  0  0
   -0.8334   28.4446    0.0000 C   0  0  0  0  0  0  0  0  0  0  0  0
    0.7488   30.3282    0.0000 C   0  0  0  0  0  0  0  0  0  0  0  0
    0.2366   31.7380    0.0000 H   0  0  0  0  0  0  0  0  0  0  0  0
    2.0483   31.0775    0.0000 H   0  0  0  0  0  0  0  0  0  0  0  0
    1.7124   29.1786    0.0000 H   0  0  0  0  0  0  0  0  0  0  0  0
   -2.1334   27.6946    0.0000 C   0  0  0  0  0  0  0  0  0  0  0  0
   -3.6108   27.4352    0.0000 H   0  0  0  0  0  0  0  0  0  0  0  0
   -2.6457   29.1044    0.0000 H   0  0  0  0  0  0  0  0  0  0  0  0
   -2.1349   26.1937    0.0000 C   0  0  0  0  0  0  0  0  0  0  0  0
   -2.8135   24.3336    0.0000 H   0  0  0  0  0  0  0  0  0  0  0  0
   -3.6119   26.4555    0.0000 H   0  0  0  0  0  0  0  0  0  0  0  0
   -0.8363   25.4429    0.0000 C   0  0  0  0  0  0  0  0  0  0  0  0
    0.4637   26.1929    0.0000 C   0  0  0  0  0  0  0  0  0  0  0  0
    0.4651   27.6937    0.0000 C   0  0  0  0  0  0  0  0  0  0  0  0
    0.9792   29.1029    0.0000 H   0  0  0  0  0  0  0  0  0  0  0  0
    1.9421   27.4320    0.0000 H   0  0  0  0  0  0  0  0  0  0  0  0
    1.7622   25.4421    0.0000 C   0  0  0  0  0  0  0  0  0  0  0  0
    3.0485   26.1812    0.0000 C   0  0  0  0  0  0  0  0  0  0  0  0
    3.0468   27.6812    0.0000 H   0  0  0  0  0  0  0  0  0  0  0  0
    4.3508   25.4369    0.0000 C   0  0  0  0  0  0  0  0  0  0  0  0
    5.6419   26.2005    0.0000 H   0  0  0  0  0  0  0  0  0  0  0  0
    4.3756   23.9485    0.0000 C   0  0  0  0  0  0  0  0  0  0  0  0
    3.0657   23.1883    0.0000 C   0  0  0  0  0  0  0  0  0  0  0  0
    3.0707   21.6883    0.0000 H   0  0  0  0  0  0  0  0  0  0  0  0
    1.7634   23.9326    0.0000 C   0  0  0  0  0  0  0  0  0  0  0  0
    0.4663   23.1792    0.0000 H   0  0  0  0  0  0  0  0  0  0  0  0
    5.6816   23.2108    0.0000 Cl  0  0  0  0  0  0  0  0  0  0  0  0
   -0.8370   23.9429    0.0000 C   0  0  0  0  0  0  0  0  0  0  0  0
   -0.3247   22.5331    0.0000 H   0  0  0  0  0  0  0  0  0  0  0  0
    0.6403   24.2027    0.0000 H   0  0  0  0  0  0  0  0  0  0  0  0
   -3.3839   22.4741    0.0000 N   0  0  0  0  0  0  0  0  0  0  0  0
   -4.6834   23.2250    0.0000 C   0  0  0  0  0  0  0  0  0  0  0  0
   -3.7186   24.3735    0.0000 H   0  0  0  0  0  0  0  0  0  0  0  0
   -5.6467   24.3747    0.0000 H   0  0  0  0  0  0  0  0  0  0  0  0
   -5.9839   22.4758    0.0000 C   0  0  0  0  0  0  0  0  0  0  0  0
   -6.4957   23.8858    0.0000 H   0  0  0  0  0  0  0  0  0  0  0  0
   -7.4613   22.2164    0.0000 H   0  0  0  0  0  0  0  0  0  0  0  0
   -5.9848   20.9758    0.0000 N   0  0  0  0  0  0  0  0  0  0  0  0
   -4.6853   20.2250    0.0000 C   0  0  0  0  0  0  0  0  0  0  0  0
   -5.6501   19.0764    0.0000 H   0  0  0  0  0  0  0  0  0  0  0  0
   -3.7220   19.0752    0.0000 H   0  0  0  0  0  0  0  0  0  0  0  0
   -3.3848   20.9741    0.0000 C   0  0  0  0  0  0  0  0  0  0  0  0
   -2.8730   19.5641    0.0000 H   0  0  0  0  0  0  0  0  0  0  0  0
   -1.9074   21.2335    0.0000 H   0  0  0  0  0  0  0  0  0  0  0  0
   -7.2842   20.2264    0.0000 C   0  0  0  0  0  0  0  0  0  0  0  0
   -7.2852   18.7256    0.0000 C   0  0  0  0  0  0  0  0  0  0  0  0
   -5.9864   17.9752    0.0000 H   0  0  0  0  0  0  0  0  0  0  0  0
   -8.5849   17.9752    0.0000 C   0  0  0  0  0  0  0  0  0  0  0  0
   -9.8837   18.7256    0.0000 C   0  0  0  0  0  0  0  0  0  0  0  0
   -9.8828   20.2264    0.0000 C   0  0  0  0  0  0  0  0  0  0  0  0
  -11.1816   20.9768    0.0000 H   0  0  0  0  0  0  0  0  0  0  0  0
   -8.5830   20.9768    0.0000 C   0  0  0  0  0  0  0  0  0  0  0  0
   -8.5828   22.4768    0.0000 O   0  0  0  0  0  0  0  0  0  0  0  0
   -9.8817   23.2270    0.0000 H   0  0  0  0  0  0  0  0  0  0  0  0
  -11.1831   17.9762    0.0000 C   0  0  0  0  0  0  0  0  0  0  0  0
  -11.1839   16.4762    0.0000 O   0  0  0  0  0  0  0  0  0  0  0  0
  -12.4818   18.7268    0.0000 N   0  0  0  0  0  0  0  0  0  0  0  0
  -12.4811   20.2268    0.0000 H   0  0  0  0  0  0  0  0  0  0  0  0
  -13.7812   17.9775    0.0000 S   0  0  0  0  0  0  0  0  0  0  0  0
  -12.8176   16.8279    0.0000 O   0  0  0  0  0  0  0  0  0  0  0  0
  -14.7459   16.8288    0.0000 O   0  0  0  0  0  0  0  0  0  0  0  0
  -15.0799   18.7281    0.0000 C   0  0  0  0  0  0  0  0  0  0  0  0
  -15.0794   20.2289    0.0000 C   0  0  0  0  0  0  0  0  0  0  0  0
  -13.7799   20.9781    0.0000 H   0  0  0  0  0  0  0  0  0  0  0  0
  -16.3784   20.9806    0.0000 C   0  0  0  0  0  0  0  0  0  0  0  0
  -16.3772   22.4806    0.0000 H   0  0  0  0  0  0  0  0  0  0  0  0
  -17.6780   20.2314    0.0000 C   0  0  0  0  0  0  0  0  0  0  0  0
  -17.6784   18.7306    0.0000 C   0  0  0  0  0  0  0  0  0  0  0  0
  -16.3794   17.9789    0.0000 C   0  0  0  0  0  0  0  0  0  0  0  0
  -16.3806   16.4789    0.0000 H   0  0  0  0  0  0  0  0  0  0  0  0
  -18.9780   17.9814    0.0000 N   0  0  0  0  0  0  0  0  0  0  0  0
  -20.2765   18.7322    0.0000 O   0  0  0  0  0  0  0  0  0  0  0  0
  -18.9789   16.4814    0.0000 O   0  0  0  0  0  0  0  0  0  0  0  0
  -18.9766   20.9820    0.0000 N   0  0  0  0  0  0  0  0  0  0  0  0
  -20.2760   20.2327    0.0000 H   0  0  0  0  0  0  0  0  0  0  0  0
  -18.9759   22.4820    0.0000 C   0  0  0  0  0  0  0  0  0  0  0  0
  -17.4988   22.2208    0.0000 H   0  0  0  0  0  0  0  0  0  0  0  0
  -18.4622   23.8913    0.0000 H   0  0  0  0  0  0  0  0  0  0  0  0
  -21.1057   23.7131    0.0000 C   0  0  0  0  0  0  0  0  0  0  0  0
  -21.6192   22.3037    0.0000 H   0  0  0  0  0  0  0  0  0  0  0  0
  -20.1402   24.8621    0.0000 C   0  0  0  0  0  0  0  0  0  0  0  0
  -18.8408   25.6115    0.0000 H   0  0  0  0  0  0  0  0  0  0  0  0
  -19.1767   23.7125    0.0000 H   0  0  0  0  0  0  0  0  0  0  0  0
  -20.6527   26.2718    0.0000 C   0  0  0  0  0  0  0  0  0  0  0  0
  -20.6525   27.7718    0.0000 H   0  0  0  0  0  0  0  0  0  0  0  0
  -19.1755   26.5319    0.0000 H   0  0  0  0  0  0  0  0  0  0  0  0
  -22.1308   26.5325    0.0000 O   0  0  0  0  0  0  0  0  0  0  0  0
  -23.0963   25.3835    0.0000 C   0  0  0  0  0  0  0  0  0  0  0  0
  -24.3957   24.6341    0.0000 H   0  0  0  0  0  0  0  0  0  0  0  0
  -24.0598   26.5331    0.0000 H   0  0  0  0  0  0  0  0  0  0  0  0
  -22.5838   23.9738    0.0000 C   0  0  0  0  0  0  0  0  0  0  0  0
  -22.5840   22.4738    0.0000 H   0  0  0  0  0  0  0  0  0  0  0  0
  -24.0610   23.7137    0.0000 H   0  0  0  0  0  0  0  0  0  0  0  0
   -8.5853   15.5152    0.0000 O   0  0  0  0  0  0  0  0  0  0  0  0
   -7.2864   14.7650    0.0000 C   0  0  0  0  0  0  0  0  0  0  0  0
   -7.2864   13.2641    0.0000 C   0  0  0  0  0  0  0  0  0  0  0  0
   -8.5857   12.5145    0.0000 H   0  0  0  0  0  0  0  0  0  0  0  0
   -5.9871   12.5129    0.0000 C   0  0  0  0  0  0  0  0  0  0  0  0
   -4.6879   13.2625    0.0000 C   0  0  0  0  0  0  0  0  0  0  0  0
   -3.5748   12.2537    0.0000 N   0  0  0  0  0  0  0  0  0  0  0  0
   -2.1071   12.5633    0.0000 H   0  0  0  0  0  0  0  0  0  0  0  0
   -4.1831   10.8868    0.0000 C   0  0  0  0  0  0  0  0  0  0  0  0
   -3.4336    9.5875    0.0000 H   0  0  0  0  0  0  0  0  0  0  0  0
   -5.6710   11.0444    0.0000 C   0  0  0  0  0  0  0  0  0  0  0  0
   -6.6737    9.9287    0.0000 H   0  0  0  0  0  0  0  0  0  0  0  0
   -4.6879   14.7633    0.0000 N   0  0  0  0  0  0  0  0  0  0  0  0
   -5.9871   15.5145    0.0000 C   0  0  0  0  0  0  0  0  0  0  0  0
   -5.9864   17.0145    0.0000 H   0  0  0  0  0  0  0  0  0  0  0  0
  1  2  1  0  0  0  0 
  1  3  1  0  0  0  0 
  1  4  1  0  0  0  0 
  1  5  1  0  0  0  0 
  5  6  1  0  0  0  0 
  6  7  1  0  0  0  0 
  6  8  1  0  0  0  0 
  6  9  1  0  0  0  0 
  5 10  1  0  0  0  0 
 10 11  1  0  0  0  0 
 10 12  1  0  0  0  0 
 10 13  1  0  0  0  0 
 13 14  1  0  0  0  0 
 13 15  1  0  0  0  0 
 13 16  1  0  0  0  0 
 16 17  2  0  0  0  0 
 17 18  1  0  0  0  0 
  5 18  1  0  0  0  0 
 18 19  1  0  0  0  0 
 18 20  1  0  0  0  0 
 17 21  1  0  0  0  0 
 21 22  2  0  0  0  0 
 22 23  1  0  0  0  0 
 22 24  1  0  0  0  0 
 24 25  1  0  0  0  0 
 24 26  2  0  0  0  0 
 26 27  1  0  0  0  0 
 27 28  1  0  0  0  0 
 27 29  2  0  0  0  0 
 21 29  1  0  0  0  0 
 29 30  1  0  0  0  0 
 26 31  1  0  0  0  0 
 16 32  1  0  0  0  0 
 32 33  1  0  0  0  0 
 32 34  1  0  0  0  0 
 32 35  1  0  0  0  0 
 35 36  1  0  0  0  0 
 36 37  1  0  0  0  0 
 36 38  1  0  0  0  0 
 36 39  1  0  0  0  0 
 39 40  1  0  0  0  0 
 39 41  1  0  0  0  0 
 39 42  1  0  0  0  0 
 42 43  1  0  0  0  0 
 43 44  1  0  0  0  0 
 43 45  1  0  0  0  0 
 43 46  1  0  0  0  0 
 35 46  1  0  0  0  0 
 46 47  1  0  0  0  0 
 46 48  1  0  0  0  0 
 42 49  1  0  0  0  0 
 49 50  2  0  0  0  0 
 50 51  1  0  0  0  0 
 50 52  1  0  0  0  0 
 52 53  2  0  0  0  0 
 53 54  1  0  0  0  0 
 54 55  1  0  0  0  0 
 54 56  2  0  0  0  0 
 49 56  1  0  0  0  0 
 56 57  1  0  0  0  0 
 57 58  1  0  0  0  0 
 53 59  1  0  0  0  0 
 59 60  2  0  0  0  0 
 59 61  1  0  0  0  0 
 61 62  1  0  0  0  0 
 61 63  1  0  0  0  0 
 63 64  2  0  0  0  0 
 63 65  2  0  0  0  0 
 63 66  1  0  0  0  0 
 66 67  2  0  0  0  0 
 67 68  1  0  0  0  0 
 67 69  1  0  0  0  0 
 69 70  1  0  0  0  0 
 69 71  2  0  0  0  0 
 71 72  1  0  0  0  0 
 72 73  2  0  0  0  0 
 66 73  1  0  0  0  0 
 73 74  1  0  0  0  0 
 72 75  1  0  0  0  0 
 75 76  2  0  0  0  0 
 75 77  1  0  0  0  0 
 71 78  1  0  0  0  0 
 78 79  1  0  0  0  0 
 78 80  1  0  0  0  0 
 80 81  1  0  0  0  0 
 80 82  1  0  0  0  0 
 80 83  1  0  0  0  0 
 83 84  1  0  0  0  0 
 83 85  1  0  0  0  0 
 85 86  1  0  0  0  0 
 85 87  1  0  0  0  0 
 85 88  1  0  0  0  0 
 88 89  1  0  0  0  0 
 88 90  1  0  0  0  0 
 88 91  1  0  0  0  0 
 91 92  1  0  0  0  0 
 92 93  1  0  0  0  0 
 92 94  1  0  0  0  0 
 92 95  1  0  0  0  0 
 83 95  1  0  0  0  0 
 95 96  1  0  0  0  0 
 95 97  1  0  0  0  0 
 52 98  1  0  0  0  0 
 98 99  1  0  0  0  0 
 99100  2  0  0  0  0 
100101  1  0  0  0  0 
100102  1  0  0  0  0 
102103  2  0  0  0  0 
103104  1  0  0  0  0 
104105  1  0  0  0  0 
104106  1  0  0  0  0 
106107  1  0  0  0  0 
106108  2  0  0  0  0 
102108  1  0  0  0  0 
108109  1  0  0  0  0 
103110  1  0  0  0  0 
110111  2  0  0  0  0 
 99111  1  0  0  0  0 
111112  1  0  0  0  0 
M  CHG  1  75   1
M  CHG  1  77  -1
M  END
> <Rank>
43

> <Priority_score>
0.088

> <Reaction_type>
aromatic_hydroxylation_(para_to_oxygen)

> <Parent_ID>
12

> <Parent_InChI>
InChI=1S/C45H50ClN7O7S/c1-45(2)15-11-33(39(26-45)31-3-5-34(46)6-4-31)29-51-17-19-52(20-18-51)35-7-9-38(42(24-35)60-36-23-32-12-16-47-43(32)49-28-36)44(54)50-61(57,58)37-8-10-40(41(25-37)53(55)56)48-27-30-13-21-59-22-14-30/h3-10,12,16,23-25,28,30,48H,11,13-15,17-22,26-27,29H2,1-2H3,(H,47,49)(H,50,54)

> <Parent_SMILES>
CC1(C)CCC(CN2CCN(c3ccc(C(=O)NS(=O)(=O)c4ccc(NCC5CCOCC5)c([N+](=O)[O-])c4)c(Oc4cnc5[nH]ccc5c4)c3)CC2)=C(c2ccc(Cl)cc2)C1

$$$$
Molecule 12_metabolite 44
  CDK     0516241031

112118  0  0  0  0  0  0  0  0999 V2000
  -14.8717   -6.8233    0.0000 C   0  0  0  0  0  0  0  0  0  0  0  0
  -13.9078   -7.9727    0.0000 H   0  0  0  0  0  0  0  0  0  0  0  0
  -16.1705   -6.0730    0.0000 H   0  0  0  0  0  0  0  0  0  0  0  0
  -15.8362   -7.9721    0.0000 H   0  0  0  0  0  0  0  0  0  0  0  0
  -14.0297   -4.5119    0.0000 C   0  0  0  0  0  0  0  0  0  0  0  0
  -16.4522   -4.0838    0.0000 C   0  0  0  0  0  0  0  0  0  0  0  0
  -17.4168   -5.2325    0.0000 H   0  0  0  0  0  0  0  0  0  0  0  0
  -17.7509   -3.3333    0.0000 H   0  0  0  0  0  0  0  0  0  0  0  0
  -15.9386   -2.6745    0.0000 H   0  0  0  0  0  0  0  0  0  0  0  0
  -12.7301   -5.2625    0.0000 C   0  0  0  0  0  0  0  0  0  0  0  0
  -11.7665   -6.4122    0.0000 H   0  0  0  0  0  0  0  0  0  0  0  0
  -13.6947   -6.4112    0.0000 H   0  0  0  0  0  0  0  0  0  0  0  0
  -11.4297   -4.5132    0.0000 C   0  0  0  0  0  0  0  0  0  0  0  0
   -9.9523   -4.2536    0.0000 H   0  0  0  0  0  0  0  0  0  0  0  0
  -10.9176   -5.9231    0.0000 H   0  0  0  0  0  0  0  0  0  0  0  0
  -11.4290   -3.0132    0.0000 C   0  0  0  0  0  0  0  0  0  0  0  0
  -12.7286   -2.2625    0.0000 C   0  0  0  0  0  0  0  0  0  0  0  0
  -14.0290   -3.0119    0.0000 C   0  0  0  0  0  0  0  0  0  0  0  0
  -15.5063   -3.2715    0.0000 H   0  0  0  0  0  0  0  0  0  0  0  0
  -14.5410   -1.6020    0.0000 H   0  0  0  0  0  0  0  0  0  0  0  0
  -12.7279   -0.7625    0.0000 C   0  0  0  0  0  0  0  0  0  0  0  0
  -14.0113   -0.0184    0.0000 C   0  0  0  0  0  0  0  0  0  0  0  0
  -15.3093   -0.7701    0.0000 H   0  0  0  0  0  0  0  0  0  0  0  0
  -14.0181    1.4816    0.0000 C   0  0  0  0  0  0  0  0  0  0  0  0
  -15.3251    2.2177    0.0000 H   0  0  0  0  0  0  0  0  0  0  0  0
  -12.7416    2.2474    0.0000 C   0  0  0  0  0  0  0  0  0  0  0  0
  -11.4281    1.4934    0.0000 C   0  0  0  0  0  0  0  0  0  0  0  0
  -10.1317    2.2479    0.0000 H   0  0  0  0  0  0  0  0  0  0  0  0
  -11.4213   -0.0066    0.0000 C   0  0  0  0  0  0  0  0  0  0  0  0
  -10.1202   -0.7531    0.0000 H   0  0  0  0  0  0  0  0  0  0  0  0
  -12.7560    3.7474    0.0000 Cl  0  0  0  0  0  0  0  0  0  0  0  0
  -10.1297   -2.2636    0.0000 C   0  0  0  0  0  0  0  0  0  0  0  0
  -11.0935   -1.1142    0.0000 H   0  0  0  0  0  0  0  0  0  0  0  0
   -9.1651   -1.1148    0.0000 H   0  0  0  0  0  0  0  0  0  0  0  0
   -8.8309   -3.0140    0.0000 N   0  0  0  0  0  0  0  0  0  0  0  0
   -8.8314   -4.5140    0.0000 H   0  0  0  0  0  0  0  0  0  0  0  0
   -7.1158   -2.0245    0.0000 C   0  0  0  0  0  0  0  0  0  0  0  0
   -8.0797   -0.8752    0.0000 H   0  0  0  0  0  0  0  0  0  0  0  0
   -6.1513   -0.8758    0.0000 H   0  0  0  0  0  0  0  0  0  0  0  0
   -5.8171   -2.7750    0.0000 C   0  0  0  0  0  0  0  0  0  0  0  0
   -4.8532   -3.9243    0.0000 H   0  0  0  0  0  0  0  0  0  0  0  0
   -6.7816   -3.9237    0.0000 H   0  0  0  0  0  0  0  0  0  0  0  0
   -4.5178   -2.0254    0.0000 N   0  0  0  0  0  0  0  0  0  0  0  0
   -3.2190   -2.7758    0.0000 C   0  0  0  0  0  0  0  0  0  0  0  0
   -2.7055   -1.3664    0.0000 H   0  0  0  0  0  0  0  0  0  0  0  0
   -1.7418   -3.0367    0.0000 H   0  0  0  0  0  0  0  0  0  0  0  0
   -3.2195   -4.2758    0.0000 C   0  0  0  0  0  0  0  0  0  0  0  0
   -4.5187   -5.0254    0.0000 H   0  0  0  0  0  0  0  0  0  0  0  0
   -1.9207   -5.0262    0.0000 O   0  0  0  0  0  0  0  0  0  0  0  0
   -4.5173   -0.5254    0.0000 C   0  0  0  0  0  0  0  0  0  0  0  0
   -5.8167    0.2257    0.0000 C   0  0  0  0  0  0  0  0  0  0  0  0
   -7.1158   -0.5241    0.0000 H   0  0  0  0  0  0  0  0  0  0  0  0
   -5.8169    1.7265    0.0000 C   0  0  0  0  0  0  0  0  0  0  0  0
   -7.1160    2.4765    0.0000 H   0  0  0  0  0  0  0  0  0  0  0  0
   -4.5178    2.4763    0.0000 C   0  0  0  0  0  0  0  0  0  0  0  0
   -3.2184    1.7252    0.0000 C   0  0  0  0  0  0  0  0  0  0  0  0
   -3.2181    0.2244    0.0000 C   0  0  0  0  0  0  0  0  0  0  0  0
   -1.9191   -0.5256    0.0000 H   0  0  0  0  0  0  0  0  0  0  0  0
   -1.9192    2.4750    0.0000 O   0  0  0  0  0  0  0  0  0  0  0  0
    0.2110    1.2447    0.0000 C   0  0  0  0  0  0  0  0  0  0  0  0
    1.5110    1.9947    0.0000 C   0  0  0  0  0  0  0  0  0  0  0  0
    1.5110    3.4947    0.0000 H   0  0  0  0  0  0  0  0  0  0  0  0
    2.8110    1.2447    0.0000 C   0  0  0  0  0  0  0  0  0  0  0  0
    2.8110   -0.2553    0.0000 C   0  0  0  0  0  0  0  0  0  0  0  0
    4.2410   -0.7153    0.0000 N   0  0  0  0  0  0  0  0  0  0  0  0
    4.7063   -2.1413    0.0000 H   0  0  0  0  0  0  0  0  0  0  0  0
    5.1210    0.4947    0.0000 C   0  0  0  0  0  0  0  0  0  0  0  0
    6.6210    0.4947    0.0000 H   0  0  0  0  0  0  0  0  0  0  0  0
    4.2410    1.7047    0.0000 C   0  0  0  0  0  0  0  0  0  0  0  0
    4.7063    3.1307    0.0000 H   0  0  0  0  0  0  0  0  0  0  0  0
    1.5110   -1.0053    0.0000 N   0  0  0  0  0  0  0  0  0  0  0  0
    0.2110   -0.2553    0.0000 C   0  0  0  0  0  0  0  0  0  0  0  0
   -1.0879   -1.0055    0.0000 H   0  0  0  0  0  0  0  0  0  0  0  0
   -4.5173    3.9763    0.0000 C   0  0  0  0  0  0  0  0  0  0  0  0
   -5.8161    4.7267    0.0000 O   0  0  0  0  0  0  0  0  0  0  0  0
   -3.2180    4.7259    0.0000 N   0  0  0  0  0  0  0  0  0  0  0  0
   -1.9192    3.9755    0.0000 H   0  0  0  0  0  0  0  0  0  0  0  0
   -3.2175    6.2259    0.0000 S   0  0  0  0  0  0  0  0  0  0  0  0
   -3.7301    7.6356    0.0000 O   0  0  0  0  0  0  0  0  0  0  0  0
   -4.6948    5.9659    0.0000 O   0  0  0  0  0  0  0  0  0  0  0  0
   -1.9183    6.9755    0.0000 C   0  0  0  0  0  0  0  0  0  0  0  0
   -1.9175    8.4763    0.0000 C   0  0  0  0  0  0  0  0  0  0  0  0
   -3.2165    9.2265    0.0000 H   0  0  0  0  0  0  0  0  0  0  0  0
   -0.6179    9.2269    0.0000 C   0  0  0  0  0  0  0  0  0  0  0  0
   -0.6179   10.7269    0.0000 H   0  0  0  0  0  0  0  0  0  0  0  0
    0.6810    8.4767    0.0000 C   0  0  0  0  0  0  0  0  0  0  0  0
    0.6803    6.9759    0.0000 C   0  0  0  0  0  0  0  0  0  0  0  0
   -0.6193    6.2252    0.0000 C   0  0  0  0  0  0  0  0  0  0  0  0
   -0.6193    4.7252    0.0000 H   0  0  0  0  0  0  0  0  0  0  0  0
    1.9792    6.2257    0.0000 N   0  0  0  0  0  0  0  0  0  0  0  0
    3.2784    6.9755    0.0000 O   0  0  0  0  0  0  0  0  0  0  0  0
    1.9790    4.7257    0.0000 O   0  0  0  0  0  0  0  0  0  0  0  0
    1.9803    9.2263    0.0000 N   0  0  0  0  0  0  0  0  0  0  0  0
    3.2791    8.4759    0.0000 H   0  0  0  0  0  0  0  0  0  0  0  0
    1.9808   10.7263    0.0000 C   0  0  0  0  0  0  0  0  0  0  0  0
    1.4682   12.1360    0.0000 H   0  0  0  0  0  0  0  0  0  0  0  0
    0.5035   10.4663    0.0000 H   0  0  0  0  0  0  0  0  0  0  0  0
    4.1116   11.9556    0.0000 C   0  0  0  0  0  0  0  0  0  0  0  0
    4.6239   10.5458    0.0000 H   0  0  0  0  0  0  0  0  0  0  0  0
    3.1470   13.1054    0.0000 C   0  0  0  0  0  0  0  0  0  0  0  0
    1.8482   13.8558    0.0000 H   0  0  0  0  0  0  0  0  0  0  0  0
    2.1826   11.9566    0.0000 H   0  0  0  0  0  0  0  0  0  0  0  0
    3.6606   14.5147    0.0000 C   0  0  0  0  0  0  0  0  0  0  0  0
    3.6616   16.0147    0.0000 H   0  0  0  0  0  0  0  0  0  0  0  0
    2.1836   14.7760    0.0000 H   0  0  0  0  0  0  0  0  0  0  0  0
    5.1389   14.7742    0.0000 O   0  0  0  0  0  0  0  0  0  0  0  0
    6.1035   13.6244    0.0000 C   0  0  0  0  0  0  0  0  0  0  0  0
    7.4023   12.8740    0.0000 H   0  0  0  0  0  0  0  0  0  0  0  0
    7.0679   14.7733    0.0000 H   0  0  0  0  0  0  0  0  0  0  0  0
    5.5898   12.2151    0.0000 C   0  0  0  0  0  0  0  0  0  0  0  0
    5.5889   10.7151    0.0000 H   0  0  0  0  0  0  0  0  0  0  0  0
    7.0669   11.9539    0.0000 H   0  0  0  0  0  0  0  0  0  0  0  0
  1  2  1  0  0  0  0 
  1  3  1  0  0  0  0 
  1  4  1  0  0  0  0 
  1  5  1  0  0  0  0 
  5  6  1  0  0  0  0 
  6  7  1  0  0  0  0 
  6  8  1  0  0  0  0 
  6  9  1  0  0  0  0 
  5 10  1  0  0  0  0 
 10 11  1  0  0  0  0 
 10 12  1  0  0  0  0 
 10 13  1  0  0  0  0 
 13 14  1  0  0  0  0 
 13 15  1  0  0  0  0 
 13 16  1  0  0  0  0 
 16 17  2  0  0  0  0 
 17 18  1  0  0  0  0 
  5 18  1  0  0  0  0 
 18 19  1  0  0  0  0 
 18 20  1  0  0  0  0 
 17 21  1  0  0  0  0 
 21 22  2  0  0  0  0 
 22 23  1  0  0  0  0 
 22 24  1  0  0  0  0 
 24 25  1  0  0  0  0 
 24 26  2  0  0  0  0 
 26 27  1  0  0  0  0 
 27 28  1  0  0  0  0 
 27 29  2  0  0  0  0 
 21 29  1  0  0  0  0 
 29 30  1  0  0  0  0 
 26 31  1  0  0  0  0 
 16 32  1  0  0  0  0 
 32 33  1  0  0  0  0 
 32 34  1  0  0  0  0 
 32 35  1  0  0  0  0 
 35 36  1  0  0  0  0 
 35 37  1  0  0  0  0 
 37 38  1  0  0  0  0 
 37 39  1  0  0  0  0 
 37 40  1  0  0  0  0 
 40 41  1  0  0  0  0 
 40 42  1  0  0  0  0 
 40 43  1  0  0  0  0 
 43 44  1  0  0  0  0 
 44 45  1  0  0  0  0 
 44 46  1  0  0  0  0 
 44 47  1  0  0  0  0 
 47 48  1  0  0  0  0 
 47 49  2  0  0  0  0 
 43 50  1  0  0  0  0 
 50 51  2  0  0  0  0 
 51 52  1  0  0  0  0 
 51 53  1  0  0  0  0 
 53 54  1  0  0  0  0 
 53 55  2  0  0  0  0 
 55 56  1  0  0  0  0 
 56 57  2  0  0  0  0 
 50 57  1  0  0  0  0 
 57 58  1  0  0  0  0 
 56 59  1  0  0  0  0 
 59 60  1  0  0  0  0 
 60 61  2  0  0  0  0 
 61 62  1  0  0  0  0 
 61 63  1  0  0  0  0 
 63 64  2  0  0  0  0 
 64 65  1  0  0  0  0 
 65 66  1  0  0  0  0 
 65 67  1  0  0  0  0 
 67 68  1  0  0  0  0 
 67 69  2  0  0  0  0 
 63 69  1  0  0  0  0 
 69 70  1  0  0  0  0 
 64 71  1  0  0  0  0 
 71 72  2  0  0  0  0 
 60 72  1  0  0  0  0 
 72 73  1  0  0  0  0 
 55 74  1  0  0  0  0 
 74 75  2  0  0  0  0 
 74 76  1  0  0  0  0 
 76 77  1  0  0  0  0 
 76 78  1  0  0  0  0 
 78 79  2  0  0  0  0 
 78 80  2  0  0  0  0 
 78 81  1  0  0  0  0 
 81 82  2  0  0  0  0 
 82 83  1  0  0  0  0 
 82 84  1  0  0  0  0 
 84 85  1  0  0  0  0 
 84 86  2  0  0  0  0 
 86 87  1  0  0  0  0 
 87 88  2  0  0  0  0 
 81 88  1  0  0  0  0 
 88 89  1  0  0  0  0 
 87 90  1  0  0  0  0 
 90 91  2  0  0  0  0 
 90 92  1  0  0  0  0 
 86 93  1  0  0  0  0 
 93 94  1  0  0  0  0 
 93 95  1  0  0  0  0 
 95 96  1  0  0  0  0 
 95 97  1  0  0  0  0 
 95 98  1  0  0  0  0 
 98 99  1  0  0  0  0 
 98100  1  0  0  0  0 
100101  1  0  0  0  0 
100102  1  0  0  0  0 
100103  1  0  0  0  0 
103104  1  0  0  0  0 
103105  1  0  0  0  0 
103106  1  0  0  0  0 
106107  1  0  0  0  0 
107108  1  0  0  0  0 
107109  1  0  0  0  0 
107110  1  0  0  0  0 
 98110  1  0  0  0  0 
110111  1  0  0  0  0 
110112  1  0  0  0  0 
M  CHG  1  90   1
M  CHG  1  92  -1
M  END
> <Rank>
44

> <Priority_score>
0.084

> <Reaction_type>
N-dealkylation

> <Parent_ID>
12

> <Parent_InChI>
InChI=1S/C45H50ClN7O7S/c1-45(2)15-11-33(39(26-45)31-3-5-34(46)6-4-31)29-51-17-19-52(20-18-51)35-7-9-38(42(24-35)60-36-23-32-12-16-47-43(32)49-28-36)44(54)50-61(57,58)37-8-10-40(41(25-37)53(55)56)48-27-30-13-21-59-22-14-30/h3-10,12,16,23-25,28,30,48H,11,13-15,17-22,26-27,29H2,1-2H3,(H,47,49)(H,50,54)

> <Parent_SMILES>
CC1(C)CCC(CN2CCN(c3ccc(C(=O)NS(=O)(=O)c4ccc(NCC5CCOCC5)c([N+](=O)[O-])c4)c(Oc4cnc5[nH]ccc5c4)c3)CC2)=C(c2ccc(Cl)cc2)C1

$$$$
Molecule 12_metabolite 45
  CDK     0516241031

112119  0  0  0  0  0  0  0  0999 V2000
    4.0747   19.0716    0.0000 C   0  0  0  0  0  0  0  0  0  0  0  0
    2.5975   18.8115    0.0000 H   0  0  0  0  0  0  0  0  0  0  0  0
    5.3740   19.8212    0.0000 H   0  0  0  0  0  0  0  0  0  0  0  0
    3.5621   20.4812    0.0000 H   0  0  0  0  0  0  0  0  0  0  0  0
    5.6555   17.1867    0.0000 C   0  0  0  0  0  0  0  0  0  0  0  0
    7.2375   19.0706    0.0000 C   0  0  0  0  0  0  0  0  0  0  0  0
    6.7250   20.4803    0.0000 H   0  0  0  0  0  0  0  0  0  0  0  0
    8.5368   19.8201    0.0000 H   0  0  0  0  0  0  0  0  0  0  0  0
    8.2012   17.9211    0.0000 H   0  0  0  0  0  0  0  0  0  0  0  0
    4.3556   16.4365    0.0000 C   0  0  0  0  0  0  0  0  0  0  0  0
    2.8783   16.1769    0.0000 H   0  0  0  0  0  0  0  0  0  0  0  0
    3.8431   17.8462    0.0000 H   0  0  0  0  0  0  0  0  0  0  0  0
    4.3544   14.9356    0.0000 C   0  0  0  0  0  0  0  0  0  0  0  0
    3.6761   13.0754    0.0000 H   0  0  0  0  0  0  0  0  0  0  0  0
    2.8774   15.1971    0.0000 H   0  0  0  0  0  0  0  0  0  0  0  0
    5.6531   14.1850    0.0000 C   0  0  0  0  0  0  0  0  0  0  0  0
    6.9530   14.9352    0.0000 C   0  0  0  0  0  0  0  0  0  0  0  0
    6.9542   16.4361    0.0000 C   0  0  0  0  0  0  0  0  0  0  0  0
    7.4680   17.8453    0.0000 H   0  0  0  0  0  0  0  0  0  0  0  0
    8.4312   16.1746    0.0000 H   0  0  0  0  0  0  0  0  0  0  0  0
    8.2517   14.1846    0.0000 C   0  0  0  0  0  0  0  0  0  0  0  0
    9.5378   14.9240    0.0000 C   0  0  0  0  0  0  0  0  0  0  0  0
    9.5358   16.4240    0.0000 H   0  0  0  0  0  0  0  0  0  0  0  0
   10.8403   14.1799    0.0000 C   0  0  0  0  0  0  0  0  0  0  0  0
   12.1312   14.9437    0.0000 H   0  0  0  0  0  0  0  0  0  0  0  0
   10.8652   12.6915    0.0000 C   0  0  0  0  0  0  0  0  0  0  0  0
    9.5555   11.9310    0.0000 C   0  0  0  0  0  0  0  0  0  0  0  0
    9.5607   10.4310    0.0000 H   0  0  0  0  0  0  0  0  0  0  0  0
    8.2530   12.6751    0.0000 C   0  0  0  0  0  0  0  0  0  0  0  0
    6.9560   11.9216    0.0000 H   0  0  0  0  0  0  0  0  0  0  0  0
   12.1714   11.9540    0.0000 Cl  0  0  0  0  0  0  0  0  0  0  0  0
    5.6526   12.6850    0.0000 C   0  0  0  0  0  0  0  0  0  0  0  0
    7.1299   12.9450    0.0000 H   0  0  0  0  0  0  0  0  0  0  0  0
    6.1652   11.2753    0.0000 H   0  0  0  0  0  0  0  0  0  0  0  0
    3.1060   11.2158    0.0000 N   0  0  0  0  0  0  0  0  0  0  0  0
    1.8068   11.9671    0.0000 C   0  0  0  0  0  0  0  0  0  0  0  0
    0.8431   13.1166    0.0000 H   0  0  0  0  0  0  0  0  0  0  0  0
    2.7715   13.1156    0.0000 H   0  0  0  0  0  0  0  0  0  0  0  0
    0.5075   11.2175    0.0000 C   0  0  0  0  0  0  0  0  0  0  0  0
   -0.9698   10.9572    0.0000 H   0  0  0  0  0  0  0  0  0  0  0  0
   -0.0053   12.6271    0.0000 H   0  0  0  0  0  0  0  0  0  0  0  0
    0.5075    9.7167    0.0000 N   0  0  0  0  0  0  0  0  0  0  0  0
    1.8068    8.9654    0.0000 C   0  0  0  0  0  0  0  0  0  0  0  0
    2.7704    7.8159    0.0000 H   0  0  0  0  0  0  0  0  0  0  0  0
    0.8420    7.8169    0.0000 H   0  0  0  0  0  0  0  0  0  0  0  0
    3.1060    9.7150    0.0000 C   0  0  0  0  0  0  0  0  0  0  0  0
    4.5833    9.9753    0.0000 H   0  0  0  0  0  0  0  0  0  0  0  0
    3.6188    8.3053    0.0000 O   0  0  0  0  0  0  0  0  0  0  0  0
    5.0959    8.0446    0.0000 H   0  0  0  0  0  0  0  0  0  0  0  0
   -0.7918    8.9671    0.0000 C   0  0  0  0  0  0  0  0  0  0  0  0
   -2.0914    9.7177    0.0000 C   0  0  0  0  0  0  0  0  0  0  0  0
   -2.0907   11.2177    0.0000 H   0  0  0  0  0  0  0  0  0  0  0  0
   -3.3918    8.9683    0.0000 C   0  0  0  0  0  0  0  0  0  0  0  0
   -4.6904    9.7192    0.0000 H   0  0  0  0  0  0  0  0  0  0  0  0
   -3.3925    7.4683    0.0000 C   0  0  0  0  0  0  0  0  0  0  0  0
   -2.0929    6.7177    0.0000 C   0  0  0  0  0  0  0  0  0  0  0  0
   -0.7925    7.4671    0.0000 C   0  0  0  0  0  0  0  0  0  0  0  0
    0.5060    6.7162    0.0000 H   0  0  0  0  0  0  0  0  0  0  0  0
   -2.0941    4.2577    0.0000 O   0  0  0  0  0  0  0  0  0  0  0  0
   -0.7954    3.5071    0.0000 C   0  0  0  0  0  0  0  0  0  0  0  0
   -0.7959    2.0062    0.0000 C   0  0  0  0  0  0  0  0  0  0  0  0
   -2.0954    1.2571    0.0000 H   0  0  0  0  0  0  0  0  0  0  0  0
    0.5032    1.2546    0.0000 C   0  0  0  0  0  0  0  0  0  0  0  0
    1.8027    2.0037    0.0000 C   0  0  0  0  0  0  0  0  0  0  0  0
    2.9154    0.9946    0.0000 N   0  0  0  0  0  0  0  0  0  0  0  0
    4.3832    1.3037    0.0000 H   0  0  0  0  0  0  0  0  0  0  0  0
    2.3066   -0.3721    0.0000 C   0  0  0  0  0  0  0  0  0  0  0  0
    3.0558   -1.6716    0.0000 H   0  0  0  0  0  0  0  0  0  0  0  0
    0.8189   -0.2140    0.0000 C   0  0  0  0  0  0  0  0  0  0  0  0
   -0.1842   -1.3293    0.0000 H   0  0  0  0  0  0  0  0  0  0  0  0
    1.8032    3.5046    0.0000 N   0  0  0  0  0  0  0  0  0  0  0  0
    0.5041    4.2562    0.0000 C   0  0  0  0  0  0  0  0  0  0  0  0
    0.5053    5.7562    0.0000 H   0  0  0  0  0  0  0  0  0  0  0  0
   -4.6918    6.7187    0.0000 C   0  0  0  0  0  0  0  0  0  0  0  0
   -4.6923    5.2187    0.0000 O   0  0  0  0  0  0  0  0  0  0  0  0
   -5.9906    7.4692    0.0000 N   0  0  0  0  0  0  0  0  0  0  0  0
   -5.9901    8.9692    0.0000 H   0  0  0  0  0  0  0  0  0  0  0  0
   -7.2899    6.7196    0.0000 S   0  0  0  0  0  0  0  0  0  0  0  0
   -6.3261    5.5702    0.0000 O   0  0  0  0  0  0  0  0  0  0  0  0
   -8.2544    5.5708    0.0000 O   0  0  0  0  0  0  0  0  0  0  0  0
   -8.5887    7.4700    0.0000 C   0  0  0  0  0  0  0  0  0  0  0  0
   -8.5884    8.9708    0.0000 C   0  0  0  0  0  0  0  0  0  0  0  0
   -7.2890    9.7202    0.0000 H   0  0  0  0  0  0  0  0  0  0  0  0
   -9.8876    9.7223    0.0000 C   0  0  0  0  0  0  0  0  0  0  0  0
   -9.8866   11.2223    0.0000 H   0  0  0  0  0  0  0  0  0  0  0  0
  -11.1870    8.9729    0.0000 C   0  0  0  0  0  0  0  0  0  0  0  0
  -11.1872    7.4721    0.0000 C   0  0  0  0  0  0  0  0  0  0  0  0
   -9.8881    6.7206    0.0000 C   0  0  0  0  0  0  0  0  0  0  0  0
   -9.8890    5.2206    0.0000 H   0  0  0  0  0  0  0  0  0  0  0  0
  -12.4866    6.7227    0.0000 N   0  0  0  0  0  0  0  0  0  0  0  0
  -13.7853    7.4733    0.0000 O   0  0  0  0  0  0  0  0  0  0  0  0
  -12.4874    5.2227    0.0000 O   0  0  0  0  0  0  0  0  0  0  0  0
  -12.4858    9.7233    0.0000 N   0  0  0  0  0  0  0  0  0  0  0  0
  -13.7851    8.9737    0.0000 H   0  0  0  0  0  0  0  0  0  0  0  0
  -12.4853   11.2233    0.0000 C   0  0  0  0  0  0  0  0  0  0  0  0
  -11.0082   10.9624    0.0000 H   0  0  0  0  0  0  0  0  0  0  0  0
  -11.9718   12.6327    0.0000 H   0  0  0  0  0  0  0  0  0  0  0  0
  -14.6153   12.4540    0.0000 C   0  0  0  0  0  0  0  0  0  0  0  0
  -15.1285   11.0445    0.0000 H   0  0  0  0  0  0  0  0  0  0  0  0
  -13.6500   13.6032    0.0000 C   0  0  0  0  0  0  0  0  0  0  0  0
  -12.3507   14.3528    0.0000 H   0  0  0  0  0  0  0  0  0  0  0  0
  -12.6863   12.4537    0.0000 H   0  0  0  0  0  0  0  0  0  0  0  0
  -14.1627   15.0128    0.0000 C   0  0  0  0  0  0  0  0  0  0  0  0
  -14.1627   16.5128    0.0000 H   0  0  0  0  0  0  0  0  0  0  0  0
  -12.6855   15.2732    0.0000 H   0  0  0  0  0  0  0  0  0  0  0  0
  -15.6408   15.2733    0.0000 O   0  0  0  0  0  0  0  0  0  0  0  0
  -16.6061   14.1241    0.0000 C   0  0  0  0  0  0  0  0  0  0  0  0
  -17.9054   13.3745    0.0000 H   0  0  0  0  0  0  0  0  0  0  0  0
  -17.5698   15.2736    0.0000 H   0  0  0  0  0  0  0  0  0  0  0  0
  -16.0934   12.7145    0.0000 C   0  0  0  0  0  0  0  0  0  0  0  0
  -16.0934   11.2145    0.0000 H   0  0  0  0  0  0  0  0  0  0  0  0
  -17.5706   12.4541    0.0000 H   0  0  0  0  0  0  0  0  0  0  0  0
  1  2  1  0  0  0  0 
  1  3  1  0  0  0  0 
  1  4  1  0  0  0  0 
  1  5  1  0  0  0  0 
  5  6  1  0  0  0  0 
  6  7  1  0  0  0  0 
  6  8  1  0  0  0  0 
  6  9  1  0  0  0  0 
  5 10  1  0  0  0  0 
 10 11  1  0  0  0  0 
 10 12  1  0  0  0  0 
 10 13  1  0  0  0  0 
 13 14  1  0  0  0  0 
 13 15  1  0  0  0  0 
 13 16  1  0  0  0  0 
 16 17  2  0  0  0  0 
 17 18  1  0  0  0  0 
  5 18  1  0  0  0  0 
 18 19  1  0  0  0  0 
 18 20  1  0  0  0  0 
 17 21  1  0  0  0  0 
 21 22  2  0  0  0  0 
 22 23  1  0  0  0  0 
 22 24  1  0  0  0  0 
 24 25  1  0  0  0  0 
 24 26  2  0  0  0  0 
 26 27  1  0  0  0  0 
 27 28  1  0  0  0  0 
 27 29  2  0  0  0  0 
 21 29  1  0  0  0  0 
 29 30  1  0  0  0  0 
 26 31  1  0  0  0  0 
 16 32  1  0  0  0  0 
 32 33  1  0  0  0  0 
 32 34  1  0  0  0  0 
 32 35  1  0  0  0  0 
 35 36  1  0  0  0  0 
 36 37  1  0  0  0  0 
 36 38  1  0  0  0  0 
 36 39  1  0  0  0  0 
 39 40  1  0  0  0  0 
 39 41  1  0  0  0  0 
 39 42  1  0  0  0  0 
 42 43  1  0  0  0  0 
 43 44  1  0  0  0  0 
 43 45  1  0  0  0  0 
 43 46  1  0  0  0  0 
 35 46  1  0  0  0  0 
 46 47  1  0  0  0  0 
 46 48  1  0  0  0  0 
 48 49  1  0  0  0  0 
 42 50  1  0  0  0  0 
 50 51  2  0  0  0  0 
 51 52  1  0  0  0  0 
 51 53  1  0  0  0  0 
 53 54  1  0  0  0  0 
 53 55  2  0  0  0  0 
 55 56  1  0  0  0  0 
 56 57  2  0  0  0  0 
 50 57  1  0  0  0  0 
 57 58  1  0  0  0  0 
 56 59  1  0  0  0  0 
 59 60  1  0  0  0  0 
 60 61  2  0  0  0  0 
 61 62  1  0  0  0  0 
 61 63  1  0  0  0  0 
 63 64  2  0  0  0  0 
 64 65  1  0  0  0  0 
 65 66  1  0  0  0  0 
 65 67  1  0  0  0  0 
 67 68  1  0  0  0  0 
 67 69  2  0  0  0  0 
 63 69  1  0  0  0  0 
 69 70  1  0  0  0  0 
 64 71  1  0  0  0  0 
 71 72  2  0  0  0  0 
 60 72  1  0  0  0  0 
 72 73  1  0  0  0  0 
 55 74  1  0  0  0  0 
 74 75  2  0  0  0  0 
 74 76  1  0  0  0  0 
 76 77  1  0  0  0  0 
 76 78  1  0  0  0  0 
 78 79  2  0  0  0  0 
 78 80  2  0  0  0  0 
 78 81  1  0  0  0  0 
 81 82  2  0  0  0  0 
 82 83  1  0  0  0  0 
 82 84  1  0  0  0  0 
 84 85  1  0  0  0  0 
 84 86  2  0  0  0  0 
 86 87  1  0  0  0  0 
 87 88  2  0  0  0  0 
 81 88  1  0  0  0  0 
 88 89  1  0  0  0  0 
 87 90  1  0  0  0  0 
 90 91  2  0  0  0  0 
 90 92  1  0  0  0  0 
 86 93  1  0  0  0  0 
 93 94  1  0  0  0  0 
 93 95  1  0  0  0  0 
 95 96  1  0  0  0  0 
 95 97  1  0  0  0  0 
 95 98  1  0  0  0  0 
 98 99  1  0  0  0  0 
 98100  1  0  0  0  0 
100101  1  0  0  0  0 
100102  1  0  0  0  0 
100103  1  0  0  0  0 
103104  1  0  0  0  0 
103105  1  0  0  0  0 
103106  1  0  0  0  0 
106107  1  0  0  0  0 
107108  1  0  0  0  0 
107109  1  0  0  0  0 
107110  1  0  0  0  0 
 98110  1  0  0  0  0 
110111  1  0  0  0  0 
110112  1  0  0  0  0 
M  CHG  1  90   1
M  CHG  1  92  -1
M  END
> <Rank>
44

> <Priority_score>
0.084

> <Reaction_type>
aliphatic_hydroxylation_(sec_carbon_next_to_SP2,in_a_ring)

> <Parent_ID>
12

> <Parent_InChI>
InChI=1S/C45H50ClN7O7S/c1-45(2)15-11-33(39(26-45)31-3-5-34(46)6-4-31)29-51-17-19-52(20-18-51)35-7-9-38(42(24-35)60-36-23-32-12-16-47-43(32)49-28-36)44(54)50-61(57,58)37-8-10-40(41(25-37)53(55)56)48-27-30-13-21-59-22-14-30/h3-10,12,16,23-25,28,30,48H,11,13-15,17-22,26-27,29H2,1-2H3,(H,47,49)(H,50,54)

> <Parent_SMILES>
CC1(C)CCC(CN2CCN(c3ccc(C(=O)NS(=O)(=O)c4ccc(NCC5CCOCC5)c([N+](=O)[O-])c4)c(Oc4cnc5[nH]ccc5c4)c3)CC2)=C(c2ccc(Cl)cc2)C1

$$$$
Molecule 12_metabolite 46
  CDK     0516241031

110117  0  0  0  0  0  0  0  0999 V2000
    8.9543    9.8778    0.0000 C   0  0  0  0  0  0  0  0  0  0  0  0
    7.9896    8.7291    0.0000 H   0  0  0  0  0  0  0  0  0  0  0  0
   10.2536   10.6273    0.0000 H   0  0  0  0  0  0  0  0  0  0  0  0
    9.9180    8.7284    0.0000 H   0  0  0  0  0  0  0  0  0  0  0  0
    8.1137   12.1897    0.0000 C   0  0  0  0  0  0  0  0  0  0  0  0
   10.5365   12.6163    0.0000 C   0  0  0  0  0  0  0  0  0  0  0  0
   11.5004   11.4669    0.0000 H   0  0  0  0  0  0  0  0  0  0  0  0
   11.8357   13.3659    0.0000 H   0  0  0  0  0  0  0  0  0  0  0  0
   10.0238   14.0259    0.0000 H   0  0  0  0  0  0  0  0  0  0  0  0
    6.8136   11.4399    0.0000 C   0  0  0  0  0  0  0  0  0  0  0  0
    5.8494   10.2909    0.0000 H   0  0  0  0  0  0  0  0  0  0  0  0
    7.7775   10.2906    0.0000 H   0  0  0  0  0  0  0  0  0  0  0  0
    5.5137   12.1902    0.0000 C   0  0  0  0  0  0  0  0  0  0  0  0
    4.0366   12.4507    0.0000 H   0  0  0  0  0  0  0  0  0  0  0  0
    5.0008   10.7806    0.0000 H   0  0  0  0  0  0  0  0  0  0  0  0
    5.5140   13.6902    0.0000 C   0  0  0  0  0  0  0  0  0  0  0  0
    6.8141   14.4399    0.0000 C   0  0  0  0  0  0  0  0  0  0  0  0
    8.1140   13.6897    0.0000 C   0  0  0  0  0  0  0  0  0  0  0  0
    9.5912   13.4292    0.0000 H   0  0  0  0  0  0  0  0  0  0  0  0
    8.6269   15.0993    0.0000 H   0  0  0  0  0  0  0  0  0  0  0  0
    6.8144   15.9399    0.0000 C   0  0  0  0  0  0  0  0  0  0  0  0
    8.0982   16.6833    0.0000 C   0  0  0  0  0  0  0  0  0  0  0  0
    9.3958   15.9307    0.0000 H   0  0  0  0  0  0  0  0  0  0  0  0
    8.1060   18.1833    0.0000 C   0  0  0  0  0  0  0  0  0  0  0  0
    9.4134   18.9186    0.0000 H   0  0  0  0  0  0  0  0  0  0  0  0
    6.8300   18.9499    0.0000 C   0  0  0  0  0  0  0  0  0  0  0  0
    5.5160   18.1967    0.0000 C   0  0  0  0  0  0  0  0  0  0  0  0
    4.2201   18.9521    0.0000 H   0  0  0  0  0  0  0  0  0  0  0  0
    5.5083   16.6967    0.0000 C   0  0  0  0  0  0  0  0  0  0  0  0
    4.2067   15.9511    0.0000 H   0  0  0  0  0  0  0  0  0  0  0  0
    6.8453   20.4498    0.0000 Cl  0  0  0  0  0  0  0  0  0  0  0  0
    4.2152   14.4406    0.0000 C   0  0  0  0  0  0  0  0  0  0  0  0
    5.1797   15.5893    0.0000 H   0  0  0  0  0  0  0  0  0  0  0  0
    3.2514   15.5899    0.0000 H   0  0  0  0  0  0  0  0  0  0  0  0
    2.5001   13.4511    0.0000 N   0  0  0  0  0  0  0  0  0  0  0  0
    1.2009   14.2024    0.0000 C   0  0  0  0  0  0  0  0  0  0  0  0
    0.2372   15.3518    0.0000 H   0  0  0  0  0  0  0  0  0  0  0  0
    2.1657   15.3509    0.0000 H   0  0  0  0  0  0  0  0  0  0  0  0
   -0.0984   13.4528    0.0000 C   0  0  0  0  0  0  0  0  0  0  0  0
   -1.5757   13.1925    0.0000 H   0  0  0  0  0  0  0  0  0  0  0  0
   -0.6111   14.8624    0.0000 H   0  0  0  0  0  0  0  0  0  0  0  0
   -0.0984   11.9520    0.0000 N   0  0  0  0  0  0  0  0  0  0  0  0
    1.2009   11.2007    0.0000 C   0  0  0  0  0  0  0  0  0  0  0  0
    2.1646   10.0512    0.0000 H   0  0  0  0  0  0  0  0  0  0  0  0
    0.2361   10.0522    0.0000 H   0  0  0  0  0  0  0  0  0  0  0  0
    2.5001   11.9503    0.0000 C   0  0  0  0  0  0  0  0  0  0  0  0
    3.7991   11.2001    0.0000 O   0  0  0  0  0  0  0  0  0  0  0  0
   -1.3977   11.2024    0.0000 C   0  0  0  0  0  0  0  0  0  0  0  0
   -2.6973   11.9530    0.0000 C   0  0  0  0  0  0  0  0  0  0  0  0
   -2.6966   13.4530    0.0000 H   0  0  0  0  0  0  0  0  0  0  0  0
   -3.9977   11.2036    0.0000 C   0  0  0  0  0  0  0  0  0  0  0  0
   -5.2962   11.9545    0.0000 H   0  0  0  0  0  0  0  0  0  0  0  0
   -3.9984    9.7036    0.0000 C   0  0  0  0  0  0  0  0  0  0  0  0
   -2.6988    8.9530    0.0000 C   0  0  0  0  0  0  0  0  0  0  0  0
   -1.3984    9.7024    0.0000 C   0  0  0  0  0  0  0  0  0  0  0  0
   -0.0999    8.9515    0.0000 H   0  0  0  0  0  0  0  0  0  0  0  0
   -2.7000    6.4930    0.0000 O   0  0  0  0  0  0  0  0  0  0  0  0
   -1.4013    5.7424    0.0000 C   0  0  0  0  0  0  0  0  0  0  0  0
   -1.4018    4.2415    0.0000 C   0  0  0  0  0  0  0  0  0  0  0  0
   -2.7013    3.4924    0.0000 H   0  0  0  0  0  0  0  0  0  0  0  0
   -0.1027    3.4899    0.0000 C   0  0  0  0  0  0  0  0  0  0  0  0
    1.1968    4.2390    0.0000 C   0  0  0  0  0  0  0  0  0  0  0  0
    2.3095    3.2299    0.0000 N   0  0  0  0  0  0  0  0  0  0  0  0
    3.7773    3.5390    0.0000 H   0  0  0  0  0  0  0  0  0  0  0  0
    1.7008    1.8632    0.0000 C   0  0  0  0  0  0  0  0  0  0  0  0
    2.4499    0.5637    0.0000 H   0  0  0  0  0  0  0  0  0  0  0  0
    0.2130    2.0213    0.0000 C   0  0  0  0  0  0  0  0  0  0  0  0
   -0.7901    0.9059    0.0000 H   0  0  0  0  0  0  0  0  0  0  0  0
    1.1973    5.7399    0.0000 N   0  0  0  0  0  0  0  0  0  0  0  0
   -0.1018    6.4915    0.0000 C   0  0  0  0  0  0  0  0  0  0  0  0
   -0.1006    7.9915    0.0000 H   0  0  0  0  0  0  0  0  0  0  0  0
   -5.2977    8.9540    0.0000 C   0  0  0  0  0  0  0  0  0  0  0  0
   -5.2982    7.4540    0.0000 O   0  0  0  0  0  0  0  0  0  0  0  0
   -6.5965    9.7045    0.0000 N   0  0  0  0  0  0  0  0  0  0  0  0
   -6.5960   11.2045    0.0000 H   0  0  0  0  0  0  0  0  0  0  0  0
   -7.8958    8.9549    0.0000 S   0  0  0  0  0  0  0  0  0  0  0  0
   -6.9320    7.8055    0.0000 O   0  0  0  0  0  0  0  0  0  0  0  0
   -8.8603    7.8061    0.0000 O   0  0  0  0  0  0  0  0  0  0  0  0
   -9.1946    9.7053    0.0000 C   0  0  0  0  0  0  0  0  0  0  0  0
   -9.1943   11.2061    0.0000 C   0  0  0  0  0  0  0  0  0  0  0  0
   -7.8949   11.9555    0.0000 H   0  0  0  0  0  0  0  0  0  0  0  0
  -10.4935   11.9576    0.0000 C   0  0  0  0  0  0  0  0  0  0  0  0
  -10.4925   13.4576    0.0000 H   0  0  0  0  0  0  0  0  0  0  0  0
  -11.7929   11.2082    0.0000 C   0  0  0  0  0  0  0  0  0  0  0  0
  -11.7931    9.7074    0.0000 C   0  0  0  0  0  0  0  0  0  0  0  0
  -10.4940    8.9559    0.0000 C   0  0  0  0  0  0  0  0  0  0  0  0
  -10.4949    7.4559    0.0000 H   0  0  0  0  0  0  0  0  0  0  0  0
  -13.0925    8.9580    0.0000 N   0  0  0  0  0  0  0  0  0  0  0  0
  -14.3912    9.7086    0.0000 O   0  0  0  0  0  0  0  0  0  0  0  0
  -13.0932    7.4580    0.0000 O   0  0  0  0  0  0  0  0  0  0  0  0
  -13.0917   11.9586    0.0000 N   0  0  0  0  0  0  0  0  0  0  0  0
  -14.3910   11.2090    0.0000 H   0  0  0  0  0  0  0  0  0  0  0  0
  -13.0912   13.4586    0.0000 C   0  0  0  0  0  0  0  0  0  0  0  0
  -11.6141   13.1977    0.0000 H   0  0  0  0  0  0  0  0  0  0  0  0
  -12.5777   14.8680    0.0000 H   0  0  0  0  0  0  0  0  0  0  0  0
  -15.2212   14.6893    0.0000 C   0  0  0  0  0  0  0  0  0  0  0  0
  -15.7344   13.2798    0.0000 H   0  0  0  0  0  0  0  0  0  0  0  0
  -14.2559   15.8385    0.0000 C   0  0  0  0  0  0  0  0  0  0  0  0
  -12.9566   16.5881    0.0000 H   0  0  0  0  0  0  0  0  0  0  0  0
  -13.2922   14.6890    0.0000 H   0  0  0  0  0  0  0  0  0  0  0  0
  -14.7686   17.2481    0.0000 C   0  0  0  0  0  0  0  0  0  0  0  0
  -14.7686   18.7481    0.0000 H   0  0  0  0  0  0  0  0  0  0  0  0
  -13.2914   17.5085    0.0000 H   0  0  0  0  0  0  0  0  0  0  0  0
  -16.2467   17.5086    0.0000 O   0  0  0  0  0  0  0  0  0  0  0  0
  -17.2120   16.3594    0.0000 C   0  0  0  0  0  0  0  0  0  0  0  0
  -18.5113   15.6098    0.0000 H   0  0  0  0  0  0  0  0  0  0  0  0
  -18.1757   17.5089    0.0000 H   0  0  0  0  0  0  0  0  0  0  0  0
  -16.6993   14.9498    0.0000 C   0  0  0  0  0  0  0  0  0  0  0  0
  -16.6993   13.4498    0.0000 H   0  0  0  0  0  0  0  0  0  0  0  0
  -18.1765   14.6894    0.0000 H   0  0  0  0  0  0  0  0  0  0  0  0
  1  2  1  0  0  0  0 
  1  3  1  0  0  0  0 
  1  4  1  0  0  0  0 
  1  5  1  0  0  0  0 
  5  6  1  0  0  0  0 
  6  7  1  0  0  0  0 
  6  8  1  0  0  0  0 
  6  9  1  0  0  0  0 
  5 10  1  0  0  0  0 
 10 11  1  0  0  0  0 
 10 12  1  0  0  0  0 
 10 13  1  0  0  0  0 
 13 14  1  0  0  0  0 
 13 15  1  0  0  0  0 
 13 16  1  0  0  0  0 
 16 17  2  0  0  0  0 
 17 18  1  0  0  0  0 
  5 18  1  0  0  0  0 
 18 19  1  0  0  0  0 
 18 20  1  0  0  0  0 
 17 21  1  0  0  0  0 
 21 22  2  0  0  0  0 
 22 23  1  0  0  0  0 
 22 24  1  0  0  0  0 
 24 25  1  0  0  0  0 
 24 26  2  0  0  0  0 
 26 27  1  0  0  0  0 
 27 28  1  0  0  0  0 
 27 29  2  0  0  0  0 
 21 29  1  0  0  0  0 
 29 30  1  0  0  0  0 
 26 31  1  0  0  0  0 
 16 32  1  0  0  0  0 
 32 33  1  0  0  0  0 
 32 34  1  0  0  0  0 
 32 35  1  0  0  0  0 
 35 36  1  0  0  0  0 
 36 37  1  0  0  0  0 
 36 38  1  0  0  0  0 
 36 39  1  0  0  0  0 
 39 40  1  0  0  0  0 
 39 41  1  0  0  0  0 
 39 42  1  0  0  0  0 
 42 43  1  0  0  0  0 
 43 44  1  0  0  0  0 
 43 45  1  0  0  0  0 
 43 46  1  0  0  0  0 
 35 46  1  0  0  0  0 
 46 47  2  0  0  0  0 
 42 48  1  0  0  0  0 
 48 49  2  0  0  0  0 
 49 50  1  0  0  0  0 
 49 51  1  0  0  0  0 
 51 52  1  0  0  0  0 
 51 53  2  0  0  0  0 
 53 54  1  0  0  0  0 
 54 55  2  0  0  0  0 
 48 55  1  0  0  0  0 
 55 56  1  0  0  0  0 
 54 57  1  0  0  0  0 
 57 58  1  0  0  0  0 
 58 59  2  0  0  0  0 
 59 60  1  0  0  0  0 
 59 61  1  0  0  0  0 
 61 62  2  0  0  0  0 
 62 63  1  0  0  0  0 
 63 64  1  0  0  0  0 
 63 65  1  0  0  0  0 
 65 66  1  0  0  0  0 
 65 67  2  0  0  0  0 
 61 67  1  0  0  0  0 
 67 68  1  0  0  0  0 
 62 69  1  0  0  0  0 
 69 70  2  0  0  0  0 
 58 70  1  0  0  0  0 
 70 71  1  0  0  0  0 
 53 72  1  0  0  0  0 
 72 73  2  0  0  0  0 
 72 74  1  0  0  0  0 
 74 75  1  0  0  0  0 
 74 76  1  0  0  0  0 
 76 77  2  0  0  0  0 
 76 78  2  0  0  0  0 
 76 79  1  0  0  0  0 
 79 80  2  0  0  0  0 
 80 81  1  0  0  0  0 
 80 82  1  0  0  0  0 
 82 83  1  0  0  0  0 
 82 84  2  0  0  0  0 
 84 85  1  0  0  0  0 
 85 86  2  0  0  0  0 
 79 86  1  0  0  0  0 
 86 87  1  0  0  0  0 
 85 88  1  0  0  0  0 
 88 89  2  0  0  0  0 
 88 90  1  0  0  0  0 
 84 91  1  0  0  0  0 
 91 92  1  0  0  0  0 
 91 93  1  0  0  0  0 
 93 94  1  0  0  0  0 
 93 95  1  0  0  0  0 
 93 96  1  0  0  0  0 
 96 97  1  0  0  0  0 
 96 98  1  0  0  0  0 
 98 99  1  0  0  0  0 
 98100  1  0  0  0  0 
 98101  1  0  0  0  0 
101102  1  0  0  0  0 
101103  1  0  0  0  0 
101104  1  0  0  0  0 
104105  1  0  0  0  0 
105106  1  0  0  0  0 
105107  1  0  0  0  0 
105108  1  0  0  0  0 
 96108  1  0  0  0  0 
108109  1  0  0  0  0 
108110  1  0  0  0  0 
M  CHG  1  88   1
M  CHG  1  90  -1
M  END
> <Rank>
44

> <Priority_score>
0.084

> <Reaction_type>
oxidation_(amine_in_a_ring)

> <Parent_ID>
12

> <Parent_InChI>
InChI=1S/C45H50ClN7O7S/c1-45(2)15-11-33(39(26-45)31-3-5-34(46)6-4-31)29-51-17-19-52(20-18-51)35-7-9-38(42(24-35)60-36-23-32-12-16-47-43(32)49-28-36)44(54)50-61(57,58)37-8-10-40(41(25-37)53(55)56)48-27-30-13-21-59-22-14-30/h3-10,12,16,23-25,28,30,48H,11,13-15,17-22,26-27,29H2,1-2H3,(H,47,49)(H,50,54)

> <Parent_SMILES>
CC1(C)CCC(CN2CCN(c3ccc(C(=O)NS(=O)(=O)c4ccc(NCC5CCOCC5)c([N+](=O)[O-])c4)c(Oc4cnc5[nH]ccc5c4)c3)CC2)=C(c2ccc(Cl)cc2)C1

$$$$
Molecule 12_metabolite 47
  CDK     0516241031

109116  0  0  0  0  0  0  0  0999 V2000
  -12.3975   -9.4372    0.0000 C   0  0  0  0  0  0  0  0  0  0  0  0
  -12.9100   -8.0275    0.0000 H   0  0  0  0  0  0  0  0  0  0  0  0
  -12.3980  -10.9372    0.0000 H   0  0  0  0  0  0  0  0  0  0  0  0
  -13.8748   -9.6971    0.0000 H   0  0  0  0  0  0  0  0  0  0  0  0
   -9.9750   -9.8653    0.0000 C   0  0  0  0  0  0  0  0  0  0  0  0
  -10.8170  -12.1767    0.0000 C   0  0  0  0  0  0  0  0  0  0  0  0
  -12.2943  -12.4368    0.0000 H   0  0  0  0  0  0  0  0  0  0  0  0
  -10.8174  -13.6767    0.0000 H   0  0  0  0  0  0  0  0  0  0  0  0
   -9.3398  -12.4376    0.0000 H   0  0  0  0  0  0  0  0  0  0  0  0
   -9.9743   -8.3645    0.0000 C   0  0  0  0  0  0  0  0  0  0  0  0
  -10.4872   -6.9549    0.0000 H   0  0  0  0  0  0  0  0  0  0  0  0
  -11.4516   -8.6245    0.0000 H   0  0  0  0  0  0  0  0  0  0  0  0
   -8.6746   -7.6138    0.0000 C   0  0  0  0  0  0  0  0  0  0  0  0
   -7.4018   -6.0971    0.0000 H   0  0  0  0  0  0  0  0  0  0  0  0
   -9.6389   -6.4648    0.0000 H   0  0  0  0  0  0  0  0  0  0  0  0
   -7.3757   -8.3640    0.0000 C   0  0  0  0  0  0  0  0  0  0  0  0
   -7.3764   -9.8649    0.0000 C   0  0  0  0  0  0  0  0  0  0  0  0
   -8.6761  -10.6155    0.0000 C   0  0  0  0  0  0  0  0  0  0  0  0
   -9.6403  -11.7645    0.0000 H   0  0  0  0  0  0  0  0  0  0  0  0
   -7.7118  -11.7645    0.0000 H   0  0  0  0  0  0  0  0  0  0  0  0
   -6.0775  -10.6151    0.0000 C   0  0  0  0  0  0  0  0  0  0  0  0
   -6.0757  -12.0986    0.0000 C   0  0  0  0  0  0  0  0  0  0  0  0
   -7.3762  -12.8461    0.0000 H   0  0  0  0  0  0  0  0  0  0  0  0
   -4.7806  -12.8554    0.0000 C   0  0  0  0  0  0  0  0  0  0  0  0
   -4.7975  -14.3553    0.0000 H   0  0  0  0  0  0  0  0  0  0  0  0
   -3.4786  -12.1336    0.0000 C   0  0  0  0  0  0  0  0  0  0  0  0
   -3.4740  -10.6191    0.0000 C   0  0  0  0  0  0  0  0  0  0  0  0
   -2.1718   -9.8745    0.0000 H   0  0  0  0  0  0  0  0  0  0  0  0
   -4.7691   -9.8624    0.0000 C   0  0  0  0  0  0  0  0  0  0  0  0
   -4.7640   -8.3624    0.0000 H   0  0  0  0  0  0  0  0  0  0  0  0
   -2.1873  -12.8968    0.0000 Cl  0  0  0  0  0  0  0  0  0  0  0  0
   -6.0764   -7.6145    0.0000 C   0  0  0  0  0  0  0  0  0  0  0  0
   -5.5639   -9.0242    0.0000 H   0  0  0  0  0  0  0  0  0  0  0  0
   -4.5992   -7.3545    0.0000 H   0  0  0  0  0  0  0  0  0  0  0  0
   -6.0755   -4.6745    0.0000 N   0  0  0  0  0  0  0  0  0  0  0  0
   -4.7756   -3.9243    0.0000 C   0  0  0  0  0  0  0  0  0  0  0  0
   -4.2631   -5.3340    0.0000 H   0  0  0  0  0  0  0  0  0  0  0  0
   -3.2983   -3.6647    0.0000 H   0  0  0  0  0  0  0  0  0  0  0  0
   -4.7744   -2.4234    0.0000 C   0  0  0  0  0  0  0  0  0  0  0  0
   -3.2974   -2.6849    0.0000 H   0  0  0  0  0  0  0  0  0  0  0  0
   -4.2606   -1.0142    0.0000 H   0  0  0  0  0  0  0  0  0  0  0  0
   -6.0731   -1.6728    0.0000 N   0  0  0  0  0  0  0  0  0  0  0  0
   -7.3730   -2.4230    0.0000 C   0  0  0  0  0  0  0  0  0  0  0  0
   -7.8855   -1.0133    0.0000 H   0  0  0  0  0  0  0  0  0  0  0  0
   -8.8503   -2.6826    0.0000 H   0  0  0  0  0  0  0  0  0  0  0  0
   -7.3742   -3.9238    0.0000 C   0  0  0  0  0  0  0  0  0  0  0  0
   -8.8512   -3.6623    0.0000 H   0  0  0  0  0  0  0  0  0  0  0  0
   -7.8880   -5.3331    0.0000 H   0  0  0  0  0  0  0  0  0  0  0  0
   -6.0726   -0.1728    0.0000 C   0  0  0  0  0  0  0  0  0  0  0  0
   -7.3720    0.5782    0.0000 C   0  0  0  0  0  0  0  0  0  0  0  0
   -8.6712   -0.1715    0.0000 H   0  0  0  0  0  0  0  0  0  0  0  0
   -7.3723    2.0791    0.0000 C   0  0  0  0  0  0  0  0  0  0  0  0
   -8.6713    2.8291    0.0000 H   0  0  0  0  0  0  0  0  0  0  0  0
   -6.0731    2.8289    0.0000 C   0  0  0  0  0  0  0  0  0  0  0  0
   -4.7737    2.0778    0.0000 C   0  0  0  0  0  0  0  0  0  0  0  0
   -4.7735    0.5770    0.0000 C   0  0  0  0  0  0  0  0  0  0  0  0
   -3.4744   -0.1730    0.0000 H   0  0  0  0  0  0  0  0  0  0  0  0
   -2.6431    3.3075    0.0000 O   0  0  0  0  0  0  0  0  0  0  0  0
   -1.3442    2.5573    0.0000 C   0  0  0  0  0  0  0  0  0  0  0  0
   -0.0442    3.3073    0.0000 C   0  0  0  0  0  0  0  0  0  0  0  0
   -0.0442    4.8073    0.0000 H   0  0  0  0  0  0  0  0  0  0  0  0
    1.2558    2.5573    0.0000 C   0  0  0  0  0  0  0  0  0  0  0  0
    1.2558    1.0573    0.0000 C   0  0  0  0  0  0  0  0  0  0  0  0
    2.6858    0.5973    0.0000 N   0  0  0  0  0  0  0  0  0  0  0  0
    3.1511   -0.8287    0.0000 H   0  0  0  0  0  0  0  0  0  0  0  0
    3.5658    1.8073    0.0000 C   0  0  0  0  0  0  0  0  0  0  0  0
    5.0658    1.8073    0.0000 H   0  0  0  0  0  0  0  0  0  0  0  0
    2.6858    3.0173    0.0000 C   0  0  0  0  0  0  0  0  0  0  0  0
    3.1511    4.4433    0.0000 H   0  0  0  0  0  0  0  0  0  0  0  0
   -0.0442    0.3073    0.0000 N   0  0  0  0  0  0  0  0  0  0  0  0
   -1.3442    1.0573    0.0000 C   0  0  0  0  0  0  0  0  0  0  0  0
   -2.6431    0.3071    0.0000 H   0  0  0  0  0  0  0  0  0  0  0  0
   -6.0726    4.3289    0.0000 C   0  0  0  0  0  0  0  0  0  0  0  0
   -4.7733    5.0785    0.0000 O   0  0  0  0  0  0  0  0  0  0  0  0
   -7.3714    5.0793    0.0000 N   0  0  0  0  0  0  0  0  0  0  0  0
   -8.6707    4.3297    0.0000 H   0  0  0  0  0  0  0  0  0  0  0  0
   -7.3709    6.5793    0.0000 S   0  0  0  0  0  0  0  0  0  0  0  0
   -5.8938    6.3183    0.0000 O   0  0  0  0  0  0  0  0  0  0  0  0
   -6.8575    7.9887    0.0000 O   0  0  0  0  0  0  0  0  0  0  0  0
   -8.6697    7.3297    0.0000 C   0  0  0  0  0  0  0  0  0  0  0  0
   -9.9699    6.5799    0.0000 C   0  0  0  0  0  0  0  0  0  0  0  0
   -9.9701    5.0799    0.0000 H   0  0  0  0  0  0  0  0  0  0  0  0
  -11.2697    7.3301    0.0000 C   0  0  0  0  0  0  0  0  0  0  0  0
  -12.5688    6.5801    0.0000 H   0  0  0  0  0  0  0  0  0  0  0  0
  -11.2695    8.8301    0.0000 C   0  0  0  0  0  0  0  0  0  0  0  0
   -9.9694    9.5799    0.0000 C   0  0  0  0  0  0  0  0  0  0  0  0
   -8.6695    8.8297    0.0000 C   0  0  0  0  0  0  0  0  0  0  0  0
   -7.3705    9.5797    0.0000 H   0  0  0  0  0  0  0  0  0  0  0  0
   -9.9691   11.0799    0.0000 N   0  0  0  0  0  0  0  0  0  0  0  0
  -11.2681   11.8301    0.0000 O   0  0  0  0  0  0  0  0  0  0  0  0
   -8.6700   11.8297    0.0000 O   0  0  0  0  0  0  0  0  0  0  0  0
  -12.5683    9.5805    0.0000 N   0  0  0  0  0  0  0  0  0  0  0  0
  -13.8676    8.8309    0.0000 H   0  0  0  0  0  0  0  0  0  0  0  0
  -12.5678   11.0805    0.0000 C   0  0  0  0  0  0  0  0  0  0  0  0
  -11.0907   10.8196    0.0000 H   0  0  0  0  0  0  0  0  0  0  0  0
  -12.0543   12.4899    0.0000 H   0  0  0  0  0  0  0  0  0  0  0  0
  -14.6978   12.3112    0.0000 C   0  0  0  0  0  0  0  0  0  0  0  0
  -13.7330   13.4598    0.0000 H   0  0  0  0  0  0  0  0  0  0  0  0
  -15.2113   10.9009    0.0000 C   0  0  0  0  0  0  0  0  0  0  0  0
  -14.2474    9.7516    0.0000 H   0  0  0  0  0  0  0  0  0  0  0  0
  -16.6886   10.6411    0.0000 C   0  0  0  0  0  0  0  0  0  0  0  0
  -17.2025    9.2319    0.0000 H   0  0  0  0  0  0  0  0  0  0  0  0
  -17.6525   11.7915    0.0000 O   0  0  0  0  0  0  0  0  0  0  0  0
  -17.1390   13.2018    0.0000 C   0  0  0  0  0  0  0  0  0  0  0  0
  -17.1385   14.7018    0.0000 H   0  0  0  0  0  0  0  0  0  0  0  0
  -18.6162   13.4626    0.0000 H   0  0  0  0  0  0  0  0  0  0  0  0
  -15.6617   13.4616    0.0000 C   0  0  0  0  0  0  0  0  0  0  0  0
  -14.3622   14.2108    0.0000 H   0  0  0  0  0  0  0  0  0  0  0  0
  -16.1740   14.8715    0.0000 H   0  0  0  0  0  0  0  0  0  0  0  0
  1  2  1  0  0  0  0 
  1  3  1  0  0  0  0 
  1  4  1  0  0  0  0 
  1  5  1  0  0  0  0 
  5  6  1  0  0  0  0 
  6  7  1  0  0  0  0 
  6  8  1  0  0  0  0 
  6  9  1  0  0  0  0 
  5 10  1  0  0  0  0 
 10 11  1  0  0  0  0 
 10 12  1  0  0  0  0 
 10 13  1  0  0  0  0 
 13 14  1  0  0  0  0 
 13 15  1  0  0  0  0 
 13 16  1  0  0  0  0 
 16 17  2  0  0  0  0 
 17 18  1  0  0  0  0 
  5 18  1  0  0  0  0 
 18 19  1  0  0  0  0 
 18 20  1  0  0  0  0 
 17 21  1  0  0  0  0 
 21 22  2  0  0  0  0 
 22 23  1  0  0  0  0 
 22 24  1  0  0  0  0 
 24 25  1  0  0  0  0 
 24 26  2  0  0  0  0 
 26 27  1  0  0  0  0 
 27 28  1  0  0  0  0 
 27 29  2  0  0  0  0 
 21 29  1  0  0  0  0 
 29 30  1  0  0  0  0 
 26 31  1  0  0  0  0 
 16 32  1  0  0  0  0 
 32 33  1  0  0  0  0 
 32 34  1  0  0  0  0 
 32 35  1  0  0  0  0 
 35 36  1  0  0  0  0 
 36 37  1  0  0  0  0 
 36 38  1  0  0  0  0 
 36 39  1  0  0  0  0 
 39 40  1  0  0  0  0 
 39 41  1  0  0  0  0 
 39 42  1  0  0  0  0 
 42 43  1  0  0  0  0 
 43 44  1  0  0  0  0 
 43 45  1  0  0  0  0 
 43 46  1  0  0  0  0 
 35 46  1  0  0  0  0 
 46 47  1  0  0  0  0 
 46 48  1  0  0  0  0 
 42 49  1  0  0  0  0 
 49 50  2  0  0  0  0 
 50 51  1  0  0  0  0 
 50 52  1  0  0  0  0 
 52 53  1  0  0  0  0 
 52 54  2  0  0  0  0 
 54 55  1  0  0  0  0 
 55 56  2  0  0  0  0 
 49 56  1  0  0  0  0 
 56 57  1  0  0  0  0 
 55 58  1  0  0  0  0 
 58 59  1  0  0  0  0 
 59 60  2  0  0  0  0 
 60 61  1  0  0  0  0 
 60 62  1  0  0  0  0 
 62 63  2  0  0  0  0 
 63 64  1  0  0  0  0 
 64 65  1  0  0  0  0 
 64 66  1  0  0  0  0 
 66 67  1  0  0  0  0 
 66 68  2  0  0  0  0 
 62 68  1  0  0  0  0 
 68 69  1  0  0  0  0 
 63 70  1  0  0  0  0 
 70 71  2  0  0  0  0 
 59 71  1  0  0  0  0 
 71 72  1  0  0  0  0 
 54 73  1  0  0  0  0 
 73 74  2  0  0  0  0 
 73 75  1  0  0  0  0 
 75 76  1  0  0  0  0 
 75 77  1  0  0  0  0 
 77 78  2  0  0  0  0 
 77 79  2  0  0  0  0 
 77 80  1  0  0  0  0 
 80 81  2  0  0  0  0 
 81 82  1  0  0  0  0 
 81 83  1  0  0  0  0 
 83 84  1  0  0  0  0 
 83 85  2  0  0  0  0 
 85 86  1  0  0  0  0 
 86 87  2  0  0  0  0 
 80 87  1  0  0  0  0 
 87 88  1  0  0  0  0 
 86 89  1  0  0  0  0 
 89 90  2  0  0  0  0 
 89 91  1  0  0  0  0 
 85 92  1  0  0  0  0 
 92 93  1  0  0  0  0 
 92 94  1  0  0  0  0 
 94 95  1  0  0  0  0 
 94 96  1  0  0  0  0 
 94 97  1  0  0  0  0 
 97 98  1  0  0  0  0 
 97 99  1  0  0  0  0 
 99100  1  0  0  0  0 
 99101  2  0  0  0  0 
101102  1  0  0  0  0 
101103  1  0  0  0  0 
103104  1  0  0  0  0 
104105  1  0  0  0  0 
104106  1  0  0  0  0 
104107  1  0  0  0  0 
 97107  1  0  0  0  0 
107108  1  0  0  0  0 
107109  1  0  0  0  0 
M  CHG  1  89   1
M  CHG  1  91  -1
M  END
> <Rank>
47

> <Priority_score>
0.0752

> <Reaction_type>
alkyl dehydrogenation

> <Parent_ID>
12

> <Parent_InChI>
InChI=1S/C45H50ClN7O7S/c1-45(2)15-11-33(39(26-45)31-3-5-34(46)6-4-31)29-51-17-19-52(20-18-51)35-7-9-38(42(24-35)60-36-23-32-12-16-47-43(32)49-28-36)44(54)50-61(57,58)37-8-10-40(41(25-37)53(55)56)48-27-30-13-21-59-22-14-30/h3-10,12,16,23-25,28,30,48H,11,13-15,17-22,26-27,29H2,1-2H3,(H,47,49)(H,50,54)

> <Parent_SMILES>
CC1(C)CCC(CN2CCN(c3ccc(C(=O)NS(=O)(=O)c4ccc(NCC5CCOCC5)c([N+](=O)[O-])c4)c(Oc4cnc5[nH]ccc5c4)c3)CC2)=C(c2ccc(Cl)cc2)C1

$$$$
Molecule 12_metabolite 48
  CDK     0516241031

112119  0  0  0  0  0  0  0  0999 V2000
    4.0755   19.0737    0.0000 C   0  0  0  0  0  0  0  0  0  0  0  0
    2.5982   18.8136    0.0000 H   0  0  0  0  0  0  0  0  0  0  0  0
    5.3747   19.8233    0.0000 H   0  0  0  0  0  0  0  0  0  0  0  0
    3.5628   20.4833    0.0000 H   0  0  0  0  0  0  0  0  0  0  0  0
    5.6562   17.1888    0.0000 C   0  0  0  0  0  0  0  0  0  0  0  0
    7.2382   19.0726    0.0000 C   0  0  0  0  0  0  0  0  0  0  0  0
    6.7257   20.4824    0.0000 H   0  0  0  0  0  0  0  0  0  0  0  0
    8.5375   19.8222    0.0000 H   0  0  0  0  0  0  0  0  0  0  0  0
    8.2019   17.9232    0.0000 H   0  0  0  0  0  0  0  0  0  0  0  0
    4.3563   16.4386    0.0000 C   0  0  0  0  0  0  0  0  0  0  0  0
    2.8790   16.1789    0.0000 H   0  0  0  0  0  0  0  0  0  0  0  0
    3.8438   17.8483    0.0000 H   0  0  0  0  0  0  0  0  0  0  0  0
    4.3551   14.9377    0.0000 C   0  0  0  0  0  0  0  0  0  0  0  0
    3.6768   13.0775    0.0000 H   0  0  0  0  0  0  0  0  0  0  0  0
    2.8781   15.1992    0.0000 H   0  0  0  0  0  0  0  0  0  0  0  0
    5.6538   14.1871    0.0000 C   0  0  0  0  0  0  0  0  0  0  0  0
    6.9537   14.9373    0.0000 C   0  0  0  0  0  0  0  0  0  0  0  0
    6.9549   16.4381    0.0000 C   0  0  0  0  0  0  0  0  0  0  0  0
    7.4688   17.8474    0.0000 H   0  0  0  0  0  0  0  0  0  0  0  0
    8.4319   16.1766    0.0000 H   0  0  0  0  0  0  0  0  0  0  0  0
    8.2524   14.1867    0.0000 C   0  0  0  0  0  0  0  0  0  0  0  0
    9.5386   14.9260    0.0000 C   0  0  0  0  0  0  0  0  0  0  0  0
    9.5365   16.4260    0.0000 H   0  0  0  0  0  0  0  0  0  0  0  0
   10.8410   14.1819    0.0000 C   0  0  0  0  0  0  0  0  0  0  0  0
   12.1320   14.9457    0.0000 H   0  0  0  0  0  0  0  0  0  0  0  0
   10.8659   12.6935    0.0000 C   0  0  0  0  0  0  0  0  0  0  0  0
    9.5562   11.9331    0.0000 C   0  0  0  0  0  0  0  0  0  0  0  0
    9.5614   10.4331    0.0000 H   0  0  0  0  0  0  0  0  0  0  0  0
    8.2538   12.6772    0.0000 C   0  0  0  0  0  0  0  0  0  0  0  0
    6.9568   11.9236    0.0000 H   0  0  0  0  0  0  0  0  0  0  0  0
   12.1721   11.9560    0.0000 Cl  0  0  0  0  0  0  0  0  0  0  0  0
    5.6533   12.6871    0.0000 C   0  0  0  0  0  0  0  0  0  0  0  0
    7.1306   12.9471    0.0000 H   0  0  0  0  0  0  0  0  0  0  0  0
    6.1659   11.2774    0.0000 H   0  0  0  0  0  0  0  0  0  0  0  0
    3.1068   11.2179    0.0000 N   0  0  0  0  0  0  0  0  0  0  0  0
    3.1060    9.7171    0.0000 C   0  0  0  0  0  0  0  0  0  0  0  0
    4.5833    9.9772    0.0000 H   0  0  0  0  0  0  0  0  0  0  0  0
    3.6190    8.3075    0.0000 H   0  0  0  0  0  0  0  0  0  0  0  0
    1.8064    8.9665    0.0000 C   0  0  0  0  0  0  0  0  0  0  0  0
    2.7706    7.8174    0.0000 H   0  0  0  0  0  0  0  0  0  0  0  0
    0.8422    7.8174    0.0000 H   0  0  0  0  0  0  0  0  0  0  0  0
    0.5075    9.7167    0.0000 N   0  0  0  0  0  0  0  0  0  0  0  0
    0.5082   11.2175    0.0000 C   0  0  0  0  0  0  0  0  0  0  0  0
   -0.9691   10.9574    0.0000 H   0  0  0  0  0  0  0  0  0  0  0  0
   -0.0048   12.6271    0.0000 H   0  0  0  0  0  0  0  0  0  0  0  0
    1.8078   11.9681    0.0000 C   0  0  0  0  0  0  0  0  0  0  0  0
    0.8436   13.1171    0.0000 H   0  0  0  0  0  0  0  0  0  0  0  0
    2.7721   13.1171    0.0000 H   0  0  0  0  0  0  0  0  0  0  0  0
   -0.7918    8.9671    0.0000 C   0  0  0  0  0  0  0  0  0  0  0  0
   -2.0914    9.7177    0.0000 C   0  0  0  0  0  0  0  0  0  0  0  0
   -2.0907   11.2177    0.0000 H   0  0  0  0  0  0  0  0  0  0  0  0
   -3.3918    8.9683    0.0000 C   0  0  0  0  0  0  0  0  0  0  0  0
   -4.6904    9.7192    0.0000 H   0  0  0  0  0  0  0  0  0  0  0  0
   -3.3925    7.4683    0.0000 C   0  0  0  0  0  0  0  0  0  0  0  0
   -2.0929    6.7177    0.0000 C   0  0  0  0  0  0  0  0  0  0  0  0
   -0.7925    7.4671    0.0000 C   0  0  0  0  0  0  0  0  0  0  0  0
    0.5060    6.7162    0.0000 H   0  0  0  0  0  0  0  0  0  0  0  0
   -2.0941    4.2577    0.0000 O   0  0  0  0  0  0  0  0  0  0  0  0
   -0.7954    3.5071    0.0000 C   0  0  0  0  0  0  0  0  0  0  0  0
   -0.7959    2.0062    0.0000 C   0  0  0  0  0  0  0  0  0  0  0  0
   -2.0954    1.2571    0.0000 H   0  0  0  0  0  0  0  0  0  0  0  0
    0.5032    1.2546    0.0000 C   0  0  0  0  0  0  0  0  0  0  0  0
    1.8027    2.0037    0.0000 C   0  0  0  0  0  0  0  0  0  0  0  0
    2.9154    0.9946    0.0000 N   0  0  0  0  0  0  0  0  0  0  0  0
    4.3832    1.3037    0.0000 H   0  0  0  0  0  0  0  0  0  0  0  0
    2.3066   -0.3721    0.0000 C   0  0  0  0  0  0  0  0  0  0  0  0
    3.0558   -1.6716    0.0000 H   0  0  0  0  0  0  0  0  0  0  0  0
    0.8189   -0.2140    0.0000 C   0  0  0  0  0  0  0  0  0  0  0  0
   -0.1842   -1.3293    0.0000 H   0  0  0  0  0  0  0  0  0  0  0  0
    1.8032    3.5046    0.0000 N   0  0  0  0  0  0  0  0  0  0  0  0
    0.5041    4.2562    0.0000 C   0  0  0  0  0  0  0  0  0  0  0  0
    0.5053    5.7562    0.0000 H   0  0  0  0  0  0  0  0  0  0  0  0
   -4.6918    6.7187    0.0000 C   0  0  0  0  0  0  0  0  0  0  0  0
   -4.6923    5.2187    0.0000 O   0  0  0  0  0  0  0  0  0  0  0  0
   -5.9906    7.4692    0.0000 N   0  0  0  0  0  0  0  0  0  0  0  0
   -5.9901    8.9692    0.0000 H   0  0  0  0  0  0  0  0  0  0  0  0
   -7.2899    6.7196    0.0000 S   0  0  0  0  0  0  0  0  0  0  0  0
   -5.9911    5.9692    0.0000 O   0  0  0  0  0  0  0  0  0  0  0  0
   -7.2904    5.2196    0.0000 O   0  0  0  0  0  0  0  0  0  0  0  0
   -8.5892    5.9700    0.0000 O   0  0  0  0  0  0  0  0  0  0  0  0
   -8.5887    7.4700    0.0000 C   0  0  0  0  0  0  0  0  0  0  0  0
   -8.5884    8.9708    0.0000 C   0  0  0  0  0  0  0  0  0  0  0  0
   -7.2890    9.7202    0.0000 H   0  0  0  0  0  0  0  0  0  0  0  0
   -9.8876    9.7223    0.0000 C   0  0  0  0  0  0  0  0  0  0  0  0
   -9.8866   11.2223    0.0000 H   0  0  0  0  0  0  0  0  0  0  0  0
  -11.1870    8.9729    0.0000 C   0  0  0  0  0  0  0  0  0  0  0  0
  -11.1872    7.4721    0.0000 C   0  0  0  0  0  0  0  0  0  0  0  0
   -9.8881    6.7206    0.0000 C   0  0  0  0  0  0  0  0  0  0  0  0
   -9.8890    5.2206    0.0000 H   0  0  0  0  0  0  0  0  0  0  0  0
  -12.4866    6.7227    0.0000 N   0  0  0  0  0  0  0  0  0  0  0  0
  -13.7853    7.4733    0.0000 O   0  0  0  0  0  0  0  0  0  0  0  0
  -12.4874    5.2227    0.0000 O   0  0  0  0  0  0  0  0  0  0  0  0
  -12.4858    9.7233    0.0000 N   0  0  0  0  0  0  0  0  0  0  0  0
  -13.7851    8.9737    0.0000 H   0  0  0  0  0  0  0  0  0  0  0  0
  -12.4853   11.2233    0.0000 C   0  0  0  0  0  0  0  0  0  0  0  0
  -11.0082   10.9624    0.0000 H   0  0  0  0  0  0  0  0  0  0  0  0
  -11.9718   12.6327    0.0000 H   0  0  0  0  0  0  0  0  0  0  0  0
  -14.6153   12.4540    0.0000 C   0  0  0  0  0  0  0  0  0  0  0  0
  -15.1285   11.0445    0.0000 H   0  0  0  0  0  0  0  0  0  0  0  0
  -13.6500   13.6032    0.0000 C   0  0  0  0  0  0  0  0  0  0  0  0
  -12.3507   14.3528    0.0000 H   0  0  0  0  0  0  0  0  0  0  0  0
  -12.6863   12.4537    0.0000 H   0  0  0  0  0  0  0  0  0  0  0  0
  -14.1627   15.0128    0.0000 C   0  0  0  0  0  0  0  0  0  0  0  0
  -14.1627   16.5128    0.0000 H   0  0  0  0  0  0  0  0  0  0  0  0
  -12.6855   15.2732    0.0000 H   0  0  0  0  0  0  0  0  0  0  0  0
  -15.6408   15.2733    0.0000 O   0  0  0  0  0  0  0  0  0  0  0  0
  -16.6061   14.1241    0.0000 C   0  0  0  0  0  0  0  0  0  0  0  0
  -17.9054   13.3745    0.0000 H   0  0  0  0  0  0  0  0  0  0  0  0
  -17.5698   15.2736    0.0000 H   0  0  0  0  0  0  0  0  0  0  0  0
  -16.0934   12.7145    0.0000 C   0  0  0  0  0  0  0  0  0  0  0  0
  -16.0934   11.2145    0.0000 H   0  0  0  0  0  0  0  0  0  0  0  0
  -17.5706   12.4541    0.0000 H   0  0  0  0  0  0  0  0  0  0  0  0
  1  2  1  0  0  0  0 
  1  3  1  0  0  0  0 
  1  4  1  0  0  0  0 
  1  5  1  0  0  0  0 
  5  6  1  0  0  0  0 
  6  7  1  0  0  0  0 
  6  8  1  0  0  0  0 
  6  9  1  0  0  0  0 
  5 10  1  0  0  0  0 
 10 11  1  0  0  0  0 
 10 12  1  0  0  0  0 
 10 13  1  0  0  0  0 
 13 14  1  0  0  0  0 
 13 15  1  0  0  0  0 
 13 16  1  0  0  0  0 
 16 17  2  0  0  0  0 
 17 18  1  0  0  0  0 
  5 18  1  0  0  0  0 
 18 19  1  0  0  0  0 
 18 20  1  0  0  0  0 
 17 21  1  0  0  0  0 
 21 22  2  0  0  0  0 
 22 23  1  0  0  0  0 
 22 24  1  0  0  0  0 
 24 25  1  0  0  0  0 
 24 26  2  0  0  0  0 
 26 27  1  0  0  0  0 
 27 28  1  0  0  0  0 
 27 29  2  0  0  0  0 
 21 29  1  0  0  0  0 
 29 30  1  0  0  0  0 
 26 31  1  0  0  0  0 
 16 32  1  0  0  0  0 
 32 33  1  0  0  0  0 
 32 34  1  0  0  0  0 
 32 35  1  0  0  0  0 
 35 36  1  0  0  0  0 
 36 37  1  0  0  0  0 
 36 38  1  0  0  0  0 
 36 39  1  0  0  0  0 
 39 40  1  0  0  0  0 
 39 41  1  0  0  0  0 
 39 42  1  0  0  0  0 
 42 43  1  0  0  0  0 
 43 44  1  0  0  0  0 
 43 45  1  0  0  0  0 
 43 46  1  0  0  0  0 
 35 46  1  0  0  0  0 
 46 47  1  0  0  0  0 
 46 48  1  0  0  0  0 
 42 49  1  0  0  0  0 
 49 50  2  0  0  0  0 
 50 51  1  0  0  0  0 
 50 52  1  0  0  0  0 
 52 53  1  0  0  0  0 
 52 54  2  0  0  0  0 
 54 55  1  0  0  0  0 
 55 56  2  0  0  0  0 
 49 56  1  0  0  0  0 
 56 57  1  0  0  0  0 
 55 58  1  0  0  0  0 
 58 59  1  0  0  0  0 
 59 60  2  0  0  0  0 
 60 61  1  0  0  0  0 
 60 62  1  0  0  0  0 
 62 63  2  0  0  0  0 
 63 64  1  0  0  0  0 
 64 65  1  0  0  0  0 
 64 66  1  0  0  0  0 
 66 67  1  0  0  0  0 
 66 68  2  0  0  0  0 
 62 68  1  0  0  0  0 
 68 69  1  0  0  0  0 
 63 70  1  0  0  0  0 
 70 71  2  0  0  0  0 
 59 71  1  0  0  0  0 
 71 72  1  0  0  0  0 
 54 73  1  0  0  0  0 
 73 74  2  0  0  0  0 
 73 75  1  0  0  0  0 
 75 76  1  0  0  0  0 
 75 77  1  0  0  0  0 
 77 78  2  0  0  0  0 
 77 79  2  0  0  0  0 
 77 80  2  0  0  0  0 
 77 81  1  0  0  0  0 
 81 82  2  0  0  0  0 
 82 83  1  0  0  0  0 
 82 84  1  0  0  0  0 
 84 85  1  0  0  0  0 
 84 86  2  0  0  0  0 
 86 87  1  0  0  0  0 
 87 88  2  0  0  0  0 
 81 88  1  0  0  0  0 
 88 89  1  0  0  0  0 
 87 90  1  0  0  0  0 
 90 91  2  0  0  0  0 
 90 92  1  0  0  0  0 
 86 93  1  0  0  0  0 
 93 94  1  0  0  0  0 
 93 95  1  0  0  0  0 
 95 96  1  0  0  0  0 
 95 97  1  0  0  0  0 
 95 98  1  0  0  0  0 
 98 99  1  0  0  0  0 
 98100  1  0  0  0  0 
100101  1  0  0  0  0 
100102  1  0  0  0  0 
100103  1  0  0  0  0 
103104  1  0  0  0  0 
103105  1  0  0  0  0 
103106  1  0  0  0  0 
106107  1  0  0  0  0 
107108  1  0  0  0  0 
107109  1  0  0  0  0 
107110  1  0  0  0  0 
 98110  1  0  0  0  0 
110111  1  0  0  0  0 
110112  1  0  0  0  0 
M  CHG  1  90   1
M  CHG  1  92  -1
M  END
> <Rank>
48

> <Priority_score>
0.072

> <Reaction_type>
S-oxidation

> <Parent_ID>
12

> <Parent_InChI>
InChI=1S/C45H50ClN7O7S/c1-45(2)15-11-33(39(26-45)31-3-5-34(46)6-4-31)29-51-17-19-52(20-18-51)35-7-9-38(42(24-35)60-36-23-32-12-16-47-43(32)49-28-36)44(54)50-61(57,58)37-8-10-40(41(25-37)53(55)56)48-27-30-13-21-59-22-14-30/h3-10,12,16,23-25,28,30,48H,11,13-15,17-22,26-27,29H2,1-2H3,(H,47,49)(H,50,54)

> <Parent_SMILES>
CC1(C)CCC(CN2CCN(c3ccc(C(=O)NS(=O)(=O)c4ccc(NCC5CCOCC5)c([N+](=O)[O-])c4)c(Oc4cnc5[nH]ccc5c4)c3)CC2)=C(c2ccc(Cl)cc2)C1

$$$$
Molecule 12_metabolite 49
  CDK     0516241031

132140  0  0  0  0  0  0  0  0999 V2000
   -1.5610  -13.2021    0.0000 C   0  0  0  0  0  0  0  0  0  0  0  0
   -2.5253  -14.3511    0.0000 H   0  0  0  0  0  0  0  0  0  0  0  0
   -1.0479  -11.7926    0.0000 H   0  0  0  0  0  0  0  0  0  0  0  0
   -2.8600  -12.4520    0.0000 H   0  0  0  0  0  0  0  0  0  0  0  0
    1.3343  -13.7128    0.0000 C   0  0  0  0  0  0  0  0  0  0  0  0
    0.4930  -16.0245    0.0000 C   0  0  0  0  0  0  0  0  0  0  0  0
    1.4573  -17.1735    0.0000 H   0  0  0  0  0  0  0  0  0  0  0  0
   -0.4711  -17.1736    0.0000 H   0  0  0  0  0  0  0  0  0  0  0  0
   -0.8061  -15.2745    0.0000 H   0  0  0  0  0  0  0  0  0  0  0  0
    1.3345  -12.2119    0.0000 C   0  0  0  0  0  0  0  0  0  0  0  0
    0.8211  -10.8025    0.0000 H   0  0  0  0  0  0  0  0  0  0  0  0
   -0.1427  -12.4725    0.0000 H   0  0  0  0  0  0  0  0  0  0  0  0
    2.6339  -11.4609    0.0000 C   0  0  0  0  0  0  0  0  0  0  0  0
    3.5978  -10.3116    0.0000 H   0  0  0  0  0  0  0  0  0  0  0  0
    1.6693  -10.3122    0.0000 H   0  0  0  0  0  0  0  0  0  0  0  0
    3.9331  -12.2107    0.0000 C   0  0  0  0  0  0  0  0  0  0  0  0
    3.9328  -13.7115    0.0000 C   0  0  0  0  0  0  0  0  0  0  0  0
    2.6334  -14.4626    0.0000 C   0  0  0  0  0  0  0  0  0  0  0  0
    1.6696  -15.6119    0.0000 H   0  0  0  0  0  0  0  0  0  0  0  0
    3.5980  -15.6113    0.0000 H   0  0  0  0  0  0  0  0  0  0  0  0
    5.2320  -14.4613    0.0000 C   0  0  0  0  0  0  0  0  0  0  0  0
    5.2343  -15.9449    0.0000 C   0  0  0  0  0  0  0  0  0  0  0  0
    3.9340  -16.6927    0.0000 H   0  0  0  0  0  0  0  0  0  0  0  0
    6.5297  -16.7012    0.0000 C   0  0  0  0  0  0  0  0  0  0  0  0
    6.5132  -18.2011    0.0000 H   0  0  0  0  0  0  0  0  0  0  0  0
    7.8314  -15.9790    0.0000 C   0  0  0  0  0  0  0  0  0  0  0  0
    7.8356  -14.4645    0.0000 C   0  0  0  0  0  0  0  0  0  0  0  0
    9.1374  -13.7195    0.0000 H   0  0  0  0  0  0  0  0  0  0  0  0
    6.5402  -13.7082    0.0000 C   0  0  0  0  0  0  0  0  0  0  0  0
    6.5448  -12.2082    0.0000 H   0  0  0  0  0  0  0  0  0  0  0  0
    9.1229  -16.7418    0.0000 Cl  0  0  0  0  0  0  0  0  0  0  0  0
    5.2321  -11.4607    0.0000 C   0  0  0  0  0  0  0  0  0  0  0  0
    5.7451  -12.8702    0.0000 H   0  0  0  0  0  0  0  0  0  0  0  0
    6.7093  -11.2002    0.0000 H   0  0  0  0  0  0  0  0  0  0  0  0
    5.2321   -8.5207    0.0000 N   0  0  0  0  0  0  0  0  0  0  0  0
    3.9325   -7.7701    0.0000 C   0  0  0  0  0  0  0  0  0  0  0  0
    3.4195   -9.1796    0.0000 H   0  0  0  0  0  0  0  0  0  0  0  0
    2.4552   -7.5100    0.0000 H   0  0  0  0  0  0  0  0  0  0  0  0
    3.9317   -6.2692    0.0000 C   0  0  0  0  0  0  0  0  0  0  0  0
    2.4546   -6.5303    0.0000 H   0  0  0  0  0  0  0  0  0  0  0  0
    3.4183   -4.8598    0.0000 H   0  0  0  0  0  0  0  0  0  0  0  0
    5.2307   -5.5190    0.0000 N   0  0  0  0  0  0  0  0  0  0  0  0
    6.5303   -6.2697    0.0000 C   0  0  0  0  0  0  0  0  0  0  0  0
    7.0433   -4.8601    0.0000 H   0  0  0  0  0  0  0  0  0  0  0  0
    8.0076   -6.5297    0.0000 H   0  0  0  0  0  0  0  0  0  0  0  0
    6.5310   -7.7705    0.0000 C   0  0  0  0  0  0  0  0  0  0  0  0
    8.0081   -7.5095    0.0000 H   0  0  0  0  0  0  0  0  0  0  0  0
    7.2087   -9.6309    0.0000 H   0  0  0  0  0  0  0  0  0  0  0  0
    5.2307   -4.0190    0.0000 C   0  0  0  0  0  0  0  0  0  0  0  0
    6.5303   -3.2684    0.0000 C   0  0  0  0  0  0  0  0  0  0  0  0
    7.8292   -4.0186    0.0000 H   0  0  0  0  0  0  0  0  0  0  0  0
    6.5310   -1.7676    0.0000 C   0  0  0  0  0  0  0  0  0  0  0  0
    7.8303   -1.0180    0.0000 H   0  0  0  0  0  0  0  0  0  0  0  0
    5.2321   -1.0174    0.0000 C   0  0  0  0  0  0  0  0  0  0  0  0
    3.9325   -1.7680    0.0000 C   0  0  0  0  0  0  0  0  0  0  0  0
    3.9317   -3.2688    0.0000 C   0  0  0  0  0  0  0  0  0  0  0  0
    2.6325   -4.0184    0.0000 H   0  0  0  0  0  0  0  0  0  0  0  0
    1.8022   -0.5376    0.0000 O   0  0  0  0  0  0  0  0  0  0  0  0
    0.5031   -1.2874    0.0000 C   0  0  0  0  0  0  0  0  0  0  0  0
    0.5026   -2.7883    0.0000 C   0  0  0  0  0  0  0  0  0  0  0  0
    1.8016   -3.5383    0.0000 H   0  0  0  0  0  0  0  0  0  0  0  0
   -0.7969   -3.5391    0.0000 C   0  0  0  0  0  0  0  0  0  0  0  0
   -2.0960   -2.7891    0.0000 C   0  0  0  0  0  0  0  0  0  0  0  0
   -3.2093   -3.7975    0.0000 N   0  0  0  0  0  0  0  0  0  0  0  0
   -4.6769   -3.4875    0.0000 H   0  0  0  0  0  0  0  0  0  0  0  0
   -2.6014   -5.1646    0.0000 C   0  0  0  0  0  0  0  0  0  0  0  0
   -3.3514   -6.4637    0.0000 H   0  0  0  0  0  0  0  0  0  0  0  0
   -1.1135   -5.0075    0.0000 C   0  0  0  0  0  0  0  0  0  0  0  0
   -0.1112   -6.1235    0.0000 H   0  0  0  0  0  0  0  0  0  0  0  0
   -2.0955   -1.2883    0.0000 N   0  0  0  0  0  0  0  0  0  0  0  0
   -0.7960   -0.5374    0.0000 C   0  0  0  0  0  0  0  0  0  0  0  0
   -0.7962    0.9626    0.0000 H   0  0  0  0  0  0  0  0  0  0  0  0
   -3.3945   -0.5383    0.0000 C   0  0  0  0  0  0  0  0  0  0  0  0
   -3.9077   -1.9478    0.0000 H   0  0  0  0  0  0  0  0  0  0  0  0
   -4.8717   -0.2775    0.0000 C   0  0  0  0  0  0  0  0  0  0  0  0
   -4.8722   -1.7775    0.0000 H   0  0  0  0  0  0  0  0  0  0  0  0
   -5.3842    1.1331    0.0000 C   0  0  0  0  0  0  0  0  0  0  0  0
   -6.6835    0.3835    0.0000 H   0  0  0  0  0  0  0  0  0  0  0  0
   -4.4196    2.2829    0.0000 C   0  0  0  0  0  0  0  0  0  0  0  0
   -5.7187    3.0329    0.0000 H   0  0  0  0  0  0  0  0  0  0  0  0
   -2.9425    2.0221    0.0000 C   0  0  0  0  0  0  0  0  0  0  0  0
   -2.9420    3.5221    0.0000 H   0  0  0  0  0  0  0  0  0  0  0  0
   -0.9924    2.3651    0.0000 C   0  0  0  0  0  0  0  0  0  0  0  0
   -0.0287    1.2156    0.0000 O   0  0  0  0  0  0  0  0  0  0  0  0
   -0.4788    3.7744    0.0000 O   0  0  0  0  0  0  0  0  0  0  0  0
    0.9985    4.0343    0.0000 H   0  0  0  0  0  0  0  0  0  0  0  0
   -2.4299    0.6115    0.0000 O   0  0  0  0  0  0  0  0  0  0  0  0
   -3.9065    3.6924    0.0000 O   0  0  0  0  0  0  0  0  0  0  0  0
   -4.8705    4.8416    0.0000 H   0  0  0  0  0  0  0  0  0  0  0  0
   -6.3483    2.2823    0.0000 O   0  0  0  0  0  0  0  0  0  0  0  0
   -7.8255    2.0220    0.0000 H   0  0  0  0  0  0  0  0  0  0  0  0
   -6.3490   -0.5373    0.0000 O   0  0  0  0  0  0  0  0  0  0  0  0
   -6.8626   -1.9466    0.0000 H   0  0  0  0  0  0  0  0  0  0  0  0
    5.2321    0.4826    0.0000 C   0  0  0  0  0  0  0  0  0  0  0  0
    3.9331    1.2326    0.0000 O   0  0  0  0  0  0  0  0  0  0  0  0
    6.5311    1.2326    0.0000 N   0  0  0  0  0  0  0  0  0  0  0  0
    7.8302    0.4826    0.0000 H   0  0  0  0  0  0  0  0  0  0  0  0
    6.5311    2.7326    0.0000 S   0  0  0  0  0  0  0  0  0  0  0  0
    5.0539    2.4722    0.0000 O   0  0  0  0  0  0  0  0  0  0  0  0
    6.0181    4.1422    0.0000 O   0  0  0  0  0  0  0  0  0  0  0  0
    7.8302    3.4826    0.0000 C   0  0  0  0  0  0  0  0  0  0  0  0
    9.1301    2.7324    0.0000 C   0  0  0  0  0  0  0  0  0  0  0  0
    9.1298    1.2324    0.0000 H   0  0  0  0  0  0  0  0  0  0  0  0
   10.4302    3.4822    0.0000 C   0  0  0  0  0  0  0  0  0  0  0  0
   11.7290    2.7318    0.0000 H   0  0  0  0  0  0  0  0  0  0  0  0
   10.4304    4.9822    0.0000 C   0  0  0  0  0  0  0  0  0  0  0  0
    9.1305    5.7324    0.0000 C   0  0  0  0  0  0  0  0  0  0  0  0
    7.8304    4.9826    0.0000 C   0  0  0  0  0  0  0  0  0  0  0  0
    6.5316    5.7331    0.0000 H   0  0  0  0  0  0  0  0  0  0  0  0
    9.1308    7.2324    0.0000 N   0  0  0  0  0  0  0  0  0  0  0  0
   10.4299    7.9822    0.0000 O   0  0  0  0  0  0  0  0  0  0  0  0
    7.8319    7.9826    0.0000 O   0  0  0  0  0  0  0  0  0  0  0  0
   11.7295    5.7322    0.0000 N   0  0  0  0  0  0  0  0  0  0  0  0
   11.7295    7.2322    0.0000 H   0  0  0  0  0  0  0  0  0  0  0  0
   13.0285    4.9822    0.0000 C   0  0  0  0  0  0  0  0  0  0  0  0
   12.0643    3.8332    0.0000 H   0  0  0  0  0  0  0  0  0  0  0  0
   13.9927    3.8332    0.0000 H   0  0  0  0  0  0  0  0  0  0  0  0
   15.1589    6.2122    0.0000 C   0  0  0  0  0  0  0  0  0  0  0  0
   14.1945    7.3611    0.0000 H   0  0  0  0  0  0  0  0  0  0  0  0
   15.6719    4.8018    0.0000 C   0  0  0  0  0  0  0  0  0  0  0  0
   15.6719    3.3018    0.0000 H   0  0  0  0  0  0  0  0  0  0  0  0
   14.1947    4.5415    0.0000 H   0  0  0  0  0  0  0  0  0  0  0  0
   17.1492    4.5415    0.0000 C   0  0  0  0  0  0  0  0  0  0  0  0
   18.4484    3.7919    0.0000 H   0  0  0  0  0  0  0  0  0  0  0  0
   16.6364    3.1318    0.0000 H   0  0  0  0  0  0  0  0  0  0  0  0
   18.1134    5.6916    0.0000 O   0  0  0  0  0  0  0  0  0  0  0  0
   17.6004    7.1020    0.0000 C   0  0  0  0  0  0  0  0  0  0  0  0
   17.6004    8.6020    0.0000 H   0  0  0  0  0  0  0  0  0  0  0  0
   19.0776    7.3623    0.0000 H   0  0  0  0  0  0  0  0  0  0  0  0
   16.1231    7.3623    0.0000 C   0  0  0  0  0  0  0  0  0  0  0  0
   14.8239    8.1119    0.0000 H   0  0  0  0  0  0  0  0  0  0  0  0
   16.6359    8.7720    0.0000 H   0  0  0  0  0  0  0  0  0  0  0  0
  1  2  1  0  0  0  0 
  1  3  1  0  0  0  0 
  1  4  1  0  0  0  0 
  1  5  1  0  0  0  0 
  5  6  1  0  0  0  0 
  6  7  1  0  0  0  0 
  6  8  1  0  0  0  0 
  6  9  1  0  0  0  0 
  5 10  1  0  0  0  0 
 10 11  1  0  0  0  0 
 10 12  1  0  0  0  0 
 10 13  1  0  0  0  0 
 13 14  1  0  0  0  0 
 13 15  1  0  0  0  0 
 13 16  1  0  0  0  0 
 16 17  2  0  0  0  0 
 17 18  1  0  0  0  0 
  5 18  1  0  0  0  0 
 18 19  1  0  0  0  0 
 18 20  1  0  0  0  0 
 17 21  1  0  0  0  0 
 21 22  2  0  0  0  0 
 22 23  1  0  0  0  0 
 22 24  1  0  0  0  0 
 24 25  1  0  0  0  0 
 24 26  2  0  0  0  0 
 26 27  1  0  0  0  0 
 27 28  1  0  0  0  0 
 27 29  2  0  0  0  0 
 21 29  1  0  0  0  0 
 29 30  1  0  0  0  0 
 26 31  1  0  0  0  0 
 16 32  1  0  0  0  0 
 32 33  1  0  0  0  0 
 32 34  1  0  0  0  0 
 32 35  1  0  0  0  0 
 35 36  1  0  0  0  0 
 36 37  1  0  0  0  0 
 36 38  1  0  0  0  0 
 36 39  1  0  0  0  0 
 39 40  1  0  0  0  0 
 39 41  1  0  0  0  0 
 39 42  1  0  0  0  0 
 42 43  1  0  0  0  0 
 43 44  1  0  0  0  0 
 43 45  1  0  0  0  0 
 43 46  1  0  0  0  0 
 35 46  1  0  0  0  0 
 46 47  1  0  0  0  0 
 46 48  1  0  0  0  0 
 42 49  1  0  0  0  0 
 49 50  2  0  0  0  0 
 50 51  1  0  0  0  0 
 50 52  1  0  0  0  0 
 52 53  1  0  0  0  0 
 52 54  2  0  0  0  0 
 54 55  1  0  0  0  0 
 55 56  2  0  0  0  0 
 49 56  1  0  0  0  0 
 56 57  1  0  0  0  0 
 55 58  1  0  0  0  0 
 58 59  1  0  0  0  0 
 59 60  2  0  0  0  0 
 60 61  1  0  0  0  0 
 60 62  1  0  0  0  0 
 62 63  2  0  0  0  0 
 63 64  1  0  0  0  0 
 64 65  1  0  0  0  0 
 64 66  1  0  0  0  0 
 66 67  1  0  0  0  0 
 66 68  2  0  0  0  0 
 62 68  1  0  0  0  0 
 68 69  1  0  0  0  0 
 63 70  1  0  0  0  0 
 70 71  2  0  0  0  0 
 59 71  1  0  0  0  0 
 71 72  1  0  0  0  0 
 70 73  1  0  0  0  0 
 73 74  1  0  0  0  0 
 73 75  1  0  0  0  0 
 75 76  1  0  0  0  0 
 75 77  1  0  0  0  0 
 77 78  1  0  0  0  0 
 77 79  1  0  0  0  0 
 79 80  1  0  0  0  0 
 79 81  1  0  0  0  0 
 81 82  1  0  0  0  0 
 81 83  1  0  0  0  0 
 83 84  2  0  0  0  0 
 83 85  1  0  0  0  0 
 85 86  1  0  0  0  0 
 81 87  1  0  0  0  0 
 73 87  1  0  0  0  0 
 79 88  1  0  0  0  0 
 88 89  1  0  0  0  0 
 77 90  1  0  0  0  0 
 90 91  1  0  0  0  0 
 75 92  1  0  0  0  0 
 92 93  1  0  0  0  0 
 54 94  1  0  0  0  0 
 94 95  2  0  0  0  0 
 94 96  1  0  0  0  0 
 96 97  1  0  0  0  0 
 96 98  1  0  0  0  0 
 98 99  2  0  0  0  0 
 98100  2  0  0  0  0 
 98101  1  0  0  0  0 
101102  2  0  0  0  0 
102103  1  0  0  0  0 
102104  1  0  0  0  0 
104105  1  0  0  0  0 
104106  2  0  0  0  0 
106107  1  0  0  0  0 
107108  2  0  0  0  0 
101108  1  0  0  0  0 
108109  1  0  0  0  0 
107110  1  0  0  0  0 
110111  2  0  0  0  0 
110112  1  0  0  0  0 
106113  1  0  0  0  0 
113114  1  0  0  0  0 
113115  1  0  0  0  0 
115116  1  0  0  0  0 
115117  1  0  0  0  0 
115118  1  0  0  0  0 
118119  1  0  0  0  0 
118120  1  0  0  0  0 
120121  1  0  0  0  0 
120122  1  0  0  0  0 
120123  1  0  0  0  0 
123124  1  0  0  0  0 
123125  1  0  0  0  0 
123126  1  0  0  0  0 
126127  1  0  0  0  0 
127128  1  0  0  0  0 
127129  1  0  0  0  0 
127130  1  0  0  0  0 
118130  1  0  0  0  0 
130131  1  0  0  0  0 
130132  1  0  0  0  0 
M  CHG  1  70   1
M  CHG  1 110   1
M  CHG  1 112  -1
M  END
> <Rank>
49

> <Priority_score>
0.06

> <Reaction_type>
N-glucuronidation_(aromatic_=n-)

> <Parent_ID>
12

> <Parent_InChI>
InChI=1S/C45H50ClN7O7S/c1-45(2)15-11-33(39(26-45)31-3-5-34(46)6-4-31)29-51-17-19-52(20-18-51)35-7-9-38(42(24-35)60-36-23-32-12-16-47-43(32)49-28-36)44(54)50-61(57,58)37-8-10-40(41(25-37)53(55)56)48-27-30-13-21-59-22-14-30/h3-10,12,16,23-25,28,30,48H,11,13-15,17-22,26-27,29H2,1-2H3,(H,47,49)(H,50,54)

> <Parent_SMILES>
CC1(C)CCC(CN2CCN(c3ccc(C(=O)NS(=O)(=O)c4ccc(NCC5CCOCC5)c([N+](=O)[O-])c4)c(Oc4cnc5[nH]ccc5c4)c3)CC2)=C(c2ccc(Cl)cc2)C1

$$$$
Molecule 12_metabolite 50
  CDK     0516241031

112119  0  0  0  0  0  0  0  0999 V2000
    4.0755   19.0737    0.0000 C   0  0  0  0  0  0  0  0  0  0  0  0
    2.5982   18.8136    0.0000 H   0  0  0  0  0  0  0  0  0  0  0  0
    5.3747   19.8233    0.0000 H   0  0  0  0  0  0  0  0  0  0  0  0
    3.5628   20.4833    0.0000 H   0  0  0  0  0  0  0  0  0  0  0  0
    5.6562   17.1888    0.0000 C   0  0  0  0  0  0  0  0  0  0  0  0
    7.2382   19.0726    0.0000 C   0  0  0  0  0  0  0  0  0  0  0  0
    6.7257   20.4824    0.0000 H   0  0  0  0  0  0  0  0  0  0  0  0
    8.5375   19.8222    0.0000 H   0  0  0  0  0  0  0  0  0  0  0  0
    8.2019   17.9232    0.0000 H   0  0  0  0  0  0  0  0  0  0  0  0
    4.3563   16.4386    0.0000 C   0  0  0  0  0  0  0  0  0  0  0  0
    2.8790   16.1789    0.0000 H   0  0  0  0  0  0  0  0  0  0  0  0
    3.8438   17.8483    0.0000 H   0  0  0  0  0  0  0  0  0  0  0  0
    4.3551   14.9377    0.0000 C   0  0  0  0  0  0  0  0  0  0  0  0
    3.6768   13.0775    0.0000 H   0  0  0  0  0  0  0  0  0  0  0  0
    2.8781   15.1992    0.0000 H   0  0  0  0  0  0  0  0  0  0  0  0
    5.6538   14.1871    0.0000 C   0  0  0  0  0  0  0  0  0  0  0  0
    6.9537   14.9373    0.0000 C   0  0  0  0  0  0  0  0  0  0  0  0
    6.9549   16.4381    0.0000 C   0  0  0  0  0  0  0  0  0  0  0  0
    7.4688   17.8474    0.0000 H   0  0  0  0  0  0  0  0  0  0  0  0
    8.4319   16.1766    0.0000 H   0  0  0  0  0  0  0  0  0  0  0  0
    8.2524   14.1867    0.0000 C   0  0  0  0  0  0  0  0  0  0  0  0
    9.5386   14.9260    0.0000 C   0  0  0  0  0  0  0  0  0  0  0  0
    9.5365   16.4260    0.0000 H   0  0  0  0  0  0  0  0  0  0  0  0
   10.8410   14.1819    0.0000 C   0  0  0  0  0  0  0  0  0  0  0  0
   12.1320   14.9457    0.0000 H   0  0  0  0  0  0  0  0  0  0  0  0
   10.8659   12.6935    0.0000 C   0  0  0  0  0  0  0  0  0  0  0  0
    9.5562   11.9331    0.0000 C   0  0  0  0  0  0  0  0  0  0  0  0
    9.5614   10.4331    0.0000 H   0  0  0  0  0  0  0  0  0  0  0  0
    8.2538   12.6772    0.0000 C   0  0  0  0  0  0  0  0  0  0  0  0
    6.9568   11.9236    0.0000 H   0  0  0  0  0  0  0  0  0  0  0  0
   12.1721   11.9560    0.0000 Cl  0  0  0  0  0  0  0  0  0  0  0  0
    5.6533   12.6871    0.0000 C   0  0  0  0  0  0  0  0  0  0  0  0
    7.1306   12.9471    0.0000 H   0  0  0  0  0  0  0  0  0  0  0  0
    6.1659   11.2774    0.0000 H   0  0  0  0  0  0  0  0  0  0  0  0
    3.1068   11.2179    0.0000 N   0  0  0  0  0  0  0  0  0  0  0  0
    3.1060    9.7171    0.0000 C   0  0  0  0  0  0  0  0  0  0  0  0
    4.5833    9.9772    0.0000 H   0  0  0  0  0  0  0  0  0  0  0  0
    3.6190    8.3075    0.0000 H   0  0  0  0  0  0  0  0  0  0  0  0
    1.8064    8.9665    0.0000 C   0  0  0  0  0  0  0  0  0  0  0  0
    2.7706    7.8174    0.0000 H   0  0  0  0  0  0  0  0  0  0  0  0
    0.8422    7.8174    0.0000 H   0  0  0  0  0  0  0  0  0  0  0  0
    0.5075    9.7167    0.0000 N   0  0  0  0  0  0  0  0  0  0  0  0
    0.5082   11.2175    0.0000 C   0  0  0  0  0  0  0  0  0  0  0  0
   -0.9691   10.9574    0.0000 H   0  0  0  0  0  0  0  0  0  0  0  0
   -0.0048   12.6271    0.0000 H   0  0  0  0  0  0  0  0  0  0  0  0
    1.8078   11.9681    0.0000 C   0  0  0  0  0  0  0  0  0  0  0  0
    0.8436   13.1171    0.0000 H   0  0  0  0  0  0  0  0  0  0  0  0
    2.7721   13.1171    0.0000 H   0  0  0  0  0  0  0  0  0  0  0  0
   -0.7918    8.9671    0.0000 C   0  0  0  0  0  0  0  0  0  0  0  0
   -2.0914    9.7177    0.0000 C   0  0  0  0  0  0  0  0  0  0  0  0
   -2.0907   11.2177    0.0000 H   0  0  0  0  0  0  0  0  0  0  0  0
   -3.3918    8.9683    0.0000 C   0  0  0  0  0  0  0  0  0  0  0  0
   -4.6904    9.7192    0.0000 H   0  0  0  0  0  0  0  0  0  0  0  0
   -3.3925    7.4683    0.0000 C   0  0  0  0  0  0  0  0  0  0  0  0
   -2.0929    6.7177    0.0000 C   0  0  0  0  0  0  0  0  0  0  0  0
   -0.7925    7.4671    0.0000 C   0  0  0  0  0  0  0  0  0  0  0  0
    0.5060    6.7162    0.0000 H   0  0  0  0  0  0  0  0  0  0  0  0
   -2.0941    4.2577    0.0000 O   0  0  0  0  0  0  0  0  0  0  0  0
   -0.7954    3.5071    0.0000 C   0  0  0  0  0  0  0  0  0  0  0  0
   -0.7959    2.0062    0.0000 C   0  0  0  0  0  0  0  0  0  0  0  0
   -2.0954    1.2571    0.0000 H   0  0  0  0  0  0  0  0  0  0  0  0
    0.5032    1.2546    0.0000 C   0  0  0  0  0  0  0  0  0  0  0  0
    1.8027    2.0037    0.0000 C   0  0  0  0  0  0  0  0  0  0  0  0
    2.9154    0.9946    0.0000 N   0  0  0  0  0  0  0  0  0  0  0  0
    4.3832    1.3037    0.0000 H   0  0  0  0  0  0  0  0  0  0  0  0
    2.3066   -0.3721    0.0000 C   0  0  0  0  0  0  0  0  0  0  0  0
    3.0558   -1.6716    0.0000 H   0  0  0  0  0  0  0  0  0  0  0  0
    0.8189   -0.2140    0.0000 C   0  0  0  0  0  0  0  0  0  0  0  0
   -0.1842   -1.3293    0.0000 H   0  0  0  0  0  0  0  0  0  0  0  0
    1.8032    3.5046    0.0000 N   0  0  0  0  0  0  0  0  0  0  0  0
    0.5041    4.2562    0.0000 C   0  0  0  0  0  0  0  0  0  0  0  0
    0.5053    5.7562    0.0000 H   0  0  0  0  0  0  0  0  0  0  0  0
    3.1027    4.2537    0.0000 O   0  0  0  0  0  0  0  0  0  0  0  0
   -4.6918    6.7187    0.0000 C   0  0  0  0  0  0  0  0  0  0  0  0
   -4.6923    5.2187    0.0000 O   0  0  0  0  0  0  0  0  0  0  0  0
   -5.9906    7.4692    0.0000 N   0  0  0  0  0  0  0  0  0  0  0  0
   -5.9901    8.9692    0.0000 H   0  0  0  0  0  0  0  0  0  0  0  0
   -7.2899    6.7196    0.0000 S   0  0  0  0  0  0  0  0  0  0  0  0
   -6.3261    5.5702    0.0000 O   0  0  0  0  0  0  0  0  0  0  0  0
   -8.2544    5.5708    0.0000 O   0  0  0  0  0  0  0  0  0  0  0  0
   -8.5887    7.4700    0.0000 C   0  0  0  0  0  0  0  0  0  0  0  0
   -8.5884    8.9708    0.0000 C   0  0  0  0  0  0  0  0  0  0  0  0
   -7.2890    9.7202    0.0000 H   0  0  0  0  0  0  0  0  0  0  0  0
   -9.8876    9.7223    0.0000 C   0  0  0  0  0  0  0  0  0  0  0  0
   -9.8866   11.2223    0.0000 H   0  0  0  0  0  0  0  0  0  0  0  0
  -11.1870    8.9729    0.0000 C   0  0  0  0  0  0  0  0  0  0  0  0
  -11.1872    7.4721    0.0000 C   0  0  0  0  0  0  0  0  0  0  0  0
   -9.8881    6.7206    0.0000 C   0  0  0  0  0  0  0  0  0  0  0  0
   -9.8890    5.2206    0.0000 H   0  0  0  0  0  0  0  0  0  0  0  0
  -12.4866    6.7227    0.0000 N   0  0  0  0  0  0  0  0  0  0  0  0
  -13.7853    7.4733    0.0000 O   0  0  0  0  0  0  0  0  0  0  0  0
  -12.4874    5.2227    0.0000 O   0  0  0  0  0  0  0  0  0  0  0  0
  -12.4858    9.7233    0.0000 N   0  0  0  0  0  0  0  0  0  0  0  0
  -13.7851    8.9737    0.0000 H   0  0  0  0  0  0  0  0  0  0  0  0
  -12.4853   11.2233    0.0000 C   0  0  0  0  0  0  0  0  0  0  0  0
  -11.0082   10.9624    0.0000 H   0  0  0  0  0  0  0  0  0  0  0  0
  -11.9718   12.6327    0.0000 H   0  0  0  0  0  0  0  0  0  0  0  0
  -14.6153   12.4540    0.0000 C   0  0  0  0  0  0  0  0  0  0  0  0
  -15.1285   11.0445    0.0000 H   0  0  0  0  0  0  0  0  0  0  0  0
  -13.6500   13.6032    0.0000 C   0  0  0  0  0  0  0  0  0  0  0  0
  -12.3507   14.3528    0.0000 H   0  0  0  0  0  0  0  0  0  0  0  0
  -12.6863   12.4537    0.0000 H   0  0  0  0  0  0  0  0  0  0  0  0
  -14.1627   15.0128    0.0000 C   0  0  0  0  0  0  0  0  0  0  0  0
  -14.1627   16.5128    0.0000 H   0  0  0  0  0  0  0  0  0  0  0  0
  -12.6855   15.2732    0.0000 H   0  0  0  0  0  0  0  0  0  0  0  0
  -15.6408   15.2733    0.0000 O   0  0  0  0  0  0  0  0  0  0  0  0
  -16.6061   14.1241    0.0000 C   0  0  0  0  0  0  0  0  0  0  0  0
  -17.9054   13.3745    0.0000 H   0  0  0  0  0  0  0  0  0  0  0  0
  -17.5698   15.2736    0.0000 H   0  0  0  0  0  0  0  0  0  0  0  0
  -16.0934   12.7145    0.0000 C   0  0  0  0  0  0  0  0  0  0  0  0
  -16.0934   11.2145    0.0000 H   0  0  0  0  0  0  0  0  0  0  0  0
  -17.5706   12.4541    0.0000 H   0  0  0  0  0  0  0  0  0  0  0  0
  1  2  1  0  0  0  0 
  1  3  1  0  0  0  0 
  1  4  1  0  0  0  0 
  1  5  1  0  0  0  0 
  5  6  1  0  0  0  0 
  6  7  1  0  0  0  0 
  6  8  1  0  0  0  0 
  6  9  1  0  0  0  0 
  5 10  1  0  0  0  0 
 10 11  1  0  0  0  0 
 10 12  1  0  0  0  0 
 10 13  1  0  0  0  0 
 13 14  1  0  0  0  0 
 13 15  1  0  0  0  0 
 13 16  1  0  0  0  0 
 16 17  2  0  0  0  0 
 17 18  1  0  0  0  0 
  5 18  1  0  0  0  0 
 18 19  1  0  0  0  0 
 18 20  1  0  0  0  0 
 17 21  1  0  0  0  0 
 21 22  2  0  0  0  0 
 22 23  1  0  0  0  0 
 22 24  1  0  0  0  0 
 24 25  1  0  0  0  0 
 24 26  2  0  0  0  0 
 26 27  1  0  0  0  0 
 27 28  1  0  0  0  0 
 27 29  2  0  0  0  0 
 21 29  1  0  0  0  0 
 29 30  1  0  0  0  0 
 26 31  1  0  0  0  0 
 16 32  1  0  0  0  0 
 32 33  1  0  0  0  0 
 32 34  1  0  0  0  0 
 32 35  1  0  0  0  0 
 35 36  1  0  0  0  0 
 36 37  1  0  0  0  0 
 36 38  1  0  0  0  0 
 36 39  1  0  0  0  0 
 39 40  1  0  0  0  0 
 39 41  1  0  0  0  0 
 39 42  1  0  0  0  0 
 42 43  1  0  0  0  0 
 43 44  1  0  0  0  0 
 43 45  1  0  0  0  0 
 43 46  1  0  0  0  0 
 35 46  1  0  0  0  0 
 46 47  1  0  0  0  0 
 46 48  1  0  0  0  0 
 42 49  1  0  0  0  0 
 49 50  2  0  0  0  0 
 50 51  1  0  0  0  0 
 50 52  1  0  0  0  0 
 52 53  1  0  0  0  0 
 52 54  2  0  0  0  0 
 54 55  1  0  0  0  0 
 55 56  2  0  0  0  0 
 49 56  1  0  0  0  0 
 56 57  1  0  0  0  0 
 55 58  1  0  0  0  0 
 58 59  1  0  0  0  0 
 59 60  2  0  0  0  0 
 60 61  1  0  0  0  0 
 60 62  1  0  0  0  0 
 62 63  2  0  0  0  0 
 63 64  1  0  0  0  0 
 64 65  1  0  0  0  0 
 64 66  1  0  0  0  0 
 66 67  1  0  0  0  0 
 66 68  2  0  0  0  0 
 62 68  1  0  0  0  0 
 68 69  1  0  0  0  0 
 63 70  1  0  0  0  0 
 70 71  2  0  0  0  0 
 59 71  1  0  0  0  0 
 71 72  1  0  0  0  0 
 70 73  1  0  0  0  0 
 54 74  1  0  0  0  0 
 74 75  2  0  0  0  0 
 74 76  1  0  0  0  0 
 76 77  1  0  0  0  0 
 76 78  1  0  0  0  0 
 78 79  2  0  0  0  0 
 78 80  2  0  0  0  0 
 78 81  1  0  0  0  0 
 81 82  2  0  0  0  0 
 82 83  1  0  0  0  0 
 82 84  1  0  0  0  0 
 84 85  1  0  0  0  0 
 84 86  2  0  0  0  0 
 86 87  1  0  0  0  0 
 87 88  2  0  0  0  0 
 81 88  1  0  0  0  0 
 88 89  1  0  0  0  0 
 87 90  1  0  0  0  0 
 90 91  2  0  0  0  0 
 90 92  1  0  0  0  0 
 86 93  1  0  0  0  0 
 93 94  1  0  0  0  0 
 93 95  1  0  0  0  0 
 95 96  1  0  0  0  0 
 95 97  1  0  0  0  0 
 95 98  1  0  0  0  0 
 98 99  1  0  0  0  0 
 98100  1  0  0  0  0 
100101  1  0  0  0  0 
100102  1  0  0  0  0 
100103  1  0  0  0  0 
103104  1  0  0  0  0 
103105  1  0  0  0  0 
103106  1  0  0  0  0 
106107  1  0  0  0  0 
107108  1  0  0  0  0 
107109  1  0  0  0  0 
107110  1  0  0  0  0 
 98110  1  0  0  0  0 
110111  1  0  0  0  0 
110112  1  0  0  0  0 
M  CHG  1  70   1
M  CHG  1  73  -1
M  CHG  1  90   1
M  CHG  1  92  -1
M  END
> <Rank>
50

> <Priority_score>
0.052

> <Reaction_type>
N-oxidation_(-N=)

> <Parent_ID>
12

> <Parent_InChI>
InChI=1S/C45H50ClN7O7S/c1-45(2)15-11-33(39(26-45)31-3-5-34(46)6-4-31)29-51-17-19-52(20-18-51)35-7-9-38(42(24-35)60-36-23-32-12-16-47-43(32)49-28-36)44(54)50-61(57,58)37-8-10-40(41(25-37)53(55)56)48-27-30-13-21-59-22-14-30/h3-10,12,16,23-25,28,30,48H,11,13-15,17-22,26-27,29H2,1-2H3,(H,47,49)(H,50,54)

> <Parent_SMILES>
CC1(C)CCC(CN2CCN(c3ccc(C(=O)NS(=O)(=O)c4ccc(NCC5CCOCC5)c([N+](=O)[O-])c4)c(Oc4cnc5[nH]ccc5c4)c3)CC2)=C(c2ccc(Cl)cc2)C1

$$$$
Molecule 12_metabolite 51
  CDK     0516241031

146153  0  0  0  0  0  0  0  0999 V2000
    4.0755   19.0737    0.0000 C   0  0  0  0  0  0  0  0  0  0  0  0
    4.5889   20.4831    0.0000 H   0  0  0  0  0  0  0  0  0  0  0  0
    3.1110   17.9248    0.0000 H   0  0  0  0  0  0  0  0  0  0  0  0
    2.7766   19.8240    0.0000 H   0  0  0  0  0  0  0  0  0  0  0  0
    5.9647   16.8210    0.0000 C   0  0  0  0  0  0  0  0  0  0  0  0
    7.5466   18.7049    0.0000 C   0  0  0  0  0  0  0  0  0  0  0  0
    9.0237   18.4438    0.0000 H   0  0  0  0  0  0  0  0  0  0  0  0
    8.0602   20.1142    0.0000 H   0  0  0  0  0  0  0  0  0  0  0  0
    6.2479   19.4553    0.0000 H   0  0  0  0  0  0  0  0  0  0  0  0
    4.6648   16.0708    0.0000 C   0  0  0  0  0  0  0  0  0  0  0  0
    3.1874   15.8112    0.0000 H   0  0  0  0  0  0  0  0  0  0  0  0
    4.1523   17.4805    0.0000 H   0  0  0  0  0  0  0  0  0  0  0  0
    4.6636   14.5699    0.0000 C   0  0  0  0  0  0  0  0  0  0  0  0
    3.9853   12.7097    0.0000 H   0  0  0  0  0  0  0  0  0  0  0  0
    3.1866   14.8314    0.0000 H   0  0  0  0  0  0  0  0  0  0  0  0
    5.9623   13.8193    0.0000 C   0  0  0  0  0  0  0  0  0  0  0  0
    7.2621   14.5695    0.0000 C   0  0  0  0  0  0  0  0  0  0  0  0
    7.2633   16.0704    0.0000 C   0  0  0  0  0  0  0  0  0  0  0  0
    7.7772   17.4796    0.0000 H   0  0  0  0  0  0  0  0  0  0  0  0
    8.7404   15.8089    0.0000 H   0  0  0  0  0  0  0  0  0  0  0  0
    8.5608   13.8189    0.0000 C   0  0  0  0  0  0  0  0  0  0  0  0
    9.8611   14.5685    0.0000 C   0  0  0  0  0  0  0  0  0  0  0  0
    9.8615   16.0685    0.0000 H   0  0  0  0  0  0  0  0  0  0  0  0
   11.1608   13.8181    0.0000 C   0  0  0  0  0  0  0  0  0  0  0  0
   12.4600   14.5679    0.0000 H   0  0  0  0  0  0  0  0  0  0  0  0
   11.1603   12.3181    0.0000 C   0  0  0  0  0  0  0  0  0  0  0  0
    9.8601   11.5685    0.0000 C   0  0  0  0  0  0  0  0  0  0  0  0
    9.8596   10.0685    0.0000 H   0  0  0  0  0  0  0  0  0  0  0  0
    8.5603   12.3189    0.0000 C   0  0  0  0  0  0  0  0  0  0  0  0
    7.2612   11.5691    0.0000 H   0  0  0  0  0  0  0  0  0  0  0  0
   12.4590   11.5674    0.0000 S   0  0  0  0  0  0  0  0  0  0  0  0
   13.7584   12.3168    0.0000 C   0  0  0  0  0  0  0  0  0  0  0  0
   12.7948   13.4663    0.0000 H   0  0  0  0  0  0  0  0  0  0  0  0
   14.7231   13.4654    0.0000 H   0  0  0  0  0  0  0  0  0  0  0  0
   15.0571   11.5662    0.0000 C   0  0  0  0  0  0  0  0  0  0  0  0
   16.0207   10.4167    0.0000 H   0  0  0  0  0  0  0  0  0  0  0  0
   14.0924   10.4176    0.0000 C   0  0  0  0  0  0  0  0  0  0  0  0
   12.6153   10.6788    0.0000 O   0  0  0  0  0  0  0  0  0  0  0  0
   14.6047    9.0078    0.0000 N   0  0  0  0  0  0  0  0  0  0  0  0
   16.0818    8.7466    0.0000 H   0  0  0  0  0  0  0  0  0  0  0  0
   13.6400    7.8592    0.0000 C   0  0  0  0  0  0  0  0  0  0  0  0
   12.6763    9.0087    0.0000 H   0  0  0  0  0  0  0  0  0  0  0  0
   12.3406    7.1098    0.0000 H   0  0  0  0  0  0  0  0  0  0  0  0
   14.1523    6.4494    0.0000 C   0  0  0  0  0  0  0  0  0  0  0  0
   15.6294    6.1882    0.0000 O   0  0  0  0  0  0  0  0  0  0  0  0
   13.1876    5.3008    0.0000 O   0  0  0  0  0  0  0  0  0  0  0  0
   13.6999    3.8910    0.0000 H   0  0  0  0  0  0  0  0  0  0  0  0
   16.3565   12.3156    0.0000 N   0  0  0  0  0  0  0  0  0  0  0  0
   16.3572   13.8156    0.0000 H   0  0  0  0  0  0  0  0  0  0  0  0
   17.6552   11.5649    0.0000 C   0  0  0  0  0  0  0  0  0  0  0  0
   17.6544   10.0649    0.0000 O   0  0  0  0  0  0  0  0  0  0  0  0
   18.9546   12.3143    0.0000 C   0  0  0  0  0  0  0  0  0  0  0  0
   17.9909   13.4638    0.0000 H   0  0  0  0  0  0  0  0  0  0  0  0
   19.9193   13.4629    0.0000 H   0  0  0  0  0  0  0  0  0  0  0  0
   21.5000   10.8431    0.0000 C   0  0  0  0  0  0  0  0  0  0  0  0
   22.4636    9.6936    0.0000 H   0  0  0  0  0  0  0  0  0  0  0  0
   20.5352    9.6945    0.0000 H   0  0  0  0  0  0  0  0  0  0  0  0
   22.7994   11.5925    0.0000 C   0  0  0  0  0  0  0  0  0  0  0  0
   21.8357   12.7420    0.0000 H   0  0  0  0  0  0  0  0  0  0  0  0
   24.0980   10.8418    0.0000 C   0  0  0  0  0  0  0  0  0  0  0  0
   24.0973    9.3418    0.0000 O   0  0  0  0  0  0  0  0  0  0  0  0
   25.3974   11.5912    0.0000 O   0  0  0  0  0  0  0  0  0  0  0  0
   26.6961   10.8406    0.0000 H   0  0  0  0  0  0  0  0  0  0  0  0
   23.7641   12.7411    0.0000 N   0  0  0  0  0  0  0  0  0  0  0  0
   25.2412   12.4799    0.0000 H   0  0  0  0  0  0  0  0  0  0  0  0
   23.2518   14.1509    0.0000 H   0  0  0  0  0  0  0  0  0  0  0  0
    5.9618   12.3193    0.0000 C   0  0  0  0  0  0  0  0  0  0  0  0
    7.4391   12.5793    0.0000 H   0  0  0  0  0  0  0  0  0  0  0  0
    6.4744   10.9096    0.0000 H   0  0  0  0  0  0  0  0  0  0  0  0
    3.4152   10.8501    0.0000 N   0  0  0  0  0  0  0  0  0  0  0  0
    3.4145    9.3493    0.0000 C   0  0  0  0  0  0  0  0  0  0  0  0
    4.8918    9.6094    0.0000 H   0  0  0  0  0  0  0  0  0  0  0  0
    3.9274    7.9397    0.0000 H   0  0  0  0  0  0  0  0  0  0  0  0
    2.1148    8.5987    0.0000 C   0  0  0  0  0  0  0  0  0  0  0  0
    3.0791    7.4497    0.0000 H   0  0  0  0  0  0  0  0  0  0  0  0
    1.1506    7.4497    0.0000 H   0  0  0  0  0  0  0  0  0  0  0  0
    0.8159    9.3489    0.0000 N   0  0  0  0  0  0  0  0  0  0  0  0
    0.8166   10.8497    0.0000 C   0  0  0  0  0  0  0  0  0  0  0  0
   -0.6606   10.5896    0.0000 H   0  0  0  0  0  0  0  0  0  0  0  0
    0.3037   12.2593    0.0000 H   0  0  0  0  0  0  0  0  0  0  0  0
    2.1163   11.6003    0.0000 C   0  0  0  0  0  0  0  0  0  0  0  0
    1.1520   12.7493    0.0000 H   0  0  0  0  0  0  0  0  0  0  0  0
    3.0805   12.7493    0.0000 H   0  0  0  0  0  0  0  0  0  0  0  0
   -0.4834    8.5993    0.0000 C   0  0  0  0  0  0  0  0  0  0  0  0
   -1.7830    9.3499    0.0000 C   0  0  0  0  0  0  0  0  0  0  0  0
   -1.7823   10.8499    0.0000 H   0  0  0  0  0  0  0  0  0  0  0  0
   -3.0834    8.6005    0.0000 C   0  0  0  0  0  0  0  0  0  0  0  0
   -4.3819    9.3514    0.0000 H   0  0  0  0  0  0  0  0  0  0  0  0
   -3.0841    7.1005    0.0000 C   0  0  0  0  0  0  0  0  0  0  0  0
   -1.7844    6.3499    0.0000 C   0  0  0  0  0  0  0  0  0  0  0  0
   -0.4841    7.0993    0.0000 C   0  0  0  0  0  0  0  0  0  0  0  0
    0.8145    6.3485    0.0000 H   0  0  0  0  0  0  0  0  0  0  0  0
   -1.7856    3.8899    0.0000 O   0  0  0  0  0  0  0  0  0  0  0  0
   -0.4869    3.1393    0.0000 C   0  0  0  0  0  0  0  0  0  0  0  0
   -0.4874    1.6385    0.0000 C   0  0  0  0  0  0  0  0  0  0  0  0
   -1.7869    0.8893    0.0000 H   0  0  0  0  0  0  0  0  0  0  0  0
    0.8116    0.8868    0.0000 C   0  0  0  0  0  0  0  0  0  0  0  0
    2.1111    1.6360    0.0000 C   0  0  0  0  0  0  0  0  0  0  0  0
    3.2239    0.6268    0.0000 N   0  0  0  0  0  0  0  0  0  0  0  0
    4.6917    0.9360    0.0000 H   0  0  0  0  0  0  0  0  0  0  0  0
    2.6151   -0.7399    0.0000 C   0  0  0  0  0  0  0  0  0  0  0  0
    3.3643   -2.0394    0.0000 H   0  0  0  0  0  0  0  0  0  0  0  0
    1.1273   -0.5818    0.0000 C   0  0  0  0  0  0  0  0  0  0  0  0
    0.1243   -1.6971    0.0000 H   0  0  0  0  0  0  0  0  0  0  0  0
    2.1116    3.1368    0.0000 N   0  0  0  0  0  0  0  0  0  0  0  0
    0.8126    3.8885    0.0000 C   0  0  0  0  0  0  0  0  0  0  0  0
    0.8138    5.3885    0.0000 H   0  0  0  0  0  0  0  0  0  0  0  0
   -4.3834    6.3510    0.0000 C   0  0  0  0  0  0  0  0  0  0  0  0
   -4.3838    4.8510    0.0000 O   0  0  0  0  0  0  0  0  0  0  0  0
   -5.6822    7.1014    0.0000 N   0  0  0  0  0  0  0  0  0  0  0  0
   -5.6817    8.6014    0.0000 H   0  0  0  0  0  0  0  0  0  0  0  0
   -6.9814    6.3518    0.0000 S   0  0  0  0  0  0  0  0  0  0  0  0
   -6.0176    5.2024    0.0000 O   0  0  0  0  0  0  0  0  0  0  0  0
   -7.9460    5.2030    0.0000 O   0  0  0  0  0  0  0  0  0  0  0  0
   -8.2802    7.1022    0.0000 C   0  0  0  0  0  0  0  0  0  0  0  0
   -8.2800    8.6030    0.0000 C   0  0  0  0  0  0  0  0  0  0  0  0
   -6.9806    9.3524    0.0000 H   0  0  0  0  0  0  0  0  0  0  0  0
   -9.5792    9.3545    0.0000 C   0  0  0  0  0  0  0  0  0  0  0  0
   -9.5782   10.8545    0.0000 H   0  0  0  0  0  0  0  0  0  0  0  0
  -10.8786    8.6051    0.0000 C   0  0  0  0  0  0  0  0  0  0  0  0
  -10.8788    7.1043    0.0000 C   0  0  0  0  0  0  0  0  0  0  0  0
   -9.5796    6.3528    0.0000 C   0  0  0  0  0  0  0  0  0  0  0  0
   -9.5806    4.8528    0.0000 H   0  0  0  0  0  0  0  0  0  0  0  0
  -12.1782    6.3549    0.0000 N   0  0  0  0  0  0  0  0  0  0  0  0
  -13.4769    7.1055    0.0000 O   0  0  0  0  0  0  0  0  0  0  0  0
  -12.1789    4.8549    0.0000 O   0  0  0  0  0  0  0  0  0  0  0  0
  -12.1774    9.3555    0.0000 N   0  0  0  0  0  0  0  0  0  0  0  0
  -13.4766    8.6060    0.0000 H   0  0  0  0  0  0  0  0  0  0  0  0
  -12.1769   10.8555    0.0000 C   0  0  0  0  0  0  0  0  0  0  0  0
  -10.6997   10.5946    0.0000 H   0  0  0  0  0  0  0  0  0  0  0  0
  -11.6634   12.2649    0.0000 H   0  0  0  0  0  0  0  0  0  0  0  0
  -14.3069   12.0862    0.0000 C   0  0  0  0  0  0  0  0  0  0  0  0
  -14.8201   10.6767    0.0000 H   0  0  0  0  0  0  0  0  0  0  0  0
  -13.3416   13.2354    0.0000 C   0  0  0  0  0  0  0  0  0  0  0  0
  -12.0423   13.9850    0.0000 H   0  0  0  0  0  0  0  0  0  0  0  0
  -12.3779   12.0859    0.0000 H   0  0  0  0  0  0  0  0  0  0  0  0
  -13.8543   14.6451    0.0000 C   0  0  0  0  0  0  0  0  0  0  0  0
  -13.8543   16.1451    0.0000 H   0  0  0  0  0  0  0  0  0  0  0  0
  -12.3771   14.9054    0.0000 H   0  0  0  0  0  0  0  0  0  0  0  0
  -15.3324   14.9055    0.0000 O   0  0  0  0  0  0  0  0  0  0  0  0
  -16.2977   13.7563    0.0000 C   0  0  0  0  0  0  0  0  0  0  0  0
  -17.5970   13.0067    0.0000 H   0  0  0  0  0  0  0  0  0  0  0  0
  -17.2614   14.9058    0.0000 H   0  0  0  0  0  0  0  0  0  0  0  0
  -15.7850   12.3467    0.0000 C   0  0  0  0  0  0  0  0  0  0  0  0
  -15.7850   10.8467    0.0000 H   0  0  0  0  0  0  0  0  0  0  0  0
  -17.2622   12.0864    0.0000 H   0  0  0  0  0  0  0  0  0  0  0  0
  1  2  1  0  0  0  0 
  1  3  1  0  0  0  0 
  1  4  1  0  0  0  0 
  1  5  1  0  0  0  0 
  5  6  1  0  0  0  0 
  6  7  1  0  0  0  0 
  6  8  1  0  0  0  0 
  6  9  1  0  0  0  0 
  5 10  1  0  0  0  0 
 10 11  1  0  0  0  0 
 10 12  1  0  0  0  0 
 10 13  1  0  0  0  0 
 13 14  1  0  0  0  0 
 13 15  1  0  0  0  0 
 13 16  1  0  0  0  0 
 16 17  2  0  0  0  0 
 17 18  1  0  0  0  0 
  5 18  1  0  0  0  0 
 18 19  1  0  0  0  0 
 18 20  1  0  0  0  0 
 17 21  1  0  0  0  0 
 21 22  2  0  0  0  0 
 22 23  1  0  0  0  0 
 22 24  1  0  0  0  0 
 24 25  1  0  0  0  0 
 24 26  2  0  0  0  0 
 26 27  1  0  0  0  0 
 27 28  1  0  0  0  0 
 27 29  2  0  0  0  0 
 21 29  1  0  0  0  0 
 29 30  1  0  0  0  0 
 26 31  1  0  0  0  0 
 31 32  1  0  0  0  0 
 32 33  1  0  0  0  0 
 32 34  1  0  0  0  0 
 32 35  1  0  0  0  0 
 35 36  1  0  0  0  0 
 35 37  1  0  0  0  0 
 37 38  2  0  0  0  0 
 37 39  1  0  0  0  0 
 39 40  1  0  0  0  0 
 39 41  1  0  0  0  0 
 41 42  1  0  0  0  0 
 41 43  1  0  0  0  0 
 41 44  1  0  0  0  0 
 44 45  2  0  0  0  0 
 44 46  1  0  0  0  0 
 46 47  1  0  0  0  0 
 35 48  1  0  0  0  0 
 48 49  1  0  0  0  0 
 48 50  1  0  0  0  0 
 50 51  2  0  0  0  0 
 50 52  1  0  0  0  0 
 52 53  1  0  0  0  0 
 52 54  1  0  0  0  0 
 52 55  1  0  0  0  0 
 55 56  1  0  0  0  0 
 55 57  1  0  0  0  0 
 55 58  1  0  0  0  0 
 58 59  1  0  0  0  0 
 58 60  1  0  0  0  0 
 60 61  2  0  0  0  0 
 60 62  1  0  0  0  0 
 62 63  1  0  0  0  0 
 58 64  1  0  0  0  0 
 64 65  1  0  0  0  0 
 64 66  1  0  0  0  0 
 16 67  1  0  0  0  0 
 67 68  1  0  0  0  0 
 67 69  1  0  0  0  0 
 67 70  1  0  0  0  0 
 70 71  1  0  0  0  0 
 71 72  1  0  0  0  0 
 71 73  1  0  0  0  0 
 71 74  1  0  0  0  0 
 74 75  1  0  0  0  0 
 74 76  1  0  0  0  0 
 74 77  1  0  0  0  0 
 77 78  1  0  0  0  0 
 78 79  1  0  0  0  0 
 78 80  1  0  0  0  0 
 78 81  1  0  0  0  0 
 70 81  1  0  0  0  0 
 81 82  1  0  0  0  0 
 81 83  1  0  0  0  0 
 77 84  1  0  0  0  0 
 84 85  2  0  0  0  0 
 85 86  1  0  0  0  0 
 85 87  1  0  0  0  0 
 87 88  1  0  0  0  0 
 87 89  2  0  0  0  0 
 89 90  1  0  0  0  0 
 90 91  2  0  0  0  0 
 84 91  1  0  0  0  0 
 91 92  1  0  0  0  0 
 90 93  1  0  0  0  0 
 93 94  1  0  0  0  0 
 94 95  2  0  0  0  0 
 95 96  1  0  0  0  0 
 95 97  1  0  0  0  0 
 97 98  2  0  0  0  0 
 98 99  1  0  0  0  0 
 99100  1  0  0  0  0 
 99101  1  0  0  0  0 
101102  1  0  0  0  0 
101103  2  0  0  0  0 
 97103  1  0  0  0  0 
103104  1  0  0  0  0 
 98105  1  0  0  0  0 
105106  2  0  0  0  0 
 94106  1  0  0  0  0 
106107  1  0  0  0  0 
 89108  1  0  0  0  0 
108109  2  0  0  0  0 
108110  1  0  0  0  0 
110111  1  0  0  0  0 
110112  1  0  0  0  0 
112113  2  0  0  0  0 
112114  2  0  0  0  0 
112115  1  0  0  0  0 
115116  2  0  0  0  0 
116117  1  0  0  0  0 
116118  1  0  0  0  0 
118119  1  0  0  0  0 
118120  2  0  0  0  0 
120121  1  0  0  0  0 
121122  2  0  0  0  0 
115122  1  0  0  0  0 
122123  1  0  0  0  0 
121124  1  0  0  0  0 
124125  2  0  0  0  0 
124126  1  0  0  0  0 
120127  1  0  0  0  0 
127128  1  0  0  0  0 
127129  1  0  0  0  0 
129130  1  0  0  0  0 
129131  1  0  0  0  0 
129132  1  0  0  0  0 
132133  1  0  0  0  0 
132134  1  0  0  0  0 
134135  1  0  0  0  0 
134136  1  0  0  0  0 
134137  1  0  0  0  0 
137138  1  0  0  0  0 
137139  1  0  0  0  0 
137140  1  0  0  0  0 
140141  1  0  0  0  0 
141142  1  0  0  0  0 
141143  1  0  0  0  0 
141144  1  0  0  0  0 
132144  1  0  0  0  0 
144145  1  0  0  0  0 
144146  1  0  0  0  0 
M  CHG  1 124   1
M  CHG  1 126  -1
M  END
> <Rank>
51

> <Priority_score>
0.04

> <Reaction_type>
glutathione_conjugation_(aromatic_nucleophilic_substitution)

> <Parent_ID>
12

> <Parent_InChI>
InChI=1S/C45H50ClN7O7S/c1-45(2)15-11-33(39(26-45)31-3-5-34(46)6-4-31)29-51-17-19-52(20-18-51)35-7-9-38(42(24-35)60-36-23-32-12-16-47-43(32)49-28-36)44(54)50-61(57,58)37-8-10-40(41(25-37)53(55)56)48-27-30-13-21-59-22-14-30/h3-10,12,16,23-25,28,30,48H,11,13-15,17-22,26-27,29H2,1-2H3,(H,47,49)(H,50,54)

> <Parent_SMILES>
CC1(C)CCC(CN2CCN(c3ccc(C(=O)NS(=O)(=O)c4ccc(NCC5CCOCC5)c([N+](=O)[O-])c4)c(Oc4cnc5[nH]ccc5c4)c3)CC2)=C(c2ccc(Cl)cc2)C1

$$$$
Molecule 12_metabolite 52
  CDK     0516241031

109116  0  0  0  0  0  0  0  0999 V2000
  -12.3975   -9.4372    0.0000 C   0  0  0  0  0  0  0  0  0  0  0  0
  -12.9100   -8.0275    0.0000 H   0  0  0  0  0  0  0  0  0  0  0  0
  -12.3980  -10.9372    0.0000 H   0  0  0  0  0  0  0  0  0  0  0  0
  -13.8748   -9.6971    0.0000 H   0  0  0  0  0  0  0  0  0  0  0  0
   -9.9750   -9.8653    0.0000 C   0  0  0  0  0  0  0  0  0  0  0  0
  -10.8170  -12.1767    0.0000 C   0  0  0  0  0  0  0  0  0  0  0  0
  -12.2943  -12.4368    0.0000 H   0  0  0  0  0  0  0  0  0  0  0  0
  -10.8174  -13.6767    0.0000 H   0  0  0  0  0  0  0  0  0  0  0  0
   -9.3398  -12.4376    0.0000 H   0  0  0  0  0  0  0  0  0  0  0  0
   -9.9743   -8.3645    0.0000 C   0  0  0  0  0  0  0  0  0  0  0  0
  -10.4872   -6.9549    0.0000 H   0  0  0  0  0  0  0  0  0  0  0  0
  -11.4516   -8.6245    0.0000 H   0  0  0  0  0  0  0  0  0  0  0  0
   -8.6746   -7.6138    0.0000 C   0  0  0  0  0  0  0  0  0  0  0  0
   -7.4018   -6.0971    0.0000 H   0  0  0  0  0  0  0  0  0  0  0  0
   -9.6389   -6.4648    0.0000 H   0  0  0  0  0  0  0  0  0  0  0  0
   -7.3757   -8.3640    0.0000 C   0  0  0  0  0  0  0  0  0  0  0  0
   -7.3764   -9.8649    0.0000 C   0  0  0  0  0  0  0  0  0  0  0  0
   -8.6761  -10.6155    0.0000 C   0  0  0  0  0  0  0  0  0  0  0  0
   -9.6403  -11.7645    0.0000 H   0  0  0  0  0  0  0  0  0  0  0  0
   -7.7118  -11.7645    0.0000 H   0  0  0  0  0  0  0  0  0  0  0  0
   -6.0775  -10.6151    0.0000 C   0  0  0  0  0  0  0  0  0  0  0  0
   -6.0757  -12.0986    0.0000 C   0  0  0  0  0  0  0  0  0  0  0  0
   -7.3762  -12.8461    0.0000 H   0  0  0  0  0  0  0  0  0  0  0  0
   -4.7806  -12.8554    0.0000 C   0  0  0  0  0  0  0  0  0  0  0  0
   -4.7975  -14.3553    0.0000 H   0  0  0  0  0  0  0  0  0  0  0  0
   -3.4786  -12.1336    0.0000 C   0  0  0  0  0  0  0  0  0  0  0  0
   -3.4740  -10.6191    0.0000 C   0  0  0  0  0  0  0  0  0  0  0  0
   -2.1718   -9.8745    0.0000 H   0  0  0  0  0  0  0  0  0  0  0  0
   -4.7691   -9.8624    0.0000 C   0  0  0  0  0  0  0  0  0  0  0  0
   -4.7640   -8.3624    0.0000 H   0  0  0  0  0  0  0  0  0  0  0  0
   -2.1873  -12.8968    0.0000 Cl  0  0  0  0  0  0  0  0  0  0  0  0
   -6.0764   -7.6145    0.0000 C   0  0  0  0  0  0  0  0  0  0  0  0
   -5.5639   -9.0242    0.0000 H   0  0  0  0  0  0  0  0  0  0  0  0
   -4.5992   -7.3545    0.0000 H   0  0  0  0  0  0  0  0  0  0  0  0
   -6.0755   -4.6745    0.0000 N   0  0  0  0  0  0  0  0  0  0  0  0
   -4.7756   -3.9243    0.0000 C   0  0  0  0  0  0  0  0  0  0  0  0
   -4.2631   -5.3340    0.0000 H   0  0  0  0  0  0  0  0  0  0  0  0
   -3.2983   -3.6647    0.0000 H   0  0  0  0  0  0  0  0  0  0  0  0
   -4.7744   -2.4234    0.0000 C   0  0  0  0  0  0  0  0  0  0  0  0
   -3.2974   -2.6849    0.0000 H   0  0  0  0  0  0  0  0  0  0  0  0
   -4.2606   -1.0142    0.0000 H   0  0  0  0  0  0  0  0  0  0  0  0
   -6.0731   -1.6728    0.0000 N   0  0  0  0  0  0  0  0  0  0  0  0
   -7.3730   -2.4230    0.0000 C   0  0  0  0  0  0  0  0  0  0  0  0
   -7.8855   -1.0133    0.0000 H   0  0  0  0  0  0  0  0  0  0  0  0
   -8.8503   -2.6826    0.0000 H   0  0  0  0  0  0  0  0  0  0  0  0
   -7.3742   -3.9238    0.0000 C   0  0  0  0  0  0  0  0  0  0  0  0
   -8.8512   -3.6623    0.0000 H   0  0  0  0  0  0  0  0  0  0  0  0
   -7.8880   -5.3331    0.0000 H   0  0  0  0  0  0  0  0  0  0  0  0
   -6.0726   -0.1728    0.0000 C   0  0  0  0  0  0  0  0  0  0  0  0
   -7.3720    0.5782    0.0000 C   0  0  0  0  0  0  0  0  0  0  0  0
   -8.6712   -0.1715    0.0000 H   0  0  0  0  0  0  0  0  0  0  0  0
   -7.3723    2.0791    0.0000 C   0  0  0  0  0  0  0  0  0  0  0  0
   -8.6713    2.8291    0.0000 H   0  0  0  0  0  0  0  0  0  0  0  0
   -6.0731    2.8289    0.0000 C   0  0  0  0  0  0  0  0  0  0  0  0
   -4.7737    2.0778    0.0000 C   0  0  0  0  0  0  0  0  0  0  0  0
   -4.7735    0.5770    0.0000 C   0  0  0  0  0  0  0  0  0  0  0  0
   -3.4744   -0.1730    0.0000 H   0  0  0  0  0  0  0  0  0  0  0  0
   -2.6431    3.3075    0.0000 O   0  0  0  0  0  0  0  0  0  0  0  0
   -1.3442    2.5573    0.0000 C   0  0  0  0  0  0  0  0  0  0  0  0
   -0.0442    3.3073    0.0000 C   0  0  0  0  0  0  0  0  0  0  0  0
   -0.0442    4.8073    0.0000 H   0  0  0  0  0  0  0  0  0  0  0  0
    1.2558    2.5573    0.0000 C   0  0  0  0  0  0  0  0  0  0  0  0
    1.2558    1.0573    0.0000 C   0  0  0  0  0  0  0  0  0  0  0  0
    2.6858    0.5973    0.0000 N   0  0  0  0  0  0  0  0  0  0  0  0
    3.1511   -0.8287    0.0000 H   0  0  0  0  0  0  0  0  0  0  0  0
    3.5658    1.8073    0.0000 C   0  0  0  0  0  0  0  0  0  0  0  0
    5.0658    1.8073    0.0000 H   0  0  0  0  0  0  0  0  0  0  0  0
    2.6858    3.0173    0.0000 C   0  0  0  0  0  0  0  0  0  0  0  0
    3.1511    4.4433    0.0000 H   0  0  0  0  0  0  0  0  0  0  0  0
   -0.0442    0.3073    0.0000 N   0  0  0  0  0  0  0  0  0  0  0  0
   -1.3442    1.0573    0.0000 C   0  0  0  0  0  0  0  0  0  0  0  0
   -2.6431    0.3071    0.0000 H   0  0  0  0  0  0  0  0  0  0  0  0
   -6.0726    4.3289    0.0000 C   0  0  0  0  0  0  0  0  0  0  0  0
   -4.7733    5.0785    0.0000 O   0  0  0  0  0  0  0  0  0  0  0  0
   -7.3714    5.0793    0.0000 N   0  0  0  0  0  0  0  0  0  0  0  0
   -8.6707    4.3297    0.0000 H   0  0  0  0  0  0  0  0  0  0  0  0
   -7.3709    6.5793    0.0000 S   0  0  0  0  0  0  0  0  0  0  0  0
   -5.8938    6.3183    0.0000 O   0  0  0  0  0  0  0  0  0  0  0  0
   -6.8575    7.9887    0.0000 O   0  0  0  0  0  0  0  0  0  0  0  0
   -8.6697    7.3297    0.0000 C   0  0  0  0  0  0  0  0  0  0  0  0
   -9.9699    6.5799    0.0000 C   0  0  0  0  0  0  0  0  0  0  0  0
   -9.9701    5.0799    0.0000 H   0  0  0  0  0  0  0  0  0  0  0  0
  -11.2697    7.3301    0.0000 C   0  0  0  0  0  0  0  0  0  0  0  0
  -12.5688    6.5801    0.0000 H   0  0  0  0  0  0  0  0  0  0  0  0
  -11.2695    8.8301    0.0000 C   0  0  0  0  0  0  0  0  0  0  0  0
   -9.9694    9.5799    0.0000 C   0  0  0  0  0  0  0  0  0  0  0  0
   -8.6695    8.8297    0.0000 C   0  0  0  0  0  0  0  0  0  0  0  0
   -7.3705    9.5797    0.0000 H   0  0  0  0  0  0  0  0  0  0  0  0
   -9.9691   11.0799    0.0000 N   0  0  0  0  0  0  0  0  0  0  0  0
  -11.2681   11.8301    0.0000 O   0  0  0  0  0  0  0  0  0  0  0  0
   -8.6700   11.8297    0.0000 O   0  0  0  0  0  0  0  0  0  0  0  0
  -12.5683    9.5805    0.0000 N   0  0  0  0  0  0  0  0  0  0  0  0
  -12.5678   11.0805    0.0000 H   0  0  0  0  0  0  0  0  0  0  0  0
  -13.8676    8.8309    0.0000 C   0  0  0  0  0  0  0  0  0  0  0  0
  -13.8680    7.3309    0.0000 H   0  0  0  0  0  0  0  0  0  0  0  0
  -15.1664    9.5814    0.0000 C   0  0  0  0  0  0  0  0  0  0  0  0
  -15.1654   11.0822    0.0000 C   0  0  0  0  0  0  0  0  0  0  0  0
  -14.6518   12.4915    0.0000 H   0  0  0  0  0  0  0  0  0  0  0  0
  -13.6883   10.8209    0.0000 H   0  0  0  0  0  0  0  0  0  0  0  0
  -16.4642   11.8326    0.0000 C   0  0  0  0  0  0  0  0  0  0  0  0
  -17.4283   12.9818    0.0000 H   0  0  0  0  0  0  0  0  0  0  0  0
  -15.4998   12.9815    0.0000 H   0  0  0  0  0  0  0  0  0  0  0  0
  -17.7640   11.0822    0.0000 O   0  0  0  0  0  0  0  0  0  0  0  0
  -17.7649    9.5814    0.0000 C   0  0  0  0  0  0  0  0  0  0  0  0
  -18.2786    8.1720    0.0000 H   0  0  0  0  0  0  0  0  0  0  0  0
  -19.2420    9.8426    0.0000 H   0  0  0  0  0  0  0  0  0  0  0  0
  -16.4661    8.8309    0.0000 C   0  0  0  0  0  0  0  0  0  0  0  0
  -15.5021    7.6818    0.0000 H   0  0  0  0  0  0  0  0  0  0  0  0
  -17.4306    7.6821    0.0000 H   0  0  0  0  0  0  0  0  0  0  0  0
  1  2  1  0  0  0  0 
  1  3  1  0  0  0  0 
  1  4  1  0  0  0  0 
  1  5  1  0  0  0  0 
  5  6  1  0  0  0  0 
  6  7  1  0  0  0  0 
  6  8  1  0  0  0  0 
  6  9  1  0  0  0  0 
  5 10  1  0  0  0  0 
 10 11  1  0  0  0  0 
 10 12  1  0  0  0  0 
 10 13  1  0  0  0  0 
 13 14  1  0  0  0  0 
 13 15  1  0  0  0  0 
 13 16  1  0  0  0  0 
 16 17  2  0  0  0  0 
 17 18  1  0  0  0  0 
  5 18  1  0  0  0  0 
 18 19  1  0  0  0  0 
 18 20  1  0  0  0  0 
 17 21  1  0  0  0  0 
 21 22  2  0  0  0  0 
 22 23  1  0  0  0  0 
 22 24  1  0  0  0  0 
 24 25  1  0  0  0  0 
 24 26  2  0  0  0  0 
 26 27  1  0  0  0  0 
 27 28  1  0  0  0  0 
 27 29  2  0  0  0  0 
 21 29  1  0  0  0  0 
 29 30  1  0  0  0  0 
 26 31  1  0  0  0  0 
 16 32  1  0  0  0  0 
 32 33  1  0  0  0  0 
 32 34  1  0  0  0  0 
 32 35  1  0  0  0  0 
 35 36  1  0  0  0  0 
 36 37  1  0  0  0  0 
 36 38  1  0  0  0  0 
 36 39  1  0  0  0  0 
 39 40  1  0  0  0  0 
 39 41  1  0  0  0  0 
 39 42  1  0  0  0  0 
 42 43  1  0  0  0  0 
 43 44  1  0  0  0  0 
 43 45  1  0  0  0  0 
 43 46  1  0  0  0  0 
 35 46  1  0  0  0  0 
 46 47  1  0  0  0  0 
 46 48  1  0  0  0  0 
 42 49  1  0  0  0  0 
 49 50  2  0  0  0  0 
 50 51  1  0  0  0  0 
 50 52  1  0  0  0  0 
 52 53  1  0  0  0  0 
 52 54  2  0  0  0  0 
 54 55  1  0  0  0  0 
 55 56  2  0  0  0  0 
 49 56  1  0  0  0  0 
 56 57  1  0  0  0  0 
 55 58  1  0  0  0  0 
 58 59  1  0  0  0  0 
 59 60  2  0  0  0  0 
 60 61  1  0  0  0  0 
 60 62  1  0  0  0  0 
 62 63  2  0  0  0  0 
 63 64  1  0  0  0  0 
 64 65  1  0  0  0  0 
 64 66  1  0  0  0  0 
 66 67  1  0  0  0  0 
 66 68  2  0  0  0  0 
 62 68  1  0  0  0  0 
 68 69  1  0  0  0  0 
 63 70  1  0  0  0  0 
 70 71  2  0  0  0  0 
 59 71  1  0  0  0  0 
 71 72  1  0  0  0  0 
 54 73  1  0  0  0  0 
 73 74  2  0  0  0  0 
 73 75  1  0  0  0  0 
 75 76  1  0  0  0  0 
 75 77  1  0  0  0  0 
 77 78  2  0  0  0  0 
 77 79  2  0  0  0  0 
 77 80  1  0  0  0  0 
 80 81  2  0  0  0  0 
 81 82  1  0  0  0  0 
 81 83  1  0  0  0  0 
 83 84  1  0  0  0  0 
 83 85  2  0  0  0  0 
 85 86  1  0  0  0  0 
 86 87  2  0  0  0  0 
 80 87  1  0  0  0  0 
 87 88  1  0  0  0  0 
 86 89  1  0  0  0  0 
 89 90  2  0  0  0  0 
 89 91  1  0  0  0  0 
 85 92  1  0  0  0  0 
 92 93  1  0  0  0  0 
 92 94  1  0  0  0  0 
 94 95  1  4  0  0  0 
 94 96  2  0  0  0  0 
 96 97  1  0  0  0  0 
 97 98  1  0  0  0  0 
 97 99  1  0  0  0  0 
 97100  1  0  0  0  0 
100101  1  0  0  0  0 
100102  1  0  0  0  0 
100103  1  0  0  0  0 
103104  1  0  0  0  0 
104105  1  0  0  0  0 
104106  1  0  0  0  0 
104107  1  0  0  0  0 
 96107  1  0  0  0  0 
107108  1  0  0  0  0 
107109  1  0  0  0  0 
M  CHG  1  89   1
M  CHG  1  91  -1
M  END
> <Rank>
52

> <Priority_score>
0.038400000000000004

> <Reaction_type>
alkyl dehydrogenation

> <Parent_ID>
12

> <Parent_InChI>
InChI=1S/C45H50ClN7O7S/c1-45(2)15-11-33(39(26-45)31-3-5-34(46)6-4-31)29-51-17-19-52(20-18-51)35-7-9-38(42(24-35)60-36-23-32-12-16-47-43(32)49-28-36)44(54)50-61(57,58)37-8-10-40(41(25-37)53(55)56)48-27-30-13-21-59-22-14-30/h3-10,12,16,23-25,28,30,48H,11,13-15,17-22,26-27,29H2,1-2H3,(H,47,49)(H,50,54)

> <Parent_SMILES>
CC1(C)CCC(CN2CCN(c3ccc(C(=O)NS(=O)(=O)c4ccc(NCC5CCOCC5)c([N+](=O)[O-])c4)c(Oc4cnc5[nH]ccc5c4)c3)CC2)=C(c2ccc(Cl)cc2)C1

$$$$
Molecule 12_metabolite 53
  CDK     0516241031

109116  0  0  0  0  0  0  0  0999 V2000
    1.4760   14.5745    0.0000 C   0  0  0  0  0  0  0  0  0  0  0  0
   -0.0013   14.3144    0.0000 H   0  0  0  0  0  0  0  0  0  0  0  0
    2.7752   15.3241    0.0000 H   0  0  0  0  0  0  0  0  0  0  0  0
    0.9633   15.9842    0.0000 H   0  0  0  0  0  0  0  0  0  0  0  0
    3.0567   12.6896    0.0000 C   0  0  0  0  0  0  0  0  0  0  0  0
    4.6387   14.5735    0.0000 C   0  0  0  0  0  0  0  0  0  0  0  0
    4.1262   15.9832    0.0000 H   0  0  0  0  0  0  0  0  0  0  0  0
    5.9380   15.3230    0.0000 H   0  0  0  0  0  0  0  0  0  0  0  0
    5.6024   13.4240    0.0000 H   0  0  0  0  0  0  0  0  0  0  0  0
    1.7568   11.9394    0.0000 C   0  0  0  0  0  0  0  0  0  0  0  0
    0.2795   11.6798    0.0000 H   0  0  0  0  0  0  0  0  0  0  0  0
    1.2443   13.3491    0.0000 H   0  0  0  0  0  0  0  0  0  0  0  0
    1.7556   10.4385    0.0000 C   0  0  0  0  0  0  0  0  0  0  0  0
    1.0773    8.5784    0.0000 H   0  0  0  0  0  0  0  0  0  0  0  0
    0.2786   10.7000    0.0000 H   0  0  0  0  0  0  0  0  0  0  0  0
    3.0543    9.6879    0.0000 C   0  0  0  0  0  0  0  0  0  0  0  0
    4.3542   10.4381    0.0000 C   0  0  0  0  0  0  0  0  0  0  0  0
    4.3554   11.9390    0.0000 C   0  0  0  0  0  0  0  0  0  0  0  0
    4.8692   13.3482    0.0000 H   0  0  0  0  0  0  0  0  0  0  0  0
    5.8324   11.6775    0.0000 H   0  0  0  0  0  0  0  0  0  0  0  0
    5.6529    9.6875    0.0000 C   0  0  0  0  0  0  0  0  0  0  0  0
    6.9390   10.4269    0.0000 C   0  0  0  0  0  0  0  0  0  0  0  0
    6.9370   11.9269    0.0000 H   0  0  0  0  0  0  0  0  0  0  0  0
    8.2415    9.6828    0.0000 C   0  0  0  0  0  0  0  0  0  0  0  0
    9.5324   10.4466    0.0000 H   0  0  0  0  0  0  0  0  0  0  0  0
    8.2664    8.1944    0.0000 C   0  0  0  0  0  0  0  0  0  0  0  0
    6.9567    7.4339    0.0000 C   0  0  0  0  0  0  0  0  0  0  0  0
    6.9619    5.9339    0.0000 H   0  0  0  0  0  0  0  0  0  0  0  0
    5.6542    8.1780    0.0000 C   0  0  0  0  0  0  0  0  0  0  0  0
    4.3572    7.4245    0.0000 H   0  0  0  0  0  0  0  0  0  0  0  0
    9.5726    7.4569    0.0000 Cl  0  0  0  0  0  0  0  0  0  0  0  0
    3.0538    8.1879    0.0000 C   0  0  0  0  0  0  0  0  0  0  0  0
    4.5311    8.4479    0.0000 H   0  0  0  0  0  0  0  0  0  0  0  0
    3.5664    6.7782    0.0000 H   0  0  0  0  0  0  0  0  0  0  0  0
    0.5072    6.7187    0.0000 N   0  0  0  0  0  0  0  0  0  0  0  0
    0.5065    5.2179    0.0000 C   0  0  0  0  0  0  0  0  0  0  0  0
    1.9838    5.4780    0.0000 H   0  0  0  0  0  0  0  0  0  0  0  0
    1.0195    3.8083    0.0000 H   0  0  0  0  0  0  0  0  0  0  0  0
   -0.7931    4.4673    0.0000 C   0  0  0  0  0  0  0  0  0  0  0  0
    0.1711    3.3183    0.0000 H   0  0  0  0  0  0  0  0  0  0  0  0
   -1.7574    3.3183    0.0000 H   0  0  0  0  0  0  0  0  0  0  0  0
   -2.0920    5.2175    0.0000 N   0  0  0  0  0  0  0  0  0  0  0  0
   -2.0913    6.7183    0.0000 C   0  0  0  0  0  0  0  0  0  0  0  0
   -3.5686    6.4582    0.0000 H   0  0  0  0  0  0  0  0  0  0  0  0
   -2.6043    8.1279    0.0000 H   0  0  0  0  0  0  0  0  0  0  0  0
   -0.7917    7.4690    0.0000 C   0  0  0  0  0  0  0  0  0  0  0  0
   -1.7559    8.6180    0.0000 H   0  0  0  0  0  0  0  0  0  0  0  0
    0.1726    8.6180    0.0000 H   0  0  0  0  0  0  0  0  0  0  0  0
   -3.3913    4.4679    0.0000 C   0  0  0  0  0  0  0  0  0  0  0  0
   -4.6910    5.2185    0.0000 C   0  0  0  0  0  0  0  0  0  0  0  0
   -4.6902    6.7185    0.0000 H   0  0  0  0  0  0  0  0  0  0  0  0
   -5.9913    4.4692    0.0000 C   0  0  0  0  0  0  0  0  0  0  0  0
   -7.2899    5.2200    0.0000 H   0  0  0  0  0  0  0  0  0  0  0  0
   -5.9920    2.9692    0.0000 C   0  0  0  0  0  0  0  0  0  0  0  0
   -4.6924    2.2185    0.0000 C   0  0  0  0  0  0  0  0  0  0  0  0
   -3.3920    2.9679    0.0000 C   0  0  0  0  0  0  0  0  0  0  0  0
   -2.0935    2.2171    0.0000 H   0  0  0  0  0  0  0  0  0  0  0  0
   -4.6936   -0.2415    0.0000 O   0  0  0  0  0  0  0  0  0  0  0  0
   -3.3949   -0.9921    0.0000 C   0  0  0  0  0  0  0  0  0  0  0  0
   -3.3954   -2.4929    0.0000 C   0  0  0  0  0  0  0  0  0  0  0  0
   -4.6949   -3.2421    0.0000 H   0  0  0  0  0  0  0  0  0  0  0  0
   -2.0964   -3.2446    0.0000 C   0  0  0  0  0  0  0  0  0  0  0  0
   -0.7968   -2.4954    0.0000 C   0  0  0  0  0  0  0  0  0  0  0  0
    0.3159   -3.5046    0.0000 N   0  0  0  0  0  0  0  0  0  0  0  0
    1.7837   -3.1954    0.0000 H   0  0  0  0  0  0  0  0  0  0  0  0
   -0.2929   -4.8713    0.0000 C   0  0  0  0  0  0  0  0  0  0  0  0
    0.4563   -6.1708    0.0000 H   0  0  0  0  0  0  0  0  0  0  0  0
   -1.7807   -4.7132    0.0000 C   0  0  0  0  0  0  0  0  0  0  0  0
   -2.7837   -5.8285    0.0000 H   0  0  0  0  0  0  0  0  0  0  0  0
   -0.7964   -0.9946    0.0000 N   0  0  0  0  0  0  0  0  0  0  0  0
   -2.0954   -0.2429    0.0000 C   0  0  0  0  0  0  0  0  0  0  0  0
   -2.0942    1.2571    0.0000 H   0  0  0  0  0  0  0  0  0  0  0  0
   -7.2913    2.2196    0.0000 C   0  0  0  0  0  0  0  0  0  0  0  0
   -7.2918    0.7196    0.0000 O   0  0  0  0  0  0  0  0  0  0  0  0
   -8.5901    2.9700    0.0000 N   0  0  0  0  0  0  0  0  0  0  0  0
   -8.5896    4.4700    0.0000 H   0  0  0  0  0  0  0  0  0  0  0  0
   -9.8894    2.2204    0.0000 S   0  0  0  0  0  0  0  0  0  0  0  0
   -8.9256    1.0710    0.0000 O   0  0  0  0  0  0  0  0  0  0  0  0
  -10.8539    1.0716    0.0000 O   0  0  0  0  0  0  0  0  0  0  0  0
  -11.1882    2.9708    0.0000 C   0  0  0  0  0  0  0  0  0  0  0  0
  -11.1880    4.4717    0.0000 C   0  0  0  0  0  0  0  0  0  0  0  0
   -9.8886    5.2210    0.0000 H   0  0  0  0  0  0  0  0  0  0  0  0
  -12.4871    5.2231    0.0000 C   0  0  0  0  0  0  0  0  0  0  0  0
  -12.4862    6.7231    0.0000 H   0  0  0  0  0  0  0  0  0  0  0  0
  -13.7865    4.4737    0.0000 C   0  0  0  0  0  0  0  0  0  0  0  0
  -13.7868    2.9729    0.0000 C   0  0  0  0  0  0  0  0  0  0  0  0
  -12.4876    2.2214    0.0000 C   0  0  0  0  0  0  0  0  0  0  0  0
  -12.4886    0.7214    0.0000 H   0  0  0  0  0  0  0  0  0  0  0  0
  -15.0861    2.2235    0.0000 N   0  0  0  0  0  0  0  0  0  0  0  0
  -16.3848    2.9742    0.0000 O   0  0  0  0  0  0  0  0  0  0  0  0
  -15.0869    0.7235    0.0000 O   0  0  0  0  0  0  0  0  0  0  0  0
  -15.0853    5.2242    0.0000 N   0  0  0  0  0  0  0  0  0  0  0  0
  -15.0848    6.7242    0.0000 C   0  0  0  0  0  0  0  0  0  0  0  0
  -13.7855    7.4737    0.0000 H   0  0  0  0  0  0  0  0  0  0  0  0
  -17.2149    7.9548    0.0000 C   0  0  0  0  0  0  0  0  0  0  0  0
  -17.7280    6.5454    0.0000 H   0  0  0  0  0  0  0  0  0  0  0  0
  -16.2495    9.1040    0.0000 C   0  0  0  0  0  0  0  0  0  0  0  0
  -14.9502    9.8536    0.0000 H   0  0  0  0  0  0  0  0  0  0  0  0
  -15.2858    7.9545    0.0000 H   0  0  0  0  0  0  0  0  0  0  0  0
  -16.7623   10.5137    0.0000 C   0  0  0  0  0  0  0  0  0  0  0  0
  -16.7623   12.0137    0.0000 H   0  0  0  0  0  0  0  0  0  0  0  0
  -15.2850   10.7740    0.0000 H   0  0  0  0  0  0  0  0  0  0  0  0
  -18.2403   10.7741    0.0000 O   0  0  0  0  0  0  0  0  0  0  0  0
  -19.2056    9.6249    0.0000 C   0  0  0  0  0  0  0  0  0  0  0  0
  -20.5049    8.8754    0.0000 H   0  0  0  0  0  0  0  0  0  0  0  0
  -20.1693   10.7744    0.0000 H   0  0  0  0  0  0  0  0  0  0  0  0
  -18.6929    8.2153    0.0000 C   0  0  0  0  0  0  0  0  0  0  0  0
  -18.6929    6.7153    0.0000 H   0  0  0  0  0  0  0  0  0  0  0  0
  -20.1702    7.9550    0.0000 H   0  0  0  0  0  0  0  0  0  0  0  0
  1  2  1  0  0  0  0 
  1  3  1  0  0  0  0 
  1  4  1  0  0  0  0 
  1  5  1  0  0  0  0 
  5  6  1  0  0  0  0 
  6  7  1  0  0  0  0 
  6  8  1  0  0  0  0 
  6  9  1  0  0  0  0 
  5 10  1  0  0  0  0 
 10 11  1  0  0  0  0 
 10 12  1  0  0  0  0 
 10 13  1  0  0  0  0 
 13 14  1  0  0  0  0 
 13 15  1  0  0  0  0 
 13 16  1  0  0  0  0 
 16 17  2  0  0  0  0 
 17 18  1  0  0  0  0 
  5 18  1  0  0  0  0 
 18 19  1  0  0  0  0 
 18 20  1  0  0  0  0 
 17 21  1  0  0  0  0 
 21 22  2  0  0  0  0 
 22 23  1  0  0  0  0 
 22 24  1  0  0  0  0 
 24 25  1  0  0  0  0 
 24 26  2  0  0  0  0 
 26 27  1  0  0  0  0 
 27 28  1  0  0  0  0 
 27 29  2  0  0  0  0 
 21 29  1  0  0  0  0 
 29 30  1  0  0  0  0 
 26 31  1  0  0  0  0 
 16 32  1  0  0  0  0 
 32 33  1  0  0  0  0 
 32 34  1  0  0  0  0 
 32 35  1  0  0  0  0 
 35 36  1  0  0  0  0 
 36 37  1  0  0  0  0 
 36 38  1  0  0  0  0 
 36 39  1  0  0  0  0 
 39 40  1  0  0  0  0 
 39 41  1  0  0  0  0 
 39 42  1  0  0  0  0 
 42 43  1  0  0  0  0 
 43 44  1  0  0  0  0 
 43 45  1  0  0  0  0 
 43 46  1  0  0  0  0 
 35 46  1  0  0  0  0 
 46 47  1  0  0  0  0 
 46 48  1  0  0  0  0 
 42 49  1  0  0  0  0 
 49 50  2  0  0  0  0 
 50 51  1  0  0  0  0 
 50 52  1  0  0  0  0 
 52 53  1  0  0  0  0 
 52 54  2  0  0  0  0 
 54 55  1  0  0  0  0 
 55 56  2  0  0  0  0 
 49 56  1  0  0  0  0 
 56 57  1  0  0  0  0 
 55 58  1  0  0  0  0 
 58 59  1  0  0  0  0 
 59 60  2  0  0  0  0 
 60 61  1  0  0  0  0 
 60 62  1  0  0  0  0 
 62 63  2  0  0  0  0 
 63 64  1  0  0  0  0 
 64 65  1  0  0  0  0 
 64 66  1  0  0  0  0 
 66 67  1  0  0  0  0 
 66 68  2  0  0  0  0 
 62 68  1  0  0  0  0 
 68 69  1  0  0  0  0 
 63 70  1  0  0  0  0 
 70 71  2  0  0  0  0 
 59 71  1  0  0  0  0 
 71 72  1  0  0  0  0 
 54 73  1  0  0  0  0 
 73 74  2  0  0  0  0 
 73 75  1  0  0  0  0 
 75 76  1  0  0  0  0 
 75 77  1  0  0  0  0 
 77 78  2  0  0  0  0 
 77 79  2  0  0  0  0 
 77 80  1  0  0  0  0 
 80 81  2  0  0  0  0 
 81 82  1  0  0  0  0 
 81 83  1  0  0  0  0 
 83 84  1  0  0  0  0 
 83 85  2  0  0  0  0 
 85 86  1  0  0  0  0 
 86 87  2  0  0  0  0 
 80 87  1  0  0  0  0 
 87 88  1  0  0  0  0 
 86 89  1  0  0  0  0 
 89 90  2  0  0  0  0 
 89 91  1  0  0  0  0 
 85 92  1  0  0  0  0 
 92 93  2  0  0  0  0 
 93 94  1  4  0  0  0 
 93 95  1  0  0  0  0 
 95 96  1  0  0  0  0 
 95 97  1  0  0  0  0 
 97 98  1  0  0  0  0 
 97 99  1  0  0  0  0 
 97100  1  0  0  0  0 
100101  1  0  0  0  0 
100102  1  0  0  0  0 
100103  1  0  0  0  0 
103104  1  0  0  0  0 
104105  1  0  0  0  0 
104106  1  0  0  0  0 
104107  1  0  0  0  0 
 95107  1  0  0  0  0 
107108  1  0  0  0  0 
107109  1  0  0  0  0 
M  CHG  1  89   1
M  CHG  1  91  -1
M  END
> <Rank>
52

> <Priority_score>
0.038400000000000004

> <Reaction_type>
dehydration of N-C bond

> <Parent_ID>
12

> <Parent_InChI>
InChI=1S/C45H50ClN7O7S/c1-45(2)15-11-33(39(26-45)31-3-5-34(46)6-4-31)29-51-17-19-52(20-18-51)35-7-9-38(42(24-35)60-36-23-32-12-16-47-43(32)49-28-36)44(54)50-61(57,58)37-8-10-40(41(25-37)53(55)56)48-27-30-13-21-59-22-14-30/h3-10,12,16,23-25,28,30,48H,11,13-15,17-22,26-27,29H2,1-2H3,(H,47,49)(H,50,54)

> <Parent_SMILES>
CC1(C)CCC(CN2CCN(c3ccc(C(=O)NS(=O)(=O)c4ccc(NCC5CCOCC5)c([N+](=O)[O-])c4)c(Oc4cnc5[nH]ccc5c4)c3)CC2)=C(c2ccc(Cl)cc2)C1

$$$$
Molecule 12_metabolite 54
  CDK     0516241031

110117  0  0  0  0  0  0  0  0999 V2000
    1.4760   14.5745    0.0000 C   0  0  0  0  0  0  0  0  0  0  0  0
   -0.0013   14.3144    0.0000 H   0  0  0  0  0  0  0  0  0  0  0  0
    2.7752   15.3241    0.0000 H   0  0  0  0  0  0  0  0  0  0  0  0
    0.9633   15.9842    0.0000 H   0  0  0  0  0  0  0  0  0  0  0  0
    3.0567   12.6896    0.0000 C   0  0  0  0  0  0  0  0  0  0  0  0
    4.6387   14.5735    0.0000 C   0  0  0  0  0  0  0  0  0  0  0  0
    4.1262   15.9832    0.0000 H   0  0  0  0  0  0  0  0  0  0  0  0
    5.9380   15.3230    0.0000 H   0  0  0  0  0  0  0  0  0  0  0  0
    5.6024   13.4240    0.0000 H   0  0  0  0  0  0  0  0  0  0  0  0
    1.7568   11.9394    0.0000 C   0  0  0  0  0  0  0  0  0  0  0  0
    0.2795   11.6798    0.0000 H   0  0  0  0  0  0  0  0  0  0  0  0
    1.2443   13.3491    0.0000 H   0  0  0  0  0  0  0  0  0  0  0  0
    1.7556   10.4385    0.0000 C   0  0  0  0  0  0  0  0  0  0  0  0
    1.0773    8.5784    0.0000 H   0  0  0  0  0  0  0  0  0  0  0  0
    0.2786   10.7000    0.0000 H   0  0  0  0  0  0  0  0  0  0  0  0
    3.0543    9.6879    0.0000 C   0  0  0  0  0  0  0  0  0  0  0  0
    4.3542   10.4381    0.0000 C   0  0  0  0  0  0  0  0  0  0  0  0
    4.3554   11.9390    0.0000 C   0  0  0  0  0  0  0  0  0  0  0  0
    4.8692   13.3482    0.0000 H   0  0  0  0  0  0  0  0  0  0  0  0
    5.8324   11.6775    0.0000 H   0  0  0  0  0  0  0  0  0  0  0  0
    5.6529    9.6875    0.0000 C   0  0  0  0  0  0  0  0  0  0  0  0
    6.9390   10.4269    0.0000 C   0  0  0  0  0  0  0  0  0  0  0  0
    6.9370   11.9269    0.0000 H   0  0  0  0  0  0  0  0  0  0  0  0
    8.2415    9.6828    0.0000 C   0  0  0  0  0  0  0  0  0  0  0  0
    9.5324   10.4466    0.0000 H   0  0  0  0  0  0  0  0  0  0  0  0
    8.2664    8.1944    0.0000 C   0  0  0  0  0  0  0  0  0  0  0  0
    6.9567    7.4339    0.0000 C   0  0  0  0  0  0  0  0  0  0  0  0
    6.9619    5.9339    0.0000 H   0  0  0  0  0  0  0  0  0  0  0  0
    5.6542    8.1780    0.0000 C   0  0  0  0  0  0  0  0  0  0  0  0
    4.3572    7.4245    0.0000 H   0  0  0  0  0  0  0  0  0  0  0  0
    9.5726    7.4569    0.0000 Cl  0  0  0  0  0  0  0  0  0  0  0  0
    3.0538    8.1879    0.0000 C   0  0  0  0  0  0  0  0  0  0  0  0
    4.5311    8.4479    0.0000 H   0  0  0  0  0  0  0  0  0  0  0  0
    3.5664    6.7782    0.0000 H   0  0  0  0  0  0  0  0  0  0  0  0
    0.5072    6.7187    0.0000 N   0  0  0  0  0  0  0  0  0  0  0  0
    0.5065    5.2179    0.0000 C   0  0  0  0  0  0  0  0  0  0  0  0
    1.9838    5.4780    0.0000 H   0  0  0  0  0  0  0  0  0  0  0  0
    1.0195    3.8083    0.0000 H   0  0  0  0  0  0  0  0  0  0  0  0
   -0.7931    4.4673    0.0000 C   0  0  0  0  0  0  0  0  0  0  0  0
    0.1711    3.3183    0.0000 H   0  0  0  0  0  0  0  0  0  0  0  0
   -1.7574    3.3183    0.0000 H   0  0  0  0  0  0  0  0  0  0  0  0
   -2.0920    5.2175    0.0000 N   0  0  0  0  0  0  0  0  0  0  0  0
   -2.0913    6.7183    0.0000 C   0  0  0  0  0  0  0  0  0  0  0  0
   -3.5686    6.4582    0.0000 H   0  0  0  0  0  0  0  0  0  0  0  0
   -2.6043    8.1279    0.0000 H   0  0  0  0  0  0  0  0  0  0  0  0
   -0.7917    7.4690    0.0000 C   0  0  0  0  0  0  0  0  0  0  0  0
   -1.7559    8.6180    0.0000 H   0  0  0  0  0  0  0  0  0  0  0  0
    0.1726    8.6180    0.0000 H   0  0  0  0  0  0  0  0  0  0  0  0
   -3.3913    4.4679    0.0000 C   0  0  0  0  0  0  0  0  0  0  0  0
   -4.6910    5.2185    0.0000 C   0  0  0  0  0  0  0  0  0  0  0  0
   -4.6902    6.7185    0.0000 H   0  0  0  0  0  0  0  0  0  0  0  0
   -5.9913    4.4692    0.0000 C   0  0  0  0  0  0  0  0  0  0  0  0
   -7.2899    5.2200    0.0000 H   0  0  0  0  0  0  0  0  0  0  0  0
   -5.9920    2.9692    0.0000 C   0  0  0  0  0  0  0  0  0  0  0  0
   -4.6924    2.2185    0.0000 C   0  0  0  0  0  0  0  0  0  0  0  0
   -3.3920    2.9679    0.0000 C   0  0  0  0  0  0  0  0  0  0  0  0
   -2.0935    2.2171    0.0000 H   0  0  0  0  0  0  0  0  0  0  0  0
   -4.6936   -0.2415    0.0000 O   0  0  0  0  0  0  0  0  0  0  0  0
   -3.3949   -0.9921    0.0000 C   0  0  0  0  0  0  0  0  0  0  0  0
   -3.3954   -2.4929    0.0000 C   0  0  0  0  0  0  0  0  0  0  0  0
   -4.6949   -3.2421    0.0000 H   0  0  0  0  0  0  0  0  0  0  0  0
   -2.0964   -3.2446    0.0000 C   0  0  0  0  0  0  0  0  0  0  0  0
   -0.7968   -2.4954    0.0000 C   0  0  0  0  0  0  0  0  0  0  0  0
    0.3159   -3.5046    0.0000 N   0  0  0  0  0  0  0  0  0  0  0  0
    1.7837   -3.1954    0.0000 H   0  0  0  0  0  0  0  0  0  0  0  0
   -0.2929   -4.8713    0.0000 C   0  0  0  0  0  0  0  0  0  0  0  0
    0.4563   -6.1708    0.0000 H   0  0  0  0  0  0  0  0  0  0  0  0
   -1.7807   -4.7132    0.0000 C   0  0  0  0  0  0  0  0  0  0  0  0
   -2.7837   -5.8285    0.0000 H   0  0  0  0  0  0  0  0  0  0  0  0
   -0.7964   -0.9946    0.0000 N   0  0  0  0  0  0  0  0  0  0  0  0
   -2.0954   -0.2429    0.0000 C   0  0  0  0  0  0  0  0  0  0  0  0
   -2.0942    1.2571    0.0000 H   0  0  0  0  0  0  0  0  0  0  0  0
   -7.2913    2.2196    0.0000 C   0  0  0  0  0  0  0  0  0  0  0  0
   -7.2918    0.7196    0.0000 O   0  0  0  0  0  0  0  0  0  0  0  0
   -8.5901    2.9700    0.0000 N   0  0  0  0  0  0  0  0  0  0  0  0
   -8.5896    4.4700    0.0000 H   0  0  0  0  0  0  0  0  0  0  0  0
   -9.8894    2.2204    0.0000 S   0  0  0  0  0  0  0  0  0  0  0  0
   -8.9256    1.0710    0.0000 O   0  0  0  0  0  0  0  0  0  0  0  0
  -10.8539    1.0716    0.0000 O   0  0  0  0  0  0  0  0  0  0  0  0
  -11.1882    2.9708    0.0000 C   0  0  0  0  0  0  0  0  0  0  0  0
  -11.1880    4.4717    0.0000 C   0  0  0  0  0  0  0  0  0  0  0  0
   -9.8886    5.2210    0.0000 H   0  0  0  0  0  0  0  0  0  0  0  0
  -12.4871    5.2231    0.0000 C   0  0  0  0  0  0  0  0  0  0  0  0
  -12.4862    6.7231    0.0000 H   0  0  0  0  0  0  0  0  0  0  0  0
  -13.7865    4.4737    0.0000 C   0  0  0  0  0  0  0  0  0  0  0  0
  -13.7868    2.9729    0.0000 C   0  0  0  0  0  0  0  0  0  0  0  0
  -12.4876    2.2214    0.0000 C   0  0  0  0  0  0  0  0  0  0  0  0
  -12.4886    0.7214    0.0000 H   0  0  0  0  0  0  0  0  0  0  0  0
  -15.0861    2.2235    0.0000 N   0  0  0  0  0  0  0  0  0  0  0  0
  -16.3848    2.9742    0.0000 O   0  0  0  0  0  0  0  0  0  0  0  0
  -15.0869    0.7235    0.0000 O   0  0  0  0  0  0  0  0  0  0  0  0
  -15.0853    5.2242    0.0000 N   0  0  0  0  0  0  0  0  0  0  0  0
  -16.3846    4.4746    0.0000 H   0  0  0  0  0  0  0  0  0  0  0  0
  -15.0848    6.7242    0.0000 C   0  0  0  0  0  0  0  0  0  0  0  0
  -13.7855    7.4737    0.0000 H   0  0  0  0  0  0  0  0  0  0  0  0
  -16.7992    7.7147    0.0000 C   0  0  0  0  0  0  0  0  0  0  0  0
  -17.3124    6.3052    0.0000 H   0  0  0  0  0  0  0  0  0  0  0  0
  -15.8339    8.8639    0.0000 C   0  0  0  0  0  0  0  0  0  0  0  0
  -14.5346    9.6135    0.0000 H   0  0  0  0  0  0  0  0  0  0  0  0
  -14.8702    7.7144    0.0000 H   0  0  0  0  0  0  0  0  0  0  0  0
  -16.3466   10.2735    0.0000 C   0  0  0  0  0  0  0  0  0  0  0  0
  -16.3466   11.7735    0.0000 H   0  0  0  0  0  0  0  0  0  0  0  0
  -14.8694   10.5339    0.0000 H   0  0  0  0  0  0  0  0  0  0  0  0
  -17.8247   10.5340    0.0000 O   0  0  0  0  0  0  0  0  0  0  0  0
  -18.7900    9.3848    0.0000 C   0  0  0  0  0  0  0  0  0  0  0  0
  -20.0893    8.6352    0.0000 H   0  0  0  0  0  0  0  0  0  0  0  0
  -19.7537   10.5343    0.0000 H   0  0  0  0  0  0  0  0  0  0  0  0
  -18.2773    7.9752    0.0000 C   0  0  0  0  0  0  0  0  0  0  0  0
  -18.2773    6.4752    0.0000 H   0  0  0  0  0  0  0  0  0  0  0  0
  -19.7545    7.7148    0.0000 H   0  0  0  0  0  0  0  0  0  0  0  0
  1  2  1  0  0  0  0 
  1  3  1  0  0  0  0 
  1  4  1  0  0  0  0 
  1  5  1  0  0  0  0 
  5  6  1  0  0  0  0 
  6  7  1  0  0  0  0 
  6  8  1  0  0  0  0 
  6  9  1  0  0  0  0 
  5 10  1  0  0  0  0 
 10 11  1  0  0  0  0 
 10 12  1  0  0  0  0 
 10 13  1  0  0  0  0 
 13 14  1  0  0  0  0 
 13 15  1  0  0  0  0 
 13 16  1  0  0  0  0 
 16 17  2  0  0  0  0 
 17 18  1  0  0  0  0 
  5 18  1  0  0  0  0 
 18 19  1  0  0  0  0 
 18 20  1  0  0  0  0 
 17 21  1  0  0  0  0 
 21 22  2  0  0  0  0 
 22 23  1  0  0  0  0 
 22 24  1  0  0  0  0 
 24 25  1  0  0  0  0 
 24 26  2  0  0  0  0 
 26 27  1  0  0  0  0 
 27 28  1  0  0  0  0 
 27 29  2  0  0  0  0 
 21 29  1  0  0  0  0 
 29 30  1  0  0  0  0 
 26 31  1  0  0  0  0 
 16 32  1  0  0  0  0 
 32 33  1  0  0  0  0 
 32 34  1  0  0  0  0 
 32 35  1  0  0  0  0 
 35 36  1  0  0  0  0 
 36 37  1  0  0  0  0 
 36 38  1  0  0  0  0 
 36 39  1  0  0  0  0 
 39 40  1  0  0  0  0 
 39 41  1  0  0  0  0 
 39 42  1  0  0  0  0 
 42 43  1  0  0  0  0 
 43 44  1  0  0  0  0 
 43 45  1  0  0  0  0 
 43 46  1  0  0  0  0 
 35 46  1  0  0  0  0 
 46 47  1  0  0  0  0 
 46 48  1  0  0  0  0 
 42 49  1  0  0  0  0 
 49 50  2  0  0  0  0 
 50 51  1  0  0  0  0 
 50 52  1  0  0  0  0 
 52 53  1  0  0  0  0 
 52 54  2  0  0  0  0 
 54 55  1  0  0  0  0 
 55 56  2  0  0  0  0 
 49 56  1  0  0  0  0 
 56 57  1  0  0  0  0 
 55 58  1  0  0  0  0 
 58 59  1  0  0  0  0 
 59 60  2  0  0  0  0 
 60 61  1  0  0  0  0 
 60 62  1  0  0  0  0 
 62 63  2  0  0  0  0 
 63 64  1  0  0  0  0 
 64 65  1  0  0  0  0 
 64 66  1  0  0  0  0 
 66 67  1  0  0  0  0 
 66 68  2  0  0  0  0 
 62 68  1  0  0  0  0 
 68 69  1  0  0  0  0 
 63 70  1  0  0  0  0 
 70 71  2  0  0  0  0 
 59 71  1  0  0  0  0 
 71 72  1  0  0  0  0 
 54 73  1  0  0  0  0 
 73 74  2  0  0  0  0 
 73 75  1  0  0  0  0 
 75 76  1  0  0  0  0 
 75 77  1  0  0  0  0 
 77 78  2  0  0  0  0 
 77 79  2  0  0  0  0 
 77 80  1  0  0  0  0 
 80 81  2  0  0  0  0 
 81 82  1  0  0  0  0 
 81 83  1  0  0  0  0 
 83 84  1  0  0  0  0 
 83 85  2  0  0  0  0 
 85 86  1  0  0  0  0 
 86 87  2  0  0  0  0 
 80 87  1  0  0  0  0 
 87 88  1  0  0  0  0 
 86 89  1  0  0  0  0 
 89 90  2  0  0  0  0 
 89 91  1  0  0  0  0 
 85 92  1  0  0  0  0 
 92 93  1  4  0  0  0 
 92 94  2  0  0  0  0 
 94 95  1  0  0  0  0 
 94 96  1  0  0  0  0 
 96 97  1  0  0  0  0 
 96 98  1  0  0  0  0 
 98 99  1  0  0  0  0 
 98100  1  0  0  0  0 
 98101  1  0  0  0  0 
101102  1  0  0  0  0 
101103  1  0  0  0  0 
101104  1  0  0  0  0 
104105  1  0  0  0  0 
105106  1  0  0  0  0 
105107  1  0  0  0  0 
105108  1  0  0  0  0 
 96108  1  0  0  0  0 
108109  1  0  0  0  0 
108110  1  0  0  0  0 
M  CHG  1  89   1
M  CHG  1  91  -1
M  CHG  1  92   1
M  END
> <Rank>
52

> <Priority_score>
0.038400000000000004

> <Reaction_type>
dehydration of N-C bond

> <Parent_ID>
12

> <Parent_InChI>
InChI=1S/C45H50ClN7O7S/c1-45(2)15-11-33(39(26-45)31-3-5-34(46)6-4-31)29-51-17-19-52(20-18-51)35-7-9-38(42(24-35)60-36-23-32-12-16-47-43(32)49-28-36)44(54)50-61(57,58)37-8-10-40(41(25-37)53(55)56)48-27-30-13-21-59-22-14-30/h3-10,12,16,23-25,28,30,48H,11,13-15,17-22,26-27,29H2,1-2H3,(H,47,49)(H,50,54)

> <Parent_SMILES>
CC1(C)CCC(CN2CCN(c3ccc(C(=O)NS(=O)(=O)c4ccc(NCC5CCOCC5)c([N+](=O)[O-])c4)c(Oc4cnc5[nH]ccc5c4)c3)CC2)=C(c2ccc(Cl)cc2)C1

$$$$
Molecule 12_metabolite 55
  CDK     0516241031

112119  0  0  0  0  0  0  0  0999 V2000
    6.2899   19.1460    0.0000 C   0  0  0  0  0  0  0  0  0  0  0  0
    4.9911   19.8964    0.0000 H   0  0  0  0  0  0  0  0  0  0  0  0
    7.7670   18.8851    0.0000 H   0  0  0  0  0  0  0  0  0  0  0  0
    6.8034   20.5554    0.0000 H   0  0  0  0  0  0  0  0  0  0  0  0
    6.2891   16.6860    0.0000 C   0  0  0  0  0  0  0  0  0  0  0  0
    9.1847   17.1953    0.0000 C   0  0  0  0  0  0  0  0  0  0  0  0
    9.6983   18.6046    0.0000 H   0  0  0  0  0  0  0  0  0  0  0  0
   10.6618   16.9342    0.0000 H   0  0  0  0  0  0  0  0  0  0  0  0
    9.1840   15.6953    0.0000 H   0  0  0  0  0  0  0  0  0  0  0  0
    4.8111   16.9469    0.0000 C   0  0  0  0  0  0  0  0  0  0  0  0
    3.5126   17.6978    0.0000 H   0  0  0  0  0  0  0  0  0  0  0  0
    5.3248   18.3563    0.0000 H   0  0  0  0  0  0  0  0  0  0  0  0
    3.8454   15.7981    0.0000 C   0  0  0  0  0  0  0  0  0  0  0  0
    2.5459   15.0489    0.0000 H   0  0  0  0  0  0  0  0  0  0  0  0
    2.8821   16.9479    0.0000 H   0  0  0  0  0  0  0  0  0  0  0  0
    4.3577   14.3883    0.0000 C   0  0  0  0  0  0  0  0  0  0  0  0
    4.0968   12.9111    0.0000 C   0  0  0  0  0  0  0  0  0  0  0  0
    5.5968   12.9106    0.0000 H   0  0  0  0  0  0  0  0  0  0  0  0
    4.6064   10.0156    0.0000 H   0  0  0  0  0  0  0  0  0  0  0  0
    1.3338   11.9065    0.0000 N   0  0  0  0  0  0  0  0  0  0  0  0
    1.0724   10.4286    0.0000 C   0  0  0  0  0  0  0  0  0  0  0  0
    2.5724   10.4282    0.0000 H   0  0  0  0  0  0  0  0  0  0  0  0
    1.3328    8.9513    0.0000 H   0  0  0  0  0  0  0  0  0  0  0  0
   -0.3378    9.9150    0.0000 C   0  0  0  0  0  0  0  0  0  0  0  0
    0.4123    8.6160    0.0000 H   0  0  0  0  0  0  0  0  0  0  0  0
   -1.4869    8.9509    0.0000 H   0  0  0  0  0  0  0  0  0  0  0  0
   -1.4867   10.8794    0.0000 N   0  0  0  0  0  0  0  0  0  0  0  0
   -1.2254   12.3573    0.0000 C   0  0  0  0  0  0  0  0  0  0  0  0
   -2.7254   12.3577    0.0000 H   0  0  0  0  0  0  0  0  0  0  0  0
   -1.4858   13.8345    0.0000 H   0  0  0  0  0  0  0  0  0  0  0  0
    0.1848   12.8708    0.0000 C   0  0  0  0  0  0  0  0  0  0  0  0
   -0.5652   14.1698    0.0000 H   0  0  0  0  0  0  0  0  0  0  0  0
    1.7017   14.1435    0.0000 H   0  0  0  0  0  0  0  0  0  0  0  0
   -2.8964   10.3668    0.0000 C   0  0  0  0  0  0  0  0  0  0  0  0
   -4.0460   11.3317    0.0000 C   0  0  0  0  0  0  0  0  0  0  0  0
   -3.7848   12.8088    0.0000 H   0  0  0  0  0  0  0  0  0  0  0  0
   -5.4567   10.8195    0.0000 C   0  0  0  0  0  0  0  0  0  0  0  0
   -6.6052   11.7844    0.0000 H   0  0  0  0  0  0  0  0  0  0  0  0
   -5.7179    9.3424    0.0000 C   0  0  0  0  0  0  0  0  0  0  0  0
   -4.5683    8.3775    0.0000 C   0  0  0  0  0  0  0  0  0  0  0  0
   -3.1576    8.8897    0.0000 C   0  0  0  0  0  0  0  0  0  0  0  0
   -2.0092    7.9248    0.0000 H   0  0  0  0  0  0  0  0  0  0  0  0
   -4.9967    5.9551    0.0000 O   0  0  0  0  0  0  0  0  0  0  0  0
   -3.8481    4.9904    0.0000 C   0  0  0  0  0  0  0  0  0  0  0  0
   -4.1092    3.5124    0.0000 C   0  0  0  0  0  0  0  0  0  0  0  0
   -5.5190    3.0003    0.0000 H   0  0  0  0  0  0  0  0  0  0  0  0
   -2.9604    2.5466    0.0000 C   0  0  0  0  0  0  0  0  0  0  0  0
   -1.5505    3.0587    0.0000 C   0  0  0  0  0  0  0  0  0  0  0  0
   -0.6299    1.8717    0.0000 N   0  0  0  0  0  0  0  0  0  0  0  0
    0.8692    1.9213    0.0000 H   0  0  0  0  0  0  0  0  0  0  0  0
   -1.4668    0.6315    0.0000 C   0  0  0  0  0  0  0  0  0  0  0  0
   -0.9547   -0.7784    0.0000 H   0  0  0  0  0  0  0  0  0  0  0  0
   -2.9045    1.0455    0.0000 C   0  0  0  0  0  0  0  0  0  0  0  0
   -4.0860    0.1213    0.0000 H   0  0  0  0  0  0  0  0  0  0  0  0
   -1.2894    4.5367    0.0000 N   0  0  0  0  0  0  0  0  0  0  0  0
   -2.4382    5.5025    0.0000 C   0  0  0  0  0  0  0  0  0  0  0  0
   -2.1765    6.9795    0.0000 H   0  0  0  0  0  0  0  0  0  0  0  0
   -7.1276    8.8299    0.0000 C   0  0  0  0  0  0  0  0  0  0  0  0
   -7.3885    7.3527    0.0000 O   0  0  0  0  0  0  0  0  0  0  0  0
   -8.2763    9.7944    0.0000 N   0  0  0  0  0  0  0  0  0  0  0  0
   -8.0154   11.2715    0.0000 H   0  0  0  0  0  0  0  0  0  0  0  0
   -9.6861    9.2818    0.0000 S   0  0  0  0  0  0  0  0  0  0  0  0
   -8.9365    7.9826    0.0000 O   0  0  0  0  0  0  0  0  0  0  0  0
  -10.8354    8.3180    0.0000 O   0  0  0  0  0  0  0  0  0  0  0  0
  -10.8348   10.2464    0.0000 C   0  0  0  0  0  0  0  0  0  0  0  0
  -10.5740   11.7244    0.0000 C   0  0  0  0  0  0  0  0  0  0  0  0
   -9.1642   12.2367    0.0000 H   0  0  0  0  0  0  0  0  0  0  0  0
  -11.7229   12.6900    0.0000 C   0  0  0  0  0  0  0  0  0  0  0  0
  -11.4615   14.1671    0.0000 H   0  0  0  0  0  0  0  0  0  0  0  0
  -13.1327   12.1777    0.0000 C   0  0  0  0  0  0  0  0  0  0  0  0
  -13.3935   10.6997    0.0000 C   0  0  0  0  0  0  0  0  0  0  0  0
  -12.2446    9.7340    0.0000 C   0  0  0  0  0  0  0  0  0  0  0  0
  -12.5060    8.2570    0.0000 H   0  0  0  0  0  0  0  0  0  0  0  0
  -14.8033   10.1873    0.0000 N   0  0  0  0  0  0  0  0  0  0  0  0
  -15.9519   11.1521    0.0000 O   0  0  0  0  0  0  0  0  0  0  0  0
  -15.0645    8.7102    0.0000 O   0  0  0  0  0  0  0  0  0  0  0  0
  -14.2814   13.1422    0.0000 N   0  0  0  0  0  0  0  0  0  0  0  0
  -15.6911   12.6296    0.0000 H   0  0  0  0  0  0  0  0  0  0  0  0
  -14.0205   14.6193    0.0000 C   0  0  0  0  0  0  0  0  0  0  0  0
  -12.6111   14.1059    0.0000 H   0  0  0  0  0  0  0  0  0  0  0  0
  -13.2701   15.9181    0.0000 H   0  0  0  0  0  0  0  0  0  0  0  0
  -15.9044   16.2012    0.0000 C   0  0  0  0  0  0  0  0  0  0  0  0
  -16.6546   14.9022    0.0000 H   0  0  0  0  0  0  0  0  0  0  0  0
  -14.7542   17.1653    0.0000 C   0  0  0  0  0  0  0  0  0  0  0  0
  -13.3445   17.6779    0.0000 H   0  0  0  0  0  0  0  0  0  0  0  0
  -14.0048   15.8659    0.0000 H   0  0  0  0  0  0  0  0  0  0  0  0
  -15.0144   18.6426    0.0000 C   0  0  0  0  0  0  0  0  0  0  0  0
  -14.7539   20.1198    0.0000 H   0  0  0  0  0  0  0  0  0  0  0  0
  -13.5144   18.6424    0.0000 H   0  0  0  0  0  0  0  0  0  0  0  0
  -16.4248   19.1557    0.0000 O   0  0  0  0  0  0  0  0  0  0  0  0
  -17.5750   18.1916    0.0000 C   0  0  0  0  0  0  0  0  0  0  0  0
  -18.9847   17.6791    0.0000 H   0  0  0  0  0  0  0  0  0  0  0  0
  -18.3244   19.4910    0.0000 H   0  0  0  0  0  0  0  0  0  0  0  0
  -17.3148   16.7144    0.0000 C   0  0  0  0  0  0  0  0  0  0  0  0
  -17.5753   15.2372    0.0000 H   0  0  0  0  0  0  0  0  0  0  0  0
  -18.8148   16.7145    0.0000 H   0  0  0  0  0  0  0  0  0  0  0  0
    5.8357   14.1273    0.0000 C   0  0  0  0  0  0  0  0  0  0  0  0
    6.8014   15.2762    0.0000 C   0  0  0  0  0  0  0  0  0  0  0  0
    8.2784   15.0147    0.0000 H   0  0  0  0  0  0  0  0  0  0  0  0
    6.5119   12.2664    0.0000 C   0  0  0  0  0  0  0  0  0  0  0  0
    7.9724   12.0059    0.0000 C   0  0  0  0  0  0  0  0  0  0  0  0
    8.9351   13.1562    0.0000 H   0  0  0  0  0  0  0  0  0  0  0  0
    8.4918   10.5987    0.0000 C   0  0  0  0  0  0  0  0  0  0  0  0
    9.9717   10.3539    0.0000 H   0  0  0  0  0  0  0  0  0  0  0  0
    7.5541    9.4425    0.0000 C   0  0  0  0  0  0  0  0  0  0  0  0
    6.0620    9.7020    0.0000 C   0  0  0  0  0  0  0  0  0  0  0  0
    5.1017    8.5496    0.0000 H   0  0  0  0  0  0  0  0  0  0  0  0
    5.5426   11.1092    0.0000 C   0  0  0  0  0  0  0  0  0  0  0  0
    4.0647   11.3657    0.0000 H   0  0  0  0  0  0  0  0  0  0  0  0
    8.0805    8.0380    0.0000 Cl  0  0  0  0  0  0  0  0  0  0  0  0
    2.8804   14.1284    0.0000 O   0  0  0  0  0  0  0  0  0  0  0  0
    0.9916   16.3814    0.0000 H   0  0  0  0  0  0  0  0  0  0  0  0
  1  2  1  0  0  0  0 
  1  3  1  0  0  0  0 
  1  4  1  0  0  0  0 
  1  5  1  0  0  0  0 
  5  6  1  0  0  0  0 
  6  7  1  0  0  0  0 
  6  8  1  0  0  0  0 
  6  9  1  0  0  0  0 
  5 10  1  0  0  0  0 
 10 11  1  0  0  0  0 
 10 12  1  0  0  0  0 
 10 13  1  0  0  0  0 
 13 14  1  0  0  0  0 
 13 15  1  0  0  0  0 
 13 16  1  0  0  0  0 
 16 17  1  0  0  0  0 
 17 18  1  0  0  0  0 
 17 19  1  0  0  0  0 
 17 20  1  0  0  0  0 
 20 21  1  0  0  0  0 
 21 22  1  0  0  0  0 
 21 23  1  0  0  0  0 
 21 24  1  0  0  0  0 
 24 25  1  0  0  0  0 
 24 26  1  0  0  0  0 
 24 27  1  0  0  0  0 
 27 28  1  0  0  0  0 
 28 29  1  0  0  0  0 
 28 30  1  0  0  0  0 
 28 31  1  0  0  0  0 
 20 31  1  0  0  0  0 
 31 32  1  0  0  0  0 
 31 33  1  0  0  0  0 
 27 34  1  0  0  0  0 
 34 35  2  0  0  0  0 
 35 36  1  0  0  0  0 
 35 37  1  0  0  0  0 
 37 38  1  0  0  0  0 
 37 39  2  0  0  0  0 
 39 40  1  0  0  0  0 
 40 41  2  0  0  0  0 
 34 41  1  0  0  0  0 
 41 42  1  0  0  0  0 
 40 43  1  0  0  0  0 
 43 44  1  0  0  0  0 
 44 45  2  0  0  0  0 
 45 46  1  0  0  0  0 
 45 47  1  0  0  0  0 
 47 48  2  0  0  0  0 
 48 49  1  0  0  0  0 
 49 50  1  0  0  0  0 
 49 51  1  0  0  0  0 
 51 52  1  0  0  0  0 
 51 53  2  0  0  0  0 
 47 53  1  0  0  0  0 
 53 54  1  0  0  0  0 
 48 55  1  0  0  0  0 
 55 56  2  0  0  0  0 
 44 56  1  0  0  0  0 
 56 57  1  0  0  0  0 
 39 58  1  0  0  0  0 
 58 59  2  0  0  0  0 
 58 60  1  0  0  0  0 
 60 61  1  0  0  0  0 
 60 62  1  0  0  0  0 
 62 63  2  0  0  0  0 
 62 64  2  0  0  0  0 
 62 65  1  0  0  0  0 
 65 66  2  0  0  0  0 
 66 67  1  0  0  0  0 
 66 68  1  0  0  0  0 
 68 69  1  0  0  0  0 
 68 70  2  0  0  0  0 
 70 71  1  0  0  0  0 
 71 72  2  0  0  0  0 
 65 72  1  0  0  0  0 
 72 73  1  0  0  0  0 
 71 74  1  0  0  0  0 
 74 75  2  0  0  0  0 
 74 76  1  0  0  0  0 
 70 77  1  0  0  0  0 
 77 78  1  0  0  0  0 
 77 79  1  0  0  0  0 
 79 80  1  0  0  0  0 
 79 81  1  0  0  0  0 
 79 82  1  0  0  0  0 
 82 83  1  0  0  0  0 
 82 84  1  0  0  0  0 
 84 85  1  0  0  0  0 
 84 86  1  0  0  0  0 
 84 87  1  0  0  0  0 
 87 88  1  0  0  0  0 
 87 89  1  0  0  0  0 
 87 90  1  0  0  0  0 
 90 91  1  0  0  0  0 
 91 92  1  0  0  0  0 
 91 93  1  0  0  0  0 
 91 94  1  0  0  0  0 
 82 94  1  0  0  0  0 
 94 95  1  0  0  0  0 
 94 96  1  0  0  0  0 
 16 97  1  0  0  0  0 
 97 98  2  0  0  0  0 
  5 98  1  0  0  0  0 
 98 99  1  0  0  0  0 
 97100  1  0  0  0  0 
100101  2  0  0  0  0 
101102  1  0  0  0  0 
101103  1  0  0  0  0 
103104  1  0  0  0  0 
103105  2  0  0  0  0 
105106  1  0  0  0  0 
106107  1  0  0  0  0 
106108  2  0  0  0  0 
100108  1  0  0  0  0 
108109  1  0  0  0  0 
105110  1  0  0  0  0 
 16111  1  0  0  0  0 
111112  1  0  0  0  0 
M  CHG  1  74   1
M  CHG  1  76  -1
M  END
> <Rank>
55

> <Priority_score>
0.0344

> <Reaction_type>
aliphatic hydroxylation with allylic rearrangement 1

> <Parent_ID>
12

> <Parent_InChI>
InChI=1S/C45H50ClN7O7S/c1-45(2)15-11-33(39(26-45)31-3-5-34(46)6-4-31)29-51-17-19-52(20-18-51)35-7-9-38(42(24-35)60-36-23-32-12-16-47-43(32)49-28-36)44(54)50-61(57,58)37-8-10-40(41(25-37)53(55)56)48-27-30-13-21-59-22-14-30/h3-10,12,16,23-25,28,30,48H,11,13-15,17-22,26-27,29H2,1-2H3,(H,47,49)(H,50,54)

> <Parent_SMILES>
CC1(C)CCC(CN2CCN(c3ccc(C(=O)NS(=O)(=O)c4ccc(NCC5CCOCC5)c([N+](=O)[O-])c4)c(Oc4cnc5[nH]ccc5c4)c3)CC2)=C(c2ccc(Cl)cc2)C1

$$$$
Molecule 12_metabolite 56
  CDK     0516241031

110117  0  0  0  0  0  0  0  0999 V2000
    3.6622   18.8482    0.0000 C   0  0  0  0  0  0  0  0  0  0  0  0
    2.1849   18.5882    0.0000 H   0  0  0  0  0  0  0  0  0  0  0  0
    4.9614   19.5979    0.0000 H   0  0  0  0  0  0  0  0  0  0  0  0
    3.1495   20.2579    0.0000 H   0  0  0  0  0  0  0  0  0  0  0  0
    5.2429   16.9633    0.0000 C   0  0  0  0  0  0  0  0  0  0  0  0
    6.8249   18.8472    0.0000 C   0  0  0  0  0  0  0  0  0  0  0  0
    6.3124   20.2569    0.0000 H   0  0  0  0  0  0  0  0  0  0  0  0
    8.1242   19.5967    0.0000 H   0  0  0  0  0  0  0  0  0  0  0  0
    7.7886   17.6978    0.0000 H   0  0  0  0  0  0  0  0  0  0  0  0
    3.9430   16.2131    0.0000 C   0  0  0  0  0  0  0  0  0  0  0  0
    2.4657   15.9535    0.0000 H   0  0  0  0  0  0  0  0  0  0  0  0
    3.4305   17.6229    0.0000 H   0  0  0  0  0  0  0  0  0  0  0  0
    3.9418   14.7123    0.0000 C   0  0  0  0  0  0  0  0  0  0  0  0
    3.4280   13.3031    0.0000 H   0  0  0  0  0  0  0  0  0  0  0  0
    2.4648   14.9738    0.0000 H   0  0  0  0  0  0  0  0  0  0  0  0
    5.2405   13.9617    0.0000 C   0  0  0  0  0  0  0  0  0  0  0  0
    6.5404   14.7119    0.0000 C   0  0  0  0  0  0  0  0  0  0  0  0
    6.5416   16.2127    0.0000 C   0  0  0  0  0  0  0  0  0  0  0  0
    7.0554   17.6220    0.0000 H   0  0  0  0  0  0  0  0  0  0  0  0
    8.0186   15.9512    0.0000 H   0  0  0  0  0  0  0  0  0  0  0  0
    8.2546   13.7211    0.0000 C   0  0  0  0  0  0  0  0  0  0  0  0
    8.2560   12.2375    0.0000 C   0  0  0  0  0  0  0  0  0  0  0  0
    6.9552   11.4905    0.0000 H   0  0  0  0  0  0  0  0  0  0  0  0
    9.5509   11.4804    0.0000 C   0  0  0  0  0  0  0  0  0  0  0  0
    9.5335    9.9805    0.0000 H   0  0  0  0  0  0  0  0  0  0  0  0
   10.8531   12.2017    0.0000 C   0  0  0  0  0  0  0  0  0  0  0  0
   10.8582   13.7162    0.0000 C   0  0  0  0  0  0  0  0  0  0  0  0
   12.1606   14.4604    0.0000 H   0  0  0  0  0  0  0  0  0  0  0  0
    9.5633   14.4734    0.0000 C   0  0  0  0  0  0  0  0  0  0  0  0
    9.5689   15.9733    0.0000 H   0  0  0  0  0  0  0  0  0  0  0  0
   12.1441   11.4381    0.0000 Cl  0  0  0  0  0  0  0  0  0  0  0  0
    4.9796   12.4845    0.0000 C   0  0  0  0  0  0  0  0  0  0  0  0
    6.1283   11.5200    0.0000 H   0  0  0  0  0  0  0  0  0  0  0  0
    2.6676   11.6439    0.0000 N   0  0  0  0  0  0  0  0  0  0  0  0
    2.4063   10.1660    0.0000 C   0  0  0  0  0  0  0  0  0  0  0  0
    3.9063   10.1656    0.0000 H   0  0  0  0  0  0  0  0  0  0  0  0
    2.6667    8.6888    0.0000 H   0  0  0  0  0  0  0  0  0  0  0  0
    0.9961    9.6525    0.0000 C   0  0  0  0  0  0  0  0  0  0  0  0
    1.7461    8.3535    0.0000 H   0  0  0  0  0  0  0  0  0  0  0  0
   -0.1530    8.6883    0.0000 H   0  0  0  0  0  0  0  0  0  0  0  0
   -0.1528   10.6168    0.0000 N   0  0  0  0  0  0  0  0  0  0  0  0
    0.1085   12.0947    0.0000 C   0  0  0  0  0  0  0  0  0  0  0  0
   -1.3915   12.0951    0.0000 H   0  0  0  0  0  0  0  0  0  0  0  0
   -0.1519   13.5720    0.0000 H   0  0  0  0  0  0  0  0  0  0  0  0
    1.5187   12.6083    0.0000 C   0  0  0  0  0  0  0  0  0  0  0  0
    0.7687   13.9073    0.0000 H   0  0  0  0  0  0  0  0  0  0  0  0
    2.6679   13.5724    0.0000 H   0  0  0  0  0  0  0  0  0  0  0  0
   -1.5625   10.1043    0.0000 C   0  0  0  0  0  0  0  0  0  0  0  0
   -2.7121   11.0692    0.0000 C   0  0  0  0  0  0  0  0  0  0  0  0
   -2.4509   12.5462    0.0000 H   0  0  0  0  0  0  0  0  0  0  0  0
   -4.1228   10.5570    0.0000 C   0  0  0  0  0  0  0  0  0  0  0  0
   -5.2713   11.5219    0.0000 H   0  0  0  0  0  0  0  0  0  0  0  0
   -4.3840    9.0799    0.0000 C   0  0  0  0  0  0  0  0  0  0  0  0
   -3.2345    8.1150    0.0000 C   0  0  0  0  0  0  0  0  0  0  0  0
   -1.8237    8.6272    0.0000 C   0  0  0  0  0  0  0  0  0  0  0  0
   -0.6753    7.6623    0.0000 H   0  0  0  0  0  0  0  0  0  0  0  0
   -3.6628    5.6926    0.0000 O   0  0  0  0  0  0  0  0  0  0  0  0
   -2.5142    4.7278    0.0000 C   0  0  0  0  0  0  0  0  0  0  0  0
   -2.7753    3.2499    0.0000 C   0  0  0  0  0  0  0  0  0  0  0  0
   -4.1851    2.7378    0.0000 H   0  0  0  0  0  0  0  0  0  0  0  0
   -1.6265    2.2841    0.0000 C   0  0  0  0  0  0  0  0  0  0  0  0
   -0.2166    2.7962    0.0000 C   0  0  0  0  0  0  0  0  0  0  0  0
    0.7040    1.6092    0.0000 N   0  0  0  0  0  0  0  0  0  0  0  0
    2.2031    1.6587    0.0000 H   0  0  0  0  0  0  0  0  0  0  0  0
   -0.1329    0.3689    0.0000 C   0  0  0  0  0  0  0  0  0  0  0  0
    0.3792   -1.0409    0.0000 H   0  0  0  0  0  0  0  0  0  0  0  0
   -1.5706    0.7829    0.0000 C   0  0  0  0  0  0  0  0  0  0  0  0
   -2.7521   -0.1413    0.0000 H   0  0  0  0  0  0  0  0  0  0  0  0
    0.0445    4.2741    0.0000 N   0  0  0  0  0  0  0  0  0  0  0  0
   -1.1043    5.2400    0.0000 C   0  0  0  0  0  0  0  0  0  0  0  0
   -0.8427    6.7170    0.0000 H   0  0  0  0  0  0  0  0  0  0  0  0
   -5.7937    8.5673    0.0000 C   0  0  0  0  0  0  0  0  0  0  0  0
   -6.0547    7.0902    0.0000 O   0  0  0  0  0  0  0  0  0  0  0  0
   -6.9425    9.5319    0.0000 N   0  0  0  0  0  0  0  0  0  0  0  0
   -6.6815   11.0090    0.0000 H   0  0  0  0  0  0  0  0  0  0  0  0
   -8.3522    9.0193    0.0000 S   0  0  0  0  0  0  0  0  0  0  0  0
   -7.6026    7.7200    0.0000 O   0  0  0  0  0  0  0  0  0  0  0  0
   -9.5015    8.0555    0.0000 O   0  0  0  0  0  0  0  0  0  0  0  0
   -9.5009    9.9838    0.0000 C   0  0  0  0  0  0  0  0  0  0  0  0
   -9.2401   11.4618    0.0000 C   0  0  0  0  0  0  0  0  0  0  0  0
   -7.8303   11.9742    0.0000 H   0  0  0  0  0  0  0  0  0  0  0  0
  -10.3890   12.4275    0.0000 C   0  0  0  0  0  0  0  0  0  0  0  0
  -10.1276   13.9045    0.0000 H   0  0  0  0  0  0  0  0  0  0  0  0
  -11.7988   11.9151    0.0000 C   0  0  0  0  0  0  0  0  0  0  0  0
  -12.0596   10.4371    0.0000 C   0  0  0  0  0  0  0  0  0  0  0  0
  -10.9107    9.4715    0.0000 C   0  0  0  0  0  0  0  0  0  0  0  0
  -11.1721    7.9944    0.0000 H   0  0  0  0  0  0  0  0  0  0  0  0
  -13.4694    9.9248    0.0000 N   0  0  0  0  0  0  0  0  0  0  0  0
  -14.6180   10.8895    0.0000 O   0  0  0  0  0  0  0  0  0  0  0  0
  -13.7306    8.4477    0.0000 O   0  0  0  0  0  0  0  0  0  0  0  0
  -12.9475   12.8797    0.0000 N   0  0  0  0  0  0  0  0  0  0  0  0
  -14.3572   12.3671    0.0000 H   0  0  0  0  0  0  0  0  0  0  0  0
  -12.6866   14.3568    0.0000 C   0  0  0  0  0  0  0  0  0  0  0  0
  -11.2772   13.8433    0.0000 H   0  0  0  0  0  0  0  0  0  0  0  0
  -11.9362   15.6556    0.0000 H   0  0  0  0  0  0  0  0  0  0  0  0
  -14.5706   15.9386    0.0000 C   0  0  0  0  0  0  0  0  0  0  0  0
  -15.3207   14.6397    0.0000 H   0  0  0  0  0  0  0  0  0  0  0  0
  -13.4203   16.9027    0.0000 C   0  0  0  0  0  0  0  0  0  0  0  0
  -12.0106   17.4153    0.0000 H   0  0  0  0  0  0  0  0  0  0  0  0
  -12.6709   15.6034    0.0000 H   0  0  0  0  0  0  0  0  0  0  0  0
  -13.6805   18.3800    0.0000 C   0  0  0  0  0  0  0  0  0  0  0  0
  -13.4200   19.8572    0.0000 H   0  0  0  0  0  0  0  0  0  0  0  0
  -12.1805   18.3799    0.0000 H   0  0  0  0  0  0  0  0  0  0  0  0
  -15.0909   18.8932    0.0000 O   0  0  0  0  0  0  0  0  0  0  0  0
  -16.2411   17.9291    0.0000 C   0  0  0  0  0  0  0  0  0  0  0  0
  -17.6508   17.4165    0.0000 H   0  0  0  0  0  0  0  0  0  0  0  0
  -16.9905   19.2284    0.0000 H   0  0  0  0  0  0  0  0  0  0  0  0
  -15.9809   16.4518    0.0000 C   0  0  0  0  0  0  0  0  0  0  0  0
  -16.2414   14.9746    0.0000 H   0  0  0  0  0  0  0  0  0  0  0  0
  -17.4809   16.4520    0.0000 H   0  0  0  0  0  0  0  0  0  0  0  0
  1  2  1  0  0  0  0 
  1  3  1  0  0  0  0 
  1  4  1  0  0  0  0 
  1  5  1  0  0  0  0 
  5  6  1  0  0  0  0 
  6  7  1  0  0  0  0 
  6  8  1  0  0  0  0 
  6  9  1  0  0  0  0 
  5 10  1  0  0  0  0 
 10 11  1  0  0  0  0 
 10 12  1  0  0  0  0 
 10 13  1  0  0  0  0 
 13 14  1  0  0  0  0 
 13 15  1  0  0  0  0 
 13 16  1  0  0  0  0 
 16 17  2  0  0  0  0 
 17 18  1  0  0  0  0 
  5 18  1  0  0  0  0 
 18 19  1  0  0  0  0 
 18 20  1  0  0  0  0 
 17 21  1  0  0  0  0 
 21 22  2  0  0  0  0 
 22 23  1  0  0  0  0 
 22 24  1  0  0  0  0 
 24 25  1  0  0  0  0 
 24 26  2  0  0  0  0 
 26 27  1  0  0  0  0 
 27 28  1  0  0  0  0 
 27 29  2  0  0  0  0 
 21 29  1  0  0  0  0 
 29 30  1  0  0  0  0 
 26 31  1  0  0  0  0 
 16 32  1  0  0  0  0 
 32 33  1  4  0  0  0 
 32 34  2  0  0  0  0 
 34 35  1  0  0  0  0 
 35 36  1  0  0  0  0 
 35 37  1  0  0  0  0 
 35 38  1  0  0  0  0 
 38 39  1  0  0  0  0 
 38 40  1  0  0  0  0 
 38 41  1  0  0  0  0 
 41 42  1  0  0  0  0 
 42 43  1  0  0  0  0 
 42 44  1  0  0  0  0 
 42 45  1  0  0  0  0 
 34 45  1  0  0  0  0 
 45 46  1  0  0  0  0 
 45 47  1  0  0  0  0 
 41 48  1  0  0  0  0 
 48 49  2  0  0  0  0 
 49 50  1  0  0  0  0 
 49 51  1  0  0  0  0 
 51 52  1  0  0  0  0 
 51 53  2  0  0  0  0 
 53 54  1  0  0  0  0 
 54 55  2  0  0  0  0 
 48 55  1  0  0  0  0 
 55 56  1  0  0  0  0 
 54 57  1  0  0  0  0 
 57 58  1  0  0  0  0 
 58 59  2  0  0  0  0 
 59 60  1  0  0  0  0 
 59 61  1  0  0  0  0 
 61 62  2  0  0  0  0 
 62 63  1  0  0  0  0 
 63 64  1  0  0  0  0 
 63 65  1  0  0  0  0 
 65 66  1  0  0  0  0 
 65 67  2  0  0  0  0 
 61 67  1  0  0  0  0 
 67 68  1  0  0  0  0 
 62 69  1  0  0  0  0 
 69 70  2  0  0  0  0 
 58 70  1  0  0  0  0 
 70 71  1  0  0  0  0 
 53 72  1  0  0  0  0 
 72 73  2  0  0  0  0 
 72 74  1  0  0  0  0 
 74 75  1  0  0  0  0 
 74 76  1  0  0  0  0 
 76 77  2  0  0  0  0 
 76 78  2  0  0  0  0 
 76 79  1  0  0  0  0 
 79 80  2  0  0  0  0 
 80 81  1  0  0  0  0 
 80 82  1  0  0  0  0 
 82 83  1  0  0  0  0 
 82 84  2  0  0  0  0 
 84 85  1  0  0  0  0 
 85 86  2  0  0  0  0 
 79 86  1  0  0  0  0 
 86 87  1  0  0  0  0 
 85 88  1  0  0  0  0 
 88 89  2  0  0  0  0 
 88 90  1  0  0  0  0 
 84 91  1  0  0  0  0 
 91 92  1  0  0  0  0 
 91 93  1  0  0  0  0 
 93 94  1  0  0  0  0 
 93 95  1  0  0  0  0 
 93 96  1  0  0  0  0 
 96 97  1  0  0  0  0 
 96 98  1  0  0  0  0 
 98 99  1  0  0  0  0 
 98100  1  0  0  0  0 
 98101  1  0  0  0  0 
101102  1  0  0  0  0 
101103  1  0  0  0  0 
101104  1  0  0  0  0 
104105  1  0  0  0  0 
105106  1  0  0  0  0 
105107  1  0  0  0  0 
105108  1  0  0  0  0 
 96108  1  0  0  0  0 
108109  1  0  0  0  0 
108110  1  0  0  0  0 
M  CHG  1  34   1
M  CHG  1  88   1
M  CHG  1  90  -1
M  END
> <Rank>
56

> <Priority_score>
0.0328

> <Reaction_type>
dehydration of N-C bond

> <Parent_ID>
12

> <Parent_InChI>
InChI=1S/C45H50ClN7O7S/c1-45(2)15-11-33(39(26-45)31-3-5-34(46)6-4-31)29-51-17-19-52(20-18-51)35-7-9-38(42(24-35)60-36-23-32-12-16-47-43(32)49-28-36)44(54)50-61(57,58)37-8-10-40(41(25-37)53(55)56)48-27-30-13-21-59-22-14-30/h3-10,12,16,23-25,28,30,48H,11,13-15,17-22,26-27,29H2,1-2H3,(H,47,49)(H,50,54)

> <Parent_SMILES>
CC1(C)CCC(CN2CCN(c3ccc(C(=O)NS(=O)(=O)c4ccc(NCC5CCOCC5)c([N+](=O)[O-])c4)c(Oc4cnc5[nH]ccc5c4)c3)CC2)=C(c2ccc(Cl)cc2)C1

$$$$
Molecule 12_metabolite 57
  CDK     0516241031

112119  0  0  0  0  0  0  0  0999 V2000
    2.8213   18.5399    0.0000 C   0  0  0  0  0  0  0  0  0  0  0  0
    3.3347   19.9493    0.0000 H   0  0  0  0  0  0  0  0  0  0  0  0
    1.8568   17.3911    0.0000 H   0  0  0  0  0  0  0  0  0  0  0  0
    1.5224   19.2903    0.0000 H   0  0  0  0  0  0  0  0  0  0  0  0
    4.4020   16.6550    0.0000 C   0  0  0  0  0  0  0  0  0  0  0  0
    6.2927   18.9065    0.0000 C   0  0  0  0  0  0  0  0  0  0  0  0
    7.7698   18.6455    0.0000 H   0  0  0  0  0  0  0  0  0  0  0  0
    6.8062   20.3158    0.0000 H   0  0  0  0  0  0  0  0  0  0  0  0
    4.9939   19.6570    0.0000 H   0  0  0  0  0  0  0  0  0  0  0  0
    3.1022   15.9048    0.0000 C   0  0  0  0  0  0  0  0  0  0  0  0
    1.6248   15.6452    0.0000 H   0  0  0  0  0  0  0  0  0  0  0  0
    2.5897   17.3145    0.0000 H   0  0  0  0  0  0  0  0  0  0  0  0
    3.1010   14.4040    0.0000 C   0  0  0  0  0  0  0  0  0  0  0  0
    2.4227   12.5438    0.0000 H   0  0  0  0  0  0  0  0  0  0  0  0
    1.6239   14.6655    0.0000 H   0  0  0  0  0  0  0  0  0  0  0  0
    4.3996   13.6534    0.0000 C   0  0  0  0  0  0  0  0  0  0  0  0
    4.3992   12.1534    0.0000 C   0  0  0  0  0  0  0  0  0  0  0  0
    5.6979   11.4029    0.0000 H   0  0  0  0  0  0  0  0  0  0  0  0
    1.8526   10.6842    0.0000 N   0  0  0  0  0  0  0  0  0  0  0  0
    1.8518    9.1833    0.0000 C   0  0  0  0  0  0  0  0  0  0  0  0
    3.3291    9.4434    0.0000 H   0  0  0  0  0  0  0  0  0  0  0  0
    2.3648    7.7738    0.0000 H   0  0  0  0  0  0  0  0  0  0  0  0
    0.5522    8.4327    0.0000 C   0  0  0  0  0  0  0  0  0  0  0  0
    1.5164    7.2837    0.0000 H   0  0  0  0  0  0  0  0  0  0  0  0
   -0.4120    7.2837    0.0000 H   0  0  0  0  0  0  0  0  0  0  0  0
   -0.7467    9.1829    0.0000 N   0  0  0  0  0  0  0  0  0  0  0  0
   -0.7460   10.6838    0.0000 C   0  0  0  0  0  0  0  0  0  0  0  0
   -2.2233   10.4237    0.0000 H   0  0  0  0  0  0  0  0  0  0  0  0
   -1.2589   12.0933    0.0000 H   0  0  0  0  0  0  0  0  0  0  0  0
    0.5536   11.4344    0.0000 C   0  0  0  0  0  0  0  0  0  0  0  0
   -0.4106   12.5834    0.0000 H   0  0  0  0  0  0  0  0  0  0  0  0
    1.5179   12.5834    0.0000 H   0  0  0  0  0  0  0  0  0  0  0  0
   -2.0460    8.4333    0.0000 C   0  0  0  0  0  0  0  0  0  0  0  0
   -3.3456    9.1840    0.0000 C   0  0  0  0  0  0  0  0  0  0  0  0
   -3.3449   10.6840    0.0000 H   0  0  0  0  0  0  0  0  0  0  0  0
   -4.6460    8.4346    0.0000 C   0  0  0  0  0  0  0  0  0  0  0  0
   -5.9445    9.1854    0.0000 H   0  0  0  0  0  0  0  0  0  0  0  0
   -4.6467    6.9346    0.0000 C   0  0  0  0  0  0  0  0  0  0  0  0
   -3.3471    6.1840    0.0000 C   0  0  0  0  0  0  0  0  0  0  0  0
   -2.0467    6.9333    0.0000 C   0  0  0  0  0  0  0  0  0  0  0  0
   -0.7482    6.1825    0.0000 H   0  0  0  0  0  0  0  0  0  0  0  0
   -3.3483    3.7240    0.0000 O   0  0  0  0  0  0  0  0  0  0  0  0
   -2.0496    2.9733    0.0000 C   0  0  0  0  0  0  0  0  0  0  0  0
   -2.0501    1.4725    0.0000 C   0  0  0  0  0  0  0  0  0  0  0  0
   -3.3496    0.7233    0.0000 H   0  0  0  0  0  0  0  0  0  0  0  0
   -0.7510    0.7208    0.0000 C   0  0  0  0  0  0  0  0  0  0  0  0
    0.5485    1.4700    0.0000 C   0  0  0  0  0  0  0  0  0  0  0  0
    1.6612    0.4609    0.0000 N   0  0  0  0  0  0  0  0  0  0  0  0
    3.1290    0.7700    0.0000 H   0  0  0  0  0  0  0  0  0  0  0  0
    1.0525   -0.9058    0.0000 C   0  0  0  0  0  0  0  0  0  0  0  0
    1.8016   -2.2053    0.0000 H   0  0  0  0  0  0  0  0  0  0  0  0
   -0.4353   -0.7478    0.0000 C   0  0  0  0  0  0  0  0  0  0  0  0
   -1.4384   -1.8631    0.0000 H   0  0  0  0  0  0  0  0  0  0  0  0
    0.5490    2.9708    0.0000 N   0  0  0  0  0  0  0  0  0  0  0  0
   -0.7501    3.7225    0.0000 C   0  0  0  0  0  0  0  0  0  0  0  0
   -0.7489    5.2225    0.0000 H   0  0  0  0  0  0  0  0  0  0  0  0
   -5.9460    6.1850    0.0000 C   0  0  0  0  0  0  0  0  0  0  0  0
   -5.9465    4.6850    0.0000 O   0  0  0  0  0  0  0  0  0  0  0  0
   -7.2448    6.9354    0.0000 N   0  0  0  0  0  0  0  0  0  0  0  0
   -7.2443    8.4354    0.0000 H   0  0  0  0  0  0  0  0  0  0  0  0
   -8.5441    6.1858    0.0000 S   0  0  0  0  0  0  0  0  0  0  0  0
   -7.5803    5.0365    0.0000 O   0  0  0  0  0  0  0  0  0  0  0  0
   -9.5086    5.0371    0.0000 O   0  0  0  0  0  0  0  0  0  0  0  0
   -9.8429    6.9363    0.0000 C   0  0  0  0  0  0  0  0  0  0  0  0
   -9.8426    8.4371    0.0000 C   0  0  0  0  0  0  0  0  0  0  0  0
   -8.5432    9.1865    0.0000 H   0  0  0  0  0  0  0  0  0  0  0  0
  -11.1418    9.1885    0.0000 C   0  0  0  0  0  0  0  0  0  0  0  0
  -11.1408   10.6885    0.0000 H   0  0  0  0  0  0  0  0  0  0  0  0
  -12.4412    8.4392    0.0000 C   0  0  0  0  0  0  0  0  0  0  0  0
  -12.4414    6.9383    0.0000 C   0  0  0  0  0  0  0  0  0  0  0  0
  -11.1423    6.1869    0.0000 C   0  0  0  0  0  0  0  0  0  0  0  0
  -11.1432    4.6869    0.0000 H   0  0  0  0  0  0  0  0  0  0  0  0
  -13.7408    6.1890    0.0000 N   0  0  0  0  0  0  0  0  0  0  0  0
  -15.0395    6.9396    0.0000 O   0  0  0  0  0  0  0  0  0  0  0  0
  -13.7415    4.6890    0.0000 O   0  0  0  0  0  0  0  0  0  0  0  0
  -13.7400    9.1896    0.0000 N   0  0  0  0  0  0  0  0  0  0  0  0
  -15.0393    8.4400    0.0000 H   0  0  0  0  0  0  0  0  0  0  0  0
  -13.7395   10.6896    0.0000 C   0  0  0  0  0  0  0  0  0  0  0  0
  -12.2624   10.4286    0.0000 H   0  0  0  0  0  0  0  0  0  0  0  0
  -13.2260   12.0990    0.0000 H   0  0  0  0  0  0  0  0  0  0  0  0
  -15.8695   11.9203    0.0000 C   0  0  0  0  0  0  0  0  0  0  0  0
  -16.3827   10.5108    0.0000 H   0  0  0  0  0  0  0  0  0  0  0  0
  -14.9042   13.0695    0.0000 C   0  0  0  0  0  0  0  0  0  0  0  0
  -13.6049   13.8190    0.0000 H   0  0  0  0  0  0  0  0  0  0  0  0
  -13.9405   11.9200    0.0000 H   0  0  0  0  0  0  0  0  0  0  0  0
  -15.4169   14.4791    0.0000 C   0  0  0  0  0  0  0  0  0  0  0  0
  -15.4169   15.9791    0.0000 H   0  0  0  0  0  0  0  0  0  0  0  0
  -13.9397   14.7394    0.0000 H   0  0  0  0  0  0  0  0  0  0  0  0
  -16.8950   14.7396    0.0000 O   0  0  0  0  0  0  0  0  0  0  0  0
  -17.8603   13.5904    0.0000 C   0  0  0  0  0  0  0  0  0  0  0  0
  -19.1596   12.8408    0.0000 H   0  0  0  0  0  0  0  0  0  0  0  0
  -18.8240   14.7399    0.0000 H   0  0  0  0  0  0  0  0  0  0  0  0
  -17.3476   12.1807    0.0000 C   0  0  0  0  0  0  0  0  0  0  0  0
  -17.3476   10.6807    0.0000 H   0  0  0  0  0  0  0  0  0  0  0  0
  -18.8248   11.9204    0.0000 H   0  0  0  0  0  0  0  0  0  0  0  0
    5.6995   14.4036    0.0000 C   0  0  0  0  0  0  0  0  0  0  0  0
    5.7007   15.9044    0.0000 C   0  0  0  0  0  0  0  0  0  0  0  0
    6.2146   17.3136    0.0000 H   0  0  0  0  0  0  0  0  0  0  0  0
    7.1777   15.6429    0.0000 H   0  0  0  0  0  0  0  0  0  0  0  0
    8.1224   14.8293    0.0000 C   0  0  0  0  0  0  0  0  0  0  0  0
    8.6326   16.2224    0.0000 C   0  0  0  0  0  0  0  0  0  0  0  0
    7.6670   17.3703    0.0000 H   0  0  0  0  0  0  0  0  0  0  0  0
   10.1086   16.4894    0.0000 C   0  0  0  0  0  0  0  0  0  0  0  0
   10.6067   17.9043    0.0000 H   0  0  0  0  0  0  0  0  0  0  0  0
   11.0843   15.3651    0.0000 C   0  0  0  0  0  0  0  0  0  0  0  0
   10.5697   13.9408    0.0000 C   0  0  0  0  0  0  0  0  0  0  0  0
   11.5377   12.7950    0.0000 H   0  0  0  0  0  0  0  0  0  0  0  0
    9.0936   13.6738    0.0000 C   0  0  0  0  0  0  0  0  0  0  0  0
    8.5843   12.2629    0.0000 H   0  0  0  0  0  0  0  0  0  0  0  0
   12.5590   15.6396    0.0000 Cl  0  0  0  0  0  0  0  0  0  0  0  0
    6.2120   12.9938    0.0000 O   0  0  0  0  0  0  0  0  0  0  0  0
    7.6891   12.7328    0.0000 H   0  0  0  0  0  0  0  0  0  0  0  0
  1  2  1  0  0  0  0 
  1  3  1  0  0  0  0 
  1  4  1  0  0  0  0 
  1  5  1  0  0  0  0 
  5  6  1  0  0  0  0 
  6  7  1  0  0  0  0 
  6  8  1  0  0  0  0 
  6  9  1  0  0  0  0 
  5 10  1  0  0  0  0 
 10 11  1  0  0  0  0 
 10 12  1  0  0  0  0 
 10 13  1  0  0  0  0 
 13 14  1  0  0  0  0 
 13 15  1  0  0  0  0 
 13 16  1  0  0  0  0 
 16 17  2  0  0  0  0 
 17 18  1  4  0  0  0 
 17 19  1  0  0  0  0 
 19 20  1  0  0  0  0 
 20 21  1  0  0  0  0 
 20 22  1  0  0  0  0 
 20 23  1  0  0  0  0 
 23 24  1  0  0  0  0 
 23 25  1  0  0  0  0 
 23 26  1  0  0  0  0 
 26 27  1  0  0  0  0 
 27 28  1  0  0  0  0 
 27 29  1  0  0  0  0 
 27 30  1  0  0  0  0 
 19 30  1  0  0  0  0 
 30 31  1  0  0  0  0 
 30 32  1  0  0  0  0 
 26 33  1  0  0  0  0 
 33 34  2  0  0  0  0 
 34 35  1  0  0  0  0 
 34 36  1  0  0  0  0 
 36 37  1  0  0  0  0 
 36 38  2  0  0  0  0 
 38 39  1  0  0  0  0 
 39 40  2  0  0  0  0 
 33 40  1  0  0  0  0 
 40 41  1  0  0  0  0 
 39 42  1  0  0  0  0 
 42 43  1  0  0  0  0 
 43 44  2  0  0  0  0 
 44 45  1  0  0  0  0 
 44 46  1  0  0  0  0 
 46 47  2  0  0  0  0 
 47 48  1  0  0  0  0 
 48 49  1  0  0  0  0 
 48 50  1  0  0  0  0 
 50 51  1  0  0  0  0 
 50 52  2  0  0  0  0 
 46 52  1  0  0  0  0 
 52 53  1  0  0  0  0 
 47 54  1  0  0  0  0 
 54 55  2  0  0  0  0 
 43 55  1  0  0  0  0 
 55 56  1  0  0  0  0 
 38 57  1  0  0  0  0 
 57 58  2  0  0  0  0 
 57 59  1  0  0  0  0 
 59 60  1  0  0  0  0 
 59 61  1  0  0  0  0 
 61 62  2  0  0  0  0 
 61 63  2  0  0  0  0 
 61 64  1  0  0  0  0 
 64 65  2  0  0  0  0 
 65 66  1  0  0  0  0 
 65 67  1  0  0  0  0 
 67 68  1  0  0  0  0 
 67 69  2  0  0  0  0 
 69 70  1  0  0  0  0 
 70 71  2  0  0  0  0 
 64 71  1  0  0  0  0 
 71 72  1  0  0  0  0 
 70 73  1  0  0  0  0 
 73 74  2  0  0  0  0 
 73 75  1  0  0  0  0 
 69 76  1  0  0  0  0 
 76 77  1  0  0  0  0 
 76 78  1  0  0  0  0 
 78 79  1  0  0  0  0 
 78 80  1  0  0  0  0 
 78 81  1  0  0  0  0 
 81 82  1  0  0  0  0 
 81 83  1  0  0  0  0 
 83 84  1  0  0  0  0 
 83 85  1  0  0  0  0 
 83 86  1  0  0  0  0 
 86 87  1  0  0  0  0 
 86 88  1  0  0  0  0 
 86 89  1  0  0  0  0 
 89 90  1  0  0  0  0 
 90 91  1  0  0  0  0 
 90 92  1  0  0  0  0 
 90 93  1  0  0  0  0 
 81 93  1  0  0  0  0 
 93 94  1  0  0  0  0 
 93 95  1  0  0  0  0 
 16 96  1  0  0  0  0 
 96 97  1  0  0  0  0 
  5 97  1  0  0  0  0 
 97 98  1  0  0  0  0 
 97 99  1  0  0  0  0 
 96100  1  0  0  0  0 
100101  2  0  0  0  0 
101102  1  0  0  0  0 
101103  1  0  0  0  0 
103104  1  0  0  0  0 
103105  2  0  0  0  0 
105106  1  0  0  0  0 
106107  1  0  0  0  0 
106108  2  0  0  0  0 
100108  1  0  0  0  0 
108109  1  0  0  0  0 
105110  1  0  0  0  0 
 96111  1  0  0  0  0 
111112  1  0  0  0  0 
M  CHG  1  73   1
M  CHG  1  75  -1
M  END
> <Rank>
56

> <Priority_score>
0.0328

> <Reaction_type>
aliphatic hydroxylation with allylic rearrangement 1

> <Parent_ID>
12

> <Parent_InChI>
InChI=1S/C45H50ClN7O7S/c1-45(2)15-11-33(39(26-45)31-3-5-34(46)6-4-31)29-51-17-19-52(20-18-51)35-7-9-38(42(24-35)60-36-23-32-12-16-47-43(32)49-28-36)44(54)50-61(57,58)37-8-10-40(41(25-37)53(55)56)48-27-30-13-21-59-22-14-30/h3-10,12,16,23-25,28,30,48H,11,13-15,17-22,26-27,29H2,1-2H3,(H,47,49)(H,50,54)

> <Parent_SMILES>
CC1(C)CCC(CN2CCN(c3ccc(C(=O)NS(=O)(=O)c4ccc(NCC5CCOCC5)c([N+](=O)[O-])c4)c(Oc4cnc5[nH]ccc5c4)c3)CC2)=C(c2ccc(Cl)cc2)C1

$$$$
Molecule 12_metabolite 58
  CDK     0516241031

112119  0  0  0  0  0  0  0  0999 V2000
    4.0755   19.0737    0.0000 C   0  0  0  0  0  0  0  0  0  0  0  0
    2.5982   18.8136    0.0000 H   0  0  0  0  0  0  0  0  0  0  0  0
    5.3747   19.8233    0.0000 H   0  0  0  0  0  0  0  0  0  0  0  0
    3.5628   20.4833    0.0000 H   0  0  0  0  0  0  0  0  0  0  0  0
    5.6562   17.1888    0.0000 C   0  0  0  0  0  0  0  0  0  0  0  0
    7.2382   19.0726    0.0000 C   0  0  0  0  0  0  0  0  0  0  0  0
    6.7257   20.4824    0.0000 H   0  0  0  0  0  0  0  0  0  0  0  0
    8.5375   19.8222    0.0000 H   0  0  0  0  0  0  0  0  0  0  0  0
    8.2019   17.9232    0.0000 H   0  0  0  0  0  0  0  0  0  0  0  0
    4.3563   16.4386    0.0000 C   0  0  0  0  0  0  0  0  0  0  0  0
    2.8790   16.1789    0.0000 H   0  0  0  0  0  0  0  0  0  0  0  0
    3.8438   17.8483    0.0000 H   0  0  0  0  0  0  0  0  0  0  0  0
    4.3551   14.9377    0.0000 C   0  0  0  0  0  0  0  0  0  0  0  0
    3.6768   13.0775    0.0000 H   0  0  0  0  0  0  0  0  0  0  0  0
    2.8781   15.1992    0.0000 H   0  0  0  0  0  0  0  0  0  0  0  0
    5.6538   14.1871    0.0000 C   0  0  0  0  0  0  0  0  0  0  0  0
    6.9537   14.9373    0.0000 C   0  0  0  0  0  0  0  0  0  0  0  0
    6.9549   16.4381    0.0000 C   0  0  0  0  0  0  0  0  0  0  0  0
    7.4688   17.8474    0.0000 H   0  0  0  0  0  0  0  0  0  0  0  0
    8.4319   16.1766    0.0000 H   0  0  0  0  0  0  0  0  0  0  0  0
    8.2524   14.1867    0.0000 C   0  0  0  0  0  0  0  0  0  0  0  0
    8.2519   12.6858    0.0000 C   0  0  0  0  0  0  0  0  0  0  0  0
    9.5509   11.9342    0.0000 C   0  0  0  0  0  0  0  0  0  0  0  0
    9.5497   10.4342    0.0000 H   0  0  0  0  0  0  0  0  0  0  0  0
   10.8505   12.6833    0.0000 C   0  0  0  0  0  0  0  0  0  0  0  0
   10.8509   14.1842    0.0000 C   0  0  0  0  0  0  0  0  0  0  0  0
   12.1505   14.9333    0.0000 H   0  0  0  0  0  0  0  0  0  0  0  0
    9.5519   14.9358    0.0000 C   0  0  0  0  0  0  0  0  0  0  0  0
    9.5531   16.4358    0.0000 H   0  0  0  0  0  0  0  0  0  0  0  0
   12.1491   11.9327    0.0000 Cl  0  0  0  0  0  0  0  0  0  0  0  0
    6.9524   11.9367    0.0000 O   0  0  0  0  0  0  0  0  0  0  0  0
    6.9514   10.4367    0.0000 H   0  0  0  0  0  0  0  0  0  0  0  0
    5.6533   12.6871    0.0000 C   0  0  0  0  0  0  0  0  0  0  0  0
    7.1306   12.9471    0.0000 H   0  0  0  0  0  0  0  0  0  0  0  0
    6.1659   11.2774    0.0000 H   0  0  0  0  0  0  0  0  0  0  0  0
    3.1068   11.2179    0.0000 N   0  0  0  0  0  0  0  0  0  0  0  0
    3.1060    9.7171    0.0000 C   0  0  0  0  0  0  0  0  0  0  0  0
    4.5833    9.9772    0.0000 H   0  0  0  0  0  0  0  0  0  0  0  0
    3.6190    8.3075    0.0000 H   0  0  0  0  0  0  0  0  0  0  0  0
    1.8064    8.9665    0.0000 C   0  0  0  0  0  0  0  0  0  0  0  0
    2.7706    7.8174    0.0000 H   0  0  0  0  0  0  0  0  0  0  0  0
    0.8422    7.8174    0.0000 H   0  0  0  0  0  0  0  0  0  0  0  0
    0.5075    9.7167    0.0000 N   0  0  0  0  0  0  0  0  0  0  0  0
    0.5082   11.2175    0.0000 C   0  0  0  0  0  0  0  0  0  0  0  0
   -0.9691   10.9574    0.0000 H   0  0  0  0  0  0  0  0  0  0  0  0
   -0.0048   12.6271    0.0000 H   0  0  0  0  0  0  0  0  0  0  0  0
    1.8078   11.9681    0.0000 C   0  0  0  0  0  0  0  0  0  0  0  0
    0.8436   13.1171    0.0000 H   0  0  0  0  0  0  0  0  0  0  0  0
    2.7721   13.1171    0.0000 H   0  0  0  0  0  0  0  0  0  0  0  0
   -0.7918    8.9671    0.0000 C   0  0  0  0  0  0  0  0  0  0  0  0
   -2.0914    9.7177    0.0000 C   0  0  0  0  0  0  0  0  0  0  0  0
   -2.0907   11.2177    0.0000 H   0  0  0  0  0  0  0  0  0  0  0  0
   -3.3918    8.9683    0.0000 C   0  0  0  0  0  0  0  0  0  0  0  0
   -4.6904    9.7192    0.0000 H   0  0  0  0  0  0  0  0  0  0  0  0
   -3.3925    7.4683    0.0000 C   0  0  0  0  0  0  0  0  0  0  0  0
   -2.0929    6.7177    0.0000 C   0  0  0  0  0  0  0  0  0  0  0  0
   -0.7925    7.4671    0.0000 C   0  0  0  0  0  0  0  0  0  0  0  0
    0.5060    6.7162    0.0000 H   0  0  0  0  0  0  0  0  0  0  0  0
   -2.0941    4.2577    0.0000 O   0  0  0  0  0  0  0  0  0  0  0  0
   -0.7954    3.5071    0.0000 C   0  0  0  0  0  0  0  0  0  0  0  0
   -0.7959    2.0062    0.0000 C   0  0  0  0  0  0  0  0  0  0  0  0
   -2.0954    1.2571    0.0000 H   0  0  0  0  0  0  0  0  0  0  0  0
    0.5032    1.2546    0.0000 C   0  0  0  0  0  0  0  0  0  0  0  0
    1.8027    2.0037    0.0000 C   0  0  0  0  0  0  0  0  0  0  0  0
    2.9154    0.9946    0.0000 N   0  0  0  0  0  0  0  0  0  0  0  0
    4.3832    1.3037    0.0000 H   0  0  0  0  0  0  0  0  0  0  0  0
    2.3066   -0.3721    0.0000 C   0  0  0  0  0  0  0  0  0  0  0  0
    3.0558   -1.6716    0.0000 H   0  0  0  0  0  0  0  0  0  0  0  0
    0.8189   -0.2140    0.0000 C   0  0  0  0  0  0  0  0  0  0  0  0
   -0.1842   -1.3293    0.0000 H   0  0  0  0  0  0  0  0  0  0  0  0
    1.8032    3.5046    0.0000 N   0  0  0  0  0  0  0  0  0  0  0  0
    0.5041    4.2562    0.0000 C   0  0  0  0  0  0  0  0  0  0  0  0
    0.5053    5.7562    0.0000 H   0  0  0  0  0  0  0  0  0  0  0  0
   -4.6918    6.7187    0.0000 C   0  0  0  0  0  0  0  0  0  0  0  0
   -4.6923    5.2187    0.0000 O   0  0  0  0  0  0  0  0  0  0  0  0
   -5.9906    7.4692    0.0000 N   0  0  0  0  0  0  0  0  0  0  0  0
   -5.9901    8.9692    0.0000 H   0  0  0  0  0  0  0  0  0  0  0  0
   -7.2899    6.7196    0.0000 S   0  0  0  0  0  0  0  0  0  0  0  0
   -6.3261    5.5702    0.0000 O   0  0  0  0  0  0  0  0  0  0  0  0
   -8.2544    5.5708    0.0000 O   0  0  0  0  0  0  0  0  0  0  0  0
   -8.5887    7.4700    0.0000 C   0  0  0  0  0  0  0  0  0  0  0  0
   -8.5884    8.9708    0.0000 C   0  0  0  0  0  0  0  0  0  0  0  0
   -7.2890    9.7202    0.0000 H   0  0  0  0  0  0  0  0  0  0  0  0
   -9.8876    9.7223    0.0000 C   0  0  0  0  0  0  0  0  0  0  0  0
   -9.8866   11.2223    0.0000 H   0  0  0  0  0  0  0  0  0  0  0  0
  -11.1870    8.9729    0.0000 C   0  0  0  0  0  0  0  0  0  0  0  0
  -11.1872    7.4721    0.0000 C   0  0  0  0  0  0  0  0  0  0  0  0
   -9.8881    6.7206    0.0000 C   0  0  0  0  0  0  0  0  0  0  0  0
   -9.8890    5.2206    0.0000 H   0  0  0  0  0  0  0  0  0  0  0  0
  -12.4866    6.7227    0.0000 N   0  0  0  0  0  0  0  0  0  0  0  0
  -13.7853    7.4733    0.0000 O   0  0  0  0  0  0  0  0  0  0  0  0
  -12.4874    5.2227    0.0000 O   0  0  0  0  0  0  0  0  0  0  0  0
  -12.4858    9.7233    0.0000 N   0  0  0  0  0  0  0  0  0  0  0  0
  -13.7851    8.9737    0.0000 H   0  0  0  0  0  0  0  0  0  0  0  0
  -12.4853   11.2233    0.0000 C   0  0  0  0  0  0  0  0  0  0  0  0
  -11.0082   10.9624    0.0000 H   0  0  0  0  0  0  0  0  0  0  0  0
  -11.9718   12.6327    0.0000 H   0  0  0  0  0  0  0  0  0  0  0  0
  -14.6153   12.4540    0.0000 C   0  0  0  0  0  0  0  0  0  0  0  0
  -15.1285   11.0445    0.0000 H   0  0  0  0  0  0  0  0  0  0  0  0
  -13.6500   13.6032    0.0000 C   0  0  0  0  0  0  0  0  0  0  0  0
  -12.3507   14.3528    0.0000 H   0  0  0  0  0  0  0  0  0  0  0  0
  -12.6863   12.4537    0.0000 H   0  0  0  0  0  0  0  0  0  0  0  0
  -14.1627   15.0128    0.0000 C   0  0  0  0  0  0  0  0  0  0  0  0
  -14.1627   16.5128    0.0000 H   0  0  0  0  0  0  0  0  0  0  0  0
  -12.6855   15.2732    0.0000 H   0  0  0  0  0  0  0  0  0  0  0  0
  -15.6408   15.2733    0.0000 O   0  0  0  0  0  0  0  0  0  0  0  0
  -16.6061   14.1241    0.0000 C   0  0  0  0  0  0  0  0  0  0  0  0
  -17.9054   13.3745    0.0000 H   0  0  0  0  0  0  0  0  0  0  0  0
  -17.5698   15.2736    0.0000 H   0  0  0  0  0  0  0  0  0  0  0  0
  -16.0934   12.7145    0.0000 C   0  0  0  0  0  0  0  0  0  0  0  0
  -16.0934   11.2145    0.0000 H   0  0  0  0  0  0  0  0  0  0  0  0
  -17.5706   12.4541    0.0000 H   0  0  0  0  0  0  0  0  0  0  0  0
  1  2  1  0  0  0  0 
  1  3  1  0  0  0  0 
  1  4  1  0  0  0  0 
  1  5  1  0  0  0  0 
  5  6  1  0  0  0  0 
  6  7  1  0  0  0  0 
  6  8  1  0  0  0  0 
  6  9  1  0  0  0  0 
  5 10  1  0  0  0  0 
 10 11  1  0  0  0  0 
 10 12  1  0  0  0  0 
 10 13  1  0  0  0  0 
 13 14  1  0  0  0  0 
 13 15  1  0  0  0  0 
 13 16  1  0  0  0  0 
 16 17  2  0  0  0  0 
 17 18  1  0  0  0  0 
  5 18  1  0  0  0  0 
 18 19  1  0  0  0  0 
 18 20  1  0  0  0  0 
 17 21  1  0  0  0  0 
 21 22  2  0  0  0  0 
 22 23  1  0  0  0  0 
 23 24  1  0  0  0  0 
 23 25  2  0  0  0  0 
 25 26  1  0  0  0  0 
 26 27  1  0  0  0  0 
 26 28  2  0  0  0  0 
 21 28  1  0  0  0  0 
 28 29  1  0  0  0  0 
 25 30  1  0  0  0  0 
 22 31  1  0  0  0  0 
 31 32  1  0  0  0  0 
 16 33  1  0  0  0  0 
 33 34  1  0  0  0  0 
 33 35  1  0  0  0  0 
 33 36  1  0  0  0  0 
 36 37  1  0  0  0  0 
 37 38  1  0  0  0  0 
 37 39  1  0  0  0  0 
 37 40  1  0  0  0  0 
 40 41  1  0  0  0  0 
 40 42  1  0  0  0  0 
 40 43  1  0  0  0  0 
 43 44  1  0  0  0  0 
 44 45  1  0  0  0  0 
 44 46  1  0  0  0  0 
 44 47  1  0  0  0  0 
 36 47  1  0  0  0  0 
 47 48  1  0  0  0  0 
 47 49  1  0  0  0  0 
 43 50  1  0  0  0  0 
 50 51  2  0  0  0  0 
 51 52  1  0  0  0  0 
 51 53  1  0  0  0  0 
 53 54  1  0  0  0  0 
 53 55  2  0  0  0  0 
 55 56  1  0  0  0  0 
 56 57  2  0  0  0  0 
 50 57  1  0  0  0  0 
 57 58  1  0  0  0  0 
 56 59  1  0  0  0  0 
 59 60  1  0  0  0  0 
 60 61  2  0  0  0  0 
 61 62  1  0  0  0  0 
 61 63  1  0  0  0  0 
 63 64  2  0  0  0  0 
 64 65  1  0  0  0  0 
 65 66  1  0  0  0  0 
 65 67  1  0  0  0  0 
 67 68  1  0  0  0  0 
 67 69  2  0  0  0  0 
 63 69  1  0  0  0  0 
 69 70  1  0  0  0  0 
 64 71  1  0  0  0  0 
 71 72  2  0  0  0  0 
 60 72  1  0  0  0  0 
 72 73  1  0  0  0  0 
 55 74  1  0  0  0  0 
 74 75  2  0  0  0  0 
 74 76  1  0  0  0  0 
 76 77  1  0  0  0  0 
 76 78  1  0  0  0  0 
 78 79  2  0  0  0  0 
 78 80  2  0  0  0  0 
 78 81  1  0  0  0  0 
 81 82  2  0  0  0  0 
 82 83  1  0  0  0  0 
 82 84  1  0  0  0  0 
 84 85  1  0  0  0  0 
 84 86  2  0  0  0  0 
 86 87  1  0  0  0  0 
 87 88  2  0  0  0  0 
 81 88  1  0  0  0  0 
 88 89  1  0  0  0  0 
 87 90  1  0  0  0  0 
 90 91  2  0  0  0  0 
 90 92  1  0  0  0  0 
 86 93  1  0  0  0  0 
 93 94  1  0  0  0  0 
 93 95  1  0  0  0  0 
 95 96  1  0  0  0  0 
 95 97  1  0  0  0  0 
 95 98  1  0  0  0  0 
 98 99  1  0  0  0  0 
 98100  1  0  0  0  0 
100101  1  0  0  0  0 
100102  1  0  0  0  0 
100103  1  0  0  0  0 
103104  1  0  0  0  0 
103105  1  0  0  0  0 
103106  1  0  0  0  0 
106107  1  0  0  0  0 
107108  1  0  0  0  0 
107109  1  0  0  0  0 
107110  1  0  0  0  0 
 98110  1  0  0  0  0 
110111  1  0  0  0  0 
110112  1  0  0  0  0 
M  CHG  1  90   1
M  CHG  1  92  -1
M  END
> <Rank>
58

> <Priority_score>
0.032

> <Reaction_type>
aromatic hydroxylation

> <Parent_ID>
12

> <Parent_InChI>
InChI=1S/C45H50ClN7O7S/c1-45(2)15-11-33(39(26-45)31-3-5-34(46)6-4-31)29-51-17-19-52(20-18-51)35-7-9-38(42(24-35)60-36-23-32-12-16-47-43(32)49-28-36)44(54)50-61(57,58)37-8-10-40(41(25-37)53(55)56)48-27-30-13-21-59-22-14-30/h3-10,12,16,23-25,28,30,48H,11,13-15,17-22,26-27,29H2,1-2H3,(H,47,49)(H,50,54)

> <Parent_SMILES>
CC1(C)CCC(CN2CCN(c3ccc(C(=O)NS(=O)(=O)c4ccc(NCC5CCOCC5)c([N+](=O)[O-])c4)c(Oc4cnc5[nH]ccc5c4)c3)CC2)=C(c2ccc(Cl)cc2)C1

$$$$
Molecule 12_metabolite 59
  CDK     0516241031

109116  0  0  0  0  0  0  0  0999 V2000
    4.0755   19.0737    0.0000 C   0  0  0  0  0  0  0  0  0  0  0  0
    2.5982   18.8136    0.0000 H   0  0  0  0  0  0  0  0  0  0  0  0
    5.3747   19.8233    0.0000 H   0  0  0  0  0  0  0  0  0  0  0  0
    3.5628   20.4833    0.0000 H   0  0  0  0  0  0  0  0  0  0  0  0
    5.6562   17.1888    0.0000 C   0  0  0  0  0  0  0  0  0  0  0  0
    7.2382   19.0726    0.0000 C   0  0  0  0  0  0  0  0  0  0  0  0
    6.7257   20.4824    0.0000 H   0  0  0  0  0  0  0  0  0  0  0  0
    8.5375   19.8222    0.0000 H   0  0  0  0  0  0  0  0  0  0  0  0
    8.2019   17.9232    0.0000 H   0  0  0  0  0  0  0  0  0  0  0  0
    4.3563   16.4386    0.0000 C   0  0  0  0  0  0  0  0  0  0  0  0
    2.8790   16.1789    0.0000 H   0  0  0  0  0  0  0  0  0  0  0  0
    3.8438   17.8483    0.0000 H   0  0  0  0  0  0  0  0  0  0  0  0
    4.3551   14.9377    0.0000 C   0  0  0  0  0  0  0  0  0  0  0  0
    3.6768   13.0775    0.0000 H   0  0  0  0  0  0  0  0  0  0  0  0
    2.8781   15.1992    0.0000 H   0  0  0  0  0  0  0  0  0  0  0  0
    5.6538   14.1871    0.0000 C   0  0  0  0  0  0  0  0  0  0  0  0
    6.9537   14.9373    0.0000 C   0  0  0  0  0  0  0  0  0  0  0  0
    6.9549   16.4381    0.0000 C   0  0  0  0  0  0  0  0  0  0  0  0
    7.4688   17.8474    0.0000 H   0  0  0  0  0  0  0  0  0  0  0  0
    8.4319   16.1766    0.0000 H   0  0  0  0  0  0  0  0  0  0  0  0
    8.2524   14.1867    0.0000 C   0  0  0  0  0  0  0  0  0  0  0  0
    9.5386   14.9260    0.0000 C   0  0  0  0  0  0  0  0  0  0  0  0
    9.5365   16.4260    0.0000 H   0  0  0  0  0  0  0  0  0  0  0  0
   10.8410   14.1819    0.0000 C   0  0  0  0  0  0  0  0  0  0  0  0
   12.1320   14.9457    0.0000 H   0  0  0  0  0  0  0  0  0  0  0  0
   10.8659   12.6935    0.0000 C   0  0  0  0  0  0  0  0  0  0  0  0
    9.5562   11.9331    0.0000 C   0  0  0  0  0  0  0  0  0  0  0  0
    9.5614   10.4331    0.0000 H   0  0  0  0  0  0  0  0  0  0  0  0
    8.2538   12.6772    0.0000 C   0  0  0  0  0  0  0  0  0  0  0  0
    6.9568   11.9236    0.0000 H   0  0  0  0  0  0  0  0  0  0  0  0
   12.1721   11.9560    0.0000 Cl  0  0  0  0  0  0  0  0  0  0  0  0
    5.6533   12.6871    0.0000 C   0  0  0  0  0  0  0  0  0  0  0  0
    7.1306   12.9471    0.0000 H   0  0  0  0  0  0  0  0  0  0  0  0
    6.1659   11.2774    0.0000 H   0  0  0  0  0  0  0  0  0  0  0  0
    3.1068   11.2179    0.0000 N   0  0  0  0  0  0  0  0  0  0  0  0
    3.1060    9.7171    0.0000 C   0  0  0  0  0  0  0  0  0  0  0  0
    4.5833    9.9772    0.0000 H   0  0  0  0  0  0  0  0  0  0  0  0
    3.6190    8.3075    0.0000 H   0  0  0  0  0  0  0  0  0  0  0  0
    1.8064    8.9665    0.0000 C   0  0  0  0  0  0  0  0  0  0  0  0
    2.7706    7.8174    0.0000 H   0  0  0  0  0  0  0  0  0  0  0  0
    0.8422    7.8174    0.0000 H   0  0  0  0  0  0  0  0  0  0  0  0
    0.5075    9.7167    0.0000 N   0  0  0  0  0  0  0  0  0  0  0  0
    0.5082   11.2175    0.0000 C   0  0  0  0  0  0  0  0  0  0  0  0
   -0.9691   10.9574    0.0000 H   0  0  0  0  0  0  0  0  0  0  0  0
   -0.0048   12.6271    0.0000 H   0  0  0  0  0  0  0  0  0  0  0  0
    1.8078   11.9681    0.0000 C   0  0  0  0  0  0  0  0  0  0  0  0
    0.8436   13.1171    0.0000 H   0  0  0  0  0  0  0  0  0  0  0  0
    2.7721   13.1171    0.0000 H   0  0  0  0  0  0  0  0  0  0  0  0
   -0.7918    8.9671    0.0000 C   0  0  0  0  0  0  0  0  0  0  0  0
   -2.0914    9.7177    0.0000 C   0  0  0  0  0  0  0  0  0  0  0  0
   -2.0907   11.2177    0.0000 H   0  0  0  0  0  0  0  0  0  0  0  0
   -3.3918    8.9683    0.0000 C   0  0  0  0  0  0  0  0  0  0  0  0
   -4.6904    9.7192    0.0000 H   0  0  0  0  0  0  0  0  0  0  0  0
   -3.3925    7.4683    0.0000 C   0  0  0  0  0  0  0  0  0  0  0  0
   -2.0929    6.7177    0.0000 C   0  0  0  0  0  0  0  0  0  0  0  0
   -0.7925    7.4671    0.0000 C   0  0  0  0  0  0  0  0  0  0  0  0
    0.5060    6.7162    0.0000 H   0  0  0  0  0  0  0  0  0  0  0  0
   -2.0941    4.2577    0.0000 O   0  0  0  0  0  0  0  0  0  0  0  0
   -0.7954    3.5071    0.0000 C   0  0  0  0  0  0  0  0  0  0  0  0
   -0.7959    2.0062    0.0000 C   0  0  0  0  0  0  0  0  0  0  0  0
   -2.0954    1.2571    0.0000 H   0  0  0  0  0  0  0  0  0  0  0  0
    0.5032    1.2546    0.0000 C   0  0  0  0  0  0  0  0  0  0  0  0
    1.8027    2.0037    0.0000 C   0  0  0  0  0  0  0  0  0  0  0  0
    2.9154    0.9946    0.0000 N   0  0  0  0  0  0  0  0  0  0  0  0
    4.3832    1.3037    0.0000 H   0  0  0  0  0  0  0  0  0  0  0  0
    2.3066   -0.3721    0.0000 C   0  0  0  0  0  0  0  0  0  0  0  0
    3.0558   -1.6716    0.0000 H   0  0  0  0  0  0  0  0  0  0  0  0
    0.8189   -0.2140    0.0000 C   0  0  0  0  0  0  0  0  0  0  0  0
   -0.1842   -1.3293    0.0000 H   0  0  0  0  0  0  0  0  0  0  0  0
    1.8032    3.5046    0.0000 N   0  0  0  0  0  0  0  0  0  0  0  0
    0.5041    4.2562    0.0000 C   0  0  0  0  0  0  0  0  0  0  0  0
    0.5053    5.7562    0.0000 H   0  0  0  0  0  0  0  0  0  0  0  0
   -4.6918    6.7187    0.0000 C   0  0  0  0  0  0  0  0  0  0  0  0
   -4.6923    5.2187    0.0000 O   0  0  0  0  0  0  0  0  0  0  0  0
   -5.9906    7.4692    0.0000 N   0  0  0  0  0  0  0  0  0  0  0  0
   -5.9901    8.9692    0.0000 H   0  0  0  0  0  0  0  0  0  0  0  0
   -7.2899    6.7196    0.0000 S   0  0  0  0  0  0  0  0  0  0  0  0
   -6.3261    5.5702    0.0000 O   0  0  0  0  0  0  0  0  0  0  0  0
   -8.2544    5.5708    0.0000 O   0  0  0  0  0  0  0  0  0  0  0  0
   -8.5887    7.4700    0.0000 C   0  0  0  0  0  0  0  0  0  0  0  0
   -8.5884    8.9708    0.0000 C   0  0  0  0  0  0  0  0  0  0  0  0
   -7.2890    9.7202    0.0000 H   0  0  0  0  0  0  0  0  0  0  0  0
   -9.8876    9.7223    0.0000 C   0  0  0  0  0  0  0  0  0  0  0  0
   -9.8866   11.2223    0.0000 H   0  0  0  0  0  0  0  0  0  0  0  0
  -11.1870    8.9729    0.0000 C   0  0  0  0  0  0  0  0  0  0  0  0
  -11.1872    7.4721    0.0000 C   0  0  0  0  0  0  0  0  0  0  0  0
   -9.8881    6.7206    0.0000 C   0  0  0  0  0  0  0  0  0  0  0  0
   -9.8890    5.2206    0.0000 H   0  0  0  0  0  0  0  0  0  0  0  0
  -12.4866    6.7227    0.0000 N   0  0  0  0  0  0  0  0  0  0  0  0
  -13.7853    7.4733    0.0000 O   0  0  0  0  0  0  0  0  0  0  0  0
  -12.4874    5.2227    0.0000 O   0  0  0  0  0  0  0  0  0  0  0  0
  -12.4858    9.7233    0.0000 N   0  0  0  0  0  0  0  0  0  0  0  0
  -12.4853   11.2233    0.0000 H   0  0  0  0  0  0  0  0  0  0  0  0
  -13.7851    8.9737    0.0000 C   0  0  0  0  0  0  0  0  0  0  0  0
  -12.8213    7.8244    0.0000 H   0  0  0  0  0  0  0  0  0  0  0  0
  -14.7496    7.8250    0.0000 H   0  0  0  0  0  0  0  0  0  0  0  0
  -15.0839    9.7242    0.0000 C   0  0  0  0  0  0  0  0  0  0  0  0
  -16.3836    8.9737    0.0000 C   0  0  0  0  0  0  0  0  0  0  0  0
  -16.3839    7.4737    0.0000 H   0  0  0  0  0  0  0  0  0  0  0  0
  -17.6824    9.7242    0.0000 C   0  0  0  0  0  0  0  0  0  0  0  0
  -19.1595    9.9854    0.0000 H   0  0  0  0  0  0  0  0  0  0  0  0
  -18.1961    8.3148    0.0000 H   0  0  0  0  0  0  0  0  0  0  0  0
  -17.6815   11.2250    0.0000 O   0  0  0  0  0  0  0  0  0  0  0  0
  -16.3817   11.9754    0.0000 C   0  0  0  0  0  0  0  0  0  0  0  0
  -15.4173   13.1243    0.0000 H   0  0  0  0  0  0  0  0  0  0  0  0
  -17.3458   13.1246    0.0000 H   0  0  0  0  0  0  0  0  0  0  0  0
  -15.0829   11.2250    0.0000 C   0  0  0  0  0  0  0  0  0  0  0  0
  -13.6058   10.9637    0.0000 H   0  0  0  0  0  0  0  0  0  0  0  0
  -14.5693   12.6343    0.0000 H   0  0  0  0  0  0  0  0  0  0  0  0
  1  2  1  0  0  0  0 
  1  3  1  0  0  0  0 
  1  4  1  0  0  0  0 
  1  5  1  0  0  0  0 
  5  6  1  0  0  0  0 
  6  7  1  0  0  0  0 
  6  8  1  0  0  0  0 
  6  9  1  0  0  0  0 
  5 10  1  0  0  0  0 
 10 11  1  0  0  0  0 
 10 12  1  0  0  0  0 
 10 13  1  0  0  0  0 
 13 14  1  0  0  0  0 
 13 15  1  0  0  0  0 
 13 16  1  0  0  0  0 
 16 17  2  0  0  0  0 
 17 18  1  0  0  0  0 
  5 18  1  0  0  0  0 
 18 19  1  0  0  0  0 
 18 20  1  0  0  0  0 
 17 21  1  0  0  0  0 
 21 22  2  0  0  0  0 
 22 23  1  0  0  0  0 
 22 24  1  0  0  0  0 
 24 25  1  0  0  0  0 
 24 26  2  0  0  0  0 
 26 27  1  0  0  0  0 
 27 28  1  0  0  0  0 
 27 29  2  0  0  0  0 
 21 29  1  0  0  0  0 
 29 30  1  0  0  0  0 
 26 31  1  0  0  0  0 
 16 32  1  0  0  0  0 
 32 33  1  0  0  0  0 
 32 34  1  0  0  0  0 
 32 35  1  0  0  0  0 
 35 36  1  0  0  0  0 
 36 37  1  0  0  0  0 
 36 38  1  0  0  0  0 
 36 39  1  0  0  0  0 
 39 40  1  0  0  0  0 
 39 41  1  0  0  0  0 
 39 42  1  0  0  0  0 
 42 43  1  0  0  0  0 
 43 44  1  0  0  0  0 
 43 45  1  0  0  0  0 
 43 46  1  0  0  0  0 
 35 46  1  0  0  0  0 
 46 47  1  0  0  0  0 
 46 48  1  0  0  0  0 
 42 49  1  0  0  0  0 
 49 50  2  0  0  0  0 
 50 51  1  0  0  0  0 
 50 52  1  0  0  0  0 
 52 53  1  0  0  0  0 
 52 54  2  0  0  0  0 
 54 55  1  0  0  0  0 
 55 56  2  0  0  0  0 
 49 56  1  0  0  0  0 
 56 57  1  0  0  0  0 
 55 58  1  0  0  0  0 
 58 59  1  0  0  0  0 
 59 60  2  0  0  0  0 
 60 61  1  0  0  0  0 
 60 62  1  0  0  0  0 
 62 63  2  0  0  0  0 
 63 64  1  0  0  0  0 
 64 65  1  0  0  0  0 
 64 66  1  0  0  0  0 
 66 67  1  0  0  0  0 
 66 68  2  0  0  0  0 
 62 68  1  0  0  0  0 
 68 69  1  0  0  0  0 
 63 70  1  0  0  0  0 
 70 71  2  0  0  0  0 
 59 71  1  0  0  0  0 
 71 72  1  0  0  0  0 
 54 73  1  0  0  0  0 
 73 74  2  0  0  0  0 
 73 75  1  0  0  0  0 
 75 76  1  0  0  0  0 
 75 77  1  0  0  0  0 
 77 78  2  0  0  0  0 
 77 79  2  0  0  0  0 
 77 80  1  0  0  0  0 
 80 81  2  0  0  0  0 
 81 82  1  0  0  0  0 
 81 83  1  0  0  0  0 
 83 84  1  0  0  0  0 
 83 85  2  0  0  0  0 
 85 86  1  0  0  0  0 
 86 87  2  0  0  0  0 
 80 87  1  0  0  0  0 
 87 88  1  0  0  0  0 
 86 89  1  0  0  0  0 
 89 90  2  0  0  0  0 
 89 91  1  0  0  0  0 
 85 92  1  0  0  0  0 
 92 93  1  0  0  0  0 
 92 94  1  0  0  0  0 
 94 95  1  0  0  0  0 
 94 96  1  0  0  0  0 
 94 97  1  0  0  0  0 
 97 98  2  0  0  0  0 
 98 99  1  0  0  0  0 
 98100  1  0  0  0  0 
100101  1  0  0  0  0 
100102  1  0  0  0  0 
100103  1  0  0  0  0 
103104  1  0  0  0  0 
104105  1  0  0  0  0 
104106  1  0  0  0  0 
104107  1  0  0  0  0 
 97107  1  0  0  0  0 
107108  1  0  0  0  0 
107109  1  0  0  0  0 
M  CHG  1  89   1
M  CHG  1  91  -1
M  END
> <Rank>
59

> <Priority_score>
0.030279688927150567

> <Reaction_type>
alkyl dehydrogenation

> <Parent_ID>
12

> <Parent_InChI>
InChI=1S/C45H50ClN7O7S/c1-45(2)15-11-33(39(26-45)31-3-5-34(46)6-4-31)29-51-17-19-52(20-18-51)35-7-9-38(42(24-35)60-36-23-32-12-16-47-43(32)49-28-36)44(54)50-61(57,58)37-8-10-40(41(25-37)53(55)56)48-27-30-13-21-59-22-14-30/h3-10,12,16,23-25,28,30,48H,11,13-15,17-22,26-27,29H2,1-2H3,(H,47,49)(H,50,54)

> <Parent_SMILES>
CC1(C)CCC(CN2CCN(c3ccc(C(=O)NS(=O)(=O)c4ccc(NCC5CCOCC5)c([N+](=O)[O-])c4)c(Oc4cnc5[nH]ccc5c4)c3)CC2)=C(c2ccc(Cl)cc2)C1

$$$$
Molecule 12_metabolite 60
  CDK     0516241031

110117  0  0  0  0  0  0  0  0999 V2000
   -2.4139   30.3297    0.0000 C   0  0  0  0  0  0  0  0  0  0  0  0
   -3.8912   30.0699    0.0000 H   0  0  0  0  0  0  0  0  0  0  0  0
   -1.1145   31.0791    0.0000 H   0  0  0  0  0  0  0  0  0  0  0  0
   -2.9263   31.7395    0.0000 H   0  0  0  0  0  0  0  0  0  0  0  0
   -0.8334   28.4446    0.0000 C   0  0  0  0  0  0  0  0  0  0  0  0
    0.7488   30.3282    0.0000 C   0  0  0  0  0  0  0  0  0  0  0  0
    0.2366   31.7380    0.0000 H   0  0  0  0  0  0  0  0  0  0  0  0
    2.0483   31.0775    0.0000 H   0  0  0  0  0  0  0  0  0  0  0  0
    1.7124   29.1786    0.0000 H   0  0  0  0  0  0  0  0  0  0  0  0
   -2.1334   27.6946    0.0000 C   0  0  0  0  0  0  0  0  0  0  0  0
   -3.6108   27.4352    0.0000 H   0  0  0  0  0  0  0  0  0  0  0  0
   -2.6457   29.1044    0.0000 H   0  0  0  0  0  0  0  0  0  0  0  0
   -2.1349   26.1937    0.0000 C   0  0  0  0  0  0  0  0  0  0  0  0
   -2.8135   24.3336    0.0000 H   0  0  0  0  0  0  0  0  0  0  0  0
   -3.6119   26.4555    0.0000 H   0  0  0  0  0  0  0  0  0  0  0  0
   -0.8363   25.4429    0.0000 C   0  0  0  0  0  0  0  0  0  0  0  0
    0.4637   26.1929    0.0000 C   0  0  0  0  0  0  0  0  0  0  0  0
    0.4651   27.6937    0.0000 C   0  0  0  0  0  0  0  0  0  0  0  0
    0.9792   29.1029    0.0000 H   0  0  0  0  0  0  0  0  0  0  0  0
    1.9421   27.4320    0.0000 H   0  0  0  0  0  0  0  0  0  0  0  0
    1.7622   25.4421    0.0000 C   0  0  0  0  0  0  0  0  0  0  0  0
    3.0485   26.1812    0.0000 C   0  0  0  0  0  0  0  0  0  0  0  0
    3.0468   27.6812    0.0000 H   0  0  0  0  0  0  0  0  0  0  0  0
    4.3508   25.4369    0.0000 C   0  0  0  0  0  0  0  0  0  0  0  0
    5.6419   26.2005    0.0000 H   0  0  0  0  0  0  0  0  0  0  0  0
    4.3756   23.9485    0.0000 C   0  0  0  0  0  0  0  0  0  0  0  0
    3.0657   23.1883    0.0000 C   0  0  0  0  0  0  0  0  0  0  0  0
    3.0707   21.6883    0.0000 H   0  0  0  0  0  0  0  0  0  0  0  0
    1.7634   23.9326    0.0000 C   0  0  0  0  0  0  0  0  0  0  0  0
    0.4663   23.1792    0.0000 H   0  0  0  0  0  0  0  0  0  0  0  0
    5.6816   23.2108    0.0000 Cl  0  0  0  0  0  0  0  0  0  0  0  0
   -0.8370   23.9429    0.0000 C   0  0  0  0  0  0  0  0  0  0  0  0
   -0.3247   22.5331    0.0000 H   0  0  0  0  0  0  0  0  0  0  0  0
    0.6403   24.2027    0.0000 H   0  0  0  0  0  0  0  0  0  0  0  0
   -3.3839   22.4741    0.0000 N   0  0  0  0  0  0  0  0  0  0  0  0
   -4.6834   23.2250    0.0000 C   0  0  0  0  0  0  0  0  0  0  0  0
   -3.7186   24.3735    0.0000 H   0  0  0  0  0  0  0  0  0  0  0  0
   -5.6467   24.3747    0.0000 H   0  0  0  0  0  0  0  0  0  0  0  0
   -5.9839   22.4758    0.0000 C   0  0  0  0  0  0  0  0  0  0  0  0
   -7.2823   23.2268    0.0000 H   0  0  0  0  0  0  0  0  0  0  0  0
   -5.9848   20.9758    0.0000 N   0  0  0  0  0  0  0  0  0  0  0  0
   -4.6853   20.2250    0.0000 C   0  0  0  0  0  0  0  0  0  0  0  0
   -5.6501   19.0764    0.0000 H   0  0  0  0  0  0  0  0  0  0  0  0
   -3.7220   19.0752    0.0000 H   0  0  0  0  0  0  0  0  0  0  0  0
   -3.3848   20.9741    0.0000 C   0  0  0  0  0  0  0  0  0  0  0  0
   -2.8730   19.5641    0.0000 H   0  0  0  0  0  0  0  0  0  0  0  0
   -1.9074   21.2335    0.0000 H   0  0  0  0  0  0  0  0  0  0  0  0
   -7.2842   20.2264    0.0000 C   0  0  0  0  0  0  0  0  0  0  0  0
   -7.2852   18.7256    0.0000 C   0  0  0  0  0  0  0  0  0  0  0  0
   -5.9864   17.9752    0.0000 H   0  0  0  0  0  0  0  0  0  0  0  0
   -8.5849   17.9752    0.0000 C   0  0  0  0  0  0  0  0  0  0  0  0
   -9.8837   18.7256    0.0000 C   0  0  0  0  0  0  0  0  0  0  0  0
   -9.8828   20.2264    0.0000 C   0  0  0  0  0  0  0  0  0  0  0  0
  -11.1816   20.9768    0.0000 H   0  0  0  0  0  0  0  0  0  0  0  0
   -8.5830   20.9768    0.0000 C   0  0  0  0  0  0  0  0  0  0  0  0
   -8.5828   22.4768    0.0000 H   0  0  0  0  0  0  0  0  0  0  0  0
  -11.1831   17.9762    0.0000 C   0  0  0  0  0  0  0  0  0  0  0  0
  -11.1839   16.4762    0.0000 O   0  0  0  0  0  0  0  0  0  0  0  0
  -12.4818   18.7268    0.0000 N   0  0  0  0  0  0  0  0  0  0  0  0
  -12.4811   20.2268    0.0000 H   0  0  0  0  0  0  0  0  0  0  0  0
  -13.7812   17.9775    0.0000 S   0  0  0  0  0  0  0  0  0  0  0  0
  -12.8176   16.8279    0.0000 O   0  0  0  0  0  0  0  0  0  0  0  0
  -14.7459   16.8288    0.0000 O   0  0  0  0  0  0  0  0  0  0  0  0
  -15.0799   18.7281    0.0000 C   0  0  0  0  0  0  0  0  0  0  0  0
  -15.0794   20.2289    0.0000 C   0  0  0  0  0  0  0  0  0  0  0  0
  -13.7799   20.9781    0.0000 H   0  0  0  0  0  0  0  0  0  0  0  0
  -16.3784   20.9806    0.0000 C   0  0  0  0  0  0  0  0  0  0  0  0
  -16.3772   22.4806    0.0000 H   0  0  0  0  0  0  0  0  0  0  0  0
  -17.6780   20.2314    0.0000 C   0  0  0  0  0  0  0  0  0  0  0  0
  -17.6784   18.7306    0.0000 C   0  0  0  0  0  0  0  0  0  0  0  0
  -16.3794   17.9789    0.0000 C   0  0  0  0  0  0  0  0  0  0  0  0
  -16.3806   16.4789    0.0000 H   0  0  0  0  0  0  0  0  0  0  0  0
  -18.9780   17.9814    0.0000 N   0  0  0  0  0  0  0  0  0  0  0  0
  -20.2765   18.7322    0.0000 O   0  0  0  0  0  0  0  0  0  0  0  0
  -18.9789   16.4814    0.0000 O   0  0  0  0  0  0  0  0  0  0  0  0
  -18.9766   20.9820    0.0000 N   0  0  0  0  0  0  0  0  0  0  0  0
  -20.2760   20.2327    0.0000 H   0  0  0  0  0  0  0  0  0  0  0  0
  -18.9759   22.4820    0.0000 C   0  0  0  0  0  0  0  0  0  0  0  0
  -17.4988   22.2208    0.0000 H   0  0  0  0  0  0  0  0  0  0  0  0
  -18.4622   23.8913    0.0000 H   0  0  0  0  0  0  0  0  0  0  0  0
  -21.1057   23.7131    0.0000 C   0  0  0  0  0  0  0  0  0  0  0  0
  -21.6192   22.3037    0.0000 H   0  0  0  0  0  0  0  0  0  0  0  0
  -20.1402   24.8621    0.0000 C   0  0  0  0  0  0  0  0  0  0  0  0
  -18.8408   25.6115    0.0000 H   0  0  0  0  0  0  0  0  0  0  0  0
  -19.1767   23.7125    0.0000 H   0  0  0  0  0  0  0  0  0  0  0  0
  -20.6527   26.2718    0.0000 C   0  0  0  0  0  0  0  0  0  0  0  0
  -20.6525   27.7718    0.0000 H   0  0  0  0  0  0  0  0  0  0  0  0
  -19.1755   26.5319    0.0000 H   0  0  0  0  0  0  0  0  0  0  0  0
  -22.1308   26.5325    0.0000 O   0  0  0  0  0  0  0  0  0  0  0  0
  -23.0963   25.3835    0.0000 C   0  0  0  0  0  0  0  0  0  0  0  0
  -24.3957   24.6341    0.0000 H   0  0  0  0  0  0  0  0  0  0  0  0
  -24.0598   26.5331    0.0000 H   0  0  0  0  0  0  0  0  0  0  0  0
  -22.5838   23.9738    0.0000 C   0  0  0  0  0  0  0  0  0  0  0  0
  -22.5840   22.4738    0.0000 H   0  0  0  0  0  0  0  0  0  0  0  0
  -24.0610   23.7137    0.0000 H   0  0  0  0  0  0  0  0  0  0  0  0
   -8.5853   15.5152    0.0000 O   0  0  0  0  0  0  0  0  0  0  0  0
   -7.2864   14.7650    0.0000 C   0  0  0  0  0  0  0  0  0  0  0  0
   -7.2864   13.2641    0.0000 C   0  0  0  0  0  0  0  0  0  0  0  0
   -8.5857   12.5145    0.0000 H   0  0  0  0  0  0  0  0  0  0  0  0
   -5.9871   12.5129    0.0000 C   0  0  0  0  0  0  0  0  0  0  0  0
   -4.6879   13.2625    0.0000 C   0  0  0  0  0  0  0  0  0  0  0  0
   -3.5748   12.2537    0.0000 N   0  0  0  0  0  0  0  0  0  0  0  0
   -2.1071   12.5633    0.0000 H   0  0  0  0  0  0  0  0  0  0  0  0
   -4.1831   10.8868    0.0000 C   0  0  0  0  0  0  0  0  0  0  0  0
   -3.4336    9.5875    0.0000 H   0  0  0  0  0  0  0  0  0  0  0  0
   -5.6710   11.0444    0.0000 C   0  0  0  0  0  0  0  0  0  0  0  0
   -6.6737    9.9287    0.0000 H   0  0  0  0  0  0  0  0  0  0  0  0
   -4.6879   14.7633    0.0000 N   0  0  0  0  0  0  0  0  0  0  0  0
   -5.9871   15.5145    0.0000 C   0  0  0  0  0  0  0  0  0  0  0  0
   -5.9864   17.0145    0.0000 H   0  0  0  0  0  0  0  0  0  0  0  0
  1  2  1  0  0  0  0 
  1  3  1  0  0  0  0 
  1  4  1  0  0  0  0 
  1  5  1  0  0  0  0 
  5  6  1  0  0  0  0 
  6  7  1  0  0  0  0 
  6  8  1  0  0  0  0 
  6  9  1  0  0  0  0 
  5 10  1  0  0  0  0 
 10 11  1  0  0  0  0 
 10 12  1  0  0  0  0 
 10 13  1  0  0  0  0 
 13 14  1  0  0  0  0 
 13 15  1  0  0  0  0 
 13 16  1  0  0  0  0 
 16 17  2  0  0  0  0 
 17 18  1  0  0  0  0 
  5 18  1  0  0  0  0 
 18 19  1  0  0  0  0 
 18 20  1  0  0  0  0 
 17 21  1  0  0  0  0 
 21 22  2  0  0  0  0 
 22 23  1  0  0  0  0 
 22 24  1  0  0  0  0 
 24 25  1  0  0  0  0 
 24 26  2  0  0  0  0 
 26 27  1  0  0  0  0 
 27 28  1  0  0  0  0 
 27 29  2  0  0  0  0 
 21 29  1  0  0  0  0 
 29 30  1  0  0  0  0 
 26 31  1  0  0  0  0 
 16 32  1  0  0  0  0 
 32 33  1  0  0  0  0 
 32 34  1  0  0  0  0 
 32 35  1  0  0  0  0 
 35 36  1  0  0  0  0 
 36 37  1  0  0  0  0 
 36 38  1  0  0  0  0 
 36 39  1  0  0  0  0 
 39 40  1  0  0  0  0 
 39 41  2  0  0  0  0 
 41 42  1  0  0  0  0 
 42 43  1  0  0  0  0 
 42 44  1  0  0  0  0 
 42 45  1  0  0  0  0 
 35 45  1  0  0  0  0 
 45 46  1  0  0  0  0 
 45 47  1  0  0  0  0 
 41 48  1  0  0  0  0 
 48 49  2  0  0  0  0 
 49 50  1  0  0  0  0 
 49 51  1  0  0  0  0 
 51 52  2  0  0  0  0 
 52 53  1  0  0  0  0 
 53 54  1  0  0  0  0 
 53 55  2  0  0  0  0 
 48 55  1  0  0  0  0 
 55 56  1  0  0  0  0 
 52 57  1  0  0  0  0 
 57 58  2  0  0  0  0 
 57 59  1  0  0  0  0 
 59 60  1  0  0  0  0 
 59 61  1  0  0  0  0 
 61 62  2  0  0  0  0 
 61 63  2  0  0  0  0 
 61 64  1  0  0  0  0 
 64 65  2  0  0  0  0 
 65 66  1  0  0  0  0 
 65 67  1  0  0  0  0 
 67 68  1  0  0  0  0 
 67 69  2  0  0  0  0 
 69 70  1  0  0  0  0 
 70 71  2  0  0  0  0 
 64 71  1  0  0  0  0 
 71 72  1  0  0  0  0 
 70 73  1  0  0  0  0 
 73 74  2  0  0  0  0 
 73 75  1  0  0  0  0 
 69 76  1  0  0  0  0 
 76 77  1  0  0  0  0 
 76 78  1  0  0  0  0 
 78 79  1  0  0  0  0 
 78 80  1  0  0  0  0 
 78 81  1  0  0  0  0 
 81 82  1  0  0  0  0 
 81 83  1  0  0  0  0 
 83 84  1  0  0  0  0 
 83 85  1  0  0  0  0 
 83 86  1  0  0  0  0 
 86 87  1  0  0  0  0 
 86 88  1  0  0  0  0 
 86 89  1  0  0  0  0 
 89 90  1  0  0  0  0 
 90 91  1  0  0  0  0 
 90 92  1  0  0  0  0 
 90 93  1  0  0  0  0 
 81 93  1  0  0  0  0 
 93 94  1  0  0  0  0 
 93 95  1  0  0  0  0 
 51 96  1  0  0  0  0 
 96 97  1  0  0  0  0 
 97 98  2  0  0  0  0 
 98 99  1  0  0  0  0 
 98100  1  0  0  0  0 
100101  2  0  0  0  0 
101102  1  0  0  0  0 
102103  1  0  0  0  0 
102104  1  0  0  0  0 
104105  1  0  0  0  0 
104106  2  0  0  0  0 
100106  1  0  0  0  0 
106107  1  0  0  0  0 
101108  1  0  0  0  0 
108109  2  0  0  0  0 
 97109  1  0  0  0  0 
109110  1  0  0  0  0 
M  CHG  1  41   1
M  CHG  1  73   1
M  CHG  1  75  -1
M  END
> <Rank>
60

> <Priority_score>
0.0296

> <Reaction_type>
dehydration of N-C bond

> <Parent_ID>
12

> <Parent_InChI>
InChI=1S/C45H50ClN7O7S/c1-45(2)15-11-33(39(26-45)31-3-5-34(46)6-4-31)29-51-17-19-52(20-18-51)35-7-9-38(42(24-35)60-36-23-32-12-16-47-43(32)49-28-36)44(54)50-61(57,58)37-8-10-40(41(25-37)53(55)56)48-27-30-13-21-59-22-14-30/h3-10,12,16,23-25,28,30,48H,11,13-15,17-22,26-27,29H2,1-2H3,(H,47,49)(H,50,54)

> <Parent_SMILES>
CC1(C)CCC(CN2CCN(c3ccc(C(=O)NS(=O)(=O)c4ccc(NCC5CCOCC5)c([N+](=O)[O-])c4)c(Oc4cnc5[nH]ccc5c4)c3)CC2)=C(c2ccc(Cl)cc2)C1

$$$$
Molecule 12_metabolite 61
  CDK     0516241031

112119  0  0  0  0  0  0  0  0999 V2000
    4.0755   19.0737    0.0000 C   0  0  0  0  0  0  0  0  0  0  0  0
    2.5982   18.8136    0.0000 H   0  0  0  0  0  0  0  0  0  0  0  0
    5.3747   19.8233    0.0000 H   0  0  0  0  0  0  0  0  0  0  0  0
    3.5628   20.4833    0.0000 H   0  0  0  0  0  0  0  0  0  0  0  0
    5.6562   17.1888    0.0000 C   0  0  0  0  0  0  0  0  0  0  0  0
    7.2382   19.0726    0.0000 C   0  0  0  0  0  0  0  0  0  0  0  0
    6.7257   20.4824    0.0000 H   0  0  0  0  0  0  0  0  0  0  0  0
    8.5375   19.8222    0.0000 H   0  0  0  0  0  0  0  0  0  0  0  0
    8.2019   17.9232    0.0000 H   0  0  0  0  0  0  0  0  0  0  0  0
    4.3563   16.4386    0.0000 C   0  0  0  0  0  0  0  0  0  0  0  0
    2.8790   16.1789    0.0000 H   0  0  0  0  0  0  0  0  0  0  0  0
    3.8438   17.8483    0.0000 H   0  0  0  0  0  0  0  0  0  0  0  0
    4.3551   14.9377    0.0000 C   0  0  0  0  0  0  0  0  0  0  0  0
    3.6768   13.0775    0.0000 H   0  0  0  0  0  0  0  0  0  0  0  0
    2.8781   15.1992    0.0000 H   0  0  0  0  0  0  0  0  0  0  0  0
    5.6538   14.1871    0.0000 C   0  0  0  0  0  0  0  0  0  0  0  0
    6.9537   14.9373    0.0000 C   0  0  0  0  0  0  0  0  0  0  0  0
    6.9549   16.4381    0.0000 C   0  0  0  0  0  0  0  0  0  0  0  0
    7.4688   17.8474    0.0000 H   0  0  0  0  0  0  0  0  0  0  0  0
    8.4319   16.1766    0.0000 H   0  0  0  0  0  0  0  0  0  0  0  0
    8.2524   14.1867    0.0000 C   0  0  0  0  0  0  0  0  0  0  0  0
    8.2443   12.6867    0.0000 C   0  0  0  0  0  0  0  0  0  0  0  0
    6.9376   11.9502    0.0000 H   0  0  0  0  0  0  0  0  0  0  0  0
    9.5102   11.9298    0.0000 C   0  0  0  0  0  0  0  0  0  0  0  0
    9.4823   10.4301    0.0000 H   0  0  0  0  0  0  0  0  0  0  0  0
   10.8642   12.6725    0.0000 C   0  0  0  0  0  0  0  0  0  0  0  0
   10.8723   14.1725    0.0000 C   0  0  0  0  0  0  0  0  0  0  0  0
   12.1692   14.9262    0.0000 H   0  0  0  0  0  0  0  0  0  0  0  0
    9.5264   14.9298    0.0000 C   0  0  0  0  0  0  0  0  0  0  0  0
    9.5148   16.4298    0.0000 H   0  0  0  0  0  0  0  0  0  0  0  0
   12.1529   11.9049    0.0000 O   0  0  0  0  0  0  0  0  0  0  0  0
   13.4621   12.6371    0.0000 H   0  0  0  0  0  0  0  0  0  0  0  0
    5.6533   12.6871    0.0000 C   0  0  0  0  0  0  0  0  0  0  0  0
    7.1306   12.9471    0.0000 H   0  0  0  0  0  0  0  0  0  0  0  0
    6.1659   11.2774    0.0000 H   0  0  0  0  0  0  0  0  0  0  0  0
    3.1068   11.2179    0.0000 N   0  0  0  0  0  0  0  0  0  0  0  0
    3.1060    9.7171    0.0000 C   0  0  0  0  0  0  0  0  0  0  0  0
    4.5833    9.9772    0.0000 H   0  0  0  0  0  0  0  0  0  0  0  0
    3.6190    8.3075    0.0000 H   0  0  0  0  0  0  0  0  0  0  0  0
    1.8064    8.9665    0.0000 C   0  0  0  0  0  0  0  0  0  0  0  0
    2.7706    7.8174    0.0000 H   0  0  0  0  0  0  0  0  0  0  0  0
    0.8422    7.8174    0.0000 H   0  0  0  0  0  0  0  0  0  0  0  0
    0.5075    9.7167    0.0000 N   0  0  0  0  0  0  0  0  0  0  0  0
    0.5082   11.2175    0.0000 C   0  0  0  0  0  0  0  0  0  0  0  0
   -0.9691   10.9574    0.0000 H   0  0  0  0  0  0  0  0  0  0  0  0
   -0.0048   12.6271    0.0000 H   0  0  0  0  0  0  0  0  0  0  0  0
    1.8078   11.9681    0.0000 C   0  0  0  0  0  0  0  0  0  0  0  0
    0.8436   13.1171    0.0000 H   0  0  0  0  0  0  0  0  0  0  0  0
    2.7721   13.1171    0.0000 H   0  0  0  0  0  0  0  0  0  0  0  0
   -0.7918    8.9671    0.0000 C   0  0  0  0  0  0  0  0  0  0  0  0
   -2.0914    9.7177    0.0000 C   0  0  0  0  0  0  0  0  0  0  0  0
   -2.0907   11.2177    0.0000 H   0  0  0  0  0  0  0  0  0  0  0  0
   -3.3918    8.9683    0.0000 C   0  0  0  0  0  0  0  0  0  0  0  0
   -4.6904    9.7192    0.0000 H   0  0  0  0  0  0  0  0  0  0  0  0
   -3.3925    7.4683    0.0000 C   0  0  0  0  0  0  0  0  0  0  0  0
   -2.0929    6.7177    0.0000 C   0  0  0  0  0  0  0  0  0  0  0  0
   -0.7925    7.4671    0.0000 C   0  0  0  0  0  0  0  0  0  0  0  0
    0.5060    6.7162    0.0000 H   0  0  0  0  0  0  0  0  0  0  0  0
   -2.0941    4.2577    0.0000 O   0  0  0  0  0  0  0  0  0  0  0  0
   -0.7954    3.5071    0.0000 C   0  0  0  0  0  0  0  0  0  0  0  0
   -0.7959    2.0062    0.0000 C   0  0  0  0  0  0  0  0  0  0  0  0
   -2.0954    1.2571    0.0000 H   0  0  0  0  0  0  0  0  0  0  0  0
    0.5032    1.2546    0.0000 C   0  0  0  0  0  0  0  0  0  0  0  0
    1.8027    2.0037    0.0000 C   0  0  0  0  0  0  0  0  0  0  0  0
    2.9154    0.9946    0.0000 N   0  0  0  0  0  0  0  0  0  0  0  0
    4.3832    1.3037    0.0000 H   0  0  0  0  0  0  0  0  0  0  0  0
    2.3066   -0.3721    0.0000 C   0  0  0  0  0  0  0  0  0  0  0  0
    3.0558   -1.6716    0.0000 H   0  0  0  0  0  0  0  0  0  0  0  0
    0.8189   -0.2140    0.0000 C   0  0  0  0  0  0  0  0  0  0  0  0
   -0.1842   -1.3293    0.0000 H   0  0  0  0  0  0  0  0  0  0  0  0
    1.8032    3.5046    0.0000 N   0  0  0  0  0  0  0  0  0  0  0  0
    0.5041    4.2562    0.0000 C   0  0  0  0  0  0  0  0  0  0  0  0
    0.5053    5.7562    0.0000 H   0  0  0  0  0  0  0  0  0  0  0  0
   -4.6918    6.7187    0.0000 C   0  0  0  0  0  0  0  0  0  0  0  0
   -4.6923    5.2187    0.0000 O   0  0  0  0  0  0  0  0  0  0  0  0
   -5.9906    7.4692    0.0000 N   0  0  0  0  0  0  0  0  0  0  0  0
   -5.9901    8.9692    0.0000 H   0  0  0  0  0  0  0  0  0  0  0  0
   -7.2899    6.7196    0.0000 S   0  0  0  0  0  0  0  0  0  0  0  0
   -6.3261    5.5702    0.0000 O   0  0  0  0  0  0  0  0  0  0  0  0
   -8.2544    5.5708    0.0000 O   0  0  0  0  0  0  0  0  0  0  0  0
   -8.5887    7.4700    0.0000 C   0  0  0  0  0  0  0  0  0  0  0  0
   -8.5884    8.9708    0.0000 C   0  0  0  0  0  0  0  0  0  0  0  0
   -7.2890    9.7202    0.0000 H   0  0  0  0  0  0  0  0  0  0  0  0
   -9.8876    9.7223    0.0000 C   0  0  0  0  0  0  0  0  0  0  0  0
   -9.8866   11.2223    0.0000 H   0  0  0  0  0  0  0  0  0  0  0  0
  -11.1870    8.9729    0.0000 C   0  0  0  0  0  0  0  0  0  0  0  0
  -11.1872    7.4721    0.0000 C   0  0  0  0  0  0  0  0  0  0  0  0
   -9.8881    6.7206    0.0000 C   0  0  0  0  0  0  0  0  0  0  0  0
   -9.8890    5.2206    0.0000 H   0  0  0  0  0  0  0  0  0  0  0  0
  -12.4866    6.7227    0.0000 N   0  0  0  0  0  0  0  0  0  0  0  0
  -13.7853    7.4733    0.0000 O   0  0  0  0  0  0  0  0  0  0  0  0
  -12.4874    5.2227    0.0000 O   0  0  0  0  0  0  0  0  0  0  0  0
  -12.4858    9.7233    0.0000 N   0  0  0  0  0  0  0  0  0  0  0  0
  -13.7851    8.9737    0.0000 H   0  0  0  0  0  0  0  0  0  0  0  0
  -12.4853   11.2233    0.0000 C   0  0  0  0  0  0  0  0  0  0  0  0
  -11.0082   10.9624    0.0000 H   0  0  0  0  0  0  0  0  0  0  0  0
  -11.9718   12.6327    0.0000 H   0  0  0  0  0  0  0  0  0  0  0  0
  -14.6153   12.4540    0.0000 C   0  0  0  0  0  0  0  0  0  0  0  0
  -15.1285   11.0445    0.0000 H   0  0  0  0  0  0  0  0  0  0  0  0
  -13.6500   13.6032    0.0000 C   0  0  0  0  0  0  0  0  0  0  0  0
  -12.3507   14.3528    0.0000 H   0  0  0  0  0  0  0  0  0  0  0  0
  -12.6863   12.4537    0.0000 H   0  0  0  0  0  0  0  0  0  0  0  0
  -14.1627   15.0128    0.0000 C   0  0  0  0  0  0  0  0  0  0  0  0
  -14.1627   16.5128    0.0000 H   0  0  0  0  0  0  0  0  0  0  0  0
  -12.6855   15.2732    0.0000 H   0  0  0  0  0  0  0  0  0  0  0  0
  -15.6408   15.2733    0.0000 O   0  0  0  0  0  0  0  0  0  0  0  0
  -16.6061   14.1241    0.0000 C   0  0  0  0  0  0  0  0  0  0  0  0
  -17.9054   13.3745    0.0000 H   0  0  0  0  0  0  0  0  0  0  0  0
  -17.5698   15.2736    0.0000 H   0  0  0  0  0  0  0  0  0  0  0  0
  -16.0934   12.7145    0.0000 C   0  0  0  0  0  0  0  0  0  0  0  0
  -16.0934   11.2145    0.0000 H   0  0  0  0  0  0  0  0  0  0  0  0
  -17.5706   12.4541    0.0000 H   0  0  0  0  0  0  0  0  0  0  0  0
  1  2  1  0  0  0  0 
  1  3  1  0  0  0  0 
  1  4  1  0  0  0  0 
  1  5  1  0  0  0  0 
  5  6  1  0  0  0  0 
  6  7  1  0  0  0  0 
  6  8  1  0  0  0  0 
  6  9  1  0  0  0  0 
  5 10  1  0  0  0  0 
 10 11  1  0  0  0  0 
 10 12  1  0  0  0  0 
 10 13  1  0  0  0  0 
 13 14  1  0  0  0  0 
 13 15  1  0  0  0  0 
 13 16  1  0  0  0  0 
 16 17  2  0  0  0  0 
 17 18  1  0  0  0  0 
  5 18  1  0  0  0  0 
 18 19  1  0  0  0  0 
 18 20  1  0  0  0  0 
 17 21  1  0  0  0  0 
 21 22  2  0  0  0  0 
 22 23  1  0  0  0  0 
 22 24  1  0  0  0  0 
 24 25  1  0  0  0  0 
 24 26  2  0  0  0  0 
 26 27  1  0  0  0  0 
 27 28  1  0  0  0  0 
 27 29  2  0  0  0  0 
 21 29  1  0  0  0  0 
 29 30  1  0  0  0  0 
 26 31  1  0  0  0  0 
 31 32  1  0  0  0  0 
 16 33  1  0  0  0  0 
 33 34  1  0  0  0  0 
 33 35  1  0  0  0  0 
 33 36  1  0  0  0  0 
 36 37  1  0  0  0  0 
 37 38  1  0  0  0  0 
 37 39  1  0  0  0  0 
 37 40  1  0  0  0  0 
 40 41  1  0  0  0  0 
 40 42  1  0  0  0  0 
 40 43  1  0  0  0  0 
 43 44  1  0  0  0  0 
 44 45  1  0  0  0  0 
 44 46  1  0  0  0  0 
 44 47  1  0  0  0  0 
 36 47  1  0  0  0  0 
 47 48  1  0  0  0  0 
 47 49  1  0  0  0  0 
 43 50  1  0  0  0  0 
 50 51  2  0  0  0  0 
 51 52  1  0  0  0  0 
 51 53  1  0  0  0  0 
 53 54  1  0  0  0  0 
 53 55  2  0  0  0  0 
 55 56  1  0  0  0  0 
 56 57  2  0  0  0  0 
 50 57  1  0  0  0  0 
 57 58  1  0  0  0  0 
 56 59  1  0  0  0  0 
 59 60  1  0  0  0  0 
 60 61  2  0  0  0  0 
 61 62  1  0  0  0  0 
 61 63  1  0  0  0  0 
 63 64  2  0  0  0  0 
 64 65  1  0  0  0  0 
 65 66  1  0  0  0  0 
 65 67  1  0  0  0  0 
 67 68  1  0  0  0  0 
 67 69  2  0  0  0  0 
 63 69  1  0  0  0  0 
 69 70  1  0  0  0  0 
 64 71  1  0  0  0  0 
 71 72  2  0  0  0  0 
 60 72  1  0  0  0  0 
 72 73  1  0  0  0  0 
 55 74  1  0  0  0  0 
 74 75  2  0  0  0  0 
 74 76  1  0  0  0  0 
 76 77  1  0  0  0  0 
 76 78  1  0  0  0  0 
 78 79  2  0  0  0  0 
 78 80  2  0  0  0  0 
 78 81  1  0  0  0  0 
 81 82  2  0  0  0  0 
 82 83  1  0  0  0  0 
 82 84  1  0  0  0  0 
 84 85  1  0  0  0  0 
 84 86  2  0  0  0  0 
 86 87  1  0  0  0  0 
 87 88  2  0  0  0  0 
 81 88  1  0  0  0  0 
 88 89  1  0  0  0  0 
 87 90  1  0  0  0  0 
 90 91  2  0  0  0  0 
 90 92  1  0  0  0  0 
 86 93  1  0  0  0  0 
 93 94  1  0  0  0  0 
 93 95  1  0  0  0  0 
 95 96  1  0  0  0  0 
 95 97  1  0  0  0  0 
 95 98  1  0  0  0  0 
 98 99  1  0  0  0  0 
 98100  1  0  0  0  0 
100101  1  0  0  0  0 
100102  1  0  0  0  0 
100103  1  0  0  0  0 
103104  1  0  0  0  0 
103105  1  0  0  0  0 
103106  1  0  0  0  0 
106107  1  0  0  0  0 
107108  1  0  0  0  0 
107109  1  0  0  0  0 
107110  1  0  0  0  0 
 98110  1  0  0  0  0 
110111  1  0  0  0  0 
110112  1  0  0  0  0 
M  CHG  1  90   1
M  CHG  1  92  -1
M  END
> <Rank>
61

> <Priority_score>
0.019911527208894095

> <Reaction_type>
oxidative dehalogenation benzyl

> <Parent_ID>
12

> <Parent_InChI>
InChI=1S/C45H50ClN7O7S/c1-45(2)15-11-33(39(26-45)31-3-5-34(46)6-4-31)29-51-17-19-52(20-18-51)35-7-9-38(42(24-35)60-36-23-32-12-16-47-43(32)49-28-36)44(54)50-61(57,58)37-8-10-40(41(25-37)53(55)56)48-27-30-13-21-59-22-14-30/h3-10,12,16,23-25,28,30,48H,11,13-15,17-22,26-27,29H2,1-2H3,(H,47,49)(H,50,54)

> <Parent_SMILES>
CC1(C)CCC(CN2CCN(c3ccc(C(=O)NS(=O)(=O)c4ccc(NCC5CCOCC5)c([N+](=O)[O-])c4)c(Oc4cnc5[nH]ccc5c4)c3)CC2)=C(c2ccc(Cl)cc2)C1

$$$$
Molecule 12_metabolite 62
  CDK     0516241031

109116  0  0  0  0  0  0  0  0999 V2000
    3.9110   18.6227    0.0000 C   0  0  0  0  0  0  0  0  0  0  0  0
    4.4244   20.0321    0.0000 H   0  0  0  0  0  0  0  0  0  0  0  0
    2.9465   17.4739    0.0000 H   0  0  0  0  0  0  0  0  0  0  0  0
    2.6122   19.3730    0.0000 H   0  0  0  0  0  0  0  0  0  0  0  0
    5.4918   16.7378    0.0000 C   0  0  0  0  0  0  0  0  0  0  0  0
    7.0738   18.6217    0.0000 C   0  0  0  0  0  0  0  0  0  0  0  0
    8.5509   18.3607    0.0000 H   0  0  0  0  0  0  0  0  0  0  0  0
    7.5873   20.0310    0.0000 H   0  0  0  0  0  0  0  0  0  0  0  0
    5.7750   19.3722    0.0000 H   0  0  0  0  0  0  0  0  0  0  0  0
    4.1919   15.9876    0.0000 C   0  0  0  0  0  0  0  0  0  0  0  0
    2.8932   16.7382    0.0000 H   0  0  0  0  0  0  0  0  0  0  0  0
    4.1907   14.4868    0.0000 C   0  0  0  0  0  0  0  0  0  0  0  0
    2.8912   13.7376    0.0000 H   0  0  0  0  0  0  0  0  0  0  0  0
    5.4894   13.7361    0.0000 C   0  0  0  0  0  0  0  0  0  0  0  0
    6.7893   14.4863    0.0000 C   0  0  0  0  0  0  0  0  0  0  0  0
    6.7905   15.9872    0.0000 C   0  0  0  0  0  0  0  0  0  0  0  0
    7.3043   17.3964    0.0000 H   0  0  0  0  0  0  0  0  0  0  0  0
    8.2675   15.7257    0.0000 H   0  0  0  0  0  0  0  0  0  0  0  0
    8.0879   13.7357    0.0000 C   0  0  0  0  0  0  0  0  0  0  0  0
    9.3741   14.4751    0.0000 C   0  0  0  0  0  0  0  0  0  0  0  0
    9.3721   15.9751    0.0000 H   0  0  0  0  0  0  0  0  0  0  0  0
   10.6765   13.7310    0.0000 C   0  0  0  0  0  0  0  0  0  0  0  0
   11.9675   14.4948    0.0000 H   0  0  0  0  0  0  0  0  0  0  0  0
   10.7015   12.2426    0.0000 C   0  0  0  0  0  0  0  0  0  0  0  0
    9.3918   11.4821    0.0000 C   0  0  0  0  0  0  0  0  0  0  0  0
    9.3970    9.9821    0.0000 H   0  0  0  0  0  0  0  0  0  0  0  0
    8.0893   12.2262    0.0000 C   0  0  0  0  0  0  0  0  0  0  0  0
    6.7923   11.4727    0.0000 H   0  0  0  0  0  0  0  0  0  0  0  0
   12.0077   11.5051    0.0000 Cl  0  0  0  0  0  0  0  0  0  0  0  0
    5.4889   12.2361    0.0000 C   0  0  0  0  0  0  0  0  0  0  0  0
    6.9662   12.4961    0.0000 H   0  0  0  0  0  0  0  0  0  0  0  0
    6.0015   10.8264    0.0000 H   0  0  0  0  0  0  0  0  0  0  0  0
    3.7739   11.2467    0.0000 N   0  0  0  0  0  0  0  0  0  0  0  0
    3.7731    9.7459    0.0000 C   0  0  0  0  0  0  0  0  0  0  0  0
    5.2504   10.0059    0.0000 H   0  0  0  0  0  0  0  0  0  0  0  0
    4.2861    8.3363    0.0000 H   0  0  0  0  0  0  0  0  0  0  0  0
    2.4735    8.9952    0.0000 C   0  0  0  0  0  0  0  0  0  0  0  0
    3.4377    7.8462    0.0000 H   0  0  0  0  0  0  0  0  0  0  0  0
    1.5093    7.8462    0.0000 H   0  0  0  0  0  0  0  0  0  0  0  0
    1.1746    9.7454    0.0000 N   0  0  0  0  0  0  0  0  0  0  0  0
    1.1753   11.2463    0.0000 C   0  0  0  0  0  0  0  0  0  0  0  0
   -0.3020   10.9862    0.0000 H   0  0  0  0  0  0  0  0  0  0  0  0
    0.6623   12.6558    0.0000 H   0  0  0  0  0  0  0  0  0  0  0  0
    2.4749   11.9969    0.0000 C   0  0  0  0  0  0  0  0  0  0  0  0
    1.5107   13.1459    0.0000 H   0  0  0  0  0  0  0  0  0  0  0  0
    3.4392   13.1459    0.0000 H   0  0  0  0  0  0  0  0  0  0  0  0
   -0.1247    8.9959    0.0000 C   0  0  0  0  0  0  0  0  0  0  0  0
   -1.4243    9.7465    0.0000 C   0  0  0  0  0  0  0  0  0  0  0  0
   -1.4236   11.2465    0.0000 H   0  0  0  0  0  0  0  0  0  0  0  0
   -2.7247    8.9971    0.0000 C   0  0  0  0  0  0  0  0  0  0  0  0
   -4.0233    9.7479    0.0000 H   0  0  0  0  0  0  0  0  0  0  0  0
   -2.7254    7.4971    0.0000 C   0  0  0  0  0  0  0  0  0  0  0  0
   -1.4258    6.7465    0.0000 C   0  0  0  0  0  0  0  0  0  0  0  0
   -0.1254    7.4959    0.0000 C   0  0  0  0  0  0  0  0  0  0  0  0
    1.1731    6.7450    0.0000 H   0  0  0  0  0  0  0  0  0  0  0  0
   -1.4270    4.2865    0.0000 O   0  0  0  0  0  0  0  0  0  0  0  0
   -0.1283    3.5359    0.0000 C   0  0  0  0  0  0  0  0  0  0  0  0
   -0.1288    2.0350    0.0000 C   0  0  0  0  0  0  0  0  0  0  0  0
   -1.4283    1.2859    0.0000 H   0  0  0  0  0  0  0  0  0  0  0  0
    1.1703    1.2834    0.0000 C   0  0  0  0  0  0  0  0  0  0  0  0
    2.4698    2.0325    0.0000 C   0  0  0  0  0  0  0  0  0  0  0  0
    3.5825    1.0234    0.0000 N   0  0  0  0  0  0  0  0  0  0  0  0
    5.0503    1.3325    0.0000 H   0  0  0  0  0  0  0  0  0  0  0  0
    2.9737   -0.3433    0.0000 C   0  0  0  0  0  0  0  0  0  0  0  0
    3.7229   -1.6428    0.0000 H   0  0  0  0  0  0  0  0  0  0  0  0
    1.4860   -0.1853    0.0000 C   0  0  0  0  0  0  0  0  0  0  0  0
    0.4829   -1.3006    0.0000 H   0  0  0  0  0  0  0  0  0  0  0  0
    2.4703    3.5334    0.0000 N   0  0  0  0  0  0  0  0  0  0  0  0
    1.1712    4.2850    0.0000 C   0  0  0  0  0  0  0  0  0  0  0  0
    1.1724    5.7850    0.0000 H   0  0  0  0  0  0  0  0  0  0  0  0
   -4.0247    6.7475    0.0000 C   0  0  0  0  0  0  0  0  0  0  0  0
   -4.0252    5.2475    0.0000 O   0  0  0  0  0  0  0  0  0  0  0  0
   -5.3235    7.4979    0.0000 N   0  0  0  0  0  0  0  0  0  0  0  0
   -5.3230    8.9979    0.0000 H   0  0  0  0  0  0  0  0  0  0  0  0
   -6.6228    6.7484    0.0000 S   0  0  0  0  0  0  0  0  0  0  0  0
   -5.6590    5.5990    0.0000 O   0  0  0  0  0  0  0  0  0  0  0  0
   -7.5873    5.5996    0.0000 O   0  0  0  0  0  0  0  0  0  0  0  0
   -7.9216    7.4988    0.0000 C   0  0  0  0  0  0  0  0  0  0  0  0
   -7.9213    8.9996    0.0000 C   0  0  0  0  0  0  0  0  0  0  0  0
   -6.6219    9.7490    0.0000 H   0  0  0  0  0  0  0  0  0  0  0  0
   -9.2205    9.7511    0.0000 C   0  0  0  0  0  0  0  0  0  0  0  0
   -9.2195   11.2511    0.0000 H   0  0  0  0  0  0  0  0  0  0  0  0
  -10.5199    9.0017    0.0000 C   0  0  0  0  0  0  0  0  0  0  0  0
  -10.5201    7.5009    0.0000 C   0  0  0  0  0  0  0  0  0  0  0  0
   -9.2210    6.7494    0.0000 C   0  0  0  0  0  0  0  0  0  0  0  0
   -9.2219    5.2494    0.0000 H   0  0  0  0  0  0  0  0  0  0  0  0
  -11.8195    6.7515    0.0000 N   0  0  0  0  0  0  0  0  0  0  0  0
  -13.1182    7.5021    0.0000 O   0  0  0  0  0  0  0  0  0  0  0  0
  -11.8202    5.2515    0.0000 O   0  0  0  0  0  0  0  0  0  0  0  0
  -11.8187    9.7521    0.0000 N   0  0  0  0  0  0  0  0  0  0  0  0
  -13.1180    9.0025    0.0000 H   0  0  0  0  0  0  0  0  0  0  0  0
  -11.8182   11.2521    0.0000 C   0  0  0  0  0  0  0  0  0  0  0  0
  -10.3411   10.9912    0.0000 H   0  0  0  0  0  0  0  0  0  0  0  0
  -11.3047   12.6615    0.0000 H   0  0  0  0  0  0  0  0  0  0  0  0
  -13.9482   12.4828    0.0000 C   0  0  0  0  0  0  0  0  0  0  0  0
  -14.4614   11.0733    0.0000 H   0  0  0  0  0  0  0  0  0  0  0  0
  -12.9829   13.6320    0.0000 C   0  0  0  0  0  0  0  0  0  0  0  0
  -11.6836   14.3816    0.0000 H   0  0  0  0  0  0  0  0  0  0  0  0
  -12.0192   12.4825    0.0000 H   0  0  0  0  0  0  0  0  0  0  0  0
  -13.4956   15.0416    0.0000 C   0  0  0  0  0  0  0  0  0  0  0  0
  -13.4956   16.5416    0.0000 H   0  0  0  0  0  0  0  0  0  0  0  0
  -12.0184   15.3019    0.0000 H   0  0  0  0  0  0  0  0  0  0  0  0
  -14.9737   15.3021    0.0000 O   0  0  0  0  0  0  0  0  0  0  0  0
  -15.9390   14.1529    0.0000 C   0  0  0  0  0  0  0  0  0  0  0  0
  -17.2383   13.4033    0.0000 H   0  0  0  0  0  0  0  0  0  0  0  0
  -16.9027   15.3024    0.0000 H   0  0  0  0  0  0  0  0  0  0  0  0
  -15.4263   12.7432    0.0000 C   0  0  0  0  0  0  0  0  0  0  0  0
  -15.4263   11.2432    0.0000 H   0  0  0  0  0  0  0  0  0  0  0  0
  -16.9035   12.4829    0.0000 H   0  0  0  0  0  0  0  0  0  0  0  0
  1  2  1  0  0  0  0 
  1  3  1  0  0  0  0 
  1  4  1  0  0  0  0 
  1  5  1  0  0  0  0 
  5  6  1  0  0  0  0 
  6  7  1  0  0  0  0 
  6  8  1  0  0  0  0 
  6  9  1  0  0  0  0 
  5 10  1  0  0  0  0 
 10 11  1  0  0  0  0 
 10 12  2  0  0  0  0 
 12 13  1  0  0  0  0 
 12 14  1  0  0  0  0 
 14 15  2  0  0  0  0 
 15 16  1  0  0  0  0 
  5 16  1  0  0  0  0 
 16 17  1  0  0  0  0 
 16 18  1  0  0  0  0 
 15 19  1  0  0  0  0 
 19 20  2  0  0  0  0 
 20 21  1  0  0  0  0 
 20 22  1  0  0  0  0 
 22 23  1  0  0  0  0 
 22 24  2  0  0  0  0 
 24 25  1  0  0  0  0 
 25 26  1  0  0  0  0 
 25 27  2  0  0  0  0 
 19 27  1  0  0  0  0 
 27 28  1  0  0  0  0 
 24 29  1  0  0  0  0 
 14 30  1  0  0  0  0 
 30 31  1  0  0  0  0 
 30 32  1  0  0  0  0 
 30 33  1  0  0  0  0 
 33 34  1  0  0  0  0 
 34 35  1  0  0  0  0 
 34 36  1  0  0  0  0 
 34 37  1  0  0  0  0 
 37 38  1  0  0  0  0 
 37 39  1  0  0  0  0 
 37 40  1  0  0  0  0 
 40 41  1  0  0  0  0 
 41 42  1  0  0  0  0 
 41 43  1  0  0  0  0 
 41 44  1  0  0  0  0 
 33 44  1  0  0  0  0 
 44 45  1  0  0  0  0 
 44 46  1  0  0  0  0 
 40 47  1  0  0  0  0 
 47 48  2  0  0  0  0 
 48 49  1  0  0  0  0 
 48 50  1  0  0  0  0 
 50 51  1  0  0  0  0 
 50 52  2  0  0  0  0 
 52 53  1  0  0  0  0 
 53 54  2  0  0  0  0 
 47 54  1  0  0  0  0 
 54 55  1  0  0  0  0 
 53 56  1  0  0  0  0 
 56 57  1  0  0  0  0 
 57 58  2  0  0  0  0 
 58 59  1  0  0  0  0 
 58 60  1  0  0  0  0 
 60 61  2  0  0  0  0 
 61 62  1  0  0  0  0 
 62 63  1  0  0  0  0 
 62 64  1  0  0  0  0 
 64 65  1  0  0  0  0 
 64 66  2  0  0  0  0 
 60 66  1  0  0  0  0 
 66 67  1  0  0  0  0 
 61 68  1  0  0  0  0 
 68 69  2  0  0  0  0 
 57 69  1  0  0  0  0 
 69 70  1  0  0  0  0 
 52 71  1  0  0  0  0 
 71 72  2  0  0  0  0 
 71 73  1  0  0  0  0 
 73 74  1  0  0  0  0 
 73 75  1  0  0  0  0 
 75 76  2  0  0  0  0 
 75 77  2  0  0  0  0 
 75 78  1  0  0  0  0 
 78 79  2  0  0  0  0 
 79 80  1  0  0  0  0 
 79 81  1  0  0  0  0 
 81 82  1  0  0  0  0 
 81 83  2  0  0  0  0 
 83 84  1  0  0  0  0 
 84 85  2  0  0  0  0 
 78 85  1  0  0  0  0 
 85 86  1  0  0  0  0 
 84 87  1  0  0  0  0 
 87 88  2  0  0  0  0 
 87 89  1  0  0  0  0 
 83 90  1  0  0  0  0 
 90 91  1  0  0  0  0 
 90 92  1  0  0  0  0 
 92 93  1  0  0  0  0 
 92 94  1  0  0  0  0 
 92 95  1  0  0  0  0 
 95 96  1  0  0  0  0 
 95 97  1  0  0  0  0 
 97 98  1  0  0  0  0 
 97 99  1  0  0  0  0 
 97100  1  0  0  0  0 
100101  1  0  0  0  0 
100102  1  0  0  0  0 
100103  1  0  0  0  0 
103104  1  0  0  0  0 
104105  1  0  0  0  0 
104106  1  0  0  0  0 
104107  1  0  0  0  0 
 95107  1  0  0  0  0 
107108  1  0  0  0  0 
107109  1  0  0  0  0 
M  CHG  1  87   1
M  CHG  1  89  -1
M  END
> <Rank>
62

> <Priority_score>
0.019200000000000002

> <Reaction_type>
alkyl dehydrogenation

> <Parent_ID>
12

> <Parent_InChI>
InChI=1S/C45H50ClN7O7S/c1-45(2)15-11-33(39(26-45)31-3-5-34(46)6-4-31)29-51-17-19-52(20-18-51)35-7-9-38(42(24-35)60-36-23-32-12-16-47-43(32)49-28-36)44(54)50-61(57,58)37-8-10-40(41(25-37)53(55)56)48-27-30-13-21-59-22-14-30/h3-10,12,16,23-25,28,30,48H,11,13-15,17-22,26-27,29H2,1-2H3,(H,47,49)(H,50,54)

> <Parent_SMILES>
CC1(C)CCC(CN2CCN(c3ccc(C(=O)NS(=O)(=O)c4ccc(NCC5CCOCC5)c([N+](=O)[O-])c4)c(Oc4cnc5[nH]ccc5c4)c3)CC2)=C(c2ccc(Cl)cc2)C1

$$$$
Molecule 12_metabolite 63
  CDK     0516241031

112119  0  0  0  0  0  0  0  0999 V2000
    2.6570   18.5690    0.0000 C   0  0  0  0  0  0  0  0  0  0  0  0
    3.1704   19.9784    0.0000 H   0  0  0  0  0  0  0  0  0  0  0  0
    1.6925   17.4202    0.0000 H   0  0  0  0  0  0  0  0  0  0  0  0
    1.3582   19.3193    0.0000 H   0  0  0  0  0  0  0  0  0  0  0  0
    4.2378   16.6841    0.0000 C   0  0  0  0  0  0  0  0  0  0  0  0
    6.1284   18.9355    0.0000 C   0  0  0  0  0  0  0  0  0  0  0  0
    7.6055   18.6745    0.0000 H   0  0  0  0  0  0  0  0  0  0  0  0
    6.6420   20.3449    0.0000 H   0  0  0  0  0  0  0  0  0  0  0  0
    4.8296   19.6860    0.0000 H   0  0  0  0  0  0  0  0  0  0  0  0
    2.9379   15.9339    0.0000 C   0  0  0  0  0  0  0  0  0  0  0  0
    1.4605   15.6743    0.0000 H   0  0  0  0  0  0  0  0  0  0  0  0
    2.4254   17.3436    0.0000 H   0  0  0  0  0  0  0  0  0  0  0  0
    2.9367   14.4330    0.0000 C   0  0  0  0  0  0  0  0  0  0  0  0
    1.6372   13.6839    0.0000 H   0  0  0  0  0  0  0  0  0  0  0  0
    4.2354   13.6824    0.0000 C   0  0  0  0  0  0  0  0  0  0  0  0
    4.2347   11.7024    0.0000 C   0  0  0  0  0  0  0  0  0  0  0  0
    5.7120   11.9624    0.0000 H   0  0  0  0  0  0  0  0  0  0  0  0
    4.7473   10.2927    0.0000 H   0  0  0  0  0  0  0  0  0  0  0  0
    2.5197   10.7130    0.0000 N   0  0  0  0  0  0  0  0  0  0  0  0
    2.5189    9.2121    0.0000 C   0  0  0  0  0  0  0  0  0  0  0  0
    3.9962    9.4722    0.0000 H   0  0  0  0  0  0  0  0  0  0  0  0
    3.0319    7.8026    0.0000 H   0  0  0  0  0  0  0  0  0  0  0  0
    1.2193    8.4615    0.0000 C   0  0  0  0  0  0  0  0  0  0  0  0
    2.1836    7.3125    0.0000 H   0  0  0  0  0  0  0  0  0  0  0  0
    0.2551    7.3125    0.0000 H   0  0  0  0  0  0  0  0  0  0  0  0
   -0.0796    9.2117    0.0000 N   0  0  0  0  0  0  0  0  0  0  0  0
   -0.0789   10.7125    0.0000 C   0  0  0  0  0  0  0  0  0  0  0  0
   -1.5562   10.4525    0.0000 H   0  0  0  0  0  0  0  0  0  0  0  0
   -0.5918   12.1221    0.0000 H   0  0  0  0  0  0  0  0  0  0  0  0
    1.2208   11.4632    0.0000 C   0  0  0  0  0  0  0  0  0  0  0  0
    0.2565   12.6122    0.0000 H   0  0  0  0  0  0  0  0  0  0  0  0
    2.1850   12.6122    0.0000 H   0  0  0  0  0  0  0  0  0  0  0  0
   -1.3789    8.4621    0.0000 C   0  0  0  0  0  0  0  0  0  0  0  0
   -2.6785    9.2127    0.0000 C   0  0  0  0  0  0  0  0  0  0  0  0
   -2.6778   10.7127    0.0000 H   0  0  0  0  0  0  0  0  0  0  0  0
   -3.9789    8.4634    0.0000 C   0  0  0  0  0  0  0  0  0  0  0  0
   -5.2774    9.2142    0.0000 H   0  0  0  0  0  0  0  0  0  0  0  0
   -3.9796    6.9634    0.0000 C   0  0  0  0  0  0  0  0  0  0  0  0
   -2.6800    6.2127    0.0000 C   0  0  0  0  0  0  0  0  0  0  0  0
   -1.3796    6.9621    0.0000 C   0  0  0  0  0  0  0  0  0  0  0  0
   -0.0811    6.2113    0.0000 H   0  0  0  0  0  0  0  0  0  0  0  0
   -2.6812    3.7527    0.0000 O   0  0  0  0  0  0  0  0  0  0  0  0
   -1.3825    3.0021    0.0000 C   0  0  0  0  0  0  0  0  0  0  0  0
   -1.3830    1.5013    0.0000 C   0  0  0  0  0  0  0  0  0  0  0  0
   -2.6825    0.7521    0.0000 H   0  0  0  0  0  0  0  0  0  0  0  0
   -0.0839    0.7496    0.0000 C   0  0  0  0  0  0  0  0  0  0  0  0
    1.2156    1.4988    0.0000 C   0  0  0  0  0  0  0  0  0  0  0  0
    2.3283    0.4897    0.0000 N   0  0  0  0  0  0  0  0  0  0  0  0
    3.7961    0.7988    0.0000 H   0  0  0  0  0  0  0  0  0  0  0  0
    1.7196   -0.8771    0.0000 C   0  0  0  0  0  0  0  0  0  0  0  0
    2.4687   -2.1766    0.0000 H   0  0  0  0  0  0  0  0  0  0  0  0
    0.2318   -0.7190    0.0000 C   0  0  0  0  0  0  0  0  0  0  0  0
   -0.7713   -1.8343    0.0000 H   0  0  0  0  0  0  0  0  0  0  0  0
    1.2161    2.9996    0.0000 N   0  0  0  0  0  0  0  0  0  0  0  0
   -0.0830    3.7513    0.0000 C   0  0  0  0  0  0  0  0  0  0  0  0
   -0.0818    5.2513    0.0000 H   0  0  0  0  0  0  0  0  0  0  0  0
   -5.2789    6.2138    0.0000 C   0  0  0  0  0  0  0  0  0  0  0  0
   -5.2794    4.7138    0.0000 O   0  0  0  0  0  0  0  0  0  0  0  0
   -6.5777    6.9642    0.0000 N   0  0  0  0  0  0  0  0  0  0  0  0
   -6.5772    8.4642    0.0000 H   0  0  0  0  0  0  0  0  0  0  0  0
   -7.8770    6.2146    0.0000 S   0  0  0  0  0  0  0  0  0  0  0  0
   -6.9132    5.0652    0.0000 O   0  0  0  0  0  0  0  0  0  0  0  0
   -8.8415    5.0659    0.0000 O   0  0  0  0  0  0  0  0  0  0  0  0
   -9.1758    6.9650    0.0000 C   0  0  0  0  0  0  0  0  0  0  0  0
   -9.1755    8.4659    0.0000 C   0  0  0  0  0  0  0  0  0  0  0  0
   -7.8761    9.2152    0.0000 H   0  0  0  0  0  0  0  0  0  0  0  0
  -10.4747    9.2173    0.0000 C   0  0  0  0  0  0  0  0  0  0  0  0
  -10.4737   10.7173    0.0000 H   0  0  0  0  0  0  0  0  0  0  0  0
  -11.7741    8.4680    0.0000 C   0  0  0  0  0  0  0  0  0  0  0  0
  -11.7743    6.9671    0.0000 C   0  0  0  0  0  0  0  0  0  0  0  0
  -10.4752    6.2157    0.0000 C   0  0  0  0  0  0  0  0  0  0  0  0
  -10.4761    4.7157    0.0000 H   0  0  0  0  0  0  0  0  0  0  0  0
  -13.0737    6.2177    0.0000 N   0  0  0  0  0  0  0  0  0  0  0  0
  -14.3724    6.9684    0.0000 O   0  0  0  0  0  0  0  0  0  0  0  0
  -13.0744    4.7177    0.0000 O   0  0  0  0  0  0  0  0  0  0  0  0
  -13.0729    9.2184    0.0000 N   0  0  0  0  0  0  0  0  0  0  0  0
  -14.3722    8.4688    0.0000 H   0  0  0  0  0  0  0  0  0  0  0  0
  -13.0724   10.7184    0.0000 C   0  0  0  0  0  0  0  0  0  0  0  0
  -11.5953   10.4574    0.0000 H   0  0  0  0  0  0  0  0  0  0  0  0
  -12.5589   12.1277    0.0000 H   0  0  0  0  0  0  0  0  0  0  0  0
  -15.2024   11.9490    0.0000 C   0  0  0  0  0  0  0  0  0  0  0  0
  -15.7156   10.5396    0.0000 H   0  0  0  0  0  0  0  0  0  0  0  0
  -14.2371   13.0982    0.0000 C   0  0  0  0  0  0  0  0  0  0  0  0
  -12.9378   13.8478    0.0000 H   0  0  0  0  0  0  0  0  0  0  0  0
  -13.2734   11.9488    0.0000 H   0  0  0  0  0  0  0  0  0  0  0  0
  -14.7498   14.5079    0.0000 C   0  0  0  0  0  0  0  0  0  0  0  0
  -14.7498   16.0079    0.0000 H   0  0  0  0  0  0  0  0  0  0  0  0
  -13.2726   14.7682    0.0000 H   0  0  0  0  0  0  0  0  0  0  0  0
  -16.2279   14.7683    0.0000 O   0  0  0  0  0  0  0  0  0  0  0  0
  -17.1932   13.6192    0.0000 C   0  0  0  0  0  0  0  0  0  0  0  0
  -18.4925   12.8696    0.0000 H   0  0  0  0  0  0  0  0  0  0  0  0
  -18.1569   14.7686    0.0000 H   0  0  0  0  0  0  0  0  0  0  0  0
  -16.6805   12.2095    0.0000 C   0  0  0  0  0  0  0  0  0  0  0  0
  -16.6805   10.7095    0.0000 H   0  0  0  0  0  0  0  0  0  0  0  0
  -18.1577   11.9492    0.0000 H   0  0  0  0  0  0  0  0  0  0  0  0
    5.5352   14.4326    0.0000 C   0  0  0  0  0  0  0  0  0  0  0  0
    5.5364   15.9334    0.0000 C   0  0  0  0  0  0  0  0  0  0  0  0
    6.0503   17.3427    0.0000 H   0  0  0  0  0  0  0  0  0  0  0  0
    7.0135   15.6719    0.0000 H   0  0  0  0  0  0  0  0  0  0  0  0
    7.9581   14.8584    0.0000 C   0  0  0  0  0  0  0  0  0  0  0  0
    8.4683   16.2514    0.0000 C   0  0  0  0  0  0  0  0  0  0  0  0
    7.5027   17.3993    0.0000 H   0  0  0  0  0  0  0  0  0  0  0  0
    9.9443   16.5185    0.0000 C   0  0  0  0  0  0  0  0  0  0  0  0
   10.4425   17.9333    0.0000 H   0  0  0  0  0  0  0  0  0  0  0  0
   10.9200   15.3942    0.0000 C   0  0  0  0  0  0  0  0  0  0  0  0
   10.4054   13.9698    0.0000 C   0  0  0  0  0  0  0  0  0  0  0  0
   11.3734   12.8240    0.0000 H   0  0  0  0  0  0  0  0  0  0  0  0
    8.9293   13.7028    0.0000 C   0  0  0  0  0  0  0  0  0  0  0  0
    8.4200   12.2919    0.0000 H   0  0  0  0  0  0  0  0  0  0  0  0
   12.3947   15.6687    0.0000 Cl  0  0  0  0  0  0  0  0  0  0  0  0
    6.0477   13.0229    0.0000 O   0  0  0  0  0  0  0  0  0  0  0  0
    7.5248   12.7619    0.0000 H   0  0  0  0  0  0  0  0  0  0  0  0
  1  2  1  0  0  0  0 
  1  3  1  0  0  0  0 
  1  4  1  0  0  0  0 
  1  5  1  0  0  0  0 
  5  6  1  0  0  0  0 
  6  7  1  0  0  0  0 
  6  8  1  0  0  0  0 
  6  9  1  0  0  0  0 
  5 10  1  0  0  0  0 
 10 11  1  0  0  0  0 
 10 12  1  0  0  0  0 
 10 13  1  0  0  0  0 
 13 14  1  0  0  0  0 
 13 15  2  0  0  0  0 
 15 16  1  0  0  0  0 
 16 17  1  0  0  0  0 
 16 18  1  0  0  0  0 
 16 19  1  0  0  0  0 
 19 20  1  0  0  0  0 
 20 21  1  0  0  0  0 
 20 22  1  0  0  0  0 
 20 23  1  0  0  0  0 
 23 24  1  0  0  0  0 
 23 25  1  0  0  0  0 
 23 26  1  0  0  0  0 
 26 27  1  0  0  0  0 
 27 28  1  0  0  0  0 
 27 29  1  0  0  0  0 
 27 30  1  0  0  0  0 
 19 30  1  0  0  0  0 
 30 31  1  0  0  0  0 
 30 32  1  0  0  0  0 
 26 33  1  0  0  0  0 
 33 34  2  0  0  0  0 
 34 35  1  0  0  0  0 
 34 36  1  0  0  0  0 
 36 37  1  0  0  0  0 
 36 38  2  0  0  0  0 
 38 39  1  0  0  0  0 
 39 40  2  0  0  0  0 
 33 40  1  0  0  0  0 
 40 41  1  0  0  0  0 
 39 42  1  0  0  0  0 
 42 43  1  0  0  0  0 
 43 44  2  0  0  0  0 
 44 45  1  0  0  0  0 
 44 46  1  0  0  0  0 
 46 47  2  0  0  0  0 
 47 48  1  0  0  0  0 
 48 49  1  0  0  0  0 
 48 50  1  0  0  0  0 
 50 51  1  0  0  0  0 
 50 52  2  0  0  0  0 
 46 52  1  0  0  0  0 
 52 53  1  0  0  0  0 
 47 54  1  0  0  0  0 
 54 55  2  0  0  0  0 
 43 55  1  0  0  0  0 
 55 56  1  0  0  0  0 
 38 57  1  0  0  0  0 
 57 58  2  0  0  0  0 
 57 59  1  0  0  0  0 
 59 60  1  0  0  0  0 
 59 61  1  0  0  0  0 
 61 62  2  0  0  0  0 
 61 63  2  0  0  0  0 
 61 64  1  0  0  0  0 
 64 65  2  0  0  0  0 
 65 66  1  0  0  0  0 
 65 67  1  0  0  0  0 
 67 68  1  0  0  0  0 
 67 69  2  0  0  0  0 
 69 70  1  0  0  0  0 
 70 71  2  0  0  0  0 
 64 71  1  0  0  0  0 
 71 72  1  0  0  0  0 
 70 73  1  0  0  0  0 
 73 74  2  0  0  0  0 
 73 75  1  0  0  0  0 
 69 76  1  0  0  0  0 
 76 77  1  0  0  0  0 
 76 78  1  0  0  0  0 
 78 79  1  0  0  0  0 
 78 80  1  0  0  0  0 
 78 81  1  0  0  0  0 
 81 82  1  0  0  0  0 
 81 83  1  0  0  0  0 
 83 84  1  0  0  0  0 
 83 85  1  0  0  0  0 
 83 86  1  0  0  0  0 
 86 87  1  0  0  0  0 
 86 88  1  0  0  0  0 
 86 89  1  0  0  0  0 
 89 90  1  0  0  0  0 
 90 91  1  0  0  0  0 
 90 92  1  0  0  0  0 
 90 93  1  0  0  0  0 
 81 93  1  0  0  0  0 
 93 94  1  0  0  0  0 
 93 95  1  0  0  0  0 
 15 96  1  0  0  0  0 
 96 97  1  0  0  0  0 
  5 97  1  0  0  0  0 
 97 98  1  0  0  0  0 
 97 99  1  0  0  0  0 
 96100  1  0  0  0  0 
100101  2  0  0  0  0 
101102  1  0  0  0  0 
101103  1  0  0  0  0 
103104  1  0  0  0  0 
103105  2  0  0  0  0 
105106  1  0  0  0  0 
106107  1  0  0  0  0 
106108  2  0  0  0  0 
100108  1  0  0  0  0 
108109  1  0  0  0  0 
105110  1  0  0  0  0 
 96111  1  0  0  0  0 
111112  1  0  0  0  0 
M  CHG  1  73   1
M  CHG  1  75  -1
M  END
> <Rank>
63

> <Priority_score>
0.0184

> <Reaction_type>
aliphatic hydroxylation with allylic rearrangement 1

> <Parent_ID>
12

> <Parent_InChI>
InChI=1S/C45H50ClN7O7S/c1-45(2)15-11-33(39(26-45)31-3-5-34(46)6-4-31)29-51-17-19-52(20-18-51)35-7-9-38(42(24-35)60-36-23-32-12-16-47-43(32)49-28-36)44(54)50-61(57,58)37-8-10-40(41(25-37)53(55)56)48-27-30-13-21-59-22-14-30/h3-10,12,16,23-25,28,30,48H,11,13-15,17-22,26-27,29H2,1-2H3,(H,47,49)(H,50,54)

> <Parent_SMILES>
CC1(C)CCC(CN2CCN(c3ccc(C(=O)NS(=O)(=O)c4ccc(NCC5CCOCC5)c([N+](=O)[O-])c4)c(Oc4cnc5[nH]ccc5c4)c3)CC2)=C(c2ccc(Cl)cc2)C1

$$$$
Molecule 12_metabolite 64
  CDK     0516241031

 98103  0  0  0  0  0  0  0  0999 V2000
  -21.2257    5.2489    0.0000 C   0  0  0  0  0  0  0  0  0  0  0  0
  -20.2616    6.3981    0.0000 H   0  0  0  0  0  0  0  0  0  0  0  0
  -22.5246    4.4988    0.0000 H   0  0  0  0  0  0  0  0  0  0  0  0
  -22.1900    6.3979    0.0000 H   0  0  0  0  0  0  0  0  0  0  0  0
  -20.3840    2.9373    0.0000 C   0  0  0  0  0  0  0  0  0  0  0  0
  -22.8066    2.5096    0.0000 C   0  0  0  0  0  0  0  0  0  0  0  0
  -23.7710    3.6585    0.0000 H   0  0  0  0  0  0  0  0  0  0  0  0
  -24.1055    1.7594    0.0000 H   0  0  0  0  0  0  0  0  0  0  0  0
  -22.2932    1.1002    0.0000 H   0  0  0  0  0  0  0  0  0  0  0  0
  -19.0843    3.6878    0.0000 C   0  0  0  0  0  0  0  0  0  0  0  0
  -18.1206    4.8372    0.0000 H   0  0  0  0  0  0  0  0  0  0  0  0
  -20.0487    4.8366    0.0000 H   0  0  0  0  0  0  0  0  0  0  0  0
  -17.7840    2.9382    0.0000 C   0  0  0  0  0  0  0  0  0  0  0  0
  -15.8340    2.5952    0.0000 H   0  0  0  0  0  0  0  0  0  0  0  0
  -17.2718    4.3480    0.0000 H   0  0  0  0  0  0  0  0  0  0  0  0
  -17.7836    1.4382    0.0000 C   0  0  0  0  0  0  0  0  0  0  0  0
  -19.0833    0.6878    0.0000 C   0  0  0  0  0  0  0  0  0  0  0  0
  -20.3836    1.4373    0.0000 C   0  0  0  0  0  0  0  0  0  0  0  0
  -21.8609    1.6972    0.0000 H   0  0  0  0  0  0  0  0  0  0  0  0
  -20.8958    0.0275    0.0000 H   0  0  0  0  0  0  0  0  0  0  0  0
  -19.0828   -0.8122    0.0000 C   0  0  0  0  0  0  0  0  0  0  0  0
  -20.3664   -1.5562    0.0000 C   0  0  0  0  0  0  0  0  0  0  0  0
  -21.6643   -0.8043    0.0000 H   0  0  0  0  0  0  0  0  0  0  0  0
  -20.3734   -3.0562    0.0000 C   0  0  0  0  0  0  0  0  0  0  0  0
  -21.6805   -3.7921    0.0000 H   0  0  0  0  0  0  0  0  0  0  0  0
  -19.0970   -3.8222    0.0000 C   0  0  0  0  0  0  0  0  0  0  0  0
  -17.7834   -3.0684    0.0000 C   0  0  0  0  0  0  0  0  0  0  0  0
  -16.4871   -3.8231    0.0000 H   0  0  0  0  0  0  0  0  0  0  0  0
  -17.7764   -1.5684    0.0000 C   0  0  0  0  0  0  0  0  0  0  0  0
  -16.4752   -0.8222    0.0000 H   0  0  0  0  0  0  0  0  0  0  0  0
  -19.1116   -5.3221    0.0000 Cl  0  0  0  0  0  0  0  0  0  0  0  0
  -16.4844    0.6884    0.0000 C   0  0  0  0  0  0  0  0  0  0  0  0
  -17.4484   -0.4608    0.0000 H   0  0  0  0  0  0  0  0  0  0  0  0
  -15.5200   -0.4605    0.0000 H   0  0  0  0  0  0  0  0  0  0  0  0
  -13.9385    2.1588    0.0000 N   0  0  0  0  0  0  0  0  0  0  0  0
  -12.6385    1.4088    0.0000 C   0  0  0  0  0  0  0  0  0  0  0  0
  -13.6026    0.2596    0.0000 H   0  0  0  0  0  0  0  0  0  0  0  0
  -11.6745    0.2596    0.0000 H   0  0  0  0  0  0  0  0  0  0  0  0
  -11.3385    2.1588    0.0000 C   0  0  0  0  0  0  0  0  0  0  0  0
  -10.8258    0.7491    0.0000 H   0  0  0  0  0  0  0  0  0  0  0  0
   -9.8613    2.4191    0.0000 H   0  0  0  0  0  0  0  0  0  0  0  0
  -11.3385    3.6588    0.0000 N   0  0  0  0  0  0  0  0  0  0  0  0
  -12.6385    4.4088    0.0000 C   0  0  0  0  0  0  0  0  0  0  0  0
  -11.6745    5.5580    0.0000 H   0  0  0  0  0  0  0  0  0  0  0  0
  -13.6026    5.5580    0.0000 H   0  0  0  0  0  0  0  0  0  0  0  0
  -13.9385    3.6588    0.0000 C   0  0  0  0  0  0  0  0  0  0  0  0
  -14.4513    5.0684    0.0000 H   0  0  0  0  0  0  0  0  0  0  0  0
  -15.4158    3.3985    0.0000 H   0  0  0  0  0  0  0  0  0  0  0  0
   -9.2083    4.8891    0.0000 C   0  0  0  0  0  0  0  0  0  0  0  0
   -9.2083    6.3900    0.0000 C   0  0  0  0  0  0  0  0  0  0  0  0
  -10.5076    7.1395    0.0000 H   0  0  0  0  0  0  0  0  0  0  0  0
   -7.9090    7.1412    0.0000 C   0  0  0  0  0  0  0  0  0  0  0  0
   -7.9097    8.6412    0.0000 O   0  0  0  0  0  0  0  0  0  0  0  0
   -6.6097    6.3916    0.0000 C   0  0  0  0  0  0  0  0  0  0  0  0
   -6.6097    4.8908    0.0000 C   0  0  0  0  0  0  0  0  0  0  0  0
   -5.3105    4.1412    0.0000 H   0  0  0  0  0  0  0  0  0  0  0  0
   -7.9090    4.1395    0.0000 C   0  0  0  0  0  0  0  0  0  0  0  0
   -8.8727    2.9901    0.0000 H   0  0  0  0  0  0  0  0  0  0  0  0
   -6.9442    2.9910    0.0000 H   0  0  0  0  0  0  0  0  0  0  0  0
   -5.3108    7.1418    0.0000 C   0  0  0  0  0  0  0  0  0  0  0  0
   -5.3111    8.6418    0.0000 O   0  0  0  0  0  0  0  0  0  0  0  0
   -4.0117    6.3920    0.0000 N   0  0  0  0  0  0  0  0  0  0  0  0
   -4.0114    4.8920    0.0000 H   0  0  0  0  0  0  0  0  0  0  0  0
   -2.7127    7.1423    0.0000 S   0  0  0  0  0  0  0  0  0  0  0  0
   -1.7488    8.2915    0.0000 O   0  0  0  0  0  0  0  0  0  0  0  0
   -3.6771    8.2912    0.0000 O   0  0  0  0  0  0  0  0  0  0  0  0
   -1.4136    6.3925    0.0000 C   0  0  0  0  0  0  0  0  0  0  0  0
   -0.1138    7.1429    0.0000 C   0  0  0  0  0  0  0  0  0  0  0  0
   -0.1143    8.6429    0.0000 H   0  0  0  0  0  0  0  0  0  0  0  0
    1.1864    6.3933    0.0000 C   0  0  0  0  0  0  0  0  0  0  0  0
    2.4851    7.1439    0.0000 H   0  0  0  0  0  0  0  0  0  0  0  0
    1.1869    4.8933    0.0000 C   0  0  0  0  0  0  0  0  0  0  0  0
   -0.1129    4.1429    0.0000 C   0  0  0  0  0  0  0  0  0  0  0  0
   -1.4131    4.8925    0.0000 C   0  0  0  0  0  0  0  0  0  0  0  0
   -2.7118    4.1418    0.0000 H   0  0  0  0  0  0  0  0  0  0  0  0
   -0.1124    2.6429    0.0000 N   0  0  0  0  0  0  0  0  0  0  0  0
    1.1869    1.8933    0.0000 O   0  0  0  0  0  0  0  0  0  0  0  0
   -1.4112    1.8925    0.0000 O   0  0  0  0  0  0  0  0  0  0  0  0
    2.4860    4.1435    0.0000 N   0  0  0  0  0  0  0  0  0  0  0  0
    2.4863    2.6435    0.0000 H   0  0  0  0  0  0  0  0  0  0  0  0
    3.7850    4.8937    0.0000 C   0  0  0  0  0  0  0  0  0  0  0  0
    4.7490    6.0429    0.0000 H   0  0  0  0  0  0  0  0  0  0  0  0
    2.8206    6.0426    0.0000 H   0  0  0  0  0  0  0  0  0  0  0  0
    6.3313    3.4241    0.0000 C   0  0  0  0  0  0  0  0  0  0  0  0
    5.3671    2.2751    0.0000 H   0  0  0  0  0  0  0  0  0  0  0  0
    6.8441    4.8346    0.0000 C   0  0  0  0  0  0  0  0  0  0  0  0
    6.8439    6.3346    0.0000 H   0  0  0  0  0  0  0  0  0  0  0  0
    5.3668    5.0947    0.0000 H   0  0  0  0  0  0  0  0  0  0  0  0
    8.3213    5.0952    0.0000 C   0  0  0  0  0  0  0  0  0  0  0  0
    9.6205    5.8450    0.0000 H   0  0  0  0  0  0  0  0  0  0  0  0
    7.8083    6.5047    0.0000 H   0  0  0  0  0  0  0  0  0  0  0  0
    9.2857    3.9452    0.0000 O   0  0  0  0  0  0  0  0  0  0  0  0
    8.7729    2.5347    0.0000 C   0  0  0  0  0  0  0  0  0  0  0  0
    8.7732    1.0347    0.0000 H   0  0  0  0  0  0  0  0  0  0  0  0
   10.2502    2.2746    0.0000 H   0  0  0  0  0  0  0  0  0  0  0  0
    7.2957    2.2742    0.0000 C   0  0  0  0  0  0  0  0  0  0  0  0
    5.9966    1.5244    0.0000 H   0  0  0  0  0  0  0  0  0  0  0  0
    7.8087    0.8646    0.0000 H   0  0  0  0  0  0  0  0  0  0  0  0
  1  2  1  0  0  0  0 
  1  3  1  0  0  0  0 
  1  4  1  0  0  0  0 
  1  5  1  0  0  0  0 
  5  6  1  0  0  0  0 
  6  7  1  0  0  0  0 
  6  8  1  0  0  0  0 
  6  9  1  0  0  0  0 
  5 10  1  0  0  0  0 
 10 11  1  0  0  0  0 
 10 12  1  0  0  0  0 
 10 13  1  0  0  0  0 
 13 14  1  0  0  0  0 
 13 15  1  0  0  0  0 
 13 16  1  0  0  0  0 
 16 17  2  0  0  0  0 
 17 18  1  0  0  0  0 
  5 18  1  0  0  0  0 
 18 19  1  0  0  0  0 
 18 20  1  0  0  0  0 
 17 21  1  0  0  0  0 
 21 22  2  0  0  0  0 
 22 23  1  0  0  0  0 
 22 24  1  0  0  0  0 
 24 25  1  0  0  0  0 
 24 26  2  0  0  0  0 
 26 27  1  0  0  0  0 
 27 28  1  0  0  0  0 
 27 29  2  0  0  0  0 
 21 29  1  0  0  0  0 
 29 30  1  0  0  0  0 
 26 31  1  0  0  0  0 
 16 32  1  0  0  0  0 
 32 33  1  0  0  0  0 
 32 34  1  0  0  0  0 
 32 35  1  0  0  0  0 
 35 36  1  0  0  0  0 
 36 37  1  0  0  0  0 
 36 38  1  0  0  0  0 
 36 39  1  0  0  0  0 
 39 40  1  0  0  0  0 
 39 41  1  0  0  0  0 
 39 42  1  0  0  0  0 
 42 43  1  0  0  0  0 
 43 44  1  0  0  0  0 
 43 45  1  0  0  0  0 
 43 46  1  0  0  0  0 
 35 46  1  0  0  0  0 
 46 47  1  0  0  0  0 
 46 48  1  0  0  0  0 
 42 49  1  0  0  0  0 
 49 50  2  0  0  0  0 
 50 51  1  0  0  0  0 
 50 52  1  0  0  0  0 
 52 53  2  0  0  0  0 
 52 54  1  0  0  0  0 
 54 55  2  0  0  0  0 
 55 56  1  0  0  0  0 
 55 57  1  0  0  0  0 
 49 57  1  0  0  0  0 
 57 58  1  0  0  0  0 
 57 59  1  0  0  0  0 
 54 60  1  0  0  0  0 
 60 61  2  0  0  0  0 
 60 62  1  0  0  0  0 
 62 63  1  0  0  0  0 
 62 64  1  0  0  0  0 
 64 65  2  0  0  0  0 
 64 66  2  0  0  0  0 
 64 67  1  0  0  0  0 
 67 68  2  0  0  0  0 
 68 69  1  0  0  0  0 
 68 70  1  0  0  0  0 
 70 71  1  0  0  0  0 
 70 72  2  0  0  0  0 
 72 73  1  0  0  0  0 
 73 74  2  0  0  0  0 
 67 74  1  0  0  0  0 
 74 75  1  0  0  0  0 
 73 76  1  0  0  0  0 
 76 77  2  0  0  0  0 
 76 78  1  0  0  0  0 
 72 79  1  0  0  0  0 
 79 80  1  0  0  0  0 
 79 81  1  0  0  0  0 
 81 82  1  0  0  0  0 
 81 83  1  0  0  0  0 
 81 84  1  0  0  0  0 
 84 85  1  0  0  0  0 
 84 86  1  0  0  0  0 
 86 87  1  0  0  0  0 
 86 88  1  0  0  0  0 
 86 89  1  0  0  0  0 
 89 90  1  0  0  0  0 
 89 91  1  0  0  0  0 
 89 92  1  0  0  0  0 
 92 93  1  0  0  0  0 
 93 94  1  0  0  0  0 
 93 95  1  0  0  0  0 
 93 96  1  0  0  0  0 
 84 96  1  0  0  0  0 
 96 97  1  0  0  0  0 
 96 98  1  0  0  0  0 
M  CHG  1  76   1
M  CHG  1  78  -1
M  END
> <Rank>
64

> <Priority_score>
0.0176

> <Reaction_type>
O-dearylation

> <Parent_ID>
12

> <Parent_InChI>
InChI=1S/C45H50ClN7O7S/c1-45(2)15-11-33(39(26-45)31-3-5-34(46)6-4-31)29-51-17-19-52(20-18-51)35-7-9-38(42(24-35)60-36-23-32-12-16-47-43(32)49-28-36)44(54)50-61(57,58)37-8-10-40(41(25-37)53(55)56)48-27-30-13-21-59-22-14-30/h3-10,12,16,23-25,28,30,48H,11,13-15,17-22,26-27,29H2,1-2H3,(H,47,49)(H,50,54)

> <Parent_SMILES>
CC1(C)CCC(CN2CCN(c3ccc(C(=O)NS(=O)(=O)c4ccc(NCC5CCOCC5)c([N+](=O)[O-])c4)c(Oc4cnc5[nH]ccc5c4)c3)CC2)=C(c2ccc(Cl)cc2)C1

$$$$
Molecule 12_metabolite 65
  CDK     0516241031

 16 17  0  0  0  0  0  0  0  0999 V2000
    1.7200    1.2100    0.0000 C   0  0  0  0  0  0  0  0  0  0  0  0
    2.1853    2.6360    0.0000 H   0  0  0  0  0  0  0  0  0  0  0  0
    2.6000    0.0000    0.0000 C   0  0  0  0  0  0  0  0  0  0  0  0
    4.1000   -0.0000    0.0000 H   0  0  0  0  0  0  0  0  0  0  0  0
    1.7200   -1.2100    0.0000 N   0  0  0  0  0  0  0  0  0  0  0  0
    2.1853   -2.6360    0.0000 H   0  0  0  0  0  0  0  0  0  0  0  0
    0.2900   -0.7500    0.0000 C   0  0  0  0  0  0  0  0  0  0  0  0
    0.2900    0.7500    0.0000 C   0  0  0  0  0  0  0  0  0  0  0  0
   -1.0100    1.5000    0.0000 C   0  0  0  0  0  0  0  0  0  0  0  0
   -1.0100    3.0000    0.0000 H   0  0  0  0  0  0  0  0  0  0  0  0
   -2.3100    0.7500    0.0000 C   0  0  0  0  0  0  0  0  0  0  0  0
   -2.3100   -0.7500    0.0000 C   0  0  0  0  0  0  0  0  0  0  0  0
   -3.6089   -1.5002    0.0000 H   0  0  0  0  0  0  0  0  0  0  0  0
   -1.0100   -1.5000    0.0000 N   0  0  0  0  0  0  0  0  0  0  0  0
   -3.6089    1.5002    0.0000 O   0  0  0  0  0  0  0  0  0  0  0  0
   -4.9081    0.7504    0.0000 H   0  0  0  0  0  0  0  0  0  0  0  0
  1  2  1  0  0  0  0 
  1  3  2  0  0  0  0 
  3  4  1  0  0  0  0 
  3  5  1  0  0  0  0 
  5  6  1  0  0  0  0 
  5  7  1  0  0  0  0 
  7  8  2  0  0  0  0 
  1  8  1  0  0  0  0 
  8  9  1  0  0  0  0 
  9 10  1  0  0  0  0 
  9 11  2  0  0  0  0 
 11 12  1  0  0  0  0 
 12 13  1  0  0  0  0 
 12 14  2  0  0  0  0 
  7 14  1  0  0  0  0 
 11 15  1  0  0  0  0 
 15 16  1  0  0  0  0 
M  END
> <Rank>
64

> <Priority_score>
0.0176

> <Reaction_type>
O-dearylation

> <Parent_ID>
12

> <Parent_InChI>
InChI=1S/C45H50ClN7O7S/c1-45(2)15-11-33(39(26-45)31-3-5-34(46)6-4-31)29-51-17-19-52(20-18-51)35-7-9-38(42(24-35)60-36-23-32-12-16-47-43(32)49-28-36)44(54)50-61(57,58)37-8-10-40(41(25-37)53(55)56)48-27-30-13-21-59-22-14-30/h3-10,12,16,23-25,28,30,48H,11,13-15,17-22,26-27,29H2,1-2H3,(H,47,49)(H,50,54)

> <Parent_SMILES>
CC1(C)CCC(CN2CCN(c3ccc(C(=O)NS(=O)(=O)c4ccc(NCC5CCOCC5)c([N+](=O)[O-])c4)c(Oc4cnc5[nH]ccc5c4)c3)CC2)=C(c2ccc(Cl)cc2)C1

$$$$
Molecule 12_metabolite 66
  CDK     0516241031

109116  0  0  0  0  0  0  0  0999 V2000
  -21.7802   10.1297    0.0000 C   0  0  0  0  0  0  0  0  0  0  0  0
  -20.8163    8.9804    0.0000 H   0  0  0  0  0  0  0  0  0  0  0  0
  -23.0790   10.8801    0.0000 H   0  0  0  0  0  0  0  0  0  0  0  0
  -22.7447    8.9809    0.0000 H   0  0  0  0  0  0  0  0  0  0  0  0
  -20.9382   12.4411    0.0000 C   0  0  0  0  0  0  0  0  0  0  0  0
  -23.3606   12.8692    0.0000 C   0  0  0  0  0  0  0  0  0  0  0  0
  -24.3253   11.7205    0.0000 H   0  0  0  0  0  0  0  0  0  0  0  0
  -24.6594   13.6197    0.0000 H   0  0  0  0  0  0  0  0  0  0  0  0
  -22.8471   14.2786    0.0000 H   0  0  0  0  0  0  0  0  0  0  0  0
  -19.6385   11.6905    0.0000 C   0  0  0  0  0  0  0  0  0  0  0  0
  -18.6750   10.5409    0.0000 H   0  0  0  0  0  0  0  0  0  0  0  0
  -20.6032   10.5418    0.0000 H   0  0  0  0  0  0  0  0  0  0  0  0
  -18.3382   12.4399    0.0000 C   0  0  0  0  0  0  0  0  0  0  0  0
  -16.8608   12.6995    0.0000 H   0  0  0  0  0  0  0  0  0  0  0  0
  -17.8261   11.0300    0.0000 H   0  0  0  0  0  0  0  0  0  0  0  0
  -18.3375   13.9399    0.0000 C   0  0  0  0  0  0  0  0  0  0  0  0
  -19.6371   14.6905    0.0000 C   0  0  0  0  0  0  0  0  0  0  0  0
  -20.9375   13.9411    0.0000 C   0  0  0  0  0  0  0  0  0  0  0  0
  -22.4148   13.6815    0.0000 H   0  0  0  0  0  0  0  0  0  0  0  0
  -21.4495   15.3510    0.0000 H   0  0  0  0  0  0  0  0  0  0  0  0
  -19.6364   16.1905    0.0000 C   0  0  0  0  0  0  0  0  0  0  0  0
  -20.9198   16.9347    0.0000 C   0  0  0  0  0  0  0  0  0  0  0  0
  -22.2178   16.1830    0.0000 H   0  0  0  0  0  0  0  0  0  0  0  0
  -20.9266   18.4347    0.0000 C   0  0  0  0  0  0  0  0  0  0  0  0
  -22.2335   19.1708    0.0000 H   0  0  0  0  0  0  0  0  0  0  0  0
  -19.6501   19.2005    0.0000 C   0  0  0  0  0  0  0  0  0  0  0  0
  -18.3366   18.4464    0.0000 C   0  0  0  0  0  0  0  0  0  0  0  0
  -17.0402   19.2010    0.0000 H   0  0  0  0  0  0  0  0  0  0  0  0
  -18.3298   16.9464    0.0000 C   0  0  0  0  0  0  0  0  0  0  0  0
  -17.0287   16.2000    0.0000 H   0  0  0  0  0  0  0  0  0  0  0  0
  -19.6645   20.7004    0.0000 Cl  0  0  0  0  0  0  0  0  0  0  0  0
  -17.0382   14.6895    0.0000 C   0  0  0  0  0  0  0  0  0  0  0  0
  -18.0020   15.8388    0.0000 H   0  0  0  0  0  0  0  0  0  0  0  0
  -16.0736   15.8382    0.0000 H   0  0  0  0  0  0  0  0  0  0  0  0
  -15.3238   13.6989    0.0000 N   0  0  0  0  0  0  0  0  0  0  0  0
  -15.3240   12.1981    0.0000 C   0  0  0  0  0  0  0  0  0  0  0  0
  -16.6234   11.4487    0.0000 H   0  0  0  0  0  0  0  0  0  0  0  0
  -14.0249   11.4466    0.0000 C   0  0  0  0  0  0  0  0  0  0  0  0
  -14.0258    9.9466    0.0000 H   0  0  0  0  0  0  0  0  0  0  0  0
  -12.7255   12.1960    0.0000 N   0  0  0  0  0  0  0  0  0  0  0  0
  -12.7252   13.6968    0.0000 C   0  0  0  0  0  0  0  0  0  0  0  0
  -11.2481   13.4358    0.0000 H   0  0  0  0  0  0  0  0  0  0  0  0
  -12.2114   15.1061    0.0000 H   0  0  0  0  0  0  0  0  0  0  0  0
  -14.0244   14.4483    0.0000 C   0  0  0  0  0  0  0  0  0  0  0  0
  -13.0594   15.5967    0.0000 H   0  0  0  0  0  0  0  0  0  0  0  0
  -14.9879   15.5979    0.0000 H   0  0  0  0  0  0  0  0  0  0  0  0
  -11.4267   11.4456    0.0000 C   0  0  0  0  0  0  0  0  0  0  0  0
  -10.1265   12.1954    0.0000 C   0  0  0  0  0  0  0  0  0  0  0  0
  -10.1263   13.6954    0.0000 H   0  0  0  0  0  0  0  0  0  0  0  0
   -8.8267   11.4452    0.0000 C   0  0  0  0  0  0  0  0  0  0  0  0
   -7.5276   12.1952    0.0000 H   0  0  0  0  0  0  0  0  0  0  0  0
   -8.8269    9.9452    0.0000 C   0  0  0  0  0  0  0  0  0  0  0  0
  -10.1270    9.1954    0.0000 C   0  0  0  0  0  0  0  0  0  0  0  0
  -11.4269    9.9456    0.0000 C   0  0  0  0  0  0  0  0  0  0  0  0
  -12.7259    9.1956    0.0000 H   0  0  0  0  0  0  0  0  0  0  0  0
  -10.1274    6.7354    0.0000 O   0  0  0  0  0  0  0  0  0  0  0  0
  -11.4266    5.9856    0.0000 C   0  0  0  0  0  0  0  0  0  0  0  0
  -11.4271    4.4848    0.0000 C   0  0  0  0  0  0  0  0  0  0  0  0
  -10.1280    3.7348    0.0000 H   0  0  0  0  0  0  0  0  0  0  0  0
  -12.7266    3.7339    0.0000 C   0  0  0  0  0  0  0  0  0  0  0  0
  -14.0256    4.4839    0.0000 C   0  0  0  0  0  0  0  0  0  0  0  0
  -15.1390    3.4755    0.0000 N   0  0  0  0  0  0  0  0  0  0  0  0
  -16.6066    3.7856    0.0000 H   0  0  0  0  0  0  0  0  0  0  0  0
  -14.5311    2.1084    0.0000 C   0  0  0  0  0  0  0  0  0  0  0  0
  -15.2811    0.8094    0.0000 H   0  0  0  0  0  0  0  0  0  0  0  0
  -13.0432    2.2655    0.0000 C   0  0  0  0  0  0  0  0  0  0  0  0
  -12.0409    1.1496    0.0000 H   0  0  0  0  0  0  0  0  0  0  0  0
  -14.0251    5.9848    0.0000 N   0  0  0  0  0  0  0  0  0  0  0  0
  -12.7256    6.7356    0.0000 C   0  0  0  0  0  0  0  0  0  0  0  0
  -12.7258    8.2356    0.0000 H   0  0  0  0  0  0  0  0  0  0  0  0
   -7.5281    9.1948    0.0000 C   0  0  0  0  0  0  0  0  0  0  0  0
   -7.5286    7.6948    0.0000 O   0  0  0  0  0  0  0  0  0  0  0  0
   -6.2288    9.9443    0.0000 N   0  0  0  0  0  0  0  0  0  0  0  0
   -6.2283   11.4443    0.0000 H   0  0  0  0  0  0  0  0  0  0  0  0
   -4.9300    9.1939    0.0000 S   0  0  0  0  0  0  0  0  0  0  0  0
   -5.8946    8.0452    0.0000 O   0  0  0  0  0  0  0  0  0  0  0  0
   -3.9662    8.0445    0.0000 O   0  0  0  0  0  0  0  0  0  0  0  0
   -3.6307    9.9435    0.0000 C   0  0  0  0  0  0  0  0  0  0  0  0
   -3.6300   11.4443    0.0000 C   0  0  0  0  0  0  0  0  0  0  0  0
   -4.9289   12.1945    0.0000 H   0  0  0  0  0  0  0  0  0  0  0  0
   -2.3304   12.1950    0.0000 C   0  0  0  0  0  0  0  0  0  0  0  0
   -2.3304   13.6950    0.0000 H   0  0  0  0  0  0  0  0  0  0  0  0
   -1.0315   11.4448    0.0000 C   0  0  0  0  0  0  0  0  0  0  0  0
   -1.0322    9.9439    0.0000 C   0  0  0  0  0  0  0  0  0  0  0  0
   -2.3318    9.1933    0.0000 C   0  0  0  0  0  0  0  0  0  0  0  0
   -2.3318    7.6933    0.0000 H   0  0  0  0  0  0  0  0  0  0  0  0
    0.2667    9.1937    0.0000 N   0  0  0  0  0  0  0  0  0  0  0  0
    1.5659    9.9435    0.0000 O   0  0  0  0  0  0  0  0  0  0  0  0
    0.2665    7.6937    0.0000 O   0  0  0  0  0  0  0  0  0  0  0  0
    0.2678   12.1943    0.0000 N   0  0  0  0  0  0  0  0  0  0  0  0
    1.5666   11.4439    0.0000 H   0  0  0  0  0  0  0  0  0  0  0  0
    0.2683   13.6943    0.0000 C   0  0  0  0  0  0  0  0  0  0  0  0
   -1.2090   13.4343    0.0000 H   0  0  0  0  0  0  0  0  0  0  0  0
   -0.2443   15.1040    0.0000 H   0  0  0  0  0  0  0  0  0  0  0  0
    2.3991   14.9237    0.0000 C   0  0  0  0  0  0  0  0  0  0  0  0
    2.9114   13.5138    0.0000 H   0  0  0  0  0  0  0  0  0  0  0  0
    1.4345   16.0735    0.0000 C   0  0  0  0  0  0  0  0  0  0  0  0
    0.1357   16.8239    0.0000 H   0  0  0  0  0  0  0  0  0  0  0  0
    0.4701   14.9246    0.0000 H   0  0  0  0  0  0  0  0  0  0  0  0
    1.9481   17.4828    0.0000 C   0  0  0  0  0  0  0  0  0  0  0  0
    1.9491   18.9828    0.0000 H   0  0  0  0  0  0  0  0  0  0  0  0
    0.4711   17.7440    0.0000 H   0  0  0  0  0  0  0  0  0  0  0  0
    3.4264   17.7423    0.0000 O   0  0  0  0  0  0  0  0  0  0  0  0
    4.3910   16.5925    0.0000 C   0  0  0  0  0  0  0  0  0  0  0  0
    5.6898   15.8421    0.0000 H   0  0  0  0  0  0  0  0  0  0  0  0
    5.3554   17.7413    0.0000 H   0  0  0  0  0  0  0  0  0  0  0  0
    3.8773   15.1832    0.0000 C   0  0  0  0  0  0  0  0  0  0  0  0
    3.8764   13.6832    0.0000 H   0  0  0  0  0  0  0  0  0  0  0  0
    5.3544   14.9219    0.0000 H   0  0  0  0  0  0  0  0  0  0  0  0
  1  2  1  0  0  0  0 
  1  3  1  0  0  0  0 
  1  4  1  0  0  0  0 
  1  5  1  0  0  0  0 
  5  6  1  0  0  0  0 
  6  7  1  0  0  0  0 
  6  8  1  0  0  0  0 
  6  9  1  0  0  0  0 
  5 10  1  0  0  0  0 
 10 11  1  0  0  0  0 
 10 12  1  0  0  0  0 
 10 13  1  0  0  0  0 
 13 14  1  0  0  0  0 
 13 15  1  0  0  0  0 
 13 16  1  0  0  0  0 
 16 17  2  0  0  0  0 
 17 18  1  0  0  0  0 
  5 18  1  0  0  0  0 
 18 19  1  0  0  0  0 
 18 20  1  0  0  0  0 
 17 21  1  0  0  0  0 
 21 22  2  0  0  0  0 
 22 23  1  0  0  0  0 
 22 24  1  0  0  0  0 
 24 25  1  0  0  0  0 
 24 26  2  0  0  0  0 
 26 27  1  0  0  0  0 
 27 28  1  0  0  0  0 
 27 29  2  0  0  0  0 
 21 29  1  0  0  0  0 
 29 30  1  0  0  0  0 
 26 31  1  0  0  0  0 
 16 32  1  0  0  0  0 
 32 33  1  0  0  0  0 
 32 34  1  0  0  0  0 
 32 35  1  0  0  0  0 
 35 36  1  0  0  0  0 
 36 37  1  0  0  0  0 
 36 38  2  0  0  0  0 
 38 39  1  0  0  0  0 
 38 40  1  0  0  0  0 
 40 41  1  0  0  0  0 
 41 42  1  0  0  0  0 
 41 43  1  0  0  0  0 
 41 44  1  0  0  0  0 
 35 44  1  0  0  0  0 
 44 45  1  0  0  0  0 
 44 46  1  0  0  0  0 
 40 47  1  0  0  0  0 
 47 48  2  0  0  0  0 
 48 49  1  0  0  0  0 
 48 50  1  0  0  0  0 
 50 51  1  0  0  0  0 
 50 52  2  0  0  0  0 
 52 53  1  0  0  0  0 
 53 54  2  0  0  0  0 
 47 54  1  0  0  0  0 
 54 55  1  0  0  0  0 
 53 56  1  0  0  0  0 
 56 57  1  0  0  0  0 
 57 58  2  0  0  0  0 
 58 59  1  0  0  0  0 
 58 60  1  0  0  0  0 
 60 61  2  0  0  0  0 
 61 62  1  0  0  0  0 
 62 63  1  0  0  0  0 
 62 64  1  0  0  0  0 
 64 65  1  0  0  0  0 
 64 66  2  0  0  0  0 
 60 66  1  0  0  0  0 
 66 67  1  0  0  0  0 
 61 68  1  0  0  0  0 
 68 69  2  0  0  0  0 
 57 69  1  0  0  0  0 
 69 70  1  0  0  0  0 
 52 71  1  0  0  0  0 
 71 72  2  0  0  0  0 
 71 73  1  0  0  0  0 
 73 74  1  0  0  0  0 
 73 75  1  0  0  0  0 
 75 76  2  0  0  0  0 
 75 77  2  0  0  0  0 
 75 78  1  0  0  0  0 
 78 79  2  0  0  0  0 
 79 80  1  0  0  0  0 
 79 81  1  0  0  0  0 
 81 82  1  0  0  0  0 
 81 83  2  0  0  0  0 
 83 84  1  0  0  0  0 
 84 85  2  0  0  0  0 
 78 85  1  0  0  0  0 
 85 86  1  0  0  0  0 
 84 87  1  0  0  0  0 
 87 88  2  0  0  0  0 
 87 89  1  0  0  0  0 
 83 90  1  0  0  0  0 
 90 91  1  0  0  0  0 
 90 92  1  0  0  0  0 
 92 93  1  0  0  0  0 
 92 94  1  0  0  0  0 
 92 95  1  0  0  0  0 
 95 96  1  0  0  0  0 
 95 97  1  0  0  0  0 
 97 98  1  0  0  0  0 
 97 99  1  0  0  0  0 
 97100  1  0  0  0  0 
100101  1  0  0  0  0 
100102  1  0  0  0  0 
100103  1  0  0  0  0 
103104  1  0  0  0  0 
104105  1  0  0  0  0 
104106  1  0  0  0  0 
104107  1  0  0  0  0 
 95107  1  0  0  0  0 
107108  1  0  0  0  0 
107109  1  0  0  0  0 
M  CHG  1  87   1
M  CHG  1  89  -1
M  END
> <Rank>
66

> <Priority_score>
0.016800000000000002

> <Reaction_type>
alkyl dehydrogenation

> <Parent_ID>
12

> <Parent_InChI>
InChI=1S/C45H50ClN7O7S/c1-45(2)15-11-33(39(26-45)31-3-5-34(46)6-4-31)29-51-17-19-52(20-18-51)35-7-9-38(42(24-35)60-36-23-32-12-16-47-43(32)49-28-36)44(54)50-61(57,58)37-8-10-40(41(25-37)53(55)56)48-27-30-13-21-59-22-14-30/h3-10,12,16,23-25,28,30,48H,11,13-15,17-22,26-27,29H2,1-2H3,(H,47,49)(H,50,54)

> <Parent_SMILES>
CC1(C)CCC(CN2CCN(c3ccc(C(=O)NS(=O)(=O)c4ccc(NCC5CCOCC5)c([N+](=O)[O-])c4)c(Oc4cnc5[nH]ccc5c4)c3)CC2)=C(c2ccc(Cl)cc2)C1

$$$$
Molecule 12_metabolite 67
  CDK     0516241031

110117  0  0  0  0  0  0  0  0999 V2000
    8.9550    9.8799    0.0000 C   0  0  0  0  0  0  0  0  0  0  0  0
    7.9904    8.7312    0.0000 H   0  0  0  0  0  0  0  0  0  0  0  0
   10.2543   10.6294    0.0000 H   0  0  0  0  0  0  0  0  0  0  0  0
    9.9187    8.7304    0.0000 H   0  0  0  0  0  0  0  0  0  0  0  0
    8.1145   12.1918    0.0000 C   0  0  0  0  0  0  0  0  0  0  0  0
   10.5372   12.6183    0.0000 C   0  0  0  0  0  0  0  0  0  0  0  0
   11.5011   11.4690    0.0000 H   0  0  0  0  0  0  0  0  0  0  0  0
   11.8365   13.3680    0.0000 H   0  0  0  0  0  0  0  0  0  0  0  0
   10.0246   14.0280    0.0000 H   0  0  0  0  0  0  0  0  0  0  0  0
    6.8144   11.4420    0.0000 C   0  0  0  0  0  0  0  0  0  0  0  0
    5.8501   10.2930    0.0000 H   0  0  0  0  0  0  0  0  0  0  0  0
    7.7782   10.2927    0.0000 H   0  0  0  0  0  0  0  0  0  0  0  0
    5.5145   12.1922    0.0000 C   0  0  0  0  0  0  0  0  0  0  0  0
    4.0373   12.4528    0.0000 H   0  0  0  0  0  0  0  0  0  0  0  0
    5.0015   10.7827    0.0000 H   0  0  0  0  0  0  0  0  0  0  0  0
    5.5147   13.6922    0.0000 C   0  0  0  0  0  0  0  0  0  0  0  0
    6.8148   14.4420    0.0000 C   0  0  0  0  0  0  0  0  0  0  0  0
    8.1147   13.6918    0.0000 C   0  0  0  0  0  0  0  0  0  0  0  0
    9.5919   13.4313    0.0000 H   0  0  0  0  0  0  0  0  0  0  0  0
    8.6277   15.1014    0.0000 H   0  0  0  0  0  0  0  0  0  0  0  0
    6.8151   15.9420    0.0000 C   0  0  0  0  0  0  0  0  0  0  0  0
    8.0989   16.6854    0.0000 C   0  0  0  0  0  0  0  0  0  0  0  0
    9.3965   15.9328    0.0000 H   0  0  0  0  0  0  0  0  0  0  0  0
    8.1067   18.1854    0.0000 C   0  0  0  0  0  0  0  0  0  0  0  0
    9.4141   18.9207    0.0000 H   0  0  0  0  0  0  0  0  0  0  0  0
    6.8307   18.9520    0.0000 C   0  0  0  0  0  0  0  0  0  0  0  0
    5.5168   18.1988    0.0000 C   0  0  0  0  0  0  0  0  0  0  0  0
    4.2208   18.9542    0.0000 H   0  0  0  0  0  0  0  0  0  0  0  0
    5.5090   16.6988    0.0000 C   0  0  0  0  0  0  0  0  0  0  0  0
    4.2074   15.9532    0.0000 H   0  0  0  0  0  0  0  0  0  0  0  0
    6.8460   20.4519    0.0000 Cl  0  0  0  0  0  0  0  0  0  0  0  0
    4.2159   14.4427    0.0000 C   0  0  0  0  0  0  0  0  0  0  0  0
    5.1805   15.5914    0.0000 H   0  0  0  0  0  0  0  0  0  0  0  0
    3.2521   15.5920    0.0000 H   0  0  0  0  0  0  0  0  0  0  0  0
    2.5009   13.4532    0.0000 N   0  0  0  0  0  0  0  0  0  0  0  0
    2.5001   11.9524    0.0000 C   0  0  0  0  0  0  0  0  0  0  0  0
    3.7991   11.2022    0.0000 H   0  0  0  0  0  0  0  0  0  0  0  0
    1.2005   11.2017    0.0000 C   0  0  0  0  0  0  0  0  0  0  0  0
    2.1647   10.0527    0.0000 H   0  0  0  0  0  0  0  0  0  0  0  0
    0.2363   10.0527    0.0000 H   0  0  0  0  0  0  0  0  0  0  0  0
   -0.0984   11.9520    0.0000 N   0  0  0  0  0  0  0  0  0  0  0  0
   -0.0977   13.4528    0.0000 C   0  0  0  0  0  0  0  0  0  0  0  0
   -1.5750   13.1927    0.0000 H   0  0  0  0  0  0  0  0  0  0  0  0
   -0.6106   14.8624    0.0000 H   0  0  0  0  0  0  0  0  0  0  0  0
    1.2019   14.2034    0.0000 C   0  0  0  0  0  0  0  0  0  0  0  0
    0.2377   15.3524    0.0000 H   0  0  0  0  0  0  0  0  0  0  0  0
    2.1662   15.3524    0.0000 H   0  0  0  0  0  0  0  0  0  0  0  0
   -1.3977   11.2024    0.0000 C   0  0  0  0  0  0  0  0  0  0  0  0
   -2.6973   11.9530    0.0000 C   0  0  0  0  0  0  0  0  0  0  0  0
   -2.6966   13.4530    0.0000 H   0  0  0  0  0  0  0  0  0  0  0  0
   -3.9977   11.2036    0.0000 C   0  0  0  0  0  0  0  0  0  0  0  0
   -5.2962   11.9545    0.0000 H   0  0  0  0  0  0  0  0  0  0  0  0
   -3.9984    9.7036    0.0000 C   0  0  0  0  0  0  0  0  0  0  0  0
   -2.6988    8.9530    0.0000 C   0  0  0  0  0  0  0  0  0  0  0  0
   -1.3984    9.7024    0.0000 C   0  0  0  0  0  0  0  0  0  0  0  0
   -0.0999    8.9515    0.0000 H   0  0  0  0  0  0  0  0  0  0  0  0
   -2.7000    6.4930    0.0000 O   0  0  0  0  0  0  0  0  0  0  0  0
   -1.4013    5.7424    0.0000 C   0  0  0  0  0  0  0  0  0  0  0  0
   -1.4018    4.2415    0.0000 C   0  0  0  0  0  0  0  0  0  0  0  0
   -2.7013    3.4924    0.0000 H   0  0  0  0  0  0  0  0  0  0  0  0
   -0.1027    3.4899    0.0000 C   0  0  0  0  0  0  0  0  0  0  0  0
    1.1968    4.2390    0.0000 C   0  0  0  0  0  0  0  0  0  0  0  0
    2.3095    3.2299    0.0000 N   0  0  0  0  0  0  0  0  0  0  0  0
    3.7773    3.5390    0.0000 H   0  0  0  0  0  0  0  0  0  0  0  0
    1.7008    1.8632    0.0000 C   0  0  0  0  0  0  0  0  0  0  0  0
    2.4499    0.5637    0.0000 H   0  0  0  0  0  0  0  0  0  0  0  0
    0.2130    2.0213    0.0000 C   0  0  0  0  0  0  0  0  0  0  0  0
   -0.7901    0.9059    0.0000 H   0  0  0  0  0  0  0  0  0  0  0  0
    1.1973    5.7399    0.0000 N   0  0  0  0  0  0  0  0  0  0  0  0
   -0.1018    6.4915    0.0000 C   0  0  0  0  0  0  0  0  0  0  0  0
   -0.1006    7.9915    0.0000 H   0  0  0  0  0  0  0  0  0  0  0  0
   -5.2977    8.9540    0.0000 C   0  0  0  0  0  0  0  0  0  0  0  0
   -5.2982    7.4540    0.0000 O   0  0  0  0  0  0  0  0  0  0  0  0
   -6.5965    9.7045    0.0000 N   0  0  0  0  0  0  0  0  0  0  0  0
   -6.5960   11.2045    0.0000 H   0  0  0  0  0  0  0  0  0  0  0  0
   -7.8958    8.9549    0.0000 S   0  0  0  0  0  0  0  0  0  0  0  0
   -6.9320    7.8055    0.0000 O   0  0  0  0  0  0  0  0  0  0  0  0
   -8.8603    7.8061    0.0000 O   0  0  0  0  0  0  0  0  0  0  0  0
   -9.1946    9.7053    0.0000 C   0  0  0  0  0  0  0  0  0  0  0  0
   -9.1943   11.2061    0.0000 C   0  0  0  0  0  0  0  0  0  0  0  0
   -7.8949   11.9555    0.0000 H   0  0  0  0  0  0  0  0  0  0  0  0
  -10.4935   11.9576    0.0000 C   0  0  0  0  0  0  0  0  0  0  0  0
  -10.4925   13.4576    0.0000 H   0  0  0  0  0  0  0  0  0  0  0  0
  -11.7929   11.2082    0.0000 C   0  0  0  0  0  0  0  0  0  0  0  0
  -11.7931    9.7074    0.0000 C   0  0  0  0  0  0  0  0  0  0  0  0
  -10.4940    8.9559    0.0000 C   0  0  0  0  0  0  0  0  0  0  0  0
  -10.4949    7.4559    0.0000 H   0  0  0  0  0  0  0  0  0  0  0  0
  -13.0925    8.9580    0.0000 N   0  0  0  0  0  0  0  0  0  0  0  0
  -14.3912    9.7086    0.0000 O   0  0  0  0  0  0  0  0  0  0  0  0
  -13.0932    7.4580    0.0000 O   0  0  0  0  0  0  0  0  0  0  0  0
  -13.0917   11.9586    0.0000 N   0  0  0  0  0  0  0  0  0  0  0  0
  -14.3910   11.2090    0.0000 H   0  0  0  0  0  0  0  0  0  0  0  0
  -13.0912   13.4586    0.0000 C   0  0  0  0  0  0  0  0  0  0  0  0
  -11.6141   13.1977    0.0000 H   0  0  0  0  0  0  0  0  0  0  0  0
  -12.5777   14.8680    0.0000 H   0  0  0  0  0  0  0  0  0  0  0  0
  -15.2212   14.6893    0.0000 C   0  0  0  0  0  0  0  0  0  0  0  0
  -15.7344   13.2798    0.0000 H   0  0  0  0  0  0  0  0  0  0  0  0
  -14.2559   15.8385    0.0000 C   0  0  0  0  0  0  0  0  0  0  0  0
  -12.9566   16.5881    0.0000 H   0  0  0  0  0  0  0  0  0  0  0  0
  -13.2922   14.6890    0.0000 H   0  0  0  0  0  0  0  0  0  0  0  0
  -14.7686   17.2481    0.0000 C   0  0  0  0  0  0  0  0  0  0  0  0
  -14.7686   18.7481    0.0000 H   0  0  0  0  0  0  0  0  0  0  0  0
  -13.2914   17.5085    0.0000 H   0  0  0  0  0  0  0  0  0  0  0  0
  -16.2467   17.5086    0.0000 O   0  0  0  0  0  0  0  0  0  0  0  0
  -17.2120   16.3594    0.0000 C   0  0  0  0  0  0  0  0  0  0  0  0
  -18.5113   15.6098    0.0000 H   0  0  0  0  0  0  0  0  0  0  0  0
  -18.1757   17.5089    0.0000 H   0  0  0  0  0  0  0  0  0  0  0  0
  -16.6993   14.9498    0.0000 C   0  0  0  0  0  0  0  0  0  0  0  0
  -16.6993   13.4498    0.0000 H   0  0  0  0  0  0  0  0  0  0  0  0
  -18.1765   14.6894    0.0000 H   0  0  0  0  0  0  0  0  0  0  0  0
  1  2  1  0  0  0  0 
  1  3  1  0  0  0  0 
  1  4  1  0  0  0  0 
  1  5  1  0  0  0  0 
  5  6  1  0  0  0  0 
  6  7  1  0  0  0  0 
  6  8  1  0  0  0  0 
  6  9  1  0  0  0  0 
  5 10  1  0  0  0  0 
 10 11  1  0  0  0  0 
 10 12  1  0  0  0  0 
 10 13  1  0  0  0  0 
 13 14  1  0  0  0  0 
 13 15  1  0  0  0  0 
 13 16  1  0  0  0  0 
 16 17  2  0  0  0  0 
 17 18  1  0  0  0  0 
  5 18  1  0  0  0  0 
 18 19  1  0  0  0  0 
 18 20  1  0  0  0  0 
 17 21  1  0  0  0  0 
 21 22  2  0  0  0  0 
 22 23  1  0  0  0  0 
 22 24  1  0  0  0  0 
 24 25  1  0  0  0  0 
 24 26  2  0  0  0  0 
 26 27  1  0  0  0  0 
 27 28  1  0  0  0  0 
 27 29  2  0  0  0  0 
 21 29  1  0  0  0  0 
 29 30  1  0  0  0  0 
 26 31  1  0  0  0  0 
 16 32  1  0  0  0  0 
 32 33  1  0  0  0  0 
 32 34  1  0  0  0  0 
 32 35  1  0  0  0  0 
 35 36  2  0  0  0  0 
 36 37  1  0  0  0  0 
 36 38  1  0  0  0  0 
 38 39  1  0  0  0  0 
 38 40  1  0  0  0  0 
 38 41  1  0  0  0  0 
 41 42  1  0  0  0  0 
 42 43  1  0  0  0  0 
 42 44  1  0  0  0  0 
 42 45  1  0  0  0  0 
 35 45  1  0  0  0  0 
 45 46  1  0  0  0  0 
 45 47  1  0  0  0  0 
 41 48  1  0  0  0  0 
 48 49  2  0  0  0  0 
 49 50  1  0  0  0  0 
 49 51  1  0  0  0  0 
 51 52  1  0  0  0  0 
 51 53  2  0  0  0  0 
 53 54  1  0  0  0  0 
 54 55  2  0  0  0  0 
 48 55  1  0  0  0  0 
 55 56  1  0  0  0  0 
 54 57  1  0  0  0  0 
 57 58  1  0  0  0  0 
 58 59  2  0  0  0  0 
 59 60  1  0  0  0  0 
 59 61  1  0  0  0  0 
 61 62  2  0  0  0  0 
 62 63  1  0  0  0  0 
 63 64  1  0  0  0  0 
 63 65  1  0  0  0  0 
 65 66  1  0  0  0  0 
 65 67  2  0  0  0  0 
 61 67  1  0  0  0  0 
 67 68  1  0  0  0  0 
 62 69  1  0  0  0  0 
 69 70  2  0  0  0  0 
 58 70  1  0  0  0  0 
 70 71  1  0  0  0  0 
 53 72  1  0  0  0  0 
 72 73  2  0  0  0  0 
 72 74  1  0  0  0  0 
 74 75  1  0  0  0  0 
 74 76  1  0  0  0  0 
 76 77  2  0  0  0  0 
 76 78  2  0  0  0  0 
 76 79  1  0  0  0  0 
 79 80  2  0  0  0  0 
 80 81  1  0  0  0  0 
 80 82  1  0  0  0  0 
 82 83  1  0  0  0  0 
 82 84  2  0  0  0  0 
 84 85  1  0  0  0  0 
 85 86  2  0  0  0  0 
 79 86  1  0  0  0  0 
 86 87  1  0  0  0  0 
 85 88  1  0  0  0  0 
 88 89  2  0  0  0  0 
 88 90  1  0  0  0  0 
 84 91  1  0  0  0  0 
 91 92  1  0  0  0  0 
 91 93  1  0  0  0  0 
 93 94  1  0  0  0  0 
 93 95  1  0  0  0  0 
 93 96  1  0  0  0  0 
 96 97  1  0  0  0  0 
 96 98  1  0  0  0  0 
 98 99  1  0  0  0  0 
 98100  1  0  0  0  0 
 98101  1  0  0  0  0 
101102  1  0  0  0  0 
101103  1  0  0  0  0 
101104  1  0  0  0  0 
104105  1  0  0  0  0 
105106  1  0  0  0  0 
105107  1  0  0  0  0 
105108  1  0  0  0  0 
 96108  1  0  0  0  0 
108109  1  0  0  0  0 
108110  1  0  0  0  0 
M  CHG  1  35   1
M  CHG  1  88   1
M  CHG  1  90  -1
M  END
> <Rank>
66

> <Priority_score>
0.016800000000000002

> <Reaction_type>
dehydration of N-C bond

> <Parent_ID>
12

> <Parent_InChI>
InChI=1S/C45H50ClN7O7S/c1-45(2)15-11-33(39(26-45)31-3-5-34(46)6-4-31)29-51-17-19-52(20-18-51)35-7-9-38(42(24-35)60-36-23-32-12-16-47-43(32)49-28-36)44(54)50-61(57,58)37-8-10-40(41(25-37)53(55)56)48-27-30-13-21-59-22-14-30/h3-10,12,16,23-25,28,30,48H,11,13-15,17-22,26-27,29H2,1-2H3,(H,47,49)(H,50,54)

> <Parent_SMILES>
CC1(C)CCC(CN2CCN(c3ccc(C(=O)NS(=O)(=O)c4ccc(NCC5CCOCC5)c([N+](=O)[O-])c4)c(Oc4cnc5[nH]ccc5c4)c3)CC2)=C(c2ccc(Cl)cc2)C1

$$$$
Molecule 12_metabolite 68
  CDK     0516241031

112119  0  0  0  0  0  0  0  0999 V2000
  -28.3280   20.1067    0.0000 C   0  0  0  0  0  0  0  0  0  0  0  0
  -27.3643   18.9572    0.0000 H   0  0  0  0  0  0  0  0  0  0  0  0
  -29.6267   20.8573    0.0000 H   0  0  0  0  0  0  0  0  0  0  0  0
  -29.2927   18.9581    0.0000 H   0  0  0  0  0  0  0  0  0  0  0  0
  -27.4856   22.4180    0.0000 C   0  0  0  0  0  0  0  0  0  0  0  0
  -29.9080   22.8465    0.0000 C   0  0  0  0  0  0  0  0  0  0  0  0
  -30.8728   21.6979    0.0000 H   0  0  0  0  0  0  0  0  0  0  0  0
  -31.2067   23.5972    0.0000 H   0  0  0  0  0  0  0  0  0  0  0  0
  -29.3942   24.2557    0.0000 H   0  0  0  0  0  0  0  0  0  0  0  0
  -26.1861   21.6672    0.0000 C   0  0  0  0  0  0  0  0  0  0  0  0
  -25.2228   20.5174    0.0000 H   0  0  0  0  0  0  0  0  0  0  0  0
  -27.1509   20.5186    0.0000 H   0  0  0  0  0  0  0  0  0  0  0  0
  -24.8856   22.4163    0.0000 C   0  0  0  0  0  0  0  0  0  0  0  0
  -22.9355   22.7587    0.0000 H   0  0  0  0  0  0  0  0  0  0  0  0
  -24.3738   21.0064    0.0000 H   0  0  0  0  0  0  0  0  0  0  0  0
  -24.8847   23.9163    0.0000 C   0  0  0  0  0  0  0  0  0  0  0  0
  -26.1842   24.6672    0.0000 C   0  0  0  0  0  0  0  0  0  0  0  0
  -27.4847   23.9180    0.0000 C   0  0  0  0  0  0  0  0  0  0  0  0
  -28.9621   23.6586    0.0000 H   0  0  0  0  0  0  0  0  0  0  0  0
  -27.9965   25.3280    0.0000 H   0  0  0  0  0  0  0  0  0  0  0  0
  -26.1832   26.1672    0.0000 C   0  0  0  0  0  0  0  0  0  0  0  0
  -27.4665   26.9115    0.0000 C   0  0  0  0  0  0  0  0  0  0  0  0
  -28.7647   26.1600    0.0000 H   0  0  0  0  0  0  0  0  0  0  0  0
  -27.4731   28.4115    0.0000 C   0  0  0  0  0  0  0  0  0  0  0  0
  -28.7799   29.1479    0.0000 H   0  0  0  0  0  0  0  0  0  0  0  0
  -26.1964   29.1771    0.0000 C   0  0  0  0  0  0  0  0  0  0  0  0
  -24.8831   28.4229    0.0000 C   0  0  0  0  0  0  0  0  0  0  0  0
  -23.5866   29.1772    0.0000 H   0  0  0  0  0  0  0  0  0  0  0  0
  -24.8765   26.9229    0.0000 C   0  0  0  0  0  0  0  0  0  0  0  0
  -23.5756   26.1762    0.0000 H   0  0  0  0  0  0  0  0  0  0  0  0
  -26.2106   30.6771    0.0000 Cl  0  0  0  0  0  0  0  0  0  0  0  0
  -23.5853   24.6657    0.0000 C   0  0  0  0  0  0  0  0  0  0  0  0
  -22.6205   25.8143    0.0000 H   0  0  0  0  0  0  0  0  0  0  0  0
  -24.5489   25.8152    0.0000 H   0  0  0  0  0  0  0  0  0  0  0  0
  -21.0399   23.1945    0.0000 N   0  0  0  0  0  0  0  0  0  0  0  0
  -21.0403   21.6936    0.0000 C   0  0  0  0  0  0  0  0  0  0  0  0
  -22.5174   21.9549    0.0000 H   0  0  0  0  0  0  0  0  0  0  0  0
  -21.5544   20.2845    0.0000 H   0  0  0  0  0  0  0  0  0  0  0  0
  -19.7413   20.9420    0.0000 C   0  0  0  0  0  0  0  0  0  0  0  0
  -20.7065   19.7937    0.0000 H   0  0  0  0  0  0  0  0  0  0  0  0
  -18.7780   19.7922    0.0000 H   0  0  0  0  0  0  0  0  0  0  0  0
  -18.4418   21.6912    0.0000 N   0  0  0  0  0  0  0  0  0  0  0  0
  -18.4413   23.1920    0.0000 C   0  0  0  0  0  0  0  0  0  0  0  0
  -16.9642   22.9307    0.0000 H   0  0  0  0  0  0  0  0  0  0  0  0
  -17.9272   24.6011    0.0000 H   0  0  0  0  0  0  0  0  0  0  0  0
  -19.7403   23.9436    0.0000 C   0  0  0  0  0  0  0  0  0  0  0  0
  -18.7752   25.0919    0.0000 H   0  0  0  0  0  0  0  0  0  0  0  0
  -20.7037   25.0934    0.0000 H   0  0  0  0  0  0  0  0  0  0  0  0
  -17.1431   20.9405    0.0000 C   0  0  0  0  0  0  0  0  0  0  0  0
  -15.8429   21.6901    0.0000 C   0  0  0  0  0  0  0  0  0  0  0  0
  -15.8424   23.1901    0.0000 H   0  0  0  0  0  0  0  0  0  0  0  0
  -14.5431   20.9397    0.0000 C   0  0  0  0  0  0  0  0  0  0  0  0
  -14.5436   19.4397    0.0000 C   0  0  0  0  0  0  0  0  0  0  0  0
  -15.8438   18.6901    0.0000 C   0  0  0  0  0  0  0  0  0  0  0  0
  -17.1436   19.4405    0.0000 C   0  0  0  0  0  0  0  0  0  0  0  0
  -18.4428   18.6907    0.0000 H   0  0  0  0  0  0  0  0  0  0  0  0
  -15.8443   17.1901    0.0000 O   0  0  0  0  0  0  0  0  0  0  0  0
  -14.5455   16.4397    0.0000 H   0  0  0  0  0  0  0  0  0  0  0  0
  -13.2449   18.6891    0.0000 C   0  0  0  0  0  0  0  0  0  0  0  0
  -13.2456   17.1891    0.0000 O   0  0  0  0  0  0  0  0  0  0  0  0
  -11.9455   19.4384    0.0000 N   0  0  0  0  0  0  0  0  0  0  0  0
  -11.9448   20.9384    0.0000 H   0  0  0  0  0  0  0  0  0  0  0  0
  -10.6468   18.6878    0.0000 S   0  0  0  0  0  0  0  0  0  0  0  0
  -11.6116   17.5392    0.0000 O   0  0  0  0  0  0  0  0  0  0  0  0
   -9.6832   17.5383    0.0000 O   0  0  0  0  0  0  0  0  0  0  0  0
   -9.3474   19.4372    0.0000 C   0  0  0  0  0  0  0  0  0  0  0  0
   -9.3465   20.9380    0.0000 C   0  0  0  0  0  0  0  0  0  0  0  0
  -10.6453   21.6884    0.0000 H   0  0  0  0  0  0  0  0  0  0  0  0
   -8.0467   21.6884    0.0000 C   0  0  0  0  0  0  0  0  0  0  0  0
   -8.0465   23.1884    0.0000 H   0  0  0  0  0  0  0  0  0  0  0  0
   -6.7479   20.9380    0.0000 C   0  0  0  0  0  0  0  0  0  0  0  0
   -6.7489   19.4372    0.0000 C   0  0  0  0  0  0  0  0  0  0  0  0
   -8.0486   18.6868    0.0000 C   0  0  0  0  0  0  0  0  0  0  0  0
   -8.0489   17.1868    0.0000 H   0  0  0  0  0  0  0  0  0  0  0  0
   -5.4501   18.6868    0.0000 N   0  0  0  0  0  0  0  0  0  0  0  0
   -4.1508   19.4364    0.0000 O   0  0  0  0  0  0  0  0  0  0  0  0
   -5.4506   17.1868    0.0000 O   0  0  0  0  0  0  0  0  0  0  0  0
   -5.4485   21.6874    0.0000 N   0  0  0  0  0  0  0  0  0  0  0  0
   -4.1498   20.9368    0.0000 H   0  0  0  0  0  0  0  0  0  0  0  0
   -5.4478   23.1874    0.0000 C   0  0  0  0  0  0  0  0  0  0  0  0
   -6.9251   22.9276    0.0000 H   0  0  0  0  0  0  0  0  0  0  0  0
   -5.9602   24.5972    0.0000 H   0  0  0  0  0  0  0  0  0  0  0  0
   -3.3168   24.4164    0.0000 C   0  0  0  0  0  0  0  0  0  0  0  0
   -2.8047   23.0065    0.0000 H   0  0  0  0  0  0  0  0  0  0  0  0
   -4.2812   25.5663    0.0000 C   0  0  0  0  0  0  0  0  0  0  0  0
   -5.5799   26.3170    0.0000 H   0  0  0  0  0  0  0  0  0  0  0  0
   -5.2458   24.4176    0.0000 H   0  0  0  0  0  0  0  0  0  0  0  0
   -3.7673   26.9756    0.0000 C   0  0  0  0  0  0  0  0  0  0  0  0
   -3.7661   28.4756    0.0000 H   0  0  0  0  0  0  0  0  0  0  0  0
   -5.2444   27.2371    0.0000 H   0  0  0  0  0  0  0  0  0  0  0  0
   -2.2891   27.2349    0.0000 O   0  0  0  0  0  0  0  0  0  0  0  0
   -1.3247   26.0849    0.0000 C   0  0  0  0  0  0  0  0  0  0  0  0
   -0.0260   25.3343    0.0000 H   0  0  0  0  0  0  0  0  0  0  0  0
   -0.3601   27.2336    0.0000 H   0  0  0  0  0  0  0  0  0  0  0  0
   -1.8385   24.6757    0.0000 C   0  0  0  0  0  0  0  0  0  0  0  0
   -1.8397   23.1757    0.0000 H   0  0  0  0  0  0  0  0  0  0  0  0
   -0.3615   24.4142    0.0000 H   0  0  0  0  0  0  0  0  0  0  0  0
  -13.2440   21.6895    0.0000 O   0  0  0  0  0  0  0  0  0  0  0  0
  -13.2436   24.1495    0.0000 C   0  0  0  0  0  0  0  0  0  0  0  0
  -11.9438   24.8999    0.0000 C   0  0  0  0  0  0  0  0  0  0  0  0
  -10.6450   24.1495    0.0000 H   0  0  0  0  0  0  0  0  0  0  0  0
  -11.9428   26.4007    0.0000 C   0  0  0  0  0  0  0  0  0  0  0  0
  -13.2416   27.1512    0.0000 C   0  0  0  0  0  0  0  0  0  0  0  0
  -12.9245   28.6195    0.0000 N   0  0  0  0  0  0  0  0  0  0  0  0
  -13.9265   29.7357    0.0000 H   0  0  0  0  0  0  0  0  0  0  0  0
  -11.4366   28.7761    0.0000 C   0  0  0  0  0  0  0  0  0  0  0  0
  -10.6862   30.0749    0.0000 H   0  0  0  0  0  0  0  0  0  0  0  0
  -10.8291   27.4088    0.0000 C   0  0  0  0  0  0  0  0  0  0  0  0
   -9.3616   27.0983    0.0000 H   0  0  0  0  0  0  0  0  0  0  0  0
  -14.5414   26.4007    0.0000 N   0  0  0  0  0  0  0  0  0  0  0  0
  -14.5424   24.8999    0.0000 C   0  0  0  0  0  0  0  0  0  0  0  0
  -15.8418   24.1505    0.0000 H   0  0  0  0  0  0  0  0  0  0  0  0
  1  2  1  0  0  0  0 
  1  3  1  0  0  0  0 
  1  4  1  0  0  0  0 
  1  5  1  0  0  0  0 
  5  6  1  0  0  0  0 
  6  7  1  0  0  0  0 
  6  8  1  0  0  0  0 
  6  9  1  0  0  0  0 
  5 10  1  0  0  0  0 
 10 11  1  0  0  0  0 
 10 12  1  0  0  0  0 
 10 13  1  0  0  0  0 
 13 14  1  0  0  0  0 
 13 15  1  0  0  0  0 
 13 16  1  0  0  0  0 
 16 17  2  0  0  0  0 
 17 18  1  0  0  0  0 
  5 18  1  0  0  0  0 
 18 19  1  0  0  0  0 
 18 20  1  0  0  0  0 
 17 21  1  0  0  0  0 
 21 22  2  0  0  0  0 
 22 23  1  0  0  0  0 
 22 24  1  0  0  0  0 
 24 25  1  0  0  0  0 
 24 26  2  0  0  0  0 
 26 27  1  0  0  0  0 
 27 28  1  0  0  0  0 
 27 29  2  0  0  0  0 
 21 29  1  0  0  0  0 
 29 30  1  0  0  0  0 
 26 31  1  0  0  0  0 
 16 32  1  0  0  0  0 
 32 33  1  0  0  0  0 
 32 34  1  0  0  0  0 
 32 35  1  0  0  0  0 
 35 36  1  0  0  0  0 
 36 37  1  0  0  0  0 
 36 38  1  0  0  0  0 
 36 39  1  0  0  0  0 
 39 40  1  0  0  0  0 
 39 41  1  0  0  0  0 
 39 42  1  0  0  0  0 
 42 43  1  0  0  0  0 
 43 44  1  0  0  0  0 
 43 45  1  0  0  0  0 
 43 46  1  0  0  0  0 
 35 46  1  0  0  0  0 
 46 47  1  0  0  0  0 
 46 48  1  0  0  0  0 
 42 49  1  0  0  0  0 
 49 50  2  0  0  0  0 
 50 51  1  0  0  0  0 
 50 52  1  0  0  0  0 
 52 53  2  0  0  0  0 
 53 54  1  0  0  0  0 
 54 55  2  0  0  0  0 
 49 55  1  0  0  0  0 
 55 56  1  0  0  0  0 
 54 57  1  0  0  0  0 
 57 58  1  0  0  0  0 
 53 59  1  0  0  0  0 
 59 60  2  0  0  0  0 
 59 61  1  0  0  0  0 
 61 62  1  0  0  0  0 
 61 63  1  0  0  0  0 
 63 64  2  0  0  0  0 
 63 65  2  0  0  0  0 
 63 66  1  0  0  0  0 
 66 67  2  0  0  0  0 
 67 68  1  0  0  0  0 
 67 69  1  0  0  0  0 
 69 70  1  0  0  0  0 
 69 71  2  0  0  0  0 
 71 72  1  0  0  0  0 
 72 73  2  0  0  0  0 
 66 73  1  0  0  0  0 
 73 74  1  0  0  0  0 
 72 75  1  0  0  0  0 
 75 76  2  0  0  0  0 
 75 77  1  0  0  0  0 
 71 78  1  0  0  0  0 
 78 79  1  0  0  0  0 
 78 80  1  0  0  0  0 
 80 81  1  0  0  0  0 
 80 82  1  0  0  0  0 
 80 83  1  0  0  0  0 
 83 84  1  0  0  0  0 
 83 85  1  0  0  0  0 
 85 86  1  0  0  0  0 
 85 87  1  0  0  0  0 
 85 88  1  0  0  0  0 
 88 89  1  0  0  0  0 
 88 90  1  0  0  0  0 
 88 91  1  0  0  0  0 
 91 92  1  0  0  0  0 
 92 93  1  0  0  0  0 
 92 94  1  0  0  0  0 
 92 95  1  0  0  0  0 
 83 95  1  0  0  0  0 
 95 96  1  0  0  0  0 
 95 97  1  0  0  0  0 
 52 98  1  0  0  0  0 
 98 99  1  0  0  0  0 
 99100  2  0  0  0  0 
100101  1  0  0  0  0 
100102  1  0  0  0  0 
102103  2  0  0  0  0 
103104  1  0  0  0  0 
104105  1  0  0  0  0 
104106  1  0  0  0  0 
106107  1  0  0  0  0 
106108  2  0  0  0  0 
102108  1  0  0  0  0 
108109  1  0  0  0  0 
103110  1  0  0  0  0 
110111  2  0  0  0  0 
 99111  1  0  0  0  0 
111112  1  0  0  0  0 
M  CHG  1  75   1
M  CHG  1  77  -1
M  END
> <Rank>
68

> <Priority_score>
0.016

> <Reaction_type>
aromatic hydroxylation

> <Parent_ID>
12

> <Parent_InChI>
InChI=1S/C45H50ClN7O7S/c1-45(2)15-11-33(39(26-45)31-3-5-34(46)6-4-31)29-51-17-19-52(20-18-51)35-7-9-38(42(24-35)60-36-23-32-12-16-47-43(32)49-28-36)44(54)50-61(57,58)37-8-10-40(41(25-37)53(55)56)48-27-30-13-21-59-22-14-30/h3-10,12,16,23-25,28,30,48H,11,13-15,17-22,26-27,29H2,1-2H3,(H,47,49)(H,50,54)

> <Parent_SMILES>
CC1(C)CCC(CN2CCN(c3ccc(C(=O)NS(=O)(=O)c4ccc(NCC5CCOCC5)c([N+](=O)[O-])c4)c(Oc4cnc5[nH]ccc5c4)c3)CC2)=C(c2ccc(Cl)cc2)C1

$$$$
Molecule 13
  CDK     0516241031

 22 24  0  0  0  0  0  0  0  0999 V2000
   -3.6545   -2.8184    0.0000 C   0  0  0  0  0  0  0  0  0  0  0  0
   -2.2200   -2.3800    0.0000 C   0  0  0  0  0  0  0  0  0  0  0  0
   -1.9537   -3.8562    0.0000 C   0  0  0  0  0  0  0  0  0  0  0  0
   -2.8100   -1.0400    0.0000 O   0  0  0  0  0  0  0  0  0  0  0  0
   -1.6800   -0.0600    0.0000 C   0  0  2  0  0  0  0  0  0  0  0  0
   -1.6400    1.4500    0.0000 C   0  0  0  0  0  0  0  0  0  0  0  0
   -0.3200    2.1700    0.0000 O   0  0  0  0  0  0  0  0  0  0  0  0
    0.9300    1.3600    0.0000 C   0  0  2  0  0  0  0  0  0  0  0  0
    1.1429    2.8448    0.0000 C   0  0  0  0  0  0  0  0  0  0  0  0
    2.5352    3.4029    0.0000 O   0  0  0  0  0  0  0  0  0  0  0  0
    2.7481    4.8877    0.0000 S   0  0  0  0  0  0  0  0  0  0  0  0
    2.4403    6.3558    0.0000 O   0  0  0  0  0  0  0  0  0  0  0  0
    1.2488    4.8395    0.0000 O   0  0  0  0  0  0  0  0  0  0  0  0
    4.1404    5.4458    0.0000 N   0  0  0  0  0  0  0  0  0  0  0  0
    0.9300   -0.1200    0.0000 C   0  0  2  0  0  0  0  0  0  0  0  0
   -0.3900   -0.8500    0.0000 C   0  0  2  0  0  0  0  0  0  0  0  0
   -0.7300   -2.2900    0.0000 O   0  0  0  0  0  0  0  0  0  0  0  0
    2.3300   -0.6200    0.0000 O   0  0  0  0  0  0  0  0  0  0  0  0
    3.2400    0.6000    0.0000 C   0  0  0  0  0  0  0  0  0  0  0  0
    4.3473   -0.4119    0.0000 C   0  0  0  0  0  0  0  0  0  0  0  0
    4.3569    1.6012    0.0000 C   0  0  0  0  0  0  0  0  0  0  0  0
    2.3700    1.7900    0.0000 O   0  0  0  0  0  0  0  0  0  0  0  0
  1  2  1  0  0  0  0 
  2  3  1  0  0  0  0 
  2  4  1  0  0  0  0 
  5  4  1  6  0  0  0 
  5  6  1  0  0  0  0 
  6  7  1  0  0  0  0 
  7  8  1  0  0  0  0 
  8  9  1  6  0  0  0 
  9 10  1  0  0  0  0 
 10 11  1  0  0  0  0 
 11 12  2  0  0  0  0 
 11 13  2  0  0  0  0 
 11 14  1  0  0  0  0 
  8 15  1  0  0  0  0 
 15 16  1  0  0  0  0 
  5 16  1  0  0  0  0 
 16 17  1  6  0  0  0 
  2 17  1  0  0  0  0 
 15 18  1  1  0  0  0 
 18 19  1  0  0  0  0 
 19 20  1  0  0  0  0 
 19 21  1  0  0  0  0 
 19 22  1  0  0  0  0 
  8 22  1  0  0  0  0 
M  END
> <SMILES>
CC1(C)O[C@@H]2CO[C@@]3(COS(N)(=O)=O)OC(C)(C)O[C@H]3[C@@H]2O1

$$$$
Molecule 13_metabolite 1
  CDK     0516241031

 48 50  0  0  0  0  0  0  0  0999 V2000
    6.1301    7.2014    0.0000 C   0  0  0  0  0  0  0  0  0  0  0  0
    6.3430    8.6862    0.0000 H   0  0  0  0  0  0  0  0  0  0  0  0
    6.4380    5.7333    0.0000 H   0  0  0  0  0  0  0  0  0  0  0  0
    7.6294    7.2496    0.0000 H   0  0  0  0  0  0  0  0  0  0  0  0
    4.7378    6.6433    0.0000 C   0  0  0  0  0  0  0  0  0  0  0  0
    3.5584    7.5701    0.0000 O   0  0  0  0  0  0  0  0  0  0  0  0
    4.5250    5.1585    0.0000 N   0  0  0  0  0  0  0  0  0  0  0  0
    5.7044    4.2318    0.0000 H   0  0  0  0  0  0  0  0  0  0  0  0
    3.1326    4.6005    0.0000 S   0  0  0  0  0  0  0  0  0  0  0  0
    2.8248    6.0685    0.0000 O   0  0  0  0  0  0  0  0  0  0  0  0
    1.6334    4.5523    0.0000 O   0  0  0  0  0  0  0  0  0  0  0  0
    2.8516    2.6405    0.0000 O   0  0  0  0  0  0  0  0  0  0  0  0
    1.4593    2.0824    0.0000 C   0  0  0  0  0  0  0  0  0  0  0  0
    1.1515    3.5505    0.0000 H   0  0  0  0  0  0  0  0  0  0  0  0
   -0.0399    2.0342    0.0000 H   0  0  0  0  0  0  0  0  0  0  0  0
    1.1783    0.1225    0.0000 C   0  0  2  0  0  0  0  0  0  0  0  0
    1.1783   -1.3575    0.0000 C   0  0  2  0  0  0  0  0  0  0  0  0
   -0.4080   -0.1726    0.0000 H   0  0  0  0  0  0  0  0  0  0  0  0
   -0.1417   -2.0875    0.0000 C   0  0  1  0  0  0  0  0  0  0  0  0
    1.0536   -2.9938    0.0000 H   0  0  0  0  0  0  0  0  0  0  0  0
   -1.4317   -1.2975    0.0000 C   0  0  1  0  0  0  0  0  0  0  0  0
   -0.0434   -0.7294    0.0000 H   0  0  0  0  0  0  0  0  0  0  0  0
   -1.3917    0.2125    0.0000 C   0  0  0  0  0  0  0  0  0  0  0  0
   -1.8693    1.6344    0.0000 H   0  0  0  0  0  0  0  0  0  0  0  0
   -2.8751   -0.0099    0.0000 H   0  0  0  0  0  0  0  0  0  0  0  0
   -0.0717    0.9325    0.0000 O   0  0  0  0  0  0  0  0  0  0  0  0
   -2.5617   -2.2775    0.0000 O   0  0  0  0  0  0  0  0  0  0  0  0
   -1.9717   -3.6175    0.0000 C   0  0  0  0  0  0  0  0  0  0  0  0
   -3.4062   -4.0560    0.0000 C   0  0  0  0  0  0  0  0  0  0  0  0
   -3.7437   -5.5175    0.0000 H   0  0  0  0  0  0  0  0  0  0  0  0
   -3.5888   -2.5671    0.0000 H   0  0  0  0  0  0  0  0  0  0  0  0
   -4.9041   -3.9773    0.0000 H   0  0  0  0  0  0  0  0  0  0  0  0
   -1.7054   -5.0937    0.0000 C   0  0  0  0  0  0  0  0  0  0  0  0
   -2.8506   -6.0624    0.0000 H   0  0  0  0  0  0  0  0  0  0  0  0
   -0.9503   -6.3898    0.0000 H   0  0  0  0  0  0  0  0  0  0  0  0
   -0.2979   -4.5751    0.0000 H   0  0  0  0  0  0  0  0  0  0  0  0
   -0.4817   -3.5275    0.0000 O   0  0  0  0  0  0  0  0  0  0  0  0
    2.5783   -1.8575    0.0000 O   0  0  0  0  0  0  0  0  0  0  0  0
    3.4883   -0.6375    0.0000 C   0  0  0  0  0  0  0  0  0  0  0  0
    4.5956   -1.6494    0.0000 C   0  0  0  0  0  0  0  0  0  0  0  0
    6.0256   -1.1964    0.0000 H   0  0  0  0  0  0  0  0  0  0  0  0
    3.4068   -2.5642    0.0000 H   0  0  0  0  0  0  0  0  0  0  0  0
    5.2900   -2.9790    0.0000 H   0  0  0  0  0  0  0  0  0  0  0  0
    4.6053    0.3637    0.0000 C   0  0  0  0  0  0  0  0  0  0  0  0
    6.0308   -0.1030    0.0000 H   0  0  0  0  0  0  0  0  0  0  0  0
    5.3124    1.6866    0.0000 H   0  0  0  0  0  0  0  0  0  0  0  0
    3.4253    1.2898    0.0000 H   0  0  0  0  0  0  0  0  0  0  0  0
    2.6183    0.5525    0.0000 O   0  0  0  0  0  0  0  0  0  0  0  0
  1  2  1  0  0  0  0 
  1  3  1  0  0  0  0 
  1  4  1  0  0  0  0 
  1  5  1  0  0  0  0 
  5  6  2  0  0  0  0 
  5  7  1  0  0  0  0 
  7  8  1  0  0  0  0 
  7  9  1  0  0  0  0 
  9 10  2  0  0  0  0 
  9 11  2  0  0  0  0 
  9 12  1  0  0  0  0 
 12 13  1  0  0  0  0 
 13 14  1  0  0  0  0 
 13 15  1  0  0  0  0 
 13 16  1  0  0  0  0 
 16 17  1  0  0  0  0 
 17 18  1  6  0  0  0 
 17 19  1  0  0  0  0 
 19 20  1  1  0  0  0 
 19 21  1  0  0  0  0 
 21 22  1  1  0  0  0 
 21 23  1  0  0  0  0 
 23 24  1  0  0  0  0 
 23 25  1  0  0  0  0 
 23 26  1  0  0  0  0 
 16 26  1  1  0  0  0 
 21 27  1  0  0  0  0 
 27 28  1  0  0  0  0 
 28 29  1  0  0  0  0 
 29 30  1  0  0  0  0 
 29 31  1  0  0  0  0 
 29 32  1  0  0  0  0 
 28 33  1  0  0  0  0 
 33 34  1  0  0  0  0 
 33 35  1  0  0  0  0 
 33 36  1  0  0  0  0 
 28 37  1  0  0  0  0 
 19 37  1  0  0  0  0 
 17 38  1  0  0  0  0 
 38 39  1  0  0  0  0 
 39 40  1  0  0  0  0 
 40 41  1  0  0  0  0 
 40 42  1  0  0  0  0 
 40 43  1  0  0  0  0 
 39 44  1  0  0  0  0 
 44 45  1  0  0  0  0 
 44 46  1  0  0  0  0 
 44 47  1  0  0  0  0 
 39 48  1  0  0  0  0 
 16 48  1  0  0  0  0 
M  END
> <Rank>
1

> <Priority_score>
0.716

> <Reaction_type>
N-acetylation_(heteroatom_bonded_NH2)

> <Parent_ID>
13

> <Parent_InChI>
InChI=1S/C12H21NO8S/c1-10(2)18-7-5-16-12(6-17-22(13,14)15)9(8(7)19-10)20-11(3,4)21-12/h7-9H,5-6H2,1-4H3,(H2,13,14,15)

> <Parent_SMILES>
CC1(C)O[C@@H]2CO[C@@]3(COS(N)(=O)=O)OC(C)(C)O[C@H]3[C@@H]2O1

$$$$
Molecule 13_metabolite 2
  CDK     0516241031

 44 46  0  0  0  0  0  0  0  0999 V2000
    6.5851   -5.2489    0.0000 C   0  0  0  0  0  0  0  0  0  0  0  0
    6.4984   -6.7464    0.0000 H   0  0  0  0  0  0  0  0  0  0  0  0
    7.1787   -3.8714    0.0000 H   0  0  0  0  0  0  0  0  0  0  0  0
    8.0448   -5.5943    0.0000 H   0  0  0  0  0  0  0  0  0  0  0  0
    5.3315   -4.4251    0.0000 C   0  0  0  0  0  0  0  0  0  0  0  0
    4.6612   -5.7670    0.0000 C   0  0  0  0  0  0  0  0  0  0  0  0
    5.4882   -7.0185    0.0000 H   0  0  0  0  0  0  0  0  0  0  0  0
    3.5724   -6.7987    0.0000 H   0  0  0  0  0  0  0  0  0  0  0  0
    3.4561   -4.8739    0.0000 H   0  0  0  0  0  0  0  0  0  0  0  0
    6.2742   -3.3049    0.0000 O   0  0  0  0  0  0  0  0  0  0  0  0
    5.4651   -2.0469    0.0000 C   0  0  2  0  0  0  0  0  0  0  0  0
    3.9171   -0.8123    0.0000 H   0  0  0  0  0  0  0  0  0  0  0  0
    5.8509   -0.5864    0.0000 C   0  0  0  0  0  0  0  0  0  0  0  0
    6.7088    0.6440    0.0000 H   0  0  0  0  0  0  0  0  0  0  0  0
    7.2121   -1.2166    0.0000 H   0  0  0  0  0  0  0  0  0  0  0  0
    4.7864    0.4754    0.0000 O   0  0  0  0  0  0  0  0  0  0  0  0
    3.3592    0.0492    0.0000 C   0  0  2  0  0  0  0  0  0  0  0  0
    3.6401    2.0092    0.0000 C   0  0  0  0  0  0  0  0  0  0  0  0
    4.3480    3.3317    0.0000 H   0  0  0  0  0  0  0  0  0  0  0  0
    5.0654    1.5417    0.0000 H   0  0  0  0  0  0  0  0  0  0  0  0
    2.4607    2.9360    0.0000 O   0  0  0  0  0  0  0  0  0  0  0  0
    2.6735    4.4208    0.0000 S   0  0  0  0  0  0  0  0  0  0  0  0
    2.8864    5.9056    0.0000 O   0  0  0  0  0  0  0  0  0  0  0  0
    1.4941    5.3475    0.0000 O   0  0  0  0  0  0  0  0  0  0  0  0
    1.2812    3.8627    0.0000 O   0  0  0  0  0  0  0  0  0  0  0  0
    4.0659    4.9788    0.0000 N   0  0  0  0  0  0  0  0  0  0  0  0
    4.2787    6.4637    0.0000 H   0  0  0  0  0  0  0  0  0  0  0  0
    5.2453    4.0521    0.0000 H   0  0  0  0  0  0  0  0  0  0  0  0
    2.9433   -1.3712    0.0000 C   0  0  2  0  0  0  0  0  0  0  0  0
    4.7987   -0.6797    0.0000 H   0  0  0  0  0  0  0  0  0  0  0  0
    4.0051   -2.4426    0.0000 C   0  0  2  0  0  0  0  0  0  0  0  0
    2.6033   -2.9766    0.0000 H   0  0  0  0  0  0  0  0  0  0  0  0
    3.9268   -3.9201    0.0000 O   0  0  0  0  0  0  0  0  0  0  0  0
    1.4593   -1.4577    0.0000 O   0  0  0  0  0  0  0  0  0  0  0  0
    0.9287   -0.0312    0.0000 C   0  0  0  0  0  0  0  0  0  0  0  0
   -0.4183   -0.6912    0.0000 C   0  0  0  0  0  0  0  0  0  0  0  0
   -1.6634    0.1453    0.0000 H   0  0  0  0  0  0  0  0  0  0  0  0
    0.4656   -1.9031    0.0000 H   0  0  0  0  0  0  0  0  0  0  0  0
   -1.4583   -1.7721    0.0000 H   0  0  0  0  0  0  0  0  0  0  0  0
    0.1380    1.2436    0.0000 C   0  0  0  0  0  0  0  0  0  0  0  0
   -1.3612    1.1962    0.0000 H   0  0  0  0  0  0  0  0  0  0  0  0
   -0.1689    2.7118    0.0000 H   0  0  0  0  0  0  0  0  0  0  0  0
    1.5307    1.8008    0.0000 H   0  0  0  0  0  0  0  0  0  0  0  0
    2.0980    0.8665    0.0000 O   0  0  0  0  0  0  0  0  0  0  0  0
  1  2  1  0  0  0  0 
  1  3  1  0  0  0  0 
  1  4  1  0  0  0  0 
  1  5  1  0  0  0  0 
  5  6  1  0  0  0  0 
  6  7  1  0  0  0  0 
  6  8  1  0  0  0  0 
  6  9  1  0  0  0  0 
  5 10  1  0  0  0  0 
 10 11  1  0  0  0  0 
 11 12  1  6  0  0  0 
 11 13  1  0  0  0  0 
 13 14  1  0  0  0  0 
 13 15  1  0  0  0  0 
 13 16  1  0  0  0  0 
 17 16  1  6  0  0  0 
 17 18  1  0  0  0  0 
 18 19  1  0  0  0  0 
 18 20  1  0  0  0  0 
 18 21  1  0  0  0  0 
 21 22  1  0  0  0  0 
 22 23  2  0  0  0  0 
 22 24  2  0  0  0  0 
 22 25  2  0  0  0  0 
 22 26  1  0  0  0  0 
 26 27  1  0  0  0  0 
 26 28  1  0  0  0  0 
 17 29  1  0  0  0  0 
 29 30  1  1  0  0  0 
 29 31  1  0  0  0  0 
 11 31  1  0  0  0  0 
 31 32  1  6  0  0  0 
 31 33  1  0  0  0  0 
  5 33  1  0  0  0  0 
 29 34  1  0  0  0  0 
 34 35  1  0  0  0  0 
 35 36  1  0  0  0  0 
 36 37  1  0  0  0  0 
 36 38  1  0  0  0  0 
 36 39  1  0  0  0  0 
 35 40  1  0  0  0  0 
 40 41  1  0  0  0  0 
 40 42  1  0  0  0  0 
 40 43  1  0  0  0  0 
 35 44  1  0  0  0  0 
 17 44  1  0  0  0  0 
M  END
> <Rank>
2

> <Priority_score>
0.336

> <Reaction_type>
S-oxidation

> <Parent_ID>
13

> <Parent_InChI>
InChI=1S/C12H21NO8S/c1-10(2)18-7-5-16-12(6-17-22(13,14)15)9(8(7)19-10)20-11(3,4)21-12/h7-9H,5-6H2,1-4H3,(H2,13,14,15)

> <Parent_SMILES>
CC1(C)O[C@@H]2CO[C@@]3(COS(N)(=O)=O)OC(C)(C)O[C@H]3[C@@H]2O1

$$$$
Molecule 13_metabolite 3
  CDK     0516241031

 43 45  0  0  0  0  0  0  0  0999 V2000
    4.5956   -1.6494    0.0000 C   0  0  0  0  0  0  0  0  0  0  0  0
    6.0256   -1.1964    0.0000 H   0  0  0  0  0  0  0  0  0  0  0  0
    3.4068   -2.5642    0.0000 H   0  0  0  0  0  0  0  0  0  0  0  0
    5.2900   -2.9790    0.0000 H   0  0  0  0  0  0  0  0  0  0  0  0
    3.1340   -0.3137    0.0000 C   0  0  0  0  0  0  0  0  0  0  0  0
    4.2509    0.6875    0.0000 C   0  0  0  0  0  0  0  0  0  0  0  0
    3.9423    2.1554    0.0000 H   0  0  0  0  0  0  0  0  0  0  0  0
    5.6429    1.2464    0.0000 H   0  0  0  0  0  0  0  0  0  0  0  0
    5.0430   -0.5863    0.0000 H   0  0  0  0  0  0  0  0  0  0  0  0
    2.2240   -1.5337    0.0000 O   0  0  0  0  0  0  0  0  0  0  0  0
    0.8240   -1.0337    0.0000 C   0  0  1  0  0  0  0  0  0  0  0  0
   -0.7623    0.1512    0.0000 H   0  0  0  0  0  0  0  0  0  0  0  0
   -0.4960   -1.7637    0.0000 C   0  0  1  0  0  0  0  0  0  0  0  0
    0.6993   -2.6700    0.0000 H   0  0  0  0  0  0  0  0  0  0  0  0
   -1.7860   -0.9737    0.0000 C   0  0  1  0  0  0  0  0  0  0  0  0
   -0.3978   -0.4056    0.0000 H   0  0  0  0  0  0  0  0  0  0  0  0
   -1.7460    0.5363    0.0000 C   0  0  0  0  0  0  0  0  0  0  0  0
   -2.2236    1.9582    0.0000 H   0  0  0  0  0  0  0  0  0  0  0  0
   -3.2294    0.3139    0.0000 H   0  0  0  0  0  0  0  0  0  0  0  0
   -0.4260    1.2563    0.0000 O   0  0  0  0  0  0  0  0  0  0  0  0
    0.8240    0.4463    0.0000 C   0  0  2  0  0  0  0  0  0  0  0  0
    1.1050    2.4062    0.0000 C   0  0  0  0  0  0  0  0  0  0  0  0
    2.5303    1.9388    0.0000 H   0  0  0  0  0  0  0  0  0  0  0  0
    1.8129    3.7287    0.0000 H   0  0  0  0  0  0  0  0  0  0  0  0
   -0.0745    3.3330    0.0000 O   0  0  0  0  0  0  0  0  0  0  0  0
    0.2065    5.2930    0.0000 S   0  0  0  0  0  0  0  0  0  0  0  0
    1.6318    4.8255    0.0000 O   0  0  0  0  0  0  0  0  0  0  0  0
    0.9144    6.6154    0.0000 O   0  0  0  0  0  0  0  0  0  0  0  0
   -0.9729    6.2197    0.0000 N   0  0  0  0  0  0  0  0  0  0  0  0
   -0.7601    7.7045    0.0000 H   0  0  0  0  0  0  0  0  0  0  0  0
   -2.3653    5.6617    0.0000 H   0  0  0  0  0  0  0  0  0  0  0  0
    2.2640    0.8763    0.0000 O   0  0  0  0  0  0  0  0  0  0  0  0
   -2.9160   -1.9537    0.0000 O   0  0  0  0  0  0  0  0  0  0  0  0
   -2.3260   -3.2937    0.0000 C   0  0  0  0  0  0  0  0  0  0  0  0
   -3.7605   -3.7321    0.0000 C   0  0  0  0  0  0  0  0  0  0  0  0
   -4.0981   -5.1937    0.0000 H   0  0  0  0  0  0  0  0  0  0  0  0
   -3.9432   -2.2433    0.0000 H   0  0  0  0  0  0  0  0  0  0  0  0
   -5.2584   -3.6535    0.0000 H   0  0  0  0  0  0  0  0  0  0  0  0
   -2.0597   -4.7699    0.0000 C   0  0  0  0  0  0  0  0  0  0  0  0
   -0.6482   -5.2774    0.0000 O   0  0  0  0  0  0  0  0  0  0  0  0
   -3.2050   -5.7386    0.0000 O   0  0  0  0  0  0  0  0  0  0  0  0
   -2.9387   -7.2148    0.0000 H   0  0  0  0  0  0  0  0  0  0  0  0
   -0.8360   -3.2037    0.0000 O   0  0  0  0  0  0  0  0  0  0  0  0
  1  2  1  0  0  0  0 
  1  3  1  0  0  0  0 
  1  4  1  0  0  0  0 
  1  5  1  0  0  0  0 
  5  6  1  0  0  0  0 
  6  7  1  0  0  0  0 
  6  8  1  0  0  0  0 
  6  9  1  0  0  0  0 
  5 10  1  0  0  0  0 
 10 11  1  0  0  0  0 
 11 12  1  6  0  0  0 
 11 13  1  0  0  0  0 
 13 14  1  1  0  0  0 
 13 15  1  0  0  0  0 
 15 16  1  1  0  0  0 
 15 17  1  0  0  0  0 
 17 18  1  0  0  0  0 
 17 19  1  0  0  0  0 
 17 20  1  0  0  0  0 
 21 20  1  1  0  0  0 
 11 21  1  0  0  0  0 
 21 22  1  0  0  0  0 
 22 23  1  0  0  0  0 
 22 24  1  0  0  0  0 
 22 25  1  0  0  0  0 
 25 26  1  0  0  0  0 
 26 27  2  0  0  0  0 
 26 28  2  0  0  0  0 
 26 29  1  0  0  0  0 
 29 30  1  0  0  0  0 
 29 31  1  0  0  0  0 
 21 32  1  0  0  0  0 
  5 32  1  0  0  0  0 
 15 33  1  0  0  0  0 
 33 34  1  0  0  0  0 
 34 35  1  0  0  0  0 
 35 36  1  0  0  0  0 
 35 37  1  0  0  0  0 
 35 38  1  0  0  0  0 
 34 39  1  0  0  0  0 
 39 40  2  0  0  0  0 
 39 41  1  0  0  0  0 
 41 42  1  0  0  0  0 
 34 43  1  0  0  0  0 
 13 43  1  0  0  0  0 
M  END
> <Rank>
3

> <Priority_score>
0.11976587178693095

> <Reaction_type>
carboxylation_(primary_carbon_next_to_quart_carbon)

> <Parent_ID>
13

> <Parent_InChI>
InChI=1S/C12H21NO8S/c1-10(2)18-7-5-16-12(6-17-22(13,14)15)9(8(7)19-10)20-11(3,4)21-12/h7-9H,5-6H2,1-4H3,(H2,13,14,15)

> <Parent_SMILES>
CC1(C)O[C@@H]2CO[C@@]3(COS(N)(=O)=O)OC(C)(C)O[C@H]3[C@@H]2O1

$$$$
Molecule 13_metabolite 4
  CDK     0516241031

 44 45  0  0  0  0  0  0  0  0999 V2000
   -4.9204    4.6308    0.0000 C   0  0  0  0  0  0  0  0  0  0  0  0
   -6.3975    4.8915    0.0000 H   0  0  0  0  0  0  0  0  0  0  0  0
   -3.4431    4.8909    0.0000 H   0  0  0  0  0  0  0  0  0  0  0  0
   -4.9200    6.1308    0.0000 H   0  0  0  0  0  0  0  0  0  0  0  0
   -4.4076    3.2211    0.0000 C   0  0  0  0  0  0  0  0  0  0  0  0
   -5.8849    2.9609    0.0000 C   0  0  0  0  0  0  0  0  0  0  0  0
   -6.8488    4.1102    0.0000 H   0  0  0  0  0  0  0  0  0  0  0  0
   -7.1841    2.2112    0.0000 H   0  0  0  0  0  0  0  0  0  0  0  0
   -5.3722    1.5513    0.0000 H   0  0  0  0  0  0  0  0  0  0  0  0
   -4.4079    1.7211    0.0000 O   0  0  0  0  0  0  0  0  0  0  0  0
   -6.1229    0.7315    0.0000 H   0  0  0  0  0  0  0  0  0  0  0  0
   -2.4578    2.8769    0.0000 O   0  0  0  0  0  0  0  0  0  0  0  0
   -1.9451    1.4672    0.0000 C   0  0  2  0  0  0  0  0  0  0  0  0
   -3.4223    1.2069    0.0000 H   0  0  0  0  0  0  0  0  0  0  0  0
   -1.9451   -0.0328    0.0000 C   0  0  0  0  0  0  0  0  0  0  0  0
   -3.4223    0.2275    0.0000 H   0  0  0  0  0  0  0  0  0  0  0  0
   -2.4578   -1.4424    0.0000 H   0  0  0  0  0  0  0  0  0  0  0  0
   -0.6451   -0.7828    0.0000 O   0  0  0  0  0  0  0  0  0  0  0  0
    0.6549   -0.0328    0.0000 C   0  0  2  0  0  0  0  0  0  0  0  0
    0.8645   -2.0017    0.0000 C   0  0  0  0  0  0  0  0  0  0  0  0
   -0.6320   -1.8990    0.0000 H   0  0  0  0  0  0  0  0  0  0  0  0
    0.5035   -3.4576    0.0000 H   0  0  0  0  0  0  0  0  0  0  0  0
    2.2356   -2.6100    0.0000 O   0  0  0  0  0  0  0  0  0  0  0  0
    2.3943   -4.1016    0.0000 S   0  0  0  0  0  0  0  0  0  0  0  0
    3.8357   -3.6862    0.0000 O   0  0  0  0  0  0  0  0  0  0  0  0
    3.0537   -5.4489    0.0000 O   0  0  0  0  0  0  0  0  0  0  0  0
    1.1820   -4.9848    0.0000 N   0  0  0  0  0  0  0  0  0  0  0  0
    1.3407   -6.4764    0.0000 H   0  0  0  0  0  0  0  0  0  0  0  0
   -0.1891   -4.3765    0.0000 H   0  0  0  0  0  0  0  0  0  0  0  0
    0.6549    1.4672    0.0000 C   0  0  2  0  0  0  0  0  0  0  0  0
    0.8137    2.9588    0.0000 H   0  0  0  0  0  0  0  0  0  0  0  0
   -0.6451    2.2172    0.0000 C   0  0  0  0  0  0  0  0  0  0  0  0
   -0.6451    3.7172    0.0000 O   0  0  0  0  0  0  0  0  0  0  0  0
    2.0849    1.9272    0.0000 O   0  0  0  0  0  0  0  0  0  0  0  0
    2.9649    0.7172    0.0000 C   0  0  0  0  0  0  0  0  0  0  0  0
    4.0795   -0.2867    0.0000 C   0  0  0  0  0  0  0  0  0  0  0  0
    5.5062    0.1766    0.0000 H   0  0  0  0  0  0  0  0  0  0  0  0
    2.8973   -1.2100    0.0000 H   0  0  0  0  0  0  0  0  0  0  0  0
    4.7835   -1.6112    0.0000 H   0  0  0  0  0  0  0  0  0  0  0  0
    4.0795    1.7211    0.0000 C   0  0  0  0  0  0  0  0  0  0  0  0
    5.5062    1.2578    0.0000 H   0  0  0  0  0  0  0  0  0  0  0  0
    4.7835    3.0456    0.0000 H   0  0  0  0  0  0  0  0  0  0  0  0
    2.8973    2.6444    0.0000 H   0  0  0  0  0  0  0  0  0  0  0  0
    2.0849   -0.4928    0.0000 O   0  0  0  0  0  0  0  0  0  0  0  0
  1  2  1  0  0  0  0 
  1  3  1  0  0  0  0 
  1  4  1  0  0  0  0 
  1  5  1  0  0  0  0 
  5  6  1  0  0  0  0 
  6  7  1  0  0  0  0 
  6  8  1  0  0  0  0 
  6  9  1  0  0  0  0 
  5 10  1  0  0  0  0 
 10 11  1  0  0  0  0 
  5 12  1  0  0  0  0 
 13 12  1  1  0  0  0 
 13 14  1  6  0  0  0 
 13 15  1  0  0  0  0 
 15 16  1  0  0  0  0 
 15 17  1  0  0  0  0 
 15 18  1  0  0  0  0 
 19 18  1  6  0  0  0 
 19 20  1  0  0  0  0 
 20 21  1  0  0  0  0 
 20 22  1  0  0  0  0 
 20 23  1  0  0  0  0 
 23 24  1  0  0  0  0 
 24 25  2  0  0  0  0 
 24 26  2  0  0  0  0 
 24 27  1  0  0  0  0 
 27 28  1  0  0  0  0 
 27 29  1  0  0  0  0 
 19 30  1  0  0  0  0 
 30 31  1  1  0  0  0 
 30 32  1  0  0  0  0 
 13 32  1  0  0  0  0 
 32 33  2  0  0  0  0 
 30 34  1  0  0  0  0 
 34 35  1  0  0  0  0 
 35 36  1  0  0  0  0 
 36 37  1  0  0  0  0 
 36 38  1  0  0  0  0 
 36 39  1  0  0  0  0 
 35 40  1  0  0  0  0 
 40 41  1  0  0  0  0 
 40 42  1  0  0  0  0 
 40 43  1  0  0  0  0 
 35 44  1  0  0  0  0 
 19 44  1  0  0  0  0 
M  END
> <Rank>
3

> <Priority_score>
0.11976587178693095

> <Reaction_type>
oxidative ether cleavage to one alcohol and one aldehyde/ketone

> <Parent_ID>
13

> <Parent_InChI>
InChI=1S/C12H21NO8S/c1-10(2)18-7-5-16-12(6-17-22(13,14)15)9(8(7)19-10)20-11(3,4)21-12/h7-9H,5-6H2,1-4H3,(H2,13,14,15)

> <Parent_SMILES>
CC1(C)O[C@@H]2CO[C@@]3(COS(N)(=O)=O)OC(C)(C)O[C@H]3[C@@H]2O1

$$$$
Molecule 13_metabolite 5
  CDK     0516241031

 44 45  0  0  0  0  0  0  0  0999 V2000
    0.7699    5.4452    0.0000 C   0  0  0  0  0  0  0  0  0  0  0  0
    0.2567    6.8547    0.0000 H   0  0  0  0  0  0  0  0  0  0  0  0
    1.7342    4.2962    0.0000 H   0  0  0  0  0  0  0  0  0  0  0  0
    2.0688    6.1953    0.0000 H   0  0  0  0  0  0  0  0  0  0  0  0
   -0.1942    4.2960    0.0000 C   0  0  0  0  0  0  0  0  0  0  0  0
   -1.1585    5.4450    0.0000 C   0  0  0  0  0  0  0  0  0  0  0  0
   -0.6456    6.8546    0.0000 H   0  0  0  0  0  0  0  0  0  0  0  0
   -2.4576    6.1948    0.0000 H   0  0  0  0  0  0  0  0  0  0  0  0
   -2.1226    4.2958    0.0000 H   0  0  0  0  0  0  0  0  0  0  0  0
   -1.4932    3.5459    0.0000 O   0  0  0  0  0  0  0  0  0  0  0  0
   -3.2080    4.5357    0.0000 H   0  0  0  0  0  0  0  0  0  0  0  0
    0.3190    2.8865    0.0000 O   0  0  0  0  0  0  0  0  0  0  0  0
   -0.9536    1.3696    0.0000 C   0  0  2  0  0  0  0  0  0  0  0  0
   -1.9176    2.5188    0.0000 H   0  0  0  0  0  0  0  0  0  0  0  0
   -2.2536    0.6196    0.0000 C   0  0  0  0  0  0  0  0  0  0  0  0
   -3.5525    1.3698    0.0000 O   0  0  0  0  0  0  0  0  0  0  0  0
   -2.2536   -0.8804    0.0000 C   0  0  0  0  0  0  0  0  0  0  0  0
   -3.7308   -0.6201    0.0000 H   0  0  0  0  0  0  0  0  0  0  0  0
   -2.7663   -2.2900    0.0000 H   0  0  0  0  0  0  0  0  0  0  0  0
   -0.9536   -1.6304    0.0000 O   0  0  0  0  0  0  0  0  0  0  0  0
    0.3464   -0.8804    0.0000 C   0  0  2  0  0  0  0  0  0  0  0  0
    0.5560   -2.8493    0.0000 C   0  0  0  0  0  0  0  0  0  0  0  0
   -0.9405   -2.7466    0.0000 H   0  0  0  0  0  0  0  0  0  0  0  0
    0.1950   -4.3052    0.0000 H   0  0  0  0  0  0  0  0  0  0  0  0
    1.9271   -3.4576    0.0000 O   0  0  0  0  0  0  0  0  0  0  0  0
    2.0858   -4.9492    0.0000 S   0  0  0  0  0  0  0  0  0  0  0  0
    3.5272   -4.5338    0.0000 O   0  0  0  0  0  0  0  0  0  0  0  0
    2.7451   -6.2965    0.0000 O   0  0  0  0  0  0  0  0  0  0  0  0
    0.8734   -5.8324    0.0000 N   0  0  0  0  0  0  0  0  0  0  0  0
    1.0322   -7.3240    0.0000 H   0  0  0  0  0  0  0  0  0  0  0  0
   -0.4977   -5.2241    0.0000 H   0  0  0  0  0  0  0  0  0  0  0  0
    0.3464    0.6196    0.0000 C   0  0  1  0  0  0  0  0  0  0  0  0
    0.5052    2.1112    0.0000 H   0  0  0  0  0  0  0  0  0  0  0  0
    1.7764    1.0796    0.0000 O   0  0  0  0  0  0  0  0  0  0  0  0
    2.6564   -0.1304    0.0000 C   0  0  0  0  0  0  0  0  0  0  0  0
    3.7710   -1.1343    0.0000 C   0  0  0  0  0  0  0  0  0  0  0  0
    5.1976   -0.6710    0.0000 H   0  0  0  0  0  0  0  0  0  0  0  0
    2.5888   -2.0576    0.0000 H   0  0  0  0  0  0  0  0  0  0  0  0
    4.4750   -2.4588    0.0000 H   0  0  0  0  0  0  0  0  0  0  0  0
    3.7710    0.8735    0.0000 C   0  0  0  0  0  0  0  0  0  0  0  0
    5.1976    0.4102    0.0000 H   0  0  0  0  0  0  0  0  0  0  0  0
    4.4750    2.1980    0.0000 H   0  0  0  0  0  0  0  0  0  0  0  0
    2.5888    1.7968    0.0000 H   0  0  0  0  0  0  0  0  0  0  0  0
    1.7764   -1.3404    0.0000 O   0  0  0  0  0  0  0  0  0  0  0  0
  1  2  1  0  0  0  0 
  1  3  1  0  0  0  0 
  1  4  1  0  0  0  0 
  1  5  1  0  0  0  0 
  5  6  1  0  0  0  0 
  6  7  1  0  0  0  0 
  6  8  1  0  0  0  0 
  6  9  1  0  0  0  0 
  5 10  1  0  0  0  0 
 10 11  1  0  0  0  0 
  5 12  1  0  0  0  0 
 13 12  1  1  0  0  0 
 13 14  1  6  0  0  0 
 13 15  1  0  0  0  0 
 15 16  2  0  0  0  0 
 15 17  1  0  0  0  0 
 17 18  1  0  0  0  0 
 17 19  1  0  0  0  0 
 17 20  1  0  0  0  0 
 21 20  1  6  0  0  0 
 21 22  1  0  0  0  0 
 22 23  1  0  0  0  0 
 22 24  1  0  0  0  0 
 22 25  1  0  0  0  0 
 25 26  1  0  0  0  0 
 26 27  2  0  0  0  0 
 26 28  2  0  0  0  0 
 26 29  1  0  0  0  0 
 29 30  1  0  0  0  0 
 29 31  1  0  0  0  0 
 21 32  1  0  0  0  0 
 13 32  1  0  0  0  0 
 32 33  1  1  0  0  0 
 32 34  1  0  0  0  0 
 34 35  1  0  0  0  0 
 35 36  1  0  0  0  0 
 36 37  1  0  0  0  0 
 36 38  1  0  0  0  0 
 36 39  1  0  0  0  0 
 35 40  1  0  0  0  0 
 40 41  1  0  0  0  0 
 40 42  1  0  0  0  0 
 40 43  1  0  0  0  0 
 35 44  1  0  0  0  0 
 21 44  1  0  0  0  0 
M  END
> <Rank>
3

> <Priority_score>
0.11976587178693095

> <Reaction_type>
oxidative ether cleavage to one alcohol and one aldehyde/ketone

> <Parent_ID>
13

> <Parent_InChI>
InChI=1S/C12H21NO8S/c1-10(2)18-7-5-16-12(6-17-22(13,14)15)9(8(7)19-10)20-11(3,4)21-12/h7-9H,5-6H2,1-4H3,(H2,13,14,15)

> <Parent_SMILES>
CC1(C)O[C@@H]2CO[C@@]3(COS(N)(=O)=O)OC(C)(C)O[C@H]3[C@@H]2O1

$$$$
Molecule 13_metabolite 6
  CDK     0516241031

 44 46  0  0  0  0  0  0  0  0999 V2000
    4.5956   -1.6494    0.0000 C   0  0  0  0  0  0  0  0  0  0  0  0
    6.0256   -1.1964    0.0000 H   0  0  0  0  0  0  0  0  0  0  0  0
    3.4068   -2.5642    0.0000 H   0  0  0  0  0  0  0  0  0  0  0  0
    5.2900   -2.9790    0.0000 H   0  0  0  0  0  0  0  0  0  0  0  0
    3.1340   -0.3137    0.0000 C   0  0  0  0  0  0  0  0  0  0  0  0
    4.2509    0.6875    0.0000 C   0  0  0  0  0  0  0  0  0  0  0  0
    3.9423    2.1554    0.0000 H   0  0  0  0  0  0  0  0  0  0  0  0
    5.6429    1.2464    0.0000 H   0  0  0  0  0  0  0  0  0  0  0  0
    5.0430   -0.5863    0.0000 H   0  0  0  0  0  0  0  0  0  0  0  0
    2.2240   -1.5337    0.0000 O   0  0  0  0  0  0  0  0  0  0  0  0
    0.8240   -1.0337    0.0000 C   0  0  1  0  0  0  0  0  0  0  0  0
   -0.7623    0.1512    0.0000 H   0  0  0  0  0  0  0  0  0  0  0  0
   -0.4960   -1.7637    0.0000 C   0  0  1  0  0  0  0  0  0  0  0  0
    0.6993   -2.6700    0.0000 H   0  0  0  0  0  0  0  0  0  0  0  0
   -1.7860   -0.9737    0.0000 C   0  0  1  0  0  0  0  0  0  0  0  0
   -0.3978   -0.4056    0.0000 H   0  0  0  0  0  0  0  0  0  0  0  0
   -1.7460    0.5363    0.0000 C   0  0  0  0  0  0  0  0  0  0  0  0
   -2.2236    1.9582    0.0000 H   0  0  0  0  0  0  0  0  0  0  0  0
   -3.2294    0.3139    0.0000 H   0  0  0  0  0  0  0  0  0  0  0  0
   -0.4260    1.2563    0.0000 O   0  0  0  0  0  0  0  0  0  0  0  0
    0.8240    0.4463    0.0000 C   0  0  2  0  0  0  0  0  0  0  0  0
    1.1050    2.4062    0.0000 C   0  0  0  0  0  0  0  0  0  0  0  0
    2.5303    1.9388    0.0000 H   0  0  0  0  0  0  0  0  0  0  0  0
    1.8129    3.7287    0.0000 H   0  0  0  0  0  0  0  0  0  0  0  0
   -0.0745    3.3330    0.0000 O   0  0  0  0  0  0  0  0  0  0  0  0
    0.2065    5.2930    0.0000 S   0  0  0  0  0  0  0  0  0  0  0  0
    1.6318    4.8255    0.0000 O   0  0  0  0  0  0  0  0  0  0  0  0
    0.9144    6.6154    0.0000 O   0  0  0  0  0  0  0  0  0  0  0  0
   -0.9729    6.2197    0.0000 N   0  0  0  0  0  0  0  0  0  0  0  0
   -0.7601    7.7045    0.0000 H   0  0  0  0  0  0  0  0  0  0  0  0
   -2.3653    5.6617    0.0000 H   0  0  0  0  0  0  0  0  0  0  0  0
    2.2640    0.8763    0.0000 O   0  0  0  0  0  0  0  0  0  0  0  0
   -2.9160   -1.9537    0.0000 O   0  0  0  0  0  0  0  0  0  0  0  0
   -2.3260   -3.2937    0.0000 C   0  0  0  0  0  0  0  0  0  0  0  0
   -3.7605   -3.7321    0.0000 C   0  0  0  0  0  0  0  0  0  0  0  0
   -4.0981   -5.1937    0.0000 H   0  0  0  0  0  0  0  0  0  0  0  0
   -3.9432   -2.2433    0.0000 H   0  0  0  0  0  0  0  0  0  0  0  0
   -5.2584   -3.6535    0.0000 H   0  0  0  0  0  0  0  0  0  0  0  0
   -2.0597   -4.7699    0.0000 C   0  0  0  0  0  0  0  0  0  0  0  0
   -1.3046   -6.0660    0.0000 H   0  0  0  0  0  0  0  0  0  0  0  0
   -0.6522   -4.2513    0.0000 H   0  0  0  0  0  0  0  0  0  0  0  0
   -3.2050   -5.7386    0.0000 O   0  0  0  0  0  0  0  0  0  0  0  0
   -2.9387   -7.2148    0.0000 H   0  0  0  0  0  0  0  0  0  0  0  0
   -0.8360   -3.2037    0.0000 O   0  0  0  0  0  0  0  0  0  0  0  0
  1  2  1  0  0  0  0 
  1  3  1  0  0  0  0 
  1  4  1  0  0  0  0 
  1  5  1  0  0  0  0 
  5  6  1  0  0  0  0 
  6  7  1  0  0  0  0 
  6  8  1  0  0  0  0 
  6  9  1  0  0  0  0 
  5 10  1  0  0  0  0 
 10 11  1  0  0  0  0 
 11 12  1  6  0  0  0 
 11 13  1  0  0  0  0 
 13 14  1  1  0  0  0 
 13 15  1  0  0  0  0 
 15 16  1  1  0  0  0 
 15 17  1  0  0  0  0 
 17 18  1  0  0  0  0 
 17 19  1  0  0  0  0 
 17 20  1  0  0  0  0 
 21 20  1  1  0  0  0 
 11 21  1  0  0  0  0 
 21 22  1  0  0  0  0 
 22 23  1  0  0  0  0 
 22 24  1  0  0  0  0 
 22 25  1  0  0  0  0 
 25 26  1  0  0  0  0 
 26 27  2  0  0  0  0 
 26 28  2  0  0  0  0 
 26 29  1  0  0  0  0 
 29 30  1  0  0  0  0 
 29 31  1  0  0  0  0 
 21 32  1  0  0  0  0 
  5 32  1  0  0  0  0 
 15 33  1  0  0  0  0 
 33 34  1  0  0  0  0 
 34 35  1  0  0  0  0 
 35 36  1  0  0  0  0 
 35 37  1  0  0  0  0 
 35 38  1  0  0  0  0 
 34 39  1  0  0  0  0 
 39 40  1  0  0  0  0 
 39 41  1  0  0  0  0 
 39 42  1  0  0  0  0 
 42 43  1  0  0  0  0 
 34 44  1  0  0  0  0 
 13 44  1  0  0  0  0 
M  END
> <Rank>
3

> <Priority_score>
0.11976587178693095

> <Reaction_type>
aliphatic_hydroxylation_(primary_carbon_next_to_quart_carbon)

> <Parent_ID>
13

> <Parent_InChI>
InChI=1S/C12H21NO8S/c1-10(2)18-7-5-16-12(6-17-22(13,14)15)9(8(7)19-10)20-11(3,4)21-12/h7-9H,5-6H2,1-4H3,(H2,13,14,15)

> <Parent_SMILES>
CC1(C)O[C@@H]2CO[C@@]3(COS(N)(=O)=O)OC(C)(C)O[C@H]3[C@@H]2O1

$$$$
Molecule 13_metabolite 7
  CDK     0516241031

 44 46  0  0  0  0  0  0  0  0999 V2000
   -3.3380   -3.5808    0.0000 C   0  0  0  0  0  0  0  0  0  0  0  0
   -3.6756   -5.0423    0.0000 H   0  0  0  0  0  0  0  0  0  0  0  0
   -3.5207   -2.0920    0.0000 H   0  0  0  0  0  0  0  0  0  0  0  0
   -4.8360   -3.5022    0.0000 H   0  0  0  0  0  0  0  0  0  0  0  0
   -1.9036   -3.1424    0.0000 C   0  0  0  0  0  0  0  0  0  0  0  0
   -1.6373   -4.6186    0.0000 C   0  0  0  0  0  0  0  0  0  0  0  0
   -2.7825   -5.5873    0.0000 H   0  0  0  0  0  0  0  0  0  0  0  0
   -0.8822   -5.9146    0.0000 H   0  0  0  0  0  0  0  0  0  0  0  0
   -0.2298   -4.1000    0.0000 H   0  0  0  0  0  0  0  0  0  0  0  0
   -2.4936   -1.8024    0.0000 O   0  0  0  0  0  0  0  0  0  0  0  0
   -1.3636   -0.8224    0.0000 C   0  0  2  0  0  0  0  0  0  0  0  0
    0.1023   -0.5039    0.0000 H   0  0  0  0  0  0  0  0  0  0  0  0
   -1.3236    0.6876    0.0000 C   0  0  0  0  0  0  0  0  0  0  0  0
   -1.8012    2.1095    0.0000 H   0  0  0  0  0  0  0  0  0  0  0  0
   -2.8070    0.4652    0.0000 H   0  0  0  0  0  0  0  0  0  0  0  0
   -0.0036    1.4076    0.0000 O   0  0  0  0  0  0  0  0  0  0  0  0
    1.2464    0.5976    0.0000 C   0  0  2  0  0  0  0  0  0  0  0  0
    1.5274    2.5576    0.0000 C   0  0  0  0  0  0  0  0  0  0  0  0
    1.2196    4.0257    0.0000 H   0  0  0  0  0  0  0  0  0  0  0  0
    0.0282    2.5094    0.0000 H   0  0  0  0  0  0  0  0  0  0  0  0
    2.9198    3.1156    0.0000 O   0  0  0  0  0  0  0  0  0  0  0  0
    3.1326    4.6005    0.0000 S   0  0  0  0  0  0  0  0  0  0  0  0
    3.8405    5.9229    0.0000 O   0  0  0  0  0  0  0  0  0  0  0  0
    4.5579    4.1330    0.0000 O   0  0  0  0  0  0  0  0  0  0  0  0
    1.9532    5.5272    0.0000 N   0  0  0  0  0  0  0  0  0  0  0  0
    2.1660    7.0120    0.0000 H   0  0  0  0  0  0  0  0  0  0  0  0
    0.5608    4.9692    0.0000 H   0  0  0  0  0  0  0  0  0  0  0  0
    1.2464   -0.8824    0.0000 C   0  0  2  0  0  0  0  0  0  0  0  0
   -0.3399    0.3025    0.0000 H   0  0  0  0  0  0  0  0  0  0  0  0
   -0.0736   -1.6124    0.0000 C   0  0  2  0  0  0  0  0  0  0  0  0
    1.1217   -2.5187    0.0000 H   0  0  0  0  0  0  0  0  0  0  0  0
   -0.4136   -3.0524    0.0000 O   0  0  0  0  0  0  0  0  0  0  0  0
    2.6464   -1.3824    0.0000 O   0  0  0  0  0  0  0  0  0  0  0  0
    3.5564   -0.1624    0.0000 C   0  0  0  0  0  0  0  0  0  0  0  0
    4.6637   -1.1743    0.0000 C   0  0  0  0  0  0  0  0  0  0  0  0
    6.0937   -0.7213    0.0000 H   0  0  0  0  0  0  0  0  0  0  0  0
    3.4749   -2.0890    0.0000 H   0  0  0  0  0  0  0  0  0  0  0  0
    5.3581   -2.5039    0.0000 H   0  0  0  0  0  0  0  0  0  0  0  0
    4.6734    0.8389    0.0000 C   0  0  0  0  0  0  0  0  0  0  0  0
    5.3805    2.1617    0.0000 H   0  0  0  0  0  0  0  0  0  0  0  0
    3.4934    1.7649    0.0000 H   0  0  0  0  0  0  0  0  0  0  0  0
    6.0989    0.3722    0.0000 O   0  0  0  0  0  0  0  0  0  0  0  0
    7.2159    1.3734    0.0000 H   0  0  0  0  0  0  0  0  0  0  0  0
    2.6864    1.0276    0.0000 O   0  0  0  0  0  0  0  0  0  0  0  0
  1  2  1  0  0  0  0 
  1  3  1  0  0  0  0 
  1  4  1  0  0  0  0 
  1  5  1  0  0  0  0 
  5  6  1  0  0  0  0 
  6  7  1  0  0  0  0 
  6  8  1  0  0  0  0 
  6  9  1  0  0  0  0 
  5 10  1  0  0  0  0 
 10 11  1  0  0  0  0 
 11 12  1  1  0  0  0 
 11 13  1  0  0  0  0 
 13 14  1  0  0  0  0 
 13 15  1  0  0  0  0 
 13 16  1  0  0  0  0 
 17 16  1  1  0  0  0 
 17 18  1  0  0  0  0 
 18 19  1  0  0  0  0 
 18 20  1  0  0  0  0 
 18 21  1  0  0  0  0 
 21 22  1  0  0  0  0 
 22 23  2  0  0  0  0 
 22 24  2  0  0  0  0 
 22 25  1  0  0  0  0 
 25 26  1  0  0  0  0 
 25 27  1  0  0  0  0 
 17 28  1  0  0  0  0 
 28 29  1  6  0  0  0 
 28 30  1  0  0  0  0 
 11 30  1  0  0  0  0 
 30 31  1  1  0  0  0 
 30 32  1  0  0  0  0 
  5 32  1  0  0  0  0 
 28 33  1  0  0  0  0 
 33 34  1  0  0  0  0 
 34 35  1  0  0  0  0 
 35 36  1  0  0  0  0 
 35 37  1  0  0  0  0 
 35 38  1  0  0  0  0 
 34 39  1  0  0  0  0 
 39 40  1  0  0  0  0 
 39 41  1  0  0  0  0 
 39 42  1  0  0  0  0 
 42 43  1  0  0  0  0 
 34 44  1  0  0  0  0 
 17 44  1  0  0  0  0 
M  END
> <Rank>
7

> <Priority_score>
0.088

> <Reaction_type>
aliphatic_hydroxylation_(primary_carbon_next_to_quart_carbon)

> <Parent_ID>
13

> <Parent_InChI>
InChI=1S/C12H21NO8S/c1-10(2)18-7-5-16-12(6-17-22(13,14)15)9(8(7)19-10)20-11(3,4)21-12/h7-9H,5-6H2,1-4H3,(H2,13,14,15)

> <Parent_SMILES>
CC1(C)O[C@@H]2CO[C@@]3(COS(N)(=O)=O)OC(C)(C)O[C@H]3[C@@H]2O1

$$$$
Molecule 13_metabolite 8
  CDK     0516241031

 44 46  0  0  0  0  0  0  0  0999 V2000
   -3.7226   -3.2936    0.0000 C   0  0  0  0  0  0  0  0  0  0  0  0
   -4.0602   -4.7551    0.0000 H   0  0  0  0  0  0  0  0  0  0  0  0
   -3.9053   -1.8047    0.0000 H   0  0  0  0  0  0  0  0  0  0  0  0
   -5.2206   -3.2149    0.0000 H   0  0  0  0  0  0  0  0  0  0  0  0
   -2.2881   -2.8551    0.0000 C   0  0  0  0  0  0  0  0  0  0  0  0
   -2.0218   -4.3313    0.0000 C   0  0  0  0  0  0  0  0  0  0  0  0
   -3.1671   -5.3000    0.0000 H   0  0  0  0  0  0  0  0  0  0  0  0
   -1.2667   -5.6274    0.0000 H   0  0  0  0  0  0  0  0  0  0  0  0
   -0.6143   -3.8127    0.0000 H   0  0  0  0  0  0  0  0  0  0  0  0
   -2.8781   -1.5151    0.0000 O   0  0  0  0  0  0  0  0  0  0  0  0
   -1.7481   -0.5351    0.0000 C   0  0  2  0  0  0  0  0  0  0  0  0
   -0.3599    0.0330    0.0000 H   0  0  0  0  0  0  0  0  0  0  0  0
   -1.7081    0.9749    0.0000 C   0  0  0  0  0  0  0  0  0  0  0  0
   -2.1858    2.3968    0.0000 H   0  0  0  0  0  0  0  0  0  0  0  0
   -3.1915    0.7525    0.0000 H   0  0  0  0  0  0  0  0  0  0  0  0
   -0.3881    1.6949    0.0000 O   0  0  0  0  0  0  0  0  0  0  0  0
    0.8619    0.8849    0.0000 C   0  0  2  0  0  0  0  0  0  0  0  0
    1.1429    2.8448    0.0000 C   0  0  0  0  0  0  0  0  0  0  0  0
    0.8351    4.3129    0.0000 H   0  0  0  0  0  0  0  0  0  0  0  0
   -0.3564    2.7966    0.0000 H   0  0  0  0  0  0  0  0  0  0  0  0
    2.5352    3.4029    0.0000 O   0  0  0  0  0  0  0  0  0  0  0  0
    2.7481    4.8877    0.0000 S   0  0  0  0  0  0  0  0  0  0  0  0
    3.4559    6.2102    0.0000 O   0  0  0  0  0  0  0  0  0  0  0  0
    4.1734    4.4202    0.0000 O   0  0  0  0  0  0  0  0  0  0  0  0
    1.5686    5.8145    0.0000 N   0  0  0  0  0  0  0  0  0  0  0  0
    1.7815    7.2993    0.0000 H   0  0  0  0  0  0  0  0  0  0  0  0
    0.1763    5.2564    0.0000 H   0  0  0  0  0  0  0  0  0  0  0  0
    0.8619   -0.5951    0.0000 C   0  0  1  0  0  0  0  0  0  0  0  0
   -0.4581   -1.3251    0.0000 C   0  0  2  0  0  0  0  0  0  0  0  0
    0.3551   -2.5856    0.0000 H   0  0  0  0  0  0  0  0  0  0  0  0
   -0.7981   -2.7651    0.0000 O   0  0  0  0  0  0  0  0  0  0  0  0
    0.9834   -2.0902    0.0000 O   0  0  0  0  0  0  0  0  0  0  0  0
    2.3389   -2.7326    0.0000 H   0  0  0  0  0  0  0  0  0  0  0  0
    2.2619   -1.0951    0.0000 O   0  0  0  0  0  0  0  0  0  0  0  0
    3.1719    0.1249    0.0000 C   0  0  0  0  0  0  0  0  0  0  0  0
    4.2792   -0.8870    0.0000 C   0  0  0  0  0  0  0  0  0  0  0  0
    5.7091   -0.4341    0.0000 H   0  0  0  0  0  0  0  0  0  0  0  0
    3.0904   -1.8018    0.0000 H   0  0  0  0  0  0  0  0  0  0  0  0
    4.9736   -2.2166    0.0000 H   0  0  0  0  0  0  0  0  0  0  0  0
    4.2888    1.1261    0.0000 C   0  0  0  0  0  0  0  0  0  0  0  0
    5.7144    0.6594    0.0000 H   0  0  0  0  0  0  0  0  0  0  0  0
    4.9959    2.4490    0.0000 H   0  0  0  0  0  0  0  0  0  0  0  0
    3.1088    2.0522    0.0000 H   0  0  0  0  0  0  0  0  0  0  0  0
    2.3019    1.3149    0.0000 O   0  0  0  0  0  0  0  0  0  0  0  0
  1  2  1  0  0  0  0 
  1  3  1  0  0  0  0 
  1  4  1  0  0  0  0 
  1  5  1  0  0  0  0 
  5  6  1  0  0  0  0 
  6  7  1  0  0  0  0 
  6  8  1  0  0  0  0 
  6  9  1  0  0  0  0 
  5 10  1  0  0  0  0 
 10 11  1  0  0  0  0 
 11 12  1  1  0  0  0 
 11 13  1  0  0  0  0 
 13 14  1  0  0  0  0 
 13 15  1  0  0  0  0 
 13 16  1  0  0  0  0 
 17 16  1  1  0  0  0 
 17 18  1  0  0  0  0 
 18 19  1  0  0  0  0 
 18 20  1  0  0  0  0 
 18 21  1  0  0  0  0 
 21 22  1  0  0  0  0 
 22 23  2  0  0  0  0 
 22 24  2  0  0  0  0 
 22 25  1  0  0  0  0 
 25 26  1  0  0  0  0 
 25 27  1  0  0  0  0 
 17 28  1  0  0  0  0 
 28 29  1  0  0  0  0 
 11 29  1  0  0  0  0 
 29 30  1  1  0  0  0 
 29 31  1  0  0  0  0 
  5 31  1  0  0  0  0 
 28 32  1  6  0  0  0 
 32 33  1  0  0  0  0 
 28 34  1  0  0  0  0 
 34 35  1  0  0  0  0 
 35 36  1  0  0  0  0 
 36 37  1  0  0  0  0 
 36 38  1  0  0  0  0 
 36 39  1  0  0  0  0 
 35 40  1  0  0  0  0 
 40 41  1  0  0  0  0 
 40 42  1  0  0  0  0 
 40 43  1  0  0  0  0 
 35 44  1  0  0  0  0 
 17 44  1  0  0  0  0 
M  END
> <Rank>
7

> <Priority_score>
0.088

> <Reaction_type>
aliphatic hydroxylation

> <Parent_ID>
13

> <Parent_InChI>
InChI=1S/C12H21NO8S/c1-10(2)18-7-5-16-12(6-17-22(13,14)15)9(8(7)19-10)20-11(3,4)21-12/h7-9H,5-6H2,1-4H3,(H2,13,14,15)

> <Parent_SMILES>
CC1(C)O[C@@H]2CO[C@@]3(COS(N)(=O)=O)OC(C)(C)O[C@H]3[C@@H]2O1

$$$$
Molecule 13_metabolite 9
  CDK     0516241031

 46 47  0  0  0  0  0  0  0  0999 V2000
   -2.5124   -4.9678    0.0000 C   0  0  0  0  0  0  0  0  0  0  0  0
   -1.9992   -6.3773    0.0000 H   0  0  0  0  0  0  0  0  0  0  0  0
   -3.4767   -3.8189    0.0000 H   0  0  0  0  0  0  0  0  0  0  0  0
   -3.8113   -5.7180    0.0000 H   0  0  0  0  0  0  0  0  0  0  0  0
   -1.5483   -3.8186    0.0000 C   0  0  0  0  0  0  0  0  0  0  0  0
   -0.5840   -4.9676    0.0000 C   0  0  0  0  0  0  0  0  0  0  0  0
   -1.0969   -6.3772    0.0000 H   0  0  0  0  0  0  0  0  0  0  0  0
    0.7151   -5.7175    0.0000 H   0  0  0  0  0  0  0  0  0  0  0  0
    0.3801   -3.8184    0.0000 H   0  0  0  0  0  0  0  0  0  0  0  0
   -0.2493   -3.0685    0.0000 O   0  0  0  0  0  0  0  0  0  0  0  0
    1.4655   -4.0583    0.0000 H   0  0  0  0  0  0  0  0  0  0  0  0
   -2.0615   -2.4092    0.0000 O   0  0  0  0  0  0  0  0  0  0  0  0
   -1.0974   -1.2600    0.0000 C   0  0  1  0  0  0  0  0  0  0  0  0
   -1.6097    0.1498    0.0000 H   0  0  0  0  0  0  0  0  0  0  0  0
    0.2026   -0.5100    0.0000 C   0  0  1  0  0  0  0  0  0  0  0  0
    0.3613   -2.0016    0.0000 H   0  0  0  0  0  0  0  0  0  0  0  0
    0.2026    0.9900    0.0000 C   0  0  1  0  0  0  0  0  0  0  0  0
   -1.0092    0.1060    0.0000 H   0  0  0  0  0  0  0  0  0  0  0  0
   -1.0974    1.7400    0.0000 C   0  0  0  0  0  0  0  0  0  0  0  0
   -0.1334    2.8892    0.0000 H   0  0  0  0  0  0  0  0  0  0  0  0
   -2.0615    2.8892    0.0000 H   0  0  0  0  0  0  0  0  0  0  0  0
   -2.3974    0.9900    0.0000 O   0  0  0  0  0  0  0  0  0  0  0  0
   -2.3974   -0.5100    0.0000 C   0  0  2  0  0  0  0  0  0  0  0  0
   -3.8747   -0.2497    0.0000 C   0  0  0  0  0  0  0  0  0  0  0  0
   -5.3519   -0.5103    0.0000 H   0  0  0  0  0  0  0  0  0  0  0  0
   -3.8745   -1.7497    0.0000 H   0  0  0  0  0  0  0  0  0  0  0  0
   -4.5521    1.6108    0.0000 O   0  0  0  0  0  0  0  0  0  0  0  0
   -6.0293    1.8712    0.0000 S   0  0  0  0  0  0  0  0  0  0  0  0
   -7.5065    1.6105    0.0000 O   0  0  0  0  0  0  0  0  0  0  0  0
   -6.0291    0.3712    0.0000 O   0  0  0  0  0  0  0  0  0  0  0  0
   -6.5425    3.2806    0.0000 N   0  0  0  0  0  0  0  0  0  0  0  0
   -8.0197    3.5410    0.0000 H   0  0  0  0  0  0  0  0  0  0  0  0
   -5.5784    4.4298    0.0000 H   0  0  0  0  0  0  0  0  0  0  0  0
   -3.0742   -2.3707    0.0000 O   0  0  0  0  0  0  0  0  0  0  0  0
   -4.5514   -2.6315    0.0000 H   0  0  0  0  0  0  0  0  0  0  0  0
    1.6326    1.4500    0.0000 O   0  0  0  0  0  0  0  0  0  0  0  0
    2.5126    0.2400    0.0000 C   0  0  0  0  0  0  0  0  0  0  0  0
    3.6271   -0.7639    0.0000 C   0  0  0  0  0  0  0  0  0  0  0  0
    5.0538   -0.3006    0.0000 H   0  0  0  0  0  0  0  0  0  0  0  0
    2.4450   -1.6872    0.0000 H   0  0  0  0  0  0  0  0  0  0  0  0
    4.3311   -2.0884    0.0000 H   0  0  0  0  0  0  0  0  0  0  0  0
    3.6271    1.2439    0.0000 C   0  0  0  0  0  0  0  0  0  0  0  0
    5.0538    0.7806    0.0000 H   0  0  0  0  0  0  0  0  0  0  0  0
    4.3311    2.5684    0.0000 H   0  0  0  0  0  0  0  0  0  0  0  0
    2.4450    2.1672    0.0000 H   0  0  0  0  0  0  0  0  0  0  0  0
    1.6326   -0.9700    0.0000 O   0  0  0  0  0  0  0  0  0  0  0  0
  1  2  1  0  0  0  0 
  1  3  1  0  0  0  0 
  1  4  1  0  0  0  0 
  1  5  1  0  0  0  0 
  5  6  1  0  0  0  0 
  6  7  1  0  0  0  0 
  6  8  1  0  0  0  0 
  6  9  1  0  0  0  0 
  5 10  1  0  0  0  0 
 10 11  1  0  0  0  0 
  5 12  1  0  0  0  0 
 12 13  1  0  0  0  0 
 13 14  1  1  0  0  0 
 13 15  1  6  0  0  0 
 15 16  1  6  0  0  0 
 15 17  1  0  0  0  0 
 17 18  1  6  0  0  0 
 17 19  1  0  0  0  0 
 19 20  1  0  0  0  0 
 19 21  1  0  0  0  0 
 19 22  1  0  0  0  0 
 22 23  1  0  0  0  0 
 13 23  1  0  0  0  0 
 23 24  1  1  0  0  0 
 24 25  1  0  0  0  0 
 24 26  1  0  0  0  0 
 24 27  1  0  0  0  0 
 27 28  1  0  0  0  0 
 28 29  2  0  0  0  0 
 28 30  2  0  0  0  0 
 28 31  1  0  0  0  0 
 31 32  1  0  0  0  0 
 31 33  1  0  0  0  0 
 23 34  1  6  0  0  0 
 34 35  1  0  0  0  0 
 17 36  1  0  0  0  0 
 36 37  1  0  0  0  0 
 37 38  1  0  0  0  0 
 38 39  1  0  0  0  0 
 38 40  1  0  0  0  0 
 38 41  1  0  0  0  0 
 37 42  1  0  0  0  0 
 42 43  1  0  0  0  0 
 42 44  1  0  0  0  0 
 42 45  1  0  0  0  0 
 37 46  1  0  0  0  0 
 15 46  1  0  0  0  0 
M  END
> <Rank>
7

> <Priority_score>
0.088

> <Reaction_type>
O-deglycosidation

> <Parent_ID>
13

> <Parent_InChI>
InChI=1S/C12H21NO8S/c1-10(2)18-7-5-16-12(6-17-22(13,14)15)9(8(7)19-10)20-11(3,4)21-12/h7-9H,5-6H2,1-4H3,(H2,13,14,15)

> <Parent_SMILES>
CC1(C)O[C@@H]2CO[C@@]3(COS(N)(=O)=O)OC(C)(C)O[C@H]3[C@@H]2O1

$$$$
Molecule 13_metabolite 10
  CDK     0516241031

 44 45  0  0  0  0  0  0  0  0999 V2000
   -2.3710    4.7182    0.0000 C   0  0  0  0  0  0  0  0  0  0  0  0
   -1.4066    5.8670    0.0000 H   0  0  0  0  0  0  0  0  0  0  0  0
   -3.6702    3.9684    0.0000 H   0  0  0  0  0  0  0  0  0  0  0  0
   -3.3350    5.8674    0.0000 H   0  0  0  0  0  0  0  0  0  0  0  0
   -1.6942    2.8574    0.0000 C   0  0  0  0  0  0  0  0  0  0  0  0
   -0.3950    3.6071    0.0000 C   0  0  0  0  0  0  0  0  0  0  0  0
    0.9038    2.8569    0.0000 H   0  0  0  0  0  0  0  0  0  0  0  0
    0.5694    4.7560    0.0000 H   0  0  0  0  0  0  0  0  0  0  0  0
   -1.3590    4.7564    0.0000 H   0  0  0  0  0  0  0  0  0  0  0  0
   -0.7303    1.7081    0.0000 O   0  0  0  0  0  0  0  0  0  0  0  0
   -1.2436    0.2987    0.0000 H   0  0  0  0  0  0  0  0  0  0  0  0
   -2.6587    1.7086    0.0000 O   0  0  0  0  0  0  0  0  0  0  0  0
   -1.6537   -1.0544    0.0000 C   0  0  1  0  0  0  0  0  0  0  0  0
   -3.1309   -1.3147    0.0000 C   0  0  0  0  0  0  0  0  0  0  0  0
   -3.1308    0.1853    0.0000 H   0  0  0  0  0  0  0  0  0  0  0  0
   -4.6081   -1.0540    0.0000 H   0  0  0  0  0  0  0  0  0  0  0  0
   -3.6441   -2.7241    0.0000 O   0  0  0  0  0  0  0  0  0  0  0  0
   -5.1214   -2.9845    0.0000 S   0  0  0  0  0  0  0  0  0  0  0  0
   -4.6085   -4.3941    0.0000 O   0  0  0  0  0  0  0  0  0  0  0  0
   -6.4205   -3.7343    0.0000 O   0  0  0  0  0  0  0  0  0  0  0  0
   -6.0854   -1.8353    0.0000 N   0  0  0  0  0  0  0  0  0  0  0  0
   -7.5627   -2.0956    0.0000 H   0  0  0  0  0  0  0  0  0  0  0  0
   -5.5722   -0.4258    0.0000 H   0  0  0  0  0  0  0  0  0  0  0  0
   -0.3537   -0.3044    0.0000 C   0  0  0  0  0  0  0  0  0  0  0  0
    0.1593    1.1052    0.0000 O   0  0  0  0  0  0  0  0  0  0  0  0
    0.9463   -1.0544    0.0000 C   0  0  1  0  0  0  0  0  0  0  0  0
    1.1050    0.4372    0.0000 H   0  0  0  0  0  0  0  0  0  0  0  0
    0.9463   -2.5544    0.0000 C   0  0  1  0  0  0  0  0  0  0  0  0
   -0.2655   -1.6703    0.0000 H   0  0  0  0  0  0  0  0  0  0  0  0
   -0.3537   -3.3044    0.0000 C   0  0  0  0  0  0  0  0  0  0  0  0
   -1.3178   -4.4535    0.0000 H   0  0  0  0  0  0  0  0  0  0  0  0
    0.6104   -4.4535    0.0000 H   0  0  0  0  0  0  0  0  0  0  0  0
   -1.6537   -2.5544    0.0000 O   0  0  0  0  0  0  0  0  0  0  0  0
    2.3763   -3.0144    0.0000 O   0  0  0  0  0  0  0  0  0  0  0  0
    3.2563   -1.8044    0.0000 C   0  0  0  0  0  0  0  0  0  0  0  0
    4.3709   -2.8082    0.0000 C   0  0  0  0  0  0  0  0  0  0  0  0
    5.7975   -2.3449    0.0000 H   0  0  0  0  0  0  0  0  0  0  0  0
    3.1887   -3.7315    0.0000 H   0  0  0  0  0  0  0  0  0  0  0  0
    5.0748   -4.1328    0.0000 H   0  0  0  0  0  0  0  0  0  0  0  0
    4.3709   -0.8005    0.0000 C   0  0  0  0  0  0  0  0  0  0  0  0
    5.7975   -1.2638    0.0000 H   0  0  0  0  0  0  0  0  0  0  0  0
    5.0748    0.5241    0.0000 H   0  0  0  0  0  0  0  0  0  0  0  0
    3.1887    0.1228    0.0000 H   0  0  0  0  0  0  0  0  0  0  0  0
    2.3763   -0.5944    0.0000 O   0  0  0  0  0  0  0  0  0  0  0  0
  1  2  1  0  0  0  0 
  1  3  1  0  0  0  0 
  1  4  1  0  0  0  0 
  1  5  1  0  0  0  0 
  5  6  1  0  0  0  0 
  6  7  1  0  0  0  0 
  6  8  1  0  0  0  0 
  6  9  1  0  0  0  0 
  5 10  1  0  0  0  0 
 10 11  1  0  0  0  0 
  5 12  1  0  0  0  0 
 13 12  1  1  0  0  0 
 13 14  1  0  0  0  0 
 14 15  1  0  0  0  0 
 14 16  1  0  0  0  0 
 14 17  1  0  0  0  0 
 17 18  1  0  0  0  0 
 18 19  2  0  0  0  0 
 18 20  2  0  0  0  0 
 18 21  1  0  0  0  0 
 21 22  1  0  0  0  0 
 21 23  1  0  0  0  0 
 13 24  1  6  0  0  0 
 24 25  2  0  0  0  0 
 24 26  1  0  0  0  0 
 26 27  1  1  0  0  0 
 26 28  1  0  0  0  0 
 28 29  1  1  0  0  0 
 28 30  1  0  0  0  0 
 30 31  1  0  0  0  0 
 30 32  1  0  0  0  0 
 30 33  1  0  0  0  0 
 13 33  1  0  0  0  0 
 28 34  1  0  0  0  0 
 34 35  1  0  0  0  0 
 35 36  1  0  0  0  0 
 36 37  1  0  0  0  0 
 36 38  1  0  0  0  0 
 36 39  1  0  0  0  0 
 35 40  1  0  0  0  0 
 40 41  1  0  0  0  0 
 40 42  1  0  0  0  0 
 40 43  1  0  0  0  0 
 35 44  1  0  0  0  0 
 26 44  1  0  0  0  0 
M  END
> <Rank>
7

> <Priority_score>
0.088

> <Reaction_type>
oxidative ether cleavage to one alcohol and one aldehyde/ketone

> <Parent_ID>
13

> <Parent_InChI>
InChI=1S/C12H21NO8S/c1-10(2)18-7-5-16-12(6-17-22(13,14)15)9(8(7)19-10)20-11(3,4)21-12/h7-9H,5-6H2,1-4H3,(H2,13,14,15)

> <Parent_SMILES>
CC1(C)O[C@@H]2CO[C@@]3(COS(N)(=O)=O)OC(C)(C)O[C@H]3[C@@H]2O1

$$$$
Molecule 13_metabolite 11
  CDK     0516241031

 43 45  0  0  0  0  0  0  0  0999 V2000
   -3.3380   -3.5808    0.0000 C   0  0  0  0  0  0  0  0  0  0  0  0
   -3.6756   -5.0423    0.0000 H   0  0  0  0  0  0  0  0  0  0  0  0
   -3.5207   -2.0920    0.0000 H   0  0  0  0  0  0  0  0  0  0  0  0
   -4.8360   -3.5022    0.0000 H   0  0  0  0  0  0  0  0  0  0  0  0
   -1.9036   -3.1424    0.0000 C   0  0  0  0  0  0  0  0  0  0  0  0
   -1.6373   -4.6186    0.0000 C   0  0  0  0  0  0  0  0  0  0  0  0
   -2.7825   -5.5873    0.0000 H   0  0  0  0  0  0  0  0  0  0  0  0
   -0.8822   -5.9146    0.0000 H   0  0  0  0  0  0  0  0  0  0  0  0
   -0.2298   -4.1000    0.0000 H   0  0  0  0  0  0  0  0  0  0  0  0
   -2.4936   -1.8024    0.0000 O   0  0  0  0  0  0  0  0  0  0  0  0
   -1.3636   -0.8224    0.0000 C   0  0  2  0  0  0  0  0  0  0  0  0
    0.1023   -0.5039    0.0000 H   0  0  0  0  0  0  0  0  0  0  0  0
   -1.3236    0.6876    0.0000 C   0  0  0  0  0  0  0  0  0  0  0  0
   -1.8012    2.1095    0.0000 H   0  0  0  0  0  0  0  0  0  0  0  0
   -2.8070    0.4652    0.0000 H   0  0  0  0  0  0  0  0  0  0  0  0
   -0.0036    1.4076    0.0000 O   0  0  0  0  0  0  0  0  0  0  0  0
    1.2464    0.5976    0.0000 C   0  0  2  0  0  0  0  0  0  0  0  0
    1.5274    2.5576    0.0000 C   0  0  0  0  0  0  0  0  0  0  0  0
    1.2196    4.0257    0.0000 H   0  0  0  0  0  0  0  0  0  0  0  0
    0.0282    2.5094    0.0000 H   0  0  0  0  0  0  0  0  0  0  0  0
    2.9198    3.1156    0.0000 O   0  0  0  0  0  0  0  0  0  0  0  0
    3.2007    5.0756    0.0000 S   0  0  0  0  0  0  0  0  0  0  0  0
    2.8929    6.5437    0.0000 O   0  0  0  0  0  0  0  0  0  0  0  0
    1.7015    5.0274    0.0000 O   0  0  0  0  0  0  0  0  0  0  0  0
    4.5931    5.6337    0.0000 N   0  0  0  0  0  0  0  0  0  0  0  0
    4.8059    7.1185    0.0000 H   0  0  0  0  0  0  0  0  0  0  0  0
    5.7725    4.7069    0.0000 H   0  0  0  0  0  0  0  0  0  0  0  0
    1.2464   -0.8824    0.0000 C   0  0  2  0  0  0  0  0  0  0  0  0
   -0.3399    0.3025    0.0000 H   0  0  0  0  0  0  0  0  0  0  0  0
   -0.0736   -1.6124    0.0000 C   0  0  2  0  0  0  0  0  0  0  0  0
    1.1217   -2.5187    0.0000 H   0  0  0  0  0  0  0  0  0  0  0  0
   -0.4136   -3.0524    0.0000 O   0  0  0  0  0  0  0  0  0  0  0  0
    2.6464   -1.3824    0.0000 O   0  0  0  0  0  0  0  0  0  0  0  0
    3.5564   -0.1624    0.0000 C   0  0  0  0  0  0  0  0  0  0  0  0
    4.6637   -1.1743    0.0000 C   0  0  0  0  0  0  0  0  0  0  0  0
    6.0937   -0.7213    0.0000 H   0  0  0  0  0  0  0  0  0  0  0  0
    3.4749   -2.0890    0.0000 H   0  0  0  0  0  0  0  0  0  0  0  0
    5.3581   -2.5039    0.0000 H   0  0  0  0  0  0  0  0  0  0  0  0
    4.6734    0.8389    0.0000 C   0  0  0  0  0  0  0  0  0  0  0  0
    4.3647    2.3068    0.0000 O   0  0  0  0  0  0  0  0  0  0  0  0
    6.0989    0.3722    0.0000 O   0  0  0  0  0  0  0  0  0  0  0  0
    7.2159    1.3734    0.0000 H   0  0  0  0  0  0  0  0  0  0  0  0
    2.6864    1.0276    0.0000 O   0  0  0  0  0  0  0  0  0  0  0  0
  1  2  1  0  0  0  0 
  1  3  1  0  0  0  0 
  1  4  1  0  0  0  0 
  1  5  1  0  0  0  0 
  5  6  1  0  0  0  0 
  6  7  1  0  0  0  0 
  6  8  1  0  0  0  0 
  6  9  1  0  0  0  0 
  5 10  1  0  0  0  0 
 10 11  1  0  0  0  0 
 11 12  1  1  0  0  0 
 11 13  1  0  0  0  0 
 13 14  1  0  0  0  0 
 13 15  1  0  0  0  0 
 13 16  1  0  0  0  0 
 17 16  1  1  0  0  0 
 17 18  1  0  0  0  0 
 18 19  1  0  0  0  0 
 18 20  1  0  0  0  0 
 18 21  1  0  0  0  0 
 21 22  1  0  0  0  0 
 22 23  2  0  0  0  0 
 22 24  2  0  0  0  0 
 22 25  1  0  0  0  0 
 25 26  1  0  0  0  0 
 25 27  1  0  0  0  0 
 17 28  1  0  0  0  0 
 28 29  1  6  0  0  0 
 28 30  1  0  0  0  0 
 11 30  1  0  0  0  0 
 30 31  1  1  0  0  0 
 30 32  1  0  0  0  0 
  5 32  1  0  0  0  0 
 28 33  1  0  0  0  0 
 33 34  1  0  0  0  0 
 34 35  1  0  0  0  0 
 35 36  1  0  0  0  0 
 35 37  1  0  0  0  0 
 35 38  1  0  0  0  0 
 34 39  1  0  0  0  0 
 39 40  2  0  0  0  0 
 39 41  1  0  0  0  0 
 41 42  1  0  0  0  0 
 34 43  1  0  0  0  0 
 17 43  1  0  0  0  0 
M  END
> <Rank>
7

> <Priority_score>
0.088

> <Reaction_type>
carboxylation_(primary_carbon_next_to_quart_carbon)

> <Parent_ID>
13

> <Parent_InChI>
InChI=1S/C12H21NO8S/c1-10(2)18-7-5-16-12(6-17-22(13,14)15)9(8(7)19-10)20-11(3,4)21-12/h7-9H,5-6H2,1-4H3,(H2,13,14,15)

> <Parent_SMILES>
CC1(C)O[C@@H]2CO[C@@]3(COS(N)(=O)=O)OC(C)(C)O[C@H]3[C@@H]2O1

$$$$
Molecule 13_metabolite 12
  CDK     0516241031

 44 46  0  0  0  0  0  0  0  0999 V2000
   -3.4062   -4.0560    0.0000 C   0  0  0  0  0  0  0  0  0  0  0  0
   -3.7437   -5.5175    0.0000 H   0  0  0  0  0  0  0  0  0  0  0  0
   -3.5888   -2.5671    0.0000 H   0  0  0  0  0  0  0  0  0  0  0  0
   -4.9041   -3.9773    0.0000 H   0  0  0  0  0  0  0  0  0  0  0  0
   -1.9717   -3.6175    0.0000 C   0  0  0  0  0  0  0  0  0  0  0  0
   -1.7054   -5.0937    0.0000 C   0  0  0  0  0  0  0  0  0  0  0  0
   -2.8506   -6.0624    0.0000 H   0  0  0  0  0  0  0  0  0  0  0  0
   -0.9503   -6.3898    0.0000 H   0  0  0  0  0  0  0  0  0  0  0  0
   -0.2979   -4.5751    0.0000 H   0  0  0  0  0  0  0  0  0  0  0  0
   -2.5617   -2.2775    0.0000 O   0  0  0  0  0  0  0  0  0  0  0  0
   -1.4317   -1.2975    0.0000 C   0  0  2  0  0  0  0  0  0  0  0  0
    0.0341   -0.9791    0.0000 H   0  0  0  0  0  0  0  0  0  0  0  0
   -1.3917    0.2125    0.0000 C   0  0  0  0  0  0  0  0  0  0  0  0
   -1.8693    1.6344    0.0000 H   0  0  0  0  0  0  0  0  0  0  0  0
   -2.8751   -0.0099    0.0000 H   0  0  0  0  0  0  0  0  0  0  0  0
   -0.0717    0.9325    0.0000 O   0  0  0  0  0  0  0  0  0  0  0  0
    1.1783    0.1225    0.0000 C   0  0  2  0  0  0  0  0  0  0  0  0
    1.1783   -1.3575    0.0000 C   0  0  2  0  0  0  0  0  0  0  0  0
   -0.4080   -0.1726    0.0000 H   0  0  0  0  0  0  0  0  0  0  0  0
   -0.1417   -2.0875    0.0000 C   0  0  2  0  0  0  0  0  0  0  0  0
    1.0536   -2.9938    0.0000 H   0  0  0  0  0  0  0  0  0  0  0  0
   -0.4817   -3.5275    0.0000 O   0  0  0  0  0  0  0  0  0  0  0  0
    2.5783   -1.8575    0.0000 O   0  0  0  0  0  0  0  0  0  0  0  0
    3.4883   -0.6375    0.0000 C   0  0  0  0  0  0  0  0  0  0  0  0
    4.5956   -1.6494    0.0000 C   0  0  0  0  0  0  0  0  0  0  0  0
    6.0256   -1.1964    0.0000 H   0  0  0  0  0  0  0  0  0  0  0  0
    3.4068   -2.5642    0.0000 H   0  0  0  0  0  0  0  0  0  0  0  0
    5.2900   -2.9790    0.0000 H   0  0  0  0  0  0  0  0  0  0  0  0
    4.6053    0.3637    0.0000 C   0  0  0  0  0  0  0  0  0  0  0  0
    6.0308   -0.1030    0.0000 H   0  0  0  0  0  0  0  0  0  0  0  0
    5.3124    1.6866    0.0000 H   0  0  0  0  0  0  0  0  0  0  0  0
    3.4253    1.2898    0.0000 H   0  0  0  0  0  0  0  0  0  0  0  0
    2.6183    0.5525    0.0000 O   0  0  0  0  0  0  0  0  0  0  0  0
    1.4593    2.0824    0.0000 C   0  0  0  0  0  0  0  0  0  0  0  0
    1.1515    3.5505    0.0000 H   0  0  0  0  0  0  0  0  0  0  0  0
   -0.0399    2.0342    0.0000 O   0  0  0  0  0  0  0  0  0  0  0  0
   -0.8313    3.3085    0.0000 H   0  0  0  0  0  0  0  0  0  0  0  0
    2.8516    2.6405    0.0000 O   0  0  0  0  0  0  0  0  0  0  0  0
    3.1326    4.6005    0.0000 S   0  0  0  0  0  0  0  0  0  0  0  0
    2.8248    6.0685    0.0000 O   0  0  0  0  0  0  0  0  0  0  0  0
    1.6334    4.5523    0.0000 O   0  0  0  0  0  0  0  0  0  0  0  0
    4.5250    5.1585    0.0000 N   0  0  0  0  0  0  0  0  0  0  0  0
    4.7378    6.6433    0.0000 H   0  0  0  0  0  0  0  0  0  0  0  0
    5.7044    4.2318    0.0000 H   0  0  0  0  0  0  0  0  0  0  0  0
  1  2  1  0  0  0  0 
  1  3  1  0  0  0  0 
  1  4  1  0  0  0  0 
  1  5  1  0  0  0  0 
  5  6  1  0  0  0  0 
  6  7  1  0  0  0  0 
  6  8  1  0  0  0  0 
  6  9  1  0  0  0  0 
  5 10  1  0  0  0  0 
 10 11  1  0  0  0  0 
 11 12  1  1  0  0  0 
 11 13  1  0  0  0  0 
 13 14  1  0  0  0  0 
 13 15  1  0  0  0  0 
 13 16  1  0  0  0  0 
 17 16  1  1  0  0  0 
 17 18  1  0  0  0  0 
 18 19  1  6  0  0  0 
 18 20  1  0  0  0  0 
 11 20  1  0  0  0  0 
 20 21  1  1  0  0  0 
 20 22  1  0  0  0  0 
  5 22  1  0  0  0  0 
 18 23  1  0  0  0  0 
 23 24  1  0  0  0  0 
 24 25  1  0  0  0  0 
 25 26  1  0  0  0  0 
 25 27  1  0  0  0  0 
 25 28  1  0  0  0  0 
 24 29  1  0  0  0  0 
 29 30  1  0  0  0  0 
 29 31  1  0  0  0  0 
 29 32  1  0  0  0  0 
 24 33  1  0  0  0  0 
 17 33  1  0  0  0  0 
 17 34  1  0  0  0  0 
 34 35  1  0  0  0  0 
 34 36  1  0  0  0  0 
 36 37  1  0  0  0  0 
 34 38  1  0  0  0  0 
 38 39  1  0  0  0  0 
 39 40  2  0  0  0  0 
 39 41  2  0  0  0  0 
 39 42  1  0  0  0  0 
 42 43  1  0  0  0  0 
 42 44  1  0  0  0  0 
M  END
> <Rank>
12

> <Priority_score>
0.07555763604447045

> <Reaction_type>
aliphatic hydroxylation

> <Parent_ID>
13

> <Parent_InChI>
InChI=1S/C12H21NO8S/c1-10(2)18-7-5-16-12(6-17-22(13,14)15)9(8(7)19-10)20-11(3,4)21-12/h7-9H,5-6H2,1-4H3,(H2,13,14,15)

> <Parent_SMILES>
CC1(C)O[C@@H]2CO[C@@]3(COS(N)(=O)=O)OC(C)(C)O[C@H]3[C@@H]2O1

$$$$
Molecule 13_metabolite 13
  CDK     0516241031

 44 45  0  0  0  0  0  0  0  0999 V2000
   -4.4374   -2.4270    0.0000 C   0  0  0  0  0  0  0  0  0  0  0  0
   -4.7492   -0.9598    0.0000 H   0  0  0  0  0  0  0  0  0  0  0  0
   -4.6461   -3.9124    0.0000 H   0  0  0  0  0  0  0  0  0  0  0  0
   -5.9365   -2.4794    0.0000 H   0  0  0  0  0  0  0  0  0  0  0  0
   -3.0108   -2.8905    0.0000 C   0  0  0  0  0  0  0  0  0  0  0  0
   -3.8161   -4.6994    0.0000 C   0  0  0  0  0  0  0  0  0  0  0  0
   -5.3079   -4.8562    0.0000 H   0  0  0  0  0  0  0  0  0  0  0  0
   -2.3607   -5.0622    0.0000 H   0  0  0  0  0  0  0  0  0  0  0  0
   -3.9208   -6.1957    0.0000 H   0  0  0  0  0  0  0  0  0  0  0  0
   -1.7118   -3.6405    0.0000 O   0  0  0  0  0  0  0  0  0  0  0  0
   -0.5970   -2.6368    0.0000 C   0  0  2  0  0  0  0  0  0  0  0  0
    0.2846   -3.8504    0.0000 H   0  0  0  0  0  0  0  0  0  0  0  0
    0.8125   -2.1238    0.0000 C   0  0  0  0  0  0  0  0  0  0  0  0
    1.9616   -3.0880    0.0000 H   0  0  0  0  0  0  0  0  0  0  0  0
    1.0730   -0.6466    0.0000 O   0  0  0  0  0  0  0  0  0  0  0  0
   -1.2071   -1.2665    0.0000 C   0  0  2  0  0  0  0  0  0  0  0  0
    0.2194   -0.8030    0.0000 H   0  0  0  0  0  0  0  0  0  0  0  0
   -1.5190    0.2007    0.0000 C   0  0  1  0  0  0  0  0  0  0  0  0
   -0.0272    0.3575    0.0000 H   0  0  0  0  0  0  0  0  0  0  0  0
   -1.5190    1.7007    0.0000 C   0  0  1  0  0  0  0  0  0  0  0  0
    1.4049    1.3934    0.0000 C   0  0  0  0  0  0  0  0  0  0  0  0
    1.3002    2.8897    0.0000 H   0  0  0  0  0  0  0  0  0  0  0  0
    2.8603    1.7563    0.0000 H   0  0  0  0  0  0  0  0  0  0  0  0
    2.2102   -0.4154    0.0000 O   0  0  0  0  0  0  0  0  0  0  0  0
    3.7020   -0.5722    0.0000 S   0  0  0  0  0  0  0  0  0  0  0  0
    3.5974    0.9241    0.0000 O   0  0  0  0  0  0  0  0  0  0  0  0
    5.1574   -0.2093    0.0000 O   0  0  0  0  0  0  0  0  0  0  0  0
    4.3121   -1.9425    0.0000 N   0  0  0  0  0  0  0  0  0  0  0  0
    5.8039   -2.0993    0.0000 H   0  0  0  0  0  0  0  0  0  0  0  0
    3.4304   -3.1561    0.0000 H   0  0  0  0  0  0  0  0  0  0  0  0
   -1.2071    3.1679    0.0000 O   0  0  0  0  0  0  0  0  0  0  0  0
   -2.3219    4.1716    0.0000 H   0  0  0  0  0  0  0  0  0  0  0  0
   -2.9456    2.1642    0.0000 O   0  0  0  0  0  0  0  0  0  0  0  0
   -3.8273    0.9507    0.0000 C   0  0  0  0  0  0  0  0  0  0  0  0
   -4.9420    1.9544    0.0000 C   0  0  0  0  0  0  0  0  0  0  0  0
   -6.3686    1.4909    0.0000 H   0  0  0  0  0  0  0  0  0  0  0  0
   -3.7600    2.8779    0.0000 H   0  0  0  0  0  0  0  0  0  0  0  0
   -5.6462    3.2788    0.0000 H   0  0  0  0  0  0  0  0  0  0  0  0
   -4.9420   -0.0530    0.0000 C   0  0  0  0  0  0  0  0  0  0  0  0
   -6.3686    0.4105    0.0000 H   0  0  0  0  0  0  0  0  0  0  0  0
   -5.6462   -1.3774    0.0000 H   0  0  0  0  0  0  0  0  0  0  0  0
   -3.7600   -0.9765    0.0000 H   0  0  0  0  0  0  0  0  0  0  0  0
   -2.9456   -0.2628    0.0000 O   0  0  0  0  0  0  0  0  0  0  0  0
   -2.6989   -1.4233    0.0000 O   0  0  0  0  0  0  0  0  0  0  0  0
  1  2  1  0  0  0  0 
  1  3  1  0  0  0  0 
  1  4  1  0  0  0  0 
  1  5  1  0  0  0  0 
  5  6  1  0  0  0  0 
  6  7  1  0  0  0  0 
  6  8  1  0  0  0  0 
  6  9  1  0  0  0  0 
  5 10  1  0  0  0  0 
 10 11  1  0  0  0  0 
 11 12  1  6  0  0  0 
 11 13  1  1  0  0  0 
 13 14  1  0  0  0  0 
 13 15  2  0  0  0  0 
 16 11  1  1  0  0  0 
 16 17  1  6  0  0  0 
 18 16  1  6  0  0  0 
 18 19  1  1  0  0  0 
 18 20  1  0  0  0  0 
 20 21  1  0  0  0  0 
 21 22  1  0  0  0  0 
 21 23  1  0  0  0  0 
 21 24  1  0  0  0  0 
 24 25  1  0  0  0  0 
 25 26  2  0  0  0  0 
 25 27  2  0  0  0  0 
 25 28  1  0  0  0  0 
 28 29  1  0  0  0  0 
 28 30  1  0  0  0  0 
 20 31  1  6  0  0  0 
 31 32  1  0  0  0  0 
 20 33  1  1  0  0  0 
 33 34  1  0  0  0  0 
 34 35  1  0  0  0  0 
 35 36  1  0  0  0  0 
 35 37  1  0  0  0  0 
 35 38  1  0  0  0  0 
 34 39  1  0  0  0  0 
 39 40  1  0  0  0  0 
 39 41  1  0  0  0  0 
 39 42  1  0  0  0  0 
 34 43  1  0  0  0  0 
 18 43  1  0  0  0  0 
 16 44  1  0  0  0  0 
  5 44  1  0  0  0  0 
M  END
> <Rank>
13

> <Priority_score>
0.072

> <Reaction_type>
oxidative ether cleavage to one alcohol and one aldehyde/ketone

> <Parent_ID>
13

> <Parent_InChI>
InChI=1S/C12H21NO8S/c1-10(2)18-7-5-16-12(6-17-22(13,14)15)9(8(7)19-10)20-11(3,4)21-12/h7-9H,5-6H2,1-4H3,(H2,13,14,15)

> <Parent_SMILES>
CC1(C)O[C@@H]2CO[C@@]3(COS(N)(=O)=O)OC(C)(C)O[C@H]3[C@@H]2O1

$$$$
Molecule 13_metabolite 14
  CDK     0516241031

 44 46  0  0  0  0  0  0  0  0999 V2000
   -3.2479   -3.2224    0.0000 C   0  0  0  0  0  0  0  0  0  0  0  0
   -3.5855   -4.6839    0.0000 H   0  0  0  0  0  0  0  0  0  0  0  0
   -3.4306   -1.7336    0.0000 H   0  0  0  0  0  0  0  0  0  0  0  0
   -4.7459   -3.1438    0.0000 H   0  0  0  0  0  0  0  0  0  0  0  0
   -1.8134   -2.7840    0.0000 C   0  0  0  0  0  0  0  0  0  0  0  0
   -1.5471   -4.2602    0.0000 C   0  0  0  0  0  0  0  0  0  0  0  0
   -2.6924   -5.2289    0.0000 H   0  0  0  0  0  0  0  0  0  0  0  0
   -0.7920   -5.5562    0.0000 H   0  0  0  0  0  0  0  0  0  0  0  0
   -0.1396   -3.7416    0.0000 H   0  0  0  0  0  0  0  0  0  0  0  0
   -0.3234   -2.6940    0.0000 O   0  0  0  0  0  0  0  0  0  0  0  0
    0.0166   -1.2540    0.0000 C   0  0  2  0  0  0  0  0  0  0  0  0
   -0.1157    0.2402    0.0000 H   0  0  0  0  0  0  0  0  0  0  0  0
   -1.2734   -0.4640    0.0000 C   0  0  1  0  0  0  0  0  0  0  0  0
   -2.6296    0.1769    0.0000 H   0  0  0  0  0  0  0  0  0  0  0  0
   -1.2334    1.0460    0.0000 C   0  0  0  0  0  0  0  0  0  0  0  0
   -1.7111    2.4679    0.0000 H   0  0  0  0  0  0  0  0  0  0  0  0
   -3.1915    0.7525    0.0000 O   0  0  0  0  0  0  0  0  0  0  0  0
   -4.1258    1.9260    0.0000 H   0  0  0  0  0  0  0  0  0  0  0  0
    0.0866    1.7660    0.0000 O   0  0  0  0  0  0  0  0  0  0  0  0
    1.3366    0.9560    0.0000 C   0  0  2  0  0  0  0  0  0  0  0  0
    1.6176    2.9160    0.0000 C   0  0  0  0  0  0  0  0  0  0  0  0
    1.3098    4.3841    0.0000 H   0  0  0  0  0  0  0  0  0  0  0  0
    0.1183    2.8678    0.0000 H   0  0  0  0  0  0  0  0  0  0  0  0
    3.0099    3.4740    0.0000 O   0  0  0  0  0  0  0  0  0  0  0  0
    3.2228    4.9589    0.0000 S   0  0  0  0  0  0  0  0  0  0  0  0
    3.9306    6.2813    0.0000 O   0  0  0  0  0  0  0  0  0  0  0  0
    4.6481    4.4914    0.0000 O   0  0  0  0  0  0  0  0  0  0  0  0
    2.0433    5.8856    0.0000 N   0  0  0  0  0  0  0  0  0  0  0  0
    2.2562    7.3704    0.0000 H   0  0  0  0  0  0  0  0  0  0  0  0
    0.6510    5.3276    0.0000 H   0  0  0  0  0  0  0  0  0  0  0  0
    1.3366   -0.5240    0.0000 C   0  0  1  0  0  0  0  0  0  0  0  0
    1.4581   -2.0191    0.0000 H   0  0  0  0  0  0  0  0  0  0  0  0
    2.7366   -1.0240    0.0000 O   0  0  0  0  0  0  0  0  0  0  0  0
    3.6466    0.1960    0.0000 C   0  0  0  0  0  0  0  0  0  0  0  0
    4.7539   -0.8159    0.0000 C   0  0  0  0  0  0  0  0  0  0  0  0
    6.1838   -0.3629    0.0000 H   0  0  0  0  0  0  0  0  0  0  0  0
    3.5651   -1.7306    0.0000 H   0  0  0  0  0  0  0  0  0  0  0  0
    5.4483   -2.1455    0.0000 H   0  0  0  0  0  0  0  0  0  0  0  0
    4.7635    1.1973    0.0000 C   0  0  0  0  0  0  0  0  0  0  0  0
    6.1891    0.7306    0.0000 H   0  0  0  0  0  0  0  0  0  0  0  0
    5.4706    2.5201    0.0000 H   0  0  0  0  0  0  0  0  0  0  0  0
    3.5835    2.1233    0.0000 H   0  0  0  0  0  0  0  0  0  0  0  0
    2.7766    1.3860    0.0000 O   0  0  0  0  0  0  0  0  0  0  0  0
   -2.4034   -1.4440    0.0000 O   0  0  0  0  0  0  0  0  0  0  0  0
  1  2  1  0  0  0  0 
  1  3  1  0  0  0  0 
  1  4  1  0  0  0  0 
  1  5  1  0  0  0  0 
  5  6  1  0  0  0  0 
  6  7  1  0  0  0  0 
  6  8  1  0  0  0  0 
  6  9  1  0  0  0  0 
  5 10  1  0  0  0  0 
 10 11  1  0  0  0  0 
 11 12  1  1  0  0  0 
 11 13  1  0  0  0  0 
 13 14  1  1  0  0  0 
 13 15  1  0  0  0  0 
 15 16  1  0  0  0  0 
 15 17  1  0  0  0  0 
 17 18  1  0  0  0  0 
 15 19  1  0  0  0  0 
 20 19  1  1  0  0  0 
 20 21  1  0  0  0  0 
 21 22  1  0  0  0  0 
 21 23  1  0  0  0  0 
 21 24  1  0  0  0  0 
 24 25  1  0  0  0  0 
 25 26  2  0  0  0  0 
 25 27  2  0  0  0  0 
 25 28  1  0  0  0  0 
 28 29  1  0  0  0  0 
 28 30  1  0  0  0  0 
 20 31  1  0  0  0  0 
 11 31  1  0  0  0  0 
 31 32  1  6  0  0  0 
 31 33  1  0  0  0  0 
 33 34  1  0  0  0  0 
 34 35  1  0  0  0  0 
 35 36  1  0  0  0  0 
 35 37  1  0  0  0  0 
 35 38  1  0  0  0  0 
 34 39  1  0  0  0  0 
 39 40  1  0  0  0  0 
 39 41  1  0  0  0  0 
 39 42  1  0  0  0  0 
 34 43  1  0  0  0  0 
 20 43  1  0  0  0  0 
 13 44  1  0  0  0  0 
  5 44  1  0  0  0  0 
M  END
> <Rank>
13

> <Priority_score>
0.072

> <Reaction_type>
aliphatic hydroxylation

> <Parent_ID>
13

> <Parent_InChI>
InChI=1S/C12H21NO8S/c1-10(2)18-7-5-16-12(6-17-22(13,14)15)9(8(7)19-10)20-11(3,4)21-12/h7-9H,5-6H2,1-4H3,(H2,13,14,15)

> <Parent_SMILES>
CC1(C)O[C@@H]2CO[C@@]3(COS(N)(=O)=O)OC(C)(C)O[C@H]3[C@@H]2O1

$$$$
Molecule 13_metabolite 15
  CDK     0516241031

 44 46  0  0  0  0  0  0  0  0999 V2000
   -4.4876   -2.7135    0.0000 C   0  0  0  0  0  0  0  0  0  0  0  0
   -4.8251   -4.1751    0.0000 H   0  0  0  0  0  0  0  0  0  0  0  0
   -4.6703   -1.2247    0.0000 H   0  0  0  0  0  0  0  0  0  0  0  0
   -5.9855   -2.6349    0.0000 H   0  0  0  0  0  0  0  0  0  0  0  0
   -3.0531   -2.2751    0.0000 C   0  0  0  0  0  0  0  0  0  0  0  0
   -2.7868   -3.7513    0.0000 C   0  0  0  0  0  0  0  0  0  0  0  0
   -3.9321   -4.7200    0.0000 H   0  0  0  0  0  0  0  0  0  0  0  0
   -2.0317   -5.0474    0.0000 H   0  0  0  0  0  0  0  0  0  0  0  0
   -1.3793   -3.2327    0.0000 H   0  0  0  0  0  0  0  0  0  0  0  0
   -3.6431   -0.9351    0.0000 O   0  0  0  0  0  0  0  0  0  0  0  0
   -2.5131    0.0449    0.0000 C   0  0  2  0  0  0  0  0  0  0  0  0
   -1.1248    0.6130    0.0000 H   0  0  0  0  0  0  0  0  0  0  0  0
   -2.4731    1.5549    0.0000 C   0  0  0  0  0  0  0  0  0  0  0  0
   -2.9507    2.9768    0.0000 H   0  0  0  0  0  0  0  0  0  0  0  0
   -3.9565    1.3325    0.0000 H   0  0  0  0  0  0  0  0  0  0  0  0
   -1.1531    2.2749    0.0000 O   0  0  0  0  0  0  0  0  0  0  0  0
    0.0969    1.4649    0.0000 C   0  0  2  0  0  0  0  0  0  0  0  0
    0.3779    3.4248    0.0000 C   0  0  0  0  0  0  0  0  0  0  0  0
    0.0701    4.8929    0.0000 H   0  0  0  0  0  0  0  0  0  0  0  0
   -1.1213    3.3766    0.0000 H   0  0  0  0  0  0  0  0  0  0  0  0
    1.7702    3.9829    0.0000 O   0  0  0  0  0  0  0  0  0  0  0  0
    1.9831    5.4677    0.0000 S   0  0  0  0  0  0  0  0  0  0  0  0
    2.6910    6.7902    0.0000 O   0  0  0  0  0  0  0  0  0  0  0  0
    3.4084    5.0002    0.0000 O   0  0  0  0  0  0  0  0  0  0  0  0
    0.8036    6.3945    0.0000 N   0  0  0  0  0  0  0  0  0  0  0  0
    1.0165    7.8793    0.0000 H   0  0  0  0  0  0  0  0  0  0  0  0
   -0.5887    5.8364    0.0000 H   0  0  0  0  0  0  0  0  0  0  0  0
    0.0969   -0.0151    0.0000 C   0  0  2  0  0  0  0  0  0  0  0  0
    0.2184   -1.5102    0.0000 H   0  0  0  0  0  0  0  0  0  0  0  0
   -1.2231   -0.7451    0.0000 C   0  0  1  0  0  0  0  0  0  0  0  0
    0.7371   -2.2314    0.0000 O   0  0  0  0  0  0  0  0  0  0  0  0
    0.5499   -3.7197    0.0000 H   0  0  0  0  0  0  0  0  0  0  0  0
   -1.5631   -2.1851    0.0000 O   0  0  0  0  0  0  0  0  0  0  0  0
    1.4969   -0.5151    0.0000 O   0  0  0  0  0  0  0  0  0  0  0  0
    2.4069    0.7049    0.0000 C   0  0  0  0  0  0  0  0  0  0  0  0
    3.5142   -0.3070    0.0000 C   0  0  0  0  0  0  0  0  0  0  0  0
    4.9442    0.1460    0.0000 H   0  0  0  0  0  0  0  0  0  0  0  0
    2.3254   -1.2218    0.0000 H   0  0  0  0  0  0  0  0  0  0  0  0
    4.2086   -1.6366    0.0000 H   0  0  0  0  0  0  0  0  0  0  0  0
    3.5238    1.7061    0.0000 C   0  0  0  0  0  0  0  0  0  0  0  0
    4.9494    1.2394    0.0000 H   0  0  0  0  0  0  0  0  0  0  0  0
    4.2310    3.0290    0.0000 H   0  0  0  0  0  0  0  0  0  0  0  0
    2.3439    2.6322    0.0000 H   0  0  0  0  0  0  0  0  0  0  0  0
    1.5369    1.8949    0.0000 O   0  0  0  0  0  0  0  0  0  0  0  0
  1  2  1  0  0  0  0 
  1  3  1  0  0  0  0 
  1  4  1  0  0  0  0 
  1  5  1  0  0  0  0 
  5  6  1  0  0  0  0 
  6  7  1  0  0  0  0 
  6  8  1  0  0  0  0 
  6  9  1  0  0  0  0 
  5 10  1  0  0  0  0 
 10 11  1  0  0  0  0 
 11 12  1  1  0  0  0 
 11 13  1  0  0  0  0 
 13 14  1  0  0  0  0 
 13 15  1  0  0  0  0 
 13 16  1  0  0  0  0 
 17 16  1  1  0  0  0 
 17 18  1  0  0  0  0 
 18 19  1  0  0  0  0 
 18 20  1  0  0  0  0 
 18 21  1  0  0  0  0 
 21 22  1  0  0  0  0 
 22 23  2  0  0  0  0 
 22 24  2  0  0  0  0 
 22 25  1  0  0  0  0 
 25 26  1  0  0  0  0 
 25 27  1  0  0  0  0 
 17 28  1  0  0  0  0 
 28 29  1  6  0  0  0 
 28 30  1  0  0  0  0 
 11 30  1  0  0  0  0 
 30 31  1  1  0  0  0 
 31 32  1  0  0  0  0 
 30 33  1  0  0  0  0 
  5 33  1  0  0  0  0 
 28 34  1  0  0  0  0 
 34 35  1  0  0  0  0 
 35 36  1  0  0  0  0 
 36 37  1  0  0  0  0 
 36 38  1  0  0  0  0 
 36 39  1  0  0  0  0 
 35 40  1  0  0  0  0 
 40 41  1  0  0  0  0 
 40 42  1  0  0  0  0 
 40 43  1  0  0  0  0 
 35 44  1  0  0  0  0 
 17 44  1  0  0  0  0 
M  END
> <Rank>
15

> <Priority_score>
0.064

> <Reaction_type>
aliphatic hydroxylation

> <Parent_ID>
13

> <Parent_InChI>
InChI=1S/C12H21NO8S/c1-10(2)18-7-5-16-12(6-17-22(13,14)15)9(8(7)19-10)20-11(3,4)21-12/h7-9H,5-6H2,1-4H3,(H2,13,14,15)

> <Parent_SMILES>
CC1(C)O[C@@H]2CO[C@@]3(COS(N)(=O)=O)OC(C)(C)O[C@H]3[C@@H]2O1

$$$$
Molecule 13_metabolite 16
  CDK     0516241031

 44 46  0  0  0  0  0  0  0  0999 V2000
   -3.7226   -3.2936    0.0000 C   0  0  0  0  0  0  0  0  0  0  0  0
   -4.0602   -4.7551    0.0000 H   0  0  0  0  0  0  0  0  0  0  0  0
   -3.9053   -1.8047    0.0000 H   0  0  0  0  0  0  0  0  0  0  0  0
   -5.2206   -3.2149    0.0000 H   0  0  0  0  0  0  0  0  0  0  0  0
   -2.2881   -2.8551    0.0000 C   0  0  0  0  0  0  0  0  0  0  0  0
   -2.0218   -4.3313    0.0000 C   0  0  0  0  0  0  0  0  0  0  0  0
   -3.1671   -5.3000    0.0000 H   0  0  0  0  0  0  0  0  0  0  0  0
   -1.2667   -5.6274    0.0000 H   0  0  0  0  0  0  0  0  0  0  0  0
   -0.6143   -3.8127    0.0000 H   0  0  0  0  0  0  0  0  0  0  0  0
   -0.7981   -2.7651    0.0000 O   0  0  0  0  0  0  0  0  0  0  0  0
   -0.4581   -1.3251    0.0000 C   0  0  1  0  0  0  0  0  0  0  0  0
   -0.5904    0.1690    0.0000 H   0  0  0  0  0  0  0  0  0  0  0  0
    0.8619   -0.5951    0.0000 C   0  0  1  0  0  0  0  0  0  0  0  0
    0.9834   -2.0902    0.0000 H   0  0  0  0  0  0  0  0  0  0  0  0
    0.8619    0.8849    0.0000 C   0  0  1  0  0  0  0  0  0  0  0  0
    1.1429    2.8448    0.0000 C   0  0  0  0  0  0  0  0  0  0  0  0
    0.8351    4.3129    0.0000 H   0  0  0  0  0  0  0  0  0  0  0  0
   -0.3564    2.7966    0.0000 H   0  0  0  0  0  0  0  0  0  0  0  0
    2.5352    3.4029    0.0000 O   0  0  0  0  0  0  0  0  0  0  0  0
    2.7481    4.8877    0.0000 S   0  0  0  0  0  0  0  0  0  0  0  0
    3.4559    6.2102    0.0000 O   0  0  0  0  0  0  0  0  0  0  0  0
    4.1734    4.4202    0.0000 O   0  0  0  0  0  0  0  0  0  0  0  0
    1.5686    5.8145    0.0000 N   0  0  0  0  0  0  0  0  0  0  0  0
    1.7815    7.2993    0.0000 H   0  0  0  0  0  0  0  0  0  0  0  0
    0.1763    5.2564    0.0000 H   0  0  0  0  0  0  0  0  0  0  0  0
   -0.3881    1.6949    0.0000 O   0  0  0  0  0  0  0  0  0  0  0  0
   -1.7081    0.9749    0.0000 C   0  0  0  0  0  0  0  0  0  0  0  0
   -2.1858    2.3968    0.0000 H   0  0  0  0  0  0  0  0  0  0  0  0
   -3.2076    1.0135    0.0000 H   0  0  0  0  0  0  0  0  0  0  0  0
   -1.7481   -0.5351    0.0000 C   0  0  2  0  0  0  0  0  0  0  0  0
   -3.1043    0.1057    0.0000 O   0  0  0  0  0  0  0  0  0  0  0  0
   -4.3374   -0.7484    0.0000 H   0  0  0  0  0  0  0  0  0  0  0  0
   -2.8781   -1.5151    0.0000 O   0  0  0  0  0  0  0  0  0  0  0  0
    2.3019    1.3149    0.0000 O   0  0  0  0  0  0  0  0  0  0  0  0
    3.1719    0.1249    0.0000 C   0  0  0  0  0  0  0  0  0  0  0  0
    4.2792   -0.8870    0.0000 C   0  0  0  0  0  0  0  0  0  0  0  0
    5.7091   -0.4341    0.0000 H   0  0  0  0  0  0  0  0  0  0  0  0
    3.0904   -1.8018    0.0000 H   0  0  0  0  0  0  0  0  0  0  0  0
    4.9736   -2.2166    0.0000 H   0  0  0  0  0  0  0  0  0  0  0  0
    4.2888    1.1261    0.0000 C   0  0  0  0  0  0  0  0  0  0  0  0
    5.7144    0.6594    0.0000 H   0  0  0  0  0  0  0  0  0  0  0  0
    4.9959    2.4490    0.0000 H   0  0  0  0  0  0  0  0  0  0  0  0
    3.1088    2.0522    0.0000 H   0  0  0  0  0  0  0  0  0  0  0  0
    2.2619   -1.0951    0.0000 O   0  0  0  0  0  0  0  0  0  0  0  0
  1  2  1  0  0  0  0 
  1  3  1  0  0  0  0 
  1  4  1  0  0  0  0 
  1  5  1  0  0  0  0 
  5  6  1  0  0  0  0 
  6  7  1  0  0  0  0 
  6  8  1  0  0  0  0 
  6  9  1  0  0  0  0 
  5 10  1  0  0  0  0 
 10 11  1  0  0  0  0 
 11 12  1  1  0  0  0 
 11 13  1  0  0  0  0 
 13 14  1  6  0  0  0 
 13 15  1  0  0  0  0 
 15 16  1  0  0  0  0 
 16 17  1  0  0  0  0 
 16 18  1  0  0  0  0 
 16 19  1  0  0  0  0 
 19 20  1  0  0  0  0 
 20 21  2  0  0  0  0 
 20 22  2  0  0  0  0 
 20 23  1  0  0  0  0 
 23 24  1  0  0  0  0 
 23 25  1  0  0  0  0 
 15 26  1  1  0  0  0 
 26 27  1  0  0  0  0 
 27 28  1  0  0  0  0 
 27 29  1  0  0  0  0 
 27 30  1  0  0  0  0 
 11 30  1  0  0  0  0 
 30 31  1  1  0  0  0 
 31 32  1  0  0  0  0 
 30 33  1  0  0  0  0 
  5 33  1  0  0  0  0 
 15 34  1  0  0  0  0 
 34 35  1  0  0  0  0 
 35 36  1  0  0  0  0 
 36 37  1  0  0  0  0 
 36 38  1  0  0  0  0 
 36 39  1  0  0  0  0 
 35 40  1  0  0  0  0 
 40 41  1  0  0  0  0 
 40 42  1  0  0  0  0 
 40 43  1  0  0  0  0 
 35 44  1  0  0  0  0 
 13 44  1  0  0  0  0 
M  END
> <Rank>
16

> <Priority_score>
0.05955763604447045

> <Reaction_type>
aliphatic hydroxylation

> <Parent_ID>
13

> <Parent_InChI>
InChI=1S/C12H21NO8S/c1-10(2)18-7-5-16-12(6-17-22(13,14)15)9(8(7)19-10)20-11(3,4)21-12/h7-9H,5-6H2,1-4H3,(H2,13,14,15)

> <Parent_SMILES>
CC1(C)O[C@@H]2CO[C@@]3(COS(N)(=O)=O)OC(C)(C)O[C@H]3[C@@H]2O1

$$$$
Molecule 13_metabolite 17
  CDK     0516241031

 41 43  0  0  0  0  0  0  0  0999 V2000
   -3.7226   -3.2936    0.0000 C   0  0  0  0  0  0  0  0  0  0  0  0
   -4.0602   -4.7551    0.0000 H   0  0  0  0  0  0  0  0  0  0  0  0
   -3.9053   -1.8047    0.0000 H   0  0  0  0  0  0  0  0  0  0  0  0
   -5.2206   -3.2149    0.0000 H   0  0  0  0  0  0  0  0  0  0  0  0
   -2.2881   -2.8551    0.0000 C   0  0  0  0  0  0  0  0  0  0  0  0
   -2.0218   -4.3313    0.0000 C   0  0  0  0  0  0  0  0  0  0  0  0
   -3.1671   -5.3000    0.0000 H   0  0  0  0  0  0  0  0  0  0  0  0
   -1.2667   -5.6274    0.0000 H   0  0  0  0  0  0  0  0  0  0  0  0
   -0.6143   -3.8127    0.0000 H   0  0  0  0  0  0  0  0  0  0  0  0
   -2.8781   -1.5151    0.0000 O   0  0  0  0  0  0  0  0  0  0  0  0
   -1.7481   -0.5351    0.0000 C   0  0  2  0  0  0  0  0  0  0  0  0
   -0.3599    0.0330    0.0000 H   0  0  0  0  0  0  0  0  0  0  0  0
   -1.7081    0.9749    0.0000 C   0  0  0  0  0  0  0  0  0  0  0  0
   -2.1858    2.3968    0.0000 H   0  0  0  0  0  0  0  0  0  0  0  0
   -3.1915    0.7525    0.0000 H   0  0  0  0  0  0  0  0  0  0  0  0
   -0.3881    1.6949    0.0000 O   0  0  0  0  0  0  0  0  0  0  0  0
    0.8619    0.8849    0.0000 C   0  0  2  0  0  0  0  0  0  0  0  0
    1.1429    2.8448    0.0000 C   0  0  0  0  0  0  0  0  0  0  0  0
    0.8351    4.3129    0.0000 H   0  0  0  0  0  0  0  0  0  0  0  0
   -0.3564    2.7966    0.0000 H   0  0  0  0  0  0  0  0  0  0  0  0
    2.5352    3.4029    0.0000 O   0  0  0  0  0  0  0  0  0  0  0  0
    2.7481    4.8877    0.0000 S   0  0  0  0  0  0  0  0  0  0  0  0
    3.4559    6.2102    0.0000 O   0  0  0  0  0  0  0  0  0  0  0  0
    4.1734    4.4202    0.0000 O   0  0  0  0  0  0  0  0  0  0  0  0
    1.5686    5.8145    0.0000 N   0  0  0  0  0  0  0  0  0  0  0  0
    1.7815    7.2993    0.0000 H   0  0  0  0  0  0  0  0  0  0  0  0
    0.1763    5.2564    0.0000 H   0  0  0  0  0  0  0  0  0  0  0  0
    0.8619   -0.5951    0.0000 C   0  0  0  0  0  0  0  0  0  0  0  0
   -0.4581   -1.3251    0.0000 C   0  0  0  0  0  0  0  0  0  0  0  0
   -0.7981   -2.7651    0.0000 O   0  0  0  0  0  0  0  0  0  0  0  0
    2.2619   -1.0951    0.0000 O   0  0  0  0  0  0  0  0  0  0  0  0
    3.1719    0.1249    0.0000 C   0  0  0  0  0  0  0  0  0  0  0  0
    4.2792   -0.8870    0.0000 C   0  0  0  0  0  0  0  0  0  0  0  0
    5.7091   -0.4341    0.0000 H   0  0  0  0  0  0  0  0  0  0  0  0
    3.0904   -1.8018    0.0000 H   0  0  0  0  0  0  0  0  0  0  0  0
    4.9736   -2.2166    0.0000 H   0  0  0  0  0  0  0  0  0  0  0  0
    4.2888    1.1261    0.0000 C   0  0  0  0  0  0  0  0  0  0  0  0
    5.7144    0.6594    0.0000 H   0  0  0  0  0  0  0  0  0  0  0  0
    4.9959    2.4490    0.0000 H   0  0  0  0  0  0  0  0  0  0  0  0
    3.1088    2.0522    0.0000 H   0  0  0  0  0  0  0  0  0  0  0  0
    2.3019    1.3149    0.0000 O   0  0  0  0  0  0  0  0  0  0  0  0
  1  2  1  0  0  0  0 
  1  3  1  0  0  0  0 
  1  4  1  0  0  0  0 
  1  5  1  0  0  0  0 
  5  6  1  0  0  0  0 
  6  7  1  0  0  0  0 
  6  8  1  0  0  0  0 
  6  9  1  0  0  0  0 
  5 10  1  0  0  0  0 
 10 11  1  0  0  0  0 
 11 12  1  1  0  0  0 
 11 13  1  0  0  0  0 
 13 14  1  0  0  0  0 
 13 15  1  0  0  0  0 
 13 16  1  0  0  0  0 
 17 16  1  1  0  0  0 
 17 18  1  0  0  0  0 
 18 19  1  0  0  0  0 
 18 20  1  0  0  0  0 
 18 21  1  0  0  0  0 
 21 22  1  0  0  0  0 
 22 23  2  0  0  0  0 
 22 24  2  0  0  0  0 
 22 25  1  0  0  0  0 
 25 26  1  0  0  0  0 
 25 27  1  0  0  0  0 
 17 28  1  0  0  0  0 
 28 29  2  0  0  0  0 
 11 29  1  0  0  0  0 
 29 30  1  0  0  0  0 
  5 30  1  0  0  0  0 
 28 31  1  0  0  0  0 
 31 32  1  0  0  0  0 
 32 33  1  0  0  0  0 
 33 34  1  0  0  0  0 
 33 35  1  0  0  0  0 
 33 36  1  0  0  0  0 
 32 37  1  0  0  0  0 
 37 38  1  0  0  0  0 
 37 39  1  0  0  0  0 
 37 40  1  0  0  0  0 
 32 41  1  0  0  0  0 
 17 41  1  0  0  0  0 
M  END
> <Rank>
17

> <Priority_score>
0.0176

> <Reaction_type>
alkyl dehydrogenation

> <Parent_ID>
13

> <Parent_InChI>
InChI=1S/C12H21NO8S/c1-10(2)18-7-5-16-12(6-17-22(13,14)15)9(8(7)19-10)20-11(3,4)21-12/h7-9H,5-6H2,1-4H3,(H2,13,14,15)

> <Parent_SMILES>
CC1(C)O[C@@H]2CO[C@@]3(COS(N)(=O)=O)OC(C)(C)O[C@H]3[C@@H]2O1

$$$$
Molecule 13_metabolite 18
  CDK     0516241031

 41 43  0  0  0  0  0  0  0  0999 V2000
   -3.7226   -3.2936    0.0000 C   0  0  0  0  0  0  0  0  0  0  0  0
   -4.0602   -4.7551    0.0000 H   0  0  0  0  0  0  0  0  0  0  0  0
   -3.9053   -1.8047    0.0000 H   0  0  0  0  0  0  0  0  0  0  0  0
   -5.2206   -3.2149    0.0000 H   0  0  0  0  0  0  0  0  0  0  0  0
   -2.2881   -2.8551    0.0000 C   0  0  0  0  0  0  0  0  0  0  0  0
   -2.0218   -4.3313    0.0000 C   0  0  0  0  0  0  0  0  0  0  0  0
   -3.1671   -5.3000    0.0000 H   0  0  0  0  0  0  0  0  0  0  0  0
   -1.2667   -5.6274    0.0000 H   0  0  0  0  0  0  0  0  0  0  0  0
   -0.6143   -3.8127    0.0000 H   0  0  0  0  0  0  0  0  0  0  0  0
   -2.8781   -1.5151    0.0000 O   0  0  0  0  0  0  0  0  0  0  0  0
   -1.7481   -0.5351    0.0000 C   0  0  0  0  0  0  0  0  0  0  0  0
   -1.7081    0.9749    0.0000 C   0  0  0  0  0  0  0  0  0  0  0  0
   -2.9877    1.7576    0.0000 H   0  0  0  0  0  0  0  0  0  0  0  0
   -0.3881    1.6949    0.0000 O   0  0  0  0  0  0  0  0  0  0  0  0
    0.8619    0.8849    0.0000 C   0  0  2  0  0  0  0  0  0  0  0  0
    1.1429    2.8448    0.0000 C   0  0  0  0  0  0  0  0  0  0  0  0
    0.8351    4.3129    0.0000 H   0  0  0  0  0  0  0  0  0  0  0  0
   -0.3564    2.7966    0.0000 H   0  0  0  0  0  0  0  0  0  0  0  0
    2.5352    3.4029    0.0000 O   0  0  0  0  0  0  0  0  0  0  0  0
    2.7481    4.8877    0.0000 S   0  0  0  0  0  0  0  0  0  0  0  0
    3.4559    6.2102    0.0000 O   0  0  0  0  0  0  0  0  0  0  0  0
    4.1734    4.4202    0.0000 O   0  0  0  0  0  0  0  0  0  0  0  0
    1.5686    5.8145    0.0000 N   0  0  0  0  0  0  0  0  0  0  0  0
    1.7815    7.2993    0.0000 H   0  0  0  0  0  0  0  0  0  0  0  0
    0.1763    5.2564    0.0000 H   0  0  0  0  0  0  0  0  0  0  0  0
    0.8619   -0.5951    0.0000 C   0  0  2  0  0  0  0  0  0  0  0  0
   -0.3399    0.3025    0.0000 H   0  0  0  0  0  0  0  0  0  0  0  0
   -0.4581   -1.3251    0.0000 C   0  0  2  0  0  0  0  0  0  0  0  0
    0.7371   -2.2314    0.0000 H   0  0  0  0  0  0  0  0  0  0  0  0
   -0.7981   -2.7651    0.0000 O   0  0  0  0  0  0  0  0  0  0  0  0
    2.2619   -1.0951    0.0000 O   0  0  0  0  0  0  0  0  0  0  0  0
    3.1719    0.1249    0.0000 C   0  0  0  0  0  0  0  0  0  0  0  0
    4.2792   -0.8870    0.0000 C   0  0  0  0  0  0  0  0  0  0  0  0
    5.7091   -0.4341    0.0000 H   0  0  0  0  0  0  0  0  0  0  0  0
    3.0904   -1.8018    0.0000 H   0  0  0  0  0  0  0  0  0  0  0  0
    4.9736   -2.2166    0.0000 H   0  0  0  0  0  0  0  0  0  0  0  0
    4.2888    1.1261    0.0000 C   0  0  0  0  0  0  0  0  0  0  0  0
    5.7144    0.6594    0.0000 H   0  0  0  0  0  0  0  0  0  0  0  0
    4.9959    2.4490    0.0000 H   0  0  0  0  0  0  0  0  0  0  0  0
    3.1088    2.0522    0.0000 H   0  0  0  0  0  0  0  0  0  0  0  0
    2.3019    1.3149    0.0000 O   0  0  0  0  0  0  0  0  0  0  0  0
  1  2  1  0  0  0  0 
  1  3  1  0  0  0  0 
  1  4  1  0  0  0  0 
  1  5  1  0  0  0  0 
  5  6  1  0  0  0  0 
  6  7  1  0  0  0  0 
  6  8  1  0  0  0  0 
  6  9  1  0  0  0  0 
  5 10  1  0  0  0  0 
 10 11  1  0  0  0  0 
 11 12  2  0  0  0  0 
 12 13  1  0  0  0  0 
 12 14  1  0  0  0  0 
 15 14  1  1  0  0  0 
 15 16  1  0  0  0  0 
 16 17  1  0  0  0  0 
 16 18  1  0  0  0  0 
 16 19  1  0  0  0  0 
 19 20  1  0  0  0  0 
 20 21  2  0  0  0  0 
 20 22  2  0  0  0  0 
 20 23  1  0  0  0  0 
 23 24  1  0  0  0  0 
 23 25  1  0  0  0  0 
 15 26  1  0  0  0  0 
 26 27  1  6  0  0  0 
 26 28  1  0  0  0  0 
 11 28  1  0  0  0  0 
 28 29  1  1  0  0  0 
 28 30  1  0  0  0  0 
  5 30  1  0  0  0  0 
 26 31  1  0  0  0  0 
 31 32  1  0  0  0  0 
 32 33  1  0  0  0  0 
 33 34  1  0  0  0  0 
 33 35  1  0  0  0  0 
 33 36  1  0  0  0  0 
 32 37  1  0  0  0  0 
 37 38  1  0  0  0  0 
 37 39  1  0  0  0  0 
 37 40  1  0  0  0  0 
 32 41  1  0  0  0  0 
 15 41  1  0  0  0  0 
M  END
> <Rank>
18

> <Priority_score>
0.0144

> <Reaction_type>
alkyl dehydrogenation

> <Parent_ID>
13

> <Parent_InChI>
InChI=1S/C12H21NO8S/c1-10(2)18-7-5-16-12(6-17-22(13,14)15)9(8(7)19-10)20-11(3,4)21-12/h7-9H,5-6H2,1-4H3,(H2,13,14,15)

> <Parent_SMILES>
CC1(C)O[C@@H]2CO[C@@]3(COS(N)(=O)=O)OC(C)(C)O[C@H]3[C@@H]2O1

$$$$
Molecule 13_metabolite 19
  CDK     0516241031

 41 43  0  0  0  0  0  0  0  0999 V2000
   -3.7226   -3.2936    0.0000 C   0  0  0  0  0  0  0  0  0  0  0  0
   -4.0602   -4.7551    0.0000 H   0  0  0  0  0  0  0  0  0  0  0  0
   -3.9053   -1.8047    0.0000 H   0  0  0  0  0  0  0  0  0  0  0  0
   -5.2206   -3.2149    0.0000 H   0  0  0  0  0  0  0  0  0  0  0  0
   -2.2881   -2.8551    0.0000 C   0  0  0  0  0  0  0  0  0  0  0  0
   -2.0218   -4.3313    0.0000 C   0  0  0  0  0  0  0  0  0  0  0  0
   -3.1671   -5.3000    0.0000 H   0  0  0  0  0  0  0  0  0  0  0  0
   -1.2667   -5.6274    0.0000 H   0  0  0  0  0  0  0  0  0  0  0  0
   -0.6143   -3.8127    0.0000 H   0  0  0  0  0  0  0  0  0  0  0  0
   -2.8781   -1.5151    0.0000 O   0  0  0  0  0  0  0  0  0  0  0  0
   -1.7481   -0.5351    0.0000 C   0  0  0  0  0  0  0  0  0  0  0  0
   -0.4581   -1.3251    0.0000 C   0  0  0  0  0  0  0  0  0  0  0  0
    0.8619   -0.5951    0.0000 C   0  0  1  0  0  0  0  0  0  0  0  0
    0.9834   -2.0902    0.0000 H   0  0  0  0  0  0  0  0  0  0  0  0
    0.8619    0.8849    0.0000 C   0  0  1  0  0  0  0  0  0  0  0  0
    1.1429    2.8448    0.0000 C   0  0  0  0  0  0  0  0  0  0  0  0
    0.8351    4.3129    0.0000 H   0  0  0  0  0  0  0  0  0  0  0  0
   -0.3564    2.7966    0.0000 H   0  0  0  0  0  0  0  0  0  0  0  0
    2.5352    3.4029    0.0000 O   0  0  0  0  0  0  0  0  0  0  0  0
    2.7481    4.8877    0.0000 S   0  0  0  0  0  0  0  0  0  0  0  0
    3.4559    6.2102    0.0000 O   0  0  0  0  0  0  0  0  0  0  0  0
    4.1734    4.4202    0.0000 O   0  0  0  0  0  0  0  0  0  0  0  0
    1.5686    5.8145    0.0000 N   0  0  0  0  0  0  0  0  0  0  0  0
    1.7815    7.2993    0.0000 H   0  0  0  0  0  0  0  0  0  0  0  0
    0.1763    5.2564    0.0000 H   0  0  0  0  0  0  0  0  0  0  0  0
   -0.3881    1.6949    0.0000 O   0  0  0  0  0  0  0  0  0  0  0  0
   -1.7081    0.9749    0.0000 C   0  0  0  0  0  0  0  0  0  0  0  0
   -2.1858    2.3968    0.0000 H   0  0  0  0  0  0  0  0  0  0  0  0
   -3.1915    0.7525    0.0000 H   0  0  0  0  0  0  0  0  0  0  0  0
    2.3019    1.3149    0.0000 O   0  0  0  0  0  0  0  0  0  0  0  0
    3.1719    0.1249    0.0000 C   0  0  0  0  0  0  0  0  0  0  0  0
    4.2792   -0.8870    0.0000 C   0  0  0  0  0  0  0  0  0  0  0  0
    5.7091   -0.4341    0.0000 H   0  0  0  0  0  0  0  0  0  0  0  0
    3.0904   -1.8018    0.0000 H   0  0  0  0  0  0  0  0  0  0  0  0
    4.9736   -2.2166    0.0000 H   0  0  0  0  0  0  0  0  0  0  0  0
    4.2888    1.1261    0.0000 C   0  0  0  0  0  0  0  0  0  0  0  0
    5.7144    0.6594    0.0000 H   0  0  0  0  0  0  0  0  0  0  0  0
    4.9959    2.4490    0.0000 H   0  0  0  0  0  0  0  0  0  0  0  0
    3.1088    2.0522    0.0000 H   0  0  0  0  0  0  0  0  0  0  0  0
    2.2619   -1.0951    0.0000 O   0  0  0  0  0  0  0  0  0  0  0  0
   -0.7981   -2.7651    0.0000 O   0  0  0  0  0  0  0  0  0  0  0  0
  1  2  1  0  0  0  0 
  1  3  1  0  0  0  0 
  1  4  1  0  0  0  0 
  1  5  1  0  0  0  0 
  5  6  1  0  0  0  0 
  6  7  1  0  0  0  0 
  6  8  1  0  0  0  0 
  6  9  1  0  0  0  0 
  5 10  1  0  0  0  0 
 10 11  1  0  0  0  0 
 11 12  2  0  0  0  0 
 12 13  1  0  0  0  0 
 13 14  1  6  0  0  0 
 13 15  1  0  0  0  0 
 15 16  1  0  0  0  0 
 16 17  1  0  0  0  0 
 16 18  1  0  0  0  0 
 16 19  1  0  0  0  0 
 19 20  1  0  0  0  0 
 20 21  2  0  0  0  0 
 20 22  2  0  0  0  0 
 20 23  1  0  0  0  0 
 23 24  1  0  0  0  0 
 23 25  1  0  0  0  0 
 15 26  1  1  0  0  0 
 26 27  1  0  0  0  0 
 11 27  1  0  0  0  0 
 27 28  1  0  0  0  0 
 27 29  1  0  0  0  0 
 15 30  1  0  0  0  0 
 30 31  1  0  0  0  0 
 31 32  1  0  0  0  0 
 32 33  1  0  0  0  0 
 32 34  1  0  0  0  0 
 32 35  1  0  0  0  0 
 31 36  1  0  0  0  0 
 36 37  1  0  0  0  0 
 36 38  1  0  0  0  0 
 36 39  1  0  0  0  0 
 31 40  1  0  0  0  0 
 13 40  1  0  0  0  0 
 12 41  1  0  0  0  0 
  5 41  1  0  0  0  0 
M  END
> <Rank>
19

> <Priority_score>
0.0128

> <Reaction_type>
alkyl dehydrogenation

> <Parent_ID>
13

> <Parent_InChI>
InChI=1S/C12H21NO8S/c1-10(2)18-7-5-16-12(6-17-22(13,14)15)9(8(7)19-10)20-11(3,4)21-12/h7-9H,5-6H2,1-4H3,(H2,13,14,15)

> <Parent_SMILES>
CC1(C)O[C@@H]2CO[C@@]3(COS(N)(=O)=O)OC(C)(C)O[C@H]3[C@@H]2O1

$$$$
Molecule 14
  CDK     0516241031

 25 27  0  0  0  0  0  0  0  0999 V2000
    2.9146   -0.7839    0.0000 C   0  0  0  0  0  0  0  0  0  0  0  0
    1.8000    0.2200    0.0000 C   0  0  0  0  0  0  0  0  0  0  0  0
    2.9146    1.2239    0.0000 C   0  0  0  0  0  0  0  0  0  0  0  0
    0.9200   -0.9900    0.0000 C   0  0  2  0  0  0  0  0  0  0  0  0
    1.3853   -2.4160    0.0000 C   0  0  0  0  0  0  0  0  0  0  0  0
    0.3830   -3.5320    0.0000 O   0  0  0  0  0  0  0  0  0  0  0  0
    2.8529   -2.7261    0.0000 O   0  0  0  0  0  0  0  0  0  0  0  0
   -0.5100   -0.5300    0.0000 N   0  0  0  0  0  0  0  0  0  0  0  0
   -2.0100   -0.5300    0.0000 C   0  0  0  0  0  0  0  0  0  0  0  0
   -3.0707   -1.5907    0.0000 O   0  0  0  0  0  0  0  0  0  0  0  0
   -2.0100    0.9700    0.0000 C   0  0  2  0  0  0  0  0  0  0  0  0
   -0.5100    0.9700    0.0000 C   0  0  1  0  0  0  0  0  0  0  0  0
    0.9200    1.4300    0.0000 S   0  0  0  0  0  0  0  0  0  0  0  0
   -3.0707    2.0307    0.0000 N   0  0  0  0  0  0  0  0  0  0  0  0
   -4.5195    1.6424    0.0000 C   0  0  0  0  0  0  0  0  0  0  0  0
   -4.9078    0.1935    0.0000 O   0  0  0  0  0  0  0  0  0  0  0  0
   -5.5802    2.7031    0.0000 C   0  0  1  0  0  0  0  0  0  0  0  0
   -7.0291    2.3149    0.0000 C   0  0  0  0  0  0  0  0  0  0  0  0
   -7.4102    0.8641    0.0000 C   0  0  0  0  0  0  0  0  0  0  0  0
   -8.8291    0.4613    0.0000 C   0  0  0  0  0  0  0  0  0  0  0  0
   -9.9442    1.5297    0.0000 C   0  0  0  0  0  0  0  0  0  0  0  0
   -9.5631    2.9805    0.0000 C   0  0  0  0  0  0  0  0  0  0  0  0
   -8.0669    3.3629    0.0000 C   0  0  0  0  0  0  0  0  0  0  0  0
  -11.3879    1.1224    0.0000 O   0  0  0  0  0  0  0  0  0  0  0  0
   -5.1920    4.1520    0.0000 N   0  0  0  0  0  0  0  0  0  0  0  0
  1  2  1  0  0  0  0 
  2  3  1  0  0  0  0 
  2  4  1  0  0  0  0 
  4  5  1  6  0  0  0 
  5  6  2  0  0  0  0 
  5  7  1  0  0  0  0 
  4  8  1  0  0  0  0 
  8  9  1  0  0  0  0 
  9 10  2  0  0  0  0 
  9 11  1  0  0  0  0 
 11 12  1  0  0  0  0 
 12  8  1  1  0  0  0 
 12 13  1  0  0  0  0 
  2 13  1  0  0  0  0 
 11 14  1  1  0  0  0 
 14 15  1  0  0  0  0 
 15 16  2  0  0  0  0 
 15 17  1  0  0  0  0 
 17 18  1  0  0  0  0 
 18 19  2  0  0  0  0 
 19 20  1  0  0  0  0 
 20 21  2  0  0  0  0 
 21 22  1  0  0  0  0 
 22 23  2  0  0  0  0 
 18 23  1  0  0  0  0 
 21 24  1  0  0  0  0 
 17 25  1  1  0  0  0 
M  END
> <SMILES>
CC1(C)S[C@@H]2[C@H](NC(=O)[C@H](N)c3ccc(O)cc3)C(=O)N2[C@H]1C(=O)O

$$$$
Molecule 14_metabolite 1
  CDK     0516241031

 64 67  0  0  0  0  0  0  0  0999 V2000
    2.9458    6.1504    0.0000 C   0  0  0  0  0  0  0  0  0  0  0  0
    4.3725    5.6871    0.0000 H   0  0  0  0  0  0  0  0  0  0  0  0
    1.3854    7.3692    0.0000 H   0  0  0  0  0  0  0  0  0  0  0  0
    3.6498    7.4750    0.0000 H   0  0  0  0  0  0  0  0  0  0  0  0
    1.8313    5.1466    0.0000 C   0  0  0  0  0  0  0  0  0  0  0  0
    2.9458    4.1427    0.0000 C   0  0  0  0  0  0  0  0  0  0  0  0
    4.3725    4.6060    0.0000 H   0  0  0  0  0  0  0  0  0  0  0  0
    3.6498    2.8182    0.0000 H   0  0  0  0  0  0  0  0  0  0  0  0
    1.7636    3.2194    0.0000 H   0  0  0  0  0  0  0  0  0  0  0  0
    0.9513    6.3566    0.0000 C   0  0  2  0  0  0  0  0  0  0  0  0
    0.3436    7.7280    0.0000 H   0  0  0  0  0  0  0  0  0  0  0  0
    2.6666    7.3454    0.0000 C   0  0  0  0  0  0  0  0  0  0  0  0
    3.9652    6.5946    0.0000 O   0  0  0  0  0  0  0  0  0  0  0  0
    2.6676    8.8454    0.0000 O   0  0  0  0  0  0  0  0  0  0  0  0
    3.9672    9.5946    0.0000 H   0  0  0  0  0  0  0  0  0  0  0  0
   -0.4787    5.8966    0.0000 N   0  0  0  0  0  0  0  0  0  0  0  0
   -1.9787    5.8966    0.0000 C   0  0  0  0  0  0  0  0  0  0  0  0
   -3.0394    6.9572    0.0000 O   0  0  0  0  0  0  0  0  0  0  0  0
   -1.9787    4.3966    0.0000 C   0  0  2  0  0  0  0  0  0  0  0  0
   -1.9787    2.8966    0.0000 H   0  0  0  0  0  0  0  0  0  0  0  0
   -0.4787    4.3966    0.0000 C   0  0  1  0  0  0  0  0  0  0  0  0
   -0.7112    2.9147    0.0000 H   0  0  0  0  0  0  0  0  0  0  0  0
    0.9513    3.9366    0.0000 S   0  0  0  0  0  0  0  0  0  0  0  0
   -3.4787    4.3966    0.0000 N   0  0  0  0  0  0  0  0  0  0  0  0
   -4.2287    5.6956    0.0000 H   0  0  0  0  0  0  0  0  0  0  0  0
   -4.2287    3.0975    0.0000 C   0  0  0  0  0  0  0  0  0  0  0  0
   -3.4787    1.7985    0.0000 O   0  0  0  0  0  0  0  0  0  0  0  0
   -5.7287    3.0975    0.0000 C   0  0  1  0  0  0  0  0  0  0  0  0
   -7.1383    2.5845    0.0000 H   0  0  0  0  0  0  0  0  0  0  0  0
   -5.3016    0.6749    0.0000 C   0  0  0  0  0  0  0  0  0  0  0  0
   -3.8895    0.1688    0.0000 C   0  0  0  0  0  0  0  0  0  0  0  0
   -2.7500    1.1443    0.0000 H   0  0  0  0  0  0  0  0  0  0  0  0
   -3.6120   -1.2798    0.0000 C   0  0  0  0  0  0  0  0  0  0  0  0
   -2.1934   -1.7672    0.0000 H   0  0  0  0  0  0  0  0  0  0  0  0
   -4.7735   -2.2976    0.0000 C   0  0  0  0  0  0  0  0  0  0  0  0
   -6.1855   -1.7915    0.0000 C   0  0  0  0  0  0  0  0  0  0  0  0
   -7.3378   -2.7518    0.0000 H   0  0  0  0  0  0  0  0  0  0  0  0
   -6.4361   -0.2676    0.0000 C   0  0  0  0  0  0  0  0  0  0  0  0
   -7.8413    0.2570    0.0000 H   0  0  0  0  0  0  0  0  0  0  0  0
   -4.4936   -3.7712    0.0000 O   0  0  0  0  0  0  0  0  0  0  0  0
   -5.6299   -4.7505    0.0000 C   0  0  0  0  0  0  0  0  0  0  0  0
   -6.3999   -3.4632    0.0000 H   0  0  0  0  0  0  0  0  0  0  0  0
   -4.4781   -5.6957    0.0000 C   0  0  0  0  0  0  0  0  0  0  0  0
   -3.0635   -6.1945    0.0000 H   0  0  0  0  0  0  0  0  0  0  0  0
   -4.7281   -7.1982    0.0000 C   0  0  0  0  0  0  0  0  0  0  0  0
   -4.4575   -8.6736    0.0000 H   0  0  0  0  0  0  0  0  0  0  0  0
   -6.1403   -7.7210    0.0000 C   0  0  0  0  0  0  0  0  0  0  0  0
   -7.2806   -8.6955    0.0000 H   0  0  0  0  0  0  0  0  0  0  0  0
   -7.2920   -6.7757    0.0000 C   0  0  0  0  0  0  0  0  0  0  0  0
   -8.7070   -6.2777    0.0000 H   0  0  0  0  0  0  0  0  0  0  0  0
   -8.2635   -8.5010    0.0000 C   0  0  0  0  0  0  0  0  0  0  0  0
   -7.4996   -9.7919    0.0000 O   0  0  0  0  0  0  0  0  0  0  0  0
   -9.7634   -8.5171    0.0000 O   0  0  0  0  0  0  0  0  0  0  0  0
  -10.4994   -9.8241    0.0000 H   0  0  0  0  0  0  0  0  0  0  0  0
   -7.0470   -5.2950    0.0000 O   0  0  0  0  0  0  0  0  0  0  0  0
   -5.3809   -9.0145    0.0000 O   0  0  0  0  0  0  0  0  0  0  0  0
   -6.1215  -10.3190    0.0000 H   0  0  0  0  0  0  0  0  0  0  0  0
   -3.2281   -7.1858    0.0000 O   0  0  0  0  0  0  0  0  0  0  0  0
   -2.4674   -8.4786    0.0000 H   0  0  0  0  0  0  0  0  0  0  0  0
   -3.7417   -4.3889    0.0000 O   0  0  0  0  0  0  0  0  0  0  0  0
   -2.2418   -4.3732    0.0000 H   0  0  0  0  0  0  0  0  0  0  0  0
   -6.4787    4.3966    0.0000 N   0  0  0  0  0  0  0  0  0  0  0  0
   -7.9787    4.3966    0.0000 H   0  0  0  0  0  0  0  0  0  0  0  0
   -5.7287    5.6956    0.0000 H   0  0  0  0  0  0  0  0  0  0  0  0
  1  2  1  0  0  0  0 
  1  3  1  0  0  0  0 
  1  4  1  0  0  0  0 
  1  5  1  0  0  0  0 
  5  6  1  0  0  0  0 
  6  7  1  0  0  0  0 
  6  8  1  0  0  0  0 
  6  9  1  0  0  0  0 
  5 10  1  0  0  0  0 
 10 11  1  6  0  0  0 
 10 12  1  1  0  0  0 
 12 13  2  0  0  0  0 
 12 14  1  0  0  0  0 
 14 15  1  0  0  0  0 
 10 16  1  0  0  0  0 
 16 17  1  0  0  0  0 
 17 18  2  0  0  0  0 
 17 19  1  0  0  0  0 
 19 20  1  1  0  0  0 
 19 21  1  0  0  0  0 
 16 21  1  0  0  0  0 
 21 22  1  1  0  0  0 
 21 23  1  0  0  0  0 
  5 23  1  0  0  0  0 
 19 24  1  6  0  0  0 
 24 25  1  0  0  0  0 
 24 26  1  0  0  0  0 
 26 27  2  0  0  0  0 
 26 28  1  0  0  0  0 
 28 29  1  6  0  0  0 
 28 30  1  0  0  0  0 
 30 31  2  0  0  0  0 
 31 32  1  0  0  0  0 
 31 33  1  0  0  0  0 
 33 34  1  0  0  0  0 
 33 35  2  0  0  0  0 
 35 36  1  0  0  0  0 
 36 37  1  0  0  0  0 
 36 38  2  0  0  0  0 
 30 38  1  0  0  0  0 
 38 39  1  0  0  0  0 
 35 40  1  0  0  0  0 
 40 41  1  0  0  0  0 
 41 42  1  0  0  0  0 
 41 43  1  0  0  0  0 
 43 44  1  0  0  0  0 
 43 45  1  0  0  0  0 
 45 46  1  0  0  0  0 
 45 47  1  0  0  0  0 
 47 48  1  0  0  0  0 
 47 49  1  0  0  0  0 
 49 50  1  0  0  0  0 
 49 51  1  0  0  0  0 
 51 52  2  0  0  0  0 
 51 53  1  0  0  0  0 
 53 54  1  0  0  0  0 
 49 55  1  0  0  0  0 
 41 55  1  0  0  0  0 
 47 56  1  0  0  0  0 
 56 57  1  0  0  0  0 
 45 58  1  0  0  0  0 
 58 59  1  0  0  0  0 
 43 60  1  0  0  0  0 
 60 61  1  0  0  0  0 
 28 62  1  1  0  0  0 
 62 63  1  0  0  0  0 
 62 64  1  0  0  0  0 
M  END
> <Rank>
1

> <Priority_score>
0.984

> <Reaction_type>
O-glucuronidation_(aromatic_hydroxyl)

> <Parent_ID>
14

> <Parent_InChI>
InChI=1S/C16H19N3O5S/c1-16(2)11(15(23)24)19-13(22)10(14(19)25-16)18-12(21)9(17)7-3-5-8(20)6-4-7/h3-6,9-11,14,20H,17H2,1-2H3,(H,18,21)(H,23,24)

> <Parent_SMILES>
CC1(C)S[C@@H]2[C@H](NC(=O)[C@H](N)c3ccc(O)cc3)C(=O)N2[C@H]1C(=O)O

$$$$
Molecule 14_metabolite 2
  CDK     0516241031

 48 50  0  0  0  0  0  0  0  0999 V2000
    1.8439    4.6448    0.0000 C   0  0  0  0  0  0  0  0  0  0  0  0
    3.2705    4.1815    0.0000 H   0  0  0  0  0  0  0  0  0  0  0  0
    0.2834    5.8635    0.0000 H   0  0  0  0  0  0  0  0  0  0  0  0
    2.9984    6.8170    0.0000 H   0  0  0  0  0  0  0  0  0  0  0  0
    0.7293    3.6409    0.0000 C   0  0  0  0  0  0  0  0  0  0  0  0
    1.8439    2.6370    0.0000 C   0  0  0  0  0  0  0  0  0  0  0  0
    3.2705    3.1003    0.0000 H   0  0  0  0  0  0  0  0  0  0  0  0
    2.5479    1.3125    0.0000 H   0  0  0  0  0  0  0  0  0  0  0  0
    0.6617    1.7137    0.0000 H   0  0  0  0  0  0  0  0  0  0  0  0
   -0.1507    4.8509    0.0000 C   0  0  2  0  0  0  0  0  0  0  0  0
   -0.7583    6.2223    0.0000 H   0  0  0  0  0  0  0  0  0  0  0  0
    1.9806    6.0795    0.0000 C   0  0  0  0  0  0  0  0  0  0  0  0
    3.2791    5.3286    0.0000 O   0  0  0  0  0  0  0  0  0  0  0  0
    1.9816    7.5795    0.0000 O   0  0  0  0  0  0  0  0  0  0  0  0
    3.2811    8.3286    0.0000 H   0  0  0  0  0  0  0  0  0  0  0  0
   -1.5807    4.3909    0.0000 N   0  0  0  0  0  0  0  0  0  0  0  0
   -3.0807    4.3909    0.0000 C   0  0  0  0  0  0  0  0  0  0  0  0
   -4.1413    5.4515    0.0000 O   0  0  0  0  0  0  0  0  0  0  0  0
   -3.0807    2.8909    0.0000 C   0  0  2  0  0  0  0  0  0  0  0  0
   -3.0807    1.3909    0.0000 H   0  0  0  0  0  0  0  0  0  0  0  0
   -1.5807    2.8909    0.0000 C   0  0  1  0  0  0  0  0  0  0  0  0
   -1.8131    1.4090    0.0000 H   0  0  0  0  0  0  0  0  0  0  0  0
   -0.1507    2.4309    0.0000 S   0  0  0  0  0  0  0  0  0  0  0  0
   -4.5807    2.8909    0.0000 N   0  0  0  0  0  0  0  0  0  0  0  0
   -5.3307    4.1899    0.0000 H   0  0  0  0  0  0  0  0  0  0  0  0
   -5.3307    1.5918    0.0000 C   0  0  0  0  0  0  0  0  0  0  0  0
   -4.5807    0.2928    0.0000 O   0  0  0  0  0  0  0  0  0  0  0  0
   -6.8307    1.5918    0.0000 C   0  0  1  0  0  0  0  0  0  0  0  0
   -8.2402    1.0788    0.0000 H   0  0  0  0  0  0  0  0  0  0  0  0
   -6.4035   -0.8308    0.0000 C   0  0  0  0  0  0  0  0  0  0  0  0
   -4.9914   -1.3369    0.0000 C   0  0  0  0  0  0  0  0  0  0  0  0
   -3.8519   -0.3614    0.0000 H   0  0  0  0  0  0  0  0  0  0  0  0
   -4.7139   -2.7854    0.0000 C   0  0  0  0  0  0  0  0  0  0  0  0
   -3.2953   -3.2729    0.0000 H   0  0  0  0  0  0  0  0  0  0  0  0
   -5.8754   -3.8032    0.0000 C   0  0  0  0  0  0  0  0  0  0  0  0
   -7.2875   -3.2972    0.0000 C   0  0  0  0  0  0  0  0  0  0  0  0
   -8.4397   -4.2575    0.0000 H   0  0  0  0  0  0  0  0  0  0  0  0
   -7.5380   -1.7733    0.0000 C   0  0  0  0  0  0  0  0  0  0  0  0
   -8.9433   -1.2486    0.0000 H   0  0  0  0  0  0  0  0  0  0  0  0
   -5.5955   -5.2769    0.0000 O   0  0  0  0  0  0  0  0  0  0  0  0
   -6.7318   -6.2561    0.0000 S   0  0  0  0  0  0  0  0  0  0  0  0
   -7.4988   -4.9671    0.0000 O   0  0  0  0  0  0  0  0  0  0  0  0
   -8.1344   -6.7877    0.0000 O   0  0  0  0  0  0  0  0  0  0  0  0
   -6.4519   -7.7298    0.0000 O   0  0  0  0  0  0  0  0  0  0  0  0
   -7.5881   -8.7090    0.0000 H   0  0  0  0  0  0  0  0  0  0  0  0
   -7.5807    2.8909    0.0000 N   0  0  0  0  0  0  0  0  0  0  0  0
   -9.0807    2.8909    0.0000 H   0  0  0  0  0  0  0  0  0  0  0  0
   -6.8307    4.1899    0.0000 H   0  0  0  0  0  0  0  0  0  0  0  0
  1  2  1  0  0  0  0 
  1  3  1  0  0  0  0 
  1  4  1  0  0  0  0 
  1  5  1  0  0  0  0 
  5  6  1  0  0  0  0 
  6  7  1  0  0  0  0 
  6  8  1  0  0  0  0 
  6  9  1  0  0  0  0 
  5 10  1  0  0  0  0 
 10 11  1  6  0  0  0 
 10 12  1  1  0  0  0 
 12 13  2  0  0  0  0 
 12 14  1  0  0  0  0 
 14 15  1  0  0  0  0 
 10 16  1  0  0  0  0 
 16 17  1  0  0  0  0 
 17 18  2  0  0  0  0 
 17 19  1  0  0  0  0 
 19 20  1  1  0  0  0 
 19 21  1  0  0  0  0 
 16 21  1  0  0  0  0 
 21 22  1  1  0  0  0 
 21 23  1  0  0  0  0 
  5 23  1  0  0  0  0 
 19 24  1  6  0  0  0 
 24 25  1  0  0  0  0 
 24 26  1  0  0  0  0 
 26 27  2  0  0  0  0 
 26 28  1  0  0  0  0 
 28 29  1  6  0  0  0 
 28 30  1  0  0  0  0 
 30 31  2  0  0  0  0 
 31 32  1  0  0  0  0 
 31 33  1  0  0  0  0 
 33 34  1  0  0  0  0 
 33 35  2  0  0  0  0 
 35 36  1  0  0  0  0 
 36 37  1  0  0  0  0 
 36 38  2  0  0  0  0 
 30 38  1  0  0  0  0 
 38 39  1  0  0  0  0 
 35 40  1  0  0  0  0 
 40 41  1  0  0  0  0 
 41 42  2  0  0  0  0 
 41 43  2  0  0  0  0 
 41 44  1  0  0  0  0 
 44 45  1  0  0  0  0 
 28 46  1  1  0  0  0 
 46 47  1  0  0  0  0 
 46 48  1  0  0  0  0 
M  END
> <Rank>
2

> <Priority_score>
0.956

> <Reaction_type>
sulfation_(aromatic_hydroxyl)

> <Parent_ID>
14

> <Parent_InChI>
InChI=1S/C16H19N3O5S/c1-16(2)11(15(23)24)19-13(22)10(14(19)25-16)18-12(21)9(17)7-3-5-8(20)6-4-7/h3-6,9-11,14,20H,17H2,1-2H3,(H,18,21)(H,23,24)

> <Parent_SMILES>
CC1(C)S[C@@H]2[C@H](NC(=O)[C@H](N)c3ccc(O)cc3)C(=O)N2[C@H]1C(=O)O

$$$$
Molecule 14_metabolite 3
  CDK     0516241031

 64 67  0  0  0  0  0  0  0  0999 V2000
   -5.9152   -5.0508    0.0000 C   0  0  0  0  0  0  0  0  0  0  0  0
   -7.3412   -5.5160    0.0000 H   0  0  0  0  0  0  0  0  0  0  0  0
   -4.4160   -5.1014    0.0000 H   0  0  0  0  0  0  0  0  0  0  0  0
   -5.5026   -7.9617    0.0000 H   0  0  0  0  0  0  0  0  0  0  0  0
   -5.6050   -3.5832    0.0000 C   0  0  0  0  0  0  0  0  0  0  0  0
   -3.7210   -4.1923    0.0000 C   0  0  0  0  0  0  0  0  0  0  0  0
   -3.4070   -5.6591    0.0000 H   0  0  0  0  0  0  0  0  0  0  0  0
   -2.2220   -4.1377    0.0000 H   0  0  0  0  0  0  0  0  0  0  0  0
   -3.5145   -2.7066    0.0000 H   0  0  0  0  0  0  0  0  0  0  0  0
   -7.0931   -3.4281    0.0000 C   0  0  2  0  0  0  0  0  0  0  0  0
   -8.5844   -3.5895    0.0000 H   0  0  0  0  0  0  0  0  0  0  0  0
   -7.5979   -6.3244    0.0000 C   0  0  0  0  0  0  0  0  0  0  0  0
   -6.4469   -7.2864    0.0000 O   0  0  0  0  0  0  0  0  0  0  0  0
   -9.0064   -6.8403    0.0000 O   0  0  0  0  0  0  0  0  0  0  0  0
   -9.2640   -8.3180    0.0000 C   0  0  0  0  0  0  0  0  0  0  0  0
   -7.7640   -8.3185    0.0000 H   0  0  0  0  0  0  0  0  0  0  0  0
  -10.6663   -7.8144    0.0000 C   0  0  0  0  0  0  0  0  0  0  0  0
  -11.8202   -6.8560    0.0000 H   0  0  0  0  0  0  0  0  0  0  0  0
  -11.8277   -8.7998    0.0000 C   0  0  0  0  0  0  0  0  0  0  0  0
  -13.2329   -9.3245    0.0000 H   0  0  0  0  0  0  0  0  0  0  0  0
  -11.5518  -10.2802    0.0000 C   0  0  0  0  0  0  0  0  0  0  0  0
  -11.8033  -11.7590    0.0000 H   0  0  0  0  0  0  0  0  0  0  0  0
  -10.1495  -10.7838    0.0000 C   0  0  0  0  0  0  0  0  0  0  0  0
   -8.9961  -11.7428    0.0000 H   0  0  0  0  0  0  0  0  0  0  0  0
  -11.1320  -12.5029    0.0000 C   0  0  0  0  0  0  0  0  0  0  0  0
  -12.6320  -12.5094    0.0000 O   0  0  0  0  0  0  0  0  0  0  0  0
  -10.3763  -13.7986    0.0000 O   0  0  0  0  0  0  0  0  0  0  0  0
  -11.1206  -15.1009    0.0000 H   0  0  0  0  0  0  0  0  0  0  0  0
   -9.0043   -9.8138    0.0000 O   0  0  0  0  0  0  0  0  0  0  0  0
  -13.0518  -10.2920    0.0000 O   0  0  0  0  0  0  0  0  0  0  0  0
  -13.7915  -11.5970    0.0000 H   0  0  0  0  0  0  0  0  0  0  0  0
  -12.5866   -7.5060    0.0000 O   0  0  0  0  0  0  0  0  0  0  0  0
  -14.0866   -7.5163    0.0000 H   0  0  0  0  0  0  0  0  0  0  0  0
   -9.9224   -6.5118    0.0000 O   0  0  0  0  0  0  0  0  0  0  0  0
  -10.6784   -5.2163    0.0000 H   0  0  0  0  0  0  0  0  0  0  0  0
   -7.4117   -1.9601    0.0000 N   0  0  0  0  0  0  0  0  0  0  0  0
   -8.1634   -0.6621    0.0000 C   0  0  0  0  0  0  0  0  0  0  0  0
   -9.6128   -0.2757    0.0000 O   0  0  0  0  0  0  0  0  0  0  0  0
   -6.8653    0.0897    0.0000 C   0  0  2  0  0  0  0  0  0  0  0  0
   -5.5673    0.8414    0.0000 H   0  0  0  0  0  0  0  0  0  0  0  0
   -6.1136   -1.2084    0.0000 C   0  0  1  0  0  0  0  0  0  0  0  0
   -4.9478   -0.2646    0.0000 H   0  0  0  0  0  0  0  0  0  0  0  0
   -4.9989   -2.2153    0.0000 S   0  0  0  0  0  0  0  0  0  0  0  0
   -7.6171    1.3877    0.0000 N   0  0  0  0  0  0  0  0  0  0  0  0
   -9.1171    1.3857    0.0000 H   0  0  0  0  0  0  0  0  0  0  0  0
   -6.8688    2.6877    0.0000 C   0  0  0  0  0  0  0  0  0  0  0  0
   -5.3688    2.6897    0.0000 O   0  0  0  0  0  0  0  0  0  0  0  0
   -7.6205    3.9858    0.0000 C   0  0  1  0  0  0  0  0  0  0  0  0
   -7.8829    5.4626    0.0000 H   0  0  0  0  0  0  0  0  0  0  0  0
   -5.3099    4.8302    0.0000 C   0  0  0  0  0  0  0  0  0  0  0  0
   -4.1644    3.8619    0.0000 C   0  0  0  0  0  0  0  0  0  0  0  0
   -4.4374    2.3869    0.0000 H   0  0  0  0  0  0  0  0  0  0  0  0
   -2.7717    4.3476    0.0000 C   0  0  0  0  0  0  0  0  0  0  0  0
   -1.6390    3.3643    0.0000 H   0  0  0  0  0  0  0  0  0  0  0  0
   -2.4730    5.8628    0.0000 C   0  0  0  0  0  0  0  0  0  0  0  0
   -3.6186    6.8311    0.0000 C   0  0  0  0  0  0  0  0  0  0  0  0
   -3.3650    8.3096    0.0000 H   0  0  0  0  0  0  0  0  0  0  0  0
   -5.0629    6.2843    0.0000 C   0  0  0  0  0  0  0  0  0  0  0  0
   -6.2211    7.2374    0.0000 H   0  0  0  0  0  0  0  0  0  0  0  0
   -1.0575    6.3591    0.0000 O   0  0  0  0  0  0  0  0  0  0  0  0
   -0.7796    7.8331    0.0000 H   0  0  0  0  0  0  0  0  0  0  0  0
   -9.1205    3.9838    0.0000 N   0  0  0  0  0  0  0  0  0  0  0  0
   -9.8722    5.2818    0.0000 H   0  0  0  0  0  0  0  0  0  0  0  0
   -9.8688    2.6838    0.0000 H   0  0  0  0  0  0  0  0  0  0  0  0
  1  2  1  0  0  0  0 
  1  3  1  0  0  0  0 
  1  4  1  0  0  0  0 
  1  5  1  0  0  0  0 
  5  6  1  0  0  0  0 
  6  7  1  0  0  0  0 
  6  8  1  0  0  0  0 
  6  9  1  0  0  0  0 
  5 10  1  0  0  0  0 
 10 11  1  1  0  0  0 
 10 12  1  6  0  0  0 
 12 13  2  0  0  0  0 
 12 14  1  0  0  0  0 
 14 15  1  0  0  0  0 
 15 16  1  0  0  0  0 
 15 17  1  0  0  0  0 
 17 18  1  0  0  0  0 
 17 19  1  0  0  0  0 
 19 20  1  0  0  0  0 
 19 21  1  0  0  0  0 
 21 22  1  0  0  0  0 
 21 23  1  0  0  0  0 
 23 24  1  0  0  0  0 
 23 25  1  0  0  0  0 
 25 26  2  0  0  0  0 
 25 27  1  0  0  0  0 
 27 28  1  0  0  0  0 
 23 29  1  0  0  0  0 
 15 29  1  0  0  0  0 
 21 30  1  0  0  0  0 
 30 31  1  0  0  0  0 
 19 32  1  0  0  0  0 
 32 33  1  0  0  0  0 
 17 34  1  0  0  0  0 
 34 35  1  0  0  0  0 
 10 36  1  0  0  0  0 
 36 37  1  0  0  0  0 
 37 38  2  0  0  0  0 
 37 39  1  0  0  0  0 
 39 40  1  6  0  0  0 
 39 41  1  0  0  0  0 
 36 41  1  0  0  0  0 
 41 42  1  6  0  0  0 
 41 43  1  0  0  0  0 
  5 43  1  0  0  0  0 
 39 44  1  1  0  0  0 
 44 45  1  0  0  0  0 
 44 46  1  0  0  0  0 
 46 47  2  0  0  0  0 
 46 48  1  0  0  0  0 
 48 49  1  1  0  0  0 
 48 50  1  0  0  0  0 
 50 51  2  0  0  0  0 
 51 52  1  0  0  0  0 
 51 53  1  0  0  0  0 
 53 54  1  0  0  0  0 
 53 55  2  0  0  0  0 
 55 56  1  0  0  0  0 
 56 57  1  0  0  0  0 
 56 58  2  0  0  0  0 
 50 58  1  0  0  0  0 
 58 59  1  0  0  0  0 
 55 60  1  0  0  0  0 
 60 61  1  0  0  0  0 
 48 62  1  6  0  0  0 
 62 63  1  0  0  0  0 
 62 64  1  0  0  0  0 
M  END
> <Rank>
3

> <Priority_score>
0.8705492390716386

> <Reaction_type>
O-glucuronidation_(aliphatic_carboxyl)

> <Parent_ID>
14

> <Parent_InChI>
InChI=1S/C16H19N3O5S/c1-16(2)11(15(23)24)19-13(22)10(14(19)25-16)18-12(21)9(17)7-3-5-8(20)6-4-7/h3-6,9-11,14,20H,17H2,1-2H3,(H,18,21)(H,23,24)

> <Parent_SMILES>
CC1(C)S[C@@H]2[C@H](NC(=O)[C@H](N)c3ccc(O)cc3)C(=O)N2[C@H]1C(=O)O

$$$$
Molecule 14_metabolite 4
  CDK     0516241031

 49 51  0  0  0  0  0  0  0  0999 V2000
   -9.6514    6.5091    0.0000 C   0  0  0  0  0  0  0  0  0  0  0  0
   -9.6514    8.0091    0.0000 H   0  0  0  0  0  0  0  0  0  0  0  0
  -11.1286    6.7696    0.0000 H   0  0  0  0  0  0  0  0  0  0  0  0
  -10.1644    5.0996    0.0000 H   0  0  0  0  0  0  0  0  0  0  0  0
   -8.3524    5.7591    0.0000 C   0  0  0  0  0  0  0  0  0  0  0  0
   -8.3524    4.2591    0.0000 O   0  0  0  0  0  0  0  0  0  0  0  0
   -7.0533    6.5091    0.0000 N   0  0  0  0  0  0  0  0  0  0  0  0
   -7.0533    8.0091    0.0000 H   0  0  0  0  0  0  0  0  0  0  0  0
   -5.7543    5.7591    0.0000 C   0  0  2  0  0  0  0  0  0  0  0  0
   -4.2771    5.4987    0.0000 H   0  0  0  0  0  0  0  0  0  0  0  0
   -4.9129    8.0708    0.0000 C   0  0  0  0  0  0  0  0  0  0  0  0
   -5.8828    9.2151    0.0000 C   0  0  0  0  0  0  0  0  0  0  0  0
   -7.3573    8.9401    0.0000 H   0  0  0  0  0  0  0  0  0  0  0  0
   -5.3988   10.6084    0.0000 C   0  0  0  0  0  0  0  0  0  0  0  0
   -6.3836   11.7398    0.0000 H   0  0  0  0  0  0  0  0  0  0  0  0
   -3.8840   10.9090    0.0000 C   0  0  0  0  0  0  0  0  0  0  0  0
   -2.9142    9.7647    0.0000 C   0  0  0  0  0  0  0  0  0  0  0  0
   -1.4361   10.0203    0.0000 H   0  0  0  0  0  0  0  0  0  0  0  0
   -3.4592    8.3197    0.0000 C   0  0  0  0  0  0  0  0  0  0  0  0
   -2.5045    7.1628    0.0000 H   0  0  0  0  0  0  0  0  0  0  0  0
   -3.3896   12.3252    0.0000 O   0  0  0  0  0  0  0  0  0  0  0  0
   -4.3689   13.4615    0.0000 H   0  0  0  0  0  0  0  0  0  0  0  0
   -5.7543    4.2591    0.0000 C   0  0  0  0  0  0  0  0  0  0  0  0
   -7.0533    3.5091    0.0000 O   0  0  0  0  0  0  0  0  0  0  0  0
   -4.4553    3.5091    0.0000 N   0  0  0  0  0  0  0  0  0  0  0  0
   -3.1562    4.2591    0.0000 H   0  0  0  0  0  0  0  0  0  0  0  0
   -4.4553    2.0091    0.0000 C   0  0  2  0  0  0  0  0  0  0  0  0
   -5.9553    2.0091    0.0000 H   0  0  0  0  0  0  0  0  0  0  0  0
   -4.4553    0.5091    0.0000 C   0  0  0  0  0  0  0  0  0  0  0  0
   -5.5159   -0.5515    0.0000 O   0  0  0  0  0  0  0  0  0  0  0  0
   -2.9553    0.5091    0.0000 N   0  0  0  0  0  0  0  0  0  0  0  0
   -1.5253    0.0491    0.0000 C   0  0  1  0  0  0  0  0  0  0  0  0
   -2.1329   -1.3223    0.0000 H   0  0  0  0  0  0  0  0  0  0  0  0
   -0.7744   -1.2494    0.0000 C   0  0  0  0  0  0  0  0  0  0  0  0
    0.7256   -1.2484    0.0000 O   0  0  0  0  0  0  0  0  0  0  0  0
   -1.5236   -2.5489    0.0000 O   0  0  0  0  0  0  0  0  0  0  0  0
   -0.7727   -3.8475    0.0000 H   0  0  0  0  0  0  0  0  0  0  0  0
   -0.6453    1.2591    0.0000 C   0  0  0  0  0  0  0  0  0  0  0  0
    1.5393   -0.7085    0.0000 C   0  0  0  0  0  0  0  0  0  0  0  0
    1.0274   -3.1146    0.0000 H   0  0  0  0  0  0  0  0  0  0  0  0
    3.8200   -1.6304    0.0000 H   0  0  0  0  0  0  0  0  0  0  0  0
    2.3343    0.5635    0.0000 H   0  0  0  0  0  0  0  0  0  0  0  0
    0.8259    2.5842    0.0000 C   0  0  0  0  0  0  0  0  0  0  0  0
    2.2526    2.1209    0.0000 H   0  0  0  0  0  0  0  0  0  0  0  0
    1.5299    3.9088    0.0000 H   0  0  0  0  0  0  0  0  0  0  0  0
   -0.3562    3.5075    0.0000 H   0  0  0  0  0  0  0  0  0  0  0  0
   -1.5253    2.4691    0.0000 S   0  0  0  0  0  0  0  0  0  0  0  0
   -2.9553    2.0091    0.0000 C   0  0  2  0  0  0  0  0  0  0  0  0
   -3.1877    3.4910    0.0000 H   0  0  0  0  0  0  0  0  0  0  0  0
  1  2  1  0  0  0  0 
  1  3  1  0  0  0  0 
  1  4  1  0  0  0  0 
  1  5  1  0  0  0  0 
  5  6  2  0  0  0  0 
  5  7  1  0  0  0  0 
  7  8  1  0  0  0  0 
  7  9  1  0  0  0  0 
  9 10  1  1  0  0  0 
  9 11  1  6  0  0  0 
 11 12  2  0  0  0  0 
 12 13  1  0  0  0  0 
 12 14  1  0  0  0  0 
 14 15  1  0  0  0  0 
 14 16  2  0  0  0  0 
 16 17  1  0  0  0  0 
 17 18  1  0  0  0  0 
 17 19  2  0  0  0  0 
 11 19  1  0  0  0  0 
 19 20  1  0  0  0  0 
 16 21  1  0  0  0  0 
 21 22  1  0  0  0  0 
  9 23  1  0  0  0  0 
 23 24  2  0  0  0  0 
 23 25  1  0  0  0  0 
 25 26  1  0  0  0  0 
 27 25  1  1  0  0  0 
 27 28  1  6  0  0  0 
 27 29  1  0  0  0  0 
 29 30  2  0  0  0  0 
 29 31  1  0  0  0  0 
 31 32  1  0  0  0  0 
 32 33  1  1  0  0  0 
 32 34  1  6  0  0  0 
 34 35  2  0  0  0  0 
 34 36  1  0  0  0  0 
 36 37  1  0  0  0  0 
 32 38  1  0  0  0  0 
 38 39  1  0  0  0  0 
 39 40  1  0  0  0  0 
 39 41  1  0  0  0  0 
 39 42  1  0  0  0  0 
 38 43  1  0  0  0  0 
 43 44  1  0  0  0  0 
 43 45  1  0  0  0  0 
 43 46  1  0  0  0  0 
 38 47  1  0  0  0  0 
 47 48  1  0  0  0  0 
 27 48  1  0  0  0  0 
 31 48  1  0  0  0  0 
 48 49  1  6  0  0  0 
M  END
> <Rank>
4

> <Priority_score>
0.792

> <Reaction_type>
N-acetylation_(aliphatic_NH2)

> <Parent_ID>
14

> <Parent_InChI>
InChI=1S/C16H19N3O5S/c1-16(2)11(15(23)24)19-13(22)10(14(19)25-16)18-12(21)9(17)7-3-5-8(20)6-4-7/h3-6,9-11,14,20H,17H2,1-2H3,(H,18,21)(H,23,24)

> <Parent_SMILES>
CC1(C)S[C@@H]2[C@H](NC(=O)[C@H](N)c3ccc(O)cc3)C(=O)N2[C@H]1C(=O)O

$$$$
Molecule 14_metabolite 5
  CDK     0516241031

 21 21  0  0  0  0  0  0  0  0999 V2000
    3.3818    0.0304    0.0000 C   0  0  0  0  0  0  0  0  0  0  0  0
    3.3621   -1.4694    0.0000 H   0  0  0  0  0  0  0  0  0  0  0  0
    2.1118    0.7804    0.0000 C   0  0  0  0  0  0  0  0  0  0  0  0
    2.1118    2.2804    0.0000 C   0  0  0  0  0  0  0  0  0  0  0  0
    0.8091    3.0240    0.0000 H   0  0  0  0  0  0  0  0  0  0  0  0
    3.3818    3.0304    0.0000 C   0  0  0  0  0  0  0  0  0  0  0  0
    3.3621    4.5303    0.0000 H   0  0  0  0  0  0  0  0  0  0  0  0
    4.7318    2.2804    0.0000 C   0  0  0  0  0  0  0  0  0  0  0  0
    4.7318    0.7804    0.0000 C   0  0  0  0  0  0  0  0  0  0  0  0
    6.0246    0.0197    0.0000 H   0  0  0  0  0  0  0  0  0  0  0  0
    6.0246    3.0411    0.0000 O   0  0  0  0  0  0  0  0  0  0  0  0
    7.3298    2.3019    0.0000 H   0  0  0  0  0  0  0  0  0  0  0  0
   -0.0246   -0.4391    0.0000 C   0  0  2  0  0  0  0  0  0  0  0  0
   -0.9944   -1.5834    0.0000 H   0  0  0  0  0  0  0  0  0  0  0  0
   -1.3199    0.3173    0.0000 C   0  0  0  0  0  0  0  0  0  0  0  0
   -1.3126    1.8173    0.0000 O   0  0  0  0  0  0  0  0  0  0  0  0
   -2.6227   -0.4263    0.0000 O   0  0  0  0  0  0  0  0  0  0  0  0
   -3.9180    0.3301    0.0000 H   0  0  0  0  0  0  0  0  0  0  0  0
    0.9339   -1.5929    0.0000 N   0  0  0  0  0  0  0  0  0  0  0  0
    0.4139   -2.9999    0.0000 H   0  0  0  0  0  0  0  0  0  0  0  0
    2.4124   -1.3397    0.0000 H   0  0  0  0  0  0  0  0  0  0  0  0
  1  2  1  0  0  0  0 
  1  3  2  0  0  0  0 
  3  4  1  0  0  0  0 
  4  5  1  0  0  0  0 
  4  6  2  0  0  0  0 
  6  7  1  0  0  0  0 
  6  8  1  0  0  0  0 
  8  9  2  0  0  0  0 
  1  9  1  0  0  0  0 
  9 10  1  0  0  0  0 
  8 11  1  0  0  0  0 
 11 12  1  0  0  0  0 
  3 13  1  0  0  0  0 
 13 14  1  6  0  0  0 
 13 15  1  0  0  0  0 
 15 16  2  0  0  0  0 
 15 17  1  0  0  0  0 
 17 18  1  0  0  0  0 
 13 19  1  1  0  0  0 
 19 20  1  0  0  0  0 
 19 21  1  0  0  0  0 
M  END
> <Rank>
5

> <Priority_score>
0.468

> <Reaction_type>
hydrolysis_(secondary_amide)

> <Parent_ID>
14

> <Parent_InChI>
InChI=1S/C16H19N3O5S/c1-16(2)11(15(23)24)19-13(22)10(14(19)25-16)18-12(21)9(17)7-3-5-8(20)6-4-7/h3-6,9-11,14,20H,17H2,1-2H3,(H,18,21)(H,23,24)

> <Parent_SMILES>
CC1(C)S[C@@H]2[C@H](NC(=O)[C@H](N)c3ccc(O)cc3)C(=O)N2[C@H]1C(=O)O

$$$$
Molecule 14_metabolite 6
  CDK     0516241031

 26 27  0  0  0  0  0  0  0  0999 V2000
    0.2188    0.9186    0.0000 C   0  0  0  0  0  0  0  0  0  0  0  0
    1.6454    1.3819    0.0000 H   0  0  0  0  0  0  0  0  0  0  0  0
   -1.3417   -0.3001    0.0000 H   0  0  0  0  0  0  0  0  0  0  0  0
    1.5986   -1.6775    0.0000 H   0  0  0  0  0  0  0  0  0  0  0  0
   -1.2525    2.2437    0.0000 C   0  0  0  0  0  0  0  0  0  0  0  0
   -0.1379    3.2476    0.0000 C   0  0  0  0  0  0  0  0  0  0  0  0
    1.2888    2.7843    0.0000 H   0  0  0  0  0  0  0  0  0  0  0  0
    0.5661    4.5721    0.0000 H   0  0  0  0  0  0  0  0  0  0  0  0
   -1.3201    4.1709    0.0000 H   0  0  0  0  0  0  0  0  0  0  0  0
   -2.1325    1.0337    0.0000 C   0  0  2  0  0  0  0  0  0  0  0  0
   -2.7401   -0.3377    0.0000 H   0  0  0  0  0  0  0  0  0  0  0  0
    0.1210   -0.8546    0.0000 C   0  0  0  0  0  0  0  0  0  0  0  0
    2.8830    0.1528    0.0000 O   0  0  0  0  0  0  0  0  0  0  0  0
   -0.1385   -2.3319    0.0000 O   0  0  0  0  0  0  0  0  0  0  0  0
    1.0112   -3.2954    0.0000 H   0  0  0  0  0  0  0  0  0  0  0  0
   -3.5625    1.4937    0.0000 N   0  0  0  0  0  0  0  0  0  0  0  0
   -5.0625    1.4937    0.0000 C   0  0  0  0  0  0  0  0  0  0  0  0
   -6.1231    0.4331    0.0000 O   0  0  0  0  0  0  0  0  0  0  0  0
   -5.0625    2.9937    0.0000 C   0  0  2  0  0  0  0  0  0  0  0  0
   -5.0625    4.4937    0.0000 H   0  0  0  0  0  0  0  0  0  0  0  0
   -3.5625    2.9937    0.0000 C   0  0  1  0  0  0  0  0  0  0  0  0
   -3.7949    4.4756    0.0000 H   0  0  0  0  0  0  0  0  0  0  0  0
   -2.1325    3.4537    0.0000 S   0  0  0  0  0  0  0  0  0  0  0  0
   -6.5625    2.9937    0.0000 N   0  0  0  0  0  0  0  0  0  0  0  0
   -7.3125    4.2928    0.0000 H   0  0  0  0  0  0  0  0  0  0  0  0
   -7.3125    1.6947    0.0000 H   0  0  0  0  0  0  0  0  0  0  0  0
  1  2  1  0  0  0  0 
  1  3  1  0  0  0  0 
  1  4  1  0  0  0  0 
  1  5  1  0  0  0  0 
  5  6  1  0  0  0  0 
  6  7  1  0  0  0  0 
  6  8  1  0  0  0  0 
  6  9  1  0  0  0  0 
  5 10  1  0  0  0  0 
 10 11  1  1  0  0  0 
 10 12  1  6  0  0  0 
 12 13  2  0  0  0  0 
 12 14  1  0  0  0  0 
 14 15  1  0  0  0  0 
 10 16  1  0  0  0  0 
 16 17  1  0  0  0  0 
 17 18  2  0  0  0  0 
 17 19  1  0  0  0  0 
 19 20  1  6  0  0  0 
 19 21  1  0  0  0  0 
 16 21  1  0  0  0  0 
 21 22  1  6  0  0  0 
 21 23  1  0  0  0  0 
  5 23  1  0  0  0  0 
 19 24  1  1  0  0  0 
 24 25  1  0  0  0  0 
 24 26  1  0  0  0  0 
M  END
> <Rank>
5

> <Priority_score>
0.468

> <Reaction_type>
hydrolysis_(secondary_amide)

> <Parent_ID>
14

> <Parent_InChI>
InChI=1S/C16H19N3O5S/c1-16(2)11(15(23)24)19-13(22)10(14(19)25-16)18-12(21)9(17)7-3-5-8(20)6-4-7/h3-6,9-11,14,20H,17H2,1-2H3,(H,18,21)(H,23,24)

> <Parent_SMILES>
CC1(C)S[C@@H]2[C@H](NC(=O)[C@H](N)c3ccc(O)cc3)C(=O)N2[C@H]1C(=O)O

$$$$
Molecule 14_metabolite 7
  CDK     0516241031

 45 47  0  0  0  0  0  0  0  0999 V2000
    1.1446    1.0652    0.0000 C   0  0  0  0  0  0  0  0  0  0  0  0
    2.5713    1.5285    0.0000 H   0  0  0  0  0  0  0  0  0  0  0  0
   -0.4158   -0.1536    0.0000 H   0  0  0  0  0  0  0  0  0  0  0  0
    1.8486   -0.2593    0.0000 H   0  0  0  0  0  0  0  0  0  0  0  0
   -0.3266    2.3903    0.0000 C   0  0  0  0  0  0  0  0  0  0  0  0
    0.7880    3.3942    0.0000 C   0  0  0  0  0  0  0  0  0  0  0  0
    2.2146    2.9309    0.0000 H   0  0  0  0  0  0  0  0  0  0  0  0
    1.4920    4.7187    0.0000 H   0  0  0  0  0  0  0  0  0  0  0  0
   -0.3942    4.3175    0.0000 H   0  0  0  0  0  0  0  0  0  0  0  0
   -1.2066    1.1803    0.0000 C   0  0  2  0  0  0  0  0  0  0  0  0
   -1.8142   -0.1911    0.0000 H   0  0  0  0  0  0  0  0  0  0  0  0
    0.2651   -1.3648    0.0000 C   0  0  0  0  0  0  0  0  0  0  0  0
    3.2051   -1.3629    0.0000 O   0  0  0  0  0  0  0  0  0  0  0  0
   -0.4840   -2.6644    0.0000 O   0  0  0  0  0  0  0  0  0  0  0  0
    0.2668   -3.9629    0.0000 H   0  0  0  0  0  0  0  0  0  0  0  0
   -2.6366    1.6403    0.0000 N   0  0  0  0  0  0  0  0  0  0  0  0
   -4.1366    1.6403    0.0000 C   0  0  0  0  0  0  0  0  0  0  0  0
   -5.1972    0.5797    0.0000 O   0  0  0  0  0  0  0  0  0  0  0  0
   -4.1366    3.1403    0.0000 C   0  0  2  0  0  0  0  0  0  0  0  0
   -4.1366    4.6403    0.0000 H   0  0  0  0  0  0  0  0  0  0  0  0
   -2.6366    3.1403    0.0000 C   0  0  1  0  0  0  0  0  0  0  0  0
   -2.8691    4.6222    0.0000 H   0  0  0  0  0  0  0  0  0  0  0  0
   -1.2066    3.6003    0.0000 S   0  0  0  0  0  0  0  0  0  0  0  0
   -5.6366    3.1403    0.0000 N   0  0  0  0  0  0  0  0  0  0  0  0
   -6.3866    4.4394    0.0000 C   0  0  0  0  0  0  0  0  0  0  0  0
   -5.6366    5.7384    0.0000 O   0  0  0  0  0  0  0  0  0  0  0  0
   -7.8866    4.4394    0.0000 C   0  0  1  0  0  0  0  0  0  0  0  0
   -9.2961    3.9263    0.0000 H   0  0  0  0  0  0  0  0  0  0  0  0
   -8.3971    1.5440    0.0000 C   0  0  0  0  0  0  0  0  0  0  0  0
   -9.8091    1.0379    0.0000 C   0  0  0  0  0  0  0  0  0  0  0  0
  -11.2136    1.5648    0.0000 H   0  0  0  0  0  0  0  0  0  0  0  0
  -10.0867   -0.4106    0.0000 C   0  0  0  0  0  0  0  0  0  0  0  0
  -11.5053   -0.8981    0.0000 H   0  0  0  0  0  0  0  0  0  0  0  0
   -8.9252   -1.4284    0.0000 C   0  0  0  0  0  0  0  0  0  0  0  0
   -7.5131   -0.9224    0.0000 C   0  0  0  0  0  0  0  0  0  0  0  0
   -6.3609   -1.8827    0.0000 H   0  0  0  0  0  0  0  0  0  0  0  0
   -7.2626    0.6015    0.0000 C   0  0  0  0  0  0  0  0  0  0  0  0
   -5.8573    1.1262    0.0000 H   0  0  0  0  0  0  0  0  0  0  0  0
   -9.2051   -2.9021    0.0000 O   0  0  0  0  0  0  0  0  0  0  0  0
   -8.0688   -3.8813    0.0000 H   0  0  0  0  0  0  0  0  0  0  0  0
   -8.6366    5.7384    0.0000 N   0  0  0  0  0  0  0  0  0  0  0  0
  -10.1366    5.7384    0.0000 H   0  0  0  0  0  0  0  0  0  0  0  0
   -7.8866    7.0374    0.0000 H   0  0  0  0  0  0  0  0  0  0  0  0
   -6.3866    1.8413    0.0000 O   0  0  0  0  0  0  0  0  0  0  0  0
   -7.8638    2.1017    0.0000 H   0  0  0  0  0  0  0  0  0  0  0  0
  1  2  1  0  0  0  0 
  1  3  1  0  0  0  0 
  1  4  1  0  0  0  0 
  1  5  1  0  0  0  0 
  5  6  1  0  0  0  0 
  6  7  1  0  0  0  0 
  6  8  1  0  0  0  0 
  6  9  1  0  0  0  0 
  5 10  1  0  0  0  0 
 10 11  1  1  0  0  0 
 10 12  1  6  0  0  0 
 12 13  2  0  0  0  0 
 12 14  1  0  0  0  0 
 14 15  1  0  0  0  0 
 10 16  1  0  0  0  0 
 16 17  1  0  0  0  0 
 17 18  2  0  0  0  0 
 17 19  1  0  0  0  0 
 19 20  1  6  0  0  0 
 19 21  1  0  0  0  0 
 16 21  1  0  0  0  0 
 21 22  1  6  0  0  0 
 21 23  1  0  0  0  0 
  5 23  1  0  0  0  0 
 19 24  1  1  0  0  0 
 24 25  1  0  0  0  0 
 25 26  2  0  0  0  0 
 25 27  1  0  0  0  0 
 27 28  1  6  0  0  0 
 27 29  1  0  0  0  0 
 29 30  2  0  0  0  0 
 30 31  1  0  0  0  0 
 30 32  1  0  0  0  0 
 32 33  1  0  0  0  0 
 32 34  2  0  0  0  0 
 34 35  1  0  0  0  0 
 35 36  1  0  0  0  0 
 35 37  2  0  0  0  0 
 29 37  1  0  0  0  0 
 37 38  1  0  0  0  0 
 34 39  1  0  0  0  0 
 39 40  1  0  0  0  0 
 27 41  1  1  0  0  0 
 41 42  1  0  0  0  0 
 41 43  1  0  0  0  0 
 24 44  1  0  0  0  0 
 44 45  1  0  0  0  0 
M  END
> <Rank>
5

> <Priority_score>
0.468

> <Reaction_type>
amine hydroxylation

> <Parent_ID>
14

> <Parent_InChI>
InChI=1S/C16H19N3O5S/c1-16(2)11(15(23)24)19-13(22)10(14(19)25-16)18-12(21)9(17)7-3-5-8(20)6-4-7/h3-6,9-11,14,20H,17H2,1-2H3,(H,18,21)(H,23,24)

> <Parent_SMILES>
CC1(C)S[C@@H]2[C@H](NC(=O)[C@H](N)c3ccc(O)cc3)C(=O)N2[C@H]1C(=O)O

$$$$
Molecule 14_metabolite 8
  CDK     0516241031

 45 47  0  0  0  0  0  0  0  0999 V2000
    0.5973    5.3656    0.0000 C   0  0  0  0  0  0  0  0  0  0  0  0
    2.0239    4.9023    0.0000 H   0  0  0  0  0  0  0  0  0  0  0  0
   -0.9632    6.5843    0.0000 H   0  0  0  0  0  0  0  0  0  0  0  0
    1.7518    7.5378    0.0000 H   0  0  0  0  0  0  0  0  0  0  0  0
   -0.5173    4.3617    0.0000 C   0  0  0  0  0  0  0  0  0  0  0  0
    0.5973    3.3578    0.0000 C   0  0  0  0  0  0  0  0  0  0  0  0
    2.0239    3.8211    0.0000 H   0  0  0  0  0  0  0  0  0  0  0  0
    1.3013    2.0333    0.0000 H   0  0  0  0  0  0  0  0  0  0  0  0
   -0.5849    2.4345    0.0000 H   0  0  0  0  0  0  0  0  0  0  0  0
   -1.3973    5.5717    0.0000 C   0  0  2  0  0  0  0  0  0  0  0  0
   -2.0049    6.9431    0.0000 H   0  0  0  0  0  0  0  0  0  0  0  0
    0.7340    6.8003    0.0000 C   0  0  0  0  0  0  0  0  0  0  0  0
    3.2791    5.3286    0.0000 O   0  0  0  0  0  0  0  0  0  0  0  0
    0.7350    8.3003    0.0000 O   0  0  0  0  0  0  0  0  0  0  0  0
    2.0345    9.0494    0.0000 H   0  0  0  0  0  0  0  0  0  0  0  0
   -2.8273    5.1117    0.0000 N   0  0  0  0  0  0  0  0  0  0  0  0
   -4.3273    5.1117    0.0000 C   0  0  0  0  0  0  0  0  0  0  0  0
   -5.3879    6.1724    0.0000 O   0  0  0  0  0  0  0  0  0  0  0  0
   -4.3273    3.6117    0.0000 C   0  0  2  0  0  0  0  0  0  0  0  0
   -4.3273    2.1117    0.0000 H   0  0  0  0  0  0  0  0  0  0  0  0
   -2.8273    3.6117    0.0000 C   0  0  1  0  0  0  0  0  0  0  0  0
   -3.0597    2.1298    0.0000 H   0  0  0  0  0  0  0  0  0  0  0  0
   -1.3973    3.1517    0.0000 S   0  0  0  0  0  0  0  0  0  0  0  0
   -5.8273    3.6117    0.0000 N   0  0  0  0  0  0  0  0  0  0  0  0
   -6.5773    4.9107    0.0000 H   0  0  0  0  0  0  0  0  0  0  0  0
   -6.5773    2.3127    0.0000 C   0  0  0  0  0  0  0  0  0  0  0  0
   -5.8273    1.0136    0.0000 O   0  0  0  0  0  0  0  0  0  0  0  0
   -8.0773    2.3127    0.0000 C   0  0  1  0  0  0  0  0  0  0  0  0
   -9.4868    1.7996    0.0000 H   0  0  0  0  0  0  0  0  0  0  0  0
   -7.6501   -0.1100    0.0000 C   0  0  0  0  0  0  0  0  0  0  0  0
   -8.8001   -1.0743    0.0000 C   0  0  0  0  0  0  0  0  0  0  0  0
  -10.2096   -0.5611    0.0000 H   0  0  0  0  0  0  0  0  0  0  0  0
   -8.5396   -2.5515    0.0000 C   0  0  0  0  0  0  0  0  0  0  0  0
   -9.6885   -3.5159    0.0000 H   0  0  0  0  0  0  0  0  0  0  0  0
   -7.1292   -3.0644    0.0000 C   0  0  0  0  0  0  0  0  0  0  0  0
   -5.9791   -2.1000    0.0000 C   0  0  0  0  0  0  0  0  0  0  0  0
   -6.2396   -0.6228    0.0000 C   0  0  0  0  0  0  0  0  0  0  0  0
   -5.0907    0.3415    0.0000 H   0  0  0  0  0  0  0  0  0  0  0  0
   -4.5697   -2.6133    0.0000 O   0  0  0  0  0  0  0  0  0  0  0  0
   -4.3094   -4.0905    0.0000 H   0  0  0  0  0  0  0  0  0  0  0  0
   -6.8687   -4.5416    0.0000 O   0  0  0  0  0  0  0  0  0  0  0  0
   -8.0177   -5.5058    0.0000 H   0  0  0  0  0  0  0  0  0  0  0  0
   -8.8273    3.6117    0.0000 N   0  0  0  0  0  0  0  0  0  0  0  0
  -10.3273    3.6117    0.0000 H   0  0  0  0  0  0  0  0  0  0  0  0
   -8.0773    4.9107    0.0000 H   0  0  0  0  0  0  0  0  0  0  0  0
  1  2  1  0  0  0  0 
  1  3  1  0  0  0  0 
  1  4  1  0  0  0  0 
  1  5  1  0  0  0  0 
  5  6  1  0  0  0  0 
  6  7  1  0  0  0  0 
  6  8  1  0  0  0  0 
  6  9  1  0  0  0  0 
  5 10  1  0  0  0  0 
 10 11  1  6  0  0  0 
 10 12  1  1  0  0  0 
 12 13  2  0  0  0  0 
 12 14  1  0  0  0  0 
 14 15  1  0  0  0  0 
 10 16  1  0  0  0  0 
 16 17  1  0  0  0  0 
 17 18  2  0  0  0  0 
 17 19  1  0  0  0  0 
 19 20  1  1  0  0  0 
 19 21  1  0  0  0  0 
 16 21  1  0  0  0  0 
 21 22  1  1  0  0  0 
 21 23  1  0  0  0  0 
  5 23  1  0  0  0  0 
 19 24  1  6  0  0  0 
 24 25  1  0  0  0  0 
 24 26  1  0  0  0  0 
 26 27  2  0  0  0  0 
 26 28  1  0  0  0  0 
 28 29  1  6  0  0  0 
 28 30  1  0  0  0  0 
 30 31  2  0  0  0  0 
 31 32  1  0  0  0  0 
 31 33  1  0  0  0  0 
 33 34  1  0  0  0  0 
 33 35  2  0  0  0  0 
 35 36  1  0  0  0  0 
 36 37  2  0  0  0  0 
 30 37  1  0  0  0  0 
 37 38  1  0  0  0  0 
 36 39  1  0  0  0  0 
 39 40  1  0  0  0  0 
 35 41  1  0  0  0  0 
 41 42  1  0  0  0  0 
 28 43  1  1  0  0  0 
 43 44  1  0  0  0  0 
 43 45  1  0  0  0  0 
M  END
> <Rank>
8

> <Priority_score>
0.396

> <Reaction_type>
aromatic_hydroxylation_(ortho_to_oxygen)

> <Parent_ID>
14

> <Parent_InChI>
InChI=1S/C16H19N3O5S/c1-16(2)11(15(23)24)19-13(22)10(14(19)25-16)18-12(21)9(17)7-3-5-8(20)6-4-7/h3-6,9-11,14,20H,17H2,1-2H3,(H,18,21)(H,23,24)

> <Parent_SMILES>
CC1(C)S[C@@H]2[C@H](NC(=O)[C@H](N)c3ccc(O)cc3)C(=O)N2[C@H]1C(=O)O

$$$$
Molecule 14_metabolite 9
  CDK     0516241031

 64 67  0  0  0  0  0  0  0  0999 V2000
    2.9503    1.8197    0.0000 C   0  0  0  0  0  0  0  0  0  0  0  0
    4.3770    2.2830    0.0000 H   0  0  0  0  0  0  0  0  0  0  0  0
    1.3898    0.6009    0.0000 H   0  0  0  0  0  0  0  0  0  0  0  0
    3.6543    0.4951    0.0000 H   0  0  0  0  0  0  0  0  0  0  0  0
    1.8357    2.8235    0.0000 C   0  0  0  0  0  0  0  0  0  0  0  0
    2.9503    3.8274    0.0000 C   0  0  0  0  0  0  0  0  0  0  0  0
    4.3770    3.3641    0.0000 H   0  0  0  0  0  0  0  0  0  0  0  0
    3.6543    5.1519    0.0000 H   0  0  0  0  0  0  0  0  0  0  0  0
    1.7681    4.7507    0.0000 H   0  0  0  0  0  0  0  0  0  0  0  0
    0.9557    1.6135    0.0000 C   0  0  2  0  0  0  0  0  0  0  0  0
    0.3481    0.2421    0.0000 H   0  0  0  0  0  0  0  0  0  0  0  0
    2.6711    0.6247    0.0000 C   0  0  0  0  0  0  0  0  0  0  0  0
    3.9697    1.3755    0.0000 O   0  0  0  0  0  0  0  0  0  0  0  0
    2.6721   -0.8753    0.0000 O   0  0  0  0  0  0  0  0  0  0  0  0
    3.9716   -1.6245    0.0000 H   0  0  0  0  0  0  0  0  0  0  0  0
   -0.4743    2.0735    0.0000 N   0  0  0  0  0  0  0  0  0  0  0  0
   -1.9743    2.0735    0.0000 C   0  0  0  0  0  0  0  0  0  0  0  0
   -3.0349    1.0129    0.0000 O   0  0  0  0  0  0  0  0  0  0  0  0
   -1.9743    3.5735    0.0000 C   0  0  2  0  0  0  0  0  0  0  0  0
   -1.9743    5.0735    0.0000 H   0  0  0  0  0  0  0  0  0  0  0  0
   -0.4743    3.5735    0.0000 C   0  0  1  0  0  0  0  0  0  0  0  0
   -0.7067    5.0554    0.0000 H   0  0  0  0  0  0  0  0  0  0  0  0
    0.9557    4.0335    0.0000 S   0  0  0  0  0  0  0  0  0  0  0  0
   -3.4743    3.5735    0.0000 N   0  0  0  0  0  0  0  0  0  0  0  0
   -4.2243    2.2745    0.0000 H   0  0  0  0  0  0  0  0  0  0  0  0
   -4.2243    4.8726    0.0000 C   0  0  0  0  0  0  0  0  0  0  0  0
   -3.4743    6.1716    0.0000 O   0  0  0  0  0  0  0  0  0  0  0  0
   -5.7243    4.8726    0.0000 C   0  0  1  0  0  0  0  0  0  0  0  0
   -7.1338    5.3856    0.0000 H   0  0  0  0  0  0  0  0  0  0  0  0
   -5.2971    7.2952    0.0000 C   0  0  0  0  0  0  0  0  0  0  0  0
   -3.8850    7.8013    0.0000 C   0  0  0  0  0  0  0  0  0  0  0  0
   -2.7455    6.8258    0.0000 H   0  0  0  0  0  0  0  0  0  0  0  0
   -3.6075    9.2499    0.0000 C   0  0  0  0  0  0  0  0  0  0  0  0
   -2.1889    9.7373    0.0000 H   0  0  0  0  0  0  0  0  0  0  0  0
   -4.7690   10.2677    0.0000 C   0  0  0  0  0  0  0  0  0  0  0  0
   -6.1810    9.7616    0.0000 C   0  0  0  0  0  0  0  0  0  0  0  0
   -7.3333   10.7219    0.0000 H   0  0  0  0  0  0  0  0  0  0  0  0
   -6.4316    8.2377    0.0000 C   0  0  0  0  0  0  0  0  0  0  0  0
   -7.8369    7.7130    0.0000 H   0  0  0  0  0  0  0  0  0  0  0  0
   -4.4891   11.7413    0.0000 O   0  0  0  0  0  0  0  0  0  0  0  0
   -5.6254   12.7205    0.0000 H   0  0  0  0  0  0  0  0  0  0  0  0
   -6.7143    3.1578    0.0000 N   0  0  0  0  0  0  0  0  0  0  0  0
   -5.9643    1.8588    0.0000 H   0  0  0  0  0  0  0  0  0  0  0  0
   -8.2143    3.1578    0.0000 C   0  0  0  0  0  0  0  0  0  0  0  0
   -7.9539    4.6351    0.0000 H   0  0  0  0  0  0  0  0  0  0  0  0
   -9.6239    3.6706    0.0000 C   0  0  0  0  0  0  0  0  0  0  0  0
   -8.8743    4.9699    0.0000 H   0  0  0  0  0  0  0  0  0  0  0  0
  -10.7731    2.7052    0.0000 C   0  0  0  0  0  0  0  0  0  0  0  0
  -11.5235    4.0040    0.0000 H   0  0  0  0  0  0  0  0  0  0  0  0
  -10.5126    1.2272    0.0000 C   0  0  0  0  0  0  0  0  0  0  0  0
  -12.0126    1.2272    0.0000 H   0  0  0  0  0  0  0  0  0  0  0  0
   -9.1030    0.7145    0.0000 C   0  0  0  0  0  0  0  0  0  0  0  0
   -9.8526   -0.5848    0.0000 H   0  0  0  0  0  0  0  0  0  0  0  0
   -7.9535   -0.2492    0.0000 C   0  0  0  0  0  0  0  0  0  0  0  0
   -6.5442    0.2644    0.0000 O   0  0  0  0  0  0  0  0  0  0  0  0
   -8.2134   -1.7266    0.0000 O   0  0  0  0  0  0  0  0  0  0  0  0
   -9.6227   -2.2402    0.0000 H   0  0  0  0  0  0  0  0  0  0  0  0
   -7.9538    1.6798    0.0000 O   0  0  0  0  0  0  0  0  0  0  0  0
  -10.7730   -0.2501    0.0000 O   0  0  0  0  0  0  0  0  0  0  0  0
  -12.1824   -0.7632    0.0000 H   0  0  0  0  0  0  0  0  0  0  0  0
  -12.1826    2.1921    0.0000 O   0  0  0  0  0  0  0  0  0  0  0  0
  -13.3318    3.1561    0.0000 H   0  0  0  0  0  0  0  0  0  0  0  0
  -10.7734    4.6343    0.0000 O   0  0  0  0  0  0  0  0  0  0  0  0
  -10.5135    6.1116    0.0000 H   0  0  0  0  0  0  0  0  0  0  0  0
  1  2  1  0  0  0  0 
  1  3  1  0  0  0  0 
  1  4  1  0  0  0  0 
  1  5  1  0  0  0  0 
  5  6  1  0  0  0  0 
  6  7  1  0  0  0  0 
  6  8  1  0  0  0  0 
  6  9  1  0  0  0  0 
  5 10  1  0  0  0  0 
 10 11  1  1  0  0  0 
 10 12  1  6  0  0  0 
 12 13  2  0  0  0  0 
 12 14  1  0  0  0  0 
 14 15  1  0  0  0  0 
 10 16  1  0  0  0  0 
 16 17  1  0  0  0  0 
 17 18  2  0  0  0  0 
 17 19  1  0  0  0  0 
 19 20  1  6  0  0  0 
 19 21  1  0  0  0  0 
 16 21  1  0  0  0  0 
 21 22  1  6  0  0  0 
 21 23  1  0  0  0  0 
  5 23  1  0  0  0  0 
 19 24  1  1  0  0  0 
 24 25  1  0  0  0  0 
 24 26  1  0  0  0  0 
 26 27  2  0  0  0  0 
 26 28  1  0  0  0  0 
 28 29  1  1  0  0  0 
 28 30  1  0  0  0  0 
 30 31  2  0  0  0  0 
 31 32  1  0  0  0  0 
 31 33  1  0  0  0  0 
 33 34  1  0  0  0  0 
 33 35  2  0  0  0  0 
 35 36  1  0  0  0  0 
 36 37  1  0  0  0  0 
 36 38  2  0  0  0  0 
 30 38  1  0  0  0  0 
 38 39  1  0  0  0  0 
 35 40  1  0  0  0  0 
 40 41  1  0  0  0  0 
 28 42  1  6  0  0  0 
 42 43  1  0  0  0  0 
 42 44  1  0  0  0  0 
 44 45  1  0  0  0  0 
 44 46  1  0  0  0  0 
 46 47  1  0  0  0  0 
 46 48  1  0  0  0  0 
 48 49  1  0  0  0  0 
 48 50  1  0  0  0  0 
 50 51  1  0  0  0  0 
 50 52  1  0  0  0  0 
 52 53  1  0  0  0  0 
 52 54  1  0  0  0  0 
 54 55  2  0  0  0  0 
 54 56  1  0  0  0  0 
 56 57  1  0  0  0  0 
 52 58  1  0  0  0  0 
 44 58  1  0  0  0  0 
 50 59  1  0  0  0  0 
 59 60  1  0  0  0  0 
 48 61  1  0  0  0  0 
 61 62  1  0  0  0  0 
 46 63  1  0  0  0  0 
 63 64  1  0  0  0  0 
M  END
> <Rank>
9

> <Priority_score>
0.3

> <Reaction_type>
N-glucuronidation_(aliphatic_NH2)

> <Parent_ID>
14

> <Parent_InChI>
InChI=1S/C16H19N3O5S/c1-16(2)11(15(23)24)19-13(22)10(14(19)25-16)18-12(21)9(17)7-3-5-8(20)6-4-7/h3-6,9-11,14,20H,17H2,1-2H3,(H,18,21)(H,23,24)

> <Parent_SMILES>
CC1(C)S[C@@H]2[C@H](NC(=O)[C@H](N)c3ccc(O)cc3)C(=O)N2[C@H]1C(=O)O

$$$$
Molecule 14_metabolite 10
  CDK     0516241031

 41 43  0  0  0  0  0  0  0  0999 V2000
    3.3261    5.7519    0.0000 C   0  0  0  0  0  0  0  0  0  0  0  0
    4.7528    5.2886    0.0000 H   0  0  0  0  0  0  0  0  0  0  0  0
    1.7657    6.9707    0.0000 H   0  0  0  0  0  0  0  0  0  0  0  0
    4.0301    7.0764    0.0000 H   0  0  0  0  0  0  0  0  0  0  0  0
    1.8549    4.4268    0.0000 C   0  0  0  0  0  0  0  0  0  0  0  0
    2.9695    3.4229    0.0000 C   0  0  0  0  0  0  0  0  0  0  0  0
    4.3961    3.8862    0.0000 H   0  0  0  0  0  0  0  0  0  0  0  0
    3.6735    2.0984    0.0000 H   0  0  0  0  0  0  0  0  0  0  0  0
    1.7873    2.4996    0.0000 H   0  0  0  0  0  0  0  0  0  0  0  0
    0.9749    5.6368    0.0000 C   0  0  0  0  0  0  0  0  0  0  0  0
    0.3673    7.0082    0.0000 H   0  0  0  0  0  0  0  0  0  0  0  0
    2.2745    6.3859    0.0000 H   0  0  0  0  0  0  0  0  0  0  0  0
   -0.4551    5.1768    0.0000 N   0  0  0  0  0  0  0  0  0  0  0  0
   -1.9551    5.1768    0.0000 C   0  0  0  0  0  0  0  0  0  0  0  0
   -3.0157    6.2375    0.0000 O   0  0  0  0  0  0  0  0  0  0  0  0
   -1.9551    3.6768    0.0000 C   0  0  2  0  0  0  0  0  0  0  0  0
   -1.9551    2.1768    0.0000 H   0  0  0  0  0  0  0  0  0  0  0  0
   -0.4551    3.6768    0.0000 C   0  0  1  0  0  0  0  0  0  0  0  0
   -0.6875    2.1949    0.0000 H   0  0  0  0  0  0  0  0  0  0  0  0
    0.9749    3.2168    0.0000 S   0  0  0  0  0  0  0  0  0  0  0  0
   -3.4551    3.6768    0.0000 N   0  0  0  0  0  0  0  0  0  0  0  0
   -4.2051    4.9758    0.0000 H   0  0  0  0  0  0  0  0  0  0  0  0
   -4.2051    2.3778    0.0000 C   0  0  0  0  0  0  0  0  0  0  0  0
   -3.4551    1.0787    0.0000 O   0  0  0  0  0  0  0  0  0  0  0  0
   -5.7051    2.3778    0.0000 C   0  0  1  0  0  0  0  0  0  0  0  0
   -7.1146    1.8647    0.0000 H   0  0  0  0  0  0  0  0  0  0  0  0
   -5.2779   -0.0449    0.0000 C   0  0  0  0  0  0  0  0  0  0  0  0
   -3.8658   -0.5510    0.0000 C   0  0  0  0  0  0  0  0  0  0  0  0
   -2.7263    0.4245    0.0000 H   0  0  0  0  0  0  0  0  0  0  0  0
   -3.5883   -1.9995    0.0000 C   0  0  0  0  0  0  0  0  0  0  0  0
   -2.1697   -2.4870    0.0000 H   0  0  0  0  0  0  0  0  0  0  0  0
   -4.7498   -3.0173    0.0000 C   0  0  0  0  0  0  0  0  0  0  0  0
   -6.1619   -2.5112    0.0000 C   0  0  0  0  0  0  0  0  0  0  0  0
   -7.3141   -3.4716    0.0000 H   0  0  0  0  0  0  0  0  0  0  0  0
   -6.4124   -0.9874    0.0000 C   0  0  0  0  0  0  0  0  0  0  0  0
   -7.8177   -0.4627    0.0000 H   0  0  0  0  0  0  0  0  0  0  0  0
   -4.4699   -4.4910    0.0000 O   0  0  0  0  0  0  0  0  0  0  0  0
   -5.6062   -5.4702    0.0000 H   0  0  0  0  0  0  0  0  0  0  0  0
   -6.4551    3.6768    0.0000 N   0  0  0  0  0  0  0  0  0  0  0  0
   -7.9551    3.6768    0.0000 H   0  0  0  0  0  0  0  0  0  0  0  0
   -5.7051    4.9758    0.0000 H   0  0  0  0  0  0  0  0  0  0  0  0
  1  2  1  0  0  0  0 
  1  3  1  0  0  0  0 
  1  4  1  0  0  0  0 
  1  5  1  0  0  0  0 
  5  6  1  0  0  0  0 
  6  7  1  0  0  0  0 
  6  8  1  0  0  0  0 
  6  9  1  0  0  0  0 
  5 10  1  0  0  0  0 
 10 11  1  0  0  0  0 
 10 12  1  0  0  0  0 
 10 13  1  0  0  0  0 
 13 14  1  0  0  0  0 
 14 15  2  0  0  0  0 
 14 16  1  0  0  0  0 
 16 17  1  1  0  0  0 
 16 18  1  0  0  0  0 
 13 18  1  0  0  0  0 
 18 19  1  1  0  0  0 
 18 20  1  0  0  0  0 
  5 20  1  0  0  0  0 
 16 21  1  6  0  0  0 
 21 22  1  0  0  0  0 
 21 23  1  0  0  0  0 
 23 24  2  0  0  0  0 
 23 25  1  0  0  0  0 
 25 26  1  6  0  0  0 
 25 27  1  0  0  0  0 
 27 28  2  0  0  0  0 
 28 29  1  0  0  0  0 
 28 30  1  0  0  0  0 
 30 31  1  0  0  0  0 
 30 32  2  0  0  0  0 
 32 33  1  0  0  0  0 
 33 34  1  0  0  0  0 
 33 35  2  0  0  0  0 
 27 35  1  0  0  0  0 
 35 36  1  0  0  0  0 
 32 37  1  0  0  0  0 
 37 38  1  0  0  0  0 
 25 39  1  1  0  0  0 
 39 40  1  0  0  0  0 
 39 41  1  0  0  0  0 
M  END
> <Rank>
10

> <Priority_score>
0.26

> <Reaction_type>
decarboxylation

> <Parent_ID>
14

> <Parent_InChI>
InChI=1S/C16H19N3O5S/c1-16(2)11(15(23)24)19-13(22)10(14(19)25-16)18-12(21)9(17)7-3-5-8(20)6-4-7/h3-6,9-11,14,20H,17H2,1-2H3,(H,18,21)(H,23,24)

> <Parent_SMILES>
CC1(C)S[C@@H]2[C@H](NC(=O)[C@H](N)c3ccc(O)cc3)C(=O)N2[C@H]1C(=O)O

$$$$
Molecule 14_metabolite 11
  CDK     0516241031

 45 47  0  0  0  0  0  0  0  0999 V2000
    0.7973    5.1456    0.0000 C   0  0  0  0  0  0  0  0  0  0  0  0
    2.2239    4.6823    0.0000 H   0  0  0  0  0  0  0  0  0  0  0  0
   -0.7632    6.3643    0.0000 H   0  0  0  0  0  0  0  0  0  0  0  0
    1.9518    7.3178    0.0000 H   0  0  0  0  0  0  0  0  0  0  0  0
   -0.3173    4.1417    0.0000 C   0  0  0  0  0  0  0  0  0  0  0  0
    0.7973    3.1378    0.0000 C   0  0  0  0  0  0  0  0  0  0  0  0
    2.2239    3.6011    0.0000 H   0  0  0  0  0  0  0  0  0  0  0  0
    1.5013    1.8133    0.0000 H   0  0  0  0  0  0  0  0  0  0  0  0
   -0.3849    2.2145    0.0000 H   0  0  0  0  0  0  0  0  0  0  0  0
   -1.1973    5.3517    0.0000 C   0  0  2  0  0  0  0  0  0  0  0  0
   -1.8049    6.7231    0.0000 H   0  0  0  0  0  0  0  0  0  0  0  0
    0.9340    6.5803    0.0000 C   0  0  0  0  0  0  0  0  0  0  0  0
    3.4791    5.1086    0.0000 O   0  0  0  0  0  0  0  0  0  0  0  0
    0.9350    8.0803    0.0000 O   0  0  0  0  0  0  0  0  0  0  0  0
    2.2345    8.8294    0.0000 H   0  0  0  0  0  0  0  0  0  0  0  0
   -2.6273    4.8917    0.0000 N   0  0  0  0  0  0  0  0  0  0  0  0
   -4.1273    4.8917    0.0000 C   0  0  0  0  0  0  0  0  0  0  0  0
   -5.1879    5.9524    0.0000 O   0  0  0  0  0  0  0  0  0  0  0  0
   -4.1273    3.3917    0.0000 C   0  0  2  0  0  0  0  0  0  0  0  0
   -4.1273    1.8917    0.0000 H   0  0  0  0  0  0  0  0  0  0  0  0
   -2.6273    3.3917    0.0000 C   0  0  1  0  0  0  0  0  0  0  0  0
   -2.8597    1.9098    0.0000 H   0  0  0  0  0  0  0  0  0  0  0  0
   -1.1973    2.9317    0.0000 S   0  0  0  0  0  0  0  0  0  0  0  0
   -5.6273    3.3917    0.0000 N   0  0  0  0  0  0  0  0  0  0  0  0
   -6.3773    4.6907    0.0000 H   0  0  0  0  0  0  0  0  0  0  0  0
   -6.3773    2.0927    0.0000 C   0  0  0  0  0  0  0  0  0  0  0  0
   -5.6273    0.7936    0.0000 O   0  0  0  0  0  0  0  0  0  0  0  0
   -7.8773    2.0927    0.0000 C   0  0  1  0  0  0  0  0  0  0  0  0
   -9.2868    1.5796    0.0000 H   0  0  0  0  0  0  0  0  0  0  0  0
   -7.4501   -0.3300    0.0000 C   0  0  0  0  0  0  0  0  0  0  0  0
   -6.0380   -0.8360    0.0000 C   0  0  0  0  0  0  0  0  0  0  0  0
   -4.8985    0.1394    0.0000 H   0  0  0  0  0  0  0  0  0  0  0  0
   -5.7605   -2.2846    0.0000 C   0  0  0  0  0  0  0  0  0  0  0  0
   -4.3419   -2.7721    0.0000 H   0  0  0  0  0  0  0  0  0  0  0  0
   -6.9220   -3.3024    0.0000 C   0  0  0  0  0  0  0  0  0  0  0  0
   -8.3341   -2.7963    0.0000 C   0  0  0  0  0  0  0  0  0  0  0  0
   -9.4863   -3.7567    0.0000 H   0  0  0  0  0  0  0  0  0  0  0  0
   -8.5846   -1.2725    0.0000 C   0  0  0  0  0  0  0  0  0  0  0  0
   -9.9899   -0.7478    0.0000 H   0  0  0  0  0  0  0  0  0  0  0  0
   -6.6421   -4.7761    0.0000 O   0  0  0  0  0  0  0  0  0  0  0  0
   -7.7784   -5.7553    0.0000 H   0  0  0  0  0  0  0  0  0  0  0  0
   -8.6273    3.3917    0.0000 N   0  0  0  0  0  0  0  0  0  0  0  0
  -10.1273    3.3917    0.0000 H   0  0  0  0  0  0  0  0  0  0  0  0
   -7.8773    4.6907    0.0000 H   0  0  0  0  0  0  0  0  0  0  0  0
   -2.8597    6.3736    0.0000 O   0  0  0  0  0  0  0  0  0  0  0  0
  1  2  1  0  0  0  0 
  1  3  1  0  0  0  0 
  1  4  1  0  0  0  0 
  1  5  1  0  0  0  0 
  5  6  1  0  0  0  0 
  6  7  1  0  0  0  0 
  6  8  1  0  0  0  0 
  6  9  1  0  0  0  0 
  5 10  1  0  0  0  0 
 10 11  1  6  0  0  0 
 10 12  1  1  0  0  0 
 12 13  2  0  0  0  0 
 12 14  1  0  0  0  0 
 14 15  1  0  0  0  0 
 10 16  1  0  0  0  0 
 16 17  1  0  0  0  0 
 17 18  2  0  0  0  0 
 17 19  1  0  0  0  0 
 19 20  1  1  0  0  0 
 19 21  1  0  0  0  0 
 16 21  1  0  0  0  0 
 21 22  1  1  0  0  0 
 21 23  1  0  0  0  0 
  5 23  1  0  0  0  0 
 19 24  1  6  0  0  0 
 24 25  1  0  0  0  0 
 24 26  1  0  0  0  0 
 26 27  2  0  0  0  0 
 26 28  1  0  0  0  0 
 28 29  1  6  0  0  0 
 28 30  1  0  0  0  0 
 30 31  2  0  0  0  0 
 31 32  1  0  0  0  0 
 31 33  1  0  0  0  0 
 33 34  1  0  0  0  0 
 33 35  2  0  0  0  0 
 35 36  1  0  0  0  0 
 36 37  1  0  0  0  0 
 36 38  2  0  0  0  0 
 30 38  1  0  0  0  0 
 38 39  1  0  0  0  0 
 35 40  1  0  0  0  0 
 40 41  1  0  0  0  0 
 28 42  1  1  0  0  0 
 42 43  1  0  0  0  0 
 42 44  1  0  0  0  0 
 16 45  1  0  0  0  0 
M  CHG  1  16   1
M  CHG  1  45  -1
M  END
> <Rank>
11

> <Priority_score>
0.176

> <Reaction_type>
N-oxidation

> <Parent_ID>
14

> <Parent_InChI>
InChI=1S/C16H19N3O5S/c1-16(2)11(15(23)24)19-13(22)10(14(19)25-16)18-12(21)9(17)7-3-5-8(20)6-4-7/h3-6,9-11,14,20H,17H2,1-2H3,(H,18,21)(H,23,24)

> <Parent_SMILES>
CC1(C)S[C@@H]2[C@H](NC(=O)[C@H](N)c3ccc(O)cc3)C(=O)N2[C@H]1C(=O)O

$$$$
Molecule 14_metabolite 12
  CDK     0516241031

 45 47  0  0  0  0  0  0  0  0999 V2000
    0.2677   -0.6959    0.0000 C   0  0  0  0  0  0  0  0  0  0  0  0
    1.6944   -0.2326    0.0000 H   0  0  0  0  0  0  0  0  0  0  0  0
   -1.2927   -1.9147    0.0000 H   0  0  0  0  0  0  0  0  0  0  0  0
    1.4223   -2.8681    0.0000 H   0  0  0  0  0  0  0  0  0  0  0  0
   -1.2035    0.6292    0.0000 C   0  0  0  0  0  0  0  0  0  0  0  0
   -0.0889    1.6331    0.0000 C   0  0  0  0  0  0  0  0  0  0  0  0
    1.3377    1.1698    0.0000 H   0  0  0  0  0  0  0  0  0  0  0  0
    0.6151    2.9576    0.0000 H   0  0  0  0  0  0  0  0  0  0  0  0
   -1.2711    2.5564    0.0000 H   0  0  0  0  0  0  0  0  0  0  0  0
   -2.0835   -0.5808    0.0000 C   0  0  2  0  0  0  0  0  0  0  0  0
   -2.6911   -1.9522    0.0000 H   0  0  0  0  0  0  0  0  0  0  0  0
    0.1699   -2.4691    0.0000 C   0  0  0  0  0  0  0  0  0  0  0  0
    2.9320   -1.4617    0.0000 O   0  0  0  0  0  0  0  0  0  0  0  0
   -0.0896   -3.9465    0.0000 O   0  0  0  0  0  0  0  0  0  0  0  0
    1.0602   -4.9099    0.0000 H   0  0  0  0  0  0  0  0  0  0  0  0
   -3.5135   -0.1208    0.0000 N   0  0  0  0  0  0  0  0  0  0  0  0
   -5.0135   -0.1208    0.0000 C   0  0  0  0  0  0  0  0  0  0  0  0
   -6.0741   -1.1814    0.0000 O   0  0  0  0  0  0  0  0  0  0  0  0
   -5.0135    1.3792    0.0000 C   0  0  2  0  0  0  0  0  0  0  0  0
   -3.5135    1.3792    0.0000 C   0  0  1  0  0  0  0  0  0  0  0  0
   -3.7459    2.8611    0.0000 H   0  0  0  0  0  0  0  0  0  0  0  0
   -2.0835    1.8392    0.0000 S   0  0  0  0  0  0  0  0  0  0  0  0
   -5.0135    2.8792    0.0000 N   0  0  0  0  0  0  0  0  0  0  0  0
   -3.7144    3.6292    0.0000 H   0  0  0  0  0  0  0  0  0  0  0  0
   -6.3125    3.6292    0.0000 C   0  0  0  0  0  0  0  0  0  0  0  0
   -7.6115    2.8792    0.0000 O   0  0  0  0  0  0  0  0  0  0  0  0
   -6.3125    5.1292    0.0000 C   0  0  1  0  0  0  0  0  0  0  0  0
   -4.8353    4.8687    0.0000 H   0  0  0  0  0  0  0  0  0  0  0  0
   -5.4711    7.4409    0.0000 C   0  0  0  0  0  0  0  0  0  0  0  0
   -6.4410    8.5852    0.0000 C   0  0  0  0  0  0  0  0  0  0  0  0
   -7.9155    8.3102    0.0000 H   0  0  0  0  0  0  0  0  0  0  0  0
   -5.9570    9.9784    0.0000 C   0  0  0  0  0  0  0  0  0  0  0  0
   -6.9418   11.1099    0.0000 H   0  0  0  0  0  0  0  0  0  0  0  0
   -4.4422   10.2791    0.0000 C   0  0  0  0  0  0  0  0  0  0  0  0
   -3.4724    9.1348    0.0000 C   0  0  0  0  0  0  0  0  0  0  0  0
   -1.9943    9.3904    0.0000 H   0  0  0  0  0  0  0  0  0  0  0  0
   -4.0174    7.6898    0.0000 C   0  0  0  0  0  0  0  0  0  0  0  0
   -3.0627    6.5328    0.0000 H   0  0  0  0  0  0  0  0  0  0  0  0
   -3.9478   11.6953    0.0000 O   0  0  0  0  0  0  0  0  0  0  0  0
   -4.9271   12.8316    0.0000 H   0  0  0  0  0  0  0  0  0  0  0  0
   -7.6115    5.8792    0.0000 N   0  0  0  0  0  0  0  0  0  0  0  0
   -7.6115    7.3792    0.0000 H   0  0  0  0  0  0  0  0  0  0  0  0
   -8.9106    5.1292    0.0000 H   0  0  0  0  0  0  0  0  0  0  0  0
   -6.5135    1.3792    0.0000 O   0  0  0  0  0  0  0  0  0  0  0  0
   -7.2635    0.0802    0.0000 H   0  0  0  0  0  0  0  0  0  0  0  0
  1  2  1  0  0  0  0 
  1  3  1  0  0  0  0 
  1  4  1  0  0  0  0 
  1  5  1  0  0  0  0 
  5  6  1  0  0  0  0 
  6  7  1  0  0  0  0 
  6  8  1  0  0  0  0 
  6  9  1  0  0  0  0 
  5 10  1  0  0  0  0 
 10 11  1  1  0  0  0 
 10 12  1  6  0  0  0 
 12 13  2  0  0  0  0 
 12 14  1  0  0  0  0 
 14 15  1  0  0  0  0 
 10 16  1  0  0  0  0 
 16 17  1  0  0  0  0 
 17 18  2  0  0  0  0 
 17 19  1  0  0  0  0 
 19 20  1  0  0  0  0 
 16 20  1  0  0  0  0 
 20 21  1  6  0  0  0 
 20 22  1  0  0  0  0 
  5 22  1  0  0  0  0 
 19 23  1  1  0  0  0 
 23 24  1  0  0  0  0 
 23 25  1  0  0  0  0 
 25 26  2  0  0  0  0 
 27 25  1  6  0  0  0 
 27 28  1  1  0  0  0 
 27 29  1  0  0  0  0 
 29 30  2  0  0  0  0 
 30 31  1  0  0  0  0 
 30 32  1  0  0  0  0 
 32 33  1  0  0  0  0 
 32 34  2  0  0  0  0 
 34 35  1  0  0  0  0 
 35 36  1  0  0  0  0 
 35 37  2  0  0  0  0 
 29 37  1  0  0  0  0 
 37 38  1  0  0  0  0 
 34 39  1  0  0  0  0 
 39 40  1  0  0  0  0 
 27 41  1  0  0  0  0 
 41 42  1  0  0  0  0 
 41 43  1  0  0  0  0 
 19 44  1  6  0  0  0 
 44 45  1  0  0  0  0 
M  END
> <Rank>
11

> <Priority_score>
0.176

> <Reaction_type>
aliphatic_hydroxylation_(tert_carbon_next_to_SP2)

> <Parent_ID>
14

> <Parent_InChI>
InChI=1S/C16H19N3O5S/c1-16(2)11(15(23)24)19-13(22)10(14(19)25-16)18-12(21)9(17)7-3-5-8(20)6-4-7/h3-6,9-11,14,20H,17H2,1-2H3,(H,18,21)(H,23,24)

> <Parent_SMILES>
CC1(C)S[C@@H]2[C@H](NC(=O)[C@H](N)c3ccc(O)cc3)C(=O)N2[C@H]1C(=O)O

$$$$
Molecule 14_metabolite 13
  CDK     0516241031

 47 48  0  0  0  0  0  0  0  0999 V2000
    0.2084   -4.4125    0.0000 C   0  0  0  0  0  0  0  0  0  0  0  0
   -0.4036   -5.7820    0.0000 H   0  0  0  0  0  0  0  0  0  0  0  0
    0.3492   -2.4375    0.0000 H   0  0  0  0  0  0  0  0  0  0  0  0
   -2.1777   -3.8141    0.0000 H   0  0  0  0  0  0  0  0  0  0  0  0
    2.1779   -4.2082    0.0000 C   0  0  0  0  0  0  0  0  0  0  0  0
    2.1724   -5.7082    0.0000 C   0  0  0  0  0  0  0  0  0  0  0  0
    0.8707   -6.4535    0.0000 H   0  0  0  0  0  0  0  0  0  0  0  0
    2.6804   -7.1196    0.0000 H   0  0  0  0  0  0  0  0  0  0  0  0
    3.6506   -5.4531    0.0000 H   0  0  0  0  0  0  0  0  0  0  0  0
    1.8662   -2.7485    0.0000 C   0  0  2  0  0  0  0  0  0  0  0  0
    1.2557   -1.3783    0.0000 H   0  0  0  0  0  0  0  0  0  0  0  0
   -1.0449   -3.1593    0.0000 C   0  0  0  0  0  0  0  0  0  0  0  0
   -2.1447   -5.8859    0.0000 O   0  0  0  0  0  0  0  0  0  0  0  0
   -1.9691   -1.9779    0.0000 O   0  0  0  0  0  0  0  0  0  0  0  0
   -3.4544   -2.1875    0.0000 H   0  0  0  0  0  0  0  0  0  0  0  0
    3.1653   -1.9985    0.0000 N   0  0  0  0  0  0  0  0  0  0  0  0
    3.3227   -0.5068    0.0000 H   0  0  0  0  0  0  0  0  0  0  0  0
    4.2736   -2.9982    0.0000 C   0  0  1  0  0  0  0  0  0  0  0  0
    5.5754   -3.7435    0.0000 H   0  0  0  0  0  0  0  0  0  0  0  0
    5.7169   -1.0061    0.0000 C   0  0  1  0  0  0  0  0  0  0  0  0
    6.1284    0.4364    0.0000 H   0  0  0  0  0  0  0  0  0  0  0  0
    3.0727    0.2791    0.0000 C   0  0  0  0  0  0  0  0  0  0  0  0
    1.0977    0.1383    0.0000 O   0  0  0  0  0  0  0  0  0  0  0  0
    2.9660    1.7753    0.0000 O   0  0  0  0  0  0  0  0  0  0  0  0
    4.2084    2.6158    0.0000 H   0  0  0  0  0  0  0  0  0  0  0  0
    7.2089   -1.1608    0.0000 N   0  0  0  0  0  0  0  0  0  0  0  0
    7.8208   -2.5303    0.0000 H   0  0  0  0  0  0  0  0  0  0  0  0
    8.0889    0.0539    0.0000 C   0  0  0  0  0  0  0  0  0  0  0  0
    7.4769    1.4234    0.0000 O   0  0  0  0  0  0  0  0  0  0  0  0
    9.5809   -0.1009    0.0000 C   0  0  1  0  0  0  0  0  0  0  0  0
    9.1694   -1.5433    0.0000 H   0  0  0  0  0  0  0  0  0  0  0  0
   11.7934   -1.1762    0.0000 C   0  0  0  0  0  0  0  0  0  0  0  0
   13.0316   -0.3296    0.0000 C   0  0  0  0  0  0  0  0  0  0  0  0
   12.9102    1.1654    0.0000 H   0  0  0  0  0  0  0  0  0  0  0  0
   14.3675   -0.9547    0.0000 C   0  0  0  0  0  0  0  0  0  0  0  0
   15.5945   -0.0919    0.0000 H   0  0  0  0  0  0  0  0  0  0  0  0
   14.5104   -2.4925    0.0000 C   0  0  0  0  0  0  0  0  0  0  0  0
   13.2721   -3.3390    0.0000 C   0  0  0  0  0  0  0  0  0  0  0  0
   13.3738   -4.8356    0.0000 H   0  0  0  0  0  0  0  0  0  0  0  0
   11.8910   -2.6479    0.0000 C   0  0  0  0  0  0  0  0  0  0  0  0
   10.6417   -3.4781    0.0000 H   0  0  0  0  0  0  0  0  0  0  0  0
   15.8680   -3.1303    0.0000 O   0  0  0  0  0  0  0  0  0  0  0  0
   17.0992   -2.2736    0.0000 H   0  0  0  0  0  0  0  0  0  0  0  0
   10.4609    1.1139    0.0000 N   0  0  0  0  0  0  0  0  0  0  0  0
   11.9529    0.9591    0.0000 H   0  0  0  0  0  0  0  0  0  0  0  0
    9.8489    2.4834    0.0000 H   0  0  0  0  0  0  0  0  0  0  0  0
    3.6707   -4.3740    0.0000 S   0  0  0  0  0  0  0  0  0  0  0  0
  1  2  1  0  0  0  0 
  1  3  1  0  0  0  0 
  1  4  1  0  0  0  0 
  1  5  1  0  0  0  0 
  5  6  1  0  0  0  0 
  6  7  1  0  0  0  0 
  6  8  1  0  0  0  0 
  6  9  1  0  0  0  0 
  5 10  1  0  0  0  0 
 10 11  1  1  0  0  0 
 10 12  1  6  0  0  0 
 12 13  2  0  0  0  0 
 12 14  1  0  0  0  0 
 14 15  1  0  0  0  0 
 10 16  1  0  0  0  0 
 16 17  1  0  0  0  0 
 16 18  1  0  0  0  0 
 18 19  1  6  0  0  0 
 18 20  1  0  0  0  0 
 20 21  1  6  0  0  0 
 20 22  1  0  0  0  0 
 22 23  2  0  0  0  0 
 22 24  1  0  0  0  0 
 24 25  1  0  0  0  0 
 20 26  1  1  0  0  0 
 26 27  1  0  0  0  0 
 26 28  1  0  0  0  0 
 28 29  2  0  0  0  0 
 30 28  1  6  0  0  0 
 30 31  1  1  0  0  0 
 30 32  1  0  0  0  0 
 32 33  2  0  0  0  0 
 33 34  1  0  0  0  0 
 33 35  1  0  0  0  0 
 35 36  1  0  0  0  0 
 35 37  2  0  0  0  0 
 37 38  1  0  0  0  0 
 38 39  1  0  0  0  0 
 38 40  2  0  0  0  0 
 32 40  1  0  0  0  0 
 40 41  1  0  0  0  0 
 37 42  1  0  0  0  0 
 42 43  1  0  0  0  0 
 30 44  1  0  0  0  0 
 44 45  1  0  0  0  0 
 44 46  1  0  0  0  0 
 18 47  1  1  0  0  0 
  5 47  1  0  0  0  0 
M  END
> <Rank>
11

> <Priority_score>
0.176

> <Reaction_type>
hydrolysis_(tertiary_amide)

> <Parent_ID>
14

> <Parent_InChI>
InChI=1S/C16H19N3O5S/c1-16(2)11(15(23)24)19-13(22)10(14(19)25-16)18-12(21)9(17)7-3-5-8(20)6-4-7/h3-6,9-11,14,20H,17H2,1-2H3,(H,18,21)(H,23,24)

> <Parent_SMILES>
CC1(C)S[C@@H]2[C@H](NC(=O)[C@H](N)c3ccc(O)cc3)C(=O)N2[C@H]1C(=O)O

$$$$
Molecule 14_metabolite 14
  CDK     0516241031

 45 47  0  0  0  0  0  0  0  0999 V2000
    1.8533    4.6089    0.0000 C   0  0  0  0  0  0  0  0  0  0  0  0
    3.2800    4.1456    0.0000 H   0  0  0  0  0  0  0  0  0  0  0  0
    0.2929    5.8276    0.0000 H   0  0  0  0  0  0  0  0  0  0  0  0
    2.7826    6.3573    0.0000 H   0  0  0  0  0  0  0  0  0  0  0  0
    0.0254    2.9625    0.0000 C   0  0  0  0  0  0  0  0  0  0  0  0
    1.1400    1.9587    0.0000 C   0  0  0  0  0  0  0  0  0  0  0  0
    2.5667    2.4220    0.0000 H   0  0  0  0  0  0  0  0  0  0  0  0
    1.8440    0.6341    0.0000 H   0  0  0  0  0  0  0  0  0  0  0  0
   -0.0422    1.0354    0.0000 H   0  0  0  0  0  0  0  0  0  0  0  0
   -0.8546    4.1725    0.0000 C   0  0  2  0  0  0  0  0  0  0  0  0
   -1.4622    5.5439    0.0000 C   0  0  0  0  0  0  0  0  0  0  0  0
   -2.9537    5.7034    0.0000 O   0  0  0  0  0  0  0  0  0  0  0  0
   -0.5783    6.7559    0.0000 O   0  0  0  0  0  0  0  0  0  0  0  0
   -1.1860    8.1273    0.0000 H   0  0  0  0  0  0  0  0  0  0  0  0
   -2.2846    3.7125    0.0000 N   0  0  0  0  0  0  0  0  0  0  0  0
   -3.7846    3.7125    0.0000 C   0  0  0  0  0  0  0  0  0  0  0  0
   -4.8452    4.7732    0.0000 O   0  0  0  0  0  0  0  0  0  0  0  0
   -3.7846    2.2125    0.0000 C   0  0  2  0  0  0  0  0  0  0  0  0
   -3.7846    0.7125    0.0000 H   0  0  0  0  0  0  0  0  0  0  0  0
   -2.2846    2.2125    0.0000 C   0  0  1  0  0  0  0  0  0  0  0  0
   -2.5170    0.7307    0.0000 H   0  0  0  0  0  0  0  0  0  0  0  0
   -0.8546    1.7525    0.0000 S   0  0  0  0  0  0  0  0  0  0  0  0
   -5.2846    2.2125    0.0000 N   0  0  0  0  0  0  0  0  0  0  0  0
   -6.0346    3.5116    0.0000 H   0  0  0  0  0  0  0  0  0  0  0  0
   -6.0346    0.9135    0.0000 C   0  0  0  0  0  0  0  0  0  0  0  0
   -5.2846   -0.3855    0.0000 O   0  0  0  0  0  0  0  0  0  0  0  0
   -7.5346    0.9135    0.0000 C   0  0  1  0  0  0  0  0  0  0  0  0
   -8.9441    0.4005    0.0000 H   0  0  0  0  0  0  0  0  0  0  0  0
   -7.1074   -1.5091    0.0000 C   0  0  0  0  0  0  0  0  0  0  0  0
   -5.6953   -2.0152    0.0000 C   0  0  0  0  0  0  0  0  0  0  0  0
   -4.5558   -1.0398    0.0000 H   0  0  0  0  0  0  0  0  0  0  0  0
   -5.4178   -3.4638    0.0000 C   0  0  0  0  0  0  0  0  0  0  0  0
   -3.9992   -3.9512    0.0000 H   0  0  0  0  0  0  0  0  0  0  0  0
   -6.5793   -4.4816    0.0000 C   0  0  0  0  0  0  0  0  0  0  0  0
   -7.9913   -3.9755    0.0000 C   0  0  0  0  0  0  0  0  0  0  0  0
   -9.1436   -4.9359    0.0000 H   0  0  0  0  0  0  0  0  0  0  0  0
   -8.2419   -2.4516    0.0000 C   0  0  0  0  0  0  0  0  0  0  0  0
   -9.6472   -1.9270    0.0000 H   0  0  0  0  0  0  0  0  0  0  0  0
   -6.2994   -5.9553    0.0000 O   0  0  0  0  0  0  0  0  0  0  0  0
   -7.4357   -6.9345    0.0000 H   0  0  0  0  0  0  0  0  0  0  0  0
   -8.2846    2.2125    0.0000 N   0  0  0  0  0  0  0  0  0  0  0  0
   -9.7846    2.2125    0.0000 H   0  0  0  0  0  0  0  0  0  0  0  0
   -7.5346    3.5116    0.0000 H   0  0  0  0  0  0  0  0  0  0  0  0
    1.6925    5.6408    0.0000 O   0  0  0  0  0  0  0  0  0  0  0  0
    1.6935    7.1408    0.0000 H   0  0  0  0  0  0  0  0  0  0  0  0
  1  2  1  0  0  0  0 
  1  3  1  0  0  0  0 
  1  4  1  0  0  0  0 
  1  5  1  0  0  0  0 
  5  6  1  0  0  0  0 
  6  7  1  0  0  0  0 
  6  8  1  0  0  0  0 
  6  9  1  0  0  0  0 
  5 10  1  0  0  0  0 
 10 11  1  1  0  0  0 
 11 12  2  0  0  0  0 
 11 13  1  0  0  0  0 
 13 14  1  0  0  0  0 
 10 15  1  0  0  0  0 
 15 16  1  0  0  0  0 
 16 17  2  0  0  0  0 
 16 18  1  0  0  0  0 
 18 19  1  1  0  0  0 
 18 20  1  0  0  0  0 
 15 20  1  0  0  0  0 
 20 21  1  1  0  0  0 
 20 22  1  0  0  0  0 
  5 22  1  0  0  0  0 
 18 23  1  6  0  0  0 
 23 24  1  0  0  0  0 
 23 25  1  0  0  0  0 
 25 26  2  0  0  0  0 
 25 27  1  0  0  0  0 
 27 28  1  6  0  0  0 
 27 29  1  0  0  0  0 
 29 30  2  0  0  0  0 
 30 31  1  0  0  0  0 
 30 32  1  0  0  0  0 
 32 33  1  0  0  0  0 
 32 34  2  0  0  0  0 
 34 35  1  0  0  0  0 
 35 36  1  0  0  0  0 
 35 37  2  0  0  0  0 
 29 37  1  0  0  0  0 
 37 38  1  0  0  0  0 
 34 39  1  0  0  0  0 
 39 40  1  0  0  0  0 
 27 41  1  1  0  0  0 
 41 42  1  0  0  0  0 
 41 43  1  0  0  0  0 
 10 44  1  6  0  0  0 
 44 45  1  0  0  0  0 
M  END
> <Rank>
14

> <Priority_score>
0.16355763604447046

> <Reaction_type>
aliphatic_hydroxylation_(tert_carbon_next_to_SP2)

> <Parent_ID>
14

> <Parent_InChI>
InChI=1S/C16H19N3O5S/c1-16(2)11(15(23)24)19-13(22)10(14(19)25-16)18-12(21)9(17)7-3-5-8(20)6-4-7/h3-6,9-11,14,20H,17H2,1-2H3,(H,18,21)(H,23,24)

> <Parent_SMILES>
CC1(C)S[C@@H]2[C@H](NC(=O)[C@H](N)c3ccc(O)cc3)C(=O)N2[C@H]1C(=O)O

$$$$
Molecule 14_metabolite 15
  CDK     0516241031

 42 45  0  0  0  0  0  0  0  0999 V2000
  -11.1118    2.5441    0.0000 C   0  0  0  0  0  0  0  0  0  0  0  0
  -12.5384    2.0806    0.0000 H   0  0  0  0  0  0  0  0  0  0  0  0
   -9.5515    3.7631    0.0000 H   0  0  0  0  0  0  0  0  0  0  0  0
  -12.2667    4.7162    0.0000 H   0  0  0  0  0  0  0  0  0  0  0  0
   -9.6403    1.2192    0.0000 C   0  0  0  0  0  0  0  0  0  0  0  0
  -10.7551    0.2155    0.0000 C   0  0  0  0  0  0  0  0  0  0  0  0
  -12.1816    0.6791    0.0000 H   0  0  0  0  0  0  0  0  0  0  0  0
  -11.4593   -1.1089    0.0000 H   0  0  0  0  0  0  0  0  0  0  0  0
   -9.5730   -0.7080    0.0000 H   0  0  0  0  0  0  0  0  0  0  0  0
   -8.7587    2.4328    0.0000 C   0  0  2  0  0  0  0  0  0  0  0  0
   -8.1486    3.8031    0.0000 H   0  0  0  0  0  0  0  0  0  0  0  0
  -11.0108    4.3225    0.0000 C   0  0  0  0  0  0  0  0  0  0  0  0
  -13.7735    3.3170    0.0000 O   0  0  0  0  0  0  0  0  0  0  0  0
  -10.7504    5.7998    0.0000 O   0  0  0  0  0  0  0  0  0  0  0  0
  -11.8994    6.7639    0.0000 H   0  0  0  0  0  0  0  0  0  0  0  0
   -7.3321    1.9692    0.0000 N   0  0  0  0  0  0  0  0  0  0  0  0
   -5.8321    1.9692    0.0000 C   0  0  0  0  0  0  0  0  0  0  0  0
   -4.7714    3.0299    0.0000 O   0  0  0  0  0  0  0  0  0  0  0  0
   -5.8321    0.4692    0.0000 C   0  0  1  0  0  0  0  0  0  0  0  0
   -7.3321    0.4692    0.0000 C   0  0  1  0  0  0  0  0  0  0  0  0
   -7.0974   -1.0123    0.0000 H   0  0  0  0  0  0  0  0  0  0  0  0
   -8.7587    0.0057    0.0000 S   0  0  0  0  0  0  0  0  0  0  0  0
   -4.3506    0.7039    0.0000 N   0  0  0  0  0  0  0  0  0  0  0  0
   -3.6696    2.0404    0.0000 H   0  0  0  0  0  0  0  0  0  0  0  0
   -3.6696   -0.6326    0.0000 C   0  0  2  0  0  0  0  0  0  0  0  0
   -2.7256   -1.7983    0.0000 H   0  0  0  0  0  0  0  0  0  0  0  0
   -1.6064    0.7072    0.0000 C   0  0  0  0  0  0  0  0  0  0  0  0
   -1.6923    2.2047    0.0000 C   0  0  0  0  0  0  0  0  0  0  0  0
   -3.0355    2.8725    0.0000 H   0  0  0  0  0  0  0  0  0  0  0  0
   -0.4673    3.0262    0.0000 C   0  0  0  0  0  0  0  0  0  0  0  0
   -0.5729    4.5225    0.0000 H   0  0  0  0  0  0  0  0  0  0  0  0
    0.9234    2.3547    0.0000 C   0  0  0  0  0  0  0  0  0  0  0  0
    1.0093    0.8572    0.0000 C   0  0  0  0  0  0  0  0  0  0  0  0
    2.3435    0.1717    0.0000 H   0  0  0  0  0  0  0  0  0  0  0  0
   -0.2956    0.0311    0.0000 C   0  0  0  0  0  0  0  0  0  0  0  0
   -0.2294   -1.4674    0.0000 H   0  0  0  0  0  0  0  0  0  0  0  0
    2.1705    3.1882    0.0000 O   0  0  0  0  0  0  0  0  0  0  0  0
    3.5159    2.5249    0.0000 H   0  0  0  0  0  0  0  0  0  0  0  0
   -4.7302   -1.6933    0.0000 C   0  0  0  0  0  0  0  0  0  0  0  0
   -4.4956   -3.1748    0.0000 O   0  0  0  0  0  0  0  0  0  0  0  0
   -6.0667   -1.0123    0.0000 N   0  0  0  0  0  0  0  0  0  0  0  0
   -8.2586   -2.1291    0.0000 H   0  0  0  0  0  0  0  0  0  0  0  0
  1  2  1  0  0  0  0 
  1  3  1  0  0  0  0 
  1  4  1  0  0  0  0 
  1  5  1  0  0  0  0 
  5  6  1  0  0  0  0 
  6  7  1  0  0  0  0 
  6  8  1  0  0  0  0 
  6  9  1  0  0  0  0 
  5 10  1  0  0  0  0 
 10 11  1  1  0  0  0 
 10 12  1  6  0  0  0 
 12 13  2  0  0  0  0 
 12 14  1  0  0  0  0 
 14 15  1  0  0  0  0 
 10 16  1  0  0  0  0 
 16 17  1  0  0  0  0 
 17 18  2  0  0  0  0 
 17 19  1  0  0  0  0 
 19 20  1  0  0  0  0 
 16 20  1  0  0  0  0 
 20 21  1  6  0  0  0 
 20 22  1  0  0  0  0 
  5 22  1  0  0  0  0 
 19 23  1  6  0  0  0 
 23 24  1  0  0  0  0 
 23 25  1  0  0  0  0 
 25 26  1  1  0  0  0 
 25 27  1  6  0  0  0 
 27 28  2  0  0  0  0 
 28 29  1  0  0  0  0 
 28 30  1  0  0  0  0 
 30 31  1  0  0  0  0 
 30 32  2  0  0  0  0 
 32 33  1  0  0  0  0 
 33 34  1  0  0  0  0 
 33 35  2  0  0  0  0 
 27 35  1  0  0  0  0 
 35 36  1  0  0  0  0 
 32 37  1  0  0  0  0 
 37 38  1  0  0  0  0 
 25 39  1  0  0  0  0 
 39 40  2  0  0  0  0 
 39 41  1  0  0  0  0 
 19 41  1  1  0  0  0 
 41 42  1  0  0  0  0 
M  END
> <Rank>
15

> <Priority_score>
0.09360000000000002

> <Reaction_type>
cyclization to 5-membered NCN ring

> <Parent_ID>
14

> <Parent_InChI>
InChI=1S/C16H19N3O5S/c1-16(2)11(15(23)24)19-13(22)10(14(19)25-16)18-12(21)9(17)7-3-5-8(20)6-4-7/h3-6,9-11,14,20H,17H2,1-2H3,(H,18,21)(H,23,24)

> <Parent_SMILES>
CC1(C)S[C@@H]2[C@H](NC(=O)[C@H](N)c3ccc(O)cc3)C(=O)N2[C@H]1C(=O)O

$$$$
Molecule 14_metabolite 16
  CDK     0516241031

 45 47  0  0  0  0  0  0  0  0999 V2000
    0.6361    0.0105    0.0000 C   0  0  0  0  0  0  0  0  0  0  0  0
    2.0627    0.4738    0.0000 H   0  0  0  0  0  0  0  0  0  0  0  0
   -0.9244   -1.2082    0.0000 H   0  0  0  0  0  0  0  0  0  0  0  0
    1.7906   -2.1617    0.0000 H   0  0  0  0  0  0  0  0  0  0  0  0
   -0.8351    1.3356    0.0000 C   0  0  0  0  0  0  0  0  0  0  0  0
    0.2794    2.3395    0.0000 C   0  0  0  0  0  0  0  0  0  0  0  0
    1.7061    1.8762    0.0000 H   0  0  0  0  0  0  0  0  0  0  0  0
    0.9834    3.6640    0.0000 H   0  0  0  0  0  0  0  0  0  0  0  0
   -0.9027    3.2628    0.0000 H   0  0  0  0  0  0  0  0  0  0  0  0
   -1.7151    0.1256    0.0000 C   0  0  2  0  0  0  0  0  0  0  0  0
   -2.3228   -1.2458    0.0000 H   0  0  0  0  0  0  0  0  0  0  0  0
    0.5383   -1.7627    0.0000 C   0  0  0  0  0  0  0  0  0  0  0  0
    3.3003   -0.7553    0.0000 O   0  0  0  0  0  0  0  0  0  0  0  0
    0.2788   -3.2401    0.0000 O   0  0  0  0  0  0  0  0  0  0  0  0
    1.4285   -4.2035    0.0000 H   0  0  0  0  0  0  0  0  0  0  0  0
   -3.1451    0.5856    0.0000 N   0  0  0  0  0  0  0  0  0  0  0  0
   -4.6451    0.5856    0.0000 C   0  0  0  0  0  0  0  0  0  0  0  0
   -5.7058   -0.4750    0.0000 O   0  0  0  0  0  0  0  0  0  0  0  0
   -4.6451    2.0856    0.0000 C   0  0  2  0  0  0  0  0  0  0  0  0
   -4.6451    3.5856    0.0000 H   0  0  0  0  0  0  0  0  0  0  0  0
   -3.1451    2.0856    0.0000 C   0  0  1  0  0  0  0  0  0  0  0  0
   -3.3776    3.5675    0.0000 H   0  0  0  0  0  0  0  0  0  0  0  0
   -1.7151    2.5456    0.0000 S   0  0  0  0  0  0  0  0  0  0  0  0
   -6.1451    2.0856    0.0000 N   0  0  0  0  0  0  0  0  0  0  0  0
   -6.8951    0.7866    0.0000 H   0  0  0  0  0  0  0  0  0  0  0  0
   -7.1351    3.8004    0.0000 C   0  0  0  0  0  0  0  0  0  0  0  0
   -6.3851    5.0994    0.0000 O   0  0  0  0  0  0  0  0  0  0  0  0
   -8.6351    3.8004    0.0000 C   0  0  1  0  0  0  0  0  0  0  0  0
  -10.0447    3.2873    0.0000 H   0  0  0  0  0  0  0  0  0  0  0  0
  -10.1051    6.3465    0.0000 C   0  0  0  0  0  0  0  0  0  0  0  0
  -11.2549    5.3819    0.0000 C   0  0  0  0  0  0  0  0  0  0  0  0
  -10.9942    3.9047    0.0000 H   0  0  0  0  0  0  0  0  0  0  0  0
  -12.6655    5.8944    0.0000 C   0  0  0  0  0  0  0  0  0  0  0  0
  -13.8142    4.9298    0.0000 H   0  0  0  0  0  0  0  0  0  0  0  0
  -12.9263    7.3716    0.0000 C   0  0  0  0  0  0  0  0  0  0  0  0
  -14.3359    7.8846    0.0000 O   0  0  0  0  0  0  0  0  0  0  0  0
  -11.7765    8.3362    0.0000 C   0  0  0  0  0  0  0  0  0  0  0  0
  -12.0373    9.8133    0.0000 H   0  0  0  0  0  0  0  0  0  0  0  0
  -10.3659    7.8236    0.0000 C   0  0  0  0  0  0  0  0  0  0  0  0
   -9.2172    8.7882    0.0000 H   0  0  0  0  0  0  0  0  0  0  0  0
   -8.6956    6.8597    0.0000 O   0  0  0  0  0  0  0  0  0  0  0  0
   -8.4353    8.3369    0.0000 H   0  0  0  0  0  0  0  0  0  0  0  0
   -8.3747    2.3231    0.0000 N   0  0  0  0  0  0  0  0  0  0  0  0
   -9.5237    1.3590    0.0000 H   0  0  0  0  0  0  0  0  0  0  0  0
   -6.9651    1.8101    0.0000 H   0  0  0  0  0  0  0  0  0  0  0  0
  1  2  1  0  0  0  0 
  1  3  1  0  0  0  0 
  1  4  1  0  0  0  0 
  1  5  1  0  0  0  0 
  5  6  1  0  0  0  0 
  6  7  1  0  0  0  0 
  6  8  1  0  0  0  0 
  6  9  1  0  0  0  0 
  5 10  1  0  0  0  0 
 10 11  1  1  0  0  0 
 10 12  1  6  0  0  0 
 12 13  2  0  0  0  0 
 12 14  1  0  0  0  0 
 14 15  1  0  0  0  0 
 10 16  1  0  0  0  0 
 16 17  1  0  0  0  0 
 17 18  2  0  0  0  0 
 17 19  1  0  0  0  0 
 19 20  1  6  0  0  0 
 19 21  1  0  0  0  0 
 16 21  1  0  0  0  0 
 21 22  1  6  0  0  0 
 21 23  1  0  0  0  0 
  5 23  1  0  0  0  0 
 19 24  1  1  0  0  0 
 24 25  1  0  0  0  0 
 24 26  1  0  0  0  0 
 26 27  2  0  0  0  0 
 26 28  1  0  0  0  0 
 28 29  1  1  0  0  0 
 28 30  1  0  0  0  0 
 30 31  1  0  0  0  0 
 31 32  1  0  0  0  0 
 31 33  2  0  0  0  0 
 33 34  1  0  0  0  0 
 33 35  1  0  0  0  0 
 35 36  2  0  0  0  0 
 35 37  1  0  0  0  0 
 37 38  1  0  0  0  0 
 37 39  2  0  0  0  0 
 30 39  1  0  0  0  0 
 39 40  1  0  0  0  0 
 30 41  1  0  0  0  0 
 41 42  1  0  0  0  0 
 28 43  1  6  0  0  0 
 43 44  1  0  0  0  0 
 43 45  1  0  0  0  0 
M  END
> <Rank>
16

> <Priority_score>
0.0792

> <Reaction_type>
oxidation of 4-substituted phenol to quinone (substituent not a leaving group)

> <Parent_ID>
14

> <Parent_InChI>
InChI=1S/C16H19N3O5S/c1-16(2)11(15(23)24)19-13(22)10(14(19)25-16)18-12(21)9(17)7-3-5-8(20)6-4-7/h3-6,9-11,14,20H,17H2,1-2H3,(H,18,21)(H,23,24)

> <Parent_SMILES>
CC1(C)S[C@@H]2[C@H](NC(=O)[C@H](N)c3ccc(O)cc3)C(=O)N2[C@H]1C(=O)O

$$$$
Molecule 14_metabolite 17
  CDK     0516241031

 45 47  0  0  0  0  0  0  0  0999 V2000
    1.2109    0.2825    0.0000 C   0  0  0  0  0  0  0  0  0  0  0  0
    2.6376    0.7458    0.0000 H   0  0  0  0  0  0  0  0  0  0  0  0
   -0.3495   -0.9362    0.0000 H   0  0  0  0  0  0  0  0  0  0  0  0
    2.3655   -1.8897    0.0000 H   0  0  0  0  0  0  0  0  0  0  0  0
   -0.2603    1.6077    0.0000 C   0  0  0  0  0  0  0  0  0  0  0  0
    0.8543    2.6115    0.0000 C   0  0  0  0  0  0  0  0  0  0  0  0
    2.2809    2.1482    0.0000 H   0  0  0  0  0  0  0  0  0  0  0  0
    1.5583    3.9361    0.0000 H   0  0  0  0  0  0  0  0  0  0  0  0
   -0.3279    3.5348    0.0000 H   0  0  0  0  0  0  0  0  0  0  0  0
   -1.1403    0.3977    0.0000 C   0  0  2  0  0  0  0  0  0  0  0  0
   -1.7479   -0.9738    0.0000 H   0  0  0  0  0  0  0  0  0  0  0  0
    1.1131   -1.4907    0.0000 C   0  0  0  0  0  0  0  0  0  0  0  0
    3.8752   -0.4833    0.0000 O   0  0  0  0  0  0  0  0  0  0  0  0
    0.8536   -2.9680    0.0000 O   0  0  0  0  0  0  0  0  0  0  0  0
    2.0033   -3.9315    0.0000 H   0  0  0  0  0  0  0  0  0  0  0  0
   -2.5703    0.8577    0.0000 N   0  0  0  0  0  0  0  0  0  0  0  0
   -4.0703    0.8577    0.0000 C   0  0  0  0  0  0  0  0  0  0  0  0
   -5.1309   -0.2030    0.0000 O   0  0  0  0  0  0  0  0  0  0  0  0
   -4.0703    2.3577    0.0000 C   0  0  2  0  0  0  0  0  0  0  0  0
   -4.0703    3.8577    0.0000 H   0  0  0  0  0  0  0  0  0  0  0  0
   -2.5703    2.3577    0.0000 C   0  0  1  0  0  0  0  0  0  0  0  0
   -2.8028    3.8395    0.0000 H   0  0  0  0  0  0  0  0  0  0  0  0
   -1.1403    2.8177    0.0000 S   0  0  0  0  0  0  0  0  0  0  0  0
   -5.5703    2.3577    0.0000 N   0  0  0  0  0  0  0  0  0  0  0  0
   -6.3203    1.0586    0.0000 H   0  0  0  0  0  0  0  0  0  0  0  0
   -6.3203    3.6567    0.0000 C   0  0  0  0  0  0  0  0  0  0  0  0
   -5.5703    4.9557    0.0000 O   0  0  0  0  0  0  0  0  0  0  0  0
   -7.8203    3.6567    0.0000 C   0  0  1  0  0  0  0  0  0  0  0  0
  -10.1319    2.8153    0.0000 C   0  0  0  0  0  0  0  0  0  0  0  0
  -10.3851    1.3369    0.0000 C   0  0  0  0  0  0  0  0  0  0  0  0
   -9.2266    0.3840    0.0000 H   0  0  0  0  0  0  0  0  0  0  0  0
  -11.7635    0.8120    0.0000 C   0  0  0  0  0  0  0  0  0  0  0  0
  -11.9972   -0.6697    0.0000 H   0  0  0  0  0  0  0  0  0  0  0  0
  -12.9675    1.7791    0.0000 C   0  0  0  0  0  0  0  0  0  0  0  0
  -12.7143    3.2576    0.0000 C   0  0  0  0  0  0  0  0  0  0  0  0
  -13.8602    4.2256    0.0000 H   0  0  0  0  0  0  0  0  0  0  0  0
  -11.2571    3.7689    0.0000 C   0  0  0  0  0  0  0  0  0  0  0  0
  -10.8972    5.7160    0.0000 H   0  0  0  0  0  0  0  0  0  0  0  0
  -14.3702    1.2476    0.0000 O   0  0  0  0  0  0  0  0  0  0  0  0
  -15.5318    2.1965    0.0000 H   0  0  0  0  0  0  0  0  0  0  0  0
   -8.5703    4.9557    0.0000 N   0  0  0  0  0  0  0  0  0  0  0  0
  -10.0703    4.9557    0.0000 H   0  0  0  0  0  0  0  0  0  0  0  0
   -7.8203    6.2548    0.0000 H   0  0  0  0  0  0  0  0  0  0  0  0
   -7.5598    2.1795    0.0000 O   0  0  0  0  0  0  0  0  0  0  0  0
   -8.7089    1.2153    0.0000 H   0  0  0  0  0  0  0  0  0  0  0  0
  1  2  1  0  0  0  0 
  1  3  1  0  0  0  0 
  1  4  1  0  0  0  0 
  1  5  1  0  0  0  0 
  5  6  1  0  0  0  0 
  6  7  1  0  0  0  0 
  6  8  1  0  0  0  0 
  6  9  1  0  0  0  0 
  5 10  1  0  0  0  0 
 10 11  1  1  0  0  0 
 10 12  1  6  0  0  0 
 12 13  2  0  0  0  0 
 12 14  1  0  0  0  0 
 14 15  1  0  0  0  0 
 10 16  1  0  0  0  0 
 16 17  1  0  0  0  0 
 17 18  2  0  0  0  0 
 17 19  1  0  0  0  0 
 19 20  1  6  0  0  0 
 19 21  1  0  0  0  0 
 16 21  1  0  0  0  0 
 21 22  1  6  0  0  0 
 21 23  1  0  0  0  0 
  5 23  1  0  0  0  0 
 19 24  1  1  0  0  0 
 24 25  1  0  0  0  0 
 24 26  1  0  0  0  0 
 26 27  2  0  0  0  0 
 28 26  1  1  0  0  0 
 28 29  1  0  0  0  0 
 29 30  2  0  0  0  0 
 30 31  1  0  0  0  0 
 30 32  1  0  0  0  0 
 32 33  1  0  0  0  0 
 32 34  2  0  0  0  0 
 34 35  1  0  0  0  0 
 35 36  1  0  0  0  0 
 35 37  2  0  0  0  0 
 29 37  1  0  0  0  0 
 37 38  1  0  0  0  0 
 34 39  1  0  0  0  0 
 39 40  1  0  0  0  0 
 28 41  1  6  0  0  0 
 41 42  1  0  0  0  0 
 41 43  1  0  0  0  0 
 28 44  1  0  0  0  0 
 44 45  1  0  0  0  0 
M  END
> <Rank>
17

> <Priority_score>
0.076

> <Reaction_type>
aliphatic hydroxylation

> <Parent_ID>
14

> <Parent_InChI>
InChI=1S/C16H19N3O5S/c1-16(2)11(15(23)24)19-13(22)10(14(19)25-16)18-12(21)9(17)7-3-5-8(20)6-4-7/h3-6,9-11,14,20H,17H2,1-2H3,(H,18,21)(H,23,24)

> <Parent_SMILES>
CC1(C)S[C@@H]2[C@H](NC(=O)[C@H](N)c3ccc(O)cc3)C(=O)N2[C@H]1C(=O)O

$$$$
Molecule 14_metabolite 18
  CDK     0516241031

 41 43  0  0  0  0  0  0  0  0999 V2000
    0.6693    0.0709    0.0000 C   0  0  0  0  0  0  0  0  0  0  0  0
    2.0960    0.5342    0.0000 H   0  0  0  0  0  0  0  0  0  0  0  0
   -0.8911   -1.1478    0.0000 H   0  0  0  0  0  0  0  0  0  0  0  0
    1.5986   -1.6775    0.0000 H   0  0  0  0  0  0  0  0  0  0  0  0
   -0.8019    1.3960    0.0000 C   0  0  0  0  0  0  0  0  0  0  0  0
    0.3127    2.3999    0.0000 C   0  0  0  0  0  0  0  0  0  0  0  0
    1.7393    1.9366    0.0000 H   0  0  0  0  0  0  0  0  0  0  0  0
    1.0166    3.7244    0.0000 H   0  0  0  0  0  0  0  0  0  0  0  0
   -0.8695    3.3232    0.0000 H   0  0  0  0  0  0  0  0  0  0  0  0
   -1.6819    0.1860    0.0000 C   0  0  2  0  0  0  0  0  0  0  0  0
   -2.2895   -1.1854    0.0000 H   0  0  0  0  0  0  0  0  0  0  0  0
   -1.1695   -2.7090    0.0000 C   0  0  0  0  0  0  0  0  0  0  0  0
    1.5939   -3.7127    0.0000 O   0  0  0  0  0  0  0  0  0  0  0  0
   -2.3179   -3.6739    0.0000 O   0  0  0  0  0  0  0  0  0  0  0  0
   -2.0565   -5.1509    0.0000 H   0  0  0  0  0  0  0  0  0  0  0  0
   -3.1119    0.6460    0.0000 N   0  0  0  0  0  0  0  0  0  0  0  0
   -4.6119    0.6460    0.0000 C   0  0  0  0  0  0  0  0  0  0  0  0
   -5.6726   -0.4146    0.0000 O   0  0  0  0  0  0  0  0  0  0  0  0
   -4.6119    2.1460    0.0000 C   0  0  2  0  0  0  0  0  0  0  0  0
   -4.6119    3.6460    0.0000 H   0  0  0  0  0  0  0  0  0  0  0  0
   -3.1119    2.1460    0.0000 C   0  0  1  0  0  0  0  0  0  0  0  0
   -3.3444    3.6279    0.0000 H   0  0  0  0  0  0  0  0  0  0  0  0
   -1.6819    2.6060    0.0000 S   0  0  0  0  0  0  0  0  0  0  0  0
   -6.1119    2.1460    0.0000 N   0  0  0  0  0  0  0  0  0  0  0  0
   -6.8619    0.8470    0.0000 H   0  0  0  0  0  0  0  0  0  0  0  0
   -6.8619    3.4451    0.0000 C   0  0  0  0  0  0  0  0  0  0  0  0
   -6.1119    4.7441    0.0000 O   0  0  0  0  0  0  0  0  0  0  0  0
   -8.3619    3.4451    0.0000 C   0  0  0  0  0  0  0  0  0  0  0  0
   -9.1119    2.1460    0.0000 O   0  0  0  0  0  0  0  0  0  0  0  0
   -9.1119    4.7441    0.0000 C   0  0  0  0  0  0  0  0  0  0  0  0
  -10.6119    4.7367    0.0000 C   0  0  0  0  0  0  0  0  0  0  0  0
  -11.3491    3.4304    0.0000 H   0  0  0  0  0  0  0  0  0  0  0  0
  -11.3681    6.0030    0.0000 C   0  0  0  0  0  0  0  0  0  0  0  0
  -12.8679    5.9759    0.0000 H   0  0  0  0  0  0  0  0  0  0  0  0
  -10.6248    7.3567    0.0000 C   0  0  0  0  0  0  0  0  0  0  0  0
   -9.1248    7.3641    0.0000 C   0  0  0  0  0  0  0  0  0  0  0  0
   -8.3705    8.6606    0.0000 H   0  0  0  0  0  0  0  0  0  0  0  0
   -8.3682    6.0178    0.0000 C   0  0  0  0  0  0  0  0  0  0  0  0
   -6.8682    6.0054    0.0000 H   0  0  0  0  0  0  0  0  0  0  0  0
  -11.3918    8.6457    0.0000 O   0  0  0  0  0  0  0  0  0  0  0  0
  -12.8917    8.6260    0.0000 H   0  0  0  0  0  0  0  0  0  0  0  0
  1  2  1  0  0  0  0 
  1  3  1  0  0  0  0 
  1  4  1  0  0  0  0 
  1  5  1  0  0  0  0 
  5  6  1  0  0  0  0 
  6  7  1  0  0  0  0 
  6  8  1  0  0  0  0 
  6  9  1  0  0  0  0 
  5 10  1  0  0  0  0 
 10 11  1  1  0  0  0 
 10 12  1  6  0  0  0 
 12 13  2  0  0  0  0 
 12 14  1  0  0  0  0 
 14 15  1  0  0  0  0 
 10 16  1  0  0  0  0 
 16 17  1  0  0  0  0 
 17 18  2  0  0  0  0 
 17 19  1  0  0  0  0 
 19 20  1  6  0  0  0 
 19 21  1  0  0  0  0 
 16 21  1  0  0  0  0 
 21 22  1  6  0  0  0 
 21 23  1  0  0  0  0 
  5 23  1  0  0  0  0 
 19 24  1  1  0  0  0 
 24 25  1  0  0  0  0 
 24 26  1  0  0  0  0 
 26 27  2  0  0  0  0 
 26 28  1  0  0  0  0 
 28 29  2  0  0  0  0 
 28 30  1  0  0  0  0 
 30 31  2  0  0  0  0 
 31 32  1  0  0  0  0 
 31 33  1  0  0  0  0 
 33 34  1  0  0  0  0 
 33 35  2  0  0  0  0 
 35 36  1  0  0  0  0 
 36 37  1  0  0  0  0 
 36 38  2  0  0  0  0 
 30 38  1  0  0  0  0 
 38 39  1  0  0  0  0 
 35 40  1  0  0  0  0 
 40 41  1  0  0  0  0 
M  END
> <Rank>
17

> <Priority_score>
0.076

> <Reaction_type>
N-dealkylation

> <Parent_ID>
14

> <Parent_InChI>
InChI=1S/C16H19N3O5S/c1-16(2)11(15(23)24)19-13(22)10(14(19)25-16)18-12(21)9(17)7-3-5-8(20)6-4-7/h3-6,9-11,14,20H,17H2,1-2H3,(H,18,21)(H,23,24)

> <Parent_SMILES>
CC1(C)S[C@@H]2[C@H](NC(=O)[C@H](N)c3ccc(O)cc3)C(=O)N2[C@H]1C(=O)O

$$$$
Molecule 14_metabolite 19
  CDK     0516241031

 47 49  0  0  0  0  0  0  0  0999 V2000
    1.8439    4.6448    0.0000 C   0  0  0  0  0  0  0  0  0  0  0  0
    3.2705    4.1815    0.0000 H   0  0  0  0  0  0  0  0  0  0  0  0
    0.2834    5.8635    0.0000 H   0  0  0  0  0  0  0  0  0  0  0  0
    2.9984    6.8170    0.0000 H   0  0  0  0  0  0  0  0  0  0  0  0
    0.7293    3.6409    0.0000 C   0  0  0  0  0  0  0  0  0  0  0  0
    1.8439    2.6370    0.0000 C   0  0  0  0  0  0  0  0  0  0  0  0
    3.2705    3.1003    0.0000 H   0  0  0  0  0  0  0  0  0  0  0  0
    2.5479    1.3125    0.0000 H   0  0  0  0  0  0  0  0  0  0  0  0
    0.6617    1.7137    0.0000 H   0  0  0  0  0  0  0  0  0  0  0  0
   -0.1507    4.8509    0.0000 C   0  0  2  0  0  0  0  0  0  0  0  0
   -0.7583    6.2223    0.0000 H   0  0  0  0  0  0  0  0  0  0  0  0
    1.9806    6.0795    0.0000 C   0  0  0  0  0  0  0  0  0  0  0  0
    3.2791    5.3286    0.0000 O   0  0  0  0  0  0  0  0  0  0  0  0
    1.9816    7.5795    0.0000 O   0  0  0  0  0  0  0  0  0  0  0  0
    3.2811    8.3286    0.0000 H   0  0  0  0  0  0  0  0  0  0  0  0
   -1.5807    4.3909    0.0000 N   0  0  0  0  0  0  0  0  0  0  0  0
   -3.0807    4.3909    0.0000 C   0  0  0  0  0  0  0  0  0  0  0  0
   -4.1413    5.4515    0.0000 O   0  0  0  0  0  0  0  0  0  0  0  0
   -3.0807    2.8909    0.0000 C   0  0  2  0  0  0  0  0  0  0  0  0
   -3.0807    1.3909    0.0000 H   0  0  0  0  0  0  0  0  0  0  0  0
   -1.5807    2.8909    0.0000 C   0  0  1  0  0  0  0  0  0  0  0  0
   -1.8131    1.4090    0.0000 H   0  0  0  0  0  0  0  0  0  0  0  0
   -0.1507    2.4309    0.0000 S   0  0  0  0  0  0  0  0  0  0  0  0
   -4.5807    2.8909    0.0000 N   0  0  0  0  0  0  0  0  0  0  0  0
   -5.3307    4.1899    0.0000 H   0  0  0  0  0  0  0  0  0  0  0  0
   -5.3307    1.5918    0.0000 C   0  0  0  0  0  0  0  0  0  0  0  0
   -4.5807    0.2928    0.0000 O   0  0  0  0  0  0  0  0  0  0  0  0
   -6.8307    1.5918    0.0000 C   0  0  1  0  0  0  0  0  0  0  0  0
   -8.2402    1.0788    0.0000 H   0  0  0  0  0  0  0  0  0  0  0  0
   -6.4035   -0.8308    0.0000 C   0  0  0  0  0  0  0  0  0  0  0  0
   -4.9914   -1.3369    0.0000 C   0  0  0  0  0  0  0  0  0  0  0  0
   -3.8519   -0.3614    0.0000 H   0  0  0  0  0  0  0  0  0  0  0  0
   -4.7139   -2.7854    0.0000 C   0  0  0  0  0  0  0  0  0  0  0  0
   -3.2953   -3.2729    0.0000 H   0  0  0  0  0  0  0  0  0  0  0  0
   -5.8754   -3.8032    0.0000 C   0  0  0  0  0  0  0  0  0  0  0  0
   -7.2875   -3.2972    0.0000 C   0  0  0  0  0  0  0  0  0  0  0  0
   -8.4397   -4.2575    0.0000 H   0  0  0  0  0  0  0  0  0  0  0  0
   -7.5380   -1.7733    0.0000 C   0  0  0  0  0  0  0  0  0  0  0  0
   -8.9433   -1.2486    0.0000 H   0  0  0  0  0  0  0  0  0  0  0  0
   -5.5955   -5.2769    0.0000 O   0  0  0  0  0  0  0  0  0  0  0  0
   -6.7318   -6.2561    0.0000 C   0  0  0  0  0  0  0  0  0  0  0  0
   -6.4519   -7.7298    0.0000 H   0  0  0  0  0  0  0  0  0  0  0  0
   -7.4988   -4.9671    0.0000 H   0  0  0  0  0  0  0  0  0  0  0  0
   -8.1344   -6.7877    0.0000 H   0  0  0  0  0  0  0  0  0  0  0  0
   -7.5807    2.8909    0.0000 N   0  0  0  0  0  0  0  0  0  0  0  0
   -9.0807    2.8909    0.0000 H   0  0  0  0  0  0  0  0  0  0  0  0
   -6.8307    4.1899    0.0000 H   0  0  0  0  0  0  0  0  0  0  0  0
  1  2  1  0  0  0  0 
  1  3  1  0  0  0  0 
  1  4  1  0  0  0  0 
  1  5  1  0  0  0  0 
  5  6  1  0  0  0  0 
  6  7  1  0  0  0  0 
  6  8  1  0  0  0  0 
  6  9  1  0  0  0  0 
  5 10  1  0  0  0  0 
 10 11  1  6  0  0  0 
 10 12  1  1  0  0  0 
 12 13  2  0  0  0  0 
 12 14  1  0  0  0  0 
 14 15  1  0  0  0  0 
 10 16  1  0  0  0  0 
 16 17  1  0  0  0  0 
 17 18  2  0  0  0  0 
 17 19  1  0  0  0  0 
 19 20  1  1  0  0  0 
 19 21  1  0  0  0  0 
 16 21  1  0  0  0  0 
 21 22  1  1  0  0  0 
 21 23  1  0  0  0  0 
  5 23  1  0  0  0  0 
 19 24  1  6  0  0  0 
 24 25  1  0  0  0  0 
 24 26  1  0  0  0  0 
 26 27  2  0  0  0  0 
 26 28  1  0  0  0  0 
 28 29  1  6  0  0  0 
 28 30  1  0  0  0  0 
 30 31  2  0  0  0  0 
 31 32  1  0  0  0  0 
 31 33  1  0  0  0  0 
 33 34  1  0  0  0  0 
 33 35  2  0  0  0  0 
 35 36  1  0  0  0  0 
 36 37  1  0  0  0  0 
 36 38  2  0  0  0  0 
 30 38  1  0  0  0  0 
 38 39  1  0  0  0  0 
 35 40  1  0  0  0  0 
 40 41  1  0  0  0  0 
 41 42  1  0  0  0  0 
 41 43  1  0  0  0  0 
 41 44  1  0  0  0  0 
 28 45  1  1  0  0  0 
 45 46  1  0  0  0  0 
 45 47  1  0  0  0  0 
M  END
> <Rank>
17

> <Priority_score>
0.076

> <Reaction_type>
methylation_(aromatic_OH)

> <Parent_ID>
14

> <Parent_InChI>
InChI=1S/C16H19N3O5S/c1-16(2)11(15(23)24)19-13(22)10(14(19)25-16)18-12(21)9(17)7-3-5-8(20)6-4-7/h3-6,9-11,14,20H,17H2,1-2H3,(H,18,21)(H,23,24)

> <Parent_SMILES>
CC1(C)S[C@@H]2[C@H](NC(=O)[C@H](N)c3ccc(O)cc3)C(=O)N2[C@H]1C(=O)O

$$$$
Molecule 14_metabolite 20
  CDK     0516241031

 45 47  0  0  0  0  0  0  0  0999 V2000
    0.5973    5.3656    0.0000 C   0  0  0  0  0  0  0  0  0  0  0  0
    2.0239    4.9023    0.0000 H   0  0  0  0  0  0  0  0  0  0  0  0
   -0.9632    6.5843    0.0000 H   0  0  0  0  0  0  0  0  0  0  0  0
    1.7518    7.5378    0.0000 H   0  0  0  0  0  0  0  0  0  0  0  0
   -0.5173    4.3617    0.0000 C   0  0  0  0  0  0  0  0  0  0  0  0
    0.5973    3.3578    0.0000 C   0  0  0  0  0  0  0  0  0  0  0  0
    2.0239    3.8211    0.0000 H   0  0  0  0  0  0  0  0  0  0  0  0
    1.3013    2.0333    0.0000 H   0  0  0  0  0  0  0  0  0  0  0  0
   -0.5849    2.4345    0.0000 H   0  0  0  0  0  0  0  0  0  0  0  0
   -1.3973    5.5717    0.0000 C   0  0  2  0  0  0  0  0  0  0  0  0
   -2.0049    6.9431    0.0000 H   0  0  0  0  0  0  0  0  0  0  0  0
    0.7340    6.8003    0.0000 C   0  0  0  0  0  0  0  0  0  0  0  0
    3.2791    5.3286    0.0000 O   0  0  0  0  0  0  0  0  0  0  0  0
    0.7350    8.3003    0.0000 O   0  0  0  0  0  0  0  0  0  0  0  0
    2.0345    9.0494    0.0000 H   0  0  0  0  0  0  0  0  0  0  0  0
   -2.8273    5.1117    0.0000 N   0  0  0  0  0  0  0  0  0  0  0  0
   -4.3273    5.1117    0.0000 C   0  0  0  0  0  0  0  0  0  0  0  0
   -5.3879    6.1724    0.0000 O   0  0  0  0  0  0  0  0  0  0  0  0
   -4.3273    3.6117    0.0000 C   0  0  2  0  0  0  0  0  0  0  0  0
   -4.3273    2.1117    0.0000 H   0  0  0  0  0  0  0  0  0  0  0  0
   -2.8273    3.6117    0.0000 C   0  0  1  0  0  0  0  0  0  0  0  0
   -3.0597    2.1298    0.0000 H   0  0  0  0  0  0  0  0  0  0  0  0
   -1.3973    3.1517    0.0000 S   0  0  0  0  0  0  0  0  0  0  0  0
   -5.8273    3.6117    0.0000 N   0  0  0  0  0  0  0  0  0  0  0  0
   -6.5773    4.9107    0.0000 H   0  0  0  0  0  0  0  0  0  0  0  0
   -6.5773    2.3127    0.0000 C   0  0  0  0  0  0  0  0  0  0  0  0
   -5.8273    1.0136    0.0000 O   0  0  0  0  0  0  0  0  0  0  0  0
   -8.0773    2.3127    0.0000 C   0  0  1  0  0  0  0  0  0  0  0  0
   -9.4868    1.7996    0.0000 H   0  0  0  0  0  0  0  0  0  0  0  0
   -7.6501   -0.1100    0.0000 C   0  0  0  0  0  0  0  0  0  0  0  0
   -6.2380   -0.6160    0.0000 C   0  0  0  0  0  0  0  0  0  0  0  0
   -5.0985    0.3594    0.0000 H   0  0  0  0  0  0  0  0  0  0  0  0
   -5.9605   -2.0646    0.0000 C   0  0  0  0  0  0  0  0  0  0  0  0
   -4.5419   -2.5521    0.0000 H   0  0  0  0  0  0  0  0  0  0  0  0
   -7.1220   -3.0824    0.0000 C   0  0  0  0  0  0  0  0  0  0  0  0
   -8.5341   -2.5763    0.0000 C   0  0  0  0  0  0  0  0  0  0  0  0
   -9.6863   -3.5367    0.0000 H   0  0  0  0  0  0  0  0  0  0  0  0
   -8.7846   -1.0525    0.0000 C   0  0  0  0  0  0  0  0  0  0  0  0
  -10.1899   -0.5278    0.0000 H   0  0  0  0  0  0  0  0  0  0  0  0
   -6.8421   -4.5561    0.0000 O   0  0  0  0  0  0  0  0  0  0  0  0
   -7.9784   -5.5353    0.0000 H   0  0  0  0  0  0  0  0  0  0  0  0
   -8.8273    3.6117    0.0000 N   0  0  0  0  0  0  0  0  0  0  0  0
   -8.0773    4.9107    0.0000 H   0  0  0  0  0  0  0  0  0  0  0  0
  -10.3273    3.6117    0.0000 O   0  0  0  0  0  0  0  0  0  0  0  0
  -11.0773    4.9107    0.0000 H   0  0  0  0  0  0  0  0  0  0  0  0
  1  2  1  0  0  0  0 
  1  3  1  0  0  0  0 
  1  4  1  0  0  0  0 
  1  5  1  0  0  0  0 
  5  6  1  0  0  0  0 
  6  7  1  0  0  0  0 
  6  8  1  0  0  0  0 
  6  9  1  0  0  0  0 
  5 10  1  0  0  0  0 
 10 11  1  6  0  0  0 
 10 12  1  1  0  0  0 
 12 13  2  0  0  0  0 
 12 14  1  0  0  0  0 
 14 15  1  0  0  0  0 
 10 16  1  0  0  0  0 
 16 17  1  0  0  0  0 
 17 18  2  0  0  0  0 
 17 19  1  0  0  0  0 
 19 20  1  1  0  0  0 
 19 21  1  0  0  0  0 
 16 21  1  0  0  0  0 
 21 22  1  1  0  0  0 
 21 23  1  0  0  0  0 
  5 23  1  0  0  0  0 
 19 24  1  6  0  0  0 
 24 25  1  0  0  0  0 
 24 26  1  0  0  0  0 
 26 27  2  0  0  0  0 
 26 28  1  0  0  0  0 
 28 29  1  6  0  0  0 
 28 30  1  0  0  0  0 
 30 31  2  0  0  0  0 
 31 32  1  0  0  0  0 
 31 33  1  0  0  0  0 
 33 34  1  0  0  0  0 
 33 35  2  0  0  0  0 
 35 36  1  0  0  0  0 
 36 37  1  0  0  0  0 
 36 38  2  0  0  0  0 
 30 38  1  0  0  0  0 
 38 39  1  0  0  0  0 
 35 40  1  0  0  0  0 
 40 41  1  0  0  0  0 
 28 42  1  1  0  0  0 
 42 43  1  0  0  0  0 
 42 44  1  0  0  0  0 
 44 45  1  0  0  0  0 
M  END
> <Rank>
17

> <Priority_score>
0.076

> <Reaction_type>
amine hydroxylation

> <Parent_ID>
14

> <Parent_InChI>
InChI=1S/C16H19N3O5S/c1-16(2)11(15(23)24)19-13(22)10(14(19)25-16)18-12(21)9(17)7-3-5-8(20)6-4-7/h3-6,9-11,14,20H,17H2,1-2H3,(H,18,21)(H,23,24)

> <Parent_SMILES>
CC1(C)S[C@@H]2[C@H](NC(=O)[C@H](N)c3ccc(O)cc3)C(=O)N2[C@H]1C(=O)O

$$$$
Molecule 14_metabolite 21
  CDK     0516241031

 45 47  0  0  0  0  0  0  0  0999 V2000
    1.8439    4.6448    0.0000 C   0  0  0  0  0  0  0  0  0  0  0  0
    3.2705    4.1815    0.0000 H   0  0  0  0  0  0  0  0  0  0  0  0
    0.2834    5.8635    0.0000 H   0  0  0  0  0  0  0  0  0  0  0  0
    2.9984    6.8170    0.0000 H   0  0  0  0  0  0  0  0  0  0  0  0
    0.7293    3.6409    0.0000 C   0  0  0  0  0  0  0  0  0  0  0  0
    1.8439    2.6370    0.0000 C   0  0  0  0  0  0  0  0  0  0  0  0
    2.5479    1.3125    0.0000 H   0  0  0  0  0  0  0  0  0  0  0  0
    0.6617    1.7137    0.0000 H   0  0  0  0  0  0  0  0  0  0  0  0
    3.2705    3.1003    0.0000 O   0  0  0  0  0  0  0  0  0  0  0  0
    4.3851    2.0964    0.0000 H   0  0  0  0  0  0  0  0  0  0  0  0
   -0.1507    4.8509    0.0000 C   0  0  2  0  0  0  0  0  0  0  0  0
   -0.7583    6.2223    0.0000 H   0  0  0  0  0  0  0  0  0  0  0  0
    1.9806    6.0795    0.0000 C   0  0  0  0  0  0  0  0  0  0  0  0
    3.2791    5.3286    0.0000 O   0  0  0  0  0  0  0  0  0  0  0  0
    1.9816    7.5795    0.0000 O   0  0  0  0  0  0  0  0  0  0  0  0
    3.2811    8.3286    0.0000 H   0  0  0  0  0  0  0  0  0  0  0  0
   -1.5807    4.3909    0.0000 N   0  0  0  0  0  0  0  0  0  0  0  0
   -3.0807    4.3909    0.0000 C   0  0  0  0  0  0  0  0  0  0  0  0
   -4.1413    5.4515    0.0000 O   0  0  0  0  0  0  0  0  0  0  0  0
   -3.0807    2.8909    0.0000 C   0  0  2  0  0  0  0  0  0  0  0  0
   -3.0807    1.3909    0.0000 H   0  0  0  0  0  0  0  0  0  0  0  0
   -1.5807    2.8909    0.0000 C   0  0  1  0  0  0  0  0  0  0  0  0
   -1.8131    1.4090    0.0000 H   0  0  0  0  0  0  0  0  0  0  0  0
   -0.1507    2.4309    0.0000 S   0  0  0  0  0  0  0  0  0  0  0  0
   -4.5807    2.8909    0.0000 N   0  0  0  0  0  0  0  0  0  0  0  0
   -5.3307    4.1899    0.0000 H   0  0  0  0  0  0  0  0  0  0  0  0
   -5.3307    1.5918    0.0000 C   0  0  0  0  0  0  0  0  0  0  0  0
   -4.5807    0.2928    0.0000 O   0  0  0  0  0  0  0  0  0  0  0  0
   -6.8307    1.5918    0.0000 C   0  0  1  0  0  0  0  0  0  0  0  0
   -8.2402    1.0788    0.0000 H   0  0  0  0  0  0  0  0  0  0  0  0
   -6.4035   -0.8308    0.0000 C   0  0  0  0  0  0  0  0  0  0  0  0
   -4.9914   -1.3369    0.0000 C   0  0  0  0  0  0  0  0  0  0  0  0
   -3.8519   -0.3614    0.0000 H   0  0  0  0  0  0  0  0  0  0  0  0
   -4.7139   -2.7854    0.0000 C   0  0  0  0  0  0  0  0  0  0  0  0
   -3.2953   -3.2729    0.0000 H   0  0  0  0  0  0  0  0  0  0  0  0
   -5.8754   -3.8032    0.0000 C   0  0  0  0  0  0  0  0  0  0  0  0
   -7.2875   -3.2972    0.0000 C   0  0  0  0  0  0  0  0  0  0  0  0
   -8.4397   -4.2575    0.0000 H   0  0  0  0  0  0  0  0  0  0  0  0
   -7.5380   -1.7733    0.0000 C   0  0  0  0  0  0  0  0  0  0  0  0
   -8.9433   -1.2486    0.0000 H   0  0  0  0  0  0  0  0  0  0  0  0
   -5.5955   -5.2769    0.0000 O   0  0  0  0  0  0  0  0  0  0  0  0
   -6.7318   -6.2561    0.0000 H   0  0  0  0  0  0  0  0  0  0  0  0
   -7.5807    2.8909    0.0000 N   0  0  0  0  0  0  0  0  0  0  0  0
   -9.0807    2.8909    0.0000 H   0  0  0  0  0  0  0  0  0  0  0  0
   -6.8307    4.1899    0.0000 H   0  0  0  0  0  0  0  0  0  0  0  0
  1  2  1  0  0  0  0 
  1  3  1  0  0  0  0 
  1  4  1  0  0  0  0 
  1  5  1  0  0  0  0 
  5  6  1  0  0  0  0 
  6  7  1  0  0  0  0 
  6  8  1  0  0  0  0 
  6  9  1  0  0  0  0 
  9 10  1  0  0  0  0 
  5 11  1  0  0  0  0 
 11 12  1  6  0  0  0 
 11 13  1  1  0  0  0 
 13 14  2  0  0  0  0 
 13 15  1  0  0  0  0 
 15 16  1  0  0  0  0 
 11 17  1  0  0  0  0 
 17 18  1  0  0  0  0 
 18 19  2  0  0  0  0 
 18 20  1  0  0  0  0 
 20 21  1  1  0  0  0 
 20 22  1  0  0  0  0 
 17 22  1  0  0  0  0 
 22 23  1  1  0  0  0 
 22 24  1  0  0  0  0 
  5 24  1  0  0  0  0 
 20 25  1  6  0  0  0 
 25 26  1  0  0  0  0 
 25 27  1  0  0  0  0 
 27 28  2  0  0  0  0 
 27 29  1  0  0  0  0 
 29 30  1  6  0  0  0 
 29 31  1  0  0  0  0 
 31 32  2  0  0  0  0 
 32 33  1  0  0  0  0 
 32 34  1  0  0  0  0 
 34 35  1  0  0  0  0 
 34 36  2  0  0  0  0 
 36 37  1  0  0  0  0 
 37 38  1  0  0  0  0 
 37 39  2  0  0  0  0 
 31 39  1  0  0  0  0 
 39 40  1  0  0  0  0 
 36 41  1  0  0  0  0 
 41 42  1  0  0  0  0 
 29 43  1  1  0  0  0 
 43 44  1  0  0  0  0 
 43 45  1  0  0  0  0 
M  END
> <Rank>
21

> <Priority_score>
0.048

> <Reaction_type>
aliphatic_hydroxylation_(primary_carbon_next_to_quart_carbon)

> <Parent_ID>
14

> <Parent_InChI>
InChI=1S/C16H19N3O5S/c1-16(2)11(15(23)24)19-13(22)10(14(19)25-16)18-12(21)9(17)7-3-5-8(20)6-4-7/h3-6,9-11,14,20H,17H2,1-2H3,(H,18,21)(H,23,24)

> <Parent_SMILES>
CC1(C)S[C@@H]2[C@H](NC(=O)[C@H](N)c3ccc(O)cc3)C(=O)N2[C@H]1C(=O)O

$$$$
Molecule 14_metabolite 22
  CDK     0516241031

 44 46  0  0  0  0  0  0  0  0999 V2000
    0.5973    5.3656    0.0000 C   0  0  0  0  0  0  0  0  0  0  0  0
    2.0239    4.9023    0.0000 H   0  0  0  0  0  0  0  0  0  0  0  0
   -0.9632    6.5843    0.0000 H   0  0  0  0  0  0  0  0  0  0  0  0
    1.7518    7.5378    0.0000 H   0  0  0  0  0  0  0  0  0  0  0  0
   -0.5173    4.3617    0.0000 C   0  0  0  0  0  0  0  0  0  0  0  0
   -1.3973    5.5717    0.0000 C   0  0  2  0  0  0  0  0  0  0  0  0
   -2.0049    6.9431    0.0000 H   0  0  0  0  0  0  0  0  0  0  0  0
    0.7340    6.8003    0.0000 C   0  0  0  0  0  0  0  0  0  0  0  0
    3.2791    5.3286    0.0000 O   0  0  0  0  0  0  0  0  0  0  0  0
    0.7350    8.3003    0.0000 O   0  0  0  0  0  0  0  0  0  0  0  0
    2.0345    9.0494    0.0000 H   0  0  0  0  0  0  0  0  0  0  0  0
   -2.8273    5.1117    0.0000 N   0  0  0  0  0  0  0  0  0  0  0  0
   -4.3273    5.1117    0.0000 C   0  0  0  0  0  0  0  0  0  0  0  0
   -5.3879    6.1724    0.0000 O   0  0  0  0  0  0  0  0  0  0  0  0
   -4.3273    3.6117    0.0000 C   0  0  2  0  0  0  0  0  0  0  0  0
   -4.3273    2.1117    0.0000 H   0  0  0  0  0  0  0  0  0  0  0  0
   -2.8273    3.6117    0.0000 C   0  0  1  0  0  0  0  0  0  0  0  0
   -3.0597    2.1298    0.0000 H   0  0  0  0  0  0  0  0  0  0  0  0
   -1.3973    3.1517    0.0000 S   0  0  0  0  0  0  0  0  0  0  0  0
   -5.8273    3.6117    0.0000 N   0  0  0  0  0  0  0  0  0  0  0  0
   -6.5773    4.9107    0.0000 H   0  0  0  0  0  0  0  0  0  0  0  0
   -6.5773    2.3127    0.0000 C   0  0  0  0  0  0  0  0  0  0  0  0
   -5.8273    1.0136    0.0000 O   0  0  0  0  0  0  0  0  0  0  0  0
   -8.0773    2.3127    0.0000 C   0  0  1  0  0  0  0  0  0  0  0  0
   -9.4868    1.7996    0.0000 H   0  0  0  0  0  0  0  0  0  0  0  0
   -7.6501   -0.1100    0.0000 C   0  0  0  0  0  0  0  0  0  0  0  0
   -6.2380   -0.6160    0.0000 C   0  0  0  0  0  0  0  0  0  0  0  0
   -5.0985    0.3594    0.0000 H   0  0  0  0  0  0  0  0  0  0  0  0
   -5.9605   -2.0646    0.0000 C   0  0  0  0  0  0  0  0  0  0  0  0
   -4.5419   -2.5521    0.0000 H   0  0  0  0  0  0  0  0  0  0  0  0
   -7.1220   -3.0824    0.0000 C   0  0  0  0  0  0  0  0  0  0  0  0
   -8.5341   -2.5763    0.0000 C   0  0  0  0  0  0  0  0  0  0  0  0
   -9.6863   -3.5367    0.0000 H   0  0  0  0  0  0  0  0  0  0  0  0
   -8.7846   -1.0525    0.0000 C   0  0  0  0  0  0  0  0  0  0  0  0
  -10.1899   -0.5278    0.0000 H   0  0  0  0  0  0  0  0  0  0  0  0
   -6.8421   -4.5561    0.0000 O   0  0  0  0  0  0  0  0  0  0  0  0
   -7.9784   -5.5353    0.0000 H   0  0  0  0  0  0  0  0  0  0  0  0
   -8.8273    3.6117    0.0000 N   0  0  0  0  0  0  0  0  0  0  0  0
  -10.3273    3.6117    0.0000 H   0  0  0  0  0  0  0  0  0  0  0  0
   -8.0773    4.9107    0.0000 H   0  0  0  0  0  0  0  0  0  0  0  0
    0.5973    3.3578    0.0000 C   0  0  0  0  0  0  0  0  0  0  0  0
    0.2852    1.8907    0.0000 O   0  0  0  0  0  0  0  0  0  0  0  0
    2.0239    3.8211    0.0000 O   0  0  0  0  0  0  0  0  0  0  0  0
    3.1385    2.8173    0.0000 H   0  0  0  0  0  0  0  0  0  0  0  0
  1  2  1  0  0  0  0 
  1  3  1  0  0  0  0 
  1  4  1  0  0  0  0 
  1  5  1  0  0  0  0 
  5  6  1  0  0  0  0 
  6  7  1  6  0  0  0 
  6  8  1  1  0  0  0 
  8  9  2  0  0  0  0 
  8 10  1  0  0  0  0 
 10 11  1  0  0  0  0 
  6 12  1  0  0  0  0 
 12 13  1  0  0  0  0 
 13 14  2  0  0  0  0 
 13 15  1  0  0  0  0 
 15 16  1  1  0  0  0 
 15 17  1  0  0  0  0 
 12 17  1  0  0  0  0 
 17 18  1  1  0  0  0 
 17 19  1  0  0  0  0 
  5 19  1  0  0  0  0 
 15 20  1  6  0  0  0 
 20 21  1  0  0  0  0 
 20 22  1  0  0  0  0 
 22 23  2  0  0  0  0 
 22 24  1  0  0  0  0 
 24 25  1  6  0  0  0 
 24 26  1  0  0  0  0 
 26 27  2  0  0  0  0 
 27 28  1  0  0  0  0 
 27 29  1  0  0  0  0 
 29 30  1  0  0  0  0 
 29 31  2  0  0  0  0 
 31 32  1  0  0  0  0 
 32 33  1  0  0  0  0 
 32 34  2  0  0  0  0 
 26 34  1  0  0  0  0 
 34 35  1  0  0  0  0 
 31 36  1  0  0  0  0 
 36 37  1  0  0  0  0 
 24 38  1  1  0  0  0 
 38 39  1  0  0  0  0 
 38 40  1  0  0  0  0 
  5 41  1  0  0  0  0 
 41 42  2  0  0  0  0 
 41 43  1  0  0  0  0 
 43 44  1  0  0  0  0 
M  END
> <Rank>
21

> <Priority_score>
0.048

> <Reaction_type>
carboxylation_(primary_carbon_next_to_quart_carbon)

> <Parent_ID>
14

> <Parent_InChI>
InChI=1S/C16H19N3O5S/c1-16(2)11(15(23)24)19-13(22)10(14(19)25-16)18-12(21)9(17)7-3-5-8(20)6-4-7/h3-6,9-11,14,20H,17H2,1-2H3,(H,18,21)(H,23,24)

> <Parent_SMILES>
CC1(C)S[C@@H]2[C@H](NC(=O)[C@H](N)c3ccc(O)cc3)C(=O)N2[C@H]1C(=O)O

$$$$
Molecule 14_metabolite 23
  CDK     0516241031

 45 46  0  0  0  0  0  0  0  0999 V2000
    1.9096   -7.8648    0.0000 C   0  0  0  0  0  0  0  0  0  0  0  0
    3.3868   -7.6043    0.0000 H   0  0  0  0  0  0  0  0  0  0  0  0
    2.4226   -9.2743    0.0000 H   0  0  0  0  0  0  0  0  0  0  0  0
    0.6106   -8.6148    0.0000 H   0  0  0  0  0  0  0  0  0  0  0  0
    0.0198   -5.6126    0.0000 C   0  0  0  0  0  0  0  0  0  0  0  0
   -0.9444   -6.7617    0.0000 C   0  0  0  0  0  0  0  0  0  0  0  0
   -2.4216   -6.5012    0.0000 H   0  0  0  0  0  0  0  0  0  0  0  0
   -1.4574   -8.1712    0.0000 H   0  0  0  0  0  0  0  0  0  0  0  0
    0.3547   -7.5117    0.0000 H   0  0  0  0  0  0  0  0  0  0  0  0
    1.3188   -4.8626    0.0000 C   0  0  0  0  0  0  0  0  0  0  0  0
    2.6179   -5.6126    0.0000 O   0  0  0  0  0  0  0  0  0  0  0  0
    1.3188   -3.3626    0.0000 C   0  0  0  0  0  0  0  0  0  0  0  0
    0.0198   -2.6126    0.0000 O   0  0  0  0  0  0  0  0  0  0  0  0
    2.6179   -2.6126    0.0000 O   0  0  0  0  0  0  0  0  0  0  0  0
    2.6179   -1.1126    0.0000 H   0  0  0  0  0  0  0  0  0  0  0  0
   -1.2792   -4.8626    0.0000 S   0  0  0  0  0  0  0  0  0  0  0  0
   -1.2792   -3.3626    0.0000 C   0  0  2  0  0  0  0  0  0  0  0  0
    0.2208   -3.3626    0.0000 H   0  0  0  0  0  0  0  0  0  0  0  0
   -2.7792   -3.3626    0.0000 C   0  0  1  0  0  0  0  0  0  0  0  0
   -4.2792   -3.3626    0.0000 H   0  0  0  0  0  0  0  0  0  0  0  0
   -2.7792   -1.8626    0.0000 C   0  0  0  0  0  0  0  0  0  0  0  0
   -3.8399   -0.8020    0.0000 O   0  0  0  0  0  0  0  0  0  0  0  0
   -1.2792   -1.8626    0.0000 N   0  0  0  0  0  0  0  0  0  0  0  0
   -0.2186   -0.8020    0.0000 H   0  0  0  0  0  0  0  0  0  0  0  0
   -2.7792   -4.8626    0.0000 N   0  0  0  0  0  0  0  0  0  0  0  0
   -1.4802   -5.6126    0.0000 H   0  0  0  0  0  0  0  0  0  0  0  0
   -4.0783   -5.6126    0.0000 C   0  0  0  0  0  0  0  0  0  0  0  0
   -4.0783   -7.1126    0.0000 O   0  0  0  0  0  0  0  0  0  0  0  0
   -5.3773   -4.8626    0.0000 C   0  0  1  0  0  0  0  0  0  0  0  0
   -5.8903   -6.2722    0.0000 H   0  0  0  0  0  0  0  0  0  0  0  0
   -7.7999   -4.4355    0.0000 C   0  0  0  0  0  0  0  0  0  0  0  0
   -8.3060   -3.0234    0.0000 C   0  0  0  0  0  0  0  0  0  0  0  0
   -7.3306   -1.8839    0.0000 H   0  0  0  0  0  0  0  0  0  0  0  0
   -9.7546   -2.7459    0.0000 C   0  0  0  0  0  0  0  0  0  0  0  0
  -10.2420   -1.3273    0.0000 H   0  0  0  0  0  0  0  0  0  0  0  0
  -10.7724   -3.9074    0.0000 C   0  0  0  0  0  0  0  0  0  0  0  0
  -10.2663   -5.3194    0.0000 C   0  0  0  0  0  0  0  0  0  0  0  0
  -11.2267   -6.4717    0.0000 H   0  0  0  0  0  0  0  0  0  0  0  0
   -8.7424   -5.5700    0.0000 C   0  0  0  0  0  0  0  0  0  0  0  0
   -8.2178   -6.9752    0.0000 H   0  0  0  0  0  0  0  0  0  0  0  0
  -12.2461   -3.6275    0.0000 O   0  0  0  0  0  0  0  0  0  0  0  0
  -12.7405   -2.2113    0.0000 H   0  0  0  0  0  0  0  0  0  0  0  0
   -5.3773   -3.3626    0.0000 N   0  0  0  0  0  0  0  0  0  0  0  0
   -6.6764   -2.6126    0.0000 H   0  0  0  0  0  0  0  0  0  0  0  0
   -4.0783   -2.6126    0.0000 H   0  0  0  0  0  0  0  0  0  0  0  0
  1  2  1  0  0  0  0 
  1  3  1  0  0  0  0 
  1  4  1  0  0  0  0 
  1  5  1  0  0  0  0 
  5  6  1  0  0  0  0 
  6  7  1  0  0  0  0 
  6  8  1  0  0  0  0 
  6  9  1  0  0  0  0 
  5 10  1  0  0  0  0 
 10 11  2  0  0  0  0 
 10 12  1  0  0  0  0 
 12 13  2  0  0  0  0 
 12 14  1  0  0  0  0 
 14 15  1  0  0  0  0 
  5 16  1  0  0  0  0 
 17 16  1  6  0  0  0 
 17 18  1  1  0  0  0 
 17 19  1  0  0  0  0 
 19 20  1  1  0  0  0 
 19 21  1  0  0  0  0 
 21 22  2  0  0  0  0 
 21 23  1  0  0  0  0 
 17 23  1  0  0  0  0 
 23 24  1  0  0  0  0 
 19 25  1  6  0  0  0 
 25 26  1  0  0  0  0 
 25 27  1  0  0  0  0 
 27 28  2  0  0  0  0 
 29 27  1  1  0  0  0 
 29 30  1  6  0  0  0 
 29 31  1  0  0  0  0 
 31 32  2  0  0  0  0 
 32 33  1  0  0  0  0 
 32 34  1  0  0  0  0 
 34 35  1  0  0  0  0 
 34 36  2  0  0  0  0 
 36 37  1  0  0  0  0 
 37 38  1  0  0  0  0 
 37 39  2  0  0  0  0 
 31 39  1  0  0  0  0 
 39 40  1  0  0  0  0 
 36 41  1  0  0  0  0 
 41 42  1  0  0  0  0 
 29 43  1  0  0  0  0 
 43 44  1  0  0  0  0 
 43 45  1  0  0  0  0 
M  END
> <Rank>
23

> <Priority_score>
0.03955763604447045

> <Reaction_type>
N-dealkylation

> <Parent_ID>
14

> <Parent_InChI>
InChI=1S/C16H19N3O5S/c1-16(2)11(15(23)24)19-13(22)10(14(19)25-16)18-12(21)9(17)7-3-5-8(20)6-4-7/h3-6,9-11,14,20H,17H2,1-2H3,(H,18,21)(H,23,24)

> <Parent_SMILES>
CC1(C)S[C@@H]2[C@H](NC(=O)[C@H](N)c3ccc(O)cc3)C(=O)N2[C@H]1C(=O)O

$$$$
Molecule 14_metabolite 24
  CDK     0516241031

 45 46  0  0  0  0  0  0  0  0999 V2000
   -1.6785    5.2873    0.0000 C   0  0  0  0  0  0  0  0  0  0  0  0
   -0.2822    5.8353    0.0000 H   0  0  0  0  0  0  0  0  0  0  0  0
   -3.1780    5.2499    0.0000 H   0  0  0  0  0  0  0  0  0  0  0  0
   -1.9757    6.7576    0.0000 H   0  0  0  0  0  0  0  0  0  0  0  0
   -1.9020    3.8040    0.0000 C   0  0  0  0  0  0  0  0  0  0  0  0
    0.5511    3.9879    0.0000 C   0  0  0  0  0  0  0  0  0  0  0  0
    1.2019    5.3393    0.0000 H   0  0  0  0  0  0  0  0  0  0  0  0
    1.9950    3.5816    0.0000 H   0  0  0  0  0  0  0  0  0  0  0  0
    0.4017    2.4953    0.0000 H   0  0  0  0  0  0  0  0  0  0  0  0
   -1.4599    2.3707    0.0000 C   0  0  2  0  0  0  0  0  0  0  0  0
   -0.1609    3.1207    0.0000 H   0  0  0  0  0  0  0  0  0  0  0  0
   -0.1132    0.9192    0.0000 C   0  0  0  0  0  0  0  0  0  0  0  0
   -0.5553   -0.5141    0.0000 O   0  0  0  0  0  0  0  0  0  0  0  0
    1.3492    1.2530    0.0000 O   0  0  0  0  0  0  0  0  0  0  0  0
    2.3695    0.1534    0.0000 H   0  0  0  0  0  0  0  0  0  0  0  0
   -2.3049    1.1313    0.0000 N   0  0  0  0  0  0  0  0  0  0  0  0
   -1.5549   -0.1677    0.0000 H   0  0  0  0  0  0  0  0  0  0  0  0
   -3.8007    1.0192    0.0000 C   0  0  0  0  0  0  0  0  0  0  0  0
   -4.3487   -0.3771    0.0000 O   0  0  0  0  0  0  0  0  0  0  0  0
   -4.8210    2.1188    0.0000 C   0  0  2  0  0  0  0  0  0  0  0  0
   -5.6659    0.8795    0.0000 H   0  0  0  0  0  0  0  0  0  0  0  0
   -4.5974    3.6021    0.0000 C   0  0  0  0  0  0  0  0  0  0  0  0
   -5.8368    4.4470    0.0000 O   0  0  0  0  0  0  0  0  0  0  0  0
   -3.2984    4.3521    0.0000 S   0  0  0  0  0  0  0  0  0  0  0  0
   -6.6641    2.8422    0.0000 N   0  0  0  0  0  0  0  0  0  0  0  0
   -6.8877    4.3254    0.0000 H   0  0  0  0  0  0  0  0  0  0  0  0
   -7.8368    1.9070    0.0000 C   0  0  0  0  0  0  0  0  0  0  0  0
   -7.6133    0.4237    0.0000 O   0  0  0  0  0  0  0  0  0  0  0  0
   -9.2331    2.4550    0.0000 C   0  0  1  0  0  0  0  0  0  0  0  0
  -10.7327    2.4924    0.0000 H   0  0  0  0  0  0  0  0  0  0  0  0
   -9.7206    0.0437    0.0000 C   0  0  0  0  0  0  0  0  0  0  0  0
   -8.5910   -0.9432    0.0000 C   0  0  0  0  0  0  0  0  0  0  0  0
   -7.1739   -0.4515    0.0000 H   0  0  0  0  0  0  0  0  0  0  0  0
   -8.8619   -2.3931    0.0000 C   0  0  0  0  0  0  0  0  0  0  0  0
   -7.7195   -3.3651    0.0000 H   0  0  0  0  0  0  0  0  0  0  0  0
  -10.3150   -2.9162    0.0000 C   0  0  0  0  0  0  0  0  0  0  0  0
  -11.4445   -1.9292    0.0000 C   0  0  0  0  0  0  0  0  0  0  0  0
  -12.8680   -2.4022    0.0000 H   0  0  0  0  0  0  0  0  0  0  0  0
  -11.1210   -0.4191    0.0000 C   0  0  0  0  0  0  0  0  0  0  0  0
  -12.2374    0.5827    0.0000 H   0  0  0  0  0  0  0  0  0  0  0  0
  -10.5928   -4.3902    0.0000 O   0  0  0  0  0  0  0  0  0  0  0  0
  -12.0083   -4.8866    0.0000 H   0  0  0  0  0  0  0  0  0  0  0  0
   -9.4567    3.9382    0.0000 N   0  0  0  0  0  0  0  0  0  0  0  0
  -10.8530    4.4862    0.0000 H   0  0  0  0  0  0  0  0  0  0  0  0
   -8.2840    4.8734    0.0000 H   0  0  0  0  0  0  0  0  0  0  0  0
  1  2  1  0  0  0  0 
  1  3  1  0  0  0  0 
  1  4  1  0  0  0  0 
  1  5  1  0  0  0  0 
  5  6  1  0  0  0  0 
  6  7  1  0  0  0  0 
  6  8  1  0  0  0  0 
  6  9  1  0  0  0  0 
  5 10  1  0  0  0  0 
 10 11  1  1  0  0  0 
 10 12  1  6  0  0  0 
 12 13  2  0  0  0  0 
 12 14  1  0  0  0  0 
 14 15  1  0  0  0  0 
 10 16  1  0  0  0  0 
 16 17  1  0  0  0  0 
 16 18  1  0  0  0  0 
 18 19  2  0  0  0  0 
 18 20  1  0  0  0  0 
 20 21  1  6  0  0  0 
 20 22  1  0  0  0  0 
 22 23  2  0  0  0  0 
 22 24  1  0  0  0  0 
  5 24  1  0  0  0  0 
 20 25  1  1  0  0  0 
 25 26  1  0  0  0  0 
 25 27  1  0  0  0  0 
 27 28  2  0  0  0  0 
 27 29  1  0  0  0  0 
 29 30  1  6  0  0  0 
 29 31  1  0  0  0  0 
 31 32  2  0  0  0  0 
 32 33  1  0  0  0  0 
 32 34  1  0  0  0  0 
 34 35  1  0  0  0  0 
 34 36  2  0  0  0  0 
 36 37  1  0  0  0  0 
 37 38  1  0  0  0  0 
 37 39  2  0  0  0  0 
 31 39  1  0  0  0  0 
 39 40  1  0  0  0  0 
 36 41  1  0  0  0  0 
 41 42  1  0  0  0  0 
 29 43  1  1  0  0  0 
 43 44  1  0  0  0  0 
 43 45  1  0  0  0  0 
M  END
> <Rank>
23

> <Priority_score>
0.03955763604447045

> <Reaction_type>
N-dealkylation

> <Parent_ID>
14

> <Parent_InChI>
InChI=1S/C16H19N3O5S/c1-16(2)11(15(23)24)19-13(22)10(14(19)25-16)18-12(21)9(17)7-3-5-8(20)6-4-7/h3-6,9-11,14,20H,17H2,1-2H3,(H,18,21)(H,23,24)

> <Parent_SMILES>
CC1(C)S[C@@H]2[C@H](NC(=O)[C@H](N)c3ccc(O)cc3)C(=O)N2[C@H]1C(=O)O

$$$$
Molecule 14_metabolite 25
  CDK     0516241031

 42 45  0  0  0  0  0  0  0  0999 V2000
   -3.9844    6.1018    0.0000 C   0  0  0  0  0  0  0  0  0  0  0  0
   -4.2963    7.5690    0.0000 H   0  0  0  0  0  0  0  0  0  0  0  0
   -4.2600    4.1411    0.0000 H   0  0  0  0  0  0  0  0  0  0  0  0
   -6.4429    6.0159    0.0000 H   0  0  0  0  0  0  0  0  0  0  0  0
   -2.5579    5.6383    0.0000 C   0  0  0  0  0  0  0  0  0  0  0  0
   -2.2460    7.1055    0.0000 C   0  0  0  0  0  0  0  0  0  0  0  0
   -3.3607    8.1092    0.0000 H   0  0  0  0  0  0  0  0  0  0  0  0
   -1.4511    8.3776    0.0000 H   0  0  0  0  0  0  0  0  0  0  0  0
   -0.8552    6.5436    0.0000 H   0  0  0  0  0  0  0  0  0  0  0  0
   -3.1680    4.2679    0.0000 C   0  0  2  0  0  0  0  0  0  0  0  0
   -4.0496    3.0544    0.0000 H   0  0  0  0  0  0  0  0  0  0  0  0
   -5.2984    5.4979    0.0000 C   0  0  0  0  0  0  0  0  0  0  0  0
   -5.2984    8.4379    0.0000 O   0  0  0  0  0  0  0  0  0  0  0  0
   -6.5974    4.7479    0.0000 O   0  0  0  0  0  0  0  0  0  0  0  0
   -7.8965    5.4979    0.0000 H   0  0  0  0  0  0  0  0  0  0  0  0
   -2.0532    3.2642    0.0000 N   0  0  0  0  0  0  0  0  0  0  0  0
   -1.3032    1.9652    0.0000 C   0  0  0  0  0  0  0  0  0  0  0  0
   -1.6915    0.5163    0.0000 O   0  0  0  0  0  0  0  0  0  0  0  0
   -0.0042    2.7152    0.0000 C   0  0  2  0  0  0  0  0  0  0  0  0
    1.0565    1.6545    0.0000 H   0  0  0  0  0  0  0  0  0  0  0  0
   -0.7542    4.0142    0.0000 C   0  0  2  0  0  0  0  0  0  0  0  0
    0.7458    4.0142    0.0000 N   0  0  0  0  0  0  0  0  0  0  0  0
    2.0448    4.7642    0.0000 C   0  0  0  0  0  0  0  0  0  0  0  0
    2.0448    6.2642    0.0000 O   0  0  0  0  0  0  0  0  0  0  0  0
    3.3439    4.0142    0.0000 C   0  0  1  0  0  0  0  0  0  0  0  0
    4.8211    3.7538    0.0000 H   0  0  0  0  0  0  0  0  0  0  0  0
    4.1852    6.3259    0.0000 C   0  0  0  0  0  0  0  0  0  0  0  0
    3.2154    7.4702    0.0000 C   0  0  0  0  0  0  0  0  0  0  0  0
    1.7408    7.1952    0.0000 H   0  0  0  0  0  0  0  0  0  0  0  0
    3.6993    8.8635    0.0000 C   0  0  0  0  0  0  0  0  0  0  0  0
    2.7145    9.9949    0.0000 H   0  0  0  0  0  0  0  0  0  0  0  0
    5.2141    9.1642    0.0000 C   0  0  0  0  0  0  0  0  0  0  0  0
    6.1840    8.0198    0.0000 C   0  0  0  0  0  0  0  0  0  0  0  0
    7.6620    8.2754    0.0000 H   0  0  0  0  0  0  0  0  0  0  0  0
    5.6390    6.5749    0.0000 C   0  0  0  0  0  0  0  0  0  0  0  0
    6.5937    5.4179    0.0000 H   0  0  0  0  0  0  0  0  0  0  0  0
    5.7086   10.5803    0.0000 O   0  0  0  0  0  0  0  0  0  0  0  0
    7.1822   10.8602    0.0000 H   0  0  0  0  0  0  0  0  0  0  0  0
    3.3439    2.5142    0.0000 N   0  0  0  0  0  0  0  0  0  0  0  0
    4.6429    1.7642    0.0000 H   0  0  0  0  0  0  0  0  0  0  0  0
    2.0448    1.7642    0.0000 H   0  0  0  0  0  0  0  0  0  0  0  0
   -1.0661    5.4815    0.0000 S   0  0  0  0  0  0  0  0  0  0  0  0
  1  2  1  0  0  0  0 
  1  3  1  0  0  0  0 
  1  4  1  0  0  0  0 
  1  5  1  0  0  0  0 
  5  6  1  0  0  0  0 
  6  7  1  0  0  0  0 
  6  8  1  0  0  0  0 
  6  9  1  0  0  0  0 
  5 10  1  0  0  0  0 
 10 11  1  6  0  0  0 
 10 12  1  1  0  0  0 
 12 13  2  0  0  0  0 
 12 14  1  0  0  0  0 
 14 15  1  0  0  0  0 
 10 16  1  0  0  0  0 
 16 17  1  0  0  0  0 
 17 18  2  0  0  0  0 
 17 19  1  0  0  0  0 
 19 20  1  1  0  0  0 
 19 21  1  0  0  0  0 
 21 16  1  1  0  0  0 
 21 22  1  0  0  0  0 
 19 22  1  0  0  0  0 
 22 23  1  0  0  0  0 
 23 24  2  0  0  0  0 
 23 25  1  0  0  0  0 
 25 26  1  6  0  0  0 
 25 27  1  0  0  0  0 
 27 28  2  0  0  0  0 
 28 29  1  0  0  0  0 
 28 30  1  0  0  0  0 
 30 31  1  0  0  0  0 
 30 32  2  0  0  0  0 
 32 33  1  0  0  0  0 
 33 34  1  0  0  0  0 
 33 35  2  0  0  0  0 
 27 35  1  0  0  0  0 
 35 36  1  0  0  0  0 
 32 37  1  0  0  0  0 
 37 38  1  0  0  0  0 
 25 39  1  1  0  0  0 
 39 40  1  0  0  0  0 
 39 41  1  0  0  0  0 
 21 42  1  6  0  0  0 
  5 42  1  0  0  0  0 
M  END
> <Rank>
25

> <Priority_score>
0.0352

> <Reaction_type>
cyclization to 5-membered NCN ring

> <Parent_ID>
14

> <Parent_InChI>
InChI=1S/C16H19N3O5S/c1-16(2)11(15(23)24)19-13(22)10(14(19)25-16)18-12(21)9(17)7-3-5-8(20)6-4-7/h3-6,9-11,14,20H,17H2,1-2H3,(H,18,21)(H,23,24)

> <Parent_SMILES>
CC1(C)S[C@@H]2[C@H](NC(=O)[C@H](N)c3ccc(O)cc3)C(=O)N2[C@H]1C(=O)O

$$$$
Molecule 14_metabolite 26
  CDK     0516241031

 42 45  0  0  0  0  0  0  0  0999 V2000
   -8.6169    4.5532    0.0000 C   0  0  0  0  0  0  0  0  0  0  0  0
   -7.2664    5.2061    0.0000 H   0  0  0  0  0  0  0  0  0  0  0  0
  -10.1092    4.4015    0.0000 H   0  0  0  0  0  0  0  0  0  0  0  0
   -9.0254    5.9965    0.0000 H   0  0  0  0  0  0  0  0  0  0  0  0
   -8.7266    3.0572    0.0000 C   0  0  0  0  0  0  0  0  0  0  0  0
   -6.2679    3.1346    0.0000 C   0  0  0  0  0  0  0  0  0  0  0  0
   -5.5591    4.4566    0.0000 H   0  0  0  0  0  0  0  0  0  0  0  0
   -4.8429    2.6662    0.0000 H   0  0  0  0  0  0  0  0  0  0  0  0
   -6.4817    1.6499    0.0000 H   0  0  0  0  0  0  0  0  0  0  0  0
   -8.5230    1.5711    0.0000 C   0  0  1  0  0  0  0  0  0  0  0  0
   -7.1725    2.2240    0.0000 C   0  0  0  0  0  0  0  0  0  0  0  0
   -7.0628    3.7200    0.0000 O   0  0  0  0  0  0  0  0  0  0  0  0
   -5.5349    1.1112    0.0000 O   0  0  0  0  0  0  0  0  0  0  0  0
   -4.1844    1.7641    0.0000 H   0  0  0  0  0  0  0  0  0  0  0  0
   -7.4847    0.4885    0.0000 N   0  0  0  0  0  0  0  0  0  0  0  0
  -11.9943    0.9625    0.0000 C   0  0  2  0  0  0  0  0  0  0  0  0
  -13.4940    0.9938    0.0000 H   0  0  0  0  0  0  0  0  0  0  0  0
  -10.9560   -0.1201    0.0000 C   0  0  0  0  0  0  0  0  0  0  0  0
  -10.9873   -1.6198    0.0000 O   0  0  0  0  0  0  0  0  0  0  0  0
   -9.8734    0.9182    0.0000 N   0  0  0  0  0  0  0  0  0  0  0  0
  -10.9117    2.0007    0.0000 C   0  0  2  0  0  0  0  0  0  0  0  0
  -12.1065    2.9076    0.0000 H   0  0  0  0  0  0  0  0  0  0  0  0
  -10.2029    3.3227    0.0000 S   0  0  0  0  0  0  0  0  0  0  0  0
   -5.7066   -0.3825    0.0000 C   0  0  0  0  0  0  0  0  0  0  0  0
   -3.6648    0.9896    0.0000 O   0  0  0  0  0  0  0  0  0  0  0  0
   -5.5392   -2.8368    0.0000 C   0  0  1  0  0  0  0  0  0  0  0  0
   -4.9315   -4.2082    0.0000 H   0  0  0  0  0  0  0  0  0  0  0  0
   -4.0831   -2.4765    0.0000 C   0  0  0  0  0  0  0  0  0  0  0  0
   -3.6743   -1.0332    0.0000 C   0  0  0  0  0  0  0  0  0  0  0  0
   -4.7250    0.0373    0.0000 H   0  0  0  0  0  0  0  0  0  0  0  0
   -2.2480   -0.6578    0.0000 C   0  0  0  0  0  0  0  0  0  0  0  0
   -1.8582    0.7907    0.0000 H   0  0  0  0  0  0  0  0  0  0  0  0
   -1.1535   -1.7473    0.0000 C   0  0  0  0  0  0  0  0  0  0  0  0
   -1.5623   -3.1906    0.0000 C   0  0  0  0  0  0  0  0  0  0  0  0
   -0.5258   -4.2748    0.0000 H   0  0  0  0  0  0  0  0  0  0  0  0
   -3.0656   -3.5442    0.0000 C   0  0  0  0  0  0  0  0  0  0  0  0
   -3.4935   -4.9819    0.0000 H   0  0  0  0  0  0  0  0  0  0  0  0
    0.2977   -1.3678    0.0000 O   0  0  0  0  0  0  0  0  0  0  0  0
    1.3520   -2.4348    0.0000 H   0  0  0  0  0  0  0  0  0  0  0  0
   -6.7842   -3.6735    0.0000 N   0  0  0  0  0  0  0  0  0  0  0  0
   -6.6821   -5.1700    0.0000 H   0  0  0  0  0  0  0  0  0  0  0  0
   -8.1313   -3.0136    0.0000 H   0  0  0  0  0  0  0  0  0  0  0  0
  1  2  1  0  0  0  0 
  1  3  1  0  0  0  0 
  1  4  1  0  0  0  0 
  1  5  1  0  0  0  0 
  5  6  1  0  0  0  0 
  6  7  1  0  0  0  0 
  6  8  1  0  0  0  0 
  6  9  1  0  0  0  0 
  5 10  1  0  0  0  0 
 10 11  1  6  0  0  0 
 11 12  2  0  0  0  0 
 11 13  1  0  0  0  0 
 13 14  1  0  0  0  0 
 10 15  1  0  0  0  0 
 15 16  1  0  0  0  0 
 16 17  1  1  0  0  0 
 16 18  1  0  0  0  0 
 18 19  2  0  0  0  0 
 18 20  1  0  0  0  0 
 10 20  1  0  0  0  0 
 20 21  1  0  0  0  0 
 16 21  1  0  0  0  0 
 21 22  1  6  0  0  0 
 21 23  1  0  0  0  0 
  5 23  1  0  0  0  0 
 15 24  1  0  0  0  0 
 24 25  2  0  0  0  0 
 24 26  1  0  0  0  0 
 26 27  1  6  0  0  0 
 26 28  1  0  0  0  0 
 28 29  2  0  0  0  0 
 29 30  1  0  0  0  0 
 29 31  1  0  0  0  0 
 31 32  1  0  0  0  0 
 31 33  2  0  0  0  0 
 33 34  1  0  0  0  0 
 34 35  1  0  0  0  0 
 34 36  2  0  0  0  0 
 28 36  1  0  0  0  0 
 36 37  1  0  0  0  0 
 33 38  1  0  0  0  0 
 38 39  1  0  0  0  0 
 26 40  1  1  0  0  0 
 40 41  1  0  0  0  0 
 40 42  1  0  0  0  0 
M  END
> <Rank>
25

> <Priority_score>
0.0352

> <Reaction_type>
cyclization to 5-membered NCN ring

> <Parent_ID>
14

> <Parent_InChI>
InChI=1S/C16H19N3O5S/c1-16(2)11(15(23)24)19-13(22)10(14(19)25-16)18-12(21)9(17)7-3-5-8(20)6-4-7/h3-6,9-11,14,20H,17H2,1-2H3,(H,18,21)(H,23,24)

> <Parent_SMILES>
CC1(C)S[C@@H]2[C@H](NC(=O)[C@H](N)c3ccc(O)cc3)C(=O)N2[C@H]1C(=O)O

$$$$
Molecule 14_metabolite 27
  CDK     0516241031

 44 45  0  0  0  0  0  0  0  0999 V2000
    9.4792   -5.4698    0.0000 C   0  0  0  0  0  0  0  0  0  0  0  0
   10.0912   -4.1003    0.0000 H   0  0  0  0  0  0  0  0  0  0  0  0
    9.3384   -7.4448    0.0000 H   0  0  0  0  0  0  0  0  0  0  0  0
   11.8653   -6.0682    0.0000 H   0  0  0  0  0  0  0  0  0  0  0  0
    7.5098   -5.6741    0.0000 C   0  0  0  0  0  0  0  0  0  0  0  0
    7.5152   -4.1741    0.0000 C   0  0  0  0  0  0  0  0  0  0  0  0
    8.8169   -3.4288    0.0000 H   0  0  0  0  0  0  0  0  0  0  0  0
    6.0371   -4.4292    0.0000 H   0  0  0  0  0  0  0  0  0  0  0  0
    7.0073   -2.7627    0.0000 H   0  0  0  0  0  0  0  0  0  0  0  0
    7.8214   -7.1338    0.0000 C   0  0  2  0  0  0  0  0  0  0  0  0
    8.4319   -8.5040    0.0000 H   0  0  0  0  0  0  0  0  0  0  0  0
   10.7326   -6.7230    0.0000 C   0  0  0  0  0  0  0  0  0  0  0  0
   11.8323   -3.9964    0.0000 O   0  0  0  0  0  0  0  0  0  0  0  0
   11.6567   -7.9044    0.0000 O   0  0  0  0  0  0  0  0  0  0  0  0
   13.1420   -7.6948    0.0000 H   0  0  0  0  0  0  0  0  0  0  0  0
    6.5224   -7.8838    0.0000 N   0  0  0  0  0  0  0  0  0  0  0  0
    6.3649   -9.3756    0.0000 C   0  0  0  0  0  0  0  0  0  0  0  0
    4.9943   -9.9851    0.0000 H   0  0  0  0  0  0  0  0  0  0  0  0
    7.5781  -10.2578    0.0000 O   0  0  0  0  0  0  0  0  0  0  0  0
    5.4140   -6.8841    0.0000 C   0  0  0  0  0  0  0  0  0  0  0  0
    3.9476   -7.1996    0.0000 C   0  0  0  0  0  0  0  0  0  0  0  0
    3.4876   -8.6273    0.0000 H   0  0  0  0  0  0  0  0  0  0  0  0
    2.9411   -6.0874    0.0000 N   0  0  0  0  0  0  0  0  0  0  0  0
    3.4011   -4.6597    0.0000 H   0  0  0  0  0  0  0  0  0  0  0  0
    1.4746   -6.4029    0.0000 C   0  0  0  0  0  0  0  0  0  0  0  0
    1.0147   -7.8306    0.0000 O   0  0  0  0  0  0  0  0  0  0  0  0
    0.4682   -5.2907    0.0000 C   0  0  1  0  0  0  0  0  0  0  0  0
    1.7383   -4.4927    0.0000 H   0  0  0  0  0  0  0  0  0  0  0  0
   -0.4590   -3.0121    0.0000 C   0  0  0  0  0  0  0  0  0  0  0  0
   -1.9459   -2.8144    0.0000 C   0  0  0  0  0  0  0  0  0  0  0  0
   -2.8548   -4.0077    0.0000 H   0  0  0  0  0  0  0  0  0  0  0  0
   -2.5220   -1.4566    0.0000 C   0  0  0  0  0  0  0  0  0  0  0  0
   -4.0114   -1.2785    0.0000 H   0  0  0  0  0  0  0  0  0  0  0  0
   -1.6005   -0.2172    0.0000 C   0  0  0  0  0  0  0  0  0  0  0  0
   -0.1136   -0.4150    0.0000 C   0  0  0  0  0  0  0  0  0  0  0  0
    0.8108    0.7662    0.0000 H   0  0  0  0  0  0  0  0  0  0  0  0
    0.4518   -1.8521    0.0000 C   0  0  0  0  0  0  0  0  0  0  0  0
    1.9360   -2.0694    0.0000 H   0  0  0  0  0  0  0  0  0  0  0  0
   -2.1842    1.1646    0.0000 O   0  0  0  0  0  0  0  0  0  0  0  0
   -3.6727    1.3500    0.0000 H   0  0  0  0  0  0  0  0  0  0  0  0
   -0.9983   -5.6062    0.0000 N   0  0  0  0  0  0  0  0  0  0  0  0
   -2.0047   -4.4940    0.0000 H   0  0  0  0  0  0  0  0  0  0  0  0
   -1.4582   -7.0340    0.0000 H   0  0  0  0  0  0  0  0  0  0  0  0
    6.0169   -5.5083    0.0000 S   0  0  0  0  0  0  0  0  0  0  0  0
  1  2  1  0  0  0  0 
  1  3  1  0  0  0  0 
  1  4  1  0  0  0  0 
  1  5  1  0  0  0  0 
  5  6  1  0  0  0  0 
  6  7  1  0  0  0  0 
  6  8  1  0  0  0  0 
  6  9  1  0  0  0  0 
  5 10  1  0  0  0  0 
 10 11  1  1  0  0  0 
 10 12  1  6  0  0  0 
 12 13  2  0  0  0  0 
 12 14  1  0  0  0  0 
 14 15  1  0  0  0  0 
 10 16  1  0  0  0  0 
 16 17  1  0  0  0  0 
 17 18  1  0  0  0  0 
 17 19  2  0  0  0  0 
 16 20  1  0  0  0  0 
 20 21  2  0  0  0  0 
 21 22  1  4  0  0  0 
 21 23  1  0  0  0  0 
 23 24  1  0  0  0  0 
 23 25  1  0  0  0  0 
 25 26  2  0  0  0  0 
 27 25  1  6  0  0  0 
 27 28  1  1  0  0  0 
 27 29  1  0  0  0  0 
 29 30  2  0  0  0  0 
 30 31  1  0  0  0  0 
 30 32  1  0  0  0  0 
 32 33  1  0  0  0  0 
 32 34  2  0  0  0  0 
 34 35  1  0  0  0  0 
 35 36  1  0  0  0  0 
 35 37  2  0  0  0  0 
 29 37  1  0  0  0  0 
 37 38  1  0  0  0  0 
 34 39  1  0  0  0  0 
 39 40  1  0  0  0  0 
 27 41  1  0  0  0  0 
 41 42  1  0  0  0  0 
 41 43  1  0  0  0  0 
 20 44  1  0  0  0  0 
  5 44  1  0  0  0  0 
M  END
> <Rank>
25

> <Priority_score>
0.0352

> <Reaction_type>
deformylation

> <Parent_ID>
14

> <Parent_InChI>
InChI=1S/C16H19N3O5S/c1-16(2)11(15(23)24)19-13(22)10(14(19)25-16)18-12(21)9(17)7-3-5-8(20)6-4-7/h3-6,9-11,14,20H,17H2,1-2H3,(H,18,21)(H,23,24)

> <Parent_SMILES>
CC1(C)S[C@@H]2[C@H](NC(=O)[C@H](N)c3ccc(O)cc3)C(=O)N2[C@H]1C(=O)O

$$$$
Molecule 14_metabolite 28
  CDK     0516241031

 45 46  0  0  0  0  0  0  0  0999 V2000
   -7.9198    3.8782    0.0000 C   0  0  0  0  0  0  0  0  0  0  0  0
   -7.5315    5.3271    0.0000 H   0  0  0  0  0  0  0  0  0  0  0  0
   -8.7801    2.6495    0.0000 H   0  0  0  0  0  0  0  0  0  0  0  0
   -9.2792    4.5121    0.0000 H   0  0  0  0  0  0  0  0  0  0  0  0
   -6.5197    2.4781    0.0000 C   0  0  0  0  0  0  0  0  0  0  0  0
   -5.6593    3.7068    0.0000 C   0  0  0  0  0  0  0  0  0  0  0  0
   -6.2933    5.0663    0.0000 H   0  0  0  0  0  0  0  0  0  0  0  0
   -4.4306    4.5672    0.0000 H   0  0  0  0  0  0  0  0  0  0  0  0
   -4.5987    2.6462    0.0000 H   0  0  0  0  0  0  0  0  0  0  0  0
   -6.9079    1.0292    0.0000 C   0  0  2  0  0  0  0  0  0  0  0  0
   -7.7683   -0.1995    0.0000 H   0  0  0  0  0  0  0  0  0  0  0  0
   -8.2674    1.6632    0.0000 C   0  0  0  0  0  0  0  0  0  0  0  0
   -7.6335    3.0226    0.0000 O   0  0  0  0  0  0  0  0  0  0  0  0
   -9.4961    0.8028    0.0000 O   0  0  0  0  0  0  0  0  0  0  0  0
  -10.8556    1.4367    0.0000 H   0  0  0  0  0  0  0  0  0  0  0  0
   -5.8473   -0.0314    0.0000 N   0  0  0  0  0  0  0  0  0  0  0  0
   -5.8473   -1.5314    0.0000 C   0  0  0  0  0  0  0  0  0  0  0  0
   -6.9079   -2.5921    0.0000 O   0  0  0  0  0  0  0  0  0  0  0  0
   -4.3473   -1.5314    0.0000 C   0  0  2  0  0  0  0  0  0  0  0  0
   -2.8473   -1.5314    0.0000 H   0  0  0  0  0  0  0  0  0  0  0  0
   -4.3473   -0.0314    0.0000 C   0  0  0  0  0  0  0  0  0  0  0  0
   -3.2866    1.0292    0.0000 O   0  0  0  0  0  0  0  0  0  0  0  0
   -4.3473   -3.0314    0.0000 N   0  0  0  0  0  0  0  0  0  0  0  0
   -5.6463   -3.7814    0.0000 H   0  0  0  0  0  0  0  0  0  0  0  0
   -3.0482   -3.7814    0.0000 C   0  0  0  0  0  0  0  0  0  0  0  0
   -1.7492   -3.0314    0.0000 O   0  0  0  0  0  0  0  0  0  0  0  0
   -3.0482   -5.2814    0.0000 C   0  0  1  0  0  0  0  0  0  0  0  0
   -2.5352   -6.6910    0.0000 H   0  0  0  0  0  0  0  0  0  0  0  0
   -0.6256   -4.8543    0.0000 C   0  0  0  0  0  0  0  0  0  0  0  0
   -0.1195   -3.4422    0.0000 C   0  0  0  0  0  0  0  0  0  0  0  0
   -1.0950   -2.3027    0.0000 H   0  0  0  0  0  0  0  0  0  0  0  0
    1.3291   -3.1647    0.0000 C   0  0  0  0  0  0  0  0  0  0  0  0
    1.8165   -1.7461    0.0000 H   0  0  0  0  0  0  0  0  0  0  0  0
    2.3469   -4.3262    0.0000 C   0  0  0  0  0  0  0  0  0  0  0  0
    1.8408   -5.7382    0.0000 C   0  0  0  0  0  0  0  0  0  0  0  0
    2.8011   -6.8905    0.0000 H   0  0  0  0  0  0  0  0  0  0  0  0
    0.3169   -5.9888    0.0000 C   0  0  0  0  0  0  0  0  0  0  0  0
   -0.2078   -7.3940    0.0000 H   0  0  0  0  0  0  0  0  0  0  0  0
    3.8205   -4.0463    0.0000 O   0  0  0  0  0  0  0  0  0  0  0  0
    4.7997   -5.1825    0.0000 H   0  0  0  0  0  0  0  0  0  0  0  0
   -4.3473   -6.0314    0.0000 N   0  0  0  0  0  0  0  0  0  0  0  0
   -4.3473   -7.5314    0.0000 H   0  0  0  0  0  0  0  0  0  0  0  0
   -5.6463   -5.2814    0.0000 H   0  0  0  0  0  0  0  0  0  0  0  0
   -5.1602    1.8442    0.0000 S   0  0  0  0  0  0  0  0  0  0  0  0
   -3.5383    2.9799    0.0000 H   0  0  0  0  0  0  0  0  0  0  0  0
  1  2  1  0  0  0  0 
  1  3  1  0  0  0  0 
  1  4  1  0  0  0  0 
  1  5  1  0  0  0  0 
  5  6  1  0  0  0  0 
  6  7  1  0  0  0  0 
  6  8  1  0  0  0  0 
  6  9  1  0  0  0  0 
  5 10  1  0  0  0  0 
 10 11  1  6  0  0  0 
 10 12  1  0  0  0  0 
 12 13  2  0  0  0  0 
 12 14  1  0  0  0  0 
 14 15  1  0  0  0  0 
 10 16  1  1  0  0  0 
 16 17  1  0  0  0  0 
 17 18  2  0  0  0  0 
 17 19  1  0  0  0  0 
 19 20  1  1  0  0  0 
 19 21  1  0  0  0  0 
 16 21  1  0  0  0  0 
 21 22  2  0  0  0  0 
 19 23  1  6  0  0  0 
 23 24  1  0  0  0  0 
 23 25  1  0  0  0  0 
 25 26  2  0  0  0  0 
 25 27  1  0  0  0  0 
 27 28  1  6  0  0  0 
 27 29  1  0  0  0  0 
 29 30  2  0  0  0  0 
 30 31  1  0  0  0  0 
 30 32  1  0  0  0  0 
 32 33  1  0  0  0  0 
 32 34  2  0  0  0  0 
 34 35  1  0  0  0  0 
 35 36  1  0  0  0  0 
 35 37  2  0  0  0  0 
 29 37  1  0  0  0  0 
 37 38  1  0  0  0  0 
 34 39  1  0  0  0  0 
 39 40  1  0  0  0  0 
 27 41  1  1  0  0  0 
 41 42  1  0  0  0  0 
 41 43  1  0  0  0  0 
  5 44  1  0  0  0  0 
 44 45  1  0  0  0  0 
M  END
> <Rank>
28

> <Priority_score>
0.032

> <Reaction_type>
S-dealkylation

> <Parent_ID>
14

> <Parent_InChI>
InChI=1S/C16H19N3O5S/c1-16(2)11(15(23)24)19-13(22)10(14(19)25-16)18-12(21)9(17)7-3-5-8(20)6-4-7/h3-6,9-11,14,20H,17H2,1-2H3,(H,18,21)(H,23,24)

> <Parent_SMILES>
CC1(C)S[C@@H]2[C@H](NC(=O)[C@H](N)c3ccc(O)cc3)C(=O)N2[C@H]1C(=O)O

$$$$
Molecule 14_metabolite 29
  CDK     0516241031

 45 47  0  0  0  0  0  0  0  0999 V2000
    0.7973    5.1456    0.0000 C   0  0  0  0  0  0  0  0  0  0  0  0
    2.2239    4.6823    0.0000 H   0  0  0  0  0  0  0  0  0  0  0  0
   -0.7632    6.3643    0.0000 H   0  0  0  0  0  0  0  0  0  0  0  0
    1.9518    7.3178    0.0000 H   0  0  0  0  0  0  0  0  0  0  0  0
   -0.3173    4.1417    0.0000 C   0  0  0  0  0  0  0  0  0  0  0  0
    0.7973    3.1378    0.0000 C   0  0  0  0  0  0  0  0  0  0  0  0
    2.2239    3.6011    0.0000 H   0  0  0  0  0  0  0  0  0  0  0  0
    1.5013    1.8133    0.0000 H   0  0  0  0  0  0  0  0  0  0  0  0
   -0.3849    2.2145    0.0000 H   0  0  0  0  0  0  0  0  0  0  0  0
   -1.1973    5.3517    0.0000 C   0  0  2  0  0  0  0  0  0  0  0  0
   -1.8049    6.7231    0.0000 H   0  0  0  0  0  0  0  0  0  0  0  0
    0.9340    6.5803    0.0000 C   0  0  0  0  0  0  0  0  0  0  0  0
    3.4791    5.1086    0.0000 O   0  0  0  0  0  0  0  0  0  0  0  0
    0.9350    8.0803    0.0000 O   0  0  0  0  0  0  0  0  0  0  0  0
    2.2345    8.8294    0.0000 H   0  0  0  0  0  0  0  0  0  0  0  0
   -2.6273    4.8917    0.0000 N   0  0  0  0  0  0  0  0  0  0  0  0
   -4.1273    4.8917    0.0000 C   0  0  0  0  0  0  0  0  0  0  0  0
   -5.1879    5.9524    0.0000 O   0  0  0  0  0  0  0  0  0  0  0  0
   -4.1273    3.3917    0.0000 C   0  0  2  0  0  0  0  0  0  0  0  0
   -4.1273    1.8917    0.0000 H   0  0  0  0  0  0  0  0  0  0  0  0
   -2.6273    3.3917    0.0000 C   0  0  2  0  0  0  0  0  0  0  0  0
   -2.8597    1.9098    0.0000 O   0  0  0  0  0  0  0  0  0  0  0  0
   -1.6926    0.9676    0.0000 H   0  0  0  0  0  0  0  0  0  0  0  0
   -1.1973    2.9317    0.0000 S   0  0  0  0  0  0  0  0  0  0  0  0
   -5.6273    3.3917    0.0000 N   0  0  0  0  0  0  0  0  0  0  0  0
   -6.3773    4.6907    0.0000 H   0  0  0  0  0  0  0  0  0  0  0  0
   -6.3773    2.0927    0.0000 C   0  0  0  0  0  0  0  0  0  0  0  0
   -5.6273    0.7936    0.0000 O   0  0  0  0  0  0  0  0  0  0  0  0
   -7.8773    2.0927    0.0000 C   0  0  1  0  0  0  0  0  0  0  0  0
   -9.2868    1.5796    0.0000 H   0  0  0  0  0  0  0  0  0  0  0  0
   -7.4501   -0.3300    0.0000 C   0  0  0  0  0  0  0  0  0  0  0  0
   -6.0380   -0.8360    0.0000 C   0  0  0  0  0  0  0  0  0  0  0  0
   -4.8985    0.1394    0.0000 H   0  0  0  0  0  0  0  0  0  0  0  0
   -5.7605   -2.2846    0.0000 C   0  0  0  0  0  0  0  0  0  0  0  0
   -4.3419   -2.7721    0.0000 H   0  0  0  0  0  0  0  0  0  0  0  0
   -6.9220   -3.3024    0.0000 C   0  0  0  0  0  0  0  0  0  0  0  0
   -8.3341   -2.7963    0.0000 C   0  0  0  0  0  0  0  0  0  0  0  0
   -9.4863   -3.7567    0.0000 H   0  0  0  0  0  0  0  0  0  0  0  0
   -8.5846   -1.2725    0.0000 C   0  0  0  0  0  0  0  0  0  0  0  0
   -9.9899   -0.7478    0.0000 H   0  0  0  0  0  0  0  0  0  0  0  0
   -6.6421   -4.7761    0.0000 O   0  0  0  0  0  0  0  0  0  0  0  0
   -7.7784   -5.7553    0.0000 H   0  0  0  0  0  0  0  0  0  0  0  0
   -8.6273    3.3917    0.0000 N   0  0  0  0  0  0  0  0  0  0  0  0
  -10.1273    3.3917    0.0000 H   0  0  0  0  0  0  0  0  0  0  0  0
   -7.8773    4.6907    0.0000 H   0  0  0  0  0  0  0  0  0  0  0  0
  1  2  1  0  0  0  0 
  1  3  1  0  0  0  0 
  1  4  1  0  0  0  0 
  1  5  1  0  0  0  0 
  5  6  1  0  0  0  0 
  6  7  1  0  0  0  0 
  6  8  1  0  0  0  0 
  6  9  1  0  0  0  0 
  5 10  1  0  0  0  0 
 10 11  1  6  0  0  0 
 10 12  1  1  0  0  0 
 12 13  2  0  0  0  0 
 12 14  1  0  0  0  0 
 14 15  1  0  0  0  0 
 10 16  1  0  0  0  0 
 16 17  1  0  0  0  0 
 17 18  2  0  0  0  0 
 17 19  1  0  0  0  0 
 19 20  1  1  0  0  0 
 19 21  1  0  0  0  0 
 16 21  1  0  0  0  0 
 21 22  1  1  0  0  0 
 22 23  1  0  0  0  0 
 21 24  1  0  0  0  0 
  5 24  1  0  0  0  0 
 19 25  1  6  0  0  0 
 25 26  1  0  0  0  0 
 25 27  1  0  0  0  0 
 27 28  2  0  0  0  0 
 27 29  1  0  0  0  0 
 29 30  1  6  0  0  0 
 29 31  1  0  0  0  0 
 31 32  2  0  0  0  0 
 32 33  1  0  0  0  0 
 32 34  1  0  0  0  0 
 34 35  1  0  0  0  0 
 34 36  2  0  0  0  0 
 36 37  1  0  0  0  0 
 37 38  1  0  0  0  0 
 37 39  2  0  0  0  0 
 31 39  1  0  0  0  0 
 39 40  1  0  0  0  0 
 36 41  1  0  0  0  0 
 41 42  1  0  0  0  0 
 29 43  1  1  0  0  0 
 43 44  1  0  0  0  0 
 43 45  1  0  0  0  0 
M  END
> <Rank>
28

> <Priority_score>
0.032

> <Reaction_type>
aliphatic hydroxylation

> <Parent_ID>
14

> <Parent_InChI>
InChI=1S/C16H19N3O5S/c1-16(2)11(15(23)24)19-13(22)10(14(19)25-16)18-12(21)9(17)7-3-5-8(20)6-4-7/h3-6,9-11,14,20H,17H2,1-2H3,(H,18,21)(H,23,24)

> <Parent_SMILES>
CC1(C)S[C@@H]2[C@H](NC(=O)[C@H](N)c3ccc(O)cc3)C(=O)N2[C@H]1C(=O)O

$$$$
Molecule 14_metabolite 30
  CDK     0516241031

 45 47  0  0  0  0  0  0  0  0999 V2000
    0.7973    5.1456    0.0000 C   0  0  0  0  0  0  0  0  0  0  0  0
    2.2239    4.6823    0.0000 H   0  0  0  0  0  0  0  0  0  0  0  0
   -0.7632    6.3643    0.0000 H   0  0  0  0  0  0  0  0  0  0  0  0
    1.9518    7.3178    0.0000 H   0  0  0  0  0  0  0  0  0  0  0  0
   -0.3173    4.1417    0.0000 C   0  0  0  0  0  0  0  0  0  0  0  0
    0.7973    3.1378    0.0000 C   0  0  0  0  0  0  0  0  0  0  0  0
    2.2239    3.6011    0.0000 H   0  0  0  0  0  0  0  0  0  0  0  0
    1.5013    1.8133    0.0000 H   0  0  0  0  0  0  0  0  0  0  0  0
   -0.3849    2.2145    0.0000 H   0  0  0  0  0  0  0  0  0  0  0  0
   -1.1973    5.3517    0.0000 C   0  0  2  0  0  0  0  0  0  0  0  0
   -1.8049    6.7231    0.0000 H   0  0  0  0  0  0  0  0  0  0  0  0
    0.9340    6.5803    0.0000 C   0  0  0  0  0  0  0  0  0  0  0  0
    3.4791    5.1086    0.0000 O   0  0  0  0  0  0  0  0  0  0  0  0
    0.9350    8.0803    0.0000 O   0  0  0  0  0  0  0  0  0  0  0  0
    2.2345    8.8294    0.0000 H   0  0  0  0  0  0  0  0  0  0  0  0
   -2.6273    4.8917    0.0000 N   0  0  0  0  0  0  0  0  0  0  0  0
   -4.1273    4.8917    0.0000 C   0  0  0  0  0  0  0  0  0  0  0  0
   -5.1879    5.9524    0.0000 O   0  0  0  0  0  0  0  0  0  0  0  0
   -4.1273    3.3917    0.0000 C   0  0  2  0  0  0  0  0  0  0  0  0
   -4.1273    1.8917    0.0000 H   0  0  0  0  0  0  0  0  0  0  0  0
   -2.6273    3.3917    0.0000 C   0  0  1  0  0  0  0  0  0  0  0  0
   -2.8597    1.9098    0.0000 H   0  0  0  0  0  0  0  0  0  0  0  0
   -1.1973    2.9317    0.0000 S   0  0  0  0  0  0  0  0  0  0  0  0
   -0.7320    1.5057    0.0000 O   0  0  0  0  0  0  0  0  0  0  0  0
   -5.6273    3.3917    0.0000 N   0  0  0  0  0  0  0  0  0  0  0  0
   -6.3773    4.6907    0.0000 H   0  0  0  0  0  0  0  0  0  0  0  0
   -6.3773    2.0927    0.0000 C   0  0  0  0  0  0  0  0  0  0  0  0
   -5.6273    0.7936    0.0000 O   0  0  0  0  0  0  0  0  0  0  0  0
   -7.8773    2.0927    0.0000 C   0  0  1  0  0  0  0  0  0  0  0  0
   -9.2868    1.5796    0.0000 H   0  0  0  0  0  0  0  0  0  0  0  0
   -7.4501   -0.3300    0.0000 C   0  0  0  0  0  0  0  0  0  0  0  0
   -6.0380   -0.8360    0.0000 C   0  0  0  0  0  0  0  0  0  0  0  0
   -4.8985    0.1394    0.0000 H   0  0  0  0  0  0  0  0  0  0  0  0
   -5.7605   -2.2846    0.0000 C   0  0  0  0  0  0  0  0  0  0  0  0
   -4.3419   -2.7721    0.0000 H   0  0  0  0  0  0  0  0  0  0  0  0
   -6.9220   -3.3024    0.0000 C   0  0  0  0  0  0  0  0  0  0  0  0
   -8.3341   -2.7963    0.0000 C   0  0  0  0  0  0  0  0  0  0  0  0
   -9.4863   -3.7567    0.0000 H   0  0  0  0  0  0  0  0  0  0  0  0
   -8.5846   -1.2725    0.0000 C   0  0  0  0  0  0  0  0  0  0  0  0
   -9.9899   -0.7478    0.0000 H   0  0  0  0  0  0  0  0  0  0  0  0
   -6.6421   -4.7761    0.0000 O   0  0  0  0  0  0  0  0  0  0  0  0
   -7.7784   -5.7553    0.0000 H   0  0  0  0  0  0  0  0  0  0  0  0
   -8.6273    3.3917    0.0000 N   0  0  0  0  0  0  0  0  0  0  0  0
  -10.1273    3.3917    0.0000 H   0  0  0  0  0  0  0  0  0  0  0  0
   -7.8773    4.6907    0.0000 H   0  0  0  0  0  0  0  0  0  0  0  0
  1  2  1  0  0  0  0 
  1  3  1  0  0  0  0 
  1  4  1  0  0  0  0 
  1  5  1  0  0  0  0 
  5  6  1  0  0  0  0 
  6  7  1  0  0  0  0 
  6  8  1  0  0  0  0 
  6  9  1  0  0  0  0 
  5 10  1  0  0  0  0 
 10 11  1  6  0  0  0 
 10 12  1  1  0  0  0 
 12 13  2  0  0  0  0 
 12 14  1  0  0  0  0 
 14 15  1  0  0  0  0 
 10 16  1  0  0  0  0 
 16 17  1  0  0  0  0 
 17 18  2  0  0  0  0 
 17 19  1  0  0  0  0 
 19 20  1  1  0  0  0 
 19 21  1  0  0  0  0 
 16 21  1  0  0  0  0 
 21 22  1  1  0  0  0 
 21 23  1  0  0  0  0 
  5 23  1  0  0  0  0 
 23 24  2  0  0  0  0 
 19 25  1  6  0  0  0 
 25 26  1  0  0  0  0 
 25 27  1  0  0  0  0 
 27 28  2  0  0  0  0 
 27 29  1  0  0  0  0 
 29 30  1  6  0  0  0 
 29 31  1  0  0  0  0 
 31 32  2  0  0  0  0 
 32 33  1  0  0  0  0 
 32 34  1  0  0  0  0 
 34 35  1  0  0  0  0 
 34 36  2  0  0  0  0 
 36 37  1  0  0  0  0 
 37 38  1  0  0  0  0 
 37 39  2  0  0  0  0 
 31 39  1  0  0  0  0 
 39 40  1  0  0  0  0 
 36 41  1  0  0  0  0 
 41 42  1  0  0  0  0 
 29 43  1  1  0  0  0 
 43 44  1  0  0  0  0 
 43 45  1  0  0  0  0 
M  END
> <Rank>
28

> <Priority_score>
0.032

> <Reaction_type>
sulfide_oxidation_(C-S-C)

> <Parent_ID>
14

> <Parent_InChI>
InChI=1S/C16H19N3O5S/c1-16(2)11(15(23)24)19-13(22)10(14(19)25-16)18-12(21)9(17)7-3-5-8(20)6-4-7/h3-6,9-11,14,20H,17H2,1-2H3,(H,18,21)(H,23,24)

> <Parent_SMILES>
CC1(C)S[C@@H]2[C@H](NC(=O)[C@H](N)c3ccc(O)cc3)C(=O)N2[C@H]1C(=O)O

$$$$
Molecule 14_metabolite 31
  CDK     0516241031

 45 47  0  0  0  0  0  0  0  0999 V2000
    0.5973    5.3656    0.0000 C   0  0  0  0  0  0  0  0  0  0  0  0
    2.0239    4.9023    0.0000 H   0  0  0  0  0  0  0  0  0  0  0  0
   -0.9632    6.5843    0.0000 H   0  0  0  0  0  0  0  0  0  0  0  0
    1.7518    7.5378    0.0000 H   0  0  0  0  0  0  0  0  0  0  0  0
   -0.5173    4.3617    0.0000 C   0  0  0  0  0  0  0  0  0  0  0  0
    0.5973    3.3578    0.0000 C   0  0  0  0  0  0  0  0  0  0  0  0
    2.0239    3.8211    0.0000 H   0  0  0  0  0  0  0  0  0  0  0  0
    1.3013    2.0333    0.0000 H   0  0  0  0  0  0  0  0  0  0  0  0
   -0.5849    2.4345    0.0000 H   0  0  0  0  0  0  0  0  0  0  0  0
   -1.3973    5.5717    0.0000 C   0  0  2  0  0  0  0  0  0  0  0  0
   -2.0049    6.9431    0.0000 H   0  0  0  0  0  0  0  0  0  0  0  0
    0.7340    6.8003    0.0000 C   0  0  0  0  0  0  0  0  0  0  0  0
    3.2791    5.3286    0.0000 O   0  0  0  0  0  0  0  0  0  0  0  0
    0.7350    8.3003    0.0000 O   0  0  0  0  0  0  0  0  0  0  0  0
    2.0345    9.0494    0.0000 H   0  0  0  0  0  0  0  0  0  0  0  0
   -2.8273    5.1117    0.0000 N   0  0  0  0  0  0  0  0  0  0  0  0
   -4.3273    5.1117    0.0000 C   0  0  0  0  0  0  0  0  0  0  0  0
   -5.3879    6.1724    0.0000 O   0  0  0  0  0  0  0  0  0  0  0  0
   -4.3273    3.6117    0.0000 C   0  0  2  0  0  0  0  0  0  0  0  0
   -4.3273    2.1117    0.0000 H   0  0  0  0  0  0  0  0  0  0  0  0
   -2.8273    3.6117    0.0000 C   0  0  1  0  0  0  0  0  0  0  0  0
   -3.0597    2.1298    0.0000 H   0  0  0  0  0  0  0  0  0  0  0  0
   -1.3973    3.1517    0.0000 S   0  0  0  0  0  0  0  0  0  0  0  0
   -5.8273    3.6117    0.0000 N   0  0  0  0  0  0  0  0  0  0  0  0
   -6.5773    4.9107    0.0000 H   0  0  0  0  0  0  0  0  0  0  0  0
   -6.5773    2.3127    0.0000 C   0  0  0  0  0  0  0  0  0  0  0  0
   -5.8273    1.0136    0.0000 O   0  0  0  0  0  0  0  0  0  0  0  0
   -8.0773    2.3127    0.0000 C   0  0  1  0  0  0  0  0  0  0  0  0
   -9.4868    1.7996    0.0000 H   0  0  0  0  0  0  0  0  0  0  0  0
   -7.6501   -0.1100    0.0000 C   0  0  0  0  0  0  0  0  0  0  0  0
   -6.2399   -0.6235    0.0000 C   0  0  0  0  0  0  0  0  0  0  0  0
   -5.0909    0.3409    0.0000 H   0  0  0  0  0  0  0  0  0  0  0  0
   -5.9785   -2.1014    0.0000 C   0  0  0  0  0  0  0  0  0  0  0  0
   -4.5688   -2.6140    0.0000 H   0  0  0  0  0  0  0  0  0  0  0  0
   -7.1274   -3.0658    0.0000 C   0  0  0  0  0  0  0  0  0  0  0  0
   -8.5377   -2.5522    0.0000 C   0  0  0  0  0  0  0  0  0  0  0  0
   -9.6866   -3.5166    0.0000 H   0  0  0  0  0  0  0  0  0  0  0  0
   -8.7990   -1.0743    0.0000 C   0  0  0  0  0  0  0  0  0  0  0  0
  -10.2087   -0.5617    0.0000 O   0  0  0  0  0  0  0  0  0  0  0  0
  -11.3575   -1.5263    0.0000 H   0  0  0  0  0  0  0  0  0  0  0  0
   -6.8670   -4.5430    0.0000 O   0  0  0  0  0  0  0  0  0  0  0  0
   -8.0160   -5.5072    0.0000 H   0  0  0  0  0  0  0  0  0  0  0  0
   -8.8273    3.6117    0.0000 N   0  0  0  0  0  0  0  0  0  0  0  0
  -10.3273    3.6117    0.0000 H   0  0  0  0  0  0  0  0  0  0  0  0
   -8.0773    4.9107    0.0000 H   0  0  0  0  0  0  0  0  0  0  0  0
  1  2  1  0  0  0  0 
  1  3  1  0  0  0  0 
  1  4  1  0  0  0  0 
  1  5  1  0  0  0  0 
  5  6  1  0  0  0  0 
  6  7  1  0  0  0  0 
  6  8  1  0  0  0  0 
  6  9  1  0  0  0  0 
  5 10  1  0  0  0  0 
 10 11  1  6  0  0  0 
 10 12  1  1  0  0  0 
 12 13  2  0  0  0  0 
 12 14  1  0  0  0  0 
 14 15  1  0  0  0  0 
 10 16  1  0  0  0  0 
 16 17  1  0  0  0  0 
 17 18  2  0  0  0  0 
 17 19  1  0  0  0  0 
 19 20  1  1  0  0  0 
 19 21  1  0  0  0  0 
 16 21  1  0  0  0  0 
 21 22  1  1  0  0  0 
 21 23  1  0  0  0  0 
  5 23  1  0  0  0  0 
 19 24  1  6  0  0  0 
 24 25  1  0  0  0  0 
 24 26  1  0  0  0  0 
 26 27  2  0  0  0  0 
 26 28  1  0  0  0  0 
 28 29  1  6  0  0  0 
 28 30  1  0  0  0  0 
 30 31  2  0  0  0  0 
 31 32  1  0  0  0  0 
 31 33  1  0  0  0  0 
 33 34  1  0  0  0  0 
 33 35  2  0  0  0  0 
 35 36  1  0  0  0  0 
 36 37  1  0  0  0  0 
 36 38  2  0  0  0  0 
 30 38  1  0  0  0  0 
 38 39  1  0  0  0  0 
 39 40  1  0  0  0  0 
 35 41  1  0  0  0  0 
 41 42  1  0  0  0  0 
 28 43  1  1  0  0  0 
 43 44  1  0  0  0  0 
 43 45  1  0  0  0  0 
M  END
> <Rank>
31

> <Priority_score>
0.024

> <Reaction_type>
aromatic hydroxylation

> <Parent_ID>
14

> <Parent_InChI>
InChI=1S/C16H19N3O5S/c1-16(2)11(15(23)24)19-13(22)10(14(19)25-16)18-12(21)9(17)7-3-5-8(20)6-4-7/h3-6,9-11,14,20H,17H2,1-2H3,(H,18,21)(H,23,24)

> <Parent_SMILES>
CC1(C)S[C@@H]2[C@H](NC(=O)[C@H](N)c3ccc(O)cc3)C(=O)N2[C@H]1C(=O)O

$$$$
Molecule 14_metabolite 32
  CDK     0516241031

 23 24  0  0  0  0  0  0  0  0999 V2000
    0.4188    0.6986    0.0000 C   0  0  0  0  0  0  0  0  0  0  0  0
    1.8454    1.1619    0.0000 H   0  0  0  0  0  0  0  0  0  0  0  0
   -1.1417   -0.5201    0.0000 H   0  0  0  0  0  0  0  0  0  0  0  0
    1.7986   -1.8975    0.0000 H   0  0  0  0  0  0  0  0  0  0  0  0
   -1.0525    2.0237    0.0000 C   0  0  0  0  0  0  0  0  0  0  0  0
    0.0621    3.0276    0.0000 C   0  0  0  0  0  0  0  0  0  0  0  0
    1.4888    2.5643    0.0000 H   0  0  0  0  0  0  0  0  0  0  0  0
    0.7661    4.3521    0.0000 H   0  0  0  0  0  0  0  0  0  0  0  0
   -1.1201    3.9509    0.0000 H   0  0  0  0  0  0  0  0  0  0  0  0
   -1.9325    0.8137    0.0000 C   0  0  2  0  0  0  0  0  0  0  0  0
   -2.5401   -0.5577    0.0000 H   0  0  0  0  0  0  0  0  0  0  0  0
   -1.4200   -2.0813    0.0000 C   0  0  0  0  0  0  0  0  0  0  0  0
    0.8334   -3.9696    0.0000 O   0  0  0  0  0  0  0  0  0  0  0  0
   -2.5685   -3.0462    0.0000 O   0  0  0  0  0  0  0  0  0  0  0  0
   -2.3070   -4.5232    0.0000 H   0  0  0  0  0  0  0  0  0  0  0  0
   -3.3625    1.2737    0.0000 N   0  0  0  0  0  0  0  0  0  0  0  0
   -4.8625    1.2737    0.0000 C   0  0  0  0  0  0  0  0  0  0  0  0
   -5.9231    0.2131    0.0000 O   0  0  0  0  0  0  0  0  0  0  0  0
   -4.8625    2.7737    0.0000 C   0  0  0  0  0  0  0  0  0  0  0  0
   -5.9231    3.8344    0.0000 O   0  0  0  0  0  0  0  0  0  0  0  0
   -3.3625    2.7737    0.0000 C   0  0  1  0  0  0  0  0  0  0  0  0
   -3.5949    4.2556    0.0000 H   0  0  0  0  0  0  0  0  0  0  0  0
   -1.9325    3.2337    0.0000 S   0  0  0  0  0  0  0  0  0  0  0  0
  1  2  1  0  0  0  0 
  1  3  1  0  0  0  0 
  1  4  1  0  0  0  0 
  1  5  1  0  0  0  0 
  5  6  1  0  0  0  0 
  6  7  1  0  0  0  0 
  6  8  1  0  0  0  0 
  6  9  1  0  0  0  0 
  5 10  1  0  0  0  0 
 10 11  1  1  0  0  0 
 10 12  1  6  0  0  0 
 12 13  2  0  0  0  0 
 12 14  1  0  0  0  0 
 14 15  1  0  0  0  0 
 10 16  1  0  0  0  0 
 16 17  1  0  0  0  0 
 17 18  2  0  0  0  0 
 17 19  1  0  0  0  0 
 19 20  2  0  0  0  0 
 19 21  1  0  0  0  0 
 16 21  1  0  0  0  0 
 21 22  1  6  0  0  0 
 21 23  1  0  0  0  0 
  5 23  1  0  0  0  0 
M  END
> <Rank>
32

> <Priority_score>
0.02

> <Reaction_type>
N-dealkylation

> <Parent_ID>
14

> <Parent_InChI>
InChI=1S/C16H19N3O5S/c1-16(2)11(15(23)24)19-13(22)10(14(19)25-16)18-12(21)9(17)7-3-5-8(20)6-4-7/h3-6,9-11,14,20H,17H2,1-2H3,(H,18,21)(H,23,24)

> <Parent_SMILES>
CC1(C)S[C@@H]2[C@H](NC(=O)[C@H](N)c3ccc(O)cc3)C(=O)N2[C@H]1C(=O)O

$$$$
Molecule 14_metabolite 33
  CDK     0516241031

 22 22  0  0  0  0  0  0  0  0999 V2000
    3.3818    0.0304    0.0000 C   0  0  0  0  0  0  0  0  0  0  0  0
    3.3621   -1.4694    0.0000 H   0  0  0  0  0  0  0  0  0  0  0  0
    2.1118    0.7804    0.0000 C   0  0  0  0  0  0  0  0  0  0  0  0
    2.1118    2.2804    0.0000 C   0  0  0  0  0  0  0  0  0  0  0  0
    0.8091    3.0240    0.0000 H   0  0  0  0  0  0  0  0  0  0  0  0
    3.3818    3.0304    0.0000 C   0  0  0  0  0  0  0  0  0  0  0  0
    3.3621    4.5303    0.0000 H   0  0  0  0  0  0  0  0  0  0  0  0
    4.7318    2.2804    0.0000 C   0  0  0  0  0  0  0  0  0  0  0  0
    4.7318    0.7804    0.0000 C   0  0  0  0  0  0  0  0  0  0  0  0
    6.0246    0.0197    0.0000 H   0  0  0  0  0  0  0  0  0  0  0  0
    6.0246    3.0411    0.0000 O   0  0  0  0  0  0  0  0  0  0  0  0
    7.3298    2.3019    0.0000 H   0  0  0  0  0  0  0  0  0  0  0  0
   -0.0246   -0.4391    0.0000 C   0  0  2  0  0  0  0  0  0  0  0  0
   -0.9944   -1.5834    0.0000 H   0  0  0  0  0  0  0  0  0  0  0  0
   -1.3199    0.3173    0.0000 C   0  0  0  0  0  0  0  0  0  0  0  0
   -1.3126    1.8173    0.0000 O   0  0  0  0  0  0  0  0  0  0  0  0
   -2.6227   -0.4263    0.0000 N   0  0  0  0  0  0  0  0  0  0  0  0
   -3.9180    0.3301    0.0000 H   0  0  0  0  0  0  0  0  0  0  0  0
   -2.6300   -1.9263    0.0000 H   0  0  0  0  0  0  0  0  0  0  0  0
    0.9339   -1.5929    0.0000 N   0  0  0  0  0  0  0  0  0  0  0  0
    0.4139   -2.9999    0.0000 H   0  0  0  0  0  0  0  0  0  0  0  0
    2.4124   -1.3397    0.0000 H   0  0  0  0  0  0  0  0  0  0  0  0
  1  2  1  0  0  0  0 
  1  3  2  0  0  0  0 
  3  4  1  0  0  0  0 
  4  5  1  0  0  0  0 
  4  6  2  0  0  0  0 
  6  7  1  0  0  0  0 
  6  8  1  0  0  0  0 
  8  9  2  0  0  0  0 
  1  9  1  0  0  0  0 
  9 10  1  0  0  0  0 
  8 11  1  0  0  0  0 
 11 12  1  0  0  0  0 
  3 13  1  0  0  0  0 
 13 14  1  6  0  0  0 
 13 15  1  0  0  0  0 
 15 16  2  0  0  0  0 
 15 17  1  0  0  0  0 
 17 18  1  0  0  0  0 
 17 19  1  0  0  0  0 
 13 20  1  1  0  0  0 
 20 21  1  0  0  0  0 
 20 22  1  0  0  0  0 
M  END
> <Rank>
32

> <Priority_score>
0.02

> <Reaction_type>
N-dealkylation

> <Parent_ID>
14

> <Parent_InChI>
InChI=1S/C16H19N3O5S/c1-16(2)11(15(23)24)19-13(22)10(14(19)25-16)18-12(21)9(17)7-3-5-8(20)6-4-7/h3-6,9-11,14,20H,17H2,1-2H3,(H,18,21)(H,23,24)

> <Parent_SMILES>
CC1(C)S[C@@H]2[C@H](NC(=O)[C@H](N)c3ccc(O)cc3)C(=O)N2[C@H]1C(=O)O

$$$$
Molecule 14_metabolite 34
  CDK     0516241031

 42 44  0  0  0  0  0  0  0  0999 V2000
    0.9893    4.8440    0.0000 C   0  0  0  0  0  0  0  0  0  0  0  0
    2.4159    4.3807    0.0000 H   0  0  0  0  0  0  0  0  0  0  0  0
   -0.5712    6.0628    0.0000 H   0  0  0  0  0  0  0  0  0  0  0  0
    2.4605    6.1691    0.0000 H   0  0  0  0  0  0  0  0  0  0  0  0
   -0.1253    3.8401    0.0000 C   0  0  0  0  0  0  0  0  0  0  0  0
    0.9893    2.8363    0.0000 C   0  0  0  0  0  0  0  0  0  0  0  0
    2.4159    3.2996    0.0000 H   0  0  0  0  0  0  0  0  0  0  0  0
    1.6933    1.5117    0.0000 H   0  0  0  0  0  0  0  0  0  0  0  0
   -0.1929    1.9130    0.0000 H   0  0  0  0  0  0  0  0  0  0  0  0
   -1.0053    5.0501    0.0000 C   0  0  2  0  0  0  0  0  0  0  0  0
   -1.6129    6.4216    0.0000 H   0  0  0  0  0  0  0  0  0  0  0  0
    1.1259    6.2787    0.0000 C   0  0  0  0  0  0  0  0  0  0  0  0
    3.6711    4.8071    0.0000 O   0  0  0  0  0  0  0  0  0  0  0  0
    1.1269    7.7787    0.0000 O   0  0  0  0  0  0  0  0  0  0  0  0
    2.4265    8.5279    0.0000 H   0  0  0  0  0  0  0  0  0  0  0  0
   -2.4353    4.5901    0.0000 N   0  0  0  0  0  0  0  0  0  0  0  0
   -3.9353    4.5901    0.0000 C   0  0  0  0  0  0  0  0  0  0  0  0
   -4.9959    5.6508    0.0000 O   0  0  0  0  0  0  0  0  0  0  0  0
   -3.9353    3.0901    0.0000 C   0  0  2  0  0  0  0  0  0  0  0  0
   -3.9353    1.5901    0.0000 H   0  0  0  0  0  0  0  0  0  0  0  0
   -2.4353    3.0901    0.0000 C   0  0  1  0  0  0  0  0  0  0  0  0
   -2.6678    1.6083    0.0000 H   0  0  0  0  0  0  0  0  0  0  0  0
   -1.0053    2.6301    0.0000 S   0  0  0  0  0  0  0  0  0  0  0  0
   -5.4353    3.0901    0.0000 N   0  0  0  0  0  0  0  0  0  0  0  0
   -6.1853    4.3892    0.0000 H   0  0  0  0  0  0  0  0  0  0  0  0
   -6.1853    1.7911    0.0000 C   0  0  0  0  0  0  0  0  0  0  0  0
   -5.4353    0.4921    0.0000 O   0  0  0  0  0  0  0  0  0  0  0  0
   -7.6853    1.7911    0.0000 C   0  0  0  0  0  0  0  0  0  0  0  0
   -8.4353    3.0901    0.0000 N   0  0  0  0  0  0  0  0  0  0  0  0
   -9.9353    3.0901    0.0000 H   0  0  0  0  0  0  0  0  0  0  0  0
   -8.4353    0.4921    0.0000 C   0  0  0  0  0  0  0  0  0  0  0  0
   -7.6789   -0.8033    0.0000 C   0  0  0  0  0  0  0  0  0  0  0  0
   -6.1790   -0.7885    0.0000 H   0  0  0  0  0  0  0  0  0  0  0  0
   -8.3974   -2.0913    0.0000 C   0  0  0  0  0  0  0  0  0  0  0  0
   -7.6240   -3.3766    0.0000 H   0  0  0  0  0  0  0  0  0  0  0  0
   -9.9414   -2.1244    0.0000 C   0  0  0  0  0  0  0  0  0  0  0  0
  -10.6978   -0.8291    0.0000 C   0  0  0  0  0  0  0  0  0  0  0  0
  -12.1978   -0.8241    0.0000 H   0  0  0  0  0  0  0  0  0  0  0  0
   -9.9102    0.4993    0.0000 C   0  0  0  0  0  0  0  0  0  0  0  0
  -10.6495    1.8045    0.0000 H   0  0  0  0  0  0  0  0  0  0  0  0
  -10.6742   -3.4332    0.0000 O   0  0  0  0  0  0  0  0  0  0  0  0
  -12.1741   -3.4530    0.0000 H   0  0  0  0  0  0  0  0  0  0  0  0
  1  2  1  0  0  0  0 
  1  3  1  0  0  0  0 
  1  4  1  0  0  0  0 
  1  5  1  0  0  0  0 
  5  6  1  0  0  0  0 
  6  7  1  0  0  0  0 
  6  8  1  0  0  0  0 
  6  9  1  0  0  0  0 
  5 10  1  0  0  0  0 
 10 11  1  6  0  0  0 
 10 12  1  1  0  0  0 
 12 13  2  0  0  0  0 
 12 14  1  0  0  0  0 
 14 15  1  0  0  0  0 
 10 16  1  0  0  0  0 
 16 17  1  0  0  0  0 
 17 18  2  0  0  0  0 
 17 19  1  0  0  0  0 
 19 20  1  1  0  0  0 
 19 21  1  0  0  0  0 
 16 21  1  0  0  0  0 
 21 22  1  1  0  0  0 
 21 23  1  0  0  0  0 
  5 23  1  0  0  0  0 
 19 24  1  6  0  0  0 
 24 25  1  0  0  0  0 
 24 26  1  0  0  0  0 
 26 27  2  0  0  0  0 
 26 28  1  0  0  0  0 
 28 29  2  0  0  0  0 
 29 30  1  4  0  0  0 
 28 31  1  0  0  0  0 
 31 32  2  0  0  0  0 
 32 33  1  0  0  0  0 
 32 34  1  0  0  0  0 
 34 35  1  0  0  0  0 
 34 36  2  0  0  0  0 
 36 37  1  0  0  0  0 
 37 38  1  0  0  0  0 
 37 39  2  0  0  0  0 
 31 39  1  0  0  0  0 
 39 40  1  0  0  0  0 
 36 41  1  0  0  0  0 
 41 42  1  0  0  0  0 
M  END
> <Rank>
34

> <Priority_score>
0.0152

> <Reaction_type>
dehydration of N-C bond

> <Parent_ID>
14

> <Parent_InChI>
InChI=1S/C16H19N3O5S/c1-16(2)11(15(23)24)19-13(22)10(14(19)25-16)18-12(21)9(17)7-3-5-8(20)6-4-7/h3-6,9-11,14,20H,17H2,1-2H3,(H,18,21)(H,23,24)

> <Parent_SMILES>
CC1(C)S[C@@H]2[C@H](NC(=O)[C@H](N)c3ccc(O)cc3)C(=O)N2[C@H]1C(=O)O

$$$$
Molecule 14_metabolite 35
  CDK     0516241031

 43 45  0  0  0  0  0  0  0  0999 V2000
    0.1229    3.7566    0.0000 C   0  0  0  0  0  0  0  0  0  0  0  0
    1.5495    3.2933    0.0000 H   0  0  0  0  0  0  0  0  0  0  0  0
   -1.4376    4.9753    0.0000 H   0  0  0  0  0  0  0  0  0  0  0  0
    2.3074    5.7242    0.0000 H   0  0  0  0  0  0  0  0  0  0  0  0
   -1.3484    2.4315    0.0000 C   0  0  0  0  0  0  0  0  0  0  0  0
   -0.2338    1.4276    0.0000 C   0  0  0  0  0  0  0  0  0  0  0  0
    1.1929    1.8909    0.0000 H   0  0  0  0  0  0  0  0  0  0  0  0
    0.4702    0.1031    0.0000 H   0  0  0  0  0  0  0  0  0  0  0  0
   -1.4160    0.5043    0.0000 H   0  0  0  0  0  0  0  0  0  0  0  0
   -2.2284    3.6415    0.0000 C   0  0  2  0  0  0  0  0  0  0  0  0
   -2.8360    5.0129    0.0000 H   0  0  0  0  0  0  0  0  0  0  0  0
    0.3187    5.1098    0.0000 C   0  0  0  0  0  0  0  0  0  0  0  0
    2.8639    3.6381    0.0000 O   0  0  0  0  0  0  0  0  0  0  0  0
    0.3197    6.6098    0.0000 O   0  0  0  0  0  0  0  0  0  0  0  0
    1.6193    7.3589    0.0000 H   0  0  0  0  0  0  0  0  0  0  0  0
   -3.6584    3.1815    0.0000 N   0  0  0  0  0  0  0  0  0  0  0  0
   -5.1584    3.1815    0.0000 C   0  0  0  0  0  0  0  0  0  0  0  0
   -6.2190    4.2421    0.0000 O   0  0  0  0  0  0  0  0  0  0  0  0
   -5.1584    1.6815    0.0000 C   0  0  2  0  0  0  0  0  0  0  0  0
   -5.1584    0.1815    0.0000 H   0  0  0  0  0  0  0  0  0  0  0  0
   -3.6584    1.6815    0.0000 C   0  0  1  0  0  0  0  0  0  0  0  0
   -3.8908    0.1996    0.0000 H   0  0  0  0  0  0  0  0  0  0  0  0
   -2.2284    1.2215    0.0000 S   0  0  0  0  0  0  0  0  0  0  0  0
   -6.6584    1.6815    0.0000 N   0  0  0  0  0  0  0  0  0  0  0  0
   -7.4084    2.9805    0.0000 H   0  0  0  0  0  0  0  0  0  0  0  0
   -7.4084    0.3824    0.0000 C   0  0  0  0  0  0  0  0  0  0  0  0
   -6.6584   -0.9166    0.0000 O   0  0  0  0  0  0  0  0  0  0  0  0
   -8.9084    0.3824    0.0000 C   0  0  0  0  0  0  0  0  0  0  0  0
   -9.6584    1.6815    0.0000 N   0  0  0  0  0  0  0  0  0  0  0  0
  -11.1584    1.6815    0.0000 H   0  0  0  0  0  0  0  0  0  0  0  0
   -8.9084    2.9805    0.0000 H   0  0  0  0  0  0  0  0  0  0  0  0
   -9.6584   -0.9166    0.0000 C   0  0  0  0  0  0  0  0  0  0  0  0
   -8.9020   -2.2119    0.0000 C   0  0  0  0  0  0  0  0  0  0  0  0
   -7.4020   -2.1972    0.0000 H   0  0  0  0  0  0  0  0  0  0  0  0
   -9.6205   -3.5000    0.0000 C   0  0  0  0  0  0  0  0  0  0  0  0
   -8.8471   -4.7853    0.0000 H   0  0  0  0  0  0  0  0  0  0  0  0
  -11.1645   -3.5331    0.0000 C   0  0  0  0  0  0  0  0  0  0  0  0
  -11.9209   -2.2378    0.0000 C   0  0  0  0  0  0  0  0  0  0  0  0
  -13.4209   -2.2328    0.0000 H   0  0  0  0  0  0  0  0  0  0  0  0
  -11.1333   -0.9093    0.0000 C   0  0  0  0  0  0  0  0  0  0  0  0
  -11.8725    0.3958    0.0000 H   0  0  0  0  0  0  0  0  0  0  0  0
  -11.8973   -4.8419    0.0000 O   0  0  0  0  0  0  0  0  0  0  0  0
  -13.3972   -4.8616    0.0000 H   0  0  0  0  0  0  0  0  0  0  0  0
  1  2  1  0  0  0  0 
  1  3  1  0  0  0  0 
  1  4  1  0  0  0  0 
  1  5  1  0  0  0  0 
  5  6  1  0  0  0  0 
  6  7  1  0  0  0  0 
  6  8  1  0  0  0  0 
  6  9  1  0  0  0  0 
  5 10  1  0  0  0  0 
 10 11  1  6  0  0  0 
 10 12  1  1  0  0  0 
 12 13  2  0  0  0  0 
 12 14  1  0  0  0  0 
 14 15  1  0  0  0  0 
 10 16  1  0  0  0  0 
 16 17  1  0  0  0  0 
 17 18  2  0  0  0  0 
 17 19  1  0  0  0  0 
 19 20  1  1  0  0  0 
 19 21  1  0  0  0  0 
 16 21  1  0  0  0  0 
 21 22  1  1  0  0  0 
 21 23  1  0  0  0  0 
  5 23  1  0  0  0  0 
 19 24  1  6  0  0  0 
 24 25  1  0  0  0  0 
 24 26  1  0  0  0  0 
 26 27  2  0  0  0  0 
 26 28  1  0  0  0  0 
 28 29  2  0  0  0  0 
 29 30  1  0  0  0  0 
 29 31  1  0  0  0  0 
 28 32  1  0  0  0  0 
 32 33  2  0  0  0  0 
 33 34  1  0  0  0  0 
 33 35  1  0  0  0  0 
 35 36  1  0  0  0  0 
 35 37  2  0  0  0  0 
 37 38  1  0  0  0  0 
 38 39  1  0  0  0  0 
 38 40  2  0  0  0  0 
 32 40  1  0  0  0  0 
 40 41  1  0  0  0  0 
 37 42  1  0  0  0  0 
 42 43  1  0  0  0  0 
M  CHG  1  29   1
M  END
> <Rank>
34

> <Priority_score>
0.0152

> <Reaction_type>
dehydration of N-C bond

> <Parent_ID>
14

> <Parent_InChI>
InChI=1S/C16H19N3O5S/c1-16(2)11(15(23)24)19-13(22)10(14(19)25-16)18-12(21)9(17)7-3-5-8(20)6-4-7/h3-6,9-11,14,20H,17H2,1-2H3,(H,18,21)(H,23,24)

> <Parent_SMILES>
CC1(C)S[C@@H]2[C@H](NC(=O)[C@H](N)c3ccc(O)cc3)C(=O)N2[C@H]1C(=O)O

$$$$
Molecule 14_metabolite 36
  CDK     0516241031

 43 45  0  0  0  0  0  0  0  0999 V2000
    2.7479    6.2674    0.0000 C   0  0  0  0  0  0  0  0  0  0  0  0
    4.1745    5.8041    0.0000 H   0  0  0  0  0  0  0  0  0  0  0  0
    1.5657    7.1907    0.0000 H   0  0  0  0  0  0  0  0  0  0  0  0
    3.4519    7.5919    0.0000 H   0  0  0  0  0  0  0  0  0  0  0  0
    1.6333    5.2635    0.0000 C   0  0  0  0  0  0  0  0  0  0  0  0
    2.7479    4.2596    0.0000 C   0  0  0  0  0  0  0  0  0  0  0  0
    4.1745    4.7229    0.0000 H   0  0  0  0  0  0  0  0  0  0  0  0
    3.4519    2.9351    0.0000 H   0  0  0  0  0  0  0  0  0  0  0  0
    1.5657    3.3363    0.0000 H   0  0  0  0  0  0  0  0  0  0  0  0
    0.7533    6.4735    0.0000 C   0  0  0  0  0  0  0  0  0  0  0  0
   -0.6767    6.0135    0.0000 N   0  0  0  0  0  0  0  0  0  0  0  0
   -2.1767    6.0135    0.0000 C   0  0  0  0  0  0  0  0  0  0  0  0
   -3.2374    7.0742    0.0000 O   0  0  0  0  0  0  0  0  0  0  0  0
   -2.1767    4.5135    0.0000 C   0  0  2  0  0  0  0  0  0  0  0  0
   -2.1767    3.0135    0.0000 H   0  0  0  0  0  0  0  0  0  0  0  0
   -0.6767    4.5135    0.0000 C   0  0  1  0  0  0  0  0  0  0  0  0
   -0.9092    3.0316    0.0000 H   0  0  0  0  0  0  0  0  0  0  0  0
    0.7533    4.0535    0.0000 S   0  0  0  0  0  0  0  0  0  0  0  0
   -3.6767    4.5135    0.0000 N   0  0  0  0  0  0  0  0  0  0  0  0
   -4.4267    5.8125    0.0000 H   0  0  0  0  0  0  0  0  0  0  0  0
   -4.4267    3.2145    0.0000 C   0  0  0  0  0  0  0  0  0  0  0  0
   -3.6767    1.9154    0.0000 O   0  0  0  0  0  0  0  0  0  0  0  0
   -5.9267    3.2145    0.0000 C   0  0  1  0  0  0  0  0  0  0  0  0
   -7.3362    2.7014    0.0000 H   0  0  0  0  0  0  0  0  0  0  0  0
   -5.4995    0.7918    0.0000 C   0  0  0  0  0  0  0  0  0  0  0  0
   -4.0875    0.2857    0.0000 C   0  0  0  0  0  0  0  0  0  0  0  0
   -2.9480    1.2612    0.0000 H   0  0  0  0  0  0  0  0  0  0  0  0
   -3.8099   -1.1628    0.0000 C   0  0  0  0  0  0  0  0  0  0  0  0
   -2.3914   -1.6503    0.0000 H   0  0  0  0  0  0  0  0  0  0  0  0
   -4.9714   -2.1806    0.0000 C   0  0  0  0  0  0  0  0  0  0  0  0
   -6.3835   -1.6745    0.0000 C   0  0  0  0  0  0  0  0  0  0  0  0
   -7.5358   -2.6349    0.0000 H   0  0  0  0  0  0  0  0  0  0  0  0
   -6.6340   -0.1507    0.0000 C   0  0  0  0  0  0  0  0  0  0  0  0
   -8.0393    0.3740    0.0000 H   0  0  0  0  0  0  0  0  0  0  0  0
   -4.6915   -3.6543    0.0000 O   0  0  0  0  0  0  0  0  0  0  0  0
   -5.8278   -4.6335    0.0000 H   0  0  0  0  0  0  0  0  0  0  0  0
   -6.6767    4.5135    0.0000 N   0  0  0  0  0  0  0  0  0  0  0  0
   -8.1767    4.5135    0.0000 H   0  0  0  0  0  0  0  0  0  0  0  0
   -5.9267    5.8125    0.0000 H   0  0  0  0  0  0  0  0  0  0  0  0
    1.2186    7.8995    0.0000 C   0  0  0  0  0  0  0  0  0  0  0  0
    0.2162    9.0155    0.0000 O   0  0  0  0  0  0  0  0  0  0  0  0
    2.6862    8.2096    0.0000 O   0  0  0  0  0  0  0  0  0  0  0  0
    3.1515    9.6356    0.0000 H   0  0  0  0  0  0  0  0  0  0  0  0
  1  2  1  0  0  0  0 
  1  3  1  0  0  0  0 
  1  4  1  0  0  0  0 
  1  5  1  0  0  0  0 
  5  6  1  0  0  0  0 
  6  7  1  0  0  0  0 
  6  8  1  0  0  0  0 
  6  9  1  0  0  0  0 
  5 10  1  0  0  0  0 
 10 11  2  0  0  0  0 
 11 12  1  0  0  0  0 
 12 13  2  0  0  0  0 
 12 14  1  0  0  0  0 
 14 15  1  1  0  0  0 
 14 16  1  0  0  0  0 
 11 16  1  0  0  0  0 
 16 17  1  1  0  0  0 
 16 18  1  0  0  0  0 
  5 18  1  0  0  0  0 
 14 19  1  6  0  0  0 
 19 20  1  0  0  0  0 
 19 21  1  0  0  0  0 
 21 22  2  0  0  0  0 
 21 23  1  0  0  0  0 
 23 24  1  6  0  0  0 
 23 25  1  0  0  0  0 
 25 26  2  0  0  0  0 
 26 27  1  0  0  0  0 
 26 28  1  0  0  0  0 
 28 29  1  0  0  0  0 
 28 30  2  0  0  0  0 
 30 31  1  0  0  0  0 
 31 32  1  0  0  0  0 
 31 33  2  0  0  0  0 
 25 33  1  0  0  0  0 
 33 34  1  0  0  0  0 
 30 35  1  0  0  0  0 
 35 36  1  0  0  0  0 
 23 37  1  1  0  0  0 
 37 38  1  0  0  0  0 
 37 39  1  0  0  0  0 
 10 40  1  0  0  0  0 
 40 41  2  0  0  0  0 
 40 42  1  0  0  0  0 
 42 43  1  0  0  0  0 
M  CHG  1  11   1
M  END
> <Rank>
36

> <Priority_score>
0.00791152720889409

> <Reaction_type>
dehydration of N-C bond

> <Parent_ID>
14

> <Parent_InChI>
InChI=1S/C16H19N3O5S/c1-16(2)11(15(23)24)19-13(22)10(14(19)25-16)18-12(21)9(17)7-3-5-8(20)6-4-7/h3-6,9-11,14,20H,17H2,1-2H3,(H,18,21)(H,23,24)

> <Parent_SMILES>
CC1(C)S[C@@H]2[C@H](NC(=O)[C@H](N)c3ccc(O)cc3)C(=O)N2[C@H]1C(=O)O

$$$$
Molecule 14_metabolite 37
  CDK     0516241031

 43 45  0  0  0  0  0  0  0  0999 V2000
    0.5973    5.3656    0.0000 C   0  0  0  0  0  0  0  0  0  0  0  0
    2.0239    4.9023    0.0000 H   0  0  0  0  0  0  0  0  0  0  0  0
   -0.9632    6.5843    0.0000 H   0  0  0  0  0  0  0  0  0  0  0  0
    1.7518    7.5378    0.0000 H   0  0  0  0  0  0  0  0  0  0  0  0
   -0.5173    4.3617    0.0000 C   0  0  0  0  0  0  0  0  0  0  0  0
    0.5973    3.3578    0.0000 C   0  0  0  0  0  0  0  0  0  0  0  0
    2.0239    3.8211    0.0000 H   0  0  0  0  0  0  0  0  0  0  0  0
    1.3013    2.0333    0.0000 H   0  0  0  0  0  0  0  0  0  0  0  0
   -0.5849    2.4345    0.0000 H   0  0  0  0  0  0  0  0  0  0  0  0
   -1.3973    5.5717    0.0000 C   0  0  2  0  0  0  0  0  0  0  0  0
   -2.0049    6.9431    0.0000 H   0  0  0  0  0  0  0  0  0  0  0  0
    0.7340    6.8003    0.0000 C   0  0  0  0  0  0  0  0  0  0  0  0
    3.2791    5.3286    0.0000 O   0  0  0  0  0  0  0  0  0  0  0  0
    0.7350    8.3003    0.0000 O   0  0  0  0  0  0  0  0  0  0  0  0
    2.0345    9.0494    0.0000 H   0  0  0  0  0  0  0  0  0  0  0  0
   -2.8273    5.1117    0.0000 N   0  0  0  0  0  0  0  0  0  0  0  0
   -2.8273    3.6117    0.0000 C   0  0  0  0  0  0  0  0  0  0  0  0
   -4.3273    3.6117    0.0000 C   0  0  1  0  0  0  0  0  0  0  0  0
   -4.3273    2.1117    0.0000 H   0  0  0  0  0  0  0  0  0  0  0  0
   -4.3273    5.1117    0.0000 C   0  0  0  0  0  0  0  0  0  0  0  0
   -5.3879    6.1724    0.0000 O   0  0  0  0  0  0  0  0  0  0  0  0
   -5.8273    3.6117    0.0000 N   0  0  0  0  0  0  0  0  0  0  0  0
   -6.5773    4.9107    0.0000 H   0  0  0  0  0  0  0  0  0  0  0  0
   -6.5773    2.3127    0.0000 C   0  0  0  0  0  0  0  0  0  0  0  0
   -5.8273    1.0136    0.0000 O   0  0  0  0  0  0  0  0  0  0  0  0
   -8.0773    2.3127    0.0000 C   0  0  1  0  0  0  0  0  0  0  0  0
   -9.4868    1.7996    0.0000 H   0  0  0  0  0  0  0  0  0  0  0  0
   -7.6501   -0.1100    0.0000 C   0  0  0  0  0  0  0  0  0  0  0  0
   -6.2380   -0.6160    0.0000 C   0  0  0  0  0  0  0  0  0  0  0  0
   -5.0985    0.3594    0.0000 H   0  0  0  0  0  0  0  0  0  0  0  0
   -5.9605   -2.0646    0.0000 C   0  0  0  0  0  0  0  0  0  0  0  0
   -4.5419   -2.5521    0.0000 H   0  0  0  0  0  0  0  0  0  0  0  0
   -7.1220   -3.0824    0.0000 C   0  0  0  0  0  0  0  0  0  0  0  0
   -8.5341   -2.5763    0.0000 C   0  0  0  0  0  0  0  0  0  0  0  0
   -9.6863   -3.5367    0.0000 H   0  0  0  0  0  0  0  0  0  0  0  0
   -8.7846   -1.0525    0.0000 C   0  0  0  0  0  0  0  0  0  0  0  0
  -10.1899   -0.5278    0.0000 H   0  0  0  0  0  0  0  0  0  0  0  0
   -6.8421   -4.5561    0.0000 O   0  0  0  0  0  0  0  0  0  0  0  0
   -7.9784   -5.5353    0.0000 H   0  0  0  0  0  0  0  0  0  0  0  0
   -8.8273    3.6117    0.0000 N   0  0  0  0  0  0  0  0  0  0  0  0
  -10.3273    3.6117    0.0000 H   0  0  0  0  0  0  0  0  0  0  0  0
   -8.0773    4.9107    0.0000 H   0  0  0  0  0  0  0  0  0  0  0  0
   -1.3973    3.1517    0.0000 S   0  0  0  0  0  0  0  0  0  0  0  0
  1  2  1  0  0  0  0 
  1  3  1  0  0  0  0 
  1  4  1  0  0  0  0 
  1  5  1  0  0  0  0 
  5  6  1  0  0  0  0 
  6  7  1  0  0  0  0 
  6  8  1  0  0  0  0 
  6  9  1  0  0  0  0 
  5 10  1  0  0  0  0 
 10 11  1  6  0  0  0 
 10 12  1  1  0  0  0 
 12 13  2  0  0  0  0 
 12 14  1  0  0  0  0 
 14 15  1  0  0  0  0 
 10 16  1  0  0  0  0 
 16 17  2  0  0  0  0 
 17 18  1  0  0  0  0 
 18 19  1  1  0  0  0 
 18 20  1  0  0  0  0 
 16 20  1  0  0  0  0 
 20 21  2  0  0  0  0 
 18 22  1  6  0  0  0 
 22 23  1  0  0  0  0 
 22 24  1  0  0  0  0 
 24 25  2  0  0  0  0 
 24 26  1  0  0  0  0 
 26 27  1  6  0  0  0 
 26 28  1  0  0  0  0 
 28 29  2  0  0  0  0 
 29 30  1  0  0  0  0 
 29 31  1  0  0  0  0 
 31 32  1  0  0  0  0 
 31 33  2  0  0  0  0 
 33 34  1  0  0  0  0 
 34 35  1  0  0  0  0 
 34 36  2  0  0  0  0 
 28 36  1  0  0  0  0 
 36 37  1  0  0  0  0 
 33 38  1  0  0  0  0 
 38 39  1  0  0  0  0 
 26 40  1  1  0  0  0 
 40 41  1  0  0  0  0 
 40 42  1  0  0  0  0 
 17 43  1  0  0  0  0 
  5 43  1  0  0  0  0 
M  CHG  1  16   1
M  END
> <Rank>
36

> <Priority_score>
0.00791152720889409

> <Reaction_type>
dehydration of N-C bond

> <Parent_ID>
14

> <Parent_InChI>
InChI=1S/C16H19N3O5S/c1-16(2)11(15(23)24)19-13(22)10(14(19)25-16)18-12(21)9(17)7-3-5-8(20)6-4-7/h3-6,9-11,14,20H,17H2,1-2H3,(H,18,21)(H,23,24)

> <Parent_SMILES>
CC1(C)S[C@@H]2[C@H](NC(=O)[C@H](N)c3ccc(O)cc3)C(=O)N2[C@H]1C(=O)O

$$$$
Molecule 14_metabolite 38
  CDK     0516241031

 42 44  0  0  0  0  0  0  0  0999 V2000
    0.8018   -0.4438    0.0000 C   0  0  0  0  0  0  0  0  0  0  0  0
    2.2285    0.0195    0.0000 H   0  0  0  0  0  0  0  0  0  0  0  0
   -0.7587   -1.6626    0.0000 H   0  0  0  0  0  0  0  0  0  0  0  0
    1.9564   -2.6161    0.0000 H   0  0  0  0  0  0  0  0  0  0  0  0
   -0.6694    0.8813    0.0000 C   0  0  0  0  0  0  0  0  0  0  0  0
    0.4451    1.8851    0.0000 C   0  0  0  0  0  0  0  0  0  0  0  0
    1.8718    1.4218    0.0000 H   0  0  0  0  0  0  0  0  0  0  0  0
    1.1491    3.2097    0.0000 H   0  0  0  0  0  0  0  0  0  0  0  0
   -0.7370    2.8084    0.0000 H   0  0  0  0  0  0  0  0  0  0  0  0
   -1.5494   -0.3287    0.0000 C   0  0  2  0  0  0  0  0  0  0  0  0
   -2.1571   -1.7001    0.0000 H   0  0  0  0  0  0  0  0  0  0  0  0
   -0.5421   -3.0908    0.0000 C   0  0  0  0  0  0  0  0  0  0  0  0
    1.7114   -4.9791    0.0000 O   0  0  0  0  0  0  0  0  0  0  0  0
   -1.5055   -4.2405    0.0000 O   0  0  0  0  0  0  0  0  0  0  0  0
   -0.9915   -5.6497    0.0000 H   0  0  0  0  0  0  0  0  0  0  0  0
   -2.9794    0.1313    0.0000 N   0  0  0  0  0  0  0  0  0  0  0  0
   -4.4794    0.1313    0.0000 C   0  0  0  0  0  0  0  0  0  0  0  0
   -5.5401   -0.9294    0.0000 O   0  0  0  0  0  0  0  0  0  0  0  0
   -4.4794    1.6313    0.0000 C   0  0  0  0  0  0  0  0  0  0  0  0
   -2.9794    1.6313    0.0000 C   0  0  0  0  0  0  0  0  0  0  0  0
   -1.5494    2.0913    0.0000 S   0  0  0  0  0  0  0  0  0  0  0  0
   -5.5401    2.6919    0.0000 N   0  0  0  0  0  0  0  0  0  0  0  0
   -5.1518    4.1408    0.0000 H   0  0  0  0  0  0  0  0  0  0  0  0
   -6.9890    2.3037    0.0000 C   0  0  0  0  0  0  0  0  0  0  0  0
   -7.3772    0.8548    0.0000 O   0  0  0  0  0  0  0  0  0  0  0  0
   -8.0496    3.3644    0.0000 C   0  0  1  0  0  0  0  0  0  0  0  0
   -6.8209    4.2247    0.0000 H   0  0  0  0  0  0  0  0  0  0  0  0
   -9.0893    5.5939    0.0000 C   0  0  0  0  0  0  0  0  0  0  0  0
  -10.5842    5.7173    0.0000 C   0  0  0  0  0  0  0  0  0  0  0  0
  -11.4324    4.4801    0.0000 H   0  0  0  0  0  0  0  0  0  0  0  0
  -11.2272    7.0446    0.0000 C   0  0  0  0  0  0  0  0  0  0  0  0
  -12.7236    7.1483    0.0000 H   0  0  0  0  0  0  0  0  0  0  0  0
  -10.3687    8.3284    0.0000 C   0  0  0  0  0  0  0  0  0  0  0  0
   -8.8738    8.2050    0.0000 C   0  0  0  0  0  0  0  0  0  0  0  0
   -8.0093    9.4309    0.0000 H   0  0  0  0  0  0  0  0  0  0  0  0
   -8.2373    6.7979    0.0000 C   0  0  0  0  0  0  0  0  0  0  0  0
   -6.7442    6.6548    0.0000 H   0  0  0  0  0  0  0  0  0  0  0  0
  -11.0205    9.6794    0.0000 O   0  0  0  0  0  0  0  0  0  0  0  0
  -12.5163    9.7904    0.0000 H   0  0  0  0  0  0  0  0  0  0  0  0
   -9.4985    2.9761    0.0000 N   0  0  0  0  0  0  0  0  0  0  0  0
  -10.5592    4.0368    0.0000 H   0  0  0  0  0  0  0  0  0  0  0  0
   -9.8867    1.5272    0.0000 H   0  0  0  0  0  0  0  0  0  0  0  0
  1  2  1  0  0  0  0 
  1  3  1  0  0  0  0 
  1  4  1  0  0  0  0 
  1  5  1  0  0  0  0 
  5  6  1  0  0  0  0 
  6  7  1  0  0  0  0 
  6  8  1  0  0  0  0 
  6  9  1  0  0  0  0 
  5 10  1  0  0  0  0 
 10 11  1  1  0  0  0 
 10 12  1  6  0  0  0 
 12 13  2  0  0  0  0 
 12 14  1  0  0  0  0 
 14 15  1  0  0  0  0 
 10 16  1  0  0  0  0 
 16 17  1  0  0  0  0 
 17 18  2  0  0  0  0 
 17 19  1  0  0  0  0 
 19 20  2  0  0  0  0 
 16 20  1  0  0  0  0 
 20 21  1  0  0  0  0 
  5 21  1  0  0  0  0 
 19 22  1  0  0  0  0 
 22 23  1  0  0  0  0 
 22 24  1  0  0  0  0 
 24 25  2  0  0  0  0 
 26 24  1  6  0  0  0 
 26 27  1  1  0  0  0 
 26 28  1  0  0  0  0 
 28 29  2  0  0  0  0 
 29 30  1  0  0  0  0 
 29 31  1  0  0  0  0 
 31 32  1  0  0  0  0 
 31 33  2  0  0  0  0 
 33 34  1  0  0  0  0 
 34 35  1  0  0  0  0 
 34 36  2  0  0  0  0 
 28 36  1  0  0  0  0 
 36 37  1  0  0  0  0 
 33 38  1  0  0  0  0 
 38 39  1  0  0  0  0 
 26 40  1  0  0  0  0 
 40 41  1  0  0  0  0 
 40 42  1  0  0  0  0 
M  END
> <Rank>
38

> <Priority_score>
0.0064

> <Reaction_type>
alkyl dehydrogenation

> <Parent_ID>
14

> <Parent_InChI>
InChI=1S/C16H19N3O5S/c1-16(2)11(15(23)24)19-13(22)10(14(19)25-16)18-12(21)9(17)7-3-5-8(20)6-4-7/h3-6,9-11,14,20H,17H2,1-2H3,(H,18,21)(H,23,24)

> <Parent_SMILES>
CC1(C)S[C@@H]2[C@H](NC(=O)[C@H](N)c3ccc(O)cc3)C(=O)N2[C@H]1C(=O)O

$$$$
Molecule 14_metabolite 39
  CDK     0516241031

 43 45  0  0  0  0  0  0  0  0999 V2000
    0.4703    0.2074    0.0000 C   0  0  0  0  0  0  0  0  0  0  0  0
    1.8969    0.6707    0.0000 H   0  0  0  0  0  0  0  0  0  0  0  0
   -1.0902   -1.0113    0.0000 H   0  0  0  0  0  0  0  0  0  0  0  0
    1.8501   -2.3887    0.0000 H   0  0  0  0  0  0  0  0  0  0  0  0
   -1.0009    1.5325    0.0000 C   0  0  0  0  0  0  0  0  0  0  0  0
    0.1136    2.5364    0.0000 C   0  0  0  0  0  0  0  0  0  0  0  0
    1.5403    2.0731    0.0000 H   0  0  0  0  0  0  0  0  0  0  0  0
    0.8176    3.8609    0.0000 H   0  0  0  0  0  0  0  0  0  0  0  0
   -1.0685    3.4597    0.0000 H   0  0  0  0  0  0  0  0  0  0  0  0
   -1.8809    0.3225    0.0000 C   0  0  2  0  0  0  0  0  0  0  0  0
   -2.4886   -1.0489    0.0000 H   0  0  0  0  0  0  0  0  0  0  0  0
    0.3725   -1.5658    0.0000 C   0  0  0  0  0  0  0  0  0  0  0  0
    3.1345   -0.5584    0.0000 O   0  0  0  0  0  0  0  0  0  0  0  0
    0.1130   -3.0432    0.0000 O   0  0  0  0  0  0  0  0  0  0  0  0
    1.2627   -4.0066    0.0000 H   0  0  0  0  0  0  0  0  0  0  0  0
   -3.3109    0.7825    0.0000 N   0  0  0  0  0  0  0  0  0  0  0  0
   -4.8109    0.7825    0.0000 C   0  0  0  0  0  0  0  0  0  0  0  0
   -5.8716   -0.2781    0.0000 O   0  0  0  0  0  0  0  0  0  0  0  0
   -4.8109    2.2825    0.0000 C   0  0  0  0  0  0  0  0  0  0  0  0
   -5.8716    3.3432    0.0000 N   0  0  0  0  0  0  0  0  0  0  0  0
   -5.4834    4.7921    0.0000 H   0  0  0  0  0  0  0  0  0  0  0  0
   -7.3205    2.9550    0.0000 C   0  0  0  0  0  0  0  0  0  0  0  0
   -7.7087    1.5061    0.0000 O   0  0  0  0  0  0  0  0  0  0  0  0
   -8.3811    4.0156    0.0000 C   0  0  1  0  0  0  0  0  0  0  0  0
   -7.1524    4.8760    0.0000 H   0  0  0  0  0  0  0  0  0  0  0  0
   -9.4208    6.2451    0.0000 C   0  0  0  0  0  0  0  0  0  0  0  0
  -10.9157    6.3685    0.0000 C   0  0  0  0  0  0  0  0  0  0  0  0
  -11.7639    5.1314    0.0000 H   0  0  0  0  0  0  0  0  0  0  0  0
  -11.5587    7.6959    0.0000 C   0  0  0  0  0  0  0  0  0  0  0  0
  -13.0551    7.7996    0.0000 H   0  0  0  0  0  0  0  0  0  0  0  0
  -10.7002    8.9796    0.0000 C   0  0  0  0  0  0  0  0  0  0  0  0
   -9.2053    8.8563    0.0000 C   0  0  0  0  0  0  0  0  0  0  0  0
   -8.3408   10.0821    0.0000 H   0  0  0  0  0  0  0  0  0  0  0  0
   -8.5689    7.4492    0.0000 C   0  0  0  0  0  0  0  0  0  0  0  0
   -7.0757    7.3061    0.0000 H   0  0  0  0  0  0  0  0  0  0  0  0
  -11.3520   10.3306    0.0000 O   0  0  0  0  0  0  0  0  0  0  0  0
  -12.8479   10.4417    0.0000 H   0  0  0  0  0  0  0  0  0  0  0  0
   -9.8300    3.6274    0.0000 N   0  0  0  0  0  0  0  0  0  0  0  0
  -10.8907    4.6881    0.0000 H   0  0  0  0  0  0  0  0  0  0  0  0
  -10.2183    2.1785    0.0000 H   0  0  0  0  0  0  0  0  0  0  0  0
   -3.3109    2.2825    0.0000 C   0  0  1  0  0  0  0  0  0  0  0  0
   -3.5434    3.7644    0.0000 H   0  0  0  0  0  0  0  0  0  0  0  0
   -1.8809    2.7425    0.0000 S   0  0  0  0  0  0  0  0  0  0  0  0
  1  2  1  0  0  0  0 
  1  3  1  0  0  0  0 
  1  4  1  0  0  0  0 
  1  5  1  0  0  0  0 
  5  6  1  0  0  0  0 
  6  7  1  0  0  0  0 
  6  8  1  0  0  0  0 
  6  9  1  0  0  0  0 
  5 10  1  0  0  0  0 
 10 11  1  1  0  0  0 
 10 12  1  6  0  0  0 
 12 13  2  0  0  0  0 
 12 14  1  0  0  0  0 
 14 15  1  0  0  0  0 
 10 16  1  0  0  0  0 
 16 17  1  0  0  0  0 
 17 18  2  0  0  0  0 
 17 19  1  0  0  0  0 
 19 20  2  0  0  0  0 
 20 21  1  4  0  0  0 
 20 22  1  0  0  0  0 
 22 23  2  0  0  0  0 
 24 22  1  6  0  0  0 
 24 25  1  1  0  0  0 
 24 26  1  0  0  0  0 
 26 27  2  0  0  0  0 
 27 28  1  0  0  0  0 
 27 29  1  0  0  0  0 
 29 30  1  0  0  0  0 
 29 31  2  0  0  0  0 
 31 32  1  0  0  0  0 
 32 33  1  0  0  0  0 
 32 34  2  0  0  0  0 
 26 34  1  0  0  0  0 
 34 35  1  0  0  0  0 
 31 36  1  0  0  0  0 
 36 37  1  0  0  0  0 
 24 38  1  0  0  0  0 
 38 39  1  0  0  0  0 
 38 40  1  0  0  0  0 
 19 41  1  0  0  0  0 
 16 41  1  0  0  0  0 
 41 42  1  6  0  0  0 
 41 43  1  0  0  0  0 
  5 43  1  0  0  0  0 
M  CHG  1  20   1
M  END
> <Rank>
39

> <Priority_score>
0.004

> <Reaction_type>
dehydration of N-C bond

> <Parent_ID>
14

> <Parent_InChI>
InChI=1S/C16H19N3O5S/c1-16(2)11(15(23)24)19-13(22)10(14(19)25-16)18-12(21)9(17)7-3-5-8(20)6-4-7/h3-6,9-11,14,20H,17H2,1-2H3,(H,18,21)(H,23,24)

> <Parent_SMILES>
CC1(C)S[C@@H]2[C@H](NC(=O)[C@H](N)c3ccc(O)cc3)C(=O)N2[C@H]1C(=O)O

$$$$
Molecule 14_metabolite 40
  CDK     0516241031

 42 44  0  0  0  0  0  0  0  0999 V2000
    0.8018   -0.4438    0.0000 C   0  0  0  0  0  0  0  0  0  0  0  0
    2.2285    0.0195    0.0000 H   0  0  0  0  0  0  0  0  0  0  0  0
   -0.7587   -1.6626    0.0000 H   0  0  0  0  0  0  0  0  0  0  0  0
    1.9564   -2.6161    0.0000 H   0  0  0  0  0  0  0  0  0  0  0  0
   -0.6694    0.8813    0.0000 C   0  0  0  0  0  0  0  0  0  0  0  0
    0.4451    1.8851    0.0000 C   0  0  0  0  0  0  0  0  0  0  0  0
    1.8718    1.4218    0.0000 H   0  0  0  0  0  0  0  0  0  0  0  0
    1.1491    3.2097    0.0000 H   0  0  0  0  0  0  0  0  0  0  0  0
   -0.7370    2.8084    0.0000 H   0  0  0  0  0  0  0  0  0  0  0  0
   -1.5494   -0.3287    0.0000 C   0  0  2  0  0  0  0  0  0  0  0  0
   -2.1571   -1.7001    0.0000 H   0  0  0  0  0  0  0  0  0  0  0  0
   -0.5421   -3.0908    0.0000 C   0  0  0  0  0  0  0  0  0  0  0  0
    1.7114   -4.9791    0.0000 O   0  0  0  0  0  0  0  0  0  0  0  0
   -1.5055   -4.2405    0.0000 O   0  0  0  0  0  0  0  0  0  0  0  0
   -0.9915   -5.6497    0.0000 H   0  0  0  0  0  0  0  0  0  0  0  0
   -2.9794    0.1313    0.0000 N   0  0  0  0  0  0  0  0  0  0  0  0
   -4.4794    0.1313    0.0000 C   0  0  0  0  0  0  0  0  0  0  0  0
   -5.5401   -0.9294    0.0000 O   0  0  0  0  0  0  0  0  0  0  0  0
   -4.4794    1.6313    0.0000 C   0  0  0  0  0  0  0  0  0  0  0  0
   -5.5401    2.6919    0.0000 N   0  0  0  0  0  0  0  0  0  0  0  0
   -6.9890    2.3037    0.0000 C   0  0  0  0  0  0  0  0  0  0  0  0
   -7.3772    0.8548    0.0000 O   0  0  0  0  0  0  0  0  0  0  0  0
   -8.0496    3.3644    0.0000 C   0  0  1  0  0  0  0  0  0  0  0  0
   -6.8209    4.2247    0.0000 H   0  0  0  0  0  0  0  0  0  0  0  0
   -9.0893    5.5939    0.0000 C   0  0  0  0  0  0  0  0  0  0  0  0
  -10.5842    5.7173    0.0000 C   0  0  0  0  0  0  0  0  0  0  0  0
  -11.4324    4.4801    0.0000 H   0  0  0  0  0  0  0  0  0  0  0  0
  -11.2272    7.0446    0.0000 C   0  0  0  0  0  0  0  0  0  0  0  0
  -12.7236    7.1483    0.0000 H   0  0  0  0  0  0  0  0  0  0  0  0
  -10.3687    8.3284    0.0000 C   0  0  0  0  0  0  0  0  0  0  0  0
   -8.8738    8.2050    0.0000 C   0  0  0  0  0  0  0  0  0  0  0  0
   -8.0093    9.4309    0.0000 H   0  0  0  0  0  0  0  0  0  0  0  0
   -8.2373    6.7979    0.0000 C   0  0  0  0  0  0  0  0  0  0  0  0
   -6.7442    6.6548    0.0000 H   0  0  0  0  0  0  0  0  0  0  0  0
  -11.0205    9.6794    0.0000 O   0  0  0  0  0  0  0  0  0  0  0  0
  -12.5163    9.7904    0.0000 H   0  0  0  0  0  0  0  0  0  0  0  0
   -9.4985    2.9761    0.0000 N   0  0  0  0  0  0  0  0  0  0  0  0
  -10.5592    4.0368    0.0000 H   0  0  0  0  0  0  0  0  0  0  0  0
   -9.8867    1.5272    0.0000 H   0  0  0  0  0  0  0  0  0  0  0  0
   -2.9794    1.6313    0.0000 C   0  0  1  0  0  0  0  0  0  0  0  0
   -3.2119    3.1131    0.0000 H   0  0  0  0  0  0  0  0  0  0  0  0
   -1.5494    2.0913    0.0000 S   0  0  0  0  0  0  0  0  0  0  0  0
  1  2  1  0  0  0  0 
  1  3  1  0  0  0  0 
  1  4  1  0  0  0  0 
  1  5  1  0  0  0  0 
  5  6  1  0  0  0  0 
  6  7  1  0  0  0  0 
  6  8  1  0  0  0  0 
  6  9  1  0  0  0  0 
  5 10  1  0  0  0  0 
 10 11  1  1  0  0  0 
 10 12  1  6  0  0  0 
 12 13  2  0  0  0  0 
 12 14  1  0  0  0  0 
 14 15  1  0  0  0  0 
 10 16  1  0  0  0  0 
 16 17  1  0  0  0  0 
 17 18  2  0  0  0  0 
 17 19  1  0  0  0  0 
 19 20  2  0  0  0  0 
 20 21  1  4  0  0  0 
 21 22  2  0  0  0  0 
 23 21  1  6  0  0  0 
 23 24  1  1  0  0  0 
 23 25  1  0  0  0  0 
 25 26  2  0  0  0  0 
 26 27  1  0  0  0  0 
 26 28  1  0  0  0  0 
 28 29  1  0  0  0  0 
 28 30  2  0  0  0  0 
 30 31  1  0  0  0  0 
 31 32  1  0  0  0  0 
 31 33  2  0  0  0  0 
 25 33  1  0  0  0  0 
 33 34  1  0  0  0  0 
 30 35  1  0  0  0  0 
 35 36  1  0  0  0  0 
 23 37  1  0  0  0  0 
 37 38  1  0  0  0  0 
 37 39  1  0  0  0  0 
 19 40  1  0  0  0  0 
 16 40  1  0  0  0  0 
 40 41  1  6  0  0  0 
 40 42  1  0  0  0  0 
  5 42  1  0  0  0  0 
M  END
> <Rank>
39

> <Priority_score>
0.004

> <Reaction_type>
dehydration of N-C bond

> <Parent_ID>
14

> <Parent_InChI>
InChI=1S/C16H19N3O5S/c1-16(2)11(15(23)24)19-13(22)10(14(19)25-16)18-12(21)9(17)7-3-5-8(20)6-4-7/h3-6,9-11,14,20H,17H2,1-2H3,(H,18,21)(H,23,24)

> <Parent_SMILES>
CC1(C)S[C@@H]2[C@H](NC(=O)[C@H](N)c3ccc(O)cc3)C(=O)N2[C@H]1C(=O)O

$$$$
Molecule 15
  CDK     0516241031

 17 18  0  0  0  0  0  0  0  0999 V2000
    2.9767   -1.5899    0.0000 C   0  0  0  0  0  0  0  0  0  0  0  0
    2.0126   -2.7391    0.0000 C   0  0  0  0  0  0  0  0  0  0  0  0
    0.5354   -2.4787    0.0000 C   0  0  0  0  0  0  0  0  0  0  0  0
    1.0481   -1.0691    0.0000 C   0  0  0  0  0  0  0  0  0  0  0  0
    0.0828    0.0801    0.0000 C   0  0  0  0  0  0  0  0  0  0  0  0
    0.5955    1.4897    0.0000 C   0  0  0  0  0  0  0  0  0  0  0  0
    2.0736    1.7502    0.0000 C   0  0  0  0  0  0  0  0  0  0  0  0
    3.0389    0.6010    0.0000 C   0  0  0  0  0  0  0  0  0  0  0  0
    2.5262   -0.8086    0.0000 C   0  0  0  0  0  0  0  0  0  0  0  0
    0.5354   -3.9787    0.0000 C   0  0  0  0  0  0  0  0  0  0  0  0
    1.8343   -4.7289    0.0000 O   0  0  0  0  0  0  0  0  0  0  0  0
   -0.7646   -4.7287    0.0000 N   0  0  0  0  0  0  0  0  0  0  0  0
   -2.0646   -3.9787    0.0000 C   0  0  0  0  0  0  0  0  0  0  0  0
   -3.3635   -4.7289    0.0000 O   0  0  0  0  0  0  0  0  0  0  0  0
   -2.0646   -2.4787    0.0000 N   0  0  0  0  0  0  0  0  0  0  0  0
   -0.7646   -1.7287    0.0000 C   0  0  0  0  0  0  0  0  0  0  0  0
   -0.7646   -0.2287    0.0000 O   0  0  0  0  0  0  0  0  0  0  0  0
  1  2  1  0  0  0  0 
  2  3  1  0  0  0  0 
  3  4  1  0  0  0  0 
  4  5  2  0  0  0  0 
  5  6  1  0  0  0  0 
  6  7  2  0  0  0  0 
  7  8  1  0  0  0  0 
  8  9  2  0  0  0  0 
  4  9  1  0  0  0  0 
  3 10  1  0  0  0  0 
 10 11  2  0  0  0  0 
 10 12  1  0  0  0  0 
 12 13  1  0  0  0  0 
 13 14  2  0  0  0  0 
 13 15  1  0  0  0  0 
 15 16  1  0  0  0  0 
  3 16  1  0  0  0  0 
 16 17  2  0  0  0  0 
M  END
> <SMILES>
CCC1(c2ccccc2)C(=O)NC(=O)NC1=O

$$$$
Molecule 15_metabolite 1
  CDK     0516241031

 49 51  0  0  0  0  0  0  0  0999 V2000
    3.4124    3.6495    0.0000 C   0  0  0  0  0  0  0  0  0  0  0  0
    3.9222    5.0602    0.0000 H   0  0  0  0  0  0  0  0  0  0  0  0
    4.8902    3.3923    0.0000 H   0  0  0  0  0  0  0  0  0  0  0  0
    2.9025    2.2388    0.0000 H   0  0  0  0  0  0  0  0  0  0  0  0
    0.9907    3.2168    0.0000 C   0  0  0  0  0  0  0  0  0  0  0  0
   -0.4871    3.4740    0.0000 H   0  0  0  0  0  0  0  0  0  0  0  0
    0.9874    4.7168    0.0000 H   0  0  0  0  0  0  0  0  0  0  0  0
   -0.0086    0.4519    0.0000 C   0  0  0  0  0  0  0  0  0  0  0  0
    2.4174    0.0438    0.0000 C   0  0  0  0  0  0  0  0  0  0  0  0
    2.9413   -1.3627    0.0000 C   0  0  0  0  0  0  0  0  0  0  0  0
    1.3746   -3.2592    0.0000 H   0  0  0  0  0  0  0  0  0  0  0  0
    4.4205   -1.6115    0.0000 C   0  0  0  0  0  0  0  0  0  0  0  0
    4.9448   -3.0169    0.0000 H   0  0  0  0  0  0  0  0  0  0  0  0
    5.3758   -0.4539    0.0000 C   0  0  0  0  0  0  0  0  0  0  0  0
    6.8550   -0.7028    0.0000 H   0  0  0  0  0  0  0  0  0  0  0  0
    4.8518    0.9525    0.0000 C   0  0  0  0  0  0  0  0  0  0  0  0
    5.8071    2.1089    0.0000 H   0  0  0  0  0  0  0  0  0  0  0  0
    3.3726    1.2013    0.0000 C   0  0  0  0  0  0  0  0  0  0  0  0
    2.3449    3.9559    0.0000 H   0  0  0  0  0  0  0  0  0  0  0  0
    0.0119   -1.0640    0.0000 C   0  0  0  0  0  0  0  0  0  0  0  0
    1.3071   -1.8206    0.0000 O   0  0  0  0  0  0  0  0  0  0  0  0
   -1.3111   -1.7868    0.0000 N   0  0  0  0  0  0  0  0  0  0  0  0
   -1.3313   -3.2867    0.0000 H   0  0  0  0  0  0  0  0  0  0  0  0
   -2.6076   -1.0324    0.0000 C   0  0  0  0  0  0  0  0  0  0  0  0
   -3.9080   -1.7801    0.0000 O   0  0  0  0  0  0  0  0  0  0  0  0
   -2.6071    0.4597    0.0000 N   0  0  0  0  0  0  0  0  0  0  0  0
   -3.9049    1.2119    0.0000 C   0  0  0  0  0  0  0  0  0  0  0  0
   -2.9389    2.3595    0.0000 H   0  0  0  0  0  0  0  0  0  0  0  0
   -4.8674    2.3624    0.0000 C   0  0  0  0  0  0  0  0  0  0  0  0
   -3.5673    3.1106    0.0000 H   0  0  0  0  0  0  0  0  0  0  0  0
   -6.3457    2.1034    0.0000 C   0  0  0  0  0  0  0  0  0  0  0  0
   -6.3437    3.6034    0.0000 H   0  0  0  0  0  0  0  0  0  0  0  0
   -6.8615    0.6940    0.0000 C   0  0  0  0  0  0  0  0  0  0  0  0
   -8.1593    1.4462    0.0000 H   0  0  0  0  0  0  0  0  0  0  0  0
   -5.8990   -0.4564    0.0000 C   0  0  0  0  0  0  0  0  0  0  0  0
   -7.1991   -1.2047    0.0000 H   0  0  0  0  0  0  0  0  0  0  0  0
   -5.2242   -2.3179    0.0000 C   0  0  0  0  0  0  0  0  0  0  0  0
   -3.7473   -2.5802    0.0000 O   0  0  0  0  0  0  0  0  0  0  0  0
   -6.1898   -3.4657    0.0000 O   0  0  0  0  0  0  0  0  0  0  0  0
   -7.6667   -3.2034    0.0000 H   0  0  0  0  0  0  0  0  0  0  0  0
   -4.4207   -0.1975    0.0000 O   0  0  0  0  0  0  0  0  0  0  0  0
   -7.8275   -0.4535    0.0000 O   0  0  0  0  0  0  0  0  0  0  0  0
   -9.3043   -0.1907    0.0000 H   0  0  0  0  0  0  0  0  0  0  0  0
   -7.8225    2.3662    0.0000 O   0  0  0  0  0  0  0  0  0  0  0  0
   -8.3333    3.7766    0.0000 H   0  0  0  0  0  0  0  0  0  0  0  0
   -5.3787    3.7726    0.0000 O   0  0  0  0  0  0  0  0  0  0  0  0
   -4.4130    4.9204    0.0000 H   0  0  0  0  0  0  0  0  0  0  0  0
   -1.3051    1.2062    0.0000 C   0  0  0  0  0  0  0  0  0  0  0  0
   -1.2988    3.1862    0.0000 O   0  0  0  0  0  0  0  0  0  0  0  0
  1  2  1  0  0  0  0 
  1  3  1  0  0  0  0 
  1  4  1  0  0  0  0 
  1  5  1  0  0  0  0 
  5  6  1  0  0  0  0 
  5  7  1  0  0  0  0 
  5  8  1  0  0  0  0 
  8  9  1  0  0  0  0 
  9 10  2  0  0  0  0 
 10 11  1  0  0  0  0 
 10 12  1  0  0  0  0 
 12 13  1  0  0  0  0 
 12 14  2  0  0  0  0 
 14 15  1  0  0  0  0 
 14 16  1  0  0  0  0 
 16 17  1  0  0  0  0 
 16 18  2  0  0  0  0 
  9 18  1  0  0  0  0 
 18 19  1  0  0  0  0 
  8 20  1  0  0  0  0 
 20 21  2  0  0  0  0 
 20 22  1  0  0  0  0 
 22 23  1  0  0  0  0 
 22 24  1  0  0  0  0 
 24 25  2  0  0  0  0 
 24 26  1  0  0  0  0 
 26 27  1  0  0  0  0 
 27 28  1  0  0  0  0 
 27 29  1  0  0  0  0 
 29 30  1  0  0  0  0 
 29 31  1  0  0  0  0 
 31 32  1  0  0  0  0 
 31 33  1  0  0  0  0 
 33 34  1  0  0  0  0 
 33 35  1  0  0  0  0 
 35 36  1  0  0  0  0 
 35 37  1  0  0  0  0 
 37 38  2  0  0  0  0 
 37 39  1  0  0  0  0 
 39 40  1  0  0  0  0 
 35 41  1  0  0  0  0 
 27 41  1  0  0  0  0 
 33 42  1  0  0  0  0 
 42 43  1  0  0  0  0 
 31 44  1  0  0  0  0 
 44 45  1  0  0  0  0 
 29 46  1  0  0  0  0 
 46 47  1  0  0  0  0 
 26 48  1  0  0  0  0 
  8 48  1  0  0  0  0 
 48 49  2  0  0  0  0 
M  END
> <Rank>
1

> <Priority_score>
0.64

> <Reaction_type>
N-glucuronidation_(NH_in_a_ring)

> <Parent_ID>
15

> <Parent_InChI>
InChI=1S/C12H12N2O3/c1-2-12(8-6-4-3-5-7-8)9(15)13-11(17)14-10(12)16/h3-7H,2H2,1H3,(H2,13,14,15,16,17)

> <Parent_SMILES>
CCC1(c2ccccc2)C(=O)NC(=O)NC1=O

$$$$
Molecule 15_metabolite 2
  CDK     0516241031

 34 35  0  0  0  0  0  0  0  0999 V2000
   -3.0331   -3.3661    0.0000 C   0  0  0  0  0  0  0  0  0  0  0  0
   -3.9971   -4.5152    0.0000 H   0  0  0  0  0  0  0  0  0  0  0  0
   -4.7479   -2.3763    0.0000 H   0  0  0  0  0  0  0  0  0  0  0  0
   -2.5202   -1.9565    0.0000 H   0  0  0  0  0  0  0  0  0  0  0  0
   -1.0831   -3.7097    0.0000 C   0  0  0  0  0  0  0  0  0  0  0  0
    0.2160   -4.4596    0.0000 H   0  0  0  0  0  0  0  0  0  0  0  0
   -2.0884   -6.4725    0.0000 H   0  0  0  0  0  0  0  0  0  0  0  0
    0.1894   -2.1928    0.0000 C   0  0  0  0  0  0  0  0  0  0  0  0
    1.4625   -3.7093    0.0000 C   0  0  0  0  0  0  0  0  0  0  0  0
    0.9490   -5.1196    0.0000 C   0  0  0  0  0  0  0  0  0  0  0  0
   -0.5282   -5.3801    0.0000 H   0  0  0  0  0  0  0  0  0  0  0  0
    1.9134   -6.2684    0.0000 C   0  0  0  0  0  0  0  0  0  0  0  0
    1.4009   -7.6781    0.0000 H   0  0  0  0  0  0  0  0  0  0  0  0
    3.3913   -6.0070    0.0000 C   0  0  0  0  0  0  0  0  0  0  0  0
    3.9048   -4.5967    0.0000 C   0  0  0  0  0  0  0  0  0  0  0  0
    2.9404   -3.4479    0.0000 C   0  0  0  0  0  0  0  0  0  0  0  0
    3.6169   -1.5870    0.0000 H   0  0  0  0  0  0  0  0  0  0  0  0
    5.3820   -4.3362    0.0000 O   0  0  0  0  0  0  0  0  0  0  0  0
    6.3462   -5.4852    0.0000 C   0  0  0  0  0  0  0  0  0  0  0  0
    7.8234   -5.2247    0.0000 H   0  0  0  0  0  0  0  0  0  0  0  0
    5.0472   -6.2353    0.0000 H   0  0  0  0  0  0  0  0  0  0  0  0
    6.8593   -6.8947    0.0000 H   0  0  0  0  0  0  0  0  0  0  0  0
    4.3558   -7.1559    0.0000 O   0  0  0  0  0  0  0  0  0  0  0  0
    3.8430   -8.5655    0.0000 H   0  0  0  0  0  0  0  0  0  0  0  0
   -1.1096   -1.4428    0.0000 C   0  0  0  0  0  0  0  0  0  0  0  0
   -4.0050   -1.9528    0.0000 O   0  0  0  0  0  0  0  0  0  0  0  0
   -1.1091    0.0580    0.0000 N   0  0  0  0  0  0  0  0  0  0  0  0
   -2.4082    0.8080    0.0000 H   0  0  0  0  0  0  0  0  0  0  0  0
    0.1904    0.8089    0.0000 C   0  0  0  0  0  0  0  0  0  0  0  0
    0.1902    2.3089    0.0000 O   0  0  0  0  0  0  0  0  0  0  0  0
    1.4894    0.0589    0.0000 N   0  0  0  0  0  0  0  0  0  0  0  0
    2.7886    0.8087    0.0000 H   0  0  0  0  0  0  0  0  0  0  0  0
    1.4890   -1.4420    0.0000 C   0  0  0  0  0  0  0  0  0  0  0  0
    2.7880   -2.1920    0.0000 O   0  0  0  0  0  0  0  0  0  0  0  0
  1  2  1  0  0  0  0 
  1  3  1  0  0  0  0 
  1  4  1  0  0  0  0 
  1  5  1  0  0  0  0 
  5  6  1  0  0  0  0 
  5  7  1  0  0  0  0 
  5  8  1  0  0  0  0 
  8  9  1  0  0  0  0 
  9 10  2  0  0  0  0 
 10 11  1  0  0  0  0 
 10 12  1  0  0  0  0 
 12 13  1  0  0  0  0 
 12 14  2  0  0  0  0 
 14 15  1  0  0  0  0 
 15 16  2  0  0  0  0 
  9 16  1  0  0  0  0 
 16 17  1  0  0  0  0 
 15 18  1  0  0  0  0 
 18 19  1  0  0  0  0 
 19 20  1  0  0  0  0 
 19 21  1  0  0  0  0 
 19 22  1  0  0  0  0 
 14 23  1  0  0  0  0 
 23 24  1  0  0  0  0 
  8 25  1  0  0  0  0 
 25 26  2  0  0  0  0 
 25 27  1  0  0  0  0 
 27 28  1  0  0  0  0 
 27 29  1  0  0  0  0 
 29 30  2  0  0  0  0 
 29 31  1  0  0  0  0 
 31 32  1  0  0  0  0 
 31 33  1  0  0  0  0 
  8 33  1  0  0  0  0 
 33 34  2  0  0  0  0 
M  END
> <Rank>
2

> <Priority_score>
0.588

> <Reaction_type>
aromatic_oxidation

> <Parent_ID>
15

> <Parent_InChI>
InChI=1S/C12H12N2O3/c1-2-12(8-6-4-3-5-7-8)9(15)13-11(17)14-10(12)16/h3-7H,2H2,1H3,(H2,13,14,15,16,17)

> <Parent_SMILES>
CCC1(c2ccccc2)C(=O)NC(=O)NC1=O

$$$$
Molecule 15_metabolite 3
  CDK     0516241031

 30 31  0  0  0  0  0  0  0  0999 V2000
   -0.3223   -6.1742    0.0000 C   0  0  0  0  0  0  0  0  0  0  0  0
    0.1909   -7.5837    0.0000 H   0  0  0  0  0  0  0  0  0  0  0  0
   -2.0369   -7.1644    0.0000 H   0  0  0  0  0  0  0  0  0  0  0  0
   -1.2866   -5.0252    0.0000 H   0  0  0  0  0  0  0  0  0  0  0  0
    0.9503   -4.6573    0.0000 C   0  0  0  0  0  0  0  0  0  0  0  0
    2.2492   -3.9072    0.0000 H   0  0  0  0  0  0  0  0  0  0  0  0
    2.5317   -6.5416    0.0000 H   0  0  0  0  0  0  0  0  0  0  0  0
    0.2729   -2.7968    0.0000 C   0  0  0  0  0  0  0  0  0  0  0  0
    2.2227   -2.4525    0.0000 C   0  0  0  0  0  0  0  0  0  0  0  0
    2.7359   -1.0422    0.0000 C   0  0  0  0  0  0  0  0  0  0  0  0
    1.4652    0.4762    0.0000 H   0  0  0  0  0  0  0  0  0  0  0  0
    4.2061   -0.7870    0.0000 C   0  0  0  0  0  0  0  0  0  0  0  0
    4.7208    0.6220    0.0000 H   0  0  0  0  0  0  0  0  0  0  0  0
    5.1708   -1.9357    0.0000 C   0  0  0  0  0  0  0  0  0  0  0  0
    6.6475   -1.6724    0.0000 H   0  0  0  0  0  0  0  0  0  0  0  0
    4.6652   -3.3396    0.0000 C   0  0  0  0  0  0  0  0  0  0  0  0
    3.1873   -3.6013    0.0000 C   0  0  0  0  0  0  0  0  0  0  0  0
    2.6750   -5.0111    0.0000 H   0  0  0  0  0  0  0  0  0  0  0  0
    5.6317   -4.4867    0.0000 O   0  0  0  0  0  0  0  0  0  0  0  0
    7.1084   -4.2232    0.0000 H   0  0  0  0  0  0  0  0  0  0  0  0
   -1.0262   -3.5468    0.0000 C   0  0  0  0  0  0  0  0  0  0  0  0
   -2.0322   -6.3093    0.0000 O   0  0  0  0  0  0  0  0  0  0  0  0
   -2.3257   -2.7960    0.0000 N   0  0  0  0  0  0  0  0  0  0  0  0
   -3.6247   -3.5460    0.0000 H   0  0  0  0  0  0  0  0  0  0  0  0
   -2.3262   -1.2951    0.0000 C   0  0  0  0  0  0  0  0  0  0  0  0
   -3.6253   -0.5453    0.0000 O   0  0  0  0  0  0  0  0  0  0  0  0
   -1.0271   -0.5451    0.0000 N   0  0  0  0  0  0  0  0  0  0  0  0
   -1.0269    0.9549    0.0000 H   0  0  0  0  0  0  0  0  0  0  0  0
    0.2724   -1.2960    0.0000 C   0  0  0  0  0  0  0  0  0  0  0  0
    1.5714   -0.5460    0.0000 O   0  0  0  0  0  0  0  0  0  0  0  0
  1  2  1  0  0  0  0 
  1  3  1  0  0  0  0 
  1  4  1  0  0  0  0 
  1  5  1  0  0  0  0 
  5  6  1  0  0  0  0 
  5  7  1  0  0  0  0 
  5  8  1  0  0  0  0 
  8  9  1  0  0  0  0 
  9 10  2  0  0  0  0 
 10 11  1  0  0  0  0 
 10 12  1  0  0  0  0 
 12 13  1  0  0  0  0 
 12 14  2  0  0  0  0 
 14 15  1  0  0  0  0 
 14 16  1  0  0  0  0 
 16 17  2  0  0  0  0 
  9 17  1  0  0  0  0 
 17 18  1  0  0  0  0 
 16 19  1  0  0  0  0 
 19 20  1  0  0  0  0 
  8 21  1  0  0  0  0 
 21 22  2  0  0  0  0 
 21 23  1  0  0  0  0 
 23 24  1  0  0  0  0 
 23 25  1  0  0  0  0 
 25 26  2  0  0  0  0 
 25 27  1  0  0  0  0 
 27 28  1  0  0  0  0 
 27 29  1  0  0  0  0 
  8 29  1  0  0  0  0 
 29 30  2  0  0  0  0 
M  END
> <Rank>
2

> <Priority_score>
0.588

> <Reaction_type>
aromatic_hydroxylation_(meta_to_carbon)

> <Parent_ID>
15

> <Parent_InChI>
InChI=1S/C12H12N2O3/c1-2-12(8-6-4-3-5-7-8)9(15)13-11(17)14-10(12)16/h3-7H,2H2,1H3,(H2,13,14,15,16,17)

> <Parent_SMILES>
CCC1(c2ccccc2)C(=O)NC(=O)NC1=O

$$$$
Molecule 15_metabolite 4
  CDK     0516241031

 30 31  0  0  0  0  0  0  0  0999 V2000
   -2.6370   -3.2258    0.0000 C   0  0  0  0  0  0  0  0  0  0  0  0
   -3.6011   -4.3750    0.0000 H   0  0  0  0  0  0  0  0  0  0  0  0
   -4.3518   -2.2360    0.0000 H   0  0  0  0  0  0  0  0  0  0  0  0
   -2.1241   -1.8163    0.0000 H   0  0  0  0  0  0  0  0  0  0  0  0
   -0.6870   -3.5695    0.0000 C   0  0  0  0  0  0  0  0  0  0  0  0
    0.6121   -4.3193    0.0000 H   0  0  0  0  0  0  0  0  0  0  0  0
   -1.5282   -5.8812    0.0000 H   0  0  0  0  0  0  0  0  0  0  0  0
    0.5855   -2.0526    0.0000 C   0  0  0  0  0  0  0  0  0  0  0  0
    1.8586   -3.5691    0.0000 C   0  0  0  0  0  0  0  0  0  0  0  0
    3.3344   -3.3010    0.0000 C   0  0  0  0  0  0  0  0  0  0  0  0
    3.9929   -1.4337    0.0000 H   0  0  0  0  0  0  0  0  0  0  0  0
    4.2993   -4.4165    0.0000 C   0  0  0  0  0  0  0  0  0  0  0  0
    5.7715   -4.1291    0.0000 H   0  0  0  0  0  0  0  0  0  0  0  0
    3.8026   -5.8788    0.0000 C   0  0  0  0  0  0  0  0  0  0  0  0
    2.3268   -6.1469    0.0000 C   0  0  0  0  0  0  0  0  0  0  0  0
    1.8093   -7.5548    0.0000 H   0  0  0  0  0  0  0  0  0  0  0  0
    1.3476   -4.9526    0.0000 C   0  0  0  0  0  0  0  0  0  0  0  0
   -0.1317   -5.2012    0.0000 H   0  0  0  0  0  0  0  0  0  0  0  0
    4.7821   -7.0149    0.0000 O   0  0  0  0  0  0  0  0  0  0  0  0
    4.2880   -8.4312    0.0000 H   0  0  0  0  0  0  0  0  0  0  0  0
   -0.7135   -1.3026    0.0000 C   0  0  0  0  0  0  0  0  0  0  0  0
   -3.6089   -1.8126    0.0000 O   0  0  0  0  0  0  0  0  0  0  0  0
   -0.7130    0.1983    0.0000 N   0  0  0  0  0  0  0  0  0  0  0  0
   -2.0121    0.9483    0.0000 H   0  0  0  0  0  0  0  0  0  0  0  0
    0.5865    0.9491    0.0000 C   0  0  0  0  0  0  0  0  0  0  0  0
    0.5862    2.4491    0.0000 O   0  0  0  0  0  0  0  0  0  0  0  0
    1.8855    0.1991    0.0000 N   0  0  0  0  0  0  0  0  0  0  0  0
    3.1847    0.9489    0.0000 H   0  0  0  0  0  0  0  0  0  0  0  0
    1.8850   -1.3017    0.0000 C   0  0  0  0  0  0  0  0  0  0  0  0
    3.1841   -2.0517    0.0000 O   0  0  0  0  0  0  0  0  0  0  0  0
  1  2  1  0  0  0  0 
  1  3  1  0  0  0  0 
  1  4  1  0  0  0  0 
  1  5  1  0  0  0  0 
  5  6  1  0  0  0  0 
  5  7  1  0  0  0  0 
  5  8  1  0  0  0  0 
  8  9  1  0  0  0  0 
  9 10  2  0  0  0  0 
 10 11  1  0  0  0  0 
 10 12  1  0  0  0  0 
 12 13  1  0  0  0  0 
 12 14  2  0  0  0  0 
 14 15  1  0  0  0  0 
 15 16  1  0  0  0  0 
 15 17  2  0  0  0  0 
  9 17  1  0  0  0  0 
 17 18  1  0  0  0  0 
 14 19  1  0  0  0  0 
 19 20  1  0  0  0  0 
  8 21  1  0  0  0  0 
 21 22  2  0  0  0  0 
 21 23  1  0  0  0  0 
 23 24  1  0  0  0  0 
 23 25  1  0  0  0  0 
 25 26  2  0  0  0  0 
 25 27  1  0  0  0  0 
 27 28  1  0  0  0  0 
 27 29  1  0  0  0  0 
  8 29  1  0  0  0  0 
 29 30  2  0  0  0  0 
M  END
> <Rank>
2

> <Priority_score>
0.588

> <Reaction_type>
aromatic_hydroxylation_(para_to_carbon)

> <Parent_ID>
15

> <Parent_InChI>
InChI=1S/C12H12N2O3/c1-2-12(8-6-4-3-5-7-8)9(15)13-11(17)14-10(12)16/h3-7H,2H2,1H3,(H2,13,14,15,16,17)

> <Parent_SMILES>
CCC1(c2ccccc2)C(=O)NC(=O)NC1=O

$$$$
Molecule 15_metabolite 5
  CDK     0516241031

 30 31  0  0  0  0  0  0  0  0999 V2000
   -2.7464   -2.7272    0.0000 C   0  0  0  0  0  0  0  0  0  0  0  0
   -3.7104   -3.8764    0.0000 H   0  0  0  0  0  0  0  0  0  0  0  0
   -4.4612   -1.7374    0.0000 H   0  0  0  0  0  0  0  0  0  0  0  0
   -2.2335   -1.3176    0.0000 H   0  0  0  0  0  0  0  0  0  0  0  0
   -0.7964   -3.0708    0.0000 C   0  0  0  0  0  0  0  0  0  0  0  0
    0.5027   -3.8207    0.0000 H   0  0  0  0  0  0  0  0  0  0  0  0
    0.4761   -1.5539    0.0000 C   0  0  0  0  0  0  0  0  0  0  0  0
    1.7492   -3.0704    0.0000 C   0  0  0  0  0  0  0  0  0  0  0  0
    3.2271   -2.8090    0.0000 C   0  0  0  0  0  0  0  0  0  0  0  0
    3.9036   -0.9482    0.0000 H   0  0  0  0  0  0  0  0  0  0  0  0
    4.1915   -3.9579    0.0000 C   0  0  0  0  0  0  0  0  0  0  0  0
    5.6687   -3.6973    0.0000 H   0  0  0  0  0  0  0  0  0  0  0  0
    3.6780   -5.3681    0.0000 C   0  0  0  0  0  0  0  0  0  0  0  0
    4.6425   -6.5170    0.0000 H   0  0  0  0  0  0  0  0  0  0  0  0
    2.2001   -5.6295    0.0000 C   0  0  0  0  0  0  0  0  0  0  0  0
    1.6876   -7.0393    0.0000 H   0  0  0  0  0  0  0  0  0  0  0  0
    1.2357   -4.4807    0.0000 C   0  0  0  0  0  0  0  0  0  0  0  0
   -0.2415   -4.7412    0.0000 H   0  0  0  0  0  0  0  0  0  0  0  0
   -0.8229   -0.8039    0.0000 C   0  0  0  0  0  0  0  0  0  0  0  0
   -3.5858   -1.8090    0.0000 O   0  0  0  0  0  0  0  0  0  0  0  0
   -0.8224    0.6969    0.0000 N   0  0  0  0  0  0  0  0  0  0  0  0
   -2.1215    1.4469    0.0000 H   0  0  0  0  0  0  0  0  0  0  0  0
    0.4771    1.4477    0.0000 C   0  0  0  0  0  0  0  0  0  0  0  0
    0.4769    2.9477    0.0000 O   0  0  0  0  0  0  0  0  0  0  0  0
    1.7761    0.6977    0.0000 N   0  0  0  0  0  0  0  0  0  0  0  0
    3.0753    1.4475    0.0000 H   0  0  0  0  0  0  0  0  0  0  0  0
    1.7757   -0.8031    0.0000 C   0  0  0  0  0  0  0  0  0  0  0  0
    3.0747   -1.5531    0.0000 O   0  0  0  0  0  0  0  0  0  0  0  0
   -1.6375   -5.3826    0.0000 O   0  0  0  0  0  0  0  0  0  0  0  0
   -3.1147   -5.6432    0.0000 H   0  0  0  0  0  0  0  0  0  0  0  0
  1  2  1  0  0  0  0 
  1  3  1  0  0  0  0 
  1  4  1  0  0  0  0 
  1  5  1  0  0  0  0 
  5  6  1  0  0  0  0 
  5  7  1  0  0  0  0 
  7  8  1  0  0  0  0 
  8  9  2  0  0  0  0 
  9 10  1  0  0  0  0 
  9 11  1  0  0  0  0 
 11 12  1  0  0  0  0 
 11 13  2  0  0  0  0 
 13 14  1  0  0  0  0 
 13 15  1  0  0  0  0 
 15 16  1  0  0  0  0 
 15 17  2  0  0  0  0 
  8 17  1  0  0  0  0 
 17 18  1  0  0  0  0 
  7 19  1  0  0  0  0 
 19 20  2  0  0  0  0 
 19 21  1  0  0  0  0 
 21 22  1  0  0  0  0 
 21 23  1  0  0  0  0 
 23 24  2  0  0  0  0 
 23 25  1  0  0  0  0 
 25 26  1  0  0  0  0 
 25 27  1  0  0  0  0 
  7 27  1  0  0  0  0 
 27 28  2  0  0  0  0 
  5 29  1  0  0  0  0 
 29 30  1  0  0  0  0 
M  END
> <Rank>
5

> <Priority_score>
0.18320337197049524

> <Reaction_type>
aliphatic_hydroxylation_(sec_carbon,next_to_CH3)

> <Parent_ID>
15

> <Parent_InChI>
InChI=1S/C12H12N2O3/c1-2-12(8-6-4-3-5-7-8)9(15)13-11(17)14-10(12)16/h3-7H,2H2,1H3,(H2,13,14,15,16,17)

> <Parent_SMILES>
CCC1(c2ccccc2)C(=O)NC(=O)NC1=O

$$$$
Molecule 15_metabolite 6
  CDK     0516241031

 30 31  0  0  0  0  0  0  0  0999 V2000
    1.4172   -3.1822    0.0000 C   0  0  0  0  0  0  0  0  0  0  0  0
    2.8945   -3.4426    0.0000 H   0  0  0  0  0  0  0  0  0  0  0  0
    0.9042   -1.7718    0.0000 C   0  0  0  0  0  0  0  0  0  0  0  0
    1.8684   -0.6228    0.0000 H   0  0  0  0  0  0  0  0  0  0  0  0
   -0.5730   -1.5115    0.0000 C   0  0  0  0  0  0  0  0  0  0  0  0
   -1.0864   -0.1021    0.0000 H   0  0  0  0  0  0  0  0  0  0  0  0
   -1.5373   -2.6616    0.0000 C   0  0  0  0  0  0  0  0  0  0  0  0
   -1.0242   -4.0721    0.0000 C   0  0  0  0  0  0  0  0  0  0  0  0
   -2.2970   -5.5888    0.0000 H   0  0  0  0  0  0  0  0  0  0  0  0
    0.4530   -4.3324    0.0000 C   0  0  0  0  0  0  0  0  0  0  0  0
    0.9664   -5.7418    0.0000 H   0  0  0  0  0  0  0  0  0  0  0  0
   -3.4872   -2.3180    0.0000 C   0  0  0  0  0  0  0  0  0  0  0  0
   -2.9745   -0.9084    0.0000 C   0  0  0  0  0  0  0  0  0  0  0  0
   -1.6753   -1.6581    0.0000 H   0  0  0  0  0  0  0  0  0  0  0  0
   -2.0105    0.2409    0.0000 H   0  0  0  0  0  0  0  0  0  0  0  0
   -4.2475    0.6081    0.0000 C   0  0  0  0  0  0  0  0  0  0  0  0
   -5.5467    1.3579    0.0000 H   0  0  0  0  0  0  0  0  0  0  0  0
   -5.6570    0.0948    0.0000 H   0  0  0  0  0  0  0  0  0  0  0  0
   -3.7348    2.0178    0.0000 O   0  0  0  0  0  0  0  0  0  0  0  0
   -4.6992    3.1666    0.0000 H   0  0  0  0  0  0  0  0  0  0  0  0
   -3.4872   -3.8180    0.0000 C   0  0  0  0  0  0  0  0  0  0  0  0
   -2.1883   -4.5682    0.0000 O   0  0  0  0  0  0  0  0  0  0  0  0
   -4.7872   -4.5680    0.0000 N   0  0  0  0  0  0  0  0  0  0  0  0
   -4.7872   -6.0680    0.0000 H   0  0  0  0  0  0  0  0  0  0  0  0
   -6.0872   -3.8180    0.0000 C   0  0  0  0  0  0  0  0  0  0  0  0
   -7.3861   -4.5682    0.0000 O   0  0  0  0  0  0  0  0  0  0  0  0
   -6.0872   -2.3180    0.0000 N   0  0  0  0  0  0  0  0  0  0  0  0
   -7.3861   -1.5678    0.0000 H   0  0  0  0  0  0  0  0  0  0  0  0
   -4.7872   -1.5680    0.0000 C   0  0  0  0  0  0  0  0  0  0  0  0
   -4.0372   -0.2690    0.0000 O   0  0  0  0  0  0  0  0  0  0  0  0
  1  2  1  0  0  0  0 
  1  3  2  0  0  0  0 
  3  4  1  0  0  0  0 
  3  5  1  0  0  0  0 
  5  6  1  0  0  0  0 
  5  7  2  0  0  0  0 
  7  8  1  0  0  0  0 
  8  9  1  0  0  0  0 
  8 10  2  0  0  0  0 
  1 10  1  0  0  0  0 
 10 11  1  0  0  0  0 
  7 12  1  0  0  0  0 
 12 13  1  0  0  0  0 
 13 14  1  0  0  0  0 
 13 15  1  0  0  0  0 
 13 16  1  0  0  0  0 
 16 17  1  0  0  0  0 
 16 18  1  0  0  0  0 
 16 19  1  0  0  0  0 
 19 20  1  0  0  0  0 
 12 21  1  0  0  0  0 
 21 22  2  0  0  0  0 
 21 23  1  0  0  0  0 
 23 24  1  0  0  0  0 
 23 25  1  0  0  0  0 
 25 26  2  0  0  0  0 
 25 27  1  0  0  0  0 
 27 28  1  0  0  0  0 
 27 29  1  0  0  0  0 
 12 29  1  0  0  0  0 
 29 30  2  0  0  0  0 
M  END
> <Rank>
5

> <Priority_score>
0.18320337197049524

> <Reaction_type>
aliphatic_hydroxylation_(primary_carbon_next_to_sec_carbon)

> <Parent_ID>
15

> <Parent_InChI>
InChI=1S/C12H12N2O3/c1-2-12(8-6-4-3-5-7-8)9(15)13-11(17)14-10(12)16/h3-7H,2H2,1H3,(H2,13,14,15,16,17)

> <Parent_SMILES>
CCC1(c2ccccc2)C(=O)NC(=O)NC1=O

$$$$
Molecule 15_metabolite 7
  CDK     0516241031

 29 30  0  0  0  0  0  0  0  0999 V2000
   -5.5769   -3.7572    0.0000 C   0  0  0  0  0  0  0  0  0  0  0  0
   -6.5410   -4.9064    0.0000 H   0  0  0  0  0  0  0  0  0  0  0  0
   -4.0990   -4.0181    0.0000 C   0  0  0  0  0  0  0  0  0  0  0  0
   -3.5860   -5.4277    0.0000 H   0  0  0  0  0  0  0  0  0  0  0  0
   -3.1349   -2.8690    0.0000 C   0  0  0  0  0  0  0  0  0  0  0  0
   -1.6576   -3.1290    0.0000 H   0  0  0  0  0  0  0  0  0  0  0  0
   -3.6488   -1.4589    0.0000 C   0  0  0  0  0  0  0  0  0  0  0  0
   -5.1268   -1.1979    0.0000 C   0  0  0  0  0  0  0  0  0  0  0  0
   -5.8039    0.6627    0.0000 H   0  0  0  0  0  0  0  0  0  0  0  0
   -6.0909   -2.3471    0.0000 C   0  0  0  0  0  0  0  0  0  0  0  0
   -7.5681   -2.0870    0.0000 H   0  0  0  0  0  0  0  0  0  0  0  0
   -2.3763    0.0581    0.0000 C   0  0  0  0  0  0  0  0  0  0  0  0
   -1.4118   -1.0908    0.0000 C   0  0  0  0  0  0  0  0  0  0  0  0
   -2.7107   -1.8411    0.0000 H   0  0  0  0  0  0  0  0  0  0  0  0
   -0.8985   -2.5002    0.0000 H   0  0  0  0  0  0  0  0  0  0  0  0
    0.5380   -0.7466    0.0000 C   0  0  0  0  0  0  0  0  0  0  0  0
    1.0507    0.6631    0.0000 O   0  0  0  0  0  0  0  0  0  0  0  0
    1.5024   -1.8954    0.0000 O   0  0  0  0  0  0  0  0  0  0  0  0
    2.9796   -1.6346    0.0000 H   0  0  0  0  0  0  0  0  0  0  0  0
   -3.6753    0.8081    0.0000 C   0  0  0  0  0  0  0  0  0  0  0  0
   -4.9745    0.0583    0.0000 O   0  0  0  0  0  0  0  0  0  0  0  0
   -3.6748    2.3089    0.0000 N   0  0  0  0  0  0  0  0  0  0  0  0
   -4.9739    3.0589    0.0000 H   0  0  0  0  0  0  0  0  0  0  0  0
   -2.3753    3.0597    0.0000 C   0  0  0  0  0  0  0  0  0  0  0  0
   -2.3756    4.5597    0.0000 O   0  0  0  0  0  0  0  0  0  0  0  0
   -1.0763    2.3097    0.0000 N   0  0  0  0  0  0  0  0  0  0  0  0
    0.2229    3.0595    0.0000 H   0  0  0  0  0  0  0  0  0  0  0  0
   -1.0768    0.8089    0.0000 C   0  0  0  0  0  0  0  0  0  0  0  0
    0.2223    0.0589    0.0000 O   0  0  0  0  0  0  0  0  0  0  0  0
  1  2  1  0  0  0  0 
  1  3  2  0  0  0  0 
  3  4  1  0  0  0  0 
  3  5  1  0  0  0  0 
  5  6  1  0  0  0  0 
  5  7  2  0  0  0  0 
  7  8  1  0  0  0  0 
  8  9  1  0  0  0  0 
  8 10  2  0  0  0  0 
  1 10  1  0  0  0  0 
 10 11  1  0  0  0  0 
  7 12  1  0  0  0  0 
 12 13  1  0  0  0  0 
 13 14  1  0  0  0  0 
 13 15  1  0  0  0  0 
 13 16  1  0  0  0  0 
 16 17  2  0  0  0  0 
 16 18  1  0  0  0  0 
 18 19  1  0  0  0  0 
 12 20  1  0  0  0  0 
 20 21  2  0  0  0  0 
 20 22  1  0  0  0  0 
 22 23  1  0  0  0  0 
 22 24  1  0  0  0  0 
 24 25  2  0  0  0  0 
 24 26  1  0  0  0  0 
 26 27  1  0  0  0  0 
 26 28  1  0  0  0  0 
 12 28  1  0  0  0  0 
 28 29  2  0  0  0  0 
M  END
> <Rank>
5

> <Priority_score>
0.18320337197049524

> <Reaction_type>
carboxylation_(primary_carbon_next_to_sec_carbon)

> <Parent_ID>
15

> <Parent_InChI>
InChI=1S/C12H12N2O3/c1-2-12(8-6-4-3-5-7-8)9(15)13-11(17)14-10(12)16/h3-7H,2H2,1H3,(H2,13,14,15,16,17)

> <Parent_SMILES>
CCC1(c2ccccc2)C(=O)NC(=O)NC1=O

$$$$
Molecule 15_metabolite 8
  CDK     0516241031

 32 32  0  0  0  0  0  0  0  0999 V2000
    1.9804   -3.9778    0.0000 C   0  0  0  0  0  0  0  0  0  0  0  0
    2.2409   -5.4551    0.0000 H   0  0  0  0  0  0  0  0  0  0  0  0
    3.4804   -3.9778    0.0000 H   0  0  0  0  0  0  0  0  0  0  0  0
    2.4076   -1.5552    0.0000 H   0  0  0  0  0  0  0  0  0  0  0  0
   -0.7823   -2.9723    0.0000 C   0  0  0  0  0  0  0  0  0  0  0  0
   -2.2595   -3.2328    0.0000 H   0  0  0  0  0  0  0  0  0  0  0  0
   -0.7823   -4.4723    0.0000 H   0  0  0  0  0  0  0  0  0  0  0  0
   -1.6237   -0.6607    0.0000 C   0  0  0  0  0  0  0  0  0  0  0  0
   -3.7541   -1.8907    0.0000 C   0  0  0  0  0  0  0  0  0  0  0  0
   -3.7536   -3.3915    0.0000 C   0  0  0  0  0  0  0  0  0  0  0  0
   -2.4544   -4.1413    0.0000 H   0  0  0  0  0  0  0  0  0  0  0  0
   -5.0526   -4.1415    0.0000 C   0  0  0  0  0  0  0  0  0  0  0  0
   -5.0529   -5.6415    0.0000 H   0  0  0  0  0  0  0  0  0  0  0  0
   -6.3522   -3.3907    0.0000 C   0  0  0  0  0  0  0  0  0  0  0  0
   -7.6512   -4.1407    0.0000 H   0  0  0  0  0  0  0  0  0  0  0  0
   -6.3526   -1.8898    0.0000 C   0  0  0  0  0  0  0  0  0  0  0  0
   -7.6518   -1.1400    0.0000 H   0  0  0  0  0  0  0  0  0  0  0  0
   -5.0536   -1.1398    0.0000 C   0  0  0  0  0  0  0  0  0  0  0  0
   -5.0534    0.3602    0.0000 H   0  0  0  0  0  0  0  0  0  0  0  0
   -1.6237    1.7993    0.0000 C   0  0  0  0  0  0  0  0  0  0  0  0
   -2.9227    2.5493    0.0000 O   0  0  0  0  0  0  0  0  0  0  0  0
   -0.3246    2.5493    0.0000 N   0  0  0  0  0  0  0  0  0  0  0  0
    0.9744    1.7993    0.0000 H   0  0  0  0  0  0  0  0  0  0  0  0
   -0.3246    4.0493    0.0000 C   0  0  0  0  0  0  0  0  0  0  0  0
   -1.6237    4.7993    0.0000 O   0  0  0  0  0  0  0  0  0  0  0  0
    0.9744    4.7993    0.0000 N   0  0  0  0  0  0  0  0  0  0  0  0
    0.9744    6.2993    0.0000 H   0  0  0  0  0  0  0  0  0  0  0  0
    2.2735    4.0493    0.0000 H   0  0  0  0  0  0  0  0  0  0  0  0
    1.2717   -0.1501    0.0000 C   0  0  0  0  0  0  0  0  0  0  0  0
    1.7847    1.2594    0.0000 O   0  0  0  0  0  0  0  0  0  0  0  0
    3.1615   -2.4023    0.0000 O   0  0  0  0  0  0  0  0  0  0  0  0
    5.5841   -1.9751    0.0000 H   0  0  0  0  0  0  0  0  0  0  0  0
  1  2  1  0  0  0  0 
  1  3  1  0  0  0  0 
  1  4  1  0  0  0  0 
  1  5  1  0  0  0  0 
  5  6  1  0  0  0  0 
  5  7  1  0  0  0  0 
  5  8  1  0  0  0  0 
  8  9  1  0  0  0  0 
  9 10  2  0  0  0  0 
 10 11  1  0  0  0  0 
 10 12  1  0  0  0  0 
 12 13  1  0  0  0  0 
 12 14  2  0  0  0  0 
 14 15  1  0  0  0  0 
 14 16  1  0  0  0  0 
 16 17  1  0  0  0  0 
 16 18  2  0  0  0  0 
  9 18  1  0  0  0  0 
 18 19  1  0  0  0  0 
  8 20  1  0  0  0  0 
 20 21  2  0  0  0  0 
 20 22  1  0  0  0  0 
 22 23  1  0  0  0  0 
 22 24  1  0  0  0  0 
 24 25  2  0  0  0  0 
 24 26  1  0  0  0  0 
 26 27  1  0  0  0  0 
 26 28  1  0  0  0  0 
  8 29  1  0  0  0  0 
 29 30  2  0  0  0  0 
 29 31  1  0  0  0  0 
 31 32  1  0  0  0  0 
M  END
> <Rank>
8

> <Priority_score>
0.156

> <Reaction_type>
hydrolysis_(secondary_amide)

> <Parent_ID>
15

> <Parent_InChI>
InChI=1S/C12H12N2O3/c1-2-12(8-6-4-3-5-7-8)9(15)13-11(17)14-10(12)16/h3-7H,2H2,1H3,(H2,13,14,15,16,17)

> <Parent_SMILES>
CCC1(c2ccccc2)C(=O)NC(=O)NC1=O

$$$$
Molecule 15_metabolite 9
  CDK     0516241031

 30 31  0  0  0  0  0  0  0  0999 V2000
   -2.6205   -3.9573    0.0000 C   0  0  0  0  0  0  0  0  0  0  0  0
   -3.5846   -5.1065    0.0000 H   0  0  0  0  0  0  0  0  0  0  0  0
   -4.3353   -2.9675    0.0000 H   0  0  0  0  0  0  0  0  0  0  0  0
   -2.1076   -2.5477    0.0000 H   0  0  0  0  0  0  0  0  0  0  0  0
   -0.6706   -4.3009    0.0000 C   0  0  0  0  0  0  0  0  0  0  0  0
    0.6286   -5.0508    0.0000 H   0  0  0  0  0  0  0  0  0  0  0  0
   -1.5117   -6.6127    0.0000 H   0  0  0  0  0  0  0  0  0  0  0  0
    0.6020   -2.7840    0.0000 C   0  0  0  0  0  0  0  0  0  0  0  0
    1.8750   -4.3005    0.0000 C   0  0  0  0  0  0  0  0  0  0  0  0
    3.3529   -4.0391    0.0000 C   0  0  0  0  0  0  0  0  0  0  0  0
    4.0294   -2.1783    0.0000 H   0  0  0  0  0  0  0  0  0  0  0  0
    4.3174   -5.1880    0.0000 C   0  0  0  0  0  0  0  0  0  0  0  0
    5.7946   -4.9274    0.0000 H   0  0  0  0  0  0  0  0  0  0  0  0
    3.8039   -6.5982    0.0000 C   0  0  0  0  0  0  0  0  0  0  0  0
    4.7683   -7.7471    0.0000 H   0  0  0  0  0  0  0  0  0  0  0  0
    2.3260   -6.8597    0.0000 C   0  0  0  0  0  0  0  0  0  0  0  0
    1.8135   -8.2694    0.0000 H   0  0  0  0  0  0  0  0  0  0  0  0
    1.3616   -5.7108    0.0000 C   0  0  0  0  0  0  0  0  0  0  0  0
   -0.1156   -5.9713    0.0000 H   0  0  0  0  0  0  0  0  0  0  0  0
   -0.6970   -2.0340    0.0000 C   0  0  0  0  0  0  0  0  0  0  0  0
   -3.5925   -2.5441    0.0000 O   0  0  0  0  0  0  0  0  0  0  0  0
   -0.6966   -0.5332    0.0000 N   0  0  0  0  0  0  0  0  0  0  0  0
   -1.9956    0.2168    0.0000 H   0  0  0  0  0  0  0  0  0  0  0  0
    0.6030    0.2176    0.0000 C   0  0  0  0  0  0  0  0  0  0  0  0
    0.6027    1.7176    0.0000 O   0  0  0  0  0  0  0  0  0  0  0  0
    1.9020   -0.5324    0.0000 N   0  0  0  0  0  0  0  0  0  0  0  0
    1.9015   -2.0332    0.0000 C   0  0  0  0  0  0  0  0  0  0  0  0
    3.2006   -2.7832    0.0000 O   0  0  0  0  0  0  0  0  0  0  0  0
    3.2012    0.2174    0.0000 O   0  0  0  0  0  0  0  0  0  0  0  0
    3.2014    1.7174    0.0000 H   0  0  0  0  0  0  0  0  0  0  0  0
  1  2  1  0  0  0  0 
  1  3  1  0  0  0  0 
  1  4  1  0  0  0  0 
  1  5  1  0  0  0  0 
  5  6  1  0  0  0  0 
  5  7  1  0  0  0  0 
  5  8  1  0  0  0  0 
  8  9  1  0  0  0  0 
  9 10  2  0  0  0  0 
 10 11  1  0  0  0  0 
 10 12  1  0  0  0  0 
 12 13  1  0  0  0  0 
 12 14  2  0  0  0  0 
 14 15  1  0  0  0  0 
 14 16  1  0  0  0  0 
 16 17  1  0  0  0  0 
 16 18  2  0  0  0  0 
  9 18  1  0  0  0  0 
 18 19  1  0  0  0  0 
  8 20  1  0  0  0  0 
 20 21  2  0  0  0  0 
 20 22  1  0  0  0  0 
 22 23  1  0  0  0  0 
 22 24  1  0  0  0  0 
 24 25  2  0  0  0  0 
 24 26  1  0  0  0  0 
 26 27  1  0  0  0  0 
  8 27  1  0  0  0  0 
 27 28  2  0  0  0  0 
 26 29  1  0  0  0  0 
 29 30  1  0  0  0  0 
M  END
> <Rank>
8

> <Priority_score>
0.156

> <Reaction_type>
amine hydroxylation

> <Parent_ID>
15

> <Parent_InChI>
InChI=1S/C12H12N2O3/c1-2-12(8-6-4-3-5-7-8)9(15)13-11(17)14-10(12)16/h3-7H,2H2,1H3,(H2,13,14,15,16,17)

> <Parent_SMILES>
CCC1(c2ccccc2)C(=O)NC(=O)NC1=O

$$$$
Molecule 15_metabolite 10
  CDK     0516241031

 32 32  0  0  0  0  0  0  0  0999 V2000
    4.2900    1.3932    0.0000 C   0  0  0  0  0  0  0  0  0  0  0  0
    5.4391    0.4290    0.0000 H   0  0  0  0  0  0  0  0  0  0  0  0
    5.4391    2.3574    0.0000 H   0  0  0  0  0  0  0  0  0  0  0  0
    3.5400    2.6922    0.0000 H   0  0  0  0  0  0  0  0  0  0  0  0
    1.5274    0.3877    0.0000 C   0  0  0  0  0  0  0  0  0  0  0  0
    1.0143   -1.0219    0.0000 H   0  0  0  0  0  0  0  0  0  0  0  0
    3.6578   -0.8423    0.0000 H   0  0  0  0  0  0  0  0  0  0  0  0
   -0.4226    0.7315    0.0000 C   0  0  0  0  0  0  0  0  0  0  0  0
   -0.4226   -1.2485    0.0000 C   0  0  0  0  0  0  0  0  0  0  0  0
    0.8774   -1.9985    0.0000 C   0  0  0  0  0  0  0  0  0  0  0  0
    2.1763   -1.2483    0.0000 H   0  0  0  0  0  0  0  0  0  0  0  0
    0.8774   -3.4985    0.0000 C   0  0  0  0  0  0  0  0  0  0  0  0
    2.1763   -4.2487    0.0000 H   0  0  0  0  0  0  0  0  0  0  0  0
   -0.4226   -4.2485    0.0000 C   0  0  0  0  0  0  0  0  0  0  0  0
   -0.4226   -5.7485    0.0000 H   0  0  0  0  0  0  0  0  0  0  0  0
   -1.7226   -3.4985    0.0000 C   0  0  0  0  0  0  0  0  0  0  0  0
   -3.0215   -4.2487    0.0000 H   0  0  0  0  0  0  0  0  0  0  0  0
   -1.7226   -1.9985    0.0000 C   0  0  0  0  0  0  0  0  0  0  0  0
   -3.0215   -1.2483    0.0000 H   0  0  0  0  0  0  0  0  0  0  0  0
    0.0905    2.1410    0.0000 C   0  0  0  0  0  0  0  0  0  0  0  0
   -1.2086    2.8910    0.0000 O   0  0  0  0  0  0  0  0  0  0  0  0
    1.5677    2.4015    0.0000 N   0  0  0  0  0  0  0  0  0  0  0  0
    2.4090    4.7131    0.0000 H   0  0  0  0  0  0  0  0  0  0  0  0
    2.8404    0.8847    0.0000 H   0  0  0  0  0  0  0  0  0  0  0  0
   -2.5530    1.9615    0.0000 C   0  0  0  0  0  0  0  0  0  0  0  0
   -3.8520    1.2115    0.0000 O   0  0  0  0  0  0  0  0  0  0  0  0
   -2.5530    3.4615    0.0000 N   0  0  0  0  0  0  0  0  0  0  0  0
   -1.2540    4.2115    0.0000 H   0  0  0  0  0  0  0  0  0  0  0  0
   -4.6834    4.6915    0.0000 C   0  0  0  0  0  0  0  0  0  0  0  0
   -5.9825    3.9415    0.0000 O   0  0  0  0  0  0  0  0  0  0  0  0
   -4.6834    6.1915    0.0000 O   0  0  0  0  0  0  0  0  0  0  0  0
   -5.9825    6.9415    0.0000 H   0  0  0  0  0  0  0  0  0  0  0  0
  1  2  1  0  0  0  0 
  1  3  1  0  0  0  0 
  1  4  1  0  0  0  0 
  1  5  1  0  0  0  0 
  5  6  1  0  0  0  0 
  5  7  1  0  0  0  0 
  5  8  1  0  0  0  0 
  8  9  1  0  0  0  0 
  9 10  2  0  0  0  0 
 10 11  1  0  0  0  0 
 10 12  1  0  0  0  0 
 12 13  1  0  0  0  0 
 12 14  2  0  0  0  0 
 14 15  1  0  0  0  0 
 14 16  1  0  0  0  0 
 16 17  1  0  0  0  0 
 16 18  2  0  0  0  0 
  9 18  1  0  0  0  0 
 18 19  1  0  0  0  0 
  8 20  1  0  0  0  0 
 20 21  2  0  0  0  0 
 20 22  1  0  0  0  0 
 22 23  1  0  0  0  0 
 22 24  1  0  0  0  0 
  8 25  1  0  0  0  0 
 25 26  2  0  0  0  0 
 25 27  1  0  0  0  0 
 27 28  1  0  0  0  0 
 27 29  1  0  0  0  0 
 29 30  2  0  0  0  0 
 29 31  1  0  0  0  0 
 31 32  1  0  0  0  0 
M  END
> <Rank>
8

> <Priority_score>
0.156

> <Reaction_type>
hydrolysis_(urea_or_carbonate)

> <Parent_ID>
15

> <Parent_InChI>
InChI=1S/C12H12N2O3/c1-2-12(8-6-4-3-5-7-8)9(15)13-11(17)14-10(12)16/h3-7H,2H2,1H3,(H2,13,14,15,16,17)

> <Parent_SMILES>
CCC1(c2ccccc2)C(=O)NC(=O)NC1=O

$$$$
Molecule 15_metabolite 11
  CDK     0516241031

 27 28  0  0  0  0  0  0  0  0999 V2000
   -2.3343   -5.2585    0.0000 C   0  0  0  0  0  0  0  0  0  0  0  0
   -1.8211   -6.6680    0.0000 H   0  0  0  0  0  0  0  0  0  0  0  0
   -3.8115   -4.9982    0.0000 H   0  0  0  0  0  0  0  0  0  0  0  0
   -1.0617   -3.7416    0.0000 C   0  0  0  0  0  0  0  0  0  0  0  0
    0.4155   -4.0019    0.0000 H   0  0  0  0  0  0  0  0  0  0  0  0
   -1.5749   -2.3321    0.0000 C   0  0  0  0  0  0  0  0  0  0  0  0
    0.8476   -1.9045    0.0000 C   0  0  0  0  0  0  0  0  0  0  0  0
    1.3602   -0.4939    0.0000 C   0  0  0  0  0  0  0  0  0  0  0  0
    0.3956    0.6548    0.0000 H   0  0  0  0  0  0  0  0  0  0  0  0
    2.8373   -0.2331    0.0000 C   0  0  0  0  0  0  0  0  0  0  0  0
    3.3503    1.1765    0.0000 H   0  0  0  0  0  0  0  0  0  0  0  0
    3.8019   -1.3829    0.0000 C   0  0  0  0  0  0  0  0  0  0  0  0
    5.2791   -1.1221    0.0000 H   0  0  0  0  0  0  0  0  0  0  0  0
    3.2894   -2.7935    0.0000 C   0  0  0  0  0  0  0  0  0  0  0  0
    4.2540   -3.9422    0.0000 H   0  0  0  0  0  0  0  0  0  0  0  0
    1.8122   -3.0543    0.0000 C   0  0  0  0  0  0  0  0  0  0  0  0
    1.1351   -4.9149    0.0000 H   0  0  0  0  0  0  0  0  0  0  0  0
   -2.8740   -3.0821    0.0000 C   0  0  0  0  0  0  0  0  0  0  0  0
   -2.8742   -4.5821    0.0000 O   0  0  0  0  0  0  0  0  0  0  0  0
   -4.1735   -2.3313    0.0000 N   0  0  0  0  0  0  0  0  0  0  0  0
   -5.4725   -3.0813    0.0000 H   0  0  0  0  0  0  0  0  0  0  0  0
   -4.1740   -0.8305    0.0000 C   0  0  0  0  0  0  0  0  0  0  0  0
   -5.4731   -0.0807    0.0000 O   0  0  0  0  0  0  0  0  0  0  0  0
   -2.8749   -0.0805    0.0000 N   0  0  0  0  0  0  0  0  0  0  0  0
   -2.8747    1.4195    0.0000 H   0  0  0  0  0  0  0  0  0  0  0  0
   -1.5754   -0.8313    0.0000 C   0  0  0  0  0  0  0  0  0  0  0  0
   -0.2764   -0.0813    0.0000 O   0  0  0  0  0  0  0  0  0  0  0  0
  1  2  1  0  0  0  0 
  1  3  1  0  0  0  0 
  1  4  2  0  0  0  0 
  4  5  1  0  0  0  0 
  4  6  1  0  0  0  0 
  6  7  1  0  0  0  0 
  7  8  2  0  0  0  0 
  8  9  1  0  0  0  0 
  8 10  1  0  0  0  0 
 10 11  1  0  0  0  0 
 10 12  2  0  0  0  0 
 12 13  1  0  0  0  0 
 12 14  1  0  0  0  0 
 14 15  1  0  0  0  0 
 14 16  2  0  0  0  0 
  7 16  1  0  0  0  0 
 16 17  1  0  0  0  0 
  6 18  1  0  0  0  0 
 18 19  2  0  0  0  0 
 18 20  1  0  0  0  0 
 20 21  1  0  0  0  0 
 20 22  1  0  0  0  0 
 22 23  2  0  0  0  0 
 22 24  1  0  0  0  0 
 24 25  1  0  0  0  0 
 24 26  1  0  0  0  0 
  6 26  1  0  0  0  0 
 26 27  2  0  0  0  0 
M  END
> <Rank>
11

> <Priority_score>
0.03664067439409905

> <Reaction_type>
alkyl dehydrogenation

> <Parent_ID>
15

> <Parent_InChI>
InChI=1S/C12H12N2O3/c1-2-12(8-6-4-3-5-7-8)9(15)13-11(17)14-10(12)16/h3-7H,2H2,1H3,(H2,13,14,15,16,17)

> <Parent_SMILES>
CCC1(c2ccccc2)C(=O)NC(=O)NC1=O

$$$$
Molecule 15_metabolite 12
  CDK     0516241031

 30 31  0  0  0  0  0  0  0  0999 V2000
   -2.5058   -3.1448    0.0000 C   0  0  0  0  0  0  0  0  0  0  0  0
   -3.4699   -4.2940    0.0000 H   0  0  0  0  0  0  0  0  0  0  0  0
   -4.2206   -2.1550    0.0000 H   0  0  0  0  0  0  0  0  0  0  0  0
   -1.9929   -1.7352    0.0000 H   0  0  0  0  0  0  0  0  0  0  0  0
   -0.5559   -3.4884    0.0000 C   0  0  0  0  0  0  0  0  0  0  0  0
    0.7433   -4.2383    0.0000 H   0  0  0  0  0  0  0  0  0  0  0  0
   -1.3970   -5.8002    0.0000 H   0  0  0  0  0  0  0  0  0  0  0  0
    0.7167   -1.9715    0.0000 C   0  0  0  0  0  0  0  0  0  0  0  0
    1.9897   -3.4880    0.0000 C   0  0  0  0  0  0  0  0  0  0  0  0
    3.4669   -3.2275    0.0000 C   0  0  0  0  0  0  0  0  0  0  0  0
    4.4314   -4.3774    0.0000 C   0  0  0  0  0  0  0  0  0  0  0  0
    5.9086   -4.1169    0.0000 H   0  0  0  0  0  0  0  0  0  0  0  0
    3.9186   -5.7879    0.0000 C   0  0  0  0  0  0  0  0  0  0  0  0
    4.8830   -6.9368    0.0000 H   0  0  0  0  0  0  0  0  0  0  0  0
    2.4414   -6.0485    0.0000 C   0  0  0  0  0  0  0  0  0  0  0  0
    1.9282   -7.4580    0.0000 H   0  0  0  0  0  0  0  0  0  0  0  0
    1.4770   -4.8985    0.0000 C   0  0  0  0  0  0  0  0  0  0  0  0
   -0.0002   -5.1591    0.0000 H   0  0  0  0  0  0  0  0  0  0  0  0
    4.1443   -1.3669    0.0000 O   0  0  0  0  0  0  0  0  0  0  0  0
    5.6216   -1.1066    0.0000 H   0  0  0  0  0  0  0  0  0  0  0  0
   -0.5823   -1.2215    0.0000 C   0  0  0  0  0  0  0  0  0  0  0  0
   -3.4777   -1.7316    0.0000 O   0  0  0  0  0  0  0  0  0  0  0  0
   -0.5819    0.2793    0.0000 N   0  0  0  0  0  0  0  0  0  0  0  0
   -1.8809    1.0293    0.0000 H   0  0  0  0  0  0  0  0  0  0  0  0
    0.7177    1.0301    0.0000 C   0  0  0  0  0  0  0  0  0  0  0  0
    0.7174    2.5301    0.0000 O   0  0  0  0  0  0  0  0  0  0  0  0
    2.0167    0.2801    0.0000 N   0  0  0  0  0  0  0  0  0  0  0  0
    3.3159    1.0299    0.0000 H   0  0  0  0  0  0  0  0  0  0  0  0
    2.0162   -1.2207    0.0000 C   0  0  0  0  0  0  0  0  0  0  0  0
    3.3153   -1.9707    0.0000 O   0  0  0  0  0  0  0  0  0  0  0  0
  1  2  1  0  0  0  0 
  1  3  1  0  0  0  0 
  1  4  1  0  0  0  0 
  1  5  1  0  0  0  0 
  5  6  1  0  0  0  0 
  5  7  1  0  0  0  0 
  5  8  1  0  0  0  0 
  8  9  1  0  0  0  0 
  9 10  2  0  0  0  0 
 10 11  1  0  0  0  0 
 11 12  1  0  0  0  0 
 11 13  2  0  0  0  0 
 13 14  1  0  0  0  0 
 13 15  1  0  0  0  0 
 15 16  1  0  0  0  0 
 15 17  2  0  0  0  0 
  9 17  1  0  0  0  0 
 17 18  1  0  0  0  0 
 10 19  1  0  0  0  0 
 19 20  1  0  0  0  0 
  8 21  1  0  0  0  0 
 21 22  2  0  0  0  0 
 21 23  1  0  0  0  0 
 23 24  1  0  0  0  0 
 23 25  1  0  0  0  0 
 25 26  2  0  0  0  0 
 25 27  1  0  0  0  0 
 27 28  1  0  0  0  0 
 27 29  1  0  0  0  0 
  8 29  1  0  0  0  0 
 29 30  2  0  0  0  0 
M  END
> <Rank>
12

> <Priority_score>
0.012

> <Reaction_type>
aromatic hydroxylation

> <Parent_ID>
15

> <Parent_InChI>
InChI=1S/C12H12N2O3/c1-2-12(8-6-4-3-5-7-8)9(15)13-11(17)14-10(12)16/h3-7H,2H2,1H3,(H2,13,14,15,16,17)

> <Parent_SMILES>
CCC1(c2ccccc2)C(=O)NC(=O)NC1=O

$$$$
Molecule 15_metabolite 13
  CDK     0516241031

 31 31  0  0  0  0  0  0  0  0999 V2000
   -4.8334   -0.9502    0.0000 C   0  0  0  0  0  0  0  0  0  0  0  0
   -5.9825    0.0140    0.0000 H   0  0  0  0  0  0  0  0  0  0  0  0
   -5.9825   -1.9144    0.0000 H   0  0  0  0  0  0  0  0  0  0  0  0
   -4.0834   -2.2493    0.0000 H   0  0  0  0  0  0  0  0  0  0  0  0
   -2.0707    0.0553    0.0000 C   0  0  0  0  0  0  0  0  0  0  0  0
   -1.5577    1.4649    0.0000 H   0  0  0  0  0  0  0  0  0  0  0  0
   -4.2011    1.2853    0.0000 H   0  0  0  0  0  0  0  0  0  0  0  0
   -0.1208   -0.2885    0.0000 C   0  0  0  0  0  0  0  0  0  0  0  0
   -0.1208    1.6915    0.0000 C   0  0  0  0  0  0  0  0  0  0  0  0
   -1.4208    2.4415    0.0000 C   0  0  0  0  0  0  0  0  0  0  0  0
   -2.7197    1.6913    0.0000 H   0  0  0  0  0  0  0  0  0  0  0  0
   -1.4208    3.9415    0.0000 C   0  0  0  0  0  0  0  0  0  0  0  0
   -2.7197    4.6917    0.0000 H   0  0  0  0  0  0  0  0  0  0  0  0
   -0.1208    4.6915    0.0000 C   0  0  0  0  0  0  0  0  0  0  0  0
   -0.1208    6.1915    0.0000 H   0  0  0  0  0  0  0  0  0  0  0  0
    1.1792    3.9415    0.0000 C   0  0  0  0  0  0  0  0  0  0  0  0
    2.4781    4.6917    0.0000 H   0  0  0  0  0  0  0  0  0  0  0  0
    1.1792    2.4415    0.0000 C   0  0  0  0  0  0  0  0  0  0  0  0
    2.4781    1.6913    0.0000 H   0  0  0  0  0  0  0  0  0  0  0  0
   -0.6338   -1.6980    0.0000 C   0  0  0  0  0  0  0  0  0  0  0  0
    0.6652   -2.4480    0.0000 O   0  0  0  0  0  0  0  0  0  0  0  0
   -2.1110   -1.9585    0.0000 N   0  0  0  0  0  0  0  0  0  0  0  0
   -2.9524   -4.2702    0.0000 H   0  0  0  0  0  0  0  0  0  0  0  0
   -3.3837   -0.4417    0.0000 H   0  0  0  0  0  0  0  0  0  0  0  0
    2.0097   -1.5185    0.0000 C   0  0  0  0  0  0  0  0  0  0  0  0
    3.3087   -0.7685    0.0000 O   0  0  0  0  0  0  0  0  0  0  0  0
    2.0097   -3.0185    0.0000 N   0  0  0  0  0  0  0  0  0  0  0  0
    0.7106   -3.7685    0.0000 H   0  0  0  0  0  0  0  0  0  0  0  0
    4.1401   -4.2485    0.0000 C   0  0  0  0  0  0  0  0  0  0  0  0
    4.1401   -5.7485    0.0000 H   0  0  0  0  0  0  0  0  0  0  0  0
    5.4391   -3.4985    0.0000 O   0  0  0  0  0  0  0  0  0  0  0  0
  1  2  1  0  0  0  0 
  1  3  1  0  0  0  0 
  1  4  1  0  0  0  0 
  1  5  1  0  0  0  0 
  5  6  1  0  0  0  0 
  5  7  1  0  0  0  0 
  5  8  1  0  0  0  0 
  8  9  1  0  0  0  0 
  9 10  2  0  0  0  0 
 10 11  1  0  0  0  0 
 10 12  1  0  0  0  0 
 12 13  1  0  0  0  0 
 12 14  2  0  0  0  0 
 14 15  1  0  0  0  0 
 14 16  1  0  0  0  0 
 16 17  1  0  0  0  0 
 16 18  2  0  0  0  0 
  9 18  1  0  0  0  0 
 18 19  1  0  0  0  0 
  8 20  1  0  0  0  0 
 20 21  2  0  0  0  0 
 20 22  1  0  0  0  0 
 22 23  1  0  0  0  0 
 22 24  1  0  0  0  0 
  8 25  1  0  0  0  0 
 25 26  2  0  0  0  0 
 25 27  1  0  0  0  0 
 27 28  1  0  0  0  0 
 27 29  1  0  0  0  0 
 29 30  1  0  0  0  0 
 29 31  2  0  0  0  0 
M  END
> <Rank>
13

> <Priority_score>
0.0072

> <Reaction_type>
carbamide cleavage

> <Parent_ID>
15

> <Parent_InChI>
InChI=1S/C12H12N2O3/c1-2-12(8-6-4-3-5-7-8)9(15)13-11(17)14-10(12)16/h3-7H,2H2,1H3,(H2,13,14,15,16,17)

> <Parent_SMILES>
CCC1(c2ccccc2)C(=O)NC(=O)NC1=O

$$$$
Molecule 16
  CDK     0516241031

 22 24  0  0  0  0  0  0  0  0999 V2000
    4.8500   -1.2990    0.0000 C   0  0  0  0  0  0  0  0  0  0  0  0
    4.1000   -0.0000    0.0000 C   0  0  0  0  0  0  0  0  0  0  0  0
    2.6000    0.0000    0.0000 C   0  0  0  0  0  0  0  0  0  0  0  0
    1.7200    1.2100    0.0000 C   0  0  0  0  0  0  0  0  0  0  0  0
    0.2900    0.7500    0.0000 C   0  0  0  0  0  0  0  0  0  0  0  0
    0.2900   -0.7500    0.0000 C   0  0  0  0  0  0  0  0  0  0  0  0
   -1.0100   -1.5000    0.0000 C   0  0  0  0  0  0  0  0  0  0  0  0
   -2.3100   -0.7500    0.0000 C   0  0  0  0  0  0  0  0  0  0  0  0
   -2.3100    0.7500    0.0000 C   0  0  0  0  0  0  0  0  0  0  0  0
   -1.0100    1.5000    0.0000 C   0  0  0  0  0  0  0  0  0  0  0  0
    1.7200   -1.2100    0.0000 O   0  0  0  0  0  0  0  0  0  0  0  0
    2.1853    2.6360    0.0000 C   0  0  0  0  0  0  0  0  0  0  0  0
    1.1830    3.7520    0.0000 O   0  0  0  0  0  0  0  0  0  0  0  0
    3.6529    2.9461    0.0000 C   0  0  0  0  0  0  0  0  0  0  0  0
    4.6554    1.8292    0.0000 C   0  0  0  0  0  0  0  0  0  0  0  0
    6.1230    2.1393    0.0000 C   0  0  0  0  0  0  0  0  0  0  0  0
    6.5881    3.5662    0.0000 C   0  0  0  0  0  0  0  0  0  0  0  0
    5.5856    4.6831    0.0000 C   0  0  0  0  0  0  0  0  0  0  0  0
    4.1180    4.3730    0.0000 C   0  0  0  0  0  0  0  0  0  0  0  0
    6.0511    6.1090    0.0000 Br  0  0  0  0  0  0  0  0  0  0  0  0
    8.0557    3.8763    0.0000 O   0  0  0  0  0  0  0  0  0  0  0  0
    7.1255    1.0235    0.0000 Br  0  0  0  0  0  0  0  0  0  0  0  0
  1  2  1  0  0  0  0 
  2  3  1  0  0  0  0 
  3  4  1  0  0  0  0 
  4  5  1  0  0  0  0 
  5  6  2  0  0  0  0 
  6  7  1  0  0  0  0 
  7  8  2  0  0  0  0 
  8  9  1  0  0  0  0 
  9 10  2  0  0  0  0 
  5 10  1  0  0  0  0 
  6 11  1  0  0  0  0 
  3 11  1  0  0  0  0 
  4 12  1  0  0  0  0 
 12 13  2  0  0  0  0 
 12 14  1  0  0  0  0 
 14 15  2  0  0  0  0 
 15 16  1  0  0  0  0 
 16 17  2  0  0  0  0 
 17 18  1  0  0  0  0 
 18 19  2  0  0  0  0 
 14 19  1  0  0  0  0 
 18 20  1  0  0  0  0 
 17 21  1  0  0  0  0 
 16 22  1  0  0  0  0 
M  END
> <SMILES>
CCC1Oc2ccccc2C1C(=O)c1cc(Br)c(O)c(Br)c1

$$$$
Molecule 16_metabolite 1
  CDK     0516241031

 56 59  0  0  0  0  0  0  0  0999 V2000
   11.1351    0.0464    0.0000 C   0  0  0  0  0  0  0  0  0  0  0  0
   11.1299   -1.4536    0.0000 H   0  0  0  0  0  0  0  0  0  0  0  0
    9.6570   -0.2090    0.0000 H   0  0  0  0  0  0  0  0  0  0  0  0
   10.6269    1.4577    0.0000 H   0  0  0  0  0  0  0  0  0  0  0  0
   12.4367    0.7919    0.0000 C   0  0  0  0  0  0  0  0  0  0  0  0
   13.9148    1.0473    0.0000 H   0  0  0  0  0  0  0  0  0  0  0  0
   12.9449   -0.6194    0.0000 H   0  0  0  0  0  0  0  0  0  0  0  0
   12.4418    2.2919    0.0000 C   0  0  0  0  0  0  0  0  0  0  0  0
   10.9495    2.1407    0.0000 H   0  0  0  0  0  0  0  0  0  0  0  0
   12.1367    3.7566    0.0000 C   0  0  0  0  0  0  0  0  0  0  0  0
   10.7088    3.2973    0.0000 H   0  0  0  0  0  0  0  0  0  0  0  0
   13.4381    4.5068    0.0000 C   0  0  0  0  0  0  0  0  0  0  0  0
   14.5493    3.4992    0.0000 C   0  0  0  0  0  0  0  0  0  0  0  0
   15.9781    3.9583    0.0000 C   0  0  0  0  0  0  0  0  0  0  0  0
   17.0892    2.9506    0.0000 H   0  0  0  0  0  0  0  0  0  0  0  0
   16.2959    5.4251    0.0000 C   0  0  0  0  0  0  0  0  0  0  0  0
   17.7242    5.8832    0.0000 H   0  0  0  0  0  0  0  0  0  0  0  0
   15.1848    6.4328    0.0000 C   0  0  0  0  0  0  0  0  0  0  0  0
   15.5017    7.8989    0.0000 H   0  0  0  0  0  0  0  0  0  0  0  0
   13.7559    5.9737    0.0000 C   0  0  0  0  0  0  0  0  0  0  0  0
   12.6448    6.9813    0.0000 H   0  0  0  0  0  0  0  0  0  0  0  0
   13.9293    2.1309    0.0000 O   0  0  0  0  0  0  0  0  0  0  0  0
   10.9458    6.4446    0.0000 C   0  0  0  0  0  0  0  0  0  0  0  0
   11.8296    7.6565    0.0000 O   0  0  0  0  0  0  0  0  0  0  0  0
    9.4543    6.6041    0.0000 C   0  0  0  0  0  0  0  0  0  0  0  0
    8.5703    5.3912    0.0000 C   0  0  0  0  0  0  0  0  0  0  0  0
    9.1782    4.0199    0.0000 H   0  0  0  0  0  0  0  0  0  0  0  0
    7.0788    5.5506    0.0000 C   0  0  0  0  0  0  0  0  0  0  0  0
    6.4713    6.9230    0.0000 C   0  0  0  0  0  0  0  0  0  0  0  0
    7.3552    8.1359    0.0000 C   0  0  0  0  0  0  0  0  0  0  0  0
    8.8467    7.9764    0.0000 C   0  0  0  0  0  0  0  0  0  0  0  0
    9.7308    9.1882    0.0000 H   0  0  0  0  0  0  0  0  0  0  0  0
    6.7474    9.5072    0.0000 Br  0  0  0  0  0  0  0  0  0  0  0  0
    4.9798    7.0825    0.0000 O   0  0  0  0  0  0  0  0  0  0  0  0
    4.3721    8.4539    0.0000 C   0  0  0  0  0  0  0  0  0  0  0  0
    5.8274    8.8175    0.0000 H   0  0  0  0  0  0  0  0  0  0  0  0
    3.1335    7.6258    0.0000 C   0  0  0  0  0  0  0  0  0  0  0  0
    2.2458    6.4166    0.0000 H   0  0  0  0  0  0  0  0  0  0  0  0
    1.7680    8.3007    0.0000 C   0  0  0  0  0  0  0  0  0  0  0  0
    0.2775    8.4696    0.0000 H   0  0  0  0  0  0  0  0  0  0  0  0
    1.6773    9.8038    0.0000 C   0  0  0  0  0  0  0  0  0  0  0  0
    1.0753   11.1777    0.0000 H   0  0  0  0  0  0  0  0  0  0  0  0
    2.9160   10.6320    0.0000 C   0  0  0  0  0  0  0  0  0  0  0  0
    3.8029   11.8417    0.0000 H   0  0  0  0  0  0  0  0  0  0  0  0
    1.5465   12.0620    0.0000 C   0  0  0  0  0  0  0  0  0  0  0  0
    0.0896   11.7053    0.0000 O   0  0  0  0  0  0  0  0  0  0  0  0
    1.9661   13.5022    0.0000 O   0  0  0  0  0  0  0  0  0  0  0  0
    0.9286   14.5856    0.0000 H   0  0  0  0  0  0  0  0  0  0  0  0
    4.2620    9.9681    0.0000 O   0  0  0  0  0  0  0  0  0  0  0  0
    0.2191    9.4522    0.0000 O   0  0  0  0  0  0  0  0  0  0  0  0
   -0.8145   10.5392    0.0000 H   0  0  0  0  0  0  0  0  0  0  0  0
    1.3449    6.8616    0.0000 O   0  0  0  0  0  0  0  0  0  0  0  0
   -0.1130    6.5085    0.0000 H   0  0  0  0  0  0  0  0  0  0  0  0
    4.1706    6.5421    0.0000 O   0  0  0  0  0  0  0  0  0  0  0  0
    3.7506    5.1021    0.0000 H   0  0  0  0  0  0  0  0  0  0  0  0
    6.1948    4.3388    0.0000 Br  0  0  0  0  0  0  0  0  0  0  0  0
  1  2  1  0  0  0  0 
  1  3  1  0  0  0  0 
  1  4  1  0  0  0  0 
  1  5  1  0  0  0  0 
  5  6  1  0  0  0  0 
  5  7  1  0  0  0  0 
  5  8  1  0  0  0  0 
  8  9  1  0  0  0  0 
  8 10  1  0  0  0  0 
 10 11  1  0  0  0  0 
 10 12  1  0  0  0  0 
 12 13  2  0  0  0  0 
 13 14  1  0  0  0  0 
 14 15  1  0  0  0  0 
 14 16  2  0  0  0  0 
 16 17  1  0  0  0  0 
 16 18  1  0  0  0  0 
 18 19  1  0  0  0  0 
 18 20  2  0  0  0  0 
 12 20  1  0  0  0  0 
 20 21  1  0  0  0  0 
 13 22  1  0  0  0  0 
  8 22  1  0  0  0  0 
 10 23  1  0  0  0  0 
 23 24  2  0  0  0  0 
 23 25  1  0  0  0  0 
 25 26  2  0  0  0  0 
 26 27  1  0  0  0  0 
 26 28  1  0  0  0  0 
 28 29  2  0  0  0  0 
 29 30  1  0  0  0  0 
 30 31  2  0  0  0  0 
 25 31  1  0  0  0  0 
 31 32  1  0  0  0  0 
 30 33  1  0  0  0  0 
 29 34  1  0  0  0  0 
 34 35  1  0  0  0  0 
 35 36  1  0  0  0  0 
 35 37  1  0  0  0  0 
 37 38  1  0  0  0  0 
 37 39  1  0  0  0  0 
 39 40  1  0  0  0  0 
 39 41  1  0  0  0  0 
 41 42  1  0  0  0  0 
 41 43  1  0  0  0  0 
 43 44  1  0  0  0  0 
 43 45  1  0  0  0  0 
 45 46  2  0  0  0  0 
 45 47  1  0  0  0  0 
 47 48  1  0  0  0  0 
 43 49  1  0  0  0  0 
 35 49  1  0  0  0  0 
 41 50  1  0  0  0  0 
 50 51  1  0  0  0  0 
 39 52  1  0  0  0  0 
 52 53  1  0  0  0  0 
 37 54  1  0  0  0  0 
 54 55  1  0  0  0  0 
 28 56  1  0  0  0  0 
M  END
> <Rank>
1

> <Priority_score>
0.94

> <Reaction_type>
O-glucuronidation_(aromatic_hydroxyl)

> <Parent_ID>
16

> <Parent_InChI>
InChI=1S/C17H14Br2O3/c1-2-13-15(10-5-3-4-6-14(10)22-13)16(20)9-7-11(18)17(21)12(19)8-9/h3-8,13,15,21H,2H2,1H3

> <Parent_SMILES>
CCC1Oc2ccccc2C1C(=O)c1cc(Br)c(O)c(Br)c1

$$$$
Molecule 16_metabolite 2
  CDK     0516241031

 40 42  0  0  0  0  0  0  0  0999 V2000
    5.1412   -1.0206    0.0000 C   0  0  0  0  0  0  0  0  0  0  0  0
    6.2558   -2.0244    0.0000 H   0  0  0  0  0  0  0  0  0  0  0  0
    6.3234   -0.0973    0.0000 H   0  0  0  0  0  0  0  0  0  0  0  0
    4.4372    0.3040    0.0000 H   0  0  0  0  0  0  0  0  0  0  0  0
    3.7146   -1.4839    0.0000 C   0  0  0  0  0  0  0  0  0  0  0  0
    2.5324   -2.4072    0.0000 H   0  0  0  0  0  0  0  0  0  0  0  0
    4.4186   -2.8084    0.0000 H   0  0  0  0  0  0  0  0  0  0  0  0
    2.6000   -0.4800    0.0000 C   0  0  0  0  0  0  0  0  0  0  0  0
    3.7146    0.5239    0.0000 H   0  0  0  0  0  0  0  0  0  0  0  0
    1.7200    0.7300    0.0000 C   0  0  0  0  0  0  0  0  0  0  0  0
    3.0195    1.4791    0.0000 H   0  0  0  0  0  0  0  0  0  0  0  0
    0.2900    0.2700    0.0000 C   0  0  0  0  0  0  0  0  0  0  0  0
    0.2900   -1.2300    0.0000 C   0  0  0  0  0  0  0  0  0  0  0  0
   -1.0100   -1.9800    0.0000 C   0  0  0  0  0  0  0  0  0  0  0  0
   -1.0100   -3.4800    0.0000 H   0  0  0  0  0  0  0  0  0  0  0  0
   -2.3100   -1.2300    0.0000 C   0  0  0  0  0  0  0  0  0  0  0  0
   -3.6089   -1.9802    0.0000 H   0  0  0  0  0  0  0  0  0  0  0  0
   -2.3100    0.2700    0.0000 C   0  0  0  0  0  0  0  0  0  0  0  0
   -3.6089    1.0202    0.0000 H   0  0  0  0  0  0  0  0  0  0  0  0
   -1.0100    1.0200    0.0000 C   0  0  0  0  0  0  0  0  0  0  0  0
   -1.0100    3.0000    0.0000 H   0  0  0  0  0  0  0  0  0  0  0  0
    1.7200   -1.6900    0.0000 O   0  0  0  0  0  0  0  0  0  0  0  0
    1.1124    2.1014    0.0000 C   0  0  0  0  0  0  0  0  0  0  0  0
   -0.3791    2.2609    0.0000 O   0  0  0  0  0  0  0  0  0  0  0  0
    1.9962    3.3134    0.0000 C   0  0  0  0  0  0  0  0  0  0  0  0
    3.4885    3.1533    0.0000 C   0  0  0  0  0  0  0  0  0  0  0  0
    4.0959    1.7818    0.0000 H   0  0  0  0  0  0  0  0  0  0  0  0
    4.3723    4.3653    0.0000 C   0  0  0  0  0  0  0  0  0  0  0  0
    3.7639    5.7372    0.0000 C   0  0  0  0  0  0  0  0  0  0  0  0
    2.2717    5.8973    0.0000 C   0  0  0  0  0  0  0  0  0  0  0  0
    1.3878    4.6853    0.0000 C   0  0  0  0  0  0  0  0  0  0  0  0
   -0.1037    4.8446    0.0000 H   0  0  0  0  0  0  0  0  0  0  0  0
    1.6642    7.2688    0.0000 Br  0  0  0  0  0  0  0  0  0  0  0  0
    4.6478    6.9492    0.0000 O   0  0  0  0  0  0  0  0  0  0  0  0
    4.0401    8.3206    0.0000 S   0  0  0  0  0  0  0  0  0  0  0  0
    3.0001    9.4015    0.0000 O   0  0  0  0  0  0  0  0  0  0  0  0
    2.7951    7.4840    0.0000 O   0  0  0  0  0  0  0  0  0  0  0  0
    4.9240    9.5325    0.0000 O   0  0  0  0  0  0  0  0  0  0  0  0
    4.3164   10.9039    0.0000 H   0  0  0  0  0  0  0  0  0  0  0  0
    5.8639    4.2060    0.0000 Br  0  0  0  0  0  0  0  0  0  0  0  0
  1  2  1  0  0  0  0 
  1  3  1  0  0  0  0 
  1  4  1  0  0  0  0 
  1  5  1  0  0  0  0 
  5  6  1  0  0  0  0 
  5  7  1  0  0  0  0 
  5  8  1  0  0  0  0 
  8  9  1  0  0  0  0 
  8 10  1  0  0  0  0 
 10 11  1  0  0  0  0 
 10 12  1  0  0  0  0 
 12 13  2  0  0  0  0 
 13 14  1  0  0  0  0 
 14 15  1  0  0  0  0 
 14 16  2  0  0  0  0 
 16 17  1  0  0  0  0 
 16 18  1  0  0  0  0 
 18 19  1  0  0  0  0 
 18 20  2  0  0  0  0 
 12 20  1  0  0  0  0 
 20 21  1  0  0  0  0 
 13 22  1  0  0  0  0 
  8 22  1  0  0  0  0 
 10 23  1  0  0  0  0 
 23 24  2  0  0  0  0 
 23 25  1  0  0  0  0 
 25 26  2  0  0  0  0 
 26 27  1  0  0  0  0 
 26 28  1  0  0  0  0 
 28 29  2  0  0  0  0 
 29 30  1  0  0  0  0 
 30 31  2  0  0  0  0 
 25 31  1  0  0  0  0 
 31 32  1  0  0  0  0 
 30 33  1  0  0  0  0 
 29 34  1  0  0  0  0 
 34 35  1  0  0  0  0 
 35 36  2  0  0  0  0 
 35 37  2  0  0  0  0 
 35 38  1  0  0  0  0 
 38 39  1  0  0  0  0 
 28 40  1  0  0  0  0 
M  END
> <Rank>
2

> <Priority_score>
0.824

> <Reaction_type>
sulfation_(aromatic_hydroxyl)

> <Parent_ID>
16

> <Parent_InChI>
InChI=1S/C17H14Br2O3/c1-2-13-15(10-5-3-4-6-14(10)22-13)16(20)9-7-11(18)17(21)12(19)8-9/h3-8,13,15,21H,2H2,1H3

> <Parent_SMILES>
CCC1Oc2ccccc2C1C(=O)c1cc(Br)c(O)c(Br)c1

$$$$
Molecule 16_metabolite 3
  CDK     0516241031

 39 41  0  0  0  0  0  0  0  0999 V2000
    5.1412   -1.0206    0.0000 C   0  0  0  0  0  0  0  0  0  0  0  0
    6.2558   -2.0244    0.0000 H   0  0  0  0  0  0  0  0  0  0  0  0
    6.3234   -0.0973    0.0000 H   0  0  0  0  0  0  0  0  0  0  0  0
    4.4372    0.3040    0.0000 H   0  0  0  0  0  0  0  0  0  0  0  0
    3.7146   -1.4839    0.0000 C   0  0  0  0  0  0  0  0  0  0  0  0
    2.5324   -2.4072    0.0000 H   0  0  0  0  0  0  0  0  0  0  0  0
    4.4186   -2.8084    0.0000 H   0  0  0  0  0  0  0  0  0  0  0  0
    2.6000   -0.4800    0.0000 C   0  0  0  0  0  0  0  0  0  0  0  0
    3.7146    0.5239    0.0000 H   0  0  0  0  0  0  0  0  0  0  0  0
    1.7200    0.7300    0.0000 C   0  0  0  0  0  0  0  0  0  0  0  0
    3.0195    1.4791    0.0000 H   0  0  0  0  0  0  0  0  0  0  0  0
    0.2900    0.2700    0.0000 C   0  0  0  0  0  0  0  0  0  0  0  0
    0.2900   -1.2300    0.0000 C   0  0  0  0  0  0  0  0  0  0  0  0
   -1.0100   -1.9800    0.0000 C   0  0  0  0  0  0  0  0  0  0  0  0
   -1.0100   -3.4800    0.0000 H   0  0  0  0  0  0  0  0  0  0  0  0
   -2.3100   -1.2300    0.0000 C   0  0  0  0  0  0  0  0  0  0  0  0
   -3.6089   -1.9802    0.0000 H   0  0  0  0  0  0  0  0  0  0  0  0
   -2.3100    0.2700    0.0000 C   0  0  0  0  0  0  0  0  0  0  0  0
   -3.6089    1.0202    0.0000 H   0  0  0  0  0  0  0  0  0  0  0  0
   -1.0100    1.0200    0.0000 C   0  0  0  0  0  0  0  0  0  0  0  0
   -1.0100    3.0000    0.0000 H   0  0  0  0  0  0  0  0  0  0  0  0
    1.7200   -1.6900    0.0000 O   0  0  0  0  0  0  0  0  0  0  0  0
    1.1124    2.1014    0.0000 C   0  0  0  0  0  0  0  0  0  0  0  0
   -0.3791    2.2609    0.0000 O   0  0  0  0  0  0  0  0  0  0  0  0
    1.9962    3.3134    0.0000 C   0  0  0  0  0  0  0  0  0  0  0  0
    3.4885    3.1533    0.0000 C   0  0  0  0  0  0  0  0  0  0  0  0
    4.0959    1.7818    0.0000 H   0  0  0  0  0  0  0  0  0  0  0  0
    4.3723    4.3653    0.0000 C   0  0  0  0  0  0  0  0  0  0  0  0
    3.7639    5.7372    0.0000 C   0  0  0  0  0  0  0  0  0  0  0  0
    2.2717    5.8973    0.0000 C   0  0  0  0  0  0  0  0  0  0  0  0
    1.3878    4.6853    0.0000 C   0  0  0  0  0  0  0  0  0  0  0  0
   -0.1037    4.8446    0.0000 H   0  0  0  0  0  0  0  0  0  0  0  0
    1.6642    7.2688    0.0000 Br  0  0  0  0  0  0  0  0  0  0  0  0
    4.6478    6.9492    0.0000 O   0  0  0  0  0  0  0  0  0  0  0  0
    4.0401    8.3206    0.0000 C   0  0  0  0  0  0  0  0  0  0  0  0
    4.9240    9.5325    0.0000 H   0  0  0  0  0  0  0  0  0  0  0  0
    3.0001    9.4015    0.0000 H   0  0  0  0  0  0  0  0  0  0  0  0
    2.7951    7.4840    0.0000 H   0  0  0  0  0  0  0  0  0  0  0  0
    5.8639    4.2060    0.0000 Br  0  0  0  0  0  0  0  0  0  0  0  0
  1  2  1  0  0  0  0 
  1  3  1  0  0  0  0 
  1  4  1  0  0  0  0 
  1  5  1  0  0  0  0 
  5  6  1  0  0  0  0 
  5  7  1  0  0  0  0 
  5  8  1  0  0  0  0 
  8  9  1  0  0  0  0 
  8 10  1  0  0  0  0 
 10 11  1  0  0  0  0 
 10 12  1  0  0  0  0 
 12 13  2  0  0  0  0 
 13 14  1  0  0  0  0 
 14 15  1  0  0  0  0 
 14 16  2  0  0  0  0 
 16 17  1  0  0  0  0 
 16 18  1  0  0  0  0 
 18 19  1  0  0  0  0 
 18 20  2  0  0  0  0 
 12 20  1  0  0  0  0 
 20 21  1  0  0  0  0 
 13 22  1  0  0  0  0 
  8 22  1  0  0  0  0 
 10 23  1  0  0  0  0 
 23 24  2  0  0  0  0 
 23 25  1  0  0  0  0 
 25 26  2  0  0  0  0 
 26 27  1  0  0  0  0 
 26 28  1  0  0  0  0 
 28 29  2  0  0  0  0 
 29 30  1  0  0  0  0 
 30 31  2  0  0  0  0 
 25 31  1  0  0  0  0 
 31 32  1  0  0  0  0 
 30 33  1  0  0  0  0 
 29 34  1  0  0  0  0 
 34 35  1  0  0  0  0 
 35 36  1  0  0  0  0 
 35 37  1  0  0  0  0 
 35 38  1  0  0  0  0 
 28 39  1  0  0  0  0 
M  END
> <Rank>
2

> <Priority_score>
0.824

> <Reaction_type>
methylation_(aromatic_OH)

> <Parent_ID>
16

> <Parent_InChI>
InChI=1S/C17H14Br2O3/c1-2-13-15(10-5-3-4-6-14(10)22-13)16(20)9-7-11(18)17(21)12(19)8-9/h3-8,13,15,21H,2H2,1H3

> <Parent_SMILES>
CCC1Oc2ccccc2C1C(=O)c1cc(Br)c(O)c(Br)c1

$$$$
Molecule 16_metabolite 4
  CDK     0516241031

 37 39  0  0  0  0  0  0  0  0999 V2000
    5.1412   -1.0206    0.0000 C   0  0  0  0  0  0  0  0  0  0  0  0
    6.2558   -2.0244    0.0000 H   0  0  0  0  0  0  0  0  0  0  0  0
    6.3234   -0.0973    0.0000 H   0  0  0  0  0  0  0  0  0  0  0  0
    4.4372    0.3040    0.0000 H   0  0  0  0  0  0  0  0  0  0  0  0
    3.7146   -1.4839    0.0000 C   0  0  0  0  0  0  0  0  0  0  0  0
    2.5324   -2.4072    0.0000 H   0  0  0  0  0  0  0  0  0  0  0  0
    4.4186   -2.8084    0.0000 H   0  0  0  0  0  0  0  0  0  0  0  0
    2.6000   -0.4800    0.0000 C   0  0  0  0  0  0  0  0  0  0  0  0
    3.7146    0.5239    0.0000 H   0  0  0  0  0  0  0  0  0  0  0  0
    1.7200    0.7300    0.0000 C   0  0  0  0  0  0  0  0  0  0  0  0
    3.0195    1.4791    0.0000 H   0  0  0  0  0  0  0  0  0  0  0  0
    0.2900    0.2700    0.0000 C   0  0  0  0  0  0  0  0  0  0  0  0
   -1.0100    1.0200    0.0000 C   0  0  0  0  0  0  0  0  0  0  0  0
   -1.0100    3.0000    0.0000 H   0  0  0  0  0  0  0  0  0  0  0  0
   -2.3100    0.2700    0.0000 C   0  0  0  0  0  0  0  0  0  0  0  0
   -3.6089    1.0202    0.0000 H   0  0  0  0  0  0  0  0  0  0  0  0
   -2.3100   -1.2300    0.0000 C   0  0  0  0  0  0  0  0  0  0  0  0
   -3.6089   -1.9802    0.0000 H   0  0  0  0  0  0  0  0  0  0  0  0
   -1.0100   -1.9800    0.0000 C   0  0  0  0  0  0  0  0  0  0  0  0
    0.2900   -1.2300    0.0000 C   0  0  0  0  0  0  0  0  0  0  0  0
    1.7200   -1.6900    0.0000 O   0  0  0  0  0  0  0  0  0  0  0  0
   -1.0100   -3.4800    0.0000 O   0  0  0  0  0  0  0  0  0  0  0  0
   -2.3090   -4.2300    0.0000 H   0  0  0  0  0  0  0  0  0  0  0  0
    1.1124    2.1014    0.0000 C   0  0  0  0  0  0  0  0  0  0  0  0
   -0.3791    2.2609    0.0000 O   0  0  0  0  0  0  0  0  0  0  0  0
    1.9962    3.3134    0.0000 C   0  0  0  0  0  0  0  0  0  0  0  0
    3.4885    3.1533    0.0000 C   0  0  0  0  0  0  0  0  0  0  0  0
    4.0959    1.7818    0.0000 H   0  0  0  0  0  0  0  0  0  0  0  0
    4.3723    4.3653    0.0000 C   0  0  0  0  0  0  0  0  0  0  0  0
    3.7639    5.7372    0.0000 C   0  0  0  0  0  0  0  0  0  0  0  0
    2.2717    5.8973    0.0000 C   0  0  0  0  0  0  0  0  0  0  0  0
    1.3878    4.6853    0.0000 C   0  0  0  0  0  0  0  0  0  0  0  0
   -0.1037    4.8446    0.0000 H   0  0  0  0  0  0  0  0  0  0  0  0
    1.6642    7.2688    0.0000 Br  0  0  0  0  0  0  0  0  0  0  0  0
    4.6478    6.9492    0.0000 O   0  0  0  0  0  0  0  0  0  0  0  0
    4.0401    8.3206    0.0000 H   0  0  0  0  0  0  0  0  0  0  0  0
    5.8639    4.2060    0.0000 Br  0  0  0  0  0  0  0  0  0  0  0  0
  1  2  1  0  0  0  0 
  1  3  1  0  0  0  0 
  1  4  1  0  0  0  0 
  1  5  1  0  0  0  0 
  5  6  1  0  0  0  0 
  5  7  1  0  0  0  0 
  5  8  1  0  0  0  0 
  8  9  1  0  0  0  0 
  8 10  1  0  0  0  0 
 10 11  1  0  0  0  0 
 10 12  1  0  0  0  0 
 12 13  2  0  0  0  0 
 13 14  1  0  0  0  0 
 13 15  1  0  0  0  0 
 15 16  1  0  0  0  0 
 15 17  2  0  0  0  0 
 17 18  1  0  0  0  0 
 17 19  1  0  0  0  0 
 19 20  2  0  0  0  0 
 12 20  1  0  0  0  0 
 20 21  1  0  0  0  0 
  8 21  1  0  0  0  0 
 19 22  1  0  0  0  0 
 22 23  1  0  0  0  0 
 10 24  1  0  0  0  0 
 24 25  2  0  0  0  0 
 24 26  1  0  0  0  0 
 26 27  2  0  0  0  0 
 27 28  1  0  0  0  0 
 27 29  1  0  0  0  0 
 29 30  2  0  0  0  0 
 30 31  1  0  0  0  0 
 31 32  2  0  0  0  0 
 26 32  1  0  0  0  0 
 32 33  1  0  0  0  0 
 31 34  1  0  0  0  0 
 30 35  1  0  0  0  0 
 35 36  1  0  0  0  0 
 29 37  1  0  0  0  0 
M  END
> <Rank>
4

> <Priority_score>
0.236

> <Reaction_type>
aromatic_hydroxylation_(ortho_to_oxygen)

> <Parent_ID>
16

> <Parent_InChI>
InChI=1S/C17H14Br2O3/c1-2-13-15(10-5-3-4-6-14(10)22-13)16(20)9-7-11(18)17(21)12(19)8-9/h3-8,13,15,21H,2H2,1H3

> <Parent_SMILES>
CCC1Oc2ccccc2C1C(=O)c1cc(Br)c(O)c(Br)c1

$$$$
Molecule 16_metabolite 5
  CDK     0516241031

 37 39  0  0  0  0  0  0  0  0999 V2000
    5.1412   -1.0206    0.0000 C   0  0  0  0  0  0  0  0  0  0  0  0
    6.2558   -2.0244    0.0000 H   0  0  0  0  0  0  0  0  0  0  0  0
    6.3234   -0.0973    0.0000 H   0  0  0  0  0  0  0  0  0  0  0  0
    4.4372    0.3040    0.0000 H   0  0  0  0  0  0  0  0  0  0  0  0
    3.7146   -1.4839    0.0000 C   0  0  0  0  0  0  0  0  0  0  0  0
    2.5324   -2.4072    0.0000 H   0  0  0  0  0  0  0  0  0  0  0  0
    4.4186   -2.8084    0.0000 H   0  0  0  0  0  0  0  0  0  0  0  0
    2.6000   -0.4800    0.0000 C   0  0  0  0  0  0  0  0  0  0  0  0
    3.7146    0.5239    0.0000 H   0  0  0  0  0  0  0  0  0  0  0  0
    1.7200    0.7300    0.0000 C   0  0  0  0  0  0  0  0  0  0  0  0
    3.0195    1.4791    0.0000 H   0  0  0  0  0  0  0  0  0  0  0  0
    0.2900    0.2700    0.0000 C   0  0  0  0  0  0  0  0  0  0  0  0
   -1.0100    1.0200    0.0000 C   0  0  0  0  0  0  0  0  0  0  0  0
   -1.0100    3.0000    0.0000 H   0  0  0  0  0  0  0  0  0  0  0  0
   -2.3100    0.2700    0.0000 C   0  0  0  0  0  0  0  0  0  0  0  0
   -2.3100   -1.2300    0.0000 C   0  0  0  0  0  0  0  0  0  0  0  0
   -3.6089   -1.9802    0.0000 H   0  0  0  0  0  0  0  0  0  0  0  0
   -1.0100   -1.9800    0.0000 C   0  0  0  0  0  0  0  0  0  0  0  0
   -1.0100   -3.4800    0.0000 H   0  0  0  0  0  0  0  0  0  0  0  0
    0.2900   -1.2300    0.0000 C   0  0  0  0  0  0  0  0  0  0  0  0
    1.7200   -1.6900    0.0000 O   0  0  0  0  0  0  0  0  0  0  0  0
   -3.6089    1.0202    0.0000 O   0  0  0  0  0  0  0  0  0  0  0  0
   -4.9081    0.2704    0.0000 H   0  0  0  0  0  0  0  0  0  0  0  0
    1.1124    2.1014    0.0000 C   0  0  0  0  0  0  0  0  0  0  0  0
   -0.3791    2.2609    0.0000 O   0  0  0  0  0  0  0  0  0  0  0  0
    1.9962    3.3134    0.0000 C   0  0  0  0  0  0  0  0  0  0  0  0
    3.4885    3.1533    0.0000 C   0  0  0  0  0  0  0  0  0  0  0  0
    4.0959    1.7818    0.0000 H   0  0  0  0  0  0  0  0  0  0  0  0
    4.3723    4.3653    0.0000 C   0  0  0  0  0  0  0  0  0  0  0  0
    3.7639    5.7372    0.0000 C   0  0  0  0  0  0  0  0  0  0  0  0
    2.2717    5.8973    0.0000 C   0  0  0  0  0  0  0  0  0  0  0  0
    1.3878    4.6853    0.0000 C   0  0  0  0  0  0  0  0  0  0  0  0
   -0.1037    4.8446    0.0000 H   0  0  0  0  0  0  0  0  0  0  0  0
    1.6642    7.2688    0.0000 Br  0  0  0  0  0  0  0  0  0  0  0  0
    4.6478    6.9492    0.0000 O   0  0  0  0  0  0  0  0  0  0  0  0
    4.0401    8.3206    0.0000 H   0  0  0  0  0  0  0  0  0  0  0  0
    5.8639    4.2060    0.0000 Br  0  0  0  0  0  0  0  0  0  0  0  0
  1  2  1  0  0  0  0 
  1  3  1  0  0  0  0 
  1  4  1  0  0  0  0 
  1  5  1  0  0  0  0 
  5  6  1  0  0  0  0 
  5  7  1  0  0  0  0 
  5  8  1  0  0  0  0 
  8  9  1  0  0  0  0 
  8 10  1  0  0  0  0 
 10 11  1  0  0  0  0 
 10 12  1  0  0  0  0 
 12 13  2  0  0  0  0 
 13 14  1  0  0  0  0 
 13 15  1  0  0  0  0 
 15 16  2  0  0  0  0 
 16 17  1  0  0  0  0 
 16 18  1  0  0  0  0 
 18 19  1  0  0  0  0 
 18 20  2  0  0  0  0 
 12 20  1  0  0  0  0 
 20 21  1  0  0  0  0 
  8 21  1  0  0  0  0 
 15 22  1  0  0  0  0 
 22 23  1  0  0  0  0 
 10 24  1  0  0  0  0 
 24 25  2  0  0  0  0 
 24 26  1  0  0  0  0 
 26 27  2  0  0  0  0 
 27 28  1  0  0  0  0 
 27 29  1  0  0  0  0 
 29 30  2  0  0  0  0 
 30 31  1  0  0  0  0 
 31 32  2  0  0  0  0 
 26 32  1  0  0  0  0 
 32 33  1  0  0  0  0 
 31 34  1  0  0  0  0 
 30 35  1  0  0  0  0 
 35 36  1  0  0  0  0 
 29 37  1  0  0  0  0 
M  END
> <Rank>
4

> <Priority_score>
0.236

> <Reaction_type>
aromatic_hydroxylation_(para_to_oxygen)

> <Parent_ID>
16

> <Parent_InChI>
InChI=1S/C17H14Br2O3/c1-2-13-15(10-5-3-4-6-14(10)22-13)16(20)9-7-11(18)17(21)12(19)8-9/h3-8,13,15,21H,2H2,1H3

> <Parent_SMILES>
CCC1Oc2ccccc2C1C(=O)c1cc(Br)c(O)c(Br)c1

$$$$
Molecule 16_metabolite 6
  CDK     0516241031

 37 39  0  0  0  0  0  0  0  0999 V2000
    5.1412   -1.0206    0.0000 C   0  0  0  0  0  0  0  0  0  0  0  0
    6.2558   -2.0244    0.0000 H   0  0  0  0  0  0  0  0  0  0  0  0
    6.3234   -0.0973    0.0000 H   0  0  0  0  0  0  0  0  0  0  0  0
    4.4372    0.3040    0.0000 H   0  0  0  0  0  0  0  0  0  0  0  0
    3.7146   -1.4839    0.0000 C   0  0  0  0  0  0  0  0  0  0  0  0
    2.5324   -2.4072    0.0000 H   0  0  0  0  0  0  0  0  0  0  0  0
    4.4186   -2.8084    0.0000 H   0  0  0  0  0  0  0  0  0  0  0  0
    2.6000   -0.4800    0.0000 C   0  0  0  0  0  0  0  0  0  0  0  0
    3.7146    0.5239    0.0000 H   0  0  0  0  0  0  0  0  0  0  0  0
    1.7200    0.7300    0.0000 C   0  0  0  0  0  0  0  0  0  0  0  0
    3.0195    1.4791    0.0000 H   0  0  0  0  0  0  0  0  0  0  0  0
    0.2900    0.2700    0.0000 C   0  0  0  0  0  0  0  0  0  0  0  0
   -1.0100    1.0200    0.0000 C   0  0  0  0  0  0  0  0  0  0  0  0
   -1.0100    3.0000    0.0000 H   0  0  0  0  0  0  0  0  0  0  0  0
   -2.3100    0.2700    0.0000 C   0  0  0  0  0  0  0  0  0  0  0  0
   -3.6089    1.0202    0.0000 H   0  0  0  0  0  0  0  0  0  0  0  0
   -2.3100   -1.2300    0.0000 C   0  0  0  0  0  0  0  0  0  0  0  0
   -1.0100   -1.9800    0.0000 C   0  0  0  0  0  0  0  0  0  0  0  0
   -1.0100   -3.4800    0.0000 H   0  0  0  0  0  0  0  0  0  0  0  0
    0.2900   -1.2300    0.0000 C   0  0  0  0  0  0  0  0  0  0  0  0
    1.7200   -1.6900    0.0000 O   0  0  0  0  0  0  0  0  0  0  0  0
   -3.6089   -1.9802    0.0000 O   0  0  0  0  0  0  0  0  0  0  0  0
   -4.9081   -1.2304    0.0000 H   0  0  0  0  0  0  0  0  0  0  0  0
    1.1124    2.1014    0.0000 C   0  0  0  0  0  0  0  0  0  0  0  0
   -0.3791    2.2609    0.0000 O   0  0  0  0  0  0  0  0  0  0  0  0
    1.9962    3.3134    0.0000 C   0  0  0  0  0  0  0  0  0  0  0  0
    3.4885    3.1533    0.0000 C   0  0  0  0  0  0  0  0  0  0  0  0
    4.0959    1.7818    0.0000 H   0  0  0  0  0  0  0  0  0  0  0  0
    4.3723    4.3653    0.0000 C   0  0  0  0  0  0  0  0  0  0  0  0
    3.7639    5.7372    0.0000 C   0  0  0  0  0  0  0  0  0  0  0  0
    2.2717    5.8973    0.0000 C   0  0  0  0  0  0  0  0  0  0  0  0
    1.3878    4.6853    0.0000 C   0  0  0  0  0  0  0  0  0  0  0  0
   -0.1037    4.8446    0.0000 H   0  0  0  0  0  0  0  0  0  0  0  0
    1.6642    7.2688    0.0000 Br  0  0  0  0  0  0  0  0  0  0  0  0
    4.6478    6.9492    0.0000 O   0  0  0  0  0  0  0  0  0  0  0  0
    4.0401    8.3206    0.0000 H   0  0  0  0  0  0  0  0  0  0  0  0
    5.8639    4.2060    0.0000 Br  0  0  0  0  0  0  0  0  0  0  0  0
  1  2  1  0  0  0  0 
  1  3  1  0  0  0  0 
  1  4  1  0  0  0  0 
  1  5  1  0  0  0  0 
  5  6  1  0  0  0  0 
  5  7  1  0  0  0  0 
  5  8  1  0  0  0  0 
  8  9  1  0  0  0  0 
  8 10  1  0  0  0  0 
 10 11  1  0  0  0  0 
 10 12  1  0  0  0  0 
 12 13  2  0  0  0  0 
 13 14  1  0  0  0  0 
 13 15  1  0  0  0  0 
 15 16  1  0  0  0  0 
 15 17  2  0  0  0  0 
 17 18  1  0  0  0  0 
 18 19  1  0  0  0  0 
 18 20  2  0  0  0  0 
 12 20  1  0  0  0  0 
 20 21  1  0  0  0  0 
  8 21  1  0  0  0  0 
 17 22  1  0  0  0  0 
 22 23  1  0  0  0  0 
 10 24  1  0  0  0  0 
 24 25  2  0  0  0  0 
 24 26  1  0  0  0  0 
 26 27  2  0  0  0  0 
 27 28  1  0  0  0  0 
 27 29  1  0  0  0  0 
 29 30  2  0  0  0  0 
 30 31  1  0  0  0  0 
 31 32  2  0  0  0  0 
 26 32  1  0  0  0  0 
 32 33  1  0  0  0  0 
 31 34  1  0  0  0  0 
 30 35  1  0  0  0  0 
 35 36  1  0  0  0  0 
 29 37  1  0  0  0  0 
M  END
> <Rank>
4

> <Priority_score>
0.236

> <Reaction_type>
aromatic_hydroxylation_(para_to_carbon)

> <Parent_ID>
16

> <Parent_InChI>
InChI=1S/C17H14Br2O3/c1-2-13-15(10-5-3-4-6-14(10)22-13)16(20)9-7-11(18)17(21)12(19)8-9/h3-8,13,15,21H,2H2,1H3

> <Parent_SMILES>
CCC1Oc2ccccc2C1C(=O)c1cc(Br)c(O)c(Br)c1

$$$$
Molecule 16_metabolite 7
  CDK     0516241031

 71 73  0  0  0  0  0  0  0  0999 V2000
    5.7246   -1.8571    0.0000 C   0  0  0  0  0  0  0  0  0  0  0  0
    6.8391   -2.8610    0.0000 H   0  0  0  0  0  0  0  0  0  0  0  0
    6.9067   -0.9338    0.0000 H   0  0  0  0  0  0  0  0  0  0  0  0
    5.0206   -0.5326    0.0000 H   0  0  0  0  0  0  0  0  0  0  0  0
    4.2979   -2.3204    0.0000 C   0  0  0  0  0  0  0  0  0  0  0  0
    3.1157   -3.2437    0.0000 H   0  0  0  0  0  0  0  0  0  0  0  0
    5.0019   -3.6450    0.0000 H   0  0  0  0  0  0  0  0  0  0  0  0
    3.1833   -1.3166    0.0000 C   0  0  0  0  0  0  0  0  0  0  0  0
    4.2979   -0.3127    0.0000 H   0  0  0  0  0  0  0  0  0  0  0  0
    2.3033   -0.1066    0.0000 C   0  0  0  0  0  0  0  0  0  0  0  0
    3.6029    0.6426    0.0000 H   0  0  0  0  0  0  0  0  0  0  0  0
    0.8733   -0.5666    0.0000 C   0  0  0  0  0  0  0  0  0  0  0  0
    0.8733   -2.0666    0.0000 C   0  0  0  0  0  0  0  0  0  0  0  0
   -0.4267   -2.8166    0.0000 C   0  0  0  0  0  0  0  0  0  0  0  0
   -0.4267   -4.3166    0.0000 H   0  0  0  0  0  0  0  0  0  0  0  0
   -1.7267   -2.0666    0.0000 C   0  0  0  0  0  0  0  0  0  0  0  0
   -3.0256   -2.8168    0.0000 H   0  0  0  0  0  0  0  0  0  0  0  0
   -1.7267   -0.5666    0.0000 C   0  0  0  0  0  0  0  0  0  0  0  0
   -3.0256    0.1837    0.0000 H   0  0  0  0  0  0  0  0  0  0  0  0
   -0.4267    0.1834    0.0000 C   0  0  0  0  0  0  0  0  0  0  0  0
   -0.4267    1.6834    0.0000 H   0  0  0  0  0  0  0  0  0  0  0  0
    2.3033   -2.5266    0.0000 O   0  0  0  0  0  0  0  0  0  0  0  0
    1.1124    2.5814    0.0000 C   0  0  0  0  0  0  0  0  0  0  0  0
   -0.3791    2.7409    0.0000 O   0  0  0  0  0  0  0  0  0  0  0  0
    1.9962    3.7934    0.0000 C   0  0  0  0  0  0  0  0  0  0  0  0
    1.3885    5.1656    0.0000 C   0  0  0  0  0  0  0  0  0  0  0  0
   -0.1031    5.3249    0.0000 H   0  0  0  0  0  0  0  0  0  0  0  0
    2.2722    6.3787    0.0000 C   0  0  0  0  0  0  0  0  0  0  0  0
    3.7637    6.2194    0.0000 C   0  0  0  0  0  0  0  0  0  0  0  0
    4.3715    4.8472    0.0000 C   0  0  0  0  0  0  0  0  0  0  0  0
    3.4877    3.6341    0.0000 C   0  0  0  0  0  0  0  0  0  0  0  0
    4.0958    2.2629    0.0000 H   0  0  0  0  0  0  0  0  0  0  0  0
    5.8630    4.6879    0.0000 Br  0  0  0  0  0  0  0  0  0  0  0  0
    4.6476    7.4314    0.0000 O   0  0  0  0  0  0  0  0  0  0  0  0
    4.0400    8.8028    0.0000 H   0  0  0  0  0  0  0  0  0  0  0  0
    1.6641    7.7499    0.0000 S   0  0  0  0  0  0  0  0  0  0  0  0
    2.5476    8.9621    0.0000 C   0  0  0  0  0  0  0  0  0  0  0  0
    3.5880    7.8816    0.0000 H   0  0  0  0  0  0  0  0  0  0  0  0
    3.7924    9.7991    0.0000 H   0  0  0  0  0  0  0  0  0  0  0  0
    1.9395   10.3333    0.0000 C   0  0  0  0  0  0  0  0  0  0  0  0
    0.8991   11.4139    0.0000 H   0  0  0  0  0  0  0  0  0  0  0  0
    0.6947    9.4964    0.0000 C   0  0  0  0  0  0  0  0  0  0  0  0
    0.7972    7.9999    0.0000 O   0  0  0  0  0  0  0  0  0  0  0  0
   -0.6525   10.1559    0.0000 N   0  0  0  0  0  0  0  0  0  0  0  0
   -0.7549   11.6524    0.0000 H   0  0  0  0  0  0  0  0  0  0  0  0
   -1.8973    9.3190    0.0000 C   0  0  0  0  0  0  0  0  0  0  0  0
   -0.8569    8.2384    0.0000 H   0  0  0  0  0  0  0  0  0  0  0  0
   -2.7807    8.1067    0.0000 H   0  0  0  0  0  0  0  0  0  0  0  0
   -3.2445    9.9785    0.0000 C   0  0  0  0  0  0  0  0  0  0  0  0
   -3.3469   11.4750    0.0000 O   0  0  0  0  0  0  0  0  0  0  0  0
   -4.4893    9.1416    0.0000 O   0  0  0  0  0  0  0  0  0  0  0  0
   -5.8365    9.8011    0.0000 H   0  0  0  0  0  0  0  0  0  0  0  0
    2.8230   11.5455    0.0000 N   0  0  0  0  0  0  0  0  0  0  0  0
    4.3145   11.3865    0.0000 H   0  0  0  0  0  0  0  0  0  0  0  0
    2.2149   12.9168    0.0000 C   0  0  0  0  0  0  0  0  0  0  0  0
    0.7234   13.0758    0.0000 O   0  0  0  0  0  0  0  0  0  0  0  0
    3.0984   14.1290    0.0000 C   0  0  0  0  0  0  0  0  0  0  0  0
    4.1388   13.0484    0.0000 H   0  0  0  0  0  0  0  0  0  0  0  0
    4.3432   14.9659    0.0000 H   0  0  0  0  0  0  0  0  0  0  0  0
    2.2957   15.9390    0.0000 C   0  0  0  0  0  0  0  0  0  0  0  0
    1.2553   17.0195    0.0000 H   0  0  0  0  0  0  0  0  0  0  0  0
    1.0509   15.1020    0.0000 H   0  0  0  0  0  0  0  0  0  0  0  0
    3.1792   17.1512    0.0000 C   0  0  0  0  0  0  0  0  0  0  0  0
    4.2196   16.0707    0.0000 H   0  0  0  0  0  0  0  0  0  0  0  0
    2.5711   18.5224    0.0000 C   0  0  0  0  0  0  0  0  0  0  0  0
    1.0796   18.6814    0.0000 O   0  0  0  0  0  0  0  0  0  0  0  0
    3.4546   19.7346    0.0000 O   0  0  0  0  0  0  0  0  0  0  0  0
    2.8465   21.1059    0.0000 H   0  0  0  0  0  0  0  0  0  0  0  0
    4.4240   17.9882    0.0000 N   0  0  0  0  0  0  0  0  0  0  0  0
    4.3216   19.4847    0.0000 H   0  0  0  0  0  0  0  0  0  0  0  0
    5.7712   17.3286    0.0000 H   0  0  0  0  0  0  0  0  0  0  0  0
  1  2  1  0  0  0  0 
  1  3  1  0  0  0  0 
  1  4  1  0  0  0  0 
  1  5  1  0  0  0  0 
  5  6  1  0  0  0  0 
  5  7  1  0  0  0  0 
  5  8  1  0  0  0  0 
  8  9  1  0  0  0  0 
  8 10  1  0  0  0  0 
 10 11  1  0  0  0  0 
 10 12  1  0  0  0  0 
 12 13  2  0  0  0  0 
 13 14  1  0  0  0  0 
 14 15  1  0  0  0  0 
 14 16  2  0  0  0  0 
 16 17  1  0  0  0  0 
 16 18  1  0  0  0  0 
 18 19  1  0  0  0  0 
 18 20  2  0  0  0  0 
 12 20  1  0  0  0  0 
 20 21  1  0  0  0  0 
 13 22  1  0  0  0  0 
  8 22  1  0  0  0  0 
 10 23  1  0  0  0  0 
 23 24  2  0  0  0  0 
 23 25  1  0  0  0  0 
 25 26  2  0  0  0  0 
 26 27  1  0  0  0  0 
 26 28  1  0  0  0  0 
 28 29  2  0  0  0  0 
 29 30  1  0  0  0  0 
 30 31  2  0  0  0  0 
 25 31  1  0  0  0  0 
 31 32  1  0  0  0  0 
 30 33  1  0  0  0  0 
 29 34  1  0  0  0  0 
 34 35  1  0  0  0  0 
 28 36  1  0  0  0  0 
 36 37  1  0  0  0  0 
 37 38  1  0  0  0  0 
 37 39  1  0  0  0  0 
 37 40  1  0  0  0  0 
 40 41  1  0  0  0  0 
 40 42  1  0  0  0  0 
 42 43  2  0  0  0  0 
 42 44  1  0  0  0  0 
 44 45  1  0  0  0  0 
 44 46  1  0  0  0  0 
 46 47  1  0  0  0  0 
 46 48  1  0  0  0  0 
 46 49  1  0  0  0  0 
 49 50  2  0  0  0  0 
 49 51  1  0  0  0  0 
 51 52  1  0  0  0  0 
 40 53  1  0  0  0  0 
 53 54  1  0  0  0  0 
 53 55  1  0  0  0  0 
 55 56  2  0  0  0  0 
 55 57  1  0  0  0  0 
 57 58  1  0  0  0  0 
 57 59  1  0  0  0  0 
 57 60  1  0  0  0  0 
 60 61  1  0  0  0  0 
 60 62  1  0  0  0  0 
 60 63  1  0  0  0  0 
 63 64  1  0  0  0  0 
 63 65  1  0  0  0  0 
 65 66  2  0  0  0  0 
 65 67  1  0  0  0  0 
 67 68  1  0  0  0  0 
 63 69  1  0  0  0  0 
 69 70  1  0  0  0  0 
 69 71  1  0  0  0  0 
M  END
> <Rank>
7

> <Priority_score>
0.22

> <Reaction_type>
glutathione_conjugation_(aromatic_nucleophilic_substitution)

> <Parent_ID>
16

> <Parent_InChI>
InChI=1S/C17H14Br2O3/c1-2-13-15(10-5-3-4-6-14(10)22-13)16(20)9-7-11(18)17(21)12(19)8-9/h3-8,13,15,21H,2H2,1H3

> <Parent_SMILES>
CCC1Oc2ccccc2C1C(=O)c1cc(Br)c(O)c(Br)c1

$$$$
Molecule 16_metabolite 8
  CDK     0516241031

 38 40  0  0  0  0  0  0  0  0999 V2000
    5.9611   -1.6295    0.0000 C   0  0  0  0  0  0  0  0  0  0  0  0
    7.0757   -2.6333    0.0000 H   0  0  0  0  0  0  0  0  0  0  0  0
    7.1433   -0.7062    0.0000 H   0  0  0  0  0  0  0  0  0  0  0  0
    5.2572   -0.3049    0.0000 H   0  0  0  0  0  0  0  0  0  0  0  0
    4.5345   -2.0928    0.0000 C   0  0  0  0  0  0  0  0  0  0  0  0
    3.3523   -3.0161    0.0000 H   0  0  0  0  0  0  0  0  0  0  0  0
    5.2385   -3.4173    0.0000 H   0  0  0  0  0  0  0  0  0  0  0  0
    3.4199   -1.0889    0.0000 C   0  0  0  0  0  0  0  0  0  0  0  0
    4.5345   -0.0850    0.0000 H   0  0  0  0  0  0  0  0  0  0  0  0
    2.5399    0.1211    0.0000 C   0  0  0  0  0  0  0  0  0  0  0  0
    3.8395    0.8702    0.0000 H   0  0  0  0  0  0  0  0  0  0  0  0
    1.1099   -0.3389    0.0000 C   0  0  0  0  0  0  0  0  0  0  0  0
    1.1099   -1.8389    0.0000 C   0  0  0  0  0  0  0  0  0  0  0  0
   -0.1901   -2.5889    0.0000 C   0  0  0  0  0  0  0  0  0  0  0  0
   -0.1901   -4.0889    0.0000 H   0  0  0  0  0  0  0  0  0  0  0  0
   -1.4901   -1.8389    0.0000 C   0  0  0  0  0  0  0  0  0  0  0  0
   -2.7890   -2.5891    0.0000 H   0  0  0  0  0  0  0  0  0  0  0  0
   -1.4901   -0.3389    0.0000 C   0  0  0  0  0  0  0  0  0  0  0  0
   -2.7890    0.4113    0.0000 H   0  0  0  0  0  0  0  0  0  0  0  0
   -0.1901    0.4111    0.0000 C   0  0  0  0  0  0  0  0  0  0  0  0
   -0.1901    1.9111    0.0000 H   0  0  0  0  0  0  0  0  0  0  0  0
    2.5399   -2.2989    0.0000 O   0  0  0  0  0  0  0  0  0  0  0  0
    1.9491    2.5091    0.0000 C   0  0  0  0  0  0  0  0  0  0  0  0
    1.1125    3.7542    0.0000 H   0  0  0  0  0  0  0  0  0  0  0  0
    3.0300    3.5491    0.0000 C   0  0  0  0  0  0  0  0  0  0  0  0
    4.4718    3.1324    0.0000 C   0  0  0  0  0  0  0  0  0  0  0  0
    4.8318    1.6763    0.0000 H   0  0  0  0  0  0  0  0  0  0  0  0
    5.5527    4.1724    0.0000 C   0  0  0  0  0  0  0  0  0  0  0  0
    5.1917    5.6292    0.0000 C   0  0  0  0  0  0  0  0  0  0  0  0
    3.7499    6.0460    0.0000 C   0  0  0  0  0  0  0  0  0  0  0  0
    2.6690    5.0059    0.0000 C   0  0  0  0  0  0  0  0  0  0  0  0
    1.2278    5.4217    0.0000 H   0  0  0  0  0  0  0  0  0  0  0  0
    3.3899    7.5021    0.0000 Br  0  0  0  0  0  0  0  0  0  0  0  0
    6.2726    6.6693    0.0000 O   0  0  0  0  0  0  0  0  0  0  0  0
    5.9124    8.1254    0.0000 H   0  0  0  0  0  0  0  0  0  0  0  0
    6.9939    3.7566    0.0000 Br  0  0  0  0  0  0  0  0  0  0  0  0
    0.5777    1.9015    0.0000 O   0  0  0  0  0  0  0  0  0  0  0  0
   -1.0221    3.0681    0.0000 H   0  0  0  0  0  0  0  0  0  0  0  0
  1  2  1  0  0  0  0 
  1  3  1  0  0  0  0 
  1  4  1  0  0  0  0 
  1  5  1  0  0  0  0 
  5  6  1  0  0  0  0 
  5  7  1  0  0  0  0 
  5  8  1  0  0  0  0 
  8  9  1  0  0  0  0 
  8 10  1  0  0  0  0 
 10 11  1  0  0  0  0 
 10 12  1  0  0  0  0 
 12 13  2  0  0  0  0 
 13 14  1  0  0  0  0 
 14 15  1  0  0  0  0 
 14 16  2  0  0  0  0 
 16 17  1  0  0  0  0 
 16 18  1  0  0  0  0 
 18 19  1  0  0  0  0 
 18 20  2  0  0  0  0 
 12 20  1  0  0  0  0 
 20 21  1  0  0  0  0 
 13 22  1  0  0  0  0 
  8 22  1  0  0  0  0 
 10 23  1  0  0  0  0 
 23 24  1  0  0  0  0 
 23 25  1  0  0  0  0 
 25 26  2  0  0  0  0 
 26 27  1  0  0  0  0 
 26 28  1  0  0  0  0 
 28 29  2  0  0  0  0 
 29 30  1  0  0  0  0 
 30 31  2  0  0  0  0 
 25 31  1  0  0  0  0 
 31 32  1  0  0  0  0 
 30 33  1  0  0  0  0 
 29 34  1  0  0  0  0 
 34 35  1  0  0  0  0 
 28 36  1  0  0  0  0 
 23 37  1  0  0  0  0 
 37 38  1  0  0  0  0 
M  END
> <Rank>
8

> <Priority_score>
0.216

> <Reaction_type>
carbonyl_reduction_(next_to_aromatic_carbon)

> <Parent_ID>
16

> <Parent_InChI>
InChI=1S/C17H14Br2O3/c1-2-13-15(10-5-3-4-6-14(10)22-13)16(20)9-7-11(18)17(21)12(19)8-9/h3-8,13,15,21H,2H2,1H3

> <Parent_SMILES>
CCC1Oc2ccccc2C1C(=O)c1cc(Br)c(O)c(Br)c1

$$$$
Molecule 16_metabolite 9
  CDK     0516241031

 36 38  0  0  0  0  0  0  0  0999 V2000
   -1.8995   -0.7444    0.0000 C   0  0  0  0  0  0  0  0  0  0  0  0
   -3.1984    0.0058    0.0000 H   0  0  0  0  0  0  0  0  0  0  0  0
   -0.5995    0.0056    0.0000 C   0  0  0  0  0  0  0  0  0  0  0  0
   -0.5995    1.5056    0.0000 H   0  0  0  0  0  0  0  0  0  0  0  0
    0.7005   -0.7444    0.0000 C   0  0  0  0  0  0  0  0  0  0  0  0
    0.7005   -2.2444    0.0000 C   0  0  0  0  0  0  0  0  0  0  0  0
   -0.5995   -2.9944    0.0000 C   0  0  0  0  0  0  0  0  0  0  0  0
   -0.5995   -4.4944    0.0000 H   0  0  0  0  0  0  0  0  0  0  0  0
   -1.8995   -2.2444    0.0000 C   0  0  0  0  0  0  0  0  0  0  0  0
   -3.1984   -2.9946    0.0000 H   0  0  0  0  0  0  0  0  0  0  0  0
    2.1305   -2.7044    0.0000 O   0  0  0  0  0  0  0  0  0  0  0  0
    3.0105   -1.4944    0.0000 C   0  0  0  0  0  0  0  0  0  0  0  0
    4.1251   -2.4983    0.0000 H   0  0  0  0  0  0  0  0  0  0  0  0
    4.4817   -0.1693    0.0000 C   0  0  0  0  0  0  0  0  0  0  0  0
    5.1857    1.1552    0.0000 H   0  0  0  0  0  0  0  0  0  0  0  0
    2.9213    1.0495    0.0000 H   0  0  0  0  0  0  0  0  0  0  0  0
    5.9084   -0.6326    0.0000 C   0  0  0  0  0  0  0  0  0  0  0  0
    6.2205   -2.0998    0.0000 O   0  0  0  0  0  0  0  0  0  0  0  0
    7.0230    0.3713    0.0000 O   0  0  0  0  0  0  0  0  0  0  0  0
    8.4496   -0.0920    0.0000 H   0  0  0  0  0  0  0  0  0  0  0  0
    2.1305   -0.2844    0.0000 C   0  0  0  0  0  0  0  0  0  0  0  0
    3.4301    0.4647    0.0000 H   0  0  0  0  0  0  0  0  0  0  0  0
    1.1340    1.9647    0.0000 C   0  0  0  0  0  0  0  0  0  0  0  0
   -0.3072    2.3808    0.0000 O   0  0  0  0  0  0  0  0  0  0  0  0
    2.0178    3.1767    0.0000 C   0  0  0  0  0  0  0  0  0  0  0  0
    3.5101    3.0166    0.0000 C   0  0  0  0  0  0  0  0  0  0  0  0
    4.1175    1.6451    0.0000 H   0  0  0  0  0  0  0  0  0  0  0  0
    4.3940    4.2286    0.0000 C   0  0  0  0  0  0  0  0  0  0  0  0
    3.7856    5.6005    0.0000 C   0  0  0  0  0  0  0  0  0  0  0  0
    2.2933    5.7606    0.0000 C   0  0  0  0  0  0  0  0  0  0  0  0
    1.4094    4.5486    0.0000 C   0  0  0  0  0  0  0  0  0  0  0  0
   -0.0821    4.7079    0.0000 H   0  0  0  0  0  0  0  0  0  0  0  0
    1.6859    7.1321    0.0000 Br  0  0  0  0  0  0  0  0  0  0  0  0
    4.6694    6.8125    0.0000 O   0  0  0  0  0  0  0  0  0  0  0  0
    4.0618    8.1839    0.0000 H   0  0  0  0  0  0  0  0  0  0  0  0
    5.8855    4.0693    0.0000 Br  0  0  0  0  0  0  0  0  0  0  0  0
  1  2  1  0  0  0  0 
  1  3  2  0  0  0  0 
  3  4  1  0  0  0  0 
  3  5  1  0  0  0  0 
  5  6  2  0  0  0  0 
  6  7  1  0  0  0  0 
  7  8  1  0  0  0  0 
  7  9  2  0  0  0  0 
  1  9  1  0  0  0  0 
  9 10  1  0  0  0  0 
  6 11  1  0  0  0  0 
 11 12  1  0  0  0  0 
 12 13  1  0  0  0  0 
 12 14  1  0  0  0  0 
 14 15  1  0  0  0  0 
 14 16  1  0  0  0  0 
 14 17  1  0  0  0  0 
 17 18  2  0  0  0  0 
 17 19  1  0  0  0  0 
 19 20  1  0  0  0  0 
 12 21  1  0  0  0  0 
  5 21  1  0  0  0  0 
 21 22  1  0  0  0  0 
 21 23  1  0  0  0  0 
 23 24  2  0  0  0  0 
 23 25  1  0  0  0  0 
 25 26  2  0  0  0  0 
 26 27  1  0  0  0  0 
 26 28  1  0  0  0  0 
 28 29  2  0  0  0  0 
 29 30  1  0  0  0  0 
 30 31  2  0  0  0  0 
 25 31  1  0  0  0  0 
 31 32  1  0  0  0  0 
 30 33  1  0  0  0  0 
 29 34  1  0  0  0  0 
 34 35  1  0  0  0  0 
 28 36  1  0  0  0  0 
M  END
> <Rank>
9

> <Priority_score>
0.204

> <Reaction_type>
carboxylation_(primary_carbon_next_to_sec_carbon)

> <Parent_ID>
16

> <Parent_InChI>
InChI=1S/C17H14Br2O3/c1-2-13-15(10-5-3-4-6-14(10)22-13)16(20)9-7-11(18)17(21)12(19)8-9/h3-8,13,15,21H,2H2,1H3

> <Parent_SMILES>
CCC1Oc2ccccc2C1C(=O)c1cc(Br)c(O)c(Br)c1

$$$$
Molecule 16_metabolite 10
  CDK     0516241031

 37 39  0  0  0  0  0  0  0  0999 V2000
    5.1412   -1.0206    0.0000 C   0  0  0  0  0  0  0  0  0  0  0  0
    6.2558   -2.0244    0.0000 H   0  0  0  0  0  0  0  0  0  0  0  0
    6.3234   -0.0973    0.0000 H   0  0  0  0  0  0  0  0  0  0  0  0
    4.4372    0.3040    0.0000 H   0  0  0  0  0  0  0  0  0  0  0  0
    3.7146   -1.4839    0.0000 C   0  0  0  0  0  0  0  0  0  0  0  0
    2.5324   -2.4072    0.0000 H   0  0  0  0  0  0  0  0  0  0  0  0
    2.6000   -0.4800    0.0000 C   0  0  0  0  0  0  0  0  0  0  0  0
    3.7146    0.5239    0.0000 H   0  0  0  0  0  0  0  0  0  0  0  0
    1.7200    0.7300    0.0000 C   0  0  0  0  0  0  0  0  0  0  0  0
    3.0195    1.4791    0.0000 H   0  0  0  0  0  0  0  0  0  0  0  0
    0.2900    0.2700    0.0000 C   0  0  0  0  0  0  0  0  0  0  0  0
    0.2900   -1.2300    0.0000 C   0  0  0  0  0  0  0  0  0  0  0  0
   -1.0100   -1.9800    0.0000 C   0  0  0  0  0  0  0  0  0  0  0  0
   -1.0100   -3.4800    0.0000 H   0  0  0  0  0  0  0  0  0  0  0  0
   -2.3100   -1.2300    0.0000 C   0  0  0  0  0  0  0  0  0  0  0  0
   -3.6089   -1.9802    0.0000 H   0  0  0  0  0  0  0  0  0  0  0  0
   -2.3100    0.2700    0.0000 C   0  0  0  0  0  0  0  0  0  0  0  0
   -3.6089    1.0202    0.0000 H   0  0  0  0  0  0  0  0  0  0  0  0
   -1.0100    1.0200    0.0000 C   0  0  0  0  0  0  0  0  0  0  0  0
   -1.0100    3.0000    0.0000 H   0  0  0  0  0  0  0  0  0  0  0  0
    1.7200   -1.6900    0.0000 O   0  0  0  0  0  0  0  0  0  0  0  0
    1.1124    2.1014    0.0000 C   0  0  0  0  0  0  0  0  0  0  0  0
   -0.3791    2.2609    0.0000 O   0  0  0  0  0  0  0  0  0  0  0  0
    1.9962    3.3134    0.0000 C   0  0  0  0  0  0  0  0  0  0  0  0
    3.4885    3.1533    0.0000 C   0  0  0  0  0  0  0  0  0  0  0  0
    4.0959    1.7818    0.0000 H   0  0  0  0  0  0  0  0  0  0  0  0
    4.3723    4.3653    0.0000 C   0  0  0  0  0  0  0  0  0  0  0  0
    3.7639    5.7372    0.0000 C   0  0  0  0  0  0  0  0  0  0  0  0
    2.2717    5.8973    0.0000 C   0  0  0  0  0  0  0  0  0  0  0  0
    1.3878    4.6853    0.0000 C   0  0  0  0  0  0  0  0  0  0  0  0
   -0.1037    4.8446    0.0000 H   0  0  0  0  0  0  0  0  0  0  0  0
    1.6642    7.2688    0.0000 Br  0  0  0  0  0  0  0  0  0  0  0  0
    4.6478    6.9492    0.0000 O   0  0  0  0  0  0  0  0  0  0  0  0
    4.0401    8.3206    0.0000 H   0  0  0  0  0  0  0  0  0  0  0  0
    5.8639    4.2060    0.0000 Br  0  0  0  0  0  0  0  0  0  0  0  0
    4.4186   -2.8084    0.0000 O   0  0  0  0  0  0  0  0  0  0  0  0
    5.9176   -2.8610    0.0000 H   0  0  0  0  0  0  0  0  0  0  0  0
  1  2  1  0  0  0  0 
  1  3  1  0  0  0  0 
  1  4  1  0  0  0  0 
  1  5  1  0  0  0  0 
  5  6  1  0  0  0  0 
  5  7  1  0  0  0  0 
  7  8  1  0  0  0  0 
  7  9  1  0  0  0  0 
  9 10  1  0  0  0  0 
  9 11  1  0  0  0  0 
 11 12  2  0  0  0  0 
 12 13  1  0  0  0  0 
 13 14  1  0  0  0  0 
 13 15  2  0  0  0  0 
 15 16  1  0  0  0  0 
 15 17  1  0  0  0  0 
 17 18  1  0  0  0  0 
 17 19  2  0  0  0  0 
 11 19  1  0  0  0  0 
 19 20  1  0  0  0  0 
 12 21  1  0  0  0  0 
  7 21  1  0  0  0  0 
  9 22  1  0  0  0  0 
 22 23  2  0  0  0  0 
 22 24  1  0  0  0  0 
 24 25  2  0  0  0  0 
 25 26  1  0  0  0  0 
 25 27  1  0  0  0  0 
 27 28  2  0  0  0  0 
 28 29  1  0  0  0  0 
 29 30  2  0  0  0  0 
 24 30  1  0  0  0  0 
 30 31  1  0  0  0  0 
 29 32  1  0  0  0  0 
 28 33  1  0  0  0  0 
 33 34  1  0  0  0  0 
 27 35  1  0  0  0  0 
  5 36  1  0  0  0  0 
 36 37  1  0  0  0  0 
M  END
> <Rank>
9

> <Priority_score>
0.204

> <Reaction_type>
aliphatic_hydroxylation_(sec_carbon,next_to_CH3)

> <Parent_ID>
16

> <Parent_InChI>
InChI=1S/C17H14Br2O3/c1-2-13-15(10-5-3-4-6-14(10)22-13)16(20)9-7-11(18)17(21)12(19)8-9/h3-8,13,15,21H,2H2,1H3

> <Parent_SMILES>
CCC1Oc2ccccc2C1C(=O)c1cc(Br)c(O)c(Br)c1

$$$$
Molecule 16_metabolite 11
  CDK     0516241031

 37 39  0  0  0  0  0  0  0  0999 V2000
   -1.8995   -0.7444    0.0000 C   0  0  0  0  0  0  0  0  0  0  0  0
   -3.1984    0.0058    0.0000 H   0  0  0  0  0  0  0  0  0  0  0  0
   -0.5995    0.0056    0.0000 C   0  0  0  0  0  0  0  0  0  0  0  0
   -0.5995    1.5056    0.0000 H   0  0  0  0  0  0  0  0  0  0  0  0
    0.7005   -0.7444    0.0000 C   0  0  0  0  0  0  0  0  0  0  0  0
    0.7005   -2.2444    0.0000 C   0  0  0  0  0  0  0  0  0  0  0  0
   -0.5995   -2.9944    0.0000 C   0  0  0  0  0  0  0  0  0  0  0  0
   -0.5995   -4.4944    0.0000 H   0  0  0  0  0  0  0  0  0  0  0  0
   -1.8995   -2.2444    0.0000 C   0  0  0  0  0  0  0  0  0  0  0  0
   -3.1984   -2.9946    0.0000 H   0  0  0  0  0  0  0  0  0  0  0  0
    2.1305   -2.7044    0.0000 O   0  0  0  0  0  0  0  0  0  0  0  0
    3.0105   -1.4944    0.0000 C   0  0  0  0  0  0  0  0  0  0  0  0
    4.1251   -2.4983    0.0000 H   0  0  0  0  0  0  0  0  0  0  0  0
    4.4817   -0.1693    0.0000 C   0  0  0  0  0  0  0  0  0  0  0  0
    5.1857    1.1552    0.0000 H   0  0  0  0  0  0  0  0  0  0  0  0
    2.9213    1.0495    0.0000 H   0  0  0  0  0  0  0  0  0  0  0  0
    5.9084   -0.6326    0.0000 C   0  0  0  0  0  0  0  0  0  0  0  0
    5.2044   -1.9571    0.0000 H   0  0  0  0  0  0  0  0  0  0  0  0
    7.0906   -1.5559    0.0000 H   0  0  0  0  0  0  0  0  0  0  0  0
    7.0230    0.3713    0.0000 O   0  0  0  0  0  0  0  0  0  0  0  0
    8.4496   -0.0920    0.0000 H   0  0  0  0  0  0  0  0  0  0  0  0
    2.1305   -0.2844    0.0000 C   0  0  0  0  0  0  0  0  0  0  0  0
    3.4301    0.4647    0.0000 H   0  0  0  0  0  0  0  0  0  0  0  0
    1.1340    1.9647    0.0000 C   0  0  0  0  0  0  0  0  0  0  0  0
   -0.3072    2.3808    0.0000 O   0  0  0  0  0  0  0  0  0  0  0  0
    2.0178    3.1767    0.0000 C   0  0  0  0  0  0  0  0  0  0  0  0
    3.5101    3.0166    0.0000 C   0  0  0  0  0  0  0  0  0  0  0  0
    4.1175    1.6451    0.0000 H   0  0  0  0  0  0  0  0  0  0  0  0
    4.3940    4.2286    0.0000 C   0  0  0  0  0  0  0  0  0  0  0  0
    3.7856    5.6005    0.0000 C   0  0  0  0  0  0  0  0  0  0  0  0
    2.2933    5.7606    0.0000 C   0  0  0  0  0  0  0  0  0  0  0  0
    1.4094    4.5486    0.0000 C   0  0  0  0  0  0  0  0  0  0  0  0
   -0.0821    4.7079    0.0000 H   0  0  0  0  0  0  0  0  0  0  0  0
    1.6859    7.1321    0.0000 Br  0  0  0  0  0  0  0  0  0  0  0  0
    4.6694    6.8125    0.0000 O   0  0  0  0  0  0  0  0  0  0  0  0
    4.0618    8.1839    0.0000 H   0  0  0  0  0  0  0  0  0  0  0  0
    5.8855    4.0693    0.0000 Br  0  0  0  0  0  0  0  0  0  0  0  0
  1  2  1  0  0  0  0 
  1  3  2  0  0  0  0 
  3  4  1  0  0  0  0 
  3  5  1  0  0  0  0 
  5  6  2  0  0  0  0 
  6  7  1  0  0  0  0 
  7  8  1  0  0  0  0 
  7  9  2  0  0  0  0 
  1  9  1  0  0  0  0 
  9 10  1  0  0  0  0 
  6 11  1  0  0  0  0 
 11 12  1  0  0  0  0 
 12 13  1  0  0  0  0 
 12 14  1  0  0  0  0 
 14 15  1  0  0  0  0 
 14 16  1  0  0  0  0 
 14 17  1  0  0  0  0 
 17 18  1  0  0  0  0 
 17 19  1  0  0  0  0 
 17 20  1  0  0  0  0 
 20 21  1  0  0  0  0 
 12 22  1  0  0  0  0 
  5 22  1  0  0  0  0 
 22 23  1  0  0  0  0 
 22 24  1  0  0  0  0 
 24 25  2  0  0  0  0 
 24 26  1  0  0  0  0 
 26 27  2  0  0  0  0 
 27 28  1  0  0  0  0 
 27 29  1  0  0  0  0 
 29 30  2  0  0  0  0 
 30 31  1  0  0  0  0 
 31 32  2  0  0  0  0 
 26 32  1  0  0  0  0 
 32 33  1  0  0  0  0 
 31 34  1  0  0  0  0 
 30 35  1  0  0  0  0 
 35 36  1  0  0  0  0 
 29 37  1  0  0  0  0 
M  END
> <Rank>
9

> <Priority_score>
0.204

> <Reaction_type>
aliphatic_hydroxylation_(primary_carbon_next_to_sec_carbon)

> <Parent_ID>
16

> <Parent_InChI>
InChI=1S/C17H14Br2O3/c1-2-13-15(10-5-3-4-6-14(10)22-13)16(20)9-7-11(18)17(21)12(19)8-9/h3-8,13,15,21H,2H2,1H3

> <Parent_SMILES>
CCC1Oc2ccccc2C1C(=O)c1cc(Br)c(O)c(Br)c1

$$$$
Molecule 16_metabolite 12
  CDK     0516241031

 37 38  0  0  0  0  0  0  0  0999 V2000
   -1.7717    7.9357    0.0000 C   0  0  0  0  0  0  0  0  0  0  0  0
   -1.7719    9.4357    0.0000 H   0  0  0  0  0  0  0  0  0  0  0  0
   -2.2845    6.5261    0.0000 H   0  0  0  0  0  0  0  0  0  0  0  0
   -3.2489    8.1959    0.0000 H   0  0  0  0  0  0  0  0  0  0  0  0
   -0.4725    7.1859    0.0000 C   0  0  0  0  0  0  0  0  0  0  0  0
    0.0403    8.5955    0.0000 H   0  0  0  0  0  0  0  0  0  0  0  0
    1.0047    6.9257    0.0000 H   0  0  0  0  0  0  0  0  0  0  0  0
   -0.4723    5.6859    0.0000 C   0  0  0  0  0  0  0  0  0  0  0  0
   -1.7712    4.9357    0.0000 O   0  0  0  0  0  0  0  0  0  0  0  0
    0.8269    4.9361    0.0000 C   0  0  0  0  0  0  0  0  0  0  0  0
   -0.1371    3.7869    0.0000 H   0  0  0  0  0  0  0  0  0  0  0  0
    2.9571    6.1664    0.0000 C   0  0  0  0  0  0  0  0  0  0  0  0
    2.9571    7.6664    0.0000 C   0  0  0  0  0  0  0  0  0  0  0  0
    4.2571    8.4164    0.0000 C   0  0  0  0  0  0  0  0  0  0  0  0
    4.2571    9.9164    0.0000 H   0  0  0  0  0  0  0  0  0  0  0  0
    5.5571    7.6664    0.0000 C   0  0  0  0  0  0  0  0  0  0  0  0
    6.8560    8.4166    0.0000 H   0  0  0  0  0  0  0  0  0  0  0  0
    5.5571    6.1664    0.0000 C   0  0  0  0  0  0  0  0  0  0  0  0
    6.8560    5.4162    0.0000 H   0  0  0  0  0  0  0  0  0  0  0  0
    4.2571    5.4164    0.0000 C   0  0  0  0  0  0  0  0  0  0  0  0
    4.2571    3.9164    0.0000 H   0  0  0  0  0  0  0  0  0  0  0  0
    1.6582    8.4166    0.0000 O   0  0  0  0  0  0  0  0  0  0  0  0
    1.6584    9.9166    0.0000 H   0  0  0  0  0  0  0  0  0  0  0  0
    1.7913    3.7872    0.0000 C   0  0  0  0  0  0  0  0  0  0  0  0
    3.2684    4.0479    0.0000 O   0  0  0  0  0  0  0  0  0  0  0  0
    1.2785    2.3776    0.0000 C   0  0  0  0  0  0  0  0  0  0  0  0
   -0.1996    2.1172    0.0000 C   0  0  0  0  0  0  0  0  0  0  0  0
   -1.1638    3.2663    0.0000 H   0  0  0  0  0  0  0  0  0  0  0  0
   -0.7124    0.7076    0.0000 C   0  0  0  0  0  0  0  0  0  0  0  0
    0.2528   -0.4417    0.0000 C   0  0  0  0  0  0  0  0  0  0  0  0
    1.7309   -0.1813    0.0000 C   0  0  0  0  0  0  0  0  0  0  0  0
    2.2437    1.2283    0.0000 C   0  0  0  0  0  0  0  0  0  0  0  0
    3.7209    1.4893    0.0000 H   0  0  0  0  0  0  0  0  0  0  0  0
    2.6951   -1.3304    0.0000 Br  0  0  0  0  0  0  0  0  0  0  0  0
   -0.2600   -1.8513    0.0000 O   0  0  0  0  0  0  0  0  0  0  0  0
    0.7044   -3.0002    0.0000 H   0  0  0  0  0  0  0  0  0  0  0  0
   -2.1896    0.4466    0.0000 Br  0  0  0  0  0  0  0  0  0  0  0  0
  1  2  1  0  0  0  0 
  1  3  1  0  0  0  0 
  1  4  1  0  0  0  0 
  1  5  1  0  0  0  0 
  5  6  1  0  0  0  0 
  5  7  1  0  0  0  0 
  5  8  1  0  0  0  0 
  8  9  2  0  0  0  0 
  8 10  1  0  0  0  0 
 10 11  1  0  0  0  0 
 10 12  1  0  0  0  0 
 12 13  2  0  0  0  0 
 13 14  1  0  0  0  0 
 14 15  1  0  0  0  0 
 14 16  2  0  0  0  0 
 16 17  1  0  0  0  0 
 16 18  1  0  0  0  0 
 18 19  1  0  0  0  0 
 18 20  2  0  0  0  0 
 12 20  1  0  0  0  0 
 20 21  1  0  0  0  0 
 13 22  1  0  0  0  0 
 22 23  1  0  0  0  0 
 10 24  1  0  0  0  0 
 24 25  2  0  0  0  0 
 24 26  1  0  0  0  0 
 26 27  2  0  0  0  0 
 27 28  1  0  0  0  0 
 27 29  1  0  0  0  0 
 29 30  2  0  0  0  0 
 30 31  1  0  0  0  0 
 31 32  2  0  0  0  0 
 26 32  1  0  0  0  0 
 32 33  1  0  0  0  0 
 31 34  1  0  0  0  0 
 30 35  1  0  0  0  0 
 35 36  1  0  0  0  0 
 29 37  1  0  0  0  0 
M  END
> <Rank>
12

> <Priority_score>
0.104

> <Reaction_type>
oxidative ether cleavage to one alcohol and one aldehyde/ketone

> <Parent_ID>
16

> <Parent_InChI>
InChI=1S/C17H14Br2O3/c1-2-13-15(10-5-3-4-6-14(10)22-13)16(20)9-7-11(18)17(21)12(19)8-9/h3-8,13,15,21H,2H2,1H3

> <Parent_SMILES>
CCC1Oc2ccccc2C1C(=O)c1cc(Br)c(O)c(Br)c1

$$$$
Molecule 16_metabolite 13
  CDK     0516241031

 37 39  0  0  0  0  0  0  0  0999 V2000
    3.4025   -2.9510    0.0000 C   0  0  0  0  0  0  0  0  0  0  0  0
    1.9758   -3.4143    0.0000 H   0  0  0  0  0  0  0  0  0  0  0  0
    3.6110   -4.4365    0.0000 H   0  0  0  0  0  0  0  0  0  0  0  0
    4.9015   -3.0036    0.0000 H   0  0  0  0  0  0  0  0  0  0  0  0
    3.7146   -1.4839    0.0000 C   0  0  0  0  0  0  0  0  0  0  0  0
    4.5096   -0.2119    0.0000 H   0  0  0  0  0  0  0  0  0  0  0  0
    5.1052   -2.0460    0.0000 H   0  0  0  0  0  0  0  0  0  0  0  0
    1.8867    0.1625    0.0000 C   0  0  0  0  0  0  0  0  0  0  0  0
    1.0067    1.3725    0.0000 C   0  0  0  0  0  0  0  0  0  0  0  0
    2.3062    2.1216    0.0000 H   0  0  0  0  0  0  0  0  0  0  0  0
   -0.4233    0.9125    0.0000 C   0  0  0  0  0  0  0  0  0  0  0  0
   -0.4233   -0.5875    0.0000 C   0  0  0  0  0  0  0  0  0  0  0  0
   -1.7233   -1.3375    0.0000 C   0  0  0  0  0  0  0  0  0  0  0  0
   -1.7233   -2.8375    0.0000 H   0  0  0  0  0  0  0  0  0  0  0  0
   -3.0233   -0.5875    0.0000 C   0  0  0  0  0  0  0  0  0  0  0  0
   -4.3222   -1.3377    0.0000 H   0  0  0  0  0  0  0  0  0  0  0  0
   -3.0233    0.9125    0.0000 C   0  0  0  0  0  0  0  0  0  0  0  0
   -4.3222    1.6627    0.0000 H   0  0  0  0  0  0  0  0  0  0  0  0
   -1.7233    1.6625    0.0000 C   0  0  0  0  0  0  0  0  0  0  0  0
   -1.7233    3.6425    0.0000 H   0  0  0  0  0  0  0  0  0  0  0  0
    1.0067   -1.0475    0.0000 O   0  0  0  0  0  0  0  0  0  0  0  0
    0.3990    2.7439    0.0000 C   0  0  0  0  0  0  0  0  0  0  0  0
   -1.0925    2.9034    0.0000 O   0  0  0  0  0  0  0  0  0  0  0  0
    1.2829    3.9558    0.0000 C   0  0  0  0  0  0  0  0  0  0  0  0
    2.7752    3.7958    0.0000 C   0  0  0  0  0  0  0  0  0  0  0  0
    3.3826    2.4243    0.0000 H   0  0  0  0  0  0  0  0  0  0  0  0
    3.6590    5.0077    0.0000 C   0  0  0  0  0  0  0  0  0  0  0  0
    3.0506    6.3797    0.0000 C   0  0  0  0  0  0  0  0  0  0  0  0
    1.5583    6.5397    0.0000 C   0  0  0  0  0  0  0  0  0  0  0  0
    0.6745    5.3278    0.0000 C   0  0  0  0  0  0  0  0  0  0  0  0
   -0.8170    5.4870    0.0000 H   0  0  0  0  0  0  0  0  0  0  0  0
    0.9509    7.9113    0.0000 Br  0  0  0  0  0  0  0  0  0  0  0  0
    3.9345    7.5916    0.0000 O   0  0  0  0  0  0  0  0  0  0  0  0
    3.3268    8.9631    0.0000 H   0  0  0  0  0  0  0  0  0  0  0  0
    5.1506    4.8485    0.0000 Br  0  0  0  0  0  0  0  0  0  0  0  0
    3.0012    1.1664    0.0000 O   0  0  0  0  0  0  0  0  0  0  0  0
    4.4279    0.7031    0.0000 H   0  0  0  0  0  0  0  0  0  0  0  0
  1  2  1  0  0  0  0 
  1  3  1  0  0  0  0 
  1  4  1  0  0  0  0 
  1  5  1  0  0  0  0 
  5  6  1  0  0  0  0 
  5  7  1  0  0  0  0 
  5  8  1  0  0  0  0 
  8  9  1  0  0  0  0 
  9 10  1  0  0  0  0 
  9 11  1  0  0  0  0 
 11 12  2  0  0  0  0 
 12 13  1  0  0  0  0 
 13 14  1  0  0  0  0 
 13 15  2  0  0  0  0 
 15 16  1  0  0  0  0 
 15 17  1  0  0  0  0 
 17 18  1  0  0  0  0 
 17 19  2  0  0  0  0 
 11 19  1  0  0  0  0 
 19 20  1  0  0  0  0 
 12 21  1  0  0  0  0 
  8 21  1  0  0  0  0 
  9 22  1  0  0  0  0 
 22 23  2  0  0  0  0 
 22 24  1  0  0  0  0 
 24 25  2  0  0  0  0 
 25 26  1  0  0  0  0 
 25 27  1  0  0  0  0 
 27 28  2  0  0  0  0 
 28 29  1  0  0  0  0 
 29 30  2  0  0  0  0 
 24 30  1  0  0  0  0 
 30 31  1  0  0  0  0 
 29 32  1  0  0  0  0 
 28 33  1  0  0  0  0 
 33 34  1  0  0  0  0 
 27 35  1  0  0  0  0 
  8 36  1  0  0  0  0 
 36 37  1  0  0  0  0 
M  END
> <Rank>
12

> <Priority_score>
0.104

> <Reaction_type>
aliphatic hydroxylation

> <Parent_ID>
16

> <Parent_InChI>
InChI=1S/C17H14Br2O3/c1-2-13-15(10-5-3-4-6-14(10)22-13)16(20)9-7-11(18)17(21)12(19)8-9/h3-8,13,15,21H,2H2,1H3

> <Parent_SMILES>
CCC1Oc2ccccc2C1C(=O)c1cc(Br)c(O)c(Br)c1

$$$$
Molecule 16_metabolite 14
  CDK     0516241031

 39 40  0  0  0  0  0  0  0  0999 V2000
    0.3549   -1.6488    0.0000 C   0  0  0  0  0  0  0  0  0  0  0  0
    1.6540   -2.3986    0.0000 H   0  0  0  0  0  0  0  0  0  0  0  0
   -1.1224   -1.3886    0.0000 H   0  0  0  0  0  0  0  0  0  0  0  0
   -0.1579   -3.0584    0.0000 H   0  0  0  0  0  0  0  0  0  0  0  0
    0.3546    0.3312    0.0000 C   0  0  0  0  0  0  0  0  0  0  0  0
    1.8318    0.0709    0.0000 H   0  0  0  0  0  0  0  0  0  0  0  0
    0.8674    1.7408    0.0000 H   0  0  0  0  0  0  0  0  0  0  0  0
   -0.9446    1.0810    0.0000 C   0  0  0  0  0  0  0  0  0  0  0  0
   -2.4218    1.3412    0.0000 H   0  0  0  0  0  0  0  0  0  0  0  0
   -0.9449    3.0610    0.0000 C   0  0  0  0  0  0  0  0  0  0  0  0
    0.5323    2.8007    0.0000 H   0  0  0  0  0  0  0  0  0  0  0  0
   -3.0755    4.2906    0.0000 C   0  0  0  0  0  0  0  0  0  0  0  0
   -4.3746    3.5406    0.0000 C   0  0  0  0  0  0  0  0  0  0  0  0
   -5.6741    4.2915    0.0000 C   0  0  0  0  0  0  0  0  0  0  0  0
   -6.9731    3.5415    0.0000 H   0  0  0  0  0  0  0  0  0  0  0  0
   -5.6746    5.7923    0.0000 C   0  0  0  0  0  0  0  0  0  0  0  0
   -6.9737    6.5421    0.0000 H   0  0  0  0  0  0  0  0  0  0  0  0
   -4.3755    6.5423    0.0000 C   0  0  0  0  0  0  0  0  0  0  0  0
   -4.3753    8.0423    0.0000 H   0  0  0  0  0  0  0  0  0  0  0  0
   -3.0760    5.7915    0.0000 C   0  0  0  0  0  0  0  0  0  0  0  0
   -1.7770    6.5415    0.0000 H   0  0  0  0  0  0  0  0  0  0  0  0
   -4.3748    2.0406    0.0000 O   0  0  0  0  0  0  0  0  0  0  0  0
   -5.6740    1.2908    0.0000 H   0  0  0  0  0  0  0  0  0  0  0  0
   -0.4321    4.4706    0.0000 C   0  0  0  0  0  0  0  0  0  0  0  0
   -1.3965    5.6195    0.0000 O   0  0  0  0  0  0  0  0  0  0  0  0
    1.5178    4.8147    0.0000 C   0  0  0  0  0  0  0  0  0  0  0  0
    2.4823    3.6649    0.0000 C   0  0  0  0  0  0  0  0  0  0  0  0
    1.9693    2.2553    0.0000 H   0  0  0  0  0  0  0  0  0  0  0  0
    3.9595    3.9256    0.0000 C   0  0  0  0  0  0  0  0  0  0  0  0
    4.4721    5.3361    0.0000 C   0  0  0  0  0  0  0  0  0  0  0  0
    3.5076    6.4860    0.0000 C   0  0  0  0  0  0  0  0  0  0  0  0
    2.0304    6.2253    0.0000 C   0  0  0  0  0  0  0  0  0  0  0  0
    1.0659    7.3741    0.0000 H   0  0  0  0  0  0  0  0  0  0  0  0
    4.0206    7.8955    0.0000 Br  0  0  0  0  0  0  0  0  0  0  0  0
    5.9493    5.5969    0.0000 O   0  0  0  0  0  0  0  0  0  0  0  0
    6.4621    7.0065    0.0000 H   0  0  0  0  0  0  0  0  0  0  0  0
    4.9240    2.7768    0.0000 Br  0  0  0  0  0  0  0  0  0  0  0  0
   -1.4574   -0.3286    0.0000 O   0  0  0  0  0  0  0  0  0  0  0  0
   -4.3526   -0.8396    0.0000 H   0  0  0  0  0  0  0  0  0  0  0  0
  1  2  1  0  0  0  0 
  1  3  1  0  0  0  0 
  1  4  1  0  0  0  0 
  1  5  1  0  0  0  0 
  5  6  1  0  0  0  0 
  5  7  1  0  0  0  0 
  5  8  1  0  0  0  0 
  8  9  1  0  0  0  0 
  8 10  1  0  0  0  0 
 10 11  1  0  0  0  0 
 10 12  1  0  0  0  0 
 12 13  2  0  0  0  0 
 13 14  1  0  0  0  0 
 14 15  1  0  0  0  0 
 14 16  2  0  0  0  0 
 16 17  1  0  0  0  0 
 16 18  1  0  0  0  0 
 18 19  1  0  0  0  0 
 18 20  2  0  0  0  0 
 12 20  1  0  0  0  0 
 20 21  1  0  0  0  0 
 13 22  1  0  0  0  0 
 22 23  1  0  0  0  0 
 10 24  1  0  0  0  0 
 24 25  2  0  0  0  0 
 24 26  1  0  0  0  0 
 26 27  2  0  0  0  0 
 27 28  1  0  0  0  0 
 27 29  1  0  0  0  0 
 29 30  2  0  0  0  0 
 30 31  1  0  0  0  0 
 31 32  2  0  0  0  0 
 26 32  1  0  0  0  0 
 32 33  1  0  0  0  0 
 31 34  1  0  0  0  0 
 30 35  1  0  0  0  0 
 35 36  1  0  0  0  0 
 29 37  1  0  0  0  0 
  8 38  1  0  0  0  0 
 38 39  1  0  0  0  0 
M  END
> <Rank>
12

> <Priority_score>
0.104

> <Reaction_type>
O-dealkylation_(aromatic)

> <Parent_ID>
16

> <Parent_InChI>
InChI=1S/C17H14Br2O3/c1-2-13-15(10-5-3-4-6-14(10)22-13)16(20)9-7-11(18)17(21)12(19)8-9/h3-8,13,15,21H,2H2,1H3

> <Parent_SMILES>
CCC1Oc2ccccc2C1C(=O)c1cc(Br)c(O)c(Br)c1

$$$$
Molecule 16_metabolite 15
  CDK     0516241031

 37 39  0  0  0  0  0  0  0  0999 V2000
    2.9866   -3.1908    0.0000 C   0  0  0  0  0  0  0  0  0  0  0  0
    4.1012   -4.1946    0.0000 H   0  0  0  0  0  0  0  0  0  0  0  0
    2.1915   -4.4627    0.0000 H   0  0  0  0  0  0  0  0  0  0  0  0
    1.5959   -2.6286    0.0000 H   0  0  0  0  0  0  0  0  0  0  0  0
    3.2987   -1.7236    0.0000 C   0  0  0  0  0  0  0  0  0  0  0  0
    4.0938   -0.4517    0.0000 H   0  0  0  0  0  0  0  0  0  0  0  0
    4.6894   -2.2857    0.0000 H   0  0  0  0  0  0  0  0  0  0  0  0
    2.1841   -0.7197    0.0000 C   0  0  0  0  0  0  0  0  0  0  0  0
    3.2987    0.2841    0.0000 H   0  0  0  0  0  0  0  0  0  0  0  0
    1.3041    0.4903    0.0000 C   0  0  0  0  0  0  0  0  0  0  0  0
   -0.1259    0.0303    0.0000 C   0  0  0  0  0  0  0  0  0  0  0  0
   -0.1259   -1.4697    0.0000 C   0  0  0  0  0  0  0  0  0  0  0  0
   -1.4259   -2.2197    0.0000 C   0  0  0  0  0  0  0  0  0  0  0  0
   -1.4259   -3.7197    0.0000 H   0  0  0  0  0  0  0  0  0  0  0  0
   -2.7259   -1.4697    0.0000 C   0  0  0  0  0  0  0  0  0  0  0  0
   -4.0248   -2.2199    0.0000 H   0  0  0  0  0  0  0  0  0  0  0  0
   -2.7259    0.0303    0.0000 C   0  0  0  0  0  0  0  0  0  0  0  0
   -4.0248    0.7805    0.0000 H   0  0  0  0  0  0  0  0  0  0  0  0
   -1.4259    0.7803    0.0000 C   0  0  0  0  0  0  0  0  0  0  0  0
   -1.4259    2.7603    0.0000 H   0  0  0  0  0  0  0  0  0  0  0  0
    1.3041   -1.9297    0.0000 O   0  0  0  0  0  0  0  0  0  0  0  0
    3.0195    1.4791    0.0000 C   0  0  0  0  0  0  0  0  0  0  0  0
    4.3181    0.7283    0.0000 O   0  0  0  0  0  0  0  0  0  0  0  0
    3.0205    2.9791    0.0000 C   0  0  0  0  0  0  0  0  0  0  0  0
    4.3210    3.7283    0.0000 C   0  0  0  0  0  0  0  0  0  0  0  0
    5.6194    2.9772    0.0000 H   0  0  0  0  0  0  0  0  0  0  0  0
    4.3220    5.2283    0.0000 C   0  0  0  0  0  0  0  0  0  0  0  0
    3.0225    5.9791    0.0000 C   0  0  0  0  0  0  0  0  0  0  0  0
    1.7220    5.2300    0.0000 C   0  0  0  0  0  0  0  0  0  0  0  0
    1.7210    3.7300    0.0000 C   0  0  0  0  0  0  0  0  0  0  0  0
    0.4216    2.9806    0.0000 H   0  0  0  0  0  0  0  0  0  0  0  0
    0.4236    5.9811    0.0000 Br  0  0  0  0  0  0  0  0  0  0  0  0
    3.0235    7.4791    0.0000 O   0  0  0  0  0  0  0  0  0  0  0  0
    4.3230    8.2283    0.0000 H   0  0  0  0  0  0  0  0  0  0  0  0
    5.6214    5.9776    0.0000 Br  0  0  0  0  0  0  0  0  0  0  0  0
    0.6965    1.8617    0.0000 O   0  0  0  0  0  0  0  0  0  0  0  0
   -0.7950    2.0212    0.0000 H   0  0  0  0  0  0  0  0  0  0  0  0
  1  2  1  0  0  0  0 
  1  3  1  0  0  0  0 
  1  4  1  0  0  0  0 
  1  5  1  0  0  0  0 
  5  6  1  0  0  0  0 
  5  7  1  0  0  0  0 
  5  8  1  0  0  0  0 
  8  9  1  0  0  0  0 
  8 10  1  0  0  0  0 
 10 11  1  0  0  0  0 
 11 12  2  0  0  0  0 
 12 13  1  0  0  0  0 
 13 14  1  0  0  0  0 
 13 15  2  0  0  0  0 
 15 16  1  0  0  0  0 
 15 17  1  0  0  0  0 
 17 18  1  0  0  0  0 
 17 19  2  0  0  0  0 
 11 19  1  0  0  0  0 
 19 20  1  0  0  0  0 
 12 21  1  0  0  0  0 
  8 21  1  0  0  0  0 
 10 22  1  0  0  0  0 
 22 23  2  0  0  0  0 
 22 24  1  0  0  0  0 
 24 25  2  0  0  0  0 
 25 26  1  0  0  0  0 
 25 27  1  0  0  0  0 
 27 28  2  0  0  0  0 
 28 29  1  0  0  0  0 
 29 30  2  0  0  0  0 
 24 30  1  0  0  0  0 
 30 31  1  0  0  0  0 
 29 32  1  0  0  0  0 
 28 33  1  0  0  0  0 
 33 34  1  0  0  0  0 
 27 35  1  0  0  0  0 
 10 36  1  0  0  0  0 
 36 37  1  0  0  0  0 
M  END
> <Rank>
15

> <Priority_score>
0.088

> <Reaction_type>
benzylic_hydroxylation_(c-CH1-CR)

> <Parent_ID>
16

> <Parent_InChI>
InChI=1S/C17H14Br2O3/c1-2-13-15(10-5-3-4-6-14(10)22-13)16(20)9-7-11(18)17(21)12(19)8-9/h3-8,13,15,21H,2H2,1H3

> <Parent_SMILES>
CCC1Oc2ccccc2C1C(=O)c1cc(Br)c(O)c(Br)c1

$$$$
Molecule 16_metabolite 16
  CDK     0516241031

 37 39  0  0  0  0  0  0  0  0999 V2000
    5.7246   -1.8571    0.0000 C   0  0  0  0  0  0  0  0  0  0  0  0
    6.8391   -2.8610    0.0000 H   0  0  0  0  0  0  0  0  0  0  0  0
    6.9067   -0.9338    0.0000 H   0  0  0  0  0  0  0  0  0  0  0  0
    5.0206   -0.5326    0.0000 H   0  0  0  0  0  0  0  0  0  0  0  0
    4.2979   -2.3204    0.0000 C   0  0  0  0  0  0  0  0  0  0  0  0
    3.1157   -3.2437    0.0000 H   0  0  0  0  0  0  0  0  0  0  0  0
    5.0019   -3.6450    0.0000 H   0  0  0  0  0  0  0  0  0  0  0  0
    3.1833   -1.3166    0.0000 C   0  0  0  0  0  0  0  0  0  0  0  0
    4.2979   -0.3127    0.0000 H   0  0  0  0  0  0  0  0  0  0  0  0
    2.3033   -0.1066    0.0000 C   0  0  0  0  0  0  0  0  0  0  0  0
    3.6029    0.6426    0.0000 H   0  0  0  0  0  0  0  0  0  0  0  0
    0.8733   -0.5666    0.0000 C   0  0  0  0  0  0  0  0  0  0  0  0
    0.8733   -2.0666    0.0000 C   0  0  0  0  0  0  0  0  0  0  0  0
   -0.4267   -2.8166    0.0000 C   0  0  0  0  0  0  0  0  0  0  0  0
   -0.4267   -4.3166    0.0000 H   0  0  0  0  0  0  0  0  0  0  0  0
   -1.7267   -2.0666    0.0000 C   0  0  0  0  0  0  0  0  0  0  0  0
   -3.0256   -2.8168    0.0000 H   0  0  0  0  0  0  0  0  0  0  0  0
   -1.7267   -0.5666    0.0000 C   0  0  0  0  0  0  0  0  0  0  0  0
   -3.0256    0.1837    0.0000 H   0  0  0  0  0  0  0  0  0  0  0  0
   -0.4267    0.1834    0.0000 C   0  0  0  0  0  0  0  0  0  0  0  0
   -0.4267    1.6834    0.0000 H   0  0  0  0  0  0  0  0  0  0  0  0
    2.3033   -2.5266    0.0000 O   0  0  0  0  0  0  0  0  0  0  0  0
    1.1124    2.5814    0.0000 C   0  0  0  0  0  0  0  0  0  0  0  0
   -0.3791    2.7409    0.0000 O   0  0  0  0  0  0  0  0  0  0  0  0
    2.2791    4.1812    0.0000 C   0  0  0  0  0  0  0  0  0  0  0  0
    0.9314    4.8417    0.0000 C   0  0  0  0  0  0  0  0  0  0  0  0
   -0.3135    4.0048    0.0000 H   0  0  0  0  0  0  0  0  0  0  0  0
    0.8286    6.3390    0.0000 C   0  0  0  0  0  0  0  0  0  0  0  0
    2.0734    7.1758    0.0000 C   0  0  0  0  0  0  0  0  0  0  0  0
    1.9714    8.6723    0.0000 O   0  0  0  0  0  0  0  0  0  0  0  0
    3.4211    6.5153    0.0000 C   0  0  0  0  0  0  0  0  0  0  0  0
    3.5239    5.0180    0.0000 C   0  0  0  0  0  0  0  0  0  0  0  0
    4.8712    4.3585    0.0000 H   0  0  0  0  0  0  0  0  0  0  0  0
    4.6660    7.3521    0.0000 Br  0  0  0  0  0  0  0  0  0  0  0  0
   -0.5187    6.9984    0.0000 Br  0  0  0  0  0  0  0  0  0  0  0  0
    3.3192    3.1004    0.0000 O   0  0  0  0  0  0  0  0  0  0  0  0
    4.7753    3.4608    0.0000 H   0  0  0  0  0  0  0  0  0  0  0  0
  1  2  1  0  0  0  0 
  1  3  1  0  0  0  0 
  1  4  1  0  0  0  0 
  1  5  1  0  0  0  0 
  5  6  1  0  0  0  0 
  5  7  1  0  0  0  0 
  5  8  1  0  0  0  0 
  8  9  1  0  0  0  0 
  8 10  1  0  0  0  0 
 10 11  1  0  0  0  0 
 10 12  1  0  0  0  0 
 12 13  2  0  0  0  0 
 13 14  1  0  0  0  0 
 14 15  1  0  0  0  0 
 14 16  2  0  0  0  0 
 16 17  1  0  0  0  0 
 16 18  1  0  0  0  0 
 18 19  1  0  0  0  0 
 18 20  2  0  0  0  0 
 12 20  1  0  0  0  0 
 20 21  1  0  0  0  0 
 13 22  1  0  0  0  0 
  8 22  1  0  0  0  0 
 10 23  1  0  0  0  0 
 23 24  2  0  0  0  0 
 23 25  1  0  0  0  0 
 25 26  1  0  0  0  0 
 26 27  1  0  0  0  0 
 26 28  2  0  0  0  0 
 28 29  1  0  0  0  0 
 29 30  2  0  0  0  0 
 29 31  1  0  0  0  0 
 31 32  2  0  0  0  0 
 25 32  1  0  0  0  0 
 32 33  1  0  0  0  0 
 31 34  1  0  0  0  0 
 28 35  1  0  0  0  0 
 25 36  1  0  0  0  0 
 36 37  1  0  0  0  0 
M  END
> <Rank>
16

> <Priority_score>
0.05600000000000001

> <Reaction_type>
oxidation of 4-substituted phenol to quinone (substituent not a leaving group)

> <Parent_ID>
16

> <Parent_InChI>
InChI=1S/C17H14Br2O3/c1-2-13-15(10-5-3-4-6-14(10)22-13)16(20)9-7-11(18)17(21)12(19)8-9/h3-8,13,15,21H,2H2,1H3

> <Parent_SMILES>
CCC1Oc2ccccc2C1C(=O)c1cc(Br)c(O)c(Br)c1

$$$$
Molecule 16_metabolite 17
  CDK     0516241031

 37 39  0  0  0  0  0  0  0  0999 V2000
    5.1412   -1.0206    0.0000 C   0  0  0  0  0  0  0  0  0  0  0  0
    6.2558   -2.0244    0.0000 H   0  0  0  0  0  0  0  0  0  0  0  0
    6.3234   -0.0973    0.0000 H   0  0  0  0  0  0  0  0  0  0  0  0
    4.4372    0.3040    0.0000 H   0  0  0  0  0  0  0  0  0  0  0  0
    3.7146   -1.4839    0.0000 C   0  0  0  0  0  0  0  0  0  0  0  0
    2.5324   -2.4072    0.0000 H   0  0  0  0  0  0  0  0  0  0  0  0
    4.4186   -2.8084    0.0000 H   0  0  0  0  0  0  0  0  0  0  0  0
    2.6000   -0.4800    0.0000 C   0  0  0  0  0  0  0  0  0  0  0  0
    3.7146    0.5239    0.0000 H   0  0  0  0  0  0  0  0  0  0  0  0
    1.7200    0.7300    0.0000 C   0  0  0  0  0  0  0  0  0  0  0  0
    3.0195    1.4791    0.0000 H   0  0  0  0  0  0  0  0  0  0  0  0
    0.2900    0.2700    0.0000 C   0  0  0  0  0  0  0  0  0  0  0  0
    0.2900   -1.2300    0.0000 C   0  0  0  0  0  0  0  0  0  0  0  0
   -1.0100   -1.9800    0.0000 C   0  0  0  0  0  0  0  0  0  0  0  0
   -1.0100   -3.4800    0.0000 H   0  0  0  0  0  0  0  0  0  0  0  0
   -2.3100   -1.2300    0.0000 C   0  0  0  0  0  0  0  0  0  0  0  0
   -3.6089   -1.9802    0.0000 H   0  0  0  0  0  0  0  0  0  0  0  0
   -2.3100    0.2700    0.0000 C   0  0  0  0  0  0  0  0  0  0  0  0
   -3.6089    1.0202    0.0000 H   0  0  0  0  0  0  0  0  0  0  0  0
   -1.0100    1.0200    0.0000 C   0  0  0  0  0  0  0  0  0  0  0  0
   -1.0100    3.0000    0.0000 H   0  0  0  0  0  0  0  0  0  0  0  0
    1.7200   -1.6900    0.0000 O   0  0  0  0  0  0  0  0  0  0  0  0
    1.1124    2.1014    0.0000 C   0  0  0  0  0  0  0  0  0  0  0  0
   -0.3791    2.2609    0.0000 O   0  0  0  0  0  0  0  0  0  0  0  0
    1.9962    3.3134    0.0000 C   0  0  0  0  0  0  0  0  0  0  0  0
    1.3885    4.6856    0.0000 C   0  0  0  0  0  0  0  0  0  0  0  0
   -0.1031    4.8449    0.0000 H   0  0  0  0  0  0  0  0  0  0  0  0
    2.2722    5.8987    0.0000 C   0  0  0  0  0  0  0  0  0  0  0  0
    3.7637    5.7394    0.0000 C   0  0  0  0  0  0  0  0  0  0  0  0
    4.3715    4.3672    0.0000 C   0  0  0  0  0  0  0  0  0  0  0  0
    3.4877    3.1541    0.0000 C   0  0  0  0  0  0  0  0  0  0  0  0
    4.0958    1.7829    0.0000 H   0  0  0  0  0  0  0  0  0  0  0  0
    5.8630    4.2079    0.0000 Br  0  0  0  0  0  0  0  0  0  0  0  0
    4.6476    6.9514    0.0000 O   0  0  0  0  0  0  0  0  0  0  0  0
    4.0400    8.3228    0.0000 H   0  0  0  0  0  0  0  0  0  0  0  0
    1.6641    7.2699    0.0000 O   0  0  0  0  0  0  0  0  0  0  0  0
    2.5476    8.4821    0.0000 H   0  0  0  0  0  0  0  0  0  0  0  0
  1  2  1  0  0  0  0 
  1  3  1  0  0  0  0 
  1  4  1  0  0  0  0 
  1  5  1  0  0  0  0 
  5  6  1  0  0  0  0 
  5  7  1  0  0  0  0 
  5  8  1  0  0  0  0 
  8  9  1  0  0  0  0 
  8 10  1  0  0  0  0 
 10 11  1  0  0  0  0 
 10 12  1  0  0  0  0 
 12 13  2  0  0  0  0 
 13 14  1  0  0  0  0 
 14 15  1  0  0  0  0 
 14 16  2  0  0  0  0 
 16 17  1  0  0  0  0 
 16 18  1  0  0  0  0 
 18 19  1  0  0  0  0 
 18 20  2  0  0  0  0 
 12 20  1  0  0  0  0 
 20 21  1  0  0  0  0 
 13 22  1  0  0  0  0 
  8 22  1  0  0  0  0 
 10 23  1  0  0  0  0 
 23 24  2  0  0  0  0 
 23 25  1  0  0  0  0 
 25 26  2  0  0  0  0 
 26 27  1  0  0  0  0 
 26 28  1  0  0  0  0 
 28 29  2  0  0  0  0 
 29 30  1  0  0  0  0 
 30 31  2  0  0  0  0 
 25 31  1  0  0  0  0 
 31 32  1  0  0  0  0 
 30 33  1  0  0  0  0 
 29 34  1  0  0  0  0 
 34 35  1  0  0  0  0 
 28 36  1  0  0  0  0 
 36 37  1  0  0  0  0 
M  END
> <Rank>
17

> <Priority_score>
0.054400000000000004

> <Reaction_type>
oxidative dehalogenation benzyl

> <Parent_ID>
16

> <Parent_InChI>
InChI=1S/C17H14Br2O3/c1-2-13-15(10-5-3-4-6-14(10)22-13)16(20)9-7-11(18)17(21)12(19)8-9/h3-8,13,15,21H,2H2,1H3

> <Parent_SMILES>
CCC1Oc2ccccc2C1C(=O)c1cc(Br)c(O)c(Br)c1

$$$$
Molecule 16_metabolite 18
  CDK     0516241031

 37 38  0  0  0  0  0  0  0  0999 V2000
    0.0289   -2.1239    0.0000 C   0  0  0  0  0  0  0  0  0  0  0  0
    1.3281   -2.8737    0.0000 H   0  0  0  0  0  0  0  0  0  0  0  0
   -1.4484   -1.8637    0.0000 H   0  0  0  0  0  0  0  0  0  0  0  0
   -0.4839   -3.5335    0.0000 H   0  0  0  0  0  0  0  0  0  0  0  0
    0.0287   -0.6239    0.0000 C   0  0  0  0  0  0  0  0  0  0  0  0
   -1.4485   -0.8846    0.0000 H   0  0  0  0  0  0  0  0  0  0  0  0
   -0.4846    0.7855    0.0000 H   0  0  0  0  0  0  0  0  0  0  0  0
    1.3276    0.1263    0.0000 C   0  0  0  0  0  0  0  0  0  0  0  0
    2.8047    0.3870    0.0000 H   0  0  0  0  0  0  0  0  0  0  0  0
    1.8408   -1.2832    0.0000 H   0  0  0  0  0  0  0  0  0  0  0  0
    1.3273    1.6263    0.0000 C   0  0  0  0  0  0  0  0  0  0  0  0
    2.8046    1.3661    0.0000 H   0  0  0  0  0  0  0  0  0  0  0  0
   -0.8033    2.8560    0.0000 C   0  0  0  0  0  0  0  0  0  0  0  0
   -2.1023    2.1060    0.0000 C   0  0  0  0  0  0  0  0  0  0  0  0
   -2.1026    0.6060    0.0000 H   0  0  0  0  0  0  0  0  0  0  0  0
   -3.4018    2.8568    0.0000 C   0  0  0  0  0  0  0  0  0  0  0  0
   -4.7009    2.1068    0.0000 O   0  0  0  0  0  0  0  0  0  0  0  0
   -3.4023    4.3576    0.0000 C   0  0  0  0  0  0  0  0  0  0  0  0
   -4.7015    5.1074    0.0000 H   0  0  0  0  0  0  0  0  0  0  0  0
   -2.1033    5.1076    0.0000 C   0  0  0  0  0  0  0  0  0  0  0  0
   -2.1030    6.6076    0.0000 H   0  0  0  0  0  0  0  0  0  0  0  0
   -0.8038    4.3568    0.0000 C   0  0  0  0  0  0  0  0  0  0  0  0
    0.4953    5.1068    0.0000 O   0  0  0  0  0  0  0  0  0  0  0  0
    1.8401    3.0359    0.0000 C   0  0  0  0  0  0  0  0  0  0  0  0
    0.8758    4.1848    0.0000 O   0  0  0  0  0  0  0  0  0  0  0  0
    3.3173    3.2966    0.0000 C   0  0  0  0  0  0  0  0  0  0  0  0
    4.2818    2.1468    0.0000 C   0  0  0  0  0  0  0  0  0  0  0  0
    3.7688    0.7372    0.0000 H   0  0  0  0  0  0  0  0  0  0  0  0
    5.7590    2.4075    0.0000 C   0  0  0  0  0  0  0  0  0  0  0  0
    6.2717    3.8180    0.0000 C   0  0  0  0  0  0  0  0  0  0  0  0
    5.3071    4.9679    0.0000 C   0  0  0  0  0  0  0  0  0  0  0  0
    3.8299    4.7072    0.0000 C   0  0  0  0  0  0  0  0  0  0  0  0
    2.8654    5.8559    0.0000 H   0  0  0  0  0  0  0  0  0  0  0  0
    5.8201    6.3774    0.0000 Br  0  0  0  0  0  0  0  0  0  0  0  0
    7.7488    4.0788    0.0000 O   0  0  0  0  0  0  0  0  0  0  0  0
    8.2616    5.4884    0.0000 H   0  0  0  0  0  0  0  0  0  0  0  0
    6.7236    1.2587    0.0000 Br  0  0  0  0  0  0  0  0  0  0  0  0
  1  2  1  0  0  0  0 
  1  3  1  0  0  0  0 
  1  4  1  0  0  0  0 
  1  5  1  0  0  0  0 
  5  6  1  0  0  0  0 
  5  7  1  0  0  0  0 
  5  8  1  0  0  0  0 
  8  9  1  0  0  0  0 
  8 10  1  0  0  0  0 
  8 11  1  0  0  0  0 
 11 12  1  0  0  0  0 
 11 13  1  0  0  0  0 
 13 14  2  0  0  0  0 
 14 15  1  0  0  0  0 
 14 16  1  0  0  0  0 
 16 17  2  0  0  0  0 
 16 18  1  0  0  0  0 
 18 19  1  0  0  0  0 
 18 20  2  0  0  0  0 
 20 21  1  0  0  0  0 
 20 22  1  0  0  0  0 
 13 22  1  0  0  0  0 
 22 23  2  0  0  0  0 
 11 24  1  0  0  0  0 
 24 25  2  0  0  0  0 
 24 26  1  0  0  0  0 
 26 27  2  0  0  0  0 
 27 28  1  0  0  0  0 
 27 29  1  0  0  0  0 
 29 30  2  0  0  0  0 
 30 31  1  0  0  0  0 
 31 32  2  0  0  0  0 
 26 32  1  0  0  0  0 
 32 33  1  0  0  0  0 
 31 34  1  0  0  0  0 
 30 35  1  0  0  0  0 
 35 36  1  0  0  0  0 
 29 37  1  0  0  0  0 
M  END
> <Rank>
18

> <Priority_score>
0.0472

> <Reaction_type>
oxidation of 4-substituted anisole to quinone

> <Parent_ID>
16

> <Parent_InChI>
InChI=1S/C17H14Br2O3/c1-2-13-15(10-5-3-4-6-14(10)22-13)16(20)9-7-11(18)17(21)12(19)8-9/h3-8,13,15,21H,2H2,1H3

> <Parent_SMILES>
CCC1Oc2ccccc2C1C(=O)c1cc(Br)c(O)c(Br)c1

$$$$
Molecule 16_metabolite 19
  CDK     0516241031

 34 36  0  0  0  0  0  0  0  0999 V2000
    5.1412   -1.0206    0.0000 C   0  0  0  0  0  0  0  0  0  0  0  0
    6.2558   -2.0244    0.0000 H   0  0  0  0  0  0  0  0  0  0  0  0
    5.4533    0.4466    0.0000 H   0  0  0  0  0  0  0  0  0  0  0  0
    3.7146   -1.4839    0.0000 C   0  0  0  0  0  0  0  0  0  0  0  0
    3.4025   -2.9510    0.0000 H   0  0  0  0  0  0  0  0  0  0  0  0
    2.6000   -0.4800    0.0000 C   0  0  0  0  0  0  0  0  0  0  0  0
    3.7146    0.5239    0.0000 H   0  0  0  0  0  0  0  0  0  0  0  0
    1.7200    0.7300    0.0000 C   0  0  0  0  0  0  0  0  0  0  0  0
    3.0195    1.4791    0.0000 H   0  0  0  0  0  0  0  0  0  0  0  0
    0.2900    0.2700    0.0000 C   0  0  0  0  0  0  0  0  0  0  0  0
    0.2900   -1.2300    0.0000 C   0  0  0  0  0  0  0  0  0  0  0  0
   -1.0100   -1.9800    0.0000 C   0  0  0  0  0  0  0  0  0  0  0  0
   -1.0100   -3.4800    0.0000 H   0  0  0  0  0  0  0  0  0  0  0  0
   -2.3100   -1.2300    0.0000 C   0  0  0  0  0  0  0  0  0  0  0  0
   -3.6089   -1.9802    0.0000 H   0  0  0  0  0  0  0  0  0  0  0  0
   -2.3100    0.2700    0.0000 C   0  0  0  0  0  0  0  0  0  0  0  0
   -3.6089    1.0202    0.0000 H   0  0  0  0  0  0  0  0  0  0  0  0
   -1.0100    1.0200    0.0000 C   0  0  0  0  0  0  0  0  0  0  0  0
   -1.0100    3.0000    0.0000 H   0  0  0  0  0  0  0  0  0  0  0  0
    1.7200   -1.6900    0.0000 O   0  0  0  0  0  0  0  0  0  0  0  0
    1.1124    2.1014    0.0000 C   0  0  0  0  0  0  0  0  0  0  0  0
   -0.3791    2.2609    0.0000 O   0  0  0  0  0  0  0  0  0  0  0  0
    1.9962    3.3134    0.0000 C   0  0  0  0  0  0  0  0  0  0  0  0
    3.4885    3.1533    0.0000 C   0  0  0  0  0  0  0  0  0  0  0  0
    4.0959    1.7818    0.0000 H   0  0  0  0  0  0  0  0  0  0  0  0
    4.3723    4.3653    0.0000 C   0  0  0  0  0  0  0  0  0  0  0  0
    3.7639    5.7372    0.0000 C   0  0  0  0  0  0  0  0  0  0  0  0
    2.2717    5.8973    0.0000 C   0  0  0  0  0  0  0  0  0  0  0  0
    1.3878    4.6853    0.0000 C   0  0  0  0  0  0  0  0  0  0  0  0
   -0.1037    4.8446    0.0000 H   0  0  0  0  0  0  0  0  0  0  0  0
    1.6642    7.2688    0.0000 Br  0  0  0  0  0  0  0  0  0  0  0  0
    4.6478    6.9492    0.0000 O   0  0  0  0  0  0  0  0  0  0  0  0
    4.0401    8.3206    0.0000 H   0  0  0  0  0  0  0  0  0  0  0  0
    5.8639    4.2060    0.0000 Br  0  0  0  0  0  0  0  0  0  0  0  0
  1  2  1  0  0  0  0 
  1  3  1  0  0  0  0 
  1  4  2  0  0  0  0 
  4  5  1  0  0  0  0 
  4  6  1  0  0  0  0 
  6  7  1  0  0  0  0 
  6  8  1  0  0  0  0 
  8  9  1  0  0  0  0 
  8 10  1  0  0  0  0 
 10 11  2  0  0  0  0 
 11 12  1  0  0  0  0 
 12 13  1  0  0  0  0 
 12 14  2  0  0  0  0 
 14 15  1  0  0  0  0 
 14 16  1  0  0  0  0 
 16 17  1  0  0  0  0 
 16 18  2  0  0  0  0 
 10 18  1  0  0  0  0 
 18 19  1  0  0  0  0 
 11 20  1  0  0  0  0 
  6 20  1  0  0  0  0 
  8 21  1  0  0  0  0 
 21 22  2  0  0  0  0 
 21 23  1  0  0  0  0 
 23 24  2  0  0  0  0 
 24 25  1  0  0  0  0 
 24 26  1  0  0  0  0 
 26 27  2  0  0  0  0 
 27 28  1  0  0  0  0 
 28 29  2  0  0  0  0 
 23 29  1  0  0  0  0 
 29 30  1  0  0  0  0 
 28 31  1  0  0  0  0 
 27 32  1  0  0  0  0 
 32 33  1  0  0  0  0 
 26 34  1  0  0  0  0 
M  END
> <Rank>
19

> <Priority_score>
0.0408

> <Reaction_type>
alkyl dehydrogenation

> <Parent_ID>
16

> <Parent_InChI>
InChI=1S/C17H14Br2O3/c1-2-13-15(10-5-3-4-6-14(10)22-13)16(20)9-7-11(18)17(21)12(19)8-9/h3-8,13,15,21H,2H2,1H3

> <Parent_SMILES>
CCC1Oc2ccccc2C1C(=O)c1cc(Br)c(O)c(Br)c1

$$$$
Molecule 16_metabolite 20
  CDK     0516241031

 34 36  0  0  0  0  0  0  0  0999 V2000
    4.4033   -2.6680    0.0000 C   0  0  0  0  0  0  0  0  0  0  0  0
    5.9033   -2.6680    0.0000 H   0  0  0  0  0  0  0  0  0  0  0  0
    2.9938   -3.1810    0.0000 H   0  0  0  0  0  0  0  0  0  0  0  0
    4.6638   -4.1452    0.0000 H   0  0  0  0  0  0  0  0  0  0  0  0
    3.6533   -1.3690    0.0000 C   0  0  0  0  0  0  0  0  0  0  0  0
    5.0629   -0.8559    0.0000 H   0  0  0  0  0  0  0  0  0  0  0  0
    3.3929    0.1082    0.0000 H   0  0  0  0  0  0  0  0  0  0  0  0
    2.1533   -1.3690    0.0000 C   0  0  0  0  0  0  0  0  0  0  0  0
    1.2733   -0.1590    0.0000 C   0  0  0  0  0  0  0  0  0  0  0  0
   -0.1567   -0.6190    0.0000 C   0  0  0  0  0  0  0  0  0  0  0  0
   -0.1567   -2.1190    0.0000 C   0  0  0  0  0  0  0  0  0  0  0  0
   -1.4567   -2.8690    0.0000 C   0  0  0  0  0  0  0  0  0  0  0  0
   -1.4567   -4.3690    0.0000 H   0  0  0  0  0  0  0  0  0  0  0  0
   -2.7567   -2.1190    0.0000 C   0  0  0  0  0  0  0  0  0  0  0  0
   -4.0556   -2.8692    0.0000 H   0  0  0  0  0  0  0  0  0  0  0  0
   -2.7567   -0.6190    0.0000 C   0  0  0  0  0  0  0  0  0  0  0  0
   -4.0556    0.1312    0.0000 H   0  0  0  0  0  0  0  0  0  0  0  0
   -1.4567    0.1310    0.0000 C   0  0  0  0  0  0  0  0  0  0  0  0
   -1.4567    1.6310    0.0000 H   0  0  0  0  0  0  0  0  0  0  0  0
    1.2733   -2.5790    0.0000 O   0  0  0  0  0  0  0  0  0  0  0  0
    2.1853    2.6360    0.0000 C   0  0  0  0  0  0  0  0  0  0  0  0
    3.6529    2.9461    0.0000 O   0  0  0  0  0  0  0  0  0  0  0  0
    1.1830    3.7520    0.0000 C   0  0  0  0  0  0  0  0  0  0  0  0
   -0.2854    3.4413    0.0000 C   0  0  0  0  0  0  0  0  0  0  0  0
   -0.7504    2.0152    0.0000 H   0  0  0  0  0  0  0  0  0  0  0  0
   -1.2877    4.5572    0.0000 C   0  0  0  0  0  0  0  0  0  0  0  0
   -0.8217    5.9839    0.0000 C   0  0  0  0  0  0  0  0  0  0  0  0
    0.6466    6.2946    0.0000 C   0  0  0  0  0  0  0  0  0  0  0  0
    1.6489    5.1786    0.0000 C   0  0  0  0  0  0  0  0  0  0  0  0
    3.1166    5.4885    0.0000 H   0  0  0  0  0  0  0  0  0  0  0  0
    1.1117    7.7207    0.0000 Br  0  0  0  0  0  0  0  0  0  0  0  0
   -1.8240    7.0998    0.0000 O   0  0  0  0  0  0  0  0  0  0  0  0
   -1.3587    8.5258    0.0000 H   0  0  0  0  0  0  0  0  0  0  0  0
   -2.7553    4.2474    0.0000 Br  0  0  0  0  0  0  0  0  0  0  0  0
  1  2  1  0  0  0  0 
  1  3  1  0  0  0  0 
  1  4  1  0  0  0  0 
  1  5  1  0  0  0  0 
  5  6  1  0  0  0  0 
  5  7  1  0  0  0  0 
  5  8  1  0  0  0  0 
  8  9  2  0  0  0  0 
  9 10  1  0  0  0  0 
 10 11  2  0  0  0  0 
 11 12  1  0  0  0  0 
 12 13  1  0  0  0  0 
 12 14  2  0  0  0  0 
 14 15  1  0  0  0  0 
 14 16  1  0  0  0  0 
 16 17  1  0  0  0  0 
 16 18  2  0  0  0  0 
 10 18  1  0  0  0  0 
 18 19  1  0  0  0  0 
 11 20  1  0  0  0  0 
  8 20  1  0  0  0  0 
  9 21  1  0  0  0  0 
 21 22  2  0  0  0  0 
 21 23  1  0  0  0  0 
 23 24  2  0  0  0  0 
 24 25  1  0  0  0  0 
 24 26  1  0  0  0  0 
 26 27  2  0  0  0  0 
 27 28  1  0  0  0  0 
 28 29  2  0  0  0  0 
 23 29  1  0  0  0  0 
 29 30  1  0  0  0  0 
 28 31  1  0  0  0  0 
 27 32  1  0  0  0  0 
 32 33  1  0  0  0  0 
 26 34  1  0  0  0  0 
M  END
> <Rank>
20

> <Priority_score>
0.0208

> <Reaction_type>
alkyl dehydrogenation

> <Parent_ID>
16

> <Parent_InChI>
InChI=1S/C17H14Br2O3/c1-2-13-15(10-5-3-4-6-14(10)22-13)16(20)9-7-11(18)17(21)12(19)8-9/h3-8,13,15,21H,2H2,1H3

> <Parent_SMILES>
CCC1Oc2ccccc2C1C(=O)c1cc(Br)c(O)c(Br)c1

$$$$
Molecule 16_metabolite 21
  CDK     0516241031

 15 15  0  0  0  0  0  0  0  0999 V2000
    1.3000   -0.4500    0.0000 C   0  0  0  0  0  0  0  0  0  0  0  0
    2.5989   -1.2002    0.0000 H   0  0  0  0  0  0  0  0  0  0  0  0
    1.3000    1.0500    0.0000 C   0  0  0  0  0  0  0  0  0  0  0  0
    0.0000    1.8000    0.0000 C   0  0  0  0  0  0  0  0  0  0  0  0
   -1.3000    1.0500    0.0000 C   0  0  0  0  0  0  0  0  0  0  0  0
   -1.3000   -0.4500    0.0000 C   0  0  0  0  0  0  0  0  0  0  0  0
   -2.5989   -1.2002    0.0000 H   0  0  0  0  0  0  0  0  0  0  0  0
   -0.0000   -1.2000    0.0000 C   0  0  0  0  0  0  0  0  0  0  0  0
   -0.0000   -2.7000    0.0000 C   0  0  0  0  0  0  0  0  0  0  0  0
    1.2990   -3.4500    0.0000 H   0  0  0  0  0  0  0  0  0  0  0  0
   -1.2990   -3.4500    0.0000 O   0  0  0  0  0  0  0  0  0  0  0  0
   -2.5989    1.8002    0.0000 Br  0  0  0  0  0  0  0  0  0  0  0  0
    0.0000    3.3000    0.0000 O   0  0  0  0  0  0  0  0  0  0  0  0
   -1.2990    4.0500    0.0000 H   0  0  0  0  0  0  0  0  0  0  0  0
    2.5989    1.8002    0.0000 Br  0  0  0  0  0  0  0  0  0  0  0  0
  1  2  1  0  0  0  0 
  1  3  2  0  0  0  0 
  3  4  1  0  0  0  0 
  4  5  2  0  0  0  0 
  5  6  1  0  0  0  0 
  6  7  1  0  0  0  0 
  6  8  2  0  0  0  0 
  1  8  1  0  0  0  0 
  8  9  1  0  0  0  0 
  9 10  1  0  0  0  0 
  9 11  2  0  0  0  0 
  5 12  1  0  0  0  0 
  4 13  1  0  0  0  0 
 13 14  1  0  0  0  0 
  3 15  1  0  0  0  0 
M  END
> <Rank>
20

> <Priority_score>
0.0208

> <Reaction_type>
deformylation

> <Parent_ID>
16

> <Parent_InChI>
InChI=1S/C17H14Br2O3/c1-2-13-15(10-5-3-4-6-14(10)22-13)16(20)9-7-11(18)17(21)12(19)8-9/h3-8,13,15,21H,2H2,1H3

> <Parent_SMILES>
CCC1Oc2ccccc2C1C(=O)c1cc(Br)c(O)c(Br)c1

$$$$
Molecule 16_metabolite 22
  CDK     0516241031

 21 22  0  0  0  0  0  0  0  0999 V2000
    4.8500   -1.2990    0.0000 C   0  0  0  0  0  0  0  0  0  0  0  0
    6.3500   -1.2990    0.0000 H   0  0  0  0  0  0  0  0  0  0  0  0
    3.4405   -1.8121    0.0000 H   0  0  0  0  0  0  0  0  0  0  0  0
    5.1105   -2.7762    0.0000 H   0  0  0  0  0  0  0  0  0  0  0  0
    4.1000   -0.0000    0.0000 C   0  0  0  0  0  0  0  0  0  0  0  0
    5.5095    0.5130    0.0000 H   0  0  0  0  0  0  0  0  0  0  0  0
    3.8395    1.4772    0.0000 H   0  0  0  0  0  0  0  0  0  0  0  0
    2.6000    0.0000    0.0000 C   0  0  0  0  0  0  0  0  0  0  0  0
    1.7200    1.2100    0.0000 C   0  0  0  0  0  0  0  0  0  0  0  0
    2.1853    2.6360    0.0000 H   0  0  0  0  0  0  0  0  0  0  0  0
    0.2900    0.7500    0.0000 C   0  0  0  0  0  0  0  0  0  0  0  0
    0.2900   -0.7500    0.0000 C   0  0  0  0  0  0  0  0  0  0  0  0
   -1.0100   -1.5000    0.0000 C   0  0  0  0  0  0  0  0  0  0  0  0
   -1.0100   -3.0000    0.0000 H   0  0  0  0  0  0  0  0  0  0  0  0
   -2.3100   -0.7500    0.0000 C   0  0  0  0  0  0  0  0  0  0  0  0
   -3.6089   -1.5002    0.0000 H   0  0  0  0  0  0  0  0  0  0  0  0
   -2.3100    0.7500    0.0000 C   0  0  0  0  0  0  0  0  0  0  0  0
   -3.6089    1.5002    0.0000 H   0  0  0  0  0  0  0  0  0  0  0  0
   -1.0100    1.5000    0.0000 C   0  0  0  0  0  0  0  0  0  0  0  0
   -1.0100    3.0000    0.0000 H   0  0  0  0  0  0  0  0  0  0  0  0
    1.7200   -1.2100    0.0000 O   0  0  0  0  0  0  0  0  0  0  0  0
  1  2  1  0  0  0  0 
  1  3  1  0  0  0  0 
  1  4  1  0  0  0  0 
  1  5  1  0  0  0  0 
  5  6  1  0  0  0  0 
  5  7  1  0  0  0  0 
  5  8  1  0  0  0  0 
  8  9  2  0  0  0  0 
  9 10  1  0  0  0  0 
  9 11  1  0  0  0  0 
 11 12  2  0  0  0  0 
 12 13  1  0  0  0  0 
 13 14  1  0  0  0  0 
 13 15  2  0  0  0  0 
 15 16  1  0  0  0  0 
 15 17  1  0  0  0  0 
 17 18  1  0  0  0  0 
 17 19  2  0  0  0  0 
 11 19  1  0  0  0  0 
 19 20  1  0  0  0  0 
 12 21  1  0  0  0  0 
  8 21  1  0  0  0  0 
M  END
> <Rank>
20

> <Priority_score>
0.0208

> <Reaction_type>
deformylation

> <Parent_ID>
16

> <Parent_InChI>
InChI=1S/C17H14Br2O3/c1-2-13-15(10-5-3-4-6-14(10)22-13)16(20)9-7-11(18)17(21)12(19)8-9/h3-8,13,15,21H,2H2,1H3

> <Parent_SMILES>
CCC1Oc2ccccc2C1C(=O)c1cc(Br)c(O)c(Br)c1

$$$$
Molecule 16_metabolite 23
  CDK     0516241031

 34 36  0  0  0  0  0  0  0  0999 V2000
    4.8500   -1.7790    0.0000 C   0  0  0  0  0  0  0  0  0  0  0  0
    6.3500   -1.7790    0.0000 H   0  0  0  0  0  0  0  0  0  0  0  0
    3.4405   -2.2921    0.0000 H   0  0  0  0  0  0  0  0  0  0  0  0
    5.1105   -3.2562    0.0000 H   0  0  0  0  0  0  0  0  0  0  0  0
    4.1000   -0.4800    0.0000 C   0  0  0  0  0  0  0  0  0  0  0  0
    4.8500    0.8190    0.0000 H   0  0  0  0  0  0  0  0  0  0  0  0
    2.6000   -0.4800    0.0000 C   0  0  0  0  0  0  0  0  0  0  0  0
    1.7200    0.7300    0.0000 C   0  0  0  0  0  0  0  0  0  0  0  0
    3.0195    1.4791    0.0000 H   0  0  0  0  0  0  0  0  0  0  0  0
    0.2900    0.2700    0.0000 C   0  0  0  0  0  0  0  0  0  0  0  0
    0.2900   -1.2300    0.0000 C   0  0  0  0  0  0  0  0  0  0  0  0
   -1.0100   -1.9800    0.0000 C   0  0  0  0  0  0  0  0  0  0  0  0
   -1.0100   -3.4800    0.0000 H   0  0  0  0  0  0  0  0  0  0  0  0
   -2.3100   -1.2300    0.0000 C   0  0  0  0  0  0  0  0  0  0  0  0
   -3.6089   -1.9802    0.0000 H   0  0  0  0  0  0  0  0  0  0  0  0
   -2.3100    0.2700    0.0000 C   0  0  0  0  0  0  0  0  0  0  0  0
   -3.6089    1.0202    0.0000 H   0  0  0  0  0  0  0  0  0  0  0  0
   -1.0100    1.0200    0.0000 C   0  0  0  0  0  0  0  0  0  0  0  0
   -1.0100    3.0000    0.0000 H   0  0  0  0  0  0  0  0  0  0  0  0
    1.7200   -1.6900    0.0000 O   0  0  0  0  0  0  0  0  0  0  0  0
    1.1124    2.1014    0.0000 C   0  0  0  0  0  0  0  0  0  0  0  0
   -0.3791    2.2609    0.0000 O   0  0  0  0  0  0  0  0  0  0  0  0
    1.9962    3.3134    0.0000 C   0  0  0  0  0  0  0  0  0  0  0  0
    3.4885    3.1533    0.0000 C   0  0  0  0  0  0  0  0  0  0  0  0
    4.0959    1.7818    0.0000 H   0  0  0  0  0  0  0  0  0  0  0  0
    4.3723    4.3653    0.0000 C   0  0  0  0  0  0  0  0  0  0  0  0
    3.7639    5.7372    0.0000 C   0  0  0  0  0  0  0  0  0  0  0  0
    2.2717    5.8973    0.0000 C   0  0  0  0  0  0  0  0  0  0  0  0
    1.3878    4.6853    0.0000 C   0  0  0  0  0  0  0  0  0  0  0  0
   -0.1037    4.8446    0.0000 H   0  0  0  0  0  0  0  0  0  0  0  0
    1.6642    7.2688    0.0000 Br  0  0  0  0  0  0  0  0  0  0  0  0
    4.6478    6.9492    0.0000 O   0  0  0  0  0  0  0  0  0  0  0  0
    4.0401    8.3206    0.0000 H   0  0  0  0  0  0  0  0  0  0  0  0
    5.8639    4.2060    0.0000 Br  0  0  0  0  0  0  0  0  0  0  0  0
  1  2  1  0  0  0  0 
  1  3  1  0  0  0  0 
  1  4  1  0  0  0  0 
  1  5  1  0  0  0  0 
  5  6  1  4  0  0  0 
  5  7  2  0  0  0  0 
  7  8  1  0  0  0  0 
  8  9  1  0  0  0  0 
  8 10  1  0  0  0  0 
 10 11  2  0  0  0  0 
 11 12  1  0  0  0  0 
 12 13  1  0  0  0  0 
 12 14  2  0  0  0  0 
 14 15  1  0  0  0  0 
 14 16  1  0  0  0  0 
 16 17  1  0  0  0  0 
 16 18  2  0  0  0  0 
 10 18  1  0  0  0  0 
 18 19  1  0  0  0  0 
 11 20  1  0  0  0  0 
  7 20  1  0  0  0  0 
  8 21  1  0  0  0  0 
 21 22  2  0  0  0  0 
 21 23  1  0  0  0  0 
 23 24  2  0  0  0  0 
 24 25  1  0  0  0  0 
 24 26  1  0  0  0  0 
 26 27  2  0  0  0  0 
 27 28  1  0  0  0  0 
 28 29  2  0  0  0  0 
 23 29  1  0  0  0  0 
 29 30  1  0  0  0  0 
 28 31  1  0  0  0  0 
 27 32  1  0  0  0  0 
 32 33  1  0  0  0  0 
 26 34  1  0  0  0  0 
M  END
> <Rank>
20

> <Priority_score>
0.0208

> <Reaction_type>
alkyl dehydrogenation

> <Parent_ID>
16

> <Parent_InChI>
InChI=1S/C17H14Br2O3/c1-2-13-15(10-5-3-4-6-14(10)22-13)16(20)9-7-11(18)17(21)12(19)8-9/h3-8,13,15,21H,2H2,1H3

> <Parent_SMILES>
CCC1Oc2ccccc2C1C(=O)c1cc(Br)c(O)c(Br)c1

$$$$
Molecule 16_metabolite 24
  CDK     0516241031

 37 39  0  0  0  0  0  0  0  0999 V2000
    5.1412   -1.0206    0.0000 C   0  0  0  0  0  0  0  0  0  0  0  0
    6.2558   -2.0244    0.0000 H   0  0  0  0  0  0  0  0  0  0  0  0
    6.3234   -0.0973    0.0000 H   0  0  0  0  0  0  0  0  0  0  0  0
    4.4372    0.3040    0.0000 H   0  0  0  0  0  0  0  0  0  0  0  0
    3.7146   -1.4839    0.0000 C   0  0  0  0  0  0  0  0  0  0  0  0
    2.5324   -2.4072    0.0000 H   0  0  0  0  0  0  0  0  0  0  0  0
    4.4186   -2.8084    0.0000 H   0  0  0  0  0  0  0  0  0  0  0  0
    2.6000   -0.4800    0.0000 C   0  0  0  0  0  0  0  0  0  0  0  0
    3.7146    0.5239    0.0000 H   0  0  0  0  0  0  0  0  0  0  0  0
    1.7200    0.7300    0.0000 C   0  0  0  0  0  0  0  0  0  0  0  0
    3.0195    1.4791    0.0000 H   0  0  0  0  0  0  0  0  0  0  0  0
    0.2900    0.2700    0.0000 C   0  0  0  0  0  0  0  0  0  0  0  0
    0.2900   -1.2300    0.0000 C   0  0  0  0  0  0  0  0  0  0  0  0
   -1.0100   -1.9800    0.0000 C   0  0  0  0  0  0  0  0  0  0  0  0
   -1.0100   -3.4800    0.0000 H   0  0  0  0  0  0  0  0  0  0  0  0
   -2.3100   -1.2300    0.0000 C   0  0  0  0  0  0  0  0  0  0  0  0
   -3.6089   -1.9802    0.0000 H   0  0  0  0  0  0  0  0  0  0  0  0
   -2.3100    0.2700    0.0000 C   0  0  0  0  0  0  0  0  0  0  0  0
   -3.6089    1.0202    0.0000 H   0  0  0  0  0  0  0  0  0  0  0  0
   -1.0100    1.0200    0.0000 C   0  0  0  0  0  0  0  0  0  0  0  0
   -1.0100    3.0000    0.0000 O   0  0  0  0  0  0  0  0  0  0  0  0
   -2.3090    3.7500    0.0000 H   0  0  0  0  0  0  0  0  0  0  0  0
    1.7200   -1.6900    0.0000 O   0  0  0  0  0  0  0  0  0  0  0  0
    1.1124    2.1014    0.0000 C   0  0  0  0  0  0  0  0  0  0  0  0
   -0.3791    2.2609    0.0000 O   0  0  0  0  0  0  0  0  0  0  0  0
    1.9962    3.3134    0.0000 C   0  0  0  0  0  0  0  0  0  0  0  0
    3.4885    3.1533    0.0000 C   0  0  0  0  0  0  0  0  0  0  0  0
    4.0959    1.7818    0.0000 H   0  0  0  0  0  0  0  0  0  0  0  0
    4.3723    4.3653    0.0000 C   0  0  0  0  0  0  0  0  0  0  0  0
    3.7639    5.7372    0.0000 C   0  0  0  0  0  0  0  0  0  0  0  0
    2.2717    5.8973    0.0000 C   0  0  0  0  0  0  0  0  0  0  0  0
    1.3878    4.6853    0.0000 C   0  0  0  0  0  0  0  0  0  0  0  0
   -0.1037    4.8446    0.0000 H   0  0  0  0  0  0  0  0  0  0  0  0
    1.6642    7.2688    0.0000 Br  0  0  0  0  0  0  0  0  0  0  0  0
    4.6478    6.9492    0.0000 O   0  0  0  0  0  0  0  0  0  0  0  0
    4.0401    8.3206    0.0000 H   0  0  0  0  0  0  0  0  0  0  0  0
    5.8639    4.2060    0.0000 Br  0  0  0  0  0  0  0  0  0  0  0  0
  1  2  1  0  0  0  0 
  1  3  1  0  0  0  0 
  1  4  1  0  0  0  0 
  1  5  1  0  0  0  0 
  5  6  1  0  0  0  0 
  5  7  1  0  0  0  0 
  5  8  1  0  0  0  0 
  8  9  1  0  0  0  0 
  8 10  1  0  0  0  0 
 10 11  1  0  0  0  0 
 10 12  1  0  0  0  0 
 12 13  2  0  0  0  0 
 13 14  1  0  0  0  0 
 14 15  1  0  0  0  0 
 14 16  2  0  0  0  0 
 16 17  1  0  0  0  0 
 16 18  1  0  0  0  0 
 18 19  1  0  0  0  0 
 18 20  2  0  0  0  0 
 12 20  1  0  0  0  0 
 20 21  1  0  0  0  0 
 21 22  1  0  0  0  0 
 13 23  1  0  0  0  0 
  8 23  1  0  0  0  0 
 10 24  1  0  0  0  0 
 24 25  2  0  0  0  0 
 24 26  1  0  0  0  0 
 26 27  2  0  0  0  0 
 27 28  1  0  0  0  0 
 27 29  1  0  0  0  0 
 29 30  2  0  0  0  0 
 30 31  1  0  0  0  0 
 31 32  2  0  0  0  0 
 26 32  1  0  0  0  0 
 32 33  1  0  0  0  0 
 31 34  1  0  0  0  0 
 30 35  1  0  0  0  0 
 35 36  1  0  0  0  0 
 29 37  1  0  0  0  0 
M  END
> <Rank>
24

> <Priority_score>
0.02

> <Reaction_type>
aromatic hydroxylation

> <Parent_ID>
16

> <Parent_InChI>
InChI=1S/C17H14Br2O3/c1-2-13-15(10-5-3-4-6-14(10)22-13)16(20)9-7-11(18)17(21)12(19)8-9/h3-8,13,15,21H,2H2,1H3

> <Parent_SMILES>
CCC1Oc2ccccc2C1C(=O)c1cc(Br)c(O)c(Br)c1

$$$$
Molecule 16_metabolite 25
  CDK     0516241031

 37 39  0  0  0  0  0  0  0  0999 V2000
    5.1412   -1.0206    0.0000 C   0  0  0  0  0  0  0  0  0  0  0  0
    6.2558   -2.0244    0.0000 H   0  0  0  0  0  0  0  0  0  0  0  0
    6.3234   -0.0973    0.0000 H   0  0  0  0  0  0  0  0  0  0  0  0
    4.4372    0.3040    0.0000 H   0  0  0  0  0  0  0  0  0  0  0  0
    3.7146   -1.4839    0.0000 C   0  0  0  0  0  0  0  0  0  0  0  0
    2.5324   -2.4072    0.0000 H   0  0  0  0  0  0  0  0  0  0  0  0
    4.4186   -2.8084    0.0000 H   0  0  0  0  0  0  0  0  0  0  0  0
    2.6000   -0.4800    0.0000 C   0  0  0  0  0  0  0  0  0  0  0  0
    3.7146    0.5239    0.0000 H   0  0  0  0  0  0  0  0  0  0  0  0
    1.7200    0.7300    0.0000 C   0  0  0  0  0  0  0  0  0  0  0  0
    3.0195    1.4791    0.0000 H   0  0  0  0  0  0  0  0  0  0  0  0
    0.2900    0.2700    0.0000 C   0  0  0  0  0  0  0  0  0  0  0  0
    0.2900   -1.2300    0.0000 C   0  0  0  0  0  0  0  0  0  0  0  0
   -1.0100   -1.9800    0.0000 C   0  0  0  0  0  0  0  0  0  0  0  0
   -1.0100   -3.4800    0.0000 H   0  0  0  0  0  0  0  0  0  0  0  0
   -2.3100   -1.2300    0.0000 C   0  0  0  0  0  0  0  0  0  0  0  0
   -3.6089   -1.9802    0.0000 H   0  0  0  0  0  0  0  0  0  0  0  0
   -2.3100    0.2700    0.0000 C   0  0  0  0  0  0  0  0  0  0  0  0
   -3.6089    1.0202    0.0000 H   0  0  0  0  0  0  0  0  0  0  0  0
   -1.0100    1.0200    0.0000 C   0  0  0  0  0  0  0  0  0  0  0  0
   -1.0100    3.0000    0.0000 H   0  0  0  0  0  0  0  0  0  0  0  0
    1.7200   -1.6900    0.0000 O   0  0  0  0  0  0  0  0  0  0  0  0
    1.1124    2.1014    0.0000 C   0  0  0  0  0  0  0  0  0  0  0  0
   -0.3791    2.2609    0.0000 O   0  0  0  0  0  0  0  0  0  0  0  0
    1.9962    3.3134    0.0000 C   0  0  0  0  0  0  0  0  0  0  0  0
    1.3885    4.6856    0.0000 C   0  0  0  0  0  0  0  0  0  0  0  0
    2.2722    5.8987    0.0000 C   0  0  0  0  0  0  0  0  0  0  0  0
    3.7637    5.7394    0.0000 C   0  0  0  0  0  0  0  0  0  0  0  0
    4.3715    4.3672    0.0000 C   0  0  0  0  0  0  0  0  0  0  0  0
    3.4877    3.1541    0.0000 C   0  0  0  0  0  0  0  0  0  0  0  0
    4.0958    1.7829    0.0000 H   0  0  0  0  0  0  0  0  0  0  0  0
    5.8630    4.2079    0.0000 Br  0  0  0  0  0  0  0  0  0  0  0  0
    4.6476    6.9514    0.0000 O   0  0  0  0  0  0  0  0  0  0  0  0
    4.0400    8.3228    0.0000 H   0  0  0  0  0  0  0  0  0  0  0  0
    1.6641    7.2699    0.0000 Br  0  0  0  0  0  0  0  0  0  0  0  0
   -0.1031    4.8449    0.0000 O   0  0  0  0  0  0  0  0  0  0  0  0
   -0.7109    6.2162    0.0000 H   0  0  0  0  0  0  0  0  0  0  0  0
  1  2  1  0  0  0  0 
  1  3  1  0  0  0  0 
  1  4  1  0  0  0  0 
  1  5  1  0  0  0  0 
  5  6  1  0  0  0  0 
  5  7  1  0  0  0  0 
  5  8  1  0  0  0  0 
  8  9  1  0  0  0  0 
  8 10  1  0  0  0  0 
 10 11  1  0  0  0  0 
 10 12  1  0  0  0  0 
 12 13  2  0  0  0  0 
 13 14  1  0  0  0  0 
 14 15  1  0  0  0  0 
 14 16  2  0  0  0  0 
 16 17  1  0  0  0  0 
 16 18  1  0  0  0  0 
 18 19  1  0  0  0  0 
 18 20  2  0  0  0  0 
 12 20  1  0  0  0  0 
 20 21  1  0  0  0  0 
 13 22  1  0  0  0  0 
  8 22  1  0  0  0  0 
 10 23  1  0  0  0  0 
 23 24  2  0  0  0  0 
 23 25  1  0  0  0  0 
 25 26  2  0  0  0  0 
 26 27  1  0  0  0  0 
 27 28  2  0  0  0  0 
 28 29  1  0  0  0  0 
 29 30  2  0  0  0  0 
 25 30  1  0  0  0  0 
 30 31  1  0  0  0  0 
 29 32  1  0  0  0  0 
 28 33  1  0  0  0  0 
 33 34  1  0  0  0  0 
 27 35  1  0  0  0  0 
 26 36  1  0  0  0  0 
 36 37  1  0  0  0  0 
M  END
> <Rank>
25

> <Priority_score>
0.012

> <Reaction_type>
aromatic hydroxylation

> <Parent_ID>
16

> <Parent_InChI>
InChI=1S/C17H14Br2O3/c1-2-13-15(10-5-3-4-6-14(10)22-13)16(20)9-7-11(18)17(21)12(19)8-9/h3-8,13,15,21H,2H2,1H3

> <Parent_SMILES>
CCC1Oc2ccccc2C1C(=O)c1cc(Br)c(O)c(Br)c1

$$$$
Molecule 17
  CDK     0516241031

 22 22  0  0  0  0  0  0  0  0999 V2000
   11.0300    2.8657    0.0000 C   0  0  0  0  0  0  0  0  0  0  0  0
    9.7071    3.5729    0.0000 C   0  0  0  0  0  0  0  0  0  0  0  0
    8.4333    2.7808    0.0000 C   0  0  0  0  0  0  0  0  0  0  0  0
    7.1104    3.4879    0.0000 C   0  0  0  0  0  0  0  0  0  0  0  0
    5.8366    2.6959    0.0000 C   0  0  0  0  0  0  0  0  0  0  0  0
    4.5137    3.4030    0.0000 C   0  0  0  0  0  0  0  0  0  0  0  0
    3.2399    2.6109    0.0000 C   0  0  0  0  0  0  0  0  0  0  0  0
    1.9170    3.3181    0.0000 C   0  0  0  0  0  0  0  0  0  0  0  0
    0.6432    2.5260    0.0000 C   0  0  0  0  0  0  0  0  0  0  0  0
   -0.6263    3.2249    0.0000 C   0  0  0  0  0  0  0  0  0  0  0  0
   -1.9130    2.4935    0.0000 C   0  0  0  0  0  0  0  0  0  0  0  0
   -1.8456    0.9967    0.0000 C   0  0  0  0  0  0  0  0  0  0  0  0
   -0.5761    0.2978    0.0000 C   0  0  0  0  0  0  0  0  0  0  0  0
    0.7107    1.0292    0.0000 C   0  0  0  0  0  0  0  0  0  0  0  0
   -3.1194    0.2046    0.0000 C   0  0  0  0  0  0  0  0  0  0  0  0
   -4.4423    0.9118    0.0000 C   0  0  0  0  0  0  0  0  0  0  0  0
   -5.7161    0.1197    0.0000 C   0  0  0  0  0  0  0  0  0  0  0  0
   -7.0389    0.8268    0.0000 C   0  0  0  0  0  0  0  0  0  0  0  0
   -8.3128    0.0348    0.0000 O   0  0  0  0  0  0  0  0  0  0  0  0
   -6.6422   -1.0603    0.0000 C   0  0  0  0  0  0  0  0  0  0  0  0
   -8.1271   -0.8482    0.0000 O   0  0  0  0  0  0  0  0  0  0  0  0
   -4.7149   -0.9972    0.0000 N   0  0  0  0  0  0  0  0  0  0  0  0
  1  2  1  0  0  0  0 
  2  3  1  0  0  0  0 
  3  4  1  0  0  0  0 
  4  5  1  0  0  0  0 
  5  6  1  0  0  0  0 
  6  7  1  0  0  0  0 
  7  8  1  0  0  0  0 
  8  9  1  0  0  0  0 
  9 10  2  0  0  0  0 
 10 11  1  0  0  0  0 
 11 12  2  0  0  0  0 
 12 13  1  0  0  0  0 
 13 14  2  0  0  0  0 
  9 14  1  0  0  0  0 
 12 15  1  0  0  0  0 
 15 16  1  0  0  0  0 
 16 17  1  0  0  0  0 
 17 18  1  0  0  0  0 
 18 19  1  0  0  0  0 
 17 20  1  0  0  0  0 
 20 21  1  0  0  0  0 
 17 22  1  0  0  0  0 
M  END
> <SMILES>
CCCCCCCCc1ccc(CCC(N)(CO)CO)cc1

$$$$
Molecule 17_metabolite 1
  CDK     0516241031

 60 60  0  0  0  0  0  0  0  0999 V2000
    5.5530    6.2354    0.0000 C   0  0  0  0  0  0  0  0  0  0  0  0
    4.7609    7.5092    0.0000 H   0  0  0  0  0  0  0  0  0  0  0  0
    6.7330    5.3093    0.0000 H   0  0  0  0  0  0  0  0  0  0  0  0
    6.6699    7.2366    0.0000 H   0  0  0  0  0  0  0  0  0  0  0  0
    4.8459    4.9125    0.0000 C   0  0  0  0  0  0  0  0  0  0  0  0
    6.2714    4.4458    0.0000 H   0  0  0  0  0  0  0  0  0  0  0  0
    4.6338    3.4276    0.0000 H   0  0  0  0  0  0  0  0  0  0  0  0
    3.3467    4.8635    0.0000 C   0  0  0  0  0  0  0  0  0  0  0  0
    1.9211    5.3301    0.0000 H   0  0  0  0  0  0  0  0  0  0  0  0
    3.5587    6.3484    0.0000 H   0  0  0  0  0  0  0  0  0  0  0  0
    2.4133    3.1173    0.0000 C   0  0  0  0  0  0  0  0  0  0  0  0
    3.8388    2.6506    0.0000 H   0  0  0  0  0  0  0  0  0  0  0  0
    2.2012    1.6324    0.0000 H   0  0  0  0  0  0  0  0  0  0  0  0
    0.9141    3.0683    0.0000 C   0  0  0  0  0  0  0  0  0  0  0  0
   -0.5115    3.5349    0.0000 H   0  0  0  0  0  0  0  0  0  0  0  0
    1.1261    4.5532    0.0000 H   0  0  0  0  0  0  0  0  0  0  0  0
   -0.0193    1.3221    0.0000 C   0  0  0  0  0  0  0  0  0  0  0  0
    1.4062    0.8554    0.0000 H   0  0  0  0  0  0  0  0  0  0  0  0
   -0.2314   -0.1629    0.0000 H   0  0  0  0  0  0  0  0  0  0  0  0
   -1.9983    1.2573    0.0000 C   0  0  0  0  0  0  0  0  0  0  0  0
   -3.4238    1.7240    0.0000 H   0  0  0  0  0  0  0  0  0  0  0  0
   -1.7862    2.7423    0.0000 H   0  0  0  0  0  0  0  0  0  0  0  0
   -2.9317   -0.4888    0.0000 C   0  0  0  0  0  0  0  0  0  0  0  0
   -1.5061   -0.9555    0.0000 H   0  0  0  0  0  0  0  0  0  0  0  0
   -3.1437   -1.9738    0.0000 H   0  0  0  0  0  0  0  0  0  0  0  0
   -4.4309   -0.5379    0.0000 C   0  0  0  0  0  0  0  0  0  0  0  0
   -5.0983   -1.8242    0.0000 C   0  0  0  0  0  0  0  0  0  0  0  0
   -4.2735   -3.0771    0.0000 H   0  0  0  0  0  0  0  0  0  0  0  0
   -6.5744   -1.9309    0.0000 C   0  0  0  0  0  0  0  0  0  0  0  0
   -7.2636   -3.2633    0.0000 H   0  0  0  0  0  0  0  0  0  0  0  0
   -7.3499   -0.6489    0.0000 C   0  0  0  0  0  0  0  0  0  0  0  0
   -6.6825    0.6375    0.0000 C   0  0  0  0  0  0  0  0  0  0  0  0
   -7.5073    1.8904    0.0000 H   0  0  0  0  0  0  0  0  0  0  0  0
   -5.2063    0.7442    0.0000 C   0  0  0  0  0  0  0  0  0  0  0  0
   -4.5172    2.0765    0.0000 H   0  0  0  0  0  0  0  0  0  0  0  0
   -8.8491   -0.6979    0.0000 C   0  0  0  0  0  0  0  0  0  0  0  0
  -10.2746   -0.2312    0.0000 H   0  0  0  0  0  0  0  0  0  0  0  0
   -8.6370    0.7870    0.0000 H   0  0  0  0  0  0  0  0  0  0  0  0
   -9.5562   -2.0208    0.0000 C   0  0  0  0  0  0  0  0  0  0  0  0
   -8.1307   -2.4875    0.0000 H   0  0  0  0  0  0  0  0  0  0  0  0
   -9.7682   -3.5057    0.0000 H   0  0  0  0  0  0  0  0  0  0  0  0
  -11.0554   -2.0698    0.0000 C   0  0  0  0  0  0  0  0  0  0  0  0
  -12.8929   -2.8075    0.0000 C   0  0  0  0  0  0  0  0  0  0  0  0
  -14.0098   -3.8087    0.0000 H   0  0  0  0  0  0  0  0  0  0  0  0
  -12.1008   -4.0813    0.0000 H   0  0  0  0  0  0  0  0  0  0  0  0
  -14.0728   -1.8814    0.0000 O   0  0  0  0  0  0  0  0  0  0  0  0
  -15.4649   -2.4402    0.0000 H   0  0  0  0  0  0  0  0  0  0  0  0
  -10.6480   -4.0075    0.0000 C   0  0  0  0  0  0  0  0  0  0  0  0
   -9.8560   -5.2813    0.0000 H   0  0  0  0  0  0  0  0  0  0  0  0
   -8.8106   -3.2698    0.0000 H   0  0  0  0  0  0  0  0  0  0  0  0
  -11.7649   -5.0087    0.0000 O   0  0  0  0  0  0  0  0  0  0  0  0
  -13.1905   -4.5420    0.0000 H   0  0  0  0  0  0  0  0  0  0  0  0
  -11.8475   -0.7960    0.0000 N   0  0  0  0  0  0  0  0  0  0  0  0
  -13.3467   -0.8450    0.0000 H   0  0  0  0  0  0  0  0  0  0  0  0
  -11.1403    0.5269    0.0000 C   0  0  0  0  0  0  0  0  0  0  0  0
   -9.6411    0.5759    0.0000 O   0  0  0  0  0  0  0  0  0  0  0  0
  -11.9324    1.8007    0.0000 C   0  0  0  0  0  0  0  0  0  0  0  0
  -11.2253    3.1236    0.0000 H   0  0  0  0  0  0  0  0  0  0  0  0
  -13.0493    0.7995    0.0000 H   0  0  0  0  0  0  0  0  0  0  0  0
  -13.1124    2.7268    0.0000 H   0  0  0  0  0  0  0  0  0  0  0  0
  1  2  1  0  0  0  0 
  1  3  1  0  0  0  0 
  1  4  1  0  0  0  0 
  1  5  1  0  0  0  0 
  5  6  1  0  0  0  0 
  5  7  1  0  0  0  0 
  5  8  1  0  0  0  0 
  8  9  1  0  0  0  0 
  8 10  1  0  0  0  0 
  8 11  1  0  0  0  0 
 11 12  1  0  0  0  0 
 11 13  1  0  0  0  0 
 11 14  1  0  0  0  0 
 14 15  1  0  0  0  0 
 14 16  1  0  0  0  0 
 14 17  1  0  0  0  0 
 17 18  1  0  0  0  0 
 17 19  1  0  0  0  0 
 17 20  1  0  0  0  0 
 20 21  1  0  0  0  0 
 20 22  1  0  0  0  0 
 20 23  1  0  0  0  0 
 23 24  1  0  0  0  0 
 23 25  1  0  0  0  0 
 23 26  1  0  0  0  0 
 26 27  2  0  0  0  0 
 27 28  1  0  0  0  0 
 27 29  1  0  0  0  0 
 29 30  1  0  0  0  0 
 29 31  2  0  0  0  0 
 31 32  1  0  0  0  0 
 32 33  1  0  0  0  0 
 32 34  2  0  0  0  0 
 26 34  1  0  0  0  0 
 34 35  1  0  0  0  0 
 31 36  1  0  0  0  0 
 36 37  1  0  0  0  0 
 36 38  1  0  0  0  0 
 36 39  1  0  0  0  0 
 39 40  1  0  0  0  0 
 39 41  1  0  0  0  0 
 39 42  1  0  0  0  0 
 42 43  1  0  0  0  0 
 43 44  1  0  0  0  0 
 43 45  1  0  0  0  0 
 43 46  1  0  0  0  0 
 46 47  1  0  0  0  0 
 42 48  1  0  0  0  0 
 48 49  1  0  0  0  0 
 48 50  1  0  0  0  0 
 48 51  1  0  0  0  0 
 51 52  1  0  0  0  0 
 42 53  1  0  0  0  0 
 53 54  1  0  0  0  0 
 53 55  1  0  0  0  0 
 55 56  2  0  0  0  0 
 55 57  1  0  0  0  0 
 57 58  1  0  0  0  0 
 57 59  1  0  0  0  0 
 57 60  1  0  0  0  0 
M  END
> <Rank>
1

> <Priority_score>
0.956

> <Reaction_type>
N-acetylation_(aliphatic_NH2)

> <Parent_ID>
17

> <Parent_InChI>
InChI=1S/C19H33NO2/c1-2-3-4-5-6-7-8-17-9-11-18(12-10-17)13-14-19(20,15-21)16-22/h9-12,21-22H,2-8,13-16,20H2,1H3

> <Parent_SMILES>
CCCCCCCCc1ccc(CCC(N)(CO)CO)cc1

$$$$
Molecule 17_metabolite 2
  CDK     0516241031

 56 56  0  0  0  0  0  0  0  0999 V2000
    5.2066    4.9317    0.0000 C   0  0  0  0  0  0  0  0  0  0  0  0
    4.9945    3.4468    0.0000 H   0  0  0  0  0  0  0  0  0  0  0  0
    6.6321    4.4650    0.0000 H   0  0  0  0  0  0  0  0  0  0  0  0
    6.1400    6.6779    0.0000 C   0  0  0  0  0  0  0  0  0  0  0  0
    6.3520    8.1628    0.0000 H   0  0  0  0  0  0  0  0  0  0  0  0
    4.7144    7.1445    0.0000 H   0  0  0  0  0  0  0  0  0  0  0  0
    7.6392    6.7269    0.0000 C   0  0  0  0  0  0  0  0  0  0  0  0
    7.4271    5.2420    0.0000 H   0  0  0  0  0  0  0  0  0  0  0  0
    9.0647    6.2602    0.0000 H   0  0  0  0  0  0  0  0  0  0  0  0
    8.5726    8.4731    0.0000 C   0  0  0  0  0  0  0  0  0  0  0  0
    8.7846    9.9580    0.0000 H   0  0  0  0  0  0  0  0  0  0  0  0
    7.1470    8.9398    0.0000 H   0  0  0  0  0  0  0  0  0  0  0  0
   10.0718    8.5221    0.0000 C   0  0  0  0  0  0  0  0  0  0  0  0
    9.7632    9.9900    0.0000 H   0  0  0  0  0  0  0  0  0  0  0  0
   11.4638    9.0810    0.0000 H   0  0  0  0  0  0  0  0  0  0  0  0
   10.8639    7.2483    0.0000 O   0  0  0  0  0  0  0  0  0  0  0  0
   12.3631    7.2973    0.0000 H   0  0  0  0  0  0  0  0  0  0  0  0
    3.7074    4.8827    0.0000 C   0  0  0  0  0  0  0  0  0  0  0  0
    3.9194    6.3676    0.0000 H   0  0  0  0  0  0  0  0  0  0  0  0
    2.2818    5.3493    0.0000 H   0  0  0  0  0  0  0  0  0  0  0  0
    2.7740    3.1365    0.0000 C   0  0  0  0  0  0  0  0  0  0  0  0
    2.5619    1.6515    0.0000 H   0  0  0  0  0  0  0  0  0  0  0  0
    4.1995    2.6698    0.0000 H   0  0  0  0  0  0  0  0  0  0  0  0
    0.7950    3.0717    0.0000 C   0  0  0  0  0  0  0  0  0  0  0  0
    1.0071    4.5567    0.0000 H   0  0  0  0  0  0  0  0  0  0  0  0
   -0.6305    3.5384    0.0000 H   0  0  0  0  0  0  0  0  0  0  0  0
    0.0879    1.7489    0.0000 C   0  0  0  0  0  0  0  0  0  0  0  0
   -1.3610    1.7194    0.0000 C   0  0  0  0  0  0  0  0  0  0  0  0
   -2.1198    3.0133    0.0000 H   0  0  0  0  0  0  0  0  0  0  0  0
   -2.1096    0.4426    0.0000 C   0  0  0  0  0  0  0  0  0  0  0  0
   -3.6094    0.4139    0.0000 H   0  0  0  0  0  0  0  0  0  0  0  0
   -1.3028   -0.8199    0.0000 C   0  0  0  0  0  0  0  0  0  0  0  0
    0.1460   -0.7904    0.0000 C   0  0  0  0  0  0  0  0  0  0  0  0
    0.9049   -2.0843    0.0000 H   0  0  0  0  0  0  0  0  0  0  0  0
    0.8947    0.4863    0.0000 C   0  0  0  0  0  0  0  0  0  0  0  0
    2.3944    0.5150    0.0000 H   0  0  0  0  0  0  0  0  0  0  0  0
   -2.0100   -2.1428    0.0000 C   0  0  0  0  0  0  0  0  0  0  0  0
   -2.2220   -3.6277    0.0000 H   0  0  0  0  0  0  0  0  0  0  0  0
   -0.5844   -2.6095    0.0000 H   0  0  0  0  0  0  0  0  0  0  0  0
   -4.9484   -2.2389    0.0000 C   0  0  0  0  0  0  0  0  0  0  0  0
   -4.7364   -0.7540    0.0000 H   0  0  0  0  0  0  0  0  0  0  0  0
   -6.3739   -1.7722    0.0000 H   0  0  0  0  0  0  0  0  0  0  0  0
   -5.6555   -3.5618    0.0000 C   0  0  0  0  0  0  0  0  0  0  0  0
   -7.6345   -3.6265    0.0000 C   0  0  0  0  0  0  0  0  0  0  0  0
   -7.4224   -2.1416    0.0000 H   0  0  0  0  0  0  0  0  0  0  0  0
   -9.0600   -3.1598    0.0000 H   0  0  0  0  0  0  0  0  0  0  0  0
   -8.3416   -4.9494    0.0000 O   0  0  0  0  0  0  0  0  0  0  0  0
   -9.8408   -4.9984    0.0000 H   0  0  0  0  0  0  0  0  0  0  0  0
   -5.8676   -5.0467    0.0000 C   0  0  0  0  0  0  0  0  0  0  0  0
   -5.5589   -6.5146    0.0000 H   0  0  0  0  0  0  0  0  0  0  0  0
   -4.3684   -4.9977    0.0000 H   0  0  0  0  0  0  0  0  0  0  0  0
   -7.2596   -5.6055    0.0000 O   0  0  0  0  0  0  0  0  0  0  0  0
   -7.4716   -7.0905    0.0000 H   0  0  0  0  0  0  0  0  0  0  0  0
   -4.2300   -4.0284    0.0000 N   0  0  0  0  0  0  0  0  0  0  0  0
   -3.8226   -5.9661    0.0000 H   0  0  0  0  0  0  0  0  0  0  0  0
   -3.1130   -3.0272    0.0000 H   0  0  0  0  0  0  0  0  0  0  0  0
  1  2  1  0  0  0  0 
  1  3  1  0  0  0  0 
  1  4  1  0  0  0  0 
  4  5  1  0  0  0  0 
  4  6  1  0  0  0  0 
  4  7  1  0  0  0  0 
  7  8  1  0  0  0  0 
  7  9  1  0  0  0  0 
  7 10  1  0  0  0  0 
 10 11  1  0  0  0  0 
 10 12  1  0  0  0  0 
 10 13  1  0  0  0  0 
 13 14  1  0  0  0  0 
 13 15  1  0  0  0  0 
 13 16  1  0  0  0  0 
 16 17  1  0  0  0  0 
  1 18  1  0  0  0  0 
 18 19  1  0  0  0  0 
 18 20  1  0  0  0  0 
 18 21  1  0  0  0  0 
 21 22  1  0  0  0  0 
 21 23  1  0  0  0  0 
 21 24  1  0  0  0  0 
 24 25  1  0  0  0  0 
 24 26  1  0  0  0  0 
 24 27  1  0  0  0  0 
 27 28  2  0  0  0  0 
 28 29  1  0  0  0  0 
 28 30  1  0  0  0  0 
 30 31  1  0  0  0  0 
 30 32  2  0  0  0  0 
 32 33  1  0  0  0  0 
 33 34  1  0  0  0  0 
 33 35  2  0  0  0  0 
 27 35  1  0  0  0  0 
 35 36  1  0  0  0  0 
 32 37  1  0  0  0  0 
 37 38  1  0  0  0  0 
 37 39  1  0  0  0  0 
 37 40  1  0  0  0  0 
 40 41  1  0  0  0  0 
 40 42  1  0  0  0  0 
 40 43  1  0  0  0  0 
 43 44  1  0  0  0  0 
 44 45  1  0  0  0  0 
 44 46  1  0  0  0  0 
 44 47  1  0  0  0  0 
 47 48  1  0  0  0  0 
 43 49  1  0  0  0  0 
 49 50  1  0  0  0  0 
 49 51  1  0  0  0  0 
 49 52  1  0  0  0  0 
 52 53  1  0  0  0  0 
 43 54  1  0  0  0  0 
 54 55  1  0  0  0  0 
 54 56  1  0  0  0  0 
M  END
> <Rank>
2

> <Priority_score>
0.812

> <Reaction_type>
aliphatic_hydroxylation_(primary_carbon_next_to_sec_carbon)

> <Parent_ID>
17

> <Parent_InChI>
InChI=1S/C19H33NO2/c1-2-3-4-5-6-7-8-17-9-11-18(12-10-17)13-14-19(20,15-21)16-22/h9-12,21-22H,2-8,13-16,20H2,1H3

> <Parent_SMILES>
CCCCCCCCc1ccc(CCC(N)(CO)CO)cc1

$$$$
Molecule 17_metabolite 3
  CDK     0516241031

 55 55  0  0  0  0  0  0  0  0999 V2000
    5.6393    2.2196    0.0000 C   0  0  0  0  0  0  0  0  0  0  0  0
    4.7132    1.0396    0.0000 H   0  0  0  0  0  0  0  0  0  0  0  0
    6.6405    1.1027    0.0000 H   0  0  0  0  0  0  0  0  0  0  0  0
    4.3165    2.9268    0.0000 C   0  0  0  0  0  0  0  0  0  0  0  0
    5.2425    4.1067    0.0000 H   0  0  0  0  0  0  0  0  0  0  0  0
    3.3152    4.0437    0.0000 H   0  0  0  0  0  0  0  0  0  0  0  0
    2.6350    1.8812    0.0000 C   0  0  0  0  0  0  0  0  0  0  0  0
    1.7089    0.7012    0.0000 H   0  0  0  0  0  0  0  0  0  0  0  0
    3.6362    0.7643    0.0000 H   0  0  0  0  0  0  0  0  0  0  0  0
    0.8888    2.8146    0.0000 C   0  0  0  0  0  0  0  0  0  0  0  0
    1.8149    3.9946    0.0000 H   0  0  0  0  0  0  0  0  0  0  0  0
   -0.1124    3.9316    0.0000 H   0  0  0  0  0  0  0  0  0  0  0  0
   -0.3850    2.0226    0.0000 C   0  0  0  0  0  0  0  0  0  0  0  0
   -1.6545    2.7214    0.0000 C   0  0  0  0  0  0  0  0  0  0  0  0
   -1.6647    4.2214    0.0000 H   0  0  0  0  0  0  0  0  0  0  0  0
   -2.9412    1.9901    0.0000 C   0  0  0  0  0  0  0  0  0  0  0  0
   -4.2544    2.7151    0.0000 H   0  0  0  0  0  0  0  0  0  0  0  0
   -2.8738    0.4933    0.0000 C   0  0  0  0  0  0  0  0  0  0  0  0
   -1.6043   -0.2056    0.0000 C   0  0  0  0  0  0  0  0  0  0  0  0
   -1.5941   -1.7056    0.0000 H   0  0  0  0  0  0  0  0  0  0  0  0
   -0.3176    0.5257    0.0000 C   0  0  0  0  0  0  0  0  0  0  0  0
    0.9956   -0.1993    0.0000 H   0  0  0  0  0  0  0  0  0  0  0  0
   -4.1476   -0.2988    0.0000 C   0  0  0  0  0  0  0  0  0  0  0  0
   -5.0737   -1.4788    0.0000 H   0  0  0  0  0  0  0  0  0  0  0  0
   -3.1464   -1.4157    0.0000 H   0  0  0  0  0  0  0  0  0  0  0  0
   -6.7404    1.0872    0.0000 C   0  0  0  0  0  0  0  0  0  0  0  0
   -5.8143    2.2672    0.0000 H   0  0  0  0  0  0  0  0  0  0  0  0
   -7.7417    2.2041    0.0000 H   0  0  0  0  0  0  0  0  0  0  0  0
   -8.0143    0.2951    0.0000 C   0  0  0  0  0  0  0  0  0  0  0  0
   -9.7604    1.2285    0.0000 C   0  0  0  0  0  0  0  0  0  0  0  0
   -8.8343    2.4085    0.0000 H   0  0  0  0  0  0  0  0  0  0  0  0
  -10.7617    2.3455    0.0000 H   0  0  0  0  0  0  0  0  0  0  0  0
  -11.0343    0.4365    0.0000 O   0  0  0  0  0  0  0  0  0  0  0  0
  -12.3571    1.1436    0.0000 H   0  0  0  0  0  0  0  0  0  0  0  0
   -8.9404   -0.8849    0.0000 C   0  0  0  0  0  0  0  0  0  0  0  0
   -9.4070   -2.3104    0.0000 H   0  0  0  0  0  0  0  0  0  0  0  0
   -7.6175   -1.5920    0.0000 H   0  0  0  0  0  0  0  0  0  0  0  0
  -10.4253   -0.6728    0.0000 O   0  0  0  0  0  0  0  0  0  0  0  0
  -11.3514   -1.8528    0.0000 H   0  0  0  0  0  0  0  0  0  0  0  0
   -7.0130   -0.8218    0.0000 N   0  0  0  0  0  0  0  0  0  0  0  0
   -7.6290   -2.7036    0.0000 H   0  0  0  0  0  0  0  0  0  0  0  0
   -5.5451   -0.5132    0.0000 H   0  0  0  0  0  0  0  0  0  0  0  0
    7.3208    3.2652    0.0000 C   0  0  0  0  0  0  0  0  0  0  0  0
    8.2469    4.4451    0.0000 H   0  0  0  0  0  0  0  0  0  0  0  0
    6.3195    4.3821    0.0000 H   0  0  0  0  0  0  0  0  0  0  0  0
    8.6436    2.5580    0.0000 C   0  0  0  0  0  0  0  0  0  0  0  0
    7.7175    1.3780    0.0000 H   0  0  0  0  0  0  0  0  0  0  0  0
    9.6449    1.4411    0.0000 H   0  0  0  0  0  0  0  0  0  0  0  0
   10.3251    3.6036    0.0000 C   0  0  0  0  0  0  0  0  0  0  0  0
   11.2512    4.7835    0.0000 H   0  0  0  0  0  0  0  0  0  0  0  0
    9.3238    4.7205    0.0000 H   0  0  0  0  0  0  0  0  0  0  0  0
   11.6479    2.8964    0.0000 C   0  0  0  0  0  0  0  0  0  0  0  0
   11.6970    1.3972    0.0000 O   0  0  0  0  0  0  0  0  0  0  0  0
   12.9218    3.6885    0.0000 O   0  0  0  0  0  0  0  0  0  0  0  0
   14.2446    2.9814    0.0000 H   0  0  0  0  0  0  0  0  0  0  0  0
  1  2  1  0  0  0  0 
  1  3  1  0  0  0  0 
  1  4  1  0  0  0  0 
  4  5  1  0  0  0  0 
  4  6  1  0  0  0  0 
  4  7  1  0  0  0  0 
  7  8  1  0  0  0  0 
  7  9  1  0  0  0  0 
  7 10  1  0  0  0  0 
 10 11  1  0  0  0  0 
 10 12  1  0  0  0  0 
 10 13  1  0  0  0  0 
 13 14  2  0  0  0  0 
 14 15  1  0  0  0  0 
 14 16  1  0  0  0  0 
 16 17  1  0  0  0  0 
 16 18  2  0  0  0  0 
 18 19  1  0  0  0  0 
 19 20  1  0  0  0  0 
 19 21  2  0  0  0  0 
 13 21  1  0  0  0  0 
 21 22  1  0  0  0  0 
 18 23  1  0  0  0  0 
 23 24  1  0  0  0  0 
 23 25  1  0  0  0  0 
 23 26  1  0  0  0  0 
 26 27  1  0  0  0  0 
 26 28  1  0  0  0  0 
 26 29  1  0  0  0  0 
 29 30  1  0  0  0  0 
 30 31  1  0  0  0  0 
 30 32  1  0  0  0  0 
 30 33  1  0  0  0  0 
 33 34  1  0  0  0  0 
 29 35  1  0  0  0  0 
 35 36  1  0  0  0  0 
 35 37  1  0  0  0  0 
 35 38  1  0  0  0  0 
 38 39  1  0  0  0  0 
 29 40  1  0  0  0  0 
 40 41  1  0  0  0  0 
 40 42  1  0  0  0  0 
  1 43  1  0  0  0  0 
 43 44  1  0  0  0  0 
 43 45  1  0  0  0  0 
 43 46  1  0  0  0  0 
 46 47  1  0  0  0  0 
 46 48  1  0  0  0  0 
 46 49  1  0  0  0  0 
 49 50  1  0  0  0  0 
 49 51  1  0  0  0  0 
 49 52  1  0  0  0  0 
 52 53  2  0  0  0  0 
 52 54  1  0  0  0  0 
 54 55  1  0  0  0  0 
M  END
> <Rank>
2

> <Priority_score>
0.812

> <Reaction_type>
carboxylation_(primary_carbon_next_to_sec_carbon)

> <Parent_ID>
17

> <Parent_InChI>
InChI=1S/C19H33NO2/c1-2-3-4-5-6-7-8-17-9-11-18(12-10-17)13-14-19(20,15-21)16-22/h9-12,21-22H,2-8,13-16,20H2,1H3

> <Parent_SMILES>
CCCCCCCCc1ccc(CCC(N)(CO)CO)cc1

$$$$
Molecule 17_metabolite 4
  CDK     0516241031

 56 56  0  0  0  0  0  0  0  0999 V2000
   12.5368    2.8721    0.0000 C   0  0  0  0  0  0  0  0  0  0  0  0
   12.5858    1.3729    0.0000 H   0  0  0  0  0  0  0  0  0  0  0  0
   13.0034    4.2976    0.0000 H   0  0  0  0  0  0  0  0  0  0  0  0
   14.0217    2.6600    0.0000 H   0  0  0  0  0  0  0  0  0  0  0  0
   11.2139    3.5792    0.0000 C   0  0  0  0  0  0  0  0  0  0  0  0
   12.1400    4.7592    0.0000 H   0  0  0  0  0  0  0  0  0  0  0  0
    9.9401    2.7871    0.0000 C   0  0  0  0  0  0  0  0  0  0  0  0
    9.0140    1.6071    0.0000 H   0  0  0  0  0  0  0  0  0  0  0  0
   10.9413    1.6702    0.0000 H   0  0  0  0  0  0  0  0  0  0  0  0
    8.1939    3.7205    0.0000 C   0  0  0  0  0  0  0  0  0  0  0  0
    9.1200    4.9005    0.0000 H   0  0  0  0  0  0  0  0  0  0  0  0
    7.1927    4.8375    0.0000 H   0  0  0  0  0  0  0  0  0  0  0  0
    6.9201    2.9285    0.0000 C   0  0  0  0  0  0  0  0  0  0  0  0
    5.9940    1.7485    0.0000 H   0  0  0  0  0  0  0  0  0  0  0  0
    7.9213    1.8115    0.0000 H   0  0  0  0  0  0  0  0  0  0  0  0
    5.1739    3.8619    0.0000 C   0  0  0  0  0  0  0  0  0  0  0  0
    6.1000    5.0419    0.0000 H   0  0  0  0  0  0  0  0  0  0  0  0
    4.1727    4.9788    0.0000 H   0  0  0  0  0  0  0  0  0  0  0  0
    3.4924    2.8163    0.0000 C   0  0  0  0  0  0  0  0  0  0  0  0
    2.5663    1.6364    0.0000 H   0  0  0  0  0  0  0  0  0  0  0  0
    4.4937    1.6994    0.0000 H   0  0  0  0  0  0  0  0  0  0  0  0
    1.7463    3.7498    0.0000 C   0  0  0  0  0  0  0  0  0  0  0  0
    2.6724    4.9297    0.0000 H   0  0  0  0  0  0  0  0  0  0  0  0
    0.7450    4.8667    0.0000 H   0  0  0  0  0  0  0  0  0  0  0  0
    0.4724    2.9577    0.0000 C   0  0  0  0  0  0  0  0  0  0  0  0
   -0.7971    3.6566    0.0000 C   0  0  0  0  0  0  0  0  0  0  0  0
   -0.8073    5.1565    0.0000 H   0  0  0  0  0  0  0  0  0  0  0  0
   -2.0838    2.9252    0.0000 C   0  0  0  0  0  0  0  0  0  0  0  0
   -3.3969    3.6502    0.0000 H   0  0  0  0  0  0  0  0  0  0  0  0
   -2.0164    1.4284    0.0000 C   0  0  0  0  0  0  0  0  0  0  0  0
   -0.7468    0.7295    0.0000 C   0  0  0  0  0  0  0  0  0  0  0  0
   -0.7366   -0.7704    0.0000 H   0  0  0  0  0  0  0  0  0  0  0  0
    0.5399    1.4609    0.0000 C   0  0  0  0  0  0  0  0  0  0  0  0
    1.8530    0.7359    0.0000 H   0  0  0  0  0  0  0  0  0  0  0  0
   -3.2902    0.6363    0.0000 C   0  0  0  0  0  0  0  0  0  0  0  0
   -4.2163   -0.5436    0.0000 H   0  0  0  0  0  0  0  0  0  0  0  0
   -2.2889   -0.4806    0.0000 H   0  0  0  0  0  0  0  0  0  0  0  0
   -5.8830    2.0223    0.0000 C   0  0  0  0  0  0  0  0  0  0  0  0
   -4.9569    3.2023    0.0000 H   0  0  0  0  0  0  0  0  0  0  0  0
   -6.8842    3.1392    0.0000 H   0  0  0  0  0  0  0  0  0  0  0  0
   -7.1568    1.2302    0.0000 C   0  0  0  0  0  0  0  0  0  0  0  0
   -8.9030    2.1637    0.0000 C   0  0  0  0  0  0  0  0  0  0  0  0
   -7.9769    3.3436    0.0000 H   0  0  0  0  0  0  0  0  0  0  0  0
   -9.9042    3.2806    0.0000 H   0  0  0  0  0  0  0  0  0  0  0  0
  -10.1768    1.3716    0.0000 O   0  0  0  0  0  0  0  0  0  0  0  0
  -11.4997    2.0787    0.0000 H   0  0  0  0  0  0  0  0  0  0  0  0
   -8.0829    0.0503    0.0000 C   0  0  0  0  0  0  0  0  0  0  0  0
   -8.5496   -1.3753    0.0000 H   0  0  0  0  0  0  0  0  0  0  0  0
   -6.7600   -0.6569    0.0000 H   0  0  0  0  0  0  0  0  0  0  0  0
   -9.5679    0.2623    0.0000 O   0  0  0  0  0  0  0  0  0  0  0  0
  -10.4939   -0.9177    0.0000 H   0  0  0  0  0  0  0  0  0  0  0  0
   -6.1556    0.1133    0.0000 N   0  0  0  0  0  0  0  0  0  0  0  0
   -6.7716   -1.7684    0.0000 H   0  0  0  0  0  0  0  0  0  0  0  0
   -4.6877    0.4219    0.0000 H   0  0  0  0  0  0  0  0  0  0  0  0
   10.2127    4.6961    0.0000 O   0  0  0  0  0  0  0  0  0  0  0  0
   10.6793    6.1217    0.0000 H   0  0  0  0  0  0  0  0  0  0  0  0
  1  2  1  0  0  0  0 
  1  3  1  0  0  0  0 
  1  4  1  0  0  0  0 
  1  5  1  0  0  0  0 
  5  6  1  0  0  0  0 
  5  7  1  0  0  0  0 
  7  8  1  0  0  0  0 
  7  9  1  0  0  0  0 
  7 10  1  0  0  0  0 
 10 11  1  0  0  0  0 
 10 12  1  0  0  0  0 
 10 13  1  0  0  0  0 
 13 14  1  0  0  0  0 
 13 15  1  0  0  0  0 
 13 16  1  0  0  0  0 
 16 17  1  0  0  0  0 
 16 18  1  0  0  0  0 
 16 19  1  0  0  0  0 
 19 20  1  0  0  0  0 
 19 21  1  0  0  0  0 
 19 22  1  0  0  0  0 
 22 23  1  0  0  0  0 
 22 24  1  0  0  0  0 
 22 25  1  0  0  0  0 
 25 26  2  0  0  0  0 
 26 27  1  0  0  0  0 
 26 28  1  0  0  0  0 
 28 29  1  0  0  0  0 
 28 30  2  0  0  0  0 
 30 31  1  0  0  0  0 
 31 32  1  0  0  0  0 
 31 33  2  0  0  0  0 
 25 33  1  0  0  0  0 
 33 34  1  0  0  0  0 
 30 35  1  0  0  0  0 
 35 36  1  0  0  0  0 
 35 37  1  0  0  0  0 
 35 38  1  0  0  0  0 
 38 39  1  0  0  0  0 
 38 40  1  0  0  0  0 
 38 41  1  0  0  0  0 
 41 42  1  0  0  0  0 
 42 43  1  0  0  0  0 
 42 44  1  0  0  0  0 
 42 45  1  0  0  0  0 
 45 46  1  0  0  0  0 
 41 47  1  0  0  0  0 
 47 48  1  0  0  0  0 
 47 49  1  0  0  0  0 
 47 50  1  0  0  0  0 
 50 51  1  0  0  0  0 
 41 52  1  0  0  0  0 
 52 53  1  0  0  0  0 
 52 54  1  0  0  0  0 
  5 55  1  0  0  0  0 
 55 56  1  0  0  0  0 
M  END
> <Rank>
2

> <Priority_score>
0.812

> <Reaction_type>
aliphatic_hydroxylation_(sec_carbon,next_to_CH3)

> <Parent_ID>
17

> <Parent_InChI>
InChI=1S/C19H33NO2/c1-2-3-4-5-6-7-8-17-9-11-18(12-10-17)13-14-19(20,15-21)16-22/h9-12,21-22H,2-8,13-16,20H2,1H3

> <Parent_SMILES>
CCCCCCCCc1ccc(CCC(N)(CO)CO)cc1

$$$$
Molecule 17_metabolite 5
  CDK     0516241031

 59 59  0  0  0  0  0  0  0  0999 V2000
  -12.8933    1.7711    0.0000 C   0  0  0  0  0  0  0  0  0  0  0  0
  -12.9423    3.2703    0.0000 H   0  0  0  0  0  0  0  0  0  0  0  0
  -13.3599    0.3455    0.0000 H   0  0  0  0  0  0  0  0  0  0  0  0
  -14.3782    1.9831    0.0000 H   0  0  0  0  0  0  0  0  0  0  0  0
  -11.5704    1.0640    0.0000 C   0  0  0  0  0  0  0  0  0  0  0  0
  -12.4965   -0.1160    0.0000 H   0  0  0  0  0  0  0  0  0  0  0  0
  -10.5692   -0.0530    0.0000 H   0  0  0  0  0  0  0  0  0  0  0  0
  -10.2966    1.8560    0.0000 C   0  0  0  0  0  0  0  0  0  0  0  0
   -9.3705    3.0360    0.0000 H   0  0  0  0  0  0  0  0  0  0  0  0
  -11.2978    2.9730    0.0000 H   0  0  0  0  0  0  0  0  0  0  0  0
   -8.5504    0.9226    0.0000 C   0  0  0  0  0  0  0  0  0  0  0  0
   -9.4765   -0.2573    0.0000 H   0  0  0  0  0  0  0  0  0  0  0  0
   -7.5492   -0.1943    0.0000 H   0  0  0  0  0  0  0  0  0  0  0  0
   -7.2766    1.7147    0.0000 C   0  0  0  0  0  0  0  0  0  0  0  0
   -6.3505    2.8947    0.0000 H   0  0  0  0  0  0  0  0  0  0  0  0
   -8.2778    2.8316    0.0000 H   0  0  0  0  0  0  0  0  0  0  0  0
   -5.5304    0.7813    0.0000 C   0  0  0  0  0  0  0  0  0  0  0  0
   -6.4565   -0.3987    0.0000 H   0  0  0  0  0  0  0  0  0  0  0  0
   -4.5291   -0.3356    0.0000 H   0  0  0  0  0  0  0  0  0  0  0  0
   -3.8489    1.8268    0.0000 C   0  0  0  0  0  0  0  0  0  0  0  0
   -2.9228    3.0068    0.0000 H   0  0  0  0  0  0  0  0  0  0  0  0
   -4.8502    2.9437    0.0000 H   0  0  0  0  0  0  0  0  0  0  0  0
   -2.1028    0.8934    0.0000 C   0  0  0  0  0  0  0  0  0  0  0  0
   -3.0289   -0.2866    0.0000 H   0  0  0  0  0  0  0  0  0  0  0  0
   -1.1015   -0.2235    0.0000 H   0  0  0  0  0  0  0  0  0  0  0  0
   -0.8289    1.6855    0.0000 C   0  0  0  0  0  0  0  0  0  0  0  0
    0.4406    0.9866    0.0000 C   0  0  0  0  0  0  0  0  0  0  0  0
    0.4508   -0.5134    0.0000 H   0  0  0  0  0  0  0  0  0  0  0  0
    1.7273    1.7179    0.0000 C   0  0  0  0  0  0  0  0  0  0  0  0
    3.0405    0.9929    0.0000 H   0  0  0  0  0  0  0  0  0  0  0  0
    1.6599    3.2148    0.0000 C   0  0  0  0  0  0  0  0  0  0  0  0
    0.3903    3.9136    0.0000 C   0  0  0  0  0  0  0  0  0  0  0  0
    0.3801    5.4136    0.0000 H   0  0  0  0  0  0  0  0  0  0  0  0
   -0.8964    3.1823    0.0000 C   0  0  0  0  0  0  0  0  0  0  0  0
   -2.2095    3.9073    0.0000 H   0  0  0  0  0  0  0  0  0  0  0  0
    2.9337    4.0068    0.0000 C   0  0  0  0  0  0  0  0  0  0  0  0
    3.8598    5.1868    0.0000 H   0  0  0  0  0  0  0  0  0  0  0  0
    1.9325    5.1238    0.0000 H   0  0  0  0  0  0  0  0  0  0  0  0
    5.5265    2.6209    0.0000 C   0  0  0  0  0  0  0  0  0  0  0  0
    4.6004    1.4409    0.0000 H   0  0  0  0  0  0  0  0  0  0  0  0
    6.5277    1.5039    0.0000 H   0  0  0  0  0  0  0  0  0  0  0  0
    6.8003    3.4129    0.0000 C   0  0  0  0  0  0  0  0  0  0  0  0
    7.7264    4.5929    0.0000 C   0  0  0  0  0  0  0  0  0  0  0  0
    8.1931    6.0185    0.0000 H   0  0  0  0  0  0  0  0  0  0  0  0
    6.4036    5.3000    0.0000 H   0  0  0  0  0  0  0  0  0  0  0  0
    9.2114    4.3809    0.0000 O   0  0  0  0  0  0  0  0  0  0  0  0
   10.1375    5.5608    0.0000 H   0  0  0  0  0  0  0  0  0  0  0  0
    8.5465    2.4795    0.0000 C   0  0  0  0  0  0  0  0  0  0  0  0
    7.6204    1.2995    0.0000 H   0  0  0  0  0  0  0  0  0  0  0  0
    9.5477    1.3626    0.0000 H   0  0  0  0  0  0  0  0  0  0  0  0
    9.8203    3.2716    0.0000 O   0  0  0  0  0  0  0  0  0  0  0  0
   11.1432    2.5644    0.0000 S   0  0  0  0  0  0  0  0  0  0  0  0
   11.6099    3.9900    0.0000 O   0  0  0  0  0  0  0  0  0  0  0  0
   12.6281    2.3524    0.0000 O   0  0  0  0  0  0  0  0  0  0  0  0
   11.1922    1.0652    0.0000 O   0  0  0  0  0  0  0  0  0  0  0  0
   12.5151    0.3581    0.0000 H   0  0  0  0  0  0  0  0  0  0  0  0
    5.7991    4.5299    0.0000 N   0  0  0  0  0  0  0  0  0  0  0  0
    6.4151    6.4116    0.0000 H   0  0  0  0  0  0  0  0  0  0  0  0
    4.3312    4.2212    0.0000 H   0  0  0  0  0  0  0  0  0  0  0  0
  1  2  1  0  0  0  0 
  1  3  1  0  0  0  0 
  1  4  1  0  0  0  0 
  1  5  1  0  0  0  0 
  5  6  1  0  0  0  0 
  5  7  1  0  0  0  0 
  5  8  1  0  0  0  0 
  8  9  1  0  0  0  0 
  8 10  1  0  0  0  0 
  8 11  1  0  0  0  0 
 11 12  1  0  0  0  0 
 11 13  1  0  0  0  0 
 11 14  1  0  0  0  0 
 14 15  1  0  0  0  0 
 14 16  1  0  0  0  0 
 14 17  1  0  0  0  0 
 17 18  1  0  0  0  0 
 17 19  1  0  0  0  0 
 17 20  1  0  0  0  0 
 20 21  1  0  0  0  0 
 20 22  1  0  0  0  0 
 20 23  1  0  0  0  0 
 23 24  1  0  0  0  0 
 23 25  1  0  0  0  0 
 23 26  1  0  0  0  0 
 26 27  2  0  0  0  0 
 27 28  1  0  0  0  0 
 27 29  1  0  0  0  0 
 29 30  1  0  0  0  0 
 29 31  2  0  0  0  0 
 31 32  1  0  0  0  0 
 32 33  1  0  0  0  0 
 32 34  2  0  0  0  0 
 26 34  1  0  0  0  0 
 34 35  1  0  0  0  0 
 31 36  1  0  0  0  0 
 36 37  1  0  0  0  0 
 36 38  1  0  0  0  0 
 36 39  1  0  0  0  0 
 39 40  1  0  0  0  0 
 39 41  1  0  0  0  0 
 39 42  1  0  0  0  0 
 42 43  1  0  0  0  0 
 43 44  1  0  0  0  0 
 43 45  1  0  0  0  0 
 43 46  1  0  0  0  0 
 46 47  1  0  0  0  0 
 42 48  1  0  0  0  0 
 48 49  1  0  0  0  0 
 48 50  1  0  0  0  0 
 48 51  1  0  0  0  0 
 51 52  1  0  0  0  0 
 52 53  2  0  0  0  0 
 52 54  2  0  0  0  0 
 52 55  1  0  0  0  0 
 55 56  1  0  0  0  0 
 42 57  1  0  0  0  0 
 57 58  1  0  0  0  0 
 57 59  1  0  0  0  0 
M  END
> <Rank>
5

> <Priority_score>
0.6348457047212969

> <Reaction_type>
sulfation_(aliphatic_hydroxyl)

> <Parent_ID>
17

> <Parent_InChI>
InChI=1S/C19H33NO2/c1-2-3-4-5-6-7-8-17-9-11-18(12-10-17)13-14-19(20,15-21)16-22/h9-12,21-22H,2-8,13-16,20H2,1H3

> <Parent_SMILES>
CCCCCCCCc1ccc(CCC(N)(CO)CO)cc1

$$$$
Molecule 17_metabolite 6
  CDK     0516241031

 56 56  0  0  0  0  0  0  0  0999 V2000
   11.9253    2.4919    0.0000 C   0  0  0  0  0  0  0  0  0  0  0  0
   11.9744    0.9927    0.0000 H   0  0  0  0  0  0  0  0  0  0  0  0
   12.3920    3.9174    0.0000 H   0  0  0  0  0  0  0  0  0  0  0  0
   13.4103    2.2798    0.0000 H   0  0  0  0  0  0  0  0  0  0  0  0
   10.6025    3.1990    0.0000 C   0  0  0  0  0  0  0  0  0  0  0  0
   11.5286    4.3790    0.0000 H   0  0  0  0  0  0  0  0  0  0  0  0
    9.6012    4.3159    0.0000 H   0  0  0  0  0  0  0  0  0  0  0  0
    9.3286    2.4069    0.0000 C   0  0  0  0  0  0  0  0  0  0  0  0
    8.4025    1.2270    0.0000 H   0  0  0  0  0  0  0  0  0  0  0  0
   10.3299    1.2900    0.0000 H   0  0  0  0  0  0  0  0  0  0  0  0
    7.5825    3.3403    0.0000 C   0  0  0  0  0  0  0  0  0  0  0  0
    8.5086    4.5203    0.0000 H   0  0  0  0  0  0  0  0  0  0  0  0
    6.5812    4.4573    0.0000 H   0  0  0  0  0  0  0  0  0  0  0  0
    5.9010    2.2948    0.0000 C   0  0  0  0  0  0  0  0  0  0  0  0
    4.9749    1.1148    0.0000 H   0  0  0  0  0  0  0  0  0  0  0  0
    6.9022    1.1779    0.0000 H   0  0  0  0  0  0  0  0  0  0  0  0
    4.5781    3.0019    0.0000 C   0  0  0  0  0  0  0  0  0  0  0  0
    5.5042    4.1819    0.0000 H   0  0  0  0  0  0  0  0  0  0  0  0
    3.5769    4.1189    0.0000 H   0  0  0  0  0  0  0  0  0  0  0  0
    2.8967    1.9564    0.0000 C   0  0  0  0  0  0  0  0  0  0  0  0
    1.9706    0.7764    0.0000 H   0  0  0  0  0  0  0  0  0  0  0  0
    3.8979    0.8395    0.0000 H   0  0  0  0  0  0  0  0  0  0  0  0
    1.1505    2.8898    0.0000 C   0  0  0  0  0  0  0  0  0  0  0  0
    2.0766    4.0698    0.0000 H   0  0  0  0  0  0  0  0  0  0  0  0
   -0.1233    2.0978    0.0000 C   0  0  0  0  0  0  0  0  0  0  0  0
   -1.3928    2.7966    0.0000 C   0  0  0  0  0  0  0  0  0  0  0  0
   -1.4030    4.2966    0.0000 H   0  0  0  0  0  0  0  0  0  0  0  0
   -2.6795    2.0653    0.0000 C   0  0  0  0  0  0  0  0  0  0  0  0
   -3.9927    2.7903    0.0000 H   0  0  0  0  0  0  0  0  0  0  0  0
   -2.6121    0.5685    0.0000 C   0  0  0  0  0  0  0  0  0  0  0  0
   -1.3426   -0.1304    0.0000 C   0  0  0  0  0  0  0  0  0  0  0  0
   -1.3324   -1.6304    0.0000 H   0  0  0  0  0  0  0  0  0  0  0  0
   -0.0559    0.6009    0.0000 C   0  0  0  0  0  0  0  0  0  0  0  0
    1.2573   -0.1241    0.0000 H   0  0  0  0  0  0  0  0  0  0  0  0
   -3.8859   -0.2236    0.0000 C   0  0  0  0  0  0  0  0  0  0  0  0
   -4.8120   -1.4036    0.0000 H   0  0  0  0  0  0  0  0  0  0  0  0
   -2.8847   -1.3405    0.0000 H   0  0  0  0  0  0  0  0  0  0  0  0
   -6.4787    1.1624    0.0000 C   0  0  0  0  0  0  0  0  0  0  0  0
   -5.5526    2.3423    0.0000 H   0  0  0  0  0  0  0  0  0  0  0  0
   -7.4800    2.2793    0.0000 H   0  0  0  0  0  0  0  0  0  0  0  0
   -7.7526    0.3703    0.0000 C   0  0  0  0  0  0  0  0  0  0  0  0
   -9.4987    1.3037    0.0000 C   0  0  0  0  0  0  0  0  0  0  0  0
   -8.5726    2.4837    0.0000 H   0  0  0  0  0  0  0  0  0  0  0  0
  -10.5000    2.4206    0.0000 H   0  0  0  0  0  0  0  0  0  0  0  0
  -10.7726    0.5116    0.0000 O   0  0  0  0  0  0  0  0  0  0  0  0
  -12.0954    1.2188    0.0000 H   0  0  0  0  0  0  0  0  0  0  0  0
   -8.6787   -0.8097    0.0000 C   0  0  0  0  0  0  0  0  0  0  0  0
   -9.1453   -2.2352    0.0000 H   0  0  0  0  0  0  0  0  0  0  0  0
   -7.3558   -1.5168    0.0000 H   0  0  0  0  0  0  0  0  0  0  0  0
  -10.1636   -0.5976    0.0000 O   0  0  0  0  0  0  0  0  0  0  0  0
  -11.0897   -1.7776    0.0000 H   0  0  0  0  0  0  0  0  0  0  0  0
   -6.7513   -0.7466    0.0000 N   0  0  0  0  0  0  0  0  0  0  0  0
   -7.3673   -2.6284    0.0000 H   0  0  0  0  0  0  0  0  0  0  0  0
   -5.2834   -0.4380    0.0000 H   0  0  0  0  0  0  0  0  0  0  0  0
    0.1493    4.0068    0.0000 O   0  0  0  0  0  0  0  0  0  0  0  0
    0.6160    5.4323    0.0000 H   0  0  0  0  0  0  0  0  0  0  0  0
  1  2  1  0  0  0  0 
  1  3  1  0  0  0  0 
  1  4  1  0  0  0  0 
  1  5  1  0  0  0  0 
  5  6  1  0  0  0  0 
  5  7  1  0  0  0  0 
  5  8  1  0  0  0  0 
  8  9  1  0  0  0  0 
  8 10  1  0  0  0  0 
  8 11  1  0  0  0  0 
 11 12  1  0  0  0  0 
 11 13  1  0  0  0  0 
 11 14  1  0  0  0  0 
 14 15  1  0  0  0  0 
 14 16  1  0  0  0  0 
 14 17  1  0  0  0  0 
 17 18  1  0  0  0  0 
 17 19  1  0  0  0  0 
 17 20  1  0  0  0  0 
 20 21  1  0  0  0  0 
 20 22  1  0  0  0  0 
 20 23  1  0  0  0  0 
 23 24  1  0  0  0  0 
 23 25  1  0  0  0  0 
 25 26  2  0  0  0  0 
 26 27  1  0  0  0  0 
 26 28  1  0  0  0  0 
 28 29  1  0  0  0  0 
 28 30  2  0  0  0  0 
 30 31  1  0  0  0  0 
 31 32  1  0  0  0  0 
 31 33  2  0  0  0  0 
 25 33  1  0  0  0  0 
 33 34  1  0  0  0  0 
 30 35  1  0  0  0  0 
 35 36  1  0  0  0  0 
 35 37  1  0  0  0  0 
 35 38  1  0  0  0  0 
 38 39  1  0  0  0  0 
 38 40  1  0  0  0  0 
 38 41  1  0  0  0  0 
 41 42  1  0  0  0  0 
 42 43  1  0  0  0  0 
 42 44  1  0  0  0  0 
 42 45  1  0  0  0  0 
 45 46  1  0  0  0  0 
 41 47  1  0  0  0  0 
 47 48  1  0  0  0  0 
 47 49  1  0  0  0  0 
 47 50  1  0  0  0  0 
 50 51  1  0  0  0  0 
 41 52  1  0  0  0  0 
 52 53  1  0  0  0  0 
 52 54  1  0  0  0  0 
 23 55  1  0  0  0  0 
 55 56  1  0  0  0  0 
M  END
> <Rank>
6

> <Priority_score>
0.592

> <Reaction_type>
benzylic_hydroxylation_(c-CH2-CR)

> <Parent_ID>
17

> <Parent_InChI>
InChI=1S/C19H33NO2/c1-2-3-4-5-6-7-8-17-9-11-18(12-10-17)13-14-19(20,15-21)16-22/h9-12,21-22H,2-8,13-16,20H2,1H3

> <Parent_SMILES>
CCCCCCCCc1ccc(CCC(N)(CO)CO)cc1

$$$$
Molecule 17_metabolite 7
  CDK     0516241031

 75 76  0  0  0  0  0  0  0  0999 V2000
   -3.7215    0.2484    0.0000 C   0  0  0  0  0  0  0  0  0  0  0  0
   -4.2378    1.6567    0.0000 H   0  0  0  0  0  0  0  0  0  0  0  0
   -3.7180   -1.2516    0.0000 H   0  0  0  0  0  0  0  0  0  0  0  0
   -5.1981   -0.0155    0.0000 H   0  0  0  0  0  0  0  0  0  0  0  0
   -2.2437   -0.0087    0.0000 C   0  0  0  0  0  0  0  0  0  0  0  0
   -2.7535   -1.4194    0.0000 H   0  0  0  0  0  0  0  0  0  0  0  0
   -0.9429   -0.7557    0.0000 H   0  0  0  0  0  0  0  0  0  0  0  0
   -1.2822    1.1426    0.0000 C   0  0  0  0  0  0  0  0  0  0  0  0
   -0.7724    2.5533    0.0000 H   0  0  0  0  0  0  0  0  0  0  0  0
   -2.5829    1.8896    0.0000 H   0  0  0  0  0  0  0  0  0  0  0  0
    0.6686    0.8032    0.0000 C   0  0  0  0  0  0  0  0  0  0  0  0
    0.1588   -0.6075    0.0000 H   0  0  0  0  0  0  0  0  0  0  0  0
    1.9693    0.0562    0.0000 H   0  0  0  0  0  0  0  0  0  0  0  0
    1.6301    1.9545    0.0000 C   0  0  0  0  0  0  0  0  0  0  0  0
    2.1399    3.3652    0.0000 H   0  0  0  0  0  0  0  0  0  0  0  0
    0.3293    2.7015    0.0000 H   0  0  0  0  0  0  0  0  0  0  0  0
    3.5808    1.6152    0.0000 C   0  0  0  0  0  0  0  0  0  0  0  0
    3.0710    0.2045    0.0000 H   0  0  0  0  0  0  0  0  0  0  0  0
    4.8816    0.8682    0.0000 H   0  0  0  0  0  0  0  0  0  0  0  0
    4.8500    3.1349    0.0000 C   0  0  0  0  0  0  0  0  0  0  0  0
    5.3598    4.5456    0.0000 H   0  0  0  0  0  0  0  0  0  0  0  0
    3.5493    3.8819    0.0000 H   0  0  0  0  0  0  0  0  0  0  0  0
    7.2736    2.7133    0.0000 C   0  0  0  0  0  0  0  0  0  0  0  0
    6.7638    1.3026    0.0000 H   0  0  0  0  0  0  0  0  0  0  0  0
    8.5744    1.9663    0.0000 H   0  0  0  0  0  0  0  0  0  0  0  0
    8.2352    3.8646    0.0000 C   0  0  0  0  0  0  0  0  0  0  0  0
    9.6597    3.5986    0.0000 C   0  0  0  0  0  0  0  0  0  0  0  0
   10.1394    2.1774    0.0000 H   0  0  0  0  0  0  0  0  0  0  0  0
   10.6525    4.6963    0.0000 C   0  0  0  0  0  0  0  0  0  0  0  0
   12.1267    4.4192    0.0000 H   0  0  0  0  0  0  0  0  0  0  0  0
   10.1195    6.0966    0.0000 C   0  0  0  0  0  0  0  0  0  0  0  0
    8.6950    6.3625    0.0000 C   0  0  0  0  0  0  0  0  0  0  0  0
    8.2153    7.7838    0.0000 H   0  0  0  0  0  0  0  0  0  0  0  0
    7.7022    5.2649    0.0000 C   0  0  0  0  0  0  0  0  0  0  0  0
    6.2280    5.5420    0.0000 H   0  0  0  0  0  0  0  0  0  0  0  0
   11.0811    7.2479    0.0000 C   0  0  0  0  0  0  0  0  0  0  0  0
   11.5908    8.6586    0.0000 H   0  0  0  0  0  0  0  0  0  0  0  0
    9.7803    7.9949    0.0000 H   0  0  0  0  0  0  0  0  0  0  0  0
   13.9776    6.7440    0.0000 C   0  0  0  0  0  0  0  0  0  0  0  0
   13.4678    5.3333    0.0000 H   0  0  0  0  0  0  0  0  0  0  0  0
   15.2783    5.9970    0.0000 H   0  0  0  0  0  0  0  0  0  0  0  0
   14.9391    7.8953    0.0000 C   0  0  0  0  0  0  0  0  0  0  0  0
   15.9383   10.6603    0.0000 C   0  0  0  0  0  0  0  0  0  0  0  0
   15.9348   12.1603    0.0000 H   0  0  0  0  0  0  0  0  0  0  0  0
   14.4605   10.9174    0.0000 H   0  0  0  0  0  0  0  0  0  0  0  0
   17.4149   10.9242    0.0000 O   0  0  0  0  0  0  0  0  0  0  0  0
   17.9247   12.3349    0.0000 H   0  0  0  0  0  0  0  0  0  0  0  0
   16.8898    7.5560    0.0000 C   0  0  0  0  0  0  0  0  0  0  0  0
   16.8863    9.0560    0.0000 H   0  0  0  0  0  0  0  0  0  0  0  0
   18.3664    7.8198    0.0000 H   0  0  0  0  0  0  0  0  0  0  0  0
   17.4061    6.1476    0.0000 O   0  0  0  0  0  0  0  0  0  0  0  0
   19.3568    5.8083    0.0000 C   0  0  0  0  0  0  0  0  0  0  0  0
   19.3568    7.3083    0.0000 H   0  0  0  0  0  0  0  0  0  0  0  0
   18.8536    4.4058    0.0000 C   0  0  0  0  0  0  0  0  0  0  0  0
   17.8957    3.2516    0.0000 H   0  0  0  0  0  0  0  0  0  0  0  0
   19.8394    3.2447    0.0000 C   0  0  0  0  0  0  0  0  0  0  0  0
   20.3646    1.8396    0.0000 H   0  0  0  0  0  0  0  0  0  0  0  0
   21.3197    3.5211    0.0000 C   0  0  0  0  0  0  0  0  0  0  0  0
   22.7986    3.2701    0.0000 H   0  0  0  0  0  0  0  0  0  0  0  0
   21.8229    4.9235    0.0000 C   0  0  0  0  0  0  0  0  0  0  0  0
   22.7815    6.0772    0.0000 H   0  0  0  0  0  0  0  0  0  0  0  0
   23.5422    3.9416    0.0000 C   0  0  0  0  0  0  0  0  0  0  0  0
   24.8377    4.6977    0.0000 O   0  0  0  0  0  0  0  0  0  0  0  0
   23.5493    2.4416    0.0000 O   0  0  0  0  0  0  0  0  0  0  0  0
   24.8519    1.6978    0.0000 H   0  0  0  0  0  0  0  0  0  0  0  0
   20.8525    6.0685    0.0000 O   0  0  0  0  0  0  0  0  0  0  0  0
   21.3320    2.0211    0.0000 O   0  0  0  0  0  0  0  0  0  0  0  0
   22.6372    1.2818    0.0000 H   0  0  0  0  0  0  0  0  0  0  0  0
   18.5458    2.4854    0.0000 O   0  0  0  0  0  0  0  0  0  0  0  0
   18.5566    0.9854    0.0000 H   0  0  0  0  0  0  0  0  0  0  0  0
   17.5508    5.1493    0.0000 O   0  0  0  0  0  0  0  0  0  0  0  0
   16.2556    4.3928    0.0000 H   0  0  0  0  0  0  0  0  0  0  0  0
   13.6383    8.6423    0.0000 N   0  0  0  0  0  0  0  0  0  0  0  0
   13.6349   10.1423    0.0000 H   0  0  0  0  0  0  0  0  0  0  0  0
   12.3410    7.8893    0.0000 H   0  0  0  0  0  0  0  0  0  0  0  0
  1  2  1  0  0  0  0 
  1  3  1  0  0  0  0 
  1  4  1  0  0  0  0 
  1  5  1  0  0  0  0 
  5  6  1  0  0  0  0 
  5  7  1  0  0  0  0 
  5  8  1  0  0  0  0 
  8  9  1  0  0  0  0 
  8 10  1  0  0  0  0 
  8 11  1  0  0  0  0 
 11 12  1  0  0  0  0 
 11 13  1  0  0  0  0 
 11 14  1  0  0  0  0 
 14 15  1  0  0  0  0 
 14 16  1  0  0  0  0 
 14 17  1  0  0  0  0 
 17 18  1  0  0  0  0 
 17 19  1  0  0  0  0 
 17 20  1  0  0  0  0 
 20 21  1  0  0  0  0 
 20 22  1  0  0  0  0 
 20 23  1  0  0  0  0 
 23 24  1  0  0  0  0 
 23 25  1  0  0  0  0 
 23 26  1  0  0  0  0 
 26 27  2  0  0  0  0 
 27 28  1  0  0  0  0 
 27 29  1  0  0  0  0 
 29 30  1  0  0  0  0 
 29 31  2  0  0  0  0 
 31 32  1  0  0  0  0 
 32 33  1  0  0  0  0 
 32 34  2  0  0  0  0 
 26 34  1  0  0  0  0 
 34 35  1  0  0  0  0 
 31 36  1  0  0  0  0 
 36 37  1  0  0  0  0 
 36 38  1  0  0  0  0 
 36 39  1  0  0  0  0 
 39 40  1  0  0  0  0 
 39 41  1  0  0  0  0 
 39 42  1  0  0  0  0 
 42 43  1  0  0  0  0 
 43 44  1  0  0  0  0 
 43 45  1  0  0  0  0 
 43 46  1  0  0  0  0 
 46 47  1  0  0  0  0 
 42 48  1  0  0  0  0 
 48 49  1  0  0  0  0 
 48 50  1  0  0  0  0 
 48 51  1  0  0  0  0 
 51 52  1  0  0  0  0 
 52 53  1  0  0  0  0 
 52 54  1  0  0  0  0 
 54 55  1  0  0  0  0 
 54 56  1  0  0  0  0 
 56 57  1  0  0  0  0 
 56 58  1  0  0  0  0 
 58 59  1  0  0  0  0 
 58 60  1  0  0  0  0 
 60 61  1  0  0  0  0 
 60 62  1  0  0  0  0 
 62 63  2  0  0  0  0 
 62 64  1  0  0  0  0 
 64 65  1  0  0  0  0 
 60 66  1  0  0  0  0 
 52 66  1  0  0  0  0 
 58 67  1  0  0  0  0 
 67 68  1  0  0  0  0 
 56 69  1  0  0  0  0 
 69 70  1  0  0  0  0 
 54 71  1  0  0  0  0 
 71 72  1  0  0  0  0 
 42 73  1  0  0  0  0 
 73 74  1  0  0  0  0 
 73 75  1  0  0  0  0 
M  END
> <Rank>
7

> <Priority_score>
0.31987599604490197

> <Reaction_type>
O-glucuronidation_(aliphatic_hydroxyl)

> <Parent_ID>
17

> <Parent_InChI>
InChI=1S/C19H33NO2/c1-2-3-4-5-6-7-8-17-9-11-18(12-10-17)13-14-19(20,15-21)16-22/h9-12,21-22H,2-8,13-16,20H2,1H3

> <Parent_SMILES>
CCCCCCCCc1ccc(CCC(N)(CO)CO)cc1

$$$$
Molecule 17_metabolite 8
  CDK     0516241031

 75 76  0  0  0  0  0  0  0  0999 V2000
   12.8812  -14.2968    0.0000 C   0  0  0  0  0  0  0  0  0  0  0  0
   11.9168  -15.4457    0.0000 H   0  0  0  0  0  0  0  0  0  0  0  0
   13.8451  -15.4461    0.0000 H   0  0  0  0  0  0  0  0  0  0  0  0
   14.1804  -13.5471    0.0000 H   0  0  0  0  0  0  0  0  0  0  0  0
   12.3684  -12.8871    0.0000 C   0  0  0  0  0  0  0  0  0  0  0  0
   12.3688  -11.3871    0.0000 H   0  0  0  0  0  0  0  0  0  0  0  0
   13.8457  -12.6270    0.0000 H   0  0  0  0  0  0  0  0  0  0  0  0
   10.8913  -12.6264    0.0000 C   0  0  0  0  0  0  0  0  0  0  0  0
   10.8910  -14.1264    0.0000 H   0  0  0  0  0  0  0  0  0  0  0  0
    9.4140  -12.8865    0.0000 H   0  0  0  0  0  0  0  0  0  0  0  0
   10.2145  -10.7656    0.0000 C   0  0  0  0  0  0  0  0  0  0  0  0
   10.2148   -9.2656    0.0000 H   0  0  0  0  0  0  0  0  0  0  0  0
   11.6918  -10.5055    0.0000 H   0  0  0  0  0  0  0  0  0  0  0  0
    8.7373  -10.5048    0.0000 C   0  0  0  0  0  0  0  0  0  0  0  0
    8.7370  -12.0048    0.0000 H   0  0  0  0  0  0  0  0  0  0  0  0
    7.2601  -10.7650    0.0000 H   0  0  0  0  0  0  0  0  0  0  0  0
    8.0605   -8.6441    0.0000 C   0  0  0  0  0  0  0  0  0  0  0  0
    8.0609   -7.1441    0.0000 H   0  0  0  0  0  0  0  0  0  0  0  0
    9.5378   -8.3839    0.0000 H   0  0  0  0  0  0  0  0  0  0  0  0
    6.1107   -8.2999    0.0000 C   0  0  0  0  0  0  0  0  0  0  0  0
    6.1104   -9.7999    0.0000 H   0  0  0  0  0  0  0  0  0  0  0  0
    4.6334   -8.5600    0.0000 H   0  0  0  0  0  0  0  0  0  0  0  0
    5.2698   -5.9880    0.0000 C   0  0  0  0  0  0  0  0  0  0  0  0
    5.2701   -4.4880    0.0000 H   0  0  0  0  0  0  0  0  0  0  0  0
    6.7471   -5.7279    0.0000 H   0  0  0  0  0  0  0  0  0  0  0  0
    3.7927   -5.7272    0.0000 C   0  0  0  0  0  0  0  0  0  0  0  0
    2.8747   -6.8486    0.0000 C   0  0  0  0  0  0  0  0  0  0  0  0
    3.4237   -8.2445    0.0000 H   0  0  0  0  0  0  0  0  0  0  0  0
    1.4082   -6.6490    0.0000 C   0  0  0  0  0  0  0  0  0  0  0  0
    0.4594   -7.8108    0.0000 H   0  0  0  0  0  0  0  0  0  0  0  0
    0.9134   -5.2347    0.0000 C   0  0  0  0  0  0  0  0  0  0  0  0
    1.8314   -4.1133    0.0000 C   0  0  0  0  0  0  0  0  0  0  0  0
    1.2823   -2.7174    0.0000 H   0  0  0  0  0  0  0  0  0  0  0  0
    3.2979   -4.3130    0.0000 C   0  0  0  0  0  0  0  0  0  0  0  0
    4.2466   -3.1511    0.0000 H   0  0  0  0  0  0  0  0  0  0  0  0
   -0.5638   -4.9739    0.0000 C   0  0  0  0  0  0  0  0  0  0  0  0
   -0.5641   -6.4739    0.0000 H   0  0  0  0  0  0  0  0  0  0  0  0
   -2.0410   -5.2340    0.0000 H   0  0  0  0  0  0  0  0  0  0  0  0
   -1.0765   -3.5642    0.0000 C   0  0  0  0  0  0  0  0  0  0  0  0
   -1.0762   -2.0642    0.0000 H   0  0  0  0  0  0  0  0  0  0  0  0
    0.4008   -3.3041    0.0000 H   0  0  0  0  0  0  0  0  0  0  0  0
   -3.9717   -3.0531    0.0000 C   0  0  0  0  0  0  0  0  0  0  0  0
   -3.4584   -1.6437    0.0000 C   0  0  0  0  0  0  0  0  0  0  0  0
   -2.1595   -2.3939    0.0000 H   0  0  0  0  0  0  0  0  0  0  0  0
   -2.4940   -0.4948    0.0000 H   0  0  0  0  0  0  0  0  0  0  0  0
   -5.0392    0.2411    0.0000 O   0  0  0  0  0  0  0  0  0  0  0  0
   -4.5259    1.6506    0.0000 H   0  0  0  0  0  0  0  0  0  0  0  0
   -5.2706   -2.3028    0.0000 C   0  0  0  0  0  0  0  0  0  0  0  0
   -4.3062   -1.1539    0.0000 H   0  0  0  0  0  0  0  0  0  0  0  0
   -6.2345   -1.1535    0.0000 H   0  0  0  0  0  0  0  0  0  0  0  0
   -6.5698   -3.0525    0.0000 O   0  0  0  0  0  0  0  0  0  0  0  0
   -6.5701   -4.5525    0.0000 H   0  0  0  0  0  0  0  0  0  0  0  0
   -5.8620   -5.3049    0.0000 N   0  0  0  0  0  0  0  0  0  0  0  0
   -5.3493   -6.7145    0.0000 H   0  0  0  0  0  0  0  0  0  0  0  0
   -8.7572   -4.7937    0.0000 C   0  0  0  0  0  0  0  0  0  0  0  0
   -7.9156   -2.4822    0.0000 H   0  0  0  0  0  0  0  0  0  0  0  0
  -10.0563   -4.0437    0.0000 C   0  0  0  0  0  0  0  0  0  0  0  0
   -9.0922   -2.8945    0.0000 H   0  0  0  0  0  0  0  0  0  0  0  0
  -11.3558   -4.7945    0.0000 C   0  0  0  0  0  0  0  0  0  0  0  0
  -11.8690   -3.3851    0.0000 H   0  0  0  0  0  0  0  0  0  0  0  0
  -11.3563   -6.2954    0.0000 C   0  0  0  0  0  0  0  0  0  0  0  0
  -12.8334   -6.0346    0.0000 H   0  0  0  0  0  0  0  0  0  0  0  0
  -10.0572   -7.0454    0.0000 C   0  0  0  0  0  0  0  0  0  0  0  0
  -11.0213   -8.1945    0.0000 H   0  0  0  0  0  0  0  0  0  0  0  0
   -9.0928   -8.1942    0.0000 C   0  0  0  0  0  0  0  0  0  0  0  0
   -7.6156   -7.9334    0.0000 O   0  0  0  0  0  0  0  0  0  0  0  0
   -9.6055   -9.6039    0.0000 O   0  0  0  0  0  0  0  0  0  0  0  0
  -11.0827   -9.8647    0.0000 H   0  0  0  0  0  0  0  0  0  0  0  0
   -8.7577   -6.2945    0.0000 O   0  0  0  0  0  0  0  0  0  0  0  0
  -11.8694   -7.7049    0.0000 O   0  0  0  0  0  0  0  0  0  0  0  0
  -13.3467   -7.9652    0.0000 H   0  0  0  0  0  0  0  0  0  0  0  0
  -12.8330   -5.0549    0.0000 O   0  0  0  0  0  0  0  0  0  0  0  0
  -13.7971   -3.9057    0.0000 H   0  0  0  0  0  0  0  0  0  0  0  0
  -11.0207   -2.8948    0.0000 O   0  0  0  0  0  0  0  0  0  0  0  0
  -10.5080   -1.4852    0.0000 H   0  0  0  0  0  0  0  0  0  0  0  0
  1  2  1  0  0  0  0 
  1  3  1  0  0  0  0 
  1  4  1  0  0  0  0 
  1  5  1  0  0  0  0 
  5  6  1  0  0  0  0 
  5  7  1  0  0  0  0 
  5  8  1  0  0  0  0 
  8  9  1  0  0  0  0 
  8 10  1  0  0  0  0 
  8 11  1  0  0  0  0 
 11 12  1  0  0  0  0 
 11 13  1  0  0  0  0 
 11 14  1  0  0  0  0 
 14 15  1  0  0  0  0 
 14 16  1  0  0  0  0 
 14 17  1  0  0  0  0 
 17 18  1  0  0  0  0 
 17 19  1  0  0  0  0 
 17 20  1  0  0  0  0 
 20 21  1  0  0  0  0 
 20 22  1  0  0  0  0 
 20 23  1  0  0  0  0 
 23 24  1  0  0  0  0 
 23 25  1  0  0  0  0 
 23 26  1  0  0  0  0 
 26 27  2  0  0  0  0 
 27 28  1  0  0  0  0 
 27 29  1  0  0  0  0 
 29 30  1  0  0  0  0 
 29 31  2  0  0  0  0 
 31 32  1  0  0  0  0 
 32 33  1  0  0  0  0 
 32 34  2  0  0  0  0 
 26 34  1  0  0  0  0 
 34 35  1  0  0  0  0 
 31 36  1  0  0  0  0 
 36 37  1  0  0  0  0 
 36 38  1  0  0  0  0 
 36 39  1  0  0  0  0 
 39 40  1  0  0  0  0 
 39 41  1  0  0  0  0 
 39 42  1  0  0  0  0 
 42 43  1  0  0  0  0 
 43 44  1  0  0  0  0 
 43 45  1  0  0  0  0 
 43 46  1  0  0  0  0 
 46 47  1  0  0  0  0 
 42 48  1  0  0  0  0 
 48 49  1  0  0  0  0 
 48 50  1  0  0  0  0 
 48 51  1  0  0  0  0 
 51 52  1  0  0  0  0 
 42 53  1  0  0  0  0 
 53 54  1  0  0  0  0 
 53 55  1  0  0  0  0 
 55 56  1  0  0  0  0 
 55 57  1  0  0  0  0 
 57 58  1  0  0  0  0 
 57 59  1  0  0  0  0 
 59 60  1  0  0  0  0 
 59 61  1  0  0  0  0 
 61 62  1  0  0  0  0 
 61 63  1  0  0  0  0 
 63 64  1  0  0  0  0 
 63 65  1  0  0  0  0 
 65 66  2  0  0  0  0 
 65 67  1  0  0  0  0 
 67 68  1  0  0  0  0 
 63 69  1  0  0  0  0 
 55 69  1  0  0  0  0 
 61 70  1  0  0  0  0 
 70 71  1  0  0  0  0 
 59 72  1  0  0  0  0 
 72 73  1  0  0  0  0 
 57 74  1  0  0  0  0 
 74 75  1  0  0  0  0 
M  END
> <Rank>
8

> <Priority_score>
0.316

> <Reaction_type>
N-glucuronidation_(aliphatic_NH2)

> <Parent_ID>
17

> <Parent_InChI>
InChI=1S/C19H33NO2/c1-2-3-4-5-6-7-8-17-9-11-18(12-10-17)13-14-19(20,15-21)16-22/h9-12,21-22H,2-8,13-16,20H2,1H3

> <Parent_SMILES>
CCCCCCCCc1ccc(CCC(N)(CO)CO)cc1

$$$$
Molecule 17_metabolite 9
  CDK     0516241031

 53 53  0  0  0  0  0  0  0  0999 V2000
   10.7849   -2.8979    0.0000 C   0  0  0  0  0  0  0  0  0  0  0  0
   12.2841   -2.8489    0.0000 H   0  0  0  0  0  0  0  0  0  0  0  0
   10.0778   -4.2208    0.0000 H   0  0  0  0  0  0  0  0  0  0  0  0
    9.9928   -1.6241    0.0000 C   0  0  0  0  0  0  0  0  0  0  0  0
   10.7000   -0.3012    0.0000 H   0  0  0  0  0  0  0  0  0  0  0  0
    8.4936   -1.6731    0.0000 C   0  0  0  0  0  0  0  0  0  0  0  0
    7.1016   -2.2320    0.0000 H   0  0  0  0  0  0  0  0  0  0  0  0
    8.8023   -3.1410    0.0000 H   0  0  0  0  0  0  0  0  0  0  0  0
    7.7016   -0.3993    0.0000 C   0  0  0  0  0  0  0  0  0  0  0  0
    9.0936    0.1595    0.0000 H   0  0  0  0  0  0  0  0  0  0  0  0
    7.3929    1.0686    0.0000 H   0  0  0  0  0  0  0  0  0  0  0  0
    5.7226   -0.4640    0.0000 C   0  0  0  0  0  0  0  0  0  0  0  0
    4.3306   -1.0229    0.0000 H   0  0  0  0  0  0  0  0  0  0  0  0
    6.0312   -1.9320    0.0000 H   0  0  0  0  0  0  0  0  0  0  0  0
    4.9305    0.8098    0.0000 C   0  0  0  0  0  0  0  0  0  0  0  0
    6.3226    1.3686    0.0000 H   0  0  0  0  0  0  0  0  0  0  0  0
    4.6219    2.2777    0.0000 H   0  0  0  0  0  0  0  0  0  0  0  0
    2.9516    0.7450    0.0000 C   0  0  0  0  0  0  0  0  0  0  0  0
    1.5596    0.1862    0.0000 H   0  0  0  0  0  0  0  0  0  0  0  0
    3.2602   -0.7229    0.0000 H   0  0  0  0  0  0  0  0  0  0  0  0
    1.9061    2.4265    0.0000 C   0  0  0  0  0  0  0  0  0  0  0  0
    3.2981    2.9853    0.0000 H   0  0  0  0  0  0  0  0  0  0  0  0
    1.5974    3.8944    0.0000 H   0  0  0  0  0  0  0  0  0  0  0  0
    0.4069    2.3775    0.0000 C   0  0  0  0  0  0  0  0  0  0  0  0
   -0.3431    3.6175    0.0000 C   0  0  0  0  0  0  0  0  0  0  0  0
    0.3980    4.9216    0.0000 H   0  0  0  0  0  0  0  0  0  0  0  0
   -1.8231    3.6275    0.0000 C   0  0  0  0  0  0  0  0  0  0  0  0
   -2.5978    4.9119    0.0000 H   0  0  0  0  0  0  0  0  0  0  0  0
   -2.5131    2.2975    0.0000 C   0  0  0  0  0  0  0  0  0  0  0  0
   -1.7631    1.0575    0.0000 C   0  0  0  0  0  0  0  0  0  0  0  0
   -2.5043   -0.2467    0.0000 H   0  0  0  0  0  0  0  0  0  0  0  0
   -0.2831    1.0475    0.0000 C   0  0  0  0  0  0  0  0  0  0  0  0
    0.4916   -0.2370    0.0000 H   0  0  0  0  0  0  0  0  0  0  0  0
   -4.0123    2.2484    0.0000 C   0  0  0  0  0  0  0  0  0  0  0  0
   -5.4043    1.6896    0.0000 H   0  0  0  0  0  0  0  0  0  0  0  0
   -3.7037    0.7805    0.0000 H   0  0  0  0  0  0  0  0  0  0  0  0
   -5.5648    4.7451    0.0000 C   0  0  0  0  0  0  0  0  0  0  0  0
   -4.1728    5.3039    0.0000 H   0  0  0  0  0  0  0  0  0  0  0  0
   -5.8734    6.2130    0.0000 H   0  0  0  0  0  0  0  0  0  0  0  0
   -7.0640    4.6961    0.0000 C   0  0  0  0  0  0  0  0  0  0  0  0
   -8.1095    6.3775    0.0000 C   0  0  0  0  0  0  0  0  0  0  0  0
   -6.7175    6.9364    0.0000 H   0  0  0  0  0  0  0  0  0  0  0  0
   -8.4181    7.8454    0.0000 H   0  0  0  0  0  0  0  0  0  0  0  0
   -9.6087    6.3285    0.0000 O   0  0  0  0  0  0  0  0  0  0  0  0
  -10.4008    7.6023    0.0000 H   0  0  0  0  0  0  0  0  0  0  0  0
   -8.4560    4.1372    0.0000 C   0  0  0  0  0  0  0  0  0  0  0  0
   -9.5729    3.1360    0.0000 H   0  0  0  0  0  0  0  0  0  0  0  0
   -7.6639    2.8634    0.0000 H   0  0  0  0  0  0  0  0  0  0  0  0
   -9.6360    5.0633    0.0000 O   0  0  0  0  0  0  0  0  0  0  0  0
  -11.0280    4.5045    0.0000 H   0  0  0  0  0  0  0  0  0  0  0  0
   -6.7553    3.2282    0.0000 N   0  0  0  0  0  0  0  0  0  0  0  0
   -8.2297    1.9065    0.0000 H   0  0  0  0  0  0  0  0  0  0  0  0
   -5.3298    2.7615    0.0000 H   0  0  0  0  0  0  0  0  0  0  0  0
  1  2  1  0  0  0  0 
  1  3  1  0  0  0  0 
  1  4  2  0  0  0  0 
  4  5  1  0  0  0  0 
  4  6  1  0  0  0  0 
  6  7  1  0  0  0  0 
  6  8  1  0  0  0  0 
  6  9  1  0  0  0  0 
  9 10  1  0  0  0  0 
  9 11  1  0  0  0  0 
  9 12  1  0  0  0  0 
 12 13  1  0  0  0  0 
 12 14  1  0  0  0  0 
 12 15  1  0  0  0  0 
 15 16  1  0  0  0  0 
 15 17  1  0  0  0  0 
 15 18  1  0  0  0  0 
 18 19  1  0  0  0  0 
 18 20  1  0  0  0  0 
 18 21  1  0  0  0  0 
 21 22  1  0  0  0  0 
 21 23  1  0  0  0  0 
 21 24  1  0  0  0  0 
 24 25  2  0  0  0  0 
 25 26  1  0  0  0  0 
 25 27  1  0  0  0  0 
 27 28  1  0  0  0  0 
 27 29  2  0  0  0  0 
 29 30  1  0  0  0  0 
 30 31  1  0  0  0  0 
 30 32  2  0  0  0  0 
 24 32  1  0  0  0  0 
 32 33  1  0  0  0  0 
 29 34  1  0  0  0  0 
 34 35  1  0  0  0  0 
 34 36  1  0  0  0  0 
 34 37  1  0  0  0  0 
 37 38  1  0  0  0  0 
 37 39  1  0  0  0  0 
 37 40  1  0  0  0  0 
 40 41  1  0  0  0  0 
 41 42  1  0  0  0  0 
 41 43  1  0  0  0  0 
 41 44  1  0  0  0  0 
 44 45  1  0  0  0  0 
 40 46  1  0  0  0  0 
 46 47  1  0  0  0  0 
 46 48  1  0  0  0  0 
 46 49  1  0  0  0  0 
 49 50  1  0  0  0  0 
 40 51  1  0  0  0  0 
 51 52  1  0  0  0  0 
 51 53  1  0  0  0  0 
M  END
> <Rank>
9

> <Priority_score>
0.16240000000000002

> <Reaction_type>
alkyl dehydrogenation

> <Parent_ID>
17

> <Parent_InChI>
InChI=1S/C19H33NO2/c1-2-3-4-5-6-7-8-17-9-11-18(12-10-17)13-14-19(20,15-21)16-22/h9-12,21-22H,2-8,13-16,20H2,1H3

> <Parent_SMILES>
CCCCCCCCc1ccc(CCC(N)(CO)CO)cc1

$$$$
Molecule 17_metabolite 10
  CDK     0516241031

 53 53  0  0  0  0  0  0  0  0999 V2000
   11.9175    2.7317    0.0000 C   0  0  0  0  0  0  0  0  0  0  0  0
   11.9665    1.2325    0.0000 H   0  0  0  0  0  0  0  0  0  0  0  0
   12.3842    4.1573    0.0000 H   0  0  0  0  0  0  0  0  0  0  0  0
   13.4024    2.5197    0.0000 H   0  0  0  0  0  0  0  0  0  0  0  0
   10.5946    3.4389    0.0000 C   0  0  0  0  0  0  0  0  0  0  0  0
   11.5207    4.6188    0.0000 H   0  0  0  0  0  0  0  0  0  0  0  0
    9.5934    4.5558    0.0000 H   0  0  0  0  0  0  0  0  0  0  0  0
    8.9132    2.3933    0.0000 C   0  0  0  0  0  0  0  0  0  0  0  0
    7.9871    1.2134    0.0000 H   0  0  0  0  0  0  0  0  0  0  0  0
    9.9144    1.2764    0.0000 H   0  0  0  0  0  0  0  0  0  0  0  0
    7.5903    3.1005    0.0000 C   0  0  0  0  0  0  0  0  0  0  0  0
    8.5164    4.2804    0.0000 H   0  0  0  0  0  0  0  0  0  0  0  0
    6.5891    4.2174    0.0000 H   0  0  0  0  0  0  0  0  0  0  0  0
    5.9089    2.0549    0.0000 C   0  0  0  0  0  0  0  0  0  0  0  0
    4.9828    0.8750    0.0000 H   0  0  0  0  0  0  0  0  0  0  0  0
    6.9101    0.9380    0.0000 H   0  0  0  0  0  0  0  0  0  0  0  0
    4.1627    2.9883    0.0000 C   0  0  0  0  0  0  0  0  0  0  0  0
    5.0888    4.1683    0.0000 H   0  0  0  0  0  0  0  0  0  0  0  0
    3.1614    4.1053    0.0000 H   0  0  0  0  0  0  0  0  0  0  0  0
    2.8889    2.1963    0.0000 C   0  0  0  0  0  0  0  0  0  0  0  0
    2.9379    0.6971    0.0000 H   0  0  0  0  0  0  0  0  0  0  0  0
    1.5660    2.9034    0.0000 C   0  0  0  0  0  0  0  0  0  0  0  0
    1.5170    4.4026    0.0000 H   0  0  0  0  0  0  0  0  0  0  0  0
    0.2922    2.1113    0.0000 C   0  0  0  0  0  0  0  0  0  0  0  0
   -0.9774    2.8102    0.0000 C   0  0  0  0  0  0  0  0  0  0  0  0
   -0.9876    4.3102    0.0000 H   0  0  0  0  0  0  0  0  0  0  0  0
   -2.2641    2.0789    0.0000 C   0  0  0  0  0  0  0  0  0  0  0  0
   -3.5772    2.8039    0.0000 H   0  0  0  0  0  0  0  0  0  0  0  0
   -2.1966    0.5821    0.0000 C   0  0  0  0  0  0  0  0  0  0  0  0
   -0.9271   -0.1168    0.0000 C   0  0  0  0  0  0  0  0  0  0  0  0
   -0.9169   -1.6168    0.0000 H   0  0  0  0  0  0  0  0  0  0  0  0
    0.3596    0.6145    0.0000 C   0  0  0  0  0  0  0  0  0  0  0  0
    1.6728   -0.1105    0.0000 H   0  0  0  0  0  0  0  0  0  0  0  0
   -3.4704   -0.2100    0.0000 C   0  0  0  0  0  0  0  0  0  0  0  0
   -4.3965   -1.3900    0.0000 H   0  0  0  0  0  0  0  0  0  0  0  0
   -2.4692   -1.3269    0.0000 H   0  0  0  0  0  0  0  0  0  0  0  0
   -6.0633    1.1760    0.0000 C   0  0  0  0  0  0  0  0  0  0  0  0
   -5.1372    2.3559    0.0000 H   0  0  0  0  0  0  0  0  0  0  0  0
   -7.0645    2.2929    0.0000 H   0  0  0  0  0  0  0  0  0  0  0  0
   -7.3371    0.3839    0.0000 C   0  0  0  0  0  0  0  0  0  0  0  0
   -9.0833    1.3173    0.0000 C   0  0  0  0  0  0  0  0  0  0  0  0
   -8.1572    2.4973    0.0000 H   0  0  0  0  0  0  0  0  0  0  0  0
  -10.0845    2.4342    0.0000 H   0  0  0  0  0  0  0  0  0  0  0  0
  -10.3571    0.5252    0.0000 O   0  0  0  0  0  0  0  0  0  0  0  0
  -11.6800    1.2324    0.0000 H   0  0  0  0  0  0  0  0  0  0  0  0
   -8.2632   -0.7961    0.0000 C   0  0  0  0  0  0  0  0  0  0  0  0
   -8.7299   -2.2216    0.0000 H   0  0  0  0  0  0  0  0  0  0  0  0
   -6.9403   -1.5032    0.0000 H   0  0  0  0  0  0  0  0  0  0  0  0
   -9.7481   -0.5840    0.0000 O   0  0  0  0  0  0  0  0  0  0  0  0
  -10.6742   -1.7640    0.0000 H   0  0  0  0  0  0  0  0  0  0  0  0
   -6.3359   -0.7330    0.0000 N   0  0  0  0  0  0  0  0  0  0  0  0
   -6.9519   -2.6148    0.0000 H   0  0  0  0  0  0  0  0  0  0  0  0
   -4.8679   -0.4244    0.0000 H   0  0  0  0  0  0  0  0  0  0  0  0
  1  2  1  0  0  0  0 
  1  3  1  0  0  0  0 
  1  4  1  0  0  0  0 
  1  5  1  0  0  0  0 
  5  6  1  0  0  0  0 
  5  7  1  0  0  0  0 
  5  8  1  0  0  0  0 
  8  9  1  0  0  0  0 
  8 10  1  0  0  0  0 
  8 11  1  0  0  0  0 
 11 12  1  0  0  0  0 
 11 13  1  0  0  0  0 
 11 14  1  0  0  0  0 
 14 15  1  0  0  0  0 
 14 16  1  0  0  0  0 
 14 17  1  0  0  0  0 
 17 18  1  0  0  0  0 
 17 19  1  0  0  0  0 
 17 20  1  0  0  0  0 
 20 21  1  4  0  0  0 
 20 22  2  0  0  0  0 
 22 23  1  0  0  0  0 
 22 24  1  0  0  0  0 
 24 25  2  0  0  0  0 
 25 26  1  0  0  0  0 
 25 27  1  0  0  0  0 
 27 28  1  0  0  0  0 
 27 29  2  0  0  0  0 
 29 30  1  0  0  0  0 
 30 31  1  0  0  0  0 
 30 32  2  0  0  0  0 
 24 32  1  0  0  0  0 
 32 33  1  0  0  0  0 
 29 34  1  0  0  0  0 
 34 35  1  0  0  0  0 
 34 36  1  0  0  0  0 
 34 37  1  0  0  0  0 
 37 38  1  0  0  0  0 
 37 39  1  0  0  0  0 
 37 40  1  0  0  0  0 
 40 41  1  0  0  0  0 
 41 42  1  0  0  0  0 
 41 43  1  0  0  0  0 
 41 44  1  0  0  0  0 
 44 45  1  0  0  0  0 
 40 46  1  0  0  0  0 
 46 47  1  0  0  0  0 
 46 48  1  0  0  0  0 
 46 49  1  0  0  0  0 
 49 50  1  0  0  0  0 
 40 51  1  0  0  0  0 
 51 52  1  0  0  0  0 
 51 53  1  0  0  0  0 
M  END
> <Rank>
10

> <Priority_score>
0.1184

> <Reaction_type>
alkyl dehydrogenation

> <Parent_ID>
17

> <Parent_InChI>
InChI=1S/C19H33NO2/c1-2-3-4-5-6-7-8-17-9-11-18(12-10-17)13-14-19(20,15-21)16-22/h9-12,21-22H,2-8,13-16,20H2,1H3

> <Parent_SMILES>
CCCCCCCCc1ccc(CCC(N)(CO)CO)cc1

$$$$
Molecule 17_metabolite 11
  CDK     0516241031

 56 56  0  0  0  0  0  0  0  0999 V2000
   12.1291    2.6186    0.0000 C   0  0  0  0  0  0  0  0  0  0  0  0
   12.1782    1.1194    0.0000 H   0  0  0  0  0  0  0  0  0  0  0  0
   12.5958    4.0442    0.0000 H   0  0  0  0  0  0  0  0  0  0  0  0
   13.6141    2.4066    0.0000 H   0  0  0  0  0  0  0  0  0  0  0  0
   10.8063    3.3257    0.0000 C   0  0  0  0  0  0  0  0  0  0  0  0
   11.7324    4.5057    0.0000 H   0  0  0  0  0  0  0  0  0  0  0  0
    9.8050    4.4427    0.0000 H   0  0  0  0  0  0  0  0  0  0  0  0
    9.5325    2.5337    0.0000 C   0  0  0  0  0  0  0  0  0  0  0  0
    8.6064    1.3537    0.0000 H   0  0  0  0  0  0  0  0  0  0  0  0
   10.5337    1.4167    0.0000 H   0  0  0  0  0  0  0  0  0  0  0  0
    7.7863    3.4671    0.0000 C   0  0  0  0  0  0  0  0  0  0  0  0
    8.7124    4.6470    0.0000 H   0  0  0  0  0  0  0  0  0  0  0  0
    6.7850    4.5840    0.0000 H   0  0  0  0  0  0  0  0  0  0  0  0
    6.5124    2.6750    0.0000 C   0  0  0  0  0  0  0  0  0  0  0  0
    5.5863    1.4950    0.0000 H   0  0  0  0  0  0  0  0  0  0  0  0
    7.5137    1.5581    0.0000 H   0  0  0  0  0  0  0  0  0  0  0  0
    4.7663    3.6084    0.0000 C   0  0  0  0  0  0  0  0  0  0  0  0
    5.6924    4.7884    0.0000 H   0  0  0  0  0  0  0  0  0  0  0  0
    3.7650    4.7253    0.0000 H   0  0  0  0  0  0  0  0  0  0  0  0
    3.0848    2.5629    0.0000 C   0  0  0  0  0  0  0  0  0  0  0  0
    2.1587    1.3829    0.0000 H   0  0  0  0  0  0  0  0  0  0  0  0
    4.0861    1.4460    0.0000 H   0  0  0  0  0  0  0  0  0  0  0  0
    1.3386    3.4963    0.0000 C   0  0  0  0  0  0  0  0  0  0  0  0
    2.2647    4.6763    0.0000 H   0  0  0  0  0  0  0  0  0  0  0  0
    0.3374    4.6132    0.0000 H   0  0  0  0  0  0  0  0  0  0  0  0
    0.0648    2.7042    0.0000 C   0  0  0  0  0  0  0  0  0  0  0  0
   -1.2047    3.4031    0.0000 C   0  0  0  0  0  0  0  0  0  0  0  0
   -1.2149    4.9031    0.0000 H   0  0  0  0  0  0  0  0  0  0  0  0
   -2.4914    2.6718    0.0000 C   0  0  0  0  0  0  0  0  0  0  0  0
   -3.8046    3.3968    0.0000 H   0  0  0  0  0  0  0  0  0  0  0  0
   -2.4240    1.1749    0.0000 C   0  0  0  0  0  0  0  0  0  0  0  0
   -1.1545    0.4761    0.0000 C   0  0  0  0  0  0  0  0  0  0  0  0
   -1.1442   -1.0239    0.0000 H   0  0  0  0  0  0  0  0  0  0  0  0
    0.1323    1.2074    0.0000 C   0  0  0  0  0  0  0  0  0  0  0  0
    1.4454    0.4824    0.0000 H   0  0  0  0  0  0  0  0  0  0  0  0
   -3.6978    0.3829    0.0000 C   0  0  0  0  0  0  0  0  0  0  0  0
   -4.6239   -0.7971    0.0000 H   0  0  0  0  0  0  0  0  0  0  0  0
   -6.2906    1.7688    0.0000 C   0  0  0  0  0  0  0  0  0  0  0  0
   -5.3645    2.9488    0.0000 H   0  0  0  0  0  0  0  0  0  0  0  0
   -7.2918    2.8858    0.0000 H   0  0  0  0  0  0  0  0  0  0  0  0
   -7.5644    0.9768    0.0000 C   0  0  0  0  0  0  0  0  0  0  0  0
   -9.3106    1.9102    0.0000 C   0  0  0  0  0  0  0  0  0  0  0  0
   -8.3845    3.0902    0.0000 H   0  0  0  0  0  0  0  0  0  0  0  0
  -10.3118    3.0271    0.0000 H   0  0  0  0  0  0  0  0  0  0  0  0
  -10.5844    1.1181    0.0000 O   0  0  0  0  0  0  0  0  0  0  0  0
  -11.9073    1.8253    0.0000 H   0  0  0  0  0  0  0  0  0  0  0  0
   -8.4905   -0.2032    0.0000 C   0  0  0  0  0  0  0  0  0  0  0  0
   -8.9572   -1.6288    0.0000 H   0  0  0  0  0  0  0  0  0  0  0  0
   -7.1677   -0.9103    0.0000 H   0  0  0  0  0  0  0  0  0  0  0  0
   -9.9755    0.0088    0.0000 O   0  0  0  0  0  0  0  0  0  0  0  0
  -10.9016   -1.1711    0.0000 H   0  0  0  0  0  0  0  0  0  0  0  0
   -6.5632   -0.1401    0.0000 N   0  0  0  0  0  0  0  0  0  0  0  0
   -7.1792   -2.0219    0.0000 H   0  0  0  0  0  0  0  0  0  0  0  0
   -5.0953    0.1685    0.0000 H   0  0  0  0  0  0  0  0  0  0  0  0
   -2.6966   -0.7341    0.0000 O   0  0  0  0  0  0  0  0  0  0  0  0
   -3.1632   -2.1596    0.0000 H   0  0  0  0  0  0  0  0  0  0  0  0
  1  2  1  0  0  0  0 
  1  3  1  0  0  0  0 
  1  4  1  0  0  0  0 
  1  5  1  0  0  0  0 
  5  6  1  0  0  0  0 
  5  7  1  0  0  0  0 
  5  8  1  0  0  0  0 
  8  9  1  0  0  0  0 
  8 10  1  0  0  0  0 
  8 11  1  0  0  0  0 
 11 12  1  0  0  0  0 
 11 13  1  0  0  0  0 
 11 14  1  0  0  0  0 
 14 15  1  0  0  0  0 
 14 16  1  0  0  0  0 
 14 17  1  0  0  0  0 
 17 18  1  0  0  0  0 
 17 19  1  0  0  0  0 
 17 20  1  0  0  0  0 
 20 21  1  0  0  0  0 
 20 22  1  0  0  0  0 
 20 23  1  0  0  0  0 
 23 24  1  0  0  0  0 
 23 25  1  0  0  0  0 
 23 26  1  0  0  0  0 
 26 27  2  0  0  0  0 
 27 28  1  0  0  0  0 
 27 29  1  0  0  0  0 
 29 30  1  0  0  0  0 
 29 31  2  0  0  0  0 
 31 32  1  0  0  0  0 
 32 33  1  0  0  0  0 
 32 34  2  0  0  0  0 
 26 34  1  0  0  0  0 
 34 35  1  0  0  0  0 
 31 36  1  0  0  0  0 
 36 37  1  0  0  0  0 
 36 38  1  0  0  0  0 
 38 39  1  0  0  0  0 
 38 40  1  0  0  0  0 
 38 41  1  0  0  0  0 
 41 42  1  0  0  0  0 
 42 43  1  0  0  0  0 
 42 44  1  0  0  0  0 
 42 45  1  0  0  0  0 
 45 46  1  0  0  0  0 
 41 47  1  0  0  0  0 
 47 48  1  0  0  0  0 
 47 49  1  0  0  0  0 
 47 50  1  0  0  0  0 
 50 51  1  0  0  0  0 
 41 52  1  0  0  0  0 
 52 53  1  0  0  0  0 
 52 54  1  0  0  0  0 
 36 55  1  0  0  0  0 
 55 56  1  0  0  0  0 
M  END
> <Rank>
11

> <Priority_score>
0.104

> <Reaction_type>
benzylic_hydroxylation_(c-CH2-CR)

> <Parent_ID>
17

> <Parent_InChI>
InChI=1S/C19H33NO2/c1-2-3-4-5-6-7-8-17-9-11-18(12-10-17)13-14-19(20,15-21)16-22/h9-12,21-22H,2-8,13-16,20H2,1H3

> <Parent_SMILES>
CCCCCCCCc1ccc(CCC(N)(CO)CO)cc1

$$$$
Molecule 17_metabolite 12
  CDK     0516241031

 53 53  0  0  0  0  0  0  0  0999 V2000
   10.2021   -2.8468    0.0000 C   0  0  0  0  0  0  0  0  0  0  0  0
   11.7013   -2.7978    0.0000 H   0  0  0  0  0  0  0  0  0  0  0  0
    8.8101   -3.4057    0.0000 H   0  0  0  0  0  0  0  0  0  0  0  0
   10.5107   -4.3147    0.0000 H   0  0  0  0  0  0  0  0  0  0  0  0
    9.4100   -1.5730    0.0000 C   0  0  0  0  0  0  0  0  0  0  0  0
   10.1171   -0.2502    0.0000 H   0  0  0  0  0  0  0  0  0  0  0  0
    7.9108   -1.6221    0.0000 C   0  0  0  0  0  0  0  0  0  0  0  0
    7.2037   -2.9449    0.0000 H   0  0  0  0  0  0  0  0  0  0  0  0
    7.1187   -0.3482    0.0000 C   0  0  0  0  0  0  0  0  0  0  0  0
    8.5107    0.2106    0.0000 H   0  0  0  0  0  0  0  0  0  0  0  0
    6.8101    1.1197    0.0000 H   0  0  0  0  0  0  0  0  0  0  0  0
    5.6195   -0.3973    0.0000 C   0  0  0  0  0  0  0  0  0  0  0  0
    4.2275   -0.9561    0.0000 H   0  0  0  0  0  0  0  0  0  0  0  0
    5.9282   -1.8652    0.0000 H   0  0  0  0  0  0  0  0  0  0  0  0
    4.5740    1.2842    0.0000 C   0  0  0  0  0  0  0  0  0  0  0  0
    5.9660    1.8430    0.0000 H   0  0  0  0  0  0  0  0  0  0  0  0
    4.2654    2.7521    0.0000 H   0  0  0  0  0  0  0  0  0  0  0  0
    2.5951    1.2194    0.0000 C   0  0  0  0  0  0  0  0  0  0  0  0
    1.2031    0.6606    0.0000 H   0  0  0  0  0  0  0  0  0  0  0  0
    2.9037   -0.2485    0.0000 H   0  0  0  0  0  0  0  0  0  0  0  0
    1.8030    2.4933    0.0000 C   0  0  0  0  0  0  0  0  0  0  0  0
    3.1950    3.0521    0.0000 H   0  0  0  0  0  0  0  0  0  0  0  0
    1.4944    3.9612    0.0000 H   0  0  0  0  0  0  0  0  0  0  0  0
    0.3038    2.4442    0.0000 C   0  0  0  0  0  0  0  0  0  0  0  0
   -0.4462    3.6842    0.0000 C   0  0  0  0  0  0  0  0  0  0  0  0
    0.2949    4.9883    0.0000 H   0  0  0  0  0  0  0  0  0  0  0  0
   -1.9262    3.6942    0.0000 C   0  0  0  0  0  0  0  0  0  0  0  0
   -2.7009    4.9787    0.0000 H   0  0  0  0  0  0  0  0  0  0  0  0
   -2.6162    2.3642    0.0000 C   0  0  0  0  0  0  0  0  0  0  0  0
   -1.8662    1.1242    0.0000 C   0  0  0  0  0  0  0  0  0  0  0  0
   -2.6073   -0.1799    0.0000 H   0  0  0  0  0  0  0  0  0  0  0  0
   -0.3862    1.1142    0.0000 C   0  0  0  0  0  0  0  0  0  0  0  0
    0.3885   -0.1702    0.0000 H   0  0  0  0  0  0  0  0  0  0  0  0
   -4.1154    2.3152    0.0000 C   0  0  0  0  0  0  0  0  0  0  0  0
   -5.5074    1.7564    0.0000 H   0  0  0  0  0  0  0  0  0  0  0  0
   -3.8068    0.8473    0.0000 H   0  0  0  0  0  0  0  0  0  0  0  0
   -5.6679    4.8119    0.0000 C   0  0  0  0  0  0  0  0  0  0  0  0
   -4.2758    5.3707    0.0000 H   0  0  0  0  0  0  0  0  0  0  0  0
   -5.9765    6.2798    0.0000 H   0  0  0  0  0  0  0  0  0  0  0  0
   -7.1671    4.7628    0.0000 C   0  0  0  0  0  0  0  0  0  0  0  0
   -8.2126    6.4443    0.0000 C   0  0  0  0  0  0  0  0  0  0  0  0
   -6.8206    7.0031    0.0000 H   0  0  0  0  0  0  0  0  0  0  0  0
   -8.5212    7.9122    0.0000 H   0  0  0  0  0  0  0  0  0  0  0  0
   -9.7118    6.3953    0.0000 O   0  0  0  0  0  0  0  0  0  0  0  0
  -10.5038    7.6691    0.0000 H   0  0  0  0  0  0  0  0  0  0  0  0
   -8.5591    4.2040    0.0000 C   0  0  0  0  0  0  0  0  0  0  0  0
   -9.6760    3.2028    0.0000 H   0  0  0  0  0  0  0  0  0  0  0  0
   -7.7670    2.9302    0.0000 H   0  0  0  0  0  0  0  0  0  0  0  0
   -9.7390    5.1301    0.0000 O   0  0  0  0  0  0  0  0  0  0  0  0
  -11.1311    4.5713    0.0000 H   0  0  0  0  0  0  0  0  0  0  0  0
   -6.8584    3.2949    0.0000 N   0  0  0  0  0  0  0  0  0  0  0  0
   -8.3328    1.9733    0.0000 H   0  0  0  0  0  0  0  0  0  0  0  0
   -5.4329    2.8283    0.0000 H   0  0  0  0  0  0  0  0  0  0  0  0
  1  2  1  0  0  0  0 
  1  3  1  0  0  0  0 
  1  4  1  0  0  0  0 
  1  5  1  0  0  0  0 
  5  6  1  4  0  0  0 
  5  7  2  0  0  0  0 
  7  8  1  0  0  0  0 
  7  9  1  0  0  0  0 
  9 10  1  0  0  0  0 
  9 11  1  0  0  0  0 
  9 12  1  0  0  0  0 
 12 13  1  0  0  0  0 
 12 14  1  0  0  0  0 
 12 15  1  0  0  0  0 
 15 16  1  0  0  0  0 
 15 17  1  0  0  0  0 
 15 18  1  0  0  0  0 
 18 19  1  0  0  0  0 
 18 20  1  0  0  0  0 
 18 21  1  0  0  0  0 
 21 22  1  0  0  0  0 
 21 23  1  0  0  0  0 
 21 24  1  0  0  0  0 
 24 25  2  0  0  0  0 
 25 26  1  0  0  0  0 
 25 27  1  0  0  0  0 
 27 28  1  0  0  0  0 
 27 29  2  0  0  0  0 
 29 30  1  0  0  0  0 
 30 31  1  0  0  0  0 
 30 32  2  0  0  0  0 
 24 32  1  0  0  0  0 
 32 33  1  0  0  0  0 
 29 34  1  0  0  0  0 
 34 35  1  0  0  0  0 
 34 36  1  0  0  0  0 
 34 37  1  0  0  0  0 
 37 38  1  0  0  0  0 
 37 39  1  0  0  0  0 
 37 40  1  0  0  0  0 
 40 41  1  0  0  0  0 
 41 42  1  0  0  0  0 
 41 43  1  0  0  0  0 
 41 44  1  0  0  0  0 
 44 45  1  0  0  0  0 
 40 46  1  0  0  0  0 
 46 47  1  0  0  0  0 
 46 48  1  0  0  0  0 
 46 49  1  0  0  0  0 
 49 50  1  0  0  0  0 
 40 51  1  0  0  0  0 
 51 52  1  0  0  0  0 
 51 53  1  0  0  0  0 
M  END
> <Rank>
12

> <Priority_score>
0.1039681617182565

> <Reaction_type>
alkyl dehydrogenation

> <Parent_ID>
17

> <Parent_InChI>
InChI=1S/C19H33NO2/c1-2-3-4-5-6-7-8-17-9-11-18(12-10-17)13-14-19(20,15-21)16-22/h9-12,21-22H,2-8,13-16,20H2,1H3

> <Parent_SMILES>
CCCCCCCCc1ccc(CCC(N)(CO)CO)cc1

$$$$
Molecule 17_metabolite 13
  CDK     0516241031

 56 56  0  0  0  0  0  0  0  0999 V2000
   11.9096    2.9716    0.0000 C   0  0  0  0  0  0  0  0  0  0  0  0
   11.9587    1.4724    0.0000 H   0  0  0  0  0  0  0  0  0  0  0  0
   12.3763    4.3972    0.0000 H   0  0  0  0  0  0  0  0  0  0  0  0
   13.3946    2.7596    0.0000 H   0  0  0  0  0  0  0  0  0  0  0  0
   10.5868    3.6787    0.0000 C   0  0  0  0  0  0  0  0  0  0  0  0
   11.5129    4.8587    0.0000 H   0  0  0  0  0  0  0  0  0  0  0  0
    9.5855    4.7957    0.0000 H   0  0  0  0  0  0  0  0  0  0  0  0
    9.3129    2.8867    0.0000 C   0  0  0  0  0  0  0  0  0  0  0  0
    8.3868    1.7067    0.0000 H   0  0  0  0  0  0  0  0  0  0  0  0
   10.3142    1.7697    0.0000 H   0  0  0  0  0  0  0  0  0  0  0  0
    7.5668    3.8201    0.0000 C   0  0  0  0  0  0  0  0  0  0  0  0
    8.4929    5.0001    0.0000 H   0  0  0  0  0  0  0  0  0  0  0  0
    5.8853    2.7746    0.0000 C   0  0  0  0  0  0  0  0  0  0  0  0
    4.9592    1.5946    0.0000 H   0  0  0  0  0  0  0  0  0  0  0  0
    6.8866    1.6576    0.0000 H   0  0  0  0  0  0  0  0  0  0  0  0
    4.5625    3.4817    0.0000 C   0  0  0  0  0  0  0  0  0  0  0  0
    5.4886    4.6617    0.0000 H   0  0  0  0  0  0  0  0  0  0  0  0
    3.5612    4.5986    0.0000 H   0  0  0  0  0  0  0  0  0  0  0  0
    2.8810    2.4362    0.0000 C   0  0  0  0  0  0  0  0  0  0  0  0
    1.9549    1.2562    0.0000 H   0  0  0  0  0  0  0  0  0  0  0  0
    3.8822    1.3192    0.0000 H   0  0  0  0  0  0  0  0  0  0  0  0
    1.1348    3.3696    0.0000 C   0  0  0  0  0  0  0  0  0  0  0  0
    2.0609    4.5495    0.0000 H   0  0  0  0  0  0  0  0  0  0  0  0
    0.1336    4.4865    0.0000 H   0  0  0  0  0  0  0  0  0  0  0  0
   -0.1390    2.5775    0.0000 C   0  0  0  0  0  0  0  0  0  0  0  0
   -1.4085    3.2764    0.0000 C   0  0  0  0  0  0  0  0  0  0  0  0
   -1.4187    4.7763    0.0000 H   0  0  0  0  0  0  0  0  0  0  0  0
   -2.6952    2.5450    0.0000 C   0  0  0  0  0  0  0  0  0  0  0  0
   -4.0084    3.2700    0.0000 H   0  0  0  0  0  0  0  0  0  0  0  0
   -2.6278    1.0482    0.0000 C   0  0  0  0  0  0  0  0  0  0  0  0
   -1.3583    0.3493    0.0000 C   0  0  0  0  0  0  0  0  0  0  0  0
   -1.3481   -1.1506    0.0000 H   0  0  0  0  0  0  0  0  0  0  0  0
   -0.0716    1.0807    0.0000 C   0  0  0  0  0  0  0  0  0  0  0  0
    1.2416    0.3557    0.0000 H   0  0  0  0  0  0  0  0  0  0  0  0
   -3.9016    0.2561    0.0000 C   0  0  0  0  0  0  0  0  0  0  0  0
   -4.8277   -0.9238    0.0000 H   0  0  0  0  0  0  0  0  0  0  0  0
   -2.9004   -0.8608    0.0000 H   0  0  0  0  0  0  0  0  0  0  0  0
   -6.4944    1.6421    0.0000 C   0  0  0  0  0  0  0  0  0  0  0  0
   -5.5683    2.8221    0.0000 H   0  0  0  0  0  0  0  0  0  0  0  0
   -7.4957    2.7590    0.0000 H   0  0  0  0  0  0  0  0  0  0  0  0
   -7.7682    0.8500    0.0000 C   0  0  0  0  0  0  0  0  0  0  0  0
   -9.5144    1.7835    0.0000 C   0  0  0  0  0  0  0  0  0  0  0  0
   -8.5883    2.9634    0.0000 H   0  0  0  0  0  0  0  0  0  0  0  0
  -10.5157    2.9004    0.0000 H   0  0  0  0  0  0  0  0  0  0  0  0
  -10.7883    0.9914    0.0000 O   0  0  0  0  0  0  0  0  0  0  0  0
  -12.1111    1.6985    0.0000 H   0  0  0  0  0  0  0  0  0  0  0  0
   -8.6943   -0.3299    0.0000 C   0  0  0  0  0  0  0  0  0  0  0  0
   -9.1610   -1.7555    0.0000 H   0  0  0  0  0  0  0  0  0  0  0  0
   -7.3715   -1.0371    0.0000 H   0  0  0  0  0  0  0  0  0  0  0  0
  -10.1793   -0.1179    0.0000 O   0  0  0  0  0  0  0  0  0  0  0  0
  -11.1054   -1.2979    0.0000 H   0  0  0  0  0  0  0  0  0  0  0  0
   -6.7670   -0.2669    0.0000 N   0  0  0  0  0  0  0  0  0  0  0  0
   -7.3830   -2.1486    0.0000 H   0  0  0  0  0  0  0  0  0  0  0  0
   -5.2991    0.0417    0.0000 H   0  0  0  0  0  0  0  0  0  0  0  0
    6.5655    4.9370    0.0000 O   0  0  0  0  0  0  0  0  0  0  0  0
    7.0322    6.3626    0.0000 H   0  0  0  0  0  0  0  0  0  0  0  0
  1  2  1  0  0  0  0 
  1  3  1  0  0  0  0 
  1  4  1  0  0  0  0 
  1  5  1  0  0  0  0 
  5  6  1  0  0  0  0 
  5  7  1  0  0  0  0 
  5  8  1  0  0  0  0 
  8  9  1  0  0  0  0 
  8 10  1  0  0  0  0 
  8 11  1  0  0  0  0 
 11 12  1  0  0  0  0 
 11 13  1  0  0  0  0 
 13 14  1  0  0  0  0 
 13 15  1  0  0  0  0 
 13 16  1  0  0  0  0 
 16 17  1  0  0  0  0 
 16 18  1  0  0  0  0 
 16 19  1  0  0  0  0 
 19 20  1  0  0  0  0 
 19 21  1  0  0  0  0 
 19 22  1  0  0  0  0 
 22 23  1  0  0  0  0 
 22 24  1  0  0  0  0 
 22 25  1  0  0  0  0 
 25 26  2  0  0  0  0 
 26 27  1  0  0  0  0 
 26 28  1  0  0  0  0 
 28 29  1  0  0  0  0 
 28 30  2  0  0  0  0 
 30 31  1  0  0  0  0 
 31 32  1  0  0  0  0 
 31 33  2  0  0  0  0 
 25 33  1  0  0  0  0 
 33 34  1  0  0  0  0 
 30 35  1  0  0  0  0 
 35 36  1  0  0  0  0 
 35 37  1  0  0  0  0 
 35 38  1  0  0  0  0 
 38 39  1  0  0  0  0 
 38 40  1  0  0  0  0 
 38 41  1  0  0  0  0 
 41 42  1  0  0  0  0 
 42 43  1  0  0  0  0 
 42 44  1  0  0  0  0 
 42 45  1  0  0  0  0 
 45 46  1  0  0  0  0 
 41 47  1  0  0  0  0 
 47 48  1  0  0  0  0 
 47 49  1  0  0  0  0 
 47 50  1  0  0  0  0 
 50 51  1  0  0  0  0 
 41 52  1  0  0  0  0 
 52 53  1  0  0  0  0 
 52 54  1  0  0  0  0 
 11 55  1  0  0  0  0 
 55 56  1  0  0  0  0 
M  END
> <Rank>
13

> <Priority_score>
0.072

> <Reaction_type>
aliphatic hydroxylation

> <Parent_ID>
17

> <Parent_InChI>
InChI=1S/C19H33NO2/c1-2-3-4-5-6-7-8-17-9-11-18(12-10-17)13-14-19(20,15-21)16-22/h9-12,21-22H,2-8,13-16,20H2,1H3

> <Parent_SMILES>
CCCCCCCCc1ccc(CCC(N)(CO)CO)cc1

$$$$
Molecule 17_metabolite 14
  CDK     0516241031

 56 56  0  0  0  0  0  0  0  0999 V2000
   11.5334    1.7587    0.0000 C   0  0  0  0  0  0  0  0  0  0  0  0
   11.5824    0.2595    0.0000 H   0  0  0  0  0  0  0  0  0  0  0  0
   12.0001    3.1842    0.0000 H   0  0  0  0  0  0  0  0  0  0  0  0
   13.0183    1.5466    0.0000 H   0  0  0  0  0  0  0  0  0  0  0  0
   10.2105    2.4658    0.0000 C   0  0  0  0  0  0  0  0  0  0  0  0
   11.1366    3.6458    0.0000 H   0  0  0  0  0  0  0  0  0  0  0  0
    9.2093    3.5827    0.0000 H   0  0  0  0  0  0  0  0  0  0  0  0
    8.9367    1.6737    0.0000 C   0  0  0  0  0  0  0  0  0  0  0  0
    8.0106    0.4938    0.0000 H   0  0  0  0  0  0  0  0  0  0  0  0
    9.9379    0.5568    0.0000 H   0  0  0  0  0  0  0  0  0  0  0  0
    7.1905    2.6071    0.0000 C   0  0  0  0  0  0  0  0  0  0  0  0
    8.1166    3.7871    0.0000 H   0  0  0  0  0  0  0  0  0  0  0  0
    6.1893    3.7241    0.0000 H   0  0  0  0  0  0  0  0  0  0  0  0
    5.5091    1.5616    0.0000 C   0  0  0  0  0  0  0  0  0  0  0  0
    4.5830    0.3816    0.0000 H   0  0  0  0  0  0  0  0  0  0  0  0
    6.5103    0.4447    0.0000 H   0  0  0  0  0  0  0  0  0  0  0  0
    3.7629    2.4950    0.0000 C   0  0  0  0  0  0  0  0  0  0  0  0
    4.6890    3.6750    0.0000 H   0  0  0  0  0  0  0  0  0  0  0  0
    2.7617    3.6119    0.0000 H   0  0  0  0  0  0  0  0  0  0  0  0
    2.0815    1.4495    0.0000 C   0  0  0  0  0  0  0  0  0  0  0  0
    1.1554    0.2695    0.0000 H   0  0  0  0  0  0  0  0  0  0  0  0
    0.7586    2.1566    0.0000 C   0  0  0  0  0  0  0  0  0  0  0  0
    1.6847    3.3366    0.0000 H   0  0  0  0  0  0  0  0  0  0  0  0
   -0.2426    3.2735    0.0000 H   0  0  0  0  0  0  0  0  0  0  0  0
   -0.5152    1.3645    0.0000 C   0  0  0  0  0  0  0  0  0  0  0  0
   -1.7848    2.0634    0.0000 C   0  0  0  0  0  0  0  0  0  0  0  0
   -1.7950    3.5634    0.0000 H   0  0  0  0  0  0  0  0  0  0  0  0
   -3.0715    1.3321    0.0000 C   0  0  0  0  0  0  0  0  0  0  0  0
   -4.3846    2.0571    0.0000 H   0  0  0  0  0  0  0  0  0  0  0  0
   -3.0040   -0.1647    0.0000 C   0  0  0  0  0  0  0  0  0  0  0  0
   -1.7345   -0.8636    0.0000 C   0  0  0  0  0  0  0  0  0  0  0  0
   -1.7243   -2.3636    0.0000 H   0  0  0  0  0  0  0  0  0  0  0  0
   -0.4478   -0.1323    0.0000 C   0  0  0  0  0  0  0  0  0  0  0  0
    0.8654   -0.8573    0.0000 H   0  0  0  0  0  0  0  0  0  0  0  0
   -4.2779   -0.9568    0.0000 C   0  0  0  0  0  0  0  0  0  0  0  0
   -5.2039   -2.1368    0.0000 H   0  0  0  0  0  0  0  0  0  0  0  0
   -3.2766   -2.0737    0.0000 H   0  0  0  0  0  0  0  0  0  0  0  0
   -6.8707    0.4292    0.0000 C   0  0  0  0  0  0  0  0  0  0  0  0
   -5.9446    1.6091    0.0000 H   0  0  0  0  0  0  0  0  0  0  0  0
   -7.8719    1.5461    0.0000 H   0  0  0  0  0  0  0  0  0  0  0  0
   -8.1445   -0.3629    0.0000 C   0  0  0  0  0  0  0  0  0  0  0  0
   -9.8907    0.5705    0.0000 C   0  0  0  0  0  0  0  0  0  0  0  0
   -8.9646    1.7505    0.0000 H   0  0  0  0  0  0  0  0  0  0  0  0
  -10.8919    1.6874    0.0000 H   0  0  0  0  0  0  0  0  0  0  0  0
  -11.1645   -0.2216    0.0000 O   0  0  0  0  0  0  0  0  0  0  0  0
  -12.4874    0.4856    0.0000 H   0  0  0  0  0  0  0  0  0  0  0  0
   -9.0706   -1.5429    0.0000 C   0  0  0  0  0  0  0  0  0  0  0  0
   -9.5373   -2.9684    0.0000 H   0  0  0  0  0  0  0  0  0  0  0  0
   -7.7477   -2.2500    0.0000 H   0  0  0  0  0  0  0  0  0  0  0  0
  -10.5555   -1.3308    0.0000 O   0  0  0  0  0  0  0  0  0  0  0  0
  -11.4816   -2.5108    0.0000 H   0  0  0  0  0  0  0  0  0  0  0  0
   -7.1433   -1.4798    0.0000 N   0  0  0  0  0  0  0  0  0  0  0  0
   -7.7593   -3.3616    0.0000 H   0  0  0  0  0  0  0  0  0  0  0  0
   -5.6753   -1.1712    0.0000 H   0  0  0  0  0  0  0  0  0  0  0  0
    3.0827    0.3326    0.0000 O   0  0  0  0  0  0  0  0  0  0  0  0
    2.6160   -1.0930    0.0000 H   0  0  0  0  0  0  0  0  0  0  0  0
  1  2  1  0  0  0  0 
  1  3  1  0  0  0  0 
  1  4  1  0  0  0  0 
  1  5  1  0  0  0  0 
  5  6  1  0  0  0  0 
  5  7  1  0  0  0  0 
  5  8  1  0  0  0  0 
  8  9  1  0  0  0  0 
  8 10  1  0  0  0  0 
  8 11  1  0  0  0  0 
 11 12  1  0  0  0  0 
 11 13  1  0  0  0  0 
 11 14  1  0  0  0  0 
 14 15  1  0  0  0  0 
 14 16  1  0  0  0  0 
 14 17  1  0  0  0  0 
 17 18  1  0  0  0  0 
 17 19  1  0  0  0  0 
 17 20  1  0  0  0  0 
 20 21  1  0  0  0  0 
 20 22  1  0  0  0  0 
 22 23  1  0  0  0  0 
 22 24  1  0  0  0  0 
 22 25  1  0  0  0  0 
 25 26  2  0  0  0  0 
 26 27  1  0  0  0  0 
 26 28  1  0  0  0  0 
 28 29  1  0  0  0  0 
 28 30  2  0  0  0  0 
 30 31  1  0  0  0  0 
 31 32  1  0  0  0  0 
 31 33  2  0  0  0  0 
 25 33  1  0  0  0  0 
 33 34  1  0  0  0  0 
 30 35  1  0  0  0  0 
 35 36  1  0  0  0  0 
 35 37  1  0  0  0  0 
 35 38  1  0  0  0  0 
 38 39  1  0  0  0  0 
 38 40  1  0  0  0  0 
 38 41  1  0  0  0  0 
 41 42  1  0  0  0  0 
 42 43  1  0  0  0  0 
 42 44  1  0  0  0  0 
 42 45  1  0  0  0  0 
 45 46  1  0  0  0  0 
 41 47  1  0  0  0  0 
 47 48  1  0  0  0  0 
 47 49  1  0  0  0  0 
 47 50  1  0  0  0  0 
 50 51  1  0  0  0  0 
 41 52  1  0  0  0  0 
 52 53  1  0  0  0  0 
 52 54  1  0  0  0  0 
 20 55  1  0  0  0  0 
 55 56  1  0  0  0  0 
M  END
> <Rank>
13

> <Priority_score>
0.072

> <Reaction_type>
aliphatic hydroxylation

> <Parent_ID>
17

> <Parent_InChI>
InChI=1S/C19H33NO2/c1-2-3-4-5-6-7-8-17-9-11-18(12-10-17)13-14-19(20,15-21)16-22/h9-12,21-22H,2-8,13-16,20H2,1H3

> <Parent_SMILES>
CCCCCCCCc1ccc(CCC(N)(CO)CO)cc1

$$$$
Molecule 17_metabolite 15
  CDK     0516241031

 53 53  0  0  0  0  0  0  0  0999 V2000
  -10.2967    1.2795    0.0000 C   0  0  0  0  0  0  0  0  0  0  0  0
  -10.3458    2.7787    0.0000 H   0  0  0  0  0  0  0  0  0  0  0  0
  -10.7634   -0.1460    0.0000 H   0  0  0  0  0  0  0  0  0  0  0  0
  -11.7817    1.4916    0.0000 H   0  0  0  0  0  0  0  0  0  0  0  0
   -8.9739    0.5724    0.0000 C   0  0  0  0  0  0  0  0  0  0  0  0
   -9.9000   -0.6076    0.0000 H   0  0  0  0  0  0  0  0  0  0  0  0
   -7.9726   -0.5445    0.0000 H   0  0  0  0  0  0  0  0  0  0  0  0
   -7.7001    1.3645    0.0000 C   0  0  0  0  0  0  0  0  0  0  0  0
   -6.7740    2.5445    0.0000 H   0  0  0  0  0  0  0  0  0  0  0  0
   -8.7013    2.4814    0.0000 H   0  0  0  0  0  0  0  0  0  0  0  0
   -5.9539    0.4311    0.0000 C   0  0  0  0  0  0  0  0  0  0  0  0
   -6.8800   -0.7489    0.0000 H   0  0  0  0  0  0  0  0  0  0  0  0
   -4.9526   -0.6859    0.0000 H   0  0  0  0  0  0  0  0  0  0  0  0
   -4.6800    1.2231    0.0000 C   0  0  0  0  0  0  0  0  0  0  0  0
   -3.7539    2.4031    0.0000 H   0  0  0  0  0  0  0  0  0  0  0  0
   -5.6813    2.3401    0.0000 H   0  0  0  0  0  0  0  0  0  0  0  0
   -2.9339    0.2897    0.0000 C   0  0  0  0  0  0  0  0  0  0  0  0
   -3.8600   -0.8902    0.0000 H   0  0  0  0  0  0  0  0  0  0  0  0
   -1.9326   -0.8272    0.0000 H   0  0  0  0  0  0  0  0  0  0  0  0
   -1.2524    1.3353    0.0000 C   0  0  0  0  0  0  0  0  0  0  0  0
   -0.3263    2.5152    0.0000 H   0  0  0  0  0  0  0  0  0  0  0  0
   -2.2537    2.4522    0.0000 H   0  0  0  0  0  0  0  0  0  0  0  0
    0.4938    0.4018    0.0000 C   0  0  0  0  0  0  0  0  0  0  0  0
   -0.4323   -0.7781    0.0000 H   0  0  0  0  0  0  0  0  0  0  0  0
    1.4950   -0.7151    0.0000 H   0  0  0  0  0  0  0  0  0  0  0  0
    1.7676    1.1939    0.0000 C   0  0  0  0  0  0  0  0  0  0  0  0
    3.0371    0.4950    0.0000 C   0  0  0  0  0  0  0  0  0  0  0  0
    3.0473   -1.0049    0.0000 H   0  0  0  0  0  0  0  0  0  0  0  0
    4.3238    1.2264    0.0000 C   0  0  0  0  0  0  0  0  0  0  0  0
    5.6370    0.5014    0.0000 H   0  0  0  0  0  0  0  0  0  0  0  0
    4.2564    2.7232    0.0000 C   0  0  0  0  0  0  0  0  0  0  0  0
    2.9869    3.4221    0.0000 C   0  0  0  0  0  0  0  0  0  0  0  0
    2.9766    4.9220    0.0000 H   0  0  0  0  0  0  0  0  0  0  0  0
    1.7001    2.6907    0.0000 C   0  0  0  0  0  0  0  0  0  0  0  0
    0.3870    3.4157    0.0000 H   0  0  0  0  0  0  0  0  0  0  0  0
    5.5302    3.5153    0.0000 C   0  0  0  0  0  0  0  0  0  0  0  0
    6.4563    4.6952    0.0000 H   0  0  0  0  0  0  0  0  0  0  0  0
    4.5290    4.6322    0.0000 H   0  0  0  0  0  0  0  0  0  0  0  0
    8.1230    2.1293    0.0000 C   0  0  0  0  0  0  0  0  0  0  0  0
    7.1969    0.9493    0.0000 H   0  0  0  0  0  0  0  0  0  0  0  0
    9.1242    1.0124    0.0000 H   0  0  0  0  0  0  0  0  0  0  0  0
    9.3968    2.9214    0.0000 C   0  0  0  0  0  0  0  0  0  0  0  0
   10.3229    4.1013    0.0000 C   0  0  0  0  0  0  0  0  0  0  0  0
   11.8079    3.8893    0.0000 H   0  0  0  0  0  0  0  0  0  0  0  0
    9.7641    5.4933    0.0000 O   0  0  0  0  0  0  0  0  0  0  0  0
   11.1430    1.9879    0.0000 C   0  0  0  0  0  0  0  0  0  0  0  0
   10.2169    0.8080    0.0000 H   0  0  0  0  0  0  0  0  0  0  0  0
   12.1443    0.8710    0.0000 H   0  0  0  0  0  0  0  0  0  0  0  0
   12.4168    2.7800    0.0000 O   0  0  0  0  0  0  0  0  0  0  0  0
   13.7397    2.0729    0.0000 H   0  0  0  0  0  0  0  0  0  0  0  0
    8.3956    4.0383    0.0000 N   0  0  0  0  0  0  0  0  0  0  0  0
    8.8623    5.4638    0.0000 H   0  0  0  0  0  0  0  0  0  0  0  0
    6.9277    3.7297    0.0000 H   0  0  0  0  0  0  0  0  0  0  0  0
  1  2  1  0  0  0  0 
  1  3  1  0  0  0  0 
  1  4  1  0  0  0  0 
  1  5  1  0  0  0  0 
  5  6  1  0  0  0  0 
  5  7  1  0  0  0  0 
  5  8  1  0  0  0  0 
  8  9  1  0  0  0  0 
  8 10  1  0  0  0  0 
  8 11  1  0  0  0  0 
 11 12  1  0  0  0  0 
 11 13  1  0  0  0  0 
 11 14  1  0  0  0  0 
 14 15  1  0  0  0  0 
 14 16  1  0  0  0  0 
 14 17  1  0  0  0  0 
 17 18  1  0  0  0  0 
 17 19  1  0  0  0  0 
 17 20  1  0  0  0  0 
 20 21  1  0  0  0  0 
 20 22  1  0  0  0  0 
 20 23  1  0  0  0  0 
 23 24  1  0  0  0  0 
 23 25  1  0  0  0  0 
 23 26  1  0  0  0  0 
 26 27  2  0  0  0  0 
 27 28  1  0  0  0  0 
 27 29  1  0  0  0  0 
 29 30  1  0  0  0  0 
 29 31  2  0  0  0  0 
 31 32  1  0  0  0  0 
 32 33  1  0  0  0  0 
 32 34  2  0  0  0  0 
 26 34  1  0  0  0  0 
 34 35  1  0  0  0  0 
 31 36  1  0  0  0  0 
 36 37  1  0  0  0  0 
 36 38  1  0  0  0  0 
 36 39  1  0  0  0  0 
 39 40  1  0  0  0  0 
 39 41  1  0  0  0  0 
 39 42  1  0  0  0  0 
 42 43  1  0  0  0  0 
 43 44  1  0  0  0  0 
 43 45  2  0  0  0  0 
 42 46  1  0  0  0  0 
 46 47  1  0  0  0  0 
 46 48  1  0  0  0  0 
 46 49  1  0  0  0  0 
 49 50  1  0  0  0  0 
 42 51  1  0  0  0  0 
 51 52  1  0  0  0  0 
 51 53  1  0  0  0  0 
M  END
> <Rank>
15

> <Priority_score>
0.056

> <Reaction_type>
alcohol oxidation

> <Parent_ID>
17

> <Parent_InChI>
InChI=1S/C19H33NO2/c1-2-3-4-5-6-7-8-17-9-11-18(12-10-17)13-14-19(20,15-21)16-22/h9-12,21-22H,2-8,13-16,20H2,1H3

> <Parent_SMILES>
CCCCCCCCc1ccc(CCC(N)(CO)CO)cc1

$$$$
Molecule 17_metabolite 16
  CDK     0516241031

 56 56  0  0  0  0  0  0  0  0999 V2000
   10.8956   -2.9489    0.0000 C   0  0  0  0  0  0  0  0  0  0  0  0
   10.1885   -4.2718    0.0000 H   0  0  0  0  0  0  0  0  0  0  0  0
   12.0126   -1.9477    0.0000 H   0  0  0  0  0  0  0  0  0  0  0  0
   12.0756   -3.8750    0.0000 H   0  0  0  0  0  0  0  0  0  0  0  0
   10.1036   -1.6751    0.0000 C   0  0  0  0  0  0  0  0  0  0  0  0
   11.4956   -1.1163    0.0000 H   0  0  0  0  0  0  0  0  0  0  0  0
    9.7949   -0.2072    0.0000 H   0  0  0  0  0  0  0  0  0  0  0  0
    8.6044   -1.7241    0.0000 C   0  0  0  0  0  0  0  0  0  0  0  0
    7.2124   -2.2830    0.0000 H   0  0  0  0  0  0  0  0  0  0  0  0
    8.9130   -3.1920    0.0000 H   0  0  0  0  0  0  0  0  0  0  0  0
    7.5588   -0.0427    0.0000 C   0  0  0  0  0  0  0  0  0  0  0  0
    8.9508    0.5161    0.0000 H   0  0  0  0  0  0  0  0  0  0  0  0
    7.2502    1.4252    0.0000 H   0  0  0  0  0  0  0  0  0  0  0  0
    6.0596   -0.0917    0.0000 C   0  0  0  0  0  0  0  0  0  0  0  0
    4.6676   -0.6506    0.0000 H   0  0  0  0  0  0  0  0  0  0  0  0
    6.3683   -1.5596    0.0000 H   0  0  0  0  0  0  0  0  0  0  0  0
    5.0141    1.5897    0.0000 C   0  0  0  0  0  0  0  0  0  0  0  0
    6.4061    2.1486    0.0000 H   0  0  0  0  0  0  0  0  0  0  0  0
    4.7055    3.0576    0.0000 H   0  0  0  0  0  0  0  0  0  0  0  0
    3.0352    1.5250    0.0000 C   0  0  0  0  0  0  0  0  0  0  0  0
    1.6432    0.9661    0.0000 H   0  0  0  0  0  0  0  0  0  0  0  0
    3.3438    0.0571    0.0000 H   0  0  0  0  0  0  0  0  0  0  0  0
    1.9896    3.2064    0.0000 C   0  0  0  0  0  0  0  0  0  0  0  0
    3.3816    3.7653    0.0000 H   0  0  0  0  0  0  0  0  0  0  0  0
    1.6810    4.6743    0.0000 H   0  0  0  0  0  0  0  0  0  0  0  0
    0.4904    3.1574    0.0000 C   0  0  0  0  0  0  0  0  0  0  0  0
   -0.2596    4.3974    0.0000 C   0  0  0  0  0  0  0  0  0  0  0  0
    0.4816    5.7015    0.0000 H   0  0  0  0  0  0  0  0  0  0  0  0
   -1.7396    4.4074    0.0000 C   0  0  0  0  0  0  0  0  0  0  0  0
   -2.5143    5.6918    0.0000 H   0  0  0  0  0  0  0  0  0  0  0  0
   -2.4296    3.0774    0.0000 C   0  0  0  0  0  0  0  0  0  0  0  0
   -1.6796    1.8374    0.0000 C   0  0  0  0  0  0  0  0  0  0  0  0
   -2.4207    0.5333    0.0000 H   0  0  0  0  0  0  0  0  0  0  0  0
   -0.1996    1.8274    0.0000 C   0  0  0  0  0  0  0  0  0  0  0  0
    0.5752    0.5429    0.0000 H   0  0  0  0  0  0  0  0  0  0  0  0
   -3.9288    3.0283    0.0000 C   0  0  0  0  0  0  0  0  0  0  0  0
   -5.3208    2.4695    0.0000 H   0  0  0  0  0  0  0  0  0  0  0  0
   -3.6201    1.5604    0.0000 H   0  0  0  0  0  0  0  0  0  0  0  0
   -5.4812    5.5250    0.0000 C   0  0  0  0  0  0  0  0  0  0  0  0
   -4.0892    6.0839    0.0000 H   0  0  0  0  0  0  0  0  0  0  0  0
   -5.7898    6.9929    0.0000 H   0  0  0  0  0  0  0  0  0  0  0  0
   -6.9804    5.4760    0.0000 C   0  0  0  0  0  0  0  0  0  0  0  0
   -8.0259    7.1575    0.0000 C   0  0  0  0  0  0  0  0  0  0  0  0
   -6.6339    7.7163    0.0000 H   0  0  0  0  0  0  0  0  0  0  0  0
   -8.3346    8.6254    0.0000 H   0  0  0  0  0  0  0  0  0  0  0  0
   -9.5251    7.1084    0.0000 O   0  0  0  0  0  0  0  0  0  0  0  0
  -10.3172    8.3822    0.0000 H   0  0  0  0  0  0  0  0  0  0  0  0
   -8.8179    4.7383    0.0000 C   0  0  0  0  0  0  0  0  0  0  0  0
  -10.3171    4.6893    0.0000 H   0  0  0  0  0  0  0  0  0  0  0  0
   -9.0299    3.2534    0.0000 O   0  0  0  0  0  0  0  0  0  0  0  0
  -10.4219    2.6946    0.0000 H   0  0  0  0  0  0  0  0  0  0  0  0
   -9.1265    6.2062    0.0000 O   0  0  0  0  0  0  0  0  0  0  0  0
  -10.5521    6.6729    0.0000 H   0  0  0  0  0  0  0  0  0  0  0  0
   -6.6718    4.0081    0.0000 N   0  0  0  0  0  0  0  0  0  0  0  0
   -7.7887    3.0069    0.0000 H   0  0  0  0  0  0  0  0  0  0  0  0
   -5.2462    3.5414    0.0000 H   0  0  0  0  0  0  0  0  0  0  0  0
  1  2  1  0  0  0  0 
  1  3  1  0  0  0  0 
  1  4  1  0  0  0  0 
  1  5  1  0  0  0  0 
  5  6  1  0  0  0  0 
  5  7  1  0  0  0  0 
  5  8  1  0  0  0  0 
  8  9  1  0  0  0  0 
  8 10  1  0  0  0  0 
  8 11  1  0  0  0  0 
 11 12  1  0  0  0  0 
 11 13  1  0  0  0  0 
 11 14  1  0  0  0  0 
 14 15  1  0  0  0  0 
 14 16  1  0  0  0  0 
 14 17  1  0  0  0  0 
 17 18  1  0  0  0  0 
 17 19  1  0  0  0  0 
 17 20  1  0  0  0  0 
 20 21  1  0  0  0  0 
 20 22  1  0  0  0  0 
 20 23  1  0  0  0  0 
 23 24  1  0  0  0  0 
 23 25  1  0  0  0  0 
 23 26  1  0  0  0  0 
 26 27  2  0  0  0  0 
 27 28  1  0  0  0  0 
 27 29  1  0  0  0  0 
 29 30  1  0  0  0  0 
 29 31  2  0  0  0  0 
 31 32  1  0  0  0  0 
 32 33  1  0  0  0  0 
 32 34  2  0  0  0  0 
 26 34  1  0  0  0  0 
 34 35  1  0  0  0  0 
 31 36  1  0  0  0  0 
 36 37  1  0  0  0  0 
 36 38  1  0  0  0  0 
 36 39  1  0  0  0  0 
 39 40  1  0  0  0  0 
 39 41  1  0  0  0  0 
 39 42  1  0  0  0  0 
 42 43  1  0  0  0  0 
 43 44  1  0  0  0  0 
 43 45  1  0  0  0  0 
 43 46  1  0  0  0  0 
 46 47  1  0  0  0  0 
 42 48  1  0  0  0  0 
 48 49  1  0  0  0  0 
 48 50  1  0  0  0  0 
 50 51  1  0  0  0  0 
 48 52  1  0  0  0  0 
 52 53  1  0  0  0  0 
 42 54  1  0  0  0  0 
 54 55  1  0  0  0  0 
 54 56  1  0  0  0  0 
M  END
> <Rank>
15

> <Priority_score>
0.056

> <Reaction_type>
aliphatic hydroxylation

> <Parent_ID>
17

> <Parent_InChI>
InChI=1S/C19H33NO2/c1-2-3-4-5-6-7-8-17-9-11-18(12-10-17)13-14-19(20,15-21)16-22/h9-12,21-22H,2-8,13-16,20H2,1H3

> <Parent_SMILES>
CCCCCCCCc1ccc(CCC(N)(CO)CO)cc1

$$$$
Molecule 17_metabolite 17
  CDK     0516241031

 54 54  0  0  0  0  0  0  0  0999 V2000
   12.4495    2.2612    0.0000 C   0  0  0  0  0  0  0  0  0  0  0  0
   12.4986    0.7620    0.0000 H   0  0  0  0  0  0  0  0  0  0  0  0
   12.9162    3.6867    0.0000 H   0  0  0  0  0  0  0  0  0  0  0  0
   13.9345    2.0491    0.0000 H   0  0  0  0  0  0  0  0  0  0  0  0
   11.1267    2.9683    0.0000 C   0  0  0  0  0  0  0  0  0  0  0  0
   12.0528    4.1483    0.0000 H   0  0  0  0  0  0  0  0  0  0  0  0
   10.1254    4.0852    0.0000 H   0  0  0  0  0  0  0  0  0  0  0  0
    9.8528    2.1762    0.0000 C   0  0  0  0  0  0  0  0  0  0  0  0
    8.9267    0.9963    0.0000 H   0  0  0  0  0  0  0  0  0  0  0  0
   10.8541    1.0593    0.0000 H   0  0  0  0  0  0  0  0  0  0  0  0
    8.1067    3.1097    0.0000 C   0  0  0  0  0  0  0  0  0  0  0  0
    9.0328    4.2896    0.0000 H   0  0  0  0  0  0  0  0  0  0  0  0
    7.1054    4.2266    0.0000 H   0  0  0  0  0  0  0  0  0  0  0  0
    6.8328    2.3176    0.0000 C   0  0  0  0  0  0  0  0  0  0  0  0
    5.9067    1.1376    0.0000 H   0  0  0  0  0  0  0  0  0  0  0  0
    7.8341    1.2007    0.0000 H   0  0  0  0  0  0  0  0  0  0  0  0
    5.0867    3.2510    0.0000 C   0  0  0  0  0  0  0  0  0  0  0  0
    6.0128    4.4310    0.0000 H   0  0  0  0  0  0  0  0  0  0  0  0
    4.0854    4.3679    0.0000 H   0  0  0  0  0  0  0  0  0  0  0  0
    3.4052    2.2055    0.0000 C   0  0  0  0  0  0  0  0  0  0  0  0
    2.4791    1.0255    0.0000 H   0  0  0  0  0  0  0  0  0  0  0  0
    4.4064    1.0885    0.0000 H   0  0  0  0  0  0  0  0  0  0  0  0
    1.6590    3.1389    0.0000 C   0  0  0  0  0  0  0  0  0  0  0  0
    2.5851    4.3189    0.0000 H   0  0  0  0  0  0  0  0  0  0  0  0
    0.6578    4.2558    0.0000 H   0  0  0  0  0  0  0  0  0  0  0  0
    0.3852    2.3468    0.0000 C   0  0  0  0  0  0  0  0  0  0  0  0
   -0.8843    3.0457    0.0000 C   0  0  0  0  0  0  0  0  0  0  0  0
   -0.8945    4.5456    0.0000 H   0  0  0  0  0  0  0  0  0  0  0  0
   -2.1710    2.3143    0.0000 C   0  0  0  0  0  0  0  0  0  0  0  0
   -3.4842    3.0393    0.0000 H   0  0  0  0  0  0  0  0  0  0  0  0
   -2.1036    0.8175    0.0000 C   0  0  0  0  0  0  0  0  0  0  0  0
   -0.8341    0.1187    0.0000 C   0  0  0  0  0  0  0  0  0  0  0  0
   -0.8239   -1.3813    0.0000 H   0  0  0  0  0  0  0  0  0  0  0  0
    0.4527    0.8500    0.0000 C   0  0  0  0  0  0  0  0  0  0  0  0
    1.7658    0.1250    0.0000 H   0  0  0  0  0  0  0  0  0  0  0  0
   -3.3774    0.0255    0.0000 C   0  0  0  0  0  0  0  0  0  0  0  0
   -4.3035   -1.1545    0.0000 H   0  0  0  0  0  0  0  0  0  0  0  0
   -2.3762   -1.0915    0.0000 H   0  0  0  0  0  0  0  0  0  0  0  0
   -5.9702    1.4114    0.0000 C   0  0  0  0  0  0  0  0  0  0  0  0
   -5.0441    2.5914    0.0000 H   0  0  0  0  0  0  0  0  0  0  0  0
   -6.9715    2.5284    0.0000 H   0  0  0  0  0  0  0  0  0  0  0  0
   -7.2440    0.6194    0.0000 C   0  0  0  0  0  0  0  0  0  0  0  0
   -8.9902    1.5528    0.0000 C   0  0  0  0  0  0  0  0  0  0  0  0
   -8.0641    2.7327    0.0000 H   0  0  0  0  0  0  0  0  0  0  0  0
   -9.9915    2.6697    0.0000 H   0  0  0  0  0  0  0  0  0  0  0  0
  -10.2640    0.7607    0.0000 O   0  0  0  0  0  0  0  0  0  0  0  0
  -11.5869    1.4678    0.0000 H   0  0  0  0  0  0  0  0  0  0  0  0
   -8.1701   -0.5606    0.0000 C   0  0  0  0  0  0  0  0  0  0  0  0
   -7.6113   -1.9526    0.0000 O   0  0  0  0  0  0  0  0  0  0  0  0
   -9.6551   -0.3486    0.0000 O   0  0  0  0  0  0  0  0  0  0  0  0
  -10.5812   -1.5285    0.0000 H   0  0  0  0  0  0  0  0  0  0  0  0
   -6.2428   -0.4976    0.0000 N   0  0  0  0  0  0  0  0  0  0  0  0
   -6.7095   -1.9231    0.0000 H   0  0  0  0  0  0  0  0  0  0  0  0
   -4.7749   -0.1889    0.0000 H   0  0  0  0  0  0  0  0  0  0  0  0
  1  2  1  0  0  0  0 
  1  3  1  0  0  0  0 
  1  4  1  0  0  0  0 
  1  5  1  0  0  0  0 
  5  6  1  0  0  0  0 
  5  7  1  0  0  0  0 
  5  8  1  0  0  0  0 
  8  9  1  0  0  0  0 
  8 10  1  0  0  0  0 
  8 11  1  0  0  0  0 
 11 12  1  0  0  0  0 
 11 13  1  0  0  0  0 
 11 14  1  0  0  0  0 
 14 15  1  0  0  0  0 
 14 16  1  0  0  0  0 
 14 17  1  0  0  0  0 
 17 18  1  0  0  0  0 
 17 19  1  0  0  0  0 
 17 20  1  0  0  0  0 
 20 21  1  0  0  0  0 
 20 22  1  0  0  0  0 
 20 23  1  0  0  0  0 
 23 24  1  0  0  0  0 
 23 25  1  0  0  0  0 
 23 26  1  0  0  0  0 
 26 27  2  0  0  0  0 
 27 28  1  0  0  0  0 
 27 29  1  0  0  0  0 
 29 30  1  0  0  0  0 
 29 31  2  0  0  0  0 
 31 32  1  0  0  0  0 
 32 33  1  0  0  0  0 
 32 34  2  0  0  0  0 
 26 34  1  0  0  0  0 
 34 35  1  0  0  0  0 
 31 36  1  0  0  0  0 
 36 37  1  0  0  0  0 
 36 38  1  0  0  0  0 
 36 39  1  0  0  0  0 
 39 40  1  0  0  0  0 
 39 41  1  0  0  0  0 
 39 42  1  0  0  0  0 
 42 43  1  0  0  0  0 
 43 44  1  0  0  0  0 
 43 45  1  0  0  0  0 
 43 46  1  0  0  0  0 
 46 47  1  0  0  0  0 
 42 48  1  0  0  0  0 
 48 49  2  0  0  0  0 
 48 50  1  0  0  0  0 
 50 51  1  0  0  0  0 
 42 52  1  0  0  0  0 
 52 53  1  0  0  0  0 
 52 54  1  0  0  0  0 
M  END
> <Rank>
15

> <Priority_score>
0.056

> <Reaction_type>
primary_alcohol_oxidation_(aliphatic)

> <Parent_ID>
17

> <Parent_InChI>
InChI=1S/C19H33NO2/c1-2-3-4-5-6-7-8-17-9-11-18(12-10-17)13-14-19(20,15-21)16-22/h9-12,21-22H,2-8,13-16,20H2,1H3

> <Parent_SMILES>
CCCCCCCCc1ccc(CCC(N)(CO)CO)cc1

$$$$
Molecule 17_metabolite 18
  CDK     0516241031

 56 56  0  0  0  0  0  0  0  0999 V2000
   -9.9789    7.7450    0.0000 C   0  0  0  0  0  0  0  0  0  0  0  0
  -11.4781    7.6960    0.0000 H   0  0  0  0  0  0  0  0  0  0  0  0
   -8.5869    8.3039    0.0000 H   0  0  0  0  0  0  0  0  0  0  0  0
  -10.2875    9.2129    0.0000 H   0  0  0  0  0  0  0  0  0  0  0  0
   -8.6799    5.6560    0.0000 C   0  0  0  0  0  0  0  0  0  0  0  0
  -10.0719    5.0971    0.0000 H   0  0  0  0  0  0  0  0  0  0  0  0
   -8.3713    4.1880    0.0000 H   0  0  0  0  0  0  0  0  0  0  0  0
   -7.1807    5.7050    0.0000 C   0  0  0  0  0  0  0  0  0  0  0  0
   -5.7887    6.2638    0.0000 H   0  0  0  0  0  0  0  0  0  0  0  0
   -6.1352    4.0235    0.0000 C   0  0  0  0  0  0  0  0  0  0  0  0
   -7.5272    3.4647    0.0000 H   0  0  0  0  0  0  0  0  0  0  0  0
   -5.8265    2.5556    0.0000 H   0  0  0  0  0  0  0  0  0  0  0  0
   -4.1562    4.0883    0.0000 C   0  0  0  0  0  0  0  0  0  0  0  0
   -2.7642    4.6471    0.0000 H   0  0  0  0  0  0  0  0  0  0  0  0
   -4.4648    5.5562    0.0000 H   0  0  0  0  0  0  0  0  0  0  0  0
   -3.1107    2.4068    0.0000 C   0  0  0  0  0  0  0  0  0  0  0  0
   -4.5027    1.8480    0.0000 H   0  0  0  0  0  0  0  0  0  0  0  0
   -2.8021    0.9389    0.0000 H   0  0  0  0  0  0  0  0  0  0  0  0
   -1.1317    2.4716    0.0000 C   0  0  0  0  0  0  0  0  0  0  0  0
    0.2603    3.0304    0.0000 H   0  0  0  0  0  0  0  0  0  0  0  0
   -1.4404    3.9395    0.0000 H   0  0  0  0  0  0  0  0  0  0  0  0
   -0.0862    0.7901    0.0000 C   0  0  0  0  0  0  0  0  0  0  0  0
   -1.4782    0.2313    0.0000 H   0  0  0  0  0  0  0  0  0  0  0  0
    0.2224   -0.6778    0.0000 H   0  0  0  0  0  0  0  0  0  0  0  0
    1.4130    0.8392    0.0000 C   0  0  0  0  0  0  0  0  0  0  0  0
    2.1630   -0.4008    0.0000 C   0  0  0  0  0  0  0  0  0  0  0  0
    1.4219   -1.7050    0.0000 H   0  0  0  0  0  0  0  0  0  0  0  0
    3.6430   -0.4108    0.0000 C   0  0  0  0  0  0  0  0  0  0  0  0
    4.4177   -1.6953    0.0000 H   0  0  0  0  0  0  0  0  0  0  0  0
    4.3330    0.9192    0.0000 C   0  0  0  0  0  0  0  0  0  0  0  0
    3.5830    2.1592    0.0000 C   0  0  0  0  0  0  0  0  0  0  0  0
    4.3241    3.4633    0.0000 H   0  0  0  0  0  0  0  0  0  0  0  0
    2.1030    2.1692    0.0000 C   0  0  0  0  0  0  0  0  0  0  0  0
    1.3283    3.4536    0.0000 H   0  0  0  0  0  0  0  0  0  0  0  0
    5.8322    0.9682    0.0000 C   0  0  0  0  0  0  0  0  0  0  0  0
    7.2242    1.5270    0.0000 H   0  0  0  0  0  0  0  0  0  0  0  0
    5.5236    2.4361    0.0000 H   0  0  0  0  0  0  0  0  0  0  0  0
    7.3846   -1.5285    0.0000 C   0  0  0  0  0  0  0  0  0  0  0  0
    5.9926   -2.0873    0.0000 H   0  0  0  0  0  0  0  0  0  0  0  0
    7.6933   -2.9964    0.0000 H   0  0  0  0  0  0  0  0  0  0  0  0
    8.8838   -1.4795    0.0000 C   0  0  0  0  0  0  0  0  0  0  0  0
    9.9294   -3.1609    0.0000 C   0  0  0  0  0  0  0  0  0  0  0  0
    8.5374   -3.7197    0.0000 H   0  0  0  0  0  0  0  0  0  0  0  0
   10.2380   -4.6288    0.0000 H   0  0  0  0  0  0  0  0  0  0  0  0
   11.4286   -3.1119    0.0000 O   0  0  0  0  0  0  0  0  0  0  0  0
   12.2206   -4.3857    0.0000 H   0  0  0  0  0  0  0  0  0  0  0  0
   10.2759   -0.9206    0.0000 C   0  0  0  0  0  0  0  0  0  0  0  0
   11.3928    0.0806    0.0000 H   0  0  0  0  0  0  0  0  0  0  0  0
    9.4838    0.3532    0.0000 H   0  0  0  0  0  0  0  0  0  0  0  0
   11.4558   -1.8467    0.0000 O   0  0  0  0  0  0  0  0  0  0  0  0
   12.8478   -1.2879    0.0000 H   0  0  0  0  0  0  0  0  0  0  0  0
    8.5752   -0.0116    0.0000 N   0  0  0  0  0  0  0  0  0  0  0  0
   10.0496    1.3101    0.0000 H   0  0  0  0  0  0  0  0  0  0  0  0
    7.1497    0.4551    0.0000 H   0  0  0  0  0  0  0  0  0  0  0  0
   -7.4893    7.1729    0.0000 O   0  0  0  0  0  0  0  0  0  0  0  0
   -6.3724    8.1741    0.0000 H   0  0  0  0  0  0  0  0  0  0  0  0
  1  2  1  0  0  0  0 
  1  3  1  0  0  0  0 
  1  4  1  0  0  0  0 
  1  5  1  0  0  0  0 
  5  6  1  0  0  0  0 
  5  7  1  0  0  0  0 
  5  8  1  0  0  0  0 
  8  9  1  0  0  0  0 
  8 10  1  0  0  0  0 
 10 11  1  0  0  0  0 
 10 12  1  0  0  0  0 
 10 13  1  0  0  0  0 
 13 14  1  0  0  0  0 
 13 15  1  0  0  0  0 
 13 16  1  0  0  0  0 
 16 17  1  0  0  0  0 
 16 18  1  0  0  0  0 
 16 19  1  0  0  0  0 
 19 20  1  0  0  0  0 
 19 21  1  0  0  0  0 
 19 22  1  0  0  0  0 
 22 23  1  0  0  0  0 
 22 24  1  0  0  0  0 
 22 25  1  0  0  0  0 
 25 26  2  0  0  0  0 
 26 27  1  0  0  0  0 
 26 28  1  0  0  0  0 
 28 29  1  0  0  0  0 
 28 30  2  0  0  0  0 
 30 31  1  0  0  0  0 
 31 32  1  0  0  0  0 
 31 33  2  0  0  0  0 
 25 33  1  0  0  0  0 
 33 34  1  0  0  0  0 
 30 35  1  0  0  0  0 
 35 36  1  0  0  0  0 
 35 37  1  0  0  0  0 
 35 38  1  0  0  0  0 
 38 39  1  0  0  0  0 
 38 40  1  0  0  0  0 
 38 41  1  0  0  0  0 
 41 42  1  0  0  0  0 
 42 43  1  0  0  0  0 
 42 44  1  0  0  0  0 
 42 45  1  0  0  0  0 
 45 46  1  0  0  0  0 
 41 47  1  0  0  0  0 
 47 48  1  0  0  0  0 
 47 49  1  0  0  0  0 
 47 50  1  0  0  0  0 
 50 51  1  0  0  0  0 
 41 52  1  0  0  0  0 
 52 53  1  0  0  0  0 
 52 54  1  0  0  0  0 
  8 55  1  0  0  0  0 
 55 56  1  0  0  0  0 
M  END
> <Rank>
18

> <Priority_score>
0.04

> <Reaction_type>
aliphatic hydroxylation

> <Parent_ID>
17

> <Parent_InChI>
InChI=1S/C19H33NO2/c1-2-3-4-5-6-7-8-17-9-11-18(12-10-17)13-14-19(20,15-21)16-22/h9-12,21-22H,2-8,13-16,20H2,1H3

> <Parent_SMILES>
CCCCCCCCc1ccc(CCC(N)(CO)CO)cc1

$$$$
Molecule 17_metabolite 19
  CDK     0516241031

 56 56  0  0  0  0  0  0  0  0999 V2000
   12.1291    2.6186    0.0000 C   0  0  0  0  0  0  0  0  0  0  0  0
   12.1782    1.1194    0.0000 H   0  0  0  0  0  0  0  0  0  0  0  0
   12.5958    4.0442    0.0000 H   0  0  0  0  0  0  0  0  0  0  0  0
   13.6141    2.4066    0.0000 H   0  0  0  0  0  0  0  0  0  0  0  0
   10.8063    3.3257    0.0000 C   0  0  0  0  0  0  0  0  0  0  0  0
   11.7324    4.5057    0.0000 H   0  0  0  0  0  0  0  0  0  0  0  0
    9.8050    4.4427    0.0000 H   0  0  0  0  0  0  0  0  0  0  0  0
    9.5325    2.5337    0.0000 C   0  0  0  0  0  0  0  0  0  0  0  0
    8.6064    1.3537    0.0000 H   0  0  0  0  0  0  0  0  0  0  0  0
   10.5337    1.4167    0.0000 H   0  0  0  0  0  0  0  0  0  0  0  0
    7.7863    3.4671    0.0000 C   0  0  0  0  0  0  0  0  0  0  0  0
    8.7124    4.6470    0.0000 H   0  0  0  0  0  0  0  0  0  0  0  0
    6.7850    4.5840    0.0000 H   0  0  0  0  0  0  0  0  0  0  0  0
    6.5124    2.6750    0.0000 C   0  0  0  0  0  0  0  0  0  0  0  0
    5.5863    1.4950    0.0000 H   0  0  0  0  0  0  0  0  0  0  0  0
    7.5137    1.5581    0.0000 H   0  0  0  0  0  0  0  0  0  0  0  0
    4.7663    3.6084    0.0000 C   0  0  0  0  0  0  0  0  0  0  0  0
    5.6924    4.7884    0.0000 H   0  0  0  0  0  0  0  0  0  0  0  0
    3.7650    4.7253    0.0000 H   0  0  0  0  0  0  0  0  0  0  0  0
    3.0848    2.5629    0.0000 C   0  0  0  0  0  0  0  0  0  0  0  0
    2.1587    1.3829    0.0000 H   0  0  0  0  0  0  0  0  0  0  0  0
    4.0861    1.4460    0.0000 H   0  0  0  0  0  0  0  0  0  0  0  0
    1.3386    3.4963    0.0000 C   0  0  0  0  0  0  0  0  0  0  0  0
    2.2647    4.6763    0.0000 H   0  0  0  0  0  0  0  0  0  0  0  0
    0.3374    4.6132    0.0000 H   0  0  0  0  0  0  0  0  0  0  0  0
    0.0648    2.7042    0.0000 C   0  0  0  0  0  0  0  0  0  0  0  0
   -1.2047    3.4031    0.0000 C   0  0  0  0  0  0  0  0  0  0  0  0
   -1.2149    4.9031    0.0000 H   0  0  0  0  0  0  0  0  0  0  0  0
   -2.4914    2.6718    0.0000 C   0  0  0  0  0  0  0  0  0  0  0  0
   -3.8046    3.3968    0.0000 H   0  0  0  0  0  0  0  0  0  0  0  0
   -2.4240    1.1749    0.0000 C   0  0  0  0  0  0  0  0  0  0  0  0
   -1.1545    0.4761    0.0000 C   0  0  0  0  0  0  0  0  0  0  0  0
   -1.1442   -1.0239    0.0000 H   0  0  0  0  0  0  0  0  0  0  0  0
    0.1323    1.2074    0.0000 C   0  0  0  0  0  0  0  0  0  0  0  0
    1.4454    0.4824    0.0000 H   0  0  0  0  0  0  0  0  0  0  0  0
   -3.6978    0.3829    0.0000 C   0  0  0  0  0  0  0  0  0  0  0  0
   -4.6239   -0.7971    0.0000 H   0  0  0  0  0  0  0  0  0  0  0  0
   -2.6966   -0.7341    0.0000 H   0  0  0  0  0  0  0  0  0  0  0  0
   -6.2906    1.7688    0.0000 C   0  0  0  0  0  0  0  0  0  0  0  0
   -5.3645    2.9488    0.0000 H   0  0  0  0  0  0  0  0  0  0  0  0
   -7.5644    0.9768    0.0000 C   0  0  0  0  0  0  0  0  0  0  0  0
   -9.3106    1.9102    0.0000 C   0  0  0  0  0  0  0  0  0  0  0  0
   -8.3845    3.0902    0.0000 H   0  0  0  0  0  0  0  0  0  0  0  0
  -10.3118    3.0271    0.0000 H   0  0  0  0  0  0  0  0  0  0  0  0
  -10.5844    1.1181    0.0000 O   0  0  0  0  0  0  0  0  0  0  0  0
  -11.9073    1.8253    0.0000 H   0  0  0  0  0  0  0  0  0  0  0  0
   -8.4905   -0.2032    0.0000 C   0  0  0  0  0  0  0  0  0  0  0  0
   -8.9572   -1.6288    0.0000 H   0  0  0  0  0  0  0  0  0  0  0  0
   -7.1677   -0.9103    0.0000 H   0  0  0  0  0  0  0  0  0  0  0  0
   -9.9755    0.0088    0.0000 O   0  0  0  0  0  0  0  0  0  0  0  0
  -10.9016   -1.1711    0.0000 H   0  0  0  0  0  0  0  0  0  0  0  0
   -6.5632   -0.1401    0.0000 N   0  0  0  0  0  0  0  0  0  0  0  0
   -7.1792   -2.0219    0.0000 H   0  0  0  0  0  0  0  0  0  0  0  0
   -5.0953    0.1685    0.0000 H   0  0  0  0  0  0  0  0  0  0  0  0
   -7.2918    2.8858    0.0000 O   0  0  0  0  0  0  0  0  0  0  0  0
   -6.8252    4.3113    0.0000 H   0  0  0  0  0  0  0  0  0  0  0  0
  1  2  1  0  0  0  0 
  1  3  1  0  0  0  0 
  1  4  1  0  0  0  0 
  1  5  1  0  0  0  0 
  5  6  1  0  0  0  0 
  5  7  1  0  0  0  0 
  5  8  1  0  0  0  0 
  8  9  1  0  0  0  0 
  8 10  1  0  0  0  0 
  8 11  1  0  0  0  0 
 11 12  1  0  0  0  0 
 11 13  1  0  0  0  0 
 11 14  1  0  0  0  0 
 14 15  1  0  0  0  0 
 14 16  1  0  0  0  0 
 14 17  1  0  0  0  0 
 17 18  1  0  0  0  0 
 17 19  1  0  0  0  0 
 17 20  1  0  0  0  0 
 20 21  1  0  0  0  0 
 20 22  1  0  0  0  0 
 20 23  1  0  0  0  0 
 23 24  1  0  0  0  0 
 23 25  1  0  0  0  0 
 23 26  1  0  0  0  0 
 26 27  2  0  0  0  0 
 27 28  1  0  0  0  0 
 27 29  1  0  0  0  0 
 29 30  1  0  0  0  0 
 29 31  2  0  0  0  0 
 31 32  1  0  0  0  0 
 32 33  1  0  0  0  0 
 32 34  2  0  0  0  0 
 26 34  1  0  0  0  0 
 34 35  1  0  0  0  0 
 31 36  1  0  0  0  0 
 36 37  1  0  0  0  0 
 36 38  1  0  0  0  0 
 36 39  1  0  0  0  0 
 39 40  1  0  0  0  0 
 39 41  1  0  0  0  0 
 41 42  1  0  0  0  0 
 42 43  1  0  0  0  0 
 42 44  1  0  0  0  0 
 42 45  1  0  0  0  0 
 45 46  1  0  0  0  0 
 41 47  1  0  0  0  0 
 47 48  1  0  0  0  0 
 47 49  1  0  0  0  0 
 47 50  1  0  0  0  0 
 50 51  1  0  0  0  0 
 41 52  1  0  0  0  0 
 52 53  1  0  0  0  0 
 52 54  1  0  0  0  0 
 39 55  1  0  0  0  0 
 55 56  1  0  0  0  0 
M  END
> <Rank>
19

> <Priority_score>
0.036

> <Reaction_type>
aliphatic hydroxylation

> <Parent_ID>
17

> <Parent_InChI>
InChI=1S/C19H33NO2/c1-2-3-4-5-6-7-8-17-9-11-18(12-10-17)13-14-19(20,15-21)16-22/h9-12,21-22H,2-8,13-16,20H2,1H3

> <Parent_SMILES>
CCCCCCCCc1ccc(CCC(N)(CO)CO)cc1

$$$$
Molecule 17_metabolite 20
  CDK     0516241031

 56 56  0  0  0  0  0  0  0  0999 V2000
   10.2242    8.2758    0.0000 C   0  0  0  0  0  0  0  0  0  0  0  0
   11.0163    7.0020    0.0000 H   0  0  0  0  0  0  0  0  0  0  0  0
    9.9156    9.7437    0.0000 H   0  0  0  0  0  0  0  0  0  0  0  0
   11.6162    8.8346    0.0000 H   0  0  0  0  0  0  0  0  0  0  0  0
    8.7250    8.2268    0.0000 C   0  0  0  0  0  0  0  0  0  0  0  0
    8.9371    9.7117    0.0000 H   0  0  0  0  0  0  0  0  0  0  0  0
    7.2995    8.6934    0.0000 H   0  0  0  0  0  0  0  0  0  0  0  0
    8.0179    6.9039    0.0000 C   0  0  0  0  0  0  0  0  0  0  0  0
    7.8059    5.4190    0.0000 H   0  0  0  0  0  0  0  0  0  0  0  0
    9.4435    6.4372    0.0000 H   0  0  0  0  0  0  0  0  0  0  0  0
    6.0390    6.8392    0.0000 C   0  0  0  0  0  0  0  0  0  0  0  0
    6.2510    8.3241    0.0000 H   0  0  0  0  0  0  0  0  0  0  0  0
    4.6134    7.3058    0.0000 H   0  0  0  0  0  0  0  0  0  0  0  0
    5.3318    5.5163    0.0000 C   0  0  0  0  0  0  0  0  0  0  0  0
    5.1198    4.0314    0.0000 H   0  0  0  0  0  0  0  0  0  0  0  0
    6.7574    5.0496    0.0000 H   0  0  0  0  0  0  0  0  0  0  0  0
    3.3529    5.4516    0.0000 C   0  0  0  0  0  0  0  0  0  0  0  0
    3.5649    6.9365    0.0000 H   0  0  0  0  0  0  0  0  0  0  0  0
    1.9273    5.9182    0.0000 H   0  0  0  0  0  0  0  0  0  0  0  0
    2.4195    3.7054    0.0000 C   0  0  0  0  0  0  0  0  0  0  0  0
    2.2074    2.2204    0.0000 H   0  0  0  0  0  0  0  0  0  0  0  0
    3.8450    3.2387    0.0000 H   0  0  0  0  0  0  0  0  0  0  0  0
    0.4405    3.6407    0.0000 C   0  0  0  0  0  0  0  0  0  0  0  0
    0.6526    5.1256    0.0000 H   0  0  0  0  0  0  0  0  0  0  0  0
   -0.9850    4.1073    0.0000 H   0  0  0  0  0  0  0  0  0  0  0  0
   -0.2666    2.3178    0.0000 C   0  0  0  0  0  0  0  0  0  0  0  0
   -1.7155    2.2883    0.0000 C   0  0  0  0  0  0  0  0  0  0  0  0
   -2.4743    3.5822    0.0000 H   0  0  0  0  0  0  0  0  0  0  0  0
   -2.4641    1.0116    0.0000 C   0  0  0  0  0  0  0  0  0  0  0  0
   -3.9639    0.9829    0.0000 H   0  0  0  0  0  0  0  0  0  0  0  0
   -1.6573   -0.2510    0.0000 C   0  0  0  0  0  0  0  0  0  0  0  0
   -0.2084   -0.2215    0.0000 C   0  0  0  0  0  0  0  0  0  0  0  0
    0.5504   -1.5154    0.0000 H   0  0  0  0  0  0  0  0  0  0  0  0
    0.5402    1.0552    0.0000 C   0  0  0  0  0  0  0  0  0  0  0  0
    2.0399    1.0839    0.0000 H   0  0  0  0  0  0  0  0  0  0  0  0
   -2.3644   -1.5739    0.0000 C   0  0  0  0  0  0  0  0  0  0  0  0
   -2.5765   -3.0588    0.0000 H   0  0  0  0  0  0  0  0  0  0  0  0
   -0.9389   -2.0405    0.0000 H   0  0  0  0  0  0  0  0  0  0  0  0
   -5.3029   -1.6700    0.0000 C   0  0  0  0  0  0  0  0  0  0  0  0
   -5.0908   -0.1850    0.0000 H   0  0  0  0  0  0  0  0  0  0  0  0
   -6.7284   -1.2033    0.0000 H   0  0  0  0  0  0  0  0  0  0  0  0
   -6.0100   -2.9928    0.0000 C   0  0  0  0  0  0  0  0  0  0  0  0
   -7.9889   -3.0576    0.0000 C   0  0  0  0  0  0  0  0  0  0  0  0
   -7.7769   -1.5726    0.0000 H   0  0  0  0  0  0  0  0  0  0  0  0
   -9.4145   -2.5909    0.0000 H   0  0  0  0  0  0  0  0  0  0  0  0
   -8.6961   -4.3804    0.0000 O   0  0  0  0  0  0  0  0  0  0  0  0
  -10.1953   -4.4295    0.0000 H   0  0  0  0  0  0  0  0  0  0  0  0
   -6.2220   -4.4778    0.0000 C   0  0  0  0  0  0  0  0  0  0  0  0
   -5.9134   -5.9457    0.0000 H   0  0  0  0  0  0  0  0  0  0  0  0
   -4.7228   -4.4287    0.0000 H   0  0  0  0  0  0  0  0  0  0  0  0
   -7.6141   -5.0366    0.0000 O   0  0  0  0  0  0  0  0  0  0  0  0
   -7.8261   -6.5216    0.0000 H   0  0  0  0  0  0  0  0  0  0  0  0
   -4.5844   -3.4595    0.0000 N   0  0  0  0  0  0  0  0  0  0  0  0
   -3.4675   -2.4583    0.0000 H   0  0  0  0  0  0  0  0  0  0  0  0
   -4.1771   -5.3972    0.0000 O   0  0  0  0  0  0  0  0  0  0  0  0
   -2.7515   -5.8638    0.0000 H   0  0  0  0  0  0  0  0  0  0  0  0
  1  2  1  0  0  0  0 
  1  3  1  0  0  0  0 
  1  4  1  0  0  0  0 
  1  5  1  0  0  0  0 
  5  6  1  0  0  0  0 
  5  7  1  0  0  0  0 
  5  8  1  0  0  0  0 
  8  9  1  0  0  0  0 
  8 10  1  0  0  0  0 
  8 11  1  0  0  0  0 
 11 12  1  0  0  0  0 
 11 13  1  0  0  0  0 
 11 14  1  0  0  0  0 
 14 15  1  0  0  0  0 
 14 16  1  0  0  0  0 
 14 17  1  0  0  0  0 
 17 18  1  0  0  0  0 
 17 19  1  0  0  0  0 
 17 20  1  0  0  0  0 
 20 21  1  0  0  0  0 
 20 22  1  0  0  0  0 
 20 23  1  0  0  0  0 
 23 24  1  0  0  0  0 
 23 25  1  0  0  0  0 
 23 26  1  0  0  0  0 
 26 27  2  0  0  0  0 
 27 28  1  0  0  0  0 
 27 29  1  0  0  0  0 
 29 30  1  0  0  0  0 
 29 31  2  0  0  0  0 
 31 32  1  0  0  0  0 
 32 33  1  0  0  0  0 
 32 34  2  0  0  0  0 
 26 34  1  0  0  0  0 
 34 35  1  0  0  0  0 
 31 36  1  0  0  0  0 
 36 37  1  0  0  0  0 
 36 38  1  0  0  0  0 
 36 39  1  0  0  0  0 
 39 40  1  0  0  0  0 
 39 41  1  0  0  0  0 
 39 42  1  0  0  0  0 
 42 43  1  0  0  0  0 
 43 44  1  0  0  0  0 
 43 45  1  0  0  0  0 
 43 46  1  0  0  0  0 
 46 47  1  0  0  0  0 
 42 48  1  0  0  0  0 
 48 49  1  0  0  0  0 
 48 50  1  0  0  0  0 
 48 51  1  0  0  0  0 
 51 52  1  0  0  0  0 
 42 53  1  0  0  0  0 
 53 54  1  0  0  0  0 
 53 55  1  0  0  0  0 
 55 56  1  0  0  0  0 
M  END
> <Rank>
20

> <Priority_score>
0.024

> <Reaction_type>
amine hydroxylation

> <Parent_ID>
17

> <Parent_InChI>
InChI=1S/C19H33NO2/c1-2-3-4-5-6-7-8-17-9-11-18(12-10-17)13-14-19(20,15-21)16-22/h9-12,21-22H,2-8,13-16,20H2,1H3

> <Parent_SMILES>
CCCCCCCCc1ccc(CCC(N)(CO)CO)cc1

$$$$
Molecule 17_metabolite 21
  CDK     0516241031

 53 53  0  0  0  0  0  0  0  0999 V2000
    5.1940    6.3218    0.0000 C   0  0  0  0  0  0  0  0  0  0  0  0
    4.4019    7.5956    0.0000 H   0  0  0  0  0  0  0  0  0  0  0  0
    6.3740    5.3957    0.0000 H   0  0  0  0  0  0  0  0  0  0  0  0
    6.3109    7.3230    0.0000 H   0  0  0  0  0  0  0  0  0  0  0  0
    4.4869    4.9989    0.0000 C   0  0  0  0  0  0  0  0  0  0  0  0
    5.9124    4.5323    0.0000 H   0  0  0  0  0  0  0  0  0  0  0  0
    4.2748    3.5140    0.0000 H   0  0  0  0  0  0  0  0  0  0  0  0
    2.9877    4.9499    0.0000 C   0  0  0  0  0  0  0  0  0  0  0  0
    1.5621    5.4166    0.0000 H   0  0  0  0  0  0  0  0  0  0  0  0
    3.1997    6.4348    0.0000 H   0  0  0  0  0  0  0  0  0  0  0  0
    2.0542    3.2037    0.0000 C   0  0  0  0  0  0  0  0  0  0  0  0
    3.4798    2.7370    0.0000 H   0  0  0  0  0  0  0  0  0  0  0  0
    1.8422    1.7188    0.0000 H   0  0  0  0  0  0  0  0  0  0  0  0
    0.5550    3.1547    0.0000 C   0  0  0  0  0  0  0  0  0  0  0  0
   -0.8705    3.6214    0.0000 H   0  0  0  0  0  0  0  0  0  0  0  0
    0.7671    4.6396    0.0000 H   0  0  0  0  0  0  0  0  0  0  0  0
   -0.3784    1.4085    0.0000 C   0  0  0  0  0  0  0  0  0  0  0  0
    1.0472    0.9418    0.0000 H   0  0  0  0  0  0  0  0  0  0  0  0
   -0.5904   -0.0764    0.0000 H   0  0  0  0  0  0  0  0  0  0  0  0
   -2.3573    1.3438    0.0000 C   0  0  0  0  0  0  0  0  0  0  0  0
   -3.7829    1.8104    0.0000 H   0  0  0  0  0  0  0  0  0  0  0  0
   -2.1453    2.8287    0.0000 H   0  0  0  0  0  0  0  0  0  0  0  0
   -3.2907   -0.4024    0.0000 C   0  0  0  0  0  0  0  0  0  0  0  0
   -1.8652   -0.8691    0.0000 H   0  0  0  0  0  0  0  0  0  0  0  0
   -3.5028   -1.8873    0.0000 H   0  0  0  0  0  0  0  0  0  0  0  0
   -4.7899   -0.4515    0.0000 C   0  0  0  0  0  0  0  0  0  0  0  0
   -5.4573   -1.7378    0.0000 C   0  0  0  0  0  0  0  0  0  0  0  0
   -4.6325   -2.9907    0.0000 H   0  0  0  0  0  0  0  0  0  0  0  0
   -6.9335   -1.8445    0.0000 C   0  0  0  0  0  0  0  0  0  0  0  0
   -7.6226   -3.1768    0.0000 H   0  0  0  0  0  0  0  0  0  0  0  0
   -7.7089   -0.5624    0.0000 C   0  0  0  0  0  0  0  0  0  0  0  0
   -7.0415    0.7239    0.0000 C   0  0  0  0  0  0  0  0  0  0  0  0
   -7.8663    1.9768    0.0000 H   0  0  0  0  0  0  0  0  0  0  0  0
   -5.5654    0.8306    0.0000 C   0  0  0  0  0  0  0  0  0  0  0  0
   -4.8762    2.1629    0.0000 H   0  0  0  0  0  0  0  0  0  0  0  0
   -9.2081   -0.6115    0.0000 C   0  0  0  0  0  0  0  0  0  0  0  0
  -10.0002    0.6623    0.0000 H   0  0  0  0  0  0  0  0  0  0  0  0
   -9.9152   -1.9344    0.0000 C   0  0  0  0  0  0  0  0  0  0  0  0
   -9.1232   -3.2082    0.0000 H   0  0  0  0  0  0  0  0  0  0  0  0
  -11.4144   -1.9834    0.0000 C   0  0  0  0  0  0  0  0  0  0  0  0
  -12.2065   -0.7096    0.0000 C   0  0  0  0  0  0  0  0  0  0  0  0
  -10.8145   -0.1507    0.0000 H   0  0  0  0  0  0  0  0  0  0  0  0
  -12.5151    0.7583    0.0000 H   0  0  0  0  0  0  0  0  0  0  0  0
  -13.7057   -0.7586    0.0000 O   0  0  0  0  0  0  0  0  0  0  0  0
  -14.4978    0.5152    0.0000 H   0  0  0  0  0  0  0  0  0  0  0  0
  -12.8064   -2.5422    0.0000 C   0  0  0  0  0  0  0  0  0  0  0  0
  -13.9234   -3.5435    0.0000 H   0  0  0  0  0  0  0  0  0  0  0  0
  -12.0144   -3.8161    0.0000 H   0  0  0  0  0  0  0  0  0  0  0  0
  -13.9864   -1.6161    0.0000 O   0  0  0  0  0  0  0  0  0  0  0  0
  -15.3784   -2.1750    0.0000 H   0  0  0  0  0  0  0  0  0  0  0  0
  -11.0070   -3.9210    0.0000 N   0  0  0  0  0  0  0  0  0  0  0  0
  -12.1240   -4.9223    0.0000 H   0  0  0  0  0  0  0  0  0  0  0  0
   -9.5815   -4.3877    0.0000 H   0  0  0  0  0  0  0  0  0  0  0  0
  1  2  1  0  0  0  0 
  1  3  1  0  0  0  0 
  1  4  1  0  0  0  0 
  1  5  1  0  0  0  0 
  5  6  1  0  0  0  0 
  5  7  1  0  0  0  0 
  5  8  1  0  0  0  0 
  8  9  1  0  0  0  0 
  8 10  1  0  0  0  0 
  8 11  1  0  0  0  0 
 11 12  1  0  0  0  0 
 11 13  1  0  0  0  0 
 11 14  1  0  0  0  0 
 14 15  1  0  0  0  0 
 14 16  1  0  0  0  0 
 14 17  1  0  0  0  0 
 17 18  1  0  0  0  0 
 17 19  1  0  0  0  0 
 17 20  1  0  0  0  0 
 20 21  1  0  0  0  0 
 20 22  1  0  0  0  0 
 20 23  1  0  0  0  0 
 23 24  1  0  0  0  0 
 23 25  1  0  0  0  0 
 23 26  1  0  0  0  0 
 26 27  2  0  0  0  0 
 27 28  1  0  0  0  0 
 27 29  1  0  0  0  0 
 29 30  1  0  0  0  0 
 29 31  2  0  0  0  0 
 31 32  1  0  0  0  0 
 32 33  1  0  0  0  0 
 32 34  2  0  0  0  0 
 26 34  1  0  0  0  0 
 34 35  1  0  0  0  0 
 31 36  1  0  0  0  0 
 36 37  1  4  0  0  0 
 36 38  2  0  0  0  0 
 38 39  1  0  0  0  0 
 38 40  1  0  0  0  0 
 40 41  1  0  0  0  0 
 41 42  1  0  0  0  0 
 41 43  1  0  0  0  0 
 41 44  1  0  0  0  0 
 44 45  1  0  0  0  0 
 40 46  1  0  0  0  0 
 46 47  1  0  0  0  0 
 46 48  1  0  0  0  0 
 46 49  1  0  0  0  0 
 49 50  1  0  0  0  0 
 40 51  1  0  0  0  0 
 51 52  1  0  0  0  0 
 51 53  1  0  0  0  0 
M  END
> <Rank>
21

> <Priority_score>
0.0208

> <Reaction_type>
alkyl dehydrogenation

> <Parent_ID>
17

> <Parent_InChI>
InChI=1S/C19H33NO2/c1-2-3-4-5-6-7-8-17-9-11-18(12-10-17)13-14-19(20,15-21)16-22/h9-12,21-22H,2-8,13-16,20H2,1H3

> <Parent_SMILES>
CCCCCCCCc1ccc(CCC(N)(CO)CO)cc1

$$$$
Molecule 17_metabolite 22
  CDK     0516241031

 56 56  0  0  0  0  0  0  0  0999 V2000
   11.9253    2.4919    0.0000 C   0  0  0  0  0  0  0  0  0  0  0  0
   11.9744    0.9927    0.0000 H   0  0  0  0  0  0  0  0  0  0  0  0
   12.3920    3.9174    0.0000 H   0  0  0  0  0  0  0  0  0  0  0  0
   13.4103    2.2798    0.0000 H   0  0  0  0  0  0  0  0  0  0  0  0
   10.6025    3.1990    0.0000 C   0  0  0  0  0  0  0  0  0  0  0  0
   11.5286    4.3790    0.0000 H   0  0  0  0  0  0  0  0  0  0  0  0
    9.6012    4.3159    0.0000 H   0  0  0  0  0  0  0  0  0  0  0  0
    9.3286    2.4069    0.0000 C   0  0  0  0  0  0  0  0  0  0  0  0
    8.4025    1.2270    0.0000 H   0  0  0  0  0  0  0  0  0  0  0  0
   10.3299    1.2900    0.0000 H   0  0  0  0  0  0  0  0  0  0  0  0
    7.5825    3.3403    0.0000 C   0  0  0  0  0  0  0  0  0  0  0  0
    8.5086    4.5203    0.0000 H   0  0  0  0  0  0  0  0  0  0  0  0
    6.5812    4.4573    0.0000 H   0  0  0  0  0  0  0  0  0  0  0  0
    5.9010    2.2948    0.0000 C   0  0  0  0  0  0  0  0  0  0  0  0
    4.9749    1.1148    0.0000 H   0  0  0  0  0  0  0  0  0  0  0  0
    6.9022    1.1779    0.0000 H   0  0  0  0  0  0  0  0  0  0  0  0
    4.5781    3.0019    0.0000 C   0  0  0  0  0  0  0  0  0  0  0  0
    5.5042    4.1819    0.0000 H   0  0  0  0  0  0  0  0  0  0  0  0
    2.8967    1.9564    0.0000 C   0  0  0  0  0  0  0  0  0  0  0  0
    1.9706    0.7764    0.0000 H   0  0  0  0  0  0  0  0  0  0  0  0
    3.8979    0.8395    0.0000 H   0  0  0  0  0  0  0  0  0  0  0  0
    1.1505    2.8898    0.0000 C   0  0  0  0  0  0  0  0  0  0  0  0
    2.0766    4.0698    0.0000 H   0  0  0  0  0  0  0  0  0  0  0  0
    0.1493    4.0068    0.0000 H   0  0  0  0  0  0  0  0  0  0  0  0
   -0.1233    2.0978    0.0000 C   0  0  0  0  0  0  0  0  0  0  0  0
   -1.3928    2.7966    0.0000 C   0  0  0  0  0  0  0  0  0  0  0  0
   -1.4030    4.2966    0.0000 H   0  0  0  0  0  0  0  0  0  0  0  0
   -2.6795    2.0653    0.0000 C   0  0  0  0  0  0  0  0  0  0  0  0
   -3.9927    2.7903    0.0000 H   0  0  0  0  0  0  0  0  0  0  0  0
   -2.6121    0.5685    0.0000 C   0  0  0  0  0  0  0  0  0  0  0  0
   -1.3426   -0.1304    0.0000 C   0  0  0  0  0  0  0  0  0  0  0  0
   -1.3324   -1.6304    0.0000 H   0  0  0  0  0  0  0  0  0  0  0  0
   -0.0559    0.6009    0.0000 C   0  0  0  0  0  0  0  0  0  0  0  0
    1.2573   -0.1241    0.0000 H   0  0  0  0  0  0  0  0  0  0  0  0
   -3.8859   -0.2236    0.0000 C   0  0  0  0  0  0  0  0  0  0  0  0
   -4.8120   -1.4036    0.0000 H   0  0  0  0  0  0  0  0  0  0  0  0
   -2.8847   -1.3405    0.0000 H   0  0  0  0  0  0  0  0  0  0  0  0
   -6.4787    1.1624    0.0000 C   0  0  0  0  0  0  0  0  0  0  0  0
   -5.5526    2.3423    0.0000 H   0  0  0  0  0  0  0  0  0  0  0  0
   -7.4800    2.2793    0.0000 H   0  0  0  0  0  0  0  0  0  0  0  0
   -7.7526    0.3703    0.0000 C   0  0  0  0  0  0  0  0  0  0  0  0
   -9.4987    1.3037    0.0000 C   0  0  0  0  0  0  0  0  0  0  0  0
   -8.5726    2.4837    0.0000 H   0  0  0  0  0  0  0  0  0  0  0  0
  -10.5000    2.4206    0.0000 H   0  0  0  0  0  0  0  0  0  0  0  0
  -10.7726    0.5116    0.0000 O   0  0  0  0  0  0  0  0  0  0  0  0
  -12.0954    1.2188    0.0000 H   0  0  0  0  0  0  0  0  0  0  0  0
   -8.6787   -0.8097    0.0000 C   0  0  0  0  0  0  0  0  0  0  0  0
   -9.1453   -2.2352    0.0000 H   0  0  0  0  0  0  0  0  0  0  0  0
   -7.3558   -1.5168    0.0000 H   0  0  0  0  0  0  0  0  0  0  0  0
  -10.1636   -0.5976    0.0000 O   0  0  0  0  0  0  0  0  0  0  0  0
  -11.0897   -1.7776    0.0000 H   0  0  0  0  0  0  0  0  0  0  0  0
   -6.7513   -0.7466    0.0000 N   0  0  0  0  0  0  0  0  0  0  0  0
   -7.3673   -2.6284    0.0000 H   0  0  0  0  0  0  0  0  0  0  0  0
   -5.2834   -0.4380    0.0000 H   0  0  0  0  0  0  0  0  0  0  0  0
    3.5769    4.1189    0.0000 O   0  0  0  0  0  0  0  0  0  0  0  0
    4.0436    5.5444    0.0000 H   0  0  0  0  0  0  0  0  0  0  0  0
  1  2  1  0  0  0  0 
  1  3  1  0  0  0  0 
  1  4  1  0  0  0  0 
  1  5  1  0  0  0  0 
  5  6  1  0  0  0  0 
  5  7  1  0  0  0  0 
  5  8  1  0  0  0  0 
  8  9  1  0  0  0  0 
  8 10  1  0  0  0  0 
  8 11  1  0  0  0  0 
 11 12  1  0  0  0  0 
 11 13  1  0  0  0  0 
 11 14  1  0  0  0  0 
 14 15  1  0  0  0  0 
 14 16  1  0  0  0  0 
 14 17  1  0  0  0  0 
 17 18  1  0  0  0  0 
 17 19  1  0  0  0  0 
 19 20  1  0  0  0  0 
 19 21  1  0  0  0  0 
 19 22  1  0  0  0  0 
 22 23  1  0  0  0  0 
 22 24  1  0  0  0  0 
 22 25  1  0  0  0  0 
 25 26  2  0  0  0  0 
 26 27  1  0  0  0  0 
 26 28  1  0  0  0  0 
 28 29  1  0  0  0  0 
 28 30  2  0  0  0  0 
 30 31  1  0  0  0  0 
 31 32  1  0  0  0  0 
 31 33  2  0  0  0  0 
 25 33  1  0  0  0  0 
 33 34  1  0  0  0  0 
 30 35  1  0  0  0  0 
 35 36  1  0  0  0  0 
 35 37  1  0  0  0  0 
 35 38  1  0  0  0  0 
 38 39  1  0  0  0  0 
 38 40  1  0  0  0  0 
 38 41  1  0  0  0  0 
 41 42  1  0  0  0  0 
 42 43  1  0  0  0  0 
 42 44  1  0  0  0  0 
 42 45  1  0  0  0  0 
 45 46  1  0  0  0  0 
 41 47  1  0  0  0  0 
 47 48  1  0  0  0  0 
 47 49  1  0  0  0  0 
 47 50  1  0  0  0  0 
 50 51  1  0  0  0  0 
 41 52  1  0  0  0  0 
 52 53  1  0  0  0  0 
 52 54  1  0  0  0  0 
 17 55  1  0  0  0  0 
 55 56  1  0  0  0  0 
M  END
> <Rank>
22

> <Priority_score>
0.02

> <Reaction_type>
aliphatic hydroxylation

> <Parent_ID>
17

> <Parent_InChI>
InChI=1S/C19H33NO2/c1-2-3-4-5-6-7-8-17-9-11-18(12-10-17)13-14-19(20,15-21)16-22/h9-12,21-22H,2-8,13-16,20H2,1H3

> <Parent_SMILES>
CCCCCCCCc1ccc(CCC(N)(CO)CO)cc1

$$$$
Molecule 17_metabolite 23
  CDK     0516241031

 53 53  0  0  0  0  0  0  0  0999 V2000
   11.7215    2.3651    0.0000 C   0  0  0  0  0  0  0  0  0  0  0  0
   11.7706    0.8659    0.0000 H   0  0  0  0  0  0  0  0  0  0  0  0
   12.1882    3.7907    0.0000 H   0  0  0  0  0  0  0  0  0  0  0  0
   13.2065    2.1531    0.0000 H   0  0  0  0  0  0  0  0  0  0  0  0
   10.3987    3.0723    0.0000 C   0  0  0  0  0  0  0  0  0  0  0  0
   11.3248    4.2522    0.0000 H   0  0  0  0  0  0  0  0  0  0  0  0
    9.3974    4.1892    0.0000 H   0  0  0  0  0  0  0  0  0  0  0  0
    8.7172    2.0267    0.0000 C   0  0  0  0  0  0  0  0  0  0  0  0
    7.7911    0.8468    0.0000 H   0  0  0  0  0  0  0  0  0  0  0  0
    9.7184    0.9098    0.0000 H   0  0  0  0  0  0  0  0  0  0  0  0
    6.9710    2.9601    0.0000 C   0  0  0  0  0  0  0  0  0  0  0  0
    7.8971    4.1401    0.0000 H   0  0  0  0  0  0  0  0  0  0  0  0
    5.9698    4.0771    0.0000 H   0  0  0  0  0  0  0  0  0  0  0  0
    5.6972    2.1681    0.0000 C   0  0  0  0  0  0  0  0  0  0  0  0
    4.7711    0.9881    0.0000 H   0  0  0  0  0  0  0  0  0  0  0  0
    6.6984    1.0511    0.0000 H   0  0  0  0  0  0  0  0  0  0  0  0
    4.3743    2.8752    0.0000 C   0  0  0  0  0  0  0  0  0  0  0  0
    4.3253    4.3744    0.0000 H   0  0  0  0  0  0  0  0  0  0  0  0
    3.1005    2.0831    0.0000 C   0  0  0  0  0  0  0  0  0  0  0  0
    3.1496    0.5839    0.0000 H   0  0  0  0  0  0  0  0  0  0  0  0
    1.7777    2.7903    0.0000 C   0  0  0  0  0  0  0  0  0  0  0  0
    2.7037    3.9702    0.0000 H   0  0  0  0  0  0  0  0  0  0  0  0
    0.7764    3.9072    0.0000 H   0  0  0  0  0  0  0  0  0  0  0  0
    0.5038    1.9982    0.0000 C   0  0  0  0  0  0  0  0  0  0  0  0
   -0.7657    2.6971    0.0000 C   0  0  0  0  0  0  0  0  0  0  0  0
   -0.7759    4.1970    0.0000 H   0  0  0  0  0  0  0  0  0  0  0  0
   -2.0524    1.9657    0.0000 C   0  0  0  0  0  0  0  0  0  0  0  0
   -3.3656    2.6907    0.0000 H   0  0  0  0  0  0  0  0  0  0  0  0
   -1.9850    0.4689    0.0000 C   0  0  0  0  0  0  0  0  0  0  0  0
   -0.7154   -0.2300    0.0000 C   0  0  0  0  0  0  0  0  0  0  0  0
   -0.7052   -1.7299    0.0000 H   0  0  0  0  0  0  0  0  0  0  0  0
    0.5713    0.5014    0.0000 C   0  0  0  0  0  0  0  0  0  0  0  0
    1.8844   -0.2236    0.0000 H   0  0  0  0  0  0  0  0  0  0  0  0
   -3.2588   -0.3231    0.0000 C   0  0  0  0  0  0  0  0  0  0  0  0
   -4.1849   -1.5031    0.0000 H   0  0  0  0  0  0  0  0  0  0  0  0
   -2.2576   -1.4401    0.0000 H   0  0  0  0  0  0  0  0  0  0  0  0
   -5.8516    1.0628    0.0000 C   0  0  0  0  0  0  0  0  0  0  0  0
   -4.9255    2.2428    0.0000 H   0  0  0  0  0  0  0  0  0  0  0  0
   -6.8528    2.1798    0.0000 H   0  0  0  0  0  0  0  0  0  0  0  0
   -7.1254    0.2708    0.0000 C   0  0  0  0  0  0  0  0  0  0  0  0
   -8.8716    1.2042    0.0000 C   0  0  0  0  0  0  0  0  0  0  0  0
   -7.9455    2.3841    0.0000 H   0  0  0  0  0  0  0  0  0  0  0  0
   -9.8728    2.3211    0.0000 H   0  0  0  0  0  0  0  0  0  0  0  0
  -10.1454    0.4121    0.0000 O   0  0  0  0  0  0  0  0  0  0  0  0
  -11.4683    1.1192    0.0000 H   0  0  0  0  0  0  0  0  0  0  0  0
   -8.0515   -0.9092    0.0000 C   0  0  0  0  0  0  0  0  0  0  0  0
   -8.5182   -2.3348    0.0000 H   0  0  0  0  0  0  0  0  0  0  0  0
   -6.7287   -1.6163    0.0000 H   0  0  0  0  0  0  0  0  0  0  0  0
   -9.5365   -0.6972    0.0000 O   0  0  0  0  0  0  0  0  0  0  0  0
  -10.4626   -1.8772    0.0000 H   0  0  0  0  0  0  0  0  0  0  0  0
   -6.1242   -0.8462    0.0000 N   0  0  0  0  0  0  0  0  0  0  0  0
   -6.7402   -2.7279    0.0000 H   0  0  0  0  0  0  0  0  0  0  0  0
   -4.6563   -0.5375    0.0000 H   0  0  0  0  0  0  0  0  0  0  0  0
  1  2  1  0  0  0  0 
  1  3  1  0  0  0  0 
  1  4  1  0  0  0  0 
  1  5  1  0  0  0  0 
  5  6  1  0  0  0  0 
  5  7  1  0  0  0  0 
  5  8  1  0  0  0  0 
  8  9  1  0  0  0  0 
  8 10  1  0  0  0  0 
  8 11  1  0  0  0  0 
 11 12  1  0  0  0  0 
 11 13  1  0  0  0  0 
 11 14  1  0  0  0  0 
 14 15  1  0  0  0  0 
 14 16  1  0  0  0  0 
 14 17  1  0  0  0  0 
 17 18  1  4  0  0  0 
 17 19  2  0  0  0  0 
 19 20  1  0  0  0  0 
 19 21  1  0  0  0  0 
 21 22  1  0  0  0  0 
 21 23  1  0  0  0  0 
 21 24  1  0  0  0  0 
 24 25  2  0  0  0  0 
 25 26  1  0  0  0  0 
 25 27  1  0  0  0  0 
 27 28  1  0  0  0  0 
 27 29  2  0  0  0  0 
 29 30  1  0  0  0  0 
 30 31  1  0  0  0  0 
 30 32  2  0  0  0  0 
 24 32  1  0  0  0  0 
 32 33  1  0  0  0  0 
 29 34  1  0  0  0  0 
 34 35  1  0  0  0  0 
 34 36  1  0  0  0  0 
 34 37  1  0  0  0  0 
 37 38  1  0  0  0  0 
 37 39  1  0  0  0  0 
 37 40  1  0  0  0  0 
 40 41  1  0  0  0  0 
 41 42  1  0  0  0  0 
 41 43  1  0  0  0  0 
 41 44  1  0  0  0  0 
 44 45  1  0  0  0  0 
 40 46  1  0  0  0  0 
 46 47  1  0  0  0  0 
 46 48  1  0  0  0  0 
 46 49  1  0  0  0  0 
 49 50  1  0  0  0  0 
 40 51  1  0  0  0  0 
 51 52  1  0  0  0  0 
 51 53  1  0  0  0  0 
M  END
> <Rank>
23

> <Priority_score>
0.0144

> <Reaction_type>
alkyl dehydrogenation

> <Parent_ID>
17

> <Parent_InChI>
InChI=1S/C19H33NO2/c1-2-3-4-5-6-7-8-17-9-11-18(12-10-17)13-14-19(20,15-21)16-22/h9-12,21-22H,2-8,13-16,20H2,1H3

> <Parent_SMILES>
CCCCCCCCc1ccc(CCC(N)(CO)CO)cc1

$$$$
Molecule 17_metabolite 24
  CDK     0516241031

 53 53  0  0  0  0  0  0  0  0999 V2000
   11.3060    2.3515    0.0000 C   0  0  0  0  0  0  0  0  0  0  0  0
   11.3551    0.8524    0.0000 H   0  0  0  0  0  0  0  0  0  0  0  0
   11.7727    3.7771    0.0000 H   0  0  0  0  0  0  0  0  0  0  0  0
   12.7910    2.1395    0.0000 H   0  0  0  0  0  0  0  0  0  0  0  0
    9.9832    3.0587    0.0000 C   0  0  0  0  0  0  0  0  0  0  0  0
   10.9093    4.2387    0.0000 H   0  0  0  0  0  0  0  0  0  0  0  0
    8.9819    4.1756    0.0000 H   0  0  0  0  0  0  0  0  0  0  0  0
    8.7094    2.2666    0.0000 C   0  0  0  0  0  0  0  0  0  0  0  0
    7.7833    1.0866    0.0000 H   0  0  0  0  0  0  0  0  0  0  0  0
    9.7106    1.1497    0.0000 H   0  0  0  0  0  0  0  0  0  0  0  0
    7.3865    2.9737    0.0000 C   0  0  0  0  0  0  0  0  0  0  0  0
    7.3375    4.4729    0.0000 H   0  0  0  0  0  0  0  0  0  0  0  0
    6.1127    2.1817    0.0000 C   0  0  0  0  0  0  0  0  0  0  0  0
    6.1617    0.6825    0.0000 H   0  0  0  0  0  0  0  0  0  0  0  0
    4.7898    2.8888    0.0000 C   0  0  0  0  0  0  0  0  0  0  0  0
    5.7159    4.0688    0.0000 H   0  0  0  0  0  0  0  0  0  0  0  0
    3.7886    4.0057    0.0000 H   0  0  0  0  0  0  0  0  0  0  0  0
    3.1084    1.8433    0.0000 C   0  0  0  0  0  0  0  0  0  0  0  0
    2.1823    0.6633    0.0000 H   0  0  0  0  0  0  0  0  0  0  0  0
    4.1096    0.7263    0.0000 H   0  0  0  0  0  0  0  0  0  0  0  0
    1.7855    2.5504    0.0000 C   0  0  0  0  0  0  0  0  0  0  0  0
    2.7116    3.7304    0.0000 H   0  0  0  0  0  0  0  0  0  0  0  0
    0.7843    3.6673    0.0000 H   0  0  0  0  0  0  0  0  0  0  0  0
    0.5117    1.7583    0.0000 C   0  0  0  0  0  0  0  0  0  0  0  0
   -0.7578    2.4572    0.0000 C   0  0  0  0  0  0  0  0  0  0  0  0
   -0.7681    3.9572    0.0000 H   0  0  0  0  0  0  0  0  0  0  0  0
   -2.0446    1.7259    0.0000 C   0  0  0  0  0  0  0  0  0  0  0  0
   -3.3577    2.4509    0.0000 H   0  0  0  0  0  0  0  0  0  0  0  0
   -1.9771    0.2290    0.0000 C   0  0  0  0  0  0  0  0  0  0  0  0
   -0.7076   -0.4698    0.0000 C   0  0  0  0  0  0  0  0  0  0  0  0
   -0.6974   -1.9698    0.0000 H   0  0  0  0  0  0  0  0  0  0  0  0
    0.5791    0.2615    0.0000 C   0  0  0  0  0  0  0  0  0  0  0  0
    1.8923   -0.4635    0.0000 H   0  0  0  0  0  0  0  0  0  0  0  0
   -3.2509   -0.5630    0.0000 C   0  0  0  0  0  0  0  0  0  0  0  0
   -4.1770   -1.7430    0.0000 H   0  0  0  0  0  0  0  0  0  0  0  0
   -2.2497   -1.6800    0.0000 H   0  0  0  0  0  0  0  0  0  0  0  0
   -5.8438    0.8230    0.0000 C   0  0  0  0  0  0  0  0  0  0  0  0
   -4.9177    2.0029    0.0000 H   0  0  0  0  0  0  0  0  0  0  0  0
   -6.8450    1.9399    0.0000 H   0  0  0  0  0  0  0  0  0  0  0  0
   -7.1176    0.0309    0.0000 C   0  0  0  0  0  0  0  0  0  0  0  0
   -8.8638    0.9643    0.0000 C   0  0  0  0  0  0  0  0  0  0  0  0
   -7.9377    2.1443    0.0000 H   0  0  0  0  0  0  0  0  0  0  0  0
   -9.8650    2.0812    0.0000 H   0  0  0  0  0  0  0  0  0  0  0  0
  -10.1376    0.1722    0.0000 O   0  0  0  0  0  0  0  0  0  0  0  0
  -11.4604    0.8794    0.0000 H   0  0  0  0  0  0  0  0  0  0  0  0
   -8.0437   -1.1491    0.0000 C   0  0  0  0  0  0  0  0  0  0  0  0
   -8.5104   -2.5746    0.0000 H   0  0  0  0  0  0  0  0  0  0  0  0
   -6.7208   -1.8562    0.0000 H   0  0  0  0  0  0  0  0  0  0  0  0
   -9.5286   -0.9371    0.0000 O   0  0  0  0  0  0  0  0  0  0  0  0
  -10.4547   -2.1170    0.0000 H   0  0  0  0  0  0  0  0  0  0  0  0
   -6.1163   -1.0860    0.0000 N   0  0  0  0  0  0  0  0  0  0  0  0
   -6.7324   -2.9678    0.0000 H   0  0  0  0  0  0  0  0  0  0  0  0
   -4.6484   -0.7774    0.0000 H   0  0  0  0  0  0  0  0  0  0  0  0
  1  2  1  0  0  0  0 
  1  3  1  0  0  0  0 
  1  4  1  0  0  0  0 
  1  5  1  0  0  0  0 
  5  6  1  0  0  0  0 
  5  7  1  0  0  0  0 
  5  8  1  0  0  0  0 
  8  9  1  0  0  0  0 
  8 10  1  0  0  0  0 
  8 11  1  0  0  0  0 
 11 12  1  4  0  0  0 
 11 13  2  0  0  0  0 
 13 14  1  0  0  0  0 
 13 15  1  0  0  0  0 
 15 16  1  0  0  0  0 
 15 17  1  0  0  0  0 
 15 18  1  0  0  0  0 
 18 19  1  0  0  0  0 
 18 20  1  0  0  0  0 
 18 21  1  0  0  0  0 
 21 22  1  0  0  0  0 
 21 23  1  0  0  0  0 
 21 24  1  0  0  0  0 
 24 25  2  0  0  0  0 
 25 26  1  0  0  0  0 
 25 27  1  0  0  0  0 
 27 28  1  0  0  0  0 
 27 29  2  0  0  0  0 
 29 30  1  0  0  0  0 
 30 31  1  0  0  0  0 
 30 32  2  0  0  0  0 
 24 32  1  0  0  0  0 
 32 33  1  0  0  0  0 
 29 34  1  0  0  0  0 
 34 35  1  0  0  0  0 
 34 36  1  0  0  0  0 
 34 37  1  0  0  0  0 
 37 38  1  0  0  0  0 
 37 39  1  0  0  0  0 
 37 40  1  0  0  0  0 
 40 41  1  0  0  0  0 
 41 42  1  0  0  0  0 
 41 43  1  0  0  0  0 
 41 44  1  0  0  0  0 
 44 45  1  0  0  0  0 
 40 46  1  0  0  0  0 
 46 47  1  0  0  0  0 
 46 48  1  0  0  0  0 
 46 49  1  0  0  0  0 
 49 50  1  0  0  0  0 
 40 51  1  0  0  0  0 
 51 52  1  0  0  0  0 
 51 53  1  0  0  0  0 
M  END
> <Rank>
23

> <Priority_score>
0.0144

> <Reaction_type>
alkyl dehydrogenation

> <Parent_ID>
17

> <Parent_InChI>
InChI=1S/C19H33NO2/c1-2-3-4-5-6-7-8-17-9-11-18(12-10-17)13-14-19(20,15-21)16-22/h9-12,21-22H,2-8,13-16,20H2,1H3

> <Parent_SMILES>
CCCCCCCCc1ccc(CCC(N)(CO)CO)cc1

$$$$
Molecule 17_metabolite 25
  CDK     0516241031

 53 53  0  0  0  0  0  0  0  0999 V2000
   10.2178   -3.3266    0.0000 C   0  0  0  0  0  0  0  0  0  0  0  0
   11.7170   -3.2775    0.0000 H   0  0  0  0  0  0  0  0  0  0  0  0
    8.8258   -3.8854    0.0000 H   0  0  0  0  0  0  0  0  0  0  0  0
   10.5264   -4.7945    0.0000 H   0  0  0  0  0  0  0  0  0  0  0  0
    9.4257   -2.0528    0.0000 C   0  0  0  0  0  0  0  0  0  0  0  0
   10.8177   -1.4939    0.0000 H   0  0  0  0  0  0  0  0  0  0  0  0
    9.1171   -0.5849    0.0000 H   0  0  0  0  0  0  0  0  0  0  0  0
    7.9265   -2.1018    0.0000 C   0  0  0  0  0  0  0  0  0  0  0  0
    7.2194   -3.4247    0.0000 H   0  0  0  0  0  0  0  0  0  0  0  0
    7.1344   -0.8280    0.0000 C   0  0  0  0  0  0  0  0  0  0  0  0
    7.8416    0.4949    0.0000 H   0  0  0  0  0  0  0  0  0  0  0  0
    5.6352   -0.8770    0.0000 C   0  0  0  0  0  0  0  0  0  0  0  0
    4.2432   -1.4359    0.0000 H   0  0  0  0  0  0  0  0  0  0  0  0
    5.9439   -2.3449    0.0000 H   0  0  0  0  0  0  0  0  0  0  0  0
    4.5897    0.8044    0.0000 C   0  0  0  0  0  0  0  0  0  0  0  0
    5.9817    1.3633    0.0000 H   0  0  0  0  0  0  0  0  0  0  0  0
    4.2811    2.2723    0.0000 H   0  0  0  0  0  0  0  0  0  0  0  0
    2.6108    0.7397    0.0000 C   0  0  0  0  0  0  0  0  0  0  0  0
    1.2187    0.1809    0.0000 H   0  0  0  0  0  0  0  0  0  0  0  0
    2.9194   -0.7282    0.0000 H   0  0  0  0  0  0  0  0  0  0  0  0
    1.8187    2.0135    0.0000 C   0  0  0  0  0  0  0  0  0  0  0  0
    3.2107    2.5724    0.0000 H   0  0  0  0  0  0  0  0  0  0  0  0
    1.5101    3.4814    0.0000 H   0  0  0  0  0  0  0  0  0  0  0  0
    0.3195    1.9645    0.0000 C   0  0  0  0  0  0  0  0  0  0  0  0
   -0.4305    3.2045    0.0000 C   0  0  0  0  0  0  0  0  0  0  0  0
    0.3106    4.5086    0.0000 H   0  0  0  0  0  0  0  0  0  0  0  0
   -1.9105    3.2145    0.0000 C   0  0  0  0  0  0  0  0  0  0  0  0
   -2.6852    4.4989    0.0000 H   0  0  0  0  0  0  0  0  0  0  0  0
   -2.6005    1.8845    0.0000 C   0  0  0  0  0  0  0  0  0  0  0  0
   -1.8505    0.6445    0.0000 C   0  0  0  0  0  0  0  0  0  0  0  0
   -2.5916   -0.6596    0.0000 H   0  0  0  0  0  0  0  0  0  0  0  0
   -0.3705    0.6345    0.0000 C   0  0  0  0  0  0  0  0  0  0  0  0
    0.4042   -0.6500    0.0000 H   0  0  0  0  0  0  0  0  0  0  0  0
   -4.0997    1.8354    0.0000 C   0  0  0  0  0  0  0  0  0  0  0  0
   -5.4917    1.2766    0.0000 H   0  0  0  0  0  0  0  0  0  0  0  0
   -3.7911    0.3675    0.0000 H   0  0  0  0  0  0  0  0  0  0  0  0
   -5.6522    4.3321    0.0000 C   0  0  0  0  0  0  0  0  0  0  0  0
   -4.2601    4.8910    0.0000 H   0  0  0  0  0  0  0  0  0  0  0  0
   -5.9608    5.8000    0.0000 H   0  0  0  0  0  0  0  0  0  0  0  0
   -7.1514    4.2831    0.0000 C   0  0  0  0  0  0  0  0  0  0  0  0
   -8.1969    5.9645    0.0000 C   0  0  0  0  0  0  0  0  0  0  0  0
   -6.8049    6.5234    0.0000 H   0  0  0  0  0  0  0  0  0  0  0  0
   -8.5055    7.4325    0.0000 H   0  0  0  0  0  0  0  0  0  0  0  0
   -9.6961    5.9155    0.0000 O   0  0  0  0  0  0  0  0  0  0  0  0
  -10.4882    7.1893    0.0000 H   0  0  0  0  0  0  0  0  0  0  0  0
   -8.5434    3.7243    0.0000 C   0  0  0  0  0  0  0  0  0  0  0  0
   -9.6603    2.7230    0.0000 H   0  0  0  0  0  0  0  0  0  0  0  0
   -7.7513    2.4504    0.0000 H   0  0  0  0  0  0  0  0  0  0  0  0
   -9.7233    4.6504    0.0000 O   0  0  0  0  0  0  0  0  0  0  0  0
  -11.1154    4.0915    0.0000 H   0  0  0  0  0  0  0  0  0  0  0  0
   -6.8427    2.8152    0.0000 N   0  0  0  0  0  0  0  0  0  0  0  0
   -8.3171    1.4936    0.0000 H   0  0  0  0  0  0  0  0  0  0  0  0
   -5.4172    2.3485    0.0000 H   0  0  0  0  0  0  0  0  0  0  0  0
  1  2  1  0  0  0  0 
  1  3  1  0  0  0  0 
  1  4  1  0  0  0  0 
  1  5  1  0  0  0  0 
  5  6  1  0  0  0  0 
  5  7  1  0  0  0  0 
  5  8  1  0  0  0  0 
  8  9  1  4  0  0  0 
  8 10  2  0  0  0  0 
 10 11  1  0  0  0  0 
 10 12  1  0  0  0  0 
 12 13  1  0  0  0  0 
 12 14  1  0  0  0  0 
 12 15  1  0  0  0  0 
 15 16  1  0  0  0  0 
 15 17  1  0  0  0  0 
 15 18  1  0  0  0  0 
 18 19  1  0  0  0  0 
 18 20  1  0  0  0  0 
 18 21  1  0  0  0  0 
 21 22  1  0  0  0  0 
 21 23  1  0  0  0  0 
 21 24  1  0  0  0  0 
 24 25  2  0  0  0  0 
 25 26  1  0  0  0  0 
 25 27  1  0  0  0  0 
 27 28  1  0  0  0  0 
 27 29  2  0  0  0  0 
 29 30  1  0  0  0  0 
 30 31  1  0  0  0  0 
 30 32  2  0  0  0  0 
 24 32  1  0  0  0  0 
 32 33  1  0  0  0  0 
 29 34  1  0  0  0  0 
 34 35  1  0  0  0  0 
 34 36  1  0  0  0  0 
 34 37  1  0  0  0  0 
 37 38  1  0  0  0  0 
 37 39  1  0  0  0  0 
 37 40  1  0  0  0  0 
 40 41  1  0  0  0  0 
 41 42  1  0  0  0  0 
 41 43  1  0  0  0  0 
 41 44  1  0  0  0  0 
 44 45  1  0  0  0  0 
 40 46  1  0  0  0  0 
 46 47  1  0  0  0  0 
 46 48  1  0  0  0  0 
 46 49  1  0  0  0  0 
 49 50  1  0  0  0  0 
 40 51  1  0  0  0  0 
 51 52  1  0  0  0  0 
 51 53  1  0  0  0  0 
M  END
> <Rank>
23

> <Priority_score>
0.0144

> <Reaction_type>
alkyl dehydrogenation

> <Parent_ID>
17

> <Parent_InChI>
InChI=1S/C19H33NO2/c1-2-3-4-5-6-7-8-17-9-11-18(12-10-17)13-14-19(20,15-21)16-22/h9-12,21-22H,2-8,13-16,20H2,1H3

> <Parent_SMILES>
CCCCCCCCc1ccc(CCC(N)(CO)CO)cc1

$$$$
Molecule 17_metabolite 26
  CDK     0516241031

 56 56  0  0  0  0  0  0  0  0999 V2000
   11.9253    2.4919    0.0000 C   0  0  0  0  0  0  0  0  0  0  0  0
   11.9744    0.9927    0.0000 H   0  0  0  0  0  0  0  0  0  0  0  0
   12.3920    3.9174    0.0000 H   0  0  0  0  0  0  0  0  0  0  0  0
   13.4103    2.2798    0.0000 H   0  0  0  0  0  0  0  0  0  0  0  0
   10.6025    3.1990    0.0000 C   0  0  0  0  0  0  0  0  0  0  0  0
   11.5286    4.3790    0.0000 H   0  0  0  0  0  0  0  0  0  0  0  0
    9.6012    4.3159    0.0000 H   0  0  0  0  0  0  0  0  0  0  0  0
    9.3286    2.4069    0.0000 C   0  0  0  0  0  0  0  0  0  0  0  0
    8.4025    1.2270    0.0000 H   0  0  0  0  0  0  0  0  0  0  0  0
   10.3299    1.2900    0.0000 H   0  0  0  0  0  0  0  0  0  0  0  0
    7.5825    3.3403    0.0000 C   0  0  0  0  0  0  0  0  0  0  0  0
    8.5086    4.5203    0.0000 H   0  0  0  0  0  0  0  0  0  0  0  0
    6.5812    4.4573    0.0000 H   0  0  0  0  0  0  0  0  0  0  0  0
    5.9010    2.2948    0.0000 C   0  0  0  0  0  0  0  0  0  0  0  0
    4.9749    1.1148    0.0000 H   0  0  0  0  0  0  0  0  0  0  0  0
    4.5781    3.0019    0.0000 C   0  0  0  0  0  0  0  0  0  0  0  0
    5.5042    4.1819    0.0000 H   0  0  0  0  0  0  0  0  0  0  0  0
    3.5769    4.1189    0.0000 H   0  0  0  0  0  0  0  0  0  0  0  0
    2.8967    1.9564    0.0000 C   0  0  0  0  0  0  0  0  0  0  0  0
    1.9706    0.7764    0.0000 H   0  0  0  0  0  0  0  0  0  0  0  0
    3.8979    0.8395    0.0000 H   0  0  0  0  0  0  0  0  0  0  0  0
    1.1505    2.8898    0.0000 C   0  0  0  0  0  0  0  0  0  0  0  0
    2.0766    4.0698    0.0000 H   0  0  0  0  0  0  0  0  0  0  0  0
    0.1493    4.0068    0.0000 H   0  0  0  0  0  0  0  0  0  0  0  0
   -0.1233    2.0978    0.0000 C   0  0  0  0  0  0  0  0  0  0  0  0
   -1.3928    2.7966    0.0000 C   0  0  0  0  0  0  0  0  0  0  0  0
   -1.4030    4.2966    0.0000 H   0  0  0  0  0  0  0  0  0  0  0  0
   -2.6795    2.0653    0.0000 C   0  0  0  0  0  0  0  0  0  0  0  0
   -3.9927    2.7903    0.0000 H   0  0  0  0  0  0  0  0  0  0  0  0
   -2.6121    0.5685    0.0000 C   0  0  0  0  0  0  0  0  0  0  0  0
   -1.3426   -0.1304    0.0000 C   0  0  0  0  0  0  0  0  0  0  0  0
   -1.3324   -1.6304    0.0000 H   0  0  0  0  0  0  0  0  0  0  0  0
   -0.0559    0.6009    0.0000 C   0  0  0  0  0  0  0  0  0  0  0  0
    1.2573   -0.1241    0.0000 H   0  0  0  0  0  0  0  0  0  0  0  0
   -3.8859   -0.2236    0.0000 C   0  0  0  0  0  0  0  0  0  0  0  0
   -4.8120   -1.4036    0.0000 H   0  0  0  0  0  0  0  0  0  0  0  0
   -2.8847   -1.3405    0.0000 H   0  0  0  0  0  0  0  0  0  0  0  0
   -6.4787    1.1624    0.0000 C   0  0  0  0  0  0  0  0  0  0  0  0
   -5.5526    2.3423    0.0000 H   0  0  0  0  0  0  0  0  0  0  0  0
   -7.4800    2.2793    0.0000 H   0  0  0  0  0  0  0  0  0  0  0  0
   -7.7526    0.3703    0.0000 C   0  0  0  0  0  0  0  0  0  0  0  0
   -9.4987    1.3037    0.0000 C   0  0  0  0  0  0  0  0  0  0  0  0
   -8.5726    2.4837    0.0000 H   0  0  0  0  0  0  0  0  0  0  0  0
  -10.5000    2.4206    0.0000 H   0  0  0  0  0  0  0  0  0  0  0  0
  -10.7726    0.5116    0.0000 O   0  0  0  0  0  0  0  0  0  0  0  0
  -12.0954    1.2188    0.0000 H   0  0  0  0  0  0  0  0  0  0  0  0
   -8.6787   -0.8097    0.0000 C   0  0  0  0  0  0  0  0  0  0  0  0
   -9.1453   -2.2352    0.0000 H   0  0  0  0  0  0  0  0  0  0  0  0
   -7.3558   -1.5168    0.0000 H   0  0  0  0  0  0  0  0  0  0  0  0
  -10.1636   -0.5976    0.0000 O   0  0  0  0  0  0  0  0  0  0  0  0
  -11.0897   -1.7776    0.0000 H   0  0  0  0  0  0  0  0  0  0  0  0
   -6.7513   -0.7466    0.0000 N   0  0  0  0  0  0  0  0  0  0  0  0
   -7.3673   -2.6284    0.0000 H   0  0  0  0  0  0  0  0  0  0  0  0
   -5.2834   -0.4380    0.0000 H   0  0  0  0  0  0  0  0  0  0  0  0
    6.9022    1.1779    0.0000 O   0  0  0  0  0  0  0  0  0  0  0  0
    6.4356   -0.2477    0.0000 H   0  0  0  0  0  0  0  0  0  0  0  0
  1  2  1  0  0  0  0 
  1  3  1  0  0  0  0 
  1  4  1  0  0  0  0 
  1  5  1  0  0  0  0 
  5  6  1  0  0  0  0 
  5  7  1  0  0  0  0 
  5  8  1  0  0  0  0 
  8  9  1  0  0  0  0 
  8 10  1  0  0  0  0 
  8 11  1  0  0  0  0 
 11 12  1  0  0  0  0 
 11 13  1  0  0  0  0 
 11 14  1  0  0  0  0 
 14 15  1  0  0  0  0 
 14 16  1  0  0  0  0 
 16 17  1  0  0  0  0 
 16 18  1  0  0  0  0 
 16 19  1  0  0  0  0 
 19 20  1  0  0  0  0 
 19 21  1  0  0  0  0 
 19 22  1  0  0  0  0 
 22 23  1  0  0  0  0 
 22 24  1  0  0  0  0 
 22 25  1  0  0  0  0 
 25 26  2  0  0  0  0 
 26 27  1  0  0  0  0 
 26 28  1  0  0  0  0 
 28 29  1  0  0  0  0 
 28 30  2  0  0  0  0 
 30 31  1  0  0  0  0 
 31 32  1  0  0  0  0 
 31 33  2  0  0  0  0 
 25 33  1  0  0  0  0 
 33 34  1  0  0  0  0 
 30 35  1  0  0  0  0 
 35 36  1  0  0  0  0 
 35 37  1  0  0  0  0 
 35 38  1  0  0  0  0 
 38 39  1  0  0  0  0 
 38 40  1  0  0  0  0 
 38 41  1  0  0  0  0 
 41 42  1  0  0  0  0 
 42 43  1  0  0  0  0 
 42 44  1  0  0  0  0 
 42 45  1  0  0  0  0 
 45 46  1  0  0  0  0 
 41 47  1  0  0  0  0 
 47 48  1  0  0  0  0 
 47 49  1  0  0  0  0 
 47 50  1  0  0  0  0 
 50 51  1  0  0  0  0 
 41 52  1  0  0  0  0 
 52 53  1  0  0  0  0 
 52 54  1  0  0  0  0 
 14 55  1  0  0  0  0 
 55 56  1  0  0  0  0 
M  END
> <Rank>
26

> <Priority_score>
0.012

> <Reaction_type>
aliphatic hydroxylation

> <Parent_ID>
17

> <Parent_InChI>
InChI=1S/C19H33NO2/c1-2-3-4-5-6-7-8-17-9-11-18(12-10-17)13-14-19(20,15-21)16-22/h9-12,21-22H,2-8,13-16,20H2,1H3

> <Parent_SMILES>
CCCCCCCCc1ccc(CCC(N)(CO)CO)cc1

$$$$
Molecule 17_metabolite 27
  CDK     0516241031

 56 56  0  0  0  0  0  0  0  0999 V2000
   12.1972   -2.4776    0.0000 C   0  0  0  0  0  0  0  0  0  0  0  0
   12.1972   -0.9776    0.0000 H   0  0  0  0  0  0  0  0  0  0  0  0
   13.6745   -2.2171    0.0000 H   0  0  0  0  0  0  0  0  0  0  0  0
   12.7103   -3.8872    0.0000 H   0  0  0  0  0  0  0  0  0  0  0  0
   10.8982   -3.2276    0.0000 C   0  0  0  0  0  0  0  0  0  0  0  0
    9.9340   -4.3767    0.0000 H   0  0  0  0  0  0  0  0  0  0  0  0
   11.8624   -4.3767    0.0000 H   0  0  0  0  0  0  0  0  0  0  0  0
    9.5992   -2.4776    0.0000 C   0  0  0  0  0  0  0  0  0  0  0  0
   10.5634   -1.3285    0.0000 H   0  0  0  0  0  0  0  0  0  0  0  0
    8.6350   -1.3285    0.0000 H   0  0  0  0  0  0  0  0  0  0  0  0
    7.8844   -3.4676    0.0000 C   0  0  0  0  0  0  0  0  0  0  0  0
    6.9203   -4.6167    0.0000 H   0  0  0  0  0  0  0  0  0  0  0  0
    8.8486   -4.6167    0.0000 H   0  0  0  0  0  0  0  0  0  0  0  0
    6.5854   -2.7176    0.0000 C   0  0  0  0  0  0  0  0  0  0  0  0
    7.5496   -1.5685    0.0000 H   0  0  0  0  0  0  0  0  0  0  0  0
    5.6212   -1.5685    0.0000 H   0  0  0  0  0  0  0  0  0  0  0  0
    4.8707   -3.7076    0.0000 C   0  0  0  0  0  0  0  0  0  0  0  0
    3.9065   -4.8567    0.0000 H   0  0  0  0  0  0  0  0  0  0  0  0
    5.8349   -4.8567    0.0000 H   0  0  0  0  0  0  0  0  0  0  0  0
    3.1559   -2.7176    0.0000 C   0  0  0  0  0  0  0  0  0  0  0  0
    4.1201   -1.5685    0.0000 H   0  0  0  0  0  0  0  0  0  0  0  0
    2.1918   -1.5685    0.0000 H   0  0  0  0  0  0  0  0  0  0  0  0
    1.4412   -3.7076    0.0000 C   0  0  0  0  0  0  0  0  0  0  0  0
    0.4770   -4.8567    0.0000 H   0  0  0  0  0  0  0  0  0  0  0  0
    2.4054   -4.8567    0.0000 H   0  0  0  0  0  0  0  0  0  0  0  0
    0.1422   -2.9576    0.0000 C   0  0  0  0  0  0  0  0  0  0  0  0
   -1.1573   -3.7084    0.0000 C   0  0  0  0  0  0  0  0  0  0  0  0
   -1.1571   -5.2084    0.0000 H   0  0  0  0  0  0  0  0  0  0  0  0
   -2.4564   -2.9584    0.0000 C   0  0  0  0  0  0  0  0  0  0  0  0
   -3.7555   -3.7082    0.0000 H   0  0  0  0  0  0  0  0  0  0  0  0
   -2.4559   -1.4576    0.0000 C   0  0  0  0  0  0  0  0  0  0  0  0
   -3.7549   -0.7076    0.0000 C   0  0  0  0  0  0  0  0  0  0  0  0
   -2.7908    0.4415    0.0000 H   0  0  0  0  0  0  0  0  0  0  0  0
   -4.7191    0.4415    0.0000 H   0  0  0  0  0  0  0  0  0  0  0  0
   -5.0540   -1.4576    0.0000 C   0  0  0  0  0  0  0  0  0  0  0  0
   -6.0182   -2.6067    0.0000 H   0  0  0  0  0  0  0  0  0  0  0  0
   -4.0898   -2.6067    0.0000 H   0  0  0  0  0  0  0  0  0  0  0  0
   -6.7687   -0.4676    0.0000 C   0  0  0  0  0  0  0  0  0  0  0  0
   -8.4834   -1.4576    0.0000 C   0  0  0  0  0  0  0  0  0  0  0  0
   -9.4476   -2.6067    0.0000 H   0  0  0  0  0  0  0  0  0  0  0  0
   -7.5193   -2.6067    0.0000 H   0  0  0  0  0  0  0  0  0  0  0  0
   -9.7825   -0.7076    0.0000 O   0  0  0  0  0  0  0  0  0  0  0  0
  -11.0815   -1.4576    0.0000 H   0  0  0  0  0  0  0  0  0  0  0  0
   -5.8045    0.6815    0.0000 C   0  0  0  0  0  0  0  0  0  0  0  0
   -4.8403   -0.4676    0.0000 H   0  0  0  0  0  0  0  0  0  0  0  0
   -4.5055    1.4315    0.0000 H   0  0  0  0  0  0  0  0  0  0  0  0
   -6.3176    2.0910    0.0000 O   0  0  0  0  0  0  0  0  0  0  0  0
   -5.3534    3.2401    0.0000 H   0  0  0  0  0  0  0  0  0  0  0  0
   -7.7329    0.6815    0.0000 N   0  0  0  0  0  0  0  0  0  0  0  0
   -9.2101    0.4210    0.0000 H   0  0  0  0  0  0  0  0  0  0  0  0
   -7.2199    2.0910    0.0000 H   0  0  0  0  0  0  0  0  0  0  0  0
   -1.1564   -0.7068    0.0000 C   0  0  0  0  0  0  0  0  0  0  0  0
   -1.1566    0.7932    0.0000 H   0  0  0  0  0  0  0  0  0  0  0  0
    0.1427   -1.4568    0.0000 C   0  0  0  0  0  0  0  0  0  0  0  0
    1.4418   -0.7070    0.0000 O   0  0  0  0  0  0  0  0  0  0  0  0
    1.4421    0.7930    0.0000 H   0  0  0  0  0  0  0  0  0  0  0  0
  1  2  1  0  0  0  0 
  1  3  1  0  0  0  0 
  1  4  1  0  0  0  0 
  1  5  1  0  0  0  0 
  5  6  1  0  0  0  0 
  5  7  1  0  0  0  0 
  5  8  1  0  0  0  0 
  8  9  1  0  0  0  0 
  8 10  1  0  0  0  0 
  8 11  1  0  0  0  0 
 11 12  1  0  0  0  0 
 11 13  1  0  0  0  0 
 11 14  1  0  0  0  0 
 14 15  1  0  0  0  0 
 14 16  1  0  0  0  0 
 14 17  1  0  0  0  0 
 17 18  1  0  0  0  0 
 17 19  1  0  0  0  0 
 17 20  1  0  0  0  0 
 20 21  1  0  0  0  0 
 20 22  1  0  0  0  0 
 20 23  1  0  0  0  0 
 23 24  1  0  0  0  0 
 23 25  1  0  0  0  0 
 23 26  1  0  0  0  0 
 26 27  2  0  0  0  0 
 27 28  1  0  0  0  0 
 27 29  1  0  0  0  0 
 29 30  1  0  0  0  0 
 29 31  2  0  0  0  0 
 31 32  1  0  0  0  0 
 32 33  1  0  0  0  0 
 32 34  1  0  0  0  0 
 32 35  1  0  0  0  0 
 35 36  1  0  0  0  0 
 35 37  1  0  0  0  0 
 35 38  1  0  0  0  0 
 38 39  1  0  0  0  0 
 39 40  1  0  0  0  0 
 39 41  1  0  0  0  0 
 39 42  1  0  0  0  0 
 42 43  1  0  0  0  0 
 38 44  1  0  0  0  0 
 44 45  1  0  0  0  0 
 44 46  1  0  0  0  0 
 44 47  1  0  0  0  0 
 47 48  1  0  0  0  0 
 38 49  1  0  0  0  0 
 49 50  1  0  0  0  0 
 49 51  1  0  0  0  0 
 31 52  1  0  0  0  0 
 52 53  1  0  0  0  0 
 52 54  2  0  0  0  0 
 26 54  1  0  0  0  0 
 54 55  1  0  0  0  0 
 55 56  1  0  0  0  0 
M  END
> <Rank>
27

> <Priority_score>
0.008

> <Reaction_type>
aromatic hydroxylation

> <Parent_ID>
17

> <Parent_InChI>
InChI=1S/C19H33NO2/c1-2-3-4-5-6-7-8-17-9-11-18(12-10-17)13-14-19(20,15-21)16-22/h9-12,21-22H,2-8,13-16,20H2,1H3

> <Parent_SMILES>
CCCCCCCCc1ccc(CCC(N)(CO)CO)cc1

$$$$
Molecule 17_metabolite 28
  CDK     0516241031

 56 56  0  0  0  0  0  0  0  0999 V2000
  -12.7772    2.8176    0.0000 C   0  0  0  0  0  0  0  0  0  0  0  0
  -12.7772    1.3176    0.0000 H   0  0  0  0  0  0  0  0  0  0  0  0
  -14.2545    2.5571    0.0000 H   0  0  0  0  0  0  0  0  0  0  0  0
  -13.2903    4.2272    0.0000 H   0  0  0  0  0  0  0  0  0  0  0  0
  -11.4782    3.5676    0.0000 C   0  0  0  0  0  0  0  0  0  0  0  0
  -10.5140    4.7167    0.0000 H   0  0  0  0  0  0  0  0  0  0  0  0
  -12.4424    4.7167    0.0000 H   0  0  0  0  0  0  0  0  0  0  0  0
  -10.1792    2.8176    0.0000 C   0  0  0  0  0  0  0  0  0  0  0  0
  -11.1434    1.6685    0.0000 H   0  0  0  0  0  0  0  0  0  0  0  0
   -9.2150    1.6685    0.0000 H   0  0  0  0  0  0  0  0  0  0  0  0
   -8.4644    3.8076    0.0000 C   0  0  0  0  0  0  0  0  0  0  0  0
   -7.5003    4.9567    0.0000 H   0  0  0  0  0  0  0  0  0  0  0  0
   -9.4286    4.9567    0.0000 H   0  0  0  0  0  0  0  0  0  0  0  0
   -7.1654    3.0576    0.0000 C   0  0  0  0  0  0  0  0  0  0  0  0
   -8.1296    1.9085    0.0000 H   0  0  0  0  0  0  0  0  0  0  0  0
   -6.2012    1.9085    0.0000 H   0  0  0  0  0  0  0  0  0  0  0  0
   -5.4507    4.0476    0.0000 C   0  0  0  0  0  0  0  0  0  0  0  0
   -4.4865    5.1967    0.0000 H   0  0  0  0  0  0  0  0  0  0  0  0
   -6.4149    5.1967    0.0000 H   0  0  0  0  0  0  0  0  0  0  0  0
   -3.7359    3.0576    0.0000 C   0  0  0  0  0  0  0  0  0  0  0  0
   -4.7001    1.9085    0.0000 H   0  0  0  0  0  0  0  0  0  0  0  0
   -2.7718    1.9085    0.0000 H   0  0  0  0  0  0  0  0  0  0  0  0
   -2.0212    4.0476    0.0000 C   0  0  0  0  0  0  0  0  0  0  0  0
   -1.0570    5.1967    0.0000 H   0  0  0  0  0  0  0  0  0  0  0  0
   -2.9854    5.1967    0.0000 H   0  0  0  0  0  0  0  0  0  0  0  0
   -0.7222    3.2976    0.0000 C   0  0  0  0  0  0  0  0  0  0  0  0
   -0.7227    1.7968    0.0000 C   0  0  0  0  0  0  0  0  0  0  0  0
   -2.0218    1.0470    0.0000 H   0  0  0  0  0  0  0  0  0  0  0  0
    0.5764    1.0468    0.0000 C   0  0  0  0  0  0  0  0  0  0  0  0
    0.5766   -0.4532    0.0000 H   0  0  0  0  0  0  0  0  0  0  0  0
    1.8759    1.7976    0.0000 C   0  0  0  0  0  0  0  0  0  0  0  0
    3.1749    1.0476    0.0000 C   0  0  0  0  0  0  0  0  0  0  0  0
    2.2108   -0.1015    0.0000 H   0  0  0  0  0  0  0  0  0  0  0  0
    4.1391   -0.1015    0.0000 H   0  0  0  0  0  0  0  0  0  0  0  0
    4.4740    1.7976    0.0000 C   0  0  0  0  0  0  0  0  0  0  0  0
    5.4382    2.9467    0.0000 H   0  0  0  0  0  0  0  0  0  0  0  0
    3.5098    2.9467    0.0000 H   0  0  0  0  0  0  0  0  0  0  0  0
    6.1887    0.8076    0.0000 C   0  0  0  0  0  0  0  0  0  0  0  0
    7.9034    1.7976    0.0000 C   0  0  0  0  0  0  0  0  0  0  0  0
    8.8676    2.9467    0.0000 H   0  0  0  0  0  0  0  0  0  0  0  0
    6.9393    2.9467    0.0000 H   0  0  0  0  0  0  0  0  0  0  0  0
    9.2025    1.0476    0.0000 O   0  0  0  0  0  0  0  0  0  0  0  0
   10.5015    1.7976    0.0000 H   0  0  0  0  0  0  0  0  0  0  0  0
    5.2245   -0.3415    0.0000 C   0  0  0  0  0  0  0  0  0  0  0  0
    4.2603    0.8076    0.0000 H   0  0  0  0  0  0  0  0  0  0  0  0
    3.9255   -1.0915    0.0000 H   0  0  0  0  0  0  0  0  0  0  0  0
    5.7376   -1.7510    0.0000 O   0  0  0  0  0  0  0  0  0  0  0  0
    4.7734   -2.9001    0.0000 H   0  0  0  0  0  0  0  0  0  0  0  0
    7.1529   -0.3415    0.0000 N   0  0  0  0  0  0  0  0  0  0  0  0
    8.6301   -0.0810    0.0000 H   0  0  0  0  0  0  0  0  0  0  0  0
    6.6399   -1.7510    0.0000 H   0  0  0  0  0  0  0  0  0  0  0  0
    1.8764    3.2984    0.0000 C   0  0  0  0  0  0  0  0  0  0  0  0
    0.5773    4.0484    0.0000 C   0  0  0  0  0  0  0  0  0  0  0  0
    0.5771    5.5484    0.0000 H   0  0  0  0  0  0  0  0  0  0  0  0
    3.1755    4.0482    0.0000 O   0  0  0  0  0  0  0  0  0  0  0  0
    4.4745    3.2980    0.0000 H   0  0  0  0  0  0  0  0  0  0  0  0
  1  2  1  0  0  0  0 
  1  3  1  0  0  0  0 
  1  4  1  0  0  0  0 
  1  5  1  0  0  0  0 
  5  6  1  0  0  0  0 
  5  7  1  0  0  0  0 
  5  8  1  0  0  0  0 
  8  9  1  0  0  0  0 
  8 10  1  0  0  0  0 
  8 11  1  0  0  0  0 
 11 12  1  0  0  0  0 
 11 13  1  0  0  0  0 
 11 14  1  0  0  0  0 
 14 15  1  0  0  0  0 
 14 16  1  0  0  0  0 
 14 17  1  0  0  0  0 
 17 18  1  0  0  0  0 
 17 19  1  0  0  0  0 
 17 20  1  0  0  0  0 
 20 21  1  0  0  0  0 
 20 22  1  0  0  0  0 
 20 23  1  0  0  0  0 
 23 24  1  0  0  0  0 
 23 25  1  0  0  0  0 
 23 26  1  0  0  0  0 
 26 27  2  0  0  0  0 
 27 28  1  0  0  0  0 
 27 29  1  0  0  0  0 
 29 30  1  0  0  0  0 
 29 31  2  0  0  0  0 
 31 32  1  0  0  0  0 
 32 33  1  0  0  0  0 
 32 34  1  0  0  0  0 
 32 35  1  0  0  0  0 
 35 36  1  0  0  0  0 
 35 37  1  0  0  0  0 
 35 38  1  0  0  0  0 
 38 39  1  0  0  0  0 
 39 40  1  0  0  0  0 
 39 41  1  0  0  0  0 
 39 42  1  0  0  0  0 
 42 43  1  0  0  0  0 
 38 44  1  0  0  0  0 
 44 45  1  0  0  0  0 
 44 46  1  0  0  0  0 
 44 47  1  0  0  0  0 
 47 48  1  0  0  0  0 
 38 49  1  0  0  0  0 
 49 50  1  0  0  0  0 
 49 51  1  0  0  0  0 
 31 52  1  0  0  0  0 
 52 53  2  0  0  0  0 
 26 53  1  0  0  0  0 
 53 54  1  0  0  0  0 
 52 55  1  0  0  0  0 
 55 56  1  0  0  0  0 
M  END
> <Rank>
27

> <Priority_score>
0.008

> <Reaction_type>
aromatic hydroxylation

> <Parent_ID>
17

> <Parent_InChI>
InChI=1S/C19H33NO2/c1-2-3-4-5-6-7-8-17-9-11-18(12-10-17)13-14-19(20,15-21)16-22/h9-12,21-22H,2-8,13-16,20H2,1H3

> <Parent_SMILES>
CCCCCCCCc1ccc(CCC(N)(CO)CO)cc1

$$$$
Molecule 17_metabolite 29
  CDK     0516241031

 53 53  0  0  0  0  0  0  0  0999 V2000
   11.5099    2.4783    0.0000 C   0  0  0  0  0  0  0  0  0  0  0  0
   11.5589    0.9791    0.0000 H   0  0  0  0  0  0  0  0  0  0  0  0
   11.9765    3.9038    0.0000 H   0  0  0  0  0  0  0  0  0  0  0  0
   12.9948    2.2662    0.0000 H   0  0  0  0  0  0  0  0  0  0  0  0
   10.1870    3.1854    0.0000 C   0  0  0  0  0  0  0  0  0  0  0  0
   11.1131    4.3654    0.0000 H   0  0  0  0  0  0  0  0  0  0  0  0
    9.1858    4.3023    0.0000 H   0  0  0  0  0  0  0  0  0  0  0  0
    8.9132    2.3933    0.0000 C   0  0  0  0  0  0  0  0  0  0  0  0
    7.9871    1.2134    0.0000 H   0  0  0  0  0  0  0  0  0  0  0  0
    9.9144    1.2764    0.0000 H   0  0  0  0  0  0  0  0  0  0  0  0
    7.1670    3.3268    0.0000 C   0  0  0  0  0  0  0  0  0  0  0  0
    8.0931    4.5067    0.0000 H   0  0  0  0  0  0  0  0  0  0  0  0
    6.1658    4.4437    0.0000 H   0  0  0  0  0  0  0  0  0  0  0  0
    5.8932    2.5347    0.0000 C   0  0  0  0  0  0  0  0  0  0  0  0
    5.9422    1.0355    0.0000 H   0  0  0  0  0  0  0  0  0  0  0  0
    4.5703    3.2418    0.0000 C   0  0  0  0  0  0  0  0  0  0  0  0
    4.5213    4.7410    0.0000 H   0  0  0  0  0  0  0  0  0  0  0  0
    3.2965    2.4497    0.0000 C   0  0  0  0  0  0  0  0  0  0  0  0
    2.3704    1.2698    0.0000 H   0  0  0  0  0  0  0  0  0  0  0  0
    4.2977    1.3328    0.0000 H   0  0  0  0  0  0  0  0  0  0  0  0
    1.9736    3.1569    0.0000 C   0  0  0  0  0  0  0  0  0  0  0  0
    2.8997    4.3368    0.0000 H   0  0  0  0  0  0  0  0  0  0  0  0
    0.9724    4.2738    0.0000 H   0  0  0  0  0  0  0  0  0  0  0  0
    0.6998    2.3648    0.0000 C   0  0  0  0  0  0  0  0  0  0  0  0
   -0.5697    3.0637    0.0000 C   0  0  0  0  0  0  0  0  0  0  0  0
   -0.5799    4.5636    0.0000 H   0  0  0  0  0  0  0  0  0  0  0  0
   -1.8564    2.3323    0.0000 C   0  0  0  0  0  0  0  0  0  0  0  0
   -3.1696    3.0573    0.0000 H   0  0  0  0  0  0  0  0  0  0  0  0
   -1.7890    0.8355    0.0000 C   0  0  0  0  0  0  0  0  0  0  0  0
   -0.5195    0.1367    0.0000 C   0  0  0  0  0  0  0  0  0  0  0  0
   -0.5093   -1.3633    0.0000 H   0  0  0  0  0  0  0  0  0  0  0  0
    0.7672    0.8680    0.0000 C   0  0  0  0  0  0  0  0  0  0  0  0
    2.0804    0.1430    0.0000 H   0  0  0  0  0  0  0  0  0  0  0  0
   -3.0628    0.0435    0.0000 C   0  0  0  0  0  0  0  0  0  0  0  0
   -3.9889   -1.1365    0.0000 H   0  0  0  0  0  0  0  0  0  0  0  0
   -2.0616   -1.0735    0.0000 H   0  0  0  0  0  0  0  0  0  0  0  0
   -5.6556    1.4294    0.0000 C   0  0  0  0  0  0  0  0  0  0  0  0
   -4.7295    2.6094    0.0000 H   0  0  0  0  0  0  0  0  0  0  0  0
   -6.6569    2.5464    0.0000 H   0  0  0  0  0  0  0  0  0  0  0  0
   -6.9295    0.6374    0.0000 C   0  0  0  0  0  0  0  0  0  0  0  0
   -8.6756    1.5708    0.0000 C   0  0  0  0  0  0  0  0  0  0  0  0
   -7.7495    2.7507    0.0000 H   0  0  0  0  0  0  0  0  0  0  0  0
   -9.6769    2.6877    0.0000 H   0  0  0  0  0  0  0  0  0  0  0  0
   -9.9495    0.7787    0.0000 O   0  0  0  0  0  0  0  0  0  0  0  0
  -11.2723    1.4858    0.0000 H   0  0  0  0  0  0  0  0  0  0  0  0
   -7.8556   -0.5426    0.0000 C   0  0  0  0  0  0  0  0  0  0  0  0
   -8.3222   -1.9682    0.0000 H   0  0  0  0  0  0  0  0  0  0  0  0
   -6.5327   -1.2497    0.0000 H   0  0  0  0  0  0  0  0  0  0  0  0
   -9.3405   -0.3306    0.0000 O   0  0  0  0  0  0  0  0  0  0  0  0
  -10.2666   -1.5106    0.0000 H   0  0  0  0  0  0  0  0  0  0  0  0
   -5.9282   -0.4796    0.0000 N   0  0  0  0  0  0  0  0  0  0  0  0
   -6.5442   -2.3613    0.0000 H   0  0  0  0  0  0  0  0  0  0  0  0
   -4.4603   -0.1709    0.0000 H   0  0  0  0  0  0  0  0  0  0  0  0
  1  2  1  0  0  0  0 
  1  3  1  0  0  0  0 
  1  4  1  0  0  0  0 
  1  5  1  0  0  0  0 
  5  6  1  0  0  0  0 
  5  7  1  0  0  0  0 
  5  8  1  0  0  0  0 
  8  9  1  0  0  0  0 
  8 10  1  0  0  0  0 
  8 11  1  0  0  0  0 
 11 12  1  0  0  0  0 
 11 13  1  0  0  0  0 
 11 14  1  0  0  0  0 
 14 15  1  4  0  0  0 
 14 16  2  0  0  0  0 
 16 17  1  0  0  0  0 
 16 18  1  0  0  0  0 
 18 19  1  0  0  0  0 
 18 20  1  0  0  0  0 
 18 21  1  0  0  0  0 
 21 22  1  0  0  0  0 
 21 23  1  0  0  0  0 
 21 24  1  0  0  0  0 
 24 25  2  0  0  0  0 
 25 26  1  0  0  0  0 
 25 27  1  0  0  0  0 
 27 28  1  0  0  0  0 
 27 29  2  0  0  0  0 
 29 30  1  0  0  0  0 
 30 31  1  0  0  0  0 
 30 32  2  0  0  0  0 
 24 32  1  0  0  0  0 
 32 33  1  0  0  0  0 
 29 34  1  0  0  0  0 
 34 35  1  0  0  0  0 
 34 36  1  0  0  0  0 
 34 37  1  0  0  0  0 
 37 38  1  0  0  0  0 
 37 39  1  0  0  0  0 
 37 40  1  0  0  0  0 
 40 41  1  0  0  0  0 
 41 42  1  0  0  0  0 
 41 43  1  0  0  0  0 
 41 44  1  0  0  0  0 
 44 45  1  0  0  0  0 
 40 46  1  0  0  0  0 
 46 47  1  0  0  0  0 
 46 48  1  0  0  0  0 
 46 49  1  0  0  0  0 
 49 50  1  0  0  0  0 
 40 51  1  0  0  0  0 
 51 52  1  0  0  0  0 
 51 53  1  0  0  0  0 
M  END
> <Rank>
29

> <Priority_score>
0.004

> <Reaction_type>
alkyl dehydrogenation

> <Parent_ID>
17

> <Parent_InChI>
InChI=1S/C19H33NO2/c1-2-3-4-5-6-7-8-17-9-11-18(12-10-17)13-14-19(20,15-21)16-22/h9-12,21-22H,2-8,13-16,20H2,1H3

> <Parent_SMILES>
CCCCCCCCc1ccc(CCC(N)(CO)CO)cc1

$$$$
Molecule 18
  CDK     0516241031

 42 42  0  0  0  0  0  0  0  0999 V2000
  -40.2711    3.0002    0.0000 C   0  0  0  0  0  0  0  0  0  0  0  0
  -38.9722    2.2500    0.0000 C   0  0  0  0  0  0  0  0  0  0  0  0
  -37.6731    2.9998    0.0000 C   0  0  0  0  0  0  0  0  0  0  0  0
  -36.3741    2.2496    0.0000 C   0  0  0  0  0  0  0  0  0  0  0  0
  -35.0750    2.9994    0.0000 N   0  0  0  0  0  0  0  0  0  0  0  0
  -33.7761    2.2492    0.0000 C   0  0  0  0  0  0  0  0  0  0  0  0
  -32.4761    2.9992    0.0000 C   0  0  0  0  0  0  0  0  0  0  0  0
  -31.1761    2.2492    0.0000 C   0  0  0  0  0  0  0  0  0  0  0  0
  -31.1761    0.7492    0.0000 C   0  0  0  0  0  0  0  0  0  0  0  0
  -32.4761   -0.0008    0.0000 C   0  0  0  0  0  0  0  0  0  0  0  0
  -33.7761    0.7492    0.0000 C   0  0  0  0  0  0  0  0  0  0  0  0
  -29.8772   -0.0010    0.0000 C   0  0  0  0  0  0  0  0  0  0  0  0
  -29.8774   -1.5010    0.0000 O   0  0  0  0  0  0  0  0  0  0  0  0
  -28.5780    0.7488    0.0000 O   0  0  0  0  0  0  0  0  0  0  0  0
  -27.2791   -0.0015    0.0000 C   0  0  0  0  0  0  0  0  0  0  0  0
  -25.9799    0.7483    0.0000 C   0  0  0  0  0  0  0  0  0  0  0  0
  -24.6810   -0.0019    0.0000 O   0  0  0  0  0  0  0  0  0  0  0  0
  -23.3818    0.7479    0.0000 C   0  0  0  0  0  0  0  0  0  0  0  0
  -22.0829   -0.0023    0.0000 C   0  0  0  0  0  0  0  0  0  0  0  0
  -20.7838    0.7475    0.0000 O   0  0  0  0  0  0  0  0  0  0  0  0
  -19.4848   -0.0027    0.0000 C   0  0  0  0  0  0  0  0  0  0  0  0
  -18.1857    0.7471    0.0000 C   0  0  0  0  0  0  0  0  0  0  0  0
  -16.8868   -0.0031    0.0000 O   0  0  0  0  0  0  0  0  0  0  0  0
  -15.5876    0.7467    0.0000 C   0  0  0  0  0  0  0  0  0  0  0  0
  -14.2887   -0.0035    0.0000 C   0  0  0  0  0  0  0  0  0  0  0  0
  -12.9895    0.7463    0.0000 O   0  0  0  0  0  0  0  0  0  0  0  0
  -11.6906   -0.0040    0.0000 C   0  0  0  0  0  0  0  0  0  0  0  0
  -10.3915    0.7458    0.0000 C   0  0  0  0  0  0  0  0  0  0  0  0
   -9.0925   -0.0044    0.0000 O   0  0  0  0  0  0  0  0  0  0  0  0
   -7.7934    0.7454    0.0000 C   0  0  0  0  0  0  0  0  0  0  0  0
   -6.4945   -0.0048    0.0000 C   0  0  0  0  0  0  0  0  0  0  0  0
   -5.1953    0.7450    0.0000 O   0  0  0  0  0  0  0  0  0  0  0  0
   -3.8964   -0.0052    0.0000 C   0  0  0  0  0  0  0  0  0  0  0  0
   -2.5972    0.7446    0.0000 C   0  0  0  0  0  0  0  0  0  0  0  0
   -1.2983   -0.0056    0.0000 O   0  0  0  0  0  0  0  0  0  0  0  0
    0.0008    0.7442    0.0000 C   0  0  0  0  0  0  0  0  0  0  0  0
    1.2998   -0.0060    0.0000 C   0  0  0  0  0  0  0  0  0  0  0  0
    2.5989    0.7438    0.0000 O   0  0  0  0  0  0  0  0  0  0  0  0
    3.8978   -0.0065    0.0000 C   0  0  0  0  0  0  0  0  0  0  0  0
    5.1970    0.7433    0.0000 C   0  0  0  0  0  0  0  0  0  0  0  0
    6.4959   -0.0069    0.0000 O   0  0  0  0  0  0  0  0  0  0  0  0
    7.7951    0.7429    0.0000 C   0  0  0  0  0  0  0  0  0  0  0  0
  1  2  1  0  0  0  0 
  2  3  1  0  0  0  0 
  3  4  1  0  0  0  0 
  4  5  1  0  0  0  0 
  5  6  1  0  0  0  0 
  6  7  2  0  0  0  0 
  7  8  1  0  0  0  0 
  8  9  2  0  0  0  0 
  9 10  1  0  0  0  0 
 10 11  2  0  0  0  0 
  6 11  1  0  0  0  0 
  9 12  1  0  0  0  0 
 12 13  2  0  0  0  0 
 12 14  1  0  0  0  0 
 14 15  1  0  0  0  0 
 15 16  1  0  0  0  0 
 16 17  1  0  0  0  0 
 17 18  1  0  0  0  0 
 18 19  1  0  0  0  0 
 19 20  1  0  0  0  0 
 20 21  1  0  0  0  0 
 21 22  1  0  0  0  0 
 22 23  1  0  0  0  0 
 23 24  1  0  0  0  0 
 24 25  1  0  0  0  0 
 25 26  1  0  0  0  0 
 26 27  1  0  0  0  0 
 27 28  1  0  0  0  0 
 28 29  1  0  0  0  0 
 29 30  1  0  0  0  0 
 30 31  1  0  0  0  0 
 31 32  1  0  0  0  0 
 32 33  1  0  0  0  0 
 33 34  1  0  0  0  0 
 34 35  1  0  0  0  0 
 35 36  1  0  0  0  0 
 36 37  1  0  0  0  0 
 37 38  1  0  0  0  0 
 38 39  1  0  0  0  0 
 39 40  1  0  0  0  0 
 40 41  1  0  0  0  0 
 41 42  1  0  0  0  0 
M  END
> <SMILES>
CCCCNc1ccc(C(=O)OCCOCCOCCOCCOCCOCCOCCOCCOCCOC)cc1

$$$$
Molecule 18_metabolite 1
  CDK     0516241031

 92 92  0  0  0  0  0  0  0  0999 V2000
   10.2891   -2.4614    0.0000 C   0  0  0  0  0  0  0  0  0  0  0  0
   10.2888   -3.9614    0.0000 H   0  0  0  0  0  0  0  0  0  0  0  0
   10.8023   -1.0520    0.0000 H   0  0  0  0  0  0  0  0  0  0  0  0
   11.7662   -2.7221    0.0000 H   0  0  0  0  0  0  0  0  0  0  0  0
    8.9902   -1.7112    0.0000 C   0  0  0  0  0  0  0  0  0  0  0  0
    9.9545   -0.5623    0.0000 H   0  0  0  0  0  0  0  0  0  0  0  0
    8.0262   -0.5620    0.0000 H   0  0  0  0  0  0  0  0  0  0  0  0
    7.6910   -2.4610    0.0000 C   0  0  0  0  0  0  0  0  0  0  0  0
    6.7266   -3.6099    0.0000 H   0  0  0  0  0  0  0  0  0  0  0  0
    8.6550   -3.6102    0.0000 H   0  0  0  0  0  0  0  0  0  0  0  0
    5.9764   -1.4707    0.0000 C   0  0  0  0  0  0  0  0  0  0  0  0
    6.9408   -0.3218    0.0000 H   0  0  0  0  0  0  0  0  0  0  0  0
    5.0124   -0.3215    0.0000 H   0  0  0  0  0  0  0  0  0  0  0  0
    4.6773   -2.2205    0.0000 N   0  0  0  0  0  0  0  0  0  0  0  0
    4.6770   -3.7205    0.0000 H   0  0  0  0  0  0  0  0  0  0  0  0
    3.3783   -1.4703    0.0000 C   0  0  0  0  0  0  0  0  0  0  0  0
    2.0783   -2.2203    0.0000 C   0  0  0  0  0  0  0  0  0  0  0  0
    2.0783   -3.7203    0.0000 H   0  0  0  0  0  0  0  0  0  0  0  0
    0.7783   -1.4703    0.0000 C   0  0  0  0  0  0  0  0  0  0  0  0
   -0.5206   -2.2205    0.0000 H   0  0  0  0  0  0  0  0  0  0  0  0
    0.7783    0.0297    0.0000 C   0  0  0  0  0  0  0  0  0  0  0  0
    2.0783    0.7797    0.0000 C   0  0  0  0  0  0  0  0  0  0  0  0
    2.0783    2.2797    0.0000 H   0  0  0  0  0  0  0  0  0  0  0  0
    3.3783    0.0297    0.0000 C   0  0  0  0  0  0  0  0  0  0  0  0
    4.6773    0.7799    0.0000 H   0  0  0  0  0  0  0  0  0  0  0  0
   -0.5206    0.7799    0.0000 C   0  0  0  0  0  0  0  0  0  0  0  0
   -0.5203    2.2799    0.0000 O   0  0  0  0  0  0  0  0  0  0  0  0
   -1.8197    0.0301    0.0000 O   0  0  0  0  0  0  0  0  0  0  0  0
   -3.1186    0.7803    0.0000 C   0  0  0  0  0  0  0  0  0  0  0  0
   -2.1543    1.9292    0.0000 H   0  0  0  0  0  0  0  0  0  0  0  0
   -4.0826    1.9295    0.0000 H   0  0  0  0  0  0  0  0  0  0  0  0
   -4.4178    0.0305    0.0000 C   0  0  0  0  0  0  0  0  0  0  0  0
   -5.3822   -1.1184    0.0000 H   0  0  0  0  0  0  0  0  0  0  0  0
   -3.4538   -1.1187    0.0000 H   0  0  0  0  0  0  0  0  0  0  0  0
   -6.1324    1.0208    0.0000 O   0  0  0  0  0  0  0  0  0  0  0  0
   -7.4315    0.2710    0.0000 C   0  0  0  0  0  0  0  0  0  0  0  0
   -8.3959   -0.8779    0.0000 H   0  0  0  0  0  0  0  0  0  0  0  0
   -6.4675   -0.8782    0.0000 H   0  0  0  0  0  0  0  0  0  0  0  0
   -8.7305    1.0212    0.0000 C   0  0  0  0  0  0  0  0  0  0  0  0
   -7.7661    2.1701    0.0000 H   0  0  0  0  0  0  0  0  0  0  0  0
   -9.6945    2.1704    0.0000 H   0  0  0  0  0  0  0  0  0  0  0  0
  -10.0296    0.2714    0.0000 O   0  0  0  0  0  0  0  0  0  0  0  0
  -11.7442    1.2617    0.0000 C   0  0  0  0  0  0  0  0  0  0  0  0
  -10.7798    2.4106    0.0000 H   0  0  0  0  0  0  0  0  0  0  0  0
  -12.7082    2.4109    0.0000 H   0  0  0  0  0  0  0  0  0  0  0  0
  -13.0433    0.5119    0.0000 C   0  0  0  0  0  0  0  0  0  0  0  0
  -14.0077   -0.6370    0.0000 H   0  0  0  0  0  0  0  0  0  0  0  0
  -12.0793   -0.6373    0.0000 H   0  0  0  0  0  0  0  0  0  0  0  0
  -14.7579    1.5022    0.0000 O   0  0  0  0  0  0  0  0  0  0  0  0
  -16.0571    0.7524    0.0000 C   0  0  0  0  0  0  0  0  0  0  0  0
  -17.0214   -0.3965    0.0000 H   0  0  0  0  0  0  0  0  0  0  0  0
  -15.0931   -0.3969    0.0000 H   0  0  0  0  0  0  0  0  0  0  0  0
  -17.3560    1.5026    0.0000 C   0  0  0  0  0  0  0  0  0  0  0  0
  -16.3916    2.6515    0.0000 H   0  0  0  0  0  0  0  0  0  0  0  0
  -18.3200    2.6518    0.0000 H   0  0  0  0  0  0  0  0  0  0  0  0
  -18.6551    0.7528    0.0000 O   0  0  0  0  0  0  0  0  0  0  0  0
  -20.3697    1.7431    0.0000 C   0  0  0  0  0  0  0  0  0  0  0  0
  -19.4054    2.8920    0.0000 H   0  0  0  0  0  0  0  0  0  0  0  0
  -21.3337    2.8923    0.0000 H   0  0  0  0  0  0  0  0  0  0  0  0
  -21.6689    0.9933    0.0000 C   0  0  0  0  0  0  0  0  0  0  0  0
  -22.6332   -0.1556    0.0000 H   0  0  0  0  0  0  0  0  0  0  0  0
  -20.7049   -0.1560    0.0000 H   0  0  0  0  0  0  0  0  0  0  0  0
  -23.3834    1.9835    0.0000 O   0  0  0  0  0  0  0  0  0  0  0  0
  -24.6826    1.2337    0.0000 C   0  0  0  0  0  0  0  0  0  0  0  0
  -25.6470    0.0848    0.0000 H   0  0  0  0  0  0  0  0  0  0  0  0
  -23.7186    0.0845    0.0000 H   0  0  0  0  0  0  0  0  0  0  0  0
  -25.9815    1.9840    0.0000 C   0  0  0  0  0  0  0  0  0  0  0  0
  -25.0172    3.1329    0.0000 H   0  0  0  0  0  0  0  0  0  0  0  0
  -26.9455    3.1332    0.0000 H   0  0  0  0  0  0  0  0  0  0  0  0
  -27.2807    1.2342    0.0000 O   0  0  0  0  0  0  0  0  0  0  0  0
  -28.9953    2.2244    0.0000 C   0  0  0  0  0  0  0  0  0  0  0  0
  -28.0309    3.3733    0.0000 H   0  0  0  0  0  0  0  0  0  0  0  0
  -29.9593    3.3737    0.0000 H   0  0  0  0  0  0  0  0  0  0  0  0
  -30.2944    1.4746    0.0000 C   0  0  0  0  0  0  0  0  0  0  0  0
  -31.2588    0.3257    0.0000 H   0  0  0  0  0  0  0  0  0  0  0  0
  -29.3304    0.3254    0.0000 H   0  0  0  0  0  0  0  0  0  0  0  0
  -32.0090    2.4649    0.0000 O   0  0  0  0  0  0  0  0  0  0  0  0
  -33.3081    1.7151    0.0000 C   0  0  0  0  0  0  0  0  0  0  0  0
  -34.2725    0.5662    0.0000 H   0  0  0  0  0  0  0  0  0  0  0  0
  -32.3441    0.5659    0.0000 H   0  0  0  0  0  0  0  0  0  0  0  0
  -34.6071    2.4653    0.0000 C   0  0  0  0  0  0  0  0  0  0  0  0
  -33.6427    3.6142    0.0000 H   0  0  0  0  0  0  0  0  0  0  0  0
  -35.5711    3.6146    0.0000 H   0  0  0  0  0  0  0  0  0  0  0  0
  -36.3220    1.4756    0.0000 O   0  0  0  0  0  0  0  0  0  0  0  0
  -37.6209    2.2258    0.0000 C   0  0  0  0  0  0  0  0  0  0  0  0
  -36.6565    3.3747    0.0000 H   0  0  0  0  0  0  0  0  0  0  0  0
  -38.5849    3.3750    0.0000 H   0  0  0  0  0  0  0  0  0  0  0  0
  -38.9200    1.4760    0.0000 C   0  0  0  0  0  0  0  0  0  0  0  0
  -39.8844    0.3271    0.0000 H   0  0  0  0  0  0  0  0  0  0  0  0
  -37.9560    0.3268    0.0000 H   0  0  0  0  0  0  0  0  0  0  0  0
  -40.2189    2.2262    0.0000 O   0  0  0  0  0  0  0  0  0  0  0  0
  -41.5181    1.4764    0.0000 H   0  0  0  0  0  0  0  0  0  0  0  0
  1  2  1  0  0  0  0 
  1  3  1  0  0  0  0 
  1  4  1  0  0  0  0 
  1  5  1  0  0  0  0 
  5  6  1  0  0  0  0 
  5  7  1  0  0  0  0 
  5  8  1  0  0  0  0 
  8  9  1  0  0  0  0 
  8 10  1  0  0  0  0 
  8 11  1  0  0  0  0 
 11 12  1  0  0  0  0 
 11 13  1  0  0  0  0 
 11 14  1  0  0  0  0 
 14 15  1  0  0  0  0 
 14 16  1  0  0  0  0 
 16 17  2  0  0  0  0 
 17 18  1  0  0  0  0 
 17 19  1  0  0  0  0 
 19 20  1  0  0  0  0 
 19 21  2  0  0  0  0 
 21 22  1  0  0  0  0 
 22 23  1  0  0  0  0 
 22 24  2  0  0  0  0 
 16 24  1  0  0  0  0 
 24 25  1  0  0  0  0 
 21 26  1  0  0  0  0 
 26 27  2  0  0  0  0 
 26 28  1  0  0  0  0 
 28 29  1  0  0  0  0 
 29 30  1  0  0  0  0 
 29 31  1  0  0  0  0 
 29 32  1  0  0  0  0 
 32 33  1  0  0  0  0 
 32 34  1  0  0  0  0 
 32 35  1  0  0  0  0 
 35 36  1  0  0  0  0 
 36 37  1  0  0  0  0 
 36 38  1  0  0  0  0 
 36 39  1  0  0  0  0 
 39 40  1  0  0  0  0 
 39 41  1  0  0  0  0 
 39 42  1  0  0  0  0 
 42 43  1  0  0  0  0 
 43 44  1  0  0  0  0 
 43 45  1  0  0  0  0 
 43 46  1  0  0  0  0 
 46 47  1  0  0  0  0 
 46 48  1  0  0  0  0 
 46 49  1  0  0  0  0 
 49 50  1  0  0  0  0 
 50 51  1  0  0  0  0 
 50 52  1  0  0  0  0 
 50 53  1  0  0  0  0 
 53 54  1  0  0  0  0 
 53 55  1  0  0  0  0 
 53 56  1  0  0  0  0 
 56 57  1  0  0  0  0 
 57 58  1  0  0  0  0 
 57 59  1  0  0  0  0 
 57 60  1  0  0  0  0 
 60 61  1  0  0  0  0 
 60 62  1  0  0  0  0 
 60 63  1  0  0  0  0 
 63 64  1  0  0  0  0 
 64 65  1  0  0  0  0 
 64 66  1  0  0  0  0 
 64 67  1  0  0  0  0 
 67 68  1  0  0  0  0 
 67 69  1  0  0  0  0 
 67 70  1  0  0  0  0 
 70 71  1  0  0  0  0 
 71 72  1  0  0  0  0 
 71 73  1  0  0  0  0 
 71 74  1  0  0  0  0 
 74 75  1  0  0  0  0 
 74 76  1  0  0  0  0 
 74 77  1  0  0  0  0 
 77 78  1  0  0  0  0 
 78 79  1  0  0  0  0 
 78 80  1  0  0  0  0 
 78 81  1  0  0  0  0 
 81 82  1  0  0  0  0 
 81 83  1  0  0  0  0 
 81 84  1  0  0  0  0 
 84 85  1  0  0  0  0 
 85 86  1  0  0  0  0 
 85 87  1  0  0  0  0 
 85 88  1  0  0  0  0 
 88 89  1  0  0  0  0 
 88 90  1  0  0  0  0 
 88 91  1  0  0  0  0 
 91 92  1  0  0  0  0 
M  END
> <Rank>
1

> <Priority_score>
0.364

> <Reaction_type>
O-demethylation

> <Parent_ID>
18

> <Parent_InChI>
InChI=1S/C30H53NO11/c1-3-4-9-31-29-7-5-28(6-8-29)30(32)42-27-26-41-25-24-40-23-22-39-21-20-38-19-18-37-17-16-36-15-14-35-13-12-34-11-10-33-2/h5-8,31H,3-4,9-27H2,1-2H3

> <Parent_SMILES>
CCCCNc1ccc(C(=O)OCCOCCOCCOCCOCCOCCOCCOCCOCCOC)cc1

$$$$
Molecule 18_metabolite 2
  CDK     0516241031

 90 90  0  0  0  0  0  0  0  0999 V2000
   10.2891   -2.4614    0.0000 C   0  0  0  0  0  0  0  0  0  0  0  0
   10.2888   -3.9614    0.0000 H   0  0  0  0  0  0  0  0  0  0  0  0
   10.8023   -1.0520    0.0000 H   0  0  0  0  0  0  0  0  0  0  0  0
   11.7662   -2.7221    0.0000 H   0  0  0  0  0  0  0  0  0  0  0  0
    8.9902   -1.7112    0.0000 C   0  0  0  0  0  0  0  0  0  0  0  0
    9.9545   -0.5623    0.0000 H   0  0  0  0  0  0  0  0  0  0  0  0
    8.0262   -0.5620    0.0000 H   0  0  0  0  0  0  0  0  0  0  0  0
    7.6910   -2.4610    0.0000 C   0  0  0  0  0  0  0  0  0  0  0  0
    6.7266   -3.6099    0.0000 H   0  0  0  0  0  0  0  0  0  0  0  0
    8.6550   -3.6102    0.0000 H   0  0  0  0  0  0  0  0  0  0  0  0
    5.9764   -1.4707    0.0000 C   0  0  0  0  0  0  0  0  0  0  0  0
    6.9408   -0.3218    0.0000 H   0  0  0  0  0  0  0  0  0  0  0  0
    5.0124   -0.3215    0.0000 H   0  0  0  0  0  0  0  0  0  0  0  0
    4.6773   -2.2205    0.0000 N   0  0  0  0  0  0  0  0  0  0  0  0
    4.6770   -3.7205    0.0000 H   0  0  0  0  0  0  0  0  0  0  0  0
    3.3783   -1.4703    0.0000 C   0  0  0  0  0  0  0  0  0  0  0  0
    2.0783   -2.2203    0.0000 C   0  0  0  0  0  0  0  0  0  0  0  0
    2.0783   -3.7203    0.0000 H   0  0  0  0  0  0  0  0  0  0  0  0
    0.7783   -1.4703    0.0000 C   0  0  0  0  0  0  0  0  0  0  0  0
   -0.5206   -2.2205    0.0000 H   0  0  0  0  0  0  0  0  0  0  0  0
    0.7783    0.0297    0.0000 C   0  0  0  0  0  0  0  0  0  0  0  0
    2.0783    0.7797    0.0000 C   0  0  0  0  0  0  0  0  0  0  0  0
    2.0783    2.2797    0.0000 H   0  0  0  0  0  0  0  0  0  0  0  0
    3.3783    0.0297    0.0000 C   0  0  0  0  0  0  0  0  0  0  0  0
    4.6773    0.7799    0.0000 H   0  0  0  0  0  0  0  0  0  0  0  0
   -0.5206    0.7799    0.0000 C   0  0  0  0  0  0  0  0  0  0  0  0
   -0.5203    2.2799    0.0000 O   0  0  0  0  0  0  0  0  0  0  0  0
   -1.8197    0.0301    0.0000 O   0  0  0  0  0  0  0  0  0  0  0  0
   -3.1186    0.7803    0.0000 C   0  0  0  0  0  0  0  0  0  0  0  0
   -2.1543    1.9292    0.0000 H   0  0  0  0  0  0  0  0  0  0  0  0
   -4.0826    1.9295    0.0000 H   0  0  0  0  0  0  0  0  0  0  0  0
   -4.4178    0.0305    0.0000 C   0  0  0  0  0  0  0  0  0  0  0  0
   -5.3822   -1.1184    0.0000 H   0  0  0  0  0  0  0  0  0  0  0  0
   -3.4538   -1.1187    0.0000 H   0  0  0  0  0  0  0  0  0  0  0  0
   -6.1324    1.0208    0.0000 O   0  0  0  0  0  0  0  0  0  0  0  0
   -7.4315    0.2710    0.0000 C   0  0  0  0  0  0  0  0  0  0  0  0
   -8.3959   -0.8779    0.0000 H   0  0  0  0  0  0  0  0  0  0  0  0
   -6.4675   -0.8782    0.0000 H   0  0  0  0  0  0  0  0  0  0  0  0
   -8.7305    1.0212    0.0000 C   0  0  0  0  0  0  0  0  0  0  0  0
   -7.7661    2.1701    0.0000 H   0  0  0  0  0  0  0  0  0  0  0  0
   -9.6945    2.1704    0.0000 H   0  0  0  0  0  0  0  0  0  0  0  0
  -10.0296    0.2714    0.0000 O   0  0  0  0  0  0  0  0  0  0  0  0
  -11.7442    1.2617    0.0000 C   0  0  0  0  0  0  0  0  0  0  0  0
  -10.7798    2.4106    0.0000 H   0  0  0  0  0  0  0  0  0  0  0  0
  -12.7082    2.4109    0.0000 H   0  0  0  0  0  0  0  0  0  0  0  0
  -13.0433    0.5119    0.0000 C   0  0  0  0  0  0  0  0  0  0  0  0
  -14.0077   -0.6370    0.0000 H   0  0  0  0  0  0  0  0  0  0  0  0
  -12.0793   -0.6373    0.0000 H   0  0  0  0  0  0  0  0  0  0  0  0
  -14.7579    1.5022    0.0000 O   0  0  0  0  0  0  0  0  0  0  0  0
  -16.0571    0.7524    0.0000 C   0  0  0  0  0  0  0  0  0  0  0  0
  -17.0214   -0.3965    0.0000 H   0  0  0  0  0  0  0  0  0  0  0  0
  -15.0931   -0.3969    0.0000 H   0  0  0  0  0  0  0  0  0  0  0  0
  -17.3560    1.5026    0.0000 C   0  0  0  0  0  0  0  0  0  0  0  0
  -16.3916    2.6515    0.0000 H   0  0  0  0  0  0  0  0  0  0  0  0
  -18.3200    2.6518    0.0000 H   0  0  0  0  0  0  0  0  0  0  0  0
  -18.6551    0.7528    0.0000 O   0  0  0  0  0  0  0  0  0  0  0  0
  -20.3697    1.7431    0.0000 C   0  0  0  0  0  0  0  0  0  0  0  0
  -19.4054    2.8920    0.0000 H   0  0  0  0  0  0  0  0  0  0  0  0
  -21.3337    2.8923    0.0000 H   0  0  0  0  0  0  0  0  0  0  0  0
  -21.6689    0.9933    0.0000 C   0  0  0  0  0  0  0  0  0  0  0  0
  -22.6332   -0.1556    0.0000 H   0  0  0  0  0  0  0  0  0  0  0  0
  -20.7049   -0.1560    0.0000 H   0  0  0  0  0  0  0  0  0  0  0  0
  -23.3834    1.9835    0.0000 O   0  0  0  0  0  0  0  0  0  0  0  0
  -24.6826    1.2337    0.0000 C   0  0  0  0  0  0  0  0  0  0  0  0
  -25.6470    0.0848    0.0000 H   0  0  0  0  0  0  0  0  0  0  0  0
  -23.7186    0.0845    0.0000 H   0  0  0  0  0  0  0  0  0  0  0  0
  -25.9815    1.9840    0.0000 C   0  0  0  0  0  0  0  0  0  0  0  0
  -25.0172    3.1329    0.0000 H   0  0  0  0  0  0  0  0  0  0  0  0
  -26.9455    3.1332    0.0000 H   0  0  0  0  0  0  0  0  0  0  0  0
  -27.2807    1.2342    0.0000 O   0  0  0  0  0  0  0  0  0  0  0  0
  -28.9953    2.2244    0.0000 C   0  0  0  0  0  0  0  0  0  0  0  0
  -28.0309    3.3733    0.0000 H   0  0  0  0  0  0  0  0  0  0  0  0
  -29.9593    3.3737    0.0000 H   0  0  0  0  0  0  0  0  0  0  0  0
  -30.2944    1.4746    0.0000 C   0  0  0  0  0  0  0  0  0  0  0  0
  -31.2588    0.3257    0.0000 H   0  0  0  0  0  0  0  0  0  0  0  0
  -29.3304    0.3254    0.0000 H   0  0  0  0  0  0  0  0  0  0  0  0
  -32.0090    2.4649    0.0000 O   0  0  0  0  0  0  0  0  0  0  0  0
  -33.3081    1.7151    0.0000 C   0  0  0  0  0  0  0  0  0  0  0  0
  -34.2725    0.5662    0.0000 H   0  0  0  0  0  0  0  0  0  0  0  0
  -32.3441    0.5659    0.0000 H   0  0  0  0  0  0  0  0  0  0  0  0
  -34.6071    2.4653    0.0000 C   0  0  0  0  0  0  0  0  0  0  0  0
  -33.6427    3.6142    0.0000 H   0  0  0  0  0  0  0  0  0  0  0  0
  -35.5711    3.6146    0.0000 H   0  0  0  0  0  0  0  0  0  0  0  0
  -36.3220    1.4756    0.0000 O   0  0  0  0  0  0  0  0  0  0  0  0
  -37.6209    2.2258    0.0000 C   0  0  0  0  0  0  0  0  0  0  0  0
  -36.6565    3.3747    0.0000 H   0  0  0  0  0  0  0  0  0  0  0  0
  -38.5849    3.3750    0.0000 H   0  0  0  0  0  0  0  0  0  0  0  0
  -38.9200    1.4760    0.0000 C   0  0  0  0  0  0  0  0  0  0  0  0
  -40.2189    2.2262    0.0000 H   0  0  0  0  0  0  0  0  0  0  0  0
  -38.9203   -0.0240    0.0000 O   0  0  0  0  0  0  0  0  0  0  0  0
  1  2  1  0  0  0  0 
  1  3  1  0  0  0  0 
  1  4  1  0  0  0  0 
  1  5  1  0  0  0  0 
  5  6  1  0  0  0  0 
  5  7  1  0  0  0  0 
  5  8  1  0  0  0  0 
  8  9  1  0  0  0  0 
  8 10  1  0  0  0  0 
  8 11  1  0  0  0  0 
 11 12  1  0  0  0  0 
 11 13  1  0  0  0  0 
 11 14  1  0  0  0  0 
 14 15  1  0  0  0  0 
 14 16  1  0  0  0  0 
 16 17  2  0  0  0  0 
 17 18  1  0  0  0  0 
 17 19  1  0  0  0  0 
 19 20  1  0  0  0  0 
 19 21  2  0  0  0  0 
 21 22  1  0  0  0  0 
 22 23  1  0  0  0  0 
 22 24  2  0  0  0  0 
 16 24  1  0  0  0  0 
 24 25  1  0  0  0  0 
 21 26  1  0  0  0  0 
 26 27  2  0  0  0  0 
 26 28  1  0  0  0  0 
 28 29  1  0  0  0  0 
 29 30  1  0  0  0  0 
 29 31  1  0  0  0  0 
 29 32  1  0  0  0  0 
 32 33  1  0  0  0  0 
 32 34  1  0  0  0  0 
 32 35  1  0  0  0  0 
 35 36  1  0  0  0  0 
 36 37  1  0  0  0  0 
 36 38  1  0  0  0  0 
 36 39  1  0  0  0  0 
 39 40  1  0  0  0  0 
 39 41  1  0  0  0  0 
 39 42  1  0  0  0  0 
 42 43  1  0  0  0  0 
 43 44  1  0  0  0  0 
 43 45  1  0  0  0  0 
 43 46  1  0  0  0  0 
 46 47  1  0  0  0  0 
 46 48  1  0  0  0  0 
 46 49  1  0  0  0  0 
 49 50  1  0  0  0  0 
 50 51  1  0  0  0  0 
 50 52  1  0  0  0  0 
 50 53  1  0  0  0  0 
 53 54  1  0  0  0  0 
 53 55  1  0  0  0  0 
 53 56  1  0  0  0  0 
 56 57  1  0  0  0  0 
 57 58  1  0  0  0  0 
 57 59  1  0  0  0  0 
 57 60  1  0  0  0  0 
 60 61  1  0  0  0  0 
 60 62  1  0  0  0  0 
 60 63  1  0  0  0  0 
 63 64  1  0  0  0  0 
 64 65  1  0  0  0  0 
 64 66  1  0  0  0  0 
 64 67  1  0  0  0  0 
 67 68  1  0  0  0  0 
 67 69  1  0  0  0  0 
 67 70  1  0  0  0  0 
 70 71  1  0  0  0  0 
 71 72  1  0  0  0  0 
 71 73  1  0  0  0  0 
 71 74  1  0  0  0  0 
 74 75  1  0  0  0  0 
 74 76  1  0  0  0  0 
 74 77  1  0  0  0  0 
 77 78  1  0  0  0  0 
 78 79  1  0  0  0  0 
 78 80  1  0  0  0  0 
 78 81  1  0  0  0  0 
 81 82  1  0  0  0  0 
 81 83  1  0  0  0  0 
 81 84  1  0  0  0  0 
 84 85  1  0  0  0  0 
 85 86  1  0  0  0  0 
 85 87  1  0  0  0  0 
 85 88  1  0  0  0  0 
 88 89  1  0  0  0  0 
 88 90  2  0  0  0  0 
M  END
> <Rank>
1

> <Priority_score>
0.364

> <Reaction_type>
oxidative ether cleavage to one alcohol and one aldehyde/ketone

> <Parent_ID>
18

> <Parent_InChI>
InChI=1S/C30H53NO11/c1-3-4-9-31-29-7-5-28(6-8-29)30(32)42-27-26-41-25-24-40-23-22-39-21-20-38-19-18-37-17-16-36-15-14-35-13-12-34-11-10-33-2/h5-8,31H,3-4,9-27H2,1-2H3

> <Parent_SMILES>
CCCCNc1ccc(C(=O)OCCOCCOCCOCCOCCOCCOCCOCCOCCOC)cc1

$$$$
Molecule 18_metabolite 3
  CDK     0516241031

 96 96  0  0  0  0  0  0  0  0999 V2000
  -41.9339    1.8746    0.0000 C   0  0  0  0  0  0  0  0  0  0  0  0
  -41.9337    3.3746    0.0000 H   0  0  0  0  0  0  0  0  0  0  0  0
  -42.4472    0.4652    0.0000 H   0  0  0  0  0  0  0  0  0  0  0  0
  -43.4111    2.1353    0.0000 H   0  0  0  0  0  0  0  0  0  0  0  0
  -40.6350    1.1244    0.0000 C   0  0  0  0  0  0  0  0  0  0  0  0
  -41.5994   -0.0245    0.0000 H   0  0  0  0  0  0  0  0  0  0  0  0
  -39.6710   -0.0248    0.0000 H   0  0  0  0  0  0  0  0  0  0  0  0
  -39.3358    1.8742    0.0000 C   0  0  0  0  0  0  0  0  0  0  0  0
  -38.3715    3.0231    0.0000 H   0  0  0  0  0  0  0  0  0  0  0  0
  -40.2998    3.0234    0.0000 H   0  0  0  0  0  0  0  0  0  0  0  0
  -37.6213    0.8839    0.0000 C   0  0  0  0  0  0  0  0  0  0  0  0
  -38.5856   -0.2650    0.0000 H   0  0  0  0  0  0  0  0  0  0  0  0
  -36.6573   -0.2653    0.0000 H   0  0  0  0  0  0  0  0  0  0  0  0
  -36.3221    1.6337    0.0000 N   0  0  0  0  0  0  0  0  0  0  0  0
  -36.3219    3.1337    0.0000 H   0  0  0  0  0  0  0  0  0  0  0  0
  -35.0232    0.8835    0.0000 C   0  0  0  0  0  0  0  0  0  0  0  0
  -33.7232    1.6335    0.0000 C   0  0  0  0  0  0  0  0  0  0  0  0
  -33.7232    3.1335    0.0000 H   0  0  0  0  0  0  0  0  0  0  0  0
  -32.4232    0.8835    0.0000 C   0  0  0  0  0  0  0  0  0  0  0  0
  -31.1243    1.6337    0.0000 H   0  0  0  0  0  0  0  0  0  0  0  0
  -32.4232   -0.6165    0.0000 C   0  0  0  0  0  0  0  0  0  0  0  0
  -33.7232   -1.3665    0.0000 C   0  0  0  0  0  0  0  0  0  0  0  0
  -33.7232   -2.8665    0.0000 H   0  0  0  0  0  0  0  0  0  0  0  0
  -35.0232   -0.6165    0.0000 C   0  0  0  0  0  0  0  0  0  0  0  0
  -36.3221   -1.3667    0.0000 H   0  0  0  0  0  0  0  0  0  0  0  0
  -31.1243   -1.3667    0.0000 C   0  0  0  0  0  0  0  0  0  0  0  0
  -31.1245   -2.8667    0.0000 O   0  0  0  0  0  0  0  0  0  0  0  0
  -29.8251   -0.6169    0.0000 O   0  0  0  0  0  0  0  0  0  0  0  0
  -28.5262   -1.3671    0.0000 C   0  0  0  0  0  0  0  0  0  0  0  0
  -29.4906   -2.5160    0.0000 H   0  0  0  0  0  0  0  0  0  0  0  0
  -27.5622   -2.5163    0.0000 H   0  0  0  0  0  0  0  0  0  0  0  0
  -27.2270   -0.6173    0.0000 C   0  0  0  0  0  0  0  0  0  0  0  0
  -26.2627    0.5316    0.0000 H   0  0  0  0  0  0  0  0  0  0  0  0
  -28.1910    0.5319    0.0000 H   0  0  0  0  0  0  0  0  0  0  0  0
  -25.5125   -1.6076    0.0000 O   0  0  0  0  0  0  0  0  0  0  0  0
  -24.2133   -0.8578    0.0000 C   0  0  0  0  0  0  0  0  0  0  0  0
  -23.2489    0.2911    0.0000 H   0  0  0  0  0  0  0  0  0  0  0  0
  -25.1773    0.2914    0.0000 H   0  0  0  0  0  0  0  0  0  0  0  0
  -22.9144   -1.6080    0.0000 C   0  0  0  0  0  0  0  0  0  0  0  0
  -23.8788   -2.7569    0.0000 H   0  0  0  0  0  0  0  0  0  0  0  0
  -21.9504   -2.7572    0.0000 H   0  0  0  0  0  0  0  0  0  0  0  0
  -21.6152   -0.8582    0.0000 O   0  0  0  0  0  0  0  0  0  0  0  0
  -19.9007   -1.8485    0.0000 C   0  0  0  0  0  0  0  0  0  0  0  0
  -20.8650   -2.9974    0.0000 H   0  0  0  0  0  0  0  0  0  0  0  0
  -18.9367   -2.9977    0.0000 H   0  0  0  0  0  0  0  0  0  0  0  0
  -18.6015   -1.0987    0.0000 C   0  0  0  0  0  0  0  0  0  0  0  0
  -17.6371    0.0502    0.0000 H   0  0  0  0  0  0  0  0  0  0  0  0
  -19.5655    0.0505    0.0000 H   0  0  0  0  0  0  0  0  0  0  0  0
  -16.8869   -2.0890    0.0000 O   0  0  0  0  0  0  0  0  0  0  0  0
  -15.5878   -1.3392    0.0000 C   0  0  0  0  0  0  0  0  0  0  0  0
  -14.6234   -0.1903    0.0000 H   0  0  0  0  0  0  0  0  0  0  0  0
  -16.5518   -0.1900    0.0000 H   0  0  0  0  0  0  0  0  0  0  0  0
  -14.2889   -2.0894    0.0000 C   0  0  0  0  0  0  0  0  0  0  0  0
  -15.2532   -3.2383    0.0000 H   0  0  0  0  0  0  0  0  0  0  0  0
  -13.3249   -3.2386    0.0000 H   0  0  0  0  0  0  0  0  0  0  0  0
  -12.9897   -1.3396    0.0000 O   0  0  0  0  0  0  0  0  0  0  0  0
  -11.2751   -2.3299    0.0000 C   0  0  0  0  0  0  0  0  0  0  0  0
  -12.2395   -3.4788    0.0000 H   0  0  0  0  0  0  0  0  0  0  0  0
  -10.3111   -3.4791    0.0000 H   0  0  0  0  0  0  0  0  0  0  0  0
   -9.9760   -1.5801    0.0000 C   0  0  0  0  0  0  0  0  0  0  0  0
   -9.0116   -0.4312    0.0000 H   0  0  0  0  0  0  0  0  0  0  0  0
  -10.9400   -0.4309    0.0000 H   0  0  0  0  0  0  0  0  0  0  0  0
   -8.6771   -2.3303    0.0000 O   0  0  0  0  0  0  0  0  0  0  0  0
   -6.9622   -1.3406    0.0000 C   0  0  0  0  0  0  0  0  0  0  0  0
   -5.9978   -0.1917    0.0000 H   0  0  0  0  0  0  0  0  0  0  0  0
   -7.9262   -0.1913    0.0000 H   0  0  0  0  0  0  0  0  0  0  0  0
   -5.6632   -2.0908    0.0000 C   0  0  0  0  0  0  0  0  0  0  0  0
   -6.6276   -3.2397    0.0000 H   0  0  0  0  0  0  0  0  0  0  0  0
   -4.6992   -3.2400    0.0000 H   0  0  0  0  0  0  0  0  0  0  0  0
   -4.3641   -1.3410    0.0000 O   0  0  0  0  0  0  0  0  0  0  0  0
   -2.6495   -2.3313    0.0000 C   0  0  0  0  0  0  0  0  0  0  0  0
   -3.6139   -3.4802    0.0000 H   0  0  0  0  0  0  0  0  0  0  0  0
   -1.6855   -3.4805    0.0000 H   0  0  0  0  0  0  0  0  0  0  0  0
   -1.3504   -1.5815    0.0000 C   0  0  0  0  0  0  0  0  0  0  0  0
   -0.3860   -0.4325    0.0000 H   0  0  0  0  0  0  0  0  0  0  0  0
   -2.3144   -0.4322    0.0000 H   0  0  0  0  0  0  0  0  0  0  0  0
    0.3642   -2.5717    0.0000 O   0  0  0  0  0  0  0  0  0  0  0  0
    1.6634   -1.8219    0.0000 C   0  0  0  0  0  0  0  0  0  0  0  0
    2.6277   -0.6730    0.0000 H   0  0  0  0  0  0  0  0  0  0  0  0
    0.6994   -0.6727    0.0000 H   0  0  0  0  0  0  0  0  0  0  0  0
    2.9623   -2.5722    0.0000 C   0  0  0  0  0  0  0  0  0  0  0  0
    1.9979   -3.7211    0.0000 H   0  0  0  0  0  0  0  0  0  0  0  0
    3.9263   -3.7214    0.0000 H   0  0  0  0  0  0  0  0  0  0  0  0
    4.6772   -1.5824    0.0000 O   0  0  0  0  0  0  0  0  0  0  0  0
    5.9761   -2.3326    0.0000 C   0  0  0  0  0  0  0  0  0  0  0  0
    5.0117   -3.4815    0.0000 H   0  0  0  0  0  0  0  0  0  0  0  0
    6.9401   -3.4819    0.0000 H   0  0  0  0  0  0  0  0  0  0  0  0
    7.2753   -1.5828    0.0000 C   0  0  0  0  0  0  0  0  0  0  0  0
    8.2396   -0.4339    0.0000 H   0  0  0  0  0  0  0  0  0  0  0  0
    6.3113   -0.4336    0.0000 H   0  0  0  0  0  0  0  0  0  0  0  0
    8.5742   -2.3331    0.0000 O   0  0  0  0  0  0  0  0  0  0  0  0
    9.8733   -1.5833    0.0000 C   0  0  0  0  0  0  0  0  0  0  0  0
   11.3506   -1.3230    0.0000 H   0  0  0  0  0  0  0  0  0  0  0  0
   10.3861   -2.9929    0.0000 H   0  0  0  0  0  0  0  0  0  0  0  0
    9.8736   -0.0833    0.0000 O   0  0  0  0  0  0  0  0  0  0  0  0
   11.1727    0.6665    0.0000 H   0  0  0  0  0  0  0  0  0  0  0  0
  1  2  1  0  0  0  0 
  1  3  1  0  0  0  0 
  1  4  1  0  0  0  0 
  1  5  1  0  0  0  0 
  5  6  1  0  0  0  0 
  5  7  1  0  0  0  0 
  5  8  1  0  0  0  0 
  8  9  1  0  0  0  0 
  8 10  1  0  0  0  0 
  8 11  1  0  0  0  0 
 11 12  1  0  0  0  0 
 11 13  1  0  0  0  0 
 11 14  1  0  0  0  0 
 14 15  1  0  0  0  0 
 14 16  1  0  0  0  0 
 16 17  2  0  0  0  0 
 17 18  1  0  0  0  0 
 17 19  1  0  0  0  0 
 19 20  1  0  0  0  0 
 19 21  2  0  0  0  0 
 21 22  1  0  0  0  0 
 22 23  1  0  0  0  0 
 22 24  2  0  0  0  0 
 16 24  1  0  0  0  0 
 24 25  1  0  0  0  0 
 21 26  1  0  0  0  0 
 26 27  2  0  0  0  0 
 26 28  1  0  0  0  0 
 28 29  1  0  0  0  0 
 29 30  1  0  0  0  0 
 29 31  1  0  0  0  0 
 29 32  1  0  0  0  0 
 32 33  1  0  0  0  0 
 32 34  1  0  0  0  0 
 32 35  1  0  0  0  0 
 35 36  1  0  0  0  0 
 36 37  1  0  0  0  0 
 36 38  1  0  0  0  0 
 36 39  1  0  0  0  0 
 39 40  1  0  0  0  0 
 39 41  1  0  0  0  0 
 39 42  1  0  0  0  0 
 42 43  1  0  0  0  0 
 43 44  1  0  0  0  0 
 43 45  1  0  0  0  0 
 43 46  1  0  0  0  0 
 46 47  1  0  0  0  0 
 46 48  1  0  0  0  0 
 46 49  1  0  0  0  0 
 49 50  1  0  0  0  0 
 50 51  1  0  0  0  0 
 50 52  1  0  0  0  0 
 50 53  1  0  0  0  0 
 53 54  1  0  0  0  0 
 53 55  1  0  0  0  0 
 53 56  1  0  0  0  0 
 56 57  1  0  0  0  0 
 57 58  1  0  0  0  0 
 57 59  1  0  0  0  0 
 57 60  1  0  0  0  0 
 60 61  1  0  0  0  0 
 60 62  1  0  0  0  0 
 60 63  1  0  0  0  0 
 63 64  1  0  0  0  0 
 64 65  1  0  0  0  0 
 64 66  1  0  0  0  0 
 64 67  1  0  0  0  0 
 67 68  1  0  0  0  0 
 67 69  1  0  0  0  0 
 67 70  1  0  0  0  0 
 70 71  1  0  0  0  0 
 71 72  1  0  0  0  0 
 71 73  1  0  0  0  0 
 71 74  1  0  0  0  0 
 74 75  1  0  0  0  0 
 74 76  1  0  0  0  0 
 74 77  1  0  0  0  0 
 77 78  1  0  0  0  0 
 78 79  1  0  0  0  0 
 78 80  1  0  0  0  0 
 78 81  1  0  0  0  0 
 81 82  1  0  0  0  0 
 81 83  1  0  0  0  0 
 81 84  1  0  0  0  0 
 84 85  1  0  0  0  0 
 85 86  1  0  0  0  0 
 85 87  1  0  0  0  0 
 85 88  1  0  0  0  0 
 88 89  1  0  0  0  0 
 88 90  1  0  0  0  0 
 88 91  1  0  0  0  0 
 91 92  1  0  0  0  0 
 92 93  1  0  0  0  0 
 92 94  1  0  0  0  0 
 92 95  1  0  0  0  0 
 95 96  1  0  0  0  0 
M  END
> <Rank>
1

> <Priority_score>
0.364

> <Reaction_type>
aliphatic hydroxylation

> <Parent_ID>
18

> <Parent_InChI>
InChI=1S/C30H53NO11/c1-3-4-9-31-29-7-5-28(6-8-29)30(32)42-27-26-41-25-24-40-23-22-39-21-20-38-19-18-37-17-16-36-15-14-35-13-12-34-11-10-33-2/h5-8,31H,3-4,9-27H2,1-2H3

> <Parent_SMILES>
CCCCNc1ccc(C(=O)OCCOCCOCCOCCOCCOCCOCCOCCOCCOC)cc1

$$$$
Molecule 18_metabolite 4
  CDK     0516241031

 96 96  0  0  0  0  0  0  0  0999 V2000
   10.2891   -2.4614    0.0000 C   0  0  0  0  0  0  0  0  0  0  0  0
   10.2888   -3.9614    0.0000 H   0  0  0  0  0  0  0  0  0  0  0  0
   10.8023   -1.0520    0.0000 H   0  0  0  0  0  0  0  0  0  0  0  0
   11.7662   -2.7221    0.0000 H   0  0  0  0  0  0  0  0  0  0  0  0
    8.9902   -1.7112    0.0000 C   0  0  0  0  0  0  0  0  0  0  0  0
    9.9545   -0.5623    0.0000 H   0  0  0  0  0  0  0  0  0  0  0  0
    8.0262   -0.5620    0.0000 H   0  0  0  0  0  0  0  0  0  0  0  0
    7.6910   -2.4610    0.0000 C   0  0  0  0  0  0  0  0  0  0  0  0
    6.7266   -3.6099    0.0000 H   0  0  0  0  0  0  0  0  0  0  0  0
    8.6550   -3.6102    0.0000 H   0  0  0  0  0  0  0  0  0  0  0  0
    5.9764   -1.4707    0.0000 C   0  0  0  0  0  0  0  0  0  0  0  0
    6.9408   -0.3218    0.0000 H   0  0  0  0  0  0  0  0  0  0  0  0
    5.0124   -0.3215    0.0000 H   0  0  0  0  0  0  0  0  0  0  0  0
    4.6773   -2.2205    0.0000 N   0  0  0  0  0  0  0  0  0  0  0  0
    3.3783   -1.4703    0.0000 C   0  0  0  0  0  0  0  0  0  0  0  0
    2.0783   -2.2203    0.0000 C   0  0  0  0  0  0  0  0  0  0  0  0
    2.0783   -3.7203    0.0000 H   0  0  0  0  0  0  0  0  0  0  0  0
    0.7783   -1.4703    0.0000 C   0  0  0  0  0  0  0  0  0  0  0  0
   -0.5206   -2.2205    0.0000 H   0  0  0  0  0  0  0  0  0  0  0  0
    0.7783    0.0297    0.0000 C   0  0  0  0  0  0  0  0  0  0  0  0
    2.0783    0.7797    0.0000 C   0  0  0  0  0  0  0  0  0  0  0  0
    2.0783    2.2797    0.0000 H   0  0  0  0  0  0  0  0  0  0  0  0
    3.3783    0.0297    0.0000 C   0  0  0  0  0  0  0  0  0  0  0  0
    4.6773    0.7799    0.0000 H   0  0  0  0  0  0  0  0  0  0  0  0
   -0.5206    0.7799    0.0000 C   0  0  0  0  0  0  0  0  0  0  0  0
   -0.5203    2.2799    0.0000 O   0  0  0  0  0  0  0  0  0  0  0  0
   -1.8197    0.0301    0.0000 O   0  0  0  0  0  0  0  0  0  0  0  0
   -3.1186    0.7803    0.0000 C   0  0  0  0  0  0  0  0  0  0  0  0
   -2.1543    1.9292    0.0000 H   0  0  0  0  0  0  0  0  0  0  0  0
   -4.0826    1.9295    0.0000 H   0  0  0  0  0  0  0  0  0  0  0  0
   -4.4178    0.0305    0.0000 C   0  0  0  0  0  0  0  0  0  0  0  0
   -5.3822   -1.1184    0.0000 H   0  0  0  0  0  0  0  0  0  0  0  0
   -3.4538   -1.1187    0.0000 H   0  0  0  0  0  0  0  0  0  0  0  0
   -6.1324    1.0208    0.0000 O   0  0  0  0  0  0  0  0  0  0  0  0
   -7.4315    0.2710    0.0000 C   0  0  0  0  0  0  0  0  0  0  0  0
   -8.3959   -0.8779    0.0000 H   0  0  0  0  0  0  0  0  0  0  0  0
   -6.4675   -0.8782    0.0000 H   0  0  0  0  0  0  0  0  0  0  0  0
   -8.7305    1.0212    0.0000 C   0  0  0  0  0  0  0  0  0  0  0  0
   -7.7661    2.1701    0.0000 H   0  0  0  0  0  0  0  0  0  0  0  0
   -9.6945    2.1704    0.0000 H   0  0  0  0  0  0  0  0  0  0  0  0
  -10.0296    0.2714    0.0000 O   0  0  0  0  0  0  0  0  0  0  0  0
  -11.7442    1.2617    0.0000 C   0  0  0  0  0  0  0  0  0  0  0  0
  -10.7798    2.4106    0.0000 H   0  0  0  0  0  0  0  0  0  0  0  0
  -12.7082    2.4109    0.0000 H   0  0  0  0  0  0  0  0  0  0  0  0
  -13.0433    0.5119    0.0000 C   0  0  0  0  0  0  0  0  0  0  0  0
  -14.0077   -0.6370    0.0000 H   0  0  0  0  0  0  0  0  0  0  0  0
  -12.0793   -0.6373    0.0000 H   0  0  0  0  0  0  0  0  0  0  0  0
  -14.7579    1.5022    0.0000 O   0  0  0  0  0  0  0  0  0  0  0  0
  -16.0571    0.7524    0.0000 C   0  0  0  0  0  0  0  0  0  0  0  0
  -17.0214   -0.3965    0.0000 H   0  0  0  0  0  0  0  0  0  0  0  0
  -15.0931   -0.3969    0.0000 H   0  0  0  0  0  0  0  0  0  0  0  0
  -17.3560    1.5026    0.0000 C   0  0  0  0  0  0  0  0  0  0  0  0
  -16.3916    2.6515    0.0000 H   0  0  0  0  0  0  0  0  0  0  0  0
  -18.3200    2.6518    0.0000 H   0  0  0  0  0  0  0  0  0  0  0  0
  -18.6551    0.7528    0.0000 O   0  0  0  0  0  0  0  0  0  0  0  0
  -20.3697    1.7431    0.0000 C   0  0  0  0  0  0  0  0  0  0  0  0
  -19.4054    2.8920    0.0000 H   0  0  0  0  0  0  0  0  0  0  0  0
  -21.3337    2.8923    0.0000 H   0  0  0  0  0  0  0  0  0  0  0  0
  -21.6689    0.9933    0.0000 C   0  0  0  0  0  0  0  0  0  0  0  0
  -22.6332   -0.1556    0.0000 H   0  0  0  0  0  0  0  0  0  0  0  0
  -20.7049   -0.1560    0.0000 H   0  0  0  0  0  0  0  0  0  0  0  0
  -23.3834    1.9835    0.0000 O   0  0  0  0  0  0  0  0  0  0  0  0
  -24.6826    1.2337    0.0000 C   0  0  0  0  0  0  0  0  0  0  0  0
  -25.6470    0.0848    0.0000 H   0  0  0  0  0  0  0  0  0  0  0  0
  -23.7186    0.0845    0.0000 H   0  0  0  0  0  0  0  0  0  0  0  0
  -25.9815    1.9840    0.0000 C   0  0  0  0  0  0  0  0  0  0  0  0
  -25.0172    3.1329    0.0000 H   0  0  0  0  0  0  0  0  0  0  0  0
  -26.9455    3.1332    0.0000 H   0  0  0  0  0  0  0  0  0  0  0  0
  -27.2807    1.2342    0.0000 O   0  0  0  0  0  0  0  0  0  0  0  0
  -28.9953    2.2244    0.0000 C   0  0  0  0  0  0  0  0  0  0  0  0
  -28.0309    3.3733    0.0000 H   0  0  0  0  0  0  0  0  0  0  0  0
  -29.9593    3.3737    0.0000 H   0  0  0  0  0  0  0  0  0  0  0  0
  -30.2944    1.4746    0.0000 C   0  0  0  0  0  0  0  0  0  0  0  0
  -31.2588    0.3257    0.0000 H   0  0  0  0  0  0  0  0  0  0  0  0
  -29.3304    0.3254    0.0000 H   0  0  0  0  0  0  0  0  0  0  0  0
  -32.0090    2.4649    0.0000 O   0  0  0  0  0  0  0  0  0  0  0  0
  -33.3081    1.7151    0.0000 C   0  0  0  0  0  0  0  0  0  0  0  0
  -34.2725    0.5662    0.0000 H   0  0  0  0  0  0  0  0  0  0  0  0
  -32.3441    0.5659    0.0000 H   0  0  0  0  0  0  0  0  0  0  0  0
  -34.6071    2.4653    0.0000 C   0  0  0  0  0  0  0  0  0  0  0  0
  -33.6427    3.6142    0.0000 H   0  0  0  0  0  0  0  0  0  0  0  0
  -35.5711    3.6146    0.0000 H   0  0  0  0  0  0  0  0  0  0  0  0
  -36.3220    1.4756    0.0000 O   0  0  0  0  0  0  0  0  0  0  0  0
  -37.6209    2.2258    0.0000 C   0  0  0  0  0  0  0  0  0  0  0  0
  -36.6565    3.3747    0.0000 H   0  0  0  0  0  0  0  0  0  0  0  0
  -38.5849    3.3750    0.0000 H   0  0  0  0  0  0  0  0  0  0  0  0
  -38.9200    1.4760    0.0000 C   0  0  0  0  0  0  0  0  0  0  0  0
  -39.8844    0.3271    0.0000 H   0  0  0  0  0  0  0  0  0  0  0  0
  -37.9560    0.3268    0.0000 H   0  0  0  0  0  0  0  0  0  0  0  0
  -40.2189    2.2262    0.0000 O   0  0  0  0  0  0  0  0  0  0  0  0
  -41.5181    1.4764    0.0000 C   0  0  0  0  0  0  0  0  0  0  0  0
  -41.5183   -0.0236    0.0000 H   0  0  0  0  0  0  0  0  0  0  0  0
  -42.9954    1.2162    0.0000 H   0  0  0  0  0  0  0  0  0  0  0  0
  -42.0309    2.8861    0.0000 H   0  0  0  0  0  0  0  0  0  0  0  0
    4.6770   -3.7205    0.0000 O   0  0  0  0  0  0  0  0  0  0  0  0
    5.9759   -4.4707    0.0000 H   0  0  0  0  0  0  0  0  0  0  0  0
  1  2  1  0  0  0  0 
  1  3  1  0  0  0  0 
  1  4  1  0  0  0  0 
  1  5  1  0  0  0  0 
  5  6  1  0  0  0  0 
  5  7  1  0  0  0  0 
  5  8  1  0  0  0  0 
  8  9  1  0  0  0  0 
  8 10  1  0  0  0  0 
  8 11  1  0  0  0  0 
 11 12  1  0  0  0  0 
 11 13  1  0  0  0  0 
 11 14  1  0  0  0  0 
 14 15  1  0  0  0  0 
 15 16  2  0  0  0  0 
 16 17  1  0  0  0  0 
 16 18  1  0  0  0  0 
 18 19  1  0  0  0  0 
 18 20  2  0  0  0  0 
 20 21  1  0  0  0  0 
 21 22  1  0  0  0  0 
 21 23  2  0  0  0  0 
 15 23  1  0  0  0  0 
 23 24  1  0  0  0  0 
 20 25  1  0  0  0  0 
 25 26  2  0  0  0  0 
 25 27  1  0  0  0  0 
 27 28  1  0  0  0  0 
 28 29  1  0  0  0  0 
 28 30  1  0  0  0  0 
 28 31  1  0  0  0  0 
 31 32  1  0  0  0  0 
 31 33  1  0  0  0  0 
 31 34  1  0  0  0  0 
 34 35  1  0  0  0  0 
 35 36  1  0  0  0  0 
 35 37  1  0  0  0  0 
 35 38  1  0  0  0  0 
 38 39  1  0  0  0  0 
 38 40  1  0  0  0  0 
 38 41  1  0  0  0  0 
 41 42  1  0  0  0  0 
 42 43  1  0  0  0  0 
 42 44  1  0  0  0  0 
 42 45  1  0  0  0  0 
 45 46  1  0  0  0  0 
 45 47  1  0  0  0  0 
 45 48  1  0  0  0  0 
 48 49  1  0  0  0  0 
 49 50  1  0  0  0  0 
 49 51  1  0  0  0  0 
 49 52  1  0  0  0  0 
 52 53  1  0  0  0  0 
 52 54  1  0  0  0  0 
 52 55  1  0  0  0  0 
 55 56  1  0  0  0  0 
 56 57  1  0  0  0  0 
 56 58  1  0  0  0  0 
 56 59  1  0  0  0  0 
 59 60  1  0  0  0  0 
 59 61  1  0  0  0  0 
 59 62  1  0  0  0  0 
 62 63  1  0  0  0  0 
 63 64  1  0  0  0  0 
 63 65  1  0  0  0  0 
 63 66  1  0  0  0  0 
 66 67  1  0  0  0  0 
 66 68  1  0  0  0  0 
 66 69  1  0  0  0  0 
 69 70  1  0  0  0  0 
 70 71  1  0  0  0  0 
 70 72  1  0  0  0  0 
 70 73  1  0  0  0  0 
 73 74  1  0  0  0  0 
 73 75  1  0  0  0  0 
 73 76  1  0  0  0  0 
 76 77  1  0  0  0  0 
 77 78  1  0  0  0  0 
 77 79  1  0  0  0  0 
 77 80  1  0  0  0  0 
 80 81  1  0  0  0  0 
 80 82  1  0  0  0  0 
 80 83  1  0  0  0  0 
 83 84  1  0  0  0  0 
 84 85  1  0  0  0  0 
 84 86  1  0  0  0  0 
 84 87  1  0  0  0  0 
 87 88  1  0  0  0  0 
 87 89  1  0  0  0  0 
 87 90  1  0  0  0  0 
 90 91  1  0  0  0  0 
 91 92  1  0  0  0  0 
 91 93  1  0  0  0  0 
 91 94  1  0  0  0  0 
 14 95  1  0  0  0  0 
 95 96  1  0  0  0  0 
M  END
> <Rank>
4

> <Priority_score>
0.268

> <Reaction_type>
amine hydroxylation

> <Parent_ID>
18

> <Parent_InChI>
InChI=1S/C30H53NO11/c1-3-4-9-31-29-7-5-28(6-8-29)30(32)42-27-26-41-25-24-40-23-22-39-21-20-38-19-18-37-17-16-36-15-14-35-13-12-34-11-10-33-2/h5-8,31H,3-4,9-27H2,1-2H3

> <Parent_SMILES>
CCCCNc1ccc(C(=O)OCCOCCOCCOCCOCCOCCOCCOCCOCCOC)cc1

$$$$
Molecule 18_metabolite 5
  CDK     0516241031

 96 96  0  0  0  0  0  0  0  0999 V2000
   10.2891   -2.4614    0.0000 C   0  0  0  0  0  0  0  0  0  0  0  0
   10.2888   -3.9614    0.0000 H   0  0  0  0  0  0  0  0  0  0  0  0
   10.8023   -1.0520    0.0000 H   0  0  0  0  0  0  0  0  0  0  0  0
   11.7662   -2.7221    0.0000 H   0  0  0  0  0  0  0  0  0  0  0  0
    8.9902   -1.7112    0.0000 C   0  0  0  0  0  0  0  0  0  0  0  0
    9.9545   -0.5623    0.0000 H   0  0  0  0  0  0  0  0  0  0  0  0
    8.0262   -0.5620    0.0000 H   0  0  0  0  0  0  0  0  0  0  0  0
    7.6910   -2.4610    0.0000 C   0  0  0  0  0  0  0  0  0  0  0  0
    6.7266   -3.6099    0.0000 H   0  0  0  0  0  0  0  0  0  0  0  0
    8.6550   -3.6102    0.0000 H   0  0  0  0  0  0  0  0  0  0  0  0
    5.9764   -1.4707    0.0000 C   0  0  0  0  0  0  0  0  0  0  0  0
    6.9408   -0.3218    0.0000 H   0  0  0  0  0  0  0  0  0  0  0  0
    4.6773   -2.2205    0.0000 N   0  0  0  0  0  0  0  0  0  0  0  0
    4.6770   -3.7205    0.0000 H   0  0  0  0  0  0  0  0  0  0  0  0
    3.3783   -1.4703    0.0000 C   0  0  0  0  0  0  0  0  0  0  0  0
    2.0783   -2.2203    0.0000 C   0  0  0  0  0  0  0  0  0  0  0  0
    2.0783   -3.7203    0.0000 H   0  0  0  0  0  0  0  0  0  0  0  0
    0.7783   -1.4703    0.0000 C   0  0  0  0  0  0  0  0  0  0  0  0
   -0.5206   -2.2205    0.0000 H   0  0  0  0  0  0  0  0  0  0  0  0
    0.7783    0.0297    0.0000 C   0  0  0  0  0  0  0  0  0  0  0  0
    2.0783    0.7797    0.0000 C   0  0  0  0  0  0  0  0  0  0  0  0
    2.0783    2.2797    0.0000 H   0  0  0  0  0  0  0  0  0  0  0  0
    3.3783    0.0297    0.0000 C   0  0  0  0  0  0  0  0  0  0  0  0
    4.6773    0.7799    0.0000 H   0  0  0  0  0  0  0  0  0  0  0  0
   -0.5206    0.7799    0.0000 C   0  0  0  0  0  0  0  0  0  0  0  0
   -0.5203    2.2799    0.0000 O   0  0  0  0  0  0  0  0  0  0  0  0
   -1.8197    0.0301    0.0000 O   0  0  0  0  0  0  0  0  0  0  0  0
   -3.1186    0.7803    0.0000 C   0  0  0  0  0  0  0  0  0  0  0  0
   -2.1543    1.9292    0.0000 H   0  0  0  0  0  0  0  0  0  0  0  0
   -4.0826    1.9295    0.0000 H   0  0  0  0  0  0  0  0  0  0  0  0
   -4.4178    0.0305    0.0000 C   0  0  0  0  0  0  0  0  0  0  0  0
   -5.3822   -1.1184    0.0000 H   0  0  0  0  0  0  0  0  0  0  0  0
   -3.4538   -1.1187    0.0000 H   0  0  0  0  0  0  0  0  0  0  0  0
   -6.1324    1.0208    0.0000 O   0  0  0  0  0  0  0  0  0  0  0  0
   -7.4315    0.2710    0.0000 C   0  0  0  0  0  0  0  0  0  0  0  0
   -8.3959   -0.8779    0.0000 H   0  0  0  0  0  0  0  0  0  0  0  0
   -6.4675   -0.8782    0.0000 H   0  0  0  0  0  0  0  0  0  0  0  0
   -8.7305    1.0212    0.0000 C   0  0  0  0  0  0  0  0  0  0  0  0
   -7.7661    2.1701    0.0000 H   0  0  0  0  0  0  0  0  0  0  0  0
   -9.6945    2.1704    0.0000 H   0  0  0  0  0  0  0  0  0  0  0  0
  -10.0296    0.2714    0.0000 O   0  0  0  0  0  0  0  0  0  0  0  0
  -11.7442    1.2617    0.0000 C   0  0  0  0  0  0  0  0  0  0  0  0
  -10.7798    2.4106    0.0000 H   0  0  0  0  0  0  0  0  0  0  0  0
  -12.7082    2.4109    0.0000 H   0  0  0  0  0  0  0  0  0  0  0  0
  -13.0433    0.5119    0.0000 C   0  0  0  0  0  0  0  0  0  0  0  0
  -14.0077   -0.6370    0.0000 H   0  0  0  0  0  0  0  0  0  0  0  0
  -12.0793   -0.6373    0.0000 H   0  0  0  0  0  0  0  0  0  0  0  0
  -14.7579    1.5022    0.0000 O   0  0  0  0  0  0  0  0  0  0  0  0
  -16.0571    0.7524    0.0000 C   0  0  0  0  0  0  0  0  0  0  0  0
  -17.0214   -0.3965    0.0000 H   0  0  0  0  0  0  0  0  0  0  0  0
  -15.0931   -0.3969    0.0000 H   0  0  0  0  0  0  0  0  0  0  0  0
  -17.3560    1.5026    0.0000 C   0  0  0  0  0  0  0  0  0  0  0  0
  -16.3916    2.6515    0.0000 H   0  0  0  0  0  0  0  0  0  0  0  0
  -18.3200    2.6518    0.0000 H   0  0  0  0  0  0  0  0  0  0  0  0
  -18.6551    0.7528    0.0000 O   0  0  0  0  0  0  0  0  0  0  0  0
  -20.3697    1.7431    0.0000 C   0  0  0  0  0  0  0  0  0  0  0  0
  -19.4054    2.8920    0.0000 H   0  0  0  0  0  0  0  0  0  0  0  0
  -21.3337    2.8923    0.0000 H   0  0  0  0  0  0  0  0  0  0  0  0
  -21.6689    0.9933    0.0000 C   0  0  0  0  0  0  0  0  0  0  0  0
  -22.6332   -0.1556    0.0000 H   0  0  0  0  0  0  0  0  0  0  0  0
  -20.7049   -0.1560    0.0000 H   0  0  0  0  0  0  0  0  0  0  0  0
  -23.3834    1.9835    0.0000 O   0  0  0  0  0  0  0  0  0  0  0  0
  -24.6826    1.2337    0.0000 C   0  0  0  0  0  0  0  0  0  0  0  0
  -25.6470    0.0848    0.0000 H   0  0  0  0  0  0  0  0  0  0  0  0
  -23.7186    0.0845    0.0000 H   0  0  0  0  0  0  0  0  0  0  0  0
  -25.9815    1.9840    0.0000 C   0  0  0  0  0  0  0  0  0  0  0  0
  -25.0172    3.1329    0.0000 H   0  0  0  0  0  0  0  0  0  0  0  0
  -26.9455    3.1332    0.0000 H   0  0  0  0  0  0  0  0  0  0  0  0
  -27.2807    1.2342    0.0000 O   0  0  0  0  0  0  0  0  0  0  0  0
  -28.9953    2.2244    0.0000 C   0  0  0  0  0  0  0  0  0  0  0  0
  -28.0309    3.3733    0.0000 H   0  0  0  0  0  0  0  0  0  0  0  0
  -29.9593    3.3737    0.0000 H   0  0  0  0  0  0  0  0  0  0  0  0
  -30.2944    1.4746    0.0000 C   0  0  0  0  0  0  0  0  0  0  0  0
  -31.2588    0.3257    0.0000 H   0  0  0  0  0  0  0  0  0  0  0  0
  -29.3304    0.3254    0.0000 H   0  0  0  0  0  0  0  0  0  0  0  0
  -32.0090    2.4649    0.0000 O   0  0  0  0  0  0  0  0  0  0  0  0
  -33.3081    1.7151    0.0000 C   0  0  0  0  0  0  0  0  0  0  0  0
  -34.2725    0.5662    0.0000 H   0  0  0  0  0  0  0  0  0  0  0  0
  -32.3441    0.5659    0.0000 H   0  0  0  0  0  0  0  0  0  0  0  0
  -34.6071    2.4653    0.0000 C   0  0  0  0  0  0  0  0  0  0  0  0
  -33.6427    3.6142    0.0000 H   0  0  0  0  0  0  0  0  0  0  0  0
  -35.5711    3.6146    0.0000 H   0  0  0  0  0  0  0  0  0  0  0  0
  -36.3220    1.4756    0.0000 O   0  0  0  0  0  0  0  0  0  0  0  0
  -37.6209    2.2258    0.0000 C   0  0  0  0  0  0  0  0  0  0  0  0
  -36.6565    3.3747    0.0000 H   0  0  0  0  0  0  0  0  0  0  0  0
  -38.5849    3.3750    0.0000 H   0  0  0  0  0  0  0  0  0  0  0  0
  -38.9200    1.4760    0.0000 C   0  0  0  0  0  0  0  0  0  0  0  0
  -39.8844    0.3271    0.0000 H   0  0  0  0  0  0  0  0  0  0  0  0
  -37.9560    0.3268    0.0000 H   0  0  0  0  0  0  0  0  0  0  0  0
  -40.2189    2.2262    0.0000 O   0  0  0  0  0  0  0  0  0  0  0  0
  -41.5181    1.4764    0.0000 C   0  0  0  0  0  0  0  0  0  0  0  0
  -41.5183   -0.0236    0.0000 H   0  0  0  0  0  0  0  0  0  0  0  0
  -42.9954    1.2162    0.0000 H   0  0  0  0  0  0  0  0  0  0  0  0
  -42.0309    2.8861    0.0000 H   0  0  0  0  0  0  0  0  0  0  0  0
    5.0124   -0.3215    0.0000 O   0  0  0  0  0  0  0  0  0  0  0  0
    5.5257    1.0879    0.0000 H   0  0  0  0  0  0  0  0  0  0  0  0
  1  2  1  0  0  0  0 
  1  3  1  0  0  0  0 
  1  4  1  0  0  0  0 
  1  5  1  0  0  0  0 
  5  6  1  0  0  0  0 
  5  7  1  0  0  0  0 
  5  8  1  0  0  0  0 
  8  9  1  0  0  0  0 
  8 10  1  0  0  0  0 
  8 11  1  0  0  0  0 
 11 12  1  0  0  0  0 
 11 13  1  0  0  0  0 
 13 14  1  0  0  0  0 
 13 15  1  0  0  0  0 
 15 16  2  0  0  0  0 
 16 17  1  0  0  0  0 
 16 18  1  0  0  0  0 
 18 19  1  0  0  0  0 
 18 20  2  0  0  0  0 
 20 21  1  0  0  0  0 
 21 22  1  0  0  0  0 
 21 23  2  0  0  0  0 
 15 23  1  0  0  0  0 
 23 24  1  0  0  0  0 
 20 25  1  0  0  0  0 
 25 26  2  0  0  0  0 
 25 27  1  0  0  0  0 
 27 28  1  0  0  0  0 
 28 29  1  0  0  0  0 
 28 30  1  0  0  0  0 
 28 31  1  0  0  0  0 
 31 32  1  0  0  0  0 
 31 33  1  0  0  0  0 
 31 34  1  0  0  0  0 
 34 35  1  0  0  0  0 
 35 36  1  0  0  0  0 
 35 37  1  0  0  0  0 
 35 38  1  0  0  0  0 
 38 39  1  0  0  0  0 
 38 40  1  0  0  0  0 
 38 41  1  0  0  0  0 
 41 42  1  0  0  0  0 
 42 43  1  0  0  0  0 
 42 44  1  0  0  0  0 
 42 45  1  0  0  0  0 
 45 46  1  0  0  0  0 
 45 47  1  0  0  0  0 
 45 48  1  0  0  0  0 
 48 49  1  0  0  0  0 
 49 50  1  0  0  0  0 
 49 51  1  0  0  0  0 
 49 52  1  0  0  0  0 
 52 53  1  0  0  0  0 
 52 54  1  0  0  0  0 
 52 55  1  0  0  0  0 
 55 56  1  0  0  0  0 
 56 57  1  0  0  0  0 
 56 58  1  0  0  0  0 
 56 59  1  0  0  0  0 
 59 60  1  0  0  0  0 
 59 61  1  0  0  0  0 
 59 62  1  0  0  0  0 
 62 63  1  0  0  0  0 
 63 64  1  0  0  0  0 
 63 65  1  0  0  0  0 
 63 66  1  0  0  0  0 
 66 67  1  0  0  0  0 
 66 68  1  0  0  0  0 
 66 69  1  0  0  0  0 
 69 70  1  0  0  0  0 
 70 71  1  0  0  0  0 
 70 72  1  0  0  0  0 
 70 73  1  0  0  0  0 
 73 74  1  0  0  0  0 
 73 75  1  0  0  0  0 
 73 76  1  0  0  0  0 
 76 77  1  0  0  0  0 
 77 78  1  0  0  0  0 
 77 79  1  0  0  0  0 
 77 80  1  0  0  0  0 
 80 81  1  0  0  0  0 
 80 82  1  0  0  0  0 
 80 83  1  0  0  0  0 
 83 84  1  0  0  0  0 
 84 85  1  0  0  0  0 
 84 86  1  0  0  0  0 
 84 87  1  0  0  0  0 
 87 88  1  0  0  0  0 
 87 89  1  0  0  0  0 
 87 90  1  0  0  0  0 
 90 91  1  0  0  0  0 
 91 92  1  0  0  0  0 
 91 93  1  0  0  0  0 
 91 94  1  0  0  0  0 
 11 95  1  0  0  0  0 
 95 96  1  0  0  0  0 
M  END
> <Rank>
4

> <Priority_score>
0.268

> <Reaction_type>
aliphatic hydroxylation

> <Parent_ID>
18

> <Parent_InChI>
InChI=1S/C30H53NO11/c1-3-4-9-31-29-7-5-28(6-8-29)30(32)42-27-26-41-25-24-40-23-22-39-21-20-38-19-18-37-17-16-36-15-14-35-13-12-34-11-10-33-2/h5-8,31H,3-4,9-27H2,1-2H3

> <Parent_SMILES>
CCCCNc1ccc(C(=O)OCCOCCOCCOCCOCCOCCOCCOCCOCCOC)cc1

$$$$
Molecule 18_metabolite 6
  CDK     0516241031

 83 83  0  0  0  0  0  0  0  0999 V2000
    4.9149   -1.3425    0.0000 C   0  0  0  0  0  0  0  0  0  0  0  0
    4.9151    0.1575    0.0000 H   0  0  0  0  0  0  0  0  0  0  0  0
    6.3922   -1.0823    0.0000 H   0  0  0  0  0  0  0  0  0  0  0  0
    5.4277   -2.7521    0.0000 H   0  0  0  0  0  0  0  0  0  0  0  0
    3.6157   -2.0923    0.0000 O   0  0  0  0  0  0  0  0  0  0  0  0
    2.3168   -1.3421    0.0000 C   0  0  0  0  0  0  0  0  0  0  0  0
    3.2812   -0.1932    0.0000 H   0  0  0  0  0  0  0  0  0  0  0  0
    1.3528   -0.1929    0.0000 H   0  0  0  0  0  0  0  0  0  0  0  0
    1.0177   -2.0919    0.0000 C   0  0  0  0  0  0  0  0  0  0  0  0
    0.0533   -3.2408    0.0000 H   0  0  0  0  0  0  0  0  0  0  0  0
    1.9817   -3.2411    0.0000 H   0  0  0  0  0  0  0  0  0  0  0  0
   -0.2813   -1.3417    0.0000 O   0  0  0  0  0  0  0  0  0  0  0  0
   -1.9961   -2.3314    0.0000 C   0  0  0  0  0  0  0  0  0  0  0  0
   -2.9605   -3.4803    0.0000 H   0  0  0  0  0  0  0  0  0  0  0  0
   -1.0321   -3.4806    0.0000 H   0  0  0  0  0  0  0  0  0  0  0  0
   -3.2951   -1.5812    0.0000 C   0  0  0  0  0  0  0  0  0  0  0  0
   -2.3307   -0.4323    0.0000 H   0  0  0  0  0  0  0  0  0  0  0  0
   -4.2591   -0.4320    0.0000 H   0  0  0  0  0  0  0  0  0  0  0  0
   -4.5942   -2.3310    0.0000 O   0  0  0  0  0  0  0  0  0  0  0  0
   -6.3088   -1.3407    0.0000 C   0  0  0  0  0  0  0  0  0  0  0  0
   -5.3444   -0.1918    0.0000 H   0  0  0  0  0  0  0  0  0  0  0  0
   -7.2728   -0.1915    0.0000 H   0  0  0  0  0  0  0  0  0  0  0  0
   -7.6079   -2.0905    0.0000 C   0  0  0  0  0  0  0  0  0  0  0  0
   -8.5723   -3.2394    0.0000 H   0  0  0  0  0  0  0  0  0  0  0  0
   -6.6440   -3.2397    0.0000 H   0  0  0  0  0  0  0  0  0  0  0  0
   -8.9069   -1.3403    0.0000 O   0  0  0  0  0  0  0  0  0  0  0  0
  -10.6218   -2.3300    0.0000 C   0  0  0  0  0  0  0  0  0  0  0  0
  -11.5861   -3.4789    0.0000 H   0  0  0  0  0  0  0  0  0  0  0  0
   -9.6578   -3.4792    0.0000 H   0  0  0  0  0  0  0  0  0  0  0  0
  -11.9207   -1.5798    0.0000 C   0  0  0  0  0  0  0  0  0  0  0  0
  -10.9563   -0.4309    0.0000 H   0  0  0  0  0  0  0  0  0  0  0  0
  -12.8847   -0.4306    0.0000 H   0  0  0  0  0  0  0  0  0  0  0  0
  -13.2198   -2.3296    0.0000 O   0  0  0  0  0  0  0  0  0  0  0  0
  -14.9344   -1.3393    0.0000 C   0  0  0  0  0  0  0  0  0  0  0  0
  -13.9700   -0.1904    0.0000 H   0  0  0  0  0  0  0  0  0  0  0  0
  -15.8984   -0.1901    0.0000 H   0  0  0  0  0  0  0  0  0  0  0  0
  -16.2336   -2.0891    0.0000 C   0  0  0  0  0  0  0  0  0  0  0  0
  -17.1979   -3.2380    0.0000 H   0  0  0  0  0  0  0  0  0  0  0  0
  -15.2696   -3.2383    0.0000 H   0  0  0  0  0  0  0  0  0  0  0  0
  -17.9481   -1.0988    0.0000 O   0  0  0  0  0  0  0  0  0  0  0  0
  -19.2473   -1.8486    0.0000 C   0  0  0  0  0  0  0  0  0  0  0  0
  -20.2117   -2.9975    0.0000 H   0  0  0  0  0  0  0  0  0  0  0  0
  -18.2833   -2.9978    0.0000 H   0  0  0  0  0  0  0  0  0  0  0  0
  -20.5462   -1.0984    0.0000 C   0  0  0  0  0  0  0  0  0  0  0  0
  -19.5818    0.0505    0.0000 H   0  0  0  0  0  0  0  0  0  0  0  0
  -21.5102    0.0508    0.0000 H   0  0  0  0  0  0  0  0  0  0  0  0
  -21.8454   -1.8482    0.0000 O   0  0  0  0  0  0  0  0  0  0  0  0
  -23.5599   -0.8579    0.0000 C   0  0  0  0  0  0  0  0  0  0  0  0
  -22.5956    0.2910    0.0000 H   0  0  0  0  0  0  0  0  0  0  0  0
  -24.5239    0.2913    0.0000 H   0  0  0  0  0  0  0  0  0  0  0  0
  -24.8591   -1.6077    0.0000 C   0  0  0  0  0  0  0  0  0  0  0  0
  -25.8235   -2.7566    0.0000 H   0  0  0  0  0  0  0  0  0  0  0  0
  -23.8951   -2.7569    0.0000 H   0  0  0  0  0  0  0  0  0  0  0  0
  -26.5737   -0.6174    0.0000 O   0  0  0  0  0  0  0  0  0  0  0  0
  -27.8728   -1.3672    0.0000 C   0  0  0  0  0  0  0  0  0  0  0  0
  -28.8372   -2.5162    0.0000 H   0  0  0  0  0  0  0  0  0  0  0  0
  -26.9088   -2.5165    0.0000 H   0  0  0  0  0  0  0  0  0  0  0  0
  -29.1717   -0.6170    0.0000 C   0  0  0  0  0  0  0  0  0  0  0  0
  -28.2074    0.5319    0.0000 H   0  0  0  0  0  0  0  0  0  0  0  0
  -30.1357    0.5322    0.0000 H   0  0  0  0  0  0  0  0  0  0  0  0
  -30.4709   -1.3668    0.0000 O   0  0  0  0  0  0  0  0  0  0  0  0
  -32.1855   -0.3765    0.0000 C   0  0  0  0  0  0  0  0  0  0  0  0
  -31.2211    0.7724    0.0000 H   0  0  0  0  0  0  0  0  0  0  0  0
  -33.1495    0.7727    0.0000 H   0  0  0  0  0  0  0  0  0  0  0  0
  -33.4846   -1.1263    0.0000 C   0  0  0  0  0  0  0  0  0  0  0  0
  -34.4490   -2.2753    0.0000 H   0  0  0  0  0  0  0  0  0  0  0  0
  -32.5206   -2.2756    0.0000 H   0  0  0  0  0  0  0  0  0  0  0  0
  -34.7836   -0.3761    0.0000 O   0  0  0  0  0  0  0  0  0  0  0  0
  -36.0827   -1.1259    0.0000 C   0  0  0  0  0  0  0  0  0  0  0  0
  -36.0830   -2.6259    0.0000 O   0  0  0  0  0  0  0  0  0  0  0  0
  -37.3816   -0.3757    0.0000 C   0  0  0  0  0  0  0  0  0  0  0  0
  -37.3816    1.1243    0.0000 C   0  0  0  0  0  0  0  0  0  0  0  0
  -36.0827    1.8745    0.0000 H   0  0  0  0  0  0  0  0  0  0  0  0
  -38.6816    1.8743    0.0000 C   0  0  0  0  0  0  0  0  0  0  0  0
  -38.6816    3.3743    0.0000 H   0  0  0  0  0  0  0  0  0  0  0  0
  -39.9816    1.1243    0.0000 C   0  0  0  0  0  0  0  0  0  0  0  0
  -39.9816   -0.3757    0.0000 C   0  0  0  0  0  0  0  0  0  0  0  0
  -41.2805   -1.1259    0.0000 H   0  0  0  0  0  0  0  0  0  0  0  0
  -38.6816   -1.1257    0.0000 C   0  0  0  0  0  0  0  0  0  0  0  0
  -38.6816   -2.6257    0.0000 H   0  0  0  0  0  0  0  0  0  0  0  0
  -41.2805    1.8745    0.0000 N   0  0  0  0  0  0  0  0  0  0  0  0
  -42.5797    1.1247    0.0000 H   0  0  0  0  0  0  0  0  0  0  0  0
  -41.2803    3.3745    0.0000 H   0  0  0  0  0  0  0  0  0  0  0  0
  1  2  1  0  0  0  0 
  1  3  1  0  0  0  0 
  1  4  1  0  0  0  0 
  1  5  1  0  0  0  0 
  5  6  1  0  0  0  0 
  6  7  1  0  0  0  0 
  6  8  1  0  0  0  0 
  6  9  1  0  0  0  0 
  9 10  1  0  0  0  0 
  9 11  1  0  0  0  0 
  9 12  1  0  0  0  0 
 12 13  1  0  0  0  0 
 13 14  1  0  0  0  0 
 13 15  1  0  0  0  0 
 13 16  1  0  0  0  0 
 16 17  1  0  0  0  0 
 16 18  1  0  0  0  0 
 16 19  1  0  0  0  0 
 19 20  1  0  0  0  0 
 20 21  1  0  0  0  0 
 20 22  1  0  0  0  0 
 20 23  1  0  0  0  0 
 23 24  1  0  0  0  0 
 23 25  1  0  0  0  0 
 23 26  1  0  0  0  0 
 26 27  1  0  0  0  0 
 27 28  1  0  0  0  0 
 27 29  1  0  0  0  0 
 27 30  1  0  0  0  0 
 30 31  1  0  0  0  0 
 30 32  1  0  0  0  0 
 30 33  1  0  0  0  0 
 33 34  1  0  0  0  0 
 34 35  1  0  0  0  0 
 34 36  1  0  0  0  0 
 34 37  1  0  0  0  0 
 37 38  1  0  0  0  0 
 37 39  1  0  0  0  0 
 37 40  1  0  0  0  0 
 40 41  1  0  0  0  0 
 41 42  1  0  0  0  0 
 41 43  1  0  0  0  0 
 41 44  1  0  0  0  0 
 44 45  1  0  0  0  0 
 44 46  1  0  0  0  0 
 44 47  1  0  0  0  0 
 47 48  1  0  0  0  0 
 48 49  1  0  0  0  0 
 48 50  1  0  0  0  0 
 48 51  1  0  0  0  0 
 51 52  1  0  0  0  0 
 51 53  1  0  0  0  0 
 51 54  1  0  0  0  0 
 54 55  1  0  0  0  0 
 55 56  1  0  0  0  0 
 55 57  1  0  0  0  0 
 55 58  1  0  0  0  0 
 58 59  1  0  0  0  0 
 58 60  1  0  0  0  0 
 58 61  1  0  0  0  0 
 61 62  1  0  0  0  0 
 62 63  1  0  0  0  0 
 62 64  1  0  0  0  0 
 62 65  1  0  0  0  0 
 65 66  1  0  0  0  0 
 65 67  1  0  0  0  0 
 65 68  1  0  0  0  0 
 68 69  1  0  0  0  0 
 69 70  2  0  0  0  0 
 69 71  1  0  0  0  0 
 71 72  2  0  0  0  0 
 72 73  1  0  0  0  0 
 72 74  1  0  0  0  0 
 74 75  1  0  0  0  0 
 74 76  2  0  0  0  0 
 76 77  1  0  0  0  0 
 77 78  1  0  0  0  0 
 77 79  2  0  0  0  0 
 71 79  1  0  0  0  0 
 79 80  1  0  0  0  0 
 76 81  1  0  0  0  0 
 81 82  1  0  0  0  0 
 81 83  1  0  0  0  0 
M  END
> <Rank>
4

> <Priority_score>
0.268

> <Reaction_type>
N-dealkylation_(R-NHCH2-alkyl)

> <Parent_ID>
18

> <Parent_InChI>
InChI=1S/C30H53NO11/c1-3-4-9-31-29-7-5-28(6-8-29)30(32)42-27-26-41-25-24-40-23-22-39-21-20-38-19-18-37-17-16-36-15-14-35-13-12-34-11-10-33-2/h5-8,31H,3-4,9-27H2,1-2H3

> <Parent_SMILES>
CCCCNc1ccc(C(=O)OCCOCCOCCOCCOCCOCCOCCOCCOCCOC)cc1

$$$$
Molecule 18_metabolite 7
  CDK     0516241031

 15 14  0  0  0  0  0  0  0  0999 V2000
    5.1962    0.7500    0.0000 C   0  0  0  0  0  0  0  0  0  0  0  0
    5.1962    2.2500    0.0000 H   0  0  0  0  0  0  0  0  0  0  0  0
    6.6734    1.0105    0.0000 H   0  0  0  0  0  0  0  0  0  0  0  0
    5.7092   -0.6595    0.0000 H   0  0  0  0  0  0  0  0  0  0  0  0
    3.8971   -0.0000    0.0000 C   0  0  0  0  0  0  0  0  0  0  0  0
    2.9329   -1.1491    0.0000 H   0  0  0  0  0  0  0  0  0  0  0  0
    4.8613   -1.1491    0.0000 H   0  0  0  0  0  0  0  0  0  0  0  0
    2.5981    0.7500    0.0000 C   0  0  0  0  0  0  0  0  0  0  0  0
    3.5623    1.8991    0.0000 H   0  0  0  0  0  0  0  0  0  0  0  0
    1.6339    1.8991    0.0000 H   0  0  0  0  0  0  0  0  0  0  0  0
    1.2990    0.0000    0.0000 C   0  0  0  0  0  0  0  0  0  0  0  0
   -0.1782   -0.2605    0.0000 H   0  0  0  0  0  0  0  0  0  0  0  0
    0.7860    1.4095    0.0000 H   0  0  0  0  0  0  0  0  0  0  0  0
    1.2990   -1.5000    0.0000 O   0  0  0  0  0  0  0  0  0  0  0  0
   -0.0000   -2.2500    0.0000 H   0  0  0  0  0  0  0  0  0  0  0  0
  1  2  1  0  0  0  0 
  1  3  1  0  0  0  0 
  1  4  1  0  0  0  0 
  1  5  1  0  0  0  0 
  5  6  1  0  0  0  0 
  5  7  1  0  0  0  0 
  5  8  1  0  0  0  0 
  8  9  1  0  0  0  0 
  8 10  1  0  0  0  0 
  8 11  1  0  0  0  0 
 11 12  1  0  0  0  0 
 11 13  1  0  0  0  0 
 11 14  1  0  0  0  0 
 14 15  1  0  0  0  0 
M  END
> <Rank>
4

> <Priority_score>
0.268

> <Reaction_type>
N-dealkylation_(R-NHCH2-alkyl)

> <Parent_ID>
18

> <Parent_InChI>
InChI=1S/C30H53NO11/c1-3-4-9-31-29-7-5-28(6-8-29)30(32)42-27-26-41-25-24-40-23-22-39-21-20-38-19-18-37-17-16-36-15-14-35-13-12-34-11-10-33-2/h5-8,31H,3-4,9-27H2,1-2H3

> <Parent_SMILES>
CCCCNc1ccc(C(=O)OCCOCCOCCOCCOCCOCCOCCOCCOCCOC)cc1

$$$$
Molecule 18_metabolite 8
  CDK     0516241031

 13 12  0  0  0  0  0  0  0  0999 V2000
    3.7635    1.4228    0.0000 C   0  0  0  0  0  0  0  0  0  0  0  0
    2.4644    2.1728    0.0000 H   0  0  0  0  0  0  0  0  0  0  0  0
    4.2765    2.8324    0.0000 H   0  0  0  0  0  0  0  0  0  0  0  0
    5.2407    1.1624    0.0000 H   0  0  0  0  0  0  0  0  0  0  0  0
    3.7635   -0.0772    0.0000 C   0  0  0  0  0  0  0  0  0  0  0  0
    4.2765   -1.4867    0.0000 H   0  0  0  0  0  0  0  0  0  0  0  0
    5.2407    0.1833    0.0000 H   0  0  0  0  0  0  0  0  0  0  0  0
    2.4644   -0.8272    0.0000 C   0  0  0  0  0  0  0  0  0  0  0  0
    1.9514    0.5824    0.0000 H   0  0  0  0  0  0  0  0  0  0  0  0
    0.9872   -1.0876    0.0000 H   0  0  0  0  0  0  0  0  0  0  0  0
    2.4644   -2.3272    0.0000 C   0  0  0  0  0  0  0  0  0  0  0  0
    1.1654   -3.0772    0.0000 H   0  0  0  0  0  0  0  0  0  0  0  0
    3.7635   -3.0772    0.0000 O   0  0  0  0  0  0  0  0  0  0  0  0
  1  2  1  0  0  0  0 
  1  3  1  0  0  0  0 
  1  4  1  0  0  0  0 
  1  5  1  0  0  0  0 
  5  6  1  0  0  0  0 
  5  7  1  0  0  0  0 
  5  8  1  0  0  0  0 
  8  9  1  0  0  0  0 
  8 10  1  0  0  0  0 
  8 11  1  0  0  0  0 
 11 12  1  0  0  0  0 
 11 13  2  0  0  0  0 
M  END
> <Rank>
4

> <Priority_score>
0.268

> <Reaction_type>
N-dealkylation

> <Parent_ID>
18

> <Parent_InChI>
InChI=1S/C30H53NO11/c1-3-4-9-31-29-7-5-28(6-8-29)30(32)42-27-26-41-25-24-40-23-22-39-21-20-38-19-18-37-17-16-36-15-14-35-13-12-34-11-10-33-2/h5-8,31H,3-4,9-27H2,1-2H3

> <Parent_SMILES>
CCCCNc1ccc(C(=O)OCCOCCOCCOCCOCCOCCOCCOCCOCCOC)cc1

$$$$
Molecule 18_metabolite 9
  CDK     0516241031

 69 68  0  0  0  0  0  0  0  0999 V2000
   39.5724   -0.2400    0.0000 C   0  0  0  0  0  0  0  0  0  0  0  0
   39.5724    1.2600    0.0000 H   0  0  0  0  0  0  0  0  0  0  0  0
   41.0496    0.0205    0.0000 H   0  0  0  0  0  0  0  0  0  0  0  0
   40.0854   -1.6495    0.0000 H   0  0  0  0  0  0  0  0  0  0  0  0
   38.2734   -0.9900    0.0000 O   0  0  0  0  0  0  0  0  0  0  0  0
   36.9743   -0.2400    0.0000 C   0  0  0  0  0  0  0  0  0  0  0  0
   37.9385    0.9091    0.0000 H   0  0  0  0  0  0  0  0  0  0  0  0
   36.0101    0.9091    0.0000 H   0  0  0  0  0  0  0  0  0  0  0  0
   35.6753   -0.9900    0.0000 C   0  0  0  0  0  0  0  0  0  0  0  0
   34.7111   -2.1391    0.0000 H   0  0  0  0  0  0  0  0  0  0  0  0
   36.6395   -2.1391    0.0000 H   0  0  0  0  0  0  0  0  0  0  0  0
   34.3762   -0.2400    0.0000 O   0  0  0  0  0  0  0  0  0  0  0  0
   32.6615   -1.2300    0.0000 C   0  0  0  0  0  0  0  0  0  0  0  0
   31.6973   -2.3791    0.0000 H   0  0  0  0  0  0  0  0  0  0  0  0
   33.6257   -2.3791    0.0000 H   0  0  0  0  0  0  0  0  0  0  0  0
   31.3625   -0.4800    0.0000 C   0  0  0  0  0  0  0  0  0  0  0  0
   32.3267    0.6691    0.0000 H   0  0  0  0  0  0  0  0  0  0  0  0
   30.3983    0.6691    0.0000 H   0  0  0  0  0  0  0  0  0  0  0  0
   30.0634   -1.2300    0.0000 O   0  0  0  0  0  0  0  0  0  0  0  0
   28.3487   -0.2400    0.0000 C   0  0  0  0  0  0  0  0  0  0  0  0
   29.3129    0.9091    0.0000 H   0  0  0  0  0  0  0  0  0  0  0  0
   27.3845    0.9091    0.0000 H   0  0  0  0  0  0  0  0  0  0  0  0
   27.0497   -0.9900    0.0000 C   0  0  0  0  0  0  0  0  0  0  0  0
   26.0855   -2.1391    0.0000 H   0  0  0  0  0  0  0  0  0  0  0  0
   28.0138   -2.1391    0.0000 H   0  0  0  0  0  0  0  0  0  0  0  0
   25.7506   -0.2400    0.0000 O   0  0  0  0  0  0  0  0  0  0  0  0
   24.0359   -1.2300    0.0000 C   0  0  0  0  0  0  0  0  0  0  0  0
   23.0717   -2.3791    0.0000 H   0  0  0  0  0  0  0  0  0  0  0  0
   25.0001   -2.3791    0.0000 H   0  0  0  0  0  0  0  0  0  0  0  0
   22.7369   -0.4800    0.0000 C   0  0  0  0  0  0  0  0  0  0  0  0
   23.7010    0.6691    0.0000 H   0  0  0  0  0  0  0  0  0  0  0  0
   21.7727    0.6691    0.0000 H   0  0  0  0  0  0  0  0  0  0  0  0
   21.4378   -1.2300    0.0000 O   0  0  0  0  0  0  0  0  0  0  0  0
   19.7231   -0.2400    0.0000 C   0  0  0  0  0  0  0  0  0  0  0  0
   20.6873    0.9091    0.0000 H   0  0  0  0  0  0  0  0  0  0  0  0
   18.7589    0.9091    0.0000 H   0  0  0  0  0  0  0  0  0  0  0  0
   18.4241   -0.9900    0.0000 C   0  0  0  0  0  0  0  0  0  0  0  0
   17.4599   -2.1391    0.0000 H   0  0  0  0  0  0  0  0  0  0  0  0
   19.3882   -2.1391    0.0000 H   0  0  0  0  0  0  0  0  0  0  0  0
   16.7093   -0.0000    0.0000 O   0  0  0  0  0  0  0  0  0  0  0  0
   15.4103   -0.7500    0.0000 C   0  0  0  0  0  0  0  0  0  0  0  0
   14.4461   -1.8991    0.0000 H   0  0  0  0  0  0  0  0  0  0  0  0
   16.3745   -1.8991    0.0000 H   0  0  0  0  0  0  0  0  0  0  0  0
   14.1112   -0.0000    0.0000 C   0  0  0  0  0  0  0  0  0  0  0  0
   15.0754    1.1491    0.0000 H   0  0  0  0  0  0  0  0  0  0  0  0
   13.1471    1.1491    0.0000 H   0  0  0  0  0  0  0  0  0  0  0  0
   12.8122   -0.7500    0.0000 O   0  0  0  0  0  0  0  0  0  0  0  0
   11.0975    0.2400    0.0000 C   0  0  0  0  0  0  0  0  0  0  0  0
   12.0617    1.3891    0.0000 H   0  0  0  0  0  0  0  0  0  0  0  0
   10.1333    1.3891    0.0000 H   0  0  0  0  0  0  0  0  0  0  0  0
    9.7984   -0.5100    0.0000 C   0  0  0  0  0  0  0  0  0  0  0  0
    8.8343   -1.6591    0.0000 H   0  0  0  0  0  0  0  0  0  0  0  0
   10.7626   -1.6591    0.0000 H   0  0  0  0  0  0  0  0  0  0  0  0
    8.0837    0.4800    0.0000 O   0  0  0  0  0  0  0  0  0  0  0  0
    6.7847   -0.2700    0.0000 C   0  0  0  0  0  0  0  0  0  0  0  0
    5.8205   -1.4191    0.0000 H   0  0  0  0  0  0  0  0  0  0  0  0
    7.7489   -1.4191    0.0000 H   0  0  0  0  0  0  0  0  0  0  0  0
    5.4856    0.4800    0.0000 C   0  0  0  0  0  0  0  0  0  0  0  0
    6.4498    1.6291    0.0000 H   0  0  0  0  0  0  0  0  0  0  0  0
    4.5215    1.6291    0.0000 H   0  0  0  0  0  0  0  0  0  0  0  0
    3.7709   -0.5100    0.0000 O   0  0  0  0  0  0  0  0  0  0  0  0
    2.4719    0.2400    0.0000 C   0  0  0  0  0  0  0  0  0  0  0  0
    3.4360    1.3891    0.0000 H   0  0  0  0  0  0  0  0  0  0  0  0
    1.5077    1.3891    0.0000 H   0  0  0  0  0  0  0  0  0  0  0  0
    1.1728   -0.5100    0.0000 C   0  0  0  0  0  0  0  0  0  0  0  0
    0.2086   -1.6591    0.0000 H   0  0  0  0  0  0  0  0  0  0  0  0
    2.1370   -1.6591    0.0000 H   0  0  0  0  0  0  0  0  0  0  0  0
   -0.1262    0.2400    0.0000 O   0  0  0  0  0  0  0  0  0  0  0  0
   -1.4253   -0.5100    0.0000 H   0  0  0  0  0  0  0  0  0  0  0  0
  1  2  1  0  0  0  0 
  1  3  1  0  0  0  0 
  1  4  1  0  0  0  0 
  1  5  1  0  0  0  0 
  5  6  1  0  0  0  0 
  6  7  1  0  0  0  0 
  6  8  1  0  0  0  0 
  6  9  1  0  0  0  0 
  9 10  1  0  0  0  0 
  9 11  1  0  0  0  0 
  9 12  1  0  0  0  0 
 12 13  1  0  0  0  0 
 13 14  1  0  0  0  0 
 13 15  1  0  0  0  0 
 13 16  1  0  0  0  0 
 16 17  1  0  0  0  0 
 16 18  1  0  0  0  0 
 16 19  1  0  0  0  0 
 19 20  1  0  0  0  0 
 20 21  1  0  0  0  0 
 20 22  1  0  0  0  0 
 20 23  1  0  0  0  0 
 23 24  1  0  0  0  0 
 23 25  1  0  0  0  0 
 23 26  1  0  0  0  0 
 26 27  1  0  0  0  0 
 27 28  1  0  0  0  0 
 27 29  1  0  0  0  0 
 27 30  1  0  0  0  0 
 30 31  1  0  0  0  0 
 30 32  1  0  0  0  0 
 30 33  1  0  0  0  0 
 33 34  1  0  0  0  0 
 34 35  1  0  0  0  0 
 34 36  1  0  0  0  0 
 34 37  1  0  0  0  0 
 37 38  1  0  0  0  0 
 37 39  1  0  0  0  0 
 37 40  1  0  0  0  0 
 40 41  1  0  0  0  0 
 41 42  1  0  0  0  0 
 41 43  1  0  0  0  0 
 41 44  1  0  0  0  0 
 44 45  1  0  0  0  0 
 44 46  1  0  0  0  0 
 44 47  1  0  0  0  0 
 47 48  1  0  0  0  0 
 48 49  1  0  0  0  0 
 48 50  1  0  0  0  0 
 48 51  1  0  0  0  0 
 51 52  1  0  0  0  0 
 51 53  1  0  0  0  0 
 51 54  1  0  0  0  0 
 54 55  1  0  0  0  0 
 55 56  1  0  0  0  0 
 55 57  1  0  0  0  0 
 55 58  1  0  0  0  0 
 58 59  1  0  0  0  0 
 58 60  1  0  0  0  0 
 58 61  1  0  0  0  0 
 61 62  1  0  0  0  0 
 62 63  1  0  0  0  0 
 62 64  1  0  0  0  0 
 62 65  1  0  0  0  0 
 65 66  1  0  0  0  0 
 65 67  1  0  0  0  0 
 65 68  1  0  0  0  0 
 68 69  1  0  0  0  0 
M  END
> <Rank>
9

> <Priority_score>
0.184

> <Reaction_type>
hydrolysis_(ester)

> <Parent_ID>
18

> <Parent_InChI>
InChI=1S/C30H53NO11/c1-3-4-9-31-29-7-5-28(6-8-29)30(32)42-27-26-41-25-24-40-23-22-39-21-20-38-19-18-37-17-16-36-15-14-35-13-12-34-11-10-33-2/h5-8,31H,3-4,9-27H2,1-2H3

> <Parent_SMILES>
CCCCNc1ccc(C(=O)OCCOCCOCCOCCOCCOCCOCCOCCOCCOC)cc1

$$$$
Molecule 18_metabolite 10
  CDK     0516241031

 67 66  0  0  0  0  0  0  0  0999 V2000
   37.8577   -0.0000    0.0000 C   0  0  0  0  0  0  0  0  0  0  0  0
   37.8577    1.5000    0.0000 H   0  0  0  0  0  0  0  0  0  0  0  0
   39.3349    0.2605    0.0000 H   0  0  0  0  0  0  0  0  0  0  0  0
   38.3707   -1.4095    0.0000 H   0  0  0  0  0  0  0  0  0  0  0  0
   36.5586   -0.7500    0.0000 O   0  0  0  0  0  0  0  0  0  0  0  0
   35.2596   -0.0000    0.0000 C   0  0  0  0  0  0  0  0  0  0  0  0
   36.2238    1.1491    0.0000 H   0  0  0  0  0  0  0  0  0  0  0  0
   34.2954    1.1491    0.0000 H   0  0  0  0  0  0  0  0  0  0  0  0
   33.9605   -0.7500    0.0000 C   0  0  0  0  0  0  0  0  0  0  0  0
   32.9964   -1.8991    0.0000 H   0  0  0  0  0  0  0  0  0  0  0  0
   34.9247   -1.8991    0.0000 H   0  0  0  0  0  0  0  0  0  0  0  0
   32.6615   -0.0000    0.0000 O   0  0  0  0  0  0  0  0  0  0  0  0
   30.9468   -0.9900    0.0000 C   0  0  0  0  0  0  0  0  0  0  0  0
   29.9826   -2.1391    0.0000 H   0  0  0  0  0  0  0  0  0  0  0  0
   31.9110   -2.1391    0.0000 H   0  0  0  0  0  0  0  0  0  0  0  0
   29.6477   -0.2400    0.0000 C   0  0  0  0  0  0  0  0  0  0  0  0
   30.6119    0.9091    0.0000 H   0  0  0  0  0  0  0  0  0  0  0  0
   28.6836    0.9091    0.0000 H   0  0  0  0  0  0  0  0  0  0  0  0
   28.3487   -0.9900    0.0000 O   0  0  0  0  0  0  0  0  0  0  0  0
   26.6340   -0.0000    0.0000 C   0  0  0  0  0  0  0  0  0  0  0  0
   27.5982    1.1491    0.0000 H   0  0  0  0  0  0  0  0  0  0  0  0
   25.6698    1.1491    0.0000 H   0  0  0  0  0  0  0  0  0  0  0  0
   25.3349   -0.7500    0.0000 C   0  0  0  0  0  0  0  0  0  0  0  0
   24.3708   -1.8991    0.0000 H   0  0  0  0  0  0  0  0  0  0  0  0
   26.2991   -1.8991    0.0000 H   0  0  0  0  0  0  0  0  0  0  0  0
   24.0359   -0.0000    0.0000 O   0  0  0  0  0  0  0  0  0  0  0  0
   22.3212   -0.9900    0.0000 C   0  0  0  0  0  0  0  0  0  0  0  0
   21.3570   -2.1391    0.0000 H   0  0  0  0  0  0  0  0  0  0  0  0
   23.2853   -2.1391    0.0000 H   0  0  0  0  0  0  0  0  0  0  0  0
   21.0221   -0.2400    0.0000 C   0  0  0  0  0  0  0  0  0  0  0  0
   21.9863    0.9091    0.0000 H   0  0  0  0  0  0  0  0  0  0  0  0
   20.0579    0.9091    0.0000 H   0  0  0  0  0  0  0  0  0  0  0  0
   19.7231   -0.9900    0.0000 O   0  0  0  0  0  0  0  0  0  0  0  0
   18.0084   -0.0000    0.0000 C   0  0  0  0  0  0  0  0  0  0  0  0
   18.9725    1.1491    0.0000 H   0  0  0  0  0  0  0  0  0  0  0  0
   17.0442    1.1491    0.0000 H   0  0  0  0  0  0  0  0  0  0  0  0
   16.7093   -0.7500    0.0000 C   0  0  0  0  0  0  0  0  0  0  0  0
   15.7451   -1.8991    0.0000 H   0  0  0  0  0  0  0  0  0  0  0  0
   17.6735   -1.8991    0.0000 H   0  0  0  0  0  0  0  0  0  0  0  0
   14.9946    0.2400    0.0000 O   0  0  0  0  0  0  0  0  0  0  0  0
   13.6956   -0.5100    0.0000 C   0  0  0  0  0  0  0  0  0  0  0  0
   12.7314   -1.6591    0.0000 H   0  0  0  0  0  0  0  0  0  0  0  0
   14.6597   -1.6591    0.0000 H   0  0  0  0  0  0  0  0  0  0  0  0
   12.3965    0.2400    0.0000 C   0  0  0  0  0  0  0  0  0  0  0  0
   13.3607    1.3891    0.0000 H   0  0  0  0  0  0  0  0  0  0  0  0
   11.4323    1.3891    0.0000 H   0  0  0  0  0  0  0  0  0  0  0  0
   10.6818   -0.7500    0.0000 O   0  0  0  0  0  0  0  0  0  0  0  0
    9.3827   -0.0000    0.0000 C   0  0  0  0  0  0  0  0  0  0  0  0
   10.3469    1.1491    0.0000 H   0  0  0  0  0  0  0  0  0  0  0  0
    8.4186    1.1491    0.0000 H   0  0  0  0  0  0  0  0  0  0  0  0
    8.0837   -0.7500    0.0000 C   0  0  0  0  0  0  0  0  0  0  0  0
    7.1195   -1.8991    0.0000 H   0  0  0  0  0  0  0  0  0  0  0  0
    9.0479   -1.8991    0.0000 H   0  0  0  0  0  0  0  0  0  0  0  0
    6.3690    0.2400    0.0000 O   0  0  0  0  0  0  0  0  0  0  0  0
    5.0699   -0.5100    0.0000 C   0  0  0  0  0  0  0  0  0  0  0  0
    4.1058   -1.6591    0.0000 H   0  0  0  0  0  0  0  0  0  0  0  0
    6.0341   -1.6591    0.0000 H   0  0  0  0  0  0  0  0  0  0  0  0
    3.7709    0.2400    0.0000 C   0  0  0  0  0  0  0  0  0  0  0  0
    4.7351    1.3891    0.0000 H   0  0  0  0  0  0  0  0  0  0  0  0
    2.8067    1.3891    0.0000 H   0  0  0  0  0  0  0  0  0  0  0  0
    2.0562   -0.7500    0.0000 O   0  0  0  0  0  0  0  0  0  0  0  0
    0.7571    0.0000    0.0000 C   0  0  0  0  0  0  0  0  0  0  0  0
    1.7213    1.1491    0.0000 H   0  0  0  0  0  0  0  0  0  0  0  0
   -0.2070    1.1491    0.0000 H   0  0  0  0  0  0  0  0  0  0  0  0
   -0.5419   -0.7500    0.0000 C   0  0  0  0  0  0  0  0  0  0  0  0
   -1.8409    0.0000    0.0000 H   0  0  0  0  0  0  0  0  0  0  0  0
   -0.5419   -2.2500    0.0000 O   0  0  0  0  0  0  0  0  0  0  0  0
  1  2  1  0  0  0  0 
  1  3  1  0  0  0  0 
  1  4  1  0  0  0  0 
  1  5  1  0  0  0  0 
  5  6  1  0  0  0  0 
  6  7  1  0  0  0  0 
  6  8  1  0  0  0  0 
  6  9  1  0  0  0  0 
  9 10  1  0  0  0  0 
  9 11  1  0  0  0  0 
  9 12  1  0  0  0  0 
 12 13  1  0  0  0  0 
 13 14  1  0  0  0  0 
 13 15  1  0  0  0  0 
 13 16  1  0  0  0  0 
 16 17  1  0  0  0  0 
 16 18  1  0  0  0  0 
 16 19  1  0  0  0  0 
 19 20  1  0  0  0  0 
 20 21  1  0  0  0  0 
 20 22  1  0  0  0  0 
 20 23  1  0  0  0  0 
 23 24  1  0  0  0  0 
 23 25  1  0  0  0  0 
 23 26  1  0  0  0  0 
 26 27  1  0  0  0  0 
 27 28  1  0  0  0  0 
 27 29  1  0  0  0  0 
 27 30  1  0  0  0  0 
 30 31  1  0  0  0  0 
 30 32  1  0  0  0  0 
 30 33  1  0  0  0  0 
 33 34  1  0  0  0  0 
 34 35  1  0  0  0  0 
 34 36  1  0  0  0  0 
 34 37  1  0  0  0  0 
 37 38  1  0  0  0  0 
 37 39  1  0  0  0  0 
 37 40  1  0  0  0  0 
 40 41  1  0  0  0  0 
 41 42  1  0  0  0  0 
 41 43  1  0  0  0  0 
 41 44  1  0  0  0  0 
 44 45  1  0  0  0  0 
 44 46  1  0  0  0  0 
 44 47  1  0  0  0  0 
 47 48  1  0  0  0  0 
 48 49  1  0  0  0  0 
 48 50  1  0  0  0  0 
 48 51  1  0  0  0  0 
 51 52  1  0  0  0  0 
 51 53  1  0  0  0  0 
 51 54  1  0  0  0  0 
 54 55  1  0  0  0  0 
 55 56  1  0  0  0  0 
 55 57  1  0  0  0  0 
 55 58  1  0  0  0  0 
 58 59  1  0  0  0  0 
 58 60  1  0  0  0  0 
 58 61  1  0  0  0  0 
 61 62  1  0  0  0  0 
 62 63  1  0  0  0  0 
 62 64  1  0  0  0  0 
 62 65  1  0  0  0  0 
 65 66  1  0  0  0  0 
 65 67  2  0  0  0  0 
M  END
> <Rank>
9

> <Priority_score>
0.184

> <Reaction_type>
oxidative ether cleavage to one alcohol and one aldehyde/ketone

> <Parent_ID>
18

> <Parent_InChI>
InChI=1S/C30H53NO11/c1-3-4-9-31-29-7-5-28(6-8-29)30(32)42-27-26-41-25-24-40-23-22-39-21-20-38-19-18-37-17-16-36-15-14-35-13-12-34-11-10-33-2/h5-8,31H,3-4,9-27H2,1-2H3

> <Parent_SMILES>
CCCCNc1ccc(C(=O)OCCOCCOCCOCCOCCOCCOCCOCCOCCOC)cc1

$$$$
Molecule 18_metabolite 11
  CDK     0516241031

 29 29  0  0  0  0  0  0  0  0999 V2000
   -3.7198    1.5002    0.0000 C   0  0  0  0  0  0  0  0  0  0  0  0
   -3.7196    3.0002    0.0000 H   0  0  0  0  0  0  0  0  0  0  0  0
   -4.2331    0.0908    0.0000 H   0  0  0  0  0  0  0  0  0  0  0  0
   -5.1970    1.7609    0.0000 H   0  0  0  0  0  0  0  0  0  0  0  0
   -2.4209    0.7500    0.0000 C   0  0  0  0  0  0  0  0  0  0  0  0
   -3.3853   -0.3989    0.0000 H   0  0  0  0  0  0  0  0  0  0  0  0
   -1.4569   -0.3992    0.0000 H   0  0  0  0  0  0  0  0  0  0  0  0
   -1.1217    1.4998    0.0000 C   0  0  0  0  0  0  0  0  0  0  0  0
   -0.1574    2.6487    0.0000 H   0  0  0  0  0  0  0  0  0  0  0  0
   -2.0857    2.6490    0.0000 H   0  0  0  0  0  0  0  0  0  0  0  0
    0.5928    0.5095    0.0000 C   0  0  0  0  0  0  0  0  0  0  0  0
   -0.3715   -0.6394    0.0000 H   0  0  0  0  0  0  0  0  0  0  0  0
    1.5568   -0.6397    0.0000 H   0  0  0  0  0  0  0  0  0  0  0  0
    1.8920    1.2593    0.0000 N   0  0  0  0  0  0  0  0  0  0  0  0
    1.8922    2.7593    0.0000 H   0  0  0  0  0  0  0  0  0  0  0  0
    3.1909    0.5091    0.0000 C   0  0  0  0  0  0  0  0  0  0  0  0
    4.4909    1.2591    0.0000 C   0  0  0  0  0  0  0  0  0  0  0  0
    4.4909    2.7591    0.0000 H   0  0  0  0  0  0  0  0  0  0  0  0
    5.7909    0.5091    0.0000 C   0  0  0  0  0  0  0  0  0  0  0  0
    7.0898    1.2593    0.0000 H   0  0  0  0  0  0  0  0  0  0  0  0
    5.7909   -0.9909    0.0000 C   0  0  0  0  0  0  0  0  0  0  0  0
    4.4909   -1.7409    0.0000 C   0  0  0  0  0  0  0  0  0  0  0  0
    4.4909   -3.2409    0.0000 H   0  0  0  0  0  0  0  0  0  0  0  0
    3.1909   -0.9909    0.0000 C   0  0  0  0  0  0  0  0  0  0  0  0
    1.8920   -1.7411    0.0000 H   0  0  0  0  0  0  0  0  0  0  0  0
    7.0898   -1.7411    0.0000 C   0  0  0  0  0  0  0  0  0  0  0  0
    7.0896   -3.2411    0.0000 O   0  0  0  0  0  0  0  0  0  0  0  0
    8.3890   -0.9913    0.0000 O   0  0  0  0  0  0  0  0  0  0  0  0
    9.6879   -1.7415    0.0000 H   0  0  0  0  0  0  0  0  0  0  0  0
  1  2  1  0  0  0  0 
  1  3  1  0  0  0  0 
  1  4  1  0  0  0  0 
  1  5  1  0  0  0  0 
  5  6  1  0  0  0  0 
  5  7  1  0  0  0  0 
  5  8  1  0  0  0  0 
  8  9  1  0  0  0  0 
  8 10  1  0  0  0  0 
  8 11  1  0  0  0  0 
 11 12  1  0  0  0  0 
 11 13  1  0  0  0  0 
 11 14  1  0  0  0  0 
 14 15  1  0  0  0  0 
 14 16  1  0  0  0  0 
 16 17  2  0  0  0  0 
 17 18  1  0  0  0  0 
 17 19  1  0  0  0  0 
 19 20  1  0  0  0  0 
 19 21  2  0  0  0  0 
 21 22  1  0  0  0  0 
 22 23  1  0  0  0  0 
 22 24  2  0  0  0  0 
 16 24  1  0  0  0  0 
 24 25  1  0  0  0  0 
 21 26  1  0  0  0  0 
 26 27  2  0  0  0  0 
 26 28  1  0  0  0  0 
 28 29  1  0  0  0  0 
M  END
> <Rank>
9

> <Priority_score>
0.184

> <Reaction_type>
hydrolysis_(ester)

> <Parent_ID>
18

> <Parent_InChI>
InChI=1S/C30H53NO11/c1-3-4-9-31-29-7-5-28(6-8-29)30(32)42-27-26-41-25-24-40-23-22-39-21-20-38-19-18-37-17-16-36-15-14-35-13-12-34-11-10-33-2/h5-8,31H,3-4,9-27H2,1-2H3

> <Parent_SMILES>
CCCCNc1ccc(C(=O)OCCOCCOCCOCCOCCOCCOCCOCCOCCOC)cc1

$$$$
Molecule 18_metabolite 12
  CDK     0516241031

 96 96  0  0  0  0  0  0  0  0999 V2000
  -41.5183    2.1132    0.0000 C   0  0  0  0  0  0  0  0  0  0  0  0
  -41.5180    3.6132    0.0000 H   0  0  0  0  0  0  0  0  0  0  0  0
  -42.0315    0.7037    0.0000 H   0  0  0  0  0  0  0  0  0  0  0  0
  -42.9954    2.3739    0.0000 H   0  0  0  0  0  0  0  0  0  0  0  0
  -40.2193    1.3630    0.0000 C   0  0  0  0  0  0  0  0  0  0  0  0
  -41.1837    0.2141    0.0000 H   0  0  0  0  0  0  0  0  0  0  0  0
  -39.2553    0.2137    0.0000 H   0  0  0  0  0  0  0  0  0  0  0  0
  -38.9202    2.1128    0.0000 C   0  0  0  0  0  0  0  0  0  0  0  0
  -37.9558    3.2617    0.0000 H   0  0  0  0  0  0  0  0  0  0  0  0
  -39.8842    3.2620    0.0000 H   0  0  0  0  0  0  0  0  0  0  0  0
  -37.2056    1.1225    0.0000 C   0  0  0  0  0  0  0  0  0  0  0  0
  -38.1700   -0.0264    0.0000 H   0  0  0  0  0  0  0  0  0  0  0  0
  -36.2416   -0.0267    0.0000 H   0  0  0  0  0  0  0  0  0  0  0  0
  -35.9065    1.8723    0.0000 N   0  0  0  0  0  0  0  0  0  0  0  0
  -35.9062    3.3723    0.0000 H   0  0  0  0  0  0  0  0  0  0  0  0
  -34.6075    1.1221    0.0000 C   0  0  0  0  0  0  0  0  0  0  0  0
  -33.3075    1.8721    0.0000 C   0  0  0  0  0  0  0  0  0  0  0  0
  -33.3075    3.3721    0.0000 H   0  0  0  0  0  0  0  0  0  0  0  0
  -32.0075    1.1221    0.0000 C   0  0  0  0  0  0  0  0  0  0  0  0
  -30.7086    1.8723    0.0000 H   0  0  0  0  0  0  0  0  0  0  0  0
  -32.0075   -0.3779    0.0000 C   0  0  0  0  0  0  0  0  0  0  0  0
  -33.3075   -1.1279    0.0000 C   0  0  0  0  0  0  0  0  0  0  0  0
  -33.3075   -2.6279    0.0000 H   0  0  0  0  0  0  0  0  0  0  0  0
  -34.6075   -0.3779    0.0000 C   0  0  0  0  0  0  0  0  0  0  0  0
  -35.9065   -1.1281    0.0000 H   0  0  0  0  0  0  0  0  0  0  0  0
  -30.7086   -1.1281    0.0000 C   0  0  0  0  0  0  0  0  0  0  0  0
  -30.7089   -2.6281    0.0000 O   0  0  0  0  0  0  0  0  0  0  0  0
  -29.4095   -0.3783    0.0000 O   0  0  0  0  0  0  0  0  0  0  0  0
  -28.1105   -1.1286    0.0000 C   0  0  0  0  0  0  0  0  0  0  0  0
  -29.0749   -2.2775    0.0000 H   0  0  0  0  0  0  0  0  0  0  0  0
  -27.1465   -2.2778    0.0000 H   0  0  0  0  0  0  0  0  0  0  0  0
  -26.8114   -0.3788    0.0000 C   0  0  0  0  0  0  0  0  0  0  0  0
  -25.8470    0.7701    0.0000 H   0  0  0  0  0  0  0  0  0  0  0  0
  -27.7754    0.7705    0.0000 H   0  0  0  0  0  0  0  0  0  0  0  0
  -25.0968   -1.3690    0.0000 O   0  0  0  0  0  0  0  0  0  0  0  0
  -23.7977   -0.6192    0.0000 C   0  0  0  0  0  0  0  0  0  0  0  0
  -22.8333    0.5297    0.0000 H   0  0  0  0  0  0  0  0  0  0  0  0
  -24.7617    0.5300    0.0000 H   0  0  0  0  0  0  0  0  0  0  0  0
  -22.4987   -1.3695    0.0000 C   0  0  0  0  0  0  0  0  0  0  0  0
  -23.4631   -2.5184    0.0000 H   0  0  0  0  0  0  0  0  0  0  0  0
  -21.5347   -2.5187    0.0000 H   0  0  0  0  0  0  0  0  0  0  0  0
  -21.1996   -0.6197    0.0000 O   0  0  0  0  0  0  0  0  0  0  0  0
  -19.4850   -1.6099    0.0000 C   0  0  0  0  0  0  0  0  0  0  0  0
  -20.4494   -2.7589    0.0000 H   0  0  0  0  0  0  0  0  0  0  0  0
  -18.5210   -2.7592    0.0000 H   0  0  0  0  0  0  0  0  0  0  0  0
  -18.1859   -0.8601    0.0000 C   0  0  0  0  0  0  0  0  0  0  0  0
  -17.2215    0.2888    0.0000 H   0  0  0  0  0  0  0  0  0  0  0  0
  -19.1498    0.2891    0.0000 H   0  0  0  0  0  0  0  0  0  0  0  0
  -16.4713   -1.8504    0.0000 O   0  0  0  0  0  0  0  0  0  0  0  0
  -15.1721   -1.1006    0.0000 C   0  0  0  0  0  0  0  0  0  0  0  0
  -14.2078    0.0483    0.0000 H   0  0  0  0  0  0  0  0  0  0  0  0
  -16.1361    0.0486    0.0000 H   0  0  0  0  0  0  0  0  0  0  0  0
  -13.8732   -1.8508    0.0000 C   0  0  0  0  0  0  0  0  0  0  0  0
  -14.8376   -2.9997    0.0000 H   0  0  0  0  0  0  0  0  0  0  0  0
  -12.9092   -3.0001    0.0000 H   0  0  0  0  0  0  0  0  0  0  0  0
  -12.5740   -1.1010    0.0000 O   0  0  0  0  0  0  0  0  0  0  0  0
  -10.8595   -2.0913    0.0000 C   0  0  0  0  0  0  0  0  0  0  0  0
  -11.8238   -3.2402    0.0000 H   0  0  0  0  0  0  0  0  0  0  0  0
   -9.8955   -3.2405    0.0000 H   0  0  0  0  0  0  0  0  0  0  0  0
   -9.5603   -1.3415    0.0000 C   0  0  0  0  0  0  0  0  0  0  0  0
   -8.5960   -0.1926    0.0000 H   0  0  0  0  0  0  0  0  0  0  0  0
  -10.5243   -0.1923    0.0000 H   0  0  0  0  0  0  0  0  0  0  0  0
   -7.8457   -2.3318    0.0000 O   0  0  0  0  0  0  0  0  0  0  0  0
   -6.5466   -1.5820    0.0000 C   0  0  0  0  0  0  0  0  0  0  0  0
   -5.5822   -0.4331    0.0000 H   0  0  0  0  0  0  0  0  0  0  0  0
   -7.5106   -0.4328    0.0000 H   0  0  0  0  0  0  0  0  0  0  0  0
   -5.2477   -2.3322    0.0000 C   0  0  0  0  0  0  0  0  0  0  0  0
   -6.2120   -3.4811    0.0000 H   0  0  0  0  0  0  0  0  0  0  0  0
   -4.2837   -3.4814    0.0000 H   0  0  0  0  0  0  0  0  0  0  0  0
   -3.5328   -1.3425    0.0000 O   0  0  0  0  0  0  0  0  0  0  0  0
   -2.2339   -2.0927    0.0000 C   0  0  0  0  0  0  0  0  0  0  0  0
   -3.1982   -3.2416    0.0000 H   0  0  0  0  0  0  0  0  0  0  0  0
   -1.2699   -3.2419    0.0000 H   0  0  0  0  0  0  0  0  0  0  0  0
   -0.9347   -1.3429    0.0000 C   0  0  0  0  0  0  0  0  0  0  0  0
    0.0297   -0.1940    0.0000 H   0  0  0  0  0  0  0  0  0  0  0  0
   -1.8987   -0.1937    0.0000 H   0  0  0  0  0  0  0  0  0  0  0  0
    0.3642   -2.0931    0.0000 O   0  0  0  0  0  0  0  0  0  0  0  0
    2.0791   -1.1034    0.0000 C   0  0  0  0  0  0  0  0  0  0  0  0
    3.0435    0.0455    0.0000 H   0  0  0  0  0  0  0  0  0  0  0  0
    1.1151    0.0458    0.0000 H   0  0  0  0  0  0  0  0  0  0  0  0
    3.3780   -1.8536    0.0000 C   0  0  0  0  0  0  0  0  0  0  0  0
    2.4137   -3.0025    0.0000 H   0  0  0  0  0  0  0  0  0  0  0  0
    4.3420   -3.0028    0.0000 H   0  0  0  0  0  0  0  0  0  0  0  0
    5.0929   -0.8639    0.0000 O   0  0  0  0  0  0  0  0  0  0  0  0
    6.3918   -1.6141    0.0000 C   0  0  0  0  0  0  0  0  0  0  0  0
    5.4275   -2.7630    0.0000 H   0  0  0  0  0  0  0  0  0  0  0  0
    7.3558   -2.7633    0.0000 H   0  0  0  0  0  0  0  0  0  0  0  0
    7.6910   -0.8643    0.0000 C   0  0  0  0  0  0  0  0  0  0  0  0
    8.6554    0.2846    0.0000 H   0  0  0  0  0  0  0  0  0  0  0  0
    6.7270    0.2849    0.0000 O   0  0  0  0  0  0  0  0  0  0  0  0
    7.2402    1.6944    0.0000 H   0  0  0  0  0  0  0  0  0  0  0  0
    8.9899   -1.6145    0.0000 O   0  0  0  0  0  0  0  0  0  0  0  0
   10.2891   -0.8647    0.0000 C   0  0  0  0  0  0  0  0  0  0  0  0
   10.2893    0.6353    0.0000 H   0  0  0  0  0  0  0  0  0  0  0  0
   11.7663   -0.6045    0.0000 H   0  0  0  0  0  0  0  0  0  0  0  0
   10.8019   -2.2743    0.0000 H   0  0  0  0  0  0  0  0  0  0  0  0
  1  2  1  0  0  0  0 
  1  3  1  0  0  0  0 
  1  4  1  0  0  0  0 
  1  5  1  0  0  0  0 
  5  6  1  0  0  0  0 
  5  7  1  0  0  0  0 
  5  8  1  0  0  0  0 
  8  9  1  0  0  0  0 
  8 10  1  0  0  0  0 
  8 11  1  0  0  0  0 
 11 12  1  0  0  0  0 
 11 13  1  0  0  0  0 
 11 14  1  0  0  0  0 
 14 15  1  0  0  0  0 
 14 16  1  0  0  0  0 
 16 17  2  0  0  0  0 
 17 18  1  0  0  0  0 
 17 19  1  0  0  0  0 
 19 20  1  0  0  0  0 
 19 21  2  0  0  0  0 
 21 22  1  0  0  0  0 
 22 23  1  0  0  0  0 
 22 24  2  0  0  0  0 
 16 24  1  0  0  0  0 
 24 25  1  0  0  0  0 
 21 26  1  0  0  0  0 
 26 27  2  0  0  0  0 
 26 28  1  0  0  0  0 
 28 29  1  0  0  0  0 
 29 30  1  0  0  0  0 
 29 31  1  0  0  0  0 
 29 32  1  0  0  0  0 
 32 33  1  0  0  0  0 
 32 34  1  0  0  0  0 
 32 35  1  0  0  0  0 
 35 36  1  0  0  0  0 
 36 37  1  0  0  0  0 
 36 38  1  0  0  0  0 
 36 39  1  0  0  0  0 
 39 40  1  0  0  0  0 
 39 41  1  0  0  0  0 
 39 42  1  0  0  0  0 
 42 43  1  0  0  0  0 
 43 44  1  0  0  0  0 
 43 45  1  0  0  0  0 
 43 46  1  0  0  0  0 
 46 47  1  0  0  0  0 
 46 48  1  0  0  0  0 
 46 49  1  0  0  0  0 
 49 50  1  0  0  0  0 
 50 51  1  0  0  0  0 
 50 52  1  0  0  0  0 
 50 53  1  0  0  0  0 
 53 54  1  0  0  0  0 
 53 55  1  0  0  0  0 
 53 56  1  0  0  0  0 
 56 57  1  0  0  0  0 
 57 58  1  0  0  0  0 
 57 59  1  0  0  0  0 
 57 60  1  0  0  0  0 
 60 61  1  0  0  0  0 
 60 62  1  0  0  0  0 
 60 63  1  0  0  0  0 
 63 64  1  0  0  0  0 
 64 65  1  0  0  0  0 
 64 66  1  0  0  0  0 
 64 67  1  0  0  0  0 
 67 68  1  0  0  0  0 
 67 69  1  0  0  0  0 
 67 70  1  0  0  0  0 
 70 71  1  0  0  0  0 
 71 72  1  0  0  0  0 
 71 73  1  0  0  0  0 
 71 74  1  0  0  0  0 
 74 75  1  0  0  0  0 
 74 76  1  0  0  0  0 
 74 77  1  0  0  0  0 
 77 78  1  0  0  0  0 
 78 79  1  0  0  0  0 
 78 80  1  0  0  0  0 
 78 81  1  0  0  0  0 
 81 82  1  0  0  0  0 
 81 83  1  0  0  0  0 
 81 84  1  0  0  0  0 
 84 85  1  0  0  0  0 
 85 86  1  0  0  0  0 
 85 87  1  0  0  0  0 
 85 88  1  0  0  0  0 
 88 89  1  0  0  0  0 
 88 90  1  0  0  0  0 
 90 91  1  0  0  0  0 
 88 92  1  0  0  0  0 
 92 93  1  0  0  0  0 
 93 94  1  0  0  0  0 
 93 95  1  0  0  0  0 
 93 96  1  0  0  0  0 
M  END
> <Rank>
12

> <Priority_score>
0.172

> <Reaction_type>
aliphatic hydroxylation

> <Parent_ID>
18

> <Parent_InChI>
InChI=1S/C30H53NO11/c1-3-4-9-31-29-7-5-28(6-8-29)30(32)42-27-26-41-25-24-40-23-22-39-21-20-38-19-18-37-17-16-36-15-14-35-13-12-34-11-10-33-2/h5-8,31H,3-4,9-27H2,1-2H3

> <Parent_SMILES>
CCCCNc1ccc(C(=O)OCCOCCOCCOCCOCCOCCOCCOCCOCCOC)cc1

$$$$
Molecule 18_metabolite 13
  CDK     0516241031

115116  0  0  0  0  0  0  0  0999 V2000
   -3.4621  -16.1517    0.0000 C   0  0  0  0  0  0  0  0  0  0  0  0
   -2.0524  -15.6390    0.0000 H   0  0  0  0  0  0  0  0  0  0  0  0
   -4.6113  -17.1157    0.0000 H   0  0  0  0  0  0  0  0  0  0  0  0
   -2.7124  -17.4509    0.0000 H   0  0  0  0  0  0  0  0  0  0  0  0
   -4.6109  -15.1873    0.0000 C   0  0  0  0  0  0  0  0  0  0  0  0
   -5.3612  -16.4862    0.0000 H   0  0  0  0  0  0  0  0  0  0  0  0
   -6.0204  -14.6740    0.0000 H   0  0  0  0  0  0  0  0  0  0  0  0
   -4.2667  -13.2375    0.0000 C   0  0  0  0  0  0  0  0  0  0  0  0
   -3.5164  -11.9386    0.0000 H   0  0  0  0  0  0  0  0  0  0  0  0
   -2.8573  -13.7508    0.0000 H   0  0  0  0  0  0  0  0  0  0  0  0
   -5.4156  -12.2730    0.0000 C   0  0  0  0  0  0  0  0  0  0  0  0
   -6.1658  -13.5719    0.0000 H   0  0  0  0  0  0  0  0  0  0  0  0
   -6.8250  -11.7597    0.0000 H   0  0  0  0  0  0  0  0  0  0  0  0
   -5.1548  -10.7959    0.0000 N   0  0  0  0  0  0  0  0  0  0  0  0
   -3.7451  -10.2832    0.0000 C   0  0  0  0  0  0  0  0  0  0  0  0
   -2.5955  -11.2479    0.0000 C   0  0  0  0  0  0  0  0  0  0  0  0
   -2.8565  -12.7251    0.0000 H   0  0  0  0  0  0  0  0  0  0  0  0
   -1.1848  -10.7356    0.0000 C   0  0  0  0  0  0  0  0  0  0  0  0
   -0.0362  -11.7004    0.0000 H   0  0  0  0  0  0  0  0  0  0  0  0
   -0.9238   -9.2585    0.0000 C   0  0  0  0  0  0  0  0  0  0  0  0
   -2.0734   -8.2937    0.0000 C   0  0  0  0  0  0  0  0  0  0  0  0
   -1.8124   -6.8166    0.0000 H   0  0  0  0  0  0  0  0  0  0  0  0
   -3.4841   -8.8060    0.0000 C   0  0  0  0  0  0  0  0  0  0  0  0
   -4.6326   -7.8413    0.0000 H   0  0  0  0  0  0  0  0  0  0  0  0
    0.4859   -8.7458    0.0000 C   0  0  0  0  0  0  0  0  0  0  0  0
    0.7467   -7.2686    0.0000 O   0  0  0  0  0  0  0  0  0  0  0  0
    1.6347   -9.7102    0.0000 O   0  0  0  0  0  0  0  0  0  0  0  0
    3.0444   -9.1975    0.0000 C   0  0  0  0  0  0  0  0  0  0  0  0
    2.2947   -7.8983    0.0000 H   0  0  0  0  0  0  0  0  0  0  0  0
    4.1937   -8.2335    0.0000 H   0  0  0  0  0  0  0  0  0  0  0  0
    4.1933  -10.1619    0.0000 C   0  0  0  0  0  0  0  0  0  0  0  0
    4.9430  -11.4611    0.0000 H   0  0  0  0  0  0  0  0  0  0  0  0
    3.0440  -11.1258    0.0000 H   0  0  0  0  0  0  0  0  0  0  0  0
    6.5051   -9.3210    0.0000 O   0  0  0  0  0  0  0  0  0  0  0  0
    7.6539  -10.2854    0.0000 C   0  0  0  0  0  0  0  0  0  0  0  0
    8.4037  -11.5846    0.0000 H   0  0  0  0  0  0  0  0  0  0  0  0
    6.5047  -11.2494    0.0000 H   0  0  0  0  0  0  0  0  0  0  0  0
    9.0636   -9.7727    0.0000 C   0  0  0  0  0  0  0  0  0  0  0  0
    8.3139   -8.4735    0.0000 H   0  0  0  0  0  0  0  0  0  0  0  0
   10.2129   -8.8088    0.0000 H   0  0  0  0  0  0  0  0  0  0  0  0
   10.2124  -10.7371    0.0000 O   0  0  0  0  0  0  0  0  0  0  0  0
   12.5243   -9.8963    0.0000 C   0  0  0  0  0  0  0  0  0  0  0  0
   11.7746   -8.5971    0.0000 H   0  0  0  0  0  0  0  0  0  0  0  0
   13.6735   -8.9323    0.0000 H   0  0  0  0  0  0  0  0  0  0  0  0
   13.6731  -10.8607    0.0000 C   0  0  0  0  0  0  0  0  0  0  0  0
   14.4229  -12.1599    0.0000 H   0  0  0  0  0  0  0  0  0  0  0  0
   12.5239  -11.8246    0.0000 H   0  0  0  0  0  0  0  0  0  0  0  0
   15.9850  -10.0198    0.0000 O   0  0  0  0  0  0  0  0  0  0  0  0
   17.1338  -10.9842    0.0000 C   0  0  0  0  0  0  0  0  0  0  0  0
   17.8835  -12.2834    0.0000 H   0  0  0  0  0  0  0  0  0  0  0  0
   15.9845  -11.9482    0.0000 H   0  0  0  0  0  0  0  0  0  0  0  0
   18.5435  -10.4715    0.0000 C   0  0  0  0  0  0  0  0  0  0  0  0
   17.7937   -9.1723    0.0000 H   0  0  0  0  0  0  0  0  0  0  0  0
   19.6927   -9.5076    0.0000 H   0  0  0  0  0  0  0  0  0  0  0  0
   19.6923  -11.4359    0.0000 O   0  0  0  0  0  0  0  0  0  0  0  0
   22.0042  -10.5951    0.0000 C   0  0  0  0  0  0  0  0  0  0  0  0
   21.2544   -9.2959    0.0000 H   0  0  0  0  0  0  0  0  0  0  0  0
   23.1534   -9.6311    0.0000 H   0  0  0  0  0  0  0  0  0  0  0  0
   23.1530  -11.5595    0.0000 C   0  0  0  0  0  0  0  0  0  0  0  0
   23.9027  -12.8587    0.0000 H   0  0  0  0  0  0  0  0  0  0  0  0
   22.0037  -12.5234    0.0000 H   0  0  0  0  0  0  0  0  0  0  0  0
   25.4648  -10.7186    0.0000 O   0  0  0  0  0  0  0  0  0  0  0  0
   26.6137  -11.6830    0.0000 C   0  0  0  0  0  0  0  0  0  0  0  0
   27.3634  -12.9822    0.0000 H   0  0  0  0  0  0  0  0  0  0  0  0
   25.4644  -12.6470    0.0000 H   0  0  0  0  0  0  0  0  0  0  0  0
   28.0233  -11.1703    0.0000 C   0  0  0  0  0  0  0  0  0  0  0  0
   27.2736   -9.8711    0.0000 H   0  0  0  0  0  0  0  0  0  0  0  0
   29.1726  -10.2064    0.0000 H   0  0  0  0  0  0  0  0  0  0  0  0
   29.1722  -12.1347    0.0000 O   0  0  0  0  0  0  0  0  0  0  0  0
   31.4840  -11.2939    0.0000 C   0  0  0  0  0  0  0  0  0  0  0  0
   30.7343   -9.9947    0.0000 H   0  0  0  0  0  0  0  0  0  0  0  0
   32.6333  -10.3299    0.0000 H   0  0  0  0  0  0  0  0  0  0  0  0
   32.6329  -12.2583    0.0000 C   0  0  0  0  0  0  0  0  0  0  0  0
   33.3826  -13.5575    0.0000 H   0  0  0  0  0  0  0  0  0  0  0  0
   31.4836  -13.2222    0.0000 H   0  0  0  0  0  0  0  0  0  0  0  0
   34.9447  -11.4174    0.0000 O   0  0  0  0  0  0  0  0  0  0  0  0
   36.0936  -12.3818    0.0000 C   0  0  0  0  0  0  0  0  0  0  0  0
   36.8433  -13.6810    0.0000 H   0  0  0  0  0  0  0  0  0  0  0  0
   34.9443  -13.3458    0.0000 H   0  0  0  0  0  0  0  0  0  0  0  0
   37.5032  -11.8691    0.0000 C   0  0  0  0  0  0  0  0  0  0  0  0
   36.7535  -10.5699    0.0000 H   0  0  0  0  0  0  0  0  0  0  0  0
   38.6525  -10.9052    0.0000 H   0  0  0  0  0  0  0  0  0  0  0  0
   39.3874  -13.4508    0.0000 O   0  0  0  0  0  0  0  0  0  0  0  0
   40.7970  -12.9380    0.0000 C   0  0  0  0  0  0  0  0  0  0  0  0
   40.0473  -11.6388    0.0000 H   0  0  0  0  0  0  0  0  0  0  0  0
   41.9463  -11.9741    0.0000 H   0  0  0  0  0  0  0  0  0  0  0  0
   41.9459  -13.9025    0.0000 C   0  0  0  0  0  0  0  0  0  0  0  0
   42.6956  -15.2017    0.0000 H   0  0  0  0  0  0  0  0  0  0  0  0
   40.7966  -14.8664    0.0000 H   0  0  0  0  0  0  0  0  0  0  0  0
   43.3555  -13.3897    0.0000 O   0  0  0  0  0  0  0  0  0  0  0  0
   44.5044  -14.3542    0.0000 C   0  0  0  0  0  0  0  0  0  0  0  0
   44.2436  -15.8313    0.0000 H   0  0  0  0  0  0  0  0  0  0  0  0
   45.9138  -14.8675    0.0000 H   0  0  0  0  0  0  0  0  0  0  0  0
   45.2547  -13.0553    0.0000 H   0  0  0  0  0  0  0  0  0  0  0  0
   -6.6713   -9.5228    0.0000 C   0  0  0  0  0  0  0  0  0  0  0  0
   -5.5221   -8.5588    0.0000 H   0  0  0  0  0  0  0  0  0  0  0  0
   -7.4213   -8.2238    0.0000 C   0  0  0  0  0  0  0  0  0  0  0  0
   -6.0118   -7.7106    0.0000 H   0  0  0  0  0  0  0  0  0  0  0  0
   -8.9221   -8.2243    0.0000 C   0  0  0  0  0  0  0  0  0  0  0  0
   -8.6618   -6.7470    0.0000 H   0  0  0  0  0  0  0  0  0  0  0  0
   -9.6729   -9.5238    0.0000 C   0  0  0  0  0  0  0  0  0  0  0  0
  -10.8218   -8.5594    0.0000 H   0  0  0  0  0  0  0  0  0  0  0  0
   -8.9229  -10.8228    0.0000 C   0  0  0  0  0  0  0  0  0  0  0  0
  -10.3324  -11.3360    0.0000 H   0  0  0  0  0  0  0  0  0  0  0  0
   -8.6621  -12.3000    0.0000 C   0  0  0  0  0  0  0  0  0  0  0  0
   -7.2525  -12.8127    0.0000 O   0  0  0  0  0  0  0  0  0  0  0  0
   -9.8110  -13.2644    0.0000 O   0  0  0  0  0  0  0  0  0  0  0  0
  -11.2206  -12.7517    0.0000 H   0  0  0  0  0  0  0  0  0  0  0  0
   -7.4221  -10.8224    0.0000 O   0  0  0  0  0  0  0  0  0  0  0  0
  -10.8221  -10.4879    0.0000 O   0  0  0  0  0  0  0  0  0  0  0  0
  -12.2316   -9.9747    0.0000 H   0  0  0  0  0  0  0  0  0  0  0  0
  -10.3316   -7.7111    0.0000 O   0  0  0  0  0  0  0  0  0  0  0  0
  -10.5919   -6.2339    0.0000 H   0  0  0  0  0  0  0  0  0  0  0  0
   -7.6821   -6.7467    0.0000 O   0  0  0  0  0  0  0  0  0  0  0  0
   -6.5332   -5.7822    0.0000 H   0  0  0  0  0  0  0  0  0  0  0  0
  1  2  1  0  0  0  0 
  1  3  1  0  0  0  0 
  1  4  1  0  0  0  0 
  1  5  1  0  0  0  0 
  5  6  1  0  0  0  0 
  5  7  1  0  0  0  0 
  5  8  1  0  0  0  0 
  8  9  1  0  0  0  0 
  8 10  1  0  0  0  0 
  8 11  1  0  0  0  0 
 11 12  1  0  0  0  0 
 11 13  1  0  0  0  0 
 11 14  1  0  0  0  0 
 14 15  1  0  0  0  0 
 15 16  2  0  0  0  0 
 16 17  1  0  0  0  0 
 16 18  1  0  0  0  0 
 18 19  1  0  0  0  0 
 18 20  2  0  0  0  0 
 20 21  1  0  0  0  0 
 21 22  1  0  0  0  0 
 21 23  2  0  0  0  0 
 15 23  1  0  0  0  0 
 23 24  1  0  0  0  0 
 20 25  1  0  0  0  0 
 25 26  2  0  0  0  0 
 25 27  1  0  0  0  0 
 27 28  1  0  0  0  0 
 28 29  1  0  0  0  0 
 28 30  1  0  0  0  0 
 28 31  1  0  0  0  0 
 31 32  1  0  0  0  0 
 31 33  1  0  0  0  0 
 31 34  1  0  0  0  0 
 34 35  1  0  0  0  0 
 35 36  1  0  0  0  0 
 35 37  1  0  0  0  0 
 35 38  1  0  0  0  0 
 38 39  1  0  0  0  0 
 38 40  1  0  0  0  0 
 38 41  1  0  0  0  0 
 41 42  1  0  0  0  0 
 42 43  1  0  0  0  0 
 42 44  1  0  0  0  0 
 42 45  1  0  0  0  0 
 45 46  1  0  0  0  0 
 45 47  1  0  0  0  0 
 45 48  1  0  0  0  0 
 48 49  1  0  0  0  0 
 49 50  1  0  0  0  0 
 49 51  1  0  0  0  0 
 49 52  1  0  0  0  0 
 52 53  1  0  0  0  0 
 52 54  1  0  0  0  0 
 52 55  1  0  0  0  0 
 55 56  1  0  0  0  0 
 56 57  1  0  0  0  0 
 56 58  1  0  0  0  0 
 56 59  1  0  0  0  0 
 59 60  1  0  0  0  0 
 59 61  1  0  0  0  0 
 59 62  1  0  0  0  0 
 62 63  1  0  0  0  0 
 63 64  1  0  0  0  0 
 63 65  1  0  0  0  0 
 63 66  1  0  0  0  0 
 66 67  1  0  0  0  0 
 66 68  1  0  0  0  0 
 66 69  1  0  0  0  0 
 69 70  1  0  0  0  0 
 70 71  1  0  0  0  0 
 70 72  1  0  0  0  0 
 70 73  1  0  0  0  0 
 73 74  1  0  0  0  0 
 73 75  1  0  0  0  0 
 73 76  1  0  0  0  0 
 76 77  1  0  0  0  0 
 77 78  1  0  0  0  0 
 77 79  1  0  0  0  0 
 77 80  1  0  0  0  0 
 80 81  1  0  0  0  0 
 80 82  1  0  0  0  0 
 80 83  1  0  0  0  0 
 83 84  1  0  0  0  0 
 84 85  1  0  0  0  0 
 84 86  1  0  0  0  0 
 84 87  1  0  0  0  0 
 87 88  1  0  0  0  0 
 87 89  1  0  0  0  0 
 87 90  1  0  0  0  0 
 90 91  1  0  0  0  0 
 91 92  1  0  0  0  0 
 91 93  1  0  0  0  0 
 91 94  1  0  0  0  0 
 14 95  1  0  0  0  0 
 95 96  1  0  0  0  0 
 95 97  1  0  0  0  0 
 97 98  1  0  0  0  0 
 97 99  1  0  0  0  0 
 99100  1  0  0  0  0 
 99101  1  0  0  0  0 
101102  1  0  0  0  0 
101103  1  0  0  0  0 
103104  1  0  0  0  0 
103105  1  0  0  0  0 
105106  2  0  0  0  0 
105107  1  0  0  0  0 
107108  1  0  0  0  0 
103109  1  0  0  0  0 
 95109  1  0  0  0  0 
101110  1  0  0  0  0 
110111  1  0  0  0  0 
 99112  1  0  0  0  0 
112113  1  0  0  0  0 
 97114  1  0  0  0  0 
114115  1  0  0  0  0 
M  END
> <Rank>
13

> <Priority_score>
0.152

> <Reaction_type>
N-glucuronidation_(aniline_NH1-R)

> <Parent_ID>
18

> <Parent_InChI>
InChI=1S/C30H53NO11/c1-3-4-9-31-29-7-5-28(6-8-29)30(32)42-27-26-41-25-24-40-23-22-39-21-20-38-19-18-37-17-16-36-15-14-35-13-12-34-11-10-33-2/h5-8,31H,3-4,9-27H2,1-2H3

> <Parent_SMILES>
CCCCNc1ccc(C(=O)OCCOCCOCCOCCOCCOCCOCCOCCOCCOC)cc1

$$$$
Molecule 18_metabolite 14
  CDK     0516241031

 83 83  0  0  0  0  0  0  0  0999 V2000
  -34.4292    1.6318    0.0000 C   0  0  0  0  0  0  0  0  0  0  0  0
  -34.4290    3.1318    0.0000 H   0  0  0  0  0  0  0  0  0  0  0  0
  -34.9425    0.2223    0.0000 H   0  0  0  0  0  0  0  0  0  0  0  0
  -35.9064    1.8925    0.0000 H   0  0  0  0  0  0  0  0  0  0  0  0
  -33.1303    0.8816    0.0000 C   0  0  0  0  0  0  0  0  0  0  0  0
  -34.0947   -0.2673    0.0000 H   0  0  0  0  0  0  0  0  0  0  0  0
  -32.1663   -0.2676    0.0000 H   0  0  0  0  0  0  0  0  0  0  0  0
  -31.8311    1.6314    0.0000 C   0  0  0  0  0  0  0  0  0  0  0  0
  -30.8668    2.7803    0.0000 H   0  0  0  0  0  0  0  0  0  0  0  0
  -32.7951    2.7806    0.0000 H   0  0  0  0  0  0  0  0  0  0  0  0
  -30.1166    0.6411    0.0000 C   0  0  0  0  0  0  0  0  0  0  0  0
  -31.0809   -0.5078    0.0000 H   0  0  0  0  0  0  0  0  0  0  0  0
  -29.1526   -0.5081    0.0000 H   0  0  0  0  0  0  0  0  0  0  0  0
  -28.8174    1.3909    0.0000 N   0  0  0  0  0  0  0  0  0  0  0  0
  -28.8172    2.8909    0.0000 H   0  0  0  0  0  0  0  0  0  0  0  0
  -27.5185    0.6407    0.0000 C   0  0  0  0  0  0  0  0  0  0  0  0
  -26.2185    1.3907    0.0000 C   0  0  0  0  0  0  0  0  0  0  0  0
  -26.2185    2.8907    0.0000 H   0  0  0  0  0  0  0  0  0  0  0  0
  -24.9185    0.6407    0.0000 C   0  0  0  0  0  0  0  0  0  0  0  0
  -23.6196    1.3909    0.0000 H   0  0  0  0  0  0  0  0  0  0  0  0
  -24.9185   -0.8593    0.0000 C   0  0  0  0  0  0  0  0  0  0  0  0
  -26.2185   -1.6093    0.0000 C   0  0  0  0  0  0  0  0  0  0  0  0
  -26.2185   -3.1093    0.0000 H   0  0  0  0  0  0  0  0  0  0  0  0
  -27.5185   -0.8593    0.0000 C   0  0  0  0  0  0  0  0  0  0  0  0
  -28.8174   -1.6095    0.0000 H   0  0  0  0  0  0  0  0  0  0  0  0
  -23.6196   -1.6095    0.0000 C   0  0  0  0  0  0  0  0  0  0  0  0
  -23.6198   -3.1095    0.0000 O   0  0  0  0  0  0  0  0  0  0  0  0
  -22.3204   -0.8597    0.0000 O   0  0  0  0  0  0  0  0  0  0  0  0
  -21.0215   -1.6099    0.0000 C   0  0  0  0  0  0  0  0  0  0  0  0
  -21.9859   -2.7589    0.0000 H   0  0  0  0  0  0  0  0  0  0  0  0
  -20.0575   -2.7592    0.0000 H   0  0  0  0  0  0  0  0  0  0  0  0
  -19.7223   -0.8601    0.0000 C   0  0  0  0  0  0  0  0  0  0  0  0
  -18.7580    0.2888    0.0000 H   0  0  0  0  0  0  0  0  0  0  0  0
  -20.6863    0.2891    0.0000 H   0  0  0  0  0  0  0  0  0  0  0  0
  -18.0078   -1.8504    0.0000 O   0  0  0  0  0  0  0  0  0  0  0  0
  -16.7086   -1.1006    0.0000 C   0  0  0  0  0  0  0  0  0  0  0  0
  -15.7442    0.0483    0.0000 H   0  0  0  0  0  0  0  0  0  0  0  0
  -17.6726    0.0486    0.0000 H   0  0  0  0  0  0  0  0  0  0  0  0
  -15.4097   -1.8508    0.0000 C   0  0  0  0  0  0  0  0  0  0  0  0
  -16.3740   -2.9997    0.0000 H   0  0  0  0  0  0  0  0  0  0  0  0
  -14.4457   -3.0001    0.0000 H   0  0  0  0  0  0  0  0  0  0  0  0
  -14.1105   -1.1010    0.0000 O   0  0  0  0  0  0  0  0  0  0  0  0
  -12.3960   -2.0913    0.0000 C   0  0  0  0  0  0  0  0  0  0  0  0
  -13.3603   -3.2402    0.0000 H   0  0  0  0  0  0  0  0  0  0  0  0
  -11.4320   -3.2405    0.0000 H   0  0  0  0  0  0  0  0  0  0  0  0
  -11.0968   -1.3415    0.0000 C   0  0  0  0  0  0  0  0  0  0  0  0
  -10.1324   -0.1926    0.0000 H   0  0  0  0  0  0  0  0  0  0  0  0
  -12.0608   -0.1923    0.0000 H   0  0  0  0  0  0  0  0  0  0  0  0
   -9.3822   -2.3318    0.0000 O   0  0  0  0  0  0  0  0  0  0  0  0
   -8.0831   -1.5820    0.0000 C   0  0  0  0  0  0  0  0  0  0  0  0
   -7.1187   -0.4331    0.0000 H   0  0  0  0  0  0  0  0  0  0  0  0
   -9.0471   -0.4328    0.0000 H   0  0  0  0  0  0  0  0  0  0  0  0
   -6.7841   -2.3322    0.0000 C   0  0  0  0  0  0  0  0  0  0  0  0
   -7.7485   -3.4811    0.0000 H   0  0  0  0  0  0  0  0  0  0  0  0
   -5.8201   -3.4814    0.0000 H   0  0  0  0  0  0  0  0  0  0  0  0
   -5.0693   -1.3425    0.0000 O   0  0  0  0  0  0  0  0  0  0  0  0
   -3.7703   -2.0927    0.0000 C   0  0  0  0  0  0  0  0  0  0  0  0
   -4.7347   -3.2416    0.0000 H   0  0  0  0  0  0  0  0  0  0  0  0
   -2.8063   -3.2419    0.0000 H   0  0  0  0  0  0  0  0  0  0  0  0
   -2.4712   -1.3429    0.0000 C   0  0  0  0  0  0  0  0  0  0  0  0
   -1.5068   -0.1940    0.0000 H   0  0  0  0  0  0  0  0  0  0  0  0
   -3.4352   -0.1937    0.0000 H   0  0  0  0  0  0  0  0  0  0  0  0
   -1.1723   -2.0931    0.0000 O   0  0  0  0  0  0  0  0  0  0  0  0
    0.5426   -1.1034    0.0000 C   0  0  0  0  0  0  0  0  0  0  0  0
    1.5070    0.0455    0.0000 H   0  0  0  0  0  0  0  0  0  0  0  0
   -0.4214    0.0458    0.0000 H   0  0  0  0  0  0  0  0  0  0  0  0
    1.8415   -1.8536    0.0000 C   0  0  0  0  0  0  0  0  0  0  0  0
    0.8772   -3.0025    0.0000 H   0  0  0  0  0  0  0  0  0  0  0  0
    2.8055   -3.0028    0.0000 H   0  0  0  0  0  0  0  0  0  0  0  0
    3.5564   -0.8639    0.0000 O   0  0  0  0  0  0  0  0  0  0  0  0
    4.8554   -1.6141    0.0000 C   0  0  0  0  0  0  0  0  0  0  0  0
    3.8910   -2.7630    0.0000 H   0  0  0  0  0  0  0  0  0  0  0  0
    5.8193   -2.7633    0.0000 H   0  0  0  0  0  0  0  0  0  0  0  0
    6.1545   -0.8643    0.0000 C   0  0  0  0  0  0  0  0  0  0  0  0
    7.1189    0.2846    0.0000 H   0  0  0  0  0  0  0  0  0  0  0  0
    5.1905    0.2849    0.0000 H   0  0  0  0  0  0  0  0  0  0  0  0
    7.8691   -1.8546    0.0000 O   0  0  0  0  0  0  0  0  0  0  0  0
    9.1682   -1.1048    0.0000 C   0  0  0  0  0  0  0  0  0  0  0  0
   10.1326    0.0441    0.0000 H   0  0  0  0  0  0  0  0  0  0  0  0
    8.2042    0.0444    0.0000 H   0  0  0  0  0  0  0  0  0  0  0  0
   10.4672   -1.8550    0.0000 C   0  0  0  0  0  0  0  0  0  0  0  0
   11.7663   -1.1052    0.0000 H   0  0  0  0  0  0  0  0  0  0  0  0
   10.4669   -3.3550    0.0000 O   0  0  0  0  0  0  0  0  0  0  0  0
  1  2  1  0  0  0  0 
  1  3  1  0  0  0  0 
  1  4  1  0  0  0  0 
  1  5  1  0  0  0  0 
  5  6  1  0  0  0  0 
  5  7  1  0  0  0  0 
  5  8  1  0  0  0  0 
  8  9  1  0  0  0  0 
  8 10  1  0  0  0  0 
  8 11  1  0  0  0  0 
 11 12  1  0  0  0  0 
 11 13  1  0  0  0  0 
 11 14  1  0  0  0  0 
 14 15  1  0  0  0  0 
 14 16  1  0  0  0  0 
 16 17  2  0  0  0  0 
 17 18  1  0  0  0  0 
 17 19  1  0  0  0  0 
 19 20  1  0  0  0  0 
 19 21  2  0  0  0  0 
 21 22  1  0  0  0  0 
 22 23  1  0  0  0  0 
 22 24  2  0  0  0  0 
 16 24  1  0  0  0  0 
 24 25  1  0  0  0  0 
 21 26  1  0  0  0  0 
 26 27  2  0  0  0  0 
 26 28  1  0  0  0  0 
 28 29  1  0  0  0  0 
 29 30  1  0  0  0  0 
 29 31  1  0  0  0  0 
 29 32  1  0  0  0  0 
 32 33  1  0  0  0  0 
 32 34  1  0  0  0  0 
 32 35  1  0  0  0  0 
 35 36  1  0  0  0  0 
 36 37  1  0  0  0  0 
 36 38  1  0  0  0  0 
 36 39  1  0  0  0  0 
 39 40  1  0  0  0  0 
 39 41  1  0  0  0  0 
 39 42  1  0  0  0  0 
 42 43  1  0  0  0  0 
 43 44  1  0  0  0  0 
 43 45  1  0  0  0  0 
 43 46  1  0  0  0  0 
 46 47  1  0  0  0  0 
 46 48  1  0  0  0  0 
 46 49  1  0  0  0  0 
 49 50  1  0  0  0  0 
 50 51  1  0  0  0  0 
 50 52  1  0  0  0  0 
 50 53  1  0  0  0  0 
 53 54  1  0  0  0  0 
 53 55  1  0  0  0  0 
 53 56  1  0  0  0  0 
 56 57  1  0  0  0  0 
 57 58  1  0  0  0  0 
 57 59  1  0  0  0  0 
 57 60  1  0  0  0  0 
 60 61  1  0  0  0  0 
 60 62  1  0  0  0  0 
 60 63  1  0  0  0  0 
 63 64  1  0  0  0  0 
 64 65  1  0  0  0  0 
 64 66  1  0  0  0  0 
 64 67  1  0  0  0  0 
 67 68  1  0  0  0  0 
 67 69  1  0  0  0  0 
 67 70  1  0  0  0  0 
 70 71  1  0  0  0  0 
 71 72  1  0  0  0  0 
 71 73  1  0  0  0  0 
 71 74  1  0  0  0  0 
 74 75  1  0  0  0  0 
 74 76  1  0  0  0  0 
 74 77  1  0  0  0  0 
 77 78  1  0  0  0  0 
 78 79  1  0  0  0  0 
 78 80  1  0  0  0  0 
 78 81  1  0  0  0  0 
 81 82  1  0  0  0  0 
 81 83  2  0  0  0  0 
M  END
> <Rank>
14

> <Priority_score>
0.148

> <Reaction_type>
oxidative ether cleavage to one alcohol and one aldehyde/ketone

> <Parent_ID>
18

> <Parent_InChI>
InChI=1S/C30H53NO11/c1-3-4-9-31-29-7-5-28(6-8-29)30(32)42-27-26-41-25-24-40-23-22-39-21-20-38-19-18-37-17-16-36-15-14-35-13-12-34-11-10-33-2/h5-8,31H,3-4,9-27H2,1-2H3

> <Parent_SMILES>
CCCCNc1ccc(C(=O)OCCOCCOCCOCCOCCOCCOCCOCCOCCOC)cc1

$$$$
Molecule 18_metabolite 15
  CDK     0516241031

 13 12  0  0  0  0  0  0  0  0999 V2000
    6.3170   -0.3509    0.0000 C   0  0  0  0  0  0  0  0  0  0  0  0
    6.3170    1.1491    0.0000 H   0  0  0  0  0  0  0  0  0  0  0  0
    7.7942   -0.0905    0.0000 H   0  0  0  0  0  0  0  0  0  0  0  0
    6.8300   -1.7605    0.0000 H   0  0  0  0  0  0  0  0  0  0  0  0
    5.0180   -1.1009    0.0000 O   0  0  0  0  0  0  0  0  0  0  0  0
    3.7189   -0.3509    0.0000 C   0  0  0  0  0  0  0  0  0  0  0  0
    4.6831    0.7981    0.0000 H   0  0  0  0  0  0  0  0  0  0  0  0
    2.7548    0.7981    0.0000 H   0  0  0  0  0  0  0  0  0  0  0  0
    2.4199   -1.1009    0.0000 C   0  0  0  0  0  0  0  0  0  0  0  0
    1.4557   -2.2500    0.0000 H   0  0  0  0  0  0  0  0  0  0  0  0
    3.3841   -2.2500    0.0000 H   0  0  0  0  0  0  0  0  0  0  0  0
    1.1209   -0.3509    0.0000 O   0  0  0  0  0  0  0  0  0  0  0  0
   -0.1782   -1.1009    0.0000 H   0  0  0  0  0  0  0  0  0  0  0  0
  1  2  1  0  0  0  0 
  1  3  1  0  0  0  0 
  1  4  1  0  0  0  0 
  1  5  1  0  0  0  0 
  5  6  1  0  0  0  0 
  6  7  1  0  0  0  0 
  6  8  1  0  0  0  0 
  6  9  1  0  0  0  0 
  9 10  1  0  0  0  0 
  9 11  1  0  0  0  0 
  9 12  1  0  0  0  0 
 12 13  1  0  0  0  0 
M  END
> <Rank>
14

> <Priority_score>
0.148

> <Reaction_type>
O-dealkylation_(aliphatic)

> <Parent_ID>
18

> <Parent_InChI>
InChI=1S/C30H53NO11/c1-3-4-9-31-29-7-5-28(6-8-29)30(32)42-27-26-41-25-24-40-23-22-39-21-20-38-19-18-37-17-16-36-15-14-35-13-12-34-11-10-33-2/h5-8,31H,3-4,9-27H2,1-2H3

> <Parent_SMILES>
CCCCNc1ccc(C(=O)OCCOCCOCCOCCOCCOCCOCCOCCOCCOC)cc1

$$$$
Molecule 18_metabolite 16
  CDK     0516241031

 11 10  0  0  0  0  0  0  0  0999 V2000
    2.2747    0.7172    0.0000 C   0  0  0  0  0  0  0  0  0  0  0  0
    0.7747    0.7172    0.0000 H   0  0  0  0  0  0  0  0  0  0  0  0
    2.0143    2.1944    0.0000 H   0  0  0  0  0  0  0  0  0  0  0  0
    3.6843    1.2302    0.0000 H   0  0  0  0  0  0  0  0  0  0  0  0
    3.0247   -0.5818    0.0000 O   0  0  0  0  0  0  0  0  0  0  0  0
    4.5247   -0.5818    0.0000 C   0  0  0  0  0  0  0  0  0  0  0  0
    4.2643   -2.0590    0.0000 H   0  0  0  0  0  0  0  0  0  0  0  0
    5.9343   -1.0949    0.0000 H   0  0  0  0  0  0  0  0  0  0  0  0
    5.2747    0.7172    0.0000 C   0  0  0  0  0  0  0  0  0  0  0  0
    6.7747    0.7172    0.0000 H   0  0  0  0  0  0  0  0  0  0  0  0
    4.5247    2.0162    0.0000 O   0  0  0  0  0  0  0  0  0  0  0  0
  1  2  1  0  0  0  0 
  1  3  1  0  0  0  0 
  1  4  1  0  0  0  0 
  1  5  1  0  0  0  0 
  5  6  1  0  0  0  0 
  6  7  1  0  0  0  0 
  6  8  1  0  0  0  0 
  6  9  1  0  0  0  0 
  9 10  1  0  0  0  0 
  9 11  2  0  0  0  0 
M  END
> <Rank>
14

> <Priority_score>
0.148

> <Reaction_type>
oxidative ether cleavage to one alcohol and one aldehyde/ketone

> <Parent_ID>
18

> <Parent_InChI>
InChI=1S/C30H53NO11/c1-3-4-9-31-29-7-5-28(6-8-29)30(32)42-27-26-41-25-24-40-23-22-39-21-20-38-19-18-37-17-16-36-15-14-35-13-12-34-11-10-33-2/h5-8,31H,3-4,9-27H2,1-2H3

> <Parent_SMILES>
CCCCNc1ccc(C(=O)OCCOCCOCCOCCOCCOCCOCCOCCOCCOC)cc1

$$$$
Molecule 18_metabolite 17
  CDK     0516241031

 96 96  0  0  0  0  0  0  0  0999 V2000
  -41.9338    2.1151    0.0000 C   0  0  0  0  0  0  0  0  0  0  0  0
  -41.9336    3.6151    0.0000 H   0  0  0  0  0  0  0  0  0  0  0  0
  -42.4471    0.7057    0.0000 H   0  0  0  0  0  0  0  0  0  0  0  0
  -43.4110    2.3758    0.0000 H   0  0  0  0  0  0  0  0  0  0  0  0
  -40.6349    1.3649    0.0000 C   0  0  0  0  0  0  0  0  0  0  0  0
  -41.5993    0.2160    0.0000 H   0  0  0  0  0  0  0  0  0  0  0  0
  -39.6709    0.2157    0.0000 H   0  0  0  0  0  0  0  0  0  0  0  0
  -39.3358    2.1147    0.0000 C   0  0  0  0  0  0  0  0  0  0  0  0
  -38.3714    3.2636    0.0000 H   0  0  0  0  0  0  0  0  0  0  0  0
  -40.2998    3.2639    0.0000 H   0  0  0  0  0  0  0  0  0  0  0  0
  -37.6212    1.1244    0.0000 C   0  0  0  0  0  0  0  0  0  0  0  0
  -38.5856   -0.0245    0.0000 H   0  0  0  0  0  0  0  0  0  0  0  0
  -36.6572   -0.0248    0.0000 H   0  0  0  0  0  0  0  0  0  0  0  0
  -36.3220    1.8742    0.0000 N   0  0  0  0  0  0  0  0  0  0  0  0
  -36.3218    3.3742    0.0000 H   0  0  0  0  0  0  0  0  0  0  0  0
  -35.0231    1.1240    0.0000 C   0  0  0  0  0  0  0  0  0  0  0  0
  -33.7231    1.8740    0.0000 C   0  0  0  0  0  0  0  0  0  0  0  0
  -33.7231    3.3740    0.0000 H   0  0  0  0  0  0  0  0  0  0  0  0
  -32.4231    1.1240    0.0000 C   0  0  0  0  0  0  0  0  0  0  0  0
  -31.1242    1.8742    0.0000 H   0  0  0  0  0  0  0  0  0  0  0  0
  -32.4231   -0.3760    0.0000 C   0  0  0  0  0  0  0  0  0  0  0  0
  -33.7231   -1.1260    0.0000 C   0  0  0  0  0  0  0  0  0  0  0  0
  -33.7231   -2.6260    0.0000 H   0  0  0  0  0  0  0  0  0  0  0  0
  -35.0231   -0.3760    0.0000 C   0  0  0  0  0  0  0  0  0  0  0  0
  -36.3220   -1.1262    0.0000 H   0  0  0  0  0  0  0  0  0  0  0  0
  -31.1242   -1.1262    0.0000 C   0  0  0  0  0  0  0  0  0  0  0  0
  -31.1244   -2.6262    0.0000 O   0  0  0  0  0  0  0  0  0  0  0  0
  -29.8250   -0.3764    0.0000 O   0  0  0  0  0  0  0  0  0  0  0  0
  -28.5261   -1.1266    0.0000 C   0  0  0  0  0  0  0  0  0  0  0  0
  -29.4905   -2.2755    0.0000 H   0  0  0  0  0  0  0  0  0  0  0  0
  -27.5621   -2.2758    0.0000 H   0  0  0  0  0  0  0  0  0  0  0  0
  -27.2270   -0.3768    0.0000 C   0  0  0  0  0  0  0  0  0  0  0  0
  -26.2626    0.7721    0.0000 H   0  0  0  0  0  0  0  0  0  0  0  0
  -28.1910    0.7724    0.0000 H   0  0  0  0  0  0  0  0  0  0  0  0
  -25.5124   -1.3671    0.0000 O   0  0  0  0  0  0  0  0  0  0  0  0
  -24.2132   -0.6173    0.0000 C   0  0  0  0  0  0  0  0  0  0  0  0
  -23.2489    0.5316    0.0000 H   0  0  0  0  0  0  0  0  0  0  0  0
  -25.1772    0.5319    0.0000 H   0  0  0  0  0  0  0  0  0  0  0  0
  -22.9143   -1.3675    0.0000 C   0  0  0  0  0  0  0  0  0  0  0  0
  -23.8787   -2.5164    0.0000 H   0  0  0  0  0  0  0  0  0  0  0  0
  -21.9503   -2.5167    0.0000 H   0  0  0  0  0  0  0  0  0  0  0  0
  -21.6152   -0.6177    0.0000 O   0  0  0  0  0  0  0  0  0  0  0  0
  -19.9006   -1.6080    0.0000 C   0  0  0  0  0  0  0  0  0  0  0  0
  -20.8650   -2.7569    0.0000 H   0  0  0  0  0  0  0  0  0  0  0  0
  -18.9366   -2.7572    0.0000 H   0  0  0  0  0  0  0  0  0  0  0  0
  -18.6014   -0.8582    0.0000 C   0  0  0  0  0  0  0  0  0  0  0  0
  -17.6371    0.2907    0.0000 H   0  0  0  0  0  0  0  0  0  0  0  0
  -19.5654    0.2910    0.0000 H   0  0  0  0  0  0  0  0  0  0  0  0
  -16.8869   -1.8485    0.0000 O   0  0  0  0  0  0  0  0  0  0  0  0
  -15.5877   -1.0987    0.0000 C   0  0  0  0  0  0  0  0  0  0  0  0
  -14.6233    0.0502    0.0000 H   0  0  0  0  0  0  0  0  0  0  0  0
  -16.5517    0.0505    0.0000 H   0  0  0  0  0  0  0  0  0  0  0  0
  -14.2888   -1.8489    0.0000 C   0  0  0  0  0  0  0  0  0  0  0  0
  -15.2531   -2.9978    0.0000 H   0  0  0  0  0  0  0  0  0  0  0  0
  -13.3248   -2.9981    0.0000 H   0  0  0  0  0  0  0  0  0  0  0  0
  -12.9896   -1.0991    0.0000 O   0  0  0  0  0  0  0  0  0  0  0  0
  -11.2751   -2.0894    0.0000 C   0  0  0  0  0  0  0  0  0  0  0  0
  -12.2394   -3.2383    0.0000 H   0  0  0  0  0  0  0  0  0  0  0  0
  -10.3111   -3.2386    0.0000 H   0  0  0  0  0  0  0  0  0  0  0  0
   -9.9759   -1.3396    0.0000 C   0  0  0  0  0  0  0  0  0  0  0  0
   -9.0115   -0.1907    0.0000 H   0  0  0  0  0  0  0  0  0  0  0  0
  -10.9399   -0.1904    0.0000 H   0  0  0  0  0  0  0  0  0  0  0  0
   -8.2613   -2.3299    0.0000 O   0  0  0  0  0  0  0  0  0  0  0  0
   -6.9622   -1.5801    0.0000 C   0  0  0  0  0  0  0  0  0  0  0  0
   -5.9978   -0.4312    0.0000 H   0  0  0  0  0  0  0  0  0  0  0  0
   -7.9262   -0.4309    0.0000 H   0  0  0  0  0  0  0  0  0  0  0  0
   -5.6632   -2.3303    0.0000 C   0  0  0  0  0  0  0  0  0  0  0  0
   -6.6276   -3.4792    0.0000 H   0  0  0  0  0  0  0  0  0  0  0  0
   -4.6992   -3.4795    0.0000 H   0  0  0  0  0  0  0  0  0  0  0  0
   -4.3641   -1.5805    0.0000 O   0  0  0  0  0  0  0  0  0  0  0  0
   -2.6495   -2.5708    0.0000 C   0  0  0  0  0  0  0  0  0  0  0  0
   -3.6139   -3.7197    0.0000 H   0  0  0  0  0  0  0  0  0  0  0  0
   -1.6855   -3.7200    0.0000 H   0  0  0  0  0  0  0  0  0  0  0  0
   -1.3504   -1.8210    0.0000 C   0  0  0  0  0  0  0  0  0  0  0  0
   -0.3860   -0.6721    0.0000 H   0  0  0  0  0  0  0  0  0  0  0  0
   -2.3144   -0.6718    0.0000 H   0  0  0  0  0  0  0  0  0  0  0  0
    0.3642   -2.8113    0.0000 O   0  0  0  0  0  0  0  0  0  0  0  0
    1.6634   -2.0615    0.0000 C   0  0  0  0  0  0  0  0  0  0  0  0
    2.6277   -0.9125    0.0000 H   0  0  0  0  0  0  0  0  0  0  0  0
    0.6994   -0.9122    0.0000 H   0  0  0  0  0  0  0  0  0  0  0  0
    2.9623   -2.8117    0.0000 C   0  0  0  0  0  0  0  0  0  0  0  0
    1.9979   -3.9606    0.0000 H   0  0  0  0  0  0  0  0  0  0  0  0
    3.9263   -3.9609    0.0000 H   0  0  0  0  0  0  0  0  0  0  0  0
    4.2614   -2.0619    0.0000 O   0  0  0  0  0  0  0  0  0  0  0  0
    5.9760   -3.0522    0.0000 C   0  0  0  0  0  0  0  0  0  0  0  0
    5.0117   -4.2011    0.0000 H   0  0  0  0  0  0  0  0  0  0  0  0
    7.2752   -2.3024    0.0000 C   0  0  0  0  0  0  0  0  0  0  0  0
    8.2395   -1.1534    0.0000 H   0  0  0  0  0  0  0  0  0  0  0  0
    6.3112   -1.1531    0.0000 H   0  0  0  0  0  0  0  0  0  0  0  0
    8.5741   -3.0526    0.0000 O   0  0  0  0  0  0  0  0  0  0  0  0
    9.8733   -2.3028    0.0000 C   0  0  0  0  0  0  0  0  0  0  0  0
    9.8735   -0.8028    0.0000 H   0  0  0  0  0  0  0  0  0  0  0  0
   11.3505   -2.0425    0.0000 H   0  0  0  0  0  0  0  0  0  0  0  0
   10.3861   -3.7124    0.0000 H   0  0  0  0  0  0  0  0  0  0  0  0
    6.9400   -4.2014    0.0000 O   0  0  0  0  0  0  0  0  0  0  0  0
    8.4173   -3.9411    0.0000 H   0  0  0  0  0  0  0  0  0  0  0  0
  1  2  1  0  0  0  0 
  1  3  1  0  0  0  0 
  1  4  1  0  0  0  0 
  1  5  1  0  0  0  0 
  5  6  1  0  0  0  0 
  5  7  1  0  0  0  0 
  5  8  1  0  0  0  0 
  8  9  1  0  0  0  0 
  8 10  1  0  0  0  0 
  8 11  1  0  0  0  0 
 11 12  1  0  0  0  0 
 11 13  1  0  0  0  0 
 11 14  1  0  0  0  0 
 14 15  1  0  0  0  0 
 14 16  1  0  0  0  0 
 16 17  2  0  0  0  0 
 17 18  1  0  0  0  0 
 17 19  1  0  0  0  0 
 19 20  1  0  0  0  0 
 19 21  2  0  0  0  0 
 21 22  1  0  0  0  0 
 22 23  1  0  0  0  0 
 22 24  2  0  0  0  0 
 16 24  1  0  0  0  0 
 24 25  1  0  0  0  0 
 21 26  1  0  0  0  0 
 26 27  2  0  0  0  0 
 26 28  1  0  0  0  0 
 28 29  1  0  0  0  0 
 29 30  1  0  0  0  0 
 29 31  1  0  0  0  0 
 29 32  1  0  0  0  0 
 32 33  1  0  0  0  0 
 32 34  1  0  0  0  0 
 32 35  1  0  0  0  0 
 35 36  1  0  0  0  0 
 36 37  1  0  0  0  0 
 36 38  1  0  0  0  0 
 36 39  1  0  0  0  0 
 39 40  1  0  0  0  0 
 39 41  1  0  0  0  0 
 39 42  1  0  0  0  0 
 42 43  1  0  0  0  0 
 43 44  1  0  0  0  0 
 43 45  1  0  0  0  0 
 43 46  1  0  0  0  0 
 46 47  1  0  0  0  0 
 46 48  1  0  0  0  0 
 46 49  1  0  0  0  0 
 49 50  1  0  0  0  0 
 50 51  1  0  0  0  0 
 50 52  1  0  0  0  0 
 50 53  1  0  0  0  0 
 53 54  1  0  0  0  0 
 53 55  1  0  0  0  0 
 53 56  1  0  0  0  0 
 56 57  1  0  0  0  0 
 57 58  1  0  0  0  0 
 57 59  1  0  0  0  0 
 57 60  1  0  0  0  0 
 60 61  1  0  0  0  0 
 60 62  1  0  0  0  0 
 60 63  1  0  0  0  0 
 63 64  1  0  0  0  0 
 64 65  1  0  0  0  0 
 64 66  1  0  0  0  0 
 64 67  1  0  0  0  0 
 67 68  1  0  0  0  0 
 67 69  1  0  0  0  0 
 67 70  1  0  0  0  0 
 70 71  1  0  0  0  0 
 71 72  1  0  0  0  0 
 71 73  1  0  0  0  0 
 71 74  1  0  0  0  0 
 74 75  1  0  0  0  0 
 74 76  1  0  0  0  0 
 74 77  1  0  0  0  0 
 77 78  1  0  0  0  0 
 78 79  1  0  0  0  0 
 78 80  1  0  0  0  0 
 78 81  1  0  0  0  0 
 81 82  1  0  0  0  0 
 81 83  1  0  0  0  0 
 81 84  1  0  0  0  0 
 84 85  1  0  0  0  0 
 85 86  1  0  0  0  0 
 85 87  1  0  0  0  0 
 87 88  1  0  0  0  0 
 87 89  1  0  0  0  0 
 87 90  1  0  0  0  0 
 90 91  1  0  0  0  0 
 91 92  1  0  0  0  0 
 91 93  1  0  0  0  0 
 91 94  1  0  0  0  0 
 85 95  1  0  0  0  0 
 95 96  1  0  0  0  0 
M  END
> <Rank>
14

> <Priority_score>
0.148

> <Reaction_type>
aliphatic hydroxylation

> <Parent_ID>
18

> <Parent_InChI>
InChI=1S/C30H53NO11/c1-3-4-9-31-29-7-5-28(6-8-29)30(32)42-27-26-41-25-24-40-23-22-39-21-20-38-19-18-37-17-16-36-15-14-35-13-12-34-11-10-33-2/h5-8,31H,3-4,9-27H2,1-2H3

> <Parent_SMILES>
CCCCNc1ccc(C(=O)OCCOCCOCCOCCOCCOCCOCCOCCOCCOC)cc1

$$$$
Molecule 18_metabolite 18
  CDK     0516241031

 85 85  0  0  0  0  0  0  0  0999 V2000
   10.2891   -2.4614    0.0000 C   0  0  0  0  0  0  0  0  0  0  0  0
   10.2888   -3.9614    0.0000 H   0  0  0  0  0  0  0  0  0  0  0  0
   10.8023   -1.0520    0.0000 H   0  0  0  0  0  0  0  0  0  0  0  0
   11.7662   -2.7221    0.0000 H   0  0  0  0  0  0  0  0  0  0  0  0
    8.9902   -1.7112    0.0000 C   0  0  0  0  0  0  0  0  0  0  0  0
    9.9545   -0.5623    0.0000 H   0  0  0  0  0  0  0  0  0  0  0  0
    8.0262   -0.5620    0.0000 H   0  0  0  0  0  0  0  0  0  0  0  0
    7.6910   -2.4610    0.0000 C   0  0  0  0  0  0  0  0  0  0  0  0
    6.7266   -3.6099    0.0000 H   0  0  0  0  0  0  0  0  0  0  0  0
    8.6550   -3.6102    0.0000 H   0  0  0  0  0  0  0  0  0  0  0  0
    5.9764   -1.4707    0.0000 C   0  0  0  0  0  0  0  0  0  0  0  0
    6.9408   -0.3218    0.0000 H   0  0  0  0  0  0  0  0  0  0  0  0
    5.0124   -0.3215    0.0000 H   0  0  0  0  0  0  0  0  0  0  0  0
    4.6773   -2.2205    0.0000 N   0  0  0  0  0  0  0  0  0  0  0  0
    4.6770   -3.7205    0.0000 H   0  0  0  0  0  0  0  0  0  0  0  0
    3.3783   -1.4703    0.0000 C   0  0  0  0  0  0  0  0  0  0  0  0
    2.0783   -2.2203    0.0000 C   0  0  0  0  0  0  0  0  0  0  0  0
    2.0783   -3.7203    0.0000 H   0  0  0  0  0  0  0  0  0  0  0  0
    0.7783   -1.4703    0.0000 C   0  0  0  0  0  0  0  0  0  0  0  0
   -0.5206   -2.2205    0.0000 H   0  0  0  0  0  0  0  0  0  0  0  0
    0.7783    0.0297    0.0000 C   0  0  0  0  0  0  0  0  0  0  0  0
    2.0783    0.7797    0.0000 C   0  0  0  0  0  0  0  0  0  0  0  0
    2.0783    2.2797    0.0000 H   0  0  0  0  0  0  0  0  0  0  0  0
    3.3783    0.0297    0.0000 C   0  0  0  0  0  0  0  0  0  0  0  0
    4.6773    0.7799    0.0000 H   0  0  0  0  0  0  0  0  0  0  0  0
   -0.5206    0.7799    0.0000 C   0  0  0  0  0  0  0  0  0  0  0  0
   -0.5203    2.2799    0.0000 O   0  0  0  0  0  0  0  0  0  0  0  0
   -1.8197    0.0301    0.0000 O   0  0  0  0  0  0  0  0  0  0  0  0
   -3.1186    0.7803    0.0000 C   0  0  0  0  0  0  0  0  0  0  0  0
   -2.1543    1.9292    0.0000 H   0  0  0  0  0  0  0  0  0  0  0  0
   -4.0826    1.9295    0.0000 H   0  0  0  0  0  0  0  0  0  0  0  0
   -4.4178    0.0305    0.0000 C   0  0  0  0  0  0  0  0  0  0  0  0
   -5.3822   -1.1184    0.0000 H   0  0  0  0  0  0  0  0  0  0  0  0
   -3.4538   -1.1187    0.0000 H   0  0  0  0  0  0  0  0  0  0  0  0
   -6.1324    1.0208    0.0000 O   0  0  0  0  0  0  0  0  0  0  0  0
   -7.4315    0.2710    0.0000 C   0  0  0  0  0  0  0  0  0  0  0  0
   -8.3959   -0.8779    0.0000 H   0  0  0  0  0  0  0  0  0  0  0  0
   -6.4675   -0.8782    0.0000 H   0  0  0  0  0  0  0  0  0  0  0  0
   -8.7305    1.0212    0.0000 C   0  0  0  0  0  0  0  0  0  0  0  0
   -7.7661    2.1701    0.0000 H   0  0  0  0  0  0  0  0  0  0  0  0
   -9.6945    2.1704    0.0000 H   0  0  0  0  0  0  0  0  0  0  0  0
  -10.0296    0.2714    0.0000 O   0  0  0  0  0  0  0  0  0  0  0  0
  -11.7442    1.2617    0.0000 C   0  0  0  0  0  0  0  0  0  0  0  0
  -10.7798    2.4106    0.0000 H   0  0  0  0  0  0  0  0  0  0  0  0
  -12.7082    2.4109    0.0000 H   0  0  0  0  0  0  0  0  0  0  0  0
  -13.0433    0.5119    0.0000 C   0  0  0  0  0  0  0  0  0  0  0  0
  -14.0077   -0.6370    0.0000 H   0  0  0  0  0  0  0  0  0  0  0  0
  -12.0793   -0.6373    0.0000 H   0  0  0  0  0  0  0  0  0  0  0  0
  -14.7579    1.5022    0.0000 O   0  0  0  0  0  0  0  0  0  0  0  0
  -16.0571    0.7524    0.0000 C   0  0  0  0  0  0  0  0  0  0  0  0
  -17.0214   -0.3965    0.0000 H   0  0  0  0  0  0  0  0  0  0  0  0
  -15.0931   -0.3969    0.0000 H   0  0  0  0  0  0  0  0  0  0  0  0
  -17.3560    1.5026    0.0000 C   0  0  0  0  0  0  0  0  0  0  0  0
  -16.3916    2.6515    0.0000 H   0  0  0  0  0  0  0  0  0  0  0  0
  -18.3200    2.6518    0.0000 H   0  0  0  0  0  0  0  0  0  0  0  0
  -18.6551    0.7528    0.0000 O   0  0  0  0  0  0  0  0  0  0  0  0
  -20.3697    1.7431    0.0000 C   0  0  0  0  0  0  0  0  0  0  0  0
  -19.4054    2.8920    0.0000 H   0  0  0  0  0  0  0  0  0  0  0  0
  -21.3337    2.8923    0.0000 H   0  0  0  0  0  0  0  0  0  0  0  0
  -21.6689    0.9933    0.0000 C   0  0  0  0  0  0  0  0  0  0  0  0
  -22.6332   -0.1556    0.0000 H   0  0  0  0  0  0  0  0  0  0  0  0
  -20.7049   -0.1560    0.0000 H   0  0  0  0  0  0  0  0  0  0  0  0
  -23.3834    1.9835    0.0000 O   0  0  0  0  0  0  0  0  0  0  0  0
  -24.6826    1.2337    0.0000 C   0  0  0  0  0  0  0  0  0  0  0  0
  -25.6470    0.0848    0.0000 H   0  0  0  0  0  0  0  0  0  0  0  0
  -23.7186    0.0845    0.0000 H   0  0  0  0  0  0  0  0  0  0  0  0
  -25.9815    1.9840    0.0000 C   0  0  0  0  0  0  0  0  0  0  0  0
  -25.0172    3.1329    0.0000 H   0  0  0  0  0  0  0  0  0  0  0  0
  -26.9455    3.1332    0.0000 H   0  0  0  0  0  0  0  0  0  0  0  0
  -27.6964    0.9942    0.0000 O   0  0  0  0  0  0  0  0  0  0  0  0
  -28.9953    1.7444    0.0000 C   0  0  0  0  0  0  0  0  0  0  0  0
  -28.0310    2.8933    0.0000 H   0  0  0  0  0  0  0  0  0  0  0  0
  -29.9593    2.8937    0.0000 H   0  0  0  0  0  0  0  0  0  0  0  0
  -30.2945    0.9946    0.0000 C   0  0  0  0  0  0  0  0  0  0  0  0
  -31.2589   -0.1543    0.0000 H   0  0  0  0  0  0  0  0  0  0  0  0
  -29.3305   -0.1546    0.0000 H   0  0  0  0  0  0  0  0  0  0  0  0
  -32.0091    1.9849    0.0000 O   0  0  0  0  0  0  0  0  0  0  0  0
  -33.3082    1.2351    0.0000 C   0  0  0  0  0  0  0  0  0  0  0  0
  -34.2726    0.0862    0.0000 H   0  0  0  0  0  0  0  0  0  0  0  0
  -32.3442    0.0859    0.0000 H   0  0  0  0  0  0  0  0  0  0  0  0
  -34.6071    1.9853    0.0000 C   0  0  0  0  0  0  0  0  0  0  0  0
  -33.6428    3.1342    0.0000 H   0  0  0  0  0  0  0  0  0  0  0  0
  -35.5711    3.1346    0.0000 H   0  0  0  0  0  0  0  0  0  0  0  0
  -35.9063    1.2355    0.0000 O   0  0  0  0  0  0  0  0  0  0  0  0
  -37.2052    1.9858    0.0000 H   0  0  0  0  0  0  0  0  0  0  0  0
  1  2  1  0  0  0  0 
  1  3  1  0  0  0  0 
  1  4  1  0  0  0  0 
  1  5  1  0  0  0  0 
  5  6  1  0  0  0  0 
  5  7  1  0  0  0  0 
  5  8  1  0  0  0  0 
  8  9  1  0  0  0  0 
  8 10  1  0  0  0  0 
  8 11  1  0  0  0  0 
 11 12  1  0  0  0  0 
 11 13  1  0  0  0  0 
 11 14  1  0  0  0  0 
 14 15  1  0  0  0  0 
 14 16  1  0  0  0  0 
 16 17  2  0  0  0  0 
 17 18  1  0  0  0  0 
 17 19  1  0  0  0  0 
 19 20  1  0  0  0  0 
 19 21  2  0  0  0  0 
 21 22  1  0  0  0  0 
 22 23  1  0  0  0  0 
 22 24  2  0  0  0  0 
 16 24  1  0  0  0  0 
 24 25  1  0  0  0  0 
 21 26  1  0  0  0  0 
 26 27  2  0  0  0  0 
 26 28  1  0  0  0  0 
 28 29  1  0  0  0  0 
 29 30  1  0  0  0  0 
 29 31  1  0  0  0  0 
 29 32  1  0  0  0  0 
 32 33  1  0  0  0  0 
 32 34  1  0  0  0  0 
 32 35  1  0  0  0  0 
 35 36  1  0  0  0  0 
 36 37  1  0  0  0  0 
 36 38  1  0  0  0  0 
 36 39  1  0  0  0  0 
 39 40  1  0  0  0  0 
 39 41  1  0  0  0  0 
 39 42  1  0  0  0  0 
 42 43  1  0  0  0  0 
 43 44  1  0  0  0  0 
 43 45  1  0  0  0  0 
 43 46  1  0  0  0  0 
 46 47  1  0  0  0  0 
 46 48  1  0  0  0  0 
 46 49  1  0  0  0  0 
 49 50  1  0  0  0  0 
 50 51  1  0  0  0  0 
 50 52  1  0  0  0  0 
 50 53  1  0  0  0  0 
 53 54  1  0  0  0  0 
 53 55  1  0  0  0  0 
 53 56  1  0  0  0  0 
 56 57  1  0  0  0  0 
 57 58  1  0  0  0  0 
 57 59  1  0  0  0  0 
 57 60  1  0  0  0  0 
 60 61  1  0  0  0  0 
 60 62  1  0  0  0  0 
 60 63  1  0  0  0  0 
 63 64  1  0  0  0  0 
 64 65  1  0  0  0  0 
 64 66  1  0  0  0  0 
 64 67  1  0  0  0  0 
 67 68  1  0  0  0  0 
 67 69  1  0  0  0  0 
 67 70  1  0  0  0  0 
 70 71  1  0  0  0  0 
 71 72  1  0  0  0  0 
 71 73  1  0  0  0  0 
 71 74  1  0  0  0  0 
 74 75  1  0  0  0  0 
 74 76  1  0  0  0  0 
 74 77  1  0  0  0  0 
 77 78  1  0  0  0  0 
 78 79  1  0  0  0  0 
 78 80  1  0  0  0  0 
 78 81  1  0  0  0  0 
 81 82  1  0  0  0  0 
 81 83  1  0  0  0  0 
 81 84  1  0  0  0  0 
 84 85  1  0  0  0  0 
M  END
> <Rank>
14

> <Priority_score>
0.148

> <Reaction_type>
O-dealkylation_(aliphatic)

> <Parent_ID>
18

> <Parent_InChI>
InChI=1S/C30H53NO11/c1-3-4-9-31-29-7-5-28(6-8-29)30(32)42-27-26-41-25-24-40-23-22-39-21-20-38-19-18-37-17-16-36-15-14-35-13-12-34-11-10-33-2/h5-8,31H,3-4,9-27H2,1-2H3

> <Parent_SMILES>
CCCCNc1ccc(C(=O)OCCOCCOCCOCCOCCOCCOCCOCCOCCOC)cc1

$$$$
Molecule 18_metabolite 19
  CDK     0516241031

 96 96  0  0  0  0  0  0  0  0999 V2000
   10.7047   -2.3336    0.0000 C   0  0  0  0  0  0  0  0  0  0  0  0
   10.7050   -0.8336    0.0000 H   0  0  0  0  0  0  0  0  0  0  0  0
   12.1820   -2.0734    0.0000 H   0  0  0  0  0  0  0  0  0  0  0  0
   11.2175   -3.7432    0.0000 H   0  0  0  0  0  0  0  0  0  0  0  0
    9.4056   -3.0834    0.0000 O   0  0  0  0  0  0  0  0  0  0  0  0
    8.1066   -2.3332    0.0000 C   0  0  0  0  0  0  0  0  0  0  0  0
    9.0710   -1.1843    0.0000 H   0  0  0  0  0  0  0  0  0  0  0  0
    7.1426   -1.1840    0.0000 H   0  0  0  0  0  0  0  0  0  0  0  0
    6.8075   -3.0830    0.0000 C   0  0  0  0  0  0  0  0  0  0  0  0
    5.8431   -4.2319    0.0000 H   0  0  0  0  0  0  0  0  0  0  0  0
    7.7715   -4.2322    0.0000 H   0  0  0  0  0  0  0  0  0  0  0  0
    5.5086   -2.3328    0.0000 O   0  0  0  0  0  0  0  0  0  0  0  0
    3.7937   -3.3225    0.0000 C   0  0  0  0  0  0  0  0  0  0  0  0
    2.8293   -4.4714    0.0000 H   0  0  0  0  0  0  0  0  0  0  0  0
    4.7577   -4.4717    0.0000 H   0  0  0  0  0  0  0  0  0  0  0  0
    2.4948   -2.5723    0.0000 C   0  0  0  0  0  0  0  0  0  0  0  0
    3.4591   -1.4234    0.0000 H   0  0  0  0  0  0  0  0  0  0  0  0
    1.5308   -1.4231    0.0000 H   0  0  0  0  0  0  0  0  0  0  0  0
    1.1956   -3.3221    0.0000 O   0  0  0  0  0  0  0  0  0  0  0  0
   -0.5190   -2.3318    0.0000 C   0  0  0  0  0  0  0  0  0  0  0  0
    0.4454   -1.1829    0.0000 H   0  0  0  0  0  0  0  0  0  0  0  0
   -1.4830   -1.1826    0.0000 H   0  0  0  0  0  0  0  0  0  0  0  0
   -1.8181   -3.0816    0.0000 C   0  0  0  0  0  0  0  0  0  0  0  0
   -2.7825   -4.2305    0.0000 H   0  0  0  0  0  0  0  0  0  0  0  0
   -0.8541   -4.2308    0.0000 H   0  0  0  0  0  0  0  0  0  0  0  0
   -3.1170   -2.3314    0.0000 O   0  0  0  0  0  0  0  0  0  0  0  0
   -4.8319   -3.3211    0.0000 C   0  0  0  0  0  0  0  0  0  0  0  0
   -5.7963   -4.4700    0.0000 H   0  0  0  0  0  0  0  0  0  0  0  0
   -3.8679   -4.4703    0.0000 H   0  0  0  0  0  0  0  0  0  0  0  0
   -6.1309   -2.5709    0.0000 C   0  0  0  0  0  0  0  0  0  0  0  0
   -5.1665   -1.4220    0.0000 H   0  0  0  0  0  0  0  0  0  0  0  0
   -7.0949   -1.4217    0.0000 H   0  0  0  0  0  0  0  0  0  0  0  0
   -7.4300   -3.3207    0.0000 O   0  0  0  0  0  0  0  0  0  0  0  0
   -9.1446   -2.3304    0.0000 C   0  0  0  0  0  0  0  0  0  0  0  0
   -8.1802   -1.1815    0.0000 H   0  0  0  0  0  0  0  0  0  0  0  0
  -10.1086   -1.1812    0.0000 H   0  0  0  0  0  0  0  0  0  0  0  0
  -10.4437   -3.0802    0.0000 C   0  0  0  0  0  0  0  0  0  0  0  0
  -11.4081   -4.2291    0.0000 H   0  0  0  0  0  0  0  0  0  0  0  0
   -9.4797   -4.2294    0.0000 H   0  0  0  0  0  0  0  0  0  0  0  0
  -12.1583   -2.0899    0.0000 O   0  0  0  0  0  0  0  0  0  0  0  0
  -13.4575   -2.8397    0.0000 C   0  0  0  0  0  0  0  0  0  0  0  0
  -14.4218   -3.9886    0.0000 H   0  0  0  0  0  0  0  0  0  0  0  0
  -12.4935   -3.9890    0.0000 H   0  0  0  0  0  0  0  0  0  0  0  0
  -14.7564   -2.0895    0.0000 C   0  0  0  0  0  0  0  0  0  0  0  0
  -13.7920   -0.9406    0.0000 H   0  0  0  0  0  0  0  0  0  0  0  0
  -15.7204   -0.9403    0.0000 H   0  0  0  0  0  0  0  0  0  0  0  0
  -16.0555   -2.8393    0.0000 O   0  0  0  0  0  0  0  0  0  0  0  0
  -17.7701   -1.8490    0.0000 C   0  0  0  0  0  0  0  0  0  0  0  0
  -16.8058   -0.7001    0.0000 H   0  0  0  0  0  0  0  0  0  0  0  0
  -18.7341   -0.6998    0.0000 H   0  0  0  0  0  0  0  0  0  0  0  0
  -19.0693   -2.5988    0.0000 C   0  0  0  0  0  0  0  0  0  0  0  0
  -20.0336   -3.7477    0.0000 H   0  0  0  0  0  0  0  0  0  0  0  0
  -18.1053   -3.7481    0.0000 H   0  0  0  0  0  0  0  0  0  0  0  0
  -20.7839   -1.6086    0.0000 O   0  0  0  0  0  0  0  0  0  0  0  0
  -22.0830   -2.3583    0.0000 C   0  0  0  0  0  0  0  0  0  0  0  0
  -23.0474   -3.5073    0.0000 H   0  0  0  0  0  0  0  0  0  0  0  0
  -21.1190   -3.5076    0.0000 H   0  0  0  0  0  0  0  0  0  0  0  0
  -23.3819   -1.6081    0.0000 C   0  0  0  0  0  0  0  0  0  0  0  0
  -22.4176   -0.4592    0.0000 H   0  0  0  0  0  0  0  0  0  0  0  0
  -24.3459   -0.4589    0.0000 H   0  0  0  0  0  0  0  0  0  0  0  0
  -24.6811   -2.3579    0.0000 O   0  0  0  0  0  0  0  0  0  0  0  0
  -26.3957   -1.3677    0.0000 C   0  0  0  0  0  0  0  0  0  0  0  0
  -25.4313   -0.2187    0.0000 H   0  0  0  0  0  0  0  0  0  0  0  0
  -27.3597   -0.2184    0.0000 H   0  0  0  0  0  0  0  0  0  0  0  0
  -27.6948   -2.1174    0.0000 C   0  0  0  0  0  0  0  0  0  0  0  0
  -28.6592   -3.2664    0.0000 H   0  0  0  0  0  0  0  0  0  0  0  0
  -26.7308   -3.2667    0.0000 H   0  0  0  0  0  0  0  0  0  0  0  0
  -28.9937   -1.3672    0.0000 O   0  0  0  0  0  0  0  0  0  0  0  0
  -30.2929   -2.1170    0.0000 C   0  0  0  0  0  0  0  0  0  0  0  0
  -30.2931   -3.6170    0.0000 O   0  0  0  0  0  0  0  0  0  0  0  0
  -31.5918   -1.3668    0.0000 C   0  0  0  0  0  0  0  0  0  0  0  0
  -31.5918    0.1332    0.0000 C   0  0  0  0  0  0  0  0  0  0  0  0
  -30.2929    0.8834    0.0000 H   0  0  0  0  0  0  0  0  0  0  0  0
  -32.8918    0.8832    0.0000 C   0  0  0  0  0  0  0  0  0  0  0  0
  -32.8918    2.3832    0.0000 H   0  0  0  0  0  0  0  0  0  0  0  0
  -34.1918    0.1332    0.0000 C   0  0  0  0  0  0  0  0  0  0  0  0
  -34.1918   -1.3668    0.0000 C   0  0  0  0  0  0  0  0  0  0  0  0
  -35.4907   -2.1170    0.0000 H   0  0  0  0  0  0  0  0  0  0  0  0
  -32.8918   -2.1168    0.0000 C   0  0  0  0  0  0  0  0  0  0  0  0
  -32.8918   -3.6168    0.0000 H   0  0  0  0  0  0  0  0  0  0  0  0
  -35.4907    0.8834    0.0000 N   0  0  0  0  0  0  0  0  0  0  0  0
  -35.4905    2.3834    0.0000 H   0  0  0  0  0  0  0  0  0  0  0  0
  -36.7899    0.1336    0.0000 C   0  0  0  0  0  0  0  0  0  0  0  0
  -37.7542   -1.0153    0.0000 H   0  0  0  0  0  0  0  0  0  0  0  0
  -35.8259   -1.0156    0.0000 H   0  0  0  0  0  0  0  0  0  0  0  0
  -38.5045    1.1239    0.0000 C   0  0  0  0  0  0  0  0  0  0  0  0
  -37.5401    2.2728    0.0000 H   0  0  0  0  0  0  0  0  0  0  0  0
  -39.4685    2.2731    0.0000 H   0  0  0  0  0  0  0  0  0  0  0  0
  -39.8036    0.3741    0.0000 C   0  0  0  0  0  0  0  0  0  0  0  0
  -40.7680   -0.7748    0.0000 H   0  0  0  0  0  0  0  0  0  0  0  0
  -38.8396   -0.7751    0.0000 H   0  0  0  0  0  0  0  0  0  0  0  0
  -41.1025    1.1243    0.0000 C   0  0  0  0  0  0  0  0  0  0  0  0
  -41.6158   -0.2852    0.0000 H   0  0  0  0  0  0  0  0  0  0  0  0
  -42.5797    1.3850    0.0000 H   0  0  0  0  0  0  0  0  0  0  0  0
  -41.1023    2.6243    0.0000 O   0  0  0  0  0  0  0  0  0  0  0  0
  -42.4012    3.3745    0.0000 H   0  0  0  0  0  0  0  0  0  0  0  0
  1  2  1  0  0  0  0 
  1  3  1  0  0  0  0 
  1  4  1  0  0  0  0 
  1  5  1  0  0  0  0 
  5  6  1  0  0  0  0 
  6  7  1  0  0  0  0 
  6  8  1  0  0  0  0 
  6  9  1  0  0  0  0 
  9 10  1  0  0  0  0 
  9 11  1  0  0  0  0 
  9 12  1  0  0  0  0 
 12 13  1  0  0  0  0 
 13 14  1  0  0  0  0 
 13 15  1  0  0  0  0 
 13 16  1  0  0  0  0 
 16 17  1  0  0  0  0 
 16 18  1  0  0  0  0 
 16 19  1  0  0  0  0 
 19 20  1  0  0  0  0 
 20 21  1  0  0  0  0 
 20 22  1  0  0  0  0 
 20 23  1  0  0  0  0 
 23 24  1  0  0  0  0 
 23 25  1  0  0  0  0 
 23 26  1  0  0  0  0 
 26 27  1  0  0  0  0 
 27 28  1  0  0  0  0 
 27 29  1  0  0  0  0 
 27 30  1  0  0  0  0 
 30 31  1  0  0  0  0 
 30 32  1  0  0  0  0 
 30 33  1  0  0  0  0 
 33 34  1  0  0  0  0 
 34 35  1  0  0  0  0 
 34 36  1  0  0  0  0 
 34 37  1  0  0  0  0 
 37 38  1  0  0  0  0 
 37 39  1  0  0  0  0 
 37 40  1  0  0  0  0 
 40 41  1  0  0  0  0 
 41 42  1  0  0  0  0 
 41 43  1  0  0  0  0 
 41 44  1  0  0  0  0 
 44 45  1  0  0  0  0 
 44 46  1  0  0  0  0 
 44 47  1  0  0  0  0 
 47 48  1  0  0  0  0 
 48 49  1  0  0  0  0 
 48 50  1  0  0  0  0 
 48 51  1  0  0  0  0 
 51 52  1  0  0  0  0 
 51 53  1  0  0  0  0 
 51 54  1  0  0  0  0 
 54 55  1  0  0  0  0 
 55 56  1  0  0  0  0 
 55 57  1  0  0  0  0 
 55 58  1  0  0  0  0 
 58 59  1  0  0  0  0 
 58 60  1  0  0  0  0 
 58 61  1  0  0  0  0 
 61 62  1  0  0  0  0 
 62 63  1  0  0  0  0 
 62 64  1  0  0  0  0 
 62 65  1  0  0  0  0 
 65 66  1  0  0  0  0 
 65 67  1  0  0  0  0 
 65 68  1  0  0  0  0 
 68 69  1  0  0  0  0 
 69 70  2  0  0  0  0 
 69 71  1  0  0  0  0 
 71 72  2  0  0  0  0 
 72 73  1  0  0  0  0 
 72 74  1  0  0  0  0 
 74 75  1  0  0  0  0 
 74 76  2  0  0  0  0 
 76 77  1  0  0  0  0 
 77 78  1  0  0  0  0 
 77 79  2  0  0  0  0 
 71 79  1  0  0  0  0 
 79 80  1  0  0  0  0 
 76 81  1  0  0  0  0 
 81 82  1  0  0  0  0 
 81 83  1  0  0  0  0 
 83 84  1  0  0  0  0 
 83 85  1  0  0  0  0 
 83 86  1  0  0  0  0 
 86 87  1  0  0  0  0 
 86 88  1  0  0  0  0 
 86 89  1  0  0  0  0 
 89 90  1  0  0  0  0 
 89 91  1  0  0  0  0 
 89 92  1  0  0  0  0 
 92 93  1  0  0  0  0 
 92 94  1  0  0  0  0 
 92 95  1  0  0  0  0 
 95 96  1  0  0  0  0 
M  END
> <Rank>
19

> <Priority_score>
0.14720337197049527

> <Reaction_type>
aliphatic_hydroxylation_(primary_carbon_next_to_sec_carbon)

> <Parent_ID>
18

> <Parent_InChI>
InChI=1S/C30H53NO11/c1-3-4-9-31-29-7-5-28(6-8-29)30(32)42-27-26-41-25-24-40-23-22-39-21-20-38-19-18-37-17-16-36-15-14-35-13-12-34-11-10-33-2/h5-8,31H,3-4,9-27H2,1-2H3

> <Parent_SMILES>
CCCCNc1ccc(C(=O)OCCOCCOCCOCCOCCOCCOCCOCCOCCOC)cc1

$$$$
Molecule 18_metabolite 20
  CDK     0516241031

 95 95  0  0  0  0  0  0  0  0999 V2000
  -41.1025    1.2364    0.0000 C   0  0  0  0  0  0  0  0  0  0  0  0
  -41.1027   -0.2636    0.0000 H   0  0  0  0  0  0  0  0  0  0  0  0
  -42.5797    0.9761    0.0000 H   0  0  0  0  0  0  0  0  0  0  0  0
  -41.6153    2.6460    0.0000 H   0  0  0  0  0  0  0  0  0  0  0  0
  -39.8033    1.9862    0.0000 O   0  0  0  0  0  0  0  0  0  0  0  0
  -38.5044    1.2360    0.0000 C   0  0  0  0  0  0  0  0  0  0  0  0
  -39.4687    0.0870    0.0000 H   0  0  0  0  0  0  0  0  0  0  0  0
  -37.5404    0.0867    0.0000 H   0  0  0  0  0  0  0  0  0  0  0  0
  -37.2052    1.9858    0.0000 C   0  0  0  0  0  0  0  0  0  0  0  0
  -36.2408    3.1347    0.0000 H   0  0  0  0  0  0  0  0  0  0  0  0
  -38.1692    3.1350    0.0000 H   0  0  0  0  0  0  0  0  0  0  0  0
  -35.9063    1.2355    0.0000 O   0  0  0  0  0  0  0  0  0  0  0  0
  -34.1914    2.2253    0.0000 C   0  0  0  0  0  0  0  0  0  0  0  0
  -33.2270    3.3742    0.0000 H   0  0  0  0  0  0  0  0  0  0  0  0
  -35.1554    3.3745    0.0000 H   0  0  0  0  0  0  0  0  0  0  0  0
  -32.8925    1.4751    0.0000 C   0  0  0  0  0  0  0  0  0  0  0  0
  -33.8569    0.3261    0.0000 H   0  0  0  0  0  0  0  0  0  0  0  0
  -31.9285    0.3258    0.0000 H   0  0  0  0  0  0  0  0  0  0  0  0
  -31.5933    2.2249    0.0000 O   0  0  0  0  0  0  0  0  0  0  0  0
  -29.8788    1.2346    0.0000 C   0  0  0  0  0  0  0  0  0  0  0  0
  -30.8431    0.0857    0.0000 H   0  0  0  0  0  0  0  0  0  0  0  0
  -28.9148    0.0854    0.0000 H   0  0  0  0  0  0  0  0  0  0  0  0
  -28.5796    1.9844    0.0000 C   0  0  0  0  0  0  0  0  0  0  0  0
  -27.6152    3.1333    0.0000 H   0  0  0  0  0  0  0  0  0  0  0  0
  -29.5436    3.1336    0.0000 H   0  0  0  0  0  0  0  0  0  0  0  0
  -27.2807    1.2342    0.0000 O   0  0  0  0  0  0  0  0  0  0  0  0
  -25.5658    2.2239    0.0000 C   0  0  0  0  0  0  0  0  0  0  0  0
  -24.6014    3.3728    0.0000 H   0  0  0  0  0  0  0  0  0  0  0  0
  -26.5298    3.3731    0.0000 H   0  0  0  0  0  0  0  0  0  0  0  0
  -24.2669    1.4737    0.0000 C   0  0  0  0  0  0  0  0  0  0  0  0
  -25.2312    0.3248    0.0000 H   0  0  0  0  0  0  0  0  0  0  0  0
  -23.3029    0.3245    0.0000 H   0  0  0  0  0  0  0  0  0  0  0  0
  -22.9677    2.2235    0.0000 O   0  0  0  0  0  0  0  0  0  0  0  0
  -21.2531    1.2332    0.0000 C   0  0  0  0  0  0  0  0  0  0  0  0
  -22.2175    0.0843    0.0000 H   0  0  0  0  0  0  0  0  0  0  0  0
  -20.2892    0.0840    0.0000 H   0  0  0  0  0  0  0  0  0  0  0  0
  -19.9540    1.9830    0.0000 C   0  0  0  0  0  0  0  0  0  0  0  0
  -18.9896    3.1319    0.0000 H   0  0  0  0  0  0  0  0  0  0  0  0
  -20.9180    3.1322    0.0000 H   0  0  0  0  0  0  0  0  0  0  0  0
  -18.2394    0.9927    0.0000 O   0  0  0  0  0  0  0  0  0  0  0  0
  -16.9403    1.7425    0.0000 C   0  0  0  0  0  0  0  0  0  0  0  0
  -15.9759    2.8914    0.0000 H   0  0  0  0  0  0  0  0  0  0  0  0
  -17.9043    2.8917    0.0000 H   0  0  0  0  0  0  0  0  0  0  0  0
  -15.6413    0.9923    0.0000 C   0  0  0  0  0  0  0  0  0  0  0  0
  -16.6057   -0.1566    0.0000 H   0  0  0  0  0  0  0  0  0  0  0  0
  -14.6773   -0.1569    0.0000 H   0  0  0  0  0  0  0  0  0  0  0  0
  -14.3422    1.7421    0.0000 O   0  0  0  0  0  0  0  0  0  0  0  0
  -12.6276    0.7518    0.0000 C   0  0  0  0  0  0  0  0  0  0  0  0
  -13.5920   -0.3971    0.0000 H   0  0  0  0  0  0  0  0  0  0  0  0
  -11.6636   -0.3974    0.0000 H   0  0  0  0  0  0  0  0  0  0  0  0
  -11.3285    1.5016    0.0000 C   0  0  0  0  0  0  0  0  0  0  0  0
  -10.3641    2.6505    0.0000 H   0  0  0  0  0  0  0  0  0  0  0  0
  -12.2925    2.6508    0.0000 H   0  0  0  0  0  0  0  0  0  0  0  0
   -9.6139    0.5113    0.0000 O   0  0  0  0  0  0  0  0  0  0  0  0
   -8.3147    1.2611    0.0000 C   0  0  0  0  0  0  0  0  0  0  0  0
   -7.3504    2.4100    0.0000 H   0  0  0  0  0  0  0  0  0  0  0  0
   -9.2787    2.4103    0.0000 H   0  0  0  0  0  0  0  0  0  0  0  0
   -7.0158    0.5109    0.0000 C   0  0  0  0  0  0  0  0  0  0  0  0
   -7.9802   -0.6380    0.0000 H   0  0  0  0  0  0  0  0  0  0  0  0
   -6.0518   -0.6383    0.0000 H   0  0  0  0  0  0  0  0  0  0  0  0
   -5.7166    1.2607    0.0000 O   0  0  0  0  0  0  0  0  0  0  0  0
   -4.0021    0.2704    0.0000 C   0  0  0  0  0  0  0  0  0  0  0  0
   -4.9664   -0.8785    0.0000 H   0  0  0  0  0  0  0  0  0  0  0  0
   -3.0381   -0.8788    0.0000 H   0  0  0  0  0  0  0  0  0  0  0  0
   -2.7029    1.0202    0.0000 C   0  0  0  0  0  0  0  0  0  0  0  0
   -1.7386    2.1691    0.0000 H   0  0  0  0  0  0  0  0  0  0  0  0
   -3.6669    2.1694    0.0000 H   0  0  0  0  0  0  0  0  0  0  0  0
   -1.4040    0.2700    0.0000 O   0  0  0  0  0  0  0  0  0  0  0  0
   -0.1048    1.0198    0.0000 C   0  0  0  0  0  0  0  0  0  0  0  0
   -0.1046    2.5198    0.0000 O   0  0  0  0  0  0  0  0  0  0  0  0
    1.1941    0.2696    0.0000 C   0  0  0  0  0  0  0  0  0  0  0  0
    1.1941   -1.2304    0.0000 C   0  0  0  0  0  0  0  0  0  0  0  0
   -0.1048   -1.9806    0.0000 H   0  0  0  0  0  0  0  0  0  0  0  0
    2.4941   -1.9804    0.0000 C   0  0  0  0  0  0  0  0  0  0  0  0
    2.4941   -3.4804    0.0000 H   0  0  0  0  0  0  0  0  0  0  0  0
    3.7941   -1.2304    0.0000 C   0  0  0  0  0  0  0  0  0  0  0  0
    3.7941    0.2696    0.0000 C   0  0  0  0  0  0  0  0  0  0  0  0
    5.0930    1.0198    0.0000 H   0  0  0  0  0  0  0  0  0  0  0  0
    2.4941    1.0196    0.0000 C   0  0  0  0  0  0  0  0  0  0  0  0
    2.4941    2.5196    0.0000 H   0  0  0  0  0  0  0  0  0  0  0  0
    5.0930   -1.9806    0.0000 N   0  0  0  0  0  0  0  0  0  0  0  0
    5.0928   -3.4806    0.0000 H   0  0  0  0  0  0  0  0  0  0  0  0
    6.3922   -1.2308    0.0000 C   0  0  0  0  0  0  0  0  0  0  0  0
    7.3565   -0.0819    0.0000 H   0  0  0  0  0  0  0  0  0  0  0  0
    5.4282   -0.0816    0.0000 H   0  0  0  0  0  0  0  0  0  0  0  0
    8.1067   -2.2211    0.0000 C   0  0  0  0  0  0  0  0  0  0  0  0
    7.1424   -3.3700    0.0000 H   0  0  0  0  0  0  0  0  0  0  0  0
    9.0707   -3.3703    0.0000 H   0  0  0  0  0  0  0  0  0  0  0  0
    9.4059   -1.4713    0.0000 C   0  0  0  0  0  0  0  0  0  0  0  0
   10.3702   -0.3224    0.0000 H   0  0  0  0  0  0  0  0  0  0  0  0
    8.4419   -0.3221    0.0000 H   0  0  0  0  0  0  0  0  0  0  0  0
   10.7048   -2.2215    0.0000 C   0  0  0  0  0  0  0  0  0  0  0  0
   10.7046   -3.7215    0.0000 O   0  0  0  0  0  0  0  0  0  0  0  0
   12.0040   -1.4717    0.0000 O   0  0  0  0  0  0  0  0  0  0  0  0
   13.3029   -2.2219    0.0000 H   0  0  0  0  0  0  0  0  0  0  0  0
  1  2  1  0  0  0  0 
  1  3  1  0  0  0  0 
  1  4  1  0  0  0  0 
  1  5  1  0  0  0  0 
  5  6  1  0  0  0  0 
  6  7  1  0  0  0  0 
  6  8  1  0  0  0  0 
  6  9  1  0  0  0  0 
  9 10  1  0  0  0  0 
  9 11  1  0  0  0  0 
  9 12  1  0  0  0  0 
 12 13  1  0  0  0  0 
 13 14  1  0  0  0  0 
 13 15  1  0  0  0  0 
 13 16  1  0  0  0  0 
 16 17  1  0  0  0  0 
 16 18  1  0  0  0  0 
 16 19  1  0  0  0  0 
 19 20  1  0  0  0  0 
 20 21  1  0  0  0  0 
 20 22  1  0  0  0  0 
 20 23  1  0  0  0  0 
 23 24  1  0  0  0  0 
 23 25  1  0  0  0  0 
 23 26  1  0  0  0  0 
 26 27  1  0  0  0  0 
 27 28  1  0  0  0  0 
 27 29  1  0  0  0  0 
 27 30  1  0  0  0  0 
 30 31  1  0  0  0  0 
 30 32  1  0  0  0  0 
 30 33  1  0  0  0  0 
 33 34  1  0  0  0  0 
 34 35  1  0  0  0  0 
 34 36  1  0  0  0  0 
 34 37  1  0  0  0  0 
 37 38  1  0  0  0  0 
 37 39  1  0  0  0  0 
 37 40  1  0  0  0  0 
 40 41  1  0  0  0  0 
 41 42  1  0  0  0  0 
 41 43  1  0  0  0  0 
 41 44  1  0  0  0  0 
 44 45  1  0  0  0  0 
 44 46  1  0  0  0  0 
 44 47  1  0  0  0  0 
 47 48  1  0  0  0  0 
 48 49  1  0  0  0  0 
 48 50  1  0  0  0  0 
 48 51  1  0  0  0  0 
 51 52  1  0  0  0  0 
 51 53  1  0  0  0  0 
 51 54  1  0  0  0  0 
 54 55  1  0  0  0  0 
 55 56  1  0  0  0  0 
 55 57  1  0  0  0  0 
 55 58  1  0  0  0  0 
 58 59  1  0  0  0  0 
 58 60  1  0  0  0  0 
 58 61  1  0  0  0  0 
 61 62  1  0  0  0  0 
 62 63  1  0  0  0  0 
 62 64  1  0  0  0  0 
 62 65  1  0  0  0  0 
 65 66  1  0  0  0  0 
 65 67  1  0  0  0  0 
 65 68  1  0  0  0  0 
 68 69  1  0  0  0  0 
 69 70  2  0  0  0  0 
 69 71  1  0  0  0  0 
 71 72  2  0  0  0  0 
 72 73  1  0  0  0  0 
 72 74  1  0  0  0  0 
 74 75  1  0  0  0  0 
 74 76  2  0  0  0  0 
 76 77  1  0  0  0  0 
 77 78  1  0  0  0  0 
 77 79  2  0  0  0  0 
 71 79  1  0  0  0  0 
 79 80  1  0  0  0  0 
 76 81  1  0  0  0  0 
 81 82  1  0  0  0  0 
 81 83  1  0  0  0  0 
 83 84  1  0  0  0  0 
 83 85  1  0  0  0  0 
 83 86  1  0  0  0  0 
 86 87  1  0  0  0  0 
 86 88  1  0  0  0  0 
 86 89  1  0  0  0  0 
 89 90  1  0  0  0  0 
 89 91  1  0  0  0  0 
 89 92  1  0  0  0  0 
 92 93  2  0  0  0  0 
 92 94  1  0  0  0  0 
 94 95  1  0  0  0  0 
M  END
> <Rank>
19

> <Priority_score>
0.14720337197049527

> <Reaction_type>
carboxylation_(primary_carbon_next_to_sec_carbon)

> <Parent_ID>
18

> <Parent_InChI>
InChI=1S/C30H53NO11/c1-3-4-9-31-29-7-5-28(6-8-29)30(32)42-27-26-41-25-24-40-23-22-39-21-20-38-19-18-37-17-16-36-15-14-35-13-12-34-11-10-33-2/h5-8,31H,3-4,9-27H2,1-2H3

> <Parent_SMILES>
CCCCNc1ccc(C(=O)OCCOCCOCCOCCOCCOCCOCCOCCOCCOC)cc1

$$$$
Molecule 18_metabolite 21
  CDK     0516241031

 96 96  0  0  0  0  0  0  0  0999 V2000
  -41.5183    2.1122    0.0000 C   0  0  0  0  0  0  0  0  0  0  0  0
  -41.5180    3.6122    0.0000 H   0  0  0  0  0  0  0  0  0  0  0  0
  -42.0315    0.7028    0.0000 H   0  0  0  0  0  0  0  0  0  0  0  0
  -42.9954    2.3729    0.0000 H   0  0  0  0  0  0  0  0  0  0  0  0
  -40.2193    1.3620    0.0000 C   0  0  0  0  0  0  0  0  0  0  0  0
  -41.1837    0.2131    0.0000 H   0  0  0  0  0  0  0  0  0  0  0  0
  -38.9202    2.1118    0.0000 C   0  0  0  0  0  0  0  0  0  0  0  0
  -37.9558    3.2607    0.0000 H   0  0  0  0  0  0  0  0  0  0  0  0
  -39.8842    3.2610    0.0000 H   0  0  0  0  0  0  0  0  0  0  0  0
  -37.2056    1.1215    0.0000 C   0  0  0  0  0  0  0  0  0  0  0  0
  -38.1700   -0.0274    0.0000 H   0  0  0  0  0  0  0  0  0  0  0  0
  -36.2416   -0.0277    0.0000 H   0  0  0  0  0  0  0  0  0  0  0  0
  -35.9065    1.8713    0.0000 N   0  0  0  0  0  0  0  0  0  0  0  0
  -35.9062    3.3713    0.0000 H   0  0  0  0  0  0  0  0  0  0  0  0
  -34.6075    1.1211    0.0000 C   0  0  0  0  0  0  0  0  0  0  0  0
  -33.3075    1.8711    0.0000 C   0  0  0  0  0  0  0  0  0  0  0  0
  -33.3075    3.3711    0.0000 H   0  0  0  0  0  0  0  0  0  0  0  0
  -32.0075    1.1211    0.0000 C   0  0  0  0  0  0  0  0  0  0  0  0
  -30.7086    1.8713    0.0000 H   0  0  0  0  0  0  0  0  0  0  0  0
  -32.0075   -0.3789    0.0000 C   0  0  0  0  0  0  0  0  0  0  0  0
  -33.3075   -1.1289    0.0000 C   0  0  0  0  0  0  0  0  0  0  0  0
  -33.3075   -2.6289    0.0000 H   0  0  0  0  0  0  0  0  0  0  0  0
  -34.6075   -0.3789    0.0000 C   0  0  0  0  0  0  0  0  0  0  0  0
  -35.9065   -1.1291    0.0000 H   0  0  0  0  0  0  0  0  0  0  0  0
  -30.7086   -1.1291    0.0000 C   0  0  0  0  0  0  0  0  0  0  0  0
  -30.7089   -2.6291    0.0000 O   0  0  0  0  0  0  0  0  0  0  0  0
  -29.4095   -0.3793    0.0000 O   0  0  0  0  0  0  0  0  0  0  0  0
  -28.1105   -1.1295    0.0000 C   0  0  0  0  0  0  0  0  0  0  0  0
  -29.0749   -2.2784    0.0000 H   0  0  0  0  0  0  0  0  0  0  0  0
  -27.1465   -2.2787    0.0000 H   0  0  0  0  0  0  0  0  0  0  0  0
  -26.8114   -0.3797    0.0000 C   0  0  0  0  0  0  0  0  0  0  0  0
  -25.8470    0.7692    0.0000 H   0  0  0  0  0  0  0  0  0  0  0  0
  -27.7754    0.7695    0.0000 H   0  0  0  0  0  0  0  0  0  0  0  0
  -25.0968   -1.3700    0.0000 O   0  0  0  0  0  0  0  0  0  0  0  0
  -23.7977   -0.6202    0.0000 C   0  0  0  0  0  0  0  0  0  0  0  0
  -22.8333    0.5287    0.0000 H   0  0  0  0  0  0  0  0  0  0  0  0
  -24.7617    0.5290    0.0000 H   0  0  0  0  0  0  0  0  0  0  0  0
  -22.4987   -1.3704    0.0000 C   0  0  0  0  0  0  0  0  0  0  0  0
  -23.4631   -2.5193    0.0000 H   0  0  0  0  0  0  0  0  0  0  0  0
  -21.5347   -2.5196    0.0000 H   0  0  0  0  0  0  0  0  0  0  0  0
  -21.1996   -0.6206    0.0000 O   0  0  0  0  0  0  0  0  0  0  0  0
  -19.4850   -1.6109    0.0000 C   0  0  0  0  0  0  0  0  0  0  0  0
  -20.4494   -2.7598    0.0000 H   0  0  0  0  0  0  0  0  0  0  0  0
  -18.5210   -2.7601    0.0000 H   0  0  0  0  0  0  0  0  0  0  0  0
  -18.1859   -0.8611    0.0000 C   0  0  0  0  0  0  0  0  0  0  0  0
  -17.2215    0.2878    0.0000 H   0  0  0  0  0  0  0  0  0  0  0  0
  -19.1498    0.2881    0.0000 H   0  0  0  0  0  0  0  0  0  0  0  0
  -16.4713   -1.8514    0.0000 O   0  0  0  0  0  0  0  0  0  0  0  0
  -15.1721   -1.1016    0.0000 C   0  0  0  0  0  0  0  0  0  0  0  0
  -14.2078    0.0473    0.0000 H   0  0  0  0  0  0  0  0  0  0  0  0
  -16.1361    0.0476    0.0000 H   0  0  0  0  0  0  0  0  0  0  0  0
  -13.8732   -1.8518    0.0000 C   0  0  0  0  0  0  0  0  0  0  0  0
  -14.8376   -3.0007    0.0000 H   0  0  0  0  0  0  0  0  0  0  0  0
  -12.9092   -3.0010    0.0000 H   0  0  0  0  0  0  0  0  0  0  0  0
  -12.5740   -1.1020    0.0000 O   0  0  0  0  0  0  0  0  0  0  0  0
  -10.8595   -2.0923    0.0000 C   0  0  0  0  0  0  0  0  0  0  0  0
  -11.8238   -3.2412    0.0000 H   0  0  0  0  0  0  0  0  0  0  0  0
   -9.8955   -3.2415    0.0000 H   0  0  0  0  0  0  0  0  0  0  0  0
   -9.5603   -1.3425    0.0000 C   0  0  0  0  0  0  0  0  0  0  0  0
   -8.5960   -0.1936    0.0000 H   0  0  0  0  0  0  0  0  0  0  0  0
  -10.5243   -0.1933    0.0000 H   0  0  0  0  0  0  0  0  0  0  0  0
   -8.2614   -2.0927    0.0000 O   0  0  0  0  0  0  0  0  0  0  0  0
   -6.5465   -1.1030    0.0000 C   0  0  0  0  0  0  0  0  0  0  0  0
   -5.5821    0.0459    0.0000 H   0  0  0  0  0  0  0  0  0  0  0  0
   -7.5105    0.0462    0.0000 H   0  0  0  0  0  0  0  0  0  0  0  0
   -5.2476   -1.8532    0.0000 C   0  0  0  0  0  0  0  0  0  0  0  0
   -6.2120   -3.0021    0.0000 H   0  0  0  0  0  0  0  0  0  0  0  0
   -4.2836   -3.0024    0.0000 H   0  0  0  0  0  0  0  0  0  0  0  0
   -3.5327   -0.8635    0.0000 O   0  0  0  0  0  0  0  0  0  0  0  0
   -2.2338   -1.6137    0.0000 C   0  0  0  0  0  0  0  0  0  0  0  0
   -3.1981   -2.7626    0.0000 H   0  0  0  0  0  0  0  0  0  0  0  0
   -1.2698   -2.7629    0.0000 H   0  0  0  0  0  0  0  0  0  0  0  0
   -0.9346   -0.8639    0.0000 C   0  0  0  0  0  0  0  0  0  0  0  0
    0.0297    0.2850    0.0000 H   0  0  0  0  0  0  0  0  0  0  0  0
   -1.8986    0.2853    0.0000 H   0  0  0  0  0  0  0  0  0  0  0  0
    0.7799   -1.8542    0.0000 O   0  0  0  0  0  0  0  0  0  0  0  0
    2.0791   -1.1044    0.0000 C   0  0  0  0  0  0  0  0  0  0  0  0
    3.0435    0.0446    0.0000 H   0  0  0  0  0  0  0  0  0  0  0  0
    1.1151    0.0449    0.0000 H   0  0  0  0  0  0  0  0  0  0  0  0
    3.3780   -1.8546    0.0000 C   0  0  0  0  0  0  0  0  0  0  0  0
    2.4137   -3.0035    0.0000 H   0  0  0  0  0  0  0  0  0  0  0  0
    4.3420   -3.0038    0.0000 H   0  0  0  0  0  0  0  0  0  0  0  0
    5.5086   -0.6249    0.0000 O   0  0  0  0  0  0  0  0  0  0  0  0
    6.8076   -1.3751    0.0000 C   0  0  0  0  0  0  0  0  0  0  0  0
    5.8432   -2.5240    0.0000 H   0  0  0  0  0  0  0  0  0  0  0  0
    7.7716   -2.5243    0.0000 H   0  0  0  0  0  0  0  0  0  0  0  0
    8.1067   -0.6253    0.0000 C   0  0  0  0  0  0  0  0  0  0  0  0
    9.0711    0.5236    0.0000 H   0  0  0  0  0  0  0  0  0  0  0  0
    7.1427    0.5239    0.0000 H   0  0  0  0  0  0  0  0  0  0  0  0
    9.4056   -1.3755    0.0000 O   0  0  0  0  0  0  0  0  0  0  0  0
   10.7048   -0.6257    0.0000 C   0  0  0  0  0  0  0  0  0  0  0  0
   10.7050    0.8743    0.0000 H   0  0  0  0  0  0  0  0  0  0  0  0
   12.1820   -0.3655    0.0000 H   0  0  0  0  0  0  0  0  0  0  0  0
   11.2176   -2.0354    0.0000 H   0  0  0  0  0  0  0  0  0  0  0  0
  -39.2553    0.2128    0.0000 O   0  0  0  0  0  0  0  0  0  0  0  0
  -39.7686   -1.1967    0.0000 H   0  0  0  0  0  0  0  0  0  0  0  0
  1  2  1  0  0  0  0 
  1  3  1  0  0  0  0 
  1  4  1  0  0  0  0 
  1  5  1  0  0  0  0 
  5  6  1  0  0  0  0 
  5  7  1  0  0  0  0 
  7  8  1  0  0  0  0 
  7  9  1  0  0  0  0 
  7 10  1  0  0  0  0 
 10 11  1  0  0  0  0 
 10 12  1  0  0  0  0 
 10 13  1  0  0  0  0 
 13 14  1  0  0  0  0 
 13 15  1  0  0  0  0 
 15 16  2  0  0  0  0 
 16 17  1  0  0  0  0 
 16 18  1  0  0  0  0 
 18 19  1  0  0  0  0 
 18 20  2  0  0  0  0 
 20 21  1  0  0  0  0 
 21 22  1  0  0  0  0 
 21 23  2  0  0  0  0 
 15 23  1  0  0  0  0 
 23 24  1  0  0  0  0 
 20 25  1  0  0  0  0 
 25 26  2  0  0  0  0 
 25 27  1  0  0  0  0 
 27 28  1  0  0  0  0 
 28 29  1  0  0  0  0 
 28 30  1  0  0  0  0 
 28 31  1  0  0  0  0 
 31 32  1  0  0  0  0 
 31 33  1  0  0  0  0 
 31 34  1  0  0  0  0 
 34 35  1  0  0  0  0 
 35 36  1  0  0  0  0 
 35 37  1  0  0  0  0 
 35 38  1  0  0  0  0 
 38 39  1  0  0  0  0 
 38 40  1  0  0  0  0 
 38 41  1  0  0  0  0 
 41 42  1  0  0  0  0 
 42 43  1  0  0  0  0 
 42 44  1  0  0  0  0 
 42 45  1  0  0  0  0 
 45 46  1  0  0  0  0 
 45 47  1  0  0  0  0 
 45 48  1  0  0  0  0 
 48 49  1  0  0  0  0 
 49 50  1  0  0  0  0 
 49 51  1  0  0  0  0 
 49 52  1  0  0  0  0 
 52 53  1  0  0  0  0 
 52 54  1  0  0  0  0 
 52 55  1  0  0  0  0 
 55 56  1  0  0  0  0 
 56 57  1  0  0  0  0 
 56 58  1  0  0  0  0 
 56 59  1  0  0  0  0 
 59 60  1  0  0  0  0 
 59 61  1  0  0  0  0 
 59 62  1  0  0  0  0 
 62 63  1  0  0  0  0 
 63 64  1  0  0  0  0 
 63 65  1  0  0  0  0 
 63 66  1  0  0  0  0 
 66 67  1  0  0  0  0 
 66 68  1  0  0  0  0 
 66 69  1  0  0  0  0 
 69 70  1  0  0  0  0 
 70 71  1  0  0  0  0 
 70 72  1  0  0  0  0 
 70 73  1  0  0  0  0 
 73 74  1  0  0  0  0 
 73 75  1  0  0  0  0 
 73 76  1  0  0  0  0 
 76 77  1  0  0  0  0 
 77 78  1  0  0  0  0 
 77 79  1  0  0  0  0 
 77 80  1  0  0  0  0 
 80 81  1  0  0  0  0 
 80 82  1  0  0  0  0 
 80 83  1  0  0  0  0 
 83 84  1  0  0  0  0 
 84 85  1  0  0  0  0 
 84 86  1  0  0  0  0 
 84 87  1  0  0  0  0 
 87 88  1  0  0  0  0 
 87 89  1  0  0  0  0 
 87 90  1  0  0  0  0 
 90 91  1  0  0  0  0 
 91 92  1  0  0  0  0 
 91 93  1  0  0  0  0 
 91 94  1  0  0  0  0 
  5 95  1  0  0  0  0 
 95 96  1  0  0  0  0 
M  END
> <Rank>
19

> <Priority_score>
0.14720337197049527

> <Reaction_type>
aliphatic_hydroxylation_(sec_carbon,next_to_CH3)

> <Parent_ID>
18

> <Parent_InChI>
InChI=1S/C30H53NO11/c1-3-4-9-31-29-7-5-28(6-8-29)30(32)42-27-26-41-25-24-40-23-22-39-21-20-38-19-18-37-17-16-36-15-14-35-13-12-34-11-10-33-2/h5-8,31H,3-4,9-27H2,1-2H3

> <Parent_SMILES>
CCCCNc1ccc(C(=O)OCCOCCOCCOCCOCCOCCOCCOCCOCCOC)cc1

$$$$
Molecule 18_metabolite 22
  CDK     0516241031

 27 26  0  0  0  0  0  0  0  0999 V2000
    0.8833   -0.9900    0.0000 C   0  0  0  0  0  0  0  0  0  0  0  0
    0.8833   -2.4900    0.0000 H   0  0  0  0  0  0  0  0  0  0  0  0
   -0.5939   -1.2505    0.0000 H   0  0  0  0  0  0  0  0  0  0  0  0
    0.3703    0.4195    0.0000 H   0  0  0  0  0  0  0  0  0  0  0  0
    2.1824   -0.2400    0.0000 O   0  0  0  0  0  0  0  0  0  0  0  0
    3.4814   -0.9900    0.0000 C   0  0  0  0  0  0  0  0  0  0  0  0
    2.5172   -2.1391    0.0000 H   0  0  0  0  0  0  0  0  0  0  0  0
    4.4456   -2.1391    0.0000 H   0  0  0  0  0  0  0  0  0  0  0  0
    4.7805   -0.2400    0.0000 C   0  0  0  0  0  0  0  0  0  0  0  0
    5.7446    0.9091    0.0000 H   0  0  0  0  0  0  0  0  0  0  0  0
    3.8163    0.9091    0.0000 H   0  0  0  0  0  0  0  0  0  0  0  0
    6.0795   -0.9900    0.0000 O   0  0  0  0  0  0  0  0  0  0  0  0
    7.7942   -0.0000    0.0000 C   0  0  0  0  0  0  0  0  0  0  0  0
    8.7584    1.1491    0.0000 H   0  0  0  0  0  0  0  0  0  0  0  0
    6.8300    1.1491    0.0000 H   0  0  0  0  0  0  0  0  0  0  0  0
    9.0933   -0.7500    0.0000 C   0  0  0  0  0  0  0  0  0  0  0  0
    8.1291   -1.8991    0.0000 H   0  0  0  0  0  0  0  0  0  0  0  0
   10.0574   -1.8991    0.0000 H   0  0  0  0  0  0  0  0  0  0  0  0
   10.8080    0.2400    0.0000 O   0  0  0  0  0  0  0  0  0  0  0  0
   12.1070   -0.5100    0.0000 C   0  0  0  0  0  0  0  0  0  0  0  0
   11.1429   -1.6591    0.0000 H   0  0  0  0  0  0  0  0  0  0  0  0
   13.0712   -1.6591    0.0000 H   0  0  0  0  0  0  0  0  0  0  0  0
   13.4061    0.2400    0.0000 C   0  0  0  0  0  0  0  0  0  0  0  0
   14.3703    1.3891    0.0000 H   0  0  0  0  0  0  0  0  0  0  0  0
   12.4419    1.3891    0.0000 H   0  0  0  0  0  0  0  0  0  0  0  0
   14.7051   -0.5100    0.0000 O   0  0  0  0  0  0  0  0  0  0  0  0
   16.0042    0.2400    0.0000 H   0  0  0  0  0  0  0  0  0  0  0  0
  1  2  1  0  0  0  0 
  1  3  1  0  0  0  0 
  1  4  1  0  0  0  0 
  1  5  1  0  0  0  0 
  5  6  1  0  0  0  0 
  6  7  1  0  0  0  0 
  6  8  1  0  0  0  0 
  6  9  1  0  0  0  0 
  9 10  1  0  0  0  0 
  9 11  1  0  0  0  0 
  9 12  1  0  0  0  0 
 12 13  1  0  0  0  0 
 13 14  1  0  0  0  0 
 13 15  1  0  0  0  0 
 13 16  1  0  0  0  0 
 16 17  1  0  0  0  0 
 16 18  1  0  0  0  0 
 16 19  1  0  0  0  0 
 19 20  1  0  0  0  0 
 20 21  1  0  0  0  0 
 20 22  1  0  0  0  0 
 20 23  1  0  0  0  0 
 23 24  1  0  0  0  0 
 23 25  1  0  0  0  0 
 23 26  1  0  0  0  0 
 26 27  1  0  0  0  0 
M  END
> <Rank>
22

> <Priority_score>
0.12

> <Reaction_type>
O-dealkylation_(aliphatic)

> <Parent_ID>
18

> <Parent_InChI>
InChI=1S/C30H53NO11/c1-3-4-9-31-29-7-5-28(6-8-29)30(32)42-27-26-41-25-24-40-23-22-39-21-20-38-19-18-37-17-16-36-15-14-35-13-12-34-11-10-33-2/h5-8,31H,3-4,9-27H2,1-2H3

> <Parent_SMILES>
CCCCNc1ccc(C(=O)OCCOCCOCCOCCOCCOCCOCCOCCOCCOC)cc1

$$$$
Molecule 18_metabolite 23
  CDK     0516241031

 69 69  0  0  0  0  0  0  0  0999 V2000
  -26.2192    1.7440    0.0000 C   0  0  0  0  0  0  0  0  0  0  0  0
  -26.2190    3.2440    0.0000 H   0  0  0  0  0  0  0  0  0  0  0  0
  -26.7325    0.3346    0.0000 H   0  0  0  0  0  0  0  0  0  0  0  0
  -27.6964    2.0047    0.0000 H   0  0  0  0  0  0  0  0  0  0  0  0
  -24.9203    0.9938    0.0000 C   0  0  0  0  0  0  0  0  0  0  0  0
  -25.8847   -0.1551    0.0000 H   0  0  0  0  0  0  0  0  0  0  0  0
  -23.9563   -0.1554    0.0000 H   0  0  0  0  0  0  0  0  0  0  0  0
  -23.6212    1.7436    0.0000 C   0  0  0  0  0  0  0  0  0  0  0  0
  -22.6568    2.8925    0.0000 H   0  0  0  0  0  0  0  0  0  0  0  0
  -24.5852    2.8928    0.0000 H   0  0  0  0  0  0  0  0  0  0  0  0
  -21.9066    0.7533    0.0000 C   0  0  0  0  0  0  0  0  0  0  0  0
  -22.8710   -0.3956    0.0000 H   0  0  0  0  0  0  0  0  0  0  0  0
  -20.9426   -0.3959    0.0000 H   0  0  0  0  0  0  0  0  0  0  0  0
  -20.6074    1.5031    0.0000 N   0  0  0  0  0  0  0  0  0  0  0  0
  -20.6072    3.0031    0.0000 H   0  0  0  0  0  0  0  0  0  0  0  0
  -19.3085    0.7529    0.0000 C   0  0  0  0  0  0  0  0  0  0  0  0
  -18.0085    1.5029    0.0000 C   0  0  0  0  0  0  0  0  0  0  0  0
  -18.0085    3.0029    0.0000 H   0  0  0  0  0  0  0  0  0  0  0  0
  -16.7085    0.7529    0.0000 C   0  0  0  0  0  0  0  0  0  0  0  0
  -15.4096    1.5031    0.0000 H   0  0  0  0  0  0  0  0  0  0  0  0
  -16.7085   -0.7471    0.0000 C   0  0  0  0  0  0  0  0  0  0  0  0
  -18.0085   -1.4971    0.0000 C   0  0  0  0  0  0  0  0  0  0  0  0
  -18.0085   -2.9971    0.0000 H   0  0  0  0  0  0  0  0  0  0  0  0
  -19.3085   -0.7471    0.0000 C   0  0  0  0  0  0  0  0  0  0  0  0
  -20.6074   -1.4973    0.0000 H   0  0  0  0  0  0  0  0  0  0  0  0
  -15.4096   -1.4973    0.0000 C   0  0  0  0  0  0  0  0  0  0  0  0
  -15.4098   -2.9973    0.0000 O   0  0  0  0  0  0  0  0  0  0  0  0
  -14.1104   -0.7475    0.0000 O   0  0  0  0  0  0  0  0  0  0  0  0
  -12.8115   -1.4977    0.0000 C   0  0  0  0  0  0  0  0  0  0  0  0
  -13.7759   -2.6466    0.0000 H   0  0  0  0  0  0  0  0  0  0  0  0
  -11.8475   -2.6469    0.0000 H   0  0  0  0  0  0  0  0  0  0  0  0
  -11.5124   -0.7479    0.0000 C   0  0  0  0  0  0  0  0  0  0  0  0
  -10.5480    0.4010    0.0000 H   0  0  0  0  0  0  0  0  0  0  0  0
  -12.4764    0.4013    0.0000 H   0  0  0  0  0  0  0  0  0  0  0  0
   -9.7978   -1.7382    0.0000 O   0  0  0  0  0  0  0  0  0  0  0  0
   -8.4986   -0.9884    0.0000 C   0  0  0  0  0  0  0  0  0  0  0  0
   -7.5343    0.1605    0.0000 H   0  0  0  0  0  0  0  0  0  0  0  0
   -9.4626    0.1608    0.0000 H   0  0  0  0  0  0  0  0  0  0  0  0
   -7.1997   -1.7386    0.0000 C   0  0  0  0  0  0  0  0  0  0  0  0
   -8.1641   -2.8875    0.0000 H   0  0  0  0  0  0  0  0  0  0  0  0
   -6.2357   -2.8878    0.0000 H   0  0  0  0  0  0  0  0  0  0  0  0
   -5.9006   -0.9888    0.0000 O   0  0  0  0  0  0  0  0  0  0  0  0
   -4.1860   -1.9791    0.0000 C   0  0  0  0  0  0  0  0  0  0  0  0
   -5.1504   -3.1280    0.0000 H   0  0  0  0  0  0  0  0  0  0  0  0
   -3.2220   -3.1283    0.0000 H   0  0  0  0  0  0  0  0  0  0  0  0
   -2.8868   -1.2293    0.0000 C   0  0  0  0  0  0  0  0  0  0  0  0
   -1.9225   -0.0804    0.0000 H   0  0  0  0  0  0  0  0  0  0  0  0
   -3.8508   -0.0801    0.0000 H   0  0  0  0  0  0  0  0  0  0  0  0
   -1.1723   -2.2196    0.0000 O   0  0  0  0  0  0  0  0  0  0  0  0
    0.1269   -1.4698    0.0000 C   0  0  0  0  0  0  0  0  0  0  0  0
    1.0913   -0.3209    0.0000 H   0  0  0  0  0  0  0  0  0  0  0  0
   -0.8371   -0.3206    0.0000 H   0  0  0  0  0  0  0  0  0  0  0  0
    1.4258   -2.2200    0.0000 C   0  0  0  0  0  0  0  0  0  0  0  0
    0.4614   -3.3689    0.0000 H   0  0  0  0  0  0  0  0  0  0  0  0
    2.3898   -3.3692    0.0000 H   0  0  0  0  0  0  0  0  0  0  0  0
    3.1407   -1.2303    0.0000 O   0  0  0  0  0  0  0  0  0  0  0  0
    4.4396   -1.9805    0.0000 C   0  0  0  0  0  0  0  0  0  0  0  0
    3.4753   -3.1294    0.0000 H   0  0  0  0  0  0  0  0  0  0  0  0
    5.4036   -3.1297    0.0000 H   0  0  0  0  0  0  0  0  0  0  0  0
    5.7388   -1.2307    0.0000 C   0  0  0  0  0  0  0  0  0  0  0  0
    6.7031   -0.0818    0.0000 H   0  0  0  0  0  0  0  0  0  0  0  0
    4.7748   -0.0815    0.0000 H   0  0  0  0  0  0  0  0  0  0  0  0
    7.4534   -2.2210    0.0000 O   0  0  0  0  0  0  0  0  0  0  0  0
    8.7525   -1.4712    0.0000 C   0  0  0  0  0  0  0  0  0  0  0  0
    9.7169   -0.3223    0.0000 H   0  0  0  0  0  0  0  0  0  0  0  0
    7.7885   -0.3219    0.0000 H   0  0  0  0  0  0  0  0  0  0  0  0
   10.0514   -2.2214    0.0000 C   0  0  0  0  0  0  0  0  0  0  0  0
   11.3506   -1.4716    0.0000 H   0  0  0  0  0  0  0  0  0  0  0  0
   10.0512   -3.7214    0.0000 O   0  0  0  0  0  0  0  0  0  0  0  0
  1  2  1  0  0  0  0 
  1  3  1  0  0  0  0 
  1  4  1  0  0  0  0 
  1  5  1  0  0  0  0 
  5  6  1  0  0  0  0 
  5  7  1  0  0  0  0 
  5  8  1  0  0  0  0 
  8  9  1  0  0  0  0 
  8 10  1  0  0  0  0 
  8 11  1  0  0  0  0 
 11 12  1  0  0  0  0 
 11 13  1  0  0  0  0 
 11 14  1  0  0  0  0 
 14 15  1  0  0  0  0 
 14 16  1  0  0  0  0 
 16 17  2  0  0  0  0 
 17 18  1  0  0  0  0 
 17 19  1  0  0  0  0 
 19 20  1  0  0  0  0 
 19 21  2  0  0  0  0 
 21 22  1  0  0  0  0 
 22 23  1  0  0  0  0 
 22 24  2  0  0  0  0 
 16 24  1  0  0  0  0 
 24 25  1  0  0  0  0 
 21 26  1  0  0  0  0 
 26 27  2  0  0  0  0 
 26 28  1  0  0  0  0 
 28 29  1  0  0  0  0 
 29 30  1  0  0  0  0 
 29 31  1  0  0  0  0 
 29 32  1  0  0  0  0 
 32 33  1  0  0  0  0 
 32 34  1  0  0  0  0 
 32 35  1  0  0  0  0 
 35 36  1  0  0  0  0 
 36 37  1  0  0  0  0 
 36 38  1  0  0  0  0 
 36 39  1  0  0  0  0 
 39 40  1  0  0  0  0 
 39 41  1  0  0  0  0 
 39 42  1  0  0  0  0 
 42 43  1  0  0  0  0 
 43 44  1  0  0  0  0 
 43 45  1  0  0  0  0 
 43 46  1  0  0  0  0 
 46 47  1  0  0  0  0 
 46 48  1  0  0  0  0 
 46 49  1  0  0  0  0 
 49 50  1  0  0  0  0 
 50 51  1  0  0  0  0 
 50 52  1  0  0  0  0 
 50 53  1  0  0  0  0 
 53 54  1  0  0  0  0 
 53 55  1  0  0  0  0 
 53 56  1  0  0  0  0 
 56 57  1  0  0  0  0 
 57 58  1  0  0  0  0 
 57 59  1  0  0  0  0 
 57 60  1  0  0  0  0 
 60 61  1  0  0  0  0 
 60 62  1  0  0  0  0 
 60 63  1  0  0  0  0 
 63 64  1  0  0  0  0 
 64 65  1  0  0  0  0 
 64 66  1  0  0  0  0 
 64 67  1  0  0  0  0 
 67 68  1  0  0  0  0 
 67 69  2  0  0  0  0 
M  END
> <Rank>
22

> <Priority_score>
0.12

> <Reaction_type>
oxidative ether cleavage to one alcohol and one aldehyde/ketone

> <Parent_ID>
18

> <Parent_InChI>
InChI=1S/C30H53NO11/c1-3-4-9-31-29-7-5-28(6-8-29)30(32)42-27-26-41-25-24-40-23-22-39-21-20-38-19-18-37-17-16-36-15-14-35-13-12-34-11-10-33-2/h5-8,31H,3-4,9-27H2,1-2H3

> <Parent_SMILES>
CCCCNc1ccc(C(=O)OCCOCCOCCOCCOCCOCCOCCOCCOCCOC)cc1

$$$$
Molecule 18_metabolite 24
  CDK     0516241031

 96 96  0  0  0  0  0  0  0  0999 V2000
  -41.9338    3.0426    0.0000 C   0  0  0  0  0  0  0  0  0  0  0  0
  -41.9336    4.5426    0.0000 H   0  0  0  0  0  0  0  0  0  0  0  0
  -42.4471    1.6332    0.0000 H   0  0  0  0  0  0  0  0  0  0  0  0
  -43.4110    3.3033    0.0000 H   0  0  0  0  0  0  0  0  0  0  0  0
  -40.6349    2.2924    0.0000 C   0  0  0  0  0  0  0  0  0  0  0  0
  -41.5993    1.1435    0.0000 H   0  0  0  0  0  0  0  0  0  0  0  0
  -39.6709    1.1432    0.0000 H   0  0  0  0  0  0  0  0  0  0  0  0
  -39.3358    3.0422    0.0000 C   0  0  0  0  0  0  0  0  0  0  0  0
  -38.3714    4.1911    0.0000 H   0  0  0  0  0  0  0  0  0  0  0  0
  -40.2998    4.1914    0.0000 H   0  0  0  0  0  0  0  0  0  0  0  0
  -37.6212    2.0519    0.0000 C   0  0  0  0  0  0  0  0  0  0  0  0
  -38.5856    0.9030    0.0000 H   0  0  0  0  0  0  0  0  0  0  0  0
  -36.6572    0.9027    0.0000 H   0  0  0  0  0  0  0  0  0  0  0  0
  -36.3220    2.8017    0.0000 N   0  0  0  0  0  0  0  0  0  0  0  0
  -36.3218    4.3017    0.0000 H   0  0  0  0  0  0  0  0  0  0  0  0
  -35.0231    2.0515    0.0000 C   0  0  0  0  0  0  0  0  0  0  0  0
  -33.7231    2.8015    0.0000 C   0  0  0  0  0  0  0  0  0  0  0  0
  -33.7231    4.3015    0.0000 H   0  0  0  0  0  0  0  0  0  0  0  0
  -32.4231    2.0515    0.0000 C   0  0  0  0  0  0  0  0  0  0  0  0
  -31.1242    2.8017    0.0000 H   0  0  0  0  0  0  0  0  0  0  0  0
  -32.4231    0.5515    0.0000 C   0  0  0  0  0  0  0  0  0  0  0  0
  -33.7231   -0.1985    0.0000 C   0  0  0  0  0  0  0  0  0  0  0  0
  -33.7231   -1.6985    0.0000 H   0  0  0  0  0  0  0  0  0  0  0  0
  -35.0231    0.5515    0.0000 C   0  0  0  0  0  0  0  0  0  0  0  0
  -36.3220   -0.1987    0.0000 H   0  0  0  0  0  0  0  0  0  0  0  0
  -31.1242   -0.1987    0.0000 C   0  0  0  0  0  0  0  0  0  0  0  0
  -31.1244   -1.6987    0.0000 O   0  0  0  0  0  0  0  0  0  0  0  0
  -29.8250    0.5511    0.0000 O   0  0  0  0  0  0  0  0  0  0  0  0
  -28.5261   -0.1991    0.0000 C   0  0  0  0  0  0  0  0  0  0  0  0
  -29.4905   -1.3480    0.0000 H   0  0  0  0  0  0  0  0  0  0  0  0
  -27.5621   -1.3483    0.0000 H   0  0  0  0  0  0  0  0  0  0  0  0
  -27.2270    0.5507    0.0000 C   0  0  0  0  0  0  0  0  0  0  0  0
  -26.2626    1.6996    0.0000 H   0  0  0  0  0  0  0  0  0  0  0  0
  -28.1910    1.6999    0.0000 H   0  0  0  0  0  0  0  0  0  0  0  0
  -25.5124   -0.4396    0.0000 O   0  0  0  0  0  0  0  0  0  0  0  0
  -24.2132    0.3102    0.0000 C   0  0  0  0  0  0  0  0  0  0  0  0
  -23.2489    1.4591    0.0000 H   0  0  0  0  0  0  0  0  0  0  0  0
  -25.1772    1.4594    0.0000 H   0  0  0  0  0  0  0  0  0  0  0  0
  -22.9143   -0.4400    0.0000 C   0  0  0  0  0  0  0  0  0  0  0  0
  -23.8787   -1.5889    0.0000 H   0  0  0  0  0  0  0  0  0  0  0  0
  -21.9503   -1.5892    0.0000 H   0  0  0  0  0  0  0  0  0  0  0  0
  -21.6152    0.3098    0.0000 O   0  0  0  0  0  0  0  0  0  0  0  0
  -19.9006   -0.6805    0.0000 C   0  0  0  0  0  0  0  0  0  0  0  0
  -20.8650   -1.8294    0.0000 H   0  0  0  0  0  0  0  0  0  0  0  0
  -18.9366   -1.8297    0.0000 H   0  0  0  0  0  0  0  0  0  0  0  0
  -18.6014    0.0693    0.0000 C   0  0  0  0  0  0  0  0  0  0  0  0
  -17.6371    1.2182    0.0000 H   0  0  0  0  0  0  0  0  0  0  0  0
  -19.5654    1.2185    0.0000 H   0  0  0  0  0  0  0  0  0  0  0  0
  -16.8869   -0.9210    0.0000 O   0  0  0  0  0  0  0  0  0  0  0  0
  -15.5877   -0.1712    0.0000 C   0  0  0  0  0  0  0  0  0  0  0  0
  -14.6233    0.9777    0.0000 H   0  0  0  0  0  0  0  0  0  0  0  0
  -16.5517    0.9780    0.0000 H   0  0  0  0  0  0  0  0  0  0  0  0
  -14.2888   -0.9214    0.0000 C   0  0  0  0  0  0  0  0  0  0  0  0
  -15.2531   -2.0703    0.0000 H   0  0  0  0  0  0  0  0  0  0  0  0
  -13.3248   -2.0706    0.0000 H   0  0  0  0  0  0  0  0  0  0  0  0
  -12.9896   -0.1716    0.0000 O   0  0  0  0  0  0  0  0  0  0  0  0
  -11.2751   -1.1619    0.0000 C   0  0  0  0  0  0  0  0  0  0  0  0
  -12.2394   -2.3108    0.0000 H   0  0  0  0  0  0  0  0  0  0  0  0
  -10.3111   -2.3111    0.0000 H   0  0  0  0  0  0  0  0  0  0  0  0
   -9.9759   -0.4121    0.0000 C   0  0  0  0  0  0  0  0  0  0  0  0
   -9.0115    0.7368    0.0000 H   0  0  0  0  0  0  0  0  0  0  0  0
  -10.9399    0.7371    0.0000 H   0  0  0  0  0  0  0  0  0  0  0  0
   -8.2613   -1.4023    0.0000 O   0  0  0  0  0  0  0  0  0  0  0  0
   -6.9622   -0.6526    0.0000 C   0  0  0  0  0  0  0  0  0  0  0  0
   -5.9978    0.4964    0.0000 H   0  0  0  0  0  0  0  0  0  0  0  0
   -7.9262    0.4967    0.0000 H   0  0  0  0  0  0  0  0  0  0  0  0
   -5.6632   -1.4028    0.0000 C   0  0  0  0  0  0  0  0  0  0  0  0
   -6.6276   -2.5517    0.0000 H   0  0  0  0  0  0  0  0  0  0  0  0
   -4.6992   -2.5520    0.0000 O   0  0  0  0  0  0  0  0  0  0  0  0
   -5.2125   -3.9614    0.0000 H   0  0  0  0  0  0  0  0  0  0  0  0
   -4.3641   -0.6530    0.0000 O   0  0  0  0  0  0  0  0  0  0  0  0
   -2.2339   -1.8833    0.0000 C   0  0  0  0  0  0  0  0  0  0  0  0
   -3.1982   -3.0322    0.0000 H   0  0  0  0  0  0  0  0  0  0  0  0
   -1.2699   -3.0325    0.0000 H   0  0  0  0  0  0  0  0  0  0  0  0
   -0.9347   -1.1335    0.0000 C   0  0  0  0  0  0  0  0  0  0  0  0
    0.0297    0.0154    0.0000 H   0  0  0  0  0  0  0  0  0  0  0  0
   -1.8987    0.0157    0.0000 H   0  0  0  0  0  0  0  0  0  0  0  0
    0.7799   -2.1238    0.0000 O   0  0  0  0  0  0  0  0  0  0  0  0
    2.0790   -1.3740    0.0000 C   0  0  0  0  0  0  0  0  0  0  0  0
    3.0434   -0.2251    0.0000 H   0  0  0  0  0  0  0  0  0  0  0  0
    1.1150   -0.2248    0.0000 H   0  0  0  0  0  0  0  0  0  0  0  0
    3.3779   -2.1242    0.0000 C   0  0  0  0  0  0  0  0  0  0  0  0
    2.4136   -3.2731    0.0000 H   0  0  0  0  0  0  0  0  0  0  0  0
    4.3419   -3.2734    0.0000 H   0  0  0  0  0  0  0  0  0  0  0  0
    5.0928   -1.1345    0.0000 O   0  0  0  0  0  0  0  0  0  0  0  0
    6.3918   -1.8847    0.0000 C   0  0  0  0  0  0  0  0  0  0  0  0
    5.4274   -3.0336    0.0000 H   0  0  0  0  0  0  0  0  0  0  0  0
    7.3557   -3.0339    0.0000 H   0  0  0  0  0  0  0  0  0  0  0  0
    7.6909   -1.1349    0.0000 C   0  0  0  0  0  0  0  0  0  0  0  0
    8.6553    0.0140    0.0000 H   0  0  0  0  0  0  0  0  0  0  0  0
    6.7269    0.0143    0.0000 H   0  0  0  0  0  0  0  0  0  0  0  0
    8.9898   -1.8851    0.0000 O   0  0  0  0  0  0  0  0  0  0  0  0
   10.2890   -1.1353    0.0000 C   0  0  0  0  0  0  0  0  0  0  0  0
   10.2892    0.3647    0.0000 H   0  0  0  0  0  0  0  0  0  0  0  0
   11.7662   -0.8751    0.0000 H   0  0  0  0  0  0  0  0  0  0  0  0
   10.8018   -2.5449    0.0000 H   0  0  0  0  0  0  0  0  0  0  0  0
  1  2  1  0  0  0  0 
  1  3  1  0  0  0  0 
  1  4  1  0  0  0  0 
  1  5  1  0  0  0  0 
  5  6  1  0  0  0  0 
  5  7  1  0  0  0  0 
  5  8  1  0  0  0  0 
  8  9  1  0  0  0  0 
  8 10  1  0  0  0  0 
  8 11  1  0  0  0  0 
 11 12  1  0  0  0  0 
 11 13  1  0  0  0  0 
 11 14  1  0  0  0  0 
 14 15  1  0  0  0  0 
 14 16  1  0  0  0  0 
 16 17  2  0  0  0  0 
 17 18  1  0  0  0  0 
 17 19  1  0  0  0  0 
 19 20  1  0  0  0  0 
 19 21  2  0  0  0  0 
 21 22  1  0  0  0  0 
 22 23  1  0  0  0  0 
 22 24  2  0  0  0  0 
 16 24  1  0  0  0  0 
 24 25  1  0  0  0  0 
 21 26  1  0  0  0  0 
 26 27  2  0  0  0  0 
 26 28  1  0  0  0  0 
 28 29  1  0  0  0  0 
 29 30  1  0  0  0  0 
 29 31  1  0  0  0  0 
 29 32  1  0  0  0  0 
 32 33  1  0  0  0  0 
 32 34  1  0  0  0  0 
 32 35  1  0  0  0  0 
 35 36  1  0  0  0  0 
 36 37  1  0  0  0  0 
 36 38  1  0  0  0  0 
 36 39  1  0  0  0  0 
 39 40  1  0  0  0  0 
 39 41  1  0  0  0  0 
 39 42  1  0  0  0  0 
 42 43  1  0  0  0  0 
 43 44  1  0  0  0  0 
 43 45  1  0  0  0  0 
 43 46  1  0  0  0  0 
 46 47  1  0  0  0  0 
 46 48  1  0  0  0  0 
 46 49  1  0  0  0  0 
 49 50  1  0  0  0  0 
 50 51  1  0  0  0  0 
 50 52  1  0  0  0  0 
 50 53  1  0  0  0  0 
 53 54  1  0  0  0  0 
 53 55  1  0  0  0  0 
 53 56  1  0  0  0  0 
 56 57  1  0  0  0  0 
 57 58  1  0  0  0  0 
 57 59  1  0  0  0  0 
 57 60  1  0  0  0  0 
 60 61  1  0  0  0  0 
 60 62  1  0  0  0  0 
 60 63  1  0  0  0  0 
 63 64  1  0  0  0  0 
 64 65  1  0  0  0  0 
 64 66  1  0  0  0  0 
 64 67  1  0  0  0  0 
 67 68  1  0  0  0  0 
 67 69  1  0  0  0  0 
 69 70  1  0  0  0  0 
 67 71  1  0  0  0  0 
 71 72  1  0  0  0  0 
 72 73  1  0  0  0  0 
 72 74  1  0  0  0  0 
 72 75  1  0  0  0  0 
 75 76  1  0  0  0  0 
 75 77  1  0  0  0  0 
 75 78  1  0  0  0  0 
 78 79  1  0  0  0  0 
 79 80  1  0  0  0  0 
 79 81  1  0  0  0  0 
 79 82  1  0  0  0  0 
 82 83  1  0  0  0  0 
 82 84  1  0  0  0  0 
 82 85  1  0  0  0  0 
 85 86  1  0  0  0  0 
 86 87  1  0  0  0  0 
 86 88  1  0  0  0  0 
 86 89  1  0  0  0  0 
 89 90  1  0  0  0  0 
 89 91  1  0  0  0  0 
 89 92  1  0  0  0  0 
 92 93  1  0  0  0  0 
 93 94  1  0  0  0  0 
 93 95  1  0  0  0  0 
 93 96  1  0  0  0  0 
M  END
> <Rank>
22

> <Priority_score>
0.12

> <Reaction_type>
aliphatic hydroxylation

> <Parent_ID>
18

> <Parent_InChI>
InChI=1S/C30H53NO11/c1-3-4-9-31-29-7-5-28(6-8-29)30(32)42-27-26-41-25-24-40-23-22-39-21-20-38-19-18-37-17-16-36-15-14-35-13-12-34-11-10-33-2/h5-8,31H,3-4,9-27H2,1-2H3

> <Parent_SMILES>
CCCCNc1ccc(C(=O)OCCOCCOCCOCCOCCOCCOCCOCCOCCOC)cc1

$$$$
Molecule 18_metabolite 25
  CDK     0516241031

 71 71  0  0  0  0  0  0  0  0999 V2000
    9.8734   -2.2214    0.0000 C   0  0  0  0  0  0  0  0  0  0  0  0
    9.8732   -3.7214    0.0000 H   0  0  0  0  0  0  0  0  0  0  0  0
   10.3867   -0.8119    0.0000 H   0  0  0  0  0  0  0  0  0  0  0  0
   11.3506   -2.4821    0.0000 H   0  0  0  0  0  0  0  0  0  0  0  0
    8.5745   -1.4712    0.0000 C   0  0  0  0  0  0  0  0  0  0  0  0
    9.5389   -0.3223    0.0000 H   0  0  0  0  0  0  0  0  0  0  0  0
    7.6105   -0.3219    0.0000 H   0  0  0  0  0  0  0  0  0  0  0  0
    7.2753   -2.2210    0.0000 C   0  0  0  0  0  0  0  0  0  0  0  0
    6.3110   -3.3699    0.0000 H   0  0  0  0  0  0  0  0  0  0  0  0
    8.2393   -3.3702    0.0000 H   0  0  0  0  0  0  0  0  0  0  0  0
    5.5608   -1.2307    0.0000 C   0  0  0  0  0  0  0  0  0  0  0  0
    6.5251   -0.0818    0.0000 H   0  0  0  0  0  0  0  0  0  0  0  0
    4.5968   -0.0815    0.0000 H   0  0  0  0  0  0  0  0  0  0  0  0
    4.2616   -1.9805    0.0000 N   0  0  0  0  0  0  0  0  0  0  0  0
    4.2614   -3.4805    0.0000 H   0  0  0  0  0  0  0  0  0  0  0  0
    2.9627   -1.2303    0.0000 C   0  0  0  0  0  0  0  0  0  0  0  0
    1.6627   -1.9803    0.0000 C   0  0  0  0  0  0  0  0  0  0  0  0
    1.6627   -3.4803    0.0000 H   0  0  0  0  0  0  0  0  0  0  0  0
    0.3627   -1.2303    0.0000 C   0  0  0  0  0  0  0  0  0  0  0  0
   -0.9362   -1.9805    0.0000 H   0  0  0  0  0  0  0  0  0  0  0  0
    0.3627    0.2697    0.0000 C   0  0  0  0  0  0  0  0  0  0  0  0
    1.6627    1.0197    0.0000 C   0  0  0  0  0  0  0  0  0  0  0  0
    1.6627    2.5197    0.0000 H   0  0  0  0  0  0  0  0  0  0  0  0
    2.9627    0.2697    0.0000 C   0  0  0  0  0  0  0  0  0  0  0  0
    4.2616    1.0199    0.0000 H   0  0  0  0  0  0  0  0  0  0  0  0
   -0.9362    1.0199    0.0000 C   0  0  0  0  0  0  0  0  0  0  0  0
   -0.9360    2.5199    0.0000 O   0  0  0  0  0  0  0  0  0  0  0  0
   -2.2354    0.2701    0.0000 O   0  0  0  0  0  0  0  0  0  0  0  0
   -3.5343    1.0204    0.0000 C   0  0  0  0  0  0  0  0  0  0  0  0
   -2.5699    2.1693    0.0000 H   0  0  0  0  0  0  0  0  0  0  0  0
   -4.4983    2.1696    0.0000 H   0  0  0  0  0  0  0  0  0  0  0  0
   -4.8335    0.2706    0.0000 C   0  0  0  0  0  0  0  0  0  0  0  0
   -5.7978   -0.8783    0.0000 H   0  0  0  0  0  0  0  0  0  0  0  0
   -3.8695   -0.8787    0.0000 H   0  0  0  0  0  0  0  0  0  0  0  0
   -6.5480    1.2608    0.0000 O   0  0  0  0  0  0  0  0  0  0  0  0
   -7.8472    0.5110    0.0000 C   0  0  0  0  0  0  0  0  0  0  0  0
   -8.8116   -0.6379    0.0000 H   0  0  0  0  0  0  0  0  0  0  0  0
   -6.8832   -0.6382    0.0000 H   0  0  0  0  0  0  0  0  0  0  0  0
   -9.1461    1.2613    0.0000 C   0  0  0  0  0  0  0  0  0  0  0  0
   -8.1817    2.4102    0.0000 H   0  0  0  0  0  0  0  0  0  0  0  0
  -10.1101    2.4105    0.0000 H   0  0  0  0  0  0  0  0  0  0  0  0
  -10.4453    0.5115    0.0000 O   0  0  0  0  0  0  0  0  0  0  0  0
  -12.1598    1.5017    0.0000 C   0  0  0  0  0  0  0  0  0  0  0  0
  -11.1955    2.6507    0.0000 H   0  0  0  0  0  0  0  0  0  0  0  0
  -13.1238    2.6510    0.0000 H   0  0  0  0  0  0  0  0  0  0  0  0
  -13.4590    0.7519    0.0000 C   0  0  0  0  0  0  0  0  0  0  0  0
  -14.4234   -0.3970    0.0000 H   0  0  0  0  0  0  0  0  0  0  0  0
  -12.4950   -0.3973    0.0000 H   0  0  0  0  0  0  0  0  0  0  0  0
  -15.1736    1.7422    0.0000 O   0  0  0  0  0  0  0  0  0  0  0  0
  -16.4727    0.9924    0.0000 C   0  0  0  0  0  0  0  0  0  0  0  0
  -17.4371   -0.1565    0.0000 H   0  0  0  0  0  0  0  0  0  0  0  0
  -15.5087   -0.1568    0.0000 H   0  0  0  0  0  0  0  0  0  0  0  0
  -17.7716    1.7426    0.0000 C   0  0  0  0  0  0  0  0  0  0  0  0
  -16.8073    2.8916    0.0000 H   0  0  0  0  0  0  0  0  0  0  0  0
  -18.7356    2.8919    0.0000 H   0  0  0  0  0  0  0  0  0  0  0  0
  -19.4865    0.7529    0.0000 O   0  0  0  0  0  0  0  0  0  0  0  0
  -20.7855    1.5031    0.0000 C   0  0  0  0  0  0  0  0  0  0  0  0
  -19.8211    2.6520    0.0000 H   0  0  0  0  0  0  0  0  0  0  0  0
  -21.7494    2.6523    0.0000 H   0  0  0  0  0  0  0  0  0  0  0  0
  -22.0846    0.7533    0.0000 C   0  0  0  0  0  0  0  0  0  0  0  0
  -23.0490   -0.3956    0.0000 H   0  0  0  0  0  0  0  0  0  0  0  0
  -21.1206   -0.3959    0.0000 H   0  0  0  0  0  0  0  0  0  0  0  0
  -23.7992    1.7436    0.0000 O   0  0  0  0  0  0  0  0  0  0  0  0
  -25.0983    0.9938    0.0000 C   0  0  0  0  0  0  0  0  0  0  0  0
  -26.0627   -0.1551    0.0000 H   0  0  0  0  0  0  0  0  0  0  0  0
  -24.1343   -0.1554    0.0000 H   0  0  0  0  0  0  0  0  0  0  0  0
  -26.3973    1.7440    0.0000 C   0  0  0  0  0  0  0  0  0  0  0  0
  -25.4329    2.8929    0.0000 H   0  0  0  0  0  0  0  0  0  0  0  0
  -27.3613    2.8932    0.0000 H   0  0  0  0  0  0  0  0  0  0  0  0
  -27.6964    0.9942    0.0000 O   0  0  0  0  0  0  0  0  0  0  0  0
  -28.9953    1.7444    0.0000 H   0  0  0  0  0  0  0  0  0  0  0  0
  1  2  1  0  0  0  0 
  1  3  1  0  0  0  0 
  1  4  1  0  0  0  0 
  1  5  1  0  0  0  0 
  5  6  1  0  0  0  0 
  5  7  1  0  0  0  0 
  5  8  1  0  0  0  0 
  8  9  1  0  0  0  0 
  8 10  1  0  0  0  0 
  8 11  1  0  0  0  0 
 11 12  1  0  0  0  0 
 11 13  1  0  0  0  0 
 11 14  1  0  0  0  0 
 14 15  1  0  0  0  0 
 14 16  1  0  0  0  0 
 16 17  2  0  0  0  0 
 17 18  1  0  0  0  0 
 17 19  1  0  0  0  0 
 19 20  1  0  0  0  0 
 19 21  2  0  0  0  0 
 21 22  1  0  0  0  0 
 22 23  1  0  0  0  0 
 22 24  2  0  0  0  0 
 16 24  1  0  0  0  0 
 24 25  1  0  0  0  0 
 21 26  1  0  0  0  0 
 26 27  2  0  0  0  0 
 26 28  1  0  0  0  0 
 28 29  1  0  0  0  0 
 29 30  1  0  0  0  0 
 29 31  1  0  0  0  0 
 29 32  1  0  0  0  0 
 32 33  1  0  0  0  0 
 32 34  1  0  0  0  0 
 32 35  1  0  0  0  0 
 35 36  1  0  0  0  0 
 36 37  1  0  0  0  0 
 36 38  1  0  0  0  0 
 36 39  1  0  0  0  0 
 39 40  1  0  0  0  0 
 39 41  1  0  0  0  0 
 39 42  1  0  0  0  0 
 42 43  1  0  0  0  0 
 43 44  1  0  0  0  0 
 43 45  1  0  0  0  0 
 43 46  1  0  0  0  0 
 46 47  1  0  0  0  0 
 46 48  1  0  0  0  0 
 46 49  1  0  0  0  0 
 49 50  1  0  0  0  0 
 50 51  1  0  0  0  0 
 50 52  1  0  0  0  0 
 50 53  1  0  0  0  0 
 53 54  1  0  0  0  0 
 53 55  1  0  0  0  0 
 53 56  1  0  0  0  0 
 56 57  1  0  0  0  0 
 57 58  1  0  0  0  0 
 57 59  1  0  0  0  0 
 57 60  1  0  0  0  0 
 60 61  1  0  0  0  0 
 60 62  1  0  0  0  0 
 60 63  1  0  0  0  0 
 63 64  1  0  0  0  0 
 64 65  1  0  0  0  0 
 64 66  1  0  0  0  0 
 64 67  1  0  0  0  0 
 67 68  1  0  0  0  0 
 67 69  1  0  0  0  0 
 67 70  1  0  0  0  0 
 70 71  1  0  0  0  0 
M  END
> <Rank>
22

> <Priority_score>
0.12

> <Reaction_type>
O-dealkylation_(aliphatic)

> <Parent_ID>
18

> <Parent_InChI>
InChI=1S/C30H53NO11/c1-3-4-9-31-29-7-5-28(6-8-29)30(32)42-27-26-41-25-24-40-23-22-39-21-20-38-19-18-37-17-16-36-15-14-35-13-12-34-11-10-33-2/h5-8,31H,3-4,9-27H2,1-2H3

> <Parent_SMILES>
CCCCNc1ccc(C(=O)OCCOCCOCCOCCOCCOCCOCCOCCOCCOC)cc1

$$$$
Molecule 18_metabolite 26
  CDK     0516241031

 25 24  0  0  0  0  0  0  0  0999 V2000
   15.0173    4.6707    0.0000 C   0  0  0  0  0  0  0  0  0  0  0  0
   15.0173    3.1707    0.0000 H   0  0  0  0  0  0  0  0  0  0  0  0
   16.4945    4.4102    0.0000 H   0  0  0  0  0  0  0  0  0  0  0  0
   15.5303    6.0802    0.0000 H   0  0  0  0  0  0  0  0  0  0  0  0
   13.7182    5.4207    0.0000 O   0  0  0  0  0  0  0  0  0  0  0  0
   12.4192    4.6707    0.0000 C   0  0  0  0  0  0  0  0  0  0  0  0
   13.3834    3.5216    0.0000 H   0  0  0  0  0  0  0  0  0  0  0  0
   11.4550    3.5216    0.0000 H   0  0  0  0  0  0  0  0  0  0  0  0
   11.1202    5.4207    0.0000 C   0  0  0  0  0  0  0  0  0  0  0  0
   10.1560    6.5698    0.0000 H   0  0  0  0  0  0  0  0  0  0  0  0
   12.0843    6.5698    0.0000 H   0  0  0  0  0  0  0  0  0  0  0  0
    9.4054    4.4307    0.0000 O   0  0  0  0  0  0  0  0  0  0  0  0
    8.1064    5.1807    0.0000 C   0  0  0  0  0  0  0  0  0  0  0  0
    7.1422    6.3298    0.0000 H   0  0  0  0  0  0  0  0  0  0  0  0
    9.0706    6.3298    0.0000 H   0  0  0  0  0  0  0  0  0  0  0  0
    6.8074    4.4307    0.0000 C   0  0  0  0  0  0  0  0  0  0  0  0
    7.7715    3.2816    0.0000 H   0  0  0  0  0  0  0  0  0  0  0  0
    5.8432    3.2816    0.0000 H   0  0  0  0  0  0  0  0  0  0  0  0
    5.5083    5.1807    0.0000 O   0  0  0  0  0  0  0  0  0  0  0  0
    4.2093    4.4307    0.0000 C   0  0  0  0  0  0  0  0  0  0  0  0
    3.6963    5.8402    0.0000 H   0  0  0  0  0  0  0  0  0  0  0  0
    2.7321    4.1702    0.0000 H   0  0  0  0  0  0  0  0  0  0  0  0
    4.2093    2.9307    0.0000 C   0  0  0  0  0  0  0  0  0  0  0  0
    2.9102    2.1807    0.0000 H   0  0  0  0  0  0  0  0  0  0  0  0
    5.5083    2.1807    0.0000 O   0  0  0  0  0  0  0  0  0  0  0  0
  1  2  1  0  0  0  0 
  1  3  1  0  0  0  0 
  1  4  1  0  0  0  0 
  1  5  1  0  0  0  0 
  5  6  1  0  0  0  0 
  6  7  1  0  0  0  0 
  6  8  1  0  0  0  0 
  6  9  1  0  0  0  0 
  9 10  1  0  0  0  0 
  9 11  1  0  0  0  0 
  9 12  1  0  0  0  0 
 12 13  1  0  0  0  0 
 13 14  1  0  0  0  0 
 13 15  1  0  0  0  0 
 13 16  1  0  0  0  0 
 16 17  1  0  0  0  0 
 16 18  1  0  0  0  0 
 16 19  1  0  0  0  0 
 19 20  1  0  0  0  0 
 20 21  1  0  0  0  0 
 20 22  1  0  0  0  0 
 20 23  1  0  0  0  0 
 23 24  1  0  0  0  0 
 23 25  2  0  0  0  0 
M  END
> <Rank>
22

> <Priority_score>
0.12

> <Reaction_type>
oxidative ether cleavage to one alcohol and one aldehyde/ketone

> <Parent_ID>
18

> <Parent_InChI>
InChI=1S/C30H53NO11/c1-3-4-9-31-29-7-5-28(6-8-29)30(32)42-27-26-41-25-24-40-23-22-39-21-20-38-19-18-37-17-16-36-15-14-35-13-12-34-11-10-33-2/h5-8,31H,3-4,9-27H2,1-2H3

> <Parent_SMILES>
CCCCNc1ccc(C(=O)OCCOCCOCCOCCOCCOCCOCCOCCOCCOC)cc1

$$$$
Molecule 18_metabolite 27
  CDK     0516241031

 43 43  0  0  0  0  0  0  0  0999 V2000
    8.6264   -1.9812    0.0000 C   0  0  0  0  0  0  0  0  0  0  0  0
    8.6261   -3.4812    0.0000 H   0  0  0  0  0  0  0  0  0  0  0  0
    9.1396   -0.5717    0.0000 H   0  0  0  0  0  0  0  0  0  0  0  0
   10.1035   -2.2419    0.0000 H   0  0  0  0  0  0  0  0  0  0  0  0
    7.3275   -1.2310    0.0000 C   0  0  0  0  0  0  0  0  0  0  0  0
    8.2918   -0.0821    0.0000 H   0  0  0  0  0  0  0  0  0  0  0  0
    6.3635   -0.0817    0.0000 H   0  0  0  0  0  0  0  0  0  0  0  0
    6.0283   -1.9808    0.0000 C   0  0  0  0  0  0  0  0  0  0  0  0
    5.0639   -3.1297    0.0000 H   0  0  0  0  0  0  0  0  0  0  0  0
    6.9923   -3.1300    0.0000 H   0  0  0  0  0  0  0  0  0  0  0  0
    4.3137   -0.9905    0.0000 C   0  0  0  0  0  0  0  0  0  0  0  0
    5.2781    0.1584    0.0000 H   0  0  0  0  0  0  0  0  0  0  0  0
    3.3497    0.1587    0.0000 H   0  0  0  0  0  0  0  0  0  0  0  0
    3.0146   -1.7403    0.0000 N   0  0  0  0  0  0  0  0  0  0  0  0
    3.0143   -3.2403    0.0000 H   0  0  0  0  0  0  0  0  0  0  0  0
    1.7157   -0.9901    0.0000 C   0  0  0  0  0  0  0  0  0  0  0  0
    0.4157   -1.7401    0.0000 C   0  0  0  0  0  0  0  0  0  0  0  0
    0.4157   -3.2401    0.0000 H   0  0  0  0  0  0  0  0  0  0  0  0
   -0.8843   -0.9901    0.0000 C   0  0  0  0  0  0  0  0  0  0  0  0
   -2.1833   -1.7403    0.0000 H   0  0  0  0  0  0  0  0  0  0  0  0
   -0.8843    0.5099    0.0000 C   0  0  0  0  0  0  0  0  0  0  0  0
    0.4157    1.2599    0.0000 C   0  0  0  0  0  0  0  0  0  0  0  0
    0.4157    2.7599    0.0000 H   0  0  0  0  0  0  0  0  0  0  0  0
    1.7157    0.5099    0.0000 C   0  0  0  0  0  0  0  0  0  0  0  0
    3.0146    1.2601    0.0000 H   0  0  0  0  0  0  0  0  0  0  0  0
   -2.1833    1.2601    0.0000 C   0  0  0  0  0  0  0  0  0  0  0  0
   -2.1830    2.7601    0.0000 O   0  0  0  0  0  0  0  0  0  0  0  0
   -3.4824    0.5103    0.0000 O   0  0  0  0  0  0  0  0  0  0  0  0
   -4.7813    1.2606    0.0000 C   0  0  0  0  0  0  0  0  0  0  0  0
   -3.8170    2.4095    0.0000 H   0  0  0  0  0  0  0  0  0  0  0  0
   -5.7453    2.4098    0.0000 H   0  0  0  0  0  0  0  0  0  0  0  0
   -6.0805    0.5108    0.0000 C   0  0  0  0  0  0  0  0  0  0  0  0
   -7.0449   -0.6381    0.0000 H   0  0  0  0  0  0  0  0  0  0  0  0
   -5.1165   -0.6385    0.0000 H   0  0  0  0  0  0  0  0  0  0  0  0
   -7.7951    1.5010    0.0000 O   0  0  0  0  0  0  0  0  0  0  0  0
   -9.0942    0.7512    0.0000 C   0  0  0  0  0  0  0  0  0  0  0  0
  -10.0586   -0.3977    0.0000 H   0  0  0  0  0  0  0  0  0  0  0  0
   -8.1302   -0.3980    0.0000 H   0  0  0  0  0  0  0  0  0  0  0  0
  -10.3931    1.5015    0.0000 C   0  0  0  0  0  0  0  0  0  0  0  0
   -9.4288    2.6504    0.0000 H   0  0  0  0  0  0  0  0  0  0  0  0
  -11.3571    2.6507    0.0000 H   0  0  0  0  0  0  0  0  0  0  0  0
  -11.6923    0.7517    0.0000 O   0  0  0  0  0  0  0  0  0  0  0  0
  -12.9912    1.5019    0.0000 H   0  0  0  0  0  0  0  0  0  0  0  0
  1  2  1  0  0  0  0 
  1  3  1  0  0  0  0 
  1  4  1  0  0  0  0 
  1  5  1  0  0  0  0 
  5  6  1  0  0  0  0 
  5  7  1  0  0  0  0 
  5  8  1  0  0  0  0 
  8  9  1  0  0  0  0 
  8 10  1  0  0  0  0 
  8 11  1  0  0  0  0 
 11 12  1  0  0  0  0 
 11 13  1  0  0  0  0 
 11 14  1  0  0  0  0 
 14 15  1  0  0  0  0 
 14 16  1  0  0  0  0 
 16 17  2  0  0  0  0 
 17 18  1  0  0  0  0 
 17 19  1  0  0  0  0 
 19 20  1  0  0  0  0 
 19 21  2  0  0  0  0 
 21 22  1  0  0  0  0 
 22 23  1  0  0  0  0 
 22 24  2  0  0  0  0 
 16 24  1  0  0  0  0 
 24 25  1  0  0  0  0 
 21 26  1  0  0  0  0 
 26 27  2  0  0  0  0 
 26 28  1  0  0  0  0 
 28 29  1  0  0  0  0 
 29 30  1  0  0  0  0 
 29 31  1  0  0  0  0 
 29 32  1  0  0  0  0 
 32 33  1  0  0  0  0 
 32 34  1  0  0  0  0 
 32 35  1  0  0  0  0 
 35 36  1  0  0  0  0 
 36 37  1  0  0  0  0 
 36 38  1  0  0  0  0 
 36 39  1  0  0  0  0 
 39 40  1  0  0  0  0 
 39 41  1  0  0  0  0 
 39 42  1  0  0  0  0 
 42 43  1  0  0  0  0 
M  END
> <Rank>
27

> <Priority_score>
0.112

> <Reaction_type>
O-dealkylation_(aliphatic)

> <Parent_ID>
18

> <Parent_InChI>
InChI=1S/C30H53NO11/c1-3-4-9-31-29-7-5-28(6-8-29)30(32)42-27-26-41-25-24-40-23-22-39-21-20-38-19-18-37-17-16-36-15-14-35-13-12-34-11-10-33-2/h5-8,31H,3-4,9-27H2,1-2H3

> <Parent_SMILES>
CCCCNc1ccc(C(=O)OCCOCCOCCOCCOCCOCCOCCOCCOCCOC)cc1

$$$$
Molecule 18_metabolite 28
  CDK     0516241031

 41 41  0  0  0  0  0  0  0  0999 V2000
    8.6264   -1.9812    0.0000 C   0  0  0  0  0  0  0  0  0  0  0  0
    8.6261   -3.4812    0.0000 H   0  0  0  0  0  0  0  0  0  0  0  0
    9.1396   -0.5717    0.0000 H   0  0  0  0  0  0  0  0  0  0  0  0
   10.1035   -2.2419    0.0000 H   0  0  0  0  0  0  0  0  0  0  0  0
    7.3275   -1.2310    0.0000 C   0  0  0  0  0  0  0  0  0  0  0  0
    8.2918   -0.0821    0.0000 H   0  0  0  0  0  0  0  0  0  0  0  0
    6.3635   -0.0817    0.0000 H   0  0  0  0  0  0  0  0  0  0  0  0
    6.0283   -1.9808    0.0000 C   0  0  0  0  0  0  0  0  0  0  0  0
    5.0639   -3.1297    0.0000 H   0  0  0  0  0  0  0  0  0  0  0  0
    6.9923   -3.1300    0.0000 H   0  0  0  0  0  0  0  0  0  0  0  0
    4.3137   -0.9905    0.0000 C   0  0  0  0  0  0  0  0  0  0  0  0
    5.2781    0.1584    0.0000 H   0  0  0  0  0  0  0  0  0  0  0  0
    3.3497    0.1587    0.0000 H   0  0  0  0  0  0  0  0  0  0  0  0
    3.0146   -1.7403    0.0000 N   0  0  0  0  0  0  0  0  0  0  0  0
    3.0143   -3.2403    0.0000 H   0  0  0  0  0  0  0  0  0  0  0  0
    1.7157   -0.9901    0.0000 C   0  0  0  0  0  0  0  0  0  0  0  0
    0.4157   -1.7401    0.0000 C   0  0  0  0  0  0  0  0  0  0  0  0
    0.4157   -3.2401    0.0000 H   0  0  0  0  0  0  0  0  0  0  0  0
   -0.8843   -0.9901    0.0000 C   0  0  0  0  0  0  0  0  0  0  0  0
   -2.1833   -1.7403    0.0000 H   0  0  0  0  0  0  0  0  0  0  0  0
   -0.8843    0.5099    0.0000 C   0  0  0  0  0  0  0  0  0  0  0  0
    0.4157    1.2599    0.0000 C   0  0  0  0  0  0  0  0  0  0  0  0
    0.4157    2.7599    0.0000 H   0  0  0  0  0  0  0  0  0  0  0  0
    1.7157    0.5099    0.0000 C   0  0  0  0  0  0  0  0  0  0  0  0
    3.0146    1.2601    0.0000 H   0  0  0  0  0  0  0  0  0  0  0  0
   -2.1833    1.2601    0.0000 C   0  0  0  0  0  0  0  0  0  0  0  0
   -2.1830    2.7601    0.0000 O   0  0  0  0  0  0  0  0  0  0  0  0
   -3.4824    0.5103    0.0000 O   0  0  0  0  0  0  0  0  0  0  0  0
   -4.7813    1.2606    0.0000 C   0  0  0  0  0  0  0  0  0  0  0  0
   -3.8170    2.4095    0.0000 H   0  0  0  0  0  0  0  0  0  0  0  0
   -5.7453    2.4098    0.0000 H   0  0  0  0  0  0  0  0  0  0  0  0
   -6.0805    0.5108    0.0000 C   0  0  0  0  0  0  0  0  0  0  0  0
   -7.0449   -0.6381    0.0000 H   0  0  0  0  0  0  0  0  0  0  0  0
   -5.1165   -0.6385    0.0000 H   0  0  0  0  0  0  0  0  0  0  0  0
   -7.7951    1.5010    0.0000 O   0  0  0  0  0  0  0  0  0  0  0  0
   -9.0942    0.7512    0.0000 C   0  0  0  0  0  0  0  0  0  0  0  0
  -10.0586   -0.3977    0.0000 H   0  0  0  0  0  0  0  0  0  0  0  0
   -8.1302   -0.3980    0.0000 H   0  0  0  0  0  0  0  0  0  0  0  0
  -10.3931    1.5015    0.0000 C   0  0  0  0  0  0  0  0  0  0  0  0
  -11.6923    0.7517    0.0000 H   0  0  0  0  0  0  0  0  0  0  0  0
  -10.3929    3.0015    0.0000 O   0  0  0  0  0  0  0  0  0  0  0  0
  1  2  1  0  0  0  0 
  1  3  1  0  0  0  0 
  1  4  1  0  0  0  0 
  1  5  1  0  0  0  0 
  5  6  1  0  0  0  0 
  5  7  1  0  0  0  0 
  5  8  1  0  0  0  0 
  8  9  1  0  0  0  0 
  8 10  1  0  0  0  0 
  8 11  1  0  0  0  0 
 11 12  1  0  0  0  0 
 11 13  1  0  0  0  0 
 11 14  1  0  0  0  0 
 14 15  1  0  0  0  0 
 14 16  1  0  0  0  0 
 16 17  2  0  0  0  0 
 17 18  1  0  0  0  0 
 17 19  1  0  0  0  0 
 19 20  1  0  0  0  0 
 19 21  2  0  0  0  0 
 21 22  1  0  0  0  0 
 22 23  1  0  0  0  0 
 22 24  2  0  0  0  0 
 16 24  1  0  0  0  0 
 24 25  1  0  0  0  0 
 21 26  1  0  0  0  0 
 26 27  2  0  0  0  0 
 26 28  1  0  0  0  0 
 28 29  1  0  0  0  0 
 29 30  1  0  0  0  0 
 29 31  1  0  0  0  0 
 29 32  1  0  0  0  0 
 32 33  1  0  0  0  0 
 32 34  1  0  0  0  0 
 32 35  1  0  0  0  0 
 35 36  1  0  0  0  0 
 36 37  1  0  0  0  0 
 36 38  1  0  0  0  0 
 36 39  1  0  0  0  0 
 39 40  1  0  0  0  0 
 39 41  2  0  0  0  0 
M  END
> <Rank>
27

> <Priority_score>
0.112

> <Reaction_type>
oxidative ether cleavage to one alcohol and one aldehyde/ketone

> <Parent_ID>
18

> <Parent_InChI>
InChI=1S/C30H53NO11/c1-3-4-9-31-29-7-5-28(6-8-29)30(32)42-27-26-41-25-24-40-23-22-39-21-20-38-19-18-37-17-16-36-15-14-35-13-12-34-11-10-33-2/h5-8,31H,3-4,9-27H2,1-2H3

> <Parent_SMILES>
CCCCNc1ccc(C(=O)OCCOCCOCCOCCOCCOCCOCCOCCOCCOC)cc1

$$$$
Molecule 18_metabolite 29
  CDK     0516241031

 53 52  0  0  0  0  0  0  0  0999 V2000
   29.6477    0.2400    0.0000 C   0  0  0  0  0  0  0  0  0  0  0  0
   29.6477    1.7400    0.0000 H   0  0  0  0  0  0  0  0  0  0  0  0
   31.1250    0.5005    0.0000 H   0  0  0  0  0  0  0  0  0  0  0  0
   30.1608   -1.1695    0.0000 H   0  0  0  0  0  0  0  0  0  0  0  0
   28.3487   -0.5100    0.0000 O   0  0  0  0  0  0  0  0  0  0  0  0
   27.0497    0.2400    0.0000 C   0  0  0  0  0  0  0  0  0  0  0  0
   28.0138    1.3891    0.0000 H   0  0  0  0  0  0  0  0  0  0  0  0
   26.0855    1.3891    0.0000 H   0  0  0  0  0  0  0  0  0  0  0  0
   25.7506   -0.5100    0.0000 C   0  0  0  0  0  0  0  0  0  0  0  0
   24.7864   -1.6591    0.0000 H   0  0  0  0  0  0  0  0  0  0  0  0
   26.7148   -1.6591    0.0000 H   0  0  0  0  0  0  0  0  0  0  0  0
   24.4516    0.2400    0.0000 O   0  0  0  0  0  0  0  0  0  0  0  0
   22.7369   -0.7500    0.0000 C   0  0  0  0  0  0  0  0  0  0  0  0
   21.7727   -1.8991    0.0000 H   0  0  0  0  0  0  0  0  0  0  0  0
   23.7010   -1.8991    0.0000 H   0  0  0  0  0  0  0  0  0  0  0  0
   21.4378   -0.0000    0.0000 C   0  0  0  0  0  0  0  0  0  0  0  0
   22.4020    1.1491    0.0000 H   0  0  0  0  0  0  0  0  0  0  0  0
   20.4736    1.1491    0.0000 H   0  0  0  0  0  0  0  0  0  0  0  0
   20.1388   -0.7500    0.0000 O   0  0  0  0  0  0  0  0  0  0  0  0
   18.4241    0.2400    0.0000 C   0  0  0  0  0  0  0  0  0  0  0  0
   19.3882    1.3891    0.0000 H   0  0  0  0  0  0  0  0  0  0  0  0
   17.4599    1.3891    0.0000 H   0  0  0  0  0  0  0  0  0  0  0  0
   17.1250   -0.5100    0.0000 C   0  0  0  0  0  0  0  0  0  0  0  0
   16.1608   -1.6591    0.0000 H   0  0  0  0  0  0  0  0  0  0  0  0
   18.0892   -1.6591    0.0000 H   0  0  0  0  0  0  0  0  0  0  0  0
   15.8260    0.2400    0.0000 O   0  0  0  0  0  0  0  0  0  0  0  0
   14.1112   -0.7500    0.0000 C   0  0  0  0  0  0  0  0  0  0  0  0
   13.1471   -1.8991    0.0000 H   0  0  0  0  0  0  0  0  0  0  0  0
   15.0754   -1.8991    0.0000 H   0  0  0  0  0  0  0  0  0  0  0  0
   12.8122   -0.0000    0.0000 C   0  0  0  0  0  0  0  0  0  0  0  0
   13.7764    1.1491    0.0000 H   0  0  0  0  0  0  0  0  0  0  0  0
   11.8480    1.1491    0.0000 H   0  0  0  0  0  0  0  0  0  0  0  0
   11.0975   -0.9900    0.0000 O   0  0  0  0  0  0  0  0  0  0  0  0
    9.7984   -0.2400    0.0000 C   0  0  0  0  0  0  0  0  0  0  0  0
   10.7626    0.9091    0.0000 H   0  0  0  0  0  0  0  0  0  0  0  0
    8.8343    0.9091    0.0000 H   0  0  0  0  0  0  0  0  0  0  0  0
    8.4994   -0.9900    0.0000 C   0  0  0  0  0  0  0  0  0  0  0  0
    7.5352   -2.1391    0.0000 H   0  0  0  0  0  0  0  0  0  0  0  0
    9.4636   -2.1391    0.0000 H   0  0  0  0  0  0  0  0  0  0  0  0
    6.7847   -0.0000    0.0000 O   0  0  0  0  0  0  0  0  0  0  0  0
    5.4856   -0.7500    0.0000 C   0  0  0  0  0  0  0  0  0  0  0  0
    4.5215   -1.8991    0.0000 H   0  0  0  0  0  0  0  0  0  0  0  0
    6.4498   -1.8991    0.0000 H   0  0  0  0  0  0  0  0  0  0  0  0
    4.1866   -0.0000    0.0000 C   0  0  0  0  0  0  0  0  0  0  0  0
    5.1508    1.1491    0.0000 H   0  0  0  0  0  0  0  0  0  0  0  0
    3.2224    1.1491    0.0000 H   0  0  0  0  0  0  0  0  0  0  0  0
    2.4719   -0.9900    0.0000 O   0  0  0  0  0  0  0  0  0  0  0  0
    1.1728   -0.2400    0.0000 C   0  0  0  0  0  0  0  0  0  0  0  0
    2.1370    0.9091    0.0000 H   0  0  0  0  0  0  0  0  0  0  0  0
    0.2086    0.9091    0.0000 H   0  0  0  0  0  0  0  0  0  0  0  0
   -0.1262   -0.9900    0.0000 C   0  0  0  0  0  0  0  0  0  0  0  0
   -1.4253   -0.2400    0.0000 H   0  0  0  0  0  0  0  0  0  0  0  0
   -0.1262   -2.4900    0.0000 O   0  0  0  0  0  0  0  0  0  0  0  0
  1  2  1  0  0  0  0 
  1  3  1  0  0  0  0 
  1  4  1  0  0  0  0 
  1  5  1  0  0  0  0 
  5  6  1  0  0  0  0 
  6  7  1  0  0  0  0 
  6  8  1  0  0  0  0 
  6  9  1  0  0  0  0 
  9 10  1  0  0  0  0 
  9 11  1  0  0  0  0 
  9 12  1  0  0  0  0 
 12 13  1  0  0  0  0 
 13 14  1  0  0  0  0 
 13 15  1  0  0  0  0 
 13 16  1  0  0  0  0 
 16 17  1  0  0  0  0 
 16 18  1  0  0  0  0 
 16 19  1  0  0  0  0 
 19 20  1  0  0  0  0 
 20 21  1  0  0  0  0 
 20 22  1  0  0  0  0 
 20 23  1  0  0  0  0 
 23 24  1  0  0  0  0 
 23 25  1  0  0  0  0 
 23 26  1  0  0  0  0 
 26 27  1  0  0  0  0 
 27 28  1  0  0  0  0 
 27 29  1  0  0  0  0 
 27 30  1  0  0  0  0 
 30 31  1  0  0  0  0 
 30 32  1  0  0  0  0 
 30 33  1  0  0  0  0 
 33 34  1  0  0  0  0 
 34 35  1  0  0  0  0 
 34 36  1  0  0  0  0 
 34 37  1  0  0  0  0 
 37 38  1  0  0  0  0 
 37 39  1  0  0  0  0 
 37 40  1  0  0  0  0 
 40 41  1  0  0  0  0 
 41 42  1  0  0  0  0 
 41 43  1  0  0  0  0 
 41 44  1  0  0  0  0 
 44 45  1  0  0  0  0 
 44 46  1  0  0  0  0 
 44 47  1  0  0  0  0 
 47 48  1  0  0  0  0 
 48 49  1  0  0  0  0 
 48 50  1  0  0  0  0 
 48 51  1  0  0  0  0 
 51 52  1  0  0  0  0 
 51 53  2  0  0  0  0 
M  END
> <Rank>
27

> <Priority_score>
0.112

> <Reaction_type>
oxidative ether cleavage to one alcohol and one aldehyde/ketone

> <Parent_ID>
18

> <Parent_InChI>
InChI=1S/C30H53NO11/c1-3-4-9-31-29-7-5-28(6-8-29)30(32)42-27-26-41-25-24-40-23-22-39-21-20-38-19-18-37-17-16-36-15-14-35-13-12-34-11-10-33-2/h5-8,31H,3-4,9-27H2,1-2H3

> <Parent_SMILES>
CCCCNc1ccc(C(=O)OCCOCCOCCOCCOCCOCCOCCOCCOCCOC)cc1

$$$$
Molecule 18_metabolite 30
  CDK     0516241031

 55 54  0  0  0  0  0  0  0  0999 V2000
   30.9468   -0.1109    0.0000 C   0  0  0  0  0  0  0  0  0  0  0  0
   30.9468    1.3891    0.0000 H   0  0  0  0  0  0  0  0  0  0  0  0
   32.4240    0.1495    0.0000 H   0  0  0  0  0  0  0  0  0  0  0  0
   31.4598   -1.5205    0.0000 H   0  0  0  0  0  0  0  0  0  0  0  0
   29.6477   -0.8609    0.0000 O   0  0  0  0  0  0  0  0  0  0  0  0
   28.3487   -0.1109    0.0000 C   0  0  0  0  0  0  0  0  0  0  0  0
   29.3129    1.0381    0.0000 H   0  0  0  0  0  0  0  0  0  0  0  0
   27.3845    1.0381    0.0000 H   0  0  0  0  0  0  0  0  0  0  0  0
   27.0497   -0.8609    0.0000 C   0  0  0  0  0  0  0  0  0  0  0  0
   26.0855   -2.0100    0.0000 H   0  0  0  0  0  0  0  0  0  0  0  0
   28.0138   -2.0100    0.0000 H   0  0  0  0  0  0  0  0  0  0  0  0
   25.7506   -0.1109    0.0000 O   0  0  0  0  0  0  0  0  0  0  0  0
   24.0359   -1.1009    0.0000 C   0  0  0  0  0  0  0  0  0  0  0  0
   23.0717   -2.2500    0.0000 H   0  0  0  0  0  0  0  0  0  0  0  0
   25.0001   -2.2500    0.0000 H   0  0  0  0  0  0  0  0  0  0  0  0
   22.7369   -0.3509    0.0000 C   0  0  0  0  0  0  0  0  0  0  0  0
   23.7010    0.7981    0.0000 H   0  0  0  0  0  0  0  0  0  0  0  0
   21.7727    0.7981    0.0000 H   0  0  0  0  0  0  0  0  0  0  0  0
   21.4378   -1.1009    0.0000 O   0  0  0  0  0  0  0  0  0  0  0  0
   19.7231   -0.1109    0.0000 C   0  0  0  0  0  0  0  0  0  0  0  0
   20.6873    1.0381    0.0000 H   0  0  0  0  0  0  0  0  0  0  0  0
   18.7589    1.0381    0.0000 H   0  0  0  0  0  0  0  0  0  0  0  0
   18.4241   -0.8609    0.0000 C   0  0  0  0  0  0  0  0  0  0  0  0
   17.4599   -2.0100    0.0000 H   0  0  0  0  0  0  0  0  0  0  0  0
   19.3882   -2.0100    0.0000 H   0  0  0  0  0  0  0  0  0  0  0  0
   17.1250   -0.1109    0.0000 O   0  0  0  0  0  0  0  0  0  0  0  0
   15.4103   -1.1009    0.0000 C   0  0  0  0  0  0  0  0  0  0  0  0
   14.4461   -2.2500    0.0000 H   0  0  0  0  0  0  0  0  0  0  0  0
   16.3745   -2.2500    0.0000 H   0  0  0  0  0  0  0  0  0  0  0  0
   14.1112   -0.3509    0.0000 C   0  0  0  0  0  0  0  0  0  0  0  0
   15.0754    0.7981    0.0000 H   0  0  0  0  0  0  0  0  0  0  0  0
   13.1471    0.7981    0.0000 H   0  0  0  0  0  0  0  0  0  0  0  0
   12.3965   -1.3409    0.0000 O   0  0  0  0  0  0  0  0  0  0  0  0
   11.0975   -0.5909    0.0000 C   0  0  0  0  0  0  0  0  0  0  0  0
   12.0617    0.5581    0.0000 H   0  0  0  0  0  0  0  0  0  0  0  0
   10.1333    0.5581    0.0000 H   0  0  0  0  0  0  0  0  0  0  0  0
    9.7984   -1.3409    0.0000 C   0  0  0  0  0  0  0  0  0  0  0  0
    8.8343   -2.4900    0.0000 H   0  0  0  0  0  0  0  0  0  0  0  0
   10.7626   -2.4900    0.0000 H   0  0  0  0  0  0  0  0  0  0  0  0
    8.0837   -0.3509    0.0000 O   0  0  0  0  0  0  0  0  0  0  0  0
    6.7847   -1.1009    0.0000 C   0  0  0  0  0  0  0  0  0  0  0  0
    5.8205   -2.2500    0.0000 H   0  0  0  0  0  0  0  0  0  0  0  0
    7.7489   -2.2500    0.0000 H   0  0  0  0  0  0  0  0  0  0  0  0
    5.4856   -0.3509    0.0000 C   0  0  0  0  0  0  0  0  0  0  0  0
    6.4498    0.7981    0.0000 H   0  0  0  0  0  0  0  0  0  0  0  0
    4.5215    0.7981    0.0000 H   0  0  0  0  0  0  0  0  0  0  0  0
    3.7709   -1.3409    0.0000 O   0  0  0  0  0  0  0  0  0  0  0  0
    2.4719   -0.5909    0.0000 C   0  0  0  0  0  0  0  0  0  0  0  0
    3.4360    0.5581    0.0000 H   0  0  0  0  0  0  0  0  0  0  0  0
    1.5077    0.5581    0.0000 H   0  0  0  0  0  0  0  0  0  0  0  0
    1.1728   -1.3409    0.0000 C   0  0  0  0  0  0  0  0  0  0  0  0
    0.2086   -2.4900    0.0000 H   0  0  0  0  0  0  0  0  0  0  0  0
    2.1370   -2.4900    0.0000 H   0  0  0  0  0  0  0  0  0  0  0  0
   -0.1262   -0.5909    0.0000 O   0  0  0  0  0  0  0  0  0  0  0  0
   -1.4253   -1.3409    0.0000 H   0  0  0  0  0  0  0  0  0  0  0  0
  1  2  1  0  0  0  0 
  1  3  1  0  0  0  0 
  1  4  1  0  0  0  0 
  1  5  1  0  0  0  0 
  5  6  1  0  0  0  0 
  6  7  1  0  0  0  0 
  6  8  1  0  0  0  0 
  6  9  1  0  0  0  0 
  9 10  1  0  0  0  0 
  9 11  1  0  0  0  0 
  9 12  1  0  0  0  0 
 12 13  1  0  0  0  0 
 13 14  1  0  0  0  0 
 13 15  1  0  0  0  0 
 13 16  1  0  0  0  0 
 16 17  1  0  0  0  0 
 16 18  1  0  0  0  0 
 16 19  1  0  0  0  0 
 19 20  1  0  0  0  0 
 20 21  1  0  0  0  0 
 20 22  1  0  0  0  0 
 20 23  1  0  0  0  0 
 23 24  1  0  0  0  0 
 23 25  1  0  0  0  0 
 23 26  1  0  0  0  0 
 26 27  1  0  0  0  0 
 27 28  1  0  0  0  0 
 27 29  1  0  0  0  0 
 27 30  1  0  0  0  0 
 30 31  1  0  0  0  0 
 30 32  1  0  0  0  0 
 30 33  1  0  0  0  0 
 33 34  1  0  0  0  0 
 34 35  1  0  0  0  0 
 34 36  1  0  0  0  0 
 34 37  1  0  0  0  0 
 37 38  1  0  0  0  0 
 37 39  1  0  0  0  0 
 37 40  1  0  0  0  0 
 40 41  1  0  0  0  0 
 41 42  1  0  0  0  0 
 41 43  1  0  0  0  0 
 41 44  1  0  0  0  0 
 44 45  1  0  0  0  0 
 44 46  1  0  0  0  0 
 44 47  1  0  0  0  0 
 47 48  1  0  0  0  0 
 48 49  1  0  0  0  0 
 48 50  1  0  0  0  0 
 48 51  1  0  0  0  0 
 51 52  1  0  0  0  0 
 51 53  1  0  0  0  0 
 51 54  1  0  0  0  0 
 54 55  1  0  0  0  0 
M  END
> <Rank>
27

> <Priority_score>
0.112

> <Reaction_type>
O-dealkylation_(aliphatic)

> <Parent_ID>
18

> <Parent_InChI>
InChI=1S/C30H53NO11/c1-3-4-9-31-29-7-5-28(6-8-29)30(32)42-27-26-41-25-24-40-23-22-39-21-20-38-19-18-37-17-16-36-15-14-35-13-12-34-11-10-33-2/h5-8,31H,3-4,9-27H2,1-2H3

> <Parent_SMILES>
CCCCNc1ccc(C(=O)OCCOCCOCCOCCOCCOCCOCCOCCOCCOC)cc1

$$$$
Molecule 18_metabolite 31
  CDK     0516241031

 96 96  0  0  0  0  0  0  0  0999 V2000
  -42.3497    2.3510    0.0000 C   0  0  0  0  0  0  0  0  0  0  0  0
  -42.3495    3.8510    0.0000 H   0  0  0  0  0  0  0  0  0  0  0  0
  -42.8630    0.9416    0.0000 H   0  0  0  0  0  0  0  0  0  0  0  0
  -43.8269    2.6117    0.0000 H   0  0  0  0  0  0  0  0  0  0  0  0
  -41.0508    1.6008    0.0000 C   0  0  0  0  0  0  0  0  0  0  0  0
  -42.0152    0.4519    0.0000 H   0  0  0  0  0  0  0  0  0  0  0  0
  -40.0868    0.4516    0.0000 H   0  0  0  0  0  0  0  0  0  0  0  0
  -39.7516    2.3506    0.0000 C   0  0  0  0  0  0  0  0  0  0  0  0
  -38.7873    3.4995    0.0000 H   0  0  0  0  0  0  0  0  0  0  0  0
  -40.7156    3.4998    0.0000 H   0  0  0  0  0  0  0  0  0  0  0  0
  -38.0371    1.3603    0.0000 C   0  0  0  0  0  0  0  0  0  0  0  0
  -39.0014    0.2114    0.0000 H   0  0  0  0  0  0  0  0  0  0  0  0
  -37.0731    0.2111    0.0000 H   0  0  0  0  0  0  0  0  0  0  0  0
  -36.7379    2.1101    0.0000 N   0  0  0  0  0  0  0  0  0  0  0  0
  -36.7377    3.6101    0.0000 H   0  0  0  0  0  0  0  0  0  0  0  0
  -35.4390    1.3599    0.0000 C   0  0  0  0  0  0  0  0  0  0  0  0
  -34.1390    2.1099    0.0000 C   0  0  0  0  0  0  0  0  0  0  0  0
  -34.1390    3.6099    0.0000 H   0  0  0  0  0  0  0  0  0  0  0  0
  -32.8390    1.3599    0.0000 C   0  0  0  0  0  0  0  0  0  0  0  0
  -31.5401    2.1101    0.0000 H   0  0  0  0  0  0  0  0  0  0  0  0
  -32.8390   -0.1401    0.0000 C   0  0  0  0  0  0  0  0  0  0  0  0
  -34.1390   -0.8901    0.0000 C   0  0  0  0  0  0  0  0  0  0  0  0
  -34.1390   -2.3901    0.0000 H   0  0  0  0  0  0  0  0  0  0  0  0
  -35.4390   -0.1401    0.0000 C   0  0  0  0  0  0  0  0  0  0  0  0
  -36.7379   -0.8903    0.0000 H   0  0  0  0  0  0  0  0  0  0  0  0
  -31.5401   -0.8903    0.0000 C   0  0  0  0  0  0  0  0  0  0  0  0
  -31.5403   -2.3903    0.0000 O   0  0  0  0  0  0  0  0  0  0  0  0
  -30.2409   -0.1405    0.0000 O   0  0  0  0  0  0  0  0  0  0  0  0
  -28.9420   -0.8907    0.0000 C   0  0  0  0  0  0  0  0  0  0  0  0
  -29.9064   -2.0396    0.0000 H   0  0  0  0  0  0  0  0  0  0  0  0
  -27.9780   -2.0399    0.0000 H   0  0  0  0  0  0  0  0  0  0  0  0
  -27.6428   -0.1409    0.0000 C   0  0  0  0  0  0  0  0  0  0  0  0
  -26.6785    1.0080    0.0000 H   0  0  0  0  0  0  0  0  0  0  0  0
  -28.6068    1.0083    0.0000 H   0  0  0  0  0  0  0  0  0  0  0  0
  -25.9283   -1.1312    0.0000 O   0  0  0  0  0  0  0  0  0  0  0  0
  -24.6291   -0.3814    0.0000 C   0  0  0  0  0  0  0  0  0  0  0  0
  -23.6648    0.7675    0.0000 H   0  0  0  0  0  0  0  0  0  0  0  0
  -25.5931    0.7678    0.0000 H   0  0  0  0  0  0  0  0  0  0  0  0
  -23.3302   -1.1316    0.0000 C   0  0  0  0  0  0  0  0  0  0  0  0
  -24.2946   -2.2805    0.0000 H   0  0  0  0  0  0  0  0  0  0  0  0
  -22.3662   -2.2808    0.0000 H   0  0  0  0  0  0  0  0  0  0  0  0
  -22.0310   -0.3818    0.0000 O   0  0  0  0  0  0  0  0  0  0  0  0
  -20.3165   -1.3721    0.0000 C   0  0  0  0  0  0  0  0  0  0  0  0
  -21.2808   -2.5210    0.0000 H   0  0  0  0  0  0  0  0  0  0  0  0
  -19.0173   -0.6223    0.0000 C   0  0  0  0  0  0  0  0  0  0  0  0
  -18.0529    0.5266    0.0000 H   0  0  0  0  0  0  0  0  0  0  0  0
  -19.9813    0.5269    0.0000 H   0  0  0  0  0  0  0  0  0  0  0  0
  -17.7184   -1.3725    0.0000 O   0  0  0  0  0  0  0  0  0  0  0  0
  -16.0035   -0.3828    0.0000 C   0  0  0  0  0  0  0  0  0  0  0  0
  -15.0391    0.7661    0.0000 H   0  0  0  0  0  0  0  0  0  0  0  0
  -16.9675    0.7664    0.0000 H   0  0  0  0  0  0  0  0  0  0  0  0
  -14.7046   -1.1330    0.0000 C   0  0  0  0  0  0  0  0  0  0  0  0
  -15.6690   -2.2819    0.0000 H   0  0  0  0  0  0  0  0  0  0  0  0
  -13.7406   -2.2822    0.0000 H   0  0  0  0  0  0  0  0  0  0  0  0
  -12.9897   -0.1433    0.0000 O   0  0  0  0  0  0  0  0  0  0  0  0
  -11.6908   -0.8935    0.0000 C   0  0  0  0  0  0  0  0  0  0  0  0
  -12.6551   -2.0424    0.0000 H   0  0  0  0  0  0  0  0  0  0  0  0
  -10.7268   -2.0427    0.0000 H   0  0  0  0  0  0  0  0  0  0  0  0
  -10.3916   -0.1437    0.0000 C   0  0  0  0  0  0  0  0  0  0  0  0
   -9.4273    1.0052    0.0000 H   0  0  0  0  0  0  0  0  0  0  0  0
  -11.3556    1.0055    0.0000 H   0  0  0  0  0  0  0  0  0  0  0  0
   -9.0927   -0.8939    0.0000 O   0  0  0  0  0  0  0  0  0  0  0  0
   -7.3778    0.0958    0.0000 C   0  0  0  0  0  0  0  0  0  0  0  0
   -6.4135    1.2448    0.0000 H   0  0  0  0  0  0  0  0  0  0  0  0
   -8.3418    1.2451    0.0000 H   0  0  0  0  0  0  0  0  0  0  0  0
   -6.0789   -0.6544    0.0000 C   0  0  0  0  0  0  0  0  0  0  0  0
   -7.0433   -1.8033    0.0000 H   0  0  0  0  0  0  0  0  0  0  0  0
   -5.1149   -1.8036    0.0000 H   0  0  0  0  0  0  0  0  0  0  0  0
   -4.3640    0.3354    0.0000 O   0  0  0  0  0  0  0  0  0  0  0  0
   -3.0651   -0.4149    0.0000 C   0  0  0  0  0  0  0  0  0  0  0  0
   -4.0295   -1.5638    0.0000 H   0  0  0  0  0  0  0  0  0  0  0  0
   -2.1011   -1.5641    0.0000 H   0  0  0  0  0  0  0  0  0  0  0  0
   -1.7659    0.3349    0.0000 C   0  0  0  0  0  0  0  0  0  0  0  0
   -0.8016    1.4839    0.0000 H   0  0  0  0  0  0  0  0  0  0  0  0
   -2.7299    1.4842    0.0000 H   0  0  0  0  0  0  0  0  0  0  0  0
   -0.4670   -0.4153    0.0000 O   0  0  0  0  0  0  0  0  0  0  0  0
    1.2479    0.5745    0.0000 C   0  0  0  0  0  0  0  0  0  0  0  0
    2.2122    1.7234    0.0000 H   0  0  0  0  0  0  0  0  0  0  0  0
    0.2839    1.7237    0.0000 H   0  0  0  0  0  0  0  0  0  0  0  0
    2.5468   -0.1757    0.0000 C   0  0  0  0  0  0  0  0  0  0  0  0
    1.5824   -1.3247    0.0000 H   0  0  0  0  0  0  0  0  0  0  0  0
    3.5108   -1.3250    0.0000 H   0  0  0  0  0  0  0  0  0  0  0  0
    4.2617    0.8140    0.0000 O   0  0  0  0  0  0  0  0  0  0  0  0
    5.5606    0.0638    0.0000 C   0  0  0  0  0  0  0  0  0  0  0  0
    4.5962   -1.0851    0.0000 H   0  0  0  0  0  0  0  0  0  0  0  0
    6.5246   -1.0855    0.0000 H   0  0  0  0  0  0  0  0  0  0  0  0
    6.8598    0.8136    0.0000 C   0  0  0  0  0  0  0  0  0  0  0  0
    7.8241    1.9625    0.0000 H   0  0  0  0  0  0  0  0  0  0  0  0
    5.8958    1.9628    0.0000 H   0  0  0  0  0  0  0  0  0  0  0  0
    8.1587    0.0634    0.0000 O   0  0  0  0  0  0  0  0  0  0  0  0
    9.4578    0.8131    0.0000 C   0  0  0  0  0  0  0  0  0  0  0  0
    9.4581    2.3131    0.0000 H   0  0  0  0  0  0  0  0  0  0  0  0
   10.9351    1.0734    0.0000 H   0  0  0  0  0  0  0  0  0  0  0  0
    9.9706   -0.5965    0.0000 H   0  0  0  0  0  0  0  0  0  0  0  0
  -19.3525   -2.5213    0.0000 O   0  0  0  0  0  0  0  0  0  0  0  0
  -17.8752   -2.2611    0.0000 H   0  0  0  0  0  0  0  0  0  0  0  0
  1  2  1  0  0  0  0 
  1  3  1  0  0  0  0 
  1  4  1  0  0  0  0 
  1  5  1  0  0  0  0 
  5  6  1  0  0  0  0 
  5  7  1  0  0  0  0 
  5  8  1  0  0  0  0 
  8  9  1  0  0  0  0 
  8 10  1  0  0  0  0 
  8 11  1  0  0  0  0 
 11 12  1  0  0  0  0 
 11 13  1  0  0  0  0 
 11 14  1  0  0  0  0 
 14 15  1  0  0  0  0 
 14 16  1  0  0  0  0 
 16 17  2  0  0  0  0 
 17 18  1  0  0  0  0 
 17 19  1  0  0  0  0 
 19 20  1  0  0  0  0 
 19 21  2  0  0  0  0 
 21 22  1  0  0  0  0 
 22 23  1  0  0  0  0 
 22 24  2  0  0  0  0 
 16 24  1  0  0  0  0 
 24 25  1  0  0  0  0 
 21 26  1  0  0  0  0 
 26 27  2  0  0  0  0 
 26 28  1  0  0  0  0 
 28 29  1  0  0  0  0 
 29 30  1  0  0  0  0 
 29 31  1  0  0  0  0 
 29 32  1  0  0  0  0 
 32 33  1  0  0  0  0 
 32 34  1  0  0  0  0 
 32 35  1  0  0  0  0 
 35 36  1  0  0  0  0 
 36 37  1  0  0  0  0 
 36 38  1  0  0  0  0 
 36 39  1  0  0  0  0 
 39 40  1  0  0  0  0 
 39 41  1  0  0  0  0 
 39 42  1  0  0  0  0 
 42 43  1  0  0  0  0 
 43 44  1  0  0  0  0 
 43 45  1  0  0  0  0 
 45 46  1  0  0  0  0 
 45 47  1  0  0  0  0 
 45 48  1  0  0  0  0 
 48 49  1  0  0  0  0 
 49 50  1  0  0  0  0 
 49 51  1  0  0  0  0 
 49 52  1  0  0  0  0 
 52 53  1  0  0  0  0 
 52 54  1  0  0  0  0 
 52 55  1  0  0  0  0 
 55 56  1  0  0  0  0 
 56 57  1  0  0  0  0 
 56 58  1  0  0  0  0 
 56 59  1  0  0  0  0 
 59 60  1  0  0  0  0 
 59 61  1  0  0  0  0 
 59 62  1  0  0  0  0 
 62 63  1  0  0  0  0 
 63 64  1  0  0  0  0 
 63 65  1  0  0  0  0 
 63 66  1  0  0  0  0 
 66 67  1  0  0  0  0 
 66 68  1  0  0  0  0 
 66 69  1  0  0  0  0 
 69 70  1  0  0  0  0 
 70 71  1  0  0  0  0 
 70 72  1  0  0  0  0 
 70 73  1  0  0  0  0 
 73 74  1  0  0  0  0 
 73 75  1  0  0  0  0 
 73 76  1  0  0  0  0 
 76 77  1  0  0  0  0 
 77 78  1  0  0  0  0 
 77 79  1  0  0  0  0 
 77 80  1  0  0  0  0 
 80 81  1  0  0  0  0 
 80 82  1  0  0  0  0 
 80 83  1  0  0  0  0 
 83 84  1  0  0  0  0 
 84 85  1  0  0  0  0 
 84 86  1  0  0  0  0 
 84 87  1  0  0  0  0 
 87 88  1  0  0  0  0 
 87 89  1  0  0  0  0 
 87 90  1  0  0  0  0 
 90 91  1  0  0  0  0 
 91 92  1  0  0  0  0 
 91 93  1  0  0  0  0 
 91 94  1  0  0  0  0 
 43 95  1  0  0  0  0 
 95 96  1  0  0  0  0 
M  END
> <Rank>
27

> <Priority_score>
0.112

> <Reaction_type>
aliphatic hydroxylation

> <Parent_ID>
18

> <Parent_InChI>
InChI=1S/C30H53NO11/c1-3-4-9-31-29-7-5-28(6-8-29)30(32)42-27-26-41-25-24-40-23-22-39-21-20-38-19-18-37-17-16-36-15-14-35-13-12-34-11-10-33-2/h5-8,31H,3-4,9-27H2,1-2H3

> <Parent_SMILES>
CCCCNc1ccc(C(=O)OCCOCCOCCOCCOCCOCCOCCOCCOCCOC)cc1

$$$$
Molecule 18_metabolite 32
  CDK     0516241031

 20 19  0  0  0  0  0  0  0  0999 V2000
   10.2141   -0.1109    0.0000 C   0  0  0  0  0  0  0  0  0  0  0  0
   10.2141    1.3891    0.0000 H   0  0  0  0  0  0  0  0  0  0  0  0
   11.6913    0.1495    0.0000 H   0  0  0  0  0  0  0  0  0  0  0  0
   10.7272   -1.5205    0.0000 H   0  0  0  0  0  0  0  0  0  0  0  0
    8.9151   -0.8609    0.0000 O   0  0  0  0  0  0  0  0  0  0  0  0
    7.6161   -0.1109    0.0000 C   0  0  0  0  0  0  0  0  0  0  0  0
    8.5802    1.0381    0.0000 H   0  0  0  0  0  0  0  0  0  0  0  0
    6.6519    1.0381    0.0000 H   0  0  0  0  0  0  0  0  0  0  0  0
    6.3170   -0.8609    0.0000 C   0  0  0  0  0  0  0  0  0  0  0  0
    5.3528   -2.0100    0.0000 H   0  0  0  0  0  0  0  0  0  0  0  0
    7.2812   -2.0100    0.0000 H   0  0  0  0  0  0  0  0  0  0  0  0
    4.6023    0.1291    0.0000 O   0  0  0  0  0  0  0  0  0  0  0  0
    3.3032   -0.6209    0.0000 C   0  0  0  0  0  0  0  0  0  0  0  0
    2.3391   -1.7700    0.0000 H   0  0  0  0  0  0  0  0  0  0  0  0
    4.2674   -1.7700    0.0000 H   0  0  0  0  0  0  0  0  0  0  0  0
    2.0042    0.1291    0.0000 C   0  0  0  0  0  0  0  0  0  0  0  0
    2.9684    1.2781    0.0000 H   0  0  0  0  0  0  0  0  0  0  0  0
    1.0400    1.2781    0.0000 H   0  0  0  0  0  0  0  0  0  0  0  0
    0.7052   -0.6209    0.0000 O   0  0  0  0  0  0  0  0  0  0  0  0
   -0.5939    0.1291    0.0000 H   0  0  0  0  0  0  0  0  0  0  0  0
  1  2  1  0  0  0  0 
  1  3  1  0  0  0  0 
  1  4  1  0  0  0  0 
  1  5  1  0  0  0  0 
  5  6  1  0  0  0  0 
  6  7  1  0  0  0  0 
  6  8  1  0  0  0  0 
  6  9  1  0  0  0  0 
  9 10  1  0  0  0  0 
  9 11  1  0  0  0  0 
  9 12  1  0  0  0  0 
 12 13  1  0  0  0  0 
 13 14  1  0  0  0  0 
 13 15  1  0  0  0  0 
 13 16  1  0  0  0  0 
 16 17  1  0  0  0  0 
 16 18  1  0  0  0  0 
 16 19  1  0  0  0  0 
 19 20  1  0  0  0  0 
M  END
> <Rank>
32

> <Priority_score>
0.11120337197049525

> <Reaction_type>
O-dealkylation_(aliphatic)

> <Parent_ID>
18

> <Parent_InChI>
InChI=1S/C30H53NO11/c1-3-4-9-31-29-7-5-28(6-8-29)30(32)42-27-26-41-25-24-40-23-22-39-21-20-38-19-18-37-17-16-36-15-14-35-13-12-34-11-10-33-2/h5-8,31H,3-4,9-27H2,1-2H3

> <Parent_SMILES>
CCCCNc1ccc(C(=O)OCCOCCOCCOCCOCCOCCOCCOCCOCCOC)cc1

$$$$
Molecule 18_metabolite 33
  CDK     0516241031

 78 78  0  0  0  0  0  0  0  0999 V2000
    9.8734   -2.2214    0.0000 C   0  0  0  0  0  0  0  0  0  0  0  0
    9.8732   -3.7214    0.0000 H   0  0  0  0  0  0  0  0  0  0  0  0
   10.3867   -0.8119    0.0000 H   0  0  0  0  0  0  0  0  0  0  0  0
   11.3506   -2.4821    0.0000 H   0  0  0  0  0  0  0  0  0  0  0  0
    8.5745   -1.4712    0.0000 C   0  0  0  0  0  0  0  0  0  0  0  0
    9.5389   -0.3223    0.0000 H   0  0  0  0  0  0  0  0  0  0  0  0
    7.6105   -0.3219    0.0000 H   0  0  0  0  0  0  0  0  0  0  0  0
    7.2753   -2.2210    0.0000 C   0  0  0  0  0  0  0  0  0  0  0  0
    6.3110   -3.3699    0.0000 H   0  0  0  0  0  0  0  0  0  0  0  0
    8.2393   -3.3702    0.0000 H   0  0  0  0  0  0  0  0  0  0  0  0
    5.5608   -1.2307    0.0000 C   0  0  0  0  0  0  0  0  0  0  0  0
    6.5251   -0.0818    0.0000 H   0  0  0  0  0  0  0  0  0  0  0  0
    4.5968   -0.0815    0.0000 H   0  0  0  0  0  0  0  0  0  0  0  0
    4.2616   -1.9805    0.0000 N   0  0  0  0  0  0  0  0  0  0  0  0
    4.2614   -3.4805    0.0000 H   0  0  0  0  0  0  0  0  0  0  0  0
    2.9627   -1.2303    0.0000 C   0  0  0  0  0  0  0  0  0  0  0  0
    1.6627   -1.9803    0.0000 C   0  0  0  0  0  0  0  0  0  0  0  0
    1.6627   -3.4803    0.0000 H   0  0  0  0  0  0  0  0  0  0  0  0
    0.3627   -1.2303    0.0000 C   0  0  0  0  0  0  0  0  0  0  0  0
   -0.9362   -1.9805    0.0000 H   0  0  0  0  0  0  0  0  0  0  0  0
    0.3627    0.2697    0.0000 C   0  0  0  0  0  0  0  0  0  0  0  0
    1.6627    1.0197    0.0000 C   0  0  0  0  0  0  0  0  0  0  0  0
    1.6627    2.5197    0.0000 H   0  0  0  0  0  0  0  0  0  0  0  0
    2.9627    0.2697    0.0000 C   0  0  0  0  0  0  0  0  0  0  0  0
    4.2616    1.0199    0.0000 H   0  0  0  0  0  0  0  0  0  0  0  0
   -0.9362    1.0199    0.0000 C   0  0  0  0  0  0  0  0  0  0  0  0
   -0.9360    2.5199    0.0000 O   0  0  0  0  0  0  0  0  0  0  0  0
   -2.2354    0.2701    0.0000 O   0  0  0  0  0  0  0  0  0  0  0  0
   -3.5343    1.0204    0.0000 C   0  0  0  0  0  0  0  0  0  0  0  0
   -2.5699    2.1693    0.0000 H   0  0  0  0  0  0  0  0  0  0  0  0
   -4.4983    2.1696    0.0000 H   0  0  0  0  0  0  0  0  0  0  0  0
   -4.8335    0.2706    0.0000 C   0  0  0  0  0  0  0  0  0  0  0  0
   -5.7978   -0.8783    0.0000 H   0  0  0  0  0  0  0  0  0  0  0  0
   -3.8695   -0.8787    0.0000 H   0  0  0  0  0  0  0  0  0  0  0  0
   -6.5480    1.2608    0.0000 O   0  0  0  0  0  0  0  0  0  0  0  0
   -7.8472    0.5110    0.0000 C   0  0  0  0  0  0  0  0  0  0  0  0
   -8.8116   -0.6379    0.0000 H   0  0  0  0  0  0  0  0  0  0  0  0
   -6.8832   -0.6382    0.0000 H   0  0  0  0  0  0  0  0  0  0  0  0
   -9.1461    1.2613    0.0000 C   0  0  0  0  0  0  0  0  0  0  0  0
   -8.1817    2.4102    0.0000 H   0  0  0  0  0  0  0  0  0  0  0  0
  -10.1101    2.4105    0.0000 H   0  0  0  0  0  0  0  0  0  0  0  0
  -10.4453    0.5115    0.0000 O   0  0  0  0  0  0  0  0  0  0  0  0
  -12.1598    1.5017    0.0000 C   0  0  0  0  0  0  0  0  0  0  0  0
  -11.1955    2.6507    0.0000 H   0  0  0  0  0  0  0  0  0  0  0  0
  -13.1238    2.6510    0.0000 H   0  0  0  0  0  0  0  0  0  0  0  0
  -13.4590    0.7519    0.0000 C   0  0  0  0  0  0  0  0  0  0  0  0
  -14.4234   -0.3970    0.0000 H   0  0  0  0  0  0  0  0  0  0  0  0
  -12.4950   -0.3973    0.0000 H   0  0  0  0  0  0  0  0  0  0  0  0
  -15.1736    1.7422    0.0000 O   0  0  0  0  0  0  0  0  0  0  0  0
  -16.4727    0.9924    0.0000 C   0  0  0  0  0  0  0  0  0  0  0  0
  -17.4371   -0.1565    0.0000 H   0  0  0  0  0  0  0  0  0  0  0  0
  -15.5087   -0.1568    0.0000 H   0  0  0  0  0  0  0  0  0  0  0  0
  -17.7716    1.7426    0.0000 C   0  0  0  0  0  0  0  0  0  0  0  0
  -16.8073    2.8916    0.0000 H   0  0  0  0  0  0  0  0  0  0  0  0
  -18.7356    2.8919    0.0000 H   0  0  0  0  0  0  0  0  0  0  0  0
  -19.0708    0.9928    0.0000 O   0  0  0  0  0  0  0  0  0  0  0  0
  -20.7854    1.9831    0.0000 C   0  0  0  0  0  0  0  0  0  0  0  0
  -19.8210    3.1320    0.0000 H   0  0  0  0  0  0  0  0  0  0  0  0
  -21.7494    3.1323    0.0000 H   0  0  0  0  0  0  0  0  0  0  0  0
  -22.0845    1.2333    0.0000 C   0  0  0  0  0  0  0  0  0  0  0  0
  -23.0489    0.0844    0.0000 H   0  0  0  0  0  0  0  0  0  0  0  0
  -21.1205    0.0841    0.0000 H   0  0  0  0  0  0  0  0  0  0  0  0
  -23.7991    2.2236    0.0000 O   0  0  0  0  0  0  0  0  0  0  0  0
  -25.0983    1.4738    0.0000 C   0  0  0  0  0  0  0  0  0  0  0  0
  -26.0626    0.3249    0.0000 H   0  0  0  0  0  0  0  0  0  0  0  0
  -24.1343    0.3246    0.0000 H   0  0  0  0  0  0  0  0  0  0  0  0
  -26.3972    2.2240    0.0000 C   0  0  0  0  0  0  0  0  0  0  0  0
  -25.4328    3.3729    0.0000 H   0  0  0  0  0  0  0  0  0  0  0  0
  -27.3612    3.3732    0.0000 H   0  0  0  0  0  0  0  0  0  0  0  0
  -28.1121    1.2343    0.0000 O   0  0  0  0  0  0  0  0  0  0  0  0
  -29.4110    1.9845    0.0000 C   0  0  0  0  0  0  0  0  0  0  0  0
  -28.4466    3.1334    0.0000 H   0  0  0  0  0  0  0  0  0  0  0  0
  -30.3750    3.1337    0.0000 H   0  0  0  0  0  0  0  0  0  0  0  0
  -30.7101    1.2347    0.0000 C   0  0  0  0  0  0  0  0  0  0  0  0
  -31.6745    0.0858    0.0000 H   0  0  0  0  0  0  0  0  0  0  0  0
  -29.7461    0.0855    0.0000 H   0  0  0  0  0  0  0  0  0  0  0  0
  -32.0091    1.9849    0.0000 O   0  0  0  0  0  0  0  0  0  0  0  0
  -33.3082    1.2351    0.0000 H   0  0  0  0  0  0  0  0  0  0  0  0
  1  2  1  0  0  0  0 
  1  3  1  0  0  0  0 
  1  4  1  0  0  0  0 
  1  5  1  0  0  0  0 
  5  6  1  0  0  0  0 
  5  7  1  0  0  0  0 
  5  8  1  0  0  0  0 
  8  9  1  0  0  0  0 
  8 10  1  0  0  0  0 
  8 11  1  0  0  0  0 
 11 12  1  0  0  0  0 
 11 13  1  0  0  0  0 
 11 14  1  0  0  0  0 
 14 15  1  0  0  0  0 
 14 16  1  0  0  0  0 
 16 17  2  0  0  0  0 
 17 18  1  0  0  0  0 
 17 19  1  0  0  0  0 
 19 20  1  0  0  0  0 
 19 21  2  0  0  0  0 
 21 22  1  0  0  0  0 
 22 23  1  0  0  0  0 
 22 24  2  0  0  0  0 
 16 24  1  0  0  0  0 
 24 25  1  0  0  0  0 
 21 26  1  0  0  0  0 
 26 27  2  0  0  0  0 
 26 28  1  0  0  0  0 
 28 29  1  0  0  0  0 
 29 30  1  0  0  0  0 
 29 31  1  0  0  0  0 
 29 32  1  0  0  0  0 
 32 33  1  0  0  0  0 
 32 34  1  0  0  0  0 
 32 35  1  0  0  0  0 
 35 36  1  0  0  0  0 
 36 37  1  0  0  0  0 
 36 38  1  0  0  0  0 
 36 39  1  0  0  0  0 
 39 40  1  0  0  0  0 
 39 41  1  0  0  0  0 
 39 42  1  0  0  0  0 
 42 43  1  0  0  0  0 
 43 44  1  0  0  0  0 
 43 45  1  0  0  0  0 
 43 46  1  0  0  0  0 
 46 47  1  0  0  0  0 
 46 48  1  0  0  0  0 
 46 49  1  0  0  0  0 
 49 50  1  0  0  0  0 
 50 51  1  0  0  0  0 
 50 52  1  0  0  0  0 
 50 53  1  0  0  0  0 
 53 54  1  0  0  0  0 
 53 55  1  0  0  0  0 
 53 56  1  0  0  0  0 
 56 57  1  0  0  0  0 
 57 58  1  0  0  0  0 
 57 59  1  0  0  0  0 
 57 60  1  0  0  0  0 
 60 61  1  0  0  0  0 
 60 62  1  0  0  0  0 
 60 63  1  0  0  0  0 
 63 64  1  0  0  0  0 
 64 65  1  0  0  0  0 
 64 66  1  0  0  0  0 
 64 67  1  0  0  0  0 
 67 68  1  0  0  0  0 
 67 69  1  0  0  0  0 
 67 70  1  0  0  0  0 
 70 71  1  0  0  0  0 
 71 72  1  0  0  0  0 
 71 73  1  0  0  0  0 
 71 74  1  0  0  0  0 
 74 75  1  0  0  0  0 
 74 76  1  0  0  0  0 
 74 77  1  0  0  0  0 
 77 78  1  0  0  0  0 
M  END
> <Rank>
32

> <Priority_score>
0.11120337197049525

> <Reaction_type>
O-dealkylation_(aliphatic)

> <Parent_ID>
18

> <Parent_InChI>
InChI=1S/C30H53NO11/c1-3-4-9-31-29-7-5-28(6-8-29)30(32)42-27-26-41-25-24-40-23-22-39-21-20-38-19-18-37-17-16-36-15-14-35-13-12-34-11-10-33-2/h5-8,31H,3-4,9-27H2,1-2H3

> <Parent_SMILES>
CCCCNc1ccc(C(=O)OCCOCCOCCOCCOCCOCCOCCOCCOCCOC)cc1

$$$$
Molecule 18_metabolite 34
  CDK     0516241031

 76 76  0  0  0  0  0  0  0  0999 V2000
   10.2891   -1.9814    0.0000 C   0  0  0  0  0  0  0  0  0  0  0  0
   10.2889   -3.4814    0.0000 H   0  0  0  0  0  0  0  0  0  0  0  0
   10.8024   -0.5720    0.0000 H   0  0  0  0  0  0  0  0  0  0  0  0
   11.7663   -2.2421    0.0000 H   0  0  0  0  0  0  0  0  0  0  0  0
    8.9902   -1.2312    0.0000 C   0  0  0  0  0  0  0  0  0  0  0  0
    9.9546   -0.0823    0.0000 H   0  0  0  0  0  0  0  0  0  0  0  0
    8.0262   -0.0820    0.0000 H   0  0  0  0  0  0  0  0  0  0  0  0
    7.6911   -1.9810    0.0000 C   0  0  0  0  0  0  0  0  0  0  0  0
    6.7267   -3.1299    0.0000 H   0  0  0  0  0  0  0  0  0  0  0  0
    8.6551   -3.1302    0.0000 H   0  0  0  0  0  0  0  0  0  0  0  0
    5.9765   -0.9907    0.0000 C   0  0  0  0  0  0  0  0  0  0  0  0
    6.9409    0.1582    0.0000 H   0  0  0  0  0  0  0  0  0  0  0  0
    5.0125    0.1585    0.0000 H   0  0  0  0  0  0  0  0  0  0  0  0
    4.6773   -1.7405    0.0000 N   0  0  0  0  0  0  0  0  0  0  0  0
    4.6771   -3.2405    0.0000 H   0  0  0  0  0  0  0  0  0  0  0  0
    3.3784   -0.9903    0.0000 C   0  0  0  0  0  0  0  0  0  0  0  0
    2.0784   -1.7403    0.0000 C   0  0  0  0  0  0  0  0  0  0  0  0
    2.0784   -3.2403    0.0000 H   0  0  0  0  0  0  0  0  0  0  0  0
    0.7784   -0.9903    0.0000 C   0  0  0  0  0  0  0  0  0  0  0  0
   -0.5205   -1.7405    0.0000 H   0  0  0  0  0  0  0  0  0  0  0  0
    0.7784    0.5097    0.0000 C   0  0  0  0  0  0  0  0  0  0  0  0
    2.0784    1.2597    0.0000 C   0  0  0  0  0  0  0  0  0  0  0  0
    2.0784    2.7597    0.0000 H   0  0  0  0  0  0  0  0  0  0  0  0
    3.3784    0.5097    0.0000 C   0  0  0  0  0  0  0  0  0  0  0  0
    4.6773    1.2599    0.0000 H   0  0  0  0  0  0  0  0  0  0  0  0
   -0.5205    1.2599    0.0000 C   0  0  0  0  0  0  0  0  0  0  0  0
   -0.5203    2.7599    0.0000 O   0  0  0  0  0  0  0  0  0  0  0  0
   -1.8197    0.5101    0.0000 O   0  0  0  0  0  0  0  0  0  0  0  0
   -3.1186    1.2603    0.0000 C   0  0  0  0  0  0  0  0  0  0  0  0
   -2.1542    2.4092    0.0000 H   0  0  0  0  0  0  0  0  0  0  0  0
   -4.0826    2.4095    0.0000 H   0  0  0  0  0  0  0  0  0  0  0  0
   -4.4177    0.5105    0.0000 C   0  0  0  0  0  0  0  0  0  0  0  0
   -5.3821   -0.6384    0.0000 H   0  0  0  0  0  0  0  0  0  0  0  0
   -3.4537   -0.6387    0.0000 H   0  0  0  0  0  0  0  0  0  0  0  0
   -6.1323    1.5008    0.0000 O   0  0  0  0  0  0  0  0  0  0  0  0
   -7.4315    0.7510    0.0000 C   0  0  0  0  0  0  0  0  0  0  0  0
   -8.3958   -0.3979    0.0000 H   0  0  0  0  0  0  0  0  0  0  0  0
   -6.4675   -0.3982    0.0000 H   0  0  0  0  0  0  0  0  0  0  0  0
   -8.7304    1.5012    0.0000 C   0  0  0  0  0  0  0  0  0  0  0  0
   -7.7660    2.6501    0.0000 H   0  0  0  0  0  0  0  0  0  0  0  0
   -9.6944    2.6504    0.0000 H   0  0  0  0  0  0  0  0  0  0  0  0
  -10.0295    0.7514    0.0000 O   0  0  0  0  0  0  0  0  0  0  0  0
  -11.7441    1.7417    0.0000 C   0  0  0  0  0  0  0  0  0  0  0  0
  -10.7797    2.8906    0.0000 H   0  0  0  0  0  0  0  0  0  0  0  0
  -12.7081    2.8909    0.0000 H   0  0  0  0  0  0  0  0  0  0  0  0
  -13.0433    0.9919    0.0000 C   0  0  0  0  0  0  0  0  0  0  0  0
  -14.0076   -0.1570    0.0000 H   0  0  0  0  0  0  0  0  0  0  0  0
  -12.0793   -0.1573    0.0000 H   0  0  0  0  0  0  0  0  0  0  0  0
  -14.7578    1.9822    0.0000 O   0  0  0  0  0  0  0  0  0  0  0  0
  -16.0570    1.2324    0.0000 C   0  0  0  0  0  0  0  0  0  0  0  0
  -17.0214    0.0835    0.0000 H   0  0  0  0  0  0  0  0  0  0  0  0
  -15.0930    0.0831    0.0000 H   0  0  0  0  0  0  0  0  0  0  0  0
  -17.3559    1.9826    0.0000 C   0  0  0  0  0  0  0  0  0  0  0  0
  -16.3915    3.1315    0.0000 H   0  0  0  0  0  0  0  0  0  0  0  0
  -18.3199    3.1318    0.0000 H   0  0  0  0  0  0  0  0  0  0  0  0
  -19.0708    0.9928    0.0000 O   0  0  0  0  0  0  0  0  0  0  0  0
  -20.3697    1.7431    0.0000 C   0  0  0  0  0  0  0  0  0  0  0  0
  -19.4054    2.8920    0.0000 H   0  0  0  0  0  0  0  0  0  0  0  0
  -21.3337    2.8923    0.0000 H   0  0  0  0  0  0  0  0  0  0  0  0
  -21.6689    0.9933    0.0000 C   0  0  0  0  0  0  0  0  0  0  0  0
  -22.6332   -0.1556    0.0000 H   0  0  0  0  0  0  0  0  0  0  0  0
  -20.7049   -0.1560    0.0000 H   0  0  0  0  0  0  0  0  0  0  0  0
  -23.3834    1.9835    0.0000 O   0  0  0  0  0  0  0  0  0  0  0  0
  -24.6826    1.2337    0.0000 C   0  0  0  0  0  0  0  0  0  0  0  0
  -25.6470    0.0848    0.0000 H   0  0  0  0  0  0  0  0  0  0  0  0
  -23.7186    0.0845    0.0000 H   0  0  0  0  0  0  0  0  0  0  0  0
  -25.9815    1.9840    0.0000 C   0  0  0  0  0  0  0  0  0  0  0  0
  -25.0172    3.1329    0.0000 H   0  0  0  0  0  0  0  0  0  0  0  0
  -26.9455    3.1332    0.0000 H   0  0  0  0  0  0  0  0  0  0  0  0
  -27.6964    0.9942    0.0000 O   0  0  0  0  0  0  0  0  0  0  0  0
  -28.9953    1.7444    0.0000 C   0  0  0  0  0  0  0  0  0  0  0  0
  -28.0310    2.8933    0.0000 H   0  0  0  0  0  0  0  0  0  0  0  0
  -29.9593    2.8937    0.0000 H   0  0  0  0  0  0  0  0  0  0  0  0
  -30.2945    0.9946    0.0000 C   0  0  0  0  0  0  0  0  0  0  0  0
  -31.5934    1.7449    0.0000 H   0  0  0  0  0  0  0  0  0  0  0  0
  -30.2947   -0.5054    0.0000 O   0  0  0  0  0  0  0  0  0  0  0  0
  1  2  1  0  0  0  0 
  1  3  1  0  0  0  0 
  1  4  1  0  0  0  0 
  1  5  1  0  0  0  0 
  5  6  1  0  0  0  0 
  5  7  1  0  0  0  0 
  5  8  1  0  0  0  0 
  8  9  1  0  0  0  0 
  8 10  1  0  0  0  0 
  8 11  1  0  0  0  0 
 11 12  1  0  0  0  0 
 11 13  1  0  0  0  0 
 11 14  1  0  0  0  0 
 14 15  1  0  0  0  0 
 14 16  1  0  0  0  0 
 16 17  2  0  0  0  0 
 17 18  1  0  0  0  0 
 17 19  1  0  0  0  0 
 19 20  1  0  0  0  0 
 19 21  2  0  0  0  0 
 21 22  1  0  0  0  0 
 22 23  1  0  0  0  0 
 22 24  2  0  0  0  0 
 16 24  1  0  0  0  0 
 24 25  1  0  0  0  0 
 21 26  1  0  0  0  0 
 26 27  2  0  0  0  0 
 26 28  1  0  0  0  0 
 28 29  1  0  0  0  0 
 29 30  1  0  0  0  0 
 29 31  1  0  0  0  0 
 29 32  1  0  0  0  0 
 32 33  1  0  0  0  0 
 32 34  1  0  0  0  0 
 32 35  1  0  0  0  0 
 35 36  1  0  0  0  0 
 36 37  1  0  0  0  0 
 36 38  1  0  0  0  0 
 36 39  1  0  0  0  0 
 39 40  1  0  0  0  0 
 39 41  1  0  0  0  0 
 39 42  1  0  0  0  0 
 42 43  1  0  0  0  0 
 43 44  1  0  0  0  0 
 43 45  1  0  0  0  0 
 43 46  1  0  0  0  0 
 46 47  1  0  0  0  0 
 46 48  1  0  0  0  0 
 46 49  1  0  0  0  0 
 49 50  1  0  0  0  0 
 50 51  1  0  0  0  0 
 50 52  1  0  0  0  0 
 50 53  1  0  0  0  0 
 53 54  1  0  0  0  0 
 53 55  1  0  0  0  0 
 53 56  1  0  0  0  0 
 56 57  1  0  0  0  0 
 57 58  1  0  0  0  0 
 57 59  1  0  0  0  0 
 57 60  1  0  0  0  0 
 60 61  1  0  0  0  0 
 60 62  1  0  0  0  0 
 60 63  1  0  0  0  0 
 63 64  1  0  0  0  0 
 64 65  1  0  0  0  0 
 64 66  1  0  0  0  0 
 64 67  1  0  0  0  0 
 67 68  1  0  0  0  0 
 67 69  1  0  0  0  0 
 67 70  1  0  0  0  0 
 70 71  1  0  0  0  0 
 71 72  1  0  0  0  0 
 71 73  1  0  0  0  0 
 71 74  1  0  0  0  0 
 74 75  1  0  0  0  0 
 74 76  2  0  0  0  0 
M  END
> <Rank>
32

> <Priority_score>
0.11120337197049525

> <Reaction_type>
oxidative ether cleavage to one alcohol and one aldehyde/ketone

> <Parent_ID>
18

> <Parent_InChI>
InChI=1S/C30H53NO11/c1-3-4-9-31-29-7-5-28(6-8-29)30(32)42-27-26-41-25-24-40-23-22-39-21-20-38-19-18-37-17-16-36-15-14-35-13-12-34-11-10-33-2/h5-8,31H,3-4,9-27H2,1-2H3

> <Parent_SMILES>
CCCCNc1ccc(C(=O)OCCOCCOCCOCCOCCOCCOCCOCCOCCOC)cc1

$$$$
Molecule 18_metabolite 35
  CDK     0516241031

 96 96  0  0  0  0  0  0  0  0999 V2000
    9.8735   -1.7414    0.0000 C   0  0  0  0  0  0  0  0  0  0  0  0
    9.8733   -3.2414    0.0000 H   0  0  0  0  0  0  0  0  0  0  0  0
   10.3867   -0.3319    0.0000 H   0  0  0  0  0  0  0  0  0  0  0  0
   11.3507   -2.0021    0.0000 H   0  0  0  0  0  0  0  0  0  0  0  0
    8.5746   -0.9912    0.0000 C   0  0  0  0  0  0  0  0  0  0  0  0
    9.5389    0.1577    0.0000 H   0  0  0  0  0  0  0  0  0  0  0  0
    7.6106    0.1581    0.0000 H   0  0  0  0  0  0  0  0  0  0  0  0
    7.2754   -1.7410    0.0000 C   0  0  0  0  0  0  0  0  0  0  0  0
    6.3111   -2.8899    0.0000 H   0  0  0  0  0  0  0  0  0  0  0  0
    8.2394   -2.8902    0.0000 H   0  0  0  0  0  0  0  0  0  0  0  0
    5.5608   -0.7507    0.0000 C   0  0  0  0  0  0  0  0  0  0  0  0
    6.5252    0.3982    0.0000 H   0  0  0  0  0  0  0  0  0  0  0  0
    4.5968    0.3985    0.0000 H   0  0  0  0  0  0  0  0  0  0  0  0
    4.2617   -1.5005    0.0000 N   0  0  0  0  0  0  0  0  0  0  0  0
    4.2614   -3.0005    0.0000 H   0  0  0  0  0  0  0  0  0  0  0  0
    2.9628   -0.7503    0.0000 C   0  0  0  0  0  0  0  0  0  0  0  0
    1.6628   -1.5003    0.0000 C   0  0  0  0  0  0  0  0  0  0  0  0
    1.6628   -3.0003    0.0000 H   0  0  0  0  0  0  0  0  0  0  0  0
    0.3628   -0.7503    0.0000 C   0  0  0  0  0  0  0  0  0  0  0  0
   -0.9361   -1.5005    0.0000 H   0  0  0  0  0  0  0  0  0  0  0  0
    0.3628    0.7497    0.0000 C   0  0  0  0  0  0  0  0  0  0  0  0
    1.6628    1.4997    0.0000 C   0  0  0  0  0  0  0  0  0  0  0  0
    1.6628    2.9997    0.0000 H   0  0  0  0  0  0  0  0  0  0  0  0
    2.9628    0.7497    0.0000 C   0  0  0  0  0  0  0  0  0  0  0  0
    4.2617    1.4999    0.0000 H   0  0  0  0  0  0  0  0  0  0  0  0
   -0.9361    1.4999    0.0000 C   0  0  0  0  0  0  0  0  0  0  0  0
   -0.9359    2.9999    0.0000 O   0  0  0  0  0  0  0  0  0  0  0  0
   -2.2353    0.7501    0.0000 O   0  0  0  0  0  0  0  0  0  0  0  0
   -3.5342    1.5004    0.0000 C   0  0  0  0  0  0  0  0  0  0  0  0
   -2.5699    2.6493    0.0000 H   0  0  0  0  0  0  0  0  0  0  0  0
   -4.4982    2.6496    0.0000 H   0  0  0  0  0  0  0  0  0  0  0  0
   -4.8334    0.7506    0.0000 C   0  0  0  0  0  0  0  0  0  0  0  0
   -5.7977   -0.3983    0.0000 H   0  0  0  0  0  0  0  0  0  0  0  0
   -3.8694   -0.3987    0.0000 H   0  0  0  0  0  0  0  0  0  0  0  0
   -6.5480    1.7408    0.0000 O   0  0  0  0  0  0  0  0  0  0  0  0
   -7.8471    0.9910    0.0000 C   0  0  0  0  0  0  0  0  0  0  0  0
   -8.8115   -0.1579    0.0000 H   0  0  0  0  0  0  0  0  0  0  0  0
   -6.8831   -0.1582    0.0000 H   0  0  0  0  0  0  0  0  0  0  0  0
   -9.1460    1.7413    0.0000 C   0  0  0  0  0  0  0  0  0  0  0  0
   -8.1817    2.8902    0.0000 H   0  0  0  0  0  0  0  0  0  0  0  0
  -10.1100    2.8905    0.0000 H   0  0  0  0  0  0  0  0  0  0  0  0
  -10.4452    0.9915    0.0000 O   0  0  0  0  0  0  0  0  0  0  0  0
  -12.1598    1.9817    0.0000 C   0  0  0  0  0  0  0  0  0  0  0  0
  -11.1954    3.1307    0.0000 H   0  0  0  0  0  0  0  0  0  0  0  0
  -13.1238    3.1310    0.0000 H   0  0  0  0  0  0  0  0  0  0  0  0
  -13.4589    1.2319    0.0000 C   0  0  0  0  0  0  0  0  0  0  0  0
  -14.4233    0.0830    0.0000 H   0  0  0  0  0  0  0  0  0  0  0  0
  -12.4949    0.0827    0.0000 H   0  0  0  0  0  0  0  0  0  0  0  0
  -15.1735    2.2222    0.0000 O   0  0  0  0  0  0  0  0  0  0  0  0
  -16.4726    1.4724    0.0000 C   0  0  0  0  0  0  0  0  0  0  0  0
  -17.4370    0.3235    0.0000 H   0  0  0  0  0  0  0  0  0  0  0  0
  -15.5087    0.3232    0.0000 H   0  0  0  0  0  0  0  0  0  0  0  0
  -17.7716    2.2226    0.0000 C   0  0  0  0  0  0  0  0  0  0  0  0
  -16.8072    3.3716    0.0000 H   0  0  0  0  0  0  0  0  0  0  0  0
  -18.7356    3.3719    0.0000 H   0  0  0  0  0  0  0  0  0  0  0  0
  -19.0707    1.4728    0.0000 O   0  0  0  0  0  0  0  0  0  0  0  0
  -20.7853    2.4631    0.0000 C   0  0  0  0  0  0  0  0  0  0  0  0
  -19.8209    3.6120    0.0000 H   0  0  0  0  0  0  0  0  0  0  0  0
  -21.7493    3.6123    0.0000 H   0  0  0  0  0  0  0  0  0  0  0  0
  -22.0845    1.7133    0.0000 C   0  0  0  0  0  0  0  0  0  0  0  0
  -23.0488    0.5644    0.0000 H   0  0  0  0  0  0  0  0  0  0  0  0
  -21.1205    0.5641    0.0000 H   0  0  0  0  0  0  0  0  0  0  0  0
  -23.3834    2.4635    0.0000 O   0  0  0  0  0  0  0  0  0  0  0  0
  -25.0983    1.4738    0.0000 C   0  0  0  0  0  0  0  0  0  0  0  0
  -26.0626    0.3249    0.0000 H   0  0  0  0  0  0  0  0  0  0  0  0
  -24.1343    0.3246    0.0000 H   0  0  0  0  0  0  0  0  0  0  0  0
  -26.3972    2.2240    0.0000 C   0  0  0  0  0  0  0  0  0  0  0  0
  -25.4328    3.3729    0.0000 H   0  0  0  0  0  0  0  0  0  0  0  0
  -27.3612    3.3732    0.0000 H   0  0  0  0  0  0  0  0  0  0  0  0
  -28.1121    1.2343    0.0000 O   0  0  0  0  0  0  0  0  0  0  0  0
  -29.4110    1.9845    0.0000 C   0  0  0  0  0  0  0  0  0  0  0  0
  -28.4466    3.1334    0.0000 H   0  0  0  0  0  0  0  0  0  0  0  0
  -30.3750    3.1337    0.0000 H   0  0  0  0  0  0  0  0  0  0  0  0
  -30.7101    1.2347    0.0000 C   0  0  0  0  0  0  0  0  0  0  0  0
  -31.6745    0.0858    0.0000 H   0  0  0  0  0  0  0  0  0  0  0  0
  -29.7461    0.0855    0.0000 H   0  0  0  0  0  0  0  0  0  0  0  0
  -32.0091    1.9849    0.0000 O   0  0  0  0  0  0  0  0  0  0  0  0
  -33.7240    0.9952    0.0000 C   0  0  0  0  0  0  0  0  0  0  0  0
  -34.6883   -0.1537    0.0000 H   0  0  0  0  0  0  0  0  0  0  0  0
  -35.0229    1.7454    0.0000 C   0  0  0  0  0  0  0  0  0  0  0  0
  -34.0585    2.8943    0.0000 H   0  0  0  0  0  0  0  0  0  0  0  0
  -35.9869    2.8946    0.0000 H   0  0  0  0  0  0  0  0  0  0  0  0
  -36.7378    0.7557    0.0000 O   0  0  0  0  0  0  0  0  0  0  0  0
  -38.0367    1.5059    0.0000 C   0  0  0  0  0  0  0  0  0  0  0  0
  -37.0723    2.6548    0.0000 H   0  0  0  0  0  0  0  0  0  0  0  0
  -39.0007    2.6551    0.0000 H   0  0  0  0  0  0  0  0  0  0  0  0
  -39.3358    0.7561    0.0000 C   0  0  0  0  0  0  0  0  0  0  0  0
  -40.3002   -0.3928    0.0000 H   0  0  0  0  0  0  0  0  0  0  0  0
  -38.3718   -0.3931    0.0000 H   0  0  0  0  0  0  0  0  0  0  0  0
  -40.6348    1.5063    0.0000 O   0  0  0  0  0  0  0  0  0  0  0  0
  -41.9339    0.7565    0.0000 C   0  0  0  0  0  0  0  0  0  0  0  0
  -41.9342   -0.7435    0.0000 H   0  0  0  0  0  0  0  0  0  0  0  0
  -43.4112    0.4963    0.0000 H   0  0  0  0  0  0  0  0  0  0  0  0
  -42.4467    2.1661    0.0000 H   0  0  0  0  0  0  0  0  0  0  0  0
  -32.7600   -0.1540    0.0000 O   0  0  0  0  0  0  0  0  0  0  0  0
  -33.2732   -1.5635    0.0000 H   0  0  0  0  0  0  0  0  0  0  0  0
  1  2  1  0  0  0  0 
  1  3  1  0  0  0  0 
  1  4  1  0  0  0  0 
  1  5  1  0  0  0  0 
  5  6  1  0  0  0  0 
  5  7  1  0  0  0  0 
  5  8  1  0  0  0  0 
  8  9  1  0  0  0  0 
  8 10  1  0  0  0  0 
  8 11  1  0  0  0  0 
 11 12  1  0  0  0  0 
 11 13  1  0  0  0  0 
 11 14  1  0  0  0  0 
 14 15  1  0  0  0  0 
 14 16  1  0  0  0  0 
 16 17  2  0  0  0  0 
 17 18  1  0  0  0  0 
 17 19  1  0  0  0  0 
 19 20  1  0  0  0  0 
 19 21  2  0  0  0  0 
 21 22  1  0  0  0  0 
 22 23  1  0  0  0  0 
 22 24  2  0  0  0  0 
 16 24  1  0  0  0  0 
 24 25  1  0  0  0  0 
 21 26  1  0  0  0  0 
 26 27  2  0  0  0  0 
 26 28  1  0  0  0  0 
 28 29  1  0  0  0  0 
 29 30  1  0  0  0  0 
 29 31  1  0  0  0  0 
 29 32  1  0  0  0  0 
 32 33  1  0  0  0  0 
 32 34  1  0  0  0  0 
 32 35  1  0  0  0  0 
 35 36  1  0  0  0  0 
 36 37  1  0  0  0  0 
 36 38  1  0  0  0  0 
 36 39  1  0  0  0  0 
 39 40  1  0  0  0  0 
 39 41  1  0  0  0  0 
 39 42  1  0  0  0  0 
 42 43  1  0  0  0  0 
 43 44  1  0  0  0  0 
 43 45  1  0  0  0  0 
 43 46  1  0  0  0  0 
 46 47  1  0  0  0  0 
 46 48  1  0  0  0  0 
 46 49  1  0  0  0  0 
 49 50  1  0  0  0  0 
 50 51  1  0  0  0  0 
 50 52  1  0  0  0  0 
 50 53  1  0  0  0  0 
 53 54  1  0  0  0  0 
 53 55  1  0  0  0  0 
 53 56  1  0  0  0  0 
 56 57  1  0  0  0  0 
 57 58  1  0  0  0  0 
 57 59  1  0  0  0  0 
 57 60  1  0  0  0  0 
 60 61  1  0  0  0  0 
 60 62  1  0  0  0  0 
 60 63  1  0  0  0  0 
 63 64  1  0  0  0  0 
 64 65  1  0  0  0  0 
 64 66  1  0  0  0  0 
 64 67  1  0  0  0  0 
 67 68  1  0  0  0  0 
 67 69  1  0  0  0  0 
 67 70  1  0  0  0  0 
 70 71  1  0  0  0  0 
 71 72  1  0  0  0  0 
 71 73  1  0  0  0  0 
 71 74  1  0  0  0  0 
 74 75  1  0  0  0  0 
 74 76  1  0  0  0  0 
 74 77  1  0  0  0  0 
 77 78  1  0  0  0  0 
 78 79  1  0  0  0  0 
 78 80  1  0  0  0  0 
 80 81  1  0  0  0  0 
 80 82  1  0  0  0  0 
 80 83  1  0  0  0  0 
 83 84  1  0  0  0  0 
 84 85  1  0  0  0  0 
 84 86  1  0  0  0  0 
 84 87  1  0  0  0  0 
 87 88  1  0  0  0  0 
 87 89  1  0  0  0  0 
 87 90  1  0  0  0  0 
 90 91  1  0  0  0  0 
 91 92  1  0  0  0  0 
 91 93  1  0  0  0  0 
 91 94  1  0  0  0  0 
 78 95  1  0  0  0  0 
 95 96  1  0  0  0  0 
M  END
> <Rank>
32

> <Priority_score>
0.11120337197049525

> <Reaction_type>
aliphatic hydroxylation

> <Parent_ID>
18

> <Parent_InChI>
InChI=1S/C30H53NO11/c1-3-4-9-31-29-7-5-28(6-8-29)30(32)42-27-26-41-25-24-40-23-22-39-21-20-38-19-18-37-17-16-36-15-14-35-13-12-34-11-10-33-2/h5-8,31H,3-4,9-27H2,1-2H3

> <Parent_SMILES>
CCCCNc1ccc(C(=O)OCCOCCOCCOCCOCCOCCOCCOCCOCCOC)cc1

$$$$
Molecule 18_metabolite 36
  CDK     0516241031

 18 17  0  0  0  0  0  0  0  0999 V2000
   10.0577   -1.6507    0.0000 C   0  0  0  0  0  0  0  0  0  0  0  0
   10.8077   -2.9498    0.0000 H   0  0  0  0  0  0  0  0  0  0  0  0
   11.4672   -1.1377    0.0000 H   0  0  0  0  0  0  0  0  0  0  0  0
    9.7972   -0.1735    0.0000 H   0  0  0  0  0  0  0  0  0  0  0  0
    8.5577   -1.6507    0.0000 O   0  0  0  0  0  0  0  0  0  0  0  0
    7.8077   -2.9498    0.0000 C   0  0  0  0  0  0  0  0  0  0  0  0
    9.2172   -3.4628    0.0000 H   0  0  0  0  0  0  0  0  0  0  0  0
    7.5472   -4.4270    0.0000 H   0  0  0  0  0  0  0  0  0  0  0  0
    6.3077   -2.9498    0.0000 C   0  0  0  0  0  0  0  0  0  0  0  0
    4.8982   -2.4367    0.0000 H   0  0  0  0  0  0  0  0  0  0  0  0
    6.5682   -1.4725    0.0000 H   0  0  0  0  0  0  0  0  0  0  0  0
    5.5577   -4.2488    0.0000 O   0  0  0  0  0  0  0  0  0  0  0  0
    4.0577   -4.2488    0.0000 C   0  0  0  0  0  0  0  0  0  0  0  0
    2.6482   -4.7618    0.0000 H   0  0  0  0  0  0  0  0  0  0  0  0
    4.3182   -5.7260    0.0000 H   0  0  0  0  0  0  0  0  0  0  0  0
    3.3077   -2.9498    0.0000 C   0  0  0  0  0  0  0  0  0  0  0  0
    1.8077   -2.9498    0.0000 H   0  0  0  0  0  0  0  0  0  0  0  0
    4.0577   -1.6507    0.0000 O   0  0  0  0  0  0  0  0  0  0  0  0
  1  2  1  0  0  0  0 
  1  3  1  0  0  0  0 
  1  4  1  0  0  0  0 
  1  5  1  0  0  0  0 
  5  6  1  0  0  0  0 
  6  7  1  0  0  0  0 
  6  8  1  0  0  0  0 
  6  9  1  0  0  0  0 
  9 10  1  0  0  0  0 
  9 11  1  0  0  0  0 
  9 12  1  0  0  0  0 
 12 13  1  0  0  0  0 
 13 14  1  0  0  0  0 
 13 15  1  0  0  0  0 
 13 16  1  0  0  0  0 
 16 17  1  0  0  0  0 
 16 18  2  0  0  0  0 
M  END
> <Rank>
32

> <Priority_score>
0.11120337197049525

> <Reaction_type>
oxidative ether cleavage to one alcohol and one aldehyde/ketone

> <Parent_ID>
18

> <Parent_InChI>
InChI=1S/C30H53NO11/c1-3-4-9-31-29-7-5-28(6-8-29)30(32)42-27-26-41-25-24-40-23-22-39-21-20-38-19-18-37-17-16-36-15-14-35-13-12-34-11-10-33-2/h5-8,31H,3-4,9-27H2,1-2H3

> <Parent_SMILES>
CCCCNc1ccc(C(=O)OCCOCCOCCOCCOCCOCCOCCOCCOCCOC)cc1

$$$$
Molecule 18_metabolite 37
  CDK     0516241031

 62 62  0  0  0  0  0  0  0  0999 V2000
    9.4578   -1.9813    0.0000 C   0  0  0  0  0  0  0  0  0  0  0  0
    9.4575   -3.4813    0.0000 H   0  0  0  0  0  0  0  0  0  0  0  0
    9.9710   -0.5719    0.0000 H   0  0  0  0  0  0  0  0  0  0  0  0
   10.9349   -2.2420    0.0000 H   0  0  0  0  0  0  0  0  0  0  0  0
    8.1588   -1.2311    0.0000 C   0  0  0  0  0  0  0  0  0  0  0  0
    9.1232   -0.0822    0.0000 H   0  0  0  0  0  0  0  0  0  0  0  0
    7.1948   -0.0819    0.0000 H   0  0  0  0  0  0  0  0  0  0  0  0
    6.8597   -1.9809    0.0000 C   0  0  0  0  0  0  0  0  0  0  0  0
    5.8953   -3.1298    0.0000 H   0  0  0  0  0  0  0  0  0  0  0  0
    7.8237   -3.1301    0.0000 H   0  0  0  0  0  0  0  0  0  0  0  0
    5.1451   -0.9906    0.0000 C   0  0  0  0  0  0  0  0  0  0  0  0
    6.1095    0.1583    0.0000 H   0  0  0  0  0  0  0  0  0  0  0  0
    4.1811    0.1586    0.0000 H   0  0  0  0  0  0  0  0  0  0  0  0
    3.8460   -1.7404    0.0000 N   0  0  0  0  0  0  0  0  0  0  0  0
    3.8457   -3.2404    0.0000 H   0  0  0  0  0  0  0  0  0  0  0  0
    2.5470   -0.9902    0.0000 C   0  0  0  0  0  0  0  0  0  0  0  0
    1.2470   -1.7402    0.0000 C   0  0  0  0  0  0  0  0  0  0  0  0
    1.2470   -3.2402    0.0000 H   0  0  0  0  0  0  0  0  0  0  0  0
   -0.0530   -0.9902    0.0000 C   0  0  0  0  0  0  0  0  0  0  0  0
   -1.3519   -1.7404    0.0000 H   0  0  0  0  0  0  0  0  0  0  0  0
   -0.0530    0.5098    0.0000 C   0  0  0  0  0  0  0  0  0  0  0  0
    1.2470    1.2598    0.0000 C   0  0  0  0  0  0  0  0  0  0  0  0
    1.2470    2.7598    0.0000 H   0  0  0  0  0  0  0  0  0  0  0  0
    2.5470    0.5098    0.0000 C   0  0  0  0  0  0  0  0  0  0  0  0
    3.8460    1.2600    0.0000 H   0  0  0  0  0  0  0  0  0  0  0  0
   -1.3519    1.2600    0.0000 C   0  0  0  0  0  0  0  0  0  0  0  0
   -1.3516    2.7600    0.0000 O   0  0  0  0  0  0  0  0  0  0  0  0
   -2.6510    0.5102    0.0000 O   0  0  0  0  0  0  0  0  0  0  0  0
   -3.9500    1.2604    0.0000 C   0  0  0  0  0  0  0  0  0  0  0  0
   -2.9856    2.4093    0.0000 H   0  0  0  0  0  0  0  0  0  0  0  0
   -4.9140    2.4096    0.0000 H   0  0  0  0  0  0  0  0  0  0  0  0
   -5.2491    0.5106    0.0000 C   0  0  0  0  0  0  0  0  0  0  0  0
   -6.2135   -0.6383    0.0000 H   0  0  0  0  0  0  0  0  0  0  0  0
   -4.2851   -0.6386    0.0000 H   0  0  0  0  0  0  0  0  0  0  0  0
   -6.9637    1.5009    0.0000 O   0  0  0  0  0  0  0  0  0  0  0  0
   -8.2628    0.7511    0.0000 C   0  0  0  0  0  0  0  0  0  0  0  0
   -9.2272   -0.3978    0.0000 H   0  0  0  0  0  0  0  0  0  0  0  0
   -7.2988   -0.3981    0.0000 H   0  0  0  0  0  0  0  0  0  0  0  0
   -9.5618    1.5013    0.0000 C   0  0  0  0  0  0  0  0  0  0  0  0
   -8.5974    2.6502    0.0000 H   0  0  0  0  0  0  0  0  0  0  0  0
  -10.5258    2.6505    0.0000 H   0  0  0  0  0  0  0  0  0  0  0  0
  -10.8609    0.7515    0.0000 O   0  0  0  0  0  0  0  0  0  0  0  0
  -12.5755    1.7418    0.0000 C   0  0  0  0  0  0  0  0  0  0  0  0
  -11.6111    2.8907    0.0000 H   0  0  0  0  0  0  0  0  0  0  0  0
  -13.5395    2.8910    0.0000 H   0  0  0  0  0  0  0  0  0  0  0  0
  -13.8747    0.9920    0.0000 C   0  0  0  0  0  0  0  0  0  0  0  0
  -14.8390   -0.1569    0.0000 H   0  0  0  0  0  0  0  0  0  0  0  0
  -12.9107   -0.1572    0.0000 H   0  0  0  0  0  0  0  0  0  0  0  0
  -15.5892    1.9823    0.0000 O   0  0  0  0  0  0  0  0  0  0  0  0
  -16.8884    1.2325    0.0000 C   0  0  0  0  0  0  0  0  0  0  0  0
  -17.8527    0.0836    0.0000 H   0  0  0  0  0  0  0  0  0  0  0  0
  -15.9244    0.0833    0.0000 H   0  0  0  0  0  0  0  0  0  0  0  0
  -18.1873    1.9827    0.0000 C   0  0  0  0  0  0  0  0  0  0  0  0
  -17.2229    3.1316    0.0000 H   0  0  0  0  0  0  0  0  0  0  0  0
  -19.1513    3.1319    0.0000 H   0  0  0  0  0  0  0  0  0  0  0  0
  -19.9022    0.9930    0.0000 O   0  0  0  0  0  0  0  0  0  0  0  0
  -21.2011    1.7432    0.0000 C   0  0  0  0  0  0  0  0  0  0  0  0
  -20.2367    2.8921    0.0000 H   0  0  0  0  0  0  0  0  0  0  0  0
  -22.1651    2.8924    0.0000 H   0  0  0  0  0  0  0  0  0  0  0  0
  -22.5003    0.9934    0.0000 C   0  0  0  0  0  0  0  0  0  0  0  0
  -23.7992    1.7436    0.0000 H   0  0  0  0  0  0  0  0  0  0  0  0
  -22.5005   -0.5066    0.0000 O   0  0  0  0  0  0  0  0  0  0  0  0
  1  2  1  0  0  0  0 
  1  3  1  0  0  0  0 
  1  4  1  0  0  0  0 
  1  5  1  0  0  0  0 
  5  6  1  0  0  0  0 
  5  7  1  0  0  0  0 
  5  8  1  0  0  0  0 
  8  9  1  0  0  0  0 
  8 10  1  0  0  0  0 
  8 11  1  0  0  0  0 
 11 12  1  0  0  0  0 
 11 13  1  0  0  0  0 
 11 14  1  0  0  0  0 
 14 15  1  0  0  0  0 
 14 16  1  0  0  0  0 
 16 17  2  0  0  0  0 
 17 18  1  0  0  0  0 
 17 19  1  0  0  0  0 
 19 20  1  0  0  0  0 
 19 21  2  0  0  0  0 
 21 22  1  0  0  0  0 
 22 23  1  0  0  0  0 
 22 24  2  0  0  0  0 
 16 24  1  0  0  0  0 
 24 25  1  0  0  0  0 
 21 26  1  0  0  0  0 
 26 27  2  0  0  0  0 
 26 28  1  0  0  0  0 
 28 29  1  0  0  0  0 
 29 30  1  0  0  0  0 
 29 31  1  0  0  0  0 
 29 32  1  0  0  0  0 
 32 33  1  0  0  0  0 
 32 34  1  0  0  0  0 
 32 35  1  0  0  0  0 
 35 36  1  0  0  0  0 
 36 37  1  0  0  0  0 
 36 38  1  0  0  0  0 
 36 39  1  0  0  0  0 
 39 40  1  0  0  0  0 
 39 41  1  0  0  0  0 
 39 42  1  0  0  0  0 
 42 43  1  0  0  0  0 
 43 44  1  0  0  0  0 
 43 45  1  0  0  0  0 
 43 46  1  0  0  0  0 
 46 47  1  0  0  0  0 
 46 48  1  0  0  0  0 
 46 49  1  0  0  0  0 
 49 50  1  0  0  0  0 
 50 51  1  0  0  0  0 
 50 52  1  0  0  0  0 
 50 53  1  0  0  0  0 
 53 54  1  0  0  0  0 
 53 55  1  0  0  0  0 
 53 56  1  0  0  0  0 
 56 57  1  0  0  0  0 
 57 58  1  0  0  0  0 
 57 59  1  0  0  0  0 
 57 60  1  0  0  0  0 
 60 61  1  0  0  0  0 
 60 62  2  0  0  0  0 
M  END
> <Rank>
37

> <Priority_score>
0.108

> <Reaction_type>
oxidative ether cleavage to one alcohol and one aldehyde/ketone

> <Parent_ID>
18

> <Parent_InChI>
InChI=1S/C30H53NO11/c1-3-4-9-31-29-7-5-28(6-8-29)30(32)42-27-26-41-25-24-40-23-22-39-21-20-38-19-18-37-17-16-36-15-14-35-13-12-34-11-10-33-2/h5-8,31H,3-4,9-27H2,1-2H3

> <Parent_SMILES>
CCCCNc1ccc(C(=O)OCCOCCOCCOCCOCCOCCOCCOCCOCCOC)cc1

$$$$
Molecule 18_metabolite 38
  CDK     0516241031

 64 64  0  0  0  0  0  0  0  0999 V2000
    9.4578   -1.9813    0.0000 C   0  0  0  0  0  0  0  0  0  0  0  0
    9.4575   -3.4813    0.0000 H   0  0  0  0  0  0  0  0  0  0  0  0
    9.9710   -0.5719    0.0000 H   0  0  0  0  0  0  0  0  0  0  0  0
   10.9349   -2.2420    0.0000 H   0  0  0  0  0  0  0  0  0  0  0  0
    8.1588   -1.2311    0.0000 C   0  0  0  0  0  0  0  0  0  0  0  0
    9.1232   -0.0822    0.0000 H   0  0  0  0  0  0  0  0  0  0  0  0
    7.1948   -0.0819    0.0000 H   0  0  0  0  0  0  0  0  0  0  0  0
    6.8597   -1.9809    0.0000 C   0  0  0  0  0  0  0  0  0  0  0  0
    5.8953   -3.1298    0.0000 H   0  0  0  0  0  0  0  0  0  0  0  0
    7.8237   -3.1301    0.0000 H   0  0  0  0  0  0  0  0  0  0  0  0
    5.1451   -0.9906    0.0000 C   0  0  0  0  0  0  0  0  0  0  0  0
    6.1095    0.1583    0.0000 H   0  0  0  0  0  0  0  0  0  0  0  0
    4.1811    0.1586    0.0000 H   0  0  0  0  0  0  0  0  0  0  0  0
    3.8460   -1.7404    0.0000 N   0  0  0  0  0  0  0  0  0  0  0  0
    3.8457   -3.2404    0.0000 H   0  0  0  0  0  0  0  0  0  0  0  0
    2.5470   -0.9902    0.0000 C   0  0  0  0  0  0  0  0  0  0  0  0
    1.2470   -1.7402    0.0000 C   0  0  0  0  0  0  0  0  0  0  0  0
    1.2470   -3.2402    0.0000 H   0  0  0  0  0  0  0  0  0  0  0  0
   -0.0530   -0.9902    0.0000 C   0  0  0  0  0  0  0  0  0  0  0  0
   -1.3519   -1.7404    0.0000 H   0  0  0  0  0  0  0  0  0  0  0  0
   -0.0530    0.5098    0.0000 C   0  0  0  0  0  0  0  0  0  0  0  0
    1.2470    1.2598    0.0000 C   0  0  0  0  0  0  0  0  0  0  0  0
    1.2470    2.7598    0.0000 H   0  0  0  0  0  0  0  0  0  0  0  0
    2.5470    0.5098    0.0000 C   0  0  0  0  0  0  0  0  0  0  0  0
    3.8460    1.2600    0.0000 H   0  0  0  0  0  0  0  0  0  0  0  0
   -1.3519    1.2600    0.0000 C   0  0  0  0  0  0  0  0  0  0  0  0
   -1.3516    2.7600    0.0000 O   0  0  0  0  0  0  0  0  0  0  0  0
   -2.6510    0.5102    0.0000 O   0  0  0  0  0  0  0  0  0  0  0  0
   -3.9500    1.2604    0.0000 C   0  0  0  0  0  0  0  0  0  0  0  0
   -2.9856    2.4093    0.0000 H   0  0  0  0  0  0  0  0  0  0  0  0
   -4.9140    2.4096    0.0000 H   0  0  0  0  0  0  0  0  0  0  0  0
   -5.2491    0.5106    0.0000 C   0  0  0  0  0  0  0  0  0  0  0  0
   -6.2135   -0.6383    0.0000 H   0  0  0  0  0  0  0  0  0  0  0  0
   -4.2851   -0.6386    0.0000 H   0  0  0  0  0  0  0  0  0  0  0  0
   -6.9637    1.5009    0.0000 O   0  0  0  0  0  0  0  0  0  0  0  0
   -8.2628    0.7511    0.0000 C   0  0  0  0  0  0  0  0  0  0  0  0
   -9.2272   -0.3978    0.0000 H   0  0  0  0  0  0  0  0  0  0  0  0
   -7.2988   -0.3981    0.0000 H   0  0  0  0  0  0  0  0  0  0  0  0
   -9.5618    1.5013    0.0000 C   0  0  0  0  0  0  0  0  0  0  0  0
   -8.5974    2.6502    0.0000 H   0  0  0  0  0  0  0  0  0  0  0  0
  -10.5258    2.6505    0.0000 H   0  0  0  0  0  0  0  0  0  0  0  0
  -10.8609    0.7515    0.0000 O   0  0  0  0  0  0  0  0  0  0  0  0
  -12.5755    1.7418    0.0000 C   0  0  0  0  0  0  0  0  0  0  0  0
  -11.6111    2.8907    0.0000 H   0  0  0  0  0  0  0  0  0  0  0  0
  -13.5395    2.8910    0.0000 H   0  0  0  0  0  0  0  0  0  0  0  0
  -13.8747    0.9920    0.0000 C   0  0  0  0  0  0  0  0  0  0  0  0
  -14.8390   -0.1569    0.0000 H   0  0  0  0  0  0  0  0  0  0  0  0
  -12.9107   -0.1572    0.0000 H   0  0  0  0  0  0  0  0  0  0  0  0
  -15.5892    1.9823    0.0000 O   0  0  0  0  0  0  0  0  0  0  0  0
  -16.8884    1.2325    0.0000 C   0  0  0  0  0  0  0  0  0  0  0  0
  -17.8527    0.0836    0.0000 H   0  0  0  0  0  0  0  0  0  0  0  0
  -15.9244    0.0833    0.0000 H   0  0  0  0  0  0  0  0  0  0  0  0
  -18.1873    1.9827    0.0000 C   0  0  0  0  0  0  0  0  0  0  0  0
  -17.2229    3.1316    0.0000 H   0  0  0  0  0  0  0  0  0  0  0  0
  -19.1513    3.1319    0.0000 H   0  0  0  0  0  0  0  0  0  0  0  0
  -19.9022    0.9930    0.0000 O   0  0  0  0  0  0  0  0  0  0  0  0
  -21.2011    1.7432    0.0000 C   0  0  0  0  0  0  0  0  0  0  0  0
  -20.2367    2.8921    0.0000 H   0  0  0  0  0  0  0  0  0  0  0  0
  -22.1651    2.8924    0.0000 H   0  0  0  0  0  0  0  0  0  0  0  0
  -22.5003    0.9934    0.0000 C   0  0  0  0  0  0  0  0  0  0  0  0
  -23.4646   -0.1555    0.0000 H   0  0  0  0  0  0  0  0  0  0  0  0
  -21.5363   -0.1558    0.0000 H   0  0  0  0  0  0  0  0  0  0  0  0
  -23.7992    1.7436    0.0000 O   0  0  0  0  0  0  0  0  0  0  0  0
  -25.0983    0.9938    0.0000 H   0  0  0  0  0  0  0  0  0  0  0  0
  1  2  1  0  0  0  0 
  1  3  1  0  0  0  0 
  1  4  1  0  0  0  0 
  1  5  1  0  0  0  0 
  5  6  1  0  0  0  0 
  5  7  1  0  0  0  0 
  5  8  1  0  0  0  0 
  8  9  1  0  0  0  0 
  8 10  1  0  0  0  0 
  8 11  1  0  0  0  0 
 11 12  1  0  0  0  0 
 11 13  1  0  0  0  0 
 11 14  1  0  0  0  0 
 14 15  1  0  0  0  0 
 14 16  1  0  0  0  0 
 16 17  2  0  0  0  0 
 17 18  1  0  0  0  0 
 17 19  1  0  0  0  0 
 19 20  1  0  0  0  0 
 19 21  2  0  0  0  0 
 21 22  1  0  0  0  0 
 22 23  1  0  0  0  0 
 22 24  2  0  0  0  0 
 16 24  1  0  0  0  0 
 24 25  1  0  0  0  0 
 21 26  1  0  0  0  0 
 26 27  2  0  0  0  0 
 26 28  1  0  0  0  0 
 28 29  1  0  0  0  0 
 29 30  1  0  0  0  0 
 29 31  1  0  0  0  0 
 29 32  1  0  0  0  0 
 32 33  1  0  0  0  0 
 32 34  1  0  0  0  0 
 32 35  1  0  0  0  0 
 35 36  1  0  0  0  0 
 36 37  1  0  0  0  0 
 36 38  1  0  0  0  0 
 36 39  1  0  0  0  0 
 39 40  1  0  0  0  0 
 39 41  1  0  0  0  0 
 39 42  1  0  0  0  0 
 42 43  1  0  0  0  0 
 43 44  1  0  0  0  0 
 43 45  1  0  0  0  0 
 43 46  1  0  0  0  0 
 46 47  1  0  0  0  0 
 46 48  1  0  0  0  0 
 46 49  1  0  0  0  0 
 49 50  1  0  0  0  0 
 50 51  1  0  0  0  0 
 50 52  1  0  0  0  0 
 50 53  1  0  0  0  0 
 53 54  1  0  0  0  0 
 53 55  1  0  0  0  0 
 53 56  1  0  0  0  0 
 56 57  1  0  0  0  0 
 57 58  1  0  0  0  0 
 57 59  1  0  0  0  0 
 57 60  1  0  0  0  0 
 60 61  1  0  0  0  0 
 60 62  1  0  0  0  0 
 60 63  1  0  0  0  0 
 63 64  1  0  0  0  0 
M  END
> <Rank>
37

> <Priority_score>
0.108

> <Reaction_type>
O-dealkylation_(aliphatic)

> <Parent_ID>
18

> <Parent_InChI>
InChI=1S/C30H53NO11/c1-3-4-9-31-29-7-5-28(6-8-29)30(32)42-27-26-41-25-24-40-23-22-39-21-20-38-19-18-37-17-16-36-15-14-35-13-12-34-11-10-33-2/h5-8,31H,3-4,9-27H2,1-2H3

> <Parent_SMILES>
CCCCNc1ccc(C(=O)OCCOCCOCCOCCOCCOCCOCCOCCOCCOC)cc1

$$$$
Molecule 18_metabolite 39
  CDK     0516241031

 41 40  0  0  0  0  0  0  0  0999 V2000
   21.4049   -5.7210    0.0000 C   0  0  0  0  0  0  0  0  0  0  0  0
   22.1549   -4.4220    0.0000 H   0  0  0  0  0  0  0  0  0  0  0  0
   22.8144   -6.2341    0.0000 H   0  0  0  0  0  0  0  0  0  0  0  0
   21.1444   -7.1983    0.0000 H   0  0  0  0  0  0  0  0  0  0  0  0
   19.9049   -5.7210    0.0000 O   0  0  0  0  0  0  0  0  0  0  0  0
   19.1549   -4.4220    0.0000 C   0  0  0  0  0  0  0  0  0  0  0  0
   20.5644   -3.9090    0.0000 H   0  0  0  0  0  0  0  0  0  0  0  0
   18.8944   -2.9448    0.0000 H   0  0  0  0  0  0  0  0  0  0  0  0
   17.6549   -4.4220    0.0000 C   0  0  0  0  0  0  0  0  0  0  0  0
   16.2453   -4.9350    0.0000 H   0  0  0  0  0  0  0  0  0  0  0  0
   17.9153   -5.8992    0.0000 H   0  0  0  0  0  0  0  0  0  0  0  0
   16.9049   -3.1230    0.0000 O   0  0  0  0  0  0  0  0  0  0  0  0
   14.9249   -3.1230    0.0000 C   0  0  0  0  0  0  0  0  0  0  0  0
   13.5153   -3.6360    0.0000 H   0  0  0  0  0  0  0  0  0  0  0  0
   15.1853   -4.6002    0.0000 H   0  0  0  0  0  0  0  0  0  0  0  0
   14.1749   -1.8239    0.0000 C   0  0  0  0  0  0  0  0  0  0  0  0
   15.5844   -1.3109    0.0000 H   0  0  0  0  0  0  0  0  0  0  0  0
   13.9144   -0.3467    0.0000 H   0  0  0  0  0  0  0  0  0  0  0  0
   12.6749   -1.8239    0.0000 O   0  0  0  0  0  0  0  0  0  0  0  0
   11.6849   -0.1092    0.0000 C   0  0  0  0  0  0  0  0  0  0  0  0
   13.0944    0.4038    0.0000 H   0  0  0  0  0  0  0  0  0  0  0  0
   11.4244    1.3680    0.0000 H   0  0  0  0  0  0  0  0  0  0  0  0
   10.1849   -0.1092    0.0000 C   0  0  0  0  0  0  0  0  0  0  0  0
    8.7753   -0.6222    0.0000 H   0  0  0  0  0  0  0  0  0  0  0  0
   10.4453   -1.5864    0.0000 H   0  0  0  0  0  0  0  0  0  0  0  0
    9.1949    1.6055    0.0000 O   0  0  0  0  0  0  0  0  0  0  0  0
    7.6949    1.6055    0.0000 C   0  0  0  0  0  0  0  0  0  0  0  0
    6.2853    1.0925    0.0000 H   0  0  0  0  0  0  0  0  0  0  0  0
    7.9553    0.1283    0.0000 H   0  0  0  0  0  0  0  0  0  0  0  0
    6.9449    2.9046    0.0000 C   0  0  0  0  0  0  0  0  0  0  0  0
    8.3544    3.4176    0.0000 H   0  0  0  0  0  0  0  0  0  0  0  0
    6.6844    4.3818    0.0000 H   0  0  0  0  0  0  0  0  0  0  0  0
    4.9649    2.9046    0.0000 O   0  0  0  0  0  0  0  0  0  0  0  0
    4.2149    4.2036    0.0000 C   0  0  0  0  0  0  0  0  0  0  0  0
    5.6244    4.7166    0.0000 H   0  0  0  0  0  0  0  0  0  0  0  0
    3.9544    5.6808    0.0000 H   0  0  0  0  0  0  0  0  0  0  0  0
    2.7149    4.2036    0.0000 C   0  0  0  0  0  0  0  0  0  0  0  0
    1.3053    3.6906    0.0000 H   0  0  0  0  0  0  0  0  0  0  0  0
    2.9753    2.7264    0.0000 H   0  0  0  0  0  0  0  0  0  0  0  0
    1.9649    5.5026    0.0000 O   0  0  0  0  0  0  0  0  0  0  0  0
    0.4649    5.5026    0.0000 H   0  0  0  0  0  0  0  0  0  0  0  0
  1  2  1  0  0  0  0 
  1  3  1  0  0  0  0 
  1  4  1  0  0  0  0 
  1  5  1  0  0  0  0 
  5  6  1  0  0  0  0 
  6  7  1  0  0  0  0 
  6  8  1  0  0  0  0 
  6  9  1  0  0  0  0 
  9 10  1  0  0  0  0 
  9 11  1  0  0  0  0 
  9 12  1  0  0  0  0 
 12 13  1  0  0  0  0 
 13 14  1  0  0  0  0 
 13 15  1  0  0  0  0 
 13 16  1  0  0  0  0 
 16 17  1  0  0  0  0 
 16 18  1  0  0  0  0 
 16 19  1  0  0  0  0 
 19 20  1  0  0  0  0 
 20 21  1  0  0  0  0 
 20 22  1  0  0  0  0 
 20 23  1  0  0  0  0 
 23 24  1  0  0  0  0 
 23 25  1  0  0  0  0 
 23 26  1  0  0  0  0 
 26 27  1  0  0  0  0 
 27 28  1  0  0  0  0 
 27 29  1  0  0  0  0 
 27 30  1  0  0  0  0 
 30 31  1  0  0  0  0 
 30 32  1  0  0  0  0 
 30 33  1  0  0  0  0 
 33 34  1  0  0  0  0 
 34 35  1  0  0  0  0 
 34 36  1  0  0  0  0 
 34 37  1  0  0  0  0 
 37 38  1  0  0  0  0 
 37 39  1  0  0  0  0 
 37 40  1  0  0  0  0 
 40 41  1  0  0  0  0 
M  END
> <Rank>
37

> <Priority_score>
0.108

> <Reaction_type>
O-dealkylation_(aliphatic)

> <Parent_ID>
18

> <Parent_InChI>
InChI=1S/C30H53NO11/c1-3-4-9-31-29-7-5-28(6-8-29)30(32)42-27-26-41-25-24-40-23-22-39-21-20-38-19-18-37-17-16-36-15-14-35-13-12-34-11-10-33-2/h5-8,31H,3-4,9-27H2,1-2H3

> <Parent_SMILES>
CCCCNc1ccc(C(=O)OCCOCCOCCOCCOCCOCCOCCOCCOCCOC)cc1

$$$$
Molecule 18_metabolite 40
  CDK     0516241031

 55 55  0  0  0  0  0  0  0  0999 V2000
    9.4578   -1.9813    0.0000 C   0  0  0  0  0  0  0  0  0  0  0  0
    9.4575   -3.4813    0.0000 H   0  0  0  0  0  0  0  0  0  0  0  0
    9.9710   -0.5719    0.0000 H   0  0  0  0  0  0  0  0  0  0  0  0
   10.9349   -2.2420    0.0000 H   0  0  0  0  0  0  0  0  0  0  0  0
    8.1588   -1.2311    0.0000 C   0  0  0  0  0  0  0  0  0  0  0  0
    9.1232   -0.0822    0.0000 H   0  0  0  0  0  0  0  0  0  0  0  0
    7.1948   -0.0819    0.0000 H   0  0  0  0  0  0  0  0  0  0  0  0
    6.8597   -1.9809    0.0000 C   0  0  0  0  0  0  0  0  0  0  0  0
    5.8953   -3.1298    0.0000 H   0  0  0  0  0  0  0  0  0  0  0  0
    7.8237   -3.1301    0.0000 H   0  0  0  0  0  0  0  0  0  0  0  0
    5.1451   -0.9906    0.0000 C   0  0  0  0  0  0  0  0  0  0  0  0
    6.1095    0.1583    0.0000 H   0  0  0  0  0  0  0  0  0  0  0  0
    4.1811    0.1586    0.0000 H   0  0  0  0  0  0  0  0  0  0  0  0
    3.8460   -1.7404    0.0000 N   0  0  0  0  0  0  0  0  0  0  0  0
    3.8457   -3.2404    0.0000 H   0  0  0  0  0  0  0  0  0  0  0  0
    2.5470   -0.9902    0.0000 C   0  0  0  0  0  0  0  0  0  0  0  0
    1.2470   -1.7402    0.0000 C   0  0  0  0  0  0  0  0  0  0  0  0
    1.2470   -3.2402    0.0000 H   0  0  0  0  0  0  0  0  0  0  0  0
   -0.0530   -0.9902    0.0000 C   0  0  0  0  0  0  0  0  0  0  0  0
   -1.3519   -1.7404    0.0000 H   0  0  0  0  0  0  0  0  0  0  0  0
   -0.0530    0.5098    0.0000 C   0  0  0  0  0  0  0  0  0  0  0  0
    1.2470    1.2598    0.0000 C   0  0  0  0  0  0  0  0  0  0  0  0
    1.2470    2.7598    0.0000 H   0  0  0  0  0  0  0  0  0  0  0  0
    2.5470    0.5098    0.0000 C   0  0  0  0  0  0  0  0  0  0  0  0
    3.8460    1.2600    0.0000 H   0  0  0  0  0  0  0  0  0  0  0  0
   -1.3519    1.2600    0.0000 C   0  0  0  0  0  0  0  0  0  0  0  0
   -1.3516    2.7600    0.0000 O   0  0  0  0  0  0  0  0  0  0  0  0
   -2.6510    0.5102    0.0000 O   0  0  0  0  0  0  0  0  0  0  0  0
   -3.9500    1.2604    0.0000 C   0  0  0  0  0  0  0  0  0  0  0  0
   -2.9856    2.4093    0.0000 H   0  0  0  0  0  0  0  0  0  0  0  0
   -4.9140    2.4096    0.0000 H   0  0  0  0  0  0  0  0  0  0  0  0
   -5.2491    0.5106    0.0000 C   0  0  0  0  0  0  0  0  0  0  0  0
   -6.2135   -0.6383    0.0000 H   0  0  0  0  0  0  0  0  0  0  0  0
   -4.2851   -0.6386    0.0000 H   0  0  0  0  0  0  0  0  0  0  0  0
   -6.9637    1.5009    0.0000 O   0  0  0  0  0  0  0  0  0  0  0  0
   -8.2628    0.7511    0.0000 C   0  0  0  0  0  0  0  0  0  0  0  0
   -9.2272   -0.3978    0.0000 H   0  0  0  0  0  0  0  0  0  0  0  0
   -7.2988   -0.3981    0.0000 H   0  0  0  0  0  0  0  0  0  0  0  0
   -9.5618    1.5013    0.0000 C   0  0  0  0  0  0  0  0  0  0  0  0
   -8.5974    2.6502    0.0000 H   0  0  0  0  0  0  0  0  0  0  0  0
  -10.5258    2.6505    0.0000 H   0  0  0  0  0  0  0  0  0  0  0  0
  -11.2767    0.5116    0.0000 O   0  0  0  0  0  0  0  0  0  0  0  0
  -12.5756    1.2618    0.0000 C   0  0  0  0  0  0  0  0  0  0  0  0
  -11.6112    2.4107    0.0000 H   0  0  0  0  0  0  0  0  0  0  0  0
  -13.5396    2.4110    0.0000 H   0  0  0  0  0  0  0  0  0  0  0  0
  -13.8747    0.5120    0.0000 C   0  0  0  0  0  0  0  0  0  0  0  0
  -14.8391   -0.6369    0.0000 H   0  0  0  0  0  0  0  0  0  0  0  0
  -12.9107   -0.6372    0.0000 H   0  0  0  0  0  0  0  0  0  0  0  0
  -15.5893    1.5023    0.0000 O   0  0  0  0  0  0  0  0  0  0  0  0
  -16.8885    0.7525    0.0000 C   0  0  0  0  0  0  0  0  0  0  0  0
  -17.8528   -0.3964    0.0000 H   0  0  0  0  0  0  0  0  0  0  0  0
  -15.9245   -0.3967    0.0000 H   0  0  0  0  0  0  0  0  0  0  0  0
  -18.1874    1.5027    0.0000 C   0  0  0  0  0  0  0  0  0  0  0  0
  -19.4865    0.7529    0.0000 H   0  0  0  0  0  0  0  0  0  0  0  0
  -18.1871    3.0027    0.0000 O   0  0  0  0  0  0  0  0  0  0  0  0
  1  2  1  0  0  0  0 
  1  3  1  0  0  0  0 
  1  4  1  0  0  0  0 
  1  5  1  0  0  0  0 
  5  6  1  0  0  0  0 
  5  7  1  0  0  0  0 
  5  8  1  0  0  0  0 
  8  9  1  0  0  0  0 
  8 10  1  0  0  0  0 
  8 11  1  0  0  0  0 
 11 12  1  0  0  0  0 
 11 13  1  0  0  0  0 
 11 14  1  0  0  0  0 
 14 15  1  0  0  0  0 
 14 16  1  0  0  0  0 
 16 17  2  0  0  0  0 
 17 18  1  0  0  0  0 
 17 19  1  0  0  0  0 
 19 20  1  0  0  0  0 
 19 21  2  0  0  0  0 
 21 22  1  0  0  0  0 
 22 23  1  0  0  0  0 
 22 24  2  0  0  0  0 
 16 24  1  0  0  0  0 
 24 25  1  0  0  0  0 
 21 26  1  0  0  0  0 
 26 27  2  0  0  0  0 
 26 28  1  0  0  0  0 
 28 29  1  0  0  0  0 
 29 30  1  0  0  0  0 
 29 31  1  0  0  0  0 
 29 32  1  0  0  0  0 
 32 33  1  0  0  0  0 
 32 34  1  0  0  0  0 
 32 35  1  0  0  0  0 
 35 36  1  0  0  0  0 
 36 37  1  0  0  0  0 
 36 38  1  0  0  0  0 
 36 39  1  0  0  0  0 
 39 40  1  0  0  0  0 
 39 41  1  0  0  0  0 
 39 42  1  0  0  0  0 
 42 43  1  0  0  0  0 
 43 44  1  0  0  0  0 
 43 45  1  0  0  0  0 
 43 46  1  0  0  0  0 
 46 47  1  0  0  0  0 
 46 48  1  0  0  0  0 
 46 49  1  0  0  0  0 
 49 50  1  0  0  0  0 
 50 51  1  0  0  0  0 
 50 52  1  0  0  0  0 
 50 53  1  0  0  0  0 
 53 54  1  0  0  0  0 
 53 55  2  0  0  0  0 
M  END
> <Rank>
37

> <Priority_score>
0.108

> <Reaction_type>
oxidative ether cleavage to one alcohol and one aldehyde/ketone

> <Parent_ID>
18

> <Parent_InChI>
InChI=1S/C30H53NO11/c1-3-4-9-31-29-7-5-28(6-8-29)30(32)42-27-26-41-25-24-40-23-22-39-21-20-38-19-18-37-17-16-36-15-14-35-13-12-34-11-10-33-2/h5-8,31H,3-4,9-27H2,1-2H3

> <Parent_SMILES>
CCCCNc1ccc(C(=O)OCCOCCOCCOCCOCCOCCOCCOCCOCCOC)cc1

$$$$
Molecule 18_metabolite 41
  CDK     0516241031

 57 57  0  0  0  0  0  0  0  0999 V2000
    9.0420   -2.2212    0.0000 C   0  0  0  0  0  0  0  0  0  0  0  0
    9.0418   -3.7212    0.0000 H   0  0  0  0  0  0  0  0  0  0  0  0
    9.5553   -0.8118    0.0000 H   0  0  0  0  0  0  0  0  0  0  0  0
   10.5192   -2.4819    0.0000 H   0  0  0  0  0  0  0  0  0  0  0  0
    7.7431   -1.4710    0.0000 C   0  0  0  0  0  0  0  0  0  0  0  0
    8.7075   -0.3221    0.0000 H   0  0  0  0  0  0  0  0  0  0  0  0
    6.7791   -0.3218    0.0000 H   0  0  0  0  0  0  0  0  0  0  0  0
    6.4440   -2.2208    0.0000 C   0  0  0  0  0  0  0  0  0  0  0  0
    5.4796   -3.3697    0.0000 H   0  0  0  0  0  0  0  0  0  0  0  0
    7.4080   -3.3700    0.0000 H   0  0  0  0  0  0  0  0  0  0  0  0
    4.7294   -1.2305    0.0000 C   0  0  0  0  0  0  0  0  0  0  0  0
    5.6937   -0.0816    0.0000 H   0  0  0  0  0  0  0  0  0  0  0  0
    3.7654   -0.0813    0.0000 H   0  0  0  0  0  0  0  0  0  0  0  0
    3.4302   -1.9803    0.0000 N   0  0  0  0  0  0  0  0  0  0  0  0
    3.4300   -3.4803    0.0000 H   0  0  0  0  0  0  0  0  0  0  0  0
    2.1313   -1.2301    0.0000 C   0  0  0  0  0  0  0  0  0  0  0  0
    0.8313   -1.9801    0.0000 C   0  0  0  0  0  0  0  0  0  0  0  0
    0.8313   -3.4801    0.0000 H   0  0  0  0  0  0  0  0  0  0  0  0
   -0.4687   -1.2301    0.0000 C   0  0  0  0  0  0  0  0  0  0  0  0
   -1.7676   -1.9803    0.0000 H   0  0  0  0  0  0  0  0  0  0  0  0
   -0.4687    0.2699    0.0000 C   0  0  0  0  0  0  0  0  0  0  0  0
    0.8313    1.0199    0.0000 C   0  0  0  0  0  0  0  0  0  0  0  0
    0.8313    2.5199    0.0000 H   0  0  0  0  0  0  0  0  0  0  0  0
    2.1313    0.2699    0.0000 C   0  0  0  0  0  0  0  0  0  0  0  0
    3.4302    1.0201    0.0000 H   0  0  0  0  0  0  0  0  0  0  0  0
   -1.7676    1.0201    0.0000 C   0  0  0  0  0  0  0  0  0  0  0  0
   -1.7674    2.5201    0.0000 O   0  0  0  0  0  0  0  0  0  0  0  0
   -3.0668    0.2703    0.0000 O   0  0  0  0  0  0  0  0  0  0  0  0
   -4.3657    1.0205    0.0000 C   0  0  0  0  0  0  0  0  0  0  0  0
   -3.4013    2.1694    0.0000 H   0  0  0  0  0  0  0  0  0  0  0  0
   -5.3297    2.1697    0.0000 H   0  0  0  0  0  0  0  0  0  0  0  0
   -5.6648    0.2707    0.0000 C   0  0  0  0  0  0  0  0  0  0  0  0
   -6.6292   -0.8782    0.0000 H   0  0  0  0  0  0  0  0  0  0  0  0
   -4.7008   -0.8785    0.0000 H   0  0  0  0  0  0  0  0  0  0  0  0
   -7.3794    1.2610    0.0000 O   0  0  0  0  0  0  0  0  0  0  0  0
   -8.6786    0.5112    0.0000 C   0  0  0  0  0  0  0  0  0  0  0  0
   -9.6429   -0.6377    0.0000 H   0  0  0  0  0  0  0  0  0  0  0  0
   -7.7146   -0.6380    0.0000 H   0  0  0  0  0  0  0  0  0  0  0  0
   -9.9775    1.2614    0.0000 C   0  0  0  0  0  0  0  0  0  0  0  0
   -9.0131    2.4103    0.0000 H   0  0  0  0  0  0  0  0  0  0  0  0
  -10.9415    2.4106    0.0000 H   0  0  0  0  0  0  0  0  0  0  0  0
  -11.2767    0.5116    0.0000 O   0  0  0  0  0  0  0  0  0  0  0  0
  -12.9912    1.5019    0.0000 C   0  0  0  0  0  0  0  0  0  0  0  0
  -12.0269    2.6508    0.0000 H   0  0  0  0  0  0  0  0  0  0  0  0
  -13.9552    2.6511    0.0000 H   0  0  0  0  0  0  0  0  0  0  0  0
  -14.2904    0.7521    0.0000 C   0  0  0  0  0  0  0  0  0  0  0  0
  -15.2547   -0.3968    0.0000 H   0  0  0  0  0  0  0  0  0  0  0  0
  -13.3264   -0.3971    0.0000 H   0  0  0  0  0  0  0  0  0  0  0  0
  -16.0050    1.7424    0.0000 O   0  0  0  0  0  0  0  0  0  0  0  0
  -17.3041    0.9926    0.0000 C   0  0  0  0  0  0  0  0  0  0  0  0
  -18.2685   -0.1563    0.0000 H   0  0  0  0  0  0  0  0  0  0  0  0
  -16.3401   -0.1567    0.0000 H   0  0  0  0  0  0  0  0  0  0  0  0
  -18.6030    1.7428    0.0000 C   0  0  0  0  0  0  0  0  0  0  0  0
  -17.6387    2.8917    0.0000 H   0  0  0  0  0  0  0  0  0  0  0  0
  -19.5670    2.8920    0.0000 H   0  0  0  0  0  0  0  0  0  0  0  0
  -19.9022    0.9930    0.0000 O   0  0  0  0  0  0  0  0  0  0  0  0
  -21.2011    1.7432    0.0000 H   0  0  0  0  0  0  0  0  0  0  0  0
  1  2  1  0  0  0  0 
  1  3  1  0  0  0  0 
  1  4  1  0  0  0  0 
  1  5  1  0  0  0  0 
  5  6  1  0  0  0  0 
  5  7  1  0  0  0  0 
  5  8  1  0  0  0  0 
  8  9  1  0  0  0  0 
  8 10  1  0  0  0  0 
  8 11  1  0  0  0  0 
 11 12  1  0  0  0  0 
 11 13  1  0  0  0  0 
 11 14  1  0  0  0  0 
 14 15  1  0  0  0  0 
 14 16  1  0  0  0  0 
 16 17  2  0  0  0  0 
 17 18  1  0  0  0  0 
 17 19  1  0  0  0  0 
 19 20  1  0  0  0  0 
 19 21  2  0  0  0  0 
 21 22  1  0  0  0  0 
 22 23  1  0  0  0  0 
 22 24  2  0  0  0  0 
 16 24  1  0  0  0  0 
 24 25  1  0  0  0  0 
 21 26  1  0  0  0  0 
 26 27  2  0  0  0  0 
 26 28  1  0  0  0  0 
 28 29  1  0  0  0  0 
 29 30  1  0  0  0  0 
 29 31  1  0  0  0  0 
 29 32  1  0  0  0  0 
 32 33  1  0  0  0  0 
 32 34  1  0  0  0  0 
 32 35  1  0  0  0  0 
 35 36  1  0  0  0  0 
 36 37  1  0  0  0  0 
 36 38  1  0  0  0  0 
 36 39  1  0  0  0  0 
 39 40  1  0  0  0  0 
 39 41  1  0  0  0  0 
 39 42  1  0  0  0  0 
 42 43  1  0  0  0  0 
 43 44  1  0  0  0  0 
 43 45  1  0  0  0  0 
 43 46  1  0  0  0  0 
 46 47  1  0  0  0  0 
 46 48  1  0  0  0  0 
 46 49  1  0  0  0  0 
 49 50  1  0  0  0  0 
 50 51  1  0  0  0  0 
 50 52  1  0  0  0  0 
 50 53  1  0  0  0  0 
 53 54  1  0  0  0  0 
 53 55  1  0  0  0  0 
 53 56  1  0  0  0  0 
 56 57  1  0  0  0  0 
M  END
> <Rank>
37

> <Priority_score>
0.108

> <Reaction_type>
O-dealkylation_(aliphatic)

> <Parent_ID>
18

> <Parent_InChI>
InChI=1S/C30H53NO11/c1-3-4-9-31-29-7-5-28(6-8-29)30(32)42-27-26-41-25-24-40-23-22-39-21-20-38-19-18-37-17-16-36-15-14-35-13-12-34-11-10-33-2/h5-8,31H,3-4,9-27H2,1-2H3

> <Parent_SMILES>
CCCCNc1ccc(C(=O)OCCOCCOCCOCCOCCOCCOCCOCCOCCOC)cc1

$$$$
Molecule 18_metabolite 42
  CDK     0516241031

 32 31  0  0  0  0  0  0  0  0999 V2000
    0.4677   -0.7500    0.0000 C   0  0  0  0  0  0  0  0  0  0  0  0
    0.4677   -2.2500    0.0000 H   0  0  0  0  0  0  0  0  0  0  0  0
   -1.0096   -1.0105    0.0000 H   0  0  0  0  0  0  0  0  0  0  0  0
   -0.0454    0.6595    0.0000 H   0  0  0  0  0  0  0  0  0  0  0  0
    1.7667    0.0000    0.0000 O   0  0  0  0  0  0  0  0  0  0  0  0
    3.0657   -0.7500    0.0000 C   0  0  0  0  0  0  0  0  0  0  0  0
    2.1015   -1.8991    0.0000 H   0  0  0  0  0  0  0  0  0  0  0  0
    4.0299   -1.8991    0.0000 H   0  0  0  0  0  0  0  0  0  0  0  0
    4.3648    0.0000    0.0000 C   0  0  0  0  0  0  0  0  0  0  0  0
    5.3289    1.1491    0.0000 H   0  0  0  0  0  0  0  0  0  0  0  0
    3.4006    1.1491    0.0000 H   0  0  0  0  0  0  0  0  0  0  0  0
    5.6638   -0.7500    0.0000 O   0  0  0  0  0  0  0  0  0  0  0  0
    7.3785    0.2400    0.0000 C   0  0  0  0  0  0  0  0  0  0  0  0
    8.3427    1.3891    0.0000 H   0  0  0  0  0  0  0  0  0  0  0  0
    6.4144    1.3891    0.0000 H   0  0  0  0  0  0  0  0  0  0  0  0
    8.6776   -0.5100    0.0000 C   0  0  0  0  0  0  0  0  0  0  0  0
    7.7134   -1.6591    0.0000 H   0  0  0  0  0  0  0  0  0  0  0  0
    9.6418   -1.6591    0.0000 H   0  0  0  0  0  0  0  0  0  0  0  0
   10.3923    0.4800    0.0000 O   0  0  0  0  0  0  0  0  0  0  0  0
   11.6913   -0.2700    0.0000 C   0  0  0  0  0  0  0  0  0  0  0  0
   10.7272   -1.4191    0.0000 H   0  0  0  0  0  0  0  0  0  0  0  0
   12.6555   -1.4191    0.0000 H   0  0  0  0  0  0  0  0  0  0  0  0
   12.9904    0.4800    0.0000 C   0  0  0  0  0  0  0  0  0  0  0  0
   13.9546    1.6291    0.0000 H   0  0  0  0  0  0  0  0  0  0  0  0
   12.0262    1.6291    0.0000 H   0  0  0  0  0  0  0  0  0  0  0  0
   14.7051   -0.5100    0.0000 O   0  0  0  0  0  0  0  0  0  0  0  0
   16.0042    0.2400    0.0000 C   0  0  0  0  0  0  0  0  0  0  0  0
   16.9683    1.3891    0.0000 H   0  0  0  0  0  0  0  0  0  0  0  0
   15.0400    1.3891    0.0000 H   0  0  0  0  0  0  0  0  0  0  0  0
   17.3032   -0.5100    0.0000 C   0  0  0  0  0  0  0  0  0  0  0  0
   18.6022    0.2400    0.0000 H   0  0  0  0  0  0  0  0  0  0  0  0
   17.3032   -2.0100    0.0000 O   0  0  0  0  0  0  0  0  0  0  0  0
  1  2  1  0  0  0  0 
  1  3  1  0  0  0  0 
  1  4  1  0  0  0  0 
  1  5  1  0  0  0  0 
  5  6  1  0  0  0  0 
  6  7  1  0  0  0  0 
  6  8  1  0  0  0  0 
  6  9  1  0  0  0  0 
  9 10  1  0  0  0  0 
  9 11  1  0  0  0  0 
  9 12  1  0  0  0  0 
 12 13  1  0  0  0  0 
 13 14  1  0  0  0  0 
 13 15  1  0  0  0  0 
 13 16  1  0  0  0  0 
 16 17  1  0  0  0  0 
 16 18  1  0  0  0  0 
 16 19  1  0  0  0  0 
 19 20  1  0  0  0  0 
 20 21  1  0  0  0  0 
 20 22  1  0  0  0  0 
 20 23  1  0  0  0  0 
 23 24  1  0  0  0  0 
 23 25  1  0  0  0  0 
 23 26  1  0  0  0  0 
 26 27  1  0  0  0  0 
 27 28  1  0  0  0  0 
 27 29  1  0  0  0  0 
 27 30  1  0  0  0  0 
 30 31  1  0  0  0  0 
 30 32  2  0  0  0  0 
M  END
> <Rank>
37

> <Priority_score>
0.108

> <Reaction_type>
oxidative ether cleavage to one alcohol and one aldehyde/ketone

> <Parent_ID>
18

> <Parent_InChI>
InChI=1S/C30H53NO11/c1-3-4-9-31-29-7-5-28(6-8-29)30(32)42-27-26-41-25-24-40-23-22-39-21-20-38-19-18-37-17-16-36-15-14-35-13-12-34-11-10-33-2/h5-8,31H,3-4,9-27H2,1-2H3

> <Parent_SMILES>
CCCCNc1ccc(C(=O)OCCOCCOCCOCCOCCOCCOCCOCCOCCOC)cc1

$$$$
Molecule 18_metabolite 43
  CDK     0516241031

 96 96  0  0  0  0  0  0  0  0999 V2000
  -41.5183    1.6346    0.0000 C   0  0  0  0  0  0  0  0  0  0  0  0
  -41.5180    3.1346    0.0000 H   0  0  0  0  0  0  0  0  0  0  0  0
  -42.0315    0.2251    0.0000 H   0  0  0  0  0  0  0  0  0  0  0  0
  -42.9954    1.8953    0.0000 H   0  0  0  0  0  0  0  0  0  0  0  0
  -40.2193    0.8843    0.0000 C   0  0  0  0  0  0  0  0  0  0  0  0
  -41.1837   -0.2646    0.0000 H   0  0  0  0  0  0  0  0  0  0  0  0
  -39.2553   -0.2649    0.0000 H   0  0  0  0  0  0  0  0  0  0  0  0
  -38.9202    1.6341    0.0000 C   0  0  0  0  0  0  0  0  0  0  0  0
  -37.9558    2.7831    0.0000 H   0  0  0  0  0  0  0  0  0  0  0  0
  -39.8842    2.7834    0.0000 H   0  0  0  0  0  0  0  0  0  0  0  0
  -37.2056    0.6439    0.0000 C   0  0  0  0  0  0  0  0  0  0  0  0
  -38.1700   -0.5050    0.0000 H   0  0  0  0  0  0  0  0  0  0  0  0
  -36.2416   -0.5054    0.0000 H   0  0  0  0  0  0  0  0  0  0  0  0
  -35.9065    1.3937    0.0000 N   0  0  0  0  0  0  0  0  0  0  0  0
  -35.9062    2.8937    0.0000 H   0  0  0  0  0  0  0  0  0  0  0  0
  -34.6075    0.6435    0.0000 C   0  0  0  0  0  0  0  0  0  0  0  0
  -33.3075    1.3935    0.0000 C   0  0  0  0  0  0  0  0  0  0  0  0
  -33.3075    2.8935    0.0000 H   0  0  0  0  0  0  0  0  0  0  0  0
  -32.0075    0.6435    0.0000 C   0  0  0  0  0  0  0  0  0  0  0  0
  -30.7086    1.3937    0.0000 H   0  0  0  0  0  0  0  0  0  0  0  0
  -32.0075   -0.8565    0.0000 C   0  0  0  0  0  0  0  0  0  0  0  0
  -33.3075   -1.6065    0.0000 C   0  0  0  0  0  0  0  0  0  0  0  0
  -33.3075   -3.1065    0.0000 H   0  0  0  0  0  0  0  0  0  0  0  0
  -34.6075   -0.8565    0.0000 C   0  0  0  0  0  0  0  0  0  0  0  0
  -35.9065   -1.6068    0.0000 H   0  0  0  0  0  0  0  0  0  0  0  0
  -30.7086   -1.6068    0.0000 C   0  0  0  0  0  0  0  0  0  0  0  0
  -30.7089   -3.1068    0.0000 O   0  0  0  0  0  0  0  0  0  0  0  0
  -29.4095   -0.8570    0.0000 O   0  0  0  0  0  0  0  0  0  0  0  0
  -28.1105   -1.6072    0.0000 C   0  0  0  0  0  0  0  0  0  0  0  0
  -29.0749   -2.7561    0.0000 H   0  0  0  0  0  0  0  0  0  0  0  0
  -27.1465   -2.7564    0.0000 H   0  0  0  0  0  0  0  0  0  0  0  0
  -26.8114   -0.8574    0.0000 C   0  0  0  0  0  0  0  0  0  0  0  0
  -25.8470    0.2915    0.0000 H   0  0  0  0  0  0  0  0  0  0  0  0
  -27.7754    0.2918    0.0000 H   0  0  0  0  0  0  0  0  0  0  0  0
  -25.0968   -1.8477    0.0000 O   0  0  0  0  0  0  0  0  0  0  0  0
  -23.7977   -1.0979    0.0000 C   0  0  0  0  0  0  0  0  0  0  0  0
  -22.8333    0.0510    0.0000 H   0  0  0  0  0  0  0  0  0  0  0  0
  -24.7617    0.0514    0.0000 H   0  0  0  0  0  0  0  0  0  0  0  0
  -22.4987   -1.8481    0.0000 C   0  0  0  0  0  0  0  0  0  0  0  0
  -23.4631   -2.9970    0.0000 H   0  0  0  0  0  0  0  0  0  0  0  0
  -21.5347   -2.9973    0.0000 H   0  0  0  0  0  0  0  0  0  0  0  0
  -21.1996   -1.0983    0.0000 O   0  0  0  0  0  0  0  0  0  0  0  0
  -19.4850   -2.0886    0.0000 C   0  0  0  0  0  0  0  0  0  0  0  0
  -20.4494   -3.2375    0.0000 H   0  0  0  0  0  0  0  0  0  0  0  0
  -18.5210   -3.2378    0.0000 H   0  0  0  0  0  0  0  0  0  0  0  0
  -18.1859   -1.3388    0.0000 C   0  0  0  0  0  0  0  0  0  0  0  0
  -17.2215   -0.1899    0.0000 H   0  0  0  0  0  0  0  0  0  0  0  0
  -19.1498   -0.1895    0.0000 H   0  0  0  0  0  0  0  0  0  0  0  0
  -16.8869   -2.0890    0.0000 O   0  0  0  0  0  0  0  0  0  0  0  0
  -15.1720   -1.0992    0.0000 C   0  0  0  0  0  0  0  0  0  0  0  0
  -14.2077    0.0497    0.0000 H   0  0  0  0  0  0  0  0  0  0  0  0
  -16.1360    0.0500    0.0000 H   0  0  0  0  0  0  0  0  0  0  0  0
  -13.8731   -1.8495    0.0000 C   0  0  0  0  0  0  0  0  0  0  0  0
  -14.8375   -2.9984    0.0000 H   0  0  0  0  0  0  0  0  0  0  0  0
  -12.9091   -2.9987    0.0000 H   0  0  0  0  0  0  0  0  0  0  0  0
  -12.1582   -0.8597    0.0000 O   0  0  0  0  0  0  0  0  0  0  0  0
  -10.8593   -1.6099    0.0000 C   0  0  0  0  0  0  0  0  0  0  0  0
  -11.8237   -2.7589    0.0000 H   0  0  0  0  0  0  0  0  0  0  0  0
   -9.8953   -2.7592    0.0000 H   0  0  0  0  0  0  0  0  0  0  0  0
   -9.5602   -0.8601    0.0000 C   0  0  0  0  0  0  0  0  0  0  0  0
   -8.5958    0.2888    0.0000 H   0  0  0  0  0  0  0  0  0  0  0  0
  -10.5242    0.2891    0.0000 O   0  0  0  0  0  0  0  0  0  0  0  0
  -10.0109    1.6985    0.0000 H   0  0  0  0  0  0  0  0  0  0  0  0
   -7.8456   -1.8504    0.0000 O   0  0  0  0  0  0  0  0  0  0  0  0
   -6.5464   -1.1006    0.0000 C   0  0  0  0  0  0  0  0  0  0  0  0
   -5.5821    0.0483    0.0000 H   0  0  0  0  0  0  0  0  0  0  0  0
   -7.5104    0.0486    0.0000 H   0  0  0  0  0  0  0  0  0  0  0  0
   -5.2475   -1.8508    0.0000 C   0  0  0  0  0  0  0  0  0  0  0  0
   -6.2119   -2.9997    0.0000 H   0  0  0  0  0  0  0  0  0  0  0  0
   -4.2835   -3.0001    0.0000 H   0  0  0  0  0  0  0  0  0  0  0  0
   -3.9484   -1.1010    0.0000 O   0  0  0  0  0  0  0  0  0  0  0  0
   -2.2338   -2.0913    0.0000 C   0  0  0  0  0  0  0  0  0  0  0  0
   -3.1981   -3.2402    0.0000 H   0  0  0  0  0  0  0  0  0  0  0  0
   -1.2698   -3.2405    0.0000 H   0  0  0  0  0  0  0  0  0  0  0  0
   -0.9346   -1.3415    0.0000 C   0  0  0  0  0  0  0  0  0  0  0  0
    0.0297   -0.1926    0.0000 H   0  0  0  0  0  0  0  0  0  0  0  0
   -1.8986   -0.1923    0.0000 H   0  0  0  0  0  0  0  0  0  0  0  0
    0.7799   -2.3318    0.0000 O   0  0  0  0  0  0  0  0  0  0  0  0
    2.0791   -1.5820    0.0000 C   0  0  0  0  0  0  0  0  0  0  0  0
    3.0435   -0.4331    0.0000 H   0  0  0  0  0  0  0  0  0  0  0  0
    1.1151   -0.4328    0.0000 H   0  0  0  0  0  0  0  0  0  0  0  0
    3.3780   -2.3322    0.0000 C   0  0  0  0  0  0  0  0  0  0  0  0
    2.4137   -3.4811    0.0000 H   0  0  0  0  0  0  0  0  0  0  0  0
    4.3420   -3.4814    0.0000 H   0  0  0  0  0  0  0  0  0  0  0  0
    5.0929   -1.3425    0.0000 O   0  0  0  0  0  0  0  0  0  0  0  0
    6.3918   -2.0927    0.0000 C   0  0  0  0  0  0  0  0  0  0  0  0
    5.4275   -3.2416    0.0000 H   0  0  0  0  0  0  0  0  0  0  0  0
    7.3558   -3.2419    0.0000 H   0  0  0  0  0  0  0  0  0  0  0  0
    7.6910   -1.3429    0.0000 C   0  0  0  0  0  0  0  0  0  0  0  0
    8.6554   -0.1940    0.0000 H   0  0  0  0  0  0  0  0  0  0  0  0
    6.7270   -0.1937    0.0000 H   0  0  0  0  0  0  0  0  0  0  0  0
    8.9899   -2.0931    0.0000 O   0  0  0  0  0  0  0  0  0  0  0  0
   10.2891   -1.3433    0.0000 C   0  0  0  0  0  0  0  0  0  0  0  0
   10.2893    0.1567    0.0000 H   0  0  0  0  0  0  0  0  0  0  0  0
   11.7663   -1.0831    0.0000 H   0  0  0  0  0  0  0  0  0  0  0  0
   10.8019   -2.7529    0.0000 H   0  0  0  0  0  0  0  0  0  0  0  0
  1  2  1  0  0  0  0 
  1  3  1  0  0  0  0 
  1  4  1  0  0  0  0 
  1  5  1  0  0  0  0 
  5  6  1  0  0  0  0 
  5  7  1  0  0  0  0 
  5  8  1  0  0  0  0 
  8  9  1  0  0  0  0 
  8 10  1  0  0  0  0 
  8 11  1  0  0  0  0 
 11 12  1  0  0  0  0 
 11 13  1  0  0  0  0 
 11 14  1  0  0  0  0 
 14 15  1  0  0  0  0 
 14 16  1  0  0  0  0 
 16 17  2  0  0  0  0 
 17 18  1  0  0  0  0 
 17 19  1  0  0  0  0 
 19 20  1  0  0  0  0 
 19 21  2  0  0  0  0 
 21 22  1  0  0  0  0 
 22 23  1  0  0  0  0 
 22 24  2  0  0  0  0 
 16 24  1  0  0  0  0 
 24 25  1  0  0  0  0 
 21 26  1  0  0  0  0 
 26 27  2  0  0  0  0 
 26 28  1  0  0  0  0 
 28 29  1  0  0  0  0 
 29 30  1  0  0  0  0 
 29 31  1  0  0  0  0 
 29 32  1  0  0  0  0 
 32 33  1  0  0  0  0 
 32 34  1  0  0  0  0 
 32 35  1  0  0  0  0 
 35 36  1  0  0  0  0 
 36 37  1  0  0  0  0 
 36 38  1  0  0  0  0 
 36 39  1  0  0  0  0 
 39 40  1  0  0  0  0 
 39 41  1  0  0  0  0 
 39 42  1  0  0  0  0 
 42 43  1  0  0  0  0 
 43 44  1  0  0  0  0 
 43 45  1  0  0  0  0 
 43 46  1  0  0  0  0 
 46 47  1  0  0  0  0 
 46 48  1  0  0  0  0 
 46 49  1  0  0  0  0 
 49 50  1  0  0  0  0 
 50 51  1  0  0  0  0 
 50 52  1  0  0  0  0 
 50 53  1  0  0  0  0 
 53 54  1  0  0  0  0 
 53 55  1  0  0  0  0 
 53 56  1  0  0  0  0 
 56 57  1  0  0  0  0 
 57 58  1  0  0  0  0 
 57 59  1  0  0  0  0 
 57 60  1  0  0  0  0 
 60 61  1  0  0  0  0 
 60 62  1  0  0  0  0 
 62 63  1  0  0  0  0 
 60 64  1  0  0  0  0 
 64 65  1  0  0  0  0 
 65 66  1  0  0  0  0 
 65 67  1  0  0  0  0 
 65 68  1  0  0  0  0 
 68 69  1  0  0  0  0 
 68 70  1  0  0  0  0 
 68 71  1  0  0  0  0 
 71 72  1  0  0  0  0 
 72 73  1  0  0  0  0 
 72 74  1  0  0  0  0 
 72 75  1  0  0  0  0 
 75 76  1  0  0  0  0 
 75 77  1  0  0  0  0 
 75 78  1  0  0  0  0 
 78 79  1  0  0  0  0 
 79 80  1  0  0  0  0 
 79 81  1  0  0  0  0 
 79 82  1  0  0  0  0 
 82 83  1  0  0  0  0 
 82 84  1  0  0  0  0 
 82 85  1  0  0  0  0 
 85 86  1  0  0  0  0 
 86 87  1  0  0  0  0 
 86 88  1  0  0  0  0 
 86 89  1  0  0  0  0 
 89 90  1  0  0  0  0 
 89 91  1  0  0  0  0 
 89 92  1  0  0  0  0 
 92 93  1  0  0  0  0 
 93 94  1  0  0  0  0 
 93 95  1  0  0  0  0 
 93 96  1  0  0  0  0 
M  END
> <Rank>
37

> <Priority_score>
0.108

> <Reaction_type>
aliphatic hydroxylation

> <Parent_ID>
18

> <Parent_InChI>
InChI=1S/C30H53NO11/c1-3-4-9-31-29-7-5-28(6-8-29)30(32)42-27-26-41-25-24-40-23-22-39-21-20-38-19-18-37-17-16-36-15-14-35-13-12-34-11-10-33-2/h5-8,31H,3-4,9-27H2,1-2H3

> <Parent_SMILES>
CCCCNc1ccc(C(=O)OCCOCCOCCOCCOCCOCCOCCOCCOCCOC)cc1

$$$$
Molecule 18_metabolite 44
  CDK     0516241031

 96 96  0  0  0  0  0  0  0  0999 V2000
  -41.5183    3.5213    0.0000 C   0  0  0  0  0  0  0  0  0  0  0  0
  -41.5181    5.0213    0.0000 H   0  0  0  0  0  0  0  0  0  0  0  0
  -42.0316    2.1118    0.0000 H   0  0  0  0  0  0  0  0  0  0  0  0
  -42.9955    3.7820    0.0000 H   0  0  0  0  0  0  0  0  0  0  0  0
  -40.2194    2.7710    0.0000 C   0  0  0  0  0  0  0  0  0  0  0  0
  -41.1838    1.6221    0.0000 H   0  0  0  0  0  0  0  0  0  0  0  0
  -39.2554    1.6218    0.0000 H   0  0  0  0  0  0  0  0  0  0  0  0
  -38.9203    3.5208    0.0000 C   0  0  0  0  0  0  0  0  0  0  0  0
  -37.9559    4.6697    0.0000 H   0  0  0  0  0  0  0  0  0  0  0  0
  -39.8843    4.6701    0.0000 H   0  0  0  0  0  0  0  0  0  0  0  0
  -37.2057    2.5306    0.0000 C   0  0  0  0  0  0  0  0  0  0  0  0
  -38.1701    1.3816    0.0000 H   0  0  0  0  0  0  0  0  0  0  0  0
  -36.2417    1.3813    0.0000 H   0  0  0  0  0  0  0  0  0  0  0  0
  -35.9065    3.2804    0.0000 N   0  0  0  0  0  0  0  0  0  0  0  0
  -35.9063    4.7804    0.0000 H   0  0  0  0  0  0  0  0  0  0  0  0
  -34.6076    2.5301    0.0000 C   0  0  0  0  0  0  0  0  0  0  0  0
  -33.3076    3.2801    0.0000 C   0  0  0  0  0  0  0  0  0  0  0  0
  -33.3076    4.7801    0.0000 H   0  0  0  0  0  0  0  0  0  0  0  0
  -32.0076    2.5301    0.0000 C   0  0  0  0  0  0  0  0  0  0  0  0
  -30.7087    3.2804    0.0000 H   0  0  0  0  0  0  0  0  0  0  0  0
  -32.0076    1.0301    0.0000 C   0  0  0  0  0  0  0  0  0  0  0  0
  -33.3076    0.2801    0.0000 C   0  0  0  0  0  0  0  0  0  0  0  0
  -33.3076   -1.2199    0.0000 H   0  0  0  0  0  0  0  0  0  0  0  0
  -34.6076    1.0301    0.0000 C   0  0  0  0  0  0  0  0  0  0  0  0
  -35.9065    0.2799    0.0000 H   0  0  0  0  0  0  0  0  0  0  0  0
  -30.7087    0.2799    0.0000 C   0  0  0  0  0  0  0  0  0  0  0  0
  -30.7089   -1.2201    0.0000 O   0  0  0  0  0  0  0  0  0  0  0  0
  -29.4095    1.0297    0.0000 O   0  0  0  0  0  0  0  0  0  0  0  0
  -28.1106    0.2795    0.0000 C   0  0  0  0  0  0  0  0  0  0  0  0
  -29.0750   -0.8694    0.0000 H   0  0  0  0  0  0  0  0  0  0  0  0
  -27.1466   -0.8697    0.0000 H   0  0  0  0  0  0  0  0  0  0  0  0
  -26.8115    1.0293    0.0000 C   0  0  0  0  0  0  0  0  0  0  0  0
  -25.8471    2.1782    0.0000 H   0  0  0  0  0  0  0  0  0  0  0  0
  -27.7755    2.1785    0.0000 H   0  0  0  0  0  0  0  0  0  0  0  0
  -25.0969    0.0390    0.0000 O   0  0  0  0  0  0  0  0  0  0  0  0
  -23.7977    0.7888    0.0000 C   0  0  0  0  0  0  0  0  0  0  0  0
  -22.8334    1.9377    0.0000 H   0  0  0  0  0  0  0  0  0  0  0  0
  -24.7617    1.9380    0.0000 H   0  0  0  0  0  0  0  0  0  0  0  0
  -22.4988    0.0386    0.0000 C   0  0  0  0  0  0  0  0  0  0  0  0
  -23.4632   -1.1103    0.0000 H   0  0  0  0  0  0  0  0  0  0  0  0
  -21.5348   -1.1106    0.0000 H   0  0  0  0  0  0  0  0  0  0  0  0
  -21.1997    0.7884    0.0000 O   0  0  0  0  0  0  0  0  0  0  0  0
  -19.4851   -0.2019    0.0000 C   0  0  0  0  0  0  0  0  0  0  0  0
  -20.4495   -1.3508    0.0000 H   0  0  0  0  0  0  0  0  0  0  0  0
  -18.5211   -1.3511    0.0000 H   0  0  0  0  0  0  0  0  0  0  0  0
  -18.1859    0.5479    0.0000 C   0  0  0  0  0  0  0  0  0  0  0  0
  -17.2216    1.6968    0.0000 H   0  0  0  0  0  0  0  0  0  0  0  0
  -19.1499    1.6971    0.0000 H   0  0  0  0  0  0  0  0  0  0  0  0
  -16.4714   -0.4423    0.0000 O   0  0  0  0  0  0  0  0  0  0  0  0
  -15.1722    0.3074    0.0000 C   0  0  0  0  0  0  0  0  0  0  0  0
  -14.2078    1.4564    0.0000 H   0  0  0  0  0  0  0  0  0  0  0  0
  -16.1362    1.4567    0.0000 H   0  0  0  0  0  0  0  0  0  0  0  0
  -13.8733   -0.4428    0.0000 C   0  0  0  0  0  0  0  0  0  0  0  0
  -14.8376   -1.5917    0.0000 H   0  0  0  0  0  0  0  0  0  0  0  0
  -12.9093   -1.5920    0.0000 O   0  0  0  0  0  0  0  0  0  0  0  0
  -13.4225   -3.0014    0.0000 H   0  0  0  0  0  0  0  0  0  0  0  0
  -12.1584    0.5470    0.0000 O   0  0  0  0  0  0  0  0  0  0  0  0
  -10.8595   -0.2032    0.0000 C   0  0  0  0  0  0  0  0  0  0  0  0
  -11.8238   -1.3522    0.0000 H   0  0  0  0  0  0  0  0  0  0  0  0
   -9.8955   -1.3525    0.0000 H   0  0  0  0  0  0  0  0  0  0  0  0
   -9.5603    0.5465    0.0000 C   0  0  0  0  0  0  0  0  0  0  0  0
   -8.5960    1.6955    0.0000 H   0  0  0  0  0  0  0  0  0  0  0  0
  -10.5243    1.6958    0.0000 H   0  0  0  0  0  0  0  0  0  0  0  0
   -8.2614   -0.2037    0.0000 O   0  0  0  0  0  0  0  0  0  0  0  0
   -6.5465    0.7861    0.0000 C   0  0  0  0  0  0  0  0  0  0  0  0
   -5.5821    1.9350    0.0000 H   0  0  0  0  0  0  0  0  0  0  0  0
   -7.5105    1.9353    0.0000 H   0  0  0  0  0  0  0  0  0  0  0  0
   -5.2476    0.0359    0.0000 C   0  0  0  0  0  0  0  0  0  0  0  0
   -6.2120   -1.1131    0.0000 H   0  0  0  0  0  0  0  0  0  0  0  0
   -4.2836   -1.1134    0.0000 H   0  0  0  0  0  0  0  0  0  0  0  0
   -3.5327    1.0256    0.0000 O   0  0  0  0  0  0  0  0  0  0  0  0
   -2.2338    0.2754    0.0000 C   0  0  0  0  0  0  0  0  0  0  0  0
   -3.1981   -0.8735    0.0000 H   0  0  0  0  0  0  0  0  0  0  0  0
   -1.2698   -0.8738    0.0000 H   0  0  0  0  0  0  0  0  0  0  0  0
   -0.9346    1.0252    0.0000 C   0  0  0  0  0  0  0  0  0  0  0  0
    0.0297    2.1741    0.0000 H   0  0  0  0  0  0  0  0  0  0  0  0
   -1.8986    2.1744    0.0000 H   0  0  0  0  0  0  0  0  0  0  0  0
    0.3643    0.2750    0.0000 O   0  0  0  0  0  0  0  0  0  0  0  0
    2.0792    1.2647    0.0000 C   0  0  0  0  0  0  0  0  0  0  0  0
    3.0435    2.4136    0.0000 H   0  0  0  0  0  0  0  0  0  0  0  0
    1.1152    2.4139    0.0000 H   0  0  0  0  0  0  0  0  0  0  0  0
    3.3781    0.5145    0.0000 C   0  0  0  0  0  0  0  0  0  0  0  0
    2.4137   -0.6344    0.0000 H   0  0  0  0  0  0  0  0  0  0  0  0
    4.3421   -0.6347    0.0000 H   0  0  0  0  0  0  0  0  0  0  0  0
    5.0930    1.5042    0.0000 O   0  0  0  0  0  0  0  0  0  0  0  0
    6.3919    0.7540    0.0000 C   0  0  0  0  0  0  0  0  0  0  0  0
    5.4275   -0.3949    0.0000 H   0  0  0  0  0  0  0  0  0  0  0  0
    7.3559   -0.3952    0.0000 H   0  0  0  0  0  0  0  0  0  0  0  0
    7.6911    1.5038    0.0000 C   0  0  0  0  0  0  0  0  0  0  0  0
    8.6554    2.6527    0.0000 H   0  0  0  0  0  0  0  0  0  0  0  0
    6.7271    2.6530    0.0000 H   0  0  0  0  0  0  0  0  0  0  0  0
    8.9900    0.7536    0.0000 O   0  0  0  0  0  0  0  0  0  0  0  0
   10.2891    1.5034    0.0000 C   0  0  0  0  0  0  0  0  0  0  0  0
   10.2894    3.0034    0.0000 H   0  0  0  0  0  0  0  0  0  0  0  0
   11.7664    1.7636    0.0000 H   0  0  0  0  0  0  0  0  0  0  0  0
   10.8019    0.0937    0.0000 H   0  0  0  0  0  0  0  0  0  0  0  0
  1  2  1  0  0  0  0 
  1  3  1  0  0  0  0 
  1  4  1  0  0  0  0 
  1  5  1  0  0  0  0 
  5  6  1  0  0  0  0 
  5  7  1  0  0  0  0 
  5  8  1  0  0  0  0 
  8  9  1  0  0  0  0 
  8 10  1  0  0  0  0 
  8 11  1  0  0  0  0 
 11 12  1  0  0  0  0 
 11 13  1  0  0  0  0 
 11 14  1  0  0  0  0 
 14 15  1  0  0  0  0 
 14 16  1  0  0  0  0 
 16 17  2  0  0  0  0 
 17 18  1  0  0  0  0 
 17 19  1  0  0  0  0 
 19 20  1  0  0  0  0 
 19 21  2  0  0  0  0 
 21 22  1  0  0  0  0 
 22 23  1  0  0  0  0 
 22 24  2  0  0  0  0 
 16 24  1  0  0  0  0 
 24 25  1  0  0  0  0 
 21 26  1  0  0  0  0 
 26 27  2  0  0  0  0 
 26 28  1  0  0  0  0 
 28 29  1  0  0  0  0 
 29 30  1  0  0  0  0 
 29 31  1  0  0  0  0 
 29 32  1  0  0  0  0 
 32 33  1  0  0  0  0 
 32 34  1  0  0  0  0 
 32 35  1  0  0  0  0 
 35 36  1  0  0  0  0 
 36 37  1  0  0  0  0 
 36 38  1  0  0  0  0 
 36 39  1  0  0  0  0 
 39 40  1  0  0  0  0 
 39 41  1  0  0  0  0 
 39 42  1  0  0  0  0 
 42 43  1  0  0  0  0 
 43 44  1  0  0  0  0 
 43 45  1  0  0  0  0 
 43 46  1  0  0  0  0 
 46 47  1  0  0  0  0 
 46 48  1  0  0  0  0 
 46 49  1  0  0  0  0 
 49 50  1  0  0  0  0 
 50 51  1  0  0  0  0 
 50 52  1  0  0  0  0 
 50 53  1  0  0  0  0 
 53 54  1  0  0  0  0 
 53 55  1  0  0  0  0 
 55 56  1  0  0  0  0 
 53 57  1  0  0  0  0 
 57 58  1  0  0  0  0 
 58 59  1  0  0  0  0 
 58 60  1  0  0  0  0 
 58 61  1  0  0  0  0 
 61 62  1  0  0  0  0 
 61 63  1  0  0  0  0 
 61 64  1  0  0  0  0 
 64 65  1  0  0  0  0 
 65 66  1  0  0  0  0 
 65 67  1  0  0  0  0 
 65 68  1  0  0  0  0 
 68 69  1  0  0  0  0 
 68 70  1  0  0  0  0 
 68 71  1  0  0  0  0 
 71 72  1  0  0  0  0 
 72 73  1  0  0  0  0 
 72 74  1  0  0  0  0 
 72 75  1  0  0  0  0 
 75 76  1  0  0  0  0 
 75 77  1  0  0  0  0 
 75 78  1  0  0  0  0 
 78 79  1  0  0  0  0 
 79 80  1  0  0  0  0 
 79 81  1  0  0  0  0 
 79 82  1  0  0  0  0 
 82 83  1  0  0  0  0 
 82 84  1  0  0  0  0 
 82 85  1  0  0  0  0 
 85 86  1  0  0  0  0 
 86 87  1  0  0  0  0 
 86 88  1  0  0  0  0 
 86 89  1  0  0  0  0 
 89 90  1  0  0  0  0 
 89 91  1  0  0  0  0 
 89 92  1  0  0  0  0 
 92 93  1  0  0  0  0 
 93 94  1  0  0  0  0 
 93 95  1  0  0  0  0 
 93 96  1  0  0  0  0 
M  END
> <Rank>
37

> <Priority_score>
0.108

> <Reaction_type>
aliphatic hydroxylation

> <Parent_ID>
18

> <Parent_InChI>
InChI=1S/C30H53NO11/c1-3-4-9-31-29-7-5-28(6-8-29)30(32)42-27-26-41-25-24-40-23-22-39-21-20-38-19-18-37-17-16-36-15-14-35-13-12-34-11-10-33-2/h5-8,31H,3-4,9-27H2,1-2H3

> <Parent_SMILES>
CCCCNc1ccc(C(=O)OCCOCCOCCOCCOCCOCCOCCOCCOCCOC)cc1

$$$$
Molecule 18_metabolite 45
  CDK     0516241031

 39 38  0  0  0  0  0  0  0  0999 V2000
    0.4677   -0.7500    0.0000 C   0  0  0  0  0  0  0  0  0  0  0  0
    0.4677   -2.2500    0.0000 H   0  0  0  0  0  0  0  0  0  0  0  0
   -1.0096   -1.0105    0.0000 H   0  0  0  0  0  0  0  0  0  0  0  0
   -0.0454    0.6595    0.0000 H   0  0  0  0  0  0  0  0  0  0  0  0
    1.7667    0.0000    0.0000 O   0  0  0  0  0  0  0  0  0  0  0  0
    3.0657   -0.7500    0.0000 C   0  0  0  0  0  0  0  0  0  0  0  0
    2.1015   -1.8991    0.0000 H   0  0  0  0  0  0  0  0  0  0  0  0
    4.0299   -1.8991    0.0000 H   0  0  0  0  0  0  0  0  0  0  0  0
    4.3648    0.0000    0.0000 C   0  0  0  0  0  0  0  0  0  0  0  0
    5.3289    1.1491    0.0000 H   0  0  0  0  0  0  0  0  0  0  0  0
    3.4006    1.1491    0.0000 H   0  0  0  0  0  0  0  0  0  0  0  0
    5.6638   -0.7500    0.0000 O   0  0  0  0  0  0  0  0  0  0  0  0
    7.3785    0.2400    0.0000 C   0  0  0  0  0  0  0  0  0  0  0  0
    8.3427    1.3891    0.0000 H   0  0  0  0  0  0  0  0  0  0  0  0
    6.4144    1.3891    0.0000 H   0  0  0  0  0  0  0  0  0  0  0  0
    8.6776   -0.5100    0.0000 C   0  0  0  0  0  0  0  0  0  0  0  0
    7.7134   -1.6591    0.0000 H   0  0  0  0  0  0  0  0  0  0  0  0
    9.6418   -1.6591    0.0000 H   0  0  0  0  0  0  0  0  0  0  0  0
    9.9766    0.2400    0.0000 O   0  0  0  0  0  0  0  0  0  0  0  0
   11.6913   -0.7500    0.0000 C   0  0  0  0  0  0  0  0  0  0  0  0
   10.7272   -1.8991    0.0000 H   0  0  0  0  0  0  0  0  0  0  0  0
   12.6555   -1.8991    0.0000 H   0  0  0  0  0  0  0  0  0  0  0  0
   12.9904   -0.0000    0.0000 C   0  0  0  0  0  0  0  0  0  0  0  0
   13.9546    1.1491    0.0000 H   0  0  0  0  0  0  0  0  0  0  0  0
   12.0262    1.1491    0.0000 H   0  0  0  0  0  0  0  0  0  0  0  0
   14.7051   -0.9900    0.0000 O   0  0  0  0  0  0  0  0  0  0  0  0
   16.0042   -0.2400    0.0000 C   0  0  0  0  0  0  0  0  0  0  0  0
   16.9683    0.9091    0.0000 H   0  0  0  0  0  0  0  0  0  0  0  0
   15.0400    0.9091    0.0000 H   0  0  0  0  0  0  0  0  0  0  0  0
   17.3032   -0.9900    0.0000 C   0  0  0  0  0  0  0  0  0  0  0  0
   16.3390   -2.1391    0.0000 H   0  0  0  0  0  0  0  0  0  0  0  0
   18.2674   -2.1391    0.0000 H   0  0  0  0  0  0  0  0  0  0  0  0
   19.0179   -0.0000    0.0000 O   0  0  0  0  0  0  0  0  0  0  0  0
   20.3170   -0.7500    0.0000 C   0  0  0  0  0  0  0  0  0  0  0  0
   19.3528   -1.8991    0.0000 H   0  0  0  0  0  0  0  0  0  0  0  0
   21.2811   -1.8991    0.0000 H   0  0  0  0  0  0  0  0  0  0  0  0
   21.6160   -0.0000    0.0000 C   0  0  0  0  0  0  0  0  0  0  0  0
   22.9150   -0.7500    0.0000 H   0  0  0  0  0  0  0  0  0  0  0  0
   21.6160    1.5000    0.0000 O   0  0  0  0  0  0  0  0  0  0  0  0
  1  2  1  0  0  0  0 
  1  3  1  0  0  0  0 
  1  4  1  0  0  0  0 
  1  5  1  0  0  0  0 
  5  6  1  0  0  0  0 
  6  7  1  0  0  0  0 
  6  8  1  0  0  0  0 
  6  9  1  0  0  0  0 
  9 10  1  0  0  0  0 
  9 11  1  0  0  0  0 
  9 12  1  0  0  0  0 
 12 13  1  0  0  0  0 
 13 14  1  0  0  0  0 
 13 15  1  0  0  0  0 
 13 16  1  0  0  0  0 
 16 17  1  0  0  0  0 
 16 18  1  0  0  0  0 
 16 19  1  0  0  0  0 
 19 20  1  0  0  0  0 
 20 21  1  0  0  0  0 
 20 22  1  0  0  0  0 
 20 23  1  0  0  0  0 
 23 24  1  0  0  0  0 
 23 25  1  0  0  0  0 
 23 26  1  0  0  0  0 
 26 27  1  0  0  0  0 
 27 28  1  0  0  0  0 
 27 29  1  0  0  0  0 
 27 30  1  0  0  0  0 
 30 31  1  0  0  0  0 
 30 32  1  0  0  0  0 
 30 33  1  0  0  0  0 
 33 34  1  0  0  0  0 
 34 35  1  0  0  0  0 
 34 36  1  0  0  0  0 
 34 37  1  0  0  0  0 
 37 38  1  0  0  0  0 
 37 39  2  0  0  0  0 
M  END
> <Rank>
37

> <Priority_score>
0.108

> <Reaction_type>
oxidative ether cleavage to one alcohol and one aldehyde/ketone

> <Parent_ID>
18

> <Parent_InChI>
InChI=1S/C30H53NO11/c1-3-4-9-31-29-7-5-28(6-8-29)30(32)42-27-26-41-25-24-40-23-22-39-21-20-38-19-18-37-17-16-36-15-14-35-13-12-34-11-10-33-2/h5-8,31H,3-4,9-27H2,1-2H3

> <Parent_SMILES>
CCCCNc1ccc(C(=O)OCCOCCOCCOCCOCCOCCOCCOCCOCCOC)cc1

$$$$
Molecule 18_metabolite 46
  CDK     0516241031

 34 33  0  0  0  0  0  0  0  0999 V2000
    0.4677   -0.7500    0.0000 C   0  0  0  0  0  0  0  0  0  0  0  0
    0.4677   -2.2500    0.0000 H   0  0  0  0  0  0  0  0  0  0  0  0
   -1.0096   -1.0105    0.0000 H   0  0  0  0  0  0  0  0  0  0  0  0
   -0.0454    0.6595    0.0000 H   0  0  0  0  0  0  0  0  0  0  0  0
    1.7667    0.0000    0.0000 O   0  0  0  0  0  0  0  0  0  0  0  0
    3.0657   -0.7500    0.0000 C   0  0  0  0  0  0  0  0  0  0  0  0
    2.1015   -1.8991    0.0000 H   0  0  0  0  0  0  0  0  0  0  0  0
    4.0299   -1.8991    0.0000 H   0  0  0  0  0  0  0  0  0  0  0  0
    4.3648    0.0000    0.0000 C   0  0  0  0  0  0  0  0  0  0  0  0
    5.3289    1.1491    0.0000 H   0  0  0  0  0  0  0  0  0  0  0  0
    3.4006    1.1491    0.0000 H   0  0  0  0  0  0  0  0  0  0  0  0
    5.6638   -0.7500    0.0000 O   0  0  0  0  0  0  0  0  0  0  0  0
    7.3785    0.2400    0.0000 C   0  0  0  0  0  0  0  0  0  0  0  0
    8.3427    1.3891    0.0000 H   0  0  0  0  0  0  0  0  0  0  0  0
    6.4144    1.3891    0.0000 H   0  0  0  0  0  0  0  0  0  0  0  0
    8.6776   -0.5100    0.0000 C   0  0  0  0  0  0  0  0  0  0  0  0
    7.7134   -1.6591    0.0000 H   0  0  0  0  0  0  0  0  0  0  0  0
    9.6418   -1.6591    0.0000 H   0  0  0  0  0  0  0  0  0  0  0  0
   10.3923    0.4800    0.0000 O   0  0  0  0  0  0  0  0  0  0  0  0
   11.6913   -0.2700    0.0000 C   0  0  0  0  0  0  0  0  0  0  0  0
   10.7272   -1.4191    0.0000 H   0  0  0  0  0  0  0  0  0  0  0  0
   12.6555   -1.4191    0.0000 H   0  0  0  0  0  0  0  0  0  0  0  0
   12.9904    0.4800    0.0000 C   0  0  0  0  0  0  0  0  0  0  0  0
   13.9546    1.6291    0.0000 H   0  0  0  0  0  0  0  0  0  0  0  0
   12.0262    1.6291    0.0000 H   0  0  0  0  0  0  0  0  0  0  0  0
   14.7051   -0.5100    0.0000 O   0  0  0  0  0  0  0  0  0  0  0  0
   16.0042    0.2400    0.0000 C   0  0  0  0  0  0  0  0  0  0  0  0
   16.9683    1.3891    0.0000 H   0  0  0  0  0  0  0  0  0  0  0  0
   15.0400    1.3891    0.0000 H   0  0  0  0  0  0  0  0  0  0  0  0
   17.3032   -0.5100    0.0000 C   0  0  0  0  0  0  0  0  0  0  0  0
   16.3390   -1.6591    0.0000 H   0  0  0  0  0  0  0  0  0  0  0  0
   18.2674   -1.6591    0.0000 H   0  0  0  0  0  0  0  0  0  0  0  0
   18.6022    0.2400    0.0000 O   0  0  0  0  0  0  0  0  0  0  0  0
   19.9013   -0.5100    0.0000 H   0  0  0  0  0  0  0  0  0  0  0  0
  1  2  1  0  0  0  0 
  1  3  1  0  0  0  0 
  1  4  1  0  0  0  0 
  1  5  1  0  0  0  0 
  5  6  1  0  0  0  0 
  6  7  1  0  0  0  0 
  6  8  1  0  0  0  0 
  6  9  1  0  0  0  0 
  9 10  1  0  0  0  0 
  9 11  1  0  0  0  0 
  9 12  1  0  0  0  0 
 12 13  1  0  0  0  0 
 13 14  1  0  0  0  0 
 13 15  1  0  0  0  0 
 13 16  1  0  0  0  0 
 16 17  1  0  0  0  0 
 16 18  1  0  0  0  0 
 16 19  1  0  0  0  0 
 19 20  1  0  0  0  0 
 20 21  1  0  0  0  0 
 20 22  1  0  0  0  0 
 20 23  1  0  0  0  0 
 23 24  1  0  0  0  0 
 23 25  1  0  0  0  0 
 23 26  1  0  0  0  0 
 26 27  1  0  0  0  0 
 27 28  1  0  0  0  0 
 27 29  1  0  0  0  0 
 27 30  1  0  0  0  0 
 30 31  1  0  0  0  0 
 30 32  1  0  0  0  0 
 30 33  1  0  0  0  0 
 33 34  1  0  0  0  0 
M  END
> <Rank>
37

> <Priority_score>
0.108

> <Reaction_type>
O-dealkylation_(aliphatic)

> <Parent_ID>
18

> <Parent_InChI>
InChI=1S/C30H53NO11/c1-3-4-9-31-29-7-5-28(6-8-29)30(32)42-27-26-41-25-24-40-23-22-39-21-20-38-19-18-37-17-16-36-15-14-35-13-12-34-11-10-33-2/h5-8,31H,3-4,9-27H2,1-2H3

> <Parent_SMILES>
CCCCNc1ccc(C(=O)OCCOCCOCCOCCOCCOCCOCCOCCOCCOC)cc1

$$$$
Molecule 18_metabolite 47
  CDK     0516241031

 96 96  0  0  0  0  0  0  0  0999 V2000
  -42.3496    1.8738    0.0000 C   0  0  0  0  0  0  0  0  0  0  0  0
  -42.3494    3.3738    0.0000 H   0  0  0  0  0  0  0  0  0  0  0  0
  -42.8629    0.4643    0.0000 H   0  0  0  0  0  0  0  0  0  0  0  0
  -43.8268    2.1345    0.0000 H   0  0  0  0  0  0  0  0  0  0  0  0
  -41.0507    1.1236    0.0000 C   0  0  0  0  0  0  0  0  0  0  0  0
  -42.0151   -0.0253    0.0000 H   0  0  0  0  0  0  0  0  0  0  0  0
  -40.0867   -0.0256    0.0000 H   0  0  0  0  0  0  0  0  0  0  0  0
  -39.7516    1.8734    0.0000 C   0  0  0  0  0  0  0  0  0  0  0  0
  -38.7872    3.0223    0.0000 H   0  0  0  0  0  0  0  0  0  0  0  0
  -40.7156    3.0226    0.0000 H   0  0  0  0  0  0  0  0  0  0  0  0
  -38.0370    0.8831    0.0000 C   0  0  0  0  0  0  0  0  0  0  0  0
  -39.0014   -0.2658    0.0000 H   0  0  0  0  0  0  0  0  0  0  0  0
  -37.0730   -0.2661    0.0000 H   0  0  0  0  0  0  0  0  0  0  0  0
  -36.7378    1.6329    0.0000 N   0  0  0  0  0  0  0  0  0  0  0  0
  -36.7376    3.1329    0.0000 H   0  0  0  0  0  0  0  0  0  0  0  0
  -35.4389    0.8827    0.0000 C   0  0  0  0  0  0  0  0  0  0  0  0
  -34.1389    1.6327    0.0000 C   0  0  0  0  0  0  0  0  0  0  0  0
  -34.1389    3.1327    0.0000 H   0  0  0  0  0  0  0  0  0  0  0  0
  -32.8389    0.8827    0.0000 C   0  0  0  0  0  0  0  0  0  0  0  0
  -31.5400    1.6329    0.0000 H   0  0  0  0  0  0  0  0  0  0  0  0
  -32.8389   -0.6173    0.0000 C   0  0  0  0  0  0  0  0  0  0  0  0
  -34.1389   -1.3673    0.0000 C   0  0  0  0  0  0  0  0  0  0  0  0
  -34.1389   -2.8673    0.0000 H   0  0  0  0  0  0  0  0  0  0  0  0
  -35.4389   -0.6173    0.0000 C   0  0  0  0  0  0  0  0  0  0  0  0
  -36.7378   -1.3675    0.0000 H   0  0  0  0  0  0  0  0  0  0  0  0
  -31.5400   -1.3675    0.0000 C   0  0  0  0  0  0  0  0  0  0  0  0
  -31.5402   -2.8675    0.0000 O   0  0  0  0  0  0  0  0  0  0  0  0
  -30.2408   -0.6177    0.0000 O   0  0  0  0  0  0  0  0  0  0  0  0
  -28.9419   -1.3679    0.0000 C   0  0  0  0  0  0  0  0  0  0  0  0
  -29.9063   -2.5169    0.0000 H   0  0  0  0  0  0  0  0  0  0  0  0
  -27.9779   -2.5172    0.0000 H   0  0  0  0  0  0  0  0  0  0  0  0
  -27.6428   -0.6181    0.0000 C   0  0  0  0  0  0  0  0  0  0  0  0
  -26.6784    0.5308    0.0000 H   0  0  0  0  0  0  0  0  0  0  0  0
  -28.6068    0.5311    0.0000 H   0  0  0  0  0  0  0  0  0  0  0  0
  -25.9282   -1.6084    0.0000 O   0  0  0  0  0  0  0  0  0  0  0  0
  -24.6290   -0.8586    0.0000 C   0  0  0  0  0  0  0  0  0  0  0  0
  -23.6647    0.2903    0.0000 H   0  0  0  0  0  0  0  0  0  0  0  0
  -25.5930    0.2906    0.0000 H   0  0  0  0  0  0  0  0  0  0  0  0
  -23.3301   -1.6088    0.0000 C   0  0  0  0  0  0  0  0  0  0  0  0
  -24.2945   -2.7578    0.0000 H   0  0  0  0  0  0  0  0  0  0  0  0
  -22.3661   -2.7581    0.0000 H   0  0  0  0  0  0  0  0  0  0  0  0
  -22.0310   -0.8590    0.0000 O   0  0  0  0  0  0  0  0  0  0  0  0
  -20.3164   -1.8493    0.0000 C   0  0  0  0  0  0  0  0  0  0  0  0
  -21.2808   -2.9982    0.0000 H   0  0  0  0  0  0  0  0  0  0  0  0
  -19.3524   -2.9985    0.0000 H   0  0  0  0  0  0  0  0  0  0  0  0
  -19.0172   -1.0995    0.0000 C   0  0  0  0  0  0  0  0  0  0  0  0
  -18.0529    0.0494    0.0000 H   0  0  0  0  0  0  0  0  0  0  0  0
  -19.9812    0.0497    0.0000 H   0  0  0  0  0  0  0  0  0  0  0  0
  -17.3027   -2.0898    0.0000 O   0  0  0  0  0  0  0  0  0  0  0  0
  -16.0035   -1.3400    0.0000 C   0  0  0  0  0  0  0  0  0  0  0  0
  -15.0391   -0.1911    0.0000 H   0  0  0  0  0  0  0  0  0  0  0  0
  -16.9675   -0.1908    0.0000 H   0  0  0  0  0  0  0  0  0  0  0  0
  -14.7046   -2.0902    0.0000 C   0  0  0  0  0  0  0  0  0  0  0  0
  -15.6690   -3.2391    0.0000 H   0  0  0  0  0  0  0  0  0  0  0  0
  -13.7406   -3.2394    0.0000 H   0  0  0  0  0  0  0  0  0  0  0  0
  -13.4054   -1.3404    0.0000 O   0  0  0  0  0  0  0  0  0  0  0  0
  -11.6909   -2.3307    0.0000 C   0  0  0  0  0  0  0  0  0  0  0  0
  -12.6552   -3.4796    0.0000 H   0  0  0  0  0  0  0  0  0  0  0  0
  -10.7269   -3.4799    0.0000 H   0  0  0  0  0  0  0  0  0  0  0  0
  -10.3917   -1.5809    0.0000 C   0  0  0  0  0  0  0  0  0  0  0  0
   -9.4273   -0.4320    0.0000 H   0  0  0  0  0  0  0  0  0  0  0  0
  -11.3557   -0.4317    0.0000 H   0  0  0  0  0  0  0  0  0  0  0  0
   -9.0928   -2.3311    0.0000 O   0  0  0  0  0  0  0  0  0  0  0  0
   -7.3779   -1.3414    0.0000 C   0  0  0  0  0  0  0  0  0  0  0  0
   -6.4135   -0.1925    0.0000 H   0  0  0  0  0  0  0  0  0  0  0  0
   -8.3419   -0.1922    0.0000 H   0  0  0  0  0  0  0  0  0  0  0  0
   -6.0790   -2.0916    0.0000 C   0  0  0  0  0  0  0  0  0  0  0  0
   -7.0433   -3.2405    0.0000 H   0  0  0  0  0  0  0  0  0  0  0  0
   -5.1150   -3.2408    0.0000 H   0  0  0  0  0  0  0  0  0  0  0  0
   -4.7798   -1.3418    0.0000 O   0  0  0  0  0  0  0  0  0  0  0  0
   -3.0652   -2.3321    0.0000 C   0  0  0  0  0  0  0  0  0  0  0  0
   -4.0296   -3.4810    0.0000 H   0  0  0  0  0  0  0  0  0  0  0  0
   -1.7661   -1.5823    0.0000 C   0  0  0  0  0  0  0  0  0  0  0  0
   -0.8017   -0.4334    0.0000 H   0  0  0  0  0  0  0  0  0  0  0  0
   -2.7301   -0.4331    0.0000 H   0  0  0  0  0  0  0  0  0  0  0  0
   -0.4672   -2.3325    0.0000 O   0  0  0  0  0  0  0  0  0  0  0  0
    1.2477   -1.3428    0.0000 C   0  0  0  0  0  0  0  0  0  0  0  0
    2.2121   -0.1939    0.0000 H   0  0  0  0  0  0  0  0  0  0  0  0
    0.2837   -0.1936    0.0000 H   0  0  0  0  0  0  0  0  0  0  0  0
    2.5466   -2.0930    0.0000 C   0  0  0  0  0  0  0  0  0  0  0  0
    1.5823   -3.2419    0.0000 H   0  0  0  0  0  0  0  0  0  0  0  0
    3.5106   -3.2422    0.0000 H   0  0  0  0  0  0  0  0  0  0  0  0
    4.2615   -1.1033    0.0000 O   0  0  0  0  0  0  0  0  0  0  0  0
    5.5604   -1.8535    0.0000 C   0  0  0  0  0  0  0  0  0  0  0  0
    4.5961   -3.0024    0.0000 H   0  0  0  0  0  0  0  0  0  0  0  0
    6.5244   -3.0027    0.0000 H   0  0  0  0  0  0  0  0  0  0  0  0
    6.8596   -1.1037    0.0000 C   0  0  0  0  0  0  0  0  0  0  0  0
    7.8240    0.0452    0.0000 H   0  0  0  0  0  0  0  0  0  0  0  0
    5.8956    0.0455    0.0000 H   0  0  0  0  0  0  0  0  0  0  0  0
    8.1585   -1.8539    0.0000 O   0  0  0  0  0  0  0  0  0  0  0  0
    9.4577   -1.1041    0.0000 C   0  0  0  0  0  0  0  0  0  0  0  0
    9.4579    0.3959    0.0000 H   0  0  0  0  0  0  0  0  0  0  0  0
   10.9349   -0.8439    0.0000 H   0  0  0  0  0  0  0  0  0  0  0  0
    9.9705   -2.5137    0.0000 H   0  0  0  0  0  0  0  0  0  0  0  0
   -2.1012   -3.4813    0.0000 O   0  0  0  0  0  0  0  0  0  0  0  0
   -0.6240   -3.2211    0.0000 H   0  0  0  0  0  0  0  0  0  0  0  0
  1  2  1  0  0  0  0 
  1  3  1  0  0  0  0 
  1  4  1  0  0  0  0 
  1  5  1  0  0  0  0 
  5  6  1  0  0  0  0 
  5  7  1  0  0  0  0 
  5  8  1  0  0  0  0 
  8  9  1  0  0  0  0 
  8 10  1  0  0  0  0 
  8 11  1  0  0  0  0 
 11 12  1  0  0  0  0 
 11 13  1  0  0  0  0 
 11 14  1  0  0  0  0 
 14 15  1  0  0  0  0 
 14 16  1  0  0  0  0 
 16 17  2  0  0  0  0 
 17 18  1  0  0  0  0 
 17 19  1  0  0  0  0 
 19 20  1  0  0  0  0 
 19 21  2  0  0  0  0 
 21 22  1  0  0  0  0 
 22 23  1  0  0  0  0 
 22 24  2  0  0  0  0 
 16 24  1  0  0  0  0 
 24 25  1  0  0  0  0 
 21 26  1  0  0  0  0 
 26 27  2  0  0  0  0 
 26 28  1  0  0  0  0 
 28 29  1  0  0  0  0 
 29 30  1  0  0  0  0 
 29 31  1  0  0  0  0 
 29 32  1  0  0  0  0 
 32 33  1  0  0  0  0 
 32 34  1  0  0  0  0 
 32 35  1  0  0  0  0 
 35 36  1  0  0  0  0 
 36 37  1  0  0  0  0 
 36 38  1  0  0  0  0 
 36 39  1  0  0  0  0 
 39 40  1  0  0  0  0 
 39 41  1  0  0  0  0 
 39 42  1  0  0  0  0 
 42 43  1  0  0  0  0 
 43 44  1  0  0  0  0 
 43 45  1  0  0  0  0 
 43 46  1  0  0  0  0 
 46 47  1  0  0  0  0 
 46 48  1  0  0  0  0 
 46 49  1  0  0  0  0 
 49 50  1  0  0  0  0 
 50 51  1  0  0  0  0 
 50 52  1  0  0  0  0 
 50 53  1  0  0  0  0 
 53 54  1  0  0  0  0 
 53 55  1  0  0  0  0 
 53 56  1  0  0  0  0 
 56 57  1  0  0  0  0 
 57 58  1  0  0  0  0 
 57 59  1  0  0  0  0 
 57 60  1  0  0  0  0 
 60 61  1  0  0  0  0 
 60 62  1  0  0  0  0 
 60 63  1  0  0  0  0 
 63 64  1  0  0  0  0 
 64 65  1  0  0  0  0 
 64 66  1  0  0  0  0 
 64 67  1  0  0  0  0 
 67 68  1  0  0  0  0 
 67 69  1  0  0  0  0 
 67 70  1  0  0  0  0 
 70 71  1  0  0  0  0 
 71 72  1  0  0  0  0 
 71 73  1  0  0  0  0 
 73 74  1  0  0  0  0 
 73 75  1  0  0  0  0 
 73 76  1  0  0  0  0 
 76 77  1  0  0  0  0 
 77 78  1  0  0  0  0 
 77 79  1  0  0  0  0 
 77 80  1  0  0  0  0 
 80 81  1  0  0  0  0 
 80 82  1  0  0  0  0 
 80 83  1  0  0  0  0 
 83 84  1  0  0  0  0 
 84 85  1  0  0  0  0 
 84 86  1  0  0  0  0 
 84 87  1  0  0  0  0 
 87 88  1  0  0  0  0 
 87 89  1  0  0  0  0 
 87 90  1  0  0  0  0 
 90 91  1  0  0  0  0 
 91 92  1  0  0  0  0 
 91 93  1  0  0  0  0 
 91 94  1  0  0  0  0 
 71 95  1  0  0  0  0 
 95 96  1  0  0  0  0 
M  END
> <Rank>
47

> <Priority_score>
0.10720337197049526

> <Reaction_type>
aliphatic hydroxylation

> <Parent_ID>
18

> <Parent_InChI>
InChI=1S/C30H53NO11/c1-3-4-9-31-29-7-5-28(6-8-29)30(32)42-27-26-41-25-24-40-23-22-39-21-20-38-19-18-37-17-16-36-15-14-35-13-12-34-11-10-33-2/h5-8,31H,3-4,9-27H2,1-2H3

> <Parent_SMILES>
CCCCNc1ccc(C(=O)OCCOCCOCCOCCOCCOCCOCCOCCOCCOC)cc1

$$$$
Molecule 18_metabolite 48
  CDK     0516241031

 96 96  0  0  0  0  0  0  0  0999 V2000
   10.2891   -2.4614    0.0000 C   0  0  0  0  0  0  0  0  0  0  0  0
   11.5882   -1.7116    0.0000 H   0  0  0  0  0  0  0  0  0  0  0  0
    9.3247   -3.6104    0.0000 H   0  0  0  0  0  0  0  0  0  0  0  0
   11.2531   -3.6107    0.0000 H   0  0  0  0  0  0  0  0  0  0  0  0
    8.1588   -1.2311    0.0000 C   0  0  0  0  0  0  0  0  0  0  0  0
    9.1232   -0.0822    0.0000 H   0  0  0  0  0  0  0  0  0  0  0  0
    7.1948   -0.0819    0.0000 H   0  0  0  0  0  0  0  0  0  0  0  0
    6.8597   -1.9809    0.0000 C   0  0  0  0  0  0  0  0  0  0  0  0
    5.8953   -3.1298    0.0000 H   0  0  0  0  0  0  0  0  0  0  0  0
    5.1451   -0.9906    0.0000 C   0  0  0  0  0  0  0  0  0  0  0  0
    6.1095    0.1583    0.0000 H   0  0  0  0  0  0  0  0  0  0  0  0
    4.1811    0.1586    0.0000 H   0  0  0  0  0  0  0  0  0  0  0  0
    3.8460   -1.7404    0.0000 N   0  0  0  0  0  0  0  0  0  0  0  0
    3.8457   -3.2404    0.0000 H   0  0  0  0  0  0  0  0  0  0  0  0
    2.5470   -0.9902    0.0000 C   0  0  0  0  0  0  0  0  0  0  0  0
    1.2470   -1.7402    0.0000 C   0  0  0  0  0  0  0  0  0  0  0  0
    1.2470   -3.2402    0.0000 H   0  0  0  0  0  0  0  0  0  0  0  0
   -0.0530   -0.9902    0.0000 C   0  0  0  0  0  0  0  0  0  0  0  0
   -1.3519   -1.7404    0.0000 H   0  0  0  0  0  0  0  0  0  0  0  0
   -0.0530    0.5098    0.0000 C   0  0  0  0  0  0  0  0  0  0  0  0
    1.2470    1.2598    0.0000 C   0  0  0  0  0  0  0  0  0  0  0  0
    1.2470    2.7598    0.0000 H   0  0  0  0  0  0  0  0  0  0  0  0
    2.5470    0.5098    0.0000 C   0  0  0  0  0  0  0  0  0  0  0  0
    3.8460    1.2600    0.0000 H   0  0  0  0  0  0  0  0  0  0  0  0
   -1.3519    1.2600    0.0000 C   0  0  0  0  0  0  0  0  0  0  0  0
   -1.3516    2.7600    0.0000 O   0  0  0  0  0  0  0  0  0  0  0  0
   -2.6510    0.5102    0.0000 O   0  0  0  0  0  0  0  0  0  0  0  0
   -3.9500    1.2604    0.0000 C   0  0  0  0  0  0  0  0  0  0  0  0
   -2.9856    2.4093    0.0000 H   0  0  0  0  0  0  0  0  0  0  0  0
   -4.9140    2.4096    0.0000 H   0  0  0  0  0  0  0  0  0  0  0  0
   -5.2491    0.5106    0.0000 C   0  0  0  0  0  0  0  0  0  0  0  0
   -6.2135   -0.6383    0.0000 H   0  0  0  0  0  0  0  0  0  0  0  0
   -4.2851   -0.6386    0.0000 H   0  0  0  0  0  0  0  0  0  0  0  0
   -6.9637    1.5009    0.0000 O   0  0  0  0  0  0  0  0  0  0  0  0
   -8.2628    0.7511    0.0000 C   0  0  0  0  0  0  0  0  0  0  0  0
   -9.2272   -0.3978    0.0000 H   0  0  0  0  0  0  0  0  0  0  0  0
   -7.2988   -0.3981    0.0000 H   0  0  0  0  0  0  0  0  0  0  0  0
   -9.5618    1.5013    0.0000 C   0  0  0  0  0  0  0  0  0  0  0  0
   -8.5974    2.6502    0.0000 H   0  0  0  0  0  0  0  0  0  0  0  0
  -10.5258    2.6505    0.0000 H   0  0  0  0  0  0  0  0  0  0  0  0
  -10.8609    0.7515    0.0000 O   0  0  0  0  0  0  0  0  0  0  0  0
  -12.5755    1.7418    0.0000 C   0  0  0  0  0  0  0  0  0  0  0  0
  -11.6111    2.8907    0.0000 H   0  0  0  0  0  0  0  0  0  0  0  0
  -13.5395    2.8910    0.0000 H   0  0  0  0  0  0  0  0  0  0  0  0
  -13.8747    0.9920    0.0000 C   0  0  0  0  0  0  0  0  0  0  0  0
  -14.8390   -0.1569    0.0000 H   0  0  0  0  0  0  0  0  0  0  0  0
  -12.9107   -0.1572    0.0000 H   0  0  0  0  0  0  0  0  0  0  0  0
  -15.5892    1.9823    0.0000 O   0  0  0  0  0  0  0  0  0  0  0  0
  -16.8884    1.2325    0.0000 C   0  0  0  0  0  0  0  0  0  0  0  0
  -17.8527    0.0836    0.0000 H   0  0  0  0  0  0  0  0  0  0  0  0
  -15.9244    0.0833    0.0000 H   0  0  0  0  0  0  0  0  0  0  0  0
  -18.1873    1.9827    0.0000 C   0  0  0  0  0  0  0  0  0  0  0  0
  -17.2229    3.1316    0.0000 H   0  0  0  0  0  0  0  0  0  0  0  0
  -19.1513    3.1319    0.0000 H   0  0  0  0  0  0  0  0  0  0  0  0
  -19.4865    1.2329    0.0000 O   0  0  0  0  0  0  0  0  0  0  0  0
  -21.2010    2.2232    0.0000 C   0  0  0  0  0  0  0  0  0  0  0  0
  -20.2367    3.3721    0.0000 H   0  0  0  0  0  0  0  0  0  0  0  0
  -22.1650    3.3724    0.0000 H   0  0  0  0  0  0  0  0  0  0  0  0
  -22.5002    1.4734    0.0000 C   0  0  0  0  0  0  0  0  0  0  0  0
  -23.4646    0.3245    0.0000 H   0  0  0  0  0  0  0  0  0  0  0  0
  -21.5362    0.3242    0.0000 H   0  0  0  0  0  0  0  0  0  0  0  0
  -24.2148    2.4637    0.0000 O   0  0  0  0  0  0  0  0  0  0  0  0
  -25.5139    1.7139    0.0000 C   0  0  0  0  0  0  0  0  0  0  0  0
  -26.4783    0.5650    0.0000 H   0  0  0  0  0  0  0  0  0  0  0  0
  -24.5499    0.5647    0.0000 H   0  0  0  0  0  0  0  0  0  0  0  0
  -26.8128    2.4641    0.0000 C   0  0  0  0  0  0  0  0  0  0  0  0
  -25.8485    3.6130    0.0000 H   0  0  0  0  0  0  0  0  0  0  0  0
  -27.7768    3.6133    0.0000 H   0  0  0  0  0  0  0  0  0  0  0  0
  -28.1120    1.7143    0.0000 O   0  0  0  0  0  0  0  0  0  0  0  0
  -29.8266    2.7046    0.0000 C   0  0  0  0  0  0  0  0  0  0  0  0
  -28.8622    3.8535    0.0000 H   0  0  0  0  0  0  0  0  0  0  0  0
  -30.7906    3.8538    0.0000 H   0  0  0  0  0  0  0  0  0  0  0  0
  -31.1257    1.9548    0.0000 C   0  0  0  0  0  0  0  0  0  0  0  0
  -32.0901    0.8059    0.0000 H   0  0  0  0  0  0  0  0  0  0  0  0
  -30.1617    0.8056    0.0000 H   0  0  0  0  0  0  0  0  0  0  0  0
  -32.8403    2.9451    0.0000 O   0  0  0  0  0  0  0  0  0  0  0  0
  -34.1395    2.1953    0.0000 C   0  0  0  0  0  0  0  0  0  0  0  0
  -35.1038    1.0463    0.0000 H   0  0  0  0  0  0  0  0  0  0  0  0
  -33.1755    1.0460    0.0000 H   0  0  0  0  0  0  0  0  0  0  0  0
  -35.4384    2.9455    0.0000 C   0  0  0  0  0  0  0  0  0  0  0  0
  -34.4740    4.0944    0.0000 H   0  0  0  0  0  0  0  0  0  0  0  0
  -36.4024    4.0947    0.0000 H   0  0  0  0  0  0  0  0  0  0  0  0
  -37.1533    1.9557    0.0000 O   0  0  0  0  0  0  0  0  0  0  0  0
  -38.4522    2.7060    0.0000 C   0  0  0  0  0  0  0  0  0  0  0  0
  -37.4878    3.8549    0.0000 H   0  0  0  0  0  0  0  0  0  0  0  0
  -39.4162    3.8552    0.0000 H   0  0  0  0  0  0  0  0  0  0  0  0
  -39.7513    1.9562    0.0000 C   0  0  0  0  0  0  0  0  0  0  0  0
  -40.7157    0.8072    0.0000 H   0  0  0  0  0  0  0  0  0  0  0  0
  -38.7873    0.8069    0.0000 H   0  0  0  0  0  0  0  0  0  0  0  0
  -41.0503    2.7064    0.0000 O   0  0  0  0  0  0  0  0  0  0  0  0
  -42.3494    1.9566    0.0000 C   0  0  0  0  0  0  0  0  0  0  0  0
  -42.3497    0.4566    0.0000 H   0  0  0  0  0  0  0  0  0  0  0  0
  -43.8267    1.6963    0.0000 H   0  0  0  0  0  0  0  0  0  0  0  0
  -42.8622    3.3662    0.0000 H   0  0  0  0  0  0  0  0  0  0  0  0
    7.8237   -3.1301    0.0000 O   0  0  0  0  0  0  0  0  0  0  0  0
    7.3104   -4.5396    0.0000 H   0  0  0  0  0  0  0  0  0  0  0  0
  1  2  1  0  0  0  0 
  1  3  1  0  0  0  0 
  1  4  1  0  0  0  0 
  1  5  1  0  0  0  0 
  5  6  1  0  0  0  0 
  5  7  1  0  0  0  0 
  5  8  1  0  0  0  0 
  8  9  1  0  0  0  0 
  8 10  1  0  0  0  0 
 10 11  1  0  0  0  0 
 10 12  1  0  0  0  0 
 10 13  1  0  0  0  0 
 13 14  1  0  0  0  0 
 13 15  1  0  0  0  0 
 15 16  2  0  0  0  0 
 16 17  1  0  0  0  0 
 16 18  1  0  0  0  0 
 18 19  1  0  0  0  0 
 18 20  2  0  0  0  0 
 20 21  1  0  0  0  0 
 21 22  1  0  0  0  0 
 21 23  2  0  0  0  0 
 15 23  1  0  0  0  0 
 23 24  1  0  0  0  0 
 20 25  1  0  0  0  0 
 25 26  2  0  0  0  0 
 25 27  1  0  0  0  0 
 27 28  1  0  0  0  0 
 28 29  1  0  0  0  0 
 28 30  1  0  0  0  0 
 28 31  1  0  0  0  0 
 31 32  1  0  0  0  0 
 31 33  1  0  0  0  0 
 31 34  1  0  0  0  0 
 34 35  1  0  0  0  0 
 35 36  1  0  0  0  0 
 35 37  1  0  0  0  0 
 35 38  1  0  0  0  0 
 38 39  1  0  0  0  0 
 38 40  1  0  0  0  0 
 38 41  1  0  0  0  0 
 41 42  1  0  0  0  0 
 42 43  1  0  0  0  0 
 42 44  1  0  0  0  0 
 42 45  1  0  0  0  0 
 45 46  1  0  0  0  0 
 45 47  1  0  0  0  0 
 45 48  1  0  0  0  0 
 48 49  1  0  0  0  0 
 49 50  1  0  0  0  0 
 49 51  1  0  0  0  0 
 49 52  1  0  0  0  0 
 52 53  1  0  0  0  0 
 52 54  1  0  0  0  0 
 52 55  1  0  0  0  0 
 55 56  1  0  0  0  0 
 56 57  1  0  0  0  0 
 56 58  1  0  0  0  0 
 56 59  1  0  0  0  0 
 59 60  1  0  0  0  0 
 59 61  1  0  0  0  0 
 59 62  1  0  0  0  0 
 62 63  1  0  0  0  0 
 63 64  1  0  0  0  0 
 63 65  1  0  0  0  0 
 63 66  1  0  0  0  0 
 66 67  1  0  0  0  0 
 66 68  1  0  0  0  0 
 66 69  1  0  0  0  0 
 69 70  1  0  0  0  0 
 70 71  1  0  0  0  0 
 70 72  1  0  0  0  0 
 70 73  1  0  0  0  0 
 73 74  1  0  0  0  0 
 73 75  1  0  0  0  0 
 73 76  1  0  0  0  0 
 76 77  1  0  0  0  0 
 77 78  1  0  0  0  0 
 77 79  1  0  0  0  0 
 77 80  1  0  0  0  0 
 80 81  1  0  0  0  0 
 80 82  1  0  0  0  0 
 80 83  1  0  0  0  0 
 83 84  1  0  0  0  0 
 84 85  1  0  0  0  0 
 84 86  1  0  0  0  0 
 84 87  1  0  0  0  0 
 87 88  1  0  0  0  0 
 87 89  1  0  0  0  0 
 87 90  1  0  0  0  0 
 90 91  1  0  0  0  0 
 91 92  1  0  0  0  0 
 91 93  1  0  0  0  0 
 91 94  1  0  0  0  0 
  8 95  1  0  0  0  0 
 95 96  1  0  0  0  0 
M  END
> <Rank>
48

> <Priority_score>
0.104

> <Reaction_type>
aliphatic hydroxylation

> <Parent_ID>
18

> <Parent_InChI>
InChI=1S/C30H53NO11/c1-3-4-9-31-29-7-5-28(6-8-29)30(32)42-27-26-41-25-24-40-23-22-39-21-20-38-19-18-37-17-16-36-15-14-35-13-12-34-11-10-33-2/h5-8,31H,3-4,9-27H2,1-2H3

> <Parent_SMILES>
CCCCNc1ccc(C(=O)OCCOCCOCCOCCOCCOCCOCCOCCOCCOC)cc1

$$$$
Molecule 18_metabolite 49
  CDK     0516241031

 96 96  0  0  0  0  0  0  0  0999 V2000
   10.2891   -2.4614    0.0000 C   0  0  0  0  0  0  0  0  0  0  0  0
   10.2888   -3.9614    0.0000 H   0  0  0  0  0  0  0  0  0  0  0  0
   10.8023   -1.0520    0.0000 H   0  0  0  0  0  0  0  0  0  0  0  0
   11.7662   -2.7221    0.0000 H   0  0  0  0  0  0  0  0  0  0  0  0
    8.9902   -1.7112    0.0000 C   0  0  0  0  0  0  0  0  0  0  0  0
    9.9545   -0.5623    0.0000 H   0  0  0  0  0  0  0  0  0  0  0  0
    8.0262   -0.5620    0.0000 H   0  0  0  0  0  0  0  0  0  0  0  0
    7.6910   -2.4610    0.0000 C   0  0  0  0  0  0  0  0  0  0  0  0
    6.7266   -3.6099    0.0000 H   0  0  0  0  0  0  0  0  0  0  0  0
    8.6550   -3.6102    0.0000 H   0  0  0  0  0  0  0  0  0  0  0  0
    5.9764   -1.4707    0.0000 C   0  0  0  0  0  0  0  0  0  0  0  0
    6.9408   -0.3218    0.0000 H   0  0  0  0  0  0  0  0  0  0  0  0
    5.0124   -0.3215    0.0000 H   0  0  0  0  0  0  0  0  0  0  0  0
    4.6773   -2.2205    0.0000 N   0  0  0  0  0  0  0  0  0  0  0  0
    4.6770   -3.7205    0.0000 H   0  0  0  0  0  0  0  0  0  0  0  0
    3.3783   -1.4703    0.0000 C   0  0  0  0  0  0  0  0  0  0  0  0
    2.0783   -2.2203    0.0000 C   0  0  0  0  0  0  0  0  0  0  0  0
    2.0783   -3.7203    0.0000 H   0  0  0  0  0  0  0  0  0  0  0  0
    0.7783   -1.4703    0.0000 C   0  0  0  0  0  0  0  0  0  0  0  0
   -0.5206   -2.2205    0.0000 H   0  0  0  0  0  0  0  0  0  0  0  0
    0.7783    0.0297    0.0000 C   0  0  0  0  0  0  0  0  0  0  0  0
    2.0783    0.7797    0.0000 C   0  0  0  0  0  0  0  0  0  0  0  0
    2.0783    2.2797    0.0000 H   0  0  0  0  0  0  0  0  0  0  0  0
    3.3783    0.0297    0.0000 C   0  0  0  0  0  0  0  0  0  0  0  0
    4.6773    0.7799    0.0000 H   0  0  0  0  0  0  0  0  0  0  0  0
   -0.5206    0.7799    0.0000 C   0  0  0  0  0  0  0  0  0  0  0  0
   -0.5203    2.2799    0.0000 O   0  0  0  0  0  0  0  0  0  0  0  0
   -1.8197    0.0301    0.0000 O   0  0  0  0  0  0  0  0  0  0  0  0
   -3.1186    0.7803    0.0000 C   0  0  0  0  0  0  0  0  0  0  0  0
   -2.1543    1.9292    0.0000 H   0  0  0  0  0  0  0  0  0  0  0  0
   -4.0826    1.9295    0.0000 H   0  0  0  0  0  0  0  0  0  0  0  0
   -4.4178    0.0305    0.0000 C   0  0  0  0  0  0  0  0  0  0  0  0
   -5.3822   -1.1184    0.0000 H   0  0  0  0  0  0  0  0  0  0  0  0
   -3.4538   -1.1187    0.0000 O   0  0  0  0  0  0  0  0  0  0  0  0
   -1.9766   -0.8585    0.0000 H   0  0  0  0  0  0  0  0  0  0  0  0
   -6.1324    1.0208    0.0000 O   0  0  0  0  0  0  0  0  0  0  0  0
   -7.4315    0.2710    0.0000 C   0  0  0  0  0  0  0  0  0  0  0  0
   -8.3959   -0.8779    0.0000 H   0  0  0  0  0  0  0  0  0  0  0  0
   -6.4675   -0.8782    0.0000 H   0  0  0  0  0  0  0  0  0  0  0  0
   -8.7305    1.0212    0.0000 C   0  0  0  0  0  0  0  0  0  0  0  0
   -7.7661    2.1701    0.0000 H   0  0  0  0  0  0  0  0  0  0  0  0
   -9.6945    2.1704    0.0000 H   0  0  0  0  0  0  0  0  0  0  0  0
  -10.0296    0.2714    0.0000 O   0  0  0  0  0  0  0  0  0  0  0  0
  -11.7442    1.2617    0.0000 C   0  0  0  0  0  0  0  0  0  0  0  0
  -10.7798    2.4106    0.0000 H   0  0  0  0  0  0  0  0  0  0  0  0
  -12.7082    2.4109    0.0000 H   0  0  0  0  0  0  0  0  0  0  0  0
  -13.0433    0.5119    0.0000 C   0  0  0  0  0  0  0  0  0  0  0  0
  -14.0077   -0.6370    0.0000 H   0  0  0  0  0  0  0  0  0  0  0  0
  -12.0793   -0.6373    0.0000 H   0  0  0  0  0  0  0  0  0  0  0  0
  -14.7579    1.5022    0.0000 O   0  0  0  0  0  0  0  0  0  0  0  0
  -16.0571    0.7524    0.0000 C   0  0  0  0  0  0  0  0  0  0  0  0
  -17.0214   -0.3965    0.0000 H   0  0  0  0  0  0  0  0  0  0  0  0
  -15.0931   -0.3969    0.0000 H   0  0  0  0  0  0  0  0  0  0  0  0
  -17.3560    1.5026    0.0000 C   0  0  0  0  0  0  0  0  0  0  0  0
  -16.3916    2.6515    0.0000 H   0  0  0  0  0  0  0  0  0  0  0  0
  -18.3200    2.6518    0.0000 H   0  0  0  0  0  0  0  0  0  0  0  0
  -18.6551    0.7528    0.0000 O   0  0  0  0  0  0  0  0  0  0  0  0
  -20.3697    1.7431    0.0000 C   0  0  0  0  0  0  0  0  0  0  0  0
  -19.4054    2.8920    0.0000 H   0  0  0  0  0  0  0  0  0  0  0  0
  -21.3337    2.8923    0.0000 H   0  0  0  0  0  0  0  0  0  0  0  0
  -21.6689    0.9933    0.0000 C   0  0  0  0  0  0  0  0  0  0  0  0
  -22.6332   -0.1556    0.0000 H   0  0  0  0  0  0  0  0  0  0  0  0
  -20.7049   -0.1560    0.0000 H   0  0  0  0  0  0  0  0  0  0  0  0
  -23.3834    1.9835    0.0000 O   0  0  0  0  0  0  0  0  0  0  0  0
  -24.6826    1.2337    0.0000 C   0  0  0  0  0  0  0  0  0  0  0  0
  -25.6470    0.0848    0.0000 H   0  0  0  0  0  0  0  0  0  0  0  0
  -23.7186    0.0845    0.0000 H   0  0  0  0  0  0  0  0  0  0  0  0
  -25.9815    1.9840    0.0000 C   0  0  0  0  0  0  0  0  0  0  0  0
  -25.0172    3.1329    0.0000 H   0  0  0  0  0  0  0  0  0  0  0  0
  -26.9455    3.1332    0.0000 H   0  0  0  0  0  0  0  0  0  0  0  0
  -27.2807    1.2342    0.0000 O   0  0  0  0  0  0  0  0  0  0  0  0
  -28.9953    2.2244    0.0000 C   0  0  0  0  0  0  0  0  0  0  0  0
  -28.0309    3.3733    0.0000 H   0  0  0  0  0  0  0  0  0  0  0  0
  -29.9593    3.3737    0.0000 H   0  0  0  0  0  0  0  0  0  0  0  0
  -30.2944    1.4746    0.0000 C   0  0  0  0  0  0  0  0  0  0  0  0
  -31.2588    0.3257    0.0000 H   0  0  0  0  0  0  0  0  0  0  0  0
  -29.3304    0.3254    0.0000 H   0  0  0  0  0  0  0  0  0  0  0  0
  -32.0090    2.4649    0.0000 O   0  0  0  0  0  0  0  0  0  0  0  0
  -33.3081    1.7151    0.0000 C   0  0  0  0  0  0  0  0  0  0  0  0
  -34.2725    0.5662    0.0000 H   0  0  0  0  0  0  0  0  0  0  0  0
  -32.3441    0.5659    0.0000 H   0  0  0  0  0  0  0  0  0  0  0  0
  -34.6071    2.4653    0.0000 C   0  0  0  0  0  0  0  0  0  0  0  0
  -33.6427    3.6142    0.0000 H   0  0  0  0  0  0  0  0  0  0  0  0
  -35.5711    3.6146    0.0000 H   0  0  0  0  0  0  0  0  0  0  0  0
  -36.3220    1.4756    0.0000 O   0  0  0  0  0  0  0  0  0  0  0  0
  -37.6209    2.2258    0.0000 C   0  0  0  0  0  0  0  0  0  0  0  0
  -36.6565    3.3747    0.0000 H   0  0  0  0  0  0  0  0  0  0  0  0
  -38.5849    3.3750    0.0000 H   0  0  0  0  0  0  0  0  0  0  0  0
  -38.9200    1.4760    0.0000 C   0  0  0  0  0  0  0  0  0  0  0  0
  -39.8844    0.3271    0.0000 H   0  0  0  0  0  0  0  0  0  0  0  0
  -37.9560    0.3268    0.0000 H   0  0  0  0  0  0  0  0  0  0  0  0
  -40.2189    2.2262    0.0000 O   0  0  0  0  0  0  0  0  0  0  0  0
  -41.5181    1.4764    0.0000 C   0  0  0  0  0  0  0  0  0  0  0  0
  -41.5183   -0.0236    0.0000 H   0  0  0  0  0  0  0  0  0  0  0  0
  -42.9954    1.2162    0.0000 H   0  0  0  0  0  0  0  0  0  0  0  0
  -42.0309    2.8861    0.0000 H   0  0  0  0  0  0  0  0  0  0  0  0
  1  2  1  0  0  0  0 
  1  3  1  0  0  0  0 
  1  4  1  0  0  0  0 
  1  5  1  0  0  0  0 
  5  6  1  0  0  0  0 
  5  7  1  0  0  0  0 
  5  8  1  0  0  0  0 
  8  9  1  0  0  0  0 
  8 10  1  0  0  0  0 
  8 11  1  0  0  0  0 
 11 12  1  0  0  0  0 
 11 13  1  0  0  0  0 
 11 14  1  0  0  0  0 
 14 15  1  0  0  0  0 
 14 16  1  0  0  0  0 
 16 17  2  0  0  0  0 
 17 18  1  0  0  0  0 
 17 19  1  0  0  0  0 
 19 20  1  0  0  0  0 
 19 21  2  0  0  0  0 
 21 22  1  0  0  0  0 
 22 23  1  0  0  0  0 
 22 24  2  0  0  0  0 
 16 24  1  0  0  0  0 
 24 25  1  0  0  0  0 
 21 26  1  0  0  0  0 
 26 27  2  0  0  0  0 
 26 28  1  0  0  0  0 
 28 29  1  0  0  0  0 
 29 30  1  0  0  0  0 
 29 31  1  0  0  0  0 
 29 32  1  0  0  0  0 
 32 33  1  0  0  0  0 
 32 34  1  0  0  0  0 
 34 35  1  0  0  0  0 
 32 36  1  0  0  0  0 
 36 37  1  0  0  0  0 
 37 38  1  0  0  0  0 
 37 39  1  0  0  0  0 
 37 40  1  0  0  0  0 
 40 41  1  0  0  0  0 
 40 42  1  0  0  0  0 
 40 43  1  0  0  0  0 
 43 44  1  0  0  0  0 
 44 45  1  0  0  0  0 
 44 46  1  0  0  0  0 
 44 47  1  0  0  0  0 
 47 48  1  0  0  0  0 
 47 49  1  0  0  0  0 
 47 50  1  0  0  0  0 
 50 51  1  0  0  0  0 
 51 52  1  0  0  0  0 
 51 53  1  0  0  0  0 
 51 54  1  0  0  0  0 
 54 55  1  0  0  0  0 
 54 56  1  0  0  0  0 
 54 57  1  0  0  0  0 
 57 58  1  0  0  0  0 
 58 59  1  0  0  0  0 
 58 60  1  0  0  0  0 
 58 61  1  0  0  0  0 
 61 62  1  0  0  0  0 
 61 63  1  0  0  0  0 
 61 64  1  0  0  0  0 
 64 65  1  0  0  0  0 
 65 66  1  0  0  0  0 
 65 67  1  0  0  0  0 
 65 68  1  0  0  0  0 
 68 69  1  0  0  0  0 
 68 70  1  0  0  0  0 
 68 71  1  0  0  0  0 
 71 72  1  0  0  0  0 
 72 73  1  0  0  0  0 
 72 74  1  0  0  0  0 
 72 75  1  0  0  0  0 
 75 76  1  0  0  0  0 
 75 77  1  0  0  0  0 
 75 78  1  0  0  0  0 
 78 79  1  0  0  0  0 
 79 80  1  0  0  0  0 
 79 81  1  0  0  0  0 
 79 82  1  0  0  0  0 
 82 83  1  0  0  0  0 
 82 84  1  0  0  0  0 
 82 85  1  0  0  0  0 
 85 86  1  0  0  0  0 
 86 87  1  0  0  0  0 
 86 88  1  0  0  0  0 
 86 89  1  0  0  0  0 
 89 90  1  0  0  0  0 
 89 91  1  0  0  0  0 
 89 92  1  0  0  0  0 
 92 93  1  0  0  0  0 
 93 94  1  0  0  0  0 
 93 95  1  0  0  0  0 
 93 96  1  0  0  0  0 
M  END
> <Rank>
48

> <Priority_score>
0.104

> <Reaction_type>
aliphatic hydroxylation

> <Parent_ID>
18

> <Parent_InChI>
InChI=1S/C30H53NO11/c1-3-4-9-31-29-7-5-28(6-8-29)30(32)42-27-26-41-25-24-40-23-22-39-21-20-38-19-18-37-17-16-36-15-14-35-13-12-34-11-10-33-2/h5-8,31H,3-4,9-27H2,1-2H3

> <Parent_SMILES>
CCCCNc1ccc(C(=O)OCCOCCOCCOCCOCCOCCOCCOCCOCCOC)cc1

$$$$
Molecule 18_metabolite 50
  CDK     0516241031

 96 96  0  0  0  0  0  0  0  0999 V2000
  -41.9339    1.8746    0.0000 C   0  0  0  0  0  0  0  0  0  0  0  0
  -41.9337    3.3746    0.0000 H   0  0  0  0  0  0  0  0  0  0  0  0
  -42.4472    0.4652    0.0000 H   0  0  0  0  0  0  0  0  0  0  0  0
  -43.4111    2.1353    0.0000 H   0  0  0  0  0  0  0  0  0  0  0  0
  -40.6350    1.1244    0.0000 C   0  0  0  0  0  0  0  0  0  0  0  0
  -41.5994   -0.0245    0.0000 H   0  0  0  0  0  0  0  0  0  0  0  0
  -39.6710   -0.0248    0.0000 H   0  0  0  0  0  0  0  0  0  0  0  0
  -39.3358    1.8742    0.0000 C   0  0  0  0  0  0  0  0  0  0  0  0
  -38.3715    3.0231    0.0000 H   0  0  0  0  0  0  0  0  0  0  0  0
  -40.2998    3.0234    0.0000 H   0  0  0  0  0  0  0  0  0  0  0  0
  -37.6213    0.8839    0.0000 C   0  0  0  0  0  0  0  0  0  0  0  0
  -38.5856   -0.2650    0.0000 H   0  0  0  0  0  0  0  0  0  0  0  0
  -36.6573   -0.2653    0.0000 H   0  0  0  0  0  0  0  0  0  0  0  0
  -36.3221    1.6337    0.0000 N   0  0  0  0  0  0  0  0  0  0  0  0
  -36.3219    3.1337    0.0000 H   0  0  0  0  0  0  0  0  0  0  0  0
  -35.0232    0.8835    0.0000 C   0  0  0  0  0  0  0  0  0  0  0  0
  -33.7232    1.6335    0.0000 C   0  0  0  0  0  0  0  0  0  0  0  0
  -33.7232    3.1335    0.0000 H   0  0  0  0  0  0  0  0  0  0  0  0
  -32.4232    0.8835    0.0000 C   0  0  0  0  0  0  0  0  0  0  0  0
  -31.1243    1.6337    0.0000 H   0  0  0  0  0  0  0  0  0  0  0  0
  -32.4232   -0.6165    0.0000 C   0  0  0  0  0  0  0  0  0  0  0  0
  -33.7232   -1.3665    0.0000 C   0  0  0  0  0  0  0  0  0  0  0  0
  -33.7232   -2.8665    0.0000 H   0  0  0  0  0  0  0  0  0  0  0  0
  -35.0232   -0.6165    0.0000 C   0  0  0  0  0  0  0  0  0  0  0  0
  -36.3221   -1.3667    0.0000 H   0  0  0  0  0  0  0  0  0  0  0  0
  -31.1243   -1.3667    0.0000 C   0  0  0  0  0  0  0  0  0  0  0  0
  -31.1245   -2.8667    0.0000 O   0  0  0  0  0  0  0  0  0  0  0  0
  -29.8251   -0.6169    0.0000 O   0  0  0  0  0  0  0  0  0  0  0  0
  -28.5262   -1.3671    0.0000 C   0  0  0  0  0  0  0  0  0  0  0  0
  -29.4906   -2.5160    0.0000 H   0  0  0  0  0  0  0  0  0  0  0  0
  -27.5622   -2.5163    0.0000 H   0  0  0  0  0  0  0  0  0  0  0  0
  -27.2270   -0.6173    0.0000 C   0  0  0  0  0  0  0  0  0  0  0  0
  -26.2627    0.5316    0.0000 H   0  0  0  0  0  0  0  0  0  0  0  0
  -28.1910    0.5319    0.0000 H   0  0  0  0  0  0  0  0  0  0  0  0
  -25.9281   -1.3675    0.0000 O   0  0  0  0  0  0  0  0  0  0  0  0
  -24.2132   -0.3778    0.0000 C   0  0  0  0  0  0  0  0  0  0  0  0
  -23.2489    0.7711    0.0000 H   0  0  0  0  0  0  0  0  0  0  0  0
  -22.9143   -1.1280    0.0000 C   0  0  0  0  0  0  0  0  0  0  0  0
  -23.8787   -2.2769    0.0000 H   0  0  0  0  0  0  0  0  0  0  0  0
  -21.9503   -2.2772    0.0000 H   0  0  0  0  0  0  0  0  0  0  0  0
  -21.6152   -0.3782    0.0000 O   0  0  0  0  0  0  0  0  0  0  0  0
  -19.9006   -1.3685    0.0000 C   0  0  0  0  0  0  0  0  0  0  0  0
  -20.8650   -2.5174    0.0000 H   0  0  0  0  0  0  0  0  0  0  0  0
  -18.9366   -2.5177    0.0000 H   0  0  0  0  0  0  0  0  0  0  0  0
  -18.6014   -0.6187    0.0000 C   0  0  0  0  0  0  0  0  0  0  0  0
  -17.6371    0.5302    0.0000 H   0  0  0  0  0  0  0  0  0  0  0  0
  -19.5654    0.5305    0.0000 H   0  0  0  0  0  0  0  0  0  0  0  0
  -16.8869   -1.6090    0.0000 O   0  0  0  0  0  0  0  0  0  0  0  0
  -15.5877   -0.8592    0.0000 C   0  0  0  0  0  0  0  0  0  0  0  0
  -14.6233    0.2897    0.0000 H   0  0  0  0  0  0  0  0  0  0  0  0
  -16.5517    0.2900    0.0000 H   0  0  0  0  0  0  0  0  0  0  0  0
  -14.2888   -1.6094    0.0000 C   0  0  0  0  0  0  0  0  0  0  0  0
  -15.2531   -2.7583    0.0000 H   0  0  0  0  0  0  0  0  0  0  0  0
  -13.3248   -2.7586    0.0000 H   0  0  0  0  0  0  0  0  0  0  0  0
  -12.9896   -0.8596    0.0000 O   0  0  0  0  0  0  0  0  0  0  0  0
  -11.2751   -1.8499    0.0000 C   0  0  0  0  0  0  0  0  0  0  0  0
  -12.2394   -2.9988    0.0000 H   0  0  0  0  0  0  0  0  0  0  0  0
  -10.3111   -2.9991    0.0000 H   0  0  0  0  0  0  0  0  0  0  0  0
   -9.9759   -1.1001    0.0000 C   0  0  0  0  0  0  0  0  0  0  0  0
   -9.0115    0.0488    0.0000 H   0  0  0  0  0  0  0  0  0  0  0  0
  -10.9399    0.0491    0.0000 H   0  0  0  0  0  0  0  0  0  0  0  0
   -8.2613   -2.0904    0.0000 O   0  0  0  0  0  0  0  0  0  0  0  0
   -6.9622   -1.3406    0.0000 C   0  0  0  0  0  0  0  0  0  0  0  0
   -5.9978   -0.1917    0.0000 H   0  0  0  0  0  0  0  0  0  0  0  0
   -7.9262   -0.1913    0.0000 H   0  0  0  0  0  0  0  0  0  0  0  0
   -5.6632   -2.0908    0.0000 C   0  0  0  0  0  0  0  0  0  0  0  0
   -6.6276   -3.2397    0.0000 H   0  0  0  0  0  0  0  0  0  0  0  0
   -4.6992   -3.2400    0.0000 H   0  0  0  0  0  0  0  0  0  0  0  0
   -4.3641   -1.3410    0.0000 O   0  0  0  0  0  0  0  0  0  0  0  0
   -2.6495   -2.3313    0.0000 C   0  0  0  0  0  0  0  0  0  0  0  0
   -3.6139   -3.4802    0.0000 H   0  0  0  0  0  0  0  0  0  0  0  0
   -1.6855   -3.4805    0.0000 H   0  0  0  0  0  0  0  0  0  0  0  0
   -1.3504   -1.5815    0.0000 C   0  0  0  0  0  0  0  0  0  0  0  0
   -0.3860   -0.4325    0.0000 H   0  0  0  0  0  0  0  0  0  0  0  0
   -2.3144   -0.4322    0.0000 H   0  0  0  0  0  0  0  0  0  0  0  0
    0.3642   -2.5717    0.0000 O   0  0  0  0  0  0  0  0  0  0  0  0
    1.6634   -1.8219    0.0000 C   0  0  0  0  0  0  0  0  0  0  0  0
    2.6277   -0.6730    0.0000 H   0  0  0  0  0  0  0  0  0  0  0  0
    0.6994   -0.6727    0.0000 H   0  0  0  0  0  0  0  0  0  0  0  0
    2.9623   -2.5722    0.0000 C   0  0  0  0  0  0  0  0  0  0  0  0
    1.9979   -3.7211    0.0000 H   0  0  0  0  0  0  0  0  0  0  0  0
    3.9263   -3.7214    0.0000 H   0  0  0  0  0  0  0  0  0  0  0  0
    4.6772   -1.5824    0.0000 O   0  0  0  0  0  0  0  0  0  0  0  0
    5.9761   -2.3326    0.0000 C   0  0  0  0  0  0  0  0  0  0  0  0
    5.0117   -3.4815    0.0000 H   0  0  0  0  0  0  0  0  0  0  0  0
    6.9401   -3.4819    0.0000 H   0  0  0  0  0  0  0  0  0  0  0  0
    7.2753   -1.5828    0.0000 C   0  0  0  0  0  0  0  0  0  0  0  0
    8.2396   -0.4339    0.0000 H   0  0  0  0  0  0  0  0  0  0  0  0
    6.3113   -0.4336    0.0000 H   0  0  0  0  0  0  0  0  0  0  0  0
    8.5742   -2.3331    0.0000 O   0  0  0  0  0  0  0  0  0  0  0  0
    9.8733   -1.5833    0.0000 C   0  0  0  0  0  0  0  0  0  0  0  0
    9.8736   -0.0833    0.0000 H   0  0  0  0  0  0  0  0  0  0  0  0
   11.3506   -1.3230    0.0000 H   0  0  0  0  0  0  0  0  0  0  0  0
   10.3861   -2.9929    0.0000 H   0  0  0  0  0  0  0  0  0  0  0  0
  -25.1772    0.7714    0.0000 O   0  0  0  0  0  0  0  0  0  0  0  0
  -24.6640    2.1809    0.0000 H   0  0  0  0  0  0  0  0  0  0  0  0
  1  2  1  0  0  0  0 
  1  3  1  0  0  0  0 
  1  4  1  0  0  0  0 
  1  5  1  0  0  0  0 
  5  6  1  0  0  0  0 
  5  7  1  0  0  0  0 
  5  8  1  0  0  0  0 
  8  9  1  0  0  0  0 
  8 10  1  0  0  0  0 
  8 11  1  0  0  0  0 
 11 12  1  0  0  0  0 
 11 13  1  0  0  0  0 
 11 14  1  0  0  0  0 
 14 15  1  0  0  0  0 
 14 16  1  0  0  0  0 
 16 17  2  0  0  0  0 
 17 18  1  0  0  0  0 
 17 19  1  0  0  0  0 
 19 20  1  0  0  0  0 
 19 21  2  0  0  0  0 
 21 22  1  0  0  0  0 
 22 23  1  0  0  0  0 
 22 24  2  0  0  0  0 
 16 24  1  0  0  0  0 
 24 25  1  0  0  0  0 
 21 26  1  0  0  0  0 
 26 27  2  0  0  0  0 
 26 28  1  0  0  0  0 
 28 29  1  0  0  0  0 
 29 30  1  0  0  0  0 
 29 31  1  0  0  0  0 
 29 32  1  0  0  0  0 
 32 33  1  0  0  0  0 
 32 34  1  0  0  0  0 
 32 35  1  0  0  0  0 
 35 36  1  0  0  0  0 
 36 37  1  0  0  0  0 
 36 38  1  0  0  0  0 
 38 39  1  0  0  0  0 
 38 40  1  0  0  0  0 
 38 41  1  0  0  0  0 
 41 42  1  0  0  0  0 
 42 43  1  0  0  0  0 
 42 44  1  0  0  0  0 
 42 45  1  0  0  0  0 
 45 46  1  0  0  0  0 
 45 47  1  0  0  0  0 
 45 48  1  0  0  0  0 
 48 49  1  0  0  0  0 
 49 50  1  0  0  0  0 
 49 51  1  0  0  0  0 
 49 52  1  0  0  0  0 
 52 53  1  0  0  0  0 
 52 54  1  0  0  0  0 
 52 55  1  0  0  0  0 
 55 56  1  0  0  0  0 
 56 57  1  0  0  0  0 
 56 58  1  0  0  0  0 
 56 59  1  0  0  0  0 
 59 60  1  0  0  0  0 
 59 61  1  0  0  0  0 
 59 62  1  0  0  0  0 
 62 63  1  0  0  0  0 
 63 64  1  0  0  0  0 
 63 65  1  0  0  0  0 
 63 66  1  0  0  0  0 
 66 67  1  0  0  0  0 
 66 68  1  0  0  0  0 
 66 69  1  0  0  0  0 
 69 70  1  0  0  0  0 
 70 71  1  0  0  0  0 
 70 72  1  0  0  0  0 
 70 73  1  0  0  0  0 
 73 74  1  0  0  0  0 
 73 75  1  0  0  0  0 
 73 76  1  0  0  0  0 
 76 77  1  0  0  0  0 
 77 78  1  0  0  0  0 
 77 79  1  0  0  0  0 
 77 80  1  0  0  0  0 
 80 81  1  0  0  0  0 
 80 82  1  0  0  0  0 
 80 83  1  0  0  0  0 
 83 84  1  0  0  0  0 
 84 85  1  0  0  0  0 
 84 86  1  0  0  0  0 
 84 87  1  0  0  0  0 
 87 88  1  0  0  0  0 
 87 89  1  0  0  0  0 
 87 90  1  0  0  0  0 
 90 91  1  0  0  0  0 
 91 92  1  0  0  0  0 
 91 93  1  0  0  0  0 
 91 94  1  0  0  0  0 
 36 95  1  0  0  0  0 
 95 96  1  0  0  0  0 
M  END
> <Rank>
48

> <Priority_score>
0.104

> <Reaction_type>
aliphatic hydroxylation

> <Parent_ID>
18

> <Parent_InChI>
InChI=1S/C30H53NO11/c1-3-4-9-31-29-7-5-28(6-8-29)30(32)42-27-26-41-25-24-40-23-22-39-21-20-38-19-18-37-17-16-36-15-14-35-13-12-34-11-10-33-2/h5-8,31H,3-4,9-27H2,1-2H3

> <Parent_SMILES>
CCCCNc1ccc(C(=O)OCCOCCOCCOCCOCCOCCOCCOCCOCCOC)cc1

$$$$
Molecule 18_metabolite 51
  CDK     0516241031

 60 59  0  0  0  0  0  0  0  0999 V2000
   -0.3637   -0.7500    0.0000 C   0  0  0  0  0  0  0  0  0  0  0  0
   -0.3637   -2.2500    0.0000 H   0  0  0  0  0  0  0  0  0  0  0  0
   -1.8409   -1.0105    0.0000 H   0  0  0  0  0  0  0  0  0  0  0  0
   -0.8768    0.6595    0.0000 H   0  0  0  0  0  0  0  0  0  0  0  0
    0.9353    0.0000    0.0000 O   0  0  0  0  0  0  0  0  0  0  0  0
    2.2343   -0.7500    0.0000 C   0  0  0  0  0  0  0  0  0  0  0  0
    1.2702   -1.8991    0.0000 H   0  0  0  0  0  0  0  0  0  0  0  0
    3.1985   -1.8991    0.0000 H   0  0  0  0  0  0  0  0  0  0  0  0
    3.5334    0.0000    0.0000 C   0  0  0  0  0  0  0  0  0  0  0  0
    4.4976    1.1491    0.0000 H   0  0  0  0  0  0  0  0  0  0  0  0
    2.5692    1.1491    0.0000 H   0  0  0  0  0  0  0  0  0  0  0  0
    4.8324   -0.7500    0.0000 O   0  0  0  0  0  0  0  0  0  0  0  0
    6.5472    0.2400    0.0000 C   0  0  0  0  0  0  0  0  0  0  0  0
    7.5113    1.3891    0.0000 H   0  0  0  0  0  0  0  0  0  0  0  0
    5.5830    1.3891    0.0000 H   0  0  0  0  0  0  0  0  0  0  0  0
    7.8462   -0.5100    0.0000 C   0  0  0  0  0  0  0  0  0  0  0  0
    6.8820   -1.6591    0.0000 H   0  0  0  0  0  0  0  0  0  0  0  0
    8.8104   -1.6591    0.0000 H   0  0  0  0  0  0  0  0  0  0  0  0
    9.1452    0.2400    0.0000 O   0  0  0  0  0  0  0  0  0  0  0  0
   10.8600   -0.7500    0.0000 C   0  0  0  0  0  0  0  0  0  0  0  0
    9.8958   -1.8991    0.0000 H   0  0  0  0  0  0  0  0  0  0  0  0
   11.8241   -1.8991    0.0000 H   0  0  0  0  0  0  0  0  0  0  0  0
   12.1590   -0.0000    0.0000 C   0  0  0  0  0  0  0  0  0  0  0  0
   13.1232    1.1491    0.0000 H   0  0  0  0  0  0  0  0  0  0  0  0
   11.1948    1.1491    0.0000 H   0  0  0  0  0  0  0  0  0  0  0  0
   13.4580   -0.7500    0.0000 O   0  0  0  0  0  0  0  0  0  0  0  0
   15.1728    0.2400    0.0000 C   0  0  0  0  0  0  0  0  0  0  0  0
   16.1369    1.3891    0.0000 H   0  0  0  0  0  0  0  0  0  0  0  0
   14.2086    1.3891    0.0000 H   0  0  0  0  0  0  0  0  0  0  0  0
   16.4718   -0.5100    0.0000 C   0  0  0  0  0  0  0  0  0  0  0  0
   15.5076   -1.6591    0.0000 H   0  0  0  0  0  0  0  0  0  0  0  0
   17.4360   -1.6591    0.0000 H   0  0  0  0  0  0  0  0  0  0  0  0
   18.1865    0.4800    0.0000 O   0  0  0  0  0  0  0  0  0  0  0  0
   19.4856   -0.2700    0.0000 C   0  0  0  0  0  0  0  0  0  0  0  0
   18.5214   -1.4191    0.0000 H   0  0  0  0  0  0  0  0  0  0  0  0
   20.4498   -1.4191    0.0000 H   0  0  0  0  0  0  0  0  0  0  0  0
   20.7846    0.4800    0.0000 C   0  0  0  0  0  0  0  0  0  0  0  0
   21.7488    1.6291    0.0000 H   0  0  0  0  0  0  0  0  0  0  0  0
   19.8204    1.6291    0.0000 H   0  0  0  0  0  0  0  0  0  0  0  0
   22.4993   -0.5100    0.0000 O   0  0  0  0  0  0  0  0  0  0  0  0
   23.7984    0.2400    0.0000 C   0  0  0  0  0  0  0  0  0  0  0  0
   24.7626    1.3891    0.0000 H   0  0  0  0  0  0  0  0  0  0  0  0
   22.8342    1.3891    0.0000 H   0  0  0  0  0  0  0  0  0  0  0  0
   25.0974   -0.5100    0.0000 C   0  0  0  0  0  0  0  0  0  0  0  0
   24.1332   -1.6591    0.0000 H   0  0  0  0  0  0  0  0  0  0  0  0
   26.0616   -1.6591    0.0000 H   0  0  0  0  0  0  0  0  0  0  0  0
   26.8121    0.4800    0.0000 O   0  0  0  0  0  0  0  0  0  0  0  0
   28.1112   -0.2700    0.0000 C   0  0  0  0  0  0  0  0  0  0  0  0
   27.1470   -1.4191    0.0000 H   0  0  0  0  0  0  0  0  0  0  0  0
   29.0754   -1.4191    0.0000 H   0  0  0  0  0  0  0  0  0  0  0  0
   29.4102    0.4800    0.0000 C   0  0  0  0  0  0  0  0  0  0  0  0
   30.3744    1.6291    0.0000 H   0  0  0  0  0  0  0  0  0  0  0  0
   28.4460    1.6291    0.0000 H   0  0  0  0  0  0  0  0  0  0  0  0
   31.1250   -0.5100    0.0000 O   0  0  0  0  0  0  0  0  0  0  0  0
   32.4240    0.2400    0.0000 C   0  0  0  0  0  0  0  0  0  0  0  0
   33.3882    1.3891    0.0000 H   0  0  0  0  0  0  0  0  0  0  0  0
   31.4598    1.3891    0.0000 H   0  0  0  0  0  0  0  0  0  0  0  0
   33.7230   -0.5100    0.0000 C   0  0  0  0  0  0  0  0  0  0  0  0
   35.0221    0.2400    0.0000 H   0  0  0  0  0  0  0  0  0  0  0  0
   33.7230   -2.0100    0.0000 O   0  0  0  0  0  0  0  0  0  0  0  0
  1  2  1  0  0  0  0 
  1  3  1  0  0  0  0 
  1  4  1  0  0  0  0 
  1  5  1  0  0  0  0 
  5  6  1  0  0  0  0 
  6  7  1  0  0  0  0 
  6  8  1  0  0  0  0 
  6  9  1  0  0  0  0 
  9 10  1  0  0  0  0 
  9 11  1  0  0  0  0 
  9 12  1  0  0  0  0 
 12 13  1  0  0  0  0 
 13 14  1  0  0  0  0 
 13 15  1  0  0  0  0 
 13 16  1  0  0  0  0 
 16 17  1  0  0  0  0 
 16 18  1  0  0  0  0 
 16 19  1  0  0  0  0 
 19 20  1  0  0  0  0 
 20 21  1  0  0  0  0 
 20 22  1  0  0  0  0 
 20 23  1  0  0  0  0 
 23 24  1  0  0  0  0 
 23 25  1  0  0  0  0 
 23 26  1  0  0  0  0 
 26 27  1  0  0  0  0 
 27 28  1  0  0  0  0 
 27 29  1  0  0  0  0 
 27 30  1  0  0  0  0 
 30 31  1  0  0  0  0 
 30 32  1  0  0  0  0 
 30 33  1  0  0  0  0 
 33 34  1  0  0  0  0 
 34 35  1  0  0  0  0 
 34 36  1  0  0  0  0 
 34 37  1  0  0  0  0 
 37 38  1  0  0  0  0 
 37 39  1  0  0  0  0 
 37 40  1  0  0  0  0 
 40 41  1  0  0  0  0 
 41 42  1  0  0  0  0 
 41 43  1  0  0  0  0 
 41 44  1  0  0  0  0 
 44 45  1  0  0  0  0 
 44 46  1  0  0  0  0 
 44 47  1  0  0  0  0 
 47 48  1  0  0  0  0 
 48 49  1  0  0  0  0 
 48 50  1  0  0  0  0 
 48 51  1  0  0  0  0 
 51 52  1  0  0  0  0 
 51 53  1  0  0  0  0 
 51 54  1  0  0  0  0 
 54 55  1  0  0  0  0 
 55 56  1  0  0  0  0 
 55 57  1  0  0  0  0 
 55 58  1  0  0  0  0 
 58 59  1  0  0  0  0 
 58 60  2  0  0  0  0 
M  END
> <Rank>
48

> <Priority_score>
0.104

> <Reaction_type>
oxidative ether cleavage to one alcohol and one aldehyde/ketone

> <Parent_ID>
18

> <Parent_InChI>
InChI=1S/C30H53NO11/c1-3-4-9-31-29-7-5-28(6-8-29)30(32)42-27-26-41-25-24-40-23-22-39-21-20-38-19-18-37-17-16-36-15-14-35-13-12-34-11-10-33-2/h5-8,31H,3-4,9-27H2,1-2H3

> <Parent_SMILES>
CCCCNc1ccc(C(=O)OCCOCCOCCOCCOCCOCCOCCOCCOCCOC)cc1

$$$$
Molecule 18_metabolite 52
  CDK     0516241031

 62 61  0  0  0  0  0  0  0  0999 V2000
    0.0520   -0.9900    0.0000 C   0  0  0  0  0  0  0  0  0  0  0  0
    0.0520   -2.4900    0.0000 H   0  0  0  0  0  0  0  0  0  0  0  0
   -1.4253   -1.2505    0.0000 H   0  0  0  0  0  0  0  0  0  0  0  0
   -0.4611    0.4195    0.0000 H   0  0  0  0  0  0  0  0  0  0  0  0
    1.3510   -0.2400    0.0000 O   0  0  0  0  0  0  0  0  0  0  0  0
    2.6500   -0.9900    0.0000 C   0  0  0  0  0  0  0  0  0  0  0  0
    1.6859   -2.1391    0.0000 H   0  0  0  0  0  0  0  0  0  0  0  0
    3.6142   -2.1391    0.0000 H   0  0  0  0  0  0  0  0  0  0  0  0
    3.9491   -0.2400    0.0000 C   0  0  0  0  0  0  0  0  0  0  0  0
    4.9133    0.9091    0.0000 H   0  0  0  0  0  0  0  0  0  0  0  0
    2.9849    0.9091    0.0000 H   0  0  0  0  0  0  0  0  0  0  0  0
    5.2481   -0.9900    0.0000 O   0  0  0  0  0  0  0  0  0  0  0  0
    6.9628    0.0000    0.0000 C   0  0  0  0  0  0  0  0  0  0  0  0
    7.9270    1.1491    0.0000 H   0  0  0  0  0  0  0  0  0  0  0  0
    5.9987    1.1491    0.0000 H   0  0  0  0  0  0  0  0  0  0  0  0
    8.2619   -0.7500    0.0000 C   0  0  0  0  0  0  0  0  0  0  0  0
    7.2977   -1.8991    0.0000 H   0  0  0  0  0  0  0  0  0  0  0  0
    9.2261   -1.8991    0.0000 H   0  0  0  0  0  0  0  0  0  0  0  0
    9.5609   -0.0000    0.0000 O   0  0  0  0  0  0  0  0  0  0  0  0
   11.2757   -0.9900    0.0000 C   0  0  0  0  0  0  0  0  0  0  0  0
   10.3115   -2.1391    0.0000 H   0  0  0  0  0  0  0  0  0  0  0  0
   12.2398   -2.1391    0.0000 H   0  0  0  0  0  0  0  0  0  0  0  0
   12.5747   -0.2400    0.0000 C   0  0  0  0  0  0  0  0  0  0  0  0
   13.5389    0.9091    0.0000 H   0  0  0  0  0  0  0  0  0  0  0  0
   11.6105    0.9091    0.0000 H   0  0  0  0  0  0  0  0  0  0  0  0
   13.8737   -0.9900    0.0000 O   0  0  0  0  0  0  0  0  0  0  0  0
   15.5885   -0.0000    0.0000 C   0  0  0  0  0  0  0  0  0  0  0  0
   16.5526    1.1491    0.0000 H   0  0  0  0  0  0  0  0  0  0  0  0
   14.6243    1.1491    0.0000 H   0  0  0  0  0  0  0  0  0  0  0  0
   16.8875   -0.7500    0.0000 C   0  0  0  0  0  0  0  0  0  0  0  0
   15.9233   -1.8991    0.0000 H   0  0  0  0  0  0  0  0  0  0  0  0
   17.8517   -1.8991    0.0000 H   0  0  0  0  0  0  0  0  0  0  0  0
   18.6022    0.2400    0.0000 O   0  0  0  0  0  0  0  0  0  0  0  0
   19.9013   -0.5100    0.0000 C   0  0  0  0  0  0  0  0  0  0  0  0
   18.9371   -1.6591    0.0000 H   0  0  0  0  0  0  0  0  0  0  0  0
   20.8654   -1.6591    0.0000 H   0  0  0  0  0  0  0  0  0  0  0  0
   21.2003    0.2400    0.0000 C   0  0  0  0  0  0  0  0  0  0  0  0
   22.1645    1.3891    0.0000 H   0  0  0  0  0  0  0  0  0  0  0  0
   20.2361    1.3891    0.0000 H   0  0  0  0  0  0  0  0  0  0  0  0
   22.4993   -0.5100    0.0000 O   0  0  0  0  0  0  0  0  0  0  0  0
   24.2141    0.4800    0.0000 C   0  0  0  0  0  0  0  0  0  0  0  0
   25.1783    1.6291    0.0000 H   0  0  0  0  0  0  0  0  0  0  0  0
   23.2499    1.6291    0.0000 H   0  0  0  0  0  0  0  0  0  0  0  0
   25.5131   -0.2700    0.0000 C   0  0  0  0  0  0  0  0  0  0  0  0
   24.5489   -1.4191    0.0000 H   0  0  0  0  0  0  0  0  0  0  0  0
   26.4773   -1.4191    0.0000 H   0  0  0  0  0  0  0  0  0  0  0  0
   27.2278    0.7200    0.0000 O   0  0  0  0  0  0  0  0  0  0  0  0
   28.5269   -0.0300    0.0000 C   0  0  0  0  0  0  0  0  0  0  0  0
   27.5627   -1.1791    0.0000 H   0  0  0  0  0  0  0  0  0  0  0  0
   29.4911   -1.1791    0.0000 H   0  0  0  0  0  0  0  0  0  0  0  0
   29.8259    0.7200    0.0000 C   0  0  0  0  0  0  0  0  0  0  0  0
   30.7901    1.8691    0.0000 H   0  0  0  0  0  0  0  0  0  0  0  0
   28.8617    1.8691    0.0000 H   0  0  0  0  0  0  0  0  0  0  0  0
   31.5406   -0.2700    0.0000 O   0  0  0  0  0  0  0  0  0  0  0  0
   32.8397    0.4800    0.0000 C   0  0  0  0  0  0  0  0  0  0  0  0
   33.8039    1.6291    0.0000 H   0  0  0  0  0  0  0  0  0  0  0  0
   31.8755    1.6291    0.0000 H   0  0  0  0  0  0  0  0  0  0  0  0
   34.1387   -0.2700    0.0000 C   0  0  0  0  0  0  0  0  0  0  0  0
   33.1745   -1.4191    0.0000 H   0  0  0  0  0  0  0  0  0  0  0  0
   35.1029   -1.4191    0.0000 H   0  0  0  0  0  0  0  0  0  0  0  0
   35.4378    0.4800    0.0000 O   0  0  0  0  0  0  0  0  0  0  0  0
   36.7368   -0.2700    0.0000 H   0  0  0  0  0  0  0  0  0  0  0  0
  1  2  1  0  0  0  0 
  1  3  1  0  0  0  0 
  1  4  1  0  0  0  0 
  1  5  1  0  0  0  0 
  5  6  1  0  0  0  0 
  6  7  1  0  0  0  0 
  6  8  1  0  0  0  0 
  6  9  1  0  0  0  0 
  9 10  1  0  0  0  0 
  9 11  1  0  0  0  0 
  9 12  1  0  0  0  0 
 12 13  1  0  0  0  0 
 13 14  1  0  0  0  0 
 13 15  1  0  0  0  0 
 13 16  1  0  0  0  0 
 16 17  1  0  0  0  0 
 16 18  1  0  0  0  0 
 16 19  1  0  0  0  0 
 19 20  1  0  0  0  0 
 20 21  1  0  0  0  0 
 20 22  1  0  0  0  0 
 20 23  1  0  0  0  0 
 23 24  1  0  0  0  0 
 23 25  1  0  0  0  0 
 23 26  1  0  0  0  0 
 26 27  1  0  0  0  0 
 27 28  1  0  0  0  0 
 27 29  1  0  0  0  0 
 27 30  1  0  0  0  0 
 30 31  1  0  0  0  0 
 30 32  1  0  0  0  0 
 30 33  1  0  0  0  0 
 33 34  1  0  0  0  0 
 34 35  1  0  0  0  0 
 34 36  1  0  0  0  0 
 34 37  1  0  0  0  0 
 37 38  1  0  0  0  0 
 37 39  1  0  0  0  0 
 37 40  1  0  0  0  0 
 40 41  1  0  0  0  0 
 41 42  1  0  0  0  0 
 41 43  1  0  0  0  0 
 41 44  1  0  0  0  0 
 44 45  1  0  0  0  0 
 44 46  1  0  0  0  0 
 44 47  1  0  0  0  0 
 47 48  1  0  0  0  0 
 48 49  1  0  0  0  0 
 48 50  1  0  0  0  0 
 48 51  1  0  0  0  0 
 51 52  1  0  0  0  0 
 51 53  1  0  0  0  0 
 51 54  1  0  0  0  0 
 54 55  1  0  0  0  0 
 55 56  1  0  0  0  0 
 55 57  1  0  0  0  0 
 55 58  1  0  0  0  0 
 58 59  1  0  0  0  0 
 58 60  1  0  0  0  0 
 58 61  1  0  0  0  0 
 61 62  1  0  0  0  0 
M  END
> <Rank>
48

> <Priority_score>
0.104

> <Reaction_type>
O-dealkylation_(aliphatic)

> <Parent_ID>
18

> <Parent_InChI>
InChI=1S/C30H53NO11/c1-3-4-9-31-29-7-5-28(6-8-29)30(32)42-27-26-41-25-24-40-23-22-39-21-20-38-19-18-37-17-16-36-15-14-35-13-12-34-11-10-33-2/h5-8,31H,3-4,9-27H2,1-2H3

> <Parent_SMILES>
CCCCNc1ccc(C(=O)OCCOCCOCCOCCOCCOCCOCCOCCOCCOC)cc1

$$$$
Molecule 18_metabolite 53
  CDK     0516241031

 34 34  0  0  0  0  0  0  0  0999 V2000
   -6.3179    1.5002    0.0000 C   0  0  0  0  0  0  0  0  0  0  0  0
   -6.3177    3.0002    0.0000 H   0  0  0  0  0  0  0  0  0  0  0  0
   -6.8312    0.0908    0.0000 H   0  0  0  0  0  0  0  0  0  0  0  0
   -7.7951    1.7609    0.0000 H   0  0  0  0  0  0  0  0  0  0  0  0
   -5.0190    0.7500    0.0000 C   0  0  0  0  0  0  0  0  0  0  0  0
   -5.9833   -0.3989    0.0000 H   0  0  0  0  0  0  0  0  0  0  0  0
   -4.0550   -0.3992    0.0000 H   0  0  0  0  0  0  0  0  0  0  0  0
   -3.7198    1.4998    0.0000 C   0  0  0  0  0  0  0  0  0  0  0  0
   -2.7555    2.6487    0.0000 H   0  0  0  0  0  0  0  0  0  0  0  0
   -4.6838    2.6490    0.0000 H   0  0  0  0  0  0  0  0  0  0  0  0
   -2.0053    0.5095    0.0000 C   0  0  0  0  0  0  0  0  0  0  0  0
   -2.9696   -0.6394    0.0000 H   0  0  0  0  0  0  0  0  0  0  0  0
   -1.0413   -0.6397    0.0000 H   0  0  0  0  0  0  0  0  0  0  0  0
   -0.7061    1.2593    0.0000 N   0  0  0  0  0  0  0  0  0  0  0  0
   -0.7059    2.7593    0.0000 H   0  0  0  0  0  0  0  0  0  0  0  0
    0.5928    0.5091    0.0000 C   0  0  0  0  0  0  0  0  0  0  0  0
    1.8928    1.2591    0.0000 C   0  0  0  0  0  0  0  0  0  0  0  0
    1.8928    2.7591    0.0000 H   0  0  0  0  0  0  0  0  0  0  0  0
    3.1928    0.5091    0.0000 C   0  0  0  0  0  0  0  0  0  0  0  0
    4.4917    1.2593    0.0000 H   0  0  0  0  0  0  0  0  0  0  0  0
    3.1928   -0.9909    0.0000 C   0  0  0  0  0  0  0  0  0  0  0  0
    1.8928   -1.7409    0.0000 C   0  0  0  0  0  0  0  0  0  0  0  0
    1.8928   -3.2409    0.0000 H   0  0  0  0  0  0  0  0  0  0  0  0
    0.5928   -0.9909    0.0000 C   0  0  0  0  0  0  0  0  0  0  0  0
   -0.7061   -1.7411    0.0000 H   0  0  0  0  0  0  0  0  0  0  0  0
    4.4917   -1.7411    0.0000 C   0  0  0  0  0  0  0  0  0  0  0  0
    4.4915   -3.2411    0.0000 O   0  0  0  0  0  0  0  0  0  0  0  0
    5.7909   -0.9913    0.0000 O   0  0  0  0  0  0  0  0  0  0  0  0
    7.0898   -1.7415    0.0000 C   0  0  0  0  0  0  0  0  0  0  0  0
    6.1255   -2.8904    0.0000 H   0  0  0  0  0  0  0  0  0  0  0  0
    8.0538   -2.8907    0.0000 H   0  0  0  0  0  0  0  0  0  0  0  0
    8.3890   -0.9917    0.0000 C   0  0  0  0  0  0  0  0  0  0  0  0
    9.6879   -1.7419    0.0000 H   0  0  0  0  0  0  0  0  0  0  0  0
    8.3892    0.5083    0.0000 O   0  0  0  0  0  0  0  0  0  0  0  0
  1  2  1  0  0  0  0 
  1  3  1  0  0  0  0 
  1  4  1  0  0  0  0 
  1  5  1  0  0  0  0 
  5  6  1  0  0  0  0 
  5  7  1  0  0  0  0 
  5  8  1  0  0  0  0 
  8  9  1  0  0  0  0 
  8 10  1  0  0  0  0 
  8 11  1  0  0  0  0 
 11 12  1  0  0  0  0 
 11 13  1  0  0  0  0 
 11 14  1  0  0  0  0 
 14 15  1  0  0  0  0 
 14 16  1  0  0  0  0 
 16 17  2  0  0  0  0 
 17 18  1  0  0  0  0 
 17 19  1  0  0  0  0 
 19 20  1  0  0  0  0 
 19 21  2  0  0  0  0 
 21 22  1  0  0  0  0 
 22 23  1  0  0  0  0 
 22 24  2  0  0  0  0 
 16 24  1  0  0  0  0 
 24 25  1  0  0  0  0 
 21 26  1  0  0  0  0 
 26 27  2  0  0  0  0 
 26 28  1  0  0  0  0 
 28 29  1  0  0  0  0 
 29 30  1  0  0  0  0 
 29 31  1  0  0  0  0 
 29 32  1  0  0  0  0 
 32 33  1  0  0  0  0 
 32 34  2  0  0  0  0 
M  END
> <Rank>
48

> <Priority_score>
0.104

> <Reaction_type>
oxidative ether cleavage to one alcohol and one aldehyde/ketone

> <Parent_ID>
18

> <Parent_InChI>
InChI=1S/C30H53NO11/c1-3-4-9-31-29-7-5-28(6-8-29)30(32)42-27-26-41-25-24-40-23-22-39-21-20-38-19-18-37-17-16-36-15-14-35-13-12-34-11-10-33-2/h5-8,31H,3-4,9-27H2,1-2H3

> <Parent_SMILES>
CCCCNc1ccc(C(=O)OCCOCCOCCOCCOCCOCCOCCOCCOCCOC)cc1

$$$$
Molecule 18_metabolite 54
  CDK     0516241031

 36 36  0  0  0  0  0  0  0  0999 V2000
    8.2107   -1.7411    0.0000 C   0  0  0  0  0  0  0  0  0  0  0  0
    8.2105   -3.2411    0.0000 H   0  0  0  0  0  0  0  0  0  0  0  0
    8.7240   -0.3317    0.0000 H   0  0  0  0  0  0  0  0  0  0  0  0
    9.6879   -2.0018    0.0000 H   0  0  0  0  0  0  0  0  0  0  0  0
    6.9118   -0.9909    0.0000 C   0  0  0  0  0  0  0  0  0  0  0  0
    7.8762    0.1580    0.0000 H   0  0  0  0  0  0  0  0  0  0  0  0
    5.9478    0.1583    0.0000 H   0  0  0  0  0  0  0  0  0  0  0  0
    5.6126   -1.7407    0.0000 C   0  0  0  0  0  0  0  0  0  0  0  0
    4.6483   -2.8896    0.0000 H   0  0  0  0  0  0  0  0  0  0  0  0
    6.5766   -2.8899    0.0000 H   0  0  0  0  0  0  0  0  0  0  0  0
    3.8981   -0.7504    0.0000 C   0  0  0  0  0  0  0  0  0  0  0  0
    4.8624    0.3985    0.0000 H   0  0  0  0  0  0  0  0  0  0  0  0
    2.9341    0.3988    0.0000 H   0  0  0  0  0  0  0  0  0  0  0  0
    2.5989   -1.5002    0.0000 N   0  0  0  0  0  0  0  0  0  0  0  0
    2.5987   -3.0002    0.0000 H   0  0  0  0  0  0  0  0  0  0  0  0
    1.3000   -0.7500    0.0000 C   0  0  0  0  0  0  0  0  0  0  0  0
    0.0000   -1.5000    0.0000 C   0  0  0  0  0  0  0  0  0  0  0  0
   -0.0000   -3.0000    0.0000 H   0  0  0  0  0  0  0  0  0  0  0  0
   -1.3000   -0.7500    0.0000 C   0  0  0  0  0  0  0  0  0  0  0  0
   -2.5989   -1.5002    0.0000 H   0  0  0  0  0  0  0  0  0  0  0  0
   -1.3000    0.7500    0.0000 C   0  0  0  0  0  0  0  0  0  0  0  0
    0.0000    1.5000    0.0000 C   0  0  0  0  0  0  0  0  0  0  0  0
    0.0000    3.0000    0.0000 H   0  0  0  0  0  0  0  0  0  0  0  0
    1.3000    0.7500    0.0000 C   0  0  0  0  0  0  0  0  0  0  0  0
    2.5989    1.5002    0.0000 H   0  0  0  0  0  0  0  0  0  0  0  0
   -2.5989    1.5002    0.0000 C   0  0  0  0  0  0  0  0  0  0  0  0
   -2.5987    3.0002    0.0000 O   0  0  0  0  0  0  0  0  0  0  0  0
   -3.8981    0.7504    0.0000 O   0  0  0  0  0  0  0  0  0  0  0  0
   -5.1970    1.5006    0.0000 C   0  0  0  0  0  0  0  0  0  0  0  0
   -4.2326    2.6495    0.0000 H   0  0  0  0  0  0  0  0  0  0  0  0
   -6.1610    2.6498    0.0000 H   0  0  0  0  0  0  0  0  0  0  0  0
   -6.4962    0.7508    0.0000 C   0  0  0  0  0  0  0  0  0  0  0  0
   -7.4605   -0.3981    0.0000 H   0  0  0  0  0  0  0  0  0  0  0  0
   -5.5322   -0.3984    0.0000 H   0  0  0  0  0  0  0  0  0  0  0  0
   -7.7951    1.5010    0.0000 O   0  0  0  0  0  0  0  0  0  0  0  0
   -9.0942    0.7512    0.0000 H   0  0  0  0  0  0  0  0  0  0  0  0
  1  2  1  0  0  0  0 
  1  3  1  0  0  0  0 
  1  4  1  0  0  0  0 
  1  5  1  0  0  0  0 
  5  6  1  0  0  0  0 
  5  7  1  0  0  0  0 
  5  8  1  0  0  0  0 
  8  9  1  0  0  0  0 
  8 10  1  0  0  0  0 
  8 11  1  0  0  0  0 
 11 12  1  0  0  0  0 
 11 13  1  0  0  0  0 
 11 14  1  0  0  0  0 
 14 15  1  0  0  0  0 
 14 16  1  0  0  0  0 
 16 17  2  0  0  0  0 
 17 18  1  0  0  0  0 
 17 19  1  0  0  0  0 
 19 20  1  0  0  0  0 
 19 21  2  0  0  0  0 
 21 22  1  0  0  0  0 
 22 23  1  0  0  0  0 
 22 24  2  0  0  0  0 
 16 24  1  0  0  0  0 
 24 25  1  0  0  0  0 
 21 26  1  0  0  0  0 
 26 27  2  0  0  0  0 
 26 28  1  0  0  0  0 
 28 29  1  0  0  0  0 
 29 30  1  0  0  0  0 
 29 31  1  0  0  0  0 
 29 32  1  0  0  0  0 
 32 33  1  0  0  0  0 
 32 34  1  0  0  0  0 
 32 35  1  0  0  0  0 
 35 36  1  0  0  0  0 
M  END
> <Rank>
48

> <Priority_score>
0.104

> <Reaction_type>
O-dealkylation_(aliphatic)

> <Parent_ID>
18

> <Parent_InChI>
InChI=1S/C30H53NO11/c1-3-4-9-31-29-7-5-28(6-8-29)30(32)42-27-26-41-25-24-40-23-22-39-21-20-38-19-18-37-17-16-36-15-14-35-13-12-34-11-10-33-2/h5-8,31H,3-4,9-27H2,1-2H3

> <Parent_SMILES>
CCCCNc1ccc(C(=O)OCCOCCOCCOCCOCCOCCOCCOCCOCCOC)cc1

$$$$
Molecule 18_metabolite 55
  CDK     0516241031

 96 96  0  0  0  0  0  0  0  0999 V2000
  -42.3496    1.6347    0.0000 C   0  0  0  0  0  0  0  0  0  0  0  0
  -42.3494    3.1347    0.0000 H   0  0  0  0  0  0  0  0  0  0  0  0
  -42.8629    0.2252    0.0000 H   0  0  0  0  0  0  0  0  0  0  0  0
  -43.8268    1.8954    0.0000 H   0  0  0  0  0  0  0  0  0  0  0  0
  -41.0507    0.8845    0.0000 C   0  0  0  0  0  0  0  0  0  0  0  0
  -42.0151   -0.2644    0.0000 H   0  0  0  0  0  0  0  0  0  0  0  0
  -40.0867   -0.2647    0.0000 H   0  0  0  0  0  0  0  0  0  0  0  0
  -39.7516    1.6343    0.0000 C   0  0  0  0  0  0  0  0  0  0  0  0
  -38.7872    2.7832    0.0000 H   0  0  0  0  0  0  0  0  0  0  0  0
  -40.7156    2.7835    0.0000 H   0  0  0  0  0  0  0  0  0  0  0  0
  -38.0370    0.6440    0.0000 C   0  0  0  0  0  0  0  0  0  0  0  0
  -39.0014   -0.5049    0.0000 H   0  0  0  0  0  0  0  0  0  0  0  0
  -37.0730   -0.5052    0.0000 H   0  0  0  0  0  0  0  0  0  0  0  0
  -36.7378    1.3938    0.0000 N   0  0  0  0  0  0  0  0  0  0  0  0
  -36.7376    2.8938    0.0000 H   0  0  0  0  0  0  0  0  0  0  0  0
  -35.4389    0.6436    0.0000 C   0  0  0  0  0  0  0  0  0  0  0  0
  -34.1389    1.3936    0.0000 C   0  0  0  0  0  0  0  0  0  0  0  0
  -34.1389    2.8936    0.0000 H   0  0  0  0  0  0  0  0  0  0  0  0
  -32.8389    0.6436    0.0000 C   0  0  0  0  0  0  0  0  0  0  0  0
  -31.5400    1.3938    0.0000 H   0  0  0  0  0  0  0  0  0  0  0  0
  -32.8389   -0.8564    0.0000 C   0  0  0  0  0  0  0  0  0  0  0  0
  -34.1389   -1.6064    0.0000 C   0  0  0  0  0  0  0  0  0  0  0  0
  -34.1389   -3.1064    0.0000 H   0  0  0  0  0  0  0  0  0  0  0  0
  -35.4389   -0.8564    0.0000 C   0  0  0  0  0  0  0  0  0  0  0  0
  -36.7378   -1.6066    0.0000 H   0  0  0  0  0  0  0  0  0  0  0  0
  -31.5400   -1.6066    0.0000 C   0  0  0  0  0  0  0  0  0  0  0  0
  -31.5402   -3.1066    0.0000 O   0  0  0  0  0  0  0  0  0  0  0  0
  -30.2408   -0.8568    0.0000 O   0  0  0  0  0  0  0  0  0  0  0  0
  -28.9419   -1.6070    0.0000 C   0  0  0  0  0  0  0  0  0  0  0  0
  -29.9063   -2.7560    0.0000 H   0  0  0  0  0  0  0  0  0  0  0  0
  -27.9779   -2.7563    0.0000 H   0  0  0  0  0  0  0  0  0  0  0  0
  -27.6428   -0.8572    0.0000 C   0  0  0  0  0  0  0  0  0  0  0  0
  -26.6784    0.2917    0.0000 H   0  0  0  0  0  0  0  0  0  0  0  0
  -28.6068    0.2920    0.0000 H   0  0  0  0  0  0  0  0  0  0  0  0
  -25.9282   -1.8475    0.0000 O   0  0  0  0  0  0  0  0  0  0  0  0
  -24.6290   -1.0977    0.0000 C   0  0  0  0  0  0  0  0  0  0  0  0
  -23.6647    0.0512    0.0000 H   0  0  0  0  0  0  0  0  0  0  0  0
  -25.5930    0.0515    0.0000 H   0  0  0  0  0  0  0  0  0  0  0  0
  -23.3301   -1.8479    0.0000 C   0  0  0  0  0  0  0  0  0  0  0  0
  -24.2945   -2.9969    0.0000 H   0  0  0  0  0  0  0  0  0  0  0  0
  -22.3661   -2.9972    0.0000 H   0  0  0  0  0  0  0  0  0  0  0  0
  -22.0310   -1.0981    0.0000 O   0  0  0  0  0  0  0  0  0  0  0  0
  -20.3164   -2.0884    0.0000 C   0  0  0  0  0  0  0  0  0  0  0  0
  -21.2808   -3.2373    0.0000 H   0  0  0  0  0  0  0  0  0  0  0  0
  -19.3524   -3.2376    0.0000 H   0  0  0  0  0  0  0  0  0  0  0  0
  -19.0172   -1.3386    0.0000 C   0  0  0  0  0  0  0  0  0  0  0  0
  -18.0529   -0.1897    0.0000 H   0  0  0  0  0  0  0  0  0  0  0  0
  -19.9812   -0.1894    0.0000 H   0  0  0  0  0  0  0  0  0  0  0  0
  -17.7183   -2.0888    0.0000 O   0  0  0  0  0  0  0  0  0  0  0  0
  -16.0034   -1.0991    0.0000 C   0  0  0  0  0  0  0  0  0  0  0  0
  -15.0391    0.0498    0.0000 H   0  0  0  0  0  0  0  0  0  0  0  0
  -16.9674    0.0501    0.0000 H   0  0  0  0  0  0  0  0  0  0  0  0
  -14.7045   -1.8493    0.0000 C   0  0  0  0  0  0  0  0  0  0  0  0
  -15.6689   -2.9982    0.0000 H   0  0  0  0  0  0  0  0  0  0  0  0
  -13.7405   -2.9985    0.0000 H   0  0  0  0  0  0  0  0  0  0  0  0
  -13.4054   -1.0995    0.0000 O   0  0  0  0  0  0  0  0  0  0  0  0
  -11.6908   -2.0898    0.0000 C   0  0  0  0  0  0  0  0  0  0  0  0
  -12.6551   -3.2387    0.0000 H   0  0  0  0  0  0  0  0  0  0  0  0
  -10.7268   -3.2390    0.0000 H   0  0  0  0  0  0  0  0  0  0  0  0
  -10.3916   -1.3400    0.0000 C   0  0  0  0  0  0  0  0  0  0  0  0
   -9.4273   -0.1911    0.0000 H   0  0  0  0  0  0  0  0  0  0  0  0
  -11.3556   -0.1908    0.0000 H   0  0  0  0  0  0  0  0  0  0  0  0
   -9.0927   -2.0902    0.0000 O   0  0  0  0  0  0  0  0  0  0  0  0
   -7.3778   -1.1005    0.0000 C   0  0  0  0  0  0  0  0  0  0  0  0
   -6.4135    0.0484    0.0000 H   0  0  0  0  0  0  0  0  0  0  0  0
   -6.0789   -1.8507    0.0000 C   0  0  0  0  0  0  0  0  0  0  0  0
   -7.0433   -2.9996    0.0000 H   0  0  0  0  0  0  0  0  0  0  0  0
   -5.1149   -2.9999    0.0000 H   0  0  0  0  0  0  0  0  0  0  0  0
   -4.7797   -1.1009    0.0000 O   0  0  0  0  0  0  0  0  0  0  0  0
   -3.0652   -2.0912    0.0000 C   0  0  0  0  0  0  0  0  0  0  0  0
   -4.0295   -3.2401    0.0000 H   0  0  0  0  0  0  0  0  0  0  0  0
   -2.1012   -3.2404    0.0000 H   0  0  0  0  0  0  0  0  0  0  0  0
   -1.7660   -1.3414    0.0000 C   0  0  0  0  0  0  0  0  0  0  0  0
   -0.8016   -0.1925    0.0000 H   0  0  0  0  0  0  0  0  0  0  0  0
   -2.7300   -0.1922    0.0000 H   0  0  0  0  0  0  0  0  0  0  0  0
   -0.0514   -2.3317    0.0000 O   0  0  0  0  0  0  0  0  0  0  0  0
    1.2477   -1.5819    0.0000 C   0  0  0  0  0  0  0  0  0  0  0  0
    2.2121   -0.4330    0.0000 H   0  0  0  0  0  0  0  0  0  0  0  0
    0.2837   -0.4327    0.0000 H   0  0  0  0  0  0  0  0  0  0  0  0
    2.5466   -2.3321    0.0000 C   0  0  0  0  0  0  0  0  0  0  0  0
    1.5823   -3.4810    0.0000 H   0  0  0  0  0  0  0  0  0  0  0  0
    3.5106   -3.4813    0.0000 H   0  0  0  0  0  0  0  0  0  0  0  0
    4.2615   -1.3424    0.0000 O   0  0  0  0  0  0  0  0  0  0  0  0
    5.5604   -2.0926    0.0000 C   0  0  0  0  0  0  0  0  0  0  0  0
    4.5961   -3.2415    0.0000 H   0  0  0  0  0  0  0  0  0  0  0  0
    6.5244   -3.2418    0.0000 H   0  0  0  0  0  0  0  0  0  0  0  0
    6.8596   -1.3428    0.0000 C   0  0  0  0  0  0  0  0  0  0  0  0
    7.8240   -0.1939    0.0000 H   0  0  0  0  0  0  0  0  0  0  0  0
    5.8956   -0.1936    0.0000 H   0  0  0  0  0  0  0  0  0  0  0  0
    8.1585   -2.0930    0.0000 O   0  0  0  0  0  0  0  0  0  0  0  0
    9.4577   -1.3432    0.0000 C   0  0  0  0  0  0  0  0  0  0  0  0
    9.4579    0.1568    0.0000 H   0  0  0  0  0  0  0  0  0  0  0  0
   10.9349   -1.0830    0.0000 H   0  0  0  0  0  0  0  0  0  0  0  0
    9.9705   -2.7528    0.0000 H   0  0  0  0  0  0  0  0  0  0  0  0
   -8.3418    0.0487    0.0000 O   0  0  0  0  0  0  0  0  0  0  0  0
   -7.8286    1.4582    0.0000 H   0  0  0  0  0  0  0  0  0  0  0  0
  1  2  1  0  0  0  0 
  1  3  1  0  0  0  0 
  1  4  1  0  0  0  0 
  1  5  1  0  0  0  0 
  5  6  1  0  0  0  0 
  5  7  1  0  0  0  0 
  5  8  1  0  0  0  0 
  8  9  1  0  0  0  0 
  8 10  1  0  0  0  0 
  8 11  1  0  0  0  0 
 11 12  1  0  0  0  0 
 11 13  1  0  0  0  0 
 11 14  1  0  0  0  0 
 14 15  1  0  0  0  0 
 14 16  1  0  0  0  0 
 16 17  2  0  0  0  0 
 17 18  1  0  0  0  0 
 17 19  1  0  0  0  0 
 19 20  1  0  0  0  0 
 19 21  2  0  0  0  0 
 21 22  1  0  0  0  0 
 22 23  1  0  0  0  0 
 22 24  2  0  0  0  0 
 16 24  1  0  0  0  0 
 24 25  1  0  0  0  0 
 21 26  1  0  0  0  0 
 26 27  2  0  0  0  0 
 26 28  1  0  0  0  0 
 28 29  1  0  0  0  0 
 29 30  1  0  0  0  0 
 29 31  1  0  0  0  0 
 29 32  1  0  0  0  0 
 32 33  1  0  0  0  0 
 32 34  1  0  0  0  0 
 32 35  1  0  0  0  0 
 35 36  1  0  0  0  0 
 36 37  1  0  0  0  0 
 36 38  1  0  0  0  0 
 36 39  1  0  0  0  0 
 39 40  1  0  0  0  0 
 39 41  1  0  0  0  0 
 39 42  1  0  0  0  0 
 42 43  1  0  0  0  0 
 43 44  1  0  0  0  0 
 43 45  1  0  0  0  0 
 43 46  1  0  0  0  0 
 46 47  1  0  0  0  0 
 46 48  1  0  0  0  0 
 46 49  1  0  0  0  0 
 49 50  1  0  0  0  0 
 50 51  1  0  0  0  0 
 50 52  1  0  0  0  0 
 50 53  1  0  0  0  0 
 53 54  1  0  0  0  0 
 53 55  1  0  0  0  0 
 53 56  1  0  0  0  0 
 56 57  1  0  0  0  0 
 57 58  1  0  0  0  0 
 57 59  1  0  0  0  0 
 57 60  1  0  0  0  0 
 60 61  1  0  0  0  0 
 60 62  1  0  0  0  0 
 60 63  1  0  0  0  0 
 63 64  1  0  0  0  0 
 64 65  1  0  0  0  0 
 64 66  1  0  0  0  0 
 66 67  1  0  0  0  0 
 66 68  1  0  0  0  0 
 66 69  1  0  0  0  0 
 69 70  1  0  0  0  0 
 70 71  1  0  0  0  0 
 70 72  1  0  0  0  0 
 70 73  1  0  0  0  0 
 73 74  1  0  0  0  0 
 73 75  1  0  0  0  0 
 73 76  1  0  0  0  0 
 76 77  1  0  0  0  0 
 77 78  1  0  0  0  0 
 77 79  1  0  0  0  0 
 77 80  1  0  0  0  0 
 80 81  1  0  0  0  0 
 80 82  1  0  0  0  0 
 80 83  1  0  0  0  0 
 83 84  1  0  0  0  0 
 84 85  1  0  0  0  0 
 84 86  1  0  0  0  0 
 84 87  1  0  0  0  0 
 87 88  1  0  0  0  0 
 87 89  1  0  0  0  0 
 87 90  1  0  0  0  0 
 90 91  1  0  0  0  0 
 91 92  1  0  0  0  0 
 91 93  1  0  0  0  0 
 91 94  1  0  0  0  0 
 64 95  1  0  0  0  0 
 95 96  1  0  0  0  0 
M  END
> <Rank>
55

> <Priority_score>
0.096

> <Reaction_type>
aliphatic hydroxylation

> <Parent_ID>
18

> <Parent_InChI>
InChI=1S/C30H53NO11/c1-3-4-9-31-29-7-5-28(6-8-29)30(32)42-27-26-41-25-24-40-23-22-39-21-20-38-19-18-37-17-16-36-15-14-35-13-12-34-11-10-33-2/h5-8,31H,3-4,9-27H2,1-2H3

> <Parent_SMILES>
CCCCNc1ccc(C(=O)OCCOCCOCCOCCOCCOCCOCCOCCOCCOC)cc1

$$$$
Molecule 18_metabolite 56
  CDK     0516241031

 96 96  0  0  0  0  0  0  0  0999 V2000
  -41.5183    1.8723    0.0000 C   0  0  0  0  0  0  0  0  0  0  0  0
  -41.5180    3.3723    0.0000 H   0  0  0  0  0  0  0  0  0  0  0  0
  -42.0315    0.4628    0.0000 H   0  0  0  0  0  0  0  0  0  0  0  0
  -42.9954    2.1330    0.0000 H   0  0  0  0  0  0  0  0  0  0  0  0
  -40.2193    1.1221    0.0000 C   0  0  0  0  0  0  0  0  0  0  0  0
  -41.1837   -0.0268    0.0000 H   0  0  0  0  0  0  0  0  0  0  0  0
  -39.2553   -0.0272    0.0000 H   0  0  0  0  0  0  0  0  0  0  0  0
  -38.9202    1.8719    0.0000 C   0  0  0  0  0  0  0  0  0  0  0  0
  -37.9558    3.0208    0.0000 H   0  0  0  0  0  0  0  0  0  0  0  0
  -39.8842    3.0211    0.0000 H   0  0  0  0  0  0  0  0  0  0  0  0
  -37.2056    0.8816    0.0000 C   0  0  0  0  0  0  0  0  0  0  0  0
  -38.1700   -0.2673    0.0000 H   0  0  0  0  0  0  0  0  0  0  0  0
  -36.2416   -0.2676    0.0000 H   0  0  0  0  0  0  0  0  0  0  0  0
  -35.9065    1.6314    0.0000 N   0  0  0  0  0  0  0  0  0  0  0  0
  -35.9062    3.1314    0.0000 H   0  0  0  0  0  0  0  0  0  0  0  0
  -34.6075    0.8812    0.0000 C   0  0  0  0  0  0  0  0  0  0  0  0
  -33.3075    1.6312    0.0000 C   0  0  0  0  0  0  0  0  0  0  0  0
  -33.3075    3.1312    0.0000 H   0  0  0  0  0  0  0  0  0  0  0  0
  -32.0075    0.8812    0.0000 C   0  0  0  0  0  0  0  0  0  0  0  0
  -30.7086    1.6314    0.0000 H   0  0  0  0  0  0  0  0  0  0  0  0
  -32.0075   -0.6188    0.0000 C   0  0  0  0  0  0  0  0  0  0  0  0
  -33.3075   -1.3688    0.0000 C   0  0  0  0  0  0  0  0  0  0  0  0
  -33.3075   -2.8688    0.0000 H   0  0  0  0  0  0  0  0  0  0  0  0
  -34.6075   -0.6188    0.0000 C   0  0  0  0  0  0  0  0  0  0  0  0
  -35.9065   -1.3690    0.0000 H   0  0  0  0  0  0  0  0  0  0  0  0
  -30.7086   -1.3690    0.0000 C   0  0  0  0  0  0  0  0  0  0  0  0
  -30.7089   -2.8690    0.0000 O   0  0  0  0  0  0  0  0  0  0  0  0
  -29.4095   -0.6192    0.0000 O   0  0  0  0  0  0  0  0  0  0  0  0
  -28.1105   -1.3695    0.0000 C   0  0  0  0  0  0  0  0  0  0  0  0
  -29.0749   -2.5184    0.0000 H   0  0  0  0  0  0  0  0  0  0  0  0
  -27.1465   -2.5187    0.0000 H   0  0  0  0  0  0  0  0  0  0  0  0
  -26.8114   -0.6197    0.0000 C   0  0  0  0  0  0  0  0  0  0  0  0
  -25.8470    0.5292    0.0000 H   0  0  0  0  0  0  0  0  0  0  0  0
  -27.7754    0.5296    0.0000 H   0  0  0  0  0  0  0  0  0  0  0  0
  -25.0968   -1.6099    0.0000 O   0  0  0  0  0  0  0  0  0  0  0  0
  -23.7977   -0.8601    0.0000 C   0  0  0  0  0  0  0  0  0  0  0  0
  -22.8333    0.2888    0.0000 H   0  0  0  0  0  0  0  0  0  0  0  0
  -24.7617    0.2891    0.0000 H   0  0  0  0  0  0  0  0  0  0  0  0
  -22.4987   -1.6104    0.0000 C   0  0  0  0  0  0  0  0  0  0  0  0
  -23.4631   -2.7593    0.0000 H   0  0  0  0  0  0  0  0  0  0  0  0
  -21.5347   -2.7596    0.0000 H   0  0  0  0  0  0  0  0  0  0  0  0
  -21.1996   -0.8606    0.0000 O   0  0  0  0  0  0  0  0  0  0  0  0
  -19.4850   -1.8508    0.0000 C   0  0  0  0  0  0  0  0  0  0  0  0
  -20.4494   -2.9997    0.0000 H   0  0  0  0  0  0  0  0  0  0  0  0
  -18.5210   -3.0001    0.0000 H   0  0  0  0  0  0  0  0  0  0  0  0
  -18.1859   -1.1010    0.0000 C   0  0  0  0  0  0  0  0  0  0  0  0
  -17.2215    0.0479    0.0000 H   0  0  0  0  0  0  0  0  0  0  0  0
  -19.1498    0.0482    0.0000 H   0  0  0  0  0  0  0  0  0  0  0  0
  -16.4713   -2.0913    0.0000 O   0  0  0  0  0  0  0  0  0  0  0  0
  -15.1721   -1.3415    0.0000 C   0  0  0  0  0  0  0  0  0  0  0  0
  -14.2078   -0.1926    0.0000 H   0  0  0  0  0  0  0  0  0  0  0  0
  -16.1361   -0.1923    0.0000 H   0  0  0  0  0  0  0  0  0  0  0  0
  -13.8732   -2.0917    0.0000 C   0  0  0  0  0  0  0  0  0  0  0  0
  -14.8376   -3.2406    0.0000 H   0  0  0  0  0  0  0  0  0  0  0  0
  -12.9092   -3.2410    0.0000 H   0  0  0  0  0  0  0  0  0  0  0  0
  -12.5740   -1.3419    0.0000 O   0  0  0  0  0  0  0  0  0  0  0  0
  -10.8595   -2.3322    0.0000 C   0  0  0  0  0  0  0  0  0  0  0  0
  -11.8238   -3.4811    0.0000 H   0  0  0  0  0  0  0  0  0  0  0  0
   -9.8955   -3.4814    0.0000 H   0  0  0  0  0  0  0  0  0  0  0  0
   -9.5603   -1.5824    0.0000 C   0  0  0  0  0  0  0  0  0  0  0  0
   -8.5960   -0.4335    0.0000 H   0  0  0  0  0  0  0  0  0  0  0  0
  -10.5243   -0.4332    0.0000 H   0  0  0  0  0  0  0  0  0  0  0  0
   -8.2614   -2.3326    0.0000 O   0  0  0  0  0  0  0  0  0  0  0  0
   -6.5465   -1.3429    0.0000 C   0  0  0  0  0  0  0  0  0  0  0  0
   -5.5821   -0.1940    0.0000 H   0  0  0  0  0  0  0  0  0  0  0  0
   -7.5105   -0.1937    0.0000 H   0  0  0  0  0  0  0  0  0  0  0  0
   -5.2476   -2.0931    0.0000 C   0  0  0  0  0  0  0  0  0  0  0  0
   -6.2120   -3.2420    0.0000 H   0  0  0  0  0  0  0  0  0  0  0  0
   -4.2836   -3.2423    0.0000 H   0  0  0  0  0  0  0  0  0  0  0  0
   -3.5327   -1.1034    0.0000 O   0  0  0  0  0  0  0  0  0  0  0  0
   -2.2338   -1.8536    0.0000 C   0  0  0  0  0  0  0  0  0  0  0  0
   -3.1981   -3.0025    0.0000 H   0  0  0  0  0  0  0  0  0  0  0  0
   -1.2698   -3.0028    0.0000 H   0  0  0  0  0  0  0  0  0  0  0  0
   -0.9346   -1.1038    0.0000 C   0  0  0  0  0  0  0  0  0  0  0  0
    0.0297    0.0451    0.0000 H   0  0  0  0  0  0  0  0  0  0  0  0
   -1.8986    0.0454    0.0000 O   0  0  0  0  0  0  0  0  0  0  0  0
   -1.3854    1.4549    0.0000 H   0  0  0  0  0  0  0  0  0  0  0  0
    0.7799   -2.0941    0.0000 O   0  0  0  0  0  0  0  0  0  0  0  0
    2.0791   -1.3443    0.0000 C   0  0  0  0  0  0  0  0  0  0  0  0
    3.0435   -0.1954    0.0000 H   0  0  0  0  0  0  0  0  0  0  0  0
    1.1151   -0.1951    0.0000 H   0  0  0  0  0  0  0  0  0  0  0  0
    3.3780   -2.0945    0.0000 C   0  0  0  0  0  0  0  0  0  0  0  0
    2.4137   -3.2434    0.0000 H   0  0  0  0  0  0  0  0  0  0  0  0
    4.3420   -3.2437    0.0000 H   0  0  0  0  0  0  0  0  0  0  0  0
    5.0929   -1.1048    0.0000 O   0  0  0  0  0  0  0  0  0  0  0  0
    6.3918   -1.8550    0.0000 C   0  0  0  0  0  0  0  0  0  0  0  0
    5.4275   -3.0039    0.0000 H   0  0  0  0  0  0  0  0  0  0  0  0
    7.3558   -3.0042    0.0000 H   0  0  0  0  0  0  0  0  0  0  0  0
    7.6910   -1.1052    0.0000 C   0  0  0  0  0  0  0  0  0  0  0  0
    8.6554    0.0437    0.0000 H   0  0  0  0  0  0  0  0  0  0  0  0
    6.7270    0.0440    0.0000 H   0  0  0  0  0  0  0  0  0  0  0  0
    8.9899   -1.8554    0.0000 O   0  0  0  0  0  0  0  0  0  0  0  0
   10.2891   -1.1056    0.0000 C   0  0  0  0  0  0  0  0  0  0  0  0
   10.2893    0.3944    0.0000 H   0  0  0  0  0  0  0  0  0  0  0  0
   11.7663   -0.8454    0.0000 H   0  0  0  0  0  0  0  0  0  0  0  0
   10.8019   -2.5152    0.0000 H   0  0  0  0  0  0  0  0  0  0  0  0
  1  2  1  0  0  0  0 
  1  3  1  0  0  0  0 
  1  4  1  0  0  0  0 
  1  5  1  0  0  0  0 
  5  6  1  0  0  0  0 
  5  7  1  0  0  0  0 
  5  8  1  0  0  0  0 
  8  9  1  0  0  0  0 
  8 10  1  0  0  0  0 
  8 11  1  0  0  0  0 
 11 12  1  0  0  0  0 
 11 13  1  0  0  0  0 
 11 14  1  0  0  0  0 
 14 15  1  0  0  0  0 
 14 16  1  0  0  0  0 
 16 17  2  0  0  0  0 
 17 18  1  0  0  0  0 
 17 19  1  0  0  0  0 
 19 20  1  0  0  0  0 
 19 21  2  0  0  0  0 
 21 22  1  0  0  0  0 
 22 23  1  0  0  0  0 
 22 24  2  0  0  0  0 
 16 24  1  0  0  0  0 
 24 25  1  0  0  0  0 
 21 26  1  0  0  0  0 
 26 27  2  0  0  0  0 
 26 28  1  0  0  0  0 
 28 29  1  0  0  0  0 
 29 30  1  0  0  0  0 
 29 31  1  0  0  0  0 
 29 32  1  0  0  0  0 
 32 33  1  0  0  0  0 
 32 34  1  0  0  0  0 
 32 35  1  0  0  0  0 
 35 36  1  0  0  0  0 
 36 37  1  0  0  0  0 
 36 38  1  0  0  0  0 
 36 39  1  0  0  0  0 
 39 40  1  0  0  0  0 
 39 41  1  0  0  0  0 
 39 42  1  0  0  0  0 
 42 43  1  0  0  0  0 
 43 44  1  0  0  0  0 
 43 45  1  0  0  0  0 
 43 46  1  0  0  0  0 
 46 47  1  0  0  0  0 
 46 48  1  0  0  0  0 
 46 49  1  0  0  0  0 
 49 50  1  0  0  0  0 
 50 51  1  0  0  0  0 
 50 52  1  0  0  0  0 
 50 53  1  0  0  0  0 
 53 54  1  0  0  0  0 
 53 55  1  0  0  0  0 
 53 56  1  0  0  0  0 
 56 57  1  0  0  0  0 
 57 58  1  0  0  0  0 
 57 59  1  0  0  0  0 
 57 60  1  0  0  0  0 
 60 61  1  0  0  0  0 
 60 62  1  0  0  0  0 
 60 63  1  0  0  0  0 
 63 64  1  0  0  0  0 
 64 65  1  0  0  0  0 
 64 66  1  0  0  0  0 
 64 67  1  0  0  0  0 
 67 68  1  0  0  0  0 
 67 69  1  0  0  0  0 
 67 70  1  0  0  0  0 
 70 71  1  0  0  0  0 
 71 72  1  0  0  0  0 
 71 73  1  0  0  0  0 
 71 74  1  0  0  0  0 
 74 75  1  0  0  0  0 
 74 76  1  0  0  0  0 
 76 77  1  0  0  0  0 
 74 78  1  0  0  0  0 
 78 79  1  0  0  0  0 
 79 80  1  0  0  0  0 
 79 81  1  0  0  0  0 
 79 82  1  0  0  0  0 
 82 83  1  0  0  0  0 
 82 84  1  0  0  0  0 
 82 85  1  0  0  0  0 
 85 86  1  0  0  0  0 
 86 87  1  0  0  0  0 
 86 88  1  0  0  0  0 
 86 89  1  0  0  0  0 
 89 90  1  0  0  0  0 
 89 91  1  0  0  0  0 
 89 92  1  0  0  0  0 
 92 93  1  0  0  0  0 
 93 94  1  0  0  0  0 
 93 95  1  0  0  0  0 
 93 96  1  0  0  0  0 
M  END
> <Rank>
56

> <Priority_score>
0.09120337197049526

> <Reaction_type>
aliphatic hydroxylation

> <Parent_ID>
18

> <Parent_InChI>
InChI=1S/C30H53NO11/c1-3-4-9-31-29-7-5-28(6-8-29)30(32)42-27-26-41-25-24-40-23-22-39-21-20-38-19-18-37-17-16-36-15-14-35-13-12-34-11-10-33-2/h5-8,31H,3-4,9-27H2,1-2H3

> <Parent_SMILES>
CCCCNc1ccc(C(=O)OCCOCCOCCOCCOCCOCCOCCOCCOCCOC)cc1

$$$$
Molecule 18_metabolite 57
  CDK     0516241031

 96 96  0  0  0  0  0  0  0  0999 V2000
  -38.7426    0.9428    0.0000 C   0  0  0  0  0  0  0  0  0  0  0  0
  -38.7424    2.4428    0.0000 H   0  0  0  0  0  0  0  0  0  0  0  0
  -39.2559   -0.4667    0.0000 H   0  0  0  0  0  0  0  0  0  0  0  0
  -40.2198    1.2035    0.0000 H   0  0  0  0  0  0  0  0  0  0  0  0
  -37.4437    0.1926    0.0000 C   0  0  0  0  0  0  0  0  0  0  0  0
  -38.4081   -0.9563    0.0000 H   0  0  0  0  0  0  0  0  0  0  0  0
  -36.4797   -0.9566    0.0000 H   0  0  0  0  0  0  0  0  0  0  0  0
  -36.1446    0.9424    0.0000 C   0  0  0  0  0  0  0  0  0  0  0  0
  -35.1802    2.0913    0.0000 H   0  0  0  0  0  0  0  0  0  0  0  0
  -37.1086    2.0916    0.0000 H   0  0  0  0  0  0  0  0  0  0  0  0
  -34.4300   -0.0479    0.0000 C   0  0  0  0  0  0  0  0  0  0  0  0
  -35.3944   -1.1968    0.0000 H   0  0  0  0  0  0  0  0  0  0  0  0
  -33.4660   -1.1971    0.0000 H   0  0  0  0  0  0  0  0  0  0  0  0
  -33.1308    0.7019    0.0000 N   0  0  0  0  0  0  0  0  0  0  0  0
  -33.1306    2.2019    0.0000 H   0  0  0  0  0  0  0  0  0  0  0  0
  -31.8319   -0.0483    0.0000 C   0  0  0  0  0  0  0  0  0  0  0  0
  -30.5319    0.7017    0.0000 C   0  0  0  0  0  0  0  0  0  0  0  0
  -30.5319    2.2017    0.0000 H   0  0  0  0  0  0  0  0  0  0  0  0
  -29.2319   -0.0483    0.0000 C   0  0  0  0  0  0  0  0  0  0  0  0
  -27.9330    0.7019    0.0000 H   0  0  0  0  0  0  0  0  0  0  0  0
  -29.2319   -1.5483    0.0000 C   0  0  0  0  0  0  0  0  0  0  0  0
  -30.5319   -2.2983    0.0000 C   0  0  0  0  0  0  0  0  0  0  0  0
  -30.5319   -3.7983    0.0000 H   0  0  0  0  0  0  0  0  0  0  0  0
  -31.8319   -1.5483    0.0000 C   0  0  0  0  0  0  0  0  0  0  0  0
  -33.1308   -2.2985    0.0000 H   0  0  0  0  0  0  0  0  0  0  0  0
  -27.9330   -2.2985    0.0000 C   0  0  0  0  0  0  0  0  0  0  0  0
  -27.9332   -3.7985    0.0000 O   0  0  0  0  0  0  0  0  0  0  0  0
  -26.6339   -1.5487    0.0000 O   0  0  0  0  0  0  0  0  0  0  0  0
  -25.3349   -2.2989    0.0000 C   0  0  0  0  0  0  0  0  0  0  0  0
  -26.2993   -3.4478    0.0000 H   0  0  0  0  0  0  0  0  0  0  0  0
  -24.3709   -3.4481    0.0000 H   0  0  0  0  0  0  0  0  0  0  0  0
  -24.0358   -1.5491    0.0000 C   0  0  0  0  0  0  0  0  0  0  0  0
  -23.0714   -0.4002    0.0000 H   0  0  0  0  0  0  0  0  0  0  0  0
  -24.9998   -0.3999    0.0000 H   0  0  0  0  0  0  0  0  0  0  0  0
  -22.3212   -2.5394    0.0000 O   0  0  0  0  0  0  0  0  0  0  0  0
  -21.0220   -1.7896    0.0000 C   0  0  0  0  0  0  0  0  0  0  0  0
  -20.0577   -0.6407    0.0000 H   0  0  0  0  0  0  0  0  0  0  0  0
  -21.9860   -0.6404    0.0000 H   0  0  0  0  0  0  0  0  0  0  0  0
  -19.7231   -2.5398    0.0000 C   0  0  0  0  0  0  0  0  0  0  0  0
  -20.6875   -3.6887    0.0000 H   0  0  0  0  0  0  0  0  0  0  0  0
  -18.7591   -3.6890    0.0000 H   0  0  0  0  0  0  0  0  0  0  0  0
  -18.4240   -1.7900    0.0000 O   0  0  0  0  0  0  0  0  0  0  0  0
  -16.7094   -2.7803    0.0000 C   0  0  0  0  0  0  0  0  0  0  0  0
  -17.6738   -3.9292    0.0000 H   0  0  0  0  0  0  0  0  0  0  0  0
  -15.7454   -3.9295    0.0000 H   0  0  0  0  0  0  0  0  0  0  0  0
  -15.4102   -2.0305    0.0000 C   0  0  0  0  0  0  0  0  0  0  0  0
  -14.4459   -0.8816    0.0000 H   0  0  0  0  0  0  0  0  0  0  0  0
  -16.3742   -0.8813    0.0000 H   0  0  0  0  0  0  0  0  0  0  0  0
  -13.6957   -3.0208    0.0000 O   0  0  0  0  0  0  0  0  0  0  0  0
  -12.3965   -2.2710    0.0000 C   0  0  0  0  0  0  0  0  0  0  0  0
  -11.4321   -1.1221    0.0000 H   0  0  0  0  0  0  0  0  0  0  0  0
  -13.3605   -1.1218    0.0000 H   0  0  0  0  0  0  0  0  0  0  0  0
  -11.0976   -3.0212    0.0000 C   0  0  0  0  0  0  0  0  0  0  0  0
  -12.0620   -4.1701    0.0000 H   0  0  0  0  0  0  0  0  0  0  0  0
  -10.1336   -4.1704    0.0000 H   0  0  0  0  0  0  0  0  0  0  0  0
   -9.7984   -2.2714    0.0000 O   0  0  0  0  0  0  0  0  0  0  0  0
   -8.0839   -3.2617    0.0000 C   0  0  0  0  0  0  0  0  0  0  0  0
   -9.0482   -4.4106    0.0000 H   0  0  0  0  0  0  0  0  0  0  0  0
   -7.1199   -4.4109    0.0000 H   0  0  0  0  0  0  0  0  0  0  0  0
   -6.7847   -2.5119    0.0000 C   0  0  0  0  0  0  0  0  0  0  0  0
   -5.8203   -1.3630    0.0000 H   0  0  0  0  0  0  0  0  0  0  0  0
   -7.7487   -1.3627    0.0000 H   0  0  0  0  0  0  0  0  0  0  0  0
   -5.0701   -3.5022    0.0000 O   0  0  0  0  0  0  0  0  0  0  0  0
   -3.7710   -2.7524    0.0000 C   0  0  0  0  0  0  0  0  0  0  0  0
   -2.8066   -1.6035    0.0000 H   0  0  0  0  0  0  0  0  0  0  0  0
   -4.7350   -1.6032    0.0000 H   0  0  0  0  0  0  0  0  0  0  0  0
   -2.4721   -3.5026    0.0000 C   0  0  0  0  0  0  0  0  0  0  0  0
   -3.4364   -4.6515    0.0000 H   0  0  0  0  0  0  0  0  0  0  0  0
   -1.5081   -4.6518    0.0000 H   0  0  0  0  0  0  0  0  0  0  0  0
   -1.1729   -2.7528    0.0000 O   0  0  0  0  0  0  0  0  0  0  0  0
    0.5417   -3.7431    0.0000 C   0  0  0  0  0  0  0  0  0  0  0  0
   -0.4227   -4.8920    0.0000 H   0  0  0  0  0  0  0  0  0  0  0  0
    1.5057   -4.8923    0.0000 H   0  0  0  0  0  0  0  0  0  0  0  0
    1.8408   -2.9933    0.0000 C   0  0  0  0  0  0  0  0  0  0  0  0
    2.8052   -1.8444    0.0000 H   0  0  0  0  0  0  0  0  0  0  0  0
    0.8768   -1.8441    0.0000 H   0  0  0  0  0  0  0  0  0  0  0  0
    3.5554   -3.9836    0.0000 O   0  0  0  0  0  0  0  0  0  0  0  0
    4.8546   -3.2338    0.0000 C   0  0  0  0  0  0  0  0  0  0  0  0
    5.8189   -2.0849    0.0000 H   0  0  0  0  0  0  0  0  0  0  0  0
    3.8906   -2.0845    0.0000 H   0  0  0  0  0  0  0  0  0  0  0  0
    6.1535   -3.9840    0.0000 C   0  0  0  0  0  0  0  0  0  0  0  0
    5.1891   -5.1329    0.0000 H   0  0  0  0  0  0  0  0  0  0  0  0
    7.1175   -5.1332    0.0000 O   0  0  0  0  0  0  0  0  0  0  0  0
    8.5947   -4.8730    0.0000 H   0  0  0  0  0  0  0  0  0  0  0  0
    7.4526   -3.2342    0.0000 O   0  0  0  0  0  0  0  0  0  0  0  0
    7.4530   -0.7742    0.0000 C   0  0  0  0  0  0  0  0  0  0  0  0
    5.9758   -1.0344    0.0000 H   0  0  0  0  0  0  0  0  0  0  0  0
    6.9402    0.6354    0.0000 H   0  0  0  0  0  0  0  0  0  0  0  0
    8.7522   -0.0244    0.0000 C   0  0  0  0  0  0  0  0  0  0  0  0
   10.2294    0.2358    0.0000 H   0  0  0  0  0  0  0  0  0  0  0  0
    9.2650   -1.4340    0.0000 H   0  0  0  0  0  0  0  0  0  0  0  0
    8.7524    1.4756    0.0000 O   0  0  0  0  0  0  0  0  0  0  0  0
   10.0516    2.2254    0.0000 C   0  0  0  0  0  0  0  0  0  0  0  0
   11.3505    1.4752    0.0000 H   0  0  0  0  0  0  0  0  0  0  0  0
   11.0160    3.3743    0.0000 H   0  0  0  0  0  0  0  0  0  0  0  0
    9.0876    3.3746    0.0000 H   0  0  0  0  0  0  0  0  0  0  0  0
  1  2  1  0  0  0  0 
  1  3  1  0  0  0  0 
  1  4  1  0  0  0  0 
  1  5  1  0  0  0  0 
  5  6  1  0  0  0  0 
  5  7  1  0  0  0  0 
  5  8  1  0  0  0  0 
  8  9  1  0  0  0  0 
  8 10  1  0  0  0  0 
  8 11  1  0  0  0  0 
 11 12  1  0  0  0  0 
 11 13  1  0  0  0  0 
 11 14  1  0  0  0  0 
 14 15  1  0  0  0  0 
 14 16  1  0  0  0  0 
 16 17  2  0  0  0  0 
 17 18  1  0  0  0  0 
 17 19  1  0  0  0  0 
 19 20  1  0  0  0  0 
 19 21  2  0  0  0  0 
 21 22  1  0  0  0  0 
 22 23  1  0  0  0  0 
 22 24  2  0  0  0  0 
 16 24  1  0  0  0  0 
 24 25  1  0  0  0  0 
 21 26  1  0  0  0  0 
 26 27  2  0  0  0  0 
 26 28  1  0  0  0  0 
 28 29  1  0  0  0  0 
 29 30  1  0  0  0  0 
 29 31  1  0  0  0  0 
 29 32  1  0  0  0  0 
 32 33  1  0  0  0  0 
 32 34  1  0  0  0  0 
 32 35  1  0  0  0  0 
 35 36  1  0  0  0  0 
 36 37  1  0  0  0  0 
 36 38  1  0  0  0  0 
 36 39  1  0  0  0  0 
 39 40  1  0  0  0  0 
 39 41  1  0  0  0  0 
 39 42  1  0  0  0  0 
 42 43  1  0  0  0  0 
 43 44  1  0  0  0  0 
 43 45  1  0  0  0  0 
 43 46  1  0  0  0  0 
 46 47  1  0  0  0  0 
 46 48  1  0  0  0  0 
 46 49  1  0  0  0  0 
 49 50  1  0  0  0  0 
 50 51  1  0  0  0  0 
 50 52  1  0  0  0  0 
 50 53  1  0  0  0  0 
 53 54  1  0  0  0  0 
 53 55  1  0  0  0  0 
 53 56  1  0  0  0  0 
 56 57  1  0  0  0  0 
 57 58  1  0  0  0  0 
 57 59  1  0  0  0  0 
 57 60  1  0  0  0  0 
 60 61  1  0  0  0  0 
 60 62  1  0  0  0  0 
 60 63  1  0  0  0  0 
 63 64  1  0  0  0  0 
 64 65  1  0  0  0  0 
 64 66  1  0  0  0  0 
 64 67  1  0  0  0  0 
 67 68  1  0  0  0  0 
 67 69  1  0  0  0  0 
 67 70  1  0  0  0  0 
 70 71  1  0  0  0  0 
 71 72  1  0  0  0  0 
 71 73  1  0  0  0  0 
 71 74  1  0  0  0  0 
 74 75  1  0  0  0  0 
 74 76  1  0  0  0  0 
 74 77  1  0  0  0  0 
 77 78  1  0  0  0  0 
 78 79  1  0  0  0  0 
 78 80  1  0  0  0  0 
 78 81  1  0  0  0  0 
 81 82  1  0  0  0  0 
 81 83  1  0  0  0  0 
 83 84  1  0  0  0  0 
 81 85  1  0  0  0  0 
 85 86  1  0  0  0  0 
 86 87  1  0  0  0  0 
 86 88  1  0  0  0  0 
 86 89  1  0  0  0  0 
 89 90  1  0  0  0  0 
 89 91  1  0  0  0  0 
 89 92  1  0  0  0  0 
 92 93  1  0  0  0  0 
 93 94  1  0  0  0  0 
 93 95  1  0  0  0  0 
 93 96  1  0  0  0  0 
M  END
> <Rank>
57

> <Priority_score>
0.08320337197049525

> <Reaction_type>
aliphatic hydroxylation

> <Parent_ID>
18

> <Parent_InChI>
InChI=1S/C30H53NO11/c1-3-4-9-31-29-7-5-28(6-8-29)30(32)42-27-26-41-25-24-40-23-22-39-21-20-38-19-18-37-17-16-36-15-14-35-13-12-34-11-10-33-2/h5-8,31H,3-4,9-27H2,1-2H3

> <Parent_SMILES>
CCCCNc1ccc(C(=O)OCCOCCOCCOCCOCCOCCOCCOCCOCCOC)cc1

$$$$
Molecule 18_metabolite 58
  CDK     0516241031

 50 50  0  0  0  0  0  0  0  0999 V2000
    9.0421   -1.7412    0.0000 C   0  0  0  0  0  0  0  0  0  0  0  0
    9.0419   -3.2412    0.0000 H   0  0  0  0  0  0  0  0  0  0  0  0
    9.5554   -0.3318    0.0000 H   0  0  0  0  0  0  0  0  0  0  0  0
   10.5193   -2.0019    0.0000 H   0  0  0  0  0  0  0  0  0  0  0  0
    7.7432   -0.9910    0.0000 C   0  0  0  0  0  0  0  0  0  0  0  0
    8.7076    0.1579    0.0000 H   0  0  0  0  0  0  0  0  0  0  0  0
    6.7792    0.1582    0.0000 H   0  0  0  0  0  0  0  0  0  0  0  0
    6.4440   -1.7408    0.0000 C   0  0  0  0  0  0  0  0  0  0  0  0
    5.4797   -2.8897    0.0000 H   0  0  0  0  0  0  0  0  0  0  0  0
    7.4080   -2.8900    0.0000 H   0  0  0  0  0  0  0  0  0  0  0  0
    4.7295   -0.7505    0.0000 C   0  0  0  0  0  0  0  0  0  0  0  0
    5.6938    0.3984    0.0000 H   0  0  0  0  0  0  0  0  0  0  0  0
    3.7655    0.3987    0.0000 H   0  0  0  0  0  0  0  0  0  0  0  0
    3.4303   -1.5003    0.0000 N   0  0  0  0  0  0  0  0  0  0  0  0
    3.4301   -3.0003    0.0000 H   0  0  0  0  0  0  0  0  0  0  0  0
    2.1314   -0.7501    0.0000 C   0  0  0  0  0  0  0  0  0  0  0  0
    0.8314   -1.5001    0.0000 C   0  0  0  0  0  0  0  0  0  0  0  0
    0.8314   -3.0001    0.0000 H   0  0  0  0  0  0  0  0  0  0  0  0
   -0.4686   -0.7501    0.0000 C   0  0  0  0  0  0  0  0  0  0  0  0
   -1.7675   -1.5003    0.0000 H   0  0  0  0  0  0  0  0  0  0  0  0
   -0.4686    0.7499    0.0000 C   0  0  0  0  0  0  0  0  0  0  0  0
    0.8314    1.4999    0.0000 C   0  0  0  0  0  0  0  0  0  0  0  0
    0.8314    2.9999    0.0000 H   0  0  0  0  0  0  0  0  0  0  0  0
    2.1314    0.7499    0.0000 C   0  0  0  0  0  0  0  0  0  0  0  0
    3.4303    1.5001    0.0000 H   0  0  0  0  0  0  0  0  0  0  0  0
   -1.7675    1.5001    0.0000 C   0  0  0  0  0  0  0  0  0  0  0  0
   -1.7673    3.0001    0.0000 O   0  0  0  0  0  0  0  0  0  0  0  0
   -3.0667    0.7503    0.0000 O   0  0  0  0  0  0  0  0  0  0  0  0
   -4.3656    1.5005    0.0000 C   0  0  0  0  0  0  0  0  0  0  0  0
   -3.4012    2.6494    0.0000 H   0  0  0  0  0  0  0  0  0  0  0  0
   -5.3296    2.6497    0.0000 H   0  0  0  0  0  0  0  0  0  0  0  0
   -5.6648    0.7507    0.0000 C   0  0  0  0  0  0  0  0  0  0  0  0
   -6.6291   -0.3982    0.0000 H   0  0  0  0  0  0  0  0  0  0  0  0
   -4.7008   -0.3985    0.0000 H   0  0  0  0  0  0  0  0  0  0  0  0
   -7.3793    1.7410    0.0000 O   0  0  0  0  0  0  0  0  0  0  0  0
   -8.6785    0.9912    0.0000 C   0  0  0  0  0  0  0  0  0  0  0  0
   -9.6429   -0.1577    0.0000 H   0  0  0  0  0  0  0  0  0  0  0  0
   -7.7145   -0.1580    0.0000 H   0  0  0  0  0  0  0  0  0  0  0  0
   -9.9774    1.7414    0.0000 C   0  0  0  0  0  0  0  0  0  0  0  0
   -9.0131    2.8903    0.0000 H   0  0  0  0  0  0  0  0  0  0  0  0
  -10.9414    2.8906    0.0000 H   0  0  0  0  0  0  0  0  0  0  0  0
  -11.6923    0.7517    0.0000 O   0  0  0  0  0  0  0  0  0  0  0  0
  -12.9912    1.5019    0.0000 C   0  0  0  0  0  0  0  0  0  0  0  0
  -12.0269    2.6508    0.0000 H   0  0  0  0  0  0  0  0  0  0  0  0
  -13.9552    2.6511    0.0000 H   0  0  0  0  0  0  0  0  0  0  0  0
  -14.2904    0.7521    0.0000 C   0  0  0  0  0  0  0  0  0  0  0  0
  -15.2547   -0.3968    0.0000 H   0  0  0  0  0  0  0  0  0  0  0  0
  -13.3264   -0.3971    0.0000 H   0  0  0  0  0  0  0  0  0  0  0  0
  -15.5893    1.5023    0.0000 O   0  0  0  0  0  0  0  0  0  0  0  0
  -16.8885    0.7525    0.0000 H   0  0  0  0  0  0  0  0  0  0  0  0
  1  2  1  0  0  0  0 
  1  3  1  0  0  0  0 
  1  4  1  0  0  0  0 
  1  5  1  0  0  0  0 
  5  6  1  0  0  0  0 
  5  7  1  0  0  0  0 
  5  8  1  0  0  0  0 
  8  9  1  0  0  0  0 
  8 10  1  0  0  0  0 
  8 11  1  0  0  0  0 
 11 12  1  0  0  0  0 
 11 13  1  0  0  0  0 
 11 14  1  0  0  0  0 
 14 15  1  0  0  0  0 
 14 16  1  0  0  0  0 
 16 17  2  0  0  0  0 
 17 18  1  0  0  0  0 
 17 19  1  0  0  0  0 
 19 20  1  0  0  0  0 
 19 21  2  0  0  0  0 
 21 22  1  0  0  0  0 
 22 23  1  0  0  0  0 
 22 24  2  0  0  0  0 
 16 24  1  0  0  0  0 
 24 25  1  0  0  0  0 
 21 26  1  0  0  0  0 
 26 27  2  0  0  0  0 
 26 28  1  0  0  0  0 
 28 29  1  0  0  0  0 
 29 30  1  0  0  0  0 
 29 31  1  0  0  0  0 
 29 32  1  0  0  0  0 
 32 33  1  0  0  0  0 
 32 34  1  0  0  0  0 
 32 35  1  0  0  0  0 
 35 36  1  0  0  0  0 
 36 37  1  0  0  0  0 
 36 38  1  0  0  0  0 
 36 39  1  0  0  0  0 
 39 40  1  0  0  0  0 
 39 41  1  0  0  0  0 
 39 42  1  0  0  0  0 
 42 43  1  0  0  0  0 
 43 44  1  0  0  0  0 
 43 45  1  0  0  0  0 
 43 46  1  0  0  0  0 
 46 47  1  0  0  0  0 
 46 48  1  0  0  0  0 
 46 49  1  0  0  0  0 
 49 50  1  0  0  0  0 
M  END
> <Rank>
58

> <Priority_score>
0.076

> <Reaction_type>
O-dealkylation_(aliphatic)

> <Parent_ID>
18

> <Parent_InChI>
InChI=1S/C30H53NO11/c1-3-4-9-31-29-7-5-28(6-8-29)30(32)42-27-26-41-25-24-40-23-22-39-21-20-38-19-18-37-17-16-36-15-14-35-13-12-34-11-10-33-2/h5-8,31H,3-4,9-27H2,1-2H3

> <Parent_SMILES>
CCCCNc1ccc(C(=O)OCCOCCOCCOCCOCCOCCOCCOCCOCCOC)cc1

$$$$
Molecule 18_metabolite 59
  CDK     0516241031

 46 45  0  0  0  0  0  0  0  0999 V2000
   25.3349   -0.1109    0.0000 C   0  0  0  0  0  0  0  0  0  0  0  0
   25.3349    1.3891    0.0000 H   0  0  0  0  0  0  0  0  0  0  0  0
   26.8121    0.1495    0.0000 H   0  0  0  0  0  0  0  0  0  0  0  0
   25.8480   -1.5205    0.0000 H   0  0  0  0  0  0  0  0  0  0  0  0
   24.0359   -0.8609    0.0000 O   0  0  0  0  0  0  0  0  0  0  0  0
   22.7369   -0.1109    0.0000 C   0  0  0  0  0  0  0  0  0  0  0  0
   23.7010    1.0381    0.0000 H   0  0  0  0  0  0  0  0  0  0  0  0
   21.7727    1.0381    0.0000 H   0  0  0  0  0  0  0  0  0  0  0  0
   21.4378   -0.8609    0.0000 C   0  0  0  0  0  0  0  0  0  0  0  0
   20.4736   -2.0100    0.0000 H   0  0  0  0  0  0  0  0  0  0  0  0
   22.4020   -2.0100    0.0000 H   0  0  0  0  0  0  0  0  0  0  0  0
   20.1388   -0.1109    0.0000 O   0  0  0  0  0  0  0  0  0  0  0  0
   18.4241   -1.1009    0.0000 C   0  0  0  0  0  0  0  0  0  0  0  0
   17.4599   -2.2500    0.0000 H   0  0  0  0  0  0  0  0  0  0  0  0
   19.3882   -2.2500    0.0000 H   0  0  0  0  0  0  0  0  0  0  0  0
   17.1250   -0.3509    0.0000 C   0  0  0  0  0  0  0  0  0  0  0  0
   18.0892    0.7981    0.0000 H   0  0  0  0  0  0  0  0  0  0  0  0
   16.1608    0.7981    0.0000 H   0  0  0  0  0  0  0  0  0  0  0  0
   15.8260   -1.1009    0.0000 O   0  0  0  0  0  0  0  0  0  0  0  0
   14.1112   -0.1109    0.0000 C   0  0  0  0  0  0  0  0  0  0  0  0
   15.0754    1.0381    0.0000 H   0  0  0  0  0  0  0  0  0  0  0  0
   13.1471    1.0381    0.0000 H   0  0  0  0  0  0  0  0  0  0  0  0
   12.8122   -0.8609    0.0000 C   0  0  0  0  0  0  0  0  0  0  0  0
   11.8480   -2.0100    0.0000 H   0  0  0  0  0  0  0  0  0  0  0  0
   13.7764   -2.0100    0.0000 H   0  0  0  0  0  0  0  0  0  0  0  0
   11.0975    0.1291    0.0000 O   0  0  0  0  0  0  0  0  0  0  0  0
    9.7984   -0.6209    0.0000 C   0  0  0  0  0  0  0  0  0  0  0  0
    8.8343   -1.7700    0.0000 H   0  0  0  0  0  0  0  0  0  0  0  0
   10.7626   -1.7700    0.0000 H   0  0  0  0  0  0  0  0  0  0  0  0
    8.4994    0.1291    0.0000 C   0  0  0  0  0  0  0  0  0  0  0  0
    9.4636    1.2781    0.0000 H   0  0  0  0  0  0  0  0  0  0  0  0
    7.5352    1.2781    0.0000 H   0  0  0  0  0  0  0  0  0  0  0  0
    6.7847   -0.8609    0.0000 O   0  0  0  0  0  0  0  0  0  0  0  0
    5.4856   -0.1109    0.0000 C   0  0  0  0  0  0  0  0  0  0  0  0
    6.4498    1.0381    0.0000 H   0  0  0  0  0  0  0  0  0  0  0  0
    4.5215    1.0381    0.0000 H   0  0  0  0  0  0  0  0  0  0  0  0
    4.1866   -0.8609    0.0000 C   0  0  0  0  0  0  0  0  0  0  0  0
    3.2224   -2.0100    0.0000 H   0  0  0  0  0  0  0  0  0  0  0  0
    5.1508   -2.0100    0.0000 H   0  0  0  0  0  0  0  0  0  0  0  0
    2.4719    0.1291    0.0000 O   0  0  0  0  0  0  0  0  0  0  0  0
    1.1728   -0.6209    0.0000 C   0  0  0  0  0  0  0  0  0  0  0  0
    0.2086   -1.7700    0.0000 H   0  0  0  0  0  0  0  0  0  0  0  0
    2.1370   -1.7700    0.0000 H   0  0  0  0  0  0  0  0  0  0  0  0
   -0.1262    0.1291    0.0000 C   0  0  0  0  0  0  0  0  0  0  0  0
   -1.4253   -0.6209    0.0000 H   0  0  0  0  0  0  0  0  0  0  0  0
   -0.1262    1.6291    0.0000 O   0  0  0  0  0  0  0  0  0  0  0  0
  1  2  1  0  0  0  0 
  1  3  1  0  0  0  0 
  1  4  1  0  0  0  0 
  1  5  1  0  0  0  0 
  5  6  1  0  0  0  0 
  6  7  1  0  0  0  0 
  6  8  1  0  0  0  0 
  6  9  1  0  0  0  0 
  9 10  1  0  0  0  0 
  9 11  1  0  0  0  0 
  9 12  1  0  0  0  0 
 12 13  1  0  0  0  0 
 13 14  1  0  0  0  0 
 13 15  1  0  0  0  0 
 13 16  1  0  0  0  0 
 16 17  1  0  0  0  0 
 16 18  1  0  0  0  0 
 16 19  1  0  0  0  0 
 19 20  1  0  0  0  0 
 20 21  1  0  0  0  0 
 20 22  1  0  0  0  0 
 20 23  1  0  0  0  0 
 23 24  1  0  0  0  0 
 23 25  1  0  0  0  0 
 23 26  1  0  0  0  0 
 26 27  1  0  0  0  0 
 27 28  1  0  0  0  0 
 27 29  1  0  0  0  0 
 27 30  1  0  0  0  0 
 30 31  1  0  0  0  0 
 30 32  1  0  0  0  0 
 30 33  1  0  0  0  0 
 33 34  1  0  0  0  0 
 34 35  1  0  0  0  0 
 34 36  1  0  0  0  0 
 34 37  1  0  0  0  0 
 37 38  1  0  0  0  0 
 37 39  1  0  0  0  0 
 37 40  1  0  0  0  0 
 40 41  1  0  0  0  0 
 41 42  1  0  0  0  0 
 41 43  1  0  0  0  0 
 41 44  1  0  0  0  0 
 44 45  1  0  0  0  0 
 44 46  2  0  0  0  0 
M  END
> <Rank>
58

> <Priority_score>
0.076

> <Reaction_type>
oxidative ether cleavage to one alcohol and one aldehyde/ketone

> <Parent_ID>
18

> <Parent_InChI>
InChI=1S/C30H53NO11/c1-3-4-9-31-29-7-5-28(6-8-29)30(32)42-27-26-41-25-24-40-23-22-39-21-20-38-19-18-37-17-16-36-15-14-35-13-12-34-11-10-33-2/h5-8,31H,3-4,9-27H2,1-2H3

> <Parent_SMILES>
CCCCNc1ccc(C(=O)OCCOCCOCCOCCOCCOCCOCCOCCOCCOC)cc1

$$$$
Molecule 18_metabolite 60
  CDK     0516241031

 48 47  0  0  0  0  0  0  0  0999 V2000
   27.0497   -0.0000    0.0000 C   0  0  0  0  0  0  0  0  0  0  0  0
   27.0497    1.5000    0.0000 H   0  0  0  0  0  0  0  0  0  0  0  0
   28.5269    0.2605    0.0000 H   0  0  0  0  0  0  0  0  0  0  0  0
   27.5627   -1.4095    0.0000 H   0  0  0  0  0  0  0  0  0  0  0  0
   25.7506   -0.7500    0.0000 O   0  0  0  0  0  0  0  0  0  0  0  0
   24.4516   -0.0000    0.0000 C   0  0  0  0  0  0  0  0  0  0  0  0
   25.4158    1.1491    0.0000 H   0  0  0  0  0  0  0  0  0  0  0  0
   23.4874    1.1491    0.0000 H   0  0  0  0  0  0  0  0  0  0  0  0
   23.1526   -0.7500    0.0000 C   0  0  0  0  0  0  0  0  0  0  0  0
   22.1884   -1.8991    0.0000 H   0  0  0  0  0  0  0  0  0  0  0  0
   24.1167   -1.8991    0.0000 H   0  0  0  0  0  0  0  0  0  0  0  0
   21.8535   -0.0000    0.0000 O   0  0  0  0  0  0  0  0  0  0  0  0
   20.1388   -0.9900    0.0000 C   0  0  0  0  0  0  0  0  0  0  0  0
   19.1746   -2.1391    0.0000 H   0  0  0  0  0  0  0  0  0  0  0  0
   21.1030   -2.1391    0.0000 H   0  0  0  0  0  0  0  0  0  0  0  0
   18.8397   -0.2400    0.0000 C   0  0  0  0  0  0  0  0  0  0  0  0
   19.8039    0.9091    0.0000 H   0  0  0  0  0  0  0  0  0  0  0  0
   17.8756    0.9091    0.0000 H   0  0  0  0  0  0  0  0  0  0  0  0
   17.5407   -0.9900    0.0000 O   0  0  0  0  0  0  0  0  0  0  0  0
   15.8260   -0.0000    0.0000 C   0  0  0  0  0  0  0  0  0  0  0  0
   16.7902    1.1491    0.0000 H   0  0  0  0  0  0  0  0  0  0  0  0
   14.8618    1.1491    0.0000 H   0  0  0  0  0  0  0  0  0  0  0  0
   14.5269   -0.7500    0.0000 C   0  0  0  0  0  0  0  0  0  0  0  0
   13.5628   -1.8991    0.0000 H   0  0  0  0  0  0  0  0  0  0  0  0
   15.4911   -1.8991    0.0000 H   0  0  0  0  0  0  0  0  0  0  0  0
   12.8122    0.2400    0.0000 O   0  0  0  0  0  0  0  0  0  0  0  0
   11.5132   -0.5100    0.0000 C   0  0  0  0  0  0  0  0  0  0  0  0
   10.5490   -1.6591    0.0000 H   0  0  0  0  0  0  0  0  0  0  0  0
   12.4774   -1.6591    0.0000 H   0  0  0  0  0  0  0  0  0  0  0  0
   10.2141    0.2400    0.0000 C   0  0  0  0  0  0  0  0  0  0  0  0
   11.1783    1.3891    0.0000 H   0  0  0  0  0  0  0  0  0  0  0  0
    9.2499    1.3891    0.0000 H   0  0  0  0  0  0  0  0  0  0  0  0
    8.9151   -0.5100    0.0000 O   0  0  0  0  0  0  0  0  0  0  0  0
    7.2004    0.4800    0.0000 C   0  0  0  0  0  0  0  0  0  0  0  0
    8.1645    1.6291    0.0000 H   0  0  0  0  0  0  0  0  0  0  0  0
    6.2362    1.6291    0.0000 H   0  0  0  0  0  0  0  0  0  0  0  0
    5.9013   -0.2700    0.0000 C   0  0  0  0  0  0  0  0  0  0  0  0
    4.9371   -1.4191    0.0000 H   0  0  0  0  0  0  0  0  0  0  0  0
    6.8655   -1.4191    0.0000 H   0  0  0  0  0  0  0  0  0  0  0  0
    4.1866    0.7200    0.0000 O   0  0  0  0  0  0  0  0  0  0  0  0
    2.8876   -0.0300    0.0000 C   0  0  0  0  0  0  0  0  0  0  0  0
    1.9234   -1.1791    0.0000 H   0  0  0  0  0  0  0  0  0  0  0  0
    3.8517   -1.1791    0.0000 H   0  0  0  0  0  0  0  0  0  0  0  0
    1.5885    0.7200    0.0000 C   0  0  0  0  0  0  0  0  0  0  0  0
    2.5527    1.8691    0.0000 H   0  0  0  0  0  0  0  0  0  0  0  0
    0.6243    1.8691    0.0000 H   0  0  0  0  0  0  0  0  0  0  0  0
    0.2895   -0.0300    0.0000 O   0  0  0  0  0  0  0  0  0  0  0  0
   -1.0096    0.7200    0.0000 H   0  0  0  0  0  0  0  0  0  0  0  0
  1  2  1  0  0  0  0 
  1  3  1  0  0  0  0 
  1  4  1  0  0  0  0 
  1  5  1  0  0  0  0 
  5  6  1  0  0  0  0 
  6  7  1  0  0  0  0 
  6  8  1  0  0  0  0 
  6  9  1  0  0  0  0 
  9 10  1  0  0  0  0 
  9 11  1  0  0  0  0 
  9 12  1  0  0  0  0 
 12 13  1  0  0  0  0 
 13 14  1  0  0  0  0 
 13 15  1  0  0  0  0 
 13 16  1  0  0  0  0 
 16 17  1  0  0  0  0 
 16 18  1  0  0  0  0 
 16 19  1  0  0  0  0 
 19 20  1  0  0  0  0 
 20 21  1  0  0  0  0 
 20 22  1  0  0  0  0 
 20 23  1  0  0  0  0 
 23 24  1  0  0  0  0 
 23 25  1  0  0  0  0 
 23 26  1  0  0  0  0 
 26 27  1  0  0  0  0 
 27 28  1  0  0  0  0 
 27 29  1  0  0  0  0 
 27 30  1  0  0  0  0 
 30 31  1  0  0  0  0 
 30 32  1  0  0  0  0 
 30 33  1  0  0  0  0 
 33 34  1  0  0  0  0 
 34 35  1  0  0  0  0 
 34 36  1  0  0  0  0 
 34 37  1  0  0  0  0 
 37 38  1  0  0  0  0 
 37 39  1  0  0  0  0 
 37 40  1  0  0  0  0 
 40 41  1  0  0  0  0 
 41 42  1  0  0  0  0 
 41 43  1  0  0  0  0 
 41 44  1  0  0  0  0 
 44 45  1  0  0  0  0 
 44 46  1  0  0  0  0 
 44 47  1  0  0  0  0 
 47 48  1  0  0  0  0 
M  END
> <Rank>
58

> <Priority_score>
0.076

> <Reaction_type>
O-dealkylation_(aliphatic)

> <Parent_ID>
18

> <Parent_InChI>
InChI=1S/C30H53NO11/c1-3-4-9-31-29-7-5-28(6-8-29)30(32)42-27-26-41-25-24-40-23-22-39-21-20-38-19-18-37-17-16-36-15-14-35-13-12-34-11-10-33-2/h5-8,31H,3-4,9-27H2,1-2H3

> <Parent_SMILES>
CCCCNc1ccc(C(=O)OCCOCCOCCOCCOCCOCCOCCOCCOCCOC)cc1

$$$$
Molecule 18_metabolite 61
  CDK     0516241031

 96 96  0  0  0  0  0  0  0  0999 V2000
   33.5488   15.3839    0.0000 C   0  0  0  0  0  0  0  0  0  0  0  0
   33.5539   16.8838    0.0000 H   0  0  0  0  0  0  0  0  0  0  0  0
   35.0269   15.6393    0.0000 H   0  0  0  0  0  0  0  0  0  0  0  0
   34.0571   13.9726    0.0000 H   0  0  0  0  0  0  0  0  0  0  0  0
   32.2472   14.6382    0.0000 C   0  0  0  0  0  0  0  0  0  0  0  0
   31.2792   13.4924    0.0000 H   0  0  0  0  0  0  0  0  0  0  0  0
   33.2075   13.4859    0.0000 H   0  0  0  0  0  0  0  0  0  0  0  0
   30.9507   15.3926    0.0000 C   0  0  0  0  0  0  0  0  0  0  0  0
   31.9188   16.5384    0.0000 H   0  0  0  0  0  0  0  0  0  0  0  0
   29.9904   16.5449    0.0000 H   0  0  0  0  0  0  0  0  0  0  0  0
   29.2327   14.4084    0.0000 C   0  0  0  0  0  0  0  0  0  0  0  0
   28.2646   13.2626    0.0000 H   0  0  0  0  0  0  0  0  0  0  0  0
   30.1930   13.2561    0.0000 H   0  0  0  0  0  0  0  0  0  0  0  0
   27.9362   15.1628    0.0000 N   0  0  0  0  0  0  0  0  0  0  0  0
   27.9412   16.6628    0.0000 H   0  0  0  0  0  0  0  0  0  0  0  0
   26.6346   14.4172    0.0000 C   0  0  0  0  0  0  0  0  0  0  0  0
   26.6128   12.9150    0.0000 C   0  0  0  0  0  0  0  0  0  0  0  0
   27.9063   12.1556    0.0000 H   0  0  0  0  0  0  0  0  0  0  0  0
   25.3137   12.1650    0.0000 C   0  0  0  0  0  0  0  0  0  0  0  0
   25.3160   10.6650    0.0000 H   0  0  0  0  0  0  0  0  0  0  0  0
   24.0192   12.9072    0.0000 C   0  0  0  0  0  0  0  0  0  0  0  0
   24.0137   14.4167    0.0000 C   0  0  0  0  0  0  0  0  0  0  0  0
   22.7134   15.1643    0.0000 H   0  0  0  0  0  0  0  0  0  0  0  0
   25.3128   15.1667    0.0000 C   0  0  0  0  0  0  0  0  0  0  0  0
   25.3069   16.6667    0.0000 O   0  0  0  0  0  0  0  0  0  0  0  0
   24.0050   17.4116    0.0000 H   0  0  0  0  0  0  0  0  0  0  0  0
   22.7227   12.1529    0.0000 C   0  0  0  0  0  0  0  0  0  0  0  0
   22.7277   10.6529    0.0000 O   0  0  0  0  0  0  0  0  0  0  0  0
   21.4212   12.8985    0.0000 O   0  0  0  0  0  0  0  0  0  0  0  0
   20.1246   12.1442    0.0000 C   0  0  0  0  0  0  0  0  0  0  0  0
   19.1643   10.9919    0.0000 H   0  0  0  0  0  0  0  0  0  0  0  0
   21.0926   10.9983    0.0000 H   0  0  0  0  0  0  0  0  0  0  0  0
   18.8231   12.8899    0.0000 C   0  0  0  0  0  0  0  0  0  0  0  0
   19.7835   14.0421    0.0000 H   0  0  0  0  0  0  0  0  0  0  0  0
   17.8551   14.0357    0.0000 H   0  0  0  0  0  0  0  0  0  0  0  0
   17.1117   11.8942    0.0000 O   0  0  0  0  0  0  0  0  0  0  0  0
   15.8102   12.6398    0.0000 C   0  0  0  0  0  0  0  0  0  0  0  0
   16.7705   13.7921    0.0000 H   0  0  0  0  0  0  0  0  0  0  0  0
   14.8421   13.7857    0.0000 H   0  0  0  0  0  0  0  0  0  0  0  0
   14.5136   11.8855    0.0000 C   0  0  0  0  0  0  0  0  0  0  0  0
   13.5533   10.7332    0.0000 H   0  0  0  0  0  0  0  0  0  0  0  0
   15.4816   10.7397    0.0000 H   0  0  0  0  0  0  0  0  0  0  0  0
   13.2121   12.6312    0.0000 O   0  0  0  0  0  0  0  0  0  0  0  0
   11.5007   11.6355    0.0000 C   0  0  0  0  0  0  0  0  0  0  0  0
   10.5403   10.4832    0.0000 H   0  0  0  0  0  0  0  0  0  0  0  0
   12.4687   10.4896    0.0000 H   0  0  0  0  0  0  0  0  0  0  0  0
   10.1991   12.3812    0.0000 C   0  0  0  0  0  0  0  0  0  0  0  0
   11.1595   13.5334    0.0000 H   0  0  0  0  0  0  0  0  0  0  0  0
    9.2311   13.5270    0.0000 H   0  0  0  0  0  0  0  0  0  0  0  0
    8.4877   11.3854    0.0000 O   0  0  0  0  0  0  0  0  0  0  0  0
    7.1862   12.1311    0.0000 C   0  0  0  0  0  0  0  0  0  0  0  0
    8.1465   13.2834    0.0000 H   0  0  0  0  0  0  0  0  0  0  0  0
    6.2182   13.2770    0.0000 H   0  0  0  0  0  0  0  0  0  0  0  0
    5.8897   11.3768    0.0000 C   0  0  0  0  0  0  0  0  0  0  0  0
    4.9293   10.2245    0.0000 H   0  0  0  0  0  0  0  0  0  0  0  0
    6.8577   10.2309    0.0000 H   0  0  0  0  0  0  0  0  0  0  0  0
    4.5881   12.1225    0.0000 O   0  0  0  0  0  0  0  0  0  0  0  0
    2.8767   11.1268    0.0000 C   0  0  0  0  0  0  0  0  0  0  0  0
    1.9163    9.9745    0.0000 H   0  0  0  0  0  0  0  0  0  0  0  0
    3.8447    9.9809    0.0000 H   0  0  0  0  0  0  0  0  0  0  0  0
    1.5752   11.8724    0.0000 C   0  0  0  0  0  0  0  0  0  0  0  0
    2.5355   13.0247    0.0000 H   0  0  0  0  0  0  0  0  0  0  0  0
    0.6072   13.0183    0.0000 H   0  0  0  0  0  0  0  0  0  0  0  0
   -0.1363   10.8767    0.0000 O   0  0  0  0  0  0  0  0  0  0  0  0
   -1.4378   11.6224    0.0000 C   0  0  0  0  0  0  0  0  0  0  0  0
   -0.4774   12.7747    0.0000 H   0  0  0  0  0  0  0  0  0  0  0  0
   -2.4058   12.7682    0.0000 H   0  0  0  0  0  0  0  0  0  0  0  0
   -2.7343   10.8681    0.0000 C   0  0  0  0  0  0  0  0  0  0  0  0
   -3.6947    9.7158    0.0000 H   0  0  0  0  0  0  0  0  0  0  0  0
   -1.7663    9.7222    0.0000 H   0  0  0  0  0  0  0  0  0  0  0  0
   -4.0358   11.6137    0.0000 O   0  0  0  0  0  0  0  0  0  0  0  0
   -5.7473   10.6180    0.0000 C   0  0  0  0  0  0  0  0  0  0  0  0
   -6.7076    9.4658    0.0000 H   0  0  0  0  0  0  0  0  0  0  0  0
   -4.7793    9.4722    0.0000 H   0  0  0  0  0  0  0  0  0  0  0  0
   -7.0488   11.3637    0.0000 C   0  0  0  0  0  0  0  0  0  0  0  0
   -6.0884   12.5160    0.0000 H   0  0  0  0  0  0  0  0  0  0  0  0
   -8.0168   12.5096    0.0000 H   0  0  0  0  0  0  0  0  0  0  0  0
   -8.7602   10.3680    0.0000 O   0  0  0  0  0  0  0  0  0  0  0  0
  -10.0617   11.1137    0.0000 C   0  0  0  0  0  0  0  0  0  0  0  0
   -9.1014   12.2660    0.0000 H   0  0  0  0  0  0  0  0  0  0  0  0
  -11.0298   12.2595    0.0000 H   0  0  0  0  0  0  0  0  0  0  0  0
  -11.3583   10.3594    0.0000 C   0  0  0  0  0  0  0  0  0  0  0  0
  -12.3186    9.2071    0.0000 H   0  0  0  0  0  0  0  0  0  0  0  0
  -10.3903    9.2135    0.0000 H   0  0  0  0  0  0  0  0  0  0  0  0
  -13.0763   11.3436    0.0000 O   0  0  0  0  0  0  0  0  0  0  0  0
  -14.3728   10.5893    0.0000 C   0  0  0  0  0  0  0  0  0  0  0  0
  -15.3332    9.4371    0.0000 H   0  0  0  0  0  0  0  0  0  0  0  0
  -13.4048    9.4435    0.0000 H   0  0  0  0  0  0  0  0  0  0  0  0
  -15.6744   11.3350    0.0000 C   0  0  0  0  0  0  0  0  0  0  0  0
  -14.7140   12.4873    0.0000 H   0  0  0  0  0  0  0  0  0  0  0  0
  -16.6424   12.4808    0.0000 H   0  0  0  0  0  0  0  0  0  0  0  0
  -16.9709   10.5807    0.0000 O   0  0  0  0  0  0  0  0  0  0  0  0
  -18.2724   11.3263    0.0000 C   0  0  0  0  0  0  0  0  0  0  0  0
  -18.2774   12.8263    0.0000 H   0  0  0  0  0  0  0  0  0  0  0  0
  -18.7808    9.9151    0.0000 H   0  0  0  0  0  0  0  0  0  0  0  0
  -19.7505   11.5819    0.0000 H   0  0  0  0  0  0  0  0  0  0  0  0
  1  2  1  0  0  0  0 
  1  3  1  0  0  0  0 
  1  4  1  0  0  0  0 
  1  5  1  0  0  0  0 
  5  6  1  0  0  0  0 
  5  7  1  0  0  0  0 
  5  8  1  0  0  0  0 
  8  9  1  0  0  0  0 
  8 10  1  0  0  0  0 
  8 11  1  0  0  0  0 
 11 12  1  0  0  0  0 
 11 13  1  0  0  0  0 
 11 14  1  0  0  0  0 
 14 15  1  0  0  0  0 
 14 16  1  0  0  0  0 
 16 17  2  0  0  0  0 
 17 18  1  0  0  0  0 
 17 19  1  0  0  0  0 
 19 20  1  0  0  0  0 
 19 21  2  0  0  0  0 
 21 22  1  0  0  0  0 
 22 23  1  0  0  0  0 
 22 24  2  0  0  0  0 
 16 24  1  0  0  0  0 
 24 25  1  0  0  0  0 
 25 26  1  0  0  0  0 
 21 27  1  0  0  0  0 
 27 28  2  0  0  0  0 
 27 29  1  0  0  0  0 
 29 30  1  0  0  0  0 
 30 31  1  0  0  0  0 
 30 32  1  0  0  0  0 
 30 33  1  0  0  0  0 
 33 34  1  0  0  0  0 
 33 35  1  0  0  0  0 
 33 36  1  0  0  0  0 
 36 37  1  0  0  0  0 
 37 38  1  0  0  0  0 
 37 39  1  0  0  0  0 
 37 40  1  0  0  0  0 
 40 41  1  0  0  0  0 
 40 42  1  0  0  0  0 
 40 43  1  0  0  0  0 
 43 44  1  0  0  0  0 
 44 45  1  0  0  0  0 
 44 46  1  0  0  0  0 
 44 47  1  0  0  0  0 
 47 48  1  0  0  0  0 
 47 49  1  0  0  0  0 
 47 50  1  0  0  0  0 
 50 51  1  0  0  0  0 
 51 52  1  0  0  0  0 
 51 53  1  0  0  0  0 
 51 54  1  0  0  0  0 
 54 55  1  0  0  0  0 
 54 56  1  0  0  0  0 
 54 57  1  0  0  0  0 
 57 58  1  0  0  0  0 
 58 59  1  0  0  0  0 
 58 60  1  0  0  0  0 
 58 61  1  0  0  0  0 
 61 62  1  0  0  0  0 
 61 63  1  0  0  0  0 
 61 64  1  0  0  0  0 
 64 65  1  0  0  0  0 
 65 66  1  0  0  0  0 
 65 67  1  0  0  0  0 
 65 68  1  0  0  0  0 
 68 69  1  0  0  0  0 
 68 70  1  0  0  0  0 
 68 71  1  0  0  0  0 
 71 72  1  0  0  0  0 
 72 73  1  0  0  0  0 
 72 74  1  0  0  0  0 
 72 75  1  0  0  0  0 
 75 76  1  0  0  0  0 
 75 77  1  0  0  0  0 
 75 78  1  0  0  0  0 
 78 79  1  0  0  0  0 
 79 80  1  0  0  0  0 
 79 81  1  0  0  0  0 
 79 82  1  0  0  0  0 
 82 83  1  0  0  0  0 
 82 84  1  0  0  0  0 
 82 85  1  0  0  0  0 
 85 86  1  0  0  0  0 
 86 87  1  0  0  0  0 
 86 88  1  0  0  0  0 
 86 89  1  0  0  0  0 
 89 90  1  0  0  0  0 
 89 91  1  0  0  0  0 
 89 92  1  0  0  0  0 
 92 93  1  0  0  0  0 
 93 94  1  0  0  0  0 
 93 95  1  0  0  0  0 
 93 96  1  0  0  0  0 
M  END
> <Rank>
58

> <Priority_score>
0.076

> <Reaction_type>
aromatic_hydroxylation_(ortho_to_nitrogen)

> <Parent_ID>
18

> <Parent_InChI>
InChI=1S/C30H53NO11/c1-3-4-9-31-29-7-5-28(6-8-29)30(32)42-27-26-41-25-24-40-23-22-39-21-20-38-19-18-37-17-16-36-15-14-35-13-12-34-11-10-33-2/h5-8,31H,3-4,9-27H2,1-2H3

> <Parent_SMILES>
CCCCNc1ccc(C(=O)OCCOCCOCCOCCOCCOCCOCCOCCOCCOC)cc1

$$$$
Molecule 18_metabolite 62
  CDK     0516241031

 96 96  0  0  0  0  0  0  0  0999 V2000
  -41.1025    1.8745    0.0000 C   0  0  0  0  0  0  0  0  0  0  0  0
  -41.1023    3.3745    0.0000 H   0  0  0  0  0  0  0  0  0  0  0  0
  -41.6158    0.4650    0.0000 H   0  0  0  0  0  0  0  0  0  0  0  0
  -42.5797    2.1352    0.0000 H   0  0  0  0  0  0  0  0  0  0  0  0
  -39.8036    1.1243    0.0000 C   0  0  0  0  0  0  0  0  0  0  0  0
  -40.7680   -0.0246    0.0000 H   0  0  0  0  0  0  0  0  0  0  0  0
  -38.8396   -0.0249    0.0000 H   0  0  0  0  0  0  0  0  0  0  0  0
  -38.5045    1.8741    0.0000 C   0  0  0  0  0  0  0  0  0  0  0  0
  -37.5401    3.0230    0.0000 H   0  0  0  0  0  0  0  0  0  0  0  0
  -39.4685    3.0233    0.0000 H   0  0  0  0  0  0  0  0  0  0  0  0
  -36.7899    0.8838    0.0000 C   0  0  0  0  0  0  0  0  0  0  0  0
  -37.7542   -0.2651    0.0000 H   0  0  0  0  0  0  0  0  0  0  0  0
  -35.8259   -0.2654    0.0000 H   0  0  0  0  0  0  0  0  0  0  0  0
  -35.4907    1.6336    0.0000 N   0  0  0  0  0  0  0  0  0  0  0  0
  -35.4905    3.1336    0.0000 H   0  0  0  0  0  0  0  0  0  0  0  0
  -34.1918    0.8834    0.0000 C   0  0  0  0  0  0  0  0  0  0  0  0
  -32.8918    1.6334    0.0000 C   0  0  0  0  0  0  0  0  0  0  0  0
  -32.8918    3.1334    0.0000 H   0  0  0  0  0  0  0  0  0  0  0  0
  -31.5918    0.8834    0.0000 C   0  0  0  0  0  0  0  0  0  0  0  0
  -30.2929    1.6336    0.0000 H   0  0  0  0  0  0  0  0  0  0  0  0
  -31.5918   -0.6166    0.0000 C   0  0  0  0  0  0  0  0  0  0  0  0
  -32.8918   -1.3666    0.0000 C   0  0  0  0  0  0  0  0  0  0  0  0
  -32.8918   -2.8666    0.0000 H   0  0  0  0  0  0  0  0  0  0  0  0
  -34.1918   -0.6166    0.0000 C   0  0  0  0  0  0  0  0  0  0  0  0
  -35.4907   -1.3668    0.0000 H   0  0  0  0  0  0  0  0  0  0  0  0
  -30.2929   -1.3668    0.0000 C   0  0  0  0  0  0  0  0  0  0  0  0
  -30.2931   -2.8668    0.0000 O   0  0  0  0  0  0  0  0  0  0  0  0
  -28.9937   -0.6170    0.0000 O   0  0  0  0  0  0  0  0  0  0  0  0
  -27.6948   -1.3672    0.0000 C   0  0  0  0  0  0  0  0  0  0  0  0
  -28.6592   -2.5162    0.0000 H   0  0  0  0  0  0  0  0  0  0  0  0
  -26.7308   -2.5165    0.0000 H   0  0  0  0  0  0  0  0  0  0  0  0
  -26.3957   -0.6174    0.0000 C   0  0  0  0  0  0  0  0  0  0  0  0
  -25.4313    0.5315    0.0000 H   0  0  0  0  0  0  0  0  0  0  0  0
  -27.3597    0.5318    0.0000 H   0  0  0  0  0  0  0  0  0  0  0  0
  -24.6811   -1.6077    0.0000 O   0  0  0  0  0  0  0  0  0  0  0  0
  -23.3819   -0.8579    0.0000 C   0  0  0  0  0  0  0  0  0  0  0  0
  -22.4176    0.2910    0.0000 H   0  0  0  0  0  0  0  0  0  0  0  0
  -24.3459    0.2913    0.0000 H   0  0  0  0  0  0  0  0  0  0  0  0
  -22.0830   -1.6081    0.0000 C   0  0  0  0  0  0  0  0  0  0  0  0
  -23.0474   -2.7571    0.0000 H   0  0  0  0  0  0  0  0  0  0  0  0
  -21.1190   -2.7574    0.0000 H   0  0  0  0  0  0  0  0  0  0  0  0
  -20.3681   -0.6184    0.0000 O   0  0  0  0  0  0  0  0  0  0  0  0
  -19.0692   -1.3686    0.0000 C   0  0  0  0  0  0  0  0  0  0  0  0
  -20.0336   -2.5175    0.0000 H   0  0  0  0  0  0  0  0  0  0  0  0
  -18.1052   -2.5178    0.0000 H   0  0  0  0  0  0  0  0  0  0  0  0
  -17.7700   -0.6188    0.0000 C   0  0  0  0  0  0  0  0  0  0  0  0
  -16.8057    0.5301    0.0000 H   0  0  0  0  0  0  0  0  0  0  0  0
  -18.7340    0.5304    0.0000 O   0  0  0  0  0  0  0  0  0  0  0  0
  -18.2208    1.9398    0.0000 H   0  0  0  0  0  0  0  0  0  0  0  0
  -16.0555   -1.6091    0.0000 O   0  0  0  0  0  0  0  0  0  0  0  0
  -14.7563   -0.8593    0.0000 C   0  0  0  0  0  0  0  0  0  0  0  0
  -13.7919    0.2896    0.0000 H   0  0  0  0  0  0  0  0  0  0  0  0
  -15.7203    0.2899    0.0000 H   0  0  0  0  0  0  0  0  0  0  0  0
  -13.4574   -1.6095    0.0000 C   0  0  0  0  0  0  0  0  0  0  0  0
  -14.4218   -2.7584    0.0000 H   0  0  0  0  0  0  0  0  0  0  0  0
  -12.4934   -2.7587    0.0000 H   0  0  0  0  0  0  0  0  0  0  0  0
  -12.1582   -0.8597    0.0000 O   0  0  0  0  0  0  0  0  0  0  0  0
  -10.4437   -1.8500    0.0000 C   0  0  0  0  0  0  0  0  0  0  0  0
  -11.4080   -2.9989    0.0000 H   0  0  0  0  0  0  0  0  0  0  0  0
   -9.4797   -2.9992    0.0000 H   0  0  0  0  0  0  0  0  0  0  0  0
   -9.1445   -1.1002    0.0000 C   0  0  0  0  0  0  0  0  0  0  0  0
   -8.1801    0.0487    0.0000 H   0  0  0  0  0  0  0  0  0  0  0  0
  -10.1085    0.0490    0.0000 H   0  0  0  0  0  0  0  0  0  0  0  0
   -7.4299   -2.0905    0.0000 O   0  0  0  0  0  0  0  0  0  0  0  0
   -6.1308   -1.3407    0.0000 C   0  0  0  0  0  0  0  0  0  0  0  0
   -5.1664   -0.1918    0.0000 H   0  0  0  0  0  0  0  0  0  0  0  0
   -7.0948   -0.1915    0.0000 H   0  0  0  0  0  0  0  0  0  0  0  0
   -4.8319   -2.0909    0.0000 C   0  0  0  0  0  0  0  0  0  0  0  0
   -5.7962   -3.2398    0.0000 H   0  0  0  0  0  0  0  0  0  0  0  0
   -3.8679   -3.2401    0.0000 H   0  0  0  0  0  0  0  0  0  0  0  0
   -3.5327   -1.3411    0.0000 O   0  0  0  0  0  0  0  0  0  0  0  0
   -1.8181   -2.3314    0.0000 C   0  0  0  0  0  0  0  0  0  0  0  0
   -2.7825   -3.4803    0.0000 H   0  0  0  0  0  0  0  0  0  0  0  0
   -0.8541   -3.4806    0.0000 H   0  0  0  0  0  0  0  0  0  0  0  0
   -0.5190   -1.5816    0.0000 C   0  0  0  0  0  0  0  0  0  0  0  0
    0.4454   -0.4327    0.0000 H   0  0  0  0  0  0  0  0  0  0  0  0
   -1.4830   -0.4324    0.0000 H   0  0  0  0  0  0  0  0  0  0  0  0
    1.1956   -2.5719    0.0000 O   0  0  0  0  0  0  0  0  0  0  0  0
    2.4948   -1.8221    0.0000 C   0  0  0  0  0  0  0  0  0  0  0  0
    3.4591   -0.6732    0.0000 H   0  0  0  0  0  0  0  0  0  0  0  0
    1.5308   -0.6729    0.0000 H   0  0  0  0  0  0  0  0  0  0  0  0
    3.7937   -2.5723    0.0000 C   0  0  0  0  0  0  0  0  0  0  0  0
    2.8293   -3.7212    0.0000 H   0  0  0  0  0  0  0  0  0  0  0  0
    4.7577   -3.7215    0.0000 H   0  0  0  0  0  0  0  0  0  0  0  0
    5.5086   -1.5826    0.0000 O   0  0  0  0  0  0  0  0  0  0  0  0
    6.8075   -2.3328    0.0000 C   0  0  0  0  0  0  0  0  0  0  0  0
    5.8431   -3.4817    0.0000 H   0  0  0  0  0  0  0  0  0  0  0  0
    7.7715   -3.4820    0.0000 H   0  0  0  0  0  0  0  0  0  0  0  0
    8.1066   -1.5830    0.0000 C   0  0  0  0  0  0  0  0  0  0  0  0
    9.0710   -0.4341    0.0000 H   0  0  0  0  0  0  0  0  0  0  0  0
    7.1426   -0.4338    0.0000 H   0  0  0  0  0  0  0  0  0  0  0  0
    9.4056   -2.3332    0.0000 O   0  0  0  0  0  0  0  0  0  0  0  0
   10.7047   -1.5834    0.0000 C   0  0  0  0  0  0  0  0  0  0  0  0
   10.7050   -0.0834    0.0000 H   0  0  0  0  0  0  0  0  0  0  0  0
   12.1820   -1.3232    0.0000 H   0  0  0  0  0  0  0  0  0  0  0  0
   11.2175   -2.9930    0.0000 H   0  0  0  0  0  0  0  0  0  0  0  0
  1  2  1  0  0  0  0 
  1  3  1  0  0  0  0 
  1  4  1  0  0  0  0 
  1  5  1  0  0  0  0 
  5  6  1  0  0  0  0 
  5  7  1  0  0  0  0 
  5  8  1  0  0  0  0 
  8  9  1  0  0  0  0 
  8 10  1  0  0  0  0 
  8 11  1  0  0  0  0 
 11 12  1  0  0  0  0 
 11 13  1  0  0  0  0 
 11 14  1  0  0  0  0 
 14 15  1  0  0  0  0 
 14 16  1  0  0  0  0 
 16 17  2  0  0  0  0 
 17 18  1  0  0  0  0 
 17 19  1  0  0  0  0 
 19 20  1  0  0  0  0 
 19 21  2  0  0  0  0 
 21 22  1  0  0  0  0 
 22 23  1  0  0  0  0 
 22 24  2  0  0  0  0 
 16 24  1  0  0  0  0 
 24 25  1  0  0  0  0 
 21 26  1  0  0  0  0 
 26 27  2  0  0  0  0 
 26 28  1  0  0  0  0 
 28 29  1  0  0  0  0 
 29 30  1  0  0  0  0 
 29 31  1  0  0  0  0 
 29 32  1  0  0  0  0 
 32 33  1  0  0  0  0 
 32 34  1  0  0  0  0 
 32 35  1  0  0  0  0 
 35 36  1  0  0  0  0 
 36 37  1  0  0  0  0 
 36 38  1  0  0  0  0 
 36 39  1  0  0  0  0 
 39 40  1  0  0  0  0 
 39 41  1  0  0  0  0 
 39 42  1  0  0  0  0 
 42 43  1  0  0  0  0 
 43 44  1  0  0  0  0 
 43 45  1  0  0  0  0 
 43 46  1  0  0  0  0 
 46 47  1  0  0  0  0 
 46 48  1  0  0  0  0 
 48 49  1  0  0  0  0 
 46 50  1  0  0  0  0 
 50 51  1  0  0  0  0 
 51 52  1  0  0  0  0 
 51 53  1  0  0  0  0 
 51 54  1  0  0  0  0 
 54 55  1  0  0  0  0 
 54 56  1  0  0  0  0 
 54 57  1  0  0  0  0 
 57 58  1  0  0  0  0 
 58 59  1  0  0  0  0 
 58 60  1  0  0  0  0 
 58 61  1  0  0  0  0 
 61 62  1  0  0  0  0 
 61 63  1  0  0  0  0 
 61 64  1  0  0  0  0 
 64 65  1  0  0  0  0 
 65 66  1  0  0  0  0 
 65 67  1  0  0  0  0 
 65 68  1  0  0  0  0 
 68 69  1  0  0  0  0 
 68 70  1  0  0  0  0 
 68 71  1  0  0  0  0 
 71 72  1  0  0  0  0 
 72 73  1  0  0  0  0 
 72 74  1  0  0  0  0 
 72 75  1  0  0  0  0 
 75 76  1  0  0  0  0 
 75 77  1  0  0  0  0 
 75 78  1  0  0  0  0 
 78 79  1  0  0  0  0 
 79 80  1  0  0  0  0 
 79 81  1  0  0  0  0 
 79 82  1  0  0  0  0 
 82 83  1  0  0  0  0 
 82 84  1  0  0  0  0 
 82 85  1  0  0  0  0 
 85 86  1  0  0  0  0 
 86 87  1  0  0  0  0 
 86 88  1  0  0  0  0 
 86 89  1  0  0  0  0 
 89 90  1  0  0  0  0 
 89 91  1  0  0  0  0 
 89 92  1  0  0  0  0 
 92 93  1  0  0  0  0 
 93 94  1  0  0  0  0 
 93 95  1  0  0  0  0 
 93 96  1  0  0  0  0 
M  END
> <Rank>
58

> <Priority_score>
0.076

> <Reaction_type>
aliphatic hydroxylation

> <Parent_ID>
18

> <Parent_InChI>
InChI=1S/C30H53NO11/c1-3-4-9-31-29-7-5-28(6-8-29)30(32)42-27-26-41-25-24-40-23-22-39-21-20-38-19-18-37-17-16-36-15-14-35-13-12-34-11-10-33-2/h5-8,31H,3-4,9-27H2,1-2H3

> <Parent_SMILES>
CCCCNc1ccc(C(=O)OCCOCCOCCOCCOCCOCCOCCOCCOCCOC)cc1

$$$$
Molecule 18_metabolite 63
  CDK     0516241031

 48 48  0  0  0  0  0  0  0  0999 V2000
    9.0421   -1.7412    0.0000 C   0  0  0  0  0  0  0  0  0  0  0  0
    9.0419   -3.2412    0.0000 H   0  0  0  0  0  0  0  0  0  0  0  0
    9.5554   -0.3318    0.0000 H   0  0  0  0  0  0  0  0  0  0  0  0
   10.5193   -2.0019    0.0000 H   0  0  0  0  0  0  0  0  0  0  0  0
    7.7432   -0.9910    0.0000 C   0  0  0  0  0  0  0  0  0  0  0  0
    8.7076    0.1579    0.0000 H   0  0  0  0  0  0  0  0  0  0  0  0
    6.7792    0.1582    0.0000 H   0  0  0  0  0  0  0  0  0  0  0  0
    6.4440   -1.7408    0.0000 C   0  0  0  0  0  0  0  0  0  0  0  0
    5.4797   -2.8897    0.0000 H   0  0  0  0  0  0  0  0  0  0  0  0
    7.4080   -2.8900    0.0000 H   0  0  0  0  0  0  0  0  0  0  0  0
    4.7295   -0.7505    0.0000 C   0  0  0  0  0  0  0  0  0  0  0  0
    5.6938    0.3984    0.0000 H   0  0  0  0  0  0  0  0  0  0  0  0
    3.7655    0.3987    0.0000 H   0  0  0  0  0  0  0  0  0  0  0  0
    3.4303   -1.5003    0.0000 N   0  0  0  0  0  0  0  0  0  0  0  0
    3.4301   -3.0003    0.0000 H   0  0  0  0  0  0  0  0  0  0  0  0
    2.1314   -0.7501    0.0000 C   0  0  0  0  0  0  0  0  0  0  0  0
    0.8314   -1.5001    0.0000 C   0  0  0  0  0  0  0  0  0  0  0  0
    0.8314   -3.0001    0.0000 H   0  0  0  0  0  0  0  0  0  0  0  0
   -0.4686   -0.7501    0.0000 C   0  0  0  0  0  0  0  0  0  0  0  0
   -1.7675   -1.5003    0.0000 H   0  0  0  0  0  0  0  0  0  0  0  0
   -0.4686    0.7499    0.0000 C   0  0  0  0  0  0  0  0  0  0  0  0
    0.8314    1.4999    0.0000 C   0  0  0  0  0  0  0  0  0  0  0  0
    0.8314    2.9999    0.0000 H   0  0  0  0  0  0  0  0  0  0  0  0
    2.1314    0.7499    0.0000 C   0  0  0  0  0  0  0  0  0  0  0  0
    3.4303    1.5001    0.0000 H   0  0  0  0  0  0  0  0  0  0  0  0
   -1.7675    1.5001    0.0000 C   0  0  0  0  0  0  0  0  0  0  0  0
   -1.7673    3.0001    0.0000 O   0  0  0  0  0  0  0  0  0  0  0  0
   -3.0667    0.7503    0.0000 O   0  0  0  0  0  0  0  0  0  0  0  0
   -4.3656    1.5005    0.0000 C   0  0  0  0  0  0  0  0  0  0  0  0
   -3.4012    2.6494    0.0000 H   0  0  0  0  0  0  0  0  0  0  0  0
   -5.3296    2.6497    0.0000 H   0  0  0  0  0  0  0  0  0  0  0  0
   -5.6648    0.7507    0.0000 C   0  0  0  0  0  0  0  0  0  0  0  0
   -6.6291   -0.3982    0.0000 H   0  0  0  0  0  0  0  0  0  0  0  0
   -4.7008   -0.3985    0.0000 H   0  0  0  0  0  0  0  0  0  0  0  0
   -7.3793    1.7410    0.0000 O   0  0  0  0  0  0  0  0  0  0  0  0
   -8.6785    0.9912    0.0000 C   0  0  0  0  0  0  0  0  0  0  0  0
   -9.6429   -0.1577    0.0000 H   0  0  0  0  0  0  0  0  0  0  0  0
   -7.7145   -0.1580    0.0000 H   0  0  0  0  0  0  0  0  0  0  0  0
   -9.9774    1.7414    0.0000 C   0  0  0  0  0  0  0  0  0  0  0  0
   -9.0131    2.8903    0.0000 H   0  0  0  0  0  0  0  0  0  0  0  0
  -10.9414    2.8906    0.0000 H   0  0  0  0  0  0  0  0  0  0  0  0
  -11.6923    0.7517    0.0000 O   0  0  0  0  0  0  0  0  0  0  0  0
  -12.9912    1.5019    0.0000 C   0  0  0  0  0  0  0  0  0  0  0  0
  -12.0269    2.6508    0.0000 H   0  0  0  0  0  0  0  0  0  0  0  0
  -13.9552    2.6511    0.0000 H   0  0  0  0  0  0  0  0  0  0  0  0
  -14.2904    0.7521    0.0000 C   0  0  0  0  0  0  0  0  0  0  0  0
  -15.5893    1.5023    0.0000 H   0  0  0  0  0  0  0  0  0  0  0  0
  -14.2906   -0.7479    0.0000 O   0  0  0  0  0  0  0  0  0  0  0  0
  1  2  1  0  0  0  0 
  1  3  1  0  0  0  0 
  1  4  1  0  0  0  0 
  1  5  1  0  0  0  0 
  5  6  1  0  0  0  0 
  5  7  1  0  0  0  0 
  5  8  1  0  0  0  0 
  8  9  1  0  0  0  0 
  8 10  1  0  0  0  0 
  8 11  1  0  0  0  0 
 11 12  1  0  0  0  0 
 11 13  1  0  0  0  0 
 11 14  1  0  0  0  0 
 14 15  1  0  0  0  0 
 14 16  1  0  0  0  0 
 16 17  2  0  0  0  0 
 17 18  1  0  0  0  0 
 17 19  1  0  0  0  0 
 19 20  1  0  0  0  0 
 19 21  2  0  0  0  0 
 21 22  1  0  0  0  0 
 22 23  1  0  0  0  0 
 22 24  2  0  0  0  0 
 16 24  1  0  0  0  0 
 24 25  1  0  0  0  0 
 21 26  1  0  0  0  0 
 26 27  2  0  0  0  0 
 26 28  1  0  0  0  0 
 28 29  1  0  0  0  0 
 29 30  1  0  0  0  0 
 29 31  1  0  0  0  0 
 29 32  1  0  0  0  0 
 32 33  1  0  0  0  0 
 32 34  1  0  0  0  0 
 32 35  1  0  0  0  0 
 35 36  1  0  0  0  0 
 36 37  1  0  0  0  0 
 36 38  1  0  0  0  0 
 36 39  1  0  0  0  0 
 39 40  1  0  0  0  0 
 39 41  1  0  0  0  0 
 39 42  1  0  0  0  0 
 42 43  1  0  0  0  0 
 43 44  1  0  0  0  0 
 43 45  1  0  0  0  0 
 43 46  1  0  0  0  0 
 46 47  1  0  0  0  0 
 46 48  2  0  0  0  0 
M  END
> <Rank>
58

> <Priority_score>
0.076

> <Reaction_type>
oxidative ether cleavage to one alcohol and one aldehyde/ketone

> <Parent_ID>
18

> <Parent_InChI>
InChI=1S/C30H53NO11/c1-3-4-9-31-29-7-5-28(6-8-29)30(32)42-27-26-41-25-24-40-23-22-39-21-20-38-19-18-37-17-16-36-15-14-35-13-12-34-11-10-33-2/h5-8,31H,3-4,9-27H2,1-2H3

> <Parent_SMILES>
CCCCNc1ccc(C(=O)OCCOCCOCCOCCOCCOCCOCCOCCOCCOC)cc1

$$$$
Molecule 18_metabolite 64
  CDK     0516241031

 96 96  0  0  0  0  0  0  0  0999 V2000
  -42.3497    3.5200    0.0000 C   0  0  0  0  0  0  0  0  0  0  0  0
  -42.3495    5.0200    0.0000 H   0  0  0  0  0  0  0  0  0  0  0  0
  -42.8630    2.1105    0.0000 H   0  0  0  0  0  0  0  0  0  0  0  0
  -43.8269    3.7807    0.0000 H   0  0  0  0  0  0  0  0  0  0  0  0
  -41.0508    2.7698    0.0000 C   0  0  0  0  0  0  0  0  0  0  0  0
  -42.0152    1.6209    0.0000 H   0  0  0  0  0  0  0  0  0  0  0  0
  -40.0868    1.6206    0.0000 H   0  0  0  0  0  0  0  0  0  0  0  0
  -39.7516    3.5196    0.0000 C   0  0  0  0  0  0  0  0  0  0  0  0
  -38.7873    4.6685    0.0000 H   0  0  0  0  0  0  0  0  0  0  0  0
  -40.7156    4.6688    0.0000 H   0  0  0  0  0  0  0  0  0  0  0  0
  -38.0371    2.5293    0.0000 C   0  0  0  0  0  0  0  0  0  0  0  0
  -39.0014    1.3804    0.0000 H   0  0  0  0  0  0  0  0  0  0  0  0
  -37.0731    1.3801    0.0000 H   0  0  0  0  0  0  0  0  0  0  0  0
  -36.7379    3.2791    0.0000 N   0  0  0  0  0  0  0  0  0  0  0  0
  -36.7377    4.7791    0.0000 H   0  0  0  0  0  0  0  0  0  0  0  0
  -35.4390    2.5289    0.0000 C   0  0  0  0  0  0  0  0  0  0  0  0
  -34.1390    3.2789    0.0000 C   0  0  0  0  0  0  0  0  0  0  0  0
  -34.1390    4.7789    0.0000 H   0  0  0  0  0  0  0  0  0  0  0  0
  -32.8390    2.5289    0.0000 C   0  0  0  0  0  0  0  0  0  0  0  0
  -31.5401    3.2791    0.0000 H   0  0  0  0  0  0  0  0  0  0  0  0
  -32.8390    1.0289    0.0000 C   0  0  0  0  0  0  0  0  0  0  0  0
  -34.1390    0.2789    0.0000 C   0  0  0  0  0  0  0  0  0  0  0  0
  -34.1390   -1.2211    0.0000 H   0  0  0  0  0  0  0  0  0  0  0  0
  -35.4390    1.0289    0.0000 C   0  0  0  0  0  0  0  0  0  0  0  0
  -36.7379    0.2787    0.0000 H   0  0  0  0  0  0  0  0  0  0  0  0
  -31.5401    0.2787    0.0000 C   0  0  0  0  0  0  0  0  0  0  0  0
  -31.5403   -1.2213    0.0000 O   0  0  0  0  0  0  0  0  0  0  0  0
  -30.2409    1.0285    0.0000 O   0  0  0  0  0  0  0  0  0  0  0  0
  -28.9420    0.2783    0.0000 C   0  0  0  0  0  0  0  0  0  0  0  0
  -29.9064   -0.8706    0.0000 H   0  0  0  0  0  0  0  0  0  0  0  0
  -27.9780   -0.8710    0.0000 H   0  0  0  0  0  0  0  0  0  0  0  0
  -27.6428    1.0281    0.0000 C   0  0  0  0  0  0  0  0  0  0  0  0
  -26.6785    2.1770    0.0000 H   0  0  0  0  0  0  0  0  0  0  0  0
  -28.6068    2.1773    0.0000 H   0  0  0  0  0  0  0  0  0  0  0  0
  -25.9283    0.0378    0.0000 O   0  0  0  0  0  0  0  0  0  0  0  0
  -24.6291    0.7876    0.0000 C   0  0  0  0  0  0  0  0  0  0  0  0
  -23.6648    1.9365    0.0000 H   0  0  0  0  0  0  0  0  0  0  0  0
  -25.5931    1.9368    0.0000 H   0  0  0  0  0  0  0  0  0  0  0  0
  -23.3302    0.0374    0.0000 C   0  0  0  0  0  0  0  0  0  0  0  0
  -24.2946   -1.1115    0.0000 H   0  0  0  0  0  0  0  0  0  0  0  0
  -22.3662   -1.1119    0.0000 O   0  0  0  0  0  0  0  0  0  0  0  0
  -22.8795   -2.5213    0.0000 H   0  0  0  0  0  0  0  0  0  0  0  0
  -21.6153    1.0271    0.0000 O   0  0  0  0  0  0  0  0  0  0  0  0
  -20.3164    0.2769    0.0000 C   0  0  0  0  0  0  0  0  0  0  0  0
  -21.2808   -0.8720    0.0000 H   0  0  0  0  0  0  0  0  0  0  0  0
  -19.3524   -0.8723    0.0000 H   0  0  0  0  0  0  0  0  0  0  0  0
  -19.0172    1.0267    0.0000 C   0  0  0  0  0  0  0  0  0  0  0  0
  -18.0529    2.1756    0.0000 H   0  0  0  0  0  0  0  0  0  0  0  0
  -19.9812    2.1759    0.0000 H   0  0  0  0  0  0  0  0  0  0  0  0
  -17.7183    0.2765    0.0000 O   0  0  0  0  0  0  0  0  0  0  0  0
  -16.0034    1.2662    0.0000 C   0  0  0  0  0  0  0  0  0  0  0  0
  -15.0391    2.4151    0.0000 H   0  0  0  0  0  0  0  0  0  0  0  0
  -16.9674    2.4154    0.0000 H   0  0  0  0  0  0  0  0  0  0  0  0
  -14.7045    0.5160    0.0000 C   0  0  0  0  0  0  0  0  0  0  0  0
  -15.6689   -0.6329    0.0000 H   0  0  0  0  0  0  0  0  0  0  0  0
  -13.7405   -0.6332    0.0000 H   0  0  0  0  0  0  0  0  0  0  0  0
  -13.4054    1.2658    0.0000 O   0  0  0  0  0  0  0  0  0  0  0  0
  -11.6908    0.2755    0.0000 C   0  0  0  0  0  0  0  0  0  0  0  0
  -12.6551   -0.8734    0.0000 H   0  0  0  0  0  0  0  0  0  0  0  0
  -10.7268   -0.8737    0.0000 H   0  0  0  0  0  0  0  0  0  0  0  0
  -10.3916    1.0253    0.0000 C   0  0  0  0  0  0  0  0  0  0  0  0
   -9.4273    2.1742    0.0000 H   0  0  0  0  0  0  0  0  0  0  0  0
  -11.3556    2.1745    0.0000 H   0  0  0  0  0  0  0  0  0  0  0  0
   -9.0927    0.2751    0.0000 O   0  0  0  0  0  0  0  0  0  0  0  0
   -7.3778    1.2648    0.0000 C   0  0  0  0  0  0  0  0  0  0  0  0
   -6.4135    2.4137    0.0000 H   0  0  0  0  0  0  0  0  0  0  0  0
   -8.3418    2.4140    0.0000 H   0  0  0  0  0  0  0  0  0  0  0  0
   -6.0789    0.5146    0.0000 C   0  0  0  0  0  0  0  0  0  0  0  0
   -7.0433   -0.6343    0.0000 H   0  0  0  0  0  0  0  0  0  0  0  0
   -5.1149   -0.6346    0.0000 H   0  0  0  0  0  0  0  0  0  0  0  0
   -4.3640    1.5043    0.0000 O   0  0  0  0  0  0  0  0  0  0  0  0
   -3.0651    0.7541    0.0000 C   0  0  0  0  0  0  0  0  0  0  0  0
   -4.0295   -0.3948    0.0000 H   0  0  0  0  0  0  0  0  0  0  0  0
   -2.1011   -0.3951    0.0000 H   0  0  0  0  0  0  0  0  0  0  0  0
   -1.7659    1.5039    0.0000 C   0  0  0  0  0  0  0  0  0  0  0  0
   -0.8016    2.6528    0.0000 H   0  0  0  0  0  0  0  0  0  0  0  0
   -2.7299    2.6531    0.0000 H   0  0  0  0  0  0  0  0  0  0  0  0
   -0.4670    0.7537    0.0000 O   0  0  0  0  0  0  0  0  0  0  0  0
    1.2479    1.7434    0.0000 C   0  0  0  0  0  0  0  0  0  0  0  0
    2.2122    2.8923    0.0000 H   0  0  0  0  0  0  0  0  0  0  0  0
    0.2839    2.8927    0.0000 H   0  0  0  0  0  0  0  0  0  0  0  0
    2.5468    0.9932    0.0000 C   0  0  0  0  0  0  0  0  0  0  0  0
    1.5824   -0.1557    0.0000 H   0  0  0  0  0  0  0  0  0  0  0  0
    3.5108   -0.1560    0.0000 H   0  0  0  0  0  0  0  0  0  0  0  0
    4.2617    1.9829    0.0000 O   0  0  0  0  0  0  0  0  0  0  0  0
    5.5606    1.2327    0.0000 C   0  0  0  0  0  0  0  0  0  0  0  0
    4.5962    0.0838    0.0000 H   0  0  0  0  0  0  0  0  0  0  0  0
    6.5246    0.0835    0.0000 H   0  0  0  0  0  0  0  0  0  0  0  0
    6.8598    1.9825    0.0000 C   0  0  0  0  0  0  0  0  0  0  0  0
    7.8241    3.1314    0.0000 H   0  0  0  0  0  0  0  0  0  0  0  0
    5.8958    3.1318    0.0000 H   0  0  0  0  0  0  0  0  0  0  0  0
    8.1587    1.2323    0.0000 O   0  0  0  0  0  0  0  0  0  0  0  0
    9.4578    1.9821    0.0000 C   0  0  0  0  0  0  0  0  0  0  0  0
    9.4581    3.4821    0.0000 H   0  0  0  0  0  0  0  0  0  0  0  0
   10.9351    2.2424    0.0000 H   0  0  0  0  0  0  0  0  0  0  0  0
    9.9706    0.5725    0.0000 H   0  0  0  0  0  0  0  0  0  0  0  0
  1  2  1  0  0  0  0 
  1  3  1  0  0  0  0 
  1  4  1  0  0  0  0 
  1  5  1  0  0  0  0 
  5  6  1  0  0  0  0 
  5  7  1  0  0  0  0 
  5  8  1  0  0  0  0 
  8  9  1  0  0  0  0 
  8 10  1  0  0  0  0 
  8 11  1  0  0  0  0 
 11 12  1  0  0  0  0 
 11 13  1  0  0  0  0 
 11 14  1  0  0  0  0 
 14 15  1  0  0  0  0 
 14 16  1  0  0  0  0 
 16 17  2  0  0  0  0 
 17 18  1  0  0  0  0 
 17 19  1  0  0  0  0 
 19 20  1  0  0  0  0 
 19 21  2  0  0  0  0 
 21 22  1  0  0  0  0 
 22 23  1  0  0  0  0 
 22 24  2  0  0  0  0 
 16 24  1  0  0  0  0 
 24 25  1  0  0  0  0 
 21 26  1  0  0  0  0 
 26 27  2  0  0  0  0 
 26 28  1  0  0  0  0 
 28 29  1  0  0  0  0 
 29 30  1  0  0  0  0 
 29 31  1  0  0  0  0 
 29 32  1  0  0  0  0 
 32 33  1  0  0  0  0 
 32 34  1  0  0  0  0 
 32 35  1  0  0  0  0 
 35 36  1  0  0  0  0 
 36 37  1  0  0  0  0 
 36 38  1  0  0  0  0 
 36 39  1  0  0  0  0 
 39 40  1  0  0  0  0 
 39 41  1  0  0  0  0 
 41 42  1  0  0  0  0 
 39 43  1  0  0  0  0 
 43 44  1  0  0  0  0 
 44 45  1  0  0  0  0 
 44 46  1  0  0  0  0 
 44 47  1  0  0  0  0 
 47 48  1  0  0  0  0 
 47 49  1  0  0  0  0 
 47 50  1  0  0  0  0 
 50 51  1  0  0  0  0 
 51 52  1  0  0  0  0 
 51 53  1  0  0  0  0 
 51 54  1  0  0  0  0 
 54 55  1  0  0  0  0 
 54 56  1  0  0  0  0 
 54 57  1  0  0  0  0 
 57 58  1  0  0  0  0 
 58 59  1  0  0  0  0 
 58 60  1  0  0  0  0 
 58 61  1  0  0  0  0 
 61 62  1  0  0  0  0 
 61 63  1  0  0  0  0 
 61 64  1  0  0  0  0 
 64 65  1  0  0  0  0 
 65 66  1  0  0  0  0 
 65 67  1  0  0  0  0 
 65 68  1  0  0  0  0 
 68 69  1  0  0  0  0 
 68 70  1  0  0  0  0 
 68 71  1  0  0  0  0 
 71 72  1  0  0  0  0 
 72 73  1  0  0  0  0 
 72 74  1  0  0  0  0 
 72 75  1  0  0  0  0 
 75 76  1  0  0  0  0 
 75 77  1  0  0  0  0 
 75 78  1  0  0  0  0 
 78 79  1  0  0  0  0 
 79 80  1  0  0  0  0 
 79 81  1  0  0  0  0 
 79 82  1  0  0  0  0 
 82 83  1  0  0  0  0 
 82 84  1  0  0  0  0 
 82 85  1  0  0  0  0 
 85 86  1  0  0  0  0 
 86 87  1  0  0  0  0 
 86 88  1  0  0  0  0 
 86 89  1  0  0  0  0 
 89 90  1  0  0  0  0 
 89 91  1  0  0  0  0 
 89 92  1  0  0  0  0 
 92 93  1  0  0  0  0 
 93 94  1  0  0  0  0 
 93 95  1  0  0  0  0 
 93 96  1  0  0  0  0 
M  END
> <Rank>
58

> <Priority_score>
0.076

> <Reaction_type>
aliphatic hydroxylation

> <Parent_ID>
18

> <Parent_InChI>
InChI=1S/C30H53NO11/c1-3-4-9-31-29-7-5-28(6-8-29)30(32)42-27-26-41-25-24-40-23-22-39-21-20-38-19-18-37-17-16-36-15-14-35-13-12-34-11-10-33-2/h5-8,31H,3-4,9-27H2,1-2H3

> <Parent_SMILES>
CCCCNc1ccc(C(=O)OCCOCCOCCOCCOCCOCCOCCOCCOCCOC)cc1

$$$$
Molecule 18_metabolite 65
  CDK     0516241031

 96 96  0  0  0  0  0  0  0  0999 V2000
  -41.9339    1.8746    0.0000 C   0  0  0  0  0  0  0  0  0  0  0  0
  -41.9337    3.3746    0.0000 H   0  0  0  0  0  0  0  0  0  0  0  0
  -42.4472    0.4652    0.0000 H   0  0  0  0  0  0  0  0  0  0  0  0
  -43.4111    2.1353    0.0000 H   0  0  0  0  0  0  0  0  0  0  0  0
  -40.6350    1.1244    0.0000 C   0  0  0  0  0  0  0  0  0  0  0  0
  -41.5994   -0.0245    0.0000 H   0  0  0  0  0  0  0  0  0  0  0  0
  -39.6710   -0.0248    0.0000 H   0  0  0  0  0  0  0  0  0  0  0  0
  -39.3358    1.8742    0.0000 C   0  0  0  0  0  0  0  0  0  0  0  0
  -38.3715    3.0231    0.0000 H   0  0  0  0  0  0  0  0  0  0  0  0
  -40.2998    3.0234    0.0000 H   0  0  0  0  0  0  0  0  0  0  0  0
  -37.6213    0.8839    0.0000 C   0  0  0  0  0  0  0  0  0  0  0  0
  -38.5856   -0.2650    0.0000 H   0  0  0  0  0  0  0  0  0  0  0  0
  -36.6573   -0.2653    0.0000 H   0  0  0  0  0  0  0  0  0  0  0  0
  -36.3221    1.6337    0.0000 N   0  0  0  0  0  0  0  0  0  0  0  0
  -36.3219    3.1337    0.0000 H   0  0  0  0  0  0  0  0  0  0  0  0
  -35.0232    0.8835    0.0000 C   0  0  0  0  0  0  0  0  0  0  0  0
  -33.7232    1.6335    0.0000 C   0  0  0  0  0  0  0  0  0  0  0  0
  -33.7232    3.1335    0.0000 H   0  0  0  0  0  0  0  0  0  0  0  0
  -32.4232    0.8835    0.0000 C   0  0  0  0  0  0  0  0  0  0  0  0
  -31.1243    1.6337    0.0000 H   0  0  0  0  0  0  0  0  0  0  0  0
  -32.4232   -0.6165    0.0000 C   0  0  0  0  0  0  0  0  0  0  0  0
  -33.7232   -1.3665    0.0000 C   0  0  0  0  0  0  0  0  0  0  0  0
  -33.7232   -2.8665    0.0000 H   0  0  0  0  0  0  0  0  0  0  0  0
  -35.0232   -0.6165    0.0000 C   0  0  0  0  0  0  0  0  0  0  0  0
  -36.3221   -1.3667    0.0000 H   0  0  0  0  0  0  0  0  0  0  0  0
  -31.1243   -1.3667    0.0000 C   0  0  0  0  0  0  0  0  0  0  0  0
  -31.1245   -2.8667    0.0000 O   0  0  0  0  0  0  0  0  0  0  0  0
  -29.8251   -0.6169    0.0000 O   0  0  0  0  0  0  0  0  0  0  0  0
  -28.5262   -1.3671    0.0000 C   0  0  0  0  0  0  0  0  0  0  0  0
  -29.4906   -2.5160    0.0000 H   0  0  0  0  0  0  0  0  0  0  0  0
  -27.5622   -2.5163    0.0000 H   0  0  0  0  0  0  0  0  0  0  0  0
  -27.2270   -0.6173    0.0000 C   0  0  0  0  0  0  0  0  0  0  0  0
  -26.2627    0.5316    0.0000 H   0  0  0  0  0  0  0  0  0  0  0  0
  -28.1910    0.5319    0.0000 H   0  0  0  0  0  0  0  0  0  0  0  0
  -25.5125   -1.6076    0.0000 O   0  0  0  0  0  0  0  0  0  0  0  0
  -24.2133   -0.8578    0.0000 C   0  0  0  0  0  0  0  0  0  0  0  0
  -23.2489    0.2911    0.0000 H   0  0  0  0  0  0  0  0  0  0  0  0
  -25.1773    0.2914    0.0000 H   0  0  0  0  0  0  0  0  0  0  0  0
  -22.9144   -1.6080    0.0000 C   0  0  0  0  0  0  0  0  0  0  0  0
  -23.8788   -2.7569    0.0000 H   0  0  0  0  0  0  0  0  0  0  0  0
  -21.9504   -2.7572    0.0000 H   0  0  0  0  0  0  0  0  0  0  0  0
  -21.6152   -0.8582    0.0000 O   0  0  0  0  0  0  0  0  0  0  0  0
  -19.9007   -1.8485    0.0000 C   0  0  0  0  0  0  0  0  0  0  0  0
  -20.8650   -2.9974    0.0000 H   0  0  0  0  0  0  0  0  0  0  0  0
  -18.9367   -2.9977    0.0000 H   0  0  0  0  0  0  0  0  0  0  0  0
  -18.6015   -1.0987    0.0000 C   0  0  0  0  0  0  0  0  0  0  0  0
  -17.6371    0.0502    0.0000 H   0  0  0  0  0  0  0  0  0  0  0  0
  -19.5655    0.0505    0.0000 H   0  0  0  0  0  0  0  0  0  0  0  0
  -17.3026   -1.8489    0.0000 O   0  0  0  0  0  0  0  0  0  0  0  0
  -15.5877   -0.8592    0.0000 C   0  0  0  0  0  0  0  0  0  0  0  0
  -14.6233    0.2897    0.0000 H   0  0  0  0  0  0  0  0  0  0  0  0
  -14.2888   -1.6094    0.0000 C   0  0  0  0  0  0  0  0  0  0  0  0
  -15.2531   -2.7583    0.0000 H   0  0  0  0  0  0  0  0  0  0  0  0
  -13.3248   -2.7586    0.0000 H   0  0  0  0  0  0  0  0  0  0  0  0
  -12.9896   -0.8596    0.0000 O   0  0  0  0  0  0  0  0  0  0  0  0
  -11.2751   -1.8499    0.0000 C   0  0  0  0  0  0  0  0  0  0  0  0
  -12.2394   -2.9988    0.0000 H   0  0  0  0  0  0  0  0  0  0  0  0
  -10.3111   -2.9991    0.0000 H   0  0  0  0  0  0  0  0  0  0  0  0
   -9.9759   -1.1001    0.0000 C   0  0  0  0  0  0  0  0  0  0  0  0
   -9.0115    0.0488    0.0000 H   0  0  0  0  0  0  0  0  0  0  0  0
  -10.9399    0.0491    0.0000 H   0  0  0  0  0  0  0  0  0  0  0  0
   -8.2613   -2.0904    0.0000 O   0  0  0  0  0  0  0  0  0  0  0  0
   -6.9622   -1.3406    0.0000 C   0  0  0  0  0  0  0  0  0  0  0  0
   -5.9978   -0.1917    0.0000 H   0  0  0  0  0  0  0  0  0  0  0  0
   -7.9262   -0.1913    0.0000 H   0  0  0  0  0  0  0  0  0  0  0  0
   -5.6632   -2.0908    0.0000 C   0  0  0  0  0  0  0  0  0  0  0  0
   -6.6276   -3.2397    0.0000 H   0  0  0  0  0  0  0  0  0  0  0  0
   -4.6992   -3.2400    0.0000 H   0  0  0  0  0  0  0  0  0  0  0  0
   -4.3641   -1.3410    0.0000 O   0  0  0  0  0  0  0  0  0  0  0  0
   -2.6495   -2.3313    0.0000 C   0  0  0  0  0  0  0  0  0  0  0  0
   -3.6139   -3.4802    0.0000 H   0  0  0  0  0  0  0  0  0  0  0  0
   -1.6855   -3.4805    0.0000 H   0  0  0  0  0  0  0  0  0  0  0  0
   -1.3504   -1.5815    0.0000 C   0  0  0  0  0  0  0  0  0  0  0  0
   -0.3860   -0.4325    0.0000 H   0  0  0  0  0  0  0  0  0  0  0  0
   -2.3144   -0.4322    0.0000 H   0  0  0  0  0  0  0  0  0  0  0  0
    0.3642   -2.5717    0.0000 O   0  0  0  0  0  0  0  0  0  0  0  0
    1.6634   -1.8219    0.0000 C   0  0  0  0  0  0  0  0  0  0  0  0
    2.6277   -0.6730    0.0000 H   0  0  0  0  0  0  0  0  0  0  0  0
    0.6994   -0.6727    0.0000 H   0  0  0  0  0  0  0  0  0  0  0  0
    2.9623   -2.5722    0.0000 C   0  0  0  0  0  0  0  0  0  0  0  0
    1.9979   -3.7211    0.0000 H   0  0  0  0  0  0  0  0  0  0  0  0
    3.9263   -3.7214    0.0000 H   0  0  0  0  0  0  0  0  0  0  0  0
    4.6772   -1.5824    0.0000 O   0  0  0  0  0  0  0  0  0  0  0  0
    5.9761   -2.3326    0.0000 C   0  0  0  0  0  0  0  0  0  0  0  0
    5.0117   -3.4815    0.0000 H   0  0  0  0  0  0  0  0  0  0  0  0
    6.9401   -3.4819    0.0000 H   0  0  0  0  0  0  0  0  0  0  0  0
    7.2753   -1.5828    0.0000 C   0  0  0  0  0  0  0  0  0  0  0  0
    8.2396   -0.4339    0.0000 H   0  0  0  0  0  0  0  0  0  0  0  0
    6.3113   -0.4336    0.0000 H   0  0  0  0  0  0  0  0  0  0  0  0
    8.5742   -2.3331    0.0000 O   0  0  0  0  0  0  0  0  0  0  0  0
    9.8733   -1.5833    0.0000 C   0  0  0  0  0  0  0  0  0  0  0  0
    9.8736   -0.0833    0.0000 H   0  0  0  0  0  0  0  0  0  0  0  0
   11.3506   -1.3230    0.0000 H   0  0  0  0  0  0  0  0  0  0  0  0
   10.3861   -2.9929    0.0000 H   0  0  0  0  0  0  0  0  0  0  0  0
  -16.5517    0.2900    0.0000 O   0  0  0  0  0  0  0  0  0  0  0  0
  -16.0384    1.6995    0.0000 H   0  0  0  0  0  0  0  0  0  0  0  0
  1  2  1  0  0  0  0 
  1  3  1  0  0  0  0 
  1  4  1  0  0  0  0 
  1  5  1  0  0  0  0 
  5  6  1  0  0  0  0 
  5  7  1  0  0  0  0 
  5  8  1  0  0  0  0 
  8  9  1  0  0  0  0 
  8 10  1  0  0  0  0 
  8 11  1  0  0  0  0 
 11 12  1  0  0  0  0 
 11 13  1  0  0  0  0 
 11 14  1  0  0  0  0 
 14 15  1  0  0  0  0 
 14 16  1  0  0  0  0 
 16 17  2  0  0  0  0 
 17 18  1  0  0  0  0 
 17 19  1  0  0  0  0 
 19 20  1  0  0  0  0 
 19 21  2  0  0  0  0 
 21 22  1  0  0  0  0 
 22 23  1  0  0  0  0 
 22 24  2  0  0  0  0 
 16 24  1  0  0  0  0 
 24 25  1  0  0  0  0 
 21 26  1  0  0  0  0 
 26 27  2  0  0  0  0 
 26 28  1  0  0  0  0 
 28 29  1  0  0  0  0 
 29 30  1  0  0  0  0 
 29 31  1  0  0  0  0 
 29 32  1  0  0  0  0 
 32 33  1  0  0  0  0 
 32 34  1  0  0  0  0 
 32 35  1  0  0  0  0 
 35 36  1  0  0  0  0 
 36 37  1  0  0  0  0 
 36 38  1  0  0  0  0 
 36 39  1  0  0  0  0 
 39 40  1  0  0  0  0 
 39 41  1  0  0  0  0 
 39 42  1  0  0  0  0 
 42 43  1  0  0  0  0 
 43 44  1  0  0  0  0 
 43 45  1  0  0  0  0 
 43 46  1  0  0  0  0 
 46 47  1  0  0  0  0 
 46 48  1  0  0  0  0 
 46 49  1  0  0  0  0 
 49 50  1  0  0  0  0 
 50 51  1  0  0  0  0 
 50 52  1  0  0  0  0 
 52 53  1  0  0  0  0 
 52 54  1  0  0  0  0 
 52 55  1  0  0  0  0 
 55 56  1  0  0  0  0 
 56 57  1  0  0  0  0 
 56 58  1  0  0  0  0 
 56 59  1  0  0  0  0 
 59 60  1  0  0  0  0 
 59 61  1  0  0  0  0 
 59 62  1  0  0  0  0 
 62 63  1  0  0  0  0 
 63 64  1  0  0  0  0 
 63 65  1  0  0  0  0 
 63 66  1  0  0  0  0 
 66 67  1  0  0  0  0 
 66 68  1  0  0  0  0 
 66 69  1  0  0  0  0 
 69 70  1  0  0  0  0 
 70 71  1  0  0  0  0 
 70 72  1  0  0  0  0 
 70 73  1  0  0  0  0 
 73 74  1  0  0  0  0 
 73 75  1  0  0  0  0 
 73 76  1  0  0  0  0 
 76 77  1  0  0  0  0 
 77 78  1  0  0  0  0 
 77 79  1  0  0  0  0 
 77 80  1  0  0  0  0 
 80 81  1  0  0  0  0 
 80 82  1  0  0  0  0 
 80 83  1  0  0  0  0 
 83 84  1  0  0  0  0 
 84 85  1  0  0  0  0 
 84 86  1  0  0  0  0 
 84 87  1  0  0  0  0 
 87 88  1  0  0  0  0 
 87 89  1  0  0  0  0 
 87 90  1  0  0  0  0 
 90 91  1  0  0  0  0 
 91 92  1  0  0  0  0 
 91 93  1  0  0  0  0 
 91 94  1  0  0  0  0 
 50 95  1  0  0  0  0 
 95 96  1  0  0  0  0 
M  END
> <Rank>
58

> <Priority_score>
0.076

> <Reaction_type>
aliphatic hydroxylation

> <Parent_ID>
18

> <Parent_InChI>
InChI=1S/C30H53NO11/c1-3-4-9-31-29-7-5-28(6-8-29)30(32)42-27-26-41-25-24-40-23-22-39-21-20-38-19-18-37-17-16-36-15-14-35-13-12-34-11-10-33-2/h5-8,31H,3-4,9-27H2,1-2H3

> <Parent_SMILES>
CCCCNc1ccc(C(=O)OCCOCCOCCOCCOCCOCCOCCOCCOCCOC)cc1

$$$$
Molecule 18_metabolite 66
  CDK     0516241031

 96 96  0  0  0  0  0  0  0  0999 V2000
  -42.3497    1.8724    0.0000 C   0  0  0  0  0  0  0  0  0  0  0  0
  -42.3495    3.3724    0.0000 H   0  0  0  0  0  0  0  0  0  0  0  0
  -42.8630    0.4630    0.0000 H   0  0  0  0  0  0  0  0  0  0  0  0
  -43.8269    2.1331    0.0000 H   0  0  0  0  0  0  0  0  0  0  0  0
  -41.0508    1.1222    0.0000 C   0  0  0  0  0  0  0  0  0  0  0  0
  -42.0152   -0.0267    0.0000 H   0  0  0  0  0  0  0  0  0  0  0  0
  -40.0868   -0.0270    0.0000 H   0  0  0  0  0  0  0  0  0  0  0  0
  -39.7516    1.8720    0.0000 C   0  0  0  0  0  0  0  0  0  0  0  0
  -38.7873    3.0209    0.0000 H   0  0  0  0  0  0  0  0  0  0  0  0
  -40.7156    3.0212    0.0000 H   0  0  0  0  0  0  0  0  0  0  0  0
  -38.0371    0.8817    0.0000 C   0  0  0  0  0  0  0  0  0  0  0  0
  -39.0014   -0.2672    0.0000 H   0  0  0  0  0  0  0  0  0  0  0  0
  -37.0731   -0.2675    0.0000 H   0  0  0  0  0  0  0  0  0  0  0  0
  -36.7379    1.6315    0.0000 N   0  0  0  0  0  0  0  0  0  0  0  0
  -36.7377    3.1315    0.0000 H   0  0  0  0  0  0  0  0  0  0  0  0
  -35.4390    0.8813    0.0000 C   0  0  0  0  0  0  0  0  0  0  0  0
  -34.1390    1.6313    0.0000 C   0  0  0  0  0  0  0  0  0  0  0  0
  -34.1390    3.1313    0.0000 H   0  0  0  0  0  0  0  0  0  0  0  0
  -32.8390    0.8813    0.0000 C   0  0  0  0  0  0  0  0  0  0  0  0
  -31.5401    1.6315    0.0000 H   0  0  0  0  0  0  0  0  0  0  0  0
  -32.8390   -0.6187    0.0000 C   0  0  0  0  0  0  0  0  0  0  0  0
  -34.1390   -1.3687    0.0000 C   0  0  0  0  0  0  0  0  0  0  0  0
  -34.1390   -2.8687    0.0000 H   0  0  0  0  0  0  0  0  0  0  0  0
  -35.4390   -0.6187    0.0000 C   0  0  0  0  0  0  0  0  0  0  0  0
  -36.7379   -1.3689    0.0000 H   0  0  0  0  0  0  0  0  0  0  0  0
  -31.5401   -1.3689    0.0000 C   0  0  0  0  0  0  0  0  0  0  0  0
  -31.5403   -2.8689    0.0000 O   0  0  0  0  0  0  0  0  0  0  0  0
  -30.2409   -0.6191    0.0000 O   0  0  0  0  0  0  0  0  0  0  0  0
  -28.9420   -1.3693    0.0000 C   0  0  0  0  0  0  0  0  0  0  0  0
  -29.9064   -2.5182    0.0000 H   0  0  0  0  0  0  0  0  0  0  0  0
  -27.9780   -2.5185    0.0000 H   0  0  0  0  0  0  0  0  0  0  0  0
  -27.6428   -0.6195    0.0000 C   0  0  0  0  0  0  0  0  0  0  0  0
  -26.6785    0.5294    0.0000 H   0  0  0  0  0  0  0  0  0  0  0  0
  -28.6068    0.5297    0.0000 H   0  0  0  0  0  0  0  0  0  0  0  0
  -25.9283   -1.6098    0.0000 O   0  0  0  0  0  0  0  0  0  0  0  0
  -24.6291   -0.8600    0.0000 C   0  0  0  0  0  0  0  0  0  0  0  0
  -23.6648    0.2889    0.0000 H   0  0  0  0  0  0  0  0  0  0  0  0
  -25.5931    0.2892    0.0000 H   0  0  0  0  0  0  0  0  0  0  0  0
  -23.3302   -1.6102    0.0000 C   0  0  0  0  0  0  0  0  0  0  0  0
  -24.2946   -2.7591    0.0000 H   0  0  0  0  0  0  0  0  0  0  0  0
  -22.3662   -2.7594    0.0000 H   0  0  0  0  0  0  0  0  0  0  0  0
  -22.0310   -0.8604    0.0000 O   0  0  0  0  0  0  0  0  0  0  0  0
  -20.3165   -1.8507    0.0000 C   0  0  0  0  0  0  0  0  0  0  0  0
  -21.2808   -2.9996    0.0000 H   0  0  0  0  0  0  0  0  0  0  0  0
  -19.3525   -2.9999    0.0000 H   0  0  0  0  0  0  0  0  0  0  0  0
  -19.0173   -1.1009    0.0000 C   0  0  0  0  0  0  0  0  0  0  0  0
  -18.0529    0.0480    0.0000 H   0  0  0  0  0  0  0  0  0  0  0  0
  -19.9813    0.0483    0.0000 H   0  0  0  0  0  0  0  0  0  0  0  0
  -17.7184   -1.8511    0.0000 O   0  0  0  0  0  0  0  0  0  0  0  0
  -16.0035   -0.8614    0.0000 C   0  0  0  0  0  0  0  0  0  0  0  0
  -15.0391    0.2875    0.0000 H   0  0  0  0  0  0  0  0  0  0  0  0
  -16.9675    0.2878    0.0000 H   0  0  0  0  0  0  0  0  0  0  0  0
  -14.7046   -1.6116    0.0000 C   0  0  0  0  0  0  0  0  0  0  0  0
  -15.6690   -2.7605    0.0000 H   0  0  0  0  0  0  0  0  0  0  0  0
  -13.7406   -2.7608    0.0000 H   0  0  0  0  0  0  0  0  0  0  0  0
  -13.4054   -0.8618    0.0000 O   0  0  0  0  0  0  0  0  0  0  0  0
  -11.6909   -1.8521    0.0000 C   0  0  0  0  0  0  0  0  0  0  0  0
  -12.6552   -3.0010    0.0000 H   0  0  0  0  0  0  0  0  0  0  0  0
  -10.3917   -1.1023    0.0000 C   0  0  0  0  0  0  0  0  0  0  0  0
   -9.4273    0.0466    0.0000 H   0  0  0  0  0  0  0  0  0  0  0  0
  -11.3557    0.0469    0.0000 H   0  0  0  0  0  0  0  0  0  0  0  0
   -9.0928   -1.8525    0.0000 O   0  0  0  0  0  0  0  0  0  0  0  0
   -7.3779   -0.8628    0.0000 C   0  0  0  0  0  0  0  0  0  0  0  0
   -6.4135    0.2861    0.0000 H   0  0  0  0  0  0  0  0  0  0  0  0
   -8.3419    0.2864    0.0000 H   0  0  0  0  0  0  0  0  0  0  0  0
   -6.0790   -1.6130    0.0000 C   0  0  0  0  0  0  0  0  0  0  0  0
   -7.0433   -2.7619    0.0000 H   0  0  0  0  0  0  0  0  0  0  0  0
   -5.1150   -2.7622    0.0000 H   0  0  0  0  0  0  0  0  0  0  0  0
   -4.3641   -0.6233    0.0000 O   0  0  0  0  0  0  0  0  0  0  0  0
   -3.0652   -1.3735    0.0000 C   0  0  0  0  0  0  0  0  0  0  0  0
   -4.0295   -2.5224    0.0000 H   0  0  0  0  0  0  0  0  0  0  0  0
   -2.1012   -2.5227    0.0000 H   0  0  0  0  0  0  0  0  0  0  0  0
   -1.7660   -0.6237    0.0000 C   0  0  0  0  0  0  0  0  0  0  0  0
   -0.8016    0.5252    0.0000 H   0  0  0  0  0  0  0  0  0  0  0  0
   -2.7300    0.5255    0.0000 H   0  0  0  0  0  0  0  0  0  0  0  0
   -0.4671   -1.3739    0.0000 O   0  0  0  0  0  0  0  0  0  0  0  0
    1.2478   -0.3842    0.0000 C   0  0  0  0  0  0  0  0  0  0  0  0
    2.2122    0.7648    0.0000 H   0  0  0  0  0  0  0  0  0  0  0  0
    0.2838    0.7651    0.0000 H   0  0  0  0  0  0  0  0  0  0  0  0
    2.5467   -1.1344    0.0000 C   0  0  0  0  0  0  0  0  0  0  0  0
    1.5823   -2.2833    0.0000 H   0  0  0  0  0  0  0  0  0  0  0  0
    3.5107   -2.2836    0.0000 H   0  0  0  0  0  0  0  0  0  0  0  0
    4.2616   -0.1446    0.0000 O   0  0  0  0  0  0  0  0  0  0  0  0
    5.5605   -0.8949    0.0000 C   0  0  0  0  0  0  0  0  0  0  0  0
    4.5962   -2.0438    0.0000 H   0  0  0  0  0  0  0  0  0  0  0  0
    6.5245   -2.0441    0.0000 H   0  0  0  0  0  0  0  0  0  0  0  0
    6.8597   -0.1451    0.0000 C   0  0  0  0  0  0  0  0  0  0  0  0
    7.8240    1.0039    0.0000 H   0  0  0  0  0  0  0  0  0  0  0  0
    5.8957    1.0042    0.0000 H   0  0  0  0  0  0  0  0  0  0  0  0
    8.1586   -0.8953    0.0000 O   0  0  0  0  0  0  0  0  0  0  0  0
    9.4578   -0.1455    0.0000 C   0  0  0  0  0  0  0  0  0  0  0  0
    9.4580    1.3545    0.0000 H   0  0  0  0  0  0  0  0  0  0  0  0
   10.9350    0.1148    0.0000 H   0  0  0  0  0  0  0  0  0  0  0  0
    9.9706   -1.5551    0.0000 H   0  0  0  0  0  0  0  0  0  0  0  0
  -10.7269   -3.0013    0.0000 O   0  0  0  0  0  0  0  0  0  0  0  0
   -9.2496   -2.7411    0.0000 H   0  0  0  0  0  0  0  0  0  0  0  0
  1  2  1  0  0  0  0 
  1  3  1  0  0  0  0 
  1  4  1  0  0  0  0 
  1  5  1  0  0  0  0 
  5  6  1  0  0  0  0 
  5  7  1  0  0  0  0 
  5  8  1  0  0  0  0 
  8  9  1  0  0  0  0 
  8 10  1  0  0  0  0 
  8 11  1  0  0  0  0 
 11 12  1  0  0  0  0 
 11 13  1  0  0  0  0 
 11 14  1  0  0  0  0 
 14 15  1  0  0  0  0 
 14 16  1  0  0  0  0 
 16 17  2  0  0  0  0 
 17 18  1  0  0  0  0 
 17 19  1  0  0  0  0 
 19 20  1  0  0  0  0 
 19 21  2  0  0  0  0 
 21 22  1  0  0  0  0 
 22 23  1  0  0  0  0 
 22 24  2  0  0  0  0 
 16 24  1  0  0  0  0 
 24 25  1  0  0  0  0 
 21 26  1  0  0  0  0 
 26 27  2  0  0  0  0 
 26 28  1  0  0  0  0 
 28 29  1  0  0  0  0 
 29 30  1  0  0  0  0 
 29 31  1  0  0  0  0 
 29 32  1  0  0  0  0 
 32 33  1  0  0  0  0 
 32 34  1  0  0  0  0 
 32 35  1  0  0  0  0 
 35 36  1  0  0  0  0 
 36 37  1  0  0  0  0 
 36 38  1  0  0  0  0 
 36 39  1  0  0  0  0 
 39 40  1  0  0  0  0 
 39 41  1  0  0  0  0 
 39 42  1  0  0  0  0 
 42 43  1  0  0  0  0 
 43 44  1  0  0  0  0 
 43 45  1  0  0  0  0 
 43 46  1  0  0  0  0 
 46 47  1  0  0  0  0 
 46 48  1  0  0  0  0 
 46 49  1  0  0  0  0 
 49 50  1  0  0  0  0 
 50 51  1  0  0  0  0 
 50 52  1  0  0  0  0 
 50 53  1  0  0  0  0 
 53 54  1  0  0  0  0 
 53 55  1  0  0  0  0 
 53 56  1  0  0  0  0 
 56 57  1  0  0  0  0 
 57 58  1  0  0  0  0 
 57 59  1  0  0  0  0 
 59 60  1  0  0  0  0 
 59 61  1  0  0  0  0 
 59 62  1  0  0  0  0 
 62 63  1  0  0  0  0 
 63 64  1  0  0  0  0 
 63 65  1  0  0  0  0 
 63 66  1  0  0  0  0 
 66 67  1  0  0  0  0 
 66 68  1  0  0  0  0 
 66 69  1  0  0  0  0 
 69 70  1  0  0  0  0 
 70 71  1  0  0  0  0 
 70 72  1  0  0  0  0 
 70 73  1  0  0  0  0 
 73 74  1  0  0  0  0 
 73 75  1  0  0  0  0 
 73 76  1  0  0  0  0 
 76 77  1  0  0  0  0 
 77 78  1  0  0  0  0 
 77 79  1  0  0  0  0 
 77 80  1  0  0  0  0 
 80 81  1  0  0  0  0 
 80 82  1  0  0  0  0 
 80 83  1  0  0  0  0 
 83 84  1  0  0  0  0 
 84 85  1  0  0  0  0 
 84 86  1  0  0  0  0 
 84 87  1  0  0  0  0 
 87 88  1  0  0  0  0 
 87 89  1  0  0  0  0 
 87 90  1  0  0  0  0 
 90 91  1  0  0  0  0 
 91 92  1  0  0  0  0 
 91 93  1  0  0  0  0 
 91 94  1  0  0  0  0 
 57 95  1  0  0  0  0 
 95 96  1  0  0  0  0 
M  END
> <Rank>
58

> <Priority_score>
0.076

> <Reaction_type>
aliphatic hydroxylation

> <Parent_ID>
18

> <Parent_InChI>
InChI=1S/C30H53NO11/c1-3-4-9-31-29-7-5-28(6-8-29)30(32)42-27-26-41-25-24-40-23-22-39-21-20-38-19-18-37-17-16-36-15-14-35-13-12-34-11-10-33-2/h5-8,31H,3-4,9-27H2,1-2H3

> <Parent_SMILES>
CCCCNc1ccc(C(=O)OCCOCCOCCOCCOCCOCCOCCOCCOCCOC)cc1

$$$$
Molecule 18_metabolite 67
  CDK     0516241031

 96 96  0  0  0  0  0  0  0  0999 V2000
    9.0422   -1.2612    0.0000 C   0  0  0  0  0  0  0  0  0  0  0  0
    9.0419   -2.7612    0.0000 H   0  0  0  0  0  0  0  0  0  0  0  0
    9.5554    0.1482    0.0000 H   0  0  0  0  0  0  0  0  0  0  0  0
   10.5194   -1.5219    0.0000 H   0  0  0  0  0  0  0  0  0  0  0  0
    7.7433   -0.5110    0.0000 C   0  0  0  0  0  0  0  0  0  0  0  0
    8.7076    0.6379    0.0000 H   0  0  0  0  0  0  0  0  0  0  0  0
    6.7793    0.6382    0.0000 H   0  0  0  0  0  0  0  0  0  0  0  0
    6.4441   -1.2608    0.0000 C   0  0  0  0  0  0  0  0  0  0  0  0
    5.4797   -2.4097    0.0000 H   0  0  0  0  0  0  0  0  0  0  0  0
    7.4081   -2.4100    0.0000 H   0  0  0  0  0  0  0  0  0  0  0  0
    4.7295   -0.2705    0.0000 C   0  0  0  0  0  0  0  0  0  0  0  0
    5.6939    0.8784    0.0000 H   0  0  0  0  0  0  0  0  0  0  0  0
    3.7655    0.8787    0.0000 H   0  0  0  0  0  0  0  0  0  0  0  0
    3.4304   -1.0203    0.0000 N   0  0  0  0  0  0  0  0  0  0  0  0
    3.4301   -2.5203    0.0000 H   0  0  0  0  0  0  0  0  0  0  0  0
    2.1315   -0.2701    0.0000 C   0  0  0  0  0  0  0  0  0  0  0  0
    0.8315   -1.0201    0.0000 C   0  0  0  0  0  0  0  0  0  0  0  0
    0.8315   -2.5201    0.0000 H   0  0  0  0  0  0  0  0  0  0  0  0
   -0.4685   -0.2701    0.0000 C   0  0  0  0  0  0  0  0  0  0  0  0
   -1.7675   -1.0203    0.0000 H   0  0  0  0  0  0  0  0  0  0  0  0
   -0.4685    1.2299    0.0000 C   0  0  0  0  0  0  0  0  0  0  0  0
    0.8315    1.9799    0.0000 C   0  0  0  0  0  0  0  0  0  0  0  0
    0.8315    3.4799    0.0000 H   0  0  0  0  0  0  0  0  0  0  0  0
    2.1315    1.2299    0.0000 C   0  0  0  0  0  0  0  0  0  0  0  0
    3.4304    1.9801    0.0000 H   0  0  0  0  0  0  0  0  0  0  0  0
   -1.7675    1.9801    0.0000 C   0  0  0  0  0  0  0  0  0  0  0  0
   -1.7672    3.4801    0.0000 O   0  0  0  0  0  0  0  0  0  0  0  0
   -3.0666    1.2303    0.0000 O   0  0  0  0  0  0  0  0  0  0  0  0
   -4.3655    1.9805    0.0000 C   0  0  0  0  0  0  0  0  0  0  0  0
   -3.4012    3.1294    0.0000 H   0  0  0  0  0  0  0  0  0  0  0  0
   -5.6647    1.2307    0.0000 C   0  0  0  0  0  0  0  0  0  0  0  0
   -6.6291    0.0818    0.0000 H   0  0  0  0  0  0  0  0  0  0  0  0
   -4.7007    0.0815    0.0000 H   0  0  0  0  0  0  0  0  0  0  0  0
   -6.9636    1.9809    0.0000 O   0  0  0  0  0  0  0  0  0  0  0  0
   -8.6785    0.9912    0.0000 C   0  0  0  0  0  0  0  0  0  0  0  0
   -9.6429   -0.1577    0.0000 H   0  0  0  0  0  0  0  0  0  0  0  0
   -7.7145   -0.1580    0.0000 H   0  0  0  0  0  0  0  0  0  0  0  0
   -9.9774    1.7414    0.0000 C   0  0  0  0  0  0  0  0  0  0  0  0
   -9.0131    2.8903    0.0000 H   0  0  0  0  0  0  0  0  0  0  0  0
  -10.9414    2.8906    0.0000 H   0  0  0  0  0  0  0  0  0  0  0  0
  -11.2766    0.9916    0.0000 O   0  0  0  0  0  0  0  0  0  0  0  0
  -12.9911    1.9819    0.0000 C   0  0  0  0  0  0  0  0  0  0  0  0
  -12.0268    3.1308    0.0000 H   0  0  0  0  0  0  0  0  0  0  0  0
  -13.9551    3.1311    0.0000 H   0  0  0  0  0  0  0  0  0  0  0  0
  -14.2903    1.2321    0.0000 C   0  0  0  0  0  0  0  0  0  0  0  0
  -15.2547    0.0832    0.0000 H   0  0  0  0  0  0  0  0  0  0  0  0
  -13.3263    0.0829    0.0000 H   0  0  0  0  0  0  0  0  0  0  0  0
  -15.5892    1.9823    0.0000 O   0  0  0  0  0  0  0  0  0  0  0  0
  -17.3041    0.9926    0.0000 C   0  0  0  0  0  0  0  0  0  0  0  0
  -18.2685   -0.1563    0.0000 H   0  0  0  0  0  0  0  0  0  0  0  0
  -16.3401   -0.1567    0.0000 H   0  0  0  0  0  0  0  0  0  0  0  0
  -18.6030    1.7428    0.0000 C   0  0  0  0  0  0  0  0  0  0  0  0
  -17.6387    2.8917    0.0000 H   0  0  0  0  0  0  0  0  0  0  0  0
  -19.5670    2.8920    0.0000 H   0  0  0  0  0  0  0  0  0  0  0  0
  -19.9022    0.9930    0.0000 O   0  0  0  0  0  0  0  0  0  0  0  0
  -21.6168    1.9833    0.0000 C   0  0  0  0  0  0  0  0  0  0  0  0
  -20.6524    3.1322    0.0000 H   0  0  0  0  0  0  0  0  0  0  0  0
  -22.5808    3.1325    0.0000 H   0  0  0  0  0  0  0  0  0  0  0  0
  -22.9159    1.2335    0.0000 C   0  0  0  0  0  0  0  0  0  0  0  0
  -23.8803    0.0846    0.0000 H   0  0  0  0  0  0  0  0  0  0  0  0
  -21.9519    0.0842    0.0000 H   0  0  0  0  0  0  0  0  0  0  0  0
  -24.2148    1.9837    0.0000 O   0  0  0  0  0  0  0  0  0  0  0  0
  -25.9297    0.9939    0.0000 C   0  0  0  0  0  0  0  0  0  0  0  0
  -26.8941   -0.1550    0.0000 H   0  0  0  0  0  0  0  0  0  0  0  0
  -24.9657   -0.1553    0.0000 H   0  0  0  0  0  0  0  0  0  0  0  0
  -27.2286    1.7442    0.0000 C   0  0  0  0  0  0  0  0  0  0  0  0
  -26.2643    2.8931    0.0000 H   0  0  0  0  0  0  0  0  0  0  0  0
  -28.1926    2.8934    0.0000 H   0  0  0  0  0  0  0  0  0  0  0  0
  -28.9435    0.7544    0.0000 O   0  0  0  0  0  0  0  0  0  0  0  0
  -30.2424    1.5046    0.0000 C   0  0  0  0  0  0  0  0  0  0  0  0
  -29.2781    2.6535    0.0000 H   0  0  0  0  0  0  0  0  0  0  0  0
  -31.2064    2.6539    0.0000 H   0  0  0  0  0  0  0  0  0  0  0  0
  -31.5416    0.7548    0.0000 C   0  0  0  0  0  0  0  0  0  0  0  0
  -32.5060   -0.3941    0.0000 H   0  0  0  0  0  0  0  0  0  0  0  0
  -30.5776   -0.3944    0.0000 H   0  0  0  0  0  0  0  0  0  0  0  0
  -32.8405    1.5051    0.0000 O   0  0  0  0  0  0  0  0  0  0  0  0
  -34.5554    0.5153    0.0000 C   0  0  0  0  0  0  0  0  0  0  0  0
  -35.5198   -0.6336    0.0000 H   0  0  0  0  0  0  0  0  0  0  0  0
  -33.5914   -0.6339    0.0000 H   0  0  0  0  0  0  0  0  0  0  0  0
  -35.8543    1.2655    0.0000 C   0  0  0  0  0  0  0  0  0  0  0  0
  -34.8900    2.4144    0.0000 H   0  0  0  0  0  0  0  0  0  0  0  0
  -36.8183    2.4148    0.0000 H   0  0  0  0  0  0  0  0  0  0  0  0
  -37.5692    0.2758    0.0000 O   0  0  0  0  0  0  0  0  0  0  0  0
  -38.8681    1.0260    0.0000 C   0  0  0  0  0  0  0  0  0  0  0  0
  -37.9038    2.1749    0.0000 H   0  0  0  0  0  0  0  0  0  0  0  0
  -39.8321    2.1752    0.0000 H   0  0  0  0  0  0  0  0  0  0  0  0
  -40.1673    0.2762    0.0000 C   0  0  0  0  0  0  0  0  0  0  0  0
  -41.1317   -0.8727    0.0000 H   0  0  0  0  0  0  0  0  0  0  0  0
  -39.2033   -0.8730    0.0000 H   0  0  0  0  0  0  0  0  0  0  0  0
  -41.4662    1.0264    0.0000 O   0  0  0  0  0  0  0  0  0  0  0  0
  -42.7654    0.2766    0.0000 C   0  0  0  0  0  0  0  0  0  0  0  0
  -42.7656   -1.2234    0.0000 H   0  0  0  0  0  0  0  0  0  0  0  0
  -44.2426    0.0164    0.0000 H   0  0  0  0  0  0  0  0  0  0  0  0
  -43.2782    1.6863    0.0000 H   0  0  0  0  0  0  0  0  0  0  0  0
   -5.3295    3.1297    0.0000 O   0  0  0  0  0  0  0  0  0  0  0  0
   -4.8163    4.5392    0.0000 H   0  0  0  0  0  0  0  0  0  0  0  0
  1  2  1  0  0  0  0 
  1  3  1  0  0  0  0 
  1  4  1  0  0  0  0 
  1  5  1  0  0  0  0 
  5  6  1  0  0  0  0 
  5  7  1  0  0  0  0 
  5  8  1  0  0  0  0 
  8  9  1  0  0  0  0 
  8 10  1  0  0  0  0 
  8 11  1  0  0  0  0 
 11 12  1  0  0  0  0 
 11 13  1  0  0  0  0 
 11 14  1  0  0  0  0 
 14 15  1  0  0  0  0 
 14 16  1  0  0  0  0 
 16 17  2  0  0  0  0 
 17 18  1  0  0  0  0 
 17 19  1  0  0  0  0 
 19 20  1  0  0  0  0 
 19 21  2  0  0  0  0 
 21 22  1  0  0  0  0 
 22 23  1  0  0  0  0 
 22 24  2  0  0  0  0 
 16 24  1  0  0  0  0 
 24 25  1  0  0  0  0 
 21 26  1  0  0  0  0 
 26 27  2  0  0  0  0 
 26 28  1  0  0  0  0 
 28 29  1  0  0  0  0 
 29 30  1  0  0  0  0 
 29 31  1  0  0  0  0 
 31 32  1  0  0  0  0 
 31 33  1  0  0  0  0 
 31 34  1  0  0  0  0 
 34 35  1  0  0  0  0 
 35 36  1  0  0  0  0 
 35 37  1  0  0  0  0 
 35 38  1  0  0  0  0 
 38 39  1  0  0  0  0 
 38 40  1  0  0  0  0 
 38 41  1  0  0  0  0 
 41 42  1  0  0  0  0 
 42 43  1  0  0  0  0 
 42 44  1  0  0  0  0 
 42 45  1  0  0  0  0 
 45 46  1  0  0  0  0 
 45 47  1  0  0  0  0 
 45 48  1  0  0  0  0 
 48 49  1  0  0  0  0 
 49 50  1  0  0  0  0 
 49 51  1  0  0  0  0 
 49 52  1  0  0  0  0 
 52 53  1  0  0  0  0 
 52 54  1  0  0  0  0 
 52 55  1  0  0  0  0 
 55 56  1  0  0  0  0 
 56 57  1  0  0  0  0 
 56 58  1  0  0  0  0 
 56 59  1  0  0  0  0 
 59 60  1  0  0  0  0 
 59 61  1  0  0  0  0 
 59 62  1  0  0  0  0 
 62 63  1  0  0  0  0 
 63 64  1  0  0  0  0 
 63 65  1  0  0  0  0 
 63 66  1  0  0  0  0 
 66 67  1  0  0  0  0 
 66 68  1  0  0  0  0 
 66 69  1  0  0  0  0 
 69 70  1  0  0  0  0 
 70 71  1  0  0  0  0 
 70 72  1  0  0  0  0 
 70 73  1  0  0  0  0 
 73 74  1  0  0  0  0 
 73 75  1  0  0  0  0 
 73 76  1  0  0  0  0 
 76 77  1  0  0  0  0 
 77 78  1  0  0  0  0 
 77 79  1  0  0  0  0 
 77 80  1  0  0  0  0 
 80 81  1  0  0  0  0 
 80 82  1  0  0  0  0 
 80 83  1  0  0  0  0 
 83 84  1  0  0  0  0 
 84 85  1  0  0  0  0 
 84 86  1  0  0  0  0 
 84 87  1  0  0  0  0 
 87 88  1  0  0  0  0 
 87 89  1  0  0  0  0 
 87 90  1  0  0  0  0 
 90 91  1  0  0  0  0 
 91 92  1  0  0  0  0 
 91 93  1  0  0  0  0 
 91 94  1  0  0  0  0 
 29 95  1  0  0  0  0 
 95 96  1  0  0  0  0 
M  END
> <Rank>
67

> <Priority_score>
0.06

> <Reaction_type>
aliphatic hydroxylation

> <Parent_ID>
18

> <Parent_InChI>
InChI=1S/C30H53NO11/c1-3-4-9-31-29-7-5-28(6-8-29)30(32)42-27-26-41-25-24-40-23-22-39-21-20-38-19-18-37-17-16-36-15-14-35-13-12-34-11-10-33-2/h5-8,31H,3-4,9-27H2,1-2H3

> <Parent_SMILES>
CCCCNc1ccc(C(=O)OCCOCCOCCOCCOCCOCCOCCOCCOCCOC)cc1

$$$$
Molecule 18_metabolite 68
  CDK     0516241031

 93 93  0  0  0  0  0  0  0  0999 V2000
    9.8734   -2.2214    0.0000 C   0  0  0  0  0  0  0  0  0  0  0  0
   11.1726   -1.4716    0.0000 H   0  0  0  0  0  0  0  0  0  0  0  0
    8.9090   -3.3703    0.0000 H   0  0  0  0  0  0  0  0  0  0  0  0
   10.8374   -3.3706    0.0000 H   0  0  0  0  0  0  0  0  0  0  0  0
    8.5745   -1.4712    0.0000 C   0  0  0  0  0  0  0  0  0  0  0  0
    9.5389   -0.3223    0.0000 H   0  0  0  0  0  0  0  0  0  0  0  0
    7.6105   -0.3219    0.0000 H   0  0  0  0  0  0  0  0  0  0  0  0
    7.2753   -2.2210    0.0000 C   0  0  0  0  0  0  0  0  0  0  0  0
    7.2751   -3.7210    0.0000 H   0  0  0  0  0  0  0  0  0  0  0  0
    5.9764   -1.4707    0.0000 C   0  0  0  0  0  0  0  0  0  0  0  0
    5.9767    0.0293    0.0000 H   0  0  0  0  0  0  0  0  0  0  0  0
    4.6773   -2.2205    0.0000 N   0  0  0  0  0  0  0  0  0  0  0  0
    4.6770   -3.7205    0.0000 H   0  0  0  0  0  0  0  0  0  0  0  0
    3.3783   -1.4703    0.0000 C   0  0  0  0  0  0  0  0  0  0  0  0
    2.0783   -2.2203    0.0000 C   0  0  0  0  0  0  0  0  0  0  0  0
    2.0783   -3.7203    0.0000 H   0  0  0  0  0  0  0  0  0  0  0  0
    0.7783   -1.4703    0.0000 C   0  0  0  0  0  0  0  0  0  0  0  0
   -0.5206   -2.2205    0.0000 H   0  0  0  0  0  0  0  0  0  0  0  0
    0.7783    0.0297    0.0000 C   0  0  0  0  0  0  0  0  0  0  0  0
    2.0783    0.7797    0.0000 C   0  0  0  0  0  0  0  0  0  0  0  0
    2.0783    2.2797    0.0000 H   0  0  0  0  0  0  0  0  0  0  0  0
    3.3783    0.0297    0.0000 C   0  0  0  0  0  0  0  0  0  0  0  0
    4.6773    0.7799    0.0000 H   0  0  0  0  0  0  0  0  0  0  0  0
   -0.5206    0.7799    0.0000 C   0  0  0  0  0  0  0  0  0  0  0  0
   -0.5203    2.2799    0.0000 O   0  0  0  0  0  0  0  0  0  0  0  0
   -1.8197    0.0301    0.0000 O   0  0  0  0  0  0  0  0  0  0  0  0
   -3.1186    0.7803    0.0000 C   0  0  0  0  0  0  0  0  0  0  0  0
   -2.1543    1.9292    0.0000 H   0  0  0  0  0  0  0  0  0  0  0  0
   -4.0826    1.9295    0.0000 H   0  0  0  0  0  0  0  0  0  0  0  0
   -4.4178    0.0305    0.0000 C   0  0  0  0  0  0  0  0  0  0  0  0
   -5.3822   -1.1184    0.0000 H   0  0  0  0  0  0  0  0  0  0  0  0
   -3.4538   -1.1187    0.0000 H   0  0  0  0  0  0  0  0  0  0  0  0
   -6.1324    1.0208    0.0000 O   0  0  0  0  0  0  0  0  0  0  0  0
   -7.4315    0.2710    0.0000 C   0  0  0  0  0  0  0  0  0  0  0  0
   -8.3959   -0.8779    0.0000 H   0  0  0  0  0  0  0  0  0  0  0  0
   -6.4675   -0.8782    0.0000 H   0  0  0  0  0  0  0  0  0  0  0  0
   -8.7305    1.0212    0.0000 C   0  0  0  0  0  0  0  0  0  0  0  0
   -7.7661    2.1701    0.0000 H   0  0  0  0  0  0  0  0  0  0  0  0
   -9.6945    2.1704    0.0000 H   0  0  0  0  0  0  0  0  0  0  0  0
  -10.0296    0.2714    0.0000 O   0  0  0  0  0  0  0  0  0  0  0  0
  -11.7442    1.2617    0.0000 C   0  0  0  0  0  0  0  0  0  0  0  0
  -10.7798    2.4106    0.0000 H   0  0  0  0  0  0  0  0  0  0  0  0
  -12.7082    2.4109    0.0000 H   0  0  0  0  0  0  0  0  0  0  0  0
  -13.0433    0.5119    0.0000 C   0  0  0  0  0  0  0  0  0  0  0  0
  -14.0077   -0.6370    0.0000 H   0  0  0  0  0  0  0  0  0  0  0  0
  -12.0793   -0.6373    0.0000 H   0  0  0  0  0  0  0  0  0  0  0  0
  -14.7579    1.5022    0.0000 O   0  0  0  0  0  0  0  0  0  0  0  0
  -16.0571    0.7524    0.0000 C   0  0  0  0  0  0  0  0  0  0  0  0
  -17.0214   -0.3965    0.0000 H   0  0  0  0  0  0  0  0  0  0  0  0
  -15.0931   -0.3969    0.0000 H   0  0  0  0  0  0  0  0  0  0  0  0
  -17.3560    1.5026    0.0000 C   0  0  0  0  0  0  0  0  0  0  0  0
  -16.3916    2.6515    0.0000 H   0  0  0  0  0  0  0  0  0  0  0  0
  -18.3200    2.6518    0.0000 H   0  0  0  0  0  0  0  0  0  0  0  0
  -18.6551    0.7528    0.0000 O   0  0  0  0  0  0  0  0  0  0  0  0
  -20.3697    1.7431    0.0000 C   0  0  0  0  0  0  0  0  0  0  0  0
  -19.4054    2.8920    0.0000 H   0  0  0  0  0  0  0  0  0  0  0  0
  -21.3337    2.8923    0.0000 H   0  0  0  0  0  0  0  0  0  0  0  0
  -21.6689    0.9933    0.0000 C   0  0  0  0  0  0  0  0  0  0  0  0
  -22.6332   -0.1556    0.0000 H   0  0  0  0  0  0  0  0  0  0  0  0
  -20.7049   -0.1560    0.0000 H   0  0  0  0  0  0  0  0  0  0  0  0
  -23.3834    1.9835    0.0000 O   0  0  0  0  0  0  0  0  0  0  0  0
  -24.6826    1.2337    0.0000 C   0  0  0  0  0  0  0  0  0  0  0  0
  -25.6470    0.0848    0.0000 H   0  0  0  0  0  0  0  0  0  0  0  0
  -23.7186    0.0845    0.0000 H   0  0  0  0  0  0  0  0  0  0  0  0
  -25.9815    1.9840    0.0000 C   0  0  0  0  0  0  0  0  0  0  0  0
  -25.0172    3.1329    0.0000 H   0  0  0  0  0  0  0  0  0  0  0  0
  -26.9455    3.1332    0.0000 H   0  0  0  0  0  0  0  0  0  0  0  0
  -27.2807    1.2342    0.0000 O   0  0  0  0  0  0  0  0  0  0  0  0
  -28.9953    2.2244    0.0000 C   0  0  0  0  0  0  0  0  0  0  0  0
  -28.0309    3.3733    0.0000 H   0  0  0  0  0  0  0  0  0  0  0  0
  -29.9593    3.3737    0.0000 H   0  0  0  0  0  0  0  0  0  0  0  0
  -30.2944    1.4746    0.0000 C   0  0  0  0  0  0  0  0  0  0  0  0
  -31.2588    0.3257    0.0000 H   0  0  0  0  0  0  0  0  0  0  0  0
  -29.3304    0.3254    0.0000 H   0  0  0  0  0  0  0  0  0  0  0  0
  -32.0090    2.4649    0.0000 O   0  0  0  0  0  0  0  0  0  0  0  0
  -33.3081    1.7151    0.0000 C   0  0  0  0  0  0  0  0  0  0  0  0
  -34.2725    0.5662    0.0000 H   0  0  0  0  0  0  0  0  0  0  0  0
  -32.3441    0.5659    0.0000 H   0  0  0  0  0  0  0  0  0  0  0  0
  -34.6071    2.4653    0.0000 C   0  0  0  0  0  0  0  0  0  0  0  0
  -33.6427    3.6142    0.0000 H   0  0  0  0  0  0  0  0  0  0  0  0
  -35.5711    3.6146    0.0000 H   0  0  0  0  0  0  0  0  0  0  0  0
  -36.3220    1.4756    0.0000 O   0  0  0  0  0  0  0  0  0  0  0  0
  -37.6209    2.2258    0.0000 C   0  0  0  0  0  0  0  0  0  0  0  0
  -36.6565    3.3747    0.0000 H   0  0  0  0  0  0  0  0  0  0  0  0
  -38.5849    3.3750    0.0000 H   0  0  0  0  0  0  0  0  0  0  0  0
  -38.9200    1.4760    0.0000 C   0  0  0  0  0  0  0  0  0  0  0  0
  -39.8844    0.3271    0.0000 H   0  0  0  0  0  0  0  0  0  0  0  0
  -37.9560    0.3268    0.0000 H   0  0  0  0  0  0  0  0  0  0  0  0
  -40.2189    2.2262    0.0000 O   0  0  0  0  0  0  0  0  0  0  0  0
  -41.5181    1.4764    0.0000 C   0  0  0  0  0  0  0  0  0  0  0  0
  -41.5183   -0.0236    0.0000 H   0  0  0  0  0  0  0  0  0  0  0  0
  -42.9954    1.2162    0.0000 H   0  0  0  0  0  0  0  0  0  0  0  0
  -42.0309    2.8861    0.0000 H   0  0  0  0  0  0  0  0  0  0  0  0
  1  2  1  0  0  0  0 
  1  3  1  0  0  0  0 
  1  4  1  0  0  0  0 
  1  5  1  0  0  0  0 
  5  6  1  0  0  0  0 
  5  7  1  0  0  0  0 
  5  8  1  0  0  0  0 
  8  9  1  4  0  0  0 
  8 10  2  0  0  0  0 
 10 11  1  0  0  0  0 
 10 12  1  0  0  0  0 
 12 13  1  0  0  0  0 
 12 14  1  0  0  0  0 
 14 15  2  0  0  0  0 
 15 16  1  0  0  0  0 
 15 17  1  0  0  0  0 
 17 18  1  0  0  0  0 
 17 19  2  0  0  0  0 
 19 20  1  0  0  0  0 
 20 21  1  0  0  0  0 
 20 22  2  0  0  0  0 
 14 22  1  0  0  0  0 
 22 23  1  0  0  0  0 
 19 24  1  0  0  0  0 
 24 25  2  0  0  0  0 
 24 26  1  0  0  0  0 
 26 27  1  0  0  0  0 
 27 28  1  0  0  0  0 
 27 29  1  0  0  0  0 
 27 30  1  0  0  0  0 
 30 31  1  0  0  0  0 
 30 32  1  0  0  0  0 
 30 33  1  0  0  0  0 
 33 34  1  0  0  0  0 
 34 35  1  0  0  0  0 
 34 36  1  0  0  0  0 
 34 37  1  0  0  0  0 
 37 38  1  0  0  0  0 
 37 39  1  0  0  0  0 
 37 40  1  0  0  0  0 
 40 41  1  0  0  0  0 
 41 42  1  0  0  0  0 
 41 43  1  0  0  0  0 
 41 44  1  0  0  0  0 
 44 45  1  0  0  0  0 
 44 46  1  0  0  0  0 
 44 47  1  0  0  0  0 
 47 48  1  0  0  0  0 
 48 49  1  0  0  0  0 
 48 50  1  0  0  0  0 
 48 51  1  0  0  0  0 
 51 52  1  0  0  0  0 
 51 53  1  0  0  0  0 
 51 54  1  0  0  0  0 
 54 55  1  0  0  0  0 
 55 56  1  0  0  0  0 
 55 57  1  0  0  0  0 
 55 58  1  0  0  0  0 
 58 59  1  0  0  0  0 
 58 60  1  0  0  0  0 
 58 61  1  0  0  0  0 
 61 62  1  0  0  0  0 
 62 63  1  0  0  0  0 
 62 64  1  0  0  0  0 
 62 65  1  0  0  0  0 
 65 66  1  0  0  0  0 
 65 67  1  0  0  0  0 
 65 68  1  0  0  0  0 
 68 69  1  0  0  0  0 
 69 70  1  0  0  0  0 
 69 71  1  0  0  0  0 
 69 72  1  0  0  0  0 
 72 73  1  0  0  0  0 
 72 74  1  0  0  0  0 
 72 75  1  0  0  0  0 
 75 76  1  0  0  0  0 
 76 77  1  0  0  0  0 
 76 78  1  0  0  0  0 
 76 79  1  0  0  0  0 
 79 80  1  0  0  0  0 
 79 81  1  0  0  0  0 
 79 82  1  0  0  0  0 
 82 83  1  0  0  0  0 
 83 84  1  0  0  0  0 
 83 85  1  0  0  0  0 
 83 86  1  0  0  0  0 
 86 87  1  0  0  0  0 
 86 88  1  0  0  0  0 
 86 89  1  0  0  0  0 
 89 90  1  0  0  0  0 
 90 91  1  0  0  0  0 
 90 92  1  0  0  0  0 
 90 93  1  0  0  0  0 
M  END
> <Rank>
68

> <Priority_score>
0.05360000000000001

> <Reaction_type>
alkyl dehydrogenation

> <Parent_ID>
18

> <Parent_InChI>
InChI=1S/C30H53NO11/c1-3-4-9-31-29-7-5-28(6-8-29)30(32)42-27-26-41-25-24-40-23-22-39-21-20-38-19-18-37-17-16-36-15-14-35-13-12-34-11-10-33-2/h5-8,31H,3-4,9-27H2,1-2H3

> <Parent_SMILES>
CCCCNc1ccc(C(=O)OCCOCCOCCOCCOCCOCCOCCOCCOCCOC)cc1

$$$$
Molecule 18_metabolite 69
  CDK     0516241031

 94 94  0  0  0  0  0  0  0  0999 V2000
  -41.5182    2.1146    0.0000 C   0  0  0  0  0  0  0  0  0  0  0  0
  -41.5179    3.6146    0.0000 H   0  0  0  0  0  0  0  0  0  0  0  0
  -42.0314    0.7051    0.0000 H   0  0  0  0  0  0  0  0  0  0  0  0
  -42.9954    2.3753    0.0000 H   0  0  0  0  0  0  0  0  0  0  0  0
  -40.2193    1.3643    0.0000 C   0  0  0  0  0  0  0  0  0  0  0  0
  -41.1836    0.2154    0.0000 H   0  0  0  0  0  0  0  0  0  0  0  0
  -39.2553    0.2151    0.0000 H   0  0  0  0  0  0  0  0  0  0  0  0
  -38.9201    2.1141    0.0000 C   0  0  0  0  0  0  0  0  0  0  0  0
  -37.9557    3.2631    0.0000 H   0  0  0  0  0  0  0  0  0  0  0  0
  -39.8841    3.2634    0.0000 H   0  0  0  0  0  0  0  0  0  0  0  0
  -37.6212    1.3639    0.0000 C   0  0  0  0  0  0  0  0  0  0  0  0
  -37.6214   -0.1361    0.0000 H   0  0  0  0  0  0  0  0  0  0  0  0
  -36.3220    2.1137    0.0000 N   0  0  0  0  0  0  0  0  0  0  0  0
  -36.3218    3.6137    0.0000 H   0  0  0  0  0  0  0  0  0  0  0  0
  -35.0231    1.3635    0.0000 C   0  0  0  0  0  0  0  0  0  0  0  0
  -33.7231    2.1135    0.0000 C   0  0  0  0  0  0  0  0  0  0  0  0
  -33.7231    3.6135    0.0000 H   0  0  0  0  0  0  0  0  0  0  0  0
  -32.4231    1.3635    0.0000 C   0  0  0  0  0  0  0  0  0  0  0  0
  -31.1242    2.1137    0.0000 H   0  0  0  0  0  0  0  0  0  0  0  0
  -32.4231   -0.1365    0.0000 C   0  0  0  0  0  0  0  0  0  0  0  0
  -33.7231   -0.8865    0.0000 C   0  0  0  0  0  0  0  0  0  0  0  0
  -33.7231   -2.3865    0.0000 H   0  0  0  0  0  0  0  0  0  0  0  0
  -35.0231   -0.1365    0.0000 C   0  0  0  0  0  0  0  0  0  0  0  0
  -36.3220   -0.8867    0.0000 H   0  0  0  0  0  0  0  0  0  0  0  0
  -31.1242   -0.8867    0.0000 C   0  0  0  0  0  0  0  0  0  0  0  0
  -31.1244   -2.3867    0.0000 O   0  0  0  0  0  0  0  0  0  0  0  0
  -29.8250   -0.1369    0.0000 O   0  0  0  0  0  0  0  0  0  0  0  0
  -28.5261   -0.8871    0.0000 C   0  0  0  0  0  0  0  0  0  0  0  0
  -29.4905   -2.0360    0.0000 H   0  0  0  0  0  0  0  0  0  0  0  0
  -27.5621   -2.0363    0.0000 H   0  0  0  0  0  0  0  0  0  0  0  0
  -27.2270   -0.1373    0.0000 C   0  0  0  0  0  0  0  0  0  0  0  0
  -26.2626    1.0116    0.0000 H   0  0  0  0  0  0  0  0  0  0  0  0
  -28.1910    1.0119    0.0000 H   0  0  0  0  0  0  0  0  0  0  0  0
  -25.5124   -1.1276    0.0000 O   0  0  0  0  0  0  0  0  0  0  0  0
  -24.2132   -0.3778    0.0000 C   0  0  0  0  0  0  0  0  0  0  0  0
  -23.2489    0.7711    0.0000 H   0  0  0  0  0  0  0  0  0  0  0  0
  -25.1772    0.7714    0.0000 H   0  0  0  0  0  0  0  0  0  0  0  0
  -22.9143   -1.1280    0.0000 C   0  0  0  0  0  0  0  0  0  0  0  0
  -23.8787   -2.2769    0.0000 H   0  0  0  0  0  0  0  0  0  0  0  0
  -21.9503   -2.2772    0.0000 H   0  0  0  0  0  0  0  0  0  0  0  0
  -21.6152   -0.3782    0.0000 O   0  0  0  0  0  0  0  0  0  0  0  0
  -19.9006   -1.3685    0.0000 C   0  0  0  0  0  0  0  0  0  0  0  0
  -20.8650   -2.5174    0.0000 H   0  0  0  0  0  0  0  0  0  0  0  0
  -18.9366   -2.5177    0.0000 H   0  0  0  0  0  0  0  0  0  0  0  0
  -18.6014   -0.6187    0.0000 C   0  0  0  0  0  0  0  0  0  0  0  0
  -17.6371    0.5302    0.0000 H   0  0  0  0  0  0  0  0  0  0  0  0
  -19.5654    0.5305    0.0000 H   0  0  0  0  0  0  0  0  0  0  0  0
  -16.8869   -1.6090    0.0000 O   0  0  0  0  0  0  0  0  0  0  0  0
  -15.5877   -0.8592    0.0000 C   0  0  0  0  0  0  0  0  0  0  0  0
  -14.6233    0.2897    0.0000 H   0  0  0  0  0  0  0  0  0  0  0  0
  -16.5517    0.2900    0.0000 H   0  0  0  0  0  0  0  0  0  0  0  0
  -14.2888   -1.6094    0.0000 C   0  0  0  0  0  0  0  0  0  0  0  0
  -15.2531   -2.7583    0.0000 H   0  0  0  0  0  0  0  0  0  0  0  0
  -13.3248   -2.7586    0.0000 H   0  0  0  0  0  0  0  0  0  0  0  0
  -12.9896   -0.8596    0.0000 O   0  0  0  0  0  0  0  0  0  0  0  0
  -11.2751   -1.8499    0.0000 C   0  0  0  0  0  0  0  0  0  0  0  0
  -12.2394   -2.9988    0.0000 H   0  0  0  0  0  0  0  0  0  0  0  0
  -10.3111   -2.9991    0.0000 H   0  0  0  0  0  0  0  0  0  0  0  0
   -9.9759   -1.1001    0.0000 C   0  0  0  0  0  0  0  0  0  0  0  0
   -9.0115    0.0488    0.0000 H   0  0  0  0  0  0  0  0  0  0  0  0
  -10.9399    0.0491    0.0000 H   0  0  0  0  0  0  0  0  0  0  0  0
   -8.2613   -2.0904    0.0000 O   0  0  0  0  0  0  0  0  0  0  0  0
   -6.9622   -1.3406    0.0000 C   0  0  0  0  0  0  0  0  0  0  0  0
   -5.9978   -0.1917    0.0000 H   0  0  0  0  0  0  0  0  0  0  0  0
   -7.9262   -0.1913    0.0000 H   0  0  0  0  0  0  0  0  0  0  0  0
   -5.6632   -2.0908    0.0000 C   0  0  0  0  0  0  0  0  0  0  0  0
   -6.6276   -3.2397    0.0000 H   0  0  0  0  0  0  0  0  0  0  0  0
   -4.6992   -3.2400    0.0000 H   0  0  0  0  0  0  0  0  0  0  0  0
   -4.3641   -1.3410    0.0000 O   0  0  0  0  0  0  0  0  0  0  0  0
   -2.6495   -2.3313    0.0000 C   0  0  0  0  0  0  0  0  0  0  0  0
   -3.6139   -3.4802    0.0000 H   0  0  0  0  0  0  0  0  0  0  0  0
   -1.6855   -3.4805    0.0000 H   0  0  0  0  0  0  0  0  0  0  0  0
   -1.3504   -1.5815    0.0000 C   0  0  0  0  0  0  0  0  0  0  0  0
   -0.3860   -0.4325    0.0000 H   0  0  0  0  0  0  0  0  0  0  0  0
   -2.3144   -0.4322    0.0000 H   0  0  0  0  0  0  0  0  0  0  0  0
    0.3642   -2.5717    0.0000 O   0  0  0  0  0  0  0  0  0  0  0  0
    1.6634   -1.8219    0.0000 C   0  0  0  0  0  0  0  0  0  0  0  0
    2.6277   -0.6730    0.0000 H   0  0  0  0  0  0  0  0  0  0  0  0
    0.6994   -0.6727    0.0000 H   0  0  0  0  0  0  0  0  0  0  0  0
    2.9623   -2.5722    0.0000 C   0  0  0  0  0  0  0  0  0  0  0  0
    1.9979   -3.7211    0.0000 H   0  0  0  0  0  0  0  0  0  0  0  0
    3.9263   -3.7214    0.0000 H   0  0  0  0  0  0  0  0  0  0  0  0
    4.6772   -1.5824    0.0000 O   0  0  0  0  0  0  0  0  0  0  0  0
    5.9761   -2.3326    0.0000 C   0  0  0  0  0  0  0  0  0  0  0  0
    5.0117   -3.4815    0.0000 H   0  0  0  0  0  0  0  0  0  0  0  0
    6.9401   -3.4819    0.0000 H   0  0  0  0  0  0  0  0  0  0  0  0
    7.2753   -1.5828    0.0000 C   0  0  0  0  0  0  0  0  0  0  0  0
    8.2396   -0.4339    0.0000 H   0  0  0  0  0  0  0  0  0  0  0  0
    6.3113   -0.4336    0.0000 H   0  0  0  0  0  0  0  0  0  0  0  0
    8.5742   -2.3331    0.0000 O   0  0  0  0  0  0  0  0  0  0  0  0
    9.8733   -1.5833    0.0000 C   0  0  0  0  0  0  0  0  0  0  0  0
    9.8736   -0.0833    0.0000 H   0  0  0  0  0  0  0  0  0  0  0  0
   11.3506   -1.3230    0.0000 H   0  0  0  0  0  0  0  0  0  0  0  0
   10.3861   -2.9929    0.0000 H   0  0  0  0  0  0  0  0  0  0  0  0
  1  2  1  0  0  0  0 
  1  3  1  0  0  0  0 
  1  4  1  0  0  0  0 
  1  5  1  0  0  0  0 
  5  6  1  0  0  0  0 
  5  7  1  0  0  0  0 
  5  8  1  0  0  0  0 
  8  9  1  0  0  0  0 
  8 10  1  0  0  0  0 
  8 11  1  0  0  0  0 
 11 12  1  4  0  0  0 
 11 13  2  0  0  0  0 
 13 14  1  0  0  0  0 
 13 15  1  0  0  0  0 
 15 16  2  0  0  0  0 
 16 17  1  0  0  0  0 
 16 18  1  0  0  0  0 
 18 19  1  0  0  0  0 
 18 20  2  0  0  0  0 
 20 21  1  0  0  0  0 
 21 22  1  0  0  0  0 
 21 23  2  0  0  0  0 
 15 23  1  0  0  0  0 
 23 24  1  0  0  0  0 
 20 25  1  0  0  0  0 
 25 26  2  0  0  0  0 
 25 27  1  0  0  0  0 
 27 28  1  0  0  0  0 
 28 29  1  0  0  0  0 
 28 30  1  0  0  0  0 
 28 31  1  0  0  0  0 
 31 32  1  0  0  0  0 
 31 33  1  0  0  0  0 
 31 34  1  0  0  0  0 
 34 35  1  0  0  0  0 
 35 36  1  0  0  0  0 
 35 37  1  0  0  0  0 
 35 38  1  0  0  0  0 
 38 39  1  0  0  0  0 
 38 40  1  0  0  0  0 
 38 41  1  0  0  0  0 
 41 42  1  0  0  0  0 
 42 43  1  0  0  0  0 
 42 44  1  0  0  0  0 
 42 45  1  0  0  0  0 
 45 46  1  0  0  0  0 
 45 47  1  0  0  0  0 
 45 48  1  0  0  0  0 
 48 49  1  0  0  0  0 
 49 50  1  0  0  0  0 
 49 51  1  0  0  0  0 
 49 52  1  0  0  0  0 
 52 53  1  0  0  0  0 
 52 54  1  0  0  0  0 
 52 55  1  0  0  0  0 
 55 56  1  0  0  0  0 
 56 57  1  0  0  0  0 
 56 58  1  0  0  0  0 
 56 59  1  0  0  0  0 
 59 60  1  0  0  0  0 
 59 61  1  0  0  0  0 
 59 62  1  0  0  0  0 
 62 63  1  0  0  0  0 
 63 64  1  0  0  0  0 
 63 65  1  0  0  0  0 
 63 66  1  0  0  0  0 
 66 67  1  0  0  0  0 
 66 68  1  0  0  0  0 
 66 69  1  0  0  0  0 
 69 70  1  0  0  0  0 
 70 71  1  0  0  0  0 
 70 72  1  0  0  0  0 
 70 73  1  0  0  0  0 
 73 74  1  0  0  0  0 
 73 75  1  0  0  0  0 
 73 76  1  0  0  0  0 
 76 77  1  0  0  0  0 
 77 78  1  0  0  0  0 
 77 79  1  0  0  0  0 
 77 80  1  0  0  0  0 
 80 81  1  0  0  0  0 
 80 82  1  0  0  0  0 
 80 83  1  0  0  0  0 
 83 84  1  0  0  0  0 
 84 85  1  0  0  0  0 
 84 86  1  0  0  0  0 
 84 87  1  0  0  0  0 
 87 88  1  0  0  0  0 
 87 89  1  0  0  0  0 
 87 90  1  0  0  0  0 
 90 91  1  0  0  0  0 
 91 92  1  0  0  0  0 
 91 93  1  0  0  0  0 
 91 94  1  0  0  0  0 
M  CHG  1  13   1
M  END
> <Rank>
68

> <Priority_score>
0.05360000000000001

> <Reaction_type>
dehydration of N-C bond

> <Parent_ID>
18

> <Parent_InChI>
InChI=1S/C30H53NO11/c1-3-4-9-31-29-7-5-28(6-8-29)30(32)42-27-26-41-25-24-40-23-22-39-21-20-38-19-18-37-17-16-36-15-14-35-13-12-34-11-10-33-2/h5-8,31H,3-4,9-27H2,1-2H3

> <Parent_SMILES>
CCCCNc1ccc(C(=O)OCCOCCOCCOCCOCCOCCOCCOCCOCCOC)cc1

$$$$
Molecule 18_metabolite 70
  CDK     0516241031

 93 93  0  0  0  0  0  0  0  0999 V2000
  -41.5182    2.1146    0.0000 C   0  0  0  0  0  0  0  0  0  0  0  0
  -41.5179    3.6146    0.0000 H   0  0  0  0  0  0  0  0  0  0  0  0
  -42.0314    0.7051    0.0000 H   0  0  0  0  0  0  0  0  0  0  0  0
  -42.9954    2.3753    0.0000 H   0  0  0  0  0  0  0  0  0  0  0  0
  -40.2193    1.3643    0.0000 C   0  0  0  0  0  0  0  0  0  0  0  0
  -41.1836    0.2154    0.0000 H   0  0  0  0  0  0  0  0  0  0  0  0
  -39.2553    0.2151    0.0000 H   0  0  0  0  0  0  0  0  0  0  0  0
  -38.9201    2.1141    0.0000 C   0  0  0  0  0  0  0  0  0  0  0  0
  -37.9557    3.2631    0.0000 H   0  0  0  0  0  0  0  0  0  0  0  0
  -39.8841    3.2634    0.0000 H   0  0  0  0  0  0  0  0  0  0  0  0
  -37.6212    1.3639    0.0000 C   0  0  0  0  0  0  0  0  0  0  0  0
  -37.6214   -0.1361    0.0000 H   0  0  0  0  0  0  0  0  0  0  0  0
  -36.3220    2.1137    0.0000 N   0  0  0  0  0  0  0  0  0  0  0  0
  -35.0231    1.3635    0.0000 C   0  0  0  0  0  0  0  0  0  0  0  0
  -33.7231    2.1135    0.0000 C   0  0  0  0  0  0  0  0  0  0  0  0
  -33.7231    3.6135    0.0000 H   0  0  0  0  0  0  0  0  0  0  0  0
  -32.4231    1.3635    0.0000 C   0  0  0  0  0  0  0  0  0  0  0  0
  -31.1242    2.1137    0.0000 H   0  0  0  0  0  0  0  0  0  0  0  0
  -32.4231   -0.1365    0.0000 C   0  0  0  0  0  0  0  0  0  0  0  0
  -33.7231   -0.8865    0.0000 C   0  0  0  0  0  0  0  0  0  0  0  0
  -33.7231   -2.3865    0.0000 H   0  0  0  0  0  0  0  0  0  0  0  0
  -35.0231   -0.1365    0.0000 C   0  0  0  0  0  0  0  0  0  0  0  0
  -36.3220   -0.8867    0.0000 H   0  0  0  0  0  0  0  0  0  0  0  0
  -31.1242   -0.8867    0.0000 C   0  0  0  0  0  0  0  0  0  0  0  0
  -31.1244   -2.3867    0.0000 O   0  0  0  0  0  0  0  0  0  0  0  0
  -29.8250   -0.1369    0.0000 O   0  0  0  0  0  0  0  0  0  0  0  0
  -28.5261   -0.8871    0.0000 C   0  0  0  0  0  0  0  0  0  0  0  0
  -29.4905   -2.0360    0.0000 H   0  0  0  0  0  0  0  0  0  0  0  0
  -27.5621   -2.0363    0.0000 H   0  0  0  0  0  0  0  0  0  0  0  0
  -27.2270   -0.1373    0.0000 C   0  0  0  0  0  0  0  0  0  0  0  0
  -26.2626    1.0116    0.0000 H   0  0  0  0  0  0  0  0  0  0  0  0
  -28.1910    1.0119    0.0000 H   0  0  0  0  0  0  0  0  0  0  0  0
  -25.5124   -1.1276    0.0000 O   0  0  0  0  0  0  0  0  0  0  0  0
  -24.2132   -0.3778    0.0000 C   0  0  0  0  0  0  0  0  0  0  0  0
  -23.2489    0.7711    0.0000 H   0  0  0  0  0  0  0  0  0  0  0  0
  -25.1772    0.7714    0.0000 H   0  0  0  0  0  0  0  0  0  0  0  0
  -22.9143   -1.1280    0.0000 C   0  0  0  0  0  0  0  0  0  0  0  0
  -23.8787   -2.2769    0.0000 H   0  0  0  0  0  0  0  0  0  0  0  0
  -21.9503   -2.2772    0.0000 H   0  0  0  0  0  0  0  0  0  0  0  0
  -21.6152   -0.3782    0.0000 O   0  0  0  0  0  0  0  0  0  0  0  0
  -19.9006   -1.3685    0.0000 C   0  0  0  0  0  0  0  0  0  0  0  0
  -20.8650   -2.5174    0.0000 H   0  0  0  0  0  0  0  0  0  0  0  0
  -18.9366   -2.5177    0.0000 H   0  0  0  0  0  0  0  0  0  0  0  0
  -18.6014   -0.6187    0.0000 C   0  0  0  0  0  0  0  0  0  0  0  0
  -17.6371    0.5302    0.0000 H   0  0  0  0  0  0  0  0  0  0  0  0
  -19.5654    0.5305    0.0000 H   0  0  0  0  0  0  0  0  0  0  0  0
  -16.8869   -1.6090    0.0000 O   0  0  0  0  0  0  0  0  0  0  0  0
  -15.5877   -0.8592    0.0000 C   0  0  0  0  0  0  0  0  0  0  0  0
  -14.6233    0.2897    0.0000 H   0  0  0  0  0  0  0  0  0  0  0  0
  -16.5517    0.2900    0.0000 H   0  0  0  0  0  0  0  0  0  0  0  0
  -14.2888   -1.6094    0.0000 C   0  0  0  0  0  0  0  0  0  0  0  0
  -15.2531   -2.7583    0.0000 H   0  0  0  0  0  0  0  0  0  0  0  0
  -13.3248   -2.7586    0.0000 H   0  0  0  0  0  0  0  0  0  0  0  0
  -12.9896   -0.8596    0.0000 O   0  0  0  0  0  0  0  0  0  0  0  0
  -11.2751   -1.8499    0.0000 C   0  0  0  0  0  0  0  0  0  0  0  0
  -12.2394   -2.9988    0.0000 H   0  0  0  0  0  0  0  0  0  0  0  0
  -10.3111   -2.9991    0.0000 H   0  0  0  0  0  0  0  0  0  0  0  0
   -9.9759   -1.1001    0.0000 C   0  0  0  0  0  0  0  0  0  0  0  0
   -9.0115    0.0488    0.0000 H   0  0  0  0  0  0  0  0  0  0  0  0
  -10.9399    0.0491    0.0000 H   0  0  0  0  0  0  0  0  0  0  0  0
   -8.2613   -2.0904    0.0000 O   0  0  0  0  0  0  0  0  0  0  0  0
   -6.9622   -1.3406    0.0000 C   0  0  0  0  0  0  0  0  0  0  0  0
   -5.9978   -0.1917    0.0000 H   0  0  0  0  0  0  0  0  0  0  0  0
   -7.9262   -0.1913    0.0000 H   0  0  0  0  0  0  0  0  0  0  0  0
   -5.6632   -2.0908    0.0000 C   0  0  0  0  0  0  0  0  0  0  0  0
   -6.6276   -3.2397    0.0000 H   0  0  0  0  0  0  0  0  0  0  0  0
   -4.6992   -3.2400    0.0000 H   0  0  0  0  0  0  0  0  0  0  0  0
   -4.3641   -1.3410    0.0000 O   0  0  0  0  0  0  0  0  0  0  0  0
   -2.6495   -2.3313    0.0000 C   0  0  0  0  0  0  0  0  0  0  0  0
   -3.6139   -3.4802    0.0000 H   0  0  0  0  0  0  0  0  0  0  0  0
   -1.6855   -3.4805    0.0000 H   0  0  0  0  0  0  0  0  0  0  0  0
   -1.3504   -1.5815    0.0000 C   0  0  0  0  0  0  0  0  0  0  0  0
   -0.3860   -0.4325    0.0000 H   0  0  0  0  0  0  0  0  0  0  0  0
   -2.3144   -0.4322    0.0000 H   0  0  0  0  0  0  0  0  0  0  0  0
    0.3642   -2.5717    0.0000 O   0  0  0  0  0  0  0  0  0  0  0  0
    1.6634   -1.8219    0.0000 C   0  0  0  0  0  0  0  0  0  0  0  0
    2.6277   -0.6730    0.0000 H   0  0  0  0  0  0  0  0  0  0  0  0
    0.6994   -0.6727    0.0000 H   0  0  0  0  0  0  0  0  0  0  0  0
    2.9623   -2.5722    0.0000 C   0  0  0  0  0  0  0  0  0  0  0  0
    1.9979   -3.7211    0.0000 H   0  0  0  0  0  0  0  0  0  0  0  0
    3.9263   -3.7214    0.0000 H   0  0  0  0  0  0  0  0  0  0  0  0
    4.6772   -1.5824    0.0000 O   0  0  0  0  0  0  0  0  0  0  0  0
    5.9761   -2.3326    0.0000 C   0  0  0  0  0  0  0  0  0  0  0  0
    5.0117   -3.4815    0.0000 H   0  0  0  0  0  0  0  0  0  0  0  0
    6.9401   -3.4819    0.0000 H   0  0  0  0  0  0  0  0  0  0  0  0
    7.2753   -1.5828    0.0000 C   0  0  0  0  0  0  0  0  0  0  0  0
    8.2396   -0.4339    0.0000 H   0  0  0  0  0  0  0  0  0  0  0  0
    6.3113   -0.4336    0.0000 H   0  0  0  0  0  0  0  0  0  0  0  0
    8.5742   -2.3331    0.0000 O   0  0  0  0  0  0  0  0  0  0  0  0
    9.8733   -1.5833    0.0000 C   0  0  0  0  0  0  0  0  0  0  0  0
    9.8736   -0.0833    0.0000 H   0  0  0  0  0  0  0  0  0  0  0  0
   11.3506   -1.3230    0.0000 H   0  0  0  0  0  0  0  0  0  0  0  0
   10.3861   -2.9929    0.0000 H   0  0  0  0  0  0  0  0  0  0  0  0
  1  2  1  0  0  0  0 
  1  3  1  0  0  0  0 
  1  4  1  0  0  0  0 
  1  5  1  0  0  0  0 
  5  6  1  0  0  0  0 
  5  7  1  0  0  0  0 
  5  8  1  0  0  0  0 
  8  9  1  0  0  0  0 
  8 10  1  0  0  0  0 
  8 11  1  0  0  0  0 
 11 12  1  4  0  0  0 
 11 13  2  0  0  0  0 
 13 14  1  0  0  0  0 
 14 15  2  0  0  0  0 
 15 16  1  0  0  0  0 
 15 17  1  0  0  0  0 
 17 18  1  0  0  0  0 
 17 19  2  0  0  0  0 
 19 20  1  0  0  0  0 
 20 21  1  0  0  0  0 
 20 22  2  0  0  0  0 
 14 22  1  0  0  0  0 
 22 23  1  0  0  0  0 
 19 24  1  0  0  0  0 
 24 25  2  0  0  0  0 
 24 26  1  0  0  0  0 
 26 27  1  0  0  0  0 
 27 28  1  0  0  0  0 
 27 29  1  0  0  0  0 
 27 30  1  0  0  0  0 
 30 31  1  0  0  0  0 
 30 32  1  0  0  0  0 
 30 33  1  0  0  0  0 
 33 34  1  0  0  0  0 
 34 35  1  0  0  0  0 
 34 36  1  0  0  0  0 
 34 37  1  0  0  0  0 
 37 38  1  0  0  0  0 
 37 39  1  0  0  0  0 
 37 40  1  0  0  0  0 
 40 41  1  0  0  0  0 
 41 42  1  0  0  0  0 
 41 43  1  0  0  0  0 
 41 44  1  0  0  0  0 
 44 45  1  0  0  0  0 
 44 46  1  0  0  0  0 
 44 47  1  0  0  0  0 
 47 48  1  0  0  0  0 
 48 49  1  0  0  0  0 
 48 50  1  0  0  0  0 
 48 51  1  0  0  0  0 
 51 52  1  0  0  0  0 
 51 53  1  0  0  0  0 
 51 54  1  0  0  0  0 
 54 55  1  0  0  0  0 
 55 56  1  0  0  0  0 
 55 57  1  0  0  0  0 
 55 58  1  0  0  0  0 
 58 59  1  0  0  0  0 
 58 60  1  0  0  0  0 
 58 61  1  0  0  0  0 
 61 62  1  0  0  0  0 
 62 63  1  0  0  0  0 
 62 64  1  0  0  0  0 
 62 65  1  0  0  0  0 
 65 66  1  0  0  0  0 
 65 67  1  0  0  0  0 
 65 68  1  0  0  0  0 
 68 69  1  0  0  0  0 
 69 70  1  0  0  0  0 
 69 71  1  0  0  0  0 
 69 72  1  0  0  0  0 
 72 73  1  0  0  0  0 
 72 74  1  0  0  0  0 
 72 75  1  0  0  0  0 
 75 76  1  0  0  0  0 
 76 77  1  0  0  0  0 
 76 78  1  0  0  0  0 
 76 79  1  0  0  0  0 
 79 80  1  0  0  0  0 
 79 81  1  0  0  0  0 
 79 82  1  0  0  0  0 
 82 83  1  0  0  0  0 
 83 84  1  0  0  0  0 
 83 85  1  0  0  0  0 
 83 86  1  0  0  0  0 
 86 87  1  0  0  0  0 
 86 88  1  0  0  0  0 
 86 89  1  0  0  0  0 
 89 90  1  0  0  0  0 
 90 91  1  0  0  0  0 
 90 92  1  0  0  0  0 
 90 93  1  0  0  0  0 
M  END
> <Rank>
68

> <Priority_score>
0.05360000000000001

> <Reaction_type>
dehydration of N-C bond

> <Parent_ID>
18

> <Parent_InChI>
InChI=1S/C30H53NO11/c1-3-4-9-31-29-7-5-28(6-8-29)30(32)42-27-26-41-25-24-40-23-22-39-21-20-38-19-18-37-17-16-36-15-14-35-13-12-34-11-10-33-2/h5-8,31H,3-4,9-27H2,1-2H3

> <Parent_SMILES>
CCCCNc1ccc(C(=O)OCCOCCOCCOCCOCCOCCOCCOCCOCCOC)cc1

$$$$
Molecule 18_metabolite 71
  CDK     0516241031

 93 93  0  0  0  0  0  0  0  0999 V2000
  -41.3399    2.2258    0.0000 C   0  0  0  0  0  0  0  0  0  0  0  0
  -41.3396    3.7258    0.0000 H   0  0  0  0  0  0  0  0  0  0  0  0
  -41.8531    0.8164    0.0000 H   0  0  0  0  0  0  0  0  0  0  0  0
  -42.8170    2.4865    0.0000 H   0  0  0  0  0  0  0  0  0  0  0  0
  -40.0409    1.4756    0.0000 C   0  0  0  0  0  0  0  0  0  0  0  0
  -41.0053    0.3267    0.0000 H   0  0  0  0  0  0  0  0  0  0  0  0
  -39.0769    0.3264    0.0000 H   0  0  0  0  0  0  0  0  0  0  0  0
  -38.7418    2.2254    0.0000 C   0  0  0  0  0  0  0  0  0  0  0  0
  -37.7774    3.3743    0.0000 H   0  0  0  0  0  0  0  0  0  0  0  0
  -39.7058    3.3746    0.0000 H   0  0  0  0  0  0  0  0  0  0  0  0
  -37.0272    1.2351    0.0000 C   0  0  0  0  0  0  0  0  0  0  0  0
  -37.9916    0.0862    0.0000 H   0  0  0  0  0  0  0  0  0  0  0  0
  -36.0632    0.0859    0.0000 H   0  0  0  0  0  0  0  0  0  0  0  0
  -35.7280    1.9849    0.0000 N   0  0  0  0  0  0  0  0  0  0  0  0
  -35.7278    3.4849    0.0000 H   0  0  0  0  0  0  0  0  0  0  0  0
  -34.4291    1.2347    0.0000 C   0  0  0  0  0  0  0  0  0  0  0  0
  -33.1291    1.9847    0.0000 C   0  0  0  0  0  0  0  0  0  0  0  0
  -33.1291    3.4847    0.0000 H   0  0  0  0  0  0  0  0  0  0  0  0
  -31.8291    1.2347    0.0000 C   0  0  0  0  0  0  0  0  0  0  0  0
  -30.5302    1.9849    0.0000 H   0  0  0  0  0  0  0  0  0  0  0  0
  -31.8291   -0.2653    0.0000 C   0  0  0  0  0  0  0  0  0  0  0  0
  -33.1291   -1.0153    0.0000 C   0  0  0  0  0  0  0  0  0  0  0  0
  -33.1291   -2.5153    0.0000 H   0  0  0  0  0  0  0  0  0  0  0  0
  -34.4291   -0.2653    0.0000 C   0  0  0  0  0  0  0  0  0  0  0  0
  -35.7280   -1.0155    0.0000 H   0  0  0  0  0  0  0  0  0  0  0  0
  -30.5302   -1.0155    0.0000 C   0  0  0  0  0  0  0  0  0  0  0  0
  -30.5305   -2.5155    0.0000 O   0  0  0  0  0  0  0  0  0  0  0  0
  -29.2311   -0.2657    0.0000 O   0  0  0  0  0  0  0  0  0  0  0  0
  -27.9321   -1.0159    0.0000 C   0  0  0  0  0  0  0  0  0  0  0  0
  -28.8965   -2.1648    0.0000 H   0  0  0  0  0  0  0  0  0  0  0  0
  -26.9681   -2.1651    0.0000 H   0  0  0  0  0  0  0  0  0  0  0  0
  -26.6330   -0.2661    0.0000 C   0  0  0  0  0  0  0  0  0  0  0  0
  -25.6686    0.8828    0.0000 H   0  0  0  0  0  0  0  0  0  0  0  0
  -27.5970    0.8831    0.0000 H   0  0  0  0  0  0  0  0  0  0  0  0
  -24.9184   -1.2564    0.0000 O   0  0  0  0  0  0  0  0  0  0  0  0
  -23.6192   -0.5066    0.0000 C   0  0  0  0  0  0  0  0  0  0  0  0
  -22.6549    0.6423    0.0000 H   0  0  0  0  0  0  0  0  0  0  0  0
  -24.5832    0.6426    0.0000 H   0  0  0  0  0  0  0  0  0  0  0  0
  -22.3203   -1.2568    0.0000 C   0  0  0  0  0  0  0  0  0  0  0  0
  -23.2847   -2.4057    0.0000 H   0  0  0  0  0  0  0  0  0  0  0  0
  -21.3563   -2.4060    0.0000 H   0  0  0  0  0  0  0  0  0  0  0  0
  -21.0212   -0.5070    0.0000 O   0  0  0  0  0  0  0  0  0  0  0  0
  -19.3066   -1.4973    0.0000 C   0  0  0  0  0  0  0  0  0  0  0  0
  -20.2710   -2.6462    0.0000 H   0  0  0  0  0  0  0  0  0  0  0  0
  -18.3426   -2.6465    0.0000 H   0  0  0  0  0  0  0  0  0  0  0  0
  -18.0074   -0.7475    0.0000 C   0  0  0  0  0  0  0  0  0  0  0  0
  -17.0431    0.4014    0.0000 H   0  0  0  0  0  0  0  0  0  0  0  0
  -18.9714    0.4017    0.0000 H   0  0  0  0  0  0  0  0  0  0  0  0
  -16.2929   -1.7378    0.0000 O   0  0  0  0  0  0  0  0  0  0  0  0
  -14.9937   -0.9880    0.0000 C   0  0  0  0  0  0  0  0  0  0  0  0
  -14.0293    0.1609    0.0000 H   0  0  0  0  0  0  0  0  0  0  0  0
  -15.9577    0.1612    0.0000 H   0  0  0  0  0  0  0  0  0  0  0  0
  -13.6948   -1.7382    0.0000 C   0  0  0  0  0  0  0  0  0  0  0  0
  -14.6592   -2.8871    0.0000 H   0  0  0  0  0  0  0  0  0  0  0  0
  -12.7308   -2.8874    0.0000 H   0  0  0  0  0  0  0  0  0  0  0  0
  -12.3956   -0.9884    0.0000 O   0  0  0  0  0  0  0  0  0  0  0  0
  -10.6811   -1.9787    0.0000 C   0  0  0  0  0  0  0  0  0  0  0  0
  -11.6454   -3.1276    0.0000 H   0  0  0  0  0  0  0  0  0  0  0  0
   -9.7171   -3.1279    0.0000 H   0  0  0  0  0  0  0  0  0  0  0  0
   -9.3819   -1.2289    0.0000 C   0  0  0  0  0  0  0  0  0  0  0  0
   -8.4175   -0.0800    0.0000 H   0  0  0  0  0  0  0  0  0  0  0  0
  -10.3459   -0.0797    0.0000 H   0  0  0  0  0  0  0  0  0  0  0  0
   -7.6673   -2.2192    0.0000 O   0  0  0  0  0  0  0  0  0  0  0  0
   -6.3682   -1.4694    0.0000 C   0  0  0  0  0  0  0  0  0  0  0  0
   -5.4038   -0.3205    0.0000 H   0  0  0  0  0  0  0  0  0  0  0  0
   -7.3322   -0.3201    0.0000 H   0  0  0  0  0  0  0  0  0  0  0  0
   -5.0693   -2.2196    0.0000 C   0  0  0  0  0  0  0  0  0  0  0  0
   -6.0336   -3.3685    0.0000 H   0  0  0  0  0  0  0  0  0  0  0  0
   -4.1053   -3.3688    0.0000 H   0  0  0  0  0  0  0  0  0  0  0  0
   -3.7701   -1.4698    0.0000 O   0  0  0  0  0  0  0  0  0  0  0  0
   -2.0555   -2.4601    0.0000 C   0  0  0  0  0  0  0  0  0  0  0  0
   -3.0199   -3.6090    0.0000 H   0  0  0  0  0  0  0  0  0  0  0  0
   -1.0915   -3.6093    0.0000 H   0  0  0  0  0  0  0  0  0  0  0  0
   -0.7564   -1.7103    0.0000 C   0  0  0  0  0  0  0  0  0  0  0  0
    0.2080   -0.5614    0.0000 H   0  0  0  0  0  0  0  0  0  0  0  0
   -1.7204   -0.5610    0.0000 H   0  0  0  0  0  0  0  0  0  0  0  0
    0.9582   -2.7005    0.0000 O   0  0  0  0  0  0  0  0  0  0  0  0
    2.2574   -1.9507    0.0000 C   0  0  0  0  0  0  0  0  0  0  0  0
    3.2217   -0.8018    0.0000 H   0  0  0  0  0  0  0  0  0  0  0  0
    1.2934   -0.8015    0.0000 H   0  0  0  0  0  0  0  0  0  0  0  0
    3.5563   -2.7010    0.0000 C   0  0  0  0  0  0  0  0  0  0  0  0
    2.5919   -3.8499    0.0000 H   0  0  0  0  0  0  0  0  0  0  0  0
    4.5203   -3.8502    0.0000 H   0  0  0  0  0  0  0  0  0  0  0  0
    4.8554   -1.9512    0.0000 O   0  0  0  0  0  0  0  0  0  0  0  0
    6.1544   -2.7014    0.0000 C   0  0  0  0  0  0  0  0  0  0  0  0
    6.1541   -4.2014    0.0000 H   0  0  0  0  0  0  0  0  0  0  0  0
    7.4535   -1.9516    0.0000 C   0  0  0  0  0  0  0  0  0  0  0  0
    7.4538   -0.4516    0.0000 H   0  0  0  0  0  0  0  0  0  0  0  0
    8.7524   -2.7018    0.0000 O   0  0  0  0  0  0  0  0  0  0  0  0
   10.0516   -1.9520    0.0000 C   0  0  0  0  0  0  0  0  0  0  0  0
   11.3505   -2.7022    0.0000 H   0  0  0  0  0  0  0  0  0  0  0  0
   11.0160   -0.8031    0.0000 H   0  0  0  0  0  0  0  0  0  0  0  0
    9.0876   -0.8028    0.0000 H   0  0  0  0  0  0  0  0  0  0  0  0
  1  2  1  0  0  0  0 
  1  3  1  0  0  0  0 
  1  4  1  0  0  0  0 
  1  5  1  0  0  0  0 
  5  6  1  0  0  0  0 
  5  7  1  0  0  0  0 
  5  8  1  0  0  0  0 
  8  9  1  0  0  0  0 
  8 10  1  0  0  0  0 
  8 11  1  0  0  0  0 
 11 12  1  0  0  0  0 
 11 13  1  0  0  0  0 
 11 14  1  0  0  0  0 
 14 15  1  0  0  0  0 
 14 16  1  0  0  0  0 
 16 17  2  0  0  0  0 
 17 18  1  0  0  0  0 
 17 19  1  0  0  0  0 
 19 20  1  0  0  0  0 
 19 21  2  0  0  0  0 
 21 22  1  0  0  0  0 
 22 23  1  0  0  0  0 
 22 24  2  0  0  0  0 
 16 24  1  0  0  0  0 
 24 25  1  0  0  0  0 
 21 26  1  0  0  0  0 
 26 27  2  0  0  0  0 
 26 28  1  0  0  0  0 
 28 29  1  0  0  0  0 
 29 30  1  0  0  0  0 
 29 31  1  0  0  0  0 
 29 32  1  0  0  0  0 
 32 33  1  0  0  0  0 
 32 34  1  0  0  0  0 
 32 35  1  0  0  0  0 
 35 36  1  0  0  0  0 
 36 37  1  0  0  0  0 
 36 38  1  0  0  0  0 
 36 39  1  0  0  0  0 
 39 40  1  0  0  0  0 
 39 41  1  0  0  0  0 
 39 42  1  0  0  0  0 
 42 43  1  0  0  0  0 
 43 44  1  0  0  0  0 
 43 45  1  0  0  0  0 
 43 46  1  0  0  0  0 
 46 47  1  0  0  0  0 
 46 48  1  0  0  0  0 
 46 49  1  0  0  0  0 
 49 50  1  0  0  0  0 
 50 51  1  0  0  0  0 
 50 52  1  0  0  0  0 
 50 53  1  0  0  0  0 
 53 54  1  0  0  0  0 
 53 55  1  0  0  0  0 
 53 56  1  0  0  0  0 
 56 57  1  0  0  0  0 
 57 58  1  0  0  0  0 
 57 59  1  0  0  0  0 
 57 60  1  0  0  0  0 
 60 61  1  0  0  0  0 
 60 62  1  0  0  0  0 
 60 63  1  0  0  0  0 
 63 64  1  0  0  0  0 
 64 65  1  0  0  0  0 
 64 66  1  0  0  0  0 
 64 67  1  0  0  0  0 
 67 68  1  0  0  0  0 
 67 69  1  0  0  0  0 
 67 70  1  0  0  0  0 
 70 71  1  0  0  0  0 
 71 72  1  0  0  0  0 
 71 73  1  0  0  0  0 
 71 74  1  0  0  0  0 
 74 75  1  0  0  0  0 
 74 76  1  0  0  0  0 
 74 77  1  0  0  0  0 
 77 78  1  0  0  0  0 
 78 79  1  0  0  0  0 
 78 80  1  0  0  0  0 
 78 81  1  0  0  0  0 
 81 82  1  0  0  0  0 
 81 83  1  0  0  0  0 
 81 84  1  0  0  0  0 
 84 85  1  0  0  0  0 
 85 86  1  4  0  0  0 
 85 87  2  0  0  0  0 
 87 88  1  0  0  0  0 
 87 89  1  0  0  0  0 
 89 90  1  0  0  0  0 
 90 91  1  0  0  0  0 
 90 92  1  0  0  0  0 
 90 93  1  0  0  0  0 
M  END
> <Rank>
71

> <Priority_score>
0.0344

> <Reaction_type>
alkyl dehydrogenation

> <Parent_ID>
18

> <Parent_InChI>
InChI=1S/C30H53NO11/c1-3-4-9-31-29-7-5-28(6-8-29)30(32)42-27-26-41-25-24-40-23-22-39-21-20-38-19-18-37-17-16-36-15-14-35-13-12-34-11-10-33-2/h5-8,31H,3-4,9-27H2,1-2H3

> <Parent_SMILES>
CCCCNc1ccc(C(=O)OCCOCCOCCOCCOCCOCCOCCOCCOCCOC)cc1

$$$$
Molecule 18_metabolite 72
  CDK     0516241031

 93 93  0  0  0  0  0  0  0  0999 V2000
  -42.1119    1.8750    0.0000 C   0  0  0  0  0  0  0  0  0  0  0  0
  -43.4111    1.1252    0.0000 H   0  0  0  0  0  0  0  0  0  0  0  0
  -41.1476    3.0240    0.0000 H   0  0  0  0  0  0  0  0  0  0  0  0
  -43.0759    3.0243    0.0000 H   0  0  0  0  0  0  0  0  0  0  0  0
  -40.8130    1.1248    0.0000 C   0  0  0  0  0  0  0  0  0  0  0  0
  -40.8133   -0.3752    0.0000 H   0  0  0  0  0  0  0  0  0  0  0  0
  -39.5139    1.8746    0.0000 C   0  0  0  0  0  0  0  0  0  0  0  0
  -39.5136    3.3746    0.0000 H   0  0  0  0  0  0  0  0  0  0  0  0
  -38.2149    1.1244    0.0000 C   0  0  0  0  0  0  0  0  0  0  0  0
  -39.1793   -0.0245    0.0000 H   0  0  0  0  0  0  0  0  0  0  0  0
  -37.2509   -0.0248    0.0000 H   0  0  0  0  0  0  0  0  0  0  0  0
  -36.9158    1.8742    0.0000 N   0  0  0  0  0  0  0  0  0  0  0  0
  -36.9155    3.3742    0.0000 H   0  0  0  0  0  0  0  0  0  0  0  0
  -35.6169    1.1240    0.0000 C   0  0  0  0  0  0  0  0  0  0  0  0
  -34.3169    1.8740    0.0000 C   0  0  0  0  0  0  0  0  0  0  0  0
  -34.3169    3.3740    0.0000 H   0  0  0  0  0  0  0  0  0  0  0  0
  -33.0169    1.1240    0.0000 C   0  0  0  0  0  0  0  0  0  0  0  0
  -31.7179    1.8742    0.0000 H   0  0  0  0  0  0  0  0  0  0  0  0
  -33.0169   -0.3760    0.0000 C   0  0  0  0  0  0  0  0  0  0  0  0
  -34.3169   -1.1260    0.0000 C   0  0  0  0  0  0  0  0  0  0  0  0
  -34.3169   -2.6260    0.0000 H   0  0  0  0  0  0  0  0  0  0  0  0
  -35.6169   -0.3760    0.0000 C   0  0  0  0  0  0  0  0  0  0  0  0
  -36.9158   -1.1262    0.0000 H   0  0  0  0  0  0  0  0  0  0  0  0
  -31.7179   -1.1262    0.0000 C   0  0  0  0  0  0  0  0  0  0  0  0
  -31.7182   -2.6262    0.0000 O   0  0  0  0  0  0  0  0  0  0  0  0
  -30.4188   -0.3764    0.0000 O   0  0  0  0  0  0  0  0  0  0  0  0
  -29.1199   -1.1266    0.0000 C   0  0  0  0  0  0  0  0  0  0  0  0
  -30.0842   -2.2755    0.0000 H   0  0  0  0  0  0  0  0  0  0  0  0
  -28.1559   -2.2758    0.0000 H   0  0  0  0  0  0  0  0  0  0  0  0
  -27.8207   -0.3768    0.0000 C   0  0  0  0  0  0  0  0  0  0  0  0
  -26.8563    0.7721    0.0000 H   0  0  0  0  0  0  0  0  0  0  0  0
  -28.7847    0.7724    0.0000 H   0  0  0  0  0  0  0  0  0  0  0  0
  -26.1061   -1.3671    0.0000 O   0  0  0  0  0  0  0  0  0  0  0  0
  -24.8070   -0.6173    0.0000 C   0  0  0  0  0  0  0  0  0  0  0  0
  -23.8426    0.5316    0.0000 H   0  0  0  0  0  0  0  0  0  0  0  0
  -25.7710    0.5319    0.0000 H   0  0  0  0  0  0  0  0  0  0  0  0
  -23.5081   -1.3675    0.0000 C   0  0  0  0  0  0  0  0  0  0  0  0
  -24.4724   -2.5164    0.0000 H   0  0  0  0  0  0  0  0  0  0  0  0
  -22.5441   -2.5167    0.0000 H   0  0  0  0  0  0  0  0  0  0  0  0
  -22.2089   -0.6177    0.0000 O   0  0  0  0  0  0  0  0  0  0  0  0
  -20.4943   -1.6080    0.0000 C   0  0  0  0  0  0  0  0  0  0  0  0
  -21.4587   -2.7569    0.0000 H   0  0  0  0  0  0  0  0  0  0  0  0
  -19.5303   -2.7572    0.0000 H   0  0  0  0  0  0  0  0  0  0  0  0
  -19.1952   -0.8582    0.0000 C   0  0  0  0  0  0  0  0  0  0  0  0
  -18.2308    0.2907    0.0000 H   0  0  0  0  0  0  0  0  0  0  0  0
  -20.1592    0.2910    0.0000 H   0  0  0  0  0  0  0  0  0  0  0  0
  -17.4806   -1.8485    0.0000 O   0  0  0  0  0  0  0  0  0  0  0  0
  -16.1814   -1.0987    0.0000 C   0  0  0  0  0  0  0  0  0  0  0  0
  -15.2171    0.0502    0.0000 H   0  0  0  0  0  0  0  0  0  0  0  0
  -17.1454    0.0505    0.0000 H   0  0  0  0  0  0  0  0  0  0  0  0
  -14.8825   -1.8489    0.0000 C   0  0  0  0  0  0  0  0  0  0  0  0
  -15.8469   -2.9978    0.0000 H   0  0  0  0  0  0  0  0  0  0  0  0
  -13.9185   -2.9981    0.0000 H   0  0  0  0  0  0  0  0  0  0  0  0
  -13.5834   -1.0991    0.0000 O   0  0  0  0  0  0  0  0  0  0  0  0
  -11.8688   -2.0894    0.0000 C   0  0  0  0  0  0  0  0  0  0  0  0
  -12.8332   -3.2383    0.0000 H   0  0  0  0  0  0  0  0  0  0  0  0
  -10.9048   -3.2386    0.0000 H   0  0  0  0  0  0  0  0  0  0  0  0
  -10.5696   -1.3396    0.0000 C   0  0  0  0  0  0  0  0  0  0  0  0
   -9.6053   -0.1907    0.0000 H   0  0  0  0  0  0  0  0  0  0  0  0
  -11.5336   -0.1904    0.0000 H   0  0  0  0  0  0  0  0  0  0  0  0
   -9.2707   -2.0898    0.0000 O   0  0  0  0  0  0  0  0  0  0  0  0
   -7.5558   -1.1001    0.0000 C   0  0  0  0  0  0  0  0  0  0  0  0
   -6.5915    0.0488    0.0000 H   0  0  0  0  0  0  0  0  0  0  0  0
   -8.5198    0.0491    0.0000 H   0  0  0  0  0  0  0  0  0  0  0  0
   -6.2569   -1.8503    0.0000 C   0  0  0  0  0  0  0  0  0  0  0  0
   -7.2213   -2.9992    0.0000 H   0  0  0  0  0  0  0  0  0  0  0  0
   -5.2929   -2.9995    0.0000 H   0  0  0  0  0  0  0  0  0  0  0  0
   -4.9578   -1.1005    0.0000 O   0  0  0  0  0  0  0  0  0  0  0  0
   -3.2432   -2.0908    0.0000 C   0  0  0  0  0  0  0  0  0  0  0  0
   -4.2075   -3.2397    0.0000 H   0  0  0  0  0  0  0  0  0  0  0  0
   -2.2792   -3.2400    0.0000 H   0  0  0  0  0  0  0  0  0  0  0  0
   -1.9440   -1.3410    0.0000 C   0  0  0  0  0  0  0  0  0  0  0  0
   -0.9797   -0.1921    0.0000 H   0  0  0  0  0  0  0  0  0  0  0  0
   -2.9080   -0.1918    0.0000 H   0  0  0  0  0  0  0  0  0  0  0  0
   -0.2295   -2.3313    0.0000 O   0  0  0  0  0  0  0  0  0  0  0  0
    1.0697   -1.5815    0.0000 C   0  0  0  0  0  0  0  0  0  0  0  0
    2.0341   -0.4325    0.0000 H   0  0  0  0  0  0  0  0  0  0  0  0
    0.1057   -0.4322    0.0000 H   0  0  0  0  0  0  0  0  0  0  0  0
    2.3686   -2.3317    0.0000 C   0  0  0  0  0  0  0  0  0  0  0  0
    1.4043   -3.4806    0.0000 H   0  0  0  0  0  0  0  0  0  0  0  0
    3.3326   -3.4809    0.0000 H   0  0  0  0  0  0  0  0  0  0  0  0
    4.0835   -1.3419    0.0000 O   0  0  0  0  0  0  0  0  0  0  0  0
    5.3824   -2.0922    0.0000 C   0  0  0  0  0  0  0  0  0  0  0  0
    4.4181   -3.2411    0.0000 H   0  0  0  0  0  0  0  0  0  0  0  0
    6.3464   -3.2414    0.0000 H   0  0  0  0  0  0  0  0  0  0  0  0
    6.6816   -1.3424    0.0000 C   0  0  0  0  0  0  0  0  0  0  0  0
    7.6460   -0.1934    0.0000 H   0  0  0  0  0  0  0  0  0  0  0  0
    5.7176   -0.1931    0.0000 H   0  0  0  0  0  0  0  0  0  0  0  0
    7.9805   -2.0926    0.0000 O   0  0  0  0  0  0  0  0  0  0  0  0
    9.2797   -1.3428    0.0000 C   0  0  0  0  0  0  0  0  0  0  0  0
    9.2799    0.1572    0.0000 H   0  0  0  0  0  0  0  0  0  0  0  0
   10.7569   -1.0825    0.0000 H   0  0  0  0  0  0  0  0  0  0  0  0
    9.7925   -2.7524    0.0000 H   0  0  0  0  0  0  0  0  0  0  0  0
  1  2  1  0  0  0  0 
  1  3  1  0  0  0  0 
  1  4  1  0  0  0  0 
  1  5  1  0  0  0  0 
  5  6  1  4  0  0  0 
  5  7  2  0  0  0  0 
  7  8  1  0  0  0  0 
  7  9  1  0  0  0  0 
  9 10  1  0  0  0  0 
  9 11  1  0  0  0  0 
  9 12  1  0  0  0  0 
 12 13  1  0  0  0  0 
 12 14  1  0  0  0  0 
 14 15  2  0  0  0  0 
 15 16  1  0  0  0  0 
 15 17  1  0  0  0  0 
 17 18  1  0  0  0  0 
 17 19  2  0  0  0  0 
 19 20  1  0  0  0  0 
 20 21  1  0  0  0  0 
 20 22  2  0  0  0  0 
 14 22  1  0  0  0  0 
 22 23  1  0  0  0  0 
 19 24  1  0  0  0  0 
 24 25  2  0  0  0  0 
 24 26  1  0  0  0  0 
 26 27  1  0  0  0  0 
 27 28  1  0  0  0  0 
 27 29  1  0  0  0  0 
 27 30  1  0  0  0  0 
 30 31  1  0  0  0  0 
 30 32  1  0  0  0  0 
 30 33  1  0  0  0  0 
 33 34  1  0  0  0  0 
 34 35  1  0  0  0  0 
 34 36  1  0  0  0  0 
 34 37  1  0  0  0  0 
 37 38  1  0  0  0  0 
 37 39  1  0  0  0  0 
 37 40  1  0  0  0  0 
 40 41  1  0  0  0  0 
 41 42  1  0  0  0  0 
 41 43  1  0  0  0  0 
 41 44  1  0  0  0  0 
 44 45  1  0  0  0  0 
 44 46  1  0  0  0  0 
 44 47  1  0  0  0  0 
 47 48  1  0  0  0  0 
 48 49  1  0  0  0  0 
 48 50  1  0  0  0  0 
 48 51  1  0  0  0  0 
 51 52  1  0  0  0  0 
 51 53  1  0  0  0  0 
 51 54  1  0  0  0  0 
 54 55  1  0  0  0  0 
 55 56  1  0  0  0  0 
 55 57  1  0  0  0  0 
 55 58  1  0  0  0  0 
 58 59  1  0  0  0  0 
 58 60  1  0  0  0  0 
 58 61  1  0  0  0  0 
 61 62  1  0  0  0  0 
 62 63  1  0  0  0  0 
 62 64  1  0  0  0  0 
 62 65  1  0  0  0  0 
 65 66  1  0  0  0  0 
 65 67  1  0  0  0  0 
 65 68  1  0  0  0  0 
 68 69  1  0  0  0  0 
 69 70  1  0  0  0  0 
 69 71  1  0  0  0  0 
 69 72  1  0  0  0  0 
 72 73  1  0  0  0  0 
 72 74  1  0  0  0  0 
 72 75  1  0  0  0  0 
 75 76  1  0  0  0  0 
 76 77  1  0  0  0  0 
 76 78  1  0  0  0  0 
 76 79  1  0  0  0  0 
 79 80  1  0  0  0  0 
 79 81  1  0  0  0  0 
 79 82  1  0  0  0  0 
 82 83  1  0  0  0  0 
 83 84  1  0  0  0  0 
 83 85  1  0  0  0  0 
 83 86  1  0  0  0  0 
 86 87  1  0  0  0  0 
 86 88  1  0  0  0  0 
 86 89  1  0  0  0  0 
 89 90  1  0  0  0  0 
 90 91  1  0  0  0  0 
 90 92  1  0  0  0  0 
 90 93  1  0  0  0  0 
M  END
> <Rank>
72

> <Priority_score>
0.029440674394099055

> <Reaction_type>
alkyl dehydrogenation

> <Parent_ID>
18

> <Parent_InChI>
InChI=1S/C30H53NO11/c1-3-4-9-31-29-7-5-28(6-8-29)30(32)42-27-26-41-25-24-40-23-22-39-21-20-38-19-18-37-17-16-36-15-14-35-13-12-34-11-10-33-2/h5-8,31H,3-4,9-27H2,1-2H3

> <Parent_SMILES>
CCCCNc1ccc(C(=O)OCCOCCOCCOCCOCCOCCOCCOCCOCCOC)cc1

$$$$
Molecule 18_metabolite 73
  CDK     0516241031

 93 93  0  0  0  0  0  0  0  0999 V2000
  -41.6962    2.1146    0.0000 C   0  0  0  0  0  0  0  0  0  0  0  0
  -42.9954    1.3648    0.0000 H   0  0  0  0  0  0  0  0  0  0  0  0
  -41.6960    3.6146    0.0000 H   0  0  0  0  0  0  0  0  0  0  0  0
  -40.3973    1.3643    0.0000 C   0  0  0  0  0  0  0  0  0  0  0  0
  -40.3975   -0.1357    0.0000 H   0  0  0  0  0  0  0  0  0  0  0  0
  -39.0981    2.1141    0.0000 C   0  0  0  0  0  0  0  0  0  0  0  0
  -38.1338    3.2631    0.0000 H   0  0  0  0  0  0  0  0  0  0  0  0
  -40.0621    3.2634    0.0000 H   0  0  0  0  0  0  0  0  0  0  0  0
  -37.7992    1.3639    0.0000 C   0  0  0  0  0  0  0  0  0  0  0  0
  -38.7636    0.2150    0.0000 H   0  0  0  0  0  0  0  0  0  0  0  0
  -36.8352    0.2147    0.0000 H   0  0  0  0  0  0  0  0  0  0  0  0
  -36.5000    2.1137    0.0000 N   0  0  0  0  0  0  0  0  0  0  0  0
  -36.4998    3.6137    0.0000 H   0  0  0  0  0  0  0  0  0  0  0  0
  -35.2011    1.3635    0.0000 C   0  0  0  0  0  0  0  0  0  0  0  0
  -33.9011    2.1135    0.0000 C   0  0  0  0  0  0  0  0  0  0  0  0
  -33.9011    3.6135    0.0000 H   0  0  0  0  0  0  0  0  0  0  0  0
  -32.6011    1.3635    0.0000 C   0  0  0  0  0  0  0  0  0  0  0  0
  -31.3022    2.1137    0.0000 H   0  0  0  0  0  0  0  0  0  0  0  0
  -32.6011   -0.1365    0.0000 C   0  0  0  0  0  0  0  0  0  0  0  0
  -33.9011   -0.8865    0.0000 C   0  0  0  0  0  0  0  0  0  0  0  0
  -33.9011   -2.3865    0.0000 H   0  0  0  0  0  0  0  0  0  0  0  0
  -35.2011   -0.1365    0.0000 C   0  0  0  0  0  0  0  0  0  0  0  0
  -36.5000   -0.8867    0.0000 H   0  0  0  0  0  0  0  0  0  0  0  0
  -31.3022   -0.8867    0.0000 C   0  0  0  0  0  0  0  0  0  0  0  0
  -31.3025   -2.3867    0.0000 O   0  0  0  0  0  0  0  0  0  0  0  0
  -30.0031   -0.1369    0.0000 O   0  0  0  0  0  0  0  0  0  0  0  0
  -28.7041   -0.8871    0.0000 C   0  0  0  0  0  0  0  0  0  0  0  0
  -29.6685   -2.0360    0.0000 H   0  0  0  0  0  0  0  0  0  0  0  0
  -27.7401   -2.0363    0.0000 H   0  0  0  0  0  0  0  0  0  0  0  0
  -27.4050   -0.1373    0.0000 C   0  0  0  0  0  0  0  0  0  0  0  0
  -26.4406    1.0116    0.0000 H   0  0  0  0  0  0  0  0  0  0  0  0
  -28.3690    1.0119    0.0000 H   0  0  0  0  0  0  0  0  0  0  0  0
  -25.6904   -1.1276    0.0000 O   0  0  0  0  0  0  0  0  0  0  0  0
  -24.3912   -0.3778    0.0000 C   0  0  0  0  0  0  0  0  0  0  0  0
  -23.4269    0.7711    0.0000 H   0  0  0  0  0  0  0  0  0  0  0  0
  -25.3552    0.7714    0.0000 H   0  0  0  0  0  0  0  0  0  0  0  0
  -23.0923   -1.1280    0.0000 C   0  0  0  0  0  0  0  0  0  0  0  0
  -24.0567   -2.2769    0.0000 H   0  0  0  0  0  0  0  0  0  0  0  0
  -22.1283   -2.2772    0.0000 H   0  0  0  0  0  0  0  0  0  0  0  0
  -21.7932   -0.3782    0.0000 O   0  0  0  0  0  0  0  0  0  0  0  0
  -20.0786   -1.3685    0.0000 C   0  0  0  0  0  0  0  0  0  0  0  0
  -21.0430   -2.5174    0.0000 H   0  0  0  0  0  0  0  0  0  0  0  0
  -19.1146   -2.5177    0.0000 H   0  0  0  0  0  0  0  0  0  0  0  0
  -18.7794   -0.6187    0.0000 C   0  0  0  0  0  0  0  0  0  0  0  0
  -17.8151    0.5302    0.0000 H   0  0  0  0  0  0  0  0  0  0  0  0
  -19.7434    0.5305    0.0000 H   0  0  0  0  0  0  0  0  0  0  0  0
  -17.0649   -1.6090    0.0000 O   0  0  0  0  0  0  0  0  0  0  0  0
  -15.7657   -0.8592    0.0000 C   0  0  0  0  0  0  0  0  0  0  0  0
  -14.8013    0.2897    0.0000 H   0  0  0  0  0  0  0  0  0  0  0  0
  -16.7297    0.2900    0.0000 H   0  0  0  0  0  0  0  0  0  0  0  0
  -14.4668   -1.6094    0.0000 C   0  0  0  0  0  0  0  0  0  0  0  0
  -15.4312   -2.7583    0.0000 H   0  0  0  0  0  0  0  0  0  0  0  0
  -13.5028   -2.7586    0.0000 H   0  0  0  0  0  0  0  0  0  0  0  0
  -13.1676   -0.8596    0.0000 O   0  0  0  0  0  0  0  0  0  0  0  0
  -11.4531   -1.8499    0.0000 C   0  0  0  0  0  0  0  0  0  0  0  0
  -12.4174   -2.9988    0.0000 H   0  0  0  0  0  0  0  0  0  0  0  0
  -10.4891   -2.9991    0.0000 H   0  0  0  0  0  0  0  0  0  0  0  0
  -10.1539   -1.1001    0.0000 C   0  0  0  0  0  0  0  0  0  0  0  0
   -9.1895    0.0488    0.0000 H   0  0  0  0  0  0  0  0  0  0  0  0
  -11.1179    0.0491    0.0000 H   0  0  0  0  0  0  0  0  0  0  0  0
   -8.4393   -2.0904    0.0000 O   0  0  0  0  0  0  0  0  0  0  0  0
   -7.1402   -1.3406    0.0000 C   0  0  0  0  0  0  0  0  0  0  0  0
   -6.1758   -0.1917    0.0000 H   0  0  0  0  0  0  0  0  0  0  0  0
   -8.1042   -0.1913    0.0000 H   0  0  0  0  0  0  0  0  0  0  0  0
   -5.8413   -2.0908    0.0000 C   0  0  0  0  0  0  0  0  0  0  0  0
   -6.8056   -3.2397    0.0000 H   0  0  0  0  0  0  0  0  0  0  0  0
   -4.8773   -3.2400    0.0000 H   0  0  0  0  0  0  0  0  0  0  0  0
   -4.5421   -1.3410    0.0000 O   0  0  0  0  0  0  0  0  0  0  0  0
   -2.8275   -2.3313    0.0000 C   0  0  0  0  0  0  0  0  0  0  0  0
   -3.7919   -3.4802    0.0000 H   0  0  0  0  0  0  0  0  0  0  0  0
   -1.8635   -3.4805    0.0000 H   0  0  0  0  0  0  0  0  0  0  0  0
   -1.5284   -1.5815    0.0000 C   0  0  0  0  0  0  0  0  0  0  0  0
   -0.5640   -0.4325    0.0000 H   0  0  0  0  0  0  0  0  0  0  0  0
   -2.4924   -0.4322    0.0000 H   0  0  0  0  0  0  0  0  0  0  0  0
    0.1862   -2.5717    0.0000 O   0  0  0  0  0  0  0  0  0  0  0  0
    1.4854   -1.8219    0.0000 C   0  0  0  0  0  0  0  0  0  0  0  0
    2.4497   -0.6730    0.0000 H   0  0  0  0  0  0  0  0  0  0  0  0
    0.5214   -0.6727    0.0000 H   0  0  0  0  0  0  0  0  0  0  0  0
    2.7843   -2.5722    0.0000 C   0  0  0  0  0  0  0  0  0  0  0  0
    1.8199   -3.7211    0.0000 H   0  0  0  0  0  0  0  0  0  0  0  0
    3.7483   -3.7214    0.0000 H   0  0  0  0  0  0  0  0  0  0  0  0
    4.4992   -1.5824    0.0000 O   0  0  0  0  0  0  0  0  0  0  0  0
    5.7981   -2.3326    0.0000 C   0  0  0  0  0  0  0  0  0  0  0  0
    4.8337   -3.4815    0.0000 H   0  0  0  0  0  0  0  0  0  0  0  0
    6.7621   -3.4819    0.0000 H   0  0  0  0  0  0  0  0  0  0  0  0
    7.0972   -1.5828    0.0000 C   0  0  0  0  0  0  0  0  0  0  0  0
    8.0616   -0.4339    0.0000 H   0  0  0  0  0  0  0  0  0  0  0  0
    6.1332   -0.4336    0.0000 H   0  0  0  0  0  0  0  0  0  0  0  0
    8.3962   -2.3331    0.0000 O   0  0  0  0  0  0  0  0  0  0  0  0
    9.6953   -1.5833    0.0000 C   0  0  0  0  0  0  0  0  0  0  0  0
    9.6956   -0.0833    0.0000 H   0  0  0  0  0  0  0  0  0  0  0  0
   11.1726   -1.3230    0.0000 H   0  0  0  0  0  0  0  0  0  0  0  0
   10.2081   -2.9929    0.0000 H   0  0  0  0  0  0  0  0  0  0  0  0
  1  2  1  0  0  0  0 
  1  3  1  0  0  0  0 
  1  4  2  0  0  0  0 
  4  5  1  0  0  0  0 
  4  6  1  0  0  0  0 
  6  7  1  0  0  0  0 
  6  8  1  0  0  0  0 
  6  9  1  0  0  0  0 
  9 10  1  0  0  0  0 
  9 11  1  0  0  0  0 
  9 12  1  0  0  0  0 
 12 13  1  0  0  0  0 
 12 14  1  0  0  0  0 
 14 15  2  0  0  0  0 
 15 16  1  0  0  0  0 
 15 17  1  0  0  0  0 
 17 18  1  0  0  0  0 
 17 19  2  0  0  0  0 
 19 20  1  0  0  0  0 
 20 21  1  0  0  0  0 
 20 22  2  0  0  0  0 
 14 22  1  0  0  0  0 
 22 23  1  0  0  0  0 
 19 24  1  0  0  0  0 
 24 25  2  0  0  0  0 
 24 26  1  0  0  0  0 
 26 27  1  0  0  0  0 
 27 28  1  0  0  0  0 
 27 29  1  0  0  0  0 
 27 30  1  0  0  0  0 
 30 31  1  0  0  0  0 
 30 32  1  0  0  0  0 
 30 33  1  0  0  0  0 
 33 34  1  0  0  0  0 
 34 35  1  0  0  0  0 
 34 36  1  0  0  0  0 
 34 37  1  0  0  0  0 
 37 38  1  0  0  0  0 
 37 39  1  0  0  0  0 
 37 40  1  0  0  0  0 
 40 41  1  0  0  0  0 
 41 42  1  0  0  0  0 
 41 43  1  0  0  0  0 
 41 44  1  0  0  0  0 
 44 45  1  0  0  0  0 
 44 46  1  0  0  0  0 
 44 47  1  0  0  0  0 
 47 48  1  0  0  0  0 
 48 49  1  0  0  0  0 
 48 50  1  0  0  0  0 
 48 51  1  0  0  0  0 
 51 52  1  0  0  0  0 
 51 53  1  0  0  0  0 
 51 54  1  0  0  0  0 
 54 55  1  0  0  0  0 
 55 56  1  0  0  0  0 
 55 57  1  0  0  0  0 
 55 58  1  0  0  0  0 
 58 59  1  0  0  0  0 
 58 60  1  0  0  0  0 
 58 61  1  0  0  0  0 
 61 62  1  0  0  0  0 
 62 63  1  0  0  0  0 
 62 64  1  0  0  0  0 
 62 65  1  0  0  0  0 
 65 66  1  0  0  0  0 
 65 67  1  0  0  0  0 
 65 68  1  0  0  0  0 
 68 69  1  0  0  0  0 
 69 70  1  0  0  0  0 
 69 71  1  0  0  0  0 
 69 72  1  0  0  0  0 
 72 73  1  0  0  0  0 
 72 74  1  0  0  0  0 
 72 75  1  0  0  0  0 
 75 76  1  0  0  0  0 
 76 77  1  0  0  0  0 
 76 78  1  0  0  0  0 
 76 79  1  0  0  0  0 
 79 80  1  0  0  0  0 
 79 81  1  0  0  0  0 
 79 82  1  0  0  0  0 
 82 83  1  0  0  0  0 
 83 84  1  0  0  0  0 
 83 85  1  0  0  0  0 
 83 86  1  0  0  0  0 
 86 87  1  0  0  0  0 
 86 88  1  0  0  0  0 
 86 89  1  0  0  0  0 
 89 90  1  0  0  0  0 
 90 91  1  0  0  0  0 
 90 92  1  0  0  0  0 
 90 93  1  0  0  0  0 
M  END
> <Rank>
72

> <Priority_score>
0.029440674394099055

> <Reaction_type>
alkyl dehydrogenation

> <Parent_ID>
18

> <Parent_InChI>
InChI=1S/C30H53NO11/c1-3-4-9-31-29-7-5-28(6-8-29)30(32)42-27-26-41-25-24-40-23-22-39-21-20-38-19-18-37-17-16-36-15-14-35-13-12-34-11-10-33-2/h5-8,31H,3-4,9-27H2,1-2H3

> <Parent_SMILES>
CCCCNc1ccc(C(=O)OCCOCCOCCOCCOCCOCCOCCOCCOCCOC)cc1

$$$$
Molecule 18_metabolite 74
  CDK     0516241031

 93 93  0  0  0  0  0  0  0  0999 V2000
  -41.1025    1.9840    0.0000 C   0  0  0  0  0  0  0  0  0  0  0  0
  -41.1023    3.4840    0.0000 H   0  0  0  0  0  0  0  0  0  0  0  0
  -41.6158    0.5745    0.0000 H   0  0  0  0  0  0  0  0  0  0  0  0
  -42.5797    2.2447    0.0000 H   0  0  0  0  0  0  0  0  0  0  0  0
  -39.8036    1.2337    0.0000 C   0  0  0  0  0  0  0  0  0  0  0  0
  -40.7680    0.0848    0.0000 H   0  0  0  0  0  0  0  0  0  0  0  0
  -38.8396    0.0845    0.0000 H   0  0  0  0  0  0  0  0  0  0  0  0
  -38.5045    1.9835    0.0000 C   0  0  0  0  0  0  0  0  0  0  0  0
  -37.5401    3.1325    0.0000 H   0  0  0  0  0  0  0  0  0  0  0  0
  -39.4685    3.1328    0.0000 H   0  0  0  0  0  0  0  0  0  0  0  0
  -36.7899    0.9933    0.0000 C   0  0  0  0  0  0  0  0  0  0  0  0
  -37.7542   -0.1556    0.0000 H   0  0  0  0  0  0  0  0  0  0  0  0
  -35.8259   -0.1560    0.0000 H   0  0  0  0  0  0  0  0  0  0  0  0
  -35.4907    1.7431    0.0000 N   0  0  0  0  0  0  0  0  0  0  0  0
  -35.4905    3.2431    0.0000 H   0  0  0  0  0  0  0  0  0  0  0  0
  -34.1918    0.9928    0.0000 C   0  0  0  0  0  0  0  0  0  0  0  0
  -32.8918    1.7428    0.0000 C   0  0  0  0  0  0  0  0  0  0  0  0
  -32.8918    3.2428    0.0000 H   0  0  0  0  0  0  0  0  0  0  0  0
  -31.5918    0.9928    0.0000 C   0  0  0  0  0  0  0  0  0  0  0  0
  -30.2929    1.7431    0.0000 H   0  0  0  0  0  0  0  0  0  0  0  0
  -31.5918   -0.5072    0.0000 C   0  0  0  0  0  0  0  0  0  0  0  0
  -32.8918   -1.2572    0.0000 C   0  0  0  0  0  0  0  0  0  0  0  0
  -32.8918   -2.7572    0.0000 H   0  0  0  0  0  0  0  0  0  0  0  0
  -34.1918   -0.5072    0.0000 C   0  0  0  0  0  0  0  0  0  0  0  0
  -35.4907   -1.2574    0.0000 H   0  0  0  0  0  0  0  0  0  0  0  0
  -30.2929   -1.2574    0.0000 C   0  0  0  0  0  0  0  0  0  0  0  0
  -30.2931   -2.7574    0.0000 O   0  0  0  0  0  0  0  0  0  0  0  0
  -28.9937   -0.5076    0.0000 O   0  0  0  0  0  0  0  0  0  0  0  0
  -27.6948   -1.2578    0.0000 C   0  0  0  0  0  0  0  0  0  0  0  0
  -28.6592   -2.4067    0.0000 H   0  0  0  0  0  0  0  0  0  0  0  0
  -26.7308   -2.4070    0.0000 H   0  0  0  0  0  0  0  0  0  0  0  0
  -26.3957   -0.5080    0.0000 C   0  0  0  0  0  0  0  0  0  0  0  0
  -25.4313    0.6409    0.0000 H   0  0  0  0  0  0  0  0  0  0  0  0
  -27.3597    0.6412    0.0000 H   0  0  0  0  0  0  0  0  0  0  0  0
  -24.6811   -1.4983    0.0000 O   0  0  0  0  0  0  0  0  0  0  0  0
  -23.3819   -0.7485    0.0000 C   0  0  0  0  0  0  0  0  0  0  0  0
  -22.4176    0.4004    0.0000 H   0  0  0  0  0  0  0  0  0  0  0  0
  -24.3459    0.4008    0.0000 H   0  0  0  0  0  0  0  0  0  0  0  0
  -22.0830   -1.4987    0.0000 C   0  0  0  0  0  0  0  0  0  0  0  0
  -23.0474   -2.6476    0.0000 H   0  0  0  0  0  0  0  0  0  0  0  0
  -21.1190   -2.6479    0.0000 H   0  0  0  0  0  0  0  0  0  0  0  0
  -20.7839   -0.7489    0.0000 O   0  0  0  0  0  0  0  0  0  0  0  0
  -19.0693   -1.7392    0.0000 C   0  0  0  0  0  0  0  0  0  0  0  0
  -20.0336   -2.8881    0.0000 H   0  0  0  0  0  0  0  0  0  0  0  0
  -18.1053   -2.8884    0.0000 H   0  0  0  0  0  0  0  0  0  0  0  0
  -17.7701   -0.9894    0.0000 C   0  0  0  0  0  0  0  0  0  0  0  0
  -16.8058    0.1595    0.0000 H   0  0  0  0  0  0  0  0  0  0  0  0
  -18.7341    0.1599    0.0000 H   0  0  0  0  0  0  0  0  0  0  0  0
  -16.0555   -1.9796    0.0000 O   0  0  0  0  0  0  0  0  0  0  0  0
  -14.7564   -1.2299    0.0000 C   0  0  0  0  0  0  0  0  0  0  0  0
  -13.7920   -0.0809    0.0000 H   0  0  0  0  0  0  0  0  0  0  0  0
  -15.7204   -0.0806    0.0000 H   0  0  0  0  0  0  0  0  0  0  0  0
  -13.4575   -1.9801    0.0000 C   0  0  0  0  0  0  0  0  0  0  0  0
  -14.4218   -3.1290    0.0000 H   0  0  0  0  0  0  0  0  0  0  0  0
  -12.4935   -3.1293    0.0000 H   0  0  0  0  0  0  0  0  0  0  0  0
  -12.1583   -1.2303    0.0000 O   0  0  0  0  0  0  0  0  0  0  0  0
  -10.4437   -2.2205    0.0000 C   0  0  0  0  0  0  0  0  0  0  0  0
  -11.4081   -3.3695    0.0000 H   0  0  0  0  0  0  0  0  0  0  0  0
   -9.4797   -3.3698    0.0000 H   0  0  0  0  0  0  0  0  0  0  0  0
   -9.1446   -1.4707    0.0000 C   0  0  0  0  0  0  0  0  0  0  0  0
   -8.1802   -0.3218    0.0000 H   0  0  0  0  0  0  0  0  0  0  0  0
  -10.1086   -0.3215    0.0000 H   0  0  0  0  0  0  0  0  0  0  0  0
   -7.8457   -2.2210    0.0000 O   0  0  0  0  0  0  0  0  0  0  0  0
   -6.5465   -1.4712    0.0000 C   0  0  0  0  0  0  0  0  0  0  0  0
   -6.5463    0.0288    0.0000 H   0  0  0  0  0  0  0  0  0  0  0  0
   -5.2476   -2.2214    0.0000 C   0  0  0  0  0  0  0  0  0  0  0  0
   -5.2478   -3.7214    0.0000 H   0  0  0  0  0  0  0  0  0  0  0  0
   -3.9484   -1.4716    0.0000 O   0  0  0  0  0  0  0  0  0  0  0  0
   -2.6495   -2.2218    0.0000 C   0  0  0  0  0  0  0  0  0  0  0  0
   -3.6139   -3.3707    0.0000 H   0  0  0  0  0  0  0  0  0  0  0  0
   -1.6855   -3.3710    0.0000 H   0  0  0  0  0  0  0  0  0  0  0  0
   -1.3504   -1.4720    0.0000 C   0  0  0  0  0  0  0  0  0  0  0  0
   -0.3860   -0.3231    0.0000 H   0  0  0  0  0  0  0  0  0  0  0  0
   -2.3144   -0.3228    0.0000 H   0  0  0  0  0  0  0  0  0  0  0  0
    0.3642   -2.4623    0.0000 O   0  0  0  0  0  0  0  0  0  0  0  0
    1.6634   -1.7125    0.0000 C   0  0  0  0  0  0  0  0  0  0  0  0
    2.6277   -0.5636    0.0000 H   0  0  0  0  0  0  0  0  0  0  0  0
    0.6994   -0.5633    0.0000 H   0  0  0  0  0  0  0  0  0  0  0  0
    2.9623   -2.4627    0.0000 C   0  0  0  0  0  0  0  0  0  0  0  0
    1.9979   -3.6116    0.0000 H   0  0  0  0  0  0  0  0  0  0  0  0
    3.9263   -3.6119    0.0000 H   0  0  0  0  0  0  0  0  0  0  0  0
    4.6772   -1.4730    0.0000 O   0  0  0  0  0  0  0  0  0  0  0  0
    5.9761   -2.2232    0.0000 C   0  0  0  0  0  0  0  0  0  0  0  0
    5.0117   -3.3721    0.0000 H   0  0  0  0  0  0  0  0  0  0  0  0
    6.9401   -3.3724    0.0000 H   0  0  0  0  0  0  0  0  0  0  0  0
    7.2753   -1.4734    0.0000 C   0  0  0  0  0  0  0  0  0  0  0  0
    8.2396   -0.3245    0.0000 H   0  0  0  0  0  0  0  0  0  0  0  0
    6.3113   -0.3242    0.0000 H   0  0  0  0  0  0  0  0  0  0  0  0
    8.5742   -2.2236    0.0000 O   0  0  0  0  0  0  0  0  0  0  0  0
    9.8733   -1.4738    0.0000 C   0  0  0  0  0  0  0  0  0  0  0  0
    9.8736    0.0262    0.0000 H   0  0  0  0  0  0  0  0  0  0  0  0
   11.3506   -1.2136    0.0000 H   0  0  0  0  0  0  0  0  0  0  0  0
   10.3861   -2.8834    0.0000 H   0  0  0  0  0  0  0  0  0  0  0  0
  1  2  1  0  0  0  0 
  1  3  1  0  0  0  0 
  1  4  1  0  0  0  0 
  1  5  1  0  0  0  0 
  5  6  1  0  0  0  0 
  5  7  1  0  0  0  0 
  5  8  1  0  0  0  0 
  8  9  1  0  0  0  0 
  8 10  1  0  0  0  0 
  8 11  1  0  0  0  0 
 11 12  1  0  0  0  0 
 11 13  1  0  0  0  0 
 11 14  1  0  0  0  0 
 14 15  1  0  0  0  0 
 14 16  1  0  0  0  0 
 16 17  2  0  0  0  0 
 17 18  1  0  0  0  0 
 17 19  1  0  0  0  0 
 19 20  1  0  0  0  0 
 19 21  2  0  0  0  0 
 21 22  1  0  0  0  0 
 22 23  1  0  0  0  0 
 22 24  2  0  0  0  0 
 16 24  1  0  0  0  0 
 24 25  1  0  0  0  0 
 21 26  1  0  0  0  0 
 26 27  2  0  0  0  0 
 26 28  1  0  0  0  0 
 28 29  1  0  0  0  0 
 29 30  1  0  0  0  0 
 29 31  1  0  0  0  0 
 29 32  1  0  0  0  0 
 32 33  1  0  0  0  0 
 32 34  1  0  0  0  0 
 32 35  1  0  0  0  0 
 35 36  1  0  0  0  0 
 36 37  1  0  0  0  0 
 36 38  1  0  0  0  0 
 36 39  1  0  0  0  0 
 39 40  1  0  0  0  0 
 39 41  1  0  0  0  0 
 39 42  1  0  0  0  0 
 42 43  1  0  0  0  0 
 43 44  1  0  0  0  0 
 43 45  1  0  0  0  0 
 43 46  1  0  0  0  0 
 46 47  1  0  0  0  0 
 46 48  1  0  0  0  0 
 46 49  1  0  0  0  0 
 49 50  1  0  0  0  0 
 50 51  1  0  0  0  0 
 50 52  1  0  0  0  0 
 50 53  1  0  0  0  0 
 53 54  1  0  0  0  0 
 53 55  1  0  0  0  0 
 53 56  1  0  0  0  0 
 56 57  1  0  0  0  0 
 57 58  1  0  0  0  0 
 57 59  1  0  0  0  0 
 57 60  1  0  0  0  0 
 60 61  1  0  0  0  0 
 60 62  1  0  0  0  0 
 60 63  1  0  0  0  0 
 63 64  1  0  0  0  0 
 64 65  1  4  0  0  0 
 64 66  2  0  0  0  0 
 66 67  1  0  0  0  0 
 66 68  1  0  0  0  0 
 68 69  1  0  0  0  0 
 69 70  1  0  0  0  0 
 69 71  1  0  0  0  0 
 69 72  1  0  0  0  0 
 72 73  1  0  0  0  0 
 72 74  1  0  0  0  0 
 72 75  1  0  0  0  0 
 75 76  1  0  0  0  0 
 76 77  1  0  0  0  0 
 76 78  1  0  0  0  0 
 76 79  1  0  0  0  0 
 79 80  1  0  0  0  0 
 79 81  1  0  0  0  0 
 79 82  1  0  0  0  0 
 82 83  1  0  0  0  0 
 83 84  1  0  0  0  0 
 83 85  1  0  0  0  0 
 83 86  1  0  0  0  0 
 86 87  1  0  0  0  0 
 86 88  1  0  0  0  0 
 86 89  1  0  0  0  0 
 89 90  1  0  0  0  0 
 90 91  1  0  0  0  0 
 90 92  1  0  0  0  0 
 90 93  1  0  0  0  0 
M  END
> <Rank>
74

> <Priority_score>
0.024

> <Reaction_type>
alkyl dehydrogenation

> <Parent_ID>
18

> <Parent_InChI>
InChI=1S/C30H53NO11/c1-3-4-9-31-29-7-5-28(6-8-29)30(32)42-27-26-41-25-24-40-23-22-39-21-20-38-19-18-37-17-16-36-15-14-35-13-12-34-11-10-33-2/h5-8,31H,3-4,9-27H2,1-2H3

> <Parent_SMILES>
CCCCNc1ccc(C(=O)OCCOCCOCCOCCOCCOCCOCCOCCOCCOC)cc1

$$$$
Molecule 18_metabolite 75
  CDK     0516241031

 93 93  0  0  0  0  0  0  0  0999 V2000
    9.8734   -2.2214    0.0000 C   0  0  0  0  0  0  0  0  0  0  0  0
    9.8732   -3.7214    0.0000 H   0  0  0  0  0  0  0  0  0  0  0  0
   10.3867   -0.8119    0.0000 H   0  0  0  0  0  0  0  0  0  0  0  0
   11.3506   -2.4821    0.0000 H   0  0  0  0  0  0  0  0  0  0  0  0
    8.5745   -1.4712    0.0000 C   0  0  0  0  0  0  0  0  0  0  0  0
    9.5389   -0.3223    0.0000 H   0  0  0  0  0  0  0  0  0  0  0  0
    7.6105   -0.3219    0.0000 H   0  0  0  0  0  0  0  0  0  0  0  0
    7.2753   -2.2210    0.0000 C   0  0  0  0  0  0  0  0  0  0  0  0
    6.3110   -3.3699    0.0000 H   0  0  0  0  0  0  0  0  0  0  0  0
    8.2393   -3.3702    0.0000 H   0  0  0  0  0  0  0  0  0  0  0  0
    5.5608   -1.2307    0.0000 C   0  0  0  0  0  0  0  0  0  0  0  0
    6.5251   -0.0818    0.0000 H   0  0  0  0  0  0  0  0  0  0  0  0
    4.5968   -0.0815    0.0000 H   0  0  0  0  0  0  0  0  0  0  0  0
    4.2616   -1.9805    0.0000 N   0  0  0  0  0  0  0  0  0  0  0  0
    4.2614   -3.4805    0.0000 H   0  0  0  0  0  0  0  0  0  0  0  0
    2.9627   -1.2303    0.0000 C   0  0  0  0  0  0  0  0  0  0  0  0
    1.6627   -1.9803    0.0000 C   0  0  0  0  0  0  0  0  0  0  0  0
    1.6627   -3.4803    0.0000 H   0  0  0  0  0  0  0  0  0  0  0  0
    0.3627   -1.2303    0.0000 C   0  0  0  0  0  0  0  0  0  0  0  0
   -0.9362   -1.9805    0.0000 H   0  0  0  0  0  0  0  0  0  0  0  0
    0.3627    0.2697    0.0000 C   0  0  0  0  0  0  0  0  0  0  0  0
    1.6627    1.0197    0.0000 C   0  0  0  0  0  0  0  0  0  0  0  0
    1.6627    2.5197    0.0000 H   0  0  0  0  0  0  0  0  0  0  0  0
    2.9627    0.2697    0.0000 C   0  0  0  0  0  0  0  0  0  0  0  0
    4.2616    1.0199    0.0000 H   0  0  0  0  0  0  0  0  0  0  0  0
   -0.9362    1.0199    0.0000 C   0  0  0  0  0  0  0  0  0  0  0  0
   -0.9360    2.5199    0.0000 O   0  0  0  0  0  0  0  0  0  0  0  0
   -2.2354    0.2701    0.0000 O   0  0  0  0  0  0  0  0  0  0  0  0
   -3.5343    1.0204    0.0000 C   0  0  0  0  0  0  0  0  0  0  0  0
   -2.5699    2.1693    0.0000 H   0  0  0  0  0  0  0  0  0  0  0  0
   -4.4983    2.1696    0.0000 H   0  0  0  0  0  0  0  0  0  0  0  0
   -4.8335    0.2706    0.0000 C   0  0  0  0  0  0  0  0  0  0  0  0
   -5.7978   -0.8783    0.0000 H   0  0  0  0  0  0  0  0  0  0  0  0
   -3.8695   -0.8787    0.0000 H   0  0  0  0  0  0  0  0  0  0  0  0
   -6.5480    1.2608    0.0000 O   0  0  0  0  0  0  0  0  0  0  0  0
   -7.8472    0.5110    0.0000 C   0  0  0  0  0  0  0  0  0  0  0  0
   -8.8116   -0.6379    0.0000 H   0  0  0  0  0  0  0  0  0  0  0  0
   -6.8832   -0.6382    0.0000 H   0  0  0  0  0  0  0  0  0  0  0  0
   -9.1461    1.2613    0.0000 C   0  0  0  0  0  0  0  0  0  0  0  0
   -8.1817    2.4102    0.0000 H   0  0  0  0  0  0  0  0  0  0  0  0
  -10.1101    2.4105    0.0000 H   0  0  0  0  0  0  0  0  0  0  0  0
  -10.4453    0.5115    0.0000 O   0  0  0  0  0  0  0  0  0  0  0  0
  -11.7442    1.2617    0.0000 C   0  0  0  0  0  0  0  0  0  0  0  0
  -11.7439    2.7617    0.0000 H   0  0  0  0  0  0  0  0  0  0  0  0
  -13.0433    0.5119    0.0000 C   0  0  0  0  0  0  0  0  0  0  0  0
  -13.0436   -0.9881    0.0000 H   0  0  0  0  0  0  0  0  0  0  0  0
  -14.3423    1.2621    0.0000 O   0  0  0  0  0  0  0  0  0  0  0  0
  -15.6414    0.5123    0.0000 C   0  0  0  0  0  0  0  0  0  0  0  0
  -16.6058   -0.6366    0.0000 H   0  0  0  0  0  0  0  0  0  0  0  0
  -14.6774   -0.6369    0.0000 H   0  0  0  0  0  0  0  0  0  0  0  0
  -16.9403    1.2625    0.0000 C   0  0  0  0  0  0  0  0  0  0  0  0
  -15.9760    2.4114    0.0000 H   0  0  0  0  0  0  0  0  0  0  0  0
  -17.9043    2.4117    0.0000 H   0  0  0  0  0  0  0  0  0  0  0  0
  -18.2395    0.5127    0.0000 O   0  0  0  0  0  0  0  0  0  0  0  0
  -19.9541    1.5030    0.0000 C   0  0  0  0  0  0  0  0  0  0  0  0
  -18.9897    2.6519    0.0000 H   0  0  0  0  0  0  0  0  0  0  0  0
  -20.9181    2.6522    0.0000 H   0  0  0  0  0  0  0  0  0  0  0  0
  -21.2532    0.7532    0.0000 C   0  0  0  0  0  0  0  0  0  0  0  0
  -22.2176   -0.3957    0.0000 H   0  0  0  0  0  0  0  0  0  0  0  0
  -20.2892   -0.3960    0.0000 H   0  0  0  0  0  0  0  0  0  0  0  0
  -22.9678    1.7435    0.0000 O   0  0  0  0  0  0  0  0  0  0  0  0
  -24.2670    0.9937    0.0000 C   0  0  0  0  0  0  0  0  0  0  0  0
  -25.2313   -0.1552    0.0000 H   0  0  0  0  0  0  0  0  0  0  0  0
  -23.3030   -0.1555    0.0000 H   0  0  0  0  0  0  0  0  0  0  0  0
  -25.5659    1.7439    0.0000 C   0  0  0  0  0  0  0  0  0  0  0  0
  -24.6015    2.8928    0.0000 H   0  0  0  0  0  0  0  0  0  0  0  0
  -26.5299    2.8931    0.0000 H   0  0  0  0  0  0  0  0  0  0  0  0
  -26.8650    0.9941    0.0000 O   0  0  0  0  0  0  0  0  0  0  0  0
  -28.5796    1.9844    0.0000 C   0  0  0  0  0  0  0  0  0  0  0  0
  -27.6152    3.1333    0.0000 H   0  0  0  0  0  0  0  0  0  0  0  0
  -29.5436    3.1336    0.0000 H   0  0  0  0  0  0  0  0  0  0  0  0
  -29.8788    1.2346    0.0000 C   0  0  0  0  0  0  0  0  0  0  0  0
  -30.8431    0.0857    0.0000 H   0  0  0  0  0  0  0  0  0  0  0  0
  -28.9148    0.0854    0.0000 H   0  0  0  0  0  0  0  0  0  0  0  0
  -31.5933    2.2249    0.0000 O   0  0  0  0  0  0  0  0  0  0  0  0
  -32.8925    1.4751    0.0000 C   0  0  0  0  0  0  0  0  0  0  0  0
  -33.8569    0.3261    0.0000 H   0  0  0  0  0  0  0  0  0  0  0  0
  -31.9285    0.3258    0.0000 H   0  0  0  0  0  0  0  0  0  0  0  0
  -34.1914    2.2253    0.0000 C   0  0  0  0  0  0  0  0  0  0  0  0
  -33.2270    3.3742    0.0000 H   0  0  0  0  0  0  0  0  0  0  0  0
  -35.1554    3.3745    0.0000 H   0  0  0  0  0  0  0  0  0  0  0  0
  -35.9063    1.2355    0.0000 O   0  0  0  0  0  0  0  0  0  0  0  0
  -37.2052    1.9858    0.0000 C   0  0  0  0  0  0  0  0  0  0  0  0
  -36.2408    3.1347    0.0000 H   0  0  0  0  0  0  0  0  0  0  0  0
  -38.1692    3.1350    0.0000 H   0  0  0  0  0  0  0  0  0  0  0  0
  -38.5044    1.2360    0.0000 C   0  0  0  0  0  0  0  0  0  0  0  0
  -39.4687    0.0870    0.0000 H   0  0  0  0  0  0  0  0  0  0  0  0
  -37.5404    0.0867    0.0000 H   0  0  0  0  0  0  0  0  0  0  0  0
  -39.8033    1.9862    0.0000 O   0  0  0  0  0  0  0  0  0  0  0  0
  -41.1025    1.2364    0.0000 C   0  0  0  0  0  0  0  0  0  0  0  0
  -41.1027   -0.2636    0.0000 H   0  0  0  0  0  0  0  0  0  0  0  0
  -42.5797    0.9761    0.0000 H   0  0  0  0  0  0  0  0  0  0  0  0
  -41.6153    2.6460    0.0000 H   0  0  0  0  0  0  0  0  0  0  0  0
  1  2  1  0  0  0  0 
  1  3  1  0  0  0  0 
  1  4  1  0  0  0  0 
  1  5  1  0  0  0  0 
  5  6  1  0  0  0  0 
  5  7  1  0  0  0  0 
  5  8  1  0  0  0  0 
  8  9  1  0  0  0  0 
  8 10  1  0  0  0  0 
  8 11  1  0  0  0  0 
 11 12  1  0  0  0  0 
 11 13  1  0  0  0  0 
 11 14  1  0  0  0  0 
 14 15  1  0  0  0  0 
 14 16  1  0  0  0  0 
 16 17  2  0  0  0  0 
 17 18  1  0  0  0  0 
 17 19  1  0  0  0  0 
 19 20  1  0  0  0  0 
 19 21  2  0  0  0  0 
 21 22  1  0  0  0  0 
 22 23  1  0  0  0  0 
 22 24  2  0  0  0  0 
 16 24  1  0  0  0  0 
 24 25  1  0  0  0  0 
 21 26  1  0  0  0  0 
 26 27  2  0  0  0  0 
 26 28  1  0  0  0  0 
 28 29  1  0  0  0  0 
 29 30  1  0  0  0  0 
 29 31  1  0  0  0  0 
 29 32  1  0  0  0  0 
 32 33  1  0  0  0  0 
 32 34  1  0  0  0  0 
 32 35  1  0  0  0  0 
 35 36  1  0  0  0  0 
 36 37  1  0  0  0  0 
 36 38  1  0  0  0  0 
 36 39  1  0  0  0  0 
 39 40  1  0  0  0  0 
 39 41  1  0  0  0  0 
 39 42  1  0  0  0  0 
 42 43  1  0  0  0  0 
 43 44  1  4  0  0  0 
 43 45  2  0  0  0  0 
 45 46  1  0  0  0  0 
 45 47  1  0  0  0  0 
 47 48  1  0  0  0  0 
 48 49  1  0  0  0  0 
 48 50  1  0  0  0  0 
 48 51  1  0  0  0  0 
 51 52  1  0  0  0  0 
 51 53  1  0  0  0  0 
 51 54  1  0  0  0  0 
 54 55  1  0  0  0  0 
 55 56  1  0  0  0  0 
 55 57  1  0  0  0  0 
 55 58  1  0  0  0  0 
 58 59  1  0  0  0  0 
 58 60  1  0  0  0  0 
 58 61  1  0  0  0  0 
 61 62  1  0  0  0  0 
 62 63  1  0  0  0  0 
 62 64  1  0  0  0  0 
 62 65  1  0  0  0  0 
 65 66  1  0  0  0  0 
 65 67  1  0  0  0  0 
 65 68  1  0  0  0  0 
 68 69  1  0  0  0  0 
 69 70  1  0  0  0  0 
 69 71  1  0  0  0  0 
 69 72  1  0  0  0  0 
 72 73  1  0  0  0  0 
 72 74  1  0  0  0  0 
 72 75  1  0  0  0  0 
 75 76  1  0  0  0  0 
 76 77  1  0  0  0  0 
 76 78  1  0  0  0  0 
 76 79  1  0  0  0  0 
 79 80  1  0  0  0  0 
 79 81  1  0  0  0  0 
 79 82  1  0  0  0  0 
 82 83  1  0  0  0  0 
 83 84  1  0  0  0  0 
 83 85  1  0  0  0  0 
 83 86  1  0  0  0  0 
 86 87  1  0  0  0  0 
 86 88  1  0  0  0  0 
 86 89  1  0  0  0  0 
 89 90  1  0  0  0  0 
 90 91  1  0  0  0  0 
 90 92  1  0  0  0  0 
 90 93  1  0  0  0  0 
M  END
> <Rank>
75

> <Priority_score>
0.022400000000000003

> <Reaction_type>
alkyl dehydrogenation

> <Parent_ID>
18

> <Parent_InChI>
InChI=1S/C30H53NO11/c1-3-4-9-31-29-7-5-28(6-8-29)30(32)42-27-26-41-25-24-40-23-22-39-21-20-38-19-18-37-17-16-36-15-14-35-13-12-34-11-10-33-2/h5-8,31H,3-4,9-27H2,1-2H3

> <Parent_SMILES>
CCCCNc1ccc(C(=O)OCCOCCOCCOCCOCCOCCOCCOCCOCCOC)cc1

$$$$
Molecule 18_metabolite 76
  CDK     0516241031

 93 93  0  0  0  0  0  0  0  0999 V2000
    9.4577   -2.4613    0.0000 C   0  0  0  0  0  0  0  0  0  0  0  0
    9.4574   -3.9613    0.0000 H   0  0  0  0  0  0  0  0  0  0  0  0
    9.9709   -1.0519    0.0000 H   0  0  0  0  0  0  0  0  0  0  0  0
   10.9349   -2.7220    0.0000 H   0  0  0  0  0  0  0  0  0  0  0  0
    8.1588   -1.7111    0.0000 C   0  0  0  0  0  0  0  0  0  0  0  0
    9.1231   -0.5622    0.0000 H   0  0  0  0  0  0  0  0  0  0  0  0
    7.1948   -0.5619    0.0000 H   0  0  0  0  0  0  0  0  0  0  0  0
    6.8596   -2.4609    0.0000 C   0  0  0  0  0  0  0  0  0  0  0  0
    5.8952   -3.6098    0.0000 H   0  0  0  0  0  0  0  0  0  0  0  0
    7.8236   -3.6101    0.0000 H   0  0  0  0  0  0  0  0  0  0  0  0
    5.1450   -1.4706    0.0000 C   0  0  0  0  0  0  0  0  0  0  0  0
    6.1094   -0.3217    0.0000 H   0  0  0  0  0  0  0  0  0  0  0  0
    4.1810   -0.3214    0.0000 H   0  0  0  0  0  0  0  0  0  0  0  0
    3.8459   -2.2204    0.0000 N   0  0  0  0  0  0  0  0  0  0  0  0
    3.8456   -3.7204    0.0000 H   0  0  0  0  0  0  0  0  0  0  0  0
    2.5470   -1.4702    0.0000 C   0  0  0  0  0  0  0  0  0  0  0  0
    1.2470   -2.2202    0.0000 C   0  0  0  0  0  0  0  0  0  0  0  0
    1.2470   -3.7202    0.0000 H   0  0  0  0  0  0  0  0  0  0  0  0
   -0.0530   -1.4702    0.0000 C   0  0  0  0  0  0  0  0  0  0  0  0
   -1.3520   -2.2204    0.0000 H   0  0  0  0  0  0  0  0  0  0  0  0
   -0.0530    0.0298    0.0000 C   0  0  0  0  0  0  0  0  0  0  0  0
    1.2470    0.7798    0.0000 C   0  0  0  0  0  0  0  0  0  0  0  0
    1.2470    2.2798    0.0000 H   0  0  0  0  0  0  0  0  0  0  0  0
    2.5470    0.0298    0.0000 C   0  0  0  0  0  0  0  0  0  0  0  0
    3.8459    0.7800    0.0000 H   0  0  0  0  0  0  0  0  0  0  0  0
   -1.3520    0.7800    0.0000 C   0  0  0  0  0  0  0  0  0  0  0  0
   -1.3517    2.2800    0.0000 O   0  0  0  0  0  0  0  0  0  0  0  0
   -2.6511    0.0302    0.0000 O   0  0  0  0  0  0  0  0  0  0  0  0
   -3.9500    0.7804    0.0000 C   0  0  0  0  0  0  0  0  0  0  0  0
   -2.9857    1.9293    0.0000 H   0  0  0  0  0  0  0  0  0  0  0  0
   -4.9140    1.9296    0.0000 H   0  0  0  0  0  0  0  0  0  0  0  0
   -5.2492    0.0306    0.0000 C   0  0  0  0  0  0  0  0  0  0  0  0
   -6.2136   -1.1183    0.0000 H   0  0  0  0  0  0  0  0  0  0  0  0
   -4.2852   -1.1186    0.0000 H   0  0  0  0  0  0  0  0  0  0  0  0
   -6.9638    1.0209    0.0000 O   0  0  0  0  0  0  0  0  0  0  0  0
   -8.2629    0.2711    0.0000 C   0  0  0  0  0  0  0  0  0  0  0  0
   -9.2273   -0.8778    0.0000 H   0  0  0  0  0  0  0  0  0  0  0  0
   -7.2989   -0.8781    0.0000 H   0  0  0  0  0  0  0  0  0  0  0  0
   -9.5618    1.0213    0.0000 C   0  0  0  0  0  0  0  0  0  0  0  0
   -8.5975    2.1702    0.0000 H   0  0  0  0  0  0  0  0  0  0  0  0
  -10.5258    2.1705    0.0000 H   0  0  0  0  0  0  0  0  0  0  0  0
  -10.8610    0.2715    0.0000 O   0  0  0  0  0  0  0  0  0  0  0  0
  -12.5756    1.2618    0.0000 C   0  0  0  0  0  0  0  0  0  0  0  0
  -11.6112    2.4107    0.0000 H   0  0  0  0  0  0  0  0  0  0  0  0
  -13.5396    2.4110    0.0000 H   0  0  0  0  0  0  0  0  0  0  0  0
  -13.8747    0.5120    0.0000 C   0  0  0  0  0  0  0  0  0  0  0  0
  -14.8391   -0.6369    0.0000 H   0  0  0  0  0  0  0  0  0  0  0  0
  -12.9107   -0.6372    0.0000 H   0  0  0  0  0  0  0  0  0  0  0  0
  -15.5893    1.5023    0.0000 O   0  0  0  0  0  0  0  0  0  0  0  0
  -16.8885    0.7525    0.0000 C   0  0  0  0  0  0  0  0  0  0  0  0
  -17.8528   -0.3964    0.0000 H   0  0  0  0  0  0  0  0  0  0  0  0
  -15.9245   -0.3967    0.0000 H   0  0  0  0  0  0  0  0  0  0  0  0
  -18.1874    1.5027    0.0000 C   0  0  0  0  0  0  0  0  0  0  0  0
  -17.2230    2.6516    0.0000 H   0  0  0  0  0  0  0  0  0  0  0  0
  -19.1514    2.6519    0.0000 H   0  0  0  0  0  0  0  0  0  0  0  0
  -19.4865    0.7529    0.0000 O   0  0  0  0  0  0  0  0  0  0  0  0
  -21.2011    1.7432    0.0000 C   0  0  0  0  0  0  0  0  0  0  0  0
  -20.2367    2.8921    0.0000 H   0  0  0  0  0  0  0  0  0  0  0  0
  -22.1651    2.8924    0.0000 H   0  0  0  0  0  0  0  0  0  0  0  0
  -22.5003    0.9934    0.0000 C   0  0  0  0  0  0  0  0  0  0  0  0
  -23.4646   -0.1555    0.0000 H   0  0  0  0  0  0  0  0  0  0  0  0
  -21.5363   -0.1558    0.0000 H   0  0  0  0  0  0  0  0  0  0  0  0
  -24.2148    1.9837    0.0000 O   0  0  0  0  0  0  0  0  0  0  0  0
  -25.5140    1.2339    0.0000 C   0  0  0  0  0  0  0  0  0  0  0  0
  -26.4784    0.0850    0.0000 H   0  0  0  0  0  0  0  0  0  0  0  0
  -24.5500    0.0847    0.0000 H   0  0  0  0  0  0  0  0  0  0  0  0
  -26.8129    1.9841    0.0000 C   0  0  0  0  0  0  0  0  0  0  0  0
  -25.8485    3.1330    0.0000 H   0  0  0  0  0  0  0  0  0  0  0  0
  -27.7769    3.1333    0.0000 H   0  0  0  0  0  0  0  0  0  0  0  0
  -28.1121    1.2343    0.0000 O   0  0  0  0  0  0  0  0  0  0  0  0
  -29.8266    2.2246    0.0000 C   0  0  0  0  0  0  0  0  0  0  0  0
  -28.8623    3.3735    0.0000 H   0  0  0  0  0  0  0  0  0  0  0  0
  -30.7906    3.3738    0.0000 H   0  0  0  0  0  0  0  0  0  0  0  0
  -31.1258    1.4748    0.0000 C   0  0  0  0  0  0  0  0  0  0  0  0
  -32.0902    0.3259    0.0000 H   0  0  0  0  0  0  0  0  0  0  0  0
  -30.1618    0.3256    0.0000 H   0  0  0  0  0  0  0  0  0  0  0  0
  -32.4247    2.2250    0.0000 O   0  0  0  0  0  0  0  0  0  0  0  0
  -33.7239    1.4752    0.0000 C   0  0  0  0  0  0  0  0  0  0  0  0
  -33.7241   -0.0248    0.0000 H   0  0  0  0  0  0  0  0  0  0  0  0
  -35.0228    2.2254    0.0000 C   0  0  0  0  0  0  0  0  0  0  0  0
  -35.0226    3.7254    0.0000 H   0  0  0  0  0  0  0  0  0  0  0  0
  -36.3220    1.4756    0.0000 O   0  0  0  0  0  0  0  0  0  0  0  0
  -37.6209    2.2258    0.0000 C   0  0  0  0  0  0  0  0  0  0  0  0
  -36.6565    3.3747    0.0000 H   0  0  0  0  0  0  0  0  0  0  0  0
  -38.5849    3.3750    0.0000 H   0  0  0  0  0  0  0  0  0  0  0  0
  -38.9200    1.4760    0.0000 C   0  0  0  0  0  0  0  0  0  0  0  0
  -39.8844    0.3271    0.0000 H   0  0  0  0  0  0  0  0  0  0  0  0
  -37.9560    0.3268    0.0000 H   0  0  0  0  0  0  0  0  0  0  0  0
  -40.2189    2.2262    0.0000 O   0  0  0  0  0  0  0  0  0  0  0  0
  -41.5181    1.4764    0.0000 C   0  0  0  0  0  0  0  0  0  0  0  0
  -41.5183   -0.0236    0.0000 H   0  0  0  0  0  0  0  0  0  0  0  0
  -42.9954    1.2162    0.0000 H   0  0  0  0  0  0  0  0  0  0  0  0
  -42.0309    2.8861    0.0000 H   0  0  0  0  0  0  0  0  0  0  0  0
  1  2  1  0  0  0  0 
  1  3  1  0  0  0  0 
  1  4  1  0  0  0  0 
  1  5  1  0  0  0  0 
  5  6  1  0  0  0  0 
  5  7  1  0  0  0  0 
  5  8  1  0  0  0  0 
  8  9  1  0  0  0  0 
  8 10  1  0  0  0  0 
  8 11  1  0  0  0  0 
 11 12  1  0  0  0  0 
 11 13  1  0  0  0  0 
 11 14  1  0  0  0  0 
 14 15  1  0  0  0  0 
 14 16  1  0  0  0  0 
 16 17  2  0  0  0  0 
 17 18  1  0  0  0  0 
 17 19  1  0  0  0  0 
 19 20  1  0  0  0  0 
 19 21  2  0  0  0  0 
 21 22  1  0  0  0  0 
 22 23  1  0  0  0  0 
 22 24  2  0  0  0  0 
 16 24  1  0  0  0  0 
 24 25  1  0  0  0  0 
 21 26  1  0  0  0  0 
 26 27  2  0  0  0  0 
 26 28  1  0  0  0  0 
 28 29  1  0  0  0  0 
 29 30  1  0  0  0  0 
 29 31  1  0  0  0  0 
 29 32  1  0  0  0  0 
 32 33  1  0  0  0  0 
 32 34  1  0  0  0  0 
 32 35  1  0  0  0  0 
 35 36  1  0  0  0  0 
 36 37  1  0  0  0  0 
 36 38  1  0  0  0  0 
 36 39  1  0  0  0  0 
 39 40  1  0  0  0  0 
 39 41  1  0  0  0  0 
 39 42  1  0  0  0  0 
 42 43  1  0  0  0  0 
 43 44  1  0  0  0  0 
 43 45  1  0  0  0  0 
 43 46  1  0  0  0  0 
 46 47  1  0  0  0  0 
 46 48  1  0  0  0  0 
 46 49  1  0  0  0  0 
 49 50  1  0  0  0  0 
 50 51  1  0  0  0  0 
 50 52  1  0  0  0  0 
 50 53  1  0  0  0  0 
 53 54  1  0  0  0  0 
 53 55  1  0  0  0  0 
 53 56  1  0  0  0  0 
 56 57  1  0  0  0  0 
 57 58  1  0  0  0  0 
 57 59  1  0  0  0  0 
 57 60  1  0  0  0  0 
 60 61  1  0  0  0  0 
 60 62  1  0  0  0  0 
 60 63  1  0  0  0  0 
 63 64  1  0  0  0  0 
 64 65  1  0  0  0  0 
 64 66  1  0  0  0  0 
 64 67  1  0  0  0  0 
 67 68  1  0  0  0  0 
 67 69  1  0  0  0  0 
 67 70  1  0  0  0  0 
 70 71  1  0  0  0  0 
 71 72  1  0  0  0  0 
 71 73  1  0  0  0  0 
 71 74  1  0  0  0  0 
 74 75  1  0  0  0  0 
 74 76  1  0  0  0  0 
 74 77  1  0  0  0  0 
 77 78  1  0  0  0  0 
 78 79  1  4  0  0  0 
 78 80  2  0  0  0  0 
 80 81  1  0  0  0  0 
 80 82  1  0  0  0  0 
 82 83  1  0  0  0  0 
 83 84  1  0  0  0  0 
 83 85  1  0  0  0  0 
 83 86  1  0  0  0  0 
 86 87  1  0  0  0  0 
 86 88  1  0  0  0  0 
 86 89  1  0  0  0  0 
 89 90  1  0  0  0  0 
 90 91  1  0  0  0  0 
 90 92  1  0  0  0  0 
 90 93  1  0  0  0  0 
M  END
> <Rank>
76

> <Priority_score>
0.02224067439409905

> <Reaction_type>
alkyl dehydrogenation

> <Parent_ID>
18

> <Parent_InChI>
InChI=1S/C30H53NO11/c1-3-4-9-31-29-7-5-28(6-8-29)30(32)42-27-26-41-25-24-40-23-22-39-21-20-38-19-18-37-17-16-36-15-14-35-13-12-34-11-10-33-2/h5-8,31H,3-4,9-27H2,1-2H3

> <Parent_SMILES>
CCCCNc1ccc(C(=O)OCCOCCOCCOCCOCCOCCOCCOCCOCCOC)cc1

$$$$
Molecule 18_metabolite 77
  CDK     0516241031

 93 93  0  0  0  0  0  0  0  0999 V2000
    9.8734   -2.2214    0.0000 C   0  0  0  0  0  0  0  0  0  0  0  0
    9.8732   -3.7214    0.0000 H   0  0  0  0  0  0  0  0  0  0  0  0
   10.3867   -0.8119    0.0000 H   0  0  0  0  0  0  0  0  0  0  0  0
   11.3506   -2.4821    0.0000 H   0  0  0  0  0  0  0  0  0  0  0  0
    8.5745   -1.4712    0.0000 C   0  0  0  0  0  0  0  0  0  0  0  0
    9.5389   -0.3223    0.0000 H   0  0  0  0  0  0  0  0  0  0  0  0
    7.6105   -0.3219    0.0000 H   0  0  0  0  0  0  0  0  0  0  0  0
    7.2753   -2.2210    0.0000 C   0  0  0  0  0  0  0  0  0  0  0  0
    6.3110   -3.3699    0.0000 H   0  0  0  0  0  0  0  0  0  0  0  0
    8.2393   -3.3702    0.0000 H   0  0  0  0  0  0  0  0  0  0  0  0
    5.5608   -1.2307    0.0000 C   0  0  0  0  0  0  0  0  0  0  0  0
    6.5251   -0.0818    0.0000 H   0  0  0  0  0  0  0  0  0  0  0  0
    4.5968   -0.0815    0.0000 H   0  0  0  0  0  0  0  0  0  0  0  0
    4.2616   -1.9805    0.0000 N   0  0  0  0  0  0  0  0  0  0  0  0
    4.2614   -3.4805    0.0000 H   0  0  0  0  0  0  0  0  0  0  0  0
    2.9627   -1.2303    0.0000 C   0  0  0  0  0  0  0  0  0  0  0  0
    1.6627   -1.9803    0.0000 C   0  0  0  0  0  0  0  0  0  0  0  0
    1.6627   -3.4803    0.0000 H   0  0  0  0  0  0  0  0  0  0  0  0
    0.3627   -1.2303    0.0000 C   0  0  0  0  0  0  0  0  0  0  0  0
   -0.9362   -1.9805    0.0000 H   0  0  0  0  0  0  0  0  0  0  0  0
    0.3627    0.2697    0.0000 C   0  0  0  0  0  0  0  0  0  0  0  0
    1.6627    1.0197    0.0000 C   0  0  0  0  0  0  0  0  0  0  0  0
    1.6627    2.5197    0.0000 H   0  0  0  0  0  0  0  0  0  0  0  0
    2.9627    0.2697    0.0000 C   0  0  0  0  0  0  0  0  0  0  0  0
    4.2616    1.0199    0.0000 H   0  0  0  0  0  0  0  0  0  0  0  0
   -0.9362    1.0199    0.0000 C   0  0  0  0  0  0  0  0  0  0  0  0
   -0.9360    2.5199    0.0000 O   0  0  0  0  0  0  0  0  0  0  0  0
   -2.2354    0.2701    0.0000 O   0  0  0  0  0  0  0  0  0  0  0  0
   -3.5343    1.0204    0.0000 C   0  0  0  0  0  0  0  0  0  0  0  0
   -2.5699    2.1693    0.0000 H   0  0  0  0  0  0  0  0  0  0  0  0
   -4.4983    2.1696    0.0000 H   0  0  0  0  0  0  0  0  0  0  0  0
   -4.8335    0.2706    0.0000 C   0  0  0  0  0  0  0  0  0  0  0  0
   -5.7978   -0.8783    0.0000 H   0  0  0  0  0  0  0  0  0  0  0  0
   -3.8695   -0.8787    0.0000 H   0  0  0  0  0  0  0  0  0  0  0  0
   -6.5480    1.2608    0.0000 O   0  0  0  0  0  0  0  0  0  0  0  0
   -7.8472    0.5110    0.0000 C   0  0  0  0  0  0  0  0  0  0  0  0
   -8.8116   -0.6379    0.0000 H   0  0  0  0  0  0  0  0  0  0  0  0
   -6.8832   -0.6382    0.0000 H   0  0  0  0  0  0  0  0  0  0  0  0
   -9.1461    1.2613    0.0000 C   0  0  0  0  0  0  0  0  0  0  0  0
   -8.1817    2.4102    0.0000 H   0  0  0  0  0  0  0  0  0  0  0  0
  -10.1101    2.4105    0.0000 H   0  0  0  0  0  0  0  0  0  0  0  0
  -10.4453    0.5115    0.0000 O   0  0  0  0  0  0  0  0  0  0  0  0
  -12.1598    1.5017    0.0000 C   0  0  0  0  0  0  0  0  0  0  0  0
  -11.1955    2.6507    0.0000 H   0  0  0  0  0  0  0  0  0  0  0  0
  -13.1238    2.6510    0.0000 H   0  0  0  0  0  0  0  0  0  0  0  0
  -13.4590    0.7519    0.0000 C   0  0  0  0  0  0  0  0  0  0  0  0
  -14.4234   -0.3970    0.0000 H   0  0  0  0  0  0  0  0  0  0  0  0
  -12.4950   -0.3973    0.0000 H   0  0  0  0  0  0  0  0  0  0  0  0
  -15.1736    1.7422    0.0000 O   0  0  0  0  0  0  0  0  0  0  0  0
  -16.4727    0.9924    0.0000 C   0  0  0  0  0  0  0  0  0  0  0  0
  -17.4371   -0.1565    0.0000 H   0  0  0  0  0  0  0  0  0  0  0  0
  -15.5087   -0.1568    0.0000 H   0  0  0  0  0  0  0  0  0  0  0  0
  -17.7716    1.7426    0.0000 C   0  0  0  0  0  0  0  0  0  0  0  0
  -16.8073    2.8916    0.0000 H   0  0  0  0  0  0  0  0  0  0  0  0
  -18.7356    2.8919    0.0000 H   0  0  0  0  0  0  0  0  0  0  0  0
  -19.0708    0.9928    0.0000 O   0  0  0  0  0  0  0  0  0  0  0  0
  -20.3697    1.7431    0.0000 C   0  0  0  0  0  0  0  0  0  0  0  0
  -20.3695    3.2431    0.0000 H   0  0  0  0  0  0  0  0  0  0  0  0
  -21.6689    0.9933    0.0000 C   0  0  0  0  0  0  0  0  0  0  0  0
  -21.6691   -0.5067    0.0000 H   0  0  0  0  0  0  0  0  0  0  0  0
  -22.9678    1.7435    0.0000 O   0  0  0  0  0  0  0  0  0  0  0  0
  -24.2670    0.9937    0.0000 C   0  0  0  0  0  0  0  0  0  0  0  0
  -25.2313   -0.1552    0.0000 H   0  0  0  0  0  0  0  0  0  0  0  0
  -23.3030   -0.1555    0.0000 H   0  0  0  0  0  0  0  0  0  0  0  0
  -25.5659    1.7439    0.0000 C   0  0  0  0  0  0  0  0  0  0  0  0
  -24.6015    2.8928    0.0000 H   0  0  0  0  0  0  0  0  0  0  0  0
  -26.5299    2.8931    0.0000 H   0  0  0  0  0  0  0  0  0  0  0  0
  -26.8650    0.9941    0.0000 O   0  0  0  0  0  0  0  0  0  0  0  0
  -28.5796    1.9844    0.0000 C   0  0  0  0  0  0  0  0  0  0  0  0
  -27.6152    3.1333    0.0000 H   0  0  0  0  0  0  0  0  0  0  0  0
  -29.5436    3.1336    0.0000 H   0  0  0  0  0  0  0  0  0  0  0  0
  -29.8788    1.2346    0.0000 C   0  0  0  0  0  0  0  0  0  0  0  0
  -30.8431    0.0857    0.0000 H   0  0  0  0  0  0  0  0  0  0  0  0
  -28.9148    0.0854    0.0000 H   0  0  0  0  0  0  0  0  0  0  0  0
  -31.5933    2.2249    0.0000 O   0  0  0  0  0  0  0  0  0  0  0  0
  -32.8925    1.4751    0.0000 C   0  0  0  0  0  0  0  0  0  0  0  0
  -33.8569    0.3261    0.0000 H   0  0  0  0  0  0  0  0  0  0  0  0
  -31.9285    0.3258    0.0000 H   0  0  0  0  0  0  0  0  0  0  0  0
  -34.1914    2.2253    0.0000 C   0  0  0  0  0  0  0  0  0  0  0  0
  -33.2270    3.3742    0.0000 H   0  0  0  0  0  0  0  0  0  0  0  0
  -35.1554    3.3745    0.0000 H   0  0  0  0  0  0  0  0  0  0  0  0
  -35.9063    1.2355    0.0000 O   0  0  0  0  0  0  0  0  0  0  0  0
  -37.2052    1.9858    0.0000 C   0  0  0  0  0  0  0  0  0  0  0  0
  -36.2408    3.1347    0.0000 H   0  0  0  0  0  0  0  0  0  0  0  0
  -38.1692    3.1350    0.0000 H   0  0  0  0  0  0  0  0  0  0  0  0
  -38.5044    1.2360    0.0000 C   0  0  0  0  0  0  0  0  0  0  0  0
  -39.4687    0.0870    0.0000 H   0  0  0  0  0  0  0  0  0  0  0  0
  -37.5404    0.0867    0.0000 H   0  0  0  0  0  0  0  0  0  0  0  0
  -39.8033    1.9862    0.0000 O   0  0  0  0  0  0  0  0  0  0  0  0
  -41.1025    1.2364    0.0000 C   0  0  0  0  0  0  0  0  0  0  0  0
  -41.1027   -0.2636    0.0000 H   0  0  0  0  0  0  0  0  0  0  0  0
  -42.5797    0.9761    0.0000 H   0  0  0  0  0  0  0  0  0  0  0  0
  -41.6153    2.6460    0.0000 H   0  0  0  0  0  0  0  0  0  0  0  0
  1  2  1  0  0  0  0 
  1  3  1  0  0  0  0 
  1  4  1  0  0  0  0 
  1  5  1  0  0  0  0 
  5  6  1  0  0  0  0 
  5  7  1  0  0  0  0 
  5  8  1  0  0  0  0 
  8  9  1  0  0  0  0 
  8 10  1  0  0  0  0 
  8 11  1  0  0  0  0 
 11 12  1  0  0  0  0 
 11 13  1  0  0  0  0 
 11 14  1  0  0  0  0 
 14 15  1  0  0  0  0 
 14 16  1  0  0  0  0 
 16 17  2  0  0  0  0 
 17 18  1  0  0  0  0 
 17 19  1  0  0  0  0 
 19 20  1  0  0  0  0 
 19 21  2  0  0  0  0 
 21 22  1  0  0  0  0 
 22 23  1  0  0  0  0 
 22 24  2  0  0  0  0 
 16 24  1  0  0  0  0 
 24 25  1  0  0  0  0 
 21 26  1  0  0  0  0 
 26 27  2  0  0  0  0 
 26 28  1  0  0  0  0 
 28 29  1  0  0  0  0 
 29 30  1  0  0  0  0 
 29 31  1  0  0  0  0 
 29 32  1  0  0  0  0 
 32 33  1  0  0  0  0 
 32 34  1  0  0  0  0 
 32 35  1  0  0  0  0 
 35 36  1  0  0  0  0 
 36 37  1  0  0  0  0 
 36 38  1  0  0  0  0 
 36 39  1  0  0  0  0 
 39 40  1  0  0  0  0 
 39 41  1  0  0  0  0 
 39 42  1  0  0  0  0 
 42 43  1  0  0  0  0 
 43 44  1  0  0  0  0 
 43 45  1  0  0  0  0 
 43 46  1  0  0  0  0 
 46 47  1  0  0  0  0 
 46 48  1  0  0  0  0 
 46 49  1  0  0  0  0 
 49 50  1  0  0  0  0 
 50 51  1  0  0  0  0 
 50 52  1  0  0  0  0 
 50 53  1  0  0  0  0 
 53 54  1  0  0  0  0 
 53 55  1  0  0  0  0 
 53 56  1  0  0  0  0 
 56 57  1  0  0  0  0 
 57 58  1  4  0  0  0 
 57 59  2  0  0  0  0 
 59 60  1  0  0  0  0 
 59 61  1  0  0  0  0 
 61 62  1  0  0  0  0 
 62 63  1  0  0  0  0 
 62 64  1  0  0  0  0 
 62 65  1  0  0  0  0 
 65 66  1  0  0  0  0 
 65 67  1  0  0  0  0 
 65 68  1  0  0  0  0 
 68 69  1  0  0  0  0 
 69 70  1  0  0  0  0 
 69 71  1  0  0  0  0 
 69 72  1  0  0  0  0 
 72 73  1  0  0  0  0 
 72 74  1  0  0  0  0 
 72 75  1  0  0  0  0 
 75 76  1  0  0  0  0 
 76 77  1  0  0  0  0 
 76 78  1  0  0  0  0 
 76 79  1  0  0  0  0 
 79 80  1  0  0  0  0 
 79 81  1  0  0  0  0 
 79 82  1  0  0  0  0 
 82 83  1  0  0  0  0 
 83 84  1  0  0  0  0 
 83 85  1  0  0  0  0 
 83 86  1  0  0  0  0 
 86 87  1  0  0  0  0 
 86 88  1  0  0  0  0 
 86 89  1  0  0  0  0 
 89 90  1  0  0  0  0 
 90 91  1  0  0  0  0 
 90 92  1  0  0  0  0 
 90 93  1  0  0  0  0 
M  END
> <Rank>
77

> <Priority_score>
0.0216

> <Reaction_type>
alkyl dehydrogenation

> <Parent_ID>
18

> <Parent_InChI>
InChI=1S/C30H53NO11/c1-3-4-9-31-29-7-5-28(6-8-29)30(32)42-27-26-41-25-24-40-23-22-39-21-20-38-19-18-37-17-16-36-15-14-35-13-12-34-11-10-33-2/h5-8,31H,3-4,9-27H2,1-2H3

> <Parent_SMILES>
CCCCNc1ccc(C(=O)OCCOCCOCCOCCOCCOCCOCCOCCOCCOC)cc1

$$$$
Molecule 18_metabolite 78
  CDK     0516241031

 93 93  0  0  0  0  0  0  0  0999 V2000
  -40.6870    1.7425    0.0000 C   0  0  0  0  0  0  0  0  0  0  0  0
  -40.6867    3.2425    0.0000 H   0  0  0  0  0  0  0  0  0  0  0  0
  -41.2002    0.3330    0.0000 H   0  0  0  0  0  0  0  0  0  0  0  0
  -42.1641    2.0032    0.0000 H   0  0  0  0  0  0  0  0  0  0  0  0
  -39.3880    0.9923    0.0000 C   0  0  0  0  0  0  0  0  0  0  0  0
  -40.3524   -0.1566    0.0000 H   0  0  0  0  0  0  0  0  0  0  0  0
  -38.4240   -0.1569    0.0000 H   0  0  0  0  0  0  0  0  0  0  0  0
  -38.0889    1.7421    0.0000 C   0  0  0  0  0  0  0  0  0  0  0  0
  -37.1245    2.8910    0.0000 H   0  0  0  0  0  0  0  0  0  0  0  0
  -39.0529    2.8913    0.0000 H   0  0  0  0  0  0  0  0  0  0  0  0
  -36.3743    0.7518    0.0000 C   0  0  0  0  0  0  0  0  0  0  0  0
  -37.3387   -0.3971    0.0000 H   0  0  0  0  0  0  0  0  0  0  0  0
  -35.4103   -0.3974    0.0000 H   0  0  0  0  0  0  0  0  0  0  0  0
  -35.0751    1.5016    0.0000 N   0  0  0  0  0  0  0  0  0  0  0  0
  -35.0749    3.0016    0.0000 H   0  0  0  0  0  0  0  0  0  0  0  0
  -33.7762    0.7514    0.0000 C   0  0  0  0  0  0  0  0  0  0  0  0
  -32.4762    1.5014    0.0000 C   0  0  0  0  0  0  0  0  0  0  0  0
  -32.4762    3.0014    0.0000 H   0  0  0  0  0  0  0  0  0  0  0  0
  -31.1762    0.7514    0.0000 C   0  0  0  0  0  0  0  0  0  0  0  0
  -29.8773    1.5016    0.0000 H   0  0  0  0  0  0  0  0  0  0  0  0
  -31.1762   -0.7486    0.0000 C   0  0  0  0  0  0  0  0  0  0  0  0
  -32.4762   -1.4986    0.0000 C   0  0  0  0  0  0  0  0  0  0  0  0
  -32.4762   -2.9986    0.0000 H   0  0  0  0  0  0  0  0  0  0  0  0
  -33.7762   -0.7486    0.0000 C   0  0  0  0  0  0  0  0  0  0  0  0
  -35.0751   -1.4988    0.0000 H   0  0  0  0  0  0  0  0  0  0  0  0
  -29.8773   -1.4988    0.0000 C   0  0  0  0  0  0  0  0  0  0  0  0
  -29.8776   -2.9988    0.0000 O   0  0  0  0  0  0  0  0  0  0  0  0
  -28.5782   -0.7490    0.0000 O   0  0  0  0  0  0  0  0  0  0  0  0
  -27.2792   -1.4992    0.0000 C   0  0  0  0  0  0  0  0  0  0  0  0
  -28.2436   -2.6481    0.0000 H   0  0  0  0  0  0  0  0  0  0  0  0
  -26.3152   -2.6484    0.0000 H   0  0  0  0  0  0  0  0  0  0  0  0
  -25.9801   -0.7494    0.0000 C   0  0  0  0  0  0  0  0  0  0  0  0
  -25.0157    0.3995    0.0000 H   0  0  0  0  0  0  0  0  0  0  0  0
  -26.9441    0.3998    0.0000 H   0  0  0  0  0  0  0  0  0  0  0  0
  -24.2655   -1.7397    0.0000 O   0  0  0  0  0  0  0  0  0  0  0  0
  -22.9664   -0.9899    0.0000 C   0  0  0  0  0  0  0  0  0  0  0  0
  -22.0020    0.1590    0.0000 H   0  0  0  0  0  0  0  0  0  0  0  0
  -23.9303    0.1593    0.0000 H   0  0  0  0  0  0  0  0  0  0  0  0
  -21.6674   -1.7401    0.0000 C   0  0  0  0  0  0  0  0  0  0  0  0
  -22.6318   -2.8890    0.0000 H   0  0  0  0  0  0  0  0  0  0  0  0
  -20.7034   -2.8893    0.0000 H   0  0  0  0  0  0  0  0  0  0  0  0
  -19.9525   -0.7504    0.0000 O   0  0  0  0  0  0  0  0  0  0  0  0
  -18.6536   -1.5006    0.0000 C   0  0  0  0  0  0  0  0  0  0  0  0
  -19.6180   -2.6495    0.0000 H   0  0  0  0  0  0  0  0  0  0  0  0
  -17.6896   -2.6498    0.0000 H   0  0  0  0  0  0  0  0  0  0  0  0
  -17.3545   -0.7508    0.0000 C   0  0  0  0  0  0  0  0  0  0  0  0
  -16.3901    0.3981    0.0000 H   0  0  0  0  0  0  0  0  0  0  0  0
  -18.3185    0.3984    0.0000 H   0  0  0  0  0  0  0  0  0  0  0  0
  -16.0555   -1.5010    0.0000 O   0  0  0  0  0  0  0  0  0  0  0  0
  -14.7564   -0.7512    0.0000 C   0  0  0  0  0  0  0  0  0  0  0  0
  -14.7562    0.7488    0.0000 H   0  0  0  0  0  0  0  0  0  0  0  0
  -13.4575   -1.5014    0.0000 C   0  0  0  0  0  0  0  0  0  0  0  0
  -13.4577   -3.0014    0.0000 H   0  0  0  0  0  0  0  0  0  0  0  0
  -12.1583   -0.7516    0.0000 O   0  0  0  0  0  0  0  0  0  0  0  0
  -10.8594   -1.5019    0.0000 C   0  0  0  0  0  0  0  0  0  0  0  0
  -11.8238   -2.6508    0.0000 H   0  0  0  0  0  0  0  0  0  0  0  0
   -9.8954   -2.6511    0.0000 H   0  0  0  0  0  0  0  0  0  0  0  0
   -9.5602   -0.7521    0.0000 C   0  0  0  0  0  0  0  0  0  0  0  0
   -8.5959    0.3968    0.0000 H   0  0  0  0  0  0  0  0  0  0  0  0
  -10.5242    0.3972    0.0000 H   0  0  0  0  0  0  0  0  0  0  0  0
   -8.2613   -1.5023    0.0000 O   0  0  0  0  0  0  0  0  0  0  0  0
   -6.5464   -0.5125    0.0000 C   0  0  0  0  0  0  0  0  0  0  0  0
   -5.5821    0.6364    0.0000 H   0  0  0  0  0  0  0  0  0  0  0  0
   -7.5104    0.6367    0.0000 H   0  0  0  0  0  0  0  0  0  0  0  0
   -5.2475   -1.2628    0.0000 C   0  0  0  0  0  0  0  0  0  0  0  0
   -6.2119   -2.4117    0.0000 H   0  0  0  0  0  0  0  0  0  0  0  0
   -4.2835   -2.4120    0.0000 H   0  0  0  0  0  0  0  0  0  0  0  0
   -3.5326   -0.2730    0.0000 O   0  0  0  0  0  0  0  0  0  0  0  0
   -2.2337   -1.0232    0.0000 C   0  0  0  0  0  0  0  0  0  0  0  0
   -3.1981   -2.1722    0.0000 H   0  0  0  0  0  0  0  0  0  0  0  0
   -1.2697   -2.1725    0.0000 H   0  0  0  0  0  0  0  0  0  0  0  0
   -0.9345   -0.2734    0.0000 C   0  0  0  0  0  0  0  0  0  0  0  0
    0.0298    0.8755    0.0000 H   0  0  0  0  0  0  0  0  0  0  0  0
   -1.8985    0.8758    0.0000 H   0  0  0  0  0  0  0  0  0  0  0  0
    0.7800   -1.2637    0.0000 O   0  0  0  0  0  0  0  0  0  0  0  0
    2.0792   -0.5139    0.0000 C   0  0  0  0  0  0  0  0  0  0  0  0
    3.0435    0.6350    0.0000 H   0  0  0  0  0  0  0  0  0  0  0  0
    1.1152    0.6353    0.0000 H   0  0  0  0  0  0  0  0  0  0  0  0
    3.3781   -1.2641    0.0000 C   0  0  0  0  0  0  0  0  0  0  0  0
    2.4137   -2.4130    0.0000 H   0  0  0  0  0  0  0  0  0  0  0  0
    4.3421   -2.4134    0.0000 H   0  0  0  0  0  0  0  0  0  0  0  0
    5.0930   -0.2744    0.0000 O   0  0  0  0  0  0  0  0  0  0  0  0
    6.3919   -1.0246    0.0000 C   0  0  0  0  0  0  0  0  0  0  0  0
    5.4275   -2.1735    0.0000 H   0  0  0  0  0  0  0  0  0  0  0  0
    7.3559   -2.1738    0.0000 H   0  0  0  0  0  0  0  0  0  0  0  0
    7.6911   -0.2748    0.0000 C   0  0  0  0  0  0  0  0  0  0  0  0
    8.6554    0.8741    0.0000 H   0  0  0  0  0  0  0  0  0  0  0  0
    6.7271    0.8744    0.0000 H   0  0  0  0  0  0  0  0  0  0  0  0
    8.9900   -1.0250    0.0000 O   0  0  0  0  0  0  0  0  0  0  0  0
   10.2891   -0.2752    0.0000 C   0  0  0  0  0  0  0  0  0  0  0  0
   10.2894    1.2248    0.0000 H   0  0  0  0  0  0  0  0  0  0  0  0
   11.7664   -0.0150    0.0000 H   0  0  0  0  0  0  0  0  0  0  0  0
   10.8019   -1.6849    0.0000 H   0  0  0  0  0  0  0  0  0  0  0  0
  1  2  1  0  0  0  0 
  1  3  1  0  0  0  0 
  1  4  1  0  0  0  0 
  1  5  1  0  0  0  0 
  5  6  1  0  0  0  0 
  5  7  1  0  0  0  0 
  5  8  1  0  0  0  0 
  8  9  1  0  0  0  0 
  8 10  1  0  0  0  0 
  8 11  1  0  0  0  0 
 11 12  1  0  0  0  0 
 11 13  1  0  0  0  0 
 11 14  1  0  0  0  0 
 14 15  1  0  0  0  0 
 14 16  1  0  0  0  0 
 16 17  2  0  0  0  0 
 17 18  1  0  0  0  0 
 17 19  1  0  0  0  0 
 19 20  1  0  0  0  0 
 19 21  2  0  0  0  0 
 21 22  1  0  0  0  0 
 22 23  1  0  0  0  0 
 22 24  2  0  0  0  0 
 16 24  1  0  0  0  0 
 24 25  1  0  0  0  0 
 21 26  1  0  0  0  0 
 26 27  2  0  0  0  0 
 26 28  1  0  0  0  0 
 28 29  1  0  0  0  0 
 29 30  1  0  0  0  0 
 29 31  1  0  0  0  0 
 29 32  1  0  0  0  0 
 32 33  1  0  0  0  0 
 32 34  1  0  0  0  0 
 32 35  1  0  0  0  0 
 35 36  1  0  0  0  0 
 36 37  1  0  0  0  0 
 36 38  1  0  0  0  0 
 36 39  1  0  0  0  0 
 39 40  1  0  0  0  0 
 39 41  1  0  0  0  0 
 39 42  1  0  0  0  0 
 42 43  1  0  0  0  0 
 43 44  1  0  0  0  0 
 43 45  1  0  0  0  0 
 43 46  1  0  0  0  0 
 46 47  1  0  0  0  0 
 46 48  1  0  0  0  0 
 46 49  1  0  0  0  0 
 49 50  1  0  0  0  0 
 50 51  1  4  0  0  0 
 50 52  2  0  0  0  0 
 52 53  1  0  0  0  0 
 52 54  1  0  0  0  0 
 54 55  1  0  0  0  0 
 55 56  1  0  0  0  0 
 55 57  1  0  0  0  0 
 55 58  1  0  0  0  0 
 58 59  1  0  0  0  0 
 58 60  1  0  0  0  0 
 58 61  1  0  0  0  0 
 61 62  1  0  0  0  0 
 62 63  1  0  0  0  0 
 62 64  1  0  0  0  0 
 62 65  1  0  0  0  0 
 65 66  1  0  0  0  0 
 65 67  1  0  0  0  0 
 65 68  1  0  0  0  0 
 68 69  1  0  0  0  0 
 69 70  1  0  0  0  0 
 69 71  1  0  0  0  0 
 69 72  1  0  0  0  0 
 72 73  1  0  0  0  0 
 72 74  1  0  0  0  0 
 72 75  1  0  0  0  0 
 75 76  1  0  0  0  0 
 76 77  1  0  0  0  0 
 76 78  1  0  0  0  0 
 76 79  1  0  0  0  0 
 79 80  1  0  0  0  0 
 79 81  1  0  0  0  0 
 79 82  1  0  0  0  0 
 82 83  1  0  0  0  0 
 83 84  1  0  0  0  0 
 83 85  1  0  0  0  0 
 83 86  1  0  0  0  0 
 86 87  1  0  0  0  0 
 86 88  1  0  0  0  0 
 86 89  1  0  0  0  0 
 89 90  1  0  0  0  0 
 90 91  1  0  0  0  0 
 90 92  1  0  0  0  0 
 90 93  1  0  0  0  0 
M  END
> <Rank>
77

> <Priority_score>
0.0216

> <Reaction_type>
alkyl dehydrogenation

> <Parent_ID>
18

> <Parent_InChI>
InChI=1S/C30H53NO11/c1-3-4-9-31-29-7-5-28(6-8-29)30(32)42-27-26-41-25-24-40-23-22-39-21-20-38-19-18-37-17-16-36-15-14-35-13-12-34-11-10-33-2/h5-8,31H,3-4,9-27H2,1-2H3

> <Parent_SMILES>
CCCCNc1ccc(C(=O)OCCOCCOCCOCCOCCOCCOCCOCCOCCOC)cc1

$$$$
Molecule 18_metabolite 79
  CDK     0516241031

 93 93  0  0  0  0  0  0  0  0999 V2000
    9.8734   -2.2214    0.0000 C   0  0  0  0  0  0  0  0  0  0  0  0
    9.8732   -3.7214    0.0000 H   0  0  0  0  0  0  0  0  0  0  0  0
   10.3867   -0.8119    0.0000 H   0  0  0  0  0  0  0  0  0  0  0  0
   11.3506   -2.4821    0.0000 H   0  0  0  0  0  0  0  0  0  0  0  0
    8.5745   -1.4712    0.0000 C   0  0  0  0  0  0  0  0  0  0  0  0
    9.5389   -0.3223    0.0000 H   0  0  0  0  0  0  0  0  0  0  0  0
    7.6105   -0.3219    0.0000 H   0  0  0  0  0  0  0  0  0  0  0  0
    7.2753   -2.2210    0.0000 C   0  0  0  0  0  0  0  0  0  0  0  0
    6.3110   -3.3699    0.0000 H   0  0  0  0  0  0  0  0  0  0  0  0
    8.2393   -3.3702    0.0000 H   0  0  0  0  0  0  0  0  0  0  0  0
    5.5608   -1.2307    0.0000 C   0  0  0  0  0  0  0  0  0  0  0  0
    6.5251   -0.0818    0.0000 H   0  0  0  0  0  0  0  0  0  0  0  0
    4.5968   -0.0815    0.0000 H   0  0  0  0  0  0  0  0  0  0  0  0
    4.2616   -1.9805    0.0000 N   0  0  0  0  0  0  0  0  0  0  0  0
    4.2614   -3.4805    0.0000 H   0  0  0  0  0  0  0  0  0  0  0  0
    2.9627   -1.2303    0.0000 C   0  0  0  0  0  0  0  0  0  0  0  0
    1.6627   -1.9803    0.0000 C   0  0  0  0  0  0  0  0  0  0  0  0
    1.6627   -3.4803    0.0000 H   0  0  0  0  0  0  0  0  0  0  0  0
    0.3627   -1.2303    0.0000 C   0  0  0  0  0  0  0  0  0  0  0  0
   -0.9362   -1.9805    0.0000 H   0  0  0  0  0  0  0  0  0  0  0  0
    0.3627    0.2697    0.0000 C   0  0  0  0  0  0  0  0  0  0  0  0
    1.6627    1.0197    0.0000 C   0  0  0  0  0  0  0  0  0  0  0  0
    1.6627    2.5197    0.0000 H   0  0  0  0  0  0  0  0  0  0  0  0
    2.9627    0.2697    0.0000 C   0  0  0  0  0  0  0  0  0  0  0  0
    4.2616    1.0199    0.0000 H   0  0  0  0  0  0  0  0  0  0  0  0
   -0.9362    1.0199    0.0000 C   0  0  0  0  0  0  0  0  0  0  0  0
   -0.9360    2.5199    0.0000 O   0  0  0  0  0  0  0  0  0  0  0  0
   -2.2354    0.2701    0.0000 O   0  0  0  0  0  0  0  0  0  0  0  0
   -3.5343    1.0204    0.0000 C   0  0  0  0  0  0  0  0  0  0  0  0
   -2.5699    2.1693    0.0000 H   0  0  0  0  0  0  0  0  0  0  0  0
   -4.4983    2.1696    0.0000 H   0  0  0  0  0  0  0  0  0  0  0  0
   -4.8335    0.2706    0.0000 C   0  0  0  0  0  0  0  0  0  0  0  0
   -5.7978   -0.8783    0.0000 H   0  0  0  0  0  0  0  0  0  0  0  0
   -3.8695   -0.8787    0.0000 H   0  0  0  0  0  0  0  0  0  0  0  0
   -6.5480    1.2608    0.0000 O   0  0  0  0  0  0  0  0  0  0  0  0
   -7.8472    0.5110    0.0000 C   0  0  0  0  0  0  0  0  0  0  0  0
   -8.8116   -0.6379    0.0000 H   0  0  0  0  0  0  0  0  0  0  0  0
   -6.8832   -0.6382    0.0000 H   0  0  0  0  0  0  0  0  0  0  0  0
   -9.1461    1.2613    0.0000 C   0  0  0  0  0  0  0  0  0  0  0  0
   -8.1817    2.4102    0.0000 H   0  0  0  0  0  0  0  0  0  0  0  0
  -10.1101    2.4105    0.0000 H   0  0  0  0  0  0  0  0  0  0  0  0
  -10.4453    0.5115    0.0000 O   0  0  0  0  0  0  0  0  0  0  0  0
  -12.1598    1.5017    0.0000 C   0  0  0  0  0  0  0  0  0  0  0  0
  -11.1955    2.6507    0.0000 H   0  0  0  0  0  0  0  0  0  0  0  0
  -13.1238    2.6510    0.0000 H   0  0  0  0  0  0  0  0  0  0  0  0
  -13.4590    0.7519    0.0000 C   0  0  0  0  0  0  0  0  0  0  0  0
  -14.4234   -0.3970    0.0000 H   0  0  0  0  0  0  0  0  0  0  0  0
  -12.4950   -0.3973    0.0000 H   0  0  0  0  0  0  0  0  0  0  0  0
  -15.1736    1.7422    0.0000 O   0  0  0  0  0  0  0  0  0  0  0  0
  -16.4727    0.9924    0.0000 C   0  0  0  0  0  0  0  0  0  0  0  0
  -17.4371   -0.1565    0.0000 H   0  0  0  0  0  0  0  0  0  0  0  0
  -15.5087   -0.1568    0.0000 H   0  0  0  0  0  0  0  0  0  0  0  0
  -17.7716    1.7426    0.0000 C   0  0  0  0  0  0  0  0  0  0  0  0
  -16.8073    2.8916    0.0000 H   0  0  0  0  0  0  0  0  0  0  0  0
  -18.7356    2.8919    0.0000 H   0  0  0  0  0  0  0  0  0  0  0  0
  -19.0708    0.9928    0.0000 O   0  0  0  0  0  0  0  0  0  0  0  0
  -20.7854    1.9831    0.0000 C   0  0  0  0  0  0  0  0  0  0  0  0
  -19.8210    3.1320    0.0000 H   0  0  0  0  0  0  0  0  0  0  0  0
  -21.7494    3.1323    0.0000 H   0  0  0  0  0  0  0  0  0  0  0  0
  -22.0845    1.2333    0.0000 C   0  0  0  0  0  0  0  0  0  0  0  0
  -23.0489    0.0844    0.0000 H   0  0  0  0  0  0  0  0  0  0  0  0
  -21.1205    0.0841    0.0000 H   0  0  0  0  0  0  0  0  0  0  0  0
  -23.7991    2.2236    0.0000 O   0  0  0  0  0  0  0  0  0  0  0  0
  -25.0983    1.4738    0.0000 C   0  0  0  0  0  0  0  0  0  0  0  0
  -26.0626    0.3249    0.0000 H   0  0  0  0  0  0  0  0  0  0  0  0
  -24.1343    0.3246    0.0000 H   0  0  0  0  0  0  0  0  0  0  0  0
  -26.3972    2.2240    0.0000 C   0  0  0  0  0  0  0  0  0  0  0  0
  -25.4328    3.3729    0.0000 H   0  0  0  0  0  0  0  0  0  0  0  0
  -27.3612    3.3732    0.0000 H   0  0  0  0  0  0  0  0  0  0  0  0
  -27.6963    1.4742    0.0000 O   0  0  0  0  0  0  0  0  0  0  0  0
  -28.9953    2.2244    0.0000 C   0  0  0  0  0  0  0  0  0  0  0  0
  -28.9950    3.7244    0.0000 H   0  0  0  0  0  0  0  0  0  0  0  0
  -30.2944    1.4746    0.0000 C   0  0  0  0  0  0  0  0  0  0  0  0
  -30.2947   -0.0254    0.0000 H   0  0  0  0  0  0  0  0  0  0  0  0
  -31.5933    2.2249    0.0000 O   0  0  0  0  0  0  0  0  0  0  0  0
  -32.8925    1.4751    0.0000 C   0  0  0  0  0  0  0  0  0  0  0  0
  -33.8569    0.3261    0.0000 H   0  0  0  0  0  0  0  0  0  0  0  0
  -31.9285    0.3258    0.0000 H   0  0  0  0  0  0  0  0  0  0  0  0
  -34.1914    2.2253    0.0000 C   0  0  0  0  0  0  0  0  0  0  0  0
  -33.2270    3.3742    0.0000 H   0  0  0  0  0  0  0  0  0  0  0  0
  -35.1554    3.3745    0.0000 H   0  0  0  0  0  0  0  0  0  0  0  0
  -35.9063    1.2355    0.0000 O   0  0  0  0  0  0  0  0  0  0  0  0
  -37.2052    1.9858    0.0000 C   0  0  0  0  0  0  0  0  0  0  0  0
  -36.2408    3.1347    0.0000 H   0  0  0  0  0  0  0  0  0  0  0  0
  -38.1692    3.1350    0.0000 H   0  0  0  0  0  0  0  0  0  0  0  0
  -38.5044    1.2360    0.0000 C   0  0  0  0  0  0  0  0  0  0  0  0
  -39.4687    0.0870    0.0000 H   0  0  0  0  0  0  0  0  0  0  0  0
  -37.5404    0.0867    0.0000 H   0  0  0  0  0  0  0  0  0  0  0  0
  -39.8033    1.9862    0.0000 O   0  0  0  0  0  0  0  0  0  0  0  0
  -41.1025    1.2364    0.0000 C   0  0  0  0  0  0  0  0  0  0  0  0
  -41.1027   -0.2636    0.0000 H   0  0  0  0  0  0  0  0  0  0  0  0
  -42.5797    0.9761    0.0000 H   0  0  0  0  0  0  0  0  0  0  0  0
  -41.6153    2.6460    0.0000 H   0  0  0  0  0  0  0  0  0  0  0  0
  1  2  1  0  0  0  0 
  1  3  1  0  0  0  0 
  1  4  1  0  0  0  0 
  1  5  1  0  0  0  0 
  5  6  1  0  0  0  0 
  5  7  1  0  0  0  0 
  5  8  1  0  0  0  0 
  8  9  1  0  0  0  0 
  8 10  1  0  0  0  0 
  8 11  1  0  0  0  0 
 11 12  1  0  0  0  0 
 11 13  1  0  0  0  0 
 11 14  1  0  0  0  0 
 14 15  1  0  0  0  0 
 14 16  1  0  0  0  0 
 16 17  2  0  0  0  0 
 17 18  1  0  0  0  0 
 17 19  1  0  0  0  0 
 19 20  1  0  0  0  0 
 19 21  2  0  0  0  0 
 21 22  1  0  0  0  0 
 22 23  1  0  0  0  0 
 22 24  2  0  0  0  0 
 16 24  1  0  0  0  0 
 24 25  1  0  0  0  0 
 21 26  1  0  0  0  0 
 26 27  2  0  0  0  0 
 26 28  1  0  0  0  0 
 28 29  1  0  0  0  0 
 29 30  1  0  0  0  0 
 29 31  1  0  0  0  0 
 29 32  1  0  0  0  0 
 32 33  1  0  0  0  0 
 32 34  1  0  0  0  0 
 32 35  1  0  0  0  0 
 35 36  1  0  0  0  0 
 36 37  1  0  0  0  0 
 36 38  1  0  0  0  0 
 36 39  1  0  0  0  0 
 39 40  1  0  0  0  0 
 39 41  1  0  0  0  0 
 39 42  1  0  0  0  0 
 42 43  1  0  0  0  0 
 43 44  1  0  0  0  0 
 43 45  1  0  0  0  0 
 43 46  1  0  0  0  0 
 46 47  1  0  0  0  0 
 46 48  1  0  0  0  0 
 46 49  1  0  0  0  0 
 49 50  1  0  0  0  0 
 50 51  1  0  0  0  0 
 50 52  1  0  0  0  0 
 50 53  1  0  0  0  0 
 53 54  1  0  0  0  0 
 53 55  1  0  0  0  0 
 53 56  1  0  0  0  0 
 56 57  1  0  0  0  0 
 57 58  1  0  0  0  0 
 57 59  1  0  0  0  0 
 57 60  1  0  0  0  0 
 60 61  1  0  0  0  0 
 60 62  1  0  0  0  0 
 60 63  1  0  0  0  0 
 63 64  1  0  0  0  0 
 64 65  1  0  0  0  0 
 64 66  1  0  0  0  0 
 64 67  1  0  0  0  0 
 67 68  1  0  0  0  0 
 67 69  1  0  0  0  0 
 67 70  1  0  0  0  0 
 70 71  1  0  0  0  0 
 71 72  1  4  0  0  0 
 71 73  2  0  0  0  0 
 73 74  1  0  0  0  0 
 73 75  1  0  0  0  0 
 75 76  1  0  0  0  0 
 76 77  1  0  0  0  0 
 76 78  1  0  0  0  0 
 76 79  1  0  0  0  0 
 79 80  1  0  0  0  0 
 79 81  1  0  0  0  0 
 79 82  1  0  0  0  0 
 82 83  1  0  0  0  0 
 83 84  1  0  0  0  0 
 83 85  1  0  0  0  0 
 83 86  1  0  0  0  0 
 86 87  1  0  0  0  0 
 86 88  1  0  0  0  0 
 86 89  1  0  0  0  0 
 89 90  1  0  0  0  0 
 90 91  1  0  0  0  0 
 90 92  1  0  0  0  0 
 90 93  1  0  0  0  0 
M  END
> <Rank>
79

> <Priority_score>
0.021440674394099052

> <Reaction_type>
alkyl dehydrogenation

> <Parent_ID>
18

> <Parent_InChI>
InChI=1S/C30H53NO11/c1-3-4-9-31-29-7-5-28(6-8-29)30(32)42-27-26-41-25-24-40-23-22-39-21-20-38-19-18-37-17-16-36-15-14-35-13-12-34-11-10-33-2/h5-8,31H,3-4,9-27H2,1-2H3

> <Parent_SMILES>
CCCCNc1ccc(C(=O)OCCOCCOCCOCCOCCOCCOCCOCCOCCOC)cc1

$$$$
Molecule 18_metabolite 80
  CDK     0516241031

 93 93  0  0  0  0  0  0  0  0999 V2000
  -41.5183    1.7413    0.0000 C   0  0  0  0  0  0  0  0  0  0  0  0
  -41.5181    3.2413    0.0000 H   0  0  0  0  0  0  0  0  0  0  0  0
  -42.0316    0.3318    0.0000 H   0  0  0  0  0  0  0  0  0  0  0  0
  -42.9955    2.0020    0.0000 H   0  0  0  0  0  0  0  0  0  0  0  0
  -40.2194    0.9910    0.0000 C   0  0  0  0  0  0  0  0  0  0  0  0
  -41.1838   -0.1579    0.0000 H   0  0  0  0  0  0  0  0  0  0  0  0
  -39.2554   -0.1582    0.0000 H   0  0  0  0  0  0  0  0  0  0  0  0
  -38.9203    1.7408    0.0000 C   0  0  0  0  0  0  0  0  0  0  0  0
  -37.9559    2.8898    0.0000 H   0  0  0  0  0  0  0  0  0  0  0  0
  -39.8843    2.8901    0.0000 H   0  0  0  0  0  0  0  0  0  0  0  0
  -37.2057    0.7506    0.0000 C   0  0  0  0  0  0  0  0  0  0  0  0
  -38.1701   -0.3983    0.0000 H   0  0  0  0  0  0  0  0  0  0  0  0
  -36.2417   -0.3987    0.0000 H   0  0  0  0  0  0  0  0  0  0  0  0
  -35.9065    1.5004    0.0000 N   0  0  0  0  0  0  0  0  0  0  0  0
  -35.9063    3.0004    0.0000 H   0  0  0  0  0  0  0  0  0  0  0  0
  -34.6076    0.7501    0.0000 C   0  0  0  0  0  0  0  0  0  0  0  0
  -33.3076    1.5001    0.0000 C   0  0  0  0  0  0  0  0  0  0  0  0
  -33.3076    3.0001    0.0000 H   0  0  0  0  0  0  0  0  0  0  0  0
  -32.0076    0.7501    0.0000 C   0  0  0  0  0  0  0  0  0  0  0  0
  -30.7087    1.5004    0.0000 H   0  0  0  0  0  0  0  0  0  0  0  0
  -32.0076   -0.7499    0.0000 C   0  0  0  0  0  0  0  0  0  0  0  0
  -33.3076   -1.4999    0.0000 C   0  0  0  0  0  0  0  0  0  0  0  0
  -33.3076   -2.9999    0.0000 H   0  0  0  0  0  0  0  0  0  0  0  0
  -34.6076   -0.7499    0.0000 C   0  0  0  0  0  0  0  0  0  0  0  0
  -35.9065   -1.5001    0.0000 H   0  0  0  0  0  0  0  0  0  0  0  0
  -30.7087   -1.5001    0.0000 C   0  0  0  0  0  0  0  0  0  0  0  0
  -30.7089   -3.0001    0.0000 O   0  0  0  0  0  0  0  0  0  0  0  0
  -29.4095   -0.7503    0.0000 O   0  0  0  0  0  0  0  0  0  0  0  0
  -28.1106   -1.5005    0.0000 C   0  0  0  0  0  0  0  0  0  0  0  0
  -29.0750   -2.6494    0.0000 H   0  0  0  0  0  0  0  0  0  0  0  0
  -27.1466   -2.6497    0.0000 H   0  0  0  0  0  0  0  0  0  0  0  0
  -26.8115   -0.7507    0.0000 C   0  0  0  0  0  0  0  0  0  0  0  0
  -25.8471    0.3982    0.0000 H   0  0  0  0  0  0  0  0  0  0  0  0
  -27.7755    0.3985    0.0000 H   0  0  0  0  0  0  0  0  0  0  0  0
  -25.5125   -1.5009    0.0000 O   0  0  0  0  0  0  0  0  0  0  0  0
  -24.2134   -0.7511    0.0000 C   0  0  0  0  0  0  0  0  0  0  0  0
  -24.2131    0.7489    0.0000 H   0  0  0  0  0  0  0  0  0  0  0  0
  -22.9145   -1.5013    0.0000 C   0  0  0  0  0  0  0  0  0  0  0  0
  -22.9147   -3.0013    0.0000 H   0  0  0  0  0  0  0  0  0  0  0  0
  -21.6153   -0.7515    0.0000 O   0  0  0  0  0  0  0  0  0  0  0  0
  -20.3164   -1.5017    0.0000 C   0  0  0  0  0  0  0  0  0  0  0  0
  -21.2808   -2.6506    0.0000 H   0  0  0  0  0  0  0  0  0  0  0  0
  -19.3524   -2.6509    0.0000 H   0  0  0  0  0  0  0  0  0  0  0  0
  -19.0172   -0.7519    0.0000 C   0  0  0  0  0  0  0  0  0  0  0  0
  -18.0529    0.3970    0.0000 H   0  0  0  0  0  0  0  0  0  0  0  0
  -19.9812    0.3973    0.0000 H   0  0  0  0  0  0  0  0  0  0  0  0
  -17.7183   -1.5021    0.0000 O   0  0  0  0  0  0  0  0  0  0  0  0
  -16.0034   -0.5124    0.0000 C   0  0  0  0  0  0  0  0  0  0  0  0
  -15.0391    0.6365    0.0000 H   0  0  0  0  0  0  0  0  0  0  0  0
  -16.9674    0.6368    0.0000 H   0  0  0  0  0  0  0  0  0  0  0  0
  -14.7045   -1.2626    0.0000 C   0  0  0  0  0  0  0  0  0  0  0  0
  -15.6689   -2.4115    0.0000 H   0  0  0  0  0  0  0  0  0  0  0  0
  -13.7405   -2.4118    0.0000 H   0  0  0  0  0  0  0  0  0  0  0  0
  -13.4054   -0.5128    0.0000 O   0  0  0  0  0  0  0  0  0  0  0  0
  -11.6908   -1.5031    0.0000 C   0  0  0  0  0  0  0  0  0  0  0  0
  -12.6551   -2.6520    0.0000 H   0  0  0  0  0  0  0  0  0  0  0  0
  -10.7268   -2.6523    0.0000 H   0  0  0  0  0  0  0  0  0  0  0  0
  -10.3916   -0.7533    0.0000 C   0  0  0  0  0  0  0  0  0  0  0  0
   -9.4273    0.3956    0.0000 H   0  0  0  0  0  0  0  0  0  0  0  0
  -11.3556    0.3959    0.0000 H   0  0  0  0  0  0  0  0  0  0  0  0
   -9.0927   -1.5035    0.0000 O   0  0  0  0  0  0  0  0  0  0  0  0
   -7.3778   -0.5138    0.0000 C   0  0  0  0  0  0  0  0  0  0  0  0
   -6.4135    0.6351    0.0000 H   0  0  0  0  0  0  0  0  0  0  0  0
   -8.3418    0.6354    0.0000 H   0  0  0  0  0  0  0  0  0  0  0  0
   -6.0789   -1.2640    0.0000 C   0  0  0  0  0  0  0  0  0  0  0  0
   -7.0433   -2.4129    0.0000 H   0  0  0  0  0  0  0  0  0  0  0  0
   -5.1149   -2.4132    0.0000 H   0  0  0  0  0  0  0  0  0  0  0  0
   -4.3640   -0.2743    0.0000 O   0  0  0  0  0  0  0  0  0  0  0  0
   -3.0651   -1.0245    0.0000 C   0  0  0  0  0  0  0  0  0  0  0  0
   -4.0295   -2.1734    0.0000 H   0  0  0  0  0  0  0  0  0  0  0  0
   -2.1011   -2.1737    0.0000 H   0  0  0  0  0  0  0  0  0  0  0  0
   -1.7659   -0.2747    0.0000 C   0  0  0  0  0  0  0  0  0  0  0  0
   -0.8016    0.8742    0.0000 H   0  0  0  0  0  0  0  0  0  0  0  0
   -2.7299    0.8745    0.0000 H   0  0  0  0  0  0  0  0  0  0  0  0
   -0.0514   -1.2650    0.0000 O   0  0  0  0  0  0  0  0  0  0  0  0
    1.2478   -0.5152    0.0000 C   0  0  0  0  0  0  0  0  0  0  0  0
    2.2122    0.6337    0.0000 H   0  0  0  0  0  0  0  0  0  0  0  0
    0.2838    0.6340    0.0000 H   0  0  0  0  0  0  0  0  0  0  0  0
    2.5467   -1.2654    0.0000 C   0  0  0  0  0  0  0  0  0  0  0  0
    1.5823   -2.4143    0.0000 H   0  0  0  0  0  0  0  0  0  0  0  0
    3.5107   -2.4146    0.0000 H   0  0  0  0  0  0  0  0  0  0  0  0
    4.2616   -0.2757    0.0000 O   0  0  0  0  0  0  0  0  0  0  0  0
    5.5605   -1.0259    0.0000 C   0  0  0  0  0  0  0  0  0  0  0  0
    4.5962   -2.1748    0.0000 H   0  0  0  0  0  0  0  0  0  0  0  0
    6.5245   -2.1751    0.0000 H   0  0  0  0  0  0  0  0  0  0  0  0
    6.8597   -0.2761    0.0000 C   0  0  0  0  0  0  0  0  0  0  0  0
    7.8240    0.8728    0.0000 H   0  0  0  0  0  0  0  0  0  0  0  0
    5.8957    0.8731    0.0000 H   0  0  0  0  0  0  0  0  0  0  0  0
    8.1586   -1.0263    0.0000 O   0  0  0  0  0  0  0  0  0  0  0  0
    9.4578   -0.2765    0.0000 C   0  0  0  0  0  0  0  0  0  0  0  0
    9.4580    1.2235    0.0000 H   0  0  0  0  0  0  0  0  0  0  0  0
   10.9350   -0.0163    0.0000 H   0  0  0  0  0  0  0  0  0  0  0  0
    9.9706   -1.6861    0.0000 H   0  0  0  0  0  0  0  0  0  0  0  0
  1  2  1  0  0  0  0 
  1  3  1  0  0  0  0 
  1  4  1  0  0  0  0 
  1  5  1  0  0  0  0 
  5  6  1  0  0  0  0 
  5  7  1  0  0  0  0 
  5  8  1  0  0  0  0 
  8  9  1  0  0  0  0 
  8 10  1  0  0  0  0 
  8 11  1  0  0  0  0 
 11 12  1  0  0  0  0 
 11 13  1  0  0  0  0 
 11 14  1  0  0  0  0 
 14 15  1  0  0  0  0 
 14 16  1  0  0  0  0 
 16 17  2  0  0  0  0 
 17 18  1  0  0  0  0 
 17 19  1  0  0  0  0 
 19 20  1  0  0  0  0 
 19 21  2  0  0  0  0 
 21 22  1  0  0  0  0 
 22 23  1  0  0  0  0 
 22 24  2  0  0  0  0 
 16 24  1  0  0  0  0 
 24 25  1  0  0  0  0 
 21 26  1  0  0  0  0 
 26 27  2  0  0  0  0 
 26 28  1  0  0  0  0 
 28 29  1  0  0  0  0 
 29 30  1  0  0  0  0 
 29 31  1  0  0  0  0 
 29 32  1  0  0  0  0 
 32 33  1  0  0  0  0 
 32 34  1  0  0  0  0 
 32 35  1  0  0  0  0 
 35 36  1  0  0  0  0 
 36 37  1  4  0  0  0 
 36 38  2  0  0  0  0 
 38 39  1  0  0  0  0 
 38 40  1  0  0  0  0 
 40 41  1  0  0  0  0 
 41 42  1  0  0  0  0 
 41 43  1  0  0  0  0 
 41 44  1  0  0  0  0 
 44 45  1  0  0  0  0 
 44 46  1  0  0  0  0 
 44 47  1  0  0  0  0 
 47 48  1  0  0  0  0 
 48 49  1  0  0  0  0 
 48 50  1  0  0  0  0 
 48 51  1  0  0  0  0 
 51 52  1  0  0  0  0 
 51 53  1  0  0  0  0 
 51 54  1  0  0  0  0 
 54 55  1  0  0  0  0 
 55 56  1  0  0  0  0 
 55 57  1  0  0  0  0 
 55 58  1  0  0  0  0 
 58 59  1  0  0  0  0 
 58 60  1  0  0  0  0 
 58 61  1  0  0  0  0 
 61 62  1  0  0  0  0 
 62 63  1  0  0  0  0 
 62 64  1  0  0  0  0 
 62 65  1  0  0  0  0 
 65 66  1  0  0  0  0 
 65 67  1  0  0  0  0 
 65 68  1  0  0  0  0 
 68 69  1  0  0  0  0 
 69 70  1  0  0  0  0 
 69 71  1  0  0  0  0 
 69 72  1  0  0  0  0 
 72 73  1  0  0  0  0 
 72 74  1  0  0  0  0 
 72 75  1  0  0  0  0 
 75 76  1  0  0  0  0 
 76 77  1  0  0  0  0 
 76 78  1  0  0  0  0 
 76 79  1  0  0  0  0 
 79 80  1  0  0  0  0 
 79 81  1  0  0  0  0 
 79 82  1  0  0  0  0 
 82 83  1  0  0  0  0 
 83 84  1  0  0  0  0 
 83 85  1  0  0  0  0 
 83 86  1  0  0  0  0 
 86 87  1  0  0  0  0 
 86 88  1  0  0  0  0 
 86 89  1  0  0  0  0 
 89 90  1  0  0  0  0 
 90 91  1  0  0  0  0 
 90 92  1  0  0  0  0 
 90 93  1  0  0  0  0 
M  END
> <Rank>
80

> <Priority_score>
0.0208

> <Reaction_type>
alkyl dehydrogenation

> <Parent_ID>
18

> <Parent_InChI>
InChI=1S/C30H53NO11/c1-3-4-9-31-29-7-5-28(6-8-29)30(32)42-27-26-41-25-24-40-23-22-39-21-20-38-19-18-37-17-16-36-15-14-35-13-12-34-11-10-33-2/h5-8,31H,3-4,9-27H2,1-2H3

> <Parent_SMILES>
CCCCNc1ccc(C(=O)OCCOCCOCCOCCOCCOCCOCCOCCOCCOC)cc1

$$$$
Molecule 18_metabolite 81
  CDK     0516241031

 93 93  0  0  0  0  0  0  0  0999 V2000
    9.0422   -1.2612    0.0000 C   0  0  0  0  0  0  0  0  0  0  0  0
    9.0419   -2.7612    0.0000 H   0  0  0  0  0  0  0  0  0  0  0  0
    9.5554    0.1482    0.0000 H   0  0  0  0  0  0  0  0  0  0  0  0
   10.5194   -1.5219    0.0000 H   0  0  0  0  0  0  0  0  0  0  0  0
    7.7433   -0.5110    0.0000 C   0  0  0  0  0  0  0  0  0  0  0  0
    8.7076    0.6379    0.0000 H   0  0  0  0  0  0  0  0  0  0  0  0
    6.7793    0.6382    0.0000 H   0  0  0  0  0  0  0  0  0  0  0  0
    6.4441   -1.2608    0.0000 C   0  0  0  0  0  0  0  0  0  0  0  0
    5.4797   -2.4097    0.0000 H   0  0  0  0  0  0  0  0  0  0  0  0
    7.4081   -2.4100    0.0000 H   0  0  0  0  0  0  0  0  0  0  0  0
    4.7295   -0.2705    0.0000 C   0  0  0  0  0  0  0  0  0  0  0  0
    5.6939    0.8784    0.0000 H   0  0  0  0  0  0  0  0  0  0  0  0
    3.7655    0.8787    0.0000 H   0  0  0  0  0  0  0  0  0  0  0  0
    3.4304   -1.0203    0.0000 N   0  0  0  0  0  0  0  0  0  0  0  0
    3.4301   -2.5203    0.0000 H   0  0  0  0  0  0  0  0  0  0  0  0
    2.1315   -0.2701    0.0000 C   0  0  0  0  0  0  0  0  0  0  0  0
    0.8315   -1.0201    0.0000 C   0  0  0  0  0  0  0  0  0  0  0  0
    0.8315   -2.5201    0.0000 H   0  0  0  0  0  0  0  0  0  0  0  0
   -0.4685   -0.2701    0.0000 C   0  0  0  0  0  0  0  0  0  0  0  0
   -1.7675   -1.0203    0.0000 H   0  0  0  0  0  0  0  0  0  0  0  0
   -0.4685    1.2299    0.0000 C   0  0  0  0  0  0  0  0  0  0  0  0
    0.8315    1.9799    0.0000 C   0  0  0  0  0  0  0  0  0  0  0  0
    0.8315    3.4799    0.0000 H   0  0  0  0  0  0  0  0  0  0  0  0
    2.1315    1.2299    0.0000 C   0  0  0  0  0  0  0  0  0  0  0  0
    3.4304    1.9801    0.0000 H   0  0  0  0  0  0  0  0  0  0  0  0
   -1.7675    1.9801    0.0000 C   0  0  0  0  0  0  0  0  0  0  0  0
   -1.7672    3.4801    0.0000 O   0  0  0  0  0  0  0  0  0  0  0  0
   -3.0666    1.2303    0.0000 O   0  0  0  0  0  0  0  0  0  0  0  0
   -4.3655    1.9805    0.0000 C   0  0  0  0  0  0  0  0  0  0  0  0
   -4.3653    3.4805    0.0000 H   0  0  0  0  0  0  0  0  0  0  0  0
   -5.6647    1.2307    0.0000 C   0  0  0  0  0  0  0  0  0  0  0  0
   -5.6649   -0.2693    0.0000 H   0  0  0  0  0  0  0  0  0  0  0  0
   -6.9636    1.9809    0.0000 O   0  0  0  0  0  0  0  0  0  0  0  0
   -8.2628    1.2311    0.0000 C   0  0  0  0  0  0  0  0  0  0  0  0
   -9.2271    0.0822    0.0000 H   0  0  0  0  0  0  0  0  0  0  0  0
   -7.2988    0.0819    0.0000 H   0  0  0  0  0  0  0  0  0  0  0  0
   -9.5617    1.9813    0.0000 C   0  0  0  0  0  0  0  0  0  0  0  0
   -8.5973    3.1302    0.0000 H   0  0  0  0  0  0  0  0  0  0  0  0
  -10.5257    3.1305    0.0000 H   0  0  0  0  0  0  0  0  0  0  0  0
  -10.8608    1.2315    0.0000 O   0  0  0  0  0  0  0  0  0  0  0  0
  -12.5754    2.2218    0.0000 C   0  0  0  0  0  0  0  0  0  0  0  0
  -11.6110    3.3707    0.0000 H   0  0  0  0  0  0  0  0  0  0  0  0
  -13.5394    3.3710    0.0000 H   0  0  0  0  0  0  0  0  0  0  0  0
  -13.8746    1.4720    0.0000 C   0  0  0  0  0  0  0  0  0  0  0  0
  -14.8389    0.3231    0.0000 H   0  0  0  0  0  0  0  0  0  0  0  0
  -12.9106    0.3228    0.0000 H   0  0  0  0  0  0  0  0  0  0  0  0
  -15.1735    2.2222    0.0000 O   0  0  0  0  0  0  0  0  0  0  0  0
  -16.8884    1.2325    0.0000 C   0  0  0  0  0  0  0  0  0  0  0  0
  -17.8527    0.0836    0.0000 H   0  0  0  0  0  0  0  0  0  0  0  0
  -15.9244    0.0833    0.0000 H   0  0  0  0  0  0  0  0  0  0  0  0
  -18.1873    1.9827    0.0000 C   0  0  0  0  0  0  0  0  0  0  0  0
  -17.2229    3.1316    0.0000 H   0  0  0  0  0  0  0  0  0  0  0  0
  -19.1513    3.1319    0.0000 H   0  0  0  0  0  0  0  0  0  0  0  0
  -19.4865    1.2329    0.0000 O   0  0  0  0  0  0  0  0  0  0  0  0
  -21.2010    2.2232    0.0000 C   0  0  0  0  0  0  0  0  0  0  0  0
  -20.2367    3.3721    0.0000 H   0  0  0  0  0  0  0  0  0  0  0  0
  -22.1650    3.3724    0.0000 H   0  0  0  0  0  0  0  0  0  0  0  0
  -22.5002    1.4734    0.0000 C   0  0  0  0  0  0  0  0  0  0  0  0
  -23.4646    0.3245    0.0000 H   0  0  0  0  0  0  0  0  0  0  0  0
  -21.5362    0.3242    0.0000 H   0  0  0  0  0  0  0  0  0  0  0  0
  -23.7991    2.2236    0.0000 O   0  0  0  0  0  0  0  0  0  0  0  0
  -25.5140    1.2339    0.0000 C   0  0  0  0  0  0  0  0  0  0  0  0
  -26.4784    0.0850    0.0000 H   0  0  0  0  0  0  0  0  0  0  0  0
  -24.5500    0.0847    0.0000 H   0  0  0  0  0  0  0  0  0  0  0  0
  -26.8129    1.9841    0.0000 C   0  0  0  0  0  0  0  0  0  0  0  0
  -25.8485    3.1330    0.0000 H   0  0  0  0  0  0  0  0  0  0  0  0
  -27.7769    3.1333    0.0000 H   0  0  0  0  0  0  0  0  0  0  0  0
  -28.5278    0.9944    0.0000 O   0  0  0  0  0  0  0  0  0  0  0  0
  -29.8267    1.7446    0.0000 C   0  0  0  0  0  0  0  0  0  0  0  0
  -28.8624    2.8935    0.0000 H   0  0  0  0  0  0  0  0  0  0  0  0
  -30.7907    2.8938    0.0000 H   0  0  0  0  0  0  0  0  0  0  0  0
  -31.1259    0.9948    0.0000 C   0  0  0  0  0  0  0  0  0  0  0  0
  -32.0902   -0.1541    0.0000 H   0  0  0  0  0  0  0  0  0  0  0  0
  -30.1619   -0.1544    0.0000 H   0  0  0  0  0  0  0  0  0  0  0  0
  -32.4248    1.7450    0.0000 O   0  0  0  0  0  0  0  0  0  0  0  0
  -34.1397    0.7553    0.0000 C   0  0  0  0  0  0  0  0  0  0  0  0
  -35.1040   -0.3937    0.0000 H   0  0  0  0  0  0  0  0  0  0  0  0
  -33.1757   -0.3940    0.0000 H   0  0  0  0  0  0  0  0  0  0  0  0
  -35.4386    1.5055    0.0000 C   0  0  0  0  0  0  0  0  0  0  0  0
  -34.4742    2.6544    0.0000 H   0  0  0  0  0  0  0  0  0  0  0  0
  -36.4026    2.6547    0.0000 H   0  0  0  0  0  0  0  0  0  0  0  0
  -37.1535    0.5157    0.0000 O   0  0  0  0  0  0  0  0  0  0  0  0
  -38.4524    1.2660    0.0000 C   0  0  0  0  0  0  0  0  0  0  0  0
  -37.4880    2.4149    0.0000 H   0  0  0  0  0  0  0  0  0  0  0  0
  -39.4164    2.4152    0.0000 H   0  0  0  0  0  0  0  0  0  0  0  0
  -39.7516    0.5162    0.0000 C   0  0  0  0  0  0  0  0  0  0  0  0
  -40.7159   -0.6328    0.0000 H   0  0  0  0  0  0  0  0  0  0  0  0
  -38.7876   -0.6331    0.0000 H   0  0  0  0  0  0  0  0  0  0  0  0
  -41.0505    1.2664    0.0000 O   0  0  0  0  0  0  0  0  0  0  0  0
  -42.3496    0.5166    0.0000 C   0  0  0  0  0  0  0  0  0  0  0  0
  -42.3499   -0.9834    0.0000 H   0  0  0  0  0  0  0  0  0  0  0  0
  -43.8269    0.2563    0.0000 H   0  0  0  0  0  0  0  0  0  0  0  0
  -42.8624    1.9262    0.0000 H   0  0  0  0  0  0  0  0  0  0  0  0
  1  2  1  0  0  0  0 
  1  3  1  0  0  0  0 
  1  4  1  0  0  0  0 
  1  5  1  0  0  0  0 
  5  6  1  0  0  0  0 
  5  7  1  0  0  0  0 
  5  8  1  0  0  0  0 
  8  9  1  0  0  0  0 
  8 10  1  0  0  0  0 
  8 11  1  0  0  0  0 
 11 12  1  0  0  0  0 
 11 13  1  0  0  0  0 
 11 14  1  0  0  0  0 
 14 15  1  0  0  0  0 
 14 16  1  0  0  0  0 
 16 17  2  0  0  0  0 
 17 18  1  0  0  0  0 
 17 19  1  0  0  0  0 
 19 20  1  0  0  0  0 
 19 21  2  0  0  0  0 
 21 22  1  0  0  0  0 
 22 23  1  0  0  0  0 
 22 24  2  0  0  0  0 
 16 24  1  0  0  0  0 
 24 25  1  0  0  0  0 
 21 26  1  0  0  0  0 
 26 27  2  0  0  0  0 
 26 28  1  0  0  0  0 
 28 29  1  0  0  0  0 
 29 30  1  4  0  0  0 
 29 31  2  0  0  0  0 
 31 32  1  0  0  0  0 
 31 33  1  0  0  0  0 
 33 34  1  0  0  0  0 
 34 35  1  0  0  0  0 
 34 36  1  0  0  0  0 
 34 37  1  0  0  0  0 
 37 38  1  0  0  0  0 
 37 39  1  0  0  0  0 
 37 40  1  0  0  0  0 
 40 41  1  0  0  0  0 
 41 42  1  0  0  0  0 
 41 43  1  0  0  0  0 
 41 44  1  0  0  0  0 
 44 45  1  0  0  0  0 
 44 46  1  0  0  0  0 
 44 47  1  0  0  0  0 
 47 48  1  0  0  0  0 
 48 49  1  0  0  0  0 
 48 50  1  0  0  0  0 
 48 51  1  0  0  0  0 
 51 52  1  0  0  0  0 
 51 53  1  0  0  0  0 
 51 54  1  0  0  0  0 
 54 55  1  0  0  0  0 
 55 56  1  0  0  0  0 
 55 57  1  0  0  0  0 
 55 58  1  0  0  0  0 
 58 59  1  0  0  0  0 
 58 60  1  0  0  0  0 
 58 61  1  0  0  0  0 
 61 62  1  0  0  0  0 
 62 63  1  0  0  0  0 
 62 64  1  0  0  0  0 
 62 65  1  0  0  0  0 
 65 66  1  0  0  0  0 
 65 67  1  0  0  0  0 
 65 68  1  0  0  0  0 
 68 69  1  0  0  0  0 
 69 70  1  0  0  0  0 
 69 71  1  0  0  0  0 
 69 72  1  0  0  0  0 
 72 73  1  0  0  0  0 
 72 74  1  0  0  0  0 
 72 75  1  0  0  0  0 
 75 76  1  0  0  0  0 
 76 77  1  0  0  0  0 
 76 78  1  0  0  0  0 
 76 79  1  0  0  0  0 
 79 80  1  0  0  0  0 
 79 81  1  0  0  0  0 
 79 82  1  0  0  0  0 
 82 83  1  0  0  0  0 
 83 84  1  0  0  0  0 
 83 85  1  0  0  0  0 
 83 86  1  0  0  0  0 
 86 87  1  0  0  0  0 
 86 88  1  0  0  0  0 
 86 89  1  0  0  0  0 
 89 90  1  0  0  0  0 
 90 91  1  0  0  0  0 
 90 92  1  0  0  0  0 
 90 93  1  0  0  0  0 
M  END
> <Rank>
80

> <Priority_score>
0.0208

> <Reaction_type>
alkyl dehydrogenation

> <Parent_ID>
18

> <Parent_InChI>
InChI=1S/C30H53NO11/c1-3-4-9-31-29-7-5-28(6-8-29)30(32)42-27-26-41-25-24-40-23-22-39-21-20-38-19-18-37-17-16-36-15-14-35-13-12-34-11-10-33-2/h5-8,31H,3-4,9-27H2,1-2H3

> <Parent_SMILES>
CCCCNc1ccc(C(=O)OCCOCCOCCOCCOCCOCCOCCOCCOCCOC)cc1

$$$$
Molecule 18_metabolite 82
  CDK     0516241031

 96 96  0  0  0  0  0  0  0  0999 V2000
  -10.2891    2.4614    0.0000 C   0  0  0  0  0  0  0  0  0  0  0  0
  -10.2888    3.9614    0.0000 H   0  0  0  0  0  0  0  0  0  0  0  0
  -10.8023    1.0520    0.0000 H   0  0  0  0  0  0  0  0  0  0  0  0
  -11.7662    2.7221    0.0000 H   0  0  0  0  0  0  0  0  0  0  0  0
   -8.9902    1.7112    0.0000 C   0  0  0  0  0  0  0  0  0  0  0  0
   -9.9545    0.5623    0.0000 H   0  0  0  0  0  0  0  0  0  0  0  0
   -8.0262    0.5620    0.0000 H   0  0  0  0  0  0  0  0  0  0  0  0
   -7.6910    2.4610    0.0000 C   0  0  0  0  0  0  0  0  0  0  0  0
   -6.7266    3.6099    0.0000 H   0  0  0  0  0  0  0  0  0  0  0  0
   -8.6550    3.6102    0.0000 H   0  0  0  0  0  0  0  0  0  0  0  0
   -5.9764    1.4707    0.0000 C   0  0  0  0  0  0  0  0  0  0  0  0
   -6.9408    0.3218    0.0000 H   0  0  0  0  0  0  0  0  0  0  0  0
   -5.0124    0.3215    0.0000 H   0  0  0  0  0  0  0  0  0  0  0  0
   -4.6773    2.2205    0.0000 N   0  0  0  0  0  0  0  0  0  0  0  0
   -4.6770    3.7205    0.0000 H   0  0  0  0  0  0  0  0  0  0  0  0
   -3.3783    1.4703    0.0000 C   0  0  0  0  0  0  0  0  0  0  0  0
   -2.0783    2.2203    0.0000 C   0  0  0  0  0  0  0  0  0  0  0  0
   -2.0783    3.7203    0.0000 H   0  0  0  0  0  0  0  0  0  0  0  0
   -0.7783    1.4703    0.0000 C   0  0  0  0  0  0  0  0  0  0  0  0
    0.5206    2.2205    0.0000 H   0  0  0  0  0  0  0  0  0  0  0  0
   -0.7783   -0.0297    0.0000 C   0  0  0  0  0  0  0  0  0  0  0  0
   -2.0783   -0.7797    0.0000 C   0  0  0  0  0  0  0  0  0  0  0  0
   -3.3783   -0.0297    0.0000 C   0  0  0  0  0  0  0  0  0  0  0  0
   -4.6773   -0.7799    0.0000 H   0  0  0  0  0  0  0  0  0  0  0  0
   -2.0783   -2.2797    0.0000 O   0  0  0  0  0  0  0  0  0  0  0  0
   -0.7793   -3.0297    0.0000 H   0  0  0  0  0  0  0  0  0  0  0  0
    0.5206   -0.7799    0.0000 C   0  0  0  0  0  0  0  0  0  0  0  0
    0.5203   -2.2799    0.0000 O   0  0  0  0  0  0  0  0  0  0  0  0
    1.8197   -0.0301    0.0000 O   0  0  0  0  0  0  0  0  0  0  0  0
    3.1186   -0.7803    0.0000 C   0  0  0  0  0  0  0  0  0  0  0  0
    2.1543   -1.9292    0.0000 H   0  0  0  0  0  0  0  0  0  0  0  0
    4.0826   -1.9295    0.0000 H   0  0  0  0  0  0  0  0  0  0  0  0
    4.4178   -0.0305    0.0000 C   0  0  0  0  0  0  0  0  0  0  0  0
    5.3822    1.1184    0.0000 H   0  0  0  0  0  0  0  0  0  0  0  0
    3.4538    1.1187    0.0000 H   0  0  0  0  0  0  0  0  0  0  0  0
    6.1324   -1.0208    0.0000 O   0  0  0  0  0  0  0  0  0  0  0  0
    7.4315   -0.2710    0.0000 C   0  0  0  0  0  0  0  0  0  0  0  0
    8.3959    0.8779    0.0000 H   0  0  0  0  0  0  0  0  0  0  0  0
    6.4675    0.8782    0.0000 H   0  0  0  0  0  0  0  0  0  0  0  0
    8.7305   -1.0212    0.0000 C   0  0  0  0  0  0  0  0  0  0  0  0
    7.7661   -2.1701    0.0000 H   0  0  0  0  0  0  0  0  0  0  0  0
    9.6945   -2.1704    0.0000 H   0  0  0  0  0  0  0  0  0  0  0  0
   10.0296   -0.2714    0.0000 O   0  0  0  0  0  0  0  0  0  0  0  0
   11.7442   -1.2617    0.0000 C   0  0  0  0  0  0  0  0  0  0  0  0
   10.7798   -2.4106    0.0000 H   0  0  0  0  0  0  0  0  0  0  0  0
   12.7082   -2.4109    0.0000 H   0  0  0  0  0  0  0  0  0  0  0  0
   13.0433   -0.5119    0.0000 C   0  0  0  0  0  0  0  0  0  0  0  0
   14.0077    0.6370    0.0000 H   0  0  0  0  0  0  0  0  0  0  0  0
   12.0793    0.6373    0.0000 H   0  0  0  0  0  0  0  0  0  0  0  0
   14.7579   -1.5022    0.0000 O   0  0  0  0  0  0  0  0  0  0  0  0
   16.0571   -0.7524    0.0000 C   0  0  0  0  0  0  0  0  0  0  0  0
   17.0214    0.3965    0.0000 H   0  0  0  0  0  0  0  0  0  0  0  0
   15.0931    0.3969    0.0000 H   0  0  0  0  0  0  0  0  0  0  0  0
   17.3560   -1.5026    0.0000 C   0  0  0  0  0  0  0  0  0  0  0  0
   16.3916   -2.6515    0.0000 H   0  0  0  0  0  0  0  0  0  0  0  0
   18.3200   -2.6518    0.0000 H   0  0  0  0  0  0  0  0  0  0  0  0
   18.6551   -0.7528    0.0000 O   0  0  0  0  0  0  0  0  0  0  0  0
   20.3697   -1.7431    0.0000 C   0  0  0  0  0  0  0  0  0  0  0  0
   19.4054   -2.8920    0.0000 H   0  0  0  0  0  0  0  0  0  0  0  0
   21.3337   -2.8923    0.0000 H   0  0  0  0  0  0  0  0  0  0  0  0
   21.6689   -0.9933    0.0000 C   0  0  0  0  0  0  0  0  0  0  0  0
   22.6332    0.1556    0.0000 H   0  0  0  0  0  0  0  0  0  0  0  0
   20.7049    0.1560    0.0000 H   0  0  0  0  0  0  0  0  0  0  0  0
   23.3834   -1.9835    0.0000 O   0  0  0  0  0  0  0  0  0  0  0  0
   24.6826   -1.2337    0.0000 C   0  0  0  0  0  0  0  0  0  0  0  0
   25.6470   -0.0848    0.0000 H   0  0  0  0  0  0  0  0  0  0  0  0
   23.7186   -0.0845    0.0000 H   0  0  0  0  0  0  0  0  0  0  0  0
   25.9815   -1.9840    0.0000 C   0  0  0  0  0  0  0  0  0  0  0  0
   25.0172   -3.1329    0.0000 H   0  0  0  0  0  0  0  0  0  0  0  0
   26.9455   -3.1332    0.0000 H   0  0  0  0  0  0  0  0  0  0  0  0
   27.2807   -1.2342    0.0000 O   0  0  0  0  0  0  0  0  0  0  0  0
   28.9953   -2.2244    0.0000 C   0  0  0  0  0  0  0  0  0  0  0  0
   28.0309   -3.3733    0.0000 H   0  0  0  0  0  0  0  0  0  0  0  0
   29.9593   -3.3737    0.0000 H   0  0  0  0  0  0  0  0  0  0  0  0
   30.2944   -1.4746    0.0000 C   0  0  0  0  0  0  0  0  0  0  0  0
   31.2588   -0.3257    0.0000 H   0  0  0  0  0  0  0  0  0  0  0  0
   29.3304   -0.3254    0.0000 H   0  0  0  0  0  0  0  0  0  0  0  0
   32.0090   -2.4649    0.0000 O   0  0  0  0  0  0  0  0  0  0  0  0
   33.3081   -1.7151    0.0000 C   0  0  0  0  0  0  0  0  0  0  0  0
   34.2725   -0.5662    0.0000 H   0  0  0  0  0  0  0  0  0  0  0  0
   32.3441   -0.5659    0.0000 H   0  0  0  0  0  0  0  0  0  0  0  0
   34.6071   -2.4653    0.0000 C   0  0  0  0  0  0  0  0  0  0  0  0
   33.6427   -3.6142    0.0000 H   0  0  0  0  0  0  0  0  0  0  0  0
   35.5711   -3.6146    0.0000 H   0  0  0  0  0  0  0  0  0  0  0  0
   36.3220   -1.4756    0.0000 O   0  0  0  0  0  0  0  0  0  0  0  0
   37.6209   -2.2258    0.0000 C   0  0  0  0  0  0  0  0  0  0  0  0
   36.6565   -3.3747    0.0000 H   0  0  0  0  0  0  0  0  0  0  0  0
   38.5849   -3.3750    0.0000 H   0  0  0  0  0  0  0  0  0  0  0  0
   38.9200   -1.4760    0.0000 C   0  0  0  0  0  0  0  0  0  0  0  0
   39.8844   -0.3271    0.0000 H   0  0  0  0  0  0  0  0  0  0  0  0
   37.9560   -0.3268    0.0000 H   0  0  0  0  0  0  0  0  0  0  0  0
   40.2189   -2.2262    0.0000 O   0  0  0  0  0  0  0  0  0  0  0  0
   41.5181   -1.4764    0.0000 C   0  0  0  0  0  0  0  0  0  0  0  0
   41.5183    0.0236    0.0000 H   0  0  0  0  0  0  0  0  0  0  0  0
   42.9954   -1.2162    0.0000 H   0  0  0  0  0  0  0  0  0  0  0  0
   42.0309   -2.8861    0.0000 H   0  0  0  0  0  0  0  0  0  0  0  0
  1  2  1  0  0  0  0 
  1  3  1  0  0  0  0 
  1  4  1  0  0  0  0 
  1  5  1  0  0  0  0 
  5  6  1  0  0  0  0 
  5  7  1  0  0  0  0 
  5  8  1  0  0  0  0 
  8  9  1  0  0  0  0 
  8 10  1  0  0  0  0 
  8 11  1  0  0  0  0 
 11 12  1  0  0  0  0 
 11 13  1  0  0  0  0 
 11 14  1  0  0  0  0 
 14 15  1  0  0  0  0 
 14 16  1  0  0  0  0 
 16 17  2  0  0  0  0 
 17 18  1  0  0  0  0 
 17 19  1  0  0  0  0 
 19 20  1  0  0  0  0 
 19 21  2  0  0  0  0 
 21 22  1  0  0  0  0 
 22 23  2  0  0  0  0 
 16 23  1  0  0  0  0 
 23 24  1  0  0  0  0 
 22 25  1  0  0  0  0 
 25 26  1  0  0  0  0 
 21 27  1  0  0  0  0 
 27 28  2  0  0  0  0 
 27 29  1  0  0  0  0 
 29 30  1  0  0  0  0 
 30 31  1  0  0  0  0 
 30 32  1  0  0  0  0 
 30 33  1  0  0  0  0 
 33 34  1  0  0  0  0 
 33 35  1  0  0  0  0 
 33 36  1  0  0  0  0 
 36 37  1  0  0  0  0 
 37 38  1  0  0  0  0 
 37 39  1  0  0  0  0 
 37 40  1  0  0  0  0 
 40 41  1  0  0  0  0 
 40 42  1  0  0  0  0 
 40 43  1  0  0  0  0 
 43 44  1  0  0  0  0 
 44 45  1  0  0  0  0 
 44 46  1  0  0  0  0 
 44 47  1  0  0  0  0 
 47 48  1  0  0  0  0 
 47 49  1  0  0  0  0 
 47 50  1  0  0  0  0 
 50 51  1  0  0  0  0 
 51 52  1  0  0  0  0 
 51 53  1  0  0  0  0 
 51 54  1  0  0  0  0 
 54 55  1  0  0  0  0 
 54 56  1  0  0  0  0 
 54 57  1  0  0  0  0 
 57 58  1  0  0  0  0 
 58 59  1  0  0  0  0 
 58 60  1  0  0  0  0 
 58 61  1  0  0  0  0 
 61 62  1  0  0  0  0 
 61 63  1  0  0  0  0 
 61 64  1  0  0  0  0 
 64 65  1  0  0  0  0 
 65 66  1  0  0  0  0 
 65 67  1  0  0  0  0 
 65 68  1  0  0  0  0 
 68 69  1  0  0  0  0 
 68 70  1  0  0  0  0 
 68 71  1  0  0  0  0 
 71 72  1  0  0  0  0 
 72 73  1  0  0  0  0 
 72 74  1  0  0  0  0 
 72 75  1  0  0  0  0 
 75 76  1  0  0  0  0 
 75 77  1  0  0  0  0 
 75 78  1  0  0  0  0 
 78 79  1  0  0  0  0 
 79 80  1  0  0  0  0 
 79 81  1  0  0  0  0 
 79 82  1  0  0  0  0 
 82 83  1  0  0  0  0 
 82 84  1  0  0  0  0 
 82 85  1  0  0  0  0 
 85 86  1  0  0  0  0 
 86 87  1  0  0  0  0 
 86 88  1  0  0  0  0 
 86 89  1  0  0  0  0 
 89 90  1  0  0  0  0 
 89 91  1  0  0  0  0 
 89 92  1  0  0  0  0 
 92 93  1  0  0  0  0 
 93 94  1  0  0  0  0 
 93 95  1  0  0  0  0 
 93 96  1  0  0  0  0 
M  END
> <Rank>
82

> <Priority_score>
0.02

> <Reaction_type>
aromatic hydroxylation

> <Parent_ID>
18

> <Parent_InChI>
InChI=1S/C30H53NO11/c1-3-4-9-31-29-7-5-28(6-8-29)30(32)42-27-26-41-25-24-40-23-22-39-21-20-38-19-18-37-17-16-36-15-14-35-13-12-34-11-10-33-2/h5-8,31H,3-4,9-27H2,1-2H3

> <Parent_SMILES>
CCCCNc1ccc(C(=O)OCCOCCOCCOCCOCCOCCOCCOCCOCCOC)cc1

$$$$
Molecule 19
  CDK     0516241031

 31 33  0  0  0  0  0  0  0  0999 V2000
    7.1000   -2.5981    0.0000 C   0  0  0  0  0  0  0  0  0  0  0  0
    6.3500   -1.2990    0.0000 C   0  0  0  0  0  0  0  0  0  0  0  0
    4.8500   -1.2990    0.0000 C   0  0  0  0  0  0  0  0  0  0  0  0
    4.1000   -0.0000    0.0000 C   0  0  0  0  0  0  0  0  0  0  0  0
    2.6000    0.0000    0.0000 C   0  0  0  0  0  0  0  0  0  0  0  0
    1.7200    1.2100    0.0000 C   0  0  0  0  0  0  0  0  0  0  0  0
    0.2900    0.7500    0.0000 C   0  0  0  0  0  0  0  0  0  0  0  0
    0.2900   -0.7500    0.0000 C   0  0  0  0  0  0  0  0  0  0  0  0
   -1.0100   -1.5000    0.0000 C   0  0  0  0  0  0  0  0  0  0  0  0
   -2.3100   -0.7500    0.0000 C   0  0  0  0  0  0  0  0  0  0  0  0
   -2.3100    0.7500    0.0000 C   0  0  0  0  0  0  0  0  0  0  0  0
   -1.0100    1.5000    0.0000 C   0  0  0  0  0  0  0  0  0  0  0  0
    1.7200   -1.2100    0.0000 O   0  0  0  0  0  0  0  0  0  0  0  0
    2.1853    2.6360    0.0000 C   0  0  0  0  0  0  0  0  0  0  0  0
    3.6529    2.9461    0.0000 O   0  0  0  0  0  0  0  0  0  0  0  0
    1.1830    3.7520    0.0000 C   0  0  0  0  0  0  0  0  0  0  0  0
   -0.2765    3.4413    0.0000 C   0  0  0  0  0  0  0  0  0  0  0  0
   -1.2496    4.5497    0.0000 C   0  0  0  0  0  0  0  0  0  0  0  0
   -0.8169    5.9654    0.0000 C   0  0  0  0  0  0  0  0  0  0  0  0
    0.6521    6.2729    0.0000 C   0  0  0  0  0  0  0  0  0  0  0  0
    1.6442    5.1583    0.0000 C   0  0  0  0  0  0  0  0  0  0  0  0
    1.1219    7.6974    0.0000 I   0  0  0  0  0  0  0  0  0  0  0  0
   -1.8286    7.0728    0.0000 O   0  0  0  0  0  0  0  0  0  0  0  0
   -1.3754    8.5027    0.0000 C   0  0  0  0  0  0  0  0  0  0  0  0
   -2.3871    9.6101    0.0000 C   0  0  0  0  0  0  0  0  0  0  0  0
   -1.9339   11.0400    0.0000 N   0  0  0  0  0  0  0  0  0  0  0  0
   -2.9457   12.1475    0.0000 C   0  0  0  0  0  0  0  0  0  0  0  0
   -2.4925   13.5774    0.0000 C   0  0  0  0  0  0  0  0  0  0  0  0
   -0.4690   11.3625    0.0000 C   0  0  0  0  0  0  0  0  0  0  0  0
   -0.0158   12.7924    0.0000 C   0  0  0  0  0  0  0  0  0  0  0  0
   -2.7160    4.2342    0.0000 I   0  0  0  0  0  0  0  0  0  0  0  0
  1  2  1  0  0  0  0 
  2  3  1  0  0  0  0 
  3  4  1  0  0  0  0 
  4  5  1  0  0  0  0 
  5  6  2  0  0  0  0 
  6  7  1  0  0  0  0 
  7  8  2  0  0  0  0 
  8  9  1  0  0  0  0 
  9 10  2  0  0  0  0 
 10 11  1  0  0  0  0 
 11 12  2  0  0  0  0 
  7 12  1  0  0  0  0 
  8 13  1  0  0  0  0 
  5 13  1  0  0  0  0 
  6 14  1  0  0  0  0 
 14 15  2  0  0  0  0 
 14 16  1  0  0  0  0 
 16 17  2  0  0  0  0 
 17 18  1  0  0  0  0 
 18 19  2  0  0  0  0 
 19 20  1  0  0  0  0 
 20 21  2  0  0  0  0 
 16 21  1  0  0  0  0 
 20 22  1  0  0  0  0 
 19 23  1  0  0  0  0 
 23 24  1  0  0  0  0 
 24 25  1  0  0  0  0 
 25 26  1  0  0  0  0 
 26 27  1  0  0  0  0 
 27 28  1  0  0  0  0 
 26 29  1  0  0  0  0 
 29 30  1  0  0  0  0 
 18 31  1  0  0  0  0 
M  END
> <SMILES>
CCCCc1oc2ccccc2c1C(=O)c1cc(I)c(OCCN(CC)CC)c(I)c1

$$$$
Molecule 19_metabolite 1
  CDK     0516241031

 60 62  0  0  0  0  0  0  0  0999 V2000
   -2.1977   14.0714    0.0000 C   0  0  0  0  0  0  0  0  0  0  0  0
   -3.1905   15.1958    0.0000 H   0  0  0  0  0  0  0  0  0  0  0  0
   -1.2628   15.2444    0.0000 H   0  0  0  0  0  0  0  0  0  0  0  0
   -0.8801   13.3544    0.0000 H   0  0  0  0  0  0  0  0  0  0  0  0
   -2.6750   12.6494    0.0000 C   0  0  0  0  0  0  0  0  0  0  0  0
   -3.6099   11.4763    0.0000 H   0  0  0  0  0  0  0  0  0  0  0  0
   -3.9925   13.3664    0.0000 H   0  0  0  0  0  0  0  0  0  0  0  0
   -1.6821   11.5250    0.0000 N   0  0  0  0  0  0  0  0  0  0  0  0
   -0.2120   11.8226    0.0000 C   0  0  0  0  0  0  0  0  0  0  0  0
    1.2713   11.5995    0.0000 H   0  0  0  0  0  0  0  0  0  0  0  0
   -0.1741   10.3231    0.0000 H   0  0  0  0  0  0  0  0  0  0  0  0
    0.2654   13.2446    0.0000 C   0  0  0  0  0  0  0  0  0  0  0  0
   -0.7275   14.3690    0.0000 H   0  0  0  0  0  0  0  0  0  0  0  0
    1.2003   14.4177    0.0000 H   0  0  0  0  0  0  0  0  0  0  0  0
    1.5829   12.5276    0.0000 H   0  0  0  0  0  0  0  0  0  0  0  0
   -2.3122    9.6479    0.0000 C   0  0  0  0  0  0  0  0  0  0  0  0
   -3.2471    8.4749    0.0000 H   0  0  0  0  0  0  0  0  0  0  0  0
   -3.6297   10.3649    0.0000 H   0  0  0  0  0  0  0  0  0  0  0  0
   -1.3194    8.5235    0.0000 C   0  0  0  0  0  0  0  0  0  0  0  0
   -2.5991    7.7410    0.0000 H   0  0  0  0  0  0  0  0  0  0  0  0
   -0.7709    7.1274    0.0000 H   0  0  0  0  0  0  0  0  0  0  0  0
    0.1508    8.8211    0.0000 O   0  0  0  0  0  0  0  0  0  0  0  0
    1.1437    7.6968    0.0000 C   0  0  0  0  0  0  0  0  0  0  0  0
    0.6871    6.2886    0.0000 C   0  0  0  0  0  0  0  0  0  0  0  0
    1.6412    5.1639    0.0000 C   0  0  0  0  0  0  0  0  0  0  0  0
    1.1449    3.7484    0.0000 H   0  0  0  0  0  0  0  0  0  0  0  0
    3.1058    5.4498    0.0000 C   0  0  0  0  0  0  0  0  0  0  0  0
    3.5907    6.8481    0.0000 C   0  0  0  0  0  0  0  0  0  0  0  0
    5.0642    7.1289    0.0000 H   0  0  0  0  0  0  0  0  0  0  0  0
    2.6176    7.9794    0.0000 C   0  0  0  0  0  0  0  0  0  0  0  0
    3.1115    9.3958    0.0000 I   0  0  0  0  0  0  0  0  0  0  0  0
    4.0891    4.3171    0.0000 C   0  0  0  0  0  0  0  0  0  0  0  0
    3.5997    2.8991    0.0000 O   0  0  0  0  0  0  0  0  0  0  0  0
    6.9754    4.8761    0.0000 C   0  0  0  0  0  0  0  0  0  0  0  0
    8.0672    3.8531    0.0000 C   0  0  0  0  0  0  0  0  0  0  0  0
    7.8815    2.3646    0.0000 C   0  0  0  0  0  0  0  0  0  0  0  0
    7.1980    1.0294    0.0000 H   0  0  0  0  0  0  0  0  0  0  0  0
    6.4479    2.8059    0.0000 H   0  0  0  0  0  0  0  0  0  0  0  0
    9.0778    1.4596    0.0000 C   0  0  0  0  0  0  0  0  0  0  0  0
    9.8923    0.2000    0.0000 H   0  0  0  0  0  0  0  0  0  0  0  0
    7.9788    0.4387    0.0000 H   0  0  0  0  0  0  0  0  0  0  0  0
   10.4596    2.0430    0.0000 C   0  0  0  0  0  0  0  0  0  0  0  0
    9.6451    3.3026    0.0000 H   0  0  0  0  0  0  0  0  0  0  0  0
   11.5586    3.0639    0.0000 H   0  0  0  0  0  0  0  0  0  0  0  0
   11.6559    1.1380    0.0000 C   0  0  0  0  0  0  0  0  0  0  0  0
   11.4702   -0.3505    0.0000 O   0  0  0  0  0  0  0  0  0  0  0  0
   13.0377    1.7214    0.0000 O   0  0  0  0  0  0  0  0  0  0  0  0
   14.2340    0.8164    0.0000 H   0  0  0  0  0  0  0  0  0  0  0  0
    9.3768    4.5765    0.0000 O   0  0  0  0  0  0  0  0  0  0  0  0
    9.0974    6.0525    0.0000 C   0  0  0  0  0  0  0  0  0  0  0  0
    7.6089    6.2381    0.0000 C   0  0  0  0  0  0  0  0  0  0  0  0
    7.0256    7.6210    0.0000 C   0  0  0  0  0  0  0  0  0  0  0  0
    5.5371    7.8066    0.0000 H   0  0  0  0  0  0  0  0  0  0  0  0
    7.9307    8.8181    0.0000 C   0  0  0  0  0  0  0  0  0  0  0  0
    7.3471   10.1999    0.0000 H   0  0  0  0  0  0  0  0  0  0  0  0
    9.4192    8.6325    0.0000 C   0  0  0  0  0  0  0  0  0  0  0  0
   10.3244    9.8285    0.0000 H   0  0  0  0  0  0  0  0  0  0  0  0
   10.0025    7.2496    0.0000 C   0  0  0  0  0  0  0  0  0  0  0  0
   11.4910    7.0640    0.0000 H   0  0  0  0  0  0  0  0  0  0  0  0
   -0.7845    5.9980    0.0000 I   0  0  0  0  0  0  0  0  0  0  0  0
  1  2  1  0  0  0  0 
  1  3  1  0  0  0  0 
  1  4  1  0  0  0  0 
  1  5  1  0  0  0  0 
  5  6  1  0  0  0  0 
  5  7  1  0  0  0  0 
  5  8  1  0  0  0  0 
  8  9  1  0  0  0  0 
  9 10  1  0  0  0  0 
  9 11  1  0  0  0  0 
  9 12  1  0  0  0  0 
 12 13  1  0  0  0  0 
 12 14  1  0  0  0  0 
 12 15  1  0  0  0  0 
  8 16  1  0  0  0  0 
 16 17  1  0  0  0  0 
 16 18  1  0  0  0  0 
 16 19  1  0  0  0  0 
 19 20  1  0  0  0  0 
 19 21  1  0  0  0  0 
 19 22  1  0  0  0  0 
 22 23  1  0  0  0  0 
 23 24  2  0  0  0  0 
 24 25  1  0  0  0  0 
 25 26  1  0  0  0  0 
 25 27  2  0  0  0  0 
 27 28  1  0  0  0  0 
 28 29  1  0  0  0  0 
 28 30  2  0  0  0  0 
 23 30  1  0  0  0  0 
 30 31  1  0  0  0  0 
 27 32  1  0  0  0  0 
 32 33  2  0  0  0  0 
 32 34  1  0  0  0  0 
 34 35  2  0  0  0  0 
 35 36  1  0  0  0  0 
 36 37  1  0  0  0  0 
 36 38  1  0  0  0  0 
 36 39  1  0  0  0  0 
 39 40  1  0  0  0  0 
 39 41  1  0  0  0  0 
 39 42  1  0  0  0  0 
 42 43  1  0  0  0  0 
 42 44  1  0  0  0  0 
 42 45  1  0  0  0  0 
 45 46  2  0  0  0  0 
 45 47  1  0  0  0  0 
 47 48  1  0  0  0  0 
 35 49  1  0  0  0  0 
 49 50  1  0  0  0  0 
 50 51  2  0  0  0  0 
 34 51  1  0  0  0  0 
 51 52  1  0  0  0  0 
 52 53  1  0  0  0  0 
 52 54  2  0  0  0  0 
 54 55  1  0  0  0  0 
 54 56  1  0  0  0  0 
 56 57  1  0  0  0  0 
 56 58  2  0  0  0  0 
 50 58  1  0  0  0  0 
 58 59  1  0  0  0  0 
 24 60  1  0  0  0  0 
M  END
> <Rank>
1

> <Priority_score>
0.704

> <Reaction_type>
carboxylation_(primary_carbon_next_to_sec_carbon)

> <Parent_ID>
19

> <Parent_InChI>
InChI=1S/C25H29I2NO3/c1-4-7-11-22-23(18-10-8-9-12-21(18)31-22)24(29)17-15-19(26)25(20(27)16-17)30-14-13-28(5-2)6-3/h8-10,12,15-16H,4-7,11,13-14H2,1-3H3

> <Parent_SMILES>
CCCCc1oc2ccccc2c1C(=O)c1cc(I)c(OCCN(CC)CC)c(I)c1

$$$$
Molecule 19_metabolite 2
  CDK     0516241031

 61 63  0  0  0  0  0  0  0  0999 V2000
   -2.1977   14.0714    0.0000 C   0  0  0  0  0  0  0  0  0  0  0  0
   -3.1905   15.1958    0.0000 H   0  0  0  0  0  0  0  0  0  0  0  0
   -1.2628   15.2444    0.0000 H   0  0  0  0  0  0  0  0  0  0  0  0
   -0.8801   13.3544    0.0000 H   0  0  0  0  0  0  0  0  0  0  0  0
   -2.6750   12.6494    0.0000 C   0  0  0  0  0  0  0  0  0  0  0  0
   -3.6099   11.4763    0.0000 H   0  0  0  0  0  0  0  0  0  0  0  0
   -3.9925   13.3664    0.0000 H   0  0  0  0  0  0  0  0  0  0  0  0
   -1.6821   11.5250    0.0000 N   0  0  0  0  0  0  0  0  0  0  0  0
   -0.2120   11.8226    0.0000 C   0  0  0  0  0  0  0  0  0  0  0  0
    1.2713   11.5995    0.0000 H   0  0  0  0  0  0  0  0  0  0  0  0
   -0.1741   10.3231    0.0000 H   0  0  0  0  0  0  0  0  0  0  0  0
    0.2654   13.2446    0.0000 C   0  0  0  0  0  0  0  0  0  0  0  0
   -0.7275   14.3690    0.0000 H   0  0  0  0  0  0  0  0  0  0  0  0
    1.2003   14.4177    0.0000 H   0  0  0  0  0  0  0  0  0  0  0  0
    1.5829   12.5276    0.0000 H   0  0  0  0  0  0  0  0  0  0  0  0
   -2.3122    9.6479    0.0000 C   0  0  0  0  0  0  0  0  0  0  0  0
   -3.2471    8.4749    0.0000 H   0  0  0  0  0  0  0  0  0  0  0  0
   -3.6297   10.3649    0.0000 H   0  0  0  0  0  0  0  0  0  0  0  0
   -1.3194    8.5235    0.0000 C   0  0  0  0  0  0  0  0  0  0  0  0
   -2.5991    7.7410    0.0000 H   0  0  0  0  0  0  0  0  0  0  0  0
   -0.7709    7.1274    0.0000 H   0  0  0  0  0  0  0  0  0  0  0  0
    0.1508    8.8211    0.0000 O   0  0  0  0  0  0  0  0  0  0  0  0
    1.1437    7.6968    0.0000 C   0  0  0  0  0  0  0  0  0  0  0  0
    0.6871    6.2886    0.0000 C   0  0  0  0  0  0  0  0  0  0  0  0
    1.6412    5.1639    0.0000 C   0  0  0  0  0  0  0  0  0  0  0  0
    1.1449    3.7484    0.0000 H   0  0  0  0  0  0  0  0  0  0  0  0
    3.1058    5.4498    0.0000 C   0  0  0  0  0  0  0  0  0  0  0  0
    3.5907    6.8481    0.0000 C   0  0  0  0  0  0  0  0  0  0  0  0
    5.0642    7.1289    0.0000 H   0  0  0  0  0  0  0  0  0  0  0  0
    2.6176    7.9794    0.0000 C   0  0  0  0  0  0  0  0  0  0  0  0
    3.1115    9.3958    0.0000 I   0  0  0  0  0  0  0  0  0  0  0  0
    4.0891    4.3171    0.0000 C   0  0  0  0  0  0  0  0  0  0  0  0
    3.5997    2.8991    0.0000 O   0  0  0  0  0  0  0  0  0  0  0  0
    6.9754    4.8761    0.0000 C   0  0  0  0  0  0  0  0  0  0  0  0
    8.0672    3.8531    0.0000 C   0  0  0  0  0  0  0  0  0  0  0  0
    7.8815    2.3646    0.0000 C   0  0  0  0  0  0  0  0  0  0  0  0
    7.1980    1.0294    0.0000 H   0  0  0  0  0  0  0  0  0  0  0  0
    6.4479    2.8059    0.0000 H   0  0  0  0  0  0  0  0  0  0  0  0
    9.0778    1.4596    0.0000 C   0  0  0  0  0  0  0  0  0  0  0  0
    9.8923    0.2000    0.0000 H   0  0  0  0  0  0  0  0  0  0  0  0
    7.9788    0.4387    0.0000 H   0  0  0  0  0  0  0  0  0  0  0  0
   10.4596    2.0430    0.0000 C   0  0  0  0  0  0  0  0  0  0  0  0
    9.6451    3.3026    0.0000 H   0  0  0  0  0  0  0  0  0  0  0  0
   11.5586    3.0639    0.0000 H   0  0  0  0  0  0  0  0  0  0  0  0
   11.6559    1.1380    0.0000 C   0  0  0  0  0  0  0  0  0  0  0  0
   13.0895    0.6967    0.0000 H   0  0  0  0  0  0  0  0  0  0  0  0
   12.3394    2.4732    0.0000 H   0  0  0  0  0  0  0  0  0  0  0  0
   11.4702   -0.3505    0.0000 O   0  0  0  0  0  0  0  0  0  0  0  0
   12.6664   -1.2555    0.0000 H   0  0  0  0  0  0  0  0  0  0  0  0
    9.3768    4.5765    0.0000 O   0  0  0  0  0  0  0  0  0  0  0  0
    9.0974    6.0525    0.0000 C   0  0  0  0  0  0  0  0  0  0  0  0
    7.6089    6.2381    0.0000 C   0  0  0  0  0  0  0  0  0  0  0  0
    7.0256    7.6210    0.0000 C   0  0  0  0  0  0  0  0  0  0  0  0
    5.5371    7.8066    0.0000 H   0  0  0  0  0  0  0  0  0  0  0  0
    7.9307    8.8181    0.0000 C   0  0  0  0  0  0  0  0  0  0  0  0
    7.3471   10.1999    0.0000 H   0  0  0  0  0  0  0  0  0  0  0  0
    9.4192    8.6325    0.0000 C   0  0  0  0  0  0  0  0  0  0  0  0
   10.3244    9.8285    0.0000 H   0  0  0  0  0  0  0  0  0  0  0  0
   10.0025    7.2496    0.0000 C   0  0  0  0  0  0  0  0  0  0  0  0
   11.4910    7.0640    0.0000 H   0  0  0  0  0  0  0  0  0  0  0  0
   -0.7845    5.9980    0.0000 I   0  0  0  0  0  0  0  0  0  0  0  0
  1  2  1  0  0  0  0 
  1  3  1  0  0  0  0 
  1  4  1  0  0  0  0 
  1  5  1  0  0  0  0 
  5  6  1  0  0  0  0 
  5  7  1  0  0  0  0 
  5  8  1  0  0  0  0 
  8  9  1  0  0  0  0 
  9 10  1  0  0  0  0 
  9 11  1  0  0  0  0 
  9 12  1  0  0  0  0 
 12 13  1  0  0  0  0 
 12 14  1  0  0  0  0 
 12 15  1  0  0  0  0 
  8 16  1  0  0  0  0 
 16 17  1  0  0  0  0 
 16 18  1  0  0  0  0 
 16 19  1  0  0  0  0 
 19 20  1  0  0  0  0 
 19 21  1  0  0  0  0 
 19 22  1  0  0  0  0 
 22 23  1  0  0  0  0 
 23 24  2  0  0  0  0 
 24 25  1  0  0  0  0 
 25 26  1  0  0  0  0 
 25 27  2  0  0  0  0 
 27 28  1  0  0  0  0 
 28 29  1  0  0  0  0 
 28 30  2  0  0  0  0 
 23 30  1  0  0  0  0 
 30 31  1  0  0  0  0 
 27 32  1  0  0  0  0 
 32 33  2  0  0  0  0 
 32 34  1  0  0  0  0 
 34 35  2  0  0  0  0 
 35 36  1  0  0  0  0 
 36 37  1  0  0  0  0 
 36 38  1  0  0  0  0 
 36 39  1  0  0  0  0 
 39 40  1  0  0  0  0 
 39 41  1  0  0  0  0 
 39 42  1  0  0  0  0 
 42 43  1  0  0  0  0 
 42 44  1  0  0  0  0 
 42 45  1  0  0  0  0 
 45 46  1  0  0  0  0 
 45 47  1  0  0  0  0 
 45 48  1  0  0  0  0 
 48 49  1  0  0  0  0 
 35 50  1  0  0  0  0 
 50 51  1  0  0  0  0 
 51 52  2  0  0  0  0 
 34 52  1  0  0  0  0 
 52 53  1  0  0  0  0 
 53 54  1  0  0  0  0 
 53 55  2  0  0  0  0 
 55 56  1  0  0  0  0 
 55 57  1  0  0  0  0 
 57 58  1  0  0  0  0 
 57 59  2  0  0  0  0 
 51 59  1  0  0  0  0 
 59 60  1  0  0  0  0 
 24 61  1  0  0  0  0 
M  END
> <Rank>
1

> <Priority_score>
0.704

> <Reaction_type>
aliphatic_hydroxylation_(primary_carbon_next_to_sec_carbon)

> <Parent_ID>
19

> <Parent_InChI>
InChI=1S/C25H29I2NO3/c1-4-7-11-22-23(18-10-8-9-12-21(18)31-22)24(29)17-15-19(26)25(20(27)16-17)30-14-13-28(5-2)6-3/h8-10,12,15-16H,4-7,11,13-14H2,1-3H3

> <Parent_SMILES>
CCCCc1oc2ccccc2c1C(=O)c1cc(I)c(OCCN(CC)CC)c(I)c1

$$$$
Molecule 19_metabolite 3
  CDK     0516241031

 61 63  0  0  0  0  0  0  0  0999 V2000
   -2.5805   14.3610    0.0000 C   0  0  0  0  0  0  0  0  0  0  0  0
   -3.5733   15.4854    0.0000 H   0  0  0  0  0  0  0  0  0  0  0  0
   -1.6456   15.5340    0.0000 H   0  0  0  0  0  0  0  0  0  0  0  0
   -1.2629   13.6440    0.0000 H   0  0  0  0  0  0  0  0  0  0  0  0
   -3.0578   12.9390    0.0000 C   0  0  0  0  0  0  0  0  0  0  0  0
   -3.9927   11.7660    0.0000 H   0  0  0  0  0  0  0  0  0  0  0  0
   -4.3753   13.6560    0.0000 H   0  0  0  0  0  0  0  0  0  0  0  0
   -2.0649   11.8146    0.0000 N   0  0  0  0  0  0  0  0  0  0  0  0
   -0.5948   12.1122    0.0000 C   0  0  0  0  0  0  0  0  0  0  0  0
    0.8886   11.8891    0.0000 H   0  0  0  0  0  0  0  0  0  0  0  0
   -0.5569   10.6127    0.0000 H   0  0  0  0  0  0  0  0  0  0  0  0
   -0.1174   13.5342    0.0000 C   0  0  0  0  0  0  0  0  0  0  0  0
   -1.1103   14.6586    0.0000 H   0  0  0  0  0  0  0  0  0  0  0  0
    0.8175   14.7073    0.0000 H   0  0  0  0  0  0  0  0  0  0  0  0
    1.2001   12.8172    0.0000 H   0  0  0  0  0  0  0  0  0  0  0  0
   -2.6950    9.9375    0.0000 C   0  0  0  0  0  0  0  0  0  0  0  0
   -3.6299    8.7645    0.0000 H   0  0  0  0  0  0  0  0  0  0  0  0
   -4.0125   10.6545    0.0000 H   0  0  0  0  0  0  0  0  0  0  0  0
   -1.7021    8.8131    0.0000 C   0  0  0  0  0  0  0  0  0  0  0  0
   -2.9819    8.0306    0.0000 H   0  0  0  0  0  0  0  0  0  0  0  0
   -1.1537    7.4170    0.0000 H   0  0  0  0  0  0  0  0  0  0  0  0
   -0.2320    9.1108    0.0000 O   0  0  0  0  0  0  0  0  0  0  0  0
    0.7609    7.9864    0.0000 C   0  0  0  0  0  0  0  0  0  0  0  0
    0.3043    6.5782    0.0000 C   0  0  0  0  0  0  0  0  0  0  0  0
    1.2584    5.4535    0.0000 C   0  0  0  0  0  0  0  0  0  0  0  0
    0.7621    4.0380    0.0000 H   0  0  0  0  0  0  0  0  0  0  0  0
    2.7230    5.7394    0.0000 C   0  0  0  0  0  0  0  0  0  0  0  0
    3.2079    7.1377    0.0000 C   0  0  0  0  0  0  0  0  0  0  0  0
    4.6814    7.4185    0.0000 H   0  0  0  0  0  0  0  0  0  0  0  0
    2.2349    8.2690    0.0000 C   0  0  0  0  0  0  0  0  0  0  0  0
    2.7287    9.6854    0.0000 I   0  0  0  0  0  0  0  0  0  0  0  0
    3.7063    4.6067    0.0000 C   0  0  0  0  0  0  0  0  0  0  0  0
    3.2169    3.1888    0.0000 O   0  0  0  0  0  0  0  0  0  0  0  0
    6.5926    5.1657    0.0000 C   0  0  0  0  0  0  0  0  0  0  0  0
    7.6844    4.1427    0.0000 C   0  0  0  0  0  0  0  0  0  0  0  0
    7.4988    2.6542    0.0000 C   0  0  0  0  0  0  0  0  0  0  0  0
    6.8152    1.3190    0.0000 H   0  0  0  0  0  0  0  0  0  0  0  0
    6.0651    3.0955    0.0000 H   0  0  0  0  0  0  0  0  0  0  0  0
    8.6950    1.7492    0.0000 C   0  0  0  0  0  0  0  0  0  0  0  0
    9.5095    0.4896    0.0000 H   0  0  0  0  0  0  0  0  0  0  0  0
    7.5960    0.7283    0.0000 H   0  0  0  0  0  0  0  0  0  0  0  0
   10.0768    2.3326    0.0000 C   0  0  0  0  0  0  0  0  0  0  0  0
    9.2623    3.5922    0.0000 H   0  0  0  0  0  0  0  0  0  0  0  0
   11.6559    1.1380    0.0000 C   0  0  0  0  0  0  0  0  0  0  0  0
   13.0377    1.7214    0.0000 H   0  0  0  0  0  0  0  0  0  0  0  0
   12.4704   -0.1216    0.0000 H   0  0  0  0  0  0  0  0  0  0  0  0
   10.5569    0.1171    0.0000 H   0  0  0  0  0  0  0  0  0  0  0  0
   11.1758    3.3535    0.0000 O   0  0  0  0  0  0  0  0  0  0  0  0
   12.6095    2.9122    0.0000 H   0  0  0  0  0  0  0  0  0  0  0  0
    8.9940    4.8661    0.0000 O   0  0  0  0  0  0  0  0  0  0  0  0
    8.7146    6.3421    0.0000 C   0  0  0  0  0  0  0  0  0  0  0  0
    7.2261    6.5277    0.0000 C   0  0  0  0  0  0  0  0  0  0  0  0
    6.6428    7.9106    0.0000 C   0  0  0  0  0  0  0  0  0  0  0  0
    5.1543    8.0962    0.0000 H   0  0  0  0  0  0  0  0  0  0  0  0
    7.5479    9.1077    0.0000 C   0  0  0  0  0  0  0  0  0  0  0  0
    6.9643   10.4895    0.0000 H   0  0  0  0  0  0  0  0  0  0  0  0
    9.0364    8.9221    0.0000 C   0  0  0  0  0  0  0  0  0  0  0  0
    9.9416   10.1181    0.0000 H   0  0  0  0  0  0  0  0  0  0  0  0
    9.6197    7.5392    0.0000 C   0  0  0  0  0  0  0  0  0  0  0  0
   11.1082    7.3536    0.0000 H   0  0  0  0  0  0  0  0  0  0  0  0
   -1.1673    6.2876    0.0000 I   0  0  0  0  0  0  0  0  0  0  0  0
  1  2  1  0  0  0  0 
  1  3  1  0  0  0  0 
  1  4  1  0  0  0  0 
  1  5  1  0  0  0  0 
  5  6  1  0  0  0  0 
  5  7  1  0  0  0  0 
  5  8  1  0  0  0  0 
  8  9  1  0  0  0  0 
  9 10  1  0  0  0  0 
  9 11  1  0  0  0  0 
  9 12  1  0  0  0  0 
 12 13  1  0  0  0  0 
 12 14  1  0  0  0  0 
 12 15  1  0  0  0  0 
  8 16  1  0  0  0  0 
 16 17  1  0  0  0  0 
 16 18  1  0  0  0  0 
 16 19  1  0  0  0  0 
 19 20  1  0  0  0  0 
 19 21  1  0  0  0  0 
 19 22  1  0  0  0  0 
 22 23  1  0  0  0  0 
 23 24  2  0  0  0  0 
 24 25  1  0  0  0  0 
 25 26  1  0  0  0  0 
 25 27  2  0  0  0  0 
 27 28  1  0  0  0  0 
 28 29  1  0  0  0  0 
 28 30  2  0  0  0  0 
 23 30  1  0  0  0  0 
 30 31  1  0  0  0  0 
 27 32  1  0  0  0  0 
 32 33  2  0  0  0  0 
 32 34  1  0  0  0  0 
 34 35  2  0  0  0  0 
 35 36  1  0  0  0  0 
 36 37  1  0  0  0  0 
 36 38  1  0  0  0  0 
 36 39  1  0  0  0  0 
 39 40  1  0  0  0  0 
 39 41  1  0  0  0  0 
 39 42  1  0  0  0  0 
 42 43  1  0  0  0  0 
 42 44  1  0  0  0  0 
 44 45  1  0  0  0  0 
 44 46  1  0  0  0  0 
 44 47  1  0  0  0  0 
 42 48  1  0  0  0  0 
 48 49  1  0  0  0  0 
 35 50  1  0  0  0  0 
 50 51  1  0  0  0  0 
 51 52  2  0  0  0  0 
 34 52  1  0  0  0  0 
 52 53  1  0  0  0  0 
 53 54  1  0  0  0  0 
 53 55  2  0  0  0  0 
 55 56  1  0  0  0  0 
 55 57  1  0  0  0  0 
 57 58  1  0  0  0  0 
 57 59  2  0  0  0  0 
 51 59  1  0  0  0  0 
 59 60  1  0  0  0  0 
 24 61  1  0  0  0  0 
M  END
> <Rank>
1

> <Priority_score>
0.704

> <Reaction_type>
aliphatic_hydroxylation_(sec_carbon,next_to_CH3)

> <Parent_ID>
19

> <Parent_InChI>
InChI=1S/C25H29I2NO3/c1-4-7-11-22-23(18-10-8-9-12-21(18)31-22)24(29)17-15-19(26)25(20(27)16-17)30-14-13-28(5-2)6-3/h8-10,12,15-16H,4-7,11,13-14H2,1-3H3

> <Parent_SMILES>
CCCCc1oc2ccccc2c1C(=O)c1cc(I)c(OCCN(CC)CC)c(I)c1

$$$$
Molecule 19_metabolite 4
  CDK     0516241031

 61 63  0  0  0  0  0  0  0  0999 V2000
   10.2365   -0.8305    0.0000 C   0  0  0  0  0  0  0  0  0  0  0  0
   11.5978   -0.2006    0.0000 H   0  0  0  0  0  0  0  0  0  0  0  0
    9.1727   -1.8879    0.0000 H   0  0  0  0  0  0  0  0  0  0  0  0
   11.0932   -2.0617    0.0000 H   0  0  0  0  0  0  0  0  0  0  0  0
    9.0103    0.0336    0.0000 C   0  0  0  0  0  0  0  0  0  0  0  0
    8.3723   -1.3240    0.0000 H   0  0  0  0  0  0  0  0  0  0  0  0
    7.5626    0.4261    0.0000 H   0  0  0  0  0  0  0  0  0  0  0  0
    9.1455    1.5275    0.0000 C   0  0  0  0  0  0  0  0  0  0  0  0
    9.7835    2.8850    0.0000 H   0  0  0  0  0  0  0  0  0  0  0  0
   10.5933    1.1349    0.0000 H   0  0  0  0  0  0  0  0  0  0  0  0
    7.5270    2.6680    0.0000 C   0  0  0  0  0  0  0  0  0  0  0  0
    6.8890    1.3104    0.0000 H   0  0  0  0  0  0  0  0  0  0  0  0
    6.0793    3.0606    0.0000 H   0  0  0  0  0  0  0  0  0  0  0  0
    7.6622    4.1619    0.0000 C   0  0  0  0  0  0  0  0  0  0  0  0
    6.5365    5.1474    0.0000 C   0  0  0  0  0  0  0  0  0  0  0  0
    7.1235    6.5301    0.0000 C   0  0  0  0  0  0  0  0  0  0  0  0
    8.6174    6.3949    0.0000 C   0  0  0  0  0  0  0  0  0  0  0  0
    9.4815    7.6220    0.0000 C   0  0  0  0  0  0  0  0  0  0  0  0
   10.9754    7.4868    0.0000 H   0  0  0  0  0  0  0  0  0  0  0  0
    8.8517    8.9843    0.0000 C   0  0  0  0  0  0  0  0  0  0  0  0
    9.7160   10.2103    0.0000 H   0  0  0  0  0  0  0  0  0  0  0  0
    7.3578    9.1195    0.0000 C   0  0  0  0  0  0  0  0  0  0  0  0
    6.7278   10.4808    0.0000 H   0  0  0  0  0  0  0  0  0  0  0  0
    6.4937    7.8924    0.0000 C   0  0  0  0  0  0  0  0  0  0  0  0
    4.9998    8.0276    0.0000 H   0  0  0  0  0  0  0  0  0  0  0  0
    8.9466    4.9293    0.0000 O   0  0  0  0  0  0  0  0  0  0  0  0
    3.6707    4.4911    0.0000 C   0  0  0  0  0  0  0  0  0  0  0  0
    3.2296    3.0574    0.0000 O   0  0  0  0  0  0  0  0  0  0  0  0
    2.6496    5.5899    0.0000 C   0  0  0  0  0  0  0  0  0  0  0  0
    3.0905    7.0155    0.0000 C   0  0  0  0  0  0  0  0  0  0  0  0
    4.5510    7.3575    0.0000 H   0  0  0  0  0  0  0  0  0  0  0  0
    2.0743    8.0844    0.0000 C   0  0  0  0  0  0  0  0  0  0  0  0
    0.6255    7.7811    0.0000 C   0  0  0  0  0  0  0  0  0  0  0  0
    0.1868    6.3458    0.0000 C   0  0  0  0  0  0  0  0  0  0  0  0
    1.2074    5.2573    0.0000 C   0  0  0  0  0  0  0  0  0  0  0  0
    0.7707    3.8223    0.0000 H   0  0  0  0  0  0  0  0  0  0  0  0
   -1.2743    6.0063    0.0000 I   0  0  0  0  0  0  0  0  0  0  0  0
   -0.3863    8.8885    0.0000 O   0  0  0  0  0  0  0  0  0  0  0  0
   -1.8512    8.5661    0.0000 C   0  0  0  0  0  0  0  0  0  0  0  0
   -1.2793    7.1794    0.0000 H   0  0  0  0  0  0  0  0  0  0  0  0
   -3.1175    7.7620    0.0000 H   0  0  0  0  0  0  0  0  0  0  0  0
   -2.8629    9.6735    0.0000 C   0  0  0  0  0  0  0  0  0  0  0  0
   -4.1924   10.3681    0.0000 H   0  0  0  0  0  0  0  0  0  0  0  0
   -3.7779    8.4848    0.0000 H   0  0  0  0  0  0  0  0  0  0  0  0
   -2.2647   11.5610    0.0000 N   0  0  0  0  0  0  0  0  0  0  0  0
   -3.2764   12.6684    0.0000 C   0  0  0  0  0  0  0  0  0  0  0  0
   -4.6059   13.3630    0.0000 H   0  0  0  0  0  0  0  0  0  0  0  0
   -4.1914   11.4797    0.0000 H   0  0  0  0  0  0  0  0  0  0  0  0
   -2.8232   14.0983    0.0000 C   0  0  0  0  0  0  0  0  0  0  0  0
   -3.8350   15.2057    0.0000 H   0  0  0  0  0  0  0  0  0  0  0  0
   -1.4938   13.4037    0.0000 H   0  0  0  0  0  0  0  0  0  0  0  0
   -1.9083   15.2870    0.0000 H   0  0  0  0  0  0  0  0  0  0  0  0
   -0.7998   11.8834    0.0000 C   0  0  0  0  0  0  0  0  0  0  0  0
   -0.7366   10.3848    0.0000 H   0  0  0  0  0  0  0  0  0  0  0  0
   -0.3466   13.3133    0.0000 C   0  0  0  0  0  0  0  0  0  0  0  0
   -1.3583   14.4208    0.0000 H   0  0  0  0  0  0  0  0  0  0  0  0
    0.9829   12.6187    0.0000 H   0  0  0  0  0  0  0  0  0  0  0  0
    0.5683   14.5020    0.0000 H   0  0  0  0  0  0  0  0  0  0  0  0
    1.1629   11.6221    0.0000 O   0  0  0  0  0  0  0  0  0  0  0  0
    2.0778   12.8107    0.0000 H   0  0  0  0  0  0  0  0  0  0  0  0
    2.5207    9.5165    0.0000 I   0  0  0  0  0  0  0  0  0  0  0  0
  1  2  1  0  0  0  0 
  1  3  1  0  0  0  0 
  1  4  1  0  0  0  0 
  1  5  1  0  0  0  0 
  5  6  1  0  0  0  0 
  5  7  1  0  0  0  0 
  5  8  1  0  0  0  0 
  8  9  1  0  0  0  0 
  8 10  1  0  0  0  0 
  8 11  1  0  0  0  0 
 11 12  1  0  0  0  0 
 11 13  1  0  0  0  0 
 11 14  1  0  0  0  0 
 14 15  2  0  0  0  0 
 15 16  1  0  0  0  0 
 16 17  2  0  0  0  0 
 17 18  1  0  0  0  0 
 18 19  1  0  0  0  0 
 18 20  2  0  0  0  0 
 20 21  1  0  0  0  0 
 20 22  1  0  0  0  0 
 22 23  1  0  0  0  0 
 22 24  2  0  0  0  0 
 16 24  1  0  0  0  0 
 24 25  1  0  0  0  0 
 17 26  1  0  0  0  0 
 14 26  1  0  0  0  0 
 15 27  1  0  0  0  0 
 27 28  2  0  0  0  0 
 27 29  1  0  0  0  0 
 29 30  2  0  0  0  0 
 30 31  1  0  0  0  0 
 30 32  1  0  0  0  0 
 32 33  2  0  0  0  0 
 33 34  1  0  0  0  0 
 34 35  2  0  0  0  0 
 29 35  1  0  0  0  0 
 35 36  1  0  0  0  0 
 34 37  1  0  0  0  0 
 33 38  1  0  0  0  0 
 38 39  1  0  0  0  0 
 39 40  1  0  0  0  0 
 39 41  1  0  0  0  0 
 39 42  1  0  0  0  0 
 42 43  1  0  0  0  0 
 42 44  1  0  0  0  0 
 42 45  1  0  0  0  0 
 45 46  1  0  0  0  0 
 46 47  1  0  0  0  0 
 46 48  1  0  0  0  0 
 46 49  1  0  0  0  0 
 49 50  1  0  0  0  0 
 49 51  1  0  0  0  0 
 49 52  1  0  0  0  0 
 45 53  1  0  0  0  0 
 53 54  1  0  0  0  0 
 53 55  1  0  0  0  0 
 55 56  1  0  0  0  0 
 55 57  1  0  0  0  0 
 55 58  1  0  0  0  0 
 53 59  1  0  0  0  0 
 59 60  1  0  0  0  0 
 32 61  1  0  0  0  0 
M  END
> <Rank>
4

> <Priority_score>
0.668

> <Reaction_type>
aliphatic hydroxylation

> <Parent_ID>
19

> <Parent_InChI>
InChI=1S/C25H29I2NO3/c1-4-7-11-22-23(18-10-8-9-12-21(18)31-22)24(29)17-15-19(26)25(20(27)16-17)30-14-13-28(5-2)6-3/h8-10,12,15-16H,4-7,11,13-14H2,1-3H3

> <Parent_SMILES>
CCCCc1oc2ccccc2c1C(=O)c1cc(I)c(OCCN(CC)CC)c(I)c1

$$$$
Molecule 19_metabolite 5
  CDK     0516241031

  9  8  0  0  0  0  0  0  0  0999 V2000
    1.2990   -0.7500    0.0000 C   0  0  0  0  0  0  0  0  0  0  0  0
    0.0000    0.0000    0.0000 H   0  0  0  0  0  0  0  0  0  0  0  0
    0.3349   -1.8991    0.0000 H   0  0  0  0  0  0  0  0  0  0  0  0
    2.2632   -1.8991    0.0000 H   0  0  0  0  0  0  0  0  0  0  0  0
    2.5981   -0.0000    0.0000 C   0  0  0  0  0  0  0  0  0  0  0  0
    3.5623    1.1491    0.0000 H   0  0  0  0  0  0  0  0  0  0  0  0
    1.6339    1.1491    0.0000 H   0  0  0  0  0  0  0  0  0  0  0  0
    3.8971   -0.7500    0.0000 O   0  0  0  0  0  0  0  0  0  0  0  0
    5.1962   -0.0000    0.0000 H   0  0  0  0  0  0  0  0  0  0  0  0
  1  2  1  0  0  0  0 
  1  3  1  0  0  0  0 
  1  4  1  0  0  0  0 
  1  5  1  0  0  0  0 
  5  6  1  0  0  0  0 
  5  7  1  0  0  0  0 
  5  8  1  0  0  0  0 
  8  9  1  0  0  0  0 
M  END
> <Rank>
4

> <Priority_score>
0.668

> <Reaction_type>
N-dealkylation_(tertiaryN-CH2-alkyl)

> <Parent_ID>
19

> <Parent_InChI>
InChI=1S/C25H29I2NO3/c1-4-7-11-22-23(18-10-8-9-12-21(18)31-22)24(29)17-15-19(26)25(20(27)16-17)30-14-13-28(5-2)6-3/h8-10,12,15-16H,4-7,11,13-14H2,1-3H3

> <Parent_SMILES>
CCCCc1oc2ccccc2c1C(=O)c1cc(I)c(OCCN(CC)CC)c(I)c1

$$$$
Molecule 19_metabolite 6
  CDK     0516241031

 54 56  0  0  0  0  0  0  0  0999 V2000
    6.7483   -4.8403    0.0000 C   0  0  0  0  0  0  0  0  0  0  0  0
    5.9983   -6.1393    0.0000 H   0  0  0  0  0  0  0  0  0  0  0  0
    7.8974   -3.8761    0.0000 H   0  0  0  0  0  0  0  0  0  0  0  0
    7.8974   -5.8045    0.0000 H   0  0  0  0  0  0  0  0  0  0  0  0
    5.9983   -3.5413    0.0000 C   0  0  0  0  0  0  0  0  0  0  0  0
    7.4078   -3.0282    0.0000 H   0  0  0  0  0  0  0  0  0  0  0  0
    5.7378   -2.0641    0.0000 H   0  0  0  0  0  0  0  0  0  0  0  0
    4.4983   -3.5413    0.0000 C   0  0  0  0  0  0  0  0  0  0  0  0
    3.0888   -4.0543    0.0000 H   0  0  0  0  0  0  0  0  0  0  0  0
    4.7588   -5.0185    0.0000 H   0  0  0  0  0  0  0  0  0  0  0  0
    3.5083   -1.8265    0.0000 C   0  0  0  0  0  0  0  0  0  0  0  0
    4.9178   -1.3135    0.0000 H   0  0  0  0  0  0  0  0  0  0  0  0
    3.2478   -0.3493    0.0000 H   0  0  0  0  0  0  0  0  0  0  0  0
    2.0083   -1.8265    0.0000 C   0  0  0  0  0  0  0  0  0  0  0  0
    1.1283   -0.6165    0.0000 C   0  0  0  0  0  0  0  0  0  0  0  0
   -0.3017   -1.0765    0.0000 C   0  0  0  0  0  0  0  0  0  0  0  0
   -0.3017   -2.5765    0.0000 C   0  0  0  0  0  0  0  0  0  0  0  0
   -1.6017   -3.3265    0.0000 C   0  0  0  0  0  0  0  0  0  0  0  0
   -1.6017   -4.8265    0.0000 H   0  0  0  0  0  0  0  0  0  0  0  0
   -2.9017   -2.5765    0.0000 C   0  0  0  0  0  0  0  0  0  0  0  0
   -4.2006   -3.3267    0.0000 H   0  0  0  0  0  0  0  0  0  0  0  0
   -2.9017   -1.0765    0.0000 C   0  0  0  0  0  0  0  0  0  0  0  0
   -4.2006   -0.3263    0.0000 H   0  0  0  0  0  0  0  0  0  0  0  0
   -1.6017   -0.3265    0.0000 C   0  0  0  0  0  0  0  0  0  0  0  0
   -1.6017    1.1735    0.0000 H   0  0  0  0  0  0  0  0  0  0  0  0
    1.1283   -3.0365    0.0000 O   0  0  0  0  0  0  0  0  0  0  0  0
    2.0403    2.1784    0.0000 C   0  0  0  0  0  0  0  0  0  0  0  0
    3.5079    2.4885    0.0000 O   0  0  0  0  0  0  0  0  0  0  0  0
    1.0379    3.2944    0.0000 C   0  0  0  0  0  0  0  0  0  0  0  0
   -0.4216    2.9837    0.0000 C   0  0  0  0  0  0  0  0  0  0  0  0
   -0.8938    1.5600    0.0000 H   0  0  0  0  0  0  0  0  0  0  0  0
   -1.3946    4.0922    0.0000 C   0  0  0  0  0  0  0  0  0  0  0  0
   -0.9619    5.5078    0.0000 C   0  0  0  0  0  0  0  0  0  0  0  0
    0.5071    5.8153    0.0000 C   0  0  0  0  0  0  0  0  0  0  0  0
    1.4991    4.7007    0.0000 C   0  0  0  0  0  0  0  0  0  0  0  0
    2.9677    5.0063    0.0000 H   0  0  0  0  0  0  0  0  0  0  0  0
    0.9769    7.2399    0.0000 I   0  0  0  0  0  0  0  0  0  0  0  0
   -1.9736    6.6152    0.0000 O   0  0  0  0  0  0  0  0  0  0  0  0
   -1.5204    8.0451    0.0000 C   0  0  0  0  0  0  0  0  0  0  0  0
   -0.1910    7.3505    0.0000 H   0  0  0  0  0  0  0  0  0  0  0  0
   -0.6055    9.2338    0.0000 H   0  0  0  0  0  0  0  0  0  0  0  0
   -2.5322    9.1526    0.0000 C   0  0  0  0  0  0  0  0  0  0  0  0
   -3.8616    9.8472    0.0000 H   0  0  0  0  0  0  0  0  0  0  0  0
   -3.4471    7.9639    0.0000 H   0  0  0  0  0  0  0  0  0  0  0  0
   -1.9339   11.0400    0.0000 N   0  0  0  0  0  0  0  0  0  0  0  0
   -0.4690   11.3625    0.0000 H   0  0  0  0  0  0  0  0  0  0  0  0
   -2.9457   12.1475    0.0000 C   0  0  0  0  0  0  0  0  0  0  0  0
   -4.2751   12.8421    0.0000 H   0  0  0  0  0  0  0  0  0  0  0  0
   -3.8606   10.9588    0.0000 H   0  0  0  0  0  0  0  0  0  0  0  0
   -2.4925   13.5774    0.0000 C   0  0  0  0  0  0  0  0  0  0  0  0
   -3.5042   14.6848    0.0000 H   0  0  0  0  0  0  0  0  0  0  0  0
   -1.1630   12.8828    0.0000 H   0  0  0  0  0  0  0  0  0  0  0  0
   -1.5776   14.7660    0.0000 H   0  0  0  0  0  0  0  0  0  0  0  0
   -2.8610    3.7767    0.0000 I   0  0  0  0  0  0  0  0  0  0  0  0
  1  2  1  0  0  0  0 
  1  3  1  0  0  0  0 
  1  4  1  0  0  0  0 
  1  5  1  0  0  0  0 
  5  6  1  0  0  0  0 
  5  7  1  0  0  0  0 
  5  8  1  0  0  0  0 
  8  9  1  0  0  0  0 
  8 10  1  0  0  0  0 
  8 11  1  0  0  0  0 
 11 12  1  0  0  0  0 
 11 13  1  0  0  0  0 
 11 14  1  0  0  0  0 
 14 15  2  0  0  0  0 
 15 16  1  0  0  0  0 
 16 17  2  0  0  0  0 
 17 18  1  0  0  0  0 
 18 19  1  0  0  0  0 
 18 20  2  0  0  0  0 
 20 21  1  0  0  0  0 
 20 22  1  0  0  0  0 
 22 23  1  0  0  0  0 
 22 24  2  0  0  0  0 
 16 24  1  0  0  0  0 
 24 25  1  0  0  0  0 
 17 26  1  0  0  0  0 
 14 26  1  0  0  0  0 
 15 27  1  0  0  0  0 
 27 28  2  0  0  0  0 
 27 29  1  0  0  0  0 
 29 30  2  0  0  0  0 
 30 31  1  0  0  0  0 
 30 32  1  0  0  0  0 
 32 33  2  0  0  0  0 
 33 34  1  0  0  0  0 
 34 35  2  0  0  0  0 
 29 35  1  0  0  0  0 
 35 36  1  0  0  0  0 
 34 37  1  0  0  0  0 
 33 38  1  0  0  0  0 
 38 39  1  0  0  0  0 
 39 40  1  0  0  0  0 
 39 41  1  0  0  0  0 
 39 42  1  0  0  0  0 
 42 43  1  0  0  0  0 
 42 44  1  0  0  0  0 
 42 45  1  0  0  0  0 
 45 46  1  0  0  0  0 
 45 47  1  0  0  0  0 
 47 48  1  0  0  0  0 
 47 49  1  0  0  0  0 
 47 50  1  0  0  0  0 
 50 51  1  0  0  0  0 
 50 52  1  0  0  0  0 
 50 53  1  0  0  0  0 
 32 54  1  0  0  0  0 
M  END
> <Rank>
4

> <Priority_score>
0.668

> <Reaction_type>
N-dealkylation_(tertiaryN-CH2-alkyl)

> <Parent_ID>
19

> <Parent_InChI>
InChI=1S/C25H29I2NO3/c1-4-7-11-22-23(18-10-8-9-12-21(18)31-22)24(29)17-15-19(26)25(20(27)16-17)30-14-13-28(5-2)6-3/h8-10,12,15-16H,4-7,11,13-14H2,1-3H3

> <Parent_SMILES>
CCCCc1oc2ccccc2c1C(=O)c1cc(I)c(OCCN(CC)CC)c(I)c1

$$$$
Molecule 19_metabolite 7
  CDK     0516241031

  7  6  0  0  0  0  0  0  0  0999 V2000
    2.7500   -0.4868    0.0000 C   0  0  0  0  0  0  0  0  0  0  0  0
    2.7500   -1.9868    0.0000 H   0  0  0  0  0  0  0  0  0  0  0  0
    4.2272   -0.7473    0.0000 H   0  0  0  0  0  0  0  0  0  0  0  0
    3.2631    0.9227    0.0000 H   0  0  0  0  0  0  0  0  0  0  0  0
    1.4510    0.2632    0.0000 C   0  0  0  0  0  0  0  0  0  0  0  0
    1.4510    1.7632    0.0000 H   0  0  0  0  0  0  0  0  0  0  0  0
    0.1520   -0.4868    0.0000 O   0  0  0  0  0  0  0  0  0  0  0  0
  1  2  1  0  0  0  0 
  1  3  1  0  0  0  0 
  1  4  1  0  0  0  0 
  1  5  1  0  0  0  0 
  5  6  1  0  0  0  0 
  5  7  2  0  0  0  0 
M  END
> <Rank>
4

> <Priority_score>
0.668

> <Reaction_type>
N-dealkylation

> <Parent_ID>
19

> <Parent_InChI>
InChI=1S/C25H29I2NO3/c1-4-7-11-22-23(18-10-8-9-12-21(18)31-22)24(29)17-15-19(26)25(20(27)16-17)30-14-13-28(5-2)6-3/h8-10,12,15-16H,4-7,11,13-14H2,1-3H3

> <Parent_SMILES>
CCCCc1oc2ccccc2c1C(=O)c1cc(I)c(OCCN(CC)CC)c(I)c1

$$$$
Molecule 19_metabolite 8
  CDK     0516241031

 61 63  0  0  0  0  0  0  0  0999 V2000
    7.2171   -4.7371    0.0000 C   0  0  0  0  0  0  0  0  0  0  0  0
    6.4671   -6.0362    0.0000 H   0  0  0  0  0  0  0  0  0  0  0  0
    8.3662   -3.7729    0.0000 H   0  0  0  0  0  0  0  0  0  0  0  0
    8.3662   -5.7013    0.0000 H   0  0  0  0  0  0  0  0  0  0  0  0
    6.4671   -3.4381    0.0000 C   0  0  0  0  0  0  0  0  0  0  0  0
    7.8766   -2.9251    0.0000 H   0  0  0  0  0  0  0  0  0  0  0  0
    6.2066   -1.9609    0.0000 H   0  0  0  0  0  0  0  0  0  0  0  0
    4.9671   -3.4381    0.0000 C   0  0  0  0  0  0  0  0  0  0  0  0
    3.5575   -3.9511    0.0000 H   0  0  0  0  0  0  0  0  0  0  0  0
    5.2276   -4.9153    0.0000 H   0  0  0  0  0  0  0  0  0  0  0  0
    3.9771   -1.7234    0.0000 C   0  0  0  0  0  0  0  0  0  0  0  0
    5.3866   -1.2103    0.0000 H   0  0  0  0  0  0  0  0  0  0  0  0
    3.7166   -0.2461    0.0000 H   0  0  0  0  0  0  0  0  0  0  0  0
    2.4771   -1.7234    0.0000 C   0  0  0  0  0  0  0  0  0  0  0  0
    1.5971   -0.5134    0.0000 C   0  0  0  0  0  0  0  0  0  0  0  0
    0.1671   -0.9734    0.0000 C   0  0  0  0  0  0  0  0  0  0  0  0
    0.1671   -2.4734    0.0000 C   0  0  0  0  0  0  0  0  0  0  0  0
   -1.1329   -3.2234    0.0000 C   0  0  0  0  0  0  0  0  0  0  0  0
   -1.1329   -4.7234    0.0000 H   0  0  0  0  0  0  0  0  0  0  0  0
   -2.4329   -2.4734    0.0000 C   0  0  0  0  0  0  0  0  0  0  0  0
   -3.7318   -3.2236    0.0000 H   0  0  0  0  0  0  0  0  0  0  0  0
   -2.4329   -0.9734    0.0000 C   0  0  0  0  0  0  0  0  0  0  0  0
   -3.7318   -0.2231    0.0000 H   0  0  0  0  0  0  0  0  0  0  0  0
   -1.1329   -0.2234    0.0000 C   0  0  0  0  0  0  0  0  0  0  0  0
   -1.1329    1.2766    0.0000 H   0  0  0  0  0  0  0  0  0  0  0  0
    1.5971   -2.9334    0.0000 O   0  0  0  0  0  0  0  0  0  0  0  0
    2.5090    2.2816    0.0000 C   0  0  0  0  0  0  0  0  0  0  0  0
    3.9766    2.5917    0.0000 O   0  0  0  0  0  0  0  0  0  0  0  0
    1.5067    3.3976    0.0000 C   0  0  0  0  0  0  0  0  0  0  0  0
    0.0472    3.0869    0.0000 C   0  0  0  0  0  0  0  0  0  0  0  0
   -0.4251    1.6632    0.0000 H   0  0  0  0  0  0  0  0  0  0  0  0
   -0.9258    4.1953    0.0000 C   0  0  0  0  0  0  0  0  0  0  0  0
   -0.4931    5.6110    0.0000 C   0  0  0  0  0  0  0  0  0  0  0  0
    0.9759    5.9185    0.0000 C   0  0  0  0  0  0  0  0  0  0  0  0
    1.9679    4.8039    0.0000 C   0  0  0  0  0  0  0  0  0  0  0  0
    3.4364    5.1095    0.0000 H   0  0  0  0  0  0  0  0  0  0  0  0
    1.4457    7.3431    0.0000 I   0  0  0  0  0  0  0  0  0  0  0  0
   -1.5049    6.7184    0.0000 O   0  0  0  0  0  0  0  0  0  0  0  0
   -1.0517    8.1483    0.0000 C   0  0  0  0  0  0  0  0  0  0  0  0
    0.2778    7.4537    0.0000 H   0  0  0  0  0  0  0  0  0  0  0  0
   -0.1367    9.3370    0.0000 H   0  0  0  0  0  0  0  0  0  0  0  0
   -2.0634    9.2558    0.0000 C   0  0  0  0  0  0  0  0  0  0  0  0
   -3.3929    9.9504    0.0000 H   0  0  0  0  0  0  0  0  0  0  0  0
   -2.9783    8.0671    0.0000 H   0  0  0  0  0  0  0  0  0  0  0  0
   -1.4652   11.1432    0.0000 N   0  0  0  0  0  0  0  0  0  0  0  0
   -2.8006   12.6050    0.0000 C   0  0  0  0  0  0  0  0  0  0  0  0
   -4.1301   13.2996    0.0000 H   0  0  0  0  0  0  0  0  0  0  0  0
   -3.7156   11.4164    0.0000 H   0  0  0  0  0  0  0  0  0  0  0  0
   -2.3474   14.0349    0.0000 C   0  0  0  0  0  0  0  0  0  0  0  0
   -0.8825   14.3574    0.0000 H   0  0  0  0  0  0  0  0  0  0  0  0
   -3.8343   14.2329    0.0000 H   0  0  0  0  0  0  0  0  0  0  0  0
   -2.4106   15.5336    0.0000 H   0  0  0  0  0  0  0  0  0  0  0  0
   -0.1357   10.4486    0.0000 C   0  0  0  0  0  0  0  0  0  0  0  0
   -1.0506    9.2599    0.0000 H   0  0  0  0  0  0  0  0  0  0  0  0
    0.8760    9.3412    0.0000 H   0  0  0  0  0  0  0  0  0  0  0  0
    1.1306   11.2527    0.0000 C   0  0  0  0  0  0  0  0  0  0  0  0
    1.0674   12.7513    0.0000 H   0  0  0  0  0  0  0  0  0  0  0  0
    1.7026    9.8660    0.0000 H   0  0  0  0  0  0  0  0  0  0  0  0
    2.5955   11.5751    0.0000 H   0  0  0  0  0  0  0  0  0  0  0  0
   -0.5502   12.3319    0.0000 O   0  0  0  0  0  0  0  0  0  0  0  0
   -2.3923    3.8799    0.0000 I   0  0  0  0  0  0  0  0  0  0  0  0
  1  2  1  0  0  0  0 
  1  3  1  0  0  0  0 
  1  4  1  0  0  0  0 
  1  5  1  0  0  0  0 
  5  6  1  0  0  0  0 
  5  7  1  0  0  0  0 
  5  8  1  0  0  0  0 
  8  9  1  0  0  0  0 
  8 10  1  0  0  0  0 
  8 11  1  0  0  0  0 
 11 12  1  0  0  0  0 
 11 13  1  0  0  0  0 
 11 14  1  0  0  0  0 
 14 15  2  0  0  0  0 
 15 16  1  0  0  0  0 
 16 17  2  0  0  0  0 
 17 18  1  0  0  0  0 
 18 19  1  0  0  0  0 
 18 20  2  0  0  0  0 
 20 21  1  0  0  0  0 
 20 22  1  0  0  0  0 
 22 23  1  0  0  0  0 
 22 24  2  0  0  0  0 
 16 24  1  0  0  0  0 
 24 25  1  0  0  0  0 
 17 26  1  0  0  0  0 
 14 26  1  0  0  0  0 
 15 27  1  0  0  0  0 
 27 28  2  0  0  0  0 
 27 29  1  0  0  0  0 
 29 30  2  0  0  0  0 
 30 31  1  0  0  0  0 
 30 32  1  0  0  0  0 
 32 33  2  0  0  0  0 
 33 34  1  0  0  0  0 
 34 35  2  0  0  0  0 
 29 35  1  0  0  0  0 
 35 36  1  0  0  0  0 
 34 37  1  0  0  0  0 
 33 38  1  0  0  0  0 
 38 39  1  0  0  0  0 
 39 40  1  0  0  0  0 
 39 41  1  0  0  0  0 
 39 42  1  0  0  0  0 
 42 43  1  0  0  0  0 
 42 44  1  0  0  0  0 
 42 45  1  0  0  0  0 
 45 46  1  0  0  0  0 
 46 47  1  0  0  0  0 
 46 48  1  0  0  0  0 
 46 49  1  0  0  0  0 
 49 50  1  0  0  0  0 
 49 51  1  0  0  0  0 
 49 52  1  0  0  0  0 
 45 53  1  0  0  0  0 
 53 54  1  0  0  0  0 
 53 55  1  0  0  0  0 
 53 56  1  0  0  0  0 
 56 57  1  0  0  0  0 
 56 58  1  0  0  0  0 
 56 59  1  0  0  0  0 
 45 60  1  0  0  0  0 
 32 61  1  0  0  0  0 
M  CHG  1  45   1
M  CHG  1  60  -1
M  END
> <Rank>
4

> <Priority_score>
0.668

> <Reaction_type>
N-oxidation_(tertiary_N)

> <Parent_ID>
19

> <Parent_InChI>
InChI=1S/C25H29I2NO3/c1-4-7-11-22-23(18-10-8-9-12-21(18)31-22)24(29)17-15-19(26)25(20(27)16-17)30-14-13-28(5-2)6-3/h8-10,12,15-16H,4-7,11,13-14H2,1-3H3

> <Parent_SMILES>
CCCCc1oc2ccccc2c1C(=O)c1cc(I)c(OCCN(CC)CC)c(I)c1

$$$$
Molecule 19_metabolite 9
  CDK     0516241031

 23 22  0  0  0  0  0  0  0  0999 V2000
    6.4952   -2.6009    0.0000 C   0  0  0  0  0  0  0  0  0  0  0  0
    6.4952   -1.1009    0.0000 H   0  0  0  0  0  0  0  0  0  0  0  0
    7.9724   -2.3405    0.0000 H   0  0  0  0  0  0  0  0  0  0  0  0
    7.0082   -4.0105    0.0000 H   0  0  0  0  0  0  0  0  0  0  0  0
    5.1962   -3.3509    0.0000 C   0  0  0  0  0  0  0  0  0  0  0  0
    4.2320   -4.5000    0.0000 H   0  0  0  0  0  0  0  0  0  0  0  0
    6.1603   -4.5000    0.0000 H   0  0  0  0  0  0  0  0  0  0  0  0
    3.8971   -2.6009    0.0000 N   0  0  0  0  0  0  0  0  0  0  0  0
    3.8971   -1.1009    0.0000 C   0  0  0  0  0  0  0  0  0  0  0  0
    5.3743   -1.3614    0.0000 H   0  0  0  0  0  0  0  0  0  0  0  0
    4.4101    0.3086    0.0000 H   0  0  0  0  0  0  0  0  0  0  0  0
    2.5981   -0.3509    0.0000 C   0  0  0  0  0  0  0  0  0  0  0  0
    2.5981    1.1491    0.0000 H   0  0  0  0  0  0  0  0  0  0  0  0
    1.1209   -0.0905    0.0000 H   0  0  0  0  0  0  0  0  0  0  0  0
    2.0850   -1.7605    0.0000 H   0  0  0  0  0  0  0  0  0  0  0  0
    2.1824   -3.5909    0.0000 C   0  0  0  0  0  0  0  0  0  0  0  0
    1.2182   -4.7400    0.0000 H   0  0  0  0  0  0  0  0  0  0  0  0
    3.1466   -4.7400    0.0000 H   0  0  0  0  0  0  0  0  0  0  0  0
    0.8833   -2.8409    0.0000 C   0  0  0  0  0  0  0  0  0  0  0  0
    0.3703   -4.2505    0.0000 H   0  0  0  0  0  0  0  0  0  0  0  0
   -0.5939   -2.5805    0.0000 H   0  0  0  0  0  0  0  0  0  0  0  0
    0.8833   -1.3409    0.0000 O   0  0  0  0  0  0  0  0  0  0  0  0
   -0.4157   -0.5909    0.0000 H   0  0  0  0  0  0  0  0  0  0  0  0
  1  2  1  0  0  0  0 
  1  3  1  0  0  0  0 
  1  4  1  0  0  0  0 
  1  5  1  0  0  0  0 
  5  6  1  0  0  0  0 
  5  7  1  0  0  0  0 
  5  8  1  0  0  0  0 
  8  9  1  0  0  0  0 
  9 10  1  0  0  0  0 
  9 11  1  0  0  0  0 
  9 12  1  0  0  0  0 
 12 13  1  0  0  0  0 
 12 14  1  0  0  0  0 
 12 15  1  0  0  0  0 
  8 16  1  0  0  0  0 
 16 17  1  0  0  0  0 
 16 18  1  0  0  0  0 
 16 19  1  0  0  0  0 
 19 20  1  0  0  0  0 
 19 21  1  0  0  0  0 
 19 22  1  0  0  0  0 
 22 23  1  0  0  0  0 
M  END
> <Rank>
9

> <Priority_score>
0.62

> <Reaction_type>
O-dealkylation_(aromatic)

> <Parent_ID>
19

> <Parent_InChI>
InChI=1S/C25H29I2NO3/c1-4-7-11-22-23(18-10-8-9-12-21(18)31-22)24(29)17-15-19(26)25(20(27)16-17)30-14-13-28(5-2)6-3/h8-10,12,15-16H,4-7,11,13-14H2,1-3H3

> <Parent_SMILES>
CCCCc1oc2ccccc2c1C(=O)c1cc(I)c(OCCN(CC)CC)c(I)c1

$$$$
Molecule 19_metabolite 10
  CDK     0516241031

 61 63  0  0  0  0  0  0  0  0999 V2000
   10.7123   -0.8938    0.0000 C   0  0  0  0  0  0  0  0  0  0  0  0
   12.0736   -0.2640    0.0000 H   0  0  0  0  0  0  0  0  0  0  0  0
    9.6485   -1.9513    0.0000 H   0  0  0  0  0  0  0  0  0  0  0  0
   11.5690   -2.1251    0.0000 H   0  0  0  0  0  0  0  0  0  0  0  0
    9.4861   -0.0298    0.0000 C   0  0  0  0  0  0  0  0  0  0  0  0
    8.8481   -1.3873    0.0000 H   0  0  0  0  0  0  0  0  0  0  0  0
    8.0384    0.3628    0.0000 H   0  0  0  0  0  0  0  0  0  0  0  0
    9.6213    1.4641    0.0000 C   0  0  0  0  0  0  0  0  0  0  0  0
   10.2593    2.8217    0.0000 H   0  0  0  0  0  0  0  0  0  0  0  0
   11.0691    1.0716    0.0000 H   0  0  0  0  0  0  0  0  0  0  0  0
    8.0028    2.6046    0.0000 C   0  0  0  0  0  0  0  0  0  0  0  0
    7.3648    1.2471    0.0000 H   0  0  0  0  0  0  0  0  0  0  0  0
    6.5551    2.9972    0.0000 H   0  0  0  0  0  0  0  0  0  0  0  0
    8.1380    4.0985    0.0000 C   0  0  0  0  0  0  0  0  0  0  0  0
    7.0123    5.0840    0.0000 C   0  0  0  0  0  0  0  0  0  0  0  0
    7.5993    6.4667    0.0000 C   0  0  0  0  0  0  0  0  0  0  0  0
    9.0932    6.3315    0.0000 C   0  0  0  0  0  0  0  0  0  0  0  0
    9.9573    7.5586    0.0000 C   0  0  0  0  0  0  0  0  0  0  0  0
   11.4512    7.4234    0.0000 H   0  0  0  0  0  0  0  0  0  0  0  0
    9.3275    8.9209    0.0000 C   0  0  0  0  0  0  0  0  0  0  0  0
   10.1918   10.1470    0.0000 H   0  0  0  0  0  0  0  0  0  0  0  0
    7.8336    9.0562    0.0000 C   0  0  0  0  0  0  0  0  0  0  0  0
    7.2036   10.4174    0.0000 H   0  0  0  0  0  0  0  0  0  0  0  0
    6.9695    7.8290    0.0000 C   0  0  0  0  0  0  0  0  0  0  0  0
    5.4756    7.9642    0.0000 H   0  0  0  0  0  0  0  0  0  0  0  0
    9.4224    4.8659    0.0000 O   0  0  0  0  0  0  0  0  0  0  0  0
    4.1465    4.4277    0.0000 C   0  0  0  0  0  0  0  0  0  0  0  0
    3.7054    2.9940    0.0000 O   0  0  0  0  0  0  0  0  0  0  0  0
    3.1254    5.5265    0.0000 C   0  0  0  0  0  0  0  0  0  0  0  0
    3.5663    6.9521    0.0000 C   0  0  0  0  0  0  0  0  0  0  0  0
    5.0268    7.2941    0.0000 H   0  0  0  0  0  0  0  0  0  0  0  0
    2.5501    8.0211    0.0000 C   0  0  0  0  0  0  0  0  0  0  0  0
    1.1012    7.7177    0.0000 C   0  0  0  0  0  0  0  0  0  0  0  0
    0.6626    6.2825    0.0000 C   0  0  0  0  0  0  0  0  0  0  0  0
    1.6832    5.1940    0.0000 C   0  0  0  0  0  0  0  0  0  0  0  0
    1.2465    3.7590    0.0000 H   0  0  0  0  0  0  0  0  0  0  0  0
   -0.7985    5.9429    0.0000 I   0  0  0  0  0  0  0  0  0  0  0  0
    0.0895    8.8252    0.0000 O   0  0  0  0  0  0  0  0  0  0  0  0
   -1.3754    8.5027    0.0000 C   0  0  0  0  0  0  0  0  0  0  0  0
   -0.8035    7.1160    0.0000 H   0  0  0  0  0  0  0  0  0  0  0  0
   -2.3871    9.6101    0.0000 C   0  0  0  0  0  0  0  0  0  0  0  0
   -3.7166   10.3047    0.0000 H   0  0  0  0  0  0  0  0  0  0  0  0
   -3.3021    8.4215    0.0000 H   0  0  0  0  0  0  0  0  0  0  0  0
   -1.7889   11.4976    0.0000 N   0  0  0  0  0  0  0  0  0  0  0  0
   -2.8006   12.6050    0.0000 C   0  0  0  0  0  0  0  0  0  0  0  0
   -4.1301   13.2996    0.0000 H   0  0  0  0  0  0  0  0  0  0  0  0
   -3.7156   11.4164    0.0000 H   0  0  0  0  0  0  0  0  0  0  0  0
   -2.3474   14.0349    0.0000 C   0  0  0  0  0  0  0  0  0  0  0  0
   -3.3592   15.1424    0.0000 H   0  0  0  0  0  0  0  0  0  0  0  0
   -1.0180   13.3403    0.0000 H   0  0  0  0  0  0  0  0  0  0  0  0
   -1.4325   15.2236    0.0000 H   0  0  0  0  0  0  0  0  0  0  0  0
   -0.3240   11.8201    0.0000 C   0  0  0  0  0  0  0  0  0  0  0  0
   -0.2608   10.3214    0.0000 H   0  0  0  0  0  0  0  0  0  0  0  0
    1.1629   11.6221    0.0000 H   0  0  0  0  0  0  0  0  0  0  0  0
    0.1292   13.2500    0.0000 C   0  0  0  0  0  0  0  0  0  0  0  0
   -0.8825   14.3574    0.0000 H   0  0  0  0  0  0  0  0  0  0  0  0
    1.4587   12.5554    0.0000 H   0  0  0  0  0  0  0  0  0  0  0  0
    1.0441   14.4386    0.0000 H   0  0  0  0  0  0  0  0  0  0  0  0
   -2.6417    7.6986    0.0000 O   0  0  0  0  0  0  0  0  0  0  0  0
   -2.5785    6.2000    0.0000 H   0  0  0  0  0  0  0  0  0  0  0  0
    2.9965    9.4531    0.0000 I   0  0  0  0  0  0  0  0  0  0  0  0
  1  2  1  0  0  0  0 
  1  3  1  0  0  0  0 
  1  4  1  0  0  0  0 
  1  5  1  0  0  0  0 
  5  6  1  0  0  0  0 
  5  7  1  0  0  0  0 
  5  8  1  0  0  0  0 
  8  9  1  0  0  0  0 
  8 10  1  0  0  0  0 
  8 11  1  0  0  0  0 
 11 12  1  0  0  0  0 
 11 13  1  0  0  0  0 
 11 14  1  0  0  0  0 
 14 15  2  0  0  0  0 
 15 16  1  0  0  0  0 
 16 17  2  0  0  0  0 
 17 18  1  0  0  0  0 
 18 19  1  0  0  0  0 
 18 20  2  0  0  0  0 
 20 21  1  0  0  0  0 
 20 22  1  0  0  0  0 
 22 23  1  0  0  0  0 
 22 24  2  0  0  0  0 
 16 24  1  0  0  0  0 
 24 25  1  0  0  0  0 
 17 26  1  0  0  0  0 
 14 26  1  0  0  0  0 
 15 27  1  0  0  0  0 
 27 28  2  0  0  0  0 
 27 29  1  0  0  0  0 
 29 30  2  0  0  0  0 
 30 31  1  0  0  0  0 
 30 32  1  0  0  0  0 
 32 33  2  0  0  0  0 
 33 34  1  0  0  0  0 
 34 35  2  0  0  0  0 
 29 35  1  0  0  0  0 
 35 36  1  0  0  0  0 
 34 37  1  0  0  0  0 
 33 38  1  0  0  0  0 
 38 39  1  0  0  0  0 
 39 40  1  0  0  0  0 
 39 41  1  0  0  0  0 
 41 42  1  0  0  0  0 
 41 43  1  0  0  0  0 
 41 44  1  0  0  0  0 
 44 45  1  0  0  0  0 
 45 46  1  0  0  0  0 
 45 47  1  0  0  0  0 
 45 48  1  0  0  0  0 
 48 49  1  0  0  0  0 
 48 50  1  0  0  0  0 
 48 51  1  0  0  0  0 
 44 52  1  0  0  0  0 
 52 53  1  0  0  0  0 
 52 54  1  0  0  0  0 
 52 55  1  0  0  0  0 
 55 56  1  0  0  0  0 
 55 57  1  0  0  0  0 
 55 58  1  0  0  0  0 
 39 59  1  0  0  0  0 
 59 60  1  0  0  0  0 
 32 61  1  0  0  0  0 
M  END
> <Rank>
9

> <Priority_score>
0.62

> <Reaction_type>
aliphatic hydroxylation

> <Parent_ID>
19

> <Parent_InChI>
InChI=1S/C25H29I2NO3/c1-4-7-11-22-23(18-10-8-9-12-21(18)31-22)24(29)17-15-19(26)25(20(27)16-17)30-14-13-28(5-2)6-3/h8-10,12,15-16H,4-7,11,13-14H2,1-3H3

> <Parent_SMILES>
CCCCc1oc2ccccc2c1C(=O)c1cc(I)c(OCCN(CC)CC)c(I)c1

$$$$
Molecule 19_metabolite 11
  CDK     0516241031

 40 42  0  0  0  0  0  0  0  0999 V2000
    6.8933   -4.3827    0.0000 C   0  0  0  0  0  0  0  0  0  0  0  0
    6.1433   -5.6818    0.0000 H   0  0  0  0  0  0  0  0  0  0  0  0
    8.0424   -3.4186    0.0000 H   0  0  0  0  0  0  0  0  0  0  0  0
    8.0424   -5.3469    0.0000 H   0  0  0  0  0  0  0  0  0  0  0  0
    6.1433   -3.0837    0.0000 C   0  0  0  0  0  0  0  0  0  0  0  0
    7.5529   -2.5707    0.0000 H   0  0  0  0  0  0  0  0  0  0  0  0
    5.8829   -1.6065    0.0000 H   0  0  0  0  0  0  0  0  0  0  0  0
    4.6433   -3.0837    0.0000 C   0  0  0  0  0  0  0  0  0  0  0  0
    3.2338   -3.5967    0.0000 H   0  0  0  0  0  0  0  0  0  0  0  0
    4.9038   -4.5609    0.0000 H   0  0  0  0  0  0  0  0  0  0  0  0
    3.6533   -1.3690    0.0000 C   0  0  0  0  0  0  0  0  0  0  0  0
    5.0629   -0.8559    0.0000 H   0  0  0  0  0  0  0  0  0  0  0  0
    3.3929    0.1082    0.0000 H   0  0  0  0  0  0  0  0  0  0  0  0
    2.1533   -1.3690    0.0000 C   0  0  0  0  0  0  0  0  0  0  0  0
    1.2733   -0.1590    0.0000 C   0  0  0  0  0  0  0  0  0  0  0  0
   -0.1567   -0.6190    0.0000 C   0  0  0  0  0  0  0  0  0  0  0  0
   -0.1567   -2.1190    0.0000 C   0  0  0  0  0  0  0  0  0  0  0  0
   -1.4567   -2.8690    0.0000 C   0  0  0  0  0  0  0  0  0  0  0  0
   -1.4567   -4.3690    0.0000 H   0  0  0  0  0  0  0  0  0  0  0  0
   -2.7567   -2.1190    0.0000 C   0  0  0  0  0  0  0  0  0  0  0  0
   -4.0556   -2.8692    0.0000 H   0  0  0  0  0  0  0  0  0  0  0  0
   -2.7567   -0.6190    0.0000 C   0  0  0  0  0  0  0  0  0  0  0  0
   -4.0556    0.1312    0.0000 H   0  0  0  0  0  0  0  0  0  0  0  0
   -1.4567    0.1310    0.0000 C   0  0  0  0  0  0  0  0  0  0  0  0
   -1.4567    1.6310    0.0000 H   0  0  0  0  0  0  0  0  0  0  0  0
    1.2733   -2.5790    0.0000 O   0  0  0  0  0  0  0  0  0  0  0  0
    2.1853    2.6360    0.0000 C   0  0  0  0  0  0  0  0  0  0  0  0
    3.6529    2.9461    0.0000 O   0  0  0  0  0  0  0  0  0  0  0  0
    1.1830    3.7520    0.0000 C   0  0  0  0  0  0  0  0  0  0  0  0
   -0.2765    3.4413    0.0000 C   0  0  0  0  0  0  0  0  0  0  0  0
   -0.7488    2.0176    0.0000 H   0  0  0  0  0  0  0  0  0  0  0  0
   -1.2496    4.5497    0.0000 C   0  0  0  0  0  0  0  0  0  0  0  0
   -0.8169    5.9654    0.0000 C   0  0  0  0  0  0  0  0  0  0  0  0
    0.6521    6.2729    0.0000 C   0  0  0  0  0  0  0  0  0  0  0  0
    1.6442    5.1583    0.0000 C   0  0  0  0  0  0  0  0  0  0  0  0
    3.1127    5.4639    0.0000 H   0  0  0  0  0  0  0  0  0  0  0  0
    1.1219    7.6974    0.0000 I   0  0  0  0  0  0  0  0  0  0  0  0
   -1.8286    7.0728    0.0000 O   0  0  0  0  0  0  0  0  0  0  0  0
   -1.3754    8.5027    0.0000 H   0  0  0  0  0  0  0  0  0  0  0  0
   -2.7160    4.2342    0.0000 I   0  0  0  0  0  0  0  0  0  0  0  0
  1  2  1  0  0  0  0 
  1  3  1  0  0  0  0 
  1  4  1  0  0  0  0 
  1  5  1  0  0  0  0 
  5  6  1  0  0  0  0 
  5  7  1  0  0  0  0 
  5  8  1  0  0  0  0 
  8  9  1  0  0  0  0 
  8 10  1  0  0  0  0 
  8 11  1  0  0  0  0 
 11 12  1  0  0  0  0 
 11 13  1  0  0  0  0 
 11 14  1  0  0  0  0 
 14 15  2  0  0  0  0 
 15 16  1  0  0  0  0 
 16 17  2  0  0  0  0 
 17 18  1  0  0  0  0 
 18 19  1  0  0  0  0 
 18 20  2  0  0  0  0 
 20 21  1  0  0  0  0 
 20 22  1  0  0  0  0 
 22 23  1  0  0  0  0 
 22 24  2  0  0  0  0 
 16 24  1  0  0  0  0 
 24 25  1  0  0  0  0 
 17 26  1  0  0  0  0 
 14 26  1  0  0  0  0 
 15 27  1  0  0  0  0 
 27 28  2  0  0  0  0 
 27 29  1  0  0  0  0 
 29 30  2  0  0  0  0 
 30 31  1  0  0  0  0 
 30 32  1  0  0  0  0 
 32 33  2  0  0  0  0 
 33 34  1  0  0  0  0 
 34 35  2  0  0  0  0 
 29 35  1  0  0  0  0 
 35 36  1  0  0  0  0 
 34 37  1  0  0  0  0 
 33 38  1  0  0  0  0 
 38 39  1  0  0  0  0 
 32 40  1  0  0  0  0 
M  END
> <Rank>
9

> <Priority_score>
0.62

> <Reaction_type>
O-dealkylation_(aromatic)

> <Parent_ID>
19

> <Parent_InChI>
InChI=1S/C25H29I2NO3/c1-4-7-11-22-23(18-10-8-9-12-21(18)31-22)24(29)17-15-19(26)25(20(27)16-17)30-14-13-28(5-2)6-3/h8-10,12,15-16H,4-7,11,13-14H2,1-3H3

> <Parent_SMILES>
CCCCc1oc2ccccc2c1C(=O)c1cc(I)c(OCCN(CC)CC)c(I)c1

$$$$
Molecule 19_metabolite 12
  CDK     0516241031

 21 20  0  0  0  0  0  0  0  0999 V2000
    4.2610   -4.5510    0.0000 C   0  0  0  0  0  0  0  0  0  0  0  0
    5.5601   -3.8010    0.0000 H   0  0  0  0  0  0  0  0  0  0  0  0
    5.2252   -5.7001    0.0000 H   0  0  0  0  0  0  0  0  0  0  0  0
    3.2969   -5.7001    0.0000 H   0  0  0  0  0  0  0  0  0  0  0  0
    2.9620   -3.8010    0.0000 C   0  0  0  0  0  0  0  0  0  0  0  0
    1.4848   -3.5406    0.0000 H   0  0  0  0  0  0  0  0  0  0  0  0
    2.4490   -5.2106    0.0000 H   0  0  0  0  0  0  0  0  0  0  0  0
    2.9620   -2.3010    0.0000 N   0  0  0  0  0  0  0  0  0  0  0  0
    1.2473   -1.3110    0.0000 C   0  0  0  0  0  0  0  0  0  0  0  0
   -0.2299   -1.0506    0.0000 H   0  0  0  0  0  0  0  0  0  0  0  0
    0.7342   -2.7206    0.0000 H   0  0  0  0  0  0  0  0  0  0  0  0
    1.2473    0.1890    0.0000 C   0  0  0  0  0  0  0  0  0  0  0  0
   -0.0518    0.9390    0.0000 H   0  0  0  0  0  0  0  0  0  0  0  0
    2.7245   -0.0715    0.0000 H   0  0  0  0  0  0  0  0  0  0  0  0
    1.7603    1.5985    0.0000 H   0  0  0  0  0  0  0  0  0  0  0  0
    4.2610   -1.5510    0.0000 C   0  0  0  0  0  0  0  0  0  0  0  0
    4.7741   -2.9606    0.0000 H   0  0  0  0  0  0  0  0  0  0  0  0
    5.7383   -1.2906    0.0000 H   0  0  0  0  0  0  0  0  0  0  0  0
    4.2610   -0.0510    0.0000 C   0  0  0  0  0  0  0  0  0  0  0  0
    5.5601    0.6990    0.0000 H   0  0  0  0  0  0  0  0  0  0  0  0
    2.9620    0.6990    0.0000 O   0  0  0  0  0  0  0  0  0  0  0  0
  1  2  1  0  0  0  0 
  1  3  1  0  0  0  0 
  1  4  1  0  0  0  0 
  1  5  1  0  0  0  0 
  5  6  1  0  0  0  0 
  5  7  1  0  0  0  0 
  5  8  1  0  0  0  0 
  8  9  1  0  0  0  0 
  9 10  1  0  0  0  0 
  9 11  1  0  0  0  0 
  9 12  1  0  0  0  0 
 12 13  1  0  0  0  0 
 12 14  1  0  0  0  0 
 12 15  1  0  0  0  0 
  8 16  1  0  0  0  0 
 16 17  1  0  0  0  0 
 16 18  1  0  0  0  0 
 16 19  1  0  0  0  0 
 19 20  1  0  0  0  0 
 19 21  2  0  0  0  0 
M  END
> <Rank>
9

> <Priority_score>
0.62

> <Reaction_type>
oxidative ether cleavage to one alcohol and one aldehyde/ketone

> <Parent_ID>
19

> <Parent_InChI>
InChI=1S/C25H29I2NO3/c1-4-7-11-22-23(18-10-8-9-12-21(18)31-22)24(29)17-15-19(26)25(20(27)16-17)30-14-13-28(5-2)6-3/h8-10,12,15-16H,4-7,11,13-14H2,1-3H3

> <Parent_SMILES>
CCCCc1oc2ccccc2c1C(=O)c1cc(I)c(OCCN(CC)CC)c(I)c1

$$$$
Molecule 19_metabolite 13
  CDK     0516241031

 16 15  0  0  0  0  0  0  0  0999 V2000
    5.0234    2.0393    0.0000 C   0  0  0  0  0  0  0  0  0  0  0  0
    6.3224    2.7893    0.0000 H   0  0  0  0  0  0  0  0  0  0  0  0
    4.5103    3.4488    0.0000 H   0  0  0  0  0  0  0  0  0  0  0  0
    3.5461    1.7788    0.0000 H   0  0  0  0  0  0  0  0  0  0  0  0
    5.0234    0.5393    0.0000 C   0  0  0  0  0  0  0  0  0  0  0  0
    5.5364   -0.8702    0.0000 H   0  0  0  0  0  0  0  0  0  0  0  0
    6.5006    0.7998    0.0000 H   0  0  0  0  0  0  0  0  0  0  0  0
    3.3086   -0.4507    0.0000 N   0  0  0  0  0  0  0  0  0  0  0  0
    2.0096    0.2993    0.0000 H   0  0  0  0  0  0  0  0  0  0  0  0
    3.3086   -1.9507    0.0000 C   0  0  0  0  0  0  0  0  0  0  0  0
    3.8217   -3.3602    0.0000 H   0  0  0  0  0  0  0  0  0  0  0  0
    4.7858   -1.6902    0.0000 H   0  0  0  0  0  0  0  0  0  0  0  0
    2.0096   -2.7007    0.0000 C   0  0  0  0  0  0  0  0  0  0  0  0
    2.0096   -4.2007    0.0000 H   0  0  0  0  0  0  0  0  0  0  0  0
    1.4966   -1.2912    0.0000 H   0  0  0  0  0  0  0  0  0  0  0  0
    0.5324   -2.9612    0.0000 H   0  0  0  0  0  0  0  0  0  0  0  0
  1  2  1  0  0  0  0 
  1  3  1  0  0  0  0 
  1  4  1  0  0  0  0 
  1  5  1  0  0  0  0 
  5  6  1  0  0  0  0 
  5  7  1  0  0  0  0 
  5  8  1  0  0  0  0 
  8  9  1  0  0  0  0 
  8 10  1  0  0  0  0 
 10 11  1  0  0  0  0 
 10 12  1  0  0  0  0 
 10 13  1  0  0  0  0 
 13 14  1  0  0  0  0 
 13 15  1  0  0  0  0 
 13 16  1  0  0  0  0 
M  END
> <Rank>
13

> <Priority_score>
0.612

> <Reaction_type>
N-dealkylation_(tertiaryN-CH2-alkyl)

> <Parent_ID>
19

> <Parent_InChI>
InChI=1S/C25H29I2NO3/c1-4-7-11-22-23(18-10-8-9-12-21(18)31-22)24(29)17-15-19(26)25(20(27)16-17)30-14-13-28(5-2)6-3/h8-10,12,15-16H,4-7,11,13-14H2,1-3H3

> <Parent_SMILES>
CCCCc1oc2ccccc2c1C(=O)c1cc(I)c(OCCN(CC)CC)c(I)c1

$$$$
Molecule 19_metabolite 14
  CDK     0516241031

 45 47  0  0  0  0  0  0  0  0999 V2000
    6.8933   -4.3827    0.0000 C   0  0  0  0  0  0  0  0  0  0  0  0
    6.1433   -5.6818    0.0000 H   0  0  0  0  0  0  0  0  0  0  0  0
    8.0424   -3.4186    0.0000 H   0  0  0  0  0  0  0  0  0  0  0  0
    8.0424   -5.3469    0.0000 H   0  0  0  0  0  0  0  0  0  0  0  0
    6.1433   -3.0837    0.0000 C   0  0  0  0  0  0  0  0  0  0  0  0
    7.5529   -2.5707    0.0000 H   0  0  0  0  0  0  0  0  0  0  0  0
    5.8829   -1.6065    0.0000 H   0  0  0  0  0  0  0  0  0  0  0  0
    4.6433   -3.0837    0.0000 C   0  0  0  0  0  0  0  0  0  0  0  0
    3.2338   -3.5967    0.0000 H   0  0  0  0  0  0  0  0  0  0  0  0
    4.9038   -4.5609    0.0000 H   0  0  0  0  0  0  0  0  0  0  0  0
    3.6533   -1.3690    0.0000 C   0  0  0  0  0  0  0  0  0  0  0  0
    5.0629   -0.8559    0.0000 H   0  0  0  0  0  0  0  0  0  0  0  0
    3.3929    0.1082    0.0000 H   0  0  0  0  0  0  0  0  0  0  0  0
    2.1533   -1.3690    0.0000 C   0  0  0  0  0  0  0  0  0  0  0  0
    1.2733   -0.1590    0.0000 C   0  0  0  0  0  0  0  0  0  0  0  0
   -0.1567   -0.6190    0.0000 C   0  0  0  0  0  0  0  0  0  0  0  0
   -0.1567   -2.1190    0.0000 C   0  0  0  0  0  0  0  0  0  0  0  0
   -1.4567   -2.8690    0.0000 C   0  0  0  0  0  0  0  0  0  0  0  0
   -1.4567   -4.3690    0.0000 H   0  0  0  0  0  0  0  0  0  0  0  0
   -2.7567   -2.1190    0.0000 C   0  0  0  0  0  0  0  0  0  0  0  0
   -4.0556   -2.8692    0.0000 H   0  0  0  0  0  0  0  0  0  0  0  0
   -2.7567   -0.6190    0.0000 C   0  0  0  0  0  0  0  0  0  0  0  0
   -4.0556    0.1312    0.0000 H   0  0  0  0  0  0  0  0  0  0  0  0
   -1.4567    0.1310    0.0000 C   0  0  0  0  0  0  0  0  0  0  0  0
   -1.4567    1.6310    0.0000 H   0  0  0  0  0  0  0  0  0  0  0  0
    1.2733   -2.5790    0.0000 O   0  0  0  0  0  0  0  0  0  0  0  0
    2.1853    2.6360    0.0000 C   0  0  0  0  0  0  0  0  0  0  0  0
    3.6529    2.9461    0.0000 O   0  0  0  0  0  0  0  0  0  0  0  0
    1.1830    3.7520    0.0000 C   0  0  0  0  0  0  0  0  0  0  0  0
   -0.2765    3.4413    0.0000 C   0  0  0  0  0  0  0  0  0  0  0  0
   -0.7488    2.0176    0.0000 H   0  0  0  0  0  0  0  0  0  0  0  0
   -1.2496    4.5497    0.0000 C   0  0  0  0  0  0  0  0  0  0  0  0
   -0.8169    5.9654    0.0000 C   0  0  0  0  0  0  0  0  0  0  0  0
    0.6521    6.2729    0.0000 C   0  0  0  0  0  0  0  0  0  0  0  0
    1.6442    5.1583    0.0000 C   0  0  0  0  0  0  0  0  0  0  0  0
    3.1127    5.4639    0.0000 H   0  0  0  0  0  0  0  0  0  0  0  0
    1.1219    7.6974    0.0000 I   0  0  0  0  0  0  0  0  0  0  0  0
   -1.8286    7.0728    0.0000 O   0  0  0  0  0  0  0  0  0  0  0  0
   -1.3754    8.5027    0.0000 C   0  0  0  0  0  0  0  0  0  0  0  0
   -0.0459    7.8081    0.0000 H   0  0  0  0  0  0  0  0  0  0  0  0
   -0.4605    9.6914    0.0000 H   0  0  0  0  0  0  0  0  0  0  0  0
   -2.3871    9.6101    0.0000 C   0  0  0  0  0  0  0  0  0  0  0  0
   -1.9339   11.0400    0.0000 H   0  0  0  0  0  0  0  0  0  0  0  0
   -3.8521    9.2877    0.0000 O   0  0  0  0  0  0  0  0  0  0  0  0
   -2.7160    4.2342    0.0000 I   0  0  0  0  0  0  0  0  0  0  0  0
  1  2  1  0  0  0  0 
  1  3  1  0  0  0  0 
  1  4  1  0  0  0  0 
  1  5  1  0  0  0  0 
  5  6  1  0  0  0  0 
  5  7  1  0  0  0  0 
  5  8  1  0  0  0  0 
  8  9  1  0  0  0  0 
  8 10  1  0  0  0  0 
  8 11  1  0  0  0  0 
 11 12  1  0  0  0  0 
 11 13  1  0  0  0  0 
 11 14  1  0  0  0  0 
 14 15  2  0  0  0  0 
 15 16  1  0  0  0  0 
 16 17  2  0  0  0  0 
 17 18  1  0  0  0  0 
 18 19  1  0  0  0  0 
 18 20  2  0  0  0  0 
 20 21  1  0  0  0  0 
 20 22  1  0  0  0  0 
 22 23  1  0  0  0  0 
 22 24  2  0  0  0  0 
 16 24  1  0  0  0  0 
 24 25  1  0  0  0  0 
 17 26  1  0  0  0  0 
 14 26  1  0  0  0  0 
 15 27  1  0  0  0  0 
 27 28  2  0  0  0  0 
 27 29  1  0  0  0  0 
 29 30  2  0  0  0  0 
 30 31  1  0  0  0  0 
 30 32  1  0  0  0  0 
 32 33  2  0  0  0  0 
 33 34  1  0  0  0  0 
 34 35  2  0  0  0  0 
 29 35  1  0  0  0  0 
 35 36  1  0  0  0  0 
 34 37  1  0  0  0  0 
 33 38  1  0  0  0  0 
 38 39  1  0  0  0  0 
 39 40  1  0  0  0  0 
 39 41  1  0  0  0  0 
 39 42  1  0  0  0  0 
 42 43  1  0  0  0  0 
 42 44  2  0  0  0  0 
 32 45  1  0  0  0  0 
M  END
> <Rank>
13

> <Priority_score>
0.612

> <Reaction_type>
N-dealkylation

> <Parent_ID>
19

> <Parent_InChI>
InChI=1S/C25H29I2NO3/c1-4-7-11-22-23(18-10-8-9-12-21(18)31-22)24(29)17-15-19(26)25(20(27)16-17)30-14-13-28(5-2)6-3/h8-10,12,15-16H,4-7,11,13-14H2,1-3H3

> <Parent_SMILES>
CCCCc1oc2ccccc2c1C(=O)c1cc(I)c(OCCN(CC)CC)c(I)c1

$$$$
Molecule 19_metabolite 15
  CDK     0516241031

 47 49  0  0  0  0  0  0  0  0999 V2000
    6.8933   -4.3827    0.0000 C   0  0  0  0  0  0  0  0  0  0  0  0
    6.1433   -5.6818    0.0000 H   0  0  0  0  0  0  0  0  0  0  0  0
    8.0424   -3.4186    0.0000 H   0  0  0  0  0  0  0  0  0  0  0  0
    8.0424   -5.3469    0.0000 H   0  0  0  0  0  0  0  0  0  0  0  0
    6.1433   -3.0837    0.0000 C   0  0  0  0  0  0  0  0  0  0  0  0
    7.5529   -2.5707    0.0000 H   0  0  0  0  0  0  0  0  0  0  0  0
    5.8829   -1.6065    0.0000 H   0  0  0  0  0  0  0  0  0  0  0  0
    4.6433   -3.0837    0.0000 C   0  0  0  0  0  0  0  0  0  0  0  0
    3.2338   -3.5967    0.0000 H   0  0  0  0  0  0  0  0  0  0  0  0
    4.9038   -4.5609    0.0000 H   0  0  0  0  0  0  0  0  0  0  0  0
    3.6533   -1.3690    0.0000 C   0  0  0  0  0  0  0  0  0  0  0  0
    5.0629   -0.8559    0.0000 H   0  0  0  0  0  0  0  0  0  0  0  0
    3.3929    0.1082    0.0000 H   0  0  0  0  0  0  0  0  0  0  0  0
    2.1533   -1.3690    0.0000 C   0  0  0  0  0  0  0  0  0  0  0  0
    1.2733   -0.1590    0.0000 C   0  0  0  0  0  0  0  0  0  0  0  0
   -0.1567   -0.6190    0.0000 C   0  0  0  0  0  0  0  0  0  0  0  0
   -0.1567   -2.1190    0.0000 C   0  0  0  0  0  0  0  0  0  0  0  0
   -1.4567   -2.8690    0.0000 C   0  0  0  0  0  0  0  0  0  0  0  0
   -1.4567   -4.3690    0.0000 H   0  0  0  0  0  0  0  0  0  0  0  0
   -2.7567   -2.1190    0.0000 C   0  0  0  0  0  0  0  0  0  0  0  0
   -4.0556   -2.8692    0.0000 H   0  0  0  0  0  0  0  0  0  0  0  0
   -2.7567   -0.6190    0.0000 C   0  0  0  0  0  0  0  0  0  0  0  0
   -4.0556    0.1312    0.0000 H   0  0  0  0  0  0  0  0  0  0  0  0
   -1.4567    0.1310    0.0000 C   0  0  0  0  0  0  0  0  0  0  0  0
   -1.4567    1.6310    0.0000 H   0  0  0  0  0  0  0  0  0  0  0  0
    1.2733   -2.5790    0.0000 O   0  0  0  0  0  0  0  0  0  0  0  0
    2.1853    2.6360    0.0000 C   0  0  0  0  0  0  0  0  0  0  0  0
    3.6529    2.9461    0.0000 O   0  0  0  0  0  0  0  0  0  0  0  0
    1.1830    3.7520    0.0000 C   0  0  0  0  0  0  0  0  0  0  0  0
   -0.2765    3.4413    0.0000 C   0  0  0  0  0  0  0  0  0  0  0  0
   -0.7488    2.0176    0.0000 H   0  0  0  0  0  0  0  0  0  0  0  0
   -1.2496    4.5497    0.0000 C   0  0  0  0  0  0  0  0  0  0  0  0
   -0.8169    5.9654    0.0000 C   0  0  0  0  0  0  0  0  0  0  0  0
    0.6521    6.2729    0.0000 C   0  0  0  0  0  0  0  0  0  0  0  0
    1.6442    5.1583    0.0000 C   0  0  0  0  0  0  0  0  0  0  0  0
    3.1127    5.4639    0.0000 H   0  0  0  0  0  0  0  0  0  0  0  0
    1.1219    7.6974    0.0000 I   0  0  0  0  0  0  0  0  0  0  0  0
   -1.8286    7.0728    0.0000 O   0  0  0  0  0  0  0  0  0  0  0  0
   -1.3754    8.5027    0.0000 C   0  0  0  0  0  0  0  0  0  0  0  0
   -0.0459    7.8081    0.0000 H   0  0  0  0  0  0  0  0  0  0  0  0
   -0.4605    9.6914    0.0000 H   0  0  0  0  0  0  0  0  0  0  0  0
   -2.3871    9.6101    0.0000 C   0  0  0  0  0  0  0  0  0  0  0  0
   -3.7166   10.3047    0.0000 H   0  0  0  0  0  0  0  0  0  0  0  0
   -3.3021    8.4215    0.0000 H   0  0  0  0  0  0  0  0  0  0  0  0
   -1.9339   11.0400    0.0000 O   0  0  0  0  0  0  0  0  0  0  0  0
   -2.9457   12.1475    0.0000 H   0  0  0  0  0  0  0  0  0  0  0  0
   -2.7160    4.2342    0.0000 I   0  0  0  0  0  0  0  0  0  0  0  0
  1  2  1  0  0  0  0 
  1  3  1  0  0  0  0 
  1  4  1  0  0  0  0 
  1  5  1  0  0  0  0 
  5  6  1  0  0  0  0 
  5  7  1  0  0  0  0 
  5  8  1  0  0  0  0 
  8  9  1  0  0  0  0 
  8 10  1  0  0  0  0 
  8 11  1  0  0  0  0 
 11 12  1  0  0  0  0 
 11 13  1  0  0  0  0 
 11 14  1  0  0  0  0 
 14 15  2  0  0  0  0 
 15 16  1  0  0  0  0 
 16 17  2  0  0  0  0 
 17 18  1  0  0  0  0 
 18 19  1  0  0  0  0 
 18 20  2  0  0  0  0 
 20 21  1  0  0  0  0 
 20 22  1  0  0  0  0 
 22 23  1  0  0  0  0 
 22 24  2  0  0  0  0 
 16 24  1  0  0  0  0 
 24 25  1  0  0  0  0 
 17 26  1  0  0  0  0 
 14 26  1  0  0  0  0 
 15 27  1  0  0  0  0 
 27 28  2  0  0  0  0 
 27 29  1  0  0  0  0 
 29 30  2  0  0  0  0 
 30 31  1  0  0  0  0 
 30 32  1  0  0  0  0 
 32 33  2  0  0  0  0 
 33 34  1  0  0  0  0 
 34 35  2  0  0  0  0 
 29 35  1  0  0  0  0 
 35 36  1  0  0  0  0 
 34 37  1  0  0  0  0 
 33 38  1  0  0  0  0 
 38 39  1  0  0  0  0 
 39 40  1  0  0  0  0 
 39 41  1  0  0  0  0 
 39 42  1  0  0  0  0 
 42 43  1  0  0  0  0 
 42 44  1  0  0  0  0 
 42 45  1  0  0  0  0 
 45 46  1  0  0  0  0 
 32 47  1  0  0  0  0 
M  END
> <Rank>
13

> <Priority_score>
0.612

> <Reaction_type>
N-dealkylation_(tertiaryN-CH2-alkyl)

> <Parent_ID>
19

> <Parent_InChI>
InChI=1S/C25H29I2NO3/c1-4-7-11-22-23(18-10-8-9-12-21(18)31-22)24(29)17-15-19(26)25(20(27)16-17)30-14-13-28(5-2)6-3/h8-10,12,15-16H,4-7,11,13-14H2,1-3H3

> <Parent_SMILES>
CCCCc1oc2ccccc2c1C(=O)c1cc(I)c(OCCN(CC)CC)c(I)c1

$$$$
Molecule 19_metabolite 16
  CDK     0516241031

 61 63  0  0  0  0  0  0  0  0999 V2000
   10.7123   -0.8938    0.0000 C   0  0  0  0  0  0  0  0  0  0  0  0
   12.0736   -0.2640    0.0000 H   0  0  0  0  0  0  0  0  0  0  0  0
    9.6485   -1.9513    0.0000 H   0  0  0  0  0  0  0  0  0  0  0  0
   11.5690   -2.1251    0.0000 H   0  0  0  0  0  0  0  0  0  0  0  0
    9.4861   -0.0298    0.0000 C   0  0  0  0  0  0  0  0  0  0  0  0
    8.8481   -1.3873    0.0000 H   0  0  0  0  0  0  0  0  0  0  0  0
    8.0384    0.3628    0.0000 H   0  0  0  0  0  0  0  0  0  0  0  0
    9.6213    1.4641    0.0000 C   0  0  0  0  0  0  0  0  0  0  0  0
   10.2593    2.8217    0.0000 H   0  0  0  0  0  0  0  0  0  0  0  0
   11.0691    1.0716    0.0000 H   0  0  0  0  0  0  0  0  0  0  0  0
    8.0028    2.6046    0.0000 C   0  0  0  0  0  0  0  0  0  0  0  0
    7.3648    1.2471    0.0000 H   0  0  0  0  0  0  0  0  0  0  0  0
    6.5551    2.9972    0.0000 H   0  0  0  0  0  0  0  0  0  0  0  0
    8.1380    4.0985    0.0000 C   0  0  0  0  0  0  0  0  0  0  0  0
    7.0123    5.0840    0.0000 C   0  0  0  0  0  0  0  0  0  0  0  0
    7.5993    6.4667    0.0000 C   0  0  0  0  0  0  0  0  0  0  0  0
    9.0932    6.3315    0.0000 C   0  0  0  0  0  0  0  0  0  0  0  0
    9.9573    7.5586    0.0000 C   0  0  0  0  0  0  0  0  0  0  0  0
   11.4512    7.4234    0.0000 H   0  0  0  0  0  0  0  0  0  0  0  0
    9.3275    8.9209    0.0000 C   0  0  0  0  0  0  0  0  0  0  0  0
   10.1918   10.1470    0.0000 H   0  0  0  0  0  0  0  0  0  0  0  0
    7.8336    9.0562    0.0000 C   0  0  0  0  0  0  0  0  0  0  0  0
    7.2036   10.4174    0.0000 H   0  0  0  0  0  0  0  0  0  0  0  0
    6.9695    7.8290    0.0000 C   0  0  0  0  0  0  0  0  0  0  0  0
    5.4756    7.9642    0.0000 H   0  0  0  0  0  0  0  0  0  0  0  0
    9.4224    4.8659    0.0000 O   0  0  0  0  0  0  0  0  0  0  0  0
    4.1465    4.4277    0.0000 C   0  0  0  0  0  0  0  0  0  0  0  0
    3.7054    2.9940    0.0000 O   0  0  0  0  0  0  0  0  0  0  0  0
    3.1254    5.5265    0.0000 C   0  0  0  0  0  0  0  0  0  0  0  0
    3.5663    6.9521    0.0000 C   0  0  0  0  0  0  0  0  0  0  0  0
    5.0268    7.2941    0.0000 H   0  0  0  0  0  0  0  0  0  0  0  0
    2.5501    8.0211    0.0000 C   0  0  0  0  0  0  0  0  0  0  0  0
    1.1012    7.7177    0.0000 C   0  0  0  0  0  0  0  0  0  0  0  0
    0.6626    6.2825    0.0000 C   0  0  0  0  0  0  0  0  0  0  0  0
    1.6832    5.1940    0.0000 C   0  0  0  0  0  0  0  0  0  0  0  0
    1.2465    3.7590    0.0000 H   0  0  0  0  0  0  0  0  0  0  0  0
   -0.7985    5.9429    0.0000 I   0  0  0  0  0  0  0  0  0  0  0  0
    0.0895    8.8252    0.0000 O   0  0  0  0  0  0  0  0  0  0  0  0
   -1.3754    8.5027    0.0000 C   0  0  0  0  0  0  0  0  0  0  0  0
   -0.8035    7.1160    0.0000 H   0  0  0  0  0  0  0  0  0  0  0  0
   -2.6417    7.6986    0.0000 H   0  0  0  0  0  0  0  0  0  0  0  0
   -2.3871    9.6101    0.0000 C   0  0  0  0  0  0  0  0  0  0  0  0
   -3.7166   10.3047    0.0000 H   0  0  0  0  0  0  0  0  0  0  0  0
   -1.7889   11.4976    0.0000 N   0  0  0  0  0  0  0  0  0  0  0  0
   -2.8006   12.6050    0.0000 C   0  0  0  0  0  0  0  0  0  0  0  0
   -4.1301   13.2996    0.0000 H   0  0  0  0  0  0  0  0  0  0  0  0
   -3.7156   11.4164    0.0000 H   0  0  0  0  0  0  0  0  0  0  0  0
   -2.3474   14.0349    0.0000 C   0  0  0  0  0  0  0  0  0  0  0  0
   -3.3592   15.1424    0.0000 H   0  0  0  0  0  0  0  0  0  0  0  0
   -1.0180   13.3403    0.0000 H   0  0  0  0  0  0  0  0  0  0  0  0
   -1.4325   15.2236    0.0000 H   0  0  0  0  0  0  0  0  0  0  0  0
   -0.3240   11.8201    0.0000 C   0  0  0  0  0  0  0  0  0  0  0  0
   -0.2608   10.3214    0.0000 H   0  0  0  0  0  0  0  0  0  0  0  0
    1.1629   11.6221    0.0000 H   0  0  0  0  0  0  0  0  0  0  0  0
    0.1292   13.2500    0.0000 C   0  0  0  0  0  0  0  0  0  0  0  0
   -0.8825   14.3574    0.0000 H   0  0  0  0  0  0  0  0  0  0  0  0
    1.4587   12.5554    0.0000 H   0  0  0  0  0  0  0  0  0  0  0  0
    1.0441   14.4386    0.0000 H   0  0  0  0  0  0  0  0  0  0  0  0
   -3.3021    8.4215    0.0000 O   0  0  0  0  0  0  0  0  0  0  0  0
   -4.7889    8.6195    0.0000 H   0  0  0  0  0  0  0  0  0  0  0  0
    2.9965    9.4531    0.0000 I   0  0  0  0  0  0  0  0  0  0  0  0
  1  2  1  0  0  0  0 
  1  3  1  0  0  0  0 
  1  4  1  0  0  0  0 
  1  5  1  0  0  0  0 
  5  6  1  0  0  0  0 
  5  7  1  0  0  0  0 
  5  8  1  0  0  0  0 
  8  9  1  0  0  0  0 
  8 10  1  0  0  0  0 
  8 11  1  0  0  0  0 
 11 12  1  0  0  0  0 
 11 13  1  0  0  0  0 
 11 14  1  0  0  0  0 
 14 15  2  0  0  0  0 
 15 16  1  0  0  0  0 
 16 17  2  0  0  0  0 
 17 18  1  0  0  0  0 
 18 19  1  0  0  0  0 
 18 20  2  0  0  0  0 
 20 21  1  0  0  0  0 
 20 22  1  0  0  0  0 
 22 23  1  0  0  0  0 
 22 24  2  0  0  0  0 
 16 24  1  0  0  0  0 
 24 25  1  0  0  0  0 
 17 26  1  0  0  0  0 
 14 26  1  0  0  0  0 
 15 27  1  0  0  0  0 
 27 28  2  0  0  0  0 
 27 29  1  0  0  0  0 
 29 30  2  0  0  0  0 
 30 31  1  0  0  0  0 
 30 32  1  0  0  0  0 
 32 33  2  0  0  0  0 
 33 34  1  0  0  0  0 
 34 35  2  0  0  0  0 
 29 35  1  0  0  0  0 
 35 36  1  0  0  0  0 
 34 37  1  0  0  0  0 
 33 38  1  0  0  0  0 
 38 39  1  0  0  0  0 
 39 40  1  0  0  0  0 
 39 41  1  0  0  0  0 
 39 42  1  0  0  0  0 
 42 43  1  0  0  0  0 
 42 44  1  0  0  0  0 
 44 45  1  0  0  0  0 
 45 46  1  0  0  0  0 
 45 47  1  0  0  0  0 
 45 48  1  0  0  0  0 
 48 49  1  0  0  0  0 
 48 50  1  0  0  0  0 
 48 51  1  0  0  0  0 
 44 52  1  0  0  0  0 
 52 53  1  0  0  0  0 
 52 54  1  0  0  0  0 
 52 55  1  0  0  0  0 
 55 56  1  0  0  0  0 
 55 57  1  0  0  0  0 
 55 58  1  0  0  0  0 
 42 59  1  0  0  0  0 
 59 60  1  0  0  0  0 
 32 61  1  0  0  0  0 
M  END
> <Rank>
13

> <Priority_score>
0.612

> <Reaction_type>
aliphatic hydroxylation

> <Parent_ID>
19

> <Parent_InChI>
InChI=1S/C25H29I2NO3/c1-4-7-11-22-23(18-10-8-9-12-21(18)31-22)24(29)17-15-19(26)25(20(27)16-17)30-14-13-28(5-2)6-3/h8-10,12,15-16H,4-7,11,13-14H2,1-3H3

> <Parent_SMILES>
CCCCc1oc2ccccc2c1C(=O)c1cc(I)c(OCCN(CC)CC)c(I)c1

$$$$
Molecule 19_metabolite 17
  CDK     0516241031

 61 63  0  0  0  0  0  0  0  0999 V2000
   10.7123   -0.8938    0.0000 C   0  0  0  0  0  0  0  0  0  0  0  0
   12.0736   -0.2640    0.0000 H   0  0  0  0  0  0  0  0  0  0  0  0
    9.6485   -1.9513    0.0000 H   0  0  0  0  0  0  0  0  0  0  0  0
   11.5690   -2.1251    0.0000 H   0  0  0  0  0  0  0  0  0  0  0  0
    9.4861   -0.0298    0.0000 C   0  0  0  0  0  0  0  0  0  0  0  0
    8.8481   -1.3873    0.0000 H   0  0  0  0  0  0  0  0  0  0  0  0
    8.0384    0.3628    0.0000 H   0  0  0  0  0  0  0  0  0  0  0  0
    9.6213    1.4641    0.0000 C   0  0  0  0  0  0  0  0  0  0  0  0
   10.2593    2.8217    0.0000 H   0  0  0  0  0  0  0  0  0  0  0  0
   11.0691    1.0716    0.0000 H   0  0  0  0  0  0  0  0  0  0  0  0
    8.0028    2.6046    0.0000 C   0  0  0  0  0  0  0  0  0  0  0  0
    7.3648    1.2471    0.0000 H   0  0  0  0  0  0  0  0  0  0  0  0
    6.5551    2.9972    0.0000 H   0  0  0  0  0  0  0  0  0  0  0  0
    8.1380    4.0985    0.0000 C   0  0  0  0  0  0  0  0  0  0  0  0
    7.0123    5.0840    0.0000 C   0  0  0  0  0  0  0  0  0  0  0  0
    7.5993    6.4667    0.0000 C   0  0  0  0  0  0  0  0  0  0  0  0
    9.0932    6.3315    0.0000 C   0  0  0  0  0  0  0  0  0  0  0  0
    9.9573    7.5586    0.0000 C   0  0  0  0  0  0  0  0  0  0  0  0
   11.4512    7.4234    0.0000 H   0  0  0  0  0  0  0  0  0  0  0  0
    9.3275    8.9209    0.0000 C   0  0  0  0  0  0  0  0  0  0  0  0
   10.1918   10.1470    0.0000 H   0  0  0  0  0  0  0  0  0  0  0  0
    7.8336    9.0562    0.0000 C   0  0  0  0  0  0  0  0  0  0  0  0
    6.9695    7.8290    0.0000 C   0  0  0  0  0  0  0  0  0  0  0  0
    5.4756    7.9642    0.0000 H   0  0  0  0  0  0  0  0  0  0  0  0
    7.2036   10.4174    0.0000 O   0  0  0  0  0  0  0  0  0  0  0  0
    8.0674   11.6437    0.0000 H   0  0  0  0  0  0  0  0  0  0  0  0
    9.4224    4.8659    0.0000 O   0  0  0  0  0  0  0  0  0  0  0  0
    4.1465    4.4277    0.0000 C   0  0  0  0  0  0  0  0  0  0  0  0
    3.7054    2.9940    0.0000 O   0  0  0  0  0  0  0  0  0  0  0  0
    3.1254    5.5265    0.0000 C   0  0  0  0  0  0  0  0  0  0  0  0
    3.5663    6.9521    0.0000 C   0  0  0  0  0  0  0  0  0  0  0  0
    5.0268    7.2941    0.0000 H   0  0  0  0  0  0  0  0  0  0  0  0
    2.5501    8.0211    0.0000 C   0  0  0  0  0  0  0  0  0  0  0  0
    1.1012    7.7177    0.0000 C   0  0  0  0  0  0  0  0  0  0  0  0
    0.6626    6.2825    0.0000 C   0  0  0  0  0  0  0  0  0  0  0  0
    1.6832    5.1940    0.0000 C   0  0  0  0  0  0  0  0  0  0  0  0
    1.2465    3.7590    0.0000 H   0  0  0  0  0  0  0  0  0  0  0  0
   -0.7985    5.9429    0.0000 I   0  0  0  0  0  0  0  0  0  0  0  0
    0.0895    8.8252    0.0000 O   0  0  0  0  0  0  0  0  0  0  0  0
   -1.3754    8.5027    0.0000 C   0  0  0  0  0  0  0  0  0  0  0  0
   -0.8035    7.1160    0.0000 H   0  0  0  0  0  0  0  0  0  0  0  0
   -2.6417    7.6986    0.0000 H   0  0  0  0  0  0  0  0  0  0  0  0
   -2.3871    9.6101    0.0000 C   0  0  0  0  0  0  0  0  0  0  0  0
   -3.7166   10.3047    0.0000 H   0  0  0  0  0  0  0  0  0  0  0  0
   -3.3021    8.4215    0.0000 H   0  0  0  0  0  0  0  0  0  0  0  0
   -1.7889   11.4976    0.0000 N   0  0  0  0  0  0  0  0  0  0  0  0
   -2.8006   12.6050    0.0000 C   0  0  0  0  0  0  0  0  0  0  0  0
   -4.1301   13.2996    0.0000 H   0  0  0  0  0  0  0  0  0  0  0  0
   -3.7156   11.4164    0.0000 H   0  0  0  0  0  0  0  0  0  0  0  0
   -2.3474   14.0349    0.0000 C   0  0  0  0  0  0  0  0  0  0  0  0
   -3.3592   15.1424    0.0000 H   0  0  0  0  0  0  0  0  0  0  0  0
   -1.0180   13.3403    0.0000 H   0  0  0  0  0  0  0  0  0  0  0  0
   -1.4325   15.2236    0.0000 H   0  0  0  0  0  0  0  0  0  0  0  0
   -0.3240   11.8201    0.0000 C   0  0  0  0  0  0  0  0  0  0  0  0
   -0.2608   10.3214    0.0000 H   0  0  0  0  0  0  0  0  0  0  0  0
    1.1629   11.6221    0.0000 H   0  0  0  0  0  0  0  0  0  0  0  0
    0.1292   13.2500    0.0000 C   0  0  0  0  0  0  0  0  0  0  0  0
   -0.8825   14.3574    0.0000 H   0  0  0  0  0  0  0  0  0  0  0  0
    1.4587   12.5554    0.0000 H   0  0  0  0  0  0  0  0  0  0  0  0
    1.0441   14.4386    0.0000 H   0  0  0  0  0  0  0  0  0  0  0  0
    2.9965    9.4531    0.0000 I   0  0  0  0  0  0  0  0  0  0  0  0
  1  2  1  0  0  0  0 
  1  3  1  0  0  0  0 
  1  4  1  0  0  0  0 
  1  5  1  0  0  0  0 
  5  6  1  0  0  0  0 
  5  7  1  0  0  0  0 
  5  8  1  0  0  0  0 
  8  9  1  0  0  0  0 
  8 10  1  0  0  0  0 
  8 11  1  0  0  0  0 
 11 12  1  0  0  0  0 
 11 13  1  0  0  0  0 
 11 14  1  0  0  0  0 
 14 15  2  0  0  0  0 
 15 16  1  0  0  0  0 
 16 17  2  0  0  0  0 
 17 18  1  0  0  0  0 
 18 19  1  0  0  0  0 
 18 20  2  0  0  0  0 
 20 21  1  0  0  0  0 
 20 22  1  0  0  0  0 
 22 23  2  0  0  0  0 
 16 23  1  0  0  0  0 
 23 24  1  0  0  0  0 
 22 25  1  0  0  0  0 
 25 26  1  0  0  0  0 
 17 27  1  0  0  0  0 
 14 27  1  0  0  0  0 
 15 28  1  0  0  0  0 
 28 29  2  0  0  0  0 
 28 30  1  0  0  0  0 
 30 31  2  0  0  0  0 
 31 32  1  0  0  0  0 
 31 33  1  0  0  0  0 
 33 34  2  0  0  0  0 
 34 35  1  0  0  0  0 
 35 36  2  0  0  0  0 
 30 36  1  0  0  0  0 
 36 37  1  0  0  0  0 
 35 38  1  0  0  0  0 
 34 39  1  0  0  0  0 
 39 40  1  0  0  0  0 
 40 41  1  0  0  0  0 
 40 42  1  0  0  0  0 
 40 43  1  0  0  0  0 
 43 44  1  0  0  0  0 
 43 45  1  0  0  0  0 
 43 46  1  0  0  0  0 
 46 47  1  0  0  0  0 
 47 48  1  0  0  0  0 
 47 49  1  0  0  0  0 
 47 50  1  0  0  0  0 
 50 51  1  0  0  0  0 
 50 52  1  0  0  0  0 
 50 53  1  0  0  0  0 
 46 54  1  0  0  0  0 
 54 55  1  0  0  0  0 
 54 56  1  0  0  0  0 
 54 57  1  0  0  0  0 
 57 58  1  0  0  0  0 
 57 59  1  0  0  0  0 
 57 60  1  0  0  0  0 
 33 61  1  0  0  0  0 
M  END
> <Rank>
17

> <Priority_score>
0.4290780971923086

> <Reaction_type>
aromatic_hydroxylation_(para_to_oxygen)

> <Parent_ID>
19

> <Parent_InChI>
InChI=1S/C25H29I2NO3/c1-4-7-11-22-23(18-10-8-9-12-21(18)31-22)24(29)17-15-19(26)25(20(27)16-17)30-14-13-28(5-2)6-3/h8-10,12,15-16H,4-7,11,13-14H2,1-3H3

> <Parent_SMILES>
CCCCc1oc2ccccc2c1C(=O)c1cc(I)c(OCCN(CC)CC)c(I)c1

$$$$
Molecule 19_metabolite 18
  CDK     0516241031

 61 63  0  0  0  0  0  0  0  0999 V2000
   10.7123   -0.8938    0.0000 C   0  0  0  0  0  0  0  0  0  0  0  0
   12.0736   -0.2640    0.0000 H   0  0  0  0  0  0  0  0  0  0  0  0
    9.6485   -1.9513    0.0000 H   0  0  0  0  0  0  0  0  0  0  0  0
   11.5690   -2.1251    0.0000 H   0  0  0  0  0  0  0  0  0  0  0  0
    9.4861   -0.0298    0.0000 C   0  0  0  0  0  0  0  0  0  0  0  0
    8.8481   -1.3873    0.0000 H   0  0  0  0  0  0  0  0  0  0  0  0
    8.0384    0.3628    0.0000 H   0  0  0  0  0  0  0  0  0  0  0  0
    9.6213    1.4641    0.0000 C   0  0  0  0  0  0  0  0  0  0  0  0
   10.2593    2.8217    0.0000 H   0  0  0  0  0  0  0  0  0  0  0  0
   11.0691    1.0716    0.0000 H   0  0  0  0  0  0  0  0  0  0  0  0
    8.0028    2.6046    0.0000 C   0  0  0  0  0  0  0  0  0  0  0  0
    7.3648    1.2471    0.0000 H   0  0  0  0  0  0  0  0  0  0  0  0
    6.5551    2.9972    0.0000 H   0  0  0  0  0  0  0  0  0  0  0  0
    8.1380    4.0985    0.0000 C   0  0  0  0  0  0  0  0  0  0  0  0
    7.0123    5.0840    0.0000 C   0  0  0  0  0  0  0  0  0  0  0  0
    7.5993    6.4667    0.0000 C   0  0  0  0  0  0  0  0  0  0  0  0
    9.0932    6.3315    0.0000 C   0  0  0  0  0  0  0  0  0  0  0  0
    9.9573    7.5586    0.0000 C   0  0  0  0  0  0  0  0  0  0  0  0
    9.3275    8.9209    0.0000 C   0  0  0  0  0  0  0  0  0  0  0  0
   10.1918   10.1470    0.0000 H   0  0  0  0  0  0  0  0  0  0  0  0
    7.8336    9.0562    0.0000 C   0  0  0  0  0  0  0  0  0  0  0  0
    7.2036   10.4174    0.0000 H   0  0  0  0  0  0  0  0  0  0  0  0
    6.9695    7.8290    0.0000 C   0  0  0  0  0  0  0  0  0  0  0  0
    5.4756    7.9642    0.0000 H   0  0  0  0  0  0  0  0  0  0  0  0
   11.4512    7.4234    0.0000 O   0  0  0  0  0  0  0  0  0  0  0  0
   12.3152    8.6496    0.0000 H   0  0  0  0  0  0  0  0  0  0  0  0
    9.4224    4.8659    0.0000 O   0  0  0  0  0  0  0  0  0  0  0  0
    4.1465    4.4277    0.0000 C   0  0  0  0  0  0  0  0  0  0  0  0
    3.7054    2.9940    0.0000 O   0  0  0  0  0  0  0  0  0  0  0  0
    3.1254    5.5265    0.0000 C   0  0  0  0  0  0  0  0  0  0  0  0
    3.5663    6.9521    0.0000 C   0  0  0  0  0  0  0  0  0  0  0  0
    5.0268    7.2941    0.0000 H   0  0  0  0  0  0  0  0  0  0  0  0
    2.5501    8.0211    0.0000 C   0  0  0  0  0  0  0  0  0  0  0  0
    1.1012    7.7177    0.0000 C   0  0  0  0  0  0  0  0  0  0  0  0
    0.6626    6.2825    0.0000 C   0  0  0  0  0  0  0  0  0  0  0  0
    1.6832    5.1940    0.0000 C   0  0  0  0  0  0  0  0  0  0  0  0
    1.2465    3.7590    0.0000 H   0  0  0  0  0  0  0  0  0  0  0  0
   -0.7985    5.9429    0.0000 I   0  0  0  0  0  0  0  0  0  0  0  0
    0.0895    8.8252    0.0000 O   0  0  0  0  0  0  0  0  0  0  0  0
   -1.3754    8.5027    0.0000 C   0  0  0  0  0  0  0  0  0  0  0  0
   -0.8035    7.1160    0.0000 H   0  0  0  0  0  0  0  0  0  0  0  0
   -2.6417    7.6986    0.0000 H   0  0  0  0  0  0  0  0  0  0  0  0
   -2.3871    9.6101    0.0000 C   0  0  0  0  0  0  0  0  0  0  0  0
   -3.7166   10.3047    0.0000 H   0  0  0  0  0  0  0  0  0  0  0  0
   -3.3021    8.4215    0.0000 H   0  0  0  0  0  0  0  0  0  0  0  0
   -1.7889   11.4976    0.0000 N   0  0  0  0  0  0  0  0  0  0  0  0
   -2.8006   12.6050    0.0000 C   0  0  0  0  0  0  0  0  0  0  0  0
   -4.1301   13.2996    0.0000 H   0  0  0  0  0  0  0  0  0  0  0  0
   -3.7156   11.4164    0.0000 H   0  0  0  0  0  0  0  0  0  0  0  0
   -2.3474   14.0349    0.0000 C   0  0  0  0  0  0  0  0  0  0  0  0
   -3.3592   15.1424    0.0000 H   0  0  0  0  0  0  0  0  0  0  0  0
   -1.0180   13.3403    0.0000 H   0  0  0  0  0  0  0  0  0  0  0  0
   -1.4325   15.2236    0.0000 H   0  0  0  0  0  0  0  0  0  0  0  0
   -0.3240   11.8201    0.0000 C   0  0  0  0  0  0  0  0  0  0  0  0
   -0.2608   10.3214    0.0000 H   0  0  0  0  0  0  0  0  0  0  0  0
    1.1629   11.6221    0.0000 H   0  0  0  0  0  0  0  0  0  0  0  0
    0.1292   13.2500    0.0000 C   0  0  0  0  0  0  0  0  0  0  0  0
   -0.8825   14.3574    0.0000 H   0  0  0  0  0  0  0  0  0  0  0  0
    1.4587   12.5554    0.0000 H   0  0  0  0  0  0  0  0  0  0  0  0
    1.0441   14.4386    0.0000 H   0  0  0  0  0  0  0  0  0  0  0  0
    2.9965    9.4531    0.0000 I   0  0  0  0  0  0  0  0  0  0  0  0
  1  2  1  0  0  0  0 
  1  3  1  0  0  0  0 
  1  4  1  0  0  0  0 
  1  5  1  0  0  0  0 
  5  6  1  0  0  0  0 
  5  7  1  0  0  0  0 
  5  8  1  0  0  0  0 
  8  9  1  0  0  0  0 
  8 10  1  0  0  0  0 
  8 11  1  0  0  0  0 
 11 12  1  0  0  0  0 
 11 13  1  0  0  0  0 
 11 14  1  0  0  0  0 
 14 15  2  0  0  0  0 
 15 16  1  0  0  0  0 
 16 17  2  0  0  0  0 
 17 18  1  0  0  0  0 
 18 19  2  0  0  0  0 
 19 20  1  0  0  0  0 
 19 21  1  0  0  0  0 
 21 22  1  0  0  0  0 
 21 23  2  0  0  0  0 
 16 23  1  0  0  0  0 
 23 24  1  0  0  0  0 
 18 25  1  0  0  0  0 
 25 26  1  0  0  0  0 
 17 27  1  0  0  0  0 
 14 27  1  0  0  0  0 
 15 28  1  0  0  0  0 
 28 29  2  0  0  0  0 
 28 30  1  0  0  0  0 
 30 31  2  0  0  0  0 
 31 32  1  0  0  0  0 
 31 33  1  0  0  0  0 
 33 34  2  0  0  0  0 
 34 35  1  0  0  0  0 
 35 36  2  0  0  0  0 
 30 36  1  0  0  0  0 
 36 37  1  0  0  0  0 
 35 38  1  0  0  0  0 
 34 39  1  0  0  0  0 
 39 40  1  0  0  0  0 
 40 41  1  0  0  0  0 
 40 42  1  0  0  0  0 
 40 43  1  0  0  0  0 
 43 44  1  0  0  0  0 
 43 45  1  0  0  0  0 
 43 46  1  0  0  0  0 
 46 47  1  0  0  0  0 
 47 48  1  0  0  0  0 
 47 49  1  0  0  0  0 
 47 50  1  0  0  0  0 
 50 51  1  0  0  0  0 
 50 52  1  0  0  0  0 
 50 53  1  0  0  0  0 
 46 54  1  0  0  0  0 
 54 55  1  0  0  0  0 
 54 56  1  0  0  0  0 
 54 57  1  0  0  0  0 
 57 58  1  0  0  0  0 
 57 59  1  0  0  0  0 
 57 60  1  0  0  0  0 
 33 61  1  0  0  0  0 
M  END
> <Rank>
17

> <Priority_score>
0.4290780971923086

> <Reaction_type>
aromatic_hydroxylation_(ortho_to_oxygen)

> <Parent_ID>
19

> <Parent_InChI>
InChI=1S/C25H29I2NO3/c1-4-7-11-22-23(18-10-8-9-12-21(18)31-22)24(29)17-15-19(26)25(20(27)16-17)30-14-13-28(5-2)6-3/h8-10,12,15-16H,4-7,11,13-14H2,1-3H3

> <Parent_SMILES>
CCCCc1oc2ccccc2c1C(=O)c1cc(I)c(OCCN(CC)CC)c(I)c1

$$$$
Molecule 19_metabolite 19
  CDK     0516241031

 61 63  0  0  0  0  0  0  0  0999 V2000
   10.7123   -0.8938    0.0000 C   0  0  0  0  0  0  0  0  0  0  0  0
   12.0736   -0.2640    0.0000 H   0  0  0  0  0  0  0  0  0  0  0  0
    9.6485   -1.9513    0.0000 H   0  0  0  0  0  0  0  0  0  0  0  0
   11.5690   -2.1251    0.0000 H   0  0  0  0  0  0  0  0  0  0  0  0
    9.4861   -0.0298    0.0000 C   0  0  0  0  0  0  0  0  0  0  0  0
    8.8481   -1.3873    0.0000 H   0  0  0  0  0  0  0  0  0  0  0  0
    8.0384    0.3628    0.0000 H   0  0  0  0  0  0  0  0  0  0  0  0
    9.6213    1.4641    0.0000 C   0  0  0  0  0  0  0  0  0  0  0  0
   10.2593    2.8217    0.0000 H   0  0  0  0  0  0  0  0  0  0  0  0
   11.0691    1.0716    0.0000 H   0  0  0  0  0  0  0  0  0  0  0  0
    8.0028    2.6046    0.0000 C   0  0  0  0  0  0  0  0  0  0  0  0
    7.3648    1.2471    0.0000 H   0  0  0  0  0  0  0  0  0  0  0  0
    6.5551    2.9972    0.0000 H   0  0  0  0  0  0  0  0  0  0  0  0
    8.1380    4.0985    0.0000 C   0  0  0  0  0  0  0  0  0  0  0  0
    7.0123    5.0840    0.0000 C   0  0  0  0  0  0  0  0  0  0  0  0
    7.5993    6.4667    0.0000 C   0  0  0  0  0  0  0  0  0  0  0  0
    9.0932    6.3315    0.0000 C   0  0  0  0  0  0  0  0  0  0  0  0
    9.9573    7.5586    0.0000 C   0  0  0  0  0  0  0  0  0  0  0  0
   11.4512    7.4234    0.0000 H   0  0  0  0  0  0  0  0  0  0  0  0
    9.3275    8.9209    0.0000 C   0  0  0  0  0  0  0  0  0  0  0  0
    7.8336    9.0562    0.0000 C   0  0  0  0  0  0  0  0  0  0  0  0
    7.2036   10.4174    0.0000 H   0  0  0  0  0  0  0  0  0  0  0  0
    6.9695    7.8290    0.0000 C   0  0  0  0  0  0  0  0  0  0  0  0
    5.4756    7.9642    0.0000 H   0  0  0  0  0  0  0  0  0  0  0  0
   10.1918   10.1470    0.0000 O   0  0  0  0  0  0  0  0  0  0  0  0
    9.5621   11.5084    0.0000 H   0  0  0  0  0  0  0  0  0  0  0  0
    9.4224    4.8659    0.0000 O   0  0  0  0  0  0  0  0  0  0  0  0
    4.1465    4.4277    0.0000 C   0  0  0  0  0  0  0  0  0  0  0  0
    3.7054    2.9940    0.0000 O   0  0  0  0  0  0  0  0  0  0  0  0
    3.1254    5.5265    0.0000 C   0  0  0  0  0  0  0  0  0  0  0  0
    3.5663    6.9521    0.0000 C   0  0  0  0  0  0  0  0  0  0  0  0
    5.0268    7.2941    0.0000 H   0  0  0  0  0  0  0  0  0  0  0  0
    2.5501    8.0211    0.0000 C   0  0  0  0  0  0  0  0  0  0  0  0
    1.1012    7.7177    0.0000 C   0  0  0  0  0  0  0  0  0  0  0  0
    0.6626    6.2825    0.0000 C   0  0  0  0  0  0  0  0  0  0  0  0
    1.6832    5.1940    0.0000 C   0  0  0  0  0  0  0  0  0  0  0  0
    1.2465    3.7590    0.0000 H   0  0  0  0  0  0  0  0  0  0  0  0
   -0.7985    5.9429    0.0000 I   0  0  0  0  0  0  0  0  0  0  0  0
    0.0895    8.8252    0.0000 O   0  0  0  0  0  0  0  0  0  0  0  0
   -1.3754    8.5027    0.0000 C   0  0  0  0  0  0  0  0  0  0  0  0
   -0.8035    7.1160    0.0000 H   0  0  0  0  0  0  0  0  0  0  0  0
   -2.6417    7.6986    0.0000 H   0  0  0  0  0  0  0  0  0  0  0  0
   -2.3871    9.6101    0.0000 C   0  0  0  0  0  0  0  0  0  0  0  0
   -3.7166   10.3047    0.0000 H   0  0  0  0  0  0  0  0  0  0  0  0
   -3.3021    8.4215    0.0000 H   0  0  0  0  0  0  0  0  0  0  0  0
   -1.7889   11.4976    0.0000 N   0  0  0  0  0  0  0  0  0  0  0  0
   -2.8006   12.6050    0.0000 C   0  0  0  0  0  0  0  0  0  0  0  0
   -4.1301   13.2996    0.0000 H   0  0  0  0  0  0  0  0  0  0  0  0
   -3.7156   11.4164    0.0000 H   0  0  0  0  0  0  0  0  0  0  0  0
   -2.3474   14.0349    0.0000 C   0  0  0  0  0  0  0  0  0  0  0  0
   -3.3592   15.1424    0.0000 H   0  0  0  0  0  0  0  0  0  0  0  0
   -1.0180   13.3403    0.0000 H   0  0  0  0  0  0  0  0  0  0  0  0
   -1.4325   15.2236    0.0000 H   0  0  0  0  0  0  0  0  0  0  0  0
   -0.3240   11.8201    0.0000 C   0  0  0  0  0  0  0  0  0  0  0  0
   -0.2608   10.3214    0.0000 H   0  0  0  0  0  0  0  0  0  0  0  0
    1.1629   11.6221    0.0000 H   0  0  0  0  0  0  0  0  0  0  0  0
    0.1292   13.2500    0.0000 C   0  0  0  0  0  0  0  0  0  0  0  0
   -0.8825   14.3574    0.0000 H   0  0  0  0  0  0  0  0  0  0  0  0
    1.4587   12.5554    0.0000 H   0  0  0  0  0  0  0  0  0  0  0  0
    1.0441   14.4386    0.0000 H   0  0  0  0  0  0  0  0  0  0  0  0
    2.9965    9.4531    0.0000 I   0  0  0  0  0  0  0  0  0  0  0  0
  1  2  1  0  0  0  0 
  1  3  1  0  0  0  0 
  1  4  1  0  0  0  0 
  1  5  1  0  0  0  0 
  5  6  1  0  0  0  0 
  5  7  1  0  0  0  0 
  5  8  1  0  0  0  0 
  8  9  1  0  0  0  0 
  8 10  1  0  0  0  0 
  8 11  1  0  0  0  0 
 11 12  1  0  0  0  0 
 11 13  1  0  0  0  0 
 11 14  1  0  0  0  0 
 14 15  2  0  0  0  0 
 15 16  1  0  0  0  0 
 16 17  2  0  0  0  0 
 17 18  1  0  0  0  0 
 18 19  1  0  0  0  0 
 18 20  2  0  0  0  0 
 20 21  1  0  0  0  0 
 21 22  1  0  0  0  0 
 21 23  2  0  0  0  0 
 16 23  1  0  0  0  0 
 23 24  1  0  0  0  0 
 20 25  1  0  0  0  0 
 25 26  1  0  0  0  0 
 17 27  1  0  0  0  0 
 14 27  1  0  0  0  0 
 15 28  1  0  0  0  0 
 28 29  2  0  0  0  0 
 28 30  1  0  0  0  0 
 30 31  2  0  0  0  0 
 31 32  1  0  0  0  0 
 31 33  1  0  0  0  0 
 33 34  2  0  0  0  0 
 34 35  1  0  0  0  0 
 35 36  2  0  0  0  0 
 30 36  1  0  0  0  0 
 36 37  1  0  0  0  0 
 35 38  1  0  0  0  0 
 34 39  1  0  0  0  0 
 39 40  1  0  0  0  0 
 40 41  1  0  0  0  0 
 40 42  1  0  0  0  0 
 40 43  1  0  0  0  0 
 43 44  1  0  0  0  0 
 43 45  1  0  0  0  0 
 43 46  1  0  0  0  0 
 46 47  1  0  0  0  0 
 47 48  1  0  0  0  0 
 47 49  1  0  0  0  0 
 47 50  1  0  0  0  0 
 50 51  1  0  0  0  0 
 50 52  1  0  0  0  0 
 50 53  1  0  0  0  0 
 46 54  1  0  0  0  0 
 54 55  1  0  0  0  0 
 54 56  1  0  0  0  0 
 54 57  1  0  0  0  0 
 57 58  1  0  0  0  0 
 57 59  1  0  0  0  0 
 57 60  1  0  0  0  0 
 33 61  1  0  0  0  0 
M  END
> <Rank>
17

> <Priority_score>
0.4290780971923086

> <Reaction_type>
aromatic_hydroxylation_(para_to_carbon)

> <Parent_ID>
19

> <Parent_InChI>
InChI=1S/C25H29I2NO3/c1-4-7-11-22-23(18-10-8-9-12-21(18)31-22)24(29)17-15-19(26)25(20(27)16-17)30-14-13-28(5-2)6-3/h8-10,12,15-16H,4-7,11,13-14H2,1-3H3

> <Parent_SMILES>
CCCCc1oc2ccccc2c1C(=O)c1cc(I)c(OCCN(CC)CC)c(I)c1

$$$$
Molecule 19_metabolite 20
  CDK     0516241031

 58 60  0  0  0  0  0  0  0  0999 V2000
   10.3199   -0.6173    0.0000 C   0  0  0  0  0  0  0  0  0  0  0  0
   10.1847   -2.1112    0.0000 H   0  0  0  0  0  0  0  0  0  0  0  0
   11.6813    0.0125    0.0000 H   0  0  0  0  0  0  0  0  0  0  0  0
    9.0938    0.2467    0.0000 C   0  0  0  0  0  0  0  0  0  0  0  0
    7.7324   -0.3831    0.0000 H   0  0  0  0  0  0  0  0  0  0  0  0
    9.2290    1.7406    0.0000 C   0  0  0  0  0  0  0  0  0  0  0  0
    9.8670    3.0982    0.0000 H   0  0  0  0  0  0  0  0  0  0  0  0
   10.6767    1.3480    0.0000 H   0  0  0  0  0  0  0  0  0  0  0  0
    8.0028    2.6046    0.0000 C   0  0  0  0  0  0  0  0  0  0  0  0
    7.3648    1.2471    0.0000 H   0  0  0  0  0  0  0  0  0  0  0  0
    6.5551    2.9972    0.0000 H   0  0  0  0  0  0  0  0  0  0  0  0
    8.1380    4.0985    0.0000 C   0  0  0  0  0  0  0  0  0  0  0  0
    7.0123    5.0840    0.0000 C   0  0  0  0  0  0  0  0  0  0  0  0
    7.5993    6.4667    0.0000 C   0  0  0  0  0  0  0  0  0  0  0  0
    9.0932    6.3315    0.0000 C   0  0  0  0  0  0  0  0  0  0  0  0
    9.9573    7.5586    0.0000 C   0  0  0  0  0  0  0  0  0  0  0  0
   11.4512    7.4234    0.0000 H   0  0  0  0  0  0  0  0  0  0  0  0
    9.3275    8.9209    0.0000 C   0  0  0  0  0  0  0  0  0  0  0  0
   10.1918   10.1470    0.0000 H   0  0  0  0  0  0  0  0  0  0  0  0
    7.8336    9.0562    0.0000 C   0  0  0  0  0  0  0  0  0  0  0  0
    7.2036   10.4174    0.0000 H   0  0  0  0  0  0  0  0  0  0  0  0
    6.9695    7.8290    0.0000 C   0  0  0  0  0  0  0  0  0  0  0  0
    5.4756    7.9642    0.0000 H   0  0  0  0  0  0  0  0  0  0  0  0
    9.4224    4.8659    0.0000 O   0  0  0  0  0  0  0  0  0  0  0  0
    4.1465    4.4277    0.0000 C   0  0  0  0  0  0  0  0  0  0  0  0
    3.7054    2.9940    0.0000 O   0  0  0  0  0  0  0  0  0  0  0  0
    3.1254    5.5265    0.0000 C   0  0  0  0  0  0  0  0  0  0  0  0
    3.5663    6.9521    0.0000 C   0  0  0  0  0  0  0  0  0  0  0  0
    5.0268    7.2941    0.0000 H   0  0  0  0  0  0  0  0  0  0  0  0
    2.5501    8.0211    0.0000 C   0  0  0  0  0  0  0  0  0  0  0  0
    1.1012    7.7177    0.0000 C   0  0  0  0  0  0  0  0  0  0  0  0
    0.6626    6.2825    0.0000 C   0  0  0  0  0  0  0  0  0  0  0  0
    1.6832    5.1940    0.0000 C   0  0  0  0  0  0  0  0  0  0  0  0
    1.2465    3.7590    0.0000 H   0  0  0  0  0  0  0  0  0  0  0  0
   -0.7985    5.9429    0.0000 I   0  0  0  0  0  0  0  0  0  0  0  0
    0.0895    8.8252    0.0000 O   0  0  0  0  0  0  0  0  0  0  0  0
   -1.3754    8.5027    0.0000 C   0  0  0  0  0  0  0  0  0  0  0  0
   -0.8035    7.1160    0.0000 H   0  0  0  0  0  0  0  0  0  0  0  0
   -2.6417    7.6986    0.0000 H   0  0  0  0  0  0  0  0  0  0  0  0
   -2.3871    9.6101    0.0000 C   0  0  0  0  0  0  0  0  0  0  0  0
   -3.7166   10.3047    0.0000 H   0  0  0  0  0  0  0  0  0  0  0  0
   -3.3021    8.4215    0.0000 H   0  0  0  0  0  0  0  0  0  0  0  0
   -1.7889   11.4976    0.0000 N   0  0  0  0  0  0  0  0  0  0  0  0
   -2.8006   12.6050    0.0000 C   0  0  0  0  0  0  0  0  0  0  0  0
   -4.1301   13.2996    0.0000 H   0  0  0  0  0  0  0  0  0  0  0  0
   -3.7156   11.4164    0.0000 H   0  0  0  0  0  0  0  0  0  0  0  0
   -2.3474   14.0349    0.0000 C   0  0  0  0  0  0  0  0  0  0  0  0
   -3.3592   15.1424    0.0000 H   0  0  0  0  0  0  0  0  0  0  0  0
   -1.0180   13.3403    0.0000 H   0  0  0  0  0  0  0  0  0  0  0  0
   -1.4325   15.2236    0.0000 H   0  0  0  0  0  0  0  0  0  0  0  0
   -0.3240   11.8201    0.0000 C   0  0  0  0  0  0  0  0  0  0  0  0
   -0.2608   10.3214    0.0000 H   0  0  0  0  0  0  0  0  0  0  0  0
    1.1629   11.6221    0.0000 H   0  0  0  0  0  0  0  0  0  0  0  0
    0.1292   13.2500    0.0000 C   0  0  0  0  0  0  0  0  0  0  0  0
   -0.8825   14.3574    0.0000 H   0  0  0  0  0  0  0  0  0  0  0  0
    1.4587   12.5554    0.0000 H   0  0  0  0  0  0  0  0  0  0  0  0
    1.0441   14.4386    0.0000 H   0  0  0  0  0  0  0  0  0  0  0  0
    2.9965    9.4531    0.0000 I   0  0  0  0  0  0  0  0  0  0  0  0
  1  2  1  0  0  0  0 
  1  3  1  0  0  0  0 
  1  4  2  0  0  0  0 
  4  5  1  0  0  0  0 
  4  6  1  0  0  0  0 
  6  7  1  0  0  0  0 
  6  8  1  0  0  0  0 
  6  9  1  0  0  0  0 
  9 10  1  0  0  0  0 
  9 11  1  0  0  0  0 
  9 12  1  0  0  0  0 
 12 13  2  0  0  0  0 
 13 14  1  0  0  0  0 
 14 15  2  0  0  0  0 
 15 16  1  0  0  0  0 
 16 17  1  0  0  0  0 
 16 18  2  0  0  0  0 
 18 19  1  0  0  0  0 
 18 20  1  0  0  0  0 
 20 21  1  0  0  0  0 
 20 22  2  0  0  0  0 
 14 22  1  0  0  0  0 
 22 23  1  0  0  0  0 
 15 24  1  0  0  0  0 
 12 24  1  0  0  0  0 
 13 25  1  0  0  0  0 
 25 26  2  0  0  0  0 
 25 27  1  0  0  0  0 
 27 28  2  0  0  0  0 
 28 29  1  0  0  0  0 
 28 30  1  0  0  0  0 
 30 31  2  0  0  0  0 
 31 32  1  0  0  0  0 
 32 33  2  0  0  0  0 
 27 33  1  0  0  0  0 
 33 34  1  0  0  0  0 
 32 35  1  0  0  0  0 
 31 36  1  0  0  0  0 
 36 37  1  0  0  0  0 
 37 38  1  0  0  0  0 
 37 39  1  0  0  0  0 
 37 40  1  0  0  0  0 
 40 41  1  0  0  0  0 
 40 42  1  0  0  0  0 
 40 43  1  0  0  0  0 
 43 44  1  0  0  0  0 
 44 45  1  0  0  0  0 
 44 46  1  0  0  0  0 
 44 47  1  0  0  0  0 
 47 48  1  0  0  0  0 
 47 49  1  0  0  0  0 
 47 50  1  0  0  0  0 
 43 51  1  0  0  0  0 
 51 52  1  0  0  0  0 
 51 53  1  0  0  0  0 
 51 54  1  0  0  0  0 
 54 55  1  0  0  0  0 
 54 56  1  0  0  0  0 
 54 57  1  0  0  0  0 
 30 58  1  0  0  0  0 
M  END
> <Rank>
20

> <Priority_score>
0.1408

> <Reaction_type>
alkyl dehydrogenation

> <Parent_ID>
19

> <Parent_InChI>
InChI=1S/C25H29I2NO3/c1-4-7-11-22-23(18-10-8-9-12-21(18)31-22)24(29)17-15-19(26)25(20(27)16-17)30-14-13-28(5-2)6-3/h8-10,12,15-16H,4-7,11,13-14H2,1-3H3

> <Parent_SMILES>
CCCCc1oc2ccccc2c1C(=O)c1cc(I)c(OCCN(CC)CC)c(I)c1

$$$$
Molecule 19_metabolite 21
  CDK     0516241031

 58 60  0  0  0  0  0  0  0  0999 V2000
   10.3199   -0.6173    0.0000 C   0  0  0  0  0  0  0  0  0  0  0  0
   10.1847   -2.1112    0.0000 H   0  0  0  0  0  0  0  0  0  0  0  0
   10.9579    0.7402    0.0000 H   0  0  0  0  0  0  0  0  0  0  0  0
   11.7676   -1.0099    0.0000 H   0  0  0  0  0  0  0  0  0  0  0  0
    9.0938    0.2467    0.0000 C   0  0  0  0  0  0  0  0  0  0  0  0
    7.7324   -0.3831    0.0000 H   0  0  0  0  0  0  0  0  0  0  0  0
    9.2290    1.7406    0.0000 C   0  0  0  0  0  0  0  0  0  0  0  0
   10.5903    2.3705    0.0000 H   0  0  0  0  0  0  0  0  0  0  0  0
    8.0028    2.6046    0.0000 C   0  0  0  0  0  0  0  0  0  0  0  0
    7.3648    1.2471    0.0000 H   0  0  0  0  0  0  0  0  0  0  0  0
    6.5551    2.9972    0.0000 H   0  0  0  0  0  0  0  0  0  0  0  0
    8.1380    4.0985    0.0000 C   0  0  0  0  0  0  0  0  0  0  0  0
    7.0123    5.0840    0.0000 C   0  0  0  0  0  0  0  0  0  0  0  0
    7.5993    6.4667    0.0000 C   0  0  0  0  0  0  0  0  0  0  0  0
    9.0932    6.3315    0.0000 C   0  0  0  0  0  0  0  0  0  0  0  0
    9.9573    7.5586    0.0000 C   0  0  0  0  0  0  0  0  0  0  0  0
   11.4512    7.4234    0.0000 H   0  0  0  0  0  0  0  0  0  0  0  0
    9.3275    8.9209    0.0000 C   0  0  0  0  0  0  0  0  0  0  0  0
   10.1918   10.1470    0.0000 H   0  0  0  0  0  0  0  0  0  0  0  0
    7.8336    9.0562    0.0000 C   0  0  0  0  0  0  0  0  0  0  0  0
    7.2036   10.4174    0.0000 H   0  0  0  0  0  0  0  0  0  0  0  0
    6.9695    7.8290    0.0000 C   0  0  0  0  0  0  0  0  0  0  0  0
    5.4756    7.9642    0.0000 H   0  0  0  0  0  0  0  0  0  0  0  0
    9.4224    4.8659    0.0000 O   0  0  0  0  0  0  0  0  0  0  0  0
    4.1465    4.4277    0.0000 C   0  0  0  0  0  0  0  0  0  0  0  0
    3.7054    2.9940    0.0000 O   0  0  0  0  0  0  0  0  0  0  0  0
    3.1254    5.5265    0.0000 C   0  0  0  0  0  0  0  0  0  0  0  0
    3.5663    6.9521    0.0000 C   0  0  0  0  0  0  0  0  0  0  0  0
    5.0268    7.2941    0.0000 H   0  0  0  0  0  0  0  0  0  0  0  0
    2.5501    8.0211    0.0000 C   0  0  0  0  0  0  0  0  0  0  0  0
    1.1012    7.7177    0.0000 C   0  0  0  0  0  0  0  0  0  0  0  0
    0.6626    6.2825    0.0000 C   0  0  0  0  0  0  0  0  0  0  0  0
    1.6832    5.1940    0.0000 C   0  0  0  0  0  0  0  0  0  0  0  0
    1.2465    3.7590    0.0000 H   0  0  0  0  0  0  0  0  0  0  0  0
   -0.7985    5.9429    0.0000 I   0  0  0  0  0  0  0  0  0  0  0  0
    0.0895    8.8252    0.0000 O   0  0  0  0  0  0  0  0  0  0  0  0
   -1.3754    8.5027    0.0000 C   0  0  0  0  0  0  0  0  0  0  0  0
   -0.8035    7.1160    0.0000 H   0  0  0  0  0  0  0  0  0  0  0  0
   -2.6417    7.6986    0.0000 H   0  0  0  0  0  0  0  0  0  0  0  0
   -2.3871    9.6101    0.0000 C   0  0  0  0  0  0  0  0  0  0  0  0
   -3.7166   10.3047    0.0000 H   0  0  0  0  0  0  0  0  0  0  0  0
   -3.3021    8.4215    0.0000 H   0  0  0  0  0  0  0  0  0  0  0  0
   -1.7889   11.4976    0.0000 N   0  0  0  0  0  0  0  0  0  0  0  0
   -2.8006   12.6050    0.0000 C   0  0  0  0  0  0  0  0  0  0  0  0
   -4.1301   13.2996    0.0000 H   0  0  0  0  0  0  0  0  0  0  0  0
   -3.7156   11.4164    0.0000 H   0  0  0  0  0  0  0  0  0  0  0  0
   -2.3474   14.0349    0.0000 C   0  0  0  0  0  0  0  0  0  0  0  0
   -3.3592   15.1424    0.0000 H   0  0  0  0  0  0  0  0  0  0  0  0
   -1.0180   13.3403    0.0000 H   0  0  0  0  0  0  0  0  0  0  0  0
   -1.4325   15.2236    0.0000 H   0  0  0  0  0  0  0  0  0  0  0  0
   -0.3240   11.8201    0.0000 C   0  0  0  0  0  0  0  0  0  0  0  0
   -0.2608   10.3214    0.0000 H   0  0  0  0  0  0  0  0  0  0  0  0
    1.1629   11.6221    0.0000 H   0  0  0  0  0  0  0  0  0  0  0  0
    0.1292   13.2500    0.0000 C   0  0  0  0  0  0  0  0  0  0  0  0
   -0.8825   14.3574    0.0000 H   0  0  0  0  0  0  0  0  0  0  0  0
    1.4587   12.5554    0.0000 H   0  0  0  0  0  0  0  0  0  0  0  0
    1.0441   14.4386    0.0000 H   0  0  0  0  0  0  0  0  0  0  0  0
    2.9965    9.4531    0.0000 I   0  0  0  0  0  0  0  0  0  0  0  0
  1  2  1  0  0  0  0 
  1  3  1  0  0  0  0 
  1  4  1  0  0  0  0 
  1  5  1  0  0  0  0 
  5  6  1  4  0  0  0 
  5  7  2  0  0  0  0 
  7  8  1  0  0  0  0 
  7  9  1  0  0  0  0 
  9 10  1  0  0  0  0 
  9 11  1  0  0  0  0 
  9 12  1  0  0  0  0 
 12 13  2  0  0  0  0 
 13 14  1  0  0  0  0 
 14 15  2  0  0  0  0 
 15 16  1  0  0  0  0 
 16 17  1  0  0  0  0 
 16 18  2  0  0  0  0 
 18 19  1  0  0  0  0 
 18 20  1  0  0  0  0 
 20 21  1  0  0  0  0 
 20 22  2  0  0  0  0 
 14 22  1  0  0  0  0 
 22 23  1  0  0  0  0 
 15 24  1  0  0  0  0 
 12 24  1  0  0  0  0 
 13 25  1  0  0  0  0 
 25 26  2  0  0  0  0 
 25 27  1  0  0  0  0 
 27 28  2  0  0  0  0 
 28 29  1  0  0  0  0 
 28 30  1  0  0  0  0 
 30 31  2  0  0  0  0 
 31 32  1  0  0  0  0 
 32 33  2  0  0  0  0 
 27 33  1  0  0  0  0 
 33 34  1  0  0  0  0 
 32 35  1  0  0  0  0 
 31 36  1  0  0  0  0 
 36 37  1  0  0  0  0 
 37 38  1  0  0  0  0 
 37 39  1  0  0  0  0 
 37 40  1  0  0  0  0 
 40 41  1  0  0  0  0 
 40 42  1  0  0  0  0 
 40 43  1  0  0  0  0 
 43 44  1  0  0  0  0 
 44 45  1  0  0  0  0 
 44 46  1  0  0  0  0 
 44 47  1  0  0  0  0 
 47 48  1  0  0  0  0 
 47 49  1  0  0  0  0 
 47 50  1  0  0  0  0 
 43 51  1  0  0  0  0 
 51 52  1  0  0  0  0 
 51 53  1  0  0  0  0 
 51 54  1  0  0  0  0 
 54 55  1  0  0  0  0 
 54 56  1  0  0  0  0 
 54 57  1  0  0  0  0 
 30 58  1  0  0  0  0 
M  END
> <Rank>
20

> <Priority_score>
0.1408

> <Reaction_type>
alkyl dehydrogenation

> <Parent_ID>
19

> <Parent_InChI>
InChI=1S/C25H29I2NO3/c1-4-7-11-22-23(18-10-8-9-12-21(18)31-22)24(29)17-15-19(26)25(20(27)16-17)30-14-13-28(5-2)6-3/h8-10,12,15-16H,4-7,11,13-14H2,1-3H3

> <Parent_SMILES>
CCCCc1oc2ccccc2c1C(=O)c1cc(I)c(OCCN(CC)CC)c(I)c1

$$$$
Molecule 19_metabolite 22
  CDK     0516241031

 59 61  0  0  0  0  0  0  0  0999 V2000
    6.8933   -4.3827    0.0000 C   0  0  0  0  0  0  0  0  0  0  0  0
    6.1433   -5.6818    0.0000 H   0  0  0  0  0  0  0  0  0  0  0  0
    8.0424   -3.4186    0.0000 H   0  0  0  0  0  0  0  0  0  0  0  0
    8.0424   -5.3469    0.0000 H   0  0  0  0  0  0  0  0  0  0  0  0
    6.1433   -3.0837    0.0000 C   0  0  0  0  0  0  0  0  0  0  0  0
    7.5529   -2.5707    0.0000 H   0  0  0  0  0  0  0  0  0  0  0  0
    5.8829   -1.6065    0.0000 H   0  0  0  0  0  0  0  0  0  0  0  0
    4.6433   -3.0837    0.0000 C   0  0  0  0  0  0  0  0  0  0  0  0
    3.2338   -3.5967    0.0000 H   0  0  0  0  0  0  0  0  0  0  0  0
    4.9038   -4.5609    0.0000 H   0  0  0  0  0  0  0  0  0  0  0  0
    3.6533   -1.3690    0.0000 C   0  0  0  0  0  0  0  0  0  0  0  0
    5.0629   -0.8559    0.0000 H   0  0  0  0  0  0  0  0  0  0  0  0
    3.3929    0.1082    0.0000 H   0  0  0  0  0  0  0  0  0  0  0  0
    2.1533   -1.3690    0.0000 C   0  0  0  0  0  0  0  0  0  0  0  0
    1.2733   -0.1590    0.0000 C   0  0  0  0  0  0  0  0  0  0  0  0
   -0.1567   -0.6190    0.0000 C   0  0  0  0  0  0  0  0  0  0  0  0
   -0.1567   -2.1190    0.0000 C   0  0  0  0  0  0  0  0  0  0  0  0
   -1.4567   -2.8690    0.0000 C   0  0  0  0  0  0  0  0  0  0  0  0
   -1.4567   -4.3690    0.0000 H   0  0  0  0  0  0  0  0  0  0  0  0
   -2.7567   -2.1190    0.0000 C   0  0  0  0  0  0  0  0  0  0  0  0
   -4.0556   -2.8692    0.0000 H   0  0  0  0  0  0  0  0  0  0  0  0
   -2.7567   -0.6190    0.0000 C   0  0  0  0  0  0  0  0  0  0  0  0
   -4.0556    0.1312    0.0000 H   0  0  0  0  0  0  0  0  0  0  0  0
   -1.4567    0.1310    0.0000 C   0  0  0  0  0  0  0  0  0  0  0  0
   -1.4567    1.6310    0.0000 H   0  0  0  0  0  0  0  0  0  0  0  0
    1.2733   -2.5790    0.0000 O   0  0  0  0  0  0  0  0  0  0  0  0
    2.1853    2.6360    0.0000 C   0  0  0  0  0  0  0  0  0  0  0  0
    3.6529    2.9461    0.0000 O   0  0  0  0  0  0  0  0  0  0  0  0
    1.1830    3.7520    0.0000 C   0  0  0  0  0  0  0  0  0  0  0  0
   -0.2765    3.4413    0.0000 C   0  0  0  0  0  0  0  0  0  0  0  0
   -0.7488    2.0176    0.0000 H   0  0  0  0  0  0  0  0  0  0  0  0
   -1.2496    4.5497    0.0000 C   0  0  0  0  0  0  0  0  0  0  0  0
   -0.8169    5.9654    0.0000 C   0  0  0  0  0  0  0  0  0  0  0  0
    0.6521    6.2729    0.0000 C   0  0  0  0  0  0  0  0  0  0  0  0
    1.6442    5.1583    0.0000 C   0  0  0  0  0  0  0  0  0  0  0  0
    3.1127    5.4639    0.0000 H   0  0  0  0  0  0  0  0  0  0  0  0
    1.1219    7.6974    0.0000 I   0  0  0  0  0  0  0  0  0  0  0  0
   -1.8286    7.0728    0.0000 O   0  0  0  0  0  0  0  0  0  0  0  0
   -1.3754    8.5027    0.0000 C   0  0  0  0  0  0  0  0  0  0  0  0
   -0.0459    7.8081    0.0000 H   0  0  0  0  0  0  0  0  0  0  0  0
   -0.4605    9.6914    0.0000 H   0  0  0  0  0  0  0  0  0  0  0  0
   -2.3871    9.6101    0.0000 C   0  0  0  0  0  0  0  0  0  0  0  0
   -3.7166   10.3047    0.0000 H   0  0  0  0  0  0  0  0  0  0  0  0
   -3.3021    8.4215    0.0000 H   0  0  0  0  0  0  0  0  0  0  0  0
   -1.7889   11.4976    0.0000 N   0  0  0  0  0  0  0  0  0  0  0  0
   -0.3240   11.8201    0.0000 C   0  0  0  0  0  0  0  0  0  0  0  0
    0.6877   10.7126    0.0000 H   0  0  0  0  0  0  0  0  0  0  0  0
    0.1292   13.2500    0.0000 C   0  0  0  0  0  0  0  0  0  0  0  0
   -0.8825   14.3574    0.0000 H   0  0  0  0  0  0  0  0  0  0  0  0
    1.4587   12.5554    0.0000 H   0  0  0  0  0  0  0  0  0  0  0  0
    1.0441   14.4386    0.0000 H   0  0  0  0  0  0  0  0  0  0  0  0
   -2.8006   12.6050    0.0000 C   0  0  0  0  0  0  0  0  0  0  0  0
   -4.1301   13.2996    0.0000 H   0  0  0  0  0  0  0  0  0  0  0  0
   -3.7156   11.4164    0.0000 H   0  0  0  0  0  0  0  0  0  0  0  0
   -2.3474   14.0349    0.0000 C   0  0  0  0  0  0  0  0  0  0  0  0
   -3.3592   15.1424    0.0000 H   0  0  0  0  0  0  0  0  0  0  0  0
   -1.0180   13.3403    0.0000 H   0  0  0  0  0  0  0  0  0  0  0  0
   -1.4325   15.2236    0.0000 H   0  0  0  0  0  0  0  0  0  0  0  0
   -2.7160    4.2342    0.0000 I   0  0  0  0  0  0  0  0  0  0  0  0
  1  2  1  0  0  0  0 
  1  3  1  0  0  0  0 
  1  4  1  0  0  0  0 
  1  5  1  0  0  0  0 
  5  6  1  0  0  0  0 
  5  7  1  0  0  0  0 
  5  8  1  0  0  0  0 
  8  9  1  0  0  0  0 
  8 10  1  0  0  0  0 
  8 11  1  0  0  0  0 
 11 12  1  0  0  0  0 
 11 13  1  0  0  0  0 
 11 14  1  0  0  0  0 
 14 15  2  0  0  0  0 
 15 16  1  0  0  0  0 
 16 17  2  0  0  0  0 
 17 18  1  0  0  0  0 
 18 19  1  0  0  0  0 
 18 20  2  0  0  0  0 
 20 21  1  0  0  0  0 
 20 22  1  0  0  0  0 
 22 23  1  0  0  0  0 
 22 24  2  0  0  0  0 
 16 24  1  0  0  0  0 
 24 25  1  0  0  0  0 
 17 26  1  0  0  0  0 
 14 26  1  0  0  0  0 
 15 27  1  0  0  0  0 
 27 28  2  0  0  0  0 
 27 29  1  0  0  0  0 
 29 30  2  0  0  0  0 
 30 31  1  0  0  0  0 
 30 32  1  0  0  0  0 
 32 33  2  0  0  0  0 
 33 34  1  0  0  0  0 
 34 35  2  0  0  0  0 
 29 35  1  0  0  0  0 
 35 36  1  0  0  0  0 
 34 37  1  0  0  0  0 
 33 38  1  0  0  0  0 
 38 39  1  0  0  0  0 
 39 40  1  0  0  0  0 
 39 41  1  0  0  0  0 
 39 42  1  0  0  0  0 
 42 43  1  0  0  0  0 
 42 44  1  0  0  0  0 
 42 45  1  0  0  0  0 
 45 46  2  0  0  0  0 
 46 47  1  4  0  0  0 
 46 48  1  0  0  0  0 
 48 49  1  0  0  0  0 
 48 50  1  0  0  0  0 
 48 51  1  0  0  0  0 
 45 52  1  0  0  0  0 
 52 53  1  0  0  0  0 
 52 54  1  0  0  0  0 
 52 55  1  0  0  0  0 
 55 56  1  0  0  0  0 
 55 57  1  0  0  0  0 
 55 58  1  0  0  0  0 
 32 59  1  0  0  0  0 
M  CHG  1  45   1
M  END
> <Rank>
22

> <Priority_score>
0.13360000000000002

> <Reaction_type>
dehydration of N-C bond

> <Parent_ID>
19

> <Parent_InChI>
InChI=1S/C25H29I2NO3/c1-4-7-11-22-23(18-10-8-9-12-21(18)31-22)24(29)17-15-19(26)25(20(27)16-17)30-14-13-28(5-2)6-3/h8-10,12,15-16H,4-7,11,13-14H2,1-3H3

> <Parent_SMILES>
CCCCc1oc2ccccc2c1C(=O)c1cc(I)c(OCCN(CC)CC)c(I)c1

$$$$
Molecule 19_metabolite 23
  CDK     0516241031

 58 60  0  0  0  0  0  0  0  0999 V2000
    6.8933   -4.3827    0.0000 C   0  0  0  0  0  0  0  0  0  0  0  0
    6.1433   -5.6818    0.0000 H   0  0  0  0  0  0  0  0  0  0  0  0
    8.0424   -3.4186    0.0000 H   0  0  0  0  0  0  0  0  0  0  0  0
    8.0424   -5.3469    0.0000 H   0  0  0  0  0  0  0  0  0  0  0  0
    6.1433   -3.0837    0.0000 C   0  0  0  0  0  0  0  0  0  0  0  0
    7.5529   -2.5707    0.0000 H   0  0  0  0  0  0  0  0  0  0  0  0
    5.8829   -1.6065    0.0000 H   0  0  0  0  0  0  0  0  0  0  0  0
    4.6433   -3.0837    0.0000 C   0  0  0  0  0  0  0  0  0  0  0  0
    3.2338   -3.5967    0.0000 H   0  0  0  0  0  0  0  0  0  0  0  0
    4.9038   -4.5609    0.0000 H   0  0  0  0  0  0  0  0  0  0  0  0
    3.6533   -1.3690    0.0000 C   0  0  0  0  0  0  0  0  0  0  0  0
    5.0629   -0.8559    0.0000 H   0  0  0  0  0  0  0  0  0  0  0  0
    3.3929    0.1082    0.0000 H   0  0  0  0  0  0  0  0  0  0  0  0
    2.1533   -1.3690    0.0000 C   0  0  0  0  0  0  0  0  0  0  0  0
    1.2733   -0.1590    0.0000 C   0  0  0  0  0  0  0  0  0  0  0  0
   -0.1567   -0.6190    0.0000 C   0  0  0  0  0  0  0  0  0  0  0  0
   -0.1567   -2.1190    0.0000 C   0  0  0  0  0  0  0  0  0  0  0  0
   -1.4567   -2.8690    0.0000 C   0  0  0  0  0  0  0  0  0  0  0  0
   -1.4567   -4.3690    0.0000 H   0  0  0  0  0  0  0  0  0  0  0  0
   -2.7567   -2.1190    0.0000 C   0  0  0  0  0  0  0  0  0  0  0  0
   -4.0556   -2.8692    0.0000 H   0  0  0  0  0  0  0  0  0  0  0  0
   -2.7567   -0.6190    0.0000 C   0  0  0  0  0  0  0  0  0  0  0  0
   -4.0556    0.1312    0.0000 H   0  0  0  0  0  0  0  0  0  0  0  0
   -1.4567    0.1310    0.0000 C   0  0  0  0  0  0  0  0  0  0  0  0
   -1.4567    1.6310    0.0000 H   0  0  0  0  0  0  0  0  0  0  0  0
    1.2733   -2.5790    0.0000 O   0  0  0  0  0  0  0  0  0  0  0  0
    2.1853    2.6360    0.0000 C   0  0  0  0  0  0  0  0  0  0  0  0
    3.6529    2.9461    0.0000 O   0  0  0  0  0  0  0  0  0  0  0  0
    1.1830    3.7520    0.0000 C   0  0  0  0  0  0  0  0  0  0  0  0
   -0.2765    3.4413    0.0000 C   0  0  0  0  0  0  0  0  0  0  0  0
   -0.7488    2.0176    0.0000 H   0  0  0  0  0  0  0  0  0  0  0  0
   -1.2496    4.5497    0.0000 C   0  0  0  0  0  0  0  0  0  0  0  0
   -0.8169    5.9654    0.0000 C   0  0  0  0  0  0  0  0  0  0  0  0
    0.6521    6.2729    0.0000 C   0  0  0  0  0  0  0  0  0  0  0  0
    1.6442    5.1583    0.0000 C   0  0  0  0  0  0  0  0  0  0  0  0
    3.1127    5.4639    0.0000 H   0  0  0  0  0  0  0  0  0  0  0  0
    1.1219    7.6974    0.0000 I   0  0  0  0  0  0  0  0  0  0  0  0
   -1.8286    7.0728    0.0000 O   0  0  0  0  0  0  0  0  0  0  0  0
   -1.3754    8.5027    0.0000 C   0  0  0  0  0  0  0  0  0  0  0  0
   -0.0459    7.8081    0.0000 H   0  0  0  0  0  0  0  0  0  0  0  0
   -0.4605    9.6914    0.0000 H   0  0  0  0  0  0  0  0  0  0  0  0
   -2.3871    9.6101    0.0000 C   0  0  0  0  0  0  0  0  0  0  0  0
   -3.7166   10.3047    0.0000 H   0  0  0  0  0  0  0  0  0  0  0  0
   -3.3021    8.4215    0.0000 H   0  0  0  0  0  0  0  0  0  0  0  0
   -1.7889   11.4976    0.0000 N   0  0  0  0  0  0  0  0  0  0  0  0
   -0.3240   11.8201    0.0000 C   0  0  0  0  0  0  0  0  0  0  0  0
    0.6877   10.7126    0.0000 H   0  0  0  0  0  0  0  0  0  0  0  0
    0.1292   13.2500    0.0000 C   0  0  0  0  0  0  0  0  0  0  0  0
   -0.8825   14.3574    0.0000 H   0  0  0  0  0  0  0  0  0  0  0  0
    1.5941   13.5724    0.0000 H   0  0  0  0  0  0  0  0  0  0  0  0
   -2.8006   12.6050    0.0000 C   0  0  0  0  0  0  0  0  0  0  0  0
   -4.1301   13.2996    0.0000 H   0  0  0  0  0  0  0  0  0  0  0  0
   -3.7156   11.4164    0.0000 H   0  0  0  0  0  0  0  0  0  0  0  0
   -2.3474   14.0349    0.0000 C   0  0  0  0  0  0  0  0  0  0  0  0
   -3.3592   15.1424    0.0000 H   0  0  0  0  0  0  0  0  0  0  0  0
   -1.0180   13.3403    0.0000 H   0  0  0  0  0  0  0  0  0  0  0  0
   -1.4325   15.2236    0.0000 H   0  0  0  0  0  0  0  0  0  0  0  0
   -2.7160    4.2342    0.0000 I   0  0  0  0  0  0  0  0  0  0  0  0
  1  2  1  0  0  0  0 
  1  3  1  0  0  0  0 
  1  4  1  0  0  0  0 
  1  5  1  0  0  0  0 
  5  6  1  0  0  0  0 
  5  7  1  0  0  0  0 
  5  8  1  0  0  0  0 
  8  9  1  0  0  0  0 
  8 10  1  0  0  0  0 
  8 11  1  0  0  0  0 
 11 12  1  0  0  0  0 
 11 13  1  0  0  0  0 
 11 14  1  0  0  0  0 
 14 15  2  0  0  0  0 
 15 16  1  0  0  0  0 
 16 17  2  0  0  0  0 
 17 18  1  0  0  0  0 
 18 19  1  0  0  0  0 
 18 20  2  0  0  0  0 
 20 21  1  0  0  0  0 
 20 22  1  0  0  0  0 
 22 23  1  0  0  0  0 
 22 24  2  0  0  0  0 
 16 24  1  0  0  0  0 
 24 25  1  0  0  0  0 
 17 26  1  0  0  0  0 
 14 26  1  0  0  0  0 
 15 27  1  0  0  0  0 
 27 28  2  0  0  0  0 
 27 29  1  0  0  0  0 
 29 30  2  0  0  0  0 
 30 31  1  0  0  0  0 
 30 32  1  0  0  0  0 
 32 33  2  0  0  0  0 
 33 34  1  0  0  0  0 
 34 35  2  0  0  0  0 
 29 35  1  0  0  0  0 
 35 36  1  0  0  0  0 
 34 37  1  0  0  0  0 
 33 38  1  0  0  0  0 
 38 39  1  0  0  0  0 
 39 40  1  0  0  0  0 
 39 41  1  0  0  0  0 
 39 42  1  0  0  0  0 
 42 43  1  0  0  0  0 
 42 44  1  0  0  0  0 
 42 45  1  0  0  0  0 
 45 46  1  0  0  0  0 
 46 47  1  0  0  0  0 
 46 48  2  0  0  0  0 
 48 49  1  0  0  0  0 
 48 50  1  0  0  0  0 
 45 51  1  0  0  0  0 
 51 52  1  0  0  0  0 
 51 53  1  0  0  0  0 
 51 54  1  0  0  0  0 
 54 55  1  0  0  0  0 
 54 56  1  0  0  0  0 
 54 57  1  0  0  0  0 
 32 58  1  0  0  0  0 
M  END
> <Rank>
22

> <Priority_score>
0.13360000000000002

> <Reaction_type>
alkyl dehydrogenation

> <Parent_ID>
19

> <Parent_InChI>
InChI=1S/C25H29I2NO3/c1-4-7-11-22-23(18-10-8-9-12-21(18)31-22)24(29)17-15-19(26)25(20(27)16-17)30-14-13-28(5-2)6-3/h8-10,12,15-16H,4-7,11,13-14H2,1-3H3

> <Parent_SMILES>
CCCCc1oc2ccccc2c1C(=O)c1cc(I)c(OCCN(CC)CC)c(I)c1

$$$$
Molecule 19_metabolite 24
  CDK     0516241031

 58 60  0  0  0  0  0  0  0  0999 V2000
    6.8933   -4.3827    0.0000 C   0  0  0  0  0  0  0  0  0  0  0  0
    6.1433   -5.6818    0.0000 H   0  0  0  0  0  0  0  0  0  0  0  0
    8.0424   -3.4186    0.0000 H   0  0  0  0  0  0  0  0  0  0  0  0
    8.0424   -5.3469    0.0000 H   0  0  0  0  0  0  0  0  0  0  0  0
    6.1433   -3.0837    0.0000 C   0  0  0  0  0  0  0  0  0  0  0  0
    7.5529   -2.5707    0.0000 H   0  0  0  0  0  0  0  0  0  0  0  0
    5.8829   -1.6065    0.0000 H   0  0  0  0  0  0  0  0  0  0  0  0
    4.6433   -3.0837    0.0000 C   0  0  0  0  0  0  0  0  0  0  0  0
    3.2338   -3.5967    0.0000 H   0  0  0  0  0  0  0  0  0  0  0  0
    4.9038   -4.5609    0.0000 H   0  0  0  0  0  0  0  0  0  0  0  0
    3.6533   -1.3690    0.0000 C   0  0  0  0  0  0  0  0  0  0  0  0
    5.0629   -0.8559    0.0000 H   0  0  0  0  0  0  0  0  0  0  0  0
    3.3929    0.1082    0.0000 H   0  0  0  0  0  0  0  0  0  0  0  0
    2.1533   -1.3690    0.0000 C   0  0  0  0  0  0  0  0  0  0  0  0
    1.2733   -0.1590    0.0000 C   0  0  0  0  0  0  0  0  0  0  0  0
   -0.1567   -0.6190    0.0000 C   0  0  0  0  0  0  0  0  0  0  0  0
   -0.1567   -2.1190    0.0000 C   0  0  0  0  0  0  0  0  0  0  0  0
   -1.4567   -2.8690    0.0000 C   0  0  0  0  0  0  0  0  0  0  0  0
   -1.4567   -4.3690    0.0000 H   0  0  0  0  0  0  0  0  0  0  0  0
   -2.7567   -2.1190    0.0000 C   0  0  0  0  0  0  0  0  0  0  0  0
   -4.0556   -2.8692    0.0000 H   0  0  0  0  0  0  0  0  0  0  0  0
   -2.7567   -0.6190    0.0000 C   0  0  0  0  0  0  0  0  0  0  0  0
   -4.0556    0.1312    0.0000 H   0  0  0  0  0  0  0  0  0  0  0  0
   -1.4567    0.1310    0.0000 C   0  0  0  0  0  0  0  0  0  0  0  0
   -1.4567    1.6310    0.0000 H   0  0  0  0  0  0  0  0  0  0  0  0
    1.2733   -2.5790    0.0000 O   0  0  0  0  0  0  0  0  0  0  0  0
    2.1853    2.6360    0.0000 C   0  0  0  0  0  0  0  0  0  0  0  0
    3.6529    2.9461    0.0000 O   0  0  0  0  0  0  0  0  0  0  0  0
    1.1830    3.7520    0.0000 C   0  0  0  0  0  0  0  0  0  0  0  0
   -0.2765    3.4413    0.0000 C   0  0  0  0  0  0  0  0  0  0  0  0
   -0.7488    2.0176    0.0000 H   0  0  0  0  0  0  0  0  0  0  0  0
   -1.2496    4.5497    0.0000 C   0  0  0  0  0  0  0  0  0  0  0  0
   -0.8169    5.9654    0.0000 C   0  0  0  0  0  0  0  0  0  0  0  0
    0.6521    6.2729    0.0000 C   0  0  0  0  0  0  0  0  0  0  0  0
    1.6442    5.1583    0.0000 C   0  0  0  0  0  0  0  0  0  0  0  0
    3.1127    5.4639    0.0000 H   0  0  0  0  0  0  0  0  0  0  0  0
    1.1219    7.6974    0.0000 I   0  0  0  0  0  0  0  0  0  0  0  0
   -1.8286    7.0728    0.0000 O   0  0  0  0  0  0  0  0  0  0  0  0
   -1.3754    8.5027    0.0000 C   0  0  0  0  0  0  0  0  0  0  0  0
    0.0895    8.8252    0.0000 H   0  0  0  0  0  0  0  0  0  0  0  0
   -2.3871    9.6101    0.0000 C   0  0  0  0  0  0  0  0  0  0  0  0
   -3.8521    9.2877    0.0000 H   0  0  0  0  0  0  0  0  0  0  0  0
   -1.9339   11.0400    0.0000 N   0  0  0  0  0  0  0  0  0  0  0  0
   -2.9457   12.1475    0.0000 C   0  0  0  0  0  0  0  0  0  0  0  0
   -4.2751   12.8421    0.0000 H   0  0  0  0  0  0  0  0  0  0  0  0
   -3.8606   10.9588    0.0000 H   0  0  0  0  0  0  0  0  0  0  0  0
   -2.4925   13.5774    0.0000 C   0  0  0  0  0  0  0  0  0  0  0  0
   -3.5042   14.6848    0.0000 H   0  0  0  0  0  0  0  0  0  0  0  0
   -1.1630   12.8828    0.0000 H   0  0  0  0  0  0  0  0  0  0  0  0
   -1.5776   14.7660    0.0000 H   0  0  0  0  0  0  0  0  0  0  0  0
   -0.4690   11.3625    0.0000 C   0  0  0  0  0  0  0  0  0  0  0  0
   -0.4058    9.8638    0.0000 H   0  0  0  0  0  0  0  0  0  0  0  0
    1.0179   11.1645    0.0000 H   0  0  0  0  0  0  0  0  0  0  0  0
   -0.0158   12.7924    0.0000 C   0  0  0  0  0  0  0  0  0  0  0  0
   -1.0275   13.8998    0.0000 H   0  0  0  0  0  0  0  0  0  0  0  0
    1.3137   12.0978    0.0000 H   0  0  0  0  0  0  0  0  0  0  0  0
    0.8991   13.9811    0.0000 H   0  0  0  0  0  0  0  0  0  0  0  0
   -2.7160    4.2342    0.0000 I   0  0  0  0  0  0  0  0  0  0  0  0
  1  2  1  0  0  0  0 
  1  3  1  0  0  0  0 
  1  4  1  0  0  0  0 
  1  5  1  0  0  0  0 
  5  6  1  0  0  0  0 
  5  7  1  0  0  0  0 
  5  8  1  0  0  0  0 
  8  9  1  0  0  0  0 
  8 10  1  0  0  0  0 
  8 11  1  0  0  0  0 
 11 12  1  0  0  0  0 
 11 13  1  0  0  0  0 
 11 14  1  0  0  0  0 
 14 15  2  0  0  0  0 
 15 16  1  0  0  0  0 
 16 17  2  0  0  0  0 
 17 18  1  0  0  0  0 
 18 19  1  0  0  0  0 
 18 20  2  0  0  0  0 
 20 21  1  0  0  0  0 
 20 22  1  0  0  0  0 
 22 23  1  0  0  0  0 
 22 24  2  0  0  0  0 
 16 24  1  0  0  0  0 
 24 25  1  0  0  0  0 
 17 26  1  0  0  0  0 
 14 26  1  0  0  0  0 
 15 27  1  0  0  0  0 
 27 28  2  0  0  0  0 
 27 29  1  0  0  0  0 
 29 30  2  0  0  0  0 
 30 31  1  0  0  0  0 
 30 32  1  0  0  0  0 
 32 33  2  0  0  0  0 
 33 34  1  0  0  0  0 
 34 35  2  0  0  0  0 
 29 35  1  0  0  0  0 
 35 36  1  0  0  0  0 
 34 37  1  0  0  0  0 
 33 38  1  0  0  0  0 
 38 39  1  0  0  0  0 
 39 40  1  4  0  0  0 
 39 41  2  0  0  0  0 
 41 42  1  0  0  0  0 
 41 43  1  0  0  0  0 
 43 44  1  0  0  0  0 
 44 45  1  0  0  0  0 
 44 46  1  0  0  0  0 
 44 47  1  0  0  0  0 
 47 48  1  0  0  0  0 
 47 49  1  0  0  0  0 
 47 50  1  0  0  0  0 
 43 51  1  0  0  0  0 
 51 52  1  0  0  0  0 
 51 53  1  0  0  0  0 
 51 54  1  0  0  0  0 
 54 55  1  0  0  0  0 
 54 56  1  0  0  0  0 
 54 57  1  0  0  0  0 
 32 58  1  0  0  0  0 
M  END
> <Rank>
24

> <Priority_score>
0.124

> <Reaction_type>
alkyl dehydrogenation

> <Parent_ID>
19

> <Parent_InChI>
InChI=1S/C25H29I2NO3/c1-4-7-11-22-23(18-10-8-9-12-21(18)31-22)24(29)17-15-19(26)25(20(27)16-17)30-14-13-28(5-2)6-3/h8-10,12,15-16H,4-7,11,13-14H2,1-3H3

> <Parent_SMILES>
CCCCc1oc2ccccc2c1C(=O)c1cc(I)c(OCCN(CC)CC)c(I)c1

$$$$
Molecule 19_metabolite 25
  CDK     0516241031

 41 43  0  0  0  0  0  0  0  0999 V2000
    7.7209   -2.9943    0.0000 C   0  0  0  0  0  0  0  0  0  0  0  0
    9.0927   -2.3875    0.0000 H   0  0  0  0  0  0  0  0  0  0  0  0
    6.6393   -4.0336    0.0000 H   0  0  0  0  0  0  0  0  0  0  0  0
    8.5566   -4.2399    0.0000 H   0  0  0  0  0  0  0  0  0  0  0  0
    6.5095   -2.1096    0.0000 C   0  0  0  0  0  0  0  0  0  0  0  0
    5.8486   -3.4562    0.0000 H   0  0  0  0  0  0  0  0  0  0  0  0
    5.0686   -1.6926    0.0000 H   0  0  0  0  0  0  0  0  0  0  0  0
    6.6700   -0.6182    0.0000 C   0  0  0  0  0  0  0  0  0  0  0  0
    7.3308    0.7283    0.0000 H   0  0  0  0  0  0  0  0  0  0  0  0
    8.1108   -1.0352    0.0000 H   0  0  0  0  0  0  0  0  0  0  0  0
    5.0710    0.5495    0.0000 C   0  0  0  0  0  0  0  0  0  0  0  0
    4.4101   -0.7971    0.0000 H   0  0  0  0  0  0  0  0  0  0  0  0
    3.6301    0.9665    0.0000 H   0  0  0  0  0  0  0  0  0  0  0  0
    5.2314    2.0409    0.0000 C   0  0  0  0  0  0  0  0  0  0  0  0
    4.1225    3.0453    0.0000 C   0  0  0  0  0  0  0  0  0  0  0  0
    4.7328    4.4179    0.0000 C   0  0  0  0  0  0  0  0  0  0  0  0
    6.2242    4.2574    0.0000 C   0  0  0  0  0  0  0  0  0  0  0  0
    7.1090    5.4697    0.0000 C   0  0  0  0  0  0  0  0  0  0  0  0
    8.6004    5.3093    0.0000 H   0  0  0  0  0  0  0  0  0  0  0  0
    6.5024    6.8425    0.0000 C   0  0  0  0  0  0  0  0  0  0  0  0
    7.3872    8.0537    0.0000 H   0  0  0  0  0  0  0  0  0  0  0  0
    5.0110    7.0030    0.0000 C   0  0  0  0  0  0  0  0  0  0  0  0
    4.4040    8.3747    0.0000 H   0  0  0  0  0  0  0  0  0  0  0  0
    4.1262    5.7907    0.0000 C   0  0  0  0  0  0  0  0  0  0  0  0
    2.6348    5.9511    0.0000 H   0  0  0  0  0  0  0  0  0  0  0  0
    6.5286    2.7864    0.0000 O   0  0  0  0  0  0  0  0  0  0  0  0
    2.1853    2.6360    0.0000 C   0  0  0  0  0  0  0  0  0  0  0  0
    1.7200    1.2100    0.0000 O   0  0  0  0  0  0  0  0  0  0  0  0
    1.1830    3.7520    0.0000 C   0  0  0  0  0  0  0  0  0  0  0  0
    0.2574    2.5705    0.0000 C   0  0  0  0  0  0  0  0  0  0  0  0
    0.8179    1.1792    0.0000 H   0  0  0  0  0  0  0  0  0  0  0  0
   -1.2287    2.7804    0.0000 C   0  0  0  0  0  0  0  0  0  0  0  0
   -1.7892    4.1718    0.0000 C   0  0  0  0  0  0  0  0  0  0  0  0
   -3.2744    4.3823    0.0000 O   0  0  0  0  0  0  0  0  0  0  0  0
   -0.8636    5.3532    0.0000 C   0  0  0  0  0  0  0  0  0  0  0  0
    0.6225    5.1433    0.0000 C   0  0  0  0  0  0  0  0  0  0  0  0
    1.5470    6.3245    0.0000 H   0  0  0  0  0  0  0  0  0  0  0  0
   -1.4241    6.7446    0.0000 I   0  0  0  0  0  0  0  0  0  0  0  0
   -2.1532    1.5992    0.0000 I   0  0  0  0  0  0  0  0  0  0  0  0
    2.4559    4.5454    0.0000 O   0  0  0  0  0  0  0  0  0  0  0  0
    3.7795    3.8397    0.0000 H   0  0  0  0  0  0  0  0  0  0  0  0
  1  2  1  0  0  0  0 
  1  3  1  0  0  0  0 
  1  4  1  0  0  0  0 
  1  5  1  0  0  0  0 
  5  6  1  0  0  0  0 
  5  7  1  0  0  0  0 
  5  8  1  0  0  0  0 
  8  9  1  0  0  0  0 
  8 10  1  0  0  0  0 
  8 11  1  0  0  0  0 
 11 12  1  0  0  0  0 
 11 13  1  0  0  0  0 
 11 14  1  0  0  0  0 
 14 15  2  0  0  0  0 
 15 16  1  0  0  0  0 
 16 17  2  0  0  0  0 
 17 18  1  0  0  0  0 
 18 19  1  0  0  0  0 
 18 20  2  0  0  0  0 
 20 21  1  0  0  0  0 
 20 22  1  0  0  0  0 
 22 23  1  0  0  0  0 
 22 24  2  0  0  0  0 
 16 24  1  0  0  0  0 
 24 25  1  0  0  0  0 
 17 26  1  0  0  0  0 
 14 26  1  0  0  0  0 
 15 27  1  0  0  0  0 
 27 28  2  0  0  0  0 
 27 29  1  0  0  0  0 
 29 30  1  0  0  0  0 
 30 31  1  0  0  0  0 
 30 32  2  0  0  0  0 
 32 33  1  0  0  0  0 
 33 34  2  0  0  0  0 
 33 35  1  0  0  0  0 
 35 36  2  0  0  0  0 
 29 36  1  0  0  0  0 
 36 37  1  0  0  0  0 
 35 38  1  0  0  0  0 
 32 39  1  0  0  0  0 
 29 40  1  0  0  0  0 
 40 41  1  0  0  0  0 
M  END
> <Rank>
24

> <Priority_score>
0.124

> <Reaction_type>
oxidation of 4-substituted anisole to quinone (substituent not a leaving group)

> <Parent_ID>
19

> <Parent_InChI>
InChI=1S/C25H29I2NO3/c1-4-7-11-22-23(18-10-8-9-12-21(18)31-22)24(29)17-15-19(26)25(20(27)16-17)30-14-13-28(5-2)6-3/h8-10,12,15-16H,4-7,11,13-14H2,1-3H3

> <Parent_SMILES>
CCCCc1oc2ccccc2c1C(=O)c1cc(I)c(OCCN(CC)CC)c(I)c1

$$$$
Molecule 19_metabolite 26
  CDK     0516241031

 22 21  0  0  0  0  0  0  0  0999 V2000
    3.2031    1.2878    0.0000 C   0  0  0  0  0  0  0  0  0  0  0  0
    1.9040    0.5378    0.0000 H   0  0  0  0  0  0  0  0  0  0  0  0
    2.2389    2.4369    0.0000 H   0  0  0  0  0  0  0  0  0  0  0  0
    4.1672    2.4369    0.0000 H   0  0  0  0  0  0  0  0  0  0  0  0
    4.5021    0.5378    0.0000 C   0  0  0  0  0  0  0  0  0  0  0  0
    5.9793    0.2774    0.0000 H   0  0  0  0  0  0  0  0  0  0  0  0
    5.0151    1.9474    0.0000 H   0  0  0  0  0  0  0  0  0  0  0  0
    4.5021   -0.9622    0.0000 N   0  0  0  0  0  0  0  0  0  0  0  0
    6.2168   -1.9522    0.0000 C   0  0  0  0  0  0  0  0  0  0  0  0
    7.6940   -2.2126    0.0000 H   0  0  0  0  0  0  0  0  0  0  0  0
    6.7299   -0.5426    0.0000 H   0  0  0  0  0  0  0  0  0  0  0  0
    6.2168   -3.4522    0.0000 C   0  0  0  0  0  0  0  0  0  0  0  0
    7.5159   -4.2022    0.0000 H   0  0  0  0  0  0  0  0  0  0  0  0
    4.7396   -3.1917    0.0000 H   0  0  0  0  0  0  0  0  0  0  0  0
    5.7038   -4.8617    0.0000 H   0  0  0  0  0  0  0  0  0  0  0  0
    3.2031   -1.7122    0.0000 C   0  0  0  0  0  0  0  0  0  0  0  0
    2.6900   -0.3026    0.0000 H   0  0  0  0  0  0  0  0  0  0  0  0
    1.7258   -1.9726    0.0000 H   0  0  0  0  0  0  0  0  0  0  0  0
    3.2031   -3.2122    0.0000 C   0  0  0  0  0  0  0  0  0  0  0  0
    4.5021   -3.9622    0.0000 H   0  0  0  0  0  0  0  0  0  0  0  0
    2.6900   -4.6217    0.0000 H   0  0  0  0  0  0  0  0  0  0  0  0
    1.7258   -2.9517    0.0000 H   0  0  0  0  0  0  0  0  0  0  0  0
  1  2  1  0  0  0  0 
  1  3  1  0  0  0  0 
  1  4  1  0  0  0  0 
  1  5  1  0  0  0  0 
  5  6  1  0  0  0  0 
  5  7  1  0  0  0  0 
  5  8  1  0  0  0  0 
  8  9  1  0  0  0  0 
  9 10  1  0  0  0  0 
  9 11  1  0  0  0  0 
  9 12  1  0  0  0  0 
 12 13  1  0  0  0  0 
 12 14  1  0  0  0  0 
 12 15  1  0  0  0  0 
  8 16  1  0  0  0  0 
 16 17  1  0  0  0  0 
 16 18  1  0  0  0  0 
 16 19  1  0  0  0  0 
 19 20  1  0  0  0  0 
 19 21  1  0  0  0  0 
 19 22  1  0  0  0  0 
M  END
> <Rank>
24

> <Priority_score>
0.124

> <Reaction_type>
oxidation of 4-substituted anisole to quinone (substituent not a leaving group)

> <Parent_ID>
19

> <Parent_InChI>
InChI=1S/C25H29I2NO3/c1-4-7-11-22-23(18-10-8-9-12-21(18)31-22)24(29)17-15-19(26)25(20(27)16-17)30-14-13-28(5-2)6-3/h8-10,12,15-16H,4-7,11,13-14H2,1-3H3

> <Parent_SMILES>
CCCCc1oc2ccccc2c1C(=O)c1cc(I)c(OCCN(CC)CC)c(I)c1

$$$$
Molecule 19_metabolite 27
  CDK     0516241031

 59 61  0  0  0  0  0  0  0  0999 V2000
   10.7123   -0.8938    0.0000 C   0  0  0  0  0  0  0  0  0  0  0  0
   12.0736   -0.2640    0.0000 H   0  0  0  0  0  0  0  0  0  0  0  0
    9.6485   -1.9513    0.0000 H   0  0  0  0  0  0  0  0  0  0  0  0
   11.5690   -2.1251    0.0000 H   0  0  0  0  0  0  0  0  0  0  0  0
    9.4861   -0.0298    0.0000 C   0  0  0  0  0  0  0  0  0  0  0  0
    8.8481   -1.3873    0.0000 H   0  0  0  0  0  0  0  0  0  0  0  0
    8.0384    0.3628    0.0000 H   0  0  0  0  0  0  0  0  0  0  0  0
    9.6213    1.4641    0.0000 C   0  0  0  0  0  0  0  0  0  0  0  0
   10.2593    2.8217    0.0000 H   0  0  0  0  0  0  0  0  0  0  0  0
   11.0691    1.0716    0.0000 H   0  0  0  0  0  0  0  0  0  0  0  0
    8.0028    2.6046    0.0000 C   0  0  0  0  0  0  0  0  0  0  0  0
    7.3648    1.2471    0.0000 H   0  0  0  0  0  0  0  0  0  0  0  0
    6.5551    2.9972    0.0000 H   0  0  0  0  0  0  0  0  0  0  0  0
    8.1380    4.0985    0.0000 C   0  0  0  0  0  0  0  0  0  0  0  0
    7.0123    5.0840    0.0000 C   0  0  0  0  0  0  0  0  0  0  0  0
    7.5993    6.4667    0.0000 C   0  0  0  0  0  0  0  0  0  0  0  0
    9.0932    6.3315    0.0000 C   0  0  0  0  0  0  0  0  0  0  0  0
    9.9573    7.5586    0.0000 C   0  0  0  0  0  0  0  0  0  0  0  0
   11.4512    7.4234    0.0000 H   0  0  0  0  0  0  0  0  0  0  0  0
    9.3275    8.9209    0.0000 C   0  0  0  0  0  0  0  0  0  0  0  0
   10.1918   10.1470    0.0000 H   0  0  0  0  0  0  0  0  0  0  0  0
    7.8336    9.0562    0.0000 C   0  0  0  0  0  0  0  0  0  0  0  0
    7.2036   10.4174    0.0000 H   0  0  0  0  0  0  0  0  0  0  0  0
    6.9695    7.8290    0.0000 C   0  0  0  0  0  0  0  0  0  0  0  0
    5.4756    7.9642    0.0000 H   0  0  0  0  0  0  0  0  0  0  0  0
    9.4224    4.8659    0.0000 O   0  0  0  0  0  0  0  0  0  0  0  0
    4.1465    4.4277    0.0000 C   0  0  0  0  0  0  0  0  0  0  0  0
    3.7054    2.9940    0.0000 O   0  0  0  0  0  0  0  0  0  0  0  0
    3.1254    5.5265    0.0000 C   0  0  0  0  0  0  0  0  0  0  0  0
    3.5663    6.9521    0.0000 C   0  0  0  0  0  0  0  0  0  0  0  0
    5.0268    7.2941    0.0000 H   0  0  0  0  0  0  0  0  0  0  0  0
    2.5501    8.0211    0.0000 C   0  0  0  0  0  0  0  0  0  0  0  0
    1.1012    7.7177    0.0000 C   0  0  0  0  0  0  0  0  0  0  0  0
    0.6626    6.2825    0.0000 C   0  0  0  0  0  0  0  0  0  0  0  0
    1.6832    5.1940    0.0000 C   0  0  0  0  0  0  0  0  0  0  0  0
    1.2465    3.7590    0.0000 H   0  0  0  0  0  0  0  0  0  0  0  0
   -0.7985    5.9429    0.0000 I   0  0  0  0  0  0  0  0  0  0  0  0
    0.0895    8.8252    0.0000 O   0  0  0  0  0  0  0  0  0  0  0  0
   -1.3754    8.5027    0.0000 C   0  0  0  0  0  0  0  0  0  0  0  0
   -0.8035    7.1160    0.0000 H   0  0  0  0  0  0  0  0  0  0  0  0
   -2.6417    7.6986    0.0000 H   0  0  0  0  0  0  0  0  0  0  0  0
   -2.3871    9.6101    0.0000 C   0  0  0  0  0  0  0  0  0  0  0  0
   -3.8521    9.2877    0.0000 H   0  0  0  0  0  0  0  0  0  0  0  0
   -1.9339   11.0400    0.0000 N   0  0  0  0  0  0  0  0  0  0  0  0
   -2.9457   12.1475    0.0000 C   0  0  0  0  0  0  0  0  0  0  0  0
   -4.2751   12.8421    0.0000 H   0  0  0  0  0  0  0  0  0  0  0  0
   -3.8606   10.9588    0.0000 H   0  0  0  0  0  0  0  0  0  0  0  0
   -2.4925   13.5774    0.0000 C   0  0  0  0  0  0  0  0  0  0  0  0
   -3.5042   14.6848    0.0000 H   0  0  0  0  0  0  0  0  0  0  0  0
   -1.1630   12.8828    0.0000 H   0  0  0  0  0  0  0  0  0  0  0  0
   -1.5776   14.7660    0.0000 H   0  0  0  0  0  0  0  0  0  0  0  0
   -0.4690   11.3625    0.0000 C   0  0  0  0  0  0  0  0  0  0  0  0
   -0.4058    9.8638    0.0000 H   0  0  0  0  0  0  0  0  0  0  0  0
    1.0179   11.1645    0.0000 H   0  0  0  0  0  0  0  0  0  0  0  0
   -0.0158   12.7924    0.0000 C   0  0  0  0  0  0  0  0  0  0  0  0
   -1.0275   13.8998    0.0000 H   0  0  0  0  0  0  0  0  0  0  0  0
    1.3137   12.0978    0.0000 H   0  0  0  0  0  0  0  0  0  0  0  0
    0.8991   13.9811    0.0000 H   0  0  0  0  0  0  0  0  0  0  0  0
    2.9965    9.4531    0.0000 I   0  0  0  0  0  0  0  0  0  0  0  0
  1  2  1  0  0  0  0 
  1  3  1  0  0  0  0 
  1  4  1  0  0  0  0 
  1  5  1  0  0  0  0 
  5  6  1  0  0  0  0 
  5  7  1  0  0  0  0 
  5  8  1  0  0  0  0 
  8  9  1  0  0  0  0 
  8 10  1  0  0  0  0 
  8 11  1  0  0  0  0 
 11 12  1  0  0  0  0 
 11 13  1  0  0  0  0 
 11 14  1  0  0  0  0 
 14 15  2  0  0  0  0 
 15 16  1  0  0  0  0 
 16 17  2  0  0  0  0 
 17 18  1  0  0  0  0 
 18 19  1  0  0  0  0 
 18 20  2  0  0  0  0 
 20 21  1  0  0  0  0 
 20 22  1  0  0  0  0 
 22 23  1  0  0  0  0 
 22 24  2  0  0  0  0 
 16 24  1  0  0  0  0 
 24 25  1  0  0  0  0 
 17 26  1  0  0  0  0 
 14 26  1  0  0  0  0 
 15 27  1  0  0  0  0 
 27 28  2  0  0  0  0 
 27 29  1  0  0  0  0 
 29 30  2  0  0  0  0 
 30 31  1  0  0  0  0 
 30 32  1  0  0  0  0 
 32 33  2  0  0  0  0 
 33 34  1  0  0  0  0 
 34 35  2  0  0  0  0 
 29 35  1  0  0  0  0 
 35 36  1  0  0  0  0 
 34 37  1  0  0  0  0 
 33 38  1  0  0  0  0 
 38 39  1  0  0  0  0 
 39 40  1  0  0  0  0 
 39 41  1  0  0  0  0 
 39 42  1  0  0  0  0 
 42 43  1  0  0  0  0 
 42 44  2  0  0  0  0 
 44 45  1  0  0  0  0 
 45 46  1  0  0  0  0 
 45 47  1  0  0  0  0 
 45 48  1  0  0  0  0 
 48 49  1  0  0  0  0 
 48 50  1  0  0  0  0 
 48 51  1  0  0  0  0 
 44 52  1  0  0  0  0 
 52 53  1  0  0  0  0 
 52 54  1  0  0  0  0 
 52 55  1  0  0  0  0 
 55 56  1  0  0  0  0 
 55 57  1  0  0  0  0 
 55 58  1  0  0  0  0 
 32 59  1  0  0  0  0 
M  CHG  1  44   1
M  END
> <Rank>
27

> <Priority_score>
0.12240000000000001

> <Reaction_type>
dehydration of N-C bond

> <Parent_ID>
19

> <Parent_InChI>
InChI=1S/C25H29I2NO3/c1-4-7-11-22-23(18-10-8-9-12-21(18)31-22)24(29)17-15-19(26)25(20(27)16-17)30-14-13-28(5-2)6-3/h8-10,12,15-16H,4-7,11,13-14H2,1-3H3

> <Parent_SMILES>
CCCCc1oc2ccccc2c1C(=O)c1cc(I)c(OCCN(CC)CC)c(I)c1

$$$$
Molecule 19_metabolite 28
  CDK     0516241031

 61 63  0  0  0  0  0  0  0  0999 V2000
   10.7123   -0.8938    0.0000 C   0  0  0  0  0  0  0  0  0  0  0  0
   10.5771   -2.3877    0.0000 H   0  0  0  0  0  0  0  0  0  0  0  0
   11.3503    0.4637    0.0000 H   0  0  0  0  0  0  0  0  0  0  0  0
   12.1600   -1.2864    0.0000 H   0  0  0  0  0  0  0  0  0  0  0  0
    8.7014    0.5232    0.0000 C   0  0  0  0  0  0  0  0  0  0  0  0
    8.0634   -0.8344    0.0000 H   0  0  0  0  0  0  0  0  0  0  0  0
    7.2537    0.9158    0.0000 H   0  0  0  0  0  0  0  0  0  0  0  0
    8.8366    2.0171    0.0000 C   0  0  0  0  0  0  0  0  0  0  0  0
    9.4746    3.3747    0.0000 H   0  0  0  0  0  0  0  0  0  0  0  0
    7.2181    3.1576    0.0000 C   0  0  0  0  0  0  0  0  0  0  0  0
    6.5801    1.8001    0.0000 H   0  0  0  0  0  0  0  0  0  0  0  0
    5.7704    3.5502    0.0000 H   0  0  0  0  0  0  0  0  0  0  0  0
    7.3533    4.6515    0.0000 C   0  0  0  0  0  0  0  0  0  0  0  0
    6.2275    5.6370    0.0000 C   0  0  0  0  0  0  0  0  0  0  0  0
    6.8146    7.0197    0.0000 C   0  0  0  0  0  0  0  0  0  0  0  0
    8.3084    6.8845    0.0000 C   0  0  0  0  0  0  0  0  0  0  0  0
    9.1726    8.1116    0.0000 C   0  0  0  0  0  0  0  0  0  0  0  0
   10.6665    7.9764    0.0000 H   0  0  0  0  0  0  0  0  0  0  0  0
    8.5428    9.4739    0.0000 C   0  0  0  0  0  0  0  0  0  0  0  0
    9.4070   10.6999    0.0000 H   0  0  0  0  0  0  0  0  0  0  0  0
    7.0489    9.6091    0.0000 C   0  0  0  0  0  0  0  0  0  0  0  0
    6.4188   10.9704    0.0000 H   0  0  0  0  0  0  0  0  0  0  0  0
    6.1848    8.3820    0.0000 C   0  0  0  0  0  0  0  0  0  0  0  0
    4.6909    8.5172    0.0000 H   0  0  0  0  0  0  0  0  0  0  0  0
    8.6377    5.4189    0.0000 O   0  0  0  0  0  0  0  0  0  0  0  0
    3.3617    4.9807    0.0000 C   0  0  0  0  0  0  0  0  0  0  0  0
    2.9206    3.5470    0.0000 O   0  0  0  0  0  0  0  0  0  0  0  0
    2.3407    6.0795    0.0000 C   0  0  0  0  0  0  0  0  0  0  0  0
    2.7816    7.5051    0.0000 C   0  0  0  0  0  0  0  0  0  0  0  0
    4.2421    7.8471    0.0000 H   0  0  0  0  0  0  0  0  0  0  0  0
    1.7654    8.5741    0.0000 C   0  0  0  0  0  0  0  0  0  0  0  0
    0.3165    8.2707    0.0000 C   0  0  0  0  0  0  0  0  0  0  0  0
   -0.1222    6.8354    0.0000 C   0  0  0  0  0  0  0  0  0  0  0  0
    0.8985    5.7470    0.0000 C   0  0  0  0  0  0  0  0  0  0  0  0
    0.4618    4.3120    0.0000 H   0  0  0  0  0  0  0  0  0  0  0  0
   -1.5833    6.4959    0.0000 I   0  0  0  0  0  0  0  0  0  0  0  0
   -0.6952    9.3782    0.0000 O   0  0  0  0  0  0  0  0  0  0  0  0
   -2.1601    9.0557    0.0000 C   0  0  0  0  0  0  0  0  0  0  0  0
   -1.5882    7.6690    0.0000 H   0  0  0  0  0  0  0  0  0  0  0  0
   -3.4264    8.2516    0.0000 H   0  0  0  0  0  0  0  0  0  0  0  0
   -3.1719   10.1631    0.0000 C   0  0  0  0  0  0  0  0  0  0  0  0
   -4.5014   10.8577    0.0000 H   0  0  0  0  0  0  0  0  0  0  0  0
   -4.0868    8.9745    0.0000 H   0  0  0  0  0  0  0  0  0  0  0  0
   -2.5737   12.0506    0.0000 N   0  0  0  0  0  0  0  0  0  0  0  0
   -3.5854   13.1580    0.0000 C   0  0  0  0  0  0  0  0  0  0  0  0
   -4.9149   13.8526    0.0000 H   0  0  0  0  0  0  0  0  0  0  0  0
   -4.5003   11.9694    0.0000 H   0  0  0  0  0  0  0  0  0  0  0  0
   -3.1322   14.5879    0.0000 C   0  0  0  0  0  0  0  0  0  0  0  0
   -4.1439   15.6953    0.0000 H   0  0  0  0  0  0  0  0  0  0  0  0
   -1.8027   13.8933    0.0000 H   0  0  0  0  0  0  0  0  0  0  0  0
   -2.2173   15.7766    0.0000 H   0  0  0  0  0  0  0  0  0  0  0  0
   -1.1087   12.3731    0.0000 C   0  0  0  0  0  0  0  0  0  0  0  0
   -1.0455   10.8744    0.0000 H   0  0  0  0  0  0  0  0  0  0  0  0
    0.3781   12.1750    0.0000 H   0  0  0  0  0  0  0  0  0  0  0  0
   -0.6555   13.8030    0.0000 C   0  0  0  0  0  0  0  0  0  0  0  0
   -1.6673   14.9104    0.0000 H   0  0  0  0  0  0  0  0  0  0  0  0
    0.6740   13.1083    0.0000 H   0  0  0  0  0  0  0  0  0  0  0  0
    0.2594   14.9916    0.0000 H   0  0  0  0  0  0  0  0  0  0  0  0
    2.2118   10.0061    0.0000 I   0  0  0  0  0  0  0  0  0  0  0  0
   10.2843    1.6245    0.0000 O   0  0  0  0  0  0  0  0  0  0  0  0
   11.3481    2.6820    0.0000 H   0  0  0  0  0  0  0  0  0  0  0  0
  1  2  1  0  0  0  0 
  1  3  1  0  0  0  0 
  1  4  1  0  0  0  0 
  1  5  1  0  0  0  0 
  5  6  1  0  0  0  0 
  5  7  1  0  0  0  0 
  5  8  1  0  0  0  0 
  8  9  1  0  0  0  0 
  8 10  1  0  0  0  0 
 10 11  1  0  0  0  0 
 10 12  1  0  0  0  0 
 10 13  1  0  0  0  0 
 13 14  2  0  0  0  0 
 14 15  1  0  0  0  0 
 15 16  2  0  0  0  0 
 16 17  1  0  0  0  0 
 17 18  1  0  0  0  0 
 17 19  2  0  0  0  0 
 19 20  1  0  0  0  0 
 19 21  1  0  0  0  0 
 21 22  1  0  0  0  0 
 21 23  2  0  0  0  0 
 15 23  1  0  0  0  0 
 23 24  1  0  0  0  0 
 16 25  1  0  0  0  0 
 13 25  1  0  0  0  0 
 14 26  1  0  0  0  0 
 26 27  2  0  0  0  0 
 26 28  1  0  0  0  0 
 28 29  2  0  0  0  0 
 29 30  1  0  0  0  0 
 29 31  1  0  0  0  0 
 31 32  2  0  0  0  0 
 32 33  1  0  0  0  0 
 33 34  2  0  0  0  0 
 28 34  1  0  0  0  0 
 34 35  1  0  0  0  0 
 33 36  1  0  0  0  0 
 32 37  1  0  0  0  0 
 37 38  1  0  0  0  0 
 38 39  1  0  0  0  0 
 38 40  1  0  0  0  0 
 38 41  1  0  0  0  0 
 41 42  1  0  0  0  0 
 41 43  1  0  0  0  0 
 41 44  1  0  0  0  0 
 44 45  1  0  0  0  0 
 45 46  1  0  0  0  0 
 45 47  1  0  0  0  0 
 45 48  1  0  0  0  0 
 48 49  1  0  0  0  0 
 48 50  1  0  0  0  0 
 48 51  1  0  0  0  0 
 44 52  1  0  0  0  0 
 52 53  1  0  0  0  0 
 52 54  1  0  0  0  0 
 52 55  1  0  0  0  0 
 55 56  1  0  0  0  0 
 55 57  1  0  0  0  0 
 55 58  1  0  0  0  0 
 31 59  1  0  0  0  0 
  8 60  1  0  0  0  0 
 60 61  1  0  0  0  0 
M  END
> <Rank>
28

> <Priority_score>
0.112

> <Reaction_type>
aliphatic hydroxylation

> <Parent_ID>
19

> <Parent_InChI>
InChI=1S/C25H29I2NO3/c1-4-7-11-22-23(18-10-8-9-12-21(18)31-22)24(29)17-15-19(26)25(20(27)16-17)30-14-13-28(5-2)6-3/h8-10,12,15-16H,4-7,11,13-14H2,1-3H3

> <Parent_SMILES>
CCCCc1oc2ccccc2c1C(=O)c1cc(I)c(OCCN(CC)CC)c(I)c1

$$$$
Molecule 19_metabolite 29
  CDK     0516241031

 61 63  0  0  0  0  0  0  0  0999 V2000
   10.7123   -0.8938    0.0000 C   0  0  0  0  0  0  0  0  0  0  0  0
   12.0736   -0.2640    0.0000 H   0  0  0  0  0  0  0  0  0  0  0  0
    9.6485   -1.9513    0.0000 H   0  0  0  0  0  0  0  0  0  0  0  0
   11.5690   -2.1251    0.0000 H   0  0  0  0  0  0  0  0  0  0  0  0
    9.4861   -0.0298    0.0000 C   0  0  0  0  0  0  0  0  0  0  0  0
    8.8481   -1.3873    0.0000 H   0  0  0  0  0  0  0  0  0  0  0  0
    8.0384    0.3628    0.0000 H   0  0  0  0  0  0  0  0  0  0  0  0
    9.6213    1.4641    0.0000 C   0  0  0  0  0  0  0  0  0  0  0  0
   10.2593    2.8217    0.0000 H   0  0  0  0  0  0  0  0  0  0  0  0
   11.0691    1.0716    0.0000 H   0  0  0  0  0  0  0  0  0  0  0  0
    8.0028    2.6046    0.0000 C   0  0  0  0  0  0  0  0  0  0  0  0
    7.3648    1.2471    0.0000 H   0  0  0  0  0  0  0  0  0  0  0  0
    8.1380    4.0985    0.0000 C   0  0  0  0  0  0  0  0  0  0  0  0
    7.0123    5.0840    0.0000 C   0  0  0  0  0  0  0  0  0  0  0  0
    7.5993    6.4667    0.0000 C   0  0  0  0  0  0  0  0  0  0  0  0
    9.0932    6.3315    0.0000 C   0  0  0  0  0  0  0  0  0  0  0  0
    9.9573    7.5586    0.0000 C   0  0  0  0  0  0  0  0  0  0  0  0
   11.4512    7.4234    0.0000 H   0  0  0  0  0  0  0  0  0  0  0  0
    9.3275    8.9209    0.0000 C   0  0  0  0  0  0  0  0  0  0  0  0
   10.1918   10.1470    0.0000 H   0  0  0  0  0  0  0  0  0  0  0  0
    7.8336    9.0562    0.0000 C   0  0  0  0  0  0  0  0  0  0  0  0
    7.2036   10.4174    0.0000 H   0  0  0  0  0  0  0  0  0  0  0  0
    6.9695    7.8290    0.0000 C   0  0  0  0  0  0  0  0  0  0  0  0
    5.4756    7.9642    0.0000 H   0  0  0  0  0  0  0  0  0  0  0  0
    9.4224    4.8659    0.0000 O   0  0  0  0  0  0  0  0  0  0  0  0
    4.1465    4.4277    0.0000 C   0  0  0  0  0  0  0  0  0  0  0  0
    3.7054    2.9940    0.0000 O   0  0  0  0  0  0  0  0  0  0  0  0
    3.1254    5.5265    0.0000 C   0  0  0  0  0  0  0  0  0  0  0  0
    3.5663    6.9521    0.0000 C   0  0  0  0  0  0  0  0  0  0  0  0
    5.0268    7.2941    0.0000 H   0  0  0  0  0  0  0  0  0  0  0  0
    2.5501    8.0211    0.0000 C   0  0  0  0  0  0  0  0  0  0  0  0
    1.1012    7.7177    0.0000 C   0  0  0  0  0  0  0  0  0  0  0  0
    0.6626    6.2825    0.0000 C   0  0  0  0  0  0  0  0  0  0  0  0
    1.6832    5.1940    0.0000 C   0  0  0  0  0  0  0  0  0  0  0  0
    1.2465    3.7590    0.0000 H   0  0  0  0  0  0  0  0  0  0  0  0
   -0.7985    5.9429    0.0000 I   0  0  0  0  0  0  0  0  0  0  0  0
    0.0895    8.8252    0.0000 O   0  0  0  0  0  0  0  0  0  0  0  0
   -1.3754    8.5027    0.0000 C   0  0  0  0  0  0  0  0  0  0  0  0
   -0.8035    7.1160    0.0000 H   0  0  0  0  0  0  0  0  0  0  0  0
   -2.6417    7.6986    0.0000 H   0  0  0  0  0  0  0  0  0  0  0  0
   -2.3871    9.6101    0.0000 C   0  0  0  0  0  0  0  0  0  0  0  0
   -3.7166   10.3047    0.0000 H   0  0  0  0  0  0  0  0  0  0  0  0
   -3.3021    8.4215    0.0000 H   0  0  0  0  0  0  0  0  0  0  0  0
   -1.7889   11.4976    0.0000 N   0  0  0  0  0  0  0  0  0  0  0  0
   -2.8006   12.6050    0.0000 C   0  0  0  0  0  0  0  0  0  0  0  0
   -4.1301   13.2996    0.0000 H   0  0  0  0  0  0  0  0  0  0  0  0
   -3.7156   11.4164    0.0000 H   0  0  0  0  0  0  0  0  0  0  0  0
   -2.3474   14.0349    0.0000 C   0  0  0  0  0  0  0  0  0  0  0  0
   -3.3592   15.1424    0.0000 H   0  0  0  0  0  0  0  0  0  0  0  0
   -1.0180   13.3403    0.0000 H   0  0  0  0  0  0  0  0  0  0  0  0
   -1.4325   15.2236    0.0000 H   0  0  0  0  0  0  0  0  0  0  0  0
   -0.3240   11.8201    0.0000 C   0  0  0  0  0  0  0  0  0  0  0  0
   -0.2608   10.3214    0.0000 H   0  0  0  0  0  0  0  0  0  0  0  0
    1.1629   11.6221    0.0000 H   0  0  0  0  0  0  0  0  0  0  0  0
    0.1292   13.2500    0.0000 C   0  0  0  0  0  0  0  0  0  0  0  0
   -0.8825   14.3574    0.0000 H   0  0  0  0  0  0  0  0  0  0  0  0
    1.4587   12.5554    0.0000 H   0  0  0  0  0  0  0  0  0  0  0  0
    1.0441   14.4386    0.0000 H   0  0  0  0  0  0  0  0  0  0  0  0
    2.9965    9.4531    0.0000 I   0  0  0  0  0  0  0  0  0  0  0  0
    6.5551    2.9972    0.0000 O   0  0  0  0  0  0  0  0  0  0  0  0
    5.4913    1.9397    0.0000 H   0  0  0  0  0  0  0  0  0  0  0  0
  1  2  1  0  0  0  0 
  1  3  1  0  0  0  0 
  1  4  1  0  0  0  0 
  1  5  1  0  0  0  0 
  5  6  1  0  0  0  0 
  5  7  1  0  0  0  0 
  5  8  1  0  0  0  0 
  8  9  1  0  0  0  0 
  8 10  1  0  0  0  0 
  8 11  1  0  0  0  0 
 11 12  1  0  0  0  0 
 11 13  1  0  0  0  0 
 13 14  2  0  0  0  0 
 14 15  1  0  0  0  0 
 15 16  2  0  0  0  0 
 16 17  1  0  0  0  0 
 17 18  1  0  0  0  0 
 17 19  2  0  0  0  0 
 19 20  1  0  0  0  0 
 19 21  1  0  0  0  0 
 21 22  1  0  0  0  0 
 21 23  2  0  0  0  0 
 15 23  1  0  0  0  0 
 23 24  1  0  0  0  0 
 16 25  1  0  0  0  0 
 13 25  1  0  0  0  0 
 14 26  1  0  0  0  0 
 26 27  2  0  0  0  0 
 26 28  1  0  0  0  0 
 28 29  2  0  0  0  0 
 29 30  1  0  0  0  0 
 29 31  1  0  0  0  0 
 31 32  2  0  0  0  0 
 32 33  1  0  0  0  0 
 33 34  2  0  0  0  0 
 28 34  1  0  0  0  0 
 34 35  1  0  0  0  0 
 33 36  1  0  0  0  0 
 32 37  1  0  0  0  0 
 37 38  1  0  0  0  0 
 38 39  1  0  0  0  0 
 38 40  1  0  0  0  0 
 38 41  1  0  0  0  0 
 41 42  1  0  0  0  0 
 41 43  1  0  0  0  0 
 41 44  1  0  0  0  0 
 44 45  1  0  0  0  0 
 45 46  1  0  0  0  0 
 45 47  1  0  0  0  0 
 45 48  1  0  0  0  0 
 48 49  1  0  0  0  0 
 48 50  1  0  0  0  0 
 48 51  1  0  0  0  0 
 44 52  1  0  0  0  0 
 52 53  1  0  0  0  0 
 52 54  1  0  0  0  0 
 52 55  1  0  0  0  0 
 55 56  1  0  0  0  0 
 55 57  1  0  0  0  0 
 55 58  1  0  0  0  0 
 31 59  1  0  0  0  0 
 11 60  1  0  0  0  0 
 60 61  1  0  0  0  0 
M  END
> <Rank>
28

> <Priority_score>
0.112

> <Reaction_type>
benzylic_hydroxylation_(c-CH2-CR)

> <Parent_ID>
19

> <Parent_InChI>
InChI=1S/C25H29I2NO3/c1-4-7-11-22-23(18-10-8-9-12-21(18)31-22)24(29)17-15-19(26)25(20(27)16-17)30-14-13-28(5-2)6-3/h8-10,12,15-16H,4-7,11,13-14H2,1-3H3

> <Parent_SMILES>
CCCCc1oc2ccccc2c1C(=O)c1cc(I)c(OCCN(CC)CC)c(I)c1

$$$$
Molecule 19_metabolite 30
  CDK     0516241031

 61 63  0  0  0  0  0  0  0  0999 V2000
   10.7123   -0.8938    0.0000 C   0  0  0  0  0  0  0  0  0  0  0  0
   12.0736   -0.2640    0.0000 H   0  0  0  0  0  0  0  0  0  0  0  0
    9.6485   -1.9513    0.0000 H   0  0  0  0  0  0  0  0  0  0  0  0
   11.5690   -2.1251    0.0000 H   0  0  0  0  0  0  0  0  0  0  0  0
    9.4861   -0.0298    0.0000 C   0  0  0  0  0  0  0  0  0  0  0  0
    8.8481   -1.3873    0.0000 H   0  0  0  0  0  0  0  0  0  0  0  0
    8.0384    0.3628    0.0000 H   0  0  0  0  0  0  0  0  0  0  0  0
    9.6213    1.4641    0.0000 C   0  0  0  0  0  0  0  0  0  0  0  0
   10.2593    2.8217    0.0000 H   0  0  0  0  0  0  0  0  0  0  0  0
   11.0691    1.0716    0.0000 H   0  0  0  0  0  0  0  0  0  0  0  0
    8.0028    2.6046    0.0000 C   0  0  0  0  0  0  0  0  0  0  0  0
    7.3648    1.2471    0.0000 H   0  0  0  0  0  0  0  0  0  0  0  0
    6.5551    2.9972    0.0000 H   0  0  0  0  0  0  0  0  0  0  0  0
    8.1380    4.0985    0.0000 C   0  0  0  0  0  0  0  0  0  0  0  0
    7.0123    5.0840    0.0000 C   0  0  0  0  0  0  0  0  0  0  0  0
    7.5993    6.4667    0.0000 C   0  0  0  0  0  0  0  0  0  0  0  0
    9.0932    6.3315    0.0000 C   0  0  0  0  0  0  0  0  0  0  0  0
    9.9573    7.5586    0.0000 C   0  0  0  0  0  0  0  0  0  0  0  0
   11.4512    7.4234    0.0000 H   0  0  0  0  0  0  0  0  0  0  0  0
    9.3275    8.9209    0.0000 C   0  0  0  0  0  0  0  0  0  0  0  0
   10.1918   10.1470    0.0000 H   0  0  0  0  0  0  0  0  0  0  0  0
    7.8336    9.0562    0.0000 C   0  0  0  0  0  0  0  0  0  0  0  0
    7.2036   10.4174    0.0000 H   0  0  0  0  0  0  0  0  0  0  0  0
    6.9695    7.8290    0.0000 C   0  0  0  0  0  0  0  0  0  0  0  0
    5.4756    7.9642    0.0000 H   0  0  0  0  0  0  0  0  0  0  0  0
    9.4224    4.8659    0.0000 O   0  0  0  0  0  0  0  0  0  0  0  0
    4.1465    4.4277    0.0000 C   0  0  0  0  0  0  0  0  0  0  0  0
    3.7054    2.9940    0.0000 O   0  0  0  0  0  0  0  0  0  0  0  0
    3.1254    5.5265    0.0000 C   0  0  0  0  0  0  0  0  0  0  0  0
    3.5663    6.9521    0.0000 C   0  0  0  0  0  0  0  0  0  0  0  0
    5.0268    7.2941    0.0000 H   0  0  0  0  0  0  0  0  0  0  0  0
    2.5501    8.0211    0.0000 C   0  0  0  0  0  0  0  0  0  0  0  0
    1.1012    7.7177    0.0000 C   0  0  0  0  0  0  0  0  0  0  0  0
    0.6626    6.2825    0.0000 C   0  0  0  0  0  0  0  0  0  0  0  0
    1.6832    5.1940    0.0000 C   0  0  0  0  0  0  0  0  0  0  0  0
    1.2465    3.7590    0.0000 H   0  0  0  0  0  0  0  0  0  0  0  0
   -0.7985    5.9429    0.0000 I   0  0  0  0  0  0  0  0  0  0  0  0
    0.0895    8.8252    0.0000 O   0  0  0  0  0  0  0  0  0  0  0  0
   -1.3754    8.5027    0.0000 C   0  0  0  0  0  0  0  0  0  0  0  0
   -0.8035    7.1160    0.0000 H   0  0  0  0  0  0  0  0  0  0  0  0
   -2.6417    7.6986    0.0000 H   0  0  0  0  0  0  0  0  0  0  0  0
   -2.3871    9.6101    0.0000 C   0  0  0  0  0  0  0  0  0  0  0  0
   -3.7166   10.3047    0.0000 H   0  0  0  0  0  0  0  0  0  0  0  0
   -3.3021    8.4215    0.0000 H   0  0  0  0  0  0  0  0  0  0  0  0
   -1.7889   11.4976    0.0000 N   0  0  0  0  0  0  0  0  0  0  0  0
   -0.3240   11.8201    0.0000 C   0  0  0  0  0  0  0  0  0  0  0  0
   -0.2608   10.3214    0.0000 H   0  0  0  0  0  0  0  0  0  0  0  0
    1.1629   11.6221    0.0000 H   0  0  0  0  0  0  0  0  0  0  0  0
    0.1292   13.2500    0.0000 C   0  0  0  0  0  0  0  0  0  0  0  0
   -0.8825   14.3574    0.0000 H   0  0  0  0  0  0  0  0  0  0  0  0
    1.4587   12.5554    0.0000 H   0  0  0  0  0  0  0  0  0  0  0  0
    1.0441   14.4386    0.0000 H   0  0  0  0  0  0  0  0  0  0  0  0
   -2.8006   12.6050    0.0000 C   0  0  0  0  0  0  0  0  0  0  0  0
   -4.1301   13.2996    0.0000 H   0  0  0  0  0  0  0  0  0  0  0  0
   -3.7156   11.4164    0.0000 H   0  0  0  0  0  0  0  0  0  0  0  0
   -2.3474   14.0349    0.0000 C   0  0  0  0  0  0  0  0  0  0  0  0
   -1.0180   13.3403    0.0000 H   0  0  0  0  0  0  0  0  0  0  0  0
   -1.4325   15.2236    0.0000 H   0  0  0  0  0  0  0  0  0  0  0  0
   -3.3592   15.1424    0.0000 O   0  0  0  0  0  0  0  0  0  0  0  0
   -2.9060   16.5723    0.0000 H   0  0  0  0  0  0  0  0  0  0  0  0
    2.9965    9.4531    0.0000 I   0  0  0  0  0  0  0  0  0  0  0  0
  1  2  1  0  0  0  0 
  1  3  1  0  0  0  0 
  1  4  1  0  0  0  0 
  1  5  1  0  0  0  0 
  5  6  1  0  0  0  0 
  5  7  1  0  0  0  0 
  5  8  1  0  0  0  0 
  8  9  1  0  0  0  0 
  8 10  1  0  0  0  0 
  8 11  1  0  0  0  0 
 11 12  1  0  0  0  0 
 11 13  1  0  0  0  0 
 11 14  1  0  0  0  0 
 14 15  2  0  0  0  0 
 15 16  1  0  0  0  0 
 16 17  2  0  0  0  0 
 17 18  1  0  0  0  0 
 18 19  1  0  0  0  0 
 18 20  2  0  0  0  0 
 20 21  1  0  0  0  0 
 20 22  1  0  0  0  0 
 22 23  1  0  0  0  0 
 22 24  2  0  0  0  0 
 16 24  1  0  0  0  0 
 24 25  1  0  0  0  0 
 17 26  1  0  0  0  0 
 14 26  1  0  0  0  0 
 15 27  1  0  0  0  0 
 27 28  2  0  0  0  0 
 27 29  1  0  0  0  0 
 29 30  2  0  0  0  0 
 30 31  1  0  0  0  0 
 30 32  1  0  0  0  0 
 32 33  2  0  0  0  0 
 33 34  1  0  0  0  0 
 34 35  2  0  0  0  0 
 29 35  1  0  0  0  0 
 35 36  1  0  0  0  0 
 34 37  1  0  0  0  0 
 33 38  1  0  0  0  0 
 38 39  1  0  0  0  0 
 39 40  1  0  0  0  0 
 39 41  1  0  0  0  0 
 39 42  1  0  0  0  0 
 42 43  1  0  0  0  0 
 42 44  1  0  0  0  0 
 42 45  1  0  0  0  0 
 45 46  1  0  0  0  0 
 46 47  1  0  0  0  0 
 46 48  1  0  0  0  0 
 46 49  1  0  0  0  0 
 49 50  1  0  0  0  0 
 49 51  1  0  0  0  0 
 49 52  1  0  0  0  0 
 45 53  1  0  0  0  0 
 53 54  1  0  0  0  0 
 53 55  1  0  0  0  0 
 53 56  1  0  0  0  0 
 56 57  1  0  0  0  0 
 56 58  1  0  0  0  0 
 56 59  1  0  0  0  0 
 59 60  1  0  0  0  0 
 32 61  1  0  0  0  0 
M  END
> <Rank>
30

> <Priority_score>
0.07132350783140139

> <Reaction_type>
aliphatic hydroxylation

> <Parent_ID>
19

> <Parent_InChI>
InChI=1S/C25H29I2NO3/c1-4-7-11-22-23(18-10-8-9-12-21(18)31-22)24(29)17-15-19(26)25(20(27)16-17)30-14-13-28(5-2)6-3/h8-10,12,15-16H,4-7,11,13-14H2,1-3H3

> <Parent_SMILES>
CCCCc1oc2ccccc2c1C(=O)c1cc(I)c(OCCN(CC)CC)c(I)c1

$$$$
Molecule 19_metabolite 31
  CDK     0516241031

 62 64  0  0  0  0  0  0  0  0999 V2000
   10.7567   -2.1630    0.0000 C   0  0  0  0  0  0  0  0  0  0  0  0
   12.1181   -1.5331    0.0000 H   0  0  0  0  0  0  0  0  0  0  0  0
    9.6929   -3.2205    0.0000 H   0  0  0  0  0  0  0  0  0  0  0  0
   11.6134   -3.3943    0.0000 H   0  0  0  0  0  0  0  0  0  0  0  0
    9.5306   -1.2990    0.0000 C   0  0  0  0  0  0  0  0  0  0  0  0
    8.8926   -2.6565    0.0000 H   0  0  0  0  0  0  0  0  0  0  0  0
    8.0829   -0.9064    0.0000 H   0  0  0  0  0  0  0  0  0  0  0  0
    9.6658    0.1949    0.0000 C   0  0  0  0  0  0  0  0  0  0  0  0
   10.3038    1.5525    0.0000 H   0  0  0  0  0  0  0  0  0  0  0  0
   11.1135   -0.1976    0.0000 H   0  0  0  0  0  0  0  0  0  0  0  0
    8.0473    1.3355    0.0000 C   0  0  0  0  0  0  0  0  0  0  0  0
    7.4093   -0.0221    0.0000 H   0  0  0  0  0  0  0  0  0  0  0  0
    6.5995    1.7280    0.0000 H   0  0  0  0  0  0  0  0  0  0  0  0
    8.1825    2.8294    0.0000 C   0  0  0  0  0  0  0  0  0  0  0  0
    7.0567    3.8148    0.0000 C   0  0  0  0  0  0  0  0  0  0  0  0
    7.6437    5.1976    0.0000 C   0  0  0  0  0  0  0  0  0  0  0  0
    9.1376    5.0623    0.0000 C   0  0  0  0  0  0  0  0  0  0  0  0
   10.0017    6.2895    0.0000 C   0  0  0  0  0  0  0  0  0  0  0  0
   11.4956    6.1543    0.0000 H   0  0  0  0  0  0  0  0  0  0  0  0
    9.3720    7.6518    0.0000 C   0  0  0  0  0  0  0  0  0  0  0  0
   10.2362    8.8778    0.0000 H   0  0  0  0  0  0  0  0  0  0  0  0
    7.8781    7.7870    0.0000 C   0  0  0  0  0  0  0  0  0  0  0  0
    7.2480    9.1482    0.0000 H   0  0  0  0  0  0  0  0  0  0  0  0
    7.0140    6.5599    0.0000 C   0  0  0  0  0  0  0  0  0  0  0  0
    5.5201    6.6951    0.0000 H   0  0  0  0  0  0  0  0  0  0  0  0
    9.4669    3.5967    0.0000 O   0  0  0  0  0  0  0  0  0  0  0  0
    5.1267    3.3728    0.0000 C   0  0  0  0  0  0  0  0  0  0  0  0
    5.7103    1.9910    0.0000 H   0  0  0  0  0  0  0  0  0  0  0  0
    3.1254    5.5265    0.0000 C   0  0  0  0  0  0  0  0  0  0  0  0
    3.5663    6.9521    0.0000 C   0  0  0  0  0  0  0  0  0  0  0  0
    5.0268    7.2941    0.0000 H   0  0  0  0  0  0  0  0  0  0  0  0
    2.5501    8.0211    0.0000 C   0  0  0  0  0  0  0  0  0  0  0  0
    1.1012    7.7177    0.0000 C   0  0  0  0  0  0  0  0  0  0  0  0
    0.6626    6.2825    0.0000 C   0  0  0  0  0  0  0  0  0  0  0  0
    1.6832    5.1940    0.0000 C   0  0  0  0  0  0  0  0  0  0  0  0
    1.2465    3.7590    0.0000 H   0  0  0  0  0  0  0  0  0  0  0  0
   -0.7985    5.9429    0.0000 I   0  0  0  0  0  0  0  0  0  0  0  0
    0.0895    8.8252    0.0000 O   0  0  0  0  0  0  0  0  0  0  0  0
   -1.3754    8.5027    0.0000 C   0  0  0  0  0  0  0  0  0  0  0  0
   -0.8035    7.1160    0.0000 H   0  0  0  0  0  0  0  0  0  0  0  0
   -2.6417    7.6986    0.0000 H   0  0  0  0  0  0  0  0  0  0  0  0
   -2.3871    9.6101    0.0000 C   0  0  0  0  0  0  0  0  0  0  0  0
   -3.7166   10.3047    0.0000 H   0  0  0  0  0  0  0  0  0  0  0  0
   -3.3021    8.4215    0.0000 H   0  0  0  0  0  0  0  0  0  0  0  0
   -1.7889   11.4976    0.0000 N   0  0  0  0  0  0  0  0  0  0  0  0
   -2.8006   12.6050    0.0000 C   0  0  0  0  0  0  0  0  0  0  0  0
   -4.1301   13.2996    0.0000 H   0  0  0  0  0  0  0  0  0  0  0  0
   -3.7156   11.4164    0.0000 H   0  0  0  0  0  0  0  0  0  0  0  0
   -2.3474   14.0349    0.0000 C   0  0  0  0  0  0  0  0  0  0  0  0
   -3.3592   15.1424    0.0000 H   0  0  0  0  0  0  0  0  0  0  0  0
   -1.0180   13.3403    0.0000 H   0  0  0  0  0  0  0  0  0  0  0  0
   -1.4325   15.2236    0.0000 H   0  0  0  0  0  0  0  0  0  0  0  0
   -0.3240   11.8201    0.0000 C   0  0  0  0  0  0  0  0  0  0  0  0
   -0.2608   10.3214    0.0000 H   0  0  0  0  0  0  0  0  0  0  0  0
    1.1629   11.6221    0.0000 H   0  0  0  0  0  0  0  0  0  0  0  0
    0.1292   13.2500    0.0000 C   0  0  0  0  0  0  0  0  0  0  0  0
   -0.8825   14.3574    0.0000 H   0  0  0  0  0  0  0  0  0  0  0  0
    1.4587   12.5554    0.0000 H   0  0  0  0  0  0  0  0  0  0  0  0
    1.0441   14.4386    0.0000 H   0  0  0  0  0  0  0  0  0  0  0  0
    2.9965    9.4531    0.0000 I   0  0  0  0  0  0  0  0  0  0  0  0
    3.8672    2.5581    0.0000 O   0  0  0  0  0  0  0  0  0  0  0  0
    3.9431    1.0600    0.0000 H   0  0  0  0  0  0  0  0  0  0  0  0
  1  2  1  0  0  0  0 
  1  3  1  0  0  0  0 
  1  4  1  0  0  0  0 
  1  5  1  0  0  0  0 
  5  6  1  0  0  0  0 
  5  7  1  0  0  0  0 
  5  8  1  0  0  0  0 
  8  9  1  0  0  0  0 
  8 10  1  0  0  0  0 
  8 11  1  0  0  0  0 
 11 12  1  0  0  0  0 
 11 13  1  0  0  0  0 
 11 14  1  0  0  0  0 
 14 15  2  0  0  0  0 
 15 16  1  0  0  0  0 
 16 17  2  0  0  0  0 
 17 18  1  0  0  0  0 
 18 19  1  0  0  0  0 
 18 20  2  0  0  0  0 
 20 21  1  0  0  0  0 
 20 22  1  0  0  0  0 
 22 23  1  0  0  0  0 
 22 24  2  0  0  0  0 
 16 24  1  0  0  0  0 
 24 25  1  0  0  0  0 
 17 26  1  0  0  0  0 
 14 26  1  0  0  0  0 
 15 27  1  0  0  0  0 
 27 28  1  0  0  0  0 
 27 29  1  0  0  0  0 
 29 30  2  0  0  0  0 
 30 31  1  0  0  0  0 
 30 32  1  0  0  0  0 
 32 33  2  0  0  0  0 
 33 34  1  0  0  0  0 
 34 35  2  0  0  0  0 
 29 35  1  0  0  0  0 
 35 36  1  0  0  0  0 
 34 37  1  0  0  0  0 
 33 38  1  0  0  0  0 
 38 39  1  0  0  0  0 
 39 40  1  0  0  0  0 
 39 41  1  0  0  0  0 
 39 42  1  0  0  0  0 
 42 43  1  0  0  0  0 
 42 44  1  0  0  0  0 
 42 45  1  0  0  0  0 
 45 46  1  0  0  0  0 
 46 47  1  0  0  0  0 
 46 48  1  0  0  0  0 
 46 49  1  0  0  0  0 
 49 50  1  0  0  0  0 
 49 51  1  0  0  0  0 
 49 52  1  0  0  0  0 
 45 53  1  0  0  0  0 
 53 54  1  0  0  0  0 
 53 55  1  0  0  0  0 
 53 56  1  0  0  0  0 
 56 57  1  0  0  0  0 
 56 58  1  0  0  0  0 
 56 59  1  0  0  0  0 
 32 60  1  0  0  0  0 
 27 61  1  0  0  0  0 
 61 62  1  0  0  0  0 
M  END
> <Rank>
31

> <Priority_score>
0.044

> <Reaction_type>
carbonyl_reduction_(both_sides_next_to_aromatic_carbon)

> <Parent_ID>
19

> <Parent_InChI>
InChI=1S/C25H29I2NO3/c1-4-7-11-22-23(18-10-8-9-12-21(18)31-22)24(29)17-15-19(26)25(20(27)16-17)30-14-13-28(5-2)6-3/h8-10,12,15-16H,4-7,11,13-14H2,1-3H3

> <Parent_SMILES>
CCCCc1oc2ccccc2c1C(=O)c1cc(I)c(OCCN(CC)CC)c(I)c1

$$$$
Molecule 19_metabolite 32
  CDK     0516241031

 61 63  0  0  0  0  0  0  0  0999 V2000
    9.7765   -1.1081    0.0000 C   0  0  0  0  0  0  0  0  0  0  0  0
   11.1379   -0.4783    0.0000 H   0  0  0  0  0  0  0  0  0  0  0  0
    8.7127   -2.1656    0.0000 H   0  0  0  0  0  0  0  0  0  0  0  0
   10.6332   -2.3394    0.0000 H   0  0  0  0  0  0  0  0  0  0  0  0
    8.5504   -0.2441    0.0000 C   0  0  0  0  0  0  0  0  0  0  0  0
    7.9124   -1.6016    0.0000 H   0  0  0  0  0  0  0  0  0  0  0  0
    7.1026    0.1485    0.0000 H   0  0  0  0  0  0  0  0  0  0  0  0
    8.6856    1.2498    0.0000 C   0  0  0  0  0  0  0  0  0  0  0  0
    9.3236    2.6074    0.0000 H   0  0  0  0  0  0  0  0  0  0  0  0
   10.1333    0.8572    0.0000 H   0  0  0  0  0  0  0  0  0  0  0  0
    7.0670    2.3903    0.0000 C   0  0  0  0  0  0  0  0  0  0  0  0
    6.4291    1.0328    0.0000 H   0  0  0  0  0  0  0  0  0  0  0  0
    5.6193    2.7829    0.0000 H   0  0  0  0  0  0  0  0  0  0  0  0
    7.2022    3.8842    0.0000 C   0  0  0  0  0  0  0  0  0  0  0  0
    6.0765    4.8697    0.0000 C   0  0  0  0  0  0  0  0  0  0  0  0
    6.6635    6.2524    0.0000 C   0  0  0  0  0  0  0  0  0  0  0  0
    8.1574    6.1172    0.0000 C   0  0  0  0  0  0  0  0  0  0  0  0
    9.0215    7.3443    0.0000 C   0  0  0  0  0  0  0  0  0  0  0  0
   10.5154    7.2091    0.0000 H   0  0  0  0  0  0  0  0  0  0  0  0
    8.3918    8.7066    0.0000 C   0  0  0  0  0  0  0  0  0  0  0  0
    9.2560    9.9327    0.0000 H   0  0  0  0  0  0  0  0  0  0  0  0
    6.8979    8.8418    0.0000 C   0  0  0  0  0  0  0  0  0  0  0  0
    6.2678   10.2031    0.0000 H   0  0  0  0  0  0  0  0  0  0  0  0
    6.0337    7.6147    0.0000 C   0  0  0  0  0  0  0  0  0  0  0  0
    4.5398    7.7499    0.0000 O   0  0  0  0  0  0  0  0  0  0  0  0
    3.9100    9.1113    0.0000 H   0  0  0  0  0  0  0  0  0  0  0  0
    8.4866    4.6516    0.0000 O   0  0  0  0  0  0  0  0  0  0  0  0
    4.1465    4.4277    0.0000 C   0  0  0  0  0  0  0  0  0  0  0  0
    3.7054    2.9940    0.0000 O   0  0  0  0  0  0  0  0  0  0  0  0
    3.1254    5.5265    0.0000 C   0  0  0  0  0  0  0  0  0  0  0  0
    3.5663    6.9521    0.0000 C   0  0  0  0  0  0  0  0  0  0  0  0
    5.0022    6.5181    0.0000 H   0  0  0  0  0  0  0  0  0  0  0  0
    2.5501    8.0211    0.0000 C   0  0  0  0  0  0  0  0  0  0  0  0
    1.1012    7.7177    0.0000 C   0  0  0  0  0  0  0  0  0  0  0  0
    0.6626    6.2825    0.0000 C   0  0  0  0  0  0  0  0  0  0  0  0
    1.6832    5.1940    0.0000 C   0  0  0  0  0  0  0  0  0  0  0  0
    1.2465    3.7590    0.0000 H   0  0  0  0  0  0  0  0  0  0  0  0
   -0.7985    5.9429    0.0000 I   0  0  0  0  0  0  0  0  0  0  0  0
    0.0895    8.8252    0.0000 O   0  0  0  0  0  0  0  0  0  0  0  0
   -1.3754    8.5027    0.0000 C   0  0  0  0  0  0  0  0  0  0  0  0
   -0.8035    7.1160    0.0000 H   0  0  0  0  0  0  0  0  0  0  0  0
   -2.6417    7.6986    0.0000 H   0  0  0  0  0  0  0  0  0  0  0  0
   -2.3871    9.6101    0.0000 C   0  0  0  0  0  0  0  0  0  0  0  0
   -3.7166   10.3047    0.0000 H   0  0  0  0  0  0  0  0  0  0  0  0
   -3.3021    8.4215    0.0000 H   0  0  0  0  0  0  0  0  0  0  0  0
   -1.7889   11.4976    0.0000 N   0  0  0  0  0  0  0  0  0  0  0  0
   -2.8006   12.6050    0.0000 C   0  0  0  0  0  0  0  0  0  0  0  0
   -4.1301   13.2996    0.0000 H   0  0  0  0  0  0  0  0  0  0  0  0
   -3.7156   11.4164    0.0000 H   0  0  0  0  0  0  0  0  0  0  0  0
   -2.3474   14.0349    0.0000 C   0  0  0  0  0  0  0  0  0  0  0  0
   -3.3592   15.1424    0.0000 H   0  0  0  0  0  0  0  0  0  0  0  0
   -1.0180   13.3403    0.0000 H   0  0  0  0  0  0  0  0  0  0  0  0
   -1.4325   15.2236    0.0000 H   0  0  0  0  0  0  0  0  0  0  0  0
   -0.3240   11.8201    0.0000 C   0  0  0  0  0  0  0  0  0  0  0  0
   -0.2608   10.3214    0.0000 H   0  0  0  0  0  0  0  0  0  0  0  0
    1.1629   11.6221    0.0000 H   0  0  0  0  0  0  0  0  0  0  0  0
    0.1292   13.2500    0.0000 C   0  0  0  0  0  0  0  0  0  0  0  0
   -0.8825   14.3574    0.0000 H   0  0  0  0  0  0  0  0  0  0  0  0
    1.4587   12.5554    0.0000 H   0  0  0  0  0  0  0  0  0  0  0  0
    1.0441   14.4386    0.0000 H   0  0  0  0  0  0  0  0  0  0  0  0
    2.9965    9.4531    0.0000 I   0  0  0  0  0  0  0  0  0  0  0  0
  1  2  1  0  0  0  0 
  1  3  1  0  0  0  0 
  1  4  1  0  0  0  0 
  1  5  1  0  0  0  0 
  5  6  1  0  0  0  0 
  5  7  1  0  0  0  0 
  5  8  1  0  0  0  0 
  8  9  1  0  0  0  0 
  8 10  1  0  0  0  0 
  8 11  1  0  0  0  0 
 11 12  1  0  0  0  0 
 11 13  1  0  0  0  0 
 11 14  1  0  0  0  0 
 14 15  2  0  0  0  0 
 15 16  1  0  0  0  0 
 16 17  2  0  0  0  0 
 17 18  1  0  0  0  0 
 18 19  1  0  0  0  0 
 18 20  2  0  0  0  0 
 20 21  1  0  0  0  0 
 20 22  1  0  0  0  0 
 22 23  1  0  0  0  0 
 22 24  2  0  0  0  0 
 16 24  1  0  0  0  0 
 24 25  1  0  0  0  0 
 25 26  1  0  0  0  0 
 17 27  1  0  0  0  0 
 14 27  1  0  0  0  0 
 15 28  1  0  0  0  0 
 28 29  2  0  0  0  0 
 28 30  1  0  0  0  0 
 30 31  2  0  0  0  0 
 31 32  1  0  0  0  0 
 31 33  1  0  0  0  0 
 33 34  2  0  0  0  0 
 34 35  1  0  0  0  0 
 35 36  2  0  0  0  0 
 30 36  1  0  0  0  0 
 36 37  1  0  0  0  0 
 35 38  1  0  0  0  0 
 34 39  1  0  0  0  0 
 39 40  1  0  0  0  0 
 40 41  1  0  0  0  0 
 40 42  1  0  0  0  0 
 40 43  1  0  0  0  0 
 43 44  1  0  0  0  0 
 43 45  1  0  0  0  0 
 43 46  1  0  0  0  0 
 46 47  1  0  0  0  0 
 47 48  1  0  0  0  0 
 47 49  1  0  0  0  0 
 47 50  1  0  0  0  0 
 50 51  1  0  0  0  0 
 50 52  1  0  0  0  0 
 50 53  1  0  0  0  0 
 46 54  1  0  0  0  0 
 54 55  1  0  0  0  0 
 54 56  1  0  0  0  0 
 54 57  1  0  0  0  0 
 57 58  1  0  0  0  0 
 57 59  1  0  0  0  0 
 57 60  1  0  0  0  0 
 33 61  1  0  0  0  0 
M  END
> <Rank>
32

> <Priority_score>
0.028

> <Reaction_type>
aromatic hydroxylation

> <Parent_ID>
19

> <Parent_InChI>
InChI=1S/C25H29I2NO3/c1-4-7-11-22-23(18-10-8-9-12-21(18)31-22)24(29)17-15-19(26)25(20(27)16-17)30-14-13-28(5-2)6-3/h8-10,12,15-16H,4-7,11,13-14H2,1-3H3

> <Parent_SMILES>
CCCCc1oc2ccccc2c1C(=O)c1cc(I)c(OCCN(CC)CC)c(I)c1

$$$$
Molecule 19_metabolite 33
  CDK     0516241031

 58 60  0  0  0  0  0  0  0  0999 V2000
   10.3199   -0.6173    0.0000 C   0  0  0  0  0  0  0  0  0  0  0  0
   10.1847   -2.1112    0.0000 H   0  0  0  0  0  0  0  0  0  0  0  0
   10.9579    0.7402    0.0000 H   0  0  0  0  0  0  0  0  0  0  0  0
   11.7676   -1.0099    0.0000 H   0  0  0  0  0  0  0  0  0  0  0  0
    9.0938    0.2467    0.0000 C   0  0  0  0  0  0  0  0  0  0  0  0
    8.4558   -1.1108    0.0000 H   0  0  0  0  0  0  0  0  0  0  0  0
    7.6460    0.6393    0.0000 H   0  0  0  0  0  0  0  0  0  0  0  0
    9.2290    1.7406    0.0000 C   0  0  0  0  0  0  0  0  0  0  0  0
   10.5903    2.3705    0.0000 H   0  0  0  0  0  0  0  0  0  0  0  0
    8.0028    2.6046    0.0000 C   0  0  0  0  0  0  0  0  0  0  0  0
    6.6415    1.9748    0.0000 H   0  0  0  0  0  0  0  0  0  0  0  0
    8.1380    4.0985    0.0000 C   0  0  0  0  0  0  0  0  0  0  0  0
    7.0123    5.0840    0.0000 C   0  0  0  0  0  0  0  0  0  0  0  0
    7.5993    6.4667    0.0000 C   0  0  0  0  0  0  0  0  0  0  0  0
    9.0932    6.3315    0.0000 C   0  0  0  0  0  0  0  0  0  0  0  0
    9.9573    7.5586    0.0000 C   0  0  0  0  0  0  0  0  0  0  0  0
   11.4512    7.4234    0.0000 H   0  0  0  0  0  0  0  0  0  0  0  0
    9.3275    8.9209    0.0000 C   0  0  0  0  0  0  0  0  0  0  0  0
   10.1918   10.1470    0.0000 H   0  0  0  0  0  0  0  0  0  0  0  0
    7.8336    9.0562    0.0000 C   0  0  0  0  0  0  0  0  0  0  0  0
    7.2036   10.4174    0.0000 H   0  0  0  0  0  0  0  0  0  0  0  0
    6.9695    7.8290    0.0000 C   0  0  0  0  0  0  0  0  0  0  0  0
    5.4756    7.9642    0.0000 H   0  0  0  0  0  0  0  0  0  0  0  0
    9.4224    4.8659    0.0000 O   0  0  0  0  0  0  0  0  0  0  0  0
    4.1465    4.4277    0.0000 C   0  0  0  0  0  0  0  0  0  0  0  0
    3.7054    2.9940    0.0000 O   0  0  0  0  0  0  0  0  0  0  0  0
    3.1254    5.5265    0.0000 C   0  0  0  0  0  0  0  0  0  0  0  0
    3.5663    6.9521    0.0000 C   0  0  0  0  0  0  0  0  0  0  0  0
    5.0268    7.2941    0.0000 H   0  0  0  0  0  0  0  0  0  0  0  0
    2.5501    8.0211    0.0000 C   0  0  0  0  0  0  0  0  0  0  0  0
    1.1012    7.7177    0.0000 C   0  0  0  0  0  0  0  0  0  0  0  0
    0.6626    6.2825    0.0000 C   0  0  0  0  0  0  0  0  0  0  0  0
    1.6832    5.1940    0.0000 C   0  0  0  0  0  0  0  0  0  0  0  0
    1.2465    3.7590    0.0000 H   0  0  0  0  0  0  0  0  0  0  0  0
   -0.7985    5.9429    0.0000 I   0  0  0  0  0  0  0  0  0  0  0  0
    0.0895    8.8252    0.0000 O   0  0  0  0  0  0  0  0  0  0  0  0
   -1.3754    8.5027    0.0000 C   0  0  0  0  0  0  0  0  0  0  0  0
   -0.8035    7.1160    0.0000 H   0  0  0  0  0  0  0  0  0  0  0  0
   -2.6417    7.6986    0.0000 H   0  0  0  0  0  0  0  0  0  0  0  0
   -2.3871    9.6101    0.0000 C   0  0  0  0  0  0  0  0  0  0  0  0
   -3.7166   10.3047    0.0000 H   0  0  0  0  0  0  0  0  0  0  0  0
   -3.3021    8.4215    0.0000 H   0  0  0  0  0  0  0  0  0  0  0  0
   -1.7889   11.4976    0.0000 N   0  0  0  0  0  0  0  0  0  0  0  0
   -2.8006   12.6050    0.0000 C   0  0  0  0  0  0  0  0  0  0  0  0
   -4.1301   13.2996    0.0000 H   0  0  0  0  0  0  0  0  0  0  0  0
   -3.7156   11.4164    0.0000 H   0  0  0  0  0  0  0  0  0  0  0  0
   -2.3474   14.0349    0.0000 C   0  0  0  0  0  0  0  0  0  0  0  0
   -3.3592   15.1424    0.0000 H   0  0  0  0  0  0  0  0  0  0  0  0
   -1.0180   13.3403    0.0000 H   0  0  0  0  0  0  0  0  0  0  0  0
   -1.4325   15.2236    0.0000 H   0  0  0  0  0  0  0  0  0  0  0  0
   -0.3240   11.8201    0.0000 C   0  0  0  0  0  0  0  0  0  0  0  0
   -0.2608   10.3214    0.0000 H   0  0  0  0  0  0  0  0  0  0  0  0
    1.1629   11.6221    0.0000 H   0  0  0  0  0  0  0  0  0  0  0  0
    0.1292   13.2500    0.0000 C   0  0  0  0  0  0  0  0  0  0  0  0
   -0.8825   14.3574    0.0000 H   0  0  0  0  0  0  0  0  0  0  0  0
    1.4587   12.5554    0.0000 H   0  0  0  0  0  0  0  0  0  0  0  0
    1.0441   14.4386    0.0000 H   0  0  0  0  0  0  0  0  0  0  0  0
    2.9965    9.4531    0.0000 I   0  0  0  0  0  0  0  0  0  0  0  0
  1  2  1  0  0  0  0 
  1  3  1  0  0  0  0 
  1  4  1  0  0  0  0 
  1  5  1  0  0  0  0 
  5  6  1  0  0  0  0 
  5  7  1  0  0  0  0 
  5  8  1  0  0  0  0 
  8  9  1  4  0  0  0 
  8 10  2  0  0  0  0 
 10 11  1  0  0  0  0 
 10 12  1  0  0  0  0 
 12 13  2  0  0  0  0 
 13 14  1  0  0  0  0 
 14 15  2  0  0  0  0 
 15 16  1  0  0  0  0 
 16 17  1  0  0  0  0 
 16 18  2  0  0  0  0 
 18 19  1  0  0  0  0 
 18 20  1  0  0  0  0 
 20 21  1  0  0  0  0 
 20 22  2  0  0  0  0 
 14 22  1  0  0  0  0 
 22 23  1  0  0  0  0 
 15 24  1  0  0  0  0 
 12 24  1  0  0  0  0 
 13 25  1  0  0  0  0 
 25 26  2  0  0  0  0 
 25 27  1  0  0  0  0 
 27 28  2  0  0  0  0 
 28 29  1  0  0  0  0 
 28 30  1  0  0  0  0 
 30 31  2  0  0  0  0 
 31 32  1  0  0  0  0 
 32 33  2  0  0  0  0 
 27 33  1  0  0  0  0 
 33 34  1  0  0  0  0 
 32 35  1  0  0  0  0 
 31 36  1  0  0  0  0 
 36 37  1  0  0  0  0 
 37 38  1  0  0  0  0 
 37 39  1  0  0  0  0 
 37 40  1  0  0  0  0 
 40 41  1  0  0  0  0 
 40 42  1  0  0  0  0 
 40 43  1  0  0  0  0 
 43 44  1  0  0  0  0 
 44 45  1  0  0  0  0 
 44 46  1  0  0  0  0 
 44 47  1  0  0  0  0 
 47 48  1  0  0  0  0 
 47 49  1  0  0  0  0 
 47 50  1  0  0  0  0 
 43 51  1  0  0  0  0 
 51 52  1  0  0  0  0 
 51 53  1  0  0  0  0 
 51 54  1  0  0  0  0 
 54 55  1  0  0  0  0 
 54 56  1  0  0  0  0 
 54 57  1  0  0  0  0 
 30 58  1  0  0  0  0 
M  END
> <Rank>
33

> <Priority_score>
0.022400000000000003

> <Reaction_type>
alkyl dehydrogenation

> <Parent_ID>
19

> <Parent_InChI>
InChI=1S/C25H29I2NO3/c1-4-7-11-22-23(18-10-8-9-12-21(18)31-22)24(29)17-15-19(26)25(20(27)16-17)30-14-13-28(5-2)6-3/h8-10,12,15-16H,4-7,11,13-14H2,1-3H3

> <Parent_SMILES>
CCCCc1oc2ccccc2c1C(=O)c1cc(I)c(OCCN(CC)CC)c(I)c1

$$$$
Molecule 19_metabolite 34
  CDK     0516241031

 60 62  0  0  0  0  0  0  0  0999 V2000
   10.5952   -1.0578    0.0000 C   0  0  0  0  0  0  0  0  0  0  0  0
   11.9670   -0.4511    0.0000 H   0  0  0  0  0  0  0  0  0  0  0  0
    9.5136   -2.0972    0.0000 H   0  0  0  0  0  0  0  0  0  0  0  0
   11.4309   -2.3034    0.0000 H   0  0  0  0  0  0  0  0  0  0  0  0
    9.3838   -0.1732    0.0000 C   0  0  0  0  0  0  0  0  0  0  0  0
    8.7229   -1.5197    0.0000 H   0  0  0  0  0  0  0  0  0  0  0  0
    7.9429    0.2438    0.0000 H   0  0  0  0  0  0  0  0  0  0  0  0
    9.5443    1.3182    0.0000 C   0  0  0  0  0  0  0  0  0  0  0  0
   10.2051    2.6648    0.0000 H   0  0  0  0  0  0  0  0  0  0  0  0
   10.9851    0.9012    0.0000 H   0  0  0  0  0  0  0  0  0  0  0  0
    7.9453    2.4860    0.0000 C   0  0  0  0  0  0  0  0  0  0  0  0
    7.2844    1.1394    0.0000 H   0  0  0  0  0  0  0  0  0  0  0  0
    6.5044    2.9030    0.0000 H   0  0  0  0  0  0  0  0  0  0  0  0
    8.1057    3.9774    0.0000 C   0  0  0  0  0  0  0  0  0  0  0  0
    6.9968    4.9817    0.0000 C   0  0  0  0  0  0  0  0  0  0  0  0
    7.6071    6.3543    0.0000 C   0  0  0  0  0  0  0  0  0  0  0  0
    9.0985    6.1939    0.0000 C   0  0  0  0  0  0  0  0  0  0  0  0
    9.9833    7.4062    0.0000 C   0  0  0  0  0  0  0  0  0  0  0  0
   11.4747    7.2457    0.0000 H   0  0  0  0  0  0  0  0  0  0  0  0
    9.3767    8.7790    0.0000 C   0  0  0  0  0  0  0  0  0  0  0  0
   10.2615    9.9902    0.0000 H   0  0  0  0  0  0  0  0  0  0  0  0
    7.8853    8.9394    0.0000 C   0  0  0  0  0  0  0  0  0  0  0  0
    7.2783   10.3111    0.0000 H   0  0  0  0  0  0  0  0  0  0  0  0
    7.0005    7.7271    0.0000 C   0  0  0  0  0  0  0  0  0  0  0  0
    5.5091    7.8876    0.0000 H   0  0  0  0  0  0  0  0  0  0  0  0
    9.4029    4.7229    0.0000 O   0  0  0  0  0  0  0  0  0  0  0  0
    4.1203    4.3740    0.0000 C   0  0  0  0  0  0  0  0  0  0  0  0
    3.6550    2.9480    0.0000 O   0  0  0  0  0  0  0  0  0  0  0  0
    3.1180    5.4900    0.0000 C   0  0  0  0  0  0  0  0  0  0  0  0
    3.5830    6.9161    0.0000 C   0  0  0  0  0  0  0  0  0  0  0  0
    5.0505    7.2266    0.0000 H   0  0  0  0  0  0  0  0  0  0  0  0
    2.5796    8.0321    0.0000 C   0  0  0  0  0  0  0  0  0  0  0  0
    3.0447    9.4582    0.0000 H   0  0  0  0  0  0  0  0  0  0  0  0
    1.1111    7.7221    0.0000 C   0  0  0  0  0  0  0  0  0  0  0  0
    0.6461    6.2961    0.0000 C   0  0  0  0  0  0  0  0  0  0  0  0
    1.6495    5.1800    0.0000 C   0  0  0  0  0  0  0  0  0  0  0  0
    1.1845    3.7539    0.0000 H   0  0  0  0  0  0  0  0  0  0  0  0
   -0.8214    5.9855    0.0000 I   0  0  0  0  0  0  0  0  0  0  0  0
    0.1088    8.8381    0.0000 O   0  0  0  0  0  0  0  0  0  0  0  0
   -1.3588    8.5280    0.0000 C   0  0  0  0  0  0  0  0  0  0  0  0
   -0.7986    7.1366    0.0000 H   0  0  0  0  0  0  0  0  0  0  0  0
   -2.6318    7.7347    0.0000 H   0  0  0  0  0  0  0  0  0  0  0  0
   -2.3611    9.6440    0.0000 C   0  0  0  0  0  0  0  0  0  0  0  0
   -3.6847   10.3498    0.0000 H   0  0  0  0  0  0  0  0  0  0  0  0
   -3.2861    8.4631    0.0000 H   0  0  0  0  0  0  0  0  0  0  0  0
   -1.7469   11.5263    0.0000 N   0  0  0  0  0  0  0  0  0  0  0  0
   -2.7493   12.6423    0.0000 C   0  0  0  0  0  0  0  0  0  0  0  0
   -4.0728   13.3481    0.0000 H   0  0  0  0  0  0  0  0  0  0  0  0
   -3.6742   11.4614    0.0000 H   0  0  0  0  0  0  0  0  0  0  0  0
   -2.2840   14.0683    0.0000 C   0  0  0  0  0  0  0  0  0  0  0  0
   -3.2863   15.1842    0.0000 H   0  0  0  0  0  0  0  0  0  0  0  0
   -0.9604   13.3624    0.0000 H   0  0  0  0  0  0  0  0  0  0  0  0
   -1.3591   15.2492    0.0000 H   0  0  0  0  0  0  0  0  0  0  0  0
   -0.2793   11.8364    0.0000 C   0  0  0  0  0  0  0  0  0  0  0  0
   -0.2288   10.3372    0.0000 H   0  0  0  0  0  0  0  0  0  0  0  0
    1.2058   11.6258    0.0000 H   0  0  0  0  0  0  0  0  0  0  0  0
    0.1859   13.2624    0.0000 C   0  0  0  0  0  0  0  0  0  0  0  0
   -0.8164   14.3783    0.0000 H   0  0  0  0  0  0  0  0  0  0  0  0
    1.5095   12.5566    0.0000 H   0  0  0  0  0  0  0  0  0  0  0  0
    1.1109   14.4433    0.0000 H   0  0  0  0  0  0  0  0  0  0  0  0
  1  2  1  0  0  0  0 
  1  3  1  0  0  0  0 
  1  4  1  0  0  0  0 
  1  5  1  0  0  0  0 
  5  6  1  0  0  0  0 
  5  7  1  0  0  0  0 
  5  8  1  0  0  0  0 
  8  9  1  0  0  0  0 
  8 10  1  0  0  0  0 
  8 11  1  0  0  0  0 
 11 12  1  0  0  0  0 
 11 13  1  0  0  0  0 
 11 14  1  0  0  0  0 
 14 15  2  0  0  0  0 
 15 16  1  0  0  0  0 
 16 17  2  0  0  0  0 
 17 18  1  0  0  0  0 
 18 19  1  0  0  0  0 
 18 20  2  0  0  0  0 
 20 21  1  0  0  0  0 
 20 22  1  0  0  0  0 
 22 23  1  0  0  0  0 
 22 24  2  0  0  0  0 
 16 24  1  0  0  0  0 
 24 25  1  0  0  0  0 
 17 26  1  0  0  0  0 
 14 26  1  0  0  0  0 
 15 27  1  0  0  0  0 
 27 28  2  0  0  0  0 
 27 29  1  0  0  0  0 
 29 30  2  0  0  0  0 
 30 31  1  0  0  0  0 
 30 32  1  0  0  0  0 
 32 33  1  0  0  0  0 
 32 34  2  0  0  0  0 
 34 35  1  0  0  0  0 
 35 36  2  0  0  0  0 
 29 36  1  0  0  0  0 
 36 37  1  0  0  0  0 
 35 38  1  0  0  0  0 
 34 39  1  0  0  0  0 
 39 40  1  0  0  0  0 
 40 41  1  0  0  0  0 
 40 42  1  0  0  0  0 
 40 43  1  0  0  0  0 
 43 44  1  0  0  0  0 
 43 45  1  0  0  0  0 
 43 46  1  0  0  0  0 
 46 47  1  0  0  0  0 
 47 48  1  0  0  0  0 
 47 49  1  0  0  0  0 
 47 50  1  0  0  0  0 
 50 51  1  0  0  0  0 
 50 52  1  0  0  0  0 
 50 53  1  0  0  0  0 
 46 54  1  0  0  0  0 
 54 55  1  0  0  0  0 
 54 56  1  0  0  0  0 
 54 57  1  0  0  0  0 
 57 58  1  0  0  0  0 
 57 59  1  0  0  0  0 
 57 60  1  0  0  0  0 
M  END
> <Rank>
34

> <Priority_score>
0.02

> <Reaction_type>
deiodonidation

> <Parent_ID>
19

> <Parent_InChI>
InChI=1S/C25H29I2NO3/c1-4-7-11-22-23(18-10-8-9-12-21(18)31-22)24(29)17-15-19(26)25(20(27)16-17)30-14-13-28(5-2)6-3/h8-10,12,15-16H,4-7,11,13-14H2,1-3H3

> <Parent_SMILES>
CCCCc1oc2ccccc2c1C(=O)c1cc(I)c(OCCN(CC)CC)c(I)c1

$$$$
Molecule 19_metabolite 35
  CDK     0516241031

 95 97  0  0  0  0  0  0  0  0999 V2000
    8.8320   -3.6093    0.0000 C   0  0  0  0  0  0  0  0  0  0  0  0
   10.2038   -3.0025    0.0000 H   0  0  0  0  0  0  0  0  0  0  0  0
    7.7504   -4.6486    0.0000 H   0  0  0  0  0  0  0  0  0  0  0  0
    9.6677   -4.8549    0.0000 H   0  0  0  0  0  0  0  0  0  0  0  0
    7.6206   -2.7246    0.0000 C   0  0  0  0  0  0  0  0  0  0  0  0
    6.9598   -4.0712    0.0000 H   0  0  0  0  0  0  0  0  0  0  0  0
    6.1798   -2.3076    0.0000 H   0  0  0  0  0  0  0  0  0  0  0  0
    7.7811   -1.2332    0.0000 C   0  0  0  0  0  0  0  0  0  0  0  0
    8.4420    0.1134    0.0000 H   0  0  0  0  0  0  0  0  0  0  0  0
    9.2220   -1.6502    0.0000 H   0  0  0  0  0  0  0  0  0  0  0  0
    6.1821   -0.0655    0.0000 C   0  0  0  0  0  0  0  0  0  0  0  0
    5.5212   -1.4120    0.0000 H   0  0  0  0  0  0  0  0  0  0  0  0
    4.7412    0.3515    0.0000 H   0  0  0  0  0  0  0  0  0  0  0  0
    6.3426    1.4259    0.0000 C   0  0  0  0  0  0  0  0  0  0  0  0
    5.2336    2.4303    0.0000 C   0  0  0  0  0  0  0  0  0  0  0  0
    5.8440    3.8029    0.0000 C   0  0  0  0  0  0  0  0  0  0  0  0
    7.3354    3.6424    0.0000 C   0  0  0  0  0  0  0  0  0  0  0  0
    8.2201    4.8548    0.0000 C   0  0  0  0  0  0  0  0  0  0  0  0
    9.7115    4.6943    0.0000 H   0  0  0  0  0  0  0  0  0  0  0  0
    7.6135    6.2275    0.0000 C   0  0  0  0  0  0  0  0  0  0  0  0
    8.4983    7.4387    0.0000 H   0  0  0  0  0  0  0  0  0  0  0  0
    6.1221    6.3880    0.0000 C   0  0  0  0  0  0  0  0  0  0  0  0
    5.5151    7.7597    0.0000 H   0  0  0  0  0  0  0  0  0  0  0  0
    5.2373    5.1757    0.0000 C   0  0  0  0  0  0  0  0  0  0  0  0
    3.7459    5.3361    0.0000 H   0  0  0  0  0  0  0  0  0  0  0  0
    7.6398    2.1714    0.0000 O   0  0  0  0  0  0  0  0  0  0  0  0
    2.3571    1.8226    0.0000 C   0  0  0  0  0  0  0  0  0  0  0  0
    1.8919    0.3966    0.0000 O   0  0  0  0  0  0  0  0  0  0  0  0
    1.3548    2.9385    0.0000 C   0  0  0  0  0  0  0  0  0  0  0  0
   -0.1137    2.6285    0.0000 C   0  0  0  0  0  0  0  0  0  0  0  0
   -0.5787    1.2024    0.0000 H   0  0  0  0  0  0  0  0  0  0  0  0
   -1.1171    3.7446    0.0000 C   0  0  0  0  0  0  0  0  0  0  0  0
   -0.6520    5.1707    0.0000 C   0  0  0  0  0  0  0  0  0  0  0  0
    0.8164    5.4807    0.0000 C   0  0  0  0  0  0  0  0  0  0  0  0
    1.8199    4.3646    0.0000 C   0  0  0  0  0  0  0  0  0  0  0  0
    3.2874    4.6752    0.0000 H   0  0  0  0  0  0  0  0  0  0  0  0
    1.2815    6.9068    0.0000 I   0  0  0  0  0  0  0  0  0  0  0  0
   -1.6544    6.2867    0.0000 O   0  0  0  0  0  0  0  0  0  0  0  0
   -1.1891    7.7127    0.0000 C   0  0  0  0  0  0  0  0  0  0  0  0
    0.1345    7.0068    0.0000 H   0  0  0  0  0  0  0  0  0  0  0  0
   -0.2641    8.8936    0.0000 H   0  0  0  0  0  0  0  0  0  0  0  0
   -2.1914    8.8286    0.0000 C   0  0  0  0  0  0  0  0  0  0  0  0
   -3.5150    9.5345    0.0000 H   0  0  0  0  0  0  0  0  0  0  0  0
   -3.1163    7.6477    0.0000 H   0  0  0  0  0  0  0  0  0  0  0  0
   -1.5772   10.7110    0.0000 N   0  0  0  0  0  0  0  0  0  0  0  0
   -3.2211   12.5411    0.0000 C   0  0  0  0  0  0  0  0  0  0  0  0
   -4.5446   13.2470    0.0000 H   0  0  0  0  0  0  0  0  0  0  0  0
   -4.1460   11.3602    0.0000 H   0  0  0  0  0  0  0  0  0  0  0  0
   -2.7558   13.9671    0.0000 C   0  0  0  0  0  0  0  0  0  0  0  0
   -3.7581   15.0831    0.0000 H   0  0  0  0  0  0  0  0  0  0  0  0
   -1.4322   13.2613    0.0000 H   0  0  0  0  0  0  0  0  0  0  0  0
   -1.8308   15.1480    0.0000 H   0  0  0  0  0  0  0  0  0  0  0  0
    0.3600   11.1202    0.0000 C   0  0  0  0  0  0  0  0  0  0  0  0
    0.4105    9.6211    0.0000 H   0  0  0  0  0  0  0  0  0  0  0  0
    1.8451   10.9097    0.0000 H   0  0  0  0  0  0  0  0  0  0  0  0
    0.8253   12.5463    0.0000 C   0  0  0  0  0  0  0  0  0  0  0  0
   -0.1771   13.6622    0.0000 H   0  0  0  0  0  0  0  0  0  0  0  0
    2.1488   11.8404    0.0000 H   0  0  0  0  0  0  0  0  0  0  0  0
    1.7502   13.7271    0.0000 H   0  0  0  0  0  0  0  0  0  0  0  0
   -2.5846    3.4341    0.0000 S   0  0  0  0  0  0  0  0  0  0  0  0
   -3.5873    4.5497    0.0000 C   0  0  0  0  0  0  0  0  0  0  0  0
   -2.3145    5.3434    0.0000 H   0  0  0  0  0  0  0  0  0  0  0  0
   -4.1479    5.9410    0.0000 H   0  0  0  0  0  0  0  0  0  0  0  0
   -5.0548    4.2392    0.0000 C   0  0  0  0  0  0  0  0  0  0  0  0
   -6.3276    3.4455    0.0000 H   0  0  0  0  0  0  0  0  0  0  0  0
   -4.4941    2.8479    0.0000 C   0  0  0  0  0  0  0  0  0  0  0  0
   -3.0089    2.6378    0.0000 O   0  0  0  0  0  0  0  0  0  0  0  0
   -5.4187    1.6667    0.0000 N   0  0  0  0  0  0  0  0  0  0  0  0
   -6.9039    1.8768    0.0000 H   0  0  0  0  0  0  0  0  0  0  0  0
   -4.8580    0.2754    0.0000 C   0  0  0  0  0  0  0  0  0  0  0  0
   -3.5852    1.0692    0.0000 H   0  0  0  0  0  0  0  0  0  0  0  0
   -3.8554   -0.8402    0.0000 H   0  0  0  0  0  0  0  0  0  0  0  0
   -5.7826   -0.9057    0.0000 C   0  0  0  0  0  0  0  0  0  0  0  0
   -7.2678   -0.6956    0.0000 O   0  0  0  0  0  0  0  0  0  0  0  0
   -5.2220   -2.2970    0.0000 O   0  0  0  0  0  0  0  0  0  0  0  0
   -6.1465   -3.4782    0.0000 H   0  0  0  0  0  0  0  0  0  0  0  0
   -6.0575    5.3548    0.0000 N   0  0  0  0  0  0  0  0  0  0  0  0
   -5.5926    6.7810    0.0000 H   0  0  0  0  0  0  0  0  0  0  0  0
   -7.5250    5.0443    0.0000 C   0  0  0  0  0  0  0  0  0  0  0  0
   -7.9898    3.6181    0.0000 O   0  0  0  0  0  0  0  0  0  0  0  0
   -8.5276    6.1599    0.0000 C   0  0  0  0  0  0  0  0  0  0  0  0
   -7.2548    6.9536    0.0000 H   0  0  0  0  0  0  0  0  0  0  0  0
   -9.0883    7.5512    0.0000 H   0  0  0  0  0  0  0  0  0  0  0  0
  -10.4647    5.7500    0.0000 C   0  0  0  0  0  0  0  0  0  0  0  0
  -11.7375    4.9563    0.0000 H   0  0  0  0  0  0  0  0  0  0  0  0
   -9.9041    4.3587    0.0000 H   0  0  0  0  0  0  0  0  0  0  0  0
  -11.4674    6.8656    0.0000 C   0  0  0  0  0  0  0  0  0  0  0  0
  -10.1946    7.6593    0.0000 H   0  0  0  0  0  0  0  0  0  0  0  0
  -12.9349    6.5551    0.0000 C   0  0  0  0  0  0  0  0  0  0  0  0
  -13.3998    5.1289    0.0000 O   0  0  0  0  0  0  0  0  0  0  0  0
  -13.9376    7.6707    0.0000 O   0  0  0  0  0  0  0  0  0  0  0  0
  -15.4051    7.3602    0.0000 H   0  0  0  0  0  0  0  0  0  0  0  0
  -12.0281    8.2569    0.0000 N   0  0  0  0  0  0  0  0  0  0  0  0
  -13.5133    8.4670    0.0000 H   0  0  0  0  0  0  0  0  0  0  0  0
  -11.1035    9.4381    0.0000 H   0  0  0  0  0  0  0  0  0  0  0  0
  1  2  1  0  0  0  0 
  1  3  1  0  0  0  0 
  1  4  1  0  0  0  0 
  1  5  1  0  0  0  0 
  5  6  1  0  0  0  0 
  5  7  1  0  0  0  0 
  5  8  1  0  0  0  0 
  8  9  1  0  0  0  0 
  8 10  1  0  0  0  0 
  8 11  1  0  0  0  0 
 11 12  1  0  0  0  0 
 11 13  1  0  0  0  0 
 11 14  1  0  0  0  0 
 14 15  2  0  0  0  0 
 15 16  1  0  0  0  0 
 16 17  2  0  0  0  0 
 17 18  1  0  0  0  0 
 18 19  1  0  0  0  0 
 18 20  2  0  0  0  0 
 20 21  1  0  0  0  0 
 20 22  1  0  0  0  0 
 22 23  1  0  0  0  0 
 22 24  2  0  0  0  0 
 16 24  1  0  0  0  0 
 24 25  1  0  0  0  0 
 17 26  1  0  0  0  0 
 14 26  1  0  0  0  0 
 15 27  1  0  0  0  0 
 27 28  2  0  0  0  0 
 27 29  1  0  0  0  0 
 29 30  2  0  0  0  0 
 30 31  1  0  0  0  0 
 30 32  1  0  0  0  0 
 32 33  2  0  0  0  0 
 33 34  1  0  0  0  0 
 34 35  2  0  0  0  0 
 29 35  1  0  0  0  0 
 35 36  1  0  0  0  0 
 34 37  1  0  0  0  0 
 33 38  1  0  0  0  0 
 38 39  1  0  0  0  0 
 39 40  1  0  0  0  0 
 39 41  1  0  0  0  0 
 39 42  1  0  0  0  0 
 42 43  1  0  0  0  0 
 42 44  1  0  0  0  0 
 42 45  1  0  0  0  0 
 45 46  1  0  0  0  0 
 46 47  1  0  0  0  0 
 46 48  1  0  0  0  0 
 46 49  1  0  0  0  0 
 49 50  1  0  0  0  0 
 49 51  1  0  0  0  0 
 49 52  1  0  0  0  0 
 45 53  1  0  0  0  0 
 53 54  1  0  0  0  0 
 53 55  1  0  0  0  0 
 53 56  1  0  0  0  0 
 56 57  1  0  0  0  0 
 56 58  1  0  0  0  0 
 56 59  1  0  0  0  0 
 32 60  1  0  0  0  0 
 60 61  1  0  0  0  0 
 61 62  1  0  0  0  0 
 61 63  1  0  0  0  0 
 61 64  1  0  0  0  0 
 64 65  1  0  0  0  0 
 64 66  1  0  0  0  0 
 66 67  2  0  0  0  0 
 66 68  1  0  0  0  0 
 68 69  1  0  0  0  0 
 68 70  1  0  0  0  0 
 70 71  1  0  0  0  0 
 70 72  1  0  0  0  0 
 70 73  1  0  0  0  0 
 73 74  2  0  0  0  0 
 73 75  1  0  0  0  0 
 75 76  1  0  0  0  0 
 64 77  1  0  0  0  0 
 77 78  1  0  0  0  0 
 77 79  1  0  0  0  0 
 79 80  2  0  0  0  0 
 79 81  1  0  0  0  0 
 81 82  1  0  0  0  0 
 81 83  1  0  0  0  0 
 81 84  1  0  0  0  0 
 84 85  1  0  0  0  0 
 84 86  1  0  0  0  0 
 84 87  1  0  0  0  0 
 87 88  1  0  0  0  0 
 87 89  1  0  0  0  0 
 89 90  2  0  0  0  0 
 89 91  1  0  0  0  0 
 91 92  1  0  0  0  0 
 87 93  1  0  0  0  0 
 93 94  1  0  0  0  0 
 93 95  1  0  0  0  0 
M  END
> <Rank>
35

> <Priority_score>
0.012

> <Reaction_type>
glutathione_conjugation_(aromatic_nucleophilic_substitution)

> <Parent_ID>
19

> <Parent_InChI>
InChI=1S/C25H29I2NO3/c1-4-7-11-22-23(18-10-8-9-12-21(18)31-22)24(29)17-15-19(26)25(20(27)16-17)30-14-13-28(5-2)6-3/h8-10,12,15-16H,4-7,11,13-14H2,1-3H3

> <Parent_SMILES>
CCCCc1oc2ccccc2c1C(=O)c1cc(I)c(OCCN(CC)CC)c(I)c1

$$$$
Molecule 19_metabolite 36
  CDK     0516241031

 61 63  0  0  0  0  0  0  0  0999 V2000
   10.5909   -1.0617    0.0000 C   0  0  0  0  0  0  0  0  0  0  0  0
   11.9627   -0.4549    0.0000 H   0  0  0  0  0  0  0  0  0  0  0  0
    9.5093   -2.1010    0.0000 H   0  0  0  0  0  0  0  0  0  0  0  0
   11.4266   -2.3073    0.0000 H   0  0  0  0  0  0  0  0  0  0  0  0
    9.3795   -0.1770    0.0000 C   0  0  0  0  0  0  0  0  0  0  0  0
    8.7186   -1.5236    0.0000 H   0  0  0  0  0  0  0  0  0  0  0  0
    7.9386    0.2400    0.0000 H   0  0  0  0  0  0  0  0  0  0  0  0
    9.5400    1.3144    0.0000 C   0  0  0  0  0  0  0  0  0  0  0  0
   10.2008    2.6609    0.0000 H   0  0  0  0  0  0  0  0  0  0  0  0
   10.9808    0.8974    0.0000 H   0  0  0  0  0  0  0  0  0  0  0  0
    7.9410    2.4821    0.0000 C   0  0  0  0  0  0  0  0  0  0  0  0
    7.2801    1.1355    0.0000 H   0  0  0  0  0  0  0  0  0  0  0  0
    6.5001    2.8991    0.0000 H   0  0  0  0  0  0  0  0  0  0  0  0
    8.1014    3.9735    0.0000 C   0  0  0  0  0  0  0  0  0  0  0  0
    6.9925    4.9779    0.0000 C   0  0  0  0  0  0  0  0  0  0  0  0
    7.6028    6.3505    0.0000 C   0  0  0  0  0  0  0  0  0  0  0  0
    9.0942    6.1900    0.0000 C   0  0  0  0  0  0  0  0  0  0  0  0
    9.9790    7.4023    0.0000 C   0  0  0  0  0  0  0  0  0  0  0  0
   11.4704    7.2419    0.0000 H   0  0  0  0  0  0  0  0  0  0  0  0
    9.3724    8.7751    0.0000 C   0  0  0  0  0  0  0  0  0  0  0  0
   10.2572    9.9863    0.0000 H   0  0  0  0  0  0  0  0  0  0  0  0
    7.8810    8.9356    0.0000 C   0  0  0  0  0  0  0  0  0  0  0  0
    7.2740   10.3073    0.0000 H   0  0  0  0  0  0  0  0  0  0  0  0
    6.9962    7.7232    0.0000 C   0  0  0  0  0  0  0  0  0  0  0  0
    5.5048    7.8837    0.0000 H   0  0  0  0  0  0  0  0  0  0  0  0
    9.3986    4.7190    0.0000 O   0  0  0  0  0  0  0  0  0  0  0  0
    4.1160    4.3702    0.0000 C   0  0  0  0  0  0  0  0  0  0  0  0
    3.6507    2.9442    0.0000 O   0  0  0  0  0  0  0  0  0  0  0  0
    3.1137    5.4861    0.0000 C   0  0  0  0  0  0  0  0  0  0  0  0
    3.5790    6.9130    0.0000 C   0  0  0  0  0  0  0  0  0  0  0  0
    5.0466    7.2228    0.0000 H   0  0  0  0  0  0  0  0  0  0  0  0
    2.5766    8.0300    0.0000 C   0  0  0  0  0  0  0  0  0  0  0  0
    1.1090    7.7202    0.0000 C   0  0  0  0  0  0  0  0  0  0  0  0
    0.6437    6.2933    0.0000 C   0  0  0  0  0  0  0  0  0  0  0  0
    1.6460    5.1763    0.0000 C   0  0  0  0  0  0  0  0  0  0  0  0
    1.1803    3.7504    0.0000 H   0  0  0  0  0  0  0  0  0  0  0  0
   -0.8240    5.9835    0.0000 I   0  0  0  0  0  0  0  0  0  0  0  0
    0.1067    8.8362    0.0000 O   0  0  0  0  0  0  0  0  0  0  0  0
   -1.3609    8.5261    0.0000 C   0  0  0  0  0  0  0  0  0  0  0  0
   -0.8007    7.1346    0.0000 H   0  0  0  0  0  0  0  0  0  0  0  0
   -2.6340    7.7328    0.0000 H   0  0  0  0  0  0  0  0  0  0  0  0
   -2.3633    9.6421    0.0000 C   0  0  0  0  0  0  0  0  0  0  0  0
   -3.6868   10.3479    0.0000 H   0  0  0  0  0  0  0  0  0  0  0  0
   -3.2882    8.4612    0.0000 H   0  0  0  0  0  0  0  0  0  0  0  0
   -1.7491   11.5244    0.0000 N   0  0  0  0  0  0  0  0  0  0  0  0
   -2.7514   12.6403    0.0000 C   0  0  0  0  0  0  0  0  0  0  0  0
   -4.0750   13.3462    0.0000 H   0  0  0  0  0  0  0  0  0  0  0  0
   -3.6764   11.4595    0.0000 H   0  0  0  0  0  0  0  0  0  0  0  0
   -2.2861   14.0664    0.0000 C   0  0  0  0  0  0  0  0  0  0  0  0
   -3.2885   15.1823    0.0000 H   0  0  0  0  0  0  0  0  0  0  0  0
   -0.9626   13.3605    0.0000 H   0  0  0  0  0  0  0  0  0  0  0  0
   -1.3612   15.2472    0.0000 H   0  0  0  0  0  0  0  0  0  0  0  0
   -0.2815   11.8345    0.0000 C   0  0  0  0  0  0  0  0  0  0  0  0
   -0.2310   10.3353    0.0000 H   0  0  0  0  0  0  0  0  0  0  0  0
    1.2037   11.6239    0.0000 H   0  0  0  0  0  0  0  0  0  0  0  0
    0.1838   13.2605    0.0000 C   0  0  0  0  0  0  0  0  0  0  0  0
   -0.8185   14.3764    0.0000 H   0  0  0  0  0  0  0  0  0  0  0  0
    1.5073   12.5546    0.0000 H   0  0  0  0  0  0  0  0  0  0  0  0
    1.1087   14.4413    0.0000 H   0  0  0  0  0  0  0  0  0  0  0  0
    3.0424    9.4559    0.0000 O   0  0  0  0  0  0  0  0  0  0  0  0
    2.0404   10.5722    0.0000 H   0  0  0  0  0  0  0  0  0  0  0  0
  1  2  1  0  0  0  0 
  1  3  1  0  0  0  0 
  1  4  1  0  0  0  0 
  1  5  1  0  0  0  0 
  5  6  1  0  0  0  0 
  5  7  1  0  0  0  0 
  5  8  1  0  0  0  0 
  8  9  1  0  0  0  0 
  8 10  1  0  0  0  0 
  8 11  1  0  0  0  0 
 11 12  1  0  0  0  0 
 11 13  1  0  0  0  0 
 11 14  1  0  0  0  0 
 14 15  2  0  0  0  0 
 15 16  1  0  0  0  0 
 16 17  2  0  0  0  0 
 17 18  1  0  0  0  0 
 18 19  1  0  0  0  0 
 18 20  2  0  0  0  0 
 20 21  1  0  0  0  0 
 20 22  1  0  0  0  0 
 22 23  1  0  0  0  0 
 22 24  2  0  0  0  0 
 16 24  1  0  0  0  0 
 24 25  1  0  0  0  0 
 17 26  1  0  0  0  0 
 14 26  1  0  0  0  0 
 15 27  1  0  0  0  0 
 27 28  2  0  0  0  0 
 27 29  1  0  0  0  0 
 29 30  2  0  0  0  0 
 30 31  1  0  0  0  0 
 30 32  1  0  0  0  0 
 32 33  2  0  0  0  0 
 33 34  1  0  0  0  0 
 34 35  2  0  0  0  0 
 29 35  1  0  0  0  0 
 35 36  1  0  0  0  0 
 34 37  1  0  0  0  0 
 33 38  1  0  0  0  0 
 38 39  1  0  0  0  0 
 39 40  1  0  0  0  0 
 39 41  1  0  0  0  0 
 39 42  1  0  0  0  0 
 42 43  1  0  0  0  0 
 42 44  1  0  0  0  0 
 42 45  1  0  0  0  0 
 45 46  1  0  0  0  0 
 46 47  1  0  0  0  0 
 46 48  1  0  0  0  0 
 46 49  1  0  0  0  0 
 49 50  1  0  0  0  0 
 49 51  1  0  0  0  0 
 49 52  1  0  0  0  0 
 45 53  1  0  0  0  0 
 53 54  1  0  0  0  0 
 53 55  1  0  0  0  0 
 53 56  1  0  0  0  0 
 56 57  1  0  0  0  0 
 56 58  1  0  0  0  0 
 56 59  1  0  0  0  0 
 32 60  1  0  0  0  0 
 60 61  1  0  0  0  0 
M  END
> <Rank>
36

> <Priority_score>
0.004

> <Reaction_type>
oxidative dehalogenation benzyl

> <Parent_ID>
19

> <Parent_InChI>
InChI=1S/C25H29I2NO3/c1-4-7-11-22-23(18-10-8-9-12-21(18)31-22)24(29)17-15-19(26)25(20(27)16-17)30-14-13-28(5-2)6-3/h8-10,12,15-16H,4-7,11,13-14H2,1-3H3

> <Parent_SMILES>
CCCCc1oc2ccccc2c1C(=O)c1cc(I)c(OCCN(CC)CC)c(I)c1

$$$$
Molecule 19_metabolite 37
  CDK     0516241031

 61 63  0  0  0  0  0  0  0  0999 V2000
    8.8241   -2.6486    0.0000 C   0  0  0  0  0  0  0  0  0  0  0  0
    8.0741   -3.9476    0.0000 H   0  0  0  0  0  0  0  0  0  0  0  0
    9.9731   -1.6844    0.0000 H   0  0  0  0  0  0  0  0  0  0  0  0
    9.9731   -3.6128    0.0000 H   0  0  0  0  0  0  0  0  0  0  0  0
    8.0741   -1.3496    0.0000 C   0  0  0  0  0  0  0  0  0  0  0  0
    9.4836   -0.8365    0.0000 H   0  0  0  0  0  0  0  0  0  0  0  0
    7.8136    0.1277    0.0000 H   0  0  0  0  0  0  0  0  0  0  0  0
    6.5741   -1.3496    0.0000 C   0  0  0  0  0  0  0  0  0  0  0  0
    5.1645   -1.8626    0.0000 H   0  0  0  0  0  0  0  0  0  0  0  0
    6.8345   -2.8268    0.0000 H   0  0  0  0  0  0  0  0  0  0  0  0
    5.5841    0.3652    0.0000 C   0  0  0  0  0  0  0  0  0  0  0  0
    6.9936    0.8782    0.0000 H   0  0  0  0  0  0  0  0  0  0  0  0
    5.3236    1.8424    0.0000 H   0  0  0  0  0  0  0  0  0  0  0  0
    4.0841    0.3652    0.0000 C   0  0  0  0  0  0  0  0  0  0  0  0
    3.2041    1.5752    0.0000 C   0  0  0  0  0  0  0  0  0  0  0  0
    1.7741    1.1152    0.0000 C   0  0  0  0  0  0  0  0  0  0  0  0
    1.7741   -0.3848    0.0000 C   0  0  0  0  0  0  0  0  0  0  0  0
    0.4741   -1.1348    0.0000 C   0  0  0  0  0  0  0  0  0  0  0  0
    0.4741   -2.6348    0.0000 H   0  0  0  0  0  0  0  0  0  0  0  0
   -0.8259   -0.3848    0.0000 C   0  0  0  0  0  0  0  0  0  0  0  0
   -2.1249   -1.1350    0.0000 H   0  0  0  0  0  0  0  0  0  0  0  0
   -0.8259    1.1152    0.0000 C   0  0  0  0  0  0  0  0  0  0  0  0
   -2.1249    1.8654    0.0000 H   0  0  0  0  0  0  0  0  0  0  0  0
    0.4741    1.8652    0.0000 C   0  0  0  0  0  0  0  0  0  0  0  0
    0.4741    3.3652    0.0000 H   0  0  0  0  0  0  0  0  0  0  0  0
    3.2041   -0.8448    0.0000 O   0  0  0  0  0  0  0  0  0  0  0  0
    4.1160    4.3702    0.0000 C   0  0  0  0  0  0  0  0  0  0  0  0
    5.5836    4.6802    0.0000 O   0  0  0  0  0  0  0  0  0  0  0  0
    3.1137    5.4861    0.0000 C   0  0  0  0  0  0  0  0  0  0  0  0
    3.5790    6.9130    0.0000 C   0  0  0  0  0  0  0  0  0  0  0  0
    2.5766    8.0300    0.0000 C   0  0  0  0  0  0  0  0  0  0  0  0
    1.1090    7.7202    0.0000 C   0  0  0  0  0  0  0  0  0  0  0  0
    0.6437    6.2933    0.0000 C   0  0  0  0  0  0  0  0  0  0  0  0
    1.6460    5.1763    0.0000 C   0  0  0  0  0  0  0  0  0  0  0  0
    1.1803    3.7504    0.0000 H   0  0  0  0  0  0  0  0  0  0  0  0
   -0.8240    5.9835    0.0000 I   0  0  0  0  0  0  0  0  0  0  0  0
    0.1067    8.8362    0.0000 O   0  0  0  0  0  0  0  0  0  0  0  0
   -1.3609    8.5261    0.0000 C   0  0  0  0  0  0  0  0  0  0  0  0
   -0.8007    7.1346    0.0000 H   0  0  0  0  0  0  0  0  0  0  0  0
   -2.6340    7.7328    0.0000 H   0  0  0  0  0  0  0  0  0  0  0  0
   -2.3633    9.6421    0.0000 C   0  0  0  0  0  0  0  0  0  0  0  0
   -3.6868   10.3479    0.0000 H   0  0  0  0  0  0  0  0  0  0  0  0
   -3.2882    8.4612    0.0000 H   0  0  0  0  0  0  0  0  0  0  0  0
   -1.7491   11.5244    0.0000 N   0  0  0  0  0  0  0  0  0  0  0  0
   -2.7514   12.6403    0.0000 C   0  0  0  0  0  0  0  0  0  0  0  0
   -4.0750   13.3462    0.0000 H   0  0  0  0  0  0  0  0  0  0  0  0
   -3.6764   11.4595    0.0000 H   0  0  0  0  0  0  0  0  0  0  0  0
   -2.2861   14.0664    0.0000 C   0  0  0  0  0  0  0  0  0  0  0  0
   -3.2885   15.1823    0.0000 H   0  0  0  0  0  0  0  0  0  0  0  0
   -0.9626   13.3605    0.0000 H   0  0  0  0  0  0  0  0  0  0  0  0
   -1.3612   15.2472    0.0000 H   0  0  0  0  0  0  0  0  0  0  0  0
   -0.2815   11.8345    0.0000 C   0  0  0  0  0  0  0  0  0  0  0  0
   -0.2310   10.3353    0.0000 H   0  0  0  0  0  0  0  0  0  0  0  0
    1.2037   11.6239    0.0000 H   0  0  0  0  0  0  0  0  0  0  0  0
    0.1838   13.2605    0.0000 C   0  0  0  0  0  0  0  0  0  0  0  0
   -0.8185   14.3764    0.0000 H   0  0  0  0  0  0  0  0  0  0  0  0
    1.5073   12.5546    0.0000 H   0  0  0  0  0  0  0  0  0  0  0  0
    1.1087   14.4413    0.0000 H   0  0  0  0  0  0  0  0  0  0  0  0
    3.0424    9.4559    0.0000 I   0  0  0  0  0  0  0  0  0  0  0  0
    5.0466    7.2228    0.0000 O   0  0  0  0  0  0  0  0  0  0  0  0
    5.5122    8.6488    0.0000 H   0  0  0  0  0  0  0  0  0  0  0  0
  1  2  1  0  0  0  0 
  1  3  1  0  0  0  0 
  1  4  1  0  0  0  0 
  1  5  1  0  0  0  0 
  5  6  1  0  0  0  0 
  5  7  1  0  0  0  0 
  5  8  1  0  0  0  0 
  8  9  1  0  0  0  0 
  8 10  1  0  0  0  0 
  8 11  1  0  0  0  0 
 11 12  1  0  0  0  0 
 11 13  1  0  0  0  0 
 11 14  1  0  0  0  0 
 14 15  2  0  0  0  0 
 15 16  1  0  0  0  0 
 16 17  2  0  0  0  0 
 17 18  1  0  0  0  0 
 18 19  1  0  0  0  0 
 18 20  2  0  0  0  0 
 20 21  1  0  0  0  0 
 20 22  1  0  0  0  0 
 22 23  1  0  0  0  0 
 22 24  2  0  0  0  0 
 16 24  1  0  0  0  0 
 24 25  1  0  0  0  0 
 17 26  1  0  0  0  0 
 14 26  1  0  0  0  0 
 15 27  1  0  0  0  0 
 27 28  2  0  0  0  0 
 27 29  1  0  0  0  0 
 29 30  2  0  0  0  0 
 30 31  1  0  0  0  0 
 31 32  2  0  0  0  0 
 32 33  1  0  0  0  0 
 33 34  2  0  0  0  0 
 29 34  1  0  0  0  0 
 34 35  1  0  0  0  0 
 33 36  1  0  0  0  0 
 32 37  1  0  0  0  0 
 37 38  1  0  0  0  0 
 38 39  1  0  0  0  0 
 38 40  1  0  0  0  0 
 38 41  1  0  0  0  0 
 41 42  1  0  0  0  0 
 41 43  1  0  0  0  0 
 41 44  1  0  0  0  0 
 44 45  1  0  0  0  0 
 45 46  1  0  0  0  0 
 45 47  1  0  0  0  0 
 45 48  1  0  0  0  0 
 48 49  1  0  0  0  0 
 48 50  1  0  0  0  0 
 48 51  1  0  0  0  0 
 44 52  1  0  0  0  0 
 52 53  1  0  0  0  0 
 52 54  1  0  0  0  0 
 52 55  1  0  0  0  0 
 55 56  1  0  0  0  0 
 55 57  1  0  0  0  0 
 55 58  1  0  0  0  0 
 31 59  1  0  0  0  0 
 30 60  1  0  0  0  0 
 60 61  1  0  0  0  0 
M  END
> <Rank>
36

> <Priority_score>
0.004

> <Reaction_type>
aromatic hydroxylation

> <Parent_ID>
19

> <Parent_InChI>
InChI=1S/C25H29I2NO3/c1-4-7-11-22-23(18-10-8-9-12-21(18)31-22)24(29)17-15-19(26)25(20(27)16-17)30-14-13-28(5-2)6-3/h8-10,12,15-16H,4-7,11,13-14H2,1-3H3

> <Parent_SMILES>
CCCCc1oc2ccccc2c1C(=O)c1cc(I)c(OCCN(CC)CC)c(I)c1

$$$$
Molecule 20
  CDK     0516241031

 36 40  0  0  0  0  0  0  0  0999 V2000
   -7.4961   -0.7744    0.0000 C   0  0  0  0  0  0  0  0  0  0  0  0
   -6.1935   -1.5183    0.0000 C   0  0  0  0  0  0  0  0  0  0  0  0
   -4.8980   -0.7622    0.0000 C   0  0  0  0  0  0  0  0  0  0  0  0
   -3.5955   -1.5061    0.0000 S   0  0  0  0  0  0  0  0  0  0  0  0
   -2.3000   -0.7500    0.0000 C   0  0  0  0  0  0  0  0  0  0  0  0
   -0.9900   -1.4900    0.0000 N   0  0  0  0  0  0  0  0  0  0  0  0
    0.2900   -0.7500    0.0000 C   0  0  0  0  0  0  0  0  0  0  0  0
    0.2900    0.7600    0.0000 C   0  0  0  0  0  0  0  0  0  0  0  0
   -0.9900    1.4800    0.0000 C   0  0  0  0  0  0  0  0  0  0  0  0
   -2.3000    0.7600    0.0000 N   0  0  0  0  0  0  0  0  0  0  0  0
   -0.9826    2.9800    0.0000 N   0  0  0  0  0  0  0  0  0  0  0  0
    0.3201    3.7236    0.0000 C   0  0  2  0  0  0  0  0  0  0  0  0
    1.0767    5.0198    0.0000 C   0  0  0  0  0  0  0  0  0  0  0  0
    1.8201    3.7160    0.0000 C   0  0  1  0  0  0  0  0  0  0  0  0
    3.1152    2.9592    0.0000 C   0  0  0  0  0  0  0  0  0  0  0  0
    4.4190    3.7026    0.0000 C   0  0  0  0  0  0  0  0  0  0  0  0
    5.7151    2.9460    0.0000 C   0  0  0  0  0  0  0  0  0  0  0  0
    5.7075    1.4460    0.0000 C   0  0  0  0  0  0  0  0  0  0  0  0
    4.4037    0.7026    0.0000 C   0  0  0  0  0  0  0  0  0  0  0  0
    3.1075    1.4592    0.0000 C   0  0  0  0  0  0  0  0  0  0  0  0
    4.3961   -0.7974    0.0000 F   0  0  0  0  0  0  0  0  0  0  0  0
    7.0026    0.6892    0.0000 F   0  0  0  0  0  0  0  0  0  0  0  0
    1.7100    1.2100    0.0000 N   0  0  0  0  0  0  0  0  0  0  0  0
    2.5900   -0.0100    0.0000 N   0  0  0  0  0  0  0  0  0  0  0  0
    1.7100   -1.2200    0.0000 N   0  0  0  0  0  0  0  0  0  0  0  0
    2.1693   -2.6480    0.0000 C   0  0  2  0  0  0  0  0  0  0  0  0
    1.2787   -3.8575    0.0000 C   0  0  0  0  0  0  0  0  0  0  0  0
    2.1681   -5.0680    0.0000 C   0  0  1  0  0  0  0  0  0  0  0  0
    3.5883   -4.6087    0.0000 C   0  0  2  0  0  0  0  0  0  0  0  0
    3.5891   -3.1087    0.0000 C   0  0  1  0  0  0  0  0  0  0  0  0
    4.8026   -2.2270    0.0000 O   0  0  0  0  0  0  0  0  0  0  0  0
    4.8010   -5.4915    0.0000 O   0  0  0  0  0  0  0  0  0  0  0  0
    1.7074   -6.4955    0.0000 O   0  0  0  0  0  0  0  0  0  0  0  0
    2.7134   -7.6082    0.0000 C   0  0  0  0  0  0  0  0  0  0  0  0
    2.2527   -9.0357    0.0000 C   0  0  0  0  0  0  0  0  0  0  0  0
    3.2586  -10.1484    0.0000 O   0  0  0  0  0  0  0  0  0  0  0  0
  1  2  1  0  0  0  0 
  2  3  1  0  0  0  0 
  3  4  1  0  0  0  0 
  4  5  1  0  0  0  0 
  5  6  2  0  0  0  0 
  6  7  1  0  0  0  0 
  7  8  2  0  0  0  0 
  8  9  1  0  0  0  0 
  9 10  2  0  0  0  0 
  5 10  1  0  0  0  0 
  9 11  1  0  0  0  0 
 12 11  1  6  0  0  0 
 12 13  1  0  0  0  0 
 13 14  1  0  0  0  0 
 12 14  1  0  0  0  0 
 14 15  1  1  0  0  0 
 15 16  2  0  0  0  0 
 16 17  1  0  0  0  0 
 17 18  2  0  0  0  0 
 18 19  1  0  0  0  0 
 19 20  2  0  0  0  0 
 15 20  1  0  0  0  0 
 19 21  1  0  0  0  0 
 18 22  1  0  0  0  0 
  8 23  1  0  0  0  0 
 23 24  2  0  0  0  0 
 24 25  1  0  0  0  0 
  7 25  1  0  0  0  0 
 26 25  1  1  0  0  0 
 26 27  1  0  0  0  0 
 27 28  1  0  0  0  0 
 28 29  1  0  0  0  0 
 29 30  1  0  0  0  0 
 26 30  1  0  0  0  0 
 30 31  1  6  0  0  0 
 29 32  1  6  0  0  0 
 28 33  1  1  0  0  0 
 33 34  1  0  0  0  0 
 34 35  1  0  0  0  0 
 35 36  1  0  0  0  0 
M  END
> <SMILES>
CCCSc1nc(N[C@@H]2C[C@H]2c2ccc(F)c(F)c2)c2nnn([C@@H]3C[C@H](OCCO)[C@@H](O)[C@H]3O)c2n1

$$$$
Molecule 20_metabolite 1
  CDK     0516241031

 68 72  0  0  0  0  0  0  0  0999 V2000
   -7.9700   -0.6980    0.0000 C   0  0  0  0  0  0  0  0  0  0  0  0
   -9.2655   -1.4541    0.0000 H   0  0  0  0  0  0  0  0  0  0  0  0
   -7.0112    0.4555    0.0000 H   0  0  0  0  0  0  0  0  0  0  0  0
   -8.9396    0.4465    0.0000 H   0  0  0  0  0  0  0  0  0  0  0  0
   -6.6674   -1.4419    0.0000 C   0  0  0  0  0  0  0  0  0  0  0  0
   -7.6262   -2.5955    0.0000 H   0  0  0  0  0  0  0  0  0  0  0  0
   -5.6979   -2.5865    0.0000 H   0  0  0  0  0  0  0  0  0  0  0  0
   -5.3719   -0.6858    0.0000 C   0  0  0  0  0  0  0  0  0  0  0  0
   -3.8960   -0.4184    0.0000 H   0  0  0  0  0  0  0  0  0  0  0  0
   -4.8523   -2.0930    0.0000 H   0  0  0  0  0  0  0  0  0  0  0  0
   -5.3790    0.8141    0.0000 S   0  0  0  0  0  0  0  0  0  0  0  0
   -4.0835    1.5702    0.0000 C   0  0  0  0  0  0  0  0  0  0  0  0
   -4.0835    3.0748    0.0000 N   0  0  0  0  0  0  0  0  0  0  0  0
   -2.8096    3.8253    0.0000 C   0  0  0  0  0  0  0  0  0  0  0  0
   -1.4949    3.0826    0.0000 C   0  0  0  0  0  0  0  0  0  0  0  0
   -1.4975    1.6140    0.0000 C   0  0  0  0  0  0  0  0  0  0  0  0
   -2.7687    0.8276    0.0000 N   0  0  0  0  0  0  0  0  0  0  0  0
   -0.1879    0.8827    0.0000 N   0  0  0  0  0  0  0  0  0  0  0  0
   -0.1664   -0.6171    0.0000 H   0  0  0  0  0  0  0  0  0  0  0  0
    1.1003    1.6512    0.0000 C   0  0  2  0  0  0  0  0  0  0  0  0
    0.5670    3.0532    0.0000 H   0  0  0  0  0  0  0  0  0  0  0  0
    2.0812    0.5154    0.0000 C   0  0  0  0  0  0  0  0  0  0  0  0
    3.3911   -0.2155    0.0000 H   0  0  0  0  0  0  0  0  0  0  0  0
    1.1337   -0.6475    0.0000 H   0  0  0  0  0  0  0  0  0  0  0  0
    2.5735    1.9332    0.0000 C   0  0  1  0  0  0  0  0  0  0  0  0
    2.5516    3.4330    0.0000 H   0  0  0  0  0  0  0  0  0  0  0  0
    4.5283    1.6181    0.0000 C   0  0  0  0  0  0  0  0  0  0  0  0
    5.0626    0.2156    0.0000 C   0  0  0  0  0  0  0  0  0  0  0  0
    4.1153   -0.9474    0.0000 H   0  0  0  0  0  0  0  0  0  0  0  0
    6.5442   -0.0239    0.0000 C   0  0  0  0  0  0  0  0  0  0  0  0
    7.0775   -1.4259    0.0000 H   0  0  0  0  0  0  0  0  0  0  0  0
    7.4915    1.1391    0.0000 C   0  0  0  0  0  0  0  0  0  0  0  0
    6.9572    2.5416    0.0000 C   0  0  0  0  0  0  0  0  0  0  0  0
    5.4756    2.7811    0.0000 C   0  0  0  0  0  0  0  0  0  0  0  0
    4.9423    4.1831    0.0000 H   0  0  0  0  0  0  0  0  0  0  0  0
    7.9046    3.7046    0.0000 F   0  0  0  0  0  0  0  0  0  0  0  0
    8.9724    0.9004    0.0000 F   0  0  0  0  0  0  0  0  0  0  0  0
   -0.4047    4.0977    0.0000 N   0  0  0  0  0  0  0  0  0  0  0  0
   -1.0341    5.4639    0.0000 N   0  0  0  0  0  0  0  0  0  0  0  0
   -2.5204    5.2929    0.0000 N   0  0  0  0  0  0  0  0  0  0  0  0
   -3.5378    6.3951    0.0000 C   0  0  2  0  0  0  0  0  0  0  0  0
   -4.5251    5.2658    0.0000 H   0  0  0  0  0  0  0  0  0  0  0  0
   -4.7678    7.2573    0.0000 C   0  0  0  0  0  0  0  0  0  0  0  0
   -5.5009    5.9487    0.0000 H   0  0  0  0  0  0  0  0  0  0  0  0
   -6.1436    7.8550    0.0000 H   0  0  0  0  0  0  0  0  0  0  0  0
   -4.3110    8.6883    0.0000 C   0  0  1  0  0  0  0  0  0  0  0  0
   -5.7805    8.9893    0.0000 H   0  0  0  0  0  0  0  0  0  0  0  0
   -2.8184    8.7060    0.0000 C   0  0  2  0  0  0  0  0  0  0  0  0
   -2.9925   10.1959    0.0000 H   0  0  0  0  0  0  0  0  0  0  0  0
   -2.3392    7.2846    0.0000 C   0  0  1  0  0  0  0  0  0  0  0  0
   -0.9755    7.9094    0.0000 H   0  0  0  0  0  0  0  0  0  0  0  0
   -1.5757    5.9935    0.0000 O   0  0  0  0  0  0  0  0  0  0  0  0
   -0.0758    6.0091    0.0000 H   0  0  0  0  0  0  0  0  0  0  0  0
   -1.3548    9.0344    0.0000 O   0  0  0  0  0  0  0  0  0  0  0  0
   -0.9075   10.4662    0.0000 H   0  0  0  0  0  0  0  0  0  0  0  0
   -4.1686   10.1815    0.0000 O   0  0  0  0  0  0  0  0  0  0  0  0
   -5.3905   11.0514    0.0000 C   0  0  0  0  0  0  0  0  0  0  0  0
   -6.0351    9.6969    0.0000 H   0  0  0  0  0  0  0  0  0  0  0  0
   -6.8364   11.4509    0.0000 H   0  0  0  0  0  0  0  0  0  0  0  0
   -5.2481   12.5446    0.0000 C   0  0  0  0  0  0  0  0  0  0  0  0
   -4.6036   13.8991    0.0000 H   0  0  0  0  0  0  0  0  0  0  0  0
   -3.8023   12.1451    0.0000 H   0  0  0  0  0  0  0  0  0  0  0  0
   -6.4701   13.4146    0.0000 O   0  0  0  0  0  0  0  0  0  0  0  0
   -6.3277   14.9078    0.0000 S   0  0  0  0  0  0  0  0  0  0  0  0
   -6.7046   16.3597    0.0000 O   0  0  0  0  0  0  0  0  0  0  0  0
   -7.8230   14.7887    0.0000 O   0  0  0  0  0  0  0  0  0  0  0  0
   -4.9634   15.5311    0.0000 O   0  0  0  0  0  0  0  0  0  0  0  0
   -4.8210   17.0243    0.0000 H   0  0  0  0  0  0  0  0  0  0  0  0
  1  2  1  0  0  0  0 
  1  3  1  0  0  0  0 
  1  4  1  0  0  0  0 
  1  5  1  0  0  0  0 
  5  6  1  0  0  0  0 
  5  7  1  0  0  0  0 
  5  8  1  0  0  0  0 
  8  9  1  0  0  0  0 
  8 10  1  0  0  0  0 
  8 11  1  0  0  0  0 
 11 12  1  0  0  0  0 
 12 13  2  0  0  0  0 
 13 14  1  0  0  0  0 
 14 15  2  0  0  0  0 
 15 16  1  0  0  0  0 
 16 17  2  0  0  0  0 
 12 17  1  0  0  0  0 
 16 18  1  0  0  0  0 
 18 19  1  0  0  0  0 
 20 18  1  1  0  0  0 
 20 21  1  6  0  0  0 
 20 22  1  0  0  0  0 
 22 23  1  0  0  0  0 
 22 24  1  0  0  0  0 
 22 25  1  0  0  0  0 
 20 25  1  0  0  0  0 
 25 26  1  1  0  0  0 
 25 27  1  6  0  0  0 
 27 28  2  0  0  0  0 
 28 29  1  0  0  0  0 
 28 30  1  0  0  0  0 
 30 31  1  0  0  0  0 
 30 32  2  0  0  0  0 
 32 33  1  0  0  0  0 
 33 34  2  0  0  0  0 
 27 34  1  0  0  0  0 
 34 35  1  0  0  0  0 
 33 36  1  0  0  0  0 
 32 37  1  0  0  0  0 
 15 38  1  0  0  0  0 
 38 39  2  0  0  0  0 
 39 40  1  0  0  0  0 
 14 40  1  0  0  0  0 
 41 40  1  6  0  0  0 
 41 42  1  1  0  0  0 
 41 43  1  0  0  0  0 
 43 44  1  0  0  0  0 
 43 45  1  0  0  0  0 
 43 46  1  0  0  0  0 
 46 47  1  1  0  0  0 
 46 48  1  0  0  0  0 
 48 49  1  6  0  0  0 
 48 50  1  0  0  0  0 
 41 50  1  0  0  0  0 
 50 51  1  6  0  0  0 
 50 52  1  1  0  0  0 
 52 53  1  0  0  0  0 
 48 54  1  1  0  0  0 
 54 55  1  0  0  0  0 
 46 56  1  6  0  0  0 
 56 57  1  0  0  0  0 
 57 58  1  0  0  0  0 
 57 59  1  0  0  0  0 
 57 60  1  0  0  0  0 
 60 61  1  0  0  0  0 
 60 62  1  0  0  0  0 
 60 63  1  0  0  0  0 
 63 64  1  0  0  0  0 
 64 65  2  0  0  0  0 
 64 66  2  0  0  0  0 
 64 67  1  0  0  0  0 
 67 68  1  0  0  0  0 
M  END
> <Rank>
1

> <Priority_score>
0.992

> <Reaction_type>
sulfation_(aliphatic_hydroxyl)

> <Parent_ID>
20

> <Parent_InChI>
InChI=1S/C23H28F2N6O4S/c1-2-7-36-23-27-21(26-15-9-12(15)11-3-4-13(24)14(25)8-11)18-22(28-23)31(30-29-18)16-10-17(35-6-5-32)20(34)19(16)33/h3-4,8,12,15-17,19-20,32-34H,2,5-7,9-10H2,1H3,(H,26,27,28)

> <Parent_SMILES>
CCCSc1nc(N[C@@H]2C[C@H]2c2ccc(F)c(F)c2)c2nnn([C@@H]3C[C@H](OCCO)[C@@H](O)[C@H]3O)c2n1

$$$$
Molecule 20_metabolite 2
  CDK     0516241031

 84 89  0  0  0  0  0  0  0  0999 V2000
   -9.2496   -3.0875    0.0000 C   0  0  0  0  0  0  0  0  0  0  0  0
  -10.3695   -4.0854    0.0000 H   0  0  0  0  0  0  0  0  0  0  0  0
   -8.5385   -1.7667    0.0000 H   0  0  0  0  0  0  0  0  0  0  0  0
  -10.4268   -2.1578    0.0000 H   0  0  0  0  0  0  0  0  0  0  0  0
   -7.8254   -3.5584    0.0000 C   0  0  0  0  0  0  0  0  0  0  0  0
   -7.6090   -2.0741    0.0000 H   0  0  0  0  0  0  0  0  0  0  0  0
   -6.3261   -3.5138    0.0000 H   0  0  0  0  0  0  0  0  0  0  0  0
   -7.5212   -5.0272    0.0000 C   0  0  0  0  0  0  0  0  0  0  0  0
   -7.7377   -6.5115    0.0000 H   0  0  0  0  0  0  0  0  0  0  0  0
   -9.0205   -5.0718    0.0000 H   0  0  0  0  0  0  0  0  0  0  0  0
   -6.0970   -5.4981    0.0000 S   0  0  0  0  0  0  0  0  0  0  0  0
   -5.7928   -6.9670    0.0000 C   0  0  0  0  0  0  0  0  0  0  0  0
   -4.3665   -7.4460    0.0000 N   0  0  0  0  0  0  0  0  0  0  0  0
   -4.0607   -8.8926    0.0000 C   0  0  0  0  0  0  0  0  0  0  0  0
   -5.1833   -9.9024    0.0000 C   0  0  0  0  0  0  0  0  0  0  0  0
   -6.5747   -9.4323    0.0000 C   0  0  0  0  0  0  0  0  0  0  0  0
   -6.9154   -7.9768    0.0000 N   0  0  0  0  0  0  0  0  0  0  0  0
   -7.6849  -10.4409    0.0000 N   0  0  0  0  0  0  0  0  0  0  0  0
   -9.1135   -9.9837    0.0000 H   0  0  0  0  0  0  0  0  0  0  0  0
   -7.3666  -11.9067    0.0000 C   0  0  2  0  0  0  0  0  0  0  0  0
   -5.8677  -11.8476    0.0000 H   0  0  0  0  0  0  0  0  0  0  0  0
   -8.7557  -12.4749    0.0000 C   0  0  0  0  0  0  0  0  0  0  0  0
   -9.8656  -13.4839    0.0000 H   0  0  0  0  0  0  0  0  0  0  0  0
   -9.5563  -11.2065    0.0000 H   0  0  0  0  0  0  0  0  0  0  0  0
   -7.5684  -13.3931    0.0000 C   0  0  1  0  0  0  0  0  0  0  0  0
   -6.1397  -13.8498    0.0000 H   0  0  0  0  0  0  0  0  0  0  0  0
   -8.4895  -15.1458    0.0000 C   0  0  0  0  0  0  0  0  0  0  0  0
   -9.9891  -15.2057    0.0000 C   0  0  0  0  0  0  0  0  0  0  0  0
  -10.7900  -13.9373    0.0000 H   0  0  0  0  0  0  0  0  0  0  0  0
  -10.6879  -16.5339    0.0000 C   0  0  0  0  0  0  0  0  0  0  0  0
  -12.1868  -16.5930    0.0000 H   0  0  0  0  0  0  0  0  0  0  0  0
   -9.8871  -17.8022    0.0000 C   0  0  0  0  0  0  0  0  0  0  0  0
   -8.3874  -17.7423    0.0000 C   0  0  0  0  0  0  0  0  0  0  0  0
   -7.6887  -16.4141    0.0000 C   0  0  0  0  0  0  0  0  0  0  0  0
   -6.1898  -16.3550    0.0000 H   0  0  0  0  0  0  0  0  0  0  0  0
   -7.5866  -19.0107    0.0000 F   0  0  0  0  0  0  0  0  0  0  0  0
  -10.5849  -19.1301    0.0000 F   0  0  0  0  0  0  0  0  0  0  0  0
   -4.5683  -11.2591    0.0000 N   0  0  0  0  0  0  0  0  0  0  0  0
   -3.0727  -11.0974    0.0000 N   0  0  0  0  0  0  0  0  0  0  0  0
   -2.7616   -9.6340    0.0000 N   0  0  0  0  0  0  0  0  0  0  0  0
   -1.3928   -9.0205    0.0000 C   0  0  2  0  0  0  0  0  0  0  0  0
   -2.1490   -7.7250    0.0000 H   0  0  0  0  0  0  0  0  0  0  0  0
   -0.1838   -8.1291    0.0000 C   0  0  0  0  0  0  0  0  0  0  0  0
   -1.1909   -7.0175    0.0000 H   0  0  0  0  0  0  0  0  0  0  0  0
    0.8208   -7.0152    0.0000 H   0  0  0  0  0  0  0  0  0  0  0  0
    1.0272   -9.0178    0.0000 C   0  0  1  0  0  0  0  0  0  0  0  0
    1.7804   -7.7206    0.0000 H   0  0  0  0  0  0  0  0  0  0  0  0
    0.5688  -10.4383    0.0000 C   0  0  2  0  0  0  0  0  0  0  0  0
    2.0365  -10.7476    0.0000 H   0  0  0  0  0  0  0  0  0  0  0  0
   -0.9312  -10.4400    0.0000 C   0  0  1  0  0  0  0  0  0  0  0  0
   -0.7732  -11.9316    0.0000 H   0  0  0  0  0  0  0  0  0  0  0  0
   -2.3983  -10.7526    0.0000 O   0  0  0  0  0  0  0  0  0  0  0  0
   -2.8611  -12.1794    0.0000 H   0  0  0  0  0  0  0  0  0  0  0  0
    0.4141  -11.9303    0.0000 O   0  0  0  0  0  0  0  0  0  0  0  0
    1.6289  -12.8102    0.0000 H   0  0  0  0  0  0  0  0  0  0  0  0
    2.3973   -9.6282    0.0000 O   0  0  0  0  0  0  0  0  0  0  0  0
    3.6111   -8.7468    0.0000 C   0  0  0  0  0  0  0  0  0  0  0  0
    2.5323   -7.7046    0.0000 H   0  0  0  0  0  0  0  0  0  0  0  0
    4.4502   -7.5035    0.0000 H   0  0  0  0  0  0  0  0  0  0  0  0
    4.9813   -9.3573    0.0000 C   0  0  0  0  0  0  0  0  0  0  0  0
    6.0600  -10.3995    0.0000 H   0  0  0  0  0  0  0  0  0  0  0  0
    4.1422  -10.6006    0.0000 H   0  0  0  0  0  0  0  0  0  0  0  0
    6.5834   -8.1938    0.0000 O   0  0  0  0  0  0  0  0  0  0  0  0
    7.9536   -8.8043    0.0000 C   0  0  0  0  0  0  0  0  0  0  0  0
    7.1173  -10.0496    0.0000 H   0  0  0  0  0  0  0  0  0  0  0  0
    8.3177   -7.3595    0.0000 C   0  0  0  0  0  0  0  0  0  0  0  0
    8.1659   -5.8672    0.0000 H   0  0  0  0  0  0  0  0  0  0  0  0
    9.7834   -6.9451    0.0000 C   0  0  0  0  0  0  0  0  0  0  0  0
   11.0027   -6.0714    0.0000 H   0  0  0  0  0  0  0  0  0  0  0  0
   10.8583   -7.9998    0.0000 C   0  0  0  0  0  0  0  0  0  0  0  0
   12.2259   -8.6159    0.0000 H   0  0  0  0  0  0  0  0  0  0  0  0
   10.4941   -9.4446    0.0000 C   0  0  0  0  0  0  0  0  0  0  0  0
   10.6468  -10.9368    0.0000 H   0  0  0  0  0  0  0  0  0  0  0  0
   12.4689   -9.5880    0.0000 C   0  0  0  0  0  0  0  0  0  0  0  0
   13.3110   -8.3466    0.0000 O   0  0  0  0  0  0  0  0  0  0  0  0
   13.1229  -10.9379    0.0000 O   0  0  0  0  0  0  0  0  0  0  0  0
   14.6190  -11.0465    0.0000 H   0  0  0  0  0  0  0  0  0  0  0  0
    9.0502   -9.8541    0.0000 O   0  0  0  0  0  0  0  0  0  0  0  0
   11.7047   -6.7614    0.0000 O   0  0  0  0  0  0  0  0  0  0  0  0
   13.2004   -6.8753    0.0000 H   0  0  0  0  0  0  0  0  0  0  0  0
    9.1328   -5.5936    0.0000 O   0  0  0  0  0  0  0  0  0  0  0  0
    9.9780   -4.3543    0.0000 H   0  0  0  0  0  0  0  0  0  0  0  0
    6.8217   -7.2504    0.0000 O   0  0  0  0  0  0  0  0  0  0  0  0
    6.1681   -5.9003    0.0000 H   0  0  0  0  0  0  0  0  0  0  0  0
  1  2  1  0  0  0  0 
  1  3  1  0  0  0  0 
  1  4  1  0  0  0  0 
  1  5  1  0  0  0  0 
  5  6  1  0  0  0  0 
  5  7  1  0  0  0  0 
  5  8  1  0  0  0  0 
  8  9  1  0  0  0  0 
  8 10  1  0  0  0  0 
  8 11  1  0  0  0  0 
 11 12  1  0  0  0  0 
 12 13  2  0  0  0  0 
 13 14  1  0  0  0  0 
 14 15  2  0  0  0  0 
 15 16  1  0  0  0  0 
 16 17  2  0  0  0  0 
 12 17  1  0  0  0  0 
 16 18  1  0  0  0  0 
 18 19  1  0  0  0  0 
 20 18  1  1  0  0  0 
 20 21  1  6  0  0  0 
 20 22  1  0  0  0  0 
 22 23  1  0  0  0  0 
 22 24  1  0  0  0  0 
 22 25  1  0  0  0  0 
 20 25  1  0  0  0  0 
 25 26  1  1  0  0  0 
 25 27  1  6  0  0  0 
 27 28  2  0  0  0  0 
 28 29  1  0  0  0  0 
 28 30  1  0  0  0  0 
 30 31  1  0  0  0  0 
 30 32  2  0  0  0  0 
 32 33  1  0  0  0  0 
 33 34  2  0  0  0  0 
 27 34  1  0  0  0  0 
 34 35  1  0  0  0  0 
 33 36  1  0  0  0  0 
 32 37  1  0  0  0  0 
 15 38  1  0  0  0  0 
 38 39  2  0  0  0  0 
 39 40  1  0  0  0  0 
 14 40  1  0  0  0  0 
 41 40  1  6  0  0  0 
 41 42  1  1  0  0  0 
 41 43  1  0  0  0  0 
 43 44  1  0  0  0  0 
 43 45  1  0  0  0  0 
 43 46  1  0  0  0  0 
 46 47  1  1  0  0  0 
 46 48  1  0  0  0  0 
 48 49  1  6  0  0  0 
 48 50  1  0  0  0  0 
 41 50  1  0  0  0  0 
 50 51  1  6  0  0  0 
 50 52  1  1  0  0  0 
 52 53  1  0  0  0  0 
 48 54  1  1  0  0  0 
 54 55  1  0  0  0  0 
 46 56  1  6  0  0  0 
 56 57  1  0  0  0  0 
 57 58  1  0  0  0  0 
 57 59  1  0  0  0  0 
 57 60  1  0  0  0  0 
 60 61  1  0  0  0  0 
 60 62  1  0  0  0  0 
 60 63  1  0  0  0  0 
 63 64  1  0  0  0  0 
 64 65  1  0  0  0  0 
 64 66  1  0  0  0  0 
 66 67  1  0  0  0  0 
 66 68  1  0  0  0  0 
 68 69  1  0  0  0  0 
 68 70  1  0  0  0  0 
 70 71  1  0  0  0  0 
 70 72  1  0  0  0  0 
 72 73  1  0  0  0  0 
 72 74  1  0  0  0  0 
 74 75  2  0  0  0  0 
 74 76  1  0  0  0  0 
 76 77  1  0  0  0  0 
 72 78  1  0  0  0  0 
 64 78  1  0  0  0  0 
 70 79  1  0  0  0  0 
 79 80  1  0  0  0  0 
 68 81  1  0  0  0  0 
 81 82  1  0  0  0  0 
 66 83  1  0  0  0  0 
 83 84  1  0  0  0  0 
M  END
> <Rank>
2

> <Priority_score>
0.7221402057497002

> <Reaction_type>
O-glucuronidation_(aliphatic_hydroxyl)

> <Parent_ID>
20

> <Parent_InChI>
InChI=1S/C23H28F2N6O4S/c1-2-7-36-23-27-21(26-15-9-12(15)11-3-4-13(24)14(25)8-11)18-22(28-23)31(30-29-18)16-10-17(35-6-5-32)20(34)19(16)33/h3-4,8,12,15-17,19-20,32-34H,2,5-7,9-10H2,1H3,(H,26,27,28)

> <Parent_SMILES>
CCCSc1nc(N[C@@H]2C[C@H]2c2ccc(F)c(F)c2)c2nnn([C@@H]3C[C@H](OCCO)[C@@H](O)[C@H]3O)c2n1

$$$$
Molecule 20_metabolite 3
  CDK     0516241031

 84 89  0  0  0  0  0  0  0  0999 V2000
   -8.6139   -1.3541    0.0000 C   0  0  0  0  0  0  0  0  0  0  0  0
   -8.6209    0.1459    0.0000 H   0  0  0  0  0  0  0  0  0  0  0  0
   -9.1203   -2.7660    0.0000 H   0  0  0  0  0  0  0  0  0  0  0  0
  -10.0923   -1.1006    0.0000 H   0  0  0  0  0  0  0  0  0  0  0  0
   -7.3114   -2.0980    0.0000 C   0  0  0  0  0  0  0  0  0  0  0  0
   -8.2701   -3.2516    0.0000 H   0  0  0  0  0  0  0  0  0  0  0  0
   -6.3418   -3.2425    0.0000 H   0  0  0  0  0  0  0  0  0  0  0  0
   -6.0159   -1.3419    0.0000 C   0  0  0  0  0  0  0  0  0  0  0  0
   -5.0571   -0.1883    0.0000 H   0  0  0  0  0  0  0  0  0  0  0  0
   -6.9854   -0.1974    0.0000 H   0  0  0  0  0  0  0  0  0  0  0  0
   -4.7133   -2.0858    0.0000 S   0  0  0  0  0  0  0  0  0  0  0  0
   -3.4178   -1.3297    0.0000 C   0  0  0  0  0  0  0  0  0  0  0  0
   -2.1078   -2.0697    0.0000 N   0  0  0  0  0  0  0  0  0  0  0  0
   -0.8278   -1.3297    0.0000 C   0  0  0  0  0  0  0  0  0  0  0  0
   -0.8278    0.1803    0.0000 C   0  0  0  0  0  0  0  0  0  0  0  0
   -2.1078    0.9003    0.0000 C   0  0  0  0  0  0  0  0  0  0  0  0
   -3.4178    0.1803    0.0000 N   0  0  0  0  0  0  0  0  0  0  0  0
   -2.1004    2.4003    0.0000 N   0  0  0  0  0  0  0  0  0  0  0  0
   -3.3958    3.1567    0.0000 H   0  0  0  0  0  0  0  0  0  0  0  0
   -0.7977    3.1439    0.0000 C   0  0  2  0  0  0  0  0  0  0  0  0
    0.1607    1.9900    0.0000 H   0  0  0  0  0  0  0  0  0  0  0  0
   -1.3042    4.5567    0.0000 C   0  0  0  0  0  0  0  0  0  0  0  0
   -1.2964    6.0567    0.0000 H   0  0  0  0  0  0  0  0  0  0  0  0
   -2.7827    4.3036    0.0000 H   0  0  0  0  0  0  0  0  0  0  0  0
    0.1724    4.2880    0.0000 C   0  0  1  0  0  0  0  0  0  0  0  0
    1.4674    3.5312    0.0000 H   0  0  0  0  0  0  0  0  0  0  0  0
    0.8595    6.1450    0.0000 C   0  0  0  0  0  0  0  0  0  0  0  0
   -0.0989    7.3000    0.0000 C   0  0  0  0  0  0  0  0  0  0  0  0
   -1.5774    7.0471    0.0000 H   0  0  0  0  0  0  0  0  0  0  0  0
    0.4213    8.7078    0.0000 C   0  0  0  0  0  0  0  0  0  0  0  0
   -0.5371    9.8617    0.0000 H   0  0  0  0  0  0  0  0  0  0  0  0
    1.8998    8.9606    0.0000 C   0  0  0  0  0  0  0  0  0  0  0  0
    2.8582    7.8056    0.0000 C   0  0  0  0  0  0  0  0  0  0  0  0
    2.3380    6.3978    0.0000 C   0  0  0  0  0  0  0  0  0  0  0  0
    3.2964    5.2439    0.0000 H   0  0  0  0  0  0  0  0  0  0  0  0
    4.3368    8.0584    0.0000 F   0  0  0  0  0  0  0  0  0  0  0  0
    2.4204   10.3673    0.0000 F   0  0  0  0  0  0  0  0  0  0  0  0
    0.5922    0.6303    0.0000 N   0  0  0  0  0  0  0  0  0  0  0  0
    1.4722   -0.5897    0.0000 N   0  0  0  0  0  0  0  0  0  0  0  0
    0.5922   -1.7997    0.0000 N   0  0  0  0  0  0  0  0  0  0  0  0
    1.0515   -3.2276    0.0000 C   0  0  2  0  0  0  0  0  0  0  0  0
   -0.4174   -3.5318    0.0000 H   0  0  0  0  0  0  0  0  0  0  0  0
    1.1973   -4.7226    0.0000 C   0  0  0  0  0  0  0  0  0  0  0  0
   -0.3027   -4.7172    0.0000 H   0  0  0  0  0  0  0  0  0  0  0  0
    1.0410   -6.2144    0.0000 H   0  0  0  0  0  0  0  0  0  0  0  0
    2.6679   -5.0286    0.0000 C   0  0  1  0  0  0  0  0  0  0  0  0
    2.2072   -6.4562    0.0000 H   0  0  0  0  0  0  0  0  0  0  0  0
    3.4174   -3.7378    0.0000 C   0  0  2  0  0  0  0  0  0  0  0  0
    4.6290   -4.6222    0.0000 H   0  0  0  0  0  0  0  0  0  0  0  0
    2.4155   -2.6215    0.0000 C   0  0  1  0  0  0  0  0  0  0  0  0
    3.6302   -1.7414    0.0000 H   0  0  0  0  0  0  0  0  0  0  0  0
    1.6668   -1.3217    0.0000 O   0  0  0  0  0  0  0  0  0  0  0  0
    2.4182   -0.0234    0.0000 H   0  0  0  0  0  0  0  0  0  0  0  0
    4.4232   -2.6250    0.0000 O   0  0  0  0  0  0  0  0  0  0  0  0
    5.8899   -2.9397    0.0000 C   0  0  0  0  0  0  0  0  0  0  0  0
    5.3285   -4.3307    0.0000 H   0  0  0  0  0  0  0  0  0  0  0  0
    5.9481   -1.4508    0.0000 C   0  0  0  0  0  0  0  0  0  0  0  0
    5.4917   -0.0220    0.0000 H   0  0  0  0  0  0  0  0  0  0  0  0
    7.2968   -0.7430    0.0000 C   0  0  0  0  0  0  0  0  0  0  0  0
    8.3097    0.3634    0.0000 H   0  0  0  0  0  0  0  0  0  0  0  0
    8.5661   -1.5533    0.0000 C   0  0  0  0  0  0  0  0  0  0  0  0
   10.0314   -1.8740    0.0000 H   0  0  0  0  0  0  0  0  0  0  0  0
    8.5079   -3.0422    0.0000 C   0  0  0  0  0  0  0  0  0  0  0  0
    8.9651   -4.4708    0.0000 H   0  0  0  0  0  0  0  0  0  0  0  0
   10.9454   -2.7103    0.0000 C   0  0  0  0  0  0  0  0  0  0  0  0
   11.5133   -1.3220    0.0000 O   0  0  0  0  0  0  0  0  0  0  0  0
   11.8638   -3.8963    0.0000 O   0  0  0  0  0  0  0  0  0  0  0  0
   13.3500   -3.6939    0.0000 H   0  0  0  0  0  0  0  0  0  0  0  0
    7.1795   -3.7408    0.0000 O   0  0  0  0  0  0  0  0  0  0  0  0
    9.1389   -0.1670    0.0000 O   0  0  0  0  0  0  0  0  0  0  0  0
   10.6259    0.0302    0.0000 H   0  0  0  0  0  0  0  0  0  0  0  0
    6.3814    0.4452    0.0000 O   0  0  0  0  0  0  0  0  0  0  0  0
    6.9528    1.8322    0.0000 H   0  0  0  0  0  0  0  0  0  0  0  0
    4.4618   -1.6528    0.0000 O   0  0  0  0  0  0  0  0  0  0  0  0
    3.5437   -0.4665    0.0000 H   0  0  0  0  0  0  0  0  0  0  0  0
    4.0380   -5.6391    0.0000 O   0  0  0  0  0  0  0  0  0  0  0  0
    4.1945   -7.1309    0.0000 C   0  0  0  0  0  0  0  0  0  0  0  0
    2.6981   -7.0259    0.0000 H   0  0  0  0  0  0  0  0  0  0  0  0
    3.8312   -8.5863    0.0000 H   0  0  0  0  0  0  0  0  0  0  0  0
    5.5646   -7.7414    0.0000 C   0  0  0  0  0  0  0  0  0  0  0  0
    7.0609   -7.8464    0.0000 H   0  0  0  0  0  0  0  0  0  0  0  0
    5.9279   -6.2860    0.0000 H   0  0  0  0  0  0  0  0  0  0  0  0
    5.7211   -9.2332    0.0000 O   0  0  0  0  0  0  0  0  0  0  0  0
    7.0912   -9.8436    0.0000 H   0  0  0  0  0  0  0  0  0  0  0  0
  1  2  1  0  0  0  0 
  1  3  1  0  0  0  0 
  1  4  1  0  0  0  0 
  1  5  1  0  0  0  0 
  5  6  1  0  0  0  0 
  5  7  1  0  0  0  0 
  5  8  1  0  0  0  0 
  8  9  1  0  0  0  0 
  8 10  1  0  0  0  0 
  8 11  1  0  0  0  0 
 11 12  1  0  0  0  0 
 12 13  2  0  0  0  0 
 13 14  1  0  0  0  0 
 14 15  2  0  0  0  0 
 15 16  1  0  0  0  0 
 16 17  2  0  0  0  0 
 12 17  1  0  0  0  0 
 16 18  1  0  0  0  0 
 18 19  1  0  0  0  0 
 20 18  1  6  0  0  0 
 20 21  1  1  0  0  0 
 20 22  1  0  0  0  0 
 22 23  1  0  0  0  0 
 22 24  1  0  0  0  0 
 22 25  1  0  0  0  0 
 20 25  1  0  0  0  0 
 25 26  1  6  0  0  0 
 25 27  1  1  0  0  0 
 27 28  2  0  0  0  0 
 28 29  1  0  0  0  0 
 28 30  1  0  0  0  0 
 30 31  1  0  0  0  0 
 30 32  2  0  0  0  0 
 32 33  1  0  0  0  0 
 33 34  2  0  0  0  0 
 27 34  1  0  0  0  0 
 34 35  1  0  0  0  0 
 33 36  1  0  0  0  0 
 32 37  1  0  0  0  0 
 15 38  1  0  0  0  0 
 38 39  2  0  0  0  0 
 39 40  1  0  0  0  0 
 14 40  1  0  0  0  0 
 41 40  1  1  0  0  0 
 41 42  1  6  0  0  0 
 41 43  1  0  0  0  0 
 43 44  1  0  0  0  0 
 43 45  1  0  0  0  0 
 43 46  1  0  0  0  0 
 46 47  1  6  0  0  0 
 46 48  1  0  0  0  0 
 48 49  1  1  0  0  0 
 48 50  1  0  0  0  0 
 41 50  1  0  0  0  0 
 50 51  1  1  0  0  0 
 50 52  1  6  0  0  0 
 52 53  1  0  0  0  0 
 48 54  1  6  0  0  0 
 54 55  1  0  0  0  0 
 55 56  1  0  0  0  0 
 55 57  1  0  0  0  0 
 57 58  1  0  0  0  0 
 57 59  1  0  0  0  0 
 59 60  1  0  0  0  0 
 59 61  1  0  0  0  0 
 61 62  1  0  0  0  0 
 61 63  1  0  0  0  0 
 63 64  1  0  0  0  0 
 63 65  1  0  0  0  0 
 65 66  2  0  0  0  0 
 65 67  1  0  0  0  0 
 67 68  1  0  0  0  0 
 63 69  1  0  0  0  0 
 55 69  1  0  0  0  0 
 61 70  1  0  0  0  0 
 70 71  1  0  0  0  0 
 59 72  1  0  0  0  0 
 72 73  1  0  0  0  0 
 57 74  1  0  0  0  0 
 74 75  1  0  0  0  0 
 46 76  1  1  0  0  0 
 76 77  1  0  0  0  0 
 77 78  1  0  0  0  0 
 77 79  1  0  0  0  0 
 77 80  1  0  0  0  0 
 80 81  1  0  0  0  0 
 80 82  1  0  0  0  0 
 80 83  1  0  0  0  0 
 83 84  1  0  0  0  0 
M  END
> <Rank>
3

> <Priority_score>
0.7197594493963669

> <Reaction_type>
O-glucuronidation_(aliphatic_hydroxyl)

> <Parent_ID>
20

> <Parent_InChI>
InChI=1S/C23H28F2N6O4S/c1-2-7-36-23-27-21(26-15-9-12(15)11-3-4-13(24)14(25)8-11)18-22(28-23)31(30-29-18)16-10-17(35-6-5-32)20(34)19(16)33/h3-4,8,12,15-17,19-20,32-34H,2,5-7,9-10H2,1H3,(H,26,27,28)

> <Parent_SMILES>
CCCSc1nc(N[C@@H]2C[C@H]2c2ccc(F)c(F)c2)c2nnn([C@@H]3C[C@H](OCCO)[C@@H](O)[C@H]3O)c2n1

$$$$
Molecule 20_metabolite 4
  CDK     0516241031

 62 66  0  0  0  0  0  0  0  0999 V2000
   -6.3531   -3.4685    0.0000 C   0  0  0  0  0  0  0  0  0  0  0  0
   -7.6486   -4.2246    0.0000 H   0  0  0  0  0  0  0  0  0  0  0  0
   -4.8771   -3.2010    0.0000 H   0  0  0  0  0  0  0  0  0  0  0  0
   -5.8334   -4.8756    0.0000 H   0  0  0  0  0  0  0  0  0  0  0  0
   -6.3601   -1.9685    0.0000 C   0  0  0  0  0  0  0  0  0  0  0  0
   -7.8361   -2.2359    0.0000 H   0  0  0  0  0  0  0  0  0  0  0  0
   -6.8798   -0.5614    0.0000 H   0  0  0  0  0  0  0  0  0  0  0  0
   -5.0646   -1.2124    0.0000 C   0  0  0  0  0  0  0  0  0  0  0  0
   -4.1059   -0.0588    0.0000 H   0  0  0  0  0  0  0  0  0  0  0  0
   -6.0342   -0.0679    0.0000 H   0  0  0  0  0  0  0  0  0  0  0  0
   -3.7621   -1.9563    0.0000 S   0  0  0  0  0  0  0  0  0  0  0  0
   -2.4666   -1.2002    0.0000 C   0  0  0  0  0  0  0  0  0  0  0  0
   -1.1566   -1.9402    0.0000 N   0  0  0  0  0  0  0  0  0  0  0  0
    0.1234   -1.2002    0.0000 C   0  0  0  0  0  0  0  0  0  0  0  0
    0.1234    0.3098    0.0000 C   0  0  0  0  0  0  0  0  0  0  0  0
   -1.1566    1.0298    0.0000 C   0  0  0  0  0  0  0  0  0  0  0  0
   -2.4666    0.3098    0.0000 N   0  0  0  0  0  0  0  0  0  0  0  0
   -1.1492    2.5298    0.0000 N   0  0  0  0  0  0  0  0  0  0  0  0
   -2.4445    3.2862    0.0000 H   0  0  0  0  0  0  0  0  0  0  0  0
    0.1535    3.2734    0.0000 C   0  0  2  0  0  0  0  0  0  0  0  0
    1.1119    2.1195    0.0000 H   0  0  0  0  0  0  0  0  0  0  0  0
   -0.3530    4.6862    0.0000 C   0  0  0  0  0  0  0  0  0  0  0  0
   -0.3451    6.1862    0.0000 H   0  0  0  0  0  0  0  0  0  0  0  0
   -1.8315    4.4331    0.0000 H   0  0  0  0  0  0  0  0  0  0  0  0
    1.1236    4.4175    0.0000 C   0  0  1  0  0  0  0  0  0  0  0  0
    2.4187    3.6607    0.0000 H   0  0  0  0  0  0  0  0  0  0  0  0
    1.8107    6.2745    0.0000 C   0  0  0  0  0  0  0  0  0  0  0  0
    0.8523    7.4295    0.0000 C   0  0  0  0  0  0  0  0  0  0  0  0
   -0.6262    7.1767    0.0000 H   0  0  0  0  0  0  0  0  0  0  0  0
    1.3725    8.8373    0.0000 C   0  0  0  0  0  0  0  0  0  0  0  0
    0.4141    9.9912    0.0000 H   0  0  0  0  0  0  0  0  0  0  0  0
    2.8511    9.0901    0.0000 C   0  0  0  0  0  0  0  0  0  0  0  0
    3.8094    7.9351    0.0000 C   0  0  0  0  0  0  0  0  0  0  0  0
    3.2893    6.5273    0.0000 C   0  0  0  0  0  0  0  0  0  0  0  0
    4.2477    5.3734    0.0000 H   0  0  0  0  0  0  0  0  0  0  0  0
    5.2880    8.1879    0.0000 F   0  0  0  0  0  0  0  0  0  0  0  0
    3.3716   10.4969    0.0000 F   0  0  0  0  0  0  0  0  0  0  0  0
    1.5434    0.7598    0.0000 N   0  0  0  0  0  0  0  0  0  0  0  0
    2.4234   -0.4602    0.0000 N   0  0  0  0  0  0  0  0  0  0  0  0
    1.5434   -1.6702    0.0000 N   0  0  0  0  0  0  0  0  0  0  0  0
    2.0027   -3.0981    0.0000 C   0  0  2  0  0  0  0  0  0  0  0  0
    0.5339   -3.4023    0.0000 H   0  0  0  0  0  0  0  0  0  0  0  0
    2.1485   -4.5931    0.0000 C   0  0  0  0  0  0  0  0  0  0  0  0
    0.6485   -4.5877    0.0000 H   0  0  0  0  0  0  0  0  0  0  0  0
    1.9923   -6.0849    0.0000 H   0  0  0  0  0  0  0  0  0  0  0  0
    3.6191   -4.8991    0.0000 C   0  0  1  0  0  0  0  0  0  0  0  0
    3.1584   -6.3267    0.0000 H   0  0  0  0  0  0  0  0  0  0  0  0
    4.3686   -3.6083    0.0000 C   0  0  2  0  0  0  0  0  0  0  0  0
    5.5802   -4.4927    0.0000 H   0  0  0  0  0  0  0  0  0  0  0  0
    3.3667   -2.4920    0.0000 C   0  0  1  0  0  0  0  0  0  0  0  0
    4.5814   -1.6119    0.0000 H   0  0  0  0  0  0  0  0  0  0  0  0
    2.6181   -1.1922    0.0000 O   0  0  0  0  0  0  0  0  0  0  0  0
    3.3694    0.1061    0.0000 H   0  0  0  0  0  0  0  0  0  0  0  0
    5.3745   -2.4955    0.0000 O   0  0  0  0  0  0  0  0  0  0  0  0
    6.8411   -2.8102    0.0000 H   0  0  0  0  0  0  0  0  0  0  0  0
    4.9893   -5.5096    0.0000 O   0  0  0  0  0  0  0  0  0  0  0  0
    5.1457   -7.0014    0.0000 C   0  0  0  0  0  0  0  0  0  0  0  0
    3.6494   -6.8964    0.0000 H   0  0  0  0  0  0  0  0  0  0  0  0
    4.7824   -8.4568    0.0000 H   0  0  0  0  0  0  0  0  0  0  0  0
    6.5159   -7.6119    0.0000 C   0  0  0  0  0  0  0  0  0  0  0  0
    6.6723   -9.1037    0.0000 H   0  0  0  0  0  0  0  0  0  0  0  0
    7.7296   -6.7305    0.0000 O   0  0  0  0  0  0  0  0  0  0  0  0
  1  2  1  0  0  0  0 
  1  3  1  0  0  0  0 
  1  4  1  0  0  0  0 
  1  5  1  0  0  0  0 
  5  6  1  0  0  0  0 
  5  7  1  0  0  0  0 
  5  8  1  0  0  0  0 
  8  9  1  0  0  0  0 
  8 10  1  0  0  0  0 
  8 11  1  0  0  0  0 
 11 12  1  0  0  0  0 
 12 13  2  0  0  0  0 
 13 14  1  0  0  0  0 
 14 15  2  0  0  0  0 
 15 16  1  0  0  0  0 
 16 17  2  0  0  0  0 
 12 17  1  0  0  0  0 
 16 18  1  0  0  0  0 
 18 19  1  0  0  0  0 
 20 18  1  6  0  0  0 
 20 21  1  1  0  0  0 
 20 22  1  0  0  0  0 
 22 23  1  0  0  0  0 
 22 24  1  0  0  0  0 
 22 25  1  0  0  0  0 
 20 25  1  0  0  0  0 
 25 26  1  6  0  0  0 
 25 27  1  1  0  0  0 
 27 28  2  0  0  0  0 
 28 29  1  0  0  0  0 
 28 30  1  0  0  0  0 
 30 31  1  0  0  0  0 
 30 32  2  0  0  0  0 
 32 33  1  0  0  0  0 
 33 34  2  0  0  0  0 
 27 34  1  0  0  0  0 
 34 35  1  0  0  0  0 
 33 36  1  0  0  0  0 
 32 37  1  0  0  0  0 
 15 38  1  0  0  0  0 
 38 39  2  0  0  0  0 
 39 40  1  0  0  0  0 
 14 40  1  0  0  0  0 
 41 40  1  1  0  0  0 
 41 42  1  6  0  0  0 
 41 43  1  0  0  0  0 
 43 44  1  0  0  0  0 
 43 45  1  0  0  0  0 
 43 46  1  0  0  0  0 
 46 47  1  6  0  0  0 
 46 48  1  0  0  0  0 
 48 49  1  1  0  0  0 
 48 50  1  0  0  0  0 
 41 50  1  0  0  0  0 
 50 51  1  1  0  0  0 
 50 52  1  6  0  0  0 
 52 53  1  0  0  0  0 
 48 54  1  6  0  0  0 
 54 55  1  0  0  0  0 
 46 56  1  1  0  0  0 
 56 57  1  0  0  0  0 
 57 58  1  0  0  0  0 
 57 59  1  0  0  0  0 
 57 60  1  0  0  0  0 
 60 61  1  0  0  0  0 
 60 62  2  0  0  0  0 
M  END
> <Rank>
4

> <Priority_score>
0.664

> <Reaction_type>
alcohol oxidation

> <Parent_ID>
20

> <Parent_InChI>
InChI=1S/C23H28F2N6O4S/c1-2-7-36-23-27-21(26-15-9-12(15)11-3-4-13(24)14(25)8-11)18-22(28-23)31(30-29-18)16-10-17(35-6-5-32)20(34)19(16)33/h3-4,8,12,15-17,19-20,32-34H,2,5-7,9-10H2,1H3,(H,26,27,28)

> <Parent_SMILES>
CCCSc1nc(N[C@@H]2C[C@H]2c2ccc(F)c(F)c2)c2nnn([C@@H]3C[C@H](OCCO)[C@@H](O)[C@H]3O)c2n1

$$$$
Molecule 20_metabolite 5
  CDK     0516241031

 63 67  0  0  0  0  0  0  0  0999 V2000
   -7.9700   -0.6980    0.0000 C   0  0  0  0  0  0  0  0  0  0  0  0
   -9.2655   -1.4541    0.0000 H   0  0  0  0  0  0  0  0  0  0  0  0
   -7.0112    0.4555    0.0000 H   0  0  0  0  0  0  0  0  0  0  0  0
   -8.9396    0.4465    0.0000 H   0  0  0  0  0  0  0  0  0  0  0  0
   -6.6674   -1.4419    0.0000 C   0  0  0  0  0  0  0  0  0  0  0  0
   -7.6262   -2.5955    0.0000 H   0  0  0  0  0  0  0  0  0  0  0  0
   -5.6979   -2.5865    0.0000 H   0  0  0  0  0  0  0  0  0  0  0  0
   -5.3719   -0.6858    0.0000 C   0  0  0  0  0  0  0  0  0  0  0  0
   -3.8960   -0.4184    0.0000 H   0  0  0  0  0  0  0  0  0  0  0  0
   -4.8523   -2.0930    0.0000 H   0  0  0  0  0  0  0  0  0  0  0  0
   -5.3790    0.8141    0.0000 S   0  0  0  0  0  0  0  0  0  0  0  0
   -4.0835    1.5702    0.0000 C   0  0  0  0  0  0  0  0  0  0  0  0
   -4.0835    3.0748    0.0000 N   0  0  0  0  0  0  0  0  0  0  0  0
   -2.8096    3.8253    0.0000 C   0  0  0  0  0  0  0  0  0  0  0  0
   -1.4949    3.0826    0.0000 C   0  0  0  0  0  0  0  0  0  0  0  0
   -1.4975    1.6140    0.0000 C   0  0  0  0  0  0  0  0  0  0  0  0
   -2.7687    0.8276    0.0000 N   0  0  0  0  0  0  0  0  0  0  0  0
   -0.1879    0.8827    0.0000 N   0  0  0  0  0  0  0  0  0  0  0  0
   -0.1664   -0.6171    0.0000 H   0  0  0  0  0  0  0  0  0  0  0  0
    1.1003    1.6512    0.0000 C   0  0  2  0  0  0  0  0  0  0  0  0
    0.5670    3.0532    0.0000 H   0  0  0  0  0  0  0  0  0  0  0  0
    2.0812    0.5154    0.0000 C   0  0  0  0  0  0  0  0  0  0  0  0
    3.3911   -0.2155    0.0000 H   0  0  0  0  0  0  0  0  0  0  0  0
    1.1337   -0.6475    0.0000 H   0  0  0  0  0  0  0  0  0  0  0  0
    2.5735    1.9332    0.0000 C   0  0  1  0  0  0  0  0  0  0  0  0
    2.5516    3.4330    0.0000 H   0  0  0  0  0  0  0  0  0  0  0  0
    4.5283    1.6181    0.0000 C   0  0  0  0  0  0  0  0  0  0  0  0
    5.0626    0.2156    0.0000 C   0  0  0  0  0  0  0  0  0  0  0  0
    4.1153   -0.9474    0.0000 H   0  0  0  0  0  0  0  0  0  0  0  0
    6.5442   -0.0239    0.0000 C   0  0  0  0  0  0  0  0  0  0  0  0
    7.0775   -1.4259    0.0000 H   0  0  0  0  0  0  0  0  0  0  0  0
    7.4915    1.1391    0.0000 C   0  0  0  0  0  0  0  0  0  0  0  0
    6.9572    2.5416    0.0000 C   0  0  0  0  0  0  0  0  0  0  0  0
    5.4756    2.7811    0.0000 C   0  0  0  0  0  0  0  0  0  0  0  0
    4.9423    4.1831    0.0000 H   0  0  0  0  0  0  0  0  0  0  0  0
    7.9046    3.7046    0.0000 F   0  0  0  0  0  0  0  0  0  0  0  0
    8.9724    0.9004    0.0000 F   0  0  0  0  0  0  0  0  0  0  0  0
   -0.4047    4.0977    0.0000 N   0  0  0  0  0  0  0  0  0  0  0  0
   -1.0341    5.4639    0.0000 N   0  0  0  0  0  0  0  0  0  0  0  0
   -2.5204    5.2929    0.0000 N   0  0  0  0  0  0  0  0  0  0  0  0
   -3.5378    6.3951    0.0000 C   0  0  2  0  0  0  0  0  0  0  0  0
   -4.5251    5.2658    0.0000 H   0  0  0  0  0  0  0  0  0  0  0  0
   -4.7678    7.2573    0.0000 C   0  0  0  0  0  0  0  0  0  0  0  0
   -5.5009    5.9487    0.0000 H   0  0  0  0  0  0  0  0  0  0  0  0
   -6.1436    7.8550    0.0000 H   0  0  0  0  0  0  0  0  0  0  0  0
   -4.3110    8.6883    0.0000 C   0  0  1  0  0  0  0  0  0  0  0  0
   -5.7805    8.9893    0.0000 H   0  0  0  0  0  0  0  0  0  0  0  0
   -2.8184    8.7060    0.0000 C   0  0  2  0  0  0  0  0  0  0  0  0
   -2.9925   10.1959    0.0000 H   0  0  0  0  0  0  0  0  0  0  0  0
   -2.3392    7.2846    0.0000 C   0  0  1  0  0  0  0  0  0  0  0  0
   -0.9755    7.9094    0.0000 H   0  0  0  0  0  0  0  0  0  0  0  0
   -1.5757    5.9935    0.0000 O   0  0  0  0  0  0  0  0  0  0  0  0
   -0.0758    6.0091    0.0000 H   0  0  0  0  0  0  0  0  0  0  0  0
   -1.3548    9.0344    0.0000 O   0  0  0  0  0  0  0  0  0  0  0  0
   -0.9075   10.4662    0.0000 H   0  0  0  0  0  0  0  0  0  0  0  0
   -4.1686   10.1815    0.0000 O   0  0  0  0  0  0  0  0  0  0  0  0
   -5.3905   11.0514    0.0000 C   0  0  0  0  0  0  0  0  0  0  0  0
   -6.0351    9.6969    0.0000 H   0  0  0  0  0  0  0  0  0  0  0  0
   -6.8364   11.4509    0.0000 H   0  0  0  0  0  0  0  0  0  0  0  0
   -5.2481   12.5446    0.0000 C   0  0  0  0  0  0  0  0  0  0  0  0
   -3.8838   13.1679    0.0000 O   0  0  0  0  0  0  0  0  0  0  0  0
   -6.4701   13.4146    0.0000 O   0  0  0  0  0  0  0  0  0  0  0  0
   -6.3277   14.9078    0.0000 H   0  0  0  0  0  0  0  0  0  0  0  0
  1  2  1  0  0  0  0 
  1  3  1  0  0  0  0 
  1  4  1  0  0  0  0 
  1  5  1  0  0  0  0 
  5  6  1  0  0  0  0 
  5  7  1  0  0  0  0 
  5  8  1  0  0  0  0 
  8  9  1  0  0  0  0 
  8 10  1  0  0  0  0 
  8 11  1  0  0  0  0 
 11 12  1  0  0  0  0 
 12 13  2  0  0  0  0 
 13 14  1  0  0  0  0 
 14 15  2  0  0  0  0 
 15 16  1  0  0  0  0 
 16 17  2  0  0  0  0 
 12 17  1  0  0  0  0 
 16 18  1  0  0  0  0 
 18 19  1  0  0  0  0 
 20 18  1  1  0  0  0 
 20 21  1  6  0  0  0 
 20 22  1  0  0  0  0 
 22 23  1  0  0  0  0 
 22 24  1  0  0  0  0 
 22 25  1  0  0  0  0 
 20 25  1  0  0  0  0 
 25 26  1  1  0  0  0 
 25 27  1  6  0  0  0 
 27 28  2  0  0  0  0 
 28 29  1  0  0  0  0 
 28 30  1  0  0  0  0 
 30 31  1  0  0  0  0 
 30 32  2  0  0  0  0 
 32 33  1  0  0  0  0 
 33 34  2  0  0  0  0 
 27 34  1  0  0  0  0 
 34 35  1  0  0  0  0 
 33 36  1  0  0  0  0 
 32 37  1  0  0  0  0 
 15 38  1  0  0  0  0 
 38 39  2  0  0  0  0 
 39 40  1  0  0  0  0 
 14 40  1  0  0  0  0 
 41 40  1  6  0  0  0 
 41 42  1  1  0  0  0 
 41 43  1  0  0  0  0 
 43 44  1  0  0  0  0 
 43 45  1  0  0  0  0 
 43 46  1  0  0  0  0 
 46 47  1  1  0  0  0 
 46 48  1  0  0  0  0 
 48 49  1  6  0  0  0 
 48 50  1  0  0  0  0 
 41 50  1  0  0  0  0 
 50 51  1  6  0  0  0 
 50 52  1  1  0  0  0 
 52 53  1  0  0  0  0 
 48 54  1  1  0  0  0 
 54 55  1  0  0  0  0 
 46 56  1  6  0  0  0 
 56 57  1  0  0  0  0 
 57 58  1  0  0  0  0 
 57 59  1  0  0  0  0 
 57 60  1  0  0  0  0 
 60 61  2  0  0  0  0 
 60 62  1  0  0  0  0 
 62 63  1  0  0  0  0 
M  END
> <Rank>
4

> <Priority_score>
0.664

> <Reaction_type>
primary_alcohol_oxidation_(aliphatic)

> <Parent_ID>
20

> <Parent_InChI>
InChI=1S/C23H28F2N6O4S/c1-2-7-36-23-27-21(26-15-9-12(15)11-3-4-13(24)14(25)8-11)18-22(28-23)31(30-29-18)16-10-17(35-6-5-32)20(34)19(16)33/h3-4,8,12,15-17,19-20,32-34H,2,5-7,9-10H2,1H3,(H,26,27,28)

> <Parent_SMILES>
CCCSc1nc(N[C@@H]2C[C@H]2c2ccc(F)c(F)c2)c2nnn([C@@H]3C[C@H](OCCO)[C@@H](O)[C@H]3O)c2n1

$$$$
Molecule 20_metabolite 6
  CDK     0516241031

 65 69  0  0  0  0  0  0  0  0999 V2000
   -7.9700   -0.6980    0.0000 C   0  0  0  0  0  0  0  0  0  0  0  0
   -9.2655   -1.4541    0.0000 H   0  0  0  0  0  0  0  0  0  0  0  0
   -7.0112    0.4555    0.0000 H   0  0  0  0  0  0  0  0  0  0  0  0
   -8.9396    0.4465    0.0000 H   0  0  0  0  0  0  0  0  0  0  0  0
   -6.6674   -1.4419    0.0000 C   0  0  0  0  0  0  0  0  0  0  0  0
   -7.6262   -2.5955    0.0000 H   0  0  0  0  0  0  0  0  0  0  0  0
   -5.6979   -2.5865    0.0000 H   0  0  0  0  0  0  0  0  0  0  0  0
   -5.3719   -0.6858    0.0000 C   0  0  0  0  0  0  0  0  0  0  0  0
   -3.8960   -0.4184    0.0000 H   0  0  0  0  0  0  0  0  0  0  0  0
   -4.8523   -2.0930    0.0000 H   0  0  0  0  0  0  0  0  0  0  0  0
   -5.3790    0.8141    0.0000 S   0  0  0  0  0  0  0  0  0  0  0  0
   -4.0835    1.5702    0.0000 C   0  0  0  0  0  0  0  0  0  0  0  0
   -4.0835    3.0748    0.0000 N   0  0  0  0  0  0  0  0  0  0  0  0
   -2.8096    3.8253    0.0000 C   0  0  0  0  0  0  0  0  0  0  0  0
   -1.4949    3.0826    0.0000 C   0  0  0  0  0  0  0  0  0  0  0  0
   -1.4975    1.6140    0.0000 C   0  0  0  0  0  0  0  0  0  0  0  0
   -2.7687    0.8276    0.0000 N   0  0  0  0  0  0  0  0  0  0  0  0
   -0.1879    0.8827    0.0000 N   0  0  0  0  0  0  0  0  0  0  0  0
   -0.1664   -0.6171    0.0000 H   0  0  0  0  0  0  0  0  0  0  0  0
    1.1003    1.6512    0.0000 C   0  0  2  0  0  0  0  0  0  0  0  0
    0.5670    3.0532    0.0000 H   0  0  0  0  0  0  0  0  0  0  0  0
    2.0812    0.5154    0.0000 C   0  0  0  0  0  0  0  0  0  0  0  0
    3.3911   -0.2155    0.0000 H   0  0  0  0  0  0  0  0  0  0  0  0
    1.1337   -0.6475    0.0000 H   0  0  0  0  0  0  0  0  0  0  0  0
    2.5735    1.9332    0.0000 C   0  0  1  0  0  0  0  0  0  0  0  0
    2.5516    3.4330    0.0000 H   0  0  0  0  0  0  0  0  0  0  0  0
    4.5283    1.6181    0.0000 C   0  0  0  0  0  0  0  0  0  0  0  0
    5.0626    0.2156    0.0000 C   0  0  0  0  0  0  0  0  0  0  0  0
    4.1153   -0.9474    0.0000 H   0  0  0  0  0  0  0  0  0  0  0  0
    6.5442   -0.0239    0.0000 C   0  0  0  0  0  0  0  0  0  0  0  0
    7.0775   -1.4259    0.0000 H   0  0  0  0  0  0  0  0  0  0  0  0
    7.4915    1.1391    0.0000 C   0  0  0  0  0  0  0  0  0  0  0  0
    6.9572    2.5416    0.0000 C   0  0  0  0  0  0  0  0  0  0  0  0
    5.4756    2.7811    0.0000 C   0  0  0  0  0  0  0  0  0  0  0  0
    4.9423    4.1831    0.0000 H   0  0  0  0  0  0  0  0  0  0  0  0
    7.9046    3.7046    0.0000 F   0  0  0  0  0  0  0  0  0  0  0  0
    8.9724    0.9004    0.0000 F   0  0  0  0  0  0  0  0  0  0  0  0
   -0.4047    4.0977    0.0000 N   0  0  0  0  0  0  0  0  0  0  0  0
   -1.0341    5.4639    0.0000 N   0  0  0  0  0  0  0  0  0  0  0  0
   -2.5204    5.2929    0.0000 N   0  0  0  0  0  0  0  0  0  0  0  0
   -3.5378    6.3951    0.0000 C   0  0  2  0  0  0  0  0  0  0  0  0
   -4.5251    5.2658    0.0000 H   0  0  0  0  0  0  0  0  0  0  0  0
   -4.7678    7.2573    0.0000 C   0  0  0  0  0  0  0  0  0  0  0  0
   -5.5009    5.9487    0.0000 H   0  0  0  0  0  0  0  0  0  0  0  0
   -6.1436    7.8550    0.0000 H   0  0  0  0  0  0  0  0  0  0  0  0
   -4.3110    8.6883    0.0000 C   0  0  1  0  0  0  0  0  0  0  0  0
   -5.7805    8.9893    0.0000 H   0  0  0  0  0  0  0  0  0  0  0  0
   -2.8184    8.7060    0.0000 C   0  0  2  0  0  0  0  0  0  0  0  0
   -2.9925   10.1959    0.0000 H   0  0  0  0  0  0  0  0  0  0  0  0
   -2.3392    7.2846    0.0000 C   0  0  1  0  0  0  0  0  0  0  0  0
   -0.9755    7.9094    0.0000 H   0  0  0  0  0  0  0  0  0  0  0  0
   -1.5757    5.9935    0.0000 O   0  0  0  0  0  0  0  0  0  0  0  0
   -0.0758    6.0091    0.0000 H   0  0  0  0  0  0  0  0  0  0  0  0
   -1.3548    9.0344    0.0000 O   0  0  0  0  0  0  0  0  0  0  0  0
   -0.9075   10.4662    0.0000 H   0  0  0  0  0  0  0  0  0  0  0  0
   -4.1686   10.1815    0.0000 O   0  0  0  0  0  0  0  0  0  0  0  0
   -5.3905   11.0514    0.0000 C   0  0  0  0  0  0  0  0  0  0  0  0
   -6.0351    9.6969    0.0000 H   0  0  0  0  0  0  0  0  0  0  0  0
   -6.8364   11.4509    0.0000 H   0  0  0  0  0  0  0  0  0  0  0  0
   -5.2481   12.5446    0.0000 C   0  0  0  0  0  0  0  0  0  0  0  0
   -4.6036   13.8991    0.0000 H   0  0  0  0  0  0  0  0  0  0  0  0
   -6.4701   13.4146    0.0000 O   0  0  0  0  0  0  0  0  0  0  0  0
   -6.3277   14.9078    0.0000 H   0  0  0  0  0  0  0  0  0  0  0  0
   -3.8023   12.1451    0.0000 O   0  0  0  0  0  0  0  0  0  0  0  0
   -2.7334   13.1975    0.0000 H   0  0  0  0  0  0  0  0  0  0  0  0
  1  2  1  0  0  0  0 
  1  3  1  0  0  0  0 
  1  4  1  0  0  0  0 
  1  5  1  0  0  0  0 
  5  6  1  0  0  0  0 
  5  7  1  0  0  0  0 
  5  8  1  0  0  0  0 
  8  9  1  0  0  0  0 
  8 10  1  0  0  0  0 
  8 11  1  0  0  0  0 
 11 12  1  0  0  0  0 
 12 13  2  0  0  0  0 
 13 14  1  0  0  0  0 
 14 15  2  0  0  0  0 
 15 16  1  0  0  0  0 
 16 17  2  0  0  0  0 
 12 17  1  0  0  0  0 
 16 18  1  0  0  0  0 
 18 19  1  0  0  0  0 
 20 18  1  1  0  0  0 
 20 21  1  6  0  0  0 
 20 22  1  0  0  0  0 
 22 23  1  0  0  0  0 
 22 24  1  0  0  0  0 
 22 25  1  0  0  0  0 
 20 25  1  0  0  0  0 
 25 26  1  1  0  0  0 
 25 27  1  6  0  0  0 
 27 28  2  0  0  0  0 
 28 29  1  0  0  0  0 
 28 30  1  0  0  0  0 
 30 31  1  0  0  0  0 
 30 32  2  0  0  0  0 
 32 33  1  0  0  0  0 
 33 34  2  0  0  0  0 
 27 34  1  0  0  0  0 
 34 35  1  0  0  0  0 
 33 36  1  0  0  0  0 
 32 37  1  0  0  0  0 
 15 38  1  0  0  0  0 
 38 39  2  0  0  0  0 
 39 40  1  0  0  0  0 
 14 40  1  0  0  0  0 
 41 40  1  6  0  0  0 
 41 42  1  1  0  0  0 
 41 43  1  0  0  0  0 
 43 44  1  0  0  0  0 
 43 45  1  0  0  0  0 
 43 46  1  0  0  0  0 
 46 47  1  1  0  0  0 
 46 48  1  0  0  0  0 
 48 49  1  6  0  0  0 
 48 50  1  0  0  0  0 
 41 50  1  0  0  0  0 
 50 51  1  6  0  0  0 
 50 52  1  1  0  0  0 
 52 53  1  0  0  0  0 
 48 54  1  1  0  0  0 
 54 55  1  0  0  0  0 
 46 56  1  6  0  0  0 
 56 57  1  0  0  0  0 
 57 58  1  0  0  0  0 
 57 59  1  0  0  0  0 
 57 60  1  0  0  0  0 
 60 61  1  0  0  0  0 
 60 62  1  0  0  0  0 
 62 63  1  0  0  0  0 
 60 64  1  0  0  0  0 
 64 65  1  0  0  0  0 
M  END
> <Rank>
6

> <Priority_score>
0.66

> <Reaction_type>
aliphatic hydroxylation

> <Parent_ID>
20

> <Parent_InChI>
InChI=1S/C23H28F2N6O4S/c1-2-7-36-23-27-21(26-15-9-12(15)11-3-4-13(24)14(25)8-11)18-22(28-23)31(30-29-18)16-10-17(35-6-5-32)20(34)19(16)33/h3-4,8,12,15-17,19-20,32-34H,2,5-7,9-10H2,1H3,(H,26,27,28)

> <Parent_SMILES>
CCCSc1nc(N[C@@H]2C[C@H]2c2ccc(F)c(F)c2)c2nnn([C@@H]3C[C@H](OCCO)[C@@H](O)[C@H]3O)c2n1

$$$$
Molecule 20_metabolite 7
  CDK     0516241031

 55 59  0  0  0  0  0  0  0  0999 V2000
   -7.9700   -0.6980    0.0000 C   0  0  0  0  0  0  0  0  0  0  0  0
   -9.2655   -1.4541    0.0000 H   0  0  0  0  0  0  0  0  0  0  0  0
   -7.0112    0.4555    0.0000 H   0  0  0  0  0  0  0  0  0  0  0  0
   -8.9396    0.4465    0.0000 H   0  0  0  0  0  0  0  0  0  0  0  0
   -6.6674   -1.4419    0.0000 C   0  0  0  0  0  0  0  0  0  0  0  0
   -7.6262   -2.5955    0.0000 H   0  0  0  0  0  0  0  0  0  0  0  0
   -5.6979   -2.5865    0.0000 H   0  0  0  0  0  0  0  0  0  0  0  0
   -5.3719   -0.6858    0.0000 C   0  0  0  0  0  0  0  0  0  0  0  0
   -3.8960   -0.4184    0.0000 H   0  0  0  0  0  0  0  0  0  0  0  0
   -4.8523   -2.0930    0.0000 H   0  0  0  0  0  0  0  0  0  0  0  0
   -5.3790    0.8141    0.0000 S   0  0  0  0  0  0  0  0  0  0  0  0
   -4.0835    1.5702    0.0000 C   0  0  0  0  0  0  0  0  0  0  0  0
   -4.0835    3.0748    0.0000 N   0  0  0  0  0  0  0  0  0  0  0  0
   -2.8096    3.8253    0.0000 C   0  0  0  0  0  0  0  0  0  0  0  0
   -1.4949    3.0826    0.0000 C   0  0  0  0  0  0  0  0  0  0  0  0
   -1.4975    1.6140    0.0000 C   0  0  0  0  0  0  0  0  0  0  0  0
   -2.7687    0.8276    0.0000 N   0  0  0  0  0  0  0  0  0  0  0  0
   -0.1879    0.8827    0.0000 N   0  0  0  0  0  0  0  0  0  0  0  0
   -0.1664   -0.6171    0.0000 H   0  0  0  0  0  0  0  0  0  0  0  0
    1.1003    1.6512    0.0000 C   0  0  2  0  0  0  0  0  0  0  0  0
    0.5670    3.0532    0.0000 H   0  0  0  0  0  0  0  0  0  0  0  0
    2.0812    0.5154    0.0000 C   0  0  0  0  0  0  0  0  0  0  0  0
    3.3911   -0.2155    0.0000 H   0  0  0  0  0  0  0  0  0  0  0  0
    1.1337   -0.6475    0.0000 H   0  0  0  0  0  0  0  0  0  0  0  0
    2.5735    1.9332    0.0000 C   0  0  1  0  0  0  0  0  0  0  0  0
    2.5516    3.4330    0.0000 H   0  0  0  0  0  0  0  0  0  0  0  0
    4.5283    1.6181    0.0000 C   0  0  0  0  0  0  0  0  0  0  0  0
    5.0626    0.2156    0.0000 C   0  0  0  0  0  0  0  0  0  0  0  0
    4.1153   -0.9474    0.0000 H   0  0  0  0  0  0  0  0  0  0  0  0
    6.5442   -0.0239    0.0000 C   0  0  0  0  0  0  0  0  0  0  0  0
    7.0775   -1.4259    0.0000 H   0  0  0  0  0  0  0  0  0  0  0  0
    7.4915    1.1391    0.0000 C   0  0  0  0  0  0  0  0  0  0  0  0
    6.9572    2.5416    0.0000 C   0  0  0  0  0  0  0  0  0  0  0  0
    5.4756    2.7811    0.0000 C   0  0  0  0  0  0  0  0  0  0  0  0
    4.9423    4.1831    0.0000 H   0  0  0  0  0  0  0  0  0  0  0  0
    7.9046    3.7046    0.0000 F   0  0  0  0  0  0  0  0  0  0  0  0
    8.9724    0.9004    0.0000 F   0  0  0  0  0  0  0  0  0  0  0  0
   -0.4047    4.0977    0.0000 N   0  0  0  0  0  0  0  0  0  0  0  0
   -1.0341    5.4639    0.0000 N   0  0  0  0  0  0  0  0  0  0  0  0
   -2.5204    5.2929    0.0000 N   0  0  0  0  0  0  0  0  0  0  0  0
   -3.5378    6.3951    0.0000 C   0  0  2  0  0  0  0  0  0  0  0  0
   -4.5251    5.2658    0.0000 H   0  0  0  0  0  0  0  0  0  0  0  0
   -4.7678    7.2573    0.0000 C   0  0  0  0  0  0  0  0  0  0  0  0
   -5.5009    5.9487    0.0000 H   0  0  0  0  0  0  0  0  0  0  0  0
   -6.1436    7.8550    0.0000 H   0  0  0  0  0  0  0  0  0  0  0  0
   -4.3110    8.6883    0.0000 C   0  0  0  0  0  0  0  0  0  0  0  0
   -5.2030    9.8942    0.0000 O   0  0  0  0  0  0  0  0  0  0  0  0
   -2.8184    8.7060    0.0000 C   0  0  2  0  0  0  0  0  0  0  0  0
   -2.9925   10.1959    0.0000 H   0  0  0  0  0  0  0  0  0  0  0  0
   -2.3392    7.2846    0.0000 C   0  0  1  0  0  0  0  0  0  0  0  0
   -0.9755    7.9094    0.0000 H   0  0  0  0  0  0  0  0  0  0  0  0
   -1.5757    5.9935    0.0000 O   0  0  0  0  0  0  0  0  0  0  0  0
   -0.0758    6.0091    0.0000 H   0  0  0  0  0  0  0  0  0  0  0  0
   -1.3548    9.0344    0.0000 O   0  0  0  0  0  0  0  0  0  0  0  0
   -0.9075   10.4662    0.0000 H   0  0  0  0  0  0  0  0  0  0  0  0
  1  2  1  0  0  0  0 
  1  3  1  0  0  0  0 
  1  4  1  0  0  0  0 
  1  5  1  0  0  0  0 
  5  6  1  0  0  0  0 
  5  7  1  0  0  0  0 
  5  8  1  0  0  0  0 
  8  9  1  0  0  0  0 
  8 10  1  0  0  0  0 
  8 11  1  0  0  0  0 
 11 12  1  0  0  0  0 
 12 13  2  0  0  0  0 
 13 14  1  0  0  0  0 
 14 15  2  0  0  0  0 
 15 16  1  0  0  0  0 
 16 17  2  0  0  0  0 
 12 17  1  0  0  0  0 
 16 18  1  0  0  0  0 
 18 19  1  0  0  0  0 
 20 18  1  1  0  0  0 
 20 21  1  6  0  0  0 
 20 22  1  0  0  0  0 
 22 23  1  0  0  0  0 
 22 24  1  0  0  0  0 
 22 25  1  0  0  0  0 
 20 25  1  0  0  0  0 
 25 26  1  1  0  0  0 
 25 27  1  6  0  0  0 
 27 28  2  0  0  0  0 
 28 29  1  0  0  0  0 
 28 30  1  0  0  0  0 
 30 31  1  0  0  0  0 
 30 32  2  0  0  0  0 
 32 33  1  0  0  0  0 
 33 34  2  0  0  0  0 
 27 34  1  0  0  0  0 
 34 35  1  0  0  0  0 
 33 36  1  0  0  0  0 
 32 37  1  0  0  0  0 
 15 38  1  0  0  0  0 
 38 39  2  0  0  0  0 
 39 40  1  0  0  0  0 
 14 40  1  0  0  0  0 
 41 40  1  6  0  0  0 
 41 42  1  1  0  0  0 
 41 43  1  0  0  0  0 
 43 44  1  0  0  0  0 
 43 45  1  0  0  0  0 
 43 46  1  0  0  0  0 
 46 47  2  0  0  0  0 
 46 48  1  0  0  0  0 
 48 49  1  6  0  0  0 
 48 50  1  0  0  0  0 
 41 50  1  0  0  0  0 
 50 51  1  6  0  0  0 
 50 52  1  1  0  0  0 
 52 53  1  0  0  0  0 
 48 54  1  1  0  0  0 
 54 55  1  0  0  0  0 
M  END
> <Rank>
7

> <Priority_score>
0.624

> <Reaction_type>
oxidative ether cleavage to one alcohol and one aldehyde/ketone

> <Parent_ID>
20

> <Parent_InChI>
InChI=1S/C23H28F2N6O4S/c1-2-7-36-23-27-21(26-15-9-12(15)11-3-4-13(24)14(25)8-11)18-22(28-23)31(30-29-18)16-10-17(35-6-5-32)20(34)19(16)33/h3-4,8,12,15-17,19-20,32-34H,2,5-7,9-10H2,1H3,(H,26,27,28)

> <Parent_SMILES>
CCCSc1nc(N[C@@H]2C[C@H]2c2ccc(F)c(F)c2)c2nnn([C@@H]3C[C@H](OCCO)[C@@H](O)[C@H]3O)c2n1

$$$$
Molecule 20_metabolite 8
  CDK     0516241031

 65 69  0  0  0  0  0  0  0  0999 V2000
   -7.9700   -0.6980    0.0000 C   0  0  0  0  0  0  0  0  0  0  0  0
   -9.2655   -1.4541    0.0000 H   0  0  0  0  0  0  0  0  0  0  0  0
   -7.0112    0.4555    0.0000 H   0  0  0  0  0  0  0  0  0  0  0  0
   -8.9396    0.4465    0.0000 H   0  0  0  0  0  0  0  0  0  0  0  0
   -6.6674   -1.4419    0.0000 C   0  0  0  0  0  0  0  0  0  0  0  0
   -7.6262   -2.5955    0.0000 H   0  0  0  0  0  0  0  0  0  0  0  0
   -5.6979   -2.5865    0.0000 H   0  0  0  0  0  0  0  0  0  0  0  0
   -5.3719   -0.6858    0.0000 C   0  0  0  0  0  0  0  0  0  0  0  0
   -3.8960   -0.4184    0.0000 H   0  0  0  0  0  0  0  0  0  0  0  0
   -4.8523   -2.0930    0.0000 H   0  0  0  0  0  0  0  0  0  0  0  0
   -5.3790    0.8141    0.0000 S   0  0  0  0  0  0  0  0  0  0  0  0
   -4.0835    1.5702    0.0000 C   0  0  0  0  0  0  0  0  0  0  0  0
   -4.0835    3.0748    0.0000 N   0  0  0  0  0  0  0  0  0  0  0  0
   -2.8096    3.8253    0.0000 C   0  0  0  0  0  0  0  0  0  0  0  0
   -1.4949    3.0826    0.0000 C   0  0  0  0  0  0  0  0  0  0  0  0
   -1.4975    1.6140    0.0000 C   0  0  0  0  0  0  0  0  0  0  0  0
   -2.7687    0.8276    0.0000 N   0  0  0  0  0  0  0  0  0  0  0  0
   -0.1879    0.8827    0.0000 N   0  0  0  0  0  0  0  0  0  0  0  0
   -0.1664   -0.6171    0.0000 H   0  0  0  0  0  0  0  0  0  0  0  0
    1.1003    1.6512    0.0000 C   0  0  2  0  0  0  0  0  0  0  0  0
    0.5670    3.0532    0.0000 H   0  0  0  0  0  0  0  0  0  0  0  0
    2.0812    0.5154    0.0000 C   0  0  0  0  0  0  0  0  0  0  0  0
    3.3911   -0.2155    0.0000 H   0  0  0  0  0  0  0  0  0  0  0  0
    1.1337   -0.6475    0.0000 H   0  0  0  0  0  0  0  0  0  0  0  0
    2.5735    1.9332    0.0000 C   0  0  1  0  0  0  0  0  0  0  0  0
    2.5516    3.4330    0.0000 H   0  0  0  0  0  0  0  0  0  0  0  0
    4.5283    1.6181    0.0000 C   0  0  0  0  0  0  0  0  0  0  0  0
    5.0626    0.2156    0.0000 C   0  0  0  0  0  0  0  0  0  0  0  0
    4.1153   -0.9474    0.0000 H   0  0  0  0  0  0  0  0  0  0  0  0
    6.5442   -0.0239    0.0000 C   0  0  0  0  0  0  0  0  0  0  0  0
    7.0775   -1.4259    0.0000 H   0  0  0  0  0  0  0  0  0  0  0  0
    7.4915    1.1391    0.0000 C   0  0  0  0  0  0  0  0  0  0  0  0
    6.9572    2.5416    0.0000 C   0  0  0  0  0  0  0  0  0  0  0  0
    5.4756    2.7811    0.0000 C   0  0  0  0  0  0  0  0  0  0  0  0
    4.9423    4.1831    0.0000 H   0  0  0  0  0  0  0  0  0  0  0  0
    7.9046    3.7046    0.0000 F   0  0  0  0  0  0  0  0  0  0  0  0
    8.9724    0.9004    0.0000 F   0  0  0  0  0  0  0  0  0  0  0  0
   -0.4047    4.0977    0.0000 N   0  0  0  0  0  0  0  0  0  0  0  0
   -1.0341    5.4639    0.0000 N   0  0  0  0  0  0  0  0  0  0  0  0
   -2.5204    5.2929    0.0000 N   0  0  0  0  0  0  0  0  0  0  0  0
   -3.5378    6.3951    0.0000 C   0  0  2  0  0  0  0  0  0  0  0  0
   -4.5251    5.2658    0.0000 H   0  0  0  0  0  0  0  0  0  0  0  0
   -4.7678    7.2573    0.0000 C   0  0  0  0  0  0  0  0  0  0  0  0
   -5.5009    5.9487    0.0000 H   0  0  0  0  0  0  0  0  0  0  0  0
   -6.1436    7.8550    0.0000 H   0  0  0  0  0  0  0  0  0  0  0  0
   -4.3110    8.6883    0.0000 C   0  0  1  0  0  0  0  0  0  0  0  0
   -5.7805    8.9893    0.0000 H   0  0  0  0  0  0  0  0  0  0  0  0
   -2.8184    8.7060    0.0000 C   0  0  2  0  0  0  0  0  0  0  0  0
   -2.9925   10.1959    0.0000 H   0  0  0  0  0  0  0  0  0  0  0  0
   -2.3392    7.2846    0.0000 C   0  0  1  0  0  0  0  0  0  0  0  0
   -0.9755    7.9094    0.0000 H   0  0  0  0  0  0  0  0  0  0  0  0
   -1.5757    5.9935    0.0000 O   0  0  0  0  0  0  0  0  0  0  0  0
   -0.0758    6.0091    0.0000 H   0  0  0  0  0  0  0  0  0  0  0  0
   -1.3548    9.0344    0.0000 O   0  0  0  0  0  0  0  0  0  0  0  0
   -0.9075   10.4662    0.0000 H   0  0  0  0  0  0  0  0  0  0  0  0
   -4.1686   10.1815    0.0000 O   0  0  0  0  0  0  0  0  0  0  0  0
   -5.3905   11.0514    0.0000 C   0  0  0  0  0  0  0  0  0  0  0  0
   -6.0351    9.6969    0.0000 H   0  0  0  0  0  0  0  0  0  0  0  0
   -5.2481   12.5446    0.0000 C   0  0  0  0  0  0  0  0  0  0  0  0
   -4.6036   13.8991    0.0000 H   0  0  0  0  0  0  0  0  0  0  0  0
   -3.8023   12.1451    0.0000 H   0  0  0  0  0  0  0  0  0  0  0  0
   -6.4701   13.4146    0.0000 O   0  0  0  0  0  0  0  0  0  0  0  0
   -6.3277   14.9078    0.0000 H   0  0  0  0  0  0  0  0  0  0  0  0
   -6.8364   11.4509    0.0000 O   0  0  0  0  0  0  0  0  0  0  0  0
   -7.2133   12.9028    0.0000 H   0  0  0  0  0  0  0  0  0  0  0  0
  1  2  1  0  0  0  0 
  1  3  1  0  0  0  0 
  1  4  1  0  0  0  0 
  1  5  1  0  0  0  0 
  5  6  1  0  0  0  0 
  5  7  1  0  0  0  0 
  5  8  1  0  0  0  0 
  8  9  1  0  0  0  0 
  8 10  1  0  0  0  0 
  8 11  1  0  0  0  0 
 11 12  1  0  0  0  0 
 12 13  2  0  0  0  0 
 13 14  1  0  0  0  0 
 14 15  2  0  0  0  0 
 15 16  1  0  0  0  0 
 16 17  2  0  0  0  0 
 12 17  1  0  0  0  0 
 16 18  1  0  0  0  0 
 18 19  1  0  0  0  0 
 20 18  1  1  0  0  0 
 20 21  1  6  0  0  0 
 20 22  1  0  0  0  0 
 22 23  1  0  0  0  0 
 22 24  1  0  0  0  0 
 22 25  1  0  0  0  0 
 20 25  1  0  0  0  0 
 25 26  1  1  0  0  0 
 25 27  1  6  0  0  0 
 27 28  2  0  0  0  0 
 28 29  1  0  0  0  0 
 28 30  1  0  0  0  0 
 30 31  1  0  0  0  0 
 30 32  2  0  0  0  0 
 32 33  1  0  0  0  0 
 33 34  2  0  0  0  0 
 27 34  1  0  0  0  0 
 34 35  1  0  0  0  0 
 33 36  1  0  0  0  0 
 32 37  1  0  0  0  0 
 15 38  1  0  0  0  0 
 38 39  2  0  0  0  0 
 39 40  1  0  0  0  0 
 14 40  1  0  0  0  0 
 41 40  1  6  0  0  0 
 41 42  1  1  0  0  0 
 41 43  1  0  0  0  0 
 43 44  1  0  0  0  0 
 43 45  1  0  0  0  0 
 43 46  1  0  0  0  0 
 46 47  1  1  0  0  0 
 46 48  1  0  0  0  0 
 48 49  1  6  0  0  0 
 48 50  1  0  0  0  0 
 41 50  1  0  0  0  0 
 50 51  1  6  0  0  0 
 50 52  1  1  0  0  0 
 52 53  1  0  0  0  0 
 48 54  1  1  0  0  0 
 54 55  1  0  0  0  0 
 46 56  1  6  0  0  0 
 56 57  1  0  0  0  0 
 57 58  1  0  0  0  0 
 57 59  1  0  0  0  0 
 59 60  1  0  0  0  0 
 59 61  1  0  0  0  0 
 59 62  1  0  0  0  0 
 62 63  1  0  0  0  0 
 57 64  1  0  0  0  0 
 64 65  1  0  0  0  0 
M  END
> <Rank>
7

> <Priority_score>
0.624

> <Reaction_type>
aliphatic hydroxylation

> <Parent_ID>
20

> <Parent_InChI>
InChI=1S/C23H28F2N6O4S/c1-2-7-36-23-27-21(26-15-9-12(15)11-3-4-13(24)14(25)8-11)18-22(28-23)31(30-29-18)16-10-17(35-6-5-32)20(34)19(16)33/h3-4,8,12,15-17,19-20,32-34H,2,5-7,9-10H2,1H3,(H,26,27,28)

> <Parent_SMILES>
CCCSc1nc(N[C@@H]2C[C@H]2c2ccc(F)c(F)c2)c2nnn([C@@H]3C[C@H](OCCO)[C@@H](O)[C@H]3O)c2n1

$$$$
Molecule 20_metabolite 9
  CDK     0516241031

  8  7  0  0  0  0  0  0  0  0999 V2000
    1.2990   -0.7500    0.0000 C   0  0  0  0  0  0  0  0  0  0  0  0
    0.0000    0.0000    0.0000 H   0  0  0  0  0  0  0  0  0  0  0  0
    1.2990   -2.2500    0.0000 O   0  0  0  0  0  0  0  0  0  0  0  0
    2.5981   -0.0000    0.0000 C   0  0  0  0  0  0  0  0  0  0  0  0
    3.5623    1.1491    0.0000 H   0  0  0  0  0  0  0  0  0  0  0  0
    1.6339    1.1491    0.0000 H   0  0  0  0  0  0  0  0  0  0  0  0
    3.8971   -0.7500    0.0000 O   0  0  0  0  0  0  0  0  0  0  0  0
    5.1962   -0.0000    0.0000 H   0  0  0  0  0  0  0  0  0  0  0  0
  1  2  1  0  0  0  0 
  1  3  2  0  0  0  0 
  1  4  1  0  0  0  0 
  4  5  1  0  0  0  0 
  4  6  1  0  0  0  0 
  4  7  1  0  0  0  0 
  7  8  1  0  0  0  0 
M  END
> <Rank>
7

> <Priority_score>
0.624

> <Reaction_type>
oxidative ether cleavage to one alcohol and one aldehyde/ketone

> <Parent_ID>
20

> <Parent_InChI>
InChI=1S/C23H28F2N6O4S/c1-2-7-36-23-27-21(26-15-9-12(15)11-3-4-13(24)14(25)8-11)18-22(28-23)31(30-29-18)16-10-17(35-6-5-32)20(34)19(16)33/h3-4,8,12,15-17,19-20,32-34H,2,5-7,9-10H2,1H3,(H,26,27,28)

> <Parent_SMILES>
CCCSc1nc(N[C@@H]2C[C@H]2c2ccc(F)c(F)c2)c2nnn([C@@H]3C[C@H](OCCO)[C@@H](O)[C@H]3O)c2n1

$$$$
Molecule 20_metabolite 10
  CDK     0516241031

 10  9  0  0  0  0  0  0  0  0999 V2000
    2.5981   -0.0000    0.0000 C   0  0  0  0  0  0  0  0  0  0  0  0
    3.5623    1.1491    0.0000 H   0  0  0  0  0  0  0  0  0  0  0  0
    1.6339    1.1491    0.0000 H   0  0  0  0  0  0  0  0  0  0  0  0
    3.8971   -0.7500    0.0000 C   0  0  0  0  0  0  0  0  0  0  0  0
    2.9329   -1.8991    0.0000 H   0  0  0  0  0  0  0  0  0  0  0  0
    4.8613   -1.8991    0.0000 H   0  0  0  0  0  0  0  0  0  0  0  0
    5.1962   -0.0000    0.0000 O   0  0  0  0  0  0  0  0  0  0  0  0
    6.4952   -0.7500    0.0000 H   0  0  0  0  0  0  0  0  0  0  0  0
    1.2990   -0.7500    0.0000 O   0  0  0  0  0  0  0  0  0  0  0  0
   -0.0000    0.0000    0.0000 H   0  0  0  0  0  0  0  0  0  0  0  0
  1  2  1  0  0  0  0 
  1  3  1  0  0  0  0 
  1  4  1  0  0  0  0 
  4  5  1  0  0  0  0 
  4  6  1  0  0  0  0 
  4  7  1  0  0  0  0 
  7  8  1  0  0  0  0 
  1  9  1  0  0  0  0 
  9 10  1  0  0  0  0 
M  END
> <Rank>
7

> <Priority_score>
0.624

> <Reaction_type>
O-dealkylation_(aliphatic)

> <Parent_ID>
20

> <Parent_InChI>
InChI=1S/C23H28F2N6O4S/c1-2-7-36-23-27-21(26-15-9-12(15)11-3-4-13(24)14(25)8-11)18-22(28-23)31(30-29-18)16-10-17(35-6-5-32)20(34)19(16)33/h3-4,8,12,15-17,19-20,32-34H,2,5-7,9-10H2,1H3,(H,26,27,28)

> <Parent_SMILES>
CCCSc1nc(N[C@@H]2C[C@H]2c2ccc(F)c(F)c2)c2nnn([C@@H]3C[C@H](OCCO)[C@@H](O)[C@H]3O)c2n1

$$$$
Molecule 20_metabolite 11
  CDK     0516241031

 57 61  0  0  0  0  0  0  0  0999 V2000
   -7.9700   -0.6980    0.0000 C   0  0  0  0  0  0  0  0  0  0  0  0
   -9.2655   -1.4541    0.0000 H   0  0  0  0  0  0  0  0  0  0  0  0
   -7.0112    0.4555    0.0000 H   0  0  0  0  0  0  0  0  0  0  0  0
   -8.9396    0.4465    0.0000 H   0  0  0  0  0  0  0  0  0  0  0  0
   -6.6674   -1.4419    0.0000 C   0  0  0  0  0  0  0  0  0  0  0  0
   -7.6262   -2.5955    0.0000 H   0  0  0  0  0  0  0  0  0  0  0  0
   -5.6979   -2.5865    0.0000 H   0  0  0  0  0  0  0  0  0  0  0  0
   -5.3719   -0.6858    0.0000 C   0  0  0  0  0  0  0  0  0  0  0  0
   -3.8960   -0.4184    0.0000 H   0  0  0  0  0  0  0  0  0  0  0  0
   -4.8523   -2.0930    0.0000 H   0  0  0  0  0  0  0  0  0  0  0  0
   -5.3790    0.8141    0.0000 S   0  0  0  0  0  0  0  0  0  0  0  0
   -4.0835    1.5702    0.0000 C   0  0  0  0  0  0  0  0  0  0  0  0
   -4.0835    3.0748    0.0000 N   0  0  0  0  0  0  0  0  0  0  0  0
   -2.8096    3.8253    0.0000 C   0  0  0  0  0  0  0  0  0  0  0  0
   -1.4949    3.0826    0.0000 C   0  0  0  0  0  0  0  0  0  0  0  0
   -1.4975    1.6140    0.0000 C   0  0  0  0  0  0  0  0  0  0  0  0
   -2.7687    0.8276    0.0000 N   0  0  0  0  0  0  0  0  0  0  0  0
   -0.1879    0.8827    0.0000 N   0  0  0  0  0  0  0  0  0  0  0  0
   -0.1664   -0.6171    0.0000 H   0  0  0  0  0  0  0  0  0  0  0  0
    1.1003    1.6512    0.0000 C   0  0  2  0  0  0  0  0  0  0  0  0
    0.5670    3.0532    0.0000 H   0  0  0  0  0  0  0  0  0  0  0  0
    2.0812    0.5154    0.0000 C   0  0  0  0  0  0  0  0  0  0  0  0
    3.3911   -0.2155    0.0000 H   0  0  0  0  0  0  0  0  0  0  0  0
    1.1337   -0.6475    0.0000 H   0  0  0  0  0  0  0  0  0  0  0  0
    2.5735    1.9332    0.0000 C   0  0  1  0  0  0  0  0  0  0  0  0
    2.5516    3.4330    0.0000 H   0  0  0  0  0  0  0  0  0  0  0  0
    4.5283    1.6181    0.0000 C   0  0  0  0  0  0  0  0  0  0  0  0
    5.0626    0.2156    0.0000 C   0  0  0  0  0  0  0  0  0  0  0  0
    4.1153   -0.9474    0.0000 H   0  0  0  0  0  0  0  0  0  0  0  0
    6.5442   -0.0239    0.0000 C   0  0  0  0  0  0  0  0  0  0  0  0
    7.0775   -1.4259    0.0000 H   0  0  0  0  0  0  0  0  0  0  0  0
    7.4915    1.1391    0.0000 C   0  0  0  0  0  0  0  0  0  0  0  0
    6.9572    2.5416    0.0000 C   0  0  0  0  0  0  0  0  0  0  0  0
    5.4756    2.7811    0.0000 C   0  0  0  0  0  0  0  0  0  0  0  0
    4.9423    4.1831    0.0000 H   0  0  0  0  0  0  0  0  0  0  0  0
    7.9046    3.7046    0.0000 F   0  0  0  0  0  0  0  0  0  0  0  0
    8.9724    0.9004    0.0000 F   0  0  0  0  0  0  0  0  0  0  0  0
   -0.4047    4.0977    0.0000 N   0  0  0  0  0  0  0  0  0  0  0  0
   -1.0341    5.4639    0.0000 N   0  0  0  0  0  0  0  0  0  0  0  0
   -2.5204    5.2929    0.0000 N   0  0  0  0  0  0  0  0  0  0  0  0
   -3.5378    6.3951    0.0000 C   0  0  2  0  0  0  0  0  0  0  0  0
   -4.5251    5.2658    0.0000 H   0  0  0  0  0  0  0  0  0  0  0  0
   -4.7678    7.2573    0.0000 C   0  0  0  0  0  0  0  0  0  0  0  0
   -5.5009    5.9487    0.0000 H   0  0  0  0  0  0  0  0  0  0  0  0
   -6.1436    7.8550    0.0000 H   0  0  0  0  0  0  0  0  0  0  0  0
   -4.3110    8.6883    0.0000 C   0  0  1  0  0  0  0  0  0  0  0  0
   -5.7805    8.9893    0.0000 H   0  0  0  0  0  0  0  0  0  0  0  0
   -2.8184    8.7060    0.0000 C   0  0  2  0  0  0  0  0  0  0  0  0
   -2.9925   10.1959    0.0000 H   0  0  0  0  0  0  0  0  0  0  0  0
   -2.3392    7.2846    0.0000 C   0  0  1  0  0  0  0  0  0  0  0  0
   -0.9755    7.9094    0.0000 H   0  0  0  0  0  0  0  0  0  0  0  0
   -1.5757    5.9935    0.0000 O   0  0  0  0  0  0  0  0  0  0  0  0
   -0.0758    6.0091    0.0000 H   0  0  0  0  0  0  0  0  0  0  0  0
   -1.3548    9.0344    0.0000 O   0  0  0  0  0  0  0  0  0  0  0  0
   -0.9075   10.4662    0.0000 H   0  0  0  0  0  0  0  0  0  0  0  0
   -4.1686   10.1815    0.0000 O   0  0  0  0  0  0  0  0  0  0  0  0
   -5.3905   11.0514    0.0000 H   0  0  0  0  0  0  0  0  0  0  0  0
  1  2  1  0  0  0  0 
  1  3  1  0  0  0  0 
  1  4  1  0  0  0  0 
  1  5  1  0  0  0  0 
  5  6  1  0  0  0  0 
  5  7  1  0  0  0  0 
  5  8  1  0  0  0  0 
  8  9  1  0  0  0  0 
  8 10  1  0  0  0  0 
  8 11  1  0  0  0  0 
 11 12  1  0  0  0  0 
 12 13  2  0  0  0  0 
 13 14  1  0  0  0  0 
 14 15  2  0  0  0  0 
 15 16  1  0  0  0  0 
 16 17  2  0  0  0  0 
 12 17  1  0  0  0  0 
 16 18  1  0  0  0  0 
 18 19  1  0  0  0  0 
 20 18  1  1  0  0  0 
 20 21  1  6  0  0  0 
 20 22  1  0  0  0  0 
 22 23  1  0  0  0  0 
 22 24  1  0  0  0  0 
 22 25  1  0  0  0  0 
 20 25  1  0  0  0  0 
 25 26  1  1  0  0  0 
 25 27  1  6  0  0  0 
 27 28  2  0  0  0  0 
 28 29  1  0  0  0  0 
 28 30  1  0  0  0  0 
 30 31  1  0  0  0  0 
 30 32  2  0  0  0  0 
 32 33  1  0  0  0  0 
 33 34  2  0  0  0  0 
 27 34  1  0  0  0  0 
 34 35  1  0  0  0  0 
 33 36  1  0  0  0  0 
 32 37  1  0  0  0  0 
 15 38  1  0  0  0  0 
 38 39  2  0  0  0  0 
 39 40  1  0  0  0  0 
 14 40  1  0  0  0  0 
 41 40  1  6  0  0  0 
 41 42  1  1  0  0  0 
 41 43  1  0  0  0  0 
 43 44  1  0  0  0  0 
 43 45  1  0  0  0  0 
 43 46  1  0  0  0  0 
 46 47  1  1  0  0  0 
 46 48  1  0  0  0  0 
 48 49  1  6  0  0  0 
 48 50  1  0  0  0  0 
 41 50  1  0  0  0  0 
 50 51  1  6  0  0  0 
 50 52  1  1  0  0  0 
 52 53  1  0  0  0  0 
 48 54  1  1  0  0  0 
 54 55  1  0  0  0  0 
 46 56  1  6  0  0  0 
 56 57  1  0  0  0  0 
M  END
> <Rank>
7

> <Priority_score>
0.624

> <Reaction_type>
O-dealkylation_(aliphatic)

> <Parent_ID>
20

> <Parent_InChI>
InChI=1S/C23H28F2N6O4S/c1-2-7-36-23-27-21(26-15-9-12(15)11-3-4-13(24)14(25)8-11)18-22(28-23)31(30-29-18)16-10-17(35-6-5-32)20(34)19(16)33/h3-4,8,12,15-17,19-20,32-34H,2,5-7,9-10H2,1H3,(H,26,27,28)

> <Parent_SMILES>
CCCSc1nc(N[C@@H]2C[C@H]2c2ccc(F)c(F)c2)c2nnn([C@@H]3C[C@H](OCCO)[C@@H](O)[C@H]3O)c2n1

$$$$
Molecule 20_metabolite 12
  CDK     0516241031

 18 19  0  0  0  0  0  0  0  0999 V2000
    0.8444    0.4724    0.0000 C   0  0  0  0  0  0  0  0  0  0  0  0
    0.0942   -0.8266    0.0000 H   0  0  0  0  0  0  0  0  0  0  0  0
    0.0944    1.7724    0.0000 C   0  0  0  0  0  0  0  0  0  0  0  0
    0.8444    3.0724    0.0000 C   0  0  0  0  0  0  0  0  0  0  0  0
    0.0942    4.3713    0.0000 H   0  0  0  0  0  0  0  0  0  0  0  0
    2.3444    3.0724    0.0000 C   0  0  0  0  0  0  0  0  0  0  0  0
    3.0944    1.7724    0.0000 C   0  0  0  0  0  0  0  0  0  0  0  0
    2.3444    0.4724    0.0000 C   0  0  0  0  0  0  0  0  0  0  0  0
    3.0946   -0.8266    0.0000 H   0  0  0  0  0  0  0  0  0  0  0  0
    4.5944    1.7724    0.0000 F   0  0  0  0  0  0  0  0  0  0  0  0
    3.0946    4.3713    0.0000 F   0  0  0  0  0  0  0  0  0  0  0  0
   -1.8856    1.7724    0.0000 C   0  0  2  0  0  0  0  0  0  0  0  0
   -2.1459    3.2496    0.0000 H   0  0  0  0  0  0  0  0  0  0  0  0
   -2.1460    0.2943    0.0000 C   0  0  0  0  0  0  0  0  0  0  0  0
   -2.8965   -1.0045    0.0000 H   0  0  0  0  0  0  0  0  0  0  0  0
   -0.7366   -0.2189    0.0000 H   0  0  0  0  0  0  0  0  0  0  0  0
   -3.2952    1.2596    0.0000 C   0  0  0  0  0  0  0  0  0  0  0  0
   -4.7724    1.5206    0.0000 O   0  0  0  0  0  0  0  0  0  0  0  0
  1  2  1  0  0  0  0 
  1  3  2  0  0  0  0 
  3  4  1  0  0  0  0 
  4  5  1  0  0  0  0 
  4  6  2  0  0  0  0 
  6  7  1  0  0  0  0 
  7  8  2  0  0  0  0 
  1  8  1  0  0  0  0 
  8  9  1  0  0  0  0 
  7 10  1  0  0  0  0 
  6 11  1  0  0  0  0 
 12  3  1  6  0  0  0 
 12 13  1  1  0  0  0 
 12 14  1  0  0  0  0 
 14 15  1  0  0  0  0 
 14 16  1  0  0  0  0 
 14 17  1  0  0  0  0 
 12 17  1  0  0  0  0 
 17 18  2  0  0  0  0 
M  END
> <Rank>
12

> <Priority_score>
0.496

> <Reaction_type>
N-dealkylation

> <Parent_ID>
20

> <Parent_InChI>
InChI=1S/C23H28F2N6O4S/c1-2-7-36-23-27-21(26-15-9-12(15)11-3-4-13(24)14(25)8-11)18-22(28-23)31(30-29-18)16-10-17(35-6-5-32)20(34)19(16)33/h3-4,8,12,15-17,19-20,32-34H,2,5-7,9-10H2,1H3,(H,26,27,28)

> <Parent_SMILES>
CCCSc1nc(N[C@@H]2C[C@H]2c2ccc(F)c(F)c2)c2nnn([C@@H]3C[C@H](OCCO)[C@@H](O)[C@H]3O)c2n1

$$$$
Molecule 20_metabolite 13
  CDK     0516241031

 47 49  0  0  0  0  0  0  0  0999 V2000
   -7.4961   -0.7744    0.0000 C   0  0  0  0  0  0  0  0  0  0  0  0
   -7.5031    0.7256    0.0000 H   0  0  0  0  0  0  0  0  0  0  0  0
   -8.0025   -2.1864    0.0000 H   0  0  0  0  0  0  0  0  0  0  0  0
   -8.9745   -0.5209    0.0000 H   0  0  0  0  0  0  0  0  0  0  0  0
   -6.1935   -1.5183    0.0000 C   0  0  0  0  0  0  0  0  0  0  0  0
   -7.1523   -2.6719    0.0000 H   0  0  0  0  0  0  0  0  0  0  0  0
   -5.2240   -2.6628    0.0000 H   0  0  0  0  0  0  0  0  0  0  0  0
   -4.8980   -0.7622    0.0000 C   0  0  0  0  0  0  0  0  0  0  0  0
   -3.9393    0.3914    0.0000 H   0  0  0  0  0  0  0  0  0  0  0  0
   -5.8676    0.3823    0.0000 H   0  0  0  0  0  0  0  0  0  0  0  0
   -3.5955   -1.5061    0.0000 S   0  0  0  0  0  0  0  0  0  0  0  0
   -2.3000   -0.7500    0.0000 C   0  0  0  0  0  0  0  0  0  0  0  0
   -0.9900   -1.4900    0.0000 N   0  0  0  0  0  0  0  0  0  0  0  0
    0.2900   -0.7500    0.0000 C   0  0  0  0  0  0  0  0  0  0  0  0
    0.2900    0.7600    0.0000 C   0  0  0  0  0  0  0  0  0  0  0  0
   -0.9900    1.4800    0.0000 C   0  0  0  0  0  0  0  0  0  0  0  0
   -2.3000    0.7600    0.0000 N   0  0  0  0  0  0  0  0  0  0  0  0
   -0.9826    2.9800    0.0000 N   0  0  0  0  0  0  0  0  0  0  0  0
    0.3201    3.7236    0.0000 H   0  0  0  0  0  0  0  0  0  0  0  0
   -2.2780    3.7364    0.0000 H   0  0  0  0  0  0  0  0  0  0  0  0
    1.7100    1.2100    0.0000 N   0  0  0  0  0  0  0  0  0  0  0  0
    2.5900   -0.0100    0.0000 N   0  0  0  0  0  0  0  0  0  0  0  0
    1.7100   -1.2200    0.0000 N   0  0  0  0  0  0  0  0  0  0  0  0
    2.1693   -2.6480    0.0000 C   0  0  2  0  0  0  0  0  0  0  0  0
    0.7004   -2.9522    0.0000 H   0  0  0  0  0  0  0  0  0  0  0  0
    2.3151   -4.1429    0.0000 C   0  0  0  0  0  0  0  0  0  0  0  0
    0.8151   -4.1376    0.0000 H   0  0  0  0  0  0  0  0  0  0  0  0
    2.1588   -5.6348    0.0000 H   0  0  0  0  0  0  0  0  0  0  0  0
    3.7857   -4.4490    0.0000 C   0  0  1  0  0  0  0  0  0  0  0  0
    3.3250   -5.8765    0.0000 H   0  0  0  0  0  0  0  0  0  0  0  0
    4.5352   -3.1582    0.0000 C   0  0  2  0  0  0  0  0  0  0  0  0
    5.7468   -4.0425    0.0000 H   0  0  0  0  0  0  0  0  0  0  0  0
    3.5333   -2.0418    0.0000 C   0  0  1  0  0  0  0  0  0  0  0  0
    4.7480   -1.1618    0.0000 H   0  0  0  0  0  0  0  0  0  0  0  0
    2.7847   -0.7420    0.0000 O   0  0  0  0  0  0  0  0  0  0  0  0
    3.5360    0.5562    0.0000 H   0  0  0  0  0  0  0  0  0  0  0  0
    5.5410   -2.0454    0.0000 O   0  0  0  0  0  0  0  0  0  0  0  0
    7.0077   -2.3600    0.0000 H   0  0  0  0  0  0  0  0  0  0  0  0
    5.1558   -5.0594    0.0000 O   0  0  0  0  0  0  0  0  0  0  0  0
    5.3123   -6.5512    0.0000 C   0  0  0  0  0  0  0  0  0  0  0  0
    3.8159   -6.4462    0.0000 H   0  0  0  0  0  0  0  0  0  0  0  0
    4.9490   -8.0066    0.0000 H   0  0  0  0  0  0  0  0  0  0  0  0
    6.6824   -7.1617    0.0000 C   0  0  0  0  0  0  0  0  0  0  0  0
    8.1788   -7.2667    0.0000 H   0  0  0  0  0  0  0  0  0  0  0  0
    7.0457   -5.7063    0.0000 H   0  0  0  0  0  0  0  0  0  0  0  0
    6.8389   -8.6535    0.0000 O   0  0  0  0  0  0  0  0  0  0  0  0
    8.2090   -9.2640    0.0000 H   0  0  0  0  0  0  0  0  0  0  0  0
  1  2  1  0  0  0  0 
  1  3  1  0  0  0  0 
  1  4  1  0  0  0  0 
  1  5  1  0  0  0  0 
  5  6  1  0  0  0  0 
  5  7  1  0  0  0  0 
  5  8  1  0  0  0  0 
  8  9  1  0  0  0  0 
  8 10  1  0  0  0  0 
  8 11  1  0  0  0  0 
 11 12  1  0  0  0  0 
 12 13  2  0  0  0  0 
 13 14  1  0  0  0  0 
 14 15  2  0  0  0  0 
 15 16  1  0  0  0  0 
 16 17  2  0  0  0  0 
 12 17  1  0  0  0  0 
 16 18  1  0  0  0  0 
 18 19  1  0  0  0  0 
 18 20  1  0  0  0  0 
 15 21  1  0  0  0  0 
 21 22  2  0  0  0  0 
 22 23  1  0  0  0  0 
 14 23  1  0  0  0  0 
 24 23  1  1  0  0  0 
 24 25  1  6  0  0  0 
 24 26  1  0  0  0  0 
 26 27  1  0  0  0  0 
 26 28  1  0  0  0  0 
 26 29  1  0  0  0  0 
 29 30  1  6  0  0  0 
 29 31  1  0  0  0  0 
 31 32  1  1  0  0  0 
 31 33  1  0  0  0  0 
 24 33  1  0  0  0  0 
 33 34  1  1  0  0  0 
 33 35  1  6  0  0  0 
 35 36  1  0  0  0  0 
 31 37  1  6  0  0  0 
 37 38  1  0  0  0  0 
 29 39  1  1  0  0  0 
 39 40  1  0  0  0  0 
 40 41  1  0  0  0  0 
 40 42  1  0  0  0  0 
 40 43  1  0  0  0  0 
 43 44  1  0  0  0  0 
 43 45  1  0  0  0  0 
 43 46  1  0  0  0  0 
 46 47  1  0  0  0  0 
M  END
> <Rank>
12

> <Priority_score>
0.496

> <Reaction_type>
N-dealkylation

> <Parent_ID>
20

> <Parent_InChI>
InChI=1S/C23H28F2N6O4S/c1-2-7-36-23-27-21(26-15-9-12(15)11-3-4-13(24)14(25)8-11)18-22(28-23)31(30-29-18)16-10-17(35-6-5-32)20(34)19(16)33/h3-4,8,12,15-17,19-20,32-34H,2,5-7,9-10H2,1H3,(H,26,27,28)

> <Parent_SMILES>
CCCSc1nc(N[C@@H]2C[C@H]2c2ccc(F)c(F)c2)c2nnn([C@@H]3C[C@H](OCCO)[C@@H](O)[C@H]3O)c2n1

$$$$
Molecule 20_metabolite 14
  CDK     0516241031

 65 69  0  0  0  0  0  0  0  0999 V2000
   -7.9700   -0.6980    0.0000 C   0  0  0  0  0  0  0  0  0  0  0  0
   -9.2655   -1.4541    0.0000 H   0  0  0  0  0  0  0  0  0  0  0  0
   -7.0112    0.4555    0.0000 H   0  0  0  0  0  0  0  0  0  0  0  0
   -8.9396    0.4465    0.0000 H   0  0  0  0  0  0  0  0  0  0  0  0
   -6.6674   -1.4419    0.0000 C   0  0  0  0  0  0  0  0  0  0  0  0
   -7.6262   -2.5955    0.0000 H   0  0  0  0  0  0  0  0  0  0  0  0
   -5.6979   -2.5865    0.0000 H   0  0  0  0  0  0  0  0  0  0  0  0
   -5.3719   -0.6858    0.0000 C   0  0  0  0  0  0  0  0  0  0  0  0
   -3.8960   -0.4184    0.0000 H   0  0  0  0  0  0  0  0  0  0  0  0
   -4.8523   -2.0930    0.0000 H   0  0  0  0  0  0  0  0  0  0  0  0
   -5.3790    0.8141    0.0000 S   0  0  0  0  0  0  0  0  0  0  0  0
   -4.0835    1.5702    0.0000 C   0  0  0  0  0  0  0  0  0  0  0  0
   -4.0835    3.0748    0.0000 N   0  0  0  0  0  0  0  0  0  0  0  0
   -2.8096    3.8253    0.0000 C   0  0  0  0  0  0  0  0  0  0  0  0
   -1.4949    3.0826    0.0000 C   0  0  0  0  0  0  0  0  0  0  0  0
   -1.4975    1.6140    0.0000 C   0  0  0  0  0  0  0  0  0  0  0  0
   -2.7687    0.8276    0.0000 N   0  0  0  0  0  0  0  0  0  0  0  0
   -0.1879    0.8827    0.0000 N   0  0  0  0  0  0  0  0  0  0  0  0
   -0.1664   -0.6171    0.0000 H   0  0  0  0  0  0  0  0  0  0  0  0
    1.1003    1.6512    0.0000 C   0  0  2  0  0  0  0  0  0  0  0  0
    2.0812    0.5154    0.0000 C   0  0  0  0  0  0  0  0  0  0  0  0
    3.3911   -0.2155    0.0000 H   0  0  0  0  0  0  0  0  0  0  0  0
    1.1337   -0.6475    0.0000 H   0  0  0  0  0  0  0  0  0  0  0  0
    2.5735    1.9332    0.0000 C   0  0  1  0  0  0  0  0  0  0  0  0
    2.5516    3.4330    0.0000 H   0  0  0  0  0  0  0  0  0  0  0  0
    4.5283    1.6181    0.0000 C   0  0  0  0  0  0  0  0  0  0  0  0
    5.0626    0.2156    0.0000 C   0  0  0  0  0  0  0  0  0  0  0  0
    4.1153   -0.9474    0.0000 H   0  0  0  0  0  0  0  0  0  0  0  0
    6.5442   -0.0239    0.0000 C   0  0  0  0  0  0  0  0  0  0  0  0
    7.0775   -1.4259    0.0000 H   0  0  0  0  0  0  0  0  0  0  0  0
    7.4915    1.1391    0.0000 C   0  0  0  0  0  0  0  0  0  0  0  0
    6.9572    2.5416    0.0000 C   0  0  0  0  0  0  0  0  0  0  0  0
    5.4756    2.7811    0.0000 C   0  0  0  0  0  0  0  0  0  0  0  0
    4.9423    4.1831    0.0000 H   0  0  0  0  0  0  0  0  0  0  0  0
    7.9046    3.7046    0.0000 F   0  0  0  0  0  0  0  0  0  0  0  0
    8.9724    0.9004    0.0000 F   0  0  0  0  0  0  0  0  0  0  0  0
    0.5670    3.0532    0.0000 O   0  0  0  0  0  0  0  0  0  0  0  0
    1.5145    4.2161    0.0000 H   0  0  0  0  0  0  0  0  0  0  0  0
   -0.4047    4.0977    0.0000 N   0  0  0  0  0  0  0  0  0  0  0  0
   -1.0341    5.4639    0.0000 N   0  0  0  0  0  0  0  0  0  0  0  0
   -2.5204    5.2929    0.0000 N   0  0  0  0  0  0  0  0  0  0  0  0
   -3.5378    6.3951    0.0000 C   0  0  2  0  0  0  0  0  0  0  0  0
   -4.5251    5.2658    0.0000 H   0  0  0  0  0  0  0  0  0  0  0  0
   -4.7678    7.2573    0.0000 C   0  0  0  0  0  0  0  0  0  0  0  0
   -5.5009    5.9487    0.0000 H   0  0  0  0  0  0  0  0  0  0  0  0
   -6.1436    7.8550    0.0000 H   0  0  0  0  0  0  0  0  0  0  0  0
   -4.3110    8.6883    0.0000 C   0  0  1  0  0  0  0  0  0  0  0  0
   -5.7805    8.9893    0.0000 H   0  0  0  0  0  0  0  0  0  0  0  0
   -2.8184    8.7060    0.0000 C   0  0  2  0  0  0  0  0  0  0  0  0
   -2.9925   10.1959    0.0000 H   0  0  0  0  0  0  0  0  0  0  0  0
   -2.3392    7.2846    0.0000 C   0  0  1  0  0  0  0  0  0  0  0  0
   -0.9755    7.9094    0.0000 H   0  0  0  0  0  0  0  0  0  0  0  0
   -1.5757    5.9935    0.0000 O   0  0  0  0  0  0  0  0  0  0  0  0
   -0.0758    6.0091    0.0000 H   0  0  0  0  0  0  0  0  0  0  0  0
   -1.3548    9.0344    0.0000 O   0  0  0  0  0  0  0  0  0  0  0  0
   -0.9075   10.4662    0.0000 H   0  0  0  0  0  0  0  0  0  0  0  0
   -4.1686   10.1815    0.0000 O   0  0  0  0  0  0  0  0  0  0  0  0
   -5.3905   11.0514    0.0000 C   0  0  0  0  0  0  0  0  0  0  0  0
   -6.0351    9.6969    0.0000 H   0  0  0  0  0  0  0  0  0  0  0  0
   -6.8364   11.4509    0.0000 H   0  0  0  0  0  0  0  0  0  0  0  0
   -5.2481   12.5446    0.0000 C   0  0  0  0  0  0  0  0  0  0  0  0
   -4.6036   13.8991    0.0000 H   0  0  0  0  0  0  0  0  0  0  0  0
   -3.8023   12.1451    0.0000 H   0  0  0  0  0  0  0  0  0  0  0  0
   -6.4701   13.4146    0.0000 O   0  0  0  0  0  0  0  0  0  0  0  0
   -6.3277   14.9078    0.0000 H   0  0  0  0  0  0  0  0  0  0  0  0
  1  2  1  0  0  0  0 
  1  3  1  0  0  0  0 
  1  4  1  0  0  0  0 
  1  5  1  0  0  0  0 
  5  6  1  0  0  0  0 
  5  7  1  0  0  0  0 
  5  8  1  0  0  0  0 
  8  9  1  0  0  0  0 
  8 10  1  0  0  0  0 
  8 11  1  0  0  0  0 
 11 12  1  0  0  0  0 
 12 13  2  0  0  0  0 
 13 14  1  0  0  0  0 
 14 15  2  0  0  0  0 
 15 16  1  0  0  0  0 
 16 17  2  0  0  0  0 
 12 17  1  0  0  0  0 
 16 18  1  0  0  0  0 
 18 19  1  0  0  0  0 
 20 18  1  1  0  0  0 
 20 21  1  0  0  0  0 
 21 22  1  0  0  0  0 
 21 23  1  0  0  0  0 
 21 24  1  0  0  0  0 
 20 24  1  0  0  0  0 
 24 25  1  1  0  0  0 
 24 26  1  6  0  0  0 
 26 27  2  0  0  0  0 
 27 28  1  0  0  0  0 
 27 29  1  0  0  0  0 
 29 30  1  0  0  0  0 
 29 31  2  0  0  0  0 
 31 32  1  0  0  0  0 
 32 33  2  0  0  0  0 
 26 33  1  0  0  0  0 
 33 34  1  0  0  0  0 
 32 35  1  0  0  0  0 
 31 36  1  0  0  0  0 
 20 37  1  6  0  0  0 
 37 38  1  0  0  0  0 
 15 39  1  0  0  0  0 
 39 40  2  0  0  0  0 
 40 41  1  0  0  0  0 
 14 41  1  0  0  0  0 
 42 41  1  6  0  0  0 
 42 43  1  1  0  0  0 
 42 44  1  0  0  0  0 
 44 45  1  0  0  0  0 
 44 46  1  0  0  0  0 
 44 47  1  0  0  0  0 
 47 48  1  1  0  0  0 
 47 49  1  0  0  0  0 
 49 50  1  6  0  0  0 
 49 51  1  0  0  0  0 
 42 51  1  0  0  0  0 
 51 52  1  6  0  0  0 
 51 53  1  1  0  0  0 
 53 54  1  0  0  0  0 
 49 55  1  1  0  0  0 
 55 56  1  0  0  0  0 
 47 57  1  6  0  0  0 
 57 58  1  0  0  0  0 
 58 59  1  0  0  0  0 
 58 60  1  0  0  0  0 
 58 61  1  0  0  0  0 
 61 62  1  0  0  0  0 
 61 63  1  0  0  0  0 
 61 64  1  0  0  0  0 
 64 65  1  0  0  0  0 
M  END
> <Rank>
12

> <Priority_score>
0.496

> <Reaction_type>
aliphatic_hydroxylation_(tert_carbon_next_to_SP2)

> <Parent_ID>
20

> <Parent_InChI>
InChI=1S/C23H28F2N6O4S/c1-2-7-36-23-27-21(26-15-9-12(15)11-3-4-13(24)14(25)8-11)18-22(28-23)31(30-29-18)16-10-17(35-6-5-32)20(34)19(16)33/h3-4,8,12,15-17,19-20,32-34H,2,5-7,9-10H2,1H3,(H,26,27,28)

> <Parent_SMILES>
CCCSc1nc(N[C@@H]2C[C@H]2c2ccc(F)c(F)c2)c2nnn([C@@H]3C[C@H](OCCO)[C@@H](O)[C@H]3O)c2n1

$$$$
Molecule 20_metabolite 15
  CDK     0516241031

 65 69  0  0  0  0  0  0  0  0999 V2000
   -1.3846   10.5922    0.0000 C   0  0  0  0  0  0  0  0  0  0  0  0
   -1.3628   12.0921    0.0000 H   0  0  0  0  0  0  0  0  0  0  0  0
   -1.9180    9.1903    0.0000 H   0  0  0  0  0  0  0  0  0  0  0  0
   -2.8578   10.8742    0.0000 H   0  0  0  0  0  0  0  0  0  0  0  0
   -0.0966    9.8234    0.0000 C   0  0  0  0  0  0  0  0  0  0  0  0
    0.4369   11.2254    0.0000 H   0  0  0  0  0  0  0  0  0  0  0  0
    1.3767    9.5415    0.0000 H   0  0  0  0  0  0  0  0  0  0  0  0
   -0.1184    8.3236    0.0000 C   0  0  0  0  0  0  0  0  0  0  0  0
    0.3741    6.9068    0.0000 H   0  0  0  0  0  0  0  0  0  0  0  0
    1.3625    8.5626    0.0000 H   0  0  0  0  0  0  0  0  0  0  0  0
   -1.4282    7.5926    0.0000 S   0  0  0  0  0  0  0  0  0  0  0  0
   -1.4500    6.0927    0.0000 C   0  0  0  0  0  0  0  0  0  0  0  0
   -0.1571    5.3127    0.0000 N   0  0  0  0  0  0  0  0  0  0  0  0
   -0.2173    3.8191    0.0000 C   0  0  0  0  0  0  0  0  0  0  0  0
   -1.4950    3.0950    0.0000 C   0  0  0  0  0  0  0  0  0  0  0  0
   -2.7879    3.8750    0.0000 C   0  0  0  0  0  0  0  0  0  0  0  0
   -2.7603    5.3533    0.0000 N   0  0  0  0  0  0  0  0  0  0  0  0
   -3.9239    2.9020    0.0000 N   0  0  0  0  0  0  0  0  0  0  0  0
   -5.3838    3.2463    0.0000 C   0  0  2  0  0  0  0  0  0  0  0  0
   -4.8855    4.6612    0.0000 H   0  0  0  0  0  0  0  0  0  0  0  0
   -6.7392    3.8937    0.0000 C   0  0  0  0  0  0  0  0  0  0  0  0
   -5.9598    5.1753    0.0000 H   0  0  0  0  0  0  0  0  0  0  0  0
   -7.9358    4.7982    0.0000 H   0  0  0  0  0  0  0  0  0  0  0  0
   -7.7609    2.7927    0.0000 C   0  0  1  0  0  0  0  0  0  0  0  0
   -8.7452    3.9245    0.0000 H   0  0  0  0  0  0  0  0  0  0  0  0
   -7.0428    1.4841    0.0000 C   0  0  2  0  0  0  0  0  0  0  0  0
   -8.4259    0.9035    0.0000 H   0  0  0  0  0  0  0  0  0  0  0  0
   -5.5694    1.7653    0.0000 C   0  0  1  0  0  0  0  0  0  0  0  0
   -5.4433    0.2706    0.0000 H   0  0  0  0  0  0  0  0  0  0  0  0
   -4.0697    1.7349    0.0000 O   0  0  0  0  0  0  0  0  0  0  0  0
   -3.3462    0.4209    0.0000 H   0  0  0  0  0  0  0  0  0  0  0  0
   -6.6096    0.0480    0.0000 O   0  0  0  0  0  0  0  0  0  0  0  0
   -7.6366   -1.0452    0.0000 H   0  0  0  0  0  0  0  0  0  0  0  0
   -8.9914    1.9348    0.0000 O   0  0  0  0  0  0  0  0  0  0  0  0
  -10.3495    2.5715    0.0000 C   0  0  0  0  0  0  0  0  0  0  0  0
   -9.4867    3.7985    0.0000 H   0  0  0  0  0  0  0  0  0  0  0  0
  -11.4080    3.6343    0.0000 H   0  0  0  0  0  0  0  0  0  0  0  0
  -11.5800    1.7136    0.0000 C   0  0  0  0  0  0  0  0  0  0  0  0
  -12.4429    0.4866    0.0000 H   0  0  0  0  0  0  0  0  0  0  0  0
  -10.5215    0.6508    0.0000 H   0  0  0  0  0  0  0  0  0  0  0  0
  -12.9382    2.3503    0.0000 O   0  0  0  0  0  0  0  0  0  0  0  0
  -14.1687    1.4924    0.0000 H   0  0  0  0  0  0  0  0  0  0  0  0
   -3.3424    1.5234    0.0000 N   0  0  0  0  0  0  0  0  0  0  0  0
   -1.8432    1.6467    0.0000 N   0  0  0  0  0  0  0  0  0  0  0  0
    1.0633    3.0379    0.0000 N   0  0  0  0  0  0  0  0  0  0  0  0
    2.3800    3.7563    0.0000 C   0  0  2  0  0  0  0  0  0  0  0  0
    1.9011    5.1778    0.0000 H   0  0  0  0  0  0  0  0  0  0  0  0
    3.3166    2.5836    0.0000 C   0  0  0  0  0  0  0  0  0  0  0  0
    4.5974    1.8028    0.0000 H   0  0  0  0  0  0  0  0  0  0  0  0
    2.3250    1.4580    0.0000 H   0  0  0  0  0  0  0  0  0  0  0  0
    3.8631    3.9814    0.0000 C   0  0  1  0  0  0  0  0  0  0  0  0
    3.8988    5.4809    0.0000 H   0  0  0  0  0  0  0  0  0  0  0  0
    5.8043    3.5914    0.0000 C   0  0  0  0  0  0  0  0  0  0  0  0
    6.2842    2.1693    0.0000 C   0  0  0  0  0  0  0  0  0  0  0  0
    5.2929    1.0436    0.0000 H   0  0  0  0  0  0  0  0  0  0  0  0
    7.7555    1.8730    0.0000 C   0  0  0  0  0  0  0  0  0  0  0  0
    8.2345    0.4516    0.0000 H   0  0  0  0  0  0  0  0  0  0  0  0
    8.7469    2.9987    0.0000 C   0  0  0  0  0  0  0  0  0  0  0  0
    8.2669    4.4208    0.0000 C   0  0  0  0  0  0  0  0  0  0  0  0
    6.7956    4.7171    0.0000 C   0  0  0  0  0  0  0  0  0  0  0  0
    6.3167    6.1385    0.0000 H   0  0  0  0  0  0  0  0  0  0  0  0
    9.2583    5.5465    0.0000 F   0  0  0  0  0  0  0  0  0  0  0  0
   10.2175    2.7033    0.0000 F   0  0  0  0  0  0  0  0  0  0  0  0
    1.0270    1.5384    0.0000 O   0  0  0  0  0  0  0  0  0  0  0  0
   -0.2897    0.8200    0.0000 H   0  0  0  0  0  0  0  0  0  0  0  0
  1  2  1  0  0  0  0 
  1  3  1  0  0  0  0 
  1  4  1  0  0  0  0 
  1  5  1  0  0  0  0 
  5  6  1  0  0  0  0 
  5  7  1  0  0  0  0 
  5  8  1  0  0  0  0 
  8  9  1  0  0  0  0 
  8 10  1  0  0  0  0 
  8 11  1  0  0  0  0 
 11 12  1  0  0  0  0 
 12 13  2  0  0  0  0 
 13 14  1  0  0  0  0 
 14 15  2  0  0  0  0 
 15 16  1  0  0  0  0 
 16 17  2  0  0  0  0 
 12 17  1  0  0  0  0 
 16 18  1  0  0  0  0 
 19 18  1  1  0  0  0 
 19 20  1  6  0  0  0 
 19 21  1  0  0  0  0 
 21 22  1  0  0  0  0 
 21 23  1  0  0  0  0 
 21 24  1  0  0  0  0 
 24 25  1  6  0  0  0 
 24 26  1  0  0  0  0 
 26 27  1  1  0  0  0 
 26 28  1  0  0  0  0 
 19 28  1  0  0  0  0 
 28 29  1  1  0  0  0 
 28 30  1  6  0  0  0 
 30 31  1  0  0  0  0 
 26 32  1  6  0  0  0 
 32 33  1  0  0  0  0 
 24 34  1  1  0  0  0 
 34 35  1  0  0  0  0 
 35 36  1  0  0  0  0 
 35 37  1  0  0  0  0 
 35 38  1  0  0  0  0 
 38 39  1  0  0  0  0 
 38 40  1  0  0  0  0 
 38 41  1  0  0  0  0 
 41 42  1  0  0  0  0 
 18 43  1  0  0  0  0 
 43 44  2  0  0  0  0 
 15 44  1  0  0  0  0 
 14 45  1  0  0  0  0 
 46 45  1  1  0  0  0 
 46 47  1  6  0  0  0 
 46 48  1  0  0  0  0 
 48 49  1  0  0  0  0 
 48 50  1  0  0  0  0 
 48 51  1  0  0  0  0 
 46 51  1  0  0  0  0 
 51 52  1  1  0  0  0 
 51 53  1  6  0  0  0 
 53 54  2  0  0  0  0 
 54 55  1  0  0  0  0 
 54 56  1  0  0  0  0 
 56 57  1  0  0  0  0 
 56 58  2  0  0  0  0 
 58 59  1  0  0  0  0 
 59 60  2  0  0  0  0 
 53 60  1  0  0  0  0 
 60 61  1  0  0  0  0 
 59 62  1  0  0  0  0 
 58 63  1  0  0  0  0 
 45 64  1  0  0  0  0 
 64 65  1  0  0  0  0 
M  END
> <Rank>
12

> <Priority_score>
0.496

> <Reaction_type>
amine hydroxylation

> <Parent_ID>
20

> <Parent_InChI>
InChI=1S/C23H28F2N6O4S/c1-2-7-36-23-27-21(26-15-9-12(15)11-3-4-13(24)14(25)8-11)18-22(28-23)31(30-29-18)16-10-17(35-6-5-32)20(34)19(16)33/h3-4,8,12,15-17,19-20,32-34H,2,5-7,9-10H2,1H3,(H,26,27,28)

> <Parent_SMILES>
CCCSc1nc(N[C@@H]2C[C@H]2c2ccc(F)c(F)c2)c2nnn([C@@H]3C[C@H](OCCO)[C@@H](O)[C@H]3O)c2n1

$$$$
Molecule 20_metabolite 16
  CDK     0516241031

 84 89  0  0  0  0  0  0  0  0999 V2000
  -12.4253  -11.2614    0.0000 C   0  0  0  0  0  0  0  0  0  0  0  0
  -12.6903  -12.7378    0.0000 H   0  0  0  0  0  0  0  0  0  0  0  0
  -12.6812   -9.7834    0.0000 H   0  0  0  0  0  0  0  0  0  0  0  0
  -13.9253  -11.2567    0.0000 H   0  0  0  0  0  0  0  0  0  0  0  0
  -11.0142  -10.7527    0.0000 C   0  0  0  0  0  0  0  0  0  0  0  0
  -10.7583  -12.2307    0.0000 H   0  0  0  0  0  0  0  0  0  0  0  0
   -9.5142  -10.7574    0.0000 H   0  0  0  0  0  0  0  0  0  0  0  0
  -10.7491   -9.2763    0.0000 C   0  0  0  0  0  0  0  0  0  0  0  0
   -9.9951   -7.9796    0.0000 H   0  0  0  0  0  0  0  0  0  0  0  0
   -9.3412   -9.7937    0.0000 H   0  0  0  0  0  0  0  0  0  0  0  0
  -11.8952   -8.3086    0.0000 S   0  0  0  0  0  0  0  0  0  0  0  0
  -11.6302   -6.8322    0.0000 C   0  0  0  0  0  0  0  0  0  0  0  0
  -12.7752   -5.8561    0.0000 N   0  0  0  0  0  0  0  0  0  0  0  0
  -12.5199   -4.3998    0.0000 C   0  0  0  0  0  0  0  0  0  0  0  0
  -11.1018   -3.8811    0.0000 C   0  0  0  0  0  0  0  0  0  0  0  0
   -9.9859   -4.8358    0.0000 C   0  0  0  0  0  0  0  0  0  0  0  0
  -10.2121   -6.3135    0.0000 N   0  0  0  0  0  0  0  0  0  0  0  0
   -8.5798   -4.3136    0.0000 N   0  0  0  0  0  0  0  0  0  0  0  0
   -8.3289   -2.8347    0.0000 H   0  0  0  0  0  0  0  0  0  0  0  0
   -7.4244   -5.2703    0.0000 C   0  0  2  0  0  0  0  0  0  0  0  0
   -8.1661   -6.5741    0.0000 H   0  0  0  0  0  0  0  0  0  0  0  0
   -6.2811   -4.2980    0.0000 C   0  0  0  0  0  0  0  0  0  0  0  0
   -4.8748   -3.7762    0.0000 H   0  0  0  0  0  0  0  0  0  0  0  0
   -7.0395   -3.0038    0.0000 H   0  0  0  0  0  0  0  0  0  0  0  0
   -6.0117   -5.7744    0.0000 C   0  0  1  0  0  0  0  0  0  0  0  0
   -6.2630   -7.2532    0.0000 H   0  0  0  0  0  0  0  0  0  0  0  0
   -3.5517   -5.7594    0.0000 C   0  0  0  0  0  0  0  0  0  0  0  0
   -2.8090   -4.4552    0.0000 C   0  0  0  0  0  0  0  0  0  0  0  0
   -3.5672   -3.1609    0.0000 H   0  0  0  0  0  0  0  0  0  0  0  0
   -1.3082   -4.4453    0.0000 C   0  0  0  0  0  0  0  0  0  0  0  0
   -0.5666   -3.1415    0.0000 H   0  0  0  0  0  0  0  0  0  0  0  0
   -0.5501   -5.7397    0.0000 C   0  0  0  0  0  0  0  0  0  0  0  0
   -1.2928   -7.0438    0.0000 C   0  0  0  0  0  0  0  0  0  0  0  0
   -2.7936   -7.0537    0.0000 C   0  0  0  0  0  0  0  0  0  0  0  0
   -3.5353   -8.3575    0.0000 H   0  0  0  0  0  0  0  0  0  0  0  0
   -0.5347   -8.3382    0.0000 F   0  0  0  0  0  0  0  0  0  0  0  0
    0.9498   -5.7305    0.0000 F   0  0  0  0  0  0  0  0  0  0  0  0
  -11.1670   -2.3929    0.0000 N   0  0  0  0  0  0  0  0  0  0  0  0
  -12.6151   -1.9856    0.0000 N   0  0  0  0  0  0  0  0  0  0  0  0
  -13.4491   -3.2277    0.0000 N   0  0  0  0  0  0  0  0  0  0  0  0
  -14.9480   -3.2869    0.0000 C   0  0  2  0  0  0  0  0  0  0  0  0
  -14.4747   -4.7103    0.0000 H   0  0  0  0  0  0  0  0  0  0  0  0
  -16.3146   -3.9103    0.0000 C   0  0  0  0  0  0  0  0  0  0  0  0
  -15.5579   -5.2054    0.0000 H   0  0  0  0  0  0  0  0  0  0  0  0
  -17.5270   -4.7935    0.0000 H   0  0  0  0  0  0  0  0  0  0  0  0
  -17.3167   -2.7914    0.0000 C   0  0  1  0  0  0  0  0  0  0  0  0
  -18.3208   -3.9057    0.0000 H   0  0  0  0  0  0  0  0  0  0  0  0
  -16.5757   -1.4957    0.0000 C   0  0  2  0  0  0  0  0  0  0  0  0
  -17.9483   -0.8908    0.0000 H   0  0  0  0  0  0  0  0  0  0  0  0
  -15.1075   -1.8028    0.0000 C   0  0  1  0  0  0  0  0  0  0  0  0
  -14.9550   -0.3106    0.0000 H   0  0  0  0  0  0  0  0  0  0  0  0
  -13.6075   -1.7989    0.0000 O   0  0  0  0  0  0  0  0  0  0  0  0
  -12.1442    0.7511    0.0000 C   0  0  0  0  0  0  0  0  0  0  0  0
  -10.9904   -0.2074    0.0000 H   0  0  0  0  0  0  0  0  0  0  0  0
  -13.5445    1.2603    0.0000 C   0  0  0  0  0  0  0  0  0  0  0  0
  -15.0445    1.2610    0.0000 H   0  0  0  0  0  0  0  0  0  0  0  0
  -13.8077    2.7605    0.0000 C   0  0  0  0  0  0  0  0  0  0  0  0
  -14.5529    4.0623    0.0000 H   0  0  0  0  0  0  0  0  0  0  0  0
  -12.6492    3.7226    0.0000 C   0  0  0  0  0  0  0  0  0  0  0  0
  -11.8973    5.0205    0.0000 H   0  0  0  0  0  0  0  0  0  0  0  0
  -11.2489    3.2134    0.0000 C   0  0  0  0  0  0  0  0  0  0  0  0
   -9.7489    3.2136    0.0000 H   0  0  0  0  0  0  0  0  0  0  0  0
  -10.8222    5.6361    0.0000 C   0  0  0  0  0  0  0  0  0  0  0  0
  -11.9715    6.6001    0.0000 O   0  0  0  0  0  0  0  0  0  0  0  0
   -9.4128    6.1495    0.0000 O   0  0  0  0  0  0  0  0  0  0  0  0
   -9.1527    7.6267    0.0000 H   0  0  0  0  0  0  0  0  0  0  0  0
  -10.9883    1.7354    0.0000 O   0  0  0  0  0  0  0  0  0  0  0  0
  -13.7951    4.6905    0.0000 O   0  0  0  0  0  0  0  0  0  0  0  0
  -13.5297    6.1669    0.0000 H   0  0  0  0  0  0  0  0  0  0  0  0
  -15.2184    2.2507    0.0000 O   0  0  0  0  0  0  0  0  0  0  0  0
  -16.3652    3.2175    0.0000 H   0  0  0  0  0  0  0  0  0  0  0  0
  -13.8050   -0.2169    0.0000 O   0  0  0  0  0  0  0  0  0  0  0  0
  -12.6561   -1.1812    0.0000 H   0  0  0  0  0  0  0  0  0  0  0  0
  -16.1172   -0.0675    0.0000 O   0  0  0  0  0  0  0  0  0  0  0  0
  -17.1248    1.0437    0.0000 H   0  0  0  0  0  0  0  0  0  0  0  0
  -18.5318   -1.9120    0.0000 O   0  0  0  0  0  0  0  0  0  0  0  0
  -19.9010   -2.5246    0.0000 C   0  0  0  0  0  0  0  0  0  0  0  0
  -19.0599   -3.7666    0.0000 H   0  0  0  0  0  0  0  0  0  0  0  0
  -20.9781   -3.5686    0.0000 H   0  0  0  0  0  0  0  0  0  0  0  0
  -21.1162   -1.6452    0.0000 C   0  0  0  0  0  0  0  0  0  0  0  0
  -21.9573   -0.4032    0.0000 H   0  0  0  0  0  0  0  0  0  0  0  0
  -20.0391   -0.6012    0.0000 H   0  0  0  0  0  0  0  0  0  0  0  0
  -22.4854   -2.2578    0.0000 O   0  0  0  0  0  0  0  0  0  0  0  0
  -23.7005   -1.3784    0.0000 H   0  0  0  0  0  0  0  0  0  0  0  0
  1  2  1  0  0  0  0 
  1  3  1  0  0  0  0 
  1  4  1  0  0  0  0 
  1  5  1  0  0  0  0 
  5  6  1  0  0  0  0 
  5  7  1  0  0  0  0 
  5  8  1  0  0  0  0 
  8  9  1  0  0  0  0 
  8 10  1  0  0  0  0 
  8 11  1  0  0  0  0 
 11 12  1  0  0  0  0 
 12 13  2  0  0  0  0 
 13 14  1  0  0  0  0 
 14 15  2  0  0  0  0 
 15 16  1  0  0  0  0 
 16 17  2  0  0  0  0 
 12 17  1  0  0  0  0 
 16 18  1  0  0  0  0 
 18 19  1  0  0  0  0 
 20 18  1  6  0  0  0 
 20 21  1  1  0  0  0 
 20 22  1  0  0  0  0 
 22 23  1  0  0  0  0 
 22 24  1  0  0  0  0 
 22 25  1  0  0  0  0 
 20 25  1  0  0  0  0 
 25 26  1  6  0  0  0 
 25 27  1  1  0  0  0 
 27 28  2  0  0  0  0 
 28 29  1  0  0  0  0 
 28 30  1  0  0  0  0 
 30 31  1  0  0  0  0 
 30 32  2  0  0  0  0 
 32 33  1  0  0  0  0 
 33 34  2  0  0  0  0 
 27 34  1  0  0  0  0 
 34 35  1  0  0  0  0 
 33 36  1  0  0  0  0 
 32 37  1  0  0  0  0 
 15 38  1  0  0  0  0 
 38 39  2  0  0  0  0 
 39 40  1  0  0  0  0 
 14 40  1  0  0  0  0 
 41 40  1  6  0  0  0 
 41 42  1  1  0  0  0 
 41 43  1  0  0  0  0 
 43 44  1  0  0  0  0 
 43 45  1  0  0  0  0 
 43 46  1  0  0  0  0 
 46 47  1  1  0  0  0 
 46 48  1  0  0  0  0 
 48 49  1  6  0  0  0 
 48 50  1  0  0  0  0 
 41 50  1  0  0  0  0 
 50 51  1  6  0  0  0 
 50 52  1  1  0  0  0 
 52 53  1  0  0  0  0 
 53 54  1  0  0  0  0 
 53 55  1  0  0  0  0 
 55 56  1  0  0  0  0 
 55 57  1  0  0  0  0 
 57 58  1  0  0  0  0 
 57 59  1  0  0  0  0 
 59 60  1  0  0  0  0 
 59 61  1  0  0  0  0 
 61 62  1  0  0  0  0 
 61 63  1  0  0  0  0 
 63 64  2  0  0  0  0 
 63 65  1  0  0  0  0 
 65 66  1  0  0  0  0 
 61 67  1  0  0  0  0 
 53 67  1  0  0  0  0 
 59 68  1  0  0  0  0 
 68 69  1  0  0  0  0 
 57 70  1  0  0  0  0 
 70 71  1  0  0  0  0 
 55 72  1  0  0  0  0 
 72 73  1  0  0  0  0 
 48 74  1  1  0  0  0 
 74 75  1  0  0  0  0 
 46 76  1  6  0  0  0 
 76 77  1  0  0  0  0 
 77 78  1  0  0  0  0 
 77 79  1  0  0  0  0 
 77 80  1  0  0  0  0 
 80 81  1  0  0  0  0 
 80 82  1  0  0  0  0 
 80 83  1  0  0  0  0 
 83 84  1  0  0  0  0 
M  END
> <Rank>
16

> <Priority_score>
0.4011148197051364

> <Reaction_type>
O-glucuronidation_(aliphatic_hydroxyl)

> <Parent_ID>
20

> <Parent_InChI>
InChI=1S/C23H28F2N6O4S/c1-2-7-36-23-27-21(26-15-9-12(15)11-3-4-13(24)14(25)8-11)18-22(28-23)31(30-29-18)16-10-17(35-6-5-32)20(34)19(16)33/h3-4,8,12,15-17,19-20,32-34H,2,5-7,9-10H2,1H3,(H,26,27,28)

> <Parent_SMILES>
CCCSc1nc(N[C@@H]2C[C@H]2c2ccc(F)c(F)c2)c2nnn([C@@H]3C[C@H](OCCO)[C@@H](O)[C@H]3O)c2n1

$$$$
Molecule 20_metabolite 17
  CDK     0516241031

 65 69  0  0  0  0  0  0  0  0999 V2000
   -7.6627   -1.2246    0.0000 C   0  0  0  0  0  0  0  0  0  0  0  0
   -7.6697    0.2754    0.0000 H   0  0  0  0  0  0  0  0  0  0  0  0
   -8.1691   -2.6365    0.0000 H   0  0  0  0  0  0  0  0  0  0  0  0
   -9.1411   -0.9711    0.0000 H   0  0  0  0  0  0  0  0  0  0  0  0
   -6.3601   -1.9685    0.0000 C   0  0  0  0  0  0  0  0  0  0  0  0
   -7.3189   -3.1221    0.0000 H   0  0  0  0  0  0  0  0  0  0  0  0
   -5.3906   -3.1130    0.0000 H   0  0  0  0  0  0  0  0  0  0  0  0
   -5.0646   -1.2124    0.0000 C   0  0  0  0  0  0  0  0  0  0  0  0
   -4.1059   -0.0588    0.0000 H   0  0  0  0  0  0  0  0  0  0  0  0
   -6.0342   -0.0679    0.0000 H   0  0  0  0  0  0  0  0  0  0  0  0
   -3.7621   -1.9563    0.0000 S   0  0  0  0  0  0  0  0  0  0  0  0
   -3.7550   -3.4562    0.0000 O   0  0  0  0  0  0  0  0  0  0  0  0
   -2.4666   -1.2002    0.0000 C   0  0  0  0  0  0  0  0  0  0  0  0
   -1.1566   -1.9402    0.0000 N   0  0  0  0  0  0  0  0  0  0  0  0
    0.1234   -1.2002    0.0000 C   0  0  0  0  0  0  0  0  0  0  0  0
    0.1234    0.3098    0.0000 C   0  0  0  0  0  0  0  0  0  0  0  0
   -1.1566    1.0298    0.0000 C   0  0  0  0  0  0  0  0  0  0  0  0
   -2.4666    0.3098    0.0000 N   0  0  0  0  0  0  0  0  0  0  0  0
   -1.1492    2.5298    0.0000 N   0  0  0  0  0  0  0  0  0  0  0  0
   -2.4445    3.2862    0.0000 H   0  0  0  0  0  0  0  0  0  0  0  0
    0.1535    3.2734    0.0000 C   0  0  2  0  0  0  0  0  0  0  0  0
    1.1119    2.1195    0.0000 H   0  0  0  0  0  0  0  0  0  0  0  0
   -0.3530    4.6862    0.0000 C   0  0  0  0  0  0  0  0  0  0  0  0
   -0.3451    6.1862    0.0000 H   0  0  0  0  0  0  0  0  0  0  0  0
   -1.8315    4.4331    0.0000 H   0  0  0  0  0  0  0  0  0  0  0  0
    1.1236    4.4175    0.0000 C   0  0  1  0  0  0  0  0  0  0  0  0
    2.4187    3.6607    0.0000 H   0  0  0  0  0  0  0  0  0  0  0  0
    1.8107    6.2745    0.0000 C   0  0  0  0  0  0  0  0  0  0  0  0
    0.8523    7.4295    0.0000 C   0  0  0  0  0  0  0  0  0  0  0  0
   -0.6262    7.1767    0.0000 H   0  0  0  0  0  0  0  0  0  0  0  0
    1.3725    8.8373    0.0000 C   0  0  0  0  0  0  0  0  0  0  0  0
    0.4141    9.9912    0.0000 H   0  0  0  0  0  0  0  0  0  0  0  0
    2.8511    9.0901    0.0000 C   0  0  0  0  0  0  0  0  0  0  0  0
    3.8094    7.9351    0.0000 C   0  0  0  0  0  0  0  0  0  0  0  0
    3.2893    6.5273    0.0000 C   0  0  0  0  0  0  0  0  0  0  0  0
    4.2477    5.3734    0.0000 H   0  0  0  0  0  0  0  0  0  0  0  0
    5.2880    8.1879    0.0000 F   0  0  0  0  0  0  0  0  0  0  0  0
    3.3716   10.4969    0.0000 F   0  0  0  0  0  0  0  0  0  0  0  0
    1.5434    0.7598    0.0000 N   0  0  0  0  0  0  0  0  0  0  0  0
    2.4234   -0.4602    0.0000 N   0  0  0  0  0  0  0  0  0  0  0  0
    1.5434   -1.6702    0.0000 N   0  0  0  0  0  0  0  0  0  0  0  0
    2.0027   -3.0981    0.0000 C   0  0  2  0  0  0  0  0  0  0  0  0
    0.5339   -3.4023    0.0000 H   0  0  0  0  0  0  0  0  0  0  0  0
    2.1485   -4.5931    0.0000 C   0  0  0  0  0  0  0  0  0  0  0  0
    0.6485   -4.5877    0.0000 H   0  0  0  0  0  0  0  0  0  0  0  0
    1.9923   -6.0849    0.0000 H   0  0  0  0  0  0  0  0  0  0  0  0
    3.6191   -4.8991    0.0000 C   0  0  1  0  0  0  0  0  0  0  0  0
    3.1584   -6.3267    0.0000 H   0  0  0  0  0  0  0  0  0  0  0  0
    4.3686   -3.6083    0.0000 C   0  0  2  0  0  0  0  0  0  0  0  0
    5.5802   -4.4927    0.0000 H   0  0  0  0  0  0  0  0  0  0  0  0
    3.3667   -2.4920    0.0000 C   0  0  1  0  0  0  0  0  0  0  0  0
    4.5814   -1.6119    0.0000 H   0  0  0  0  0  0  0  0  0  0  0  0
    2.6181   -1.1922    0.0000 O   0  0  0  0  0  0  0  0  0  0  0  0
    3.3694    0.1061    0.0000 H   0  0  0  0  0  0  0  0  0  0  0  0
    5.3745   -2.4955    0.0000 O   0  0  0  0  0  0  0  0  0  0  0  0
    6.8411   -2.8102    0.0000 H   0  0  0  0  0  0  0  0  0  0  0  0
    4.9893   -5.5096    0.0000 O   0  0  0  0  0  0  0  0  0  0  0  0
    5.1457   -7.0014    0.0000 C   0  0  0  0  0  0  0  0  0  0  0  0
    3.6494   -6.8964    0.0000 H   0  0  0  0  0  0  0  0  0  0  0  0
    4.7824   -8.4568    0.0000 H   0  0  0  0  0  0  0  0  0  0  0  0
    6.5159   -7.6119    0.0000 C   0  0  0  0  0  0  0  0  0  0  0  0
    8.0122   -7.7169    0.0000 H   0  0  0  0  0  0  0  0  0  0  0  0
    6.8791   -6.1565    0.0000 H   0  0  0  0  0  0  0  0  0  0  0  0
    6.6723   -9.1037    0.0000 O   0  0  0  0  0  0  0  0  0  0  0  0
    8.0424   -9.7141    0.0000 H   0  0  0  0  0  0  0  0  0  0  0  0
  1  2  1  0  0  0  0 
  1  3  1  0  0  0  0 
  1  4  1  0  0  0  0 
  1  5  1  0  0  0  0 
  5  6  1  0  0  0  0 
  5  7  1  0  0  0  0 
  5  8  1  0  0  0  0 
  8  9  1  0  0  0  0 
  8 10  1  0  0  0  0 
  8 11  1  0  0  0  0 
 11 12  2  0  0  0  0 
 11 13  1  0  0  0  0 
 13 14  2  0  0  0  0 
 14 15  1  0  0  0  0 
 15 16  2  0  0  0  0 
 16 17  1  0  0  0  0 
 17 18  2  0  0  0  0 
 13 18  1  0  0  0  0 
 17 19  1  0  0  0  0 
 19 20  1  0  0  0  0 
 21 19  1  6  0  0  0 
 21 22  1  1  0  0  0 
 21 23  1  0  0  0  0 
 23 24  1  0  0  0  0 
 23 25  1  0  0  0  0 
 23 26  1  0  0  0  0 
 21 26  1  0  0  0  0 
 26 27  1  6  0  0  0 
 26 28  1  1  0  0  0 
 28 29  2  0  0  0  0 
 29 30  1  0  0  0  0 
 29 31  1  0  0  0  0 
 31 32  1  0  0  0  0 
 31 33  2  0  0  0  0 
 33 34  1  0  0  0  0 
 34 35  2  0  0  0  0 
 28 35  1  0  0  0  0 
 35 36  1  0  0  0  0 
 34 37  1  0  0  0  0 
 33 38  1  0  0  0  0 
 16 39  1  0  0  0  0 
 39 40  2  0  0  0  0 
 40 41  1  0  0  0  0 
 15 41  1  0  0  0  0 
 42 41  1  1  0  0  0 
 42 43  1  6  0  0  0 
 42 44  1  0  0  0  0 
 44 45  1  0  0  0  0 
 44 46  1  0  0  0  0 
 44 47  1  0  0  0  0 
 47 48  1  6  0  0  0 
 47 49  1  0  0  0  0 
 49 50  1  1  0  0  0 
 49 51  1  0  0  0  0 
 42 51  1  0  0  0  0 
 51 52  1  1  0  0  0 
 51 53  1  6  0  0  0 
 53 54  1  0  0  0  0 
 49 55  1  6  0  0  0 
 55 56  1  0  0  0  0 
 47 57  1  1  0  0  0 
 57 58  1  0  0  0  0 
 58 59  1  0  0  0  0 
 58 60  1  0  0  0  0 
 58 61  1  0  0  0  0 
 61 62  1  0  0  0  0 
 61 63  1  0  0  0  0 
 61 64  1  0  0  0  0 
 64 65  1  0  0  0  0 
M  END
> <Rank>
17

> <Priority_score>
0.2755576360444704

> <Reaction_type>
sulfide_oxidation_(c-S-C)

> <Parent_ID>
20

> <Parent_InChI>
InChI=1S/C23H28F2N6O4S/c1-2-7-36-23-27-21(26-15-9-12(15)11-3-4-13(24)14(25)8-11)18-22(28-23)31(30-29-18)16-10-17(35-6-5-32)20(34)19(16)33/h3-4,8,12,15-17,19-20,32-34H,2,5-7,9-10H2,1H3,(H,26,27,28)

> <Parent_SMILES>
CCCSc1nc(N[C@@H]2C[C@H]2c2ccc(F)c(F)c2)c2nnn([C@@H]3C[C@H](OCCO)[C@@H](O)[C@H]3O)c2n1

$$$$
Molecule 20_metabolite 18
  CDK     0516241031

 12 11  0  0  0  0  0  0  0  0999 V2000
    1.2990   -0.7500    0.0000 C   0  0  0  0  0  0  0  0  0  0  0  0
    0.0000    0.0000    0.0000 H   0  0  0  0  0  0  0  0  0  0  0  0
    0.3349   -1.8991    0.0000 H   0  0  0  0  0  0  0  0  0  0  0  0
    2.2632   -1.8991    0.0000 H   0  0  0  0  0  0  0  0  0  0  0  0
    2.5981   -0.0000    0.0000 C   0  0  0  0  0  0  0  0  0  0  0  0
    3.5623    1.1491    0.0000 H   0  0  0  0  0  0  0  0  0  0  0  0
    1.6339    1.1491    0.0000 H   0  0  0  0  0  0  0  0  0  0  0  0
    3.8971   -0.7500    0.0000 C   0  0  0  0  0  0  0  0  0  0  0  0
    4.4101    0.6595    0.0000 H   0  0  0  0  0  0  0  0  0  0  0  0
    5.3743   -1.0105    0.0000 H   0  0  0  0  0  0  0  0  0  0  0  0
    3.8971   -2.2500    0.0000 O   0  0  0  0  0  0  0  0  0  0  0  0
    5.1962   -3.0000    0.0000 H   0  0  0  0  0  0  0  0  0  0  0  0
  1  2  1  0  0  0  0 
  1  3  1  0  0  0  0 
  1  4  1  0  0  0  0 
  1  5  1  0  0  0  0 
  5  6  1  0  0  0  0 
  5  7  1  0  0  0  0 
  5  8  1  0  0  0  0 
  8  9  1  0  0  0  0 
  8 10  1  0  0  0  0 
  8 11  1  0  0  0  0 
 11 12  1  0  0  0  0 
M  END
> <Rank>
17

> <Priority_score>
0.2755576360444704

> <Reaction_type>
S-dealkylation_c-SCH2-R

> <Parent_ID>
20

> <Parent_InChI>
InChI=1S/C23H28F2N6O4S/c1-2-7-36-23-27-21(26-15-9-12(15)11-3-4-13(24)14(25)8-11)18-22(28-23)31(30-29-18)16-10-17(35-6-5-32)20(34)19(16)33/h3-4,8,12,15-17,19-20,32-34H,2,5-7,9-10H2,1H3,(H,26,27,28)

> <Parent_SMILES>
CCCSc1nc(N[C@@H]2C[C@H]2c2ccc(F)c(F)c2)c2nnn([C@@H]3C[C@H](OCCO)[C@@H](O)[C@H]3O)c2n1

$$$$
Molecule 20_metabolite 19
  CDK     0516241031

 55 59  0  0  0  0  0  0  0  0999 V2000
   -2.7732    7.4468    0.0000 C   0  0  0  0  0  0  0  0  0  0  0  0
   -1.2972    7.1795    0.0000 H   0  0  0  0  0  0  0  0  0  0  0  0
   -3.7434    6.3018    0.0000 C   0  0  0  0  0  0  0  0  0  0  0  0
   -5.2203    6.5686    0.0000 C   0  0  0  0  0  0  0  0  0  0  0  0
   -6.1895    5.4237    0.0000 H   0  0  0  0  0  0  0  0  0  0  0  0
   -5.7270    7.9804    0.0000 C   0  0  0  0  0  0  0  0  0  0  0  0
   -4.7568    9.1254    0.0000 C   0  0  0  0  0  0  0  0  0  0  0  0
   -3.2799    8.8587    0.0000 C   0  0  0  0  0  0  0  0  0  0  0  0
   -2.3107   10.0035    0.0000 H   0  0  0  0  0  0  0  0  0  0  0  0
   -5.2635   10.5373    0.0000 F   0  0  0  0  0  0  0  0  0  0  0  0
   -7.2030    8.2477    0.0000 F   0  0  0  0  0  0  0  0  0  0  0  0
   -3.0746    4.4382    0.0000 C   0  0  2  0  0  0  0  0  0  0  0  0
   -4.3770    3.6942    0.0000 H   0  0  0  0  0  0  0  0  0  0  0  0
   -1.5954    4.6923    0.0000 C   0  0  0  0  0  0  0  0  0  0  0  0
   -0.1195    4.4247    0.0000 H   0  0  0  0  0  0  0  0  0  0  0  0
   -1.5885    6.1923    0.0000 H   0  0  0  0  0  0  0  0  0  0  0  0
   -2.1158    3.2846    0.0000 C   0  0  1  0  0  0  0  0  0  0  0  0
   -3.0855    2.1402    0.0000 H   0  0  0  0  0  0  0  0  0  0  0  0
   -0.8205    2.5282    0.0000 N   0  0  0  0  0  0  0  0  0  0  0  0
    0.4822    3.2718    0.0000 H   0  0  0  0  0  0  0  0  0  0  0  0
   -0.8279    1.0282    0.0000 C   0  0  0  0  0  0  0  0  0  0  0  0
   -2.1379    0.3082    0.0000 N   0  0  0  0  0  0  0  0  0  0  0  0
   -2.1379   -1.2018    0.0000 C   0  0  0  0  0  0  0  0  0  0  0  0
   -0.8279   -1.9418    0.0000 N   0  0  0  0  0  0  0  0  0  0  0  0
    0.4521   -1.2018    0.0000 C   0  0  0  0  0  0  0  0  0  0  0  0
    0.4521    0.3082    0.0000 C   0  0  0  0  0  0  0  0  0  0  0  0
    1.8721    0.7582    0.0000 N   0  0  0  0  0  0  0  0  0  0  0  0
    2.7521   -0.4618    0.0000 N   0  0  0  0  0  0  0  0  0  0  0  0
    1.8721   -1.6718    0.0000 N   0  0  0  0  0  0  0  0  0  0  0  0
    2.3314   -3.0997    0.0000 C   0  0  2  0  0  0  0  0  0  0  0  0
    0.8626   -3.4039    0.0000 H   0  0  0  0  0  0  0  0  0  0  0  0
    2.4773   -4.5947    0.0000 C   0  0  0  0  0  0  0  0  0  0  0  0
    0.9773   -4.5894    0.0000 H   0  0  0  0  0  0  0  0  0  0  0  0
    2.3210   -6.0865    0.0000 H   0  0  0  0  0  0  0  0  0  0  0  0
    3.9478   -4.9008    0.0000 C   0  0  1  0  0  0  0  0  0  0  0  0
    3.4871   -6.3283    0.0000 H   0  0  0  0  0  0  0  0  0  0  0  0
    4.6974   -3.6100    0.0000 C   0  0  2  0  0  0  0  0  0  0  0  0
    5.9089   -4.4943    0.0000 H   0  0  0  0  0  0  0  0  0  0  0  0
    3.6955   -2.4936    0.0000 C   0  0  1  0  0  0  0  0  0  0  0  0
    4.9101   -1.6135    0.0000 H   0  0  0  0  0  0  0  0  0  0  0  0
    2.9468   -1.1938    0.0000 O   0  0  0  0  0  0  0  0  0  0  0  0
    3.6981    0.1045    0.0000 H   0  0  0  0  0  0  0  0  0  0  0  0
    5.7032   -2.4972    0.0000 O   0  0  0  0  0  0  0  0  0  0  0  0
    7.1698   -2.8118    0.0000 H   0  0  0  0  0  0  0  0  0  0  0  0
    5.3180   -5.5112    0.0000 O   0  0  0  0  0  0  0  0  0  0  0  0
    5.4744   -7.0030    0.0000 C   0  0  0  0  0  0  0  0  0  0  0  0
    3.9781   -6.8980    0.0000 H   0  0  0  0  0  0  0  0  0  0  0  0
    5.1112   -8.4584    0.0000 H   0  0  0  0  0  0  0  0  0  0  0  0
    6.8446   -7.6135    0.0000 C   0  0  0  0  0  0  0  0  0  0  0  0
    8.3409   -7.7185    0.0000 H   0  0  0  0  0  0  0  0  0  0  0  0
    7.2078   -6.1581    0.0000 H   0  0  0  0  0  0  0  0  0  0  0  0
    7.0010   -9.1053    0.0000 O   0  0  0  0  0  0  0  0  0  0  0  0
    8.3712   -9.7157    0.0000 H   0  0  0  0  0  0  0  0  0  0  0  0
   -3.4334   -1.9579    0.0000 S   0  0  0  0  0  0  0  0  0  0  0  0
   -4.7359   -1.2140    0.0000 H   0  0  0  0  0  0  0  0  0  0  0  0
  1  2  1  0  0  0  0 
  1  3  2  0  0  0  0 
  3  4  1  0  0  0  0 
  4  5  1  0  0  0  0 
  4  6  2  0  0  0  0 
  6  7  1  0  0  0  0 
  7  8  2  0  0  0  0 
  1  8  1  0  0  0  0 
  8  9  1  0  0  0  0 
  7 10  1  0  0  0  0 
  6 11  1  0  0  0  0 
 12  3  1  6  0  0  0 
 12 13  1  1  0  0  0 
 12 14  1  0  0  0  0 
 14 15  1  0  0  0  0 
 14 16  1  0  0  0  0 
 14 17  1  0  0  0  0 
 12 17  1  0  0  0  0 
 17 18  1  6  0  0  0 
 17 19  1  1  0  0  0 
 19 20  1  0  0  0  0 
 19 21  1  0  0  0  0 
 21 22  2  0  0  0  0 
 22 23  1  0  0  0  0 
 23 24  2  0  0  0  0 
 24 25  1  0  0  0  0 
 25 26  2  0  0  0  0 
 21 26  1  0  0  0  0 
 26 27  1  0  0  0  0 
 27 28  2  0  0  0  0 
 28 29  1  0  0  0  0 
 25 29  1  0  0  0  0 
 30 29  1  1  0  0  0 
 30 31  1  6  0  0  0 
 30 32  1  0  0  0  0 
 32 33  1  0  0  0  0 
 32 34  1  0  0  0  0 
 32 35  1  0  0  0  0 
 35 36  1  6  0  0  0 
 35 37  1  0  0  0  0 
 37 38  1  1  0  0  0 
 37 39  1  0  0  0  0 
 30 39  1  0  0  0  0 
 39 40  1  1  0  0  0 
 39 41  1  6  0  0  0 
 41 42  1  0  0  0  0 
 37 43  1  6  0  0  0 
 43 44  1  0  0  0  0 
 35 45  1  1  0  0  0 
 45 46  1  0  0  0  0 
 46 47  1  0  0  0  0 
 46 48  1  0  0  0  0 
 46 49  1  0  0  0  0 
 49 50  1  0  0  0  0 
 49 51  1  0  0  0  0 
 49 52  1  0  0  0  0 
 52 53  1  0  0  0  0 
 23 54  1  0  0  0  0 
 54 55  1  0  0  0  0 
M  END
> <Rank>
17

> <Priority_score>
0.2755576360444704

> <Reaction_type>
S-dealkylation_c-SCH2-R

> <Parent_ID>
20

> <Parent_InChI>
InChI=1S/C23H28F2N6O4S/c1-2-7-36-23-27-21(26-15-9-12(15)11-3-4-13(24)14(25)8-11)18-22(28-23)31(30-29-18)16-10-17(35-6-5-32)20(34)19(16)33/h3-4,8,12,15-17,19-20,32-34H,2,5-7,9-10H2,1H3,(H,26,27,28)

> <Parent_SMILES>
CCCSc1nc(N[C@@H]2C[C@H]2c2ccc(F)c(F)c2)c2nnn([C@@H]3C[C@H](OCCO)[C@@H](O)[C@H]3O)c2n1

$$$$
Molecule 20_metabolite 20
  CDK     0516241031

 65 69  0  0  0  0  0  0  0  0999 V2000
   -6.3601   -1.9685    0.0000 C   0  0  0  0  0  0  0  0  0  0  0  0
   -7.3189   -3.1221    0.0000 H   0  0  0  0  0  0  0  0  0  0  0  0
   -5.3906   -3.1130    0.0000 H   0  0  0  0  0  0  0  0  0  0  0  0
   -7.6627   -1.2246    0.0000 C   0  0  0  0  0  0  0  0  0  0  0  0
   -8.1691   -2.6365    0.0000 H   0  0  0  0  0  0  0  0  0  0  0  0
   -9.1411   -0.9711    0.0000 H   0  0  0  0  0  0  0  0  0  0  0  0
   -7.6697    0.2754    0.0000 O   0  0  0  0  0  0  0  0  0  0  0  0
   -8.9723    1.0193    0.0000 H   0  0  0  0  0  0  0  0  0  0  0  0
   -5.0646   -1.2124    0.0000 C   0  0  0  0  0  0  0  0  0  0  0  0
   -4.1059   -0.0588    0.0000 H   0  0  0  0  0  0  0  0  0  0  0  0
   -6.0342   -0.0679    0.0000 H   0  0  0  0  0  0  0  0  0  0  0  0
   -3.7621   -1.9563    0.0000 S   0  0  0  0  0  0  0  0  0  0  0  0
   -2.4666   -1.2002    0.0000 C   0  0  0  0  0  0  0  0  0  0  0  0
   -1.1566   -1.9402    0.0000 N   0  0  0  0  0  0  0  0  0  0  0  0
    0.1234   -1.2002    0.0000 C   0  0  0  0  0  0  0  0  0  0  0  0
    0.1234    0.3098    0.0000 C   0  0  0  0  0  0  0  0  0  0  0  0
   -1.1566    1.0298    0.0000 C   0  0  0  0  0  0  0  0  0  0  0  0
   -2.4666    0.3098    0.0000 N   0  0  0  0  0  0  0  0  0  0  0  0
   -1.1492    2.5298    0.0000 N   0  0  0  0  0  0  0  0  0  0  0  0
   -2.4445    3.2862    0.0000 H   0  0  0  0  0  0  0  0  0  0  0  0
    0.1535    3.2734    0.0000 C   0  0  2  0  0  0  0  0  0  0  0  0
    1.1119    2.1195    0.0000 H   0  0  0  0  0  0  0  0  0  0  0  0
   -0.3530    4.6862    0.0000 C   0  0  0  0  0  0  0  0  0  0  0  0
   -0.3451    6.1862    0.0000 H   0  0  0  0  0  0  0  0  0  0  0  0
   -1.8315    4.4331    0.0000 H   0  0  0  0  0  0  0  0  0  0  0  0
    1.1236    4.4175    0.0000 C   0  0  1  0  0  0  0  0  0  0  0  0
    2.4187    3.6607    0.0000 H   0  0  0  0  0  0  0  0  0  0  0  0
    1.8107    6.2745    0.0000 C   0  0  0  0  0  0  0  0  0  0  0  0
    0.8523    7.4295    0.0000 C   0  0  0  0  0  0  0  0  0  0  0  0
   -0.6262    7.1767    0.0000 H   0  0  0  0  0  0  0  0  0  0  0  0
    1.3725    8.8373    0.0000 C   0  0  0  0  0  0  0  0  0  0  0  0
    0.4141    9.9912    0.0000 H   0  0  0  0  0  0  0  0  0  0  0  0
    2.8511    9.0901    0.0000 C   0  0  0  0  0  0  0  0  0  0  0  0
    3.8094    7.9351    0.0000 C   0  0  0  0  0  0  0  0  0  0  0  0
    3.2893    6.5273    0.0000 C   0  0  0  0  0  0  0  0  0  0  0  0
    4.2477    5.3734    0.0000 H   0  0  0  0  0  0  0  0  0  0  0  0
    5.2880    8.1879    0.0000 F   0  0  0  0  0  0  0  0  0  0  0  0
    3.3716   10.4969    0.0000 F   0  0  0  0  0  0  0  0  0  0  0  0
    1.5434    0.7598    0.0000 N   0  0  0  0  0  0  0  0  0  0  0  0
    2.4234   -0.4602    0.0000 N   0  0  0  0  0  0  0  0  0  0  0  0
    1.5434   -1.6702    0.0000 N   0  0  0  0  0  0  0  0  0  0  0  0
    2.0027   -3.0981    0.0000 C   0  0  2  0  0  0  0  0  0  0  0  0
    0.5339   -3.4023    0.0000 H   0  0  0  0  0  0  0  0  0  0  0  0
    2.1485   -4.5931    0.0000 C   0  0  0  0  0  0  0  0  0  0  0  0
    0.6485   -4.5877    0.0000 H   0  0  0  0  0  0  0  0  0  0  0  0
    1.9923   -6.0849    0.0000 H   0  0  0  0  0  0  0  0  0  0  0  0
    3.6191   -4.8991    0.0000 C   0  0  1  0  0  0  0  0  0  0  0  0
    3.1584   -6.3267    0.0000 H   0  0  0  0  0  0  0  0  0  0  0  0
    4.3686   -3.6083    0.0000 C   0  0  2  0  0  0  0  0  0  0  0  0
    5.5802   -4.4927    0.0000 H   0  0  0  0  0  0  0  0  0  0  0  0
    3.3667   -2.4920    0.0000 C   0  0  1  0  0  0  0  0  0  0  0  0
    4.5814   -1.6119    0.0000 H   0  0  0  0  0  0  0  0  0  0  0  0
    2.6181   -1.1922    0.0000 O   0  0  0  0  0  0  0  0  0  0  0  0
    3.3694    0.1061    0.0000 H   0  0  0  0  0  0  0  0  0  0  0  0
    5.3745   -2.4955    0.0000 O   0  0  0  0  0  0  0  0  0  0  0  0
    6.8411   -2.8102    0.0000 H   0  0  0  0  0  0  0  0  0  0  0  0
    4.9893   -5.5096    0.0000 O   0  0  0  0  0  0  0  0  0  0  0  0
    5.1457   -7.0014    0.0000 C   0  0  0  0  0  0  0  0  0  0  0  0
    3.6494   -6.8964    0.0000 H   0  0  0  0  0  0  0  0  0  0  0  0
    4.7824   -8.4568    0.0000 H   0  0  0  0  0  0  0  0  0  0  0  0
    6.5159   -7.6119    0.0000 C   0  0  0  0  0  0  0  0  0  0  0  0
    8.0122   -7.7169    0.0000 H   0  0  0  0  0  0  0  0  0  0  0  0
    6.8791   -6.1565    0.0000 H   0  0  0  0  0  0  0  0  0  0  0  0
    6.6723   -9.1037    0.0000 O   0  0  0  0  0  0  0  0  0  0  0  0
    8.0424   -9.7141    0.0000 H   0  0  0  0  0  0  0  0  0  0  0  0
  1  2  1  0  0  0  0 
  1  3  1  0  0  0  0 
  1  4  1  0  0  0  0 
  4  5  1  0  0  0  0 
  4  6  1  0  0  0  0 
  4  7  1  0  0  0  0 
  7  8  1  0  0  0  0 
  1  9  1  0  0  0  0 
  9 10  1  0  0  0  0 
  9 11  1  0  0  0  0 
  9 12  1  0  0  0  0 
 12 13  1  0  0  0  0 
 13 14  2  0  0  0  0 
 14 15  1  0  0  0  0 
 15 16  2  0  0  0  0 
 16 17  1  0  0  0  0 
 17 18  2  0  0  0  0 
 13 18  1  0  0  0  0 
 17 19  1  0  0  0  0 
 19 20  1  0  0  0  0 
 21 19  1  6  0  0  0 
 21 22  1  1  0  0  0 
 21 23  1  0  0  0  0 
 23 24  1  0  0  0  0 
 23 25  1  0  0  0  0 
 23 26  1  0  0  0  0 
 21 26  1  0  0  0  0 
 26 27  1  6  0  0  0 
 26 28  1  1  0  0  0 
 28 29  2  0  0  0  0 
 29 30  1  0  0  0  0 
 29 31  1  0  0  0  0 
 31 32  1  0  0  0  0 
 31 33  2  0  0  0  0 
 33 34  1  0  0  0  0 
 34 35  2  0  0  0  0 
 28 35  1  0  0  0  0 
 35 36  1  0  0  0  0 
 34 37  1  0  0  0  0 
 33 38  1  0  0  0  0 
 16 39  1  0  0  0  0 
 39 40  2  0  0  0  0 
 40 41  1  0  0  0  0 
 15 41  1  0  0  0  0 
 42 41  1  1  0  0  0 
 42 43  1  6  0  0  0 
 42 44  1  0  0  0  0 
 44 45  1  0  0  0  0 
 44 46  1  0  0  0  0 
 44 47  1  0  0  0  0 
 47 48  1  6  0  0  0 
 47 49  1  0  0  0  0 
 49 50  1  1  0  0  0 
 49 51  1  0  0  0  0 
 42 51  1  0  0  0  0 
 51 52  1  1  0  0  0 
 51 53  1  6  0  0  0 
 53 54  1  0  0  0  0 
 49 55  1  6  0  0  0 
 55 56  1  0  0  0  0 
 47 57  1  1  0  0  0 
 57 58  1  0  0  0  0 
 58 59  1  0  0  0  0 
 58 60  1  0  0  0  0 
 58 61  1  0  0  0  0 
 61 62  1  0  0  0  0 
 61 63  1  0  0  0  0 
 61 64  1  0  0  0  0 
 64 65  1  0  0  0  0 
M  END
> <Rank>
20

> <Priority_score>
0.176

> <Reaction_type>
aliphatic_hydroxylation_(primary_carbon_next_to_sec_carbon)

> <Parent_ID>
20

> <Parent_InChI>
InChI=1S/C23H28F2N6O4S/c1-2-7-36-23-27-21(26-15-9-12(15)11-3-4-13(24)14(25)8-11)18-22(28-23)31(30-29-18)16-10-17(35-6-5-32)20(34)19(16)33/h3-4,8,12,15-17,19-20,32-34H,2,5-7,9-10H2,1H3,(H,26,27,28)

> <Parent_SMILES>
CCCSc1nc(N[C@@H]2C[C@H]2c2ccc(F)c(F)c2)c2nnn([C@@H]3C[C@H](OCCO)[C@@H](O)[C@H]3O)c2n1

$$$$
Molecule 20_metabolite 21
  CDK     0516241031

 65 69  0  0  0  0  0  0  0  0999 V2000
   -7.9700   -0.6980    0.0000 C   0  0  0  0  0  0  0  0  0  0  0  0
   -9.2655   -1.4541    0.0000 H   0  0  0  0  0  0  0  0  0  0  0  0
   -7.0112    0.4555    0.0000 H   0  0  0  0  0  0  0  0  0  0  0  0
   -8.9396    0.4465    0.0000 H   0  0  0  0  0  0  0  0  0  0  0  0
   -6.6674   -1.4419    0.0000 C   0  0  0  0  0  0  0  0  0  0  0  0
   -7.6262   -2.5955    0.0000 H   0  0  0  0  0  0  0  0  0  0  0  0
   -5.3719   -0.6858    0.0000 C   0  0  0  0  0  0  0  0  0  0  0  0
   -3.8960   -0.4184    0.0000 H   0  0  0  0  0  0  0  0  0  0  0  0
   -4.8523   -2.0930    0.0000 H   0  0  0  0  0  0  0  0  0  0  0  0
   -5.3790    0.8141    0.0000 S   0  0  0  0  0  0  0  0  0  0  0  0
   -4.0835    1.5702    0.0000 C   0  0  0  0  0  0  0  0  0  0  0  0
   -4.0835    3.0748    0.0000 N   0  0  0  0  0  0  0  0  0  0  0  0
   -2.8096    3.8253    0.0000 C   0  0  0  0  0  0  0  0  0  0  0  0
   -1.4949    3.0826    0.0000 C   0  0  0  0  0  0  0  0  0  0  0  0
   -1.4975    1.6140    0.0000 C   0  0  0  0  0  0  0  0  0  0  0  0
   -2.7687    0.8276    0.0000 N   0  0  0  0  0  0  0  0  0  0  0  0
   -0.1879    0.8827    0.0000 N   0  0  0  0  0  0  0  0  0  0  0  0
   -0.1664   -0.6171    0.0000 H   0  0  0  0  0  0  0  0  0  0  0  0
    1.1003    1.6512    0.0000 C   0  0  2  0  0  0  0  0  0  0  0  0
    0.5670    3.0532    0.0000 H   0  0  0  0  0  0  0  0  0  0  0  0
    2.0812    0.5154    0.0000 C   0  0  0  0  0  0  0  0  0  0  0  0
    3.3911   -0.2155    0.0000 H   0  0  0  0  0  0  0  0  0  0  0  0
    1.1337   -0.6475    0.0000 H   0  0  0  0  0  0  0  0  0  0  0  0
    2.5735    1.9332    0.0000 C   0  0  1  0  0  0  0  0  0  0  0  0
    2.5516    3.4330    0.0000 H   0  0  0  0  0  0  0  0  0  0  0  0
    4.5283    1.6181    0.0000 C   0  0  0  0  0  0  0  0  0  0  0  0
    5.0626    0.2156    0.0000 C   0  0  0  0  0  0  0  0  0  0  0  0
    4.1153   -0.9474    0.0000 H   0  0  0  0  0  0  0  0  0  0  0  0
    6.5442   -0.0239    0.0000 C   0  0  0  0  0  0  0  0  0  0  0  0
    7.0775   -1.4259    0.0000 H   0  0  0  0  0  0  0  0  0  0  0  0
    7.4915    1.1391    0.0000 C   0  0  0  0  0  0  0  0  0  0  0  0
    6.9572    2.5416    0.0000 C   0  0  0  0  0  0  0  0  0  0  0  0
    5.4756    2.7811    0.0000 C   0  0  0  0  0  0  0  0  0  0  0  0
    4.9423    4.1831    0.0000 H   0  0  0  0  0  0  0  0  0  0  0  0
    7.9046    3.7046    0.0000 F   0  0  0  0  0  0  0  0  0  0  0  0
    8.9724    0.9004    0.0000 F   0  0  0  0  0  0  0  0  0  0  0  0
   -0.4047    4.0977    0.0000 N   0  0  0  0  0  0  0  0  0  0  0  0
   -1.0341    5.4639    0.0000 N   0  0  0  0  0  0  0  0  0  0  0  0
   -2.5204    5.2929    0.0000 N   0  0  0  0  0  0  0  0  0  0  0  0
   -3.5378    6.3951    0.0000 C   0  0  2  0  0  0  0  0  0  0  0  0
   -4.5251    5.2658    0.0000 H   0  0  0  0  0  0  0  0  0  0  0  0
   -4.7678    7.2573    0.0000 C   0  0  0  0  0  0  0  0  0  0  0  0
   -5.5009    5.9487    0.0000 H   0  0  0  0  0  0  0  0  0  0  0  0
   -6.1436    7.8550    0.0000 H   0  0  0  0  0  0  0  0  0  0  0  0
   -4.3110    8.6883    0.0000 C   0  0  1  0  0  0  0  0  0  0  0  0
   -5.7805    8.9893    0.0000 H   0  0  0  0  0  0  0  0  0  0  0  0
   -2.8184    8.7060    0.0000 C   0  0  2  0  0  0  0  0  0  0  0  0
   -2.9925   10.1959    0.0000 H   0  0  0  0  0  0  0  0  0  0  0  0
   -2.3392    7.2846    0.0000 C   0  0  1  0  0  0  0  0  0  0  0  0
   -0.9755    7.9094    0.0000 H   0  0  0  0  0  0  0  0  0  0  0  0
   -1.5757    5.9935    0.0000 O   0  0  0  0  0  0  0  0  0  0  0  0
   -0.0758    6.0091    0.0000 H   0  0  0  0  0  0  0  0  0  0  0  0
   -1.3548    9.0344    0.0000 O   0  0  0  0  0  0  0  0  0  0  0  0
   -0.9075   10.4662    0.0000 H   0  0  0  0  0  0  0  0  0  0  0  0
   -4.1686   10.1815    0.0000 O   0  0  0  0  0  0  0  0  0  0  0  0
   -5.3905   11.0514    0.0000 C   0  0  0  0  0  0  0  0  0  0  0  0
   -6.0351    9.6969    0.0000 H   0  0  0  0  0  0  0  0  0  0  0  0
   -6.8364   11.4509    0.0000 H   0  0  0  0  0  0  0  0  0  0  0  0
   -5.2481   12.5446    0.0000 C   0  0  0  0  0  0  0  0  0  0  0  0
   -4.6036   13.8991    0.0000 H   0  0  0  0  0  0  0  0  0  0  0  0
   -3.8023   12.1451    0.0000 H   0  0  0  0  0  0  0  0  0  0  0  0
   -6.4701   13.4146    0.0000 O   0  0  0  0  0  0  0  0  0  0  0  0
   -6.3277   14.9078    0.0000 H   0  0  0  0  0  0  0  0  0  0  0  0
   -5.6979   -2.5865    0.0000 O   0  0  0  0  0  0  0  0  0  0  0  0
   -6.2043   -3.9984    0.0000 H   0  0  0  0  0  0  0  0  0  0  0  0
  1  2  1  0  0  0  0 
  1  3  1  0  0  0  0 
  1  4  1  0  0  0  0 
  1  5  1  0  0  0  0 
  5  6  1  0  0  0  0 
  5  7  1  0  0  0  0 
  7  8  1  0  0  0  0 
  7  9  1  0  0  0  0 
  7 10  1  0  0  0  0 
 10 11  1  0  0  0  0 
 11 12  2  0  0  0  0 
 12 13  1  0  0  0  0 
 13 14  2  0  0  0  0 
 14 15  1  0  0  0  0 
 15 16  2  0  0  0  0 
 11 16  1  0  0  0  0 
 15 17  1  0  0  0  0 
 17 18  1  0  0  0  0 
 19 17  1  1  0  0  0 
 19 20  1  6  0  0  0 
 19 21  1  0  0  0  0 
 21 22  1  0  0  0  0 
 21 23  1  0  0  0  0 
 21 24  1  0  0  0  0 
 19 24  1  0  0  0  0 
 24 25  1  1  0  0  0 
 24 26  1  6  0  0  0 
 26 27  2  0  0  0  0 
 27 28  1  0  0  0  0 
 27 29  1  0  0  0  0 
 29 30  1  0  0  0  0 
 29 31  2  0  0  0  0 
 31 32  1  0  0  0  0 
 32 33  2  0  0  0  0 
 26 33  1  0  0  0  0 
 33 34  1  0  0  0  0 
 32 35  1  0  0  0  0 
 31 36  1  0  0  0  0 
 14 37  1  0  0  0  0 
 37 38  2  0  0  0  0 
 38 39  1  0  0  0  0 
 13 39  1  0  0  0  0 
 40 39  1  6  0  0  0 
 40 41  1  1  0  0  0 
 40 42  1  0  0  0  0 
 42 43  1  0  0  0  0 
 42 44  1  0  0  0  0 
 42 45  1  0  0  0  0 
 45 46  1  1  0  0  0 
 45 47  1  0  0  0  0 
 47 48  1  6  0  0  0 
 47 49  1  0  0  0  0 
 40 49  1  0  0  0  0 
 49 50  1  6  0  0  0 
 49 51  1  1  0  0  0 
 51 52  1  0  0  0  0 
 47 53  1  1  0  0  0 
 53 54  1  0  0  0  0 
 45 55  1  6  0  0  0 
 55 56  1  0  0  0  0 
 56 57  1  0  0  0  0 
 56 58  1  0  0  0  0 
 56 59  1  0  0  0  0 
 59 60  1  0  0  0  0 
 59 61  1  0  0  0  0 
 59 62  1  0  0  0  0 
 62 63  1  0  0  0  0 
  5 64  1  0  0  0  0 
 64 65  1  0  0  0  0 
M  END
> <Rank>
20

> <Priority_score>
0.176

> <Reaction_type>
aliphatic_hydroxylation_(sec_carbon,next_to_CH3)

> <Parent_ID>
20

> <Parent_InChI>
InChI=1S/C23H28F2N6O4S/c1-2-7-36-23-27-21(26-15-9-12(15)11-3-4-13(24)14(25)8-11)18-22(28-23)31(30-29-18)16-10-17(35-6-5-32)20(34)19(16)33/h3-4,8,12,15-17,19-20,32-34H,2,5-7,9-10H2,1H3,(H,26,27,28)

> <Parent_SMILES>
CCCSc1nc(N[C@@H]2C[C@H]2c2ccc(F)c(F)c2)c2nnn([C@@H]3C[C@H](OCCO)[C@@H](O)[C@H]3O)c2n1

$$$$
Molecule 20_metabolite 22
  CDK     0516241031

 65 69  0  0  0  0  0  0  0  0999 V2000
   -6.3531   -3.4685    0.0000 C   0  0  0  0  0  0  0  0  0  0  0  0
   -7.6486   -4.2246    0.0000 H   0  0  0  0  0  0  0  0  0  0  0  0
   -4.8771   -3.2010    0.0000 H   0  0  0  0  0  0  0  0  0  0  0  0
   -5.8334   -4.8756    0.0000 H   0  0  0  0  0  0  0  0  0  0  0  0
   -6.3601   -1.9685    0.0000 C   0  0  0  0  0  0  0  0  0  0  0  0
   -7.8361   -2.2359    0.0000 H   0  0  0  0  0  0  0  0  0  0  0  0
   -6.8798   -0.5614    0.0000 H   0  0  0  0  0  0  0  0  0  0  0  0
   -5.0646   -1.2124    0.0000 C   0  0  0  0  0  0  0  0  0  0  0  0
   -4.1059   -0.0588    0.0000 H   0  0  0  0  0  0  0  0  0  0  0  0
   -6.0342   -0.0679    0.0000 O   0  0  0  0  0  0  0  0  0  0  0  0
   -5.5278    1.3441    0.0000 H   0  0  0  0  0  0  0  0  0  0  0  0
   -3.7621   -1.9563    0.0000 S   0  0  0  0  0  0  0  0  0  0  0  0
   -2.4666   -1.2002    0.0000 C   0  0  0  0  0  0  0  0  0  0  0  0
   -1.1566   -1.9402    0.0000 N   0  0  0  0  0  0  0  0  0  0  0  0
    0.1234   -1.2002    0.0000 C   0  0  0  0  0  0  0  0  0  0  0  0
    0.1234    0.3098    0.0000 C   0  0  0  0  0  0  0  0  0  0  0  0
   -1.1566    1.0298    0.0000 C   0  0  0  0  0  0  0  0  0  0  0  0
   -2.4666    0.3098    0.0000 N   0  0  0  0  0  0  0  0  0  0  0  0
   -1.1492    2.5298    0.0000 N   0  0  0  0  0  0  0  0  0  0  0  0
   -2.4445    3.2862    0.0000 H   0  0  0  0  0  0  0  0  0  0  0  0
    0.1535    3.2734    0.0000 C   0  0  2  0  0  0  0  0  0  0  0  0
    1.1119    2.1195    0.0000 H   0  0  0  0  0  0  0  0  0  0  0  0
   -0.3530    4.6862    0.0000 C   0  0  0  0  0  0  0  0  0  0  0  0
   -0.3451    6.1862    0.0000 H   0  0  0  0  0  0  0  0  0  0  0  0
   -1.8315    4.4331    0.0000 H   0  0  0  0  0  0  0  0  0  0  0  0
    1.1236    4.4175    0.0000 C   0  0  1  0  0  0  0  0  0  0  0  0
    2.4187    3.6607    0.0000 H   0  0  0  0  0  0  0  0  0  0  0  0
    1.8107    6.2745    0.0000 C   0  0  0  0  0  0  0  0  0  0  0  0
    0.8523    7.4295    0.0000 C   0  0  0  0  0  0  0  0  0  0  0  0
   -0.6262    7.1767    0.0000 H   0  0  0  0  0  0  0  0  0  0  0  0
    1.3725    8.8373    0.0000 C   0  0  0  0  0  0  0  0  0  0  0  0
    0.4141    9.9912    0.0000 H   0  0  0  0  0  0  0  0  0  0  0  0
    2.8511    9.0901    0.0000 C   0  0  0  0  0  0  0  0  0  0  0  0
    3.8094    7.9351    0.0000 C   0  0  0  0  0  0  0  0  0  0  0  0
    3.2893    6.5273    0.0000 C   0  0  0  0  0  0  0  0  0  0  0  0
    4.2477    5.3734    0.0000 H   0  0  0  0  0  0  0  0  0  0  0  0
    5.2880    8.1879    0.0000 F   0  0  0  0  0  0  0  0  0  0  0  0
    3.3716   10.4969    0.0000 F   0  0  0  0  0  0  0  0  0  0  0  0
    1.5434    0.7598    0.0000 N   0  0  0  0  0  0  0  0  0  0  0  0
    2.4234   -0.4602    0.0000 N   0  0  0  0  0  0  0  0  0  0  0  0
    1.5434   -1.6702    0.0000 N   0  0  0  0  0  0  0  0  0  0  0  0
    2.0027   -3.0981    0.0000 C   0  0  2  0  0  0  0  0  0  0  0  0
    0.5339   -3.4023    0.0000 H   0  0  0  0  0  0  0  0  0  0  0  0
    2.1485   -4.5931    0.0000 C   0  0  0  0  0  0  0  0  0  0  0  0
    0.6485   -4.5877    0.0000 H   0  0  0  0  0  0  0  0  0  0  0  0
    1.9923   -6.0849    0.0000 H   0  0  0  0  0  0  0  0  0  0  0  0
    3.6191   -4.8991    0.0000 C   0  0  1  0  0  0  0  0  0  0  0  0
    3.1584   -6.3267    0.0000 H   0  0  0  0  0  0  0  0  0  0  0  0
    4.3686   -3.6083    0.0000 C   0  0  2  0  0  0  0  0  0  0  0  0
    5.5802   -4.4927    0.0000 H   0  0  0  0  0  0  0  0  0  0  0  0
    3.3667   -2.4920    0.0000 C   0  0  1  0  0  0  0  0  0  0  0  0
    4.5814   -1.6119    0.0000 H   0  0  0  0  0  0  0  0  0  0  0  0
    2.6181   -1.1922    0.0000 O   0  0  0  0  0  0  0  0  0  0  0  0
    3.3694    0.1061    0.0000 H   0  0  0  0  0  0  0  0  0  0  0  0
    5.3745   -2.4955    0.0000 O   0  0  0  0  0  0  0  0  0  0  0  0
    6.8411   -2.8102    0.0000 H   0  0  0  0  0  0  0  0  0  0  0  0
    4.9893   -5.5096    0.0000 O   0  0  0  0  0  0  0  0  0  0  0  0
    5.1457   -7.0014    0.0000 C   0  0  0  0  0  0  0  0  0  0  0  0
    3.6494   -6.8964    0.0000 H   0  0  0  0  0  0  0  0  0  0  0  0
    4.7824   -8.4568    0.0000 H   0  0  0  0  0  0  0  0  0  0  0  0
    6.5159   -7.6119    0.0000 C   0  0  0  0  0  0  0  0  0  0  0  0
    8.0122   -7.7169    0.0000 H   0  0  0  0  0  0  0  0  0  0  0  0
    6.8791   -6.1565    0.0000 H   0  0  0  0  0  0  0  0  0  0  0  0
    6.6723   -9.1037    0.0000 O   0  0  0  0  0  0  0  0  0  0  0  0
    8.0424   -9.7141    0.0000 H   0  0  0  0  0  0  0  0  0  0  0  0
  1  2  1  0  0  0  0 
  1  3  1  0  0  0  0 
  1  4  1  0  0  0  0 
  1  5  1  0  0  0  0 
  5  6  1  0  0  0  0 
  5  7  1  0  0  0  0 
  5  8  1  0  0  0  0 
  8  9  1  0  0  0  0 
  8 10  1  0  0  0  0 
 10 11  1  0  0  0  0 
  8 12  1  0  0  0  0 
 12 13  1  0  0  0  0 
 13 14  2  0  0  0  0 
 14 15  1  0  0  0  0 
 15 16  2  0  0  0  0 
 16 17  1  0  0  0  0 
 17 18  2  0  0  0  0 
 13 18  1  0  0  0  0 
 17 19  1  0  0  0  0 
 19 20  1  0  0  0  0 
 21 19  1  6  0  0  0 
 21 22  1  1  0  0  0 
 21 23  1  0  0  0  0 
 23 24  1  0  0  0  0 
 23 25  1  0  0  0  0 
 23 26  1  0  0  0  0 
 21 26  1  0  0  0  0 
 26 27  1  6  0  0  0 
 26 28  1  1  0  0  0 
 28 29  2  0  0  0  0 
 29 30  1  0  0  0  0 
 29 31  1  0  0  0  0 
 31 32  1  0  0  0  0 
 31 33  2  0  0  0  0 
 33 34  1  0  0  0  0 
 34 35  2  0  0  0  0 
 28 35  1  0  0  0  0 
 35 36  1  0  0  0  0 
 34 37  1  0  0  0  0 
 33 38  1  0  0  0  0 
 16 39  1  0  0  0  0 
 39 40  2  0  0  0  0 
 40 41  1  0  0  0  0 
 15 41  1  0  0  0  0 
 42 41  1  1  0  0  0 
 42 43  1  6  0  0  0 
 42 44  1  0  0  0  0 
 44 45  1  0  0  0  0 
 44 46  1  0  0  0  0 
 44 47  1  0  0  0  0 
 47 48  1  6  0  0  0 
 47 49  1  0  0  0  0 
 49 50  1  1  0  0  0 
 49 51  1  0  0  0  0 
 42 51  1  0  0  0  0 
 51 52  1  1  0  0  0 
 51 53  1  6  0  0  0 
 53 54  1  0  0  0  0 
 49 55  1  6  0  0  0 
 55 56  1  0  0  0  0 
 47 57  1  1  0  0  0 
 57 58  1  0  0  0  0 
 58 59  1  0  0  0  0 
 58 60  1  0  0  0  0 
 58 61  1  0  0  0  0 
 61 62  1  0  0  0  0 
 61 63  1  0  0  0  0 
 61 64  1  0  0  0  0 
 64 65  1  0  0  0  0 
M  END
> <Rank>
20

> <Priority_score>
0.176

> <Reaction_type>
aliphatic hydroxylation

> <Parent_ID>
20

> <Parent_InChI>
InChI=1S/C23H28F2N6O4S/c1-2-7-36-23-27-21(26-15-9-12(15)11-3-4-13(24)14(25)8-11)18-22(28-23)31(30-29-18)16-10-17(35-6-5-32)20(34)19(16)33/h3-4,8,12,15-17,19-20,32-34H,2,5-7,9-10H2,1H3,(H,26,27,28)

> <Parent_SMILES>
CCCSc1nc(N[C@@H]2C[C@H]2c2ccc(F)c(F)c2)c2nnn([C@@H]3C[C@H](OCCO)[C@@H](O)[C@H]3O)c2n1

$$$$
Molecule 20_metabolite 23
  CDK     0516241031

 64 68  0  0  0  0  0  0  0  0999 V2000
   -2.7732    7.4468    0.0000 C   0  0  0  0  0  0  0  0  0  0  0  0
   -1.2972    7.1795    0.0000 H   0  0  0  0  0  0  0  0  0  0  0  0
   -3.7434    6.3018    0.0000 C   0  0  0  0  0  0  0  0  0  0  0  0
   -5.2203    6.5686    0.0000 C   0  0  0  0  0  0  0  0  0  0  0  0
   -6.1895    5.4237    0.0000 H   0  0  0  0  0  0  0  0  0  0  0  0
   -5.7270    7.9804    0.0000 C   0  0  0  0  0  0  0  0  0  0  0  0
   -4.7568    9.1254    0.0000 C   0  0  0  0  0  0  0  0  0  0  0  0
   -3.2799    8.8587    0.0000 C   0  0  0  0  0  0  0  0  0  0  0  0
   -2.3107   10.0035    0.0000 H   0  0  0  0  0  0  0  0  0  0  0  0
   -5.2635   10.5373    0.0000 F   0  0  0  0  0  0  0  0  0  0  0  0
   -7.2030    8.2477    0.0000 F   0  0  0  0  0  0  0  0  0  0  0  0
   -3.0746    4.4382    0.0000 C   0  0  2  0  0  0  0  0  0  0  0  0
   -4.3770    3.6942    0.0000 H   0  0  0  0  0  0  0  0  0  0  0  0
   -1.5954    4.6923    0.0000 C   0  0  0  0  0  0  0  0  0  0  0  0
   -0.1195    4.4247    0.0000 H   0  0  0  0  0  0  0  0  0  0  0  0
   -1.5885    6.1923    0.0000 H   0  0  0  0  0  0  0  0  0  0  0  0
   -2.1158    3.2846    0.0000 C   0  0  1  0  0  0  0  0  0  0  0  0
   -3.0855    2.1402    0.0000 H   0  0  0  0  0  0  0  0  0  0  0  0
   -0.8205    2.5282    0.0000 N   0  0  0  0  0  0  0  0  0  0  0  0
    0.4822    3.2718    0.0000 H   0  0  0  0  0  0  0  0  0  0  0  0
   -0.8279    1.0282    0.0000 C   0  0  0  0  0  0  0  0  0  0  0  0
   -2.1379    0.3082    0.0000 N   0  0  0  0  0  0  0  0  0  0  0  0
   -2.1379   -1.2018    0.0000 C   0  0  0  0  0  0  0  0  0  0  0  0
   -0.8279   -1.9418    0.0000 N   0  0  0  0  0  0  0  0  0  0  0  0
    0.4521   -1.2018    0.0000 C   0  0  0  0  0  0  0  0  0  0  0  0
    0.4521    0.3082    0.0000 C   0  0  0  0  0  0  0  0  0  0  0  0
    1.8721    0.7582    0.0000 N   0  0  0  0  0  0  0  0  0  0  0  0
    2.7521   -0.4618    0.0000 N   0  0  0  0  0  0  0  0  0  0  0  0
    1.8721   -1.6718    0.0000 N   0  0  0  0  0  0  0  0  0  0  0  0
    2.3314   -3.0997    0.0000 C   0  0  2  0  0  0  0  0  0  0  0  0
    0.8626   -3.4039    0.0000 H   0  0  0  0  0  0  0  0  0  0  0  0
    2.4773   -4.5947    0.0000 C   0  0  0  0  0  0  0  0  0  0  0  0
    0.9773   -4.5894    0.0000 H   0  0  0  0  0  0  0  0  0  0  0  0
    2.3210   -6.0865    0.0000 H   0  0  0  0  0  0  0  0  0  0  0  0
    3.9478   -4.9008    0.0000 C   0  0  1  0  0  0  0  0  0  0  0  0
    3.4871   -6.3283    0.0000 H   0  0  0  0  0  0  0  0  0  0  0  0
    4.6974   -3.6100    0.0000 C   0  0  2  0  0  0  0  0  0  0  0  0
    5.9089   -4.4943    0.0000 H   0  0  0  0  0  0  0  0  0  0  0  0
    3.6955   -2.4936    0.0000 C   0  0  1  0  0  0  0  0  0  0  0  0
    4.9101   -1.6135    0.0000 H   0  0  0  0  0  0  0  0  0  0  0  0
    2.9468   -1.1938    0.0000 O   0  0  0  0  0  0  0  0  0  0  0  0
    3.6981    0.1045    0.0000 H   0  0  0  0  0  0  0  0  0  0  0  0
    5.7032   -2.4972    0.0000 O   0  0  0  0  0  0  0  0  0  0  0  0
    7.1698   -2.8118    0.0000 H   0  0  0  0  0  0  0  0  0  0  0  0
    5.3180   -5.5112    0.0000 O   0  0  0  0  0  0  0  0  0  0  0  0
    5.4744   -7.0030    0.0000 C   0  0  0  0  0  0  0  0  0  0  0  0
    3.9781   -6.8980    0.0000 H   0  0  0  0  0  0  0  0  0  0  0  0
    5.1112   -8.4584    0.0000 H   0  0  0  0  0  0  0  0  0  0  0  0
    6.8446   -7.6135    0.0000 C   0  0  0  0  0  0  0  0  0  0  0  0
    8.3409   -7.7185    0.0000 H   0  0  0  0  0  0  0  0  0  0  0  0
    7.2078   -6.1581    0.0000 H   0  0  0  0  0  0  0  0  0  0  0  0
    7.0010   -9.1053    0.0000 O   0  0  0  0  0  0  0  0  0  0  0  0
    8.3712   -9.7157    0.0000 H   0  0  0  0  0  0  0  0  0  0  0  0
   -3.4334   -1.9579    0.0000 S   0  0  0  0  0  0  0  0  0  0  0  0
   -4.7359   -1.2140    0.0000 C   0  0  0  0  0  0  0  0  0  0  0  0
   -3.7771   -0.0604    0.0000 H   0  0  0  0  0  0  0  0  0  0  0  0
   -5.7055   -0.0695    0.0000 H   0  0  0  0  0  0  0  0  0  0  0  0
   -6.0314   -1.9701    0.0000 C   0  0  0  0  0  0  0  0  0  0  0  0
   -6.9902   -3.1237    0.0000 H   0  0  0  0  0  0  0  0  0  0  0  0
   -5.0618   -3.1146    0.0000 H   0  0  0  0  0  0  0  0  0  0  0  0
   -7.3340   -1.2262    0.0000 C   0  0  0  0  0  0  0  0  0  0  0  0
   -7.3410    0.2738    0.0000 O   0  0  0  0  0  0  0  0  0  0  0  0
   -8.6295   -1.9823    0.0000 O   0  0  0  0  0  0  0  0  0  0  0  0
   -9.9320   -1.2384    0.0000 H   0  0  0  0  0  0  0  0  0  0  0  0
  1  2  1  0  0  0  0 
  1  3  2  0  0  0  0 
  3  4  1  0  0  0  0 
  4  5  1  0  0  0  0 
  4  6  2  0  0  0  0 
  6  7  1  0  0  0  0 
  7  8  2  0  0  0  0 
  1  8  1  0  0  0  0 
  8  9  1  0  0  0  0 
  7 10  1  0  0  0  0 
  6 11  1  0  0  0  0 
 12  3  1  6  0  0  0 
 12 13  1  1  0  0  0 
 12 14  1  0  0  0  0 
 14 15  1  0  0  0  0 
 14 16  1  0  0  0  0 
 14 17  1  0  0  0  0 
 12 17  1  0  0  0  0 
 17 18  1  6  0  0  0 
 17 19  1  1  0  0  0 
 19 20  1  0  0  0  0 
 19 21  1  0  0  0  0 
 21 22  2  0  0  0  0 
 22 23  1  0  0  0  0 
 23 24  2  0  0  0  0 
 24 25  1  0  0  0  0 
 25 26  2  0  0  0  0 
 21 26  1  0  0  0  0 
 26 27  1  0  0  0  0 
 27 28  2  0  0  0  0 
 28 29  1  0  0  0  0 
 25 29  1  0  0  0  0 
 30 29  1  1  0  0  0 
 30 31  1  6  0  0  0 
 30 32  1  0  0  0  0 
 32 33  1  0  0  0  0 
 32 34  1  0  0  0  0 
 32 35  1  0  0  0  0 
 35 36  1  6  0  0  0 
 35 37  1  0  0  0  0 
 37 38  1  1  0  0  0 
 37 39  1  0  0  0  0 
 30 39  1  0  0  0  0 
 39 40  1  1  0  0  0 
 39 41  1  6  0  0  0 
 41 42  1  0  0  0  0 
 37 43  1  6  0  0  0 
 43 44  1  0  0  0  0 
 35 45  1  1  0  0  0 
 45 46  1  0  0  0  0 
 46 47  1  0  0  0  0 
 46 48  1  0  0  0  0 
 46 49  1  0  0  0  0 
 49 50  1  0  0  0  0 
 49 51  1  0  0  0  0 
 49 52  1  0  0  0  0 
 52 53  1  0  0  0  0 
 23 54  1  0  0  0  0 
 54 55  1  0  0  0  0 
 55 56  1  0  0  0  0 
 55 57  1  0  0  0  0 
 55 58  1  0  0  0  0 
 58 59  1  0  0  0  0 
 58 60  1  0  0  0  0 
 58 61  1  0  0  0  0 
 61 62  2  0  0  0  0 
 61 63  1  0  0  0  0 
 63 64  1  0  0  0  0 
M  END
> <Rank>
20

> <Priority_score>
0.176

> <Reaction_type>
carboxylation_(primary_carbon_next_to_sec_carbon)

> <Parent_ID>
20

> <Parent_InChI>
InChI=1S/C23H28F2N6O4S/c1-2-7-36-23-27-21(26-15-9-12(15)11-3-4-13(24)14(25)8-11)18-22(28-23)31(30-29-18)16-10-17(35-6-5-32)20(34)19(16)33/h3-4,8,12,15-17,19-20,32-34H,2,5-7,9-10H2,1H3,(H,26,27,28)

> <Parent_SMILES>
CCCSc1nc(N[C@@H]2C[C@H]2c2ccc(F)c(F)c2)c2nnn([C@@H]3C[C@H](OCCO)[C@@H](O)[C@H]3O)c2n1

$$$$
Molecule 20_metabolite 24
  CDK     0516241031

 62 66  0  0  0  0  0  0  0  0999 V2000
   -7.9700   -0.6980    0.0000 C   0  0  0  0  0  0  0  0  0  0  0  0
   -9.2655   -1.4541    0.0000 H   0  0  0  0  0  0  0  0  0  0  0  0
   -7.0112    0.4555    0.0000 H   0  0  0  0  0  0  0  0  0  0  0  0
   -8.9396    0.4465    0.0000 H   0  0  0  0  0  0  0  0  0  0  0  0
   -6.6674   -1.4419    0.0000 C   0  0  0  0  0  0  0  0  0  0  0  0
   -7.6262   -2.5955    0.0000 H   0  0  0  0  0  0  0  0  0  0  0  0
   -5.6979   -2.5865    0.0000 H   0  0  0  0  0  0  0  0  0  0  0  0
   -5.3719   -0.6858    0.0000 C   0  0  0  0  0  0  0  0  0  0  0  0
   -3.8960   -0.4184    0.0000 H   0  0  0  0  0  0  0  0  0  0  0  0
   -4.8523   -2.0930    0.0000 H   0  0  0  0  0  0  0  0  0  0  0  0
   -5.3790    0.8141    0.0000 S   0  0  0  0  0  0  0  0  0  0  0  0
   -4.0835    1.5702    0.0000 C   0  0  0  0  0  0  0  0  0  0  0  0
   -4.0835    3.0748    0.0000 N   0  0  0  0  0  0  0  0  0  0  0  0
   -2.8096    3.8253    0.0000 C   0  0  0  0  0  0  0  0  0  0  0  0
   -1.4949    3.0826    0.0000 C   0  0  0  0  0  0  0  0  0  0  0  0
   -1.4975    1.6140    0.0000 C   0  0  0  0  0  0  0  0  0  0  0  0
   -2.7687    0.8276    0.0000 N   0  0  0  0  0  0  0  0  0  0  0  0
   -0.1879    0.8827    0.0000 N   0  0  0  0  0  0  0  0  0  0  0  0
   -0.1664   -0.6171    0.0000 H   0  0  0  0  0  0  0  0  0  0  0  0
    1.1003    1.6512    0.0000 C   0  0  2  0  0  0  0  0  0  0  0  0
    0.5670    3.0532    0.0000 H   0  0  0  0  0  0  0  0  0  0  0  0
    2.0812    0.5154    0.0000 C   0  0  0  0  0  0  0  0  0  0  0  0
    3.3911   -0.2155    0.0000 H   0  0  0  0  0  0  0  0  0  0  0  0
    1.1337   -0.6475    0.0000 H   0  0  0  0  0  0  0  0  0  0  0  0
    2.5735    1.9332    0.0000 C   0  0  1  0  0  0  0  0  0  0  0  0
    2.5516    3.4330    0.0000 H   0  0  0  0  0  0  0  0  0  0  0  0
    4.5283    1.6181    0.0000 C   0  0  0  0  0  0  0  0  0  0  0  0
    5.0626    0.2156    0.0000 C   0  0  0  0  0  0  0  0  0  0  0  0
    4.1153   -0.9474    0.0000 H   0  0  0  0  0  0  0  0  0  0  0  0
    6.5442   -0.0239    0.0000 C   0  0  0  0  0  0  0  0  0  0  0  0
    7.0775   -1.4259    0.0000 H   0  0  0  0  0  0  0  0  0  0  0  0
    7.4915    1.1391    0.0000 C   0  0  0  0  0  0  0  0  0  0  0  0
    6.9572    2.5416    0.0000 C   0  0  0  0  0  0  0  0  0  0  0  0
    5.4756    2.7811    0.0000 C   0  0  0  0  0  0  0  0  0  0  0  0
    4.9423    4.1831    0.0000 H   0  0  0  0  0  0  0  0  0  0  0  0
    7.9046    3.7046    0.0000 F   0  0  0  0  0  0  0  0  0  0  0  0
    8.9724    0.9004    0.0000 F   0  0  0  0  0  0  0  0  0  0  0  0
   -0.4047    4.0977    0.0000 N   0  0  0  0  0  0  0  0  0  0  0  0
   -1.0341    5.4639    0.0000 N   0  0  0  0  0  0  0  0  0  0  0  0
   -2.5204    5.2929    0.0000 N   0  0  0  0  0  0  0  0  0  0  0  0
   -3.5378    6.3951    0.0000 C   0  0  2  0  0  0  0  0  0  0  0  0
   -4.5251    5.2658    0.0000 H   0  0  0  0  0  0  0  0  0  0  0  0
   -4.7678    7.2573    0.0000 C   0  0  0  0  0  0  0  0  0  0  0  0
   -5.5009    5.9487    0.0000 H   0  0  0  0  0  0  0  0  0  0  0  0
   -6.1436    7.8550    0.0000 H   0  0  0  0  0  0  0  0  0  0  0  0
   -4.3110    8.6883    0.0000 C   0  0  1  0  0  0  0  0  0  0  0  0
   -5.7805    8.9893    0.0000 H   0  0  0  0  0  0  0  0  0  0  0  0
   -2.8184    8.7060    0.0000 C   0  0  2  0  0  0  0  0  0  0  0  0
   -2.9925   10.1959    0.0000 H   0  0  0  0  0  0  0  0  0  0  0  0
   -2.3392    7.2846    0.0000 C   0  0  1  0  0  0  0  0  0  0  0  0
   -0.9755    7.9094    0.0000 H   0  0  0  0  0  0  0  0  0  0  0  0
   -1.5757    5.9935    0.0000 O   0  0  0  0  0  0  0  0  0  0  0  0
   -0.0758    6.0091    0.0000 H   0  0  0  0  0  0  0  0  0  0  0  0
   -1.3548    9.0344    0.0000 O   0  0  0  0  0  0  0  0  0  0  0  0
   -0.9075   10.4662    0.0000 H   0  0  0  0  0  0  0  0  0  0  0  0
   -4.1686   10.1815    0.0000 O   0  0  0  0  0  0  0  0  0  0  0  0
   -5.3905   11.0514    0.0000 C   0  0  0  0  0  0  0  0  0  0  0  0
   -6.7549   10.4281    0.0000 H   0  0  0  0  0  0  0  0  0  0  0  0
   -5.2481   12.5446    0.0000 C   0  0  0  0  0  0  0  0  0  0  0  0
   -3.8838   13.1679    0.0000 H   0  0  0  0  0  0  0  0  0  0  0  0
   -6.4701   13.4146    0.0000 O   0  0  0  0  0  0  0  0  0  0  0  0
   -6.3277   14.9078    0.0000 H   0  0  0  0  0  0  0  0  0  0  0  0
  1  2  1  0  0  0  0 
  1  3  1  0  0  0  0 
  1  4  1  0  0  0  0 
  1  5  1  0  0  0  0 
  5  6  1  0  0  0  0 
  5  7  1  0  0  0  0 
  5  8  1  0  0  0  0 
  8  9  1  0  0  0  0 
  8 10  1  0  0  0  0 
  8 11  1  0  0  0  0 
 11 12  1  0  0  0  0 
 12 13  2  0  0  0  0 
 13 14  1  0  0  0  0 
 14 15  2  0  0  0  0 
 15 16  1  0  0  0  0 
 16 17  2  0  0  0  0 
 12 17  1  0  0  0  0 
 16 18  1  0  0  0  0 
 18 19  1  0  0  0  0 
 20 18  1  1  0  0  0 
 20 21  1  6  0  0  0 
 20 22  1  0  0  0  0 
 22 23  1  0  0  0  0 
 22 24  1  0  0  0  0 
 22 25  1  0  0  0  0 
 20 25  1  0  0  0  0 
 25 26  1  1  0  0  0 
 25 27  1  6  0  0  0 
 27 28  2  0  0  0  0 
 28 29  1  0  0  0  0 
 28 30  1  0  0  0  0 
 30 31  1  0  0  0  0 
 30 32  2  0  0  0  0 
 32 33  1  0  0  0  0 
 33 34  2  0  0  0  0 
 27 34  1  0  0  0  0 
 34 35  1  0  0  0  0 
 33 36  1  0  0  0  0 
 32 37  1  0  0  0  0 
 15 38  1  0  0  0  0 
 38 39  2  0  0  0  0 
 39 40  1  0  0  0  0 
 14 40  1  0  0  0  0 
 41 40  1  6  0  0  0 
 41 42  1  1  0  0  0 
 41 43  1  0  0  0  0 
 43 44  1  0  0  0  0 
 43 45  1  0  0  0  0 
 43 46  1  0  0  0  0 
 46 47  1  1  0  0  0 
 46 48  1  0  0  0  0 
 48 49  1  6  0  0  0 
 48 50  1  0  0  0  0 
 41 50  1  0  0  0  0 
 50 51  1  6  0  0  0 
 50 52  1  1  0  0  0 
 52 53  1  0  0  0  0 
 48 54  1  1  0  0  0 
 54 55  1  0  0  0  0 
 46 56  1  6  0  0  0 
 56 57  1  0  0  0  0 
 57 58  1  4  0  0  0 
 57 59  2  0  0  0  0 
 59 60  1  0  0  0  0 
 59 61  1  0  0  0  0 
 61 62  1  0  0  0  0 
M  END
> <Rank>
24

> <Priority_score>
0.132

> <Reaction_type>
alkyl dehydrogenation

> <Parent_ID>
20

> <Parent_InChI>
InChI=1S/C23H28F2N6O4S/c1-2-7-36-23-27-21(26-15-9-12(15)11-3-4-13(24)14(25)8-11)18-22(28-23)31(30-29-18)16-10-17(35-6-5-32)20(34)19(16)33/h3-4,8,12,15-17,19-20,32-34H,2,5-7,9-10H2,1H3,(H,26,27,28)

> <Parent_SMILES>
CCCSc1nc(N[C@@H]2C[C@H]2c2ccc(F)c(F)c2)c2nnn([C@@H]3C[C@H](OCCO)[C@@H](O)[C@H]3O)c2n1

$$$$
Molecule 20_metabolite 25
  CDK     0516241031

 65 69  0  0  0  0  0  0  0  0999 V2000
   -7.9700   -0.6980    0.0000 C   0  0  0  0  0  0  0  0  0  0  0  0
   -9.2655   -1.4541    0.0000 H   0  0  0  0  0  0  0  0  0  0  0  0
   -7.0112    0.4555    0.0000 H   0  0  0  0  0  0  0  0  0  0  0  0
   -8.9396    0.4465    0.0000 H   0  0  0  0  0  0  0  0  0  0  0  0
   -6.6674   -1.4419    0.0000 C   0  0  0  0  0  0  0  0  0  0  0  0
   -7.6262   -2.5955    0.0000 H   0  0  0  0  0  0  0  0  0  0  0  0
   -5.6979   -2.5865    0.0000 H   0  0  0  0  0  0  0  0  0  0  0  0
   -5.3719   -0.6858    0.0000 C   0  0  0  0  0  0  0  0  0  0  0  0
   -3.8960   -0.4184    0.0000 H   0  0  0  0  0  0  0  0  0  0  0  0
   -4.8523   -2.0930    0.0000 H   0  0  0  0  0  0  0  0  0  0  0  0
   -5.3790    0.8141    0.0000 S   0  0  0  0  0  0  0  0  0  0  0  0
   -4.0835    1.5702    0.0000 C   0  0  0  0  0  0  0  0  0  0  0  0
   -4.0835    3.0748    0.0000 N   0  0  0  0  0  0  0  0  0  0  0  0
   -2.8096    3.8253    0.0000 C   0  0  0  0  0  0  0  0  0  0  0  0
   -1.4949    3.0826    0.0000 C   0  0  0  0  0  0  0  0  0  0  0  0
   -1.4975    1.6140    0.0000 C   0  0  0  0  0  0  0  0  0  0  0  0
   -2.7687    0.8276    0.0000 N   0  0  0  0  0  0  0  0  0  0  0  0
   -0.1879    0.8827    0.0000 N   0  0  0  0  0  0  0  0  0  0  0  0
   -0.1664   -0.6171    0.0000 H   0  0  0  0  0  0  0  0  0  0  0  0
    1.1003    1.6512    0.0000 C   0  0  2  0  0  0  0  0  0  0  0  0
    0.5670    3.0532    0.0000 H   0  0  0  0  0  0  0  0  0  0  0  0
    2.0812    0.5154    0.0000 C   0  0  0  0  0  0  0  0  0  0  0  0
    3.3911   -0.2155    0.0000 H   0  0  0  0  0  0  0  0  0  0  0  0
    1.1337   -0.6475    0.0000 H   0  0  0  0  0  0  0  0  0  0  0  0
    2.5735    1.9332    0.0000 C   0  0  1  0  0  0  0  0  0  0  0  0
    2.5516    3.4330    0.0000 H   0  0  0  0  0  0  0  0  0  0  0  0
    4.5283    1.6181    0.0000 C   0  0  0  0  0  0  0  0  0  0  0  0
    5.0626    0.2156    0.0000 C   0  0  0  0  0  0  0  0  0  0  0  0
    4.1153   -0.9474    0.0000 H   0  0  0  0  0  0  0  0  0  0  0  0
    6.5442   -0.0239    0.0000 C   0  0  0  0  0  0  0  0  0  0  0  0
    7.4915    1.1391    0.0000 C   0  0  0  0  0  0  0  0  0  0  0  0
    6.9572    2.5416    0.0000 C   0  0  0  0  0  0  0  0  0  0  0  0
    5.4756    2.7811    0.0000 C   0  0  0  0  0  0  0  0  0  0  0  0
    4.9423    4.1831    0.0000 H   0  0  0  0  0  0  0  0  0  0  0  0
    7.9046    3.7046    0.0000 F   0  0  0  0  0  0  0  0  0  0  0  0
    8.9724    0.9004    0.0000 F   0  0  0  0  0  0  0  0  0  0  0  0
    7.0775   -1.4259    0.0000 O   0  0  0  0  0  0  0  0  0  0  0  0
    8.5583   -1.6650    0.0000 H   0  0  0  0  0  0  0  0  0  0  0  0
   -0.4047    4.0977    0.0000 N   0  0  0  0  0  0  0  0  0  0  0  0
   -1.0341    5.4639    0.0000 N   0  0  0  0  0  0  0  0  0  0  0  0
   -2.5204    5.2929    0.0000 N   0  0  0  0  0  0  0  0  0  0  0  0
   -3.5378    6.3951    0.0000 C   0  0  2  0  0  0  0  0  0  0  0  0
   -4.5251    5.2658    0.0000 H   0  0  0  0  0  0  0  0  0  0  0  0
   -4.7678    7.2573    0.0000 C   0  0  0  0  0  0  0  0  0  0  0  0
   -5.5009    5.9487    0.0000 H   0  0  0  0  0  0  0  0  0  0  0  0
   -6.1436    7.8550    0.0000 H   0  0  0  0  0  0  0  0  0  0  0  0
   -4.3110    8.6883    0.0000 C   0  0  1  0  0  0  0  0  0  0  0  0
   -5.7805    8.9893    0.0000 H   0  0  0  0  0  0  0  0  0  0  0  0
   -2.8184    8.7060    0.0000 C   0  0  2  0  0  0  0  0  0  0  0  0
   -2.9925   10.1959    0.0000 H   0  0  0  0  0  0  0  0  0  0  0  0
   -2.3392    7.2846    0.0000 C   0  0  1  0  0  0  0  0  0  0  0  0
   -0.9755    7.9094    0.0000 H   0  0  0  0  0  0  0  0  0  0  0  0
   -1.5757    5.9935    0.0000 O   0  0  0  0  0  0  0  0  0  0  0  0
   -0.0758    6.0091    0.0000 H   0  0  0  0  0  0  0  0  0  0  0  0
   -1.3548    9.0344    0.0000 O   0  0  0  0  0  0  0  0  0  0  0  0
   -0.9075   10.4662    0.0000 H   0  0  0  0  0  0  0  0  0  0  0  0
   -4.1686   10.1815    0.0000 O   0  0  0  0  0  0  0  0  0  0  0  0
   -5.3905   11.0514    0.0000 C   0  0  0  0  0  0  0  0  0  0  0  0
   -6.0351    9.6969    0.0000 H   0  0  0  0  0  0  0  0  0  0  0  0
   -6.8364   11.4509    0.0000 H   0  0  0  0  0  0  0  0  0  0  0  0
   -5.2481   12.5446    0.0000 C   0  0  0  0  0  0  0  0  0  0  0  0
   -4.6036   13.8991    0.0000 H   0  0  0  0  0  0  0  0  0  0  0  0
   -3.8023   12.1451    0.0000 H   0  0  0  0  0  0  0  0  0  0  0  0
   -6.4701   13.4146    0.0000 O   0  0  0  0  0  0  0  0  0  0  0  0
   -6.3277   14.9078    0.0000 H   0  0  0  0  0  0  0  0  0  0  0  0
  1  2  1  0  0  0  0 
  1  3  1  0  0  0  0 
  1  4  1  0  0  0  0 
  1  5  1  0  0  0  0 
  5  6  1  0  0  0  0 
  5  7  1  0  0  0  0 
  5  8  1  0  0  0  0 
  8  9  1  0  0  0  0 
  8 10  1  0  0  0  0 
  8 11  1  0  0  0  0 
 11 12  1  0  0  0  0 
 12 13  2  0  0  0  0 
 13 14  1  0  0  0  0 
 14 15  2  0  0  0  0 
 15 16  1  0  0  0  0 
 16 17  2  0  0  0  0 
 12 17  1  0  0  0  0 
 16 18  1  0  0  0  0 
 18 19  1  0  0  0  0 
 20 18  1  1  0  0  0 
 20 21  1  6  0  0  0 
 20 22  1  0  0  0  0 
 22 23  1  0  0  0  0 
 22 24  1  0  0  0  0 
 22 25  1  0  0  0  0 
 20 25  1  0  0  0  0 
 25 26  1  1  0  0  0 
 25 27  1  6  0  0  0 
 27 28  2  0  0  0  0 
 28 29  1  0  0  0  0 
 28 30  1  0  0  0  0 
 30 31  2  0  0  0  0 
 31 32  1  0  0  0  0 
 32 33  2  0  0  0  0 
 27 33  1  0  0  0  0 
 33 34  1  0  0  0  0 
 32 35  1  0  0  0  0 
 31 36  1  0  0  0  0 
 30 37  1  0  0  0  0 
 37 38  1  0  0  0  0 
 15 39  1  0  0  0  0 
 39 40  2  0  0  0  0 
 40 41  1  0  0  0  0 
 14 41  1  0  0  0  0 
 42 41  1  6  0  0  0 
 42 43  1  1  0  0  0 
 42 44  1  0  0  0  0 
 44 45  1  0  0  0  0 
 44 46  1  0  0  0  0 
 44 47  1  0  0  0  0 
 47 48  1  1  0  0  0 
 47 49  1  0  0  0  0 
 49 50  1  6  0  0  0 
 49 51  1  0  0  0  0 
 42 51  1  0  0  0  0 
 51 52  1  6  0  0  0 
 51 53  1  1  0  0  0 
 53 54  1  0  0  0  0 
 49 55  1  1  0  0  0 
 55 56  1  0  0  0  0 
 47 57  1  6  0  0  0 
 57 58  1  0  0  0  0 
 58 59  1  0  0  0  0 
 58 60  1  0  0  0  0 
 58 61  1  0  0  0  0 
 61 62  1  0  0  0  0 
 61 63  1  0  0  0  0 
 61 64  1  0  0  0  0 
 64 65  1  0  0  0  0 
M  END
> <Rank>
25

> <Priority_score>
0.104

> <Reaction_type>
aromatic_hydroxylation_(meta_to_carbon)

> <Parent_ID>
20

> <Parent_InChI>
InChI=1S/C23H28F2N6O4S/c1-2-7-36-23-27-21(26-15-9-12(15)11-3-4-13(24)14(25)8-11)18-22(28-23)31(30-29-18)16-10-17(35-6-5-32)20(34)19(16)33/h3-4,8,12,15-17,19-20,32-34H,2,5-7,9-10H2,1H3,(H,26,27,28)

> <Parent_SMILES>
CCCSc1nc(N[C@@H]2C[C@H]2c2ccc(F)c(F)c2)c2nnn([C@@H]3C[C@H](OCCO)[C@@H](O)[C@H]3O)c2n1

$$$$
Molecule 20_metabolite 26
  CDK     0516241031

 62 66  0  0  0  0  0  0  0  0999 V2000
   -6.1865   -3.0183    0.0000 C   0  0  0  0  0  0  0  0  0  0  0  0
   -7.4820   -3.7744    0.0000 H   0  0  0  0  0  0  0  0  0  0  0  0
   -4.7105   -2.7509    0.0000 H   0  0  0  0  0  0  0  0  0  0  0  0
   -5.6668   -4.4254    0.0000 H   0  0  0  0  0  0  0  0  0  0  0  0
   -6.1935   -1.5183    0.0000 C   0  0  0  0  0  0  0  0  0  0  0  0
   -7.6695   -1.7857    0.0000 H   0  0  0  0  0  0  0  0  0  0  0  0
   -6.7132   -0.1112    0.0000 H   0  0  0  0  0  0  0  0  0  0  0  0
   -4.8980   -0.7622    0.0000 C   0  0  0  0  0  0  0  0  0  0  0  0
   -3.9393    0.3914    0.0000 H   0  0  0  0  0  0  0  0  0  0  0  0
   -5.8676    0.3823    0.0000 H   0  0  0  0  0  0  0  0  0  0  0  0
   -3.5955   -1.5061    0.0000 S   0  0  0  0  0  0  0  0  0  0  0  0
   -2.3000   -0.7500    0.0000 C   0  0  0  0  0  0  0  0  0  0  0  0
   -0.9900   -1.4900    0.0000 N   0  0  0  0  0  0  0  0  0  0  0  0
    0.2900   -0.7500    0.0000 C   0  0  0  0  0  0  0  0  0  0  0  0
    0.2900    0.7600    0.0000 C   0  0  0  0  0  0  0  0  0  0  0  0
   -0.9900    1.4800    0.0000 C   0  0  0  0  0  0  0  0  0  0  0  0
   -2.3000    0.7600    0.0000 N   0  0  0  0  0  0  0  0  0  0  0  0
   -0.9826    2.9800    0.0000 N   0  0  0  0  0  0  0  0  0  0  0  0
   -2.2780    3.7364    0.0000 H   0  0  0  0  0  0  0  0  0  0  0  0
    0.3201    3.7236    0.0000 C   0  0  0  0  0  0  0  0  0  0  0  0
    1.0767    5.0198    0.0000 C   0  0  0  0  0  0  0  0  0  0  0  0
    1.8201    3.7160    0.0000 C   0  0  0  0  0  0  0  0  0  0  0  0
    2.0729    2.2374    0.0000 H   0  0  0  0  0  0  0  0  0  0  0  0
    3.2323    4.2215    0.0000 H   0  0  0  0  0  0  0  0  0  0  0  0
    1.0843    6.5197    0.0000 C   0  0  0  0  0  0  0  0  0  0  0  0
   -0.2115    7.2770    0.0000 C   0  0  0  0  0  0  0  0  0  0  0  0
   -1.5142    6.5334    0.0000 H   0  0  0  0  0  0  0  0  0  0  0  0
   -0.2046    8.7778    0.0000 C   0  0  0  0  0  0  0  0  0  0  0  0
    1.0981    9.5214    0.0000 C   0  0  0  0  0  0  0  0  0  0  0  0
    2.3939    8.7642    0.0000 C   0  0  0  0  0  0  0  0  0  0  0  0
    3.6966    9.5078    0.0000 H   0  0  0  0  0  0  0  0  0  0  0  0
    2.3870    7.2633    0.0000 C   0  0  0  0  0  0  0  0  0  0  0  0
    3.6825    6.5072    0.0000 H   0  0  0  0  0  0  0  0  0  0  0  0
    1.1057   11.0214    0.0000 F   0  0  0  0  0  0  0  0  0  0  0  0
   -1.5001    9.5339    0.0000 F   0  0  0  0  0  0  0  0  0  0  0  0
    1.7100    1.2100    0.0000 N   0  0  0  0  0  0  0  0  0  0  0  0
    2.5900   -0.0100    0.0000 N   0  0  0  0  0  0  0  0  0  0  0  0
    1.7100   -1.2200    0.0000 N   0  0  0  0  0  0  0  0  0  0  0  0
    2.1693   -2.6480    0.0000 C   0  0  2  0  0  0  0  0  0  0  0  0
    0.7004   -2.9522    0.0000 H   0  0  0  0  0  0  0  0  0  0  0  0
    2.3151   -4.1429    0.0000 C   0  0  0  0  0  0  0  0  0  0  0  0
    0.8151   -4.1376    0.0000 H   0  0  0  0  0  0  0  0  0  0  0  0
    2.1588   -5.6348    0.0000 H   0  0  0  0  0  0  0  0  0  0  0  0
    3.7857   -4.4490    0.0000 C   0  0  1  0  0  0  0  0  0  0  0  0
    3.3250   -5.8765    0.0000 H   0  0  0  0  0  0  0  0  0  0  0  0
    4.5352   -3.1582    0.0000 C   0  0  2  0  0  0  0  0  0  0  0  0
    5.7468   -4.0425    0.0000 H   0  0  0  0  0  0  0  0  0  0  0  0
    3.5333   -2.0418    0.0000 C   0  0  1  0  0  0  0  0  0  0  0  0
    4.7480   -1.1618    0.0000 H   0  0  0  0  0  0  0  0  0  0  0  0
    2.7847   -0.7420    0.0000 O   0  0  0  0  0  0  0  0  0  0  0  0
    3.5360    0.5562    0.0000 H   0  0  0  0  0  0  0  0  0  0  0  0
    5.5410   -2.0454    0.0000 O   0  0  0  0  0  0  0  0  0  0  0  0
    7.0077   -2.3600    0.0000 H   0  0  0  0  0  0  0  0  0  0  0  0
    5.1558   -5.0594    0.0000 O   0  0  0  0  0  0  0  0  0  0  0  0
    5.3123   -6.5512    0.0000 C   0  0  0  0  0  0  0  0  0  0  0  0
    3.8159   -6.4462    0.0000 H   0  0  0  0  0  0  0  0  0  0  0  0
    4.9490   -8.0066    0.0000 H   0  0  0  0  0  0  0  0  0  0  0  0
    6.6824   -7.1617    0.0000 C   0  0  0  0  0  0  0  0  0  0  0  0
    8.1788   -7.2667    0.0000 H   0  0  0  0  0  0  0  0  0  0  0  0
    7.0457   -5.7063    0.0000 H   0  0  0  0  0  0  0  0  0  0  0  0
    6.8389   -8.6535    0.0000 O   0  0  0  0  0  0  0  0  0  0  0  0
    8.2090   -9.2640    0.0000 H   0  0  0  0  0  0  0  0  0  0  0  0
  1  2  1  0  0  0  0 
  1  3  1  0  0  0  0 
  1  4  1  0  0  0  0 
  1  5  1  0  0  0  0 
  5  6  1  0  0  0  0 
  5  7  1  0  0  0  0 
  5  8  1  0  0  0  0 
  8  9  1  0  0  0  0 
  8 10  1  0  0  0  0 
  8 11  1  0  0  0  0 
 11 12  1  0  0  0  0 
 12 13  2  0  0  0  0 
 13 14  1  0  0  0  0 
 14 15  2  0  0  0  0 
 15 16  1  0  0  0  0 
 16 17  2  0  0  0  0 
 12 17  1  0  0  0  0 
 16 18  1  0  0  0  0 
 18 19  1  0  0  0  0 
 18 20  1  0  0  0  0 
 20 21  2  0  0  0  0 
 21 22  1  0  0  0  0 
 20 22  1  0  0  0  0 
 22 23  1  0  0  0  0 
 22 24  1  0  0  0  0 
 21 25  1  0  0  0  0 
 25 26  2  0  0  0  0 
 26 27  1  0  0  0  0 
 26 28  1  0  0  0  0 
 28 29  2  0  0  0  0 
 29 30  1  0  0  0  0 
 30 31  1  0  0  0  0 
 30 32  2  0  0  0  0 
 25 32  1  0  0  0  0 
 32 33  1  0  0  0  0 
 29 34  1  0  0  0  0 
 28 35  1  0  0  0  0 
 15 36  1  0  0  0  0 
 36 37  2  0  0  0  0 
 37 38  1  0  0  0  0 
 14 38  1  0  0  0  0 
 39 38  1  1  0  0  0 
 39 40  1  6  0  0  0 
 39 41  1  0  0  0  0 
 41 42  1  0  0  0  0 
 41 43  1  0  0  0  0 
 41 44  1  0  0  0  0 
 44 45  1  6  0  0  0 
 44 46  1  0  0  0  0 
 46 47  1  1  0  0  0 
 46 48  1  0  0  0  0 
 39 48  1  0  0  0  0 
 48 49  1  1  0  0  0 
 48 50  1  6  0  0  0 
 50 51  1  0  0  0  0 
 46 52  1  6  0  0  0 
 52 53  1  0  0  0  0 
 44 54  1  1  0  0  0 
 54 55  1  0  0  0  0 
 55 56  1  0  0  0  0 
 55 57  1  0  0  0  0 
 55 58  1  0  0  0  0 
 58 59  1  0  0  0  0 
 58 60  1  0  0  0  0 
 58 61  1  0  0  0  0 
 61 62  1  0  0  0  0 
M  END
> <Rank>
26

> <Priority_score>
0.09920000000000001

> <Reaction_type>
alkyl dehydrogenation

> <Parent_ID>
20

> <Parent_InChI>
InChI=1S/C23H28F2N6O4S/c1-2-7-36-23-27-21(26-15-9-12(15)11-3-4-13(24)14(25)8-11)18-22(28-23)31(30-29-18)16-10-17(35-6-5-32)20(34)19(16)33/h3-4,8,12,15-17,19-20,32-34H,2,5-7,9-10H2,1H3,(H,26,27,28)

> <Parent_SMILES>
CCCSc1nc(N[C@@H]2C[C@H]2c2ccc(F)c(F)c2)c2nnn([C@@H]3C[C@H](OCCO)[C@@H](O)[C@H]3O)c2n1

$$$$
Molecule 20_metabolite 27
  CDK     0516241031

 62 66  0  0  0  0  0  0  0  0999 V2000
   -7.4961   -0.7744    0.0000 C   0  0  0  0  0  0  0  0  0  0  0  0
   -7.5031    0.7256    0.0000 H   0  0  0  0  0  0  0  0  0  0  0  0
   -8.0025   -2.1864    0.0000 H   0  0  0  0  0  0  0  0  0  0  0  0
   -8.9745   -0.5209    0.0000 H   0  0  0  0  0  0  0  0  0  0  0  0
   -6.1935   -1.5183    0.0000 C   0  0  0  0  0  0  0  0  0  0  0  0
   -7.1523   -2.6719    0.0000 H   0  0  0  0  0  0  0  0  0  0  0  0
   -5.2240   -2.6628    0.0000 H   0  0  0  0  0  0  0  0  0  0  0  0
   -4.8980   -0.7622    0.0000 C   0  0  0  0  0  0  0  0  0  0  0  0
   -3.9393    0.3914    0.0000 H   0  0  0  0  0  0  0  0  0  0  0  0
   -5.8676    0.3823    0.0000 H   0  0  0  0  0  0  0  0  0  0  0  0
   -3.5955   -1.5061    0.0000 S   0  0  0  0  0  0  0  0  0  0  0  0
   -2.3000   -0.7500    0.0000 C   0  0  0  0  0  0  0  0  0  0  0  0
   -0.9900   -1.4900    0.0000 N   0  0  0  0  0  0  0  0  0  0  0  0
    0.2900   -0.7500    0.0000 C   0  0  0  0  0  0  0  0  0  0  0  0
    0.2900    0.7600    0.0000 C   0  0  0  0  0  0  0  0  0  0  0  0
   -0.9900    1.4800    0.0000 C   0  0  0  0  0  0  0  0  0  0  0  0
   -2.3000    0.7600    0.0000 N   0  0  0  0  0  0  0  0  0  0  0  0
   -0.9826    2.9800    0.0000 N   0  0  0  0  0  0  0  0  0  0  0  0
   -2.2780    3.7364    0.0000 H   0  0  0  0  0  0  0  0  0  0  0  0
    0.3201    3.7236    0.0000 C   0  0  0  0  0  0  0  0  0  0  0  0
    1.0767    5.0198    0.0000 C   0  0  0  0  0  0  0  0  0  0  0  0
    1.0843    6.5197    0.0000 H   0  0  0  0  0  0  0  0  0  0  0  0
    1.8201    3.7160    0.0000 C   0  0  1  0  0  0  0  0  0  0  0  0
    2.0729    2.2374    0.0000 H   0  0  0  0  0  0  0  0  0  0  0  0
    3.2323    4.2215    0.0000 C   0  0  0  0  0  0  0  0  0  0  0  0
    3.5010    5.6981    0.0000 C   0  0  0  0  0  0  0  0  0  0  0  0
    2.3569    6.6682    0.0000 H   0  0  0  0  0  0  0  0  0  0  0  0
    4.9138    6.2046    0.0000 C   0  0  0  0  0  0  0  0  0  0  0  0
    5.1816    7.6805    0.0000 H   0  0  0  0  0  0  0  0  0  0  0  0
    6.0579    5.2346    0.0000 C   0  0  0  0  0  0  0  0  0  0  0  0
    5.7892    3.7580    0.0000 C   0  0  0  0  0  0  0  0  0  0  0  0
    4.3764    3.2515    0.0000 C   0  0  0  0  0  0  0  0  0  0  0  0
    4.1086    1.7756    0.0000 H   0  0  0  0  0  0  0  0  0  0  0  0
    6.9333    2.7879    0.0000 F   0  0  0  0  0  0  0  0  0  0  0  0
    7.4701    5.7401    0.0000 F   0  0  0  0  0  0  0  0  0  0  0  0
    1.7100    1.2100    0.0000 N   0  0  0  0  0  0  0  0  0  0  0  0
    2.5900   -0.0100    0.0000 N   0  0  0  0  0  0  0  0  0  0  0  0
    1.7100   -1.2200    0.0000 N   0  0  0  0  0  0  0  0  0  0  0  0
    2.1693   -2.6480    0.0000 C   0  0  2  0  0  0  0  0  0  0  0  0
    0.7004   -2.9522    0.0000 H   0  0  0  0  0  0  0  0  0  0  0  0
    2.3151   -4.1429    0.0000 C   0  0  0  0  0  0  0  0  0  0  0  0
    0.8151   -4.1376    0.0000 H   0  0  0  0  0  0  0  0  0  0  0  0
    2.1588   -5.6348    0.0000 H   0  0  0  0  0  0  0  0  0  0  0  0
    3.7857   -4.4490    0.0000 C   0  0  1  0  0  0  0  0  0  0  0  0
    3.3250   -5.8765    0.0000 H   0  0  0  0  0  0  0  0  0  0  0  0
    4.5352   -3.1582    0.0000 C   0  0  2  0  0  0  0  0  0  0  0  0
    5.7468   -4.0425    0.0000 H   0  0  0  0  0  0  0  0  0  0  0  0
    3.5333   -2.0418    0.0000 C   0  0  1  0  0  0  0  0  0  0  0  0
    4.7480   -1.1618    0.0000 H   0  0  0  0  0  0  0  0  0  0  0  0
    2.7847   -0.7420    0.0000 O   0  0  0  0  0  0  0  0  0  0  0  0
    3.5360    0.5562    0.0000 H   0  0  0  0  0  0  0  0  0  0  0  0
    5.5410   -2.0454    0.0000 O   0  0  0  0  0  0  0  0  0  0  0  0
    7.0077   -2.3600    0.0000 H   0  0  0  0  0  0  0  0  0  0  0  0
    5.1558   -5.0594    0.0000 O   0  0  0  0  0  0  0  0  0  0  0  0
    5.3123   -6.5512    0.0000 C   0  0  0  0  0  0  0  0  0  0  0  0
    3.8159   -6.4462    0.0000 H   0  0  0  0  0  0  0  0  0  0  0  0
    4.9490   -8.0066    0.0000 H   0  0  0  0  0  0  0  0  0  0  0  0
    6.6824   -7.1617    0.0000 C   0  0  0  0  0  0  0  0  0  0  0  0
    8.1788   -7.2667    0.0000 H   0  0  0  0  0  0  0  0  0  0  0  0
    7.0457   -5.7063    0.0000 H   0  0  0  0  0  0  0  0  0  0  0  0
    6.8389   -8.6535    0.0000 O   0  0  0  0  0  0  0  0  0  0  0  0
    8.2090   -9.2640    0.0000 H   0  0  0  0  0  0  0  0  0  0  0  0
  1  2  1  0  0  0  0 
  1  3  1  0  0  0  0 
  1  4  1  0  0  0  0 
  1  5  1  0  0  0  0 
  5  6  1  0  0  0  0 
  5  7  1  0  0  0  0 
  5  8  1  0  0  0  0 
  8  9  1  0  0  0  0 
  8 10  1  0  0  0  0 
  8 11  1  0  0  0  0 
 11 12  1  0  0  0  0 
 12 13  2  0  0  0  0 
 13 14  1  0  0  0  0 
 14 15  2  0  0  0  0 
 15 16  1  0  0  0  0 
 16 17  2  0  0  0  0 
 12 17  1  0  0  0  0 
 16 18  1  0  0  0  0 
 18 19  1  0  0  0  0 
 18 20  1  0  0  0  0 
 20 21  2  0  0  0  0 
 21 22  1  0  0  0  0 
 21 23  1  0  0  0  0 
 20 23  1  0  0  0  0 
 23 24  1  6  0  0  0 
 23 25  1  1  0  0  0 
 25 26  2  0  0  0  0 
 26 27  1  0  0  0  0 
 26 28  1  0  0  0  0 
 28 29  1  0  0  0  0 
 28 30  2  0  0  0  0 
 30 31  1  0  0  0  0 
 31 32  2  0  0  0  0 
 25 32  1  0  0  0  0 
 32 33  1  0  0  0  0 
 31 34  1  0  0  0  0 
 30 35  1  0  0  0  0 
 15 36  1  0  0  0  0 
 36 37  2  0  0  0  0 
 37 38  1  0  0  0  0 
 14 38  1  0  0  0  0 
 39 38  1  1  0  0  0 
 39 40  1  6  0  0  0 
 39 41  1  0  0  0  0 
 41 42  1  0  0  0  0 
 41 43  1  0  0  0  0 
 41 44  1  0  0  0  0 
 44 45  1  6  0  0  0 
 44 46  1  0  0  0  0 
 46 47  1  1  0  0  0 
 46 48  1  0  0  0  0 
 39 48  1  0  0  0  0 
 48 49  1  1  0  0  0 
 48 50  1  6  0  0  0 
 50 51  1  0  0  0  0 
 46 52  1  6  0  0  0 
 52 53  1  0  0  0  0 
 44 54  1  1  0  0  0 
 54 55  1  0  0  0  0 
 55 56  1  0  0  0  0 
 55 57  1  0  0  0  0 
 55 58  1  0  0  0  0 
 58 59  1  0  0  0  0 
 58 60  1  0  0  0  0 
 58 61  1  0  0  0  0 
 61 62  1  0  0  0  0 
M  END
> <Rank>
26

> <Priority_score>
0.09920000000000001

> <Reaction_type>
alkyl dehydrogenation

> <Parent_ID>
20

> <Parent_InChI>
InChI=1S/C23H28F2N6O4S/c1-2-7-36-23-27-21(26-15-9-12(15)11-3-4-13(24)14(25)8-11)18-22(28-23)31(30-29-18)16-10-17(35-6-5-32)20(34)19(16)33/h3-4,8,12,15-17,19-20,32-34H,2,5-7,9-10H2,1H3,(H,26,27,28)

> <Parent_SMILES>
CCCSc1nc(N[C@@H]2C[C@H]2c2ccc(F)c(F)c2)c2nnn([C@@H]3C[C@H](OCCO)[C@@H](O)[C@H]3O)c2n1

$$$$
Molecule 20_metabolite 28
  CDK     0516241031

 62 66  0  0  0  0  0  0  0  0999 V2000
   -7.9480   -0.9362    0.0000 C   0  0  0  0  0  0  0  0  0  0  0  0
   -7.9551    0.5638    0.0000 H   0  0  0  0  0  0  0  0  0  0  0  0
   -8.4544   -2.3481    0.0000 H   0  0  0  0  0  0  0  0  0  0  0  0
   -9.4264   -0.6827    0.0000 H   0  0  0  0  0  0  0  0  0  0  0  0
   -6.6455   -1.6801    0.0000 C   0  0  0  0  0  0  0  0  0  0  0  0
   -7.6042   -2.8337    0.0000 H   0  0  0  0  0  0  0  0  0  0  0  0
   -5.6759   -2.8246    0.0000 H   0  0  0  0  0  0  0  0  0  0  0  0
   -5.3500   -0.9240    0.0000 C   0  0  0  0  0  0  0  0  0  0  0  0
   -4.3912    0.2296    0.0000 H   0  0  0  0  0  0  0  0  0  0  0  0
   -6.3195    0.2205    0.0000 H   0  0  0  0  0  0  0  0  0  0  0  0
   -4.0474   -1.6679    0.0000 S   0  0  0  0  0  0  0  0  0  0  0  0
   -2.7519   -0.9118    0.0000 C   0  0  0  0  0  0  0  0  0  0  0  0
   -1.4419   -1.6518    0.0000 N   0  0  0  0  0  0  0  0  0  0  0  0
   -0.1619   -0.9118    0.0000 C   0  0  0  0  0  0  0  0  0  0  0  0
   -0.1619    0.5982    0.0000 C   0  0  0  0  0  0  0  0  0  0  0  0
   -1.4419    1.3182    0.0000 C   0  0  0  0  0  0  0  0  0  0  0  0
   -2.7519    0.5982    0.0000 N   0  0  0  0  0  0  0  0  0  0  0  0
   -1.4345    2.8182    0.0000 N   0  0  0  0  0  0  0  0  0  0  0  0
   -0.1318    3.5618    0.0000 C   0  0  0  0  0  0  0  0  0  0  0  0
    0.6248    4.8580    0.0000 C   0  0  0  0  0  0  0  0  0  0  0  0
    1.7788    5.8162    0.0000 H   0  0  0  0  0  0  0  0  0  0  0  0
   -0.5195    5.8279    0.0000 H   0  0  0  0  0  0  0  0  0  0  0  0
    1.3682    3.5542    0.0000 C   0  0  1  0  0  0  0  0  0  0  0  0
    1.6210    2.0756    0.0000 H   0  0  0  0  0  0  0  0  0  0  0  0
    3.2323    4.2215    0.0000 C   0  0  0  0  0  0  0  0  0  0  0  0
    3.5010    5.6981    0.0000 C   0  0  0  0  0  0  0  0  0  0  0  0
    2.3569    6.6682    0.0000 H   0  0  0  0  0  0  0  0  0  0  0  0
    4.9138    6.2046    0.0000 C   0  0  0  0  0  0  0  0  0  0  0  0
    5.1816    7.6805    0.0000 H   0  0  0  0  0  0  0  0  0  0  0  0
    6.0579    5.2346    0.0000 C   0  0  0  0  0  0  0  0  0  0  0  0
    5.7892    3.7580    0.0000 C   0  0  0  0  0  0  0  0  0  0  0  0
    4.3764    3.2515    0.0000 C   0  0  0  0  0  0  0  0  0  0  0  0
    4.1086    1.7756    0.0000 H   0  0  0  0  0  0  0  0  0  0  0  0
    6.9333    2.7879    0.0000 F   0  0  0  0  0  0  0  0  0  0  0  0
    7.4701    5.7401    0.0000 F   0  0  0  0  0  0  0  0  0  0  0  0
    1.2581    1.0482    0.0000 N   0  0  0  0  0  0  0  0  0  0  0  0
    2.1381   -0.1718    0.0000 N   0  0  0  0  0  0  0  0  0  0  0  0
    1.2581   -1.3818    0.0000 N   0  0  0  0  0  0  0  0  0  0  0  0
    1.7174   -2.8097    0.0000 C   0  0  2  0  0  0  0  0  0  0  0  0
    0.2485   -3.1139    0.0000 H   0  0  0  0  0  0  0  0  0  0  0  0
    1.8632   -4.3047    0.0000 C   0  0  0  0  0  0  0  0  0  0  0  0
    0.3632   -4.2994    0.0000 H   0  0  0  0  0  0  0  0  0  0  0  0
    1.7069   -5.7965    0.0000 H   0  0  0  0  0  0  0  0  0  0  0  0
    3.3338   -4.6108    0.0000 C   0  0  1  0  0  0  0  0  0  0  0  0
    2.8731   -6.0383    0.0000 H   0  0  0  0  0  0  0  0  0  0  0  0
    4.0833   -3.3200    0.0000 C   0  0  2  0  0  0  0  0  0  0  0  0
    5.2949   -4.2043    0.0000 H   0  0  0  0  0  0  0  0  0  0  0  0
    3.0814   -2.2036    0.0000 C   0  0  1  0  0  0  0  0  0  0  0  0
    4.2961   -1.3235    0.0000 H   0  0  0  0  0  0  0  0  0  0  0  0
    2.3327   -0.9038    0.0000 O   0  0  0  0  0  0  0  0  0  0  0  0
    3.0841    0.3945    0.0000 H   0  0  0  0  0  0  0  0  0  0  0  0
    5.0891   -2.2071    0.0000 O   0  0  0  0  0  0  0  0  0  0  0  0
    6.5557   -2.5218    0.0000 H   0  0  0  0  0  0  0  0  0  0  0  0
    4.7039   -5.2212    0.0000 O   0  0  0  0  0  0  0  0  0  0  0  0
    4.8603   -6.7130    0.0000 C   0  0  0  0  0  0  0  0  0  0  0  0
    3.3640   -6.6080    0.0000 H   0  0  0  0  0  0  0  0  0  0  0  0
    4.4971   -8.1684    0.0000 H   0  0  0  0  0  0  0  0  0  0  0  0
    6.2305   -7.3235    0.0000 C   0  0  0  0  0  0  0  0  0  0  0  0
    7.7268   -7.4285    0.0000 H   0  0  0  0  0  0  0  0  0  0  0  0
    6.5938   -5.8681    0.0000 H   0  0  0  0  0  0  0  0  0  0  0  0
    6.3869   -8.8153    0.0000 O   0  0  0  0  0  0  0  0  0  0  0  0
    7.7571   -9.4257    0.0000 H   0  0  0  0  0  0  0  0  0  0  0  0
  1  2  1  0  0  0  0 
  1  3  1  0  0  0  0 
  1  4  1  0  0  0  0 
  1  5  1  0  0  0  0 
  5  6  1  0  0  0  0 
  5  7  1  0  0  0  0 
  5  8  1  0  0  0  0 
  8  9  1  0  0  0  0 
  8 10  1  0  0  0  0 
  8 11  1  0  0  0  0 
 11 12  1  0  0  0  0 
 12 13  2  0  0  0  0 
 13 14  1  0  0  0  0 
 14 15  2  0  0  0  0 
 15 16  1  0  0  0  0 
 16 17  2  0  0  0  0 
 12 17  1  0  0  0  0 
 16 18  1  4  0  0  0 
 18 19  2  0  0  0  0 
 19 20  1  0  0  0  0 
 20 21  1  0  0  0  0 
 20 22  1  0  0  0  0 
 20 23  1  0  0  0  0 
 19 23  1  0  0  0  0 
 23 24  1  6  0  0  0 
 23 25  1  1  0  0  0 
 25 26  2  0  0  0  0 
 26 27  1  0  0  0  0 
 26 28  1  0  0  0  0 
 28 29  1  0  0  0  0 
 28 30  2  0  0  0  0 
 30 31  1  0  0  0  0 
 31 32  2  0  0  0  0 
 25 32  1  0  0  0  0 
 32 33  1  0  0  0  0 
 31 34  1  0  0  0  0 
 30 35  1  0  0  0  0 
 15 36  1  0  0  0  0 
 36 37  2  0  0  0  0 
 37 38  1  0  0  0  0 
 14 38  1  0  0  0  0 
 39 38  1  1  0  0  0 
 39 40  1  6  0  0  0 
 39 41  1  0  0  0  0 
 41 42  1  0  0  0  0 
 41 43  1  0  0  0  0 
 41 44  1  0  0  0  0 
 44 45  1  6  0  0  0 
 44 46  1  0  0  0  0 
 46 47  1  1  0  0  0 
 46 48  1  0  0  0  0 
 39 48  1  0  0  0  0 
 48 49  1  1  0  0  0 
 48 50  1  6  0  0  0 
 50 51  1  0  0  0  0 
 46 52  1  6  0  0  0 
 52 53  1  0  0  0  0 
 44 54  1  1  0  0  0 
 54 55  1  0  0  0  0 
 55 56  1  0  0  0  0 
 55 57  1  0  0  0  0 
 55 58  1  0  0  0  0 
 58 59  1  0  0  0  0 
 58 60  1  0  0  0  0 
 58 61  1  0  0  0  0 
 61 62  1  0  0  0  0 
M  END
> <Rank>
26

> <Priority_score>
0.09920000000000001

> <Reaction_type>
dehydration of N-C bond

> <Parent_ID>
20

> <Parent_InChI>
InChI=1S/C23H28F2N6O4S/c1-2-7-36-23-27-21(26-15-9-12(15)11-3-4-13(24)14(25)8-11)18-22(28-23)31(30-29-18)16-10-17(35-6-5-32)20(34)19(16)33/h3-4,8,12,15-17,19-20,32-34H,2,5-7,9-10H2,1H3,(H,26,27,28)

> <Parent_SMILES>
CCCSc1nc(N[C@@H]2C[C@H]2c2ccc(F)c(F)c2)c2nnn([C@@H]3C[C@H](OCCO)[C@@H](O)[C@H]3O)c2n1

$$$$
Molecule 20_metabolite 29
  CDK     0516241031

 63 67  0  0  0  0  0  0  0  0999 V2000
   -7.9480   -0.9362    0.0000 C   0  0  0  0  0  0  0  0  0  0  0  0
   -7.9551    0.5638    0.0000 H   0  0  0  0  0  0  0  0  0  0  0  0
   -8.4544   -2.3481    0.0000 H   0  0  0  0  0  0  0  0  0  0  0  0
   -9.4264   -0.6827    0.0000 H   0  0  0  0  0  0  0  0  0  0  0  0
   -6.6455   -1.6801    0.0000 C   0  0  0  0  0  0  0  0  0  0  0  0
   -7.6042   -2.8337    0.0000 H   0  0  0  0  0  0  0  0  0  0  0  0
   -5.6759   -2.8246    0.0000 H   0  0  0  0  0  0  0  0  0  0  0  0
   -5.3500   -0.9240    0.0000 C   0  0  0  0  0  0  0  0  0  0  0  0
   -4.3912    0.2296    0.0000 H   0  0  0  0  0  0  0  0  0  0  0  0
   -6.3195    0.2205    0.0000 H   0  0  0  0  0  0  0  0  0  0  0  0
   -4.0474   -1.6679    0.0000 S   0  0  0  0  0  0  0  0  0  0  0  0
   -2.7519   -0.9118    0.0000 C   0  0  0  0  0  0  0  0  0  0  0  0
   -1.4419   -1.6518    0.0000 N   0  0  0  0  0  0  0  0  0  0  0  0
   -0.1619   -0.9118    0.0000 C   0  0  0  0  0  0  0  0  0  0  0  0
   -0.1619    0.5982    0.0000 C   0  0  0  0  0  0  0  0  0  0  0  0
   -1.4419    1.3182    0.0000 C   0  0  0  0  0  0  0  0  0  0  0  0
   -2.7519    0.5982    0.0000 N   0  0  0  0  0  0  0  0  0  0  0  0
   -1.4345    2.8182    0.0000 N   0  0  0  0  0  0  0  0  0  0  0  0
   -2.7299    3.5746    0.0000 H   0  0  0  0  0  0  0  0  0  0  0  0
   -0.1318    3.5618    0.0000 C   0  0  0  0  0  0  0  0  0  0  0  0
    0.6248    4.8580    0.0000 C   0  0  0  0  0  0  0  0  0  0  0  0
    1.7788    5.8162    0.0000 H   0  0  0  0  0  0  0  0  0  0  0  0
   -0.5195    5.8279    0.0000 H   0  0  0  0  0  0  0  0  0  0  0  0
    1.3682    3.5542    0.0000 C   0  0  1  0  0  0  0  0  0  0  0  0
    1.6210    2.0756    0.0000 H   0  0  0  0  0  0  0  0  0  0  0  0
    3.2323    4.2215    0.0000 C   0  0  0  0  0  0  0  0  0  0  0  0
    3.5010    5.6981    0.0000 C   0  0  0  0  0  0  0  0  0  0  0  0
    2.3569    6.6682    0.0000 H   0  0  0  0  0  0  0  0  0  0  0  0
    4.9138    6.2046    0.0000 C   0  0  0  0  0  0  0  0  0  0  0  0
    5.1816    7.6805    0.0000 H   0  0  0  0  0  0  0  0  0  0  0  0
    6.0579    5.2346    0.0000 C   0  0  0  0  0  0  0  0  0  0  0  0
    5.7892    3.7580    0.0000 C   0  0  0  0  0  0  0  0  0  0  0  0
    4.3764    3.2515    0.0000 C   0  0  0  0  0  0  0  0  0  0  0  0
    4.1086    1.7756    0.0000 H   0  0  0  0  0  0  0  0  0  0  0  0
    6.9333    2.7879    0.0000 F   0  0  0  0  0  0  0  0  0  0  0  0
    7.4701    5.7401    0.0000 F   0  0  0  0  0  0  0  0  0  0  0  0
    1.2581    1.0482    0.0000 N   0  0  0  0  0  0  0  0  0  0  0  0
    2.1381   -0.1718    0.0000 N   0  0  0  0  0  0  0  0  0  0  0  0
    1.2581   -1.3818    0.0000 N   0  0  0  0  0  0  0  0  0  0  0  0
    1.7174   -2.8097    0.0000 C   0  0  2  0  0  0  0  0  0  0  0  0
    0.2485   -3.1139    0.0000 H   0  0  0  0  0  0  0  0  0  0  0  0
    1.8632   -4.3047    0.0000 C   0  0  0  0  0  0  0  0  0  0  0  0
    0.3632   -4.2994    0.0000 H   0  0  0  0  0  0  0  0  0  0  0  0
    1.7069   -5.7965    0.0000 H   0  0  0  0  0  0  0  0  0  0  0  0
    3.3338   -4.6108    0.0000 C   0  0  1  0  0  0  0  0  0  0  0  0
    2.8731   -6.0383    0.0000 H   0  0  0  0  0  0  0  0  0  0  0  0
    4.0833   -3.3200    0.0000 C   0  0  2  0  0  0  0  0  0  0  0  0
    5.2949   -4.2043    0.0000 H   0  0  0  0  0  0  0  0  0  0  0  0
    3.0814   -2.2036    0.0000 C   0  0  1  0  0  0  0  0  0  0  0  0
    4.2961   -1.3235    0.0000 H   0  0  0  0  0  0  0  0  0  0  0  0
    2.3327   -0.9038    0.0000 O   0  0  0  0  0  0  0  0  0  0  0  0
    3.0841    0.3945    0.0000 H   0  0  0  0  0  0  0  0  0  0  0  0
    5.0891   -2.2071    0.0000 O   0  0  0  0  0  0  0  0  0  0  0  0
    6.5557   -2.5218    0.0000 H   0  0  0  0  0  0  0  0  0  0  0  0
    4.7039   -5.2212    0.0000 O   0  0  0  0  0  0  0  0  0  0  0  0
    4.8603   -6.7130    0.0000 C   0  0  0  0  0  0  0  0  0  0  0  0
    3.3640   -6.6080    0.0000 H   0  0  0  0  0  0  0  0  0  0  0  0
    4.4971   -8.1684    0.0000 H   0  0  0  0  0  0  0  0  0  0  0  0
    6.2305   -7.3235    0.0000 C   0  0  0  0  0  0  0  0  0  0  0  0
    7.7268   -7.4285    0.0000 H   0  0  0  0  0  0  0  0  0  0  0  0
    6.5938   -5.8681    0.0000 H   0  0  0  0  0  0  0  0  0  0  0  0
    6.3869   -8.8153    0.0000 O   0  0  0  0  0  0  0  0  0  0  0  0
    7.7571   -9.4257    0.0000 H   0  0  0  0  0  0  0  0  0  0  0  0
  1  2  1  0  0  0  0 
  1  3  1  0  0  0  0 
  1  4  1  0  0  0  0 
  1  5  1  0  0  0  0 
  5  6  1  0  0  0  0 
  5  7  1  0  0  0  0 
  5  8  1  0  0  0  0 
  8  9  1  0  0  0  0 
  8 10  1  0  0  0  0 
  8 11  1  0  0  0  0 
 11 12  1  0  0  0  0 
 12 13  2  0  0  0  0 
 13 14  1  0  0  0  0 
 14 15  2  0  0  0  0 
 15 16  1  0  0  0  0 
 16 17  2  0  0  0  0 
 12 17  1  0  0  0  0 
 16 18  1  0  0  0  0 
 18 19  1  4  0  0  0 
 18 20  2  0  0  0  0 
 20 21  1  0  0  0  0 
 21 22  1  0  0  0  0 
 21 23  1  0  0  0  0 
 21 24  1  0  0  0  0 
 20 24  1  0  0  0  0 
 24 25  1  6  0  0  0 
 24 26  1  1  0  0  0 
 26 27  2  0  0  0  0 
 27 28  1  0  0  0  0 
 27 29  1  0  0  0  0 
 29 30  1  0  0  0  0 
 29 31  2  0  0  0  0 
 31 32  1  0  0  0  0 
 32 33  2  0  0  0  0 
 26 33  1  0  0  0  0 
 33 34  1  0  0  0  0 
 32 35  1  0  0  0  0 
 31 36  1  0  0  0  0 
 15 37  1  0  0  0  0 
 37 38  2  0  0  0  0 
 38 39  1  0  0  0  0 
 14 39  1  0  0  0  0 
 40 39  1  1  0  0  0 
 40 41  1  6  0  0  0 
 40 42  1  0  0  0  0 
 42 43  1  0  0  0  0 
 42 44  1  0  0  0  0 
 42 45  1  0  0  0  0 
 45 46  1  6  0  0  0 
 45 47  1  0  0  0  0 
 47 48  1  1  0  0  0 
 47 49  1  0  0  0  0 
 40 49  1  0  0  0  0 
 49 50  1  1  0  0  0 
 49 51  1  6  0  0  0 
 51 52  1  0  0  0  0 
 47 53  1  6  0  0  0 
 53 54  1  0  0  0  0 
 45 55  1  1  0  0  0 
 55 56  1  0  0  0  0 
 56 57  1  0  0  0  0 
 56 58  1  0  0  0  0 
 56 59  1  0  0  0  0 
 59 60  1  0  0  0  0 
 59 61  1  0  0  0  0 
 59 62  1  0  0  0  0 
 62 63  1  0  0  0  0 
M  CHG  1  18   1
M  END
> <Rank>
26

> <Priority_score>
0.09920000000000001

> <Reaction_type>
dehydration of N-C bond

> <Parent_ID>
20

> <Parent_InChI>
InChI=1S/C23H28F2N6O4S/c1-2-7-36-23-27-21(26-15-9-12(15)11-3-4-13(24)14(25)8-11)18-22(28-23)31(30-29-18)16-10-17(35-6-5-32)20(34)19(16)33/h3-4,8,12,15-17,19-20,32-34H,2,5-7,9-10H2,1H3,(H,26,27,28)

> <Parent_SMILES>
CCCSc1nc(N[C@@H]2C[C@H]2c2ccc(F)c(F)c2)c2nnn([C@@H]3C[C@H](OCCO)[C@@H](O)[C@H]3O)c2n1

$$$$
Molecule 20_metabolite 30
  CDK     0516241031

 65 69  0  0  0  0  0  0  0  0999 V2000
   -8.3566   -0.2355    0.0000 C   0  0  0  0  0  0  0  0  0  0  0  0
   -7.0686   -1.0043    0.0000 H   0  0  0  0  0  0  0  0  0  0  0  0
   -9.8298    0.0464    0.0000 H   0  0  0  0  0  0  0  0  0  0  0  0
   -8.8900   -1.6374    0.0000 H   0  0  0  0  0  0  0  0  0  0  0  0
   -8.3348    1.2644    0.0000 C   0  0  0  0  0  0  0  0  0  0  0  0
   -9.8156    1.0254    0.0000 H   0  0  0  0  0  0  0  0  0  0  0  0
   -8.8272    2.6812    0.0000 H   0  0  0  0  0  0  0  0  0  0  0  0
   -7.0250    1.9954    0.0000 C   0  0  0  0  0  0  0  0  0  0  0  0
   -5.5441    2.2344    0.0000 H   0  0  0  0  0  0  0  0  0  0  0  0
   -6.5325    0.5785    0.0000 H   0  0  0  0  0  0  0  0  0  0  0  0
   -7.0032    3.4952    0.0000 S   0  0  0  0  0  0  0  0  0  0  0  0
   -5.6933    4.2263    0.0000 C   0  0  0  0  0  0  0  0  0  0  0  0
   -5.6644    5.7306    0.0000 N   0  0  0  0  0  0  0  0  0  0  0  0
   -4.3763    6.4564    0.0000 C   0  0  0  0  0  0  0  0  0  0  0  0
   -3.0761    5.6886    0.0000 C   0  0  0  0  0  0  0  0  0  0  0  0
   -3.1070    4.2203    0.0000 C   0  0  0  0  0  0  0  0  0  0  0  0
   -4.3931    3.4584    0.0000 N   0  0  0  0  0  0  0  0  0  0  0  0
   -1.3972    3.2219    0.0000 N   0  0  0  0  0  0  0  0  0  0  0  0
   -0.0945    3.9655    0.0000 H   0  0  0  0  0  0  0  0  0  0  0  0
   -1.4046    1.7219    0.0000 C   0  0  2  0  0  0  0  0  0  0  0  0
    0.0714    1.4543    0.0000 H   0  0  0  0  0  0  0  0  0  0  0  0
   -2.8839    1.4687    0.0000 C   0  0  0  0  0  0  0  0  0  0  0  0
   -4.1864    0.7247    0.0000 H   0  0  0  0  0  0  0  0  0  0  0  0
   -3.3901    2.8807    0.0000 H   0  0  0  0  0  0  0  0  0  0  0  0
   -1.9242    0.3148    0.0000 C   0  0  1  0  0  0  0  0  0  0  0  0
   -0.2141   -0.6831    0.0000 C   0  0  0  0  0  0  0  0  0  0  0  0
   -0.2207   -2.1839    0.0000 C   0  0  0  0  0  0  0  0  0  0  0  0
   -1.5233   -2.9277    0.0000 H   0  0  0  0  0  0  0  0  0  0  0  0
    1.0752   -2.9409    0.0000 C   0  0  0  0  0  0  0  0  0  0  0  0
    1.0678   -4.4409    0.0000 H   0  0  0  0  0  0  0  0  0  0  0  0
    2.3778   -2.1971    0.0000 C   0  0  0  0  0  0  0  0  0  0  0  0
    2.3844   -0.6963    0.0000 C   0  0  0  0  0  0  0  0  0  0  0  0
    1.0885    0.0607    0.0000 C   0  0  0  0  0  0  0  0  0  0  0  0
    1.0959    1.5607    0.0000 H   0  0  0  0  0  0  0  0  0  0  0  0
    3.6870    0.0475    0.0000 F   0  0  0  0  0  0  0  0  0  0  0  0
    3.6734   -2.9531    0.0000 F   0  0  0  0  0  0  0  0  0  0  0  0
   -2.8936   -0.8299    0.0000 O   0  0  0  0  0  0  0  0  0  0  0  0
   -4.3696   -0.5628    0.0000 H   0  0  0  0  0  0  0  0  0  0  0  0
   -1.9666    6.6825    0.0000 N   0  0  0  0  0  0  0  0  0  0  0  0
   -2.5696    8.0606    0.0000 N   0  0  0  0  0  0  0  0  0  0  0  0
   -4.0590    7.9181    0.0000 N   0  0  0  0  0  0  0  0  0  0  0  0
   -5.0550    9.0397    0.0000 C   0  0  2  0  0  0  0  0  0  0  0  0
   -6.0638    7.9296    0.0000 H   0  0  0  0  0  0  0  0  0  0  0  0
   -6.2681    9.9255    0.0000 C   0  0  0  0  0  0  0  0  0  0  0  0
   -7.0262    8.6312    0.0000 H   0  0  0  0  0  0  0  0  0  0  0  0
   -7.6321   10.5495    0.0000 H   0  0  0  0  0  0  0  0  0  0  0  0
   -5.7839   11.3473    0.0000 C   0  0  1  0  0  0  0  0  0  0  0  0
   -7.2473   11.6766    0.0000 H   0  0  0  0  0  0  0  0  0  0  0  0
   -4.2913   11.3364    0.0000 C   0  0  2  0  0  0  0  0  0  0  0  0
   -4.4366   12.8293    0.0000 H   0  0  0  0  0  0  0  0  0  0  0  0
   -3.8395    9.9060    0.0000 C   0  0  1  0  0  0  0  0  0  0  0  0
   -2.4640   10.5044    0.0000 H   0  0  0  0  0  0  0  0  0  0  0  0
   -3.1010    8.6004    0.0000 O   0  0  0  0  0  0  0  0  0  0  0  0
   -1.6010    8.5872    0.0000 H   0  0  0  0  0  0  0  0  0  0  0  0
   -2.8216   11.6366    0.0000 O   0  0  0  0  0  0  0  0  0  0  0  0
   -2.3468   13.0595    0.0000 H   0  0  0  0  0  0  0  0  0  0  0  0
   -5.6128   12.8375    0.0000 O   0  0  0  0  0  0  0  0  0  0  0  0
   -6.8178   13.7308    0.0000 C   0  0  0  0  0  0  0  0  0  0  0  0
   -7.4882   12.3890    0.0000 H   0  0  0  0  0  0  0  0  0  0  0  0
   -8.2556   14.1581    0.0000 H   0  0  0  0  0  0  0  0  0  0  0  0
   -6.6467   15.2210    0.0000 C   0  0  0  0  0  0  0  0  0  0  0  0
   -5.9762   16.5629    0.0000 H   0  0  0  0  0  0  0  0  0  0  0  0
   -5.2088   14.7938    0.0000 H   0  0  0  0  0  0  0  0  0  0  0  0
   -7.8517   16.1143    0.0000 O   0  0  0  0  0  0  0  0  0  0  0  0
   -7.6806   17.6045    0.0000 H   0  0  0  0  0  0  0  0  0  0  0  0
  1  2  1  0  0  0  0 
  1  3  1  0  0  0  0 
  1  4  1  0  0  0  0 
  1  5  1  0  0  0  0 
  5  6  1  0  0  0  0 
  5  7  1  0  0  0  0 
  5  8  1  0  0  0  0 
  8  9  1  0  0  0  0 
  8 10  1  0  0  0  0 
  8 11  1  0  0  0  0 
 11 12  1  0  0  0  0 
 12 13  2  0  0  0  0 
 13 14  1  0  0  0  0 
 14 15  2  0  0  0  0 
 15 16  1  0  0  0  0 
 16 17  2  0  0  0  0 
 12 17  1  0  0  0  0 
 16 18  1  0  0  0  0 
 18 19  1  0  0  0  0 
 20 18  1  1  0  0  0 
 20 21  1  6  0  0  0 
 20 22  1  0  0  0  0 
 22 23  1  0  0  0  0 
 22 24  1  0  0  0  0 
 22 25  1  0  0  0  0 
 20 25  1  0  0  0  0 
 25 26  1  6  0  0  0 
 26 27  2  0  0  0  0 
 27 28  1  0  0  0  0 
 27 29  1  0  0  0  0 
 29 30  1  0  0  0  0 
 29 31  2  0  0  0  0 
 31 32  1  0  0  0  0 
 32 33  2  0  0  0  0 
 26 33  1  0  0  0  0 
 33 34  1  0  0  0  0 
 32 35  1  0  0  0  0 
 31 36  1  0  0  0  0 
 25 37  1  1  0  0  0 
 37 38  1  0  0  0  0 
 15 39  1  0  0  0  0 
 39 40  2  0  0  0  0 
 40 41  1  0  0  0  0 
 14 41  1  0  0  0  0 
 42 41  1  6  0  0  0 
 42 43  1  1  0  0  0 
 42 44  1  0  0  0  0 
 44 45  1  0  0  0  0 
 44 46  1  0  0  0  0 
 44 47  1  0  0  0  0 
 47 48  1  1  0  0  0 
 47 49  1  0  0  0  0 
 49 50  1  6  0  0  0 
 49 51  1  0  0  0  0 
 42 51  1  0  0  0  0 
 51 52  1  6  0  0  0 
 51 53  1  1  0  0  0 
 53 54  1  0  0  0  0 
 49 55  1  1  0  0  0 
 55 56  1  0  0  0  0 
 47 57  1  6  0  0  0 
 57 58  1  0  0  0  0 
 58 59  1  0  0  0  0 
 58 60  1  0  0  0  0 
 58 61  1  0  0  0  0 
 61 62  1  0  0  0  0 
 61 63  1  0  0  0  0 
 61 64  1  0  0  0  0 
 64 65  1  0  0  0  0 
M  END
> <Rank>
30

> <Priority_score>
0.08

> <Reaction_type>
aliphatic hydroxylation

> <Parent_ID>
20

> <Parent_InChI>
InChI=1S/C23H28F2N6O4S/c1-2-7-36-23-27-21(26-15-9-12(15)11-3-4-13(24)14(25)8-11)18-22(28-23)31(30-29-18)16-10-17(35-6-5-32)20(34)19(16)33/h3-4,8,12,15-17,19-20,32-34H,2,5-7,9-10H2,1H3,(H,26,27,28)

> <Parent_SMILES>
CCCSc1nc(N[C@@H]2C[C@H]2c2ccc(F)c(F)c2)c2nnn([C@@H]3C[C@H](OCCO)[C@@H](O)[C@H]3O)c2n1

$$$$
Molecule 20_metabolite 31
  CDK     0516241031

 84 89  0  0  0  0  0  0  0  0999 V2000
   -4.5704   -5.6314    0.0000 C   0  0  0  0  0  0  0  0  0  0  0  0
   -3.2678   -6.3752    0.0000 H   0  0  0  0  0  0  0  0  0  0  0  0
   -6.0488   -5.3778    0.0000 H   0  0  0  0  0  0  0  0  0  0  0  0
   -5.0768   -7.0433    0.0000 H   0  0  0  0  0  0  0  0  0  0  0  0
   -4.5774   -4.1314    0.0000 C   0  0  0  0  0  0  0  0  0  0  0  0
   -6.0534   -4.3988    0.0000 H   0  0  0  0  0  0  0  0  0  0  0  0
   -5.0971   -2.7243    0.0000 H   0  0  0  0  0  0  0  0  0  0  0  0
   -3.2819   -3.3753    0.0000 C   0  0  0  0  0  0  0  0  0  0  0  0
   -1.8059   -3.1079    0.0000 H   0  0  0  0  0  0  0  0  0  0  0  0
   -2.7623   -4.7824    0.0000 H   0  0  0  0  0  0  0  0  0  0  0  0
   -3.2890   -1.8753    0.0000 S   0  0  0  0  0  0  0  0  0  0  0  0
   -1.9935   -1.1192    0.0000 C   0  0  0  0  0  0  0  0  0  0  0  0
   -0.6835   -1.8592    0.0000 N   0  0  0  0  0  0  0  0  0  0  0  0
    0.5965   -1.1192    0.0000 C   0  0  0  0  0  0  0  0  0  0  0  0
    0.5965    0.3908    0.0000 C   0  0  0  0  0  0  0  0  0  0  0  0
   -0.6835    1.1108    0.0000 C   0  0  0  0  0  0  0  0  0  0  0  0
   -1.9935    0.3908    0.0000 N   0  0  0  0  0  0  0  0  0  0  0  0
   -0.6761    2.6108    0.0000 N   0  0  0  0  0  0  0  0  0  0  0  0
    0.6266    3.3544    0.0000 C   0  0  2  0  0  0  0  0  0  0  0  0
    1.5850    2.2005    0.0000 H   0  0  0  0  0  0  0  0  0  0  0  0
    0.1201    4.7672    0.0000 C   0  0  0  0  0  0  0  0  0  0  0  0
    0.1280    6.2671    0.0000 H   0  0  0  0  0  0  0  0  0  0  0  0
   -1.8315    4.4331    0.0000 H   0  0  0  0  0  0  0  0  0  0  0  0
    1.5967    4.4985    0.0000 C   0  0  1  0  0  0  0  0  0  0  0  0
    2.8918    3.7417    0.0000 H   0  0  0  0  0  0  0  0  0  0  0  0
    2.2838    6.3554    0.0000 C   0  0  0  0  0  0  0  0  0  0  0  0
    1.3255    7.5104    0.0000 C   0  0  0  0  0  0  0  0  0  0  0  0
   -0.1531    7.2576    0.0000 H   0  0  0  0  0  0  0  0  0  0  0  0
    1.8456    8.9182    0.0000 C   0  0  0  0  0  0  0  0  0  0  0  0
    0.8872   10.0721    0.0000 H   0  0  0  0  0  0  0  0  0  0  0  0
    3.3242    9.1710    0.0000 C   0  0  0  0  0  0  0  0  0  0  0  0
    4.2826    8.0160    0.0000 C   0  0  0  0  0  0  0  0  0  0  0  0
    3.7624    6.6082    0.0000 C   0  0  0  0  0  0  0  0  0  0  0  0
    4.7208    5.4543    0.0000 H   0  0  0  0  0  0  0  0  0  0  0  0
    5.7611    8.2689    0.0000 F   0  0  0  0  0  0  0  0  0  0  0  0
    3.8447   10.5778    0.0000 F   0  0  0  0  0  0  0  0  0  0  0  0
   -1.9714    3.3672    0.0000 C   0  0  0  0  0  0  0  0  0  0  0  0
   -1.0017    4.5116    0.0000 H   0  0  0  0  0  0  0  0  0  0  0  0
   -2.9302    4.5208    0.0000 C   0  0  0  0  0  0  0  0  0  0  0  0
   -1.6277    5.2648    0.0000 H   0  0  0  0  0  0  0  0  0  0  0  0
   -4.4093    4.2666    0.0000 C   0  0  0  0  0  0  0  0  0  0  0  0
   -4.4024    5.7666    0.0000 H   0  0  0  0  0  0  0  0  0  0  0  0
   -4.9297    2.8589    0.0000 C   0  0  0  0  0  0  0  0  0  0  0  0
   -6.2251    3.6153    0.0000 H   0  0  0  0  0  0  0  0  0  0  0  0
   -3.9710    1.7053    0.0000 C   0  0  0  0  0  0  0  0  0  0  0  0
   -5.2734    0.9613    0.0000 H   0  0  0  0  0  0  0  0  0  0  0  0
   -3.7171    0.2269    0.0000 C   0  0  0  0  0  0  0  0  0  0  0  0
   -2.3099   -0.2924    0.0000 O   0  0  0  0  0  0  0  0  0  0  0  0
   -4.8705   -0.7321    0.0000 O   0  0  0  0  0  0  0  0  0  0  0  0
   -6.2777   -0.2127    0.0000 H   0  0  0  0  0  0  0  0  0  0  0  0
   -2.4918    1.9594    0.0000 O   0  0  0  0  0  0  0  0  0  0  0  0
   -5.8994    1.7145    0.0000 O   0  0  0  0  0  0  0  0  0  0  0  0
   -7.3754    1.9821    0.0000 H   0  0  0  0  0  0  0  0  0  0  0  0
   -5.8853    4.5342    0.0000 O   0  0  0  0  0  0  0  0  0  0  0  0
   -6.3915    5.9462    0.0000 H   0  0  0  0  0  0  0  0  0  0  0  0
   -3.4369    5.9326    0.0000 O   0  0  0  0  0  0  0  0  0  0  0  0
   -2.4675    7.0773    0.0000 H   0  0  0  0  0  0  0  0  0  0  0  0
    2.0165    0.8408    0.0000 N   0  0  0  0  0  0  0  0  0  0  0  0
    2.8965   -0.3792    0.0000 N   0  0  0  0  0  0  0  0  0  0  0  0
    2.0165   -1.5892    0.0000 N   0  0  0  0  0  0  0  0  0  0  0  0
    2.4758   -3.0172    0.0000 C   0  0  2  0  0  0  0  0  0  0  0  0
    1.0070   -3.3213    0.0000 H   0  0  0  0  0  0  0  0  0  0  0  0
    2.6217   -4.5121    0.0000 C   0  0  0  0  0  0  0  0  0  0  0  0
    1.1217   -4.5068    0.0000 H   0  0  0  0  0  0  0  0  0  0  0  0
    2.4654   -6.0040    0.0000 H   0  0  0  0  0  0  0  0  0  0  0  0
    4.0922   -4.8182    0.0000 C   0  0  1  0  0  0  0  0  0  0  0  0
    3.6315   -6.2457    0.0000 H   0  0  0  0  0  0  0  0  0  0  0  0
    4.8418   -3.5274    0.0000 C   0  0  2  0  0  0  0  0  0  0  0  0
    6.0533   -4.4117    0.0000 H   0  0  0  0  0  0  0  0  0  0  0  0
    3.8399   -2.4110    0.0000 C   0  0  1  0  0  0  0  0  0  0  0  0
    5.0545   -1.5310    0.0000 H   0  0  0  0  0  0  0  0  0  0  0  0
    3.0912   -1.1112    0.0000 O   0  0  0  0  0  0  0  0  0  0  0  0
    3.8425    0.1870    0.0000 H   0  0  0  0  0  0  0  0  0  0  0  0
    5.8476   -2.4146    0.0000 O   0  0  0  0  0  0  0  0  0  0  0  0
    7.3142   -2.7292    0.0000 H   0  0  0  0  0  0  0  0  0  0  0  0
    5.4624   -5.4286    0.0000 O   0  0  0  0  0  0  0  0  0  0  0  0
    5.6188   -6.9204    0.0000 C   0  0  0  0  0  0  0  0  0  0  0  0
    4.1225   -6.8154    0.0000 H   0  0  0  0  0  0  0  0  0  0  0  0
    5.2556   -8.3758    0.0000 H   0  0  0  0  0  0  0  0  0  0  0  0
    6.9890   -7.5309    0.0000 C   0  0  0  0  0  0  0  0  0  0  0  0
    8.4853   -7.6359    0.0000 H   0  0  0  0  0  0  0  0  0  0  0  0
    7.3522   -6.0755    0.0000 H   0  0  0  0  0  0  0  0  0  0  0  0
    7.1454   -9.0227    0.0000 O   0  0  0  0  0  0  0  0  0  0  0  0
    8.5156   -9.6331    0.0000 H   0  0  0  0  0  0  0  0  0  0  0  0
  1  2  1  0  0  0  0 
  1  3  1  0  0  0  0 
  1  4  1  0  0  0  0 
  1  5  1  0  0  0  0 
  5  6  1  0  0  0  0 
  5  7  1  0  0  0  0 
  5  8  1  0  0  0  0 
  8  9  1  0  0  0  0 
  8 10  1  0  0  0  0 
  8 11  1  0  0  0  0 
 11 12  1  0  0  0  0 
 12 13  2  0  0  0  0 
 13 14  1  0  0  0  0 
 14 15  2  0  0  0  0 
 15 16  1  0  0  0  0 
 16 17  2  0  0  0  0 
 12 17  1  0  0  0  0 
 16 18  1  0  0  0  0 
 19 18  1  6  0  0  0 
 19 20  1  1  0  0  0 
 19 21  1  0  0  0  0 
 21 22  1  0  0  0  0 
 21 23  1  0  0  0  0 
 21 24  1  0  0  0  0 
 19 24  1  0  0  0  0 
 24 25  1  6  0  0  0 
 24 26  1  1  0  0  0 
 26 27  2  0  0  0  0 
 27 28  1  0  0  0  0 
 27 29  1  0  0  0  0 
 29 30  1  0  0  0  0 
 29 31  2  0  0  0  0 
 31 32  1  0  0  0  0 
 32 33  2  0  0  0  0 
 26 33  1  0  0  0  0 
 33 34  1  0  0  0  0 
 32 35  1  0  0  0  0 
 31 36  1  0  0  0  0 
 18 37  1  0  0  0  0 
 37 38  1  0  0  0  0 
 37 39  1  0  0  0  0 
 39 40  1  0  0  0  0 
 39 41  1  0  0  0  0 
 41 42  1  0  0  0  0 
 41 43  1  0  0  0  0 
 43 44  1  0  0  0  0 
 43 45  1  0  0  0  0 
 45 46  1  0  0  0  0 
 45 47  1  0  0  0  0 
 47 48  2  0  0  0  0 
 47 49  1  0  0  0  0 
 49 50  1  0  0  0  0 
 45 51  1  0  0  0  0 
 37 51  1  0  0  0  0 
 43 52  1  0  0  0  0 
 52 53  1  0  0  0  0 
 41 54  1  0  0  0  0 
 54 55  1  0  0  0  0 
 39 56  1  0  0  0  0 
 56 57  1  0  0  0  0 
 15 58  1  0  0  0  0 
 58 59  2  0  0  0  0 
 59 60  1  0  0  0  0 
 14 60  1  0  0  0  0 
 61 60  1  1  0  0  0 
 61 62  1  6  0  0  0 
 61 63  1  0  0  0  0 
 63 64  1  0  0  0  0 
 63 65  1  0  0  0  0 
 63 66  1  0  0  0  0 
 66 67  1  6  0  0  0 
 66 68  1  0  0  0  0 
 68 69  1  1  0  0  0 
 68 70  1  0  0  0  0 
 61 70  1  0  0  0  0 
 70 71  1  1  0  0  0 
 70 72  1  6  0  0  0 
 72 73  1  0  0  0  0 
 68 74  1  6  0  0  0 
 74 75  1  0  0  0  0 
 66 76  1  1  0  0  0 
 76 77  1  0  0  0  0 
 77 78  1  0  0  0  0 
 77 79  1  0  0  0  0 
 77 80  1  0  0  0  0 
 80 81  1  0  0  0  0 
 80 82  1  0  0  0  0 
 80 83  1  0  0  0  0 
 83 84  1  0  0  0  0 
M  END
> <Rank>
31

> <Priority_score>
0.072

> <Reaction_type>
N-glucuronidation_(aniline_NH1-R)

> <Parent_ID>
20

> <Parent_InChI>
InChI=1S/C23H28F2N6O4S/c1-2-7-36-23-27-21(26-15-9-12(15)11-3-4-13(24)14(25)8-11)18-22(28-23)31(30-29-18)16-10-17(35-6-5-32)20(34)19(16)33/h3-4,8,12,15-17,19-20,32-34H,2,5-7,9-10H2,1H3,(H,26,27,28)

> <Parent_SMILES>
CCCSc1nc(N[C@@H]2C[C@H]2c2ccc(F)c(F)c2)c2nnn([C@@H]3C[C@H](OCCO)[C@@H](O)[C@H]3O)c2n1

$$$$
Molecule 20_metabolite 32
  CDK     0516241031

 65 69  0  0  0  0  0  0  0  0999 V2000
   -5.2334   -2.9397    0.0000 C   0  0  0  0  0  0  0  0  0  0  0  0
   -6.5289   -3.6958    0.0000 H   0  0  0  0  0  0  0  0  0  0  0  0
   -3.7574   -2.6723    0.0000 H   0  0  0  0  0  0  0  0  0  0  0  0
   -4.7137   -4.3468    0.0000 H   0  0  0  0  0  0  0  0  0  0  0  0
   -5.2404   -1.4397    0.0000 C   0  0  0  0  0  0  0  0  0  0  0  0
   -6.7164   -1.7072    0.0000 H   0  0  0  0  0  0  0  0  0  0  0  0
   -5.7601   -0.0326    0.0000 H   0  0  0  0  0  0  0  0  0  0  0  0
   -3.9449   -0.6836    0.0000 C   0  0  0  0  0  0  0  0  0  0  0  0
   -2.9862    0.4699    0.0000 H   0  0  0  0  0  0  0  0  0  0  0  0
   -4.9145    0.4609    0.0000 H   0  0  0  0  0  0  0  0  0  0  0  0
   -2.6424   -1.4275    0.0000 S   0  0  0  0  0  0  0  0  0  0  0  0
   -1.3469   -0.6714    0.0000 C   0  0  0  0  0  0  0  0  0  0  0  0
   -0.0369   -1.4114    0.0000 N   0  0  0  0  0  0  0  0  0  0  0  0
    1.2431   -0.6714    0.0000 C   0  0  0  0  0  0  0  0  0  0  0  0
    1.2431    0.8386    0.0000 C   0  0  0  0  0  0  0  0  0  0  0  0
   -0.0369    1.5586    0.0000 C   0  0  0  0  0  0  0  0  0  0  0  0
   -1.3469    0.8386    0.0000 N   0  0  0  0  0  0  0  0  0  0  0  0
   -0.0295    3.0585    0.0000 N   0  0  0  0  0  0  0  0  0  0  0  0
   -1.3248    3.8149    0.0000 H   0  0  0  0  0  0  0  0  0  0  0  0
    1.2732    3.8021    0.0000 C   0  0  1  0  0  0  0  0  0  0  0  0
    2.2316    2.6482    0.0000 H   0  0  0  0  0  0  0  0  0  0  0  0
    0.7667    5.2149    0.0000 C   0  0  2  0  0  0  0  0  0  0  0  0
    0.7745    6.7149    0.0000 H   0  0  0  0  0  0  0  0  0  0  0  0
   -1.6933    5.2273    0.0000 C   0  0  0  0  0  0  0  0  0  0  0  0
   -2.4504    3.9314    0.0000 C   0  0  0  0  0  0  0  0  0  0  0  0
   -1.7068    2.6288    0.0000 H   0  0  0  0  0  0  0  0  0  0  0  0
   -3.9512    3.9383    0.0000 C   0  0  0  0  0  0  0  0  0  0  0  0
   -4.7074    2.6428    0.0000 H   0  0  0  0  0  0  0  0  0  0  0  0
   -4.6949    5.2409    0.0000 C   0  0  0  0  0  0  0  0  0  0  0  0
   -3.9378    6.5368    0.0000 C   0  0  0  0  0  0  0  0  0  0  0  0
   -2.4370    6.5300    0.0000 C   0  0  0  0  0  0  0  0  0  0  0  0
   -1.6808    7.8255    0.0000 H   0  0  0  0  0  0  0  0  0  0  0  0
   -4.6814    7.8395    0.0000 F   0  0  0  0  0  0  0  0  0  0  0  0
   -6.1949    5.2485    0.0000 F   0  0  0  0  0  0  0  0  0  0  0  0
    2.2433    4.9462    0.0000 C   0  0  0  0  0  0  0  0  0  0  0  0
    3.5384    4.1894    0.0000 H   0  0  0  0  0  0  0  0  0  0  0  0
    2.7638    6.3530    0.0000 O   0  0  0  0  0  0  0  0  0  0  0  0
    4.2424    6.6056    0.0000 H   0  0  0  0  0  0  0  0  0  0  0  0
    2.6631    1.2886    0.0000 N   0  0  0  0  0  0  0  0  0  0  0  0
    3.5431    0.0686    0.0000 N   0  0  0  0  0  0  0  0  0  0  0  0
    2.6631   -1.1414    0.0000 N   0  0  0  0  0  0  0  0  0  0  0  0
    3.1224   -2.5694    0.0000 C   0  0  2  0  0  0  0  0  0  0  0  0
    1.6536   -2.8736    0.0000 H   0  0  0  0  0  0  0  0  0  0  0  0
    3.2682   -4.0644    0.0000 C   0  0  0  0  0  0  0  0  0  0  0  0
    1.7682   -4.0590    0.0000 H   0  0  0  0  0  0  0  0  0  0  0  0
    3.1119   -5.5562    0.0000 H   0  0  0  0  0  0  0  0  0  0  0  0
    4.7388   -4.3704    0.0000 C   0  0  1  0  0  0  0  0  0  0  0  0
    4.2781   -5.7979    0.0000 H   0  0  0  0  0  0  0  0  0  0  0  0
    5.4883   -3.0796    0.0000 C   0  0  2  0  0  0  0  0  0  0  0  0
    6.6999   -3.9640    0.0000 H   0  0  0  0  0  0  0  0  0  0  0  0
    4.4864   -1.9633    0.0000 C   0  0  1  0  0  0  0  0  0  0  0  0
    5.7011   -1.0832    0.0000 H   0  0  0  0  0  0  0  0  0  0  0  0
    3.7378   -0.6635    0.0000 O   0  0  0  0  0  0  0  0  0  0  0  0
    4.4891    0.6348    0.0000 H   0  0  0  0  0  0  0  0  0  0  0  0
    6.4942   -1.9668    0.0000 O   0  0  0  0  0  0  0  0  0  0  0  0
    7.9608   -2.2815    0.0000 H   0  0  0  0  0  0  0  0  0  0  0  0
    6.1090   -4.9809    0.0000 O   0  0  0  0  0  0  0  0  0  0  0  0
    6.2654   -6.4727    0.0000 C   0  0  0  0  0  0  0  0  0  0  0  0
    4.7691   -6.3677    0.0000 H   0  0  0  0  0  0  0  0  0  0  0  0
    5.9021   -7.9280    0.0000 H   0  0  0  0  0  0  0  0  0  0  0  0
    7.6355   -7.0831    0.0000 C   0  0  0  0  0  0  0  0  0  0  0  0
    9.1319   -7.1881    0.0000 H   0  0  0  0  0  0  0  0  0  0  0  0
    7.9988   -5.6278    0.0000 H   0  0  0  0  0  0  0  0  0  0  0  0
    7.7920   -8.5749    0.0000 O   0  0  0  0  0  0  0  0  0  0  0  0
    9.1621   -9.1854    0.0000 H   0  0  0  0  0  0  0  0  0  0  0  0
  1  2  1  0  0  0  0 
  1  3  1  0  0  0  0 
  1  4  1  0  0  0  0 
  1  5  1  0  0  0  0 
  5  6  1  0  0  0  0 
  5  7  1  0  0  0  0 
  5  8  1  0  0  0  0 
  8  9  1  0  0  0  0 
  8 10  1  0  0  0  0 
  8 11  1  0  0  0  0 
 11 12  1  0  0  0  0 
 12 13  2  0  0  0  0 
 13 14  1  0  0  0  0 
 14 15  2  0  0  0  0 
 15 16  1  0  0  0  0 
 16 17  2  0  0  0  0 
 12 17  1  0  0  0  0 
 16 18  1  0  0  0  0 
 18 19  1  0  0  0  0 
 20 18  1  1  0  0  0 
 20 21  1  6  0  0  0 
 20 22  1  0  0  0  0 
 22 23  1  1  0  0  0 
 22 24  1  6  0  0  0 
 24 25  2  0  0  0  0 
 25 26  1  0  0  0  0 
 25 27  1  0  0  0  0 
 27 28  1  0  0  0  0 
 27 29  2  0  0  0  0 
 29 30  1  0  0  0  0 
 30 31  2  0  0  0  0 
 24 31  1  0  0  0  0 
 31 32  1  0  0  0  0 
 30 33  1  0  0  0  0 
 29 34  1  0  0  0  0 
 22 35  1  0  0  0  0 
 20 35  1  0  0  0  0 
 35 36  1  0  0  0  0 
 35 37  1  0  0  0  0 
 37 38  1  0  0  0  0 
 15 39  1  0  0  0  0 
 39 40  2  0  0  0  0 
 40 41  1  0  0  0  0 
 14 41  1  0  0  0  0 
 42 41  1  1  0  0  0 
 42 43  1  6  0  0  0 
 42 44  1  0  0  0  0 
 44 45  1  0  0  0  0 
 44 46  1  0  0  0  0 
 44 47  1  0  0  0  0 
 47 48  1  6  0  0  0 
 47 49  1  0  0  0  0 
 49 50  1  1  0  0  0 
 49 51  1  0  0  0  0 
 42 51  1  0  0  0  0 
 51 52  1  1  0  0  0 
 51 53  1  6  0  0  0 
 53 54  1  0  0  0  0 
 49 55  1  6  0  0  0 
 55 56  1  0  0  0  0 
 47 57  1  1  0  0  0 
 57 58  1  0  0  0  0 
 58 59  1  0  0  0  0 
 58 60  1  0  0  0  0 
 58 61  1  0  0  0  0 
 61 62  1  0  0  0  0 
 61 63  1  0  0  0  0 
 61 64  1  0  0  0  0 
 64 65  1  0  0  0  0 
M  END
> <Rank>
32

> <Priority_score>
0.056

> <Reaction_type>
aliphatic hydroxylation

> <Parent_ID>
20

> <Parent_InChI>
InChI=1S/C23H28F2N6O4S/c1-2-7-36-23-27-21(26-15-9-12(15)11-3-4-13(24)14(25)8-11)18-22(28-23)31(30-29-18)16-10-17(35-6-5-32)20(34)19(16)33/h3-4,8,12,15-17,19-20,32-34H,2,5-7,9-10H2,1H3,(H,26,27,28)

> <Parent_SMILES>
CCCSc1nc(N[C@@H]2C[C@H]2c2ccc(F)c(F)c2)c2nnn([C@@H]3C[C@H](OCCO)[C@@H](O)[C@H]3O)c2n1

$$$$
Molecule 20_metabolite 33
  CDK     0516241031

 21 22  0  0  0  0  0  0  0  0999 V2000
    0.5380    0.5149    0.0000 C   0  0  0  0  0  0  0  0  0  0  0  0
   -0.7611   -0.2349    0.0000 H   0  0  0  0  0  0  0  0  0  0  0  0
    0.5385    2.0158    0.0000 C   0  0  0  0  0  0  0  0  0  0  0  0
    1.8380    2.7666    0.0000 C   0  0  0  0  0  0  0  0  0  0  0  0
    1.8378    4.2666    0.0000 H   0  0  0  0  0  0  0  0  0  0  0  0
    3.1370    2.0166    0.0000 C   0  0  0  0  0  0  0  0  0  0  0  0
    3.1366    0.5158    0.0000 C   0  0  0  0  0  0  0  0  0  0  0  0
    1.8370   -0.2351    0.0000 C   0  0  0  0  0  0  0  0  0  0  0  0
    1.8373   -1.7351    0.0000 H   0  0  0  0  0  0  0  0  0  0  0  0
    4.4356   -0.2342    0.0000 F   0  0  0  0  0  0  0  0  0  0  0  0
    4.4362    2.7664    0.0000 F   0  0  0  0  0  0  0  0  0  0  0  0
   -1.1762    3.0058    0.0000 C   0  0  2  0  0  0  0  0  0  0  0  0
   -0.6631    4.4152    0.0000 H   0  0  0  0  0  0  0  0  0  0  0  0
   -2.1408    1.8559    0.0000 C   0  0  0  0  0  0  0  0  0  0  0  0
   -3.4401    1.1064    0.0000 H   0  0  0  0  0  0  0  0  0  0  0  0
   -1.1768    0.7068    0.0000 H   0  0  0  0  0  0  0  0  0  0  0  0
   -2.6534    3.2665    0.0000 C   0  0  1  0  0  0  0  0  0  0  0  0
   -2.6529    4.7665    0.0000 H   0  0  0  0  0  0  0  0  0  0  0  0
   -4.1307    3.0067    0.0000 N   0  0  0  0  0  0  0  0  0  0  0  0
   -5.0944    4.1562    0.0000 H   0  0  0  0  0  0  0  0  0  0  0  0
   -4.6444    1.5974    0.0000 H   0  0  0  0  0  0  0  0  0  0  0  0
  1  2  1  0  0  0  0 
  1  3  2  0  0  0  0 
  3  4  1  0  0  0  0 
  4  5  1  0  0  0  0 
  4  6  2  0  0  0  0 
  6  7  1  0  0  0  0 
  7  8  2  0  0  0  0 
  1  8  1  0  0  0  0 
  8  9  1  0  0  0  0 
  7 10  1  0  0  0  0 
  6 11  1  0  0  0  0 
 12  3  1  6  0  0  0 
 12 13  1  1  0  0  0 
 12 14  1  0  0  0  0 
 14 15  1  0  0  0  0 
 14 16  1  0  0  0  0 
 14 17  1  0  0  0  0 
 12 17  1  0  0  0  0 
 17 18  1  6  0  0  0 
 17 19  1  1  0  0  0 
 19 20  1  0  0  0  0 
 19 21  1  0  0  0  0 
M  END
> <Rank>
33

> <Priority_score>
0.052

> <Reaction_type>
oxidative_deamination_(aromatic)

> <Parent_ID>
20

> <Parent_InChI>
InChI=1S/C23H28F2N6O4S/c1-2-7-36-23-27-21(26-15-9-12(15)11-3-4-13(24)14(25)8-11)18-22(28-23)31(30-29-18)16-10-17(35-6-5-32)20(34)19(16)33/h3-4,8,12,15-17,19-20,32-34H,2,5-7,9-10H2,1H3,(H,26,27,28)

> <Parent_SMILES>
CCCSc1nc(N[C@@H]2C[C@H]2c2ccc(F)c(F)c2)c2nnn([C@@H]3C[C@H](OCCO)[C@@H](O)[C@H]3O)c2n1

$$$$
Molecule 20_metabolite 34
  CDK     0516241031

 46 48  0  0  0  0  0  0  0  0999 V2000
   -7.4961   -0.7744    0.0000 C   0  0  0  0  0  0  0  0  0  0  0  0
   -7.5031    0.7256    0.0000 H   0  0  0  0  0  0  0  0  0  0  0  0
   -8.0025   -2.1864    0.0000 H   0  0  0  0  0  0  0  0  0  0  0  0
   -8.9745   -0.5209    0.0000 H   0  0  0  0  0  0  0  0  0  0  0  0
   -6.1935   -1.5183    0.0000 C   0  0  0  0  0  0  0  0  0  0  0  0
   -7.1523   -2.6719    0.0000 H   0  0  0  0  0  0  0  0  0  0  0  0
   -5.2240   -2.6628    0.0000 H   0  0  0  0  0  0  0  0  0  0  0  0
   -4.8980   -0.7622    0.0000 C   0  0  0  0  0  0  0  0  0  0  0  0
   -3.9393    0.3914    0.0000 H   0  0  0  0  0  0  0  0  0  0  0  0
   -5.8676    0.3823    0.0000 H   0  0  0  0  0  0  0  0  0  0  0  0
   -3.5955   -1.5061    0.0000 S   0  0  0  0  0  0  0  0  0  0  0  0
   -2.3000   -0.7500    0.0000 C   0  0  0  0  0  0  0  0  0  0  0  0
   -0.9900   -1.4900    0.0000 N   0  0  0  0  0  0  0  0  0  0  0  0
    0.2900   -0.7500    0.0000 C   0  0  0  0  0  0  0  0  0  0  0  0
    0.2900    0.7600    0.0000 C   0  0  0  0  0  0  0  0  0  0  0  0
   -0.9900    1.4800    0.0000 C   0  0  0  0  0  0  0  0  0  0  0  0
   -0.9826    2.9800    0.0000 O   0  0  0  0  0  0  0  0  0  0  0  0
   -2.3000    0.7600    0.0000 N   0  0  0  0  0  0  0  0  0  0  0  0
   -3.5911    1.5236    0.0000 H   0  0  0  0  0  0  0  0  0  0  0  0
    1.7100    1.2100    0.0000 N   0  0  0  0  0  0  0  0  0  0  0  0
    2.5900   -0.0100    0.0000 N   0  0  0  0  0  0  0  0  0  0  0  0
    1.7100   -1.2200    0.0000 N   0  0  0  0  0  0  0  0  0  0  0  0
    2.1693   -2.6480    0.0000 C   0  0  2  0  0  0  0  0  0  0  0  0
    0.7004   -2.9522    0.0000 H   0  0  0  0  0  0  0  0  0  0  0  0
    2.3151   -4.1429    0.0000 C   0  0  0  0  0  0  0  0  0  0  0  0
    0.8151   -4.1376    0.0000 H   0  0  0  0  0  0  0  0  0  0  0  0
    2.1588   -5.6348    0.0000 H   0  0  0  0  0  0  0  0  0  0  0  0
    3.7857   -4.4490    0.0000 C   0  0  1  0  0  0  0  0  0  0  0  0
    3.3250   -5.8765    0.0000 H   0  0  0  0  0  0  0  0  0  0  0  0
    4.5352   -3.1582    0.0000 C   0  0  2  0  0  0  0  0  0  0  0  0
    5.7468   -4.0425    0.0000 H   0  0  0  0  0  0  0  0  0  0  0  0
    3.5333   -2.0418    0.0000 C   0  0  1  0  0  0  0  0  0  0  0  0
    4.7480   -1.1618    0.0000 H   0  0  0  0  0  0  0  0  0  0  0  0
    2.7847   -0.7420    0.0000 O   0  0  0  0  0  0  0  0  0  0  0  0
    3.5360    0.5562    0.0000 H   0  0  0  0  0  0  0  0  0  0  0  0
    5.5410   -2.0454    0.0000 O   0  0  0  0  0  0  0  0  0  0  0  0
    7.0077   -2.3600    0.0000 H   0  0  0  0  0  0  0  0  0  0  0  0
    5.1558   -5.0594    0.0000 O   0  0  0  0  0  0  0  0  0  0  0  0
    5.3123   -6.5512    0.0000 C   0  0  0  0  0  0  0  0  0  0  0  0
    3.8159   -6.4462    0.0000 H   0  0  0  0  0  0  0  0  0  0  0  0
    4.9490   -8.0066    0.0000 H   0  0  0  0  0  0  0  0  0  0  0  0
    6.6824   -7.1617    0.0000 C   0  0  0  0  0  0  0  0  0  0  0  0
    8.1788   -7.2667    0.0000 H   0  0  0  0  0  0  0  0  0  0  0  0
    7.0457   -5.7063    0.0000 H   0  0  0  0  0  0  0  0  0  0  0  0
    6.8389   -8.6535    0.0000 O   0  0  0  0  0  0  0  0  0  0  0  0
    8.2090   -9.2640    0.0000 H   0  0  0  0  0  0  0  0  0  0  0  0
  1  2  1  0  0  0  0 
  1  3  1  0  0  0  0 
  1  4  1  0  0  0  0 
  1  5  1  0  0  0  0 
  5  6  1  0  0  0  0 
  5  7  1  0  0  0  0 
  5  8  1  0  0  0  0 
  8  9  1  0  0  0  0 
  8 10  1  0  0  0  0 
  8 11  1  0  0  0  0 
 11 12  1  0  0  0  0 
 12 13  2  0  0  0  0 
 13 14  1  0  0  0  0 
 14 15  2  0  0  0  0 
 15 16  1  0  0  0  0 
 16 17  2  0  0  0  0 
 16 18  1  0  0  0  0 
 12 18  1  0  0  0  0 
 18 19  1  0  0  0  0 
 15 20  1  0  0  0  0 
 20 21  2  0  0  0  0 
 21 22  1  0  0  0  0 
 14 22  1  0  0  0  0 
 23 22  1  1  0  0  0 
 23 24  1  6  0  0  0 
 23 25  1  0  0  0  0 
 25 26  1  0  0  0  0 
 25 27  1  0  0  0  0 
 25 28  1  0  0  0  0 
 28 29  1  6  0  0  0 
 28 30  1  0  0  0  0 
 30 31  1  1  0  0  0 
 30 32  1  0  0  0  0 
 23 32  1  0  0  0  0 
 32 33  1  1  0  0  0 
 32 34  1  6  0  0  0 
 34 35  1  0  0  0  0 
 30 36  1  6  0  0  0 
 36 37  1  0  0  0  0 
 28 38  1  1  0  0  0 
 38 39  1  0  0  0  0 
 39 40  1  0  0  0  0 
 39 41  1  0  0  0  0 
 39 42  1  0  0  0  0 
 42 43  1  0  0  0  0 
 42 44  1  0  0  0  0 
 42 45  1  0  0  0  0 
 45 46  1  0  0  0  0 
M  END
> <Rank>
33

> <Priority_score>
0.052

> <Reaction_type>
oxidative_deamination_(aromatic)

> <Parent_ID>
20

> <Parent_InChI>
InChI=1S/C23H28F2N6O4S/c1-2-7-36-23-27-21(26-15-9-12(15)11-3-4-13(24)14(25)8-11)18-22(28-23)31(30-29-18)16-10-17(35-6-5-32)20(34)19(16)33/h3-4,8,12,15-17,19-20,32-34H,2,5-7,9-10H2,1H3,(H,26,27,28)

> <Parent_SMILES>
CCCSc1nc(N[C@@H]2C[C@H]2c2ccc(F)c(F)c2)c2nnn([C@@H]3C[C@H](OCCO)[C@@H](O)[C@H]3O)c2n1

$$$$
Molecule 20_metabolite 35
  CDK     0516241031

 65 69  0  0  0  0  0  0  0  0999 V2000
   -7.9700   -0.6980    0.0000 C   0  0  0  0  0  0  0  0  0  0  0  0
   -9.2655   -1.4541    0.0000 H   0  0  0  0  0  0  0  0  0  0  0  0
   -7.0112    0.4555    0.0000 H   0  0  0  0  0  0  0  0  0  0  0  0
   -8.9396    0.4465    0.0000 H   0  0  0  0  0  0  0  0  0  0  0  0
   -6.6674   -1.4419    0.0000 C   0  0  0  0  0  0  0  0  0  0  0  0
   -7.6262   -2.5955    0.0000 H   0  0  0  0  0  0  0  0  0  0  0  0
   -5.6979   -2.5865    0.0000 H   0  0  0  0  0  0  0  0  0  0  0  0
   -5.3719   -0.6858    0.0000 C   0  0  0  0  0  0  0  0  0  0  0  0
   -3.8960   -0.4184    0.0000 H   0  0  0  0  0  0  0  0  0  0  0  0
   -4.8523   -2.0930    0.0000 H   0  0  0  0  0  0  0  0  0  0  0  0
   -5.3790    0.8141    0.0000 S   0  0  0  0  0  0  0  0  0  0  0  0
   -4.0835    1.5702    0.0000 C   0  0  0  0  0  0  0  0  0  0  0  0
   -4.0835    3.0748    0.0000 N   0  0  0  0  0  0  0  0  0  0  0  0
   -2.8096    3.8253    0.0000 C   0  0  0  0  0  0  0  0  0  0  0  0
   -1.4949    3.0826    0.0000 C   0  0  0  0  0  0  0  0  0  0  0  0
   -1.4975    1.6140    0.0000 C   0  0  0  0  0  0  0  0  0  0  0  0
   -2.7687    0.8276    0.0000 N   0  0  0  0  0  0  0  0  0  0  0  0
   -0.1879    0.8827    0.0000 N   0  0  0  0  0  0  0  0  0  0  0  0
   -0.1664   -0.6171    0.0000 H   0  0  0  0  0  0  0  0  0  0  0  0
    1.1003    1.6512    0.0000 C   0  0  2  0  0  0  0  0  0  0  0  0
    0.5670    3.0532    0.0000 H   0  0  0  0  0  0  0  0  0  0  0  0
    2.0812    0.5154    0.0000 C   0  0  0  0  0  0  0  0  0  0  0  0
    3.3911   -0.2155    0.0000 H   0  0  0  0  0  0  0  0  0  0  0  0
    1.1337   -0.6475    0.0000 H   0  0  0  0  0  0  0  0  0  0  0  0
    2.5735    1.9332    0.0000 C   0  0  1  0  0  0  0  0  0  0  0  0
    2.5516    3.4330    0.0000 H   0  0  0  0  0  0  0  0  0  0  0  0
    4.5283    1.6181    0.0000 C   0  0  0  0  0  0  0  0  0  0  0  0
    5.0626    0.2156    0.0000 C   0  0  0  0  0  0  0  0  0  0  0  0
    4.1153   -0.9474    0.0000 H   0  0  0  0  0  0  0  0  0  0  0  0
    6.5442   -0.0239    0.0000 C   0  0  0  0  0  0  0  0  0  0  0  0
    7.0775   -1.4259    0.0000 H   0  0  0  0  0  0  0  0  0  0  0  0
    7.4915    1.1391    0.0000 C   0  0  0  0  0  0  0  0  0  0  0  0
    6.9572    2.5416    0.0000 C   0  0  0  0  0  0  0  0  0  0  0  0
    5.4756    2.7811    0.0000 C   0  0  0  0  0  0  0  0  0  0  0  0
    4.9423    4.1831    0.0000 H   0  0  0  0  0  0  0  0  0  0  0  0
    7.9046    3.7046    0.0000 F   0  0  0  0  0  0  0  0  0  0  0  0
    8.9724    0.9004    0.0000 F   0  0  0  0  0  0  0  0  0  0  0  0
   -0.4047    4.0977    0.0000 N   0  0  0  0  0  0  0  0  0  0  0  0
   -1.0341    5.4639    0.0000 N   0  0  0  0  0  0  0  0  0  0  0  0
   -2.5204    5.2929    0.0000 N   0  0  0  0  0  0  0  0  0  0  0  0
   -3.5378    6.3951    0.0000 C   0  0  2  0  0  0  0  0  0  0  0  0
   -4.5251    5.2658    0.0000 H   0  0  0  0  0  0  0  0  0  0  0  0
   -4.7678    7.2573    0.0000 C   0  0  0  0  0  0  0  0  0  0  0  0
   -5.5009    5.9487    0.0000 H   0  0  0  0  0  0  0  0  0  0  0  0
   -6.1436    7.8550    0.0000 H   0  0  0  0  0  0  0  0  0  0  0  0
   -4.3110    8.6883    0.0000 C   0  0  1  0  0  0  0  0  0  0  0  0
   -5.7805    8.9893    0.0000 H   0  0  0  0  0  0  0  0  0  0  0  0
   -2.8184    8.7060    0.0000 C   0  0  2  0  0  0  0  0  0  0  0  0
   -2.9925   10.1959    0.0000 H   0  0  0  0  0  0  0  0  0  0  0  0
   -2.3392    7.2846    0.0000 C   0  0  1  0  0  0  0  0  0  0  0  0
   -0.9755    7.9094    0.0000 H   0  0  0  0  0  0  0  0  0  0  0  0
   -1.5757    5.9935    0.0000 O   0  0  0  0  0  0  0  0  0  0  0  0
   -0.0758    6.0091    0.0000 H   0  0  0  0  0  0  0  0  0  0  0  0
   -1.3548    9.0344    0.0000 O   0  0  0  0  0  0  0  0  0  0  0  0
   -0.9075   10.4662    0.0000 H   0  0  0  0  0  0  0  0  0  0  0  0
   -4.1686   10.1815    0.0000 O   0  0  0  0  0  0  0  0  0  0  0  0
   -5.3905   11.0514    0.0000 C   0  0  0  0  0  0  0  0  0  0  0  0
   -6.0351    9.6969    0.0000 H   0  0  0  0  0  0  0  0  0  0  0  0
   -6.8364   11.4509    0.0000 H   0  0  0  0  0  0  0  0  0  0  0  0
   -5.2481   12.5446    0.0000 C   0  0  0  0  0  0  0  0  0  0  0  0
   -4.6036   13.8991    0.0000 H   0  0  0  0  0  0  0  0  0  0  0  0
   -3.8023   12.1451    0.0000 H   0  0  0  0  0  0  0  0  0  0  0  0
   -6.4701   13.4146    0.0000 O   0  0  0  0  0  0  0  0  0  0  0  0
   -6.3277   14.9078    0.0000 H   0  0  0  0  0  0  0  0  0  0  0  0
    1.0670    3.8075    0.0000 O   0  0  0  0  0  0  0  0  0  0  0  0
  1  2  1  0  0  0  0 
  1  3  1  0  0  0  0 
  1  4  1  0  0  0  0 
  1  5  1  0  0  0  0 
  5  6  1  0  0  0  0 
  5  7  1  0  0  0  0 
  5  8  1  0  0  0  0 
  8  9  1  0  0  0  0 
  8 10  1  0  0  0  0 
  8 11  1  0  0  0  0 
 11 12  1  0  0  0  0 
 12 13  2  0  0  0  0 
 13 14  1  0  0  0  0 
 14 15  2  0  0  0  0 
 15 16  1  0  0  0  0 
 16 17  2  0  0  0  0 
 12 17  1  0  0  0  0 
 16 18  1  0  0  0  0 
 18 19  1  0  0  0  0 
 20 18  1  1  0  0  0 
 20 21  1  6  0  0  0 
 20 22  1  0  0  0  0 
 22 23  1  0  0  0  0 
 22 24  1  0  0  0  0 
 22 25  1  0  0  0  0 
 20 25  1  0  0  0  0 
 25 26  1  1  0  0  0 
 25 27  1  6  0  0  0 
 27 28  2  0  0  0  0 
 28 29  1  0  0  0  0 
 28 30  1  0  0  0  0 
 30 31  1  0  0  0  0 
 30 32  2  0  0  0  0 
 32 33  1  0  0  0  0 
 33 34  2  0  0  0  0 
 27 34  1  0  0  0  0 
 34 35  1  0  0  0  0 
 33 36  1  0  0  0  0 
 32 37  1  0  0  0  0 
 15 38  1  0  0  0  0 
 38 39  2  0  0  0  0 
 39 40  1  0  0  0  0 
 14 40  1  0  0  0  0 
 41 40  1  6  0  0  0 
 41 42  1  1  0  0  0 
 41 43  1  0  0  0  0 
 43 44  1  0  0  0  0 
 43 45  1  0  0  0  0 
 43 46  1  0  0  0  0 
 46 47  1  1  0  0  0 
 46 48  1  0  0  0  0 
 48 49  1  6  0  0  0 
 48 50  1  0  0  0  0 
 41 50  1  0  0  0  0 
 50 51  1  6  0  0  0 
 50 52  1  1  0  0  0 
 52 53  1  0  0  0  0 
 48 54  1  1  0  0  0 
 54 55  1  0  0  0  0 
 46 56  1  6  0  0  0 
 56 57  1  0  0  0  0 
 57 58  1  0  0  0  0 
 57 59  1  0  0  0  0 
 57 60  1  0  0  0  0 
 60 61  1  0  0  0  0 
 60 62  1  0  0  0  0 
 60 63  1  0  0  0  0 
 63 64  1  0  0  0  0 
 38 65  1  0  0  0  0 
M  CHG  1  38   1
M  CHG  1  65  -1
M  END
> <Rank>
33

> <Priority_score>
0.052

> <Reaction_type>
N-oxidation

> <Parent_ID>
20

> <Parent_InChI>
InChI=1S/C23H28F2N6O4S/c1-2-7-36-23-27-21(26-15-9-12(15)11-3-4-13(24)14(25)8-11)18-22(28-23)31(30-29-18)16-10-17(35-6-5-32)20(34)19(16)33/h3-4,8,12,15-17,19-20,32-34H,2,5-7,9-10H2,1H3,(H,26,27,28)

> <Parent_SMILES>
CCCSc1nc(N[C@@H]2C[C@H]2c2ccc(F)c(F)c2)c2nnn([C@@H]3C[C@H](OCCO)[C@@H](O)[C@H]3O)c2n1

$$$$
Molecule 20_metabolite 36
  CDK     0516241031

 65 69  0  0  0  0  0  0  0  0999 V2000
   -7.9700   -0.6980    0.0000 C   0  0  0  0  0  0  0  0  0  0  0  0
   -9.2655   -1.4541    0.0000 H   0  0  0  0  0  0  0  0  0  0  0  0
   -7.0112    0.4555    0.0000 H   0  0  0  0  0  0  0  0  0  0  0  0
   -8.9396    0.4465    0.0000 H   0  0  0  0  0  0  0  0  0  0  0  0
   -6.6674   -1.4419    0.0000 C   0  0  0  0  0  0  0  0  0  0  0  0
   -7.6262   -2.5955    0.0000 H   0  0  0  0  0  0  0  0  0  0  0  0
   -5.6979   -2.5865    0.0000 H   0  0  0  0  0  0  0  0  0  0  0  0
   -5.3719   -0.6858    0.0000 C   0  0  0  0  0  0  0  0  0  0  0  0
   -3.8960   -0.4184    0.0000 H   0  0  0  0  0  0  0  0  0  0  0  0
   -4.8523   -2.0930    0.0000 H   0  0  0  0  0  0  0  0  0  0  0  0
   -5.3790    0.8141    0.0000 S   0  0  0  0  0  0  0  0  0  0  0  0
   -4.0835    1.5702    0.0000 C   0  0  0  0  0  0  0  0  0  0  0  0
   -4.0835    3.0748    0.0000 N   0  0  0  0  0  0  0  0  0  0  0  0
   -2.8096    3.8253    0.0000 C   0  0  0  0  0  0  0  0  0  0  0  0
   -1.4949    3.0826    0.0000 C   0  0  0  0  0  0  0  0  0  0  0  0
   -1.4975    1.6140    0.0000 C   0  0  0  0  0  0  0  0  0  0  0  0
   -2.7687    0.8276    0.0000 N   0  0  0  0  0  0  0  0  0  0  0  0
   -0.1879    0.8827    0.0000 N   0  0  0  0  0  0  0  0  0  0  0  0
   -0.1664   -0.6171    0.0000 H   0  0  0  0  0  0  0  0  0  0  0  0
    1.1003    1.6512    0.0000 C   0  0  2  0  0  0  0  0  0  0  0  0
    0.5670    3.0532    0.0000 H   0  0  0  0  0  0  0  0  0  0  0  0
    2.0812    0.5154    0.0000 C   0  0  0  0  0  0  0  0  0  0  0  0
    3.3911   -0.2155    0.0000 H   0  0  0  0  0  0  0  0  0  0  0  0
    1.1337   -0.6475    0.0000 H   0  0  0  0  0  0  0  0  0  0  0  0
    2.5735    1.9332    0.0000 C   0  0  1  0  0  0  0  0  0  0  0  0
    2.5516    3.4330    0.0000 H   0  0  0  0  0  0  0  0  0  0  0  0
    4.5283    1.6181    0.0000 C   0  0  0  0  0  0  0  0  0  0  0  0
    5.0626    0.2156    0.0000 C   0  0  0  0  0  0  0  0  0  0  0  0
    6.5442   -0.0239    0.0000 C   0  0  0  0  0  0  0  0  0  0  0  0
    7.0775   -1.4259    0.0000 H   0  0  0  0  0  0  0  0  0  0  0  0
    7.4915    1.1391    0.0000 C   0  0  0  0  0  0  0  0  0  0  0  0
    6.9572    2.5416    0.0000 C   0  0  0  0  0  0  0  0  0  0  0  0
    5.4756    2.7811    0.0000 C   0  0  0  0  0  0  0  0  0  0  0  0
    4.9423    4.1831    0.0000 H   0  0  0  0  0  0  0  0  0  0  0  0
    7.9046    3.7046    0.0000 F   0  0  0  0  0  0  0  0  0  0  0  0
    8.9724    0.9004    0.0000 F   0  0  0  0  0  0  0  0  0  0  0  0
    4.1153   -0.9474    0.0000 O   0  0  0  0  0  0  0  0  0  0  0  0
    4.6488   -2.3493    0.0000 H   0  0  0  0  0  0  0  0  0  0  0  0
   -0.4047    4.0977    0.0000 N   0  0  0  0  0  0  0  0  0  0  0  0
   -1.0341    5.4639    0.0000 N   0  0  0  0  0  0  0  0  0  0  0  0
   -2.5204    5.2929    0.0000 N   0  0  0  0  0  0  0  0  0  0  0  0
   -3.5378    6.3951    0.0000 C   0  0  2  0  0  0  0  0  0  0  0  0
   -4.5251    5.2658    0.0000 H   0  0  0  0  0  0  0  0  0  0  0  0
   -4.7678    7.2573    0.0000 C   0  0  0  0  0  0  0  0  0  0  0  0
   -5.5009    5.9487    0.0000 H   0  0  0  0  0  0  0  0  0  0  0  0
   -6.1436    7.8550    0.0000 H   0  0  0  0  0  0  0  0  0  0  0  0
   -4.3110    8.6883    0.0000 C   0  0  1  0  0  0  0  0  0  0  0  0
   -5.7805    8.9893    0.0000 H   0  0  0  0  0  0  0  0  0  0  0  0
   -2.8184    8.7060    0.0000 C   0  0  2  0  0  0  0  0  0  0  0  0
   -2.9925   10.1959    0.0000 H   0  0  0  0  0  0  0  0  0  0  0  0
   -2.3392    7.2846    0.0000 C   0  0  1  0  0  0  0  0  0  0  0  0
   -0.9755    7.9094    0.0000 H   0  0  0  0  0  0  0  0  0  0  0  0
   -1.5757    5.9935    0.0000 O   0  0  0  0  0  0  0  0  0  0  0  0
   -0.0758    6.0091    0.0000 H   0  0  0  0  0  0  0  0  0  0  0  0
   -1.3548    9.0344    0.0000 O   0  0  0  0  0  0  0  0  0  0  0  0
   -0.9075   10.4662    0.0000 H   0  0  0  0  0  0  0  0  0  0  0  0
   -4.1686   10.1815    0.0000 O   0  0  0  0  0  0  0  0  0  0  0  0
   -5.3905   11.0514    0.0000 C   0  0  0  0  0  0  0  0  0  0  0  0
   -6.0351    9.6969    0.0000 H   0  0  0  0  0  0  0  0  0  0  0  0
   -6.8364   11.4509    0.0000 H   0  0  0  0  0  0  0  0  0  0  0  0
   -5.2481   12.5446    0.0000 C   0  0  0  0  0  0  0  0  0  0  0  0
   -4.6036   13.8991    0.0000 H   0  0  0  0  0  0  0  0  0  0  0  0
   -3.8023   12.1451    0.0000 H   0  0  0  0  0  0  0  0  0  0  0  0
   -6.4701   13.4146    0.0000 O   0  0  0  0  0  0  0  0  0  0  0  0
   -6.3277   14.9078    0.0000 H   0  0  0  0  0  0  0  0  0  0  0  0
  1  2  1  0  0  0  0 
  1  3  1  0  0  0  0 
  1  4  1  0  0  0  0 
  1  5  1  0  0  0  0 
  5  6  1  0  0  0  0 
  5  7  1  0  0  0  0 
  5  8  1  0  0  0  0 
  8  9  1  0  0  0  0 
  8 10  1  0  0  0  0 
  8 11  1  0  0  0  0 
 11 12  1  0  0  0  0 
 12 13  2  0  0  0  0 
 13 14  1  0  0  0  0 
 14 15  2  0  0  0  0 
 15 16  1  0  0  0  0 
 16 17  2  0  0  0  0 
 12 17  1  0  0  0  0 
 16 18  1  0  0  0  0 
 18 19  1  0  0  0  0 
 20 18  1  1  0  0  0 
 20 21  1  6  0  0  0 
 20 22  1  0  0  0  0 
 22 23  1  0  0  0  0 
 22 24  1  0  0  0  0 
 22 25  1  0  0  0  0 
 20 25  1  0  0  0  0 
 25 26  1  1  0  0  0 
 25 27  1  6  0  0  0 
 27 28  2  0  0  0  0 
 28 29  1  0  0  0  0 
 29 30  1  0  0  0  0 
 29 31  2  0  0  0  0 
 31 32  1  0  0  0  0 
 32 33  2  0  0  0  0 
 27 33  1  0  0  0  0 
 33 34  1  0  0  0  0 
 32 35  1  0  0  0  0 
 31 36  1  0  0  0  0 
 28 37  1  0  0  0  0 
 37 38  1  0  0  0  0 
 15 39  1  0  0  0  0 
 39 40  2  0  0  0  0 
 40 41  1  0  0  0  0 
 14 41  1  0  0  0  0 
 42 41  1  6  0  0  0 
 42 43  1  1  0  0  0 
 42 44  1  0  0  0  0 
 44 45  1  0  0  0  0 
 44 46  1  0  0  0  0 
 44 47  1  0  0  0  0 
 47 48  1  1  0  0  0 
 47 49  1  0  0  0  0 
 49 50  1  6  0  0  0 
 49 51  1  0  0  0  0 
 42 51  1  0  0  0  0 
 51 52  1  6  0  0  0 
 51 53  1  1  0  0  0 
 53 54  1  0  0  0  0 
 49 55  1  1  0  0  0 
 55 56  1  0  0  0  0 
 47 57  1  6  0  0  0 
 57 58  1  0  0  0  0 
 58 59  1  0  0  0  0 
 58 60  1  0  0  0  0 
 58 61  1  0  0  0  0 
 61 62  1  0  0  0  0 
 61 63  1  0  0  0  0 
 61 64  1  0  0  0  0 
 64 65  1  0  0  0  0 
M  END
> <Rank>
36

> <Priority_score>
0.05031864405943616

> <Reaction_type>
aromatic hydroxylation

> <Parent_ID>
20

> <Parent_InChI>
InChI=1S/C23H28F2N6O4S/c1-2-7-36-23-27-21(26-15-9-12(15)11-3-4-13(24)14(25)8-11)18-22(28-23)31(30-29-18)16-10-17(35-6-5-32)20(34)19(16)33/h3-4,8,12,15-17,19-20,32-34H,2,5-7,9-10H2,1H3,(H,26,27,28)

> <Parent_SMILES>
CCCSc1nc(N[C@@H]2C[C@H]2c2ccc(F)c(F)c2)c2nnn([C@@H]3C[C@H](OCCO)[C@@H](O)[C@H]3O)c2n1

$$$$
Molecule 20_metabolite 37
  CDK     0516241031

 65 69  0  0  0  0  0  0  0  0999 V2000
   -7.9700   -0.6980    0.0000 C   0  0  0  0  0  0  0  0  0  0  0  0
   -9.2655   -1.4541    0.0000 H   0  0  0  0  0  0  0  0  0  0  0  0
   -7.0112    0.4555    0.0000 H   0  0  0  0  0  0  0  0  0  0  0  0
   -8.9396    0.4465    0.0000 H   0  0  0  0  0  0  0  0  0  0  0  0
   -6.6674   -1.4419    0.0000 C   0  0  0  0  0  0  0  0  0  0  0  0
   -7.6262   -2.5955    0.0000 H   0  0  0  0  0  0  0  0  0  0  0  0
   -5.6979   -2.5865    0.0000 H   0  0  0  0  0  0  0  0  0  0  0  0
   -5.3719   -0.6858    0.0000 C   0  0  0  0  0  0  0  0  0  0  0  0
   -3.8960   -0.4184    0.0000 H   0  0  0  0  0  0  0  0  0  0  0  0
   -4.8523   -2.0930    0.0000 H   0  0  0  0  0  0  0  0  0  0  0  0
   -5.3790    0.8141    0.0000 S   0  0  0  0  0  0  0  0  0  0  0  0
   -4.0835    1.5702    0.0000 C   0  0  0  0  0  0  0  0  0  0  0  0
   -4.0835    3.0748    0.0000 N   0  0  0  0  0  0  0  0  0  0  0  0
   -2.8096    3.8253    0.0000 C   0  0  0  0  0  0  0  0  0  0  0  0
   -1.4949    3.0826    0.0000 C   0  0  0  0  0  0  0  0  0  0  0  0
   -1.4975    1.6140    0.0000 C   0  0  0  0  0  0  0  0  0  0  0  0
   -2.7687    0.8276    0.0000 N   0  0  0  0  0  0  0  0  0  0  0  0
   -0.1879    0.8827    0.0000 N   0  0  0  0  0  0  0  0  0  0  0  0
   -0.1664   -0.6171    0.0000 H   0  0  0  0  0  0  0  0  0  0  0  0
    1.1003    1.6512    0.0000 C   0  0  2  0  0  0  0  0  0  0  0  0
    0.5670    3.0532    0.0000 H   0  0  0  0  0  0  0  0  0  0  0  0
    2.0812    0.5154    0.0000 C   0  0  0  0  0  0  0  0  0  0  0  0
    3.3911   -0.2155    0.0000 H   0  0  0  0  0  0  0  0  0  0  0  0
    1.1337   -0.6475    0.0000 H   0  0  0  0  0  0  0  0  0  0  0  0
    2.5735    1.9332    0.0000 C   0  0  1  0  0  0  0  0  0  0  0  0
    2.5516    3.4330    0.0000 H   0  0  0  0  0  0  0  0  0  0  0  0
    4.5283    1.6181    0.0000 C   0  0  0  0  0  0  0  0  0  0  0  0
    5.0626    0.2156    0.0000 C   0  0  0  0  0  0  0  0  0  0  0  0
    4.1153   -0.9474    0.0000 H   0  0  0  0  0  0  0  0  0  0  0  0
    6.5442   -0.0239    0.0000 C   0  0  0  0  0  0  0  0  0  0  0  0
    7.0775   -1.4259    0.0000 H   0  0  0  0  0  0  0  0  0  0  0  0
    7.4915    1.1391    0.0000 C   0  0  0  0  0  0  0  0  0  0  0  0
    6.9572    2.5416    0.0000 C   0  0  0  0  0  0  0  0  0  0  0  0
    5.4756    2.7811    0.0000 C   0  0  0  0  0  0  0  0  0  0  0  0
    4.9423    4.1831    0.0000 O   0  0  0  0  0  0  0  0  0  0  0  0
    5.8898    5.3460    0.0000 H   0  0  0  0  0  0  0  0  0  0  0  0
    7.9046    3.7046    0.0000 F   0  0  0  0  0  0  0  0  0  0  0  0
    8.9724    0.9004    0.0000 F   0  0  0  0  0  0  0  0  0  0  0  0
   -0.4047    4.0977    0.0000 N   0  0  0  0  0  0  0  0  0  0  0  0
   -1.0341    5.4639    0.0000 N   0  0  0  0  0  0  0  0  0  0  0  0
   -2.5204    5.2929    0.0000 N   0  0  0  0  0  0  0  0  0  0  0  0
   -3.5378    6.3951    0.0000 C   0  0  2  0  0  0  0  0  0  0  0  0
   -4.5251    5.2658    0.0000 H   0  0  0  0  0  0  0  0  0  0  0  0
   -4.7678    7.2573    0.0000 C   0  0  0  0  0  0  0  0  0  0  0  0
   -5.5009    5.9487    0.0000 H   0  0  0  0  0  0  0  0  0  0  0  0
   -6.1436    7.8550    0.0000 H   0  0  0  0  0  0  0  0  0  0  0  0
   -4.3110    8.6883    0.0000 C   0  0  1  0  0  0  0  0  0  0  0  0
   -5.7805    8.9893    0.0000 H   0  0  0  0  0  0  0  0  0  0  0  0
   -2.8184    8.7060    0.0000 C   0  0  2  0  0  0  0  0  0  0  0  0
   -2.9925   10.1959    0.0000 H   0  0  0  0  0  0  0  0  0  0  0  0
   -2.3392    7.2846    0.0000 C   0  0  1  0  0  0  0  0  0  0  0  0
   -0.9755    7.9094    0.0000 H   0  0  0  0  0  0  0  0  0  0  0  0
   -1.5757    5.9935    0.0000 O   0  0  0  0  0  0  0  0  0  0  0  0
   -0.0758    6.0091    0.0000 H   0  0  0  0  0  0  0  0  0  0  0  0
   -1.3548    9.0344    0.0000 O   0  0  0  0  0  0  0  0  0  0  0  0
   -0.9075   10.4662    0.0000 H   0  0  0  0  0  0  0  0  0  0  0  0
   -4.1686   10.1815    0.0000 O   0  0  0  0  0  0  0  0  0  0  0  0
   -5.3905   11.0514    0.0000 C   0  0  0  0  0  0  0  0  0  0  0  0
   -6.0351    9.6969    0.0000 H   0  0  0  0  0  0  0  0  0  0  0  0
   -6.8364   11.4509    0.0000 H   0  0  0  0  0  0  0  0  0  0  0  0
   -5.2481   12.5446    0.0000 C   0  0  0  0  0  0  0  0  0  0  0  0
   -4.6036   13.8991    0.0000 H   0  0  0  0  0  0  0  0  0  0  0  0
   -3.8023   12.1451    0.0000 H   0  0  0  0  0  0  0  0  0  0  0  0
   -6.4701   13.4146    0.0000 O   0  0  0  0  0  0  0  0  0  0  0  0
   -6.3277   14.9078    0.0000 H   0  0  0  0  0  0  0  0  0  0  0  0
  1  2  1  0  0  0  0 
  1  3  1  0  0  0  0 
  1  4  1  0  0  0  0 
  1  5  1  0  0  0  0 
  5  6  1  0  0  0  0 
  5  7  1  0  0  0  0 
  5  8  1  0  0  0  0 
  8  9  1  0  0  0  0 
  8 10  1  0  0  0  0 
  8 11  1  0  0  0  0 
 11 12  1  0  0  0  0 
 12 13  2  0  0  0  0 
 13 14  1  0  0  0  0 
 14 15  2  0  0  0  0 
 15 16  1  0  0  0  0 
 16 17  2  0  0  0  0 
 12 17  1  0  0  0  0 
 16 18  1  0  0  0  0 
 18 19  1  0  0  0  0 
 20 18  1  1  0  0  0 
 20 21  1  6  0  0  0 
 20 22  1  0  0  0  0 
 22 23  1  0  0  0  0 
 22 24  1  0  0  0  0 
 22 25  1  0  0  0  0 
 20 25  1  0  0  0  0 
 25 26  1  1  0  0  0 
 25 27  1  6  0  0  0 
 27 28  2  0  0  0  0 
 28 29  1  0  0  0  0 
 28 30  1  0  0  0  0 
 30 31  1  0  0  0  0 
 30 32  2  0  0  0  0 
 32 33  1  0  0  0  0 
 33 34  2  0  0  0  0 
 27 34  1  0  0  0  0 
 34 35  1  0  0  0  0 
 35 36  1  0  0  0  0 
 33 37  1  0  0  0  0 
 32 38  1  0  0  0  0 
 15 39  1  0  0  0  0 
 39 40  2  0  0  0  0 
 40 41  1  0  0  0  0 
 14 41  1  0  0  0  0 
 42 41  1  6  0  0  0 
 42 43  1  1  0  0  0 
 42 44  1  0  0  0  0 
 44 45  1  0  0  0  0 
 44 46  1  0  0  0  0 
 44 47  1  0  0  0  0 
 47 48  1  1  0  0  0 
 47 49  1  0  0  0  0 
 49 50  1  6  0  0  0 
 49 51  1  0  0  0  0 
 42 51  1  0  0  0  0 
 51 52  1  6  0  0  0 
 51 53  1  1  0  0  0 
 53 54  1  0  0  0  0 
 49 55  1  1  0  0  0 
 55 56  1  0  0  0  0 
 47 57  1  6  0  0  0 
 57 58  1  0  0  0  0 
 58 59  1  0  0  0  0 
 58 60  1  0  0  0  0 
 58 61  1  0  0  0  0 
 61 62  1  0  0  0  0 
 61 63  1  0  0  0  0 
 61 64  1  0  0  0  0 
 64 65  1  0  0  0  0 
M  END
> <Rank>
36

> <Priority_score>
0.05031864405943616

> <Reaction_type>
aromatic hydroxylation

> <Parent_ID>
20

> <Parent_InChI>
InChI=1S/C23H28F2N6O4S/c1-2-7-36-23-27-21(26-15-9-12(15)11-3-4-13(24)14(25)8-11)18-22(28-23)31(30-29-18)16-10-17(35-6-5-32)20(34)19(16)33/h3-4,8,12,15-17,19-20,32-34H,2,5-7,9-10H2,1H3,(H,26,27,28)

> <Parent_SMILES>
CCCSc1nc(N[C@@H]2C[C@H]2c2ccc(F)c(F)c2)c2nnn([C@@H]3C[C@H](OCCO)[C@@H](O)[C@H]3O)c2n1

$$$$
Molecule 20_metabolite 38
  CDK     0516241031

 65 69  0  0  0  0  0  0  0  0999 V2000
   -7.6627   -1.2246    0.0000 C   0  0  0  0  0  0  0  0  0  0  0  0
   -7.6697    0.2754    0.0000 H   0  0  0  0  0  0  0  0  0  0  0  0
   -8.1691   -2.6365    0.0000 H   0  0  0  0  0  0  0  0  0  0  0  0
   -9.1411   -0.9711    0.0000 H   0  0  0  0  0  0  0  0  0  0  0  0
   -6.3601   -1.9685    0.0000 C   0  0  0  0  0  0  0  0  0  0  0  0
   -7.3189   -3.1221    0.0000 H   0  0  0  0  0  0  0  0  0  0  0  0
   -5.3906   -3.1130    0.0000 H   0  0  0  0  0  0  0  0  0  0  0  0
   -5.0646   -1.2124    0.0000 C   0  0  0  0  0  0  0  0  0  0  0  0
   -4.1059   -0.0588    0.0000 H   0  0  0  0  0  0  0  0  0  0  0  0
   -6.0342   -0.0679    0.0000 H   0  0  0  0  0  0  0  0  0  0  0  0
   -3.7621   -1.9563    0.0000 S   0  0  0  0  0  0  0  0  0  0  0  0
   -2.4666   -1.2002    0.0000 C   0  0  0  0  0  0  0  0  0  0  0  0
   -1.1566   -1.9402    0.0000 N   0  0  0  0  0  0  0  0  0  0  0  0
    0.1234   -1.2002    0.0000 C   0  0  0  0  0  0  0  0  0  0  0  0
    0.1234    0.3098    0.0000 C   0  0  0  0  0  0  0  0  0  0  0  0
   -1.1566    1.0298    0.0000 C   0  0  0  0  0  0  0  0  0  0  0  0
   -2.4666    0.3098    0.0000 N   0  0  0  0  0  0  0  0  0  0  0  0
   -1.1492    2.5298    0.0000 N   0  0  0  0  0  0  0  0  0  0  0  0
   -2.4445    3.2862    0.0000 H   0  0  0  0  0  0  0  0  0  0  0  0
    0.1535    3.2734    0.0000 C   0  0  2  0  0  0  0  0  0  0  0  0
    1.1119    2.1195    0.0000 H   0  0  0  0  0  0  0  0  0  0  0  0
   -0.3530    4.6862    0.0000 C   0  0  0  0  0  0  0  0  0  0  0  0
   -0.3451    6.1862    0.0000 H   0  0  0  0  0  0  0  0  0  0  0  0
   -1.8315    4.4331    0.0000 H   0  0  0  0  0  0  0  0  0  0  0  0
    1.1236    4.4175    0.0000 C   0  0  1  0  0  0  0  0  0  0  0  0
    2.4187    3.6607    0.0000 H   0  0  0  0  0  0  0  0  0  0  0  0
    1.8107    6.2745    0.0000 C   0  0  0  0  0  0  0  0  0  0  0  0
    0.8523    7.4295    0.0000 C   0  0  0  0  0  0  0  0  0  0  0  0
   -0.6262    7.1767    0.0000 H   0  0  0  0  0  0  0  0  0  0  0  0
    1.3725    8.8373    0.0000 C   0  0  0  0  0  0  0  0  0  0  0  0
    0.4141    9.9912    0.0000 H   0  0  0  0  0  0  0  0  0  0  0  0
    2.8511    9.0901    0.0000 C   0  0  0  0  0  0  0  0  0  0  0  0
    3.8094    7.9351    0.0000 C   0  0  0  0  0  0  0  0  0  0  0  0
    3.2893    6.5273    0.0000 C   0  0  0  0  0  0  0  0  0  0  0  0
    4.2477    5.3734    0.0000 H   0  0  0  0  0  0  0  0  0  0  0  0
    5.2880    8.1879    0.0000 F   0  0  0  0  0  0  0  0  0  0  0  0
    3.3716   10.4969    0.0000 F   0  0  0  0  0  0  0  0  0  0  0  0
    1.5434    0.7598    0.0000 N   0  0  0  0  0  0  0  0  0  0  0  0
    2.4234   -0.4602    0.0000 N   0  0  0  0  0  0  0  0  0  0  0  0
    1.5434   -1.6702    0.0000 N   0  0  0  0  0  0  0  0  0  0  0  0
    2.0027   -3.0981    0.0000 C   0  0  2  0  0  0  0  0  0  0  0  0
    0.5339   -3.4023    0.0000 H   0  0  0  0  0  0  0  0  0  0  0  0
    2.1485   -4.5931    0.0000 C   0  0  0  0  0  0  0  0  0  0  0  0
    0.6485   -4.5877    0.0000 H   0  0  0  0  0  0  0  0  0  0  0  0
    1.9923   -6.0849    0.0000 H   0  0  0  0  0  0  0  0  0  0  0  0
    3.6191   -4.8991    0.0000 C   0  0  1  0  0  0  0  0  0  0  0  0
    3.1584   -6.3267    0.0000 H   0  0  0  0  0  0  0  0  0  0  0  0
    4.3686   -3.6083    0.0000 C   0  0  2  0  0  0  0  0  0  0  0  0
    5.5802   -4.4927    0.0000 H   0  0  0  0  0  0  0  0  0  0  0  0
    3.3667   -2.4920    0.0000 C   0  0  1  0  0  0  0  0  0  0  0  0
    4.5814   -1.6119    0.0000 H   0  0  0  0  0  0  0  0  0  0  0  0
    2.6181   -1.1922    0.0000 O   0  0  0  0  0  0  0  0  0  0  0  0
    3.3694    0.1061    0.0000 H   0  0  0  0  0  0  0  0  0  0  0  0
    5.3745   -2.4955    0.0000 O   0  0  0  0  0  0  0  0  0  0  0  0
    6.8411   -2.8102    0.0000 H   0  0  0  0  0  0  0  0  0  0  0  0
    4.9893   -5.5096    0.0000 O   0  0  0  0  0  0  0  0  0  0  0  0
    5.1457   -7.0014    0.0000 C   0  0  0  0  0  0  0  0  0  0  0  0
    3.6494   -6.8964    0.0000 H   0  0  0  0  0  0  0  0  0  0  0  0
    4.7824   -8.4568    0.0000 H   0  0  0  0  0  0  0  0  0  0  0  0
    6.5159   -7.6119    0.0000 C   0  0  0  0  0  0  0  0  0  0  0  0
    8.0122   -7.7169    0.0000 H   0  0  0  0  0  0  0  0  0  0  0  0
    6.8791   -6.1565    0.0000 H   0  0  0  0  0  0  0  0  0  0  0  0
    6.6723   -9.1037    0.0000 O   0  0  0  0  0  0  0  0  0  0  0  0
    8.0424   -9.7141    0.0000 H   0  0  0  0  0  0  0  0  0  0  0  0
   -1.1491   -3.4401    0.0000 O   0  0  0  0  0  0  0  0  0  0  0  0
  1  2  1  0  0  0  0 
  1  3  1  0  0  0  0 
  1  4  1  0  0  0  0 
  1  5  1  0  0  0  0 
  5  6  1  0  0  0  0 
  5  7  1  0  0  0  0 
  5  8  1  0  0  0  0 
  8  9  1  0  0  0  0 
  8 10  1  0  0  0  0 
  8 11  1  0  0  0  0 
 11 12  1  0  0  0  0 
 12 13  2  0  0  0  0 
 13 14  1  0  0  0  0 
 14 15  2  0  0  0  0 
 15 16  1  0  0  0  0 
 16 17  2  0  0  0  0 
 12 17  1  0  0  0  0 
 16 18  1  0  0  0  0 
 18 19  1  0  0  0  0 
 20 18  1  6  0  0  0 
 20 21  1  1  0  0  0 
 20 22  1  0  0  0  0 
 22 23  1  0  0  0  0 
 22 24  1  0  0  0  0 
 22 25  1  0  0  0  0 
 20 25  1  0  0  0  0 
 25 26  1  6  0  0  0 
 25 27  1  1  0  0  0 
 27 28  2  0  0  0  0 
 28 29  1  0  0  0  0 
 28 30  1  0  0  0  0 
 30 31  1  0  0  0  0 
 30 32  2  0  0  0  0 
 32 33  1  0  0  0  0 
 33 34  2  0  0  0  0 
 27 34  1  0  0  0  0 
 34 35  1  0  0  0  0 
 33 36  1  0  0  0  0 
 32 37  1  0  0  0  0 
 15 38  1  0  0  0  0 
 38 39  2  0  0  0  0 
 39 40  1  0  0  0  0 
 14 40  1  0  0  0  0 
 41 40  1  1  0  0  0 
 41 42  1  6  0  0  0 
 41 43  1  0  0  0  0 
 43 44  1  0  0  0  0 
 43 45  1  0  0  0  0 
 43 46  1  0  0  0  0 
 46 47  1  6  0  0  0 
 46 48  1  0  0  0  0 
 48 49  1  1  0  0  0 
 48 50  1  0  0  0  0 
 41 50  1  0  0  0  0 
 50 51  1  1  0  0  0 
 50 52  1  6  0  0  0 
 52 53  1  0  0  0  0 
 48 54  1  6  0  0  0 
 54 55  1  0  0  0  0 
 46 56  1  1  0  0  0 
 56 57  1  0  0  0  0 
 57 58  1  0  0  0  0 
 57 59  1  0  0  0  0 
 57 60  1  0  0  0  0 
 60 61  1  0  0  0  0 
 60 62  1  0  0  0  0 
 60 63  1  0  0  0  0 
 63 64  1  0  0  0  0 
 13 65  1  0  0  0  0 
M  CHG  1  13   1
M  CHG  1  65  -1
M  END
> <Rank>
38

> <Priority_score>
0.047203371970495255

> <Reaction_type>
N-oxidation_(-N=)

> <Parent_ID>
20

> <Parent_InChI>
InChI=1S/C23H28F2N6O4S/c1-2-7-36-23-27-21(26-15-9-12(15)11-3-4-13(24)14(25)8-11)18-22(28-23)31(30-29-18)16-10-17(35-6-5-32)20(34)19(16)33/h3-4,8,12,15-17,19-20,32-34H,2,5-7,9-10H2,1H3,(H,26,27,28)

> <Parent_SMILES>
CCCSc1nc(N[C@@H]2C[C@H]2c2ccc(F)c(F)c2)c2nnn([C@@H]3C[C@H](OCCO)[C@@H](O)[C@H]3O)c2n1

$$$$
Molecule 20_metabolite 39
  CDK     0516241031

 41 44  0  0  0  0  0  0  0  0999 V2000
   -7.9700   -0.6980    0.0000 C   0  0  0  0  0  0  0  0  0  0  0  0
   -9.2655   -1.4541    0.0000 H   0  0  0  0  0  0  0  0  0  0  0  0
   -7.0112    0.4555    0.0000 H   0  0  0  0  0  0  0  0  0  0  0  0
   -8.9396    0.4465    0.0000 H   0  0  0  0  0  0  0  0  0  0  0  0
   -6.6674   -1.4419    0.0000 C   0  0  0  0  0  0  0  0  0  0  0  0
   -7.6262   -2.5955    0.0000 H   0  0  0  0  0  0  0  0  0  0  0  0
   -5.6979   -2.5865    0.0000 H   0  0  0  0  0  0  0  0  0  0  0  0
   -5.3719   -0.6858    0.0000 C   0  0  0  0  0  0  0  0  0  0  0  0
   -3.8960   -0.4184    0.0000 H   0  0  0  0  0  0  0  0  0  0  0  0
   -4.8523   -2.0930    0.0000 H   0  0  0  0  0  0  0  0  0  0  0  0
   -5.3790    0.8141    0.0000 S   0  0  0  0  0  0  0  0  0  0  0  0
   -4.0835    1.5702    0.0000 C   0  0  0  0  0  0  0  0  0  0  0  0
   -4.0835    3.0748    0.0000 N   0  0  0  0  0  0  0  0  0  0  0  0
   -2.8096    3.8253    0.0000 C   0  0  0  0  0  0  0  0  0  0  0  0
   -1.4949    3.0826    0.0000 C   0  0  0  0  0  0  0  0  0  0  0  0
   -1.4975    1.6140    0.0000 C   0  0  0  0  0  0  0  0  0  0  0  0
   -2.7687    0.8276    0.0000 N   0  0  0  0  0  0  0  0  0  0  0  0
   -0.1879    0.8827    0.0000 N   0  0  0  0  0  0  0  0  0  0  0  0
   -0.1664   -0.6171    0.0000 H   0  0  0  0  0  0  0  0  0  0  0  0
    1.1003    1.6512    0.0000 C   0  0  2  0  0  0  0  0  0  0  0  0
    0.5670    3.0532    0.0000 H   0  0  0  0  0  0  0  0  0  0  0  0
    2.0812    0.5154    0.0000 C   0  0  0  0  0  0  0  0  0  0  0  0
    3.3911   -0.2155    0.0000 H   0  0  0  0  0  0  0  0  0  0  0  0
    1.1337   -0.6475    0.0000 H   0  0  0  0  0  0  0  0  0  0  0  0
    2.5735    1.9332    0.0000 C   0  0  1  0  0  0  0  0  0  0  0  0
    2.5516    3.4330    0.0000 H   0  0  0  0  0  0  0  0  0  0  0  0
    4.5283    1.6181    0.0000 C   0  0  0  0  0  0  0  0  0  0  0  0
    5.0626    0.2156    0.0000 C   0  0  0  0  0  0  0  0  0  0  0  0
    4.1153   -0.9474    0.0000 H   0  0  0  0  0  0  0  0  0  0  0  0
    6.5442   -0.0239    0.0000 C   0  0  0  0  0  0  0  0  0  0  0  0
    7.0775   -1.4259    0.0000 H   0  0  0  0  0  0  0  0  0  0  0  0
    7.4915    1.1391    0.0000 C   0  0  0  0  0  0  0  0  0  0  0  0
    6.9572    2.5416    0.0000 C   0  0  0  0  0  0  0  0  0  0  0  0
    5.4756    2.7811    0.0000 C   0  0  0  0  0  0  0  0  0  0  0  0
    4.9423    4.1831    0.0000 H   0  0  0  0  0  0  0  0  0  0  0  0
    7.9046    3.7046    0.0000 F   0  0  0  0  0  0  0  0  0  0  0  0
    8.9724    0.9004    0.0000 F   0  0  0  0  0  0  0  0  0  0  0  0
   -0.4047    4.0977    0.0000 N   0  0  0  0  0  0  0  0  0  0  0  0
   -1.0341    5.4639    0.0000 N   0  0  0  0  0  0  0  0  0  0  0  0
   -2.5204    5.2929    0.0000 N   0  0  0  0  0  0  0  0  0  0  0  0
   -3.5378    6.3951    0.0000 H   0  0  0  0  0  0  0  0  0  0  0  0
  1  2  1  0  0  0  0 
  1  3  1  0  0  0  0 
  1  4  1  0  0  0  0 
  1  5  1  0  0  0  0 
  5  6  1  0  0  0  0 
  5  7  1  0  0  0  0 
  5  8  1  0  0  0  0 
  8  9  1  0  0  0  0 
  8 10  1  0  0  0  0 
  8 11  1  0  0  0  0 
 11 12  1  0  0  0  0 
 12 13  2  0  0  0  0 
 13 14  1  0  0  0  0 
 14 15  2  0  0  0  0 
 15 16  1  0  0  0  0 
 16 17  2  0  0  0  0 
 12 17  1  0  0  0  0 
 16 18  1  0  0  0  0 
 18 19  1  0  0  0  0 
 20 18  1  1  0  0  0 
 20 21  1  6  0  0  0 
 20 22  1  0  0  0  0 
 22 23  1  0  0  0  0 
 22 24  1  0  0  0  0 
 22 25  1  0  0  0  0 
 20 25  1  0  0  0  0 
 25 26  1  1  0  0  0 
 25 27  1  6  0  0  0 
 27 28  2  0  0  0  0 
 28 29  1  0  0  0  0 
 28 30  1  0  0  0  0 
 30 31  1  0  0  0  0 
 30 32  2  0  0  0  0 
 32 33  1  0  0  0  0 
 33 34  2  0  0  0  0 
 27 34  1  0  0  0  0 
 34 35  1  0  0  0  0 
 33 36  1  0  0  0  0 
 32 37  1  0  0  0  0 
 15 38  1  0  0  0  0 
 38 39  2  0  0  0  0 
 39 40  1  0  0  0  0 
 14 40  1  0  0  0  0 
 40 41  1  0  0  0  0 
M  END
> <Rank>
39

> <Priority_score>
0.044

> <Reaction_type>
N-dealkylation

> <Parent_ID>
20

> <Parent_InChI>
InChI=1S/C23H28F2N6O4S/c1-2-7-36-23-27-21(26-15-9-12(15)11-3-4-13(24)14(25)8-11)18-22(28-23)31(30-29-18)16-10-17(35-6-5-32)20(34)19(16)33/h3-4,8,12,15-17,19-20,32-34H,2,5-7,9-10H2,1H3,(H,26,27,28)

> <Parent_SMILES>
CCCSc1nc(N[C@@H]2C[C@H]2c2ccc(F)c(F)c2)c2nnn([C@@H]3C[C@H](OCCO)[C@@H](O)[C@H]3O)c2n1

$$$$
Molecule 20_metabolite 40
  CDK     0516241031

 24 24  0  0  0  0  0  0  0  0999 V2000
    0.0203    0.3217    0.0000 C   0  0  0  0  0  0  0  0  0  0  0  0
    1.3694    0.9774    0.0000 H   0  0  0  0  0  0  0  0  0  0  0  0
   -0.3912    1.7642    0.0000 H   0  0  0  0  0  0  0  0  0  0  0  0
    0.9004   -0.8930    0.0000 C   0  0  0  0  0  0  0  0  0  0  0  0
   -0.4487   -1.5487    0.0000 H   0  0  0  0  0  0  0  0  0  0  0  0
    1.3118   -2.3355    0.0000 H   0  0  0  0  0  0  0  0  0  0  0  0
    2.3923   -0.7383    0.0000 O   0  0  0  0  0  0  0  0  0  0  0  0
    3.2724   -1.9530    0.0000 C   0  0  1  0  0  0  0  0  0  0  0  0
    1.9706   -2.6983    0.0000 H   0  0  0  0  0  0  0  0  0  0  0  0
    3.8753   -3.3288    0.0000 C   0  0  0  0  0  0  0  0  0  0  0  0
    2.4478   -3.7895    0.0000 H   0  0  0  0  0  0  0  0  0  0  0  0
    4.1900   -4.7954    0.0000 H   0  0  0  0  0  0  0  0  0  0  0  0
    5.3681   -3.1630    0.0000 C   0  0  0  0  0  0  0  0  0  0  0  0
    6.3746   -4.2752    0.0000 O   0  0  0  0  0  0  0  0  0  0  0  0
    5.6798   -1.7032    0.0000 C   0  0  1  0  0  0  0  0  0  0  0  0
    7.1061   -2.1676    0.0000 H   0  0  0  0  0  0  0  0  0  0  0  0
    4.3807   -0.9532    0.0000 C   0  0  2  0  0  0  0  0  0  0  0  0
    5.2621    0.2605    0.0000 H   0  0  0  0  0  0  0  0  0  0  0  0
    3.2654    0.0498    0.0000 O   0  0  0  0  0  0  0  0  0  0  0  0
    3.5764    1.5172    0.0000 H   0  0  0  0  0  0  0  0  0  0  0  0
    6.2903   -0.3331    0.0000 O   0  0  0  0  0  0  0  0  0  0  0  0
    7.7821   -0.1768    0.0000 H   0  0  0  0  0  0  0  0  0  0  0  0
   -1.4717    0.1669    0.0000 O   0  0  0  0  0  0  0  0  0  0  0  0
   -2.3517    1.3817    0.0000 H   0  0  0  0  0  0  0  0  0  0  0  0
  1  2  1  0  0  0  0 
  1  3  1  0  0  0  0 
  1  4  1  0  0  0  0 
  4  5  1  0  0  0  0 
  4  6  1  0  0  0  0 
  4  7  1  0  0  0  0 
  8  7  1  6  0  0  0 
  8  9  1  1  0  0  0 
  8 10  1  0  0  0  0 
 10 11  1  0  0  0  0 
 10 12  1  0  0  0  0 
 10 13  1  0  0  0  0 
 13 14  2  0  0  0  0 
 13 15  1  0  0  0  0 
 15 16  1  6  0  0  0 
 15 17  1  0  0  0  0 
  8 17  1  0  0  0  0 
 17 18  1  6  0  0  0 
 17 19  1  1  0  0  0 
 19 20  1  0  0  0  0 
 15 21  1  1  0  0  0 
 21 22  1  0  0  0  0 
  1 23  1  0  0  0  0 
 23 24  1  0  0  0  0 
M  END
> <Rank>
39

> <Priority_score>
0.044

> <Reaction_type>
N-dealkylation

> <Parent_ID>
20

> <Parent_InChI>
InChI=1S/C23H28F2N6O4S/c1-2-7-36-23-27-21(26-15-9-12(15)11-3-4-13(24)14(25)8-11)18-22(28-23)31(30-29-18)16-10-17(35-6-5-32)20(34)19(16)33/h3-4,8,12,15-17,19-20,32-34H,2,5-7,9-10H2,1H3,(H,26,27,28)

> <Parent_SMILES>
CCCSc1nc(N[C@@H]2C[C@H]2c2ccc(F)c(F)c2)c2nnn([C@@H]3C[C@H](OCCO)[C@@H](O)[C@H]3O)c2n1

$$$$
Molecule 20_metabolite 41
  CDK     0516241031

 65 69  0  0  0  0  0  0  0  0999 V2000
   -9.0089   -0.9712    0.0000 C   0  0  0  0  0  0  0  0  0  0  0  0
   -9.0159    0.5287    0.0000 H   0  0  0  0  0  0  0  0  0  0  0  0
   -9.5153   -2.3832    0.0000 H   0  0  0  0  0  0  0  0  0  0  0  0
  -10.4873   -0.7177    0.0000 H   0  0  0  0  0  0  0  0  0  0  0  0
   -7.7063   -1.7151    0.0000 C   0  0  0  0  0  0  0  0  0  0  0  0
   -8.6651   -2.8687    0.0000 H   0  0  0  0  0  0  0  0  0  0  0  0
   -6.7368   -2.8596    0.0000 H   0  0  0  0  0  0  0  0  0  0  0  0
   -6.4108   -0.9590    0.0000 C   0  0  0  0  0  0  0  0  0  0  0  0
   -5.4521    0.1946    0.0000 H   0  0  0  0  0  0  0  0  0  0  0  0
   -7.3804    0.1855    0.0000 H   0  0  0  0  0  0  0  0  0  0  0  0
   -5.1083   -1.7029    0.0000 S   0  0  0  0  0  0  0  0  0  0  0  0
   -3.8128   -0.9468    0.0000 C   0  0  0  0  0  0  0  0  0  0  0  0
   -2.5028   -1.6868    0.0000 N   0  0  0  0  0  0  0  0  0  0  0  0
   -1.2228   -0.9468    0.0000 C   0  0  0  0  0  0  0  0  0  0  0  0
   -1.2228    0.5632    0.0000 C   0  0  0  0  0  0  0  0  0  0  0  0
   -2.5028    1.2832    0.0000 C   0  0  0  0  0  0  0  0  0  0  0  0
   -3.8128    0.5632    0.0000 N   0  0  0  0  0  0  0  0  0  0  0  0
   -2.4954    2.7832    0.0000 N   0  0  0  0  0  0  0  0  0  0  0  0
   -3.7907    3.5395    0.0000 H   0  0  0  0  0  0  0  0  0  0  0  0
   -1.1927    3.5268    0.0000 C   0  0  2  0  0  0  0  0  0  0  0  0
   -0.2343    2.3729    0.0000 H   0  0  0  0  0  0  0  0  0  0  0  0
   -1.6992    4.9395    0.0000 C   0  0  0  0  0  0  0  0  0  0  0  0
   -1.6913    6.4395    0.0000 H   0  0  0  0  0  0  0  0  0  0  0  0
   -3.1777    4.6865    0.0000 H   0  0  0  0  0  0  0  0  0  0  0  0
   -0.2226    4.6709    0.0000 C   0  0  1  0  0  0  0  0  0  0  0  0
    1.0725    3.9141    0.0000 H   0  0  0  0  0  0  0  0  0  0  0  0
    0.4645    6.5278    0.0000 C   0  0  0  0  0  0  0  0  0  0  0  0
   -0.4939    7.6828    0.0000 C   0  0  0  0  0  0  0  0  0  0  0  0
   -1.9724    7.4300    0.0000 H   0  0  0  0  0  0  0  0  0  0  0  0
    0.0263    9.0906    0.0000 C   0  0  0  0  0  0  0  0  0  0  0  0
   -0.9321   10.2445    0.0000 H   0  0  0  0  0  0  0  0  0  0  0  0
    1.5049    9.3434    0.0000 C   0  0  0  0  0  0  0  0  0  0  0  0
    2.4632    8.1884    0.0000 C   0  0  0  0  0  0  0  0  0  0  0  0
    1.9431    6.7806    0.0000 C   0  0  0  0  0  0  0  0  0  0  0  0
    2.9015    5.6267    0.0000 H   0  0  0  0  0  0  0  0  0  0  0  0
    3.9418    8.4412    0.0000 F   0  0  0  0  0  0  0  0  0  0  0  0
    2.0254   10.7502    0.0000 F   0  0  0  0  0  0  0  0  0  0  0  0
    0.1972    1.0132    0.0000 N   0  0  0  0  0  0  0  0  0  0  0  0
    1.0772   -0.2068    0.0000 N   0  0  0  0  0  0  0  0  0  0  0  0
    0.1972   -1.4168    0.0000 N   0  0  0  0  0  0  0  0  0  0  0  0
   -1.0088   -4.0981    0.0000 C   0  0  2  0  0  0  0  0  0  0  0  0
   -2.3033   -3.3402    0.0000 H   0  0  0  0  0  0  0  0  0  0  0  0
   -1.9018   -5.3059    0.0000 C   0  0  0  0  0  0  0  0  0  0  0  0
   -3.0121   -4.2973    0.0000 H   0  0  0  0  0  0  0  0  0  0  0  0
   -3.0170   -6.3090    0.0000 H   0  0  0  0  0  0  0  0  0  0  0  0
   -1.0147   -6.5181    0.0000 C   0  0  1  0  0  0  0  0  0  0  0  0
   -2.3129   -7.2696    0.0000 H   0  0  0  0  0  0  0  0  0  0  0  0
    0.4064   -6.0615    0.0000 C   0  0  2  0  0  0  0  0  0  0  0  0
    0.7138   -7.5297    0.0000 H   0  0  0  0  0  0  0  0  0  0  0  0
    0.4101   -4.5615    0.0000 C   0  0  1  0  0  0  0  0  0  0  0  0
    1.9015   -4.7215    0.0000 H   0  0  0  0  0  0  0  0  0  0  0  0
    0.8253   -2.6256    0.0000 O   0  0  0  0  0  0  0  0  0  0  0  0
    2.2528   -2.1647    0.0000 H   0  0  0  0  0  0  0  0  0  0  0  0
    1.8986   -5.9088    0.0000 O   0  0  0  0  0  0  0  0  0  0  0  0
    2.7769   -7.1248    0.0000 H   0  0  0  0  0  0  0  0  0  0  0  0
   -0.4061   -7.8890    0.0000 O   0  0  0  0  0  0  0  0  0  0  0  0
   -1.2891   -9.1016    0.0000 C   0  0  0  0  0  0  0  0  0  0  0  0
   -2.3299   -8.0215    0.0000 H   0  0  0  0  0  0  0  0  0  0  0  0
   -2.5336   -9.9391    0.0000 H   0  0  0  0  0  0  0  0  0  0  0  0
   -0.6805  -10.4726    0.0000 C   0  0  0  0  0  0  0  0  0  0  0  0
    0.3604  -11.5527    0.0000 H   0  0  0  0  0  0  0  0  0  0  0  0
    0.5640   -9.6351    0.0000 H   0  0  0  0  0  0  0  0  0  0  0  0
   -1.5635  -11.6852    0.0000 O   0  0  0  0  0  0  0  0  0  0  0  0
   -0.9548  -13.0561    0.0000 H   0  0  0  0  0  0  0  0  0  0  0  0
    2.7402   -2.8923    0.0000 O   0  0  0  0  0  0  0  0  0  0  0  0
  1  2  1  0  0  0  0 
  1  3  1  0  0  0  0 
  1  4  1  0  0  0  0 
  1  5  1  0  0  0  0 
  5  6  1  0  0  0  0 
  5  7  1  0  0  0  0 
  5  8  1  0  0  0  0 
  8  9  1  0  0  0  0 
  8 10  1  0  0  0  0 
  8 11  1  0  0  0  0 
 11 12  1  0  0  0  0 
 12 13  2  0  0  0  0 
 13 14  1  0  0  0  0 
 14 15  2  0  0  0  0 
 15 16  1  0  0  0  0 
 16 17  2  0  0  0  0 
 12 17  1  0  0  0  0 
 16 18  1  0  0  0  0 
 18 19  1  0  0  0  0 
 20 18  1  6  0  0  0 
 20 21  1  1  0  0  0 
 20 22  1  0  0  0  0 
 22 23  1  0  0  0  0 
 22 24  1  0  0  0  0 
 22 25  1  0  0  0  0 
 20 25  1  0  0  0  0 
 25 26  1  6  0  0  0 
 25 27  1  1  0  0  0 
 27 28  2  0  0  0  0 
 28 29  1  0  0  0  0 
 28 30  1  0  0  0  0 
 30 31  1  0  0  0  0 
 30 32  2  0  0  0  0 
 32 33  1  0  0  0  0 
 33 34  2  0  0  0  0 
 27 34  1  0  0  0  0 
 34 35  1  0  0  0  0 
 33 36  1  0  0  0  0 
 32 37  1  0  0  0  0 
 15 38  1  0  0  0  0 
 38 39  2  0  0  0  0 
 39 40  1  0  0  0  0 
 14 40  1  0  0  0  0 
 41 40  1  1  0  0  0 
 41 42  1  6  0  0  0 
 41 43  1  0  0  0  0 
 43 44  1  0  0  0  0 
 43 45  1  0  0  0  0 
 43 46  1  0  0  0  0 
 46 47  1  6  0  0  0 
 46 48  1  0  0  0  0 
 48 49  1  1  0  0  0 
 48 50  1  0  0  0  0 
 41 50  1  0  0  0  0 
 50 51  1  1  0  0  0 
 50 52  1  6  0  0  0 
 52 53  1  0  0  0  0 
 48 54  1  6  0  0  0 
 54 55  1  0  0  0  0 
 46 56  1  1  0  0  0 
 56 57  1  0  0  0  0 
 57 58  1  0  0  0  0 
 57 59  1  0  0  0  0 
 57 60  1  0  0  0  0 
 60 61  1  0  0  0  0 
 60 62  1  0  0  0  0 
 60 63  1  0  0  0  0 
 63 64  1  0  0  0  0 
 40 65  1  0  0  0  0 
M  CHG  1  40   1
M  CHG  1  65  -1
M  END
> <Rank>
39

> <Priority_score>
0.044

> <Reaction_type>
N-oxidation

> <Parent_ID>
20

> <Parent_InChI>
InChI=1S/C23H28F2N6O4S/c1-2-7-36-23-27-21(26-15-9-12(15)11-3-4-13(24)14(25)8-11)18-22(28-23)31(30-29-18)16-10-17(35-6-5-32)20(34)19(16)33/h3-4,8,12,15-17,19-20,32-34H,2,5-7,9-10H2,1H3,(H,26,27,28)

> <Parent_SMILES>
CCCSc1nc(N[C@@H]2C[C@H]2c2ccc(F)c(F)c2)c2nnn([C@@H]3C[C@H](OCCO)[C@@H](O)[C@H]3O)c2n1

$$$$
Molecule 20_metabolite 42
  CDK     0516241031

 85 90  0  0  0  0  0  0  0  0999 V2000
    6.3719    2.0037    0.0000 C   0  0  0  0  0  0  0  0  0  0  0  0
    6.3640    3.5037    0.0000 H   0  0  0  0  0  0  0  0  0  0  0  0
    6.8924    0.5969    0.0000 H   0  0  0  0  0  0  0  0  0  0  0  0
    7.8477    2.2719    0.0000 H   0  0  0  0  0  0  0  0  0  0  0  0
    5.0768    1.2468    0.0000 C   0  0  0  0  0  0  0  0  0  0  0  0
    6.0471    0.1029    0.0000 H   0  0  0  0  0  0  0  0  0  0  0  0
    4.1187    0.0927    0.0000 H   0  0  0  0  0  0  0  0  0  0  0  0
    3.7739    1.9900    0.0000 C   0  0  0  0  0  0  0  0  0  0  0  0
    2.8036    3.1339    0.0000 H   0  0  0  0  0  0  0  0  0  0  0  0
    4.7320    3.1441    0.0000 H   0  0  0  0  0  0  0  0  0  0  0  0
    1.2355    0.5065    0.0000 S   0  0  0  0  0  0  0  0  0  0  0  0
    1.2435   -0.9934    0.0000 C   0  0  0  0  0  0  0  0  0  0  0  0
   -0.0519   -1.7587    0.0000 N   0  0  0  0  0  0  0  0  0  0  0  0
   -0.0502   -3.2372    0.0000 C   0  0  0  0  0  0  0  0  0  0  0  0
    1.2579   -3.9914    0.0000 C   0  0  0  0  0  0  0  0  0  0  0  0
    2.5210   -3.2422    0.0000 C   0  0  0  0  0  0  0  0  0  0  0  0
    2.5516   -1.7477    0.0000 N   0  0  0  0  0  0  0  0  0  0  0  0
    3.8168   -3.9978    0.0000 N   0  0  0  0  0  0  0  0  0  0  0  0
    5.1191   -3.2535    0.0000 H   0  0  0  0  0  0  0  0  0  0  0  0
    3.8103   -5.4978    0.0000 C   0  0  2  0  0  0  0  0  0  0  0  0
    2.3319   -5.7517    0.0000 H   0  0  0  0  0  0  0  0  0  0  0  0
    5.2872   -5.7647    0.0000 C   0  0  0  0  0  0  0  0  0  0  0  0
    6.5827   -6.5207    0.0000 H   0  0  0  0  0  0  0  0  0  0  0  0
    5.8065   -4.3574    0.0000 H   0  0  0  0  0  0  0  0  0  0  0  0
    4.3169   -6.9097    0.0000 C   0  0  1  0  0  0  0  0  0  0  0  0
    3.0144   -7.6536    0.0000 H   0  0  0  0  0  0  0  0  0  0  0  0
    5.8891   -8.8017    0.0000 C   0  0  0  0  0  0  0  0  0  0  0  0
    7.3684   -8.5483    0.0000 C   0  0  0  0  0  0  0  0  0  0  0  0
    7.8880   -7.1412    0.0000 H   0  0  0  0  0  0  0  0  0  0  0  0
    8.3282   -9.7021    0.0000 C   0  0  0  0  0  0  0  0  0  0  0  0
    9.8066   -9.4482    0.0000 H   0  0  0  0  0  0  0  0  0  0  0  0
    7.8087  -11.1093    0.0000 C   0  0  0  0  0  0  0  0  0  0  0  0
    6.3294  -11.3626    0.0000 C   0  0  0  0  0  0  0  0  0  0  0  0
    5.3696  -10.2088    0.0000 C   0  0  0  0  0  0  0  0  0  0  0  0
    3.8913  -10.4627    0.0000 H   0  0  0  0  0  0  0  0  0  0  0  0
    5.8099  -12.7698    0.0000 F   0  0  0  0  0  0  0  0  0  0  0  0
    8.7674  -12.2630    0.0000 F   0  0  0  0  0  0  0  0  0  0  0  0
    0.9385   -5.4464    0.0000 N   0  0  0  0  0  0  0  0  0  0  0  0
   -0.5580   -5.5994    0.0000 N   0  0  0  0  0  0  0  0  0  0  0  0
   -1.1667   -4.2326    0.0000 N   0  0  0  0  0  0  0  0  0  0  0  0
   -3.1453   -4.1588    0.0000 C   0  0  2  0  0  0  0  0  0  0  0  0
   -2.9296   -2.6743    0.0000 H   0  0  0  0  0  0  0  0  0  0  0  0
   -4.6002   -3.7853    0.0000 C   0  0  0  0  0  0  0  0  0  0  0  0
   -4.0830   -2.3773    0.0000 H   0  0  0  0  0  0  0  0  0  0  0  0
   -5.9490   -3.1290    0.0000 H   0  0  0  0  0  0  0  0  0  0  0  0
   -5.3900   -5.0630    0.0000 C   0  0  1  0  0  0  0  0  0  0  0  0
   -6.5744   -4.1426    0.0000 H   0  0  0  0  0  0  0  0  0  0  0  0
   -4.4328   -6.2083    0.0000 C   0  0  2  0  0  0  0  0  0  0  0  0
   -5.6777   -7.0450    0.0000 H   0  0  0  0  0  0  0  0  0  0  0  0
   -3.0414   -5.6478    0.0000 C   0  0  1  0  0  0  0  0  0  0  0  0
   -2.6290   -7.0900    0.0000 H   0  0  0  0  0  0  0  0  0  0  0  0
   -1.5641   -5.3880    0.0000 O   0  0  0  0  0  0  0  0  0  0  0  0
   -0.6004   -6.5375    0.0000 H   0  0  0  0  0  0  0  0  0  0  0  0
   -3.7303   -7.5336    0.0000 O   0  0  0  0  0  0  0  0  0  0  0  0
   -4.5269   -8.8046    0.0000 H   0  0  0  0  0  0  0  0  0  0  0  0
   -6.4317   -6.1424    0.0000 O   0  0  0  0  0  0  0  0  0  0  0  0
   -7.8872   -5.7800    0.0000 C   0  0  0  0  0  0  0  0  0  0  0  0
   -7.2776   -4.4094    0.0000 H   0  0  0  0  0  0  0  0  0  0  0  0
   -9.1311   -4.9416    0.0000 H   0  0  0  0  0  0  0  0  0  0  0  0
   -8.9288   -6.8593    0.0000 C   0  0  0  0  0  0  0  0  0  0  0  0
   -9.5385   -8.2298    0.0000 H   0  0  0  0  0  0  0  0  0  0  0  0
   -7.6850   -7.6977    0.0000 H   0  0  0  0  0  0  0  0  0  0  0  0
  -10.3844   -6.4969    0.0000 O   0  0  0  0  0  0  0  0  0  0  0  0
  -11.4260   -7.5763    0.0000 H   0  0  0  0  0  0  0  0  0  0  0  0
   -1.9452   -0.1880    0.0000 C   0  0  0  0  0  0  0  0  0  0  0  0
   -2.6881   -1.4911    0.0000 H   0  0  0  0  0  0  0  0  0  0  0  0
   -3.3575    0.3175    0.0000 C   0  0  0  0  0  0  0  0  0  0  0  0
   -3.6102   -1.1610    0.0000 H   0  0  0  0  0  0  0  0  0  0  0  0
   -3.6255    1.7942    0.0000 C   0  0  0  0  0  0  0  0  0  0  0  0
   -5.0323    1.2738    0.0000 H   0  0  0  0  0  0  0  0  0  0  0  0
   -2.4813    2.7654    0.0000 C   0  0  0  0  0  0  0  0  0  0  0  0
   -3.6357    3.7232    0.0000 H   0  0  0  0  0  0  0  0  0  0  0  0
   -1.0690    2.2600    0.0000 C   0  0  0  0  0  0  0  0  0  0  0  0
   -0.8163    3.7385    0.0000 H   0  0  0  0  0  0  0  0  0  0  0  0
    0.4309    2.2677    0.0000 C   0  0  0  0  0  0  0  0  0  0  0  0
    1.9140   -0.2708    0.0000 O   0  0  0  0  0  0  0  0  0  0  0  0
    1.1742    3.5706    0.0000 O   0  0  0  0  0  0  0  0  0  0  0  0
    0.4176    4.8657    0.0000 H   0  0  0  0  0  0  0  0  0  0  0  0
   -0.8010    0.7833    0.0000 O   0  0  0  0  0  0  0  0  0  0  0  0
   -1.7384    4.0686    0.0000 O   0  0  0  0  0  0  0  0  0  0  0  0
   -2.4955    5.3635    0.0000 H   0  0  0  0  0  0  0  0  0  0  0  0
   -4.3826    3.0891    0.0000 O   0  0  0  0  0  0  0  0  0  0  0  0
   -5.8826    3.0809    0.0000 H   0  0  0  0  0  0  0  0  0  0  0  0
   -5.8174    0.3049    0.0000 O   0  0  0  0  0  0  0  0  0  0  0  0
   -6.5741    1.6000    0.0000 H   0  0  0  0  0  0  0  0  0  0  0  0
  1  2  1  0  0  0  0 
  1  3  1  0  0  0  0 
  1  4  1  0  0  0  0 
  1  5  1  0  0  0  0 
  5  6  1  0  0  0  0 
  5  7  1  0  0  0  0 
  5  8  1  0  0  0  0 
  8  9  1  0  0  0  0 
  8 10  1  0  0  0  0 
  8 11  1  0  0  0  0 
 11 12  1  0  0  0  0 
 12 13  2  0  0  0  0 
 13 14  1  0  0  0  0 
 14 15  2  0  0  0  0 
 15 16  1  0  0  0  0 
 16 17  2  0  0  0  0 
 12 17  1  0  0  0  0 
 16 18  1  0  0  0  0 
 18 19  1  0  0  0  0 
 20 18  1  6  0  0  0 
 20 21  1  1  0  0  0 
 20 22  1  0  0  0  0 
 22 23  1  0  0  0  0 
 22 24  1  0  0  0  0 
 22 25  1  0  0  0  0 
 20 25  1  0  0  0  0 
 25 26  1  6  0  0  0 
 25 27  1  1  0  0  0 
 27 28  2  0  0  0  0 
 28 29  1  0  0  0  0 
 28 30  1  0  0  0  0 
 30 31  1  0  0  0  0 
 30 32  2  0  0  0  0 
 32 33  1  0  0  0  0 
 33 34  2  0  0  0  0 
 27 34  1  0  0  0  0 
 34 35  1  0  0  0  0 
 33 36  1  0  0  0  0 
 32 37  1  0  0  0  0 
 15 38  1  0  0  0  0 
 38 39  2  0  0  0  0 
 39 40  1  0  0  0  0 
 14 40  1  0  0  0  0 
 41 40  1  1  0  0  0 
 41 42  1  6  0  0  0 
 41 43  1  0  0  0  0 
 43 44  1  0  0  0  0 
 43 45  1  0  0  0  0 
 43 46  1  0  0  0  0 
 46 47  1  6  0  0  0 
 46 48  1  0  0  0  0 
 48 49  1  1  0  0  0 
 48 50  1  0  0  0  0 
 41 50  1  0  0  0  0 
 50 51  1  1  0  0  0 
 50 52  1  6  0  0  0 
 52 53  1  0  0  0  0 
 48 54  1  6  0  0  0 
 54 55  1  0  0  0  0 
 46 56  1  1  0  0  0 
 56 57  1  0  0  0  0 
 57 58  1  0  0  0  0 
 57 59  1  0  0  0  0 
 57 60  1  0  0  0  0 
 60 61  1  0  0  0  0 
 60 62  1  0  0  0  0 
 60 63  1  0  0  0  0 
 63 64  1  0  0  0  0 
 13 65  1  0  0  0  0 
 65 66  1  0  0  0  0 
 65 67  1  0  0  0  0 
 67 68  1  0  0  0  0 
 67 69  1  0  0  0  0 
 69 70  1  0  0  0  0 
 69 71  1  0  0  0  0 
 71 72  1  0  0  0  0 
 71 73  1  0  0  0  0 
 73 74  1  0  0  0  0 
 73 75  1  0  0  0  0 
 75 76  2  0  0  0  0 
 75 77  1  0  0  0  0 
 77 78  1  0  0  0  0 
 73 79  1  0  0  0  0 
 65 79  1  0  0  0  0 
 71 80  1  0  0  0  0 
 80 81  1  0  0  0  0 
 69 82  1  0  0  0  0 
 82 83  1  0  0  0  0 
 67 84  1  0  0  0  0 
 84 85  1  0  0  0  0 
M  CHG  1  13   1
M  END
> <Rank>
42

> <Priority_score>
0.04

> <Reaction_type>
N-glucuronidation_(aromatic_=n-)

> <Parent_ID>
20

> <Parent_InChI>
InChI=1S/C23H28F2N6O4S/c1-2-7-36-23-27-21(26-15-9-12(15)11-3-4-13(24)14(25)8-11)18-22(28-23)31(30-29-18)16-10-17(35-6-5-32)20(34)19(16)33/h3-4,8,12,15-17,19-20,32-34H,2,5-7,9-10H2,1H3,(H,26,27,28)

> <Parent_SMILES>
CCCSc1nc(N[C@@H]2C[C@H]2c2ccc(F)c(F)c2)c2nnn([C@@H]3C[C@H](OCCO)[C@@H](O)[C@H]3O)c2n1

$$$$
Molecule 20_metabolite 43
  CDK     0516241031

 65 69  0  0  0  0  0  0  0  0999 V2000
   -1.3846   10.5922    0.0000 C   0  0  0  0  0  0  0  0  0  0  0  0
   -1.3628   12.0921    0.0000 H   0  0  0  0  0  0  0  0  0  0  0  0
   -1.9180    9.1903    0.0000 H   0  0  0  0  0  0  0  0  0  0  0  0
   -2.8578   10.8742    0.0000 H   0  0  0  0  0  0  0  0  0  0  0  0
   -0.0966    9.8234    0.0000 C   0  0  0  0  0  0  0  0  0  0  0  0
    0.4369   11.2254    0.0000 H   0  0  0  0  0  0  0  0  0  0  0  0
    1.3767    9.5415    0.0000 H   0  0  0  0  0  0  0  0  0  0  0  0
   -0.1184    8.3236    0.0000 C   0  0  0  0  0  0  0  0  0  0  0  0
    0.3741    6.9068    0.0000 H   0  0  0  0  0  0  0  0  0  0  0  0
    1.3625    8.5626    0.0000 H   0  0  0  0  0  0  0  0  0  0  0  0
   -1.4282    7.5926    0.0000 S   0  0  0  0  0  0  0  0  0  0  0  0
   -1.4500    6.0927    0.0000 C   0  0  0  0  0  0  0  0  0  0  0  0
   -0.1571    5.3127    0.0000 N   0  0  0  0  0  0  0  0  0  0  0  0
   -0.2173    3.8191    0.0000 C   0  0  0  0  0  0  0  0  0  0  0  0
   -1.4950    3.0950    0.0000 C   0  0  0  0  0  0  0  0  0  0  0  0
   -2.7879    3.8750    0.0000 C   0  0  0  0  0  0  0  0  0  0  0  0
   -2.7603    5.3533    0.0000 N   0  0  0  0  0  0  0  0  0  0  0  0
   -3.9239    2.9020    0.0000 N   0  0  0  0  0  0  0  0  0  0  0  0
   -5.3838    3.2463    0.0000 C   0  0  2  0  0  0  0  0  0  0  0  0
   -4.8855    4.6612    0.0000 H   0  0  0  0  0  0  0  0  0  0  0  0
   -6.7392    3.8937    0.0000 C   0  0  0  0  0  0  0  0  0  0  0  0
   -5.9598    5.1753    0.0000 H   0  0  0  0  0  0  0  0  0  0  0  0
   -7.9358    4.7982    0.0000 H   0  0  0  0  0  0  0  0  0  0  0  0
   -7.7609    2.7927    0.0000 C   0  0  1  0  0  0  0  0  0  0  0  0
   -8.7452    3.9245    0.0000 H   0  0  0  0  0  0  0  0  0  0  0  0
   -7.0428    1.4841    0.0000 C   0  0  2  0  0  0  0  0  0  0  0  0
   -8.4259    0.9035    0.0000 H   0  0  0  0  0  0  0  0  0  0  0  0
   -5.5694    1.7653    0.0000 C   0  0  1  0  0  0  0  0  0  0  0  0
   -5.4433    0.2706    0.0000 H   0  0  0  0  0  0  0  0  0  0  0  0
   -4.0697    1.7349    0.0000 O   0  0  0  0  0  0  0  0  0  0  0  0
   -3.3462    0.4209    0.0000 H   0  0  0  0  0  0  0  0  0  0  0  0
   -6.6096    0.0480    0.0000 O   0  0  0  0  0  0  0  0  0  0  0  0
   -7.6366   -1.0452    0.0000 H   0  0  0  0  0  0  0  0  0  0  0  0
   -8.9914    1.9348    0.0000 O   0  0  0  0  0  0  0  0  0  0  0  0
  -10.3495    2.5715    0.0000 C   0  0  0  0  0  0  0  0  0  0  0  0
   -9.4867    3.7985    0.0000 H   0  0  0  0  0  0  0  0  0  0  0  0
  -11.4080    3.6343    0.0000 H   0  0  0  0  0  0  0  0  0  0  0  0
  -11.5800    1.7136    0.0000 C   0  0  0  0  0  0  0  0  0  0  0  0
  -12.4429    0.4866    0.0000 H   0  0  0  0  0  0  0  0  0  0  0  0
  -10.5215    0.6508    0.0000 H   0  0  0  0  0  0  0  0  0  0  0  0
  -12.9382    2.3503    0.0000 O   0  0  0  0  0  0  0  0  0  0  0  0
  -14.1687    1.4924    0.0000 H   0  0  0  0  0  0  0  0  0  0  0  0
   -3.3424    1.5234    0.0000 N   0  0  0  0  0  0  0  0  0  0  0  0
   -1.8432    1.6467    0.0000 N   0  0  0  0  0  0  0  0  0  0  0  0
    1.0633    3.0379    0.0000 N   0  0  0  0  0  0  0  0  0  0  0  0
    1.0270    1.5384    0.0000 H   0  0  0  0  0  0  0  0  0  0  0  0
    2.3800    3.7563    0.0000 C   0  0  2  0  0  0  0  0  0  0  0  0
    1.9011    5.1778    0.0000 H   0  0  0  0  0  0  0  0  0  0  0  0
    3.3166    2.5836    0.0000 C   0  0  0  0  0  0  0  0  0  0  0  0
    4.5974    1.8028    0.0000 H   0  0  0  0  0  0  0  0  0  0  0  0
    2.3250    1.4580    0.0000 H   0  0  0  0  0  0  0  0  0  0  0  0
    3.8631    3.9814    0.0000 C   0  0  1  0  0  0  0  0  0  0  0  0
    3.8988    5.4809    0.0000 H   0  0  0  0  0  0  0  0  0  0  0  0
    5.8043    3.5914    0.0000 C   0  0  0  0  0  0  0  0  0  0  0  0
    6.2842    2.1693    0.0000 C   0  0  0  0  0  0  0  0  0  0  0  0
    5.2929    1.0436    0.0000 H   0  0  0  0  0  0  0  0  0  0  0  0
    7.7555    1.8730    0.0000 C   0  0  0  0  0  0  0  0  0  0  0  0
    8.2345    0.4516    0.0000 H   0  0  0  0  0  0  0  0  0  0  0  0
    8.7469    2.9987    0.0000 C   0  0  0  0  0  0  0  0  0  0  0  0
    8.2669    4.4208    0.0000 C   0  0  0  0  0  0  0  0  0  0  0  0
    6.7956    4.7171    0.0000 C   0  0  0  0  0  0  0  0  0  0  0  0
    6.3167    6.1385    0.0000 H   0  0  0  0  0  0  0  0  0  0  0  0
    9.2583    5.5465    0.0000 F   0  0  0  0  0  0  0  0  0  0  0  0
   10.2175    2.7033    0.0000 F   0  0  0  0  0  0  0  0  0  0  0  0
    1.1637    6.0237    0.0000 O   0  0  0  0  0  0  0  0  0  0  0  0
  1  2  1  0  0  0  0 
  1  3  1  0  0  0  0 
  1  4  1  0  0  0  0 
  1  5  1  0  0  0  0 
  5  6  1  0  0  0  0 
  5  7  1  0  0  0  0 
  5  8  1  0  0  0  0 
  8  9  1  0  0  0  0 
  8 10  1  0  0  0  0 
  8 11  1  0  0  0  0 
 11 12  1  0  0  0  0 
 12 13  2  0  0  0  0 
 13 14  1  0  0  0  0 
 14 15  2  0  0  0  0 
 15 16  1  0  0  0  0 
 16 17  2  0  0  0  0 
 12 17  1  0  0  0  0 
 16 18  1  0  0  0  0 
 19 18  1  1  0  0  0 
 19 20  1  6  0  0  0 
 19 21  1  0  0  0  0 
 21 22  1  0  0  0  0 
 21 23  1  0  0  0  0 
 21 24  1  0  0  0  0 
 24 25  1  6  0  0  0 
 24 26  1  0  0  0  0 
 26 27  1  1  0  0  0 
 26 28  1  0  0  0  0 
 19 28  1  0  0  0  0 
 28 29  1  1  0  0  0 
 28 30  1  6  0  0  0 
 30 31  1  0  0  0  0 
 26 32  1  6  0  0  0 
 32 33  1  0  0  0  0 
 24 34  1  1  0  0  0 
 34 35  1  0  0  0  0 
 35 36  1  0  0  0  0 
 35 37  1  0  0  0  0 
 35 38  1  0  0  0  0 
 38 39  1  0  0  0  0 
 38 40  1  0  0  0  0 
 38 41  1  0  0  0  0 
 41 42  1  0  0  0  0 
 18 43  1  0  0  0  0 
 43 44  2  0  0  0  0 
 15 44  1  0  0  0  0 
 14 45  1  0  0  0  0 
 45 46  1  0  0  0  0 
 47 45  1  1  0  0  0 
 47 48  1  6  0  0  0 
 47 49  1  0  0  0  0 
 49 50  1  0  0  0  0 
 49 51  1  0  0  0  0 
 49 52  1  0  0  0  0 
 47 52  1  0  0  0  0 
 52 53  1  1  0  0  0 
 52 54  1  6  0  0  0 
 54 55  2  0  0  0  0 
 55 56  1  0  0  0  0 
 55 57  1  0  0  0  0 
 57 58  1  0  0  0  0 
 57 59  2  0  0  0  0 
 59 60  1  0  0  0  0 
 60 61  2  0  0  0  0 
 54 61  1  0  0  0  0 
 61 62  1  0  0  0  0 
 60 63  1  0  0  0  0 
 59 64  1  0  0  0  0 
 13 65  1  0  0  0  0 
M  CHG  1  13   1
M  CHG  1  65  -1
M  END
> <Rank>
42

> <Priority_score>
0.04

> <Reaction_type>
N-oxidation_(-N=)

> <Parent_ID>
20

> <Parent_InChI>
InChI=1S/C23H28F2N6O4S/c1-2-7-36-23-27-21(26-15-9-12(15)11-3-4-13(24)14(25)8-11)18-22(28-23)31(30-29-18)16-10-17(35-6-5-32)20(34)19(16)33/h3-4,8,12,15-17,19-20,32-34H,2,5-7,9-10H2,1H3,(H,26,27,28)

> <Parent_SMILES>
CCCSc1nc(N[C@@H]2C[C@H]2c2ccc(F)c(F)c2)c2nnn([C@@H]3C[C@H](OCCO)[C@@H](O)[C@H]3O)c2n1

$$$$
Molecule 20_metabolite 44
  CDK     0516241031

 85 90  0  0  0  0  0  0  0  0999 V2000
    9.5419    4.0467    0.0000 C   0  0  0  0  0  0  0  0  0  0  0  0
    8.6732    5.2696    0.0000 H   0  0  0  0  0  0  0  0  0  0  0  0
   10.7764    3.1947    0.0000 H   0  0  0  0  0  0  0  0  0  0  0  0
   10.5953    5.1146    0.0000 H   0  0  0  0  0  0  0  0  0  0  0  0
    8.9172    2.6830    0.0000 C   0  0  0  0  0  0  0  0  0  0  0  0
   10.3687    2.3046    0.0000 H   0  0  0  0  0  0  0  0  0  0  0  0
    8.7966    1.1878    0.0000 H   0  0  0  0  0  0  0  0  0  0  0  0
    7.4238    2.5421    0.0000 C   0  0  0  0  0  0  0  0  0  0  0  0
    5.9723    2.9204    0.0000 H   0  0  0  0  0  0  0  0  0  0  0  0
    7.5444    4.0372    0.0000 H   0  0  0  0  0  0  0  0  0  0  0  0
    6.7991    1.1783    0.0000 S   0  0  0  0  0  0  0  0  0  0  0  0
    5.3058    1.0374    0.0000 C   0  0  0  0  0  0  0  0  0  0  0  0
    4.6728   -0.3275    0.0000 N   0  0  0  0  0  0  0  0  0  0  0  0
    3.2014   -0.4724    0.0000 C   0  0  0  0  0  0  0  0  0  0  0  0
    2.3211    0.7545    0.0000 C   0  0  0  0  0  0  0  0  0  0  0  0
    2.9414    2.0857    0.0000 C   0  0  0  0  0  0  0  0  0  0  0  0
    4.4255    2.2643    0.0000 N   0  0  0  0  0  0  0  0  0  0  0  0
    2.0610    3.3001    0.0000 N   0  0  0  0  0  0  0  0  0  0  0  0
    0.5690    3.1448    0.0000 H   0  0  0  0  0  0  0  0  0  0  0  0
    2.6725    4.6698    0.0000 C   0  0  2  0  0  0  0  0  0  0  0  0
    4.1275    4.3052    0.0000 H   0  0  0  0  0  0  0  0  0  0  0  0
    1.4290    5.5102    0.0000 C   0  0  0  0  0  0  0  0  0  0  0  0
    0.5490    6.7249    0.0000 H   0  0  0  0  0  0  0  0  0  0  0  0
    0.3858    4.4324    0.0000 H   0  0  0  0  0  0  0  0  0  0  0  0
    2.7790    6.1660    0.0000 C   0  0  1  0  0  0  0  0  0  0  0  0
    4.2710    6.3208    0.0000 H   0  0  0  0  0  0  0  0  0  0  0  0
    2.2360    8.0701    0.0000 C   0  0  0  0  0  0  0  0  0  0  0  0
    0.7804    8.4355    0.0000 C   0  0  0  0  0  0  0  0  0  0  0  0
   -0.2630    7.3579    0.0000 H   0  0  0  0  0  0  0  0  0  0  0  0
    0.3681    9.8786    0.0000 C   0  0  0  0  0  0  0  0  0  0  0  0
   -1.0869   10.2432    0.0000 H   0  0  0  0  0  0  0  0  0  0  0  0
    1.4115   10.9563    0.0000 C   0  0  0  0  0  0  0  0  0  0  0  0
    2.8672   10.5908    0.0000 C   0  0  0  0  0  0  0  0  0  0  0  0
    3.2794    9.1477    0.0000 C   0  0  0  0  0  0  0  0  0  0  0  0
    4.7345    8.7832    0.0000 H   0  0  0  0  0  0  0  0  0  0  0  0
    3.9105   11.6685    0.0000 F   0  0  0  0  0  0  0  0  0  0  0  0
    1.0001   12.3988    0.0000 F   0  0  0  0  0  0  0  0  0  0  0  0
    0.9050    0.2923    0.0000 N   0  0  0  0  0  0  0  0  0  0  0  0
    0.9012   -1.2120    0.0000 N   0  0  0  0  0  0  0  0  0  0  0  0
   -0.7052   -2.3694    0.0000 C   0  0  0  0  0  0  0  0  0  0  0  0
    0.3695   -3.4158    0.0000 H   0  0  0  0  0  0  0  0  0  0  0  0
   -1.5493   -3.6094    0.0000 C   0  0  0  0  0  0  0  0  0  0  0  0
   -0.1816   -4.2254    0.0000 H   0  0  0  0  0  0  0  0  0  0  0  0
   -3.0460   -3.4979    0.0000 C   0  0  0  0  0  0  0  0  0  0  0  0
   -2.8956   -4.9903    0.0000 H   0  0  0  0  0  0  0  0  0  0  0  0
   -3.6986   -2.1464    0.0000 C   0  0  0  0  0  0  0  0  0  0  0  0
   -4.9157   -3.0232    0.0000 H   0  0  0  0  0  0  0  0  0  0  0  0
   -2.8546   -0.9064    0.0000 C   0  0  0  0  0  0  0  0  0  0  0  0
   -4.2223   -0.2904    0.0000 H   0  0  0  0  0  0  0  0  0  0  0  0
   -2.4853    0.5474    0.0000 C   0  0  0  0  0  0  0  0  0  0  0  0
   -1.0416    0.9545    0.0000 O   0  0  0  0  0  0  0  0  0  0  0  0
   -3.5597    1.5942    0.0000 O   0  0  0  0  0  0  0  0  0  0  0  0
   -5.0034    1.1871    0.0000 H   0  0  0  0  0  0  0  0  0  0  0  0
   -1.3579   -1.0179    0.0000 O   0  0  0  0  0  0  0  0  0  0  0  0
   -4.7733   -1.1000    0.0000 O   0  0  0  0  0  0  0  0  0  0  0  0
   -6.2169   -1.5075    0.0000 H   0  0  0  0  0  0  0  0  0  0  0  0
   -4.4895   -3.9054    0.0000 O   0  0  0  0  0  0  0  0  0  0  0  0
   -4.8584   -5.3594    0.0000 H   0  0  0  0  0  0  0  0  0  0  0  0
   -1.9186   -5.0632    0.0000 O   0  0  0  0  0  0  0  0  0  0  0  0
   -0.8442   -6.1100    0.0000 H   0  0  0  0  0  0  0  0  0  0  0  0
    2.3216   -1.6821    0.0000 N   0  0  0  0  0  0  0  0  0  0  0  0
    3.2218   -4.4809    0.0000 C   0  0  2  0  0  0  0  0  0  0  0  0
    1.7530   -4.7851    0.0000 H   0  0  0  0  0  0  0  0  0  0  0  0
    3.3677   -5.9759    0.0000 C   0  0  0  0  0  0  0  0  0  0  0  0
    1.8677   -5.9705    0.0000 H   0  0  0  0  0  0  0  0  0  0  0  0
    3.2114   -7.4677    0.0000 H   0  0  0  0  0  0  0  0  0  0  0  0
    4.8382   -6.2819    0.0000 C   0  0  1  0  0  0  0  0  0  0  0  0
    4.3775   -7.7094    0.0000 H   0  0  0  0  0  0  0  0  0  0  0  0
    5.5878   -4.9911    0.0000 C   0  0  2  0  0  0  0  0  0  0  0  0
    6.7993   -5.8754    0.0000 H   0  0  0  0  0  0  0  0  0  0  0  0
    4.5859   -3.8748    0.0000 C   0  0  1  0  0  0  0  0  0  0  0  0
    5.8005   -2.9947    0.0000 H   0  0  0  0  0  0  0  0  0  0  0  0
    3.8372   -2.5750    0.0000 O   0  0  0  0  0  0  0  0  0  0  0  0
    1.8572   -2.5729    0.0000 H   0  0  0  0  0  0  0  0  0  0  0  0
    6.5936   -3.8783    0.0000 O   0  0  0  0  0  0  0  0  0  0  0  0
    8.0602   -4.1930    0.0000 H   0  0  0  0  0  0  0  0  0  0  0  0
    6.2084   -6.8924    0.0000 O   0  0  0  0  0  0  0  0  0  0  0  0
    6.3648   -8.3842    0.0000 C   0  0  0  0  0  0  0  0  0  0  0  0
    4.8685   -8.2792    0.0000 H   0  0  0  0  0  0  0  0  0  0  0  0
    6.0016   -9.8395    0.0000 H   0  0  0  0  0  0  0  0  0  0  0  0
    7.7350   -8.9946    0.0000 C   0  0  0  0  0  0  0  0  0  0  0  0
    9.2313   -9.0996    0.0000 H   0  0  0  0  0  0  0  0  0  0  0  0
    8.0982   -7.5393    0.0000 H   0  0  0  0  0  0  0  0  0  0  0  0
    7.8914  -10.4864    0.0000 O   0  0  0  0  0  0  0  0  0  0  0  0
    9.2616  -11.0969    0.0000 H   0  0  0  0  0  0  0  0  0  0  0  0
  1  2  1  0  0  0  0 
  1  3  1  0  0  0  0 
  1  4  1  0  0  0  0 
  1  5  1  0  0  0  0 
  5  6  1  0  0  0  0 
  5  7  1  0  0  0  0 
  5  8  1  0  0  0  0 
  8  9  1  0  0  0  0 
  8 10  1  0  0  0  0 
  8 11  1  0  0  0  0 
 11 12  1  0  0  0  0 
 12 13  2  0  0  0  0 
 13 14  1  0  0  0  0 
 14 15  2  0  0  0  0 
 15 16  1  0  0  0  0 
 16 17  2  0  0  0  0 
 12 17  1  0  0  0  0 
 16 18  1  0  0  0  0 
 18 19  1  0  0  0  0 
 20 18  1  6  0  0  0 
 20 21  1  1  0  0  0 
 20 22  1  0  0  0  0 
 22 23  1  0  0  0  0 
 22 24  1  0  0  0  0 
 22 25  1  0  0  0  0 
 20 25  1  0  0  0  0 
 25 26  1  6  0  0  0 
 25 27  1  1  0  0  0 
 27 28  2  0  0  0  0 
 28 29  1  0  0  0  0 
 28 30  1  0  0  0  0 
 30 31  1  0  0  0  0 
 30 32  2  0  0  0  0 
 32 33  1  0  0  0  0 
 33 34  2  0  0  0  0 
 27 34  1  0  0  0  0 
 34 35  1  0  0  0  0 
 33 36  1  0  0  0  0 
 32 37  1  0  0  0  0 
 15 38  1  0  0  0  0 
 38 39  2  0  0  0  0 
 39 40  1  0  0  0  0 
 40 41  1  0  0  0  0 
 40 42  1  0  0  0  0 
 42 43  1  0  0  0  0 
 42 44  1  0  0  0  0 
 44 45  1  0  0  0  0 
 44 46  1  0  0  0  0 
 46 47  1  0  0  0  0 
 46 48  1  0  0  0  0 
 48 49  1  0  0  0  0 
 48 50  1  0  0  0  0 
 50 51  2  0  0  0  0 
 50 52  1  0  0  0  0 
 52 53  1  0  0  0  0 
 48 54  1  0  0  0  0 
 40 54  1  0  0  0  0 
 46 55  1  0  0  0  0 
 55 56  1  0  0  0  0 
 44 57  1  0  0  0  0 
 57 58  1  0  0  0  0 
 42 59  1  0  0  0  0 
 59 60  1  0  0  0  0 
 39 61  1  0  0  0  0 
 14 61  1  0  0  0  0 
 62 61  1  1  0  0  0 
 62 63  1  6  0  0  0 
 62 64  1  0  0  0  0 
 64 65  1  0  0  0  0 
 64 66  1  0  0  0  0 
 64 67  1  0  0  0  0 
 67 68  1  6  0  0  0 
 67 69  1  0  0  0  0 
 69 70  1  1  0  0  0 
 69 71  1  0  0  0  0 
 62 71  1  0  0  0  0 
 71 72  1  1  0  0  0 
 71 73  1  6  0  0  0 
 73 74  1  0  0  0  0 
 69 75  1  6  0  0  0 
 75 76  1  0  0  0  0 
 67 77  1  1  0  0  0 
 77 78  1  0  0  0  0 
 78 79  1  0  0  0  0 
 78 80  1  0  0  0  0 
 78 81  1  0  0  0  0 
 81 82  1  0  0  0  0 
 81 83  1  0  0  0  0 
 81 84  1  0  0  0  0 
 84 85  1  0  0  0  0 
M  CHG  1  39   1
M  END
> <Rank>
44

> <Priority_score>
0.036

> <Reaction_type>
N-glucuronidation_(aromatic_=n-)

> <Parent_ID>
20

> <Parent_InChI>
InChI=1S/C23H28F2N6O4S/c1-2-7-36-23-27-21(26-15-9-12(15)11-3-4-13(24)14(25)8-11)18-22(28-23)31(30-29-18)16-10-17(35-6-5-32)20(34)19(16)33/h3-4,8,12,15-17,19-20,32-34H,2,5-7,9-10H2,1H3,(H,26,27,28)

> <Parent_SMILES>
CCCSc1nc(N[C@@H]2C[C@H]2c2ccc(F)c(F)c2)c2nnn([C@@H]3C[C@H](OCCO)[C@@H](O)[C@H]3O)c2n1

$$$$
Molecule 20_metabolite 45
  CDK     0516241031

 62 66  0  0  0  0  0  0  0  0999 V2000
   -7.9700   -0.6980    0.0000 C   0  0  0  0  0  0  0  0  0  0  0  0
   -9.2655   -1.4541    0.0000 H   0  0  0  0  0  0  0  0  0  0  0  0
   -7.0112    0.4555    0.0000 H   0  0  0  0  0  0  0  0  0  0  0  0
   -8.9396    0.4465    0.0000 H   0  0  0  0  0  0  0  0  0  0  0  0
   -6.6674   -1.4419    0.0000 C   0  0  0  0  0  0  0  0  0  0  0  0
   -7.6262   -2.5955    0.0000 H   0  0  0  0  0  0  0  0  0  0  0  0
   -5.6979   -2.5865    0.0000 H   0  0  0  0  0  0  0  0  0  0  0  0
   -5.3719   -0.6858    0.0000 C   0  0  0  0  0  0  0  0  0  0  0  0
   -3.8960   -0.4184    0.0000 H   0  0  0  0  0  0  0  0  0  0  0  0
   -4.8523   -2.0930    0.0000 H   0  0  0  0  0  0  0  0  0  0  0  0
   -5.3790    0.8141    0.0000 S   0  0  0  0  0  0  0  0  0  0  0  0
   -4.0835    1.5702    0.0000 C   0  0  0  0  0  0  0  0  0  0  0  0
   -4.0835    3.0748    0.0000 N   0  0  0  0  0  0  0  0  0  0  0  0
   -2.8096    3.8253    0.0000 C   0  0  0  0  0  0  0  0  0  0  0  0
   -1.4949    3.0826    0.0000 C   0  0  0  0  0  0  0  0  0  0  0  0
   -1.4975    1.6140    0.0000 C   0  0  0  0  0  0  0  0  0  0  0  0
   -2.7687    0.8276    0.0000 N   0  0  0  0  0  0  0  0  0  0  0  0
   -0.1879    0.8827    0.0000 N   0  0  0  0  0  0  0  0  0  0  0  0
   -0.1664   -0.6171    0.0000 H   0  0  0  0  0  0  0  0  0  0  0  0
    1.1003    1.6512    0.0000 C   0  0  2  0  0  0  0  0  0  0  0  0
    0.5670    3.0532    0.0000 H   0  0  0  0  0  0  0  0  0  0  0  0
    2.0812    0.5154    0.0000 C   0  0  0  0  0  0  0  0  0  0  0  0
    3.3911   -0.2155    0.0000 H   0  0  0  0  0  0  0  0  0  0  0  0
    1.1337   -0.6475    0.0000 H   0  0  0  0  0  0  0  0  0  0  0  0
    2.5735    1.9332    0.0000 C   0  0  1  0  0  0  0  0  0  0  0  0
    2.5516    3.4330    0.0000 H   0  0  0  0  0  0  0  0  0  0  0  0
    4.5283    1.6181    0.0000 C   0  0  0  0  0  0  0  0  0  0  0  0
    5.0626    0.2156    0.0000 C   0  0  0  0  0  0  0  0  0  0  0  0
    4.1153   -0.9474    0.0000 H   0  0  0  0  0  0  0  0  0  0  0  0
    6.5442   -0.0239    0.0000 C   0  0  0  0  0  0  0  0  0  0  0  0
    7.0775   -1.4259    0.0000 H   0  0  0  0  0  0  0  0  0  0  0  0
    7.4915    1.1391    0.0000 C   0  0  0  0  0  0  0  0  0  0  0  0
    6.9572    2.5416    0.0000 C   0  0  0  0  0  0  0  0  0  0  0  0
    5.4756    2.7811    0.0000 C   0  0  0  0  0  0  0  0  0  0  0  0
    4.9423    4.1831    0.0000 H   0  0  0  0  0  0  0  0  0  0  0  0
    7.9046    3.7046    0.0000 F   0  0  0  0  0  0  0  0  0  0  0  0
    8.9724    0.9004    0.0000 F   0  0  0  0  0  0  0  0  0  0  0  0
   -0.4047    4.0977    0.0000 N   0  0  0  0  0  0  0  0  0  0  0  0
   -1.0341    5.4639    0.0000 N   0  0  0  0  0  0  0  0  0  0  0  0
   -2.5204    5.2929    0.0000 N   0  0  0  0  0  0  0  0  0  0  0  0
   -3.5378    6.3951    0.0000 C   0  0  2  0  0  0  0  0  0  0  0  0
   -4.5251    5.2658    0.0000 H   0  0  0  0  0  0  0  0  0  0  0  0
   -4.7678    7.2573    0.0000 C   0  0  0  0  0  0  0  0  0  0  0  0
   -5.5009    5.9487    0.0000 H   0  0  0  0  0  0  0  0  0  0  0  0
   -6.1436    7.8550    0.0000 H   0  0  0  0  0  0  0  0  0  0  0  0
   -4.3110    8.6883    0.0000 C   0  0  1  0  0  0  0  0  0  0  0  0
   -5.7805    8.9893    0.0000 H   0  0  0  0  0  0  0  0  0  0  0  0
   -2.8184    8.7060    0.0000 C   0  0  0  0  0  0  0  0  0  0  0  0
   -1.9507    9.9295    0.0000 O   0  0  0  0  0  0  0  0  0  0  0  0
   -2.3392    7.2846    0.0000 C   0  0  1  0  0  0  0  0  0  0  0  0
   -0.9755    7.9094    0.0000 H   0  0  0  0  0  0  0  0  0  0  0  0
   -1.5757    5.9935    0.0000 O   0  0  0  0  0  0  0  0  0  0  0  0
   -0.0758    6.0091    0.0000 H   0  0  0  0  0  0  0  0  0  0  0  0
   -4.1686   10.1815    0.0000 O   0  0  0  0  0  0  0  0  0  0  0  0
   -5.3905   11.0514    0.0000 C   0  0  0  0  0  0  0  0  0  0  0  0
   -6.0351    9.6969    0.0000 H   0  0  0  0  0  0  0  0  0  0  0  0
   -6.8364   11.4509    0.0000 H   0  0  0  0  0  0  0  0  0  0  0  0
   -5.2481   12.5446    0.0000 C   0  0  0  0  0  0  0  0  0  0  0  0
   -4.6036   13.8991    0.0000 H   0  0  0  0  0  0  0  0  0  0  0  0
   -3.8023   12.1451    0.0000 H   0  0  0  0  0  0  0  0  0  0  0  0
   -6.4701   13.4146    0.0000 O   0  0  0  0  0  0  0  0  0  0  0  0
   -6.3277   14.9078    0.0000 H   0  0  0  0  0  0  0  0  0  0  0  0
  1  2  1  0  0  0  0 
  1  3  1  0  0  0  0 
  1  4  1  0  0  0  0 
  1  5  1  0  0  0  0 
  5  6  1  0  0  0  0 
  5  7  1  0  0  0  0 
  5  8  1  0  0  0  0 
  8  9  1  0  0  0  0 
  8 10  1  0  0  0  0 
  8 11  1  0  0  0  0 
 11 12  1  0  0  0  0 
 12 13  2  0  0  0  0 
 13 14  1  0  0  0  0 
 14 15  2  0  0  0  0 
 15 16  1  0  0  0  0 
 16 17  2  0  0  0  0 
 12 17  1  0  0  0  0 
 16 18  1  0  0  0  0 
 18 19  1  0  0  0  0 
 20 18  1  1  0  0  0 
 20 21  1  6  0  0  0 
 20 22  1  0  0  0  0 
 22 23  1  0  0  0  0 
 22 24  1  0  0  0  0 
 22 25  1  0  0  0  0 
 20 25  1  0  0  0  0 
 25 26  1  1  0  0  0 
 25 27  1  6  0  0  0 
 27 28  2  0  0  0  0 
 28 29  1  0  0  0  0 
 28 30  1  0  0  0  0 
 30 31  1  0  0  0  0 
 30 32  2  0  0  0  0 
 32 33  1  0  0  0  0 
 33 34  2  0  0  0  0 
 27 34  1  0  0  0  0 
 34 35  1  0  0  0  0 
 33 36  1  0  0  0  0 
 32 37  1  0  0  0  0 
 15 38  1  0  0  0  0 
 38 39  2  0  0  0  0 
 39 40  1  0  0  0  0 
 14 40  1  0  0  0  0 
 41 40  1  6  0  0  0 
 41 42  1  1  0  0  0 
 41 43  1  0  0  0  0 
 43 44  1  0  0  0  0 
 43 45  1  0  0  0  0 
 43 46  1  0  0  0  0 
 46 47  1  1  0  0  0 
 46 48  1  0  0  0  0 
 48 49  2  0  0  0  0 
 48 50  1  0  0  0  0 
 41 50  1  0  0  0  0 
 50 51  1  6  0  0  0 
 50 52  1  1  0  0  0 
 52 53  1  0  0  0  0 
 46 54  1  6  0  0  0 
 54 55  1  0  0  0  0 
 55 56  1  0  0  0  0 
 55 57  1  0  0  0  0 
 55 58  1  0  0  0  0 
 58 59  1  0  0  0  0 
 58 60  1  0  0  0  0 
 58 61  1  0  0  0  0 
 61 62  1  0  0  0  0 
M  END
> <Rank>
44

> <Priority_score>
0.036

> <Reaction_type>
alcohol oxidation

> <Parent_ID>
20

> <Parent_InChI>
InChI=1S/C23H28F2N6O4S/c1-2-7-36-23-27-21(26-15-9-12(15)11-3-4-13(24)14(25)8-11)18-22(28-23)31(30-29-18)16-10-17(35-6-5-32)20(34)19(16)33/h3-4,8,12,15-17,19-20,32-34H,2,5-7,9-10H2,1H3,(H,26,27,28)

> <Parent_SMILES>
CCCSc1nc(N[C@@H]2C[C@H]2c2ccc(F)c(F)c2)c2nnn([C@@H]3C[C@H](OCCO)[C@@H](O)[C@H]3O)c2n1

$$$$
Molecule 20_metabolite 46
  CDK     0516241031

 65 69  0  0  0  0  0  0  0  0999 V2000
   -7.9700   -0.6980    0.0000 C   0  0  0  0  0  0  0  0  0  0  0  0
   -9.2655   -1.4541    0.0000 H   0  0  0  0  0  0  0  0  0  0  0  0
   -7.0112    0.4555    0.0000 H   0  0  0  0  0  0  0  0  0  0  0  0
   -8.9396    0.4465    0.0000 H   0  0  0  0  0  0  0  0  0  0  0  0
   -6.6674   -1.4419    0.0000 C   0  0  0  0  0  0  0  0  0  0  0  0
   -7.6262   -2.5955    0.0000 H   0  0  0  0  0  0  0  0  0  0  0  0
   -5.6979   -2.5865    0.0000 H   0  0  0  0  0  0  0  0  0  0  0  0
   -5.3719   -0.6858    0.0000 C   0  0  0  0  0  0  0  0  0  0  0  0
   -3.8960   -0.4184    0.0000 H   0  0  0  0  0  0  0  0  0  0  0  0
   -4.8523   -2.0930    0.0000 H   0  0  0  0  0  0  0  0  0  0  0  0
   -5.3790    0.8141    0.0000 S   0  0  0  0  0  0  0  0  0  0  0  0
   -4.0835    1.5702    0.0000 C   0  0  0  0  0  0  0  0  0  0  0  0
   -4.0835    3.0748    0.0000 N   0  0  0  0  0  0  0  0  0  0  0  0
   -2.8096    3.8253    0.0000 C   0  0  0  0  0  0  0  0  0  0  0  0
   -1.4949    3.0826    0.0000 C   0  0  0  0  0  0  0  0  0  0  0  0
   -1.4975    1.6140    0.0000 C   0  0  0  0  0  0  0  0  0  0  0  0
   -2.7687    0.8276    0.0000 N   0  0  0  0  0  0  0  0  0  0  0  0
   -0.1879    0.8827    0.0000 N   0  0  0  0  0  0  0  0  0  0  0  0
   -0.1664   -0.6171    0.0000 H   0  0  0  0  0  0  0  0  0  0  0  0
    1.1003    1.6512    0.0000 C   0  0  2  0  0  0  0  0  0  0  0  0
    0.5670    3.0532    0.0000 H   0  0  0  0  0  0  0  0  0  0  0  0
    2.0812    0.5154    0.0000 C   0  0  0  0  0  0  0  0  0  0  0  0
    3.3911   -0.2155    0.0000 H   0  0  0  0  0  0  0  0  0  0  0  0
    1.1337   -0.6475    0.0000 H   0  0  0  0  0  0  0  0  0  0  0  0
    2.5735    1.9332    0.0000 C   0  0  1  0  0  0  0  0  0  0  0  0
    2.5516    3.4330    0.0000 H   0  0  0  0  0  0  0  0  0  0  0  0
    4.5283    1.6181    0.0000 C   0  0  0  0  0  0  0  0  0  0  0  0
    5.0626    0.2156    0.0000 C   0  0  0  0  0  0  0  0  0  0  0  0
    4.1153   -0.9474    0.0000 H   0  0  0  0  0  0  0  0  0  0  0  0
    6.5442   -0.0239    0.0000 C   0  0  0  0  0  0  0  0  0  0  0  0
    7.0775   -1.4259    0.0000 H   0  0  0  0  0  0  0  0  0  0  0  0
    7.4915    1.1391    0.0000 C   0  0  0  0  0  0  0  0  0  0  0  0
    6.9572    2.5416    0.0000 C   0  0  0  0  0  0  0  0  0  0  0  0
    5.4756    2.7811    0.0000 C   0  0  0  0  0  0  0  0  0  0  0  0
    4.9423    4.1831    0.0000 H   0  0  0  0  0  0  0  0  0  0  0  0
    7.9046    3.7046    0.0000 F   0  0  0  0  0  0  0  0  0  0  0  0
    8.9724    0.9004    0.0000 F   0  0  0  0  0  0  0  0  0  0  0  0
   -0.4047    4.0977    0.0000 N   0  0  0  0  0  0  0  0  0  0  0  0
   -1.0341    5.4639    0.0000 N   0  0  0  0  0  0  0  0  0  0  0  0
   -2.5204    5.2929    0.0000 N   0  0  0  0  0  0  0  0  0  0  0  0
   -3.5378    6.3951    0.0000 C   0  0  2  0  0  0  0  0  0  0  0  0
   -4.5251    5.2658    0.0000 H   0  0  0  0  0  0  0  0  0  0  0  0
   -4.7678    7.2573    0.0000 C   0  0  0  0  0  0  0  0  0  0  0  0
   -5.5009    5.9487    0.0000 H   0  0  0  0  0  0  0  0  0  0  0  0
   -6.1436    7.8550    0.0000 H   0  0  0  0  0  0  0  0  0  0  0  0
   -4.3110    8.6883    0.0000 C   0  0  1  0  0  0  0  0  0  0  0  0
   -5.7805    8.9893    0.0000 H   0  0  0  0  0  0  0  0  0  0  0  0
   -2.8184    8.7060    0.0000 C   0  0  2  0  0  0  0  0  0  0  0  0
   -2.3392    7.2846    0.0000 C   0  0  1  0  0  0  0  0  0  0  0  0
   -0.9755    7.9094    0.0000 H   0  0  0  0  0  0  0  0  0  0  0  0
   -1.5757    5.9935    0.0000 O   0  0  0  0  0  0  0  0  0  0  0  0
   -0.0758    6.0091    0.0000 H   0  0  0  0  0  0  0  0  0  0  0  0
   -2.9925   10.1959    0.0000 O   0  0  0  0  0  0  0  0  0  0  0  0
   -1.7893   11.0916    0.0000 H   0  0  0  0  0  0  0  0  0  0  0  0
   -1.3548    9.0344    0.0000 O   0  0  0  0  0  0  0  0  0  0  0  0
   -0.9075   10.4662    0.0000 H   0  0  0  0  0  0  0  0  0  0  0  0
   -4.1686   10.1815    0.0000 O   0  0  0  0  0  0  0  0  0  0  0  0
   -5.3905   11.0514    0.0000 C   0  0  0  0  0  0  0  0  0  0  0  0
   -6.0351    9.6969    0.0000 H   0  0  0  0  0  0  0  0  0  0  0  0
   -6.8364   11.4509    0.0000 H   0  0  0  0  0  0  0  0  0  0  0  0
   -5.2481   12.5446    0.0000 C   0  0  0  0  0  0  0  0  0  0  0  0
   -4.6036   13.8991    0.0000 H   0  0  0  0  0  0  0  0  0  0  0  0
   -3.8023   12.1451    0.0000 H   0  0  0  0  0  0  0  0  0  0  0  0
   -6.4701   13.4146    0.0000 O   0  0  0  0  0  0  0  0  0  0  0  0
   -6.3277   14.9078    0.0000 H   0  0  0  0  0  0  0  0  0  0  0  0
  1  2  1  0  0  0  0 
  1  3  1  0  0  0  0 
  1  4  1  0  0  0  0 
  1  5  1  0  0  0  0 
  5  6  1  0  0  0  0 
  5  7  1  0  0  0  0 
  5  8  1  0  0  0  0 
  8  9  1  0  0  0  0 
  8 10  1  0  0  0  0 
  8 11  1  0  0  0  0 
 11 12  1  0  0  0  0 
 12 13  2  0  0  0  0 
 13 14  1  0  0  0  0 
 14 15  2  0  0  0  0 
 15 16  1  0  0  0  0 
 16 17  2  0  0  0  0 
 12 17  1  0  0  0  0 
 16 18  1  0  0  0  0 
 18 19  1  0  0  0  0 
 20 18  1  1  0  0  0 
 20 21  1  6  0  0  0 
 20 22  1  0  0  0  0 
 22 23  1  0  0  0  0 
 22 24  1  0  0  0  0 
 22 25  1  0  0  0  0 
 20 25  1  0  0  0  0 
 25 26  1  1  0  0  0 
 25 27  1  6  0  0  0 
 27 28  2  0  0  0  0 
 28 29  1  0  0  0  0 
 28 30  1  0  0  0  0 
 30 31  1  0  0  0  0 
 30 32  2  0  0  0  0 
 32 33  1  0  0  0  0 
 33 34  2  0  0  0  0 
 27 34  1  0  0  0  0 
 34 35  1  0  0  0  0 
 33 36  1  0  0  0  0 
 32 37  1  0  0  0  0 
 15 38  1  0  0  0  0 
 38 39  2  0  0  0  0 
 39 40  1  0  0  0  0 
 14 40  1  0  0  0  0 
 41 40  1  6  0  0  0 
 41 42  1  1  0  0  0 
 41 43  1  0  0  0  0 
 43 44  1  0  0  0  0 
 43 45  1  0  0  0  0 
 43 46  1  0  0  0  0 
 46 47  1  1  0  0  0 
 46 48  1  0  0  0  0 
 48 49  1  0  0  0  0 
 41 49  1  0  0  0  0 
 49 50  1  6  0  0  0 
 49 51  1  1  0  0  0 
 51 52  1  0  0  0  0 
 48 53  1  1  0  0  0 
 53 54  1  0  0  0  0 
 48 55  1  6  0  0  0 
 55 56  1  0  0  0  0 
 46 57  1  6  0  0  0 
 57 58  1  0  0  0  0 
 58 59  1  0  0  0  0 
 58 60  1  0  0  0  0 
 58 61  1  0  0  0  0 
 61 62  1  0  0  0  0 
 61 63  1  0  0  0  0 
 61 64  1  0  0  0  0 
 64 65  1  0  0  0  0 
M  END
> <Rank>
44

> <Priority_score>
0.036

> <Reaction_type>
aliphatic hydroxylation

> <Parent_ID>
20

> <Parent_InChI>
InChI=1S/C23H28F2N6O4S/c1-2-7-36-23-27-21(26-15-9-12(15)11-3-4-13(24)14(25)8-11)18-22(28-23)31(30-29-18)16-10-17(35-6-5-32)20(34)19(16)33/h3-4,8,12,15-17,19-20,32-34H,2,5-7,9-10H2,1H3,(H,26,27,28)

> <Parent_SMILES>
CCCSc1nc(N[C@@H]2C[C@H]2c2ccc(F)c(F)c2)c2nnn([C@@H]3C[C@H](OCCO)[C@@H](O)[C@H]3O)c2n1

$$$$
Molecule 20_metabolite 47
  CDK     0516241031

 62 66  0  0  0  0  0  0  0  0999 V2000
   -7.6627   -1.2246    0.0000 C   0  0  0  0  0  0  0  0  0  0  0  0
   -8.9582   -1.9807    0.0000 H   0  0  0  0  0  0  0  0  0  0  0  0
   -6.7039   -0.0710    0.0000 H   0  0  0  0  0  0  0  0  0  0  0  0
   -8.6322   -0.0801    0.0000 H   0  0  0  0  0  0  0  0  0  0  0  0
   -6.3601   -1.9685    0.0000 C   0  0  0  0  0  0  0  0  0  0  0  0
   -6.3531   -3.4685    0.0000 H   0  0  0  0  0  0  0  0  0  0  0  0
   -5.0646   -1.2124    0.0000 C   0  0  0  0  0  0  0  0  0  0  0  0
   -5.0717    0.2876    0.0000 H   0  0  0  0  0  0  0  0  0  0  0  0
   -3.7621   -1.9563    0.0000 S   0  0  0  0  0  0  0  0  0  0  0  0
   -2.4666   -1.2002    0.0000 C   0  0  0  0  0  0  0  0  0  0  0  0
   -1.1566   -1.9402    0.0000 N   0  0  0  0  0  0  0  0  0  0  0  0
    0.1234   -1.2002    0.0000 C   0  0  0  0  0  0  0  0  0  0  0  0
    0.1234    0.3098    0.0000 C   0  0  0  0  0  0  0  0  0  0  0  0
   -1.1566    1.0298    0.0000 C   0  0  0  0  0  0  0  0  0  0  0  0
   -2.4666    0.3098    0.0000 N   0  0  0  0  0  0  0  0  0  0  0  0
   -1.1492    2.5298    0.0000 N   0  0  0  0  0  0  0  0  0  0  0  0
   -2.4445    3.2862    0.0000 H   0  0  0  0  0  0  0  0  0  0  0  0
    0.1535    3.2734    0.0000 C   0  0  2  0  0  0  0  0  0  0  0  0
    1.1119    2.1195    0.0000 H   0  0  0  0  0  0  0  0  0  0  0  0
   -0.3530    4.6862    0.0000 C   0  0  0  0  0  0  0  0  0  0  0  0
   -0.3451    6.1862    0.0000 H   0  0  0  0  0  0  0  0  0  0  0  0
   -1.8315    4.4331    0.0000 H   0  0  0  0  0  0  0  0  0  0  0  0
    1.1236    4.4175    0.0000 C   0  0  1  0  0  0  0  0  0  0  0  0
    2.4187    3.6607    0.0000 H   0  0  0  0  0  0  0  0  0  0  0  0
    1.8107    6.2745    0.0000 C   0  0  0  0  0  0  0  0  0  0  0  0
    0.8523    7.4295    0.0000 C   0  0  0  0  0  0  0  0  0  0  0  0
   -0.6262    7.1767    0.0000 H   0  0  0  0  0  0  0  0  0  0  0  0
    1.3725    8.8373    0.0000 C   0  0  0  0  0  0  0  0  0  0  0  0
    0.4141    9.9912    0.0000 H   0  0  0  0  0  0  0  0  0  0  0  0
    2.8511    9.0901    0.0000 C   0  0  0  0  0  0  0  0  0  0  0  0
    3.8094    7.9351    0.0000 C   0  0  0  0  0  0  0  0  0  0  0  0
    3.2893    6.5273    0.0000 C   0  0  0  0  0  0  0  0  0  0  0  0
    4.2477    5.3734    0.0000 H   0  0  0  0  0  0  0  0  0  0  0  0
    5.2880    8.1879    0.0000 F   0  0  0  0  0  0  0  0  0  0  0  0
    3.3716   10.4969    0.0000 F   0  0  0  0  0  0  0  0  0  0  0  0
    1.5434    0.7598    0.0000 N   0  0  0  0  0  0  0  0  0  0  0  0
    2.4234   -0.4602    0.0000 N   0  0  0  0  0  0  0  0  0  0  0  0
    1.5434   -1.6702    0.0000 N   0  0  0  0  0  0  0  0  0  0  0  0
    2.0027   -3.0981    0.0000 C   0  0  2  0  0  0  0  0  0  0  0  0
    0.5339   -3.4023    0.0000 H   0  0  0  0  0  0  0  0  0  0  0  0
    2.1485   -4.5931    0.0000 C   0  0  0  0  0  0  0  0  0  0  0  0
    0.6485   -4.5877    0.0000 H   0  0  0  0  0  0  0  0  0  0  0  0
    1.9923   -6.0849    0.0000 H   0  0  0  0  0  0  0  0  0  0  0  0
    3.6191   -4.8991    0.0000 C   0  0  1  0  0  0  0  0  0  0  0  0
    3.1584   -6.3267    0.0000 H   0  0  0  0  0  0  0  0  0  0  0  0
    4.3686   -3.6083    0.0000 C   0  0  2  0  0  0  0  0  0  0  0  0
    5.5802   -4.4927    0.0000 H   0  0  0  0  0  0  0  0  0  0  0  0
    3.3667   -2.4920    0.0000 C   0  0  1  0  0  0  0  0  0  0  0  0
    4.5814   -1.6119    0.0000 H   0  0  0  0  0  0  0  0  0  0  0  0
    2.6181   -1.1922    0.0000 O   0  0  0  0  0  0  0  0  0  0  0  0
    3.3694    0.1061    0.0000 H   0  0  0  0  0  0  0  0  0  0  0  0
    5.3745   -2.4955    0.0000 O   0  0  0  0  0  0  0  0  0  0  0  0
    6.8411   -2.8102    0.0000 H   0  0  0  0  0  0  0  0  0  0  0  0
    4.9893   -5.5096    0.0000 O   0  0  0  0  0  0  0  0  0  0  0  0
    5.1457   -7.0014    0.0000 C   0  0  0  0  0  0  0  0  0  0  0  0
    3.6494   -6.8964    0.0000 H   0  0  0  0  0  0  0  0  0  0  0  0
    4.7824   -8.4568    0.0000 H   0  0  0  0  0  0  0  0  0  0  0  0
    6.5159   -7.6119    0.0000 C   0  0  0  0  0  0  0  0  0  0  0  0
    8.0122   -7.7169    0.0000 H   0  0  0  0  0  0  0  0  0  0  0  0
    6.8791   -6.1565    0.0000 H   0  0  0  0  0  0  0  0  0  0  0  0
    6.6723   -9.1037    0.0000 O   0  0  0  0  0  0  0  0  0  0  0  0
    8.0424   -9.7141    0.0000 H   0  0  0  0  0  0  0  0  0  0  0  0
  1  2  1  0  0  0  0 
  1  3  1  0  0  0  0 
  1  4  1  0  0  0  0 
  1  5  1  0  0  0  0 
  5  6  1  4  0  0  0 
  5  7  2  0  0  0  0 
  7  8  1  0  0  0  0 
  7  9  1  0  0  0  0 
  9 10  1  0  0  0  0 
 10 11  2  0  0  0  0 
 11 12  1  0  0  0  0 
 12 13  2  0  0  0  0 
 13 14  1  0  0  0  0 
 14 15  2  0  0  0  0 
 10 15  1  0  0  0  0 
 14 16  1  0  0  0  0 
 16 17  1  0  0  0  0 
 18 16  1  6  0  0  0 
 18 19  1  1  0  0  0 
 18 20  1  0  0  0  0 
 20 21  1  0  0  0  0 
 20 22  1  0  0  0  0 
 20 23  1  0  0  0  0 
 18 23  1  0  0  0  0 
 23 24  1  6  0  0  0 
 23 25  1  1  0  0  0 
 25 26  2  0  0  0  0 
 26 27  1  0  0  0  0 
 26 28  1  0  0  0  0 
 28 29  1  0  0  0  0 
 28 30  2  0  0  0  0 
 30 31  1  0  0  0  0 
 31 32  2  0  0  0  0 
 25 32  1  0  0  0  0 
 32 33  1  0  0  0  0 
 31 34  1  0  0  0  0 
 30 35  1  0  0  0  0 
 13 36  1  0  0  0  0 
 36 37  2  0  0  0  0 
 37 38  1  0  0  0  0 
 12 38  1  0  0  0  0 
 39 38  1  1  0  0  0 
 39 40  1  6  0  0  0 
 39 41  1  0  0  0  0 
 41 42  1  0  0  0  0 
 41 43  1  0  0  0  0 
 41 44  1  0  0  0  0 
 44 45  1  6  0  0  0 
 44 46  1  0  0  0  0 
 46 47  1  1  0  0  0 
 46 48  1  0  0  0  0 
 39 48  1  0  0  0  0 
 48 49  1  1  0  0  0 
 48 50  1  6  0  0  0 
 50 51  1  0  0  0  0 
 46 52  1  6  0  0  0 
 52 53  1  0  0  0  0 
 44 54  1  1  0  0  0 
 54 55  1  0  0  0  0 
 55 56  1  0  0  0  0 
 55 57  1  0  0  0  0 
 55 58  1  0  0  0  0 
 58 59  1  0  0  0  0 
 58 60  1  0  0  0  0 
 58 61  1  0  0  0  0 
 61 62  1  0  0  0  0 
M  END
> <Rank>
47

> <Priority_score>
0.0352

> <Reaction_type>
alkyl dehydrogenation

> <Parent_ID>
20

> <Parent_InChI>
InChI=1S/C23H28F2N6O4S/c1-2-7-36-23-27-21(26-15-9-12(15)11-3-4-13(24)14(25)8-11)18-22(28-23)31(30-29-18)16-10-17(35-6-5-32)20(34)19(16)33/h3-4,8,12,15-17,19-20,32-34H,2,5-7,9-10H2,1H3,(H,26,27,28)

> <Parent_SMILES>
CCCSc1nc(N[C@@H]2C[C@H]2c2ccc(F)c(F)c2)c2nnn([C@@H]3C[C@H](OCCO)[C@@H](O)[C@H]3O)c2n1

$$$$
Molecule 20_metabolite 48
  CDK     0516241031

 85 90  0  0  0  0  0  0  0  0999 V2000
   -0.5466    6.3486    0.0000 C   0  0  0  0  0  0  0  0  0  0  0  0
   -0.5080    7.8481    0.0000 H   0  0  0  0  0  0  0  0  0  0  0  0
   -1.0957    4.9528    0.0000 H   0  0  0  0  0  0  0  0  0  0  0  0
   -2.0166    6.6470    0.0000 H   0  0  0  0  0  0  0  0  0  0  0  0
    0.7327    5.5654    0.0000 C   0  0  0  0  0  0  0  0  0  0  0  0
    1.2819    6.9613    0.0000 H   0  0  0  0  0  0  0  0  0  0  0  0
    2.2027    5.2670    0.0000 H   0  0  0  0  0  0  0  0  0  0  0  0
    0.6941    4.0659    0.0000 C   0  0  0  0  0  0  0  0  0  0  0  0
    1.1707    2.6437    0.0000 H   0  0  0  0  0  0  0  0  0  0  0  0
    2.1775    4.2883    0.0000 H   0  0  0  0  0  0  0  0  0  0  0  0
   -0.6238    3.3496    0.0000 S   0  0  0  0  0  0  0  0  0  0  0  0
   -0.6624    1.8501    0.0000 C   0  0  0  0  0  0  0  0  0  0  0  0
    0.6171    1.0585    0.0000 N   0  0  0  0  0  0  0  0  0  0  0  0
    0.5851   -0.4196    0.0000 C   0  0  0  0  0  0  0  0  0  0  0  0
   -0.7382   -1.1470    0.0000 C   0  0  0  0  0  0  0  0  0  0  0  0
   -1.9857   -0.3720    0.0000 C   0  0  0  0  0  0  0  0  0  0  0  0
   -1.9857    1.1228    0.0000 N   0  0  0  0  0  0  0  0  0  0  0  0
   -4.1031    2.3752    0.0000 C   0  0  0  0  0  0  0  0  0  0  0  0
   -3.1270    3.5141    0.0000 H   0  0  0  0  0  0  0  0  0  0  0  0
   -5.0554    3.5341    0.0000 C   0  0  0  0  0  0  0  0  0  0  0  0
   -3.7487    4.2708    0.0000 H   0  0  0  0  0  0  0  0  0  0  0  0
   -6.5359    3.2883    0.0000 C   0  0  0  0  0  0  0  0  0  0  0  0
   -6.5206    4.7882    0.0000 H   0  0  0  0  0  0  0  0  0  0  0  0
   -7.0642    1.8835    0.0000 C   0  0  0  0  0  0  0  0  0  0  0  0
   -8.3553    2.6471    0.0000 H   0  0  0  0  0  0  0  0  0  0  0  0
   -6.1119    0.7245    0.0000 C   0  0  0  0  0  0  0  0  0  0  0  0
   -7.4186   -0.0122    0.0000 H   0  0  0  0  0  0  0  0  0  0  0  0
   -5.6132   -0.6901    0.0000 C   0  0  0  0  0  0  0  0  0  0  0  0
   -4.1386   -0.9655    0.0000 O   0  0  0  0  0  0  0  0  0  0  0  0
   -6.5889   -1.8294    0.0000 O   0  0  0  0  0  0  0  0  0  0  0  0
   -8.0634   -1.5540    0.0000 H   0  0  0  0  0  0  0  0  0  0  0  0
   -4.6314    0.9704    0.0000 O   0  0  0  0  0  0  0  0  0  0  0  0
   -8.0403    0.7445    0.0000 O   0  0  0  0  0  0  0  0  0  0  0  0
   -9.5147    1.0204    0.0000 H   0  0  0  0  0  0  0  0  0  0  0  0
   -8.0103    3.5641    0.0000 O   0  0  0  0  0  0  0  0  0  0  0  0
   -8.5087    4.9789    0.0000 H   0  0  0  0  0  0  0  0  0  0  0  0
   -5.5541    4.9488    0.0000 O   0  0  0  0  0  0  0  0  0  0  0  0
   -4.5784    6.0880    0.0000 H   0  0  0  0  0  0  0  0  0  0  0  0
   -3.2967   -1.1010    0.0000 N   0  0  0  0  0  0  0  0  0  0  0  0
   -4.5835   -0.3301    0.0000 H   0  0  0  0  0  0  0  0  0  0  0  0
   -3.3286   -3.0807    0.0000 C   0  0  2  0  0  0  0  0  0  0  0  0
   -1.8558   -3.3648    0.0000 H   0  0  0  0  0  0  0  0  0  0  0  0
   -4.8107   -3.3173    0.0000 C   0  0  0  0  0  0  0  0  0  0  0  0
   -6.1214   -4.0467    0.0000 H   0  0  0  0  0  0  0  0  0  0  0  0
   -5.3011   -1.8997    0.0000 H   0  0  0  0  0  0  0  0  0  0  0  0
   -3.8640   -4.4819    0.0000 C   0  0  1  0  0  0  0  0  0  0  0  0
   -2.5770   -5.2523    0.0000 H   0  0  0  0  0  0  0  0  0  0  0  0
   -5.1604   -5.9785    0.0000 C   0  0  0  0  0  0  0  0  0  0  0  0
   -6.6342   -5.6949    0.0000 C   0  0  0  0  0  0  0  0  0  0  0  0
   -7.1248   -4.2774    0.0000 H   0  0  0  0  0  0  0  0  0  0  0  0
   -7.6174   -6.8289    0.0000 C   0  0  0  0  0  0  0  0  0  0  0  0
   -9.0902   -6.5448    0.0000 H   0  0  0  0  0  0  0  0  0  0  0  0
   -7.1268   -8.2464    0.0000 C   0  0  0  0  0  0  0  0  0  0  0  0
   -5.6530   -8.5299    0.0000 C   0  0  0  0  0  0  0  0  0  0  0  0
   -4.6698   -7.3960    0.0000 C   0  0  0  0  0  0  0  0  0  0  0  0
   -3.1969   -7.6801    0.0000 H   0  0  0  0  0  0  0  0  0  0  0  0
   -5.1624   -9.9474    0.0000 F   0  0  0  0  0  0  0  0  0  0  0  0
   -8.1089   -9.3802    0.0000 F   0  0  0  0  0  0  0  0  0  0  0  0
   -0.4486   -2.6081    0.0000 N   0  0  0  0  0  0  0  0  0  0  0  0
    1.0444   -2.7917    0.0000 N   0  0  0  0  0  0  0  0  0  0  0  0
    1.6809   -1.4377    0.0000 N   0  0  0  0  0  0  0  0  0  0  0  0
    3.1535   -1.1524    0.0000 C   0  0  2  0  0  0  0  0  0  0  0  0
    2.7126    0.2814    0.0000 H   0  0  0  0  0  0  0  0  0  0  0  0
    4.5339   -0.5601    0.0000 C   0  0  0  0  0  0  0  0  0  0  0  0
    3.8067    0.7518    0.0000 H   0  0  0  0  0  0  0  0  0  0  0  0
    5.7660    0.2954    0.0000 H   0  0  0  0  0  0  0  0  0  0  0  0
    5.5104   -1.7014    0.0000 C   0  0  1  0  0  0  0  0  0  0  0  0
    6.5396   -0.6102    0.0000 H   0  0  0  0  0  0  0  0  0  0  0  0
    4.7403   -2.9800    0.0000 C   0  0  2  0  0  0  0  0  0  0  0  0
    6.0988   -3.6159    0.0000 H   0  0  0  0  0  0  0  0  0  0  0  0
    3.2794   -2.6397    0.0000 C   0  0  1  0  0  0  0  0  0  0  0  0
    3.0932   -4.1281    0.0000 H   0  0  0  0  0  0  0  0  0  0  0  0
    1.7797   -2.6097    0.0000 O   0  0  0  0  0  0  0  0  0  0  0  0
    1.0038   -3.8934    0.0000 H   0  0  0  0  0  0  0  0  0  0  0  0
    4.2495   -4.3975    0.0000 O   0  0  0  0  0  0  0  0  0  0  0  0
    5.2317   -5.5312    0.0000 H   0  0  0  0  0  0  0  0  0  0  0  0
    6.7054   -2.6082    0.0000 O   0  0  0  0  0  0  0  0  0  0  0  0
    8.0881   -2.0267    0.0000 C   0  0  0  0  0  0  0  0  0  0  0  0
    7.2753   -0.7660    0.0000 H   0  0  0  0  0  0  0  0  0  0  0  0
    9.1885   -1.0074    0.0000 H   0  0  0  0  0  0  0  0  0  0  0  0
    9.2830   -2.9334    0.0000 C   0  0  0  0  0  0  0  0  0  0  0  0
   10.0957   -4.1942    0.0000 H   0  0  0  0  0  0  0  0  0  0  0  0
    8.1825   -3.9527    0.0000 H   0  0  0  0  0  0  0  0  0  0  0  0
   10.6657   -2.3520    0.0000 O   0  0  0  0  0  0  0  0  0  0  0  0
   11.8606   -3.2587    0.0000 H   0  0  0  0  0  0  0  0  0  0  0  0
  1  2  1  0  0  0  0 
  1  3  1  0  0  0  0 
  1  4  1  0  0  0  0 
  1  5  1  0  0  0  0 
  5  6  1  0  0  0  0 
  5  7  1  0  0  0  0 
  5  8  1  0  0  0  0 
  8  9  1  0  0  0  0 
  8 10  1  0  0  0  0 
  8 11  1  0  0  0  0 
 11 12  1  0  0  0  0 
 12 13  2  0  0  0  0 
 13 14  1  0  0  0  0 
 14 15  2  0  0  0  0 
 15 16  1  0  0  0  0 
 16 17  2  0  0  0  0 
 12 17  1  0  0  0  0 
 17 18  1  0  0  0  0 
 18 19  1  0  0  0  0 
 18 20  1  0  0  0  0 
 20 21  1  0  0  0  0 
 20 22  1  0  0  0  0 
 22 23  1  0  0  0  0 
 22 24  1  0  0  0  0 
 24 25  1  0  0  0  0 
 24 26  1  0  0  0  0 
 26 27  1  0  0  0  0 
 26 28  1  0  0  0  0 
 28 29  2  0  0  0  0 
 28 30  1  0  0  0  0 
 30 31  1  0  0  0  0 
 26 32  1  0  0  0  0 
 18 32  1  0  0  0  0 
 24 33  1  0  0  0  0 
 33 34  1  0  0  0  0 
 22 35  1  0  0  0  0 
 35 36  1  0  0  0  0 
 20 37  1  0  0  0  0 
 37 38  1  0  0  0  0 
 16 39  1  0  0  0  0 
 39 40  1  0  0  0  0 
 41 39  1  1  0  0  0 
 41 42  1  6  0  0  0 
 41 43  1  0  0  0  0 
 43 44  1  0  0  0  0 
 43 45  1  0  0  0  0 
 43 46  1  0  0  0  0 
 41 46  1  0  0  0  0 
 46 47  1  1  0  0  0 
 46 48  1  6  0  0  0 
 48 49  2  0  0  0  0 
 49 50  1  0  0  0  0 
 49 51  1  0  0  0  0 
 51 52  1  0  0  0  0 
 51 53  2  0  0  0  0 
 53 54  1  0  0  0  0 
 54 55  2  0  0  0  0 
 48 55  1  0  0  0  0 
 55 56  1  0  0  0  0 
 54 57  1  0  0  0  0 
 53 58  1  0  0  0  0 
 15 59  1  0  0  0  0 
 59 60  2  0  0  0  0 
 60 61  1  0  0  0  0 
 14 61  1  0  0  0  0 
 62 61  1  6  0  0  0 
 62 63  1  1  0  0  0 
 62 64  1  0  0  0  0 
 64 65  1  0  0  0  0 
 64 66  1  0  0  0  0 
 64 67  1  0  0  0  0 
 67 68  1  1  0  0  0 
 67 69  1  0  0  0  0 
 69 70  1  6  0  0  0 
 69 71  1  0  0  0  0 
 62 71  1  0  0  0  0 
 71 72  1  6  0  0  0 
 71 73  1  1  0  0  0 
 73 74  1  0  0  0  0 
 69 75  1  1  0  0  0 
 75 76  1  0  0  0  0 
 67 77  1  6  0  0  0 
 77 78  1  0  0  0  0 
 78 79  1  0  0  0  0 
 78 80  1  0  0  0  0 
 78 81  1  0  0  0  0 
 81 82  1  0  0  0  0 
 81 83  1  0  0  0  0 
 81 84  1  0  0  0  0 
 84 85  1  0  0  0  0 
M  CHG  1  17   1
M  END
> <Rank>
48

> <Priority_score>
0.032

> <Reaction_type>
N-glucuronidation_(aromatic_=n-)

> <Parent_ID>
20

> <Parent_InChI>
InChI=1S/C23H28F2N6O4S/c1-2-7-36-23-27-21(26-15-9-12(15)11-3-4-13(24)14(25)8-11)18-22(28-23)31(30-29-18)16-10-17(35-6-5-32)20(34)19(16)33/h3-4,8,12,15-17,19-20,32-34H,2,5-7,9-10H2,1H3,(H,26,27,28)

> <Parent_SMILES>
CCCSc1nc(N[C@@H]2C[C@H]2c2ccc(F)c(F)c2)c2nnn([C@@H]3C[C@H](OCCO)[C@@H](O)[C@H]3O)c2n1

$$$$
Molecule 20_metabolite 49
  CDK     0516241031

 65 69  0  0  0  0  0  0  0  0999 V2000
   -7.9700   -0.6980    0.0000 C   0  0  0  0  0  0  0  0  0  0  0  0
   -9.2655   -1.4541    0.0000 H   0  0  0  0  0  0  0  0  0  0  0  0
   -7.0112    0.4555    0.0000 H   0  0  0  0  0  0  0  0  0  0  0  0
   -8.9396    0.4465    0.0000 H   0  0  0  0  0  0  0  0  0  0  0  0
   -6.6674   -1.4419    0.0000 C   0  0  0  0  0  0  0  0  0  0  0  0
   -7.6262   -2.5955    0.0000 H   0  0  0  0  0  0  0  0  0  0  0  0
   -5.6979   -2.5865    0.0000 H   0  0  0  0  0  0  0  0  0  0  0  0
   -5.3719   -0.6858    0.0000 C   0  0  0  0  0  0  0  0  0  0  0  0
   -3.8960   -0.4184    0.0000 H   0  0  0  0  0  0  0  0  0  0  0  0
   -4.8523   -2.0930    0.0000 H   0  0  0  0  0  0  0  0  0  0  0  0
   -5.3790    0.8141    0.0000 S   0  0  0  0  0  0  0  0  0  0  0  0
   -4.0835    1.5702    0.0000 C   0  0  0  0  0  0  0  0  0  0  0  0
   -4.0835    3.0748    0.0000 N   0  0  0  0  0  0  0  0  0  0  0  0
   -2.8096    3.8253    0.0000 C   0  0  0  0  0  0  0  0  0  0  0  0
   -1.4949    3.0826    0.0000 C   0  0  0  0  0  0  0  0  0  0  0  0
   -1.4975    1.6140    0.0000 C   0  0  0  0  0  0  0  0  0  0  0  0
   -2.7687    0.8276    0.0000 N   0  0  0  0  0  0  0  0  0  0  0  0
   -0.1879    0.8827    0.0000 N   0  0  0  0  0  0  0  0  0  0  0  0
   -0.1664   -0.6171    0.0000 H   0  0  0  0  0  0  0  0  0  0  0  0
    1.1003    1.6512    0.0000 C   0  0  2  0  0  0  0  0  0  0  0  0
    0.5670    3.0532    0.0000 H   0  0  0  0  0  0  0  0  0  0  0  0
    2.0812    0.5154    0.0000 C   0  0  0  0  0  0  0  0  0  0  0  0
    3.3911   -0.2155    0.0000 H   0  0  0  0  0  0  0  0  0  0  0  0
    1.1337   -0.6475    0.0000 H   0  0  0  0  0  0  0  0  0  0  0  0
    2.5735    1.9332    0.0000 C   0  0  1  0  0  0  0  0  0  0  0  0
    2.5516    3.4330    0.0000 H   0  0  0  0  0  0  0  0  0  0  0  0
    4.5283    1.6181    0.0000 C   0  0  0  0  0  0  0  0  0  0  0  0
    5.0623    0.2164    0.0000 C   0  0  0  0  0  0  0  0  0  0  0  0
    4.1155   -0.9471    0.0000 H   0  0  0  0  0  0  0  0  0  0  0  0
    6.5441   -0.0217    0.0000 C   0  0  0  0  0  0  0  0  0  0  0  0
    7.0781   -1.4234    0.0000 H   0  0  0  0  0  0  0  0  0  0  0  0
    7.4920    1.1420    0.0000 C   0  0  0  0  0  0  0  0  0  0  0  0
    6.9580    2.5437    0.0000 C   0  0  0  0  0  0  0  0  0  0  0  0
    5.4762    2.7818    0.0000 C   0  0  0  0  0  0  0  0  0  0  0  0
    4.9422    4.1835    0.0000 H   0  0  0  0  0  0  0  0  0  0  0  0
    7.9047    3.7072    0.0000 F   0  0  0  0  0  0  0  0  0  0  0  0
    8.9729    0.9033    0.0000 O   0  0  0  0  0  0  0  0  0  0  0  0
    9.9200    2.0665    0.0000 H   0  0  0  0  0  0  0  0  0  0  0  0
   -0.4047    4.0977    0.0000 N   0  0  0  0  0  0  0  0  0  0  0  0
   -1.0341    5.4639    0.0000 N   0  0  0  0  0  0  0  0  0  0  0  0
   -2.5204    5.2929    0.0000 N   0  0  0  0  0  0  0  0  0  0  0  0
   -3.5378    6.3951    0.0000 C   0  0  2  0  0  0  0  0  0  0  0  0
   -4.5251    5.2658    0.0000 H   0  0  0  0  0  0  0  0  0  0  0  0
   -4.7678    7.2573    0.0000 C   0  0  0  0  0  0  0  0  0  0  0  0
   -5.5009    5.9487    0.0000 H   0  0  0  0  0  0  0  0  0  0  0  0
   -6.1436    7.8550    0.0000 H   0  0  0  0  0  0  0  0  0  0  0  0
   -4.3110    8.6883    0.0000 C   0  0  1  0  0  0  0  0  0  0  0  0
   -5.7805    8.9893    0.0000 H   0  0  0  0  0  0  0  0  0  0  0  0
   -2.8184    8.7060    0.0000 C   0  0  2  0  0  0  0  0  0  0  0  0
   -2.9925   10.1959    0.0000 H   0  0  0  0  0  0  0  0  0  0  0  0
   -2.3392    7.2846    0.0000 C   0  0  1  0  0  0  0  0  0  0  0  0
   -0.9755    7.9094    0.0000 H   0  0  0  0  0  0  0  0  0  0  0  0
   -1.5757    5.9935    0.0000 O   0  0  0  0  0  0  0  0  0  0  0  0
   -0.0758    6.0091    0.0000 H   0  0  0  0  0  0  0  0  0  0  0  0
   -1.3548    9.0344    0.0000 O   0  0  0  0  0  0  0  0  0  0  0  0
   -0.9075   10.4662    0.0000 H   0  0  0  0  0  0  0  0  0  0  0  0
   -4.1686   10.1815    0.0000 O   0  0  0  0  0  0  0  0  0  0  0  0
   -5.3905   11.0514    0.0000 C   0  0  0  0  0  0  0  0  0  0  0  0
   -6.0351    9.6969    0.0000 H   0  0  0  0  0  0  0  0  0  0  0  0
   -6.8364   11.4509    0.0000 H   0  0  0  0  0  0  0  0  0  0  0  0
   -5.2481   12.5446    0.0000 C   0  0  0  0  0  0  0  0  0  0  0  0
   -4.6036   13.8991    0.0000 H   0  0  0  0  0  0  0  0  0  0  0  0
   -3.8023   12.1451    0.0000 H   0  0  0  0  0  0  0  0  0  0  0  0
   -6.4701   13.4146    0.0000 O   0  0  0  0  0  0  0  0  0  0  0  0
   -6.3277   14.9078    0.0000 H   0  0  0  0  0  0  0  0  0  0  0  0
  1  2  1  0  0  0  0 
  1  3  1  0  0  0  0 
  1  4  1  0  0  0  0 
  1  5  1  0  0  0  0 
  5  6  1  0  0  0  0 
  5  7  1  0  0  0  0 
  5  8  1  0  0  0  0 
  8  9  1  0  0  0  0 
  8 10  1  0  0  0  0 
  8 11  1  0  0  0  0 
 11 12  1  0  0  0  0 
 12 13  2  0  0  0  0 
 13 14  1  0  0  0  0 
 14 15  2  0  0  0  0 
 15 16  1  0  0  0  0 
 16 17  2  0  0  0  0 
 12 17  1  0  0  0  0 
 16 18  1  0  0  0  0 
 18 19  1  0  0  0  0 
 20 18  1  1  0  0  0 
 20 21  1  6  0  0  0 
 20 22  1  0  0  0  0 
 22 23  1  0  0  0  0 
 22 24  1  0  0  0  0 
 22 25  1  0  0  0  0 
 20 25  1  0  0  0  0 
 25 26  1  1  0  0  0 
 25 27  1  6  0  0  0 
 27 28  2  0  0  0  0 
 28 29  1  0  0  0  0 
 28 30  1  0  0  0  0 
 30 31  1  0  0  0  0 
 30 32  2  0  0  0  0 
 32 33  1  0  0  0  0 
 33 34  2  0  0  0  0 
 27 34  1  0  0  0  0 
 34 35  1  0  0  0  0 
 33 36  1  0  0  0  0 
 32 37  1  0  0  0  0 
 37 38  1  0  0  0  0 
 15 39  1  0  0  0  0 
 39 40  2  0  0  0  0 
 40 41  1  0  0  0  0 
 14 41  1  0  0  0  0 
 42 41  1  6  0  0  0 
 42 43  1  1  0  0  0 
 42 44  1  0  0  0  0 
 44 45  1  0  0  0  0 
 44 46  1  0  0  0  0 
 44 47  1  0  0  0  0 
 47 48  1  1  0  0  0 
 47 49  1  0  0  0  0 
 49 50  1  6  0  0  0 
 49 51  1  0  0  0  0 
 42 51  1  0  0  0  0 
 51 52  1  6  0  0  0 
 51 53  1  1  0  0  0 
 53 54  1  0  0  0  0 
 49 55  1  1  0  0  0 
 55 56  1  0  0  0  0 
 47 57  1  6  0  0  0 
 57 58  1  0  0  0  0 
 58 59  1  0  0  0  0 
 58 60  1  0  0  0  0 
 58 61  1  0  0  0  0 
 61 62  1  0  0  0  0 
 61 63  1  0  0  0  0 
 61 64  1  0  0  0  0 
 64 65  1  0  0  0  0 
M  END
> <Rank>
49

> <Priority_score>
0.0208

> <Reaction_type>
oxidative dehalogenation benzyl

> <Parent_ID>
20

> <Parent_InChI>
InChI=1S/C23H28F2N6O4S/c1-2-7-36-23-27-21(26-15-9-12(15)11-3-4-13(24)14(25)8-11)18-22(28-23)31(30-29-18)16-10-17(35-6-5-32)20(34)19(16)33/h3-4,8,12,15-17,19-20,32-34H,2,5-7,9-10H2,1H3,(H,26,27,28)

> <Parent_SMILES>
CCCSc1nc(N[C@@H]2C[C@H]2c2ccc(F)c(F)c2)c2nnn([C@@H]3C[C@H](OCCO)[C@@H](O)[C@H]3O)c2n1

$$$$
Molecule 20_metabolite 50
  CDK     0516241031

 62 66  0  0  0  0  0  0  0  0999 V2000
   -7.6627   -1.2246    0.0000 C   0  0  0  0  0  0  0  0  0  0  0  0
   -8.9582   -1.9807    0.0000 H   0  0  0  0  0  0  0  0  0  0  0  0
   -7.6697    0.2754    0.0000 H   0  0  0  0  0  0  0  0  0  0  0  0
   -6.3601   -1.9685    0.0000 C   0  0  0  0  0  0  0  0  0  0  0  0
   -6.3531   -3.4685    0.0000 H   0  0  0  0  0  0  0  0  0  0  0  0
   -5.0646   -1.2124    0.0000 C   0  0  0  0  0  0  0  0  0  0  0  0
   -4.1059   -0.0588    0.0000 H   0  0  0  0  0  0  0  0  0  0  0  0
   -6.0342   -0.0679    0.0000 H   0  0  0  0  0  0  0  0  0  0  0  0
   -3.7621   -1.9563    0.0000 S   0  0  0  0  0  0  0  0  0  0  0  0
   -2.4666   -1.2002    0.0000 C   0  0  0  0  0  0  0  0  0  0  0  0
   -1.1566   -1.9402    0.0000 N   0  0  0  0  0  0  0  0  0  0  0  0
    0.1234   -1.2002    0.0000 C   0  0  0  0  0  0  0  0  0  0  0  0
    0.1234    0.3098    0.0000 C   0  0  0  0  0  0  0  0  0  0  0  0
   -1.1566    1.0298    0.0000 C   0  0  0  0  0  0  0  0  0  0  0  0
   -2.4666    0.3098    0.0000 N   0  0  0  0  0  0  0  0  0  0  0  0
   -1.1492    2.5298    0.0000 N   0  0  0  0  0  0  0  0  0  0  0  0
   -2.4445    3.2862    0.0000 H   0  0  0  0  0  0  0  0  0  0  0  0
    0.1535    3.2734    0.0000 C   0  0  2  0  0  0  0  0  0  0  0  0
    1.1119    2.1195    0.0000 H   0  0  0  0  0  0  0  0  0  0  0  0
   -0.3530    4.6862    0.0000 C   0  0  0  0  0  0  0  0  0  0  0  0
   -0.3451    6.1862    0.0000 H   0  0  0  0  0  0  0  0  0  0  0  0
   -1.8315    4.4331    0.0000 H   0  0  0  0  0  0  0  0  0  0  0  0
    1.1236    4.4175    0.0000 C   0  0  1  0  0  0  0  0  0  0  0  0
    2.4187    3.6607    0.0000 H   0  0  0  0  0  0  0  0  0  0  0  0
    1.8107    6.2745    0.0000 C   0  0  0  0  0  0  0  0  0  0  0  0
    0.8523    7.4295    0.0000 C   0  0  0  0  0  0  0  0  0  0  0  0
   -0.6262    7.1767    0.0000 H   0  0  0  0  0  0  0  0  0  0  0  0
    1.3725    8.8373    0.0000 C   0  0  0  0  0  0  0  0  0  0  0  0
    0.4141    9.9912    0.0000 H   0  0  0  0  0  0  0  0  0  0  0  0
    2.8511    9.0901    0.0000 C   0  0  0  0  0  0  0  0  0  0  0  0
    3.8094    7.9351    0.0000 C   0  0  0  0  0  0  0  0  0  0  0  0
    3.2893    6.5273    0.0000 C   0  0  0  0  0  0  0  0  0  0  0  0
    4.2477    5.3734    0.0000 H   0  0  0  0  0  0  0  0  0  0  0  0
    5.2880    8.1879    0.0000 F   0  0  0  0  0  0  0  0  0  0  0  0
    3.3716   10.4969    0.0000 F   0  0  0  0  0  0  0  0  0  0  0  0
    1.5434    0.7598    0.0000 N   0  0  0  0  0  0  0  0  0  0  0  0
    2.4234   -0.4602    0.0000 N   0  0  0  0  0  0  0  0  0  0  0  0
    1.5434   -1.6702    0.0000 N   0  0  0  0  0  0  0  0  0  0  0  0
    2.0027   -3.0981    0.0000 C   0  0  2  0  0  0  0  0  0  0  0  0
    0.5339   -3.4023    0.0000 H   0  0  0  0  0  0  0  0  0  0  0  0
    2.1485   -4.5931    0.0000 C   0  0  0  0  0  0  0  0  0  0  0  0
    0.6485   -4.5877    0.0000 H   0  0  0  0  0  0  0  0  0  0  0  0
    1.9923   -6.0849    0.0000 H   0  0  0  0  0  0  0  0  0  0  0  0
    3.6191   -4.8991    0.0000 C   0  0  1  0  0  0  0  0  0  0  0  0
    3.1584   -6.3267    0.0000 H   0  0  0  0  0  0  0  0  0  0  0  0
    4.3686   -3.6083    0.0000 C   0  0  2  0  0  0  0  0  0  0  0  0
    5.5802   -4.4927    0.0000 H   0  0  0  0  0  0  0  0  0  0  0  0
    3.3667   -2.4920    0.0000 C   0  0  1  0  0  0  0  0  0  0  0  0
    4.5814   -1.6119    0.0000 H   0  0  0  0  0  0  0  0  0  0  0  0
    2.6181   -1.1922    0.0000 O   0  0  0  0  0  0  0  0  0  0  0  0
    3.3694    0.1061    0.0000 H   0  0  0  0  0  0  0  0  0  0  0  0
    5.3745   -2.4955    0.0000 O   0  0  0  0  0  0  0  0  0  0  0  0
    6.8411   -2.8102    0.0000 H   0  0  0  0  0  0  0  0  0  0  0  0
    4.9893   -5.5096    0.0000 O   0  0  0  0  0  0  0  0  0  0  0  0
    5.1457   -7.0014    0.0000 C   0  0  0  0  0  0  0  0  0  0  0  0
    3.6494   -6.8964    0.0000 H   0  0  0  0  0  0  0  0  0  0  0  0
    4.7824   -8.4568    0.0000 H   0  0  0  0  0  0  0  0  0  0  0  0
    6.5159   -7.6119    0.0000 C   0  0  0  0  0  0  0  0  0  0  0  0
    8.0122   -7.7169    0.0000 H   0  0  0  0  0  0  0  0  0  0  0  0
    6.8791   -6.1565    0.0000 H   0  0  0  0  0  0  0  0  0  0  0  0
    6.6723   -9.1037    0.0000 O   0  0  0  0  0  0  0  0  0  0  0  0
    8.0424   -9.7141    0.0000 H   0  0  0  0  0  0  0  0  0  0  0  0
  1  2  1  0  0  0  0 
  1  3  1  0  0  0  0 
  1  4  2  0  0  0  0 
  4  5  1  0  0  0  0 
  4  6  1  0  0  0  0 
  6  7  1  0  0  0  0 
  6  8  1  0  0  0  0 
  6  9  1  0  0  0  0 
  9 10  1  0  0  0  0 
 10 11  2  0  0  0  0 
 11 12  1  0  0  0  0 
 12 13  2  0  0  0  0 
 13 14  1  0  0  0  0 
 14 15  2  0  0  0  0 
 10 15  1  0  0  0  0 
 14 16  1  0  0  0  0 
 16 17  1  0  0  0  0 
 18 16  1  6  0  0  0 
 18 19  1  1  0  0  0 
 18 20  1  0  0  0  0 
 20 21  1  0  0  0  0 
 20 22  1  0  0  0  0 
 20 23  1  0  0  0  0 
 18 23  1  0  0  0  0 
 23 24  1  6  0  0  0 
 23 25  1  1  0  0  0 
 25 26  2  0  0  0  0 
 26 27  1  0  0  0  0 
 26 28  1  0  0  0  0 
 28 29  1  0  0  0  0 
 28 30  2  0  0  0  0 
 30 31  1  0  0  0  0 
 31 32  2  0  0  0  0 
 25 32  1  0  0  0  0 
 32 33  1  0  0  0  0 
 31 34  1  0  0  0  0 
 30 35  1  0  0  0  0 
 13 36  1  0  0  0  0 
 36 37  2  0  0  0  0 
 37 38  1  0  0  0  0 
 12 38  1  0  0  0  0 
 39 38  1  1  0  0  0 
 39 40  1  6  0  0  0 
 39 41  1  0  0  0  0 
 41 42  1  0  0  0  0 
 41 43  1  0  0  0  0 
 41 44  1  0  0  0  0 
 44 45  1  6  0  0  0 
 44 46  1  0  0  0  0 
 46 47  1  1  0  0  0 
 46 48  1  0  0  0  0 
 39 48  1  0  0  0  0 
 48 49  1  1  0  0  0 
 48 50  1  6  0  0  0 
 50 51  1  0  0  0  0 
 46 52  1  6  0  0  0 
 52 53  1  0  0  0  0 
 44 54  1  1  0  0  0 
 54 55  1  0  0  0  0 
 55 56  1  0  0  0  0 
 55 57  1  0  0  0  0 
 55 58  1  0  0  0  0 
 58 59  1  0  0  0  0 
 58 60  1  0  0  0  0 
 58 61  1  0  0  0  0 
 61 62  1  0  0  0  0 
M  END
> <Rank>
49

> <Priority_score>
0.0208

> <Reaction_type>
alkyl dehydrogenation

> <Parent_ID>
20

> <Parent_InChI>
InChI=1S/C23H28F2N6O4S/c1-2-7-36-23-27-21(26-15-9-12(15)11-3-4-13(24)14(25)8-11)18-22(28-23)31(30-29-18)16-10-17(35-6-5-32)20(34)19(16)33/h3-4,8,12,15-17,19-20,32-34H,2,5-7,9-10H2,1H3,(H,26,27,28)

> <Parent_SMILES>
CCCSc1nc(N[C@@H]2C[C@H]2c2ccc(F)c(F)c2)c2nnn([C@@H]3C[C@H](OCCO)[C@@H](O)[C@H]3O)c2n1

$$$$
Molecule 20_metabolite 51
  CDK     0516241031

 65 69  0  0  0  0  0  0  0  0999 V2000
   -7.7637   -0.2646    0.0000 C   0  0  0  0  0  0  0  0  0  0  0  0
   -9.0592   -1.0207    0.0000 H   0  0  0  0  0  0  0  0  0  0  0  0
   -6.8050    0.8890    0.0000 H   0  0  0  0  0  0  0  0  0  0  0  0
   -8.7333    0.8799    0.0000 H   0  0  0  0  0  0  0  0  0  0  0  0
   -6.4612   -1.0085    0.0000 C   0  0  0  0  0  0  0  0  0  0  0  0
   -7.4200   -2.1621    0.0000 H   0  0  0  0  0  0  0  0  0  0  0  0
   -5.4916   -2.1530    0.0000 H   0  0  0  0  0  0  0  0  0  0  0  0
   -5.1657   -0.2524    0.0000 C   0  0  0  0  0  0  0  0  0  0  0  0
   -3.6897    0.0150    0.0000 H   0  0  0  0  0  0  0  0  0  0  0  0
   -4.6460   -1.6595    0.0000 H   0  0  0  0  0  0  0  0  0  0  0  0
   -5.1727    1.2476    0.0000 S   0  0  0  0  0  0  0  0  0  0  0  0
   -3.8772    2.0037    0.0000 C   0  0  0  0  0  0  0  0  0  0  0  0
   -3.8772    3.5082    0.0000 N   0  0  0  0  0  0  0  0  0  0  0  0
   -2.6034    4.2588    0.0000 C   0  0  0  0  0  0  0  0  0  0  0  0
   -1.2886    3.5161    0.0000 C   0  0  0  0  0  0  0  0  0  0  0  0
   -1.2913    2.0475    0.0000 C   0  0  0  0  0  0  0  0  0  0  0  0
   -2.5625    1.2610    0.0000 N   0  0  0  0  0  0  0  0  0  0  0  0
    0.0183    1.3161    0.0000 N   0  0  0  0  0  0  0  0  0  0  0  0
    0.0398   -0.1837    0.0000 H   0  0  0  0  0  0  0  0  0  0  0  0
    1.3065    2.0847    0.0000 C   0  0  2  0  0  0  0  0  0  0  0  0
    0.7732    3.4867    0.0000 H   0  0  0  0  0  0  0  0  0  0  0  0
    2.2875    0.9488    0.0000 C   0  0  0  0  0  0  0  0  0  0  0  0
    3.5973    0.2179    0.0000 H   0  0  0  0  0  0  0  0  0  0  0  0
    1.3400   -0.2141    0.0000 H   0  0  0  0  0  0  0  0  0  0  0  0
    2.7798    2.3666    0.0000 C   0  0  1  0  0  0  0  0  0  0  0  0
    2.7578    3.8664    0.0000 H   0  0  0  0  0  0  0  0  0  0  0  0
    4.7346    2.0516    0.0000 C   0  0  0  0  0  0  0  0  0  0  0  0
    5.2688    0.6490    0.0000 C   0  0  0  0  0  0  0  0  0  0  0  0
    4.3215   -0.5140    0.0000 H   0  0  0  0  0  0  0  0  0  0  0  0
    6.7504    0.4095    0.0000 C   0  0  0  0  0  0  0  0  0  0  0  0
    7.2837   -0.9925    0.0000 H   0  0  0  0  0  0  0  0  0  0  0  0
    7.6978    1.5725    0.0000 C   0  0  0  0  0  0  0  0  0  0  0  0
    7.1635    2.9751    0.0000 C   0  0  0  0  0  0  0  0  0  0  0  0
    5.6819    3.2146    0.0000 C   0  0  0  0  0  0  0  0  0  0  0  0
    5.1486    4.6165    0.0000 H   0  0  0  0  0  0  0  0  0  0  0  0
    8.1108    4.1381    0.0000 F   0  0  0  0  0  0  0  0  0  0  0  0
    9.1787    1.3339    0.0000 F   0  0  0  0  0  0  0  0  0  0  0  0
   -0.1984    4.5311    0.0000 N   0  0  0  0  0  0  0  0  0  0  0  0
   -0.8278    5.8974    0.0000 N   0  0  0  0  0  0  0  0  0  0  0  0
   -2.3142    5.7263    0.0000 N   0  0  0  0  0  0  0  0  0  0  0  0
   -3.3316    6.8285    0.0000 C   0  0  2  0  0  0  0  0  0  0  0  0
   -4.3189    5.6992    0.0000 H   0  0  0  0  0  0  0  0  0  0  0  0
   -4.5615    7.6908    0.0000 C   0  0  0  0  0  0  0  0  0  0  0  0
   -5.2946    6.3821    0.0000 H   0  0  0  0  0  0  0  0  0  0  0  0
   -5.9373    8.2884    0.0000 H   0  0  0  0  0  0  0  0  0  0  0  0
   -4.1047    9.1217    0.0000 C   0  0  2  0  0  0  0  0  0  0  0  0
   -2.6122    9.1394    0.0000 C   0  0  2  0  0  0  0  0  0  0  0  0
   -2.7863   10.6293    0.0000 H   0  0  0  0  0  0  0  0  0  0  0  0
   -2.1330    7.7180    0.0000 C   0  0  1  0  0  0  0  0  0  0  0  0
   -0.7693    8.3428    0.0000 H   0  0  0  0  0  0  0  0  0  0  0  0
   -1.3695    6.4269    0.0000 O   0  0  0  0  0  0  0  0  0  0  0  0
    0.1304    6.4425    0.0000 H   0  0  0  0  0  0  0  0  0  0  0  0
   -1.1486    9.4679    0.0000 O   0  0  0  0  0  0  0  0  0  0  0  0
   -0.7012   10.8996    0.0000 H   0  0  0  0  0  0  0  0  0  0  0  0
   -5.5742    9.4227    0.0000 O   0  0  0  0  0  0  0  0  0  0  0  0
   -6.0483   10.8458    0.0000 H   0  0  0  0  0  0  0  0  0  0  0  0
   -3.9623   10.6149    0.0000 O   0  0  0  0  0  0  0  0  0  0  0  0
   -5.9664   12.0416    0.0000 C   0  0  0  0  0  0  0  0  0  0  0  0
   -6.8171   10.2537    0.0000 H   0  0  0  0  0  0  0  0  0  0  0  0
   -7.4122   12.4411    0.0000 H   0  0  0  0  0  0  0  0  0  0  0  0
   -5.8240   13.5348    0.0000 C   0  0  0  0  0  0  0  0  0  0  0  0
   -5.1794   14.8893    0.0000 H   0  0  0  0  0  0  0  0  0  0  0  0
   -4.3782   13.1353    0.0000 H   0  0  0  0  0  0  0  0  0  0  0  0
   -7.0459   14.4048    0.0000 O   0  0  0  0  0  0  0  0  0  0  0  0
   -6.9035   15.8980    0.0000 H   0  0  0  0  0  0  0  0  0  0  0  0
  1  2  1  0  0  0  0 
  1  3  1  0  0  0  0 
  1  4  1  0  0  0  0 
  1  5  1  0  0  0  0 
  5  6  1  0  0  0  0 
  5  7  1  0  0  0  0 
  5  8  1  0  0  0  0 
  8  9  1  0  0  0  0 
  8 10  1  0  0  0  0 
  8 11  1  0  0  0  0 
 11 12  1  0  0  0  0 
 12 13  2  0  0  0  0 
 13 14  1  0  0  0  0 
 14 15  2  0  0  0  0 
 15 16  1  0  0  0  0 
 16 17  2  0  0  0  0 
 12 17  1  0  0  0  0 
 16 18  1  0  0  0  0 
 18 19  1  0  0  0  0 
 20 18  1  1  0  0  0 
 20 21  1  6  0  0  0 
 20 22  1  0  0  0  0 
 22 23  1  0  0  0  0 
 22 24  1  0  0  0  0 
 22 25  1  0  0  0  0 
 20 25  1  0  0  0  0 
 25 26  1  1  0  0  0 
 25 27  1  6  0  0  0 
 27 28  2  0  0  0  0 
 28 29  1  0  0  0  0 
 28 30  1  0  0  0  0 
 30 31  1  0  0  0  0 
 30 32  2  0  0  0  0 
 32 33  1  0  0  0  0 
 33 34  2  0  0  0  0 
 27 34  1  0  0  0  0 
 34 35  1  0  0  0  0 
 33 36  1  0  0  0  0 
 32 37  1  0  0  0  0 
 15 38  1  0  0  0  0 
 38 39  2  0  0  0  0 
 39 40  1  0  0  0  0 
 14 40  1  0  0  0  0 
 41 40  1  6  0  0  0 
 41 42  1  1  0  0  0 
 41 43  1  0  0  0  0 
 43 44  1  0  0  0  0 
 43 45  1  0  0  0  0 
 43 46  1  0  0  0  0 
 46 47  1  0  0  0  0 
 47 48  1  6  0  0  0 
 47 49  1  0  0  0  0 
 41 49  1  0  0  0  0 
 49 50  1  6  0  0  0 
 49 51  1  1  0  0  0 
 51 52  1  0  0  0  0 
 47 53  1  1  0  0  0 
 53 54  1  0  0  0  0 
 46 55  1  1  0  0  0 
 55 56  1  0  0  0  0 
 46 57  1  6  0  0  0 
 57 58  1  0  0  0  0 
 58 59  1  0  0  0  0 
 58 60  1  0  0  0  0 
 58 61  1  0  0  0  0 
 61 62  1  0  0  0  0 
 61 63  1  0  0  0  0 
 61 64  1  0  0  0  0 
 64 65  1  0  0  0  0 
M  END
> <Rank>
51

> <Priority_score>
0.02

> <Reaction_type>
aliphatic hydroxylation

> <Parent_ID>
20

> <Parent_InChI>
InChI=1S/C23H28F2N6O4S/c1-2-7-36-23-27-21(26-15-9-12(15)11-3-4-13(24)14(25)8-11)18-22(28-23)31(30-29-18)16-10-17(35-6-5-32)20(34)19(16)33/h3-4,8,12,15-17,19-20,32-34H,2,5-7,9-10H2,1H3,(H,26,27,28)

> <Parent_SMILES>
CCCSc1nc(N[C@@H]2C[C@H]2c2ccc(F)c(F)c2)c2nnn([C@@H]3C[C@H](OCCO)[C@@H](O)[C@H]3O)c2n1

$$$$
Molecule 20_metabolite 52
  CDK     0516241031

 85 90  0  0  0  0  0  0  0  0999 V2000
    9.3138   -5.5282    0.0000 C   0  0  0  0  0  0  0  0  0  0  0  0
    9.9028   -6.9077    0.0000 H   0  0  0  0  0  0  0  0  0  0  0  0
    9.2323   -4.0304    0.0000 H   0  0  0  0  0  0  0  0  0  0  0  0
   10.7747   -5.1878    0.0000 H   0  0  0  0  0  0  0  0  0  0  0  0
    7.8246   -5.3484    0.0000 C   0  0  0  0  0  0  0  0  0  0  0  0
    7.9062   -6.8462    0.0000 H   0  0  0  0  0  0  0  0  0  0  0  0
    6.3638   -5.6889    0.0000 H   0  0  0  0  0  0  0  0  0  0  0  0
    7.2357   -3.9689    0.0000 C   0  0  0  0  0  0  0  0  0  0  0  0
    6.2105   -2.8739    0.0000 H   0  0  0  0  0  0  0  0  0  0  0  0
    5.9794   -4.7884    0.0000 H   0  0  0  0  0  0  0  0  0  0  0  0
    8.1360   -2.7691    0.0000 S   0  0  0  0  0  0  0  0  0  0  0  0
    7.5470   -1.3895    0.0000 C   0  0  0  0  0  0  0  0  0  0  0  0
    8.4444   -0.1818    0.0000 N   0  0  0  0  0  0  0  0  0  0  0  0
    7.8695    1.1803    0.0000 C   0  0  0  0  0  0  0  0  0  0  0  0
    6.3712    1.3683    0.0000 C   0  0  0  0  0  0  0  0  0  0  0  0
    5.4975    0.1879    0.0000 C   0  0  0  0  0  0  0  0  0  0  0  0
    6.0488   -1.2015    0.0000 N   0  0  0  0  0  0  0  0  0  0  0  0
    4.0101    0.3820    0.0000 N   0  0  0  0  0  0  0  0  0  0  0  0
    3.4345    1.7671    0.0000 H   0  0  0  0  0  0  0  0  0  0  0  0
    3.0983   -0.8091    0.0000 C   0  0  2  0  0  0  0  0  0  0  0  0
    4.1131   -1.9137    0.0000 H   0  0  0  0  0  0  0  0  0  0  0  0
    1.7663   -0.1175    0.0000 C   0  0  0  0  0  0  0  0  0  0  0  0
    0.2789    0.0761    0.0000 H   0  0  0  0  0  0  0  0  0  0  0  0
    2.2156    1.3136    0.0000 H   0  0  0  0  0  0  0  0  0  0  0  0
    1.8344   -1.6168    0.0000 C   0  0  1  0  0  0  0  0  0  0  0  0
    2.4104   -3.0018    0.0000 H   0  0  0  0  0  0  0  0  0  0  0  0
   -0.0980   -2.0484    0.0000 C   0  0  0  0  0  0  0  0  0  0  0  0
   -1.1139   -0.9437    0.0000 C   0  0  0  0  0  0  0  0  0  0  0  0
   -0.6649    0.4876    0.0000 H   0  0  0  0  0  0  0  0  0  0  0  0
   -2.5788   -1.2701    0.0000 C   0  0  0  0  0  0  0  0  0  0  0  0
   -3.5936   -0.1655    0.0000 H   0  0  0  0  0  0  0  0  0  0  0  0
   -3.0278   -2.7013    0.0000 C   0  0  0  0  0  0  0  0  0  0  0  0
   -2.0119   -3.8061    0.0000 C   0  0  0  0  0  0  0  0  0  0  0  0
   -0.5471   -3.4796    0.0000 C   0  0  0  0  0  0  0  0  0  0  0  0
    0.4677   -4.5843    0.0000 H   0  0  0  0  0  0  0  0  0  0  0  0
   -2.4610   -5.2373    0.0000 F   0  0  0  0  0  0  0  0  0  0  0  0
   -4.4918   -3.0283    0.0000 F   0  0  0  0  0  0  0  0  0  0  0  0
    6.1015    2.8333    0.0000 N   0  0  0  0  0  0  0  0  0  0  0  0
    7.4216    3.5546    0.0000 N   0  0  0  0  0  0  0  0  0  0  0  0
    8.5126    2.5308    0.0000 N   0  0  0  0  0  0  0  0  0  0  0  0
    9.9866    2.8087    0.0000 C   0  0  2  0  0  0  0  0  0  0  0  0
   10.1056    1.3134    0.0000 H   0  0  0  0  0  0  0  0  0  0  0  0
   11.4881    2.7673    0.0000 C   0  0  0  0  0  0  0  0  0  0  0  0
   11.2961    1.2796    0.0000 H   0  0  0  0  0  0  0  0  0  0  0  0
   12.9489    2.4265    0.0000 H   0  0  0  0  0  0  0  0  0  0  0  0
   11.9749    4.1883    0.0000 C   0  0  1  0  0  0  0  0  0  0  0  0
   13.3339    3.5535    0.0000 H   0  0  0  0  0  0  0  0  0  0  0  0
   10.7874    5.0927    0.0000 C   0  0  2  0  0  0  0  0  0  0  0  0
   11.8157    6.1848    0.0000 H   0  0  0  0  0  0  0  0  0  0  0  0
    9.5551    4.2376    0.0000 C   0  0  1  0  0  0  0  0  0  0  0  0
    8.8331    5.5524    0.0000 H   0  0  0  0  0  0  0  0  0  0  0  0
    8.1722    3.6566    0.0000 O   0  0  0  0  0  0  0  0  0  0  0  0
    6.9775    4.5637    0.0000 H   0  0  0  0  0  0  0  0  0  0  0  0
    9.8085    6.2292    0.0000 O   0  0  0  0  0  0  0  0  0  0  0  0
   10.3033    7.6453    0.0000 H   0  0  0  0  0  0  0  0  0  0  0  0
   12.7512    5.4718    0.0000 O   0  0  0  0  0  0  0  0  0  0  0  0
   14.2509    5.4413    0.0000 C   0  0  0  0  0  0  0  0  0  0  0  0
   13.9604    3.9697    0.0000 H   0  0  0  0  0  0  0  0  0  0  0  0
   15.6497    4.8997    0.0000 H   0  0  0  0  0  0  0  0  0  0  0  0
   15.0271    6.7248    0.0000 C   0  0  0  0  0  0  0  0  0  0  0  0
   15.3176    8.1964    0.0000 H   0  0  0  0  0  0  0  0  0  0  0  0
   13.6283    7.2664    0.0000 H   0  0  0  0  0  0  0  0  0  0  0  0
   16.5268    6.6943    0.0000 O   0  0  0  0  0  0  0  0  0  0  0  0
   17.3031    7.9778    0.0000 H   0  0  0  0  0  0  0  0  0  0  0  0
    3.4470    4.0971    0.0000 C   0  0  0  0  0  0  0  0  0  0  0  0
    3.0470    2.6514    0.0000 H   0  0  0  0  0  0  0  0  0  0  0  0
    1.9538    4.2401    0.0000 C   0  0  0  0  0  0  0  0  0  0  0  0
    2.0721    2.7447    0.0000 H   0  0  0  0  0  0  0  0  0  0  0  0
    1.3312    5.6056    0.0000 C   0  0  0  0  0  0  0  0  0  0  0  0
    0.0953    4.7555    0.0000 H   0  0  0  0  0  0  0  0  0  0  0  0
    2.2017    6.8282    0.0000 C   0  0  0  0  0  0  0  0  0  0  0  0
    0.8474    7.4730    0.0000 H   0  0  0  0  0  0  0  0  0  0  0  0
    3.6949    6.6852    0.0000 C   0  0  0  0  0  0  0  0  0  0  0  0
    3.5766    8.1805    0.0000 H   0  0  0  0  0  0  0  0  0  0  0  0
    5.1470    7.0612    0.0000 C   0  0  0  0  0  0  0  0  0  0  0  0
    6.1987    5.9917    0.0000 O   0  0  0  0  0  0  0  0  0  0  0  0
    5.5474    8.5068    0.0000 O   0  0  0  0  0  0  0  0  0  0  0  0
    4.4957    9.5764    0.0000 H   0  0  0  0  0  0  0  0  0  0  0  0
    4.3175    5.3196    0.0000 O   0  0  0  0  0  0  0  0  0  0  0  0
    2.6017    8.2739    0.0000 O   0  0  0  0  0  0  0  0  0  0  0  0
    1.5496    9.3431    0.0000 H   0  0  0  0  0  0  0  0  0  0  0  0
    0.2792    6.6749    0.0000 O   0  0  0  0  0  0  0  0  0  0  0  0
   -1.1728    6.2984    0.0000 H   0  0  0  0  0  0  0  0  0  0  0  0
   -0.4276    3.6234    0.0000 O   0  0  0  0  0  0  0  0  0  0  0  0
   -1.4793    4.6930    0.0000 H   0  0  0  0  0  0  0  0  0  0  0  0
  1  2  1  0  0  0  0 
  1  3  1  0  0  0  0 
  1  4  1  0  0  0  0 
  1  5  1  0  0  0  0 
  5  6  1  0  0  0  0 
  5  7  1  0  0  0  0 
  5  8  1  0  0  0  0 
  8  9  1  0  0  0  0 
  8 10  1  0  0  0  0 
  8 11  1  0  0  0  0 
 11 12  1  0  0  0  0 
 12 13  2  0  0  0  0 
 13 14  1  0  0  0  0 
 14 15  2  0  0  0  0 
 15 16  1  0  0  0  0 
 16 17  2  0  0  0  0 
 12 17  1  0  0  0  0 
 16 18  1  0  0  0  0 
 18 19  1  0  0  0  0 
 20 18  1  1  0  0  0 
 20 21  1  6  0  0  0 
 20 22  1  0  0  0  0 
 22 23  1  0  0  0  0 
 22 24  1  0  0  0  0 
 22 25  1  0  0  0  0 
 20 25  1  0  0  0  0 
 25 26  1  1  0  0  0 
 25 27  1  6  0  0  0 
 27 28  2  0  0  0  0 
 28 29  1  0  0  0  0 
 28 30  1  0  0  0  0 
 30 31  1  0  0  0  0 
 30 32  2  0  0  0  0 
 32 33  1  0  0  0  0 
 33 34  2  0  0  0  0 
 27 34  1  0  0  0  0 
 34 35  1  0  0  0  0 
 33 36  1  0  0  0  0 
 32 37  1  0  0  0  0 
 15 38  1  0  0  0  0 
 38 39  2  0  0  0  0 
 39 40  1  0  0  0  0 
 14 40  1  0  0  0  0 
 41 40  1  1  0  0  0 
 41 42  1  6  0  0  0 
 41 43  1  0  0  0  0 
 43 44  1  0  0  0  0 
 43 45  1  0  0  0  0 
 43 46  1  0  0  0  0 
 46 47  1  6  0  0  0 
 46 48  1  0  0  0  0 
 48 49  1  1  0  0  0 
 48 50  1  0  0  0  0 
 41 50  1  0  0  0  0 
 50 51  1  1  0  0  0 
 50 52  1  6  0  0  0 
 52 53  1  0  0  0  0 
 48 54  1  6  0  0  0 
 54 55  1  0  0  0  0 
 46 56  1  1  0  0  0 
 56 57  1  0  0  0  0 
 57 58  1  0  0  0  0 
 57 59  1  0  0  0  0 
 57 60  1  0  0  0  0 
 60 61  1  0  0  0  0 
 60 62  1  0  0  0  0 
 60 63  1  0  0  0  0 
 63 64  1  0  0  0  0 
 38 65  1  0  0  0  0 
 65 66  1  0  0  0  0 
 65 67  1  0  0  0  0 
 67 68  1  0  0  0  0 
 67 69  1  0  0  0  0 
 69 70  1  0  0  0  0 
 69 71  1  0  0  0  0 
 71 72  1  0  0  0  0 
 71 73  1  0  0  0  0 
 73 74  1  0  0  0  0 
 73 75  1  0  0  0  0 
 75 76  2  0  0  0  0 
 75 77  1  0  0  0  0 
 77 78  1  0  0  0  0 
 73 79  1  0  0  0  0 
 65 79  1  0  0  0  0 
 71 80  1  0  0  0  0 
 80 81  1  0  0  0  0 
 69 82  1  0  0  0  0 
 82 83  1  0  0  0  0 
 67 84  1  0  0  0  0 
 84 85  1  0  0  0  0 
M  CHG  1  38   1
M  END
> <Rank>
51

> <Priority_score>
0.02

> <Reaction_type>
N-glucuronidation_(aromatic_=n-)

> <Parent_ID>
20

> <Parent_InChI>
InChI=1S/C23H28F2N6O4S/c1-2-7-36-23-27-21(26-15-9-12(15)11-3-4-13(24)14(25)8-11)18-22(28-23)31(30-29-18)16-10-17(35-6-5-32)20(34)19(16)33/h3-4,8,12,15-17,19-20,32-34H,2,5-7,9-10H2,1H3,(H,26,27,28)

> <Parent_SMILES>
CCCSc1nc(N[C@@H]2C[C@H]2c2ccc(F)c(F)c2)c2nnn([C@@H]3C[C@H](OCCO)[C@@H](O)[C@H]3O)c2n1

$$$$
Molecule 20_metabolite 53
  CDK     0516241031

 65 69  0  0  0  0  0  0  0  0999 V2000
   -4.7225    4.1316    0.0000 C   0  0  0  0  0  0  0  0  0  0  0  0
   -5.5938    5.3526    0.0000 H   0  0  0  0  0  0  0  0  0  0  0  0
   -3.4861    3.2823    0.0000 H   0  0  0  0  0  0  0  0  0  0  0  0
   -3.6713    5.2017    0.0000 H   0  0  0  0  0  0  0  0  0  0  0  0
   -5.3442    2.7666    0.0000 C   0  0  0  0  0  0  0  0  0  0  0  0
   -6.5806    3.6159    0.0000 H   0  0  0  0  0  0  0  0  0  0  0  0
   -6.3954    1.6965    0.0000 H   0  0  0  0  0  0  0  0  0  0  0  0
   -4.4729    1.5456    0.0000 C   0  0  0  0  0  0  0  0  0  0  0  0
   -4.0717    0.1002    0.0000 H   0  0  0  0  0  0  0  0  0  0  0  0
   -5.8266    0.8995    0.0000 H   0  0  0  0  0  0  0  0  0  0  0  0
   -2.9798    1.6897    0.0000 S   0  0  0  0  0  0  0  0  0  0  0  0
   -2.1085    0.4687    0.0000 C   0  0  0  0  0  0  0  0  0  0  0  0
   -0.6103    0.6062    0.0000 N   0  0  0  0  0  0  0  0  0  0  0  0
    0.2535   -0.5938    0.0000 C   0  0  0  0  0  0  0  0  0  0  0  0
   -0.3659   -1.9709    0.0000 C   0  0  0  0  0  0  0  0  0  0  0  0
   -1.8286   -2.1024    0.0000 C   0  0  0  0  0  0  0  0  0  0  0  0
   -2.7280   -0.9084    0.0000 N   0  0  0  0  0  0  0  0  0  0  0  0
   -2.4372   -3.4734    0.0000 N   0  0  0  0  0  0  0  0  0  0  0  0
   -3.9288   -3.6319    0.0000 H   0  0  0  0  0  0  0  0  0  0  0  0
   -1.5542   -4.6860    0.0000 C   0  0  2  0  0  0  0  0  0  0  0  0
   -0.2068   -4.0268    0.0000 H   0  0  0  0  0  0  0  0  0  0  0  0
   -2.5957   -5.7666    0.0000 C   0  0  0  0  0  0  0  0  0  0  0  0
   -3.2038   -7.1378    0.0000 H   0  0  0  0  0  0  0  0  0  0  0  0
   -3.8402   -4.9294    0.0000 H   0  0  0  0  0  0  0  0  0  0  0  0
   -1.1388   -6.1273    0.0000 C   0  0  1  0  0  0  0  0  0  0  0  0
    0.3527   -5.9684    0.0000 H   0  0  0  0  0  0  0  0  0  0  0  0
   -1.2739   -8.1027    0.0000 C   0  0  0  0  0  0  0  0  0  0  0  0
   -2.6217   -8.7629    0.0000 C   0  0  0  0  0  0  0  0  0  0  0  0
   -3.8664   -7.9258    0.0000 H   0  0  0  0  0  0  0  0  0  0  0  0
   -2.7248  -10.2602    0.0000 C   0  0  0  0  0  0  0  0  0  0  0  0
   -4.0722  -10.9194    0.0000 H   0  0  0  0  0  0  0  0  0  0  0  0
   -1.4801  -11.0973    0.0000 C   0  0  0  0  0  0  0  0  0  0  0  0
   -0.1323  -10.4371    0.0000 C   0  0  0  0  0  0  0  0  0  0  0  0
   -0.0292   -8.9398    0.0000 C   0  0  0  0  0  0  0  0  0  0  0  0
    1.3182   -8.2806    0.0000 H   0  0  0  0  0  0  0  0  0  0  0  0
    1.1124  -11.2742    0.0000 F   0  0  0  0  0  0  0  0  0  0  0  0
   -1.5825  -12.5938    0.0000 F   0  0  0  0  0  0  0  0  0  0  0  0
    0.7445   -2.9638    0.0000 N   0  0  0  0  0  0  0  0  0  0  0  0
    2.0475   -2.2122    0.0000 N   0  0  0  0  0  0  0  0  0  0  0  0
    1.7413   -0.7477    0.0000 N   0  0  0  0  0  0  0  0  0  0  0  0
    2.7460    0.3662    0.0000 C   0  0  1  0  0  0  0  0  0  0  0  0
    1.5312    1.2462    0.0000 H   0  0  0  0  0  0  0  0  0  0  0  0
    3.4922    1.6698    0.0000 C   0  0  1  0  0  0  0  0  0  0  0  0
    2.1221    2.2802    0.0000 H   0  0  0  0  0  0  0  0  0  0  0  0
    4.9589    1.3457    0.0000 C   0  0  1  0  0  0  0  0  0  0  0  0
    5.1244    2.8365    0.0000 H   0  0  0  0  0  0  0  0  0  0  0  0
    5.1130   -0.1390    0.0000 C   0  0  2  0  0  0  0  0  0  0  0  0
    6.5807    0.1705    0.0000 H   0  0  0  0  0  0  0  0  0  0  0  0
    3.7413   -0.7461    0.0000 C   0  0  0  0  0  0  0  0  0  0  0  0
    4.4881   -2.0470    0.0000 H   0  0  0  0  0  0  0  0  0  0  0  0
    2.5253   -1.6244    0.0000 O   0  0  0  0  0  0  0  0  0  0  0  0
    2.6780   -3.1166    0.0000 H   0  0  0  0  0  0  0  0  0  0  0  0
    5.5738   -1.5665    0.0000 O   0  0  0  0  0  0  0  0  0  0  0  0
    7.0404   -1.8812    0.0000 C   0  0  0  0  0  0  0  0  0  0  0  0
    8.5262   -1.6752    0.0000 H   0  0  0  0  0  0  0  0  0  0  0  0
    7.0956   -0.3822    0.0000 H   0  0  0  0  0  0  0  0  0  0  0  0
    7.5012   -3.3086    0.0000 C   0  0  0  0  0  0  0  0  0  0  0  0
    6.0154   -3.5145    0.0000 H   0  0  0  0  0  0  0  0  0  0  0  0
    7.4460   -4.8076    0.0000 H   0  0  0  0  0  0  0  0  0  0  0  0
    8.9678   -3.6233    0.0000 O   0  0  0  0  0  0  0  0  0  0  0  0
    9.4286   -5.0507    0.0000 H   0  0  0  0  0  0  0  0  0  0  0  0
    6.4589    1.3403    0.0000 O   0  0  0  0  0  0  0  0  0  0  0  0
    7.2135    2.6367    0.0000 H   0  0  0  0  0  0  0  0  0  0  0  0
    3.9617    3.0944    0.0000 O   0  0  0  0  0  0  0  0  0  0  0  0
    2.9626    4.2133    0.0000 H   0  0  0  0  0  0  0  0  0  0  0  0
  1  2  1  0  0  0  0 
  1  3  1  0  0  0  0 
  1  4  1  0  0  0  0 
  1  5  1  0  0  0  0 
  5  6  1  0  0  0  0 
  5  7  1  0  0  0  0 
  5  8  1  0  0  0  0 
  8  9  1  0  0  0  0 
  8 10  1  0  0  0  0 
  8 11  1  0  0  0  0 
 11 12  1  0  0  0  0 
 12 13  2  0  0  0  0 
 13 14  1  0  0  0  0 
 14 15  2  0  0  0  0 
 15 16  1  0  0  0  0 
 16 17  2  0  0  0  0 
 12 17  1  0  0  0  0 
 16 18  1  0  0  0  0 
 18 19  1  0  0  0  0 
 20 18  1  1  0  0  0 
 20 21  1  6  0  0  0 
 20 22  1  0  0  0  0 
 22 23  1  0  0  0  0 
 22 24  1  0  0  0  0 
 22 25  1  0  0  0  0 
 20 25  1  0  0  0  0 
 25 26  1  1  0  0  0 
 25 27  1  6  0  0  0 
 27 28  2  0  0  0  0 
 28 29  1  0  0  0  0 
 28 30  1  0  0  0  0 
 30 31  1  0  0  0  0 
 30 32  2  0  0  0  0 
 32 33  1  0  0  0  0 
 33 34  2  0  0  0  0 
 27 34  1  0  0  0  0 
 34 35  1  0  0  0  0 
 33 36  1  0  0  0  0 
 32 37  1  0  0  0  0 
 15 38  1  0  0  0  0 
 38 39  2  0  0  0  0 
 39 40  1  0  0  0  0 
 14 40  1  0  0  0  0 
 41 40  1  1  0  0  0 
 41 42  1  6  0  0  0 
 41 43  1  0  0  0  0 
 43 44  1  1  0  0  0 
 43 45  1  0  0  0  0 
 45 46  1  1  0  0  0 
 45 47  1  0  0  0  0 
 47 48  1  6  0  0  0 
 47 49  1  0  0  0  0 
 41 49  1  0  0  0  0 
 49 50  1  0  0  0  0 
 49 51  1  0  0  0  0 
 51 52  1  0  0  0  0 
 47 53  1  1  0  0  0 
 53 54  1  0  0  0  0 
 54 55  1  0  0  0  0 
 54 56  1  0  0  0  0 
 54 57  1  0  0  0  0 
 57 58  1  0  0  0  0 
 57 59  1  0  0  0  0 
 57 60  1  0  0  0  0 
 60 61  1  0  0  0  0 
 45 62  1  6  0  0  0 
 62 63  1  0  0  0  0 
 43 64  1  6  0  0  0 
 64 65  1  0  0  0  0 
M  END
> <Rank>
53

> <Priority_score>
0.016

> <Reaction_type>
aliphatic hydroxylation

> <Parent_ID>
20

> <Parent_InChI>
InChI=1S/C23H28F2N6O4S/c1-2-7-36-23-27-21(26-15-9-12(15)11-3-4-13(24)14(25)8-11)18-22(28-23)31(30-29-18)16-10-17(35-6-5-32)20(34)19(16)33/h3-4,8,12,15-17,19-20,32-34H,2,5-7,9-10H2,1H3,(H,26,27,28)

> <Parent_SMILES>
CCCSc1nc(N[C@@H]2C[C@H]2c2ccc(F)c(F)c2)c2nnn([C@@H]3C[C@H](OCCO)[C@@H](O)[C@H]3O)c2n1

$$$$
Molecule 20_metabolite 54
  CDK     0516241031

 62 66  0  0  0  0  0  0  0  0999 V2000
   -7.4961   -0.7744    0.0000 C   0  0  0  0  0  0  0  0  0  0  0  0
   -7.5031    0.7256    0.0000 H   0  0  0  0  0  0  0  0  0  0  0  0
   -8.0025   -2.1864    0.0000 H   0  0  0  0  0  0  0  0  0  0  0  0
   -8.9745   -0.5209    0.0000 H   0  0  0  0  0  0  0  0  0  0  0  0
   -6.1935   -1.5183    0.0000 C   0  0  0  0  0  0  0  0  0  0  0  0
   -7.1523   -2.6719    0.0000 H   0  0  0  0  0  0  0  0  0  0  0  0
   -5.2240   -2.6628    0.0000 H   0  0  0  0  0  0  0  0  0  0  0  0
   -4.8980   -0.7622    0.0000 C   0  0  0  0  0  0  0  0  0  0  0  0
   -3.9393    0.3914    0.0000 H   0  0  0  0  0  0  0  0  0  0  0  0
   -5.8676    0.3823    0.0000 H   0  0  0  0  0  0  0  0  0  0  0  0
   -3.5955   -1.5061    0.0000 S   0  0  0  0  0  0  0  0  0  0  0  0
   -2.3000   -0.7500    0.0000 C   0  0  0  0  0  0  0  0  0  0  0  0
   -0.9900   -1.4900    0.0000 N   0  0  0  0  0  0  0  0  0  0  0  0
    0.2900   -0.7500    0.0000 C   0  0  0  0  0  0  0  0  0  0  0  0
    0.2900    0.7600    0.0000 C   0  0  0  0  0  0  0  0  0  0  0  0
   -0.9900    1.4800    0.0000 C   0  0  0  0  0  0  0  0  0  0  0  0
   -2.3000    0.7600    0.0000 N   0  0  0  0  0  0  0  0  0  0  0  0
   -0.9826    2.9800    0.0000 N   0  0  0  0  0  0  0  0  0  0  0  0
   -2.2780    3.7364    0.0000 H   0  0  0  0  0  0  0  0  0  0  0  0
    0.3201    3.7236    0.0000 C   0  0  2  0  0  0  0  0  0  0  0  0
    1.2785    2.5697    0.0000 H   0  0  0  0  0  0  0  0  0  0  0  0
   -0.1864    5.1364    0.0000 C   0  0  0  0  0  0  0  0  0  0  0  0
   -1.3305    6.1064    0.0000 H   0  0  0  0  0  0  0  0  0  0  0  0
    1.2902    4.8677    0.0000 C   0  0  0  0  0  0  0  0  0  0  0  0
    2.7024    5.3732    0.0000 C   0  0  0  0  0  0  0  0  0  0  0  0
    2.9711    6.8498    0.0000 C   0  0  0  0  0  0  0  0  0  0  0  0
    1.8270    7.8199    0.0000 H   0  0  0  0  0  0  0  0  0  0  0  0
    4.3838    7.3564    0.0000 C   0  0  0  0  0  0  0  0  0  0  0  0
    5.5279    6.3863    0.0000 C   0  0  0  0  0  0  0  0  0  0  0  0
    5.2593    4.9097    0.0000 C   0  0  0  0  0  0  0  0  0  0  0  0
    6.4034    3.9396    0.0000 H   0  0  0  0  0  0  0  0  0  0  0  0
    3.8465    4.4032    0.0000 C   0  0  0  0  0  0  0  0  0  0  0  0
    3.5787    2.9273    0.0000 H   0  0  0  0  0  0  0  0  0  0  0  0
    6.9402    6.8919    0.0000 F   0  0  0  0  0  0  0  0  0  0  0  0
    4.6517    8.8323    0.0000 F   0  0  0  0  0  0  0  0  0  0  0  0
    1.7100    1.2100    0.0000 N   0  0  0  0  0  0  0  0  0  0  0  0
    2.5900   -0.0100    0.0000 N   0  0  0  0  0  0  0  0  0  0  0  0
    1.7100   -1.2200    0.0000 N   0  0  0  0  0  0  0  0  0  0  0  0
    2.1693   -2.6480    0.0000 C   0  0  2  0  0  0  0  0  0  0  0  0
    0.7004   -2.9522    0.0000 H   0  0  0  0  0  0  0  0  0  0  0  0
    2.3151   -4.1429    0.0000 C   0  0  0  0  0  0  0  0  0  0  0  0
    0.8151   -4.1376    0.0000 H   0  0  0  0  0  0  0  0  0  0  0  0
    2.1588   -5.6348    0.0000 H   0  0  0  0  0  0  0  0  0  0  0  0
    3.7857   -4.4490    0.0000 C   0  0  1  0  0  0  0  0  0  0  0  0
    3.3250   -5.8765    0.0000 H   0  0  0  0  0  0  0  0  0  0  0  0
    4.5352   -3.1582    0.0000 C   0  0  2  0  0  0  0  0  0  0  0  0
    5.7468   -4.0425    0.0000 H   0  0  0  0  0  0  0  0  0  0  0  0
    3.5333   -2.0418    0.0000 C   0  0  1  0  0  0  0  0  0  0  0  0
    4.7480   -1.1618    0.0000 H   0  0  0  0  0  0  0  0  0  0  0  0
    2.7847   -0.7420    0.0000 O   0  0  0  0  0  0  0  0  0  0  0  0
    3.5360    0.5562    0.0000 H   0  0  0  0  0  0  0  0  0  0  0  0
    5.5410   -2.0454    0.0000 O   0  0  0  0  0  0  0  0  0  0  0  0
    7.0077   -2.3600    0.0000 H   0  0  0  0  0  0  0  0  0  0  0  0
    5.1558   -5.0594    0.0000 O   0  0  0  0  0  0  0  0  0  0  0  0
    5.3123   -6.5512    0.0000 C   0  0  0  0  0  0  0  0  0  0  0  0
    3.8159   -6.4462    0.0000 H   0  0  0  0  0  0  0  0  0  0  0  0
    4.9490   -8.0066    0.0000 H   0  0  0  0  0  0  0  0  0  0  0  0
    6.6824   -7.1617    0.0000 C   0  0  0  0  0  0  0  0  0  0  0  0
    8.1788   -7.2667    0.0000 H   0  0  0  0  0  0  0  0  0  0  0  0
    7.0457   -5.7063    0.0000 H   0  0  0  0  0  0  0  0  0  0  0  0
    6.8389   -8.6535    0.0000 O   0  0  0  0  0  0  0  0  0  0  0  0
    8.2090   -9.2640    0.0000 H   0  0  0  0  0  0  0  0  0  0  0  0
  1  2  1  0  0  0  0 
  1  3  1  0  0  0  0 
  1  4  1  0  0  0  0 
  1  5  1  0  0  0  0 
  5  6  1  0  0  0  0 
  5  7  1  0  0  0  0 
  5  8  1  0  0  0  0 
  8  9  1  0  0  0  0 
  8 10  1  0  0  0  0 
  8 11  1  0  0  0  0 
 11 12  1  0  0  0  0 
 12 13  2  0  0  0  0 
 13 14  1  0  0  0  0 
 14 15  2  0  0  0  0 
 15 16  1  0  0  0  0 
 16 17  2  0  0  0  0 
 12 17  1  0  0  0  0 
 16 18  1  0  0  0  0 
 18 19  1  0  0  0  0 
 20 18  1  6  0  0  0 
 20 21  1  1  0  0  0 
 20 22  1  0  0  0  0 
 22 23  1  0  0  0  0 
 22 24  2  0  0  0  0 
 20 24  1  0  0  0  0 
 24 25  1  0  0  0  0 
 25 26  2  0  0  0  0 
 26 27  1  0  0  0  0 
 26 28  1  0  0  0  0 
 28 29  2  0  0  0  0 
 29 30  1  0  0  0  0 
 30 31  1  0  0  0  0 
 30 32  2  0  0  0  0 
 25 32  1  0  0  0  0 
 32 33  1  0  0  0  0 
 29 34  1  0  0  0  0 
 28 35  1  0  0  0  0 
 15 36  1  0  0  0  0 
 36 37  2  0  0  0  0 
 37 38  1  0  0  0  0 
 14 38  1  0  0  0  0 
 39 38  1  1  0  0  0 
 39 40  1  6  0  0  0 
 39 41  1  0  0  0  0 
 41 42  1  0  0  0  0 
 41 43  1  0  0  0  0 
 41 44  1  0  0  0  0 
 44 45  1  6  0  0  0 
 44 46  1  0  0  0  0 
 46 47  1  1  0  0  0 
 46 48  1  0  0  0  0 
 39 48  1  0  0  0  0 
 48 49  1  1  0  0  0 
 48 50  1  6  0  0  0 
 50 51  1  0  0  0  0 
 46 52  1  6  0  0  0 
 52 53  1  0  0  0  0 
 44 54  1  1  0  0  0 
 54 55  1  0  0  0  0 
 55 56  1  0  0  0  0 
 55 57  1  0  0  0  0 
 55 58  1  0  0  0  0 
 58 59  1  0  0  0  0 
 58 60  1  0  0  0  0 
 58 61  1  0  0  0  0 
 61 62  1  0  0  0  0 
M  END
> <Rank>
53

> <Priority_score>
0.016

> <Reaction_type>
alkyl dehydrogenation

> <Parent_ID>
20

> <Parent_InChI>
InChI=1S/C23H28F2N6O4S/c1-2-7-36-23-27-21(26-15-9-12(15)11-3-4-13(24)14(25)8-11)18-22(28-23)31(30-29-18)16-10-17(35-6-5-32)20(34)19(16)33/h3-4,8,12,15-17,19-20,32-34H,2,5-7,9-10H2,1H3,(H,26,27,28)

> <Parent_SMILES>
CCCSc1nc(N[C@@H]2C[C@H]2c2ccc(F)c(F)c2)c2nnn([C@@H]3C[C@H](OCCO)[C@@H](O)[C@H]3O)c2n1

$$$$
Molecule 20_metabolite 55
  CDK     0516241031

 62 66  0  0  0  0  0  0  0  0999 V2000
   -6.3531   -3.4685    0.0000 C   0  0  0  0  0  0  0  0  0  0  0  0
   -7.6486   -4.2246    0.0000 H   0  0  0  0  0  0  0  0  0  0  0  0
   -4.8771   -3.2010    0.0000 H   0  0  0  0  0  0  0  0  0  0  0  0
   -5.8334   -4.8756    0.0000 H   0  0  0  0  0  0  0  0  0  0  0  0
   -6.3601   -1.9685    0.0000 C   0  0  0  0  0  0  0  0  0  0  0  0
   -7.8361   -2.2359    0.0000 H   0  0  0  0  0  0  0  0  0  0  0  0
   -6.8798   -0.5614    0.0000 H   0  0  0  0  0  0  0  0  0  0  0  0
   -5.0646   -1.2124    0.0000 C   0  0  0  0  0  0  0  0  0  0  0  0
   -4.1059   -0.0588    0.0000 H   0  0  0  0  0  0  0  0  0  0  0  0
   -6.0342   -0.0679    0.0000 H   0  0  0  0  0  0  0  0  0  0  0  0
   -3.7621   -1.9563    0.0000 S   0  0  0  0  0  0  0  0  0  0  0  0
   -2.4666   -1.2002    0.0000 C   0  0  0  0  0  0  0  0  0  0  0  0
   -1.1566   -1.9402    0.0000 N   0  0  0  0  0  0  0  0  0  0  0  0
    0.1234   -1.2002    0.0000 C   0  0  0  0  0  0  0  0  0  0  0  0
    0.1234    0.3098    0.0000 C   0  0  0  0  0  0  0  0  0  0  0  0
   -1.1566    1.0298    0.0000 C   0  0  0  0  0  0  0  0  0  0  0  0
   -2.4666    0.3098    0.0000 N   0  0  0  0  0  0  0  0  0  0  0  0
   -1.1492    2.5298    0.0000 N   0  0  0  0  0  0  0  0  0  0  0  0
   -2.4445    3.2862    0.0000 H   0  0  0  0  0  0  0  0  0  0  0  0
    0.1535    3.2734    0.0000 C   0  0  2  0  0  0  0  0  0  0  0  0
    1.1119    2.1195    0.0000 H   0  0  0  0  0  0  0  0  0  0  0  0
   -0.3530    4.6862    0.0000 C   0  0  0  0  0  0  0  0  0  0  0  0
   -0.3451    6.1862    0.0000 H   0  0  0  0  0  0  0  0  0  0  0  0
   -1.8315    4.4331    0.0000 H   0  0  0  0  0  0  0  0  0  0  0  0
    1.1236    4.4175    0.0000 C   0  0  1  0  0  0  0  0  0  0  0  0
    2.4187    3.6607    0.0000 H   0  0  0  0  0  0  0  0  0  0  0  0
    1.8107    6.2745    0.0000 C   0  0  0  0  0  0  0  0  0  0  0  0
    0.8523    7.4295    0.0000 C   0  0  0  0  0  0  0  0  0  0  0  0
   -0.6262    7.1767    0.0000 H   0  0  0  0  0  0  0  0  0  0  0  0
    1.3725    8.8373    0.0000 C   0  0  0  0  0  0  0  0  0  0  0  0
    0.4141    9.9912    0.0000 H   0  0  0  0  0  0  0  0  0  0  0  0
    2.8511    9.0901    0.0000 C   0  0  0  0  0  0  0  0  0  0  0  0
    3.8094    7.9351    0.0000 C   0  0  0  0  0  0  0  0  0  0  0  0
    3.2893    6.5273    0.0000 C   0  0  0  0  0  0  0  0  0  0  0  0
    4.2477    5.3734    0.0000 H   0  0  0  0  0  0  0  0  0  0  0  0
    5.2880    8.1879    0.0000 F   0  0  0  0  0  0  0  0  0  0  0  0
    3.3716   10.4969    0.0000 F   0  0  0  0  0  0  0  0  0  0  0  0
    1.5434    0.7598    0.0000 N   0  0  0  0  0  0  0  0  0  0  0  0
    2.4234   -0.4602    0.0000 N   0  0  0  0  0  0  0  0  0  0  0  0
    1.5434   -1.6702    0.0000 N   0  0  0  0  0  0  0  0  0  0  0  0
    2.0027   -3.0981    0.0000 C   0  0  2  0  0  0  0  0  0  0  0  0
    0.5339   -3.4023    0.0000 H   0  0  0  0  0  0  0  0  0  0  0  0
    2.1485   -4.5931    0.0000 C   0  0  0  0  0  0  0  0  0  0  0  0
    0.6485   -4.5877    0.0000 H   0  0  0  0  0  0  0  0  0  0  0  0
    1.9923   -6.0849    0.0000 H   0  0  0  0  0  0  0  0  0  0  0  0
    3.6191   -4.8991    0.0000 C   0  0  1  0  0  0  0  0  0  0  0  0
    3.1584   -6.3267    0.0000 H   0  0  0  0  0  0  0  0  0  0  0  0
    4.3686   -3.6083    0.0000 C   0  0  2  0  0  0  0  0  0  0  0  0
    5.5802   -4.4927    0.0000 H   0  0  0  0  0  0  0  0  0  0  0  0
    3.3667   -2.4920    0.0000 C   0  0  0  0  0  0  0  0  0  0  0  0
    3.6803   -1.0252    0.0000 O   0  0  0  0  0  0  0  0  0  0  0  0
    5.3745   -2.4955    0.0000 O   0  0  0  0  0  0  0  0  0  0  0  0
    6.8411   -2.8102    0.0000 H   0  0  0  0  0  0  0  0  0  0  0  0
    4.9893   -5.5096    0.0000 O   0  0  0  0  0  0  0  0  0  0  0  0
    5.1457   -7.0014    0.0000 C   0  0  0  0  0  0  0  0  0  0  0  0
    3.6494   -6.8964    0.0000 H   0  0  0  0  0  0  0  0  0  0  0  0
    4.7824   -8.4568    0.0000 H   0  0  0  0  0  0  0  0  0  0  0  0
    6.5159   -7.6119    0.0000 C   0  0  0  0  0  0  0  0  0  0  0  0
    8.0122   -7.7169    0.0000 H   0  0  0  0  0  0  0  0  0  0  0  0
    6.8791   -6.1565    0.0000 H   0  0  0  0  0  0  0  0  0  0  0  0
    6.6723   -9.1037    0.0000 O   0  0  0  0  0  0  0  0  0  0  0  0
    8.0424   -9.7141    0.0000 H   0  0  0  0  0  0  0  0  0  0  0  0
  1  2  1  0  0  0  0 
  1  3  1  0  0  0  0 
  1  4  1  0  0  0  0 
  1  5  1  0  0  0  0 
  5  6  1  0  0  0  0 
  5  7  1  0  0  0  0 
  5  8  1  0  0  0  0 
  8  9  1  0  0  0  0 
  8 10  1  0  0  0  0 
  8 11  1  0  0  0  0 
 11 12  1  0  0  0  0 
 12 13  2  0  0  0  0 
 13 14  1  0  0  0  0 
 14 15  2  0  0  0  0 
 15 16  1  0  0  0  0 
 16 17  2  0  0  0  0 
 12 17  1  0  0  0  0 
 16 18  1  0  0  0  0 
 18 19  1  0  0  0  0 
 20 18  1  6  0  0  0 
 20 21  1  1  0  0  0 
 20 22  1  0  0  0  0 
 22 23  1  0  0  0  0 
 22 24  1  0  0  0  0 
 22 25  1  0  0  0  0 
 20 25  1  0  0  0  0 
 25 26  1  6  0  0  0 
 25 27  1  1  0  0  0 
 27 28  2  0  0  0  0 
 28 29  1  0  0  0  0 
 28 30  1  0  0  0  0 
 30 31  1  0  0  0  0 
 30 32  2  0  0  0  0 
 32 33  1  0  0  0  0 
 33 34  2  0  0  0  0 
 27 34  1  0  0  0  0 
 34 35  1  0  0  0  0 
 33 36  1  0  0  0  0 
 32 37  1  0  0  0  0 
 15 38  1  0  0  0  0 
 38 39  2  0  0  0  0 
 39 40  1  0  0  0  0 
 14 40  1  0  0  0  0 
 41 40  1  1  0  0  0 
 41 42  1  6  0  0  0 
 41 43  1  0  0  0  0 
 43 44  1  0  0  0  0 
 43 45  1  0  0  0  0 
 43 46  1  0  0  0  0 
 46 47  1  6  0  0  0 
 46 48  1  0  0  0  0 
 48 49  1  1  0  0  0 
 48 50  1  0  0  0  0 
 41 50  1  0  0  0  0 
 50 51  2  0  0  0  0 
 48 52  1  6  0  0  0 
 52 53  1  0  0  0  0 
 46 54  1  1  0  0  0 
 54 55  1  0  0  0  0 
 55 56  1  0  0  0  0 
 55 57  1  0  0  0  0 
 55 58  1  0  0  0  0 
 58 59  1  0  0  0  0 
 58 60  1  0  0  0  0 
 58 61  1  0  0  0  0 
 61 62  1  0  0  0  0 
M  END
> <Rank>
53

> <Priority_score>
0.016

> <Reaction_type>
alcohol oxidation

> <Parent_ID>
20

> <Parent_InChI>
InChI=1S/C23H28F2N6O4S/c1-2-7-36-23-27-21(26-15-9-12(15)11-3-4-13(24)14(25)8-11)18-22(28-23)31(30-29-18)16-10-17(35-6-5-32)20(34)19(16)33/h3-4,8,12,15-17,19-20,32-34H,2,5-7,9-10H2,1H3,(H,26,27,28)

> <Parent_SMILES>
CCCSc1nc(N[C@@H]2C[C@H]2c2ccc(F)c(F)c2)c2nnn([C@@H]3C[C@H](OCCO)[C@@H](O)[C@H]3O)c2n1

$$$$
Molecule 20_metabolite 56
  CDK     0516241031

 61 65  0  0  0  0  0  0  0  0999 V2000
   -7.6627   -1.2246    0.0000 C   0  0  0  0  0  0  0  0  0  0  0  0
   -7.6697    0.2754    0.0000 H   0  0  0  0  0  0  0  0  0  0  0  0
   -8.1691   -2.6365    0.0000 H   0  0  0  0  0  0  0  0  0  0  0  0
   -9.1411   -0.9711    0.0000 H   0  0  0  0  0  0  0  0  0  0  0  0
   -6.3601   -1.9685    0.0000 C   0  0  0  0  0  0  0  0  0  0  0  0
   -7.3189   -3.1221    0.0000 H   0  0  0  0  0  0  0  0  0  0  0  0
   -5.3906   -3.1130    0.0000 H   0  0  0  0  0  0  0  0  0  0  0  0
   -5.0646   -1.2124    0.0000 C   0  0  0  0  0  0  0  0  0  0  0  0
   -4.1059   -0.0588    0.0000 H   0  0  0  0  0  0  0  0  0  0  0  0
   -6.0342   -0.0679    0.0000 H   0  0  0  0  0  0  0  0  0  0  0  0
   -3.7621   -1.9563    0.0000 S   0  0  0  0  0  0  0  0  0  0  0  0
   -2.4666   -1.2002    0.0000 C   0  0  0  0  0  0  0  0  0  0  0  0
   -1.1566   -1.9402    0.0000 N   0  0  0  0  0  0  0  0  0  0  0  0
    0.1234   -1.2002    0.0000 C   0  0  0  0  0  0  0  0  0  0  0  0
    0.1234    0.3098    0.0000 C   0  0  0  0  0  0  0  0  0  0  0  0
   -1.1566    1.0298    0.0000 C   0  0  0  0  0  0  0  0  0  0  0  0
   -2.4666    0.3098    0.0000 N   0  0  0  0  0  0  0  0  0  0  0  0
   -1.1492    2.5298    0.0000 N   0  0  0  0  0  0  0  0  0  0  0  0
   -2.4445    3.2862    0.0000 H   0  0  0  0  0  0  0  0  0  0  0  0
    0.1535    3.2734    0.0000 C   0  0  2  0  0  0  0  0  0  0  0  0
    1.1119    2.1195    0.0000 H   0  0  0  0  0  0  0  0  0  0  0  0
   -0.3530    4.6862    0.0000 C   0  0  0  0  0  0  0  0  0  0  0  0
   -0.3451    6.1862    0.0000 H   0  0  0  0  0  0  0  0  0  0  0  0
   -1.8315    4.4331    0.0000 H   0  0  0  0  0  0  0  0  0  0  0  0
    1.1236    4.4175    0.0000 C   0  0  1  0  0  0  0  0  0  0  0  0
    2.4187    3.6607    0.0000 H   0  0  0  0  0  0  0  0  0  0  0  0
    1.8107    6.2745    0.0000 C   0  0  0  0  0  0  0  0  0  0  0  0
    0.8523    7.4295    0.0000 C   0  0  0  0  0  0  0  0  0  0  0  0
   -0.6262    7.1767    0.0000 H   0  0  0  0  0  0  0  0  0  0  0  0
    1.3725    8.8373    0.0000 C   0  0  0  0  0  0  0  0  0  0  0  0
    0.4141    9.9912    0.0000 H   0  0  0  0  0  0  0  0  0  0  0  0
    2.8511    9.0901    0.0000 C   0  0  0  0  0  0  0  0  0  0  0  0
    3.8094    7.9351    0.0000 C   0  0  0  0  0  0  0  0  0  0  0  0
    3.2893    6.5273    0.0000 C   0  0  0  0  0  0  0  0  0  0  0  0
    4.2477    5.3734    0.0000 H   0  0  0  0  0  0  0  0  0  0  0  0
    5.2880    8.1879    0.0000 F   0  0  0  0  0  0  0  0  0  0  0  0
    3.3716   10.4969    0.0000 F   0  0  0  0  0  0  0  0  0  0  0  0
    1.5434    0.7598    0.0000 N   0  0  0  0  0  0  0  0  0  0  0  0
    2.4234   -0.4602    0.0000 N   0  0  0  0  0  0  0  0  0  0  0  0
    1.5434   -1.6702    0.0000 N   0  0  0  0  0  0  0  0  0  0  0  0
    2.0027   -3.0981    0.0000 C   0  0  0  0  0  0  0  0  0  0  0  0
    1.1121   -4.3077    0.0000 C   0  0  0  0  0  0  0  0  0  0  0  0
   -0.3879   -4.3070    0.0000 H   0  0  0  0  0  0  0  0  0  0  0  0
    2.0015   -5.5181    0.0000 C   0  0  1  0  0  0  0  0  0  0  0  0
    0.7048   -6.2722    0.0000 H   0  0  0  0  0  0  0  0  0  0  0  0
    3.4217   -5.0588    0.0000 C   0  0  2  0  0  0  0  0  0  0  0  0
    3.7320   -6.5264    0.0000 H   0  0  0  0  0  0  0  0  0  0  0  0
    3.4225   -3.5588    0.0000 C   0  0  0  0  0  0  0  0  0  0  0  0
    4.9142   -3.7159    0.0000 H   0  0  0  0  0  0  0  0  0  0  0  0
    3.7342   -2.0916    0.0000 H   0  0  0  0  0  0  0  0  0  0  0  0
    4.9136   -4.9032    0.0000 O   0  0  0  0  0  0  0  0  0  0  0  0
    5.7944   -6.1174    0.0000 C   0  0  0  0  0  0  0  0  0  0  0  0
    4.4457   -6.7739    0.0000 H   0  0  0  0  0  0  0  0  0  0  0  0
    6.2067   -7.5596    0.0000 H   0  0  0  0  0  0  0  0  0  0  0  0
    7.2863   -5.9618    0.0000 C   0  0  0  0  0  0  0  0  0  0  0  0
    8.6350   -5.3053    0.0000 H   0  0  0  0  0  0  0  0  0  0  0  0
    6.8740   -4.5196    0.0000 H   0  0  0  0  0  0  0  0  0  0  0  0
    8.1670   -7.1760    0.0000 O   0  0  0  0  0  0  0  0  0  0  0  0
    9.6589   -7.0204    0.0000 H   0  0  0  0  0  0  0  0  0  0  0  0
    2.6128   -6.8879    0.0000 O   0  0  0  0  0  0  0  0  0  0  0  0
    1.7322   -8.1022    0.0000 H   0  0  0  0  0  0  0  0  0  0  0  0
  1  2  1  0  0  0  0 
  1  3  1  0  0  0  0 
  1  4  1  0  0  0  0 
  1  5  1  0  0  0  0 
  5  6  1  0  0  0  0 
  5  7  1  0  0  0  0 
  5  8  1  0  0  0  0 
  8  9  1  0  0  0  0 
  8 10  1  0  0  0  0 
  8 11  1  0  0  0  0 
 11 12  1  0  0  0  0 
 12 13  2  0  0  0  0 
 13 14  1  0  0  0  0 
 14 15  2  0  0  0  0 
 15 16  1  0  0  0  0 
 16 17  2  0  0  0  0 
 12 17  1  0  0  0  0 
 16 18  1  0  0  0  0 
 18 19  1  0  0  0  0 
 20 18  1  6  0  0  0 
 20 21  1  1  0  0  0 
 20 22  1  0  0  0  0 
 22 23  1  0  0  0  0 
 22 24  1  0  0  0  0 
 22 25  1  0  0  0  0 
 20 25  1  0  0  0  0 
 25 26  1  6  0  0  0 
 25 27  1  1  0  0  0 
 27 28  2  0  0  0  0 
 28 29  1  0  0  0  0 
 28 30  1  0  0  0  0 
 30 31  1  0  0  0  0 
 30 32  2  0  0  0  0 
 32 33  1  0  0  0  0 
 33 34  2  0  0  0  0 
 27 34  1  0  0  0  0 
 34 35  1  0  0  0  0 
 33 36  1  0  0  0  0 
 32 37  1  0  0  0  0 
 15 38  1  0  0  0  0 
 38 39  2  0  0  0  0 
 39 40  1  0  0  0  0 
 14 40  1  0  0  0  0 
 40 41  1  0  0  0  0 
 41 42  2  0  0  0  0 
 42 43  1  0  0  0  0 
 42 44  1  0  0  0  0 
 44 45  1  6  0  0  0 
 44 46  1  0  0  0  0 
 46 47  1  1  0  0  0 
 46 48  1  0  0  0  0 
 41 48  1  0  0  0  0 
 48 49  1  0  0  0  0 
 48 50  1  0  0  0  0 
 46 51  1  6  0  0  0 
 51 52  1  0  0  0  0 
 52 53  1  0  0  0  0 
 52 54  1  0  0  0  0 
 52 55  1  0  0  0  0 
 55 56  1  0  0  0  0 
 55 57  1  0  0  0  0 
 55 58  1  0  0  0  0 
 58 59  1  0  0  0  0 
 44 60  1  1  0  0  0 
 60 61  1  0  0  0  0 
M  END
> <Rank>
53

> <Priority_score>
0.016

> <Reaction_type>
dehydration_next_to_SP2_b

> <Parent_ID>
20

> <Parent_InChI>
InChI=1S/C23H28F2N6O4S/c1-2-7-36-23-27-21(26-15-9-12(15)11-3-4-13(24)14(25)8-11)18-22(28-23)31(30-29-18)16-10-17(35-6-5-32)20(34)19(16)33/h3-4,8,12,15-17,19-20,32-34H,2,5-7,9-10H2,1H3,(H,26,27,28)

> <Parent_SMILES>
CCCSc1nc(N[C@@H]2C[C@H]2c2ccc(F)c(F)c2)c2nnn([C@@H]3C[C@H](OCCO)[C@@H](O)[C@H]3O)c2n1

$$$$
Molecule 20_metabolite 57
  CDK     0516241031

 65 69  0  0  0  0  0  0  0  0999 V2000
   -7.9700   -0.6980    0.0000 C   0  0  0  0  0  0  0  0  0  0  0  0
   -9.2655   -1.4541    0.0000 H   0  0  0  0  0  0  0  0  0  0  0  0
   -7.0112    0.4555    0.0000 H   0  0  0  0  0  0  0  0  0  0  0  0
   -8.9396    0.4465    0.0000 H   0  0  0  0  0  0  0  0  0  0  0  0
   -6.6674   -1.4419    0.0000 C   0  0  0  0  0  0  0  0  0  0  0  0
   -7.6262   -2.5955    0.0000 H   0  0  0  0  0  0  0  0  0  0  0  0
   -5.6979   -2.5865    0.0000 H   0  0  0  0  0  0  0  0  0  0  0  0
   -5.3719   -0.6858    0.0000 C   0  0  0  0  0  0  0  0  0  0  0  0
   -3.8960   -0.4184    0.0000 H   0  0  0  0  0  0  0  0  0  0  0  0
   -4.8523   -2.0930    0.0000 H   0  0  0  0  0  0  0  0  0  0  0  0
   -5.3790    0.8141    0.0000 S   0  0  0  0  0  0  0  0  0  0  0  0
   -4.0835    1.5702    0.0000 C   0  0  0  0  0  0  0  0  0  0  0  0
   -4.0835    3.0748    0.0000 N   0  0  0  0  0  0  0  0  0  0  0  0
   -2.8096    3.8253    0.0000 C   0  0  0  0  0  0  0  0  0  0  0  0
   -1.4949    3.0826    0.0000 C   0  0  0  0  0  0  0  0  0  0  0  0
   -1.4975    1.6140    0.0000 C   0  0  0  0  0  0  0  0  0  0  0  0
   -2.7687    0.8276    0.0000 N   0  0  0  0  0  0  0  0  0  0  0  0
   -0.1879    0.8827    0.0000 N   0  0  0  0  0  0  0  0  0  0  0  0
   -0.1664   -0.6171    0.0000 H   0  0  0  0  0  0  0  0  0  0  0  0
    1.1003    1.6512    0.0000 C   0  0  2  0  0  0  0  0  0  0  0  0
    0.5670    3.0532    0.0000 H   0  0  0  0  0  0  0  0  0  0  0  0
    2.0812    0.5154    0.0000 C   0  0  0  0  0  0  0  0  0  0  0  0
    3.3911   -0.2155    0.0000 H   0  0  0  0  0  0  0  0  0  0  0  0
    1.1337   -0.6475    0.0000 H   0  0  0  0  0  0  0  0  0  0  0  0
    2.5735    1.9332    0.0000 C   0  0  1  0  0  0  0  0  0  0  0  0
    2.5516    3.4330    0.0000 H   0  0  0  0  0  0  0  0  0  0  0  0
    4.5283    1.6181    0.0000 C   0  0  0  0  0  0  0  0  0  0  0  0
    5.0626    0.2156    0.0000 C   0  0  0  0  0  0  0  0  0  0  0  0
    4.1153   -0.9474    0.0000 H   0  0  0  0  0  0  0  0  0  0  0  0
    6.5442   -0.0239    0.0000 C   0  0  0  0  0  0  0  0  0  0  0  0
    7.0775   -1.4259    0.0000 H   0  0  0  0  0  0  0  0  0  0  0  0
    7.4915    1.1391    0.0000 C   0  0  0  0  0  0  0  0  0  0  0  0
    6.9572    2.5416    0.0000 C   0  0  0  0  0  0  0  0  0  0  0  0
    5.4756    2.7811    0.0000 C   0  0  0  0  0  0  0  0  0  0  0  0
    4.9423    4.1831    0.0000 H   0  0  0  0  0  0  0  0  0  0  0  0
    7.9046    3.7046    0.0000 F   0  0  0  0  0  0  0  0  0  0  0  0
    8.9724    0.9004    0.0000 F   0  0  0  0  0  0  0  0  0  0  0  0
   -0.4047    4.0977    0.0000 N   0  0  0  0  0  0  0  0  0  0  0  0
   -1.0341    5.4639    0.0000 N   0  0  0  0  0  0  0  0  0  0  0  0
   -2.5204    5.2929    0.0000 N   0  0  0  0  0  0  0  0  0  0  0  0
   -3.5378    6.3951    0.0000 C   0  0  2  0  0  0  0  0  0  0  0  0
   -4.5251    5.2658    0.0000 H   0  0  0  0  0  0  0  0  0  0  0  0
   -4.7678    7.2573    0.0000 C   0  0  0  0  0  0  0  0  0  0  0  0
   -5.5009    5.9487    0.0000 H   0  0  0  0  0  0  0  0  0  0  0  0
   -6.1436    7.8550    0.0000 H   0  0  0  0  0  0  0  0  0  0  0  0
   -4.3110    8.6883    0.0000 C   0  0  1  0  0  0  0  0  0  0  0  0
   -5.7805    8.9893    0.0000 H   0  0  0  0  0  0  0  0  0  0  0  0
   -2.8184    8.7060    0.0000 C   0  0  2  0  0  0  0  0  0  0  0  0
   -2.9925   10.1959    0.0000 H   0  0  0  0  0  0  0  0  0  0  0  0
   -2.3392    7.2846    0.0000 C   0  0  1  0  0  0  0  0  0  0  0  0
   -0.9755    7.9094    0.0000 O   0  0  0  0  0  0  0  0  0  0  0  0
    0.2474    7.0407    0.0000 H   0  0  0  0  0  0  0  0  0  0  0  0
   -1.5757    5.9935    0.0000 O   0  0  0  0  0  0  0  0  0  0  0  0
   -0.0758    6.0091    0.0000 H   0  0  0  0  0  0  0  0  0  0  0  0
   -1.3548    9.0344    0.0000 O   0  0  0  0  0  0  0  0  0  0  0  0
   -0.9075   10.4662    0.0000 H   0  0  0  0  0  0  0  0  0  0  0  0
   -4.1686   10.1815    0.0000 O   0  0  0  0  0  0  0  0  0  0  0  0
   -5.3905   11.0514    0.0000 C   0  0  0  0  0  0  0  0  0  0  0  0
   -6.0351    9.6969    0.0000 H   0  0  0  0  0  0  0  0  0  0  0  0
   -6.8364   11.4509    0.0000 H   0  0  0  0  0  0  0  0  0  0  0  0
   -5.2481   12.5446    0.0000 C   0  0  0  0  0  0  0  0  0  0  0  0
   -4.6036   13.8991    0.0000 H   0  0  0  0  0  0  0  0  0  0  0  0
   -3.8023   12.1451    0.0000 H   0  0  0  0  0  0  0  0  0  0  0  0
   -6.4701   13.4146    0.0000 O   0  0  0  0  0  0  0  0  0  0  0  0
   -6.3277   14.9078    0.0000 H   0  0  0  0  0  0  0  0  0  0  0  0
  1  2  1  0  0  0  0 
  1  3  1  0  0  0  0 
  1  4  1  0  0  0  0 
  1  5  1  0  0  0  0 
  5  6  1  0  0  0  0 
  5  7  1  0  0  0  0 
  5  8  1  0  0  0  0 
  8  9  1  0  0  0  0 
  8 10  1  0  0  0  0 
  8 11  1  0  0  0  0 
 11 12  1  0  0  0  0 
 12 13  2  0  0  0  0 
 13 14  1  0  0  0  0 
 14 15  2  0  0  0  0 
 15 16  1  0  0  0  0 
 16 17  2  0  0  0  0 
 12 17  1  0  0  0  0 
 16 18  1  0  0  0  0 
 18 19  1  0  0  0  0 
 20 18  1  1  0  0  0 
 20 21  1  6  0  0  0 
 20 22  1  0  0  0  0 
 22 23  1  0  0  0  0 
 22 24  1  0  0  0  0 
 22 25  1  0  0  0  0 
 20 25  1  0  0  0  0 
 25 26  1  1  0  0  0 
 25 27  1  6  0  0  0 
 27 28  2  0  0  0  0 
 28 29  1  0  0  0  0 
 28 30  1  0  0  0  0 
 30 31  1  0  0  0  0 
 30 32  2  0  0  0  0 
 32 33  1  0  0  0  0 
 33 34  2  0  0  0  0 
 27 34  1  0  0  0  0 
 34 35  1  0  0  0  0 
 33 36  1  0  0  0  0 
 32 37  1  0  0  0  0 
 15 38  1  0  0  0  0 
 38 39  2  0  0  0  0 
 39 40  1  0  0  0  0 
 14 40  1  0  0  0  0 
 41 40  1  6  0  0  0 
 41 42  1  1  0  0  0 
 41 43  1  0  0  0  0 
 43 44  1  0  0  0  0 
 43 45  1  0  0  0  0 
 43 46  1  0  0  0  0 
 46 47  1  1  0  0  0 
 46 48  1  0  0  0  0 
 48 49  1  6  0  0  0 
 48 50  1  0  0  0  0 
 41 50  1  0  0  0  0 
 50 51  1  1  0  0  0 
 51 52  1  0  0  0  0 
 50 53  1  6  0  0  0 
 53 54  1  0  0  0  0 
 48 55  1  1  0  0  0 
 55 56  1  0  0  0  0 
 46 57  1  6  0  0  0 
 57 58  1  0  0  0  0 
 58 59  1  0  0  0  0 
 58 60  1  0  0  0  0 
 58 61  1  0  0  0  0 
 61 62  1  0  0  0  0 
 61 63  1  0  0  0  0 
 61 64  1  0  0  0  0 
 64 65  1  0  0  0  0 
M  END
> <Rank>
53

> <Priority_score>
0.016

> <Reaction_type>
aliphatic hydroxylation

> <Parent_ID>
20

> <Parent_InChI>
InChI=1S/C23H28F2N6O4S/c1-2-7-36-23-27-21(26-15-9-12(15)11-3-4-13(24)14(25)8-11)18-22(28-23)31(30-29-18)16-10-17(35-6-5-32)20(34)19(16)33/h3-4,8,12,15-17,19-20,32-34H,2,5-7,9-10H2,1H3,(H,26,27,28)

> <Parent_SMILES>
CCCSc1nc(N[C@@H]2C[C@H]2c2ccc(F)c(F)c2)c2nnn([C@@H]3C[C@H](OCCO)[C@@H](O)[C@H]3O)c2n1

$$$$
Molecule 20_metabolite 58
  CDK     0516241031

 65 69  0  0  0  0  0  0  0  0999 V2000
   -7.1926   -1.1272    0.0000 C   0  0  0  0  0  0  0  0  0  0  0  0
   -7.1997    0.3727    0.0000 H   0  0  0  0  0  0  0  0  0  0  0  0
   -7.6990   -2.5392    0.0000 H   0  0  0  0  0  0  0  0  0  0  0  0
   -8.6711   -0.8737    0.0000 H   0  0  0  0  0  0  0  0  0  0  0  0
   -5.8901   -1.8711    0.0000 C   0  0  0  0  0  0  0  0  0  0  0  0
   -6.8489   -3.0247    0.0000 H   0  0  0  0  0  0  0  0  0  0  0  0
   -4.9205   -3.0157    0.0000 H   0  0  0  0  0  0  0  0  0  0  0  0
   -4.5946   -1.1150    0.0000 C   0  0  0  0  0  0  0  0  0  0  0  0
   -3.6358    0.0385    0.0000 H   0  0  0  0  0  0  0  0  0  0  0  0
   -5.5642    0.0295    0.0000 H   0  0  0  0  0  0  0  0  0  0  0  0
   -3.2921   -1.8589    0.0000 S   0  0  0  0  0  0  0  0  0  0  0  0
   -1.9966   -1.1028    0.0000 C   0  0  0  0  0  0  0  0  0  0  0  0
   -0.6866   -1.8428    0.0000 N   0  0  0  0  0  0  0  0  0  0  0  0
    0.5934   -1.1028    0.0000 C   0  0  0  0  0  0  0  0  0  0  0  0
    0.5934    0.4072    0.0000 C   0  0  0  0  0  0  0  0  0  0  0  0
   -0.6866    1.1272    0.0000 C   0  0  0  0  0  0  0  0  0  0  0  0
   -1.9966    0.4072    0.0000 N   0  0  0  0  0  0  0  0  0  0  0  0
   -0.6792    2.6272    0.0000 N   0  0  0  0  0  0  0  0  0  0  0  0
   -1.9745    3.3835    0.0000 H   0  0  0  0  0  0  0  0  0  0  0  0
    0.6235    3.3708    0.0000 C   0  0  2  0  0  0  0  0  0  0  0  0
    1.5819    2.2169    0.0000 H   0  0  0  0  0  0  0  0  0  0  0  0
    0.1170    4.7835    0.0000 C   0  0  0  0  0  0  0  0  0  0  0  0
    0.1249    6.2835    0.0000 H   0  0  0  0  0  0  0  0  0  0  0  0
   -1.3615    4.5305    0.0000 H   0  0  0  0  0  0  0  0  0  0  0  0
    1.5936    4.5149    0.0000 C   0  0  1  0  0  0  0  0  0  0  0  0
    2.8887    3.7581    0.0000 H   0  0  0  0  0  0  0  0  0  0  0  0
    2.2807    6.3718    0.0000 C   0  0  0  0  0  0  0  0  0  0  0  0
    1.3224    7.5268    0.0000 C   0  0  0  0  0  0  0  0  0  0  0  0
   -0.1562    7.2740    0.0000 H   0  0  0  0  0  0  0  0  0  0  0  0
    1.8425    8.9346    0.0000 C   0  0  0  0  0  0  0  0  0  0  0  0
    0.8842   10.0885    0.0000 H   0  0  0  0  0  0  0  0  0  0  0  0
    3.3211    9.1874    0.0000 C   0  0  0  0  0  0  0  0  0  0  0  0
    4.2795    8.0324    0.0000 C   0  0  0  0  0  0  0  0  0  0  0  0
    3.7593    6.6246    0.0000 C   0  0  0  0  0  0  0  0  0  0  0  0
    4.7177    5.4707    0.0000 H   0  0  0  0  0  0  0  0  0  0  0  0
    5.7580    8.2852    0.0000 F   0  0  0  0  0  0  0  0  0  0  0  0
    3.8416   10.5942    0.0000 F   0  0  0  0  0  0  0  0  0  0  0  0
    2.0134    0.8572    0.0000 N   0  0  0  0  0  0  0  0  0  0  0  0
    2.8934   -0.3628    0.0000 N   0  0  0  0  0  0  0  0  0  0  0  0
    2.0134   -1.5728    0.0000 N   0  0  0  0  0  0  0  0  0  0  0  0
    2.4727   -3.0008    0.0000 C   0  0  2  0  0  0  0  0  0  0  0  0
    2.6186   -4.4958    0.0000 C   0  0  0  0  0  0  0  0  0  0  0  0
    1.1186   -4.4904    0.0000 H   0  0  0  0  0  0  0  0  0  0  0  0
    2.4623   -5.9876    0.0000 H   0  0  0  0  0  0  0  0  0  0  0  0
    4.0891   -4.8018    0.0000 C   0  0  1  0  0  0  0  0  0  0  0  0
    3.6284   -6.2293    0.0000 H   0  0  0  0  0  0  0  0  0  0  0  0
    4.8387   -3.5110    0.0000 C   0  0  2  0  0  0  0  0  0  0  0  0
    6.0502   -4.3953    0.0000 H   0  0  0  0  0  0  0  0  0  0  0  0
    3.8368   -2.3947    0.0000 C   0  0  1  0  0  0  0  0  0  0  0  0
    5.0515   -1.5146    0.0000 H   0  0  0  0  0  0  0  0  0  0  0  0
    3.0881   -1.0949    0.0000 O   0  0  0  0  0  0  0  0  0  0  0  0
    3.8394    0.2034    0.0000 H   0  0  0  0  0  0  0  0  0  0  0  0
    5.8445   -2.3982    0.0000 O   0  0  0  0  0  0  0  0  0  0  0  0
    7.3111   -2.7129    0.0000 H   0  0  0  0  0  0  0  0  0  0  0  0
    5.4593   -5.4122    0.0000 O   0  0  0  0  0  0  0  0  0  0  0  0
    5.6157   -6.9041    0.0000 C   0  0  0  0  0  0  0  0  0  0  0  0
    4.1194   -6.7991    0.0000 H   0  0  0  0  0  0  0  0  0  0  0  0
    5.2525   -8.3594    0.0000 H   0  0  0  0  0  0  0  0  0  0  0  0
    6.9859   -7.5145    0.0000 C   0  0  0  0  0  0  0  0  0  0  0  0
    8.4822   -7.6195    0.0000 H   0  0  0  0  0  0  0  0  0  0  0  0
    7.3491   -6.0592    0.0000 H   0  0  0  0  0  0  0  0  0  0  0  0
    7.1423   -9.0063    0.0000 O   0  0  0  0  0  0  0  0  0  0  0  0
    8.5125   -9.6168    0.0000 H   0  0  0  0  0  0  0  0  0  0  0  0
    0.5339   -3.4023    0.0000 O   0  0  0  0  0  0  0  0  0  0  0  0
    0.0629   -4.8265    0.0000 H   0  0  0  0  0  0  0  0  0  0  0  0
  1  2  1  0  0  0  0 
  1  3  1  0  0  0  0 
  1  4  1  0  0  0  0 
  1  5  1  0  0  0  0 
  5  6  1  0  0  0  0 
  5  7  1  0  0  0  0 
  5  8  1  0  0  0  0 
  8  9  1  0  0  0  0 
  8 10  1  0  0  0  0 
  8 11  1  0  0  0  0 
 11 12  1  0  0  0  0 
 12 13  2  0  0  0  0 
 13 14  1  0  0  0  0 
 14 15  2  0  0  0  0 
 15 16  1  0  0  0  0 
 16 17  2  0  0  0  0 
 12 17  1  0  0  0  0 
 16 18  1  0  0  0  0 
 18 19  1  0  0  0  0 
 20 18  1  6  0  0  0 
 20 21  1  1  0  0  0 
 20 22  1  0  0  0  0 
 22 23  1  0  0  0  0 
 22 24  1  0  0  0  0 
 22 25  1  0  0  0  0 
 20 25  1  0  0  0  0 
 25 26  1  6  0  0  0 
 25 27  1  1  0  0  0 
 27 28  2  0  0  0  0 
 28 29  1  0  0  0  0 
 28 30  1  0  0  0  0 
 30 31  1  0  0  0  0 
 30 32  2  0  0  0  0 
 32 33  1  0  0  0  0 
 33 34  2  0  0  0  0 
 27 34  1  0  0  0  0 
 34 35  1  0  0  0  0 
 33 36  1  0  0  0  0 
 32 37  1  0  0  0  0 
 15 38  1  0  0  0  0 
 38 39  2  0  0  0  0 
 39 40  1  0  0  0  0 
 14 40  1  0  0  0  0 
 41 40  1  1  0  0  0 
 41 42  1  0  0  0  0 
 42 43  1  0  0  0  0 
 42 44  1  0  0  0  0 
 42 45  1  0  0  0  0 
 45 46  1  6  0  0  0 
 45 47  1  0  0  0  0 
 47 48  1  1  0  0  0 
 47 49  1  0  0  0  0 
 41 49  1  0  0  0  0 
 49 50  1  1  0  0  0 
 49 51  1  6  0  0  0 
 51 52  1  0  0  0  0 
 47 53  1  6  0  0  0 
 53 54  1  0  0  0  0 
 45 55  1  1  0  0  0 
 55 56  1  0  0  0  0 
 56 57  1  0  0  0  0 
 56 58  1  0  0  0  0 
 56 59  1  0  0  0  0 
 59 60  1  0  0  0  0 
 59 61  1  0  0  0  0 
 59 62  1  0  0  0  0 
 62 63  1  0  0  0  0 
 41 64  1  6  0  0  0 
 64 65  1  0  0  0  0 
M  END
> <Rank>
58

> <Priority_score>
0.008

> <Reaction_type>
aliphatic hydroxylation

> <Parent_ID>
20

> <Parent_InChI>
InChI=1S/C23H28F2N6O4S/c1-2-7-36-23-27-21(26-15-9-12(15)11-3-4-13(24)14(25)8-11)18-22(28-23)31(30-29-18)16-10-17(35-6-5-32)20(34)19(16)33/h3-4,8,12,15-17,19-20,32-34H,2,5-7,9-10H2,1H3,(H,26,27,28)

> <Parent_SMILES>
CCCSc1nc(N[C@@H]2C[C@H]2c2ccc(F)c(F)c2)c2nnn([C@@H]3C[C@H](OCCO)[C@@H](O)[C@H]3O)c2n1

$$$$
Molecule 20_metabolite 59
  CDK     0516241031

 62 66  0  0  0  0  0  0  0  0999 V2000
   -7.9700   -0.6980    0.0000 C   0  0  0  0  0  0  0  0  0  0  0  0
   -9.2655   -1.4541    0.0000 H   0  0  0  0  0  0  0  0  0  0  0  0
   -7.0112    0.4555    0.0000 H   0  0  0  0  0  0  0  0  0  0  0  0
   -8.9396    0.4465    0.0000 H   0  0  0  0  0  0  0  0  0  0  0  0
   -6.6674   -1.4419    0.0000 C   0  0  0  0  0  0  0  0  0  0  0  0
   -7.6262   -2.5955    0.0000 H   0  0  0  0  0  0  0  0  0  0  0  0
   -5.6979   -2.5865    0.0000 H   0  0  0  0  0  0  0  0  0  0  0  0
   -5.3719   -0.6858    0.0000 C   0  0  0  0  0  0  0  0  0  0  0  0
   -3.8960   -0.4184    0.0000 H   0  0  0  0  0  0  0  0  0  0  0  0
   -4.8523   -2.0930    0.0000 H   0  0  0  0  0  0  0  0  0  0  0  0
   -5.3790    0.8141    0.0000 S   0  0  0  0  0  0  0  0  0  0  0  0
   -4.0835    1.5702    0.0000 C   0  0  0  0  0  0  0  0  0  0  0  0
   -4.0835    3.0748    0.0000 N   0  0  0  0  0  0  0  0  0  0  0  0
   -2.8096    3.8253    0.0000 C   0  0  0  0  0  0  0  0  0  0  0  0
   -1.4949    3.0826    0.0000 C   0  0  0  0  0  0  0  0  0  0  0  0
   -1.4975    1.6140    0.0000 C   0  0  0  0  0  0  0  0  0  0  0  0
   -2.7687    0.8276    0.0000 N   0  0  0  0  0  0  0  0  0  0  0  0
   -0.1879    0.8827    0.0000 N   0  0  0  0  0  0  0  0  0  0  0  0
   -0.1664   -0.6171    0.0000 H   0  0  0  0  0  0  0  0  0  0  0  0
    1.1003    1.6512    0.0000 C   0  0  2  0  0  0  0  0  0  0  0  0
    0.5670    3.0532    0.0000 H   0  0  0  0  0  0  0  0  0  0  0  0
    2.0812    0.5154    0.0000 C   0  0  0  0  0  0  0  0  0  0  0  0
    3.3911   -0.2155    0.0000 H   0  0  0  0  0  0  0  0  0  0  0  0
    1.1337   -0.6475    0.0000 H   0  0  0  0  0  0  0  0  0  0  0  0
    2.5735    1.9332    0.0000 C   0  0  1  0  0  0  0  0  0  0  0  0
    2.5516    3.4330    0.0000 H   0  0  0  0  0  0  0  0  0  0  0  0
    4.5283    1.6181    0.0000 C   0  0  0  0  0  0  0  0  0  0  0  0
    5.0626    0.2156    0.0000 C   0  0  0  0  0  0  0  0  0  0  0  0
    4.1153   -0.9474    0.0000 H   0  0  0  0  0  0  0  0  0  0  0  0
    6.5442   -0.0239    0.0000 C   0  0  0  0  0  0  0  0  0  0  0  0
    7.0775   -1.4259    0.0000 H   0  0  0  0  0  0  0  0  0  0  0  0
    7.4915    1.1391    0.0000 C   0  0  0  0  0  0  0  0  0  0  0  0
    6.9572    2.5416    0.0000 C   0  0  0  0  0  0  0  0  0  0  0  0
    5.4756    2.7811    0.0000 C   0  0  0  0  0  0  0  0  0  0  0  0
    4.9423    4.1831    0.0000 H   0  0  0  0  0  0  0  0  0  0  0  0
    7.9046    3.7046    0.0000 F   0  0  0  0  0  0  0  0  0  0  0  0
    8.9724    0.9004    0.0000 F   0  0  0  0  0  0  0  0  0  0  0  0
   -0.4047    4.0977    0.0000 N   0  0  0  0  0  0  0  0  0  0  0  0
   -1.0341    5.4639    0.0000 N   0  0  0  0  0  0  0  0  0  0  0  0
   -2.5204    5.2929    0.0000 N   0  0  0  0  0  0  0  0  0  0  0  0
   -3.5378    6.3951    0.0000 C   0  0  2  0  0  0  0  0  0  0  0  0
   -4.5251    5.2658    0.0000 H   0  0  0  0  0  0  0  0  0  0  0  0
   -4.7678    7.2573    0.0000 C   0  0  0  0  0  0  0  0  0  0  0  0
   -5.5009    5.9487    0.0000 H   0  0  0  0  0  0  0  0  0  0  0  0
   -6.1436    7.8550    0.0000 H   0  0  0  0  0  0  0  0  0  0  0  0
   -4.3110    8.6883    0.0000 C   0  0  1  0  0  0  0  0  0  0  0  0
   -5.7805    8.9893    0.0000 H   0  0  0  0  0  0  0  0  0  0  0  0
   -2.8184    8.7060    0.0000 C   0  0  0  0  0  0  0  0  0  0  0  0
   -2.3392    7.2846    0.0000 C   0  0  0  0  0  0  0  0  0  0  0  0
   -0.9078    6.8362    0.0000 O   0  0  0  0  0  0  0  0  0  0  0  0
    0.1962    7.8516    0.0000 H   0  0  0  0  0  0  0  0  0  0  0  0
   -1.9507    9.9295    0.0000 O   0  0  0  0  0  0  0  0  0  0  0  0
   -2.5765   11.2928    0.0000 H   0  0  0  0  0  0  0  0  0  0  0  0
   -4.1686   10.1815    0.0000 O   0  0  0  0  0  0  0  0  0  0  0  0
   -5.3905   11.0514    0.0000 C   0  0  0  0  0  0  0  0  0  0  0  0
   -6.0351    9.6969    0.0000 H   0  0  0  0  0  0  0  0  0  0  0  0
   -6.8364   11.4509    0.0000 H   0  0  0  0  0  0  0  0  0  0  0  0
   -5.2481   12.5446    0.0000 C   0  0  0  0  0  0  0  0  0  0  0  0
   -4.6036   13.8991    0.0000 H   0  0  0  0  0  0  0  0  0  0  0  0
   -3.8023   12.1451    0.0000 H   0  0  0  0  0  0  0  0  0  0  0  0
   -6.4701   13.4146    0.0000 O   0  0  0  0  0  0  0  0  0  0  0  0
   -6.3277   14.9078    0.0000 H   0  0  0  0  0  0  0  0  0  0  0  0
  1  2  1  0  0  0  0 
  1  3  1  0  0  0  0 
  1  4  1  0  0  0  0 
  1  5  1  0  0  0  0 
  5  6  1  0  0  0  0 
  5  7  1  0  0  0  0 
  5  8  1  0  0  0  0 
  8  9  1  0  0  0  0 
  8 10  1  0  0  0  0 
  8 11  1  0  0  0  0 
 11 12  1  0  0  0  0 
 12 13  2  0  0  0  0 
 13 14  1  0  0  0  0 
 14 15  2  0  0  0  0 
 15 16  1  0  0  0  0 
 16 17  2  0  0  0  0 
 12 17  1  0  0  0  0 
 16 18  1  0  0  0  0 
 18 19  1  0  0  0  0 
 20 18  1  1  0  0  0 
 20 21  1  6  0  0  0 
 20 22  1  0  0  0  0 
 22 23  1  0  0  0  0 
 22 24  1  0  0  0  0 
 22 25  1  0  0  0  0 
 20 25  1  0  0  0  0 
 25 26  1  1  0  0  0 
 25 27  1  6  0  0  0 
 27 28  2  0  0  0  0 
 28 29  1  0  0  0  0 
 28 30  1  0  0  0  0 
 30 31  1  0  0  0  0 
 30 32  2  0  0  0  0 
 32 33  1  0  0  0  0 
 33 34  2  0  0  0  0 
 27 34  1  0  0  0  0 
 34 35  1  0  0  0  0 
 33 36  1  0  0  0  0 
 32 37  1  0  0  0  0 
 15 38  1  0  0  0  0 
 38 39  2  0  0  0  0 
 39 40  1  0  0  0  0 
 14 40  1  0  0  0  0 
 41 40  1  6  0  0  0 
 41 42  1  1  0  0  0 
 41 43  1  0  0  0  0 
 43 44  1  0  0  0  0 
 43 45  1  0  0  0  0 
 43 46  1  0  0  0  0 
 46 47  1  1  0  0  0 
 46 48  1  0  0  0  0 
 48 49  2  0  0  0  0 
 41 49  1  0  0  0  0 
 49 50  1  0  0  0  0 
 50 51  1  0  0  0  0 
 48 52  1  0  0  0  0 
 52 53  1  0  0  0  0 
 46 54  1  6  0  0  0 
 54 55  1  0  0  0  0 
 55 56  1  0  0  0  0 
 55 57  1  0  0  0  0 
 55 58  1  0  0  0  0 
 58 59  1  0  0  0  0 
 58 60  1  0  0  0  0 
 58 61  1  0  0  0  0 
 61 62  1  0  0  0  0 
M  END
> <Rank>
59

> <Priority_score>
0.0072

> <Reaction_type>
alkyl dehydrogenation

> <Parent_ID>
20

> <Parent_InChI>
InChI=1S/C23H28F2N6O4S/c1-2-7-36-23-27-21(26-15-9-12(15)11-3-4-13(24)14(25)8-11)18-22(28-23)31(30-29-18)16-10-17(35-6-5-32)20(34)19(16)33/h3-4,8,12,15-17,19-20,32-34H,2,5-7,9-10H2,1H3,(H,26,27,28)

> <Parent_SMILES>
CCCSc1nc(N[C@@H]2C[C@H]2c2ccc(F)c(F)c2)c2nnn([C@@H]3C[C@H](OCCO)[C@@H](O)[C@H]3O)c2n1

$$$$
Molecule 20_metabolite 60
  CDK     0516241031

 62 66  0  0  0  0  0  0  0  0999 V2000
   -7.9700   -0.6980    0.0000 C   0  0  0  0  0  0  0  0  0  0  0  0
   -9.2655   -1.4541    0.0000 H   0  0  0  0  0  0  0  0  0  0  0  0
   -7.0112    0.4555    0.0000 H   0  0  0  0  0  0  0  0  0  0  0  0
   -8.9396    0.4465    0.0000 H   0  0  0  0  0  0  0  0  0  0  0  0
   -6.6674   -1.4419    0.0000 C   0  0  0  0  0  0  0  0  0  0  0  0
   -7.6262   -2.5955    0.0000 H   0  0  0  0  0  0  0  0  0  0  0  0
   -5.6979   -2.5865    0.0000 H   0  0  0  0  0  0  0  0  0  0  0  0
   -5.3719   -0.6858    0.0000 C   0  0  0  0  0  0  0  0  0  0  0  0
   -3.8960   -0.4184    0.0000 H   0  0  0  0  0  0  0  0  0  0  0  0
   -4.8523   -2.0930    0.0000 H   0  0  0  0  0  0  0  0  0  0  0  0
   -5.3790    0.8141    0.0000 S   0  0  0  0  0  0  0  0  0  0  0  0
   -4.0835    1.5702    0.0000 C   0  0  0  0  0  0  0  0  0  0  0  0
   -4.0835    3.0748    0.0000 N   0  0  0  0  0  0  0  0  0  0  0  0
   -2.8096    3.8253    0.0000 C   0  0  0  0  0  0  0  0  0  0  0  0
   -1.4949    3.0826    0.0000 C   0  0  0  0  0  0  0  0  0  0  0  0
   -1.4975    1.6140    0.0000 C   0  0  0  0  0  0  0  0  0  0  0  0
   -2.7687    0.8276    0.0000 N   0  0  0  0  0  0  0  0  0  0  0  0
   -0.1879    0.8827    0.0000 N   0  0  0  0  0  0  0  0  0  0  0  0
   -0.1664   -0.6171    0.0000 H   0  0  0  0  0  0  0  0  0  0  0  0
    1.1003    1.6512    0.0000 C   0  0  2  0  0  0  0  0  0  0  0  0
    0.5670    3.0532    0.0000 H   0  0  0  0  0  0  0  0  0  0  0  0
    2.0812    0.5154    0.0000 C   0  0  0  0  0  0  0  0  0  0  0  0
    3.3911   -0.2155    0.0000 H   0  0  0  0  0  0  0  0  0  0  0  0
    1.1337   -0.6475    0.0000 H   0  0  0  0  0  0  0  0  0  0  0  0
    2.5735    1.9332    0.0000 C   0  0  1  0  0  0  0  0  0  0  0  0
    2.5516    3.4330    0.0000 H   0  0  0  0  0  0  0  0  0  0  0  0
    4.5283    1.6181    0.0000 C   0  0  0  0  0  0  0  0  0  0  0  0
    5.0626    0.2156    0.0000 C   0  0  0  0  0  0  0  0  0  0  0  0
    4.1153   -0.9474    0.0000 H   0  0  0  0  0  0  0  0  0  0  0  0
    6.5442   -0.0239    0.0000 C   0  0  0  0  0  0  0  0  0  0  0  0
    7.0775   -1.4259    0.0000 H   0  0  0  0  0  0  0  0  0  0  0  0
    7.4915    1.1391    0.0000 C   0  0  0  0  0  0  0  0  0  0  0  0
    6.9572    2.5416    0.0000 C   0  0  0  0  0  0  0  0  0  0  0  0
    5.4756    2.7811    0.0000 C   0  0  0  0  0  0  0  0  0  0  0  0
    4.9423    4.1831    0.0000 H   0  0  0  0  0  0  0  0  0  0  0  0
    7.9046    3.7046    0.0000 F   0  0  0  0  0  0  0  0  0  0  0  0
    8.9724    0.9004    0.0000 F   0  0  0  0  0  0  0  0  0  0  0  0
   -0.4047    4.0977    0.0000 N   0  0  0  0  0  0  0  0  0  0  0  0
   -1.0341    5.4639    0.0000 N   0  0  0  0  0  0  0  0  0  0  0  0
   -2.5204    5.2929    0.0000 N   0  0  0  0  0  0  0  0  0  0  0  0
   -3.5378    6.3951    0.0000 C   0  0  2  0  0  0  0  0  0  0  0  0
   -4.5251    5.2658    0.0000 H   0  0  0  0  0  0  0  0  0  0  0  0
   -4.7678    7.2573    0.0000 C   0  0  0  0  0  0  0  0  0  0  0  0
   -5.5009    5.9487    0.0000 H   0  0  0  0  0  0  0  0  0  0  0  0
   -6.1436    7.8550    0.0000 H   0  0  0  0  0  0  0  0  0  0  0  0
   -4.3110    8.6883    0.0000 C   0  0  0  0  0  0  0  0  0  0  0  0
   -2.8184    8.7060    0.0000 C   0  0  0  0  0  0  0  0  0  0  0  0
   -2.3392    7.2846    0.0000 C   0  0  1  0  0  0  0  0  0  0  0  0
   -0.9755    7.9094    0.0000 H   0  0  0  0  0  0  0  0  0  0  0  0
   -1.5757    5.9935    0.0000 O   0  0  0  0  0  0  0  0  0  0  0  0
   -0.0758    6.0091    0.0000 H   0  0  0  0  0  0  0  0  0  0  0  0
   -1.9507    9.9295    0.0000 O   0  0  0  0  0  0  0  0  0  0  0  0
   -2.5765   11.2928    0.0000 H   0  0  0  0  0  0  0  0  0  0  0  0
   -5.2030    9.8942    0.0000 O   0  0  0  0  0  0  0  0  0  0  0  0
   -4.6045   11.2697    0.0000 C   0  0  0  0  0  0  0  0  0  0  0  0
   -3.5718   12.3575    0.0000 H   0  0  0  0  0  0  0  0  0  0  0  0
   -3.3539   10.4415    0.0000 H   0  0  0  0  0  0  0  0  0  0  0  0
   -5.4965   12.4757    0.0000 C   0  0  0  0  0  0  0  0  0  0  0  0
   -6.5293   11.3878    0.0000 H   0  0  0  0  0  0  0  0  0  0  0  0
   -6.7472   13.3038    0.0000 H   0  0  0  0  0  0  0  0  0  0  0  0
   -4.8981   13.8511    0.0000 O   0  0  0  0  0  0  0  0  0  0  0  0
   -5.7901   15.0571    0.0000 H   0  0  0  0  0  0  0  0  0  0  0  0
  1  2  1  0  0  0  0 
  1  3  1  0  0  0  0 
  1  4  1  0  0  0  0 
  1  5  1  0  0  0  0 
  5  6  1  0  0  0  0 
  5  7  1  0  0  0  0 
  5  8  1  0  0  0  0 
  8  9  1  0  0  0  0 
  8 10  1  0  0  0  0 
  8 11  1  0  0  0  0 
 11 12  1  0  0  0  0 
 12 13  2  0  0  0  0 
 13 14  1  0  0  0  0 
 14 15  2  0  0  0  0 
 15 16  1  0  0  0  0 
 16 17  2  0  0  0  0 
 12 17  1  0  0  0  0 
 16 18  1  0  0  0  0 
 18 19  1  0  0  0  0 
 20 18  1  1  0  0  0 
 20 21  1  6  0  0  0 
 20 22  1  0  0  0  0 
 22 23  1  0  0  0  0 
 22 24  1  0  0  0  0 
 22 25  1  0  0  0  0 
 20 25  1  0  0  0  0 
 25 26  1  1  0  0  0 
 25 27  1  6  0  0  0 
 27 28  2  0  0  0  0 
 28 29  1  0  0  0  0 
 28 30  1  0  0  0  0 
 30 31  1  0  0  0  0 
 30 32  2  0  0  0  0 
 32 33  1  0  0  0  0 
 33 34  2  0  0  0  0 
 27 34  1  0  0  0  0 
 34 35  1  0  0  0  0 
 33 36  1  0  0  0  0 
 32 37  1  0  0  0  0 
 15 38  1  0  0  0  0 
 38 39  2  0  0  0  0 
 39 40  1  0  0  0  0 
 14 40  1  0  0  0  0 
 41 40  1  6  0  0  0 
 41 42  1  1  0  0  0 
 41 43  1  0  0  0  0 
 43 44  1  0  0  0  0 
 43 45  1  0  0  0  0 
 43 46  1  0  0  0  0 
 46 47  2  0  0  0  0 
 47 48  1  0  0  0  0 
 41 48  1  0  0  0  0 
 48 49  1  6  0  0  0 
 48 50  1  1  0  0  0 
 50 51  1  0  0  0  0 
 47 52  1  0  0  0  0 
 52 53  1  0  0  0  0 
 46 54  1  0  0  0  0 
 54 55  1  0  0  0  0 
 55 56  1  0  0  0  0 
 55 57  1  0  0  0  0 
 55 58  1  0  0  0  0 
 58 59  1  0  0  0  0 
 58 60  1  0  0  0  0 
 58 61  1  0  0  0  0 
 61 62  1  0  0  0  0 
M  END
> <Rank>
59

> <Priority_score>
0.0072

> <Reaction_type>
alkyl dehydrogenation

> <Parent_ID>
20

> <Parent_InChI>
InChI=1S/C23H28F2N6O4S/c1-2-7-36-23-27-21(26-15-9-12(15)11-3-4-13(24)14(25)8-11)18-22(28-23)31(30-29-18)16-10-17(35-6-5-32)20(34)19(16)33/h3-4,8,12,15-17,19-20,32-34H,2,5-7,9-10H2,1H3,(H,26,27,28)

> <Parent_SMILES>
CCCSc1nc(N[C@@H]2C[C@H]2c2ccc(F)c(F)c2)c2nnn([C@@H]3C[C@H](OCCO)[C@@H](O)[C@H]3O)c2n1

$$$$
Molecule 20_metabolite 61
  CDK     0516241031

 65 69  0  0  0  0  0  0  0  0999 V2000
   -7.9700   -0.6980    0.0000 C   0  0  0  0  0  0  0  0  0  0  0  0
   -9.2655   -1.4541    0.0000 H   0  0  0  0  0  0  0  0  0  0  0  0
   -7.0112    0.4555    0.0000 H   0  0  0  0  0  0  0  0  0  0  0  0
   -8.9396    0.4465    0.0000 H   0  0  0  0  0  0  0  0  0  0  0  0
   -6.6674   -1.4419    0.0000 C   0  0  0  0  0  0  0  0  0  0  0  0
   -7.6262   -2.5955    0.0000 H   0  0  0  0  0  0  0  0  0  0  0  0
   -5.6979   -2.5865    0.0000 H   0  0  0  0  0  0  0  0  0  0  0  0
   -5.3719   -0.6858    0.0000 C   0  0  0  0  0  0  0  0  0  0  0  0
   -3.8960   -0.4184    0.0000 H   0  0  0  0  0  0  0  0  0  0  0  0
   -4.8523   -2.0930    0.0000 H   0  0  0  0  0  0  0  0  0  0  0  0
   -5.3790    0.8141    0.0000 S   0  0  0  0  0  0  0  0  0  0  0  0
   -4.0835    1.5702    0.0000 C   0  0  0  0  0  0  0  0  0  0  0  0
   -4.0835    3.0748    0.0000 N   0  0  0  0  0  0  0  0  0  0  0  0
   -2.8096    3.8253    0.0000 C   0  0  0  0  0  0  0  0  0  0  0  0
   -1.4949    3.0826    0.0000 C   0  0  0  0  0  0  0  0  0  0  0  0
   -1.4975    1.6140    0.0000 C   0  0  0  0  0  0  0  0  0  0  0  0
   -2.7687    0.8276    0.0000 N   0  0  0  0  0  0  0  0  0  0  0  0
   -0.1879    0.8827    0.0000 N   0  0  0  0  0  0  0  0  0  0  0  0
   -0.1664   -0.6171    0.0000 H   0  0  0  0  0  0  0  0  0  0  0  0
    1.1003    1.6512    0.0000 C   0  0  2  0  0  0  0  0  0  0  0  0
    0.5670    3.0532    0.0000 H   0  0  0  0  0  0  0  0  0  0  0  0
    2.0812    0.5154    0.0000 C   0  0  0  0  0  0  0  0  0  0  0  0
    3.3911   -0.2155    0.0000 H   0  0  0  0  0  0  0  0  0  0  0  0
    1.1337   -0.6475    0.0000 H   0  0  0  0  0  0  0  0  0  0  0  0
    2.5735    1.9332    0.0000 C   0  0  1  0  0  0  0  0  0  0  0  0
    2.5516    3.4330    0.0000 H   0  0  0  0  0  0  0  0  0  0  0  0
    4.5283    1.6181    0.0000 C   0  0  0  0  0  0  0  0  0  0  0  0
    5.0626    0.2156    0.0000 C   0  0  0  0  0  0  0  0  0  0  0  0
    4.1153   -0.9474    0.0000 H   0  0  0  0  0  0  0  0  0  0  0  0
    6.5442   -0.0239    0.0000 C   0  0  0  0  0  0  0  0  0  0  0  0
    7.0775   -1.4259    0.0000 H   0  0  0  0  0  0  0  0  0  0  0  0
    7.4915    1.1391    0.0000 C   0  0  0  0  0  0  0  0  0  0  0  0
    6.9572    2.5416    0.0000 C   0  0  0  0  0  0  0  0  0  0  0  0
    5.4756    2.7811    0.0000 C   0  0  0  0  0  0  0  0  0  0  0  0
    4.9423    4.1831    0.0000 H   0  0  0  0  0  0  0  0  0  0  0  0
    7.9046    3.7046    0.0000 O   0  0  0  0  0  0  0  0  0  0  0  0
    9.3854    3.4657    0.0000 H   0  0  0  0  0  0  0  0  0  0  0  0
    8.9724    0.9004    0.0000 F   0  0  0  0  0  0  0  0  0  0  0  0
   -0.4047    4.0977    0.0000 N   0  0  0  0  0  0  0  0  0  0  0  0
   -1.0341    5.4639    0.0000 N   0  0  0  0  0  0  0  0  0  0  0  0
   -2.5204    5.2929    0.0000 N   0  0  0  0  0  0  0  0  0  0  0  0
   -3.5378    6.3951    0.0000 C   0  0  2  0  0  0  0  0  0  0  0  0
   -4.5251    5.2658    0.0000 H   0  0  0  0  0  0  0  0  0  0  0  0
   -4.7678    7.2573    0.0000 C   0  0  0  0  0  0  0  0  0  0  0  0
   -5.5009    5.9487    0.0000 H   0  0  0  0  0  0  0  0  0  0  0  0
   -6.1436    7.8550    0.0000 H   0  0  0  0  0  0  0  0  0  0  0  0
   -4.3110    8.6883    0.0000 C   0  0  1  0  0  0  0  0  0  0  0  0
   -5.7805    8.9893    0.0000 H   0  0  0  0  0  0  0  0  0  0  0  0
   -2.8184    8.7060    0.0000 C   0  0  2  0  0  0  0  0  0  0  0  0
   -2.9925   10.1959    0.0000 H   0  0  0  0  0  0  0  0  0  0  0  0
   -2.3392    7.2846    0.0000 C   0  0  1  0  0  0  0  0  0  0  0  0
   -0.9755    7.9094    0.0000 H   0  0  0  0  0  0  0  0  0  0  0  0
   -1.5757    5.9935    0.0000 O   0  0  0  0  0  0  0  0  0  0  0  0
   -0.0758    6.0091    0.0000 H   0  0  0  0  0  0  0  0  0  0  0  0
   -1.3548    9.0344    0.0000 O   0  0  0  0  0  0  0  0  0  0  0  0
   -0.9075   10.4662    0.0000 H   0  0  0  0  0  0  0  0  0  0  0  0
   -4.1686   10.1815    0.0000 O   0  0  0  0  0  0  0  0  0  0  0  0
   -5.3905   11.0514    0.0000 C   0  0  0  0  0  0  0  0  0  0  0  0
   -6.0351    9.6969    0.0000 H   0  0  0  0  0  0  0  0  0  0  0  0
   -6.8364   11.4509    0.0000 H   0  0  0  0  0  0  0  0  0  0  0  0
   -5.2481   12.5446    0.0000 C   0  0  0  0  0  0  0  0  0  0  0  0
   -4.6036   13.8991    0.0000 H   0  0  0  0  0  0  0  0  0  0  0  0
   -3.8023   12.1451    0.0000 H   0  0  0  0  0  0  0  0  0  0  0  0
   -6.4701   13.4146    0.0000 O   0  0  0  0  0  0  0  0  0  0  0  0
   -6.3277   14.9078    0.0000 H   0  0  0  0  0  0  0  0  0  0  0  0
  1  2  1  0  0  0  0 
  1  3  1  0  0  0  0 
  1  4  1  0  0  0  0 
  1  5  1  0  0  0  0 
  5  6  1  0  0  0  0 
  5  7  1  0  0  0  0 
  5  8  1  0  0  0  0 
  8  9  1  0  0  0  0 
  8 10  1  0  0  0  0 
  8 11  1  0  0  0  0 
 11 12  1  0  0  0  0 
 12 13  2  0  0  0  0 
 13 14  1  0  0  0  0 
 14 15  2  0  0  0  0 
 15 16  1  0  0  0  0 
 16 17  2  0  0  0  0 
 12 17  1  0  0  0  0 
 16 18  1  0  0  0  0 
 18 19  1  0  0  0  0 
 20 18  1  1  0  0  0 
 20 21  1  6  0  0  0 
 20 22  1  0  0  0  0 
 22 23  1  0  0  0  0 
 22 24  1  0  0  0  0 
 22 25  1  0  0  0  0 
 20 25  1  0  0  0  0 
 25 26  1  1  0  0  0 
 25 27  1  6  0  0  0 
 27 28  2  0  0  0  0 
 28 29  1  0  0  0  0 
 28 30  1  0  0  0  0 
 30 31  1  0  0  0  0 
 30 32  2  0  0  0  0 
 32 33  1  0  0  0  0 
 33 34  2  0  0  0  0 
 27 34  1  0  0  0  0 
 34 35  1  0  0  0  0 
 33 36  1  0  0  0  0 
 36 37  1  0  0  0  0 
 32 38  1  0  0  0  0 
 15 39  1  0  0  0  0 
 39 40  2  0  0  0  0 
 40 41  1  0  0  0  0 
 14 41  1  0  0  0  0 
 42 41  1  6  0  0  0 
 42 43  1  1  0  0  0 
 42 44  1  0  0  0  0 
 44 45  1  0  0  0  0 
 44 46  1  0  0  0  0 
 44 47  1  0  0  0  0 
 47 48  1  1  0  0  0 
 47 49  1  0  0  0  0 
 49 50  1  6  0  0  0 
 49 51  1  0  0  0  0 
 42 51  1  0  0  0  0 
 51 52  1  6  0  0  0 
 51 53  1  1  0  0  0 
 53 54  1  0  0  0  0 
 49 55  1  1  0  0  0 
 55 56  1  0  0  0  0 
 47 57  1  6  0  0  0 
 57 58  1  0  0  0  0 
 58 59  1  0  0  0  0 
 58 60  1  0  0  0  0 
 58 61  1  0  0  0  0 
 61 62  1  0  0  0  0 
 61 63  1  0  0  0  0 
 61 64  1  0  0  0  0 
 64 65  1  0  0  0  0 
M  END
> <Rank>
61

> <Priority_score>
0.005600000000000001

> <Reaction_type>
oxidative dehalogenation benzyl

> <Parent_ID>
20

> <Parent_InChI>
InChI=1S/C23H28F2N6O4S/c1-2-7-36-23-27-21(26-15-9-12(15)11-3-4-13(24)14(25)8-11)18-22(28-23)31(30-29-18)16-10-17(35-6-5-32)20(34)19(16)33/h3-4,8,12,15-17,19-20,32-34H,2,5-7,9-10H2,1H3,(H,26,27,28)

> <Parent_SMILES>
CCCSc1nc(N[C@@H]2C[C@H]2c2ccc(F)c(F)c2)c2nnn([C@@H]3C[C@H](OCCO)[C@@H](O)[C@H]3O)c2n1

$$$$
Molecule 20_metabolite 62
  CDK     0516241031

 62 66  0  0  0  0  0  0  0  0999 V2000
   -7.9700   -0.6980    0.0000 C   0  0  0  0  0  0  0  0  0  0  0  0
   -9.2655   -1.4541    0.0000 H   0  0  0  0  0  0  0  0  0  0  0  0
   -7.0112    0.4555    0.0000 H   0  0  0  0  0  0  0  0  0  0  0  0
   -8.9396    0.4465    0.0000 H   0  0  0  0  0  0  0  0  0  0  0  0
   -6.6674   -1.4419    0.0000 C   0  0  0  0  0  0  0  0  0  0  0  0
   -7.6262   -2.5955    0.0000 H   0  0  0  0  0  0  0  0  0  0  0  0
   -5.6979   -2.5865    0.0000 H   0  0  0  0  0  0  0  0  0  0  0  0
   -5.3719   -0.6858    0.0000 C   0  0  0  0  0  0  0  0  0  0  0  0
   -3.8960   -0.4184    0.0000 H   0  0  0  0  0  0  0  0  0  0  0  0
   -4.8523   -2.0930    0.0000 H   0  0  0  0  0  0  0  0  0  0  0  0
   -5.3790    0.8141    0.0000 S   0  0  0  0  0  0  0  0  0  0  0  0
   -4.0835    1.5702    0.0000 C   0  0  0  0  0  0  0  0  0  0  0  0
   -4.0835    3.0748    0.0000 N   0  0  0  0  0  0  0  0  0  0  0  0
   -2.8096    3.8253    0.0000 C   0  0  0  0  0  0  0  0  0  0  0  0
   -1.4949    3.0826    0.0000 C   0  0  0  0  0  0  0  0  0  0  0  0
   -1.4975    1.6140    0.0000 C   0  0  0  0  0  0  0  0  0  0  0  0
   -2.7687    0.8276    0.0000 N   0  0  0  0  0  0  0  0  0  0  0  0
   -0.1879    0.8827    0.0000 N   0  0  0  0  0  0  0  0  0  0  0  0
   -0.1664   -0.6171    0.0000 H   0  0  0  0  0  0  0  0  0  0  0  0
    1.1003    1.6512    0.0000 C   0  0  2  0  0  0  0  0  0  0  0  0
    0.5670    3.0532    0.0000 H   0  0  0  0  0  0  0  0  0  0  0  0
    2.0812    0.5154    0.0000 C   0  0  0  0  0  0  0  0  0  0  0  0
    3.3911   -0.2155    0.0000 H   0  0  0  0  0  0  0  0  0  0  0  0
    1.1337   -0.6475    0.0000 H   0  0  0  0  0  0  0  0  0  0  0  0
    2.5735    1.9332    0.0000 C   0  0  1  0  0  0  0  0  0  0  0  0
    2.5516    3.4330    0.0000 H   0  0  0  0  0  0  0  0  0  0  0  0
    4.5283    1.6181    0.0000 C   0  0  0  0  0  0  0  0  0  0  0  0
    5.0626    0.2156    0.0000 C   0  0  0  0  0  0  0  0  0  0  0  0
    4.1153   -0.9474    0.0000 H   0  0  0  0  0  0  0  0  0  0  0  0
    6.5442   -0.0239    0.0000 C   0  0  0  0  0  0  0  0  0  0  0  0
    7.0775   -1.4259    0.0000 H   0  0  0  0  0  0  0  0  0  0  0  0
    7.4915    1.1391    0.0000 C   0  0  0  0  0  0  0  0  0  0  0  0
    6.9572    2.5416    0.0000 C   0  0  0  0  0  0  0  0  0  0  0  0
    5.4756    2.7811    0.0000 C   0  0  0  0  0  0  0  0  0  0  0  0
    4.9423    4.1831    0.0000 H   0  0  0  0  0  0  0  0  0  0  0  0
    7.9046    3.7046    0.0000 F   0  0  0  0  0  0  0  0  0  0  0  0
    8.9724    0.9004    0.0000 F   0  0  0  0  0  0  0  0  0  0  0  0
   -0.4047    4.0977    0.0000 N   0  0  0  0  0  0  0  0  0  0  0  0
   -1.0341    5.4639    0.0000 N   0  0  0  0  0  0  0  0  0  0  0  0
   -2.5204    5.2929    0.0000 N   0  0  0  0  0  0  0  0  0  0  0  0
   -3.5378    6.3951    0.0000 C   0  0  2  0  0  0  0  0  0  0  0  0
   -4.5251    5.2658    0.0000 H   0  0  0  0  0  0  0  0  0  0  0  0
   -4.7678    7.2573    0.0000 C   0  0  0  0  0  0  0  0  0  0  0  0
   -6.1892    6.7781    0.0000 H   0  0  0  0  0  0  0  0  0  0  0  0
   -4.3110    8.6883    0.0000 C   0  0  0  0  0  0  0  0  0  0  0  0
   -2.8184    8.7060    0.0000 C   0  0  2  0  0  0  0  0  0  0  0  0
   -2.9925   10.1959    0.0000 H   0  0  0  0  0  0  0  0  0  0  0  0
   -2.3392    7.2846    0.0000 C   0  0  1  0  0  0  0  0  0  0  0  0
   -0.9755    7.9094    0.0000 H   0  0  0  0  0  0  0  0  0  0  0  0
   -1.5757    5.9935    0.0000 O   0  0  0  0  0  0  0  0  0  0  0  0
   -0.0758    6.0091    0.0000 H   0  0  0  0  0  0  0  0  0  0  0  0
   -1.3548    9.0344    0.0000 O   0  0  0  0  0  0  0  0  0  0  0  0
   -0.9075   10.4662    0.0000 H   0  0  0  0  0  0  0  0  0  0  0  0
   -5.2030    9.8942    0.0000 O   0  0  0  0  0  0  0  0  0  0  0  0
   -6.6933    9.7247    0.0000 C   0  0  0  0  0  0  0  0  0  0  0  0
   -8.0359    9.0557    0.0000 H   0  0  0  0  0  0  0  0  0  0  0  0
   -6.2676    8.2864    0.0000 H   0  0  0  0  0  0  0  0  0  0  0  0
   -7.5853   10.9307    0.0000 C   0  0  0  0  0  0  0  0  0  0  0  0
   -6.2428   11.5997    0.0000 H   0  0  0  0  0  0  0  0  0  0  0  0
   -8.0111   12.3690    0.0000 H   0  0  0  0  0  0  0  0  0  0  0  0
   -9.0757   10.7612    0.0000 O   0  0  0  0  0  0  0  0  0  0  0  0
   -9.9677   11.9672    0.0000 H   0  0  0  0  0  0  0  0  0  0  0  0
  1  2  1  0  0  0  0 
  1  3  1  0  0  0  0 
  1  4  1  0  0  0  0 
  1  5  1  0  0  0  0 
  5  6  1  0  0  0  0 
  5  7  1  0  0  0  0 
  5  8  1  0  0  0  0 
  8  9  1  0  0  0  0 
  8 10  1  0  0  0  0 
  8 11  1  0  0  0  0 
 11 12  1  0  0  0  0 
 12 13  2  0  0  0  0 
 13 14  1  0  0  0  0 
 14 15  2  0  0  0  0 
 15 16  1  0  0  0  0 
 16 17  2  0  0  0  0 
 12 17  1  0  0  0  0 
 16 18  1  0  0  0  0 
 18 19  1  0  0  0  0 
 20 18  1  1  0  0  0 
 20 21  1  6  0  0  0 
 20 22  1  0  0  0  0 
 22 23  1  0  0  0  0 
 22 24  1  0  0  0  0 
 22 25  1  0  0  0  0 
 20 25  1  0  0  0  0 
 25 26  1  1  0  0  0 
 25 27  1  6  0  0  0 
 27 28  2  0  0  0  0 
 28 29  1  0  0  0  0 
 28 30  1  0  0  0  0 
 30 31  1  0  0  0  0 
 30 32  2  0  0  0  0 
 32 33  1  0  0  0  0 
 33 34  2  0  0  0  0 
 27 34  1  0  0  0  0 
 34 35  1  0  0  0  0 
 33 36  1  0  0  0  0 
 32 37  1  0  0  0  0 
 15 38  1  0  0  0  0 
 38 39  2  0  0  0  0 
 39 40  1  0  0  0  0 
 14 40  1  0  0  0  0 
 41 40  1  6  0  0  0 
 41 42  1  1  0  0  0 
 41 43  1  0  0  0  0 
 43 44  1  0  0  0  0 
 43 45  2  0  0  0  0 
 45 46  1  0  0  0  0 
 46 47  1  6  0  0  0 
 46 48  1  0  0  0  0 
 41 48  1  0  0  0  0 
 48 49  1  6  0  0  0 
 48 50  1  1  0  0  0 
 50 51  1  0  0  0  0 
 46 52  1  1  0  0  0 
 52 53  1  0  0  0  0 
 45 54  1  0  0  0  0 
 54 55  1  0  0  0  0 
 55 56  1  0  0  0  0 
 55 57  1  0  0  0  0 
 55 58  1  0  0  0  0 
 58 59  1  0  0  0  0 
 58 60  1  0  0  0  0 
 58 61  1  0  0  0  0 
 61 62  1  0  0  0  0 
M  END
> <Rank>
62

> <Priority_score>
0.004

> <Reaction_type>
alkyl dehydrogenation

> <Parent_ID>
20

> <Parent_InChI>
InChI=1S/C23H28F2N6O4S/c1-2-7-36-23-27-21(26-15-9-12(15)11-3-4-13(24)14(25)8-11)18-22(28-23)31(30-29-18)16-10-17(35-6-5-32)20(34)19(16)33/h3-4,8,12,15-17,19-20,32-34H,2,5-7,9-10H2,1H3,(H,26,27,28)

> <Parent_SMILES>
CCCSc1nc(N[C@@H]2C[C@H]2c2ccc(F)c(F)c2)c2nnn([C@@H]3C[C@H](OCCO)[C@@H](O)[C@H]3O)c2n1

$$$$
Molecule 20_metabolite 63
  CDK     0516241031

 62 66  0  0  0  0  0  0  0  0999 V2000
   -7.6627   -1.2246    0.0000 C   0  0  0  0  0  0  0  0  0  0  0  0
   -7.6697    0.2754    0.0000 H   0  0  0  0  0  0  0  0  0  0  0  0
   -8.1691   -2.6365    0.0000 H   0  0  0  0  0  0  0  0  0  0  0  0
   -9.1411   -0.9711    0.0000 H   0  0  0  0  0  0  0  0  0  0  0  0
   -6.3601   -1.9685    0.0000 C   0  0  0  0  0  0  0  0  0  0  0  0
   -7.3189   -3.1221    0.0000 H   0  0  0  0  0  0  0  0  0  0  0  0
   -5.3906   -3.1130    0.0000 H   0  0  0  0  0  0  0  0  0  0  0  0
   -5.0646   -1.2124    0.0000 C   0  0  0  0  0  0  0  0  0  0  0  0
   -4.1059   -0.0588    0.0000 H   0  0  0  0  0  0  0  0  0  0  0  0
   -6.0342   -0.0679    0.0000 H   0  0  0  0  0  0  0  0  0  0  0  0
   -3.7621   -1.9563    0.0000 S   0  0  0  0  0  0  0  0  0  0  0  0
   -2.4666   -1.2002    0.0000 C   0  0  0  0  0  0  0  0  0  0  0  0
   -1.1566   -1.9402    0.0000 N   0  0  0  0  0  0  0  0  0  0  0  0
    0.1234   -1.2002    0.0000 C   0  0  0  0  0  0  0  0  0  0  0  0
    0.1234    0.3098    0.0000 C   0  0  0  0  0  0  0  0  0  0  0  0
   -1.1566    1.0298    0.0000 C   0  0  0  0  0  0  0  0  0  0  0  0
   -2.4666    0.3098    0.0000 N   0  0  0  0  0  0  0  0  0  0  0  0
   -1.1492    2.5298    0.0000 N   0  0  0  0  0  0  0  0  0  0  0  0
   -2.4445    3.2862    0.0000 H   0  0  0  0  0  0  0  0  0  0  0  0
    0.1535    3.2734    0.0000 C   0  0  2  0  0  0  0  0  0  0  0  0
    1.1119    2.1195    0.0000 H   0  0  0  0  0  0  0  0  0  0  0  0
   -0.3530    4.6862    0.0000 C   0  0  0  0  0  0  0  0  0  0  0  0
   -0.3451    6.1862    0.0000 H   0  0  0  0  0  0  0  0  0  0  0  0
   -1.8315    4.4331    0.0000 H   0  0  0  0  0  0  0  0  0  0  0  0
    1.1236    4.4175    0.0000 C   0  0  1  0  0  0  0  0  0  0  0  0
    2.4187    3.6607    0.0000 H   0  0  0  0  0  0  0  0  0  0  0  0
    1.8107    6.2745    0.0000 C   0  0  0  0  0  0  0  0  0  0  0  0
    0.8523    7.4295    0.0000 C   0  0  0  0  0  0  0  0  0  0  0  0
   -0.6262    7.1767    0.0000 H   0  0  0  0  0  0  0  0  0  0  0  0
    1.3725    8.8373    0.0000 C   0  0  0  0  0  0  0  0  0  0  0  0
    0.4141    9.9912    0.0000 H   0  0  0  0  0  0  0  0  0  0  0  0
    2.8511    9.0901    0.0000 C   0  0  0  0  0  0  0  0  0  0  0  0
    3.8094    7.9351    0.0000 C   0  0  0  0  0  0  0  0  0  0  0  0
    3.2893    6.5273    0.0000 C   0  0  0  0  0  0  0  0  0  0  0  0
    4.2477    5.3734    0.0000 H   0  0  0  0  0  0  0  0  0  0  0  0
    5.2880    8.1879    0.0000 F   0  0  0  0  0  0  0  0  0  0  0  0
    3.3716   10.4969    0.0000 F   0  0  0  0  0  0  0  0  0  0  0  0
    1.5434    0.7598    0.0000 N   0  0  0  0  0  0  0  0  0  0  0  0
    2.4234   -0.4602    0.0000 N   0  0  0  0  0  0  0  0  0  0  0  0
    1.5434   -1.6702    0.0000 N   0  0  0  0  0  0  0  0  0  0  0  0
    2.0027   -3.0981    0.0000 C   0  0  0  0  0  0  0  0  0  0  0  0
    1.1121   -4.3077    0.0000 C   0  0  0  0  0  0  0  0  0  0  0  0
    2.0015   -5.5181    0.0000 C   0  0  1  0  0  0  0  0  0  0  0  0
    0.7048   -6.2722    0.0000 H   0  0  0  0  0  0  0  0  0  0  0  0
    3.4217   -5.0588    0.0000 C   0  0  2  0  0  0  0  0  0  0  0  0
    3.7320   -6.5264    0.0000 H   0  0  0  0  0  0  0  0  0  0  0  0
    3.4225   -3.5588    0.0000 C   0  0  0  0  0  0  0  0  0  0  0  0
    4.9142   -3.7159    0.0000 H   0  0  0  0  0  0  0  0  0  0  0  0
    3.7342   -2.0916    0.0000 H   0  0  0  0  0  0  0  0  0  0  0  0
    4.9136   -4.9032    0.0000 O   0  0  0  0  0  0  0  0  0  0  0  0
    5.7944   -6.1174    0.0000 C   0  0  0  0  0  0  0  0  0  0  0  0
    4.4457   -6.7739    0.0000 H   0  0  0  0  0  0  0  0  0  0  0  0
    6.2067   -7.5596    0.0000 H   0  0  0  0  0  0  0  0  0  0  0  0
    7.2863   -5.9618    0.0000 C   0  0  0  0  0  0  0  0  0  0  0  0
    8.6350   -5.3053    0.0000 H   0  0  0  0  0  0  0  0  0  0  0  0
    6.8740   -4.5196    0.0000 H   0  0  0  0  0  0  0  0  0  0  0  0
    8.1670   -7.1760    0.0000 O   0  0  0  0  0  0  0  0  0  0  0  0
    9.6589   -7.0204    0.0000 H   0  0  0  0  0  0  0  0  0  0  0  0
    2.6128   -6.8879    0.0000 O   0  0  0  0  0  0  0  0  0  0  0  0
    1.7322   -8.1022    0.0000 H   0  0  0  0  0  0  0  0  0  0  0  0
   -0.3879   -4.3070    0.0000 O   0  0  0  0  0  0  0  0  0  0  0  0
   -1.1385   -5.6056    0.0000 H   0  0  0  0  0  0  0  0  0  0  0  0
  1  2  1  0  0  0  0 
  1  3  1  0  0  0  0 
  1  4  1  0  0  0  0 
  1  5  1  0  0  0  0 
  5  6  1  0  0  0  0 
  5  7  1  0  0  0  0 
  5  8  1  0  0  0  0 
  8  9  1  0  0  0  0 
  8 10  1  0  0  0  0 
  8 11  1  0  0  0  0 
 11 12  1  0  0  0  0 
 12 13  2  0  0  0  0 
 13 14  1  0  0  0  0 
 14 15  2  0  0  0  0 
 15 16  1  0  0  0  0 
 16 17  2  0  0  0  0 
 12 17  1  0  0  0  0 
 16 18  1  0  0  0  0 
 18 19  1  0  0  0  0 
 20 18  1  6  0  0  0 
 20 21  1  1  0  0  0 
 20 22  1  0  0  0  0 
 22 23  1  0  0  0  0 
 22 24  1  0  0  0  0 
 22 25  1  0  0  0  0 
 20 25  1  0  0  0  0 
 25 26  1  6  0  0  0 
 25 27  1  1  0  0  0 
 27 28  2  0  0  0  0 
 28 29  1  0  0  0  0 
 28 30  1  0  0  0  0 
 30 31  1  0  0  0  0 
 30 32  2  0  0  0  0 
 32 33  1  0  0  0  0 
 33 34  2  0  0  0  0 
 27 34  1  0  0  0  0 
 34 35  1  0  0  0  0 
 33 36  1  0  0  0  0 
 32 37  1  0  0  0  0 
 15 38  1  0  0  0  0 
 38 39  2  0  0  0  0 
 39 40  1  0  0  0  0 
 14 40  1  0  0  0  0 
 40 41  1  0  0  0  0 
 41 42  2  0  0  0  0 
 42 43  1  0  0  0  0 
 43 44  1  6  0  0  0 
 43 45  1  0  0  0  0 
 45 46  1  1  0  0  0 
 45 47  1  0  0  0  0 
 41 47  1  0  0  0  0 
 47 48  1  0  0  0  0 
 47 49  1  0  0  0  0 
 45 50  1  6  0  0  0 
 50 51  1  0  0  0  0 
 51 52  1  0  0  0  0 
 51 53  1  0  0  0  0 
 51 54  1  0  0  0  0 
 54 55  1  0  0  0  0 
 54 56  1  0  0  0  0 
 54 57  1  0  0  0  0 
 57 58  1  0  0  0  0 
 43 59  1  1  0  0  0 
 59 60  1  0  0  0  0 
 42 61  1  0  0  0  0 
 61 62  1  0  0  0  0 
M  END
> <Rank>
63

> <Priority_score>
0.0032

> <Reaction_type>
alkyl dehydrogenation

> <Parent_ID>
20

> <Parent_InChI>
InChI=1S/C23H28F2N6O4S/c1-2-7-36-23-27-21(26-15-9-12(15)11-3-4-13(24)14(25)8-11)18-22(28-23)31(30-29-18)16-10-17(35-6-5-32)20(34)19(16)33/h3-4,8,12,15-17,19-20,32-34H,2,5-7,9-10H2,1H3,(H,26,27,28)

> <Parent_SMILES>
CCCSc1nc(N[C@@H]2C[C@H]2c2ccc(F)c(F)c2)c2nnn([C@@H]3C[C@H](OCCO)[C@@H](O)[C@H]3O)c2n1

$$$$
Molecule 20_metabolite 64
  CDK     0516241031

 62 66  0  0  0  0  0  0  0  0999 V2000
   -7.6627   -1.2246    0.0000 C   0  0  0  0  0  0  0  0  0  0  0  0
   -7.6697    0.2754    0.0000 H   0  0  0  0  0  0  0  0  0  0  0  0
   -8.1691   -2.6365    0.0000 H   0  0  0  0  0  0  0  0  0  0  0  0
   -9.1411   -0.9711    0.0000 H   0  0  0  0  0  0  0  0  0  0  0  0
   -6.3601   -1.9685    0.0000 C   0  0  0  0  0  0  0  0  0  0  0  0
   -7.3189   -3.1221    0.0000 H   0  0  0  0  0  0  0  0  0  0  0  0
   -5.3906   -3.1130    0.0000 H   0  0  0  0  0  0  0  0  0  0  0  0
   -5.0646   -1.2124    0.0000 C   0  0  0  0  0  0  0  0  0  0  0  0
   -4.1059   -0.0588    0.0000 H   0  0  0  0  0  0  0  0  0  0  0  0
   -6.0342   -0.0679    0.0000 H   0  0  0  0  0  0  0  0  0  0  0  0
   -3.7621   -1.9563    0.0000 S   0  0  0  0  0  0  0  0  0  0  0  0
   -2.4666   -1.2002    0.0000 C   0  0  0  0  0  0  0  0  0  0  0  0
   -1.1566   -1.9402    0.0000 N   0  0  0  0  0  0  0  0  0  0  0  0
    0.1234   -1.2002    0.0000 C   0  0  0  0  0  0  0  0  0  0  0  0
    0.1234    0.3098    0.0000 C   0  0  0  0  0  0  0  0  0  0  0  0
   -1.1566    1.0298    0.0000 C   0  0  0  0  0  0  0  0  0  0  0  0
   -2.4666    0.3098    0.0000 N   0  0  0  0  0  0  0  0  0  0  0  0
   -1.1492    2.5298    0.0000 N   0  0  0  0  0  0  0  0  0  0  0  0
   -2.4445    3.2862    0.0000 H   0  0  0  0  0  0  0  0  0  0  0  0
    0.1535    3.2734    0.0000 C   0  0  2  0  0  0  0  0  0  0  0  0
    1.1119    2.1195    0.0000 H   0  0  0  0  0  0  0  0  0  0  0  0
   -0.3530    4.6862    0.0000 C   0  0  0  0  0  0  0  0  0  0  0  0
   -0.3451    6.1862    0.0000 H   0  0  0  0  0  0  0  0  0  0  0  0
   -1.8315    4.4331    0.0000 H   0  0  0  0  0  0  0  0  0  0  0  0
    1.1236    4.4175    0.0000 C   0  0  1  0  0  0  0  0  0  0  0  0
    2.4187    3.6607    0.0000 H   0  0  0  0  0  0  0  0  0  0  0  0
    1.8107    6.2745    0.0000 C   0  0  0  0  0  0  0  0  0  0  0  0
    0.8523    7.4295    0.0000 C   0  0  0  0  0  0  0  0  0  0  0  0
   -0.6262    7.1767    0.0000 H   0  0  0  0  0  0  0  0  0  0  0  0
    1.3725    8.8373    0.0000 C   0  0  0  0  0  0  0  0  0  0  0  0
    0.4141    9.9912    0.0000 H   0  0  0  0  0  0  0  0  0  0  0  0
    2.8511    9.0901    0.0000 C   0  0  0  0  0  0  0  0  0  0  0  0
    3.8094    7.9351    0.0000 C   0  0  0  0  0  0  0  0  0  0  0  0
    3.2893    6.5273    0.0000 C   0  0  0  0  0  0  0  0  0  0  0  0
    4.2477    5.3734    0.0000 H   0  0  0  0  0  0  0  0  0  0  0  0
    5.2880    8.1879    0.0000 F   0  0  0  0  0  0  0  0  0  0  0  0
    3.3716   10.4969    0.0000 F   0  0  0  0  0  0  0  0  0  0  0  0
    1.5434    0.7598    0.0000 N   0  0  0  0  0  0  0  0  0  0  0  0
    2.4234   -0.4602    0.0000 N   0  0  0  0  0  0  0  0  0  0  0  0
    1.5434   -1.6702    0.0000 N   0  0  0  0  0  0  0  0  0  0  0  0
    2.0027   -3.0981    0.0000 C   0  0  0  0  0  0  0  0  0  0  0  0
    1.1121   -4.3077    0.0000 C   0  0  0  0  0  0  0  0  0  0  0  0
   -0.3879   -4.3070    0.0000 H   0  0  0  0  0  0  0  0  0  0  0  0
    2.0015   -5.5181    0.0000 C   0  0  1  0  0  0  0  0  0  0  0  0
    0.7048   -6.2722    0.0000 H   0  0  0  0  0  0  0  0  0  0  0  0
    3.4217   -5.0588    0.0000 C   0  0  2  0  0  0  0  0  0  0  0  0
    3.7320   -6.5264    0.0000 H   0  0  0  0  0  0  0  0  0  0  0  0
    3.4225   -3.5588    0.0000 C   0  0  1  0  0  0  0  0  0  0  0  0
    4.9142   -3.7159    0.0000 H   0  0  0  0  0  0  0  0  0  0  0  0
    3.7342   -2.0916    0.0000 O   0  0  0  0  0  0  0  0  0  0  0  0
    5.1607   -1.6279    0.0000 H   0  0  0  0  0  0  0  0  0  0  0  0
    4.9136   -4.9032    0.0000 O   0  0  0  0  0  0  0  0  0  0  0  0
    5.7944   -6.1174    0.0000 H   0  0  0  0  0  0  0  0  0  0  0  0
    2.6128   -6.8879    0.0000 O   0  0  0  0  0  0  0  0  0  0  0  0
    1.7322   -8.1022    0.0000 C   0  0  0  0  0  0  0  0  0  0  0  0
    0.6893   -7.0241    0.0000 H   0  0  0  0  0  0  0  0  0  0  0  0
    0.4894   -8.9421    0.0000 H   0  0  0  0  0  0  0  0  0  0  0  0
    2.3435   -9.4720    0.0000 C   0  0  0  0  0  0  0  0  0  0  0  0
    3.3865  -10.5501    0.0000 H   0  0  0  0  0  0  0  0  0  0  0  0
    3.5863   -8.6321    0.0000 H   0  0  0  0  0  0  0  0  0  0  0  0
    1.4629  -10.6863    0.0000 O   0  0  0  0  0  0  0  0  0  0  0  0
    2.0742  -12.0561    0.0000 H   0  0  0  0  0  0  0  0  0  0  0  0
  1  2  1  0  0  0  0 
  1  3  1  0  0  0  0 
  1  4  1  0  0  0  0 
  1  5  1  0  0  0  0 
  5  6  1  0  0  0  0 
  5  7  1  0  0  0  0 
  5  8  1  0  0  0  0 
  8  9  1  0  0  0  0 
  8 10  1  0  0  0  0 
  8 11  1  0  0  0  0 
 11 12  1  0  0  0  0 
 12 13  2  0  0  0  0 
 13 14  1  0  0  0  0 
 14 15  2  0  0  0  0 
 15 16  1  0  0  0  0 
 16 17  2  0  0  0  0 
 12 17  1  0  0  0  0 
 16 18  1  0  0  0  0 
 18 19  1  0  0  0  0 
 20 18  1  6  0  0  0 
 20 21  1  1  0  0  0 
 20 22  1  0  0  0  0 
 22 23  1  0  0  0  0 
 22 24  1  0  0  0  0 
 22 25  1  0  0  0  0 
 20 25  1  0  0  0  0 
 25 26  1  6  0  0  0 
 25 27  1  1  0  0  0 
 27 28  2  0  0  0  0 
 28 29  1  0  0  0  0 
 28 30  1  0  0  0  0 
 30 31  1  0  0  0  0 
 30 32  2  0  0  0  0 
 32 33  1  0  0  0  0 
 33 34  2  0  0  0  0 
 27 34  1  0  0  0  0 
 34 35  1  0  0  0  0 
 33 36  1  0  0  0  0 
 32 37  1  0  0  0  0 
 15 38  1  0  0  0  0 
 38 39  2  0  0  0  0 
 39 40  1  0  0  0  0 
 14 40  1  0  0  0  0 
 40 41  1  0  0  0  0 
 41 42  2  0  0  0  0 
 42 43  1  0  0  0  0 
 42 44  1  0  0  0  0 
 44 45  1  6  0  0  0 
 44 46  1  0  0  0  0 
 46 47  1  1  0  0  0 
 46 48  1  0  0  0  0 
 41 48  1  0  0  0  0 
 48 49  1  1  0  0  0 
 48 50  1  6  0  0  0 
 50 51  1  0  0  0  0 
 46 52  1  6  0  0  0 
 52 53  1  0  0  0  0 
 44 54  1  1  0  0  0 
 54 55  1  0  0  0  0 
 55 56  1  0  0  0  0 
 55 57  1  0  0  0  0 
 55 58  1  0  0  0  0 
 58 59  1  0  0  0  0 
 58 60  1  0  0  0  0 
 58 61  1  0  0  0  0 
 61 62  1  0  0  0  0 
M  END
> <Rank>
63

> <Priority_score>
0.0032

> <Reaction_type>
alkyl dehydrogenation

> <Parent_ID>
20

> <Parent_InChI>
InChI=1S/C23H28F2N6O4S/c1-2-7-36-23-27-21(26-15-9-12(15)11-3-4-13(24)14(25)8-11)18-22(28-23)31(30-29-18)16-10-17(35-6-5-32)20(34)19(16)33/h3-4,8,12,15-17,19-20,32-34H,2,5-7,9-10H2,1H3,(H,26,27,28)

> <Parent_SMILES>
CCCSc1nc(N[C@@H]2C[C@H]2c2ccc(F)c(F)c2)c2nnn([C@@H]3C[C@H](OCCO)[C@@H](O)[C@H]3O)c2n1

$$$$
Molecule 21
  CDK     0516241031

 27 28  0  0  0  0  0  0  0  0999 V2000
    7.7039    5.0495    0.0000 C   0  0  0  0  0  0  0  0  0  0  0  0
    6.2124    4.8899    0.0000 C   0  0  0  0  0  0  0  0  0  0  0  0
    5.3284    6.1018    0.0000 C   0  0  0  0  0  0  0  0  0  0  0  0
    3.8370    5.9422    0.0000 C   0  0  2  0  0  0  0  0  0  0  0  0
    2.8307    7.0545    0.0000 C   0  0  0  0  0  0  0  0  0  0  0  0
    1.4690    6.4430    0.0000 C   0  0  1  0  0  0  0  0  0  0  0  0
    0.1701    7.1933    0.0000 C   0  0  0  0  0  0  0  0  0  0  0  0
    0.1703    8.6933    0.0000 O   0  0  0  0  0  0  0  0  0  0  0  0
   -1.1291    6.4435    0.0000 N   0  0  0  0  0  0  0  0  0  0  0  0
   -2.4280    7.1937    0.0000 C   0  0  0  0  0  0  0  0  0  0  0  0
   -2.4277    8.6937    0.0000 C   0  0  0  0  0  0  0  0  0  0  0  0
   -3.7267    9.4439    0.0000 C   0  0  0  0  0  0  0  0  0  0  0  0
   -1.1286    9.4435    0.0000 Cl  0  0  0  0  0  0  0  0  0  0  0  0
   -3.7271    6.4439    0.0000 C   0  0  2  0  0  0  0  0  0  0  0  0
   -5.0262    7.1939    0.0000 C   0  0  1  0  0  0  0  0  0  0  0  0
   -6.3257    6.4430    0.0000 C   0  0  1  0  0  0  0  0  0  0  0  0
   -6.3262    4.9422    0.0000 C   0  0  2  0  0  0  0  0  0  0  0  0
   -5.0271    4.1922    0.0000 C   0  0  2  0  0  0  0  0  0  0  0  0
   -3.7276    4.9430    0.0000 O   0  0  0  0  0  0  0  0  0  0  0  0
   -5.0269    2.6922    0.0000 S   0  0  0  0  0  0  0  0  0  0  0  0
   -6.3258    1.9420    0.0000 C   0  0  0  0  0  0  0  0  0  0  0  0
   -7.6253    4.1924    0.0000 O   0  0  0  0  0  0  0  0  0  0  0  0
   -7.6247    7.1930    0.0000 O   0  0  0  0  0  0  0  0  0  0  0  0
   -5.0264    8.6939    0.0000 O   0  0  0  0  0  0  0  0  0  0  0  0
    1.6207    4.9487    0.0000 N   0  0  0  0  0  0  0  0  0  0  0  0
    0.5084    3.9424    0.0000 C   0  0  0  0  0  0  0  0  0  0  0  0
    3.0925    4.6484    0.0000 C   0  0  0  0  0  0  0  0  0  0  0  0
  1  2  1  0  0  0  0 
  2  3  1  0  0  0  0 
  4  3  1  1  0  0  0 
  4  5  1  0  0  0  0 
  5  6  1  0  0  0  0 
  6  7  1  6  0  0  0 
  7  8  2  0  0  0  0 
  7  9  1  0  0  0  0 
  9 10  1  0  0  0  0 
 10 11  1  0  0  0  0 
 11 12  1  0  0  0  0 
 11 13  1  0  0  0  0 
 10 14  1  0  0  0  0 
 14 15  1  0  0  0  0 
 15 16  1  0  0  0  0 
 16 17  1  0  0  0  0 
 17 18  1  0  0  0  0 
 18 19  1  0  0  0  0 
 14 19  1  1  0  0  0 
 18 20  1  6  0  0  0 
 20 21  1  0  0  0  0 
 17 22  1  6  0  0  0 
 16 23  1  1  0  0  0 
 15 24  1  1  0  0  0 
  6 25  1  0  0  0  0 
 25 26  1  0  0  0  0 
 25 27  1  0  0  0  0 
  4 27  1  0  0  0  0 
M  END
> <SMILES>
CCC[C@@H]1C[C@@H](C(=O)NC(C(C)Cl)[C@H]2O[C@H](SC)[C@H](O)[C@@H](O)[C@H]2O)N(C)C1

$$$$
Molecule 21_metabolite 1
  CDK     0516241031

 81 83  0  0  0  0  0  0  0  0999 V2000
  -16.1740    0.9307    0.0000 C   0  0  0  0  0  0  0  0  0  0  0  0
  -16.2305    2.4296    0.0000 H   0  0  0  0  0  0  0  0  0  0  0  0
  -16.6335   -0.4972    0.0000 H   0  0  0  0  0  0  0  0  0  0  0  0
  -17.6600    1.1353    0.0000 H   0  0  0  0  0  0  0  0  0  0  0  0
  -14.8476    0.2302    0.0000 C   0  0  0  0  0  0  0  0  0  0  0  0
  -15.7677   -0.9544    0.0000 H   0  0  0  0  0  0  0  0  0  0  0  0
  -13.8408   -0.8817    0.0000 H   0  0  0  0  0  0  0  0  0  0  0  0
  -13.5777    1.0287    0.0000 C   0  0  0  0  0  0  0  0  0  0  0  0
  -12.3631    2.5924    0.0000 H   0  0  0  0  0  0  0  0  0  0  0  0
  -14.5846    2.1406    0.0000 H   0  0  0  0  0  0  0  0  0  0  0  0
  -10.9780   -0.3443    0.0000 C   0  0  2  0  0  0  0  0  0  0  0  0
  -11.8129   -1.5904    0.0000 H   0  0  0  0  0  0  0  0  0  0  0  0
   -9.8257   -1.3045    0.0000 C   0  0  0  0  0  0  0  0  0  0  0  0
  -10.9008   -2.3505    0.0000 H   0  0  0  0  0  0  0  0  0  0  0  0
   -8.8975   -2.4829    0.0000 H   0  0  0  0  0  0  0  0  0  0  0  0
   -8.5632   -0.5081    0.0000 C   0  0  1  0  0  0  0  0  0  0  0  0
   -7.9029   -1.8550    0.0000 H   0  0  0  0  0  0  0  0  0  0  0  0
   -5.6232   -0.5088    0.0000 C   0  0  0  0  0  0  0  0  0  0  0  0
   -4.8730    0.7901    0.0000 O   0  0  0  0  0  0  0  0  0  0  0  0
   -4.8735   -1.8080    0.0000 N   0  0  0  0  0  0  0  0  0  0  0  0
   -5.6238   -3.1068    0.0000 H   0  0  0  0  0  0  0  0  0  0  0  0
   -2.4135   -1.8085    0.0000 C   0  0  0  0  0  0  0  0  0  0  0  0
   -1.0039   -1.2958    0.0000 H   0  0  0  0  0  0  0  0  0  0  0  0
   -2.6737   -0.3312    0.0000 C   0  0  0  0  0  0  0  0  0  0  0  0
   -3.4234    0.9680    0.0000 H   0  0  0  0  0  0  0  0  0  0  0  0
   -1.5244    0.6327    0.0000 C   0  0  0  0  0  0  0  0  0  0  0  0
   -0.1150    0.1194    0.0000 H   0  0  0  0  0  0  0  0  0  0  0  0
   -0.7741    1.9316    0.0000 H   0  0  0  0  0  0  0  0  0  0  0  0
   -2.6733    1.5971    0.0000 H   0  0  0  0  0  0  0  0  0  0  0  0
   -4.0833   -0.8439    0.0000 Cl  0  0  0  0  0  0  0  0  0  0  0  0
   -1.6638   -3.1077    0.0000 C   0  0  2  0  0  0  0  0  0  0  0  0
   -3.0734   -3.6206    0.0000 H   0  0  0  0  0  0  0  0  0  0  0  0
   -1.4033   -4.5849    0.0000 C   0  0  1  0  0  0  0  0  0  0  0  0
   -2.9033   -4.5851    0.0000 H   0  0  0  0  0  0  0  0  0  0  0  0
    0.0072   -5.0978    0.0000 C   0  0  1  0  0  0  0  0  0  0  0  0
   -0.7427   -6.3969    0.0000 H   0  0  0  0  0  0  0  0  0  0  0  0
    1.1572   -4.1334    0.0000 C   0  0  2  0  0  0  0  0  0  0  0  0
    1.9069   -5.4326    0.0000 H   0  0  0  0  0  0  0  0  0  0  0  0
    0.8967   -2.6562    0.0000 C   0  0  2  0  0  0  0  0  0  0  0  0
    2.3967   -2.6560    0.0000 H   0  0  0  0  0  0  0  0  0  0  0  0
   -0.5138   -2.1433    0.0000 O   0  0  0  0  0  0  0  0  0  0  0  0
    1.1569   -1.1789    0.0000 S   0  0  0  0  0  0  0  0  0  0  0  0
    2.5663   -0.6656    0.0000 C   0  0  0  0  0  0  0  0  0  0  0  0
    3.7156   -1.6295    0.0000 H   0  0  0  0  0  0  0  0  0  0  0  0
    3.7152    0.2988    0.0000 H   0  0  0  0  0  0  0  0  0  0  0  0
    1.8160    0.6333    0.0000 H   0  0  0  0  0  0  0  0  0  0  0  0
    2.5668   -3.6205    0.0000 O   0  0  0  0  0  0  0  0  0  0  0  0
    3.7157   -4.5848    0.0000 H   0  0  0  0  0  0  0  0  0  0  0  0
    1.1561   -6.0621    0.0000 O   0  0  0  0  0  0  0  0  0  0  0  0
    0.8955   -7.5392    0.0000 H   0  0  0  0  0  0  0  0  0  0  0  0
   -1.6635   -6.0622    0.0000 O   0  0  0  0  0  0  0  0  0  0  0  0
   -3.0729   -6.5755    0.0000 H   0  0  0  0  0  0  0  0  0  0  0  0
   -8.9230    0.9502    0.0000 N   0  0  0  0  0  0  0  0  0  0  0  0
   -7.4379    1.1611    0.0000 C   0  0  0  0  0  0  0  0  0  0  0  0
   -6.3405    3.8886    0.0000 H   0  0  0  0  0  0  0  0  0  0  0  0
   -7.4881   -0.3381    0.0000 H   0  0  0  0  0  0  0  0  0  0  0  0
   -5.9703    0.8514    0.0000 H   0  0  0  0  0  0  0  0  0  0  0  0
  -10.4223    1.0411    0.0000 C   0  0  0  0  0  0  0  0  0  0  0  0
   -8.8543    2.9366    0.0000 H   0  0  0  0  0  0  0  0  0  0  0  0
  -11.8662    1.4477    0.0000 H   0  0  0  0  0  0  0  0  0  0  0  0
   -9.0414    3.8878    0.0000 C   0  0  0  0  0  0  0  0  0  0  0  0
  -10.5069    3.5683    0.0000 H   0  0  0  0  0  0  0  0  0  0  0  0
   -9.6104    5.2757    0.0000 C   0  0  0  0  0  0  0  0  0  0  0  0
  -10.8785    4.4744    0.0000 H   0  0  0  0  0  0  0  0  0  0  0  0
   -8.6921    6.4628    0.0000 C   0  0  0  0  0  0  0  0  0  0  0  0
  -10.0201    7.1603    0.0000 H   0  0  0  0  0  0  0  0  0  0  0  0
   -7.2048    6.2620    0.0000 C   0  0  0  0  0  0  0  0  0  0  0  0
   -7.2651    7.7608    0.0000 H   0  0  0  0  0  0  0  0  0  0  0  0
   -6.6357    4.8742    0.0000 C   0  0  0  0  0  0  0  0  0  0  0  0
   -5.3677    5.6754    0.0000 H   0  0  0  0  0  0  0  0  0  0  0  0
   -4.8829    3.9532    0.0000 C   0  0  0  0  0  0  0  0  0  0  0  0
   -4.8232    2.4544    0.0000 O   0  0  0  0  0  0  0  0  0  0  0  0
   -3.6148    4.7544    0.0000 O   0  0  0  0  0  0  0  0  0  0  0  0
   -3.6745    6.2532    0.0000 H   0  0  0  0  0  0  0  0  0  0  0  0
   -7.5540    3.6871    0.0000 O   0  0  0  0  0  0  0  0  0  0  0  0
   -5.7392    6.5816    0.0000 O   0  0  0  0  0  0  0  0  0  0  0  0
   -5.2832    8.0106    0.0000 H   0  0  0  0  0  0  0  0  0  0  0  0
   -8.2361    7.8918    0.0000 O   0  0  0  0  0  0  0  0  0  0  0  0
   -9.2456    9.0012    0.0000 H   0  0  0  0  0  0  0  0  0  0  0  0
  -10.6196    6.3854    0.0000 O   0  0  0  0  0  0  0  0  0  0  0  0
  -12.0853    6.0664    0.0000 H   0  0  0  0  0  0  0  0  0  0  0  0
  1  2  1  0  0  0  0 
  1  3  1  0  0  0  0 
  1  4  1  0  0  0  0 
  1  5  1  0  0  0  0 
  5  6  1  0  0  0  0 
  5  7  1  0  0  0  0 
  5  8  1  0  0  0  0 
  8  9  1  0  0  0  0 
  8 10  1  0  0  0  0 
 11  8  1  1  0  0  0 
 11 12  1  6  0  0  0 
 11 13  1  0  0  0  0 
 13 14  1  0  0  0  0 
 13 15  1  0  0  0  0 
 13 16  1  0  0  0  0 
 16 17  1  1  0  0  0 
 16 18  1  6  0  0  0 
 18 19  2  0  0  0  0 
 18 20  1  0  0  0  0 
 20 21  1  0  0  0  0 
 20 22  1  0  0  0  0 
 22 23  1  0  0  0  0 
 22 24  1  0  0  0  0 
 24 25  1  0  0  0  0 
 24 26  1  0  0  0  0 
 26 27  1  0  0  0  0 
 26 28  1  0  0  0  0 
 26 29  1  0  0  0  0 
 24 30  1  0  0  0  0 
 31 22  1  1  0  0  0 
 31 32  1  6  0  0  0 
 31 33  1  0  0  0  0 
 33 34  1  6  0  0  0 
 33 35  1  0  0  0  0 
 35 36  1  6  0  0  0 
 35 37  1  0  0  0  0 
 37 38  1  1  0  0  0 
 37 39  1  0  0  0  0 
 39 40  1  1  0  0  0 
 39 41  1  0  0  0  0 
 31 41  1  0  0  0  0 
 39 42  1  6  0  0  0 
 42 43  1  0  0  0  0 
 43 44  1  0  0  0  0 
 43 45  1  0  0  0  0 
 43 46  1  0  0  0  0 
 37 47  1  6  0  0  0 
 47 48  1  0  0  0  0 
 35 49  1  1  0  0  0 
 49 50  1  0  0  0  0 
 33 51  1  1  0  0  0 
 51 52  1  0  0  0  0 
 16 53  1  0  0  0  0 
 53 54  1  0  0  0  0 
 54 55  1  0  0  0  0 
 54 56  1  0  0  0  0 
 54 57  1  0  0  0  0 
 53 58  1  0  0  0  0 
 11 58  1  0  0  0  0 
 58 59  1  0  0  0  0 
 58 60  1  0  0  0  0 
 53 61  1  0  0  0  0 
 61 62  1  0  0  0  0 
 61 63  1  0  0  0  0 
 63 64  1  0  0  0  0 
 63 65  1  0  0  0  0 
 65 66  1  0  0  0  0 
 65 67  1  0  0  0  0 
 67 68  1  0  0  0  0 
 67 69  1  0  0  0  0 
 69 70  1  0  0  0  0 
 69 71  1  0  0  0  0 
 71 72  2  0  0  0  0 
 71 73  1  0  0  0  0 
 73 74  1  0  0  0  0 
 69 75  1  0  0  0  0 
 61 75  1  0  0  0  0 
 67 76  1  0  0  0  0 
 76 77  1  0  0  0  0 
 65 78  1  0  0  0  0 
 78 79  1  0  0  0  0 
 63 80  1  0  0  0  0 
 80 81  1  0  0  0  0 
M  CHG  1  53   1
M  END
> <Rank>
1

> <Priority_score>
0.304

> <Reaction_type>
N-glucuronidation_(NCH3_in_a_ring)

> <Parent_ID>
21

> <Parent_InChI>
InChI=1S/C18H33ClN2O5S/c1-5-6-10-7-11(21(3)8-10)17(25)20-12(9(2)19)16-14(23)13(22)15(24)18(26-16)27-4/h9-16,18,22-24H,5-8H2,1-4H3,(H,20,25)

> <Parent_SMILES>
CCC[C@@H]1C[C@@H](C(=O)NC(C(C)Cl)[C@H]2O[C@H](SC)[C@H](O)[C@@H](O)[C@H]2O)N(C)C1

$$$$
Molecule 21_metabolite 2
  CDK     0516241031

 61 62  0  0  0  0  0  0  0  0999 V2000
  -12.4846    0.7966    0.0000 C   0  0  0  0  0  0  0  0  0  0  0  0
  -12.2806   -0.6894    0.0000 H   0  0  0  0  0  0  0  0  0  0  0  0
  -13.1845    2.1233    0.0000 H   0  0  0  0  0  0  0  0  0  0  0  0
  -13.9127    0.3377    0.0000 H   0  0  0  0  0  0  0  0  0  0  0  0
  -11.2996    1.7163    0.0000 C   0  0  0  0  0  0  0  0  0  0  0  0
  -12.4110    2.7236    0.0000 H   0  0  0  0  0  0  0  0  0  0  0  0
  -10.5006    2.9858    0.0000 H   0  0  0  0  0  0  0  0  0  0  0  0
   -9.9106    1.1499    0.0000 C   0  0  0  0  0  0  0  0  0  0  0  0
   -8.4435   -0.1798    0.0000 H   0  0  0  0  0  0  0  0  0  0  0  0
  -10.7096   -0.1196    0.0000 H   0  0  0  0  0  0  0  0  0  0  0  0
   -8.3464    2.3638    0.0000 C   0  0  2  0  0  0  0  0  0  0  0  0
   -9.3846    3.4465    0.0000 H   0  0  0  0  0  0  0  0  0  0  0  0
   -7.3779    3.5092    0.0000 C   0  0  0  0  0  0  0  0  0  0  0  0
   -8.6180    4.3531    0.0000 H   0  0  0  0  0  0  0  0  0  0  0  0
   -6.6678    4.8305    0.0000 H   0  0  0  0  0  0  0  0  0  0  0  0
   -5.9966    2.9435    0.0000 C   0  0  1  0  0  0  0  0  0  0  0  0
   -5.5795    4.3844    0.0000 H   0  0  0  0  0  0  0  0  0  0  0  0
   -4.0467    2.5993    0.0000 C   0  0  0  0  0  0  0  0  0  0  0  0
   -3.5340    1.1896    0.0000 O   0  0  0  0  0  0  0  0  0  0  0  0
   -3.0823    3.7482    0.0000 N   0  0  0  0  0  0  0  0  0  0  0  0
   -3.5950    5.1578    0.0000 H   0  0  0  0  0  0  0  0  0  0  0  0
   -1.1324    3.4039    0.0000 C   0  0  0  0  0  0  0  0  0  0  0  0
    0.3448    3.6641    0.0000 H   0  0  0  0  0  0  0  0  0  0  0  0
   -1.1321    4.9039    0.0000 C   0  0  0  0  0  0  0  0  0  0  0  0
   -1.6448    6.3136    0.0000 H   0  0  0  0  0  0  0  0  0  0  0  0
    0.1671    5.6536    0.0000 C   0  0  0  0  0  0  0  0  0  0  0  0
    1.4660    4.9034    0.0000 H   0  0  0  0  0  0  0  0  0  0  0  0
    1.1315    6.8025    0.0000 H   0  0  0  0  0  0  0  0  0  0  0  0
   -0.7969    6.8029    0.0000 H   0  0  0  0  0  0  0  0  0  0  0  0
   -2.6094    4.6438    0.0000 Cl  0  0  0  0  0  0  0  0  0  0  0  0
   -0.6197    1.9943    0.0000 C   0  0  2  0  0  0  0  0  0  0  0  0
   -2.0969    1.7339    0.0000 H   0  0  0  0  0  0  0  0  0  0  0  0
   -0.6197    0.4943    0.0000 C   0  0  1  0  0  0  0  0  0  0  0  0
   -2.0969    0.7546    0.0000 H   0  0  0  0  0  0  0  0  0  0  0  0
    0.6803   -0.2557    0.0000 C   0  0  1  0  0  0  0  0  0  0  0  0
   -0.2838   -1.4049    0.0000 H   0  0  0  0  0  0  0  0  0  0  0  0
    1.9803    0.4943    0.0000 C   0  0  2  0  0  0  0  0  0  0  0  0
    2.4930   -0.9154    0.0000 H   0  0  0  0  0  0  0  0  0  0  0  0
    1.9803    1.9943    0.0000 C   0  0  2  0  0  0  0  0  0  0  0  0
    3.4575    1.7339    0.0000 H   0  0  0  0  0  0  0  0  0  0  0  0
    0.6803    2.7443    0.0000 O   0  0  0  0  0  0  0  0  0  0  0  0
    2.4930    3.4039    0.0000 S   0  0  0  0  0  0  0  0  0  0  0  0
    3.9702    3.6647    0.0000 C   0  0  0  0  0  0  0  0  0  0  0  0
    5.2691    4.4150    0.0000 H   0  0  0  0  0  0  0  0  0  0  0  0
    3.4568    5.0741    0.0000 H   0  0  0  0  0  0  0  0  0  0  0  0
    4.9346    2.5158    0.0000 O   0  0  0  0  0  0  0  0  0  0  0  0
    6.4118    2.7766    0.0000 H   0  0  0  0  0  0  0  0  0  0  0  0
    3.4575    0.7546    0.0000 O   0  0  0  0  0  0  0  0  0  0  0  0
    4.4216   -0.3946    0.0000 H   0  0  0  0  0  0  0  0  0  0  0  0
    1.6444   -1.4049    0.0000 O   0  0  0  0  0  0  0  0  0  0  0  0
    1.1312   -2.8144    0.0000 H   0  0  0  0  0  0  0  0  0  0  0  0
   -1.2965   -1.3665    0.0000 O   0  0  0  0  0  0  0  0  0  0  0  0
   -0.3321   -2.5153    0.0000 H   0  0  0  0  0  0  0  0  0  0  0  0
   -6.0983    1.4449    0.0000 N   0  0  0  0  0  0  0  0  0  0  0  0
   -4.9529    0.4763    0.0000 C   0  0  0  0  0  0  0  0  0  0  0  0
   -5.2190   -0.9999    0.0000 H   0  0  0  0  0  0  0  0  0  0  0  0
   -4.1979    1.7725    0.0000 H   0  0  0  0  0  0  0  0  0  0  0  0
   -3.5453   -0.0421    0.0000 H   0  0  0  0  0  0  0  0  0  0  0  0
   -7.5592    1.0957    0.0000 C   0  0  0  0  0  0  0  0  0  0  0  0
   -7.0567   -0.3176    0.0000 H   0  0  0  0  0  0  0  0  0  0  0  0
   -8.9108    0.4451    0.0000 H   0  0  0  0  0  0  0  0  0  0  0  0
  1  2  1  0  0  0  0 
  1  3  1  0  0  0  0 
  1  4  1  0  0  0  0 
  1  5  1  0  0  0  0 
  5  6  1  0  0  0  0 
  5  7  1  0  0  0  0 
  5  8  1  0  0  0  0 
  8  9  1  0  0  0  0 
  8 10  1  0  0  0  0 
 11  8  1  6  0  0  0 
 11 12  1  1  0  0  0 
 11 13  1  0  0  0  0 
 13 14  1  0  0  0  0 
 13 15  1  0  0  0  0 
 13 16  1  0  0  0  0 
 16 17  1  6  0  0  0 
 16 18  1  1  0  0  0 
 18 19  2  0  0  0  0 
 18 20  1  0  0  0  0 
 20 21  1  0  0  0  0 
 20 22  1  0  0  0  0 
 22 23  1  0  0  0  0 
 22 24  1  0  0  0  0 
 24 25  1  0  0  0  0 
 24 26  1  0  0  0  0 
 26 27  1  0  0  0  0 
 26 28  1  0  0  0  0 
 26 29  1  0  0  0  0 
 24 30  1  0  0  0  0 
 31 22  1  1  0  0  0 
 31 32  1  6  0  0  0 
 31 33  1  0  0  0  0 
 33 34  1  6  0  0  0 
 33 35  1  0  0  0  0 
 35 36  1  6  0  0  0 
 35 37  1  0  0  0  0 
 37 38  1  1  0  0  0 
 37 39  1  0  0  0  0 
 39 40  1  1  0  0  0 
 39 41  1  0  0  0  0 
 31 41  1  0  0  0  0 
 39 42  1  6  0  0  0 
 42 43  1  0  0  0  0 
 43 44  1  0  0  0  0 
 43 45  1  0  0  0  0 
 43 46  1  0  0  0  0 
 46 47  1  0  0  0  0 
 37 48  1  6  0  0  0 
 48 49  1  0  0  0  0 
 35 50  1  1  0  0  0 
 50 51  1  0  0  0  0 
 33 52  1  1  0  0  0 
 52 53  1  0  0  0  0 
 16 54  1  0  0  0  0 
 54 55  1  0  0  0  0 
 55 56  1  0  0  0  0 
 55 57  1  0  0  0  0 
 55 58  1  0  0  0  0 
 54 59  1  0  0  0  0 
 11 59  1  0  0  0  0 
 59 60  1  0  0  0  0 
 59 61  1  0  0  0  0 
M  END
> <Rank>
2

> <Priority_score>
0.18

> <Reaction_type>
aliphatic hydroxylation

> <Parent_ID>
21

> <Parent_InChI>
InChI=1S/C18H33ClN2O5S/c1-5-6-10-7-11(21(3)8-10)17(25)20-12(9(2)19)16-14(23)13(22)15(24)18(26-16)27-4/h9-16,18,22-24H,5-8H2,1-4H3,(H,20,25)

> <Parent_SMILES>
CCC[C@@H]1C[C@@H](C(=O)NC(C(C)Cl)[C@H]2O[C@H](SC)[C@H](O)[C@@H](O)[C@H]2O)N(C)C1

$$$$
Molecule 21_metabolite 3
  CDK     0516241031

 57 58  0  0  0  0  0  0  0  0999 V2000
  -12.4846    0.7966    0.0000 C   0  0  0  0  0  0  0  0  0  0  0  0
  -12.2806   -0.6894    0.0000 H   0  0  0  0  0  0  0  0  0  0  0  0
  -13.1845    2.1233    0.0000 H   0  0  0  0  0  0  0  0  0  0  0  0
  -13.9127    0.3377    0.0000 H   0  0  0  0  0  0  0  0  0  0  0  0
  -11.2996    1.7163    0.0000 C   0  0  0  0  0  0  0  0  0  0  0  0
  -12.4110    2.7236    0.0000 H   0  0  0  0  0  0  0  0  0  0  0  0
  -10.5006    2.9858    0.0000 H   0  0  0  0  0  0  0  0  0  0  0  0
   -9.9106    1.1499    0.0000 C   0  0  0  0  0  0  0  0  0  0  0  0
   -8.4435   -0.1798    0.0000 H   0  0  0  0  0  0  0  0  0  0  0  0
  -10.7096   -0.1196    0.0000 H   0  0  0  0  0  0  0  0  0  0  0  0
   -8.3464    2.3638    0.0000 C   0  0  2  0  0  0  0  0  0  0  0  0
   -9.3846    3.4465    0.0000 H   0  0  0  0  0  0  0  0  0  0  0  0
   -7.3779    3.5092    0.0000 C   0  0  0  0  0  0  0  0  0  0  0  0
   -8.6180    4.3531    0.0000 H   0  0  0  0  0  0  0  0  0  0  0  0
   -6.6678    4.8305    0.0000 H   0  0  0  0  0  0  0  0  0  0  0  0
   -5.9966    2.9435    0.0000 C   0  0  1  0  0  0  0  0  0  0  0  0
   -5.5795    4.3844    0.0000 H   0  0  0  0  0  0  0  0  0  0  0  0
   -4.0467    2.5993    0.0000 C   0  0  0  0  0  0  0  0  0  0  0  0
   -3.5340    1.1896    0.0000 O   0  0  0  0  0  0  0  0  0  0  0  0
   -3.0823    3.7482    0.0000 N   0  0  0  0  0  0  0  0  0  0  0  0
   -3.5950    5.1578    0.0000 H   0  0  0  0  0  0  0  0  0  0  0  0
   -1.1324    3.4039    0.0000 C   0  0  0  0  0  0  0  0  0  0  0  0
    0.3448    3.6641    0.0000 H   0  0  0  0  0  0  0  0  0  0  0  0
   -1.1321    4.9039    0.0000 C   0  0  0  0  0  0  0  0  0  0  0  0
   -1.6448    6.3136    0.0000 H   0  0  0  0  0  0  0  0  0  0  0  0
    0.1671    5.6536    0.0000 C   0  0  0  0  0  0  0  0  0  0  0  0
    1.4660    4.9034    0.0000 H   0  0  0  0  0  0  0  0  0  0  0  0
    1.1315    6.8025    0.0000 H   0  0  0  0  0  0  0  0  0  0  0  0
   -0.7969    6.8029    0.0000 H   0  0  0  0  0  0  0  0  0  0  0  0
   -2.6094    4.6438    0.0000 Cl  0  0  0  0  0  0  0  0  0  0  0  0
   -0.6197    1.9943    0.0000 C   0  0  2  0  0  0  0  0  0  0  0  0
   -2.0969    1.7339    0.0000 H   0  0  0  0  0  0  0  0  0  0  0  0
   -0.6197    0.4943    0.0000 C   0  0  1  0  0  0  0  0  0  0  0  0
   -2.0969    0.7546    0.0000 H   0  0  0  0  0  0  0  0  0  0  0  0
    0.6803   -0.2557    0.0000 C   0  0  1  0  0  0  0  0  0  0  0  0
   -0.2838   -1.4049    0.0000 H   0  0  0  0  0  0  0  0  0  0  0  0
    1.9803    0.4943    0.0000 C   0  0  2  0  0  0  0  0  0  0  0  0
    2.4930   -0.9154    0.0000 H   0  0  0  0  0  0  0  0  0  0  0  0
    1.9803    1.9943    0.0000 C   0  0  2  0  0  0  0  0  0  0  0  0
    3.4575    1.7339    0.0000 H   0  0  0  0  0  0  0  0  0  0  0  0
    0.6803    2.7443    0.0000 O   0  0  0  0  0  0  0  0  0  0  0  0
    2.4930    3.4039    0.0000 S   0  0  0  0  0  0  0  0  0  0  0  0
    3.9702    3.6647    0.0000 H   0  0  0  0  0  0  0  0  0  0  0  0
    3.4575    0.7546    0.0000 O   0  0  0  0  0  0  0  0  0  0  0  0
    4.4216   -0.3946    0.0000 H   0  0  0  0  0  0  0  0  0  0  0  0
    1.6444   -1.4049    0.0000 O   0  0  0  0  0  0  0  0  0  0  0  0
    1.1312   -2.8144    0.0000 H   0  0  0  0  0  0  0  0  0  0  0  0
   -1.2965   -1.3665    0.0000 O   0  0  0  0  0  0  0  0  0  0  0  0
   -0.3321   -2.5153    0.0000 H   0  0  0  0  0  0  0  0  0  0  0  0
   -6.0983    1.4449    0.0000 N   0  0  0  0  0  0  0  0  0  0  0  0
   -4.9529    0.4763    0.0000 C   0  0  0  0  0  0  0  0  0  0  0  0
   -5.2190   -0.9999    0.0000 H   0  0  0  0  0  0  0  0  0  0  0  0
   -4.1979    1.7725    0.0000 H   0  0  0  0  0  0  0  0  0  0  0  0
   -3.5453   -0.0421    0.0000 H   0  0  0  0  0  0  0  0  0  0  0  0
   -7.5592    1.0957    0.0000 C   0  0  0  0  0  0  0  0  0  0  0  0
   -7.0567   -0.3176    0.0000 H   0  0  0  0  0  0  0  0  0  0  0  0
   -8.9108    0.4451    0.0000 H   0  0  0  0  0  0  0  0  0  0  0  0
  1  2  1  0  0  0  0 
  1  3  1  0  0  0  0 
  1  4  1  0  0  0  0 
  1  5  1  0  0  0  0 
  5  6  1  0  0  0  0 
  5  7  1  0  0  0  0 
  5  8  1  0  0  0  0 
  8  9  1  0  0  0  0 
  8 10  1  0  0  0  0 
 11  8  1  6  0  0  0 
 11 12  1  1  0  0  0 
 11 13  1  0  0  0  0 
 13 14  1  0  0  0  0 
 13 15  1  0  0  0  0 
 13 16  1  0  0  0  0 
 16 17  1  6  0  0  0 
 16 18  1  1  0  0  0 
 18 19  2  0  0  0  0 
 18 20  1  0  0  0  0 
 20 21  1  0  0  0  0 
 20 22  1  0  0  0  0 
 22 23  1  0  0  0  0 
 22 24  1  0  0  0  0 
 24 25  1  0  0  0  0 
 24 26  1  0  0  0  0 
 26 27  1  0  0  0  0 
 26 28  1  0  0  0  0 
 26 29  1  0  0  0  0 
 24 30  1  0  0  0  0 
 31 22  1  1  0  0  0 
 31 32  1  6  0  0  0 
 31 33  1  0  0  0  0 
 33 34  1  6  0  0  0 
 33 35  1  0  0  0  0 
 35 36  1  6  0  0  0 
 35 37  1  0  0  0  0 
 37 38  1  1  0  0  0 
 37 39  1  0  0  0  0 
 39 40  1  1  0  0  0 
 39 41  1  0  0  0  0 
 31 41  1  0  0  0  0 
 39 42  1  6  0  0  0 
 42 43  1  0  0  0  0 
 37 44  1  6  0  0  0 
 44 45  1  0  0  0  0 
 35 46  1  1  0  0  0 
 46 47  1  0  0  0  0 
 33 48  1  1  0  0  0 
 48 49  1  0  0  0  0 
 16 50  1  0  0  0  0 
 50 51  1  0  0  0  0 
 51 52  1  0  0  0  0 
 51 53  1  0  0  0  0 
 51 54  1  0  0  0  0 
 50 55  1  0  0  0  0 
 11 55  1  0  0  0  0 
 55 56  1  0  0  0  0 
 55 57  1  0  0  0  0 
M  END
> <Rank>
2

> <Priority_score>
0.18

> <Reaction_type>
S-dealkylation

> <Parent_ID>
21

> <Parent_InChI>
InChI=1S/C18H33ClN2O5S/c1-5-6-10-7-11(21(3)8-10)17(25)20-12(9(2)19)16-14(23)13(22)15(24)18(26-16)27-4/h9-16,18,22-24H,5-8H2,1-4H3,(H,20,25)

> <Parent_SMILES>
CCC[C@@H]1C[C@@H](C(=O)NC(C(C)Cl)[C@H]2O[C@H](SC)[C@H](O)[C@@H](O)[C@H]2O)N(C)C1

$$$$
Molecule 21_metabolite 4
  CDK     0516241031

 55 56  0  0  0  0  0  0  0  0999 V2000
  -12.5129    0.8060    0.0000 C   0  0  0  0  0  0  0  0  0  0  0  0
  -12.3089   -0.6801    0.0000 H   0  0  0  0  0  0  0  0  0  0  0  0
  -13.2128    2.1327    0.0000 H   0  0  0  0  0  0  0  0  0  0  0  0
  -13.9409    0.3471    0.0000 H   0  0  0  0  0  0  0  0  0  0  0  0
  -11.3279    1.7257    0.0000 C   0  0  0  0  0  0  0  0  0  0  0  0
  -12.4393    2.7330    0.0000 H   0  0  0  0  0  0  0  0  0  0  0  0
  -10.5289    2.9952    0.0000 H   0  0  0  0  0  0  0  0  0  0  0  0
   -9.9389    1.1592    0.0000 C   0  0  0  0  0  0  0  0  0  0  0  0
   -8.4718   -0.1704    0.0000 H   0  0  0  0  0  0  0  0  0  0  0  0
  -10.7379   -0.1102    0.0000 H   0  0  0  0  0  0  0  0  0  0  0  0
   -8.3747    2.3732    0.0000 C   0  0  2  0  0  0  0  0  0  0  0  0
   -9.4129    3.4559    0.0000 H   0  0  0  0  0  0  0  0  0  0  0  0
   -7.4061    3.5186    0.0000 C   0  0  0  0  0  0  0  0  0  0  0  0
   -8.6462    4.3625    0.0000 H   0  0  0  0  0  0  0  0  0  0  0  0
   -6.6961    4.8399    0.0000 H   0  0  0  0  0  0  0  0  0  0  0  0
   -6.0248    2.9529    0.0000 C   0  0  1  0  0  0  0  0  0  0  0  0
   -5.6078    4.3938    0.0000 H   0  0  0  0  0  0  0  0  0  0  0  0
   -4.0750    2.6087    0.0000 C   0  0  0  0  0  0  0  0  0  0  0  0
   -3.5622    1.1990    0.0000 O   0  0  0  0  0  0  0  0  0  0  0  0
   -3.1106    3.7575    0.0000 N   0  0  0  0  0  0  0  0  0  0  0  0
   -3.6233    5.1672    0.0000 H   0  0  0  0  0  0  0  0  0  0  0  0
   -1.1607    3.4133    0.0000 C   0  0  0  0  0  0  0  0  0  0  0  0
    0.3166    3.6734    0.0000 H   0  0  0  0  0  0  0  0  0  0  0  0
   -1.1604    4.9133    0.0000 C   0  0  0  0  0  0  0  0  0  0  0  0
   -1.6731    6.3229    0.0000 H   0  0  0  0  0  0  0  0  0  0  0  0
    0.1388    5.6630    0.0000 C   0  0  0  0  0  0  0  0  0  0  0  0
    1.4377    4.9127    0.0000 H   0  0  0  0  0  0  0  0  0  0  0  0
    1.1032    6.8119    0.0000 H   0  0  0  0  0  0  0  0  0  0  0  0
   -0.8251    6.8123    0.0000 H   0  0  0  0  0  0  0  0  0  0  0  0
   -2.6377    4.6531    0.0000 Cl  0  0  0  0  0  0  0  0  0  0  0  0
   -0.6480    2.0036    0.0000 C   0  0  2  0  0  0  0  0  0  0  0  0
   -2.1252    1.7433    0.0000 H   0  0  0  0  0  0  0  0  0  0  0  0
   -0.6480    0.5136    0.0000 C   0  0  1  0  0  0  0  0  0  0  0  0
   -2.1247    0.7768    0.0000 H   0  0  0  0  0  0  0  0  0  0  0  0
    0.6520   -0.2464    0.0000 C   0  0  1  0  0  0  0  0  0  0  0  0
   -0.3168   -1.3916    0.0000 H   0  0  0  0  0  0  0  0  0  0  0  0
    1.9720    0.5136    0.0000 C   0  0  2  0  0  0  0  0  0  0  0  0
    2.4839   -0.8963    0.0000 H   0  0  0  0  0  0  0  0  0  0  0  0
    1.9720    2.0036    0.0000 C   0  0  0  0  0  0  0  0  0  0  0  0
    3.2685    2.7581    0.0000 O   0  0  0  0  0  0  0  0  0  0  0  0
    0.6520    2.7536    0.0000 O   0  0  0  0  0  0  0  0  0  0  0  0
    3.4493    0.7735    0.0000 O   0  0  0  0  0  0  0  0  0  0  0  0
    4.4131   -0.3759    0.0000 H   0  0  0  0  0  0  0  0  0  0  0  0
    1.6132   -1.3979    0.0000 O   0  0  0  0  0  0  0  0  0  0  0  0
    1.0965   -2.8061    0.0000 H   0  0  0  0  0  0  0  0  0  0  0  0
   -1.3319   -1.3445    0.0000 O   0  0  0  0  0  0  0  0  0  0  0  0
   -0.3719   -2.4970    0.0000 H   0  0  0  0  0  0  0  0  0  0  0  0
   -6.1266    1.4543    0.0000 N   0  0  0  0  0  0  0  0  0  0  0  0
   -4.9812    0.4857    0.0000 C   0  0  0  0  0  0  0  0  0  0  0  0
   -5.2473   -0.9905    0.0000 H   0  0  0  0  0  0  0  0  0  0  0  0
   -4.2262    1.7819    0.0000 H   0  0  0  0  0  0  0  0  0  0  0  0
   -3.5736   -0.0327    0.0000 H   0  0  0  0  0  0  0  0  0  0  0  0
   -7.5875    1.1050    0.0000 C   0  0  0  0  0  0  0  0  0  0  0  0
   -7.0849   -0.3083    0.0000 H   0  0  0  0  0  0  0  0  0  0  0  0
   -8.9390    0.4545    0.0000 H   0  0  0  0  0  0  0  0  0  0  0  0
  1  2  1  0  0  0  0 
  1  3  1  0  0  0  0 
  1  4  1  0  0  0  0 
  1  5  1  0  0  0  0 
  5  6  1  0  0  0  0 
  5  7  1  0  0  0  0 
  5  8  1  0  0  0  0 
  8  9  1  0  0  0  0 
  8 10  1  0  0  0  0 
 11  8  1  6  0  0  0 
 11 12  1  1  0  0  0 
 11 13  1  0  0  0  0 
 13 14  1  0  0  0  0 
 13 15  1  0  0  0  0 
 13 16  1  0  0  0  0 
 16 17  1  6  0  0  0 
 16 18  1  1  0  0  0 
 18 19  2  0  0  0  0 
 18 20  1  0  0  0  0 
 20 21  1  0  0  0  0 
 20 22  1  0  0  0  0 
 22 23  1  0  0  0  0 
 22 24  1  0  0  0  0 
 24 25  1  0  0  0  0 
 24 26  1  0  0  0  0 
 26 27  1  0  0  0  0 
 26 28  1  0  0  0  0 
 26 29  1  0  0  0  0 
 24 30  1  0  0  0  0 
 31 22  1  1  0  0  0 
 31 32  1  6  0  0  0 
 31 33  1  0  0  0  0 
 33 34  1  6  0  0  0 
 33 35  1  0  0  0  0 
 35 36  1  6  0  0  0 
 35 37  1  0  0  0  0 
 37 38  1  1  0  0  0 
 37 39  1  0  0  0  0 
 39 40  2  0  0  0  0 
 39 41  1  0  0  0  0 
 31 41  1  0  0  0  0 
 37 42  1  6  0  0  0 
 42 43  1  0  0  0  0 
 35 44  1  1  0  0  0 
 44 45  1  0  0  0  0 
 33 46  1  1  0  0  0 
 46 47  1  0  0  0  0 
 16 48  1  0  0  0  0 
 48 49  1  0  0  0  0 
 49 50  1  0  0  0  0 
 49 51  1  0  0  0  0 
 49 52  1  0  0  0  0 
 48 53  1  0  0  0  0 
 11 53  1  0  0  0  0 
 53 54  1  0  0  0  0 
 53 55  1  0  0  0  0 
M  END
> <Rank>
2

> <Priority_score>
0.18

> <Reaction_type>
S-dealkylation

> <Parent_ID>
21

> <Parent_InChI>
InChI=1S/C18H33ClN2O5S/c1-5-6-10-7-11(21(3)8-10)17(25)20-12(9(2)19)16-14(23)13(22)15(24)18(26-16)27-4/h9-16,18,22-24H,5-8H2,1-4H3,(H,20,25)

> <Parent_SMILES>
CCC[C@@H]1C[C@@H](C(=O)NC(C(C)Cl)[C@H]2O[C@H](SC)[C@H](O)[C@@H](O)[C@H]2O)N(C)C1

$$$$
Molecule 21_metabolite 5
  CDK     0516241031

 61 62  0  0  0  0  0  0  0  0999 V2000
    3.3681    3.3593    0.0000 C   0  0  0  0  0  0  0  0  0  0  0  0
    3.1641    4.8454    0.0000 H   0  0  0  0  0  0  0  0  0  0  0  0
    4.0680    2.0326    0.0000 H   0  0  0  0  0  0  0  0  0  0  0  0
    4.7962    3.8182    0.0000 H   0  0  0  0  0  0  0  0  0  0  0  0
    2.1831    2.4397    0.0000 C   0  0  0  0  0  0  0  0  0  0  0  0
    3.2945    1.4324    0.0000 H   0  0  0  0  0  0  0  0  0  0  0  0
    1.3841    1.1702    0.0000 H   0  0  0  0  0  0  0  0  0  0  0  0
    0.7941    3.0061    0.0000 C   0  0  0  0  0  0  0  0  0  0  0  0
   -0.6730    4.3357    0.0000 H   0  0  0  0  0  0  0  0  0  0  0  0
    1.5931    4.2756    0.0000 H   0  0  0  0  0  0  0  0  0  0  0  0
   -0.7701    1.7921    0.0000 C   0  0  2  0  0  0  0  0  0  0  0  0
    0.2681    0.7095    0.0000 H   0  0  0  0  0  0  0  0  0  0  0  0
   -1.7386    0.6468    0.0000 C   0  0  0  0  0  0  0  0  0  0  0  0
   -0.4985   -0.1971    0.0000 H   0  0  0  0  0  0  0  0  0  0  0  0
   -2.4487   -0.6745    0.0000 H   0  0  0  0  0  0  0  0  0  0  0  0
   -3.1199    1.2124    0.0000 C   0  0  1  0  0  0  0  0  0  0  0  0
   -3.5370   -0.2284    0.0000 H   0  0  0  0  0  0  0  0  0  0  0  0
   -5.0698    1.5567    0.0000 C   0  0  0  0  0  0  0  0  0  0  0  0
   -5.5825    2.9663    0.0000 O   0  0  0  0  0  0  0  0  0  0  0  0
   -6.0342    0.4078    0.0000 N   0  0  0  0  0  0  0  0  0  0  0  0
   -5.5215   -1.0018    0.0000 H   0  0  0  0  0  0  0  0  0  0  0  0
   -7.5114    0.6686    0.0000 C   0  0  0  0  0  0  0  0  0  0  0  0
   -8.9886    0.4085    0.0000 H   0  0  0  0  0  0  0  0  0  0  0  0
   -7.5119   -1.7914    0.0000 C   0  0  0  0  0  0  0  0  0  0  0  0
   -8.0252   -3.2008    0.0000 H   0  0  0  0  0  0  0  0  0  0  0  0
   -6.2130   -2.5417    0.0000 C   0  0  0  0  0  0  0  0  0  0  0  0
   -4.9138   -1.7919    0.0000 H   0  0  0  0  0  0  0  0  0  0  0  0
   -5.2491   -3.6909    0.0000 H   0  0  0  0  0  0  0  0  0  0  0  0
   -7.1775   -3.6905    0.0000 H   0  0  0  0  0  0  0  0  0  0  0  0
   -8.9891   -1.5306    0.0000 Cl  0  0  0  0  0  0  0  0  0  0  0  0
   -8.0241    2.0783    0.0000 C   0  0  2  0  0  0  0  0  0  0  0  0
   -6.5469    2.3386    0.0000 H   0  0  0  0  0  0  0  0  0  0  0  0
   -8.0241    3.5783    0.0000 C   0  0  1  0  0  0  0  0  0  0  0  0
   -6.5469    3.3179    0.0000 H   0  0  0  0  0  0  0  0  0  0  0  0
   -9.3241    4.3283    0.0000 C   0  0  1  0  0  0  0  0  0  0  0  0
   -8.3600    5.4774    0.0000 H   0  0  0  0  0  0  0  0  0  0  0  0
  -10.6241    3.5783    0.0000 C   0  0  2  0  0  0  0  0  0  0  0  0
  -11.1368    4.9879    0.0000 H   0  0  0  0  0  0  0  0  0  0  0  0
  -10.6241    2.0783    0.0000 C   0  0  2  0  0  0  0  0  0  0  0  0
  -12.1013    2.3386    0.0000 H   0  0  0  0  0  0  0  0  0  0  0  0
   -9.3241    1.3283    0.0000 O   0  0  0  0  0  0  0  0  0  0  0  0
  -11.1368    0.6686    0.0000 S   0  0  0  0  0  0  0  0  0  0  0  0
  -10.1724   -0.4802    0.0000 O   0  0  0  0  0  0  0  0  0  0  0  0
  -12.6140    0.4078    0.0000 C   0  0  0  0  0  0  0  0  0  0  0  0
  -13.5784    1.5567    0.0000 H   0  0  0  0  0  0  0  0  0  0  0  0
  -13.9129   -0.3425    0.0000 H   0  0  0  0  0  0  0  0  0  0  0  0
  -12.1007   -1.0016    0.0000 H   0  0  0  0  0  0  0  0  0  0  0  0
  -12.1013    3.3179    0.0000 O   0  0  0  0  0  0  0  0  0  0  0  0
  -13.0654    4.4671    0.0000 H   0  0  0  0  0  0  0  0  0  0  0  0
  -10.2882    5.4774    0.0000 O   0  0  0  0  0  0  0  0  0  0  0  0
   -9.7750    6.8869    0.0000 H   0  0  0  0  0  0  0  0  0  0  0  0
   -7.3473    5.4390    0.0000 O   0  0  0  0  0  0  0  0  0  0  0  0
   -8.3117    6.5879    0.0000 H   0  0  0  0  0  0  0  0  0  0  0  0
   -3.0182    2.7111    0.0000 N   0  0  0  0  0  0  0  0  0  0  0  0
   -4.1636    3.6796    0.0000 C   0  0  0  0  0  0  0  0  0  0  0  0
   -3.8975    5.1558    0.0000 H   0  0  0  0  0  0  0  0  0  0  0  0
   -4.9186    2.3835    0.0000 H   0  0  0  0  0  0  0  0  0  0  0  0
   -5.5712    4.1981    0.0000 H   0  0  0  0  0  0  0  0  0  0  0  0
   -1.5573    3.0603    0.0000 C   0  0  0  0  0  0  0  0  0  0  0  0
   -2.0598    4.4736    0.0000 H   0  0  0  0  0  0  0  0  0  0  0  0
   -0.2057    3.7109    0.0000 H   0  0  0  0  0  0  0  0  0  0  0  0
  1  2  1  0  0  0  0 
  1  3  1  0  0  0  0 
  1  4  1  0  0  0  0 
  1  5  1  0  0  0  0 
  5  6  1  0  0  0  0 
  5  7  1  0  0  0  0 
  5  8  1  0  0  0  0 
  8  9  1  0  0  0  0 
  8 10  1  0  0  0  0 
 11  8  1  6  0  0  0 
 11 12  1  1  0  0  0 
 11 13  1  0  0  0  0 
 13 14  1  0  0  0  0 
 13 15  1  0  0  0  0 
 13 16  1  0  0  0  0 
 16 17  1  6  0  0  0 
 16 18  1  1  0  0  0 
 18 19  2  0  0  0  0 
 18 20  1  0  0  0  0 
 20 21  1  0  0  0  0 
 20 22  1  0  0  0  0 
 22 23  1  0  0  0  0 
 22 24  1  0  0  0  0 
 24 25  1  0  0  0  0 
 24 26  1  0  0  0  0 
 26 27  1  0  0  0  0 
 26 28  1  0  0  0  0 
 26 29  1  0  0  0  0 
 24 30  1  0  0  0  0 
 31 22  1  1  0  0  0 
 31 32  1  6  0  0  0 
 31 33  1  0  0  0  0 
 33 34  1  6  0  0  0 
 33 35  1  0  0  0  0 
 35 36  1  6  0  0  0 
 35 37  1  0  0  0  0 
 37 38  1  1  0  0  0 
 37 39  1  0  0  0  0 
 39 40  1  1  0  0  0 
 39 41  1  0  0  0  0 
 31 41  1  0  0  0  0 
 39 42  1  6  0  0  0 
 42 43  2  0  0  0  0 
 42 44  1  0  0  0  0 
 44 45  1  0  0  0  0 
 44 46  1  0  0  0  0 
 44 47  1  0  0  0  0 
 37 48  1  6  0  0  0 
 48 49  1  0  0  0  0 
 35 50  1  1  0  0  0 
 50 51  1  0  0  0  0 
 33 52  1  1  0  0  0 
 52 53  1  0  0  0  0 
 16 54  1  0  0  0  0 
 54 55  1  0  0  0  0 
 55 56  1  0  0  0  0 
 55 57  1  0  0  0  0 
 55 58  1  0  0  0  0 
 54 59  1  0  0  0  0 
 11 59  1  0  0  0  0 
 59 60  1  0  0  0  0 
 59 61  1  0  0  0  0 
M  END
> <Rank>
2

> <Priority_score>
0.18

> <Reaction_type>
sulfide_oxidation_(C-S-C)

> <Parent_ID>
21

> <Parent_InChI>
InChI=1S/C18H33ClN2O5S/c1-5-6-10-7-11(21(3)8-10)17(25)20-12(9(2)19)16-14(23)13(22)15(24)18(26-16)27-4/h9-16,18,22-24H,5-8H2,1-4H3,(H,20,25)

> <Parent_SMILES>
CCC[C@@H]1C[C@@H](C(=O)NC(C(C)Cl)[C@H]2O[C@H](SC)[C@H](O)[C@@H](O)[C@H]2O)N(C)C1

$$$$
Molecule 21_metabolite 6
  CDK     0516241031

 61 62  0  0  0  0  0  0  0  0999 V2000
  -12.4846    0.7966    0.0000 C   0  0  0  0  0  0  0  0  0  0  0  0
  -12.2806   -0.6894    0.0000 H   0  0  0  0  0  0  0  0  0  0  0  0
  -13.1845    2.1233    0.0000 H   0  0  0  0  0  0  0  0  0  0  0  0
  -13.9127    0.3377    0.0000 H   0  0  0  0  0  0  0  0  0  0  0  0
  -11.2996    1.7163    0.0000 C   0  0  0  0  0  0  0  0  0  0  0  0
  -12.4110    2.7236    0.0000 H   0  0  0  0  0  0  0  0  0  0  0  0
   -9.9106    1.1499    0.0000 C   0  0  0  0  0  0  0  0  0  0  0  0
   -8.4435   -0.1798    0.0000 H   0  0  0  0  0  0  0  0  0  0  0  0
  -10.7096   -0.1196    0.0000 H   0  0  0  0  0  0  0  0  0  0  0  0
   -8.3464    2.3638    0.0000 C   0  0  2  0  0  0  0  0  0  0  0  0
   -9.3846    3.4465    0.0000 H   0  0  0  0  0  0  0  0  0  0  0  0
   -7.3779    3.5092    0.0000 C   0  0  0  0  0  0  0  0  0  0  0  0
   -8.6180    4.3531    0.0000 H   0  0  0  0  0  0  0  0  0  0  0  0
   -6.6678    4.8305    0.0000 H   0  0  0  0  0  0  0  0  0  0  0  0
   -5.9966    2.9435    0.0000 C   0  0  1  0  0  0  0  0  0  0  0  0
   -5.5795    4.3844    0.0000 H   0  0  0  0  0  0  0  0  0  0  0  0
   -4.0467    2.5993    0.0000 C   0  0  0  0  0  0  0  0  0  0  0  0
   -3.5340    1.1896    0.0000 O   0  0  0  0  0  0  0  0  0  0  0  0
   -3.0823    3.7482    0.0000 N   0  0  0  0  0  0  0  0  0  0  0  0
   -3.5950    5.1578    0.0000 H   0  0  0  0  0  0  0  0  0  0  0  0
   -1.1324    3.4039    0.0000 C   0  0  0  0  0  0  0  0  0  0  0  0
    0.3448    3.6641    0.0000 H   0  0  0  0  0  0  0  0  0  0  0  0
   -1.1321    4.9039    0.0000 C   0  0  0  0  0  0  0  0  0  0  0  0
   -1.6448    6.3136    0.0000 H   0  0  0  0  0  0  0  0  0  0  0  0
    0.1671    5.6536    0.0000 C   0  0  0  0  0  0  0  0  0  0  0  0
    1.4660    4.9034    0.0000 H   0  0  0  0  0  0  0  0  0  0  0  0
    1.1315    6.8025    0.0000 H   0  0  0  0  0  0  0  0  0  0  0  0
   -0.7969    6.8029    0.0000 H   0  0  0  0  0  0  0  0  0  0  0  0
   -2.6094    4.6438    0.0000 Cl  0  0  0  0  0  0  0  0  0  0  0  0
   -0.6197    1.9943    0.0000 C   0  0  2  0  0  0  0  0  0  0  0  0
   -2.0969    1.7339    0.0000 H   0  0  0  0  0  0  0  0  0  0  0  0
   -0.6197    0.4943    0.0000 C   0  0  1  0  0  0  0  0  0  0  0  0
   -2.0969    0.7546    0.0000 H   0  0  0  0  0  0  0  0  0  0  0  0
    0.6803   -0.2557    0.0000 C   0  0  1  0  0  0  0  0  0  0  0  0
   -0.2838   -1.4049    0.0000 H   0  0  0  0  0  0  0  0  0  0  0  0
    1.9803    0.4943    0.0000 C   0  0  2  0  0  0  0  0  0  0  0  0
    2.4930   -0.9154    0.0000 H   0  0  0  0  0  0  0  0  0  0  0  0
    1.9803    1.9943    0.0000 C   0  0  2  0  0  0  0  0  0  0  0  0
    3.4575    1.7339    0.0000 H   0  0  0  0  0  0  0  0  0  0  0  0
    0.6803    2.7443    0.0000 O   0  0  0  0  0  0  0  0  0  0  0  0
    2.4930    3.4039    0.0000 S   0  0  0  0  0  0  0  0  0  0  0  0
    3.9702    3.6647    0.0000 C   0  0  0  0  0  0  0  0  0  0  0  0
    4.9346    2.5158    0.0000 H   0  0  0  0  0  0  0  0  0  0  0  0
    5.2691    4.4150    0.0000 H   0  0  0  0  0  0  0  0  0  0  0  0
    3.4568    5.0741    0.0000 H   0  0  0  0  0  0  0  0  0  0  0  0
    3.4575    0.7546    0.0000 O   0  0  0  0  0  0  0  0  0  0  0  0
    4.4216   -0.3946    0.0000 H   0  0  0  0  0  0  0  0  0  0  0  0
    1.6444   -1.4049    0.0000 O   0  0  0  0  0  0  0  0  0  0  0  0
    1.1312   -2.8144    0.0000 H   0  0  0  0  0  0  0  0  0  0  0  0
   -1.2965   -1.3665    0.0000 O   0  0  0  0  0  0  0  0  0  0  0  0
   -0.3321   -2.5153    0.0000 H   0  0  0  0  0  0  0  0  0  0  0  0
   -6.0983    1.4449    0.0000 N   0  0  0  0  0  0  0  0  0  0  0  0
   -4.9529    0.4763    0.0000 C   0  0  0  0  0  0  0  0  0  0  0  0
   -5.2190   -0.9999    0.0000 H   0  0  0  0  0  0  0  0  0  0  0  0
   -4.1979    1.7725    0.0000 H   0  0  0  0  0  0  0  0  0  0  0  0
   -3.5453   -0.0421    0.0000 H   0  0  0  0  0  0  0  0  0  0  0  0
   -7.5592    1.0957    0.0000 C   0  0  0  0  0  0  0  0  0  0  0  0
   -7.0567   -0.3176    0.0000 H   0  0  0  0  0  0  0  0  0  0  0  0
   -8.9108    0.4451    0.0000 H   0  0  0  0  0  0  0  0  0  0  0  0
  -10.5006    2.9858    0.0000 O   0  0  0  0  0  0  0  0  0  0  0  0
  -11.2005    4.3125    0.0000 H   0  0  0  0  0  0  0  0  0  0  0  0
  1  2  1  0  0  0  0 
  1  3  1  0  0  0  0 
  1  4  1  0  0  0  0 
  1  5  1  0  0  0  0 
  5  6  1  0  0  0  0 
  5  7  1  0  0  0  0 
  7  8  1  0  0  0  0 
  7  9  1  0  0  0  0 
 10  7  1  6  0  0  0 
 10 11  1  1  0  0  0 
 10 12  1  0  0  0  0 
 12 13  1  0  0  0  0 
 12 14  1  0  0  0  0 
 12 15  1  0  0  0  0 
 15 16  1  6  0  0  0 
 15 17  1  1  0  0  0 
 17 18  2  0  0  0  0 
 17 19  1  0  0  0  0 
 19 20  1  0  0  0  0 
 19 21  1  0  0  0  0 
 21 22  1  0  0  0  0 
 21 23  1  0  0  0  0 
 23 24  1  0  0  0  0 
 23 25  1  0  0  0  0 
 25 26  1  0  0  0  0 
 25 27  1  0  0  0  0 
 25 28  1  0  0  0  0 
 23 29  1  0  0  0  0 
 30 21  1  1  0  0  0 
 30 31  1  6  0  0  0 
 30 32  1  0  0  0  0 
 32 33  1  6  0  0  0 
 32 34  1  0  0  0  0 
 34 35  1  6  0  0  0 
 34 36  1  0  0  0  0 
 36 37  1  1  0  0  0 
 36 38  1  0  0  0  0 
 38 39  1  1  0  0  0 
 38 40  1  0  0  0  0 
 30 40  1  0  0  0  0 
 38 41  1  6  0  0  0 
 41 42  1  0  0  0  0 
 42 43  1  0  0  0  0 
 42 44  1  0  0  0  0 
 42 45  1  0  0  0  0 
 36 46  1  6  0  0  0 
 46 47  1  0  0  0  0 
 34 48  1  1  0  0  0 
 48 49  1  0  0  0  0 
 32 50  1  1  0  0  0 
 50 51  1  0  0  0  0 
 15 52  1  0  0  0  0 
 52 53  1  0  0  0  0 
 53 54  1  0  0  0  0 
 53 55  1  0  0  0  0 
 53 56  1  0  0  0  0 
 52 57  1  0  0  0  0 
 10 57  1  0  0  0  0 
 57 58  1  0  0  0  0 
 57 59  1  0  0  0  0 
  5 60  1  0  0  0  0 
 60 61  1  0  0  0  0 
M  END
> <Rank>
6

> <Priority_score>
0.144

> <Reaction_type>
aliphatic_hydroxylation_(sec_carbon,next_to_CH3)

> <Parent_ID>
21

> <Parent_InChI>
InChI=1S/C18H33ClN2O5S/c1-5-6-10-7-11(21(3)8-10)17(25)20-12(9(2)19)16-14(23)13(22)15(24)18(26-16)27-4/h9-16,18,22-24H,5-8H2,1-4H3,(H,20,25)

> <Parent_SMILES>
CCC[C@@H]1C[C@@H](C(=O)NC(C(C)Cl)[C@H]2O[C@H](SC)[C@H](O)[C@@H](O)[C@H]2O)N(C)C1

$$$$
Molecule 21_metabolite 7
  CDK     0516241031

 60 61  0  0  0  0  0  0  0  0999 V2000
   -1.1604   -2.2980    0.0000 C   0  0  0  0  0  0  0  0  0  0  0  0
    0.3168   -2.0378    0.0000 H   0  0  0  0  0  0  0  0  0  0  0  0
   -2.4596   -3.0477    0.0000 H   0  0  0  0  0  0  0  0  0  0  0  0
   -0.6477   -3.7076    0.0000 H   0  0  0  0  0  0  0  0  0  0  0  0
   -2.1244   -1.1487    0.0000 C   0  0  0  0  0  0  0  0  0  0  0  0
   -3.4232   -0.3985    0.0000 H   0  0  0  0  0  0  0  0  0  0  0  0
   -1.6110    0.2607    0.0000 C   0  0  0  0  0  0  0  0  0  0  0  0
   -0.3122   -0.4896    0.0000 H   0  0  0  0  0  0  0  0  0  0  0  0
   -3.5609    0.6049    0.0000 C   0  0  2  0  0  0  0  0  0  0  0  0
   -3.5615   -1.3751    0.0000 H   0  0  0  0  0  0  0  0  0  0  0  0
   -5.0382    0.3451    0.0000 C   0  0  1  0  0  0  0  0  0  0  0  0
   -4.5259   -1.0647    0.0000 H   0  0  0  0  0  0  0  0  0  0  0  0
   -6.0021    1.4955    0.0000 C   0  0  1  0  0  0  0  0  0  0  0  0
   -6.9668    0.3470    0.0000 H   0  0  0  0  0  0  0  0  0  0  0  0
   -5.4886    2.9058    0.0000 C   0  0  2  0  0  0  0  0  0  0  0  0
   -6.9657    3.1666    0.0000 H   0  0  0  0  0  0  0  0  0  0  0  0
   -4.0113    3.1656    0.0000 C   0  0  2  0  0  0  0  0  0  0  0  0
   -4.5235    4.5754    0.0000 H   0  0  0  0  0  0  0  0  0  0  0  0
   -3.0474    2.0152    0.0000 O   0  0  0  0  0  0  0  0  0  0  0  0
   -2.7117    3.9148    0.0000 S   0  0  0  0  0  0  0  0  0  0  0  0
   -2.7108    5.4148    0.0000 C   0  0  0  0  0  0  0  0  0  0  0  0
   -4.0093    6.1656    0.0000 H   0  0  0  0  0  0  0  0  0  0  0  0
   -1.2337    5.1534    0.0000 H   0  0  0  0  0  0  0  0  0  0  0  0
   -2.1969    6.8240    0.0000 H   0  0  0  0  0  0  0  0  0  0  0  0
   -5.4881    4.4058    0.0000 O   0  0  0  0  0  0  0  0  0  0  0  0
   -6.7869    5.1562    0.0000 H   0  0  0  0  0  0  0  0  0  0  0  0
   -7.3009    2.2459    0.0000 O   0  0  0  0  0  0  0  0  0  0  0  0
   -8.6001    1.4964    0.0000 H   0  0  0  0  0  0  0  0  0  0  0  0
   -6.3377   -0.4041    0.0000 O   0  0  0  0  0  0  0  0  0  0  0  0
   -6.3387   -1.9041    0.0000 H   0  0  0  0  0  0  0  0  0  0  0  0
   -0.6466    1.4096    0.0000 N   0  0  0  0  0  0  0  0  0  0  0  0
   -1.1593    2.8192    0.0000 H   0  0  0  0  0  0  0  0  0  0  0  0
    0.8306    1.1488    0.0000 C   0  0  0  0  0  0  0  0  0  0  0  0
    1.3433   -0.2609    0.0000 O   0  0  0  0  0  0  0  0  0  0  0  0
    2.1036    2.6653    0.0000 C   0  0  2  0  0  0  0  0  0  0  0  0
    0.8583    3.5015    0.0000 H   0  0  0  0  0  0  0  0  0  0  0  0
    3.1378    1.5890    0.0000 C   0  0  0  0  0  0  0  0  0  0  0  0
    3.9303    0.3154    0.0000 H   0  0  0  0  0  0  0  0  0  0  0  0
    1.9538    0.6681    0.0000 H   0  0  0  0  0  0  0  0  0  0  0  0
    4.4871    2.2444    0.0000 C   0  0  1  0  0  0  0  0  0  0  0  0
    5.9429    2.6059    0.0000 H   0  0  0  0  0  0  0  0  0  0  0  0
    5.4890   -0.5196    0.0000 C   0  0  0  0  0  0  0  0  0  0  0  0
    5.4871   -2.0196    0.0000 H   0  0  0  0  0  0  0  0  0  0  0  0
    4.0115   -0.7781    0.0000 H   0  0  0  0  0  0  0  0  0  0  0  0
    6.9659   -0.7819    0.0000 C   0  0  0  0  0  0  0  0  0  0  0  0
    8.2640   -1.5336    0.0000 H   0  0  0  0  0  0  0  0  0  0  0  0
    6.4511   -2.1908    0.0000 H   0  0  0  0  0  0  0  0  0  0  0  0
    7.9316    0.3659    0.0000 C   0  0  0  0  0  0  0  0  0  0  0  0
    7.4204    1.7761    0.0000 O   0  0  0  0  0  0  0  0  0  0  0  0
    9.4085    0.1035    0.0000 O   0  0  0  0  0  0  0  0  0  0  0  0
   10.3741    1.2514    0.0000 H   0  0  0  0  0  0  0  0  0  0  0  0
    4.2804    3.7227    0.0000 C   0  0  0  0  0  0  0  0  0  0  0  0
    4.3928    5.2185    0.0000 H   0  0  0  0  0  0  0  0  0  0  0  0
    5.7796    3.7706    0.0000 H   0  0  0  0  0  0  0  0  0  0  0  0
    2.8031    3.9945    0.0000 N   0  0  0  0  0  0  0  0  0  0  0  0
    2.1477    5.3438    0.0000 C   0  0  0  0  0  0  0  0  0  0  0  0
    2.9884    6.5860    0.0000 H   0  0  0  0  0  0  0  0  0  0  0  0
    0.9327    4.4640    0.0000 H   0  0  0  0  0  0  0  0  0  0  0  0
    1.0703    6.3874    0.0000 H   0  0  0  0  0  0  0  0  0  0  0  0
   -3.0888   -2.2976    0.0000 Cl  0  0  0  0  0  0  0  0  0  0  0  0
  1  2  1  0  0  0  0 
  1  3  1  0  0  0  0 
  1  4  1  0  0  0  0 
  1  5  1  0  0  0  0 
  5  6  1  0  0  0  0 
  5  7  1  0  0  0  0 
  7  8  1  0  0  0  0 
  9  7  1  6  0  0  0 
  9 10  1  1  0  0  0 
  9 11  1  0  0  0  0 
 11 12  1  1  0  0  0 
 11 13  1  0  0  0  0 
 13 14  1  1  0  0  0 
 13 15  1  0  0  0  0 
 15 16  1  6  0  0  0 
 15 17  1  0  0  0  0 
 17 18  1  6  0  0  0 
 17 19  1  0  0  0  0 
  9 19  1  0  0  0  0 
 17 20  1  1  0  0  0 
 20 21  1  0  0  0  0 
 21 22  1  0  0  0  0 
 21 23  1  0  0  0  0 
 21 24  1  0  0  0  0 
 15 25  1  1  0  0  0 
 25 26  1  0  0  0  0 
 13 27  1  6  0  0  0 
 27 28  1  0  0  0  0 
 11 29  1  6  0  0  0 
 29 30  1  0  0  0  0 
  7 31  1  0  0  0  0 
 31 32  1  0  0  0  0 
 31 33  1  0  0  0  0 
 33 34  2  0  0  0  0 
 35 33  1  1  0  0  0 
 35 36  1  6  0  0  0 
 35 37  1  0  0  0  0 
 37 38  1  0  0  0  0 
 37 39  1  0  0  0  0 
 37 40  1  0  0  0  0 
 40 41  1  1  0  0  0 
 40 42  1  6  0  0  0 
 42 43  1  0  0  0  0 
 42 44  1  0  0  0  0 
 42 45  1  0  0  0  0 
 45 46  1  0  0  0  0 
 45 47  1  0  0  0  0 
 45 48  1  0  0  0  0 
 48 49  2  0  0  0  0 
 48 50  1  0  0  0  0 
 50 51  1  0  0  0  0 
 40 52  1  0  0  0  0 
 52 53  1  0  0  0  0 
 52 54  1  0  0  0  0 
 52 55  1  0  0  0  0 
 35 55  1  0  0  0  0 
 55 56  1  0  0  0  0 
 56 57  1  0  0  0  0 
 56 58  1  0  0  0  0 
 56 59  1  0  0  0  0 
  5 60  1  0  0  0  0 
M  END
> <Rank>
6

> <Priority_score>
0.144

> <Reaction_type>
carboxylation_(primary_carbon_next_to_sec_carbon)

> <Parent_ID>
21

> <Parent_InChI>
InChI=1S/C18H33ClN2O5S/c1-5-6-10-7-11(21(3)8-10)17(25)20-12(9(2)19)16-14(23)13(22)15(24)18(26-16)27-4/h9-16,18,22-24H,5-8H2,1-4H3,(H,20,25)

> <Parent_SMILES>
CCC[C@@H]1C[C@@H](C(=O)NC(C(C)Cl)[C@H]2O[C@H](SC)[C@H](O)[C@@H](O)[C@H]2O)N(C)C1

$$$$
Molecule 21_metabolite 8
  CDK     0516241031

 61 62  0  0  0  0  0  0  0  0999 V2000
    1.1048    0.7165    0.0000 C   0  0  0  0  0  0  0  0  0  0  0  0
    1.6181    2.1260    0.0000 H   0  0  0  0  0  0  0  0  0  0  0  0
    1.1044   -0.7835    0.0000 H   0  0  0  0  0  0  0  0  0  0  0  0
    2.5819    0.4557    0.0000 H   0  0  0  0  0  0  0  0  0  0  0  0
   -0.3725    0.4564    0.0000 C   0  0  0  0  0  0  0  0  0  0  0  0
   -1.6717   -0.2934    0.0000 H   0  0  0  0  0  0  0  0  0  0  0  0
   -1.3364    1.6056    0.0000 C   0  0  0  0  0  0  0  0  0  0  0  0
   -0.0372    2.3554    0.0000 H   0  0  0  0  0  0  0  0  0  0  0  0
   -2.6095    0.0891    0.0000 C   0  0  2  0  0  0  0  0  0  0  0  0
   -0.8951   -0.9014    0.0000 H   0  0  0  0  0  0  0  0  0  0  0  0
   -3.1231   -1.3202    0.0000 C   0  0  1  0  0  0  0  0  0  0  0  0
   -1.6460   -1.5814    0.0000 H   0  0  0  0  0  0  0  0  0  0  0  0
   -4.6013   -1.5797    0.0000 C   0  0  1  0  0  0  0  0  0  0  0  0
   -4.0891   -2.9895    0.0000 H   0  0  0  0  0  0  0  0  0  0  0  0
   -5.5659   -0.4299    0.0000 C   0  0  2  0  0  0  0  0  0  0  0  0
   -6.5304   -1.5787    0.0000 H   0  0  0  0  0  0  0  0  0  0  0  0
   -5.0523    0.9794    0.0000 C   0  0  2  0  0  0  0  0  0  0  0  0
   -6.5294    1.2407    0.0000 H   0  0  0  0  0  0  0  0  0  0  0  0
   -3.5741    1.2389    0.0000 O   0  0  0  0  0  0  0  0  0  0  0  0
   -5.0513    2.4794    0.0000 S   0  0  0  0  0  0  0  0  0  0  0  0
   -6.3499    3.2303    0.0000 C   0  0  0  0  0  0  0  0  0  0  0  0
   -7.6494    2.4811    0.0000 H   0  0  0  0  0  0  0  0  0  0  0  0
   -5.3850    4.3787    0.0000 H   0  0  0  0  0  0  0  0  0  0  0  0
   -7.3133    4.3800    0.0000 H   0  0  0  0  0  0  0  0  0  0  0  0
   -6.8647    0.3205    0.0000 O   0  0  0  0  0  0  0  0  0  0  0  0
   -8.1640   -0.4290    0.0000 H   0  0  0  0  0  0  0  0  0  0  0  0
   -5.9006   -2.3293    0.0000 O   0  0  0  0  0  0  0  0  0  0  0  0
   -5.9011   -3.8293    0.0000 H   0  0  0  0  0  0  0  0  0  0  0  0
   -3.1241   -2.8202    0.0000 O   0  0  0  0  0  0  0  0  0  0  0  0
   -1.8255   -3.5710    0.0000 H   0  0  0  0  0  0  0  0  0  0  0  0
   -1.8492    3.0153    0.0000 N   0  0  0  0  0  0  0  0  0  0  0  0
   -3.3263    3.2761    0.0000 H   0  0  0  0  0  0  0  0  0  0  0  0
   -0.8847    4.1641    0.0000 C   0  0  0  0  0  0  0  0  0  0  0  0
    0.5924    3.9034    0.0000 O   0  0  0  0  0  0  0  0  0  0  0  0
   -1.5615    6.0249    0.0000 C   0  0  2  0  0  0  0  0  0  0  0  0
   -2.9084    5.3646    0.0000 H   0  0  0  0  0  0  0  0  0  0  0  0
   -0.1123    6.3824    0.0000 C   0  0  0  0  0  0  0  0  0  0  0  0
    1.3868    6.4320    0.0000 H   0  0  0  0  0  0  0  0  0  0  0  0
    0.0932    4.8966    0.0000 H   0  0  0  0  0  0  0  0  0  0  0  0
   -0.0053    7.8786    0.0000 C   0  0  1  0  0  0  0  0  0  0  0  0
    0.4095    9.3201    0.0000 H   0  0  0  0  0  0  0  0  0  0  0  0
    2.8893    7.3644    0.0000 C   0  0  0  0  0  0  0  0  0  0  0  0
    4.1874    6.6127    0.0000 H   0  0  0  0  0  0  0  0  0  0  0  0
    2.3745    5.9555    0.0000 H   0  0  0  0  0  0  0  0  0  0  0  0
    3.8550    8.5122    0.0000 C   0  0  0  0  0  0  0  0  0  0  0  0
    4.3698    9.9211    0.0000 H   0  0  0  0  0  0  0  0  0  0  0  0
    2.5569    9.2639    0.0000 H   0  0  0  0  0  0  0  0  0  0  0  0
    5.3319    8.2498    0.0000 C   0  0  0  0  0  0  0  0  0  0  0  0
    5.3338    9.7498    0.0000 H   0  0  0  0  0  0  0  0  0  0  0  0
    6.8094    8.5084    0.0000 H   0  0  0  0  0  0  0  0  0  0  0  0
    5.8431    6.8396    0.0000 O   0  0  0  0  0  0  0  0  0  0  0  0
    7.3200    6.5772    0.0000 H   0  0  0  0  0  0  0  0  0  0  0  0
   -1.3889    8.4387    0.0000 C   0  0  0  0  0  0  0  0  0  0  0  0
   -2.6281    9.2840    0.0000 H   0  0  0  0  0  0  0  0  0  0  0  0
   -0.6808    9.7611    0.0000 H   0  0  0  0  0  0  0  0  0  0  0  0
   -2.3630    7.2953    0.0000 N   0  0  0  0  0  0  0  0  0  0  0  0
   -3.8591    7.4023    0.0000 C   0  0  0  0  0  0  0  0  0  0  0  0
   -4.5146    8.7515    0.0000 H   0  0  0  0  0  0  0  0  0  0  0  0
   -3.7047    5.9103    0.0000 H   0  0  0  0  0  0  0  0  0  0  0  0
   -5.3017    6.9911    0.0000 H   0  0  0  0  0  0  0  0  0  0  0  0
    0.1402   -0.9533    0.0000 Cl  0  0  0  0  0  0  0  0  0  0  0  0
  1  2  1  0  0  0  0 
  1  3  1  0  0  0  0 
  1  4  1  0  0  0  0 
  1  5  1  0  0  0  0 
  5  6  1  0  0  0  0 
  5  7  1  0  0  0  0 
  7  8  1  0  0  0  0 
  9  7  1  6  0  0  0 
  9 10  1  1  0  0  0 
  9 11  1  0  0  0  0 
 11 12  1  1  0  0  0 
 11 13  1  0  0  0  0 
 13 14  1  1  0  0  0 
 13 15  1  0  0  0  0 
 15 16  1  6  0  0  0 
 15 17  1  0  0  0  0 
 17 18  1  6  0  0  0 
 17 19  1  0  0  0  0 
  9 19  1  0  0  0  0 
 17 20  1  1  0  0  0 
 20 21  1  0  0  0  0 
 21 22  1  0  0  0  0 
 21 23  1  0  0  0  0 
 21 24  1  0  0  0  0 
 15 25  1  1  0  0  0 
 25 26  1  0  0  0  0 
 13 27  1  6  0  0  0 
 27 28  1  0  0  0  0 
 11 29  1  6  0  0  0 
 29 30  1  0  0  0  0 
  7 31  1  0  0  0  0 
 31 32  1  0  0  0  0 
 31 33  1  0  0  0  0 
 33 34  2  0  0  0  0 
 35 33  1  1  0  0  0 
 35 36  1  6  0  0  0 
 35 37  1  0  0  0  0 
 37 38  1  0  0  0  0 
 37 39  1  0  0  0  0 
 37 40  1  0  0  0  0 
 40 41  1  1  0  0  0 
 40 42  1  6  0  0  0 
 42 43  1  0  0  0  0 
 42 44  1  0  0  0  0 
 42 45  1  0  0  0  0 
 45 46  1  0  0  0  0 
 45 47  1  0  0  0  0 
 45 48  1  0  0  0  0 
 48 49  1  0  0  0  0 
 48 50  1  0  0  0  0 
 48 51  1  0  0  0  0 
 51 52  1  0  0  0  0 
 40 53  1  0  0  0  0 
 53 54  1  0  0  0  0 
 53 55  1  0  0  0  0 
 53 56  1  0  0  0  0 
 35 56  1  0  0  0  0 
 56 57  1  0  0  0  0 
 57 58  1  0  0  0  0 
 57 59  1  0  0  0  0 
 57 60  1  0  0  0  0 
  5 61  1  0  0  0  0 
M  END
> <Rank>
6

> <Priority_score>
0.144

> <Reaction_type>
aliphatic_hydroxylation_(primary_carbon_next_to_sec_carbon)

> <Parent_ID>
21

> <Parent_InChI>
InChI=1S/C18H33ClN2O5S/c1-5-6-10-7-11(21(3)8-10)17(25)20-12(9(2)19)16-14(23)13(22)15(24)18(26-16)27-4/h9-16,18,22-24H,5-8H2,1-4H3,(H,20,25)

> <Parent_SMILES>
CCC[C@@H]1C[C@@H](C(=O)NC(C(C)Cl)[C@H]2O[C@H](SC)[C@H](O)[C@@H](O)[C@H]2O)N(C)C1

$$$$
Molecule 21_metabolite 9
  CDK     0516241031

 61 62  0  0  0  0  0  0  0  0999 V2000
  -12.4846    0.7966    0.0000 C   0  0  0  0  0  0  0  0  0  0  0  0
  -12.2806   -0.6894    0.0000 H   0  0  0  0  0  0  0  0  0  0  0  0
  -13.1845    2.1233    0.0000 H   0  0  0  0  0  0  0  0  0  0  0  0
  -13.9127    0.3377    0.0000 H   0  0  0  0  0  0  0  0  0  0  0  0
  -11.2996    1.7163    0.0000 C   0  0  0  0  0  0  0  0  0  0  0  0
  -12.4110    2.7236    0.0000 H   0  0  0  0  0  0  0  0  0  0  0  0
  -10.5006    2.9858    0.0000 H   0  0  0  0  0  0  0  0  0  0  0  0
   -9.9106    1.1499    0.0000 C   0  0  0  0  0  0  0  0  0  0  0  0
   -8.4435   -0.1798    0.0000 H   0  0  0  0  0  0  0  0  0  0  0  0
  -10.7096   -0.1196    0.0000 H   0  0  0  0  0  0  0  0  0  0  0  0
   -8.3464    2.3638    0.0000 C   0  0  2  0  0  0  0  0  0  0  0  0
   -9.3846    3.4465    0.0000 H   0  0  0  0  0  0  0  0  0  0  0  0
   -7.3779    3.5092    0.0000 C   0  0  0  0  0  0  0  0  0  0  0  0
   -8.6180    4.3531    0.0000 H   0  0  0  0  0  0  0  0  0  0  0  0
   -6.6678    4.8305    0.0000 H   0  0  0  0  0  0  0  0  0  0  0  0
   -5.9966    2.9435    0.0000 C   0  0  1  0  0  0  0  0  0  0  0  0
   -5.5795    4.3844    0.0000 H   0  0  0  0  0  0  0  0  0  0  0  0
   -4.0467    2.5993    0.0000 C   0  0  0  0  0  0  0  0  0  0  0  0
   -3.5340    1.1896    0.0000 O   0  0  0  0  0  0  0  0  0  0  0  0
   -3.0823    3.7482    0.0000 N   0  0  0  0  0  0  0  0  0  0  0  0
   -3.5950    5.1578    0.0000 H   0  0  0  0  0  0  0  0  0  0  0  0
   -1.1324    3.4039    0.0000 C   0  0  0  0  0  0  0  0  0  0  0  0
    0.3448    3.6641    0.0000 H   0  0  0  0  0  0  0  0  0  0  0  0
   -1.1321    4.9039    0.0000 C   0  0  0  0  0  0  0  0  0  0  0  0
   -1.6448    6.3136    0.0000 H   0  0  0  0  0  0  0  0  0  0  0  0
    0.1671    5.6536    0.0000 C   0  0  0  0  0  0  0  0  0  0  0  0
    1.4660    4.9034    0.0000 H   0  0  0  0  0  0  0  0  0  0  0  0
    1.1315    6.8025    0.0000 H   0  0  0  0  0  0  0  0  0  0  0  0
   -0.7969    6.8029    0.0000 H   0  0  0  0  0  0  0  0  0  0  0  0
   -2.6094    4.6438    0.0000 Cl  0  0  0  0  0  0  0  0  0  0  0  0
   -0.6197    1.9943    0.0000 C   0  0  2  0  0  0  0  0  0  0  0  0
   -2.0969    1.7339    0.0000 H   0  0  0  0  0  0  0  0  0  0  0  0
   -0.6197    0.4943    0.0000 C   0  0  1  0  0  0  0  0  0  0  0  0
   -2.0969    0.7546    0.0000 H   0  0  0  0  0  0  0  0  0  0  0  0
    0.6803   -0.2557    0.0000 C   0  0  1  0  0  0  0  0  0  0  0  0
   -0.2838   -1.4049    0.0000 H   0  0  0  0  0  0  0  0  0  0  0  0
    1.9803    0.4943    0.0000 C   0  0  2  0  0  0  0  0  0  0  0  0
    2.4930   -0.9154    0.0000 H   0  0  0  0  0  0  0  0  0  0  0  0
    1.9803    1.9943    0.0000 C   0  0  2  0  0  0  0  0  0  0  0  0
    3.4575    1.7339    0.0000 H   0  0  0  0  0  0  0  0  0  0  0  0
    0.6803    2.7443    0.0000 O   0  0  0  0  0  0  0  0  0  0  0  0
    2.4930    3.4039    0.0000 S   0  0  0  0  0  0  0  0  0  0  0  0
    3.9702    3.6647    0.0000 C   0  0  0  0  0  0  0  0  0  0  0  0
    4.9346    2.5158    0.0000 H   0  0  0  0  0  0  0  0  0  0  0  0
    5.2691    4.4150    0.0000 H   0  0  0  0  0  0  0  0  0  0  0  0
    3.4568    5.0741    0.0000 H   0  0  0  0  0  0  0  0  0  0  0  0
    3.4575    0.7546    0.0000 O   0  0  0  0  0  0  0  0  0  0  0  0
    4.4216   -0.3946    0.0000 H   0  0  0  0  0  0  0  0  0  0  0  0
    1.6444   -1.4049    0.0000 O   0  0  0  0  0  0  0  0  0  0  0  0
    1.1312   -2.8144    0.0000 H   0  0  0  0  0  0  0  0  0  0  0  0
   -1.2965   -1.3665    0.0000 O   0  0  0  0  0  0  0  0  0  0  0  0
   -0.3321   -2.5153    0.0000 H   0  0  0  0  0  0  0  0  0  0  0  0
   -6.0983    1.4449    0.0000 N   0  0  0  0  0  0  0  0  0  0  0  0
   -4.9529    0.4763    0.0000 C   0  0  0  0  0  0  0  0  0  0  0  0
   -5.2190   -0.9999    0.0000 H   0  0  0  0  0  0  0  0  0  0  0  0
   -4.1979    1.7725    0.0000 H   0  0  0  0  0  0  0  0  0  0  0  0
   -3.5453   -0.0421    0.0000 H   0  0  0  0  0  0  0  0  0  0  0  0
   -7.5592    1.0957    0.0000 C   0  0  0  0  0  0  0  0  0  0  0  0
   -7.0567   -0.3176    0.0000 H   0  0  0  0  0  0  0  0  0  0  0  0
   -8.9108    0.4451    0.0000 O   0  0  0  0  0  0  0  0  0  0  0  0
   -9.0232   -1.0507    0.0000 H   0  0  0  0  0  0  0  0  0  0  0  0
  1  2  1  0  0  0  0 
  1  3  1  0  0  0  0 
  1  4  1  0  0  0  0 
  1  5  1  0  0  0  0 
  5  6  1  0  0  0  0 
  5  7  1  0  0  0  0 
  5  8  1  0  0  0  0 
  8  9  1  0  0  0  0 
  8 10  1  0  0  0  0 
 11  8  1  6  0  0  0 
 11 12  1  1  0  0  0 
 11 13  1  0  0  0  0 
 13 14  1  0  0  0  0 
 13 15  1  0  0  0  0 
 13 16  1  0  0  0  0 
 16 17  1  6  0  0  0 
 16 18  1  1  0  0  0 
 18 19  2  0  0  0  0 
 18 20  1  0  0  0  0 
 20 21  1  0  0  0  0 
 20 22  1  0  0  0  0 
 22 23  1  0  0  0  0 
 22 24  1  0  0  0  0 
 24 25  1  0  0  0  0 
 24 26  1  0  0  0  0 
 26 27  1  0  0  0  0 
 26 28  1  0  0  0  0 
 26 29  1  0  0  0  0 
 24 30  1  0  0  0  0 
 31 22  1  1  0  0  0 
 31 32  1  6  0  0  0 
 31 33  1  0  0  0  0 
 33 34  1  6  0  0  0 
 33 35  1  0  0  0  0 
 35 36  1  6  0  0  0 
 35 37  1  0  0  0  0 
 37 38  1  1  0  0  0 
 37 39  1  0  0  0  0 
 39 40  1  1  0  0  0 
 39 41  1  0  0  0  0 
 31 41  1  0  0  0  0 
 39 42  1  6  0  0  0 
 42 43  1  0  0  0  0 
 43 44  1  0  0  0  0 
 43 45  1  0  0  0  0 
 43 46  1  0  0  0  0 
 37 47  1  6  0  0  0 
 47 48  1  0  0  0  0 
 35 49  1  1  0  0  0 
 49 50  1  0  0  0  0 
 33 51  1  1  0  0  0 
 51 52  1  0  0  0  0 
 16 53  1  0  0  0  0 
 53 54  1  0  0  0  0 
 54 55  1  0  0  0  0 
 54 56  1  0  0  0  0 
 54 57  1  0  0  0  0 
 53 58  1  0  0  0  0 
 11 58  1  0  0  0  0 
 58 59  1  0  0  0  0 
 58 60  1  0  0  0  0 
 60 61  1  0  0  0  0 
M  END
> <Rank>
9

> <Priority_score>
0.096

> <Reaction_type>
aliphatic_hydroxylation_(sec_carbon_next_to_SP2,in_a_ring)

> <Parent_ID>
21

> <Parent_InChI>
InChI=1S/C18H33ClN2O5S/c1-5-6-10-7-11(21(3)8-10)17(25)20-12(9(2)19)16-14(23)13(22)15(24)18(26-16)27-4/h9-16,18,22-24H,5-8H2,1-4H3,(H,20,25)

> <Parent_SMILES>
CCC[C@@H]1C[C@@H](C(=O)NC(C(C)Cl)[C@H]2O[C@H](SC)[C@H](O)[C@@H](O)[C@H]2O)N(C)C1

$$$$
Molecule 21_metabolite 10
  CDK     0516241031

 61 62  0  0  0  0  0  0  0  0999 V2000
    3.5880    2.1539    0.0000 C   0  0  0  0  0  0  0  0  0  0  0  0
    3.3841    3.6400    0.0000 H   0  0  0  0  0  0  0  0  0  0  0  0
    4.2879    0.8273    0.0000 H   0  0  0  0  0  0  0  0  0  0  0  0
    5.0161    2.6128    0.0000 H   0  0  0  0  0  0  0  0  0  0  0  0
    2.4030    1.2343    0.0000 C   0  0  0  0  0  0  0  0  0  0  0  0
    3.5145    0.2270    0.0000 H   0  0  0  0  0  0  0  0  0  0  0  0
    1.6040   -0.0352    0.0000 H   0  0  0  0  0  0  0  0  0  0  0  0
    1.0141    1.8007    0.0000 C   0  0  0  0  0  0  0  0  0  0  0  0
   -0.4530    3.1303    0.0000 H   0  0  0  0  0  0  0  0  0  0  0  0
    1.8131    3.0702    0.0000 H   0  0  0  0  0  0  0  0  0  0  0  0
   -0.5501    0.5867    0.0000 C   0  0  2  0  0  0  0  0  0  0  0  0
    0.4881   -0.4959    0.0000 H   0  0  0  0  0  0  0  0  0  0  0  0
   -1.5187   -0.5586    0.0000 C   0  0  0  0  0  0  0  0  0  0  0  0
   -0.2786   -1.4025    0.0000 H   0  0  0  0  0  0  0  0  0  0  0  0
   -2.2287   -1.8799    0.0000 H   0  0  0  0  0  0  0  0  0  0  0  0
   -2.9000    0.0070    0.0000 C   0  0  1  0  0  0  0  0  0  0  0  0
   -3.3170   -1.4338    0.0000 H   0  0  0  0  0  0  0  0  0  0  0  0
   -5.3225    0.4347    0.0000 C   0  0  0  0  0  0  0  0  0  0  0  0
   -5.8353    1.8444    0.0000 O   0  0  0  0  0  0  0  0  0  0  0  0
   -6.2870   -0.7141    0.0000 N   0  0  0  0  0  0  0  0  0  0  0  0
   -5.7742   -2.1238    0.0000 H   0  0  0  0  0  0  0  0  0  0  0  0
   -8.2368   -0.3699    0.0000 C   0  0  0  0  0  0  0  0  0  0  0  0
   -9.7141   -0.6300    0.0000 H   0  0  0  0  0  0  0  0  0  0  0  0
   -8.2371   -1.8699    0.0000 C   0  0  0  0  0  0  0  0  0  0  0  0
   -7.7244   -3.2795    0.0000 H   0  0  0  0  0  0  0  0  0  0  0  0
   -9.5363   -2.6196    0.0000 C   0  0  0  0  0  0  0  0  0  0  0  0
  -10.8352   -1.8693    0.0000 H   0  0  0  0  0  0  0  0  0  0  0  0
  -10.5008   -3.7685    0.0000 H   0  0  0  0  0  0  0  0  0  0  0  0
   -8.5724   -3.7689    0.0000 H   0  0  0  0  0  0  0  0  0  0  0  0
   -6.7599   -1.6097    0.0000 Cl  0  0  0  0  0  0  0  0  0  0  0  0
   -8.7495    1.0398    0.0000 C   0  0  2  0  0  0  0  0  0  0  0  0
   -7.2723    1.3001    0.0000 H   0  0  0  0  0  0  0  0  0  0  0  0
   -8.7495    2.5398    0.0000 C   0  0  1  0  0  0  0  0  0  0  0  0
   -7.2723    2.2795    0.0000 H   0  0  0  0  0  0  0  0  0  0  0  0
  -10.0495    3.2898    0.0000 C   0  0  1  0  0  0  0  0  0  0  0  0
   -9.0855    4.4389    0.0000 H   0  0  0  0  0  0  0  0  0  0  0  0
  -11.3495    2.5398    0.0000 C   0  0  2  0  0  0  0  0  0  0  0  0
  -11.8623    3.9494    0.0000 H   0  0  0  0  0  0  0  0  0  0  0  0
  -11.3495    1.0398    0.0000 C   0  0  2  0  0  0  0  0  0  0  0  0
  -12.8268    1.3001    0.0000 H   0  0  0  0  0  0  0  0  0  0  0  0
  -10.0495    0.2898    0.0000 O   0  0  0  0  0  0  0  0  0  0  0  0
  -11.8623   -0.3699    0.0000 S   0  0  0  0  0  0  0  0  0  0  0  0
  -13.3394   -0.6307    0.0000 C   0  0  0  0  0  0  0  0  0  0  0  0
  -14.3038    0.5182    0.0000 H   0  0  0  0  0  0  0  0  0  0  0  0
  -14.6383   -1.3809    0.0000 H   0  0  0  0  0  0  0  0  0  0  0  0
  -12.8261   -2.0401    0.0000 H   0  0  0  0  0  0  0  0  0  0  0  0
  -12.8268    2.2795    0.0000 O   0  0  0  0  0  0  0  0  0  0  0  0
  -13.7908    3.4286    0.0000 H   0  0  0  0  0  0  0  0  0  0  0  0
  -11.0136    4.4389    0.0000 O   0  0  0  0  0  0  0  0  0  0  0  0
  -10.5004    5.8484    0.0000 H   0  0  0  0  0  0  0  0  0  0  0  0
   -8.2368    3.9494    0.0000 O   0  0  0  0  0  0  0  0  0  0  0  0
   -6.7597    4.2102    0.0000 H   0  0  0  0  0  0  0  0  0  0  0  0
   -2.7983    1.5057    0.0000 N   0  0  0  0  0  0  0  0  0  0  0  0
   -4.1214    2.2124    0.0000 C   0  0  0  0  0  0  0  0  0  0  0  0
   -4.1709    3.7115    0.0000 H   0  0  0  0  0  0  0  0  0  0  0  0
   -4.5876    0.7866    0.0000 H   0  0  0  0  0  0  0  0  0  0  0  0
   -5.4445    2.9190    0.0000 H   0  0  0  0  0  0  0  0  0  0  0  0
   -1.3374    1.8549    0.0000 C   0  0  0  0  0  0  0  0  0  0  0  0
   -1.8399    3.2682    0.0000 H   0  0  0  0  0  0  0  0  0  0  0  0
    0.0142    2.5055    0.0000 H   0  0  0  0  0  0  0  0  0  0  0  0
   -2.9984    2.9922    0.0000 O   0  0  0  0  0  0  0  0  0  0  0  0
  1  2  1  0  0  0  0 
  1  3  1  0  0  0  0 
  1  4  1  0  0  0  0 
  1  5  1  0  0  0  0 
  5  6  1  0  0  0  0 
  5  7  1  0  0  0  0 
  5  8  1  0  0  0  0 
  8  9  1  0  0  0  0 
  8 10  1  0  0  0  0 
 11  8  1  6  0  0  0 
 11 12  1  1  0  0  0 
 11 13  1  0  0  0  0 
 13 14  1  0  0  0  0 
 13 15  1  0  0  0  0 
 13 16  1  0  0  0  0 
 16 17  1  6  0  0  0 
 16 18  1  1  0  0  0 
 18 19  2  0  0  0  0 
 18 20  1  0  0  0  0 
 20 21  1  0  0  0  0 
 20 22  1  0  0  0  0 
 22 23  1  0  0  0  0 
 22 24  1  0  0  0  0 
 24 25  1  0  0  0  0 
 24 26  1  0  0  0  0 
 26 27  1  0  0  0  0 
 26 28  1  0  0  0  0 
 26 29  1  0  0  0  0 
 24 30  1  0  0  0  0 
 31 22  1  1  0  0  0 
 31 32  1  6  0  0  0 
 31 33  1  0  0  0  0 
 33 34  1  6  0  0  0 
 33 35  1  0  0  0  0 
 35 36  1  6  0  0  0 
 35 37  1  0  0  0  0 
 37 38  1  1  0  0  0 
 37 39  1  0  0  0  0 
 39 40  1  1  0  0  0 
 39 41  1  0  0  0  0 
 31 41  1  0  0  0  0 
 39 42  1  6  0  0  0 
 42 43  1  0  0  0  0 
 43 44  1  0  0  0  0 
 43 45  1  0  0  0  0 
 43 46  1  0  0  0  0 
 37 47  1  6  0  0  0 
 47 48  1  0  0  0  0 
 35 49  1  1  0  0  0 
 49 50  1  0  0  0  0 
 33 51  1  1  0  0  0 
 51 52  1  0  0  0  0 
 16 53  1  0  0  0  0 
 53 54  1  0  0  0  0 
 54 55  1  0  0  0  0 
 54 56  1  0  0  0  0 
 54 57  1  0  0  0  0 
 53 58  1  0  0  0  0 
 11 58  1  0  0  0  0 
 58 59  1  0  0  0  0 
 58 60  1  0  0  0  0 
 53 61  1  0  0  0  0 
M  CHG  1  53   1
M  CHG  1  61  -1
M  END
> <Rank>
9

> <Priority_score>
0.096

> <Reaction_type>
N-oxidation_(tertiary_NCH3)

> <Parent_ID>
21

> <Parent_InChI>
InChI=1S/C18H33ClN2O5S/c1-5-6-10-7-11(21(3)8-10)17(25)20-12(9(2)19)16-14(23)13(22)15(24)18(26-16)27-4/h9-16,18,22-24H,5-8H2,1-4H3,(H,20,25)

> <Parent_SMILES>
CCC[C@@H]1C[C@@H](C(=O)NC(C(C)Cl)[C@H]2O[C@H](SC)[C@H](O)[C@@H](O)[C@H]2O)N(C)C1

$$$$
Molecule 21_metabolite 11
  CDK     0516241031

 61 62  0  0  0  0  0  0  0  0999 V2000
  -12.4846    0.7966    0.0000 C   0  0  0  0  0  0  0  0  0  0  0  0
  -12.2806   -0.6894    0.0000 H   0  0  0  0  0  0  0  0  0  0  0  0
  -13.1845    2.1233    0.0000 H   0  0  0  0  0  0  0  0  0  0  0  0
  -13.9127    0.3377    0.0000 H   0  0  0  0  0  0  0  0  0  0  0  0
  -11.2996    1.7163    0.0000 C   0  0  0  0  0  0  0  0  0  0  0  0
  -12.4110    2.7236    0.0000 H   0  0  0  0  0  0  0  0  0  0  0  0
  -10.5006    2.9858    0.0000 H   0  0  0  0  0  0  0  0  0  0  0  0
   -9.9106    1.1499    0.0000 C   0  0  0  0  0  0  0  0  0  0  0  0
   -8.4435   -0.1798    0.0000 H   0  0  0  0  0  0  0  0  0  0  0  0
  -10.7096   -0.1196    0.0000 H   0  0  0  0  0  0  0  0  0  0  0  0
   -8.3464    2.3638    0.0000 C   0  0  2  0  0  0  0  0  0  0  0  0
   -9.3846    3.4465    0.0000 H   0  0  0  0  0  0  0  0  0  0  0  0
   -7.3779    3.5092    0.0000 C   0  0  0  0  0  0  0  0  0  0  0  0
   -8.6180    4.3531    0.0000 H   0  0  0  0  0  0  0  0  0  0  0  0
   -6.6678    4.8305    0.0000 H   0  0  0  0  0  0  0  0  0  0  0  0
   -5.9966    2.9435    0.0000 C   0  0  1  0  0  0  0  0  0  0  0  0
   -5.5795    4.3844    0.0000 H   0  0  0  0  0  0  0  0  0  0  0  0
   -4.0467    2.5993    0.0000 C   0  0  0  0  0  0  0  0  0  0  0  0
   -3.5340    1.1896    0.0000 O   0  0  0  0  0  0  0  0  0  0  0  0
   -3.0823    3.7482    0.0000 N   0  0  0  0  0  0  0  0  0  0  0  0
   -3.5950    5.1578    0.0000 H   0  0  0  0  0  0  0  0  0  0  0  0
   -1.1324    3.4039    0.0000 C   0  0  0  0  0  0  0  0  0  0  0  0
    0.3448    3.6641    0.0000 H   0  0  0  0  0  0  0  0  0  0  0  0
   -1.1321    4.9039    0.0000 C   0  0  0  0  0  0  0  0  0  0  0  0
   -1.6448    6.3136    0.0000 H   0  0  0  0  0  0  0  0  0  0  0  0
    0.1671    5.6536    0.0000 C   0  0  0  0  0  0  0  0  0  0  0  0
    1.4660    4.9034    0.0000 H   0  0  0  0  0  0  0  0  0  0  0  0
    1.1315    6.8025    0.0000 H   0  0  0  0  0  0  0  0  0  0  0  0
   -0.7969    6.8029    0.0000 H   0  0  0  0  0  0  0  0  0  0  0  0
   -2.6094    4.6438    0.0000 Cl  0  0  0  0  0  0  0  0  0  0  0  0
   -0.6197    1.9943    0.0000 C   0  0  2  0  0  0  0  0  0  0  0  0
   -2.0969    1.7339    0.0000 H   0  0  0  0  0  0  0  0  0  0  0  0
   -0.6197    0.4943    0.0000 C   0  0  1  0  0  0  0  0  0  0  0  0
   -2.0969    0.7546    0.0000 H   0  0  0  0  0  0  0  0  0  0  0  0
    0.6803   -0.2557    0.0000 C   0  0  1  0  0  0  0  0  0  0  0  0
   -0.2838   -1.4049    0.0000 H   0  0  0  0  0  0  0  0  0  0  0  0
    1.9803    0.4943    0.0000 C   0  0  2  0  0  0  0  0  0  0  0  0
    2.4930   -0.9154    0.0000 H   0  0  0  0  0  0  0  0  0  0  0  0
    1.9803    1.9943    0.0000 C   0  0  2  0  0  0  0  0  0  0  0  0
    3.4575    1.7339    0.0000 H   0  0  0  0  0  0  0  0  0  0  0  0
    0.6803    2.7443    0.0000 O   0  0  0  0  0  0  0  0  0  0  0  0
    2.4930    3.4039    0.0000 S   0  0  0  0  0  0  0  0  0  0  0  0
    3.9702    3.6647    0.0000 C   0  0  0  0  0  0  0  0  0  0  0  0
    4.9346    2.5158    0.0000 H   0  0  0  0  0  0  0  0  0  0  0  0
    5.2691    4.4150    0.0000 H   0  0  0  0  0  0  0  0  0  0  0  0
    3.4568    5.0741    0.0000 H   0  0  0  0  0  0  0  0  0  0  0  0
    3.4575    0.7546    0.0000 O   0  0  0  0  0  0  0  0  0  0  0  0
    4.4216   -0.3946    0.0000 H   0  0  0  0  0  0  0  0  0  0  0  0
    1.6444   -1.4049    0.0000 O   0  0  0  0  0  0  0  0  0  0  0  0
    1.1312   -2.8144    0.0000 H   0  0  0  0  0  0  0  0  0  0  0  0
   -1.2965   -1.3665    0.0000 O   0  0  0  0  0  0  0  0  0  0  0  0
   -0.3321   -2.5153    0.0000 H   0  0  0  0  0  0  0  0  0  0  0  0
   -6.0983    1.4449    0.0000 N   0  0  0  0  0  0  0  0  0  0  0  0
   -7.5592    1.0957    0.0000 C   0  0  0  0  0  0  0  0  0  0  0  0
   -7.0567   -0.3176    0.0000 H   0  0  0  0  0  0  0  0  0  0  0  0
   -8.9108    0.4451    0.0000 H   0  0  0  0  0  0  0  0  0  0  0  0
   -4.9529    0.4763    0.0000 C   0  0  0  0  0  0  0  0  0  0  0  0
   -4.1979    1.7725    0.0000 H   0  0  0  0  0  0  0  0  0  0  0  0
   -3.5453   -0.0421    0.0000 H   0  0  0  0  0  0  0  0  0  0  0  0
   -5.2190   -0.9999    0.0000 O   0  0  0  0  0  0  0  0  0  0  0  0
   -6.6305   -1.5075    0.0000 H   0  0  0  0  0  0  0  0  0  0  0  0
  1  2  1  0  0  0  0 
  1  3  1  0  0  0  0 
  1  4  1  0  0  0  0 
  1  5  1  0  0  0  0 
  5  6  1  0  0  0  0 
  5  7  1  0  0  0  0 
  5  8  1  0  0  0  0 
  8  9  1  0  0  0  0 
  8 10  1  0  0  0  0 
 11  8  1  6  0  0  0 
 11 12  1  1  0  0  0 
 11 13  1  0  0  0  0 
 13 14  1  0  0  0  0 
 13 15  1  0  0  0  0 
 13 16  1  0  0  0  0 
 16 17  1  6  0  0  0 
 16 18  1  1  0  0  0 
 18 19  2  0  0  0  0 
 18 20  1  0  0  0  0 
 20 21  1  0  0  0  0 
 20 22  1  0  0  0  0 
 22 23  1  0  0  0  0 
 22 24  1  0  0  0  0 
 24 25  1  0  0  0  0 
 24 26  1  0  0  0  0 
 26 27  1  0  0  0  0 
 26 28  1  0  0  0  0 
 26 29  1  0  0  0  0 
 24 30  1  0  0  0  0 
 31 22  1  1  0  0  0 
 31 32  1  6  0  0  0 
 31 33  1  0  0  0  0 
 33 34  1  6  0  0  0 
 33 35  1  0  0  0  0 
 35 36  1  6  0  0  0 
 35 37  1  0  0  0  0 
 37 38  1  1  0  0  0 
 37 39  1  0  0  0  0 
 39 40  1  1  0  0  0 
 39 41  1  0  0  0  0 
 31 41  1  0  0  0  0 
 39 42  1  6  0  0  0 
 42 43  1  0  0  0  0 
 43 44  1  0  0  0  0 
 43 45  1  0  0  0  0 
 43 46  1  0  0  0  0 
 37 47  1  6  0  0  0 
 47 48  1  0  0  0  0 
 35 49  1  1  0  0  0 
 49 50  1  0  0  0  0 
 33 51  1  1  0  0  0 
 51 52  1  0  0  0  0 
 16 53  1  0  0  0  0 
 53 54  1  0  0  0  0 
 11 54  1  0  0  0  0 
 54 55  1  0  0  0  0 
 54 56  1  0  0  0  0 
 53 57  1  0  0  0  0 
 57 58  1  0  0  0  0 
 57 59  1  0  0  0  0 
 57 60  1  0  0  0  0 
 60 61  1  0  0  0  0 
M  END
> <Rank>
9

> <Priority_score>
0.096

> <Reaction_type>
aliphatic hydroxylation

> <Parent_ID>
21

> <Parent_InChI>
InChI=1S/C18H33ClN2O5S/c1-5-6-10-7-11(21(3)8-10)17(25)20-12(9(2)19)16-14(23)13(22)15(24)18(26-16)27-4/h9-16,18,22-24H,5-8H2,1-4H3,(H,20,25)

> <Parent_SMILES>
CCC[C@@H]1C[C@@H](C(=O)NC(C(C)Cl)[C@H]2O[C@H](SC)[C@H](O)[C@@H](O)[C@H]2O)N(C)C1

$$$$
Molecule 21_metabolite 12
  CDK     0516241031

 57 58  0  0  0  0  0  0  0  0999 V2000
  -12.1760    0.2621    0.0000 C   0  0  0  0  0  0  0  0  0  0  0  0
  -11.9720   -1.2240    0.0000 H   0  0  0  0  0  0  0  0  0  0  0  0
  -12.8759    1.5888    0.0000 H   0  0  0  0  0  0  0  0  0  0  0  0
  -13.6040   -0.1968    0.0000 H   0  0  0  0  0  0  0  0  0  0  0  0
  -10.9910    1.1818    0.0000 C   0  0  0  0  0  0  0  0  0  0  0  0
  -12.1024    2.1891    0.0000 H   0  0  0  0  0  0  0  0  0  0  0  0
  -10.1920    2.4512    0.0000 H   0  0  0  0  0  0  0  0  0  0  0  0
   -9.6020    0.6153    0.0000 C   0  0  0  0  0  0  0  0  0  0  0  0
   -8.1349   -0.7143    0.0000 H   0  0  0  0  0  0  0  0  0  0  0  0
  -10.4010   -0.6542    0.0000 H   0  0  0  0  0  0  0  0  0  0  0  0
   -8.0378    1.8293    0.0000 C   0  0  2  0  0  0  0  0  0  0  0  0
   -9.0760    2.9120    0.0000 H   0  0  0  0  0  0  0  0  0  0  0  0
   -7.0692    2.9747    0.0000 C   0  0  0  0  0  0  0  0  0  0  0  0
   -8.3093    3.8186    0.0000 H   0  0  0  0  0  0  0  0  0  0  0  0
   -6.3592    4.2960    0.0000 H   0  0  0  0  0  0  0  0  0  0  0  0
   -5.6879    2.4090    0.0000 C   0  0  1  0  0  0  0  0  0  0  0  0
   -5.2709    3.8499    0.0000 H   0  0  0  0  0  0  0  0  0  0  0  0
   -4.2108    2.1482    0.0000 C   0  0  0  0  0  0  0  0  0  0  0  0
   -3.6981    0.7386    0.0000 O   0  0  0  0  0  0  0  0  0  0  0  0
   -3.2464    3.2971    0.0000 N   0  0  0  0  0  0  0  0  0  0  0  0
   -3.7591    4.7067    0.0000 H   0  0  0  0  0  0  0  0  0  0  0  0
   -1.2965    2.9528    0.0000 C   0  0  0  0  0  0  0  0  0  0  0  0
    0.1808    3.2130    0.0000 H   0  0  0  0  0  0  0  0  0  0  0  0
   -1.2962    4.4528    0.0000 C   0  0  0  0  0  0  0  0  0  0  0  0
   -1.8089    5.8625    0.0000 H   0  0  0  0  0  0  0  0  0  0  0  0
    0.0030    5.2025    0.0000 C   0  0  0  0  0  0  0  0  0  0  0  0
    1.3019    4.4523    0.0000 H   0  0  0  0  0  0  0  0  0  0  0  0
    0.9674    6.3514    0.0000 H   0  0  0  0  0  0  0  0  0  0  0  0
   -0.9609    6.3518    0.0000 H   0  0  0  0  0  0  0  0  0  0  0  0
   -2.7735    4.1927    0.0000 Cl  0  0  0  0  0  0  0  0  0  0  0  0
   -0.7838    1.5432    0.0000 C   0  0  2  0  0  0  0  0  0  0  0  0
   -2.2610    1.2829    0.0000 H   0  0  0  0  0  0  0  0  0  0  0  0
   -0.7838    0.0432    0.0000 C   0  0  1  0  0  0  0  0  0  0  0  0
   -2.2610    0.3035    0.0000 H   0  0  0  0  0  0  0  0  0  0  0  0
    0.5162   -0.7068    0.0000 C   0  0  1  0  0  0  0  0  0  0  0  0
   -0.4478   -1.8560    0.0000 H   0  0  0  0  0  0  0  0  0  0  0  0
    1.8162    0.0432    0.0000 C   0  0  2  0  0  0  0  0  0  0  0  0
    2.3290   -1.3665    0.0000 H   0  0  0  0  0  0  0  0  0  0  0  0
    1.8162    1.5432    0.0000 C   0  0  2  0  0  0  0  0  0  0  0  0
    3.2935    1.2829    0.0000 H   0  0  0  0  0  0  0  0  0  0  0  0
    0.5162    2.2932    0.0000 O   0  0  0  0  0  0  0  0  0  0  0  0
    2.3290    2.9528    0.0000 S   0  0  0  0  0  0  0  0  0  0  0  0
    3.8061    3.2136    0.0000 C   0  0  0  0  0  0  0  0  0  0  0  0
    4.7705    2.0648    0.0000 H   0  0  0  0  0  0  0  0  0  0  0  0
    5.1050    3.9639    0.0000 H   0  0  0  0  0  0  0  0  0  0  0  0
    3.2928    4.6230    0.0000 H   0  0  0  0  0  0  0  0  0  0  0  0
    3.2935    0.3035    0.0000 O   0  0  0  0  0  0  0  0  0  0  0  0
    4.2575   -0.8457    0.0000 H   0  0  0  0  0  0  0  0  0  0  0  0
    1.4803   -1.8560    0.0000 O   0  0  0  0  0  0  0  0  0  0  0  0
    0.9671   -3.2655    0.0000 H   0  0  0  0  0  0  0  0  0  0  0  0
   -1.2965   -1.3665    0.0000 O   0  0  0  0  0  0  0  0  0  0  0  0
   -2.7737   -1.6273    0.0000 H   0  0  0  0  0  0  0  0  0  0  0  0
   -5.7897    0.9104    0.0000 N   0  0  0  0  0  0  0  0  0  0  0  0
   -4.6443   -0.0582    0.0000 H   0  0  0  0  0  0  0  0  0  0  0  0
   -7.2506    0.5611    0.0000 C   0  0  0  0  0  0  0  0  0  0  0  0
   -6.7480   -0.8522    0.0000 H   0  0  0  0  0  0  0  0  0  0  0  0
   -8.6022   -0.0894    0.0000 H   0  0  0  0  0  0  0  0  0  0  0  0
  1  2  1  0  0  0  0 
  1  3  1  0  0  0  0 
  1  4  1  0  0  0  0 
  1  5  1  0  0  0  0 
  5  6  1  0  0  0  0 
  5  7  1  0  0  0  0 
  5  8  1  0  0  0  0 
  8  9  1  0  0  0  0 
  8 10  1  0  0  0  0 
 11  8  1  6  0  0  0 
 11 12  1  1  0  0  0 
 11 13  1  0  0  0  0 
 13 14  1  0  0  0  0 
 13 15  1  0  0  0  0 
 13 16  1  0  0  0  0 
 16 17  1  6  0  0  0 
 16 18  1  1  0  0  0 
 18 19  2  0  0  0  0 
 18 20  1  0  0  0  0 
 20 21  1  0  0  0  0 
 20 22  1  0  0  0  0 
 22 23  1  0  0  0  0 
 22 24  1  0  0  0  0 
 24 25  1  0  0  0  0 
 24 26  1  0  0  0  0 
 26 27  1  0  0  0  0 
 26 28  1  0  0  0  0 
 26 29  1  0  0  0  0 
 24 30  1  0  0  0  0 
 31 22  1  1  0  0  0 
 31 32  1  6  0  0  0 
 31 33  1  0  0  0  0 
 33 34  1  6  0  0  0 
 33 35  1  0  0  0  0 
 35 36  1  6  0  0  0 
 35 37  1  0  0  0  0 
 37 38  1  1  0  0  0 
 37 39  1  0  0  0  0 
 39 40  1  1  0  0  0 
 39 41  1  0  0  0  0 
 31 41  1  0  0  0  0 
 39 42  1  6  0  0  0 
 42 43  1  0  0  0  0 
 43 44  1  0  0  0  0 
 43 45  1  0  0  0  0 
 43 46  1  0  0  0  0 
 37 47  1  6  0  0  0 
 47 48  1  0  0  0  0 
 35 49  1  1  0  0  0 
 49 50  1  0  0  0  0 
 33 51  1  1  0  0  0 
 51 52  1  0  0  0  0 
 16 53  1  0  0  0  0 
 53 54  1  0  0  0  0 
 53 55  1  0  0  0  0 
 11 55  1  0  0  0  0 
 55 56  1  0  0  0  0 
 55 57  1  0  0  0  0 
M  END
> <Rank>
9

> <Priority_score>
0.096

> <Reaction_type>
N-demethylation_(R-N(CR)CH3)

> <Parent_ID>
21

> <Parent_InChI>
InChI=1S/C18H33ClN2O5S/c1-5-6-10-7-11(21(3)8-10)17(25)20-12(9(2)19)16-14(23)13(22)15(24)18(26-16)27-4/h9-16,18,22-24H,5-8H2,1-4H3,(H,20,25)

> <Parent_SMILES>
CCC[C@@H]1C[C@@H](C(=O)NC(C(C)Cl)[C@H]2O[C@H](SC)[C@H](O)[C@@H](O)[C@H]2O)N(C)C1

$$$$
Molecule 21_metabolite 13
  CDK     0516241031

 61 61  0  0  0  0  0  0  0  0999 V2000
    5.5859   10.7608    0.0000 C   0  0  0  0  0  0  0  0  0  0  0  0
    5.0732   12.1704    0.0000 H   0  0  0  0  0  0  0  0  0  0  0  0
    6.5498    9.6115    0.0000 H   0  0  0  0  0  0  0  0  0  0  0  0
    6.8851   11.5105    0.0000 H   0  0  0  0  0  0  0  0  0  0  0  0
    4.6215    9.6119    0.0000 C   0  0  0  0  0  0  0  0  0  0  0  0
    5.9203    8.8617    0.0000 H   0  0  0  0  0  0  0  0  0  0  0  0
    4.1081    8.2025    0.0000 H   0  0  0  0  0  0  0  0  0  0  0  0
    3.1443    9.8727    0.0000 C   0  0  0  0  0  0  0  0  0  0  0  0
    1.8454   10.6230    0.0000 H   0  0  0  0  0  0  0  0  0  0  0  0
    3.6576   11.2822    0.0000 H   0  0  0  0  0  0  0  0  0  0  0  0
    1.8713    8.3562    0.0000 C   0  0  2  0  0  0  0  0  0  0  0  0
    3.1701    7.6059    0.0000 H   0  0  0  0  0  0  0  0  0  0  0  0
    0.3941    8.6170    0.0000 C   0  0  0  0  0  0  0  0  0  0  0  0
   -0.9048    9.3673    0.0000 H   0  0  0  0  0  0  0  0  0  0  0  0
    0.9074   10.0264    0.0000 H   0  0  0  0  0  0  0  0  0  0  0  0
   -1.4962    6.3652    0.0000 C   0  0  1  0  0  0  0  0  0  0  0  0
   -0.1973    5.6150    0.0000 H   0  0  0  0  0  0  0  0  0  0  0  0
   -2.9733    6.6260    0.0000 C   0  0  0  0  0  0  0  0  0  0  0  0
   -3.9378    5.4772    0.0000 O   0  0  0  0  0  0  0  0  0  0  0  0
   -3.4861    8.0357    0.0000 N   0  0  0  0  0  0  0  0  0  0  0  0
   -2.5216    9.1845    0.0000 H   0  0  0  0  0  0  0  0  0  0  0  0
   -5.4359    8.3799    0.0000 C   0  0  0  0  0  0  0  0  0  0  0  0
   -6.7348    9.1302    0.0000 H   0  0  0  0  0  0  0  0  0  0  0  0
   -4.9226    9.7894    0.0000 C   0  0  0  0  0  0  0  0  0  0  0  0
   -3.9581   10.9382    0.0000 H   0  0  0  0  0  0  0  0  0  0  0  0
   -5.8865   10.9386    0.0000 C   0  0  0  0  0  0  0  0  0  0  0  0
   -7.3638   10.6785    0.0000 H   0  0  0  0  0  0  0  0  0  0  0  0
   -6.3992   12.3483    0.0000 H   0  0  0  0  0  0  0  0  0  0  0  0
   -4.5873   11.6883    0.0000 H   0  0  0  0  0  0  0  0  0  0  0  0
   -3.6237    9.0391    0.0000 Cl  0  0  0  0  0  0  0  0  0  0  0  0
   -6.4003    7.2311    0.0000 C   0  0  2  0  0  0  0  0  0  0  0  0
   -5.1015    6.4806    0.0000 H   0  0  0  0  0  0  0  0  0  0  0  0
   -6.9140    5.8217    0.0000 C   0  0  1  0  0  0  0  0  0  0  0  0
   -5.4369    5.5605    0.0000 H   0  0  0  0  0  0  0  0  0  0  0  0
   -8.3922    5.5622    0.0000 C   0  0  1  0  0  0  0  0  0  0  0  0
   -7.8799    4.1524    0.0000 H   0  0  0  0  0  0  0  0  0  0  0  0
   -9.3568    6.7120    0.0000 C   0  0  2  0  0  0  0  0  0  0  0  0
  -10.3212    5.5632    0.0000 H   0  0  0  0  0  0  0  0  0  0  0  0
   -8.8432    8.1214    0.0000 C   0  0  2  0  0  0  0  0  0  0  0  0
  -10.3202    8.3826    0.0000 H   0  0  0  0  0  0  0  0  0  0  0  0
   -7.3649    8.3809    0.0000 O   0  0  0  0  0  0  0  0  0  0  0  0
   -8.8422    9.6214    0.0000 S   0  0  0  0  0  0  0  0  0  0  0  0
  -10.1407   10.3722    0.0000 C   0  0  0  0  0  0  0  0  0  0  0  0
  -11.4403    9.6230    0.0000 H   0  0  0  0  0  0  0  0  0  0  0  0
  -11.1042   11.5219    0.0000 H   0  0  0  0  0  0  0  0  0  0  0  0
   -9.1758   11.5206    0.0000 H   0  0  0  0  0  0  0  0  0  0  0  0
  -10.6556    7.4625    0.0000 O   0  0  0  0  0  0  0  0  0  0  0  0
  -11.9549    6.7129    0.0000 H   0  0  0  0  0  0  0  0  0  0  0  0
   -9.6915    4.8126    0.0000 O   0  0  0  0  0  0  0  0  0  0  0  0
   -9.6920    3.3126    0.0000 H   0  0  0  0  0  0  0  0  0  0  0  0
   -6.9149    4.3217    0.0000 O   0  0  0  0  0  0  0  0  0  0  0  0
   -5.6164    3.5709    0.0000 H   0  0  0  0  0  0  0  0  0  0  0  0
   -2.0095    4.9558    0.0000 N   0  0  0  0  0  0  0  0  0  0  0  0
   -3.4868    4.6957    0.0000 H   0  0  0  0  0  0  0  0  0  0  0  0
   -1.0456    3.8065    0.0000 C   0  0  0  0  0  0  0  0  0  0  0  0
    0.4317    4.0667    0.0000 H   0  0  0  0  0  0  0  0  0  0  0  0
   -2.3448    3.0568    0.0000 H   0  0  0  0  0  0  0  0  0  0  0  0
   -0.5328    2.3969    0.0000 H   0  0  0  0  0  0  0  0  0  0  0  0
    1.3579    6.9468    0.0000 C   0  0  0  0  0  0  0  0  0  0  0  0
    2.3219    5.7975    0.0000 H   0  0  0  0  0  0  0  0  0  0  0  0
   -0.1193    6.6866    0.0000 O   0  0  0  0  0  0  0  0  0  0  0  0
  1  2  1  0  0  0  0 
  1  3  1  0  0  0  0 
  1  4  1  0  0  0  0 
  1  5  1  0  0  0  0 
  5  6  1  0  0  0  0 
  5  7  1  0  0  0  0 
  5  8  1  0  0  0  0 
  8  9  1  0  0  0  0 
  8 10  1  0  0  0  0 
  8 11  1  0  0  0  0 
 11 12  1  6  0  0  0 
 11 13  1  0  0  0  0 
 13 14  1  0  0  0  0 
 13 15  1  0  0  0  0 
 13 16  1  0  0  0  0 
 16 17  1  1  0  0  0 
 16 18  1  0  0  0  0 
 18 19  2  0  0  0  0 
 18 20  1  0  0  0  0 
 20 21  1  0  0  0  0 
 20 22  1  0  0  0  0 
 22 23  1  0  0  0  0 
 22 24  1  0  0  0  0 
 24 25  1  0  0  0  0 
 24 26  1  0  0  0  0 
 26 27  1  0  0  0  0 
 26 28  1  0  0  0  0 
 26 29  1  0  0  0  0 
 24 30  1  0  0  0  0 
 31 22  1  6  0  0  0 
 31 32  1  1  0  0  0 
 31 33  1  0  0  0  0 
 33 34  1  1  0  0  0 
 33 35  1  0  0  0  0 
 35 36  1  1  0  0  0 
 35 37  1  0  0  0  0 
 37 38  1  6  0  0  0 
 37 39  1  0  0  0  0 
 39 40  1  6  0  0  0 
 39 41  1  0  0  0  0 
 31 41  1  0  0  0  0 
 39 42  1  1  0  0  0 
 42 43  1  0  0  0  0 
 43 44  1  0  0  0  0 
 43 45  1  0  0  0  0 
 43 46  1  0  0  0  0 
 37 47  1  1  0  0  0 
 47 48  1  0  0  0  0 
 35 49  1  6  0  0  0 
 49 50  1  0  0  0  0 
 33 51  1  6  0  0  0 
 51 52  1  0  0  0  0 
 16 53  1  6  0  0  0 
 53 54  1  0  0  0  0 
 53 55  1  0  0  0  0 
 55 56  1  0  0  0  0 
 55 57  1  0  0  0  0 
 55 58  1  0  0  0  0 
 11 59  1  1  0  0  0 
 59 60  1  0  0  0  0 
 59 61  2  0  0  0  0 
M  END
> <Rank>
9

> <Priority_score>
0.096

> <Reaction_type>
N-dealkylation

> <Parent_ID>
21

> <Parent_InChI>
InChI=1S/C18H33ClN2O5S/c1-5-6-10-7-11(21(3)8-10)17(25)20-12(9(2)19)16-14(23)13(22)15(24)18(26-16)27-4/h9-16,18,22-24H,5-8H2,1-4H3,(H,20,25)

> <Parent_SMILES>
CCC[C@@H]1C[C@@H](C(=O)NC(C(C)Cl)[C@H]2O[C@H](SC)[C@H](O)[C@@H](O)[C@H]2O)N(C)C1

$$$$
Molecule 21_metabolite 14
  CDK     0516241031

 34 34  0  0  0  0  0  0  0  0999 V2000
    5.1793   -4.0045    0.0000 C   0  0  0  0  0  0  0  0  0  0  0  0
    6.6564   -4.2653    0.0000 H   0  0  0  0  0  0  0  0  0  0  0  0
    3.7020   -4.2647    0.0000 H   0  0  0  0  0  0  0  0  0  0  0  0
    5.1788   -5.9845    0.0000 H   0  0  0  0  0  0  0  0  0  0  0  0
    4.5025   -2.1438    0.0000 C   0  0  0  0  0  0  0  0  0  0  0  0
    5.9797   -1.8837    0.0000 H   0  0  0  0  0  0  0  0  0  0  0  0
    2.5526   -1.7996    0.0000 C   0  0  0  0  0  0  0  0  0  0  0  0
    1.0753   -2.0597    0.0000 H   0  0  0  0  0  0  0  0  0  0  0  0
    1.8758    0.0612    0.0000 C   0  0  2  0  0  0  0  0  0  0  0  0
    3.3531    0.3215    0.0000 H   0  0  0  0  0  0  0  0  0  0  0  0
    1.8758    1.5612    0.0000 C   0  0  1  0  0  0  0  0  0  0  0  0
    3.3531    1.3009    0.0000 H   0  0  0  0  0  0  0  0  0  0  0  0
    0.5758    2.3112    0.0000 C   0  0  1  0  0  0  0  0  0  0  0  0
    1.5399    3.4603    0.0000 H   0  0  0  0  0  0  0  0  0  0  0  0
   -0.7242    1.5612    0.0000 C   0  0  2  0  0  0  0  0  0  0  0  0
   -1.2369    2.9708    0.0000 H   0  0  0  0  0  0  0  0  0  0  0  0
   -0.7242    0.0612    0.0000 C   0  0  2  0  0  0  0  0  0  0  0  0
   -2.2014    0.3215    0.0000 H   0  0  0  0  0  0  0  0  0  0  0  0
    0.5758   -0.6888    0.0000 O   0  0  0  0  0  0  0  0  0  0  0  0
   -1.2369   -1.3485    0.0000 S   0  0  0  0  0  0  0  0  0  0  0  0
   -2.7141   -1.6093    0.0000 C   0  0  0  0  0  0  0  0  0  0  0  0
   -3.6785   -0.4604    0.0000 H   0  0  0  0  0  0  0  0  0  0  0  0
   -2.2007   -3.0187    0.0000 H   0  0  0  0  0  0  0  0  0  0  0  0
   -4.0129   -2.3595    0.0000 H   0  0  0  0  0  0  0  0  0  0  0  0
   -2.2014    1.3009    0.0000 O   0  0  0  0  0  0  0  0  0  0  0  0
   -3.1655    2.4500    0.0000 H   0  0  0  0  0  0  0  0  0  0  0  0
   -0.3882    3.4603    0.0000 O   0  0  0  0  0  0  0  0  0  0  0  0
    0.1249    4.8698    0.0000 H   0  0  0  0  0  0  0  0  0  0  0  0
    2.3885    2.9708    0.0000 O   0  0  0  0  0  0  0  0  0  0  0  0
    3.8657    3.2316    0.0000 H   0  0  0  0  0  0  0  0  0  0  0  0
    2.5523   -3.2996    0.0000 N   0  0  0  0  0  0  0  0  0  0  0  0
    4.4416   -5.5521    0.0000 H   0  0  0  0  0  0  0  0  0  0  0  0
    1.2531   -4.0493    0.0000 H   0  0  0  0  0  0  0  0  0  0  0  0
    4.5028   -0.6438    0.0000 Cl  0  0  0  0  0  0  0  0  0  0  0  0
  1  2  1  0  0  0  0 
  1  3  1  0  0  0  0 
  1  4  1  0  0  0  0 
  1  5  1  0  0  0  0 
  5  6  1  0  0  0  0 
  5  7  1  0  0  0  0 
  7  8  1  0  0  0  0 
  9  7  1  1  0  0  0 
  9 10  1  6  0  0  0 
  9 11  1  0  0  0  0 
 11 12  1  6  0  0  0 
 11 13  1  0  0  0  0 
 13 14  1  6  0  0  0 
 13 15  1  0  0  0  0 
 15 16  1  1  0  0  0 
 15 17  1  0  0  0  0 
 17 18  1  1  0  0  0 
 17 19  1  0  0  0  0 
  9 19  1  0  0  0  0 
 17 20  1  6  0  0  0 
 20 21  1  0  0  0  0 
 21 22  1  0  0  0  0 
 21 23  1  0  0  0  0 
 21 24  1  0  0  0  0 
 15 25  1  6  0  0  0 
 25 26  1  0  0  0  0 
 13 27  1  1  0  0  0 
 27 28  1  0  0  0  0 
 11 29  1  1  0  0  0 
 29 30  1  0  0  0  0 
  7 31  1  0  0  0  0 
 31 32  1  0  0  0  0 
 31 33  1  0  0  0  0 
  5 34  1  0  0  0  0 
M  END
> <Rank>
14

> <Priority_score>
0.092

> <Reaction_type>
hydrolysis_(secondary_amide)

> <Parent_ID>
21

> <Parent_InChI>
InChI=1S/C18H33ClN2O5S/c1-5-6-10-7-11(21(3)8-10)17(25)20-12(9(2)19)16-14(23)13(22)15(24)18(26-16)27-4/h9-16,18,22-24H,5-8H2,1-4H3,(H,20,25)

> <Parent_SMILES>
CCC[C@@H]1C[C@@H](C(=O)NC(C(C)Cl)[C@H]2O[C@H](SC)[C@H](O)[C@@H](O)[C@H]2O)N(C)C1

$$$$
Molecule 21_metabolite 15
  CDK     0516241031

 61 62  0  0  0  0  0  0  0  0999 V2000
  -12.4846    0.7966    0.0000 C   0  0  0  0  0  0  0  0  0  0  0  0
  -12.2806   -0.6894    0.0000 H   0  0  0  0  0  0  0  0  0  0  0  0
  -13.1845    2.1233    0.0000 H   0  0  0  0  0  0  0  0  0  0  0  0
  -13.9127    0.3377    0.0000 H   0  0  0  0  0  0  0  0  0  0  0  0
  -11.2996    1.7163    0.0000 C   0  0  0  0  0  0  0  0  0  0  0  0
  -12.4110    2.7236    0.0000 H   0  0  0  0  0  0  0  0  0  0  0  0
  -10.5006    2.9858    0.0000 H   0  0  0  0  0  0  0  0  0  0  0  0
   -9.9106    1.1499    0.0000 C   0  0  0  0  0  0  0  0  0  0  0  0
   -8.4435   -0.1798    0.0000 H   0  0  0  0  0  0  0  0  0  0  0  0
  -10.7096   -0.1196    0.0000 H   0  0  0  0  0  0  0  0  0  0  0  0
   -8.3464    2.3638    0.0000 C   0  0  2  0  0  0  0  0  0  0  0  0
   -9.3846    3.4465    0.0000 H   0  0  0  0  0  0  0  0  0  0  0  0
   -7.3779    3.5092    0.0000 C   0  0  0  0  0  0  0  0  0  0  0  0
   -8.6180    4.3531    0.0000 H   0  0  0  0  0  0  0  0  0  0  0  0
   -6.6678    4.8305    0.0000 H   0  0  0  0  0  0  0  0  0  0  0  0
   -5.9966    2.9435    0.0000 C   0  0  1  0  0  0  0  0  0  0  0  0
   -5.5795    4.3844    0.0000 H   0  0  0  0  0  0  0  0  0  0  0  0
   -4.0467    2.5993    0.0000 C   0  0  0  0  0  0  0  0  0  0  0  0
   -3.5340    1.1896    0.0000 O   0  0  0  0  0  0  0  0  0  0  0  0
   -3.0823    3.7482    0.0000 N   0  0  0  0  0  0  0  0  0  0  0  0
   -1.1324    3.4039    0.0000 C   0  0  0  0  0  0  0  0  0  0  0  0
    0.3448    3.6641    0.0000 H   0  0  0  0  0  0  0  0  0  0  0  0
   -1.1321    4.9039    0.0000 C   0  0  0  0  0  0  0  0  0  0  0  0
   -1.6448    6.3136    0.0000 H   0  0  0  0  0  0  0  0  0  0  0  0
    0.1671    5.6536    0.0000 C   0  0  0  0  0  0  0  0  0  0  0  0
    1.4660    4.9034    0.0000 H   0  0  0  0  0  0  0  0  0  0  0  0
    1.1315    6.8025    0.0000 H   0  0  0  0  0  0  0  0  0  0  0  0
   -0.7969    6.8029    0.0000 H   0  0  0  0  0  0  0  0  0  0  0  0
   -2.6094    4.6438    0.0000 Cl  0  0  0  0  0  0  0  0  0  0  0  0
   -0.6197    1.9943    0.0000 C   0  0  2  0  0  0  0  0  0  0  0  0
   -2.0969    1.7339    0.0000 H   0  0  0  0  0  0  0  0  0  0  0  0
   -0.6197    0.4943    0.0000 C   0  0  1  0  0  0  0  0  0  0  0  0
   -2.0969    0.7546    0.0000 H   0  0  0  0  0  0  0  0  0  0  0  0
    0.6803   -0.2557    0.0000 C   0  0  1  0  0  0  0  0  0  0  0  0
   -0.2838   -1.4049    0.0000 H   0  0  0  0  0  0  0  0  0  0  0  0
    1.9803    0.4943    0.0000 C   0  0  2  0  0  0  0  0  0  0  0  0
    2.4930   -0.9154    0.0000 H   0  0  0  0  0  0  0  0  0  0  0  0
    1.9803    1.9943    0.0000 C   0  0  2  0  0  0  0  0  0  0  0  0
    3.4575    1.7339    0.0000 H   0  0  0  0  0  0  0  0  0  0  0  0
    0.6803    2.7443    0.0000 O   0  0  0  0  0  0  0  0  0  0  0  0
    2.4930    3.4039    0.0000 S   0  0  0  0  0  0  0  0  0  0  0  0
    3.9702    3.6647    0.0000 C   0  0  0  0  0  0  0  0  0  0  0  0
    4.9346    2.5158    0.0000 H   0  0  0  0  0  0  0  0  0  0  0  0
    5.2691    4.4150    0.0000 H   0  0  0  0  0  0  0  0  0  0  0  0
    3.4568    5.0741    0.0000 H   0  0  0  0  0  0  0  0  0  0  0  0
    3.4575    0.7546    0.0000 O   0  0  0  0  0  0  0  0  0  0  0  0
    4.4216   -0.3946    0.0000 H   0  0  0  0  0  0  0  0  0  0  0  0
    1.6444   -1.4049    0.0000 O   0  0  0  0  0  0  0  0  0  0  0  0
    1.1312   -2.8144    0.0000 H   0  0  0  0  0  0  0  0  0  0  0  0
   -1.2965   -1.3665    0.0000 O   0  0  0  0  0  0  0  0  0  0  0  0
   -0.3321   -2.5153    0.0000 H   0  0  0  0  0  0  0  0  0  0  0  0
   -3.5950    5.1578    0.0000 O   0  0  0  0  0  0  0  0  0  0  0  0
   -5.0722    5.4186    0.0000 H   0  0  0  0  0  0  0  0  0  0  0  0
   -6.0983    1.4449    0.0000 N   0  0  0  0  0  0  0  0  0  0  0  0
   -4.9529    0.4763    0.0000 C   0  0  0  0  0  0  0  0  0  0  0  0
   -5.2190   -0.9999    0.0000 H   0  0  0  0  0  0  0  0  0  0  0  0
   -4.1979    1.7725    0.0000 H   0  0  0  0  0  0  0  0  0  0  0  0
   -3.5453   -0.0421    0.0000 H   0  0  0  0  0  0  0  0  0  0  0  0
   -7.5592    1.0957    0.0000 C   0  0  0  0  0  0  0  0  0  0  0  0
   -7.0567   -0.3176    0.0000 H   0  0  0  0  0  0  0  0  0  0  0  0
   -8.9108    0.4451    0.0000 H   0  0  0  0  0  0  0  0  0  0  0  0
  1  2  1  0  0  0  0 
  1  3  1  0  0  0  0 
  1  4  1  0  0  0  0 
  1  5  1  0  0  0  0 
  5  6  1  0  0  0  0 
  5  7  1  0  0  0  0 
  5  8  1  0  0  0  0 
  8  9  1  0  0  0  0 
  8 10  1  0  0  0  0 
 11  8  1  6  0  0  0 
 11 12  1  1  0  0  0 
 11 13  1  0  0  0  0 
 13 14  1  0  0  0  0 
 13 15  1  0  0  0  0 
 13 16  1  0  0  0  0 
 16 17  1  6  0  0  0 
 16 18  1  1  0  0  0 
 18 19  2  0  0  0  0 
 18 20  1  0  0  0  0 
 20 21  1  0  0  0  0 
 21 22  1  0  0  0  0 
 21 23  1  0  0  0  0 
 23 24  1  0  0  0  0 
 23 25  1  0  0  0  0 
 25 26  1  0  0  0  0 
 25 27  1  0  0  0  0 
 25 28  1  0  0  0  0 
 23 29  1  0  0  0  0 
 30 21  1  1  0  0  0 
 30 31  1  6  0  0  0 
 30 32  1  0  0  0  0 
 32 33  1  6  0  0  0 
 32 34  1  0  0  0  0 
 34 35  1  6  0  0  0 
 34 36  1  0  0  0  0 
 36 37  1  1  0  0  0 
 36 38  1  0  0  0  0 
 38 39  1  1  0  0  0 
 38 40  1  0  0  0  0 
 30 40  1  0  0  0  0 
 38 41  1  6  0  0  0 
 41 42  1  0  0  0  0 
 42 43  1  0  0  0  0 
 42 44  1  0  0  0  0 
 42 45  1  0  0  0  0 
 36 46  1  6  0  0  0 
 46 47  1  0  0  0  0 
 34 48  1  1  0  0  0 
 48 49  1  0  0  0  0 
 32 50  1  1  0  0  0 
 50 51  1  0  0  0  0 
 20 52  1  0  0  0  0 
 52 53  1  0  0  0  0 
 16 54  1  0  0  0  0 
 54 55  1  0  0  0  0 
 55 56  1  0  0  0  0 
 55 57  1  0  0  0  0 
 55 58  1  0  0  0  0 
 54 59  1  0  0  0  0 
 11 59  1  0  0  0  0 
 59 60  1  0  0  0  0 
 59 61  1  0  0  0  0 
M  END
> <Rank>
14

> <Priority_score>
0.092

> <Reaction_type>
amine hydroxylation

> <Parent_ID>
21

> <Parent_InChI>
InChI=1S/C18H33ClN2O5S/c1-5-6-10-7-11(21(3)8-10)17(25)20-12(9(2)19)16-14(23)13(22)15(24)18(26-16)27-4/h9-16,18,22-24H,5-8H2,1-4H3,(H,20,25)

> <Parent_SMILES>
CCC[C@@H]1C[C@@H](C(=O)NC(C(C)Cl)[C@H]2O[C@H](SC)[C@H](O)[C@@H](O)[C@H]2O)N(C)C1

$$$$
Molecule 21_metabolite 16
  CDK     0516241031

 29 29  0  0  0  0  0  0  0  0999 V2000
   -2.8782    4.5927    0.0000 C   0  0  0  0  0  0  0  0  0  0  0  0
   -1.7629    5.5957    0.0000 H   0  0  0  0  0  0  0  0  0  0  0  0
   -4.2693    4.0316    0.0000 H   0  0  0  0  0  0  0  0  0  0  0  0
   -3.6723    5.8652    0.0000 H   0  0  0  0  0  0  0  0  0  0  0  0
   -2.5672    3.1253    0.0000 C   0  0  0  0  0  0  0  0  0  0  0  0
   -4.0663    3.0738    0.0000 H   0  0  0  0  0  0  0  0  0  0  0  0
   -2.7768    1.6400    0.0000 H   0  0  0  0  0  0  0  0  0  0  0  0
   -1.1409    2.6609    0.0000 C   0  0  0  0  0  0  0  0  0  0  0  0
    0.8379    2.7289    0.0000 H   0  0  0  0  0  0  0  0  0  0  0  0
   -0.9313    4.1462    0.0000 H   0  0  0  0  0  0  0  0  0  0  0  0
   -0.7304    0.7239    0.0000 C   0  0  2  0  0  0  0  0  0  0  0  0
   -2.2222    0.5676    0.0000 H   0  0  0  0  0  0  0  0  0  0  0  0
   -0.7304   -0.7761    0.0000 C   0  0  0  0  0  0  0  0  0  0  0  0
   -2.2222   -0.6197    0.0000 H   0  0  0  0  0  0  0  0  0  0  0  0
   -1.0414   -2.2435    0.0000 H   0  0  0  0  0  0  0  0  0  0  0  0
    0.6896   -1.2361    0.0000 C   0  0  1  0  0  0  0  0  0  0  0  0
    0.0776   -2.6055    0.0000 H   0  0  0  0  0  0  0  0  0  0  0  0
    1.9859   -1.9907    0.0000 C   0  0  0  0  0  0  0  0  0  0  0  0
    3.2877   -1.2454    0.0000 O   0  0  0  0  0  0  0  0  0  0  0  0
    1.9805   -3.4907    0.0000 O   0  0  0  0  0  0  0  0  0  0  0  0
    3.2768   -4.2454    0.0000 H   0  0  0  0  0  0  0  0  0  0  0  0
    1.5796   -0.0261    0.0000 N   0  0  0  0  0  0  0  0  0  0  0  0
    3.5596   -0.0261    0.0000 C   0  0  0  0  0  0  0  0  0  0  0  0
    4.3096   -1.3251    0.0000 H   0  0  0  0  0  0  0  0  0  0  0  0
    4.9692    0.4870    0.0000 H   0  0  0  0  0  0  0  0  0  0  0  0
    3.2992    1.4512    0.0000 H   0  0  0  0  0  0  0  0  0  0  0  0
    0.6896    1.1839    0.0000 C   0  0  0  0  0  0  0  0  0  0  0  0
    1.9859    1.9386    0.0000 H   0  0  0  0  0  0  0  0  0  0  0  0
    0.0776    2.5534    0.0000 H   0  0  0  0  0  0  0  0  0  0  0  0
  1  2  1  0  0  0  0 
  1  3  1  0  0  0  0 
  1  4  1  0  0  0  0 
  1  5  1  0  0  0  0 
  5  6  1  0  0  0  0 
  5  7  1  0  0  0  0 
  5  8  1  0  0  0  0 
  8  9  1  0  0  0  0 
  8 10  1  0  0  0  0 
 11  8  1  1  0  0  0 
 11 12  1  6  0  0  0 
 11 13  1  0  0  0  0 
 13 14  1  0  0  0  0 
 13 15  1  0  0  0  0 
 13 16  1  0  0  0  0 
 16 17  1  1  0  0  0 
 16 18  1  6  0  0  0 
 18 19  2  0  0  0  0 
 18 20  1  0  0  0  0 
 20 21  1  0  0  0  0 
 16 22  1  0  0  0  0 
 22 23  1  0  0  0  0 
 23 24  1  0  0  0  0 
 23 25  1  0  0  0  0 
 23 26  1  0  0  0  0 
 22 27  1  0  0  0  0 
 11 27  1  0  0  0  0 
 27 28  1  0  0  0  0 
 27 29  1  0  0  0  0 
M  END
> <Rank>
14

> <Priority_score>
0.092

> <Reaction_type>
hydrolysis_(secondary_amide)

> <Parent_ID>
21

> <Parent_InChI>
InChI=1S/C18H33ClN2O5S/c1-5-6-10-7-11(21(3)8-10)17(25)20-12(9(2)19)16-14(23)13(22)15(24)18(26-16)27-4/h9-16,18,22-24H,5-8H2,1-4H3,(H,20,25)

> <Parent_SMILES>
CCC[C@@H]1C[C@@H](C(=O)NC(C(C)Cl)[C@H]2O[C@H](SC)[C@H](O)[C@@H](O)[C@H]2O)N(C)C1

$$$$
Molecule 21_metabolite 17
  CDK     0516241031

 61 62  0  0  0  0  0  0  0  0999 V2000
  -10.5491    5.9490    0.0000 C   0  0  0  0  0  0  0  0  0  0  0  0
  -10.1342    7.3905    0.0000 H   0  0  0  0  0  0  0  0  0  0  0  0
  -11.8966    6.6079    0.0000 H   0  0  0  0  0  0  0  0  0  0  0  0
  -11.4319    4.7364    0.0000 H   0  0  0  0  0  0  0  0  0  0  0  0
   -9.5081    4.8690    0.0000 C   0  0  0  0  0  0  0  0  0  0  0  0
   -8.8994    3.4981    0.0000 H   0  0  0  0  0  0  0  0  0  0  0  0
  -10.7525    4.0314    0.0000 H   0  0  0  0  0  0  0  0  0  0  0  0
   -7.5865    5.3461    0.0000 C   0  0  0  0  0  0  0  0  0  0  0  0
   -8.1952    6.7170    0.0000 H   0  0  0  0  0  0  0  0  0  0  0  0
   -6.3421    6.1836    0.0000 H   0  0  0  0  0  0  0  0  0  0  0  0
   -6.2125    3.9204    0.0000 C   0  0  2  0  0  0  0  0  0  0  0  0
   -5.2468    5.0683    0.0000 H   0  0  0  0  0  0  0  0  0  0  0  0
   -4.9702    3.0797    0.0000 C   0  0  0  0  0  0  0  0  0  0  0  0
   -4.2636    4.4028    0.0000 H   0  0  0  0  0  0  0  0  0  0  0  0
   -3.5807    2.5147    0.0000 H   0  0  0  0  0  0  0  0  0  0  0  0
   -5.3852    1.6459    0.0000 C   0  0  1  0  0  0  0  0  0  0  0  0
   -3.4354    1.3016    0.0000 C   0  0  0  0  0  0  0  0  0  0  0  0
   -2.9226   -0.1080    0.0000 O   0  0  0  0  0  0  0  0  0  0  0  0
   -2.4709    2.4505    0.0000 N   0  0  0  0  0  0  0  0  0  0  0  0
   -2.9837    3.8601    0.0000 H   0  0  0  0  0  0  0  0  0  0  0  0
   -0.5211    2.1062    0.0000 C   0  0  0  0  0  0  0  0  0  0  0  0
    0.9562    2.3664    0.0000 H   0  0  0  0  0  0  0  0  0  0  0  0
   -0.5208    3.6062    0.0000 C   0  0  0  0  0  0  0  0  0  0  0  0
   -1.0335    5.0159    0.0000 H   0  0  0  0  0  0  0  0  0  0  0  0
    0.7784    4.3560    0.0000 C   0  0  0  0  0  0  0  0  0  0  0  0
    2.0773    3.6057    0.0000 H   0  0  0  0  0  0  0  0  0  0  0  0
   -0.1855    5.5052    0.0000 H   0  0  0  0  0  0  0  0  0  0  0  0
    1.7429    5.5048    0.0000 H   0  0  0  0  0  0  0  0  0  0  0  0
   -1.9980    3.3461    0.0000 Cl  0  0  0  0  0  0  0  0  0  0  0  0
   -0.0084    0.6966    0.0000 C   0  0  2  0  0  0  0  0  0  0  0  0
   -1.4856    0.4363    0.0000 H   0  0  0  0  0  0  0  0  0  0  0  0
   -0.0084   -0.8034    0.0000 C   0  0  1  0  0  0  0  0  0  0  0  0
   -1.4856   -0.5431    0.0000 H   0  0  0  0  0  0  0  0  0  0  0  0
    1.2916   -1.5534    0.0000 C   0  0  1  0  0  0  0  0  0  0  0  0
    0.3276   -2.7026    0.0000 H   0  0  0  0  0  0  0  0  0  0  0  0
    2.5916   -0.8034    0.0000 C   0  0  2  0  0  0  0  0  0  0  0  0
    3.1044   -2.2131    0.0000 H   0  0  0  0  0  0  0  0  0  0  0  0
    2.5916    0.6966    0.0000 C   0  0  2  0  0  0  0  0  0  0  0  0
    4.0689    0.4363    0.0000 H   0  0  0  0  0  0  0  0  0  0  0  0
    1.2916    1.4466    0.0000 O   0  0  0  0  0  0  0  0  0  0  0  0
    3.1044    2.1062    0.0000 S   0  0  0  0  0  0  0  0  0  0  0  0
    4.5815    2.3670    0.0000 C   0  0  0  0  0  0  0  0  0  0  0  0
    5.5460    1.2182    0.0000 H   0  0  0  0  0  0  0  0  0  0  0  0
    5.8804    3.1173    0.0000 H   0  0  0  0  0  0  0  0  0  0  0  0
    4.0682    3.7765    0.0000 H   0  0  0  0  0  0  0  0  0  0  0  0
    4.0689   -0.5431    0.0000 O   0  0  0  0  0  0  0  0  0  0  0  0
    5.0329   -1.6923    0.0000 H   0  0  0  0  0  0  0  0  0  0  0  0
    2.2557   -2.7026    0.0000 O   0  0  0  0  0  0  0  0  0  0  0  0
    1.7425   -4.1121    0.0000 H   0  0  0  0  0  0  0  0  0  0  0  0
   -0.5211   -2.2131    0.0000 O   0  0  0  0  0  0  0  0  0  0  0  0
   -1.9982   -2.4738    0.0000 H   0  0  0  0  0  0  0  0  0  0  0  0
   -6.8861    1.5870    0.0000 N   0  0  0  0  0  0  0  0  0  0  0  0
   -7.7269    0.3448    0.0000 C   0  0  0  0  0  0  0  0  0  0  0  0
   -9.2231    0.4518    0.0000 H   0  0  0  0  0  0  0  0  0  0  0  0
   -6.3575   -0.2675    0.0000 H   0  0  0  0  0  0  0  0  0  0  0  0
   -8.0921   -1.1101    0.0000 H   0  0  0  0  0  0  0  0  0  0  0  0
   -7.3893    3.0023    0.0000 C   0  0  0  0  0  0  0  0  0  0  0  0
   -8.7409    2.3517    0.0000 H   0  0  0  0  0  0  0  0  0  0  0  0
   -8.1805    4.2767    0.0000 H   0  0  0  0  0  0  0  0  0  0  0  0
   -5.4868    0.1493    0.0000 O   0  0  0  0  0  0  0  0  0  0  0  0
   -4.2415   -0.6869    0.0000 H   0  0  0  0  0  0  0  0  0  0  0  0
  1  2  1  0  0  0  0 
  1  3  1  0  0  0  0 
  1  4  1  0  0  0  0 
  1  5  1  0  0  0  0 
  5  6  1  0  0  0  0 
  5  7  1  0  0  0  0 
  5  8  1  0  0  0  0 
  8  9  1  0  0  0  0 
  8 10  1  0  0  0  0 
 11  8  1  6  0  0  0 
 11 12  1  1  0  0  0 
 11 13  1  0  0  0  0 
 13 14  1  0  0  0  0 
 13 15  1  0  0  0  0 
 13 16  1  0  0  0  0 
 16 17  1  1  0  0  0 
 17 18  2  0  0  0  0 
 17 19  1  0  0  0  0 
 19 20  1  0  0  0  0 
 19 21  1  0  0  0  0 
 21 22  1  0  0  0  0 
 21 23  1  0  0  0  0 
 23 24  1  0  0  0  0 
 23 25  1  0  0  0  0 
 25 26  1  0  0  0  0 
 25 27  1  0  0  0  0 
 25 28  1  0  0  0  0 
 23 29  1  0  0  0  0 
 30 21  1  1  0  0  0 
 30 31  1  6  0  0  0 
 30 32  1  0  0  0  0 
 32 33  1  6  0  0  0 
 32 34  1  0  0  0  0 
 34 35  1  6  0  0  0 
 34 36  1  0  0  0  0 
 36 37  1  1  0  0  0 
 36 38  1  0  0  0  0 
 38 39  1  1  0  0  0 
 38 40  1  0  0  0  0 
 30 40  1  0  0  0  0 
 38 41  1  6  0  0  0 
 41 42  1  0  0  0  0 
 42 43  1  0  0  0  0 
 42 44  1  0  0  0  0 
 42 45  1  0  0  0  0 
 36 46  1  6  0  0  0 
 46 47  1  0  0  0  0 
 34 48  1  1  0  0  0 
 48 49  1  0  0  0  0 
 32 50  1  1  0  0  0 
 50 51  1  0  0  0  0 
 16 52  1  0  0  0  0 
 52 53  1  0  0  0  0 
 53 54  1  0  0  0  0 
 53 55  1  0  0  0  0 
 53 56  1  0  0  0  0 
 52 57  1  0  0  0  0 
 11 57  1  0  0  0  0 
 57 58  1  0  0  0  0 
 57 59  1  0  0  0  0 
 16 60  1  6  0  0  0 
 60 61  1  0  0  0  0 
M  END
> <Rank>
14

> <Priority_score>
0.092

> <Reaction_type>
aliphatic_hydroxylation_(tert_carbon_next_to_SP2)

> <Parent_ID>
21

> <Parent_InChI>
InChI=1S/C18H33ClN2O5S/c1-5-6-10-7-11(21(3)8-10)17(25)20-12(9(2)19)16-14(23)13(22)15(24)18(26-16)27-4/h9-16,18,22-24H,5-8H2,1-4H3,(H,20,25)

> <Parent_SMILES>
CCC[C@@H]1C[C@@H](C(=O)NC(C(C)Cl)[C@H]2O[C@H](SC)[C@H](O)[C@@H](O)[C@H]2O)N(C)C1

$$$$
Molecule 21_metabolite 18
  CDK     0516241031

 58 59  0  0  0  0  0  0  0  0999 V2000
  -12.4846    0.7966    0.0000 C   0  0  0  0  0  0  0  0  0  0  0  0
  -12.2806   -0.6894    0.0000 H   0  0  0  0  0  0  0  0  0  0  0  0
  -13.1845    2.1233    0.0000 H   0  0  0  0  0  0  0  0  0  0  0  0
  -13.9127    0.3377    0.0000 H   0  0  0  0  0  0  0  0  0  0  0  0
  -11.2996    1.7163    0.0000 C   0  0  0  0  0  0  0  0  0  0  0  0
  -12.4110    2.7236    0.0000 H   0  0  0  0  0  0  0  0  0  0  0  0
  -10.5006    2.9858    0.0000 H   0  0  0  0  0  0  0  0  0  0  0  0
   -9.9106    1.1499    0.0000 C   0  0  0  0  0  0  0  0  0  0  0  0
   -8.4435   -0.1798    0.0000 H   0  0  0  0  0  0  0  0  0  0  0  0
  -10.7096   -0.1196    0.0000 H   0  0  0  0  0  0  0  0  0  0  0  0
   -8.3464    2.3638    0.0000 C   0  0  2  0  0  0  0  0  0  0  0  0
   -9.3846    3.4465    0.0000 H   0  0  0  0  0  0  0  0  0  0  0  0
   -7.3779    3.5092    0.0000 C   0  0  0  0  0  0  0  0  0  0  0  0
   -8.6180    4.3531    0.0000 H   0  0  0  0  0  0  0  0  0  0  0  0
   -6.6678    4.8305    0.0000 H   0  0  0  0  0  0  0  0  0  0  0  0
   -5.9966    2.9435    0.0000 C   0  0  1  0  0  0  0  0  0  0  0  0
   -5.5795    4.3844    0.0000 H   0  0  0  0  0  0  0  0  0  0  0  0
   -4.0467    2.5993    0.0000 C   0  0  0  0  0  0  0  0  0  0  0  0
   -3.5340    1.1896    0.0000 O   0  0  0  0  0  0  0  0  0  0  0  0
   -3.0823    3.7482    0.0000 N   0  0  0  0  0  0  0  0  0  0  0  0
   -3.5950    5.1578    0.0000 H   0  0  0  0  0  0  0  0  0  0  0  0
   -1.1324    3.4039    0.0000 C   0  0  0  0  0  0  0  0  0  0  0  0
    0.3448    3.6641    0.0000 H   0  0  0  0  0  0  0  0  0  0  0  0
   -1.1321    4.9039    0.0000 C   0  0  0  0  0  0  0  0  0  0  0  0
   -1.6448    6.3136    0.0000 H   0  0  0  0  0  0  0  0  0  0  0  0
    0.1671    5.6536    0.0000 C   0  0  0  0  0  0  0  0  0  0  0  0
    1.4660    4.9034    0.0000 H   0  0  0  0  0  0  0  0  0  0  0  0
    1.1315    6.8025    0.0000 H   0  0  0  0  0  0  0  0  0  0  0  0
   -0.7969    6.8029    0.0000 H   0  0  0  0  0  0  0  0  0  0  0  0
   -2.6094    4.6438    0.0000 Cl  0  0  0  0  0  0  0  0  0  0  0  0
   -0.6197    1.9943    0.0000 C   0  0  2  0  0  0  0  0  0  0  0  0
   -2.0969    1.7339    0.0000 H   0  0  0  0  0  0  0  0  0  0  0  0
   -0.6197    0.4943    0.0000 C   0  0  1  0  0  0  0  0  0  0  0  0
   -2.0969    0.7546    0.0000 H   0  0  0  0  0  0  0  0  0  0  0  0
    0.6803   -0.2557    0.0000 C   0  0  1  0  0  0  0  0  0  0  0  0
   -0.2838   -1.4049    0.0000 H   0  0  0  0  0  0  0  0  0  0  0  0
    1.9803    0.4943    0.0000 C   0  0  0  0  0  0  0  0  0  0  0  0
    3.2792   -0.2559    0.0000 O   0  0  0  0  0  0  0  0  0  0  0  0
    1.9803    1.9943    0.0000 C   0  0  2  0  0  0  0  0  0  0  0  0
    3.4575    1.7339    0.0000 H   0  0  0  0  0  0  0  0  0  0  0  0
    0.6803    2.7443    0.0000 O   0  0  0  0  0  0  0  0  0  0  0  0
    2.4930    3.4039    0.0000 S   0  0  0  0  0  0  0  0  0  0  0  0
    3.9702    3.6647    0.0000 C   0  0  0  0  0  0  0  0  0  0  0  0
    4.9346    2.5158    0.0000 H   0  0  0  0  0  0  0  0  0  0  0  0
    5.2691    4.4150    0.0000 H   0  0  0  0  0  0  0  0  0  0  0  0
    3.4568    5.0741    0.0000 H   0  0  0  0  0  0  0  0  0  0  0  0
    1.6444   -1.4049    0.0000 O   0  0  0  0  0  0  0  0  0  0  0  0
    1.1312   -2.8144    0.0000 H   0  0  0  0  0  0  0  0  0  0  0  0
   -1.2965   -1.3665    0.0000 O   0  0  0  0  0  0  0  0  0  0  0  0
   -0.3321   -2.5153    0.0000 H   0  0  0  0  0  0  0  0  0  0  0  0
   -6.0983    1.4449    0.0000 N   0  0  0  0  0  0  0  0  0  0  0  0
   -4.9529    0.4763    0.0000 C   0  0  0  0  0  0  0  0  0  0  0  0
   -5.2190   -0.9999    0.0000 H   0  0  0  0  0  0  0  0  0  0  0  0
   -4.1979    1.7725    0.0000 H   0  0  0  0  0  0  0  0  0  0  0  0
   -3.5453   -0.0421    0.0000 H   0  0  0  0  0  0  0  0  0  0  0  0
   -7.5592    1.0957    0.0000 C   0  0  0  0  0  0  0  0  0  0  0  0
   -7.0567   -0.3176    0.0000 H   0  0  0  0  0  0  0  0  0  0  0  0
   -8.9108    0.4451    0.0000 H   0  0  0  0  0  0  0  0  0  0  0  0
  1  2  1  0  0  0  0 
  1  3  1  0  0  0  0 
  1  4  1  0  0  0  0 
  1  5  1  0  0  0  0 
  5  6  1  0  0  0  0 
  5  7  1  0  0  0  0 
  5  8  1  0  0  0  0 
  8  9  1  0  0  0  0 
  8 10  1  0  0  0  0 
 11  8  1  6  0  0  0 
 11 12  1  1  0  0  0 
 11 13  1  0  0  0  0 
 13 14  1  0  0  0  0 
 13 15  1  0  0  0  0 
 13 16  1  0  0  0  0 
 16 17  1  6  0  0  0 
 16 18  1  1  0  0  0 
 18 19  2  0  0  0  0 
 18 20  1  0  0  0  0 
 20 21  1  0  0  0  0 
 20 22  1  0  0  0  0 
 22 23  1  0  0  0  0 
 22 24  1  0  0  0  0 
 24 25  1  0  0  0  0 
 24 26  1  0  0  0  0 
 26 27  1  0  0  0  0 
 26 28  1  0  0  0  0 
 26 29  1  0  0  0  0 
 24 30  1  0  0  0  0 
 31 22  1  1  0  0  0 
 31 32  1  6  0  0  0 
 31 33  1  0  0  0  0 
 33 34  1  6  0  0  0 
 33 35  1  0  0  0  0 
 35 36  1  6  0  0  0 
 35 37  1  0  0  0  0 
 37 38  2  0  0  0  0 
 37 39  1  0  0  0  0 
 39 40  1  1  0  0  0 
 39 41  1  0  0  0  0 
 31 41  1  0  0  0  0 
 39 42  1  6  0  0  0 
 42 43  1  0  0  0  0 
 43 44  1  0  0  0  0 
 43 45  1  0  0  0  0 
 43 46  1  0  0  0  0 
 35 47  1  1  0  0  0 
 47 48  1  0  0  0  0 
 33 49  1  1  0  0  0 
 49 50  1  0  0  0  0 
 16 51  1  0  0  0  0 
 51 52  1  0  0  0  0 
 52 53  1  0  0  0  0 
 52 54  1  0  0  0  0 
 52 55  1  0  0  0  0 
 51 56  1  0  0  0  0 
 11 56  1  0  0  0  0 
 56 57  1  0  0  0  0 
 56 58  1  0  0  0  0 
M  END
> <Rank>
18

> <Priority_score>
0.088

> <Reaction_type>
alcohol oxidation

> <Parent_ID>
21

> <Parent_InChI>
InChI=1S/C18H33ClN2O5S/c1-5-6-10-7-11(21(3)8-10)17(25)20-12(9(2)19)16-14(23)13(22)15(24)18(26-16)27-4/h9-16,18,22-24H,5-8H2,1-4H3,(H,20,25)

> <Parent_SMILES>
CCC[C@@H]1C[C@@H](C(=O)NC(C(C)Cl)[C@H]2O[C@H](SC)[C@H](O)[C@@H](O)[C@H]2O)N(C)C1

$$$$
Molecule 21_metabolite 19
  CDK     0516241031

 61 62  0  0  0  0  0  0  0  0999 V2000
   -3.8210   -2.9319    0.0000 C   0  0  0  0  0  0  0  0  0  0  0  0
   -3.6170   -4.4180    0.0000 H   0  0  0  0  0  0  0  0  0  0  0  0
   -4.5209   -1.6052    0.0000 H   0  0  0  0  0  0  0  0  0  0  0  0
   -5.2491   -3.3908    0.0000 H   0  0  0  0  0  0  0  0  0  0  0  0
   -2.6360   -2.0122    0.0000 C   0  0  0  0  0  0  0  0  0  0  0  0
   -3.7474   -1.0049    0.0000 H   0  0  0  0  0  0  0  0  0  0  0  0
   -1.8370   -0.7427    0.0000 H   0  0  0  0  0  0  0  0  0  0  0  0
   -1.2470   -2.5786    0.0000 C   0  0  0  0  0  0  0  0  0  0  0  0
    0.2201   -3.9083    0.0000 H   0  0  0  0  0  0  0  0  0  0  0  0
   -2.0460   -3.8481    0.0000 H   0  0  0  0  0  0  0  0  0  0  0  0
    0.3172   -1.3647    0.0000 C   0  0  2  0  0  0  0  0  0  0  0  0
   -0.7210   -0.2820    0.0000 H   0  0  0  0  0  0  0  0  0  0  0  0
    1.2857   -0.2193    0.0000 C   0  0  0  0  0  0  0  0  0  0  0  0
    0.0457    0.6246    0.0000 H   0  0  0  0  0  0  0  0  0  0  0  0
    1.9958    1.1020    0.0000 H   0  0  0  0  0  0  0  0  0  0  0  0
    2.6671   -0.7850    0.0000 C   0  0  1  0  0  0  0  0  0  0  0  0
    3.0841    0.6559    0.0000 H   0  0  0  0  0  0  0  0  0  0  0  0
    4.6169   -1.1292    0.0000 C   0  0  0  0  0  0  0  0  0  0  0  0
    5.1296   -2.5389    0.0000 O   0  0  0  0  0  0  0  0  0  0  0  0
    5.5813    0.0196    0.0000 N   0  0  0  0  0  0  0  0  0  0  0  0
    5.0686    1.4293    0.0000 H   0  0  0  0  0  0  0  0  0  0  0  0
    7.5312   -0.3246    0.0000 C   0  0  0  0  0  0  0  0  0  0  0  0
    9.0084   -0.0644    0.0000 H   0  0  0  0  0  0  0  0  0  0  0  0
    7.5315    1.1754    0.0000 C   0  0  0  0  0  0  0  0  0  0  0  0
    7.0188    2.5850    0.0000 H   0  0  0  0  0  0  0  0  0  0  0  0
    8.8307    1.9251    0.0000 C   0  0  0  0  0  0  0  0  0  0  0  0
   10.1296    1.1748    0.0000 H   0  0  0  0  0  0  0  0  0  0  0  0
    9.7951    3.0740    0.0000 H   0  0  0  0  0  0  0  0  0  0  0  0
    7.8668    3.0744    0.0000 H   0  0  0  0  0  0  0  0  0  0  0  0
    6.0542    0.9152    0.0000 Cl  0  0  0  0  0  0  0  0  0  0  0  0
    8.0439   -1.7343    0.0000 C   0  0  2  0  0  0  0  0  0  0  0  0
    6.5667   -1.9946    0.0000 H   0  0  0  0  0  0  0  0  0  0  0  0
    8.0439   -3.2343    0.0000 C   0  0  1  0  0  0  0  0  0  0  0  0
    6.5667   -2.9739    0.0000 H   0  0  0  0  0  0  0  0  0  0  0  0
    9.3439   -3.9843    0.0000 C   0  0  1  0  0  0  0  0  0  0  0  0
    8.3798   -5.1334    0.0000 H   0  0  0  0  0  0  0  0  0  0  0  0
   10.6439   -3.2343    0.0000 C   0  0  2  0  0  0  0  0  0  0  0  0
   10.6439   -1.7343    0.0000 C   0  0  2  0  0  0  0  0  0  0  0  0
   12.1211   -1.9946    0.0000 H   0  0  0  0  0  0  0  0  0  0  0  0
    9.3439   -0.9843    0.0000 O   0  0  0  0  0  0  0  0  0  0  0  0
   11.1566   -0.3246    0.0000 S   0  0  0  0  0  0  0  0  0  0  0  0
   12.6338   -0.0638    0.0000 C   0  0  0  0  0  0  0  0  0  0  0  0
   13.5982   -1.2127    0.0000 H   0  0  0  0  0  0  0  0  0  0  0  0
   13.9327    0.6865    0.0000 H   0  0  0  0  0  0  0  0  0  0  0  0
   12.1205    1.3456    0.0000 H   0  0  0  0  0  0  0  0  0  0  0  0
   11.1566   -4.6439    0.0000 O   0  0  0  0  0  0  0  0  0  0  0  0
   12.6338   -4.9047    0.0000 H   0  0  0  0  0  0  0  0  0  0  0  0
   12.1211   -2.9739    0.0000 O   0  0  0  0  0  0  0  0  0  0  0  0
   13.0852   -4.1231    0.0000 H   0  0  0  0  0  0  0  0  0  0  0  0
   10.3080   -5.1334    0.0000 O   0  0  0  0  0  0  0  0  0  0  0  0
    9.7948   -6.5429    0.0000 H   0  0  0  0  0  0  0  0  0  0  0  0
    7.3671   -5.0950    0.0000 O   0  0  0  0  0  0  0  0  0  0  0  0
    8.3315   -6.2438    0.0000 H   0  0  0  0  0  0  0  0  0  0  0  0
    2.5653   -2.2836    0.0000 N   0  0  0  0  0  0  0  0  0  0  0  0
    3.7107   -3.2522    0.0000 C   0  0  0  0  0  0  0  0  0  0  0  0
    3.4446   -4.7284    0.0000 H   0  0  0  0  0  0  0  0  0  0  0  0
    4.4657   -1.9560    0.0000 H   0  0  0  0  0  0  0  0  0  0  0  0
    5.1183   -3.7706    0.0000 H   0  0  0  0  0  0  0  0  0  0  0  0
    1.1044   -2.6328    0.0000 C   0  0  0  0  0  0  0  0  0  0  0  0
    1.6070   -4.0462    0.0000 H   0  0  0  0  0  0  0  0  0  0  0  0
   -0.2472   -3.2834    0.0000 H   0  0  0  0  0  0  0  0  0  0  0  0
  1  2  1  0  0  0  0 
  1  3  1  0  0  0  0 
  1  4  1  0  0  0  0 
  1  5  1  0  0  0  0 
  5  6  1  0  0  0  0 
  5  7  1  0  0  0  0 
  5  8  1  0  0  0  0 
  8  9  1  0  0  0  0 
  8 10  1  0  0  0  0 
 11  8  1  6  0  0  0 
 11 12  1  1  0  0  0 
 11 13  1  0  0  0  0 
 13 14  1  0  0  0  0 
 13 15  1  0  0  0  0 
 13 16  1  0  0  0  0 
 16 17  1  6  0  0  0 
 16 18  1  1  0  0  0 
 18 19  2  0  0  0  0 
 18 20  1  0  0  0  0 
 20 21  1  0  0  0  0 
 20 22  1  0  0  0  0 
 22 23  1  0  0  0  0 
 22 24  1  0  0  0  0 
 24 25  1  0  0  0  0 
 24 26  1  0  0  0  0 
 26 27  1  0  0  0  0 
 26 28  1  0  0  0  0 
 26 29  1  0  0  0  0 
 24 30  1  0  0  0  0 
 31 22  1  1  0  0  0 
 31 32  1  6  0  0  0 
 31 33  1  0  0  0  0 
 33 34  1  6  0  0  0 
 33 35  1  0  0  0  0 
 35 36  1  6  0  0  0 
 35 37  1  0  0  0  0 
 37 38  1  0  0  0  0 
 38 39  1  1  0  0  0 
 38 40  1  0  0  0  0 
 31 40  1  0  0  0  0 
 38 41  1  6  0  0  0 
 41 42  1  0  0  0  0 
 42 43  1  0  0  0  0 
 42 44  1  0  0  0  0 
 42 45  1  0  0  0  0 
 37 46  1  6  0  0  0 
 46 47  1  0  0  0  0 
 37 48  1  1  0  0  0 
 48 49  1  0  0  0  0 
 35 50  1  1  0  0  0 
 50 51  1  0  0  0  0 
 33 52  1  1  0  0  0 
 52 53  1  0  0  0  0 
 16 54  1  0  0  0  0 
 54 55  1  0  0  0  0 
 55 56  1  0  0  0  0 
 55 57  1  0  0  0  0 
 55 58  1  0  0  0  0 
 54 59  1  0  0  0  0 
 11 59  1  0  0  0  0 
 59 60  1  0  0  0  0 
 59 61  1  0  0  0  0 
M  END
> <Rank>
18

> <Priority_score>
0.088

> <Reaction_type>
aliphatic hydroxylation

> <Parent_ID>
21

> <Parent_InChI>
InChI=1S/C18H33ClN2O5S/c1-5-6-10-7-11(21(3)8-10)17(25)20-12(9(2)19)16-14(23)13(22)15(24)18(26-16)27-4/h9-16,18,22-24H,5-8H2,1-4H3,(H,20,25)

> <Parent_SMILES>
CCC[C@@H]1C[C@@H](C(=O)NC(C(C)Cl)[C@H]2O[C@H](SC)[C@H](O)[C@@H](O)[C@H]2O)N(C)C1

$$$$
Molecule 21_metabolite 20
  CDK     0516241031

 61 62  0  0  0  0  0  0  0  0999 V2000
  -13.0127    0.2927    0.0000 C   0  0  0  0  0  0  0  0  0  0  0  0
  -13.3287    1.7591    0.0000 H   0  0  0  0  0  0  0  0  0  0  0  0
  -13.2173   -1.1932    0.0000 H   0  0  0  0  0  0  0  0  0  0  0  0
  -14.5117    0.2362    0.0000 H   0  0  0  0  0  0  0  0  0  0  0  0
  -11.5848   -0.1668    0.0000 C   0  0  0  0  0  0  0  0  0  0  0  0
  -12.2853   -1.4932    0.0000 H   0  0  0  0  0  0  0  0  0  0  0  0
  -10.4002   -1.0869    0.0000 H   0  0  0  0  0  0  0  0  0  0  0  0
  -10.4729    0.8401    0.0000 C   0  0  0  0  0  0  0  0  0  0  0  0
   -9.5483    2.5909    0.0000 H   0  0  0  0  0  0  0  0  0  0  0  0
  -11.6576    1.7602    0.0000 H   0  0  0  0  0  0  0  0  0  0  0  0
   -8.5881    0.2335    0.0000 C   0  0  2  0  0  0  0  0  0  0  0  0
   -9.1940   -1.1387    0.0000 H   0  0  0  0  0  0  0  0  0  0  0  0
   -7.2866   -0.5121    0.0000 C   0  0  0  0  0  0  0  0  0  0  0  0
   -8.1637   -1.7288    0.0000 H   0  0  0  0  0  0  0  0  0  0  0  0
   -6.1678   -1.5113    0.0000 H   0  0  0  0  0  0  0  0  0  0  0  0
   -6.1816    0.4914    0.0000 C   0  0  1  0  0  0  0  0  0  0  0  0
   -5.2975   -0.7203    0.0000 H   0  0  0  0  0  0  0  0  0  0  0  0
   -4.4667    1.4811    0.0000 C   0  0  0  0  0  0  0  0  0  0  0  0
   -4.4663    2.9811    0.0000 O   0  0  0  0  0  0  0  0  0  0  0  0
   -3.1678    0.7308    0.0000 N   0  0  0  0  0  0  0  0  0  0  0  0
   -3.1681   -0.7692    0.0000 H   0  0  0  0  0  0  0  0  0  0  0  0
   -1.4528    1.7204    0.0000 C   0  0  0  0  0  0  0  0  0  0  0  0
   -2.4168    2.8697    0.0000 H   0  0  0  0  0  0  0  0  0  0  0  0
   -0.1798    3.2369    0.0000 C   0  0  0  0  0  0  0  0  0  0  0  0
    1.1194    3.9867    0.0000 H   0  0  0  0  0  0  0  0  0  0  0  0
   -0.6925    4.6466    0.0000 C   0  0  0  0  0  0  0  0  0  0  0  0
   -1.9917    3.8969    0.0000 H   0  0  0  0  0  0  0  0  0  0  0  0
   -1.6565    5.7959    0.0000 H   0  0  0  0  0  0  0  0  0  0  0  0
    0.2719    5.7954    0.0000 O   0  0  0  0  0  0  0  0  0  0  0  0
   -0.2408    7.2051    0.0000 H   0  0  0  0  0  0  0  0  0  0  0  0
    0.7841    2.0877    0.0000 Cl  0  0  0  0  0  0  0  0  0  0  0  0
   -0.9401    0.3108    0.0000 C   0  0  2  0  0  0  0  0  0  0  0  0
   -2.4173    0.0505    0.0000 H   0  0  0  0  0  0  0  0  0  0  0  0
   -0.9401   -1.1892    0.0000 C   0  0  1  0  0  0  0  0  0  0  0  0
   -2.4173   -0.9289    0.0000 H   0  0  0  0  0  0  0  0  0  0  0  0
    0.3599   -1.9392    0.0000 C   0  0  1  0  0  0  0  0  0  0  0  0
   -0.6042   -3.0884    0.0000 H   0  0  0  0  0  0  0  0  0  0  0  0
    1.6599   -1.1892    0.0000 C   0  0  2  0  0  0  0  0  0  0  0  0
    2.1726   -2.5989    0.0000 H   0  0  0  0  0  0  0  0  0  0  0  0
    1.6599    0.3108    0.0000 C   0  0  2  0  0  0  0  0  0  0  0  0
    3.1371    0.0505    0.0000 H   0  0  0  0  0  0  0  0  0  0  0  0
    0.3599    1.0608    0.0000 O   0  0  0  0  0  0  0  0  0  0  0  0
    2.1726    1.7204    0.0000 S   0  0  0  0  0  0  0  0  0  0  0  0
    3.6498    1.9812    0.0000 C   0  0  0  0  0  0  0  0  0  0  0  0
    4.6142    0.8324    0.0000 H   0  0  0  0  0  0  0  0  0  0  0  0
    4.9487    2.7315    0.0000 H   0  0  0  0  0  0  0  0  0  0  0  0
    3.1364    3.3907    0.0000 H   0  0  0  0  0  0  0  0  0  0  0  0
    3.1371   -0.9289    0.0000 O   0  0  0  0  0  0  0  0  0  0  0  0
    4.1012   -2.0781    0.0000 H   0  0  0  0  0  0  0  0  0  0  0  0
    1.3240   -3.0884    0.0000 O   0  0  0  0  0  0  0  0  0  0  0  0
    0.8108   -4.4979    0.0000 H   0  0  0  0  0  0  0  0  0  0  0  0
   -1.4528   -2.5989    0.0000 O   0  0  0  0  0  0  0  0  0  0  0  0
   -2.9300   -2.8597    0.0000 H   0  0  0  0  0  0  0  0  0  0  0  0
   -6.7892    1.8651    0.0000 N   0  0  0  0  0  0  0  0  0  0  0  0
   -6.0436    3.1667    0.0000 C   0  0  0  0  0  0  0  0  0  0  0  0
   -6.7980    4.4632    0.0000 H   0  0  0  0  0  0  0  0  0  0  0  0
   -4.8912    2.2065    0.0000 H   0  0  0  0  0  0  0  0  0  0  0  0
   -4.8978    4.1348    0.0000 H   0  0  0  0  0  0  0  0  0  0  0  0
   -8.2815    1.6943    0.0000 C   0  0  0  0  0  0  0  0  0  0  0  0
   -8.2920    3.1943    0.0000 H   0  0  0  0  0  0  0  0  0  0  0  0
   -9.7740    1.8440    0.0000 H   0  0  0  0  0  0  0  0  0  0  0  0
  1  2  1  0  0  0  0 
  1  3  1  0  0  0  0 
  1  4  1  0  0  0  0 
  1  5  1  0  0  0  0 
  5  6  1  0  0  0  0 
  5  7  1  0  0  0  0 
  5  8  1  0  0  0  0 
  8  9  1  0  0  0  0 
  8 10  1  0  0  0  0 
 11  8  1  1  0  0  0 
 11 12  1  6  0  0  0 
 11 13  1  0  0  0  0 
 13 14  1  0  0  0  0 
 13 15  1  0  0  0  0 
 13 16  1  0  0  0  0 
 16 17  1  1  0  0  0 
 16 18  1  6  0  0  0 
 18 19  2  0  0  0  0 
 18 20  1  0  0  0  0 
 20 21  1  0  0  0  0 
 20 22  1  0  0  0  0 
 22 23  1  0  0  0  0 
 22 24  1  0  0  0  0 
 24 25  1  0  0  0  0 
 24 26  1  0  0  0  0 
 26 27  1  0  0  0  0 
 26 28  1  0  0  0  0 
 26 29  1  0  0  0  0 
 29 30  1  0  0  0  0 
 24 31  1  0  0  0  0 
 32 22  1  1  0  0  0 
 32 33  1  6  0  0  0 
 32 34  1  0  0  0  0 
 34 35  1  6  0  0  0 
 34 36  1  0  0  0  0 
 36 37  1  6  0  0  0 
 36 38  1  0  0  0  0 
 38 39  1  1  0  0  0 
 38 40  1  0  0  0  0 
 40 41  1  1  0  0  0 
 40 42  1  0  0  0  0 
 32 42  1  0  0  0  0 
 40 43  1  6  0  0  0 
 43 44  1  0  0  0  0 
 44 45  1  0  0  0  0 
 44 46  1  0  0  0  0 
 44 47  1  0  0  0  0 
 38 48  1  6  0  0  0 
 48 49  1  0  0  0  0 
 36 50  1  1  0  0  0 
 50 51  1  0  0  0  0 
 34 52  1  1  0  0  0 
 52 53  1  0  0  0  0 
 16 54  1  0  0  0  0 
 54 55  1  0  0  0  0 
 55 56  1  0  0  0  0 
 55 57  1  0  0  0  0 
 55 58  1  0  0  0  0 
 54 59  1  0  0  0  0 
 11 59  1  0  0  0  0 
 59 60  1  0  0  0  0 
 59 61  1  0  0  0  0 
M  END
> <Rank>
20

> <Priority_score>
0.06

> <Reaction_type>
aliphatic hydroxylation

> <Parent_ID>
21

> <Parent_InChI>
InChI=1S/C18H33ClN2O5S/c1-5-6-10-7-11(21(3)8-10)17(25)20-12(9(2)19)16-14(23)13(22)15(24)18(26-16)27-4/h9-16,18,22-24H,5-8H2,1-4H3,(H,20,25)

> <Parent_SMILES>
CCC[C@@H]1C[C@@H](C(=O)NC(C(C)Cl)[C@H]2O[C@H](SC)[C@H](O)[C@@H](O)[C@H]2O)N(C)C1

$$$$
Molecule 21_metabolite 21
  CDK     0516241031

 59 60  0  0  0  0  0  0  0  0999 V2000
    3.3683    3.3588    0.0000 C   0  0  0  0  0  0  0  0  0  0  0  0
    3.1643    4.8449    0.0000 H   0  0  0  0  0  0  0  0  0  0  0  0
    4.0682    2.0321    0.0000 H   0  0  0  0  0  0  0  0  0  0  0  0
    4.7964    3.8177    0.0000 H   0  0  0  0  0  0  0  0  0  0  0  0
    2.1833    2.4391    0.0000 C   0  0  0  0  0  0  0  0  0  0  0  0
    3.2948    1.4318    0.0000 H   0  0  0  0  0  0  0  0  0  0  0  0
    1.3843    1.1696    0.0000 H   0  0  0  0  0  0  0  0  0  0  0  0
    0.7943    3.0055    0.0000 C   0  0  0  0  0  0  0  0  0  0  0  0
   -0.6728    4.3352    0.0000 H   0  0  0  0  0  0  0  0  0  0  0  0
    1.5933    4.2750    0.0000 H   0  0  0  0  0  0  0  0  0  0  0  0
   -0.7699    1.7916    0.0000 C   0  0  2  0  0  0  0  0  0  0  0  0
    0.2683    0.7089    0.0000 H   0  0  0  0  0  0  0  0  0  0  0  0
   -1.7384    0.6462    0.0000 C   0  0  0  0  0  0  0  0  0  0  0  0
   -0.4983   -0.1977    0.0000 H   0  0  0  0  0  0  0  0  0  0  0  0
   -2.4485   -0.6751    0.0000 H   0  0  0  0  0  0  0  0  0  0  0  0
   -3.1197    1.2119    0.0000 C   0  0  1  0  0  0  0  0  0  0  0  0
   -3.5367   -0.2290    0.0000 H   0  0  0  0  0  0  0  0  0  0  0  0
   -5.0696    1.5561    0.0000 C   0  0  0  0  0  0  0  0  0  0  0  0
   -5.5823    2.9658    0.0000 O   0  0  0  0  0  0  0  0  0  0  0  0
   -6.0340    0.4073    0.0000 N   0  0  0  0  0  0  0  0  0  0  0  0
   -5.5213   -1.0024    0.0000 H   0  0  0  0  0  0  0  0  0  0  0  0
   -7.5112    0.6681    0.0000 C   0  0  0  0  0  0  0  0  0  0  0  0
   -8.9884    0.4079    0.0000 H   0  0  0  0  0  0  0  0  0  0  0  0
   -7.5115   -0.8319    0.0000 C   0  0  0  0  0  0  0  0  0  0  0  0
   -6.2126   -1.5822    0.0000 O   0  0  0  0  0  0  0  0  0  0  0  0
   -8.8107   -1.5817    0.0000 C   0  0  0  0  0  0  0  0  0  0  0  0
  -10.1096   -0.8314    0.0000 H   0  0  0  0  0  0  0  0  0  0  0  0
   -9.7751   -2.7305    0.0000 H   0  0  0  0  0  0  0  0  0  0  0  0
   -7.8468   -2.7309    0.0000 H   0  0  0  0  0  0  0  0  0  0  0  0
   -8.0239    2.0777    0.0000 C   0  0  2  0  0  0  0  0  0  0  0  0
   -6.5467    2.3380    0.0000 H   0  0  0  0  0  0  0  0  0  0  0  0
   -8.0239    3.5777    0.0000 C   0  0  1  0  0  0  0  0  0  0  0  0
   -6.5467    3.3174    0.0000 H   0  0  0  0  0  0  0  0  0  0  0  0
   -9.3239    4.3277    0.0000 C   0  0  1  0  0  0  0  0  0  0  0  0
   -8.3598    5.4769    0.0000 H   0  0  0  0  0  0  0  0  0  0  0  0
  -10.6239    3.5777    0.0000 C   0  0  2  0  0  0  0  0  0  0  0  0
  -11.1366    4.9874    0.0000 H   0  0  0  0  0  0  0  0  0  0  0  0
  -10.6239    2.0777    0.0000 C   0  0  2  0  0  0  0  0  0  0  0  0
  -12.1011    2.3380    0.0000 H   0  0  0  0  0  0  0  0  0  0  0  0
   -9.3239    1.3277    0.0000 O   0  0  0  0  0  0  0  0  0  0  0  0
  -11.1366    0.6681    0.0000 S   0  0  0  0  0  0  0  0  0  0  0  0
  -12.6138    0.4073    0.0000 C   0  0  0  0  0  0  0  0  0  0  0  0
  -13.5782    1.5561    0.0000 H   0  0  0  0  0  0  0  0  0  0  0  0
  -13.9127   -0.3430    0.0000 H   0  0  0  0  0  0  0  0  0  0  0  0
  -12.1005   -1.0022    0.0000 H   0  0  0  0  0  0  0  0  0  0  0  0
  -12.1011    3.3174    0.0000 O   0  0  0  0  0  0  0  0  0  0  0  0
  -13.0652    4.4666    0.0000 H   0  0  0  0  0  0  0  0  0  0  0  0
  -10.2880    5.4769    0.0000 O   0  0  0  0  0  0  0  0  0  0  0  0
   -9.7748    6.8864    0.0000 H   0  0  0  0  0  0  0  0  0  0  0  0
   -7.3471    5.4384    0.0000 O   0  0  0  0  0  0  0  0  0  0  0  0
   -8.3115    6.5873    0.0000 H   0  0  0  0  0  0  0  0  0  0  0  0
   -3.0180    2.7105    0.0000 N   0  0  0  0  0  0  0  0  0  0  0  0
   -4.1634    3.6791    0.0000 C   0  0  0  0  0  0  0  0  0  0  0  0
   -3.8973    5.1553    0.0000 H   0  0  0  0  0  0  0  0  0  0  0  0
   -4.9183    2.3829    0.0000 H   0  0  0  0  0  0  0  0  0  0  0  0
   -5.5709    4.1975    0.0000 H   0  0  0  0  0  0  0  0  0  0  0  0
   -1.5571    3.0597    0.0000 C   0  0  0  0  0  0  0  0  0  0  0  0
   -2.0596    4.4731    0.0000 H   0  0  0  0  0  0  0  0  0  0  0  0
   -0.2055    3.7103    0.0000 H   0  0  0  0  0  0  0  0  0  0  0  0
  1  2  1  0  0  0  0 
  1  3  1  0  0  0  0 
  1  4  1  0  0  0  0 
  1  5  1  0  0  0  0 
  5  6  1  0  0  0  0 
  5  7  1  0  0  0  0 
  5  8  1  0  0  0  0 
  8  9  1  0  0  0  0 
  8 10  1  0  0  0  0 
 11  8  1  6  0  0  0 
 11 12  1  1  0  0  0 
 11 13  1  0  0  0  0 
 13 14  1  0  0  0  0 
 13 15  1  0  0  0  0 
 13 16  1  0  0  0  0 
 16 17  1  6  0  0  0 
 16 18  1  1  0  0  0 
 18 19  2  0  0  0  0 
 18 20  1  0  0  0  0 
 20 21  1  0  0  0  0 
 20 22  1  0  0  0  0 
 22 23  1  0  0  0  0 
 22 24  1  0  0  0  0 
 24 25  2  0  0  0  0 
 24 26  1  0  0  0  0 
 26 27  1  0  0  0  0 
 26 28  1  0  0  0  0 
 26 29  1  0  0  0  0 
 30 22  1  1  0  0  0 
 30 31  1  6  0  0  0 
 30 32  1  0  0  0  0 
 32 33  1  6  0  0  0 
 32 34  1  0  0  0  0 
 34 35  1  6  0  0  0 
 34 36  1  0  0  0  0 
 36 37  1  1  0  0  0 
 36 38  1  0  0  0  0 
 38 39  1  1  0  0  0 
 38 40  1  0  0  0  0 
 30 40  1  0  0  0  0 
 38 41  1  6  0  0  0 
 41 42  1  0  0  0  0 
 42 43  1  0  0  0  0 
 42 44  1  0  0  0  0 
 42 45  1  0  0  0  0 
 36 46  1  6  0  0  0 
 46 47  1  0  0  0  0 
 34 48  1  1  0  0  0 
 48 49  1  0  0  0  0 
 32 50  1  1  0  0  0 
 50 51  1  0  0  0  0 
 16 52  1  0  0  0  0 
 52 53  1  0  0  0  0 
 53 54  1  0  0  0  0 
 53 55  1  0  0  0  0 
 53 56  1  0  0  0  0 
 52 57  1  0  0  0  0 
 11 57  1  0  0  0  0 
 57 58  1  0  0  0  0 
 57 59  1  0  0  0  0 
M  END
> <Rank>
21

> <Priority_score>
0.052

> <Reaction_type>
oxidative dehalogenation alkyl

> <Parent_ID>
21

> <Parent_InChI>
InChI=1S/C18H33ClN2O5S/c1-5-6-10-7-11(21(3)8-10)17(25)20-12(9(2)19)16-14(23)13(22)15(24)18(26-16)27-4/h9-16,18,22-24H,5-8H2,1-4H3,(H,20,25)

> <Parent_SMILES>
CCC[C@@H]1C[C@@H](C(=O)NC(C(C)Cl)[C@H]2O[C@H](SC)[C@H](O)[C@@H](O)[C@H]2O)N(C)C1

$$$$
Molecule 21_metabolite 22
  CDK     0516241031

 61 62  0  0  0  0  0  0  0  0999 V2000
    4.7864    2.8581    0.0000 C   0  0  0  0  0  0  0  0  0  0  0  0
    4.5824    4.3441    0.0000 H   0  0  0  0  0  0  0  0  0  0  0  0
    5.4863    1.5314    0.0000 H   0  0  0  0  0  0  0  0  0  0  0  0
    6.2144    3.3170    0.0000 H   0  0  0  0  0  0  0  0  0  0  0  0
    3.6014    1.9384    0.0000 C   0  0  0  0  0  0  0  0  0  0  0  0
    4.7128    0.9311    0.0000 H   0  0  0  0  0  0  0  0  0  0  0  0
    2.8024    0.6689    0.0000 H   0  0  0  0  0  0  0  0  0  0  0  0
    2.2124    2.5048    0.0000 C   0  0  0  0  0  0  0  0  0  0  0  0
    0.7453    3.8345    0.0000 H   0  0  0  0  0  0  0  0  0  0  0  0
    3.0114    3.7743    0.0000 H   0  0  0  0  0  0  0  0  0  0  0  0
    0.6482    1.2909    0.0000 C   0  0  2  0  0  0  0  0  0  0  0  0
    1.6864    0.2082    0.0000 H   0  0  0  0  0  0  0  0  0  0  0  0
   -0.3204    0.1455    0.0000 C   0  0  0  0  0  0  0  0  0  0  0  0
    0.9197   -0.6984    0.0000 H   0  0  0  0  0  0  0  0  0  0  0  0
   -1.0304   -1.1758    0.0000 H   0  0  0  0  0  0  0  0  0  0  0  0
   -1.7017    0.7112    0.0000 C   0  0  1  0  0  0  0  0  0  0  0  0
   -2.1187   -0.7297    0.0000 H   0  0  0  0  0  0  0  0  0  0  0  0
   -3.6515    1.0554    0.0000 C   0  0  0  0  0  0  0  0  0  0  0  0
   -4.1642    2.4651    0.0000 O   0  0  0  0  0  0  0  0  0  0  0  0
   -4.6159   -0.0934    0.0000 N   0  0  0  0  0  0  0  0  0  0  0  0
   -4.1032   -1.5031    0.0000 H   0  0  0  0  0  0  0  0  0  0  0  0
   -7.5112    0.4177    0.0000 C   0  0  0  0  0  0  0  0  0  0  0  0
   -8.9884    0.1575    0.0000 H   0  0  0  0  0  0  0  0  0  0  0  0
   -7.5115   -1.0823    0.0000 C   0  0  0  0  0  0  0  0  0  0  0  0
   -6.9988   -2.4919    0.0000 H   0  0  0  0  0  0  0  0  0  0  0  0
   -8.8107   -1.8320    0.0000 C   0  0  0  0  0  0  0  0  0  0  0  0
  -10.1096   -1.0817    0.0000 H   0  0  0  0  0  0  0  0  0  0  0  0
   -9.7751   -2.9809    0.0000 H   0  0  0  0  0  0  0  0  0  0  0  0
   -7.8468   -2.9813    0.0000 H   0  0  0  0  0  0  0  0  0  0  0  0
   -6.0342   -0.8221    0.0000 O   0  0  0  0  0  0  0  0  0  0  0  0
   -5.0703   -1.9714    0.0000 H   0  0  0  0  0  0  0  0  0  0  0  0
   -8.0239    1.8273    0.0000 C   0  0  2  0  0  0  0  0  0  0  0  0
   -6.5467    2.0877    0.0000 H   0  0  0  0  0  0  0  0  0  0  0  0
   -8.0239    3.3273    0.0000 C   0  0  1  0  0  0  0  0  0  0  0  0
   -6.5467    3.0670    0.0000 H   0  0  0  0  0  0  0  0  0  0  0  0
   -9.3239    4.0773    0.0000 C   0  0  1  0  0  0  0  0  0  0  0  0
   -8.3598    5.2265    0.0000 H   0  0  0  0  0  0  0  0  0  0  0  0
  -10.6239    3.3273    0.0000 C   0  0  2  0  0  0  0  0  0  0  0  0
  -11.1366    4.7370    0.0000 H   0  0  0  0  0  0  0  0  0  0  0  0
  -10.6239    1.8273    0.0000 C   0  0  2  0  0  0  0  0  0  0  0  0
  -12.1011    2.0877    0.0000 H   0  0  0  0  0  0  0  0  0  0  0  0
   -9.3239    1.0773    0.0000 O   0  0  0  0  0  0  0  0  0  0  0  0
  -11.1366    0.4177    0.0000 S   0  0  0  0  0  0  0  0  0  0  0  0
  -12.6138    0.1569    0.0000 C   0  0  0  0  0  0  0  0  0  0  0  0
  -13.5782    1.3058    0.0000 H   0  0  0  0  0  0  0  0  0  0  0  0
  -13.9127   -0.5934    0.0000 H   0  0  0  0  0  0  0  0  0  0  0  0
  -12.1005   -1.2525    0.0000 H   0  0  0  0  0  0  0  0  0  0  0  0
  -12.1011    3.0670    0.0000 O   0  0  0  0  0  0  0  0  0  0  0  0
  -13.0652    4.2162    0.0000 H   0  0  0  0  0  0  0  0  0  0  0  0
  -10.2880    5.2265    0.0000 O   0  0  0  0  0  0  0  0  0  0  0  0
   -9.7748    6.6360    0.0000 H   0  0  0  0  0  0  0  0  0  0  0  0
   -7.3471    5.1881    0.0000 O   0  0  0  0  0  0  0  0  0  0  0  0
   -8.3115    6.3369    0.0000 H   0  0  0  0  0  0  0  0  0  0  0  0
   -1.5999    2.2098    0.0000 N   0  0  0  0  0  0  0  0  0  0  0  0
   -2.7453    3.1784    0.0000 C   0  0  0  0  0  0  0  0  0  0  0  0
   -2.4792    4.6546    0.0000 H   0  0  0  0  0  0  0  0  0  0  0  0
   -3.5003    1.8822    0.0000 H   0  0  0  0  0  0  0  0  0  0  0  0
   -4.1529    3.6968    0.0000 H   0  0  0  0  0  0  0  0  0  0  0  0
   -0.1390    2.5590    0.0000 C   0  0  0  0  0  0  0  0  0  0  0  0
   -0.6416    3.9724    0.0000 H   0  0  0  0  0  0  0  0  0  0  0  0
    1.2125    3.2096    0.0000 H   0  0  0  0  0  0  0  0  0  0  0  0
  1  2  1  0  0  0  0 
  1  3  1  0  0  0  0 
  1  4  1  0  0  0  0 
  1  5  1  0  0  0  0 
  5  6  1  0  0  0  0 
  5  7  1  0  0  0  0 
  5  8  1  0  0  0  0 
  8  9  1  0  0  0  0 
  8 10  1  0  0  0  0 
 11  8  1  6  0  0  0 
 11 12  1  1  0  0  0 
 11 13  1  0  0  0  0 
 13 14  1  0  0  0  0 
 13 15  1  0  0  0  0 
 13 16  1  0  0  0  0 
 16 17  1  6  0  0  0 
 16 18  1  1  0  0  0 
 18 19  2  0  0  0  0 
 18 20  1  0  0  0  0 
 20 21  1  0  0  0  0 
 20 22  1  0  0  0  0 
 22 23  1  0  0  0  0 
 22 24  1  0  0  0  0 
 24 25  1  0  0  0  0 
 24 26  1  0  0  0  0 
 26 27  1  0  0  0  0 
 26 28  1  0  0  0  0 
 26 29  1  0  0  0  0 
 24 30  1  0  0  0  0 
 30 31  1  0  0  0  0 
 32 22  1  1  0  0  0 
 32 33  1  6  0  0  0 
 32 34  1  0  0  0  0 
 34 35  1  6  0  0  0 
 34 36  1  0  0  0  0 
 36 37  1  6  0  0  0 
 36 38  1  0  0  0  0 
 38 39  1  1  0  0  0 
 38 40  1  0  0  0  0 
 40 41  1  1  0  0  0 
 40 42  1  0  0  0  0 
 32 42  1  0  0  0  0 
 40 43  1  6  0  0  0 
 43 44  1  0  0  0  0 
 44 45  1  0  0  0  0 
 44 46  1  0  0  0  0 
 44 47  1  0  0  0  0 
 38 48  1  6  0  0  0 
 48 49  1  0  0  0  0 
 36 50  1  1  0  0  0 
 50 51  1  0  0  0  0 
 34 52  1  1  0  0  0 
 52 53  1  0  0  0  0 
 16 54  1  0  0  0  0 
 54 55  1  0  0  0  0 
 55 56  1  0  0  0  0 
 55 57  1  0  0  0  0 
 55 58  1  0  0  0  0 
 54 59  1  0  0  0  0 
 11 59  1  0  0  0  0 
 59 60  1  0  0  0  0 
 59 61  1  0  0  0  0 
M  END
> <Rank>
21

> <Priority_score>
0.052

> <Reaction_type>
aliphatic_dehalogenation

> <Parent_ID>
21

> <Parent_InChI>
InChI=1S/C18H33ClN2O5S/c1-5-6-10-7-11(21(3)8-10)17(25)20-12(9(2)19)16-14(23)13(22)15(24)18(26-16)27-4/h9-16,18,22-24H,5-8H2,1-4H3,(H,20,25)

> <Parent_SMILES>
CCC[C@@H]1C[C@@H](C(=O)NC(C(C)Cl)[C@H]2O[C@H](SC)[C@H](O)[C@@H](O)[C@H]2O)N(C)C1

$$$$
Molecule 21_metabolite 23
  CDK     0516241031

 61 61  0  0  0  0  0  0  0  0999 V2000
    1.9980    4.7061    0.0000 C   0  0  0  0  0  0  0  0  0  0  0  0
    0.8900    5.7172    0.0000 H   0  0  0  0  0  0  0  0  0  0  0  0
    3.3850    4.1350    0.0000 H   0  0  0  0  0  0  0  0  0  0  0  0
    2.8013    5.9729    0.0000 H   0  0  0  0  0  0  0  0  0  0  0  0
    1.6764    3.2410    0.0000 C   0  0  0  0  0  0  0  0  0  0  0  0
    3.1751    3.1787    0.0000 H   0  0  0  0  0  0  0  0  0  0  0  0
    1.8753    1.7542    0.0000 H   0  0  0  0  0  0  0  0  0  0  0  0
    0.2468    2.7870    0.0000 C   0  0  0  0  0  0  0  0  0  0  0  0
   -1.7315    2.8692    0.0000 H   0  0  0  0  0  0  0  0  0  0  0  0
    0.0479    4.2737    0.0000 H   0  0  0  0  0  0  0  0  0  0  0  0
   -0.1778    0.8530    0.0000 C   0  0  2  0  0  0  0  0  0  0  0  0
    1.3129    0.6859    0.0000 H   0  0  0  0  0  0  0  0  0  0  0  0
   -0.1886   -0.6470    0.0000 C   0  0  0  0  0  0  0  0  0  0  0  0
    1.3043   -0.5014    0.0000 H   0  0  0  0  0  0  0  0  0  0  0  0
    0.1118   -2.1166    0.0000 H   0  0  0  0  0  0  0  0  0  0  0  0
   -1.6119   -1.0967    0.0000 C   0  0  1  0  0  0  0  0  0  0  0  0
   -1.0098   -2.4706    0.0000 H   0  0  0  0  0  0  0  0  0  0  0  0
   -3.3302   -2.0805    0.0000 C   0  0  0  0  0  0  0  0  0  0  0  0
   -4.6265   -1.3258    0.0000 O   0  0  0  0  0  0  0  0  0  0  0  0
   -3.3356   -3.5805    0.0000 N   0  0  0  0  0  0  0  0  0  0  0  0
   -2.0393   -4.3352    0.0000 H   0  0  0  0  0  0  0  0  0  0  0  0
   -5.0539   -4.5643    0.0000 C   0  0  0  0  0  0  0  0  0  0  0  0
   -6.0222   -5.7098    0.0000 H   0  0  0  0  0  0  0  0  0  0  0  0
   -4.0939   -5.7168    0.0000 C   0  0  0  0  0  0  0  0  0  0  0  0
   -2.7975   -6.4715    0.0000 H   0  0  0  0  0  0  0  0  0  0  0  0
   -4.6120   -7.1245    0.0000 C   0  0  0  0  0  0  0  0  0  0  0  0
   -6.0901   -7.3796    0.0000 H   0  0  0  0  0  0  0  0  0  0  0  0
   -4.6174   -8.6245    0.0000 H   0  0  0  0  0  0  0  0  0  0  0  0
   -3.1357   -7.3903    0.0000 H   0  0  0  0  0  0  0  0  0  0  0  0
   -3.1255   -4.5712    0.0000 Cl  0  0  0  0  0  0  0  0  0  0  0  0
   -6.7650   -3.5681    0.0000 C   0  0  2  0  0  0  0  0  0  0  0  0
   -5.7967   -2.4225    0.0000 H   0  0  0  0  0  0  0  0  0  0  0  0
   -8.0668   -4.3134    0.0000 C   0  0  1  0  0  0  0  0  0  0  0  0
   -9.0351   -5.4590    0.0000 H   0  0  0  0  0  0  0  0  0  0  0  0
   -9.7779   -3.3172    0.0000 C   0  0  1  0  0  0  0  0  0  0  0  0
   -8.8096   -2.1716    0.0000 H   0  0  0  0  0  0  0  0  0  0  0  0
  -11.4962   -4.3010    0.0000 C   0  0  2  0  0  0  0  0  0  0  0  0
  -12.4645   -5.4466    0.0000 H   0  0  0  0  0  0  0  0  0  0  0  0
  -12.7925   -3.5463    0.0000 C   0  0  0  0  0  0  0  0  0  0  0  0
  -12.7871   -2.0463    0.0000 O   0  0  0  0  0  0  0  0  0  0  0  0
  -14.0943   -4.2916    0.0000 S   0  0  0  0  0  0  0  0  0  0  0  0
  -15.3906   -3.5369    0.0000 C   0  0  0  0  0  0  0  0  0  0  0  0
  -16.6923   -4.2822    0.0000 H   0  0  0  0  0  0  0  0  0  0  0  0
  -14.4223   -2.3913    0.0000 H   0  0  0  0  0  0  0  0  0  0  0  0
  -16.3506   -2.3844    0.0000 H   0  0  0  0  0  0  0  0  0  0  0  0
  -10.5362   -5.4535    0.0000 O   0  0  0  0  0  0  0  0  0  0  0  0
  -11.0543   -6.8612    0.0000 H   0  0  0  0  0  0  0  0  0  0  0  0
  -10.7379   -2.1646    0.0000 O   0  0  0  0  0  0  0  0  0  0  0  0
  -10.2198   -0.7570    0.0000 H   0  0  0  0  0  0  0  0  0  0  0  0
   -7.1068   -5.4659    0.0000 O   0  0  0  0  0  0  0  0  0  0  0  0
   -7.6249   -6.8736    0.0000 H   0  0  0  0  0  0  0  0  0  0  0  0
   -7.7251   -2.4155    0.0000 O   0  0  0  0  0  0  0  0  0  0  0  0
   -7.2069   -1.0079    0.0000 H   0  0  0  0  0  0  0  0  0  0  0  0
   -2.4931    0.1197    0.0000 N   0  0  0  0  0  0  0  0  0  0  0  0
   -3.9931    0.1306    0.0000 C   0  0  0  0  0  0  0  0  0  0  0  0
   -4.7337    1.4350    0.0000 H   0  0  0  0  0  0  0  0  0  0  0  0
   -3.7433   -1.3485    0.0000 H   0  0  0  0  0  0  0  0  0  0  0  0
   -5.4063   -0.3723    0.0000 H   0  0  0  0  0  0  0  0  0  0  0  0
   -1.5944    1.3233    0.0000 C   0  0  0  0  0  0  0  0  0  0  0  0
   -2.8852    2.0873    0.0000 H   0  0  0  0  0  0  0  0  0  0  0  0
   -0.9725    2.6883    0.0000 H   0  0  0  0  0  0  0  0  0  0  0  0
  1  2  1  0  0  0  0 
  1  3  1  0  0  0  0 
  1  4  1  0  0  0  0 
  1  5  1  0  0  0  0 
  5  6  1  0  0  0  0 
  5  7  1  0  0  0  0 
  5  8  1  0  0  0  0 
  8  9  1  0  0  0  0 
  8 10  1  0  0  0  0 
 11  8  1  6  0  0  0 
 11 12  1  1  0  0  0 
 11 13  1  0  0  0  0 
 13 14  1  0  0  0  0 
 13 15  1  0  0  0  0 
 13 16  1  0  0  0  0 
 16 17  1  6  0  0  0 
 16 18  1  1  0  0  0 
 18 19  2  0  0  0  0 
 18 20  1  0  0  0  0 
 20 21  1  0  0  0  0 
 20 22  1  0  0  0  0 
 22 23  1  0  0  0  0 
 22 24  1  0  0  0  0 
 24 25  1  0  0  0  0 
 24 26  1  0  0  0  0 
 26 27  1  0  0  0  0 
 26 28  1  0  0  0  0 
 26 29  1  0  0  0  0 
 24 30  1  0  0  0  0 
 22 31  1  0  0  0  0 
 31 32  1  1  0  0  0 
 31 33  1  0  0  0  0 
 33 34  1  1  0  0  0 
 33 35  1  0  0  0  0 
 35 36  1  6  0  0  0 
 35 37  1  0  0  0  0 
 37 38  1  6  0  0  0 
 37 39  1  0  0  0  0 
 39 40  2  0  0  0  0 
 39 41  1  0  0  0  0 
 41 42  1  0  0  0  0 
 42 43  1  0  0  0  0 
 42 44  1  0  0  0  0 
 42 45  1  0  0  0  0 
 37 46  1  1  0  0  0 
 46 47  1  0  0  0  0 
 35 48  1  1  0  0  0 
 48 49  1  0  0  0  0 
 33 50  1  6  0  0  0 
 50 51  1  0  0  0  0 
 31 52  1  6  0  0  0 
 52 53  1  0  0  0  0 
 16 54  1  0  0  0  0 
 54 55  1  0  0  0  0 
 55 56  1  0  0  0  0 
 55 57  1  0  0  0  0 
 55 58  1  0  0  0  0 
 54 59  1  0  0  0  0 
 11 59  1  0  0  0  0 
 59 60  1  0  0  0  0 
 59 61  1  0  0  0  0 
M  END
> <Rank>
23

> <Priority_score>
0.048

> <Reaction_type>
oxidative ether cleavage to one alcohol and one aldehyde/ketone

> <Parent_ID>
21

> <Parent_InChI>
InChI=1S/C18H33ClN2O5S/c1-5-6-10-7-11(21(3)8-10)17(25)20-12(9(2)19)16-14(23)13(22)15(24)18(26-16)27-4/h9-16,18,22-24H,5-8H2,1-4H3,(H,20,25)

> <Parent_SMILES>
CCC[C@@H]1C[C@@H](C(=O)NC(C(C)Cl)[C@H]2O[C@H](SC)[C@H](O)[C@@H](O)[C@H]2O)N(C)C1

$$$$
Molecule 21_metabolite 24
  CDK     0516241031

 61 61  0  0  0  0  0  0  0  0999 V2000
    1.3217    4.2799    0.0000 C   0  0  0  0  0  0  0  0  0  0  0  0
    0.2137    5.2910    0.0000 H   0  0  0  0  0  0  0  0  0  0  0  0
    2.7087    3.7088    0.0000 H   0  0  0  0  0  0  0  0  0  0  0  0
    2.1250    5.5467    0.0000 H   0  0  0  0  0  0  0  0  0  0  0  0
    1.0001    2.8148    0.0000 C   0  0  0  0  0  0  0  0  0  0  0  0
    2.4988    2.7525    0.0000 H   0  0  0  0  0  0  0  0  0  0  0  0
    1.1990    1.3281    0.0000 H   0  0  0  0  0  0  0  0  0  0  0  0
   -0.4295    2.3608    0.0000 C   0  0  0  0  0  0  0  0  0  0  0  0
   -2.4078    2.4430    0.0000 H   0  0  0  0  0  0  0  0  0  0  0  0
   -0.6284    3.8475    0.0000 H   0  0  0  0  0  0  0  0  0  0  0  0
   -0.8540    0.4268    0.0000 C   0  0  2  0  0  0  0  0  0  0  0  0
    0.6366    0.2597    0.0000 H   0  0  0  0  0  0  0  0  0  0  0  0
   -0.8649   -1.0732    0.0000 C   0  0  0  0  0  0  0  0  0  0  0  0
    0.6280   -0.9276    0.0000 H   0  0  0  0  0  0  0  0  0  0  0  0
   -0.5645   -2.5428    0.0000 H   0  0  0  0  0  0  0  0  0  0  0  0
   -2.2882   -1.5229    0.0000 C   0  0  1  0  0  0  0  0  0  0  0  0
   -1.6861   -2.8967    0.0000 H   0  0  0  0  0  0  0  0  0  0  0  0
   -4.0065   -2.5067    0.0000 C   0  0  0  0  0  0  0  0  0  0  0  0
   -5.3028   -1.7520    0.0000 O   0  0  0  0  0  0  0  0  0  0  0  0
   -4.0119   -4.0067    0.0000 N   0  0  0  0  0  0  0  0  0  0  0  0
   -2.7156   -4.7614    0.0000 H   0  0  0  0  0  0  0  0  0  0  0  0
   -5.7302   -4.9905    0.0000 C   0  0  0  0  0  0  0  0  0  0  0  0
   -6.6985   -6.1360    0.0000 H   0  0  0  0  0  0  0  0  0  0  0  0
   -4.7702   -6.1430    0.0000 C   0  0  0  0  0  0  0  0  0  0  0  0
   -3.4738   -6.8977    0.0000 H   0  0  0  0  0  0  0  0  0  0  0  0
   -5.2883   -7.5507    0.0000 C   0  0  0  0  0  0  0  0  0  0  0  0
   -6.7664   -7.8058    0.0000 H   0  0  0  0  0  0  0  0  0  0  0  0
   -5.2937   -9.0507    0.0000 H   0  0  0  0  0  0  0  0  0  0  0  0
   -3.8120   -7.8165    0.0000 H   0  0  0  0  0  0  0  0  0  0  0  0
   -3.8018   -4.9974    0.0000 Cl  0  0  0  0  0  0  0  0  0  0  0  0
   -7.0265   -4.2358    0.0000 C   0  0  0  0  0  0  0  0  0  0  0  0
   -7.0211   -2.7358    0.0000 O   0  0  0  0  0  0  0  0  0  0  0  0
   -8.7448   -5.2196    0.0000 C   0  0  1  0  0  0  0  0  0  0  0  0
   -9.7131   -6.3651    0.0000 H   0  0  0  0  0  0  0  0  0  0  0  0
  -10.4559   -4.2234    0.0000 C   0  0  1  0  0  0  0  0  0  0  0  0
   -9.4876   -3.0778    0.0000 H   0  0  0  0  0  0  0  0  0  0  0  0
  -11.7577   -4.9687    0.0000 C   0  0  2  0  0  0  0  0  0  0  0  0
  -12.7260   -6.1143    0.0000 H   0  0  0  0  0  0  0  0  0  0  0  0
  -13.4688   -3.9725    0.0000 C   0  0  2  0  0  0  0  0  0  0  0  0
  -12.5005   -2.8269    0.0000 H   0  0  0  0  0  0  0  0  0  0  0  0
  -14.4288   -2.8199    0.0000 O   0  0  0  0  0  0  0  0  0  0  0  0
  -13.9107   -1.4123    0.0000 H   0  0  0  0  0  0  0  0  0  0  0  0
  -14.7706   -4.7178    0.0000 S   0  0  0  0  0  0  0  0  0  0  0  0
  -16.0669   -3.9631    0.0000 C   0  0  0  0  0  0  0  0  0  0  0  0
  -16.0615   -2.4631    0.0000 H   0  0  0  0  0  0  0  0  0  0  0  0
  -16.5850   -5.3708    0.0000 H   0  0  0  0  0  0  0  0  0  0  0  0
  -17.5431   -3.6973    0.0000 H   0  0  0  0  0  0  0  0  0  0  0  0
  -10.7977   -6.1212    0.0000 O   0  0  0  0  0  0  0  0  0  0  0  0
  -11.3158   -7.5289    0.0000 H   0  0  0  0  0  0  0  0  0  0  0  0
  -11.4160   -3.0708    0.0000 O   0  0  0  0  0  0  0  0  0  0  0  0
  -10.8978   -1.6632    0.0000 H   0  0  0  0  0  0  0  0  0  0  0  0
   -7.7848   -6.3721    0.0000 O   0  0  0  0  0  0  0  0  0  0  0  0
   -8.3029   -7.7798    0.0000 H   0  0  0  0  0  0  0  0  0  0  0  0
   -3.1694   -0.3065    0.0000 N   0  0  0  0  0  0  0  0  0  0  0  0
   -4.6694   -0.2956    0.0000 C   0  0  0  0  0  0  0  0  0  0  0  0
   -5.4100    1.0088    0.0000 H   0  0  0  0  0  0  0  0  0  0  0  0
   -4.4196   -1.7747    0.0000 H   0  0  0  0  0  0  0  0  0  0  0  0
   -6.0826   -0.7985    0.0000 H   0  0  0  0  0  0  0  0  0  0  0  0
   -2.2707    0.8971    0.0000 C   0  0  0  0  0  0  0  0  0  0  0  0
   -3.5615    1.6611    0.0000 H   0  0  0  0  0  0  0  0  0  0  0  0
   -1.6488    2.2621    0.0000 H   0  0  0  0  0  0  0  0  0  0  0  0
  1  2  1  0  0  0  0 
  1  3  1  0  0  0  0 
  1  4  1  0  0  0  0 
  1  5  1  0  0  0  0 
  5  6  1  0  0  0  0 
  5  7  1  0  0  0  0 
  5  8  1  0  0  0  0 
  8  9  1  0  0  0  0 
  8 10  1  0  0  0  0 
 11  8  1  6  0  0  0 
 11 12  1  1  0  0  0 
 11 13  1  0  0  0  0 
 13 14  1  0  0  0  0 
 13 15  1  0  0  0  0 
 13 16  1  0  0  0  0 
 16 17  1  6  0  0  0 
 16 18  1  1  0  0  0 
 18 19  2  0  0  0  0 
 18 20  1  0  0  0  0 
 20 21  1  0  0  0  0 
 20 22  1  0  0  0  0 
 22 23  1  0  0  0  0 
 22 24  1  0  0  0  0 
 24 25  1  0  0  0  0 
 24 26  1  0  0  0  0 
 26 27  1  0  0  0  0 
 26 28  1  0  0  0  0 
 26 29  1  0  0  0  0 
 24 30  1  0  0  0  0 
 22 31  1  0  0  0  0 
 31 32  2  0  0  0  0 
 31 33  1  0  0  0  0 
 33 34  1  1  0  0  0 
 33 35  1  0  0  0  0 
 35 36  1  6  0  0  0 
 35 37  1  0  0  0  0 
 37 38  1  6  0  0  0 
 37 39  1  0  0  0  0 
 39 40  1  6  0  0  0 
 39 41  1  1  0  0  0 
 41 42  1  0  0  0  0 
 39 43  1  0  0  0  0 
 43 44  1  0  0  0  0 
 44 45  1  0  0  0  0 
 44 46  1  0  0  0  0 
 44 47  1  0  0  0  0 
 37 48  1  1  0  0  0 
 48 49  1  0  0  0  0 
 35 50  1  1  0  0  0 
 50 51  1  0  0  0  0 
 33 52  1  6  0  0  0 
 52 53  1  0  0  0  0 
 16 54  1  0  0  0  0 
 54 55  1  0  0  0  0 
 55 56  1  0  0  0  0 
 55 57  1  0  0  0  0 
 55 58  1  0  0  0  0 
 54 59  1  0  0  0  0 
 11 59  1  0  0  0  0 
 59 60  1  0  0  0  0 
 59 61  1  0  0  0  0 
M  END
> <Rank>
23

> <Priority_score>
0.048

> <Reaction_type>
oxidative ether cleavage to one alcohol and one aldehyde/ketone

> <Parent_ID>
21

> <Parent_InChI>
InChI=1S/C18H33ClN2O5S/c1-5-6-10-7-11(21(3)8-10)17(25)20-12(9(2)19)16-14(23)13(22)15(24)18(26-16)27-4/h9-16,18,22-24H,5-8H2,1-4H3,(H,20,25)

> <Parent_SMILES>
CCC[C@@H]1C[C@@H](C(=O)NC(C(C)Cl)[C@H]2O[C@H](SC)[C@H](O)[C@@H](O)[C@H]2O)N(C)C1

$$$$
Molecule 21_metabolite 25
  CDK     0516241031

 61 62  0  0  0  0  0  0  0  0999 V2000
   -4.9124   10.4432    0.0000 C   0  0  0  0  0  0  0  0  0  0  0  0
   -6.0974    9.5236    0.0000 H   0  0  0  0  0  0  0  0  0  0  0  0
   -4.1134   11.7127    0.0000 H   0  0  0  0  0  0  0  0  0  0  0  0
   -6.0238   11.4505    0.0000 H   0  0  0  0  0  0  0  0  0  0  0  0
   -3.5234    9.8768    0.0000 C   0  0  0  0  0  0  0  0  0  0  0  0
   -3.2068   11.3430    0.0000 H   0  0  0  0  0  0  0  0  0  0  0  0
   -2.0245    9.8196    0.0000 H   0  0  0  0  0  0  0  0  0  0  0  0
   -3.3195    8.3907    0.0000 C   0  0  0  0  0  0  0  0  0  0  0  0
   -3.7374    6.4554    0.0000 H   0  0  0  0  0  0  0  0  0  0  0  0
   -4.8184    8.4480    0.0000 H   0  0  0  0  0  0  0  0  0  0  0  0
   -1.4861    7.6431    0.0000 C   0  0  2  0  0  0  0  0  0  0  0  0
   -1.0675    9.0835    0.0000 H   0  0  0  0  0  0  0  0  0  0  0  0
   -0.0099    7.3770    0.0000 C   0  0  0  0  0  0  0  0  0  0  0  0
    0.1009    8.8729    0.0000 H   0  0  0  0  0  0  0  0  0  0  0  0
    1.4894    7.4227    0.0000 H   0  0  0  0  0  0  0  0  0  0  0  0
    0.1909    5.8979    0.0000 C   0  0  1  0  0  0  0  0  0  0  0  0
    1.6472    6.2572    0.0000 H   0  0  0  0  0  0  0  0  0  0  0  0
    0.8677    4.0371    0.0000 C   0  0  0  0  0  0  0  0  0  0  0  0
   -0.0967    2.8883    0.0000 O   0  0  0  0  0  0  0  0  0  0  0  0
    2.3449    3.7764    0.0000 N   0  0  0  0  0  0  0  0  0  0  0  0
    3.3093    4.9252    0.0000 H   0  0  0  0  0  0  0  0  0  0  0  0
    2.8576    2.3667    0.0000 C   0  0  0  0  0  0  0  0  0  0  0  0
    2.8573    0.8667    0.0000 C   0  0  0  0  0  0  0  0  0  0  0  0
    3.3700   -0.5429    0.0000 H   0  0  0  0  0  0  0  0  0  0  0  0
    0.7266   -0.3628    0.0000 C   0  0  0  0  0  0  0  0  0  0  0  0
   -0.5723    0.3874    0.0000 H   0  0  0  0  0  0  0  0  0  0  0  0
    1.6905   -1.5121    0.0000 H   0  0  0  0  0  0  0  0  0  0  0  0
   -0.2378   -1.5117    0.0000 H   0  0  0  0  0  0  0  0  0  0  0  0
    4.3345    1.1269    0.0000 Cl  0  0  0  0  0  0  0  0  0  0  0  0
    4.8074    2.0225    0.0000 C   0  0  2  0  0  0  0  0  0  0  0  0
    4.1300    0.1619    0.0000 H   0  0  0  0  0  0  0  0  0  0  0  0
    6.1065    1.2725    0.0000 C   0  0  1  0  0  0  0  0  0  0  0  0
    5.1424    0.1233    0.0000 H   0  0  0  0  0  0  0  0  0  0  0  0
    7.4060    2.0233    0.0000 C   0  0  1  0  0  0  0  0  0  0  0  0
    7.9192    0.6138    0.0000 H   0  0  0  0  0  0  0  0  0  0  0  0
    7.4065    3.5241    0.0000 C   0  0  2  0  0  0  0  0  0  0  0  0
    8.8836    3.2633    0.0000 H   0  0  0  0  0  0  0  0  0  0  0  0
    6.1074    4.2741    0.0000 C   0  0  2  0  0  0  0  0  0  0  0  0
    7.0715    5.4233    0.0000 H   0  0  0  0  0  0  0  0  0  0  0  0
    4.8079    3.5233    0.0000 O   0  0  0  0  0  0  0  0  0  0  0  0
    5.1430    5.4230    0.0000 S   0  0  0  0  0  0  0  0  0  0  0  0
    5.6557    6.8326    0.0000 C   0  0  0  0  0  0  0  0  0  0  0  0
    7.1329    7.0934    0.0000 H   0  0  0  0  0  0  0  0  0  0  0  0
    5.6554    8.3326    0.0000 H   0  0  0  0  0  0  0  0  0  0  0  0
    4.1785    7.0928    0.0000 H   0  0  0  0  0  0  0  0  0  0  0  0
    7.9197    4.9336    0.0000 O   0  0  0  0  0  0  0  0  0  0  0  0
    9.3969    5.1939    0.0000 H   0  0  0  0  0  0  0  0  0  0  0  0
    8.8832    2.2836    0.0000 O   0  0  0  0  0  0  0  0  0  0  0  0
    9.8473    1.1344    0.0000 H   0  0  0  0  0  0  0  0  0  0  0  0
    7.0709    0.1236    0.0000 O   0  0  0  0  0  0  0  0  0  0  0  0
    6.5582   -1.2860    0.0000 H   0  0  0  0  0  0  0  0  0  0  0  0
    1.3803    2.1065    0.0000 O   0  0  0  0  0  0  0  0  0  0  0  0
    0.8670    0.6971    0.0000 H   0  0  0  0  0  0  0  0  0  0  0  0
   -1.1578    5.2367    0.0000 N   0  0  0  0  0  0  0  0  0  0  0  0
   -1.4239    3.7605    0.0000 C   0  0  0  0  0  0  0  0  0  0  0  0
   -2.8354    3.2528    0.0000 H   0  0  0  0  0  0  0  0  0  0  0  0
    0.0761    3.7547    0.0000 H   0  0  0  0  0  0  0  0  0  0  0  0
   -1.1691    2.2823    0.0000 H   0  0  0  0  0  0  0  0  0  0  0  0
   -2.1907    6.3272    0.0000 C   0  0  0  0  0  0  0  0  0  0  0  0
   -3.1634    5.1854    0.0000 H   0  0  0  0  0  0  0  0  0  0  0  0
   -3.4299    7.1725    0.0000 H   0  0  0  0  0  0  0  0  0  0  0  0
  1  2  1  0  0  0  0 
  1  3  1  0  0  0  0 
  1  4  1  0  0  0  0 
  1  5  1  0  0  0  0 
  5  6  1  0  0  0  0 
  5  7  1  0  0  0  0 
  5  8  1  0  0  0  0 
  8  9  1  0  0  0  0 
  8 10  1  0  0  0  0 
 11  8  1  6  0  0  0 
 11 12  1  1  0  0  0 
 11 13  1  0  0  0  0 
 13 14  1  0  0  0  0 
 13 15  1  0  0  0  0 
 13 16  1  0  0  0  0 
 16 17  1  6  0  0  0 
 16 18  1  1  0  0  0 
 18 19  2  0  0  0  0 
 18 20  1  0  0  0  0 
 20 21  1  0  0  0  0 
 20 22  1  0  0  0  0 
 22 23  1  0  0  0  0 
 23 24  1  0  0  0  0 
 23 25  1  0  0  0  0 
 25 26  1  0  0  0  0 
 25 27  1  0  0  0  0 
 25 28  1  0  0  0  0 
 23 29  1  0  0  0  0 
 30 22  1  1  0  0  0 
 30 31  1  6  0  0  0 
 30 32  1  0  0  0  0 
 32 33  1  6  0  0  0 
 32 34  1  0  0  0  0 
 34 35  1  6  0  0  0 
 34 36  1  0  0  0  0 
 36 37  1  1  0  0  0 
 36 38  1  0  0  0  0 
 38 39  1  1  0  0  0 
 38 40  1  0  0  0  0 
 30 40  1  0  0  0  0 
 38 41  1  6  0  0  0 
 41 42  1  0  0  0  0 
 42 43  1  0  0  0  0 
 42 44  1  0  0  0  0 
 42 45  1  0  0  0  0 
 36 46  1  6  0  0  0 
 46 47  1  0  0  0  0 
 34 48  1  1  0  0  0 
 48 49  1  0  0  0  0 
 32 50  1  1  0  0  0 
 50 51  1  0  0  0  0 
 22 52  1  0  0  0  0 
 52 53  1  0  0  0  0 
 16 54  1  0  0  0  0 
 54 55  1  0  0  0  0 
 55 56  1  0  0  0  0 
 55 57  1  0  0  0  0 
 55 58  1  0  0  0  0 
 54 59  1  0  0  0  0 
 11 59  1  0  0  0  0 
 59 60  1  0  0  0  0 
 59 61  1  0  0  0  0 
M  END
> <Rank>
25

> <Priority_score>
0.04

> <Reaction_type>
aliphatic_hydroxylation_(tert_carbon_next_to_SP2)

> <Parent_ID>
21

> <Parent_InChI>
InChI=1S/C18H33ClN2O5S/c1-5-6-10-7-11(21(3)8-10)17(25)20-12(9(2)19)16-14(23)13(22)15(24)18(26-16)27-4/h9-16,18,22-24H,5-8H2,1-4H3,(H,20,25)

> <Parent_SMILES>
CCC[C@@H]1C[C@@H](C(=O)NC(C(C)Cl)[C@H]2O[C@H](SC)[C@H](O)[C@@H](O)[C@H]2O)N(C)C1

$$$$
Molecule 21_metabolite 26
  CDK     0516241031

 61 62  0  0  0  0  0  0  0  0999 V2000
    4.7864    2.8581    0.0000 C   0  0  0  0  0  0  0  0  0  0  0  0
    4.5824    4.3441    0.0000 H   0  0  0  0  0  0  0  0  0  0  0  0
    5.4863    1.5314    0.0000 H   0  0  0  0  0  0  0  0  0  0  0  0
    6.2144    3.3170    0.0000 H   0  0  0  0  0  0  0  0  0  0  0  0
    3.6014    1.9384    0.0000 C   0  0  0  0  0  0  0  0  0  0  0  0
    4.7128    0.9311    0.0000 H   0  0  0  0  0  0  0  0  0  0  0  0
    2.8024    0.6689    0.0000 H   0  0  0  0  0  0  0  0  0  0  0  0
    2.2124    2.5048    0.0000 C   0  0  0  0  0  0  0  0  0  0  0  0
    0.7453    3.8345    0.0000 H   0  0  0  0  0  0  0  0  0  0  0  0
    3.0114    3.7743    0.0000 H   0  0  0  0  0  0  0  0  0  0  0  0
    0.6482    1.2909    0.0000 C   0  0  2  0  0  0  0  0  0  0  0  0
    1.6864    0.2082    0.0000 H   0  0  0  0  0  0  0  0  0  0  0  0
   -0.3204    0.1455    0.0000 C   0  0  0  0  0  0  0  0  0  0  0  0
    0.9197   -0.6984    0.0000 H   0  0  0  0  0  0  0  0  0  0  0  0
   -1.0304   -1.1758    0.0000 H   0  0  0  0  0  0  0  0  0  0  0  0
   -1.7017    0.7112    0.0000 C   0  0  1  0  0  0  0  0  0  0  0  0
   -2.1187   -0.7297    0.0000 H   0  0  0  0  0  0  0  0  0  0  0  0
   -3.6515    1.0554    0.0000 C   0  0  0  0  0  0  0  0  0  0  0  0
   -4.1642    2.4651    0.0000 O   0  0  0  0  0  0  0  0  0  0  0  0
   -4.6159   -0.0934    0.0000 N   0  0  0  0  0  0  0  0  0  0  0  0
   -4.1032   -1.5031    0.0000 H   0  0  0  0  0  0  0  0  0  0  0  0
   -7.5112    0.4177    0.0000 C   0  0  0  0  0  0  0  0  0  0  0  0
   -8.9884    0.1575    0.0000 H   0  0  0  0  0  0  0  0  0  0  0  0
   -8.0239    1.8273    0.0000 C   0  0  2  0  0  0  0  0  0  0  0  0
   -6.5467    2.0877    0.0000 H   0  0  0  0  0  0  0  0  0  0  0  0
   -8.0239    3.3273    0.0000 C   0  0  1  0  0  0  0  0  0  0  0  0
   -6.5467    3.0670    0.0000 H   0  0  0  0  0  0  0  0  0  0  0  0
   -9.3239    4.0773    0.0000 C   0  0  1  0  0  0  0  0  0  0  0  0
   -8.3598    5.2265    0.0000 H   0  0  0  0  0  0  0  0  0  0  0  0
  -10.6239    3.3273    0.0000 C   0  0  2  0  0  0  0  0  0  0  0  0
  -11.1366    4.7370    0.0000 H   0  0  0  0  0  0  0  0  0  0  0  0
  -10.6239    1.8273    0.0000 C   0  0  2  0  0  0  0  0  0  0  0  0
  -12.1011    2.0877    0.0000 H   0  0  0  0  0  0  0  0  0  0  0  0
   -9.3239    1.0773    0.0000 O   0  0  0  0  0  0  0  0  0  0  0  0
  -11.1366    0.4177    0.0000 S   0  0  0  0  0  0  0  0  0  0  0  0
  -12.6138    0.1569    0.0000 C   0  0  0  0  0  0  0  0  0  0  0  0
  -13.5782    1.3058    0.0000 H   0  0  0  0  0  0  0  0  0  0  0  0
  -13.9127   -0.5934    0.0000 H   0  0  0  0  0  0  0  0  0  0  0  0
  -12.1005   -1.2525    0.0000 H   0  0  0  0  0  0  0  0  0  0  0  0
  -12.1011    3.0670    0.0000 O   0  0  0  0  0  0  0  0  0  0  0  0
  -13.0652    4.2162    0.0000 H   0  0  0  0  0  0  0  0  0  0  0  0
  -10.2880    5.2265    0.0000 O   0  0  0  0  0  0  0  0  0  0  0  0
   -9.7748    6.6360    0.0000 H   0  0  0  0  0  0  0  0  0  0  0  0
   -7.3471    5.1881    0.0000 O   0  0  0  0  0  0  0  0  0  0  0  0
   -8.3115    6.3369    0.0000 H   0  0  0  0  0  0  0  0  0  0  0  0
   -7.5115   -1.0823    0.0000 C   0  0  0  0  0  0  0  0  0  0  0  0
   -8.8107   -1.8320    0.0000 C   0  0  0  0  0  0  0  0  0  0  0  0
  -10.1096   -1.0817    0.0000 H   0  0  0  0  0  0  0  0  0  0  0  0
   -9.7751   -2.9809    0.0000 H   0  0  0  0  0  0  0  0  0  0  0  0
   -7.8468   -2.9813    0.0000 H   0  0  0  0  0  0  0  0  0  0  0  0
   -6.9988   -2.4919    0.0000 Cl  0  0  0  0  0  0  0  0  0  0  0  0
   -6.0342   -0.8221    0.0000 O   0  0  0  0  0  0  0  0  0  0  0  0
   -5.0703   -1.9714    0.0000 H   0  0  0  0  0  0  0  0  0  0  0  0
   -1.5999    2.2098    0.0000 N   0  0  0  0  0  0  0  0  0  0  0  0
   -2.7453    3.1784    0.0000 C   0  0  0  0  0  0  0  0  0  0  0  0
   -2.4792    4.6546    0.0000 H   0  0  0  0  0  0  0  0  0  0  0  0
   -3.5003    1.8822    0.0000 H   0  0  0  0  0  0  0  0  0  0  0  0
   -4.1529    3.6968    0.0000 H   0  0  0  0  0  0  0  0  0  0  0  0
   -0.1390    2.5590    0.0000 C   0  0  0  0  0  0  0  0  0  0  0  0
   -0.6416    3.9724    0.0000 H   0  0  0  0  0  0  0  0  0  0  0  0
    1.2125    3.2096    0.0000 H   0  0  0  0  0  0  0  0  0  0  0  0
  1  2  1  0  0  0  0 
  1  3  1  0  0  0  0 
  1  4  1  0  0  0  0 
  1  5  1  0  0  0  0 
  5  6  1  0  0  0  0 
  5  7  1  0  0  0  0 
  5  8  1  0  0  0  0 
  8  9  1  0  0  0  0 
  8 10  1  0  0  0  0 
 11  8  1  6  0  0  0 
 11 12  1  1  0  0  0 
 11 13  1  0  0  0  0 
 13 14  1  0  0  0  0 
 13 15  1  0  0  0  0 
 13 16  1  0  0  0  0 
 16 17  1  6  0  0  0 
 16 18  1  1  0  0  0 
 18 19  2  0  0  0  0 
 18 20  1  0  0  0  0 
 20 21  1  0  0  0  0 
 20 22  1  0  0  0  0 
 22 23  1  0  0  0  0 
 24 22  1  1  0  0  0 
 24 25  1  6  0  0  0 
 24 26  1  0  0  0  0 
 26 27  1  6  0  0  0 
 26 28  1  0  0  0  0 
 28 29  1  6  0  0  0 
 28 30  1  0  0  0  0 
 30 31  1  1  0  0  0 
 30 32  1  0  0  0  0 
 32 33  1  1  0  0  0 
 32 34  1  0  0  0  0 
 24 34  1  0  0  0  0 
 32 35  1  6  0  0  0 
 35 36  1  0  0  0  0 
 36 37  1  0  0  0  0 
 36 38  1  0  0  0  0 
 36 39  1  0  0  0  0 
 30 40  1  6  0  0  0 
 40 41  1  0  0  0  0 
 28 42  1  1  0  0  0 
 42 43  1  0  0  0  0 
 26 44  1  1  0  0  0 
 44 45  1  0  0  0  0 
 22 46  1  0  0  0  0 
 46 47  1  0  0  0  0 
 47 48  1  0  0  0  0 
 47 49  1  0  0  0  0 
 47 50  1  0  0  0  0 
 46 51  1  0  0  0  0 
 46 52  1  0  0  0  0 
 52 53  1  0  0  0  0 
 16 54  1  0  0  0  0 
 54 55  1  0  0  0  0 
 55 56  1  0  0  0  0 
 55 57  1  0  0  0  0 
 55 58  1  0  0  0  0 
 54 59  1  0  0  0  0 
 11 59  1  0  0  0  0 
 59 60  1  0  0  0  0 
 59 61  1  0  0  0  0 
M  END
> <Rank>
25

> <Priority_score>
0.04

> <Reaction_type>
aliphatic hydroxylation

> <Parent_ID>
21

> <Parent_InChI>
InChI=1S/C18H33ClN2O5S/c1-5-6-10-7-11(21(3)8-10)17(25)20-12(9(2)19)16-14(23)13(22)15(24)18(26-16)27-4/h9-16,18,22-24H,5-8H2,1-4H3,(H,20,25)

> <Parent_SMILES>
CCC[C@@H]1C[C@@H](C(=O)NC(C(C)Cl)[C@H]2O[C@H](SC)[C@H](O)[C@@H](O)[C@H]2O)N(C)C1

$$$$
Molecule 21_metabolite 27
  CDK     0516241031

 61 61  0  0  0  0  0  0  0  0999 V2000
    5.1116   11.2452    0.0000 C   0  0  0  0  0  0  0  0  0  0  0  0
    4.5989   12.6548    0.0000 H   0  0  0  0  0  0  0  0  0  0  0  0
    6.0756   10.0959    0.0000 H   0  0  0  0  0  0  0  0  0  0  0  0
    6.4108   11.9949    0.0000 H   0  0  0  0  0  0  0  0  0  0  0  0
    4.1472   10.0963    0.0000 C   0  0  0  0  0  0  0  0  0  0  0  0
    5.4461    9.3461    0.0000 H   0  0  0  0  0  0  0  0  0  0  0  0
    3.6339    8.6869    0.0000 H   0  0  0  0  0  0  0  0  0  0  0  0
    2.6700   10.3571    0.0000 C   0  0  0  0  0  0  0  0  0  0  0  0
    1.3712   11.1074    0.0000 H   0  0  0  0  0  0  0  0  0  0  0  0
    3.1834   11.7666    0.0000 H   0  0  0  0  0  0  0  0  0  0  0  0
    1.3970    8.8406    0.0000 C   0  0  2  0  0  0  0  0  0  0  0  0
    2.6959    8.0904    0.0000 H   0  0  0  0  0  0  0  0  0  0  0  0
   -0.5528    9.1849    0.0000 C   0  0  0  0  0  0  0  0  0  0  0  0
   -2.0301    8.9247    0.0000 H   0  0  0  0  0  0  0  0  0  0  0  0
   -0.5533    7.2049    0.0000 H   0  0  0  0  0  0  0  0  0  0  0  0
   -1.0656   10.5945    0.0000 C   0  0  0  0  0  0  0  0  0  0  0  0
   -0.1011   11.7434    0.0000 O   0  0  0  0  0  0  0  0  0  0  0  0
   -2.5427   10.8553    0.0000 C   0  0  0  0  0  0  0  0  0  0  0  0
   -3.5072    9.7064    0.0000 O   0  0  0  0  0  0  0  0  0  0  0  0
   -3.0555   12.2650    0.0000 N   0  0  0  0  0  0  0  0  0  0  0  0
   -2.0910   13.4138    0.0000 H   0  0  0  0  0  0  0  0  0  0  0  0
   -5.0053   12.6092    0.0000 C   0  0  0  0  0  0  0  0  0  0  0  0
   -6.3042   13.3595    0.0000 H   0  0  0  0  0  0  0  0  0  0  0  0
   -4.4920   14.0186    0.0000 C   0  0  0  0  0  0  0  0  0  0  0  0
   -3.5275   15.1675    0.0000 H   0  0  0  0  0  0  0  0  0  0  0  0
   -5.4559   15.1679    0.0000 C   0  0  0  0  0  0  0  0  0  0  0  0
   -6.9332   14.9077    0.0000 H   0  0  0  0  0  0  0  0  0  0  0  0
   -5.9686   16.5775    0.0000 H   0  0  0  0  0  0  0  0  0  0  0  0
   -4.1567   15.9176    0.0000 H   0  0  0  0  0  0  0  0  0  0  0  0
   -3.1931   13.2683    0.0000 Cl  0  0  0  0  0  0  0  0  0  0  0  0
   -5.9697   11.4603    0.0000 C   0  0  2  0  0  0  0  0  0  0  0  0
   -4.6709   10.7099    0.0000 H   0  0  0  0  0  0  0  0  0  0  0  0
   -6.4834   10.0510    0.0000 C   0  0  1  0  0  0  0  0  0  0  0  0
   -5.0063    9.7898    0.0000 H   0  0  0  0  0  0  0  0  0  0  0  0
   -7.9616    9.7915    0.0000 C   0  0  1  0  0  0  0  0  0  0  0  0
   -7.4493    8.3817    0.0000 H   0  0  0  0  0  0  0  0  0  0  0  0
   -8.9262   10.9413    0.0000 C   0  0  2  0  0  0  0  0  0  0  0  0
   -9.8906    9.7925    0.0000 H   0  0  0  0  0  0  0  0  0  0  0  0
   -8.4126   12.3506    0.0000 C   0  0  2  0  0  0  0  0  0  0  0  0
   -9.8896   12.6119    0.0000 H   0  0  0  0  0  0  0  0  0  0  0  0
   -6.9343   12.6101    0.0000 O   0  0  0  0  0  0  0  0  0  0  0  0
   -8.4116   13.8506    0.0000 S   0  0  0  0  0  0  0  0  0  0  0  0
   -9.7101   14.6015    0.0000 C   0  0  0  0  0  0  0  0  0  0  0  0
  -11.0097   13.8523    0.0000 H   0  0  0  0  0  0  0  0  0  0  0  0
  -10.6736   15.7511    0.0000 H   0  0  0  0  0  0  0  0  0  0  0  0
   -8.7452   15.7499    0.0000 H   0  0  0  0  0  0  0  0  0  0  0  0
  -10.2250   11.6917    0.0000 O   0  0  0  0  0  0  0  0  0  0  0  0
  -11.5243   10.9421    0.0000 H   0  0  0  0  0  0  0  0  0  0  0  0
   -9.2609    9.0419    0.0000 O   0  0  0  0  0  0  0  0  0  0  0  0
   -9.2613    7.5419    0.0000 H   0  0  0  0  0  0  0  0  0  0  0  0
   -6.4843    8.5510    0.0000 O   0  0  0  0  0  0  0  0  0  0  0  0
   -5.1858    7.8002    0.0000 H   0  0  0  0  0  0  0  0  0  0  0  0
    0.8837    7.4312    0.0000 C   0  0  0  0  0  0  0  0  0  0  0  0
   -0.0808    6.2823    0.0000 H   0  0  0  0  0  0  0  0  0  0  0  0
   -0.4152    8.1815    0.0000 H   0  0  0  0  0  0  0  0  0  0  0  0
    1.8476    6.2819    0.0000 N   0  0  0  0  0  0  0  0  0  0  0  0
    3.3249    6.5421    0.0000 H   0  0  0  0  0  0  0  0  0  0  0  0
    1.3343    4.8725    0.0000 C   0  0  0  0  0  0  0  0  0  0  0  0
   -0.1430    4.6123    0.0000 H   0  0  0  0  0  0  0  0  0  0  0  0
    2.8114    4.6117    0.0000 H   0  0  0  0  0  0  0  0  0  0  0  0
    1.3340    3.3725    0.0000 H   0  0  0  0  0  0  0  0  0  0  0  0
  1  2  1  0  0  0  0 
  1  3  1  0  0  0  0 
  1  4  1  0  0  0  0 
  1  5  1  0  0  0  0 
  5  6  1  0  0  0  0 
  5  7  1  0  0  0  0 
  5  8  1  0  0  0  0 
  8  9  1  0  0  0  0 
  8 10  1  0  0  0  0 
 11  8  1  1  0  0  0 
 11 12  1  6  0  0  0 
 11 13  1  0  0  0  0 
 13 14  1  0  0  0  0 
 13 15  1  0  0  0  0 
 13 16  1  0  0  0  0 
 16 17  2  0  0  0  0 
 16 18  1  0  0  0  0 
 18 19  2  0  0  0  0 
 18 20  1  0  0  0  0 
 20 21  1  0  0  0  0 
 20 22  1  0  0  0  0 
 22 23  1  0  0  0  0 
 22 24  1  0  0  0  0 
 24 25  1  0  0  0  0 
 24 26  1  0  0  0  0 
 26 27  1  0  0  0  0 
 26 28  1  0  0  0  0 
 26 29  1  0  0  0  0 
 24 30  1  0  0  0  0 
 31 22  1  6  0  0  0 
 31 32  1  1  0  0  0 
 31 33  1  0  0  0  0 
 33 34  1  1  0  0  0 
 33 35  1  0  0  0  0 
 35 36  1  1  0  0  0 
 35 37  1  0  0  0  0 
 37 38  1  6  0  0  0 
 37 39  1  0  0  0  0 
 39 40  1  6  0  0  0 
 39 41  1  0  0  0  0 
 31 41  1  0  0  0  0 
 39 42  1  1  0  0  0 
 42 43  1  0  0  0  0 
 43 44  1  0  0  0  0 
 43 45  1  0  0  0  0 
 43 46  1  0  0  0  0 
 37 47  1  1  0  0  0 
 47 48  1  0  0  0  0 
 35 49  1  6  0  0  0 
 49 50  1  0  0  0  0 
 33 51  1  6  0  0  0 
 51 52  1  0  0  0  0 
 11 53  1  0  0  0  0 
 53 54  1  0  0  0  0 
 53 55  1  0  0  0  0 
 53 56  1  0  0  0  0 
 56 57  1  0  0  0  0 
 56 58  1  0  0  0  0 
 58 59  1  0  0  0  0 
 58 60  1  0  0  0  0 
 58 61  1  0  0  0  0 
M  END
> <Rank>
25

> <Priority_score>
0.04

> <Reaction_type>
N-dealkylation

> <Parent_ID>
21

> <Parent_InChI>
InChI=1S/C18H33ClN2O5S/c1-5-6-10-7-11(21(3)8-10)17(25)20-12(9(2)19)16-14(23)13(22)15(24)18(26-16)27-4/h9-16,18,22-24H,5-8H2,1-4H3,(H,20,25)

> <Parent_SMILES>
CCC[C@@H]1C[C@@H](C(=O)NC(C(C)Cl)[C@H]2O[C@H](SC)[C@H](O)[C@@H](O)[C@H]2O)N(C)C1

$$$$
Molecule 21_metabolite 28
  CDK     0516241031

 61 62  0  0  0  0  0  0  0  0999 V2000
   -2.4809   -4.1184    0.0000 C   0  0  0  0  0  0  0  0  0  0  0  0
   -2.2769   -5.6045    0.0000 H   0  0  0  0  0  0  0  0  0  0  0  0
   -3.1808   -2.7917    0.0000 H   0  0  0  0  0  0  0  0  0  0  0  0
   -3.9089   -4.5773    0.0000 H   0  0  0  0  0  0  0  0  0  0  0  0
   -1.2959   -3.1987    0.0000 C   0  0  0  0  0  0  0  0  0  0  0  0
   -2.4073   -2.1914    0.0000 H   0  0  0  0  0  0  0  0  0  0  0  0
   -0.4969   -1.9292    0.0000 H   0  0  0  0  0  0  0  0  0  0  0  0
    0.0931   -3.7651    0.0000 C   0  0  0  0  0  0  0  0  0  0  0  0
    1.5602   -5.0948    0.0000 H   0  0  0  0  0  0  0  0  0  0  0  0
   -0.7059   -5.0346    0.0000 H   0  0  0  0  0  0  0  0  0  0  0  0
    1.6573   -2.5512    0.0000 C   0  0  2  0  0  0  0  0  0  0  0  0
    0.6191   -1.4685    0.0000 H   0  0  0  0  0  0  0  0  0  0  0  0
    2.6259   -1.4058    0.0000 C   0  0  0  0  0  0  0  0  0  0  0  0
    1.3858   -0.5619    0.0000 H   0  0  0  0  0  0  0  0  0  0  0  0
    3.3359   -0.0845    0.0000 H   0  0  0  0  0  0  0  0  0  0  0  0
    4.0072   -1.9715    0.0000 C   0  0  1  0  0  0  0  0  0  0  0  0
    4.4242   -0.5306    0.0000 H   0  0  0  0  0  0  0  0  0  0  0  0
    5.9570   -2.3157    0.0000 C   0  0  0  0  0  0  0  0  0  0  0  0
    6.4697   -3.7254    0.0000 O   0  0  0  0  0  0  0  0  0  0  0  0
    6.9214   -1.1669    0.0000 N   0  0  0  0  0  0  0  0  0  0  0  0
    6.4087    0.2428    0.0000 H   0  0  0  0  0  0  0  0  0  0  0  0
    8.8713   -1.5111    0.0000 C   0  0  0  0  0  0  0  0  0  0  0  0
   10.3486   -1.2510    0.0000 H   0  0  0  0  0  0  0  0  0  0  0  0
    8.8716   -0.0111    0.0000 C   0  0  0  0  0  0  0  0  0  0  0  0
    8.3589    1.3985    0.0000 H   0  0  0  0  0  0  0  0  0  0  0  0
   10.1708    0.7386    0.0000 C   0  0  0  0  0  0  0  0  0  0  0  0
   11.4697   -0.0117    0.0000 H   0  0  0  0  0  0  0  0  0  0  0  0
   11.1352    1.8875    0.0000 H   0  0  0  0  0  0  0  0  0  0  0  0
    9.2069    1.8879    0.0000 H   0  0  0  0  0  0  0  0  0  0  0  0
    7.3943   -0.2713    0.0000 Cl  0  0  0  0  0  0  0  0  0  0  0  0
    9.3840   -2.9208    0.0000 C   0  0  2  0  0  0  0  0  0  0  0  0
    7.9068   -3.1811    0.0000 H   0  0  0  0  0  0  0  0  0  0  0  0
    9.3840   -4.4208    0.0000 C   0  0  1  0  0  0  0  0  0  0  0  0
    7.9068   -4.1604    0.0000 H   0  0  0  0  0  0  0  0  0  0  0  0
   10.6840   -5.1708    0.0000 C   0  0  1  0  0  0  0  0  0  0  0  0
    9.7200   -6.3199    0.0000 H   0  0  0  0  0  0  0  0  0  0  0  0
   11.9840   -4.4208    0.0000 C   0  0  2  0  0  0  0  0  0  0  0  0
   12.4967   -5.8304    0.0000 H   0  0  0  0  0  0  0  0  0  0  0  0
   11.9840   -2.9208    0.0000 C   0  0  2  0  0  0  0  0  0  0  0  0
   13.4613   -3.1811    0.0000 O   0  0  0  0  0  0  0  0  0  0  0  0
   14.4671   -5.9437    0.0000 H   0  0  0  0  0  0  0  0  0  0  0  0
   10.6840   -2.1708    0.0000 O   0  0  0  0  0  0  0  0  0  0  0  0
   12.4967   -1.5111    0.0000 S   0  0  0  0  0  0  0  0  0  0  0  0
   13.9739   -1.2503    0.0000 C   0  0  0  0  0  0  0  0  0  0  0  0
   14.9383   -2.3992    0.0000 H   0  0  0  0  0  0  0  0  0  0  0  0
   15.2728   -0.5000    0.0000 H   0  0  0  0  0  0  0  0  0  0  0  0
   13.4606    0.1591    0.0000 H   0  0  0  0  0  0  0  0  0  0  0  0
   14.4067   -3.9938    0.0000 O   0  0  0  0  0  0  0  0  0  0  0  0
   15.3707   -5.1430    0.0000 H   0  0  0  0  0  0  0  0  0  0  0  0
   11.6481   -6.3199    0.0000 O   0  0  0  0  0  0  0  0  0  0  0  0
   11.1349   -7.7294    0.0000 H   0  0  0  0  0  0  0  0  0  0  0  0
    8.7072   -6.2815    0.0000 O   0  0  0  0  0  0  0  0  0  0  0  0
    9.6716   -7.4304    0.0000 H   0  0  0  0  0  0  0  0  0  0  0  0
    3.9054   -3.4701    0.0000 N   0  0  0  0  0  0  0  0  0  0  0  0
    5.0508   -4.4387    0.0000 C   0  0  0  0  0  0  0  0  0  0  0  0
    4.7847   -5.9149    0.0000 H   0  0  0  0  0  0  0  0  0  0  0  0
    5.8058   -3.1425    0.0000 H   0  0  0  0  0  0  0  0  0  0  0  0
    6.4584   -4.9571    0.0000 H   0  0  0  0  0  0  0  0  0  0  0  0
    2.4445   -3.8193    0.0000 C   0  0  0  0  0  0  0  0  0  0  0  0
    2.9471   -5.2327    0.0000 H   0  0  0  0  0  0  0  0  0  0  0  0
    1.0930   -4.4699    0.0000 H   0  0  0  0  0  0  0  0  0  0  0  0
  1  2  1  0  0  0  0 
  1  3  1  0  0  0  0 
  1  4  1  0  0  0  0 
  1  5  1  0  0  0  0 
  5  6  1  0  0  0  0 
  5  7  1  0  0  0  0 
  5  8  1  0  0  0  0 
  8  9  1  0  0  0  0 
  8 10  1  0  0  0  0 
 11  8  1  6  0  0  0 
 11 12  1  1  0  0  0 
 11 13  1  0  0  0  0 
 13 14  1  0  0  0  0 
 13 15  1  0  0  0  0 
 13 16  1  0  0  0  0 
 16 17  1  6  0  0  0 
 16 18  1  1  0  0  0 
 18 19  2  0  0  0  0 
 18 20  1  0  0  0  0 
 20 21  1  0  0  0  0 
 20 22  1  0  0  0  0 
 22 23  1  0  0  0  0 
 22 24  1  0  0  0  0 
 24 25  1  0  0  0  0 
 24 26  1  0  0  0  0 
 26 27  1  0  0  0  0 
 26 28  1  0  0  0  0 
 26 29  1  0  0  0  0 
 24 30  1  0  0  0  0 
 31 22  1  1  0  0  0 
 31 32  1  6  0  0  0 
 31 33  1  0  0  0  0 
 33 34  1  6  0  0  0 
 33 35  1  0  0  0  0 
 35 36  1  6  0  0  0 
 35 37  1  0  0  0  0 
 37 38  1  1  0  0  0 
 37 39  1  0  0  0  0 
 39 40  1  1  0  0  0 
 40 41  1  0  0  0  0 
 39 42  1  0  0  0  0 
 31 42  1  0  0  0  0 
 39 43  1  6  0  0  0 
 43 44  1  0  0  0  0 
 44 45  1  0  0  0  0 
 44 46  1  0  0  0  0 
 44 47  1  0  0  0  0 
 37 48  1  6  0  0  0 
 48 49  1  0  0  0  0 
 35 50  1  1  0  0  0 
 50 51  1  0  0  0  0 
 33 52  1  1  0  0  0 
 52 53  1  0  0  0  0 
 16 54  1  0  0  0  0 
 54 55  1  0  0  0  0 
 55 56  1  0  0  0  0 
 55 57  1  0  0  0  0 
 55 58  1  0  0  0  0 
 54 59  1  0  0  0  0 
 11 59  1  0  0  0  0 
 59 60  1  0  0  0  0 
 59 61  1  0  0  0  0 
M  END
> <Rank>
28

> <Priority_score>
0.036

> <Reaction_type>
aliphatic hydroxylation

> <Parent_ID>
21

> <Parent_InChI>
InChI=1S/C18H33ClN2O5S/c1-5-6-10-7-11(21(3)8-10)17(25)20-12(9(2)19)16-14(23)13(22)15(24)18(26-16)27-4/h9-16,18,22-24H,5-8H2,1-4H3,(H,20,25)

> <Parent_SMILES>
CCC[C@@H]1C[C@@H](C(=O)NC(C(C)Cl)[C@H]2O[C@H](SC)[C@H](O)[C@@H](O)[C@H]2O)N(C)C1

$$$$
Molecule 21_metabolite 29
  CDK     0516241031

 58 59  0  0  0  0  0  0  0  0999 V2000
  -12.6487    0.3455    0.0000 C   0  0  0  0  0  0  0  0  0  0  0  0
  -12.4447   -1.1405    0.0000 H   0  0  0  0  0  0  0  0  0  0  0  0
  -13.3486    1.6722    0.0000 H   0  0  0  0  0  0  0  0  0  0  0  0
  -14.0767   -0.1134    0.0000 H   0  0  0  0  0  0  0  0  0  0  0  0
  -11.4637    1.2652    0.0000 C   0  0  0  0  0  0  0  0  0  0  0  0
  -12.5751    2.2725    0.0000 H   0  0  0  0  0  0  0  0  0  0  0  0
  -10.6647    2.5347    0.0000 H   0  0  0  0  0  0  0  0  0  0  0  0
  -10.0747    0.6988    0.0000 C   0  0  0  0  0  0  0  0  0  0  0  0
   -8.6076   -0.6308    0.0000 H   0  0  0  0  0  0  0  0  0  0  0  0
  -10.8737   -0.5707    0.0000 H   0  0  0  0  0  0  0  0  0  0  0  0
   -8.5105    1.9127    0.0000 C   0  0  2  0  0  0  0  0  0  0  0  0
   -9.5487    2.9954    0.0000 H   0  0  0  0  0  0  0  0  0  0  0  0
   -7.5419    3.0581    0.0000 C   0  0  0  0  0  0  0  0  0  0  0  0
   -8.7820    3.9020    0.0000 H   0  0  0  0  0  0  0  0  0  0  0  0
   -6.8319    4.3794    0.0000 H   0  0  0  0  0  0  0  0  0  0  0  0
   -6.1606    2.4924    0.0000 C   0  0  1  0  0  0  0  0  0  0  0  0
   -5.7436    3.9333    0.0000 H   0  0  0  0  0  0  0  0  0  0  0  0
   -4.2108    2.1482    0.0000 C   0  0  0  0  0  0  0  0  0  0  0  0
   -3.6981    0.7386    0.0000 O   0  0  0  0  0  0  0  0  0  0  0  0
   -3.2464    3.2971    0.0000 N   0  0  0  0  0  0  0  0  0  0  0  0
   -3.7591    4.7067    0.0000 H   0  0  0  0  0  0  0  0  0  0  0  0
   -1.2965    2.9528    0.0000 C   0  0  0  0  0  0  0  0  0  0  0  0
    0.1808    3.2130    0.0000 H   0  0  0  0  0  0  0  0  0  0  0  0
   -1.2962    4.4528    0.0000 C   0  0  0  0  0  0  0  0  0  0  0  0
   -1.8089    5.8625    0.0000 H   0  0  0  0  0  0  0  0  0  0  0  0
    0.0030    5.2025    0.0000 C   0  0  0  0  0  0  0  0  0  0  0  0
    1.3019    4.4523    0.0000 H   0  0  0  0  0  0  0  0  0  0  0  0
    0.9674    6.3514    0.0000 H   0  0  0  0  0  0  0  0  0  0  0  0
   -0.9609    6.3518    0.0000 H   0  0  0  0  0  0  0  0  0  0  0  0
   -2.7735    4.1927    0.0000 Cl  0  0  0  0  0  0  0  0  0  0  0  0
   -0.7838    1.5432    0.0000 C   0  0  2  0  0  0  0  0  0  0  0  0
   -2.2610    1.2829    0.0000 H   0  0  0  0  0  0  0  0  0  0  0  0
   -0.7838    0.0432    0.0000 C   0  0  1  0  0  0  0  0  0  0  0  0
   -2.2610    0.3035    0.0000 H   0  0  0  0  0  0  0  0  0  0  0  0
    0.5162   -0.7068    0.0000 C   0  0  0  0  0  0  0  0  0  0  0  0
    0.5162   -2.2068    0.0000 O   0  0  0  0  0  0  0  0  0  0  0  0
    1.8162    0.0432    0.0000 C   0  0  2  0  0  0  0  0  0  0  0  0
    2.3290   -1.3665    0.0000 H   0  0  0  0  0  0  0  0  0  0  0  0
    1.8162    1.5432    0.0000 C   0  0  2  0  0  0  0  0  0  0  0  0
    3.2935    1.2829    0.0000 H   0  0  0  0  0  0  0  0  0  0  0  0
    0.5162    2.2932    0.0000 O   0  0  0  0  0  0  0  0  0  0  0  0
    2.3290    2.9528    0.0000 S   0  0  0  0  0  0  0  0  0  0  0  0
    3.8061    3.2136    0.0000 C   0  0  0  0  0  0  0  0  0  0  0  0
    4.7705    2.0648    0.0000 H   0  0  0  0  0  0  0  0  0  0  0  0
    5.1050    3.9639    0.0000 H   0  0  0  0  0  0  0  0  0  0  0  0
    3.2928    4.6230    0.0000 H   0  0  0  0  0  0  0  0  0  0  0  0
    3.2935    0.3035    0.0000 O   0  0  0  0  0  0  0  0  0  0  0  0
    4.2575   -0.8457    0.0000 H   0  0  0  0  0  0  0  0  0  0  0  0
   -1.2965   -1.3665    0.0000 O   0  0  0  0  0  0  0  0  0  0  0  0
   -0.3321   -2.5153    0.0000 H   0  0  0  0  0  0  0  0  0  0  0  0
   -6.2624    0.9938    0.0000 N   0  0  0  0  0  0  0  0  0  0  0  0
   -5.1170    0.0253    0.0000 C   0  0  0  0  0  0  0  0  0  0  0  0
   -5.3831   -1.4509    0.0000 H   0  0  0  0  0  0  0  0  0  0  0  0
   -4.3620    1.3214    0.0000 H   0  0  0  0  0  0  0  0  0  0  0  0
   -3.7094   -0.4932    0.0000 H   0  0  0  0  0  0  0  0  0  0  0  0
   -7.7233    0.6446    0.0000 C   0  0  0  0  0  0  0  0  0  0  0  0
   -7.2207   -0.7687    0.0000 H   0  0  0  0  0  0  0  0  0  0  0  0
   -9.0748   -0.0060    0.0000 H   0  0  0  0  0  0  0  0  0  0  0  0
  1  2  1  0  0  0  0 
  1  3  1  0  0  0  0 
  1  4  1  0  0  0  0 
  1  5  1  0  0  0  0 
  5  6  1  0  0  0  0 
  5  7  1  0  0  0  0 
  5  8  1  0  0  0  0 
  8  9  1  0  0  0  0 
  8 10  1  0  0  0  0 
 11  8  1  6  0  0  0 
 11 12  1  1  0  0  0 
 11 13  1  0  0  0  0 
 13 14  1  0  0  0  0 
 13 15  1  0  0  0  0 
 13 16  1  0  0  0  0 
 16 17  1  6  0  0  0 
 16 18  1  1  0  0  0 
 18 19  2  0  0  0  0 
 18 20  1  0  0  0  0 
 20 21  1  0  0  0  0 
 20 22  1  0  0  0  0 
 22 23  1  0  0  0  0 
 22 24  1  0  0  0  0 
 24 25  1  0  0  0  0 
 24 26  1  0  0  0  0 
 26 27  1  0  0  0  0 
 26 28  1  0  0  0  0 
 26 29  1  0  0  0  0 
 24 30  1  0  0  0  0 
 31 22  1  1  0  0  0 
 31 32  1  6  0  0  0 
 31 33  1  0  0  0  0 
 33 34  1  6  0  0  0 
 33 35  1  0  0  0  0 
 35 36  2  0  0  0  0 
 35 37  1  0  0  0  0 
 37 38  1  1  0  0  0 
 37 39  1  0  0  0  0 
 39 40  1  1  0  0  0 
 39 41  1  0  0  0  0 
 31 41  1  0  0  0  0 
 39 42  1  6  0  0  0 
 42 43  1  0  0  0  0 
 43 44  1  0  0  0  0 
 43 45  1  0  0  0  0 
 43 46  1  0  0  0  0 
 37 47  1  6  0  0  0 
 47 48  1  0  0  0  0 
 33 49  1  1  0  0  0 
 49 50  1  0  0  0  0 
 16 51  1  0  0  0  0 
 51 52  1  0  0  0  0 
 52 53  1  0  0  0  0 
 52 54  1  0  0  0  0 
 52 55  1  0  0  0  0 
 51 56  1  0  0  0  0 
 11 56  1  0  0  0  0 
 56 57  1  0  0  0  0 
 56 58  1  0  0  0  0 
M  END
> <Rank>
28

> <Priority_score>
0.036

> <Reaction_type>
alcohol oxidation

> <Parent_ID>
21

> <Parent_InChI>
InChI=1S/C18H33ClN2O5S/c1-5-6-10-7-11(21(3)8-10)17(25)20-12(9(2)19)16-14(23)13(22)15(24)18(26-16)27-4/h9-16,18,22-24H,5-8H2,1-4H3,(H,20,25)

> <Parent_SMILES>
CCC[C@@H]1C[C@@H](C(=O)NC(C(C)Cl)[C@H]2O[C@H](SC)[C@H](O)[C@@H](O)[C@H]2O)N(C)C1

$$$$
Molecule 21_metabolite 30
  CDK     0516241031

 61 62  0  0  0  0  0  0  0  0999 V2000
    4.9550    4.0467    0.0000 C   0  0  0  0  0  0  0  0  0  0  0  0
    4.7511    5.5328    0.0000 H   0  0  0  0  0  0  0  0  0  0  0  0
    5.6550    2.7200    0.0000 H   0  0  0  0  0  0  0  0  0  0  0  0
    6.3831    4.5056    0.0000 H   0  0  0  0  0  0  0  0  0  0  0  0
    3.7700    3.1271    0.0000 C   0  0  0  0  0  0  0  0  0  0  0  0
    4.8815    2.1198    0.0000 H   0  0  0  0  0  0  0  0  0  0  0  0
    2.9711    1.8576    0.0000 H   0  0  0  0  0  0  0  0  0  0  0  0
    2.3811    3.6935    0.0000 C   0  0  0  0  0  0  0  0  0  0  0  0
    1.2696    4.7008    0.0000 H   0  0  0  0  0  0  0  0  0  0  0  0
    3.1801    4.9630    0.0000 H   0  0  0  0  0  0  0  0  0  0  0  0
    0.0585    1.8909    0.0000 C   0  0  2  0  0  0  0  0  0  0  0  0
   -0.9101    0.7456    0.0000 C   0  0  0  0  0  0  0  0  0  0  0  0
    0.3300   -0.0983    0.0000 H   0  0  0  0  0  0  0  0  0  0  0  0
   -1.6201   -0.5757    0.0000 H   0  0  0  0  0  0  0  0  0  0  0  0
   -2.2914    1.3112    0.0000 C   0  0  1  0  0  0  0  0  0  0  0  0
   -2.7084   -0.1296    0.0000 H   0  0  0  0  0  0  0  0  0  0  0  0
   -4.2412    1.6555    0.0000 C   0  0  0  0  0  0  0  0  0  0  0  0
   -4.7540    3.0651    0.0000 O   0  0  0  0  0  0  0  0  0  0  0  0
   -5.2057    0.5066    0.0000 N   0  0  0  0  0  0  0  0  0  0  0  0
   -4.6929   -0.9030    0.0000 H   0  0  0  0  0  0  0  0  0  0  0  0
   -7.1555    0.8508    0.0000 C   0  0  0  0  0  0  0  0  0  0  0  0
   -8.6328    0.5907    0.0000 H   0  0  0  0  0  0  0  0  0  0  0  0
   -7.1558   -0.6492    0.0000 C   0  0  0  0  0  0  0  0  0  0  0  0
   -6.6431   -2.0588    0.0000 H   0  0  0  0  0  0  0  0  0  0  0  0
   -8.4550   -1.3989    0.0000 C   0  0  0  0  0  0  0  0  0  0  0  0
   -9.7539   -0.6486    0.0000 H   0  0  0  0  0  0  0  0  0  0  0  0
   -9.4194   -2.5477    0.0000 H   0  0  0  0  0  0  0  0  0  0  0  0
   -7.4911   -2.5481    0.0000 H   0  0  0  0  0  0  0  0  0  0  0  0
   -5.6786   -0.3890    0.0000 Cl  0  0  0  0  0  0  0  0  0  0  0  0
   -7.6682    2.2605    0.0000 C   0  0  2  0  0  0  0  0  0  0  0  0
   -6.1910    2.5208    0.0000 H   0  0  0  0  0  0  0  0  0  0  0  0
   -7.6682    3.7605    0.0000 C   0  0  1  0  0  0  0  0  0  0  0  0
   -6.1910    3.5002    0.0000 H   0  0  0  0  0  0  0  0  0  0  0  0
   -8.9682    4.5105    0.0000 C   0  0  1  0  0  0  0  0  0  0  0  0
   -8.0042    5.6597    0.0000 H   0  0  0  0  0  0  0  0  0  0  0  0
  -10.2682    3.7605    0.0000 C   0  0  2  0  0  0  0  0  0  0  0  0
  -10.7810    5.1701    0.0000 H   0  0  0  0  0  0  0  0  0  0  0  0
  -10.2682    2.2605    0.0000 C   0  0  2  0  0  0  0  0  0  0  0  0
  -11.7455    2.5208    0.0000 H   0  0  0  0  0  0  0  0  0  0  0  0
   -8.9682    1.5105    0.0000 O   0  0  0  0  0  0  0  0  0  0  0  0
  -10.7810    0.8508    0.0000 S   0  0  0  0  0  0  0  0  0  0  0  0
  -12.2581    0.5901    0.0000 C   0  0  0  0  0  0  0  0  0  0  0  0
  -13.2225    1.7389    0.0000 H   0  0  0  0  0  0  0  0  0  0  0  0
  -13.5570   -0.1602    0.0000 H   0  0  0  0  0  0  0  0  0  0  0  0
  -11.7448   -0.8194    0.0000 H   0  0  0  0  0  0  0  0  0  0  0  0
  -11.7455    3.5002    0.0000 O   0  0  0  0  0  0  0  0  0  0  0  0
  -12.7095    4.6494    0.0000 H   0  0  0  0  0  0  0  0  0  0  0  0
   -9.9323    5.6597    0.0000 O   0  0  0  0  0  0  0  0  0  0  0  0
   -9.4191    7.0692    0.0000 H   0  0  0  0  0  0  0  0  0  0  0  0
   -6.9914    5.6212    0.0000 O   0  0  0  0  0  0  0  0  0  0  0  0
   -7.9559    6.7701    0.0000 H   0  0  0  0  0  0  0  0  0  0  0  0
   -2.1897    2.8098    0.0000 N   0  0  0  0  0  0  0  0  0  0  0  0
   -3.3350    3.7784    0.0000 C   0  0  0  0  0  0  0  0  0  0  0  0
   -3.0689    5.2546    0.0000 H   0  0  0  0  0  0  0  0  0  0  0  0
   -4.0900    2.4823    0.0000 H   0  0  0  0  0  0  0  0  0  0  0  0
   -4.7426    4.2968    0.0000 H   0  0  0  0  0  0  0  0  0  0  0  0
   -0.7288    3.1591    0.0000 C   0  0  0  0  0  0  0  0  0  0  0  0
   -1.2313    4.5724    0.0000 H   0  0  0  0  0  0  0  0  0  0  0  0
    0.6228    3.8096    0.0000 H   0  0  0  0  0  0  0  0  0  0  0  0
    1.0967    0.8082    0.0000 O   0  0  0  0  0  0  0  0  0  0  0  0
    0.9346   -0.6830    0.0000 H   0  0  0  0  0  0  0  0  0  0  0  0
  1  2  1  0  0  0  0 
  1  3  1  0  0  0  0 
  1  4  1  0  0  0  0 
  1  5  1  0  0  0  0 
  5  6  1  0  0  0  0 
  5  7  1  0  0  0  0 
  5  8  1  0  0  0  0 
  8  9  1  0  0  0  0 
  8 10  1  0  0  0  0 
 11  8  1  6  0  0  0 
 11 12  1  0  0  0  0 
 12 13  1  0  0  0  0 
 12 14  1  0  0  0  0 
 12 15  1  0  0  0  0 
 15 16  1  6  0  0  0 
 15 17  1  1  0  0  0 
 17 18  2  0  0  0  0 
 17 19  1  0  0  0  0 
 19 20  1  0  0  0  0 
 19 21  1  0  0  0  0 
 21 22  1  0  0  0  0 
 21 23  1  0  0  0  0 
 23 24  1  0  0  0  0 
 23 25  1  0  0  0  0 
 25 26  1  0  0  0  0 
 25 27  1  0  0  0  0 
 25 28  1  0  0  0  0 
 23 29  1  0  0  0  0 
 30 21  1  1  0  0  0 
 30 31  1  6  0  0  0 
 30 32  1  0  0  0  0 
 32 33  1  6  0  0  0 
 32 34  1  0  0  0  0 
 34 35  1  6  0  0  0 
 34 36  1  0  0  0  0 
 36 37  1  1  0  0  0 
 36 38  1  0  0  0  0 
 38 39  1  1  0  0  0 
 38 40  1  0  0  0  0 
 30 40  1  0  0  0  0 
 38 41  1  6  0  0  0 
 41 42  1  0  0  0  0 
 42 43  1  0  0  0  0 
 42 44  1  0  0  0  0 
 42 45  1  0  0  0  0 
 36 46  1  6  0  0  0 
 46 47  1  0  0  0  0 
 34 48  1  1  0  0  0 
 48 49  1  0  0  0  0 
 32 50  1  1  0  0  0 
 50 51  1  0  0  0  0 
 15 52  1  0  0  0  0 
 52 53  1  0  0  0  0 
 53 54  1  0  0  0  0 
 53 55  1  0  0  0  0 
 53 56  1  0  0  0  0 
 52 57  1  0  0  0  0 
 11 57  1  0  0  0  0 
 57 58  1  0  0  0  0 
 57 59  1  0  0  0  0 
 11 60  1  1  0  0  0 
 60 61  1  0  0  0  0 
M  END
> <Rank>
30

> <Priority_score>
0.032

> <Reaction_type>
aliphatic hydroxylation

> <Parent_ID>
21

> <Parent_InChI>
InChI=1S/C18H33ClN2O5S/c1-5-6-10-7-11(21(3)8-10)17(25)20-12(9(2)19)16-14(23)13(22)15(24)18(26-16)27-4/h9-16,18,22-24H,5-8H2,1-4H3,(H,20,25)

> <Parent_SMILES>
CCC[C@@H]1C[C@@H](C(=O)NC(C(C)Cl)[C@H]2O[C@H](SC)[C@H](O)[C@@H](O)[C@H]2O)N(C)C1

$$$$
Molecule 21_metabolite 31
  CDK     0516241031

 58 59  0  0  0  0  0  0  0  0999 V2000
  -12.4846    0.7966    0.0000 C   0  0  0  0  0  0  0  0  0  0  0  0
  -13.8735    1.3630    0.0000 H   0  0  0  0  0  0  0  0  0  0  0  0
  -12.2806   -0.6894    0.0000 H   0  0  0  0  0  0  0  0  0  0  0  0
  -11.2996    1.7163    0.0000 C   0  0  0  0  0  0  0  0  0  0  0  0
  -11.5035    3.2024    0.0000 H   0  0  0  0  0  0  0  0  0  0  0  0
   -9.9106    1.1499    0.0000 C   0  0  0  0  0  0  0  0  0  0  0  0
   -8.4435   -0.1798    0.0000 H   0  0  0  0  0  0  0  0  0  0  0  0
  -10.7096   -0.1196    0.0000 H   0  0  0  0  0  0  0  0  0  0  0  0
   -8.3464    2.3638    0.0000 C   0  0  2  0  0  0  0  0  0  0  0  0
   -9.3846    3.4465    0.0000 H   0  0  0  0  0  0  0  0  0  0  0  0
   -7.3779    3.5092    0.0000 C   0  0  0  0  0  0  0  0  0  0  0  0
   -8.6180    4.3531    0.0000 H   0  0  0  0  0  0  0  0  0  0  0  0
   -6.6678    4.8305    0.0000 H   0  0  0  0  0  0  0  0  0  0  0  0
   -5.9966    2.9435    0.0000 C   0  0  1  0  0  0  0  0  0  0  0  0
   -5.5795    4.3844    0.0000 H   0  0  0  0  0  0  0  0  0  0  0  0
   -4.0467    2.5993    0.0000 C   0  0  0  0  0  0  0  0  0  0  0  0
   -3.5340    1.1896    0.0000 O   0  0  0  0  0  0  0  0  0  0  0  0
   -3.0823    3.7482    0.0000 N   0  0  0  0  0  0  0  0  0  0  0  0
   -3.5950    5.1578    0.0000 H   0  0  0  0  0  0  0  0  0  0  0  0
   -1.1324    3.4039    0.0000 C   0  0  0  0  0  0  0  0  0  0  0  0
    0.3448    3.6641    0.0000 H   0  0  0  0  0  0  0  0  0  0  0  0
   -1.1321    4.9039    0.0000 C   0  0  0  0  0  0  0  0  0  0  0  0
   -1.6448    6.3136    0.0000 H   0  0  0  0  0  0  0  0  0  0  0  0
    0.1671    5.6536    0.0000 C   0  0  0  0  0  0  0  0  0  0  0  0
    1.4660    4.9034    0.0000 H   0  0  0  0  0  0  0  0  0  0  0  0
    1.1315    6.8025    0.0000 H   0  0  0  0  0  0  0  0  0  0  0  0
   -0.7969    6.8029    0.0000 H   0  0  0  0  0  0  0  0  0  0  0  0
   -2.6094    4.6438    0.0000 Cl  0  0  0  0  0  0  0  0  0  0  0  0
   -0.6197    1.9943    0.0000 C   0  0  2  0  0  0  0  0  0  0  0  0
   -2.0969    1.7339    0.0000 H   0  0  0  0  0  0  0  0  0  0  0  0
   -0.6197    0.4943    0.0000 C   0  0  1  0  0  0  0  0  0  0  0  0
   -2.0969    0.7546    0.0000 H   0  0  0  0  0  0  0  0  0  0  0  0
    0.6803   -0.2557    0.0000 C   0  0  1  0  0  0  0  0  0  0  0  0
   -0.2838   -1.4049    0.0000 H   0  0  0  0  0  0  0  0  0  0  0  0
    1.9803    0.4943    0.0000 C   0  0  2  0  0  0  0  0  0  0  0  0
    2.4930   -0.9154    0.0000 H   0  0  0  0  0  0  0  0  0  0  0  0
    1.9803    1.9943    0.0000 C   0  0  2  0  0  0  0  0  0  0  0  0
    3.4575    1.7339    0.0000 H   0  0  0  0  0  0  0  0  0  0  0  0
    0.6803    2.7443    0.0000 O   0  0  0  0  0  0  0  0  0  0  0  0
    2.4930    3.4039    0.0000 S   0  0  0  0  0  0  0  0  0  0  0  0
    3.9702    3.6647    0.0000 C   0  0  0  0  0  0  0  0  0  0  0  0
    4.9346    2.5158    0.0000 H   0  0  0  0  0  0  0  0  0  0  0  0
    5.2691    4.4150    0.0000 H   0  0  0  0  0  0  0  0  0  0  0  0
    3.4568    5.0741    0.0000 H   0  0  0  0  0  0  0  0  0  0  0  0
    3.4575    0.7546    0.0000 O   0  0  0  0  0  0  0  0  0  0  0  0
    4.4216   -0.3946    0.0000 H   0  0  0  0  0  0  0  0  0  0  0  0
    1.6444   -1.4049    0.0000 O   0  0  0  0  0  0  0  0  0  0  0  0
    1.1312   -2.8144    0.0000 H   0  0  0  0  0  0  0  0  0  0  0  0
   -1.2965   -1.3665    0.0000 O   0  0  0  0  0  0  0  0  0  0  0  0
   -0.3321   -2.5153    0.0000 H   0  0  0  0  0  0  0  0  0  0  0  0
   -6.0983    1.4449    0.0000 N   0  0  0  0  0  0  0  0  0  0  0  0
   -4.9529    0.4763    0.0000 C   0  0  0  0  0  0  0  0  0  0  0  0
   -5.2190   -0.9999    0.0000 H   0  0  0  0  0  0  0  0  0  0  0  0
   -4.1979    1.7725    0.0000 H   0  0  0  0  0  0  0  0  0  0  0  0
   -3.5453   -0.0421    0.0000 H   0  0  0  0  0  0  0  0  0  0  0  0
   -7.5592    1.0957    0.0000 C   0  0  0  0  0  0  0  0  0  0  0  0
   -7.0567   -0.3176    0.0000 H   0  0  0  0  0  0  0  0  0  0  0  0
   -8.9108    0.4451    0.0000 H   0  0  0  0  0  0  0  0  0  0  0  0
  1  2  1  0  0  0  0 
  1  3  1  0  0  0  0 
  1  4  2  0  0  0  0 
  4  5  1  0  0  0  0 
  4  6  1  0  0  0  0 
  6  7  1  0  0  0  0 
  6  8  1  0  0  0  0 
  9  6  1  6  0  0  0 
  9 10  1  1  0  0  0 
  9 11  1  0  0  0  0 
 11 12  1  0  0  0  0 
 11 13  1  0  0  0  0 
 11 14  1  0  0  0  0 
 14 15  1  6  0  0  0 
 14 16  1  1  0  0  0 
 16 17  2  0  0  0  0 
 16 18  1  0  0  0  0 
 18 19  1  0  0  0  0 
 18 20  1  0  0  0  0 
 20 21  1  0  0  0  0 
 20 22  1  0  0  0  0 
 22 23  1  0  0  0  0 
 22 24  1  0  0  0  0 
 24 25  1  0  0  0  0 
 24 26  1  0  0  0  0 
 24 27  1  0  0  0  0 
 22 28  1  0  0  0  0 
 29 20  1  1  0  0  0 
 29 30  1  6  0  0  0 
 29 31  1  0  0  0  0 
 31 32  1  6  0  0  0 
 31 33  1  0  0  0  0 
 33 34  1  6  0  0  0 
 33 35  1  0  0  0  0 
 35 36  1  1  0  0  0 
 35 37  1  0  0  0  0 
 37 38  1  1  0  0  0 
 37 39  1  0  0  0  0 
 29 39  1  0  0  0  0 
 37 40  1  6  0  0  0 
 40 41  1  0  0  0  0 
 41 42  1  0  0  0  0 
 41 43  1  0  0  0  0 
 41 44  1  0  0  0  0 
 35 45  1  6  0  0  0 
 45 46  1  0  0  0  0 
 33 47  1  1  0  0  0 
 47 48  1  0  0  0  0 
 31 49  1  1  0  0  0 
 49 50  1  0  0  0  0 
 14 51  1  0  0  0  0 
 51 52  1  0  0  0  0 
 52 53  1  0  0  0  0 
 52 54  1  0  0  0  0 
 52 55  1  0  0  0  0 
 51 56  1  0  0  0  0 
  9 56  1  0  0  0  0 
 56 57  1  0  0  0  0 
 56 58  1  0  0  0  0 
M  END
> <Rank>
31

> <Priority_score>
0.0288

> <Reaction_type>
alkyl dehydrogenation

> <Parent_ID>
21

> <Parent_InChI>
InChI=1S/C18H33ClN2O5S/c1-5-6-10-7-11(21(3)8-10)17(25)20-12(9(2)19)16-14(23)13(22)15(24)18(26-16)27-4/h9-16,18,22-24H,5-8H2,1-4H3,(H,20,25)

> <Parent_SMILES>
CCC[C@@H]1C[C@@H](C(=O)NC(C(C)Cl)[C@H]2O[C@H](SC)[C@H](O)[C@@H](O)[C@H]2O)N(C)C1

$$$$
Molecule 21_metabolite 32
  CDK     0516241031

 61 62  0  0  0  0  0  0  0  0999 V2000
   -3.9710   -5.4151    0.0000 C   0  0  0  0  0  0  0  0  0  0  0  0
   -4.7695   -4.1453    0.0000 H   0  0  0  0  0  0  0  0  0  0  0  0
   -3.6550   -6.8814    0.0000 H   0  0  0  0  0  0  0  0  0  0  0  0
   -5.3602   -5.9809    0.0000 H   0  0  0  0  0  0  0  0  0  0  0  0
   -2.4721   -5.3585    0.0000 C   0  0  0  0  0  0  0  0  0  0  0  0
   -2.6767   -6.8445    0.0000 H   0  0  0  0  0  0  0  0  0  0  0  0
   -1.0442   -5.8181    0.0000 H   0  0  0  0  0  0  0  0  0  0  0  0
   -1.7716   -4.0321    0.0000 C   0  0  0  0  0  0  0  0  0  0  0  0
   -1.5016   -2.0706    0.0000 H   0  0  0  0  0  0  0  0  0  0  0  0
   -3.1995   -3.5726    0.0000 H   0  0  0  0  0  0  0  0  0  0  0  0
    0.2070   -3.9575    0.0000 C   0  0  2  0  0  0  0  0  0  0  0  0
    0.1070   -5.4541    0.0000 H   0  0  0  0  0  0  0  0  0  0  0  0
    1.6851   -4.2129    0.0000 C   0  0  0  0  0  0  0  0  0  0  0  0
    1.2769   -5.6563    0.0000 H   0  0  0  0  0  0  0  0  0  0  0  0
    3.0781   -4.7693    0.0000 H   0  0  0  0  0  0  0  0  0  0  0  0
    2.3802   -2.8920    0.0000 C   0  0  1  0  0  0  0  0  0  0  0  0
    3.6254   -3.7283    0.0000 H   0  0  0  0  0  0  0  0  0  0  0  0
    3.6532   -1.3755    0.0000 C   0  0  0  0  0  0  0  0  0  0  0  0
    3.1405    0.0341    0.0000 O   0  0  0  0  0  0  0  0  0  0  0  0
    5.1304   -1.6363    0.0000 N   0  0  0  0  0  0  0  0  0  0  0  0
    5.6431   -3.0459    0.0000 H   0  0  0  0  0  0  0  0  0  0  0  0
    6.4034   -0.1198    0.0000 C   0  0  0  0  0  0  0  0  0  0  0  0
    6.9167    1.2896    0.0000 H   0  0  0  0  0  0  0  0  0  0  0  0
    5.1045    0.6305    0.0000 C   0  0  0  0  0  0  0  0  0  0  0  0
    3.6274    0.8913    0.0000 H   0  0  0  0  0  0  0  0  0  0  0  0
    5.1051    3.0905    0.0000 C   0  0  0  0  0  0  0  0  0  0  0  0
    6.4043    3.8402    0.0000 H   0  0  0  0  0  0  0  0  0  0  0  0
    4.5923    4.5001    0.0000 H   0  0  0  0  0  0  0  0  0  0  0  0
    3.6278    2.8303    0.0000 H   0  0  0  0  0  0  0  0  0  0  0  0
    4.5912   -0.7790    0.0000 Cl  0  0  0  0  0  0  0  0  0  0  0  0
    7.8806   -0.3806    0.0000 C   0  0  2  0  0  0  0  0  0  0  0  0
    7.3674   -1.7901    0.0000 H   0  0  0  0  0  0  0  0  0  0  0  0
    9.1796   -1.1306    0.0000 C   0  0  1  0  0  0  0  0  0  0  0  0
   10.4791   -0.3798    0.0000 C   0  0  1  0  0  0  0  0  0  0  0  0
   10.9923   -1.7892    0.0000 H   0  0  0  0  0  0  0  0  0  0  0  0
   10.4796    1.1211    0.0000 C   0  0  2  0  0  0  0  0  0  0  0  0
   11.9568    0.8603    0.0000 H   0  0  0  0  0  0  0  0  0  0  0  0
    9.1806    1.8711    0.0000 C   0  0  2  0  0  0  0  0  0  0  0  0
   10.1446    3.0202    0.0000 H   0  0  0  0  0  0  0  0  0  0  0  0
    7.8810    1.1202    0.0000 O   0  0  0  0  0  0  0  0  0  0  0  0
    8.2161    3.0199    0.0000 S   0  0  0  0  0  0  0  0  0  0  0  0
    8.7289    4.4296    0.0000 C   0  0  0  0  0  0  0  0  0  0  0  0
   10.2060    4.6904    0.0000 H   0  0  0  0  0  0  0  0  0  0  0  0
    8.7285    5.9296    0.0000 H   0  0  0  0  0  0  0  0  0  0  0  0
    7.2516    4.6897    0.0000 H   0  0  0  0  0  0  0  0  0  0  0  0
   10.9928    2.5306    0.0000 O   0  0  0  0  0  0  0  0  0  0  0  0
   12.4700    2.7909    0.0000 H   0  0  0  0  0  0  0  0  0  0  0  0
   11.9564   -0.1194    0.0000 O   0  0  0  0  0  0  0  0  0  0  0  0
   12.9204   -1.2686    0.0000 H   0  0  0  0  0  0  0  0  0  0  0  0
    8.2155   -2.2798    0.0000 O   0  0  0  0  0  0  0  0  0  0  0  0
    8.7287   -3.6892    0.0000 H   0  0  0  0  0  0  0  0  0  0  0  0
   10.1440   -2.2795    0.0000 O   0  0  0  0  0  0  0  0  0  0  0  0
    9.6313   -3.6891    0.0000 H   0  0  0  0  0  0  0  0  0  0  0  0
    1.3394   -1.8089    0.0000 N   0  0  0  0  0  0  0  0  0  0  0  0
    1.5949   -0.3309    0.0000 C   0  0  0  0  0  0  0  0  0  0  0  0
    0.4425    0.6294    0.0000 H   0  0  0  0  0  0  0  0  0  0  0  0
    3.0061   -0.8391    0.0000 H   0  0  0  0  0  0  0  0  0  0  0  0
    2.3404    0.9707    0.0000 H   0  0  0  0  0  0  0  0  0  0  0  0
   -0.0045   -2.4799    0.0000 C   0  0  0  0  0  0  0  0  0  0  0  0
   -0.5274   -1.0740    0.0000 H   0  0  0  0  0  0  0  0  0  0  0  0
   -1.4582   -2.8497    0.0000 H   0  0  0  0  0  0  0  0  0  0  0  0
  1  2  1  0  0  0  0 
  1  3  1  0  0  0  0 
  1  4  1  0  0  0  0 
  1  5  1  0  0  0  0 
  5  6  1  0  0  0  0 
  5  7  1  0  0  0  0 
  5  8  1  0  0  0  0 
  8  9  1  0  0  0  0 
  8 10  1  0  0  0  0 
 11  8  1  1  0  0  0 
 11 12  1  6  0  0  0 
 11 13  1  0  0  0  0 
 13 14  1  0  0  0  0 
 13 15  1  0  0  0  0 
 13 16  1  0  0  0  0 
 16 17  1  1  0  0  0 
 16 18  1  6  0  0  0 
 18 19  2  0  0  0  0 
 18 20  1  0  0  0  0 
 20 21  1  0  0  0  0 
 20 22  1  0  0  0  0 
 22 23  1  0  0  0  0 
 22 24  1  0  0  0  0 
 24 25  1  0  0  0  0 
 24 26  1  0  0  0  0 
 26 27  1  0  0  0  0 
 26 28  1  0  0  0  0 
 26 29  1  0  0  0  0 
 24 30  1  0  0  0  0 
 31 22  1  1  0  0  0 
 31 32  1  6  0  0  0 
 31 33  1  0  0  0  0 
 33 34  1  0  0  0  0 
 34 35  1  6  0  0  0 
 34 36  1  0  0  0  0 
 36 37  1  1  0  0  0 
 36 38  1  0  0  0  0 
 38 39  1  1  0  0  0 
 38 40  1  0  0  0  0 
 31 40  1  0  0  0  0 
 38 41  1  6  0  0  0 
 41 42  1  0  0  0  0 
 42 43  1  0  0  0  0 
 42 44  1  0  0  0  0 
 42 45  1  0  0  0  0 
 36 46  1  6  0  0  0 
 46 47  1  0  0  0  0 
 34 48  1  1  0  0  0 
 48 49  1  0  0  0  0 
 33 50  1  1  0  0  0 
 50 51  1  0  0  0  0 
 33 52  1  6  0  0  0 
 52 53  1  0  0  0  0 
 16 54  1  0  0  0  0 
 54 55  1  0  0  0  0 
 55 56  1  0  0  0  0 
 55 57  1  0  0  0  0 
 55 58  1  0  0  0  0 
 54 59  1  0  0  0  0 
 11 59  1  0  0  0  0 
 59 60  1  0  0  0  0 
 59 61  1  0  0  0  0 
M  END
> <Rank>
32

> <Priority_score>
0.028

> <Reaction_type>
aliphatic hydroxylation

> <Parent_ID>
21

> <Parent_InChI>
InChI=1S/C18H33ClN2O5S/c1-5-6-10-7-11(21(3)8-10)17(25)20-12(9(2)19)16-14(23)13(22)15(24)18(26-16)27-4/h9-16,18,22-24H,5-8H2,1-4H3,(H,20,25)

> <Parent_SMILES>
CCC[C@@H]1C[C@@H](C(=O)NC(C(C)Cl)[C@H]2O[C@H](SC)[C@H](O)[C@@H](O)[C@H]2O)N(C)C1

$$$$
Molecule 21_metabolite 33
  CDK     0516241031

 58 59  0  0  0  0  0  0  0  0999 V2000
    3.3104    3.1342    0.0000 C   0  0  0  0  0  0  0  0  0  0  0  0
    3.1064    4.6203    0.0000 H   0  0  0  0  0  0  0  0  0  0  0  0
    4.0103    1.8075    0.0000 H   0  0  0  0  0  0  0  0  0  0  0  0
    4.7385    3.5931    0.0000 H   0  0  0  0  0  0  0  0  0  0  0  0
    2.1254    2.2145    0.0000 C   0  0  0  0  0  0  0  0  0  0  0  0
    3.2368    1.2072    0.0000 H   0  0  0  0  0  0  0  0  0  0  0  0
    1.3264    0.9450    0.0000 H   0  0  0  0  0  0  0  0  0  0  0  0
    0.7364    2.7809    0.0000 C   0  0  0  0  0  0  0  0  0  0  0  0
   -0.7307    4.1106    0.0000 H   0  0  0  0  0  0  0  0  0  0  0  0
    1.5354    4.0504    0.0000 H   0  0  0  0  0  0  0  0  0  0  0  0
   -0.8278    1.5670    0.0000 C   0  0  2  0  0  0  0  0  0  0  0  0
    0.2104    0.4843    0.0000 H   0  0  0  0  0  0  0  0  0  0  0  0
   -1.7963    0.4216    0.0000 C   0  0  0  0  0  0  0  0  0  0  0  0
   -0.5562   -0.4223    0.0000 H   0  0  0  0  0  0  0  0  0  0  0  0
   -2.5064   -0.8997    0.0000 H   0  0  0  0  0  0  0  0  0  0  0  0
   -3.1776    0.9873    0.0000 C   0  0  1  0  0  0  0  0  0  0  0  0
   -3.5946   -0.4536    0.0000 H   0  0  0  0  0  0  0  0  0  0  0  0
   -4.6548    1.2481    0.0000 C   0  0  0  0  0  0  0  0  0  0  0  0
   -5.1675    2.6577    0.0000 O   0  0  0  0  0  0  0  0  0  0  0  0
   -5.6192    0.0992    0.0000 N   0  0  0  0  0  0  0  0  0  0  0  0
   -5.1065   -1.3104    0.0000 H   0  0  0  0  0  0  0  0  0  0  0  0
   -7.5691    0.4435    0.0000 C   0  0  0  0  0  0  0  0  0  0  0  0
   -9.0463    0.1833    0.0000 H   0  0  0  0  0  0  0  0  0  0  0  0
   -7.5694   -1.0565    0.0000 C   0  0  0  0  0  0  0  0  0  0  0  0
   -7.0567   -2.4662    0.0000 H   0  0  0  0  0  0  0  0  0  0  0  0
   -8.8686   -1.8063    0.0000 C   0  0  0  0  0  0  0  0  0  0  0  0
  -10.1675   -1.0560    0.0000 H   0  0  0  0  0  0  0  0  0  0  0  0
   -9.8330   -2.9551    0.0000 H   0  0  0  0  0  0  0  0  0  0  0  0
   -7.9047   -2.9555    0.0000 H   0  0  0  0  0  0  0  0  0  0  0  0
   -6.0921   -0.7964    0.0000 Cl  0  0  0  0  0  0  0  0  0  0  0  0
   -8.0818    1.8531    0.0000 C   0  0  2  0  0  0  0  0  0  0  0  0
   -6.6046    2.1134    0.0000 H   0  0  0  0  0  0  0  0  0  0  0  0
   -8.0818    3.3531    0.0000 C   0  0  0  0  0  0  0  0  0  0  0  0
   -6.7829    4.1033    0.0000 O   0  0  0  0  0  0  0  0  0  0  0  0
   -9.3818    4.1031    0.0000 C   0  0  1  0  0  0  0  0  0  0  0  0
   -8.4177    5.2523    0.0000 H   0  0  0  0  0  0  0  0  0  0  0  0
  -10.6818    3.3531    0.0000 C   0  0  2  0  0  0  0  0  0  0  0  0
  -11.1945    4.7628    0.0000 H   0  0  0  0  0  0  0  0  0  0  0  0
  -10.6818    1.8531    0.0000 C   0  0  2  0  0  0  0  0  0  0  0  0
  -12.1590    2.1134    0.0000 H   0  0  0  0  0  0  0  0  0  0  0  0
   -9.3818    1.1031    0.0000 O   0  0  0  0  0  0  0  0  0  0  0  0
  -11.1945    0.4435    0.0000 S   0  0  0  0  0  0  0  0  0  0  0  0
  -12.6717    0.1827    0.0000 C   0  0  0  0  0  0  0  0  0  0  0  0
  -13.6361    1.3315    0.0000 H   0  0  0  0  0  0  0  0  0  0  0  0
  -13.9706   -0.5676    0.0000 H   0  0  0  0  0  0  0  0  0  0  0  0
  -12.1584   -1.2268    0.0000 H   0  0  0  0  0  0  0  0  0  0  0  0
  -12.1590    3.0928    0.0000 O   0  0  0  0  0  0  0  0  0  0  0  0
  -13.1231    4.2420    0.0000 H   0  0  0  0  0  0  0  0  0  0  0  0
  -10.3459    5.2523    0.0000 O   0  0  0  0  0  0  0  0  0  0  0  0
   -9.8327    6.6618    0.0000 H   0  0  0  0  0  0  0  0  0  0  0  0
   -3.0759    2.4859    0.0000 N   0  0  0  0  0  0  0  0  0  0  0  0
   -4.5878    3.7644    0.0000 C   0  0  0  0  0  0  0  0  0  0  0  0
   -5.9993    3.2568    0.0000 H   0  0  0  0  0  0  0  0  0  0  0  0
   -3.4351    4.7242    0.0000 H   0  0  0  0  0  0  0  0  0  0  0  0
   -5.3328    5.0663    0.0000 H   0  0  0  0  0  0  0  0  0  0  0  0
   -1.6150    2.8352    0.0000 C   0  0  0  0  0  0  0  0  0  0  0  0
   -2.1175    4.2485    0.0000 H   0  0  0  0  0  0  0  0  0  0  0  0
   -0.2634    3.4857    0.0000 H   0  0  0  0  0  0  0  0  0  0  0  0
  1  2  1  0  0  0  0 
  1  3  1  0  0  0  0 
  1  4  1  0  0  0  0 
  1  5  1  0  0  0  0 
  5  6  1  0  0  0  0 
  5  7  1  0  0  0  0 
  5  8  1  0  0  0  0 
  8  9  1  0  0  0  0 
  8 10  1  0  0  0  0 
 11  8  1  6  0  0  0 
 11 12  1  1  0  0  0 
 11 13  1  0  0  0  0 
 13 14  1  0  0  0  0 
 13 15  1  0  0  0  0 
 13 16  1  0  0  0  0 
 16 17  1  6  0  0  0 
 16 18  1  1  0  0  0 
 18 19  2  0  0  0  0 
 18 20  1  0  0  0  0 
 20 21  1  0  0  0  0 
 20 22  1  0  0  0  0 
 22 23  1  0  0  0  0 
 22 24  1  0  0  0  0 
 24 25  1  0  0  0  0 
 24 26  1  0  0  0  0 
 26 27  1  0  0  0  0 
 26 28  1  0  0  0  0 
 26 29  1  0  0  0  0 
 24 30  1  0  0  0  0 
 22 31  1  0  0  0  0 
 31 32  1  6  0  0  0 
 31 33  1  1  0  0  0 
 33 34  2  0  0  0  0 
 33 35  1  0  0  0  0 
 35 36  1  6  0  0  0 
 35 37  1  0  0  0  0 
 37 38  1  1  0  0  0 
 37 39  1  0  0  0  0 
 39 40  1  1  0  0  0 
 39 41  1  0  0  0  0 
 31 41  1  0  0  0  0 
 39 42  1  6  0  0  0 
 42 43  1  0  0  0  0 
 43 44  1  0  0  0  0 
 43 45  1  0  0  0  0 
 43 46  1  0  0  0  0 
 37 47  1  6  0  0  0 
 47 48  1  0  0  0  0 
 35 49  1  1  0  0  0 
 49 50  1  0  0  0  0 
 16 51  1  0  0  0  0 
 51 52  1  0  0  0  0 
 52 53  1  0  0  0  0 
 52 54  1  0  0  0  0 
 52 55  1  0  0  0  0 
 51 56  1  0  0  0  0 
 11 56  1  0  0  0  0 
 56 57  1  0  0  0  0 
 56 58  1  0  0  0  0 
M  END
> <Rank>
32

> <Priority_score>
0.028

> <Reaction_type>
alcohol oxidation

> <Parent_ID>
21

> <Parent_InChI>
InChI=1S/C18H33ClN2O5S/c1-5-6-10-7-11(21(3)8-10)17(25)20-12(9(2)19)16-14(23)13(22)15(24)18(26-16)27-4/h9-16,18,22-24H,5-8H2,1-4H3,(H,20,25)

> <Parent_SMILES>
CCC[C@@H]1C[C@@H](C(=O)NC(C(C)Cl)[C@H]2O[C@H](SC)[C@H](O)[C@@H](O)[C@H]2O)N(C)C1

$$$$
Molecule 21_metabolite 34
  CDK     0516241031

 61 62  0  0  0  0  0  0  0  0999 V2000
    4.6385    4.3690    0.0000 C   0  0  0  0  0  0  0  0  0  0  0  0
    6.0275    3.8026    0.0000 H   0  0  0  0  0  0  0  0  0  0  0  0
    3.5270    5.3763    0.0000 H   0  0  0  0  0  0  0  0  0  0  0  0
    5.4375    5.6385    0.0000 H   0  0  0  0  0  0  0  0  0  0  0  0
    2.6951    2.8608    0.0000 C   0  0  0  0  0  0  0  0  0  0  0  0
    3.8066    1.8535    0.0000 H   0  0  0  0  0  0  0  0  0  0  0  0
    1.8961    1.5913    0.0000 H   0  0  0  0  0  0  0  0  0  0  0  0
    1.3062    3.4272    0.0000 C   0  0  0  0  0  0  0  0  0  0  0  0
   -0.1610    4.7569    0.0000 H   0  0  0  0  0  0  0  0  0  0  0  0
   -0.2580    2.2133    0.0000 C   0  0  2  0  0  0  0  0  0  0  0  0
    0.7801    1.1306    0.0000 H   0  0  0  0  0  0  0  0  0  0  0  0
   -1.2266    1.0679    0.0000 C   0  0  0  0  0  0  0  0  0  0  0  0
    0.0135    0.2240    0.0000 H   0  0  0  0  0  0  0  0  0  0  0  0
   -1.9367   -0.2534    0.0000 H   0  0  0  0  0  0  0  0  0  0  0  0
   -2.6079    1.6336    0.0000 C   0  0  1  0  0  0  0  0  0  0  0  0
   -3.0249    0.1927    0.0000 H   0  0  0  0  0  0  0  0  0  0  0  0
   -4.5578    1.9778    0.0000 C   0  0  0  0  0  0  0  0  0  0  0  0
   -5.0705    3.3875    0.0000 O   0  0  0  0  0  0  0  0  0  0  0  0
   -5.5222    0.8289    0.0000 N   0  0  0  0  0  0  0  0  0  0  0  0
   -5.0095   -0.5807    0.0000 H   0  0  0  0  0  0  0  0  0  0  0  0
   -7.4720    1.1732    0.0000 C   0  0  0  0  0  0  0  0  0  0  0  0
   -8.9493    0.9130    0.0000 H   0  0  0  0  0  0  0  0  0  0  0  0
   -7.4724   -0.3268    0.0000 C   0  0  0  0  0  0  0  0  0  0  0  0
   -6.9596   -1.7365    0.0000 H   0  0  0  0  0  0  0  0  0  0  0  0
   -8.7716   -1.0765    0.0000 C   0  0  0  0  0  0  0  0  0  0  0  0
  -10.0704   -0.3263    0.0000 H   0  0  0  0  0  0  0  0  0  0  0  0
   -9.7360   -2.2254    0.0000 H   0  0  0  0  0  0  0  0  0  0  0  0
   -7.8076   -2.2258    0.0000 H   0  0  0  0  0  0  0  0  0  0  0  0
   -5.9951   -0.0667    0.0000 Cl  0  0  0  0  0  0  0  0  0  0  0  0
   -7.9848    2.5828    0.0000 C   0  0  2  0  0  0  0  0  0  0  0  0
   -6.5075    2.8431    0.0000 H   0  0  0  0  0  0  0  0  0  0  0  0
   -7.9848    4.0828    0.0000 C   0  0  1  0  0  0  0  0  0  0  0  0
   -6.5075    3.8225    0.0000 H   0  0  0  0  0  0  0  0  0  0  0  0
   -9.2848    4.8328    0.0000 C   0  0  1  0  0  0  0  0  0  0  0  0
   -8.3207    5.9820    0.0000 H   0  0  0  0  0  0  0  0  0  0  0  0
  -10.5848    4.0828    0.0000 C   0  0  2  0  0  0  0  0  0  0  0  0
  -11.0975    5.4925    0.0000 H   0  0  0  0  0  0  0  0  0  0  0  0
  -10.5848    2.5828    0.0000 C   0  0  2  0  0  0  0  0  0  0  0  0
  -12.0620    2.8431    0.0000 H   0  0  0  0  0  0  0  0  0  0  0  0
   -9.2848    1.8328    0.0000 O   0  0  0  0  0  0  0  0  0  0  0  0
  -11.0975    1.1732    0.0000 S   0  0  0  0  0  0  0  0  0  0  0  0
  -12.5747    0.9124    0.0000 C   0  0  0  0  0  0  0  0  0  0  0  0
  -13.5391    2.0613    0.0000 H   0  0  0  0  0  0  0  0  0  0  0  0
  -13.8735    0.1621    0.0000 H   0  0  0  0  0  0  0  0  0  0  0  0
  -12.0613   -0.4970    0.0000 H   0  0  0  0  0  0  0  0  0  0  0  0
  -12.0620    3.8225    0.0000 O   0  0  0  0  0  0  0  0  0  0  0  0
  -13.0261    4.9717    0.0000 H   0  0  0  0  0  0  0  0  0  0  0  0
  -10.2488    5.9820    0.0000 O   0  0  0  0  0  0  0  0  0  0  0  0
   -9.7356    7.3915    0.0000 H   0  0  0  0  0  0  0  0  0  0  0  0
   -7.3080    5.9436    0.0000 O   0  0  0  0  0  0  0  0  0  0  0  0
   -8.2724    7.0924    0.0000 H   0  0  0  0  0  0  0  0  0  0  0  0
   -2.5062    3.1322    0.0000 N   0  0  0  0  0  0  0  0  0  0  0  0
   -3.6516    4.1008    0.0000 C   0  0  0  0  0  0  0  0  0  0  0  0
   -3.3854    5.5770    0.0000 H   0  0  0  0  0  0  0  0  0  0  0  0
   -4.4065    2.8046    0.0000 H   0  0  0  0  0  0  0  0  0  0  0  0
   -5.0591    4.6192    0.0000 H   0  0  0  0  0  0  0  0  0  0  0  0
   -1.0453    3.4814    0.0000 C   0  0  0  0  0  0  0  0  0  0  0  0
   -1.5478    4.8947    0.0000 H   0  0  0  0  0  0  0  0  0  0  0  0
    0.3063    4.1320    0.0000 H   0  0  0  0  0  0  0  0  0  0  0  0
    2.1052    4.6967    0.0000 O   0  0  0  0  0  0  0  0  0  0  0  0
    1.4052    6.0234    0.0000 H   0  0  0  0  0  0  0  0  0  0  0  0
  1  2  1  0  0  0  0 
  1  3  1  0  0  0  0 
  1  4  1  0  0  0  0 
  1  5  1  0  0  0  0 
  5  6  1  0  0  0  0 
  5  7  1  0  0  0  0 
  5  8  1  0  0  0  0 
  8  9  1  0  0  0  0 
 10  8  1  6  0  0  0 
 10 11  1  1  0  0  0 
 10 12  1  0  0  0  0 
 12 13  1  0  0  0  0 
 12 14  1  0  0  0  0 
 12 15  1  0  0  0  0 
 15 16  1  6  0  0  0 
 15 17  1  1  0  0  0 
 17 18  2  0  0  0  0 
 17 19  1  0  0  0  0 
 19 20  1  0  0  0  0 
 19 21  1  0  0  0  0 
 21 22  1  0  0  0  0 
 21 23  1  0  0  0  0 
 23 24  1  0  0  0  0 
 23 25  1  0  0  0  0 
 25 26  1  0  0  0  0 
 25 27  1  0  0  0  0 
 25 28  1  0  0  0  0 
 23 29  1  0  0  0  0 
 30 21  1  1  0  0  0 
 30 31  1  6  0  0  0 
 30 32  1  0  0  0  0 
 32 33  1  6  0  0  0 
 32 34  1  0  0  0  0 
 34 35  1  6  0  0  0 
 34 36  1  0  0  0  0 
 36 37  1  1  0  0  0 
 36 38  1  0  0  0  0 
 38 39  1  1  0  0  0 
 38 40  1  0  0  0  0 
 30 40  1  0  0  0  0 
 38 41  1  6  0  0  0 
 41 42  1  0  0  0  0 
 42 43  1  0  0  0  0 
 42 44  1  0  0  0  0 
 42 45  1  0  0  0  0 
 36 46  1  6  0  0  0 
 46 47  1  0  0  0  0 
 34 48  1  1  0  0  0 
 48 49  1  0  0  0  0 
 32 50  1  1  0  0  0 
 50 51  1  0  0  0  0 
 15 52  1  0  0  0  0 
 52 53  1  0  0  0  0 
 53 54  1  0  0  0  0 
 53 55  1  0  0  0  0 
 53 56  1  0  0  0  0 
 52 57  1  0  0  0  0 
 10 57  1  0  0  0  0 
 57 58  1  0  0  0  0 
 57 59  1  0  0  0  0 
  8 60  1  0  0  0  0 
 60 61  1  0  0  0  0 
M  END
> <Rank>
34

> <Priority_score>
0.024

> <Reaction_type>
aliphatic hydroxylation

> <Parent_ID>
21

> <Parent_InChI>
InChI=1S/C18H33ClN2O5S/c1-5-6-10-7-11(21(3)8-10)17(25)20-12(9(2)19)16-14(23)13(22)15(24)18(26-16)27-4/h9-16,18,22-24H,5-8H2,1-4H3,(H,20,25)

> <Parent_SMILES>
CCC[C@@H]1C[C@@H](C(=O)NC(C(C)Cl)[C@H]2O[C@H](SC)[C@H](O)[C@@H](O)[C@H]2O)N(C)C1

$$$$
Molecule 21_metabolite 35
  CDK     0516241031

 58 59  0  0  0  0  0  0  0  0999 V2000
  -12.1289    0.4743    0.0000 C   0  0  0  0  0  0  0  0  0  0  0  0
  -13.5179    1.0407    0.0000 H   0  0  0  0  0  0  0  0  0  0  0  0
  -11.0175   -0.5330    0.0000 H   0  0  0  0  0  0  0  0  0  0  0  0
  -12.9279   -0.7952    0.0000 H   0  0  0  0  0  0  0  0  0  0  0  0
  -10.9439    1.3940    0.0000 C   0  0  0  0  0  0  0  0  0  0  0  0
  -11.1479    2.8800    0.0000 H   0  0  0  0  0  0  0  0  0  0  0  0
   -9.5550    0.8275    0.0000 C   0  0  0  0  0  0  0  0  0  0  0  0
   -9.3510   -0.6585    0.0000 H   0  0  0  0  0  0  0  0  0  0  0  0
   -7.9908    2.0415    0.0000 C   0  0  2  0  0  0  0  0  0  0  0  0
   -9.0289    3.1242    0.0000 H   0  0  0  0  0  0  0  0  0  0  0  0
   -7.0222    3.1869    0.0000 C   0  0  0  0  0  0  0  0  0  0  0  0
   -8.2623    4.0308    0.0000 H   0  0  0  0  0  0  0  0  0  0  0  0
   -6.3121    4.5082    0.0000 H   0  0  0  0  0  0  0  0  0  0  0  0
   -5.6409    2.6212    0.0000 C   0  0  1  0  0  0  0  0  0  0  0  0
   -5.2239    4.0621    0.0000 H   0  0  0  0  0  0  0  0  0  0  0  0
   -3.6910    2.2770    0.0000 C   0  0  0  0  0  0  0  0  0  0  0  0
   -3.1783    0.8673    0.0000 O   0  0  0  0  0  0  0  0  0  0  0  0
   -2.7266    3.4258    0.0000 N   0  0  0  0  0  0  0  0  0  0  0  0
   -3.2393    4.8355    0.0000 H   0  0  0  0  0  0  0  0  0  0  0  0
   -0.7768    3.0816    0.0000 C   0  0  0  0  0  0  0  0  0  0  0  0
    0.7005    3.3417    0.0000 H   0  0  0  0  0  0  0  0  0  0  0  0
   -0.7764    4.5816    0.0000 C   0  0  0  0  0  0  0  0  0  0  0  0
   -1.2892    5.9912    0.0000 H   0  0  0  0  0  0  0  0  0  0  0  0
    0.5228    5.3313    0.0000 C   0  0  0  0  0  0  0  0  0  0  0  0
    1.8216    4.5810    0.0000 H   0  0  0  0  0  0  0  0  0  0  0  0
    1.4872    6.4802    0.0000 H   0  0  0  0  0  0  0  0  0  0  0  0
   -0.4412    6.4806    0.0000 H   0  0  0  0  0  0  0  0  0  0  0  0
   -2.2537    4.3214    0.0000 Cl  0  0  0  0  0  0  0  0  0  0  0  0
   -0.2640    1.6719    0.0000 C   0  0  2  0  0  0  0  0  0  0  0  0
   -1.7413    1.4116    0.0000 H   0  0  0  0  0  0  0  0  0  0  0  0
   -0.2640    0.1719    0.0000 C   0  0  1  0  0  0  0  0  0  0  0  0
   -1.7413    0.4322    0.0000 H   0  0  0  0  0  0  0  0  0  0  0  0
    1.0360   -0.5781    0.0000 C   0  0  1  0  0  0  0  0  0  0  0  0
    0.0719   -1.7272    0.0000 H   0  0  0  0  0  0  0  0  0  0  0  0
    2.3360    0.1719    0.0000 C   0  0  2  0  0  0  0  0  0  0  0  0
    2.8487   -1.2377    0.0000 H   0  0  0  0  0  0  0  0  0  0  0  0
    2.3360    1.6719    0.0000 C   0  0  2  0  0  0  0  0  0  0  0  0
    3.8132    1.4116    0.0000 H   0  0  0  0  0  0  0  0  0  0  0  0
    1.0360    2.4219    0.0000 O   0  0  0  0  0  0  0  0  0  0  0  0
    2.8487    3.0816    0.0000 S   0  0  0  0  0  0  0  0  0  0  0  0
    4.3258    3.3424    0.0000 C   0  0  0  0  0  0  0  0  0  0  0  0
    5.2903    2.1935    0.0000 H   0  0  0  0  0  0  0  0  0  0  0  0
    5.6247    4.0926    0.0000 H   0  0  0  0  0  0  0  0  0  0  0  0
    3.8125    4.7518    0.0000 H   0  0  0  0  0  0  0  0  0  0  0  0
    3.8132    0.4322    0.0000 O   0  0  0  0  0  0  0  0  0  0  0  0
    4.7773   -0.7169    0.0000 H   0  0  0  0  0  0  0  0  0  0  0  0
    2.0000   -1.7272    0.0000 O   0  0  0  0  0  0  0  0  0  0  0  0
    1.4868   -3.1367    0.0000 H   0  0  0  0  0  0  0  0  0  0  0  0
   -0.9408   -1.6888    0.0000 O   0  0  0  0  0  0  0  0  0  0  0  0
    0.0236   -2.8377    0.0000 H   0  0  0  0  0  0  0  0  0  0  0  0
   -5.7426    1.1226    0.0000 N   0  0  0  0  0  0  0  0  0  0  0  0
   -4.5972    0.1540    0.0000 C   0  0  0  0  0  0  0  0  0  0  0  0
   -4.8634   -1.3222    0.0000 H   0  0  0  0  0  0  0  0  0  0  0  0
   -3.8423    1.4502    0.0000 H   0  0  0  0  0  0  0  0  0  0  0  0
   -3.1897   -0.3644    0.0000 H   0  0  0  0  0  0  0  0  0  0  0  0
   -7.2035    0.7733    0.0000 C   0  0  0  0  0  0  0  0  0  0  0  0
   -6.7010   -0.6400    0.0000 H   0  0  0  0  0  0  0  0  0  0  0  0
   -8.5551    0.1228    0.0000 H   0  0  0  0  0  0  0  0  0  0  0  0
  1  2  1  0  0  0  0 
  1  3  1  0  0  0  0 
  1  4  1  0  0  0  0 
  1  5  1  0  0  0  0 
  5  6  1  4  0  0  0 
  5  7  2  0  0  0  0 
  7  8  1  0  0  0  0 
  9  7  1  6  0  0  0 
  9 10  1  1  0  0  0 
  9 11  1  0  0  0  0 
 11 12  1  0  0  0  0 
 11 13  1  0  0  0  0 
 11 14  1  0  0  0  0 
 14 15  1  6  0  0  0 
 14 16  1  1  0  0  0 
 16 17  2  0  0  0  0 
 16 18  1  0  0  0  0 
 18 19  1  0  0  0  0 
 18 20  1  0  0  0  0 
 20 21  1  0  0  0  0 
 20 22  1  0  0  0  0 
 22 23  1  0  0  0  0 
 22 24  1  0  0  0  0 
 24 25  1  0  0  0  0 
 24 26  1  0  0  0  0 
 24 27  1  0  0  0  0 
 22 28  1  0  0  0  0 
 29 20  1  1  0  0  0 
 29 30  1  6  0  0  0 
 29 31  1  0  0  0  0 
 31 32  1  6  0  0  0 
 31 33  1  0  0  0  0 
 33 34  1  6  0  0  0 
 33 35  1  0  0  0  0 
 35 36  1  1  0  0  0 
 35 37  1  0  0  0  0 
 37 38  1  1  0  0  0 
 37 39  1  0  0  0  0 
 29 39  1  0  0  0  0 
 37 40  1  6  0  0  0 
 40 41  1  0  0  0  0 
 41 42  1  0  0  0  0 
 41 43  1  0  0  0  0 
 41 44  1  0  0  0  0 
 35 45  1  6  0  0  0 
 45 46  1  0  0  0  0 
 33 47  1  1  0  0  0 
 47 48  1  0  0  0  0 
 31 49  1  1  0  0  0 
 49 50  1  0  0  0  0 
 14 51  1  0  0  0  0 
 51 52  1  0  0  0  0 
 52 53  1  0  0  0  0 
 52 54  1  0  0  0  0 
 52 55  1  0  0  0  0 
 51 56  1  0  0  0  0 
  9 56  1  0  0  0  0 
 56 57  1  0  0  0  0 
 56 58  1  0  0  0  0 
M  END
> <Rank>
35

> <Priority_score>
0.023200000000000002

> <Reaction_type>
alkyl dehydrogenation

> <Parent_ID>
21

> <Parent_InChI>
InChI=1S/C18H33ClN2O5S/c1-5-6-10-7-11(21(3)8-10)17(25)20-12(9(2)19)16-14(23)13(22)15(24)18(26-16)27-4/h9-16,18,22-24H,5-8H2,1-4H3,(H,20,25)

> <Parent_SMILES>
CCC[C@@H]1C[C@@H](C(=O)NC(C(C)Cl)[C@H]2O[C@H](SC)[C@H](O)[C@@H](O)[C@H]2O)N(C)C1

$$$$
Molecule 21_metabolite 36
  CDK     0516241031

 61 62  0  0  0  0  0  0  0  0999 V2000
   -3.6569   -2.4808    0.0000 C   0  0  0  0  0  0  0  0  0  0  0  0
   -3.4530   -3.9669    0.0000 H   0  0  0  0  0  0  0  0  0  0  0  0
   -4.3568   -1.1541    0.0000 H   0  0  0  0  0  0  0  0  0  0  0  0
   -5.0850   -2.9397    0.0000 H   0  0  0  0  0  0  0  0  0  0  0  0
   -2.4719   -1.5611    0.0000 C   0  0  0  0  0  0  0  0  0  0  0  0
   -3.5834   -0.5538    0.0000 H   0  0  0  0  0  0  0  0  0  0  0  0
   -1.6729   -0.2916    0.0000 H   0  0  0  0  0  0  0  0  0  0  0  0
   -1.0830   -2.1275    0.0000 C   0  0  0  0  0  0  0  0  0  0  0  0
    0.3842   -3.4572    0.0000 H   0  0  0  0  0  0  0  0  0  0  0  0
   -1.8820   -3.3970    0.0000 H   0  0  0  0  0  0  0  0  0  0  0  0
    0.4812   -0.9136    0.0000 C   0  0  2  0  0  0  0  0  0  0  0  0
   -0.5569    0.1691    0.0000 H   0  0  0  0  0  0  0  0  0  0  0  0
    1.4498    0.2318    0.0000 C   0  0  0  0  0  0  0  0  0  0  0  0
    0.2097    1.0757    0.0000 H   0  0  0  0  0  0  0  0  0  0  0  0
    2.1599    1.5531    0.0000 H   0  0  0  0  0  0  0  0  0  0  0  0
    2.8311   -0.3339    0.0000 C   0  0  1  0  0  0  0  0  0  0  0  0
    3.2481    1.1070    0.0000 H   0  0  0  0  0  0  0  0  0  0  0  0
    4.7810   -0.6781    0.0000 C   0  0  0  0  0  0  0  0  0  0  0  0
    5.2937   -2.0878    0.0000 O   0  0  0  0  0  0  0  0  0  0  0  0
    5.7454    0.4707    0.0000 N   0  0  0  0  0  0  0  0  0  0  0  0
    5.2327    1.8804    0.0000 H   0  0  0  0  0  0  0  0  0  0  0  0
    7.6952    0.1265    0.0000 C   0  0  0  0  0  0  0  0  0  0  0  0
    9.1725    0.3866    0.0000 H   0  0  0  0  0  0  0  0  0  0  0  0
    7.6956    1.6265    0.0000 C   0  0  0  0  0  0  0  0  0  0  0  0
    7.1828    3.0361    0.0000 H   0  0  0  0  0  0  0  0  0  0  0  0
    8.9948    2.3762    0.0000 C   0  0  0  0  0  0  0  0  0  0  0  0
   10.2936    1.6259    0.0000 H   0  0  0  0  0  0  0  0  0  0  0  0
    9.9592    3.5251    0.0000 H   0  0  0  0  0  0  0  0  0  0  0  0
    8.0308    3.5255    0.0000 H   0  0  0  0  0  0  0  0  0  0  0  0
    6.2183    1.3663    0.0000 Cl  0  0  0  0  0  0  0  0  0  0  0  0
    8.2080   -1.2832    0.0000 C   0  0  2  0  0  0  0  0  0  0  0  0
    6.7307   -1.5435    0.0000 H   0  0  0  0  0  0  0  0  0  0  0  0
    8.2080   -2.7832    0.0000 C   0  0  1  0  0  0  0  0  0  0  0  0
    6.7307   -2.5229    0.0000 H   0  0  0  0  0  0  0  0  0  0  0  0
    9.5080   -3.5332    0.0000 C   0  0  1  0  0  0  0  0  0  0  0  0
   10.8080   -2.7832    0.0000 C   0  0  2  0  0  0  0  0  0  0  0  0
   11.3207   -4.1928    0.0000 H   0  0  0  0  0  0  0  0  0  0  0  0
   10.8080   -1.2832    0.0000 C   0  0  2  0  0  0  0  0  0  0  0  0
   12.2852   -1.5435    0.0000 H   0  0  0  0  0  0  0  0  0  0  0  0
    9.5080   -0.5332    0.0000 O   0  0  0  0  0  0  0  0  0  0  0  0
   11.3207    0.1265    0.0000 S   0  0  0  0  0  0  0  0  0  0  0  0
   12.7979    0.3873    0.0000 C   0  0  0  0  0  0  0  0  0  0  0  0
   13.7623   -0.7616    0.0000 H   0  0  0  0  0  0  0  0  0  0  0  0
   14.0967    1.1375    0.0000 H   0  0  0  0  0  0  0  0  0  0  0  0
   12.2845    1.7967    0.0000 H   0  0  0  0  0  0  0  0  0  0  0  0
   12.2852   -2.5229    0.0000 O   0  0  0  0  0  0  0  0  0  0  0  0
   13.2493   -3.6720    0.0000 H   0  0  0  0  0  0  0  0  0  0  0  0
    8.5439   -4.6823    0.0000 O   0  0  0  0  0  0  0  0  0  0  0  0
    9.0571   -6.0918    0.0000 H   0  0  0  0  0  0  0  0  0  0  0  0
   10.4720   -4.6823    0.0000 O   0  0  0  0  0  0  0  0  0  0  0  0
    9.9589   -6.0918    0.0000 H   0  0  0  0  0  0  0  0  0  0  0  0
    7.6952   -4.1928    0.0000 O   0  0  0  0  0  0  0  0  0  0  0  0
    6.2181   -4.4536    0.0000 H   0  0  0  0  0  0  0  0  0  0  0  0
    2.7294   -1.8325    0.0000 N   0  0  0  0  0  0  0  0  0  0  0  0
    3.8748   -2.8011    0.0000 C   0  0  0  0  0  0  0  0  0  0  0  0
    3.6086   -4.2773    0.0000 H   0  0  0  0  0  0  0  0  0  0  0  0
    4.6297   -1.5049    0.0000 H   0  0  0  0  0  0  0  0  0  0  0  0
    5.2823   -3.3195    0.0000 H   0  0  0  0  0  0  0  0  0  0  0  0
    1.2685   -2.1818    0.0000 C   0  0  0  0  0  0  0  0  0  0  0  0
    1.7710   -3.5951    0.0000 H   0  0  0  0  0  0  0  0  0  0  0  0
   -0.0831   -2.8323    0.0000 H   0  0  0  0  0  0  0  0  0  0  0  0
  1  2  1  0  0  0  0 
  1  3  1  0  0  0  0 
  1  4  1  0  0  0  0 
  1  5  1  0  0  0  0 
  5  6  1  0  0  0  0 
  5  7  1  0  0  0  0 
  5  8  1  0  0  0  0 
  8  9  1  0  0  0  0 
  8 10  1  0  0  0  0 
 11  8  1  6  0  0  0 
 11 12  1  1  0  0  0 
 11 13  1  0  0  0  0 
 13 14  1  0  0  0  0 
 13 15  1  0  0  0  0 
 13 16  1  0  0  0  0 
 16 17  1  6  0  0  0 
 16 18  1  1  0  0  0 
 18 19  2  0  0  0  0 
 18 20  1  0  0  0  0 
 20 21  1  0  0  0  0 
 20 22  1  0  0  0  0 
 22 23  1  0  0  0  0 
 22 24  1  0  0  0  0 
 24 25  1  0  0  0  0 
 24 26  1  0  0  0  0 
 26 27  1  0  0  0  0 
 26 28  1  0  0  0  0 
 26 29  1  0  0  0  0 
 24 30  1  0  0  0  0 
 31 22  1  1  0  0  0 
 31 32  1  6  0  0  0 
 31 33  1  0  0  0  0 
 33 34  1  6  0  0  0 
 33 35  1  0  0  0  0 
 35 36  1  0  0  0  0 
 36 37  1  1  0  0  0 
 36 38  1  0  0  0  0 
 38 39  1  1  0  0  0 
 38 40  1  0  0  0  0 
 31 40  1  0  0  0  0 
 38 41  1  6  0  0  0 
 41 42  1  0  0  0  0 
 42 43  1  0  0  0  0 
 42 44  1  0  0  0  0 
 42 45  1  0  0  0  0 
 36 46  1  6  0  0  0 
 46 47  1  0  0  0  0 
 35 48  1  1  0  0  0 
 48 49  1  0  0  0  0 
 35 50  1  6  0  0  0 
 50 51  1  0  0  0  0 
 33 52  1  1  0  0  0 
 52 53  1  0  0  0  0 
 16 54  1  0  0  0  0 
 54 55  1  0  0  0  0 
 55 56  1  0  0  0  0 
 55 57  1  0  0  0  0 
 55 58  1  0  0  0  0 
 54 59  1  0  0  0  0 
 11 59  1  0  0  0  0 
 59 60  1  0  0  0  0 
 59 61  1  0  0  0  0 
M  END
> <Rank>
36

> <Priority_score>
0.02

> <Reaction_type>
aliphatic hydroxylation

> <Parent_ID>
21

> <Parent_InChI>
InChI=1S/C18H33ClN2O5S/c1-5-6-10-7-11(21(3)8-10)17(25)20-12(9(2)19)16-14(23)13(22)15(24)18(26-16)27-4/h9-16,18,22-24H,5-8H2,1-4H3,(H,20,25)

> <Parent_SMILES>
CCC[C@@H]1C[C@@H](C(=O)NC(C(C)Cl)[C@H]2O[C@H](SC)[C@H](O)[C@@H](O)[C@H]2O)N(C)C1

$$$$
Molecule 21_metabolite 37
  CDK     0516241031

 31 31  0  0  0  0  0  0  0  0999 V2000
   -3.7826    4.0901    0.0000 C   0  0  0  0  0  0  0  0  0  0  0  0
   -5.2598    4.3509    0.0000 H   0  0  0  0  0  0  0  0  0  0  0  0
   -2.3053    4.3502    0.0000 H   0  0  0  0  0  0  0  0  0  0  0  0
   -3.7823    5.5901    0.0000 H   0  0  0  0  0  0  0  0  0  0  0  0
   -3.2699    2.6804    0.0000 C   0  0  0  0  0  0  0  0  0  0  0  0
   -4.7472    2.4203    0.0000 H   0  0  0  0  0  0  0  0  0  0  0  0
   -1.7927    2.4196    0.0000 C   0  0  0  0  0  0  0  0  0  0  0  0
   -0.8283    3.5685    0.0000 O   0  0  0  0  0  0  0  0  0  0  0  0
   -1.1159    0.5589    0.0000 C   0  0  2  0  0  0  0  0  0  0  0  0
   -2.5932    0.2986    0.0000 H   0  0  0  0  0  0  0  0  0  0  0  0
   -1.1159   -0.9411    0.0000 C   0  0  1  0  0  0  0  0  0  0  0  0
   -2.5932   -0.6808    0.0000 H   0  0  0  0  0  0  0  0  0  0  0  0
    0.1841   -1.6911    0.0000 C   0  0  1  0  0  0  0  0  0  0  0  0
   -0.7800   -2.8403    0.0000 H   0  0  0  0  0  0  0  0  0  0  0  0
    1.4841   -0.9411    0.0000 C   0  0  2  0  0  0  0  0  0  0  0  0
    1.9968   -2.3507    0.0000 H   0  0  0  0  0  0  0  0  0  0  0  0
    1.4841    0.5589    0.0000 C   0  0  2  0  0  0  0  0  0  0  0  0
    2.9613    0.2986    0.0000 H   0  0  0  0  0  0  0  0  0  0  0  0
    0.1841    1.3089    0.0000 O   0  0  0  0  0  0  0  0  0  0  0  0
    1.9968    1.9686    0.0000 S   0  0  0  0  0  0  0  0  0  0  0  0
    3.4740    2.2293    0.0000 C   0  0  0  0  0  0  0  0  0  0  0  0
    4.4384    1.0805    0.0000 H   0  0  0  0  0  0  0  0  0  0  0  0
    2.9606    3.6388    0.0000 H   0  0  0  0  0  0  0  0  0  0  0  0
    4.7728    2.9796    0.0000 H   0  0  0  0  0  0  0  0  0  0  0  0
    2.9613   -0.6808    0.0000 O   0  0  0  0  0  0  0  0  0  0  0  0
    3.9254   -1.8299    0.0000 H   0  0  0  0  0  0  0  0  0  0  0  0
    1.1481   -2.8403    0.0000 O   0  0  0  0  0  0  0  0  0  0  0  0
    0.6350   -4.2497    0.0000 H   0  0  0  0  0  0  0  0  0  0  0  0
   -1.6287   -2.3507    0.0000 O   0  0  0  0  0  0  0  0  0  0  0  0
   -3.1058   -2.6115    0.0000 H   0  0  0  0  0  0  0  0  0  0  0  0
   -3.2702    1.1804    0.0000 Cl  0  0  0  0  0  0  0  0  0  0  0  0
  1  2  1  0  0  0  0 
  1  3  1  0  0  0  0 
  1  4  1  0  0  0  0 
  1  5  1  0  0  0  0 
  5  6  1  0  0  0  0 
  5  7  1  0  0  0  0 
  7  8  2  0  0  0  0 
  9  7  1  1  0  0  0 
  9 10  1  6  0  0  0 
  9 11  1  0  0  0  0 
 11 12  1  6  0  0  0 
 11 13  1  0  0  0  0 
 13 14  1  6  0  0  0 
 13 15  1  0  0  0  0 
 15 16  1  1  0  0  0 
 15 17  1  0  0  0  0 
 17 18  1  1  0  0  0 
 17 19  1  0  0  0  0 
  9 19  1  0  0  0  0 
 17 20  1  6  0  0  0 
 20 21  1  0  0  0  0 
 21 22  1  0  0  0  0 
 21 23  1  0  0  0  0 
 21 24  1  0  0  0  0 
 15 25  1  6  0  0  0 
 25 26  1  0  0  0  0 
 13 27  1  1  0  0  0 
 27 28  1  0  0  0  0 
 11 29  1  1  0  0  0 
 29 30  1  0  0  0  0 
  5 31  1  0  0  0  0 
M  END
> <Rank>
36

> <Priority_score>
0.02

> <Reaction_type>
N-dealkylation

> <Parent_ID>
21

> <Parent_InChI>
InChI=1S/C18H33ClN2O5S/c1-5-6-10-7-11(21(3)8-10)17(25)20-12(9(2)19)16-14(23)13(22)15(24)18(26-16)27-4/h9-16,18,22-24H,5-8H2,1-4H3,(H,20,25)

> <Parent_SMILES>
CCC[C@@H]1C[C@@H](C(=O)NC(C(C)Cl)[C@H]2O[C@H](SC)[C@H](O)[C@@H](O)[C@H]2O)N(C)C1

$$$$
Molecule 21_metabolite 38
  CDK     0516241031

 30 30  0  0  0  0  0  0  0  0999 V2000
   -2.8782    4.5927    0.0000 C   0  0  0  0  0  0  0  0  0  0  0  0
   -1.7629    5.5957    0.0000 H   0  0  0  0  0  0  0  0  0  0  0  0
   -4.2693    4.0316    0.0000 H   0  0  0  0  0  0  0  0  0  0  0  0
   -3.6723    5.8652    0.0000 H   0  0  0  0  0  0  0  0  0  0  0  0
   -2.5672    3.1253    0.0000 C   0  0  0  0  0  0  0  0  0  0  0  0
   -4.0663    3.0738    0.0000 H   0  0  0  0  0  0  0  0  0  0  0  0
   -2.7768    1.6400    0.0000 H   0  0  0  0  0  0  0  0  0  0  0  0
   -1.1409    2.6609    0.0000 C   0  0  0  0  0  0  0  0  0  0  0  0
    0.8379    2.7289    0.0000 H   0  0  0  0  0  0  0  0  0  0  0  0
   -0.9313    4.1462    0.0000 H   0  0  0  0  0  0  0  0  0  0  0  0
   -0.7304    0.7239    0.0000 C   0  0  2  0  0  0  0  0  0  0  0  0
   -2.2222    0.5676    0.0000 H   0  0  0  0  0  0  0  0  0  0  0  0
   -0.7304   -0.7761    0.0000 C   0  0  0  0  0  0  0  0  0  0  0  0
   -2.2222   -0.6197    0.0000 H   0  0  0  0  0  0  0  0  0  0  0  0
   -1.0414   -2.2435    0.0000 H   0  0  0  0  0  0  0  0  0  0  0  0
    0.6896   -1.2361    0.0000 C   0  0  1  0  0  0  0  0  0  0  0  0
    0.0776   -2.6055    0.0000 H   0  0  0  0  0  0  0  0  0  0  0  0
    1.9859   -1.9907    0.0000 C   0  0  0  0  0  0  0  0  0  0  0  0
    3.2877   -1.2454    0.0000 O   0  0  0  0  0  0  0  0  0  0  0  0
    1.9805   -3.4907    0.0000 N   0  0  0  0  0  0  0  0  0  0  0  0
    3.2768   -4.2454    0.0000 H   0  0  0  0  0  0  0  0  0  0  0  0
    0.6788   -4.2360    0.0000 H   0  0  0  0  0  0  0  0  0  0  0  0
    1.5796   -0.0261    0.0000 N   0  0  0  0  0  0  0  0  0  0  0  0
    3.5596   -0.0261    0.0000 C   0  0  0  0  0  0  0  0  0  0  0  0
    4.3096   -1.3251    0.0000 H   0  0  0  0  0  0  0  0  0  0  0  0
    4.9692    0.4870    0.0000 H   0  0  0  0  0  0  0  0  0  0  0  0
    3.2992    1.4512    0.0000 H   0  0  0  0  0  0  0  0  0  0  0  0
    0.6896    1.1839    0.0000 C   0  0  0  0  0  0  0  0  0  0  0  0
    1.9859    1.9386    0.0000 H   0  0  0  0  0  0  0  0  0  0  0  0
    0.0776    2.5534    0.0000 H   0  0  0  0  0  0  0  0  0  0  0  0
  1  2  1  0  0  0  0 
  1  3  1  0  0  0  0 
  1  4  1  0  0  0  0 
  1  5  1  0  0  0  0 
  5  6  1  0  0  0  0 
  5  7  1  0  0  0  0 
  5  8  1  0  0  0  0 
  8  9  1  0  0  0  0 
  8 10  1  0  0  0  0 
 11  8  1  1  0  0  0 
 11 12  1  6  0  0  0 
 11 13  1  0  0  0  0 
 13 14  1  0  0  0  0 
 13 15  1  0  0  0  0 
 13 16  1  0  0  0  0 
 16 17  1  1  0  0  0 
 16 18  1  6  0  0  0 
 18 19  2  0  0  0  0 
 18 20  1  0  0  0  0 
 20 21  1  0  0  0  0 
 20 22  1  0  0  0  0 
 16 23  1  0  0  0  0 
 23 24  1  0  0  0  0 
 24 25  1  0  0  0  0 
 24 26  1  0  0  0  0 
 24 27  1  0  0  0  0 
 23 28  1  0  0  0  0 
 11 28  1  0  0  0  0 
 28 29  1  0  0  0  0 
 28 30  1  0  0  0  0 
M  END
> <Rank>
36

> <Priority_score>
0.02

> <Reaction_type>
N-dealkylation

> <Parent_ID>
21

> <Parent_InChI>
InChI=1S/C18H33ClN2O5S/c1-5-6-10-7-11(21(3)8-10)17(25)20-12(9(2)19)16-14(23)13(22)15(24)18(26-16)27-4/h9-16,18,22-24H,5-8H2,1-4H3,(H,20,25)

> <Parent_SMILES>
CCC[C@@H]1C[C@@H](C(=O)NC(C(C)Cl)[C@H]2O[C@H](SC)[C@H](O)[C@@H](O)[C@H]2O)N(C)C1

$$$$
Molecule 21_metabolite 39
  CDK     0516241031

 61 62  0  0  0  0  0  0  0  0999 V2000
   -4.9165   -5.5817    0.0000 C   0  0  0  0  0  0  0  0  0  0  0  0
   -5.7149   -4.3119    0.0000 H   0  0  0  0  0  0  0  0  0  0  0  0
   -4.6005   -7.0480    0.0000 H   0  0  0  0  0  0  0  0  0  0  0  0
   -6.3057   -6.1475    0.0000 H   0  0  0  0  0  0  0  0  0  0  0  0
   -3.4175   -5.5251    0.0000 C   0  0  0  0  0  0  0  0  0  0  0  0
   -3.6221   -7.0111    0.0000 H   0  0  0  0  0  0  0  0  0  0  0  0
   -1.9897   -5.9847    0.0000 H   0  0  0  0  0  0  0  0  0  0  0  0
   -2.7171   -4.1987    0.0000 C   0  0  0  0  0  0  0  0  0  0  0  0
   -2.4470   -2.2372    0.0000 H   0  0  0  0  0  0  0  0  0  0  0  0
   -4.1449   -3.7392    0.0000 H   0  0  0  0  0  0  0  0  0  0  0  0
   -0.7385   -4.1241    0.0000 C   0  0  2  0  0  0  0  0  0  0  0  0
   -0.8385   -5.6207    0.0000 H   0  0  0  0  0  0  0  0  0  0  0  0
    0.7396   -4.3795    0.0000 C   0  0  0  0  0  0  0  0  0  0  0  0
    0.3315   -5.8229    0.0000 H   0  0  0  0  0  0  0  0  0  0  0  0
    2.1326   -4.9359    0.0000 H   0  0  0  0  0  0  0  0  0  0  0  0
    1.4347   -3.0586    0.0000 C   0  0  1  0  0  0  0  0  0  0  0  0
    2.6800   -3.8949    0.0000 H   0  0  0  0  0  0  0  0  0  0  0  0
    2.7078   -1.5421    0.0000 C   0  0  0  0  0  0  0  0  0  0  0  0
    2.1950   -0.1325    0.0000 O   0  0  0  0  0  0  0  0  0  0  0  0
    4.1849   -1.8029    0.0000 N   0  0  0  0  0  0  0  0  0  0  0  0
    4.6977   -3.2126    0.0000 H   0  0  0  0  0  0  0  0  0  0  0  0
    5.4580   -0.2864    0.0000 C   0  0  0  0  0  0  0  0  0  0  0  0
    5.9713    1.1230    0.0000 H   0  0  0  0  0  0  0  0  0  0  0  0
    4.1591    0.4639    0.0000 C   0  0  0  0  0  0  0  0  0  0  0  0
    2.6819    0.7247    0.0000 H   0  0  0  0  0  0  0  0  0  0  0  0
    4.1596    2.9239    0.0000 C   0  0  0  0  0  0  0  0  0  0  0  0
    5.4588    3.6736    0.0000 H   0  0  0  0  0  0  0  0  0  0  0  0
    3.6469    4.3335    0.0000 H   0  0  0  0  0  0  0  0  0  0  0  0
    2.6824    2.6637    0.0000 H   0  0  0  0  0  0  0  0  0  0  0  0
    3.6458   -0.9456    0.0000 Cl  0  0  0  0  0  0  0  0  0  0  0  0
    6.9351   -0.5472    0.0000 C   0  0  2  0  0  0  0  0  0  0  0  0
    8.2342   -1.2972    0.0000 C   0  0  1  0  0  0  0  0  0  0  0  0
    7.2701   -2.4464    0.0000 H   0  0  0  0  0  0  0  0  0  0  0  0
    9.5337   -0.5464    0.0000 C   0  0  1  0  0  0  0  0  0  0  0  0
   10.0469   -1.9558    0.0000 H   0  0  0  0  0  0  0  0  0  0  0  0
    9.5342    0.9545    0.0000 C   0  0  2  0  0  0  0  0  0  0  0  0
   11.0113    0.6937    0.0000 H   0  0  0  0  0  0  0  0  0  0  0  0
    8.2351    1.7045    0.0000 C   0  0  2  0  0  0  0  0  0  0  0  0
    9.1992    2.8536    0.0000 H   0  0  0  0  0  0  0  0  0  0  0  0
    6.9356    0.9536    0.0000 O   0  0  0  0  0  0  0  0  0  0  0  0
    7.2707    2.8533    0.0000 S   0  0  0  0  0  0  0  0  0  0  0  0
    7.7834    4.2630    0.0000 C   0  0  0  0  0  0  0  0  0  0  0  0
    9.2606    4.5238    0.0000 H   0  0  0  0  0  0  0  0  0  0  0  0
    7.7831    5.7630    0.0000 H   0  0  0  0  0  0  0  0  0  0  0  0
    6.3062    4.5231    0.0000 H   0  0  0  0  0  0  0  0  0  0  0  0
   10.0473    2.3640    0.0000 O   0  0  0  0  0  0  0  0  0  0  0  0
   11.5246    2.6243    0.0000 H   0  0  0  0  0  0  0  0  0  0  0  0
   11.0109   -0.2860    0.0000 O   0  0  0  0  0  0  0  0  0  0  0  0
   11.9750   -1.4352    0.0000 H   0  0  0  0  0  0  0  0  0  0  0  0
    9.1986   -2.4461    0.0000 O   0  0  0  0  0  0  0  0  0  0  0  0
    8.6859   -3.8557    0.0000 H   0  0  0  0  0  0  0  0  0  0  0  0
    6.0935   -2.8587    0.0000 O   0  0  0  0  0  0  0  0  0  0  0  0
    7.0576   -4.0079    0.0000 H   0  0  0  0  0  0  0  0  0  0  0  0
    0.3940   -1.9755    0.0000 N   0  0  0  0  0  0  0  0  0  0  0  0
    0.6494   -0.4975    0.0000 C   0  0  0  0  0  0  0  0  0  0  0  0
   -0.5029    0.4628    0.0000 H   0  0  0  0  0  0  0  0  0  0  0  0
    2.0607   -1.0057    0.0000 H   0  0  0  0  0  0  0  0  0  0  0  0
    1.3950    0.8041    0.0000 H   0  0  0  0  0  0  0  0  0  0  0  0
   -0.9499   -2.6465    0.0000 C   0  0  0  0  0  0  0  0  0  0  0  0
   -1.4728   -1.2406    0.0000 H   0  0  0  0  0  0  0  0  0  0  0  0
   -2.4036   -3.0163    0.0000 H   0  0  0  0  0  0  0  0  0  0  0  0
  1  2  1  0  0  0  0 
  1  3  1  0  0  0  0 
  1  4  1  0  0  0  0 
  1  5  1  0  0  0  0 
  5  6  1  0  0  0  0 
  5  7  1  0  0  0  0 
  5  8  1  0  0  0  0 
  8  9  1  0  0  0  0 
  8 10  1  0  0  0  0 
 11  8  1  1  0  0  0 
 11 12  1  6  0  0  0 
 11 13  1  0  0  0  0 
 13 14  1  0  0  0  0 
 13 15  1  0  0  0  0 
 13 16  1  0  0  0  0 
 16 17  1  1  0  0  0 
 16 18  1  6  0  0  0 
 18 19  2  0  0  0  0 
 18 20  1  0  0  0  0 
 20 21  1  0  0  0  0 
 20 22  1  0  0  0  0 
 22 23  1  0  0  0  0 
 22 24  1  0  0  0  0 
 24 25  1  0  0  0  0 
 24 26  1  0  0  0  0 
 26 27  1  0  0  0  0 
 26 28  1  0  0  0  0 
 26 29  1  0  0  0  0 
 24 30  1  0  0  0  0 
 31 22  1  1  0  0  0 
 31 32  1  0  0  0  0 
 32 33  1  6  0  0  0 
 32 34  1  0  0  0  0 
 34 35  1  6  0  0  0 
 34 36  1  0  0  0  0 
 36 37  1  1  0  0  0 
 36 38  1  0  0  0  0 
 38 39  1  1  0  0  0 
 38 40  1  0  0  0  0 
 31 40  1  0  0  0  0 
 38 41  1  6  0  0  0 
 41 42  1  0  0  0  0 
 42 43  1  0  0  0  0 
 42 44  1  0  0  0  0 
 42 45  1  0  0  0  0 
 36 46  1  6  0  0  0 
 46 47  1  0  0  0  0 
 34 48  1  1  0  0  0 
 48 49  1  0  0  0  0 
 32 50  1  1  0  0  0 
 50 51  1  0  0  0  0 
 31 52  1  6  0  0  0 
 52 53  1  0  0  0  0 
 16 54  1  0  0  0  0 
 54 55  1  0  0  0  0 
 55 56  1  0  0  0  0 
 55 57  1  0  0  0  0 
 55 58  1  0  0  0  0 
 54 59  1  0  0  0  0 
 11 59  1  0  0  0  0 
 59 60  1  0  0  0  0 
 59 61  1  0  0  0  0 
M  END
> <Rank>
36

> <Priority_score>
0.02

> <Reaction_type>
aliphatic hydroxylation

> <Parent_ID>
21

> <Parent_InChI>
InChI=1S/C18H33ClN2O5S/c1-5-6-10-7-11(21(3)8-10)17(25)20-12(9(2)19)16-14(23)13(22)15(24)18(26-16)27-4/h9-16,18,22-24H,5-8H2,1-4H3,(H,20,25)

> <Parent_SMILES>
CCC[C@@H]1C[C@@H](C(=O)NC(C(C)Cl)[C@H]2O[C@H](SC)[C@H](O)[C@@H](O)[C@H]2O)N(C)C1

$$$$
Molecule 21_metabolite 40
  CDK     0516241031

 58 60  0  0  0  0  0  0  0  0999 V2000
    4.0302   -1.6765    0.0000 C   0  0  0  0  0  0  0  0  0  0  0  0
    4.7801   -0.3774    0.0000 H   0  0  0  0  0  0  0  0  0  0  0  0
    3.7699   -3.1538    0.0000 H   0  0  0  0  0  0  0  0  0  0  0  0
    5.4398   -2.1894    0.0000 H   0  0  0  0  0  0  0  0  0  0  0  0
    2.5302   -1.6767    0.0000 C   0  0  0  0  0  0  0  0  0  0  0  0
    2.7909   -3.1539    0.0000 H   0  0  0  0  0  0  0  0  0  0  0  0
    1.1207   -2.1899    0.0000 H   0  0  0  0  0  0  0  0  0  0  0  0
    1.3000    0.4536    0.0000 C   0  0  0  0  0  0  0  0  0  0  0  0
    1.0394    1.9308    0.0000 H   0  0  0  0  0  0  0  0  0  0  0  0
    2.7095    0.9668    0.0000 H   0  0  0  0  0  0  0  0  0  0  0  0
   -1.6400    0.4533    0.0000 C   0  0  2  0  0  0  0  0  0  0  0  0
   -1.1273    1.8629    0.0000 H   0  0  0  0  0  0  0  0  0  0  0  0
   -1.6400   -1.0467    0.0000 C   0  0  0  0  0  0  0  0  0  0  0  0
   -1.1273   -2.4564    0.0000 H   0  0  0  0  0  0  0  0  0  0  0  0
   -0.1628   -0.7864    0.0000 H   0  0  0  0  0  0  0  0  0  0  0  0
   -2.9400   -1.7967    0.0000 C   0  0  1  0  0  0  0  0  0  0  0  0
   -2.9425   -3.2967    0.0000 H   0  0  0  0  0  0  0  0  0  0  0  0
   -4.2300   -1.0467    0.0000 C   0  0  0  0  0  0  0  0  0  0  0  0
   -5.5302   -1.7947    0.0000 O   0  0  0  0  0  0  0  0  0  0  0  0
   -4.2300    0.4533    0.0000 N   0  0  0  0  0  0  0  0  0  0  0  0
   -5.5302    1.2013    0.0000 C   0  0  0  0  0  0  0  0  0  0  0  0
   -4.5677    2.3518    0.0000 H   0  0  0  0  0  0  0  0  0  0  0  0
   -6.8281    0.4493    0.0000 C   0  0  0  0  0  0  0  0  0  0  0  0
   -8.3049    0.1866    0.0000 H   0  0  0  0  0  0  0  0  0  0  0  0
   -6.8258   -1.0506    0.0000 C   0  0  0  0  0  0  0  0  0  0  0  0
   -8.1237   -1.8026    0.0000 H   0  0  0  0  0  0  0  0  0  0  0  0
   -5.3490   -0.7879    0.0000 H   0  0  0  0  0  0  0  0  0  0  0  0
   -6.3106   -2.4594    0.0000 H   0  0  0  0  0  0  0  0  0  0  0  0
   -6.5698    1.9270    0.0000 Cl  0  0  0  0  0  0  0  0  0  0  0  0
   -6.8052    2.7162    0.0000 C   0  0  2  0  0  0  0  0  0  0  0  0
   -7.7678    1.5657    0.0000 H   0  0  0  0  0  0  0  0  0  0  0  0
   -8.1052    3.4645    0.0000 C   0  0  1  0  0  0  0  0  0  0  0  0
   -8.6166    2.0543    0.0000 H   0  0  0  0  0  0  0  0  0  0  0  0
   -8.1067    4.9653    0.0000 C   0  0  1  0  0  0  0  0  0  0  0  0
   -9.5836    4.7031    0.0000 H   0  0  0  0  0  0  0  0  0  0  0  0
   -6.8081    5.7178    0.0000 C   0  0  2  0  0  0  0  0  0  0  0  0
   -7.7741    6.8654    0.0000 H   0  0  0  0  0  0  0  0  0  0  0  0
   -5.5081    4.9695    0.0000 C   0  0  2  0  0  0  0  0  0  0  0  0
   -4.9968    6.3797    0.0000 H   0  0  0  0  0  0  0  0  0  0  0  0
   -5.5067    3.4687    0.0000 O   0  0  0  0  0  0  0  0  0  0  0  0
   -4.0306    4.7106    0.0000 S   0  0  0  0  0  0  0  0  0  0  0  0
   -3.0677    5.8608    0.0000 C   0  0  0  0  0  0  0  0  0  0  0  0
   -3.5823    7.2697    0.0000 H   0  0  0  0  0  0  0  0  0  0  0  0
   -1.7695    6.6122    0.0000 H   0  0  0  0  0  0  0  0  0  0  0  0
   -2.1023    4.7127    0.0000 H   0  0  0  0  0  0  0  0  0  0  0  0
   -5.8456    6.8682    0.0000 O   0  0  0  0  0  0  0  0  0  0  0  0
   -6.3606    8.2771    0.0000 H   0  0  0  0  0  0  0  0  0  0  0  0
   -8.6217    6.3741    0.0000 O   0  0  0  0  0  0  0  0  0  0  0  0
  -10.0993    6.6325    0.0000 H   0  0  0  0  0  0  0  0  0  0  0  0
   -9.5827    3.7233    0.0000 O   0  0  0  0  0  0  0  0  0  0  0  0
  -10.5456    2.5732    0.0000 H   0  0  0  0  0  0  0  0  0  0  0  0
   -2.9400    1.2033    0.0000 C   0  0  0  0  0  0  0  0  0  0  0  0
   -2.9425    2.7033    0.0000 H   0  0  0  0  0  0  0  0  0  0  0  0
   -2.4800   -0.2967    0.0000 N   0  0  0  0  0  0  0  0  0  0  0  0
   -1.0705   -0.8097    0.0000 C   0  0  0  0  0  0  0  0  0  0  0  0
   -0.6433   -3.2324    0.0000 H   0  0  0  0  0  0  0  0  0  0  0  0
    1.3895   -0.8097    0.0000 H   0  0  0  0  0  0  0  0  0  0  0  0
   -0.8100    0.6675    0.0000 H   0  0  0  0  0  0  0  0  0  0  0  0
  1  2  1  0  0  0  0 
  1  3  1  0  0  0  0 
  1  4  1  0  0  0  0 
  1  5  1  0  0  0  0 
  5  6  1  0  0  0  0 
  5  7  1  0  0  0  0 
  5  8  1  0  0  0  0 
  8  9  1  0  0  0  0 
  8 10  1  0  0  0  0 
 11  8  1  6  0  0  0 
 11 12  1  1  0  0  0 
 11 13  1  0  0  0  0 
 13 14  1  0  0  0  0 
 13 15  1  0  0  0  0 
 13 16  1  0  0  0  0 
 16 17  1  6  0  0  0 
 16 18  1  0  0  0  0 
 18 19  2  0  0  0  0 
 18 20  1  0  0  0  0 
 20 21  1  0  0  0  0 
 21 22  1  0  0  0  0 
 21 23  1  0  0  0  0 
 23 24  1  0  0  0  0 
 23 25  1  0  0  0  0 
 25 26  1  0  0  0  0 
 25 27  1  0  0  0  0 
 25 28  1  0  0  0  0 
 23 29  1  0  0  0  0 
 30 21  1  6  0  0  0 
 30 31  1  1  0  0  0 
 30 32  1  0  0  0  0 
 32 33  1  1  0  0  0 
 32 34  1  0  0  0  0 
 34 35  1  1  0  0  0 
 34 36  1  0  0  0  0 
 36 37  1  6  0  0  0 
 36 38  1  0  0  0  0 
 38 39  1  6  0  0  0 
 38 40  1  0  0  0  0 
 30 40  1  0  0  0  0 
 38 41  1  1  0  0  0 
 41 42  1  0  0  0  0 
 42 43  1  0  0  0  0 
 42 44  1  0  0  0  0 
 42 45  1  0  0  0  0 
 36 46  1  1  0  0  0 
 46 47  1  0  0  0  0 
 34 48  1  6  0  0  0 
 48 49  1  0  0  0  0 
 32 50  1  6  0  0  0 
 50 51  1  0  0  0  0 
 20 52  1  0  0  0  0 
 11 52  1  0  0  0  0 
 52 53  1  0  0  0  0 
 52 54  1  0  0  0  0 
 16 54  1  0  0  0  0 
 54 55  1  0  0  0  0 
 55 56  1  0  0  0  0 
 55 57  1  0  0  0  0 
 55 58  1  0  0  0  0 
M  END
> <Rank>
40

> <Priority_score>
0.019200000000000002

> <Reaction_type>
cyclization to 5-membered NCN ring

> <Parent_ID>
21

> <Parent_InChI>
InChI=1S/C18H33ClN2O5S/c1-5-6-10-7-11(21(3)8-10)17(25)20-12(9(2)19)16-14(23)13(22)15(24)18(26-16)27-4/h9-16,18,22-24H,5-8H2,1-4H3,(H,20,25)

> <Parent_SMILES>
CCC[C@@H]1C[C@@H](C(=O)NC(C(C)Cl)[C@H]2O[C@H](SC)[C@H](O)[C@@H](O)[C@H]2O)N(C)C1

$$$$
Molecule 21_metabolite 41
  CDK     0516241031

 59 60  0  0  0  0  0  0  0  0999 V2000
    3.8174    2.2810    0.0000 C   0  0  0  0  0  0  0  0  0  0  0  0
    3.6135    3.7670    0.0000 H   0  0  0  0  0  0  0  0  0  0  0  0
    4.5174    0.9543    0.0000 H   0  0  0  0  0  0  0  0  0  0  0  0
    5.2455    2.7399    0.0000 H   0  0  0  0  0  0  0  0  0  0  0  0
    2.6324    1.3613    0.0000 C   0  0  0  0  0  0  0  0  0  0  0  0
    3.7439    0.3540    0.0000 H   0  0  0  0  0  0  0  0  0  0  0  0
    1.8335    0.0918    0.0000 H   0  0  0  0  0  0  0  0  0  0  0  0
    1.2435    1.9277    0.0000 C   0  0  0  0  0  0  0  0  0  0  0  0
    0.1320    2.9350    0.0000 H   0  0  0  0  0  0  0  0  0  0  0  0
    2.0425    3.1972    0.0000 H   0  0  0  0  0  0  0  0  0  0  0  0
    0.0585    1.0081    0.0000 C   0  0  2  0  0  0  0  0  0  0  0  0
    1.0967   -0.0746    0.0000 H   0  0  0  0  0  0  0  0  0  0  0  0
   -0.9101   -0.1373    0.0000 C   0  0  0  0  0  0  0  0  0  0  0  0
    0.3300   -0.9812    0.0000 H   0  0  0  0  0  0  0  0  0  0  0  0
   -1.6201   -1.4586    0.0000 H   0  0  0  0  0  0  0  0  0  0  0  0
   -2.2914    0.4284    0.0000 C   0  0  1  0  0  0  0  0  0  0  0  0
   -2.7084   -1.0125    0.0000 H   0  0  0  0  0  0  0  0  0  0  0  0
   -4.2412    0.7726    0.0000 C   0  0  0  0  0  0  0  0  0  0  0  0
   -4.7540    2.1822    0.0000 O   0  0  0  0  0  0  0  0  0  0  0  0
   -5.2057   -0.3763    0.0000 N   0  0  0  0  0  0  0  0  0  0  0  0
   -4.6929   -1.7859    0.0000 H   0  0  0  0  0  0  0  0  0  0  0  0
   -7.1555   -0.0320    0.0000 C   0  0  0  0  0  0  0  0  0  0  0  0
   -8.6328   -0.2922    0.0000 H   0  0  0  0  0  0  0  0  0  0  0  0
   -7.1558   -1.5320    0.0000 C   0  0  0  0  0  0  0  0  0  0  0  0
   -6.6431   -2.9417    0.0000 H   0  0  0  0  0  0  0  0  0  0  0  0
   -8.4550   -2.2817    0.0000 C   0  0  0  0  0  0  0  0  0  0  0  0
   -9.7539   -1.5315    0.0000 H   0  0  0  0  0  0  0  0  0  0  0  0
   -9.4194   -3.4306    0.0000 H   0  0  0  0  0  0  0  0  0  0  0  0
   -7.4911   -3.4310    0.0000 H   0  0  0  0  0  0  0  0  0  0  0  0
   -5.6786   -1.2719    0.0000 Cl  0  0  0  0  0  0  0  0  0  0  0  0
   -7.6682    1.3776    0.0000 C   0  0  2  0  0  0  0  0  0  0  0  0
   -6.1910    1.6379    0.0000 H   0  0  0  0  0  0  0  0  0  0  0  0
   -7.6682    2.8776    0.0000 C   0  0  1  0  0  0  0  0  0  0  0  0
   -6.1910    2.6173    0.0000 H   0  0  0  0  0  0  0  0  0  0  0  0
   -8.9682    3.6276    0.0000 C   0  0  1  0  0  0  0  0  0  0  0  0
   -8.0042    4.7768    0.0000 H   0  0  0  0  0  0  0  0  0  0  0  0
  -10.2682    2.8776    0.0000 C   0  0  2  0  0  0  0  0  0  0  0  0
  -10.7810    4.2873    0.0000 H   0  0  0  0  0  0  0  0  0  0  0  0
  -10.2682    1.3776    0.0000 C   0  0  2  0  0  0  0  0  0  0  0  0
  -11.7455    1.6379    0.0000 H   0  0  0  0  0  0  0  0  0  0  0  0
   -8.9682    0.6276    0.0000 O   0  0  0  0  0  0  0  0  0  0  0  0
  -10.7810   -0.0320    0.0000 S   0  0  0  0  0  0  0  0  0  0  0  0
  -12.2581   -0.2928    0.0000 C   0  0  0  0  0  0  0  0  0  0  0  0
  -13.2225    0.8560    0.0000 H   0  0  0  0  0  0  0  0  0  0  0  0
  -13.5570   -1.0431    0.0000 H   0  0  0  0  0  0  0  0  0  0  0  0
  -11.7448   -1.7022    0.0000 H   0  0  0  0  0  0  0  0  0  0  0  0
  -11.7455    2.6173    0.0000 O   0  0  0  0  0  0  0  0  0  0  0  0
  -12.7095    3.7665    0.0000 H   0  0  0  0  0  0  0  0  0  0  0  0
   -9.9323    4.7768    0.0000 O   0  0  0  0  0  0  0  0  0  0  0  0
   -9.4191    6.1863    0.0000 H   0  0  0  0  0  0  0  0  0  0  0  0
   -6.9914    4.7384    0.0000 O   0  0  0  0  0  0  0  0  0  0  0  0
   -7.9559    5.8872    0.0000 H   0  0  0  0  0  0  0  0  0  0  0  0
   -2.1897    1.9270    0.0000 N   0  0  0  0  0  0  0  0  0  0  0  0
   -0.7288    2.2762    0.0000 C   0  0  0  0  0  0  0  0  0  0  0  0
   -0.1581    3.6634    0.0000 H   0  0  0  0  0  0  0  0  0  0  0  0
   -3.3350    2.8955    0.0000 C   0  0  0  0  0  0  0  0  0  0  0  0
   -3.0689    4.3717    0.0000 H   0  0  0  0  0  0  0  0  0  0  0  0
   -4.0900    1.5994    0.0000 H   0  0  0  0  0  0  0  0  0  0  0  0
   -4.7426    3.4140    0.0000 H   0  0  0  0  0  0  0  0  0  0  0  0
  1  2  1  0  0  0  0 
  1  3  1  0  0  0  0 
  1  4  1  0  0  0  0 
  1  5  1  0  0  0  0 
  5  6  1  0  0  0  0 
  5  7  1  0  0  0  0 
  5  8  1  0  0  0  0 
  8  9  1  0  0  0  0 
  8 10  1  0  0  0  0 
 11  8  1  6  0  0  0 
 11 12  1  1  0  0  0 
 11 13  1  0  0  0  0 
 13 14  1  0  0  0  0 
 13 15  1  0  0  0  0 
 13 16  1  0  0  0  0 
 16 17  1  6  0  0  0 
 16 18  1  1  0  0  0 
 18 19  2  0  0  0  0 
 18 20  1  0  0  0  0 
 20 21  1  0  0  0  0 
 20 22  1  0  0  0  0 
 22 23  1  0  0  0  0 
 22 24  1  0  0  0  0 
 24 25  1  0  0  0  0 
 24 26  1  0  0  0  0 
 26 27  1  0  0  0  0 
 26 28  1  0  0  0  0 
 26 29  1  0  0  0  0 
 24 30  1  0  0  0  0 
 31 22  1  1  0  0  0 
 31 32  1  6  0  0  0 
 31 33  1  0  0  0  0 
 33 34  1  6  0  0  0 
 33 35  1  0  0  0  0 
 35 36  1  6  0  0  0 
 35 37  1  0  0  0  0 
 37 38  1  1  0  0  0 
 37 39  1  0  0  0  0 
 39 40  1  1  0  0  0 
 39 41  1  0  0  0  0 
 31 41  1  0  0  0  0 
 39 42  1  6  0  0  0 
 42 43  1  0  0  0  0 
 43 44  1  0  0  0  0 
 43 45  1  0  0  0  0 
 43 46  1  0  0  0  0 
 37 47  1  6  0  0  0 
 47 48  1  0  0  0  0 
 35 49  1  1  0  0  0 
 49 50  1  0  0  0  0 
 33 51  1  1  0  0  0 
 51 52  1  0  0  0  0 
 16 53  1  0  0  0  0 
 53 54  2  0  0  0  0 
 11 54  1  0  0  0  0 
 54 55  1  0  0  0  0 
 53 56  1  0  0  0  0 
 56 57  1  0  0  0  0 
 56 58  1  0  0  0  0 
 56 59  1  0  0  0  0 
M  CHG  1  53   1
M  END
> <Rank>
40

> <Priority_score>
0.019200000000000002

> <Reaction_type>
dehydration of N-C bond

> <Parent_ID>
21

> <Parent_InChI>
InChI=1S/C18H33ClN2O5S/c1-5-6-10-7-11(21(3)8-10)17(25)20-12(9(2)19)16-14(23)13(22)15(24)18(26-16)27-4/h9-16,18,22-24H,5-8H2,1-4H3,(H,20,25)

> <Parent_SMILES>
CCC[C@@H]1C[C@@H](C(=O)NC(C(C)Cl)[C@H]2O[C@H](SC)[C@H](O)[C@@H](O)[C@H]2O)N(C)C1

$$$$
Molecule 21_metabolite 42
  CDK     0516241031

 58 60  0  0  0  0  0  0  0  0999 V2000
   12.9245    4.6466    0.0000 C   0  0  0  0  0  0  0  0  0  0  0  0
   12.1294    5.9185    0.0000 H   0  0  0  0  0  0  0  0  0  0  0  0
   14.1067    3.7233    0.0000 H   0  0  0  0  0  0  0  0  0  0  0  0
   14.0391    5.6504    0.0000 H   0  0  0  0  0  0  0  0  0  0  0  0
   12.2205    3.3220    0.0000 C   0  0  0  0  0  0  0  0  0  0  0  0
   13.6472    2.8587    0.0000 H   0  0  0  0  0  0  0  0  0  0  0  0
   12.0120    1.8366    0.0000 H   0  0  0  0  0  0  0  0  0  0  0  0
   10.7214    3.2694    0.0000 C   0  0  0  0  0  0  0  0  0  0  0  0
    8.8383    3.8810    0.0000 H   0  0  0  0  0  0  0  0  0  0  0  0
   10.9300    4.7549    0.0000 H   0  0  0  0  0  0  0  0  0  0  0  0
    9.7922    1.5211    0.0000 C   0  0  2  0  0  0  0  0  0  0  0  0
   11.1829    0.9589    0.0000 H   0  0  0  0  0  0  0  0  0  0  0  0
    9.3791    0.0831    0.0000 C   0  0  0  0  0  0  0  0  0  0  0  0
   10.8565   -0.1764    0.0000 H   0  0  0  0  0  0  0  0  0  0  0  0
    9.2771   -1.4135    0.0000 H   0  0  0  0  0  0  0  0  0  0  0  0
    7.8780    0.0262    0.0000 C   0  0  1  0  0  0  0  0  0  0  0  0
    8.3910   -1.3833    0.0000 H   0  0  0  0  0  0  0  0  0  0  0  0
    6.6916   -0.8951    0.0000 C   0  0  0  0  0  0  0  0  0  0  0  0
    6.7421   -2.3943    0.0000 O   0  0  0  0  0  0  0  0  0  0  0  0
    5.4508   -0.0591    0.0000 N   0  0  0  0  0  0  0  0  0  0  0  0
    5.8639    1.3789    0.0000 C   0  0  0  0  0  0  0  0  0  0  0  0
    4.3865    1.6384    0.0000 H   0  0  0  0  0  0  0  0  0  0  0  0
    5.9658    2.8755    0.0000 H   0  0  0  0  0  0  0  0  0  0  0  0
    7.3650    1.4358    0.0000 N   0  0  0  0  0  0  0  0  0  0  0  0
    8.5514    2.3571    0.0000 C   0  0  0  0  0  0  0  0  0  0  0  0
    7.5114    3.4380    0.0000 H   0  0  0  0  0  0  0  0  0  0  0  0
    9.5163    3.5055    0.0000 H   0  0  0  0  0  0  0  0  0  0  0  0
    4.0413   -0.5721    0.0000 C   0  0  0  0  0  0  0  0  0  0  0  0
    2.5413   -0.5721    0.0000 H   0  0  0  0  0  0  0  0  0  0  0  0
    3.7808   -2.0493    0.0000 C   0  0  0  0  0  0  0  0  0  0  0  0
    5.2808   -2.0493    0.0000 H   0  0  0  0  0  0  0  0  0  0  0  0
    2.3712   -2.5623    0.0000 C   0  0  0  0  0  0  0  0  0  0  0  0
    1.2222   -1.5982    0.0000 H   0  0  0  0  0  0  0  0  0  0  0  0
    1.2222   -3.5265    0.0000 H   0  0  0  0  0  0  0  0  0  0  0  0
    3.1212   -3.8614    0.0000 H   0  0  0  0  0  0  0  0  0  0  0  0
    4.0413   -3.5265    0.0000 Cl  0  0  0  0  0  0  0  0  0  0  0  0
    3.5307    2.3232    0.0000 C   0  0  2  0  0  0  0  0  0  0  0  0
    5.0307    2.3234    0.0000 H   0  0  0  0  0  0  0  0  0  0  0  0
    3.7909    3.8005    0.0000 C   0  0  1  0  0  0  0  0  0  0  0  0
    5.2006    3.2879    0.0000 H   0  0  0  0  0  0  0  0  0  0  0  0
    2.6407    4.7646    0.0000 C   0  0  1  0  0  0  0  0  0  0  0  0
    3.7894    5.7291    0.0000 H   0  0  0  0  0  0  0  0  0  0  0  0
    1.2303    4.2514    0.0000 C   0  0  2  0  0  0  0  0  0  0  0  0
    0.9698    5.7286    0.0000 H   0  0  0  0  0  0  0  0  0  0  0  0
    0.9701    2.7742    0.0000 C   0  0  2  0  0  0  0  0  0  0  0  0
   -0.4396    3.2867    0.0000 H   0  0  0  0  0  0  0  0  0  0  0  0
    2.1203    1.8101    0.0000 O   0  0  0  0  0  0  0  0  0  0  0  0
    0.2207    1.4748    0.0000 S   0  0  0  0  0  0  0  0  0  0  0  0
   -1.2793    1.4742    0.0000 C   0  0  0  0  0  0  0  0  0  0  0  0
   -2.0299    2.7729    0.0000 H   0  0  0  0  0  0  0  0  0  0  0  0
   -1.0182   -0.0029    0.0000 H   0  0  0  0  0  0  0  0  0  0  0  0
   -2.6886    0.9605    0.0000 H   0  0  0  0  0  0  0  0  0  0  0  0
   -0.2697    4.2513    0.0000 O   0  0  0  0  0  0  0  0  0  0  0  0
   -1.0199    5.5502    0.0000 H   0  0  0  0  0  0  0  0  0  0  0  0
    1.8905    6.0636    0.0000 O   0  0  0  0  0  0  0  0  0  0  0  0
    2.6404    7.3627    0.0000 H   0  0  0  0  0  0  0  0  0  0  0  0
    4.5403    5.0999    0.0000 O   0  0  0  0  0  0  0  0  0  0  0  0
    6.0403    5.1005    0.0000 H   0  0  0  0  0  0  0  0  0  0  0  0
  1  2  1  0  0  0  0 
  1  3  1  0  0  0  0 
  1  4  1  0  0  0  0 
  1  5  1  0  0  0  0 
  5  6  1  0  0  0  0 
  5  7  1  0  0  0  0 
  5  8  1  0  0  0  0 
  8  9  1  0  0  0  0 
  8 10  1  0  0  0  0 
 11  8  1  6  0  0  0 
 11 12  1  1  0  0  0 
 11 13  1  0  0  0  0 
 13 14  1  0  0  0  0 
 13 15  1  0  0  0  0 
 13 16  1  0  0  0  0 
 16 17  1  6  0  0  0 
 16 18  1  0  0  0  0 
 18 19  2  0  0  0  0 
 18 20  1  0  0  0  0 
 20 21  1  0  0  0  0 
 21 22  1  0  0  0  0 
 21 23  1  0  0  0  0 
 21 24  1  0  0  0  0 
 16 24  1  0  0  0  0 
 24 25  1  0  0  0  0 
 11 25  1  0  0  0  0 
 25 26  1  0  0  0  0 
 25 27  1  0  0  0  0 
 20 28  1  0  0  0  0 
 28 29  1  0  0  0  0 
 28 30  1  0  0  0  0 
 30 31  1  0  0  0  0 
 30 32  1  0  0  0  0 
 32 33  1  0  0  0  0 
 32 34  1  0  0  0  0 
 32 35  1  0  0  0  0 
 30 36  1  0  0  0  0 
 37 28  1  1  0  0  0 
 37 38  1  6  0  0  0 
 37 39  1  0  0  0  0 
 39 40  1  6  0  0  0 
 39 41  1  0  0  0  0 
 41 42  1  6  0  0  0 
 41 43  1  0  0  0  0 
 43 44  1  1  0  0  0 
 43 45  1  0  0  0  0 
 45 46  1  1  0  0  0 
 45 47  1  0  0  0  0 
 37 47  1  0  0  0  0 
 45 48  1  6  0  0  0 
 48 49  1  0  0  0  0 
 49 50  1  0  0  0  0 
 49 51  1  0  0  0  0 
 49 52  1  0  0  0  0 
 43 53  1  6  0  0  0 
 53 54  1  0  0  0  0 
 41 55  1  1  0  0  0 
 55 56  1  0  0  0  0 
 39 57  1  1  0  0  0 
 57 58  1  0  0  0  0 
M  END
> <Rank>
40

> <Priority_score>
0.019200000000000002

> <Reaction_type>
cyclization to 5-membered NCN ring

> <Parent_ID>
21

> <Parent_InChI>
InChI=1S/C18H33ClN2O5S/c1-5-6-10-7-11(21(3)8-10)17(25)20-12(9(2)19)16-14(23)13(22)15(24)18(26-16)27-4/h9-16,18,22-24H,5-8H2,1-4H3,(H,20,25)

> <Parent_SMILES>
CCC[C@@H]1C[C@@H](C(=O)NC(C(C)Cl)[C@H]2O[C@H](SC)[C@H](O)[C@@H](O)[C@H]2O)N(C)C1

$$$$
Molecule 21_metabolite 43
  CDK     0516241031

 58 59  0  0  0  0  0  0  0  0999 V2000
   14.5774    4.1969    0.0000 C   0  0  0  0  0  0  0  0  0  0  0  0
   15.2356    2.8490    0.0000 H   0  0  0  0  0  0  0  0  0  0  0  0
   14.4200    5.6886    0.0000 H   0  0  0  0  0  0  0  0  0  0  0  0
   16.0191    4.6110    0.0000 H   0  0  0  0  0  0  0  0  0  0  0  0
   13.0810    4.3009    0.0000 C   0  0  0  0  0  0  0  0  0  0  0  0
   13.4433    5.7565    0.0000 H   0  0  0  0  0  0  0  0  0  0  0  0
   11.7105    4.9104    0.0000 H   0  0  0  0  0  0  0  0  0  0  0  0
   12.2428    3.0570    0.0000 C   0  0  0  0  0  0  0  0  0  0  0  0
   11.8806    1.6014    0.0000 H   0  0  0  0  0  0  0  0  0  0  0  0
   13.6134    2.4475    0.0000 H   0  0  0  0  0  0  0  0  0  0  0  0
   10.7464    3.1609    0.0000 C   0  0  0  0  0  0  0  0  0  0  0  0
    9.9543    4.4261    0.0000 C   0  0  0  0  0  0  0  0  0  0  0  0
   10.5197    5.8155    0.0000 H   0  0  0  0  0  0  0  0  0  0  0  0
    8.4948    4.0712    0.0000 N   0  0  0  0  0  0  0  0  0  0  0  0
    7.3457    5.0354    0.0000 C   0  0  0  0  0  0  0  0  0  0  0  0
    5.9362    4.5224    0.0000 H   0  0  0  0  0  0  0  0  0  0  0  0
    8.4948    5.9996    0.0000 H   0  0  0  0  0  0  0  0  0  0  0  0
    6.5957    6.3345    0.0000 H   0  0  0  0  0  0  0  0  0  0  0  0
    8.3988    2.5723    0.0000 C   0  0  1  0  0  0  0  0  0  0  0  0
    6.9206    2.8274    0.0000 H   0  0  0  0  0  0  0  0  0  0  0  0
    9.7822    2.0119    0.0000 C   0  0  0  0  0  0  0  0  0  0  0  0
    9.0772    0.6879    0.0000 H   0  0  0  0  0  0  0  0  0  0  0  0
   11.0255    1.1727    0.0000 H   0  0  0  0  0  0  0  0  0  0  0  0
    7.8556    0.6682    0.0000 C   0  0  0  0  0  0  0  0  0  0  0  0
    8.8991   -0.4094    0.0000 O   0  0  0  0  0  0  0  0  0  0  0  0
    6.4007    0.3033    0.0000 N   0  0  0  0  0  0  0  0  0  0  0  0
    5.3572    1.3809    0.0000 H   0  0  0  0  0  0  0  0  0  0  0  0
    5.8575   -1.6007    0.0000 C   0  0  0  0  0  0  0  0  0  0  0  0
    4.9775   -2.8154    0.0000 H   0  0  0  0  0  0  0  0  0  0  0  0
    6.9009   -2.6783    0.0000 C   0  0  0  0  0  0  0  0  0  0  0  0
    7.7810   -1.4636    0.0000 H   0  0  0  0  0  0  0  0  0  0  0  0
    6.4895   -4.1207    0.0000 C   0  0  0  0  0  0  0  0  0  0  0  0
    5.0345   -4.4856    0.0000 H   0  0  0  0  0  0  0  0  0  0  0  0
    6.5961   -5.6169    0.0000 H   0  0  0  0  0  0  0  0  0  0  0  0
    7.9815   -4.2755    0.0000 H   0  0  0  0  0  0  0  0  0  0  0  0
    8.2500   -3.3340    0.0000 Cl  0  0  0  0  0  0  0  0  0  0  0  0
    4.5084   -0.9450    0.0000 C   0  0  2  0  0  0  0  0  0  0  0  0
    5.3883    0.2698    0.0000 H   0  0  0  0  0  0  0  0  0  0  0  0
    3.4647    0.1324    0.0000 C   0  0  1  0  0  0  0  0  0  0  0  0
    4.7069    0.9733    0.0000 H   0  0  0  0  0  0  0  0  0  0  0  0
    2.0092   -0.2335    0.0000 C   0  0  1  0  0  0  0  0  0  0  0  0
    1.9020    1.2627    0.0000 H   0  0  0  0  0  0  0  0  0  0  0  0
    1.5973   -1.6767    0.0000 C   0  0  2  0  0  0  0  0  0  0  0  0
    0.2482   -1.0210    0.0000 H   0  0  0  0  0  0  0  0  0  0  0  0
    2.6410   -2.7540    0.0000 C   0  0  2  0  0  0  0  0  0  0  0  0
    1.3988   -3.5949    0.0000 H   0  0  0  0  0  0  0  0  0  0  0  0
    4.0965   -2.3882    0.0000 O   0  0  0  0  0  0  0  0  0  0  0  0
    3.2535   -4.1233    0.0000 S   0  0  0  0  0  0  0  0  0  0  0  0
    2.3740   -5.3384    0.0000 C   0  0  0  0  0  0  0  0  0  0  0  0
    0.8820   -5.1843    0.0000 H   0  0  0  0  0  0  0  0  0  0  0  0
    1.9632   -6.7810    0.0000 H   0  0  0  0  0  0  0  0  0  0  0  0
    3.7234   -5.9935    0.0000 H   0  0  0  0  0  0  0  0  0  0  0  0
    0.7174   -2.8915    0.0000 O   0  0  0  0  0  0  0  0  0  0  0  0
   -0.7746   -2.7369    0.0000 H   0  0  0  0  0  0  0  0  0  0  0  0
    0.5171   -0.0789    0.0000 O   0  0  0  0  0  0  0  0  0  0  0  0
   -0.0950    1.2905    0.0000 H   0  0  0  0  0  0  0  0  0  0  0  0
    2.8522    1.5016    0.0000 O   0  0  0  0  0  0  0  0  0  0  0  0
    3.7317    2.7167    0.0000 H   0  0  0  0  0  0  0  0  0  0  0  0
  1  2  1  0  0  0  0 
  1  3  1  0  0  0  0 
  1  4  1  0  0  0  0 
  1  5  1  0  0  0  0 
  5  6  1  0  0  0  0 
  5  7  1  0  0  0  0 
  5  8  1  0  0  0  0 
  8  9  1  0  0  0  0 
  8 10  1  0  0  0  0 
  8 11  1  0  0  0  0 
 11 12  2  0  0  0  0 
 12 13  1  0  0  0  0 
 12 14  1  0  0  0  0 
 14 15  1  0  0  0  0 
 15 16  1  0  0  0  0 
 15 17  1  0  0  0  0 
 15 18  1  0  0  0  0 
 14 19  1  0  0  0  0 
 19 20  1  6  0  0  0 
 19 21  1  0  0  0  0 
 11 21  1  0  0  0  0 
 21 22  1  0  0  0  0 
 21 23  1  0  0  0  0 
 19 24  1  1  0  0  0 
 24 25  2  0  0  0  0 
 24 26  1  0  0  0  0 
 26 27  1  0  0  0  0 
 26 28  1  0  0  0  0 
 28 29  1  0  0  0  0 
 28 30  1  0  0  0  0 
 30 31  1  0  0  0  0 
 30 32  1  0  0  0  0 
 32 33  1  0  0  0  0 
 32 34  1  0  0  0  0 
 32 35  1  0  0  0  0 
 30 36  1  0  0  0  0 
 37 28  1  1  0  0  0 
 37 38  1  6  0  0  0 
 37 39  1  0  0  0  0 
 39 40  1  6  0  0  0 
 39 41  1  0  0  0  0 
 41 42  1  6  0  0  0 
 41 43  1  0  0  0  0 
 43 44  1  1  0  0  0 
 43 45  1  0  0  0  0 
 45 46  1  1  0  0  0 
 45 47  1  0  0  0  0 
 37 47  1  0  0  0  0 
 45 48  1  6  0  0  0 
 48 49  1  0  0  0  0 
 49 50  1  0  0  0  0 
 49 51  1  0  0  0  0 
 49 52  1  0  0  0  0 
 43 53  1  6  0  0  0 
 53 54  1  0  0  0  0 
 41 55  1  1  0  0  0 
 55 56  1  0  0  0  0 
 39 57  1  1  0  0  0 
 57 58  1  0  0  0  0 
M  END
> <Rank>
40

> <Priority_score>
0.019200000000000002

> <Reaction_type>
alkyl dehydrogenation

> <Parent_ID>
21

> <Parent_InChI>
InChI=1S/C18H33ClN2O5S/c1-5-6-10-7-11(21(3)8-10)17(25)20-12(9(2)19)16-14(23)13(22)15(24)18(26-16)27-4/h9-16,18,22-24H,5-8H2,1-4H3,(H,20,25)

> <Parent_SMILES>
CCC[C@@H]1C[C@@H](C(=O)NC(C(C)Cl)[C@H]2O[C@H](SC)[C@H](O)[C@@H](O)[C@H]2O)N(C)C1

$$$$
Molecule 21_metabolite 44
  CDK     0516241031

 59 60  0  0  0  0  0  0  0  0999 V2000
    3.8410    2.3732    0.0000 C   0  0  0  0  0  0  0  0  0  0  0  0
    3.6370    3.8592    0.0000 H   0  0  0  0  0  0  0  0  0  0  0  0
    4.5409    1.0465    0.0000 H   0  0  0  0  0  0  0  0  0  0  0  0
    5.2691    2.8321    0.0000 H   0  0  0  0  0  0  0  0  0  0  0  0
    2.6560    1.4535    0.0000 C   0  0  0  0  0  0  0  0  0  0  0  0
    3.7674    0.4462    0.0000 H   0  0  0  0  0  0  0  0  0  0  0  0
    1.8570    0.1840    0.0000 H   0  0  0  0  0  0  0  0  0  0  0  0
    1.2670    2.0199    0.0000 C   0  0  0  0  0  0  0  0  0  0  0  0
   -0.2001    3.3495    0.0000 H   0  0  0  0  0  0  0  0  0  0  0  0
    2.0660    3.2894    0.0000 H   0  0  0  0  0  0  0  0  0  0  0  0
   -0.2972    0.8060    0.0000 C   0  0  2  0  0  0  0  0  0  0  0  0
    0.7410   -0.2767    0.0000 H   0  0  0  0  0  0  0  0  0  0  0  0
   -1.2657   -0.3394    0.0000 C   0  0  0  0  0  0  0  0  0  0  0  0
   -0.0257   -1.1833    0.0000 H   0  0  0  0  0  0  0  0  0  0  0  0
   -1.9758   -1.6607    0.0000 H   0  0  0  0  0  0  0  0  0  0  0  0
   -2.6471    0.2263    0.0000 C   0  0  1  0  0  0  0  0  0  0  0  0
   -3.0641   -1.2146    0.0000 H   0  0  0  0  0  0  0  0  0  0  0  0
   -4.1242    0.4870    0.0000 C   0  0  0  0  0  0  0  0  0  0  0  0
   -4.6369    1.8967    0.0000 O   0  0  0  0  0  0  0  0  0  0  0  0
   -5.0886   -0.6618    0.0000 N   0  0  0  0  0  0  0  0  0  0  0  0
   -4.5759   -2.0715    0.0000 H   0  0  0  0  0  0  0  0  0  0  0  0
   -7.0385   -0.3176    0.0000 C   0  0  0  0  0  0  0  0  0  0  0  0
   -8.5157   -0.5777    0.0000 H   0  0  0  0  0  0  0  0  0  0  0  0
   -7.0388   -1.8176    0.0000 C   0  0  0  0  0  0  0  0  0  0  0  0
   -6.5261   -3.2272    0.0000 H   0  0  0  0  0  0  0  0  0  0  0  0
   -8.3380   -2.5673    0.0000 C   0  0  0  0  0  0  0  0  0  0  0  0
   -9.6369   -1.8170    0.0000 H   0  0  0  0  0  0  0  0  0  0  0  0
   -9.3024   -3.7162    0.0000 H   0  0  0  0  0  0  0  0  0  0  0  0
   -7.3741   -3.7166    0.0000 H   0  0  0  0  0  0  0  0  0  0  0  0
   -5.5615   -1.5574    0.0000 Cl  0  0  0  0  0  0  0  0  0  0  0  0
   -7.7153    1.5432    0.0000 C   0  0  2  0  0  0  0  0  0  0  0  0
   -6.2380    1.8035    0.0000 H   0  0  0  0  0  0  0  0  0  0  0  0
   -7.7153    3.0432    0.0000 C   0  0  1  0  0  0  0  0  0  0  0  0
   -6.2380    2.7829    0.0000 H   0  0  0  0  0  0  0  0  0  0  0  0
   -9.0153    3.7932    0.0000 C   0  0  1  0  0  0  0  0  0  0  0  0
   -8.0512    4.9423    0.0000 H   0  0  0  0  0  0  0  0  0  0  0  0
  -10.3153    3.0432    0.0000 C   0  0  2  0  0  0  0  0  0  0  0  0
  -10.8280    4.4528    0.0000 H   0  0  0  0  0  0  0  0  0  0  0  0
  -10.3153    1.5432    0.0000 C   0  0  2  0  0  0  0  0  0  0  0  0
  -11.7925    1.8035    0.0000 H   0  0  0  0  0  0  0  0  0  0  0  0
   -9.0153    0.7932    0.0000 O   0  0  0  0  0  0  0  0  0  0  0  0
  -10.8280    0.1335    0.0000 S   0  0  0  0  0  0  0  0  0  0  0  0
  -12.3052   -0.1273    0.0000 C   0  0  0  0  0  0  0  0  0  0  0  0
  -13.2696    1.0216    0.0000 H   0  0  0  0  0  0  0  0  0  0  0  0
  -13.6040   -0.8775    0.0000 H   0  0  0  0  0  0  0  0  0  0  0  0
  -11.7918   -1.5367    0.0000 H   0  0  0  0  0  0  0  0  0  0  0  0
  -11.7925    2.7829    0.0000 O   0  0  0  0  0  0  0  0  0  0  0  0
  -12.7566    3.9320    0.0000 H   0  0  0  0  0  0  0  0  0  0  0  0
   -9.9793    4.9423    0.0000 O   0  0  0  0  0  0  0  0  0  0  0  0
   -9.4662    6.3518    0.0000 H   0  0  0  0  0  0  0  0  0  0  0  0
   -7.2026    4.4528    0.0000 O   0  0  0  0  0  0  0  0  0  0  0  0
   -5.7254    4.7136    0.0000 H   0  0  0  0  0  0  0  0  0  0  0  0
   -2.5453    1.7249    0.0000 N   0  0  0  0  0  0  0  0  0  0  0  0
   -3.5051    2.8776    0.0000 C   0  0  0  0  0  0  0  0  0  0  0  0
   -2.9867    4.2852    0.0000 H   0  0  0  0  0  0  0  0  0  0  0  0
   -4.9833    2.6228    0.0000 H   0  0  0  0  0  0  0  0  0  0  0  0
   -1.0844    2.0741    0.0000 C   0  0  0  0  0  0  0  0  0  0  0  0
   -1.5870    3.4874    0.0000 H   0  0  0  0  0  0  0  0  0  0  0  0
    0.2672    2.7247    0.0000 H   0  0  0  0  0  0  0  0  0  0  0  0
  1  2  1  0  0  0  0 
  1  3  1  0  0  0  0 
  1  4  1  0  0  0  0 
  1  5  1  0  0  0  0 
  5  6  1  0  0  0  0 
  5  7  1  0  0  0  0 
  5  8  1  0  0  0  0 
  8  9  1  0  0  0  0 
  8 10  1  0  0  0  0 
 11  8  1  6  0  0  0 
 11 12  1  1  0  0  0 
 11 13  1  0  0  0  0 
 13 14  1  0  0  0  0 
 13 15  1  0  0  0  0 
 13 16  1  0  0  0  0 
 16 17  1  6  0  0  0 
 16 18  1  1  0  0  0 
 18 19  2  0  0  0  0 
 18 20  1  0  0  0  0 
 20 21  1  0  0  0  0 
 20 22  1  0  0  0  0 
 22 23  1  0  0  0  0 
 22 24  1  0  0  0  0 
 24 25  1  0  0  0  0 
 24 26  1  0  0  0  0 
 26 27  1  0  0  0  0 
 26 28  1  0  0  0  0 
 26 29  1  0  0  0  0 
 24 30  1  0  0  0  0 
 31 22  1  1  0  0  0 
 31 32  1  6  0  0  0 
 31 33  1  0  0  0  0 
 33 34  1  6  0  0  0 
 33 35  1  0  0  0  0 
 35 36  1  6  0  0  0 
 35 37  1  0  0  0  0 
 37 38  1  1  0  0  0 
 37 39  1  0  0  0  0 
 39 40  1  1  0  0  0 
 39 41  1  0  0  0  0 
 31 41  1  0  0  0  0 
 39 42  1  6  0  0  0 
 42 43  1  0  0  0  0 
 43 44  1  0  0  0  0 
 43 45  1  0  0  0  0 
 43 46  1  0  0  0  0 
 37 47  1  6  0  0  0 
 47 48  1  0  0  0  0 
 35 49  1  1  0  0  0 
 49 50  1  0  0  0  0 
 33 51  1  1  0  0  0 
 51 52  1  0  0  0  0 
 16 53  1  0  0  0  0 
 53 54  2  0  0  0  0 
 54 55  1  0  0  0  0 
 54 56  1  0  0  0  0 
 53 57  1  0  0  0  0 
 11 57  1  0  0  0  0 
 57 58  1  0  0  0  0 
 57 59  1  0  0  0  0 
M  CHG  1  53   1
M  END
> <Rank>
40

> <Priority_score>
0.019200000000000002

> <Reaction_type>
dehydration of N-C bond

> <Parent_ID>
21

> <Parent_InChI>
InChI=1S/C18H33ClN2O5S/c1-5-6-10-7-11(21(3)8-10)17(25)20-12(9(2)19)16-14(23)13(22)15(24)18(26-16)27-4/h9-16,18,22-24H,5-8H2,1-4H3,(H,20,25)

> <Parent_SMILES>
CCC[C@@H]1C[C@@H](C(=O)NC(C(C)Cl)[C@H]2O[C@H](SC)[C@H](O)[C@@H](O)[C@H]2O)N(C)C1

$$$$
Molecule 21_metabolite 45
  CDK     0516241031

 36 36  0  0  0  0  0  0  0  0999 V2000
   -3.9467    4.5412    0.0000 C   0  0  0  0  0  0  0  0  0  0  0  0
   -2.9823    5.6900    0.0000 H   0  0  0  0  0  0  0  0  0  0  0  0
   -5.2459    3.7915    0.0000 H   0  0  0  0  0  0  0  0  0  0  0  0
   -4.9106    5.6904    0.0000 H   0  0  0  0  0  0  0  0  0  0  0  0
   -3.2699    2.6804    0.0000 C   0  0  0  0  0  0  0  0  0  0  0  0
   -4.7472    2.4203    0.0000 H   0  0  0  0  0  0  0  0  0  0  0  0
   -1.7927    2.4196    0.0000 C   0  0  0  0  0  0  0  0  0  0  0  0
   -0.3155    2.6798    0.0000 H   0  0  0  0  0  0  0  0  0  0  0  0
   -1.1159    0.5589    0.0000 C   0  0  2  0  0  0  0  0  0  0  0  0
   -2.5932    0.2986    0.0000 H   0  0  0  0  0  0  0  0  0  0  0  0
   -1.1159   -0.9411    0.0000 C   0  0  1  0  0  0  0  0  0  0  0  0
   -2.5932   -0.6808    0.0000 H   0  0  0  0  0  0  0  0  0  0  0  0
    0.1841   -1.6911    0.0000 C   0  0  1  0  0  0  0  0  0  0  0  0
   -0.7800   -2.8403    0.0000 H   0  0  0  0  0  0  0  0  0  0  0  0
    1.4841   -0.9411    0.0000 C   0  0  2  0  0  0  0  0  0  0  0  0
    1.9968   -2.3507    0.0000 H   0  0  0  0  0  0  0  0  0  0  0  0
    1.4841    0.5589    0.0000 C   0  0  2  0  0  0  0  0  0  0  0  0
    2.9613    0.2986    0.0000 H   0  0  0  0  0  0  0  0  0  0  0  0
    0.1841    1.3089    0.0000 O   0  0  0  0  0  0  0  0  0  0  0  0
    1.9968    1.9686    0.0000 S   0  0  0  0  0  0  0  0  0  0  0  0
    3.4740    2.2293    0.0000 C   0  0  0  0  0  0  0  0  0  0  0  0
    4.4384    1.0805    0.0000 H   0  0  0  0  0  0  0  0  0  0  0  0
    2.9606    3.6388    0.0000 H   0  0  0  0  0  0  0  0  0  0  0  0
    4.7728    2.9796    0.0000 H   0  0  0  0  0  0  0  0  0  0  0  0
    2.9613   -0.6808    0.0000 O   0  0  0  0  0  0  0  0  0  0  0  0
    3.9254   -1.8299    0.0000 H   0  0  0  0  0  0  0  0  0  0  0  0
    1.1481   -2.8403    0.0000 O   0  0  0  0  0  0  0  0  0  0  0  0
    0.6350   -4.2497    0.0000 H   0  0  0  0  0  0  0  0  0  0  0  0
   -1.6287   -2.3507    0.0000 O   0  0  0  0  0  0  0  0  0  0  0  0
   -3.1058   -2.6115    0.0000 H   0  0  0  0  0  0  0  0  0  0  0  0
   -1.7924    3.9196    0.0000 N   0  0  0  0  0  0  0  0  0  0  0  0
   -3.0913    4.6699    0.0000 H   0  0  0  0  0  0  0  0  0  0  0  0
   -0.4932    4.6694    0.0000 C   0  0  0  0  0  0  0  0  0  0  0  0
   -0.4929    6.1694    0.0000 H   0  0  0  0  0  0  0  0  0  0  0  0
    0.8057    3.9191    0.0000 O   0  0  0  0  0  0  0  0  0  0  0  0
   -3.2702    1.1804    0.0000 Cl  0  0  0  0  0  0  0  0  0  0  0  0
  1  2  1  0  0  0  0 
  1  3  1  0  0  0  0 
  1  4  1  0  0  0  0 
  1  5  1  0  0  0  0 
  5  6  1  0  0  0  0 
  5  7  1  0  0  0  0 
  7  8  1  0  0  0  0 
  9  7  1  1  0  0  0 
  9 10  1  6  0  0  0 
  9 11  1  0  0  0  0 
 11 12  1  6  0  0  0 
 11 13  1  0  0  0  0 
 13 14  1  6  0  0  0 
 13 15  1  0  0  0  0 
 15 16  1  1  0  0  0 
 15 17  1  0  0  0  0 
 17 18  1  1  0  0  0 
 17 19  1  0  0  0  0 
  9 19  1  0  0  0  0 
 17 20  1  6  0  0  0 
 20 21  1  0  0  0  0 
 21 22  1  0  0  0  0 
 21 23  1  0  0  0  0 
 21 24  1  0  0  0  0 
 15 25  1  6  0  0  0 
 25 26  1  0  0  0  0 
 13 27  1  1  0  0  0 
 27 28  1  0  0  0  0 
 11 29  1  1  0  0  0 
 29 30  1  0  0  0  0 
  7 31  1  0  0  0  0 
 31 32  1  0  0  0  0 
 31 33  1  0  0  0  0 
 33 34  1  0  0  0  0 
 33 35  2  0  0  0  0 
  5 36  1  0  0  0  0 
M  END
> <Rank>
45

> <Priority_score>
0.0184

> <Reaction_type>
deformylation

> <Parent_ID>
21

> <Parent_InChI>
InChI=1S/C18H33ClN2O5S/c1-5-6-10-7-11(21(3)8-10)17(25)20-12(9(2)19)16-14(23)13(22)15(24)18(26-16)27-4/h9-16,18,22-24H,5-8H2,1-4H3,(H,20,25)

> <Parent_SMILES>
CCC[C@@H]1C[C@@H](C(=O)NC(C(C)Cl)[C@H]2O[C@H](SC)[C@H](O)[C@@H](O)[C@H]2O)N(C)C1

$$$$
Molecule 21_metabolite 46
  CDK     0516241031

 24 24  0  0  0  0  0  0  0  0999 V2000
   -2.9431    1.6670    0.0000 C   0  0  0  0  0  0  0  0  0  0  0  0
   -2.4787    3.0933    0.0000 H   0  0  0  0  0  0  0  0  0  0  0  0
   -3.8672    0.4855    0.0000 H   0  0  0  0  0  0  0  0  0  0  0  0
   -4.2671    2.3719    0.0000 H   0  0  0  0  0  0  0  0  0  0  0  0
   -1.9400    0.5516    0.0000 C   0  0  0  0  0  0  0  0  0  0  0  0
   -3.2126   -0.2425    0.0000 H   0  0  0  0  0  0  0  0  0  0  0  0
   -1.3789   -0.8395    0.0000 H   0  0  0  0  0  0  0  0  0  0  0  0
   -0.4726    0.8626    0.0000 C   0  0  0  0  0  0  0  0  0  0  0  0
    1.2071    1.9109    0.0000 H   0  0  0  0  0  0  0  0  0  0  0  0
   -1.0337    2.2538    0.0000 H   0  0  0  0  0  0  0  0  0  0  0  0
    0.8514   -0.6096    0.0000 C   0  0  2  0  0  0  0  0  0  0  0  0
   -0.3624   -1.4909    0.0000 H   0  0  0  0  0  0  0  0  0  0  0  0
    1.6014   -1.9086    0.0000 C   0  0  0  0  0  0  0  0  0  0  0  0
    0.9919   -3.2792    0.0000 H   0  0  0  0  0  0  0  0  0  0  0  0
    3.0612   -1.5970    0.0000 C   0  0  0  0  0  0  0  0  0  0  0  0
    4.1734   -2.6034    0.0000 H   0  0  0  0  0  0  0  0  0  0  0  0
    3.2269   -0.1041    0.0000 N   0  0  0  0  0  0  0  0  0  0  0  0
    4.5260    0.6459    0.0000 C   0  0  0  0  0  0  0  0  0  0  0  0
    5.8250   -0.1041    0.0000 H   0  0  0  0  0  0  0  0  0  0  0  0
    5.4901    1.7950    0.0000 H   0  0  0  0  0  0  0  0  0  0  0  0
    3.5618    1.7950    0.0000 H   0  0  0  0  0  0  0  0  0  0  0  0
    1.8512    0.4988    0.0000 C   0  0  0  0  0  0  0  0  0  0  0  0
    2.5965    1.8006    0.0000 H   0  0  0  0  0  0  0  0  0  0  0  0
    0.6364    1.3788    0.0000 H   0  0  0  0  0  0  0  0  0  0  0  0
  1  2  1  0  0  0  0 
  1  3  1  0  0  0  0 
  1  4  1  0  0  0  0 
  1  5  1  0  0  0  0 
  5  6  1  0  0  0  0 
  5  7  1  0  0  0  0 
  5  8  1  0  0  0  0 
  8  9  1  0  0  0  0 
  8 10  1  0  0  0  0 
  8 11  1  0  0  0  0 
 11 12  1  6  0  0  0 
 11 13  1  1  0  0  0 
 13 14  1  0  0  0  0 
 13 15  2  0  0  0  0 
 15 16  1  0  0  0  0 
 15 17  1  0  0  0  0 
 17 18  1  0  0  0  0 
 18 19  1  0  0  0  0 
 18 20  1  0  0  0  0 
 18 21  1  0  0  0  0 
 17 22  1  0  0  0  0 
 11 22  1  0  0  0  0 
 22 23  1  0  0  0  0 
 22 24  1  0  0  0  0 
M  END
> <Rank>
45

> <Priority_score>
0.0184

> <Reaction_type>
deformylation

> <Parent_ID>
21

> <Parent_InChI>
InChI=1S/C18H33ClN2O5S/c1-5-6-10-7-11(21(3)8-10)17(25)20-12(9(2)19)16-14(23)13(22)15(24)18(26-16)27-4/h9-16,18,22-24H,5-8H2,1-4H3,(H,20,25)

> <Parent_SMILES>
CCC[C@@H]1C[C@@H](C(=O)NC(C(C)Cl)[C@H]2O[C@H](SC)[C@H](O)[C@@H](O)[C@H]2O)N(C)C1

$$$$
Molecule 21_metabolite 47
  CDK     0516241031

 58 59  0  0  0  0  0  0  0  0999 V2000
    4.4492    3.1919    0.0000 C   0  0  0  0  0  0  0  0  0  0  0  0
    4.2453    4.6780    0.0000 H   0  0  0  0  0  0  0  0  0  0  0  0
    5.1491    1.8652    0.0000 H   0  0  0  0  0  0  0  0  0  0  0  0
    5.8773    3.6508    0.0000 H   0  0  0  0  0  0  0  0  0  0  0  0
    3.2642    2.2722    0.0000 C   0  0  0  0  0  0  0  0  0  0  0  0
    4.3757    1.2649    0.0000 H   0  0  0  0  0  0  0  0  0  0  0  0
    2.4652    1.0027    0.0000 H   0  0  0  0  0  0  0  0  0  0  0  0
    1.8753    2.8386    0.0000 C   0  0  0  0  0  0  0  0  0  0  0  0
    0.4081    4.1683    0.0000 H   0  0  0  0  0  0  0  0  0  0  0  0
    2.6743    4.1081    0.0000 H   0  0  0  0  0  0  0  0  0  0  0  0
    0.3111    1.6247    0.0000 C   0  0  2  0  0  0  0  0  0  0  0  0
    1.3492    0.5420    0.0000 H   0  0  0  0  0  0  0  0  0  0  0  0
   -0.6575    0.4793    0.0000 C   0  0  0  0  0  0  0  0  0  0  0  0
    0.5826   -0.3646    0.0000 H   0  0  0  0  0  0  0  0  0  0  0  0
   -1.3676   -0.8420    0.0000 H   0  0  0  0  0  0  0  0  0  0  0  0
   -2.0388    1.0450    0.0000 C   0  0  1  0  0  0  0  0  0  0  0  0
   -2.4558   -0.3959    0.0000 H   0  0  0  0  0  0  0  0  0  0  0  0
   -3.9887    1.3892    0.0000 C   0  0  0  0  0  0  0  0  0  0  0  0
   -4.5014    2.7989    0.0000 O   0  0  0  0  0  0  0  0  0  0  0  0
   -4.9531    0.2404    0.0000 N   0  0  0  0  0  0  0  0  0  0  0  0
   -4.4404   -1.1693    0.0000 H   0  0  0  0  0  0  0  0  0  0  0  0
   -6.9029    0.5846    0.0000 C   0  0  0  0  0  0  0  0  0  0  0  0
   -8.3802    0.3244    0.0000 H   0  0  0  0  0  0  0  0  0  0  0  0
   -6.9033   -0.9154    0.0000 C   0  0  0  0  0  0  0  0  0  0  0  0
   -6.3905   -2.3250    0.0000 H   0  0  0  0  0  0  0  0  0  0  0  0
   -8.2025   -1.6651    0.0000 C   0  0  0  0  0  0  0  0  0  0  0  0
   -9.5013   -0.9148    0.0000 H   0  0  0  0  0  0  0  0  0  0  0  0
   -9.1669   -2.8140    0.0000 H   0  0  0  0  0  0  0  0  0  0  0  0
   -7.2385   -2.8144    0.0000 H   0  0  0  0  0  0  0  0  0  0  0  0
   -5.4260   -0.6552    0.0000 Cl  0  0  0  0  0  0  0  0  0  0  0  0
   -7.4157    1.9943    0.0000 C   0  0  2  0  0  0  0  0  0  0  0  0
   -5.9384    2.2546    0.0000 H   0  0  0  0  0  0  0  0  0  0  0  0
   -7.4157    3.4943    0.0000 C   0  0  1  0  0  0  0  0  0  0  0  0
   -5.9384    3.2339    0.0000 H   0  0  0  0  0  0  0  0  0  0  0  0
   -8.7157    4.2443    0.0000 C   0  0  1  0  0  0  0  0  0  0  0  0
   -7.7516    5.3934    0.0000 H   0  0  0  0  0  0  0  0  0  0  0  0
  -10.0157    3.4943    0.0000 C   0  0  0  0  0  0  0  0  0  0  0  0
  -10.0157    1.9943    0.0000 C   0  0  0  0  0  0  0  0  0  0  0  0
   -8.7157    1.2443    0.0000 O   0  0  0  0  0  0  0  0  0  0  0  0
  -11.3146    1.2440    0.0000 S   0  0  0  0  0  0  0  0  0  0  0  0
  -12.6137    1.9938    0.0000 C   0  0  0  0  0  0  0  0  0  0  0  0
  -13.9127    1.2436    0.0000 H   0  0  0  0  0  0  0  0  0  0  0  0
  -11.6497    3.1431    0.0000 H   0  0  0  0  0  0  0  0  0  0  0  0
  -13.5781    3.1427    0.0000 H   0  0  0  0  0  0  0  0  0  0  0  0
  -11.3146    4.2445    0.0000 O   0  0  0  0  0  0  0  0  0  0  0  0
  -11.3143    5.7445    0.0000 H   0  0  0  0  0  0  0  0  0  0  0  0
   -9.6797    5.3934    0.0000 O   0  0  0  0  0  0  0  0  0  0  0  0
   -9.1665    6.8029    0.0000 H   0  0  0  0  0  0  0  0  0  0  0  0
   -6.7389    5.3550    0.0000 O   0  0  0  0  0  0  0  0  0  0  0  0
   -7.7033    6.5038    0.0000 H   0  0  0  0  0  0  0  0  0  0  0  0
   -1.9371    2.5436    0.0000 N   0  0  0  0  0  0  0  0  0  0  0  0
   -3.0825    3.5122    0.0000 C   0  0  0  0  0  0  0  0  0  0  0  0
   -2.8163    4.9884    0.0000 H   0  0  0  0  0  0  0  0  0  0  0  0
   -3.8374    2.2160    0.0000 H   0  0  0  0  0  0  0  0  0  0  0  0
   -4.4900    4.0306    0.0000 H   0  0  0  0  0  0  0  0  0  0  0  0
   -0.4762    2.8928    0.0000 C   0  0  0  0  0  0  0  0  0  0  0  0
   -0.9787    4.3062    0.0000 H   0  0  0  0  0  0  0  0  0  0  0  0
    0.8754    3.5434    0.0000 H   0  0  0  0  0  0  0  0  0  0  0  0
  1  2  1  0  0  0  0 
  1  3  1  0  0  0  0 
  1  4  1  0  0  0  0 
  1  5  1  0  0  0  0 
  5  6  1  0  0  0  0 
  5  7  1  0  0  0  0 
  5  8  1  0  0  0  0 
  8  9  1  0  0  0  0 
  8 10  1  0  0  0  0 
 11  8  1  6  0  0  0 
 11 12  1  1  0  0  0 
 11 13  1  0  0  0  0 
 13 14  1  0  0  0  0 
 13 15  1  0  0  0  0 
 13 16  1  0  0  0  0 
 16 17  1  6  0  0  0 
 16 18  1  1  0  0  0 
 18 19  2  0  0  0  0 
 18 20  1  0  0  0  0 
 20 21  1  0  0  0  0 
 20 22  1  0  0  0  0 
 22 23  1  0  0  0  0 
 22 24  1  0  0  0  0 
 24 25  1  0  0  0  0 
 24 26  1  0  0  0  0 
 26 27  1  0  0  0  0 
 26 28  1  0  0  0  0 
 26 29  1  0  0  0  0 
 24 30  1  0  0  0  0 
 31 22  1  1  0  0  0 
 31 32  1  6  0  0  0 
 31 33  1  0  0  0  0 
 33 34  1  6  0  0  0 
 33 35  1  0  0  0  0 
 35 36  1  6  0  0  0 
 35 37  1  0  0  0  0 
 37 38  2  0  0  0  0 
 38 39  1  0  0  0  0 
 31 39  1  0  0  0  0 
 38 40  1  0  0  0  0 
 40 41  1  0  0  0  0 
 41 42  1  0  0  0  0 
 41 43  1  0  0  0  0 
 41 44  1  0  0  0  0 
 37 45  1  0  0  0  0 
 45 46  1  0  0  0  0 
 35 47  1  1  0  0  0 
 47 48  1  0  0  0  0 
 33 49  1  1  0  0  0 
 49 50  1  0  0  0  0 
 16 51  1  0  0  0  0 
 51 52  1  0  0  0  0 
 52 53  1  0  0  0  0 
 52 54  1  0  0  0  0 
 52 55  1  0  0  0  0 
 51 56  1  0  0  0  0 
 11 56  1  0  0  0  0 
 56 57  1  0  0  0  0 
 56 58  1  0  0  0  0 
M  END
> <Rank>
47

> <Priority_score>
0.0176

> <Reaction_type>
alkyl dehydrogenation

> <Parent_ID>
21

> <Parent_InChI>
InChI=1S/C18H33ClN2O5S/c1-5-6-10-7-11(21(3)8-10)17(25)20-12(9(2)19)16-14(23)13(22)15(24)18(26-16)27-4/h9-16,18,22-24H,5-8H2,1-4H3,(H,20,25)

> <Parent_SMILES>
CCC[C@@H]1C[C@@H](C(=O)NC(C(C)Cl)[C@H]2O[C@H](SC)[C@H](O)[C@@H](O)[C@H]2O)N(C)C1

$$$$
Molecule 21_metabolite 48
  CDK     0516241031

 58 59  0  0  0  0  0  0  0  0999 V2000
  -12.6487    0.3455    0.0000 C   0  0  0  0  0  0  0  0  0  0  0  0
  -12.4447   -1.1405    0.0000 H   0  0  0  0  0  0  0  0  0  0  0  0
  -13.3486    1.6722    0.0000 H   0  0  0  0  0  0  0  0  0  0  0  0
  -14.0767   -0.1134    0.0000 H   0  0  0  0  0  0  0  0  0  0  0  0
  -11.4637    1.2652    0.0000 C   0  0  0  0  0  0  0  0  0  0  0  0
  -12.5751    2.2725    0.0000 H   0  0  0  0  0  0  0  0  0  0  0  0
  -10.6647    2.5347    0.0000 H   0  0  0  0  0  0  0  0  0  0  0  0
  -10.0747    0.6988    0.0000 C   0  0  0  0  0  0  0  0  0  0  0  0
   -8.6076   -0.6308    0.0000 H   0  0  0  0  0  0  0  0  0  0  0  0
  -10.8737   -0.5707    0.0000 H   0  0  0  0  0  0  0  0  0  0  0  0
   -8.5105    1.9127    0.0000 C   0  0  2  0  0  0  0  0  0  0  0  0
   -9.5487    2.9954    0.0000 H   0  0  0  0  0  0  0  0  0  0  0  0
   -7.5419    3.0581    0.0000 C   0  0  0  0  0  0  0  0  0  0  0  0
   -8.7820    3.9020    0.0000 H   0  0  0  0  0  0  0  0  0  0  0  0
   -6.8319    4.3794    0.0000 H   0  0  0  0  0  0  0  0  0  0  0  0
   -6.1606    2.4924    0.0000 C   0  0  1  0  0  0  0  0  0  0  0  0
   -5.7436    3.9333    0.0000 H   0  0  0  0  0  0  0  0  0  0  0  0
   -4.2108    2.1482    0.0000 C   0  0  0  0  0  0  0  0  0  0  0  0
   -3.6981    0.7386    0.0000 O   0  0  0  0  0  0  0  0  0  0  0  0
   -3.2464    3.2971    0.0000 N   0  0  0  0  0  0  0  0  0  0  0  0
   -3.7591    4.7067    0.0000 H   0  0  0  0  0  0  0  0  0  0  0  0
   -1.2965    2.9528    0.0000 C   0  0  0  0  0  0  0  0  0  0  0  0
    0.1808    3.2130    0.0000 H   0  0  0  0  0  0  0  0  0  0  0  0
   -1.2962    4.4528    0.0000 C   0  0  0  0  0  0  0  0  0  0  0  0
   -1.8089    5.8625    0.0000 H   0  0  0  0  0  0  0  0  0  0  0  0
    0.0030    5.2025    0.0000 C   0  0  0  0  0  0  0  0  0  0  0  0
    1.3019    4.4523    0.0000 H   0  0  0  0  0  0  0  0  0  0  0  0
    0.9674    6.3514    0.0000 H   0  0  0  0  0  0  0  0  0  0  0  0
   -0.9609    6.3518    0.0000 H   0  0  0  0  0  0  0  0  0  0  0  0
   -2.7735    4.1927    0.0000 Cl  0  0  0  0  0  0  0  0  0  0  0  0
   -0.7838    1.5432    0.0000 C   0  0  2  0  0  0  0  0  0  0  0  0
   -2.2610    1.2829    0.0000 H   0  0  0  0  0  0  0  0  0  0  0  0
   -0.7838    0.0432    0.0000 C   0  0  1  0  0  0  0  0  0  0  0  0
   -2.2610    0.3035    0.0000 H   0  0  0  0  0  0  0  0  0  0  0  0
    0.5162   -0.7068    0.0000 C   0  0  0  0  0  0  0  0  0  0  0  0
    1.8162    0.0432    0.0000 C   0  0  0  0  0  0  0  0  0  0  0  0
    1.8162    1.5432    0.0000 C   0  0  2  0  0  0  0  0  0  0  0  0
    3.2935    1.2829    0.0000 H   0  0  0  0  0  0  0  0  0  0  0  0
    0.5162    2.2932    0.0000 O   0  0  0  0  0  0  0  0  0  0  0  0
    2.3290    2.9528    0.0000 S   0  0  0  0  0  0  0  0  0  0  0  0
    3.8061    3.2136    0.0000 C   0  0  0  0  0  0  0  0  0  0  0  0
    4.7705    2.0648    0.0000 H   0  0  0  0  0  0  0  0  0  0  0  0
    5.1050    3.9639    0.0000 H   0  0  0  0  0  0  0  0  0  0  0  0
    3.2928    4.6230    0.0000 H   0  0  0  0  0  0  0  0  0  0  0  0
    3.1151   -0.7070    0.0000 O   0  0  0  0  0  0  0  0  0  0  0  0
    3.1149   -2.2070    0.0000 H   0  0  0  0  0  0  0  0  0  0  0  0
    0.5162   -2.2068    0.0000 O   0  0  0  0  0  0  0  0  0  0  0  0
    1.8153   -2.9568    0.0000 H   0  0  0  0  0  0  0  0  0  0  0  0
   -1.2965   -1.3665    0.0000 O   0  0  0  0  0  0  0  0  0  0  0  0
   -0.3321   -2.5153    0.0000 H   0  0  0  0  0  0  0  0  0  0  0  0
   -6.2624    0.9938    0.0000 N   0  0  0  0  0  0  0  0  0  0  0  0
   -5.1170    0.0253    0.0000 C   0  0  0  0  0  0  0  0  0  0  0  0
   -5.3831   -1.4509    0.0000 H   0  0  0  0  0  0  0  0  0  0  0  0
   -4.3620    1.3214    0.0000 H   0  0  0  0  0  0  0  0  0  0  0  0
   -3.7094   -0.4932    0.0000 H   0  0  0  0  0  0  0  0  0  0  0  0
   -7.7233    0.6446    0.0000 C   0  0  0  0  0  0  0  0  0  0  0  0
   -7.2207   -0.7687    0.0000 H   0  0  0  0  0  0  0  0  0  0  0  0
   -9.0748   -0.0060    0.0000 H   0  0  0  0  0  0  0  0  0  0  0  0
  1  2  1  0  0  0  0 
  1  3  1  0  0  0  0 
  1  4  1  0  0  0  0 
  1  5  1  0  0  0  0 
  5  6  1  0  0  0  0 
  5  7  1  0  0  0  0 
  5  8  1  0  0  0  0 
  8  9  1  0  0  0  0 
  8 10  1  0  0  0  0 
 11  8  1  6  0  0  0 
 11 12  1  1  0  0  0 
 11 13  1  0  0  0  0 
 13 14  1  0  0  0  0 
 13 15  1  0  0  0  0 
 13 16  1  0  0  0  0 
 16 17  1  6  0  0  0 
 16 18  1  1  0  0  0 
 18 19  2  0  0  0  0 
 18 20  1  0  0  0  0 
 20 21  1  0  0  0  0 
 20 22  1  0  0  0  0 
 22 23  1  0  0  0  0 
 22 24  1  0  0  0  0 
 24 25  1  0  0  0  0 
 24 26  1  0  0  0  0 
 26 27  1  0  0  0  0 
 26 28  1  0  0  0  0 
 26 29  1  0  0  0  0 
 24 30  1  0  0  0  0 
 31 22  1  1  0  0  0 
 31 32  1  6  0  0  0 
 31 33  1  0  0  0  0 
 33 34  1  6  0  0  0 
 33 35  1  0  0  0  0 
 35 36  2  0  0  0  0 
 36 37  1  0  0  0  0 
 37 38  1  1  0  0  0 
 37 39  1  0  0  0  0 
 31 39  1  0  0  0  0 
 37 40  1  6  0  0  0 
 40 41  1  0  0  0  0 
 41 42  1  0  0  0  0 
 41 43  1  0  0  0  0 
 41 44  1  0  0  0  0 
 36 45  1  0  0  0  0 
 45 46  1  0  0  0  0 
 35 47  1  0  0  0  0 
 47 48  1  0  0  0  0 
 33 49  1  1  0  0  0 
 49 50  1  0  0  0  0 
 16 51  1  0  0  0  0 
 51 52  1  0  0  0  0 
 52 53  1  0  0  0  0 
 52 54  1  0  0  0  0 
 52 55  1  0  0  0  0 
 51 56  1  0  0  0  0 
 11 56  1  0  0  0  0 
 56 57  1  0  0  0  0 
 56 58  1  0  0  0  0 
M  END
> <Rank>
47

> <Priority_score>
0.0176

> <Reaction_type>
alkyl dehydrogenation

> <Parent_ID>
21

> <Parent_InChI>
InChI=1S/C18H33ClN2O5S/c1-5-6-10-7-11(21(3)8-10)17(25)20-12(9(2)19)16-14(23)13(22)15(24)18(26-16)27-4/h9-16,18,22-24H,5-8H2,1-4H3,(H,20,25)

> <Parent_SMILES>
CCC[C@@H]1C[C@@H](C(=O)NC(C(C)Cl)[C@H]2O[C@H](SC)[C@H](O)[C@@H](O)[C@H]2O)N(C)C1

$$$$
Molecule 21_metabolite 49
  CDK     0516241031

 61 62  0  0  0  0  0  0  0  0999 V2000
    0.0755    6.5164    0.0000 C   0  0  0  0  0  0  0  0  0  0  0  0
   -0.5788    5.1666    0.0000 H   0  0  0  0  0  0  0  0  0  0  0  0
    0.2287    8.0086    0.0000 H   0  0  0  0  0  0  0  0  0  0  0  0
   -1.3674    6.9264    0.0000 H   0  0  0  0  0  0  0  0  0  0  0  0
    1.5716    6.6247    0.0000 C   0  0  0  0  0  0  0  0  0  0  0  0
    1.2052    8.0793    0.0000 H   0  0  0  0  0  0  0  0  0  0  0  0
    2.9404    7.2382    0.0000 H   0  0  0  0  0  0  0  0  0  0  0  0
    2.4134    5.3832    0.0000 C   0  0  0  0  0  0  0  0  0  0  0  0
    2.7798    3.9287    0.0000 H   0  0  0  0  0  0  0  0  0  0  0  0
    1.0446    4.7698    0.0000 H   0  0  0  0  0  0  0  0  0  0  0  0
    4.8670    5.5608    0.0000 C   0  0  1  0  0  0  0  0  0  0  0  0
    3.9003    6.7078    0.0000 H   0  0  0  0  0  0  0  0  0  0  0  0
    5.9019    6.6364    0.0000 C   0  0  0  0  0  0  0  0  0  0  0  0
    4.7161    7.5551    0.0000 H   0  0  0  0  0  0  0  0  0  0  0  0
    6.6887    7.9135    0.0000 H   0  0  0  0  0  0  0  0  0  0  0  0
    7.2575    5.9896    0.0000 N   0  0  0  0  0  0  0  0  0  0  0  0
    8.5800    6.6974    0.0000 C   0  0  0  0  0  0  0  0  0  0  0  0
    9.8543    5.9060    0.0000 H   0  0  0  0  0  0  0  0  0  0  0  0
    7.6533    7.8769    0.0000 H   0  0  0  0  0  0  0  0  0  0  0  0
    9.5807    7.8149    0.0000 H   0  0  0  0  0  0  0  0  0  0  0  0
    7.0438    4.5028    0.0000 C   0  0  1  0  0  0  0  0  0  0  0  0
    8.5429    4.4491    0.0000 H   0  0  0  0  0  0  0  0  0  0  0  0
    5.5748    4.2383    0.0000 C   0  0  0  0  0  0  0  0  0  0  0  0
    5.9930    2.7978    0.0000 H   0  0  0  0  0  0  0  0  0  0  0  0
    2.8522    3.1287    0.0000 O   0  0  0  0  0  0  0  0  0  0  0  0
    2.6480    1.6427    0.0000 H   0  0  0  0  0  0  0  0  0  0  0  0
    7.1846    2.5278    0.0000 C   0  0  0  0  0  0  0  0  0  0  0  0
    8.5337    1.8721    0.0000 O   0  0  0  0  0  0  0  0  0  0  0  0
    5.9422    1.6873    0.0000 N   0  0  0  0  0  0  0  0  0  0  0  0
    4.5931    2.3430    0.0000 H   0  0  0  0  0  0  0  0  0  0  0  0
    6.0830   -0.2877    0.0000 C   0  0  0  0  0  0  0  0  0  0  0  0
    6.6950   -1.6571    0.0000 H   0  0  0  0  0  0  0  0  0  0  0  0
    4.8406   -1.1281    0.0000 C   0  0  0  0  0  0  0  0  0  0  0  0
    4.2287    0.2413    0.0000 H   0  0  0  0  0  0  0  0  0  0  0  0
    4.9473   -2.6243    0.0000 C   0  0  0  0  0  0  0  0  0  0  0  0
    6.2964   -3.2801    0.0000 H   0  0  0  0  0  0  0  0  0  0  0  0
    4.5358   -4.0668    0.0000 H   0  0  0  0  0  0  0  0  0  0  0  0
    3.4553   -2.4696    0.0000 H   0  0  0  0  0  0  0  0  0  0  0  0
    3.3857   -1.4930    0.0000 Cl  0  0  0  0  0  0  0  0  0  0  0  0
    7.5380    0.0772    0.0000 C   0  0  2  0  0  0  0  0  0  0  0  0
    6.9262    1.4468    0.0000 H   0  0  0  0  0  0  0  0  0  0  0  0
    8.7806    0.9174    0.0000 C   0  0  1  0  0  0  0  0  0  0  0  0
    7.7375    1.9953    0.0000 H   0  0  0  0  0  0  0  0  0  0  0  0
   10.1301    0.2606    0.0000 C   0  0  1  0  0  0  0  0  0  0  0  0
   10.5420    1.7030    0.0000 H   0  0  0  0  0  0  0  0  0  0  0  0
   10.2370   -1.2364    0.0000 C   0  0  2  0  0  0  0  0  0  0  0  0
   11.6919   -0.8715    0.0000 H   0  0  0  0  0  0  0  0  0  0  0  0
    8.9944   -2.0766    0.0000 C   0  0  2  0  0  0  0  0  0  0  0  0
   10.0375   -3.1545    0.0000 H   0  0  0  0  0  0  0  0  0  0  0  0
    7.6449   -1.4198    0.0000 O   0  0  0  0  0  0  0  0  0  0  0  0
    8.1138   -3.2910    0.0000 S   0  0  0  0  0  0  0  0  0  0  0  0
    8.7252   -4.6607    0.0000 C   0  0  0  0  0  0  0  0  0  0  0  0
   10.2172   -4.8161    0.0000 H   0  0  0  0  0  0  0  0  0  0  0  0
    7.2701   -5.0250    0.0000 H   0  0  0  0  0  0  0  0  0  0  0  0
    8.8313   -6.1570    0.0000 H   0  0  0  0  0  0  0  0  0  0  0  0
   10.8488   -2.6059    0.0000 O   0  0  0  0  0  0  0  0  0  0  0  0
   12.3408   -2.7609    0.0000 H   0  0  0  0  0  0  0  0  0  0  0  0
   11.6220    0.1057    0.0000 O   0  0  0  0  0  0  0  0  0  0  0  0
   12.5022    1.3203    0.0000 H   0  0  0  0  0  0  0  0  0  0  0  0
    9.9429    2.5204    0.0000 O   0  0  0  0  0  0  0  0  0  0  0  0
   11.4348    2.3650    0.0000 H   0  0  0  0  0  0  0  0  0  0  0  0
  1  2  1  0  0  0  0 
  1  3  1  0  0  0  0 
  1  4  1  0  0  0  0 
  1  5  1  0  0  0  0 
  5  6  1  0  0  0  0 
  5  7  1  0  0  0  0 
  5  8  1  0  0  0  0 
  8  9  1  0  0  0  0 
  8 10  1  0  0  0  0 
 11  8  1  1  0  0  0 
 11 12  1  6  0  0  0 
 11 13  1  0  0  0  0 
 13 14  1  0  0  0  0 
 13 15  1  0  0  0  0 
 13 16  1  0  0  0  0 
 16 17  1  0  0  0  0 
 17 18  1  0  0  0  0 
 17 19  1  0  0  0  0 
 17 20  1  0  0  0  0 
 16 21  1  0  0  0  0 
 21 22  1  1  0  0  0 
 21 23  1  0  0  0  0 
 11 23  1  0  0  0  0 
 23 24  1  0  0  0  0 
 23 25  1  0  0  0  0 
 25 26  1  0  0  0  0 
 21 27  1  6  0  0  0 
 27 28  2  0  0  0  0 
 27 29  1  0  0  0  0 
 29 30  1  0  0  0  0 
 29 31  1  0  0  0  0 
 31 32  1  0  0  0  0 
 31 33  1  0  0  0  0 
 33 34  1  0  0  0  0 
 33 35  1  0  0  0  0 
 35 36  1  0  0  0  0 
 35 37  1  0  0  0  0 
 35 38  1  0  0  0  0 
 33 39  1  0  0  0  0 
 40 31  1  6  0  0  0 
 40 41  1  1  0  0  0 
 40 42  1  0  0  0  0 
 42 43  1  1  0  0  0 
 42 44  1  0  0  0  0 
 44 45  1  1  0  0  0 
 44 46  1  0  0  0  0 
 46 47  1  6  0  0  0 
 46 48  1  0  0  0  0 
 48 49  1  6  0  0  0 
 48 50  1  0  0  0  0 
 40 50  1  0  0  0  0 
 48 51  1  1  0  0  0 
 51 52  1  0  0  0  0 
 52 53  1  0  0  0  0 
 52 54  1  0  0  0  0 
 52 55  1  0  0  0  0 
 46 56  1  1  0  0  0 
 56 57  1  0  0  0  0 
 44 58  1  6  0  0  0 
 58 59  1  0  0  0  0 
 42 60  1  6  0  0  0 
 60 61  1  0  0  0  0 
M  END
> <Rank>
49

> <Priority_score>
0.016

> <Reaction_type>
aliphatic hydroxylation

> <Parent_ID>
21

> <Parent_InChI>
InChI=1S/C18H33ClN2O5S/c1-5-6-10-7-11(21(3)8-10)17(25)20-12(9(2)19)16-14(23)13(22)15(24)18(26-16)27-4/h9-16,18,22-24H,5-8H2,1-4H3,(H,20,25)

> <Parent_SMILES>
CCC[C@@H]1C[C@@H](C(=O)NC(C(C)Cl)[C@H]2O[C@H](SC)[C@H](O)[C@@H](O)[C@H]2O)N(C)C1

$$$$
Molecule 21_metabolite 50
  CDK     0516241031

 58 59  0  0  0  0  0  0  0  0999 V2000
    5.1507    5.2528    0.0000 C   0  0  0  0  0  0  0  0  0  0  0  0
    5.9491    3.9829    0.0000 H   0  0  0  0  0  0  0  0  0  0  0  0
    4.8347    6.7191    0.0000 H   0  0  0  0  0  0  0  0  0  0  0  0
    6.5399    5.8186    0.0000 H   0  0  0  0  0  0  0  0  0  0  0  0
    3.6517    5.1962    0.0000 C   0  0  0  0  0  0  0  0  0  0  0  0
    3.8563    6.6822    0.0000 H   0  0  0  0  0  0  0  0  0  0  0  0
    2.2239    5.6557    0.0000 H   0  0  0  0  0  0  0  0  0  0  0  0
    2.9513    3.8698    0.0000 C   0  0  0  0  0  0  0  0  0  0  0  0
    2.6812    1.9083    0.0000 H   0  0  0  0  0  0  0  0  0  0  0  0
    4.3791    3.4103    0.0000 H   0  0  0  0  0  0  0  0  0  0  0  0
    0.9727    3.7951    0.0000 C   0  0  2  0  0  0  0  0  0  0  0  0
    1.0727    5.2918    0.0000 H   0  0  0  0  0  0  0  0  0  0  0  0
   -0.5054    4.0506    0.0000 C   0  0  0  0  0  0  0  0  0  0  0  0
   -0.0973    5.4940    0.0000 H   0  0  0  0  0  0  0  0  0  0  0  0
   -1.8984    4.6069    0.0000 H   0  0  0  0  0  0  0  0  0  0  0  0
   -1.2005    2.7297    0.0000 C   0  0  1  0  0  0  0  0  0  0  0  0
   -2.4458    3.5659    0.0000 H   0  0  0  0  0  0  0  0  0  0  0  0
   -2.4736    1.2132    0.0000 C   0  0  0  0  0  0  0  0  0  0  0  0
   -1.9608   -0.1965    0.0000 O   0  0  0  0  0  0  0  0  0  0  0  0
   -4.4234    1.5574    0.0000 N   0  0  0  0  0  0  0  0  0  0  0  0
   -4.9361    2.9670    0.0000 H   0  0  0  0  0  0  0  0  0  0  0  0
   -5.6965    0.0409    0.0000 C   0  0  0  0  0  0  0  0  0  0  0  0
   -6.2098   -1.3685    0.0000 H   0  0  0  0  0  0  0  0  0  0  0  0
   -4.3976   -0.7094    0.0000 C   0  0  0  0  0  0  0  0  0  0  0  0
   -4.3979   -2.2094    0.0000 C   0  0  0  0  0  0  0  0  0  0  0  0
   -5.6971   -2.9591    0.0000 H   0  0  0  0  0  0  0  0  0  0  0  0
   -3.0990   -2.9597    0.0000 H   0  0  0  0  0  0  0  0  0  0  0  0
   -3.0984    0.0403    0.0000 Cl  0  0  0  0  0  0  0  0  0  0  0  0
   -7.6463    0.3851    0.0000 C   0  0  2  0  0  0  0  0  0  0  0  0
   -7.1331    1.7946    0.0000 H   0  0  0  0  0  0  0  0  0  0  0  0
   -8.9453    1.1351    0.0000 C   0  0  1  0  0  0  0  0  0  0  0  0
   -7.9813    2.2843    0.0000 H   0  0  0  0  0  0  0  0  0  0  0  0
  -10.2449    0.3843    0.0000 C   0  0  1  0  0  0  0  0  0  0  0  0
  -10.7580    1.7938    0.0000 H   0  0  0  0  0  0  0  0  0  0  0  0
  -10.2453   -1.1165    0.0000 C   0  0  2  0  0  0  0  0  0  0  0  0
  -11.7225   -0.8557    0.0000 H   0  0  0  0  0  0  0  0  0  0  0  0
   -8.9463   -1.8665    0.0000 C   0  0  2  0  0  0  0  0  0  0  0  0
   -9.9104   -3.0157    0.0000 H   0  0  0  0  0  0  0  0  0  0  0  0
   -7.6468   -1.1157    0.0000 O   0  0  0  0  0  0  0  0  0  0  0  0
   -7.9819   -3.0154    0.0000 S   0  0  0  0  0  0  0  0  0  0  0  0
   -8.4946   -4.4250    0.0000 C   0  0  0  0  0  0  0  0  0  0  0  0
   -9.9718   -4.6858    0.0000 H   0  0  0  0  0  0  0  0  0  0  0  0
   -8.4943   -5.9250    0.0000 H   0  0  0  0  0  0  0  0  0  0  0  0
   -7.0173   -4.6852    0.0000 H   0  0  0  0  0  0  0  0  0  0  0  0
  -10.7585   -2.5260    0.0000 O   0  0  0  0  0  0  0  0  0  0  0  0
  -12.2358   -2.7863    0.0000 H   0  0  0  0  0  0  0  0  0  0  0  0
  -11.7221    0.1240    0.0000 O   0  0  0  0  0  0  0  0  0  0  0  0
  -12.6862    1.2732    0.0000 H   0  0  0  0  0  0  0  0  0  0  0  0
   -9.9098    2.2840    0.0000 O   0  0  0  0  0  0  0  0  0  0  0  0
   -9.3970    3.6937    0.0000 H   0  0  0  0  0  0  0  0  0  0  0  0
   -0.1598    1.6466    0.0000 N   0  0  0  0  0  0  0  0  0  0  0  0
   -0.4152    0.1685    0.0000 C   0  0  0  0  0  0  0  0  0  0  0  0
    0.7371   -0.7918    0.0000 H   0  0  0  0  0  0  0  0  0  0  0  0
   -1.8265    0.6767    0.0000 H   0  0  0  0  0  0  0  0  0  0  0  0
   -1.1608   -1.1331    0.0000 H   0  0  0  0  0  0  0  0  0  0  0  0
    1.1841    2.3175    0.0000 C   0  0  0  0  0  0  0  0  0  0  0  0
    1.7070    0.9116    0.0000 H   0  0  0  0  0  0  0  0  0  0  0  0
    2.6378    2.6873    0.0000 H   0  0  0  0  0  0  0  0  0  0  0  0
  1  2  1  0  0  0  0 
  1  3  1  0  0  0  0 
  1  4  1  0  0  0  0 
  1  5  1  0  0  0  0 
  5  6  1  0  0  0  0 
  5  7  1  0  0  0  0 
  5  8  1  0  0  0  0 
  8  9  1  0  0  0  0 
  8 10  1  0  0  0  0 
 11  8  1  1  0  0  0 
 11 12  1  6  0  0  0 
 11 13  1  0  0  0  0 
 13 14  1  0  0  0  0 
 13 15  1  0  0  0  0 
 13 16  1  0  0  0  0 
 16 17  1  1  0  0  0 
 16 18  1  6  0  0  0 
 18 19  2  0  0  0  0 
 18 20  1  0  0  0  0 
 20 21  1  0  0  0  0 
 20 22  1  0  0  0  0 
 22 23  1  0  0  0  0 
 22 24  1  0  0  0  0 
 24 25  2  0  0  0  0 
 25 26  1  0  0  0  0 
 25 27  1  0  0  0  0 
 24 28  1  0  0  0  0 
 29 22  1  1  0  0  0 
 29 30  1  6  0  0  0 
 29 31  1  0  0  0  0 
 31 32  1  6  0  0  0 
 31 33  1  0  0  0  0 
 33 34  1  6  0  0  0 
 33 35  1  0  0  0  0 
 35 36  1  1  0  0  0 
 35 37  1  0  0  0  0 
 37 38  1  1  0  0  0 
 37 39  1  0  0  0  0 
 29 39  1  0  0  0  0 
 37 40  1  6  0  0  0 
 40 41  1  0  0  0  0 
 41 42  1  0  0  0  0 
 41 43  1  0  0  0  0 
 41 44  1  0  0  0  0 
 35 45  1  6  0  0  0 
 45 46  1  0  0  0  0 
 33 47  1  1  0  0  0 
 47 48  1  0  0  0  0 
 31 49  1  1  0  0  0 
 49 50  1  0  0  0  0 
 16 51  1  0  0  0  0 
 51 52  1  0  0  0  0 
 52 53  1  0  0  0  0 
 52 54  1  0  0  0  0 
 52 55  1  0  0  0  0 
 51 56  1  0  0  0  0 
 11 56  1  0  0  0  0 
 56 57  1  0  0  0  0 
 56 58  1  0  0  0  0 
M  END
> <Rank>
50

> <Priority_score>
0.012

> <Reaction_type>
alkyl dehydrogenation

> <Parent_ID>
21

> <Parent_InChI>
InChI=1S/C18H33ClN2O5S/c1-5-6-10-7-11(21(3)8-10)17(25)20-12(9(2)19)16-14(23)13(22)15(24)18(26-16)27-4/h9-16,18,22-24H,5-8H2,1-4H3,(H,20,25)

> <Parent_SMILES>
CCC[C@@H]1C[C@@H](C(=O)NC(C(C)Cl)[C@H]2O[C@H](SC)[C@H](O)[C@@H](O)[C@H]2O)N(C)C1

$$$$
Molecule 21_metabolite 51
  CDK     0516241031

 58 59  0  0  0  0  0  0  0  0999 V2000
   -5.7706   10.5191    0.0000 C   0  0  0  0  0  0  0  0  0  0  0  0
   -6.9556    9.5995    0.0000 H   0  0  0  0  0  0  0  0  0  0  0  0
   -4.9716   11.7886    0.0000 H   0  0  0  0  0  0  0  0  0  0  0  0
   -6.8821   11.5264    0.0000 H   0  0  0  0  0  0  0  0  0  0  0  0
   -4.3817    9.9527    0.0000 C   0  0  0  0  0  0  0  0  0  0  0  0
   -4.0651   11.4189    0.0000 H   0  0  0  0  0  0  0  0  0  0  0  0
   -2.8828    9.8955    0.0000 H   0  0  0  0  0  0  0  0  0  0  0  0
   -4.1777    8.4667    0.0000 C   0  0  0  0  0  0  0  0  0  0  0  0
   -4.5957    6.5313    0.0000 H   0  0  0  0  0  0  0  0  0  0  0  0
   -5.6766    8.5239    0.0000 H   0  0  0  0  0  0  0  0  0  0  0  0
   -2.3443    7.7190    0.0000 C   0  0  2  0  0  0  0  0  0  0  0  0
   -1.9258    9.1594    0.0000 H   0  0  0  0  0  0  0  0  0  0  0  0
   -0.8681    7.4529    0.0000 C   0  0  0  0  0  0  0  0  0  0  0  0
   -0.7573    8.9488    0.0000 H   0  0  0  0  0  0  0  0  0  0  0  0
    0.6312    7.4986    0.0000 H   0  0  0  0  0  0  0  0  0  0  0  0
   -0.6674    5.9738    0.0000 C   0  0  1  0  0  0  0  0  0  0  0  0
    0.7890    6.3331    0.0000 H   0  0  0  0  0  0  0  0  0  0  0  0
    0.0095    4.1131    0.0000 C   0  0  0  0  0  0  0  0  0  0  0  0
   -0.9550    2.9642    0.0000 O   0  0  0  0  0  0  0  0  0  0  0  0
    1.4866    3.8523    0.0000 N   0  0  0  0  0  0  0  0  0  0  0  0
    2.4510    5.0011    0.0000 H   0  0  0  0  0  0  0  0  0  0  0  0
    1.9993    2.4426    0.0000 C   0  0  0  0  0  0  0  0  0  0  0  0
    1.0349    1.2938    0.0000 C   0  0  0  0  0  0  0  0  0  0  0  0
    1.5476   -0.1159    0.0000 C   0  0  0  0  0  0  0  0  0  0  0  0
    3.0248   -0.3767    0.0000 H   0  0  0  0  0  0  0  0  0  0  0  0
    0.0704   -0.3760    0.0000 H   0  0  0  0  0  0  0  0  0  0  0  0
    1.5473   -1.6159    0.0000 H   0  0  0  0  0  0  0  0  0  0  0  0
   -0.4422    1.5545    0.0000 Cl  0  0  0  0  0  0  0  0  0  0  0  0
    3.4765    2.1818    0.0000 C   0  0  2  0  0  0  0  0  0  0  0  0
    2.9633    0.7724    0.0000 H   0  0  0  0  0  0  0  0  0  0  0  0
    4.7755    1.4318    0.0000 C   0  0  1  0  0  0  0  0  0  0  0  0
    3.8115    0.2827    0.0000 H   0  0  0  0  0  0  0  0  0  0  0  0
    6.0750    2.1827    0.0000 C   0  0  1  0  0  0  0  0  0  0  0  0
    6.5882    0.7732    0.0000 H   0  0  0  0  0  0  0  0  0  0  0  0
    6.0755    3.6835    0.0000 C   0  0  2  0  0  0  0  0  0  0  0  0
    7.5527    3.4227    0.0000 H   0  0  0  0  0  0  0  0  0  0  0  0
    4.7765    4.4335    0.0000 C   0  0  2  0  0  0  0  0  0  0  0  0
    5.7406    5.5827    0.0000 H   0  0  0  0  0  0  0  0  0  0  0  0
    3.4770    3.6827    0.0000 O   0  0  0  0  0  0  0  0  0  0  0  0
    3.8121    5.5824    0.0000 S   0  0  0  0  0  0  0  0  0  0  0  0
    4.3248    6.9920    0.0000 C   0  0  0  0  0  0  0  0  0  0  0  0
    5.8020    7.2528    0.0000 H   0  0  0  0  0  0  0  0  0  0  0  0
    4.3245    8.4920    0.0000 H   0  0  0  0  0  0  0  0  0  0  0  0
    2.8475    7.2522    0.0000 H   0  0  0  0  0  0  0  0  0  0  0  0
    6.5887    5.0930    0.0000 O   0  0  0  0  0  0  0  0  0  0  0  0
    8.0660    5.3533    0.0000 H   0  0  0  0  0  0  0  0  0  0  0  0
    7.5523    2.4430    0.0000 O   0  0  0  0  0  0  0  0  0  0  0  0
    8.5163    1.2938    0.0000 H   0  0  0  0  0  0  0  0  0  0  0  0
    5.7400    0.2830    0.0000 O   0  0  0  0  0  0  0  0  0  0  0  0
    5.2272   -1.1267    0.0000 H   0  0  0  0  0  0  0  0  0  0  0  0
   -2.0161    5.3126    0.0000 N   0  0  0  0  0  0  0  0  0  0  0  0
   -2.2822    3.8364    0.0000 C   0  0  0  0  0  0  0  0  0  0  0  0
   -3.6937    3.3288    0.0000 H   0  0  0  0  0  0  0  0  0  0  0  0
   -0.7822    3.8306    0.0000 H   0  0  0  0  0  0  0  0  0  0  0  0
   -2.0274    2.3582    0.0000 H   0  0  0  0  0  0  0  0  0  0  0  0
   -3.0490    6.4031    0.0000 C   0  0  0  0  0  0  0  0  0  0  0  0
   -4.0217    5.2613    0.0000 H   0  0  0  0  0  0  0  0  0  0  0  0
   -4.2881    7.2484    0.0000 H   0  0  0  0  0  0  0  0  0  0  0  0
  1  2  1  0  0  0  0 
  1  3  1  0  0  0  0 
  1  4  1  0  0  0  0 
  1  5  1  0  0  0  0 
  5  6  1  0  0  0  0 
  5  7  1  0  0  0  0 
  5  8  1  0  0  0  0 
  8  9  1  0  0  0  0 
  8 10  1  0  0  0  0 
 11  8  1  6  0  0  0 
 11 12  1  1  0  0  0 
 11 13  1  0  0  0  0 
 13 14  1  0  0  0  0 
 13 15  1  0  0  0  0 
 13 16  1  0  0  0  0 
 16 17  1  6  0  0  0 
 16 18  1  1  0  0  0 
 18 19  2  0  0  0  0 
 18 20  1  0  0  0  0 
 20 21  1  0  0  0  0 
 20 22  1  0  0  0  0 
 22 23  2  0  0  0  0 
 23 24  1  0  0  0  0 
 24 25  1  0  0  0  0 
 24 26  1  0  0  0  0 
 24 27  1  0  0  0  0 
 23 28  1  4  0  0  0 
 29 22  1  1  0  0  0 
 29 30  1  6  0  0  0 
 29 31  1  0  0  0  0 
 31 32  1  6  0  0  0 
 31 33  1  0  0  0  0 
 33 34  1  6  0  0  0 
 33 35  1  0  0  0  0 
 35 36  1  1  0  0  0 
 35 37  1  0  0  0  0 
 37 38  1  1  0  0  0 
 37 39  1  0  0  0  0 
 29 39  1  0  0  0  0 
 37 40  1  6  0  0  0 
 40 41  1  0  0  0  0 
 41 42  1  0  0  0  0 
 41 43  1  0  0  0  0 
 41 44  1  0  0  0  0 
 35 45  1  6  0  0  0 
 45 46  1  0  0  0  0 
 33 47  1  1  0  0  0 
 47 48  1  0  0  0  0 
 31 49  1  1  0  0  0 
 49 50  1  0  0  0  0 
 16 51  1  0  0  0  0 
 51 52  1  0  0  0  0 
 52 53  1  0  0  0  0 
 52 54  1  0  0  0  0 
 52 55  1  0  0  0  0 
 51 56  1  0  0  0  0 
 11 56  1  0  0  0  0 
 56 57  1  0  0  0  0 
 56 58  1  0  0  0  0 
M  END
> <Rank>
51

> <Priority_score>
0.008

> <Reaction_type>
alkyl dehydrogenation

> <Parent_ID>
21

> <Parent_InChI>
InChI=1S/C18H33ClN2O5S/c1-5-6-10-7-11(21(3)8-10)17(25)20-12(9(2)19)16-14(23)13(22)15(24)18(26-16)27-4/h9-16,18,22-24H,5-8H2,1-4H3,(H,20,25)

> <Parent_SMILES>
CCC[C@@H]1C[C@@H](C(=O)NC(C(C)Cl)[C@H]2O[C@H](SC)[C@H](O)[C@@H](O)[C@H]2O)N(C)C1

$$$$
Molecule 21_metabolite 52
  CDK     0516241031

 59 60  0  0  0  0  0  0  0  0999 V2000
    3.2866   -0.3795    0.0000 C   0  0  0  0  0  0  0  0  0  0  0  0
    3.9500    0.9658    0.0000 H   0  0  0  0  0  0  0  0  0  0  0  0
    3.1232   -1.8706    0.0000 H   0  0  0  0  0  0  0  0  0  0  0  0
    4.7266   -0.7993    0.0000 H   0  0  0  0  0  0  0  0  0  0  0  0
    1.7898   -0.4776    0.0000 C   0  0  0  0  0  0  0  0  0  0  0  0
    2.1463   -1.9346    0.0000 H   0  0  0  0  0  0  0  0  0  0  0  0
    0.4168   -1.0817    0.0000 H   0  0  0  0  0  0  0  0  0  0  0  0
    0.9564    0.7697    0.0000 C   0  0  0  0  0  0  0  0  0  0  0  0
    0.4859    2.6929    0.0000 H   0  0  0  0  0  0  0  0  0  0  0  0
    2.3294    1.3737    0.0000 H   0  0  0  0  0  0  0  0  0  0  0  0
   -1.0193    0.6402    0.0000 C   0  0  2  0  0  0  0  0  0  0  0  0
   -0.7658   -0.8382    0.0000 H   0  0  0  0  0  0  0  0  0  0  0  0
   -2.4633    0.2339    0.0000 C   0  0  0  0  0  0  0  0  0  0  0  0
   -1.9087   -1.1598    0.0000 H   0  0  0  0  0  0  0  0  0  0  0  0
   -3.7916   -0.4629    0.0000 H   0  0  0  0  0  0  0  0  0  0  0  0
   -3.2907    1.4763    0.0000 C   0  0  0  0  0  0  0  0  0  0  0  0
   -2.3669    2.6607    0.0000 N   0  0  0  0  0  0  0  0  0  0  0  0
   -2.7732    4.1047    0.0000 C   0  0  0  0  0  0  0  0  0  0  0  0
   -4.2268    4.4748    0.0000 H   0  0  0  0  0  0  0  0  0  0  0  0
   -2.6611    5.6005    0.0000 H   0  0  0  0  0  0  0  0  0  0  0  0
   -1.2807    4.2540    0.0000 H   0  0  0  0  0  0  0  0  0  0  0  0
   -0.9611    2.1317    0.0000 C   0  0  0  0  0  0  0  0  0  0  0  0
   -0.5857    3.5840    0.0000 H   0  0  0  0  0  0  0  0  0  0  0  0
    0.5229    1.9135    0.0000 H   0  0  0  0  0  0  0  0  0  0  0  0
   -4.7896    1.5324    0.0000 C   0  0  0  0  0  0  0  0  0  0  0  0
   -5.4905    2.8585    0.0000 O   0  0  0  0  0  0  0  0  0  0  0  0
   -5.5877    0.2623    0.0000 N   0  0  0  0  0  0  0  0  0  0  0  0
   -4.8868   -1.0639    0.0000 H   0  0  0  0  0  0  0  0  0  0  0  0
   -7.0866    0.3183    0.0000 C   0  0  0  0  0  0  0  0  0  0  0  0
   -6.7711    1.7848    0.0000 H   0  0  0  0  0  0  0  0  0  0  0  0
   -7.8847   -0.9517    0.0000 C   0  0  0  0  0  0  0  0  0  0  0  0
   -9.0690   -1.8723    0.0000 H   0  0  0  0  0  0  0  0  0  0  0  0
   -7.1837   -2.2779    0.0000 C   0  0  0  0  0  0  0  0  0  0  0  0
   -7.9818   -3.5480    0.0000 H   0  0  0  0  0  0  0  0  0  0  0  0
   -5.9994   -1.3574    0.0000 H   0  0  0  0  0  0  0  0  0  0  0  0
   -6.0715   -3.2844    0.0000 H   0  0  0  0  0  0  0  0  0  0  0  0
   -8.5856    0.3744    0.0000 Cl  0  0  0  0  0  0  0  0  0  0  0  0
   -8.9206    1.0646    0.0000 C   0  0  2  0  0  0  0  0  0  0  0  0
   -9.2363   -0.4018    0.0000 H   0  0  0  0  0  0  0  0  0  0  0  0
  -10.4195    1.1210    0.0000 C   0  0  1  0  0  0  0  0  0  0  0  0
  -10.2149   -0.3649    0.0000 H   0  0  0  0  0  0  0  0  0  0  0  0
  -11.1201    2.4483    0.0000 C   0  0  1  0  0  0  0  0  0  0  0  0
  -12.3047    1.5281    0.0000 H   0  0  0  0  0  0  0  0  0  0  0  0
  -10.3218    3.7192    0.0000 C   0  0  2  0  0  0  0  0  0  0  0  0
  -11.7111    4.2846    0.0000 H   0  0  0  0  0  0  0  0  0  0  0  0
   -8.8228    3.6628    0.0000 C   0  0  2  0  0  0  0  0  0  0  0  0
   -9.0274    5.1488    0.0000 H   0  0  0  0  0  0  0  0  0  0  0  0
   -8.1222    2.3355    0.0000 O   0  0  0  0  0  0  0  0  0  0  0  0
   -7.3949    4.1222    0.0000 S   0  0  0  0  0  0  0  0  0  0  0  0
   -7.0787    5.5885    0.0000 C   0  0  0  0  0  0  0  0  0  0  0  0
   -8.1905    6.5954    0.0000 H   0  0  0  0  0  0  0  0  0  0  0  0
   -6.2802    6.8582    0.0000 H   0  0  0  0  0  0  0  0  0  0  0  0
   -5.6896    5.0225    0.0000 H   0  0  0  0  0  0  0  0  0  0  0  0
  -10.0061    5.1856    0.0000 O   0  0  0  0  0  0  0  0  0  0  0  0
  -11.1182    6.1922    0.0000 H   0  0  0  0  0  0  0  0  0  0  0  0
  -12.2322    3.4549    0.0000 O   0  0  0  0  0  0  0  0  0  0  0  0
  -13.6600    2.9951    0.0000 H   0  0  0  0  0  0  0  0  0  0  0  0
  -11.8475    0.6617    0.0000 O   0  0  0  0  0  0  0  0  0  0  0  0
  -12.1636   -0.8046    0.0000 H   0  0  0  0  0  0  0  0  0  0  0  0
  1  2  1  0  0  0  0 
  1  3  1  0  0  0  0 
  1  4  1  0  0  0  0 
  1  5  1  0  0  0  0 
  5  6  1  0  0  0  0 
  5  7  1  0  0  0  0 
  5  8  1  0  0  0  0 
  8  9  1  0  0  0  0 
  8 10  1  0  0  0  0 
 11  8  1  6  0  0  0 
 11 12  1  1  0  0  0 
 11 13  1  0  0  0  0 
 13 14  1  0  0  0  0 
 13 15  1  0  0  0  0 
 13 16  1  0  0  0  0 
 16 17  2  0  0  0  0 
 17 18  1  0  0  0  0 
 18 19  1  0  0  0  0 
 18 20  1  0  0  0  0 
 18 21  1  0  0  0  0 
 17 22  1  0  0  0  0 
 11 22  1  0  0  0  0 
 22 23  1  0  0  0  0 
 22 24  1  0  0  0  0 
 16 25  1  0  0  0  0 
 25 26  2  0  0  0  0 
 25 27  1  0  0  0  0 
 27 28  1  0  0  0  0 
 27 29  1  0  0  0  0 
 29 30  1  0  0  0  0 
 29 31  1  0  0  0  0 
 31 32  1  0  0  0  0 
 31 33  1  0  0  0  0 
 33 34  1  0  0  0  0 
 33 35  1  0  0  0  0 
 33 36  1  0  0  0  0 
 31 37  1  0  0  0  0 
 38 29  1  6  0  0  0 
 38 39  1  1  0  0  0 
 38 40  1  0  0  0  0 
 40 41  1  1  0  0  0 
 40 42  1  0  0  0  0 
 42 43  1  1  0  0  0 
 42 44  1  0  0  0  0 
 44 45  1  6  0  0  0 
 44 46  1  0  0  0  0 
 46 47  1  6  0  0  0 
 46 48  1  0  0  0  0 
 38 48  1  0  0  0  0 
 46 49  1  1  0  0  0 
 49 50  1  0  0  0  0 
 50 51  1  0  0  0  0 
 50 52  1  0  0  0  0 
 50 53  1  0  0  0  0 
 44 54  1  1  0  0  0 
 54 55  1  0  0  0  0 
 42 56  1  6  0  0  0 
 56 57  1  0  0  0  0 
 40 58  1  6  0  0  0 
 58 59  1  0  0  0  0 
M  CHG  1  17   1
M  END
> <Rank>
51

> <Priority_score>
0.008

> <Reaction_type>
dehydration of N-C bond

> <Parent_ID>
21

> <Parent_InChI>
InChI=1S/C18H33ClN2O5S/c1-5-6-10-7-11(21(3)8-10)17(25)20-12(9(2)19)16-14(23)13(22)15(24)18(26-16)27-4/h9-16,18,22-24H,5-8H2,1-4H3,(H,20,25)

> <Parent_SMILES>
CCC[C@@H]1C[C@@H](C(=O)NC(C(C)Cl)[C@H]2O[C@H](SC)[C@H](O)[C@@H](O)[C@H]2O)N(C)C1

$$$$
Molecule 21_metabolite 53
  CDK     0516241031

 58 59  0  0  0  0  0  0  0  0999 V2000
  -12.2049    0.7259    0.0000 C   0  0  0  0  0  0  0  0  0  0  0  0
  -13.0479   -0.5148    0.0000 H   0  0  0  0  0  0  0  0  0  0  0  0
  -13.5732    1.3406    0.0000 H   0  0  0  0  0  0  0  0  0  0  0  0
  -11.8371    2.1801    0.0000 H   0  0  0  0  0  0  0  0  0  0  0  0
  -10.7089    0.6162    0.0000 C   0  0  0  0  0  0  0  0  0  0  0  0
   -9.3407    0.0015    0.0000 H   0  0  0  0  0  0  0  0  0  0  0  0
  -11.0768   -0.8380    0.0000 H   0  0  0  0  0  0  0  0  0  0  0  0
   -9.8660    1.8569    0.0000 C   0  0  0  0  0  0  0  0  0  0  0  0
  -10.5189    3.2073    0.0000 H   0  0  0  0  0  0  0  0  0  0  0  0
   -7.8913    1.7121    0.0000 C   0  0  0  0  0  0  0  0  0  0  0  0
   -6.9227    2.8575    0.0000 C   0  0  0  0  0  0  0  0  0  0  0  0
   -8.1628    3.7014    0.0000 H   0  0  0  0  0  0  0  0  0  0  0  0
   -6.2126    4.1788    0.0000 H   0  0  0  0  0  0  0  0  0  0  0  0
   -5.5414    2.2918    0.0000 C   0  0  1  0  0  0  0  0  0  0  0  0
   -5.1244    3.7327    0.0000 H   0  0  0  0  0  0  0  0  0  0  0  0
   -3.5915    1.9476    0.0000 C   0  0  0  0  0  0  0  0  0  0  0  0
   -3.0788    0.5379    0.0000 O   0  0  0  0  0  0  0  0  0  0  0  0
   -2.6271    3.0964    0.0000 N   0  0  0  0  0  0  0  0  0  0  0  0
   -3.1398    4.5061    0.0000 H   0  0  0  0  0  0  0  0  0  0  0  0
   -0.6773    2.7522    0.0000 C   0  0  0  0  0  0  0  0  0  0  0  0
    0.8000    3.0123    0.0000 H   0  0  0  0  0  0  0  0  0  0  0  0
   -0.6769    4.2522    0.0000 C   0  0  0  0  0  0  0  0  0  0  0  0
   -1.1897    5.6618    0.0000 H   0  0  0  0  0  0  0  0  0  0  0  0
    0.6223    5.0019    0.0000 C   0  0  0  0  0  0  0  0  0  0  0  0
    1.9211    4.2516    0.0000 H   0  0  0  0  0  0  0  0  0  0  0  0
    1.5867    6.1508    0.0000 H   0  0  0  0  0  0  0  0  0  0  0  0
   -0.3417    6.1512    0.0000 H   0  0  0  0  0  0  0  0  0  0  0  0
   -2.1542    3.9920    0.0000 Cl  0  0  0  0  0  0  0  0  0  0  0  0
   -0.1645    1.3425    0.0000 C   0  0  2  0  0  0  0  0  0  0  0  0
   -1.6418    1.0822    0.0000 H   0  0  0  0  0  0  0  0  0  0  0  0
   -0.1645   -0.1575    0.0000 C   0  0  1  0  0  0  0  0  0  0  0  0
   -1.6418    0.1028    0.0000 H   0  0  0  0  0  0  0  0  0  0  0  0
    1.1355   -0.9075    0.0000 C   0  0  1  0  0  0  0  0  0  0  0  0
    0.1714   -2.0566    0.0000 H   0  0  0  0  0  0  0  0  0  0  0  0
    2.4355   -0.1575    0.0000 C   0  0  2  0  0  0  0  0  0  0  0  0
    2.9482   -1.5671    0.0000 H   0  0  0  0  0  0  0  0  0  0  0  0
    2.4355    1.3425    0.0000 C   0  0  2  0  0  0  0  0  0  0  0  0
    3.9127    1.0822    0.0000 H   0  0  0  0  0  0  0  0  0  0  0  0
    1.1355    2.0925    0.0000 O   0  0  0  0  0  0  0  0  0  0  0  0
    2.9482    2.7522    0.0000 S   0  0  0  0  0  0  0  0  0  0  0  0
    4.4254    3.0130    0.0000 C   0  0  0  0  0  0  0  0  0  0  0  0
    5.3898    1.8641    0.0000 H   0  0  0  0  0  0  0  0  0  0  0  0
    5.7242    3.7632    0.0000 H   0  0  0  0  0  0  0  0  0  0  0  0
    3.9120    4.4224    0.0000 H   0  0  0  0  0  0  0  0  0  0  0  0
    3.9127    0.1028    0.0000 O   0  0  0  0  0  0  0  0  0  0  0  0
    4.8768   -1.0463    0.0000 H   0  0  0  0  0  0  0  0  0  0  0  0
    2.0995   -2.0566    0.0000 O   0  0  0  0  0  0  0  0  0  0  0  0
    1.5864   -3.4661    0.0000 H   0  0  0  0  0  0  0  0  0  0  0  0
   -0.8413   -2.0182    0.0000 O   0  0  0  0  0  0  0  0  0  0  0  0
    0.1231   -3.1671    0.0000 H   0  0  0  0  0  0  0  0  0  0  0  0
   -5.6431    0.7932    0.0000 N   0  0  0  0  0  0  0  0  0  0  0  0
   -4.4977   -0.1754    0.0000 C   0  0  0  0  0  0  0  0  0  0  0  0
   -4.7639   -1.6516    0.0000 H   0  0  0  0  0  0  0  0  0  0  0  0
   -3.7428    1.1208    0.0000 H   0  0  0  0  0  0  0  0  0  0  0  0
   -3.0902   -0.6938    0.0000 H   0  0  0  0  0  0  0  0  0  0  0  0
   -7.1040    0.4439    0.0000 C   0  0  0  0  0  0  0  0  0  0  0  0
   -6.6015   -0.9694    0.0000 H   0  0  0  0  0  0  0  0  0  0  0  0
   -8.4556   -0.2066    0.0000 H   0  0  0  0  0  0  0  0  0  0  0  0
  1  2  1  0  0  0  0 
  1  3  1  0  0  0  0 
  1  4  1  0  0  0  0 
  1  5  1  0  0  0  0 
  5  6  1  0  0  0  0 
  5  7  1  0  0  0  0 
  5  8  1  0  0  0  0 
  8  9  1  4  0  0  0 
  8 10  2  0  0  0  0 
 10 11  1  0  0  0  0 
 11 12  1  0  0  0  0 
 11 13  1  0  0  0  0 
 11 14  1  0  0  0  0 
 14 15  1  6  0  0  0 
 14 16  1  1  0  0  0 
 16 17  2  0  0  0  0 
 16 18  1  0  0  0  0 
 18 19  1  0  0  0  0 
 18 20  1  0  0  0  0 
 20 21  1  0  0  0  0 
 20 22  1  0  0  0  0 
 22 23  1  0  0  0  0 
 22 24  1  0  0  0  0 
 24 25  1  0  0  0  0 
 24 26  1  0  0  0  0 
 24 27  1  0  0  0  0 
 22 28  1  0  0  0  0 
 29 20  1  1  0  0  0 
 29 30  1  6  0  0  0 
 29 31  1  0  0  0  0 
 31 32  1  6  0  0  0 
 31 33  1  0  0  0  0 
 33 34  1  6  0  0  0 
 33 35  1  0  0  0  0 
 35 36  1  1  0  0  0 
 35 37  1  0  0  0  0 
 37 38  1  1  0  0  0 
 37 39  1  0  0  0  0 
 29 39  1  0  0  0  0 
 37 40  1  6  0  0  0 
 40 41  1  0  0  0  0 
 41 42  1  0  0  0  0 
 41 43  1  0  0  0  0 
 41 44  1  0  0  0  0 
 35 45  1  6  0  0  0 
 45 46  1  0  0  0  0 
 33 47  1  1  0  0  0 
 47 48  1  0  0  0  0 
 31 49  1  1  0  0  0 
 49 50  1  0  0  0  0 
 14 51  1  0  0  0  0 
 51 52  1  0  0  0  0 
 52 53  1  0  0  0  0 
 52 54  1  0  0  0  0 
 52 55  1  0  0  0  0 
 51 56  1  0  0  0  0 
 10 56  1  0  0  0  0 
 56 57  1  0  0  0  0 
 56 58  1  0  0  0  0 
M  END
> <Rank>
53

> <Priority_score>
0.0064

> <Reaction_type>
alkyl dehydrogenation

> <Parent_ID>
21

> <Parent_InChI>
InChI=1S/C18H33ClN2O5S/c1-5-6-10-7-11(21(3)8-10)17(25)20-12(9(2)19)16-14(23)13(22)15(24)18(26-16)27-4/h9-16,18,22-24H,5-8H2,1-4H3,(H,20,25)

> <Parent_SMILES>
CCC[C@@H]1C[C@@H](C(=O)NC(C(C)Cl)[C@H]2O[C@H](SC)[C@H](O)[C@@H](O)[C@H]2O)N(C)C1

$$$$
Molecule 21_metabolite 54
  CDK     0516241031

 58 59  0  0  0  0  0  0  0  0999 V2000
    3.8773   -0.5618    0.0000 C   0  0  0  0  0  0  0  0  0  0  0  0
    4.7203    0.6790    0.0000 H   0  0  0  0  0  0  0  0  0  0  0  0
    5.2455   -1.1765    0.0000 H   0  0  0  0  0  0  0  0  0  0  0  0
    3.5095   -2.0160    0.0000 H   0  0  0  0  0  0  0  0  0  0  0  0
    2.3813   -0.4521    0.0000 C   0  0  0  0  0  0  0  0  0  0  0  0
    0.9380   -0.8606    0.0000 H   0  0  0  0  0  0  0  0  0  0  0  0
    2.5330   -1.9444    0.0000 H   0  0  0  0  0  0  0  0  0  0  0  0
    1.7283    0.8984    0.0000 C   0  0  0  0  0  0  0  0  0  0  0  0
    3.1716    1.3069    0.0000 H   0  0  0  0  0  0  0  0  0  0  0  0
    1.5766    2.3907    0.0000 H   0  0  0  0  0  0  0  0  0  0  0  0
    0.2323    1.0081    0.0000 C   0  0  0  0  0  0  0  0  0  0  0  0
   -0.7362   -0.1373    0.0000 C   0  0  0  0  0  0  0  0  0  0  0  0
   -0.3796   -1.5943    0.0000 H   0  0  0  0  0  0  0  0  0  0  0  0
   -2.1176    0.4284    0.0000 C   0  0  1  0  0  0  0  0  0  0  0  0
   -2.5346   -1.0125    0.0000 H   0  0  0  0  0  0  0  0  0  0  0  0
   -4.0674    0.7726    0.0000 C   0  0  0  0  0  0  0  0  0  0  0  0
   -4.5801    2.1822    0.0000 O   0  0  0  0  0  0  0  0  0  0  0  0
   -5.0318   -0.3763    0.0000 N   0  0  0  0  0  0  0  0  0  0  0  0
   -4.5191   -1.7859    0.0000 H   0  0  0  0  0  0  0  0  0  0  0  0
   -6.9817   -0.0320    0.0000 C   0  0  0  0  0  0  0  0  0  0  0  0
   -8.4589   -0.2922    0.0000 H   0  0  0  0  0  0  0  0  0  0  0  0
   -6.9820   -1.5320    0.0000 C   0  0  0  0  0  0  0  0  0  0  0  0
   -6.4693   -2.9417    0.0000 H   0  0  0  0  0  0  0  0  0  0  0  0
   -8.2812   -2.2817    0.0000 C   0  0  0  0  0  0  0  0  0  0  0  0
   -9.5801   -1.5315    0.0000 H   0  0  0  0  0  0  0  0  0  0  0  0
   -9.2456   -3.4306    0.0000 H   0  0  0  0  0  0  0  0  0  0  0  0
   -7.3173   -3.4310    0.0000 H   0  0  0  0  0  0  0  0  0  0  0  0
   -5.5047   -1.2719    0.0000 Cl  0  0  0  0  0  0  0  0  0  0  0  0
   -7.4944    1.3776    0.0000 C   0  0  2  0  0  0  0  0  0  0  0  0
   -6.0172    1.6379    0.0000 H   0  0  0  0  0  0  0  0  0  0  0  0
   -7.4944    2.8776    0.0000 C   0  0  1  0  0  0  0  0  0  0  0  0
   -6.0172    2.6173    0.0000 H   0  0  0  0  0  0  0  0  0  0  0  0
   -8.7944    3.6276    0.0000 C   0  0  1  0  0  0  0  0  0  0  0  0
   -7.8303    4.7768    0.0000 H   0  0  0  0  0  0  0  0  0  0  0  0
  -10.0944    2.8776    0.0000 C   0  0  2  0  0  0  0  0  0  0  0  0
  -10.6071    4.2873    0.0000 H   0  0  0  0  0  0  0  0  0  0  0  0
  -10.0944    1.3776    0.0000 C   0  0  2  0  0  0  0  0  0  0  0  0
  -11.5716    1.6379    0.0000 H   0  0  0  0  0  0  0  0  0  0  0  0
   -8.7944    0.6276    0.0000 O   0  0  0  0  0  0  0  0  0  0  0  0
  -10.6071   -0.0320    0.0000 S   0  0  0  0  0  0  0  0  0  0  0  0
  -12.0843   -0.2928    0.0000 C   0  0  0  0  0  0  0  0  0  0  0  0
  -13.0487    0.8560    0.0000 H   0  0  0  0  0  0  0  0  0  0  0  0
  -13.3832   -1.0431    0.0000 H   0  0  0  0  0  0  0  0  0  0  0  0
  -11.5710   -1.7022    0.0000 H   0  0  0  0  0  0  0  0  0  0  0  0
  -11.5716    2.6173    0.0000 O   0  0  0  0  0  0  0  0  0  0  0  0
  -12.5357    3.7665    0.0000 H   0  0  0  0  0  0  0  0  0  0  0  0
   -9.7585    4.7768    0.0000 O   0  0  0  0  0  0  0  0  0  0  0  0
   -9.2453    6.1863    0.0000 H   0  0  0  0  0  0  0  0  0  0  0  0
   -6.8176    4.7384    0.0000 O   0  0  0  0  0  0  0  0  0  0  0  0
   -7.7820    5.8872    0.0000 H   0  0  0  0  0  0  0  0  0  0  0  0
   -2.0158    1.9270    0.0000 N   0  0  0  0  0  0  0  0  0  0  0  0
   -3.1612    2.8955    0.0000 C   0  0  0  0  0  0  0  0  0  0  0  0
   -2.8951    4.3717    0.0000 H   0  0  0  0  0  0  0  0  0  0  0  0
   -3.9162    1.5994    0.0000 H   0  0  0  0  0  0  0  0  0  0  0  0
   -4.5688    3.4140    0.0000 H   0  0  0  0  0  0  0  0  0  0  0  0
   -0.5549    2.2762    0.0000 C   0  0  0  0  0  0  0  0  0  0  0  0
   -1.0575    3.6895    0.0000 H   0  0  0  0  0  0  0  0  0  0  0  0
    0.7967    2.9268    0.0000 H   0  0  0  0  0  0  0  0  0  0  0  0
  1  2  1  0  0  0  0 
  1  3  1  0  0  0  0 
  1  4  1  0  0  0  0 
  1  5  1  0  0  0  0 
  5  6  1  0  0  0  0 
  5  7  1  0  0  0  0 
  5  8  1  0  0  0  0 
  8  9  1  0  0  0  0 
  8 10  1  0  0  0  0 
  8 11  1  0  0  0  0 
 11 12  2  0  0  0  0 
 12 13  1  0  0  0  0 
 12 14  1  0  0  0  0 
 14 15  1  6  0  0  0 
 14 16  1  1  0  0  0 
 16 17  2  0  0  0  0 
 16 18  1  0  0  0  0 
 18 19  1  0  0  0  0 
 18 20  1  0  0  0  0 
 20 21  1  0  0  0  0 
 20 22  1  0  0  0  0 
 22 23  1  0  0  0  0 
 22 24  1  0  0  0  0 
 24 25  1  0  0  0  0 
 24 26  1  0  0  0  0 
 24 27  1  0  0  0  0 
 22 28  1  0  0  0  0 
 29 20  1  1  0  0  0 
 29 30  1  6  0  0  0 
 29 31  1  0  0  0  0 
 31 32  1  6  0  0  0 
 31 33  1  0  0  0  0 
 33 34  1  6  0  0  0 
 33 35  1  0  0  0  0 
 35 36  1  1  0  0  0 
 35 37  1  0  0  0  0 
 37 38  1  1  0  0  0 
 37 39  1  0  0  0  0 
 29 39  1  0  0  0  0 
 37 40  1  6  0  0  0 
 40 41  1  0  0  0  0 
 41 42  1  0  0  0  0 
 41 43  1  0  0  0  0 
 41 44  1  0  0  0  0 
 35 45  1  6  0  0  0 
 45 46  1  0  0  0  0 
 33 47  1  1  0  0  0 
 47 48  1  0  0  0  0 
 31 49  1  1  0  0  0 
 49 50  1  0  0  0  0 
 14 51  1  0  0  0  0 
 51 52  1  0  0  0  0 
 52 53  1  0  0  0  0 
 52 54  1  0  0  0  0 
 52 55  1  0  0  0  0 
 51 56  1  0  0  0  0 
 11 56  1  0  0  0  0 
 56 57  1  0  0  0  0 
 56 58  1  0  0  0  0 
M  END
> <Rank>
53

> <Priority_score>
0.0064

> <Reaction_type>
alkyl dehydrogenation

> <Parent_ID>
21

> <Parent_InChI>
InChI=1S/C18H33ClN2O5S/c1-5-6-10-7-11(21(3)8-10)17(25)20-12(9(2)19)16-14(23)13(22)15(24)18(26-16)27-4/h9-16,18,22-24H,5-8H2,1-4H3,(H,20,25)

> <Parent_SMILES>
CCC[C@@H]1C[C@@H](C(=O)NC(C(C)Cl)[C@H]2O[C@H](SC)[C@H](O)[C@@H](O)[C@H]2O)N(C)C1

$$$$
Molecule 21_metabolite 55
  CDK     0516241031

 58 59  0  0  0  0  0  0  0  0999 V2000
  -13.8754    9.3303    0.0000 C   0  0  0  0  0  0  0  0  0  0  0  0
  -13.4159   10.7582    0.0000 H   0  0  0  0  0  0  0  0  0  0  0  0
  -14.7955    8.1456    0.0000 H   0  0  0  0  0  0  0  0  0  0  0  0
  -15.2018   10.0307    0.0000 H   0  0  0  0  0  0  0  0  0  0  0  0
  -12.8685    8.2184    0.0000 C   0  0  0  0  0  0  0  0  0  0  0  0
  -14.1383    7.4199    0.0000 H   0  0  0  0  0  0  0  0  0  0  0  0
  -12.3026    6.8293    0.0000 H   0  0  0  0  0  0  0  0  0  0  0  0
  -11.4022    8.5345    0.0000 C   0  0  0  0  0  0  0  0  0  0  0  0
   -9.7261    9.5885    0.0000 H   0  0  0  0  0  0  0  0  0  0  0  0
  -11.9681    9.9236    0.0000 H   0  0  0  0  0  0  0  0  0  0  0  0
  -10.0731    7.0669    0.0000 C   0  0  2  0  0  0  0  0  0  0  0  0
  -11.2838    6.1814    0.0000 H   0  0  0  0  0  0  0  0  0  0  0  0
   -9.3186    5.7704    0.0000 C   0  0  0  0  0  0  0  0  0  0  0  0
  -10.6866    5.1552    0.0000 H   0  0  0  0  0  0  0  0  0  0  0  0
   -8.8493    4.3457    0.0000 H   0  0  0  0  0  0  0  0  0  0  0  0
   -7.8599    6.0871    0.0000 C   0  0  1  0  0  0  0  0  0  0  0  0
   -7.7000    4.5956    0.0000 H   0  0  0  0  0  0  0  0  0  0  0  0
   -6.3599    6.0868    0.0000 C   0  0  0  0  0  0  0  0  0  0  0  0
   -5.6097    7.3858    0.0000 O   0  0  0  0  0  0  0  0  0  0  0  0
   -5.6101    4.7877    0.0000 N   0  0  0  0  0  0  0  0  0  0  0  0
   -6.3603    3.4888    0.0000 H   0  0  0  0  0  0  0  0  0  0  0  0
   -4.1101    4.7875    0.0000 C   0  0  0  0  0  0  0  0  0  0  0  0
   -4.3704    6.2647    0.0000 H   0  0  0  0  0  0  0  0  0  0  0  0
   -2.7005    5.3003    0.0000 C   0  0  0  0  0  0  0  0  0  0  0  0
   -2.4403    3.8230    0.0000 H   0  0  0  0  0  0  0  0  0  0  0  0
   -2.4398    6.7774    0.0000 C   0  0  0  0  0  0  0  0  0  0  0  0
   -3.5887    7.7418    0.0000 H   0  0  0  0  0  0  0  0  0  0  0  0
   -1.6896    8.0763    0.0000 H   0  0  0  0  0  0  0  0  0  0  0  0
   -1.0304    6.2642    0.0000 H   0  0  0  0  0  0  0  0  0  0  0  0
   -1.2005    5.3000    0.0000 Cl  0  0  0  0  0  0  0  0  0  0  0  0
   -3.1204    3.0726    0.0000 C   0  0  0  0  0  0  0  0  0  0  0  0
   -3.8704    1.7735    0.0000 C   0  0  0  0  0  0  0  0  0  0  0  0
   -3.1196    0.4740    0.0000 C   0  0  1  0  0  0  0  0  0  0  0  0
   -4.5291   -0.0392    0.0000 H   0  0  0  0  0  0  0  0  0  0  0  0
   -1.6188    0.4735    0.0000 C   0  0  2  0  0  0  0  0  0  0  0  0
   -1.8795   -1.0036    0.0000 H   0  0  0  0  0  0  0  0  0  0  0  0
   -0.8688    1.7726    0.0000 C   0  0  2  0  0  0  0  0  0  0  0  0
    0.2804    0.8085    0.0000 H   0  0  0  0  0  0  0  0  0  0  0  0
   -1.6196    3.0721    0.0000 O   0  0  0  0  0  0  0  0  0  0  0  0
    0.2801    2.7370    0.0000 S   0  0  0  0  0  0  0  0  0  0  0  0
    1.6898    2.2243    0.0000 C   0  0  0  0  0  0  0  0  0  0  0  0
    1.9505    0.7471    0.0000 H   0  0  0  0  0  0  0  0  0  0  0  0
    3.1898    2.2246    0.0000 H   0  0  0  0  0  0  0  0  0  0  0  0
    1.9499    3.7015    0.0000 H   0  0  0  0  0  0  0  0  0  0  0  0
   -0.2093   -0.0397    0.0000 O   0  0  0  0  0  0  0  0  0  0  0  0
    0.0510   -1.5169    0.0000 H   0  0  0  0  0  0  0  0  0  0  0  0
   -2.8593   -1.0032    0.0000 O   0  0  0  0  0  0  0  0  0  0  0  0
   -4.0084   -1.9673    0.0000 H   0  0  0  0  0  0  0  0  0  0  0  0
   -5.3704    1.7733    0.0000 O   0  0  0  0  0  0  0  0  0  0  0  0
   -6.1202    0.4741    0.0000 H   0  0  0  0  0  0  0  0  0  0  0  0
   -7.6993    7.5805    0.0000 N   0  0  0  0  0  0  0  0  0  0  0  0
   -5.9880    8.5765    0.0000 C   0  0  0  0  0  0  0  0  0  0  0  0
   -4.6864    7.8310    0.0000 H   0  0  0  0  0  0  0  0  0  0  0  0
   -5.0278    9.7288    0.0000 H   0  0  0  0  0  0  0  0  0  0  0  0
   -6.9562    9.7222    0.0000 H   0  0  0  0  0  0  0  0  0  0  0  0
   -9.0772    8.1787    0.0000 C   0  0  0  0  0  0  0  0  0  0  0  0
   -8.3364    9.4830    0.0000 H   0  0  0  0  0  0  0  0  0  0  0  0
  -10.2949    9.0545    0.0000 H   0  0  0  0  0  0  0  0  0  0  0  0
  1  2  1  0  0  0  0 
  1  3  1  0  0  0  0 
  1  4  1  0  0  0  0 
  1  5  1  0  0  0  0 
  5  6  1  0  0  0  0 
  5  7  1  0  0  0  0 
  5  8  1  0  0  0  0 
  8  9  1  0  0  0  0 
  8 10  1  0  0  0  0 
 11  8  1  1  0  0  0 
 11 12  1  6  0  0  0 
 11 13  1  0  0  0  0 
 13 14  1  0  0  0  0 
 13 15  1  0  0  0  0 
 13 16  1  0  0  0  0 
 16 17  1  1  0  0  0 
 16 18  1  6  0  0  0 
 18 19  2  0  0  0  0 
 18 20  1  0  0  0  0 
 20 21  1  0  0  0  0 
 20 22  1  0  0  0  0 
 22 23  1  0  0  0  0 
 22 24  1  0  0  0  0 
 24 25  1  0  0  0  0 
 24 26  1  0  0  0  0 
 26 27  1  0  0  0  0 
 26 28  1  0  0  0  0 
 26 29  1  0  0  0  0 
 24 30  1  0  0  0  0 
 22 31  1  0  0  0  0 
 31 32  2  0  0  0  0 
 32 33  1  0  0  0  0 
 33 34  1  6  0  0  0 
 33 35  1  0  0  0  0 
 35 36  1  1  0  0  0 
 35 37  1  0  0  0  0 
 37 38  1  1  0  0  0 
 37 39  1  0  0  0  0 
 31 39  1  0  0  0  0 
 37 40  1  6  0  0  0 
 40 41  1  0  0  0  0 
 41 42  1  0  0  0  0 
 41 43  1  0  0  0  0 
 41 44  1  0  0  0  0 
 35 45  1  6  0  0  0 
 45 46  1  0  0  0  0 
 33 47  1  1  0  0  0 
 47 48  1  0  0  0  0 
 32 49  1  0  0  0  0 
 49 50  1  0  0  0  0 
 16 51  1  0  0  0  0 
 51 52  1  0  0  0  0 
 52 53  1  0  0  0  0 
 52 54  1  0  0  0  0 
 52 55  1  0  0  0  0 
 51 56  1  0  0  0  0 
 11 56  1  0  0  0  0 
 56 57  1  0  0  0  0 
 56 58  1  0  0  0  0 
M  END
> <Rank>
55

> <Priority_score>
0.005600000000000001

> <Reaction_type>
alkyl dehydrogenation

> <Parent_ID>
21

> <Parent_InChI>
InChI=1S/C18H33ClN2O5S/c1-5-6-10-7-11(21(3)8-10)17(25)20-12(9(2)19)16-14(23)13(22)15(24)18(26-16)27-4/h9-16,18,22-24H,5-8H2,1-4H3,(H,20,25)

> <Parent_SMILES>
CCC[C@@H]1C[C@@H](C(=O)NC(C(C)Cl)[C@H]2O[C@H](SC)[C@H](O)[C@@H](O)[C@H]2O)N(C)C1

$$$$
Molecule 21_metabolite 56
  CDK     0516241031

 58 59  0  0  0  0  0  0  0  0999 V2000
  -12.5425    0.5720    0.0000 C   0  0  0  0  0  0  0  0  0  0  0  0
  -12.3385   -0.9140    0.0000 H   0  0  0  0  0  0  0  0  0  0  0  0
  -13.2424    1.8987    0.0000 H   0  0  0  0  0  0  0  0  0  0  0  0
  -13.9706    0.1131    0.0000 H   0  0  0  0  0  0  0  0  0  0  0  0
  -11.3575    1.4917    0.0000 C   0  0  0  0  0  0  0  0  0  0  0  0
  -12.4689    2.4990    0.0000 H   0  0  0  0  0  0  0  0  0  0  0  0
  -10.5585    2.7612    0.0000 H   0  0  0  0  0  0  0  0  0  0  0  0
   -9.9685    0.9253    0.0000 C   0  0  0  0  0  0  0  0  0  0  0  0
   -8.5014   -0.4044    0.0000 H   0  0  0  0  0  0  0  0  0  0  0  0
  -10.7675   -0.3442    0.0000 H   0  0  0  0  0  0  0  0  0  0  0  0
   -8.4043    2.1392    0.0000 C   0  0  2  0  0  0  0  0  0  0  0  0
   -9.4425    3.2219    0.0000 H   0  0  0  0  0  0  0  0  0  0  0  0
   -7.4358    3.2846    0.0000 C   0  0  0  0  0  0  0  0  0  0  0  0
   -8.6759    4.1285    0.0000 H   0  0  0  0  0  0  0  0  0  0  0  0
   -6.7257    4.6059    0.0000 H   0  0  0  0  0  0  0  0  0  0  0  0
   -6.0545    2.7189    0.0000 C   0  0  1  0  0  0  0  0  0  0  0  0
   -5.6374    4.1598    0.0000 H   0  0  0  0  0  0  0  0  0  0  0  0
   -4.5773    2.4581    0.0000 C   0  0  0  0  0  0  0  0  0  0  0  0
   -4.0646    1.0485    0.0000 O   0  0  0  0  0  0  0  0  0  0  0  0
   -3.6129    3.6070    0.0000 N   0  0  0  0  0  0  0  0  0  0  0  0
   -4.1256    5.0167    0.0000 H   0  0  0  0  0  0  0  0  0  0  0  0
   -1.6630    3.2628    0.0000 C   0  0  0  0  0  0  0  0  0  0  0  0
   -0.1858    3.5229    0.0000 H   0  0  0  0  0  0  0  0  0  0  0  0
   -1.6627    4.7628    0.0000 C   0  0  0  0  0  0  0  0  0  0  0  0
   -2.1754    6.1724    0.0000 H   0  0  0  0  0  0  0  0  0  0  0  0
   -0.3635    5.5125    0.0000 C   0  0  0  0  0  0  0  0  0  0  0  0
    0.9354    4.7622    0.0000 H   0  0  0  0  0  0  0  0  0  0  0  0
    0.6009    6.6613    0.0000 H   0  0  0  0  0  0  0  0  0  0  0  0
   -1.3274    6.6618    0.0000 H   0  0  0  0  0  0  0  0  0  0  0  0
   -3.1400    4.5026    0.0000 Cl  0  0  0  0  0  0  0  0  0  0  0  0
   -1.1503    1.8531    0.0000 C   0  0  2  0  0  0  0  0  0  0  0  0
   -2.6275    1.5928    0.0000 H   0  0  0  0  0  0  0  0  0  0  0  0
   -1.1503    0.3531    0.0000 C   0  0  0  0  0  0  0  0  0  0  0  0
    0.1497   -0.3969    0.0000 C   0  0  0  0  0  0  0  0  0  0  0  0
    1.4497    0.3531    0.0000 C   0  0  2  0  0  0  0  0  0  0  0  0
    1.9624   -1.0565    0.0000 H   0  0  0  0  0  0  0  0  0  0  0  0
    1.4497    1.8531    0.0000 C   0  0  2  0  0  0  0  0  0  0  0  0
    2.9269    1.5928    0.0000 H   0  0  0  0  0  0  0  0  0  0  0  0
    0.1497    2.6031    0.0000 O   0  0  0  0  0  0  0  0  0  0  0  0
    1.9624    3.2628    0.0000 S   0  0  0  0  0  0  0  0  0  0  0  0
    3.4396    3.5236    0.0000 C   0  0  0  0  0  0  0  0  0  0  0  0
    4.4040    2.3747    0.0000 H   0  0  0  0  0  0  0  0  0  0  0  0
    4.7385    4.2738    0.0000 H   0  0  0  0  0  0  0  0  0  0  0  0
    2.9263    4.9330    0.0000 H   0  0  0  0  0  0  0  0  0  0  0  0
    2.9269    0.6134    0.0000 O   0  0  0  0  0  0  0  0  0  0  0  0
    3.8910   -0.5357    0.0000 H   0  0  0  0  0  0  0  0  0  0  0  0
    0.1497   -1.8969    0.0000 O   0  0  0  0  0  0  0  0  0  0  0  0
    1.4487   -2.6469    0.0000 H   0  0  0  0  0  0  0  0  0  0  0  0
   -2.4492   -0.3971    0.0000 O   0  0  0  0  0  0  0  0  0  0  0  0
   -2.4490   -1.8971    0.0000 H   0  0  0  0  0  0  0  0  0  0  0  0
   -6.1562    1.2203    0.0000 N   0  0  0  0  0  0  0  0  0  0  0  0
   -4.6443   -0.0582    0.0000 C   0  0  0  0  0  0  0  0  0  0  0  0
   -3.2328    0.4494    0.0000 H   0  0  0  0  0  0  0  0  0  0  0  0
   -5.7970   -1.0180    0.0000 H   0  0  0  0  0  0  0  0  0  0  0  0
   -3.8993   -1.3601    0.0000 H   0  0  0  0  0  0  0  0  0  0  0  0
   -7.6171    0.8711    0.0000 C   0  0  0  0  0  0  0  0  0  0  0  0
   -7.1146   -0.5422    0.0000 H   0  0  0  0  0  0  0  0  0  0  0  0
   -8.9687    0.2205    0.0000 H   0  0  0  0  0  0  0  0  0  0  0  0
  1  2  1  0  0  0  0 
  1  3  1  0  0  0  0 
  1  4  1  0  0  0  0 
  1  5  1  0  0  0  0 
  5  6  1  0  0  0  0 
  5  7  1  0  0  0  0 
  5  8  1  0  0  0  0 
  8  9  1  0  0  0  0 
  8 10  1  0  0  0  0 
 11  8  1  6  0  0  0 
 11 12  1  1  0  0  0 
 11 13  1  0  0  0  0 
 13 14  1  0  0  0  0 
 13 15  1  0  0  0  0 
 13 16  1  0  0  0  0 
 16 17  1  6  0  0  0 
 16 18  1  1  0  0  0 
 18 19  2  0  0  0  0 
 18 20  1  0  0  0  0 
 20 21  1  0  0  0  0 
 20 22  1  0  0  0  0 
 22 23  1  0  0  0  0 
 22 24  1  0  0  0  0 
 24 25  1  0  0  0  0 
 24 26  1  0  0  0  0 
 26 27  1  0  0  0  0 
 26 28  1  0  0  0  0 
 26 29  1  0  0  0  0 
 24 30  1  0  0  0  0 
 22 31  1  0  0  0  0 
 31 32  1  6  0  0  0 
 31 33  1  1  0  0  0 
 33 34  2  0  0  0  0 
 34 35  1  0  0  0  0 
 35 36  1  1  0  0  0 
 35 37  1  0  0  0  0 
 37 38  1  1  0  0  0 
 37 39  1  0  0  0  0 
 31 39  1  0  0  0  0 
 37 40  1  6  0  0  0 
 40 41  1  0  0  0  0 
 41 42  1  0  0  0  0 
 41 43  1  0  0  0  0 
 41 44  1  0  0  0  0 
 35 45  1  6  0  0  0 
 45 46  1  0  0  0  0 
 34 47  1  0  0  0  0 
 47 48  1  0  0  0  0 
 33 49  1  0  0  0  0 
 49 50  1  0  0  0  0 
 16 51  1  0  0  0  0 
 51 52  1  0  0  0  0 
 52 53  1  0  0  0  0 
 52 54  1  0  0  0  0 
 52 55  1  0  0  0  0 
 51 56  1  0  0  0  0 
 11 56  1  0  0  0  0 
 56 57  1  0  0  0  0 
 56 58  1  0  0  0  0 
M  END
> <Rank>
55

> <Priority_score>
0.005600000000000001

> <Reaction_type>
alkyl dehydrogenation

> <Parent_ID>
21

> <Parent_InChI>
InChI=1S/C18H33ClN2O5S/c1-5-6-10-7-11(21(3)8-10)17(25)20-12(9(2)19)16-14(23)13(22)15(24)18(26-16)27-4/h9-16,18,22-24H,5-8H2,1-4H3,(H,20,25)

> <Parent_SMILES>
CCC[C@@H]1C[C@@H](C(=O)NC(C(C)Cl)[C@H]2O[C@H](SC)[C@H](O)[C@@H](O)[C@H]2O)N(C)C1

$$$$
Molecule 21_metabolite 57
  CDK     0516241031

 58 59  0  0  0  0  0  0  0  0999 V2000
    4.3867    0.6735    0.0000 C   0  0  0  0  0  0  0  0  0  0  0  0
    5.0414   -0.6761    0.0000 H   0  0  0  0  0  0  0  0  0  0  0  0
    5.8295    1.0839    0.0000 H   0  0  0  0  0  0  0  0  0  0  0  0
    4.2331    2.1656    0.0000 H   0  0  0  0  0  0  0  0  0  0  0  0
    2.8906    0.7813    0.0000 C   0  0  0  0  0  0  0  0  0  0  0  0
    1.5216    1.3943    0.0000 H   0  0  0  0  0  0  0  0  0  0  0  0
    3.2565    2.2359    0.0000 H   0  0  0  0  0  0  0  0  0  0  0  0
    1.7799   -0.8579    0.0000 C   0  0  0  0  0  0  0  0  0  0  0  0
    3.1489   -1.4709    0.0000 H   0  0  0  0  0  0  0  0  0  0  0  0
    1.4140   -2.3125    0.0000 H   0  0  0  0  0  0  0  0  0  0  0  0
   -0.1950   -0.7156    0.0000 C   0  0  2  0  0  0  0  0  0  0  0  0
   -0.1462   -2.2148    0.0000 H   0  0  0  0  0  0  0  0  0  0  0  0
   -1.6809   -0.9203    0.0000 C   0  0  0  0  0  0  0  0  0  0  0  0
   -2.3893   -2.2425    0.0000 H   0  0  0  0  0  0  0  0  0  0  0  0
   -2.3305    0.4236    0.0000 C   0  0  0  0  0  0  0  0  0  0  0  0
   -3.8076    0.6844    0.0000 C   0  0  0  0  0  0  0  0  0  0  0  0
   -4.3203    2.0940    0.0000 O   0  0  0  0  0  0  0  0  0  0  0  0
   -4.7720   -0.4645    0.0000 N   0  0  0  0  0  0  0  0  0  0  0  0
   -4.2593   -1.8741    0.0000 H   0  0  0  0  0  0  0  0  0  0  0  0
   -6.7219   -0.1202    0.0000 C   0  0  0  0  0  0  0  0  0  0  0  0
   -8.1991   -0.3804    0.0000 H   0  0  0  0  0  0  0  0  0  0  0  0
   -6.7222   -1.6202    0.0000 C   0  0  0  0  0  0  0  0  0  0  0  0
   -6.2095   -3.0299    0.0000 H   0  0  0  0  0  0  0  0  0  0  0  0
   -8.0214   -2.3700    0.0000 C   0  0  0  0  0  0  0  0  0  0  0  0
   -9.3203   -1.6197    0.0000 H   0  0  0  0  0  0  0  0  0  0  0  0
   -8.9858   -3.5188    0.0000 H   0  0  0  0  0  0  0  0  0  0  0  0
   -7.0575   -3.5192    0.0000 H   0  0  0  0  0  0  0  0  0  0  0  0
   -5.2449   -1.3601    0.0000 Cl  0  0  0  0  0  0  0  0  0  0  0  0
   -7.2346    1.2894    0.0000 C   0  0  2  0  0  0  0  0  0  0  0  0
   -5.7574    1.5497    0.0000 H   0  0  0  0  0  0  0  0  0  0  0  0
   -7.2346    2.7894    0.0000 C   0  0  1  0  0  0  0  0  0  0  0  0
   -5.7574    2.5291    0.0000 H   0  0  0  0  0  0  0  0  0  0  0  0
   -8.5346    3.5394    0.0000 C   0  0  1  0  0  0  0  0  0  0  0  0
   -7.5705    4.6886    0.0000 H   0  0  0  0  0  0  0  0  0  0  0  0
   -9.8346    2.7894    0.0000 C   0  0  2  0  0  0  0  0  0  0  0  0
  -10.3473    4.1991    0.0000 H   0  0  0  0  0  0  0  0  0  0  0  0
   -9.8346    1.2894    0.0000 C   0  0  2  0  0  0  0  0  0  0  0  0
  -11.3118    1.5497    0.0000 H   0  0  0  0  0  0  0  0  0  0  0  0
   -8.5346    0.5394    0.0000 O   0  0  0  0  0  0  0  0  0  0  0  0
  -10.3473   -0.1202    0.0000 S   0  0  0  0  0  0  0  0  0  0  0  0
  -11.8245   -0.3810    0.0000 C   0  0  0  0  0  0  0  0  0  0  0  0
  -12.7889    0.7678    0.0000 H   0  0  0  0  0  0  0  0  0  0  0  0
  -13.1234   -1.1313    0.0000 H   0  0  0  0  0  0  0  0  0  0  0  0
  -11.3112   -1.7905    0.0000 H   0  0  0  0  0  0  0  0  0  0  0  0
  -11.3118    2.5291    0.0000 O   0  0  0  0  0  0  0  0  0  0  0  0
  -12.2759    3.6783    0.0000 H   0  0  0  0  0  0  0  0  0  0  0  0
   -9.4987    4.6886    0.0000 O   0  0  0  0  0  0  0  0  0  0  0  0
   -8.9855    6.0981    0.0000 H   0  0  0  0  0  0  0  0  0  0  0  0
   -6.7219    4.1991    0.0000 O   0  0  0  0  0  0  0  0  0  0  0  0
   -5.2447    4.4598    0.0000 H   0  0  0  0  0  0  0  0  0  0  0  0
   -1.2533    1.4704    0.0000 N   0  0  0  0  0  0  0  0  0  0  0  0
   -1.4580    2.9564    0.0000 C   0  0  0  0  0  0  0  0  0  0  0  0
   -0.2735    3.8767    0.0000 H   0  0  0  0  0  0  0  0  0  0  0  0
   -2.8858    2.4967    0.0000 H   0  0  0  0  0  0  0  0  0  0  0  0
   -2.1586    4.2827    0.0000 H   0  0  0  0  0  0  0  0  0  0  0  0
    0.0669    0.7539    0.0000 C   0  0  0  0  0  0  0  0  0  0  0  0
    0.6376    2.1411    0.0000 H   0  0  0  0  0  0  0  0  0  0  0  0
    1.5071    0.3346    0.0000 H   0  0  0  0  0  0  0  0  0  0  0  0
  1  2  1  0  0  0  0 
  1  3  1  0  0  0  0 
  1  4  1  0  0  0  0 
  1  5  1  0  0  0  0 
  5  6  1  0  0  0  0 
  5  7  1  0  0  0  0 
  5  8  1  0  0  0  0 
  8  9  1  0  0  0  0 
  8 10  1  0  0  0  0 
  8 11  1  0  0  0  0 
 11 12  1  1  0  0  0 
 11 13  1  6  0  0  0 
 13 14  1  0  0  0  0 
 13 15  2  0  0  0  0 
 15 16  1  0  0  0  0 
 16 17  2  0  0  0  0 
 16 18  1  0  0  0  0 
 18 19  1  0  0  0  0 
 18 20  1  0  0  0  0 
 20 21  1  0  0  0  0 
 20 22  1  0  0  0  0 
 22 23  1  0  0  0  0 
 22 24  1  0  0  0  0 
 24 25  1  0  0  0  0 
 24 26  1  0  0  0  0 
 24 27  1  0  0  0  0 
 22 28  1  0  0  0  0 
 29 20  1  1  0  0  0 
 29 30  1  6  0  0  0 
 29 31  1  0  0  0  0 
 31 32  1  6  0  0  0 
 31 33  1  0  0  0  0 
 33 34  1  6  0  0  0 
 33 35  1  0  0  0  0 
 35 36  1  1  0  0  0 
 35 37  1  0  0  0  0 
 37 38  1  1  0  0  0 
 37 39  1  0  0  0  0 
 29 39  1  0  0  0  0 
 37 40  1  6  0  0  0 
 40 41  1  0  0  0  0 
 41 42  1  0  0  0  0 
 41 43  1  0  0  0  0 
 41 44  1  0  0  0  0 
 35 45  1  6  0  0  0 
 45 46  1  0  0  0  0 
 33 47  1  1  0  0  0 
 47 48  1  0  0  0  0 
 31 49  1  1  0  0  0 
 49 50  1  0  0  0  0 
 15 51  1  0  0  0  0 
 51 52  1  0  0  0  0 
 52 53  1  0  0  0  0 
 52 54  1  0  0  0  0 
 52 55  1  0  0  0  0 
 51 56  1  0  0  0  0 
 11 56  1  0  0  0  0 
 56 57  1  0  0  0  0 
 56 58  1  0  0  0  0 
M  END
> <Rank>
57

> <Priority_score>
0.004

> <Reaction_type>
alkyl dehydrogenation

> <Parent_ID>
21

> <Parent_InChI>
InChI=1S/C18H33ClN2O5S/c1-5-6-10-7-11(21(3)8-10)17(25)20-12(9(2)19)16-14(23)13(22)15(24)18(26-16)27-4/h9-16,18,22-24H,5-8H2,1-4H3,(H,20,25)

> <Parent_SMILES>
CCC[C@@H]1C[C@@H](C(=O)NC(C(C)Cl)[C@H]2O[C@H](SC)[C@H](O)[C@@H](O)[C@H]2O)N(C)C1

$$$$
Molecule 21_metabolite 58
  CDK     0516241031

 58 59  0  0  0  0  0  0  0  0999 V2000
   -7.2721    9.2987    0.0000 C   0  0  0  0  0  0  0  0  0  0  0  0
   -8.4571    8.3791    0.0000 H   0  0  0  0  0  0  0  0  0  0  0  0
   -6.4731   10.5682    0.0000 H   0  0  0  0  0  0  0  0  0  0  0  0
   -8.3835   10.3060    0.0000 H   0  0  0  0  0  0  0  0  0  0  0  0
   -5.8831    8.7323    0.0000 C   0  0  0  0  0  0  0  0  0  0  0  0
   -5.5665   10.1985    0.0000 H   0  0  0  0  0  0  0  0  0  0  0  0
   -4.3842    8.6751    0.0000 H   0  0  0  0  0  0  0  0  0  0  0  0
   -5.6792    7.2462    0.0000 C   0  0  0  0  0  0  0  0  0  0  0  0
   -6.0971    5.3109    0.0000 H   0  0  0  0  0  0  0  0  0  0  0  0
   -7.1781    7.3034    0.0000 H   0  0  0  0  0  0  0  0  0  0  0  0
   -3.8458    6.4986    0.0000 C   0  0  2  0  0  0  0  0  0  0  0  0
   -3.4272    7.9390    0.0000 H   0  0  0  0  0  0  0  0  0  0  0  0
   -2.3696    6.2325    0.0000 C   0  0  0  0  0  0  0  0  0  0  0  0
   -2.2588    7.7284    0.0000 H   0  0  0  0  0  0  0  0  0  0  0  0
   -0.8703    6.2782    0.0000 H   0  0  0  0  0  0  0  0  0  0  0  0
   -2.1688    4.7534    0.0000 C   0  0  1  0  0  0  0  0  0  0  0  0
   -0.7125    5.1127    0.0000 H   0  0  0  0  0  0  0  0  0  0  0  0
   -1.6561    3.3437    0.0000 C   0  0  0  0  0  0  0  0  0  0  0  0
   -2.6205    2.1949    0.0000 O   0  0  0  0  0  0  0  0  0  0  0  0
   -0.1789    3.0829    0.0000 N   0  0  0  0  0  0  0  0  0  0  0  0
    0.3338    1.6733    0.0000 C   0  0  0  0  0  0  0  0  0  0  0  0
   -0.6306    0.5244    0.0000 C   0  0  0  0  0  0  0  0  0  0  0  0
   -1.9298   -0.2253    0.0000 H   0  0  0  0  0  0  0  0  0  0  0  0
   -0.1179   -0.8852    0.0000 C   0  0  0  0  0  0  0  0  0  0  0  0
    1.3593   -1.1460    0.0000 H   0  0  0  0  0  0  0  0  0  0  0  0
   -1.5951   -1.1454    0.0000 H   0  0  0  0  0  0  0  0  0  0  0  0
   -0.1182   -2.3852    0.0000 H   0  0  0  0  0  0  0  0  0  0  0  0
   -1.5945    1.6737    0.0000 Cl  0  0  0  0  0  0  0  0  0  0  0  0
    2.2837    1.3290    0.0000 C   0  0  2  0  0  0  0  0  0  0  0  0
    1.7705   -0.0804    0.0000 H   0  0  0  0  0  0  0  0  0  0  0  0
    3.5827    0.5790    0.0000 C   0  0  1  0  0  0  0  0  0  0  0  0
    2.6186   -0.5701    0.0000 H   0  0  0  0  0  0  0  0  0  0  0  0
    4.8822    1.3299    0.0000 C   0  0  1  0  0  0  0  0  0  0  0  0
    5.3954   -0.0796    0.0000 H   0  0  0  0  0  0  0  0  0  0  0  0
    4.8827    2.8307    0.0000 C   0  0  2  0  0  0  0  0  0  0  0  0
    6.3599    2.5699    0.0000 H   0  0  0  0  0  0  0  0  0  0  0  0
    3.5837    3.5807    0.0000 C   0  0  2  0  0  0  0  0  0  0  0  0
    4.5477    4.7299    0.0000 H   0  0  0  0  0  0  0  0  0  0  0  0
    2.2841    2.8299    0.0000 O   0  0  0  0  0  0  0  0  0  0  0  0
    2.6192    4.7296    0.0000 S   0  0  0  0  0  0  0  0  0  0  0  0
    3.1320    6.1392    0.0000 C   0  0  0  0  0  0  0  0  0  0  0  0
    4.6091    6.4000    0.0000 H   0  0  0  0  0  0  0  0  0  0  0  0
    3.1316    7.6392    0.0000 H   0  0  0  0  0  0  0  0  0  0  0  0
    1.6547    6.3994    0.0000 H   0  0  0  0  0  0  0  0  0  0  0  0
    5.3959    4.2402    0.0000 O   0  0  0  0  0  0  0  0  0  0  0  0
    6.8731    4.5005    0.0000 H   0  0  0  0  0  0  0  0  0  0  0  0
    6.3595    1.5902    0.0000 O   0  0  0  0  0  0  0  0  0  0  0  0
    7.3235    0.4410    0.0000 H   0  0  0  0  0  0  0  0  0  0  0  0
    4.5471   -0.5698    0.0000 O   0  0  0  0  0  0  0  0  0  0  0  0
    4.0344   -1.9795    0.0000 H   0  0  0  0  0  0  0  0  0  0  0  0
   -3.5175    4.0922    0.0000 N   0  0  0  0  0  0  0  0  0  0  0  0
   -3.8688    2.1436    0.0000 C   0  0  0  0  0  0  0  0  0  0  0  0
   -2.7234    1.1750    0.0000 H   0  0  0  0  0  0  0  0  0  0  0  0
   -5.2763    2.6620    0.0000 H   0  0  0  0  0  0  0  0  0  0  0  0
   -4.6237    0.8474    0.0000 H   0  0  0  0  0  0  0  0  0  0  0  0
   -4.5504    5.1827    0.0000 C   0  0  0  0  0  0  0  0  0  0  0  0
   -5.5231    4.0409    0.0000 H   0  0  0  0  0  0  0  0  0  0  0  0
   -5.7896    6.0279    0.0000 H   0  0  0  0  0  0  0  0  0  0  0  0
  1  2  1  0  0  0  0 
  1  3  1  0  0  0  0 
  1  4  1  0  0  0  0 
  1  5  1  0  0  0  0 
  5  6  1  0  0  0  0 
  5  7  1  0  0  0  0 
  5  8  1  0  0  0  0 
  8  9  1  0  0  0  0 
  8 10  1  0  0  0  0 
 11  8  1  6  0  0  0 
 11 12  1  1  0  0  0 
 11 13  1  0  0  0  0 
 13 14  1  0  0  0  0 
 13 15  1  0  0  0  0 
 13 16  1  0  0  0  0 
 16 17  1  6  0  0  0 
 16 18  1  1  0  0  0 
 18 19  2  0  0  0  0 
 18 20  1  4  0  0  0 
 20 21  2  0  0  0  0 
 21 22  1  0  0  0  0 
 22 23  1  0  0  0  0 
 22 24  1  0  0  0  0 
 24 25  1  0  0  0  0 
 24 26  1  0  0  0  0 
 24 27  1  0  0  0  0 
 22 28  1  0  0  0  0 
 29 21  1  1  0  0  0 
 29 30  1  6  0  0  0 
 29 31  1  0  0  0  0 
 31 32  1  6  0  0  0 
 31 33  1  0  0  0  0 
 33 34  1  6  0  0  0 
 33 35  1  0  0  0  0 
 35 36  1  1  0  0  0 
 35 37  1  0  0  0  0 
 37 38  1  1  0  0  0 
 37 39  1  0  0  0  0 
 29 39  1  0  0  0  0 
 37 40  1  6  0  0  0 
 40 41  1  0  0  0  0 
 41 42  1  0  0  0  0 
 41 43  1  0  0  0  0 
 41 44  1  0  0  0  0 
 35 45  1  6  0  0  0 
 45 46  1  0  0  0  0 
 33 47  1  1  0  0  0 
 47 48  1  0  0  0  0 
 31 49  1  1  0  0  0 
 49 50  1  0  0  0  0 
 16 51  1  0  0  0  0 
 51 52  1  0  0  0  0 
 52 53  1  0  0  0  0 
 52 54  1  0  0  0  0 
 52 55  1  0  0  0  0 
 51 56  1  0  0  0  0 
 11 56  1  0  0  0  0 
 56 57  1  0  0  0  0 
 56 58  1  0  0  0  0 
M  END
> <Rank>
57

> <Priority_score>
0.004

> <Reaction_type>
dehydration of N-C bond

> <Parent_ID>
21

> <Parent_InChI>
InChI=1S/C18H33ClN2O5S/c1-5-6-10-7-11(21(3)8-10)17(25)20-12(9(2)19)16-14(23)13(22)15(24)18(26-16)27-4/h9-16,18,22-24H,5-8H2,1-4H3,(H,20,25)

> <Parent_SMILES>
CCC[C@@H]1C[C@@H](C(=O)NC(C(C)Cl)[C@H]2O[C@H](SC)[C@H](O)[C@@H](O)[C@H]2O)N(C)C1

$$$$
Molecule 21_metabolite 59
  CDK     0516241031

 59 60  0  0  0  0  0  0  0  0999 V2000
   -7.2721    9.2987    0.0000 C   0  0  0  0  0  0  0  0  0  0  0  0
   -8.4571    8.3791    0.0000 H   0  0  0  0  0  0  0  0  0  0  0  0
   -6.4731   10.5682    0.0000 H   0  0  0  0  0  0  0  0  0  0  0  0
   -8.3835   10.3060    0.0000 H   0  0  0  0  0  0  0  0  0  0  0  0
   -5.8831    8.7323    0.0000 C   0  0  0  0  0  0  0  0  0  0  0  0
   -5.5665   10.1985    0.0000 H   0  0  0  0  0  0  0  0  0  0  0  0
   -4.3842    8.6751    0.0000 H   0  0  0  0  0  0  0  0  0  0  0  0
   -5.6792    7.2462    0.0000 C   0  0  0  0  0  0  0  0  0  0  0  0
   -6.0971    5.3109    0.0000 H   0  0  0  0  0  0  0  0  0  0  0  0
   -7.1781    7.3034    0.0000 H   0  0  0  0  0  0  0  0  0  0  0  0
   -3.8458    6.4986    0.0000 C   0  0  2  0  0  0  0  0  0  0  0  0
   -3.4272    7.9390    0.0000 H   0  0  0  0  0  0  0  0  0  0  0  0
   -2.3696    6.2325    0.0000 C   0  0  0  0  0  0  0  0  0  0  0  0
   -2.2588    7.7284    0.0000 H   0  0  0  0  0  0  0  0  0  0  0  0
   -0.8703    6.2782    0.0000 H   0  0  0  0  0  0  0  0  0  0  0  0
   -2.1688    4.7534    0.0000 C   0  0  1  0  0  0  0  0  0  0  0  0
   -0.7125    5.1127    0.0000 H   0  0  0  0  0  0  0  0  0  0  0  0
   -1.6561    3.3437    0.0000 C   0  0  0  0  0  0  0  0  0  0  0  0
   -2.6205    2.1949    0.0000 O   0  0  0  0  0  0  0  0  0  0  0  0
   -0.1789    3.0829    0.0000 N   0  0  0  0  0  0  0  0  0  0  0  0
    0.7855    4.2318    0.0000 H   0  0  0  0  0  0  0  0  0  0  0  0
    0.3338    1.6733    0.0000 C   0  0  0  0  0  0  0  0  0  0  0  0
   -0.6306    0.5244    0.0000 C   0  0  0  0  0  0  0  0  0  0  0  0
   -1.9298   -0.2253    0.0000 H   0  0  0  0  0  0  0  0  0  0  0  0
   -0.1179   -0.8852    0.0000 C   0  0  0  0  0  0  0  0  0  0  0  0
    1.3593   -1.1460    0.0000 H   0  0  0  0  0  0  0  0  0  0  0  0
   -1.5951   -1.1454    0.0000 H   0  0  0  0  0  0  0  0  0  0  0  0
   -0.1182   -2.3852    0.0000 H   0  0  0  0  0  0  0  0  0  0  0  0
   -1.5945    1.6737    0.0000 Cl  0  0  0  0  0  0  0  0  0  0  0  0
    2.2837    1.3290    0.0000 C   0  0  2  0  0  0  0  0  0  0  0  0
    1.7705   -0.0804    0.0000 H   0  0  0  0  0  0  0  0  0  0  0  0
    3.5827    0.5790    0.0000 C   0  0  1  0  0  0  0  0  0  0  0  0
    2.6186   -0.5701    0.0000 H   0  0  0  0  0  0  0  0  0  0  0  0
    4.8822    1.3299    0.0000 C   0  0  1  0  0  0  0  0  0  0  0  0
    5.3954   -0.0796    0.0000 H   0  0  0  0  0  0  0  0  0  0  0  0
    4.8827    2.8307    0.0000 C   0  0  2  0  0  0  0  0  0  0  0  0
    6.3599    2.5699    0.0000 H   0  0  0  0  0  0  0  0  0  0  0  0
    3.5837    3.5807    0.0000 C   0  0  2  0  0  0  0  0  0  0  0  0
    4.5477    4.7299    0.0000 H   0  0  0  0  0  0  0  0  0  0  0  0
    2.2841    2.8299    0.0000 O   0  0  0  0  0  0  0  0  0  0  0  0
    2.6192    4.7296    0.0000 S   0  0  0  0  0  0  0  0  0  0  0  0
    3.1320    6.1392    0.0000 C   0  0  0  0  0  0  0  0  0  0  0  0
    4.6091    6.4000    0.0000 H   0  0  0  0  0  0  0  0  0  0  0  0
    3.1316    7.6392    0.0000 H   0  0  0  0  0  0  0  0  0  0  0  0
    1.6547    6.3994    0.0000 H   0  0  0  0  0  0  0  0  0  0  0  0
    5.3959    4.2402    0.0000 O   0  0  0  0  0  0  0  0  0  0  0  0
    6.8731    4.5005    0.0000 H   0  0  0  0  0  0  0  0  0  0  0  0
    6.3595    1.5902    0.0000 O   0  0  0  0  0  0  0  0  0  0  0  0
    7.3235    0.4410    0.0000 H   0  0  0  0  0  0  0  0  0  0  0  0
    4.5471   -0.5698    0.0000 O   0  0  0  0  0  0  0  0  0  0  0  0
    4.0344   -1.9795    0.0000 H   0  0  0  0  0  0  0  0  0  0  0  0
   -3.5175    4.0922    0.0000 N   0  0  0  0  0  0  0  0  0  0  0  0
   -3.8688    2.1436    0.0000 C   0  0  0  0  0  0  0  0  0  0  0  0
   -2.7234    1.1750    0.0000 H   0  0  0  0  0  0  0  0  0  0  0  0
   -5.2763    2.6620    0.0000 H   0  0  0  0  0  0  0  0  0  0  0  0
   -4.6237    0.8474    0.0000 H   0  0  0  0  0  0  0  0  0  0  0  0
   -4.5504    5.1827    0.0000 C   0  0  0  0  0  0  0  0  0  0  0  0
   -5.5231    4.0409    0.0000 H   0  0  0  0  0  0  0  0  0  0  0  0
   -5.7896    6.0279    0.0000 H   0  0  0  0  0  0  0  0  0  0  0  0
  1  2  1  0  0  0  0 
  1  3  1  0  0  0  0 
  1  4  1  0  0  0  0 
  1  5  1  0  0  0  0 
  5  6  1  0  0  0  0 
  5  7  1  0  0  0  0 
  5  8  1  0  0  0  0 
  8  9  1  0  0  0  0 
  8 10  1  0  0  0  0 
 11  8  1  6  0  0  0 
 11 12  1  1  0  0  0 
 11 13  1  0  0  0  0 
 13 14  1  0  0  0  0 
 13 15  1  0  0  0  0 
 13 16  1  0  0  0  0 
 16 17  1  6  0  0  0 
 16 18  1  1  0  0  0 
 18 19  2  0  0  0  0 
 18 20  1  0  0  0  0 
 20 21  1  4  0  0  0 
 20 22  2  0  0  0  0 
 22 23  1  0  0  0  0 
 23 24  1  0  0  0  0 
 23 25  1  0  0  0  0 
 25 26  1  0  0  0  0 
 25 27  1  0  0  0  0 
 25 28  1  0  0  0  0 
 23 29  1  0  0  0  0 
 30 22  1  1  0  0  0 
 30 31  1  6  0  0  0 
 30 32  1  0  0  0  0 
 32 33  1  6  0  0  0 
 32 34  1  0  0  0  0 
 34 35  1  6  0  0  0 
 34 36  1  0  0  0  0 
 36 37  1  1  0  0  0 
 36 38  1  0  0  0  0 
 38 39  1  1  0  0  0 
 38 40  1  0  0  0  0 
 30 40  1  0  0  0  0 
 38 41  1  6  0  0  0 
 41 42  1  0  0  0  0 
 42 43  1  0  0  0  0 
 42 44  1  0  0  0  0 
 42 45  1  0  0  0  0 
 36 46  1  6  0  0  0 
 46 47  1  0  0  0  0 
 34 48  1  1  0  0  0 
 48 49  1  0  0  0  0 
 32 50  1  1  0  0  0 
 50 51  1  0  0  0  0 
 16 52  1  0  0  0  0 
 52 53  1  0  0  0  0 
 53 54  1  0  0  0  0 
 53 55  1  0  0  0  0 
 53 56  1  0  0  0  0 
 52 57  1  0  0  0  0 
 11 57  1  0  0  0  0 
 57 58  1  0  0  0  0 
 57 59  1  0  0  0  0 
M  CHG  1  20   1
M  END
> <Rank>
57

> <Priority_score>
0.004

> <Reaction_type>
dehydration of N-C bond

> <Parent_ID>
21

> <Parent_InChI>
InChI=1S/C18H33ClN2O5S/c1-5-6-10-7-11(21(3)8-10)17(25)20-12(9(2)19)16-14(23)13(22)15(24)18(26-16)27-4/h9-16,18,22-24H,5-8H2,1-4H3,(H,20,25)

> <Parent_SMILES>
CCC[C@@H]1C[C@@H](C(=O)NC(C(C)Cl)[C@H]2O[C@H](SC)[C@H](O)[C@@H](O)[C@H]2O)N(C)C1

$$$$
Molecule 21_metabolite 60
  CDK     0516241031

 58 59  0  0  0  0  0  0  0  0999 V2000
  -13.8002   10.6287    0.0000 C   0  0  0  0  0  0  0  0  0  0  0  0
  -13.3408   12.0566    0.0000 H   0  0  0  0  0  0  0  0  0  0  0  0
  -14.7203    9.4440    0.0000 H   0  0  0  0  0  0  0  0  0  0  0  0
  -15.1267   11.3291    0.0000 H   0  0  0  0  0  0  0  0  0  0  0  0
  -12.7933    9.5168    0.0000 C   0  0  0  0  0  0  0  0  0  0  0  0
  -14.0631    8.7183    0.0000 H   0  0  0  0  0  0  0  0  0  0  0  0
  -12.2275    8.1277    0.0000 H   0  0  0  0  0  0  0  0  0  0  0  0
  -11.3270    9.8329    0.0000 C   0  0  0  0  0  0  0  0  0  0  0  0
   -9.6509   10.8869    0.0000 H   0  0  0  0  0  0  0  0  0  0  0  0
  -11.8929   11.2221    0.0000 H   0  0  0  0  0  0  0  0  0  0  0  0
   -9.9979    8.3653    0.0000 C   0  0  2  0  0  0  0  0  0  0  0  0
  -11.2087    7.4798    0.0000 H   0  0  0  0  0  0  0  0  0  0  0  0
   -9.2435    7.0688    0.0000 C   0  0  0  0  0  0  0  0  0  0  0  0
  -10.6115    6.4536    0.0000 H   0  0  0  0  0  0  0  0  0  0  0  0
   -8.7742    5.6441    0.0000 H   0  0  0  0  0  0  0  0  0  0  0  0
   -7.7848    7.3855    0.0000 C   0  0  1  0  0  0  0  0  0  0  0  0
   -7.6249    5.8941    0.0000 H   0  0  0  0  0  0  0  0  0  0  0  0
   -6.2848    7.3853    0.0000 C   0  0  0  0  0  0  0  0  0  0  0  0
   -5.5346    8.6842    0.0000 O   0  0  0  0  0  0  0  0  0  0  0  0
   -5.5350    6.0861    0.0000 N   0  0  0  0  0  0  0  0  0  0  0  0
   -6.2852    4.7872    0.0000 H   0  0  0  0  0  0  0  0  0  0  0  0
   -4.0350    6.0859    0.0000 C   0  0  0  0  0  0  0  0  0  0  0  0
   -3.2852    4.7867    0.0000 C   0  0  0  0  0  0  0  0  0  0  0  0
   -1.7852    4.7862    0.0000 C   0  0  1  0  0  0  0  0  0  0  0  0
   -2.0450    6.2635    0.0000 H   0  0  0  0  0  0  0  0  0  0  0  0
   -1.0356    3.4860    0.0000 C   0  0  1  0  0  0  0  0  0  0  0  0
    0.1139    4.4497    0.0000 H   0  0  0  0  0  0  0  0  0  0  0  0
   -1.7860    2.1862    0.0000 C   0  0  2  0  0  0  0  0  0  0  0  0
   -0.3766    1.6730    0.0000 H   0  0  0  0  0  0  0  0  0  0  0  0
   -3.2860    2.1867    0.0000 C   0  0  2  0  0  0  0  0  0  0  0  0
   -3.0262    0.7094    0.0000 H   0  0  0  0  0  0  0  0  0  0  0  0
   -4.0356    3.4869    0.0000 O   0  0  0  0  0  0  0  0  0  0  0  0
   -4.6958    1.6744    0.0000 S   0  0  0  0  0  0  0  0  0  0  0  0
   -4.9571    0.1974    0.0000 C   0  0  0  0  0  0  0  0  0  0  0  0
   -3.8086   -0.7674    0.0000 H   0  0  0  0  0  0  0  0  0  0  0  0
   -5.7078   -1.1013    0.0000 H   0  0  0  0  0  0  0  0  0  0  0  0
   -6.3664    0.7111    0.0000 H   0  0  0  0  0  0  0  0  0  0  0  0
   -2.0468    0.7091    0.0000 O   0  0  0  0  0  0  0  0  0  0  0  0
   -0.8980   -0.2554    0.0000 H   0  0  0  0  0  0  0  0  0  0  0  0
    0.1132    2.5216    0.0000 O   0  0  0  0  0  0  0  0  0  0  0  0
    1.5229    3.0343    0.0000 H   0  0  0  0  0  0  0  0  0  0  0  0
    0.0758    5.4624    0.0000 O   0  0  0  0  0  0  0  0  0  0  0  0
    1.2243    4.4976    0.0000 H   0  0  0  0  0  0  0  0  0  0  0  0
   -3.2848    7.3848    0.0000 C   0  0  0  0  0  0  0  0  0  0  0  0
   -4.6942    7.8980    0.0000 H   0  0  0  0  0  0  0  0  0  0  0  0
   -1.7848    7.3845    0.0000 C   0  0  0  0  0  0  0  0  0  0  0  0
   -1.0350    6.0854    0.0000 H   0  0  0  0  0  0  0  0  0  0  0  0
   -0.3752    7.8973    0.0000 H   0  0  0  0  0  0  0  0  0  0  0  0
   -2.0450    8.8618    0.0000 H   0  0  0  0  0  0  0  0  0  0  0  0
   -3.0241    8.8620    0.0000 Cl  0  0  0  0  0  0  0  0  0  0  0  0
   -7.6242    8.8790    0.0000 N   0  0  0  0  0  0  0  0  0  0  0  0
   -5.9129    9.8749    0.0000 C   0  0  0  0  0  0  0  0  0  0  0  0
   -4.6113    9.1294    0.0000 H   0  0  0  0  0  0  0  0  0  0  0  0
   -4.9527   11.0273    0.0000 H   0  0  0  0  0  0  0  0  0  0  0  0
   -6.8810   11.0206    0.0000 H   0  0  0  0  0  0  0  0  0  0  0  0
   -9.0020    9.4771    0.0000 C   0  0  0  0  0  0  0  0  0  0  0  0
   -8.2612   10.7814    0.0000 H   0  0  0  0  0  0  0  0  0  0  0  0
  -10.2198   10.3529    0.0000 H   0  0  0  0  0  0  0  0  0  0  0  0
  1  2  1  0  0  0  0 
  1  3  1  0  0  0  0 
  1  4  1  0  0  0  0 
  1  5  1  0  0  0  0 
  5  6  1  0  0  0  0 
  5  7  1  0  0  0  0 
  5  8  1  0  0  0  0 
  8  9  1  0  0  0  0 
  8 10  1  0  0  0  0 
 11  8  1  1  0  0  0 
 11 12  1  6  0  0  0 
 11 13  1  0  0  0  0 
 13 14  1  0  0  0  0 
 13 15  1  0  0  0  0 
 13 16  1  0  0  0  0 
 16 17  1  1  0  0  0 
 16 18  1  6  0  0  0 
 18 19  2  0  0  0  0 
 18 20  1  0  0  0  0 
 20 21  1  0  0  0  0 
 20 22  1  4  0  0  0 
 22 23  2  0  0  0  0 
 23 24  1  0  0  0  0 
 24 25  1  1  0  0  0 
 24 26  1  0  0  0  0 
 26 27  1  1  0  0  0 
 26 28  1  0  0  0  0 
 28 29  1  6  0  0  0 
 28 30  1  0  0  0  0 
 30 31  1  6  0  0  0 
 30 32  1  0  0  0  0 
 23 32  1  0  0  0  0 
 30 33  1  1  0  0  0 
 33 34  1  0  0  0  0 
 34 35  1  0  0  0  0 
 34 36  1  0  0  0  0 
 34 37  1  0  0  0  0 
 28 38  1  1  0  0  0 
 38 39  1  0  0  0  0 
 26 40  1  6  0  0  0 
 40 41  1  0  0  0  0 
 24 42  1  6  0  0  0 
 42 43  1  0  0  0  0 
 22 44  1  0  0  0  0 
 44 45  1  0  0  0  0 
 44 46  1  0  0  0  0 
 46 47  1  0  0  0  0 
 46 48  1  0  0  0  0 
 46 49  1  0  0  0  0 
 44 50  1  0  0  0  0 
 16 51  1  0  0  0  0 
 51 52  1  0  0  0  0 
 52 53  1  0  0  0  0 
 52 54  1  0  0  0  0 
 52 55  1  0  0  0  0 
 51 56  1  0  0  0  0 
 11 56  1  0  0  0  0 
 56 57  1  0  0  0  0 
 56 58  1  0  0  0  0 
M  END
> <Rank>
57

> <Priority_score>
0.004

> <Reaction_type>
alkyl dehydrogenation

> <Parent_ID>
21

> <Parent_InChI>
InChI=1S/C18H33ClN2O5S/c1-5-6-10-7-11(21(3)8-10)17(25)20-12(9(2)19)16-14(23)13(22)15(24)18(26-16)27-4/h9-16,18,22-24H,5-8H2,1-4H3,(H,20,25)

> <Parent_SMILES>
CCC[C@@H]1C[C@@H](C(=O)NC(C(C)Cl)[C@H]2O[C@H](SC)[C@H](O)[C@@H](O)[C@H]2O)N(C)C1

$$$$
Molecule 22
  CDK     0516241031

 20 20  0  0  0  0  0  0  0  0999 V2000
    4.2144   -3.1999    0.0000 C   0  0  0  0  0  0  0  0  0  0  0  0
    2.9169   -2.4473    0.0000 C   0  0  0  0  0  0  0  0  0  0  0  0
    1.6164   -3.1948    0.0000 N   0  0  0  0  0  0  0  0  0  0  0  0
    1.6134   -4.6948    0.0000 C   0  0  0  0  0  0  0  0  0  0  0  0
    2.9110   -5.4473    0.0000 C   0  0  0  0  0  0  0  0  0  0  0  0
    0.3188   -2.4422    0.0000 C   0  0  0  0  0  0  0  0  0  0  0  0
   -0.9817   -3.1897    0.0000 C   0  0  0  0  0  0  0  0  0  0  0  0
   -2.2793   -2.4371    0.0000 N   0  0  0  0  0  0  0  0  0  0  0  0
   -3.5798   -3.1846    0.0000 C   0  0  0  0  0  0  0  0  0  0  0  0
   -3.5827   -4.6846    0.0000 O   0  0  0  0  0  0  0  0  0  0  0  0
   -4.8773   -2.4320    0.0000 C   0  0  0  0  0  0  0  0  0  0  0  0
   -6.1727   -3.1684    0.0000 C   0  0  0  0  0  0  0  0  0  0  0  0
   -7.4672   -2.4262    0.0000 C   0  0  0  0  0  0  0  0  0  0  0  0
   -7.4764   -0.9304    0.0000 C   0  0  0  0  0  0  0  0  0  0  0  0
   -6.1810   -0.1940    0.0000 C   0  0  0  0  0  0  0  0  0  0  0  0
   -4.8815   -0.9448    0.0000 C   0  0  0  0  0  0  0  0  0  0  0  0
   -6.1757    1.3060    0.0000 Cl  0  0  0  0  0  0  0  0  0  0  0  0
   -8.7752   -0.1800    0.0000 N   0  0  0  0  0  0  0  0  0  0  0  0
   -6.1755   -4.6684    0.0000 O   0  0  0  0  0  0  0  0  0  0  0  0
   -7.4759   -5.4160    0.0000 C   0  0  0  0  0  0  0  0  0  0  0  0
  1  2  1  0  0  0  0 
  2  3  1  0  0  0  0 
  3  4  1  0  0  0  0 
  4  5  1  0  0  0  0 
  3  6  1  0  0  0  0 
  6  7  1  0  0  0  0 
  7  8  1  0  0  0  0 
  8  9  1  0  0  0  0 
  9 10  2  0  0  0  0 
  9 11  1  0  0  0  0 
 11 12  2  0  0  0  0 
 12 13  1  0  0  0  0 
 13 14  2  0  0  0  0 
 14 15  1  0  0  0  0 
 15 16  2  0  0  0  0 
 11 16  1  0  0  0  0 
 15 17  1  0  0  0  0 
 14 18  1  0  0  0  0 
 12 19  1  0  0  0  0 
 19 20  1  0  0  0  0 
M  END
> <SMILES>
CCN(CC)CCNC(=O)c1cc(Cl)c(N)cc1OC

$$$$
Molecule 22_metabolite 1
  CDK     0516241031

 47 47  0  0  0  0  0  0  0  0999 V2000
    6.6434   -3.7367    0.0000 C   0  0  0  0  0  0  0  0  0  0  0  0
    6.6405   -5.2366    0.0000 H   0  0  0  0  0  0  0  0  0  0  0  0
    7.1592   -2.3281    0.0000 H   0  0  0  0  0  0  0  0  0  0  0  0
    8.1201   -4.0000    0.0000 H   0  0  0  0  0  0  0  0  0  0  0  0
    5.3459   -2.9841    0.0000 C   0  0  0  0  0  0  0  0  0  0  0  0
    6.3123   -1.8369    0.0000 H   0  0  0  0  0  0  0  0  0  0  0  0
    4.3840   -1.8331    0.0000 H   0  0  0  0  0  0  0  0  0  0  0  0
    4.0454   -3.7315    0.0000 N   0  0  0  0  0  0  0  0  0  0  0  0
    4.0424   -5.2315    0.0000 C   0  0  0  0  0  0  0  0  0  0  0  0
    5.5201   -4.9740    0.0000 H   0  0  0  0  0  0  0  0  0  0  0  0
    4.5527   -6.6421    0.0000 H   0  0  0  0  0  0  0  0  0  0  0  0
    2.7419   -5.9790    0.0000 C   0  0  0  0  0  0  0  0  0  0  0  0
    1.4443   -5.2264    0.0000 H   0  0  0  0  0  0  0  0  0  0  0  0
    1.7755   -7.1262    0.0000 H   0  0  0  0  0  0  0  0  0  0  0  0
    3.7038   -7.1300    0.0000 H   0  0  0  0  0  0  0  0  0  0  0  0
    2.3326   -2.7382    0.0000 C   0  0  0  0  0  0  0  0  0  0  0  0
    3.2990   -1.5910    0.0000 H   0  0  0  0  0  0  0  0  0  0  0  0
    1.3707   -1.5872    0.0000 H   0  0  0  0  0  0  0  0  0  0  0  0
    1.0321   -3.4856    0.0000 C   0  0  0  0  0  0  0  0  0  0  0  0
    0.0656   -4.6328    0.0000 H   0  0  0  0  0  0  0  0  0  0  0  0
    1.9940   -4.6366    0.0000 H   0  0  0  0  0  0  0  0  0  0  0  0
   -0.2655   -2.7331    0.0000 N   0  0  0  0  0  0  0  0  0  0  0  0
   -0.2625   -1.2331    0.0000 H   0  0  0  0  0  0  0  0  0  0  0  0
   -1.5660   -3.4805    0.0000 C   0  0  0  0  0  0  0  0  0  0  0  0
   -1.5689   -4.9805    0.0000 O   0  0  0  0  0  0  0  0  0  0  0  0
   -2.8636   -2.7280    0.0000 C   0  0  0  0  0  0  0  0  0  0  0  0
   -4.1589   -3.4643    0.0000 C   0  0  0  0  0  0  0  0  0  0  0  0
   -5.4535   -2.7221    0.0000 C   0  0  0  0  0  0  0  0  0  0  0  0
   -6.7491   -3.4781    0.0000 H   0  0  0  0  0  0  0  0  0  0  0  0
   -5.4626   -1.2263    0.0000 C   0  0  0  0  0  0  0  0  0  0  0  0
   -4.1672   -0.4900    0.0000 C   0  0  0  0  0  0  0  0  0  0  0  0
   -2.8677   -1.2408    0.0000 C   0  0  0  0  0  0  0  0  0  0  0  0
   -1.5696   -0.4892    0.0000 H   0  0  0  0  0  0  0  0  0  0  0  0
   -4.1619    1.0100    0.0000 Cl  0  0  0  0  0  0  0  0  0  0  0  0
   -6.7614   -0.4759    0.0000 N   0  0  0  0  0  0  0  0  0  0  0  0
   -6.7610    1.0241    0.0000 H   0  0  0  0  0  0  0  0  0  0  0  0
   -8.0607   -1.2255    0.0000 C   0  0  0  0  0  0  0  0  0  0  0  0
   -8.0611   -2.7255    0.0000 O   0  0  0  0  0  0  0  0  0  0  0  0
   -9.3595   -0.4751    0.0000 C   0  0  0  0  0  0  0  0  0  0  0  0
  -10.6588   -1.2248    0.0000 H   0  0  0  0  0  0  0  0  0  0  0  0
   -8.3950    0.6736    0.0000 H   0  0  0  0  0  0  0  0  0  0  0  0
  -10.3233    0.6742    0.0000 H   0  0  0  0  0  0  0  0  0  0  0  0
   -4.1617   -4.9643    0.0000 O   0  0  0  0  0  0  0  0  0  0  0  0
   -5.4621   -5.7119    0.0000 C   0  0  0  0  0  0  0  0  0  0  0  0
   -5.4649   -7.2119    0.0000 H   0  0  0  0  0  0  0  0  0  0  0  0
   -5.9726   -4.3014    0.0000 H   0  0  0  0  0  0  0  0  0  0  0  0
   -6.9398   -5.9697    0.0000 H   0  0  0  0  0  0  0  0  0  0  0  0
  1  2  1  0  0  0  0 
  1  3  1  0  0  0  0 
  1  4  1  0  0  0  0 
  1  5  1  0  0  0  0 
  5  6  1  0  0  0  0 
  5  7  1  0  0  0  0 
  5  8  1  0  0  0  0 
  8  9  1  0  0  0  0 
  9 10  1  0  0  0  0 
  9 11  1  0  0  0  0 
  9 12  1  0  0  0  0 
 12 13  1  0  0  0  0 
 12 14  1  0  0  0  0 
 12 15  1  0  0  0  0 
  8 16  1  0  0  0  0 
 16 17  1  0  0  0  0 
 16 18  1  0  0  0  0 
 16 19  1  0  0  0  0 
 19 20  1  0  0  0  0 
 19 21  1  0  0  0  0 
 19 22  1  0  0  0  0 
 22 23  1  0  0  0  0 
 22 24  1  0  0  0  0 
 24 25  2  0  0  0  0 
 24 26  1  0  0  0  0 
 26 27  2  0  0  0  0 
 27 28  1  0  0  0  0 
 28 29  1  0  0  0  0 
 28 30  2  0  0  0  0 
 30 31  1  0  0  0  0 
 31 32  2  0  0  0  0 
 26 32  1  0  0  0  0 
 32 33  1  0  0  0  0 
 31 34  1  0  0  0  0 
 30 35  1  0  0  0  0 
 35 36  1  0  0  0  0 
 35 37  1  0  0  0  0 
 37 38  2  0  0  0  0 
 37 39  1  0  0  0  0 
 39 40  1  0  0  0  0 
 39 41  1  0  0  0  0 
 39 42  1  0  0  0  0 
 27 43  1  0  0  0  0 
 43 44  1  0  0  0  0 
 44 45  1  0  0  0  0 
 44 46  1  0  0  0  0 
 44 47  1  0  0  0  0 
M  END
> <Rank>
1

> <Priority_score>
0.952

> <Reaction_type>
N-acetylation_(aniline)

> <Parent_ID>
22

> <Parent_InChI>
InChI=1S/C14H22ClN3O2/c1-4-18(5-2)7-6-17-14(19)10-8-11(15)12(16)9-13(10)20-3/h8-9H,4-7,16H2,1-3H3,(H,17,19)

> <Parent_SMILES>
CCN(CC)CCNC(=O)c1cc(Cl)c(N)cc1OC

$$$$
Molecule 22_metabolite 2
  CDK     0516241031

 36 36  0  0  0  0  0  0  0  0999 V2000
    3.8528   -7.2235    0.0000 C   0  0  0  0  0  0  0  0  0  0  0  0
    5.3528   -7.2264    0.0000 H   0  0  0  0  0  0  0  0  0  0  0  0
    2.4423   -7.7338    0.0000 H   0  0  0  0  0  0  0  0  0  0  0  0
    4.1104   -8.7012    0.0000 H   0  0  0  0  0  0  0  0  0  0  0  0
    3.1054   -5.9230    0.0000 C   0  0  0  0  0  0  0  0  0  0  0  0
    4.5159   -5.4127    0.0000 H   0  0  0  0  0  0  0  0  0  0  0  0
    2.8478   -4.4453    0.0000 H   0  0  0  0  0  0  0  0  0  0  0  0
    1.6054   -5.9200    0.0000 N   0  0  0  0  0  0  0  0  0  0  0  0
    0.8528   -7.2176    0.0000 H   0  0  0  0  0  0  0  0  0  0  0  0
    0.6187   -4.2034    0.0000 C   0  0  0  0  0  0  0  0  0  0  0  0
    2.0293   -3.6931    0.0000 H   0  0  0  0  0  0  0  0  0  0  0  0
    0.3612   -2.7257    0.0000 H   0  0  0  0  0  0  0  0  0  0  0  0
   -0.8813   -4.2004    0.0000 C   0  0  0  0  0  0  0  0  0  0  0  0
   -2.2918   -4.7107    0.0000 H   0  0  0  0  0  0  0  0  0  0  0  0
   -0.6237   -5.6782    0.0000 H   0  0  0  0  0  0  0  0  0  0  0  0
   -1.6287   -2.8999    0.0000 N   0  0  0  0  0  0  0  0  0  0  0  0
   -0.8762   -1.6024    0.0000 H   0  0  0  0  0  0  0  0  0  0  0  0
   -3.1287   -2.8970    0.0000 C   0  0  0  0  0  0  0  0  0  0  0  0
   -3.8813   -4.1945    0.0000 O   0  0  0  0  0  0  0  0  0  0  0  0
   -3.8762   -1.5965    0.0000 C   0  0  0  0  0  0  0  0  0  0  0  0
   -5.3662   -1.5865    0.0000 C   0  0  0  0  0  0  0  0  0  0  0  0
   -6.1162   -0.2965    0.0000 C   0  0  0  0  0  0  0  0  0  0  0  0
   -7.6162   -0.3033    0.0000 H   0  0  0  0  0  0  0  0  0  0  0  0
   -5.3762    1.0035    0.0000 C   0  0  0  0  0  0  0  0  0  0  0  0
   -3.8862    0.9935    0.0000 C   0  0  0  0  0  0  0  0  0  0  0  0
   -3.1362   -0.3065    0.0000 C   0  0  0  0  0  0  0  0  0  0  0  0
   -1.6362   -0.3046    0.0000 H   0  0  0  0  0  0  0  0  0  0  0  0
   -3.1316    2.2899    0.0000 Cl  0  0  0  0  0  0  0  0  0  0  0  0
   -6.1258    2.3028    0.0000 N   0  0  0  0  0  0  0  0  0  0  0  0
   -7.6258    2.3032    0.0000 H   0  0  0  0  0  0  0  0  0  0  0  0
   -5.3754    3.6016    0.0000 H   0  0  0  0  0  0  0  0  0  0  0  0
   -6.1186   -2.8841    0.0000 O   0  0  0  0  0  0  0  0  0  0  0  0
   -7.6186   -2.8814    0.0000 C   0  0  0  0  0  0  0  0  0  0  0  0
   -8.3709   -4.1790    0.0000 H   0  0  0  0  0  0  0  0  0  0  0  0
   -7.3554   -1.4046    0.0000 H   0  0  0  0  0  0  0  0  0  0  0  0
   -9.0271   -2.3657    0.0000 H   0  0  0  0  0  0  0  0  0  0  0  0
  1  2  1  0  0  0  0 
  1  3  1  0  0  0  0 
  1  4  1  0  0  0  0 
  1  5  1  0  0  0  0 
  5  6  1  0  0  0  0 
  5  7  1  0  0  0  0 
  5  8  1  0  0  0  0 
  8  9  1  0  0  0  0 
  8 10  1  0  0  0  0 
 10 11  1  0  0  0  0 
 10 12  1  0  0  0  0 
 10 13  1  0  0  0  0 
 13 14  1  0  0  0  0 
 13 15  1  0  0  0  0 
 13 16  1  0  0  0  0 
 16 17  1  0  0  0  0 
 16 18  1  0  0  0  0 
 18 19  2  0  0  0  0 
 18 20  1  0  0  0  0 
 20 21  2  0  0  0  0 
 21 22  1  0  0  0  0 
 22 23  1  0  0  0  0 
 22 24  2  0  0  0  0 
 24 25  1  0  0  0  0 
 25 26  2  0  0  0  0 
 20 26  1  0  0  0  0 
 26 27  1  0  0  0  0 
 25 28  1  0  0  0  0 
 24 29  1  0  0  0  0 
 29 30  1  0  0  0  0 
 29 31  1  0  0  0  0 
 21 32  1  0  0  0  0 
 32 33  1  0  0  0  0 
 33 34  1  0  0  0  0 
 33 35  1  0  0  0  0 
 33 36  1  0  0  0  0 
M  END
> <Rank>
2

> <Priority_score>
0.8075576360444704

> <Reaction_type>
N-dealkylation_(tertiaryN-CH2-alkyl)

> <Parent_ID>
22

> <Parent_InChI>
InChI=1S/C14H22ClN3O2/c1-4-18(5-2)7-6-17-14(19)10-8-11(15)12(16)9-13(10)20-3/h8-9H,4-7,16H2,1-3H3,(H,17,19)

> <Parent_SMILES>
CCN(CC)CCNC(=O)c1cc(Cl)c(N)cc1OC

$$$$
Molecule 22_metabolite 3
  CDK     0516241031

  9  8  0  0  0  0  0  0  0  0999 V2000
    1.2990   -0.7500    0.0000 C   0  0  0  0  0  0  0  0  0  0  0  0
    0.0000    0.0000    0.0000 H   0  0  0  0  0  0  0  0  0  0  0  0
    0.3349   -1.8991    0.0000 H   0  0  0  0  0  0  0  0  0  0  0  0
    2.2632   -1.8991    0.0000 H   0  0  0  0  0  0  0  0  0  0  0  0
    2.5981   -0.0000    0.0000 C   0  0  0  0  0  0  0  0  0  0  0  0
    3.5623    1.1491    0.0000 H   0  0  0  0  0  0  0  0  0  0  0  0
    1.6339    1.1491    0.0000 H   0  0  0  0  0  0  0  0  0  0  0  0
    3.8971   -0.7500    0.0000 O   0  0  0  0  0  0  0  0  0  0  0  0
    5.1962   -0.0000    0.0000 H   0  0  0  0  0  0  0  0  0  0  0  0
  1  2  1  0  0  0  0 
  1  3  1  0  0  0  0 
  1  4  1  0  0  0  0 
  1  5  1  0  0  0  0 
  5  6  1  0  0  0  0 
  5  7  1  0  0  0  0 
  5  8  1  0  0  0  0 
  8  9  1  0  0  0  0 
M  END
> <Rank>
2

> <Priority_score>
0.8075576360444704

> <Reaction_type>
N-dealkylation_(tertiaryN-CH2-alkyl)

> <Parent_ID>
22

> <Parent_InChI>
InChI=1S/C14H22ClN3O2/c1-4-18(5-2)7-6-17-14(19)10-8-11(15)12(16)9-13(10)20-3/h8-9H,4-7,16H2,1-3H3,(H,17,19)

> <Parent_SMILES>
CCN(CC)CCNC(=O)c1cc(Cl)c(N)cc1OC

$$$$
Molecule 22_metabolite 4
  CDK     0516241031

 43 43  0  0  0  0  0  0  0  0999 V2000
    1.0939   -9.4426    0.0000 C   0  0  0  0  0  0  0  0  0  0  0  0
    1.0968   -7.9426    0.0000 H   0  0  0  0  0  0  0  0  0  0  0  0
    1.6041  -10.8531    0.0000 H   0  0  0  0  0  0  0  0  0  0  0  0
    2.5716   -9.1850    0.0000 H   0  0  0  0  0  0  0  0  0  0  0  0
   -0.2066  -10.1900    0.0000 C   0  0  0  0  0  0  0  0  0  0  0  0
   -0.7169   -8.7795    0.0000 H   0  0  0  0  0  0  0  0  0  0  0  0
   -1.6844  -10.4476    0.0000 H   0  0  0  0  0  0  0  0  0  0  0  0
   -0.2096  -11.6900    0.0000 N   0  0  0  0  0  0  0  0  0  0  0  0
   -1.5101  -12.4375    0.0000 C   0  0  0  0  0  0  0  0  0  0  0  0
   -0.5482  -13.5884    0.0000 H   0  0  0  0  0  0  0  0  0  0  0  0
   -2.4765  -13.5846    0.0000 H   0  0  0  0  0  0  0  0  0  0  0  0
   -2.8077  -11.6849    0.0000 C   0  0  0  0  0  0  0  0  0  0  0  0
   -4.2844  -11.4215    0.0000 H   0  0  0  0  0  0  0  0  0  0  0  0
   -3.3235  -13.0934    0.0000 H   0  0  0  0  0  0  0  0  0  0  0  0
   -2.8047  -10.1849    0.0000 N   0  0  0  0  0  0  0  0  0  0  0  0
   -1.5042   -9.4375    0.0000 H   0  0  0  0  0  0  0  0  0  0  0  0
   -4.1023   -9.4324    0.0000 C   0  0  0  0  0  0  0  0  0  0  0  0
   -5.4028  -10.1798    0.0000 O   0  0  0  0  0  0  0  0  0  0  0  0
   -4.0993   -7.9324    0.0000 C   0  0  0  0  0  0  0  0  0  0  0  0
   -5.3847   -7.1787    0.0000 C   0  0  0  0  0  0  0  0  0  0  0  0
   -5.3892   -5.6865    0.0000 C   0  0  0  0  0  0  0  0  0  0  0  0
   -6.6917   -4.9425    0.0000 H   0  0  0  0  0  0  0  0  0  0  0  0
   -4.0984   -4.9307    0.0000 C   0  0  0  0  0  0  0  0  0  0  0  0
   -2.8130   -5.6844    0.0000 C   0  0  0  0  0  0  0  0  0  0  0  0
   -2.8135   -7.1852    0.0000 C   0  0  0  0  0  0  0  0  0  0  0  0
   -1.5135   -7.9336    0.0000 H   0  0  0  0  0  0  0  0  0  0  0  0
   -1.5113   -4.9389    0.0000 Cl  0  0  0  0  0  0  0  0  0  0  0  0
   -4.0979   -3.4307    0.0000 N   0  0  0  0  0  0  0  0  0  0  0  0
   -5.3967   -2.6803    0.0000 H   0  0  0  0  0  0  0  0  0  0  0  0
   -2.7987   -2.6811    0.0000 H   0  0  0  0  0  0  0  0  0  0  0  0
   -6.6851   -7.9263    0.0000 O   0  0  0  0  0  0  0  0  0  0  0  0
   -7.9828   -7.1739    0.0000 C   0  0  0  0  0  0  0  0  0  0  0  0
   -9.2832   -7.9215    0.0000 H   0  0  0  0  0  0  0  0  0  0  0  0
   -7.0165   -6.0266    0.0000 H   0  0  0  0  0  0  0  0  0  0  0  0
   -8.9449   -6.0231    0.0000 H   0  0  0  0  0  0  0  0  0  0  0  0
    1.5032  -12.6834    0.0000 C   0  0  0  0  0  0  0  0  0  0  0  0
    0.5368  -13.8305    0.0000 H   0  0  0  0  0  0  0  0  0  0  0  0
    2.8037  -11.9359    0.0000 C   0  0  0  0  0  0  0  0  0  0  0  0
    2.8066  -10.4359    0.0000 H   0  0  0  0  0  0  0  0  0  0  0  0
    3.3140  -13.3465    0.0000 H   0  0  0  0  0  0  0  0  0  0  0  0
    4.2814  -11.6783    0.0000 H   0  0  0  0  0  0  0  0  0  0  0  0
    2.4651  -13.8343    0.0000 O   0  0  0  0  0  0  0  0  0  0  0  0
    1.9493  -15.2429    0.0000 H   0  0  0  0  0  0  0  0  0  0  0  0
  1  2  1  0  0  0  0 
  1  3  1  0  0  0  0 
  1  4  1  0  0  0  0 
  1  5  1  0  0  0  0 
  5  6  1  0  0  0  0 
  5  7  1  0  0  0  0 
  5  8  1  0  0  0  0 
  8  9  1  0  0  0  0 
  9 10  1  0  0  0  0 
  9 11  1  0  0  0  0 
  9 12  1  0  0  0  0 
 12 13  1  0  0  0  0 
 12 14  1  0  0  0  0 
 12 15  1  0  0  0  0 
 15 16  1  0  0  0  0 
 15 17  1  0  0  0  0 
 17 18  2  0  0  0  0 
 17 19  1  0  0  0  0 
 19 20  2  0  0  0  0 
 20 21  1  0  0  0  0 
 21 22  1  0  0  0  0 
 21 23  2  0  0  0  0 
 23 24  1  0  0  0  0 
 24 25  2  0  0  0  0 
 19 25  1  0  0  0  0 
 25 26  1  0  0  0  0 
 24 27  1  0  0  0  0 
 23 28  1  0  0  0  0 
 28 29  1  0  0  0  0 
 28 30  1  0  0  0  0 
 20 31  1  0  0  0  0 
 31 32  1  0  0  0  0 
 32 33  1  0  0  0  0 
 32 34  1  0  0  0  0 
 32 35  1  0  0  0  0 
  8 36  1  0  0  0  0 
 36 37  1  0  0  0  0 
 36 38  1  0  0  0  0 
 38 39  1  0  0  0  0 
 38 40  1  0  0  0  0 
 38 41  1  0  0  0  0 
 36 42  1  0  0  0  0 
 42 43  1  0  0  0  0 
M  END
> <Rank>
2

> <Priority_score>
0.8075576360444704

> <Reaction_type>
aliphatic hydroxylation

> <Parent_ID>
22

> <Parent_InChI>
InChI=1S/C14H22ClN3O2/c1-4-18(5-2)7-6-17-14(19)10-8-11(15)12(16)9-13(10)20-3/h8-9H,4-7,16H2,1-3H3,(H,17,19)

> <Parent_SMILES>
CCN(CC)CCNC(=O)c1cc(Cl)c(N)cc1OC

$$$$
Molecule 22_metabolite 5
  CDK     0516241031

 43 43  0  0  0  0  0  0  0  0999 V2000
    4.9949   -3.1512    0.0000 C   0  0  0  0  0  0  0  0  0  0  0  0
    4.9919   -4.6512    0.0000 H   0  0  0  0  0  0  0  0  0  0  0  0
    5.5107   -1.7427    0.0000 H   0  0  0  0  0  0  0  0  0  0  0  0
    6.4716   -3.4146    0.0000 H   0  0  0  0  0  0  0  0  0  0  0  0
    3.6973   -2.3987    0.0000 C   0  0  0  0  0  0  0  0  0  0  0  0
    4.6637   -1.2515    0.0000 H   0  0  0  0  0  0  0  0  0  0  0  0
    2.7354   -1.2477    0.0000 H   0  0  0  0  0  0  0  0  0  0  0  0
    1.9806   -3.3853    0.0000 N   0  0  0  0  0  0  0  0  0  0  0  0
    1.0142   -4.5325    0.0000 C   0  0  0  0  0  0  0  0  0  0  0  0
    0.0523   -3.3815    0.0000 H   0  0  0  0  0  0  0  0  0  0  0  0
   -0.2863   -5.2799    0.0000 H   0  0  0  0  0  0  0  0  0  0  0  0
    1.5245   -5.9430    0.0000 C   0  0  0  0  0  0  0  0  0  0  0  0
    3.0012   -6.2064    0.0000 H   0  0  0  0  0  0  0  0  0  0  0  0
    0.0467   -6.2006    0.0000 H   0  0  0  0  0  0  0  0  0  0  0  0
    1.5215   -7.4430    0.0000 H   0  0  0  0  0  0  0  0  0  0  0  0
    0.2679   -2.3919    0.0000 C   0  0  0  0  0  0  0  0  0  0  0  0
    1.2343   -1.2448    0.0000 H   0  0  0  0  0  0  0  0  0  0  0  0
   -0.6941   -1.2410    0.0000 H   0  0  0  0  0  0  0  0  0  0  0  0
   -1.0326   -3.1394    0.0000 C   0  0  0  0  0  0  0  0  0  0  0  0
   -1.9991   -4.2865    0.0000 H   0  0  0  0  0  0  0  0  0  0  0  0
   -0.0707   -4.2903    0.0000 H   0  0  0  0  0  0  0  0  0  0  0  0
   -2.3302   -2.3868    0.0000 N   0  0  0  0  0  0  0  0  0  0  0  0
   -2.3273   -0.8868    0.0000 H   0  0  0  0  0  0  0  0  0  0  0  0
   -3.6307   -3.1343    0.0000 C   0  0  0  0  0  0  0  0  0  0  0  0
   -3.6337   -4.6343    0.0000 O   0  0  0  0  0  0  0  0  0  0  0  0
   -4.9283   -2.3817    0.0000 C   0  0  0  0  0  0  0  0  0  0  0  0
   -6.2237   -3.1181    0.0000 C   0  0  0  0  0  0  0  0  0  0  0  0
   -7.5182   -2.3759    0.0000 C   0  0  0  0  0  0  0  0  0  0  0  0
   -8.8138   -3.1318    0.0000 H   0  0  0  0  0  0  0  0  0  0  0  0
   -7.5273   -0.8801    0.0000 C   0  0  0  0  0  0  0  0  0  0  0  0
   -6.2319   -0.1437    0.0000 C   0  0  0  0  0  0  0  0  0  0  0  0
   -4.9324   -0.8945    0.0000 C   0  0  0  0  0  0  0  0  0  0  0  0
   -3.6343   -0.1429    0.0000 H   0  0  0  0  0  0  0  0  0  0  0  0
   -6.2267    1.3563    0.0000 Cl  0  0  0  0  0  0  0  0  0  0  0  0
   -8.8261   -0.1297    0.0000 N   0  0  0  0  0  0  0  0  0  0  0  0
  -10.1254   -0.8793    0.0000 H   0  0  0  0  0  0  0  0  0  0  0  0
   -8.8257    1.3703    0.0000 H   0  0  0  0  0  0  0  0  0  0  0  0
   -6.2264   -4.6181    0.0000 O   0  0  0  0  0  0  0  0  0  0  0  0
   -7.5268   -5.3657    0.0000 C   0  0  0  0  0  0  0  0  0  0  0  0
   -8.8245   -4.6133    0.0000 H   0  0  0  0  0  0  0  0  0  0  0  0
   -8.4931   -6.5130    0.0000 H   0  0  0  0  0  0  0  0  0  0  0  0
   -6.5648   -6.5165    0.0000 H   0  0  0  0  0  0  0  0  0  0  0  0
    2.9426   -4.5362    0.0000 O   0  0  0  0  0  0  0  0  0  0  0  0
  1  2  1  0  0  0  0 
  1  3  1  0  0  0  0 
  1  4  1  0  0  0  0 
  1  5  1  0  0  0  0 
  5  6  1  0  0  0  0 
  5  7  1  0  0  0  0 
  5  8  1  0  0  0  0 
  8  9  1  0  0  0  0 
  9 10  1  0  0  0  0 
  9 11  1  0  0  0  0 
  9 12  1  0  0  0  0 
 12 13  1  0  0  0  0 
 12 14  1  0  0  0  0 
 12 15  1  0  0  0  0 
  8 16  1  0  0  0  0 
 16 17  1  0  0  0  0 
 16 18  1  0  0  0  0 
 16 19  1  0  0  0  0 
 19 20  1  0  0  0  0 
 19 21  1  0  0  0  0 
 19 22  1  0  0  0  0 
 22 23  1  0  0  0  0 
 22 24  1  0  0  0  0 
 24 25  2  0  0  0  0 
 24 26  1  0  0  0  0 
 26 27  2  0  0  0  0 
 27 28  1  0  0  0  0 
 28 29  1  0  0  0  0 
 28 30  2  0  0  0  0 
 30 31  1  0  0  0  0 
 31 32  2  0  0  0  0 
 26 32  1  0  0  0  0 
 32 33  1  0  0  0  0 
 31 34  1  0  0  0  0 
 30 35  1  0  0  0  0 
 35 36  1  0  0  0  0 
 35 37  1  0  0  0  0 
 27 38  1  0  0  0  0 
 38 39  1  0  0  0  0 
 39 40  1  0  0  0  0 
 39 41  1  0  0  0  0 
 39 42  1  0  0  0  0 
  8 43  1  0  0  0  0 
M  CHG  1   8   1
M  CHG  1  43  -1
M  END
> <Rank>
2

> <Priority_score>
0.8075576360444704

> <Reaction_type>
N-oxidation_(tertiary_N)

> <Parent_ID>
22

> <Parent_InChI>
InChI=1S/C14H22ClN3O2/c1-4-18(5-2)7-6-17-14(19)10-8-11(15)12(16)9-13(10)20-3/h8-9H,4-7,16H2,1-3H3,(H,17,19)

> <Parent_SMILES>
CCN(CC)CCNC(=O)c1cc(Cl)c(N)cc1OC

$$$$
Molecule 22_metabolite 6
  CDK     0516241031

  7  6  0  0  0  0  0  0  0  0999 V2000
    2.7500   -0.4868    0.0000 C   0  0  0  0  0  0  0  0  0  0  0  0
    2.7500   -1.9868    0.0000 H   0  0  0  0  0  0  0  0  0  0  0  0
    4.2272   -0.7473    0.0000 H   0  0  0  0  0  0  0  0  0  0  0  0
    3.2631    0.9227    0.0000 H   0  0  0  0  0  0  0  0  0  0  0  0
    1.4510    0.2632    0.0000 C   0  0  0  0  0  0  0  0  0  0  0  0
    1.4510    1.7632    0.0000 H   0  0  0  0  0  0  0  0  0  0  0  0
    0.1520   -0.4868    0.0000 O   0  0  0  0  0  0  0  0  0  0  0  0
  1  2  1  0  0  0  0 
  1  3  1  0  0  0  0 
  1  4  1  0  0  0  0 
  1  5  1  0  0  0  0 
  5  6  1  0  0  0  0 
  5  7  2  0  0  0  0 
M  END
> <Rank>
2

> <Priority_score>
0.8075576360444704

> <Reaction_type>
N-dealkylation

> <Parent_ID>
22

> <Parent_InChI>
InChI=1S/C14H22ClN3O2/c1-4-18(5-2)7-6-17-14(19)10-8-11(15)12(16)9-13(10)20-3/h8-9H,4-7,16H2,1-3H3,(H,17,19)

> <Parent_SMILES>
CCN(CC)CCNC(=O)c1cc(Cl)c(N)cc1OC

$$$$
Molecule 22_metabolite 7
  CDK     0516241031

 62 63  0  0  0  0  0  0  0  0999 V2000
   20.3257   -3.7262    0.0000 C   0  0  0  0  0  0  0  0  0  0  0  0
   21.8024   -3.9894    0.0000 H   0  0  0  0  0  0  0  0  0  0  0  0
   20.8414   -2.3176    0.0000 H   0  0  0  0  0  0  0  0  0  0  0  0
   19.0281   -2.9738    0.0000 H   0  0  0  0  0  0  0  0  0  0  0  0
   19.3594   -4.8734    0.0000 C   0  0  0  0  0  0  0  0  0  0  0  0
   18.8437   -6.2820    0.0000 H   0  0  0  0  0  0  0  0  0  0  0  0
   20.6570   -5.6259    0.0000 H   0  0  0  0  0  0  0  0  0  0  0  0
   17.4101   -4.5260    0.0000 N   0  0  0  0  0  0  0  0  0  0  0  0
   16.8997   -3.1155    0.0000 C   0  0  0  0  0  0  0  0  0  0  0  0
   15.9377   -1.9646    0.0000 H   0  0  0  0  0  0  0  0  0  0  0  0
   15.5993   -3.8630    0.0000 H   0  0  0  0  0  0  0  0  0  0  0  0
   17.8660   -1.9682    0.0000 C   0  0  0  0  0  0  0  0  0  0  0  0
   19.3428   -2.2315    0.0000 H   0  0  0  0  0  0  0  0  0  0  0  0
   18.3817   -0.5596    0.0000 H   0  0  0  0  0  0  0  0  0  0  0  0
   16.5684   -1.2158    0.0000 H   0  0  0  0  0  0  0  0  0  0  0  0
   16.4438   -5.6732    0.0000 C   0  0  0  0  0  0  0  0  0  0  0  0
   15.9281   -7.0818    0.0000 H   0  0  0  0  0  0  0  0  0  0  0  0
   17.7414   -6.4257    0.0000 H   0  0  0  0  0  0  0  0  0  0  0  0
   14.9670   -5.4100    0.0000 C   0  0  0  0  0  0  0  0  0  0  0  0
   14.9642   -6.9100    0.0000 H   0  0  0  0  0  0  0  0  0  0  0  0
   13.4893   -5.6677    0.0000 H   0  0  0  0  0  0  0  0  0  0  0  0
   14.4566   -3.9995    0.0000 N   0  0  0  0  0  0  0  0  0  0  0  0
   15.4230   -2.8522    0.0000 H   0  0  0  0  0  0  0  0  0  0  0  0
   12.9799   -3.7362    0.0000 C   0  0  0  0  0  0  0  0  0  0  0  0
   12.0136   -4.8835    0.0000 O   0  0  0  0  0  0  0  0  0  0  0  0
   12.4695   -2.3257    0.0000 C   0  0  0  0  0  0  0  0  0  0  0  0
   13.4240   -1.1816    0.0000 C   0  0  0  0  0  0  0  0  0  0  0  0
   12.9233    0.2241    0.0000 C   0  0  0  0  0  0  0  0  0  0  0  0
   13.8971    1.3650    0.0000 H   0  0  0  0  0  0  0  0  0  0  0  0
   11.4528    0.4985    0.0000 C   0  0  0  0  0  0  0  0  0  0  0  0
   10.4984   -0.6457    0.0000 C   0  0  0  0  0  0  0  0  0  0  0  0
   11.0067   -2.0578    0.0000 C   0  0  0  0  0  0  0  0  0  0  0  0
   10.0367   -3.2020    0.0000 H   0  0  0  0  0  0  0  0  0  0  0  0
    9.0212   -0.3847    0.0000 Cl  0  0  0  0  0  0  0  0  0  0  0  0
   10.9448    1.9099    0.0000 N   0  0  0  0  0  0  0  0  0  0  0  0
   11.9131    3.0555    0.0000 H   0  0  0  0  0  0  0  0  0  0  0  0
    9.4685    2.1756    0.0000 C   0  0  0  0  0  0  0  0  0  0  0  0
    9.4631    0.6756    0.0000 H   0  0  0  0  0  0  0  0  0  0  0  0
    7.9903    1.9206    0.0000 C   0  0  0  0  0  0  0  0  0  0  0  0
    8.4979    0.5091    0.0000 H   0  0  0  0  0  0  0  0  0  0  0  0
    7.0303    3.0743    0.0000 C   0  0  0  0  0  0  0  0  0  0  0  0
    6.0617    1.9289    0.0000 H   0  0  0  0  0  0  0  0  0  0  0  0
    7.5485    4.4828    0.0000 C   0  0  0  0  0  0  0  0  0  0  0  0
    6.0722    4.7485    0.0000 H   0  0  0  0  0  0  0  0  0  0  0  0
    9.0267    4.7377    0.0000 C   0  0  0  0  0  0  0  0  0  0  0  0
    8.5191    6.1492    0.0000 H   0  0  0  0  0  0  0  0  0  0  0  0
   10.3287    5.4826    0.0000 C   0  0  0  0  0  0  0  0  0  0  0  0
   11.6247    4.7274    0.0000 O   0  0  0  0  0  0  0  0  0  0  0  0
   10.3346    6.9826    0.0000 O   0  0  0  0  0  0  0  0  0  0  0  0
    9.0386    7.7377    0.0000 H   0  0  0  0  0  0  0  0  0  0  0  0
    9.9867    3.5841    0.0000 O   0  0  0  0  0  0  0  0  0  0  0  0
    7.5539    5.9828    0.0000 O   0  0  0  0  0  0  0  0  0  0  0  0
    6.2577    6.7375    0.0000 H   0  0  0  0  0  0  0  0  0  0  0  0
    5.7340    3.8290    0.0000 O   0  0  0  0  0  0  0  0  0  0  0  0
    4.4323    3.0837    0.0000 H   0  0  0  0  0  0  0  0  0  0  0  0
    6.6883    1.1758    0.0000 O   0  0  0  0  0  0  0  0  0  0  0  0
    6.6824   -0.3242    0.0000 H   0  0  0  0  0  0  0  0  0  0  0  0
   14.9007   -1.4450    0.0000 O   0  0  0  0  0  0  0  0  0  0  0  0
   15.8672   -0.2978    0.0000 C   0  0  0  0  0  0  0  0  0  0  0  0
   17.3439   -0.5613    0.0000 H   0  0  0  0  0  0  0  0  0  0  0  0
   14.5697    0.4548    0.0000 H   0  0  0  0  0  0  0  0  0  0  0  0
   16.3830    1.1107    0.0000 H   0  0  0  0  0  0  0  0  0  0  0  0
  1  2  1  0  0  0  0 
  1  3  1  0  0  0  0 
  1  4  1  0  0  0  0 
  1  5  1  0  0  0  0 
  5  6  1  0  0  0  0 
  5  7  1  0  0  0  0 
  5  8  1  0  0  0  0 
  8  9  1  0  0  0  0 
  9 10  1  0  0  0  0 
  9 11  1  0  0  0  0 
  9 12  1  0  0  0  0 
 12 13  1  0  0  0  0 
 12 14  1  0  0  0  0 
 12 15  1  0  0  0  0 
  8 16  1  0  0  0  0 
 16 17  1  0  0  0  0 
 16 18  1  0  0  0  0 
 16 19  1  0  0  0  0 
 19 20  1  0  0  0  0 
 19 21  1  0  0  0  0 
 19 22  1  0  0  0  0 
 22 23  1  0  0  0  0 
 22 24  1  0  0  0  0 
 24 25  2  0  0  0  0 
 24 26  1  0  0  0  0 
 26 27  2  0  0  0  0 
 27 28  1  0  0  0  0 
 28 29  1  0  0  0  0 
 28 30  2  0  0  0  0 
 30 31  1  0  0  0  0 
 31 32  2  0  0  0  0 
 26 32  1  0  0  0  0 
 32 33  1  0  0  0  0 
 31 34  1  0  0  0  0 
 30 35  1  0  0  0  0 
 35 36  1  0  0  0  0 
 35 37  1  0  0  0  0 
 37 38  1  0  0  0  0 
 37 39  1  0  0  0  0 
 39 40  1  0  0  0  0 
 39 41  1  0  0  0  0 
 41 42  1  0  0  0  0 
 41 43  1  0  0  0  0 
 43 44  1  0  0  0  0 
 43 45  1  0  0  0  0 
 45 46  1  0  0  0  0 
 45 47  1  0  0  0  0 
 47 48  2  0  0  0  0 
 47 49  1  0  0  0  0 
 49 50  1  0  0  0  0 
 45 51  1  0  0  0  0 
 37 51  1  0  0  0  0 
 43 52  1  0  0  0  0 
 52 53  1  0  0  0  0 
 41 54  1  0  0  0  0 
 54 55  1  0  0  0  0 
 39 56  1  0  0  0  0 
 56 57  1  0  0  0  0 
 27 58  1  0  0  0  0 
 58 59  1  0  0  0  0 
 59 60  1  0  0  0  0 
 59 61  1  0  0  0  0 
 59 62  1  0  0  0  0 
M  END
> <Rank>
7

> <Priority_score>
0.804

> <Reaction_type>
N-glucuronidation_(aniline)

> <Parent_ID>
22

> <Parent_InChI>
InChI=1S/C14H22ClN3O2/c1-4-18(5-2)7-6-17-14(19)10-8-11(15)12(16)9-13(10)20-3/h8-9H,4-7,16H2,1-3H3,(H,17,19)

> <Parent_SMILES>
CCN(CC)CCNC(=O)c1cc(Cl)c(N)cc1OC

$$$$
Molecule 22_metabolite 8
  CDK     0516241031

 46 46  0  0  0  0  0  0  0  0999 V2000
    5.5358   -3.0972    0.0000 C   0  0  0  0  0  0  0  0  0  0  0  0
    5.5329   -4.5972    0.0000 H   0  0  0  0  0  0  0  0  0  0  0  0
    6.0516   -1.6886    0.0000 H   0  0  0  0  0  0  0  0  0  0  0  0
    7.0125   -3.3605    0.0000 H   0  0  0  0  0  0  0  0  0  0  0  0
    4.2382   -2.3446    0.0000 C   0  0  0  0  0  0  0  0  0  0  0  0
    5.2047   -1.1974    0.0000 H   0  0  0  0  0  0  0  0  0  0  0  0
    3.2763   -1.1937    0.0000 H   0  0  0  0  0  0  0  0  0  0  0  0
    2.9377   -3.0921    0.0000 N   0  0  0  0  0  0  0  0  0  0  0  0
    2.9348   -4.5921    0.0000 C   0  0  0  0  0  0  0  0  0  0  0  0
    4.4125   -4.3345    0.0000 H   0  0  0  0  0  0  0  0  0  0  0  0
    3.4451   -6.0026    0.0000 H   0  0  0  0  0  0  0  0  0  0  0  0
    1.6343   -5.3395    0.0000 C   0  0  0  0  0  0  0  0  0  0  0  0
    0.3367   -4.5870    0.0000 H   0  0  0  0  0  0  0  0  0  0  0  0
    0.6678   -6.4867    0.0000 H   0  0  0  0  0  0  0  0  0  0  0  0
    2.5962   -6.4905    0.0000 H   0  0  0  0  0  0  0  0  0  0  0  0
    1.2250   -2.0987    0.0000 C   0  0  0  0  0  0  0  0  0  0  0  0
    2.1914   -0.9515    0.0000 H   0  0  0  0  0  0  0  0  0  0  0  0
    0.2630   -0.9477    0.0000 H   0  0  0  0  0  0  0  0  0  0  0  0
   -0.0756   -2.8461    0.0000 C   0  0  0  0  0  0  0  0  0  0  0  0
   -1.0420   -3.9933    0.0000 H   0  0  0  0  0  0  0  0  0  0  0  0
    0.8864   -3.9971    0.0000 H   0  0  0  0  0  0  0  0  0  0  0  0
   -1.3731   -2.0936    0.0000 N   0  0  0  0  0  0  0  0  0  0  0  0
   -1.3702   -0.5936    0.0000 H   0  0  0  0  0  0  0  0  0  0  0  0
   -2.6736   -2.8410    0.0000 C   0  0  0  0  0  0  0  0  0  0  0  0
   -2.6766   -4.3410    0.0000 O   0  0  0  0  0  0  0  0  0  0  0  0
   -3.9712   -2.0885    0.0000 C   0  0  0  0  0  0  0  0  0  0  0  0
   -5.2666   -2.8248    0.0000 C   0  0  0  0  0  0  0  0  0  0  0  0
   -6.5611   -2.0827    0.0000 C   0  0  0  0  0  0  0  0  0  0  0  0
   -7.8567   -2.8386    0.0000 H   0  0  0  0  0  0  0  0  0  0  0  0
   -6.5702   -0.5868    0.0000 C   0  0  0  0  0  0  0  0  0  0  0  0
   -5.2748    0.1495    0.0000 C   0  0  0  0  0  0  0  0  0  0  0  0
   -3.9753   -0.6013    0.0000 C   0  0  0  0  0  0  0  0  0  0  0  0
   -2.6772    0.1503    0.0000 H   0  0  0  0  0  0  0  0  0  0  0  0
   -5.2696    1.6495    0.0000 Cl  0  0  0  0  0  0  0  0  0  0  0  0
   -7.8690    0.1636    0.0000 N   0  0  0  0  0  0  0  0  0  0  0  0
   -7.8686    1.6636    0.0000 H   0  0  0  0  0  0  0  0  0  0  0  0
   -9.1683   -0.5860    0.0000 S   0  0  0  0  0  0  0  0  0  0  0  0
  -10.1328   -1.7348    0.0000 O   0  0  0  0  0  0  0  0  0  0  0  0
   -8.2045   -1.7354    0.0000 O   0  0  0  0  0  0  0  0  0  0  0  0
  -10.4671    0.1643    0.0000 O   0  0  0  0  0  0  0  0  0  0  0  0
  -11.7664   -0.5853    0.0000 H   0  0  0  0  0  0  0  0  0  0  0  0
   -5.2693   -4.3248    0.0000 O   0  0  0  0  0  0  0  0  0  0  0  0
   -6.5697   -5.0724    0.0000 C   0  0  0  0  0  0  0  0  0  0  0  0
   -7.8674   -4.3200    0.0000 H   0  0  0  0  0  0  0  0  0  0  0  0
   -7.5360   -6.2197    0.0000 H   0  0  0  0  0  0  0  0  0  0  0  0
   -5.6077   -6.2233    0.0000 H   0  0  0  0  0  0  0  0  0  0  0  0
  1  2  1  0  0  0  0 
  1  3  1  0  0  0  0 
  1  4  1  0  0  0  0 
  1  5  1  0  0  0  0 
  5  6  1  0  0  0  0 
  5  7  1  0  0  0  0 
  5  8  1  0  0  0  0 
  8  9  1  0  0  0  0 
  9 10  1  0  0  0  0 
  9 11  1  0  0  0  0 
  9 12  1  0  0  0  0 
 12 13  1  0  0  0  0 
 12 14  1  0  0  0  0 
 12 15  1  0  0  0  0 
  8 16  1  0  0  0  0 
 16 17  1  0  0  0  0 
 16 18  1  0  0  0  0 
 16 19  1  0  0  0  0 
 19 20  1  0  0  0  0 
 19 21  1  0  0  0  0 
 19 22  1  0  0  0  0 
 22 23  1  0  0  0  0 
 22 24  1  0  0  0  0 
 24 25  2  0  0  0  0 
 24 26  1  0  0  0  0 
 26 27  2  0  0  0  0 
 27 28  1  0  0  0  0 
 28 29  1  0  0  0  0 
 28 30  2  0  0  0  0 
 30 31  1  0  0  0  0 
 31 32  2  0  0  0  0 
 26 32  1  0  0  0  0 
 32 33  1  0  0  0  0 
 31 34  1  0  0  0  0 
 30 35  1  0  0  0  0 
 35 36  1  0  0  0  0 
 35 37  1  0  0  0  0 
 37 38  2  0  0  0  0 
 37 39  2  0  0  0  0 
 37 40  1  0  0  0  0 
 40 41  1  0  0  0  0 
 27 42  1  0  0  0  0 
 42 43  1  0  0  0  0 
 43 44  1  0  0  0  0 
 43 45  1  0  0  0  0 
 43 46  1  0  0  0  0 
M  END
> <Rank>
8

> <Priority_score>
0.724

> <Reaction_type>
sulfation_(aniline)

> <Parent_ID>
22

> <Parent_InChI>
InChI=1S/C14H22ClN3O2/c1-4-18(5-2)7-6-17-14(19)10-8-11(15)12(16)9-13(10)20-3/h8-9H,4-7,16H2,1-3H3,(H,17,19)

> <Parent_SMILES>
CCN(CC)CCNC(=O)c1cc(Cl)c(N)cc1OC

$$$$
Molecule 22_metabolite 9
  CDK     0516241031

 43 43  0  0  0  0  0  0  0  0999 V2000
    5.1690   -3.7317    0.0000 C   0  0  0  0  0  0  0  0  0  0  0  0
    5.1660   -5.2317    0.0000 H   0  0  0  0  0  0  0  0  0  0  0  0
    5.6848   -2.3232    0.0000 H   0  0  0  0  0  0  0  0  0  0  0  0
    6.6457   -3.9951    0.0000 H   0  0  0  0  0  0  0  0  0  0  0  0
    3.8714   -2.9792    0.0000 C   0  0  0  0  0  0  0  0  0  0  0  0
    4.8379   -1.8320    0.0000 H   0  0  0  0  0  0  0  0  0  0  0  0
    2.9095   -1.8282    0.0000 H   0  0  0  0  0  0  0  0  0  0  0  0
    2.5709   -3.7266    0.0000 N   0  0  0  0  0  0  0  0  0  0  0  0
    2.5680   -5.2266    0.0000 C   0  0  0  0  0  0  0  0  0  0  0  0
    4.0457   -4.9691    0.0000 H   0  0  0  0  0  0  0  0  0  0  0  0
    3.0782   -6.6372    0.0000 H   0  0  0  0  0  0  0  0  0  0  0  0
    1.2675   -5.9741    0.0000 C   0  0  0  0  0  0  0  0  0  0  0  0
   -0.0301   -5.2215    0.0000 H   0  0  0  0  0  0  0  0  0  0  0  0
    0.3010   -7.1212    0.0000 H   0  0  0  0  0  0  0  0  0  0  0  0
    2.2294   -7.1250    0.0000 H   0  0  0  0  0  0  0  0  0  0  0  0
    0.8581   -2.7333    0.0000 C   0  0  0  0  0  0  0  0  0  0  0  0
    1.8246   -1.5861    0.0000 H   0  0  0  0  0  0  0  0  0  0  0  0
   -0.1038   -1.5823    0.0000 H   0  0  0  0  0  0  0  0  0  0  0  0
   -0.4424   -3.4807    0.0000 C   0  0  0  0  0  0  0  0  0  0  0  0
   -1.4088   -4.6279    0.0000 H   0  0  0  0  0  0  0  0  0  0  0  0
    0.5195   -4.6317    0.0000 H   0  0  0  0  0  0  0  0  0  0  0  0
   -1.7399   -2.7282    0.0000 N   0  0  0  0  0  0  0  0  0  0  0  0
   -1.7370   -1.2282    0.0000 H   0  0  0  0  0  0  0  0  0  0  0  0
   -3.0404   -3.4756    0.0000 C   0  0  0  0  0  0  0  0  0  0  0  0
   -3.0434   -4.9756    0.0000 O   0  0  0  0  0  0  0  0  0  0  0  0
   -4.3380   -2.7231    0.0000 C   0  0  0  0  0  0  0  0  0  0  0  0
   -5.6334   -3.4594    0.0000 C   0  0  0  0  0  0  0  0  0  0  0  0
   -6.9279   -2.7172    0.0000 C   0  0  0  0  0  0  0  0  0  0  0  0
   -8.2235   -3.4732    0.0000 H   0  0  0  0  0  0  0  0  0  0  0  0
   -6.9370   -1.2214    0.0000 C   0  0  0  0  0  0  0  0  0  0  0  0
   -5.6417   -0.4851    0.0000 C   0  0  0  0  0  0  0  0  0  0  0  0
   -4.3421   -1.2359    0.0000 C   0  0  0  0  0  0  0  0  0  0  0  0
   -3.0440   -0.4843    0.0000 H   0  0  0  0  0  0  0  0  0  0  0  0
   -5.6364    1.0149    0.0000 Cl  0  0  0  0  0  0  0  0  0  0  0  0
   -8.2359   -0.4710    0.0000 N   0  0  0  0  0  0  0  0  0  0  0  0
   -8.2354    1.0290    0.0000 H   0  0  0  0  0  0  0  0  0  0  0  0
   -9.5351   -1.2206    0.0000 O   0  0  0  0  0  0  0  0  0  0  0  0
  -10.8339   -0.4702    0.0000 H   0  0  0  0  0  0  0  0  0  0  0  0
   -5.6361   -4.9594    0.0000 O   0  0  0  0  0  0  0  0  0  0  0  0
   -6.9366   -5.7070    0.0000 C   0  0  0  0  0  0  0  0  0  0  0  0
   -8.2342   -4.9546    0.0000 H   0  0  0  0  0  0  0  0  0  0  0  0
   -7.9029   -6.8543    0.0000 H   0  0  0  0  0  0  0  0  0  0  0  0
   -5.9745   -6.8578    0.0000 H   0  0  0  0  0  0  0  0  0  0  0  0
  1  2  1  0  0  0  0 
  1  3  1  0  0  0  0 
  1  4  1  0  0  0  0 
  1  5  1  0  0  0  0 
  5  6  1  0  0  0  0 
  5  7  1  0  0  0  0 
  5  8  1  0  0  0  0 
  8  9  1  0  0  0  0 
  9 10  1  0  0  0  0 
  9 11  1  0  0  0  0 
  9 12  1  0  0  0  0 
 12 13  1  0  0  0  0 
 12 14  1  0  0  0  0 
 12 15  1  0  0  0  0 
  8 16  1  0  0  0  0 
 16 17  1  0  0  0  0 
 16 18  1  0  0  0  0 
 16 19  1  0  0  0  0 
 19 20  1  0  0  0  0 
 19 21  1  0  0  0  0 
 19 22  1  0  0  0  0 
 22 23  1  0  0  0  0 
 22 24  1  0  0  0  0 
 24 25  2  0  0  0  0 
 24 26  1  0  0  0  0 
 26 27  2  0  0  0  0 
 27 28  1  0  0  0  0 
 28 29  1  0  0  0  0 
 28 30  2  0  0  0  0 
 30 31  1  0  0  0  0 
 31 32  2  0  0  0  0 
 26 32  1  0  0  0  0 
 32 33  1  0  0  0  0 
 31 34  1  0  0  0  0 
 30 35  1  0  0  0  0 
 35 36  1  0  0  0  0 
 35 37  1  0  0  0  0 
 37 38  1  0  0  0  0 
 27 39  1  0  0  0  0 
 39 40  1  0  0  0  0 
 40 41  1  0  0  0  0 
 40 42  1  0  0  0  0 
 40 43  1  0  0  0  0 
M  END
> <Rank>
9

> <Priority_score>
0.656

> <Reaction_type>
N-oxidation_(aniline)

> <Parent_ID>
22

> <Parent_InChI>
InChI=1S/C14H22ClN3O2/c1-4-18(5-2)7-6-17-14(19)10-8-11(15)12(16)9-13(10)20-3/h8-9H,4-7,16H2,1-3H3,(H,17,19)

> <Parent_SMILES>
CCN(CC)CCNC(=O)c1cc(Cl)c(N)cc1OC

$$$$
Molecule 22_metabolite 10
  CDK     0516241031

 43 43  0  0  0  0  0  0  0  0999 V2000
  -10.8088    1.7415    0.0000 C   0  0  0  0  0  0  0  0  0  0  0  0
  -10.8086    3.2415    0.0000 H   0  0  0  0  0  0  0  0  0  0  0  0
  -11.3221    0.3321    0.0000 H   0  0  0  0  0  0  0  0  0  0  0  0
  -12.2860    2.0022    0.0000 H   0  0  0  0  0  0  0  0  0  0  0  0
   -9.5099    0.9913    0.0000 C   0  0  0  0  0  0  0  0  0  0  0  0
  -10.4742   -0.1576    0.0000 H   0  0  0  0  0  0  0  0  0  0  0  0
   -8.5459   -0.1579    0.0000 H   0  0  0  0  0  0  0  0  0  0  0  0
   -8.2107    1.7411    0.0000 N   0  0  0  0  0  0  0  0  0  0  0  0
   -8.2105    3.2411    0.0000 C   0  0  0  0  0  0  0  0  0  0  0  0
   -9.6877    2.9809    0.0000 H   0  0  0  0  0  0  0  0  0  0  0  0
   -8.7233    4.6507    0.0000 H   0  0  0  0  0  0  0  0  0  0  0  0
   -6.9113    3.9909    0.0000 C   0  0  0  0  0  0  0  0  0  0  0  0
   -5.6124    3.2407    0.0000 H   0  0  0  0  0  0  0  0  0  0  0  0
   -5.9470    5.1398    0.0000 H   0  0  0  0  0  0  0  0  0  0  0  0
   -7.8753    5.1401    0.0000 H   0  0  0  0  0  0  0  0  0  0  0  0
   -6.4962    0.7508    0.0000 C   0  0  0  0  0  0  0  0  0  0  0  0
   -7.4605   -0.3981    0.0000 H   0  0  0  0  0  0  0  0  0  0  0  0
   -5.5322   -0.3984    0.0000 H   0  0  0  0  0  0  0  0  0  0  0  0
   -5.1970    1.5006    0.0000 C   0  0  0  0  0  0  0  0  0  0  0  0
   -4.2326    2.6495    0.0000 H   0  0  0  0  0  0  0  0  0  0  0  0
   -6.1610    2.6498    0.0000 H   0  0  0  0  0  0  0  0  0  0  0  0
   -3.8981    0.7504    0.0000 N   0  0  0  0  0  0  0  0  0  0  0  0
   -3.8983   -0.7496    0.0000 H   0  0  0  0  0  0  0  0  0  0  0  0
   -2.5989    1.5002    0.0000 C   0  0  0  0  0  0  0  0  0  0  0  0
   -2.5987    3.0002    0.0000 O   0  0  0  0  0  0  0  0  0  0  0  0
   -1.3000    0.7500    0.0000 C   0  0  0  0  0  0  0  0  0  0  0  0
    0.0000    1.5000    0.0000 C   0  0  0  0  0  0  0  0  0  0  0  0
    1.3000    0.7500    0.0000 C   0  0  0  0  0  0  0  0  0  0  0  0
    1.3000   -0.7500    0.0000 C   0  0  0  0  0  0  0  0  0  0  0  0
    0.0000   -1.5000    0.0000 C   0  0  0  0  0  0  0  0  0  0  0  0
   -1.3000   -0.7500    0.0000 C   0  0  0  0  0  0  0  0  0  0  0  0
   -2.5989   -1.5002    0.0000 H   0  0  0  0  0  0  0  0  0  0  0  0
   -0.0000   -3.0000    0.0000 Cl  0  0  0  0  0  0  0  0  0  0  0  0
    2.5989   -1.5002    0.0000 N   0  0  0  0  0  0  0  0  0  0  0  0
    3.8981   -0.7504    0.0000 H   0  0  0  0  0  0  0  0  0  0  0  0
    2.5987   -3.0002    0.0000 H   0  0  0  0  0  0  0  0  0  0  0  0
    2.5989    1.5002    0.0000 O   0  0  0  0  0  0  0  0  0  0  0  0
    3.8981    0.7504    0.0000 H   0  0  0  0  0  0  0  0  0  0  0  0
    0.0000    3.0000    0.0000 O   0  0  0  0  0  0  0  0  0  0  0  0
    1.2990    3.7500    0.0000 C   0  0  0  0  0  0  0  0  0  0  0  0
    2.5981    3.0000    0.0000 H   0  0  0  0  0  0  0  0  0  0  0  0
    2.2632    4.8991    0.0000 H   0  0  0  0  0  0  0  0  0  0  0  0
    0.3349    4.8991    0.0000 H   0  0  0  0  0  0  0  0  0  0  0  0
  1  2  1  0  0  0  0 
  1  3  1  0  0  0  0 
  1  4  1  0  0  0  0 
  1  5  1  0  0  0  0 
  5  6  1  0  0  0  0 
  5  7  1  0  0  0  0 
  5  8  1  0  0  0  0 
  8  9  1  0  0  0  0 
  9 10  1  0  0  0  0 
  9 11  1  0  0  0  0 
  9 12  1  0  0  0  0 
 12 13  1  0  0  0  0 
 12 14  1  0  0  0  0 
 12 15  1  0  0  0  0 
  8 16  1  0  0  0  0 
 16 17  1  0  0  0  0 
 16 18  1  0  0  0  0 
 16 19  1  0  0  0  0 
 19 20  1  0  0  0  0 
 19 21  1  0  0  0  0 
 19 22  1  0  0  0  0 
 22 23  1  0  0  0  0 
 22 24  1  0  0  0  0 
 24 25  2  0  0  0  0 
 24 26  1  0  0  0  0 
 26 27  2  0  0  0  0 
 27 28  1  0  0  0  0 
 28 29  2  0  0  0  0 
 29 30  1  0  0  0  0 
 30 31  2  0  0  0  0 
 26 31  1  0  0  0  0 
 31 32  1  0  0  0  0 
 30 33  1  0  0  0  0 
 29 34  1  0  0  0  0 
 34 35  1  0  0  0  0 
 34 36  1  0  0  0  0 
 28 37  1  0  0  0  0 
 37 38  1  0  0  0  0 
 27 39  1  0  0  0  0 
 39 40  1  0  0  0  0 
 40 41  1  0  0  0  0 
 40 42  1  0  0  0  0 
 40 43  1  0  0  0  0 
M  END
> <Rank>
9

> <Priority_score>
0.656

> <Reaction_type>
aromatic_hydroxylation_(ortho_to_2_substituents)

> <Parent_ID>
22

> <Parent_InChI>
InChI=1S/C14H22ClN3O2/c1-4-18(5-2)7-6-17-14(19)10-8-11(15)12(16)9-13(10)20-3/h8-9H,4-7,16H2,1-3H3,(H,17,19)

> <Parent_SMILES>
CCN(CC)CCNC(=O)c1cc(Cl)c(N)cc1OC

$$$$
Molecule 22_metabolite 11
  CDK     0516241031

 22 22  0  0  0  0  0  0  0  0999 V2000
   -3.8881    0.7448    0.0000 C   0  0  0  0  0  0  0  0  0  0  0  0
   -5.1857    1.4972    0.0000 H   0  0  0  0  0  0  0  0  0  0  0  0
   -4.8544   -0.4025    0.0000 H   0  0  0  0  0  0  0  0  0  0  0  0
   -2.9260   -0.4061    0.0000 H   0  0  0  0  0  0  0  0  0  0  0  0
   -2.5877    1.4924    0.0000 O   0  0  0  0  0  0  0  0  0  0  0  0
   -1.2900    0.7400    0.0000 C   0  0  0  0  0  0  0  0  0  0  0  0
   -1.3000   -0.7500    0.0000 C   0  0  0  0  0  0  0  0  0  0  0  0
   -0.0100   -1.4900    0.0000 C   0  0  0  0  0  0  0  0  0  0  0  0
   -0.0082   -2.9900    0.0000 H   0  0  0  0  0  0  0  0  0  0  0  0
    1.2900   -0.7400    0.0000 C   0  0  0  0  0  0  0  0  0  0  0  0
    1.3000    0.7500    0.0000 C   0  0  0  0  0  0  0  0  0  0  0  0
    0.0000    1.4900    0.0000 C   0  0  0  0  0  0  0  0  0  0  0  0
   -0.0069    2.9900    0.0000 H   0  0  0  0  0  0  0  0  0  0  0  0
    2.5993    1.4996    0.0000 N   0  0  0  0  0  0  0  0  0  0  0  0
    3.8981    0.7492    0.0000 H   0  0  0  0  0  0  0  0  0  0  0  0
    2.5997    2.9996    0.0000 H   0  0  0  0  0  0  0  0  0  0  0  0
    2.5864   -1.4946    0.0000 Cl  0  0  0  0  0  0  0  0  0  0  0  0
   -2.6005   -1.4974    0.0000 C   0  0  0  0  0  0  0  0  0  0  0  0
   -3.8981   -0.7449    0.0000 O   0  0  0  0  0  0  0  0  0  0  0  0
   -2.6035   -2.9974    0.0000 N   0  0  0  0  0  0  0  0  0  0  0  0
   -3.9040   -3.7449    0.0000 H   0  0  0  0  0  0  0  0  0  0  0  0
   -1.3059   -3.7500    0.0000 H   0  0  0  0  0  0  0  0  0  0  0  0
  1  2  1  0  0  0  0 
  1  3  1  0  0  0  0 
  1  4  1  0  0  0  0 
  1  5  1  0  0  0  0 
  5  6  1  0  0  0  0 
  6  7  2  0  0  0  0 
  7  8  1  0  0  0  0 
  8  9  1  0  0  0  0 
  8 10  2  0  0  0  0 
 10 11  1  0  0  0  0 
 11 12  2  0  0  0  0 
  6 12  1  0  0  0  0 
 12 13  1  0  0  0  0 
 11 14  1  0  0  0  0 
 14 15  1  0  0  0  0 
 14 16  1  0  0  0  0 
 10 17  1  0  0  0  0 
  7 18  1  0  0  0  0 
 18 19  2  0  0  0  0 
 18 20  1  0  0  0  0 
 20 21  1  0  0  0  0 
 20 22  1  0  0  0  0 
M  END
> <Rank>
11

> <Priority_score>
0.604

> <Reaction_type>
N-dealkylation_(R-NHCH2-alkyl)

> <Parent_ID>
22

> <Parent_InChI>
InChI=1S/C14H22ClN3O2/c1-4-18(5-2)7-6-17-14(19)10-8-11(15)12(16)9-13(10)20-3/h8-9H,4-7,16H2,1-3H3,(H,17,19)

> <Parent_SMILES>
CCN(CC)CCNC(=O)c1cc(Cl)c(N)cc1OC

$$$$
Molecule 22_metabolite 12
  CDK     0516241031

 16 15  0  0  0  0  0  0  0  0999 V2000
    5.0234    2.0393    0.0000 C   0  0  0  0  0  0  0  0  0  0  0  0
    6.3224    2.7893    0.0000 H   0  0  0  0  0  0  0  0  0  0  0  0
    4.5103    3.4488    0.0000 H   0  0  0  0  0  0  0  0  0  0  0  0
    3.5461    1.7788    0.0000 H   0  0  0  0  0  0  0  0  0  0  0  0
    5.0234    0.5393    0.0000 C   0  0  0  0  0  0  0  0  0  0  0  0
    5.5364   -0.8702    0.0000 H   0  0  0  0  0  0  0  0  0  0  0  0
    6.5006    0.7998    0.0000 H   0  0  0  0  0  0  0  0  0  0  0  0
    3.3086   -0.4507    0.0000 N   0  0  0  0  0  0  0  0  0  0  0  0
    2.0096    0.2993    0.0000 H   0  0  0  0  0  0  0  0  0  0  0  0
    3.3086   -1.9507    0.0000 C   0  0  0  0  0  0  0  0  0  0  0  0
    3.8217   -3.3602    0.0000 H   0  0  0  0  0  0  0  0  0  0  0  0
    4.7858   -1.6902    0.0000 H   0  0  0  0  0  0  0  0  0  0  0  0
    2.0096   -2.7007    0.0000 C   0  0  0  0  0  0  0  0  0  0  0  0
    2.0096   -4.2007    0.0000 H   0  0  0  0  0  0  0  0  0  0  0  0
    1.4966   -1.2912    0.0000 H   0  0  0  0  0  0  0  0  0  0  0  0
    0.5324   -2.9612    0.0000 H   0  0  0  0  0  0  0  0  0  0  0  0
  1  2  1  0  0  0  0 
  1  3  1  0  0  0  0 
  1  4  1  0  0  0  0 
  1  5  1  0  0  0  0 
  5  6  1  0  0  0  0 
  5  7  1  0  0  0  0 
  5  8  1  0  0  0  0 
  8  9  1  0  0  0  0 
  8 10  1  0  0  0  0 
 10 11  1  0  0  0  0 
 10 12  1  0  0  0  0 
 10 13  1  0  0  0  0 
 13 14  1  0  0  0  0 
 13 15  1  0  0  0  0 
 13 16  1  0  0  0  0 
M  END
> <Rank>
11

> <Priority_score>
0.604

> <Reaction_type>
N-dealkylation_(tertiaryN-CH2-alkyl)

> <Parent_ID>
22

> <Parent_InChI>
InChI=1S/C14H22ClN3O2/c1-4-18(5-2)7-6-17-14(19)10-8-11(15)12(16)9-13(10)20-3/h8-9H,4-7,16H2,1-3H3,(H,17,19)

> <Parent_SMILES>
CCN(CC)CCNC(=O)c1cc(Cl)c(N)cc1OC

$$$$
Molecule 22_metabolite 13
  CDK     0516241031

 43 43  0  0  0  0  0  0  0  0999 V2000
    3.6156   -7.2907    0.0000 C   0  0  0  0  0  0  0  0  0  0  0  0
    2.8630   -8.5882    0.0000 H   0  0  0  0  0  0  0  0  0  0  0  0
    4.7665   -6.3288    0.0000 H   0  0  0  0  0  0  0  0  0  0  0  0
    4.7627   -8.2571    0.0000 H   0  0  0  0  0  0  0  0  0  0  0  0
    2.8681   -5.9902    0.0000 C   0  0  0  0  0  0  0  0  0  0  0  0
    4.2787   -5.4799    0.0000 H   0  0  0  0  0  0  0  0  0  0  0  0
    2.6105   -4.5124    0.0000 H   0  0  0  0  0  0  0  0  0  0  0  0
    1.3681   -5.9872    0.0000 N   0  0  0  0  0  0  0  0  0  0  0  0
    0.6156   -7.2848    0.0000 C   0  0  0  0  0  0  0  0  0  0  0  0
    2.0241   -7.8006    0.0000 H   0  0  0  0  0  0  0  0  0  0  0  0
    0.3522   -8.7615    0.0000 H   0  0  0  0  0  0  0  0  0  0  0  0
   -0.8844   -7.2818    0.0000 C   0  0  0  0  0  0  0  0  0  0  0  0
   -1.6319   -5.9813    0.0000 H   0  0  0  0  0  0  0  0  0  0  0  0
   -2.2950   -7.7921    0.0000 H   0  0  0  0  0  0  0  0  0  0  0  0
   -0.6269   -8.7596    0.0000 H   0  0  0  0  0  0  0  0  0  0  0  0
    0.3815   -4.2706    0.0000 C   0  0  0  0  0  0  0  0  0  0  0  0
    1.7920   -3.7603    0.0000 H   0  0  0  0  0  0  0  0  0  0  0  0
   -1.1185   -4.2676    0.0000 C   0  0  0  0  0  0  0  0  0  0  0  0
   -2.5291   -4.7779    0.0000 H   0  0  0  0  0  0  0  0  0  0  0  0
   -0.8609   -5.7453    0.0000 H   0  0  0  0  0  0  0  0  0  0  0  0
   -1.8660   -2.9671    0.0000 N   0  0  0  0  0  0  0  0  0  0  0  0
   -1.1134   -1.6695    0.0000 H   0  0  0  0  0  0  0  0  0  0  0  0
   -3.3660   -2.9642    0.0000 C   0  0  0  0  0  0  0  0  0  0  0  0
   -4.1185   -4.2617    0.0000 O   0  0  0  0  0  0  0  0  0  0  0  0
   -4.1134   -1.6636    0.0000 C   0  0  0  0  0  0  0  0  0  0  0  0
   -5.6034   -1.6536    0.0000 C   0  0  0  0  0  0  0  0  0  0  0  0
   -6.3534   -0.3636    0.0000 C   0  0  0  0  0  0  0  0  0  0  0  0
   -7.8534   -0.3705    0.0000 H   0  0  0  0  0  0  0  0  0  0  0  0
   -5.6134    0.9364    0.0000 C   0  0  0  0  0  0  0  0  0  0  0  0
   -4.1234    0.9264    0.0000 C   0  0  0  0  0  0  0  0  0  0  0  0
   -3.3734   -0.3736    0.0000 C   0  0  0  0  0  0  0  0  0  0  0  0
   -1.8734   -0.3718    0.0000 H   0  0  0  0  0  0  0  0  0  0  0  0
   -3.3688    2.2227    0.0000 Cl  0  0  0  0  0  0  0  0  0  0  0  0
   -6.3630    2.2356    0.0000 N   0  0  0  0  0  0  0  0  0  0  0  0
   -7.8630    2.2361    0.0000 H   0  0  0  0  0  0  0  0  0  0  0  0
   -5.6126    3.5344    0.0000 H   0  0  0  0  0  0  0  0  0  0  0  0
   -6.3558   -2.9513    0.0000 O   0  0  0  0  0  0  0  0  0  0  0  0
   -7.8558   -2.9485    0.0000 C   0  0  0  0  0  0  0  0  0  0  0  0
   -8.6034   -1.6481    0.0000 H   0  0  0  0  0  0  0  0  0  0  0  0
   -9.2663   -3.4590    0.0000 H   0  0  0  0  0  0  0  0  0  0  0  0
   -7.5980   -4.4262    0.0000 H   0  0  0  0  0  0  0  0  0  0  0  0
    0.1239   -2.7928    0.0000 O   0  0  0  0  0  0  0  0  0  0  0  0
    1.2749   -1.8309    0.0000 H   0  0  0  0  0  0  0  0  0  0  0  0
  1  2  1  0  0  0  0 
  1  3  1  0  0  0  0 
  1  4  1  0  0  0  0 
  1  5  1  0  0  0  0 
  5  6  1  0  0  0  0 
  5  7  1  0  0  0  0 
  5  8  1  0  0  0  0 
  8  9  1  0  0  0  0 
  9 10  1  0  0  0  0 
  9 11  1  0  0  0  0 
  9 12  1  0  0  0  0 
 12 13  1  0  0  0  0 
 12 14  1  0  0  0  0 
 12 15  1  0  0  0  0 
  8 16  1  0  0  0  0 
 16 17  1  0  0  0  0 
 16 18  1  0  0  0  0 
 18 19  1  0  0  0  0 
 18 20  1  0  0  0  0 
 18 21  1  0  0  0  0 
 21 22  1  0  0  0  0 
 21 23  1  0  0  0  0 
 23 24  2  0  0  0  0 
 23 25  1  0  0  0  0 
 25 26  2  0  0  0  0 
 26 27  1  0  0  0  0 
 27 28  1  0  0  0  0 
 27 29  2  0  0  0  0 
 29 30  1  0  0  0  0 
 30 31  2  0  0  0  0 
 25 31  1  0  0  0  0 
 31 32  1  0  0  0  0 
 30 33  1  0  0  0  0 
 29 34  1  0  0  0  0 
 34 35  1  0  0  0  0 
 34 36  1  0  0  0  0 
 26 37  1  0  0  0  0 
 37 38  1  0  0  0  0 
 38 39  1  0  0  0  0 
 38 40  1  0  0  0  0 
 38 41  1  0  0  0  0 
 16 42  1  0  0  0  0 
 42 43  1  0  0  0  0 
M  END
> <Rank>
11

> <Priority_score>
0.604

> <Reaction_type>
aliphatic hydroxylation

> <Parent_ID>
22

> <Parent_InChI>
InChI=1S/C14H22ClN3O2/c1-4-18(5-2)7-6-17-14(19)10-8-11(15)12(16)9-13(10)20-3/h8-9H,4-7,16H2,1-3H3,(H,17,19)

> <Parent_SMILES>
CCN(CC)CCNC(=O)c1cc(Cl)c(N)cc1OC

$$$$
Molecule 22_metabolite 14
  CDK     0516241031

 23 22  0  0  0  0  0  0  0  0999 V2000
    6.4952   -2.6009    0.0000 C   0  0  0  0  0  0  0  0  0  0  0  0
    6.4952   -1.1009    0.0000 H   0  0  0  0  0  0  0  0  0  0  0  0
    7.9724   -2.3405    0.0000 H   0  0  0  0  0  0  0  0  0  0  0  0
    7.0082   -4.0105    0.0000 H   0  0  0  0  0  0  0  0  0  0  0  0
    5.1962   -3.3509    0.0000 C   0  0  0  0  0  0  0  0  0  0  0  0
    4.2320   -4.5000    0.0000 H   0  0  0  0  0  0  0  0  0  0  0  0
    6.1603   -4.5000    0.0000 H   0  0  0  0  0  0  0  0  0  0  0  0
    3.8971   -2.6009    0.0000 N   0  0  0  0  0  0  0  0  0  0  0  0
    3.8971   -1.1009    0.0000 C   0  0  0  0  0  0  0  0  0  0  0  0
    5.3743   -1.3614    0.0000 H   0  0  0  0  0  0  0  0  0  0  0  0
    4.4101    0.3086    0.0000 H   0  0  0  0  0  0  0  0  0  0  0  0
    2.5981   -0.3509    0.0000 C   0  0  0  0  0  0  0  0  0  0  0  0
    2.5981    1.1491    0.0000 H   0  0  0  0  0  0  0  0  0  0  0  0
    1.1209   -0.0905    0.0000 H   0  0  0  0  0  0  0  0  0  0  0  0
    2.0850   -1.7605    0.0000 H   0  0  0  0  0  0  0  0  0  0  0  0
    2.1824   -3.5909    0.0000 C   0  0  0  0  0  0  0  0  0  0  0  0
    1.2182   -4.7400    0.0000 H   0  0  0  0  0  0  0  0  0  0  0  0
    3.1466   -4.7400    0.0000 H   0  0  0  0  0  0  0  0  0  0  0  0
    0.8833   -2.8409    0.0000 C   0  0  0  0  0  0  0  0  0  0  0  0
    0.3703   -4.2505    0.0000 H   0  0  0  0  0  0  0  0  0  0  0  0
   -0.5939   -2.5805    0.0000 H   0  0  0  0  0  0  0  0  0  0  0  0
    0.8833   -1.3409    0.0000 O   0  0  0  0  0  0  0  0  0  0  0  0
   -0.4157   -0.5909    0.0000 H   0  0  0  0  0  0  0  0  0  0  0  0
  1  2  1  0  0  0  0 
  1  3  1  0  0  0  0 
  1  4  1  0  0  0  0 
  1  5  1  0  0  0  0 
  5  6  1  0  0  0  0 
  5  7  1  0  0  0  0 
  5  8  1  0  0  0  0 
  8  9  1  0  0  0  0 
  9 10  1  0  0  0  0 
  9 11  1  0  0  0  0 
  9 12  1  0  0  0  0 
 12 13  1  0  0  0  0 
 12 14  1  0  0  0  0 
 12 15  1  0  0  0  0 
  8 16  1  0  0  0  0 
 16 17  1  0  0  0  0 
 16 18  1  0  0  0  0 
 16 19  1  0  0  0  0 
 19 20  1  0  0  0  0 
 19 21  1  0  0  0  0 
 19 22  1  0  0  0  0 
 22 23  1  0  0  0  0 
M  END
> <Rank>
11

> <Priority_score>
0.604

> <Reaction_type>
N-dealkylation_(R-NHCH2-alkyl)

> <Parent_ID>
22

> <Parent_InChI>
InChI=1S/C14H22ClN3O2/c1-4-18(5-2)7-6-17-14(19)10-8-11(15)12(16)9-13(10)20-3/h8-9H,4-7,16H2,1-3H3,(H,17,19)

> <Parent_SMILES>
CCN(CC)CCNC(=O)c1cc(Cl)c(N)cc1OC

$$$$
Molecule 22_metabolite 15
  CDK     0516241031

 29 29  0  0  0  0  0  0  0  0999 V2000
   -1.7591   -6.4667    0.0000 C   0  0  0  0  0  0  0  0  0  0  0  0
   -1.7618   -7.9667    0.0000 H   0  0  0  0  0  0  0  0  0  0  0  0
   -0.2823   -6.7299    0.0000 H   0  0  0  0  0  0  0  0  0  0  0  0
   -1.2435   -5.0581    0.0000 H   0  0  0  0  0  0  0  0  0  0  0  0
   -3.0567   -5.7143    0.0000 O   0  0  0  0  0  0  0  0  0  0  0  0
   -3.0540   -4.2143    0.0000 C   0  0  0  0  0  0  0  0  0  0  0  0
   -1.7586   -3.4780    0.0000 C   0  0  0  0  0  0  0  0  0  0  0  0
   -1.7627   -1.9908    0.0000 C   0  0  0  0  0  0  0  0  0  0  0  0
   -0.4646   -1.2392    0.0000 H   0  0  0  0  0  0  0  0  0  0  0  0
   -3.0623   -1.2400    0.0000 C   0  0  0  0  0  0  0  0  0  0  0  0
   -4.3576   -1.9763    0.0000 C   0  0  0  0  0  0  0  0  0  0  0  0
   -4.3485   -3.4721    0.0000 C   0  0  0  0  0  0  0  0  0  0  0  0
   -5.6441   -4.2281    0.0000 H   0  0  0  0  0  0  0  0  0  0  0  0
   -5.6564   -1.2259    0.0000 N   0  0  0  0  0  0  0  0  0  0  0  0
   -5.6560    0.2741    0.0000 H   0  0  0  0  0  0  0  0  0  0  0  0
   -6.9557   -1.9755    0.0000 H   0  0  0  0  0  0  0  0  0  0  0  0
   -3.0570    0.2600    0.0000 Cl  0  0  0  0  0  0  0  0  0  0  0  0
   -0.4610   -4.2305    0.0000 C   0  0  0  0  0  0  0  0  0  0  0  0
   -0.4640   -5.7305    0.0000 O   0  0  0  0  0  0  0  0  0  0  0  0
    0.8395   -3.4831    0.0000 N   0  0  0  0  0  0  0  0  0  0  0  0
    0.8424   -1.9831    0.0000 H   0  0  0  0  0  0  0  0  0  0  0  0
    2.1370   -4.2356    0.0000 C   0  0  0  0  0  0  0  0  0  0  0  0
    1.1706   -5.3828    0.0000 H   0  0  0  0  0  0  0  0  0  0  0  0
    3.0990   -5.3866    0.0000 H   0  0  0  0  0  0  0  0  0  0  0  0
    3.4376   -3.4882    0.0000 C   0  0  0  0  0  0  0  0  0  0  0  0
    4.4040   -2.3410    0.0000 H   0  0  0  0  0  0  0  0  0  0  0  0
    2.4756   -2.3372    0.0000 H   0  0  0  0  0  0  0  0  0  0  0  0
    4.7351   -4.2407    0.0000 O   0  0  0  0  0  0  0  0  0  0  0  0
    6.0356   -3.4933    0.0000 H   0  0  0  0  0  0  0  0  0  0  0  0
  1  2  1  0  0  0  0 
  1  3  1  0  0  0  0 
  1  4  1  0  0  0  0 
  1  5  1  0  0  0  0 
  5  6  1  0  0  0  0 
  6  7  2  0  0  0  0 
  7  8  1  0  0  0  0 
  8  9  1  0  0  0  0 
  8 10  2  0  0  0  0 
 10 11  1  0  0  0  0 
 11 12  2  0  0  0  0 
  6 12  1  0  0  0  0 
 12 13  1  0  0  0  0 
 11 14  1  0  0  0  0 
 14 15  1  0  0  0  0 
 14 16  1  0  0  0  0 
 10 17  1  0  0  0  0 
  7 18  1  0  0  0  0 
 18 19  2  0  0  0  0 
 18 20  1  0  0  0  0 
 20 21  1  0  0  0  0 
 20 22  1  0  0  0  0 
 22 23  1  0  0  0  0 
 22 24  1  0  0  0  0 
 22 25  1  0  0  0  0 
 25 26  1  0  0  0  0 
 25 27  1  0  0  0  0 
 25 28  1  0  0  0  0 
 28 29  1  0  0  0  0 
M  END
> <Rank>
11

> <Priority_score>
0.604

> <Reaction_type>
N-dealkylation_(tertiaryN-CH2-alkyl)

> <Parent_ID>
22

> <Parent_InChI>
InChI=1S/C14H22ClN3O2/c1-4-18(5-2)7-6-17-14(19)10-8-11(15)12(16)9-13(10)20-3/h8-9H,4-7,16H2,1-3H3,(H,17,19)

> <Parent_SMILES>
CCN(CC)CCNC(=O)c1cc(Cl)c(N)cc1OC

$$$$
Molecule 22_metabolite 16
  CDK     0516241031

 27 27  0  0  0  0  0  0  0  0999 V2000
    2.4045   -3.7426    0.0000 C   0  0  0  0  0  0  0  0  0  0  0  0
    3.7021   -4.4950    0.0000 H   0  0  0  0  0  0  0  0  0  0  0  0
    3.3708   -2.5953    0.0000 H   0  0  0  0  0  0  0  0  0  0  0  0
    1.4424   -2.5918    0.0000 H   0  0  0  0  0  0  0  0  0  0  0  0
    1.1040   -4.4902    0.0000 O   0  0  0  0  0  0  0  0  0  0  0  0
   -0.1936   -3.7378    0.0000 C   0  0  0  0  0  0  0  0  0  0  0  0
   -0.1836   -2.2478    0.0000 C   0  0  0  0  0  0  0  0  0  0  0  0
   -1.4736   -1.5078    0.0000 C   0  0  0  0  0  0  0  0  0  0  0  0
   -1.4755   -0.0078    0.0000 H   0  0  0  0  0  0  0  0  0  0  0  0
   -2.7736   -2.2578    0.0000 C   0  0  0  0  0  0  0  0  0  0  0  0
   -2.7836   -3.7478    0.0000 C   0  0  0  0  0  0  0  0  0  0  0  0
   -1.4836   -4.4878    0.0000 C   0  0  0  0  0  0  0  0  0  0  0  0
   -1.4768   -5.9878    0.0000 H   0  0  0  0  0  0  0  0  0  0  0  0
   -4.0829   -4.4974    0.0000 N   0  0  0  0  0  0  0  0  0  0  0  0
   -5.3817   -3.7470    0.0000 H   0  0  0  0  0  0  0  0  0  0  0  0
   -4.0833   -5.9974    0.0000 H   0  0  0  0  0  0  0  0  0  0  0  0
   -4.0700   -1.5033    0.0000 Cl  0  0  0  0  0  0  0  0  0  0  0  0
    1.1169   -1.5004    0.0000 C   0  0  0  0  0  0  0  0  0  0  0  0
    2.4145   -2.2529    0.0000 O   0  0  0  0  0  0  0  0  0  0  0  0
    1.1198   -0.0004    0.0000 N   0  0  0  0  0  0  0  0  0  0  0  0
   -0.1777    0.7522    0.0000 H   0  0  0  0  0  0  0  0  0  0  0  0
    2.4204    0.7471    0.0000 C   0  0  0  0  0  0  0  0  0  0  0  0
    2.9306   -0.6635    0.0000 H   0  0  0  0  0  0  0  0  0  0  0  0
    3.8981    1.0046    0.0000 H   0  0  0  0  0  0  0  0  0  0  0  0
    2.4233    2.2471    0.0000 C   0  0  0  0  0  0  0  0  0  0  0  0
    3.7238    2.9945    0.0000 H   0  0  0  0  0  0  0  0  0  0  0  0
    1.1257    2.9996    0.0000 O   0  0  0  0  0  0  0  0  0  0  0  0
  1  2  1  0  0  0  0 
  1  3  1  0  0  0  0 
  1  4  1  0  0  0  0 
  1  5  1  0  0  0  0 
  5  6  1  0  0  0  0 
  6  7  2  0  0  0  0 
  7  8  1  0  0  0  0 
  8  9  1  0  0  0  0 
  8 10  2  0  0  0  0 
 10 11  1  0  0  0  0 
 11 12  2  0  0  0  0 
  6 12  1  0  0  0  0 
 12 13  1  0  0  0  0 
 11 14  1  0  0  0  0 
 14 15  1  0  0  0  0 
 14 16  1  0  0  0  0 
 10 17  1  0  0  0  0 
  7 18  1  0  0  0  0 
 18 19  2  0  0  0  0 
 18 20  1  0  0  0  0 
 20 21  1  0  0  0  0 
 20 22  1  0  0  0  0 
 22 23  1  0  0  0  0 
 22 24  1  0  0  0  0 
 22 25  1  0  0  0  0 
 25 26  1  0  0  0  0 
 25 27  2  0  0  0  0 
M  END
> <Rank>
11

> <Priority_score>
0.604

> <Reaction_type>
N-dealkylation

> <Parent_ID>
22

> <Parent_InChI>
InChI=1S/C14H22ClN3O2/c1-4-18(5-2)7-6-17-14(19)10-8-11(15)12(16)9-13(10)20-3/h8-9H,4-7,16H2,1-3H3,(H,17,19)

> <Parent_SMILES>
CCN(CC)CCNC(=O)c1cc(Cl)c(N)cc1OC

$$$$
Molecule 22_metabolite 17
  CDK     0516241031

 43 43  0  0  0  0  0  0  0  0999 V2000
  -10.8088    1.7415    0.0000 C   0  0  0  0  0  0  0  0  0  0  0  0
  -10.8086    3.2415    0.0000 H   0  0  0  0  0  0  0  0  0  0  0  0
  -11.3221    0.3321    0.0000 H   0  0  0  0  0  0  0  0  0  0  0  0
  -12.2860    2.0022    0.0000 H   0  0  0  0  0  0  0  0  0  0  0  0
   -9.5099    0.9913    0.0000 C   0  0  0  0  0  0  0  0  0  0  0  0
  -10.4742   -0.1576    0.0000 H   0  0  0  0  0  0  0  0  0  0  0  0
   -8.5459   -0.1579    0.0000 H   0  0  0  0  0  0  0  0  0  0  0  0
   -8.2107    1.7411    0.0000 N   0  0  0  0  0  0  0  0  0  0  0  0
   -8.2105    3.2411    0.0000 C   0  0  0  0  0  0  0  0  0  0  0  0
   -9.6877    2.9809    0.0000 H   0  0  0  0  0  0  0  0  0  0  0  0
   -8.7233    4.6507    0.0000 H   0  0  0  0  0  0  0  0  0  0  0  0
   -6.9113    3.9909    0.0000 C   0  0  0  0  0  0  0  0  0  0  0  0
   -5.6124    3.2407    0.0000 H   0  0  0  0  0  0  0  0  0  0  0  0
   -5.9470    5.1398    0.0000 H   0  0  0  0  0  0  0  0  0  0  0  0
   -7.8753    5.1401    0.0000 H   0  0  0  0  0  0  0  0  0  0  0  0
   -6.4962    0.7508    0.0000 C   0  0  0  0  0  0  0  0  0  0  0  0
   -7.4605   -0.3981    0.0000 H   0  0  0  0  0  0  0  0  0  0  0  0
   -5.5322   -0.3984    0.0000 H   0  0  0  0  0  0  0  0  0  0  0  0
   -5.1970    1.5006    0.0000 C   0  0  0  0  0  0  0  0  0  0  0  0
   -4.2326    2.6495    0.0000 H   0  0  0  0  0  0  0  0  0  0  0  0
   -6.1610    2.6498    0.0000 H   0  0  0  0  0  0  0  0  0  0  0  0
   -3.8981    0.7504    0.0000 N   0  0  0  0  0  0  0  0  0  0  0  0
   -3.8983   -0.7496    0.0000 H   0  0  0  0  0  0  0  0  0  0  0  0
   -2.5989    1.5002    0.0000 C   0  0  0  0  0  0  0  0  0  0  0  0
   -2.5987    3.0002    0.0000 O   0  0  0  0  0  0  0  0  0  0  0  0
   -1.3000    0.7500    0.0000 C   0  0  0  0  0  0  0  0  0  0  0  0
    0.0000    1.5000    0.0000 C   0  0  0  0  0  0  0  0  0  0  0  0
    1.3000    0.7500    0.0000 C   0  0  0  0  0  0  0  0  0  0  0  0
    1.3000   -0.7500    0.0000 C   0  0  0  0  0  0  0  0  0  0  0  0
    0.0000   -1.5000    0.0000 C   0  0  0  0  0  0  0  0  0  0  0  0
   -0.0000   -3.0000    0.0000 H   0  0  0  0  0  0  0  0  0  0  0  0
   -1.3000   -0.7500    0.0000 C   0  0  0  0  0  0  0  0  0  0  0  0
   -2.5989   -1.5002    0.0000 O   0  0  0  0  0  0  0  0  0  0  0  0
   -2.5987   -3.0002    0.0000 C   0  0  0  0  0  0  0  0  0  0  0  0
   -1.2995   -3.7500    0.0000 H   0  0  0  0  0  0  0  0  0  0  0  0
   -4.0759   -2.7400    0.0000 H   0  0  0  0  0  0  0  0  0  0  0  0
   -3.1115   -4.4098    0.0000 H   0  0  0  0  0  0  0  0  0  0  0  0
    2.5989   -1.5002    0.0000 N   0  0  0  0  0  0  0  0  0  0  0  0
    3.8981   -0.7504    0.0000 H   0  0  0  0  0  0  0  0  0  0  0  0
    2.5987   -3.0002    0.0000 H   0  0  0  0  0  0  0  0  0  0  0  0
    2.5989    1.5002    0.0000 Cl  0  0  0  0  0  0  0  0  0  0  0  0
    0.0000    3.0000    0.0000 O   0  0  0  0  0  0  0  0  0  0  0  0
    1.2990    3.7500    0.0000 H   0  0  0  0  0  0  0  0  0  0  0  0
  1  2  1  0  0  0  0 
  1  3  1  0  0  0  0 
  1  4  1  0  0  0  0 
  1  5  1  0  0  0  0 
  5  6  1  0  0  0  0 
  5  7  1  0  0  0  0 
  5  8  1  0  0  0  0 
  8  9  1  0  0  0  0 
  9 10  1  0  0  0  0 
  9 11  1  0  0  0  0 
  9 12  1  0  0  0  0 
 12 13  1  0  0  0  0 
 12 14  1  0  0  0  0 
 12 15  1  0  0  0  0 
  8 16  1  0  0  0  0 
 16 17  1  0  0  0  0 
 16 18  1  0  0  0  0 
 16 19  1  0  0  0  0 
 19 20  1  0  0  0  0 
 19 21  1  0  0  0  0 
 19 22  1  0  0  0  0 
 22 23  1  0  0  0  0 
 22 24  1  0  0  0  0 
 24 25  2  0  0  0  0 
 24 26  1  0  0  0  0 
 26 27  2  0  0  0  0 
 27 28  1  0  0  0  0 
 28 29  2  0  0  0  0 
 29 30  1  0  0  0  0 
 30 31  1  0  0  0  0 
 30 32  2  0  0  0  0 
 26 32  1  0  0  0  0 
 32 33  1  0  0  0  0 
 33 34  1  0  0  0  0 
 34 35  1  0  0  0  0 
 34 36  1  0  0  0  0 
 34 37  1  0  0  0  0 
 29 38  1  0  0  0  0 
 38 39  1  0  0  0  0 
 38 40  1  0  0  0  0 
 28 41  1  0  0  0  0 
 27 42  1  0  0  0  0 
 42 43  1  0  0  0  0 
M  END
> <Rank>
17

> <Priority_score>
0.552

> <Reaction_type>
aromatic hydroxylation

> <Parent_ID>
22

> <Parent_InChI>
InChI=1S/C14H22ClN3O2/c1-4-18(5-2)7-6-17-14(19)10-8-11(15)12(16)9-13(10)20-3/h8-9H,4-7,16H2,1-3H3,(H,17,19)

> <Parent_SMILES>
CCN(CC)CCNC(=O)c1cc(Cl)c(N)cc1OC

$$$$
Molecule 22_metabolite 18
  CDK     0516241031

 41 41  0  0  0  0  0  0  0  0999 V2000
    0.5377   -8.1090    0.0000 C   0  0  0  0  0  0  0  0  0  0  0  0
    2.0377   -8.1120    0.0000 H   0  0  0  0  0  0  0  0  0  0  0  0
   -0.8728   -8.6193    0.0000 H   0  0  0  0  0  0  0  0  0  0  0  0
    0.7953   -9.5868    0.0000 H   0  0  0  0  0  0  0  0  0  0  0  0
   -0.2097   -6.8085    0.0000 C   0  0  0  0  0  0  0  0  0  0  0  0
   -1.7097   -6.8056    0.0000 H   0  0  0  0  0  0  0  0  0  0  0  0
    0.5428   -5.5110    0.0000 N   0  0  0  0  0  0  0  0  0  0  0  0
    2.0428   -5.5139    0.0000 C   0  0  0  0  0  0  0  0  0  0  0  0
    3.4534   -5.0037    0.0000 H   0  0  0  0  0  0  0  0  0  0  0  0
    1.7853   -4.0362    0.0000 H   0  0  0  0  0  0  0  0  0  0  0  0
    2.7903   -6.8144    0.0000 C   0  0  0  0  0  0  0  0  0  0  0  0
    4.2903   -6.8174    0.0000 H   0  0  0  0  0  0  0  0  0  0  0  0
    1.3797   -7.3247    0.0000 H   0  0  0  0  0  0  0  0  0  0  0  0
    3.0478   -8.2922    0.0000 H   0  0  0  0  0  0  0  0  0  0  0  0
   -0.4438   -3.7943    0.0000 C   0  0  0  0  0  0  0  0  0  0  0  0
    0.9667   -3.2840    0.0000 H   0  0  0  0  0  0  0  0  0  0  0  0
   -0.7014   -2.3166    0.0000 H   0  0  0  0  0  0  0  0  0  0  0  0
   -1.9438   -3.7914    0.0000 C   0  0  0  0  0  0  0  0  0  0  0  0
   -3.3543   -4.3016    0.0000 H   0  0  0  0  0  0  0  0  0  0  0  0
   -1.6862   -5.2691    0.0000 H   0  0  0  0  0  0  0  0  0  0  0  0
   -2.6912   -2.4909    0.0000 N   0  0  0  0  0  0  0  0  0  0  0  0
   -1.9387   -1.1933    0.0000 H   0  0  0  0  0  0  0  0  0  0  0  0
   -4.1912   -2.4879    0.0000 C   0  0  0  0  0  0  0  0  0  0  0  0
   -4.9438   -3.7855    0.0000 O   0  0  0  0  0  0  0  0  0  0  0  0
   -4.9387   -1.1874    0.0000 C   0  0  0  0  0  0  0  0  0  0  0  0
   -6.4287   -1.1774    0.0000 C   0  0  0  0  0  0  0  0  0  0  0  0
   -7.1787    0.1126    0.0000 C   0  0  0  0  0  0  0  0  0  0  0  0
   -8.6787    0.1057    0.0000 H   0  0  0  0  0  0  0  0  0  0  0  0
   -6.4387    1.4126    0.0000 C   0  0  0  0  0  0  0  0  0  0  0  0
   -4.9487    1.4026    0.0000 C   0  0  0  0  0  0  0  0  0  0  0  0
   -4.1987    0.1026    0.0000 C   0  0  0  0  0  0  0  0  0  0  0  0
   -2.6987    0.1044    0.0000 H   0  0  0  0  0  0  0  0  0  0  0  0
   -4.1941    2.6990    0.0000 Cl  0  0  0  0  0  0  0  0  0  0  0  0
   -7.1883    2.7119    0.0000 N   0  0  0  0  0  0  0  0  0  0  0  0
   -8.6883    2.7123    0.0000 H   0  0  0  0  0  0  0  0  0  0  0  0
   -6.4379    4.0107    0.0000 H   0  0  0  0  0  0  0  0  0  0  0  0
   -7.1811   -2.4751    0.0000 O   0  0  0  0  0  0  0  0  0  0  0  0
   -8.6811   -2.4723    0.0000 C   0  0  0  0  0  0  0  0  0  0  0  0
   -9.4287   -1.1719    0.0000 H   0  0  0  0  0  0  0  0  0  0  0  0
  -10.0916   -2.9827    0.0000 H   0  0  0  0  0  0  0  0  0  0  0  0
   -8.4233   -3.9500    0.0000 H   0  0  0  0  0  0  0  0  0  0  0  0
  1  2  1  0  0  0  0 
  1  3  1  0  0  0  0 
  1  4  1  0  0  0  0 
  1  5  1  0  0  0  0 
  5  6  1  4  0  0  0 
  5  7  2  0  0  0  0 
  7  8  1  0  0  0  0 
  8  9  1  0  0  0  0 
  8 10  1  0  0  0  0 
  8 11  1  0  0  0  0 
 11 12  1  0  0  0  0 
 11 13  1  0  0  0  0 
 11 14  1  0  0  0  0 
  7 15  1  0  0  0  0 
 15 16  1  0  0  0  0 
 15 17  1  0  0  0  0 
 15 18  1  0  0  0  0 
 18 19  1  0  0  0  0 
 18 20  1  0  0  0  0 
 18 21  1  0  0  0  0 
 21 22  1  0  0  0  0 
 21 23  1  0  0  0  0 
 23 24  2  0  0  0  0 
 23 25  1  0  0  0  0 
 25 26  2  0  0  0  0 
 26 27  1  0  0  0  0 
 27 28  1  0  0  0  0 
 27 29  2  0  0  0  0 
 29 30  1  0  0  0  0 
 30 31  2  0  0  0  0 
 25 31  1  0  0  0  0 
 31 32  1  0  0  0  0 
 30 33  1  0  0  0  0 
 29 34  1  0  0  0  0 
 34 35  1  0  0  0  0 
 34 36  1  0  0  0  0 
 26 37  1  0  0  0  0 
 37 38  1  0  0  0  0 
 38 39  1  0  0  0  0 
 38 40  1  0  0  0  0 
 38 41  1  0  0  0  0 
M  CHG  1   7   1
M  END
> <Rank>
18

> <Priority_score>
0.16151152720889408

> <Reaction_type>
dehydration of N-C bond

> <Parent_ID>
22

> <Parent_InChI>
InChI=1S/C14H22ClN3O2/c1-4-18(5-2)7-6-17-14(19)10-8-11(15)12(16)9-13(10)20-3/h8-9H,4-7,16H2,1-3H3,(H,17,19)

> <Parent_SMILES>
CCN(CC)CCNC(=O)c1cc(Cl)c(N)cc1OC

$$$$
Molecule 22_metabolite 19
  CDK     0516241031

 40 40  0  0  0  0  0  0  0  0999 V2000
    1.0440   -7.9599    0.0000 C   0  0  0  0  0  0  0  0  0  0  0  0
    2.5440   -7.9629    0.0000 H   0  0  0  0  0  0  0  0  0  0  0  0
    0.2914   -9.2575    0.0000 H   0  0  0  0  0  0  0  0  0  0  0  0
    0.2965   -6.6594    0.0000 C   0  0  0  0  0  0  0  0  0  0  0  0
   -1.2035   -6.6565    0.0000 H   0  0  0  0  0  0  0  0  0  0  0  0
    1.0491   -5.3619    0.0000 N   0  0  0  0  0  0  0  0  0  0  0  0
    2.5491   -5.3648    0.0000 C   0  0  0  0  0  0  0  0  0  0  0  0
    3.9596   -4.8546    0.0000 H   0  0  0  0  0  0  0  0  0  0  0  0
    2.2915   -3.8871    0.0000 H   0  0  0  0  0  0  0  0  0  0  0  0
    3.2965   -6.6653    0.0000 C   0  0  0  0  0  0  0  0  0  0  0  0
    4.7965   -6.6683    0.0000 H   0  0  0  0  0  0  0  0  0  0  0  0
    1.8860   -7.1756    0.0000 H   0  0  0  0  0  0  0  0  0  0  0  0
    3.5541   -8.1430    0.0000 H   0  0  0  0  0  0  0  0  0  0  0  0
    0.0624   -3.6452    0.0000 C   0  0  0  0  0  0  0  0  0  0  0  0
    1.4730   -3.1349    0.0000 H   0  0  0  0  0  0  0  0  0  0  0  0
   -0.1951   -2.1675    0.0000 H   0  0  0  0  0  0  0  0  0  0  0  0
   -1.4376   -3.6423    0.0000 C   0  0  0  0  0  0  0  0  0  0  0  0
   -2.8481   -4.1525    0.0000 H   0  0  0  0  0  0  0  0  0  0  0  0
   -1.1800   -5.1200    0.0000 H   0  0  0  0  0  0  0  0  0  0  0  0
   -2.1850   -2.3417    0.0000 N   0  0  0  0  0  0  0  0  0  0  0  0
   -1.4325   -1.0442    0.0000 H   0  0  0  0  0  0  0  0  0  0  0  0
   -3.6850   -2.3388    0.0000 C   0  0  0  0  0  0  0  0  0  0  0  0
   -4.4376   -3.6364    0.0000 O   0  0  0  0  0  0  0  0  0  0  0  0
   -4.4325   -1.0383    0.0000 C   0  0  0  0  0  0  0  0  0  0  0  0
   -5.9225   -1.0283    0.0000 C   0  0  0  0  0  0  0  0  0  0  0  0
   -6.6725    0.2617    0.0000 C   0  0  0  0  0  0  0  0  0  0  0  0
   -8.1724    0.2548    0.0000 H   0  0  0  0  0  0  0  0  0  0  0  0
   -5.9325    1.5617    0.0000 C   0  0  0  0  0  0  0  0  0  0  0  0
   -4.4425    1.5517    0.0000 C   0  0  0  0  0  0  0  0  0  0  0  0
   -3.6925    0.2517    0.0000 C   0  0  0  0  0  0  0  0  0  0  0  0
   -2.1925    0.2536    0.0000 H   0  0  0  0  0  0  0  0  0  0  0  0
   -3.6879    2.8481    0.0000 Cl  0  0  0  0  0  0  0  0  0  0  0  0
   -6.6821    2.8610    0.0000 N   0  0  0  0  0  0  0  0  0  0  0  0
   -8.1821    2.8614    0.0000 H   0  0  0  0  0  0  0  0  0  0  0  0
   -5.9317    4.1598    0.0000 H   0  0  0  0  0  0  0  0  0  0  0  0
   -6.6748   -2.3260    0.0000 O   0  0  0  0  0  0  0  0  0  0  0  0
   -8.1748   -2.3232    0.0000 C   0  0  0  0  0  0  0  0  0  0  0  0
   -8.9224   -1.0228    0.0000 H   0  0  0  0  0  0  0  0  0  0  0  0
   -9.5853   -2.8336    0.0000 H   0  0  0  0  0  0  0  0  0  0  0  0
   -7.9171   -3.8009    0.0000 H   0  0  0  0  0  0  0  0  0  0  0  0
  1  2  1  0  0  0  0 
  1  3  1  0  0  0  0 
  1  4  2  0  0  0  0 
  4  5  1  0  0  0  0 
  4  6  1  0  0  0  0 
  6  7  1  0  0  0  0 
  7  8  1  0  0  0  0 
  7  9  1  0  0  0  0 
  7 10  1  0  0  0  0 
 10 11  1  0  0  0  0 
 10 12  1  0  0  0  0 
 10 13  1  0  0  0  0 
  6 14  1  0  0  0  0 
 14 15  1  0  0  0  0 
 14 16  1  0  0  0  0 
 14 17  1  0  0  0  0 
 17 18  1  0  0  0  0 
 17 19  1  0  0  0  0 
 17 20  1  0  0  0  0 
 20 21  1  0  0  0  0 
 20 22  1  0  0  0  0 
 22 23  2  0  0  0  0 
 22 24  1  0  0  0  0 
 24 25  2  0  0  0  0 
 25 26  1  0  0  0  0 
 26 27  1  0  0  0  0 
 26 28  2  0  0  0  0 
 28 29  1  0  0  0  0 
 29 30  2  0  0  0  0 
 24 30  1  0  0  0  0 
 30 31  1  0  0  0  0 
 29 32  1  0  0  0  0 
 28 33  1  0  0  0  0 
 33 34  1  0  0  0  0 
 33 35  1  0  0  0  0 
 25 36  1  0  0  0  0 
 36 37  1  0  0  0  0 
 37 38  1  0  0  0  0 
 37 39  1  0  0  0  0 
 37 40  1  0  0  0  0 
M  END
> <Rank>
18

> <Priority_score>
0.16151152720889408

> <Reaction_type>
alkyl dehydrogenation

> <Parent_ID>
22

> <Parent_InChI>
InChI=1S/C14H22ClN3O2/c1-4-18(5-2)7-6-17-14(19)10-8-11(15)12(16)9-13(10)20-3/h8-9H,4-7,16H2,1-3H3,(H,17,19)

> <Parent_SMILES>
CCN(CC)CCNC(=O)c1cc(Cl)c(N)cc1OC

$$$$
Molecule 22_metabolite 20
  CDK     0516241031

 40 41  0  0  0  0  0  0  0  0999 V2000
   -5.0466    3.0893    0.0000 C   0  0  0  0  0  0  0  0  0  0  0  0
   -5.9288    1.8762    0.0000 H   0  0  0  0  0  0  0  0  0  0  0  0
   -4.6325    4.5310    0.0000 H   0  0  0  0  0  0  0  0  0  0  0  0
   -6.3945    3.7475    0.0000 H   0  0  0  0  0  0  0  0  0  0  0  0
   -3.5549    2.9319    0.0000 C   0  0  0  0  0  0  0  0  0  0  0  0
   -3.6589    4.4283    0.0000 H   0  0  0  0  0  0  0  0  0  0  0  0
   -2.0993    3.2941    0.0000 H   0  0  0  0  0  0  0  0  0  0  0  0
   -2.9454    1.5613    0.0000 N   0  0  0  0  0  0  0  0  0  0  0  0
   -3.6954    0.2623    0.0000 C   0  0  0  0  0  0  0  0  0  0  0  0
   -4.9092    1.1436    0.0000 H   0  0  0  0  0  0  0  0  0  0  0  0
   -4.6985   -0.8531    0.0000 H   0  0  0  0  0  0  0  0  0  0  0  0
   -2.6957   -0.8461    0.0000 C   0  0  0  0  0  0  0  0  0  0  0  0
   -3.9104   -1.7261    0.0000 H   0  0  0  0  0  0  0  0  0  0  0  0
   -1.9504   -2.1479    0.0000 H   0  0  0  0  0  0  0  0  0  0  0  0
   -1.3199   -0.2432    0.0000 N   0  0  0  0  0  0  0  0  0  0  0  0
   -1.4857    1.2497    0.0000 C   0  0  0  0  0  0  0  0  0  0  0  0
    0.0143    1.2551    0.0000 H   0  0  0  0  0  0  0  0  0  0  0  0
   -1.3309    2.7417    0.0000 C   0  0  0  0  0  0  0  0  0  0  0  0
    0.0386    3.3536    0.0000 H   0  0  0  0  0  0  0  0  0  0  0  0
   -1.6958    4.1966    0.0000 H   0  0  0  0  0  0  0  0  0  0  0  0
   -2.8271    2.6350    0.0000 H   0  0  0  0  0  0  0  0  0  0  0  0
   -0.0209   -0.9932    0.0000 C   0  0  0  0  0  0  0  0  0  0  0  0
    1.2782   -0.2432    0.0000 O   0  0  0  0  0  0  0  0  0  0  0  0
   -0.0209   -2.9732    0.0000 C   0  0  0  0  0  0  0  0  0  0  0  0
    1.2660   -3.7244    0.0000 C   0  0  0  0  0  0  0  0  0  0  0  0
    1.2734   -5.2165    0.0000 C   0  0  0  0  0  0  0  0  0  0  0  0
    2.5774   -5.9580    0.0000 H   0  0  0  0  0  0  0  0  0  0  0  0
   -0.0159   -5.9749    0.0000 C   0  0  0  0  0  0  0  0  0  0  0  0
   -1.3028   -5.2238    0.0000 C   0  0  0  0  0  0  0  0  0  0  0  0
   -1.3052   -3.7229    0.0000 C   0  0  0  0  0  0  0  0  0  0  0  0
   -2.6067   -2.9771    0.0000 H   0  0  0  0  0  0  0  0  0  0  0  0
   -2.6030   -5.9717    0.0000 Cl  0  0  0  0  0  0  0  0  0  0  0  0
   -0.0134   -7.4749    0.0000 N   0  0  0  0  0  0  0  0  0  0  0  0
    1.2869   -8.2227    0.0000 H   0  0  0  0  0  0  0  0  0  0  0  0
   -1.3112   -8.2270    0.0000 H   0  0  0  0  0  0  0  0  0  0  0  0
    2.5649   -2.9742    0.0000 O   0  0  0  0  0  0  0  0  0  0  0  0
    3.8641   -3.7240    0.0000 C   0  0  0  0  0  0  0  0  0  0  0  0
    5.1630   -2.9739    0.0000 H   0  0  0  0  0  0  0  0  0  0  0  0
    2.9000   -4.8732    0.0000 H   0  0  0  0  0  0  0  0  0  0  0  0
    4.8284   -4.8730    0.0000 H   0  0  0  0  0  0  0  0  0  0  0  0
  1  2  1  0  0  0  0 
  1  3  1  0  0  0  0 
  1  4  1  0  0  0  0 
  1  5  1  0  0  0  0 
  5  6  1  0  0  0  0 
  5  7  1  0  0  0  0 
  5  8  1  0  0  0  0 
  8  9  1  0  0  0  0 
  9 10  1  0  0  0  0 
  9 11  1  0  0  0  0 
  9 12  1  0  0  0  0 
 12 13  1  0  0  0  0 
 12 14  1  0  0  0  0 
 12 15  1  0  0  0  0 
 15 16  1  0  0  0  0 
  8 16  1  0  0  0  0 
 16 17  1  0  0  0  0 
 16 18  1  0  0  0  0 
 18 19  1  0  0  0  0 
 18 20  1  0  0  0  0 
 18 21  1  0  0  0  0 
 15 22  1  0  0  0  0 
 22 23  2  0  0  0  0 
 22 24  1  0  0  0  0 
 24 25  2  0  0  0  0 
 25 26  1  0  0  0  0 
 26 27  1  0  0  0  0 
 26 28  2  0  0  0  0 
 28 29  1  0  0  0  0 
 29 30  2  0  0  0  0 
 24 30  1  0  0  0  0 
 30 31  1  0  0  0  0 
 29 32  1  0  0  0  0 
 28 33  1  0  0  0  0 
 33 34  1  0  0  0  0 
 33 35  1  0  0  0  0 
 25 36  1  0  0  0  0 
 36 37  1  0  0  0  0 
 37 38  1  0  0  0  0 
 37 39  1  0  0  0  0 
 37 40  1  0  0  0  0 
M  END
> <Rank>
18

> <Priority_score>
0.16151152720889408

> <Reaction_type>
cyclization to 5-membered NCN ring

> <Parent_ID>
22

> <Parent_InChI>
InChI=1S/C14H22ClN3O2/c1-4-18(5-2)7-6-17-14(19)10-8-11(15)12(16)9-13(10)20-3/h8-9H,4-7,16H2,1-3H3,(H,17,19)

> <Parent_SMILES>
CCN(CC)CCNC(=O)c1cc(Cl)c(N)cc1OC

$$$$
Molecule 22_metabolite 21
  CDK     0516241031

 77 77  0  0  0  0  0  0  0  0999 V2000
    9.1390   -1.8136    0.0000 C   0  0  0  0  0  0  0  0  0  0  0  0
    9.8888   -3.1128    0.0000 H   0  0  0  0  0  0  0  0  0  0  0  0
    8.8788   -0.3364    0.0000 H   0  0  0  0  0  0  0  0  0  0  0  0
   10.5487   -1.3008    0.0000 H   0  0  0  0  0  0  0  0  0  0  0  0
    7.6390   -1.8134    0.0000 C   0  0  0  0  0  0  0  0  0  0  0  0
    7.8997   -0.3362    0.0000 H   0  0  0  0  0  0  0  0  0  0  0  0
    6.2296   -1.3001    0.0000 H   0  0  0  0  0  0  0  0  0  0  0  0
    6.8888   -3.1123    0.0000 N   0  0  0  0  0  0  0  0  0  0  0  0
    7.6386   -4.4114    0.0000 C   0  0  0  0  0  0  0  0  0  0  0  0
    8.7878   -3.4475    0.0000 H   0  0  0  0  0  0  0  0  0  0  0  0
    8.7875   -5.3758    0.0000 H   0  0  0  0  0  0  0  0  0  0  0  0
    6.8884   -5.7104    0.0000 C   0  0  0  0  0  0  0  0  0  0  0  0
    5.3884   -5.7101    0.0000 H   0  0  0  0  0  0  0  0  0  0  0  0
    6.6277   -7.1875    0.0000 H   0  0  0  0  0  0  0  0  0  0  0  0
    8.2979   -6.2236    0.0000 H   0  0  0  0  0  0  0  0  0  0  0  0
    4.9088   -3.1120    0.0000 C   0  0  0  0  0  0  0  0  0  0  0  0
    5.1695   -1.6348    0.0000 H   0  0  0  0  0  0  0  0  0  0  0  0
    3.4994   -2.5987    0.0000 H   0  0  0  0  0  0  0  0  0  0  0  0
    4.1586   -4.4109    0.0000 C   0  0  0  0  0  0  0  0  0  0  0  0
    3.8979   -5.8881    0.0000 H   0  0  0  0  0  0  0  0  0  0  0  0
    5.5681   -4.9241    0.0000 H   0  0  0  0  0  0  0  0  0  0  0  0
    2.6586   -4.4107    0.0000 N   0  0  0  0  0  0  0  0  0  0  0  0
    1.9088   -3.1115    0.0000 H   0  0  0  0  0  0  0  0  0  0  0  0
    1.9084   -5.7096    0.0000 C   0  0  0  0  0  0  0  0  0  0  0  0
    2.6582   -7.0087    0.0000 O   0  0  0  0  0  0  0  0  0  0  0  0
    0.4084   -5.7093    0.0000 C   0  0  0  0  0  0  0  0  0  0  0  0
   -0.3424   -7.0088    0.0000 C   0  0  0  0  0  0  0  0  0  0  0  0
   -1.8433   -7.0093    0.0000 C   0  0  0  0  0  0  0  0  0  0  0  0
   -2.5930   -8.3085    0.0000 H   0  0  0  0  0  0  0  0  0  0  0  0
   -2.5933   -5.7103    0.0000 C   0  0  0  0  0  0  0  0  0  0  0  0
   -1.8424   -4.4108    0.0000 C   0  0  0  0  0  0  0  0  0  0  0  0
   -0.3416   -4.4103    0.0000 C   0  0  0  0  0  0  0  0  0  0  0  0
    0.4082   -3.1111    0.0000 H   0  0  0  0  0  0  0  0  0  0  0  0
   -2.5924   -3.1117    0.0000 S   0  0  0  0  0  0  0  0  0  0  0  0
   -4.0924   -3.1117    0.0000 C   0  0  0  0  0  0  0  0  0  0  0  0
   -5.5020   -3.6248    0.0000 H   0  0  0  0  0  0  0  0  0  0  0  0
   -3.8319   -4.5889    0.0000 H   0  0  0  0  0  0  0  0  0  0  0  0
   -4.8424   -1.8127    0.0000 C   0  0  0  0  0  0  0  0  0  0  0  0
   -3.4329   -1.2997    0.0000 H   0  0  0  0  0  0  0  0  0  0  0  0
   -5.1029   -0.3355    0.0000 C   0  0  0  0  0  0  0  0  0  0  0  0
   -6.5124    0.1775    0.0000 O   0  0  0  0  0  0  0  0  0  0  0  0
   -3.9538    0.6287    0.0000 N   0  0  0  0  0  0  0  0  0  0  0  0
   -2.5443    0.1157    0.0000 H   0  0  0  0  0  0  0  0  0  0  0  0
   -4.2143    2.1059    0.0000 C   0  0  0  0  0  0  0  0  0  0  0  0
   -5.6238    1.5929    0.0000 H   0  0  0  0  0  0  0  0  0  0  0  0
   -4.9643    3.4049    0.0000 H   0  0  0  0  0  0  0  0  0  0  0  0
   -3.0652    3.0701    0.0000 C   0  0  0  0  0  0  0  0  0  0  0  0
   -1.6557    2.5571    0.0000 O   0  0  0  0  0  0  0  0  0  0  0  0
   -3.3257    4.5473    0.0000 O   0  0  0  0  0  0  0  0  0  0  0  0
   -2.1766    5.5115    0.0000 H   0  0  0  0  0  0  0  0  0  0  0  0
   -6.3424   -1.8127    0.0000 N   0  0  0  0  0  0  0  0  0  0  0  0
   -7.0924   -0.5137    0.0000 H   0  0  0  0  0  0  0  0  0  0  0  0
   -7.0924   -3.1117    0.0000 C   0  0  0  0  0  0  0  0  0  0  0  0
   -6.3424   -4.4108    0.0000 O   0  0  0  0  0  0  0  0  0  0  0  0
   -8.5924   -3.1117    0.0000 C   0  0  0  0  0  0  0  0  0  0  0  0
  -10.0020   -2.5987    0.0000 H   0  0  0  0  0  0  0  0  0  0  0  0
   -8.3319   -1.6345    0.0000 H   0  0  0  0  0  0  0  0  0  0  0  0
   -9.3424   -4.4108    0.0000 C   0  0  0  0  0  0  0  0  0  0  0  0
   -7.9329   -4.9238    0.0000 H   0  0  0  0  0  0  0  0  0  0  0  0
   -9.6029   -5.8880    0.0000 H   0  0  0  0  0  0  0  0  0  0  0  0
  -10.8424   -4.4108    0.0000 C   0  0  0  0  0  0  0  0  0  0  0  0
  -12.2520   -4.9238    0.0000 H   0  0  0  0  0  0  0  0  0  0  0  0
  -11.5924   -3.1117    0.0000 C   0  0  0  0  0  0  0  0  0  0  0  0
  -10.8424   -1.8127    0.0000 O   0  0  0  0  0  0  0  0  0  0  0  0
  -13.0924   -3.1117    0.0000 O   0  0  0  0  0  0  0  0  0  0  0  0
  -13.8424   -1.8127    0.0000 H   0  0  0  0  0  0  0  0  0  0  0  0
  -10.4986   -6.3607    0.0000 N   0  0  0  0  0  0  0  0  0  0  0  0
  -11.6477   -7.3249    0.0000 H   0  0  0  0  0  0  0  0  0  0  0  0
   -9.0891   -6.8737    0.0000 H   0  0  0  0  0  0  0  0  0  0  0  0
   -4.0933   -5.7101    0.0000 N   0  0  0  0  0  0  0  0  0  0  0  0
   -4.8435   -7.0090    0.0000 H   0  0  0  0  0  0  0  0  0  0  0  0
   -4.8430   -4.4109    0.0000 H   0  0  0  0  0  0  0  0  0  0  0  0
    0.4076   -8.3079    0.0000 O   0  0  0  0  0  0  0  0  0  0  0  0
   -0.3424   -9.6069    0.0000 C   0  0  0  0  0  0  0  0  0  0  0  0
    0.4076  -10.9060    0.0000 H   0  0  0  0  0  0  0  0  0  0  0  0
   -1.4915   -8.6427    0.0000 H   0  0  0  0  0  0  0  0  0  0  0  0
   -1.4915  -10.5711    0.0000 H   0  0  0  0  0  0  0  0  0  0  0  0
  1  2  1  0  0  0  0 
  1  3  1  0  0  0  0 
  1  4  1  0  0  0  0 
  1  5  1  0  0  0  0 
  5  6  1  0  0  0  0 
  5  7  1  0  0  0  0 
  5  8  1  0  0  0  0 
  8  9  1  0  0  0  0 
  9 10  1  0  0  0  0 
  9 11  1  0  0  0  0 
  9 12  1  0  0  0  0 
 12 13  1  0  0  0  0 
 12 14  1  0  0  0  0 
 12 15  1  0  0  0  0 
  8 16  1  0  0  0  0 
 16 17  1  0  0  0  0 
 16 18  1  0  0  0  0 
 16 19  1  0  0  0  0 
 19 20  1  0  0  0  0 
 19 21  1  0  0  0  0 
 19 22  1  0  0  0  0 
 22 23  1  0  0  0  0 
 22 24  1  0  0  0  0 
 24 25  2  0  0  0  0 
 24 26  1  0  0  0  0 
 26 27  2  0  0  0  0 
 27 28  1  0  0  0  0 
 28 29  1  0  0  0  0 
 28 30  2  0  0  0  0 
 30 31  1  0  0  0  0 
 31 32  2  0  0  0  0 
 26 32  1  0  0  0  0 
 32 33  1  0  0  0  0 
 31 34  1  0  0  0  0 
 34 35  1  0  0  0  0 
 35 36  1  0  0  0  0 
 35 37  1  0  0  0  0 
 35 38  1  0  0  0  0 
 38 39  1  0  0  0  0 
 38 40  1  0  0  0  0 
 40 41  2  0  0  0  0 
 40 42  1  0  0  0  0 
 42 43  1  0  0  0  0 
 42 44  1  0  0  0  0 
 44 45  1  0  0  0  0 
 44 46  1  0  0  0  0 
 44 47  1  0  0  0  0 
 47 48  2  0  0  0  0 
 47 49  1  0  0  0  0 
 49 50  1  0  0  0  0 
 38 51  1  0  0  0  0 
 51 52  1  0  0  0  0 
 51 53  1  0  0  0  0 
 53 54  2  0  0  0  0 
 53 55  1  0  0  0  0 
 55 56  1  0  0  0  0 
 55 57  1  0  0  0  0 
 55 58  1  0  0  0  0 
 58 59  1  0  0  0  0 
 58 60  1  0  0  0  0 
 58 61  1  0  0  0  0 
 61 62  1  0  0  0  0 
 61 63  1  0  0  0  0 
 63 64  2  0  0  0  0 
 63 65  1  0  0  0  0 
 65 66  1  0  0  0  0 
 61 67  1  0  0  0  0 
 67 68  1  0  0  0  0 
 67 69  1  0  0  0  0 
 30 70  1  0  0  0  0 
 70 71  1  0  0  0  0 
 70 72  1  0  0  0  0 
 27 73  1  0  0  0  0 
 73 74  1  0  0  0  0 
 74 75  1  0  0  0  0 
 74 76  1  0  0  0  0 
 74 77  1  0  0  0  0 
M  END
> <Rank>
21

> <Priority_score>
0.148

> <Reaction_type>
glutathione_conjugation_(aromatic_nucleophilic_substitution)

> <Parent_ID>
22

> <Parent_InChI>
InChI=1S/C14H22ClN3O2/c1-4-18(5-2)7-6-17-14(19)10-8-11(15)12(16)9-13(10)20-3/h8-9H,4-7,16H2,1-3H3,(H,17,19)

> <Parent_SMILES>
CCN(CC)CCNC(=O)c1cc(Cl)c(N)cc1OC

$$$$
Molecule 22_metabolite 22
  CDK     0516241031

 40 40  0  0  0  0  0  0  0  0999 V2000
    3.1434   -6.4023    0.0000 C   0  0  0  0  0  0  0  0  0  0  0  0
    2.3908   -7.6999    0.0000 H   0  0  0  0  0  0  0  0  0  0  0  0
    4.2943   -5.4404    0.0000 H   0  0  0  0  0  0  0  0  0  0  0  0
    4.2905   -7.3688    0.0000 H   0  0  0  0  0  0  0  0  0  0  0  0
    2.3959   -5.1018    0.0000 C   0  0  0  0  0  0  0  0  0  0  0  0
    3.8065   -4.5915    0.0000 H   0  0  0  0  0  0  0  0  0  0  0  0
    2.1383   -3.6241    0.0000 H   0  0  0  0  0  0  0  0  0  0  0  0
    0.8959   -5.0989    0.0000 N   0  0  0  0  0  0  0  0  0  0  0  0
    0.1434   -6.3964    0.0000 C   0  0  0  0  0  0  0  0  0  0  0  0
   -1.0038   -5.4300    0.0000 H   0  0  0  0  0  0  0  0  0  0  0  0
   -1.0076   -7.3584    0.0000 H   0  0  0  0  0  0  0  0  0  0  0  0
    0.8908   -7.6969    0.0000 C   0  0  0  0  0  0  0  0  0  0  0  0
    0.1383   -8.9945    0.0000 H   0  0  0  0  0  0  0  0  0  0  0  0
    2.0380   -8.6634    0.0000 H   0  0  0  0  0  0  0  0  0  0  0  0
    2.0418   -6.7350    0.0000 H   0  0  0  0  0  0  0  0  0  0  0  0
    0.1485   -3.7984    0.0000 C   0  0  0  0  0  0  0  0  0  0  0  0
    0.9010   -2.5008    0.0000 H   0  0  0  0  0  0  0  0  0  0  0  0
   -1.3515   -3.7954    0.0000 C   0  0  0  0  0  0  0  0  0  0  0  0
   -2.1041   -5.0930    0.0000 H   0  0  0  0  0  0  0  0  0  0  0  0
   -2.0990   -2.4949    0.0000 N   0  0  0  0  0  0  0  0  0  0  0  0
   -1.3464   -1.1973    0.0000 H   0  0  0  0  0  0  0  0  0  0  0  0
   -3.5990   -2.4920    0.0000 C   0  0  0  0  0  0  0  0  0  0  0  0
   -4.3515   -3.7895    0.0000 O   0  0  0  0  0  0  0  0  0  0  0  0
   -4.3464   -1.1914    0.0000 C   0  0  0  0  0  0  0  0  0  0  0  0
   -5.8364   -1.1814    0.0000 C   0  0  0  0  0  0  0  0  0  0  0  0
   -6.5864    0.1086    0.0000 C   0  0  0  0  0  0  0  0  0  0  0  0
   -8.0864    0.1017    0.0000 H   0  0  0  0  0  0  0  0  0  0  0  0
   -5.8464    1.4086    0.0000 C   0  0  0  0  0  0  0  0  0  0  0  0
   -4.3564    1.3986    0.0000 C   0  0  0  0  0  0  0  0  0  0  0  0
   -3.6064    0.0986    0.0000 C   0  0  0  0  0  0  0  0  0  0  0  0
   -2.1064    0.1004    0.0000 H   0  0  0  0  0  0  0  0  0  0  0  0
   -3.6019    2.6949    0.0000 Cl  0  0  0  0  0  0  0  0  0  0  0  0
   -6.5960    2.7078    0.0000 N   0  0  0  0  0  0  0  0  0  0  0  0
   -8.0960    2.7083    0.0000 H   0  0  0  0  0  0  0  0  0  0  0  0
   -5.8456    4.0066    0.0000 H   0  0  0  0  0  0  0  0  0  0  0  0
   -6.5888   -2.4791    0.0000 O   0  0  0  0  0  0  0  0  0  0  0  0
   -8.0888   -2.4763    0.0000 C   0  0  0  0  0  0  0  0  0  0  0  0
   -8.8364   -1.1759    0.0000 H   0  0  0  0  0  0  0  0  0  0  0  0
   -9.4993   -2.9868    0.0000 H   0  0  0  0  0  0  0  0  0  0  0  0
   -7.8311   -3.9540    0.0000 H   0  0  0  0  0  0  0  0  0  0  0  0
  1  2  1  0  0  0  0 
  1  3  1  0  0  0  0 
  1  4  1  0  0  0  0 
  1  5  1  0  0  0  0 
  5  6  1  0  0  0  0 
  5  7  1  0  0  0  0 
  5  8  1  0  0  0  0 
  8  9  1  0  0  0  0 
  9 10  1  0  0  0  0 
  9 11  1  0  0  0  0 
  9 12  1  0  0  0  0 
 12 13  1  0  0  0  0 
 12 14  1  0  0  0  0 
 12 15  1  0  0  0  0 
  8 16  1  0  0  0  0 
 16 17  1  4  0  0  0 
 16 18  2  0  0  0  0 
 18 19  1  0  0  0  0 
 18 20  1  0  0  0  0 
 20 21  1  0  0  0  0 
 20 22  1  0  0  0  0 
 22 23  2  0  0  0  0 
 22 24  1  0  0  0  0 
 24 25  2  0  0  0  0 
 25 26  1  0  0  0  0 
 26 27  1  0  0  0  0 
 26 28  2  0  0  0  0 
 28 29  1  0  0  0  0 
 29 30  2  0  0  0  0 
 24 30  1  0  0  0  0 
 30 31  1  0  0  0  0 
 29 32  1  0  0  0  0 
 28 33  1  0  0  0  0 
 33 34  1  0  0  0  0 
 33 35  1  0  0  0  0 
 25 36  1  0  0  0  0 
 36 37  1  0  0  0  0 
 37 38  1  0  0  0  0 
 37 39  1  0  0  0  0 
 37 40  1  0  0  0  0 
M  END
> <Rank>
22

> <Priority_score>
0.1208

> <Reaction_type>
alkyl dehydrogenation

> <Parent_ID>
22

> <Parent_InChI>
InChI=1S/C14H22ClN3O2/c1-4-18(5-2)7-6-17-14(19)10-8-11(15)12(16)9-13(10)20-3/h8-9H,4-7,16H2,1-3H3,(H,17,19)

> <Parent_SMILES>
CCN(CC)CCNC(=O)c1cc(Cl)c(N)cc1OC

$$$$
Molecule 22_metabolite 23
  CDK     0516241031

 41 41  0  0  0  0  0  0  0  0999 V2000
   -5.8568   -4.9661    0.0000 C   0  0  0  0  0  0  0  0  0  0  0  0
   -7.1573   -5.7135    0.0000 H   0  0  0  0  0  0  0  0  0  0  0  0
   -4.3791   -4.7085    0.0000 H   0  0  0  0  0  0  0  0  0  0  0  0
   -5.3465   -6.3766    0.0000 H   0  0  0  0  0  0  0  0  0  0  0  0
   -5.8538   -3.4661    0.0000 C   0  0  0  0  0  0  0  0  0  0  0  0
   -7.3316   -3.7237    0.0000 H   0  0  0  0  0  0  0  0  0  0  0  0
   -6.3641   -2.0555    0.0000 H   0  0  0  0  0  0  0  0  0  0  0  0
   -4.5533   -2.7186    0.0000 N   0  0  0  0  0  0  0  0  0  0  0  0
   -4.5504   -1.2186    0.0000 C   0  0  0  0  0  0  0  0  0  0  0  0
   -5.8479   -0.4661    0.0000 H   0  0  0  0  0  0  0  0  0  0  0  0
   -3.2499   -0.4712    0.0000 C   0  0  0  0  0  0  0  0  0  0  0  0
   -2.2834    0.6760    0.0000 H   0  0  0  0  0  0  0  0  0  0  0  0
   -4.2118    0.6798    0.0000 H   0  0  0  0  0  0  0  0  0  0  0  0
   -1.9523   -1.2237    0.0000 N   0  0  0  0  0  0  0  0  0  0  0  0
   -1.9553   -2.7237    0.0000 H   0  0  0  0  0  0  0  0  0  0  0  0
   -0.6518   -0.4763    0.0000 C   0  0  0  0  0  0  0  0  0  0  0  0
   -0.6489    1.0237    0.0000 O   0  0  0  0  0  0  0  0  0  0  0  0
    0.6458   -1.2288    0.0000 C   0  0  0  0  0  0  0  0  0  0  0  0
    1.9411   -0.4925    0.0000 C   0  0  0  0  0  0  0  0  0  0  0  0
    3.2357   -1.2347    0.0000 C   0  0  0  0  0  0  0  0  0  0  0  0
    4.5313   -0.4787    0.0000 H   0  0  0  0  0  0  0  0  0  0  0  0
    3.2448   -2.7305    0.0000 C   0  0  0  0  0  0  0  0  0  0  0  0
    1.9494   -3.4668    0.0000 C   0  0  0  0  0  0  0  0  0  0  0  0
    0.6499   -2.7160    0.0000 C   0  0  0  0  0  0  0  0  0  0  0  0
   -0.6482   -3.4676    0.0000 H   0  0  0  0  0  0  0  0  0  0  0  0
    1.9442   -4.9668    0.0000 Cl  0  0  0  0  0  0  0  0  0  0  0  0
    4.5436   -3.4809    0.0000 N   0  0  0  0  0  0  0  0  0  0  0  0
    5.8429   -2.7313    0.0000 H   0  0  0  0  0  0  0  0  0  0  0  0
    4.5432   -4.9809    0.0000 H   0  0  0  0  0  0  0  0  0  0  0  0
    1.9439    1.0075    0.0000 O   0  0  0  0  0  0  0  0  0  0  0  0
    3.2443    1.7551    0.0000 C   0  0  0  0  0  0  0  0  0  0  0  0
    3.2471    3.2551    0.0000 H   0  0  0  0  0  0  0  0  0  0  0  0
    3.7548    0.3446    0.0000 H   0  0  0  0  0  0  0  0  0  0  0  0
    4.7220    2.0129    0.0000 H   0  0  0  0  0  0  0  0  0  0  0  0
   -3.2558   -3.4712    0.0000 C   0  0  0  0  0  0  0  0  0  0  0  0
   -2.7400   -2.0627    0.0000 H   0  0  0  0  0  0  0  0  0  0  0  0
   -1.7791   -3.7346    0.0000 H   0  0  0  0  0  0  0  0  0  0  0  0
   -3.2587   -4.9712    0.0000 C   0  0  0  0  0  0  0  0  0  0  0  0
   -4.5592   -5.7186    0.0000 H   0  0  0  0  0  0  0  0  0  0  0  0
   -1.7810   -4.7136    0.0000 H   0  0  0  0  0  0  0  0  0  0  0  0
   -2.7484   -6.3817    0.0000 H   0  0  0  0  0  0  0  0  0  0  0  0
  1  2  1  0  0  0  0 
  1  3  1  0  0  0  0 
  1  4  1  0  0  0  0 
  1  5  1  0  0  0  0 
  5  6  1  0  0  0  0 
  5  7  1  0  0  0  0 
  5  8  1  0  0  0  0 
  8  9  2  0  0  0  0 
  9 10  1  0  0  0  0 
  9 11  1  0  0  0  0 
 11 12  1  0  0  0  0 
 11 13  1  0  0  0  0 
 11 14  1  0  0  0  0 
 14 15  1  0  0  0  0 
 14 16  1  0  0  0  0 
 16 17  2  0  0  0  0 
 16 18  1  0  0  0  0 
 18 19  2  0  0  0  0 
 19 20  1  0  0  0  0 
 20 21  1  0  0  0  0 
 20 22  2  0  0  0  0 
 22 23  1  0  0  0  0 
 23 24  2  0  0  0  0 
 18 24  1  0  0  0  0 
 24 25  1  0  0  0  0 
 23 26  1  0  0  0  0 
 22 27  1  0  0  0  0 
 27 28  1  0  0  0  0 
 27 29  1  0  0  0  0 
 19 30  1  0  0  0  0 
 30 31  1  0  0  0  0 
 31 32  1  0  0  0  0 
 31 33  1  0  0  0  0 
 31 34  1  0  0  0  0 
  8 35  1  0  0  0  0 
 35 36  1  0  0  0  0 
 35 37  1  0  0  0  0 
 35 38  1  0  0  0  0 
 38 39  1  0  0  0  0 
 38 40  1  0  0  0  0 
 38 41  1  0  0  0  0 
M  CHG  1   8   1
M  END
> <Rank>
22

> <Priority_score>
0.1208

> <Reaction_type>
dehydration of N-C bond

> <Parent_ID>
22

> <Parent_InChI>
InChI=1S/C14H22ClN3O2/c1-4-18(5-2)7-6-17-14(19)10-8-11(15)12(16)9-13(10)20-3/h8-9H,4-7,16H2,1-3H3,(H,17,19)

> <Parent_SMILES>
CCN(CC)CCNC(=O)c1cc(Cl)c(N)cc1OC

$$$$
Molecule 22_metabolite 24
  CDK     0516241031

 38 38  0  0  0  0  0  0  0  0999 V2000
  -10.8088    1.7415    0.0000 C   0  0  0  0  0  0  0  0  0  0  0  0
  -10.8086    3.2415    0.0000 H   0  0  0  0  0  0  0  0  0  0  0  0
  -11.3221    0.3321    0.0000 H   0  0  0  0  0  0  0  0  0  0  0  0
  -12.2860    2.0022    0.0000 H   0  0  0  0  0  0  0  0  0  0  0  0
   -9.5099    0.9913    0.0000 C   0  0  0  0  0  0  0  0  0  0  0  0
  -10.4742   -0.1576    0.0000 H   0  0  0  0  0  0  0  0  0  0  0  0
   -8.5459   -0.1579    0.0000 H   0  0  0  0  0  0  0  0  0  0  0  0
   -8.2107    1.7411    0.0000 N   0  0  0  0  0  0  0  0  0  0  0  0
   -8.2105    3.2411    0.0000 C   0  0  0  0  0  0  0  0  0  0  0  0
   -9.6877    2.9809    0.0000 H   0  0  0  0  0  0  0  0  0  0  0  0
   -8.7233    4.6507    0.0000 H   0  0  0  0  0  0  0  0  0  0  0  0
   -6.9113    3.9909    0.0000 C   0  0  0  0  0  0  0  0  0  0  0  0
   -5.6124    3.2407    0.0000 H   0  0  0  0  0  0  0  0  0  0  0  0
   -5.9470    5.1398    0.0000 H   0  0  0  0  0  0  0  0  0  0  0  0
   -7.8753    5.1401    0.0000 H   0  0  0  0  0  0  0  0  0  0  0  0
   -6.4962    0.7508    0.0000 C   0  0  0  0  0  0  0  0  0  0  0  0
   -7.4605   -0.3981    0.0000 H   0  0  0  0  0  0  0  0  0  0  0  0
   -5.5322   -0.3984    0.0000 H   0  0  0  0  0  0  0  0  0  0  0  0
   -5.1970    1.5006    0.0000 C   0  0  0  0  0  0  0  0  0  0  0  0
   -4.2326    2.6495    0.0000 H   0  0  0  0  0  0  0  0  0  0  0  0
   -6.1610    2.6498    0.0000 H   0  0  0  0  0  0  0  0  0  0  0  0
   -3.8981    0.7504    0.0000 N   0  0  0  0  0  0  0  0  0  0  0  0
   -3.8983   -0.7496    0.0000 H   0  0  0  0  0  0  0  0  0  0  0  0
   -2.5989    1.5002    0.0000 C   0  0  0  0  0  0  0  0  0  0  0  0
   -2.5987    3.0002    0.0000 O   0  0  0  0  0  0  0  0  0  0  0  0
   -1.3000    0.7500    0.0000 C   0  0  0  0  0  0  0  0  0  0  0  0
    0.0000    1.5000    0.0000 C   0  0  0  0  0  0  0  0  0  0  0  0
    0.0000    3.0000    0.0000 H   0  0  0  0  0  0  0  0  0  0  0  0
    1.3000    0.7500    0.0000 C   0  0  0  0  0  0  0  0  0  0  0  0
    2.5989    1.5002    0.0000 O   0  0  0  0  0  0  0  0  0  0  0  0
    1.3000   -0.7500    0.0000 C   0  0  0  0  0  0  0  0  0  0  0  0
    0.0000   -1.5000    0.0000 C   0  0  0  0  0  0  0  0  0  0  0  0
   -0.0000   -3.0000    0.0000 H   0  0  0  0  0  0  0  0  0  0  0  0
   -1.3000   -0.7500    0.0000 C   0  0  0  0  0  0  0  0  0  0  0  0
   -2.5989   -1.5002    0.0000 O   0  0  0  0  0  0  0  0  0  0  0  0
    2.5989   -1.5002    0.0000 N   0  0  0  0  0  0  0  0  0  0  0  0
    3.8981   -0.7504    0.0000 H   0  0  0  0  0  0  0  0  0  0  0  0
    2.5987   -3.0002    0.0000 H   0  0  0  0  0  0  0  0  0  0  0  0
  1  2  1  0  0  0  0 
  1  3  1  0  0  0  0 
  1  4  1  0  0  0  0 
  1  5  1  0  0  0  0 
  5  6  1  0  0  0  0 
  5  7  1  0  0  0  0 
  5  8  1  0  0  0  0 
  8  9  1  0  0  0  0 
  9 10  1  0  0  0  0 
  9 11  1  0  0  0  0 
  9 12  1  0  0  0  0 
 12 13  1  0  0  0  0 
 12 14  1  0  0  0  0 
 12 15  1  0  0  0  0 
  8 16  1  0  0  0  0 
 16 17  1  0  0  0  0 
 16 18  1  0  0  0  0 
 16 19  1  0  0  0  0 
 19 20  1  0  0  0  0 
 19 21  1  0  0  0  0 
 19 22  1  0  0  0  0 
 22 23  1  0  0  0  0 
 22 24  1  0  0  0  0 
 24 25  2  0  0  0  0 
 24 26  1  0  0  0  0 
 26 27  2  0  0  0  0 
 27 28  1  0  0  0  0 
 27 29  1  0  0  0  0 
 29 30  2  0  0  0  0 
 29 31  1  0  0  0  0 
 31 32  2  0  0  0  0 
 32 33  1  0  0  0  0 
 32 34  1  0  0  0  0 
 26 34  1  0  0  0  0 
 34 35  2  0  0  0  0 
 31 36  1  0  0  0  0 
 36 37  1  0  0  0  0 
 36 38  1  0  0  0  0 
M  END
> <Rank>
24

> <Priority_score>
0.11359999999999999

> <Reaction_type>
oxidation of 4-substituted anisole to quinone

> <Parent_ID>
22

> <Parent_InChI>
InChI=1S/C14H22ClN3O2/c1-4-18(5-2)7-6-17-14(19)10-8-11(15)12(16)9-13(10)20-3/h8-9H,4-7,16H2,1-3H3,(H,17,19)

> <Parent_SMILES>
CCN(CC)CCNC(=O)c1cc(Cl)c(N)cc1OC

$$$$
Molecule 22_metabolite 25
  CDK     0516241031

 21 21  0  0  0  0  0  0  0  0999 V2000
    0.0106   -3.7410    0.0000 C   0  0  0  0  0  0  0  0  0  0  0  0
    0.0078   -5.2410    0.0000 H   0  0  0  0  0  0  0  0  0  0  0  0
    1.4873   -4.0041    0.0000 H   0  0  0  0  0  0  0  0  0  0  0  0
    0.5262   -2.3324    0.0000 H   0  0  0  0  0  0  0  0  0  0  0  0
   -1.2871   -2.9886    0.0000 O   0  0  0  0  0  0  0  0  0  0  0  0
   -1.2843   -1.4886    0.0000 C   0  0  0  0  0  0  0  0  0  0  0  0
    0.0111   -0.7522    0.0000 C   0  0  0  0  0  0  0  0  0  0  0  0
    0.0069    0.7349    0.0000 C   0  0  0  0  0  0  0  0  0  0  0  0
    1.3050    1.4865    0.0000 H   0  0  0  0  0  0  0  0  0  0  0  0
   -1.2926    1.4858    0.0000 C   0  0  0  0  0  0  0  0  0  0  0  0
   -2.5880    0.7494    0.0000 C   0  0  0  0  0  0  0  0  0  0  0  0
   -2.5788   -0.7464    0.0000 C   0  0  0  0  0  0  0  0  0  0  0  0
   -3.8744   -1.5023    0.0000 H   0  0  0  0  0  0  0  0  0  0  0  0
   -3.8868    1.4998    0.0000 N   0  0  0  0  0  0  0  0  0  0  0  0
   -3.8863    2.9998    0.0000 H   0  0  0  0  0  0  0  0  0  0  0  0
   -5.1861    0.7502    0.0000 H   0  0  0  0  0  0  0  0  0  0  0  0
   -1.2873    2.9858    0.0000 Cl  0  0  0  0  0  0  0  0  0  0  0  0
    1.3086   -1.5048    0.0000 C   0  0  0  0  0  0  0  0  0  0  0  0
    1.3057   -3.0048    0.0000 O   0  0  0  0  0  0  0  0  0  0  0  0
    2.6091   -0.7573    0.0000 O   0  0  0  0  0  0  0  0  0  0  0  0
    3.9067   -1.5099    0.0000 H   0  0  0  0  0  0  0  0  0  0  0  0
  1  2  1  0  0  0  0 
  1  3  1  0  0  0  0 
  1  4  1  0  0  0  0 
  1  5  1  0  0  0  0 
  5  6  1  0  0  0  0 
  6  7  2  0  0  0  0 
  7  8  1  0  0  0  0 
  8  9  1  0  0  0  0 
  8 10  2  0  0  0  0 
 10 11  1  0  0  0  0 
 11 12  2  0  0  0  0 
  6 12  1  0  0  0  0 
 12 13  1  0  0  0  0 
 11 14  1  0  0  0  0 
 14 15  1  0  0  0  0 
 14 16  1  0  0  0  0 
 10 17  1  0  0  0  0 
  7 18  1  0  0  0  0 
 18 19  2  0  0  0  0 
 18 20  1  0  0  0  0 
 20 21  1  0  0  0  0 
M  END
> <Rank>
25

> <Priority_score>
0.108

> <Reaction_type>
hydrolysis_(secondary_amide)

> <Parent_ID>
22

> <Parent_InChI>
InChI=1S/C14H22ClN3O2/c1-4-18(5-2)7-6-17-14(19)10-8-11(15)12(16)9-13(10)20-3/h8-9H,4-7,16H2,1-3H3,(H,17,19)

> <Parent_SMILES>
CCN(CC)CCNC(=O)c1cc(Cl)c(N)cc1OC

$$$$
Molecule 22_metabolite 26
  CDK     0516241031

 43 43  0  0  0  0  0  0  0  0999 V2000
   -0.6110   -7.2248    0.0000 C   0  0  0  0  0  0  0  0  0  0  0  0
   -1.9115   -7.9722    0.0000 H   0  0  0  0  0  0  0  0  0  0  0  0
    0.8667   -6.9672    0.0000 H   0  0  0  0  0  0  0  0  0  0  0  0
   -0.1007   -8.6353    0.0000 H   0  0  0  0  0  0  0  0  0  0  0  0
   -0.6081   -5.7248    0.0000 C   0  0  0  0  0  0  0  0  0  0  0  0
    0.8686   -5.9882    0.0000 H   0  0  0  0  0  0  0  0  0  0  0  0
   -0.0923   -4.3162    0.0000 H   0  0  0  0  0  0  0  0  0  0  0  0
   -2.3208   -4.7314    0.0000 N   0  0  0  0  0  0  0  0  0  0  0  0
   -3.6213   -5.4789    0.0000 C   0  0  0  0  0  0  0  0  0  0  0  0
   -2.6594   -6.6298    0.0000 H   0  0  0  0  0  0  0  0  0  0  0  0
   -4.5878   -6.6260    0.0000 H   0  0  0  0  0  0  0  0  0  0  0  0
   -4.9189   -4.7263    0.0000 C   0  0  0  0  0  0  0  0  0  0  0  0
   -6.2194   -5.4738    0.0000 H   0  0  0  0  0  0  0  0  0  0  0  0
   -5.8808   -3.5754    0.0000 H   0  0  0  0  0  0  0  0  0  0  0  0
   -3.6432   -3.2120    0.0000 H   0  0  0  0  0  0  0  0  0  0  0  0
   -2.3179   -3.2314    0.0000 C   0  0  0  0  0  0  0  0  0  0  0  0
   -0.8412   -3.4948    0.0000 H   0  0  0  0  0  0  0  0  0  0  0  0
   -1.8021   -1.8229    0.0000 H   0  0  0  0  0  0  0  0  0  0  0  0
   -4.0307   -2.2381    0.0000 C   0  0  0  0  0  0  0  0  0  0  0  0
   -5.5074   -1.9747    0.0000 H   0  0  0  0  0  0  0  0  0  0  0  0
   -4.5465   -3.6466    0.0000 H   0  0  0  0  0  0  0  0  0  0  0  0
   -4.0277   -0.7381    0.0000 N   0  0  0  0  0  0  0  0  0  0  0  0
   -5.3253    0.0145    0.0000 C   0  0  0  0  0  0  0  0  0  0  0  0
   -5.3223    1.5145    0.0000 O   0  0  0  0  0  0  0  0  0  0  0  0
   -6.6258   -0.7330    0.0000 C   0  0  0  0  0  0  0  0  0  0  0  0
   -7.9183    0.0085    0.0000 C   0  0  0  0  0  0  0  0  0  0  0  0
   -9.2157   -0.7286    0.0000 C   0  0  0  0  0  0  0  0  0  0  0  0
  -10.5083    0.0324    0.0000 H   0  0  0  0  0  0  0  0  0  0  0  0
   -9.2307   -2.2244    0.0000 C   0  0  0  0  0  0  0  0  0  0  0  0
   -7.9382   -2.9658    0.0000 C   0  0  0  0  0  0  0  0  0  0  0  0
   -6.6358   -2.2201    0.0000 C   0  0  0  0  0  0  0  0  0  0  0  0
   -5.3406   -2.9768    0.0000 H   0  0  0  0  0  0  0  0  0  0  0  0
   -7.9389   -4.4658    0.0000 Cl  0  0  0  0  0  0  0  0  0  0  0  0
  -10.5325   -2.9697    0.0000 N   0  0  0  0  0  0  0  0  0  0  0  0
  -11.8288   -2.2150    0.0000 H   0  0  0  0  0  0  0  0  0  0  0  0
  -10.5379   -4.4697    0.0000 H   0  0  0  0  0  0  0  0  0  0  0  0
   -7.9151    1.5085    0.0000 O   0  0  0  0  0  0  0  0  0  0  0  0
   -9.2126    2.2612    0.0000 C   0  0  0  0  0  0  0  0  0  0  0  0
  -10.5132    1.5139    0.0000 H   0  0  0  0  0  0  0  0  0  0  0  0
  -10.1744    3.4122    0.0000 H   0  0  0  0  0  0  0  0  0  0  0  0
   -8.2460    3.4082    0.0000 H   0  0  0  0  0  0  0  0  0  0  0  0
   -2.7272    0.0094    0.0000 O   0  0  0  0  0  0  0  0  0  0  0  0
   -2.7243    1.5094    0.0000 H   0  0  0  0  0  0  0  0  0  0  0  0
  1  2  1  0  0  0  0 
  1  3  1  0  0  0  0 
  1  4  1  0  0  0  0 
  1  5  1  0  0  0  0 
  5  6  1  0  0  0  0 
  5  7  1  0  0  0  0 
  5  8  1  0  0  0  0 
  8  9  1  0  0  0  0 
  9 10  1  0  0  0  0 
  9 11  1  0  0  0  0 
  9 12  1  0  0  0  0 
 12 13  1  0  0  0  0 
 12 14  1  0  0  0  0 
 12 15  1  0  0  0  0 
  8 16  1  0  0  0  0 
 16 17  1  0  0  0  0 
 16 18  1  0  0  0  0 
 16 19  1  0  0  0  0 
 19 20  1  0  0  0  0 
 19 21  1  0  0  0  0 
 19 22  1  0  0  0  0 
 22 23  1  0  0  0  0 
 23 24  2  0  0  0  0 
 23 25  1  0  0  0  0 
 25 26  2  0  0  0  0 
 26 27  1  0  0  0  0 
 27 28  1  0  0  0  0 
 27 29  2  0  0  0  0 
 29 30  1  0  0  0  0 
 30 31  2  0  0  0  0 
 25 31  1  0  0  0  0 
 31 32  1  0  0  0  0 
 30 33  1  0  0  0  0 
 29 34  1  0  0  0  0 
 34 35  1  0  0  0  0 
 34 36  1  0  0  0  0 
 26 37  1  0  0  0  0 
 37 38  1  0  0  0  0 
 38 39  1  0  0  0  0 
 38 40  1  0  0  0  0 
 38 41  1  0  0  0  0 
 22 42  1  0  0  0  0 
 42 43  1  0  0  0  0 
M  END
> <Rank>
25

> <Priority_score>
0.108

> <Reaction_type>
amine hydroxylation

> <Parent_ID>
22

> <Parent_InChI>
InChI=1S/C14H22ClN3O2/c1-4-18(5-2)7-6-17-14(19)10-8-11(15)12(16)9-13(10)20-3/h8-9H,4-7,16H2,1-3H3,(H,17,19)

> <Parent_SMILES>
CCN(CC)CCNC(=O)c1cc(Cl)c(N)cc1OC

$$$$
Molecule 22_metabolite 27
  CDK     0516241031

 24 23  0  0  0  0  0  0  0  0999 V2000
    5.9549   -4.3471    0.0000 C   0  0  0  0  0  0  0  0  0  0  0  0
    7.2540   -3.5971    0.0000 H   0  0  0  0  0  0  0  0  0  0  0  0
    6.9191   -5.4962    0.0000 H   0  0  0  0  0  0  0  0  0  0  0  0
    4.9908   -5.4962    0.0000 H   0  0  0  0  0  0  0  0  0  0  0  0
    4.6559   -3.5971    0.0000 C   0  0  0  0  0  0  0  0  0  0  0  0
    3.1787   -3.3367    0.0000 H   0  0  0  0  0  0  0  0  0  0  0  0
    4.1429   -5.0067    0.0000 H   0  0  0  0  0  0  0  0  0  0  0  0
    4.6559   -2.0971    0.0000 N   0  0  0  0  0  0  0  0  0  0  0  0
    5.9549   -1.3471    0.0000 C   0  0  0  0  0  0  0  0  0  0  0  0
    6.4680   -2.7567    0.0000 H   0  0  0  0  0  0  0  0  0  0  0  0
    7.4321   -1.0867    0.0000 H   0  0  0  0  0  0  0  0  0  0  0  0
    5.9549    0.1529    0.0000 C   0  0  0  0  0  0  0  0  0  0  0  0
    4.6559    0.9029    0.0000 H   0  0  0  0  0  0  0  0  0  0  0  0
    6.4680    1.5624    0.0000 H   0  0  0  0  0  0  0  0  0  0  0  0
    7.4321   -0.1076    0.0000 H   0  0  0  0  0  0  0  0  0  0  0  0
    2.9412   -1.1071    0.0000 C   0  0  0  0  0  0  0  0  0  0  0  0
    1.4640   -0.8467    0.0000 H   0  0  0  0  0  0  0  0  0  0  0  0
    2.4281   -2.5167    0.0000 H   0  0  0  0  0  0  0  0  0  0  0  0
    2.9412    0.3929    0.0000 C   0  0  0  0  0  0  0  0  0  0  0  0
    4.4184    0.1324    0.0000 H   0  0  0  0  0  0  0  0  0  0  0  0
    3.4542    1.8024    0.0000 H   0  0  0  0  0  0  0  0  0  0  0  0
    1.6421    1.1429    0.0000 N   0  0  0  0  0  0  0  0  0  0  0  0
    1.6421    2.6429    0.0000 H   0  0  0  0  0  0  0  0  0  0  0  0
    0.3431    0.3929    0.0000 H   0  0  0  0  0  0  0  0  0  0  0  0
  1  2  1  0  0  0  0 
  1  3  1  0  0  0  0 
  1  4  1  0  0  0  0 
  1  5  1  0  0  0  0 
  5  6  1  0  0  0  0 
  5  7  1  0  0  0  0 
  5  8  1  0  0  0  0 
  8  9  1  0  0  0  0 
  9 10  1  0  0  0  0 
  9 11  1  0  0  0  0 
  9 12  1  0  0  0  0 
 12 13  1  0  0  0  0 
 12 14  1  0  0  0  0 
 12 15  1  0  0  0  0 
  8 16  1  0  0  0  0 
 16 17  1  0  0  0  0 
 16 18  1  0  0  0  0 
 16 19  1  0  0  0  0 
 19 20  1  0  0  0  0 
 19 21  1  0  0  0  0 
 19 22  1  0  0  0  0 
 22 23  1  0  0  0  0 
 22 24  1  0  0  0  0 
M  END
> <Rank>
25

> <Priority_score>
0.108

> <Reaction_type>
hydrolysis_(secondary_amide)

> <Parent_ID>
22

> <Parent_InChI>
InChI=1S/C14H22ClN3O2/c1-4-18(5-2)7-6-17-14(19)10-8-11(15)12(16)9-13(10)20-3/h8-9H,4-7,16H2,1-3H3,(H,17,19)

> <Parent_SMILES>
CCN(CC)CCNC(=O)c1cc(Cl)c(N)cc1OC

$$$$
Molecule 22_metabolite 28
  CDK     0516241031

 39 39  0  0  0  0  0  0  0  0999 V2000
    4.5607   -4.7838    0.0000 C   0  0  0  0  0  0  0  0  0  0  0  0
    4.5577   -6.2838    0.0000 H   0  0  0  0  0  0  0  0  0  0  0  0
    5.0765   -3.3753    0.0000 H   0  0  0  0  0  0  0  0  0  0  0  0
    6.0374   -5.0472    0.0000 H   0  0  0  0  0  0  0  0  0  0  0  0
    3.2631   -4.0312    0.0000 C   0  0  0  0  0  0  0  0  0  0  0  0
    4.2296   -2.8841    0.0000 H   0  0  0  0  0  0  0  0  0  0  0  0
    2.3012   -2.8803    0.0000 H   0  0  0  0  0  0  0  0  0  0  0  0
    1.9626   -4.7787    0.0000 N   0  0  0  0  0  0  0  0  0  0  0  0
    1.9597   -6.2787    0.0000 C   0  0  0  0  0  0  0  0  0  0  0  0
    3.4374   -6.0211    0.0000 H   0  0  0  0  0  0  0  0  0  0  0  0
    2.4699   -7.6892    0.0000 H   0  0  0  0  0  0  0  0  0  0  0  0
    0.6592   -7.0261    0.0000 C   0  0  0  0  0  0  0  0  0  0  0  0
   -0.6384   -6.2736    0.0000 H   0  0  0  0  0  0  0  0  0  0  0  0
   -0.3073   -8.1733    0.0000 H   0  0  0  0  0  0  0  0  0  0  0  0
    1.6211   -8.1771    0.0000 H   0  0  0  0  0  0  0  0  0  0  0  0
    0.2498   -3.7853    0.0000 C   0  0  0  0  0  0  0  0  0  0  0  0
    1.2163   -2.6381    0.0000 H   0  0  0  0  0  0  0  0  0  0  0  0
   -0.7121   -2.6344    0.0000 H   0  0  0  0  0  0  0  0  0  0  0  0
   -1.0507   -4.5328    0.0000 C   0  0  0  0  0  0  0  0  0  0  0  0
   -2.0171   -5.6799    0.0000 H   0  0  0  0  0  0  0  0  0  0  0  0
   -0.0888   -5.6837    0.0000 H   0  0  0  0  0  0  0  0  0  0  0  0
   -2.3482   -3.7802    0.0000 N   0  0  0  0  0  0  0  0  0  0  0  0
   -2.3453   -2.2802    0.0000 H   0  0  0  0  0  0  0  0  0  0  0  0
   -3.6487   -4.5277    0.0000 C   0  0  0  0  0  0  0  0  0  0  0  0
   -3.6517   -6.0277    0.0000 O   0  0  0  0  0  0  0  0  0  0  0  0
   -4.9463   -3.7751    0.0000 C   0  0  0  0  0  0  0  0  0  0  0  0
   -6.2417   -4.5115    0.0000 C   0  0  0  0  0  0  0  0  0  0  0  0
   -7.5362   -3.7693    0.0000 C   0  0  0  0  0  0  0  0  0  0  0  0
   -8.8318   -4.5252    0.0000 H   0  0  0  0  0  0  0  0  0  0  0  0
   -7.5454   -2.2734    0.0000 C   0  0  0  0  0  0  0  0  0  0  0  0
   -6.2500   -1.5371    0.0000 C   0  0  0  0  0  0  0  0  0  0  0  0
   -4.9505   -2.2879    0.0000 C   0  0  0  0  0  0  0  0  0  0  0  0
   -3.6523   -1.5363    0.0000 H   0  0  0  0  0  0  0  0  0  0  0  0
   -6.2447   -0.0371    0.0000 Cl  0  0  0  0  0  0  0  0  0  0  0  0
   -8.8442   -1.5231    0.0000 N   0  0  0  0  0  0  0  0  0  0  0  0
  -10.1434   -2.2727    0.0000 H   0  0  0  0  0  0  0  0  0  0  0  0
   -8.8437   -0.0231    0.0000 H   0  0  0  0  0  0  0  0  0  0  0  0
   -6.2445   -6.0115    0.0000 O   0  0  0  0  0  0  0  0  0  0  0  0
   -7.5449   -6.7591    0.0000 H   0  0  0  0  0  0  0  0  0  0  0  0
  1  2  1  0  0  0  0 
  1  3  1  0  0  0  0 
  1  4  1  0  0  0  0 
  1  5  1  0  0  0  0 
  5  6  1  0  0  0  0 
  5  7  1  0  0  0  0 
  5  8  1  0  0  0  0 
  8  9  1  0  0  0  0 
  9 10  1  0  0  0  0 
  9 11  1  0  0  0  0 
  9 12  1  0  0  0  0 
 12 13  1  0  0  0  0 
 12 14  1  0  0  0  0 
 12 15  1  0  0  0  0 
  8 16  1  0  0  0  0 
 16 17  1  0  0  0  0 
 16 18  1  0  0  0  0 
 16 19  1  0  0  0  0 
 19 20  1  0  0  0  0 
 19 21  1  0  0  0  0 
 19 22  1  0  0  0  0 
 22 23  1  0  0  0  0 
 22 24  1  0  0  0  0 
 24 25  2  0  0  0  0 
 24 26  1  0  0  0  0 
 26 27  2  0  0  0  0 
 27 28  1  0  0  0  0 
 28 29  1  0  0  0  0 
 28 30  2  0  0  0  0 
 30 31  1  0  0  0  0 
 31 32  2  0  0  0  0 
 26 32  1  0  0  0  0 
 32 33  1  0  0  0  0 
 31 34  1  0  0  0  0 
 30 35  1  0  0  0  0 
 35 36  1  0  0  0  0 
 35 37  1  0  0  0  0 
 27 38  1  0  0  0  0 
 38 39  1  0  0  0  0 
M  END
> <Rank>
28

> <Priority_score>
0.104

> <Reaction_type>
O-demethylation

> <Parent_ID>
22

> <Parent_InChI>
InChI=1S/C14H22ClN3O2/c1-4-18(5-2)7-6-17-14(19)10-8-11(15)12(16)9-13(10)20-3/h8-9H,4-7,16H2,1-3H3,(H,17,19)

> <Parent_SMILES>
CCN(CC)CCNC(=O)c1cc(Cl)c(N)cc1OC

$$$$
Molecule 22_metabolite 29
  CDK     0516241031

 43 43  0  0  0  0  0  0  0  0999 V2000
    4.0341   -6.8721    0.0000 C   0  0  0  0  0  0  0  0  0  0  0  0
    3.2816   -8.1697    0.0000 H   0  0  0  0  0  0  0  0  0  0  0  0
    5.1851   -5.9102    0.0000 H   0  0  0  0  0  0  0  0  0  0  0  0
    5.1813   -7.8386    0.0000 H   0  0  0  0  0  0  0  0  0  0  0  0
    3.2867   -5.5716    0.0000 C   0  0  0  0  0  0  0  0  0  0  0  0
    4.6972   -5.0613    0.0000 H   0  0  0  0  0  0  0  0  0  0  0  0
    3.0291   -4.0939    0.0000 H   0  0  0  0  0  0  0  0  0  0  0  0
    1.7867   -5.5687    0.0000 N   0  0  0  0  0  0  0  0  0  0  0  0
    1.0341   -6.8662    0.0000 C   0  0  0  0  0  0  0  0  0  0  0  0
    2.4427   -7.3820    0.0000 H   0  0  0  0  0  0  0  0  0  0  0  0
    0.7708   -8.3429    0.0000 H   0  0  0  0  0  0  0  0  0  0  0  0
   -0.4659   -6.8633    0.0000 C   0  0  0  0  0  0  0  0  0  0  0  0
   -1.2133   -5.5628    0.0000 H   0  0  0  0  0  0  0  0  0  0  0  0
   -1.8764   -7.3735    0.0000 H   0  0  0  0  0  0  0  0  0  0  0  0
   -0.2083   -8.3410    0.0000 H   0  0  0  0  0  0  0  0  0  0  0  0
    0.8000   -3.8520    0.0000 C   0  0  0  0  0  0  0  0  0  0  0  0
    2.2106   -3.3417    0.0000 H   0  0  0  0  0  0  0  0  0  0  0  0
    0.5425   -2.3743    0.0000 H   0  0  0  0  0  0  0  0  0  0  0  0
   -0.7000   -3.8490    0.0000 C   0  0  0  0  0  0  0  0  0  0  0  0
   -2.1105   -4.3593    0.0000 H   0  0  0  0  0  0  0  0  0  0  0  0
   -0.4424   -5.3268    0.0000 H   0  0  0  0  0  0  0  0  0  0  0  0
   -1.4474   -2.5485    0.0000 N   0  0  0  0  0  0  0  0  0  0  0  0
   -0.6949   -1.2510    0.0000 H   0  0  0  0  0  0  0  0  0  0  0  0
   -2.9474   -2.5456    0.0000 C   0  0  0  0  0  0  0  0  0  0  0  0
   -3.6999   -3.8432    0.0000 O   0  0  0  0  0  0  0  0  0  0  0  0
   -3.6948   -1.2451    0.0000 C   0  0  0  0  0  0  0  0  0  0  0  0
   -5.1848   -1.2351    0.0000 C   0  0  0  0  0  0  0  0  0  0  0  0
   -5.9348    0.0549    0.0000 C   0  0  0  0  0  0  0  0  0  0  0  0
   -7.4348    0.0481    0.0000 H   0  0  0  0  0  0  0  0  0  0  0  0
   -5.1948    1.3549    0.0000 C   0  0  0  0  0  0  0  0  0  0  0  0
   -3.7048    1.3449    0.0000 C   0  0  0  0  0  0  0  0  0  0  0  0
   -2.9548    0.0449    0.0000 C   0  0  0  0  0  0  0  0  0  0  0  0
   -1.4548    0.0468    0.0000 H   0  0  0  0  0  0  0  0  0  0  0  0
   -2.9503    2.6413    0.0000 Cl  0  0  0  0  0  0  0  0  0  0  0  0
   -5.9445    2.6542    0.0000 N   0  0  0  0  0  0  0  0  0  0  0  0
   -7.4445    2.6546    0.0000 H   0  0  0  0  0  0  0  0  0  0  0  0
   -5.1941    3.9530    0.0000 H   0  0  0  0  0  0  0  0  0  0  0  0
   -5.9372   -2.5327    0.0000 O   0  0  0  0  0  0  0  0  0  0  0  0
   -7.4372   -2.5300    0.0000 C   0  0  0  0  0  0  0  0  0  0  0  0
   -8.8477   -3.0404    0.0000 H   0  0  0  0  0  0  0  0  0  0  0  0
   -7.1795   -4.0077    0.0000 H   0  0  0  0  0  0  0  0  0  0  0  0
   -8.1848   -1.2296    0.0000 O   0  0  0  0  0  0  0  0  0  0  0  0
   -9.6848   -1.2268    0.0000 H   0  0  0  0  0  0  0  0  0  0  0  0
  1  2  1  0  0  0  0 
  1  3  1  0  0  0  0 
  1  4  1  0  0  0  0 
  1  5  1  0  0  0  0 
  5  6  1  0  0  0  0 
  5  7  1  0  0  0  0 
  5  8  1  0  0  0  0 
  8  9  1  0  0  0  0 
  9 10  1  0  0  0  0 
  9 11  1  0  0  0  0 
  9 12  1  0  0  0  0 
 12 13  1  0  0  0  0 
 12 14  1  0  0  0  0 
 12 15  1  0  0  0  0 
  8 16  1  0  0  0  0 
 16 17  1  0  0  0  0 
 16 18  1  0  0  0  0 
 16 19  1  0  0  0  0 
 19 20  1  0  0  0  0 
 19 21  1  0  0  0  0 
 19 22  1  0  0  0  0 
 22 23  1  0  0  0  0 
 22 24  1  0  0  0  0 
 24 25  2  0  0  0  0 
 24 26  1  0  0  0  0 
 26 27  2  0  0  0  0 
 27 28  1  0  0  0  0 
 28 29  1  0  0  0  0 
 28 30  2  0  0  0  0 
 30 31  1  0  0  0  0 
 31 32  2  0  0  0  0 
 26 32  1  0  0  0  0 
 32 33  1  0  0  0  0 
 31 34  1  0  0  0  0 
 30 35  1  0  0  0  0 
 35 36  1  0  0  0  0 
 35 37  1  0  0  0  0 
 27 38  1  0  0  0  0 
 38 39  1  0  0  0  0 
 39 40  1  0  0  0  0 
 39 41  1  0  0  0  0 
 39 42  1  0  0  0  0 
 42 43  1  0  0  0  0 
M  END
> <Rank>
28

> <Priority_score>
0.104

> <Reaction_type>
aliphatic hydroxylation

> <Parent_ID>
22

> <Parent_InChI>
InChI=1S/C14H22ClN3O2/c1-4-18(5-2)7-6-17-14(19)10-8-11(15)12(16)9-13(10)20-3/h8-9H,4-7,16H2,1-3H3,(H,17,19)

> <Parent_SMILES>
CCN(CC)CCNC(=O)c1cc(Cl)c(N)cc1OC

$$$$
Molecule 22_metabolite 30
  CDK     0516241031

 43 43  0  0  0  0  0  0  0  0999 V2000
   -4.9843   -5.7013    0.0000 C   0  0  0  0  0  0  0  0  0  0  0  0
   -3.6867   -6.4538    0.0000 H   0  0  0  0  0  0  0  0  0  0  0  0
   -6.4610   -5.4379    0.0000 H   0  0  0  0  0  0  0  0  0  0  0  0
   -5.5001   -7.1098    0.0000 H   0  0  0  0  0  0  0  0  0  0  0  0
   -4.9814   -4.2013    0.0000 C   0  0  0  0  0  0  0  0  0  0  0  0
   -5.4916   -2.7907    0.0000 H   0  0  0  0  0  0  0  0  0  0  0  0
   -6.4591   -4.4588    0.0000 H   0  0  0  0  0  0  0  0  0  0  0  0
   -3.6808   -3.4538    0.0000 N   0  0  0  0  0  0  0  0  0  0  0  0
   -3.6770   -1.4738    0.0000 C   0  0  0  0  0  0  0  0  0  0  0  0
   -2.2003   -1.7372    0.0000 H   0  0  0  0  0  0  0  0  0  0  0  0
   -3.1612   -0.0653    0.0000 H   0  0  0  0  0  0  0  0  0  0  0  0
   -4.9745   -0.7213    0.0000 C   0  0  0  0  0  0  0  0  0  0  0  0
   -5.9364    0.4297    0.0000 H   0  0  0  0  0  0  0  0  0  0  0  0
   -4.0081    0.4259    0.0000 H   0  0  0  0  0  0  0  0  0  0  0  0
   -6.2750   -1.4687    0.0000 N   0  0  0  0  0  0  0  0  0  0  0  0
   -6.2780   -2.9687    0.0000 H   0  0  0  0  0  0  0  0  0  0  0  0
   -7.5726   -0.7162    0.0000 C   0  0  0  0  0  0  0  0  0  0  0  0
   -7.5696    0.7838    0.0000 O   0  0  0  0  0  0  0  0  0  0  0  0
   -8.8731   -1.4636    0.0000 C   0  0  0  0  0  0  0  0  0  0  0  0
  -10.1656   -0.7222    0.0000 C   0  0  0  0  0  0  0  0  0  0  0  0
  -11.4630   -1.4593    0.0000 C   0  0  0  0  0  0  0  0  0  0  0  0
  -12.7556   -0.6983    0.0000 H   0  0  0  0  0  0  0  0  0  0  0  0
  -11.4780   -2.9551    0.0000 C   0  0  0  0  0  0  0  0  0  0  0  0
  -10.1855   -3.6965    0.0000 C   0  0  0  0  0  0  0  0  0  0  0  0
   -8.8831   -2.9508    0.0000 C   0  0  0  0  0  0  0  0  0  0  0  0
   -7.5879   -3.7075    0.0000 H   0  0  0  0  0  0  0  0  0  0  0  0
  -10.1862   -5.1965    0.0000 Cl  0  0  0  0  0  0  0  0  0  0  0  0
  -12.7798   -3.7003    0.0000 N   0  0  0  0  0  0  0  0  0  0  0  0
  -14.0761   -2.9456    0.0000 H   0  0  0  0  0  0  0  0  0  0  0  0
  -12.7852   -5.2003    0.0000 H   0  0  0  0  0  0  0  0  0  0  0  0
  -10.1625    0.7778    0.0000 O   0  0  0  0  0  0  0  0  0  0  0  0
  -11.4599    1.5305    0.0000 C   0  0  0  0  0  0  0  0  0  0  0  0
  -12.7605    0.7832    0.0000 H   0  0  0  0  0  0  0  0  0  0  0  0
  -12.4217    2.6816    0.0000 H   0  0  0  0  0  0  0  0  0  0  0  0
  -10.4933    2.6776    0.0000 H   0  0  0  0  0  0  0  0  0  0  0  0
   -2.3833   -4.2064    0.0000 C   0  0  0  0  0  0  0  0  0  0  0  0
   -0.9066   -4.4697    0.0000 H   0  0  0  0  0  0  0  0  0  0  0  0
   -1.8675   -2.7978    0.0000 H   0  0  0  0  0  0  0  0  0  0  0  0
   -2.3862   -5.7064    0.0000 C   0  0  0  0  0  0  0  0  0  0  0  0
   -3.8629   -5.4430    0.0000 H   0  0  0  0  0  0  0  0  0  0  0  0
   -2.9020   -7.1149    0.0000 H   0  0  0  0  0  0  0  0  0  0  0  0
   -1.0887   -6.4589    0.0000 O   0  0  0  0  0  0  0  0  0  0  0  0
   -1.0916   -7.9589    0.0000 H   0  0  0  0  0  0  0  0  0  0  0  0
  1  2  1  0  0  0  0 
  1  3  1  0  0  0  0 
  1  4  1  0  0  0  0 
  1  5  1  0  0  0  0 
  5  6  1  0  0  0  0 
  5  7  1  0  0  0  0 
  5  8  1  0  0  0  0 
  8  9  1  0  0  0  0 
  9 10  1  0  0  0  0 
  9 11  1  0  0  0  0 
  9 12  1  0  0  0  0 
 12 13  1  0  0  0  0 
 12 14  1  0  0  0  0 
 12 15  1  0  0  0  0 
 15 16  1  0  0  0  0 
 15 17  1  0  0  0  0 
 17 18  2  0  0  0  0 
 17 19  1  0  0  0  0 
 19 20  2  0  0  0  0 
 20 21  1  0  0  0  0 
 21 22  1  0  0  0  0 
 21 23  2  0  0  0  0 
 23 24  1  0  0  0  0 
 24 25  2  0  0  0  0 
 19 25  1  0  0  0  0 
 25 26  1  0  0  0  0 
 24 27  1  0  0  0  0 
 23 28  1  0  0  0  0 
 28 29  1  0  0  0  0 
 28 30  1  0  0  0  0 
 20 31  1  0  0  0  0 
 31 32  1  0  0  0  0 
 32 33  1  0  0  0  0 
 32 34  1  0  0  0  0 
 32 35  1  0  0  0  0 
  8 36  1  0  0  0  0 
 36 37  1  0  0  0  0 
 36 38  1  0  0  0  0 
 36 39  1  0  0  0  0 
 39 40  1  0  0  0  0 
 39 41  1  0  0  0  0 
 39 42  1  0  0  0  0 
 42 43  1  0  0  0  0 
M  END
> <Rank>
30

> <Priority_score>
0.084

> <Reaction_type>
aliphatic hydroxylation

> <Parent_ID>
22

> <Parent_InChI>
InChI=1S/C14H22ClN3O2/c1-4-18(5-2)7-6-17-14(19)10-8-11(15)12(16)9-13(10)20-3/h8-9H,4-7,16H2,1-3H3,(H,17,19)

> <Parent_SMILES>
CCN(CC)CCNC(=O)c1cc(Cl)c(N)cc1OC

$$$$
Molecule 22_metabolite 31
  CDK     0516241031

 21 20  0  0  0  0  0  0  0  0999 V2000
    4.2610   -4.5510    0.0000 C   0  0  0  0  0  0  0  0  0  0  0  0
    5.5601   -3.8010    0.0000 H   0  0  0  0  0  0  0  0  0  0  0  0
    5.2252   -5.7001    0.0000 H   0  0  0  0  0  0  0  0  0  0  0  0
    3.2969   -5.7001    0.0000 H   0  0  0  0  0  0  0  0  0  0  0  0
    2.9620   -3.8010    0.0000 C   0  0  0  0  0  0  0  0  0  0  0  0
    1.4848   -3.5406    0.0000 H   0  0  0  0  0  0  0  0  0  0  0  0
    2.4490   -5.2106    0.0000 H   0  0  0  0  0  0  0  0  0  0  0  0
    2.9620   -2.3010    0.0000 N   0  0  0  0  0  0  0  0  0  0  0  0
    1.2473   -1.3110    0.0000 C   0  0  0  0  0  0  0  0  0  0  0  0
   -0.2299   -1.0506    0.0000 H   0  0  0  0  0  0  0  0  0  0  0  0
    0.7342   -2.7206    0.0000 H   0  0  0  0  0  0  0  0  0  0  0  0
    1.2473    0.1890    0.0000 C   0  0  0  0  0  0  0  0  0  0  0  0
   -0.0518    0.9390    0.0000 H   0  0  0  0  0  0  0  0  0  0  0  0
    2.7245   -0.0715    0.0000 H   0  0  0  0  0  0  0  0  0  0  0  0
    1.7603    1.5985    0.0000 H   0  0  0  0  0  0  0  0  0  0  0  0
    4.2610   -1.5510    0.0000 C   0  0  0  0  0  0  0  0  0  0  0  0
    4.7741   -2.9606    0.0000 H   0  0  0  0  0  0  0  0  0  0  0  0
    5.7383   -1.2906    0.0000 H   0  0  0  0  0  0  0  0  0  0  0  0
    4.2610   -0.0510    0.0000 C   0  0  0  0  0  0  0  0  0  0  0  0
    5.5601    0.6990    0.0000 H   0  0  0  0  0  0  0  0  0  0  0  0
    2.9620    0.6990    0.0000 O   0  0  0  0  0  0  0  0  0  0  0  0
  1  2  1  0  0  0  0 
  1  3  1  0  0  0  0 
  1  4  1  0  0  0  0 
  1  5  1  0  0  0  0 
  5  6  1  0  0  0  0 
  5  7  1  0  0  0  0 
  5  8  1  0  0  0  0 
  8  9  1  0  0  0  0 
  9 10  1  0  0  0  0 
  9 11  1  0  0  0  0 
  9 12  1  0  0  0  0 
 12 13  1  0  0  0  0 
 12 14  1  0  0  0  0 
 12 15  1  0  0  0  0 
  8 16  1  0  0  0  0 
 16 17  1  0  0  0  0 
 16 18  1  0  0  0  0 
 16 19  1  0  0  0  0 
 19 20  1  0  0  0  0 
 19 21  2  0  0  0  0 
M  END
> <Rank>
31

> <Priority_score>
0.016

> <Reaction_type>
N-dealkylation

> <Parent_ID>
22

> <Parent_InChI>
InChI=1S/C14H22ClN3O2/c1-4-18(5-2)7-6-17-14(19)10-8-11(15)12(16)9-13(10)20-3/h8-9H,4-7,16H2,1-3H3,(H,17,19)

> <Parent_SMILES>
CCN(CC)CCNC(=O)c1cc(Cl)c(N)cc1OC

$$$$
Molecule 22_metabolite 32
  CDK     0516241031

 43 43  0  0  0  0  0  0  0  0999 V2000
    6.7186   -6.7032    0.0000 C   0  0  0  0  0  0  0  0  0  0  0  0
    7.4661   -8.0037    0.0000 H   0  0  0  0  0  0  0  0  0  0  0  0
    6.4611   -5.2254    0.0000 H   0  0  0  0  0  0  0  0  0  0  0  0
    8.1292   -6.1929    0.0000 H   0  0  0  0  0  0  0  0  0  0  0  0
    5.2186   -6.7002    0.0000 C   0  0  0  0  0  0  0  0  0  0  0  0
    5.4820   -5.2235    0.0000 H   0  0  0  0  0  0  0  0  0  0  0  0
    3.8101   -6.1844    0.0000 H   0  0  0  0  0  0  0  0  0  0  0  0
    4.2253   -8.4130    0.0000 N   0  0  0  0  0  0  0  0  0  0  0  0
    4.9727   -9.7135    0.0000 C   0  0  0  0  0  0  0  0  0  0  0  0
    6.1237   -8.7516    0.0000 H   0  0  0  0  0  0  0  0  0  0  0  0
    6.1199  -10.6799    0.0000 H   0  0  0  0  0  0  0  0  0  0  0  0
    4.2202  -11.0111    0.0000 C   0  0  0  0  0  0  0  0  0  0  0  0
    2.7202  -11.0081    0.0000 H   0  0  0  0  0  0  0  0  0  0  0  0
    3.9568  -12.4878    0.0000 H   0  0  0  0  0  0  0  0  0  0  0  0
    5.6287  -11.5269    0.0000 H   0  0  0  0  0  0  0  0  0  0  0  0
    2.2453   -8.4091    0.0000 C   0  0  0  0  0  0  0  0  0  0  0  0
    2.5028   -9.8868    0.0000 H   0  0  0  0  0  0  0  0  0  0  0  0
    0.8347   -8.9194    0.0000 H   0  0  0  0  0  0  0  0  0  0  0  0
    1.4978   -7.1086    0.0000 C   0  0  0  0  0  0  0  0  0  0  0  0
    1.2402   -5.6309    0.0000 H   0  0  0  0  0  0  0  0  0  0  0  0
   -0.0022   -7.1056    0.0000 N   0  0  0  0  0  0  0  0  0  0  0  0
   -0.7547   -8.4032    0.0000 H   0  0  0  0  0  0  0  0  0  0  0  0
   -0.7496   -5.8051    0.0000 C   0  0  0  0  0  0  0  0  0  0  0  0
    0.0029   -4.5076    0.0000 O   0  0  0  0  0  0  0  0  0  0  0  0
   -2.2496   -5.8022    0.0000 C   0  0  0  0  0  0  0  0  0  0  0  0
   -2.9982   -4.5139    0.0000 C   0  0  0  0  0  0  0  0  0  0  0  0
   -4.4904   -4.5035    0.0000 C   0  0  0  0  0  0  0  0  0  0  0  0
   -5.2293   -3.1981    0.0000 H   0  0  0  0  0  0  0  0  0  0  0  0
   -5.2513   -5.7914    0.0000 C   0  0  0  0  0  0  0  0  0  0  0  0
   -4.5027   -7.0797    0.0000 C   0  0  0  0  0  0  0  0  0  0  0  0
   -3.0018   -7.0851    0.0000 C   0  0  0  0  0  0  0  0  0  0  0  0
   -2.2586   -8.3880    0.0000 H   0  0  0  0  0  0  0  0  0  0  0  0
   -5.2532   -8.3784    0.0000 Cl  0  0  0  0  0  0  0  0  0  0  0  0
   -6.7513   -5.7859    0.0000 N   0  0  0  0  0  0  0  0  0  0  0  0
   -7.4965   -4.4842    0.0000 H   0  0  0  0  0  0  0  0  0  0  0  0
   -7.5060   -7.0822    0.0000 H   0  0  0  0  0  0  0  0  0  0  0  0
   -2.2455   -3.2164    0.0000 O   0  0  0  0  0  0  0  0  0  0  0  0
   -2.9928   -1.9158    0.0000 C   0  0  0  0  0  0  0  0  0  0  0  0
   -4.4928   -1.9127    0.0000 H   0  0  0  0  0  0  0  0  0  0  0  0
   -3.2502   -0.4380    0.0000 H   0  0  0  0  0  0  0  0  0  0  0  0
   -1.5822   -1.4057    0.0000 H   0  0  0  0  0  0  0  0  0  0  0  0
    2.9084   -6.5983    0.0000 O   0  0  0  0  0  0  0  0  0  0  0  0
    3.4246   -3.7040    0.0000 H   0  0  0  0  0  0  0  0  0  0  0  0
  1  2  1  0  0  0  0 
  1  3  1  0  0  0  0 
  1  4  1  0  0  0  0 
  1  5  1  0  0  0  0 
  5  6  1  0  0  0  0 
  5  7  1  0  0  0  0 
  5  8  1  0  0  0  0 
  8  9  1  0  0  0  0 
  9 10  1  0  0  0  0 
  9 11  1  0  0  0  0 
  9 12  1  0  0  0  0 
 12 13  1  0  0  0  0 
 12 14  1  0  0  0  0 
 12 15  1  0  0  0  0 
  8 16  1  0  0  0  0 
 16 17  1  0  0  0  0 
 16 18  1  0  0  0  0 
 16 19  1  0  0  0  0 
 19 20  1  0  0  0  0 
 19 21  1  0  0  0  0 
 21 22  1  0  0  0  0 
 21 23  1  0  0  0  0 
 23 24  2  0  0  0  0 
 23 25  1  0  0  0  0 
 25 26  2  0  0  0  0 
 26 27  1  0  0  0  0 
 27 28  1  0  0  0  0 
 27 29  2  0  0  0  0 
 29 30  1  0  0  0  0 
 30 31  2  0  0  0  0 
 25 31  1  0  0  0  0 
 31 32  1  0  0  0  0 
 30 33  1  0  0  0  0 
 29 34  1  0  0  0  0 
 34 35  1  0  0  0  0 
 34 36  1  0  0  0  0 
 26 37  1  0  0  0  0 
 37 38  1  0  0  0  0 
 38 39  1  0  0  0  0 
 38 40  1  0  0  0  0 
 38 41  1  0  0  0  0 
 19 42  1  0  0  0  0 
 42 43  1  0  0  0  0 
M  END
> <Rank>
32

> <Priority_score>
0.012

> <Reaction_type>
aliphatic hydroxylation

> <Parent_ID>
22

> <Parent_InChI>
InChI=1S/C14H22ClN3O2/c1-4-18(5-2)7-6-17-14(19)10-8-11(15)12(16)9-13(10)20-3/h8-9H,4-7,16H2,1-3H3,(H,17,19)

> <Parent_SMILES>
CCN(CC)CCNC(=O)c1cc(Cl)c(N)cc1OC

$$$$
Molecule 22_metabolite 33
  CDK     0516241031

 43 43  0  0  0  0  0  0  0  0999 V2000
  -10.8088    1.7415    0.0000 C   0  0  0  0  0  0  0  0  0  0  0  0
  -10.8086    3.2415    0.0000 H   0  0  0  0  0  0  0  0  0  0  0  0
  -11.3221    0.3321    0.0000 H   0  0  0  0  0  0  0  0  0  0  0  0
  -12.2860    2.0022    0.0000 H   0  0  0  0  0  0  0  0  0  0  0  0
   -9.5099    0.9913    0.0000 C   0  0  0  0  0  0  0  0  0  0  0  0
  -10.4742   -0.1576    0.0000 H   0  0  0  0  0  0  0  0  0  0  0  0
   -8.5459   -0.1579    0.0000 H   0  0  0  0  0  0  0  0  0  0  0  0
   -8.2107    1.7411    0.0000 N   0  0  0  0  0  0  0  0  0  0  0  0
   -8.2105    3.2411    0.0000 C   0  0  0  0  0  0  0  0  0  0  0  0
   -9.6877    2.9809    0.0000 H   0  0  0  0  0  0  0  0  0  0  0  0
   -8.7233    4.6507    0.0000 H   0  0  0  0  0  0  0  0  0  0  0  0
   -6.9113    3.9909    0.0000 C   0  0  0  0  0  0  0  0  0  0  0  0
   -5.6124    3.2407    0.0000 H   0  0  0  0  0  0  0  0  0  0  0  0
   -5.9470    5.1398    0.0000 H   0  0  0  0  0  0  0  0  0  0  0  0
   -7.8753    5.1401    0.0000 H   0  0  0  0  0  0  0  0  0  0  0  0
   -6.4962    0.7508    0.0000 C   0  0  0  0  0  0  0  0  0  0  0  0
   -7.4605   -0.3981    0.0000 H   0  0  0  0  0  0  0  0  0  0  0  0
   -5.5322   -0.3984    0.0000 H   0  0  0  0  0  0  0  0  0  0  0  0
   -5.1970    1.5006    0.0000 C   0  0  0  0  0  0  0  0  0  0  0  0
   -4.2326    2.6495    0.0000 H   0  0  0  0  0  0  0  0  0  0  0  0
   -6.1610    2.6498    0.0000 H   0  0  0  0  0  0  0  0  0  0  0  0
   -3.8981    0.7504    0.0000 N   0  0  0  0  0  0  0  0  0  0  0  0
   -3.8983   -0.7496    0.0000 H   0  0  0  0  0  0  0  0  0  0  0  0
   -2.5989    1.5002    0.0000 C   0  0  0  0  0  0  0  0  0  0  0  0
   -2.5987    3.0002    0.0000 O   0  0  0  0  0  0  0  0  0  0  0  0
   -1.3000    0.7500    0.0000 C   0  0  0  0  0  0  0  0  0  0  0  0
    0.0000    1.5000    0.0000 C   0  0  0  0  0  0  0  0  0  0  0  0
    1.3000    0.7500    0.0000 C   0  0  0  0  0  0  0  0  0  0  0  0
    2.5989    1.5002    0.0000 H   0  0  0  0  0  0  0  0  0  0  0  0
    1.3000   -0.7500    0.0000 C   0  0  0  0  0  0  0  0  0  0  0  0
    0.0000   -1.5000    0.0000 C   0  0  0  0  0  0  0  0  0  0  0  0
   -1.3000   -0.7500    0.0000 C   0  0  0  0  0  0  0  0  0  0  0  0
   -2.5989   -1.5002    0.0000 H   0  0  0  0  0  0  0  0  0  0  0  0
   -0.0000   -3.0000    0.0000 O   0  0  0  0  0  0  0  0  0  0  0  0
    1.2990   -3.7500    0.0000 H   0  0  0  0  0  0  0  0  0  0  0  0
    2.5989   -1.5002    0.0000 N   0  0  0  0  0  0  0  0  0  0  0  0
    3.8981   -0.7504    0.0000 H   0  0  0  0  0  0  0  0  0  0  0  0
    2.5987   -3.0002    0.0000 H   0  0  0  0  0  0  0  0  0  0  0  0
    0.0000    3.0000    0.0000 O   0  0  0  0  0  0  0  0  0  0  0  0
    1.2990    3.7500    0.0000 C   0  0  0  0  0  0  0  0  0  0  0  0
    2.5981    3.0000    0.0000 H   0  0  0  0  0  0  0  0  0  0  0  0
    2.2632    4.8991    0.0000 H   0  0  0  0  0  0  0  0  0  0  0  0
    0.3349    4.8991    0.0000 H   0  0  0  0  0  0  0  0  0  0  0  0
  1  2  1  0  0  0  0 
  1  3  1  0  0  0  0 
  1  4  1  0  0  0  0 
  1  5  1  0  0  0  0 
  5  6  1  0  0  0  0 
  5  7  1  0  0  0  0 
  5  8  1  0  0  0  0 
  8  9  1  0  0  0  0 
  9 10  1  0  0  0  0 
  9 11  1  0  0  0  0 
  9 12  1  0  0  0  0 
 12 13  1  0  0  0  0 
 12 14  1  0  0  0  0 
 12 15  1  0  0  0  0 
  8 16  1  0  0  0  0 
 16 17  1  0  0  0  0 
 16 18  1  0  0  0  0 
 16 19  1  0  0  0  0 
 19 20  1  0  0  0  0 
 19 21  1  0  0  0  0 
 19 22  1  0  0  0  0 
 22 23  1  0  0  0  0 
 22 24  1  0  0  0  0 
 24 25  2  0  0  0  0 
 24 26  1  0  0  0  0 
 26 27  2  0  0  0  0 
 27 28  1  0  0  0  0 
 28 29  1  0  0  0  0 
 28 30  2  0  0  0  0 
 30 31  1  0  0  0  0 
 31 32  2  0  0  0  0 
 26 32  1  0  0  0  0 
 32 33  1  0  0  0  0 
 31 34  1  0  0  0  0 
 34 35  1  0  0  0  0 
 30 36  1  0  0  0  0 
 36 37  1  0  0  0  0 
 36 38  1  0  0  0  0 
 27 39  1  0  0  0  0 
 39 40  1  0  0  0  0 
 40 41  1  0  0  0  0 
 40 42  1  0  0  0  0 
 40 43  1  0  0  0  0 
M  END
> <Rank>
33

> <Priority_score>
0.005600000000000001

> <Reaction_type>
oxidative dehalogenation benzyl

> <Parent_ID>
22

> <Parent_InChI>
InChI=1S/C14H22ClN3O2/c1-4-18(5-2)7-6-17-14(19)10-8-11(15)12(16)9-13(10)20-3/h8-9H,4-7,16H2,1-3H3,(H,17,19)

> <Parent_SMILES>
CCN(CC)CCNC(=O)c1cc(Cl)c(N)cc1OC

$$$$
Molecule 22_metabolite 34
  CDK     0516241031

 41 41  0  0  0  0  0  0  0  0999 V2000
    3.3843   -6.1633    0.0000 C   0  0  0  0  0  0  0  0  0  0  0  0
    2.6318   -7.4608    0.0000 H   0  0  0  0  0  0  0  0  0  0  0  0
    4.5353   -5.2013    0.0000 H   0  0  0  0  0  0  0  0  0  0  0  0
    4.5315   -7.1297    0.0000 H   0  0  0  0  0  0  0  0  0  0  0  0
    2.6369   -4.8628    0.0000 C   0  0  0  0  0  0  0  0  0  0  0  0
    4.0474   -4.3525    0.0000 H   0  0  0  0  0  0  0  0  0  0  0  0
    2.3793   -3.3850    0.0000 H   0  0  0  0  0  0  0  0  0  0  0  0
    0.6569   -4.8589    0.0000 N   0  0  0  0  0  0  0  0  0  0  0  0
   -0.0957   -6.1564    0.0000 C   0  0  0  0  0  0  0  0  0  0  0  0
   -1.2429   -5.1900    0.0000 H   0  0  0  0  0  0  0  0  0  0  0  0
   -1.2466   -7.1184    0.0000 H   0  0  0  0  0  0  0  0  0  0  0  0
    0.6518   -7.4569    0.0000 C   0  0  0  0  0  0  0  0  0  0  0  0
   -0.1008   -8.7545    0.0000 H   0  0  0  0  0  0  0  0  0  0  0  0
    1.7989   -8.4234    0.0000 H   0  0  0  0  0  0  0  0  0  0  0  0
    1.8027   -6.4950    0.0000 H   0  0  0  0  0  0  0  0  0  0  0  0
   -0.0906   -3.5584    0.0000 C   0  0  0  0  0  0  0  0  0  0  0  0
    1.3200   -3.0481    0.0000 H   0  0  0  0  0  0  0  0  0  0  0  0
   -0.3482   -2.0806    0.0000 H   0  0  0  0  0  0  0  0  0  0  0  0
   -1.5906   -3.5554    0.0000 C   0  0  0  0  0  0  0  0  0  0  0  0
   -2.3431   -4.8530    0.0000 H   0  0  0  0  0  0  0  0  0  0  0  0
   -2.3380   -2.2549    0.0000 N   0  0  0  0  0  0  0  0  0  0  0  0
   -1.5855   -0.9573    0.0000 H   0  0  0  0  0  0  0  0  0  0  0  0
   -3.8380   -2.2520    0.0000 C   0  0  0  0  0  0  0  0  0  0  0  0
   -4.5906   -3.5495    0.0000 O   0  0  0  0  0  0  0  0  0  0  0  0
   -4.5855   -0.9514    0.0000 C   0  0  0  0  0  0  0  0  0  0  0  0
   -6.0755   -0.9414    0.0000 C   0  0  0  0  0  0  0  0  0  0  0  0
   -6.8255    0.3485    0.0000 C   0  0  0  0  0  0  0  0  0  0  0  0
   -8.3255    0.3417    0.0000 H   0  0  0  0  0  0  0  0  0  0  0  0
   -6.0855    1.6486    0.0000 C   0  0  0  0  0  0  0  0  0  0  0  0
   -4.5955    1.6386    0.0000 C   0  0  0  0  0  0  0  0  0  0  0  0
   -3.8455    0.3386    0.0000 C   0  0  0  0  0  0  0  0  0  0  0  0
   -2.3455    0.3404    0.0000 H   0  0  0  0  0  0  0  0  0  0  0  0
   -3.8409    2.9349    0.0000 Cl  0  0  0  0  0  0  0  0  0  0  0  0
   -6.8351    2.9478    0.0000 N   0  0  0  0  0  0  0  0  0  0  0  0
   -8.3351    2.9483    0.0000 H   0  0  0  0  0  0  0  0  0  0  0  0
   -6.0847    4.2466    0.0000 H   0  0  0  0  0  0  0  0  0  0  0  0
   -6.8279   -2.2391    0.0000 O   0  0  0  0  0  0  0  0  0  0  0  0
   -8.3279   -2.2363    0.0000 C   0  0  0  0  0  0  0  0  0  0  0  0
   -9.0755   -0.9359    0.0000 H   0  0  0  0  0  0  0  0  0  0  0  0
   -9.7383   -2.7468    0.0000 H   0  0  0  0  0  0  0  0  0  0  0  0
   -8.0701   -3.7140    0.0000 H   0  0  0  0  0  0  0  0  0  0  0  0
  1  2  1  0  0  0  0 
  1  3  1  0  0  0  0 
  1  4  1  0  0  0  0 
  1  5  1  0  0  0  0 
  5  6  1  0  0  0  0 
  5  7  1  0  0  0  0 
  5  8  1  0  0  0  0 
  8  9  1  0  0  0  0 
  9 10  1  0  0  0  0 
  9 11  1  0  0  0  0 
  9 12  1  0  0  0  0 
 12 13  1  0  0  0  0 
 12 14  1  0  0  0  0 
 12 15  1  0  0  0  0 
  8 16  1  0  0  0  0 
 16 17  1  0  0  0  0 
 16 18  1  0  0  0  0 
 16 19  1  0  0  0  0 
 19 20  1  4  0  0  0 
 19 21  2  0  0  0  0 
 21 22  1  0  0  0  0 
 21 23  1  0  0  0  0 
 23 24  2  0  0  0  0 
 23 25  1  0  0  0  0 
 25 26  2  0  0  0  0 
 26 27  1  0  0  0  0 
 27 28  1  0  0  0  0 
 27 29  2  0  0  0  0 
 29 30  1  0  0  0  0 
 30 31  2  0  0  0  0 
 25 31  1  0  0  0  0 
 31 32  1  0  0  0  0 
 30 33  1  0  0  0  0 
 29 34  1  0  0  0  0 
 34 35  1  0  0  0  0 
 34 36  1  0  0  0  0 
 26 37  1  0  0  0  0 
 37 38  1  0  0  0  0 
 38 39  1  0  0  0  0 
 38 40  1  0  0  0  0 
 38 41  1  0  0  0  0 
M  CHG  1  21   1
M  END
> <Rank>
34

> <Priority_score>
0.0032

> <Reaction_type>
dehydration of N-C bond

> <Parent_ID>
22

> <Parent_InChI>
InChI=1S/C14H22ClN3O2/c1-4-18(5-2)7-6-17-14(19)10-8-11(15)12(16)9-13(10)20-3/h8-9H,4-7,16H2,1-3H3,(H,17,19)

> <Parent_SMILES>
CCN(CC)CCNC(=O)c1cc(Cl)c(N)cc1OC

$$$$
Molecule 22_metabolite 35
  CDK     0516241031

 40 40  0  0  0  0  0  0  0  0999 V2000
    3.3843   -6.1633    0.0000 C   0  0  0  0  0  0  0  0  0  0  0  0
    2.6318   -7.4608    0.0000 H   0  0  0  0  0  0  0  0  0  0  0  0
    4.5353   -5.2013    0.0000 H   0  0  0  0  0  0  0  0  0  0  0  0
    4.5315   -7.1297    0.0000 H   0  0  0  0  0  0  0  0  0  0  0  0
    2.6369   -4.8628    0.0000 C   0  0  0  0  0  0  0  0  0  0  0  0
    4.0474   -4.3525    0.0000 H   0  0  0  0  0  0  0  0  0  0  0  0
    2.3793   -3.3850    0.0000 H   0  0  0  0  0  0  0  0  0  0  0  0
    0.6569   -4.8589    0.0000 N   0  0  0  0  0  0  0  0  0  0  0  0
   -0.0957   -6.1564    0.0000 C   0  0  0  0  0  0  0  0  0  0  0  0
   -1.2429   -5.1900    0.0000 H   0  0  0  0  0  0  0  0  0  0  0  0
   -1.2466   -7.1184    0.0000 H   0  0  0  0  0  0  0  0  0  0  0  0
    0.6518   -7.4569    0.0000 C   0  0  0  0  0  0  0  0  0  0  0  0
   -0.1008   -8.7545    0.0000 H   0  0  0  0  0  0  0  0  0  0  0  0
    1.7989   -8.4234    0.0000 H   0  0  0  0  0  0  0  0  0  0  0  0
    1.8027   -6.4950    0.0000 H   0  0  0  0  0  0  0  0  0  0  0  0
   -0.0906   -3.5584    0.0000 C   0  0  0  0  0  0  0  0  0  0  0  0
    1.3200   -3.0481    0.0000 H   0  0  0  0  0  0  0  0  0  0  0  0
   -0.3482   -2.0806    0.0000 H   0  0  0  0  0  0  0  0  0  0  0  0
   -1.5906   -3.5554    0.0000 C   0  0  0  0  0  0  0  0  0  0  0  0
   -2.3431   -4.8530    0.0000 H   0  0  0  0  0  0  0  0  0  0  0  0
   -2.3380   -2.2549    0.0000 N   0  0  0  0  0  0  0  0  0  0  0  0
   -3.8380   -2.2520    0.0000 C   0  0  0  0  0  0  0  0  0  0  0  0
   -4.5906   -3.5495    0.0000 O   0  0  0  0  0  0  0  0  0  0  0  0
   -4.5855   -0.9514    0.0000 C   0  0  0  0  0  0  0  0  0  0  0  0
   -6.0755   -0.9414    0.0000 C   0  0  0  0  0  0  0  0  0  0  0  0
   -6.8255    0.3485    0.0000 C   0  0  0  0  0  0  0  0  0  0  0  0
   -8.3255    0.3417    0.0000 H   0  0  0  0  0  0  0  0  0  0  0  0
   -6.0855    1.6486    0.0000 C   0  0  0  0  0  0  0  0  0  0  0  0
   -4.5955    1.6386    0.0000 C   0  0  0  0  0  0  0  0  0  0  0  0
   -3.8455    0.3386    0.0000 C   0  0  0  0  0  0  0  0  0  0  0  0
   -2.3455    0.3404    0.0000 H   0  0  0  0  0  0  0  0  0  0  0  0
   -3.8409    2.9349    0.0000 Cl  0  0  0  0  0  0  0  0  0  0  0  0
   -6.8351    2.9478    0.0000 N   0  0  0  0  0  0  0  0  0  0  0  0
   -8.3351    2.9483    0.0000 H   0  0  0  0  0  0  0  0  0  0  0  0
   -6.0847    4.2466    0.0000 H   0  0  0  0  0  0  0  0  0  0  0  0
   -6.8279   -2.2391    0.0000 O   0  0  0  0  0  0  0  0  0  0  0  0
   -8.3279   -2.2363    0.0000 C   0  0  0  0  0  0  0  0  0  0  0  0
   -9.0755   -0.9359    0.0000 H   0  0  0  0  0  0  0  0  0  0  0  0
   -9.7383   -2.7468    0.0000 H   0  0  0  0  0  0  0  0  0  0  0  0
   -8.0701   -3.7140    0.0000 H   0  0  0  0  0  0  0  0  0  0  0  0
  1  2  1  0  0  0  0 
  1  3  1  0  0  0  0 
  1  4  1  0  0  0  0 
  1  5  1  0  0  0  0 
  5  6  1  0  0  0  0 
  5  7  1  0  0  0  0 
  5  8  1  0  0  0  0 
  8  9  1  0  0  0  0 
  9 10  1  0  0  0  0 
  9 11  1  0  0  0  0 
  9 12  1  0  0  0  0 
 12 13  1  0  0  0  0 
 12 14  1  0  0  0  0 
 12 15  1  0  0  0  0 
  8 16  1  0  0  0  0 
 16 17  1  0  0  0  0 
 16 18  1  0  0  0  0 
 16 19  1  0  0  0  0 
 19 20  1  4  0  0  0 
 19 21  2  0  0  0  0 
 21 22  1  0  0  0  0 
 22 23  2  0  0  0  0 
 22 24  1  0  0  0  0 
 24 25  2  0  0  0  0 
 25 26  1  0  0  0  0 
 26 27  1  0  0  0  0 
 26 28  2  0  0  0  0 
 28 29  1  0  0  0  0 
 29 30  2  0  0  0  0 
 24 30  1  0  0  0  0 
 30 31  1  0  0  0  0 
 29 32  1  0  0  0  0 
 28 33  1  0  0  0  0 
 33 34  1  0  0  0  0 
 33 35  1  0  0  0  0 
 25 36  1  0  0  0  0 
 36 37  1  0  0  0  0 
 37 38  1  0  0  0  0 
 37 39  1  0  0  0  0 
 37 40  1  0  0  0  0 
M  END
> <Rank>
34

> <Priority_score>
0.0032

> <Reaction_type>
dehydration of N-C bond

> <Parent_ID>
22

> <Parent_InChI>
InChI=1S/C14H22ClN3O2/c1-4-18(5-2)7-6-17-14(19)10-8-11(15)12(16)9-13(10)20-3/h8-9H,4-7,16H2,1-3H3,(H,17,19)

> <Parent_SMILES>
CCN(CC)CCNC(=O)c1cc(Cl)c(N)cc1OC

$$$$
Molecule 23
  CDK     0516241031

 17 17  0  0  0  0  0  0  0  0999 V2000
    2.5989    0.7496    0.0000 C   0  0  0  0  0  0  0  0  0  0  0  0
    1.3000    1.4998    0.0000 C   0  0  0  0  0  0  0  0  0  0  0  0
    0.0008    0.7500    0.0000 N   0  0  0  0  0  0  0  0  0  0  0  0
    0.0006   -0.7500    0.0000 C   0  0  0  0  0  0  0  0  0  0  0  0
    1.2995   -1.5002    0.0000 C   0  0  0  0  0  0  0  0  0  0  0  0
   -1.2981    1.5002    0.0000 C   0  0  0  0  0  0  0  0  0  0  0  0
   -2.5972    0.7504    0.0000 C   0  0  0  0  0  0  0  0  0  0  0  0
   -3.8962    1.5006    0.0000 O   0  0  0  0  0  0  0  0  0  0  0  0
   -5.1953    0.7508    0.0000 C   0  0  0  0  0  0  0  0  0  0  0  0
   -5.1956   -0.7492    0.0000 O   0  0  0  0  0  0  0  0  0  0  0  0
   -6.4942    1.5010    0.0000 C   0  0  0  0  0  0  0  0  0  0  0  0
   -6.4942    3.0010    0.0000 C   0  0  0  0  0  0  0  0  0  0  0  0
   -7.7942    3.7510    0.0000 C   0  0  0  0  0  0  0  0  0  0  0  0
   -9.0942    3.0010    0.0000 C   0  0  0  0  0  0  0  0  0  0  0  0
   -9.0942    1.5010    0.0000 C   0  0  0  0  0  0  0  0  0  0  0  0
   -7.7942    0.7510    0.0000 C   0  0  0  0  0  0  0  0  0  0  0  0
  -10.3931    3.7512    0.0000 N   0  0  0  0  0  0  0  0  0  0  0  0
  1  2  1  0  0  0  0 
  2  3  1  0  0  0  0 
  3  4  1  0  0  0  0 
  4  5  1  0  0  0  0 
  3  6  1  0  0  0  0 
  6  7  1  0  0  0  0 
  7  8  1  0  0  0  0 
  8  9  1  0  0  0  0 
  9 10  2  0  0  0  0 
  9 11  1  0  0  0  0 
 11 12  2  0  0  0  0 
 12 13  1  0  0  0  0 
 13 14  2  0  0  0  0 
 14 15  1  0  0  0  0 
 15 16  2  0  0  0  0 
 11 16  1  0  0  0  0 
 14 17  1  0  0  0  0 
M  END
> <SMILES>
CCN(CC)CCOC(=O)c1ccc(N)cc1

$$$$
Molecule 23_metabolite 1
  CDK     0516241031

 42 42  0  0  0  0  0  0  0  0999 V2000
  -10.8088    1.7415    0.0000 C   0  0  0  0  0  0  0  0  0  0  0  0
  -10.8086    3.2415    0.0000 H   0  0  0  0  0  0  0  0  0  0  0  0
  -11.3221    0.3321    0.0000 H   0  0  0  0  0  0  0  0  0  0  0  0
  -12.2860    2.0022    0.0000 H   0  0  0  0  0  0  0  0  0  0  0  0
   -9.5099    0.9913    0.0000 C   0  0  0  0  0  0  0  0  0  0  0  0
  -10.4742   -0.1576    0.0000 H   0  0  0  0  0  0  0  0  0  0  0  0
   -8.5459   -0.1579    0.0000 H   0  0  0  0  0  0  0  0  0  0  0  0
   -8.2107    1.7411    0.0000 N   0  0  0  0  0  0  0  0  0  0  0  0
   -8.2105    3.2411    0.0000 C   0  0  0  0  0  0  0  0  0  0  0  0
   -9.6877    2.9809    0.0000 H   0  0  0  0  0  0  0  0  0  0  0  0
   -8.7233    4.6507    0.0000 H   0  0  0  0  0  0  0  0  0  0  0  0
   -6.9113    3.9909    0.0000 C   0  0  0  0  0  0  0  0  0  0  0  0
   -5.6124    3.2407    0.0000 H   0  0  0  0  0  0  0  0  0  0  0  0
   -5.9470    5.1398    0.0000 H   0  0  0  0  0  0  0  0  0  0  0  0
   -7.8753    5.1401    0.0000 H   0  0  0  0  0  0  0  0  0  0  0  0
   -6.4962    0.7508    0.0000 C   0  0  0  0  0  0  0  0  0  0  0  0
   -7.4605   -0.3981    0.0000 H   0  0  0  0  0  0  0  0  0  0  0  0
   -5.5322   -0.3984    0.0000 H   0  0  0  0  0  0  0  0  0  0  0  0
   -5.1970    1.5006    0.0000 C   0  0  0  0  0  0  0  0  0  0  0  0
   -4.2326    2.6495    0.0000 H   0  0  0  0  0  0  0  0  0  0  0  0
   -6.1610    2.6498    0.0000 H   0  0  0  0  0  0  0  0  0  0  0  0
   -3.8981    0.7504    0.0000 O   0  0  0  0  0  0  0  0  0  0  0  0
   -2.5989    1.5002    0.0000 C   0  0  0  0  0  0  0  0  0  0  0  0
   -2.5987    3.0002    0.0000 O   0  0  0  0  0  0  0  0  0  0  0  0
   -1.3000    0.7500    0.0000 C   0  0  0  0  0  0  0  0  0  0  0  0
   -1.3000   -0.7500    0.0000 C   0  0  0  0  0  0  0  0  0  0  0  0
   -2.5989   -1.5002    0.0000 H   0  0  0  0  0  0  0  0  0  0  0  0
    0.0000   -1.5000    0.0000 C   0  0  0  0  0  0  0  0  0  0  0  0
   -0.0000   -3.0000    0.0000 H   0  0  0  0  0  0  0  0  0  0  0  0
    1.3000   -0.7500    0.0000 C   0  0  0  0  0  0  0  0  0  0  0  0
    1.3000    0.7500    0.0000 C   0  0  0  0  0  0  0  0  0  0  0  0
    2.5989    1.5002    0.0000 H   0  0  0  0  0  0  0  0  0  0  0  0
    0.0000    1.5000    0.0000 C   0  0  0  0  0  0  0  0  0  0  0  0
    0.0000    3.0000    0.0000 H   0  0  0  0  0  0  0  0  0  0  0  0
    2.5989   -1.5002    0.0000 N   0  0  0  0  0  0  0  0  0  0  0  0
    2.5987   -3.0002    0.0000 H   0  0  0  0  0  0  0  0  0  0  0  0
    3.8981   -0.7504    0.0000 C   0  0  0  0  0  0  0  0  0  0  0  0
    3.8983    0.7496    0.0000 O   0  0  0  0  0  0  0  0  0  0  0  0
    5.1970   -1.5006    0.0000 C   0  0  0  0  0  0  0  0  0  0  0  0
    6.4962   -0.7508    0.0000 H   0  0  0  0  0  0  0  0  0  0  0  0
    4.2326   -2.6495    0.0000 H   0  0  0  0  0  0  0  0  0  0  0  0
    6.1610   -2.6498    0.0000 H   0  0  0  0  0  0  0  0  0  0  0  0
  1  2  1  0  0  0  0 
  1  3  1  0  0  0  0 
  1  4  1  0  0  0  0 
  1  5  1  0  0  0  0 
  5  6  1  0  0  0  0 
  5  7  1  0  0  0  0 
  5  8  1  0  0  0  0 
  8  9  1  0  0  0  0 
  9 10  1  0  0  0  0 
  9 11  1  0  0  0  0 
  9 12  1  0  0  0  0 
 12 13  1  0  0  0  0 
 12 14  1  0  0  0  0 
 12 15  1  0  0  0  0 
  8 16  1  0  0  0  0 
 16 17  1  0  0  0  0 
 16 18  1  0  0  0  0 
 16 19  1  0  0  0  0 
 19 20  1  0  0  0  0 
 19 21  1  0  0  0  0 
 19 22  1  0  0  0  0 
 22 23  1  0  0  0  0 
 23 24  2  0  0  0  0 
 23 25  1  0  0  0  0 
 25 26  2  0  0  0  0 
 26 27  1  0  0  0  0 
 26 28  1  0  0  0  0 
 28 29  1  0  0  0  0 
 28 30  2  0  0  0  0 
 30 31  1  0  0  0  0 
 31 32  1  0  0  0  0 
 31 33  2  0  0  0  0 
 25 33  1  0  0  0  0 
 33 34  1  0  0  0  0 
 30 35  1  0  0  0  0 
 35 36  1  0  0  0  0 
 35 37  1  0  0  0  0 
 37 38  2  0  0  0  0 
 37 39  1  0  0  0  0 
 39 40  1  0  0  0  0 
 39 41  1  0  0  0  0 
 39 42  1  0  0  0  0 
M  END
> <Rank>
1

> <Priority_score>
0.956

> <Reaction_type>
N-acetylation_(aniline)

> <Parent_ID>
23

> <Parent_InChI>
InChI=1S/C13H20N2O2/c1-3-15(4-2)9-10-17-13(16)11-5-7-12(14)8-6-11/h5-8H,3-4,9-10,14H2,1-2H3

> <Parent_SMILES>
CCN(CC)CCOC(=O)c1ccc(N)cc1

$$$$
Molecule 23_metabolite 2
  CDK     0516241031

 41 41  0  0  0  0  0  0  0  0999 V2000
  -10.8088    1.7415    0.0000 C   0  0  0  0  0  0  0  0  0  0  0  0
  -10.8086    3.2415    0.0000 H   0  0  0  0  0  0  0  0  0  0  0  0
  -11.3221    0.3321    0.0000 H   0  0  0  0  0  0  0  0  0  0  0  0
  -12.2860    2.0022    0.0000 H   0  0  0  0  0  0  0  0  0  0  0  0
   -9.5099    0.9913    0.0000 C   0  0  0  0  0  0  0  0  0  0  0  0
  -10.4742   -0.1576    0.0000 H   0  0  0  0  0  0  0  0  0  0  0  0
   -8.5459   -0.1579    0.0000 H   0  0  0  0  0  0  0  0  0  0  0  0
   -8.2107    1.7411    0.0000 N   0  0  0  0  0  0  0  0  0  0  0  0
   -8.2105    3.2411    0.0000 C   0  0  0  0  0  0  0  0  0  0  0  0
   -9.6877    2.9809    0.0000 H   0  0  0  0  0  0  0  0  0  0  0  0
   -8.7233    4.6507    0.0000 H   0  0  0  0  0  0  0  0  0  0  0  0
   -6.9113    3.9909    0.0000 C   0  0  0  0  0  0  0  0  0  0  0  0
   -5.6124    3.2407    0.0000 H   0  0  0  0  0  0  0  0  0  0  0  0
   -5.9470    5.1398    0.0000 H   0  0  0  0  0  0  0  0  0  0  0  0
   -7.8753    5.1401    0.0000 H   0  0  0  0  0  0  0  0  0  0  0  0
   -6.4962    0.7508    0.0000 C   0  0  0  0  0  0  0  0  0  0  0  0
   -7.4605   -0.3981    0.0000 H   0  0  0  0  0  0  0  0  0  0  0  0
   -5.5322   -0.3984    0.0000 H   0  0  0  0  0  0  0  0  0  0  0  0
   -5.1970    1.5006    0.0000 C   0  0  0  0  0  0  0  0  0  0  0  0
   -4.2326    2.6495    0.0000 H   0  0  0  0  0  0  0  0  0  0  0  0
   -6.1610    2.6498    0.0000 H   0  0  0  0  0  0  0  0  0  0  0  0
   -3.8981    0.7504    0.0000 O   0  0  0  0  0  0  0  0  0  0  0  0
   -2.5989    1.5002    0.0000 C   0  0  0  0  0  0  0  0  0  0  0  0
   -2.5987    3.0002    0.0000 O   0  0  0  0  0  0  0  0  0  0  0  0
   -1.3000    0.7500    0.0000 C   0  0  0  0  0  0  0  0  0  0  0  0
   -1.3000   -0.7500    0.0000 C   0  0  0  0  0  0  0  0  0  0  0  0
   -2.5989   -1.5002    0.0000 H   0  0  0  0  0  0  0  0  0  0  0  0
    0.0000   -1.5000    0.0000 C   0  0  0  0  0  0  0  0  0  0  0  0
   -0.0000   -3.0000    0.0000 H   0  0  0  0  0  0  0  0  0  0  0  0
    1.3000   -0.7500    0.0000 C   0  0  0  0  0  0  0  0  0  0  0  0
    1.3000    0.7500    0.0000 C   0  0  0  0  0  0  0  0  0  0  0  0
    2.5989    1.5002    0.0000 H   0  0  0  0  0  0  0  0  0  0  0  0
    0.0000    1.5000    0.0000 C   0  0  0  0  0  0  0  0  0  0  0  0
    0.0000    3.0000    0.0000 H   0  0  0  0  0  0  0  0  0  0  0  0
    2.5989   -1.5002    0.0000 N   0  0  0  0  0  0  0  0  0  0  0  0
    2.5987   -3.0002    0.0000 H   0  0  0  0  0  0  0  0  0  0  0  0
    3.8981   -0.7504    0.0000 S   0  0  0  0  0  0  0  0  0  0  0  0
    4.8624    0.3985    0.0000 O   0  0  0  0  0  0  0  0  0  0  0  0
    2.9341    0.3988    0.0000 O   0  0  0  0  0  0  0  0  0  0  0  0
    5.1970   -1.5006    0.0000 O   0  0  0  0  0  0  0  0  0  0  0  0
    6.4962   -0.7508    0.0000 H   0  0  0  0  0  0  0  0  0  0  0  0
  1  2  1  0  0  0  0 
  1  3  1  0  0  0  0 
  1  4  1  0  0  0  0 
  1  5  1  0  0  0  0 
  5  6  1  0  0  0  0 
  5  7  1  0  0  0  0 
  5  8  1  0  0  0  0 
  8  9  1  0  0  0  0 
  9 10  1  0  0  0  0 
  9 11  1  0  0  0  0 
  9 12  1  0  0  0  0 
 12 13  1  0  0  0  0 
 12 14  1  0  0  0  0 
 12 15  1  0  0  0  0 
  8 16  1  0  0  0  0 
 16 17  1  0  0  0  0 
 16 18  1  0  0  0  0 
 16 19  1  0  0  0  0 
 19 20  1  0  0  0  0 
 19 21  1  0  0  0  0 
 19 22  1  0  0  0  0 
 22 23  1  0  0  0  0 
 23 24  2  0  0  0  0 
 23 25  1  0  0  0  0 
 25 26  2  0  0  0  0 
 26 27  1  0  0  0  0 
 26 28  1  0  0  0  0 
 28 29  1  0  0  0  0 
 28 30  2  0  0  0  0 
 30 31  1  0  0  0  0 
 31 32  1  0  0  0  0 
 31 33  2  0  0  0  0 
 25 33  1  0  0  0  0 
 33 34  1  0  0  0  0 
 30 35  1  0  0  0  0 
 35 36  1  0  0  0  0 
 35 37  1  0  0  0  0 
 37 38  2  0  0  0  0 
 37 39  2  0  0  0  0 
 37 40  1  0  0  0  0 
 40 41  1  0  0  0  0 
M  END
> <Rank>
2

> <Priority_score>
0.812

> <Reaction_type>
sulfation_(aniline)

> <Parent_ID>
23

> <Parent_InChI>
InChI=1S/C13H20N2O2/c1-3-15(4-2)9-10-17-13(16)11-5-7-12(14)8-6-11/h5-8H,3-4,9-10,14H2,1-2H3

> <Parent_SMILES>
CCN(CC)CCOC(=O)c1ccc(N)cc1

$$$$
Molecule 23_metabolite 3
  CDK     0516241031

 57 58  0  0  0  0  0  0  0  0999 V2000
   20.4880   -3.5990    0.0000 C   0  0  0  0  0  0  0  0  0  0  0  0
   21.9651   -3.8598    0.0000 H   0  0  0  0  0  0  0  0  0  0  0  0
   21.0013   -2.1896    0.0000 H   0  0  0  0  0  0  0  0  0  0  0  0
   19.1891   -2.8487    0.0000 H   0  0  0  0  0  0  0  0  0  0  0  0
   19.5235   -4.7479    0.0000 C   0  0  0  0  0  0  0  0  0  0  0  0
   19.0102   -6.1573    0.0000 H   0  0  0  0  0  0  0  0  0  0  0  0
   20.8224   -5.4981    0.0000 H   0  0  0  0  0  0  0  0  0  0  0  0
   18.0464   -4.4871    0.0000 N   0  0  0  0  0  0  0  0  0  0  0  0
   17.5336   -3.0774    0.0000 C   0  0  0  0  0  0  0  0  0  0  0  0
   16.5697   -1.9282    0.0000 H   0  0  0  0  0  0  0  0  0  0  0  0
   16.2344   -3.8272    0.0000 H   0  0  0  0  0  0  0  0  0  0  0  0
   18.4981   -1.9286    0.0000 C   0  0  0  0  0  0  0  0  0  0  0  0
   19.9752   -2.1894    0.0000 H   0  0  0  0  0  0  0  0  0  0  0  0
   19.0114   -0.5191    0.0000 H   0  0  0  0  0  0  0  0  0  0  0  0
   17.1992   -1.1783    0.0000 H   0  0  0  0  0  0  0  0  0  0  0  0
   16.7733   -6.0036    0.0000 C   0  0  0  0  0  0  0  0  0  0  0  0
   16.2600   -7.4130    0.0000 H   0  0  0  0  0  0  0  0  0  0  0  0
   18.0722   -6.7539    0.0000 H   0  0  0  0  0  0  0  0  0  0  0  0
   15.2962   -5.7428    0.0000 C   0  0  0  0  0  0  0  0  0  0  0  0
   15.2959   -7.2428    0.0000 H   0  0  0  0  0  0  0  0  0  0  0  0
   13.8189   -6.0029    0.0000 H   0  0  0  0  0  0  0  0  0  0  0  0
   14.7834   -4.3331    0.0000 O   0  0  0  0  0  0  0  0  0  0  0  0
   13.3063   -4.0724    0.0000 C   0  0  0  0  0  0  0  0  0  0  0  0
   12.3419   -5.2212    0.0000 O   0  0  0  0  0  0  0  0  0  0  0  0
   12.7936   -2.6627    0.0000 C   0  0  0  0  0  0  0  0  0  0  0  0
   11.3164   -2.4017    0.0000 C   0  0  0  0  0  0  0  0  0  0  0  0
   10.3517   -3.5502    0.0000 H   0  0  0  0  0  0  0  0  0  0  0  0
   10.8041   -0.9910    0.0000 C   0  0  0  0  0  0  0  0  0  0  0  0
    9.3270   -0.7300    0.0000 H   0  0  0  0  0  0  0  0  0  0  0  0
   11.7689    0.1586    0.0000 C   0  0  0  0  0  0  0  0  0  0  0  0
   13.2460   -0.1024    0.0000 C   0  0  0  0  0  0  0  0  0  0  0  0
   14.2108    1.0462    0.0000 H   0  0  0  0  0  0  0  0  0  0  0  0
   13.7583   -1.5131    0.0000 C   0  0  0  0  0  0  0  0  0  0  0  0
   15.2355   -1.7741    0.0000 H   0  0  0  0  0  0  0  0  0  0  0  0
   11.2562    1.5683    0.0000 N   0  0  0  0  0  0  0  0  0  0  0  0
   12.2206    2.7172    0.0000 H   0  0  0  0  0  0  0  0  0  0  0  0
    9.7790    1.8291    0.0000 C   0  0  0  0  0  0  0  0  0  0  0  0
    9.7785    0.3291    0.0000 H   0  0  0  0  0  0  0  0  0  0  0  0
    8.3017    1.5692    0.0000 C   0  0  0  0  0  0  0  0  0  0  0  0
    8.8140    0.1594    0.0000 H   0  0  0  0  0  0  0  0  0  0  0  0
    7.3378    2.7197    0.0000 C   0  0  0  0  0  0  0  0  0  0  0  0
    6.3730    1.5711    0.0000 H   0  0  0  0  0  0  0  0  0  0  0  0
    7.8513    4.1299    0.0000 C   0  0  0  0  0  0  0  0  0  0  0  0
    6.3741    4.3907    0.0000 H   0  0  0  0  0  0  0  0  0  0  0  0
    9.3286    4.3898    0.0000 C   0  0  0  0  0  0  0  0  0  0  0  0
    8.8163    5.7996    0.0000 H   0  0  0  0  0  0  0  0  0  0  0  0
   10.6281    5.1389    0.0000 C   0  0  0  0  0  0  0  0  0  0  0  0
   11.9267    4.3881    0.0000 O   0  0  0  0  0  0  0  0  0  0  0  0
   10.6291    6.6389    0.0000 O   0  0  0  0  0  0  0  0  0  0  0  0
    9.3305    7.3898    0.0000 H   0  0  0  0  0  0  0  0  0  0  0  0
   10.2925    3.2394    0.0000 O   0  0  0  0  0  0  0  0  0  0  0  0
    7.8518    5.6299    0.0000 O   0  0  0  0  0  0  0  0  0  0  0  0
    6.5530    6.3804    0.0000 H   0  0  0  0  0  0  0  0  0  0  0  0
    6.0390    3.4701    0.0000 O   0  0  0  0  0  0  0  0  0  0  0  0
    4.7397    2.7205    0.0000 H   0  0  0  0  0  0  0  0  0  0  0  0
    7.0022    0.8201    0.0000 O   0  0  0  0  0  0  0  0  0  0  0  0
    7.0012   -0.6799    0.0000 H   0  0  0  0  0  0  0  0  0  0  0  0
  1  2  1  0  0  0  0 
  1  3  1  0  0  0  0 
  1  4  1  0  0  0  0 
  1  5  1  0  0  0  0 
  5  6  1  0  0  0  0 
  5  7  1  0  0  0  0 
  5  8  1  0  0  0  0 
  8  9  1  0  0  0  0 
  9 10  1  0  0  0  0 
  9 11  1  0  0  0  0 
  9 12  1  0  0  0  0 
 12 13  1  0  0  0  0 
 12 14  1  0  0  0  0 
 12 15  1  0  0  0  0 
  8 16  1  0  0  0  0 
 16 17  1  0  0  0  0 
 16 18  1  0  0  0  0 
 16 19  1  0  0  0  0 
 19 20  1  0  0  0  0 
 19 21  1  0  0  0  0 
 19 22  1  0  0  0  0 
 22 23  1  0  0  0  0 
 23 24  2  0  0  0  0 
 23 25  1  0  0  0  0 
 25 26  2  0  0  0  0 
 26 27  1  0  0  0  0 
 26 28  1  0  0  0  0 
 28 29  1  0  0  0  0 
 28 30  2  0  0  0  0 
 30 31  1  0  0  0  0 
 31 32  1  0  0  0  0 
 31 33  2  0  0  0  0 
 25 33  1  0  0  0  0 
 33 34  1  0  0  0  0 
 30 35  1  0  0  0  0 
 35 36  1  0  0  0  0 
 35 37  1  0  0  0  0 
 37 38  1  0  0  0  0 
 37 39  1  0  0  0  0 
 39 40  1  0  0  0  0 
 39 41  1  0  0  0  0 
 41 42  1  0  0  0  0 
 41 43  1  0  0  0  0 
 43 44  1  0  0  0  0 
 43 45  1  0  0  0  0 
 45 46  1  0  0  0  0 
 45 47  1  0  0  0  0 
 47 48  2  0  0  0  0 
 47 49  1  0  0  0  0 
 49 50  1  0  0  0  0 
 45 51  1  0  0  0  0 
 37 51  1  0  0  0  0 
 43 52  1  0  0  0  0 
 52 53  1  0  0  0  0 
 41 54  1  0  0  0  0 
 54 55  1  0  0  0  0 
 39 56  1  0  0  0  0 
 56 57  1  0  0  0  0 
M  END
> <Rank>
3

> <Priority_score>
0.5

> <Reaction_type>
N-glucuronidation_(aniline)

> <Parent_ID>
23

> <Parent_InChI>
InChI=1S/C13H20N2O2/c1-3-15(4-2)9-10-17-13(16)11-5-7-12(14)8-6-11/h5-8H,3-4,9-10,14H2,1-2H3

> <Parent_SMILES>
CCN(CC)CCOC(=O)c1ccc(N)cc1

$$$$
Molecule 23_metabolite 4
  CDK     0516241031

 24 24  0  0  0  0  0  0  0  0999 V2000
   -5.1962   -1.5000    0.0000 C   0  0  0  0  0  0  0  0  0  0  0  0
   -5.1962   -3.0000    0.0000 H   0  0  0  0  0  0  0  0  0  0  0  0
   -3.8962   -0.7500    0.0000 C   0  0  0  0  0  0  0  0  0  0  0  0
   -3.8962    0.7500    0.0000 C   0  0  0  0  0  0  0  0  0  0  0  0
   -2.5972    1.5002    0.0000 H   0  0  0  0  0  0  0  0  0  0  0  0
   -5.1962    1.5000    0.0000 C   0  0  0  0  0  0  0  0  0  0  0  0
   -5.1962    3.0000    0.0000 H   0  0  0  0  0  0  0  0  0  0  0  0
   -6.4962    0.7500    0.0000 C   0  0  0  0  0  0  0  0  0  0  0  0
   -6.4962   -0.7500    0.0000 C   0  0  0  0  0  0  0  0  0  0  0  0
   -7.7951   -1.5002    0.0000 H   0  0  0  0  0  0  0  0  0  0  0  0
   -7.7951    1.5002    0.0000 N   0  0  0  0  0  0  0  0  0  0  0  0
   -9.0942    0.7504    0.0000 H   0  0  0  0  0  0  0  0  0  0  0  0
   -7.7948    3.0002    0.0000 H   0  0  0  0  0  0  0  0  0  0  0  0
   -2.5972   -1.5002    0.0000 C   0  0  0  0  0  0  0  0  0  0  0  0
   -2.5975   -3.0002    0.0000 O   0  0  0  0  0  0  0  0  0  0  0  0
   -1.2981   -0.7504    0.0000 O   0  0  0  0  0  0  0  0  0  0  0  0
    0.0008   -1.5006    0.0000 C   0  0  0  0  0  0  0  0  0  0  0  0
   -0.9635   -2.6495    0.0000 H   0  0  0  0  0  0  0  0  0  0  0  0
    0.9648   -2.6498    0.0000 H   0  0  0  0  0  0  0  0  0  0  0  0
    1.3000   -0.7508    0.0000 C   0  0  0  0  0  0  0  0  0  0  0  0
    2.2644    0.3981    0.0000 H   0  0  0  0  0  0  0  0  0  0  0  0
    0.3360    0.3984    0.0000 H   0  0  0  0  0  0  0  0  0  0  0  0
    2.5989   -1.5010    0.0000 O   0  0  0  0  0  0  0  0  0  0  0  0
    3.8981   -0.7512    0.0000 H   0  0  0  0  0  0  0  0  0  0  0  0
  1  2  1  0  0  0  0 
  1  3  2  0  0  0  0 
  3  4  1  0  0  0  0 
  4  5  1  0  0  0  0 
  4  6  2  0  0  0  0 
  6  7  1  0  0  0  0 
  6  8  1  0  0  0  0 
  8  9  2  0  0  0  0 
  1  9  1  0  0  0  0 
  9 10  1  0  0  0  0 
  8 11  1  0  0  0  0 
 11 12  1  0  0  0  0 
 11 13  1  0  0  0  0 
  3 14  1  0  0  0  0 
 14 15  2  0  0  0  0 
 14 16  1  0  0  0  0 
 16 17  1  0  0  0  0 
 17 18  1  0  0  0  0 
 17 19  1  0  0  0  0 
 17 20  1  0  0  0  0 
 20 21  1  0  0  0  0 
 20 22  1  0  0  0  0 
 20 23  1  0  0  0  0 
 23 24  1  0  0  0  0 
M  END
> <Rank>
4

> <Priority_score>
0.23155763604447047

> <Reaction_type>
N-dealkylation_(tertiaryN-CH2-alkyl)

> <Parent_ID>
23

> <Parent_InChI>
InChI=1S/C13H20N2O2/c1-3-15(4-2)9-10-17-13(16)11-5-7-12(14)8-6-11/h5-8H,3-4,9-10,14H2,1-2H3

> <Parent_SMILES>
CCN(CC)CCOC(=O)c1ccc(N)cc1

$$$$
Molecule 23_metabolite 5
  CDK     0516241031

 22 22  0  0  0  0  0  0  0  0999 V2000
    0.0000    1.5000    0.0000 C   0  0  0  0  0  0  0  0  0  0  0  0
    0.0000    3.0000    0.0000 H   0  0  0  0  0  0  0  0  0  0  0  0
   -1.3000    0.7500    0.0000 C   0  0  0  0  0  0  0  0  0  0  0  0
   -1.3000   -0.7500    0.0000 C   0  0  0  0  0  0  0  0  0  0  0  0
   -2.5989   -1.5002    0.0000 H   0  0  0  0  0  0  0  0  0  0  0  0
    0.0000   -1.5000    0.0000 C   0  0  0  0  0  0  0  0  0  0  0  0
   -0.0000   -3.0000    0.0000 H   0  0  0  0  0  0  0  0  0  0  0  0
    1.3000   -0.7500    0.0000 C   0  0  0  0  0  0  0  0  0  0  0  0
    1.3000    0.7500    0.0000 C   0  0  0  0  0  0  0  0  0  0  0  0
    2.5989    1.5002    0.0000 H   0  0  0  0  0  0  0  0  0  0  0  0
    2.5989   -1.5002    0.0000 N   0  0  0  0  0  0  0  0  0  0  0  0
    3.8981   -0.7504    0.0000 H   0  0  0  0  0  0  0  0  0  0  0  0
    2.5987   -3.0002    0.0000 H   0  0  0  0  0  0  0  0  0  0  0  0
   -2.5989    1.5002    0.0000 C   0  0  0  0  0  0  0  0  0  0  0  0
   -2.5987    3.0002    0.0000 O   0  0  0  0  0  0  0  0  0  0  0  0
   -3.8981    0.7504    0.0000 O   0  0  0  0  0  0  0  0  0  0  0  0
   -5.1970    1.5006    0.0000 C   0  0  0  0  0  0  0  0  0  0  0  0
   -4.2326    2.6495    0.0000 H   0  0  0  0  0  0  0  0  0  0  0  0
   -6.1610    2.6498    0.0000 H   0  0  0  0  0  0  0  0  0  0  0  0
   -6.4962    0.7508    0.0000 C   0  0  0  0  0  0  0  0  0  0  0  0
   -7.7951    1.5010    0.0000 H   0  0  0  0  0  0  0  0  0  0  0  0
   -6.4964   -0.7492    0.0000 O   0  0  0  0  0  0  0  0  0  0  0  0
  1  2  1  0  0  0  0 
  1  3  2  0  0  0  0 
  3  4  1  0  0  0  0 
  4  5  1  0  0  0  0 
  4  6  2  0  0  0  0 
  6  7  1  0  0  0  0 
  6  8  1  0  0  0  0 
  8  9  2  0  0  0  0 
  1  9  1  0  0  0  0 
  9 10  1  0  0  0  0 
  8 11  1  0  0  0  0 
 11 12  1  0  0  0  0 
 11 13  1  0  0  0  0 
  3 14  1  0  0  0  0 
 14 15  2  0  0  0  0 
 14 16  1  0  0  0  0 
 16 17  1  0  0  0  0 
 17 18  1  0  0  0  0 
 17 19  1  0  0  0  0 
 17 20  1  0  0  0  0 
 20 21  1  0  0  0  0 
 20 22  2  0  0  0  0 
M  END
> <Rank>
4

> <Priority_score>
0.23155763604447047

> <Reaction_type>
N-dealkylation

> <Parent_ID>
23

> <Parent_InChI>
InChI=1S/C13H20N2O2/c1-3-15(4-2)9-10-17-13(16)11-5-7-12(14)8-6-11/h5-8H,3-4,9-10,14H2,1-2H3

> <Parent_SMILES>
CCN(CC)CCOC(=O)c1ccc(N)cc1

$$$$
Molecule 23_metabolite 6
  CDK     0516241031

 38 38  0  0  0  0  0  0  0  0999 V2000
  -10.8088    1.7415    0.0000 C   0  0  0  0  0  0  0  0  0  0  0  0
  -10.8086    3.2415    0.0000 H   0  0  0  0  0  0  0  0  0  0  0  0
  -11.3221    0.3321    0.0000 H   0  0  0  0  0  0  0  0  0  0  0  0
  -12.2860    2.0022    0.0000 H   0  0  0  0  0  0  0  0  0  0  0  0
   -9.5099    0.9913    0.0000 C   0  0  0  0  0  0  0  0  0  0  0  0
  -10.4742   -0.1576    0.0000 H   0  0  0  0  0  0  0  0  0  0  0  0
   -8.5459   -0.1579    0.0000 H   0  0  0  0  0  0  0  0  0  0  0  0
   -8.2107    1.7411    0.0000 N   0  0  0  0  0  0  0  0  0  0  0  0
   -8.2105    3.2411    0.0000 C   0  0  0  0  0  0  0  0  0  0  0  0
   -9.6877    2.9809    0.0000 H   0  0  0  0  0  0  0  0  0  0  0  0
   -8.7233    4.6507    0.0000 H   0  0  0  0  0  0  0  0  0  0  0  0
   -6.9113    3.9909    0.0000 C   0  0  0  0  0  0  0  0  0  0  0  0
   -5.6124    3.2407    0.0000 H   0  0  0  0  0  0  0  0  0  0  0  0
   -5.9470    5.1398    0.0000 H   0  0  0  0  0  0  0  0  0  0  0  0
   -7.8753    5.1401    0.0000 H   0  0  0  0  0  0  0  0  0  0  0  0
   -6.4962    0.7508    0.0000 C   0  0  0  0  0  0  0  0  0  0  0  0
   -7.4605   -0.3981    0.0000 H   0  0  0  0  0  0  0  0  0  0  0  0
   -5.1970    1.5006    0.0000 C   0  0  0  0  0  0  0  0  0  0  0  0
   -4.2326    2.6495    0.0000 H   0  0  0  0  0  0  0  0  0  0  0  0
   -6.1610    2.6498    0.0000 H   0  0  0  0  0  0  0  0  0  0  0  0
   -3.8981    0.7504    0.0000 O   0  0  0  0  0  0  0  0  0  0  0  0
   -2.5989    1.5002    0.0000 C   0  0  0  0  0  0  0  0  0  0  0  0
   -2.5987    3.0002    0.0000 O   0  0  0  0  0  0  0  0  0  0  0  0
   -1.3000    0.7500    0.0000 C   0  0  0  0  0  0  0  0  0  0  0  0
   -1.3000   -0.7500    0.0000 C   0  0  0  0  0  0  0  0  0  0  0  0
   -2.5989   -1.5002    0.0000 H   0  0  0  0  0  0  0  0  0  0  0  0
    0.0000   -1.5000    0.0000 C   0  0  0  0  0  0  0  0  0  0  0  0
   -0.0000   -3.0000    0.0000 H   0  0  0  0  0  0  0  0  0  0  0  0
    1.3000   -0.7500    0.0000 C   0  0  0  0  0  0  0  0  0  0  0  0
    1.3000    0.7500    0.0000 C   0  0  0  0  0  0  0  0  0  0  0  0
    2.5989    1.5002    0.0000 H   0  0  0  0  0  0  0  0  0  0  0  0
    0.0000    1.5000    0.0000 C   0  0  0  0  0  0  0  0  0  0  0  0
    0.0000    3.0000    0.0000 H   0  0  0  0  0  0  0  0  0  0  0  0
    2.5989   -1.5002    0.0000 N   0  0  0  0  0  0  0  0  0  0  0  0
    3.8981   -0.7504    0.0000 H   0  0  0  0  0  0  0  0  0  0  0  0
    2.5987   -3.0002    0.0000 H   0  0  0  0  0  0  0  0  0  0  0  0
   -5.5322   -0.3984    0.0000 O   0  0  0  0  0  0  0  0  0  0  0  0
   -6.0454   -1.8078    0.0000 H   0  0  0  0  0  0  0  0  0  0  0  0
  1  2  1  0  0  0  0 
  1  3  1  0  0  0  0 
  1  4  1  0  0  0  0 
  1  5  1  0  0  0  0 
  5  6  1  0  0  0  0 
  5  7  1  0  0  0  0 
  5  8  1  0  0  0  0 
  8  9  1  0  0  0  0 
  9 10  1  0  0  0  0 
  9 11  1  0  0  0  0 
  9 12  1  0  0  0  0 
 12 13  1  0  0  0  0 
 12 14  1  0  0  0  0 
 12 15  1  0  0  0  0 
  8 16  1  0  0  0  0 
 16 17  1  0  0  0  0 
 16 18  1  0  0  0  0 
 18 19  1  0  0  0  0 
 18 20  1  0  0  0  0 
 18 21  1  0  0  0  0 
 21 22  1  0  0  0  0 
 22 23  2  0  0  0  0 
 22 24  1  0  0  0  0 
 24 25  2  0  0  0  0 
 25 26  1  0  0  0  0 
 25 27  1  0  0  0  0 
 27 28  1  0  0  0  0 
 27 29  2  0  0  0  0 
 29 30  1  0  0  0  0 
 30 31  1  0  0  0  0 
 30 32  2  0  0  0  0 
 24 32  1  0  0  0  0 
 32 33  1  0  0  0  0 
 29 34  1  0  0  0  0 
 34 35  1  0  0  0  0 
 34 36  1  0  0  0  0 
 16 37  1  0  0  0  0 
 37 38  1  0  0  0  0 
M  END
> <Rank>
4

> <Priority_score>
0.23155763604447047

> <Reaction_type>
aliphatic hydroxylation

> <Parent_ID>
23

> <Parent_InChI>
InChI=1S/C13H20N2O2/c1-3-15(4-2)9-10-17-13(16)11-5-7-12(14)8-6-11/h5-8H,3-4,9-10,14H2,1-2H3

> <Parent_SMILES>
CCN(CC)CCOC(=O)c1ccc(N)cc1

$$$$
Molecule 23_metabolite 7
  CDK     0516241031

 16 15  0  0  0  0  0  0  0  0999 V2000
    5.0234    2.0393    0.0000 C   0  0  0  0  0  0  0  0  0  0  0  0
    6.3224    2.7893    0.0000 H   0  0  0  0  0  0  0  0  0  0  0  0
    4.5103    3.4488    0.0000 H   0  0  0  0  0  0  0  0  0  0  0  0
    3.5461    1.7788    0.0000 H   0  0  0  0  0  0  0  0  0  0  0  0
    5.0234    0.5393    0.0000 C   0  0  0  0  0  0  0  0  0  0  0  0
    5.5364   -0.8702    0.0000 H   0  0  0  0  0  0  0  0  0  0  0  0
    6.5006    0.7998    0.0000 H   0  0  0  0  0  0  0  0  0  0  0  0
    3.3086   -0.4507    0.0000 N   0  0  0  0  0  0  0  0  0  0  0  0
    2.0096    0.2993    0.0000 H   0  0  0  0  0  0  0  0  0  0  0  0
    3.3086   -1.9507    0.0000 C   0  0  0  0  0  0  0  0  0  0  0  0
    3.8217   -3.3602    0.0000 H   0  0  0  0  0  0  0  0  0  0  0  0
    4.7858   -1.6902    0.0000 H   0  0  0  0  0  0  0  0  0  0  0  0
    2.0096   -2.7007    0.0000 C   0  0  0  0  0  0  0  0  0  0  0  0
    2.0096   -4.2007    0.0000 H   0  0  0  0  0  0  0  0  0  0  0  0
    1.4966   -1.2912    0.0000 H   0  0  0  0  0  0  0  0  0  0  0  0
    0.5324   -2.9612    0.0000 H   0  0  0  0  0  0  0  0  0  0  0  0
  1  2  1  0  0  0  0 
  1  3  1  0  0  0  0 
  1  4  1  0  0  0  0 
  1  5  1  0  0  0  0 
  5  6  1  0  0  0  0 
  5  7  1  0  0  0  0 
  5  8  1  0  0  0  0 
  8  9  1  0  0  0  0 
  8 10  1  0  0  0  0 
 10 11  1  0  0  0  0 
 10 12  1  0  0  0  0 
 10 13  1  0  0  0  0 
 13 14  1  0  0  0  0 
 13 15  1  0  0  0  0 
 13 16  1  0  0  0  0 
M  END
> <Rank>
4

> <Priority_score>
0.23155763604447047

> <Reaction_type>
N-dealkylation_(tertiaryN-CH2-alkyl)

> <Parent_ID>
23

> <Parent_InChI>
InChI=1S/C13H20N2O2/c1-3-15(4-2)9-10-17-13(16)11-5-7-12(14)8-6-11/h5-8H,3-4,9-10,14H2,1-2H3

> <Parent_SMILES>
CCN(CC)CCOC(=O)c1ccc(N)cc1

$$$$
Molecule 23_metabolite 8
  CDK     0516241031

 38 38  0  0  0  0  0  0  0  0999 V2000
    2.8366    1.5378    0.0000 C   0  0  0  0  0  0  0  0  0  0  0  0
    2.8364    0.0378    0.0000 H   0  0  0  0  0  0  0  0  0  0  0  0
    3.3499    2.9472    0.0000 H   0  0  0  0  0  0  0  0  0  0  0  0
    4.3138    1.2771    0.0000 H   0  0  0  0  0  0  0  0  0  0  0  0
    1.5377    2.2880    0.0000 C   0  0  0  0  0  0  0  0  0  0  0  0
    2.5021    3.4369    0.0000 H   0  0  0  0  0  0  0  0  0  0  0  0
    0.5737    3.4372    0.0000 H   0  0  0  0  0  0  0  0  0  0  0  0
   -0.1772    1.2983    0.0000 N   0  0  0  0  0  0  0  0  0  0  0  0
   -1.1415    0.1493    0.0000 C   0  0  0  0  0  0  0  0  0  0  0  0
   -2.1055    1.2986    0.0000 H   0  0  0  0  0  0  0  0  0  0  0  0
   -2.4407   -0.6004    0.0000 H   0  0  0  0  0  0  0  0  0  0  0  0
   -0.6287   -1.2603    0.0000 C   0  0  0  0  0  0  0  0  0  0  0  0
    0.8484   -1.5210    0.0000 H   0  0  0  0  0  0  0  0  0  0  0  0
   -2.1060   -1.5205    0.0000 H   0  0  0  0  0  0  0  0  0  0  0  0
   -0.6290   -2.7603    0.0000 H   0  0  0  0  0  0  0  0  0  0  0  0
   -1.8917    2.2885    0.0000 C   0  0  0  0  0  0  0  0  0  0  0  0
   -0.9274    3.4374    0.0000 H   0  0  0  0  0  0  0  0  0  0  0  0
   -2.8557    3.4378    0.0000 H   0  0  0  0  0  0  0  0  0  0  0  0
   -3.1909    1.5387    0.0000 C   0  0  0  0  0  0  0  0  0  0  0  0
   -4.1553    0.3898    0.0000 H   0  0  0  0  0  0  0  0  0  0  0  0
   -2.2269    0.3895    0.0000 H   0  0  0  0  0  0  0  0  0  0  0  0
   -4.4898    2.2889    0.0000 O   0  0  0  0  0  0  0  0  0  0  0  0
   -5.7890    1.5392    0.0000 C   0  0  0  0  0  0  0  0  0  0  0  0
   -5.7892    0.0392    0.0000 O   0  0  0  0  0  0  0  0  0  0  0  0
   -7.0879    2.2894    0.0000 C   0  0  0  0  0  0  0  0  0  0  0  0
   -7.0879    3.7894    0.0000 C   0  0  0  0  0  0  0  0  0  0  0  0
   -5.7890    4.5396    0.0000 H   0  0  0  0  0  0  0  0  0  0  0  0
   -8.3879    4.5394    0.0000 C   0  0  0  0  0  0  0  0  0  0  0  0
   -8.3879    6.0394    0.0000 H   0  0  0  0  0  0  0  0  0  0  0  0
   -9.6879    3.7894    0.0000 C   0  0  0  0  0  0  0  0  0  0  0  0
   -9.6879    2.2894    0.0000 C   0  0  0  0  0  0  0  0  0  0  0  0
  -10.9868    1.5392    0.0000 H   0  0  0  0  0  0  0  0  0  0  0  0
   -8.3879    1.5394    0.0000 C   0  0  0  0  0  0  0  0  0  0  0  0
   -8.3879    0.0394    0.0000 H   0  0  0  0  0  0  0  0  0  0  0  0
  -10.9868    4.5396    0.0000 N   0  0  0  0  0  0  0  0  0  0  0  0
  -12.2860    3.7898    0.0000 H   0  0  0  0  0  0  0  0  0  0  0  0
  -10.9866    6.0396    0.0000 H   0  0  0  0  0  0  0  0  0  0  0  0
    0.7868    0.1490    0.0000 O   0  0  0  0  0  0  0  0  0  0  0  0
  1  2  1  0  0  0  0 
  1  3  1  0  0  0  0 
  1  4  1  0  0  0  0 
  1  5  1  0  0  0  0 
  5  6  1  0  0  0  0 
  5  7  1  0  0  0  0 
  5  8  1  0  0  0  0 
  8  9  1  0  0  0  0 
  9 10  1  0  0  0  0 
  9 11  1  0  0  0  0 
  9 12  1  0  0  0  0 
 12 13  1  0  0  0  0 
 12 14  1  0  0  0  0 
 12 15  1  0  0  0  0 
  8 16  1  0  0  0  0 
 16 17  1  0  0  0  0 
 16 18  1  0  0  0  0 
 16 19  1  0  0  0  0 
 19 20  1  0  0  0  0 
 19 21  1  0  0  0  0 
 19 22  1  0  0  0  0 
 22 23  1  0  0  0  0 
 23 24  2  0  0  0  0 
 23 25  1  0  0  0  0 
 25 26  2  0  0  0  0 
 26 27  1  0  0  0  0 
 26 28  1  0  0  0  0 
 28 29  1  0  0  0  0 
 28 30  2  0  0  0  0 
 30 31  1  0  0  0  0 
 31 32  1  0  0  0  0 
 31 33  2  0  0  0  0 
 25 33  1  0  0  0  0 
 33 34  1  0  0  0  0 
 30 35  1  0  0  0  0 
 35 36  1  0  0  0  0 
 35 37  1  0  0  0  0 
  8 38  1  0  0  0  0 
M  CHG  1   8   1
M  CHG  1  38  -1
M  END
> <Rank>
4

> <Priority_score>
0.23155763604447047

> <Reaction_type>
N-oxidation_(tertiary_N)

> <Parent_ID>
23

> <Parent_InChI>
InChI=1S/C13H20N2O2/c1-3-15(4-2)9-10-17-13(16)11-5-7-12(14)8-6-11/h5-8H,3-4,9-10,14H2,1-2H3

> <Parent_SMILES>
CCN(CC)CCOC(=O)c1ccc(N)cc1

$$$$
Molecule 23_metabolite 9
  CDK     0516241031

 17 17  0  0  0  0  0  0  0  0999 V2000
    0.0000    1.5000    0.0000 C   0  0  0  0  0  0  0  0  0  0  0  0
    0.0000    3.0000    0.0000 H   0  0  0  0  0  0  0  0  0  0  0  0
   -1.3000    0.7500    0.0000 C   0  0  0  0  0  0  0  0  0  0  0  0
   -1.3000   -0.7500    0.0000 C   0  0  0  0  0  0  0  0  0  0  0  0
   -2.5989   -1.5002    0.0000 H   0  0  0  0  0  0  0  0  0  0  0  0
    0.0000   -1.5000    0.0000 C   0  0  0  0  0  0  0  0  0  0  0  0
   -0.0000   -3.0000    0.0000 H   0  0  0  0  0  0  0  0  0  0  0  0
    1.3000   -0.7500    0.0000 C   0  0  0  0  0  0  0  0  0  0  0  0
    1.3000    0.7500    0.0000 C   0  0  0  0  0  0  0  0  0  0  0  0
    2.5989    1.5002    0.0000 H   0  0  0  0  0  0  0  0  0  0  0  0
    2.5989   -1.5002    0.0000 N   0  0  0  0  0  0  0  0  0  0  0  0
    3.8981   -0.7504    0.0000 H   0  0  0  0  0  0  0  0  0  0  0  0
    2.5987   -3.0002    0.0000 H   0  0  0  0  0  0  0  0  0  0  0  0
   -2.5989    1.5002    0.0000 C   0  0  0  0  0  0  0  0  0  0  0  0
   -2.5987    3.0002    0.0000 O   0  0  0  0  0  0  0  0  0  0  0  0
   -3.8981    0.7504    0.0000 O   0  0  0  0  0  0  0  0  0  0  0  0
   -5.1970    1.5006    0.0000 H   0  0  0  0  0  0  0  0  0  0  0  0
  1  2  1  0  0  0  0 
  1  3  2  0  0  0  0 
  3  4  1  0  0  0  0 
  4  5  1  0  0  0  0 
  4  6  2  0  0  0  0 
  6  7  1  0  0  0  0 
  6  8  1  0  0  0  0 
  8  9  2  0  0  0  0 
  1  9  1  0  0  0  0 
  9 10  1  0  0  0  0 
  8 11  1  0  0  0  0 
 11 12  1  0  0  0  0 
 11 13  1  0  0  0  0 
  3 14  1  0  0  0  0 
 14 15  2  0  0  0  0 
 14 16  1  0  0  0  0 
 16 17  1  0  0  0  0 
M  END
> <Rank>
9

> <Priority_score>
0.188

> <Reaction_type>
hydrolysis_(ester)

> <Parent_ID>
23

> <Parent_InChI>
InChI=1S/C13H20N2O2/c1-3-15(4-2)9-10-17-13(16)11-5-7-12(14)8-6-11/h5-8H,3-4,9-10,14H2,1-2H3

> <Parent_SMILES>
CCN(CC)CCOC(=O)c1ccc(N)cc1

$$$$
Molecule 23_metabolite 10
  CDK     0516241031

 21 20  0  0  0  0  0  0  0  0999 V2000
    4.2610   -4.5510    0.0000 C   0  0  0  0  0  0  0  0  0  0  0  0
    5.5601   -3.8010    0.0000 H   0  0  0  0  0  0  0  0  0  0  0  0
    5.2252   -5.7001    0.0000 H   0  0  0  0  0  0  0  0  0  0  0  0
    3.2969   -5.7001    0.0000 H   0  0  0  0  0  0  0  0  0  0  0  0
    2.9620   -3.8010    0.0000 C   0  0  0  0  0  0  0  0  0  0  0  0
    1.4848   -3.5406    0.0000 H   0  0  0  0  0  0  0  0  0  0  0  0
    2.4490   -5.2106    0.0000 H   0  0  0  0  0  0  0  0  0  0  0  0
    2.9620   -2.3010    0.0000 N   0  0  0  0  0  0  0  0  0  0  0  0
    1.2473   -1.3110    0.0000 C   0  0  0  0  0  0  0  0  0  0  0  0
   -0.2299   -1.0506    0.0000 H   0  0  0  0  0  0  0  0  0  0  0  0
    0.7342   -2.7206    0.0000 H   0  0  0  0  0  0  0  0  0  0  0  0
    1.2473    0.1890    0.0000 C   0  0  0  0  0  0  0  0  0  0  0  0
   -0.0518    0.9390    0.0000 H   0  0  0  0  0  0  0  0  0  0  0  0
    2.7245   -0.0715    0.0000 H   0  0  0  0  0  0  0  0  0  0  0  0
    1.7603    1.5985    0.0000 H   0  0  0  0  0  0  0  0  0  0  0  0
    4.2610   -1.5510    0.0000 C   0  0  0  0  0  0  0  0  0  0  0  0
    4.7741   -2.9606    0.0000 H   0  0  0  0  0  0  0  0  0  0  0  0
    5.7383   -1.2906    0.0000 H   0  0  0  0  0  0  0  0  0  0  0  0
    4.2610   -0.0510    0.0000 C   0  0  0  0  0  0  0  0  0  0  0  0
    5.5601    0.6990    0.0000 H   0  0  0  0  0  0  0  0  0  0  0  0
    2.9620    0.6990    0.0000 O   0  0  0  0  0  0  0  0  0  0  0  0
  1  2  1  0  0  0  0 
  1  3  1  0  0  0  0 
  1  4  1  0  0  0  0 
  1  5  1  0  0  0  0 
  5  6  1  0  0  0  0 
  5  7  1  0  0  0  0 
  5  8  1  0  0  0  0 
  8  9  1  0  0  0  0 
  9 10  1  0  0  0  0 
  9 11  1  0  0  0  0 
  9 12  1  0  0  0  0 
 12 13  1  0  0  0  0 
 12 14  1  0  0  0  0 
 12 15  1  0  0  0  0 
  8 16  1  0  0  0  0 
 16 17  1  0  0  0  0 
 16 18  1  0  0  0  0 
 16 19  1  0  0  0  0 
 19 20  1  0  0  0  0 
 19 21  2  0  0  0  0 
M  END
> <Rank>
9

> <Priority_score>
0.188

> <Reaction_type>
oxidative ether cleavage to one alcohol and one aldehyde/ketone

> <Parent_ID>
23

> <Parent_InChI>
InChI=1S/C13H20N2O2/c1-3-15(4-2)9-10-17-13(16)11-5-7-12(14)8-6-11/h5-8H,3-4,9-10,14H2,1-2H3

> <Parent_SMILES>
CCN(CC)CCOC(=O)c1ccc(N)cc1

$$$$
Molecule 23_metabolite 11
  CDK     0516241031

 31 31  0  0  0  0  0  0  0  0999 V2000
  -10.3931    1.5015    0.0000 C   0  0  0  0  0  0  0  0  0  0  0  0
  -11.6923    0.7517    0.0000 H   0  0  0  0  0  0  0  0  0  0  0  0
   -9.4288    2.6504    0.0000 H   0  0  0  0  0  0  0  0  0  0  0  0
  -11.3571    2.6507    0.0000 H   0  0  0  0  0  0  0  0  0  0  0  0
   -9.0942    0.7512    0.0000 C   0  0  0  0  0  0  0  0  0  0  0  0
  -10.0586   -0.3977    0.0000 H   0  0  0  0  0  0  0  0  0  0  0  0
   -8.1302   -0.3980    0.0000 H   0  0  0  0  0  0  0  0  0  0  0  0
   -7.7951    1.5010    0.0000 N   0  0  0  0  0  0  0  0  0  0  0  0
   -7.7948    3.0010    0.0000 H   0  0  0  0  0  0  0  0  0  0  0  0
   -6.0805    0.5108    0.0000 C   0  0  0  0  0  0  0  0  0  0  0  0
   -7.0449   -0.6381    0.0000 H   0  0  0  0  0  0  0  0  0  0  0  0
   -5.1165   -0.6385    0.0000 H   0  0  0  0  0  0  0  0  0  0  0  0
   -4.7813    1.2606    0.0000 C   0  0  0  0  0  0  0  0  0  0  0  0
   -3.8170    2.4095    0.0000 H   0  0  0  0  0  0  0  0  0  0  0  0
   -5.7453    2.4098    0.0000 H   0  0  0  0  0  0  0  0  0  0  0  0
   -3.4824    0.5103    0.0000 O   0  0  0  0  0  0  0  0  0  0  0  0
   -2.1833    1.2601    0.0000 C   0  0  0  0  0  0  0  0  0  0  0  0
   -2.1830    2.7601    0.0000 O   0  0  0  0  0  0  0  0  0  0  0  0
   -0.8843    0.5099    0.0000 C   0  0  0  0  0  0  0  0  0  0  0  0
   -0.8843   -0.9901    0.0000 C   0  0  0  0  0  0  0  0  0  0  0  0
   -2.1833   -1.7403    0.0000 H   0  0  0  0  0  0  0  0  0  0  0  0
    0.4157   -1.7401    0.0000 C   0  0  0  0  0  0  0  0  0  0  0  0
    0.4157   -3.2401    0.0000 H   0  0  0  0  0  0  0  0  0  0  0  0
    1.7157   -0.9901    0.0000 C   0  0  0  0  0  0  0  0  0  0  0  0
    1.7157    0.5099    0.0000 C   0  0  0  0  0  0  0  0  0  0  0  0
    3.0146    1.2601    0.0000 H   0  0  0  0  0  0  0  0  0  0  0  0
    0.4157    1.2599    0.0000 C   0  0  0  0  0  0  0  0  0  0  0  0
    0.4157    2.7599    0.0000 H   0  0  0  0  0  0  0  0  0  0  0  0
    3.0146   -1.7403    0.0000 N   0  0  0  0  0  0  0  0  0  0  0  0
    4.3137   -0.9905    0.0000 H   0  0  0  0  0  0  0  0  0  0  0  0
    3.0143   -3.2403    0.0000 H   0  0  0  0  0  0  0  0  0  0  0  0
  1  2  1  0  0  0  0 
  1  3  1  0  0  0  0 
  1  4  1  0  0  0  0 
  1  5  1  0  0  0  0 
  5  6  1  0  0  0  0 
  5  7  1  0  0  0  0 
  5  8  1  0  0  0  0 
  8  9  1  0  0  0  0 
  8 10  1  0  0  0  0 
 10 11  1  0  0  0  0 
 10 12  1  0  0  0  0 
 10 13  1  0  0  0  0 
 13 14  1  0  0  0  0 
 13 15  1  0  0  0  0 
 13 16  1  0  0  0  0 
 16 17  1  0  0  0  0 
 17 18  2  0  0  0  0 
 17 19  1  0  0  0  0 
 19 20  2  0  0  0  0 
 20 21  1  0  0  0  0 
 20 22  1  0  0  0  0 
 22 23  1  0  0  0  0 
 22 24  2  0  0  0  0 
 24 25  1  0  0  0  0 
 25 26  1  0  0  0  0 
 25 27  2  0  0  0  0 
 19 27  1  0  0  0  0 
 27 28  1  0  0  0  0 
 24 29  1  0  0  0  0 
 29 30  1  0  0  0  0 
 29 31  1  0  0  0  0 
M  END
> <Rank>
9

> <Priority_score>
0.188

> <Reaction_type>
N-dealkylation_(tertiaryN-CH2-alkyl)

> <Parent_ID>
23

> <Parent_InChI>
InChI=1S/C13H20N2O2/c1-3-15(4-2)9-10-17-13(16)11-5-7-12(14)8-6-11/h5-8H,3-4,9-10,14H2,1-2H3

> <Parent_SMILES>
CCN(CC)CCOC(=O)c1ccc(N)cc1

$$$$
Molecule 23_metabolite 12
  CDK     0516241031

 38 38  0  0  0  0  0  0  0  0999 V2000
  -10.8088    1.7415    0.0000 C   0  0  0  0  0  0  0  0  0  0  0  0
  -10.8086    3.2415    0.0000 H   0  0  0  0  0  0  0  0  0  0  0  0
  -11.3221    0.3321    0.0000 H   0  0  0  0  0  0  0  0  0  0  0  0
  -12.2860    2.0022    0.0000 H   0  0  0  0  0  0  0  0  0  0  0  0
   -9.5099    0.9913    0.0000 C   0  0  0  0  0  0  0  0  0  0  0  0
  -10.4742   -0.1576    0.0000 H   0  0  0  0  0  0  0  0  0  0  0  0
   -8.5459   -0.1579    0.0000 H   0  0  0  0  0  0  0  0  0  0  0  0
   -8.2107    1.7411    0.0000 N   0  0  0  0  0  0  0  0  0  0  0  0
   -6.4962    0.7508    0.0000 C   0  0  0  0  0  0  0  0  0  0  0  0
   -7.4605   -0.3981    0.0000 H   0  0  0  0  0  0  0  0  0  0  0  0
   -5.5322   -0.3984    0.0000 H   0  0  0  0  0  0  0  0  0  0  0  0
   -5.1970    1.5006    0.0000 C   0  0  0  0  0  0  0  0  0  0  0  0
   -4.2326    2.6495    0.0000 H   0  0  0  0  0  0  0  0  0  0  0  0
   -6.1610    2.6498    0.0000 H   0  0  0  0  0  0  0  0  0  0  0  0
   -3.8981    0.7504    0.0000 O   0  0  0  0  0  0  0  0  0  0  0  0
   -2.5989    1.5002    0.0000 C   0  0  0  0  0  0  0  0  0  0  0  0
   -2.5987    3.0002    0.0000 O   0  0  0  0  0  0  0  0  0  0  0  0
   -1.3000    0.7500    0.0000 C   0  0  0  0  0  0  0  0  0  0  0  0
   -1.3000   -0.7500    0.0000 C   0  0  0  0  0  0  0  0  0  0  0  0
   -2.5989   -1.5002    0.0000 H   0  0  0  0  0  0  0  0  0  0  0  0
    0.0000   -1.5000    0.0000 C   0  0  0  0  0  0  0  0  0  0  0  0
   -0.0000   -3.0000    0.0000 H   0  0  0  0  0  0  0  0  0  0  0  0
    1.3000   -0.7500    0.0000 C   0  0  0  0  0  0  0  0  0  0  0  0
    1.3000    0.7500    0.0000 C   0  0  0  0  0  0  0  0  0  0  0  0
    2.5989    1.5002    0.0000 H   0  0  0  0  0  0  0  0  0  0  0  0
    0.0000    1.5000    0.0000 C   0  0  0  0  0  0  0  0  0  0  0  0
    0.0000    3.0000    0.0000 H   0  0  0  0  0  0  0  0  0  0  0  0
    2.5989   -1.5002    0.0000 N   0  0  0  0  0  0  0  0  0  0  0  0
    3.8981   -0.7504    0.0000 H   0  0  0  0  0  0  0  0  0  0  0  0
    2.5987   -3.0002    0.0000 H   0  0  0  0  0  0  0  0  0  0  0  0
   -8.2105    3.2411    0.0000 C   0  0  0  0  0  0  0  0  0  0  0  0
   -9.6877    2.9809    0.0000 H   0  0  0  0  0  0  0  0  0  0  0  0
   -6.9113    3.9909    0.0000 C   0  0  0  0  0  0  0  0  0  0  0  0
   -5.6124    3.2407    0.0000 H   0  0  0  0  0  0  0  0  0  0  0  0
   -5.9470    5.1398    0.0000 H   0  0  0  0  0  0  0  0  0  0  0  0
   -7.8753    5.1401    0.0000 H   0  0  0  0  0  0  0  0  0  0  0  0
   -8.7233    4.6507    0.0000 O   0  0  0  0  0  0  0  0  0  0  0  0
  -10.2005    4.9114    0.0000 H   0  0  0  0  0  0  0  0  0  0  0  0
  1  2  1  0  0  0  0 
  1  3  1  0  0  0  0 
  1  4  1  0  0  0  0 
  1  5  1  0  0  0  0 
  5  6  1  0  0  0  0 
  5  7  1  0  0  0  0 
  5  8  1  0  0  0  0 
  8  9  1  0  0  0  0 
  9 10  1  0  0  0  0 
  9 11  1  0  0  0  0 
  9 12  1  0  0  0  0 
 12 13  1  0  0  0  0 
 12 14  1  0  0  0  0 
 12 15  1  0  0  0  0 
 15 16  1  0  0  0  0 
 16 17  2  0  0  0  0 
 16 18  1  0  0  0  0 
 18 19  2  0  0  0  0 
 19 20  1  0  0  0  0 
 19 21  1  0  0  0  0 
 21 22  1  0  0  0  0 
 21 23  2  0  0  0  0 
 23 24  1  0  0  0  0 
 24 25  1  0  0  0  0 
 24 26  2  0  0  0  0 
 18 26  1  0  0  0  0 
 26 27  1  0  0  0  0 
 23 28  1  0  0  0  0 
 28 29  1  0  0  0  0 
 28 30  1  0  0  0  0 
  8 31  1  0  0  0  0 
 31 32  1  0  0  0  0 
 31 33  1  0  0  0  0 
 33 34  1  0  0  0  0 
 33 35  1  0  0  0  0 
 33 36  1  0  0  0  0 
 31 37  1  0  0  0  0 
 37 38  1  0  0  0  0 
M  END
> <Rank>
9

> <Priority_score>
0.188

> <Reaction_type>
aliphatic hydroxylation

> <Parent_ID>
23

> <Parent_InChI>
InChI=1S/C13H20N2O2/c1-3-15(4-2)9-10-17-13(16)11-5-7-12(14)8-6-11/h5-8H,3-4,9-10,14H2,1-2H3

> <Parent_SMILES>
CCN(CC)CCOC(=O)c1ccc(N)cc1

$$$$
Molecule 23_metabolite 13
  CDK     0516241031

  7  6  0  0  0  0  0  0  0  0999 V2000
    2.7500   -0.4868    0.0000 C   0  0  0  0  0  0  0  0  0  0  0  0
    2.7500   -1.9868    0.0000 H   0  0  0  0  0  0  0  0  0  0  0  0
    4.2272   -0.7473    0.0000 H   0  0  0  0  0  0  0  0  0  0  0  0
    3.2631    0.9227    0.0000 H   0  0  0  0  0  0  0  0  0  0  0  0
    1.4510    0.2632    0.0000 C   0  0  0  0  0  0  0  0  0  0  0  0
    1.4510    1.7632    0.0000 H   0  0  0  0  0  0  0  0  0  0  0  0
    0.1520   -0.4868    0.0000 O   0  0  0  0  0  0  0  0  0  0  0  0
  1  2  1  0  0  0  0 
  1  3  1  0  0  0  0 
  1  4  1  0  0  0  0 
  1  5  1  0  0  0  0 
  5  6  1  0  0  0  0 
  5  7  2  0  0  0  0 
M  END
> <Rank>
9

> <Priority_score>
0.188

> <Reaction_type>
N-dealkylation

> <Parent_ID>
23

> <Parent_InChI>
InChI=1S/C13H20N2O2/c1-3-15(4-2)9-10-17-13(16)11-5-7-12(14)8-6-11/h5-8H,3-4,9-10,14H2,1-2H3

> <Parent_SMILES>
CCN(CC)CCOC(=O)c1ccc(N)cc1

$$$$
Molecule 23_metabolite 14
  CDK     0516241031

  9  8  0  0  0  0  0  0  0  0999 V2000
    1.2990   -0.7500    0.0000 C   0  0  0  0  0  0  0  0  0  0  0  0
    0.0000    0.0000    0.0000 H   0  0  0  0  0  0  0  0  0  0  0  0
    0.3349   -1.8991    0.0000 H   0  0  0  0  0  0  0  0  0  0  0  0
    2.2632   -1.8991    0.0000 H   0  0  0  0  0  0  0  0  0  0  0  0
    2.5981   -0.0000    0.0000 C   0  0  0  0  0  0  0  0  0  0  0  0
    3.5623    1.1491    0.0000 H   0  0  0  0  0  0  0  0  0  0  0  0
    1.6339    1.1491    0.0000 H   0  0  0  0  0  0  0  0  0  0  0  0
    3.8971   -0.7500    0.0000 O   0  0  0  0  0  0  0  0  0  0  0  0
    5.1962   -0.0000    0.0000 H   0  0  0  0  0  0  0  0  0  0  0  0
  1  2  1  0  0  0  0 
  1  3  1  0  0  0  0 
  1  4  1  0  0  0  0 
  1  5  1  0  0  0  0 
  5  6  1  0  0  0  0 
  5  7  1  0  0  0  0 
  5  8  1  0  0  0  0 
  8  9  1  0  0  0  0 
M  END
> <Rank>
9

> <Priority_score>
0.188

> <Reaction_type>
N-dealkylation_(tertiaryN-CH2-alkyl)

> <Parent_ID>
23

> <Parent_InChI>
InChI=1S/C13H20N2O2/c1-3-15(4-2)9-10-17-13(16)11-5-7-12(14)8-6-11/h5-8H,3-4,9-10,14H2,1-2H3

> <Parent_SMILES>
CCN(CC)CCOC(=O)c1ccc(N)cc1

$$$$
Molecule 23_metabolite 15
  CDK     0516241031

 23 22  0  0  0  0  0  0  0  0999 V2000
    6.4952   -2.6009    0.0000 C   0  0  0  0  0  0  0  0  0  0  0  0
    6.4952   -1.1009    0.0000 H   0  0  0  0  0  0  0  0  0  0  0  0
    7.9724   -2.3405    0.0000 H   0  0  0  0  0  0  0  0  0  0  0  0
    7.0082   -4.0105    0.0000 H   0  0  0  0  0  0  0  0  0  0  0  0
    5.1962   -3.3509    0.0000 C   0  0  0  0  0  0  0  0  0  0  0  0
    4.2320   -4.5000    0.0000 H   0  0  0  0  0  0  0  0  0  0  0  0
    6.1603   -4.5000    0.0000 H   0  0  0  0  0  0  0  0  0  0  0  0
    3.8971   -2.6009    0.0000 N   0  0  0  0  0  0  0  0  0  0  0  0
    3.8971   -1.1009    0.0000 C   0  0  0  0  0  0  0  0  0  0  0  0
    5.3743   -1.3614    0.0000 H   0  0  0  0  0  0  0  0  0  0  0  0
    4.4101    0.3086    0.0000 H   0  0  0  0  0  0  0  0  0  0  0  0
    2.5981   -0.3509    0.0000 C   0  0  0  0  0  0  0  0  0  0  0  0
    2.5981    1.1491    0.0000 H   0  0  0  0  0  0  0  0  0  0  0  0
    1.1209   -0.0905    0.0000 H   0  0  0  0  0  0  0  0  0  0  0  0
    2.0850   -1.7605    0.0000 H   0  0  0  0  0  0  0  0  0  0  0  0
    2.1824   -3.5909    0.0000 C   0  0  0  0  0  0  0  0  0  0  0  0
    1.2182   -4.7400    0.0000 H   0  0  0  0  0  0  0  0  0  0  0  0
    3.1466   -4.7400    0.0000 H   0  0  0  0  0  0  0  0  0  0  0  0
    0.8833   -2.8409    0.0000 C   0  0  0  0  0  0  0  0  0  0  0  0
    0.3703   -4.2505    0.0000 H   0  0  0  0  0  0  0  0  0  0  0  0
   -0.5939   -2.5805    0.0000 H   0  0  0  0  0  0  0  0  0  0  0  0
    0.8833   -1.3409    0.0000 O   0  0  0  0  0  0  0  0  0  0  0  0
   -0.4157   -0.5909    0.0000 H   0  0  0  0  0  0  0  0  0  0  0  0
  1  2  1  0  0  0  0 
  1  3  1  0  0  0  0 
  1  4  1  0  0  0  0 
  1  5  1  0  0  0  0 
  5  6  1  0  0  0  0 
  5  7  1  0  0  0  0 
  5  8  1  0  0  0  0 
  8  9  1  0  0  0  0 
  9 10  1  0  0  0  0 
  9 11  1  0  0  0  0 
  9 12  1  0  0  0  0 
 12 13  1  0  0  0  0 
 12 14  1  0  0  0  0 
 12 15  1  0  0  0  0 
  8 16  1  0  0  0  0 
 16 17  1  0  0  0  0 
 16 18  1  0  0  0  0 
 16 19  1  0  0  0  0 
 19 20  1  0  0  0  0 
 19 21  1  0  0  0  0 
 19 22  1  0  0  0  0 
 22 23  1  0  0  0  0 
M  END
> <Rank>
9

> <Priority_score>
0.188

> <Reaction_type>
hydrolysis_(ester)

> <Parent_ID>
23

> <Parent_InChI>
InChI=1S/C13H20N2O2/c1-3-15(4-2)9-10-17-13(16)11-5-7-12(14)8-6-11/h5-8H,3-4,9-10,14H2,1-2H3

> <Parent_SMILES>
CCN(CC)CCOC(=O)c1ccc(N)cc1

$$$$
Molecule 23_metabolite 16
  CDK     0516241031

 38 38  0  0  0  0  0  0  0  0999 V2000
  -10.8635   -5.7356    0.0000 C   0  0  0  0  0  0  0  0  0  0  0  0
  -12.1624   -4.9854    0.0000 H   0  0  0  0  0  0  0  0  0  0  0  0
   -9.8995   -6.8848    0.0000 H   0  0  0  0  0  0  0  0  0  0  0  0
  -11.8279   -6.8845    0.0000 H   0  0  0  0  0  0  0  0  0  0  0  0
   -9.5643   -4.9858    0.0000 C   0  0  0  0  0  0  0  0  0  0  0  0
   -9.0515   -6.3954    0.0000 H   0  0  0  0  0  0  0  0  0  0  0  0
   -8.0871   -4.7256    0.0000 H   0  0  0  0  0  0  0  0  0  0  0  0
   -9.5640   -3.0058    0.0000 N   0  0  0  0  0  0  0  0  0  0  0  0
  -10.8629   -2.2556    0.0000 C   0  0  0  0  0  0  0  0  0  0  0  0
  -11.3762   -3.6651    0.0000 H   0  0  0  0  0  0  0  0  0  0  0  0
  -12.3401   -1.9949    0.0000 H   0  0  0  0  0  0  0  0  0  0  0  0
  -10.8627   -0.7556    0.0000 C   0  0  0  0  0  0  0  0  0  0  0  0
   -9.5635   -0.0058    0.0000 H   0  0  0  0  0  0  0  0  0  0  0  0
  -11.3755    0.6540    0.0000 H   0  0  0  0  0  0  0  0  0  0  0  0
  -12.3399   -1.0158    0.0000 H   0  0  0  0  0  0  0  0  0  0  0  0
   -7.8491   -2.0161    0.0000 C   0  0  0  0  0  0  0  0  0  0  0  0
   -8.8131   -0.8669    0.0000 H   0  0  0  0  0  0  0  0  0  0  0  0
   -6.8848   -0.8672    0.0000 H   0  0  0  0  0  0  0  0  0  0  0  0
   -6.5502   -2.7663    0.0000 C   0  0  0  0  0  0  0  0  0  0  0  0
   -5.5862   -3.9155    0.0000 H   0  0  0  0  0  0  0  0  0  0  0  0
   -7.5146   -3.9152    0.0000 O   0  0  0  0  0  0  0  0  0  0  0  0
   -6.5095   -6.6781    0.0000 H   0  0  0  0  0  0  0  0  0  0  0  0
   -5.2511   -2.0165    0.0000 O   0  0  0  0  0  0  0  0  0  0  0  0
   -3.9521   -2.7667    0.0000 C   0  0  0  0  0  0  0  0  0  0  0  0
   -3.9524   -4.2667    0.0000 O   0  0  0  0  0  0  0  0  0  0  0  0
   -2.6530   -2.0169    0.0000 C   0  0  0  0  0  0  0  0  0  0  0  0
   -2.6525   -0.5169    0.0000 C   0  0  0  0  0  0  0  0  0  0  0  0
   -3.9512    0.2337    0.0000 H   0  0  0  0  0  0  0  0  0  0  0  0
   -1.3523    0.2327    0.0000 C   0  0  0  0  0  0  0  0  0  0  0  0
   -1.3518    1.7327    0.0000 H   0  0  0  0  0  0  0  0  0  0  0  0
   -0.0525   -0.5178    0.0000 C   0  0  0  0  0  0  0  0  0  0  0  0
   -0.0530   -2.0178    0.0000 C   0  0  0  0  0  0  0  0  0  0  0  0
    1.2457   -2.7684    0.0000 H   0  0  0  0  0  0  0  0  0  0  0  0
   -1.3532   -2.7673    0.0000 C   0  0  0  0  0  0  0  0  0  0  0  0
   -1.3537   -4.2673    0.0000 H   0  0  0  0  0  0  0  0  0  0  0  0
    1.2467    0.2320    0.0000 N   0  0  0  0  0  0  0  0  0  0  0  0
    2.5456   -0.5182    0.0000 H   0  0  0  0  0  0  0  0  0  0  0  0
    1.2469    1.7320    0.0000 H   0  0  0  0  0  0  0  0  0  0  0  0
  1  2  1  0  0  0  0 
  1  3  1  0  0  0  0 
  1  4  1  0  0  0  0 
  1  5  1  0  0  0  0 
  5  6  1  0  0  0  0 
  5  7  1  0  0  0  0 
  5  8  1  0  0  0  0 
  8  9  1  0  0  0  0 
  9 10  1  0  0  0  0 
  9 11  1  0  0  0  0 
  9 12  1  0  0  0  0 
 12 13  1  0  0  0  0 
 12 14  1  0  0  0  0 
 12 15  1  0  0  0  0 
  8 16  1  0  0  0  0 
 16 17  1  0  0  0  0 
 16 18  1  0  0  0  0 
 16 19  1  0  0  0  0 
 19 20  1  0  0  0  0 
 19 21  1  0  0  0  0 
 21 22  1  0  0  0  0 
 19 23  1  0  0  0  0 
 23 24  1  0  0  0  0 
 24 25  2  0  0  0  0 
 24 26  1  0  0  0  0 
 26 27  2  0  0  0  0 
 27 28  1  0  0  0  0 
 27 29  1  0  0  0  0 
 29 30  1  0  0  0  0 
 29 31  2  0  0  0  0 
 31 32  1  0  0  0  0 
 32 33  1  0  0  0  0 
 32 34  2  0  0  0  0 
 26 34  1  0  0  0  0 
 34 35  1  0  0  0  0 
 31 36  1  0  0  0  0 
 36 37  1  0  0  0  0 
 36 38  1  0  0  0  0 
M  END
> <Rank>
16

> <Priority_score>
0.1338260337968176

> <Reaction_type>
aliphatic hydroxylation

> <Parent_ID>
23

> <Parent_InChI>
InChI=1S/C13H20N2O2/c1-3-15(4-2)9-10-17-13(16)11-5-7-12(14)8-6-11/h5-8H,3-4,9-10,14H2,1-2H3

> <Parent_SMILES>
CCN(CC)CCOC(=O)c1ccc(N)cc1

$$$$
Molecule 23_metabolite 17
  CDK     0516241031

 38 38  0  0  0  0  0  0  0  0999 V2000
  -10.8088    1.7415    0.0000 C   0  0  0  0  0  0  0  0  0  0  0  0
  -10.8086    3.2415    0.0000 H   0  0  0  0  0  0  0  0  0  0  0  0
  -11.3221    0.3321    0.0000 H   0  0  0  0  0  0  0  0  0  0  0  0
  -12.2860    2.0022    0.0000 H   0  0  0  0  0  0  0  0  0  0  0  0
   -9.5099    0.9913    0.0000 C   0  0  0  0  0  0  0  0  0  0  0  0
  -10.4742   -0.1576    0.0000 H   0  0  0  0  0  0  0  0  0  0  0  0
   -8.5459   -0.1579    0.0000 H   0  0  0  0  0  0  0  0  0  0  0  0
   -8.2107    1.7411    0.0000 N   0  0  0  0  0  0  0  0  0  0  0  0
   -8.2105    3.2411    0.0000 C   0  0  0  0  0  0  0  0  0  0  0  0
   -9.6877    2.9809    0.0000 H   0  0  0  0  0  0  0  0  0  0  0  0
   -8.7233    4.6507    0.0000 H   0  0  0  0  0  0  0  0  0  0  0  0
   -6.9113    3.9909    0.0000 C   0  0  0  0  0  0  0  0  0  0  0  0
   -5.6124    3.2407    0.0000 H   0  0  0  0  0  0  0  0  0  0  0  0
   -5.9470    5.1398    0.0000 H   0  0  0  0  0  0  0  0  0  0  0  0
   -7.8753    5.1401    0.0000 H   0  0  0  0  0  0  0  0  0  0  0  0
   -6.4962    0.7508    0.0000 C   0  0  0  0  0  0  0  0  0  0  0  0
   -7.4605   -0.3981    0.0000 H   0  0  0  0  0  0  0  0  0  0  0  0
   -5.5322   -0.3984    0.0000 H   0  0  0  0  0  0  0  0  0  0  0  0
   -5.1970    1.5006    0.0000 C   0  0  0  0  0  0  0  0  0  0  0  0
   -4.2326    2.6495    0.0000 H   0  0  0  0  0  0  0  0  0  0  0  0
   -6.1610    2.6498    0.0000 H   0  0  0  0  0  0  0  0  0  0  0  0
   -3.8981    0.7504    0.0000 O   0  0  0  0  0  0  0  0  0  0  0  0
   -2.5989    1.5002    0.0000 C   0  0  0  0  0  0  0  0  0  0  0  0
   -2.5987    3.0002    0.0000 O   0  0  0  0  0  0  0  0  0  0  0  0
   -1.3000    0.7500    0.0000 C   0  0  0  0  0  0  0  0  0  0  0  0
   -1.3000   -0.7500    0.0000 C   0  0  0  0  0  0  0  0  0  0  0  0
   -2.5989   -1.5002    0.0000 H   0  0  0  0  0  0  0  0  0  0  0  0
    0.0000   -1.5000    0.0000 C   0  0  0  0  0  0  0  0  0  0  0  0
   -0.0000   -3.0000    0.0000 H   0  0  0  0  0  0  0  0  0  0  0  0
    1.3000   -0.7500    0.0000 C   0  0  0  0  0  0  0  0  0  0  0  0
    1.3000    0.7500    0.0000 C   0  0  0  0  0  0  0  0  0  0  0  0
    2.5989    1.5002    0.0000 H   0  0  0  0  0  0  0  0  0  0  0  0
    0.0000    1.5000    0.0000 C   0  0  0  0  0  0  0  0  0  0  0  0
    0.0000    3.0000    0.0000 H   0  0  0  0  0  0  0  0  0  0  0  0
    2.5989   -1.5002    0.0000 N   0  0  0  0  0  0  0  0  0  0  0  0
    2.5987   -3.0002    0.0000 H   0  0  0  0  0  0  0  0  0  0  0  0
    3.8981   -0.7504    0.0000 O   0  0  0  0  0  0  0  0  0  0  0  0
    5.1970   -1.5006    0.0000 H   0  0  0  0  0  0  0  0  0  0  0  0
  1  2  1  0  0  0  0 
  1  3  1  0  0  0  0 
  1  4  1  0  0  0  0 
  1  5  1  0  0  0  0 
  5  6  1  0  0  0  0 
  5  7  1  0  0  0  0 
  5  8  1  0  0  0  0 
  8  9  1  0  0  0  0 
  9 10  1  0  0  0  0 
  9 11  1  0  0  0  0 
  9 12  1  0  0  0  0 
 12 13  1  0  0  0  0 
 12 14  1  0  0  0  0 
 12 15  1  0  0  0  0 
  8 16  1  0  0  0  0 
 16 17  1  0  0  0  0 
 16 18  1  0  0  0  0 
 16 19  1  0  0  0  0 
 19 20  1  0  0  0  0 
 19 21  1  0  0  0  0 
 19 22  1  0  0  0  0 
 22 23  1  0  0  0  0 
 23 24  2  0  0  0  0 
 23 25  1  0  0  0  0 
 25 26  2  0  0  0  0 
 26 27  1  0  0  0  0 
 26 28  1  0  0  0  0 
 28 29  1  0  0  0  0 
 28 30  2  0  0  0  0 
 30 31  1  0  0  0  0 
 31 32  1  0  0  0  0 
 31 33  2  0  0  0  0 
 25 33  1  0  0  0  0 
 33 34  1  0  0  0  0 
 30 35  1  0  0  0  0 
 35 36  1  0  0  0  0 
 35 37  1  0  0  0  0 
 37 38  1  0  0  0  0 
M  END
> <Rank>
17

> <Priority_score>
0.108

> <Reaction_type>
N-oxidation_(aniline)

> <Parent_ID>
23

> <Parent_InChI>
InChI=1S/C13H20N2O2/c1-3-15(4-2)9-10-17-13(16)11-5-7-12(14)8-6-11/h5-8H,3-4,9-10,14H2,1-2H3

> <Parent_SMILES>
CCN(CC)CCOC(=O)c1ccc(N)cc1

$$$$
Molecule 23_metabolite 18
  CDK     0516241031

 38 38  0  0  0  0  0  0  0  0999 V2000
   -7.0226    8.2771    0.0000 C   0  0  0  0  0  0  0  0  0  0  0  0
   -6.2769    9.5787    0.0000 H   0  0  0  0  0  0  0  0  0  0  0  0
   -8.1684    7.3091    0.0000 H   0  0  0  0  0  0  0  0  0  0  0  0
   -8.1748    9.2375    0.0000 H   0  0  0  0  0  0  0  0  0  0  0  0
   -6.2683    6.9806    0.0000 C   0  0  0  0  0  0  0  0  0  0  0  0
   -7.6761    6.4629    0.0000 H   0  0  0  0  0  0  0  0  0  0  0  0
   -6.0029    5.5043    0.0000 H   0  0  0  0  0  0  0  0  0  0  0  0
   -4.7683    6.9856    0.0000 N   0  0  0  0  0  0  0  0  0  0  0  0
   -4.0226    8.2871    0.0000 C   0  0  0  0  0  0  0  0  0  0  0  0
   -5.4338    8.7955    0.0000 H   0  0  0  0  0  0  0  0  0  0  0  0
   -3.7670    9.7652    0.0000 H   0  0  0  0  0  0  0  0  0  0  0  0
   -2.5226    8.2921    0.0000 C   0  0  0  0  0  0  0  0  0  0  0  0
   -1.7683    6.9956    0.0000 H   0  0  0  0  0  0  0  0  0  0  0  0
   -1.1148    8.8098    0.0000 H   0  0  0  0  0  0  0  0  0  0  0  0
   -2.7880    9.7685    0.0000 H   0  0  0  0  0  0  0  0  0  0  0  0
   -3.7726    5.2742    0.0000 C   0  0  0  0  0  0  0  0  0  0  0  0
   -5.1804    4.7565    0.0000 H   0  0  0  0  0  0  0  0  0  0  0  0
   -3.5072    3.7978    0.0000 H   0  0  0  0  0  0  0  0  0  0  0  0
   -2.2726    5.2792    0.0000 C   0  0  0  0  0  0  0  0  0  0  0  0
   -0.8647    5.7969    0.0000 H   0  0  0  0  0  0  0  0  0  0  0  0
   -2.5380    6.7555    0.0000 H   0  0  0  0  0  0  0  0  0  0  0  0
   -1.5182    3.9826    0.0000 O   0  0  0  0  0  0  0  0  0  0  0  0
   -0.0183    3.9876    0.0000 C   0  0  0  0  0  0  0  0  0  0  0  0
    0.7274    5.2892    0.0000 O   0  0  0  0  0  0  0  0  0  0  0  0
    0.7361    2.6911    0.0000 C   0  0  0  0  0  0  0  0  0  0  0  0
   -0.0061    1.3966    0.0000 C   0  0  0  0  0  0  0  0  0  0  0  0
   -1.5061    1.3943    0.0000 H   0  0  0  0  0  0  0  0  0  0  0  0
    0.7439    0.0975    0.0000 C   0  0  0  0  0  0  0  0  0  0  0  0
   -0.0155   -1.1960    0.0000 H   0  0  0  0  0  0  0  0  0  0  0  0
    2.2461    0.0757    0.0000 C   0  0  0  0  0  0  0  0  0  0  0  0
    2.9956    1.3975    0.0000 C   0  0  0  0  0  0  0  0  0  0  0  0
    2.2456    2.6966    0.0000 C   0  0  0  0  0  0  0  0  0  0  0  0
    2.9932    3.9970    0.0000 H   0  0  0  0  0  0  0  0  0  0  0  0
    4.4955    1.4034    0.0000 O   0  0  0  0  0  0  0  0  0  0  0  0
    5.2506    0.1073    0.0000 H   0  0  0  0  0  0  0  0  0  0  0  0
    2.9917   -1.2259    0.0000 N   0  0  0  0  0  0  0  0  0  0  0  0
    4.4917   -1.2309    0.0000 H   0  0  0  0  0  0  0  0  0  0  0  0
    2.2373   -2.5224    0.0000 H   0  0  0  0  0  0  0  0  0  0  0  0
  1  2  1  0  0  0  0 
  1  3  1  0  0  0  0 
  1  4  1  0  0  0  0 
  1  5  1  0  0  0  0 
  5  6  1  0  0  0  0 
  5  7  1  0  0  0  0 
  5  8  1  0  0  0  0 
  8  9  1  0  0  0  0 
  9 10  1  0  0  0  0 
  9 11  1  0  0  0  0 
  9 12  1  0  0  0  0 
 12 13  1  0  0  0  0 
 12 14  1  0  0  0  0 
 12 15  1  0  0  0  0 
  8 16  1  0  0  0  0 
 16 17  1  0  0  0  0 
 16 18  1  0  0  0  0 
 16 19  1  0  0  0  0 
 19 20  1  0  0  0  0 
 19 21  1  0  0  0  0 
 19 22  1  0  0  0  0 
 22 23  1  0  0  0  0 
 23 24  2  0  0  0  0 
 23 25  1  0  0  0  0 
 25 26  2  0  0  0  0 
 26 27  1  0  0  0  0 
 26 28  1  0  0  0  0 
 28 29  1  0  0  0  0 
 28 30  2  0  0  0  0 
 30 31  1  0  0  0  0 
 31 32  2  0  0  0  0 
 25 32  1  0  0  0  0 
 32 33  1  0  0  0  0 
 31 34  1  0  0  0  0 
 34 35  1  0  0  0  0 
 30 36  1  0  0  0  0 
 36 37  1  0  0  0  0 
 36 38  1  0  0  0  0 
M  END
> <Rank>
17

> <Priority_score>
0.108

> <Reaction_type>
aromatic_hydroxylation_(ortho_to_nitrogen)

> <Parent_ID>
23

> <Parent_InChI>
InChI=1S/C13H20N2O2/c1-3-15(4-2)9-10-17-13(16)11-5-7-12(14)8-6-11/h5-8H,3-4,9-10,14H2,1-2H3

> <Parent_SMILES>
CCN(CC)CCOC(=O)c1ccc(N)cc1

$$$$
Molecule 23_metabolite 19
  CDK     0516241031

 37 37  0  0  0  0  0  0  0  0999 V2000
  -10.8088    1.7415    0.0000 C   0  0  0  0  0  0  0  0  0  0  0  0
  -10.8086    3.2415    0.0000 H   0  0  0  0  0  0  0  0  0  0  0  0
  -11.3221    0.3321    0.0000 H   0  0  0  0  0  0  0  0  0  0  0  0
  -12.2860    2.0022    0.0000 H   0  0  0  0  0  0  0  0  0  0  0  0
   -9.5099    0.9913    0.0000 C   0  0  0  0  0  0  0  0  0  0  0  0
  -10.4742   -0.1576    0.0000 H   0  0  0  0  0  0  0  0  0  0  0  0
   -8.5459   -0.1579    0.0000 H   0  0  0  0  0  0  0  0  0  0  0  0
   -8.2107    1.7411    0.0000 N   0  0  0  0  0  0  0  0  0  0  0  0
   -8.2105    3.2411    0.0000 C   0  0  0  0  0  0  0  0  0  0  0  0
   -9.6877    2.9809    0.0000 H   0  0  0  0  0  0  0  0  0  0  0  0
   -8.7233    4.6507    0.0000 H   0  0  0  0  0  0  0  0  0  0  0  0
   -6.9113    3.9909    0.0000 C   0  0  0  0  0  0  0  0  0  0  0  0
   -5.6124    3.2407    0.0000 H   0  0  0  0  0  0  0  0  0  0  0  0
   -5.9470    5.1398    0.0000 H   0  0  0  0  0  0  0  0  0  0  0  0
   -7.8753    5.1401    0.0000 H   0  0  0  0  0  0  0  0  0  0  0  0
   -6.4962    0.7508    0.0000 C   0  0  0  0  0  0  0  0  0  0  0  0
   -7.4605   -0.3981    0.0000 H   0  0  0  0  0  0  0  0  0  0  0  0
   -5.5322   -0.3984    0.0000 H   0  0  0  0  0  0  0  0  0  0  0  0
   -5.1970    1.5006    0.0000 C   0  0  0  0  0  0  0  0  0  0  0  0
   -4.2326    2.6495    0.0000 H   0  0  0  0  0  0  0  0  0  0  0  0
   -6.1610    2.6498    0.0000 H   0  0  0  0  0  0  0  0  0  0  0  0
   -3.8981    0.7504    0.0000 O   0  0  0  0  0  0  0  0  0  0  0  0
   -2.5989    1.5002    0.0000 C   0  0  0  0  0  0  0  0  0  0  0  0
   -2.5987    3.0002    0.0000 O   0  0  0  0  0  0  0  0  0  0  0  0
   -1.3000    0.7500    0.0000 C   0  0  0  0  0  0  0  0  0  0  0  0
   -1.3000   -0.7500    0.0000 C   0  0  0  0  0  0  0  0  0  0  0  0
   -2.5989   -1.5002    0.0000 H   0  0  0  0  0  0  0  0  0  0  0  0
    0.0000   -1.5000    0.0000 C   0  0  0  0  0  0  0  0  0  0  0  0
   -0.0000   -3.0000    0.0000 H   0  0  0  0  0  0  0  0  0  0  0  0
    1.3000   -0.7500    0.0000 C   0  0  0  0  0  0  0  0  0  0  0  0
    1.3000    0.7500    0.0000 C   0  0  0  0  0  0  0  0  0  0  0  0
    2.5989    1.5002    0.0000 H   0  0  0  0  0  0  0  0  0  0  0  0
    0.0000    1.5000    0.0000 C   0  0  0  0  0  0  0  0  0  0  0  0
    0.0000    3.0000    0.0000 H   0  0  0  0  0  0  0  0  0  0  0  0
    2.5989   -1.5002    0.0000 N   0  0  0  0  0  0  0  0  0  0  0  0
    3.8981   -0.7504    0.0000 O   0  0  0  0  0  0  0  0  0  0  0  0
    2.5987   -3.0002    0.0000 O   0  0  0  0  0  0  0  0  0  0  0  0
  1  2  1  0  0  0  0 
  1  3  1  0  0  0  0 
  1  4  1  0  0  0  0 
  1  5  1  0  0  0  0 
  5  6  1  0  0  0  0 
  5  7  1  0  0  0  0 
  5  8  1  0  0  0  0 
  8  9  1  0  0  0  0 
  9 10  1  0  0  0  0 
  9 11  1  0  0  0  0 
  9 12  1  0  0  0  0 
 12 13  1  0  0  0  0 
 12 14  1  0  0  0  0 
 12 15  1  0  0  0  0 
  8 16  1  0  0  0  0 
 16 17  1  0  0  0  0 
 16 18  1  0  0  0  0 
 16 19  1  0  0  0  0 
 19 20  1  0  0  0  0 
 19 21  1  0  0  0  0 
 19 22  1  0  0  0  0 
 22 23  1  0  0  0  0 
 23 24  2  0  0  0  0 
 23 25  1  0  0  0  0 
 25 26  2  0  0  0  0 
 26 27  1  0  0  0  0 
 26 28  1  0  0  0  0 
 28 29  1  0  0  0  0 
 28 30  2  0  0  0  0 
 30 31  1  0  0  0  0 
 31 32  1  0  0  0  0 
 31 33  2  0  0  0  0 
 25 33  1  0  0  0  0 
 33 34  1  0  0  0  0 
 30 35  1  0  0  0  0 
 35 36  2  0  0  0  0 
 35 37  1  0  0  0  0 
M  CHG  1  35   1
M  CHG  1  37  -1
M  END
> <Rank>
17

> <Priority_score>
0.108

> <Reaction_type>
aniline_to_nitro

> <Parent_ID>
23

> <Parent_InChI>
InChI=1S/C13H20N2O2/c1-3-15(4-2)9-10-17-13(16)11-5-7-12(14)8-6-11/h5-8H,3-4,9-10,14H2,1-2H3

> <Parent_SMILES>
CCN(CC)CCOC(=O)c1ccc(N)cc1

$$$$
Molecule 23_metabolite 20
  CDK     0516241031

 36 36  0  0  0  0  0  0  0  0999 V2000
  -10.3931    1.5015    0.0000 C   0  0  0  0  0  0  0  0  0  0  0  0
  -10.3929    3.0015    0.0000 H   0  0  0  0  0  0  0  0  0  0  0  0
  -10.9064    0.0920    0.0000 H   0  0  0  0  0  0  0  0  0  0  0  0
  -11.8703    1.7622    0.0000 H   0  0  0  0  0  0  0  0  0  0  0  0
   -9.0942    0.7512    0.0000 C   0  0  0  0  0  0  0  0  0  0  0  0
  -10.0586   -0.3977    0.0000 H   0  0  0  0  0  0  0  0  0  0  0  0
   -8.1302   -0.3980    0.0000 H   0  0  0  0  0  0  0  0  0  0  0  0
   -7.7951    1.5010    0.0000 N   0  0  0  0  0  0  0  0  0  0  0  0
   -6.4962    0.7508    0.0000 C   0  0  0  0  0  0  0  0  0  0  0  0
   -6.4964   -0.7492    0.0000 H   0  0  0  0  0  0  0  0  0  0  0  0
   -5.1970    1.5006    0.0000 C   0  0  0  0  0  0  0  0  0  0  0  0
   -4.2326    2.6495    0.0000 H   0  0  0  0  0  0  0  0  0  0  0  0
   -6.1610    2.6498    0.0000 H   0  0  0  0  0  0  0  0  0  0  0  0
   -3.8981    0.7504    0.0000 O   0  0  0  0  0  0  0  0  0  0  0  0
   -2.5989    1.5002    0.0000 C   0  0  0  0  0  0  0  0  0  0  0  0
   -2.5987    3.0002    0.0000 O   0  0  0  0  0  0  0  0  0  0  0  0
   -1.3000    0.7500    0.0000 C   0  0  0  0  0  0  0  0  0  0  0  0
   -1.3000   -0.7500    0.0000 C   0  0  0  0  0  0  0  0  0  0  0  0
   -2.5989   -1.5002    0.0000 H   0  0  0  0  0  0  0  0  0  0  0  0
    0.0000   -1.5000    0.0000 C   0  0  0  0  0  0  0  0  0  0  0  0
   -0.0000   -3.0000    0.0000 H   0  0  0  0  0  0  0  0  0  0  0  0
    1.3000   -0.7500    0.0000 C   0  0  0  0  0  0  0  0  0  0  0  0
    1.3000    0.7500    0.0000 C   0  0  0  0  0  0  0  0  0  0  0  0
    2.5989    1.5002    0.0000 H   0  0  0  0  0  0  0  0  0  0  0  0
    0.0000    1.5000    0.0000 C   0  0  0  0  0  0  0  0  0  0  0  0
    0.0000    3.0000    0.0000 H   0  0  0  0  0  0  0  0  0  0  0  0
    2.5989   -1.5002    0.0000 N   0  0  0  0  0  0  0  0  0  0  0  0
    3.8981   -0.7504    0.0000 H   0  0  0  0  0  0  0  0  0  0  0  0
    2.5987   -3.0002    0.0000 H   0  0  0  0  0  0  0  0  0  0  0  0
   -7.7948    3.0010    0.0000 C   0  0  0  0  0  0  0  0  0  0  0  0
   -9.2721    2.7408    0.0000 H   0  0  0  0  0  0  0  0  0  0  0  0
   -8.3076    4.4107    0.0000 H   0  0  0  0  0  0  0  0  0  0  0  0
   -6.4957    3.7508    0.0000 C   0  0  0  0  0  0  0  0  0  0  0  0
   -5.1968    3.0006    0.0000 H   0  0  0  0  0  0  0  0  0  0  0  0
   -5.5313    4.8997    0.0000 H   0  0  0  0  0  0  0  0  0  0  0  0
   -7.4597    4.9001    0.0000 H   0  0  0  0  0  0  0  0  0  0  0  0
  1  2  1  0  0  0  0 
  1  3  1  0  0  0  0 
  1  4  1  0  0  0  0 
  1  5  1  0  0  0  0 
  5  6  1  0  0  0  0 
  5  7  1  0  0  0  0 
  5  8  1  0  0  0  0 
  8  9  2  0  0  0  0 
  9 10  1  0  0  0  0 
  9 11  1  0  0  0  0 
 11 12  1  0  0  0  0 
 11 13  1  0  0  0  0 
 11 14  1  0  0  0  0 
 14 15  1  0  0  0  0 
 15 16  2  0  0  0  0 
 15 17  1  0  0  0  0 
 17 18  2  0  0  0  0 
 18 19  1  0  0  0  0 
 18 20  1  0  0  0  0 
 20 21  1  0  0  0  0 
 20 22  2  0  0  0  0 
 22 23  1  0  0  0  0 
 23 24  1  0  0  0  0 
 23 25  2  0  0  0  0 
 17 25  1  0  0  0  0 
 25 26  1  0  0  0  0 
 22 27  1  0  0  0  0 
 27 28  1  0  0  0  0 
 27 29  1  0  0  0  0 
  8 30  1  0  0  0  0 
 30 31  1  0  0  0  0 
 30 32  1  0  0  0  0 
 30 33  1  0  0  0  0 
 33 34  1  0  0  0  0 
 33 35  1  0  0  0  0 
 33 36  1  0  0  0  0 
M  CHG  1   8   1
M  END
> <Rank>
20

> <Priority_score>
0.046311527208894095

> <Reaction_type>
dehydration of N-C bond

> <Parent_ID>
23

> <Parent_InChI>
InChI=1S/C13H20N2O2/c1-3-15(4-2)9-10-17-13(16)11-5-7-12(14)8-6-11/h5-8H,3-4,9-10,14H2,1-2H3

> <Parent_SMILES>
CCN(CC)CCOC(=O)c1ccc(N)cc1

$$$$
Molecule 23_metabolite 21
  CDK     0516241031

 35 35  0  0  0  0  0  0  0  0999 V2000
    2.4209    0.7496    0.0000 C   0  0  0  0  0  0  0  0  0  0  0  0
    2.4207   -0.7504    0.0000 H   0  0  0  0  0  0  0  0  0  0  0  0
    2.9342    2.1590    0.0000 H   0  0  0  0  0  0  0  0  0  0  0  0
    3.8981    0.4889    0.0000 H   0  0  0  0  0  0  0  0  0  0  0  0
    1.1220    1.4998    0.0000 C   0  0  0  0  0  0  0  0  0  0  0  0
    2.0864    2.6487    0.0000 H   0  0  0  0  0  0  0  0  0  0  0  0
    0.1580    2.6490    0.0000 H   0  0  0  0  0  0  0  0  0  0  0  0
   -0.1772    0.7500    0.0000 N   0  0  0  0  0  0  0  0  0  0  0  0
   -0.1774   -0.7500    0.0000 C   0  0  0  0  0  0  0  0  0  0  0  0
   -1.6546   -0.4893    0.0000 H   0  0  0  0  0  0  0  0  0  0  0  0
   -0.6907   -2.1595    0.0000 H   0  0  0  0  0  0  0  0  0  0  0  0
    1.1215   -1.5002    0.0000 C   0  0  0  0  0  0  0  0  0  0  0  0
    1.1213   -3.0002    0.0000 H   0  0  0  0  0  0  0  0  0  0  0  0
    2.5987   -1.7609    0.0000 H   0  0  0  0  0  0  0  0  0  0  0  0
    1.6348   -0.0908    0.0000 H   0  0  0  0  0  0  0  0  0  0  0  0
   -1.4761    1.5002    0.0000 C   0  0  0  0  0  0  0  0  0  0  0  0
   -1.4758    3.0002    0.0000 H   0  0  0  0  0  0  0  0  0  0  0  0
   -2.7752    0.7504    0.0000 C   0  0  0  0  0  0  0  0  0  0  0  0
   -2.7755   -0.7496    0.0000 H   0  0  0  0  0  0  0  0  0  0  0  0
   -4.0742    1.5006    0.0000 O   0  0  0  0  0  0  0  0  0  0  0  0
   -5.3733    0.7508    0.0000 C   0  0  0  0  0  0  0  0  0  0  0  0
   -5.3736   -0.7492    0.0000 O   0  0  0  0  0  0  0  0  0  0  0  0
   -6.6722    1.5010    0.0000 C   0  0  0  0  0  0  0  0  0  0  0  0
   -6.6722    3.0010    0.0000 C   0  0  0  0  0  0  0  0  0  0  0  0
   -5.3733    3.7512    0.0000 H   0  0  0  0  0  0  0  0  0  0  0  0
   -7.9722    3.7510    0.0000 C   0  0  0  0  0  0  0  0  0  0  0  0
   -7.9722    5.2510    0.0000 H   0  0  0  0  0  0  0  0  0  0  0  0
   -9.2722    3.0010    0.0000 C   0  0  0  0  0  0  0  0  0  0  0  0
   -9.2722    1.5010    0.0000 C   0  0  0  0  0  0  0  0  0  0  0  0
  -10.5712    0.7508    0.0000 H   0  0  0  0  0  0  0  0  0  0  0  0
   -7.9722    0.7510    0.0000 C   0  0  0  0  0  0  0  0  0  0  0  0
   -7.9722   -0.7490    0.0000 H   0  0  0  0  0  0  0  0  0  0  0  0
  -10.5712    3.7512    0.0000 N   0  0  0  0  0  0  0  0  0  0  0  0
  -11.8703    3.0015    0.0000 H   0  0  0  0  0  0  0  0  0  0  0  0
  -10.5709    5.2512    0.0000 H   0  0  0  0  0  0  0  0  0  0  0  0
  1  2  1  0  0  0  0 
  1  3  1  0  0  0  0 
  1  4  1  0  0  0  0 
  1  5  1  0  0  0  0 
  5  6  1  0  0  0  0 
  5  7  1  0  0  0  0 
  5  8  1  0  0  0  0 
  8  9  1  0  0  0  0 
  9 10  1  0  0  0  0 
  9 11  1  0  0  0  0 
  9 12  1  0  0  0  0 
 12 13  1  0  0  0  0 
 12 14  1  0  0  0  0 
 12 15  1  0  0  0  0 
  8 16  1  0  0  0  0 
 16 17  1  4  0  0  0 
 16 18  2  0  0  0  0 
 18 19  1  0  0  0  0 
 18 20  1  0  0  0  0 
 20 21  1  0  0  0  0 
 21 22  2  0  0  0  0 
 21 23  1  0  0  0  0 
 23 24  2  0  0  0  0 
 24 25  1  0  0  0  0 
 24 26  1  0  0  0  0 
 26 27  1  0  0  0  0 
 26 28  2  0  0  0  0 
 28 29  1  0  0  0  0 
 29 30  1  0  0  0  0 
 29 31  2  0  0  0  0 
 23 31  1  0  0  0  0 
 31 32  1  0  0  0  0 
 28 33  1  0  0  0  0 
 33 34  1  0  0  0  0 
 33 35  1  0  0  0  0 
M  END
> <Rank>
20

> <Priority_score>
0.046311527208894095

> <Reaction_type>
alkyl dehydrogenation

> <Parent_ID>
23

> <Parent_InChI>
InChI=1S/C13H20N2O2/c1-3-15(4-2)9-10-17-13(16)11-5-7-12(14)8-6-11/h5-8H,3-4,9-10,14H2,1-2H3

> <Parent_SMILES>
CCN(CC)CCOC(=O)c1ccc(N)cc1

$$$$
Molecule 23_metabolite 22
  CDK     0516241031

 38 38  0  0  0  0  0  0  0  0999 V2000
  -10.8088    1.7415    0.0000 C   0  0  0  0  0  0  0  0  0  0  0  0
  -10.8086    3.2415    0.0000 H   0  0  0  0  0  0  0  0  0  0  0  0
  -11.3221    0.3321    0.0000 H   0  0  0  0  0  0  0  0  0  0  0  0
  -12.2860    2.0022    0.0000 H   0  0  0  0  0  0  0  0  0  0  0  0
   -9.5099    0.9913    0.0000 C   0  0  0  0  0  0  0  0  0  0  0  0
  -10.4742   -0.1576    0.0000 H   0  0  0  0  0  0  0  0  0  0  0  0
   -8.5459   -0.1579    0.0000 H   0  0  0  0  0  0  0  0  0  0  0  0
   -8.2107    1.7411    0.0000 N   0  0  0  0  0  0  0  0  0  0  0  0
   -8.2105    3.2411    0.0000 C   0  0  0  0  0  0  0  0  0  0  0  0
   -9.6877    2.9809    0.0000 H   0  0  0  0  0  0  0  0  0  0  0  0
   -8.7233    4.6507    0.0000 H   0  0  0  0  0  0  0  0  0  0  0  0
   -6.9113    3.9909    0.0000 C   0  0  0  0  0  0  0  0  0  0  0  0
   -5.6124    3.2407    0.0000 H   0  0  0  0  0  0  0  0  0  0  0  0
   -5.9470    5.1398    0.0000 H   0  0  0  0  0  0  0  0  0  0  0  0
   -7.8753    5.1401    0.0000 H   0  0  0  0  0  0  0  0  0  0  0  0
   -6.4962    0.7508    0.0000 C   0  0  0  0  0  0  0  0  0  0  0  0
   -7.4605   -0.3981    0.0000 H   0  0  0  0  0  0  0  0  0  0  0  0
   -5.5322   -0.3984    0.0000 H   0  0  0  0  0  0  0  0  0  0  0  0
   -5.1970    1.5006    0.0000 C   0  0  0  0  0  0  0  0  0  0  0  0
   -4.2326    2.6495    0.0000 H   0  0  0  0  0  0  0  0  0  0  0  0
   -6.1610    2.6498    0.0000 H   0  0  0  0  0  0  0  0  0  0  0  0
   -3.8981    0.7504    0.0000 O   0  0  0  0  0  0  0  0  0  0  0  0
   -2.5989    1.5002    0.0000 C   0  0  0  0  0  0  0  0  0  0  0  0
   -2.5987    3.0002    0.0000 O   0  0  0  0  0  0  0  0  0  0  0  0
   -1.3000    0.7500    0.0000 C   0  0  0  0  0  0  0  0  0  0  0  0
    0.0000    1.5000    0.0000 C   0  0  0  0  0  0  0  0  0  0  0  0
    0.0000    3.0000    0.0000 H   0  0  0  0  0  0  0  0  0  0  0  0
    1.3000    0.7500    0.0000 C   0  0  0  0  0  0  0  0  0  0  0  0
    2.5989    1.5002    0.0000 H   0  0  0  0  0  0  0  0  0  0  0  0
    1.3000   -0.7500    0.0000 C   0  0  0  0  0  0  0  0  0  0  0  0
    0.0000   -1.5000    0.0000 C   0  0  0  0  0  0  0  0  0  0  0  0
   -0.0000   -3.0000    0.0000 H   0  0  0  0  0  0  0  0  0  0  0  0
   -1.3000   -0.7500    0.0000 C   0  0  0  0  0  0  0  0  0  0  0  0
   -2.5989   -1.5002    0.0000 O   0  0  0  0  0  0  0  0  0  0  0  0
   -2.5987   -3.0002    0.0000 H   0  0  0  0  0  0  0  0  0  0  0  0
    2.5989   -1.5002    0.0000 N   0  0  0  0  0  0  0  0  0  0  0  0
    3.8981   -0.7504    0.0000 H   0  0  0  0  0  0  0  0  0  0  0  0
    2.5987   -3.0002    0.0000 H   0  0  0  0  0  0  0  0  0  0  0  0
  1  2  1  0  0  0  0 
  1  3  1  0  0  0  0 
  1  4  1  0  0  0  0 
  1  5  1  0  0  0  0 
  5  6  1  0  0  0  0 
  5  7  1  0  0  0  0 
  5  8  1  0  0  0  0 
  8  9  1  0  0  0  0 
  9 10  1  0  0  0  0 
  9 11  1  0  0  0  0 
  9 12  1  0  0  0  0 
 12 13  1  0  0  0  0 
 12 14  1  0  0  0  0 
 12 15  1  0  0  0  0 
  8 16  1  0  0  0  0 
 16 17  1  0  0  0  0 
 16 18  1  0  0  0  0 
 16 19  1  0  0  0  0 
 19 20  1  0  0  0  0 
 19 21  1  0  0  0  0 
 19 22  1  0  0  0  0 
 22 23  1  0  0  0  0 
 23 24  2  0  0  0  0 
 23 25  1  0  0  0  0 
 25 26  2  0  0  0  0 
 26 27  1  0  0  0  0 
 26 28  1  0  0  0  0 
 28 29  1  0  0  0  0 
 28 30  2  0  0  0  0 
 30 31  1  0  0  0  0 
 31 32  1  0  0  0  0 
 31 33  2  0  0  0  0 
 25 33  1  0  0  0  0 
 33 34  1  0  0  0  0 
 34 35  1  0  0  0  0 
 30 36  1  0  0  0  0 
 36 37  1  0  0  0  0 
 36 38  1  0  0  0  0 
M  END
> <Rank>
22

> <Priority_score>
0.042969243757426195

> <Reaction_type>
aromatic hydroxylation

> <Parent_ID>
23

> <Parent_InChI>
InChI=1S/C13H20N2O2/c1-3-15(4-2)9-10-17-13(16)11-5-7-12(14)8-6-11/h5-8H,3-4,9-10,14H2,1-2H3

> <Parent_SMILES>
CCN(CC)CCOC(=O)c1ccc(N)cc1

$$$$
Molecule 23_metabolite 23
  CDK     0516241031

 36 36  0  0  0  0  0  0  0  0999 V2000
    1.2995   -1.8510    0.0000 C   0  0  0  0  0  0  0  0  0  0  0  0
    2.5987   -1.1012    0.0000 H   0  0  0  0  0  0  0  0  0  0  0  0
    0.3352   -2.9999    0.0000 H   0  0  0  0  0  0  0  0  0  0  0  0
    2.2635   -3.0002    0.0000 H   0  0  0  0  0  0  0  0  0  0  0  0
    0.0006   -1.1008    0.0000 C   0  0  0  0  0  0  0  0  0  0  0  0
   -1.2986   -1.8506    0.0000 H   0  0  0  0  0  0  0  0  0  0  0  0
    0.0008    0.3992    0.0000 N   0  0  0  0  0  0  0  0  0  0  0  0
    1.3000    1.1490    0.0000 C   0  0  0  0  0  0  0  0  0  0  0  0
    2.2644    2.2979    0.0000 H   0  0  0  0  0  0  0  0  0  0  0  0
    0.3360    2.2982    0.0000 H   0  0  0  0  0  0  0  0  0  0  0  0
    2.5989    0.3988    0.0000 C   0  0  0  0  0  0  0  0  0  0  0  0
    3.8981    1.1486    0.0000 H   0  0  0  0  0  0  0  0  0  0  0  0
    1.6346   -0.7501    0.0000 H   0  0  0  0  0  0  0  0  0  0  0  0
    3.5629   -0.7504    0.0000 H   0  0  0  0  0  0  0  0  0  0  0  0
   -1.7137    1.3895    0.0000 C   0  0  0  0  0  0  0  0  0  0  0  0
   -0.7494    2.5384    0.0000 H   0  0  0  0  0  0  0  0  0  0  0  0
   -2.6777    2.5387    0.0000 H   0  0  0  0  0  0  0  0  0  0  0  0
   -3.0129    0.6397    0.0000 C   0  0  0  0  0  0  0  0  0  0  0  0
   -3.9773   -0.5092    0.0000 H   0  0  0  0  0  0  0  0  0  0  0  0
   -2.0489   -0.5095    0.0000 H   0  0  0  0  0  0  0  0  0  0  0  0
   -4.3118    1.3899    0.0000 O   0  0  0  0  0  0  0  0  0  0  0  0
   -5.6110    0.6401    0.0000 C   0  0  0  0  0  0  0  0  0  0  0  0
   -5.6112   -0.8599    0.0000 O   0  0  0  0  0  0  0  0  0  0  0  0
   -6.9099    1.3903    0.0000 C   0  0  0  0  0  0  0  0  0  0  0  0
   -6.9099    2.8903    0.0000 C   0  0  0  0  0  0  0  0  0  0  0  0
   -5.6110    3.6405    0.0000 H   0  0  0  0  0  0  0  0  0  0  0  0
   -8.2099    3.6403    0.0000 C   0  0  0  0  0  0  0  0  0  0  0  0
   -8.2099    5.1403    0.0000 H   0  0  0  0  0  0  0  0  0  0  0  0
   -9.5099    2.8903    0.0000 C   0  0  0  0  0  0  0  0  0  0  0  0
   -9.5099    1.3903    0.0000 C   0  0  0  0  0  0  0  0  0  0  0  0
  -10.8088    0.6401    0.0000 H   0  0  0  0  0  0  0  0  0  0  0  0
   -8.2099    0.6403    0.0000 C   0  0  0  0  0  0  0  0  0  0  0  0
   -8.2099   -0.8597    0.0000 H   0  0  0  0  0  0  0  0  0  0  0  0
  -10.8088    3.6405    0.0000 N   0  0  0  0  0  0  0  0  0  0  0  0
  -12.1080    2.8907    0.0000 H   0  0  0  0  0  0  0  0  0  0  0  0
  -10.8086    5.1405    0.0000 H   0  0  0  0  0  0  0  0  0  0  0  0
  1  2  1  0  0  0  0 
  1  3  1  0  0  0  0 
  1  4  1  0  0  0  0 
  1  5  1  0  0  0  0 
  5  6  1  4  0  0  0 
  5  7  2  0  0  0  0 
  7  8  1  0  0  0  0 
  8  9  1  0  0  0  0 
  8 10  1  0  0  0  0 
  8 11  1  0  0  0  0 
 11 12  1  0  0  0  0 
 11 13  1  0  0  0  0 
 11 14  1  0  0  0  0 
  7 15  1  0  0  0  0 
 15 16  1  0  0  0  0 
 15 17  1  0  0  0  0 
 15 18  1  0  0  0  0 
 18 19  1  0  0  0  0 
 18 20  1  0  0  0  0 
 18 21  1  0  0  0  0 
 21 22  1  0  0  0  0 
 22 23  2  0  0  0  0 
 22 24  1  0  0  0  0 
 24 25  2  0  0  0  0 
 25 26  1  0  0  0  0 
 25 27  1  0  0  0  0 
 27 28  1  0  0  0  0 
 27 29  2  0  0  0  0 
 29 30  1  0  0  0  0 
 30 31  1  0  0  0  0 
 30 32  2  0  0  0  0 
 24 32  1  0  0  0  0 
 32 33  1  0  0  0  0 
 29 34  1  0  0  0  0 
 34 35  1  0  0  0  0 
 34 36  1  0  0  0  0 
M  CHG  1   7   1
M  END
> <Rank>
23

> <Priority_score>
0.0376

> <Reaction_type>
dehydration of N-C bond

> <Parent_ID>
23

> <Parent_InChI>
InChI=1S/C13H20N2O2/c1-3-15(4-2)9-10-17-13(16)11-5-7-12(14)8-6-11/h5-8H,3-4,9-10,14H2,1-2H3

> <Parent_SMILES>
CCN(CC)CCOC(=O)c1ccc(N)cc1

$$$$
Molecule 23_metabolite 24
  CDK     0516241031

 35 35  0  0  0  0  0  0  0  0999 V2000
   -9.0937    3.7512    0.0000 C   0  0  0  0  0  0  0  0  0  0  0  0
  -10.3929    3.0015    0.0000 H   0  0  0  0  0  0  0  0  0  0  0  0
   -9.0935    5.2512    0.0000 H   0  0  0  0  0  0  0  0  0  0  0  0
   -7.7948    3.0010    0.0000 C   0  0  0  0  0  0  0  0  0  0  0  0
   -6.4957    3.7508    0.0000 H   0  0  0  0  0  0  0  0  0  0  0  0
   -7.7951    1.5010    0.0000 N   0  0  0  0  0  0  0  0  0  0  0  0
   -9.0942    0.7512    0.0000 C   0  0  0  0  0  0  0  0  0  0  0  0
  -10.0586   -0.3977    0.0000 H   0  0  0  0  0  0  0  0  0  0  0  0
   -8.1302   -0.3980    0.0000 H   0  0  0  0  0  0  0  0  0  0  0  0
  -10.3931    1.5015    0.0000 C   0  0  0  0  0  0  0  0  0  0  0  0
  -11.6923    0.7517    0.0000 H   0  0  0  0  0  0  0  0  0  0  0  0
   -9.4288    2.6504    0.0000 H   0  0  0  0  0  0  0  0  0  0  0  0
  -11.3571    2.6507    0.0000 H   0  0  0  0  0  0  0  0  0  0  0  0
   -6.0805    0.5108    0.0000 C   0  0  0  0  0  0  0  0  0  0  0  0
   -7.0449   -0.6381    0.0000 H   0  0  0  0  0  0  0  0  0  0  0  0
   -5.1165   -0.6385    0.0000 H   0  0  0  0  0  0  0  0  0  0  0  0
   -4.7813    1.2606    0.0000 C   0  0  0  0  0  0  0  0  0  0  0  0
   -3.8170    2.4095    0.0000 H   0  0  0  0  0  0  0  0  0  0  0  0
   -5.7453    2.4098    0.0000 H   0  0  0  0  0  0  0  0  0  0  0  0
   -3.4824    0.5103    0.0000 O   0  0  0  0  0  0  0  0  0  0  0  0
   -2.1833    1.2601    0.0000 C   0  0  0  0  0  0  0  0  0  0  0  0
   -2.1830    2.7601    0.0000 O   0  0  0  0  0  0  0  0  0  0  0  0
   -0.8843    0.5099    0.0000 C   0  0  0  0  0  0  0  0  0  0  0  0
   -0.8843   -0.9901    0.0000 C   0  0  0  0  0  0  0  0  0  0  0  0
   -2.1833   -1.7403    0.0000 H   0  0  0  0  0  0  0  0  0  0  0  0
    0.4157   -1.7401    0.0000 C   0  0  0  0  0  0  0  0  0  0  0  0
    0.4157   -3.2401    0.0000 H   0  0  0  0  0  0  0  0  0  0  0  0
    1.7157   -0.9901    0.0000 C   0  0  0  0  0  0  0  0  0  0  0  0
    1.7157    0.5099    0.0000 C   0  0  0  0  0  0  0  0  0  0  0  0
    3.0146    1.2601    0.0000 H   0  0  0  0  0  0  0  0  0  0  0  0
    0.4157    1.2599    0.0000 C   0  0  0  0  0  0  0  0  0  0  0  0
    0.4157    2.7599    0.0000 H   0  0  0  0  0  0  0  0  0  0  0  0
    3.0146   -1.7403    0.0000 N   0  0  0  0  0  0  0  0  0  0  0  0
    4.3137   -0.9905    0.0000 H   0  0  0  0  0  0  0  0  0  0  0  0
    3.0143   -3.2403    0.0000 H   0  0  0  0  0  0  0  0  0  0  0  0
  1  2  1  0  0  0  0 
  1  3  1  0  0  0  0 
  1  4  2  0  0  0  0 
  4  5  1  0  0  0  0 
  4  6  1  0  0  0  0 
  6  7  1  0  0  0  0 
  7  8  1  0  0  0  0 
  7  9  1  0  0  0  0 
  7 10  1  0  0  0  0 
 10 11  1  0  0  0  0 
 10 12  1  0  0  0  0 
 10 13  1  0  0  0  0 
  6 14  1  0  0  0  0 
 14 15  1  0  0  0  0 
 14 16  1  0  0  0  0 
 14 17  1  0  0  0  0 
 17 18  1  0  0  0  0 
 17 19  1  0  0  0  0 
 17 20  1  0  0  0  0 
 20 21  1  0  0  0  0 
 21 22  2  0  0  0  0 
 21 23  1  0  0  0  0 
 23 24  2  0  0  0  0 
 24 25  1  0  0  0  0 
 24 26  1  0  0  0  0 
 26 27  1  0  0  0  0 
 26 28  2  0  0  0  0 
 28 29  1  0  0  0  0 
 29 30  1  0  0  0  0 
 29 31  2  0  0  0  0 
 23 31  1  0  0  0  0 
 31 32  1  0  0  0  0 
 28 33  1  0  0  0  0 
 33 34  1  0  0  0  0 
 33 35  1  0  0  0  0 
M  END
> <Rank>
23

> <Priority_score>
0.0376

> <Reaction_type>
alkyl dehydrogenation

> <Parent_ID>
23

> <Parent_InChI>
InChI=1S/C13H20N2O2/c1-3-15(4-2)9-10-17-13(16)11-5-7-12(14)8-6-11/h5-8H,3-4,9-10,14H2,1-2H3

> <Parent_SMILES>
CCN(CC)CCOC(=O)c1ccc(N)cc1

$$$$
Molecule 23_metabolite 25
  CDK     0516241031

 38 38  0  0  0  0  0  0  0  0999 V2000
   -5.1947    6.1126    0.0000 C   0  0  0  0  0  0  0  0  0  0  0  0
   -3.8956    6.8624    0.0000 H   0  0  0  0  0  0  0  0  0  0  0  0
   -6.1591    4.9637    0.0000 H   0  0  0  0  0  0  0  0  0  0  0  0
   -4.2307    4.9634    0.0000 H   0  0  0  0  0  0  0  0  0  0  0  0
   -6.4936    6.8628    0.0000 C   0  0  0  0  0  0  0  0  0  0  0  0
   -7.9708    7.1235    0.0000 H   0  0  0  0  0  0  0  0  0  0  0  0
   -7.0069    5.4533    0.0000 H   0  0  0  0  0  0  0  0  0  0  0  0
   -6.4934    8.3628    0.0000 N   0  0  0  0  0  0  0  0  0  0  0  0
   -5.1942    9.1126    0.0000 C   0  0  0  0  0  0  0  0  0  0  0  0
   -4.2299   10.2615    0.0000 H   0  0  0  0  0  0  0  0  0  0  0  0
   -6.1582   10.2618    0.0000 H   0  0  0  0  0  0  0  0  0  0  0  0
   -3.8953    8.3624    0.0000 C   0  0  0  0  0  0  0  0  0  0  0  0
   -4.8597    7.2135    0.0000 H   0  0  0  0  0  0  0  0  0  0  0  0
   -2.9313    7.2132    0.0000 H   0  0  0  0  0  0  0  0  0  0  0  0
   -2.5962    9.1122    0.0000 O   0  0  0  0  0  0  0  0  0  0  0  0
   -1.2972    8.3620    0.0000 H   0  0  0  0  0  0  0  0  0  0  0  0
   -8.2080    9.3531    0.0000 C   0  0  0  0  0  0  0  0  0  0  0  0
   -7.2436   10.5020    0.0000 H   0  0  0  0  0  0  0  0  0  0  0  0
   -9.1720   10.5023    0.0000 H   0  0  0  0  0  0  0  0  0  0  0  0
   -9.5071    8.6033    0.0000 C   0  0  0  0  0  0  0  0  0  0  0  0
  -10.9844    8.3430    0.0000 H   0  0  0  0  0  0  0  0  0  0  0  0
  -10.0199   10.0129    0.0000 H   0  0  0  0  0  0  0  0  0  0  0  0
   -9.5074    7.1033    0.0000 O   0  0  0  0  0  0  0  0  0  0  0  0
  -10.8065    6.3535    0.0000 C   0  0  0  0  0  0  0  0  0  0  0  0
  -12.1054    7.1037    0.0000 O   0  0  0  0  0  0  0  0  0  0  0  0
  -10.8068    4.8535    0.0000 C   0  0  0  0  0  0  0  0  0  0  0  0
   -9.5080    4.1031    0.0000 C   0  0  0  0  0  0  0  0  0  0  0  0
   -8.2086    4.8524    0.0000 H   0  0  0  0  0  0  0  0  0  0  0  0
   -9.5089    2.6022    0.0000 C   0  0  0  0  0  0  0  0  0  0  0  0
   -8.2101    1.8518    0.0000 H   0  0  0  0  0  0  0  0  0  0  0  0
  -10.8087    1.8518    0.0000 C   0  0  0  0  0  0  0  0  0  0  0  0
  -12.1075    2.6022    0.0000 C   0  0  0  0  0  0  0  0  0  0  0  0
  -13.4069    1.8529    0.0000 H   0  0  0  0  0  0  0  0  0  0  0  0
  -12.1065    4.1031    0.0000 C   0  0  0  0  0  0  0  0  0  0  0  0
  -13.4053    4.8535    0.0000 H   0  0  0  0  0  0  0  0  0  0  0  0
  -10.8089    0.3518    0.0000 N   0  0  0  0  0  0  0  0  0  0  0  0
  -12.1081   -0.3980    0.0000 H   0  0  0  0  0  0  0  0  0  0  0  0
   -9.5100   -0.3984    0.0000 H   0  0  0  0  0  0  0  0  0  0  0  0
  1  2  1  0  0  0  0 
  1  3  1  0  0  0  0 
  1  4  1  0  0  0  0 
  1  5  1  0  0  0  0 
  5  6  1  0  0  0  0 
  5  7  1  0  0  0  0 
  5  8  1  0  0  0  0 
  8  9  1  0  0  0  0 
  9 10  1  0  0  0  0 
  9 11  1  0  0  0  0 
  9 12  1  0  0  0  0 
 12 13  1  0  0  0  0 
 12 14  1  0  0  0  0 
 12 15  1  0  0  0  0 
 15 16  1  0  0  0  0 
  8 17  1  0  0  0  0 
 17 18  1  0  0  0  0 
 17 19  1  0  0  0  0 
 17 20  1  0  0  0  0 
 20 21  1  0  0  0  0 
 20 22  1  0  0  0  0 
 20 23  1  0  0  0  0 
 23 24  1  0  0  0  0 
 24 25  2  0  0  0  0 
 24 26  1  0  0  0  0 
 26 27  2  0  0  0  0 
 27 28  1  0  0  0  0 
 27 29  1  0  0  0  0 
 29 30  1  0  0  0  0 
 29 31  2  0  0  0  0 
 31 32  1  0  0  0  0 
 32 33  1  0  0  0  0 
 32 34  2  0  0  0  0 
 26 34  1  0  0  0  0 
 34 35  1  0  0  0  0 
 31 36  1  0  0  0  0 
 36 37  1  0  0  0  0 
 36 38  1  0  0  0  0 
M  END
> <Rank>
25

> <Priority_score>
0.024

> <Reaction_type>
aliphatic hydroxylation

> <Parent_ID>
23

> <Parent_InChI>
InChI=1S/C13H20N2O2/c1-3-15(4-2)9-10-17-13(16)11-5-7-12(14)8-6-11/h5-8H,3-4,9-10,14H2,1-2H3

> <Parent_SMILES>
CCN(CC)CCOC(=O)c1ccc(N)cc1

$$$$
Molecule 24
  CDK     0516241031

 42 46  0  0  0  0  0  0  0  0999 V2000
    9.9479   -7.6848    0.0000 C   0  0  0  0  0  0  0  0  0  0  0  0
    9.9481   -6.1848    0.0000 C   0  0  0  0  0  0  0  0  0  0  0  0
    8.6492   -5.4346    0.0000 N   0  0  0  0  0  0  0  0  0  0  0  0
    7.3500   -6.1844    0.0000 C   0  0  0  0  0  0  0  0  0  0  0  0
    7.3503   -7.6852    0.0000 C   0  0  0  0  0  0  0  0  0  0  0  0
    6.0511   -8.4350    0.0000 C   0  0  0  0  0  0  0  0  0  0  0  0
    4.7517   -7.6840    0.0000 O   0  0  0  0  0  0  0  0  0  0  0  0
    4.7515   -6.1831    0.0000 C   0  0  0  0  0  0  0  0  0  0  0  0
    6.0506   -5.4333    0.0000 C   0  0  0  0  0  0  0  0  0  0  0  0
    8.6494   -3.9346    0.0000 C   0  0  0  0  0  0  0  0  0  0  0  0
    7.3499   -3.1838    0.0000 C   0  0  0  0  0  0  0  0  0  0  0  0
    7.3494   -1.6829    0.0000 C   0  0  0  0  0  0  0  0  0  0  0  0
    8.6485   -0.9329    0.0000 C   0  0  0  0  0  0  0  0  0  0  0  0
    9.9480   -1.6838    0.0000 C   0  0  0  0  0  0  0  0  0  0  0  0
    9.9485   -3.1846    0.0000 C   0  0  0  0  0  0  0  0  0  0  0  0
   11.2476   -3.9344    0.0000 C   0  0  0  0  0  0  0  0  0  0  0  0
   11.2470   -0.9338    0.0000 C   0  0  0  0  0  0  0  0  0  0  0  0
   11.2470    0.5662    0.0000 O   0  0  0  0  0  0  0  0  0  0  0  0
   12.5461   -1.6838    0.0000 N   0  0  0  0  0  0  0  0  0  0  0  0
   13.8451   -0.9338    0.0000 C   0  0  0  0  0  0  0  0  0  0  0  0
   15.1441   -1.6838    0.0000 C   0  0  0  0  0  0  0  0  0  0  0  0
   15.1444   -3.1846    0.0000 C   0  0  0  0  0  0  0  0  0  0  0  0
   13.8452   -3.9344    0.0000 C   0  0  0  0  0  0  0  0  0  0  0  0
   16.4438   -3.9356    0.0000 C   0  0  0  0  0  0  0  0  0  0  0  0
   17.7429   -3.1858    0.0000 C   0  0  0  0  0  0  0  0  0  0  0  0
   19.0420   -3.9358    0.0000 C   0  0  0  0  0  0  0  0  0  0  0  0
   17.7427   -1.6850    0.0000 N   0  0  0  0  0  0  0  0  0  0  0  0
   16.4433   -0.9340    0.0000 C   0  0  0  0  0  0  0  0  0  0  0  0
   16.4438    0.5660    0.0000 O   0  0  0  0  0  0  0  0  0  0  0  0
    6.0503   -0.9331    0.0000 C   0  0  0  0  0  0  0  0  0  0  0  0
    6.0679    0.5159    0.0000 C   0  0  0  0  0  0  0  0  0  0  0  0
    4.8162    1.3057    0.0000 C   0  0  0  0  0  0  0  0  0  0  0  0
    3.5281    0.5404    0.0000 C   0  0  0  0  0  0  0  0  0  0  0  0
    3.5104   -0.9086    0.0000 C   0  0  0  0  0  0  0  0  0  0  0  0
    4.7621   -1.6984    0.0000 C   0  0  0  0  0  0  0  0  0  0  0  0
    2.2289    1.2902    0.0000 C   0  0  0  0  0  0  0  0  0  0  0  0
    0.9300    0.5400    0.0000 N   0  0  0  0  0  0  0  0  0  0  0  0
    0.9300   -0.9600    0.0000 C   0  0  0  0  0  0  0  0  0  0  0  0
   -0.3700   -1.7100    0.0000 C   0  0  0  0  0  0  0  0  0  0  0  0
   -1.6700   -0.9600    0.0000 O   0  0  0  0  0  0  0  0  0  0  0  0
   -1.6700    0.5400    0.0000 C   0  0  0  0  0  0  0  0  0  0  0  0
   -0.3700    1.2900    0.0000 C   0  0  0  0  0  0  0  0  0  0  0  0
  1  2  1  0  0  0  0 
  2  3  1  0  0  0  0 
  3  4  1  0  0  0  0 
  4  5  1  0  0  0  0 
  5  6  1  0  0  0  0 
  6  7  1  0  0  0  0 
  7  8  1  0  0  0  0 
  8  9  1  0  0  0  0 
  4  9  1  0  0  0  0 
  3 10  1  0  0  0  0 
 10 11  2  0  0  0  0 
 11 12  1  0  0  0  0 
 12 13  2  0  0  0  0 
 13 14  1  0  0  0  0 
 14 15  2  0  0  0  0 
 10 15  1  0  0  0  0 
 15 16  1  0  0  0  0 
 14 17  1  0  0  0  0 
 17 18  2  0  0  0  0 
 17 19  1  0  0  0  0 
 19 20  1  0  0  0  0 
 20 21  1  0  0  0  0 
 21 22  2  0  0  0  0 
 22 23  1  0  0  0  0 
 22 24  1  0  0  0  0 
 24 25  2  0  0  0  0 
 25 26  1  0  0  0  0 
 25 27  1  0  0  0  0 
 27 28  1  0  0  0  0 
 21 28  1  0  0  0  0 
 28 29  2  0  0  0  0 
 12 30  1  0  0  0  0 
 30 31  2  0  0  0  0 
 31 32  1  0  0  0  0 
 32 33  2  0  0  0  0 
 33 34  1  0  0  0  0 
 34 35  2  0  0  0  0 
 30 35  1  0  0  0  0 
 33 36  1  0  0  0  0 
 36 37  1  0  0  0  0 
 37 38  1  0  0  0  0 
 38 39  1  0  0  0  0 
 39 40  1  0  0  0  0 
 40 41  1  0  0  0  0 
 41 42  1  0  0  0  0 
 37 42  1  0  0  0  0 
M  END
> <SMILES>
CCN(c1cc(-c2ccc(CN3CCOCC3)cc2)cc(C(=O)NCc2c(C)cc(C)[nH]c2=O)c1C)C1CCOCC1

$$$$
Molecule 24_metabolite 1
  CDK     0516241031

 74 77  0  0  0  0  0  0  0  0999 V2000
    6.1544    8.4337    0.0000 C   0  0  0  0  0  0  0  0  0  0  0  0
    7.1184    9.5828    0.0000 H   0  0  0  0  0  0  0  0  0  0  0  0
    5.6415    7.0241    0.0000 H   0  0  0  0  0  0  0  0  0  0  0  0
    7.4535    7.6838    0.0000 H   0  0  0  0  0  0  0  0  0  0  0  0
    4.6771    8.6940    0.0000 C   0  0  0  0  0  0  0  0  0  0  0  0
    5.1900   10.1036    0.0000 H   0  0  0  0  0  0  0  0  0  0  0  0
    3.3780    9.4438    0.0000 H   0  0  0  0  0  0  0  0  0  0  0  0
    3.4046    7.1771    0.0000 N   0  0  0  0  0  0  0  0  0  0  0  0
    4.2462    4.8655    0.0000 C   0  0  0  0  0  0  0  0  0  0  0  0
    2.7689    4.6052    0.0000 H   0  0  0  0  0  0  0  0  0  0  0  0
    5.5457    5.6164    0.0000 C   0  0  0  0  0  0  0  0  0  0  0  0
    6.5098    6.7655    0.0000 H   0  0  0  0  0  0  0  0  0  0  0  0
    4.5813    6.7652    0.0000 H   0  0  0  0  0  0  0  0  0  0  0  0
    6.8447    4.8664    0.0000 C   0  0  0  0  0  0  0  0  0  0  0  0
    8.3219    4.6056    0.0000 H   0  0  0  0  0  0  0  0  0  0  0  0
    7.3579    6.2758    0.0000 H   0  0  0  0  0  0  0  0  0  0  0  0
    6.8443    3.3655    0.0000 O   0  0  0  0  0  0  0  0  0  0  0  0
    5.5447    2.6147    0.0000 C   0  0  0  0  0  0  0  0  0  0  0  0
    4.5807    1.4655    0.0000 H   0  0  0  0  0  0  0  0  0  0  0  0
    6.5092    1.4658    0.0000 H   0  0  0  0  0  0  0  0  0  0  0  0
    4.2457    3.3647    0.0000 C   0  0  0  0  0  0  0  0  0  0  0  0
    2.7685    3.6255    0.0000 H   0  0  0  0  0  0  0  0  0  0  0  0
    3.7325    1.9552    0.0000 H   0  0  0  0  0  0  0  0  0  0  0  0
    0.9819    7.6040    0.0000 C   0  0  0  0  0  0  0  0  0  0  0  0
    0.0171    6.4543    0.0000 C   0  0  0  0  0  0  0  0  0  0  0  0
    0.5305    5.0449    0.0000 H   0  0  0  0  0  0  0  0  0  0  0  0
   -1.4611    6.7141    0.0000 C   0  0  0  0  0  0  0  0  0  0  0  0
   -1.9745    8.1235    0.0000 C   0  0  0  0  0  0  0  0  0  0  0  0
   -3.4517    8.3838    0.0000 H   0  0  0  0  0  0  0  0  0  0  0  0
   -1.0097    9.2731    0.0000 C   0  0  0  0  0  0  0  0  0  0  0  0
    0.4685    9.0134    0.0000 C   0  0  0  0  0  0  0  0  0  0  0  0
    1.4322   10.1629    0.0000 C   0  0  0  0  0  0  0  0  0  0  0  0
    0.9185   11.5722    0.0000 H   0  0  0  0  0  0  0  0  0  0  0  0
    2.3968    9.0142    0.0000 H   0  0  0  0  0  0  0  0  0  0  0  0
    2.7309   10.9134    0.0000 H   0  0  0  0  0  0  0  0  0  0  0  0
   -1.5231   10.6826    0.0000 C   0  0  0  0  0  0  0  0  0  0  0  0
   -0.5592   11.8319    0.0000 O   0  0  0  0  0  0  0  0  0  0  0  0
   -3.0004   10.9426    0.0000 N   0  0  0  0  0  0  0  0  0  0  0  0
   -3.9643    9.7933    0.0000 H   0  0  0  0  0  0  0  0  0  0  0  0
   -3.5138   12.3520    0.0000 C   0  0  0  0  0  0  0  0  0  0  0  0
   -2.0367   12.6129    0.0000 H   0  0  0  0  0  0  0  0  0  0  0  0
   -3.5142   13.8520    0.0000 H   0  0  0  0  0  0  0  0  0  0  0  0
   -4.9911   12.6121    0.0000 C   0  0  0  0  0  0  0  0  0  0  0  0
   -5.5050   14.0222    0.0000 C   0  0  0  0  0  0  0  0  0  0  0  0
   -4.5409   15.1714    0.0000 C   0  0  0  0  0  0  0  0  0  0  0  0
   -3.0637   14.9111    0.0000 H   0  0  0  0  0  0  0  0  0  0  0  0
   -5.8401   15.9212    0.0000 H   0  0  0  0  0  0  0  0  0  0  0  0
   -4.0281   16.5810    0.0000 H   0  0  0  0  0  0  0  0  0  0  0  0
   -6.9830   14.2831    0.0000 C   0  0  0  0  0  0  0  0  0  0  0  0
   -7.4959   15.6927    0.0000 H   0  0  0  0  0  0  0  0  0  0  0  0
   -7.9470   13.1340    0.0000 C   0  0  0  0  0  0  0  0  0  0  0  0
   -9.4243   13.3941    0.0000 C   0  0  0  0  0  0  0  0  0  0  0  0
   -9.9377   14.8035    0.0000 H   0  0  0  0  0  0  0  0  0  0  0  0
  -10.9015   13.1332    0.0000 H   0  0  0  0  0  0  0  0  0  0  0  0
   -9.4239   11.8941    0.0000 H   0  0  0  0  0  0  0  0  0  0  0  0
   -7.4331   11.7239    0.0000 N   0  0  0  0  0  0  0  0  0  0  0  0
   -8.3972   10.5747    0.0000 H   0  0  0  0  0  0  0  0  0  0  0  0
   -5.9551   11.4629    0.0000 C   0  0  0  0  0  0  0  0  0  0  0  0
   -5.4422   10.0534    0.0000 O   0  0  0  0  0  0  0  0  0  0  0  0
   -2.4248    5.5646    0.0000 C   0  0  0  0  0  0  0  0  0  0  0  0
   -3.8488    5.8332    0.0000 C   0  0  0  0  0  0  0  0  0  0  0  0
   -4.3258    7.2554    0.0000 H   0  0  0  0  0  0  0  0  0  0  0  0
   -4.8437    4.7374    0.0000 C   0  0  0  0  0  0  0  0  0  0  0  0
   -6.3174    5.0173    0.0000 H   0  0  0  0  0  0  0  0  0  0  0  0
   -4.3133    3.3361    0.0000 C   0  0  0  0  0  0  0  0  0  0  0  0
   -2.8893    3.0675    0.0000 C   0  0  0  0  0  0  0  0  0  0  0  0
   -2.4123    1.6454    0.0000 H   0  0  0  0  0  0  0  0  0  0  0  0
   -1.8944    4.1633    0.0000 C   0  0  0  0  0  0  0  0  0  0  0  0
   -0.4207    3.8834    0.0000 H   0  0  0  0  0  0  0  0  0  0  0  0
   -5.2770    2.1866    0.0000 C   0  0  0  0  0  0  0  0  0  0  0  0
   -6.2417    3.3353    0.0000 H   0  0  0  0  0  0  0  0  0  0  0  0
   -6.5757    1.4361    0.0000 H   0  0  0  0  0  0  0  0  0  0  0  0
   -4.7634    0.7773    0.0000 O   0  0  0  0  0  0  0  0  0  0  0  0
   -5.7271   -0.3722    0.0000 H   0  0  0  0  0  0  0  0  0  0  0  0
  1  2  1  0  0  0  0 
  1  3  1  0  0  0  0 
  1  4  1  0  0  0  0 
  1  5  1  0  0  0  0 
  5  6  1  0  0  0  0 
  5  7  1  0  0  0  0 
  5  8  1  0  0  0  0 
  8  9  1  0  0  0  0 
  9 10  1  0  0  0  0 
  9 11  1  0  0  0  0 
 11 12  1  0  0  0  0 
 11 13  1  0  0  0  0 
 11 14  1  0  0  0  0 
 14 15  1  0  0  0  0 
 14 16  1  0  0  0  0 
 14 17  1  0  0  0  0 
 17 18  1  0  0  0  0 
 18 19  1  0  0  0  0 
 18 20  1  0  0  0  0 
 18 21  1  0  0  0  0 
  9 21  1  0  0  0  0 
 21 22  1  0  0  0  0 
 21 23  1  0  0  0  0 
  8 24  1  0  0  0  0 
 24 25  2  0  0  0  0 
 25 26  1  0  0  0  0 
 25 27  1  0  0  0  0 
 27 28  2  0  0  0  0 
 28 29  1  0  0  0  0 
 28 30  1  0  0  0  0 
 30 31  2  0  0  0  0 
 24 31  1  0  0  0  0 
 31 32  1  0  0  0  0 
 32 33  1  0  0  0  0 
 32 34  1  0  0  0  0 
 32 35  1  0  0  0  0 
 30 36  1  0  0  0  0 
 36 37  2  0  0  0  0 
 36 38  1  0  0  0  0 
 38 39  1  0  0  0  0 
 38 40  1  0  0  0  0 
 40 41  1  0  0  0  0 
 40 42  1  0  0  0  0 
 40 43  1  0  0  0  0 
 43 44  2  0  0  0  0 
 44 45  1  0  0  0  0 
 45 46  1  0  0  0  0 
 45 47  1  0  0  0  0 
 45 48  1  0  0  0  0 
 44 49  1  0  0  0  0 
 49 50  1  0  0  0  0 
 49 51  2  0  0  0  0 
 51 52  1  0  0  0  0 
 52 53  1  0  0  0  0 
 52 54  1  0  0  0  0 
 52 55  1  0  0  0  0 
 51 56  1  0  0  0  0 
 56 57  1  0  0  0  0 
 56 58  1  0  0  0  0 
 43 58  1  0  0  0  0 
 58 59  2  0  0  0  0 
 27 60  1  0  0  0  0 
 60 61  2  0  0  0  0 
 61 62  1  0  0  0  0 
 61 63  1  0  0  0  0 
 63 64  1  0  0  0  0 
 63 65  2  0  0  0  0 
 65 66  1  0  0  0  0 
 66 67  1  0  0  0  0 
 66 68  2  0  0  0  0 
 60 68  1  0  0  0  0 
 68 69  1  0  0  0  0 
 65 70  1  0  0  0  0 
 70 71  1  0  0  0  0 
 70 72  1  0  0  0  0 
 70 73  1  0  0  0  0 
 73 74  1  0  0  0  0 
M  END
> <Rank>
1

> <Priority_score>
0.48320337197049523

> <Reaction_type>
N-dealkylation_(tertiaryN-CH2-alkyl)

> <Parent_ID>
24

> <Parent_InChI>
InChI=1S/C34H44N4O4/c1-5-38(29-10-14-41-15-11-29)32-20-28(27-8-6-26(7-9-27)22-37-12-16-42-17-13-37)19-30(25(32)4)33(39)35-21-31-23(2)18-24(3)36-34(31)40/h6-9,18-20,29H,5,10-17,21-22H2,1-4H3,(H,35,39)(H,36,40)

> <Parent_SMILES>
CCN(c1cc(-c2ccc(CN3CCOCC3)cc2)cc(C(=O)NCc2c(C)cc(C)[nH]c2=O)c1C)C1CCOCC1

$$$$
Molecule 24_metabolite 2
  CDK     0516241031

 72 75  0  0  0  0  0  0  0  0999 V2000
   -5.0203   -0.9744    0.0000 C   0  0  0  0  0  0  0  0  0  0  0  0
   -4.5071   -2.3839    0.0000 H   0  0  0  0  0  0  0  0  0  0  0  0
   -5.9846    0.1745    0.0000 H   0  0  0  0  0  0  0  0  0  0  0  0
   -6.3193   -1.7246    0.0000 H   0  0  0  0  0  0  0  0  0  0  0  0
   -4.0562    0.1747    0.0000 C   0  0  0  0  0  0  0  0  0  0  0  0
   -3.0919   -0.9742    0.0000 H   0  0  0  0  0  0  0  0  0  0  0  0
   -2.7573    0.9249    0.0000 H   0  0  0  0  0  0  0  0  0  0  0  0
   -4.7336    2.0352    0.0000 N   0  0  0  0  0  0  0  0  0  0  0  0
   -7.1563    2.4622    0.0000 C   0  0  0  0  0  0  0  0  0  0  0  0
   -6.6431    3.8716    0.0000 H   0  0  0  0  0  0  0  0  0  0  0  0
   -7.1558    0.9613    0.0000 C   0  0  0  0  0  0  0  0  0  0  0  0
   -6.6427   -0.4482    0.0000 H   0  0  0  0  0  0  0  0  0  0  0  0
   -5.6787    1.2221    0.0000 H   0  0  0  0  0  0  0  0  0  0  0  0
   -8.4549    0.2113    0.0000 C   0  0  0  0  0  0  0  0  0  0  0  0
   -9.4193   -0.9375    0.0000 H   0  0  0  0  0  0  0  0  0  0  0  0
   -7.4908   -0.9378    0.0000 H   0  0  0  0  0  0  0  0  0  0  0  0
   -9.7544    0.9622    0.0000 O   0  0  0  0  0  0  0  0  0  0  0  0
   -9.7549    2.4630    0.0000 C   0  0  0  0  0  0  0  0  0  0  0  0
  -10.2681    3.8725    0.0000 H   0  0  0  0  0  0  0  0  0  0  0  0
  -11.2320    2.2022    0.0000 H   0  0  0  0  0  0  0  0  0  0  0  0
   -8.4558    3.2130    0.0000 C   0  0  0  0  0  0  0  0  0  0  0  0
   -7.4914    4.3619    0.0000 H   0  0  0  0  0  0  0  0  0  0  0  0
   -9.4199    4.3622    0.0000 H   0  0  0  0  0  0  0  0  0  0  0  0
   -3.1526    3.9199    0.0000 C   0  0  0  0  0  0  0  0  0  0  0  0
   -3.6658    5.3302    0.0000 C   0  0  0  0  0  0  0  0  0  0  0  0
   -5.1431    5.5903    0.0000 H   0  0  0  0  0  0  0  0  0  0  0  0
   -2.7018    6.4805    0.0000 C   0  0  0  0  0  0  0  0  0  0  0  0
   -1.2245    6.2204    0.0000 C   0  0  0  0  0  0  0  0  0  0  0  0
   -0.2604    7.3696    0.0000 H   0  0  0  0  0  0  0  0  0  0  0  0
   -0.7113    4.8101    0.0000 C   0  0  0  0  0  0  0  0  0  0  0  0
   -1.6753    3.6598    0.0000 C   0  0  0  0  0  0  0  0  0  0  0  0
   -1.1617    2.2505    0.0000 C   0  0  0  0  0  0  0  0  0  0  0  0
    0.3156    1.9906    0.0000 H   0  0  0  0  0  0  0  0  0  0  0  0
   -2.6388    1.9894    0.0000 H   0  0  0  0  0  0  0  0  0  0  0  0
   -1.1610    0.7505    0.0000 H   0  0  0  0  0  0  0  0  0  0  0  0
    0.7660    4.5500    0.0000 C   0  0  0  0  0  0  0  0  0  0  0  0
    1.2794    3.1406    0.0000 O   0  0  0  0  0  0  0  0  0  0  0  0
    1.7299    5.6993    0.0000 N   0  0  0  0  0  0  0  0  0  0  0  0
    1.2165    7.1087    0.0000 H   0  0  0  0  0  0  0  0  0  0  0  0
    3.2072    5.4392    0.0000 C   0  0  0  0  0  0  0  0  0  0  0  0
    2.6945    4.0296    0.0000 H   0  0  0  0  0  0  0  0  0  0  0  0
    4.5064    4.6896    0.0000 H   0  0  0  0  0  0  0  0  0  0  0  0
    4.1710    6.5886    0.0000 C   0  0  0  0  0  0  0  0  0  0  0  0
    5.6492    6.3286    0.0000 C   0  0  0  0  0  0  0  0  0  0  0  0
    6.1624    4.9191    0.0000 C   0  0  0  0  0  0  0  0  0  0  0  0
    5.1983    3.7699    0.0000 H   0  0  0  0  0  0  0  0  0  0  0  0
    7.4613    5.6692    0.0000 H   0  0  0  0  0  0  0  0  0  0  0  0
    7.1267    3.7701    0.0000 H   0  0  0  0  0  0  0  0  0  0  0  0
    6.6142    7.4781    0.0000 C   0  0  0  0  0  0  0  0  0  0  0  0
    8.0913    7.2175    0.0000 H   0  0  0  0  0  0  0  0  0  0  0  0
    6.1010    8.8876    0.0000 C   0  0  0  0  0  0  0  0  0  0  0  0
    7.0648   10.0369    0.0000 C   0  0  0  0  0  0  0  0  0  0  0  0
    8.5421    9.7768    0.0000 H   0  0  0  0  0  0  0  0  0  0  0  0
    7.5775   11.4466    0.0000 H   0  0  0  0  0  0  0  0  0  0  0  0
    5.7656   10.7865    0.0000 H   0  0  0  0  0  0  0  0  0  0  0  0
    4.6228    9.1476    0.0000 N   0  0  0  0  0  0  0  0  0  0  0  0
    4.1096   10.5570    0.0000 H   0  0  0  0  0  0  0  0  0  0  0  0
    3.6579    7.9981    0.0000 C   0  0  0  0  0  0  0  0  0  0  0  0
    2.1807    8.2586    0.0000 O   0  0  0  0  0  0  0  0  0  0  0  0
   -3.2154    7.8898    0.0000 C   0  0  0  0  0  0  0  0  0  0  0  0
   -2.2708    8.9888    0.0000 C   0  0  0  0  0  0  0  0  0  0  0  0
   -0.8007    8.6908    0.0000 H   0  0  0  0  0  0  0  0  0  0  0  0
   -2.7223   10.3983    0.0000 C   0  0  0  0  0  0  0  0  0  0  0  0
   -1.7431   11.5346    0.0000 H   0  0  0  0  0  0  0  0  0  0  0  0
   -4.2011   10.6396    0.0000 C   0  0  0  0  0  0  0  0  0  0  0  0
   -5.1457    9.5406    0.0000 C   0  0  0  0  0  0  0  0  0  0  0  0
   -6.6158    9.8386    0.0000 H   0  0  0  0  0  0  0  0  0  0  0  0
   -4.6942    8.1312    0.0000 C   0  0  0  0  0  0  0  0  0  0  0  0
   -5.6734    6.9949    0.0000 H   0  0  0  0  0  0  0  0  0  0  0  0
   -4.7147   12.0489    0.0000 C   0  0  0  0  0  0  0  0  0  0  0  0
   -6.1920   12.3088    0.0000 H   0  0  0  0  0  0  0  0  0  0  0  0
   -3.7510   13.1984    0.0000 O   0  0  0  0  0  0  0  0  0  0  0  0
  1  2  1  0  0  0  0 
  1  3  1  0  0  0  0 
  1  4  1  0  0  0  0 
  1  5  1  0  0  0  0 
  5  6  1  0  0  0  0 
  5  7  1  0  0  0  0 
  5  8  1  0  0  0  0 
  8  9  1  0  0  0  0 
  9 10  1  0  0  0  0 
  9 11  1  0  0  0  0 
 11 12  1  0  0  0  0 
 11 13  1  0  0  0  0 
 11 14  1  0  0  0  0 
 14 15  1  0  0  0  0 
 14 16  1  0  0  0  0 
 14 17  1  0  0  0  0 
 17 18  1  0  0  0  0 
 18 19  1  0  0  0  0 
 18 20  1  0  0  0  0 
 18 21  1  0  0  0  0 
  9 21  1  0  0  0  0 
 21 22  1  0  0  0  0 
 21 23  1  0  0  0  0 
  8 24  1  0  0  0  0 
 24 25  2  0  0  0  0 
 25 26  1  0  0  0  0 
 25 27  1  0  0  0  0 
 27 28  2  0  0  0  0 
 28 29  1  0  0  0  0 
 28 30  1  0  0  0  0 
 30 31  2  0  0  0  0 
 24 31  1  0  0  0  0 
 31 32  1  0  0  0  0 
 32 33  1  0  0  0  0 
 32 34  1  0  0  0  0 
 32 35  1  0  0  0  0 
 30 36  1  0  0  0  0 
 36 37  2  0  0  0  0 
 36 38  1  0  0  0  0 
 38 39  1  0  0  0  0 
 38 40  1  0  0  0  0 
 40 41  1  0  0  0  0 
 40 42  1  0  0  0  0 
 40 43  1  0  0  0  0 
 43 44  2  0  0  0  0 
 44 45  1  0  0  0  0 
 45 46  1  0  0  0  0 
 45 47  1  0  0  0  0 
 45 48  1  0  0  0  0 
 44 49  1  0  0  0  0 
 49 50  1  0  0  0  0 
 49 51  2  0  0  0  0 
 51 52  1  0  0  0  0 
 52 53  1  0  0  0  0 
 52 54  1  0  0  0  0 
 52 55  1  0  0  0  0 
 51 56  1  0  0  0  0 
 56 57  1  0  0  0  0 
 56 58  1  0  0  0  0 
 43 58  1  0  0  0  0 
 58 59  2  0  0  0  0 
 27 60  1  0  0  0  0 
 60 61  2  0  0  0  0 
 61 62  1  0  0  0  0 
 61 63  1  0  0  0  0 
 63 64  1  0  0  0  0 
 63 65  2  0  0  0  0 
 65 66  1  0  0  0  0 
 66 67  1  0  0  0  0 
 66 68  2  0  0  0  0 
 60 68  1  0  0  0  0 
 68 69  1  0  0  0  0 
 65 70  1  0  0  0  0 
 70 71  1  0  0  0  0 
 70 72  2  0  0  0  0 
M  END
> <Rank>
1

> <Priority_score>
0.48320337197049523

> <Reaction_type>
N-dealkylation

> <Parent_ID>
24

> <Parent_InChI>
InChI=1S/C34H44N4O4/c1-5-38(29-10-14-41-15-11-29)32-20-28(27-8-6-26(7-9-27)22-37-12-16-42-17-13-37)19-30(25(32)4)33(39)35-21-31-23(2)18-24(3)36-34(31)40/h6-9,18-20,29H,5,10-17,21-22H2,1-4H3,(H,35,39)(H,36,40)

> <Parent_SMILES>
CCN(c1cc(-c2ccc(CN3CCOCC3)cc2)cc(C(=O)NCc2c(C)cc(C)[nH]c2=O)c1C)C1CCOCC1

$$$$
Molecule 24_metabolite 3
  CDK     0516241031

 15 15  0  0  0  0  0  0  0  0999 V2000
   -1.3000   -0.0904    0.0000 C   0  0  0  0  0  0  0  0  0  0  0  0
   -1.8127    1.3193    0.0000 H   0  0  0  0  0  0  0  0  0  0  0  0
   -2.7772   -0.3507    0.0000 H   0  0  0  0  0  0  0  0  0  0  0  0
   -1.3000   -1.5904    0.0000 C   0  0  0  0  0  0  0  0  0  0  0  0
   -2.7772   -1.3300    0.0000 H   0  0  0  0  0  0  0  0  0  0  0  0
   -1.8127   -3.0000    0.0000 H   0  0  0  0  0  0  0  0  0  0  0  0
   -0.0000   -2.3404    0.0000 O   0  0  0  0  0  0  0  0  0  0  0  0
    1.3000   -1.5904    0.0000 C   0  0  0  0  0  0  0  0  0  0  0  0
    1.8127   -3.0000    0.0000 H   0  0  0  0  0  0  0  0  0  0  0  0
    2.7772   -1.3300    0.0000 H   0  0  0  0  0  0  0  0  0  0  0  0
    1.3000   -0.0904    0.0000 C   0  0  0  0  0  0  0  0  0  0  0  0
    2.7772   -0.3507    0.0000 H   0  0  0  0  0  0  0  0  0  0  0  0
    1.8127    1.3193    0.0000 H   0  0  0  0  0  0  0  0  0  0  0  0
    0.0000    0.6596    0.0000 N   0  0  0  0  0  0  0  0  0  0  0  0
    0.0000    2.1596    0.0000 H   0  0  0  0  0  0  0  0  0  0  0  0
  1  2  1  0  0  0  0 
  1  3  1  0  0  0  0 
  1  4  1  0  0  0  0 
  4  5  1  0  0  0  0 
  4  6  1  0  0  0  0 
  4  7  1  0  0  0  0 
  7  8  1  0  0  0  0 
  8  9  1  0  0  0  0 
  8 10  1  0  0  0  0 
  8 11  1  0  0  0  0 
 11 12  1  0  0  0  0 
 11 13  1  0  0  0  0 
 11 14  1  0  0  0  0 
  1 14  1  0  0  0  0 
 14 15  1  0  0  0  0 
M  END
> <Rank>
1

> <Priority_score>
0.48320337197049523

> <Reaction_type>
N-dealkylation_(tertiaryN-CH2-alkyl)

> <Parent_ID>
24

> <Parent_InChI>
InChI=1S/C34H44N4O4/c1-5-38(29-10-14-41-15-11-29)32-20-28(27-8-6-26(7-9-27)22-37-12-16-42-17-13-37)19-30(25(32)4)33(39)35-21-31-23(2)18-24(3)36-34(31)40/h6-9,18-20,29H,5,10-17,21-22H2,1-4H3,(H,35,39)(H,36,40)

> <Parent_SMILES>
CCN(c1cc(-c2ccc(CN3CCOCC3)cc2)cc(C(=O)NCc2c(C)cc(C)[nH]c2=O)c1C)C1CCOCC1

$$$$
Molecule 24_metabolite 4
  CDK     0516241031

 87 91  0  0  0  0  0  0  0  0999 V2000
    5.4424    2.7556    0.0000 C   0  0  0  0  0  0  0  0  0  0  0  0
    6.9195    2.4948    0.0000 H   0  0  0  0  0  0  0  0  0  0  0  0
    4.1435    3.5059    0.0000 H   0  0  0  0  0  0  0  0  0  0  0  0
    5.9557    4.1650    0.0000 H   0  0  0  0  0  0  0  0  0  0  0  0
    4.4779    1.6067    0.0000 C   0  0  0  0  0  0  0  0  0  0  0  0
    3.5140    2.7560    0.0000 H   0  0  0  0  0  0  0  0  0  0  0  0
    3.1787    0.8570    0.0000 H   0  0  0  0  0  0  0  0  0  0  0  0
    4.9907    0.1971    0.0000 N   0  0  0  0  0  0  0  0  0  0  0  0
    7.8859   -0.3141    0.0000 C   0  0  0  0  0  0  0  0  0  0  0  0
    7.3723   -1.7234    0.0000 H   0  0  0  0  0  0  0  0  0  0  0  0
    7.8859    1.1868    0.0000 C   0  0  0  0  0  0  0  0  0  0  0  0
    7.0450    3.4986    0.0000 H   0  0  0  0  0  0  0  0  0  0  0  0
    6.4087    0.9265    0.0000 H   0  0  0  0  0  0  0  0  0  0  0  0
    9.1852    1.9364    0.0000 C   0  0  0  0  0  0  0  0  0  0  0  0
   10.1500    3.0849    0.0000 H   0  0  0  0  0  0  0  0  0  0  0  0
    8.2215    3.0858    0.0000 H   0  0  0  0  0  0  0  0  0  0  0  0
   10.4845    1.1851    0.0000 O   0  0  0  0  0  0  0  0  0  0  0  0
   10.4845   -0.3157    0.0000 C   0  0  0  0  0  0  0  0  0  0  0  0
   10.9972   -1.7254    0.0000 H   0  0  0  0  0  0  0  0  0  0  0  0
   11.9617   -0.0554    0.0000 H   0  0  0  0  0  0  0  0  0  0  0  0
    9.1852   -1.0653    0.0000 C   0  0  0  0  0  0  0  0  0  0  0  0
    8.2204   -2.2139    0.0000 H   0  0  0  0  0  0  0  0  0  0  0  0
   10.1489   -2.2148    0.0000 H   0  0  0  0  0  0  0  0  0  0  0  0
    4.0262   -0.9518    0.0000 C   0  0  0  0  0  0  0  0  0  0  0  0
    4.5390   -2.3623    0.0000 C   0  0  0  0  0  0  0  0  0  0  0  0
    6.0162   -2.6228    0.0000 H   0  0  0  0  0  0  0  0  0  0  0  0
    3.5746   -3.5122    0.0000 C   0  0  0  0  0  0  0  0  0  0  0  0
    2.0974   -3.2517    0.0000 C   0  0  0  0  0  0  0  0  0  0  0  0
    1.1330   -4.4006    0.0000 H   0  0  0  0  0  0  0  0  0  0  0  0
    1.5846   -1.8412    0.0000 C   0  0  0  0  0  0  0  0  0  0  0  0
    2.5490   -0.6912    0.0000 C   0  0  0  0  0  0  0  0  0  0  0  0
    2.0359    0.7183    0.0000 C   0  0  0  0  0  0  0  0  0  0  0  0
    2.9999    1.8674    0.0000 H   0  0  0  0  0  0  0  0  0  0  0  0
    0.7369   -0.0319    0.0000 H   0  0  0  0  0  0  0  0  0  0  0  0
    1.0716    1.8672    0.0000 H   0  0  0  0  0  0  0  0  0  0  0  0
    0.1074   -1.5806    0.0000 C   0  0  0  0  0  0  0  0  0  0  0  0
   -0.4055   -0.1711    0.0000 O   0  0  0  0  0  0  0  0  0  0  0  0
   -0.8568   -2.7296    0.0000 N   0  0  0  0  0  0  0  0  0  0  0  0
   -0.3438   -4.1392    0.0000 H   0  0  0  0  0  0  0  0  0  0  0  0
   -2.3340   -2.4691    0.0000 C   0  0  0  0  0  0  0  0  0  0  0  0
   -3.6330   -1.7190    0.0000 H   0  0  0  0  0  0  0  0  0  0  0  0
   -1.8209   -1.0596    0.0000 H   0  0  0  0  0  0  0  0  0  0  0  0
   -3.2982   -3.6181    0.0000 C   0  0  0  0  0  0  0  0  0  0  0  0
   -2.7852   -5.0285    0.0000 C   0  0  0  0  0  0  0  0  0  0  0  0
   -1.3080   -5.2889    0.0000 C   0  0  0  0  0  0  0  0  0  0  0  0
   -0.7948   -6.6983    0.0000 H   0  0  0  0  0  0  0  0  0  0  0  0
   -1.3081   -3.7889    0.0000 H   0  0  0  0  0  0  0  0  0  0  0  0
    0.1692   -5.0282    0.0000 H   0  0  0  0  0  0  0  0  0  0  0  0
   -3.7495   -6.1787    0.0000 C   0  0  0  0  0  0  0  0  0  0  0  0
   -3.2360   -7.5881    0.0000 H   0  0  0  0  0  0  0  0  0  0  0  0
   -5.2267   -5.9183    0.0000 C   0  0  0  0  0  0  0  0  0  0  0  0
   -6.1909   -7.0674    0.0000 C   0  0  0  0  0  0  0  0  0  0  0  0
   -7.6681   -6.8068    0.0000 H   0  0  0  0  0  0  0  0  0  0  0  0
   -4.8919   -7.8174    0.0000 H   0  0  0  0  0  0  0  0  0  0  0  0
   -6.7040   -8.4769    0.0000 H   0  0  0  0  0  0  0  0  0  0  0  0
   -5.7397   -4.5079    0.0000 N   0  0  0  0  0  0  0  0  0  0  0  0
   -7.2169   -4.2476    0.0000 H   0  0  0  0  0  0  0  0  0  0  0  0
   -4.7755   -3.3578    0.0000 C   0  0  0  0  0  0  0  0  0  0  0  0
   -5.2889   -1.9484    0.0000 O   0  0  0  0  0  0  0  0  0  0  0  0
    4.0878   -4.9217    0.0000 C   0  0  0  0  0  0  0  0  0  0  0  0
    3.1428   -6.0204    0.0000 C   0  0  0  0  0  0  0  0  0  0  0  0
    1.6728   -5.7219    0.0000 H   0  0  0  0  0  0  0  0  0  0  0  0
    3.5939   -7.4300    0.0000 C   0  0  0  0  0  0  0  0  0  0  0  0
    2.6143   -8.5660    0.0000 H   0  0  0  0  0  0  0  0  0  0  0  0
    5.0726   -7.6718    0.0000 C   0  0  0  0  0  0  0  0  0  0  0  0
    6.0176   -6.5732    0.0000 C   0  0  0  0  0  0  0  0  0  0  0  0
    7.4876   -6.8716    0.0000 H   0  0  0  0  0  0  0  0  0  0  0  0
    5.5665   -5.1635    0.0000 C   0  0  0  0  0  0  0  0  0  0  0  0
    6.5461   -4.0276    0.0000 H   0  0  0  0  0  0  0  0  0  0  0  0
    5.5858   -9.0813    0.0000 C   0  0  0  0  0  0  0  0  0  0  0  0
    6.5501  -10.2303    0.0000 H   0  0  0  0  0  0  0  0  0  0  0  0
    6.8847   -8.3312    0.0000 H   0  0  0  0  0  0  0  0  0  0  0  0
    3.6962  -11.3337    0.0000 N   0  0  0  0  0  0  0  0  0  0  0  0
    2.3962  -12.0837    0.0000 C   0  0  0  0  0  0  0  0  0  0  0  0
    1.8835  -10.6740    0.0000 H   0  0  0  0  0  0  0  0  0  0  0  0
    0.9190  -12.3440    0.0000 H   0  0  0  0  0  0  0  0  0  0  0  0
    2.3962  -13.5837    0.0000 C   0  0  0  0  0  0  0  0  0  0  0  0
    0.9190  -13.3234    0.0000 H   0  0  0  0  0  0  0  0  0  0  0  0
    1.8835  -14.9933    0.0000 H   0  0  0  0  0  0  0  0  0  0  0  0
    3.6962  -14.3337    0.0000 O   0  0  0  0  0  0  0  0  0  0  0  0
    4.9962  -13.5837    0.0000 C   0  0  0  0  0  0  0  0  0  0  0  0
    5.5089  -14.9933    0.0000 H   0  0  0  0  0  0  0  0  0  0  0  0
    6.4735  -13.3234    0.0000 H   0  0  0  0  0  0  0  0  0  0  0  0
    4.9962  -12.0837    0.0000 C   0  0  0  0  0  0  0  0  0  0  0  0
    6.4735  -12.3440    0.0000 H   0  0  0  0  0  0  0  0  0  0  0  0
    5.5089  -10.6740    0.0000 H   0  0  0  0  0  0  0  0  0  0  0  0
    2.7322  -10.1845    0.0000 O   0  0  0  0  0  0  0  0  0  0  0  0
  1  2  1  0  0  0  0 
  1  3  1  0  0  0  0 
  1  4  1  0  0  0  0 
  1  5  1  0  0  0  0 
  5  6  1  0  0  0  0 
  5  7  1  0  0  0  0 
  5  8  1  0  0  0  0 
  8  9  1  0  0  0  0 
  9 10  1  0  0  0  0 
  9 11  1  0  0  0  0 
 11 12  1  0  0  0  0 
 11 13  1  0  0  0  0 
 11 14  1  0  0  0  0 
 14 15  1  0  0  0  0 
 14 16  1  0  0  0  0 
 14 17  1  0  0  0  0 
 17 18  1  0  0  0  0 
 18 19  1  0  0  0  0 
 18 20  1  0  0  0  0 
 18 21  1  0  0  0  0 
  9 21  1  0  0  0  0 
 21 22  1  0  0  0  0 
 21 23  1  0  0  0  0 
  8 24  1  0  0  0  0 
 24 25  2  0  0  0  0 
 25 26  1  0  0  0  0 
 25 27  1  0  0  0  0 
 27 28  2  0  0  0  0 
 28 29  1  0  0  0  0 
 28 30  1  0  0  0  0 
 30 31  2  0  0  0  0 
 24 31  1  0  0  0  0 
 31 32  1  0  0  0  0 
 32 33  1  0  0  0  0 
 32 34  1  0  0  0  0 
 32 35  1  0  0  0  0 
 30 36  1  0  0  0  0 
 36 37  2  0  0  0  0 
 36 38  1  0  0  0  0 
 38 39  1  0  0  0  0 
 38 40  1  0  0  0  0 
 40 41  1  0  0  0  0 
 40 42  1  0  0  0  0 
 40 43  1  0  0  0  0 
 43 44  2  0  0  0  0 
 44 45  1  0  0  0  0 
 45 46  1  0  0  0  0 
 45 47  1  0  0  0  0 
 45 48  1  0  0  0  0 
 44 49  1  0  0  0  0 
 49 50  1  0  0  0  0 
 49 51  2  0  0  0  0 
 51 52  1  0  0  0  0 
 52 53  1  0  0  0  0 
 52 54  1  0  0  0  0 
 52 55  1  0  0  0  0 
 51 56  1  0  0  0  0 
 56 57  1  0  0  0  0 
 56 58  1  0  0  0  0 
 43 58  1  0  0  0  0 
 58 59  2  0  0  0  0 
 27 60  1  0  0  0  0 
 60 61  2  0  0  0  0 
 61 62  1  0  0  0  0 
 61 63  1  0  0  0  0 
 63 64  1  0  0  0  0 
 63 65  2  0  0  0  0 
 65 66  1  0  0  0  0 
 66 67  1  0  0  0  0 
 66 68  2  0  0  0  0 
 60 68  1  0  0  0  0 
 68 69  1  0  0  0  0 
 65 70  1  0  0  0  0 
 70 71  1  0  0  0  0 
 70 72  1  0  0  0  0 
 70 73  1  0  0  0  0 
 73 74  1  0  0  0  0 
 74 75  1  0  0  0  0 
 74 76  1  0  0  0  0 
 74 77  1  0  0  0  0 
 77 78  1  0  0  0  0 
 77 79  1  0  0  0  0 
 77 80  1  0  0  0  0 
 80 81  1  0  0  0  0 
 81 82  1  0  0  0  0 
 81 83  1  0  0  0  0 
 81 84  1  0  0  0  0 
 73 84  1  0  0  0  0 
 84 85  1  0  0  0  0 
 84 86  1  0  0  0  0 
 73 87  1  0  0  0  0 
M  CHG  1  73   1
M  CHG  1  87  -1
M  END
> <Rank>
1

> <Priority_score>
0.48320337197049523

> <Reaction_type>
N-oxidation_(tertiary_N)

> <Parent_ID>
24

> <Parent_InChI>
InChI=1S/C34H44N4O4/c1-5-38(29-10-14-41-15-11-29)32-20-28(27-8-6-26(7-9-27)22-37-12-16-42-17-13-37)19-30(25(32)4)33(39)35-21-31-23(2)18-24(3)36-34(31)40/h6-9,18-20,29H,5,10-17,21-22H2,1-4H3,(H,35,39)(H,36,40)

> <Parent_SMILES>
CCN(c1cc(-c2ccc(CN3CCOCC3)cc2)cc(C(=O)NCc2c(C)cc(C)[nH]c2=O)c1C)C1CCOCC1

$$$$
Molecule 24_metabolite 5
  CDK     0516241031

 87 91  0  0  0  0  0  0  0  0999 V2000
   10.5414   -9.7120    0.0000 C   0  0  0  0  0  0  0  0  0  0  0  0
   10.5414  -11.2120    0.0000 H   0  0  0  0  0  0  0  0  0  0  0  0
   12.0186   -9.9724    0.0000 H   0  0  0  0  0  0  0  0  0  0  0  0
   11.0544   -8.3024    0.0000 H   0  0  0  0  0  0  0  0  0  0  0  0
    9.2423   -8.9620    0.0000 C   0  0  0  0  0  0  0  0  0  0  0  0
    7.7651   -8.7015    0.0000 H   0  0  0  0  0  0  0  0  0  0  0  0
    8.7293  -10.3715    0.0000 H   0  0  0  0  0  0  0  0  0  0  0  0
    9.2423   -7.4620    0.0000 N   0  0  0  0  0  0  0  0  0  0  0  0
    7.5276   -6.4720    0.0000 C   0  0  0  0  0  0  0  0  0  0  0  0
    8.4920   -5.3231    0.0000 H   0  0  0  0  0  0  0  0  0  0  0  0
    7.0146   -7.8824    0.0000 C   0  0  0  0  0  0  0  0  0  0  0  0
    7.0146   -9.3824    0.0000 H   0  0  0  0  0  0  0  0  0  0  0  0
    8.4918   -8.1427    0.0000 H   0  0  0  0  0  0  0  0  0  0  0  0
    5.5373   -8.1427    0.0000 C   0  0  0  0  0  0  0  0  0  0  0  0
    4.2381   -8.8923    0.0000 H   0  0  0  0  0  0  0  0  0  0  0  0
    6.0501   -9.5524    0.0000 H   0  0  0  0  0  0  0  0  0  0  0  0
    4.5731   -6.9926    0.0000 O   0  0  0  0  0  0  0  0  0  0  0  0
    5.0861   -5.5822    0.0000 C   0  0  0  0  0  0  0  0  0  0  0  0
    5.0861   -4.0822    0.0000 H   0  0  0  0  0  0  0  0  0  0  0  0
    3.6089   -5.3218    0.0000 H   0  0  0  0  0  0  0  0  0  0  0  0
    6.5634   -5.3218    0.0000 C   0  0  0  0  0  0  0  0  0  0  0  0
    7.8626   -4.5723    0.0000 H   0  0  0  0  0  0  0  0  0  0  0  0
    6.0506   -3.9122    0.0000 H   0  0  0  0  0  0  0  0  0  0  0  0
   11.7884   -5.9920    0.0000 C   0  0  0  0  0  0  0  0  0  0  0  0
   11.7887   -4.4911    0.0000 C   0  0  0  0  0  0  0  0  0  0  0  0
   10.4895   -3.7413    0.0000 C   0  0  0  0  0  0  0  0  0  0  0  0
   10.4893   -2.2413    0.0000 H   0  0  0  0  0  0  0  0  0  0  0  0
    9.0123   -3.4811    0.0000 H   0  0  0  0  0  0  0  0  0  0  0  0
    9.9767   -5.1510    0.0000 H   0  0  0  0  0  0  0  0  0  0  0  0
   13.0881   -3.7401    0.0000 C   0  0  0  0  0  0  0  0  0  0  0  0
   14.3872   -4.4899    0.0000 C   0  0  0  0  0  0  0  0  0  0  0  0
   15.6863   -3.7399    0.0000 H   0  0  0  0  0  0  0  0  0  0  0  0
   14.3870   -5.9907    0.0000 C   0  0  0  0  0  0  0  0  0  0  0  0
   13.0876   -6.7418    0.0000 C   0  0  0  0  0  0  0  0  0  0  0  0
   13.0881   -8.2417    0.0000 H   0  0  0  0  0  0  0  0  0  0  0  0
   15.6862   -6.7405    0.0000 C   0  0  0  0  0  0  0  0  0  0  0  0
   15.6685   -8.1896    0.0000 C   0  0  0  0  0  0  0  0  0  0  0  0
   14.3506   -8.9059    0.0000 H   0  0  0  0  0  0  0  0  0  0  0  0
   16.9202   -8.9794    0.0000 C   0  0  0  0  0  0  0  0  0  0  0  0
   16.9001  -10.4792    0.0000 H   0  0  0  0  0  0  0  0  0  0  0  0
   18.2083   -8.2141    0.0000 C   0  0  0  0  0  0  0  0  0  0  0  0
   18.2260   -6.7650    0.0000 C   0  0  0  0  0  0  0  0  0  0  0  0
   19.5439   -6.0487    0.0000 H   0  0  0  0  0  0  0  0  0  0  0  0
   16.9743   -5.9752    0.0000 C   0  0  0  0  0  0  0  0  0  0  0  0
   16.9944   -4.4753    0.0000 H   0  0  0  0  0  0  0  0  0  0  0  0
   19.5075   -8.9638    0.0000 C   0  0  0  0  0  0  0  0  0  0  0  0
   18.5435  -10.1131    0.0000 H   0  0  0  0  0  0  0  0  0  0  0  0
   22.0534   -7.4934    0.0000 N   0  0  0  0  0  0  0  0  0  0  0  0
   22.0534   -5.9934    0.0000 C   0  0  0  0  0  0  0  0  0  0  0  0
   21.5406   -4.5838    0.0000 H   0  0  0  0  0  0  0  0  0  0  0  0
   20.5761   -6.2538    0.0000 H   0  0  0  0  0  0  0  0  0  0  0  0
   23.3534   -5.2434    0.0000 C   0  0  0  0  0  0  0  0  0  0  0  0
   24.3174   -4.0943    0.0000 H   0  0  0  0  0  0  0  0  0  0  0  0
   22.3893   -4.0943    0.0000 H   0  0  0  0  0  0  0  0  0  0  0  0
   24.6534   -5.9934    0.0000 O   0  0  0  0  0  0  0  0  0  0  0  0
   24.6534   -7.4934    0.0000 C   0  0  0  0  0  0  0  0  0  0  0  0
   25.1661   -8.9031    0.0000 H   0  0  0  0  0  0  0  0  0  0  0  0
   26.1306   -7.2331    0.0000 H   0  0  0  0  0  0  0  0  0  0  0  0
   23.3534   -8.2434    0.0000 C   0  0  0  0  0  0  0  0  0  0  0  0
   22.3893   -9.3926    0.0000 H   0  0  0  0  0  0  0  0  0  0  0  0
   24.3174   -9.3926    0.0000 H   0  0  0  0  0  0  0  0  0  0  0  0
   20.4719  -10.1128    0.0000 O   0  0  0  0  0  0  0  0  0  0  0  0
   19.9591  -11.5224    0.0000 H   0  0  0  0  0  0  0  0  0  0  0  0
   13.0876   -2.2401    0.0000 C   0  0  0  0  0  0  0  0  0  0  0  0
   11.7883   -1.4905    0.0000 O   0  0  0  0  0  0  0  0  0  0  0  0
   14.3864   -1.4897    0.0000 N   0  0  0  0  0  0  0  0  0  0  0  0
   15.6857   -2.2393    0.0000 H   0  0  0  0  0  0  0  0  0  0  0  0
   14.3859    0.0103    0.0000 C   0  0  0  0  0  0  0  0  0  0  0  0
   12.9088   -0.2506    0.0000 H   0  0  0  0  0  0  0  0  0  0  0  0
   13.8724    1.4197    0.0000 H   0  0  0  0  0  0  0  0  0  0  0  0
   15.6847    0.7607    0.0000 C   0  0  0  0  0  0  0  0  0  0  0  0
   15.6845    2.2616    0.0000 C   0  0  0  0  0  0  0  0  0  0  0  0
   14.3851    3.0110    0.0000 C   0  0  0  0  0  0  0  0  0  0  0  0
   13.0864    2.2603    0.0000 H   0  0  0  0  0  0  0  0  0  0  0  0
   15.3487    4.1605    0.0000 H   0  0  0  0  0  0  0  0  0  0  0  0
   13.4203    4.1596    0.0000 H   0  0  0  0  0  0  0  0  0  0  0  0
   16.9836    3.0130    0.0000 C   0  0  0  0  0  0  0  0  0  0  0  0
   16.9827    4.5130    0.0000 H   0  0  0  0  0  0  0  0  0  0  0  0
   18.2830    2.2637    0.0000 C   0  0  0  0  0  0  0  0  0  0  0  0
   19.5818    3.0141    0.0000 C   0  0  0  0  0  0  0  0  0  0  0  0
   19.5813    4.5141    0.0000 H   0  0  0  0  0  0  0  0  0  0  0  0
   21.0590    3.2750    0.0000 H   0  0  0  0  0  0  0  0  0  0  0  0
   20.0953    1.6047    0.0000 H   0  0  0  0  0  0  0  0  0  0  0  0
   18.2833    0.7628    0.0000 N   0  0  0  0  0  0  0  0  0  0  0  0
   19.5827    0.0135    0.0000 H   0  0  0  0  0  0  0  0  0  0  0  0
   16.9841    0.0114    0.0000 C   0  0  0  0  0  0  0  0  0  0  0  0
   16.9851   -1.4886    0.0000 O   0  0  0  0  0  0  0  0  0  0  0  0
  1  2  1  0  0  0  0 
  1  3  1  0  0  0  0 
  1  4  1  0  0  0  0 
  1  5  1  0  0  0  0 
  5  6  1  0  0  0  0 
  5  7  1  0  0  0  0 
  5  8  1  0  0  0  0 
  8  9  1  0  0  0  0 
  9 10  1  0  0  0  0 
  9 11  1  0  0  0  0 
 11 12  1  0  0  0  0 
 11 13  1  0  0  0  0 
 11 14  1  0  0  0  0 
 14 15  1  0  0  0  0 
 14 16  1  0  0  0  0 
 14 17  1  0  0  0  0 
 17 18  1  0  0  0  0 
 18 19  1  0  0  0  0 
 18 20  1  0  0  0  0 
 18 21  1  0  0  0  0 
  9 21  1  0  0  0  0 
 21 22  1  0  0  0  0 
 21 23  1  0  0  0  0 
  8 24  1  0  0  0  0 
 24 25  2  0  0  0  0 
 25 26  1  0  0  0  0 
 26 27  1  0  0  0  0 
 26 28  1  0  0  0  0 
 26 29  1  0  0  0  0 
 25 30  1  0  0  0  0 
 30 31  2  0  0  0  0 
 31 32  1  0  0  0  0 
 31 33  1  0  0  0  0 
 33 34  2  0  0  0  0 
 24 34  1  0  0  0  0 
 34 35  1  0  0  0  0 
 33 36  1  0  0  0  0 
 36 37  2  0  0  0  0 
 37 38  1  0  0  0  0 
 37 39  1  0  0  0  0 
 39 40  1  0  0  0  0 
 39 41  2  0  0  0  0 
 41 42  1  0  0  0  0 
 42 43  1  0  0  0  0 
 42 44  2  0  0  0  0 
 36 44  1  0  0  0  0 
 44 45  1  0  0  0  0 
 41 46  1  0  0  0  0 
 46 47  1  0  0  0  0 
 46 48  1  0  0  0  0 
 48 49  1  0  0  0  0 
 49 50  1  0  0  0  0 
 49 51  1  0  0  0  0 
 49 52  1  0  0  0  0 
 52 53  1  0  0  0  0 
 52 54  1  0  0  0  0 
 52 55  1  0  0  0  0 
 55 56  1  0  0  0  0 
 56 57  1  0  0  0  0 
 56 58  1  0  0  0  0 
 56 59  1  0  0  0  0 
 48 59  1  0  0  0  0 
 59 60  1  0  0  0  0 
 59 61  1  0  0  0  0 
 46 62  1  0  0  0  0 
 62 63  1  0  0  0  0 
 30 64  1  0  0  0  0 
 64 65  2  0  0  0  0 
 64 66  1  0  0  0  0 
 66 67  1  0  0  0  0 
 66 68  1  0  0  0  0 
 68 69  1  0  0  0  0 
 68 70  1  0  0  0  0 
 68 71  1  0  0  0  0 
 71 72  2  0  0  0  0 
 72 73  1  0  0  0  0 
 73 74  1  0  0  0  0 
 73 75  1  0  0  0  0 
 73 76  1  0  0  0  0 
 72 77  1  0  0  0  0 
 77 78  1  0  0  0  0 
 77 79  2  0  0  0  0 
 79 80  1  0  0  0  0 
 80 81  1  0  0  0  0 
 80 82  1  0  0  0  0 
 80 83  1  0  0  0  0 
 79 84  1  0  0  0  0 
 84 85  1  0  0  0  0 
 84 86  1  0  0  0  0 
 71 86  1  0  0  0  0 
 86 87  2  0  0  0  0 
M  END
> <Rank>
1

> <Priority_score>
0.48320337197049523

> <Reaction_type>
benzylic_hydroxylation_(c-CH2-N)

> <Parent_ID>
24

> <Parent_InChI>
InChI=1S/C34H44N4O4/c1-5-38(29-10-14-41-15-11-29)32-20-28(27-8-6-26(7-9-27)22-37-12-16-42-17-13-37)19-30(25(32)4)33(39)35-21-31-23(2)18-24(3)36-34(31)40/h6-9,18-20,29H,5,10-17,21-22H2,1-4H3,(H,35,39)(H,36,40)

> <Parent_SMILES>
CCN(c1cc(-c2ccc(CN3CCOCC3)cc2)cc(C(=O)NCc2c(C)cc(C)[nH]c2=O)c1C)C1CCOCC1

$$$$
Molecule 24_metabolite 6
  CDK     0516241031

 85 89  0  0  0  0  0  0  0  0999 V2000
  -36.7044   -2.0107    0.0000 C   0  0  0  0  0  0  0  0  0  0  0  0
  -38.0041   -2.7594    0.0000 H   0  0  0  0  0  0  0  0  0  0  0  0
  -35.7391   -0.8625    0.0000 H   0  0  0  0  0  0  0  0  0  0  0  0
  -37.6674   -0.8607    0.0000 H   0  0  0  0  0  0  0  0  0  0  0  0
  -35.4060   -2.7619    0.0000 C   0  0  0  0  0  0  0  0  0  0  0  0
  -34.8917   -1.3529    0.0000 H   0  0  0  0  0  0  0  0  0  0  0  0
  -33.9291   -3.0238    0.0000 H   0  0  0  0  0  0  0  0  0  0  0  0
  -35.4075   -4.2619    0.0000 N   0  0  0  0  0  0  0  0  0  0  0  0
  -37.9550   -5.7295    0.0000 C   0  0  0  0  0  0  0  0  0  0  0  0
  -36.9917   -6.8793    0.0000 H   0  0  0  0  0  0  0  0  0  0  0  0
  -38.4667   -4.3185    0.0000 C   0  0  0  0  0  0  0  0  0  0  0  0
  -38.4643   -1.8585    0.0000 H   0  0  0  0  0  0  0  0  0  0  0  0
  -36.9892   -4.0596    0.0000 H   0  0  0  0  0  0  0  0  0  0  0  0
  -39.9437   -4.0568    0.0000 C   0  0  0  0  0  0  0  0  0  0  0  0
  -41.2422   -3.3060    0.0000 H   0  0  0  0  0  0  0  0  0  0  0  0
  -39.4296   -2.6477    0.0000 H   0  0  0  0  0  0  0  0  0  0  0  0
  -40.9090   -5.2060    0.0000 O   0  0  0  0  0  0  0  0  0  0  0  0
  -40.3973   -6.6169    0.0000 C   0  0  0  0  0  0  0  0  0  0  0  0
  -40.3988   -8.1169    0.0000 H   0  0  0  0  0  0  0  0  0  0  0  0
  -41.8748   -6.8758    0.0000 H   0  0  0  0  0  0  0  0  0  0  0  0
  -38.9203   -6.8787    0.0000 C   0  0  0  0  0  0  0  0  0  0  0  0
  -37.6218   -7.6295    0.0000 H   0  0  0  0  0  0  0  0  0  0  0  0
  -39.4344   -8.2878    0.0000 H   0  0  0  0  0  0  0  0  0  0  0  0
  -34.1092   -5.0132    0.0000 C   0  0  0  0  0  0  0  0  0  0  0  0
  -34.1104   -6.5140    0.0000 C   0  0  0  0  0  0  0  0  0  0  0  0
  -35.4103   -7.2625    0.0000 H   0  0  0  0  0  0  0  0  0  0  0  0
  -32.8117   -7.2663    0.0000 C   0  0  0  0  0  0  0  0  0  0  0  0
  -31.5118   -6.5177    0.0000 C   0  0  0  0  0  0  0  0  0  0  0  0
  -30.2135   -7.2690    0.0000 H   0  0  0  0  0  0  0  0  0  0  0  0
  -31.5106   -5.0169    0.0000 C   0  0  0  0  0  0  0  0  0  0  0  0
  -32.8093   -4.2646    0.0000 C   0  0  0  0  0  0  0  0  0  0  0  0
  -32.8074   -2.7646    0.0000 C   0  0  0  0  0  0  0  0  0  0  0  0
  -34.1054   -2.0130    0.0000 H   0  0  0  0  0  0  0  0  0  0  0  0
  -31.3305   -3.0270    0.0000 H   0  0  0  0  0  0  0  0  0  0  0  0
  -32.2925   -1.3557    0.0000 H   0  0  0  0  0  0  0  0  0  0  0  0
  -30.2107   -4.2684    0.0000 C   0  0  0  0  0  0  0  0  0  0  0  0
  -30.2091   -2.7684    0.0000 O   0  0  0  0  0  0  0  0  0  0  0  0
  -28.9125   -5.0198    0.0000 N   0  0  0  0  0  0  0  0  0  0  0  0
  -28.9142   -6.5198    0.0000 H   0  0  0  0  0  0  0  0  0  0  0  0
  -27.6127   -4.2713    0.0000 C   0  0  0  0  0  0  0  0  0  0  0  0
  -26.6472   -3.1233    0.0000 H   0  0  0  0  0  0  0  0  0  0  0  0
  -28.5756   -3.1211    0.0000 H   0  0  0  0  0  0  0  0  0  0  0  0
  -26.3145   -5.0227    0.0000 C   0  0  0  0  0  0  0  0  0  0  0  0
  -26.3159   -6.5236    0.0000 C   0  0  0  0  0  0  0  0  0  0  0  0
  -27.6159   -7.2719    0.0000 C   0  0  0  0  0  0  0  0  0  0  0  0
  -27.6178   -8.7719    0.0000 H   0  0  0  0  0  0  0  0  0  0  0  0
  -28.1271   -5.8617    0.0000 H   0  0  0  0  0  0  0  0  0  0  0  0
  -29.0935   -7.5305    0.0000 H   0  0  0  0  0  0  0  0  0  0  0  0
  -25.0174   -7.2761    0.0000 C   0  0  0  0  0  0  0  0  0  0  0  0
  -25.0195   -8.7761    0.0000 H   0  0  0  0  0  0  0  0  0  0  0  0
  -23.7174   -6.5277    0.0000 C   0  0  0  0  0  0  0  0  0  0  0  0
  -22.4192   -7.2792    0.0000 C   0  0  0  0  0  0  0  0  0  0  0  0
  -21.1193   -6.5306    0.0000 H   0  0  0  0  0  0  0  0  0  0  0  0
  -23.3846   -8.4272    0.0000 H   0  0  0  0  0  0  0  0  0  0  0  0
  -21.4563   -8.4293    0.0000 H   0  0  0  0  0  0  0  0  0  0  0  0
  -23.7159   -5.0269    0.0000 N   0  0  0  0  0  0  0  0  0  0  0  0
  -22.4159   -4.2786    0.0000 H   0  0  0  0  0  0  0  0  0  0  0  0
  -25.0145   -4.2744    0.0000 C   0  0  0  0  0  0  0  0  0  0  0  0
  -25.0123   -2.7744    0.0000 O   0  0  0  0  0  0  0  0  0  0  0  0
  -32.8136   -8.7663    0.0000 C   0  0  0  0  0  0  0  0  0  0  0  0
  -31.5507   -9.4770    0.0000 C   0  0  0  0  0  0  0  0  0  0  0  0
  -30.2705   -8.6952    0.0000 H   0  0  0  0  0  0  0  0  0  0  0  0
  -31.4942  -10.9559    0.0000 C   0  0  0  0  0  0  0  0  0  0  0  0
  -30.1860  -11.6899    0.0000 H   0  0  0  0  0  0  0  0  0  0  0  0
  -32.8019  -11.6874    0.0000 C   0  0  0  0  0  0  0  0  0  0  0  0
  -34.0648  -10.9767    0.0000 C   0  0  0  0  0  0  0  0  0  0  0  0
  -35.3450  -11.7584    0.0000 H   0  0  0  0  0  0  0  0  0  0  0  0
  -34.1213   -9.4977    0.0000 C   0  0  0  0  0  0  0  0  0  0  0  0
  -35.4294   -8.7637    0.0000 H   0  0  0  0  0  0  0  0  0  0  0  0
  -32.8038  -13.1874    0.0000 C   0  0  0  0  0  0  0  0  0  0  0  0
  -31.3262  -12.9288    0.0000 H   0  0  0  0  0  0  0  0  0  0  0  0
  -32.2926  -14.5975    0.0000 H   0  0  0  0  0  0  0  0  0  0  0  0
  -34.1038  -13.9357    0.0000 N   0  0  0  0  0  0  0  0  0  0  0  0
  -35.4023  -13.1832    0.0000 C   0  0  0  0  0  0  0  0  0  0  0  0
  -34.4364  -12.0356    0.0000 H   0  0  0  0  0  0  0  0  0  0  0  0
  -36.3649  -12.0328    0.0000 H   0  0  0  0  0  0  0  0  0  0  0  0
  -36.7023  -13.9315    0.0000 C   0  0  0  0  0  0  0  0  0  0  0  0
  -37.2137  -12.5214    0.0000 H   0  0  0  0  0  0  0  0  0  0  0  0
  -38.1798  -14.1904    0.0000 H   0  0  0  0  0  0  0  0  0  0  0  0
  -36.7038  -15.4324    0.0000 O   0  0  0  0  0  0  0  0  0  0  0  0
  -35.4052  -16.1849    0.0000 C   0  0  0  0  0  0  0  0  0  0  0  0
  -36.3711  -17.3325    0.0000 H   0  0  0  0  0  0  0  0  0  0  0  0
  -34.4426  -17.3353    0.0000 H   0  0  0  0  0  0  0  0  0  0  0  0
  -34.1052  -15.4365    0.0000 C   0  0  0  0  0  0  0  0  0  0  0  0
  -32.8070  -16.1880    0.0000 O   0  0  0  0  0  0  0  0  0  0  0  0
  1  2  1  0  0  0  0 
  1  3  1  0  0  0  0 
  1  4  1  0  0  0  0 
  1  5  1  0  0  0  0 
  5  6  1  0  0  0  0 
  5  7  1  0  0  0  0 
  5  8  1  0  0  0  0 
  8  9  1  0  0  0  0 
  9 10  1  0  0  0  0 
  9 11  1  0  0  0  0 
 11 12  1  0  0  0  0 
 11 13  1  0  0  0  0 
 11 14  1  0  0  0  0 
 14 15  1  0  0  0  0 
 14 16  1  0  0  0  0 
 14 17  1  0  0  0  0 
 17 18  1  0  0  0  0 
 18 19  1  0  0  0  0 
 18 20  1  0  0  0  0 
 18 21  1  0  0  0  0 
  9 21  1  0  0  0  0 
 21 22  1  0  0  0  0 
 21 23  1  0  0  0  0 
  8 24  1  0  0  0  0 
 24 25  2  0  0  0  0 
 25 26  1  0  0  0  0 
 25 27  1  0  0  0  0 
 27 28  2  0  0  0  0 
 28 29  1  0  0  0  0 
 28 30  1  0  0  0  0 
 30 31  2  0  0  0  0 
 24 31  1  0  0  0  0 
 31 32  1  0  0  0  0 
 32 33  1  0  0  0  0 
 32 34  1  0  0  0  0 
 32 35  1  0  0  0  0 
 30 36  1  0  0  0  0 
 36 37  2  0  0  0  0 
 36 38  1  0  0  0  0 
 38 39  1  0  0  0  0 
 38 40  1  0  0  0  0 
 40 41  1  0  0  0  0 
 40 42  1  0  0  0  0 
 40 43  1  0  0  0  0 
 43 44  2  0  0  0  0 
 44 45  1  0  0  0  0 
 45 46  1  0  0  0  0 
 45 47  1  0  0  0  0 
 45 48  1  0  0  0  0 
 44 49  1  0  0  0  0 
 49 50  1  0  0  0  0 
 49 51  2  0  0  0  0 
 51 52  1  0  0  0  0 
 52 53  1  0  0  0  0 
 52 54  1  0  0  0  0 
 52 55  1  0  0  0  0 
 51 56  1  0  0  0  0 
 56 57  1  0  0  0  0 
 56 58  1  0  0  0  0 
 43 58  1  0  0  0  0 
 58 59  2  0  0  0  0 
 27 60  1  0  0  0  0 
 60 61  2  0  0  0  0 
 61 62  1  0  0  0  0 
 61 63  1  0  0  0  0 
 63 64  1  0  0  0  0 
 63 65  2  0  0  0  0 
 65 66  1  0  0  0  0 
 66 67  1  0  0  0  0 
 66 68  2  0  0  0  0 
 60 68  1  0  0  0  0 
 68 69  1  0  0  0  0 
 65 70  1  0  0  0  0 
 70 71  1  0  0  0  0 
 70 72  1  0  0  0  0 
 70 73  1  0  0  0  0 
 73 74  1  0  0  0  0 
 74 75  1  0  0  0  0 
 74 76  1  0  0  0  0 
 74 77  1  0  0  0  0 
 77 78  1  0  0  0  0 
 77 79  1  0  0  0  0 
 77 80  1  0  0  0  0 
 80 81  1  0  0  0  0 
 81 82  1  0  0  0  0 
 81 83  1  0  0  0  0 
 81 84  1  0  0  0  0 
 73 84  1  0  0  0  0 
 84 85  2  0  0  0  0 
M  END
> <Rank>
6

> <Priority_score>
0.328

> <Reaction_type>
oxidation_(amine_in_a_ring)

> <Parent_ID>
24

> <Parent_InChI>
InChI=1S/C34H44N4O4/c1-5-38(29-10-14-41-15-11-29)32-20-28(27-8-6-26(7-9-27)22-37-12-16-42-17-13-37)19-30(25(32)4)33(39)35-21-31-23(2)18-24(3)36-34(31)40/h6-9,18-20,29H,5,10-17,21-22H2,1-4H3,(H,35,39)(H,36,40)

> <Parent_SMILES>
CCN(c1cc(-c2ccc(CN3CCOCC3)cc2)cc(C(=O)NCc2c(C)cc(C)[nH]c2=O)c1C)C1CCOCC1

$$$$
Molecule 24_metabolite 7
  CDK     0516241031

 82 85  0  0  0  0  0  0  0  0999 V2000
   -6.0095   -2.8541    0.0000 C   0  0  0  0  0  0  0  0  0  0  0  0
   -5.4963   -4.2636    0.0000 H   0  0  0  0  0  0  0  0  0  0  0  0
   -6.9738   -1.7052    0.0000 H   0  0  0  0  0  0  0  0  0  0  0  0
   -7.3085   -3.6043    0.0000 H   0  0  0  0  0  0  0  0  0  0  0  0
   -5.0455   -1.7050    0.0000 C   0  0  0  0  0  0  0  0  0  0  0  0
   -4.0812   -2.8539    0.0000 H   0  0  0  0  0  0  0  0  0  0  0  0
   -3.7465   -0.9548    0.0000 H   0  0  0  0  0  0  0  0  0  0  0  0
   -5.7229    0.1556    0.0000 N   0  0  0  0  0  0  0  0  0  0  0  0
   -8.1455    0.5825    0.0000 C   0  0  0  0  0  0  0  0  0  0  0  0
   -7.6324    1.9920    0.0000 H   0  0  0  0  0  0  0  0  0  0  0  0
   -8.1451   -0.9184    0.0000 C   0  0  0  0  0  0  0  0  0  0  0  0
   -7.6319   -2.3278    0.0000 H   0  0  0  0  0  0  0  0  0  0  0  0
   -6.6679   -0.6576    0.0000 H   0  0  0  0  0  0  0  0  0  0  0  0
   -9.4441   -1.6684    0.0000 C   0  0  0  0  0  0  0  0  0  0  0  0
  -10.4085   -2.8172    0.0000 H   0  0  0  0  0  0  0  0  0  0  0  0
   -8.4800   -2.8175    0.0000 H   0  0  0  0  0  0  0  0  0  0  0  0
  -10.7436   -0.9175    0.0000 O   0  0  0  0  0  0  0  0  0  0  0  0
  -10.7441    0.5833    0.0000 C   0  0  0  0  0  0  0  0  0  0  0  0
  -11.2573    1.9928    0.0000 H   0  0  0  0  0  0  0  0  0  0  0  0
  -12.2213    0.3225    0.0000 H   0  0  0  0  0  0  0  0  0  0  0  0
   -9.4451    1.3333    0.0000 C   0  0  0  0  0  0  0  0  0  0  0  0
   -8.4806    2.4822    0.0000 H   0  0  0  0  0  0  0  0  0  0  0  0
  -10.4091    2.4825    0.0000 H   0  0  0  0  0  0  0  0  0  0  0  0
   -4.1418    2.0402    0.0000 C   0  0  0  0  0  0  0  0  0  0  0  0
   -4.6550    3.4506    0.0000 C   0  0  0  0  0  0  0  0  0  0  0  0
   -6.1323    3.7106    0.0000 H   0  0  0  0  0  0  0  0  0  0  0  0
   -3.6910    4.6008    0.0000 C   0  0  0  0  0  0  0  0  0  0  0  0
   -2.2137    4.3407    0.0000 C   0  0  0  0  0  0  0  0  0  0  0  0
   -1.2497    5.4899    0.0000 H   0  0  0  0  0  0  0  0  0  0  0  0
   -1.7005    2.9304    0.0000 C   0  0  0  0  0  0  0  0  0  0  0  0
   -2.6645    1.7801    0.0000 C   0  0  0  0  0  0  0  0  0  0  0  0
   -2.1509    0.3708    0.0000 C   0  0  0  0  0  0  0  0  0  0  0  0
   -0.6736    0.1110    0.0000 H   0  0  0  0  0  0  0  0  0  0  0  0
   -3.6280    0.1097    0.0000 H   0  0  0  0  0  0  0  0  0  0  0  0
   -2.1503   -1.1292    0.0000 H   0  0  0  0  0  0  0  0  0  0  0  0
   -0.2232    2.6703    0.0000 C   0  0  0  0  0  0  0  0  0  0  0  0
    0.2902    1.2609    0.0000 O   0  0  0  0  0  0  0  0  0  0  0  0
    0.7407    3.8196    0.0000 N   0  0  0  0  0  0  0  0  0  0  0  0
    0.2273    5.2290    0.0000 H   0  0  0  0  0  0  0  0  0  0  0  0
    2.2180    3.5596    0.0000 C   0  0  0  0  0  0  0  0  0  0  0  0
    1.7053    2.1499    0.0000 H   0  0  0  0  0  0  0  0  0  0  0  0
    3.5172    2.8099    0.0000 H   0  0  0  0  0  0  0  0  0  0  0  0
    3.1818    4.7089    0.0000 C   0  0  0  0  0  0  0  0  0  0  0  0
    4.6600    4.4489    0.0000 C   0  0  0  0  0  0  0  0  0  0  0  0
    5.1731    3.0394    0.0000 C   0  0  0  0  0  0  0  0  0  0  0  0
    4.2091    1.8903    0.0000 H   0  0  0  0  0  0  0  0  0  0  0  0
    6.4721    3.7896    0.0000 H   0  0  0  0  0  0  0  0  0  0  0  0
    6.1375    1.8905    0.0000 H   0  0  0  0  0  0  0  0  0  0  0  0
    5.6249    5.5984    0.0000 C   0  0  0  0  0  0  0  0  0  0  0  0
    7.1021    5.3379    0.0000 H   0  0  0  0  0  0  0  0  0  0  0  0
    5.1118    7.0079    0.0000 C   0  0  0  0  0  0  0  0  0  0  0  0
    6.0756    8.1572    0.0000 C   0  0  0  0  0  0  0  0  0  0  0  0
    7.5529    7.8971    0.0000 H   0  0  0  0  0  0  0  0  0  0  0  0
    6.5883    9.5669    0.0000 H   0  0  0  0  0  0  0  0  0  0  0  0
    4.7764    8.9069    0.0000 H   0  0  0  0  0  0  0  0  0  0  0  0
    3.6336    7.2679    0.0000 N   0  0  0  0  0  0  0  0  0  0  0  0
    3.1204    8.6774    0.0000 H   0  0  0  0  0  0  0  0  0  0  0  0
    2.6686    6.1184    0.0000 C   0  0  0  0  0  0  0  0  0  0  0  0
    1.1914    6.3789    0.0000 O   0  0  0  0  0  0  0  0  0  0  0  0
   -4.2046    6.0101    0.0000 C   0  0  0  0  0  0  0  0  0  0  0  0
   -3.2600    7.1091    0.0000 C   0  0  0  0  0  0  0  0  0  0  0  0
   -1.7899    6.8111    0.0000 H   0  0  0  0  0  0  0  0  0  0  0  0
   -3.7115    8.5186    0.0000 C   0  0  0  0  0  0  0  0  0  0  0  0
   -2.7323    9.6549    0.0000 H   0  0  0  0  0  0  0  0  0  0  0  0
   -5.1903    8.7599    0.0000 C   0  0  0  0  0  0  0  0  0  0  0  0
   -6.1350    7.6610    0.0000 C   0  0  0  0  0  0  0  0  0  0  0  0
   -7.6051    7.9590    0.0000 H   0  0  0  0  0  0  0  0  0  0  0  0
   -5.6834    6.2515    0.0000 C   0  0  0  0  0  0  0  0  0  0  0  0
   -6.6626    5.1152    0.0000 H   0  0  0  0  0  0  0  0  0  0  0  0
   -5.7039   10.1692    0.0000 C   0  0  0  0  0  0  0  0  0  0  0  0
   -4.2268   10.4303    0.0000 H   0  0  0  0  0  0  0  0  0  0  0  0
   -5.7046   11.6692    0.0000 H   0  0  0  0  0  0  0  0  0  0  0  0
   -7.6540   10.5122    0.0000 N   0  0  0  0  0  0  0  0  0  0  0  0
   -8.6177    9.3628    0.0000 H   0  0  0  0  0  0  0  0  0  0  0  0
   -8.1676   11.9215    0.0000 C   0  0  0  0  0  0  0  0  0  0  0  0
   -6.6905   12.1827    0.0000 H   0  0  0  0  0  0  0  0  0  0  0  0
   -8.1683   13.4215    0.0000 H   0  0  0  0  0  0  0  0  0  0  0  0
   -9.6450   12.1814    0.0000 C   0  0  0  0  0  0  0  0  0  0  0  0
  -11.1221   11.9203    0.0000 H   0  0  0  0  0  0  0  0  0  0  0  0
   -9.6443   10.6814    0.0000 H   0  0  0  0  0  0  0  0  0  0  0  0
  -10.1586   13.5907    0.0000 O   0  0  0  0  0  0  0  0  0  0  0  0
  -11.6359   13.8506    0.0000 H   0  0  0  0  0  0  0  0  0  0  0  0
  1  2  1  0  0  0  0 
  1  3  1  0  0  0  0 
  1  4  1  0  0  0  0 
  1  5  1  0  0  0  0 
  5  6  1  0  0  0  0 
  5  7  1  0  0  0  0 
  5  8  1  0  0  0  0 
  8  9  1  0  0  0  0 
  9 10  1  0  0  0  0 
  9 11  1  0  0  0  0 
 11 12  1  0  0  0  0 
 11 13  1  0  0  0  0 
 11 14  1  0  0  0  0 
 14 15  1  0  0  0  0 
 14 16  1  0  0  0  0 
 14 17  1  0  0  0  0 
 17 18  1  0  0  0  0 
 18 19  1  0  0  0  0 
 18 20  1  0  0  0  0 
 18 21  1  0  0  0  0 
  9 21  1  0  0  0  0 
 21 22  1  0  0  0  0 
 21 23  1  0  0  0  0 
  8 24  1  0  0  0  0 
 24 25  2  0  0  0  0 
 25 26  1  0  0  0  0 
 25 27  1  0  0  0  0 
 27 28  2  0  0  0  0 
 28 29  1  0  0  0  0 
 28 30  1  0  0  0  0 
 30 31  2  0  0  0  0 
 24 31  1  0  0  0  0 
 31 32  1  0  0  0  0 
 32 33  1  0  0  0  0 
 32 34  1  0  0  0  0 
 32 35  1  0  0  0  0 
 30 36  1  0  0  0  0 
 36 37  2  0  0  0  0 
 36 38  1  0  0  0  0 
 38 39  1  0  0  0  0 
 38 40  1  0  0  0  0 
 40 41  1  0  0  0  0 
 40 42  1  0  0  0  0 
 40 43  1  0  0  0  0 
 43 44  2  0  0  0  0 
 44 45  1  0  0  0  0 
 45 46  1  0  0  0  0 
 45 47  1  0  0  0  0 
 45 48  1  0  0  0  0 
 44 49  1  0  0  0  0 
 49 50  1  0  0  0  0 
 49 51  2  0  0  0  0 
 51 52  1  0  0  0  0 
 52 53  1  0  0  0  0 
 52 54  1  0  0  0  0 
 52 55  1  0  0  0  0 
 51 56  1  0  0  0  0 
 56 57  1  0  0  0  0 
 56 58  1  0  0  0  0 
 43 58  1  0  0  0  0 
 58 59  2  0  0  0  0 
 27 60  1  0  0  0  0 
 60 61  2  0  0  0  0 
 61 62  1  0  0  0  0 
 61 63  1  0  0  0  0 
 63 64  1  0  0  0  0 
 63 65  2  0  0  0  0 
 65 66  1  0  0  0  0 
 66 67  1  0  0  0  0 
 66 68  2  0  0  0  0 
 60 68  1  0  0  0  0 
 68 69  1  0  0  0  0 
 65 70  1  0  0  0  0 
 70 71  1  0  0  0  0 
 70 72  1  0  0  0  0 
 70 73  1  0  0  0  0 
 73 74  1  0  0  0  0 
 73 75  1  0  0  0  0 
 75 76  1  0  0  0  0 
 75 77  1  0  0  0  0 
 75 78  1  0  0  0  0 
 78 79  1  0  0  0  0 
 78 80  1  0  0  0  0 
 78 81  1  0  0  0  0 
 81 82  1  0  0  0  0 
M  END
> <Rank>
6

> <Priority_score>
0.328

> <Reaction_type>
N-dealkylation_(morpholine)

> <Parent_ID>
24

> <Parent_InChI>
InChI=1S/C34H44N4O4/c1-5-38(29-10-14-41-15-11-29)32-20-28(27-8-6-26(7-9-27)22-37-12-16-42-17-13-37)19-30(25(32)4)33(39)35-21-31-23(2)18-24(3)36-34(31)40/h6-9,18-20,29H,5,10-17,21-22H2,1-4H3,(H,35,39)(H,36,40)

> <Parent_SMILES>
CCN(c1cc(-c2ccc(CN3CCOCC3)cc2)cc(C(=O)NCc2c(C)cc(C)[nH]c2=O)c1C)C1CCOCC1

$$$$
Molecule 24_metabolite 8
  CDK     0516241031

 87 91  0  0  0  0  0  0  0  0999 V2000
   10.5486   -2.0243    0.0000 C   0  0  0  0  0  0  0  0  0  0  0  0
   11.2982   -3.3236    0.0000 H   0  0  0  0  0  0  0  0  0  0  0  0
   10.2886   -0.5470    0.0000 H   0  0  0  0  0  0  0  0  0  0  0  0
   11.9583   -1.5117    0.0000 H   0  0  0  0  0  0  0  0  0  0  0  0
    9.0486   -2.0238    0.0000 C   0  0  0  0  0  0  0  0  0  0  0  0
    9.3096   -0.5467    0.0000 H   0  0  0  0  0  0  0  0  0  0  0  0
    7.6393   -1.5104    0.0000 H   0  0  0  0  0  0  0  0  0  0  0  0
    8.2982   -3.3226    0.0000 N   0  0  0  0  0  0  0  0  0  0  0  0
    9.7674   -5.8692    0.0000 C   0  0  0  0  0  0  0  0  0  0  0  0
    8.3576   -6.3815    0.0000 H   0  0  0  0  0  0  0  0  0  0  0  0
   10.9172   -4.9046    0.0000 C   0  0  0  0  0  0  0  0  0  0  0  0
   12.1479   -2.7746    0.0000 H   0  0  0  0  0  0  0  0  0  0  0  0
    9.7683   -3.9402    0.0000 H   0  0  0  0  0  0  0  0  0  0  0  0
   12.3265   -5.4183    0.0000 C   0  0  0  0  0  0  0  0  0  0  0  0
   13.8265   -5.4192    0.0000 H   0  0  0  0  0  0  0  0  0  0  0  0
   12.5878   -3.9412    0.0000 H   0  0  0  0  0  0  0  0  0  0  0  0
   12.5860   -6.8965    0.0000 O   0  0  0  0  0  0  0  0  0  0  0  0
   11.4362   -7.8611    0.0000 C   0  0  0  0  0  0  0  0  0  0  0  0
   10.6858   -9.1599    0.0000 H   0  0  0  0  0  0  0  0  0  0  0  0
   12.5851   -8.8255    0.0000 H   0  0  0  0  0  0  0  0  0  0  0  0
   10.0269   -7.3474    0.0000 C   0  0  0  0  0  0  0  0  0  0  0  0
    8.5269   -7.3465    0.0000 H   0  0  0  0  0  0  0  0  0  0  0  0
    9.7656   -8.8245    0.0000 H   0  0  0  0  0  0  0  0  0  0  0  0
    6.7982   -3.3222    0.0000 C   0  0  0  0  0  0  0  0  0  0  0  0
    6.0472   -4.6215    0.0000 C   0  0  0  0  0  0  0  0  0  0  0  0
    6.7970   -5.9207    0.0000 H   0  0  0  0  0  0  0  0  0  0  0  0
    4.5463   -4.6218    0.0000 C   0  0  0  0  0  0  0  0  0  0  0  0
    3.7965   -3.3226    0.0000 C   0  0  0  0  0  0  0  0  0  0  0  0
    2.2965   -3.3222    0.0000 H   0  0  0  0  0  0  0  0  0  0  0  0
    4.5476   -2.0232    0.0000 C   0  0  0  0  0  0  0  0  0  0  0  0
    6.0484   -2.0230    0.0000 C   0  0  0  0  0  0  0  0  0  0  0  0
    6.7984   -0.7240    0.0000 C   0  0  0  0  0  0  0  0  0  0  0  0
    8.2984   -0.7240    0.0000 H   0  0  0  0  0  0  0  0  0  0  0  0
    5.3889   -0.2109    0.0000 H   0  0  0  0  0  0  0  0  0  0  0  0
    7.0589    0.7533    0.0000 H   0  0  0  0  0  0  0  0  0  0  0  0
    3.7978   -0.7241    0.0000 C   0  0  0  0  0  0  0  0  0  0  0  0
    4.5480    0.5748    0.0000 O   0  0  0  0  0  0  0  0  0  0  0  0
    2.2978   -0.7238    0.0000 N   0  0  0  0  0  0  0  0  0  0  0  0
    1.5476   -2.0228    0.0000 H   0  0  0  0  0  0  0  0  0  0  0  0
    1.5480    0.5753    0.0000 C   0  0  0  0  0  0  0  0  0  0  0  0
    1.2878    2.0526    0.0000 H   0  0  0  0  0  0  0  0  0  0  0  0
    2.9576    1.0881    0.0000 H   0  0  0  0  0  0  0  0  0  0  0  0
    0.0480    0.5756    0.0000 C   0  0  0  0  0  0  0  0  0  0  0  0
   -0.7028   -0.7240    0.0000 C   0  0  0  0  0  0  0  0  0  0  0  0
    0.0472   -2.0230    0.0000 C   0  0  0  0  0  0  0  0  0  0  0  0
   -0.7028   -3.3220    0.0000 H   0  0  0  0  0  0  0  0  0  0  0  0
    1.1962   -1.0588    0.0000 H   0  0  0  0  0  0  0  0  0  0  0  0
    1.1962   -2.9872    0.0000 H   0  0  0  0  0  0  0  0  0  0  0  0
   -2.2037   -0.7244    0.0000 C   0  0  0  0  0  0  0  0  0  0  0  0
   -2.9535   -2.0236    0.0000 H   0  0  0  0  0  0  0  0  0  0  0  0
   -2.9537    0.5746    0.0000 C   0  0  0  0  0  0  0  0  0  0  0  0
   -4.4537    0.5748    0.0000 C   0  0  0  0  0  0  0  0  0  0  0  0
   -5.2035    1.8740    0.0000 H   0  0  0  0  0  0  0  0  0  0  0  0
   -4.1934   -0.9024    0.0000 H   0  0  0  0  0  0  0  0  0  0  0  0
   -5.8633    0.0620    0.0000 H   0  0  0  0  0  0  0  0  0  0  0  0
   -2.2028    1.8741    0.0000 N   0  0  0  0  0  0  0  0  0  0  0  0
   -2.9528    3.1732    0.0000 H   0  0  0  0  0  0  0  0  0  0  0  0
   -0.7020    1.8746    0.0000 C   0  0  0  0  0  0  0  0  0  0  0  0
    0.0478    3.1738    0.0000 O   0  0  0  0  0  0  0  0  0  0  0  0
    3.7963   -5.9208    0.0000 C   0  0  0  0  0  0  0  0  0  0  0  0
    2.3473   -5.9030    0.0000 C   0  0  0  0  0  0  0  0  0  0  0  0
    1.6312   -4.5849    0.0000 H   0  0  0  0  0  0  0  0  0  0  0  0
    1.5573   -7.1545    0.0000 C   0  0  0  0  0  0  0  0  0  0  0  0
    0.0574   -7.1342    0.0000 H   0  0  0  0  0  0  0  0  0  0  0  0
    2.3224   -8.4428    0.0000 C   0  0  0  0  0  0  0  0  0  0  0  0
    3.7714   -8.4606    0.0000 C   0  0  0  0  0  0  0  0  0  0  0  0
    4.4876   -9.7787    0.0000 H   0  0  0  0  0  0  0  0  0  0  0  0
    4.5614   -7.2091    0.0000 C   0  0  0  0  0  0  0  0  0  0  0  0
    6.0613   -7.2294    0.0000 H   0  0  0  0  0  0  0  0  0  0  0  0
    1.5724   -9.7418    0.0000 C   0  0  0  0  0  0  0  0  0  0  0  0
    1.3119  -11.2190    0.0000 H   0  0  0  0  0  0  0  0  0  0  0  0
    2.9819  -10.2549    0.0000 H   0  0  0  0  0  0  0  0  0  0  0  0
   -0.4076   -9.7418    0.0000 N   0  0  0  0  0  0  0  0  0  0  0  0
   -1.1576   -8.4418    0.0000 C   0  0  0  0  0  0  0  0  0  0  0  0
    0.2520   -7.9291    0.0000 H   0  0  0  0  0  0  0  0  0  0  0  0
   -1.4179   -6.9646    0.0000 H   0  0  0  0  0  0  0  0  0  0  0  0
   -2.6576   -8.4418    0.0000 C   0  0  0  0  0  0  0  0  0  0  0  0
   -2.3973   -6.9646    0.0000 H   0  0  0  0  0  0  0  0  0  0  0  0
   -4.0673   -7.9291    0.0000 H   0  0  0  0  0  0  0  0  0  0  0  0
   -3.4076   -9.7418    0.0000 O   0  0  0  0  0  0  0  0  0  0  0  0
   -2.6576  -11.0418    0.0000 C   0  0  0  0  0  0  0  0  0  0  0  0
   -4.0673  -11.5545    0.0000 H   0  0  0  0  0  0  0  0  0  0  0  0
   -2.3973  -12.5191    0.0000 H   0  0  0  0  0  0  0  0  0  0  0  0
   -1.1576  -11.0418    0.0000 C   0  0  0  0  0  0  0  0  0  0  0  0
   -1.4179  -12.5191    0.0000 H   0  0  0  0  0  0  0  0  0  0  0  0
    0.2520  -11.5545    0.0000 O   0  0  0  0  0  0  0  0  0  0  0  0
    0.5128  -13.0317    0.0000 H   0  0  0  0  0  0  0  0  0  0  0  0
  1  2  1  0  0  0  0 
  1  3  1  0  0  0  0 
  1  4  1  0  0  0  0 
  1  5  1  0  0  0  0 
  5  6  1  0  0  0  0 
  5  7  1  0  0  0  0 
  5  8  1  0  0  0  0 
  8  9  1  0  0  0  0 
  9 10  1  0  0  0  0 
  9 11  1  0  0  0  0 
 11 12  1  0  0  0  0 
 11 13  1  0  0  0  0 
 11 14  1  0  0  0  0 
 14 15  1  0  0  0  0 
 14 16  1  0  0  0  0 
 14 17  1  0  0  0  0 
 17 18  1  0  0  0  0 
 18 19  1  0  0  0  0 
 18 20  1  0  0  0  0 
 18 21  1  0  0  0  0 
  9 21  1  0  0  0  0 
 21 22  1  0  0  0  0 
 21 23  1  0  0  0  0 
  8 24  1  0  0  0  0 
 24 25  2  0  0  0  0 
 25 26  1  0  0  0  0 
 25 27  1  0  0  0  0 
 27 28  2  0  0  0  0 
 28 29  1  0  0  0  0 
 28 30  1  0  0  0  0 
 30 31  2  0  0  0  0 
 24 31  1  0  0  0  0 
 31 32  1  0  0  0  0 
 32 33  1  0  0  0  0 
 32 34  1  0  0  0  0 
 32 35  1  0  0  0  0 
 30 36  1  0  0  0  0 
 36 37  2  0  0  0  0 
 36 38  1  0  0  0  0 
 38 39  1  0  0  0  0 
 38 40  1  0  0  0  0 
 40 41  1  0  0  0  0 
 40 42  1  0  0  0  0 
 40 43  1  0  0  0  0 
 43 44  2  0  0  0  0 
 44 45  1  0  0  0  0 
 45 46  1  0  0  0  0 
 45 47  1  0  0  0  0 
 45 48  1  0  0  0  0 
 44 49  1  0  0  0  0 
 49 50  1  0  0  0  0 
 49 51  2  0  0  0  0 
 51 52  1  0  0  0  0 
 52 53  1  0  0  0  0 
 52 54  1  0  0  0  0 
 52 55  1  0  0  0  0 
 51 56  1  0  0  0  0 
 56 57  1  0  0  0  0 
 56 58  1  0  0  0  0 
 43 58  1  0  0  0  0 
 58 59  2  0  0  0  0 
 27 60  1  0  0  0  0 
 60 61  2  0  0  0  0 
 61 62  1  0  0  0  0 
 61 63  1  0  0  0  0 
 63 64  1  0  0  0  0 
 63 65  2  0  0  0  0 
 65 66  1  0  0  0  0 
 66 67  1  0  0  0  0 
 66 68  2  0  0  0  0 
 60 68  1  0  0  0  0 
 68 69  1  0  0  0  0 
 65 70  1  0  0  0  0 
 70 71  1  0  0  0  0 
 70 72  1  0  0  0  0 
 70 73  1  0  0  0  0 
 73 74  1  0  0  0  0 
 74 75  1  0  0  0  0 
 74 76  1  0  0  0  0 
 74 77  1  0  0  0  0 
 77 78  1  0  0  0  0 
 77 79  1  0  0  0  0 
 77 80  1  0  0  0  0 
 80 81  1  0  0  0  0 
 81 82  1  0  0  0  0 
 81 83  1  0  0  0  0 
 81 84  1  0  0  0  0 
 73 84  1  0  0  0  0 
 84 85  1  0  0  0  0 
 84 86  1  0  0  0  0 
 86 87  1  0  0  0  0 
M  END
> <Rank>
6

> <Priority_score>
0.328

> <Reaction_type>
aliphatic_hydroxylation_(sec_carbon_next_to_SP2,in_a_ring)

> <Parent_ID>
24

> <Parent_InChI>
InChI=1S/C34H44N4O4/c1-5-38(29-10-14-41-15-11-29)32-20-28(27-8-6-26(7-9-27)22-37-12-16-42-17-13-37)19-30(25(32)4)33(39)35-21-31-23(2)18-24(3)36-34(31)40/h6-9,18-20,29H,5,10-17,21-22H2,1-4H3,(H,35,39)(H,36,40)

> <Parent_SMILES>
CCN(c1cc(-c2ccc(CN3CCOCC3)cc2)cc(C(=O)NCc2c(C)cc(C)[nH]c2=O)c1C)C1CCOCC1

$$$$
Molecule 24_metabolite 9
  CDK     0516241031

 87 90  0  0  0  0  0  0  0  0999 V2000
    4.8435    2.0186    0.0000 C   0  0  0  0  0  0  0  0  0  0  0  0
    6.3207    1.7583    0.0000 H   0  0  0  0  0  0  0  0  0  0  0  0
    3.5444    2.7685    0.0000 H   0  0  0  0  0  0  0  0  0  0  0  0
    5.3564    3.4282    0.0000 H   0  0  0  0  0  0  0  0  0  0  0  0
    3.8794    0.8695    0.0000 C   0  0  0  0  0  0  0  0  0  0  0  0
    5.1786    0.1196    0.0000 H   0  0  0  0  0  0  0  0  0  0  0  0
    3.3666   -0.5401    0.0000 H   0  0  0  0  0  0  0  0  0  0  0  0
    2.4022    1.1298    0.0000 N   0  0  0  0  0  0  0  0  0  0  0  0
    1.1296   -0.3871    0.0000 C   0  0  0  0  0  0  0  0  0  0  0  0
    0.1656    0.7620    0.0000 H   0  0  0  0  0  0  0  0  0  0  0  0
    2.4296   -1.1371    0.0000 C   0  0  0  0  0  0  0  0  0  0  0  0
    3.9069   -1.3975    0.0000 H   0  0  0  0  0  0  0  0  0  0  0  0
    2.9424    0.2725    0.0000 H   0  0  0  0  0  0  0  0  0  0  0  0
    2.4296   -2.6371    0.0000 C   0  0  0  0  0  0  0  0  0  0  0  0
    2.9424   -4.0468    0.0000 H   0  0  0  0  0  0  0  0  0  0  0  0
    3.9069   -2.3768    0.0000 H   0  0  0  0  0  0  0  0  0  0  0  0
    1.1296   -3.3871    0.0000 O   0  0  0  0  0  0  0  0  0  0  0  0
   -0.1704   -2.6371    0.0000 C   0  0  0  0  0  0  0  0  0  0  0  0
   -1.6476   -2.3768    0.0000 H   0  0  0  0  0  0  0  0  0  0  0  0
   -0.6831   -4.0468    0.0000 H   0  0  0  0  0  0  0  0  0  0  0  0
   -0.1704   -1.1371    0.0000 C   0  0  0  0  0  0  0  0  0  0  0  0
   -0.6831    0.2725    0.0000 H   0  0  0  0  0  0  0  0  0  0  0  0
   -1.6476   -1.3975    0.0000 H   0  0  0  0  0  0  0  0  0  0  0  0
    1.3964    3.8924    0.0000 C   0  0  0  0  0  0  0  0  0  0  0  0
    2.3608    5.0423    0.0000 C   0  0  0  0  0  0  0  0  0  0  0  0
    3.8380    4.7818    0.0000 H   0  0  0  0  0  0  0  0  0  0  0  0
    1.8480    6.4528    0.0000 C   0  0  0  0  0  0  0  0  0  0  0  0
    0.3708    6.7134    0.0000 C   0  0  0  0  0  0  0  0  0  0  0  0
   -0.1424    8.1229    0.0000 H   0  0  0  0  0  0  0  0  0  0  0  0
   -0.5936    5.5634    0.0000 C   0  0  0  0  0  0  0  0  0  0  0  0
   -0.0808    4.1529    0.0000 C   0  0  0  0  0  0  0  0  0  0  0  0
   -1.0453    3.0040    0.0000 C   0  0  0  0  0  0  0  0  0  0  0  0
   -2.5224    3.2648    0.0000 H   0  0  0  0  0  0  0  0  0  0  0  0
    0.2536    2.2538    0.0000 H   0  0  0  0  0  0  0  0  0  0  0  0
   -1.5586    1.5946    0.0000 H   0  0  0  0  0  0  0  0  0  0  0  0
   -2.0708    5.8240    0.0000 C   0  0  0  0  0  0  0  0  0  0  0  0
   -3.0351    4.6750    0.0000 O   0  0  0  0  0  0  0  0  0  0  0  0
   -2.5838    7.2335    0.0000 N   0  0  0  0  0  0  0  0  0  0  0  0
   -1.6195    8.3826    0.0000 H   0  0  0  0  0  0  0  0  0  0  0  0
   -4.0610    7.4941    0.0000 C   0  0  0  0  0  0  0  0  0  0  0  0
   -4.0611    5.9941    0.0000 H   0  0  0  0  0  0  0  0  0  0  0  0
   -5.5382    7.2337    0.0000 H   0  0  0  0  0  0  0  0  0  0  0  0
   -4.5739    8.9037    0.0000 C   0  0  0  0  0  0  0  0  0  0  0  0
   -6.0519    9.1646    0.0000 C   0  0  0  0  0  0  0  0  0  0  0  0
   -7.0160    8.0154    0.0000 C   0  0  0  0  0  0  0  0  0  0  0  0
   -6.5028    6.6059    0.0000 H   0  0  0  0  0  0  0  0  0  0  0  0
   -7.9803    9.1644    0.0000 H   0  0  0  0  0  0  0  0  0  0  0  0
   -8.3149    7.2653    0.0000 H   0  0  0  0  0  0  0  0  0  0  0  0
   -6.5658   10.5747    0.0000 C   0  0  0  0  0  0  0  0  0  0  0  0
   -8.0431   10.8348    0.0000 H   0  0  0  0  0  0  0  0  0  0  0  0
   -5.6018   11.7239    0.0000 C   0  0  0  0  0  0  0  0  0  0  0  0
   -6.1147   13.1334    0.0000 C   0  0  0  0  0  0  0  0  0  0  0  0
   -7.5919   13.3940    0.0000 H   0  0  0  0  0  0  0  0  0  0  0  0
   -6.1146   14.6334    0.0000 H   0  0  0  0  0  0  0  0  0  0  0  0
   -4.6375   13.3938    0.0000 H   0  0  0  0  0  0  0  0  0  0  0  0
   -4.1238   11.4629    0.0000 N   0  0  0  0  0  0  0  0  0  0  0  0
   -3.1597   12.6121    0.0000 H   0  0  0  0  0  0  0  0  0  0  0  0
   -3.6099   10.0528    0.0000 C   0  0  0  0  0  0  0  0  0  0  0  0
   -2.1326    9.7927    0.0000 O   0  0  0  0  0  0  0  0  0  0  0  0
    2.8124    7.6017    0.0000 C   0  0  0  0  0  0  0  0  0  0  0  0
    2.3003    8.9574    0.0000 C   0  0  0  0  0  0  0  0  0  0  0  0
    0.8169    9.1798    0.0000 H   0  0  0  0  0  0  0  0  0  0  0  0
    3.2064   10.1276    0.0000 C   0  0  0  0  0  0  0  0  0  0  0  0
    2.6746   11.5302    0.0000 H   0  0  0  0  0  0  0  0  0  0  0  0
    4.6786    9.8489    0.0000 C   0  0  0  0  0  0  0  0  0  0  0  0
    5.1907    8.4932    0.0000 C   0  0  0  0  0  0  0  0  0  0  0  0
    6.6742    8.2708    0.0000 H   0  0  0  0  0  0  0  0  0  0  0  0
    4.2846    7.3230    0.0000 C   0  0  0  0  0  0  0  0  0  0  0  0
    4.8164    5.9205    0.0000 H   0  0  0  0  0  0  0  0  0  0  0  0
    5.6431   10.9978    0.0000 C   0  0  0  0  0  0  0  0  0  0  0  0
    4.3442   11.7481    0.0000 H   0  0  0  0  0  0  0  0  0  0  0  0
    6.1564   12.4072    0.0000 H   0  0  0  0  0  0  0  0  0  0  0  0
    7.1202   10.7370    0.0000 N   0  0  0  0  0  0  0  0  0  0  0  0
    7.6329    9.3273    0.0000 H   0  0  0  0  0  0  0  0  0  0  0  0
    8.3933   12.2535    0.0000 C   0  0  0  0  0  0  0  0  0  0  0  0
    7.0944   13.0038    0.0000 H   0  0  0  0  0  0  0  0  0  0  0  0
    8.9066   13.6629    0.0000 H   0  0  0  0  0  0  0  0  0  0  0  0
    9.8704   11.9927    0.0000 C   0  0  0  0  0  0  0  0  0  0  0  0
   11.1693   11.2424    0.0000 H   0  0  0  0  0  0  0  0  0  0  0  0
    9.3571   10.5833    0.0000 H   0  0  0  0  0  0  0  0  0  0  0  0
   11.4521   13.8768    0.0000 O   0  0  0  0  0  0  0  0  0  0  0  0
   12.9292   13.6160    0.0000 C   0  0  0  0  0  0  0  0  0  0  0  0
   14.2281   12.8658    0.0000 H   0  0  0  0  0  0  0  0  0  0  0  0
   12.4159   12.2066    0.0000 H   0  0  0  0  0  0  0  0  0  0  0  0
   13.8937   14.7649    0.0000 C   0  0  0  0  0  0  0  0  0  0  0  0
   15.3708   14.5041    0.0000 H   0  0  0  0  0  0  0  0  0  0  0  0
   13.3809   16.1746    0.0000 O   0  0  0  0  0  0  0  0  0  0  0  0
  1  2  1  0  0  0  0 
  1  3  1  0  0  0  0 
  1  4  1  0  0  0  0 
  1  5  1  0  0  0  0 
  5  6  1  0  0  0  0 
  5  7  1  0  0  0  0 
  5  8  1  0  0  0  0 
  8  9  1  0  0  0  0 
  9 10  1  0  0  0  0 
  9 11  1  0  0  0  0 
 11 12  1  0  0  0  0 
 11 13  1  0  0  0  0 
 11 14  1  0  0  0  0 
 14 15  1  0  0  0  0 
 14 16  1  0  0  0  0 
 14 17  1  0  0  0  0 
 17 18  1  0  0  0  0 
 18 19  1  0  0  0  0 
 18 20  1  0  0  0  0 
 18 21  1  0  0  0  0 
  9 21  1  0  0  0  0 
 21 22  1  0  0  0  0 
 21 23  1  0  0  0  0 
  8 24  1  0  0  0  0 
 24 25  2  0  0  0  0 
 25 26  1  0  0  0  0 
 25 27  1  0  0  0  0 
 27 28  2  0  0  0  0 
 28 29  1  0  0  0  0 
 28 30  1  0  0  0  0 
 30 31  2  0  0  0  0 
 24 31  1  0  0  0  0 
 31 32  1  0  0  0  0 
 32 33  1  0  0  0  0 
 32 34  1  0  0  0  0 
 32 35  1  0  0  0  0 
 30 36  1  0  0  0  0 
 36 37  2  0  0  0  0 
 36 38  1  0  0  0  0 
 38 39  1  0  0  0  0 
 38 40  1  0  0  0  0 
 40 41  1  0  0  0  0 
 40 42  1  0  0  0  0 
 40 43  1  0  0  0  0 
 43 44  2  0  0  0  0 
 44 45  1  0  0  0  0 
 45 46  1  0  0  0  0 
 45 47  1  0  0  0  0 
 45 48  1  0  0  0  0 
 44 49  1  0  0  0  0 
 49 50  1  0  0  0  0 
 49 51  2  0  0  0  0 
 51 52  1  0  0  0  0 
 52 53  1  0  0  0  0 
 52 54  1  0  0  0  0 
 52 55  1  0  0  0  0 
 51 56  1  0  0  0  0 
 56 57  1  0  0  0  0 
 56 58  1  0  0  0  0 
 43 58  1  0  0  0  0 
 58 59  2  0  0  0  0 
 27 60  1  0  0  0  0 
 60 61  2  0  0  0  0 
 61 62  1  0  0  0  0 
 61 63  1  0  0  0  0 
 63 64  1  0  0  0  0 
 63 65  2  0  0  0  0 
 65 66  1  0  0  0  0 
 66 67  1  0  0  0  0 
 66 68  2  0  0  0  0 
 60 68  1  0  0  0  0 
 68 69  1  0  0  0  0 
 65 70  1  0  0  0  0 
 70 71  1  0  0  0  0 
 70 72  1  0  0  0  0 
 70 73  1  0  0  0  0 
 73 74  1  0  0  0  0 
 73 75  1  0  0  0  0 
 75 76  1  0  0  0  0 
 75 77  1  0  0  0  0 
 75 78  1  0  0  0  0 
 78 79  1  0  0  0  0 
 78 80  1  0  0  0  0 
 78 81  1  0  0  0  0 
 81 82  1  0  0  0  0 
 82 83  1  0  0  0  0 
 82 84  1  0  0  0  0 
 82 85  1  0  0  0  0 
 85 86  1  0  0  0  0 
 85 87  2  0  0  0  0 
M  END
> <Rank>
6

> <Priority_score>
0.328

> <Reaction_type>
N-dealkylation

> <Parent_ID>
24

> <Parent_InChI>
InChI=1S/C34H44N4O4/c1-5-38(29-10-14-41-15-11-29)32-20-28(27-8-6-26(7-9-27)22-37-12-16-42-17-13-37)19-30(25(32)4)33(39)35-21-31-23(2)18-24(3)36-34(31)40/h6-9,18-20,29H,5,10-17,21-22H2,1-4H3,(H,35,39)(H,36,40)

> <Parent_SMILES>
CCN(c1cc(-c2ccc(CN3CCOCC3)cc2)cc(C(=O)NCc2c(C)cc(C)[nH]c2=O)c1C)C1CCOCC1

$$$$
Molecule 24_metabolite 10
  CDK     0516241031

 89 92  0  0  0  0  0  0  0  0999 V2000
   -1.3192    8.6512    0.0000 C   0  0  0  0  0  0  0  0  0  0  0  0
   -2.7964    8.9115    0.0000 H   0  0  0  0  0  0  0  0  0  0  0  0
   -0.0200    7.9013    0.0000 H   0  0  0  0  0  0  0  0  0  0  0  0
   -1.8320    7.2416    0.0000 H   0  0  0  0  0  0  0  0  0  0  0  0
   -0.3551    9.8003    0.0000 C   0  0  0  0  0  0  0  0  0  0  0  0
   -1.6542   10.5502    0.0000 H   0  0  0  0  0  0  0  0  0  0  0  0
    0.1578   11.2099    0.0000 H   0  0  0  0  0  0  0  0  0  0  0  0
    1.1221    9.5400    0.0000 N   0  0  0  0  0  0  0  0  0  0  0  0
    2.3947   11.0569    0.0000 C   0  0  0  0  0  0  0  0  0  0  0  0
    3.3588    9.9078    0.0000 H   0  0  0  0  0  0  0  0  0  0  0  0
    1.0947   11.8069    0.0000 C   0  0  0  0  0  0  0  0  0  0  0  0
   -0.3825   12.0672    0.0000 H   0  0  0  0  0  0  0  0  0  0  0  0
    0.5820   10.3973    0.0000 H   0  0  0  0  0  0  0  0  0  0  0  0
    1.0947   13.3069    0.0000 C   0  0  0  0  0  0  0  0  0  0  0  0
    0.5820   14.7166    0.0000 H   0  0  0  0  0  0  0  0  0  0  0  0
   -0.3825   13.0466    0.0000 H   0  0  0  0  0  0  0  0  0  0  0  0
    2.3947   14.0569    0.0000 O   0  0  0  0  0  0  0  0  0  0  0  0
    3.6947   13.3069    0.0000 C   0  0  0  0  0  0  0  0  0  0  0  0
    5.1719   13.0466    0.0000 H   0  0  0  0  0  0  0  0  0  0  0  0
    4.2074   14.7166    0.0000 H   0  0  0  0  0  0  0  0  0  0  0  0
    3.6947   11.8069    0.0000 C   0  0  0  0  0  0  0  0  0  0  0  0
    4.2074   10.3973    0.0000 H   0  0  0  0  0  0  0  0  0  0  0  0
    5.1719   12.0672    0.0000 H   0  0  0  0  0  0  0  0  0  0  0  0
    2.1280    6.7774    0.0000 C   0  0  0  0  0  0  0  0  0  0  0  0
    1.1636    5.6275    0.0000 C   0  0  0  0  0  0  0  0  0  0  0  0
   -0.3136    5.8880    0.0000 H   0  0  0  0  0  0  0  0  0  0  0  0
    1.6763    4.2170    0.0000 C   0  0  0  0  0  0  0  0  0  0  0  0
    3.1535    3.9564    0.0000 C   0  0  0  0  0  0  0  0  0  0  0  0
    3.6667    2.5469    0.0000 H   0  0  0  0  0  0  0  0  0  0  0  0
    4.1180    5.1064    0.0000 C   0  0  0  0  0  0  0  0  0  0  0  0
    3.6052    6.5169    0.0000 C   0  0  0  0  0  0  0  0  0  0  0  0
    4.5696    7.6657    0.0000 C   0  0  0  0  0  0  0  0  0  0  0  0
    6.0468    7.4050    0.0000 H   0  0  0  0  0  0  0  0  0  0  0  0
    3.2707    8.4160    0.0000 H   0  0  0  0  0  0  0  0  0  0  0  0
    5.0829    9.0752    0.0000 H   0  0  0  0  0  0  0  0  0  0  0  0
    5.5952    4.8458    0.0000 C   0  0  0  0  0  0  0  0  0  0  0  0
    6.5594    5.9948    0.0000 O   0  0  0  0  0  0  0  0  0  0  0  0
    6.1081    3.4363    0.0000 N   0  0  0  0  0  0  0  0  0  0  0  0
    5.1439    2.2872    0.0000 H   0  0  0  0  0  0  0  0  0  0  0  0
    7.5853    3.1757    0.0000 C   0  0  0  0  0  0  0  0  0  0  0  0
    7.5854    4.6757    0.0000 H   0  0  0  0  0  0  0  0  0  0  0  0
    9.0625    3.4361    0.0000 H   0  0  0  0  0  0  0  0  0  0  0  0
    8.0983    1.7661    0.0000 C   0  0  0  0  0  0  0  0  0  0  0  0
    9.5762    1.5052    0.0000 C   0  0  0  0  0  0  0  0  0  0  0  0
   10.5403    2.6544    0.0000 C   0  0  0  0  0  0  0  0  0  0  0  0
   10.0271    4.0639    0.0000 H   0  0  0  0  0  0  0  0  0  0  0  0
   11.5046    1.5054    0.0000 H   0  0  0  0  0  0  0  0  0  0  0  0
   11.8393    3.4045    0.0000 H   0  0  0  0  0  0  0  0  0  0  0  0
   10.0902    0.0951    0.0000 C   0  0  0  0  0  0  0  0  0  0  0  0
   11.5674   -0.1650    0.0000 H   0  0  0  0  0  0  0  0  0  0  0  0
    9.1261   -1.0541    0.0000 C   0  0  0  0  0  0  0  0  0  0  0  0
    9.6391   -2.4636    0.0000 C   0  0  0  0  0  0  0  0  0  0  0  0
   11.1162   -2.7242    0.0000 H   0  0  0  0  0  0  0  0  0  0  0  0
    9.6390   -3.9636    0.0000 H   0  0  0  0  0  0  0  0  0  0  0  0
    8.1618   -2.7240    0.0000 H   0  0  0  0  0  0  0  0  0  0  0  0
    7.6481   -0.7931    0.0000 N   0  0  0  0  0  0  0  0  0  0  0  0
    6.6841   -1.9423    0.0000 H   0  0  0  0  0  0  0  0  0  0  0  0
    7.1342    0.6170    0.0000 C   0  0  0  0  0  0  0  0  0  0  0  0
    5.6569    0.8770    0.0000 O   0  0  0  0  0  0  0  0  0  0  0  0
    0.7119    3.0681    0.0000 C   0  0  0  0  0  0  0  0  0  0  0  0
    1.2240    1.7124    0.0000 C   0  0  0  0  0  0  0  0  0  0  0  0
    2.7074    1.4900    0.0000 H   0  0  0  0  0  0  0  0  0  0  0  0
    0.3179    0.5422    0.0000 C   0  0  0  0  0  0  0  0  0  0  0  0
    0.8497   -0.8604    0.0000 H   0  0  0  0  0  0  0  0  0  0  0  0
   -1.1543    0.8209    0.0000 C   0  0  0  0  0  0  0  0  0  0  0  0
   -1.6664    2.1765    0.0000 C   0  0  0  0  0  0  0  0  0  0  0  0
   -3.1498    2.3990    0.0000 H   0  0  0  0  0  0  0  0  0  0  0  0
   -0.7603    3.3468    0.0000 C   0  0  0  0  0  0  0  0  0  0  0  0
   -1.2921    4.7493    0.0000 H   0  0  0  0  0  0  0  0  0  0  0  0
   -2.1187   -0.3280    0.0000 C   0  0  0  0  0  0  0  0  0  0  0  0
   -0.8198   -1.0783    0.0000 H   0  0  0  0  0  0  0  0  0  0  0  0
   -2.6321   -1.7374    0.0000 H   0  0  0  0  0  0  0  0  0  0  0  0
   -3.5959   -0.0672    0.0000 N   0  0  0  0  0  0  0  0  0  0  0  0
   -4.8689   -1.5837    0.0000 C   0  0  0  0  0  0  0  0  0  0  0  0
   -3.5700   -2.3340    0.0000 H   0  0  0  0  0  0  0  0  0  0  0  0
   -5.3823   -2.9931    0.0000 H   0  0  0  0  0  0  0  0  0  0  0  0
   -6.3461   -1.3229    0.0000 C   0  0  0  0  0  0  0  0  0  0  0  0
   -7.6450   -0.5726    0.0000 H   0  0  0  0  0  0  0  0  0  0  0  0
   -5.8327    0.0865    0.0000 H   0  0  0  0  0  0  0  0  0  0  0  0
   -7.3105   -2.4718    0.0000 O   0  0  0  0  0  0  0  0  0  0  0  0
   -8.7877   -2.2110    0.0000 H   0  0  0  0  0  0  0  0  0  0  0  0
   -4.1086    1.3424    0.0000 C   0  0  0  0  0  0  0  0  0  0  0  0
   -4.1083    2.8424    0.0000 H   0  0  0  0  0  0  0  0  0  0  0  0
   -2.6313    1.6026    0.0000 H   0  0  0  0  0  0  0  0  0  0  0  0
   -5.5858    1.6032    0.0000 C   0  0  0  0  0  0  0  0  0  0  0  0
   -6.8846    2.3535    0.0000 H   0  0  0  0  0  0  0  0  0  0  0  0
   -5.0724    3.0127    0.0000 H   0  0  0  0  0  0  0  0  0  0  0  0
   -6.5502    0.4544    0.0000 O   0  0  0  0  0  0  0  0  0  0  0  0
   -8.0273    0.7152    0.0000 H   0  0  0  0  0  0  0  0  0  0  0  0
  1  2  1  0  0  0  0 
  1  3  1  0  0  0  0 
  1  4  1  0  0  0  0 
  1  5  1  0  0  0  0 
  5  6  1  0  0  0  0 
  5  7  1  0  0  0  0 
  5  8  1  0  0  0  0 
  8  9  1  0  0  0  0 
  9 10  1  0  0  0  0 
  9 11  1  0  0  0  0 
 11 12  1  0  0  0  0 
 11 13  1  0  0  0  0 
 11 14  1  0  0  0  0 
 14 15  1  0  0  0  0 
 14 16  1  0  0  0  0 
 14 17  1  0  0  0  0 
 17 18  1  0  0  0  0 
 18 19  1  0  0  0  0 
 18 20  1  0  0  0  0 
 18 21  1  0  0  0  0 
  9 21  1  0  0  0  0 
 21 22  1  0  0  0  0 
 21 23  1  0  0  0  0 
  8 24  1  0  0  0  0 
 24 25  2  0  0  0  0 
 25 26  1  0  0  0  0 
 25 27  1  0  0  0  0 
 27 28  2  0  0  0  0 
 28 29  1  0  0  0  0 
 28 30  1  0  0  0  0 
 30 31  2  0  0  0  0 
 24 31  1  0  0  0  0 
 31 32  1  0  0  0  0 
 32 33  1  0  0  0  0 
 32 34  1  0  0  0  0 
 32 35  1  0  0  0  0 
 30 36  1  0  0  0  0 
 36 37  2  0  0  0  0 
 36 38  1  0  0  0  0 
 38 39  1  0  0  0  0 
 38 40  1  0  0  0  0 
 40 41  1  0  0  0  0 
 40 42  1  0  0  0  0 
 40 43  1  0  0  0  0 
 43 44  2  0  0  0  0 
 44 45  1  0  0  0  0 
 45 46  1  0  0  0  0 
 45 47  1  0  0  0  0 
 45 48  1  0  0  0  0 
 44 49  1  0  0  0  0 
 49 50  1  0  0  0  0 
 49 51  2  0  0  0  0 
 51 52  1  0  0  0  0 
 52 53  1  0  0  0  0 
 52 54  1  0  0  0  0 
 52 55  1  0  0  0  0 
 51 56  1  0  0  0  0 
 56 57  1  0  0  0  0 
 56 58  1  0  0  0  0 
 43 58  1  0  0  0  0 
 58 59  2  0  0  0  0 
 27 60  1  0  0  0  0 
 60 61  2  0  0  0  0 
 61 62  1  0  0  0  0 
 61 63  1  0  0  0  0 
 63 64  1  0  0  0  0 
 63 65  2  0  0  0  0 
 65 66  1  0  0  0  0 
 66 67  1  0  0  0  0 
 66 68  2  0  0  0  0 
 60 68  1  0  0  0  0 
 68 69  1  0  0  0  0 
 65 70  1  0  0  0  0 
 70 71  1  0  0  0  0 
 70 72  1  0  0  0  0 
 70 73  1  0  0  0  0 
 73 74  1  0  0  0  0 
 74 75  1  0  0  0  0 
 74 76  1  0  0  0  0 
 74 77  1  0  0  0  0 
 77 78  1  0  0  0  0 
 77 79  1  0  0  0  0 
 77 80  1  0  0  0  0 
 80 81  1  0  0  0  0 
 73 82  1  0  0  0  0 
 82 83  1  0  0  0  0 
 82 84  1  0  0  0  0 
 82 85  1  0  0  0  0 
 85 86  1  0  0  0  0 
 85 87  1  0  0  0  0 
 85 88  1  0  0  0  0 
 88 89  1  0  0  0  0 
M  END
> <Rank>
10

> <Priority_score>
0.288

> <Reaction_type>
O-dealkylation_(aliphatic)

> <Parent_ID>
24

> <Parent_InChI>
InChI=1S/C34H44N4O4/c1-5-38(29-10-14-41-15-11-29)32-20-28(27-8-6-26(7-9-27)22-37-12-16-42-17-13-37)19-30(25(32)4)33(39)35-21-31-23(2)18-24(3)36-34(31)40/h6-9,18-20,29H,5,10-17,21-22H2,1-4H3,(H,35,39)(H,36,40)

> <Parent_SMILES>
CCN(c1cc(-c2ccc(CN3CCOCC3)cc2)cc(C(=O)NCc2c(C)cc(C)[nH]c2=O)c1C)C1CCOCC1

$$$$
Molecule 24_metabolite 11
  CDK     0516241031

 87 91  0  0  0  0  0  0  0  0999 V2000
   11.0083   -5.5015    0.0000 C   0  0  0  0  0  0  0  0  0  0  0  0
   11.0078   -7.0015    0.0000 H   0  0  0  0  0  0  0  0  0  0  0  0
   11.5218   -4.0921    0.0000 H   0  0  0  0  0  0  0  0  0  0  0  0
   12.4854   -5.7624    0.0000 H   0  0  0  0  0  0  0  0  0  0  0  0
    9.7095   -4.7511    0.0000 C   0  0  0  0  0  0  0  0  0  0  0  0
   10.6740   -3.6023    0.0000 H   0  0  0  0  0  0  0  0  0  0  0  0
    8.7457   -3.6017    0.0000 H   0  0  0  0  0  0  0  0  0  0  0  0
    8.4102   -5.5007    0.0000 N   0  0  0  0  0  0  0  0  0  0  0  0
    8.4093   -8.4407    0.0000 C   0  0  0  0  0  0  0  0  0  0  0  0
    6.9322   -8.1794    0.0000 H   0  0  0  0  0  0  0  0  0  0  0  0
    9.8873   -8.1802    0.0000 C   0  0  0  0  0  0  0  0  0  0  0  0
   12.0181   -6.9509    0.0000 H   0  0  0  0  0  0  0  0  0  0  0  0
    9.3746   -6.7706    0.0000 H   0  0  0  0  0  0  0  0  0  0  0  0
   10.8510   -9.3297    0.0000 C   0  0  0  0  0  0  0  0  0  0  0  0
   12.1496  -10.0805    0.0000 H   0  0  0  0  0  0  0  0  0  0  0  0
   11.8158   -8.1811    0.0000 H   0  0  0  0  0  0  0  0  0  0  0  0
   10.3367  -10.7396    0.0000 O   0  0  0  0  0  0  0  0  0  0  0  0
    8.8586  -11.0001    0.0000 C   0  0  0  0  0  0  0  0  0  0  0  0
    7.5593  -11.7497    0.0000 H   0  0  0  0  0  0  0  0  0  0  0  0
    9.3713  -12.4097    0.0000 H   0  0  0  0  0  0  0  0  0  0  0  0
    7.8949   -9.8506    0.0000 C   0  0  0  0  0  0  0  0  0  0  0  0
    6.5963   -9.0998    0.0000 H   0  0  0  0  0  0  0  0  0  0  0  0
    6.9301  -10.9992    0.0000 H   0  0  0  0  0  0  0  0  0  0  0  0
    7.1114   -4.7503    0.0000 C   0  0  0  0  0  0  0  0  0  0  0  0
    5.8113   -5.5000    0.0000 C   0  0  0  0  0  0  0  0  0  0  0  0
    5.8111   -7.0000    0.0000 H   0  0  0  0  0  0  0  0  0  0  0  0
    4.5114   -4.7498    0.0000 C   0  0  0  0  0  0  0  0  0  0  0  0
    4.5117   -3.2498    0.0000 C   0  0  0  0  0  0  0  0  0  0  0  0
    3.2129   -2.4994    0.0000 H   0  0  0  0  0  0  0  0  0  0  0  0
    5.8118   -2.5000    0.0000 C   0  0  0  0  0  0  0  0  0  0  0  0
    7.1117   -3.2503    0.0000 C   0  0  0  0  0  0  0  0  0  0  0  0
    8.4107   -2.5003    0.0000 C   0  0  0  0  0  0  0  0  0  0  0  0
    9.7097   -3.2503    0.0000 H   0  0  0  0  0  0  0  0  0  0  0  0
    7.4465   -1.3512    0.0000 H   0  0  0  0  0  0  0  0  0  0  0  0
    9.3749   -1.3512    0.0000 H   0  0  0  0  0  0  0  0  0  0  0  0
    5.8120   -1.0000    0.0000 C   0  0  0  0  0  0  0  0  0  0  0  0
    7.1112   -0.2503    0.0000 O   0  0  0  0  0  0  0  0  0  0  0  0
    4.5131   -0.2498    0.0000 N   0  0  0  0  0  0  0  0  0  0  0  0
    3.2139   -0.9996    0.0000 H   0  0  0  0  0  0  0  0  0  0  0  0
    4.5133    1.2502    0.0000 C   0  0  0  0  0  0  0  0  0  0  0  0
    5.0266    2.6596    0.0000 H   0  0  0  0  0  0  0  0  0  0  0  0
    5.9905    0.9895    0.0000 H   0  0  0  0  0  0  0  0  0  0  0  0
    3.2144    2.0004    0.0000 C   0  0  0  0  0  0  0  0  0  0  0  0
    1.9144    1.2504    0.0000 C   0  0  0  0  0  0  0  0  0  0  0  0
    1.9144   -0.2496    0.0000 C   0  0  0  0  0  0  0  0  0  0  0  0
    0.6154   -0.9996    0.0000 H   0  0  0  0  0  0  0  0  0  0  0  0
    3.3916    0.0108    0.0000 H   0  0  0  0  0  0  0  0  0  0  0  0
    2.4275   -1.6592    0.0000 H   0  0  0  0  0  0  0  0  0  0  0  0
    0.6144    2.0004    0.0000 C   0  0  0  0  0  0  0  0  0  0  0  0
   -0.6845    1.2502    0.0000 H   0  0  0  0  0  0  0  0  0  0  0  0
    0.6144    3.5004    0.0000 C   0  0  0  0  0  0  0  0  0  0  0  0
   -0.6845    4.2506    0.0000 C   0  0  0  0  0  0  0  0  0  0  0  0
   -0.6843    5.7506    0.0000 H   0  0  0  0  0  0  0  0  0  0  0  0
   -1.1978    2.8411    0.0000 H   0  0  0  0  0  0  0  0  0  0  0  0
   -2.1617    4.5113    0.0000 H   0  0  0  0  0  0  0  0  0  0  0  0
    1.9144    4.2504    0.0000 N   0  0  0  0  0  0  0  0  0  0  0  0
    1.9144    5.7504    0.0000 H   0  0  0  0  0  0  0  0  0  0  0  0
    3.2144    3.5004    0.0000 C   0  0  0  0  0  0  0  0  0  0  0  0
    4.5133    4.2506    0.0000 O   0  0  0  0  0  0  0  0  0  0  0  0
    3.2124   -5.4998    0.0000 C   0  0  0  0  0  0  0  0  0  0  0  0
    1.9664   -4.7598    0.0000 C   0  0  0  0  0  0  0  0  0  0  0  0
    2.0052   -3.2603    0.0000 H   0  0  0  0  0  0  0  0  0  0  0  0
    0.6564   -5.4487    0.0000 C   0  0  0  0  0  0  0  0  0  0  0  0
   -0.6323   -4.6812    0.0000 H   0  0  0  0  0  0  0  0  0  0  0  0
    0.6749   -6.9469    0.0000 C   0  0  0  0  0  0  0  0  0  0  0  0
    1.9209   -7.6869    0.0000 C   0  0  0  0  0  0  0  0  0  0  0  0
    1.8821   -9.1864    0.0000 H   0  0  0  0  0  0  0  0  0  0  0  0
    3.2308   -6.9981    0.0000 C   0  0  0  0  0  0  0  0  0  0  0  0
    4.5196   -7.7656    0.0000 H   0  0  0  0  0  0  0  0  0  0  0  0
   -0.6241   -7.6969    0.0000 C   0  0  0  0  0  0  0  0  0  0  0  0
   -1.5883   -8.8460    0.0000 H   0  0  0  0  0  0  0  0  0  0  0  0
    0.3401   -8.8460    0.0000 H   0  0  0  0  0  0  0  0  0  0  0  0
   -2.3389   -6.7069    0.0000 N   0  0  0  0  0  0  0  0  0  0  0  0
   -2.3384   -5.2061    0.0000 C   0  0  0  0  0  0  0  0  0  0  0  0
   -0.8612   -5.4669    0.0000 H   0  0  0  0  0  0  0  0  0  0  0  0
   -1.8252   -3.7966    0.0000 H   0  0  0  0  0  0  0  0  0  0  0  0
   -3.6374   -4.4561    0.0000 C   0  0  0  0  0  0  0  0  0  0  0  0
   -2.6734   -3.3069    0.0000 H   0  0  0  0  0  0  0  0  0  0  0  0
   -4.6018   -3.3072    0.0000 H   0  0  0  0  0  0  0  0  0  0  0  0
   -4.9369   -5.2069    0.0000 O   0  0  0  0  0  0  0  0  0  0  0  0
   -4.9374   -6.7078    0.0000 C   0  0  0  0  0  0  0  0  0  0  0  0
   -6.4146   -6.4470    0.0000 H   0  0  0  0  0  0  0  0  0  0  0  0
   -3.6384   -7.4578    0.0000 C   0  0  0  0  0  0  0  0  0  0  0  0
   -4.6024   -8.6069    0.0000 H   0  0  0  0  0  0  0  0  0  0  0  0
   -2.6739   -8.6066    0.0000 H   0  0  0  0  0  0  0  0  0  0  0  0
   -5.4506   -8.1173    0.0000 O   0  0  0  0  0  0  0  0  0  0  0  0
   -6.9278   -8.3776    0.0000 H   0  0  0  0  0  0  0  0  0  0  0  0
  1  2  1  0  0  0  0 
  1  3  1  0  0  0  0 
  1  4  1  0  0  0  0 
  1  5  1  0  0  0  0 
  5  6  1  0  0  0  0 
  5  7  1  0  0  0  0 
  5  8  1  0  0  0  0 
  8  9  1  0  0  0  0 
  9 10  1  0  0  0  0 
  9 11  1  0  0  0  0 
 11 12  1  0  0  0  0 
 11 13  1  0  0  0  0 
 11 14  1  0  0  0  0 
 14 15  1  0  0  0  0 
 14 16  1  0  0  0  0 
 14 17  1  0  0  0  0 
 17 18  1  0  0  0  0 
 18 19  1  0  0  0  0 
 18 20  1  0  0  0  0 
 18 21  1  0  0  0  0 
  9 21  1  0  0  0  0 
 21 22  1  0  0  0  0 
 21 23  1  0  0  0  0 
  8 24  1  0  0  0  0 
 24 25  2  0  0  0  0 
 25 26  1  0  0  0  0 
 25 27  1  0  0  0  0 
 27 28  2  0  0  0  0 
 28 29  1  0  0  0  0 
 28 30  1  0  0  0  0 
 30 31  2  0  0  0  0 
 24 31  1  0  0  0  0 
 31 32  1  0  0  0  0 
 32 33  1  0  0  0  0 
 32 34  1  0  0  0  0 
 32 35  1  0  0  0  0 
 30 36  1  0  0  0  0 
 36 37  2  0  0  0  0 
 36 38  1  0  0  0  0 
 38 39  1  0  0  0  0 
 38 40  1  0  0  0  0 
 40 41  1  0  0  0  0 
 40 42  1  0  0  0  0 
 40 43  1  0  0  0  0 
 43 44  2  0  0  0  0 
 44 45  1  0  0  0  0 
 45 46  1  0  0  0  0 
 45 47  1  0  0  0  0 
 45 48  1  0  0  0  0 
 44 49  1  0  0  0  0 
 49 50  1  0  0  0  0 
 49 51  2  0  0  0  0 
 51 52  1  0  0  0  0 
 52 53  1  0  0  0  0 
 52 54  1  0  0  0  0 
 52 55  1  0  0  0  0 
 51 56  1  0  0  0  0 
 56 57  1  0  0  0  0 
 56 58  1  0  0  0  0 
 43 58  1  0  0  0  0 
 58 59  2  0  0  0  0 
 27 60  1  0  0  0  0 
 60 61  2  0  0  0  0 
 61 62  1  0  0  0  0 
 61 63  1  0  0  0  0 
 63 64  1  0  0  0  0 
 63 65  2  0  0  0  0 
 65 66  1  0  0  0  0 
 66 67  1  0  0  0  0 
 66 68  2  0  0  0  0 
 60 68  1  0  0  0  0 
 68 69  1  0  0  0  0 
 65 70  1  0  0  0  0 
 70 71  1  0  0  0  0 
 70 72  1  0  0  0  0 
 70 73  1  0  0  0  0 
 73 74  1  0  0  0  0 
 74 75  1  0  0  0  0 
 74 76  1  0  0  0  0 
 74 77  1  0  0  0  0 
 77 78  1  0  0  0  0 
 77 79  1  0  0  0  0 
 77 80  1  0  0  0  0 
 80 81  1  0  0  0  0 
 81 82  1  0  0  0  0 
 81 83  1  0  0  0  0 
 73 83  1  0  0  0  0 
 83 84  1  0  0  0  0 
 83 85  1  0  0  0  0 
 81 86  1  0  0  0  0 
 86 87  1  0  0  0  0 
M  END
> <Rank>
10

> <Priority_score>
0.288

> <Reaction_type>
aliphatic hydroxylation

> <Parent_ID>
24

> <Parent_InChI>
InChI=1S/C34H44N4O4/c1-5-38(29-10-14-41-15-11-29)32-20-28(27-8-6-26(7-9-27)22-37-12-16-42-17-13-37)19-30(25(32)4)33(39)35-21-31-23(2)18-24(3)36-34(31)40/h6-9,18-20,29H,5,10-17,21-22H2,1-4H3,(H,35,39)(H,36,40)

> <Parent_SMILES>
CCN(c1cc(-c2ccc(CN3CCOCC3)cc2)cc(C(=O)NCc2c(C)cc(C)[nH]c2=O)c1C)C1CCOCC1

$$$$
Molecule 24_metabolite 12
  CDK     0516241031

 87 90  0  0  0  0  0  0  0  0999 V2000
   -1.3192    8.7343    0.0000 C   0  0  0  0  0  0  0  0  0  0  0  0
   -2.7965    8.9946    0.0000 H   0  0  0  0  0  0  0  0  0  0  0  0
   -0.0201    7.9845    0.0000 H   0  0  0  0  0  0  0  0  0  0  0  0
   -1.8321    7.3247    0.0000 H   0  0  0  0  0  0  0  0  0  0  0  0
   -0.3552    9.8835    0.0000 C   0  0  0  0  0  0  0  0  0  0  0  0
   -1.6543   10.6333    0.0000 H   0  0  0  0  0  0  0  0  0  0  0  0
    0.1577   11.2931    0.0000 H   0  0  0  0  0  0  0  0  0  0  0  0
    1.1221    9.6232    0.0000 N   0  0  0  0  0  0  0  0  0  0  0  0
    2.3946   11.1401    0.0000 C   0  0  0  0  0  0  0  0  0  0  0  0
    3.3587    9.9909    0.0000 H   0  0  0  0  0  0  0  0  0  0  0  0
    1.0946   11.8901    0.0000 C   0  0  0  0  0  0  0  0  0  0  0  0
   -0.3826   12.1504    0.0000 H   0  0  0  0  0  0  0  0  0  0  0  0
    0.5819   10.4804    0.0000 H   0  0  0  0  0  0  0  0  0  0  0  0
    1.0946   13.3901    0.0000 C   0  0  0  0  0  0  0  0  0  0  0  0
    0.5819   14.7997    0.0000 H   0  0  0  0  0  0  0  0  0  0  0  0
   -0.3826   13.1298    0.0000 H   0  0  0  0  0  0  0  0  0  0  0  0
    2.3946   14.1401    0.0000 O   0  0  0  0  0  0  0  0  0  0  0  0
    3.6946   13.3901    0.0000 C   0  0  0  0  0  0  0  0  0  0  0  0
    5.1719   13.1298    0.0000 H   0  0  0  0  0  0  0  0  0  0  0  0
    4.2074   14.7997    0.0000 H   0  0  0  0  0  0  0  0  0  0  0  0
    3.6946   11.8901    0.0000 C   0  0  0  0  0  0  0  0  0  0  0  0
    4.2074   10.4804    0.0000 H   0  0  0  0  0  0  0  0  0  0  0  0
    5.1719   12.1504    0.0000 H   0  0  0  0  0  0  0  0  0  0  0  0
    2.1279    6.8606    0.0000 C   0  0  0  0  0  0  0  0  0  0  0  0
    1.1635    5.7106    0.0000 C   0  0  0  0  0  0  0  0  0  0  0  0
   -0.3137    5.9712    0.0000 H   0  0  0  0  0  0  0  0  0  0  0  0
    1.6763    4.3001    0.0000 C   0  0  0  0  0  0  0  0  0  0  0  0
    3.1535    4.0396    0.0000 C   0  0  0  0  0  0  0  0  0  0  0  0
    3.6667    2.6301    0.0000 H   0  0  0  0  0  0  0  0  0  0  0  0
    4.1179    5.1895    0.0000 C   0  0  0  0  0  0  0  0  0  0  0  0
    3.6051    6.6000    0.0000 C   0  0  0  0  0  0  0  0  0  0  0  0
    4.5695    7.7489    0.0000 C   0  0  0  0  0  0  0  0  0  0  0  0
    6.0467    7.4881    0.0000 H   0  0  0  0  0  0  0  0  0  0  0  0
    3.2707    8.4992    0.0000 H   0  0  0  0  0  0  0  0  0  0  0  0
    5.0829    9.1583    0.0000 H   0  0  0  0  0  0  0  0  0  0  0  0
    5.5951    4.9290    0.0000 C   0  0  0  0  0  0  0  0  0  0  0  0
    6.5593    6.0780    0.0000 O   0  0  0  0  0  0  0  0  0  0  0  0
    6.1081    3.5194    0.0000 N   0  0  0  0  0  0  0  0  0  0  0  0
    5.1438    2.3704    0.0000 H   0  0  0  0  0  0  0  0  0  0  0  0
    7.5853    3.2588    0.0000 C   0  0  0  0  0  0  0  0  0  0  0  0
    7.5853    4.7588    0.0000 H   0  0  0  0  0  0  0  0  0  0  0  0
    9.0625    3.5192    0.0000 H   0  0  0  0  0  0  0  0  0  0  0  0
    8.0982    1.8493    0.0000 C   0  0  0  0  0  0  0  0  0  0  0  0
    9.5762    1.5884    0.0000 C   0  0  0  0  0  0  0  0  0  0  0  0
   10.5402    2.7375    0.0000 C   0  0  0  0  0  0  0  0  0  0  0  0
   10.0271    4.1470    0.0000 H   0  0  0  0  0  0  0  0  0  0  0  0
   11.5045    1.5886    0.0000 H   0  0  0  0  0  0  0  0  0  0  0  0
   11.8392    3.4877    0.0000 H   0  0  0  0  0  0  0  0  0  0  0  0
   10.0901    0.1782    0.0000 C   0  0  0  0  0  0  0  0  0  0  0  0
   11.5674   -0.0818    0.0000 H   0  0  0  0  0  0  0  0  0  0  0  0
    9.1260   -0.9709    0.0000 C   0  0  0  0  0  0  0  0  0  0  0  0
    9.6390   -2.3805    0.0000 C   0  0  0  0  0  0  0  0  0  0  0  0
   11.1162   -2.6410    0.0000 H   0  0  0  0  0  0  0  0  0  0  0  0
    9.6389   -3.8805    0.0000 H   0  0  0  0  0  0  0  0  0  0  0  0
    8.1618   -2.6409    0.0000 H   0  0  0  0  0  0  0  0  0  0  0  0
    7.6481   -0.7100    0.0000 N   0  0  0  0  0  0  0  0  0  0  0  0
    6.6840   -1.8592    0.0000 H   0  0  0  0  0  0  0  0  0  0  0  0
    7.1341    0.7001    0.0000 C   0  0  0  0  0  0  0  0  0  0  0  0
    5.6569    0.9602    0.0000 O   0  0  0  0  0  0  0  0  0  0  0  0
    0.7119    3.1512    0.0000 C   0  0  0  0  0  0  0  0  0  0  0  0
    1.2240    1.7956    0.0000 C   0  0  0  0  0  0  0  0  0  0  0  0
    2.7074    1.5731    0.0000 H   0  0  0  0  0  0  0  0  0  0  0  0
    0.3178    0.6254    0.0000 C   0  0  0  0  0  0  0  0  0  0  0  0
    0.8496   -0.7772    0.0000 H   0  0  0  0  0  0  0  0  0  0  0  0
   -1.1544    0.9040    0.0000 C   0  0  0  0  0  0  0  0  0  0  0  0
   -1.6665    2.2597    0.0000 C   0  0  0  0  0  0  0  0  0  0  0  0
   -3.1499    2.4822    0.0000 H   0  0  0  0  0  0  0  0  0  0  0  0
   -0.7603    3.4299    0.0000 C   0  0  0  0  0  0  0  0  0  0  0  0
   -1.2921    4.8325    0.0000 H   0  0  0  0  0  0  0  0  0  0  0  0
   -2.4274   -0.6125    0.0000 C   0  0  0  0  0  0  0  0  0  0  0  0
   -1.1285   -1.3628    0.0000 H   0  0  0  0  0  0  0  0  0  0  0  0
   -2.9407   -2.0219    0.0000 H   0  0  0  0  0  0  0  0  0  0  0  0
   -4.3772   -0.2682    0.0000 N   0  0  0  0  0  0  0  0  0  0  0  0
   -4.8900    1.1414    0.0000 C   0  0  0  0  0  0  0  0  0  0  0  0
   -4.8896    2.6414    0.0000 H   0  0  0  0  0  0  0  0  0  0  0  0
   -3.4127    1.4016    0.0000 H   0  0  0  0  0  0  0  0  0  0  0  0
   -6.3671    1.4022    0.0000 C   0  0  0  0  0  0  0  0  0  0  0  0
   -7.3316    0.2533    0.0000 H   0  0  0  0  0  0  0  0  0  0  0  0
   -6.8799    2.8118    0.0000 O   0  0  0  0  0  0  0  0  0  0  0  0
   -5.3417   -1.4171    0.0000 C   0  0  0  0  0  0  0  0  0  0  0  0
   -4.0428   -2.1674    0.0000 H   0  0  0  0  0  0  0  0  0  0  0  0
   -5.8550   -2.8265    0.0000 H   0  0  0  0  0  0  0  0  0  0  0  0
   -6.8188   -1.1563    0.0000 C   0  0  0  0  0  0  0  0  0  0  0  0
   -8.1177   -0.4060    0.0000 H   0  0  0  0  0  0  0  0  0  0  0  0
   -6.3055    0.2531    0.0000 H   0  0  0  0  0  0  0  0  0  0  0  0
   -7.7832   -2.3052    0.0000 O   0  0  0  0  0  0  0  0  0  0  0  0
   -9.2604   -2.0444    0.0000 H   0  0  0  0  0  0  0  0  0  0  0  0
  1  2  1  0  0  0  0 
  1  3  1  0  0  0  0 
  1  4  1  0  0  0  0 
  1  5  1  0  0  0  0 
  5  6  1  0  0  0  0 
  5  7  1  0  0  0  0 
  5  8  1  0  0  0  0 
  8  9  1  0  0  0  0 
  9 10  1  0  0  0  0 
  9 11  1  0  0  0  0 
 11 12  1  0  0  0  0 
 11 13  1  0  0  0  0 
 11 14  1  0  0  0  0 
 14 15  1  0  0  0  0 
 14 16  1  0  0  0  0 
 14 17  1  0  0  0  0 
 17 18  1  0  0  0  0 
 18 19  1  0  0  0  0 
 18 20  1  0  0  0  0 
 18 21  1  0  0  0  0 
  9 21  1  0  0  0  0 
 21 22  1  0  0  0  0 
 21 23  1  0  0  0  0 
  8 24  1  0  0  0  0 
 24 25  2  0  0  0  0 
 25 26  1  0  0  0  0 
 25 27  1  0  0  0  0 
 27 28  2  0  0  0  0 
 28 29  1  0  0  0  0 
 28 30  1  0  0  0  0 
 30 31  2  0  0  0  0 
 24 31  1  0  0  0  0 
 31 32  1  0  0  0  0 
 32 33  1  0  0  0  0 
 32 34  1  0  0  0  0 
 32 35  1  0  0  0  0 
 30 36  1  0  0  0  0 
 36 37  2  0  0  0  0 
 36 38  1  0  0  0  0 
 38 39  1  0  0  0  0 
 38 40  1  0  0  0  0 
 40 41  1  0  0  0  0 
 40 42  1  0  0  0  0 
 40 43  1  0  0  0  0 
 43 44  2  0  0  0  0 
 44 45  1  0  0  0  0 
 45 46  1  0  0  0  0 
 45 47  1  0  0  0  0 
 45 48  1  0  0  0  0 
 44 49  1  0  0  0  0 
 49 50  1  0  0  0  0 
 49 51  2  0  0  0  0 
 51 52  1  0  0  0  0 
 52 53  1  0  0  0  0 
 52 54  1  0  0  0  0 
 52 55  1  0  0  0  0 
 51 56  1  0  0  0  0 
 56 57  1  0  0  0  0 
 56 58  1  0  0  0  0 
 43 58  1  0  0  0  0 
 58 59  2  0  0  0  0 
 27 60  1  0  0  0  0 
 60 61  2  0  0  0  0 
 61 62  1  0  0  0  0 
 61 63  1  0  0  0  0 
 63 64  1  0  0  0  0 
 63 65  2  0  0  0  0 
 65 66  1  0  0  0  0 
 66 67  1  0  0  0  0 
 66 68  2  0  0  0  0 
 60 68  1  0  0  0  0 
 68 69  1  0  0  0  0 
 65 70  1  0  0  0  0 
 70 71  1  0  0  0  0 
 70 72  1  0  0  0  0 
 70 73  1  0  0  0  0 
 73 74  1  0  0  0  0 
 74 75  1  0  0  0  0 
 74 76  1  0  0  0  0 
 74 77  1  0  0  0  0 
 77 78  1  0  0  0  0 
 77 79  2  0  0  0  0 
 73 80  1  0  0  0  0 
 80 81  1  0  0  0  0 
 80 82  1  0  0  0  0 
 80 83  1  0  0  0  0 
 83 84  1  0  0  0  0 
 83 85  1  0  0  0  0 
 83 86  1  0  0  0  0 
 86 87  1  0  0  0  0 
M  END
> <Rank>
10

> <Priority_score>
0.288

> <Reaction_type>
oxidative ether cleavage to one alcohol and one aldehyde/ketone

> <Parent_ID>
24

> <Parent_InChI>
InChI=1S/C34H44N4O4/c1-5-38(29-10-14-41-15-11-29)32-20-28(27-8-6-26(7-9-27)22-37-12-16-42-17-13-37)19-30(25(32)4)33(39)35-21-31-23(2)18-24(3)36-34(31)40/h6-9,18-20,29H,5,10-17,21-22H2,1-4H3,(H,35,39)(H,36,40)

> <Parent_SMILES>
CCN(c1cc(-c2ccc(CN3CCOCC3)cc2)cc(C(=O)NCc2c(C)cc(C)[nH]c2=O)c1C)C1CCOCC1

$$$$
Molecule 24_metabolite 13
  CDK     0516241031

 87 91  0  0  0  0  0  0  0  0999 V2000
    9.8131   -8.6923    0.0000 C   0  0  0  0  0  0  0  0  0  0  0  0
    9.8131  -10.1923    0.0000 H   0  0  0  0  0  0  0  0  0  0  0  0
   11.2903   -8.9528    0.0000 H   0  0  0  0  0  0  0  0  0  0  0  0
   10.3261   -7.2828    0.0000 H   0  0  0  0  0  0  0  0  0  0  0  0
    8.5141   -7.9423    0.0000 C   0  0  0  0  0  0  0  0  0  0  0  0
    7.0369   -7.6819    0.0000 H   0  0  0  0  0  0  0  0  0  0  0  0
    8.0010   -9.3519    0.0000 H   0  0  0  0  0  0  0  0  0  0  0  0
    8.5141   -6.4423    0.0000 N   0  0  0  0  0  0  0  0  0  0  0  0
    6.7993   -5.4523    0.0000 C   0  0  0  0  0  0  0  0  0  0  0  0
    7.7638   -4.3035    0.0000 H   0  0  0  0  0  0  0  0  0  0  0  0
    6.2863   -6.8628    0.0000 C   0  0  0  0  0  0  0  0  0  0  0  0
    6.2863   -8.3628    0.0000 H   0  0  0  0  0  0  0  0  0  0  0  0
    7.7636   -7.1231    0.0000 H   0  0  0  0  0  0  0  0  0  0  0  0
    4.8091   -7.1231    0.0000 C   0  0  0  0  0  0  0  0  0  0  0  0
    3.5098   -7.8727    0.0000 H   0  0  0  0  0  0  0  0  0  0  0  0
    5.3218   -8.5327    0.0000 H   0  0  0  0  0  0  0  0  0  0  0  0
    3.8449   -5.9730    0.0000 O   0  0  0  0  0  0  0  0  0  0  0  0
    4.3579   -4.5625    0.0000 C   0  0  0  0  0  0  0  0  0  0  0  0
    4.3579   -3.0625    0.0000 H   0  0  0  0  0  0  0  0  0  0  0  0
    2.8806   -4.3022    0.0000 H   0  0  0  0  0  0  0  0  0  0  0  0
    5.8351   -4.3022    0.0000 C   0  0  0  0  0  0  0  0  0  0  0  0
    7.1344   -3.5526    0.0000 H   0  0  0  0  0  0  0  0  0  0  0  0
    5.3224   -2.8926    0.0000 H   0  0  0  0  0  0  0  0  0  0  0  0
   11.0602   -4.9723    0.0000 C   0  0  0  0  0  0  0  0  0  0  0  0
   11.0604   -3.4715    0.0000 C   0  0  0  0  0  0  0  0  0  0  0  0
    9.7613   -2.7217    0.0000 C   0  0  0  0  0  0  0  0  0  0  0  0
    9.7610   -1.2217    0.0000 H   0  0  0  0  0  0  0  0  0  0  0  0
    8.2840   -2.4615    0.0000 H   0  0  0  0  0  0  0  0  0  0  0  0
    9.2485   -4.1313    0.0000 H   0  0  0  0  0  0  0  0  0  0  0  0
   12.3598   -2.7205    0.0000 C   0  0  0  0  0  0  0  0  0  0  0  0
   13.6590   -3.4702    0.0000 C   0  0  0  0  0  0  0  0  0  0  0  0
   13.6587   -4.9711    0.0000 C   0  0  0  0  0  0  0  0  0  0  0  0
   12.3593   -5.7221    0.0000 C   0  0  0  0  0  0  0  0  0  0  0  0
   12.3598   -7.2221    0.0000 H   0  0  0  0  0  0  0  0  0  0  0  0
   15.7894   -6.2007    0.0000 C   0  0  0  0  0  0  0  0  0  0  0  0
   17.0352   -5.4605    0.0000 C   0  0  0  0  0  0  0  0  0  0  0  0
   16.9962   -3.9610    0.0000 H   0  0  0  0  0  0  0  0  0  0  0  0
   18.3453   -6.1492    0.0000 C   0  0  0  0  0  0  0  0  0  0  0  0
   19.6339   -5.3814    0.0000 H   0  0  0  0  0  0  0  0  0  0  0  0
   18.3271   -7.6474    0.0000 C   0  0  0  0  0  0  0  0  0  0  0  0
   17.0812   -8.3876    0.0000 C   0  0  0  0  0  0  0  0  0  0  0  0
   17.1203   -9.8871    0.0000 H   0  0  0  0  0  0  0  0  0  0  0  0
   15.7711   -7.6990    0.0000 C   0  0  0  0  0  0  0  0  0  0  0  0
   14.4825   -8.4667    0.0000 H   0  0  0  0  0  0  0  0  0  0  0  0
   19.6262   -8.3972    0.0000 C   0  0  0  0  0  0  0  0  0  0  0  0
   20.1390   -6.9876    0.0000 H   0  0  0  0  0  0  0  0  0  0  0  0
   21.1035   -8.6575    0.0000 H   0  0  0  0  0  0  0  0  0  0  0  0
   19.6266  -10.8572    0.0000 N   0  0  0  0  0  0  0  0  0  0  0  0
   18.3278  -11.6076    0.0000 C   0  0  0  0  0  0  0  0  0  0  0  0
   16.8507  -11.8689    0.0000 H   0  0  0  0  0  0  0  0  0  0  0  0
   17.8142  -10.1983    0.0000 H   0  0  0  0  0  0  0  0  0  0  0  0
   18.3288  -13.1085    0.0000 C   0  0  0  0  0  0  0  0  0  0  0  0
   17.8160  -14.5181    0.0000 H   0  0  0  0  0  0  0  0  0  0  0  0
   16.8514  -12.8486    0.0000 H   0  0  0  0  0  0  0  0  0  0  0  0
   19.6285  -13.8589    0.0000 O   0  0  0  0  0  0  0  0  0  0  0  0
   20.9273  -13.1085    0.0000 C   0  0  0  0  0  0  0  0  0  0  0  0
   22.4044  -12.8472    0.0000 H   0  0  0  0  0  0  0  0  0  0  0  0
   21.4410  -14.5178    0.0000 H   0  0  0  0  0  0  0  0  0  0  0  0
   20.9264  -11.6076    0.0000 C   0  0  0  0  0  0  0  0  0  0  0  0
   21.4391  -10.1980    0.0000 H   0  0  0  0  0  0  0  0  0  0  0  0
   22.4037  -11.8675    0.0000 H   0  0  0  0  0  0  0  0  0  0  0  0
   15.3737   -2.4802    0.0000 O   0  0  0  0  0  0  0  0  0  0  0  0
   16.6728   -3.2302    0.0000 H   0  0  0  0  0  0  0  0  0  0  0  0
   12.3593   -1.2205    0.0000 C   0  0  0  0  0  0  0  0  0  0  0  0
   11.0601   -0.4709    0.0000 O   0  0  0  0  0  0  0  0  0  0  0  0
   13.6581   -0.4700    0.0000 N   0  0  0  0  0  0  0  0  0  0  0  0
   14.9574   -1.2196    0.0000 H   0  0  0  0  0  0  0  0  0  0  0  0
   13.6577    1.0300    0.0000 C   0  0  0  0  0  0  0  0  0  0  0  0
   12.1805    0.7690    0.0000 H   0  0  0  0  0  0  0  0  0  0  0  0
   13.1442    2.4393    0.0000 H   0  0  0  0  0  0  0  0  0  0  0  0
   14.9565    1.7804    0.0000 C   0  0  0  0  0  0  0  0  0  0  0  0
   14.9562    3.2812    0.0000 C   0  0  0  0  0  0  0  0  0  0  0  0
   13.6568    4.0306    0.0000 C   0  0  0  0  0  0  0  0  0  0  0  0
   12.3581    3.2800    0.0000 H   0  0  0  0  0  0  0  0  0  0  0  0
   14.6204    5.1801    0.0000 H   0  0  0  0  0  0  0  0  0  0  0  0
   12.6921    5.1792    0.0000 H   0  0  0  0  0  0  0  0  0  0  0  0
   16.2554    4.0327    0.0000 C   0  0  0  0  0  0  0  0  0  0  0  0
   16.2544    5.5327    0.0000 H   0  0  0  0  0  0  0  0  0  0  0  0
   17.5548    3.2833    0.0000 C   0  0  0  0  0  0  0  0  0  0  0  0
   18.8536    4.0337    0.0000 C   0  0  0  0  0  0  0  0  0  0  0  0
   18.8531    5.5337    0.0000 H   0  0  0  0  0  0  0  0  0  0  0  0
   20.3307    4.2947    0.0000 H   0  0  0  0  0  0  0  0  0  0  0  0
   19.3671    2.6243    0.0000 H   0  0  0  0  0  0  0  0  0  0  0  0
   17.5550    1.7825    0.0000 N   0  0  0  0  0  0  0  0  0  0  0  0
   18.8544    1.0331    0.0000 H   0  0  0  0  0  0  0  0  0  0  0  0
   16.2559    1.0310    0.0000 C   0  0  0  0  0  0  0  0  0  0  0  0
   16.2568   -0.4690    0.0000 O   0  0  0  0  0  0  0  0  0  0  0  0
  1  2  1  0  0  0  0 
  1  3  1  0  0  0  0 
  1  4  1  0  0  0  0 
  1  5  1  0  0  0  0 
  5  6  1  0  0  0  0 
  5  7  1  0  0  0  0 
  5  8  1  0  0  0  0 
  8  9  1  0  0  0  0 
  9 10  1  0  0  0  0 
  9 11  1  0  0  0  0 
 11 12  1  0  0  0  0 
 11 13  1  0  0  0  0 
 11 14  1  0  0  0  0 
 14 15  1  0  0  0  0 
 14 16  1  0  0  0  0 
 14 17  1  0  0  0  0 
 17 18  1  0  0  0  0 
 18 19  1  0  0  0  0 
 18 20  1  0  0  0  0 
 18 21  1  0  0  0  0 
  9 21  1  0  0  0  0 
 21 22  1  0  0  0  0 
 21 23  1  0  0  0  0 
  8 24  1  0  0  0  0 
 24 25  2  0  0  0  0 
 25 26  1  0  0  0  0 
 26 27  1  0  0  0  0 
 26 28  1  0  0  0  0 
 26 29  1  0  0  0  0 
 25 30  1  0  0  0  0 
 30 31  2  0  0  0  0 
 31 32  1  0  0  0  0 
 32 33  2  0  0  0  0 
 24 33  1  0  0  0  0 
 33 34  1  0  0  0  0 
 32 35  1  0  0  0  0 
 35 36  2  0  0  0  0 
 36 37  1  0  0  0  0 
 36 38  1  0  0  0  0 
 38 39  1  0  0  0  0 
 38 40  2  0  0  0  0 
 40 41  1  0  0  0  0 
 41 42  1  0  0  0  0 
 41 43  2  0  0  0  0 
 35 43  1  0  0  0  0 
 43 44  1  0  0  0  0 
 40 45  1  0  0  0  0 
 45 46  1  0  0  0  0 
 45 47  1  0  0  0  0 
 45 48  1  0  0  0  0 
 48 49  1  0  0  0  0 
 49 50  1  0  0  0  0 
 49 51  1  0  0  0  0 
 49 52  1  0  0  0  0 
 52 53  1  0  0  0  0 
 52 54  1  0  0  0  0 
 52 55  1  0  0  0  0 
 55 56  1  0  0  0  0 
 56 57  1  0  0  0  0 
 56 58  1  0  0  0  0 
 56 59  1  0  0  0  0 
 48 59  1  0  0  0  0 
 59 60  1  0  0  0  0 
 59 61  1  0  0  0  0 
 31 62  1  0  0  0  0 
 62 63  1  0  0  0  0 
 30 64  1  0  0  0  0 
 64 65  2  0  0  0  0 
 64 66  1  0  0  0  0 
 66 67  1  0  0  0  0 
 66 68  1  0  0  0  0 
 68 69  1  0  0  0  0 
 68 70  1  0  0  0  0 
 68 71  1  0  0  0  0 
 71 72  2  0  0  0  0 
 72 73  1  0  0  0  0 
 73 74  1  0  0  0  0 
 73 75  1  0  0  0  0 
 73 76  1  0  0  0  0 
 72 77  1  0  0  0  0 
 77 78  1  0  0  0  0 
 77 79  2  0  0  0  0 
 79 80  1  0  0  0  0 
 80 81  1  0  0  0  0 
 80 82  1  0  0  0  0 
 80 83  1  0  0  0  0 
 79 84  1  0  0  0  0 
 84 85  1  0  0  0  0 
 84 86  1  0  0  0  0 
 71 86  1  0  0  0  0 
 86 87  2  0  0  0  0 
M  END
> <Rank>
13

> <Priority_score>
0.252

> <Reaction_type>
aromatic_hydroxylation_(para_to_nitrogen)

> <Parent_ID>
24

> <Parent_InChI>
InChI=1S/C34H44N4O4/c1-5-38(29-10-14-41-15-11-29)32-20-28(27-8-6-26(7-9-27)22-37-12-16-42-17-13-37)19-30(25(32)4)33(39)35-21-31-23(2)18-24(3)36-34(31)40/h6-9,18-20,29H,5,10-17,21-22H2,1-4H3,(H,35,39)(H,36,40)

> <Parent_SMILES>
CCN(c1cc(-c2ccc(CN3CCOCC3)cc2)cc(C(=O)NCc2c(C)cc(C)[nH]c2=O)c1C)C1CCOCC1

$$$$
Molecule 24_metabolite 14
  CDK     0516241031

 80 84  0  0  0  0  0  0  0  0999 V2000
   11.6481  -10.8019    0.0000 C   0  0  0  0  0  0  0  0  0  0  0  0
   11.6469   -9.3019    0.0000 H   0  0  0  0  0  0  0  0  0  0  0  0
   13.1251  -10.5402    0.0000 H   0  0  0  0  0  0  0  0  0  0  0  0
   12.1622  -12.2110    0.0000 H   0  0  0  0  0  0  0  0  0  0  0  0
   10.3496  -11.5529    0.0000 C   0  0  0  0  0  0  0  0  0  0  0  0
    9.0495  -10.8031    0.0000 C   0  0  0  0  0  0  0  0  0  0  0  0
    9.0485   -9.3031    0.0000 C   0  0  0  0  0  0  0  0  0  0  0  0
   10.5259   -9.5626    0.0000 H   0  0  0  0  0  0  0  0  0  0  0  0
    9.5607   -7.8932    0.0000 H   0  0  0  0  0  0  0  0  0  0  0  0
    7.7490   -8.5539    0.0000 N   0  0  0  0  0  0  0  0  0  0  0  0
    6.4505   -9.3048    0.0000 H   0  0  0  0  0  0  0  0  0  0  0  0
    7.7481   -7.0539    0.0000 C   0  0  0  0  0  0  0  0  0  0  0  0
    9.0466   -6.3031    0.0000 O   0  0  0  0  0  0  0  0  0  0  0  0
    6.4485   -6.3048    0.0000 C   0  0  0  0  0  0  0  0  0  0  0  0
    6.4473   -4.8039    0.0000 C   0  0  0  0  0  0  0  0  0  0  0  0
    7.7460   -4.0533    0.0000 C   0  0  0  0  0  0  0  0  0  0  0  0
    7.7453   -2.5533    0.0000 H   0  0  0  0  0  0  0  0  0  0  0  0
    9.2231   -3.7921    0.0000 H   0  0  0  0  0  0  0  0  0  0  0  0
    8.2597   -5.4626    0.0000 H   0  0  0  0  0  0  0  0  0  0  0  0
    5.1475   -4.0537    0.0000 C   0  0  0  0  0  0  0  0  0  0  0  0
    3.8488   -4.8044    0.0000 C   0  0  0  0  0  0  0  0  0  0  0  0
    2.5493   -4.0552    0.0000 H   0  0  0  0  0  0  0  0  0  0  0  0
    3.8500   -6.3052    0.0000 C   0  0  0  0  0  0  0  0  0  0  0  0
    5.1499   -7.0554    0.0000 C   0  0  0  0  0  0  0  0  0  0  0  0
    5.1504   -8.5554    0.0000 H   0  0  0  0  0  0  0  0  0  0  0  0
    2.5513   -7.0558    0.0000 C   0  0  0  0  0  0  0  0  0  0  0  0
    2.5699   -8.5049    0.0000 C   0  0  0  0  0  0  0  0  0  0  0  0
    3.8882   -9.2204    0.0000 H   0  0  0  0  0  0  0  0  0  0  0  0
    1.3187   -9.2955    0.0000 C   0  0  0  0  0  0  0  0  0  0  0  0
    1.3398  -10.7953    0.0000 H   0  0  0  0  0  0  0  0  0  0  0  0
    0.0301   -8.5310    0.0000 C   0  0  0  0  0  0  0  0  0  0  0  0
    0.0115   -7.0819    0.0000 C   0  0  0  0  0  0  0  0  0  0  0  0
   -1.3069   -6.3664    0.0000 H   0  0  0  0  0  0  0  0  0  0  0  0
    1.2627   -6.2913    0.0000 C   0  0  0  0  0  0  0  0  0  0  0  0
    1.2416   -4.7915    0.0000 H   0  0  0  0  0  0  0  0  0  0  0  0
   -1.6842   -9.5218    0.0000 C   0  0  0  0  0  0  0  0  0  0  0  0
   -0.7195  -10.6704    0.0000 H   0  0  0  0  0  0  0  0  0  0  0  0
   -2.6478  -10.6713    0.0000 H   0  0  0  0  0  0  0  0  0  0  0  0
   -3.3994   -8.5326    0.0000 N   0  0  0  0  0  0  0  0  0  0  0  0
   -3.4004   -7.0326    0.0000 C   0  0  0  0  0  0  0  0  0  0  0  0
   -2.8885   -5.6227    0.0000 H   0  0  0  0  0  0  0  0  0  0  0  0
   -1.9229   -7.2920    0.0000 H   0  0  0  0  0  0  0  0  0  0  0  0
   -4.7008   -6.2835    0.0000 C   0  0  0  0  0  0  0  0  0  0  0  0
   -5.6656   -5.1349    0.0000 H   0  0  0  0  0  0  0  0  0  0  0  0
   -3.7375   -5.1337    0.0000 H   0  0  0  0  0  0  0  0  0  0  0  0
   -6.0004   -7.0343    0.0000 O   0  0  0  0  0  0  0  0  0  0  0  0
   -5.9994   -8.5343    0.0000 C   0  0  0  0  0  0  0  0  0  0  0  0
   -6.5112   -9.9443    0.0000 H   0  0  0  0  0  0  0  0  0  0  0  0
   -7.4768   -8.2749    0.0000 H   0  0  0  0  0  0  0  0  0  0  0  0
   -4.6989   -9.2835    0.0000 C   0  0  0  0  0  0  0  0  0  0  0  0
   -3.7341  -10.4320    0.0000 H   0  0  0  0  0  0  0  0  0  0  0  0
   -5.6622  -10.4333    0.0000 H   0  0  0  0  0  0  0  0  0  0  0  0
    5.1470   -2.5537    0.0000 N   0  0  0  0  0  0  0  0  0  0  0  0
    6.4458   -1.8033    0.0000 H   0  0  0  0  0  0  0  0  0  0  0  0
    3.4319   -1.5643    0.0000 C   0  0  0  0  0  0  0  0  0  0  0  0
    2.9197   -2.9741    0.0000 H   0  0  0  0  0  0  0  0  0  0  0  0
    4.3965   -0.4145    0.0000 C   0  0  0  0  0  0  0  0  0  0  0  0
    5.6953    0.3359    0.0000 H   0  0  0  0  0  0  0  0  0  0  0  0
    5.3610   -1.5633    0.0000 H   0  0  0  0  0  0  0  0  0  0  0  0
    3.8829    0.9948    0.0000 C   0  0  0  0  0  0  0  0  0  0  0  0
    3.8819    2.4948    0.0000 H   0  0  0  0  0  0  0  0  0  0  0  0
    5.3600    1.2561    0.0000 H   0  0  0  0  0  0  0  0  0  0  0  0
    2.4047    1.2544    0.0000 O   0  0  0  0  0  0  0  0  0  0  0  0
    1.4401    0.1045    0.0000 C   0  0  0  0  0  0  0  0  0  0  0  0
    0.1413   -0.6459    0.0000 H   0  0  0  0  0  0  0  0  0  0  0  0
    0.4757    1.2534    0.0000 H   0  0  0  0  0  0  0  0  0  0  0  0
    1.9537   -1.3048    0.0000 C   0  0  0  0  0  0  0  0  0  0  0  0
    1.9547   -2.8048    0.0000 H   0  0  0  0  0  0  0  0  0  0  0  0
    0.4766   -1.5660    0.0000 H   0  0  0  0  0  0  0  0  0  0  0  0
    7.7511  -11.5542    0.0000 C   0  0  0  0  0  0  0  0  0  0  0  0
    6.4513  -10.8054    0.0000 O   0  0  0  0  0  0  0  0  0  0  0  0
    7.7528  -13.0550    0.0000 N   0  0  0  0  0  0  0  0  0  0  0  0
    6.4543  -13.8060    0.0000 H   0  0  0  0  0  0  0  0  0  0  0  0
    9.0529  -13.8048    0.0000 C   0  0  0  0  0  0  0  0  0  0  0  0
   10.3513  -13.0537    0.0000 C   0  0  0  0  0  0  0  0  0  0  0  0
   11.6511  -13.8025    0.0000 H   0  0  0  0  0  0  0  0  0  0  0  0
    9.0538  -15.3048    0.0000 C   0  0  0  0  0  0  0  0  0  0  0  0
   10.3534  -16.0539    0.0000 H   0  0  0  0  0  0  0  0  0  0  0  0
    7.5765  -15.0452    0.0000 H   0  0  0  0  0  0  0  0  0  0  0  0
    8.5417  -16.7146    0.0000 H   0  0  0  0  0  0  0  0  0  0  0  0
  1  2  1  0  0  0  0 
  1  3  1  0  0  0  0 
  1  4  1  0  0  0  0 
  1  5  1  0  0  0  0 
  5  6  2  0  0  0  0 
  6  7  1  0  0  0  0 
  7  8  1  0  0  0  0 
  7  9  1  0  0  0  0 
  7 10  1  0  0  0  0 
 10 11  1  0  0  0  0 
 10 12  1  0  0  0  0 
 12 13  2  0  0  0  0 
 12 14  1  0  0  0  0 
 14 15  2  0  0  0  0 
 15 16  1  0  0  0  0 
 16 17  1  0  0  0  0 
 16 18  1  0  0  0  0 
 16 19  1  0  0  0  0 
 15 20  1  0  0  0  0 
 20 21  2  0  0  0  0 
 21 22  1  0  0  0  0 
 21 23  1  0  0  0  0 
 23 24  2  0  0  0  0 
 14 24  1  0  0  0  0 
 24 25  1  0  0  0  0 
 23 26  1  0  0  0  0 
 26 27  2  0  0  0  0 
 27 28  1  0  0  0  0 
 27 29  1  0  0  0  0 
 29 30  1  0  0  0  0 
 29 31  2  0  0  0  0 
 31 32  1  0  0  0  0 
 32 33  1  0  0  0  0 
 32 34  2  0  0  0  0 
 26 34  1  0  0  0  0 
 34 35  1  0  0  0  0 
 31 36  1  0  0  0  0 
 36 37  1  0  0  0  0 
 36 38  1  0  0  0  0 
 36 39  1  0  0  0  0 
 39 40  1  0  0  0  0 
 40 41  1  0  0  0  0 
 40 42  1  0  0  0  0 
 40 43  1  0  0  0  0 
 43 44  1  0  0  0  0 
 43 45  1  0  0  0  0 
 43 46  1  0  0  0  0 
 46 47  1  0  0  0  0 
 47 48  1  0  0  0  0 
 47 49  1  0  0  0  0 
 47 50  1  0  0  0  0 
 39 50  1  0  0  0  0 
 50 51  1  0  0  0  0 
 50 52  1  0  0  0  0 
 20 53  1  0  0  0  0 
 53 54  1  0  0  0  0 
 53 55  1  0  0  0  0 
 55 56  1  0  0  0  0 
 55 57  1  0  0  0  0 
 57 58  1  0  0  0  0 
 57 59  1  0  0  0  0 
 57 60  1  0  0  0  0 
 60 61  1  0  0  0  0 
 60 62  1  0  0  0  0 
 60 63  1  0  0  0  0 
 63 64  1  0  0  0  0 
 64 65  1  0  0  0  0 
 64 66  1  0  0  0  0 
 64 67  1  0  0  0  0 
 55 67  1  0  0  0  0 
 67 68  1  0  0  0  0 
 67 69  1  0  0  0  0 
  6 70  1  0  0  0  0 
 70 71  2  0  0  0  0 
 70 72  1  0  0  0  0 
 72 73  1  0  0  0  0 
 72 74  1  0  0  0  0 
 74 75  2  0  0  0  0 
  5 75  1  0  0  0  0 
 75 76  1  0  0  0  0 
 74 77  1  0  0  0  0 
 77 78  1  0  0  0  0 
 77 79  1  0  0  0  0 
 77 80  1  0  0  0  0 
M  END
> <Rank>
13

> <Priority_score>
0.252

> <Reaction_type>
N-dealkylation_(tertiaryN-CH2-alkyl)

> <Parent_ID>
24

> <Parent_InChI>
InChI=1S/C34H44N4O4/c1-5-38(29-10-14-41-15-11-29)32-20-28(27-8-6-26(7-9-27)22-37-12-16-42-17-13-37)19-30(25(32)4)33(39)35-21-31-23(2)18-24(3)36-34(31)40/h6-9,18-20,29H,5,10-17,21-22H2,1-4H3,(H,35,39)(H,36,40)

> <Parent_SMILES>
CCN(c1cc(-c2ccc(CN3CCOCC3)cc2)cc(C(=O)NCc2c(C)cc(C)[nH]c2=O)c1C)C1CCOCC1

$$$$
Molecule 24_metabolite 15
  CDK     0516241031

 87 91  0  0  0  0  0  0  0  0999 V2000
   11.3184    3.7273    0.0000 C   0  0  0  0  0  0  0  0  0  0  0  0
   12.0682    2.4281    0.0000 H   0  0  0  0  0  0  0  0  0  0  0  0
   11.0582    5.2045    0.0000 H   0  0  0  0  0  0  0  0  0  0  0  0
   12.7280    4.2401    0.0000 H   0  0  0  0  0  0  0  0  0  0  0  0
    9.8184    3.7275    0.0000 C   0  0  0  0  0  0  0  0  0  0  0  0
   10.0791    5.2047    0.0000 H   0  0  0  0  0  0  0  0  0  0  0  0
    8.4090    4.2408    0.0000 H   0  0  0  0  0  0  0  0  0  0  0  0
    9.0682    2.4286    0.0000 N   0  0  0  0  0  0  0  0  0  0  0  0
   10.5378   -0.1177    0.0000 C   0  0  0  0  0  0  0  0  0  0  0  0
    9.1281   -0.6302    0.0000 H   0  0  0  0  0  0  0  0  0  0  0  0
   11.6874    0.8470    0.0000 C   0  0  0  0  0  0  0  0  0  0  0  0
   12.9178    2.9773    0.0000 H   0  0  0  0  0  0  0  0  0  0  0  0
   10.5384    1.8113    0.0000 H   0  0  0  0  0  0  0  0  0  0  0  0
   13.0969    0.3336    0.0000 C   0  0  0  0  0  0  0  0  0  0  0  0
   14.5969    0.3329    0.0000 H   0  0  0  0  0  0  0  0  0  0  0  0
   13.3579    1.8107    0.0000 H   0  0  0  0  0  0  0  0  0  0  0  0
   13.3566   -1.1446    0.0000 O   0  0  0  0  0  0  0  0  0  0  0  0
   12.2069   -2.1093    0.0000 C   0  0  0  0  0  0  0  0  0  0  0  0
   11.4567   -3.4083    0.0000 H   0  0  0  0  0  0  0  0  0  0  0  0
   13.3560   -3.0736    0.0000 H   0  0  0  0  0  0  0  0  0  0  0  0
   10.7975   -1.5959    0.0000 C   0  0  0  0  0  0  0  0  0  0  0  0
    9.2975   -1.5952    0.0000 H   0  0  0  0  0  0  0  0  0  0  0  0
   10.5365   -3.0730    0.0000 O   0  0  0  0  0  0  0  0  0  0  0  0
    9.1268   -3.5855    0.0000 H   0  0  0  0  0  0  0  0  0  0  0  0
    7.5682    2.4288    0.0000 C   0  0  0  0  0  0  0  0  0  0  0  0
    6.8174    1.1293    0.0000 C   0  0  0  0  0  0  0  0  0  0  0  0
    7.5674   -0.1697    0.0000 H   0  0  0  0  0  0  0  0  0  0  0  0
    5.3165    1.1288    0.0000 C   0  0  0  0  0  0  0  0  0  0  0  0
    4.5665    2.4279    0.0000 C   0  0  0  0  0  0  0  0  0  0  0  0
    3.0665    2.4281    0.0000 H   0  0  0  0  0  0  0  0  0  0  0  0
    5.3174    3.7274    0.0000 C   0  0  0  0  0  0  0  0  0  0  0  0
    6.8182    3.7279    0.0000 C   0  0  0  0  0  0  0  0  0  0  0  0
    7.5680    5.0270    0.0000 C   0  0  0  0  0  0  0  0  0  0  0  0
    9.0680    5.0273    0.0000 H   0  0  0  0  0  0  0  0  0  0  0  0
    6.1584    5.5398    0.0000 H   0  0  0  0  0  0  0  0  0  0  0  0
    7.8282    6.5043    0.0000 H   0  0  0  0  0  0  0  0  0  0  0  0
    4.5674    5.0264    0.0000 C   0  0  0  0  0  0  0  0  0  0  0  0
    5.3174    6.3255    0.0000 O   0  0  0  0  0  0  0  0  0  0  0  0
    3.0674    5.0264    0.0000 N   0  0  0  0  0  0  0  0  0  0  0  0
    2.3174    3.7274    0.0000 H   0  0  0  0  0  0  0  0  0  0  0  0
    2.3174    6.3255    0.0000 C   0  0  0  0  0  0  0  0  0  0  0  0
    2.0569    7.8027    0.0000 H   0  0  0  0  0  0  0  0  0  0  0  0
    3.7269    6.8385    0.0000 H   0  0  0  0  0  0  0  0  0  0  0  0
    0.8174    6.3255    0.0000 C   0  0  0  0  0  0  0  0  0  0  0  0
    0.0667    5.0258    0.0000 C   0  0  0  0  0  0  0  0  0  0  0  0
    0.8170    3.7269    0.0000 C   0  0  0  0  0  0  0  0  0  0  0  0
    0.0672    2.4278    0.0000 H   0  0  0  0  0  0  0  0  0  0  0  0
    1.9659    4.6913    0.0000 H   0  0  0  0  0  0  0  0  0  0  0  0
    1.9662    2.7629    0.0000 H   0  0  0  0  0  0  0  0  0  0  0  0
   -1.4341    5.0251    0.0000 C   0  0  0  0  0  0  0  0  0  0  0  0
   -2.1837    3.7258    0.0000 H   0  0  0  0  0  0  0  0  0  0  0  0
   -2.1843    6.3240    0.0000 C   0  0  0  0  0  0  0  0  0  0  0  0
   -3.6843    6.3240    0.0000 C   0  0  0  0  0  0  0  0  0  0  0  0
   -4.4343    7.6231    0.0000 H   0  0  0  0  0  0  0  0  0  0  0  0
   -3.4238    4.8468    0.0000 H   0  0  0  0  0  0  0  0  0  0  0  0
   -5.0938    5.8110    0.0000 H   0  0  0  0  0  0  0  0  0  0  0  0
   -1.4337    7.6237    0.0000 N   0  0  0  0  0  0  0  0  0  0  0  0
   -2.1839    8.9226    0.0000 H   0  0  0  0  0  0  0  0  0  0  0  0
    0.0672    7.6244    0.0000 C   0  0  0  0  0  0  0  0  0  0  0  0
    0.8167    8.9237    0.0000 O   0  0  0  0  0  0  0  0  0  0  0  0
    4.5667   -0.1703    0.0000 C   0  0  0  0  0  0  0  0  0  0  0  0
    3.1177   -0.1527    0.0000 C   0  0  0  0  0  0  0  0  0  0  0  0
    2.4014    1.1652    0.0000 H   0  0  0  0  0  0  0  0  0  0  0  0
    2.3279   -1.4044    0.0000 C   0  0  0  0  0  0  0  0  0  0  0  0
    0.8280   -1.3843    0.0000 H   0  0  0  0  0  0  0  0  0  0  0  0
    3.0932   -2.6925    0.0000 C   0  0  0  0  0  0  0  0  0  0  0  0
    4.5423   -2.7101    0.0000 C   0  0  0  0  0  0  0  0  0  0  0  0
    5.2586   -4.0280    0.0000 H   0  0  0  0  0  0  0  0  0  0  0  0
    5.3321   -1.4585    0.0000 C   0  0  0  0  0  0  0  0  0  0  0  0
    6.8319   -1.4786    0.0000 H   0  0  0  0  0  0  0  0  0  0  0  0
    2.1035   -4.4074    0.0000 C   0  0  0  0  0  0  0  0  0  0  0  0
    0.9542   -3.4434    0.0000 H   0  0  0  0  0  0  0  0  0  0  0  0
    0.9546   -5.3718    0.0000 H   0  0  0  0  0  0  0  0  0  0  0  0
    3.0937   -6.1220    0.0000 N   0  0  0  0  0  0  0  0  0  0  0  0
    4.5937   -6.1220    0.0000 C   0  0  0  0  0  0  0  0  0  0  0  0
    6.0034   -5.6092    0.0000 H   0  0  0  0  0  0  0  0  0  0  0  0
    4.3334   -4.6447    0.0000 H   0  0  0  0  0  0  0  0  0  0  0  0
    5.3437   -7.4220    0.0000 C   0  0  0  0  0  0  0  0  0  0  0  0
    6.4929   -8.3860    0.0000 H   0  0  0  0  0  0  0  0  0  0  0  0
    6.4929   -6.4579    0.0000 H   0  0  0  0  0  0  0  0  0  0  0  0
    4.5937   -8.7220    0.0000 O   0  0  0  0  0  0  0  0  0  0  0  0
    3.0937   -8.7220    0.0000 C   0  0  0  0  0  0  0  0  0  0  0  0
    1.6841   -9.2347    0.0000 H   0  0  0  0  0  0  0  0  0  0  0  0
    3.3541  -10.1992    0.0000 H   0  0  0  0  0  0  0  0  0  0  0  0
    2.3437   -7.4220    0.0000 C   0  0  0  0  0  0  0  0  0  0  0  0
    1.1946   -6.4579    0.0000 H   0  0  0  0  0  0  0  0  0  0  0  0
    1.1946   -8.3860    0.0000 H   0  0  0  0  0  0  0  0  0  0  0  0
  1  2  1  0  0  0  0 
  1  3  1  0  0  0  0 
  1  4  1  0  0  0  0 
  1  5  1  0  0  0  0 
  5  6  1  0  0  0  0 
  5  7  1  0  0  0  0 
  5  8  1  0  0  0  0 
  8  9  1  0  0  0  0 
  9 10  1  0  0  0  0 
  9 11  1  0  0  0  0 
 11 12  1  0  0  0  0 
 11 13  1  0  0  0  0 
 11 14  1  0  0  0  0 
 14 15  1  0  0  0  0 
 14 16  1  0  0  0  0 
 14 17  1  0  0  0  0 
 17 18  1  0  0  0  0 
 18 19  1  0  0  0  0 
 18 20  1  0  0  0  0 
 18 21  1  0  0  0  0 
  9 21  1  0  0  0  0 
 21 22  1  0  0  0  0 
 21 23  1  0  0  0  0 
 23 24  1  0  0  0  0 
  8 25  1  0  0  0  0 
 25 26  2  0  0  0  0 
 26 27  1  0  0  0  0 
 26 28  1  0  0  0  0 
 28 29  2  0  0  0  0 
 29 30  1  0  0  0  0 
 29 31  1  0  0  0  0 
 31 32  2  0  0  0  0 
 25 32  1  0  0  0  0 
 32 33  1  0  0  0  0 
 33 34  1  0  0  0  0 
 33 35  1  0  0  0  0 
 33 36  1  0  0  0  0 
 31 37  1  0  0  0  0 
 37 38  2  0  0  0  0 
 37 39  1  0  0  0  0 
 39 40  1  0  0  0  0 
 39 41  1  0  0  0  0 
 41 42  1  0  0  0  0 
 41 43  1  0  0  0  0 
 41 44  1  0  0  0  0 
 44 45  2  0  0  0  0 
 45 46  1  0  0  0  0 
 46 47  1  0  0  0  0 
 46 48  1  0  0  0  0 
 46 49  1  0  0  0  0 
 45 50  1  0  0  0  0 
 50 51  1  0  0  0  0 
 50 52  2  0  0  0  0 
 52 53  1  0  0  0  0 
 53 54  1  0  0  0  0 
 53 55  1  0  0  0  0 
 53 56  1  0  0  0  0 
 52 57  1  0  0  0  0 
 57 58  1  0  0  0  0 
 57 59  1  0  0  0  0 
 44 59  1  0  0  0  0 
 59 60  2  0  0  0  0 
 28 61  1  0  0  0  0 
 61 62  2  0  0  0  0 
 62 63  1  0  0  0  0 
 62 64  1  0  0  0  0 
 64 65  1  0  0  0  0 
 64 66  2  0  0  0  0 
 66 67  1  0  0  0  0 
 67 68  1  0  0  0  0 
 67 69  2  0  0  0  0 
 61 69  1  0  0  0  0 
 69 70  1  0  0  0  0 
 66 71  1  0  0  0  0 
 71 72  1  0  0  0  0 
 71 73  1  0  0  0  0 
 71 74  1  0  0  0  0 
 74 75  1  0  0  0  0 
 75 76  1  0  0  0  0 
 75 77  1  0  0  0  0 
 75 78  1  0  0  0  0 
 78 79  1  0  0  0  0 
 78 80  1  0  0  0  0 
 78 81  1  0  0  0  0 
 81 82  1  0  0  0  0 
 82 83  1  0  0  0  0 
 82 84  1  0  0  0  0 
 82 85  1  0  0  0  0 
 74 85  1  0  0  0  0 
 85 86  1  0  0  0  0 
 85 87  1  0  0  0  0 
M  END
> <Rank>
13

> <Priority_score>
0.252

> <Reaction_type>
aliphatic_hydroxylation_(sec_carbon_in_a_ringB)

> <Parent_ID>
24

> <Parent_InChI>
InChI=1S/C34H44N4O4/c1-5-38(29-10-14-41-15-11-29)32-20-28(27-8-6-26(7-9-27)22-37-12-16-42-17-13-37)19-30(25(32)4)33(39)35-21-31-23(2)18-24(3)36-34(31)40/h6-9,18-20,29H,5,10-17,21-22H2,1-4H3,(H,35,39)(H,36,40)

> <Parent_SMILES>
CCN(c1cc(-c2ccc(CN3CCOCC3)cc2)cc(C(=O)NCc2c(C)cc(C)[nH]c2=O)c1C)C1CCOCC1

$$$$
Molecule 24_metabolite 16
  CDK     0516241031

 72 75  0  0  0  0  0  0  0  0999 V2000
    3.8158    7.3178    0.0000 C   0  0  0  0  0  0  0  0  0  0  0  0
    5.1150    8.0676    0.0000 H   0  0  0  0  0  0  0  0  0  0  0  0
    2.3386    7.0576    0.0000 H   0  0  0  0  0  0  0  0  0  0  0  0
    3.3030    8.7274    0.0000 H   0  0  0  0  0  0  0  0  0  0  0  0
    3.8156    5.8178    0.0000 C   0  0  0  0  0  0  0  0  0  0  0  0
    5.2929    6.0781    0.0000 H   0  0  0  0  0  0  0  0  0  0  0  0
    4.3284    4.4082    0.0000 H   0  0  0  0  0  0  0  0  0  0  0  0
    2.5164    5.0680    0.0000 N   0  0  0  0  0  0  0  0  0  0  0  0
    1.2175    5.8182    0.0000 H   0  0  0  0  0  0  0  0  0  0  0  0
    2.5162    3.5680    0.0000 C   0  0  0  0  0  0  0  0  0  0  0  0
    3.8157    2.8172    0.0000 C   0  0  0  0  0  0  0  0  0  0  0  0
    5.1148    3.5672    0.0000 H   0  0  0  0  0  0  0  0  0  0  0  0
    3.8162    1.3164    0.0000 C   0  0  0  0  0  0  0  0  0  0  0  0
    2.5172    0.5664    0.0000 C   0  0  0  0  0  0  0  0  0  0  0  0
    2.5169   -0.9336    0.0000 H   0  0  0  0  0  0  0  0  0  0  0  0
    1.2176    1.3172    0.0000 C   0  0  0  0  0  0  0  0  0  0  0  0
    1.2172    2.8180    0.0000 C   0  0  0  0  0  0  0  0  0  0  0  0
   -0.0820    3.5678    0.0000 C   0  0  0  0  0  0  0  0  0  0  0  0
   -0.0822    5.0678    0.0000 H   0  0  0  0  0  0  0  0  0  0  0  0
   -0.5948    2.1582    0.0000 H   0  0  0  0  0  0  0  0  0  0  0  0
   -1.5592    3.8281    0.0000 H   0  0  0  0  0  0  0  0  0  0  0  0
   -0.0814    0.5672    0.0000 C   0  0  0  0  0  0  0  0  0  0  0  0
   -1.3804    1.3172    0.0000 O   0  0  0  0  0  0  0  0  0  0  0  0
   -0.0814   -0.9328    0.0000 N   0  0  0  0  0  0  0  0  0  0  0  0
    1.2176   -1.6828    0.0000 H   0  0  0  0  0  0  0  0  0  0  0  0
   -1.3804   -1.6828    0.0000 C   0  0  0  0  0  0  0  0  0  0  0  0
   -2.8576   -1.9433    0.0000 H   0  0  0  0  0  0  0  0  0  0  0  0
   -1.8935   -0.2733    0.0000 H   0  0  0  0  0  0  0  0  0  0  0  0
   -1.3804   -3.1828    0.0000 C   0  0  0  0  0  0  0  0  0  0  0  0
   -0.0808   -3.9334    0.0000 C   0  0  0  0  0  0  0  0  0  0  0  0
    1.2181   -3.1832    0.0000 C   0  0  0  0  0  0  0  0  0  0  0  0
    2.5173   -3.9330    0.0000 H   0  0  0  0  0  0  0  0  0  0  0  0
    0.2538   -2.0343    0.0000 H   0  0  0  0  0  0  0  0  0  0  0  0
    2.1821   -2.0340    0.0000 H   0  0  0  0  0  0  0  0  0  0  0  0
   -0.0801   -5.4343    0.0000 C   0  0  0  0  0  0  0  0  0  0  0  0
    1.2192   -6.1838    0.0000 H   0  0  0  0  0  0  0  0  0  0  0  0
   -1.3790   -6.1845    0.0000 C   0  0  0  0  0  0  0  0  0  0  0  0
   -1.3790   -7.6845    0.0000 C   0  0  0  0  0  0  0  0  0  0  0  0
   -2.6780   -8.4345    0.0000 H   0  0  0  0  0  0  0  0  0  0  0  0
    0.0982   -7.4240    0.0000 H   0  0  0  0  0  0  0  0  0  0  0  0
   -0.8660   -9.0940    0.0000 H   0  0  0  0  0  0  0  0  0  0  0  0
   -2.6786   -5.4338    0.0000 N   0  0  0  0  0  0  0  0  0  0  0  0
   -3.9775   -6.1841    0.0000 H   0  0  0  0  0  0  0  0  0  0  0  0
   -2.6793   -3.9330    0.0000 C   0  0  0  0  0  0  0  0  0  0  0  0
   -3.9786   -3.1834    0.0000 O   0  0  0  0  0  0  0  0  0  0  0  0
    5.1154    0.5666    0.0000 C   0  0  0  0  0  0  0  0  0  0  0  0
    5.0977   -0.8825    0.0000 C   0  0  0  0  0  0  0  0  0  0  0  0
    3.7798   -1.5988    0.0000 H   0  0  0  0  0  0  0  0  0  0  0  0
    6.3494   -1.6723    0.0000 C   0  0  0  0  0  0  0  0  0  0  0  0
    6.3293   -3.1722    0.0000 H   0  0  0  0  0  0  0  0  0  0  0  0
    7.6376   -0.9070    0.0000 C   0  0  0  0  0  0  0  0  0  0  0  0
    7.6552    0.5421    0.0000 C   0  0  0  0  0  0  0  0  0  0  0  0
    8.9731    1.2584    0.0000 H   0  0  0  0  0  0  0  0  0  0  0  0
    6.4035    1.3319    0.0000 C   0  0  0  0  0  0  0  0  0  0  0  0
    6.4236    2.8318    0.0000 H   0  0  0  0  0  0  0  0  0  0  0  0
    9.3524   -1.8967    0.0000 C   0  0  0  0  0  0  0  0  0  0  0  0
    8.3884   -3.0459    0.0000 H   0  0  0  0  0  0  0  0  0  0  0  0
   10.3168   -3.0456    0.0000 H   0  0  0  0  0  0  0  0  0  0  0  0
   11.0670   -0.9064    0.0000 N   0  0  0  0  0  0  0  0  0  0  0  0
   11.0670    0.5936    0.0000 C   0  0  0  0  0  0  0  0  0  0  0  0
   10.5543    2.0032    0.0000 H   0  0  0  0  0  0  0  0  0  0  0  0
    9.5898    0.3333    0.0000 H   0  0  0  0  0  0  0  0  0  0  0  0
   12.3670    1.3436    0.0000 C   0  0  0  0  0  0  0  0  0  0  0  0
   13.3311    2.4927    0.0000 H   0  0  0  0  0  0  0  0  0  0  0  0
   11.4030    2.4927    0.0000 H   0  0  0  0  0  0  0  0  0  0  0  0
   13.6670    0.5936    0.0000 O   0  0  0  0  0  0  0  0  0  0  0  0
   13.6670   -0.9064    0.0000 C   0  0  0  0  0  0  0  0  0  0  0  0
   14.1797   -2.3161    0.0000 H   0  0  0  0  0  0  0  0  0  0  0  0
   15.1443   -0.6461    0.0000 H   0  0  0  0  0  0  0  0  0  0  0  0
   12.3670   -1.6564    0.0000 C   0  0  0  0  0  0  0  0  0  0  0  0
   11.4030   -2.8056    0.0000 H   0  0  0  0  0  0  0  0  0  0  0  0
   13.3311   -2.8056    0.0000 H   0  0  0  0  0  0  0  0  0  0  0  0
  1  2  1  0  0  0  0 
  1  3  1  0  0  0  0 
  1  4  1  0  0  0  0 
  1  5  1  0  0  0  0 
  5  6  1  0  0  0  0 
  5  7  1  0  0  0  0 
  5  8  1  0  0  0  0 
  8  9  1  0  0  0  0 
  8 10  1  0  0  0  0 
 10 11  2  0  0  0  0 
 11 12  1  0  0  0  0 
 11 13  1  0  0  0  0 
 13 14  2  0  0  0  0 
 14 15  1  0  0  0  0 
 14 16  1  0  0  0  0 
 16 17  2  0  0  0  0 
 10 17  1  0  0  0  0 
 17 18  1  0  0  0  0 
 18 19  1  0  0  0  0 
 18 20  1  0  0  0  0 
 18 21  1  0  0  0  0 
 16 22  1  0  0  0  0 
 22 23  2  0  0  0  0 
 22 24  1  0  0  0  0 
 24 25  1  0  0  0  0 
 24 26  1  0  0  0  0 
 26 27  1  0  0  0  0 
 26 28  1  0  0  0  0 
 26 29  1  0  0  0  0 
 29 30  2  0  0  0  0 
 30 31  1  0  0  0  0 
 31 32  1  0  0  0  0 
 31 33  1  0  0  0  0 
 31 34  1  0  0  0  0 
 30 35  1  0  0  0  0 
 35 36  1  0  0  0  0 
 35 37  2  0  0  0  0 
 37 38  1  0  0  0  0 
 38 39  1  0  0  0  0 
 38 40  1  0  0  0  0 
 38 41  1  0  0  0  0 
 37 42  1  0  0  0  0 
 42 43  1  0  0  0  0 
 42 44  1  0  0  0  0 
 29 44  1  0  0  0  0 
 44 45  2  0  0  0  0 
 13 46  1  0  0  0  0 
 46 47  2  0  0  0  0 
 47 48  1  0  0  0  0 
 47 49  1  0  0  0  0 
 49 50  1  0  0  0  0 
 49 51  2  0  0  0  0 
 51 52  1  0  0  0  0 
 52 53  1  0  0  0  0 
 52 54  2  0  0  0  0 
 46 54  1  0  0  0  0 
 54 55  1  0  0  0  0 
 51 56  1  0  0  0  0 
 56 57  1  0  0  0  0 
 56 58  1  0  0  0  0 
 56 59  1  0  0  0  0 
 59 60  1  0  0  0  0 
 60 61  1  0  0  0  0 
 60 62  1  0  0  0  0 
 60 63  1  0  0  0  0 
 63 64  1  0  0  0  0 
 63 65  1  0  0  0  0 
 63 66  1  0  0  0  0 
 66 67  1  0  0  0  0 
 67 68  1  0  0  0  0 
 67 69  1  0  0  0  0 
 67 70  1  0  0  0  0 
 59 70  1  0  0  0  0 
 70 71  1  0  0  0  0 
 70 72  1  0  0  0  0 
M  END
> <Rank>
13

> <Priority_score>
0.252

> <Reaction_type>
N-dealkylation

> <Parent_ID>
24

> <Parent_InChI>
InChI=1S/C34H44N4O4/c1-5-38(29-10-14-41-15-11-29)32-20-28(27-8-6-26(7-9-27)22-37-12-16-42-17-13-37)19-30(25(32)4)33(39)35-21-31-23(2)18-24(3)36-34(31)40/h6-9,18-20,29H,5,10-17,21-22H2,1-4H3,(H,35,39)(H,36,40)

> <Parent_SMILES>
CCN(c1cc(-c2ccc(CN3CCOCC3)cc2)cc(C(=O)NCc2c(C)cc(C)[nH]c2=O)c1C)C1CCOCC1

$$$$
Molecule 24_metabolite 17
  CDK     0516241031

  9  8  0  0  0  0  0  0  0  0999 V2000
    1.2990   -0.7500    0.0000 C   0  0  0  0  0  0  0  0  0  0  0  0
    0.0000    0.0000    0.0000 H   0  0  0  0  0  0  0  0  0  0  0  0
    0.3349   -1.8991    0.0000 H   0  0  0  0  0  0  0  0  0  0  0  0
    2.2632   -1.8991    0.0000 H   0  0  0  0  0  0  0  0  0  0  0  0
    2.5981   -0.0000    0.0000 C   0  0  0  0  0  0  0  0  0  0  0  0
    3.5623    1.1491    0.0000 H   0  0  0  0  0  0  0  0  0  0  0  0
    1.6339    1.1491    0.0000 H   0  0  0  0  0  0  0  0  0  0  0  0
    3.8971   -0.7500    0.0000 O   0  0  0  0  0  0  0  0  0  0  0  0
    5.1962   -0.0000    0.0000 H   0  0  0  0  0  0  0  0  0  0  0  0
  1  2  1  0  0  0  0 
  1  3  1  0  0  0  0 
  1  4  1  0  0  0  0 
  1  5  1  0  0  0  0 
  5  6  1  0  0  0  0 
  5  7  1  0  0  0  0 
  5  8  1  0  0  0  0 
  8  9  1  0  0  0  0 
M  END
> <Rank>
13

> <Priority_score>
0.252

> <Reaction_type>
N-dealkylation_(tertiaryN-CH2-alkyl)

> <Parent_ID>
24

> <Parent_InChI>
InChI=1S/C34H44N4O4/c1-5-38(29-10-14-41-15-11-29)32-20-28(27-8-6-26(7-9-27)22-37-12-16-42-17-13-37)19-30(25(32)4)33(39)35-21-31-23(2)18-24(3)36-34(31)40/h6-9,18-20,29H,5,10-17,21-22H2,1-4H3,(H,35,39)(H,36,40)

> <Parent_SMILES>
CCN(c1cc(-c2ccc(CN3CCOCC3)cc2)cc(C(=O)NCc2c(C)cc(C)[nH]c2=O)c1C)C1CCOCC1

$$$$
Molecule 24_metabolite 18
  CDK     0516241031

 87 91  0  0  0  0  0  0  0  0999 V2000
   11.3184    3.7273    0.0000 C   0  0  0  0  0  0  0  0  0  0  0  0
   12.0682    2.4281    0.0000 H   0  0  0  0  0  0  0  0  0  0  0  0
   11.0582    5.2045    0.0000 H   0  0  0  0  0  0  0  0  0  0  0  0
   12.7280    4.2401    0.0000 H   0  0  0  0  0  0  0  0  0  0  0  0
    9.8184    3.7275    0.0000 C   0  0  0  0  0  0  0  0  0  0  0  0
   10.0791    5.2047    0.0000 H   0  0  0  0  0  0  0  0  0  0  0  0
    8.4090    4.2408    0.0000 H   0  0  0  0  0  0  0  0  0  0  0  0
    9.0682    2.4286    0.0000 N   0  0  0  0  0  0  0  0  0  0  0  0
    7.5682    2.4288    0.0000 C   0  0  0  0  0  0  0  0  0  0  0  0
    6.8174    1.1293    0.0000 C   0  0  0  0  0  0  0  0  0  0  0  0
    7.5674   -0.1697    0.0000 H   0  0  0  0  0  0  0  0  0  0  0  0
    5.3165    1.1288    0.0000 C   0  0  0  0  0  0  0  0  0  0  0  0
    4.5665    2.4279    0.0000 C   0  0  0  0  0  0  0  0  0  0  0  0
    3.0665    2.4281    0.0000 H   0  0  0  0  0  0  0  0  0  0  0  0
    5.3174    3.7274    0.0000 C   0  0  0  0  0  0  0  0  0  0  0  0
    6.8182    3.7279    0.0000 C   0  0  0  0  0  0  0  0  0  0  0  0
    7.5680    5.0270    0.0000 C   0  0  0  0  0  0  0  0  0  0  0  0
    9.0680    5.0273    0.0000 H   0  0  0  0  0  0  0  0  0  0  0  0
    6.1584    5.5398    0.0000 H   0  0  0  0  0  0  0  0  0  0  0  0
    7.8282    6.5043    0.0000 H   0  0  0  0  0  0  0  0  0  0  0  0
    4.5674    5.0264    0.0000 C   0  0  0  0  0  0  0  0  0  0  0  0
    5.3174    6.3255    0.0000 O   0  0  0  0  0  0  0  0  0  0  0  0
    3.0674    5.0264    0.0000 N   0  0  0  0  0  0  0  0  0  0  0  0
    2.3174    3.7274    0.0000 H   0  0  0  0  0  0  0  0  0  0  0  0
    2.3174    6.3255    0.0000 C   0  0  0  0  0  0  0  0  0  0  0  0
    2.0569    7.8027    0.0000 H   0  0  0  0  0  0  0  0  0  0  0  0
    3.7269    6.8385    0.0000 H   0  0  0  0  0  0  0  0  0  0  0  0
    0.8174    6.3255    0.0000 C   0  0  0  0  0  0  0  0  0  0  0  0
    0.0667    5.0258    0.0000 C   0  0  0  0  0  0  0  0  0  0  0  0
    0.8170    3.7269    0.0000 C   0  0  0  0  0  0  0  0  0  0  0  0
    0.0672    2.4278    0.0000 H   0  0  0  0  0  0  0  0  0  0  0  0
    1.9659    4.6913    0.0000 H   0  0  0  0  0  0  0  0  0  0  0  0
    1.9662    2.7629    0.0000 H   0  0  0  0  0  0  0  0  0  0  0  0
   -1.4341    5.0251    0.0000 C   0  0  0  0  0  0  0  0  0  0  0  0
   -2.1837    3.7258    0.0000 H   0  0  0  0  0  0  0  0  0  0  0  0
   -2.1843    6.3240    0.0000 C   0  0  0  0  0  0  0  0  0  0  0  0
   -3.6843    6.3240    0.0000 C   0  0  0  0  0  0  0  0  0  0  0  0
   -4.4343    7.6231    0.0000 H   0  0  0  0  0  0  0  0  0  0  0  0
   -3.4238    4.8468    0.0000 H   0  0  0  0  0  0  0  0  0  0  0  0
   -5.0938    5.8110    0.0000 H   0  0  0  0  0  0  0  0  0  0  0  0
   -1.4337    7.6237    0.0000 N   0  0  0  0  0  0  0  0  0  0  0  0
   -2.1839    8.9226    0.0000 H   0  0  0  0  0  0  0  0  0  0  0  0
    0.0672    7.6244    0.0000 C   0  0  0  0  0  0  0  0  0  0  0  0
    0.8167    8.9237    0.0000 O   0  0  0  0  0  0  0  0  0  0  0  0
    4.5667   -0.1703    0.0000 C   0  0  0  0  0  0  0  0  0  0  0  0
    3.1177   -0.1527    0.0000 C   0  0  0  0  0  0  0  0  0  0  0  0
    2.4014    1.1652    0.0000 H   0  0  0  0  0  0  0  0  0  0  0  0
    2.3279   -1.4044    0.0000 C   0  0  0  0  0  0  0  0  0  0  0  0
    0.8280   -1.3843    0.0000 H   0  0  0  0  0  0  0  0  0  0  0  0
    3.0932   -2.6925    0.0000 C   0  0  0  0  0  0  0  0  0  0  0  0
    4.5423   -2.7101    0.0000 C   0  0  0  0  0  0  0  0  0  0  0  0
    5.2586   -4.0280    0.0000 H   0  0  0  0  0  0  0  0  0  0  0  0
    5.3321   -1.4585    0.0000 C   0  0  0  0  0  0  0  0  0  0  0  0
    6.8319   -1.4786    0.0000 H   0  0  0  0  0  0  0  0  0  0  0  0
    2.1035   -4.4074    0.0000 C   0  0  0  0  0  0  0  0  0  0  0  0
    0.9542   -3.4434    0.0000 H   0  0  0  0  0  0  0  0  0  0  0  0
    0.9546   -5.3718    0.0000 H   0  0  0  0  0  0  0  0  0  0  0  0
    3.0937   -6.1220    0.0000 N   0  0  0  0  0  0  0  0  0  0  0  0
    4.5937   -6.1220    0.0000 C   0  0  0  0  0  0  0  0  0  0  0  0
    6.0034   -5.6092    0.0000 H   0  0  0  0  0  0  0  0  0  0  0  0
    4.3334   -4.6447    0.0000 H   0  0  0  0  0  0  0  0  0  0  0  0
    5.3437   -7.4220    0.0000 C   0  0  0  0  0  0  0  0  0  0  0  0
    6.4929   -8.3860    0.0000 H   0  0  0  0  0  0  0  0  0  0  0  0
    6.4929   -6.4579    0.0000 H   0  0  0  0  0  0  0  0  0  0  0  0
    4.5937   -8.7220    0.0000 O   0  0  0  0  0  0  0  0  0  0  0  0
    3.0937   -8.7220    0.0000 C   0  0  0  0  0  0  0  0  0  0  0  0
    1.6841   -9.2347    0.0000 H   0  0  0  0  0  0  0  0  0  0  0  0
    3.3541  -10.1992    0.0000 H   0  0  0  0  0  0  0  0  0  0  0  0
    2.3437   -7.4220    0.0000 C   0  0  0  0  0  0  0  0  0  0  0  0
    1.1946   -6.4579    0.0000 H   0  0  0  0  0  0  0  0  0  0  0  0
    1.1946   -8.3860    0.0000 H   0  0  0  0  0  0  0  0  0  0  0  0
   10.5378   -0.1177    0.0000 C   0  0  0  0  0  0  0  0  0  0  0  0
   11.6874    0.8470    0.0000 C   0  0  0  0  0  0  0  0  0  0  0  0
   12.9178    2.9773    0.0000 H   0  0  0  0  0  0  0  0  0  0  0  0
   10.5384    1.8113    0.0000 H   0  0  0  0  0  0  0  0  0  0  0  0
   13.0969    0.3336    0.0000 C   0  0  0  0  0  0  0  0  0  0  0  0
   14.5969    0.3329    0.0000 H   0  0  0  0  0  0  0  0  0  0  0  0
   13.3579    1.8107    0.0000 H   0  0  0  0  0  0  0  0  0  0  0  0
   13.3566   -1.1446    0.0000 O   0  0  0  0  0  0  0  0  0  0  0  0
   12.2069   -2.1093    0.0000 C   0  0  0  0  0  0  0  0  0  0  0  0
   11.4567   -3.4083    0.0000 H   0  0  0  0  0  0  0  0  0  0  0  0
   13.3560   -3.0736    0.0000 H   0  0  0  0  0  0  0  0  0  0  0  0
   10.7975   -1.5959    0.0000 C   0  0  0  0  0  0  0  0  0  0  0  0
    9.2975   -1.5952    0.0000 H   0  0  0  0  0  0  0  0  0  0  0  0
   10.5365   -3.0730    0.0000 H   0  0  0  0  0  0  0  0  0  0  0  0
    9.1281   -0.6302    0.0000 O   0  0  0  0  0  0  0  0  0  0  0  0
    8.8670   -2.1074    0.0000 H   0  0  0  0  0  0  0  0  0  0  0  0
  1  2  1  0  0  0  0 
  1  3  1  0  0  0  0 
  1  4  1  0  0  0  0 
  1  5  1  0  0  0  0 
  5  6  1  0  0  0  0 
  5  7  1  0  0  0  0 
  5  8  1  0  0  0  0 
  8  9  1  0  0  0  0 
  9 10  2  0  0  0  0 
 10 11  1  0  0  0  0 
 10 12  1  0  0  0  0 
 12 13  2  0  0  0  0 
 13 14  1  0  0  0  0 
 13 15  1  0  0  0  0 
 15 16  2  0  0  0  0 
  9 16  1  0  0  0  0 
 16 17  1  0  0  0  0 
 17 18  1  0  0  0  0 
 17 19  1  0  0  0  0 
 17 20  1  0  0  0  0 
 15 21  1  0  0  0  0 
 21 22  2  0  0  0  0 
 21 23  1  0  0  0  0 
 23 24  1  0  0  0  0 
 23 25  1  0  0  0  0 
 25 26  1  0  0  0  0 
 25 27  1  0  0  0  0 
 25 28  1  0  0  0  0 
 28 29  2  0  0  0  0 
 29 30  1  0  0  0  0 
 30 31  1  0  0  0  0 
 30 32  1  0  0  0  0 
 30 33  1  0  0  0  0 
 29 34  1  0  0  0  0 
 34 35  1  0  0  0  0 
 34 36  2  0  0  0  0 
 36 37  1  0  0  0  0 
 37 38  1  0  0  0  0 
 37 39  1  0  0  0  0 
 37 40  1  0  0  0  0 
 36 41  1  0  0  0  0 
 41 42  1  0  0  0  0 
 41 43  1  0  0  0  0 
 28 43  1  0  0  0  0 
 43 44  2  0  0  0  0 
 12 45  1  0  0  0  0 
 45 46  2  0  0  0  0 
 46 47  1  0  0  0  0 
 46 48  1  0  0  0  0 
 48 49  1  0  0  0  0 
 48 50  2  0  0  0  0 
 50 51  1  0  0  0  0 
 51 52  1  0  0  0  0 
 51 53  2  0  0  0  0 
 45 53  1  0  0  0  0 
 53 54  1  0  0  0  0 
 50 55  1  0  0  0  0 
 55 56  1  0  0  0  0 
 55 57  1  0  0  0  0 
 55 58  1  0  0  0  0 
 58 59  1  0  0  0  0 
 59 60  1  0  0  0  0 
 59 61  1  0  0  0  0 
 59 62  1  0  0  0  0 
 62 63  1  0  0  0  0 
 62 64  1  0  0  0  0 
 62 65  1  0  0  0  0 
 65 66  1  0  0  0  0 
 66 67  1  0  0  0  0 
 66 68  1  0  0  0  0 
 66 69  1  0  0  0  0 
 58 69  1  0  0  0  0 
 69 70  1  0  0  0  0 
 69 71  1  0  0  0  0 
  8 72  1  0  0  0  0 
 72 73  1  0  0  0  0 
 73 74  1  0  0  0  0 
 73 75  1  0  0  0  0 
 73 76  1  0  0  0  0 
 76 77  1  0  0  0  0 
 76 78  1  0  0  0  0 
 76 79  1  0  0  0  0 
 79 80  1  0  0  0  0 
 80 81  1  0  0  0  0 
 80 82  1  0  0  0  0 
 80 83  1  0  0  0  0 
 72 83  1  0  0  0  0 
 83 84  1  0  0  0  0 
 83 85  1  0  0  0  0 
 72 86  1  0  0  0  0 
 86 87  1  0  0  0  0 
M  END
> <Rank>
13

> <Priority_score>
0.252

> <Reaction_type>
aliphatic_hydroxylation_(tert_carbon_next_to_SP2)

> <Parent_ID>
24

> <Parent_InChI>
InChI=1S/C34H44N4O4/c1-5-38(29-10-14-41-15-11-29)32-20-28(27-8-6-26(7-9-27)22-37-12-16-42-17-13-37)19-30(25(32)4)33(39)35-21-31-23(2)18-24(3)36-34(31)40/h6-9,18-20,29H,5,10-17,21-22H2,1-4H3,(H,35,39)(H,36,40)

> <Parent_SMILES>
CCN(c1cc(-c2ccc(CN3CCOCC3)cc2)cc(C(=O)NCc2c(C)cc(C)[nH]c2=O)c1C)C1CCOCC1

$$$$
Molecule 24_metabolite 19
  CDK     0516241031

 87 91  0  0  0  0  0  0  0  0999 V2000
   -0.5481    1.3325    0.0000 C   0  0  0  0  0  0  0  0  0  0  0  0
   -0.5479    2.8325    0.0000 H   0  0  0  0  0  0  0  0  0  0  0  0
   -1.0614   -0.0769    0.0000 H   0  0  0  0  0  0  0  0  0  0  0  0
   -2.0253    1.5932    0.0000 H   0  0  0  0  0  0  0  0  0  0  0  0
    0.7508    0.5823    0.0000 C   0  0  0  0  0  0  0  0  0  0  0  0
   -0.2136   -0.5666    0.0000 H   0  0  0  0  0  0  0  0  0  0  0  0
    1.7148   -0.5669    0.0000 H   0  0  0  0  0  0  0  0  0  0  0  0
    2.0500    1.3321    0.0000 N   0  0  0  0  0  0  0  0  0  0  0  0
    3.9401    3.5840    0.0000 C   0  0  0  0  0  0  0  0  0  0  0  0
    4.9039    2.4346    0.0000 H   0  0  0  0  0  0  0  0  0  0  0  0
    2.6403    4.3343    0.0000 C   0  0  0  0  0  0  0  0  0  0  0  0
    1.1631    4.5950    0.0000 H   0  0  0  0  0  0  0  0  0  0  0  0
    2.1272    2.9248    0.0000 H   0  0  0  0  0  0  0  0  0  0  0  0
    2.6407    5.8343    0.0000 C   0  0  0  0  0  0  0  0  0  0  0  0
    2.1284    7.2441    0.0000 H   0  0  0  0  0  0  0  0  0  0  0  0
    1.1634    5.5744    0.0000 H   0  0  0  0  0  0  0  0  0  0  0  0
    3.9409    6.5840    0.0000 O   0  0  0  0  0  0  0  0  0  0  0  0
    5.2407    5.8336    0.0000 C   0  0  0  0  0  0  0  0  0  0  0  0
    6.7179    5.5729    0.0000 H   0  0  0  0  0  0  0  0  0  0  0  0
    5.7538    7.2431    0.0000 H   0  0  0  0  0  0  0  0  0  0  0  0
    5.2403    4.3336    0.0000 C   0  0  0  0  0  0  0  0  0  0  0  0
    5.7527    2.9238    0.0000 H   0  0  0  0  0  0  0  0  0  0  0  0
    6.7176    4.5936    0.0000 H   0  0  0  0  0  0  0  0  0  0  0  0
    3.9342   -0.2494    0.0000 C   0  0  0  0  0  0  0  0  0  0  0  0
    5.3447    0.2634    0.0000 C   0  0  0  0  0  0  0  0  0  0  0  0
    5.6051    1.7406    0.0000 H   0  0  0  0  0  0  0  0  0  0  0  0
    6.4947   -0.7009    0.0000 C   0  0  0  0  0  0  0  0  0  0  0  0
    6.2342   -2.1781    0.0000 C   0  0  0  0  0  0  0  0  0  0  0  0
    7.3831   -3.1425    0.0000 H   0  0  0  0  0  0  0  0  0  0  0  0
    4.8237   -2.6910    0.0000 C   0  0  0  0  0  0  0  0  0  0  0  0
    3.6737   -1.7267    0.0000 C   0  0  0  0  0  0  0  0  0  0  0  0
    2.2642   -2.2399    0.0000 C   0  0  0  0  0  0  0  0  0  0  0  0
    1.1150   -1.2759    0.0000 H   0  0  0  0  0  0  0  0  0  0  0  0
    3.0145   -3.5388    0.0000 H   0  0  0  0  0  0  0  0  0  0  0  0
    1.1153   -3.2043    0.0000 H   0  0  0  0  0  0  0  0  0  0  0  0
    4.5632   -4.1682    0.0000 C   0  0  0  0  0  0  0  0  0  0  0  0
    3.1537   -4.6813    0.0000 O   0  0  0  0  0  0  0  0  0  0  0  0
    5.7123   -5.1324    0.0000 N   0  0  0  0  0  0  0  0  0  0  0  0
    7.1219   -4.6194    0.0000 H   0  0  0  0  0  0  0  0  0  0  0  0
    5.4518   -6.6096    0.0000 C   0  0  0  0  0  0  0  0  0  0  0  0
    4.7018   -7.9087    0.0000 H   0  0  0  0  0  0  0  0  0  0  0  0
    4.0423   -6.0966    0.0000 H   0  0  0  0  0  0  0  0  0  0  0  0
    6.6009   -7.5738    0.0000 C   0  0  0  0  0  0  0  0  0  0  0  0
    8.0113   -7.0607    0.0000 C   0  0  0  0  0  0  0  0  0  0  0  0
    8.2715   -5.5835    0.0000 C   0  0  0  0  0  0  0  0  0  0  0  0
    9.6810   -5.0702    0.0000 H   0  0  0  0  0  0  0  0  0  0  0  0
    6.7715   -5.5837    0.0000 H   0  0  0  0  0  0  0  0  0  0  0  0
    8.0108   -4.1063    0.0000 H   0  0  0  0  0  0  0  0  0  0  0  0
    9.1615   -8.0249    0.0000 C   0  0  0  0  0  0  0  0  0  0  0  0
   10.5709   -7.5114    0.0000 H   0  0  0  0  0  0  0  0  0  0  0  0
    8.9012   -9.5021    0.0000 C   0  0  0  0  0  0  0  0  0  0  0  0
   10.0503  -10.4663    0.0000 C   0  0  0  0  0  0  0  0  0  0  0  0
    9.7898  -11.9435    0.0000 H   0  0  0  0  0  0  0  0  0  0  0  0
   10.8003   -9.1673    0.0000 H   0  0  0  0  0  0  0  0  0  0  0  0
   11.4598  -10.9793    0.0000 H   0  0  0  0  0  0  0  0  0  0  0  0
    7.4908  -10.0152    0.0000 N   0  0  0  0  0  0  0  0  0  0  0  0
    7.2306  -11.4925    0.0000 H   0  0  0  0  0  0  0  0  0  0  0  0
    6.3407   -9.0510    0.0000 C   0  0  0  0  0  0  0  0  0  0  0  0
    4.9313   -9.5645    0.0000 O   0  0  0  0  0  0  0  0  0  0  0  0
    7.9041   -0.1877    0.0000 C   0  0  0  0  0  0  0  0  0  0  0  0
    9.0028   -1.1326    0.0000 C   0  0  0  0  0  0  0  0  0  0  0  0
    8.7045   -2.6026    0.0000 H   0  0  0  0  0  0  0  0  0  0  0  0
   10.4124   -0.6815    0.0000 C   0  0  0  0  0  0  0  0  0  0  0  0
   11.5485   -1.6609    0.0000 H   0  0  0  0  0  0  0  0  0  0  0  0
   10.6542    0.7973    0.0000 C   0  0  0  0  0  0  0  0  0  0  0  0
    9.5555    1.7422    0.0000 C   0  0  0  0  0  0  0  0  0  0  0  0
    9.8538    3.2122    0.0000 H   0  0  0  0  0  0  0  0  0  0  0  0
    8.1459    1.2910    0.0000 C   0  0  0  0  0  0  0  0  0  0  0  0
    7.0098    2.2705    0.0000 H   0  0  0  0  0  0  0  0  0  0  0  0
   12.5147    1.4747    0.0000 C   0  0  0  0  0  0  0  0  0  0  0  0
   12.7754   -0.0024    0.0000 H   0  0  0  0  0  0  0  0  0  0  0  0
   14.0147    1.4750    0.0000 H   0  0  0  0  0  0  0  0  0  0  0  0
   12.8582    3.4247    0.0000 N   0  0  0  0  0  0  0  0  0  0  0  0
   11.7091    4.3889    0.0000 C   0  0  0  0  0  0  0  0  0  0  0  0
   10.2997    4.9022    0.0000 H   0  0  0  0  0  0  0  0  0  0  0  0
   10.9590    3.0899    0.0000 H   0  0  0  0  0  0  0  0  0  0  0  0
   11.9702    5.8669    0.0000 C   0  0  0  0  0  0  0  0  0  0  0  0
   11.7096    7.3440    0.0000 H   0  0  0  0  0  0  0  0  0  0  0  0
   10.4702    5.8670    0.0000 H   0  0  0  0  0  0  0  0  0  0  0  0
   13.3803    6.3806    0.0000 O   0  0  0  0  0  0  0  0  0  0  0  0
   14.5294    5.4164    0.0000 C   0  0  0  0  0  0  0  0  0  0  0  0
   15.9388    4.9031    0.0000 H   0  0  0  0  0  0  0  0  0  0  0  0
   15.2796    6.7154    0.0000 H   0  0  0  0  0  0  0  0  0  0  0  0
   14.2683    3.9385    0.0000 C   0  0  0  0  0  0  0  0  0  0  0  0
   14.5290    2.4613    0.0000 H   0  0  0  0  0  0  0  0  0  0  0  0
   15.7683    3.9383    0.0000 H   0  0  0  0  0  0  0  0  0  0  0  0
    1.0860    2.4813    0.0000 O   0  0  0  0  0  0  0  0  0  0  0  0
  1  2  1  0  0  0  0 
  1  3  1  0  0  0  0 
  1  4  1  0  0  0  0 
  1  5  1  0  0  0  0 
  5  6  1  0  0  0  0 
  5  7  1  0  0  0  0 
  5  8  1  0  0  0  0 
  8  9  1  0  0  0  0 
  9 10  1  0  0  0  0 
  9 11  1  0  0  0  0 
 11 12  1  0  0  0  0 
 11 13  1  0  0  0  0 
 11 14  1  0  0  0  0 
 14 15  1  0  0  0  0 
 14 16  1  0  0  0  0 
 14 17  1  0  0  0  0 
 17 18  1  0  0  0  0 
 18 19  1  0  0  0  0 
 18 20  1  0  0  0  0 
 18 21  1  0  0  0  0 
  9 21  1  0  0  0  0 
 21 22  1  0  0  0  0 
 21 23  1  0  0  0  0 
  8 24  1  0  0  0  0 
 24 25  2  0  0  0  0 
 25 26  1  0  0  0  0 
 25 27  1  0  0  0  0 
 27 28  2  0  0  0  0 
 28 29  1  0  0  0  0 
 28 30  1  0  0  0  0 
 30 31  2  0  0  0  0 
 24 31  1  0  0  0  0 
 31 32  1  0  0  0  0 
 32 33  1  0  0  0  0 
 32 34  1  0  0  0  0 
 32 35  1  0  0  0  0 
 30 36  1  0  0  0  0 
 36 37  2  0  0  0  0 
 36 38  1  0  0  0  0 
 38 39  1  0  0  0  0 
 38 40  1  0  0  0  0 
 40 41  1  0  0  0  0 
 40 42  1  0  0  0  0 
 40 43  1  0  0  0  0 
 43 44  2  0  0  0  0 
 44 45  1  0  0  0  0 
 45 46  1  0  0  0  0 
 45 47  1  0  0  0  0 
 45 48  1  0  0  0  0 
 44 49  1  0  0  0  0 
 49 50  1  0  0  0  0 
 49 51  2  0  0  0  0 
 51 52  1  0  0  0  0 
 52 53  1  0  0  0  0 
 52 54  1  0  0  0  0 
 52 55  1  0  0  0  0 
 51 56  1  0  0  0  0 
 56 57  1  0  0  0  0 
 56 58  1  0  0  0  0 
 43 58  1  0  0  0  0 
 58 59  2  0  0  0  0 
 27 60  1  0  0  0  0 
 60 61  2  0  0  0  0 
 61 62  1  0  0  0  0 
 61 63  1  0  0  0  0 
 63 64  1  0  0  0  0 
 63 65  2  0  0  0  0 
 65 66  1  0  0  0  0 
 66 67  1  0  0  0  0 
 66 68  2  0  0  0  0 
 60 68  1  0  0  0  0 
 68 69  1  0  0  0  0 
 65 70  1  0  0  0  0 
 70 71  1  0  0  0  0 
 70 72  1  0  0  0  0 
 70 73  1  0  0  0  0 
 73 74  1  0  0  0  0 
 74 75  1  0  0  0  0 
 74 76  1  0  0  0  0 
 74 77  1  0  0  0  0 
 77 78  1  0  0  0  0 
 77 79  1  0  0  0  0 
 77 80  1  0  0  0  0 
 80 81  1  0  0  0  0 
 81 82  1  0  0  0  0 
 81 83  1  0  0  0  0 
 81 84  1  0  0  0  0 
 73 84  1  0  0  0  0 
 84 85  1  0  0  0  0 
 84 86  1  0  0  0  0 
  8 87  1  0  0  0  0 
M  CHG  1   8   1
M  CHG  1  87  -1
M  END
> <Rank>
13

> <Priority_score>
0.252

> <Reaction_type>
N-oxidation

> <Parent_ID>
24

> <Parent_InChI>
InChI=1S/C34H44N4O4/c1-5-38(29-10-14-41-15-11-29)32-20-28(27-8-6-26(7-9-27)22-37-12-16-42-17-13-37)19-30(25(32)4)33(39)35-21-31-23(2)18-24(3)36-34(31)40/h6-9,18-20,29H,5,10-17,21-22H2,1-4H3,(H,35,39)(H,36,40)

> <Parent_SMILES>
CCN(c1cc(-c2ccc(CN3CCOCC3)cc2)cc(C(=O)NCc2c(C)cc(C)[nH]c2=O)c1C)C1CCOCC1

$$$$
Molecule 24_metabolite 20
  CDK     0516241031

 15 15  0  0  0  0  0  0  0  0999 V2000
   -1.3000    0.0904    0.0000 C   0  0  0  0  0  0  0  0  0  0  0  0
   -2.7772    0.3507    0.0000 H   0  0  0  0  0  0  0  0  0  0  0  0
   -1.8127   -1.3193    0.0000 H   0  0  0  0  0  0  0  0  0  0  0  0
   -1.3000    1.5904    0.0000 C   0  0  0  0  0  0  0  0  0  0  0  0
   -1.8127    3.0000    0.0000 H   0  0  0  0  0  0  0  0  0  0  0  0
   -2.7772    1.3300    0.0000 H   0  0  0  0  0  0  0  0  0  0  0  0
    0.0000    2.3404    0.0000 O   0  0  0  0  0  0  0  0  0  0  0  0
    1.3000    1.5904    0.0000 C   0  0  0  0  0  0  0  0  0  0  0  0
    2.7772    1.3300    0.0000 H   0  0  0  0  0  0  0  0  0  0  0  0
    1.8127    3.0000    0.0000 H   0  0  0  0  0  0  0  0  0  0  0  0
    1.3000    0.0904    0.0000 C   0  0  0  0  0  0  0  0  0  0  0  0
    1.8127   -1.3193    0.0000 H   0  0  0  0  0  0  0  0  0  0  0  0
    2.7772    0.3507    0.0000 H   0  0  0  0  0  0  0  0  0  0  0  0
   -0.0000   -0.6596    0.0000 C   0  0  0  0  0  0  0  0  0  0  0  0
   -0.0000   -2.1596    0.0000 O   0  0  0  0  0  0  0  0  0  0  0  0
  1  2  1  0  0  0  0 
  1  3  1  0  0  0  0 
  1  4  1  0  0  0  0 
  4  5  1  0  0  0  0 
  4  6  1  0  0  0  0 
  4  7  1  0  0  0  0 
  7  8  1  0  0  0  0 
  8  9  1  0  0  0  0 
  8 10  1  0  0  0  0 
  8 11  1  0  0  0  0 
 11 12  1  0  0  0  0 
 11 13  1  0  0  0  0 
 11 14  1  0  0  0  0 
  1 14  1  0  0  0  0 
 14 15  2  0  0  0  0 
M  END
> <Rank>
13

> <Priority_score>
0.252

> <Reaction_type>
N-dealkylation

> <Parent_ID>
24

> <Parent_InChI>
InChI=1S/C34H44N4O4/c1-5-38(29-10-14-41-15-11-29)32-20-28(27-8-6-26(7-9-27)22-37-12-16-42-17-13-37)19-30(25(32)4)33(39)35-21-31-23(2)18-24(3)36-34(31)40/h6-9,18-20,29H,5,10-17,21-22H2,1-4H3,(H,35,39)(H,36,40)

> <Parent_SMILES>
CCN(c1cc(-c2ccc(CN3CCOCC3)cc2)cc(C(=O)NCc2c(C)cc(C)[nH]c2=O)c1C)C1CCOCC1

$$$$
Molecule 24_metabolite 21
  CDK     0516241031

  7  6  0  0  0  0  0  0  0  0999 V2000
    2.7500   -0.4868    0.0000 C   0  0  0  0  0  0  0  0  0  0  0  0
    2.7500   -1.9868    0.0000 H   0  0  0  0  0  0  0  0  0  0  0  0
    4.2272   -0.7473    0.0000 H   0  0  0  0  0  0  0  0  0  0  0  0
    3.2631    0.9227    0.0000 H   0  0  0  0  0  0  0  0  0  0  0  0
    1.4510    0.2632    0.0000 C   0  0  0  0  0  0  0  0  0  0  0  0
    1.4510    1.7632    0.0000 H   0  0  0  0  0  0  0  0  0  0  0  0
    0.1520   -0.4868    0.0000 O   0  0  0  0  0  0  0  0  0  0  0  0
  1  2  1  0  0  0  0 
  1  3  1  0  0  0  0 
  1  4  1  0  0  0  0 
  1  5  1  0  0  0  0 
  5  6  1  0  0  0  0 
  5  7  2  0  0  0  0 
M  END
> <Rank>
13

> <Priority_score>
0.252

> <Reaction_type>
N-dealkylation

> <Parent_ID>
24

> <Parent_InChI>
InChI=1S/C34H44N4O4/c1-5-38(29-10-14-41-15-11-29)32-20-28(27-8-6-26(7-9-27)22-37-12-16-42-17-13-37)19-30(25(32)4)33(39)35-21-31-23(2)18-24(3)36-34(31)40/h6-9,18-20,29H,5,10-17,21-22H2,1-4H3,(H,35,39)(H,36,40)

> <Parent_SMILES>
CCN(c1cc(-c2ccc(CN3CCOCC3)cc2)cc(C(=O)NCc2c(C)cc(C)[nH]c2=O)c1C)C1CCOCC1

$$$$
Molecule 24_metabolite 22
  CDK     0516241031

 87 91  0  0  0  0  0  0  0  0999 V2000
   15.0304   -4.9667    0.0000 C   0  0  0  0  0  0  0  0  0  0  0  0
   13.7319   -4.2156    0.0000 H   0  0  0  0  0  0  0  0  0  0  0  0
   15.9936   -6.1165    0.0000 H   0  0  0  0  0  0  0  0  0  0  0  0
   14.0653   -6.1150    0.0000 H   0  0  0  0  0  0  0  0  0  0  0  0
   16.3300   -4.2177    0.0000 C   0  0  0  0  0  0  0  0  0  0  0  0
   16.8419   -5.6277    0.0000 H   0  0  0  0  0  0  0  0  0  0  0  0
   17.8074   -3.9584    0.0000 H   0  0  0  0  0  0  0  0  0  0  0  0
   16.3312   -2.7177    0.0000 N   0  0  0  0  0  0  0  0  0  0  0  0
   13.7863   -1.2457    0.0000 C   0  0  0  0  0  0  0  0  0  0  0  0
   14.7516   -0.0976    0.0000 H   0  0  0  0  0  0  0  0  0  0  0  0
   13.2721   -2.6557    0.0000 C   0  0  0  0  0  0  0  0  0  0  0  0
   13.2702   -5.1157    0.0000 H   0  0  0  0  0  0  0  0  0  0  0  0
   14.7492   -2.9172    0.0000 H   0  0  0  0  0  0  0  0  0  0  0  0
   11.7947   -2.9148    0.0000 C   0  0  0  0  0  0  0  0  0  0  0  0
   10.4948   -3.6634    0.0000 H   0  0  0  0  0  0  0  0  0  0  0  0
   12.3063   -4.3249    0.0000 H   0  0  0  0  0  0  0  0  0  0  0  0
   10.8314   -1.7640    0.0000 O   0  0  0  0  0  0  0  0  0  0  0  0
   11.3455   -0.3539    0.0000 C   0  0  0  0  0  0  0  0  0  0  0  0
   11.3467    1.1461    0.0000 H   0  0  0  0  0  0  0  0  0  0  0  0
    9.8685   -0.0924    0.0000 H   0  0  0  0  0  0  0  0  0  0  0  0
   12.8230   -0.0948    0.0000 C   0  0  0  0  0  0  0  0  0  0  0  0
   14.1228    0.6537    0.0000 H   0  0  0  0  0  0  0  0  0  0  0  0
   12.3114    1.3153    0.0000 H   0  0  0  0  0  0  0  0  0  0  0  0
   17.6308   -1.9688    0.0000 C   0  0  0  0  0  0  0  0  0  0  0  0
   17.6323   -0.4679    0.0000 C   0  0  0  0  0  0  0  0  0  0  0  0
   16.3337    0.2829    0.0000 H   0  0  0  0  0  0  0  0  0  0  0  0
   18.9323    0.2821    0.0000 C   0  0  0  0  0  0  0  0  0  0  0  0
   20.2308   -0.4688    0.0000 C   0  0  0  0  0  0  0  0  0  0  0  0
   21.5305    0.2802    0.0000 H   0  0  0  0  0  0  0  0  0  0  0  0
   20.2294   -1.9696    0.0000 C   0  0  0  0  0  0  0  0  0  0  0  0
   18.9294   -2.7196    0.0000 C   0  0  0  0  0  0  0  0  0  0  0  0
   18.9287   -4.2196    0.0000 C   0  0  0  0  0  0  0  0  0  0  0  0
   17.6293   -4.9690    0.0000 H   0  0  0  0  0  0  0  0  0  0  0  0
   20.4060   -3.9598    0.0000 H   0  0  0  0  0  0  0  0  0  0  0  0
   19.4410   -5.6294    0.0000 H   0  0  0  0  0  0  0  0  0  0  0  0
   21.5280   -2.7204    0.0000 C   0  0  0  0  0  0  0  0  0  0  0  0
   22.8275   -1.9713    0.0000 O   0  0  0  0  0  0  0  0  0  0  0  0
   21.5270   -4.2204    0.0000 N   0  0  0  0  0  0  0  0  0  0  0  0
   23.2411   -5.2115    0.0000 C   0  0  0  0  0  0  0  0  0  0  0  0
   24.2045   -6.3612    0.0000 H   0  0  0  0  0  0  0  0  0  0  0  0
   22.2762   -6.3600    0.0000 H   0  0  0  0  0  0  0  0  0  0  0  0
   24.9565   -4.2226    0.0000 C   0  0  0  0  0  0  0  0  0  0  0  0
   26.2559   -4.9737    0.0000 C   0  0  0  0  0  0  0  0  0  0  0  0
   26.2547   -6.4737    0.0000 C   0  0  0  0  0  0  0  0  0  0  0  0
   24.9550   -7.2226    0.0000 H   0  0  0  0  0  0  0  0  0  0  0  0
   27.7321   -6.2144    0.0000 H   0  0  0  0  0  0  0  0  0  0  0  0
   26.7666   -7.8836    0.0000 H   0  0  0  0  0  0  0  0  0  0  0  0
   27.5565   -4.2247    0.0000 C   0  0  0  0  0  0  0  0  0  0  0  0
   28.8548   -4.9760    0.0000 H   0  0  0  0  0  0  0  0  0  0  0  0
   27.5577   -2.7247    0.0000 C   0  0  0  0  0  0  0  0  0  0  0  0
   28.8572   -1.9755    0.0000 C   0  0  0  0  0  0  0  0  0  0  0  0
   28.8581   -0.4756    0.0000 H   0  0  0  0  0  0  0  0  0  0  0  0
   29.3693   -3.3854    0.0000 H   0  0  0  0  0  0  0  0  0  0  0  0
   30.3346   -1.7160    0.0000 H   0  0  0  0  0  0  0  0  0  0  0  0
   26.2583   -1.9737    0.0000 N   0  0  0  0  0  0  0  0  0  0  0  0
   26.2595   -0.4737    0.0000 H   0  0  0  0  0  0  0  0  0  0  0  0
   24.9577   -2.7226    0.0000 C   0  0  0  0  0  0  0  0  0  0  0  0
   23.6593   -1.9714    0.0000 O   0  0  0  0  0  0  0  0  0  0  0  0
   20.2275   -4.9696    0.0000 O   0  0  0  0  0  0  0  0  0  0  0  0
   20.2265   -6.4696    0.0000 H   0  0  0  0  0  0  0  0  0  0  0  0
   18.9330    1.7821    0.0000 C   0  0  0  0  0  0  0  0  0  0  0  0
   20.1972    2.4905    0.0000 C   0  0  0  0  0  0  0  0  0  0  0  0
   21.4760    1.7065    0.0000 H   0  0  0  0  0  0  0  0  0  0  0  0
   20.2563    3.9694    0.0000 C   0  0  0  0  0  0  0  0  0  0  0  0
   21.5657    4.7010    0.0000 H   0  0  0  0  0  0  0  0  0  0  0  0
   18.9499    4.7031    0.0000 C   0  0  0  0  0  0  0  0  0  0  0  0
   17.6857    3.9947    0.0000 C   0  0  0  0  0  0  0  0  0  0  0  0
   16.4069    4.7786    0.0000 H   0  0  0  0  0  0  0  0  0  0  0  0
   17.6266    2.5158    0.0000 C   0  0  0  0  0  0  0  0  0  0  0  0
   16.3172    1.7841    0.0000 H   0  0  0  0  0  0  0  0  0  0  0  0
   18.9509    6.6831    0.0000 C   0  0  0  0  0  0  0  0  0  0  0  0
   20.4280    6.4219    0.0000 H   0  0  0  0  0  0  0  0  0  0  0  0
   19.4646    8.0924    0.0000 H   0  0  0  0  0  0  0  0  0  0  0  0
   17.2366    7.6739    0.0000 N   0  0  0  0  0  0  0  0  0  0  0  0
   15.9371    6.9248    0.0000 C   0  0  0  0  0  0  0  0  0  0  0  0
   14.9719    5.7765    0.0000 H   0  0  0  0  0  0  0  0  0  0  0  0
   16.9004    5.7750    0.0000 H   0  0  0  0  0  0  0  0  0  0  0  0
   14.6381    7.6764    0.0000 C   0  0  0  0  0  0  0  0  0  0  0  0
   13.1610    7.9377    0.0000 H   0  0  0  0  0  0  0  0  0  0  0  0
   14.1240    6.2673    0.0000 H   0  0  0  0  0  0  0  0  0  0  0  0
   14.6385    9.1773    0.0000 O   0  0  0  0  0  0  0  0  0  0  0  0
   15.9381    9.9264    0.0000 C   0  0  0  0  0  0  0  0  0  0  0  0
   16.9032   11.0747    0.0000 H   0  0  0  0  0  0  0  0  0  0  0  0
   14.9747   11.0762    0.0000 H   0  0  0  0  0  0  0  0  0  0  0  0
   17.2371    9.1748    0.0000 C   0  0  0  0  0  0  0  0  0  0  0  0
   18.7142    8.9135    0.0000 H   0  0  0  0  0  0  0  0  0  0  0  0
   17.7512   10.5839    0.0000 H   0  0  0  0  0  0  0  0  0  0  0  0
  1  2  1  0  0  0  0 
  1  3  1  0  0  0  0 
  1  4  1  0  0  0  0 
  1  5  1  0  0  0  0 
  5  6  1  0  0  0  0 
  5  7  1  0  0  0  0 
  5  8  1  0  0  0  0 
  8  9  1  0  0  0  0 
  9 10  1  0  0  0  0 
  9 11  1  0  0  0  0 
 11 12  1  0  0  0  0 
 11 13  1  0  0  0  0 
 11 14  1  0  0  0  0 
 14 15  1  0  0  0  0 
 14 16  1  0  0  0  0 
 14 17  1  0  0  0  0 
 17 18  1  0  0  0  0 
 18 19  1  0  0  0  0 
 18 20  1  0  0  0  0 
 18 21  1  0  0  0  0 
  9 21  1  0  0  0  0 
 21 22  1  0  0  0  0 
 21 23  1  0  0  0  0 
  8 24  1  0  0  0  0 
 24 25  2  0  0  0  0 
 25 26  1  0  0  0  0 
 25 27  1  0  0  0  0 
 27 28  2  0  0  0  0 
 28 29  1  0  0  0  0 
 28 30  1  0  0  0  0 
 30 31  2  0  0  0  0 
 24 31  1  0  0  0  0 
 31 32  1  0  0  0  0 
 32 33  1  0  0  0  0 
 32 34  1  0  0  0  0 
 32 35  1  0  0  0  0 
 30 36  1  0  0  0  0 
 36 37  2  0  0  0  0 
 36 38  1  0  0  0  0 
 38 39  1  0  0  0  0 
 39 40  1  0  0  0  0 
 39 41  1  0  0  0  0 
 39 42  1  0  0  0  0 
 42 43  2  0  0  0  0 
 43 44  1  0  0  0  0 
 44 45  1  0  0  0  0 
 44 46  1  0  0  0  0 
 44 47  1  0  0  0  0 
 43 48  1  0  0  0  0 
 48 49  1  0  0  0  0 
 48 50  2  0  0  0  0 
 50 51  1  0  0  0  0 
 51 52  1  0  0  0  0 
 51 53  1  0  0  0  0 
 51 54  1  0  0  0  0 
 50 55  1  0  0  0  0 
 55 56  1  0  0  0  0 
 55 57  1  0  0  0  0 
 42 57  1  0  0  0  0 
 57 58  2  0  0  0  0 
 38 59  1  0  0  0  0 
 59 60  1  0  0  0  0 
 27 61  1  0  0  0  0 
 61 62  2  0  0  0  0 
 62 63  1  0  0  0  0 
 62 64  1  0  0  0  0 
 64 65  1  0  0  0  0 
 64 66  2  0  0  0  0 
 66 67  1  0  0  0  0 
 67 68  1  0  0  0  0 
 67 69  2  0  0  0  0 
 61 69  1  0  0  0  0 
 69 70  1  0  0  0  0 
 66 71  1  0  0  0  0 
 71 72  1  0  0  0  0 
 71 73  1  0  0  0  0 
 71 74  1  0  0  0  0 
 74 75  1  0  0  0  0 
 75 76  1  0  0  0  0 
 75 77  1  0  0  0  0 
 75 78  1  0  0  0  0 
 78 79  1  0  0  0  0 
 78 80  1  0  0  0  0 
 78 81  1  0  0  0  0 
 81 82  1  0  0  0  0 
 82 83  1  0  0  0  0 
 82 84  1  0  0  0  0 
 82 85  1  0  0  0  0 
 74 85  1  0  0  0  0 
 85 86  1  0  0  0  0 
 85 87  1  0  0  0  0 
M  END
> <Rank>
22

> <Priority_score>
0.2

> <Reaction_type>
amine hydroxylation

> <Parent_ID>
24

> <Parent_InChI>
InChI=1S/C34H44N4O4/c1-5-38(29-10-14-41-15-11-29)32-20-28(27-8-6-26(7-9-27)22-37-12-16-42-17-13-37)19-30(25(32)4)33(39)35-21-31-23(2)18-24(3)36-34(31)40/h6-9,18-20,29H,5,10-17,21-22H2,1-4H3,(H,35,39)(H,36,40)

> <Parent_SMILES>
CCN(c1cc(-c2ccc(CN3CCOCC3)cc2)cc(C(=O)NCc2c(C)cc(C)[nH]c2=O)c1C)C1CCOCC1

$$$$
Molecule 24_metabolite 23
  CDK     0516241031

 22 22  0  0  0  0  0  0  0  0999 V2000
    0.0000    3.0000    0.0000 C   0  0  0  0  0  0  0  0  0  0  0  0
   -1.2990    3.7500    0.0000 H   0  0  0  0  0  0  0  0  0  0  0  0
    1.4772    2.7395    0.0000 H   0  0  0  0  0  0  0  0  0  0  0  0
    0.5130    4.4095    0.0000 H   0  0  0  0  0  0  0  0  0  0  0  0
   -0.0000    1.5000    0.0000 C   0  0  0  0  0  0  0  0  0  0  0  0
   -1.3000    0.7500    0.0000 C   0  0  0  0  0  0  0  0  0  0  0  0
   -2.5989    1.5002    0.0000 C   0  0  0  0  0  0  0  0  0  0  0  0
   -1.6346    2.6491    0.0000 H   0  0  0  0  0  0  0  0  0  0  0  0
   -3.5629    2.6494    0.0000 H   0  0  0  0  0  0  0  0  0  0  0  0
   -3.8981    0.7504    0.0000 O   0  0  0  0  0  0  0  0  0  0  0  0
   -5.1970    1.5006    0.0000 H   0  0  0  0  0  0  0  0  0  0  0  0
   -1.3000   -0.7500    0.0000 C   0  0  0  0  0  0  0  0  0  0  0  0
   -2.5989   -1.5002    0.0000 O   0  0  0  0  0  0  0  0  0  0  0  0
   -0.0000   -1.5000    0.0000 N   0  0  0  0  0  0  0  0  0  0  0  0
   -0.0000   -3.0000    0.0000 H   0  0  0  0  0  0  0  0  0  0  0  0
    1.3000   -0.7500    0.0000 C   0  0  0  0  0  0  0  0  0  0  0  0
    1.3000    0.7500    0.0000 C   0  0  0  0  0  0  0  0  0  0  0  0
    2.5989    1.5002    0.0000 H   0  0  0  0  0  0  0  0  0  0  0  0
    2.5989   -1.5002    0.0000 C   0  0  0  0  0  0  0  0  0  0  0  0
    2.5987   -3.0002    0.0000 H   0  0  0  0  0  0  0  0  0  0  0  0
    4.0761   -1.7609    0.0000 H   0  0  0  0  0  0  0  0  0  0  0  0
    3.1122   -0.0908    0.0000 H   0  0  0  0  0  0  0  0  0  0  0  0
  1  2  1  0  0  0  0 
  1  3  1  0  0  0  0 
  1  4  1  0  0  0  0 
  1  5  1  0  0  0  0 
  5  6  2  0  0  0  0 
  6  7  1  0  0  0  0 
  7  8  1  0  0  0  0 
  7  9  1  0  0  0  0 
  7 10  1  0  0  0  0 
 10 11  1  0  0  0  0 
  6 12  1  0  0  0  0 
 12 13  2  0  0  0  0 
 12 14  1  0  0  0  0 
 14 15  1  0  0  0  0 
 14 16  1  0  0  0  0 
 16 17  2  0  0  0  0 
  5 17  1  0  0  0  0 
 17 18  1  0  0  0  0 
 16 19  1  0  0  0  0 
 19 20  1  0  0  0  0 
 19 21  1  0  0  0  0 
 19 22  1  0  0  0  0 
M  END
> <Rank>
22

> <Priority_score>
0.2

> <Reaction_type>
N-dealkylation_(R-NHCH2-alkyl)

> <Parent_ID>
24

> <Parent_InChI>
InChI=1S/C34H44N4O4/c1-5-38(29-10-14-41-15-11-29)32-20-28(27-8-6-26(7-9-27)22-37-12-16-42-17-13-37)19-30(25(32)4)33(39)35-21-31-23(2)18-24(3)36-34(31)40/h6-9,18-20,29H,5,10-17,21-22H2,1-4H3,(H,35,39)(H,36,40)

> <Parent_SMILES>
CCN(c1cc(-c2ccc(CN3CCOCC3)cc2)cc(C(=O)NCc2c(C)cc(C)[nH]c2=O)c1C)C1CCOCC1

$$$$
Molecule 24_metabolite 24
  CDK     0516241031

 23 23  0  0  0  0  0  0  0  0999 V2000
    0.0000    3.0000    0.0000 C   0  0  0  0  0  0  0  0  0  0  0  0
   -1.2990    3.7500    0.0000 H   0  0  0  0  0  0  0  0  0  0  0  0
    1.4772    2.7395    0.0000 H   0  0  0  0  0  0  0  0  0  0  0  0
    0.5130    4.4095    0.0000 H   0  0  0  0  0  0  0  0  0  0  0  0
   -0.0000    1.5000    0.0000 C   0  0  0  0  0  0  0  0  0  0  0  0
   -1.3000    0.7500    0.0000 C   0  0  0  0  0  0  0  0  0  0  0  0
   -2.5989    1.5002    0.0000 C   0  0  0  0  0  0  0  0  0  0  0  0
   -1.6346    2.6491    0.0000 H   0  0  0  0  0  0  0  0  0  0  0  0
   -3.5629    2.6494    0.0000 H   0  0  0  0  0  0  0  0  0  0  0  0
   -3.8981    0.7504    0.0000 N   0  0  0  0  0  0  0  0  0  0  0  0
   -5.1970    1.5006    0.0000 H   0  0  0  0  0  0  0  0  0  0  0  0
   -3.8983   -0.7496    0.0000 H   0  0  0  0  0  0  0  0  0  0  0  0
   -1.3000   -0.7500    0.0000 C   0  0  0  0  0  0  0  0  0  0  0  0
   -2.5989   -1.5002    0.0000 O   0  0  0  0  0  0  0  0  0  0  0  0
   -0.0000   -1.5000    0.0000 N   0  0  0  0  0  0  0  0  0  0  0  0
   -0.0000   -3.0000    0.0000 H   0  0  0  0  0  0  0  0  0  0  0  0
    1.3000   -0.7500    0.0000 C   0  0  0  0  0  0  0  0  0  0  0  0
    1.3000    0.7500    0.0000 C   0  0  0  0  0  0  0  0  0  0  0  0
    2.5989    1.5002    0.0000 H   0  0  0  0  0  0  0  0  0  0  0  0
    2.5989   -1.5002    0.0000 C   0  0  0  0  0  0  0  0  0  0  0  0
    2.5987   -3.0002    0.0000 H   0  0  0  0  0  0  0  0  0  0  0  0
    4.0761   -1.7609    0.0000 H   0  0  0  0  0  0  0  0  0  0  0  0
    3.1122   -0.0908    0.0000 H   0  0  0  0  0  0  0  0  0  0  0  0
  1  2  1  0  0  0  0 
  1  3  1  0  0  0  0 
  1  4  1  0  0  0  0 
  1  5  1  0  0  0  0 
  5  6  2  0  0  0  0 
  6  7  1  0  0  0  0 
  7  8  1  0  0  0  0 
  7  9  1  0  0  0  0 
  7 10  1  0  0  0  0 
 10 11  1  0  0  0  0 
 10 12  1  0  0  0  0 
  6 13  1  0  0  0  0 
 13 14  2  0  0  0  0 
 13 15  1  0  0  0  0 
 15 16  1  0  0  0  0 
 15 17  1  0  0  0  0 
 17 18  2  0  0  0  0 
  5 18  1  0  0  0  0 
 18 19  1  0  0  0  0 
 17 20  1  0  0  0  0 
 20 21  1  0  0  0  0 
 20 22  1  0  0  0  0 
 20 23  1  0  0  0  0 
M  END
> <Rank>
22

> <Priority_score>
0.2

> <Reaction_type>
hydrolysis_(secondary_amide)

> <Parent_ID>
24

> <Parent_InChI>
InChI=1S/C34H44N4O4/c1-5-38(29-10-14-41-15-11-29)32-20-28(27-8-6-26(7-9-27)22-37-12-16-42-17-13-37)19-30(25(32)4)33(39)35-21-31-23(2)18-24(3)36-34(31)40/h6-9,18-20,29H,5,10-17,21-22H2,1-4H3,(H,35,39)(H,36,40)

> <Parent_SMILES>
CCN(c1cc(-c2ccc(CN3CCOCC3)cc2)cc(C(=O)NCc2c(C)cc(C)[nH]c2=O)c1C)C1CCOCC1

$$$$
Molecule 24_metabolite 25
  CDK     0516241031

 67 70  0  0  0  0  0  0  0  0999 V2000
   -1.8325   -3.2246    0.0000 C   0  0  0  0  0  0  0  0  0  0  0  0
   -1.3187   -4.6338    0.0000 H   0  0  0  0  0  0  0  0  0  0  0  0
   -2.7972   -2.0760    0.0000 H   0  0  0  0  0  0  0  0  0  0  0  0
   -3.1311   -3.9752    0.0000 H   0  0  0  0  0  0  0  0  0  0  0  0
   -0.8688   -2.0750    0.0000 C   0  0  0  0  0  0  0  0  0  0  0  0
   -2.1682   -1.3257    0.0000 H   0  0  0  0  0  0  0  0  0  0  0  0
   -0.3565   -0.6652    0.0000 H   0  0  0  0  0  0  0  0  0  0  0  0
    0.6085   -2.3348    0.0000 N   0  0  0  0  0  0  0  0  0  0  0  0
    1.6154   -5.0970    0.0000 C   0  0  0  0  0  0  0  0  0  0  0  0
    2.7638   -4.1320    0.0000 H   0  0  0  0  0  0  0  0  0  0  0  0
    0.2052   -5.6107    0.0000 C   0  0  0  0  0  0  0  0  0  0  0  0
   -1.7748   -5.6116    0.0000 H   0  0  0  0  0  0  0  0  0  0  0  0
   -0.0558   -4.1336    0.0000 H   0  0  0  0  0  0  0  0  0  0  0  0
   -0.0544   -7.0881    0.0000 C   0  0  0  0  0  0  0  0  0  0  0  0
   -0.8034   -8.3877    0.0000 H   0  0  0  0  0  0  0  0  0  0  0  0
   -1.4643   -6.5760    0.0000 H   0  0  0  0  0  0  0  0  0  0  0  0
    1.0962   -8.0517    0.0000 O   0  0  0  0  0  0  0  0  0  0  0  0
    2.5064   -7.5380    0.0000 C   0  0  0  0  0  0  0  0  0  0  0  0
    4.0064   -7.5373    0.0000 H   0  0  0  0  0  0  0  0  0  0  0  0
    2.7674   -9.0152    0.0000 H   0  0  0  0  0  0  0  0  0  0  0  0
    2.7660   -6.0607    0.0000 C   0  0  0  0  0  0  0  0  0  0  0  0
    3.5149   -4.7610    0.0000 H   0  0  0  0  0  0  0  0  0  0  0  0
    4.1759   -6.5727    0.0000 H   0  0  0  0  0  0  0  0  0  0  0  0
    1.5721   -1.1853    0.0000 C   0  0  0  0  0  0  0  0  0  0  0  0
    3.0503   -1.4449    0.0000 C   0  0  0  0  0  0  0  0  0  0  0  0
    3.5638   -2.8543    0.0000 H   0  0  0  0  0  0  0  0  0  0  0  0
    4.0151   -0.2952    0.0000 C   0  0  0  0  0  0  0  0  0  0  0  0
    3.5016    1.1142    0.0000 C   0  0  0  0  0  0  0  0  0  0  0  0
    4.4652    2.2637    0.0000 H   0  0  0  0  0  0  0  0  0  0  0  0
    2.0234    1.3738    0.0000 C   0  0  0  0  0  0  0  0  0  0  0  0
    1.0587    0.2241    0.0000 C   0  0  0  0  0  0  0  0  0  0  0  0
   -0.4186    0.4844    0.0000 C   0  0  0  0  0  0  0  0  0  0  0  0
   -1.3826   -0.6649    0.0000 H   0  0  0  0  0  0  0  0  0  0  0  0
    0.0942    1.8940    0.0000 H   0  0  0  0  0  0  0  0  0  0  0  0
   -1.7178    1.2341    0.0000 H   0  0  0  0  0  0  0  0  0  0  0  0
    1.5099    2.7832    0.0000 C   0  0  0  0  0  0  0  0  0  0  0  0
    0.0326    3.0432    0.0000 O   0  0  0  0  0  0  0  0  0  0  0  0
    2.4737    3.9326    0.0000 N   0  0  0  0  0  0  0  0  0  0  0  0
    1.9602    5.3419    0.0000 H   0  0  0  0  0  0  0  0  0  0  0  0
    3.9510    3.6726    0.0000 H   0  0  0  0  0  0  0  0  0  0  0  0
    5.4923   -0.5555    0.0000 C   0  0  0  0  0  0  0  0  0  0  0  0
    6.4099    0.5662    0.0000 C   0  0  0  0  0  0  0  0  0  0  0  0
    5.8603    1.9619    0.0000 H   0  0  0  0  0  0  0  0  0  0  0  0
    7.8765    0.3671    0.0000 C   0  0  0  0  0  0  0  0  0  0  0  0
    8.8248    1.5293    0.0000 H   0  0  0  0  0  0  0  0  0  0  0  0
    8.3718   -1.0470    0.0000 C   0  0  0  0  0  0  0  0  0  0  0  0
    7.4542   -2.1686    0.0000 C   0  0  0  0  0  0  0  0  0  0  0  0
    8.0038   -3.5643    0.0000 H   0  0  0  0  0  0  0  0  0  0  0  0
    5.9876   -1.9696    0.0000 C   0  0  0  0  0  0  0  0  0  0  0  0
    5.0393   -3.1318    0.0000 H   0  0  0  0  0  0  0  0  0  0  0  0
    9.8490   -1.3072    0.0000 C   0  0  0  0  0  0  0  0  0  0  0  0
    9.3362   -2.7168    0.0000 H   0  0  0  0  0  0  0  0  0  0  0  0
   11.1482   -2.0570    0.0000 H   0  0  0  0  0  0  0  0  0  0  0  0
   11.1215    0.2098    0.0000 N   0  0  0  0  0  0  0  0  0  0  0  0
   10.6085    1.6193    0.0000 C   0  0  0  0  0  0  0  0  0  0  0  0
    9.6445    2.7686    0.0000 H   0  0  0  0  0  0  0  0  0  0  0  0
    9.3093    0.8695    0.0000 H   0  0  0  0  0  0  0  0  0  0  0  0
   11.5735    2.7687    0.0000 C   0  0  0  0  0  0  0  0  0  0  0  0
   12.0864    4.1783    0.0000 H   0  0  0  0  0  0  0  0  0  0  0  0
   10.2746    3.5188    0.0000 H   0  0  0  0  0  0  0  0  0  0  0  0
   13.0517    2.5086    0.0000 O   0  0  0  0  0  0  0  0  0  0  0  0
   13.5647    1.0990    0.0000 C   0  0  0  0  0  0  0  0  0  0  0  0
   14.5286   -0.0502    0.0000 H   0  0  0  0  0  0  0  0  0  0  0  0
   14.8638    1.8489    0.0000 H   0  0  0  0  0  0  0  0  0  0  0  0
   12.5996   -0.0504    0.0000 C   0  0  0  0  0  0  0  0  0  0  0  0
   12.0867   -1.4600    0.0000 H   0  0  0  0  0  0  0  0  0  0  0  0
   13.8986   -0.8005    0.0000 H   0  0  0  0  0  0  0  0  0  0  0  0
  1  2  1  0  0  0  0 
  1  3  1  0  0  0  0 
  1  4  1  0  0  0  0 
  1  5  1  0  0  0  0 
  5  6  1  0  0  0  0 
  5  7  1  0  0  0  0 
  5  8  1  0  0  0  0 
  8  9  1  0  0  0  0 
  9 10  1  0  0  0  0 
  9 11  1  0  0  0  0 
 11 12  1  0  0  0  0 
 11 13  1  0  0  0  0 
 11 14  1  0  0  0  0 
 14 15  1  0  0  0  0 
 14 16  1  0  0  0  0 
 14 17  1  0  0  0  0 
 17 18  1  0  0  0  0 
 18 19  1  0  0  0  0 
 18 20  1  0  0  0  0 
 18 21  1  0  0  0  0 
  9 21  1  0  0  0  0 
 21 22  1  0  0  0  0 
 21 23  1  0  0  0  0 
  8 24  1  0  0  0  0 
 24 25  2  0  0  0  0 
 25 26  1  0  0  0  0 
 25 27  1  0  0  0  0 
 27 28  2  0  0  0  0 
 28 29  1  0  0  0  0 
 28 30  1  0  0  0  0 
 30 31  2  0  0  0  0 
 24 31  1  0  0  0  0 
 31 32  1  0  0  0  0 
 32 33  1  0  0  0  0 
 32 34  1  0  0  0  0 
 32 35  1  0  0  0  0 
 30 36  1  0  0  0  0 
 36 37  2  0  0  0  0 
 36 38  1  0  0  0  0 
 38 39  1  0  0  0  0 
 38 40  1  0  0  0  0 
 27 41  1  0  0  0  0 
 41 42  2  0  0  0  0 
 42 43  1  0  0  0  0 
 42 44  1  0  0  0  0 
 44 45  1  0  0  0  0 
 44 46  2  0  0  0  0 
 46 47  1  0  0  0  0 
 47 48  1  0  0  0  0 
 47 49  2  0  0  0  0 
 41 49  1  0  0  0  0 
 49 50  1  0  0  0  0 
 46 51  1  0  0  0  0 
 51 52  1  0  0  0  0 
 51 53  1  0  0  0  0 
 51 54  1  0  0  0  0 
 54 55  1  0  0  0  0 
 55 56  1  0  0  0  0 
 55 57  1  0  0  0  0 
 55 58  1  0  0  0  0 
 58 59  1  0  0  0  0 
 58 60  1  0  0  0  0 
 58 61  1  0  0  0  0 
 61 62  1  0  0  0  0 
 62 63  1  0  0  0  0 
 62 64  1  0  0  0  0 
 62 65  1  0  0  0  0 
 54 65  1  0  0  0  0 
 65 66  1  0  0  0  0 
 65 67  1  0  0  0  0 
M  END
> <Rank>
22

> <Priority_score>
0.2

> <Reaction_type>
N-dealkylation_(R-NHCH2-alkyl)

> <Parent_ID>
24

> <Parent_InChI>
InChI=1S/C34H44N4O4/c1-5-38(29-10-14-41-15-11-29)32-20-28(27-8-6-26(7-9-27)22-37-12-16-42-17-13-37)19-30(25(32)4)33(39)35-21-31-23(2)18-24(3)36-34(31)40/h6-9,18-20,29H,5,10-17,21-22H2,1-4H3,(H,35,39)(H,36,40)

> <Parent_SMILES>
CCN(c1cc(-c2ccc(CN3CCOCC3)cc2)cc(C(=O)NCc2c(C)cc(C)[nH]c2=O)c1C)C1CCOCC1

$$$$
Molecule 24_metabolite 26
  CDK     0516241031

 87 91  0  0  0  0  0  0  0  0999 V2000
    1.5289    2.7514    0.0000 C   0  0  0  0  0  0  0  0  0  0  0  0
    0.2302    2.0008    0.0000 H   0  0  0  0  0  0  0  0  0  0  0  0
    2.4926    3.9009    0.0000 H   0  0  0  0  0  0  0  0  0  0  0  0
    0.5642    3.9000    0.0000 H   0  0  0  0  0  0  0  0  0  0  0  0
    2.8283    2.0020    0.0000 C   0  0  0  0  0  0  0  0  0  0  0  0
    3.3407    3.4118    0.0000 H   0  0  0  0  0  0  0  0  0  0  0  0
    4.3057    1.7422    0.0000 H   0  0  0  0  0  0  0  0  0  0  0  0
    2.8290    0.5020    0.0000 N   0  0  0  0  0  0  0  0  0  0  0  0
    0.2836   -0.9692    0.0000 C   0  0  0  0  0  0  0  0  0  0  0  0
    1.2486   -2.1176    0.0000 H   0  0  0  0  0  0  0  0  0  0  0  0
   -0.2301    0.4410    0.0000 C   0  0  0  0  0  0  0  0  0  0  0  0
   -0.2312    2.9010    0.0000 H   0  0  0  0  0  0  0  0  0  0  0  0
    1.2471    0.7020    0.0000 H   0  0  0  0  0  0  0  0  0  0  0  0
   -1.7074    0.7006    0.0000 C   0  0  0  0  0  0  0  0  0  0  0  0
   -3.0071    1.4495    0.0000 H   0  0  0  0  0  0  0  0  0  0  0  0
   -1.1954    2.1105    0.0000 H   0  0  0  0  0  0  0  0  0  0  0  0
   -2.6711   -0.4500    0.0000 O   0  0  0  0  0  0  0  0  0  0  0  0
   -2.1574   -1.8602    0.0000 C   0  0  0  0  0  0  0  0  0  0  0  0
   -2.1567   -3.3602    0.0000 H   0  0  0  0  0  0  0  0  0  0  0  0
   -3.6345   -2.1212    0.0000 H   0  0  0  0  0  0  0  0  0  0  0  0
   -0.6800   -2.1198    0.0000 C   0  0  0  0  0  0  0  0  0  0  0  0
    0.6196   -2.8688    0.0000 H   0  0  0  0  0  0  0  0  0  0  0  0
   -1.1921   -3.5297    0.0000 H   0  0  0  0  0  0  0  0  0  0  0  0
    5.3759   -0.9668    0.0000 C   0  0  0  0  0  0  0  0  0  0  0  0
    5.3768   -2.4676    0.0000 C   0  0  0  0  0  0  0  0  0  0  0  0
    6.6766   -3.2180    0.0000 C   0  0  0  0  0  0  0  0  0  0  0  0
    7.9754   -2.4676    0.0000 C   0  0  0  0  0  0  0  0  0  0  0  0
    9.2748   -3.2170    0.0000 H   0  0  0  0  0  0  0  0  0  0  0  0
    7.9744   -0.9668    0.0000 C   0  0  0  0  0  0  0  0  0  0  0  0
    6.6747   -0.2164    0.0000 C   0  0  0  0  0  0  0  0  0  0  0  0
    6.6744    1.2836    0.0000 C   0  0  0  0  0  0  0  0  0  0  0  0
    5.3753    2.0334    0.0000 H   0  0  0  0  0  0  0  0  0  0  0  0
    8.1517    1.0234    0.0000 H   0  0  0  0  0  0  0  0  0  0  0  0
    7.1872    2.6933    0.0000 H   0  0  0  0  0  0  0  0  0  0  0  0
    9.2732   -0.2164    0.0000 C   0  0  0  0  0  0  0  0  0  0  0  0
    9.2727    1.2836    0.0000 O   0  0  0  0  0  0  0  0  0  0  0  0
   10.5725   -0.9659    0.0000 N   0  0  0  0  0  0  0  0  0  0  0  0
   10.5730   -2.4659    0.0000 H   0  0  0  0  0  0  0  0  0  0  0  0
   11.8713   -0.2155    0.0000 C   0  0  0  0  0  0  0  0  0  0  0  0
   12.8351    0.9339    0.0000 H   0  0  0  0  0  0  0  0  0  0  0  0
   10.9067    0.9332    0.0000 H   0  0  0  0  0  0  0  0  0  0  0  0
   13.1706   -0.9651    0.0000 C   0  0  0  0  0  0  0  0  0  0  0  0
   13.1713   -2.4659    0.0000 C   0  0  0  0  0  0  0  0  0  0  0  0
   11.8724   -3.2161    0.0000 C   0  0  0  0  0  0  0  0  0  0  0  0
   11.8726   -4.7161    0.0000 H   0  0  0  0  0  0  0  0  0  0  0  0
   11.3591   -1.8067    0.0000 H   0  0  0  0  0  0  0  0  0  0  0  0
   10.3952   -3.4769    0.0000 H   0  0  0  0  0  0  0  0  0  0  0  0
   14.4709   -3.2166    0.0000 C   0  0  0  0  0  0  0  0  0  0  0  0
   14.4709   -4.7166    0.0000 H   0  0  0  0  0  0  0  0  0  0  0  0
   15.7698   -2.4664    0.0000 C   0  0  0  0  0  0  0  0  0  0  0  0
   17.0691   -3.2159    0.0000 C   0  0  0  0  0  0  0  0  0  0  0  0
   18.3679   -2.4655    0.0000 H   0  0  0  0  0  0  0  0  0  0  0  0
   16.1053   -4.3653    0.0000 H   0  0  0  0  0  0  0  0  0  0  0  0
   18.0337   -4.3647    0.0000 H   0  0  0  0  0  0  0  0  0  0  0  0
   15.7691   -0.9655    0.0000 N   0  0  0  0  0  0  0  0  0  0  0  0
   17.0680   -0.2153    0.0000 H   0  0  0  0  0  0  0  0  0  0  0  0
   14.4695   -0.2149    0.0000 C   0  0  0  0  0  0  0  0  0  0  0  0
   14.4695    1.2851    0.0000 O   0  0  0  0  0  0  0  0  0  0  0  0
    6.6768   -4.7180    0.0000 C   0  0  0  0  0  0  0  0  0  0  0  0
    5.4131   -5.4273    0.0000 C   0  0  0  0  0  0  0  0  0  0  0  0
    4.1338   -4.6441    0.0000 H   0  0  0  0  0  0  0  0  0  0  0  0
    5.3549   -6.9062    0.0000 C   0  0  0  0  0  0  0  0  0  0  0  0
    4.0460   -7.6387    0.0000 H   0  0  0  0  0  0  0  0  0  0  0  0
    6.6618   -7.6391    0.0000 C   0  0  0  0  0  0  0  0  0  0  0  0
    7.9255   -6.9298    0.0000 C   0  0  0  0  0  0  0  0  0  0  0  0
    9.2048   -7.7130    0.0000 H   0  0  0  0  0  0  0  0  0  0  0  0
    7.9837   -5.4509    0.0000 C   0  0  0  0  0  0  0  0  0  0  0  0
    9.2926   -4.7184    0.0000 H   0  0  0  0  0  0  0  0  0  0  0  0
    6.6620   -9.1391    0.0000 C   0  0  0  0  0  0  0  0  0  0  0  0
    8.1392   -8.8784    0.0000 H   0  0  0  0  0  0  0  0  0  0  0  0
    7.1753  -10.5485    0.0000 H   0  0  0  0  0  0  0  0  0  0  0  0
    4.9475  -10.1294    0.0000 N   0  0  0  0  0  0  0  0  0  0  0  0
    3.6482   -9.3798    0.0000 C   0  0  0  0  0  0  0  0  0  0  0  0
    2.6834   -8.2312    0.0000 H   0  0  0  0  0  0  0  0  0  0  0  0
    4.6119   -8.2303    0.0000 H   0  0  0  0  0  0  0  0  0  0  0  0
    2.3489  -10.1310    0.0000 C   0  0  0  0  0  0  0  0  0  0  0  0
    0.8717  -10.3918    0.0000 H   0  0  0  0  0  0  0  0  0  0  0  0
    1.8353   -8.7217    0.0000 H   0  0  0  0  0  0  0  0  0  0  0  0
    2.3489  -11.6319    0.0000 O   0  0  0  0  0  0  0  0  0  0  0  0
    3.6482  -12.3814    0.0000 C   0  0  0  0  0  0  0  0  0  0  0  0
    4.6130  -13.5300    0.0000 H   0  0  0  0  0  0  0  0  0  0  0  0
    2.6845  -13.5309    0.0000 H   0  0  0  0  0  0  0  0  0  0  0  0
    4.9475  -11.6302    0.0000 C   0  0  0  0  0  0  0  0  0  0  0  0
    6.4246  -11.3694    0.0000 H   0  0  0  0  0  0  0  0  0  0  0  0
    5.4611  -13.0395    0.0000 H   0  0  0  0  0  0  0  0  0  0  0  0
    4.0780   -3.2180    0.0000 O   0  0  0  0  0  0  0  0  0  0  0  0
    2.7787   -2.4684    0.0000 H   0  0  0  0  0  0  0  0  0  0  0  0
  1  2  1  0  0  0  0 
  1  3  1  0  0  0  0 
  1  4  1  0  0  0  0 
  1  5  1  0  0  0  0 
  5  6  1  0  0  0  0 
  5  7  1  0  0  0  0 
  5  8  1  0  0  0  0 
  8  9  1  0  0  0  0 
  9 10  1  0  0  0  0 
  9 11  1  0  0  0  0 
 11 12  1  0  0  0  0 
 11 13  1  0  0  0  0 
 11 14  1  0  0  0  0 
 14 15  1  0  0  0  0 
 14 16  1  0  0  0  0 
 14 17  1  0  0  0  0 
 17 18  1  0  0  0  0 
 18 19  1  0  0  0  0 
 18 20  1  0  0  0  0 
 18 21  1  0  0  0  0 
  9 21  1  0  0  0  0 
 21 22  1  0  0  0  0 
 21 23  1  0  0  0  0 
  8 24  1  0  0  0  0 
 24 25  2  0  0  0  0 
 25 26  1  0  0  0  0 
 26 27  2  0  0  0  0 
 27 28  1  0  0  0  0 
 27 29  1  0  0  0  0 
 29 30  2  0  0  0  0 
 24 30  1  0  0  0  0 
 30 31  1  0  0  0  0 
 31 32  1  0  0  0  0 
 31 33  1  0  0  0  0 
 31 34  1  0  0  0  0 
 29 35  1  0  0  0  0 
 35 36  2  0  0  0  0 
 35 37  1  0  0  0  0 
 37 38  1  0  0  0  0 
 37 39  1  0  0  0  0 
 39 40  1  0  0  0  0 
 39 41  1  0  0  0  0 
 39 42  1  0  0  0  0 
 42 43  2  0  0  0  0 
 43 44  1  0  0  0  0 
 44 45  1  0  0  0  0 
 44 46  1  0  0  0  0 
 44 47  1  0  0  0  0 
 43 48  1  0  0  0  0 
 48 49  1  0  0  0  0 
 48 50  2  0  0  0  0 
 50 51  1  0  0  0  0 
 51 52  1  0  0  0  0 
 51 53  1  0  0  0  0 
 51 54  1  0  0  0  0 
 50 55  1  0  0  0  0 
 55 56  1  0  0  0  0 
 55 57  1  0  0  0  0 
 42 57  1  0  0  0  0 
 57 58  2  0  0  0  0 
 26 59  1  0  0  0  0 
 59 60  2  0  0  0  0 
 60 61  1  0  0  0  0 
 60 62  1  0  0  0  0 
 62 63  1  0  0  0  0 
 62 64  2  0  0  0  0 
 64 65  1  0  0  0  0 
 65 66  1  0  0  0  0 
 65 67  2  0  0  0  0 
 59 67  1  0  0  0  0 
 67 68  1  0  0  0  0 
 64 69  1  0  0  0  0 
 69 70  1  0  0  0  0 
 69 71  1  0  0  0  0 
 69 72  1  0  0  0  0 
 72 73  1  0  0  0  0 
 73 74  1  0  0  0  0 
 73 75  1  0  0  0  0 
 73 76  1  0  0  0  0 
 76 77  1  0  0  0  0 
 76 78  1  0  0  0  0 
 76 79  1  0  0  0  0 
 79 80  1  0  0  0  0 
 80 81  1  0  0  0  0 
 80 82  1  0  0  0  0 
 80 83  1  0  0  0  0 
 72 83  1  0  0  0  0 
 83 84  1  0  0  0  0 
 83 85  1  0  0  0  0 
 25 86  1  0  0  0  0 
 86 87  1  0  0  0  0 
M  END
> <Rank>
22

> <Priority_score>
0.2

> <Reaction_type>
aromatic_hydroxylation_(para_to_carbon)

> <Parent_ID>
24

> <Parent_InChI>
InChI=1S/C34H44N4O4/c1-5-38(29-10-14-41-15-11-29)32-20-28(27-8-6-26(7-9-27)22-37-12-16-42-17-13-37)19-30(25(32)4)33(39)35-21-31-23(2)18-24(3)36-34(31)40/h6-9,18-20,29H,5,10-17,21-22H2,1-4H3,(H,35,39)(H,36,40)

> <Parent_SMILES>
CCN(c1cc(-c2ccc(CN3CCOCC3)cc2)cc(C(=O)NCc2c(C)cc(C)[nH]c2=O)c1C)C1CCOCC1

$$$$
Molecule 24_metabolite 27
  CDK     0516241031

 66 69  0  0  0  0  0  0  0  0999 V2000
   -1.0489    4.0082    0.0000 C   0  0  0  0  0  0  0  0  0  0  0  0
   -2.0125    2.8586    0.0000 H   0  0  0  0  0  0  0  0  0  0  0  0
   -0.5366    5.4179    0.0000 H   0  0  0  0  0  0  0  0  0  0  0  0
   -2.3483    4.7575    0.0000 H   0  0  0  0  0  0  0  0  0  0  0  0
    0.4284    3.7484    0.0000 C   0  0  0  0  0  0  0  0  0  0  0  0
    0.4277    5.2484    0.0000 H   0  0  0  0  0  0  0  0  0  0  0  0
    1.9055    4.0096    0.0000 H   0  0  0  0  0  0  0  0  0  0  0  0
    0.9421    2.3391    0.0000 N   0  0  0  0  0  0  0  0  0  0  0  0
   -0.9466    0.0860    0.0000 C   0  0  0  0  0  0  0  0  0  0  0  0
    0.4633   -0.4260    0.0000 H   0  0  0  0  0  0  0  0  0  0  0  0
   -2.0965    1.0504    0.0000 C   0  0  0  0  0  0  0  0  0  0  0  0
   -3.0874    2.7647    0.0000 H   0  0  0  0  0  0  0  0  0  0  0  0
   -0.9478    2.0150    0.0000 H   0  0  0  0  0  0  0  0  0  0  0  0
   -3.5058    0.5366    0.0000 C   0  0  0  0  0  0  0  0  0  0  0  0
   -5.0058    0.5354    0.0000 H   0  0  0  0  0  0  0  0  0  0  0  0
   -3.7673    2.0136    0.0000 H   0  0  0  0  0  0  0  0  0  0  0  0
   -3.7651   -0.9417    0.0000 O   0  0  0  0  0  0  0  0  0  0  0  0
   -2.6151   -1.9061    0.0000 C   0  0  0  0  0  0  0  0  0  0  0  0
   -1.8645   -3.2048    0.0000 H   0  0  0  0  0  0  0  0  0  0  0  0
   -3.7638   -2.8707    0.0000 H   0  0  0  0  0  0  0  0  0  0  0  0
   -1.2059   -1.3922    0.0000 C   0  0  0  0  0  0  0  0  0  0  0  0
    0.2941   -1.3910    0.0000 H   0  0  0  0  0  0  0  0  0  0  0  0
   -0.9444   -2.8693    0.0000 H   0  0  0  0  0  0  0  0  0  0  0  0
    2.4195    2.0793    0.0000 C   0  0  0  0  0  0  0  0  0  0  0  0
    2.9337    0.6693    0.0000 C   0  0  0  0  0  0  0  0  0  0  0  0
    1.9699   -0.4800    0.0000 H   0  0  0  0  0  0  0  0  0  0  0  0
    4.4117    0.4087    0.0000 C   0  0  0  0  0  0  0  0  0  0  0  0
    5.3755    1.5581    0.0000 C   0  0  0  0  0  0  0  0  0  0  0  0
    6.8529    1.2983    0.0000 H   0  0  0  0  0  0  0  0  0  0  0  0
    4.8613    2.9681    0.0000 C   0  0  0  0  0  0  0  0  0  0  0  0
    3.3833    3.2287    0.0000 C   0  0  0  0  0  0  0  0  0  0  0  0
    2.8700    4.6382    0.0000 C   0  0  0  0  0  0  0  0  0  0  0  0
    1.3928    4.8984    0.0000 H   0  0  0  0  0  0  0  0  0  0  0  0
    4.3472    4.8989    0.0000 H   0  0  0  0  0  0  0  0  0  0  0  0
    2.8698    6.1382    0.0000 H   0  0  0  0  0  0  0  0  0  0  0  0
    5.8251    4.1175    0.0000 C   0  0  0  0  0  0  0  0  0  0  0  0
    7.3024    3.8575    0.0000 O   0  0  0  0  0  0  0  0  0  0  0  0
    5.3116    5.5268    0.0000 O   0  0  0  0  0  0  0  0  0  0  0  0
    6.2755    6.6762    0.0000 H   0  0  0  0  0  0  0  0  0  0  0  0
    4.9250   -1.0007    0.0000 C   0  0  0  0  0  0  0  0  0  0  0  0
    6.3552   -1.2345    0.0000 C   0  0  0  0  0  0  0  0  0  0  0  0
    7.2891   -0.0607    0.0000 H   0  0  0  0  0  0  0  0  0  0  0  0
    6.9161   -2.6042    0.0000 C   0  0  0  0  0  0  0  0  0  0  0  0
    8.3967   -2.8443    0.0000 H   0  0  0  0  0  0  0  0  0  0  0  0
    5.9390   -3.7402    0.0000 C   0  0  0  0  0  0  0  0  0  0  0  0
    4.5089   -3.5064    0.0000 C   0  0  0  0  0  0  0  0  0  0  0  0
    3.5749   -4.6801    0.0000 H   0  0  0  0  0  0  0  0  0  0  0  0
    3.9480   -2.1367    0.0000 C   0  0  0  0  0  0  0  0  0  0  0  0
    2.4673   -1.8965    0.0000 H   0  0  0  0  0  0  0  0  0  0  0  0
    6.4523   -5.1496    0.0000 C   0  0  0  0  0  0  0  0  0  0  0  0
    4.9751   -5.4103    0.0000 H   0  0  0  0  0  0  0  0  0  0  0  0
    6.4525   -6.6496    0.0000 H   0  0  0  0  0  0  0  0  0  0  0  0
    8.4023   -5.4931    0.0000 N   0  0  0  0  0  0  0  0  0  0  0  0
    9.3665   -4.3441    0.0000 C   0  0  0  0  0  0  0  0  0  0  0  0
    9.8798   -2.9346    0.0000 H   0  0  0  0  0  0  0  0  0  0  0  0
    8.0675   -3.5939    0.0000 H   0  0  0  0  0  0  0  0  0  0  0  0
   10.8444   -4.6051    0.0000 C   0  0  0  0  0  0  0  0  0  0  0  0
   12.3216   -4.3445    0.0000 H   0  0  0  0  0  0  0  0  0  0  0  0
   10.8446   -3.1051    0.0000 H   0  0  0  0  0  0  0  0  0  0  0  0
   11.3582   -6.0153    0.0000 O   0  0  0  0  0  0  0  0  0  0  0  0
   10.3940   -7.1644    0.0000 C   0  0  0  0  0  0  0  0  0  0  0  0
    9.8807   -8.5738    0.0000 H   0  0  0  0  0  0  0  0  0  0  0  0
   11.6930   -7.9145    0.0000 H   0  0  0  0  0  0  0  0  0  0  0  0
    8.9160   -6.9033    0.0000 C   0  0  0  0  0  0  0  0  0  0  0  0
    7.4389   -7.1639    0.0000 H   0  0  0  0  0  0  0  0  0  0  0  0
    8.9159   -8.4033    0.0000 H   0  0  0  0  0  0  0  0  0  0  0  0
  1  2  1  0  0  0  0 
  1  3  1  0  0  0  0 
  1  4  1  0  0  0  0 
  1  5  1  0  0  0  0 
  5  6  1  0  0  0  0 
  5  7  1  0  0  0  0 
  5  8  1  0  0  0  0 
  8  9  1  0  0  0  0 
  9 10  1  0  0  0  0 
  9 11  1  0  0  0  0 
 11 12  1  0  0  0  0 
 11 13  1  0  0  0  0 
 11 14  1  0  0  0  0 
 14 15  1  0  0  0  0 
 14 16  1  0  0  0  0 
 14 17  1  0  0  0  0 
 17 18  1  0  0  0  0 
 18 19  1  0  0  0  0 
 18 20  1  0  0  0  0 
 18 21  1  0  0  0  0 
  9 21  1  0  0  0  0 
 21 22  1  0  0  0  0 
 21 23  1  0  0  0  0 
  8 24  1  0  0  0  0 
 24 25  2  0  0  0  0 
 25 26  1  0  0  0  0 
 25 27  1  0  0  0  0 
 27 28  2  0  0  0  0 
 28 29  1  0  0  0  0 
 28 30  1  0  0  0  0 
 30 31  2  0  0  0  0 
 24 31  1  0  0  0  0 
 31 32  1  0  0  0  0 
 32 33  1  0  0  0  0 
 32 34  1  0  0  0  0 
 32 35  1  0  0  0  0 
 30 36  1  0  0  0  0 
 36 37  2  0  0  0  0 
 36 38  1  0  0  0  0 
 38 39  1  0  0  0  0 
 27 40  1  0  0  0  0 
 40 41  2  0  0  0  0 
 41 42  1  0  0  0  0 
 41 43  1  0  0  0  0 
 43 44  1  0  0  0  0 
 43 45  2  0  0  0  0 
 45 46  1  0  0  0  0 
 46 47  1  0  0  0  0 
 46 48  2  0  0  0  0 
 40 48  1  0  0  0  0 
 48 49  1  0  0  0  0 
 45 50  1  0  0  0  0 
 50 51  1  0  0  0  0 
 50 52  1  0  0  0  0 
 50 53  1  0  0  0  0 
 53 54  1  0  0  0  0 
 54 55  1  0  0  0  0 
 54 56  1  0  0  0  0 
 54 57  1  0  0  0  0 
 57 58  1  0  0  0  0 
 57 59  1  0  0  0  0 
 57 60  1  0  0  0  0 
 60 61  1  0  0  0  0 
 61 62  1  0  0  0  0 
 61 63  1  0  0  0  0 
 61 64  1  0  0  0  0 
 53 64  1  0  0  0  0 
 64 65  1  0  0  0  0 
 64 66  1  0  0  0  0 
M  END
> <Rank>
22

> <Priority_score>
0.2

> <Reaction_type>
hydrolysis_(secondary_amide)

> <Parent_ID>
24

> <Parent_InChI>
InChI=1S/C34H44N4O4/c1-5-38(29-10-14-41-15-11-29)32-20-28(27-8-6-26(7-9-27)22-37-12-16-42-17-13-37)19-30(25(32)4)33(39)35-21-31-23(2)18-24(3)36-34(31)40/h6-9,18-20,29H,5,10-17,21-22H2,1-4H3,(H,35,39)(H,36,40)

> <Parent_SMILES>
CCN(c1cc(-c2ccc(CN3CCOCC3)cc2)cc(C(=O)NCc2c(C)cc(C)[nH]c2=O)c1C)C1CCOCC1

$$$$
Molecule 24_metabolite 28
  CDK     0516241031

 86 90  0  0  0  0  0  0  0  0999 V2000
   11.7386    4.1475    0.0000 C   0  0  0  0  0  0  0  0  0  0  0  0
   12.4884    2.8484    0.0000 H   0  0  0  0  0  0  0  0  0  0  0  0
   11.4784    5.6248    0.0000 H   0  0  0  0  0  0  0  0  0  0  0  0
   13.1483    4.6603    0.0000 H   0  0  0  0  0  0  0  0  0  0  0  0
   10.2386    4.1478    0.0000 C   0  0  0  0  0  0  0  0  0  0  0  0
   10.4994    5.6249    0.0000 H   0  0  0  0  0  0  0  0  0  0  0  0
    8.8292    4.6610    0.0000 H   0  0  0  0  0  0  0  0  0  0  0  0
    9.4884    2.8488    0.0000 N   0  0  0  0  0  0  0  0  0  0  0  0
   10.9580    0.3025    0.0000 C   0  0  0  0  0  0  0  0  0  0  0  0
    9.5483   -0.2100    0.0000 H   0  0  0  0  0  0  0  0  0  0  0  0
   12.1077    1.2673    0.0000 C   0  0  0  0  0  0  0  0  0  0  0  0
   13.3380    3.3975    0.0000 H   0  0  0  0  0  0  0  0  0  0  0  0
   10.9587    2.2315    0.0000 H   0  0  0  0  0  0  0  0  0  0  0  0
   13.5171    0.7539    0.0000 C   0  0  0  0  0  0  0  0  0  0  0  0
   15.0171    0.7531    0.0000 H   0  0  0  0  0  0  0  0  0  0  0  0
   13.7781    2.2310    0.0000 H   0  0  0  0  0  0  0  0  0  0  0  0
   13.7768   -0.7243    0.0000 O   0  0  0  0  0  0  0  0  0  0  0  0
   12.6272   -1.6891    0.0000 C   0  0  0  0  0  0  0  0  0  0  0  0
   11.8770   -2.9880    0.0000 H   0  0  0  0  0  0  0  0  0  0  0  0
   13.7762   -2.6534    0.0000 H   0  0  0  0  0  0  0  0  0  0  0  0
   11.2178   -1.1757    0.0000 C   0  0  0  0  0  0  0  0  0  0  0  0
    9.7178   -1.1750    0.0000 H   0  0  0  0  0  0  0  0  0  0  0  0
   10.9567   -2.6528    0.0000 H   0  0  0  0  0  0  0  0  0  0  0  0
    7.9884    2.8491    0.0000 C   0  0  0  0  0  0  0  0  0  0  0  0
    7.2376    1.5496    0.0000 C   0  0  0  0  0  0  0  0  0  0  0  0
    7.9876    0.2505    0.0000 H   0  0  0  0  0  0  0  0  0  0  0  0
    5.7368    1.5491    0.0000 C   0  0  0  0  0  0  0  0  0  0  0  0
    4.9868    2.8481    0.0000 C   0  0  0  0  0  0  0  0  0  0  0  0
    3.4868    2.8484    0.0000 H   0  0  0  0  0  0  0  0  0  0  0  0
    5.7376    4.1476    0.0000 C   0  0  0  0  0  0  0  0  0  0  0  0
    7.2384    4.1481    0.0000 C   0  0  0  0  0  0  0  0  0  0  0  0
    7.9882    5.4473    0.0000 C   0  0  0  0  0  0  0  0  0  0  0  0
    9.4882    5.4475    0.0000 H   0  0  0  0  0  0  0  0  0  0  0  0
    6.5786    5.9601    0.0000 H   0  0  0  0  0  0  0  0  0  0  0  0
    8.2485    6.9245    0.0000 H   0  0  0  0  0  0  0  0  0  0  0  0
    4.9876    5.4467    0.0000 C   0  0  0  0  0  0  0  0  0  0  0  0
    5.7376    6.7457    0.0000 O   0  0  0  0  0  0  0  0  0  0  0  0
    3.4876    5.4467    0.0000 N   0  0  0  0  0  0  0  0  0  0  0  0
    2.7376    4.1476    0.0000 H   0  0  0  0  0  0  0  0  0  0  0  0
    2.7376    6.7457    0.0000 C   0  0  0  0  0  0  0  0  0  0  0  0
    2.4771    8.2229    0.0000 H   0  0  0  0  0  0  0  0  0  0  0  0
    4.1471    7.2587    0.0000 H   0  0  0  0  0  0  0  0  0  0  0  0
    1.2376    6.7457    0.0000 C   0  0  0  0  0  0  0  0  0  0  0  0
    0.4870    5.4461    0.0000 C   0  0  0  0  0  0  0  0  0  0  0  0
    1.2372    4.1472    0.0000 C   0  0  0  0  0  0  0  0  0  0  0  0
    0.4874    2.8480    0.0000 H   0  0  0  0  0  0  0  0  0  0  0  0
    2.3861    5.1115    0.0000 H   0  0  0  0  0  0  0  0  0  0  0  0
    2.3864    3.1832    0.0000 H   0  0  0  0  0  0  0  0  0  0  0  0
   -1.0139    5.4453    0.0000 C   0  0  0  0  0  0  0  0  0  0  0  0
   -1.7634    4.1461    0.0000 H   0  0  0  0  0  0  0  0  0  0  0  0
   -1.7641    6.7443    0.0000 C   0  0  0  0  0  0  0  0  0  0  0  0
   -3.2641    6.7443    0.0000 C   0  0  0  0  0  0  0  0  0  0  0  0
   -4.0141    5.4452    0.0000 O   0  0  0  0  0  0  0  0  0  0  0  0
   -4.0141    8.0433    0.0000 O   0  0  0  0  0  0  0  0  0  0  0  0
   -5.5141    8.0433    0.0000 H   0  0  0  0  0  0  0  0  0  0  0  0
   -1.0134    8.0439    0.0000 N   0  0  0  0  0  0  0  0  0  0  0  0
   -1.7636    9.3428    0.0000 H   0  0  0  0  0  0  0  0  0  0  0  0
    0.4874    8.0446    0.0000 C   0  0  0  0  0  0  0  0  0  0  0  0
    1.2370    9.3439    0.0000 O   0  0  0  0  0  0  0  0  0  0  0  0
    4.9870    0.2499    0.0000 C   0  0  0  0  0  0  0  0  0  0  0  0
    3.5379    0.2675    0.0000 C   0  0  0  0  0  0  0  0  0  0  0  0
    2.8216    1.5855    0.0000 H   0  0  0  0  0  0  0  0  0  0  0  0
    2.7481   -0.9841    0.0000 C   0  0  0  0  0  0  0  0  0  0  0  0
    1.2482   -0.9640    0.0000 H   0  0  0  0  0  0  0  0  0  0  0  0
    3.5134   -2.2723    0.0000 C   0  0  0  0  0  0  0  0  0  0  0  0
    4.9625   -2.2899    0.0000 C   0  0  0  0  0  0  0  0  0  0  0  0
    5.6788   -3.6078    0.0000 H   0  0  0  0  0  0  0  0  0  0  0  0
    5.7523   -1.0382    0.0000 C   0  0  0  0  0  0  0  0  0  0  0  0
    7.2522   -1.0583    0.0000 H   0  0  0  0  0  0  0  0  0  0  0  0
    2.5237   -3.9872    0.0000 C   0  0  0  0  0  0  0  0  0  0  0  0
    1.3745   -3.0232    0.0000 H   0  0  0  0  0  0  0  0  0  0  0  0
    1.3748   -4.9515    0.0000 H   0  0  0  0  0  0  0  0  0  0  0  0
    3.5140   -5.7017    0.0000 N   0  0  0  0  0  0  0  0  0  0  0  0
    5.0140   -5.7017    0.0000 C   0  0  0  0  0  0  0  0  0  0  0  0
    6.4236   -5.1890    0.0000 H   0  0  0  0  0  0  0  0  0  0  0  0
    4.7537   -4.2245    0.0000 H   0  0  0  0  0  0  0  0  0  0  0  0
    5.7640   -7.0017    0.0000 C   0  0  0  0  0  0  0  0  0  0  0  0
    6.9131   -7.9658    0.0000 H   0  0  0  0  0  0  0  0  0  0  0  0
    6.9131   -6.0377    0.0000 H   0  0  0  0  0  0  0  0  0  0  0  0
    5.0140   -8.3017    0.0000 O   0  0  0  0  0  0  0  0  0  0  0  0
    3.5140   -8.3017    0.0000 C   0  0  0  0  0  0  0  0  0  0  0  0
    2.1043   -8.8145    0.0000 H   0  0  0  0  0  0  0  0  0  0  0  0
    3.7743   -9.7790    0.0000 H   0  0  0  0  0  0  0  0  0  0  0  0
    2.7640   -7.0017    0.0000 C   0  0  0  0  0  0  0  0  0  0  0  0
    1.6148   -6.0377    0.0000 H   0  0  0  0  0  0  0  0  0  0  0  0
    1.6148   -7.9658    0.0000 H   0  0  0  0  0  0  0  0  0  0  0  0
  1  2  1  0  0  0  0 
  1  3  1  0  0  0  0 
  1  4  1  0  0  0  0 
  1  5  1  0  0  0  0 
  5  6  1  0  0  0  0 
  5  7  1  0  0  0  0 
  5  8  1  0  0  0  0 
  8  9  1  0  0  0  0 
  9 10  1  0  0  0  0 
  9 11  1  0  0  0  0 
 11 12  1  0  0  0  0 
 11 13  1  0  0  0  0 
 11 14  1  0  0  0  0 
 14 15  1  0  0  0  0 
 14 16  1  0  0  0  0 
 14 17  1  0  0  0  0 
 17 18  1  0  0  0  0 
 18 19  1  0  0  0  0 
 18 20  1  0  0  0  0 
 18 21  1  0  0  0  0 
  9 21  1  0  0  0  0 
 21 22  1  0  0  0  0 
 21 23  1  0  0  0  0 
  8 24  1  0  0  0  0 
 24 25  2  0  0  0  0 
 25 26  1  0  0  0  0 
 25 27  1  0  0  0  0 
 27 28  2  0  0  0  0 
 28 29  1  0  0  0  0 
 28 30  1  0  0  0  0 
 30 31  2  0  0  0  0 
 24 31  1  0  0  0  0 
 31 32  1  0  0  0  0 
 32 33  1  0  0  0  0 
 32 34  1  0  0  0  0 
 32 35  1  0  0  0  0 
 30 36  1  0  0  0  0 
 36 37  2  0  0  0  0 
 36 38  1  0  0  0  0 
 38 39  1  0  0  0  0 
 38 40  1  0  0  0  0 
 40 41  1  0  0  0  0 
 40 42  1  0  0  0  0 
 40 43  1  0  0  0  0 
 43 44  2  0  0  0  0 
 44 45  1  0  0  0  0 
 45 46  1  0  0  0  0 
 45 47  1  0  0  0  0 
 45 48  1  0  0  0  0 
 44 49  1  0  0  0  0 
 49 50  1  0  0  0  0 
 49 51  2  0  0  0  0 
 51 52  1  0  0  0  0 
 52 53  2  0  0  0  0 
 52 54  1  0  0  0  0 
 54 55  1  0  0  0  0 
 51 56  1  0  0  0  0 
 56 57  1  0  0  0  0 
 56 58  1  0  0  0  0 
 43 58  1  0  0  0  0 
 58 59  2  0  0  0  0 
 27 60  1  0  0  0  0 
 60 61  2  0  0  0  0 
 61 62  1  0  0  0  0 
 61 63  1  0  0  0  0 
 63 64  1  0  0  0  0 
 63 65  2  0  0  0  0 
 65 66  1  0  0  0  0 
 66 67  1  0  0  0  0 
 66 68  2  0  0  0  0 
 60 68  1  0  0  0  0 
 68 69  1  0  0  0  0 
 65 70  1  0  0  0  0 
 70 71  1  0  0  0  0 
 70 72  1  0  0  0  0 
 70 73  1  0  0  0  0 
 73 74  1  0  0  0  0 
 74 75  1  0  0  0  0 
 74 76  1  0  0  0  0 
 74 77  1  0  0  0  0 
 77 78  1  0  0  0  0 
 77 79  1  0  0  0  0 
 77 80  1  0  0  0  0 
 80 81  1  0  0  0  0 
 81 82  1  0  0  0  0 
 81 83  1  0  0  0  0 
 81 84  1  0  0  0  0 
 73 84  1  0  0  0  0 
 84 85  1  0  0  0  0 
 84 86  1  0  0  0  0 
M  END
> <Rank>
28

> <Priority_score>
0.188

> <Reaction_type>
carboxylation_(benzylic_CH3)

> <Parent_ID>
24

> <Parent_InChI>
InChI=1S/C34H44N4O4/c1-5-38(29-10-14-41-15-11-29)32-20-28(27-8-6-26(7-9-27)22-37-12-16-42-17-13-37)19-30(25(32)4)33(39)35-21-31-23(2)18-24(3)36-34(31)40/h6-9,18-20,29H,5,10-17,21-22H2,1-4H3,(H,35,39)(H,36,40)

> <Parent_SMILES>
CCN(c1cc(-c2ccc(CN3CCOCC3)cc2)cc(C(=O)NCc2c(C)cc(C)[nH]c2=O)c1C)C1CCOCC1

$$$$
Molecule 24_metabolite 29
  CDK     0516241031

 87 91  0  0  0  0  0  0  0  0999 V2000
   11.7386    4.1475    0.0000 C   0  0  0  0  0  0  0  0  0  0  0  0
   12.4884    2.8484    0.0000 H   0  0  0  0  0  0  0  0  0  0  0  0
   11.4784    5.6248    0.0000 H   0  0  0  0  0  0  0  0  0  0  0  0
   13.1483    4.6603    0.0000 H   0  0  0  0  0  0  0  0  0  0  0  0
   10.2386    4.1478    0.0000 C   0  0  0  0  0  0  0  0  0  0  0  0
   10.4994    5.6249    0.0000 H   0  0  0  0  0  0  0  0  0  0  0  0
    8.8292    4.6610    0.0000 H   0  0  0  0  0  0  0  0  0  0  0  0
    9.4884    2.8488    0.0000 N   0  0  0  0  0  0  0  0  0  0  0  0
   10.9580    0.3025    0.0000 C   0  0  0  0  0  0  0  0  0  0  0  0
    9.5483   -0.2100    0.0000 H   0  0  0  0  0  0  0  0  0  0  0  0
   12.1077    1.2673    0.0000 C   0  0  0  0  0  0  0  0  0  0  0  0
   13.3380    3.3975    0.0000 H   0  0  0  0  0  0  0  0  0  0  0  0
   10.9587    2.2315    0.0000 H   0  0  0  0  0  0  0  0  0  0  0  0
   13.5171    0.7539    0.0000 C   0  0  0  0  0  0  0  0  0  0  0  0
   15.0171    0.7531    0.0000 H   0  0  0  0  0  0  0  0  0  0  0  0
   13.7781    2.2310    0.0000 H   0  0  0  0  0  0  0  0  0  0  0  0
   13.7768   -0.7243    0.0000 O   0  0  0  0  0  0  0  0  0  0  0  0
   12.6272   -1.6891    0.0000 C   0  0  0  0  0  0  0  0  0  0  0  0
   11.8770   -2.9880    0.0000 H   0  0  0  0  0  0  0  0  0  0  0  0
   13.7762   -2.6534    0.0000 H   0  0  0  0  0  0  0  0  0  0  0  0
   11.2178   -1.1757    0.0000 C   0  0  0  0  0  0  0  0  0  0  0  0
    9.7178   -1.1750    0.0000 H   0  0  0  0  0  0  0  0  0  0  0  0
   10.9567   -2.6528    0.0000 H   0  0  0  0  0  0  0  0  0  0  0  0
    7.9884    2.8491    0.0000 C   0  0  0  0  0  0  0  0  0  0  0  0
    7.2376    1.5496    0.0000 C   0  0  0  0  0  0  0  0  0  0  0  0
    7.9876    0.2505    0.0000 H   0  0  0  0  0  0  0  0  0  0  0  0
    5.7368    1.5491    0.0000 C   0  0  0  0  0  0  0  0  0  0  0  0
    4.9868    2.8481    0.0000 C   0  0  0  0  0  0  0  0  0  0  0  0
    3.4868    2.8484    0.0000 H   0  0  0  0  0  0  0  0  0  0  0  0
    5.7376    4.1476    0.0000 C   0  0  0  0  0  0  0  0  0  0  0  0
    7.2384    4.1481    0.0000 C   0  0  0  0  0  0  0  0  0  0  0  0
    7.9882    5.4473    0.0000 C   0  0  0  0  0  0  0  0  0  0  0  0
    9.4882    5.4475    0.0000 H   0  0  0  0  0  0  0  0  0  0  0  0
    6.5786    5.9601    0.0000 H   0  0  0  0  0  0  0  0  0  0  0  0
    8.2485    6.9245    0.0000 H   0  0  0  0  0  0  0  0  0  0  0  0
    4.9876    5.4467    0.0000 C   0  0  0  0  0  0  0  0  0  0  0  0
    5.7376    6.7457    0.0000 O   0  0  0  0  0  0  0  0  0  0  0  0
    3.4876    5.4467    0.0000 N   0  0  0  0  0  0  0  0  0  0  0  0
    2.7376    4.1476    0.0000 H   0  0  0  0  0  0  0  0  0  0  0  0
    2.7376    6.7457    0.0000 C   0  0  0  0  0  0  0  0  0  0  0  0
    2.4771    8.2229    0.0000 H   0  0  0  0  0  0  0  0  0  0  0  0
    4.1471    7.2587    0.0000 H   0  0  0  0  0  0  0  0  0  0  0  0
    1.2376    6.7457    0.0000 C   0  0  0  0  0  0  0  0  0  0  0  0
    0.4870    5.4461    0.0000 C   0  0  0  0  0  0  0  0  0  0  0  0
    1.2372    4.1472    0.0000 C   0  0  0  0  0  0  0  0  0  0  0  0
    0.4874    2.8480    0.0000 H   0  0  0  0  0  0  0  0  0  0  0  0
    2.3861    5.1115    0.0000 H   0  0  0  0  0  0  0  0  0  0  0  0
    2.3864    3.1832    0.0000 H   0  0  0  0  0  0  0  0  0  0  0  0
   -1.0139    5.4453    0.0000 C   0  0  0  0  0  0  0  0  0  0  0  0
   -1.7634    4.1461    0.0000 H   0  0  0  0  0  0  0  0  0  0  0  0
   -1.7641    6.7443    0.0000 C   0  0  0  0  0  0  0  0  0  0  0  0
   -3.2641    6.7443    0.0000 C   0  0  0  0  0  0  0  0  0  0  0  0
   -3.0036    5.2671    0.0000 H   0  0  0  0  0  0  0  0  0  0  0  0
   -4.6736    6.2312    0.0000 H   0  0  0  0  0  0  0  0  0  0  0  0
   -4.0141    8.0433    0.0000 O   0  0  0  0  0  0  0  0  0  0  0  0
   -5.5141    8.0433    0.0000 H   0  0  0  0  0  0  0  0  0  0  0  0
   -1.0134    8.0439    0.0000 N   0  0  0  0  0  0  0  0  0  0  0  0
   -1.7636    9.3428    0.0000 H   0  0  0  0  0  0  0  0  0  0  0  0
    0.4874    8.0446    0.0000 C   0  0  0  0  0  0  0  0  0  0  0  0
    1.2370    9.3439    0.0000 O   0  0  0  0  0  0  0  0  0  0  0  0
    4.9870    0.2499    0.0000 C   0  0  0  0  0  0  0  0  0  0  0  0
    3.5379    0.2675    0.0000 C   0  0  0  0  0  0  0  0  0  0  0  0
    2.8216    1.5855    0.0000 H   0  0  0  0  0  0  0  0  0  0  0  0
    2.7481   -0.9841    0.0000 C   0  0  0  0  0  0  0  0  0  0  0  0
    1.2482   -0.9640    0.0000 H   0  0  0  0  0  0  0  0  0  0  0  0
    3.5134   -2.2723    0.0000 C   0  0  0  0  0  0  0  0  0  0  0  0
    4.9625   -2.2899    0.0000 C   0  0  0  0  0  0  0  0  0  0  0  0
    5.6788   -3.6078    0.0000 H   0  0  0  0  0  0  0  0  0  0  0  0
    5.7523   -1.0382    0.0000 C   0  0  0  0  0  0  0  0  0  0  0  0
    7.2522   -1.0583    0.0000 H   0  0  0  0  0  0  0  0  0  0  0  0
    2.5237   -3.9872    0.0000 C   0  0  0  0  0  0  0  0  0  0  0  0
    1.3745   -3.0232    0.0000 H   0  0  0  0  0  0  0  0  0  0  0  0
    1.3748   -4.9515    0.0000 H   0  0  0  0  0  0  0  0  0  0  0  0
    3.5140   -5.7017    0.0000 N   0  0  0  0  0  0  0  0  0  0  0  0
    5.0140   -5.7017    0.0000 C   0  0  0  0  0  0  0  0  0  0  0  0
    6.4236   -5.1890    0.0000 H   0  0  0  0  0  0  0  0  0  0  0  0
    4.7537   -4.2245    0.0000 H   0  0  0  0  0  0  0  0  0  0  0  0
    5.7640   -7.0017    0.0000 C   0  0  0  0  0  0  0  0  0  0  0  0
    6.9131   -7.9658    0.0000 H   0  0  0  0  0  0  0  0  0  0  0  0
    6.9131   -6.0377    0.0000 H   0  0  0  0  0  0  0  0  0  0  0  0
    5.0140   -8.3017    0.0000 O   0  0  0  0  0  0  0  0  0  0  0  0
    3.5140   -8.3017    0.0000 C   0  0  0  0  0  0  0  0  0  0  0  0
    2.1043   -8.8145    0.0000 H   0  0  0  0  0  0  0  0  0  0  0  0
    3.7743   -9.7790    0.0000 H   0  0  0  0  0  0  0  0  0  0  0  0
    2.7640   -7.0017    0.0000 C   0  0  0  0  0  0  0  0  0  0  0  0
    1.6148   -6.0377    0.0000 H   0  0  0  0  0  0  0  0  0  0  0  0
    1.6148   -7.9658    0.0000 H   0  0  0  0  0  0  0  0  0  0  0  0
  1  2  1  0  0  0  0 
  1  3  1  0  0  0  0 
  1  4  1  0  0  0  0 
  1  5  1  0  0  0  0 
  5  6  1  0  0  0  0 
  5  7  1  0  0  0  0 
  5  8  1  0  0  0  0 
  8  9  1  0  0  0  0 
  9 10  1  0  0  0  0 
  9 11  1  0  0  0  0 
 11 12  1  0  0  0  0 
 11 13  1  0  0  0  0 
 11 14  1  0  0  0  0 
 14 15  1  0  0  0  0 
 14 16  1  0  0  0  0 
 14 17  1  0  0  0  0 
 17 18  1  0  0  0  0 
 18 19  1  0  0  0  0 
 18 20  1  0  0  0  0 
 18 21  1  0  0  0  0 
  9 21  1  0  0  0  0 
 21 22  1  0  0  0  0 
 21 23  1  0  0  0  0 
  8 24  1  0  0  0  0 
 24 25  2  0  0  0  0 
 25 26  1  0  0  0  0 
 25 27  1  0  0  0  0 
 27 28  2  0  0  0  0 
 28 29  1  0  0  0  0 
 28 30  1  0  0  0  0 
 30 31  2  0  0  0  0 
 24 31  1  0  0  0  0 
 31 32  1  0  0  0  0 
 32 33  1  0  0  0  0 
 32 34  1  0  0  0  0 
 32 35  1  0  0  0  0 
 30 36  1  0  0  0  0 
 36 37  2  0  0  0  0 
 36 38  1  0  0  0  0 
 38 39  1  0  0  0  0 
 38 40  1  0  0  0  0 
 40 41  1  0  0  0  0 
 40 42  1  0  0  0  0 
 40 43  1  0  0  0  0 
 43 44  2  0  0  0  0 
 44 45  1  0  0  0  0 
 45 46  1  0  0  0  0 
 45 47  1  0  0  0  0 
 45 48  1  0  0  0  0 
 44 49  1  0  0  0  0 
 49 50  1  0  0  0  0 
 49 51  2  0  0  0  0 
 51 52  1  0  0  0  0 
 52 53  1  0  0  0  0 
 52 54  1  0  0  0  0 
 52 55  1  0  0  0  0 
 55 56  1  0  0  0  0 
 51 57  1  0  0  0  0 
 57 58  1  0  0  0  0 
 57 59  1  0  0  0  0 
 43 59  1  0  0  0  0 
 59 60  2  0  0  0  0 
 27 61  1  0  0  0  0 
 61 62  2  0  0  0  0 
 62 63  1  0  0  0  0 
 62 64  1  0  0  0  0 
 64 65  1  0  0  0  0 
 64 66  2  0  0  0  0 
 66 67  1  0  0  0  0 
 67 68  1  0  0  0  0 
 67 69  2  0  0  0  0 
 61 69  1  0  0  0  0 
 69 70  1  0  0  0  0 
 66 71  1  0  0  0  0 
 71 72  1  0  0  0  0 
 71 73  1  0  0  0  0 
 71 74  1  0  0  0  0 
 74 75  1  0  0  0  0 
 75 76  1  0  0  0  0 
 75 77  1  0  0  0  0 
 75 78  1  0  0  0  0 
 78 79  1  0  0  0  0 
 78 80  1  0  0  0  0 
 78 81  1  0  0  0  0 
 81 82  1  0  0  0  0 
 82 83  1  0  0  0  0 
 82 84  1  0  0  0  0 
 82 85  1  0  0  0  0 
 74 85  1  0  0  0  0 
 85 86  1  0  0  0  0 
 85 87  1  0  0  0  0 
M  END
> <Rank>
28

> <Priority_score>
0.188

> <Reaction_type>
benzylic_hydroxylation_(c-CH3)

> <Parent_ID>
24

> <Parent_InChI>
InChI=1S/C34H44N4O4/c1-5-38(29-10-14-41-15-11-29)32-20-28(27-8-6-26(7-9-27)22-37-12-16-42-17-13-37)19-30(25(32)4)33(39)35-21-31-23(2)18-24(3)36-34(31)40/h6-9,18-20,29H,5,10-17,21-22H2,1-4H3,(H,35,39)(H,36,40)

> <Parent_SMILES>
CCN(c1cc(-c2ccc(CN3CCOCC3)cc2)cc(C(=O)NCc2c(C)cc(C)[nH]c2=O)c1C)C1CCOCC1

$$$$
Molecule 24_metabolite 30
  CDK     0516241031

 87 91  0  0  0  0  0  0  0  0999 V2000
   11.3184    3.7273    0.0000 C   0  0  0  0  0  0  0  0  0  0  0  0
   12.0682    2.4281    0.0000 H   0  0  0  0  0  0  0  0  0  0  0  0
   11.0582    5.2045    0.0000 H   0  0  0  0  0  0  0  0  0  0  0  0
   12.7280    4.2401    0.0000 H   0  0  0  0  0  0  0  0  0  0  0  0
    9.8184    3.7275    0.0000 C   0  0  0  0  0  0  0  0  0  0  0  0
   10.0791    5.2047    0.0000 H   0  0  0  0  0  0  0  0  0  0  0  0
    8.4090    4.2408    0.0000 H   0  0  0  0  0  0  0  0  0  0  0  0
    9.0682    2.4286    0.0000 N   0  0  0  0  0  0  0  0  0  0  0  0
   10.5378   -0.1177    0.0000 C   0  0  0  0  0  0  0  0  0  0  0  0
    9.1281   -0.6302    0.0000 H   0  0  0  0  0  0  0  0  0  0  0  0
   11.6874    0.8470    0.0000 C   0  0  0  0  0  0  0  0  0  0  0  0
   12.9178    2.9773    0.0000 H   0  0  0  0  0  0  0  0  0  0  0  0
   10.5384    1.8113    0.0000 H   0  0  0  0  0  0  0  0  0  0  0  0
   13.0969    0.3336    0.0000 C   0  0  0  0  0  0  0  0  0  0  0  0
   14.5969    0.3329    0.0000 H   0  0  0  0  0  0  0  0  0  0  0  0
   13.3579    1.8107    0.0000 H   0  0  0  0  0  0  0  0  0  0  0  0
   13.3566   -1.1446    0.0000 O   0  0  0  0  0  0  0  0  0  0  0  0
   12.2069   -2.1093    0.0000 C   0  0  0  0  0  0  0  0  0  0  0  0
   11.4567   -3.4083    0.0000 H   0  0  0  0  0  0  0  0  0  0  0  0
   13.3560   -3.0736    0.0000 H   0  0  0  0  0  0  0  0  0  0  0  0
   10.7975   -1.5959    0.0000 C   0  0  0  0  0  0  0  0  0  0  0  0
    9.2975   -1.5952    0.0000 H   0  0  0  0  0  0  0  0  0  0  0  0
   10.5365   -3.0730    0.0000 H   0  0  0  0  0  0  0  0  0  0  0  0
    7.5682    2.4288    0.0000 C   0  0  0  0  0  0  0  0  0  0  0  0
    6.8174    1.1293    0.0000 C   0  0  0  0  0  0  0  0  0  0  0  0
    7.5674   -0.1697    0.0000 H   0  0  0  0  0  0  0  0  0  0  0  0
    5.3165    1.1288    0.0000 C   0  0  0  0  0  0  0  0  0  0  0  0
    4.5665    2.4279    0.0000 C   0  0  0  0  0  0  0  0  0  0  0  0
    3.0665    2.4281    0.0000 H   0  0  0  0  0  0  0  0  0  0  0  0
    5.3174    3.7274    0.0000 C   0  0  0  0  0  0  0  0  0  0  0  0
    6.8182    3.7279    0.0000 C   0  0  0  0  0  0  0  0  0  0  0  0
    7.5680    5.0270    0.0000 C   0  0  0  0  0  0  0  0  0  0  0  0
    9.0680    5.0273    0.0000 H   0  0  0  0  0  0  0  0  0  0  0  0
    6.1584    5.5398    0.0000 H   0  0  0  0  0  0  0  0  0  0  0  0
    7.8282    6.5043    0.0000 H   0  0  0  0  0  0  0  0  0  0  0  0
    4.5674    5.0264    0.0000 C   0  0  0  0  0  0  0  0  0  0  0  0
    5.3174    6.3255    0.0000 O   0  0  0  0  0  0  0  0  0  0  0  0
    3.0674    5.0264    0.0000 N   0  0  0  0  0  0  0  0  0  0  0  0
    2.3174    3.7274    0.0000 H   0  0  0  0  0  0  0  0  0  0  0  0
    2.3174    6.3255    0.0000 C   0  0  0  0  0  0  0  0  0  0  0  0
    2.0569    7.8027    0.0000 H   0  0  0  0  0  0  0  0  0  0  0  0
    3.7269    6.8385    0.0000 H   0  0  0  0  0  0  0  0  0  0  0  0
    0.8174    6.3255    0.0000 C   0  0  0  0  0  0  0  0  0  0  0  0
    0.0667    5.0258    0.0000 C   0  0  0  0  0  0  0  0  0  0  0  0
    0.8170    3.7269    0.0000 C   0  0  0  0  0  0  0  0  0  0  0  0
    0.0672    2.4278    0.0000 H   0  0  0  0  0  0  0  0  0  0  0  0
    1.9659    4.6913    0.0000 H   0  0  0  0  0  0  0  0  0  0  0  0
    1.9662    2.7629    0.0000 H   0  0  0  0  0  0  0  0  0  0  0  0
   -1.4341    5.0251    0.0000 C   0  0  0  0  0  0  0  0  0  0  0  0
   -2.1843    6.3240    0.0000 C   0  0  0  0  0  0  0  0  0  0  0  0
   -3.6843    6.3240    0.0000 C   0  0  0  0  0  0  0  0  0  0  0  0
   -4.4343    7.6231    0.0000 H   0  0  0  0  0  0  0  0  0  0  0  0
   -3.4238    4.8468    0.0000 H   0  0  0  0  0  0  0  0  0  0  0  0
   -5.0938    5.8110    0.0000 H   0  0  0  0  0  0  0  0  0  0  0  0
   -1.4337    7.6237    0.0000 N   0  0  0  0  0  0  0  0  0  0  0  0
   -2.1839    8.9226    0.0000 H   0  0  0  0  0  0  0  0  0  0  0  0
    0.0672    7.6244    0.0000 C   0  0  0  0  0  0  0  0  0  0  0  0
    0.8167    8.9237    0.0000 O   0  0  0  0  0  0  0  0  0  0  0  0
   -2.1837    3.7258    0.0000 O   0  0  0  0  0  0  0  0  0  0  0  0
   -3.6837    3.7254    0.0000 H   0  0  0  0  0  0  0  0  0  0  0  0
    4.5667   -0.1703    0.0000 C   0  0  0  0  0  0  0  0  0  0  0  0
    3.1177   -0.1527    0.0000 C   0  0  0  0  0  0  0  0  0  0  0  0
    2.4014    1.1652    0.0000 H   0  0  0  0  0  0  0  0  0  0  0  0
    2.3279   -1.4044    0.0000 C   0  0  0  0  0  0  0  0  0  0  0  0
    0.8280   -1.3843    0.0000 H   0  0  0  0  0  0  0  0  0  0  0  0
    3.0932   -2.6925    0.0000 C   0  0  0  0  0  0  0  0  0  0  0  0
    4.5423   -2.7101    0.0000 C   0  0  0  0  0  0  0  0  0  0  0  0
    5.2586   -4.0280    0.0000 H   0  0  0  0  0  0  0  0  0  0  0  0
    5.3321   -1.4585    0.0000 C   0  0  0  0  0  0  0  0  0  0  0  0
    6.8319   -1.4786    0.0000 H   0  0  0  0  0  0  0  0  0  0  0  0
    2.1035   -4.4074    0.0000 C   0  0  0  0  0  0  0  0  0  0  0  0
    0.9542   -3.4434    0.0000 H   0  0  0  0  0  0  0  0  0  0  0  0
    0.9546   -5.3718    0.0000 H   0  0  0  0  0  0  0  0  0  0  0  0
    3.0937   -6.1220    0.0000 N   0  0  0  0  0  0  0  0  0  0  0  0
    4.5937   -6.1220    0.0000 C   0  0  0  0  0  0  0  0  0  0  0  0
    6.0034   -5.6092    0.0000 H   0  0  0  0  0  0  0  0  0  0  0  0
    4.3334   -4.6447    0.0000 H   0  0  0  0  0  0  0  0  0  0  0  0
    5.3437   -7.4220    0.0000 C   0  0  0  0  0  0  0  0  0  0  0  0
    6.4929   -8.3860    0.0000 H   0  0  0  0  0  0  0  0  0  0  0  0
    6.4929   -6.4579    0.0000 H   0  0  0  0  0  0  0  0  0  0  0  0
    4.5937   -8.7220    0.0000 O   0  0  0  0  0  0  0  0  0  0  0  0
    3.0937   -8.7220    0.0000 C   0  0  0  0  0  0  0  0  0  0  0  0
    1.6841   -9.2347    0.0000 H   0  0  0  0  0  0  0  0  0  0  0  0
    3.3541  -10.1992    0.0000 H   0  0  0  0  0  0  0  0  0  0  0  0
    2.3437   -7.4220    0.0000 C   0  0  0  0  0  0  0  0  0  0  0  0
    1.1946   -6.4579    0.0000 H   0  0  0  0  0  0  0  0  0  0  0  0
    1.1946   -8.3860    0.0000 H   0  0  0  0  0  0  0  0  0  0  0  0
  1  2  1  0  0  0  0 
  1  3  1  0  0  0  0 
  1  4  1  0  0  0  0 
  1  5  1  0  0  0  0 
  5  6  1  0  0  0  0 
  5  7  1  0  0  0  0 
  5  8  1  0  0  0  0 
  8  9  1  0  0  0  0 
  9 10  1  0  0  0  0 
  9 11  1  0  0  0  0 
 11 12  1  0  0  0  0 
 11 13  1  0  0  0  0 
 11 14  1  0  0  0  0 
 14 15  1  0  0  0  0 
 14 16  1  0  0  0  0 
 14 17  1  0  0  0  0 
 17 18  1  0  0  0  0 
 18 19  1  0  0  0  0 
 18 20  1  0  0  0  0 
 18 21  1  0  0  0  0 
  9 21  1  0  0  0  0 
 21 22  1  0  0  0  0 
 21 23  1  0  0  0  0 
  8 24  1  0  0  0  0 
 24 25  2  0  0  0  0 
 25 26  1  0  0  0  0 
 25 27  1  0  0  0  0 
 27 28  2  0  0  0  0 
 28 29  1  0  0  0  0 
 28 30  1  0  0  0  0 
 30 31  2  0  0  0  0 
 24 31  1  0  0  0  0 
 31 32  1  0  0  0  0 
 32 33  1  0  0  0  0 
 32 34  1  0  0  0  0 
 32 35  1  0  0  0  0 
 30 36  1  0  0  0  0 
 36 37  2  0  0  0  0 
 36 38  1  0  0  0  0 
 38 39  1  0  0  0  0 
 38 40  1  0  0  0  0 
 40 41  1  0  0  0  0 
 40 42  1  0  0  0  0 
 40 43  1  0  0  0  0 
 43 44  2  0  0  0  0 
 44 45  1  0  0  0  0 
 45 46  1  0  0  0  0 
 45 47  1  0  0  0  0 
 45 48  1  0  0  0  0 
 44 49  1  0  0  0  0 
 49 50  2  0  0  0  0 
 50 51  1  0  0  0  0 
 51 52  1  0  0  0  0 
 51 53  1  0  0  0  0 
 51 54  1  0  0  0  0 
 50 55  1  0  0  0  0 
 55 56  1  0  0  0  0 
 55 57  1  0  0  0  0 
 43 57  1  0  0  0  0 
 57 58  2  0  0  0  0 
 49 59  1  0  0  0  0 
 59 60  1  0  0  0  0 
 27 61  1  0  0  0  0 
 61 62  2  0  0  0  0 
 62 63  1  0  0  0  0 
 62 64  1  0  0  0  0 
 64 65  1  0  0  0  0 
 64 66  2  0  0  0  0 
 66 67  1  0  0  0  0 
 67 68  1  0  0  0  0 
 67 69  2  0  0  0  0 
 61 69  1  0  0  0  0 
 69 70  1  0  0  0  0 
 66 71  1  0  0  0  0 
 71 72  1  0  0  0  0 
 71 73  1  0  0  0  0 
 71 74  1  0  0  0  0 
 74 75  1  0  0  0  0 
 75 76  1  0  0  0  0 
 75 77  1  0  0  0  0 
 75 78  1  0  0  0  0 
 78 79  1  0  0  0  0 
 78 80  1  0  0  0  0 
 78 81  1  0  0  0  0 
 81 82  1  0  0  0  0 
 82 83  1  0  0  0  0 
 82 84  1  0  0  0  0 
 82 85  1  0  0  0  0 
 74 85  1  0  0  0  0 
 85 86  1  0  0  0  0 
 85 87  1  0  0  0  0 
M  END
> <Rank>
28

> <Priority_score>
0.188

> <Reaction_type>
aromatic_hydroxylation_(ortho_to_2_substituents)

> <Parent_ID>
24

> <Parent_InChI>
InChI=1S/C34H44N4O4/c1-5-38(29-10-14-41-15-11-29)32-20-28(27-8-6-26(7-9-27)22-37-12-16-42-17-13-37)19-30(25(32)4)33(39)35-21-31-23(2)18-24(3)36-34(31)40/h6-9,18-20,29H,5,10-17,21-22H2,1-4H3,(H,35,39)(H,36,40)

> <Parent_SMILES>
CCN(c1cc(-c2ccc(CN3CCOCC3)cc2)cc(C(=O)NCc2c(C)cc(C)[nH]c2=O)c1C)C1CCOCC1

$$$$
Molecule 24_metabolite 31
  CDK     0516241031

 87 91  0  0  0  0  0  0  0  0999 V2000
    0.4693   -5.3637    0.0000 C   0  0  0  0  0  0  0  0  0  0  0  0
    1.7683   -6.1140    0.0000 H   0  0  0  0  0  0  0  0  0  0  0  0
   -0.0439   -6.7732    0.0000 H   0  0  0  0  0  0  0  0  0  0  0  0
   -1.0078   -5.1030    0.0000 H   0  0  0  0  0  0  0  0  0  0  0  0
    0.4696   -3.8637    0.0000 C   0  0  0  0  0  0  0  0  0  0  0  0
    1.7697   -3.1140    0.0000 C   0  0  0  0  0  0  0  0  0  0  0  0
    3.0685   -3.8644    0.0000 C   0  0  0  0  0  0  0  0  0  0  0  0
    2.1039   -5.0131    0.0000 H   0  0  0  0  0  0  0  0  0  0  0  0
    4.0323   -5.0137    0.0000 H   0  0  0  0  0  0  0  0  0  0  0  0
    4.3678   -3.1148    0.0000 N   0  0  0  0  0  0  0  0  0  0  0  0
    4.3683   -1.6148    0.0000 H   0  0  0  0  0  0  0  0  0  0  0  0
    5.6666   -3.8652    0.0000 C   0  0  0  0  0  0  0  0  0  0  0  0
    5.6661   -5.3652    0.0000 O   0  0  0  0  0  0  0  0  0  0  0  0
    6.9658   -3.1156    0.0000 C   0  0  0  0  0  0  0  0  0  0  0  0
    6.9666   -1.6148    0.0000 C   0  0  0  0  0  0  0  0  0  0  0  0
    5.6676   -0.8646    0.0000 C   0  0  0  0  0  0  0  0  0  0  0  0
    5.6679    0.6354    0.0000 H   0  0  0  0  0  0  0  0  0  0  0  0
    4.1905   -0.6039    0.0000 H   0  0  0  0  0  0  0  0  0  0  0  0
    5.1544   -2.2740    0.0000 H   0  0  0  0  0  0  0  0  0  0  0  0
    8.2662   -0.8642    0.0000 C   0  0  0  0  0  0  0  0  0  0  0  0
    9.5651   -1.6144    0.0000 C   0  0  0  0  0  0  0  0  0  0  0  0
   10.8644   -0.8648    0.0000 H   0  0  0  0  0  0  0  0  0  0  0  0
    9.5644   -3.1152    0.0000 C   0  0  0  0  0  0  0  0  0  0  0  0
    8.2648   -3.8658    0.0000 C   0  0  0  0  0  0  0  0  0  0  0  0
    8.2648   -5.3658    0.0000 H   0  0  0  0  0  0  0  0  0  0  0  0
   10.8633   -3.8654    0.0000 C   0  0  0  0  0  0  0  0  0  0  0  0
   10.8452   -5.3145    0.0000 C   0  0  0  0  0  0  0  0  0  0  0  0
    9.5271   -6.0304    0.0000 H   0  0  0  0  0  0  0  0  0  0  0  0
   12.0967   -6.1047    0.0000 C   0  0  0  0  0  0  0  0  0  0  0  0
   12.0761   -7.6045    0.0000 H   0  0  0  0  0  0  0  0  0  0  0  0
   13.3850   -5.3398    0.0000 C   0  0  0  0  0  0  0  0  0  0  0  0
   13.4031   -3.8907    0.0000 C   0  0  0  0  0  0  0  0  0  0  0  0
   14.7213   -3.1748    0.0000 H   0  0  0  0  0  0  0  0  0  0  0  0
   12.1517   -3.1005    0.0000 C   0  0  0  0  0  0  0  0  0  0  0  0
   12.1723   -1.6007    0.0000 H   0  0  0  0  0  0  0  0  0  0  0  0
   14.6840   -6.0900    0.0000 C   0  0  0  0  0  0  0  0  0  0  0  0
   15.1972   -4.6805    0.0000 H   0  0  0  0  0  0  0  0  0  0  0  0
   16.1611   -6.3507    0.0000 H   0  0  0  0  0  0  0  0  0  0  0  0
   14.6836   -8.0700    0.0000 N   0  0  0  0  0  0  0  0  0  0  0  0
   13.3846   -8.8200    0.0000 C   0  0  0  0  0  0  0  0  0  0  0  0
   11.9074   -9.0808    0.0000 H   0  0  0  0  0  0  0  0  0  0  0  0
   12.8714   -7.4105    0.0000 H   0  0  0  0  0  0  0  0  0  0  0  0
   13.3851  -10.3208    0.0000 C   0  0  0  0  0  0  0  0  0  0  0  0
   12.8719  -11.7303    0.0000 H   0  0  0  0  0  0  0  0  0  0  0  0
   11.9078  -10.0605    0.0000 H   0  0  0  0  0  0  0  0  0  0  0  0
   14.6846  -11.0716    0.0000 O   0  0  0  0  0  0  0  0  0  0  0  0
   15.9836  -10.3216    0.0000 C   0  0  0  0  0  0  0  0  0  0  0  0
   17.4608  -10.0609    0.0000 H   0  0  0  0  0  0  0  0  0  0  0  0
   16.4968  -11.7311    0.0000 H   0  0  0  0  0  0  0  0  0  0  0  0
   15.9832   -8.8208    0.0000 C   0  0  0  0  0  0  0  0  0  0  0  0
   16.4963   -7.4113    0.0000 H   0  0  0  0  0  0  0  0  0  0  0  0
   17.4604   -9.0811    0.0000 H   0  0  0  0  0  0  0  0  0  0  0  0
    8.2662    1.5958    0.0000 N   0  0  0  0  0  0  0  0  0  0  0  0
    9.5652    2.3458    0.0000 C   0  0  0  0  0  0  0  0  0  0  0  0
   11.0425    2.6063    0.0000 H   0  0  0  0  0  0  0  0  0  0  0  0
    9.5652    3.8458    0.0000 C   0  0  0  0  0  0  0  0  0  0  0  0
    8.8152    5.1449    0.0000 H   0  0  0  0  0  0  0  0  0  0  0  0
   11.0425    3.5854    0.0000 H   0  0  0  0  0  0  0  0  0  0  0  0
   10.0783    5.2554    0.0000 H   0  0  0  0  0  0  0  0  0  0  0  0
   10.0783    0.9363    0.0000 O   0  0  0  0  0  0  0  0  0  0  0  0
   11.5555    0.6758    0.0000 H   0  0  0  0  0  0  0  0  0  0  0  0
    5.7201    3.0658    0.0000 C   0  0  0  0  0  0  0  0  0  0  0  0
    5.2074    1.6562    0.0000 H   0  0  0  0  0  0  0  0  0  0  0  0
    6.6851    4.2153    0.0000 C   0  0  0  0  0  0  0  0  0  0  0  0
    7.9841    4.9653    0.0000 H   0  0  0  0  0  0  0  0  0  0  0  0
    7.6491    3.0662    0.0000 H   0  0  0  0  0  0  0  0  0  0  0  0
    6.1719    5.6248    0.0000 C   0  0  0  0  0  0  0  0  0  0  0  0
    6.1714    7.1248    0.0000 H   0  0  0  0  0  0  0  0  0  0  0  0
    7.6490    5.8856    0.0000 H   0  0  0  0  0  0  0  0  0  0  0  0
    4.6937    5.8848    0.0000 O   0  0  0  0  0  0  0  0  0  0  0  0
    3.7288    4.7353    0.0000 C   0  0  0  0  0  0  0  0  0  0  0  0
    2.4297    3.9853    0.0000 H   0  0  0  0  0  0  0  0  0  0  0  0
    2.7647    5.8845    0.0000 H   0  0  0  0  0  0  0  0  0  0  0  0
    4.2419    3.3258    0.0000 C   0  0  0  0  0  0  0  0  0  0  0  0
    4.2424    1.8258    0.0000 H   0  0  0  0  0  0  0  0  0  0  0  0
    2.7648    3.0650    0.0000 H   0  0  0  0  0  0  0  0  0  0  0  0
    1.7699   -1.6140    0.0000 C   0  0  0  0  0  0  0  0  0  0  0  0
    3.0690   -0.8640    0.0000 O   0  0  0  0  0  0  0  0  0  0  0  0
    0.4701   -0.8637    0.0000 N   0  0  0  0  0  0  0  0  0  0  0  0
    0.4703    0.6363    0.0000 H   0  0  0  0  0  0  0  0  0  0  0  0
   -0.8301   -1.6135    0.0000 C   0  0  0  0  0  0  0  0  0  0  0  0
   -0.8303   -3.1135    0.0000 C   0  0  0  0  0  0  0  0  0  0  0  0
   -2.1293   -3.8635    0.0000 H   0  0  0  0  0  0  0  0  0  0  0  0
   -2.1289   -0.8631    0.0000 C   0  0  0  0  0  0  0  0  0  0  0  0
   -3.4281   -1.6127    0.0000 H   0  0  0  0  0  0  0  0  0  0  0  0
   -1.1643    0.2856    0.0000 H   0  0  0  0  0  0  0  0  0  0  0  0
   -3.0927    0.2863    0.0000 H   0  0  0  0  0  0  0  0  0  0  0  0
  1  2  1  0  0  0  0 
  1  3  1  0  0  0  0 
  1  4  1  0  0  0  0 
  1  5  1  0  0  0  0 
  5  6  2  0  0  0  0 
  6  7  1  0  0  0  0 
  7  8  1  0  0  0  0 
  7  9  1  0  0  0  0 
  7 10  1  0  0  0  0 
 10 11  1  0  0  0  0 
 10 12  1  0  0  0  0 
 12 13  2  0  0  0  0 
 12 14  1  0  0  0  0 
 14 15  2  0  0  0  0 
 15 16  1  0  0  0  0 
 16 17  1  0  0  0  0 
 16 18  1  0  0  0  0 
 16 19  1  0  0  0  0 
 15 20  1  0  0  0  0 
 20 21  2  0  0  0  0 
 21 22  1  0  0  0  0 
 21 23  1  0  0  0  0 
 23 24  2  0  0  0  0 
 14 24  1  0  0  0  0 
 24 25  1  0  0  0  0 
 23 26  1  0  0  0  0 
 26 27  2  0  0  0  0 
 27 28  1  0  0  0  0 
 27 29  1  0  0  0  0 
 29 30  1  0  0  0  0 
 29 31  2  0  0  0  0 
 31 32  1  0  0  0  0 
 32 33  1  0  0  0  0 
 32 34  2  0  0  0  0 
 26 34  1  0  0  0  0 
 34 35  1  0  0  0  0 
 31 36  1  0  0  0  0 
 36 37  1  0  0  0  0 
 36 38  1  0  0  0  0 
 36 39  1  0  0  0  0 
 39 40  1  0  0  0  0 
 40 41  1  0  0  0  0 
 40 42  1  0  0  0  0 
 40 43  1  0  0  0  0 
 43 44  1  0  0  0  0 
 43 45  1  0  0  0  0 
 43 46  1  0  0  0  0 
 46 47  1  0  0  0  0 
 47 48  1  0  0  0  0 
 47 49  1  0  0  0  0 
 47 50  1  0  0  0  0 
 39 50  1  0  0  0  0 
 50 51  1  0  0  0  0 
 50 52  1  0  0  0  0 
 20 53  1  0  0  0  0 
 53 54  1  0  0  0  0 
 54 55  1  0  0  0  0 
 54 56  1  0  0  0  0 
 56 57  1  0  0  0  0 
 56 58  1  0  0  0  0 
 56 59  1  0  0  0  0 
 54 60  1  0  0  0  0 
 60 61  1  0  0  0  0 
 53 62  1  0  0  0  0 
 62 63  1  0  0  0  0 
 62 64  1  0  0  0  0 
 64 65  1  0  0  0  0 
 64 66  1  0  0  0  0 
 64 67  1  0  0  0  0 
 67 68  1  0  0  0  0 
 67 69  1  0  0  0  0 
 67 70  1  0  0  0  0 
 70 71  1  0  0  0  0 
 71 72  1  0  0  0  0 
 71 73  1  0  0  0  0 
 71 74  1  0  0  0  0 
 62 74  1  0  0  0  0 
 74 75  1  0  0  0  0 
 74 76  1  0  0  0  0 
  6 77  1  0  0  0  0 
 77 78  2  0  0  0  0 
 77 79  1  0  0  0  0 
 79 80  1  0  0  0  0 
 79 81  1  0  0  0  0 
 81 82  2  0  0  0  0 
  5 82  1  0  0  0  0 
 82 83  1  0  0  0  0 
 81 84  1  0  0  0  0 
 84 85  1  0  0  0  0 
 84 86  1  0  0  0  0 
 84 87  1  0  0  0  0 
M  END
> <Rank>
28

> <Priority_score>
0.188

> <Reaction_type>
aliphatic hydroxylation

> <Parent_ID>
24

> <Parent_InChI>
InChI=1S/C34H44N4O4/c1-5-38(29-10-14-41-15-11-29)32-20-28(27-8-6-26(7-9-27)22-37-12-16-42-17-13-37)19-30(25(32)4)33(39)35-21-31-23(2)18-24(3)36-34(31)40/h6-9,18-20,29H,5,10-17,21-22H2,1-4H3,(H,35,39)(H,36,40)

> <Parent_SMILES>
CCN(c1cc(-c2ccc(CN3CCOCC3)cc2)cc(C(=O)NCc2c(C)cc(C)[nH]c2=O)c1C)C1CCOCC1

$$$$
Molecule 24_metabolite 32
  CDK     0516241031

 89 92  0  0  0  0  0  0  0  0999 V2000
    0.0365  -19.0384    0.0000 C   0  0  0  0  0  0  0  0  0  0  0  0
   -1.2624  -18.2882    0.0000 H   0  0  0  0  0  0  0  0  0  0  0  0
    1.0005  -20.1877    0.0000 H   0  0  0  0  0  0  0  0  0  0  0  0
   -0.9278  -20.1874    0.0000 H   0  0  0  0  0  0  0  0  0  0  0  0
    1.3357  -18.2887    0.0000 C   0  0  0  0  0  0  0  0  0  0  0  0
    2.8129  -18.0284    0.0000 H   0  0  0  0  0  0  0  0  0  0  0  0
    1.8485  -19.6983    0.0000 H   0  0  0  0  0  0  0  0  0  0  0  0
    1.3359  -16.7887    0.0000 N   0  0  0  0  0  0  0  0  0  0  0  0
   -1.2100  -15.3182    0.0000 C   0  0  0  0  0  0  0  0  0  0  0  0
   -2.6871  -15.0575    0.0000 H   0  0  0  0  0  0  0  0  0  0  0  0
   -1.2097  -13.8182    0.0000 C   0  0  0  0  0  0  0  0  0  0  0  0
    0.2675  -14.0790    0.0000 H   0  0  0  0  0  0  0  0  0  0  0  0
   -0.6965  -12.4088    0.0000 H   0  0  0  0  0  0  0  0  0  0  0  0
   -2.5086  -13.0680    0.0000 C   0  0  0  0  0  0  0  0  0  0  0  0
   -3.4726  -11.9188    0.0000 H   0  0  0  0  0  0  0  0  0  0  0  0
   -1.5443  -11.9191    0.0000 H   0  0  0  0  0  0  0  0  0  0  0  0
   -3.8078  -13.8178    0.0000 O   0  0  0  0  0  0  0  0  0  0  0  0
   -5.1067  -13.0676    0.0000 H   0  0  0  0  0  0  0  0  0  0  0  0
   -1.7232  -16.7277    0.0000 C   0  0  0  0  0  0  0  0  0  0  0  0
   -1.7236  -19.1877    0.0000 H   0  0  0  0  0  0  0  0  0  0  0  0
   -0.2460  -16.9884    0.0000 H   0  0  0  0  0  0  0  0  0  0  0  0
   -3.2005  -16.9879    0.0000 C   0  0  0  0  0  0  0  0  0  0  0  0
   -4.4996  -17.7377    0.0000 H   0  0  0  0  0  0  0  0  0  0  0  0
   -2.6877  -18.3976    0.0000 H   0  0  0  0  0  0  0  0  0  0  0  0
   -4.1645  -15.8387    0.0000 O   0  0  0  0  0  0  0  0  0  0  0  0
   -5.6417  -16.0990    0.0000 H   0  0  0  0  0  0  0  0  0  0  0  0
    2.6351  -16.0389    0.0000 C   0  0  0  0  0  0  0  0  0  0  0  0
    2.6356  -14.5380    0.0000 C   0  0  0  0  0  0  0  0  0  0  0  0
    1.3365  -13.7880    0.0000 H   0  0  0  0  0  0  0  0  0  0  0  0
    3.9351  -13.7872    0.0000 C   0  0  0  0  0  0  0  0  0  0  0  0
    5.2341  -14.5372    0.0000 C   0  0  0  0  0  0  0  0  0  0  0  0
    6.5333  -13.7874    0.0000 H   0  0  0  0  0  0  0  0  0  0  0  0
    5.2336  -16.0380    0.0000 C   0  0  0  0  0  0  0  0  0  0  0  0
    3.9341  -16.7889    0.0000 C   0  0  0  0  0  0  0  0  0  0  0  0
    3.9344  -18.2889    0.0000 C   0  0  0  0  0  0  0  0  0  0  0  0
    2.6354  -19.0391    0.0000 H   0  0  0  0  0  0  0  0  0  0  0  0
    5.4115  -18.0282    0.0000 H   0  0  0  0  0  0  0  0  0  0  0  0
    4.4476  -19.6983    0.0000 H   0  0  0  0  0  0  0  0  0  0  0  0
    6.5327  -16.7880    0.0000 C   0  0  0  0  0  0  0  0  0  0  0  0
    6.5327  -18.2880    0.0000 O   0  0  0  0  0  0  0  0  0  0  0  0
    7.8317  -16.0380    0.0000 N   0  0  0  0  0  0  0  0  0  0  0  0
    7.8317  -14.5380    0.0000 H   0  0  0  0  0  0  0  0  0  0  0  0
    9.1308  -16.7880    0.0000 C   0  0  0  0  0  0  0  0  0  0  0  0
   10.0949  -17.9371    0.0000 H   0  0  0  0  0  0  0  0  0  0  0  0
    8.1666  -17.9371    0.0000 H   0  0  0  0  0  0  0  0  0  0  0  0
   10.4298  -16.0380    0.0000 C   0  0  0  0  0  0  0  0  0  0  0  0
   10.4300  -14.5372    0.0000 C   0  0  0  0  0  0  0  0  0  0  0  0
    9.1309  -13.7874    0.0000 C   0  0  0  0  0  0  0  0  0  0  0  0
    9.1306  -12.2874    0.0000 H   0  0  0  0  0  0  0  0  0  0  0  0
    8.6181  -15.1970    0.0000 H   0  0  0  0  0  0  0  0  0  0  0  0
    7.6536  -13.5272    0.0000 H   0  0  0  0  0  0  0  0  0  0  0  0
   11.7294  -13.7862    0.0000 C   0  0  0  0  0  0  0  0  0  0  0  0
   11.7290  -12.2862    0.0000 H   0  0  0  0  0  0  0  0  0  0  0  0
   13.0286  -14.5359    0.0000 C   0  0  0  0  0  0  0  0  0  0  0  0
   14.3276  -13.7859    0.0000 C   0  0  0  0  0  0  0  0  0  0  0  0
   15.6267  -14.5359    0.0000 H   0  0  0  0  0  0  0  0  0  0  0  0
   13.3635  -12.6369    0.0000 H   0  0  0  0  0  0  0  0  0  0  0  0
   15.2918  -12.6369    0.0000 H   0  0  0  0  0  0  0  0  0  0  0  0
   13.0284  -16.0368    0.0000 N   0  0  0  0  0  0  0  0  0  0  0  0
   14.3275  -16.7866    0.0000 H   0  0  0  0  0  0  0  0  0  0  0  0
   11.7290  -16.7878    0.0000 C   0  0  0  0  0  0  0  0  0  0  0  0
   11.7294  -18.2878    0.0000 O   0  0  0  0  0  0  0  0  0  0  0  0
    3.9348  -12.2872    0.0000 C   0  0  0  0  0  0  0  0  0  0  0  0
    5.1986  -11.5779    0.0000 C   0  0  0  0  0  0  0  0  0  0  0  0
    6.4779  -12.3611    0.0000 H   0  0  0  0  0  0  0  0  0  0  0  0
    5.2567  -10.0990    0.0000 C   0  0  0  0  0  0  0  0  0  0  0  0
    6.5657   -9.3665    0.0000 H   0  0  0  0  0  0  0  0  0  0  0  0
    3.9499   -9.3661    0.0000 C   0  0  0  0  0  0  0  0  0  0  0  0
    2.6861  -10.0754    0.0000 C   0  0  0  0  0  0  0  0  0  0  0  0
    1.4068   -9.2922    0.0000 H   0  0  0  0  0  0  0  0  0  0  0  0
    2.6280  -11.5543    0.0000 C   0  0  0  0  0  0  0  0  0  0  0  0
    1.3190  -12.2868    0.0000 H   0  0  0  0  0  0  0  0  0  0  0  0
    3.9496   -7.3861    0.0000 C   0  0  0  0  0  0  0  0  0  0  0  0
    5.4268   -7.6464    0.0000 H   0  0  0  0  0  0  0  0  0  0  0  0
    4.4624   -5.9765    0.0000 H   0  0  0  0  0  0  0  0  0  0  0  0
    2.2347   -6.3964    0.0000 N   0  0  0  0  0  0  0  0  0  0  0  0
    0.9356   -7.1464    0.0000 C   0  0  0  0  0  0  0  0  0  0  0  0
   -0.0288   -8.2953    0.0000 H   0  0  0  0  0  0  0  0  0  0  0  0
    1.8997   -8.2956    0.0000 H   0  0  0  0  0  0  0  0  0  0  0  0
   -0.3639   -6.3956    0.0000 C   0  0  0  0  0  0  0  0  0  0  0  0
   -1.8411   -6.1353    0.0000 H   0  0  0  0  0  0  0  0  0  0  0  0
   -0.8771   -7.8051    0.0000 H   0  0  0  0  0  0  0  0  0  0  0  0
   -0.3644   -4.8948    0.0000 O   0  0  0  0  0  0  0  0  0  0  0  0
    0.9347   -4.1448    0.0000 C   0  0  0  0  0  0  0  0  0  0  0  0
    1.8991   -2.9959    0.0000 H   0  0  0  0  0  0  0  0  0  0  0  0
   -0.0294   -2.9956    0.0000 H   0  0  0  0  0  0  0  0  0  0  0  0
    2.2342   -4.8956    0.0000 C   0  0  0  0  0  0  0  0  0  0  0  0
    3.7114   -5.1559    0.0000 H   0  0  0  0  0  0  0  0  0  0  0  0
    2.7474   -3.4861    0.0000 H   0  0  0  0  0  0  0  0  0  0  0  0
  1  2  1  0  0  0  0 
  1  3  1  0  0  0  0 
  1  4  1  0  0  0  0 
  1  5  1  0  0  0  0 
  5  6  1  0  0  0  0 
  5  7  1  0  0  0  0 
  5  8  1  0  0  0  0 
  8  9  1  0  0  0  0 
  9 10  1  0  0  0  0 
  9 11  1  0  0  0  0 
 11 12  1  0  0  0  0 
 11 13  1  0  0  0  0 
 11 14  1  0  0  0  0 
 14 15  1  0  0  0  0 
 14 16  1  0  0  0  0 
 14 17  1  0  0  0  0 
 17 18  1  0  0  0  0 
  9 19  1  0  0  0  0 
 19 20  1  0  0  0  0 
 19 21  1  0  0  0  0 
 19 22  1  0  0  0  0 
 22 23  1  0  0  0  0 
 22 24  1  0  0  0  0 
 22 25  1  0  0  0  0 
 25 26  1  0  0  0  0 
  8 27  1  0  0  0  0 
 27 28  2  0  0  0  0 
 28 29  1  0  0  0  0 
 28 30  1  0  0  0  0 
 30 31  2  0  0  0  0 
 31 32  1  0  0  0  0 
 31 33  1  0  0  0  0 
 33 34  2  0  0  0  0 
 27 34  1  0  0  0  0 
 34 35  1  0  0  0  0 
 35 36  1  0  0  0  0 
 35 37  1  0  0  0  0 
 35 38  1  0  0  0  0 
 33 39  1  0  0  0  0 
 39 40  2  0  0  0  0 
 39 41  1  0  0  0  0 
 41 42  1  0  0  0  0 
 41 43  1  0  0  0  0 
 43 44  1  0  0  0  0 
 43 45  1  0  0  0  0 
 43 46  1  0  0  0  0 
 46 47  2  0  0  0  0 
 47 48  1  0  0  0  0 
 48 49  1  0  0  0  0 
 48 50  1  0  0  0  0 
 48 51  1  0  0  0  0 
 47 52  1  0  0  0  0 
 52 53  1  0  0  0  0 
 52 54  2  0  0  0  0 
 54 55  1  0  0  0  0 
 55 56  1  0  0  0  0 
 55 57  1  0  0  0  0 
 55 58  1  0  0  0  0 
 54 59  1  0  0  0  0 
 59 60  1  0  0  0  0 
 59 61  1  0  0  0  0 
 46 61  1  0  0  0  0 
 61 62  2  0  0  0  0 
 30 63  1  0  0  0  0 
 63 64  2  0  0  0  0 
 64 65  1  0  0  0  0 
 64 66  1  0  0  0  0 
 66 67  1  0  0  0  0 
 66 68  2  0  0  0  0 
 68 69  1  0  0  0  0 
 69 70  1  0  0  0  0 
 69 71  2  0  0  0  0 
 63 71  1  0  0  0  0 
 71 72  1  0  0  0  0 
 68 73  1  0  0  0  0 
 73 74  1  0  0  0  0 
 73 75  1  0  0  0  0 
 73 76  1  0  0  0  0 
 76 77  1  0  0  0  0 
 77 78  1  0  0  0  0 
 77 79  1  0  0  0  0 
 77 80  1  0  0  0  0 
 80 81  1  0  0  0  0 
 80 82  1  0  0  0  0 
 80 83  1  0  0  0  0 
 83 84  1  0  0  0  0 
 84 85  1  0  0  0  0 
 84 86  1  0  0  0  0 
 84 87  1  0  0  0  0 
 76 87  1  0  0  0  0 
 87 88  1  0  0  0  0 
 87 89  1  0  0  0  0 
M  END
> <Rank>
32

> <Priority_score>
0.168

> <Reaction_type>
O-dealkylation_(aliphatic)

> <Parent_ID>
24

> <Parent_InChI>
InChI=1S/C34H44N4O4/c1-5-38(29-10-14-41-15-11-29)32-20-28(27-8-6-26(7-9-27)22-37-12-16-42-17-13-37)19-30(25(32)4)33(39)35-21-31-23(2)18-24(3)36-34(31)40/h6-9,18-20,29H,5,10-17,21-22H2,1-4H3,(H,35,39)(H,36,40)

> <Parent_SMILES>
CCN(c1cc(-c2ccc(CN3CCOCC3)cc2)cc(C(=O)NCc2c(C)cc(C)[nH]c2=O)c1C)C1CCOCC1

$$$$
Molecule 24_metabolite 33
  CDK     0516241031

 87 90  0  0  0  0  0  0  0  0999 V2000
   -0.4985  -19.0384    0.0000 C   0  0  0  0  0  0  0  0  0  0  0  0
   -1.7974  -18.2882    0.0000 H   0  0  0  0  0  0  0  0  0  0  0  0
    0.4655  -20.1877    0.0000 H   0  0  0  0  0  0  0  0  0  0  0  0
   -1.4628  -20.1874    0.0000 H   0  0  0  0  0  0  0  0  0  0  0  0
    0.8007  -18.2887    0.0000 C   0  0  0  0  0  0  0  0  0  0  0  0
    2.2779  -18.0284    0.0000 H   0  0  0  0  0  0  0  0  0  0  0  0
    1.3135  -19.6983    0.0000 H   0  0  0  0  0  0  0  0  0  0  0  0
    0.8009  -16.7887    0.0000 N   0  0  0  0  0  0  0  0  0  0  0  0
   -1.7450  -15.3182    0.0000 C   0  0  0  0  0  0  0  0  0  0  0  0
   -3.2221  -15.0575    0.0000 H   0  0  0  0  0  0  0  0  0  0  0  0
   -2.2582  -16.7277    0.0000 C   0  0  0  0  0  0  0  0  0  0  0  0
   -2.2586  -19.1877    0.0000 H   0  0  0  0  0  0  0  0  0  0  0  0
   -0.7810  -16.9884    0.0000 H   0  0  0  0  0  0  0  0  0  0  0  0
   -3.7355  -16.9879    0.0000 C   0  0  0  0  0  0  0  0  0  0  0  0
   -4.6995  -15.8387    0.0000 H   0  0  0  0  0  0  0  0  0  0  0  0
   -4.2487  -18.3974    0.0000 O   0  0  0  0  0  0  0  0  0  0  0  0
   -1.7447  -13.8182    0.0000 C   0  0  0  0  0  0  0  0  0  0  0  0
   -0.2675  -14.0790    0.0000 H   0  0  0  0  0  0  0  0  0  0  0  0
   -1.2315  -12.4088    0.0000 H   0  0  0  0  0  0  0  0  0  0  0  0
   -3.0436  -13.0680    0.0000 C   0  0  0  0  0  0  0  0  0  0  0  0
   -4.0076  -11.9188    0.0000 H   0  0  0  0  0  0  0  0  0  0  0  0
   -2.0793  -11.9191    0.0000 H   0  0  0  0  0  0  0  0  0  0  0  0
   -4.3428  -13.8178    0.0000 O   0  0  0  0  0  0  0  0  0  0  0  0
   -5.6417  -13.0676    0.0000 H   0  0  0  0  0  0  0  0  0  0  0  0
    2.1001  -16.0389    0.0000 C   0  0  0  0  0  0  0  0  0  0  0  0
    2.1006  -14.5380    0.0000 C   0  0  0  0  0  0  0  0  0  0  0  0
    0.8015  -13.7880    0.0000 H   0  0  0  0  0  0  0  0  0  0  0  0
    3.4001  -13.7872    0.0000 C   0  0  0  0  0  0  0  0  0  0  0  0
    4.6991  -14.5372    0.0000 C   0  0  0  0  0  0  0  0  0  0  0  0
    5.9983  -13.7874    0.0000 H   0  0  0  0  0  0  0  0  0  0  0  0
    4.6986  -16.0380    0.0000 C   0  0  0  0  0  0  0  0  0  0  0  0
    3.3991  -16.7889    0.0000 C   0  0  0  0  0  0  0  0  0  0  0  0
    3.3994  -18.2889    0.0000 C   0  0  0  0  0  0  0  0  0  0  0  0
    2.1004  -19.0391    0.0000 H   0  0  0  0  0  0  0  0  0  0  0  0
    4.8765  -18.0282    0.0000 H   0  0  0  0  0  0  0  0  0  0  0  0
    3.9126  -19.6983    0.0000 H   0  0  0  0  0  0  0  0  0  0  0  0
    5.9977  -16.7880    0.0000 C   0  0  0  0  0  0  0  0  0  0  0  0
    5.9977  -18.2880    0.0000 O   0  0  0  0  0  0  0  0  0  0  0  0
    7.2967  -16.0380    0.0000 N   0  0  0  0  0  0  0  0  0  0  0  0
    7.2967  -14.5380    0.0000 H   0  0  0  0  0  0  0  0  0  0  0  0
    8.5958  -16.7880    0.0000 C   0  0  0  0  0  0  0  0  0  0  0  0
    9.5599  -17.9371    0.0000 H   0  0  0  0  0  0  0  0  0  0  0  0
    7.6316  -17.9371    0.0000 H   0  0  0  0  0  0  0  0  0  0  0  0
    9.8948  -16.0380    0.0000 C   0  0  0  0  0  0  0  0  0  0  0  0
    9.8950  -14.5372    0.0000 C   0  0  0  0  0  0  0  0  0  0  0  0
    8.5959  -13.7874    0.0000 C   0  0  0  0  0  0  0  0  0  0  0  0
    8.5956  -12.2874    0.0000 H   0  0  0  0  0  0  0  0  0  0  0  0
    8.0831  -15.1970    0.0000 H   0  0  0  0  0  0  0  0  0  0  0  0
    7.1186  -13.5272    0.0000 H   0  0  0  0  0  0  0  0  0  0  0  0
   11.1944  -13.7862    0.0000 C   0  0  0  0  0  0  0  0  0  0  0  0
   11.1939  -12.2862    0.0000 H   0  0  0  0  0  0  0  0  0  0  0  0
   12.4936  -14.5359    0.0000 C   0  0  0  0  0  0  0  0  0  0  0  0
   13.7926  -13.7859    0.0000 C   0  0  0  0  0  0  0  0  0  0  0  0
   15.0917  -14.5359    0.0000 H   0  0  0  0  0  0  0  0  0  0  0  0
   12.8284  -12.6369    0.0000 H   0  0  0  0  0  0  0  0  0  0  0  0
   14.7568  -12.6369    0.0000 H   0  0  0  0  0  0  0  0  0  0  0  0
   12.4933  -16.0368    0.0000 N   0  0  0  0  0  0  0  0  0  0  0  0
   13.7925  -16.7866    0.0000 H   0  0  0  0  0  0  0  0  0  0  0  0
   11.1939  -16.7878    0.0000 C   0  0  0  0  0  0  0  0  0  0  0  0
   11.1944  -18.2878    0.0000 O   0  0  0  0  0  0  0  0  0  0  0  0
    3.3998  -12.2872    0.0000 C   0  0  0  0  0  0  0  0  0  0  0  0
    4.6636  -11.5779    0.0000 C   0  0  0  0  0  0  0  0  0  0  0  0
    5.9429  -12.3611    0.0000 H   0  0  0  0  0  0  0  0  0  0  0  0
    4.7217  -10.0990    0.0000 C   0  0  0  0  0  0  0  0  0  0  0  0
    6.0307   -9.3665    0.0000 H   0  0  0  0  0  0  0  0  0  0  0  0
    3.4149   -9.3661    0.0000 C   0  0  0  0  0  0  0  0  0  0  0  0
    2.1511  -10.0754    0.0000 C   0  0  0  0  0  0  0  0  0  0  0  0
    0.8718   -9.2922    0.0000 H   0  0  0  0  0  0  0  0  0  0  0  0
    2.0930  -11.5543    0.0000 C   0  0  0  0  0  0  0  0  0  0  0  0
    0.7840  -12.2868    0.0000 H   0  0  0  0  0  0  0  0  0  0  0  0
    3.4146   -7.3861    0.0000 C   0  0  0  0  0  0  0  0  0  0  0  0
    4.8918   -7.6464    0.0000 H   0  0  0  0  0  0  0  0  0  0  0  0
    3.9274   -5.9765    0.0000 H   0  0  0  0  0  0  0  0  0  0  0  0
    1.6997   -6.3964    0.0000 N   0  0  0  0  0  0  0  0  0  0  0  0
    0.4006   -7.1464    0.0000 C   0  0  0  0  0  0  0  0  0  0  0  0
   -0.5638   -8.2953    0.0000 H   0  0  0  0  0  0  0  0  0  0  0  0
    1.3647   -8.2956    0.0000 H   0  0  0  0  0  0  0  0  0  0  0  0
   -0.8989   -6.3956    0.0000 C   0  0  0  0  0  0  0  0  0  0  0  0
   -2.3761   -6.1353    0.0000 H   0  0  0  0  0  0  0  0  0  0  0  0
   -1.4121   -7.8051    0.0000 H   0  0  0  0  0  0  0  0  0  0  0  0
   -0.8994   -4.8948    0.0000 O   0  0  0  0  0  0  0  0  0  0  0  0
    0.3997   -4.1448    0.0000 C   0  0  0  0  0  0  0  0  0  0  0  0
    1.3641   -2.9959    0.0000 H   0  0  0  0  0  0  0  0  0  0  0  0
   -0.5644   -2.9956    0.0000 H   0  0  0  0  0  0  0  0  0  0  0  0
    1.6992   -4.8956    0.0000 C   0  0  0  0  0  0  0  0  0  0  0  0
    3.1764   -5.1559    0.0000 H   0  0  0  0  0  0  0  0  0  0  0  0
    2.2124   -3.4861    0.0000 H   0  0  0  0  0  0  0  0  0  0  0  0
  1  2  1  0  0  0  0 
  1  3  1  0  0  0  0 
  1  4  1  0  0  0  0 
  1  5  1  0  0  0  0 
  5  6  1  0  0  0  0 
  5  7  1  0  0  0  0 
  5  8  1  0  0  0  0 
  8  9  1  0  0  0  0 
  9 10  1  0  0  0  0 
  9 11  1  0  0  0  0 
 11 12  1  0  0  0  0 
 11 13  1  0  0  0  0 
 11 14  1  0  0  0  0 
 14 15  1  0  0  0  0 
 14 16  2  0  0  0  0 
  9 17  1  0  0  0  0 
 17 18  1  0  0  0  0 
 17 19  1  0  0  0  0 
 17 20  1  0  0  0  0 
 20 21  1  0  0  0  0 
 20 22  1  0  0  0  0 
 20 23  1  0  0  0  0 
 23 24  1  0  0  0  0 
  8 25  1  0  0  0  0 
 25 26  2  0  0  0  0 
 26 27  1  0  0  0  0 
 26 28  1  0  0  0  0 
 28 29  2  0  0  0  0 
 29 30  1  0  0  0  0 
 29 31  1  0  0  0  0 
 31 32  2  0  0  0  0 
 25 32  1  0  0  0  0 
 32 33  1  0  0  0  0 
 33 34  1  0  0  0  0 
 33 35  1  0  0  0  0 
 33 36  1  0  0  0  0 
 31 37  1  0  0  0  0 
 37 38  2  0  0  0  0 
 37 39  1  0  0  0  0 
 39 40  1  0  0  0  0 
 39 41  1  0  0  0  0 
 41 42  1  0  0  0  0 
 41 43  1  0  0  0  0 
 41 44  1  0  0  0  0 
 44 45  2  0  0  0  0 
 45 46  1  0  0  0  0 
 46 47  1  0  0  0  0 
 46 48  1  0  0  0  0 
 46 49  1  0  0  0  0 
 45 50  1  0  0  0  0 
 50 51  1  0  0  0  0 
 50 52  2  0  0  0  0 
 52 53  1  0  0  0  0 
 53 54  1  0  0  0  0 
 53 55  1  0  0  0  0 
 53 56  1  0  0  0  0 
 52 57  1  0  0  0  0 
 57 58  1  0  0  0  0 
 57 59  1  0  0  0  0 
 44 59  1  0  0  0  0 
 59 60  2  0  0  0  0 
 28 61  1  0  0  0  0 
 61 62  2  0  0  0  0 
 62 63  1  0  0  0  0 
 62 64  1  0  0  0  0 
 64 65  1  0  0  0  0 
 64 66  2  0  0  0  0 
 66 67  1  0  0  0  0 
 67 68  1  0  0  0  0 
 67 69  2  0  0  0  0 
 61 69  1  0  0  0  0 
 69 70  1  0  0  0  0 
 66 71  1  0  0  0  0 
 71 72  1  0  0  0  0 
 71 73  1  0  0  0  0 
 71 74  1  0  0  0  0 
 74 75  1  0  0  0  0 
 75 76  1  0  0  0  0 
 75 77  1  0  0  0  0 
 75 78  1  0  0  0  0 
 78 79  1  0  0  0  0 
 78 80  1  0  0  0  0 
 78 81  1  0  0  0  0 
 81 82  1  0  0  0  0 
 82 83  1  0  0  0  0 
 82 84  1  0  0  0  0 
 82 85  1  0  0  0  0 
 74 85  1  0  0  0  0 
 85 86  1  0  0  0  0 
 85 87  1  0  0  0  0 
M  END
> <Rank>
32

> <Priority_score>
0.168

> <Reaction_type>
oxidative ether cleavage to one alcohol and one aldehyde/ketone

> <Parent_ID>
24

> <Parent_InChI>
InChI=1S/C34H44N4O4/c1-5-38(29-10-14-41-15-11-29)32-20-28(27-8-6-26(7-9-27)22-37-12-16-42-17-13-37)19-30(25(32)4)33(39)35-21-31-23(2)18-24(3)36-34(31)40/h6-9,18-20,29H,5,10-17,21-22H2,1-4H3,(H,35,39)(H,36,40)

> <Parent_SMILES>
CCN(c1cc(-c2ccc(CN3CCOCC3)cc2)cc(C(=O)NCc2c(C)cc(C)[nH]c2=O)c1C)C1CCOCC1

$$$$
Molecule 24_metabolite 34
  CDK     0516241031

 87 91  0  0  0  0  0  0  0  0999 V2000
   11.2341    3.6429    0.0000 C   0  0  0  0  0  0  0  0  0  0  0  0
   11.9839    2.3438    0.0000 H   0  0  0  0  0  0  0  0  0  0  0  0
   10.9738    5.1202    0.0000 H   0  0  0  0  0  0  0  0  0  0  0  0
   12.6437    4.1557    0.0000 H   0  0  0  0  0  0  0  0  0  0  0  0
    9.7341    3.6432    0.0000 C   0  0  0  0  0  0  0  0  0  0  0  0
    9.9948    5.1204    0.0000 H   0  0  0  0  0  0  0  0  0  0  0  0
    8.3246    4.1564    0.0000 H   0  0  0  0  0  0  0  0  0  0  0  0
    8.9839    2.3443    0.0000 N   0  0  0  0  0  0  0  0  0  0  0  0
   10.4535   -0.2021    0.0000 C   0  0  0  0  0  0  0  0  0  0  0  0
    9.0437   -0.7146    0.0000 H   0  0  0  0  0  0  0  0  0  0  0  0
   11.6031    0.7627    0.0000 C   0  0  0  0  0  0  0  0  0  0  0  0
   12.8335    2.8929    0.0000 H   0  0  0  0  0  0  0  0  0  0  0  0
   10.4541    1.7269    0.0000 H   0  0  0  0  0  0  0  0  0  0  0  0
   13.0125    0.2493    0.0000 C   0  0  0  0  0  0  0  0  0  0  0  0
   14.5125    0.2486    0.0000 H   0  0  0  0  0  0  0  0  0  0  0  0
   13.2735    1.7264    0.0000 H   0  0  0  0  0  0  0  0  0  0  0  0
   13.2723   -1.2289    0.0000 O   0  0  0  0  0  0  0  0  0  0  0  0
   12.1226   -2.1937    0.0000 C   0  0  0  0  0  0  0  0  0  0  0  0
   11.3724   -3.4926    0.0000 H   0  0  0  0  0  0  0  0  0  0  0  0
   10.7132   -1.6803    0.0000 C   0  0  0  0  0  0  0  0  0  0  0  0
    9.2132   -1.6795    0.0000 H   0  0  0  0  0  0  0  0  0  0  0  0
   10.4522   -3.1574    0.0000 H   0  0  0  0  0  0  0  0  0  0  0  0
   13.2716   -3.1579    0.0000 O   0  0  0  0  0  0  0  0  0  0  0  0
   14.6812   -2.6450    0.0000 H   0  0  0  0  0  0  0  0  0  0  0  0
    7.4839    2.3445    0.0000 C   0  0  0  0  0  0  0  0  0  0  0  0
    6.7330    1.0450    0.0000 C   0  0  0  0  0  0  0  0  0  0  0  0
    7.4830   -0.2541    0.0000 H   0  0  0  0  0  0  0  0  0  0  0  0
    5.2322    1.0445    0.0000 C   0  0  0  0  0  0  0  0  0  0  0  0
    4.4822    2.3435    0.0000 C   0  0  0  0  0  0  0  0  0  0  0  0
    2.9822    2.3438    0.0000 H   0  0  0  0  0  0  0  0  0  0  0  0
    5.2330    3.6431    0.0000 C   0  0  0  0  0  0  0  0  0  0  0  0
    6.7339    3.6435    0.0000 C   0  0  0  0  0  0  0  0  0  0  0  0
    7.4837    4.9427    0.0000 C   0  0  0  0  0  0  0  0  0  0  0  0
    8.9837    4.9429    0.0000 H   0  0  0  0  0  0  0  0  0  0  0  0
    6.0740    5.4555    0.0000 H   0  0  0  0  0  0  0  0  0  0  0  0
    7.7439    6.4200    0.0000 H   0  0  0  0  0  0  0  0  0  0  0  0
    4.4830    4.9421    0.0000 C   0  0  0  0  0  0  0  0  0  0  0  0
    5.2330    6.2411    0.0000 O   0  0  0  0  0  0  0  0  0  0  0  0
    2.9830    4.9421    0.0000 N   0  0  0  0  0  0  0  0  0  0  0  0
    2.2330    3.6431    0.0000 H   0  0  0  0  0  0  0  0  0  0  0  0
    2.2330    6.2411    0.0000 C   0  0  0  0  0  0  0  0  0  0  0  0
    1.9726    7.7184    0.0000 H   0  0  0  0  0  0  0  0  0  0  0  0
    3.6426    6.7542    0.0000 H   0  0  0  0  0  0  0  0  0  0  0  0
    0.7330    6.2411    0.0000 C   0  0  0  0  0  0  0  0  0  0  0  0
   -0.0176    4.9415    0.0000 C   0  0  0  0  0  0  0  0  0  0  0  0
    0.7326    3.6426    0.0000 C   0  0  0  0  0  0  0  0  0  0  0  0
   -0.0172    2.3434    0.0000 H   0  0  0  0  0  0  0  0  0  0  0  0
    1.8815    4.6069    0.0000 H   0  0  0  0  0  0  0  0  0  0  0  0
    1.8818    2.6786    0.0000 H   0  0  0  0  0  0  0  0  0  0  0  0
   -1.5184    4.9408    0.0000 C   0  0  0  0  0  0  0  0  0  0  0  0
   -2.2680    3.6415    0.0000 H   0  0  0  0  0  0  0  0  0  0  0  0
   -2.2686    6.2397    0.0000 C   0  0  0  0  0  0  0  0  0  0  0  0
   -3.7686    6.2397    0.0000 C   0  0  0  0  0  0  0  0  0  0  0  0
   -4.5186    7.5387    0.0000 H   0  0  0  0  0  0  0  0  0  0  0  0
   -3.5082    4.7625    0.0000 H   0  0  0  0  0  0  0  0  0  0  0  0
   -5.1782    5.7267    0.0000 H   0  0  0  0  0  0  0  0  0  0  0  0
   -1.5180    7.5393    0.0000 N   0  0  0  0  0  0  0  0  0  0  0  0
   -2.2682    8.8383    0.0000 H   0  0  0  0  0  0  0  0  0  0  0  0
   -0.0172    7.5401    0.0000 C   0  0  0  0  0  0  0  0  0  0  0  0
    0.7324    8.8393    0.0000 O   0  0  0  0  0  0  0  0  0  0  0  0
    4.4824   -0.2547    0.0000 C   0  0  0  0  0  0  0  0  0  0  0  0
    3.0333   -0.2370    0.0000 C   0  0  0  0  0  0  0  0  0  0  0  0
    2.3170    1.0809    0.0000 H   0  0  0  0  0  0  0  0  0  0  0  0
    2.2435   -1.4887    0.0000 C   0  0  0  0  0  0  0  0  0  0  0  0
    0.7437   -1.4686    0.0000 H   0  0  0  0  0  0  0  0  0  0  0  0
    3.0089   -2.7768    0.0000 C   0  0  0  0  0  0  0  0  0  0  0  0
    4.4579   -2.7945    0.0000 C   0  0  0  0  0  0  0  0  0  0  0  0
    5.1742   -4.1124    0.0000 H   0  0  0  0  0  0  0  0  0  0  0  0
    5.2477   -1.5428    0.0000 C   0  0  0  0  0  0  0  0  0  0  0  0
    6.7476   -1.5629    0.0000 H   0  0  0  0  0  0  0  0  0  0  0  0
    2.0191   -4.4917    0.0000 C   0  0  0  0  0  0  0  0  0  0  0  0
    0.8699   -3.5277    0.0000 H   0  0  0  0  0  0  0  0  0  0  0  0
    0.8702   -5.4561    0.0000 H   0  0  0  0  0  0  0  0  0  0  0  0
    3.0094   -6.2063    0.0000 N   0  0  0  0  0  0  0  0  0  0  0  0
    4.5094   -6.2063    0.0000 C   0  0  0  0  0  0  0  0  0  0  0  0
    5.9191   -5.6936    0.0000 H   0  0  0  0  0  0  0  0  0  0  0  0
    4.2491   -4.7291    0.0000 H   0  0  0  0  0  0  0  0  0  0  0  0
    5.2594   -7.5063    0.0000 C   0  0  0  0  0  0  0  0  0  0  0  0
    6.4086   -8.4704    0.0000 H   0  0  0  0  0  0  0  0  0  0  0  0
    6.4086   -6.5422    0.0000 H   0  0  0  0  0  0  0  0  0  0  0  0
    4.5094   -8.8063    0.0000 O   0  0  0  0  0  0  0  0  0  0  0  0
    3.0094   -8.8063    0.0000 C   0  0  0  0  0  0  0  0  0  0  0  0
    1.5998   -9.3190    0.0000 H   0  0  0  0  0  0  0  0  0  0  0  0
    3.2697  -10.2835    0.0000 H   0  0  0  0  0  0  0  0  0  0  0  0
    2.2594   -7.5063    0.0000 C   0  0  0  0  0  0  0  0  0  0  0  0
    1.1102   -6.5422    0.0000 H   0  0  0  0  0  0  0  0  0  0  0  0
    1.1102   -8.4704    0.0000 H   0  0  0  0  0  0  0  0  0  0  0  0
  1  2  1  0  0  0  0 
  1  3  1  0  0  0  0 
  1  4  1  0  0  0  0 
  1  5  1  0  0  0  0 
  5  6  1  0  0  0  0 
  5  7  1  0  0  0  0 
  5  8  1  0  0  0  0 
  8  9  1  0  0  0  0 
  9 10  1  0  0  0  0 
  9 11  1  0  0  0  0 
 11 12  1  0  0  0  0 
 11 13  1  0  0  0  0 
 11 14  1  0  0  0  0 
 14 15  1  0  0  0  0 
 14 16  1  0  0  0  0 
 14 17  1  0  0  0  0 
 17 18  1  0  0  0  0 
 18 19  1  0  0  0  0 
 18 20  1  0  0  0  0 
  9 20  1  0  0  0  0 
 20 21  1  0  0  0  0 
 20 22  1  0  0  0  0 
 18 23  1  0  0  0  0 
 23 24  1  0  0  0  0 
  8 25  1  0  0  0  0 
 25 26  2  0  0  0  0 
 26 27  1  0  0  0  0 
 26 28  1  0  0  0  0 
 28 29  2  0  0  0  0 
 29 30  1  0  0  0  0 
 29 31  1  0  0  0  0 
 31 32  2  0  0  0  0 
 25 32  1  0  0  0  0 
 32 33  1  0  0  0  0 
 33 34  1  0  0  0  0 
 33 35  1  0  0  0  0 
 33 36  1  0  0  0  0 
 31 37  1  0  0  0  0 
 37 38  2  0  0  0  0 
 37 39  1  0  0  0  0 
 39 40  1  0  0  0  0 
 39 41  1  0  0  0  0 
 41 42  1  0  0  0  0 
 41 43  1  0  0  0  0 
 41 44  1  0  0  0  0 
 44 45  2  0  0  0  0 
 45 46  1  0  0  0  0 
 46 47  1  0  0  0  0 
 46 48  1  0  0  0  0 
 46 49  1  0  0  0  0 
 45 50  1  0  0  0  0 
 50 51  1  0  0  0  0 
 50 52  2  0  0  0  0 
 52 53  1  0  0  0  0 
 53 54  1  0  0  0  0 
 53 55  1  0  0  0  0 
 53 56  1  0  0  0  0 
 52 57  1  0  0  0  0 
 57 58  1  0  0  0  0 
 57 59  1  0  0  0  0 
 44 59  1  0  0  0  0 
 59 60  2  0  0  0  0 
 28 61  1  0  0  0  0 
 61 62  2  0  0  0  0 
 62 63  1  0  0  0  0 
 62 64  1  0  0  0  0 
 64 65  1  0  0  0  0 
 64 66  2  0  0  0  0 
 66 67  1  0  0  0  0 
 67 68  1  0  0  0  0 
 67 69  2  0  0  0  0 
 61 69  1  0  0  0  0 
 69 70  1  0  0  0  0 
 66 71  1  0  0  0  0 
 71 72  1  0  0  0  0 
 71 73  1  0  0  0  0 
 71 74  1  0  0  0  0 
 74 75  1  0  0  0  0 
 75 76  1  0  0  0  0 
 75 77  1  0  0  0  0 
 75 78  1  0  0  0  0 
 78 79  1  0  0  0  0 
 78 80  1  0  0  0  0 
 78 81  1  0  0  0  0 
 81 82  1  0  0  0  0 
 82 83  1  0  0  0  0 
 82 84  1  0  0  0  0 
 82 85  1  0  0  0  0 
 74 85  1  0  0  0  0 
 85 86  1  0  0  0  0 
 85 87  1  0  0  0  0 
M  END
> <Rank>
32

> <Priority_score>
0.168

> <Reaction_type>
aliphatic hydroxylation

> <Parent_ID>
24

> <Parent_InChI>
InChI=1S/C34H44N4O4/c1-5-38(29-10-14-41-15-11-29)32-20-28(27-8-6-26(7-9-27)22-37-12-16-42-17-13-37)19-30(25(32)4)33(39)35-21-31-23(2)18-24(3)36-34(31)40/h6-9,18-20,29H,5,10-17,21-22H2,1-4H3,(H,35,39)(H,36,40)

> <Parent_SMILES>
CCN(c1cc(-c2ccc(CN3CCOCC3)cc2)cc(C(=O)NCc2c(C)cc(C)[nH]c2=O)c1C)C1CCOCC1

$$$$
Molecule 24_metabolite 35
  CDK     0516241031

 87 91  0  0  0  0  0  0  0  0999 V2000
   11.3184    3.7273    0.0000 C   0  0  0  0  0  0  0  0  0  0  0  0
   12.0682    2.4281    0.0000 H   0  0  0  0  0  0  0  0  0  0  0  0
   11.0582    5.2045    0.0000 H   0  0  0  0  0  0  0  0  0  0  0  0
   12.7280    4.2401    0.0000 H   0  0  0  0  0  0  0  0  0  0  0  0
    9.8184    3.7275    0.0000 C   0  0  0  0  0  0  0  0  0  0  0  0
   10.0791    5.2047    0.0000 H   0  0  0  0  0  0  0  0  0  0  0  0
    8.4090    4.2408    0.0000 H   0  0  0  0  0  0  0  0  0  0  0  0
    9.0682    2.4286    0.0000 N   0  0  0  0  0  0  0  0  0  0  0  0
   10.5378   -0.1177    0.0000 C   0  0  0  0  0  0  0  0  0  0  0  0
    9.1281   -0.6302    0.0000 H   0  0  0  0  0  0  0  0  0  0  0  0
   11.6874    0.8470    0.0000 C   0  0  0  0  0  0  0  0  0  0  0  0
   12.9178    2.9773    0.0000 H   0  0  0  0  0  0  0  0  0  0  0  0
   10.5384    1.8113    0.0000 H   0  0  0  0  0  0  0  0  0  0  0  0
   13.0969    0.3336    0.0000 C   0  0  0  0  0  0  0  0  0  0  0  0
   14.5969    0.3329    0.0000 H   0  0  0  0  0  0  0  0  0  0  0  0
   13.3579    1.8107    0.0000 H   0  0  0  0  0  0  0  0  0  0  0  0
   13.3566   -1.1446    0.0000 O   0  0  0  0  0  0  0  0  0  0  0  0
   12.2069   -2.1093    0.0000 C   0  0  0  0  0  0  0  0  0  0  0  0
   11.4567   -3.4083    0.0000 H   0  0  0  0  0  0  0  0  0  0  0  0
   13.3560   -3.0736    0.0000 H   0  0  0  0  0  0  0  0  0  0  0  0
   10.7975   -1.5959    0.0000 C   0  0  0  0  0  0  0  0  0  0  0  0
    9.2975   -1.5952    0.0000 H   0  0  0  0  0  0  0  0  0  0  0  0
   10.5365   -3.0730    0.0000 H   0  0  0  0  0  0  0  0  0  0  0  0
    7.5682    2.4288    0.0000 C   0  0  0  0  0  0  0  0  0  0  0  0
    6.8174    1.1293    0.0000 C   0  0  0  0  0  0  0  0  0  0  0  0
    7.5674   -0.1697    0.0000 H   0  0  0  0  0  0  0  0  0  0  0  0
    5.3165    1.1288    0.0000 C   0  0  0  0  0  0  0  0  0  0  0  0
    4.5665    2.4279    0.0000 C   0  0  0  0  0  0  0  0  0  0  0  0
    3.0665    2.4281    0.0000 H   0  0  0  0  0  0  0  0  0  0  0  0
    5.3174    3.7274    0.0000 C   0  0  0  0  0  0  0  0  0  0  0  0
    6.8182    3.7279    0.0000 C   0  0  0  0  0  0  0  0  0  0  0  0
    7.5680    5.0270    0.0000 C   0  0  0  0  0  0  0  0  0  0  0  0
    9.0680    5.0273    0.0000 H   0  0  0  0  0  0  0  0  0  0  0  0
    6.1584    5.5398    0.0000 H   0  0  0  0  0  0  0  0  0  0  0  0
    7.8282    6.5043    0.0000 H   0  0  0  0  0  0  0  0  0  0  0  0
    4.5674    5.0264    0.0000 C   0  0  0  0  0  0  0  0  0  0  0  0
    5.3174    6.3255    0.0000 O   0  0  0  0  0  0  0  0  0  0  0  0
    3.0674    5.0264    0.0000 N   0  0  0  0  0  0  0  0  0  0  0  0
    2.3174    3.7274    0.0000 H   0  0  0  0  0  0  0  0  0  0  0  0
    2.3174    6.3255    0.0000 C   0  0  0  0  0  0  0  0  0  0  0  0
    2.0569    7.8027    0.0000 H   0  0  0  0  0  0  0  0  0  0  0  0
    0.8174    6.3255    0.0000 C   0  0  0  0  0  0  0  0  0  0  0  0
    0.0667    5.0258    0.0000 C   0  0  0  0  0  0  0  0  0  0  0  0
    0.8170    3.7269    0.0000 C   0  0  0  0  0  0  0  0  0  0  0  0
    0.0672    2.4278    0.0000 H   0  0  0  0  0  0  0  0  0  0  0  0
    1.9659    4.6913    0.0000 H   0  0  0  0  0  0  0  0  0  0  0  0
    1.9662    2.7629    0.0000 H   0  0  0  0  0  0  0  0  0  0  0  0
   -1.4341    5.0251    0.0000 C   0  0  0  0  0  0  0  0  0  0  0  0
   -2.1837    3.7258    0.0000 H   0  0  0  0  0  0  0  0  0  0  0  0
   -2.1843    6.3240    0.0000 C   0  0  0  0  0  0  0  0  0  0  0  0
   -3.6843    6.3240    0.0000 C   0  0  0  0  0  0  0  0  0  0  0  0
   -4.4343    7.6231    0.0000 H   0  0  0  0  0  0  0  0  0  0  0  0
   -3.4238    4.8468    0.0000 H   0  0  0  0  0  0  0  0  0  0  0  0
   -5.0938    5.8110    0.0000 H   0  0  0  0  0  0  0  0  0  0  0  0
   -1.4337    7.6237    0.0000 N   0  0  0  0  0  0  0  0  0  0  0  0
   -2.1839    8.9226    0.0000 H   0  0  0  0  0  0  0  0  0  0  0  0
    0.0672    7.6244    0.0000 C   0  0  0  0  0  0  0  0  0  0  0  0
    0.8167    8.9237    0.0000 O   0  0  0  0  0  0  0  0  0  0  0  0
    3.7269    6.8385    0.0000 O   0  0  0  0  0  0  0  0  0  0  0  0
    3.9874    8.3157    0.0000 H   0  0  0  0  0  0  0  0  0  0  0  0
    4.5667   -0.1703    0.0000 C   0  0  0  0  0  0  0  0  0  0  0  0
    3.1177   -0.1527    0.0000 C   0  0  0  0  0  0  0  0  0  0  0  0
    2.4014    1.1652    0.0000 H   0  0  0  0  0  0  0  0  0  0  0  0
    2.3279   -1.4044    0.0000 C   0  0  0  0  0  0  0  0  0  0  0  0
    0.8280   -1.3843    0.0000 H   0  0  0  0  0  0  0  0  0  0  0  0
    3.0932   -2.6925    0.0000 C   0  0  0  0  0  0  0  0  0  0  0  0
    4.5423   -2.7101    0.0000 C   0  0  0  0  0  0  0  0  0  0  0  0
    5.2586   -4.0280    0.0000 H   0  0  0  0  0  0  0  0  0  0  0  0
    5.3321   -1.4585    0.0000 C   0  0  0  0  0  0  0  0  0  0  0  0
    6.8319   -1.4786    0.0000 H   0  0  0  0  0  0  0  0  0  0  0  0
    2.1035   -4.4074    0.0000 C   0  0  0  0  0  0  0  0  0  0  0  0
    0.9542   -3.4434    0.0000 H   0  0  0  0  0  0  0  0  0  0  0  0
    0.9546   -5.3718    0.0000 H   0  0  0  0  0  0  0  0  0  0  0  0
    3.0937   -6.1220    0.0000 N   0  0  0  0  0  0  0  0  0  0  0  0
    4.5937   -6.1220    0.0000 C   0  0  0  0  0  0  0  0  0  0  0  0
    6.0034   -5.6092    0.0000 H   0  0  0  0  0  0  0  0  0  0  0  0
    4.3334   -4.6447    0.0000 H   0  0  0  0  0  0  0  0  0  0  0  0
    5.3437   -7.4220    0.0000 C   0  0  0  0  0  0  0  0  0  0  0  0
    6.4929   -8.3860    0.0000 H   0  0  0  0  0  0  0  0  0  0  0  0
    6.4929   -6.4579    0.0000 H   0  0  0  0  0  0  0  0  0  0  0  0
    4.5937   -8.7220    0.0000 O   0  0  0  0  0  0  0  0  0  0  0  0
    3.0937   -8.7220    0.0000 C   0  0  0  0  0  0  0  0  0  0  0  0
    1.6841   -9.2347    0.0000 H   0  0  0  0  0  0  0  0  0  0  0  0
    3.3541  -10.1992    0.0000 H   0  0  0  0  0  0  0  0  0  0  0  0
    2.3437   -7.4220    0.0000 C   0  0  0  0  0  0  0  0  0  0  0  0
    1.1946   -6.4579    0.0000 H   0  0  0  0  0  0  0  0  0  0  0  0
    1.1946   -8.3860    0.0000 H   0  0  0  0  0  0  0  0  0  0  0  0
  1  2  1  0  0  0  0 
  1  3  1  0  0  0  0 
  1  4  1  0  0  0  0 
  1  5  1  0  0  0  0 
  5  6  1  0  0  0  0 
  5  7  1  0  0  0  0 
  5  8  1  0  0  0  0 
  8  9  1  0  0  0  0 
  9 10  1  0  0  0  0 
  9 11  1  0  0  0  0 
 11 12  1  0  0  0  0 
 11 13  1  0  0  0  0 
 11 14  1  0  0  0  0 
 14 15  1  0  0  0  0 
 14 16  1  0  0  0  0 
 14 17  1  0  0  0  0 
 17 18  1  0  0  0  0 
 18 19  1  0  0  0  0 
 18 20  1  0  0  0  0 
 18 21  1  0  0  0  0 
  9 21  1  0  0  0  0 
 21 22  1  0  0  0  0 
 21 23  1  0  0  0  0 
  8 24  1  0  0  0  0 
 24 25  2  0  0  0  0 
 25 26  1  0  0  0  0 
 25 27  1  0  0  0  0 
 27 28  2  0  0  0  0 
 28 29  1  0  0  0  0 
 28 30  1  0  0  0  0 
 30 31  2  0  0  0  0 
 24 31  1  0  0  0  0 
 31 32  1  0  0  0  0 
 32 33  1  0  0  0  0 
 32 34  1  0  0  0  0 
 32 35  1  0  0  0  0 
 30 36  1  0  0  0  0 
 36 37  2  0  0  0  0 
 36 38  1  0  0  0  0 
 38 39  1  0  0  0  0 
 38 40  1  0  0  0  0 
 40 41  1  0  0  0  0 
 40 42  1  0  0  0  0 
 42 43  2  0  0  0  0 
 43 44  1  0  0  0  0 
 44 45  1  0  0  0  0 
 44 46  1  0  0  0  0 
 44 47  1  0  0  0  0 
 43 48  1  0  0  0  0 
 48 49  1  0  0  0  0 
 48 50  2  0  0  0  0 
 50 51  1  0  0  0  0 
 51 52  1  0  0  0  0 
 51 53  1  0  0  0  0 
 51 54  1  0  0  0  0 
 50 55  1  0  0  0  0 
 55 56  1  0  0  0  0 
 55 57  1  0  0  0  0 
 42 57  1  0  0  0  0 
 57 58  2  0  0  0  0 
 40 59  1  0  0  0  0 
 59 60  1  0  0  0  0 
 27 61  1  0  0  0  0 
 61 62  2  0  0  0  0 
 62 63  1  0  0  0  0 
 62 64  1  0  0  0  0 
 64 65  1  0  0  0  0 
 64 66  2  0  0  0  0 
 66 67  1  0  0  0  0 
 67 68  1  0  0  0  0 
 67 69  2  0  0  0  0 
 61 69  1  0  0  0  0 
 69 70  1  0  0  0  0 
 66 71  1  0  0  0  0 
 71 72  1  0  0  0  0 
 71 73  1  0  0  0  0 
 71 74  1  0  0  0  0 
 74 75  1  0  0  0  0 
 75 76  1  0  0  0  0 
 75 77  1  0  0  0  0 
 75 78  1  0  0  0  0 
 78 79  1  0  0  0  0 
 78 80  1  0  0  0  0 
 78 81  1  0  0  0  0 
 81 82  1  0  0  0  0 
 82 83  1  0  0  0  0 
 82 84  1  0  0  0  0 
 82 85  1  0  0  0  0 
 74 85  1  0  0  0  0 
 85 86  1  0  0  0  0 
 85 87  1  0  0  0  0 
M  END
> <Rank>
35

> <Priority_score>
0.1589132726401533

> <Reaction_type>
aliphatic hydroxylation

> <Parent_ID>
24

> <Parent_InChI>
InChI=1S/C34H44N4O4/c1-5-38(29-10-14-41-15-11-29)32-20-28(27-8-6-26(7-9-27)22-37-12-16-42-17-13-37)19-30(25(32)4)33(39)35-21-31-23(2)18-24(3)36-34(31)40/h6-9,18-20,29H,5,10-17,21-22H2,1-4H3,(H,35,39)(H,36,40)

> <Parent_SMILES>
CCN(c1cc(-c2ccc(CN3CCOCC3)cc2)cc(C(=O)NCc2c(C)cc(C)[nH]c2=O)c1C)C1CCOCC1

$$$$
Molecule 24_metabolite 36
  CDK     0516241031

 20 20  0  0  0  0  0  0  0  0999 V2000
    0.0000    3.0000    0.0000 C   0  0  0  0  0  0  0  0  0  0  0  0
   -1.2990    3.7500    0.0000 H   0  0  0  0  0  0  0  0  0  0  0  0
    1.4772    2.7395    0.0000 H   0  0  0  0  0  0  0  0  0  0  0  0
    0.5130    4.4095    0.0000 H   0  0  0  0  0  0  0  0  0  0  0  0
   -0.0000    1.5000    0.0000 C   0  0  0  0  0  0  0  0  0  0  0  0
   -1.3000    0.7500    0.0000 C   0  0  0  0  0  0  0  0  0  0  0  0
   -2.5989    1.5002    0.0000 C   0  0  0  0  0  0  0  0  0  0  0  0
   -3.8981    0.7504    0.0000 H   0  0  0  0  0  0  0  0  0  0  0  0
   -2.5987    3.0002    0.0000 O   0  0  0  0  0  0  0  0  0  0  0  0
   -1.3000   -0.7500    0.0000 C   0  0  0  0  0  0  0  0  0  0  0  0
   -2.5989   -1.5002    0.0000 O   0  0  0  0  0  0  0  0  0  0  0  0
   -0.0000   -1.5000    0.0000 N   0  0  0  0  0  0  0  0  0  0  0  0
   -0.0000   -3.0000    0.0000 H   0  0  0  0  0  0  0  0  0  0  0  0
    1.3000   -0.7500    0.0000 C   0  0  0  0  0  0  0  0  0  0  0  0
    1.3000    0.7500    0.0000 C   0  0  0  0  0  0  0  0  0  0  0  0
    2.5989    1.5002    0.0000 H   0  0  0  0  0  0  0  0  0  0  0  0
    2.5989   -1.5002    0.0000 C   0  0  0  0  0  0  0  0  0  0  0  0
    2.5987   -3.0002    0.0000 H   0  0  0  0  0  0  0  0  0  0  0  0
    4.0761   -1.7609    0.0000 H   0  0  0  0  0  0  0  0  0  0  0  0
    3.1122   -0.0908    0.0000 H   0  0  0  0  0  0  0  0  0  0  0  0
  1  2  1  0  0  0  0 
  1  3  1  0  0  0  0 
  1  4  1  0  0  0  0 
  1  5  1  0  0  0  0 
  5  6  2  0  0  0  0 
  6  7  1  0  0  0  0 
  7  8  1  0  0  0  0 
  7  9  2  0  0  0  0 
  6 10  1  0  0  0  0 
 10 11  2  0  0  0  0 
 10 12  1  0  0  0  0 
 12 13  1  0  0  0  0 
 12 14  1  0  0  0  0 
 14 15  2  0  0  0  0 
  5 15  1  0  0  0  0 
 15 16  1  0  0  0  0 
 14 17  1  0  0  0  0 
 17 18  1  0  0  0  0 
 17 19  1  0  0  0  0 
 17 20  1  0  0  0  0 
M  END
> <Rank>
35

> <Priority_score>
0.1589132726401533

> <Reaction_type>
N-dealkylation

> <Parent_ID>
24

> <Parent_InChI>
InChI=1S/C34H44N4O4/c1-5-38(29-10-14-41-15-11-29)32-20-28(27-8-6-26(7-9-27)22-37-12-16-42-17-13-37)19-30(25(32)4)33(39)35-21-31-23(2)18-24(3)36-34(31)40/h6-9,18-20,29H,5,10-17,21-22H2,1-4H3,(H,35,39)(H,36,40)

> <Parent_SMILES>
CCN(c1cc(-c2ccc(CN3CCOCC3)cc2)cc(C(=O)NCc2c(C)cc(C)[nH]c2=O)c1C)C1CCOCC1

$$$$
Molecule 24_metabolite 37
  CDK     0516241031

 87 91  0  0  0  0  0  0  0  0999 V2000
   11.3184    3.7273    0.0000 C   0  0  0  0  0  0  0  0  0  0  0  0
   12.0682    2.4281    0.0000 H   0  0  0  0  0  0  0  0  0  0  0  0
   11.0582    5.2045    0.0000 H   0  0  0  0  0  0  0  0  0  0  0  0
   12.7280    4.2401    0.0000 H   0  0  0  0  0  0  0  0  0  0  0  0
    9.8184    3.7275    0.0000 C   0  0  0  0  0  0  0  0  0  0  0  0
   10.0791    5.2047    0.0000 H   0  0  0  0  0  0  0  0  0  0  0  0
    8.4090    4.2408    0.0000 H   0  0  0  0  0  0  0  0  0  0  0  0
    9.0682    2.4286    0.0000 N   0  0  0  0  0  0  0  0  0  0  0  0
   10.5378   -0.1177    0.0000 C   0  0  0  0  0  0  0  0  0  0  0  0
    9.1281   -0.6302    0.0000 H   0  0  0  0  0  0  0  0  0  0  0  0
   11.6874    0.8470    0.0000 C   0  0  0  0  0  0  0  0  0  0  0  0
   12.9178    2.9773    0.0000 H   0  0  0  0  0  0  0  0  0  0  0  0
   10.5384    1.8113    0.0000 H   0  0  0  0  0  0  0  0  0  0  0  0
   13.0969    0.3336    0.0000 C   0  0  0  0  0  0  0  0  0  0  0  0
   14.5969    0.3329    0.0000 H   0  0  0  0  0  0  0  0  0  0  0  0
   13.3579    1.8107    0.0000 H   0  0  0  0  0  0  0  0  0  0  0  0
   13.3566   -1.1446    0.0000 O   0  0  0  0  0  0  0  0  0  0  0  0
   12.2069   -2.1093    0.0000 C   0  0  0  0  0  0  0  0  0  0  0  0
   11.4567   -3.4083    0.0000 H   0  0  0  0  0  0  0  0  0  0  0  0
   13.3560   -3.0736    0.0000 H   0  0  0  0  0  0  0  0  0  0  0  0
   10.7975   -1.5959    0.0000 C   0  0  0  0  0  0  0  0  0  0  0  0
    9.2975   -1.5952    0.0000 H   0  0  0  0  0  0  0  0  0  0  0  0
   10.5365   -3.0730    0.0000 H   0  0  0  0  0  0  0  0  0  0  0  0
    7.5682    2.4288    0.0000 C   0  0  0  0  0  0  0  0  0  0  0  0
    6.8174    1.1293    0.0000 C   0  0  0  0  0  0  0  0  0  0  0  0
    7.5674   -0.1697    0.0000 H   0  0  0  0  0  0  0  0  0  0  0  0
    5.3165    1.1288    0.0000 C   0  0  0  0  0  0  0  0  0  0  0  0
    4.5665    2.4279    0.0000 C   0  0  0  0  0  0  0  0  0  0  0  0
    3.0665    2.4281    0.0000 H   0  0  0  0  0  0  0  0  0  0  0  0
    5.3174    3.7274    0.0000 C   0  0  0  0  0  0  0  0  0  0  0  0
    6.8182    3.7279    0.0000 C   0  0  0  0  0  0  0  0  0  0  0  0
    7.5680    5.0270    0.0000 C   0  0  0  0  0  0  0  0  0  0  0  0
    9.0680    5.0273    0.0000 H   0  0  0  0  0  0  0  0  0  0  0  0
    6.1584    5.5398    0.0000 H   0  0  0  0  0  0  0  0  0  0  0  0
    7.8282    6.5043    0.0000 H   0  0  0  0  0  0  0  0  0  0  0  0
    4.5674    5.0264    0.0000 C   0  0  0  0  0  0  0  0  0  0  0  0
    5.3174    6.3255    0.0000 O   0  0  0  0  0  0  0  0  0  0  0  0
    3.0674    5.0264    0.0000 N   0  0  0  0  0  0  0  0  0  0  0  0
    2.3174    3.7274    0.0000 H   0  0  0  0  0  0  0  0  0  0  0  0
    2.3174    6.3255    0.0000 C   0  0  0  0  0  0  0  0  0  0  0  0
    2.0569    7.8027    0.0000 H   0  0  0  0  0  0  0  0  0  0  0  0
    3.7269    6.8385    0.0000 H   0  0  0  0  0  0  0  0  0  0  0  0
    0.8174    6.3255    0.0000 C   0  0  0  0  0  0  0  0  0  0  0  0
    0.0667    5.0258    0.0000 C   0  0  0  0  0  0  0  0  0  0  0  0
   -1.4341    5.0251    0.0000 C   0  0  0  0  0  0  0  0  0  0  0  0
   -2.1837    3.7258    0.0000 H   0  0  0  0  0  0  0  0  0  0  0  0
   -2.1843    6.3240    0.0000 C   0  0  0  0  0  0  0  0  0  0  0  0
   -3.6843    6.3240    0.0000 C   0  0  0  0  0  0  0  0  0  0  0  0
   -4.4343    7.6231    0.0000 H   0  0  0  0  0  0  0  0  0  0  0  0
   -3.4238    4.8468    0.0000 H   0  0  0  0  0  0  0  0  0  0  0  0
   -5.0938    5.8110    0.0000 H   0  0  0  0  0  0  0  0  0  0  0  0
   -1.4337    7.6237    0.0000 N   0  0  0  0  0  0  0  0  0  0  0  0
   -2.1839    8.9226    0.0000 H   0  0  0  0  0  0  0  0  0  0  0  0
    0.0672    7.6244    0.0000 C   0  0  0  0  0  0  0  0  0  0  0  0
    0.8167    8.9237    0.0000 O   0  0  0  0  0  0  0  0  0  0  0  0
    0.8170    3.7269    0.0000 C   0  0  0  0  0  0  0  0  0  0  0  0
    1.9659    4.6913    0.0000 H   0  0  0  0  0  0  0  0  0  0  0  0
    1.9662    2.7629    0.0000 H   0  0  0  0  0  0  0  0  0  0  0  0
    0.0672    2.4278    0.0000 O   0  0  0  0  0  0  0  0  0  0  0  0
   -1.4328    2.4275    0.0000 H   0  0  0  0  0  0  0  0  0  0  0  0
    4.5667   -0.1703    0.0000 C   0  0  0  0  0  0  0  0  0  0  0  0
    3.1177   -0.1527    0.0000 C   0  0  0  0  0  0  0  0  0  0  0  0
    2.4014    1.1652    0.0000 H   0  0  0  0  0  0  0  0  0  0  0  0
    2.3279   -1.4044    0.0000 C   0  0  0  0  0  0  0  0  0  0  0  0
    0.8280   -1.3843    0.0000 H   0  0  0  0  0  0  0  0  0  0  0  0
    3.0932   -2.6925    0.0000 C   0  0  0  0  0  0  0  0  0  0  0  0
    4.5423   -2.7101    0.0000 C   0  0  0  0  0  0  0  0  0  0  0  0
    5.2586   -4.0280    0.0000 H   0  0  0  0  0  0  0  0  0  0  0  0
    5.3321   -1.4585    0.0000 C   0  0  0  0  0  0  0  0  0  0  0  0
    6.8319   -1.4786    0.0000 H   0  0  0  0  0  0  0  0  0  0  0  0
    2.1035   -4.4074    0.0000 C   0  0  0  0  0  0  0  0  0  0  0  0
    0.9542   -3.4434    0.0000 H   0  0  0  0  0  0  0  0  0  0  0  0
    0.9546   -5.3718    0.0000 H   0  0  0  0  0  0  0  0  0  0  0  0
    3.0937   -6.1220    0.0000 N   0  0  0  0  0  0  0  0  0  0  0  0
    4.5937   -6.1220    0.0000 C   0  0  0  0  0  0  0  0  0  0  0  0
    6.0034   -5.6092    0.0000 H   0  0  0  0  0  0  0  0  0  0  0  0
    4.3334   -4.6447    0.0000 H   0  0  0  0  0  0  0  0  0  0  0  0
    5.3437   -7.4220    0.0000 C   0  0  0  0  0  0  0  0  0  0  0  0
    6.4929   -8.3860    0.0000 H   0  0  0  0  0  0  0  0  0  0  0  0
    6.4929   -6.4579    0.0000 H   0  0  0  0  0  0  0  0  0  0  0  0
    4.5937   -8.7220    0.0000 O   0  0  0  0  0  0  0  0  0  0  0  0
    3.0937   -8.7220    0.0000 C   0  0  0  0  0  0  0  0  0  0  0  0
    1.6841   -9.2347    0.0000 H   0  0  0  0  0  0  0  0  0  0  0  0
    3.3541  -10.1992    0.0000 H   0  0  0  0  0  0  0  0  0  0  0  0
    2.3437   -7.4220    0.0000 C   0  0  0  0  0  0  0  0  0  0  0  0
    1.1946   -6.4579    0.0000 H   0  0  0  0  0  0  0  0  0  0  0  0
    1.1946   -8.3860    0.0000 H   0  0  0  0  0  0  0  0  0  0  0  0
  1  2  1  0  0  0  0 
  1  3  1  0  0  0  0 
  1  4  1  0  0  0  0 
  1  5  1  0  0  0  0 
  5  6  1  0  0  0  0 
  5  7  1  0  0  0  0 
  5  8  1  0  0  0  0 
  8  9  1  0  0  0  0 
  9 10  1  0  0  0  0 
  9 11  1  0  0  0  0 
 11 12  1  0  0  0  0 
 11 13  1  0  0  0  0 
 11 14  1  0  0  0  0 
 14 15  1  0  0  0  0 
 14 16  1  0  0  0  0 
 14 17  1  0  0  0  0 
 17 18  1  0  0  0  0 
 18 19  1  0  0  0  0 
 18 20  1  0  0  0  0 
 18 21  1  0  0  0  0 
  9 21  1  0  0  0  0 
 21 22  1  0  0  0  0 
 21 23  1  0  0  0  0 
  8 24  1  0  0  0  0 
 24 25  2  0  0  0  0 
 25 26  1  0  0  0  0 
 25 27  1  0  0  0  0 
 27 28  2  0  0  0  0 
 28 29  1  0  0  0  0 
 28 30  1  0  0  0  0 
 30 31  2  0  0  0  0 
 24 31  1  0  0  0  0 
 31 32  1  0  0  0  0 
 32 33  1  0  0  0  0 
 32 34  1  0  0  0  0 
 32 35  1  0  0  0  0 
 30 36  1  0  0  0  0 
 36 37  2  0  0  0  0 
 36 38  1  0  0  0  0 
 38 39  1  0  0  0  0 
 38 40  1  0  0  0  0 
 40 41  1  0  0  0  0 
 40 42  1  0  0  0  0 
 40 43  1  0  0  0  0 
 43 44  2  0  0  0  0 
 44 45  1  0  0  0  0 
 45 46  1  0  0  0  0 
 45 47  2  0  0  0  0 
 47 48  1  0  0  0  0 
 48 49  1  0  0  0  0 
 48 50  1  0  0  0  0 
 48 51  1  0  0  0  0 
 47 52  1  0  0  0  0 
 52 53  1  0  0  0  0 
 52 54  1  0  0  0  0 
 43 54  1  0  0  0  0 
 54 55  2  0  0  0  0 
 44 56  1  0  0  0  0 
 56 57  1  0  0  0  0 
 56 58  1  0  0  0  0 
 56 59  1  0  0  0  0 
 59 60  1  0  0  0  0 
 27 61  1  0  0  0  0 
 61 62  2  0  0  0  0 
 62 63  1  0  0  0  0 
 62 64  1  0  0  0  0 
 64 65  1  0  0  0  0 
 64 66  2  0  0  0  0 
 66 67  1  0  0  0  0 
 67 68  1  0  0  0  0 
 67 69  2  0  0  0  0 
 61 69  1  0  0  0  0 
 69 70  1  0  0  0  0 
 66 71  1  0  0  0  0 
 71 72  1  0  0  0  0 
 71 73  1  0  0  0  0 
 71 74  1  0  0  0  0 
 74 75  1  0  0  0  0 
 75 76  1  0  0  0  0 
 75 77  1  0  0  0  0 
 75 78  1  0  0  0  0 
 78 79  1  0  0  0  0 
 78 80  1  0  0  0  0 
 78 81  1  0  0  0  0 
 81 82  1  0  0  0  0 
 82 83  1  0  0  0  0 
 82 84  1  0  0  0  0 
 82 85  1  0  0  0  0 
 74 85  1  0  0  0  0 
 85 86  1  0  0  0  0 
 85 87  1  0  0  0  0 
M  END
> <Rank>
37

> <Priority_score>
0.11555763604447046

> <Reaction_type>
benzylic_hydroxylation_(c-CH3)

> <Parent_ID>
24

> <Parent_InChI>
InChI=1S/C34H44N4O4/c1-5-38(29-10-14-41-15-11-29)32-20-28(27-8-6-26(7-9-27)22-37-12-16-42-17-13-37)19-30(25(32)4)33(39)35-21-31-23(2)18-24(3)36-34(31)40/h6-9,18-20,29H,5,10-17,21-22H2,1-4H3,(H,35,39)(H,36,40)

> <Parent_SMILES>
CCN(c1cc(-c2ccc(CN3CCOCC3)cc2)cc(C(=O)NCc2c(C)cc(C)[nH]c2=O)c1C)C1CCOCC1

$$$$
Molecule 24_metabolite 38
  CDK     0516241031

 86 90  0  0  0  0  0  0  0  0999 V2000
    9.2780   11.0956    0.0000 C   0  0  0  0  0  0  0  0  0  0  0  0
    7.9788   11.8454    0.0000 H   0  0  0  0  0  0  0  0  0  0  0  0
   10.7552   10.8353    0.0000 H   0  0  0  0  0  0  0  0  0  0  0  0
    9.7908   12.5052    0.0000 H   0  0  0  0  0  0  0  0  0  0  0  0
    9.2782    9.5956    0.0000 C   0  0  0  0  0  0  0  0  0  0  0  0
   10.7554    9.8563    0.0000 H   0  0  0  0  0  0  0  0  0  0  0  0
    9.7915    8.1861    0.0000 H   0  0  0  0  0  0  0  0  0  0  0  0
    7.9793    8.8454    0.0000 N   0  0  0  0  0  0  0  0  0  0  0  0
    5.4330   10.3150    0.0000 C   0  0  0  0  0  0  0  0  0  0  0  0
    4.9205    8.9052    0.0000 H   0  0  0  0  0  0  0  0  0  0  0  0
    6.3977   11.4646    0.0000 C   0  0  0  0  0  0  0  0  0  0  0  0
    8.5280   12.6950    0.0000 H   0  0  0  0  0  0  0  0  0  0  0  0
    7.3620   10.3156    0.0000 H   0  0  0  0  0  0  0  0  0  0  0  0
    5.8843   12.8740    0.0000 C   0  0  0  0  0  0  0  0  0  0  0  0
    5.8836   14.3740    0.0000 H   0  0  0  0  0  0  0  0  0  0  0  0
    7.3614   13.1350    0.0000 H   0  0  0  0  0  0  0  0  0  0  0  0
    4.4061   13.1338    0.0000 O   0  0  0  0  0  0  0  0  0  0  0  0
    3.4414   11.9841    0.0000 C   0  0  0  0  0  0  0  0  0  0  0  0
    2.1424   11.2339    0.0000 H   0  0  0  0  0  0  0  0  0  0  0  0
    2.4771   13.1331    0.0000 H   0  0  0  0  0  0  0  0  0  0  0  0
    3.9548   10.5747    0.0000 C   0  0  0  0  0  0  0  0  0  0  0  0
    3.9555    9.0747    0.0000 H   0  0  0  0  0  0  0  0  0  0  0  0
    2.4777   10.3137    0.0000 H   0  0  0  0  0  0  0  0  0  0  0  0
    7.9795    7.3454    0.0000 C   0  0  0  0  0  0  0  0  0  0  0  0
    6.6800    6.5945    0.0000 C   0  0  0  0  0  0  0  0  0  0  0  0
    5.3810    7.3445    0.0000 H   0  0  0  0  0  0  0  0  0  0  0  0
    6.6795    5.0937    0.0000 C   0  0  0  0  0  0  0  0  0  0  0  0
    7.9786    4.3437    0.0000 C   0  0  0  0  0  0  0  0  0  0  0  0
    7.9788    2.8437    0.0000 H   0  0  0  0  0  0  0  0  0  0  0  0
    9.2781    5.0945    0.0000 C   0  0  0  0  0  0  0  0  0  0  0  0
    9.2786    6.5954    0.0000 C   0  0  0  0  0  0  0  0  0  0  0  0
   10.5777    7.3452    0.0000 C   0  0  0  0  0  0  0  0  0  0  0  0
   10.5780    8.8452    0.0000 H   0  0  0  0  0  0  0  0  0  0  0  0
   11.0905    5.9355    0.0000 H   0  0  0  0  0  0  0  0  0  0  0  0
   12.0550    7.6054    0.0000 H   0  0  0  0  0  0  0  0  0  0  0  0
   10.5771    4.3445    0.0000 C   0  0  0  0  0  0  0  0  0  0  0  0
   11.8762    5.0945    0.0000 O   0  0  0  0  0  0  0  0  0  0  0  0
   10.5771    2.8445    0.0000 N   0  0  0  0  0  0  0  0  0  0  0  0
    9.2781    2.0945    0.0000 H   0  0  0  0  0  0  0  0  0  0  0  0
   11.8762    2.0945    0.0000 C   0  0  0  0  0  0  0  0  0  0  0  0
   13.3534    1.8341    0.0000 H   0  0  0  0  0  0  0  0  0  0  0  0
   12.3892    3.5041    0.0000 H   0  0  0  0  0  0  0  0  0  0  0  0
   11.8762    0.5945    0.0000 C   0  0  0  0  0  0  0  0  0  0  0  0
   13.1758   -0.1561    0.0000 C   0  0  0  0  0  0  0  0  0  0  0  0
   13.1765   -1.6569    0.0000 C   0  0  0  0  0  0  0  0  0  0  0  0
   14.4758   -2.4065    0.0000 H   0  0  0  0  0  0  0  0  0  0  0  0
   11.8776   -2.4071    0.0000 C   0  0  0  0  0  0  0  0  0  0  0  0
   11.8776   -3.9071    0.0000 C   0  0  0  0  0  0  0  0  0  0  0  0
   10.5786   -4.6571    0.0000 H   0  0  0  0  0  0  0  0  0  0  0  0
   13.3548   -3.6467    0.0000 H   0  0  0  0  0  0  0  0  0  0  0  0
   12.3907   -5.3167    0.0000 H   0  0  0  0  0  0  0  0  0  0  0  0
   10.5780   -1.6565    0.0000 N   0  0  0  0  0  0  0  0  0  0  0  0
    9.2791   -2.4067    0.0000 H   0  0  0  0  0  0  0  0  0  0  0  0
   10.5773   -0.1557    0.0000 C   0  0  0  0  0  0  0  0  0  0  0  0
    9.2780    0.5939    0.0000 O   0  0  0  0  0  0  0  0  0  0  0  0
   14.4747    0.5941    0.0000 C   0  0  0  0  0  0  0  0  0  0  0  0
   14.4745    2.0941    0.0000 O   0  0  0  0  0  0  0  0  0  0  0  0
   15.7739   -0.1557    0.0000 O   0  0  0  0  0  0  0  0  0  0  0  0
   15.7741   -1.6557    0.0000 H   0  0  0  0  0  0  0  0  0  0  0  0
    5.3804    4.3439    0.0000 C   0  0  0  0  0  0  0  0  0  0  0  0
    5.3980    2.8948    0.0000 C   0  0  0  0  0  0  0  0  0  0  0  0
    6.7159    2.1785    0.0000 H   0  0  0  0  0  0  0  0  0  0  0  0
    4.1463    2.1050    0.0000 C   0  0  0  0  0  0  0  0  0  0  0  0
    4.1664    0.6052    0.0000 H   0  0  0  0  0  0  0  0  0  0  0  0
    2.8582    2.8704    0.0000 C   0  0  0  0  0  0  0  0  0  0  0  0
    2.8406    4.3194    0.0000 C   0  0  0  0  0  0  0  0  0  0  0  0
    1.5227    5.0358    0.0000 H   0  0  0  0  0  0  0  0  0  0  0  0
    4.0923    5.1092    0.0000 C   0  0  0  0  0  0  0  0  0  0  0  0
    4.0721    6.6091    0.0000 H   0  0  0  0  0  0  0  0  0  0  0  0
    1.1433    1.8806    0.0000 C   0  0  0  0  0  0  0  0  0  0  0  0
    2.1073    0.7314    0.0000 H   0  0  0  0  0  0  0  0  0  0  0  0
    0.1789    0.7317    0.0000 H   0  0  0  0  0  0  0  0  0  0  0  0
   -0.5713    2.8709    0.0000 N   0  0  0  0  0  0  0  0  0  0  0  0
   -0.5713    4.3709    0.0000 C   0  0  0  0  0  0  0  0  0  0  0  0
   -0.0585    5.7806    0.0000 H   0  0  0  0  0  0  0  0  0  0  0  0
    0.9060    4.1106    0.0000 H   0  0  0  0  0  0  0  0  0  0  0  0
   -1.8713    5.1209    0.0000 C   0  0  0  0  0  0  0  0  0  0  0  0
   -2.8353    6.2701    0.0000 H   0  0  0  0  0  0  0  0  0  0  0  0
   -0.9072    6.2701    0.0000 H   0  0  0  0  0  0  0  0  0  0  0  0
   -3.1713    4.3709    0.0000 O   0  0  0  0  0  0  0  0  0  0  0  0
   -3.1713    2.8709    0.0000 C   0  0  0  0  0  0  0  0  0  0  0  0
   -3.6840    1.4613    0.0000 H   0  0  0  0  0  0  0  0  0  0  0  0
   -4.6485    3.1312    0.0000 H   0  0  0  0  0  0  0  0  0  0  0  0
   -1.8713    2.1209    0.0000 C   0  0  0  0  0  0  0  0  0  0  0  0
   -0.9072    0.9717    0.0000 H   0  0  0  0  0  0  0  0  0  0  0  0
   -2.8353    0.9717    0.0000 H   0  0  0  0  0  0  0  0  0  0  0  0
  1  2  1  0  0  0  0 
  1  3  1  0  0  0  0 
  1  4  1  0  0  0  0 
  1  5  1  0  0  0  0 
  5  6  1  0  0  0  0 
  5  7  1  0  0  0  0 
  5  8  1  0  0  0  0 
  8  9  1  0  0  0  0 
  9 10  1  0  0  0  0 
  9 11  1  0  0  0  0 
 11 12  1  0  0  0  0 
 11 13  1  0  0  0  0 
 11 14  1  0  0  0  0 
 14 15  1  0  0  0  0 
 14 16  1  0  0  0  0 
 14 17  1  0  0  0  0 
 17 18  1  0  0  0  0 
 18 19  1  0  0  0  0 
 18 20  1  0  0  0  0 
 18 21  1  0  0  0  0 
  9 21  1  0  0  0  0 
 21 22  1  0  0  0  0 
 21 23  1  0  0  0  0 
  8 24  1  0  0  0  0 
 24 25  2  0  0  0  0 
 25 26  1  0  0  0  0 
 25 27  1  0  0  0  0 
 27 28  2  0  0  0  0 
 28 29  1  0  0  0  0 
 28 30  1  0  0  0  0 
 30 31  2  0  0  0  0 
 24 31  1  0  0  0  0 
 31 32  1  0  0  0  0 
 32 33  1  0  0  0  0 
 32 34  1  0  0  0  0 
 32 35  1  0  0  0  0 
 30 36  1  0  0  0  0 
 36 37  2  0  0  0  0 
 36 38  1  0  0  0  0 
 38 39  1  0  0  0  0 
 38 40  1  0  0  0  0 
 40 41  1  0  0  0  0 
 40 42  1  0  0  0  0 
 40 43  1  0  0  0  0 
 43 44  2  0  0  0  0 
 44 45  1  0  0  0  0 
 45 46  1  0  0  0  0 
 45 47  2  0  0  0  0 
 47 48  1  0  0  0  0 
 48 49  1  0  0  0  0 
 48 50  1  0  0  0  0 
 48 51  1  0  0  0  0 
 47 52  1  0  0  0  0 
 52 53  1  0  0  0  0 
 52 54  1  0  0  0  0 
 43 54  1  0  0  0  0 
 54 55  2  0  0  0  0 
 44 56  1  0  0  0  0 
 56 57  2  0  0  0  0 
 56 58  1  0  0  0  0 
 58 59  1  0  0  0  0 
 27 60  1  0  0  0  0 
 60 61  2  0  0  0  0 
 61 62  1  0  0  0  0 
 61 63  1  0  0  0  0 
 63 64  1  0  0  0  0 
 63 65  2  0  0  0  0 
 65 66  1  0  0  0  0 
 66 67  1  0  0  0  0 
 66 68  2  0  0  0  0 
 60 68  1  0  0  0  0 
 68 69  1  0  0  0  0 
 65 70  1  0  0  0  0 
 70 71  1  0  0  0  0 
 70 72  1  0  0  0  0 
 70 73  1  0  0  0  0 
 73 74  1  0  0  0  0 
 74 75  1  0  0  0  0 
 74 76  1  0  0  0  0 
 74 77  1  0  0  0  0 
 77 78  1  0  0  0  0 
 77 79  1  0  0  0  0 
 77 80  1  0  0  0  0 
 80 81  1  0  0  0  0 
 81 82  1  0  0  0  0 
 81 83  1  0  0  0  0 
 81 84  1  0  0  0  0 
 73 84  1  0  0  0  0 
 84 85  1  0  0  0  0 
 84 86  1  0  0  0  0 
M  END
> <Rank>
37

> <Priority_score>
0.11555763604447046

> <Reaction_type>
carboxylation_(benzylic_CH3)

> <Parent_ID>
24

> <Parent_InChI>
InChI=1S/C34H44N4O4/c1-5-38(29-10-14-41-15-11-29)32-20-28(27-8-6-26(7-9-27)22-37-12-16-42-17-13-37)19-30(25(32)4)33(39)35-21-31-23(2)18-24(3)36-34(31)40/h6-9,18-20,29H,5,10-17,21-22H2,1-4H3,(H,35,39)(H,36,40)

> <Parent_SMILES>
CCN(c1cc(-c2ccc(CN3CCOCC3)cc2)cc(C(=O)NCc2c(C)cc(C)[nH]c2=O)c1C)C1CCOCC1

$$$$
Molecule 24_metabolite 39
  CDK     0516241031

 85 89  0  0  0  0  0  0  0  0999 V2000
   11.7341    3.3116    0.0000 C   0  0  0  0  0  0  0  0  0  0  0  0
   12.4839    2.0124    0.0000 H   0  0  0  0  0  0  0  0  0  0  0  0
   11.4739    4.7888    0.0000 H   0  0  0  0  0  0  0  0  0  0  0  0
   13.1437    3.8244    0.0000 H   0  0  0  0  0  0  0  0  0  0  0  0
   10.2341    3.3118    0.0000 C   0  0  0  0  0  0  0  0  0  0  0  0
   10.4948    4.7890    0.0000 H   0  0  0  0  0  0  0  0  0  0  0  0
    8.8246    3.8251    0.0000 H   0  0  0  0  0  0  0  0  0  0  0  0
    9.4839    2.0129    0.0000 N   0  0  0  0  0  0  0  0  0  0  0  0
   10.9535   -0.5334    0.0000 C   0  0  0  0  0  0  0  0  0  0  0  0
    9.5438   -1.0459    0.0000 H   0  0  0  0  0  0  0  0  0  0  0  0
   12.1031    0.4313    0.0000 C   0  0  0  0  0  0  0  0  0  0  0  0
   13.3335    2.5616    0.0000 H   0  0  0  0  0  0  0  0  0  0  0  0
   10.9541    1.3956    0.0000 H   0  0  0  0  0  0  0  0  0  0  0  0
   13.5125   -0.0821    0.0000 C   0  0  0  0  0  0  0  0  0  0  0  0
   15.0125   -0.0828    0.0000 H   0  0  0  0  0  0  0  0  0  0  0  0
   13.7736    1.3950    0.0000 H   0  0  0  0  0  0  0  0  0  0  0  0
   13.7723   -1.5603    0.0000 O   0  0  0  0  0  0  0  0  0  0  0  0
   12.6226   -2.5250    0.0000 C   0  0  0  0  0  0  0  0  0  0  0  0
   11.8724   -3.8239    0.0000 H   0  0  0  0  0  0  0  0  0  0  0  0
   13.7717   -3.4893    0.0000 H   0  0  0  0  0  0  0  0  0  0  0  0
   11.2132   -2.0116    0.0000 C   0  0  0  0  0  0  0  0  0  0  0  0
    9.7132   -2.0109    0.0000 H   0  0  0  0  0  0  0  0  0  0  0  0
   10.9522   -3.4887    0.0000 H   0  0  0  0  0  0  0  0  0  0  0  0
    7.9839    2.0132    0.0000 C   0  0  0  0  0  0  0  0  0  0  0  0
    7.2331    0.7136    0.0000 C   0  0  0  0  0  0  0  0  0  0  0  0
    7.9831   -0.5854    0.0000 H   0  0  0  0  0  0  0  0  0  0  0  0
    5.7322    0.7132    0.0000 C   0  0  0  0  0  0  0  0  0  0  0  0
    4.9822    2.0122    0.0000 C   0  0  0  0  0  0  0  0  0  0  0  0
    3.4822    2.0124    0.0000 H   0  0  0  0  0  0  0  0  0  0  0  0
    5.7331    3.3117    0.0000 C   0  0  0  0  0  0  0  0  0  0  0  0
    7.2339    3.3122    0.0000 C   0  0  0  0  0  0  0  0  0  0  0  0
    7.9837    4.6113    0.0000 C   0  0  0  0  0  0  0  0  0  0  0  0
    9.4837    4.6116    0.0000 H   0  0  0  0  0  0  0  0  0  0  0  0
    6.5741    5.1242    0.0000 H   0  0  0  0  0  0  0  0  0  0  0  0
    8.2439    6.0886    0.0000 H   0  0  0  0  0  0  0  0  0  0  0  0
    4.9831    4.6107    0.0000 C   0  0  0  0  0  0  0  0  0  0  0  0
    5.7331    5.9098    0.0000 O   0  0  0  0  0  0  0  0  0  0  0  0
    3.4831    4.6107    0.0000 N   0  0  0  0  0  0  0  0  0  0  0  0
    2.7331    3.3117    0.0000 H   0  0  0  0  0  0  0  0  0  0  0  0
    2.7331    5.9098    0.0000 C   0  0  0  0  0  0  0  0  0  0  0  0
    2.4726    7.3870    0.0000 H   0  0  0  0  0  0  0  0  0  0  0  0
    4.1426    6.4228    0.0000 H   0  0  0  0  0  0  0  0  0  0  0  0
    1.2331    5.9098    0.0000 C   0  0  0  0  0  0  0  0  0  0  0  0
    0.4824    4.6101    0.0000 C   0  0  0  0  0  0  0  0  0  0  0  0
    1.2326    3.3112    0.0000 C   0  0  0  0  0  0  0  0  0  0  0  0
    0.4829    2.0121    0.0000 H   0  0  0  0  0  0  0  0  0  0  0  0
    2.3816    4.2756    0.0000 H   0  0  0  0  0  0  0  0  0  0  0  0
    2.3819    2.3472    0.0000 H   0  0  0  0  0  0  0  0  0  0  0  0
   -1.0184    4.6094    0.0000 C   0  0  0  0  0  0  0  0  0  0  0  0
   -1.7680    3.3101    0.0000 H   0  0  0  0  0  0  0  0  0  0  0  0
   -1.7686    5.9083    0.0000 C   0  0  0  0  0  0  0  0  0  0  0  0
   -3.2686    5.9083    0.0000 C   0  0  0  0  0  0  0  0  0  0  0  0
   -4.0186    7.2074    0.0000 H   0  0  0  0  0  0  0  0  0  0  0  0
   -3.0081    4.4311    0.0000 H   0  0  0  0  0  0  0  0  0  0  0  0
   -4.6781    5.3953    0.0000 H   0  0  0  0  0  0  0  0  0  0  0  0
   -1.0180    7.2080    0.0000 N   0  0  0  0  0  0  0  0  0  0  0  0
   -1.7682    8.5069    0.0000 H   0  0  0  0  0  0  0  0  0  0  0  0
    0.4829    7.2087    0.0000 C   0  0  0  0  0  0  0  0  0  0  0  0
    1.2324    8.5080    0.0000 O   0  0  0  0  0  0  0  0  0  0  0  0
    4.9824   -0.5860    0.0000 C   0  0  0  0  0  0  0  0  0  0  0  0
    3.5334   -0.5684    0.0000 C   0  0  0  0  0  0  0  0  0  0  0  0
    2.8170    0.7495    0.0000 H   0  0  0  0  0  0  0  0  0  0  0  0
    2.7436   -1.8201    0.0000 C   0  0  0  0  0  0  0  0  0  0  0  0
    1.2437   -1.8000    0.0000 H   0  0  0  0  0  0  0  0  0  0  0  0
    3.5089   -3.1082    0.0000 C   0  0  0  0  0  0  0  0  0  0  0  0
    4.9580   -3.1258    0.0000 C   0  0  0  0  0  0  0  0  0  0  0  0
    5.6743   -4.4437    0.0000 H   0  0  0  0  0  0  0  0  0  0  0  0
    5.7477   -1.8741    0.0000 C   0  0  0  0  0  0  0  0  0  0  0  0
    7.2476   -1.8942    0.0000 H   0  0  0  0  0  0  0  0  0  0  0  0
    2.7591   -4.4074    0.0000 C   0  0  0  0  0  0  0  0  0  0  0  0
    1.2591   -4.4076    0.0000 H   0  0  0  0  0  0  0  0  0  0  0  0
    3.5093   -5.7063    0.0000 N   0  0  0  0  0  0  0  0  0  0  0  0
    5.0093   -5.7063    0.0000 C   0  0  0  0  0  0  0  0  0  0  0  0
    6.4190   -5.1935    0.0000 H   0  0  0  0  0  0  0  0  0  0  0  0
    4.7490   -4.2290    0.0000 H   0  0  0  0  0  0  0  0  0  0  0  0
    5.7593   -7.0063    0.0000 C   0  0  0  0  0  0  0  0  0  0  0  0
    6.9085   -7.9703    0.0000 H   0  0  0  0  0  0  0  0  0  0  0  0
    6.9085   -6.0422    0.0000 H   0  0  0  0  0  0  0  0  0  0  0  0
    5.0093   -8.3063    0.0000 O   0  0  0  0  0  0  0  0  0  0  0  0
    3.5093   -8.3063    0.0000 C   0  0  0  0  0  0  0  0  0  0  0  0
    2.0997   -8.8190    0.0000 H   0  0  0  0  0  0  0  0  0  0  0  0
    3.7696   -9.7835    0.0000 H   0  0  0  0  0  0  0  0  0  0  0  0
    2.7593   -7.0063    0.0000 C   0  0  0  0  0  0  0  0  0  0  0  0
    1.6101   -6.0422    0.0000 H   0  0  0  0  0  0  0  0  0  0  0  0
    1.6101   -7.9703    0.0000 H   0  0  0  0  0  0  0  0  0  0  0  0
  1  2  1  0  0  0  0 
  1  3  1  0  0  0  0 
  1  4  1  0  0  0  0 
  1  5  1  0  0  0  0 
  5  6  1  0  0  0  0 
  5  7  1  0  0  0  0 
  5  8  1  0  0  0  0 
  8  9  1  0  0  0  0 
  9 10  1  0  0  0  0 
  9 11  1  0  0  0  0 
 11 12  1  0  0  0  0 
 11 13  1  0  0  0  0 
 11 14  1  0  0  0  0 
 14 15  1  0  0  0  0 
 14 16  1  0  0  0  0 
 14 17  1  0  0  0  0 
 17 18  1  0  0  0  0 
 18 19  1  0  0  0  0 
 18 20  1  0  0  0  0 
 18 21  1  0  0  0  0 
  9 21  1  0  0  0  0 
 21 22  1  0  0  0  0 
 21 23  1  0  0  0  0 
  8 24  1  0  0  0  0 
 24 25  2  0  0  0  0 
 25 26  1  0  0  0  0 
 25 27  1  0  0  0  0 
 27 28  2  0  0  0  0 
 28 29  1  0  0  0  0 
 28 30  1  0  0  0  0 
 30 31  2  0  0  0  0 
 24 31  1  0  0  0  0 
 31 32  1  0  0  0  0 
 32 33  1  0  0  0  0 
 32 34  1  0  0  0  0 
 32 35  1  0  0  0  0 
 30 36  1  0  0  0  0 
 36 37  2  0  0  0  0 
 36 38  1  0  0  0  0 
 38 39  1  0  0  0  0 
 38 40  1  0  0  0  0 
 40 41  1  0  0  0  0 
 40 42  1  0  0  0  0 
 40 43  1  0  0  0  0 
 43 44  2  0  0  0  0 
 44 45  1  0  0  0  0 
 45 46  1  0  0  0  0 
 45 47  1  0  0  0  0 
 45 48  1  0  0  0  0 
 44 49  1  0  0  0  0 
 49 50  1  0  0  0  0 
 49 51  2  0  0  0  0 
 51 52  1  0  0  0  0 
 52 53  1  0  0  0  0 
 52 54  1  0  0  0  0 
 52 55  1  0  0  0  0 
 51 56  1  0  0  0  0 
 56 57  1  0  0  0  0 
 56 58  1  0  0  0  0 
 43 58  1  0  0  0  0 
 58 59  2  0  0  0  0 
 27 60  1  0  0  0  0 
 60 61  2  0  0  0  0 
 61 62  1  0  0  0  0 
 61 63  1  0  0  0  0 
 63 64  1  0  0  0  0 
 63 65  2  0  0  0  0 
 65 66  1  0  0  0  0 
 66 67  1  0  0  0  0 
 66 68  2  0  0  0  0 
 60 68  1  0  0  0  0 
 68 69  1  0  0  0  0 
 65 70  1  0  0  0  0 
 70 71  1  4  0  0  0 
 70 72  2  0  0  0  0 
 72 73  1  0  0  0  0 
 73 74  1  0  0  0  0 
 73 75  1  0  0  0  0 
 73 76  1  0  0  0  0 
 76 77  1  0  0  0  0 
 76 78  1  0  0  0  0 
 76 79  1  0  0  0  0 
 79 80  1  0  0  0  0 
 80 81  1  0  0  0  0 
 80 82  1  0  0  0  0 
 80 83  1  0  0  0  0 
 72 83  1  0  0  0  0 
 83 84  1  0  0  0  0 
 83 85  1  0  0  0  0 
M  CHG  1  72   1
M  END
> <Rank>
39

> <Priority_score>
0.09664067439409905

> <Reaction_type>
dehydration of N-C bond

> <Parent_ID>
24

> <Parent_InChI>
InChI=1S/C34H44N4O4/c1-5-38(29-10-14-41-15-11-29)32-20-28(27-8-6-26(7-9-27)22-37-12-16-42-17-13-37)19-30(25(32)4)33(39)35-21-31-23(2)18-24(3)36-34(31)40/h6-9,18-20,29H,5,10-17,21-22H2,1-4H3,(H,35,39)(H,36,40)

> <Parent_SMILES>
CCN(c1cc(-c2ccc(CN3CCOCC3)cc2)cc(C(=O)NCc2c(C)cc(C)[nH]c2=O)c1C)C1CCOCC1

$$$$
Molecule 24_metabolite 40
  CDK     0516241031

106111  0  0  0  0  0  0  0  0999 V2000
    9.2808   -6.7537    0.0000 C   0  0  0  0  0  0  0  0  0  0  0  0
    7.9817   -7.5035    0.0000 H   0  0  0  0  0  0  0  0  0  0  0  0
   10.7581   -6.4934    0.0000 H   0  0  0  0  0  0  0  0  0  0  0  0
    9.7936   -8.1633    0.0000 H   0  0  0  0  0  0  0  0  0  0  0  0
    9.2811   -5.2537    0.0000 C   0  0  0  0  0  0  0  0  0  0  0  0
   10.7583   -5.5144    0.0000 H   0  0  0  0  0  0  0  0  0  0  0  0
    9.7943   -3.8442    0.0000 H   0  0  0  0  0  0  0  0  0  0  0  0
    7.9822   -4.5035    0.0000 N   0  0  0  0  0  0  0  0  0  0  0  0
    5.4358   -5.9730    0.0000 C   0  0  0  0  0  0  0  0  0  0  0  0
    4.9233   -4.5633    0.0000 H   0  0  0  0  0  0  0  0  0  0  0  0
    6.4006   -7.1227    0.0000 C   0  0  0  0  0  0  0  0  0  0  0  0
    8.5308   -8.3530    0.0000 H   0  0  0  0  0  0  0  0  0  0  0  0
    7.3648   -5.9737    0.0000 H   0  0  0  0  0  0  0  0  0  0  0  0
    5.8872   -8.5321    0.0000 C   0  0  0  0  0  0  0  0  0  0  0  0
    5.8865  -10.0321    0.0000 H   0  0  0  0  0  0  0  0  0  0  0  0
    7.3643   -8.7931    0.0000 H   0  0  0  0  0  0  0  0  0  0  0  0
    4.4090   -8.7918    0.0000 O   0  0  0  0  0  0  0  0  0  0  0  0
    3.4442   -7.6422    0.0000 C   0  0  0  0  0  0  0  0  0  0  0  0
    2.1453   -6.8920    0.0000 H   0  0  0  0  0  0  0  0  0  0  0  0
    2.4800   -8.7912    0.0000 H   0  0  0  0  0  0  0  0  0  0  0  0
    3.9576   -6.2328    0.0000 C   0  0  0  0  0  0  0  0  0  0  0  0
    3.9584   -4.7328    0.0000 H   0  0  0  0  0  0  0  0  0  0  0  0
    2.4805   -5.9718    0.0000 H   0  0  0  0  0  0  0  0  0  0  0  0
    7.9824   -3.0035    0.0000 C   0  0  0  0  0  0  0  0  0  0  0  0
    6.6829   -2.2526    0.0000 C   0  0  0  0  0  0  0  0  0  0  0  0
    5.3839   -3.0026    0.0000 H   0  0  0  0  0  0  0  0  0  0  0  0
    6.6824   -0.7518    0.0000 C   0  0  0  0  0  0  0  0  0  0  0  0
    7.9814   -0.0018    0.0000 C   0  0  0  0  0  0  0  0  0  0  0  0
    7.9817    1.4982    0.0000 H   0  0  0  0  0  0  0  0  0  0  0  0
    9.2810   -0.7526    0.0000 C   0  0  0  0  0  0  0  0  0  0  0  0
    9.2814   -2.2535    0.0000 C   0  0  0  0  0  0  0  0  0  0  0  0
   10.5806   -3.0032    0.0000 C   0  0  0  0  0  0  0  0  0  0  0  0
   10.5808   -4.5032    0.0000 H   0  0  0  0  0  0  0  0  0  0  0  0
   11.0934   -1.5936    0.0000 H   0  0  0  0  0  0  0  0  0  0  0  0
   12.0579   -3.2635    0.0000 H   0  0  0  0  0  0  0  0  0  0  0  0
   10.5800   -0.0026    0.0000 C   0  0  0  0  0  0  0  0  0  0  0  0
   11.8790   -0.7526    0.0000 O   0  0  0  0  0  0  0  0  0  0  0  0
   10.5800    1.4974    0.0000 N   0  0  0  0  0  0  0  0  0  0  0  0
    9.2810    2.2474    0.0000 H   0  0  0  0  0  0  0  0  0  0  0  0
   11.8790    2.2474    0.0000 C   0  0  0  0  0  0  0  0  0  0  0  0
   13.3563    2.5079    0.0000 H   0  0  0  0  0  0  0  0  0  0  0  0
   12.3921    0.8378    0.0000 H   0  0  0  0  0  0  0  0  0  0  0  0
   11.8790    3.7474    0.0000 C   0  0  0  0  0  0  0  0  0  0  0  0
   10.5794    4.4980    0.0000 C   0  0  0  0  0  0  0  0  0  0  0  0
    9.2805    3.7478    0.0000 C   0  0  0  0  0  0  0  0  0  0  0  0
    7.9813    4.4976    0.0000 H   0  0  0  0  0  0  0  0  0  0  0  0
   10.2448    2.5989    0.0000 H   0  0  0  0  0  0  0  0  0  0  0  0
    8.3165    2.5986    0.0000 H   0  0  0  0  0  0  0  0  0  0  0  0
   10.5787    5.9988    0.0000 C   0  0  0  0  0  0  0  0  0  0  0  0
    9.2794    6.7484    0.0000 H   0  0  0  0  0  0  0  0  0  0  0  0
   11.8776    6.7490    0.0000 C   0  0  0  0  0  0  0  0  0  0  0  0
   11.8776    8.2490    0.0000 C   0  0  0  0  0  0  0  0  0  0  0  0
   13.1766    8.9990    0.0000 H   0  0  0  0  0  0  0  0  0  0  0  0
   10.4004    7.9886    0.0000 H   0  0  0  0  0  0  0  0  0  0  0  0
   11.3646    9.6586    0.0000 H   0  0  0  0  0  0  0  0  0  0  0  0
   13.1772    5.9984    0.0000 N   0  0  0  0  0  0  0  0  0  0  0  0
   13.1780    4.4976    0.0000 C   0  0  0  0  0  0  0  0  0  0  0  0
   14.4772    3.7480    0.0000 O   0  0  0  0  0  0  0  0  0  0  0  0
   14.4762    6.7486    0.0000 C   0  0  0  0  0  0  0  0  0  0  0  0
   13.5119    7.8976    0.0000 H   0  0  0  0  0  0  0  0  0  0  0  0
   15.4404    7.8976    0.0000 C   0  0  0  0  0  0  0  0  0  0  0  0
   14.1415    8.6479    0.0000 H   0  0  0  0  0  0  0  0  0  0  0  0
   16.9183    7.6365    0.0000 C   0  0  0  0  0  0  0  0  0  0  0  0
   16.9186    9.1365    0.0000 H   0  0  0  0  0  0  0  0  0  0  0  0
   17.4320    6.2263    0.0000 C   0  0  0  0  0  0  0  0  0  0  0  0
   18.7309    6.9765    0.0000 H   0  0  0  0  0  0  0  0  0  0  0  0
   16.4678    5.0773    0.0000 C   0  0  0  0  0  0  0  0  0  0  0  0
   17.7667    4.3271    0.0000 H   0  0  0  0  0  0  0  0  0  0  0  0
   15.7901    3.2169    0.0000 C   0  0  0  0  0  0  0  0  0  0  0  0
   14.3128    2.9568    0.0000 O   0  0  0  0  0  0  0  0  0  0  0  0
   16.7540    2.0675    0.0000 O   0  0  0  0  0  0  0  0  0  0  0  0
   18.2312    2.3276    0.0000 H   0  0  0  0  0  0  0  0  0  0  0  0
   14.9898    5.3384    0.0000 O   0  0  0  0  0  0  0  0  0  0  0  0
   18.3963    5.0773    0.0000 O   0  0  0  0  0  0  0  0  0  0  0  0
   19.8735    5.3378    0.0000 H   0  0  0  0  0  0  0  0  0  0  0  0
   18.3955    7.8970    0.0000 O   0  0  0  0  0  0  0  0  0  0  0  0
   18.9085    9.3066    0.0000 H   0  0  0  0  0  0  0  0  0  0  0  0
   15.9538    9.3070    0.0000 O   0  0  0  0  0  0  0  0  0  0  0  0
   14.9899   10.4564    0.0000 H   0  0  0  0  0  0  0  0  0  0  0  0
    5.3832   -0.0020    0.0000 C   0  0  0  0  0  0  0  0  0  0  0  0
    5.4009    1.4471    0.0000 C   0  0  0  0  0  0  0  0  0  0  0  0
    6.7188    2.1634    0.0000 H   0  0  0  0  0  0  0  0  0  0  0  0
    4.1492    2.2369    0.0000 C   0  0  0  0  0  0  0  0  0  0  0  0
    4.1693    3.7367    0.0000 H   0  0  0  0  0  0  0  0  0  0  0  0
    2.8611    1.4716    0.0000 C   0  0  0  0  0  0  0  0  0  0  0  0
    2.8434    0.0225    0.0000 C   0  0  0  0  0  0  0  0  0  0  0  0
    1.5255   -0.6938    0.0000 H   0  0  0  0  0  0  0  0  0  0  0  0
    4.0951   -0.7673    0.0000 C   0  0  0  0  0  0  0  0  0  0  0  0
    4.0750   -2.2672    0.0000 H   0  0  0  0  0  0  0  0  0  0  0  0
    1.5619    2.2213    0.0000 C   0  0  0  0  0  0  0  0  0  0  0  0
    2.5259    3.3706    0.0000 H   0  0  0  0  0  0  0  0  0  0  0  0
    0.5975    3.3703    0.0000 H   0  0  0  0  0  0  0  0  0  0  0  0
   -0.5683    0.9910    0.0000 N   0  0  0  0  0  0  0  0  0  0  0  0
   -0.5683   -0.5090    0.0000 C   0  0  0  0  0  0  0  0  0  0  0  0
   -0.0556   -1.9186    0.0000 H   0  0  0  0  0  0  0  0  0  0  0  0
    0.9089   -0.2487    0.0000 H   0  0  0  0  0  0  0  0  0  0  0  0
   -1.8683   -1.2590    0.0000 C   0  0  0  0  0  0  0  0  0  0  0  0
   -2.8324   -2.4082    0.0000 H   0  0  0  0  0  0  0  0  0  0  0  0
   -0.9043   -2.4082    0.0000 H   0  0  0  0  0  0  0  0  0  0  0  0
   -3.1683   -0.5090    0.0000 O   0  0  0  0  0  0  0  0  0  0  0  0
   -3.1683    0.9910    0.0000 C   0  0  0  0  0  0  0  0  0  0  0  0
   -3.6811    2.4007    0.0000 H   0  0  0  0  0  0  0  0  0  0  0  0
   -4.6456    0.7307    0.0000 H   0  0  0  0  0  0  0  0  0  0  0  0
   -1.8683    1.7410    0.0000 C   0  0  0  0  0  0  0  0  0  0  0  0
   -0.9043    2.8902    0.0000 H   0  0  0  0  0  0  0  0  0  0  0  0
   -2.8324    2.8902    0.0000 H   0  0  0  0  0  0  0  0  0  0  0  0
  1  2  1  0  0  0  0 
  1  3  1  0  0  0  0 
  1  4  1  0  0  0  0 
  1  5  1  0  0  0  0 
  5  6  1  0  0  0  0 
  5  7  1  0  0  0  0 
  5  8  1  0  0  0  0 
  8  9  1  0  0  0  0 
  9 10  1  0  0  0  0 
  9 11  1  0  0  0  0 
 11 12  1  0  0  0  0 
 11 13  1  0  0  0  0 
 11 14  1  0  0  0  0 
 14 15  1  0  0  0  0 
 14 16  1  0  0  0  0 
 14 17  1  0  0  0  0 
 17 18  1  0  0  0  0 
 18 19  1  0  0  0  0 
 18 20  1  0  0  0  0 
 18 21  1  0  0  0  0 
  9 21  1  0  0  0  0 
 21 22  1  0  0  0  0 
 21 23  1  0  0  0  0 
  8 24  1  0  0  0  0 
 24 25  2  0  0  0  0 
 25 26  1  0  0  0  0 
 25 27  1  0  0  0  0 
 27 28  2  0  0  0  0 
 28 29  1  0  0  0  0 
 28 30  1  0  0  0  0 
 30 31  2  0  0  0  0 
 24 31  1  0  0  0  0 
 31 32  1  0  0  0  0 
 32 33  1  0  0  0  0 
 32 34  1  0  0  0  0 
 32 35  1  0  0  0  0 
 30 36  1  0  0  0  0 
 36 37  2  0  0  0  0 
 36 38  1  0  0  0  0 
 38 39  1  0  0  0  0 
 38 40  1  0  0  0  0 
 40 41  1  0  0  0  0 
 40 42  1  0  0  0  0 
 40 43  1  0  0  0  0 
 43 44  2  0  0  0  0 
 44 45  1  0  0  0  0 
 45 46  1  0  0  0  0 
 45 47  1  0  0  0  0 
 45 48  1  0  0  0  0 
 44 49  1  0  0  0  0 
 49 50  1  0  0  0  0 
 49 51  2  0  0  0  0 
 51 52  1  0  0  0  0 
 52 53  1  0  0  0  0 
 52 54  1  0  0  0  0 
 52 55  1  0  0  0  0 
 51 56  1  0  0  0  0 
 56 57  1  0  0  0  0 
 43 57  1  0  0  0  0 
 57 58  2  0  0  0  0 
 56 59  1  0  0  0  0 
 59 60  1  0  0  0  0 
 59 61  1  0  0  0  0 
 61 62  1  0  0  0  0 
 61 63  1  0  0  0  0 
 63 64  1  0  0  0  0 
 63 65  1  0  0  0  0 
 65 66  1  0  0  0  0 
 65 67  1  0  0  0  0 
 67 68  1  0  0  0  0 
 67 69  1  0  0  0  0 
 69 70  2  0  0  0  0 
 69 71  1  0  0  0  0 
 71 72  1  0  0  0  0 
 67 73  1  0  0  0  0 
 59 73  1  0  0  0  0 
 65 74  1  0  0  0  0 
 74 75  1  0  0  0  0 
 63 76  1  0  0  0  0 
 76 77  1  0  0  0  0 
 61 78  1  0  0  0  0 
 78 79  1  0  0  0  0 
 27 80  1  0  0  0  0 
 80 81  2  0  0  0  0 
 81 82  1  0  0  0  0 
 81 83  1  0  0  0  0 
 83 84  1  0  0  0  0 
 83 85  2  0  0  0  0 
 85 86  1  0  0  0  0 
 86 87  1  0  0  0  0 
 86 88  2  0  0  0  0 
 80 88  1  0  0  0  0 
 88 89  1  0  0  0  0 
 85 90  1  0  0  0  0 
 90 91  1  0  0  0  0 
 90 92  1  0  0  0  0 
 90 93  1  0  0  0  0 
 93 94  1  0  0  0  0 
 94 95  1  0  0  0  0 
 94 96  1  0  0  0  0 
 94 97  1  0  0  0  0 
 97 98  1  0  0  0  0 
 97 99  1  0  0  0  0 
 97100  1  0  0  0  0 
100101  1  0  0  0  0 
101102  1  0  0  0  0 
101103  1  0  0  0  0 
101104  1  0  0  0  0 
 93104  1  0  0  0  0 
104105  1  0  0  0  0 
104106  1  0  0  0  0 
M  END
> <Rank>
40

> <Priority_score>
0.092

> <Reaction_type>
N-glucuronidation_(aromatic_-nH-)

> <Parent_ID>
24

> <Parent_InChI>
InChI=1S/C34H44N4O4/c1-5-38(29-10-14-41-15-11-29)32-20-28(27-8-6-26(7-9-27)22-37-12-16-42-17-13-37)19-30(25(32)4)33(39)35-21-31-23(2)18-24(3)36-34(31)40/h6-9,18-20,29H,5,10-17,21-22H2,1-4H3,(H,35,39)(H,36,40)

> <Parent_SMILES>
CCN(c1cc(-c2ccc(CN3CCOCC3)cc2)cc(C(=O)NCc2c(C)cc(C)[nH]c2=O)c1C)C1CCOCC1

$$$$
Molecule 24_metabolite 41
  CDK     0516241031

 85 89  0  0  0  0  0  0  0  0999 V2000
   16.3780  -19.7958    0.0000 C   0  0  0  0  0  0  0  0  0  0  0  0
   15.0784  -20.5448    0.0000 H   0  0  0  0  0  0  0  0  0  0  0  0
   17.3431  -18.6475    0.0000 H   0  0  0  0  0  0  0  0  0  0  0  0
   15.4147  -18.6460    0.0000 H   0  0  0  0  0  0  0  0  0  0  0  0
   17.6764  -20.5469    0.0000 C   0  0  0  0  0  0  0  0  0  0  0  0
   18.1906  -19.1377    0.0000 H   0  0  0  0  0  0  0  0  0  0  0  0
   19.1534  -20.8085    0.0000 H   0  0  0  0  0  0  0  0  0  0  0  0
   17.6752  -22.0469    0.0000 N   0  0  0  0  0  0  0  0  0  0  0  0
   15.1279  -23.5148    0.0000 C   0  0  0  0  0  0  0  0  0  0  0  0
   16.0914  -24.6645    0.0000 H   0  0  0  0  0  0  0  0  0  0  0  0
   14.6161  -22.1040    0.0000 C   0  0  0  0  0  0  0  0  0  0  0  0
   14.6180  -19.6440    0.0000 H   0  0  0  0  0  0  0  0  0  0  0  0
   16.0935  -21.8448    0.0000 H   0  0  0  0  0  0  0  0  0  0  0  0
   13.1390  -21.8425    0.0000 C   0  0  0  0  0  0  0  0  0  0  0  0
   11.8403  -21.0919    0.0000 H   0  0  0  0  0  0  0  0  0  0  0  0
   13.6529  -20.4332    0.0000 H   0  0  0  0  0  0  0  0  0  0  0  0
   12.1739  -22.9918    0.0000 O   0  0  0  0  0  0  0  0  0  0  0  0
   12.6858  -24.4027    0.0000 C   0  0  0  0  0  0  0  0  0  0  0  0
   12.6846  -25.9027    0.0000 H   0  0  0  0  0  0  0  0  0  0  0  0
   11.2083  -24.6618    0.0000 H   0  0  0  0  0  0  0  0  0  0  0  0
   14.1628  -24.6642    0.0000 C   0  0  0  0  0  0  0  0  0  0  0  0
   15.4615  -25.4148    0.0000 H   0  0  0  0  0  0  0  0  0  0  0  0
   13.6489  -26.0734    0.0000 H   0  0  0  0  0  0  0  0  0  0  0  0
   18.9737  -22.7979    0.0000 C   0  0  0  0  0  0  0  0  0  0  0  0
   18.9727  -24.2987    0.0000 C   0  0  0  0  0  0  0  0  0  0  0  0
   17.6729  -25.0475    0.0000 H   0  0  0  0  0  0  0  0  0  0  0  0
   20.2715  -25.0508    0.0000 C   0  0  0  0  0  0  0  0  0  0  0  0
   21.5713  -24.3021    0.0000 C   0  0  0  0  0  0  0  0  0  0  0  0
   22.8697  -25.0531    0.0000 H   0  0  0  0  0  0  0  0  0  0  0  0
   21.5722  -22.8012    0.0000 C   0  0  0  0  0  0  0  0  0  0  0  0
   20.2734  -22.0492    0.0000 C   0  0  0  0  0  0  0  0  0  0  0  0
   20.2751  -20.5492    0.0000 C   0  0  0  0  0  0  0  0  0  0  0  0
   18.9769  -19.7977    0.0000 H   0  0  0  0  0  0  0  0  0  0  0  0
   21.7520  -20.8113    0.0000 H   0  0  0  0  0  0  0  0  0  0  0  0
   20.7897  -19.1402    0.0000 H   0  0  0  0  0  0  0  0  0  0  0  0
   22.8720  -22.0525    0.0000 C   0  0  0  0  0  0  0  0  0  0  0  0
   22.8734  -20.5525    0.0000 O   0  0  0  0  0  0  0  0  0  0  0  0
   24.1703  -22.8037    0.0000 N   0  0  0  0  0  0  0  0  0  0  0  0
   24.1689  -24.3037    0.0000 H   0  0  0  0  0  0  0  0  0  0  0  0
   25.4701  -22.0550    0.0000 C   0  0  0  0  0  0  0  0  0  0  0  0
   26.4353  -20.9068    0.0000 H   0  0  0  0  0  0  0  0  0  0  0  0
   24.5070  -20.9050    0.0000 H   0  0  0  0  0  0  0  0  0  0  0  0
   26.7684  -22.8062    0.0000 C   0  0  0  0  0  0  0  0  0  0  0  0
   26.7672  -24.3071    0.0000 C   0  0  0  0  0  0  0  0  0  0  0  0
   25.4673  -25.0556    0.0000 C   0  0  0  0  0  0  0  0  0  0  0  0
   25.4656  -26.5556    0.0000 H   0  0  0  0  0  0  0  0  0  0  0  0
   24.9558  -23.6455    0.0000 H   0  0  0  0  0  0  0  0  0  0  0  0
   23.9898  -25.3144    0.0000 H   0  0  0  0  0  0  0  0  0  0  0  0
   28.0658  -25.0594    0.0000 C   0  0  0  0  0  0  0  0  0  0  0  0
   28.0639  -26.5593    0.0000 H   0  0  0  0  0  0  0  0  0  0  0  0
   29.3657  -24.3108    0.0000 C   0  0  0  0  0  0  0  0  0  0  0  0
   30.6640  -25.0621    0.0000 C   0  0  0  0  0  0  0  0  0  0  0  0
   31.9638  -24.3133    0.0000 H   0  0  0  0  0  0  0  0  0  0  0  0
   29.6988  -26.2102    0.0000 H   0  0  0  0  0  0  0  0  0  0  0  0
   31.6271  -26.2120    0.0000 H   0  0  0  0  0  0  0  0  0  0  0  0
   29.3669  -22.8100    0.0000 N   0  0  0  0  0  0  0  0  0  0  0  0
   30.6668  -22.0614    0.0000 H   0  0  0  0  0  0  0  0  0  0  0  0
   28.0682  -22.0577    0.0000 C   0  0  0  0  0  0  0  0  0  0  0  0
   28.0702  -20.5577    0.0000 O   0  0  0  0  0  0  0  0  0  0  0  0
   20.2698  -26.5508    0.0000 C   0  0  0  0  0  0  0  0  0  0  0  0
   21.5329  -27.2613    0.0000 C   0  0  0  0  0  0  0  0  0  0  0  0
   22.8129  -26.4793    0.0000 H   0  0  0  0  0  0  0  0  0  0  0  0
   21.5896  -28.7402    0.0000 C   0  0  0  0  0  0  0  0  0  0  0  0
   22.8979  -29.4740    0.0000 H   0  0  0  0  0  0  0  0  0  0  0  0
   20.2820  -29.4719    0.0000 C   0  0  0  0  0  0  0  0  0  0  0  0
   19.0190  -28.7614    0.0000 C   0  0  0  0  0  0  0  0  0  0  0  0
   17.7389  -29.5434    0.0000 H   0  0  0  0  0  0  0  0  0  0  0  0
   18.9623  -27.2825    0.0000 C   0  0  0  0  0  0  0  0  0  0  0  0
   17.6540  -26.5487    0.0000 H   0  0  0  0  0  0  0  0  0  0  0  0
   20.2804  -30.9719    0.0000 C   0  0  0  0  0  0  0  0  0  0  0  0
   21.7579  -30.7131    0.0000 H   0  0  0  0  0  0  0  0  0  0  0  0
   20.7918  -32.3820    0.0000 H   0  0  0  0  0  0  0  0  0  0  0  0
   18.9805  -31.7204    0.0000 N   0  0  0  0  0  0  0  0  0  0  0  0
   18.9786  -33.2204    0.0000 C   0  0  0  0  0  0  0  0  0  0  0  0
   20.2765  -33.9723    0.0000 H   0  0  0  0  0  0  0  0  0  0  0  0
   17.6776  -33.9688    0.0000 C   0  0  0  0  0  0  0  0  0  0  0  0
   16.7121  -35.1167    0.0000 H   0  0  0  0  0  0  0  0  0  0  0  0
   18.6402  -35.1192    0.0000 H   0  0  0  0  0  0  0  0  0  0  0  0
   16.3786  -33.2171    0.0000 O   0  0  0  0  0  0  0  0  0  0  0  0
   16.3805  -31.7171    0.0000 C   0  0  0  0  0  0  0  0  0  0  0  0
   15.8696  -30.3068    0.0000 H   0  0  0  0  0  0  0  0  0  0  0  0
   14.9029  -31.9755    0.0000 H   0  0  0  0  0  0  0  0  0  0  0  0
   17.6814  -30.9688    0.0000 C   0  0  0  0  0  0  0  0  0  0  0  0
   18.6470  -29.8208    0.0000 H   0  0  0  0  0  0  0  0  0  0  0  0
   16.7189  -29.8184    0.0000 H   0  0  0  0  0  0  0  0  0  0  0  0
  1  2  1  0  0  0  0 
  1  3  1  0  0  0  0 
  1  4  1  0  0  0  0 
  1  5  1  0  0  0  0 
  5  6  1  0  0  0  0 
  5  7  1  0  0  0  0 
  5  8  1  0  0  0  0 
  8  9  1  0  0  0  0 
  9 10  1  0  0  0  0 
  9 11  1  0  0  0  0 
 11 12  1  0  0  0  0 
 11 13  1  0  0  0  0 
 11 14  1  0  0  0  0 
 14 15  1  0  0  0  0 
 14 16  1  0  0  0  0 
 14 17  1  0  0  0  0 
 17 18  1  0  0  0  0 
 18 19  1  0  0  0  0 
 18 20  1  0  0  0  0 
 18 21  1  0  0  0  0 
  9 21  1  0  0  0  0 
 21 22  1  0  0  0  0 
 21 23  1  0  0  0  0 
  8 24  1  0  0  0  0 
 24 25  2  0  0  0  0 
 25 26  1  0  0  0  0 
 25 27  1  0  0  0  0 
 27 28  2  0  0  0  0 
 28 29  1  0  0  0  0 
 28 30  1  0  0  0  0 
 30 31  2  0  0  0  0 
 24 31  1  0  0  0  0 
 31 32  1  0  0  0  0 
 32 33  1  0  0  0  0 
 32 34  1  0  0  0  0 
 32 35  1  0  0  0  0 
 30 36  1  0  0  0  0 
 36 37  2  0  0  0  0 
 36 38  1  0  0  0  0 
 38 39  1  0  0  0  0 
 38 40  1  0  0  0  0 
 40 41  1  0  0  0  0 
 40 42  1  0  0  0  0 
 40 43  1  0  0  0  0 
 43 44  2  0  0  0  0 
 44 45  1  0  0  0  0 
 45 46  1  0  0  0  0 
 45 47  1  0  0  0  0 
 45 48  1  0  0  0  0 
 44 49  1  0  0  0  0 
 49 50  1  0  0  0  0 
 49 51  2  0  0  0  0 
 51 52  1  0  0  0  0 
 52 53  1  0  0  0  0 
 52 54  1  0  0  0  0 
 52 55  1  0  0  0  0 
 51 56  1  0  0  0  0 
 56 57  1  0  0  0  0 
 56 58  1  0  0  0  0 
 43 58  1  0  0  0  0 
 58 59  2  0  0  0  0 
 27 60  1  0  0  0  0 
 60 61  2  0  0  0  0 
 61 62  1  0  0  0  0 
 61 63  1  0  0  0  0 
 63 64  1  0  0  0  0 
 63 65  2  0  0  0  0 
 65 66  1  0  0  0  0 
 66 67  1  0  0  0  0 
 66 68  2  0  0  0  0 
 60 68  1  0  0  0  0 
 68 69  1  0  0  0  0 
 65 70  1  0  0  0  0 
 70 71  1  0  0  0  0 
 70 72  1  0  0  0  0 
 70 73  1  0  0  0  0 
 73 74  2  0  0  0  0 
 74 75  1  0  0  0  0 
 74 76  1  0  0  0  0 
 76 77  1  0  0  0  0 
 76 78  1  0  0  0  0 
 76 79  1  0  0  0  0 
 79 80  1  0  0  0  0 
 80 81  1  0  0  0  0 
 80 82  1  0  0  0  0 
 80 83  1  0  0  0  0 
 73 83  1  0  0  0  0 
 83 84  1  0  0  0  0 
 83 85  1  0  0  0  0 
M  CHG  1  73   1
M  END
> <Rank>
41

> <Priority_score>
0.0656

> <Reaction_type>
dehydration of N-C bond

> <Parent_ID>
24

> <Parent_InChI>
InChI=1S/C34H44N4O4/c1-5-38(29-10-14-41-15-11-29)32-20-28(27-8-6-26(7-9-27)22-37-12-16-42-17-13-37)19-30(25(32)4)33(39)35-21-31-23(2)18-24(3)36-34(31)40/h6-9,18-20,29H,5,10-17,21-22H2,1-4H3,(H,35,39)(H,36,40)

> <Parent_SMILES>
CCN(c1cc(-c2ccc(CN3CCOCC3)cc2)cc(C(=O)NCc2c(C)cc(C)[nH]c2=O)c1C)C1CCOCC1

$$$$
Molecule 24_metabolite 42
  CDK     0516241031

 84 88  0  0  0  0  0  0  0  0999 V2000
   16.3780  -19.7958    0.0000 C   0  0  0  0  0  0  0  0  0  0  0  0
   15.0784  -20.5448    0.0000 H   0  0  0  0  0  0  0  0  0  0  0  0
   17.3431  -18.6475    0.0000 H   0  0  0  0  0  0  0  0  0  0  0  0
   15.4147  -18.6460    0.0000 H   0  0  0  0  0  0  0  0  0  0  0  0
   17.6764  -20.5469    0.0000 C   0  0  0  0  0  0  0  0  0  0  0  0
   18.1906  -19.1377    0.0000 H   0  0  0  0  0  0  0  0  0  0  0  0
   19.1534  -20.8085    0.0000 H   0  0  0  0  0  0  0  0  0  0  0  0
   17.6752  -22.0469    0.0000 N   0  0  0  0  0  0  0  0  0  0  0  0
   15.1279  -23.5148    0.0000 C   0  0  0  0  0  0  0  0  0  0  0  0
   16.0914  -24.6645    0.0000 H   0  0  0  0  0  0  0  0  0  0  0  0
   14.6161  -22.1040    0.0000 C   0  0  0  0  0  0  0  0  0  0  0  0
   14.6180  -19.6440    0.0000 H   0  0  0  0  0  0  0  0  0  0  0  0
   16.0935  -21.8448    0.0000 H   0  0  0  0  0  0  0  0  0  0  0  0
   13.1390  -21.8425    0.0000 C   0  0  0  0  0  0  0  0  0  0  0  0
   11.8403  -21.0919    0.0000 H   0  0  0  0  0  0  0  0  0  0  0  0
   13.6529  -20.4332    0.0000 H   0  0  0  0  0  0  0  0  0  0  0  0
   12.1739  -22.9918    0.0000 O   0  0  0  0  0  0  0  0  0  0  0  0
   12.6858  -24.4027    0.0000 C   0  0  0  0  0  0  0  0  0  0  0  0
   12.6846  -25.9027    0.0000 H   0  0  0  0  0  0  0  0  0  0  0  0
   11.2083  -24.6618    0.0000 H   0  0  0  0  0  0  0  0  0  0  0  0
   14.1628  -24.6642    0.0000 C   0  0  0  0  0  0  0  0  0  0  0  0
   15.4615  -25.4148    0.0000 H   0  0  0  0  0  0  0  0  0  0  0  0
   13.6489  -26.0734    0.0000 H   0  0  0  0  0  0  0  0  0  0  0  0
   18.9737  -22.7979    0.0000 C   0  0  0  0  0  0  0  0  0  0  0  0
   18.9727  -24.2987    0.0000 C   0  0  0  0  0  0  0  0  0  0  0  0
   17.6729  -25.0475    0.0000 H   0  0  0  0  0  0  0  0  0  0  0  0
   20.2715  -25.0508    0.0000 C   0  0  0  0  0  0  0  0  0  0  0  0
   21.5713  -24.3021    0.0000 C   0  0  0  0  0  0  0  0  0  0  0  0
   22.8697  -25.0531    0.0000 H   0  0  0  0  0  0  0  0  0  0  0  0
   21.5722  -22.8012    0.0000 C   0  0  0  0  0  0  0  0  0  0  0  0
   20.2734  -22.0492    0.0000 C   0  0  0  0  0  0  0  0  0  0  0  0
   20.2751  -20.5492    0.0000 C   0  0  0  0  0  0  0  0  0  0  0  0
   18.9769  -19.7977    0.0000 H   0  0  0  0  0  0  0  0  0  0  0  0
   21.7520  -20.8113    0.0000 H   0  0  0  0  0  0  0  0  0  0  0  0
   20.7897  -19.1402    0.0000 H   0  0  0  0  0  0  0  0  0  0  0  0
   22.8720  -22.0525    0.0000 C   0  0  0  0  0  0  0  0  0  0  0  0
   22.8734  -20.5525    0.0000 O   0  0  0  0  0  0  0  0  0  0  0  0
   24.1703  -22.8037    0.0000 N   0  0  0  0  0  0  0  0  0  0  0  0
   24.1689  -24.3037    0.0000 H   0  0  0  0  0  0  0  0  0  0  0  0
   25.4701  -22.0550    0.0000 C   0  0  0  0  0  0  0  0  0  0  0  0
   26.4353  -20.9068    0.0000 H   0  0  0  0  0  0  0  0  0  0  0  0
   24.5070  -20.9050    0.0000 H   0  0  0  0  0  0  0  0  0  0  0  0
   26.7684  -22.8062    0.0000 C   0  0  0  0  0  0  0  0  0  0  0  0
   26.7672  -24.3071    0.0000 C   0  0  0  0  0  0  0  0  0  0  0  0
   25.4673  -25.0556    0.0000 C   0  0  0  0  0  0  0  0  0  0  0  0
   25.4656  -26.5556    0.0000 H   0  0  0  0  0  0  0  0  0  0  0  0
   24.9558  -23.6455    0.0000 H   0  0  0  0  0  0  0  0  0  0  0  0
   23.9898  -25.3144    0.0000 H   0  0  0  0  0  0  0  0  0  0  0  0
   28.0658  -25.0594    0.0000 C   0  0  0  0  0  0  0  0  0  0  0  0
   28.0639  -26.5593    0.0000 H   0  0  0  0  0  0  0  0  0  0  0  0
   29.3657  -24.3108    0.0000 C   0  0  0  0  0  0  0  0  0  0  0  0
   30.6640  -25.0621    0.0000 C   0  0  0  0  0  0  0  0  0  0  0  0
   31.9638  -24.3133    0.0000 H   0  0  0  0  0  0  0  0  0  0  0  0
   29.6988  -26.2102    0.0000 H   0  0  0  0  0  0  0  0  0  0  0  0
   31.6271  -26.2120    0.0000 H   0  0  0  0  0  0  0  0  0  0  0  0
   29.3669  -22.8100    0.0000 N   0  0  0  0  0  0  0  0  0  0  0  0
   30.6668  -22.0614    0.0000 H   0  0  0  0  0  0  0  0  0  0  0  0
   28.0682  -22.0577    0.0000 C   0  0  0  0  0  0  0  0  0  0  0  0
   28.0702  -20.5577    0.0000 O   0  0  0  0  0  0  0  0  0  0  0  0
   20.2698  -26.5508    0.0000 C   0  0  0  0  0  0  0  0  0  0  0  0
   21.5329  -27.2613    0.0000 C   0  0  0  0  0  0  0  0  0  0  0  0
   22.8129  -26.4793    0.0000 H   0  0  0  0  0  0  0  0  0  0  0  0
   21.5896  -28.7402    0.0000 C   0  0  0  0  0  0  0  0  0  0  0  0
   22.8979  -29.4740    0.0000 H   0  0  0  0  0  0  0  0  0  0  0  0
   20.2820  -29.4719    0.0000 C   0  0  0  0  0  0  0  0  0  0  0  0
   19.0190  -28.7614    0.0000 C   0  0  0  0  0  0  0  0  0  0  0  0
   17.7389  -29.5434    0.0000 H   0  0  0  0  0  0  0  0  0  0  0  0
   18.9623  -27.2825    0.0000 C   0  0  0  0  0  0  0  0  0  0  0  0
   17.6540  -26.5487    0.0000 H   0  0  0  0  0  0  0  0  0  0  0  0
   20.2804  -30.9719    0.0000 C   0  0  0  0  0  0  0  0  0  0  0  0
   21.7579  -30.7131    0.0000 H   0  0  0  0  0  0  0  0  0  0  0  0
   20.7918  -32.3820    0.0000 H   0  0  0  0  0  0  0  0  0  0  0  0
   18.9805  -31.7204    0.0000 N   0  0  0  0  0  0  0  0  0  0  0  0
   18.9786  -33.2204    0.0000 C   0  0  0  0  0  0  0  0  0  0  0  0
   20.2765  -33.9723    0.0000 H   0  0  0  0  0  0  0  0  0  0  0  0
   17.6776  -33.9688    0.0000 C   0  0  0  0  0  0  0  0  0  0  0  0
   17.6757  -35.4688    0.0000 H   0  0  0  0  0  0  0  0  0  0  0  0
   16.3786  -33.2171    0.0000 O   0  0  0  0  0  0  0  0  0  0  0  0
   16.3805  -31.7171    0.0000 C   0  0  0  0  0  0  0  0  0  0  0  0
   15.8696  -30.3068    0.0000 H   0  0  0  0  0  0  0  0  0  0  0  0
   14.9029  -31.9755    0.0000 H   0  0  0  0  0  0  0  0  0  0  0  0
   17.6814  -30.9688    0.0000 C   0  0  0  0  0  0  0  0  0  0  0  0
   18.6470  -29.8208    0.0000 H   0  0  0  0  0  0  0  0  0  0  0  0
   16.7189  -29.8184    0.0000 H   0  0  0  0  0  0  0  0  0  0  0  0
  1  2  1  0  0  0  0 
  1  3  1  0  0  0  0 
  1  4  1  0  0  0  0 
  1  5  1  0  0  0  0 
  5  6  1  0  0  0  0 
  5  7  1  0  0  0  0 
  5  8  1  0  0  0  0 
  8  9  1  0  0  0  0 
  9 10  1  0  0  0  0 
  9 11  1  0  0  0  0 
 11 12  1  0  0  0  0 
 11 13  1  0  0  0  0 
 11 14  1  0  0  0  0 
 14 15  1  0  0  0  0 
 14 16  1  0  0  0  0 
 14 17  1  0  0  0  0 
 17 18  1  0  0  0  0 
 18 19  1  0  0  0  0 
 18 20  1  0  0  0  0 
 18 21  1  0  0  0  0 
  9 21  1  0  0  0  0 
 21 22  1  0  0  0  0 
 21 23  1  0  0  0  0 
  8 24  1  0  0  0  0 
 24 25  2  0  0  0  0 
 25 26  1  0  0  0  0 
 25 27  1  0  0  0  0 
 27 28  2  0  0  0  0 
 28 29  1  0  0  0  0 
 28 30  1  0  0  0  0 
 30 31  2  0  0  0  0 
 24 31  1  0  0  0  0 
 31 32  1  0  0  0  0 
 32 33  1  0  0  0  0 
 32 34  1  0  0  0  0 
 32 35  1  0  0  0  0 
 30 36  1  0  0  0  0 
 36 37  2  0  0  0  0 
 36 38  1  0  0  0  0 
 38 39  1  0  0  0  0 
 38 40  1  0  0  0  0 
 40 41  1  0  0  0  0 
 40 42  1  0  0  0  0 
 40 43  1  0  0  0  0 
 43 44  2  0  0  0  0 
 44 45  1  0  0  0  0 
 45 46  1  0  0  0  0 
 45 47  1  0  0  0  0 
 45 48  1  0  0  0  0 
 44 49  1  0  0  0  0 
 49 50  1  0  0  0  0 
 49 51  2  0  0  0  0 
 51 52  1  0  0  0  0 
 52 53  1  0  0  0  0 
 52 54  1  0  0  0  0 
 52 55  1  0  0  0  0 
 51 56  1  0  0  0  0 
 56 57  1  0  0  0  0 
 56 58  1  0  0  0  0 
 43 58  1  0  0  0  0 
 58 59  2  0  0  0  0 
 27 60  1  0  0  0  0 
 60 61  2  0  0  0  0 
 61 62  1  0  0  0  0 
 61 63  1  0  0  0  0 
 63 64  1  0  0  0  0 
 63 65  2  0  0  0  0 
 65 66  1  0  0  0  0 
 66 67  1  0  0  0  0 
 66 68  2  0  0  0  0 
 60 68  1  0  0  0  0 
 68 69  1  0  0  0  0 
 65 70  1  0  0  0  0 
 70 71  1  0  0  0  0 
 70 72  1  0  0  0  0 
 70 73  1  0  0  0  0 
 73 74  1  0  0  0  0 
 74 75  1  0  0  0  0 
 74 76  2  0  0  0  0 
 76 77  1  0  0  0  0 
 76 78  1  0  0  0  0 
 78 79  1  0  0  0  0 
 79 80  1  0  0  0  0 
 79 81  1  0  0  0  0 
 79 82  1  0  0  0  0 
 73 82  1  0  0  0  0 
 82 83  1  0  0  0  0 
 82 84  1  0  0  0  0 
M  END
> <Rank>
41

> <Priority_score>
0.0656

> <Reaction_type>
alkyl dehydrogenation

> <Parent_ID>
24

> <Parent_InChI>
InChI=1S/C34H44N4O4/c1-5-38(29-10-14-41-15-11-29)32-20-28(27-8-6-26(7-9-27)22-37-12-16-42-17-13-37)19-30(25(32)4)33(39)35-21-31-23(2)18-24(3)36-34(31)40/h6-9,18-20,29H,5,10-17,21-22H2,1-4H3,(H,35,39)(H,36,40)

> <Parent_SMILES>
CCN(c1cc(-c2ccc(CN3CCOCC3)cc2)cc(C(=O)NCc2c(C)cc(C)[nH]c2=O)c1C)C1CCOCC1

$$$$
Molecule 24_metabolite 43
  CDK     0516241031

 87 91  0  0  0  0  0  0  0  0999 V2000
   11.3184    3.7273    0.0000 C   0  0  0  0  0  0  0  0  0  0  0  0
   12.0682    2.4281    0.0000 H   0  0  0  0  0  0  0  0  0  0  0  0
   11.0582    5.2045    0.0000 H   0  0  0  0  0  0  0  0  0  0  0  0
   12.7280    4.2401    0.0000 H   0  0  0  0  0  0  0  0  0  0  0  0
    9.8184    3.7275    0.0000 C   0  0  0  0  0  0  0  0  0  0  0  0
   10.0791    5.2047    0.0000 H   0  0  0  0  0  0  0  0  0  0  0  0
    8.4090    4.2408    0.0000 H   0  0  0  0  0  0  0  0  0  0  0  0
    9.0682    2.4286    0.0000 N   0  0  0  0  0  0  0  0  0  0  0  0
   10.5378   -0.1177    0.0000 C   0  0  0  0  0  0  0  0  0  0  0  0
    9.1281   -0.6302    0.0000 H   0  0  0  0  0  0  0  0  0  0  0  0
   11.6874    0.8470    0.0000 C   0  0  0  0  0  0  0  0  0  0  0  0
   12.9178    2.9773    0.0000 H   0  0  0  0  0  0  0  0  0  0  0  0
   10.5384    1.8113    0.0000 H   0  0  0  0  0  0  0  0  0  0  0  0
   13.0969    0.3336    0.0000 C   0  0  0  0  0  0  0  0  0  0  0  0
   14.5969    0.3329    0.0000 H   0  0  0  0  0  0  0  0  0  0  0  0
   13.3579    1.8107    0.0000 H   0  0  0  0  0  0  0  0  0  0  0  0
   13.3566   -1.1446    0.0000 O   0  0  0  0  0  0  0  0  0  0  0  0
   12.2069   -2.1093    0.0000 C   0  0  0  0  0  0  0  0  0  0  0  0
   11.4567   -3.4083    0.0000 H   0  0  0  0  0  0  0  0  0  0  0  0
   13.3560   -3.0736    0.0000 H   0  0  0  0  0  0  0  0  0  0  0  0
   10.7975   -1.5959    0.0000 C   0  0  0  0  0  0  0  0  0  0  0  0
    9.2975   -1.5952    0.0000 H   0  0  0  0  0  0  0  0  0  0  0  0
   10.5365   -3.0730    0.0000 H   0  0  0  0  0  0  0  0  0  0  0  0
    7.5682    2.4288    0.0000 C   0  0  0  0  0  0  0  0  0  0  0  0
    6.8174    1.1293    0.0000 C   0  0  0  0  0  0  0  0  0  0  0  0
    7.5674   -0.1697    0.0000 H   0  0  0  0  0  0  0  0  0  0  0  0
    5.3165    1.1288    0.0000 C   0  0  0  0  0  0  0  0  0  0  0  0
    4.5665    2.4279    0.0000 C   0  0  0  0  0  0  0  0  0  0  0  0
    3.0665    2.4281    0.0000 H   0  0  0  0  0  0  0  0  0  0  0  0
    5.3174    3.7274    0.0000 C   0  0  0  0  0  0  0  0  0  0  0  0
    6.8182    3.7279    0.0000 C   0  0  0  0  0  0  0  0  0  0  0  0
    7.5680    5.0270    0.0000 C   0  0  0  0  0  0  0  0  0  0  0  0
    6.1584    5.5398    0.0000 H   0  0  0  0  0  0  0  0  0  0  0  0
    7.8282    6.5043    0.0000 H   0  0  0  0  0  0  0  0  0  0  0  0
    9.0680    5.0273    0.0000 O   0  0  0  0  0  0  0  0  0  0  0  0
    9.8178    6.3264    0.0000 H   0  0  0  0  0  0  0  0  0  0  0  0
    4.5674    5.0264    0.0000 C   0  0  0  0  0  0  0  0  0  0  0  0
    5.3174    6.3255    0.0000 O   0  0  0  0  0  0  0  0  0  0  0  0
    3.0674    5.0264    0.0000 N   0  0  0  0  0  0  0  0  0  0  0  0
    2.3174    3.7274    0.0000 H   0  0  0  0  0  0  0  0  0  0  0  0
    2.3174    6.3255    0.0000 C   0  0  0  0  0  0  0  0  0  0  0  0
    2.0569    7.8027    0.0000 H   0  0  0  0  0  0  0  0  0  0  0  0
    3.7269    6.8385    0.0000 H   0  0  0  0  0  0  0  0  0  0  0  0
    0.8174    6.3255    0.0000 C   0  0  0  0  0  0  0  0  0  0  0  0
    0.0667    5.0258    0.0000 C   0  0  0  0  0  0  0  0  0  0  0  0
    0.8170    3.7269    0.0000 C   0  0  0  0  0  0  0  0  0  0  0  0
    0.0672    2.4278    0.0000 H   0  0  0  0  0  0  0  0  0  0  0  0
    1.9659    4.6913    0.0000 H   0  0  0  0  0  0  0  0  0  0  0  0
    1.9662    2.7629    0.0000 H   0  0  0  0  0  0  0  0  0  0  0  0
   -1.4341    5.0251    0.0000 C   0  0  0  0  0  0  0  0  0  0  0  0
   -2.1837    3.7258    0.0000 H   0  0  0  0  0  0  0  0  0  0  0  0
   -2.1843    6.3240    0.0000 C   0  0  0  0  0  0  0  0  0  0  0  0
   -3.6843    6.3240    0.0000 C   0  0  0  0  0  0  0  0  0  0  0  0
   -4.4343    7.6231    0.0000 H   0  0  0  0  0  0  0  0  0  0  0  0
   -3.4238    4.8468    0.0000 H   0  0  0  0  0  0  0  0  0  0  0  0
   -5.0938    5.8110    0.0000 H   0  0  0  0  0  0  0  0  0  0  0  0
   -1.4337    7.6237    0.0000 N   0  0  0  0  0  0  0  0  0  0  0  0
   -2.1839    8.9226    0.0000 H   0  0  0  0  0  0  0  0  0  0  0  0
    0.0672    7.6244    0.0000 C   0  0  0  0  0  0  0  0  0  0  0  0
    0.8167    8.9237    0.0000 O   0  0  0  0  0  0  0  0  0  0  0  0
    4.5667   -0.1703    0.0000 C   0  0  0  0  0  0  0  0  0  0  0  0
    3.1177   -0.1527    0.0000 C   0  0  0  0  0  0  0  0  0  0  0  0
    2.4014    1.1652    0.0000 H   0  0  0  0  0  0  0  0  0  0  0  0
    2.3279   -1.4044    0.0000 C   0  0  0  0  0  0  0  0  0  0  0  0
    0.8280   -1.3843    0.0000 H   0  0  0  0  0  0  0  0  0  0  0  0
    3.0932   -2.6925    0.0000 C   0  0  0  0  0  0  0  0  0  0  0  0
    4.5423   -2.7101    0.0000 C   0  0  0  0  0  0  0  0  0  0  0  0
    5.2586   -4.0280    0.0000 H   0  0  0  0  0  0  0  0  0  0  0  0
    5.3321   -1.4585    0.0000 C   0  0  0  0  0  0  0  0  0  0  0  0
    6.8319   -1.4786    0.0000 H   0  0  0  0  0  0  0  0  0  0  0  0
    2.1035   -4.4074    0.0000 C   0  0  0  0  0  0  0  0  0  0  0  0
    0.9542   -3.4434    0.0000 H   0  0  0  0  0  0  0  0  0  0  0  0
    0.9546   -5.3718    0.0000 H   0  0  0  0  0  0  0  0  0  0  0  0
    3.0937   -6.1220    0.0000 N   0  0  0  0  0  0  0  0  0  0  0  0
    4.5937   -6.1220    0.0000 C   0  0  0  0  0  0  0  0  0  0  0  0
    6.0034   -5.6092    0.0000 H   0  0  0  0  0  0  0  0  0  0  0  0
    4.3334   -4.6447    0.0000 H   0  0  0  0  0  0  0  0  0  0  0  0
    5.3437   -7.4220    0.0000 C   0  0  0  0  0  0  0  0  0  0  0  0
    6.4929   -8.3860    0.0000 H   0  0  0  0  0  0  0  0  0  0  0  0
    6.4929   -6.4579    0.0000 H   0  0  0  0  0  0  0  0  0  0  0  0
    4.5937   -8.7220    0.0000 O   0  0  0  0  0  0  0  0  0  0  0  0
    3.0937   -8.7220    0.0000 C   0  0  0  0  0  0  0  0  0  0  0  0
    1.6841   -9.2347    0.0000 H   0  0  0  0  0  0  0  0  0  0  0  0
    3.3541  -10.1992    0.0000 H   0  0  0  0  0  0  0  0  0  0  0  0
    2.3437   -7.4220    0.0000 C   0  0  0  0  0  0  0  0  0  0  0  0
    1.1946   -6.4579    0.0000 H   0  0  0  0  0  0  0  0  0  0  0  0
    1.1946   -8.3860    0.0000 H   0  0  0  0  0  0  0  0  0  0  0  0
  1  2  1  0  0  0  0 
  1  3  1  0  0  0  0 
  1  4  1  0  0  0  0 
  1  5  1  0  0  0  0 
  5  6  1  0  0  0  0 
  5  7  1  0  0  0  0 
  5  8  1  0  0  0  0 
  8  9  1  0  0  0  0 
  9 10  1  0  0  0  0 
  9 11  1  0  0  0  0 
 11 12  1  0  0  0  0 
 11 13  1  0  0  0  0 
 11 14  1  0  0  0  0 
 14 15  1  0  0  0  0 
 14 16  1  0  0  0  0 
 14 17  1  0  0  0  0 
 17 18  1  0  0  0  0 
 18 19  1  0  0  0  0 
 18 20  1  0  0  0  0 
 18 21  1  0  0  0  0 
  9 21  1  0  0  0  0 
 21 22  1  0  0  0  0 
 21 23  1  0  0  0  0 
  8 24  1  0  0  0  0 
 24 25  2  0  0  0  0 
 25 26  1  0  0  0  0 
 25 27  1  0  0  0  0 
 27 28  2  0  0  0  0 
 28 29  1  0  0  0  0 
 28 30  1  0  0  0  0 
 30 31  2  0  0  0  0 
 24 31  1  0  0  0  0 
 31 32  1  0  0  0  0 
 32 33  1  0  0  0  0 
 32 34  1  0  0  0  0 
 32 35  1  0  0  0  0 
 35 36  1  0  0  0  0 
 30 37  1  0  0  0  0 
 37 38  2  0  0  0  0 
 37 39  1  0  0  0  0 
 39 40  1  0  0  0  0 
 39 41  1  0  0  0  0 
 41 42  1  0  0  0  0 
 41 43  1  0  0  0  0 
 41 44  1  0  0  0  0 
 44 45  2  0  0  0  0 
 45 46  1  0  0  0  0 
 46 47  1  0  0  0  0 
 46 48  1  0  0  0  0 
 46 49  1  0  0  0  0 
 45 50  1  0  0  0  0 
 50 51  1  0  0  0  0 
 50 52  2  0  0  0  0 
 52 53  1  0  0  0  0 
 53 54  1  0  0  0  0 
 53 55  1  0  0  0  0 
 53 56  1  0  0  0  0 
 52 57  1  0  0  0  0 
 57 58  1  0  0  0  0 
 57 59  1  0  0  0  0 
 44 59  1  0  0  0  0 
 59 60  2  0  0  0  0 
 27 61  1  0  0  0  0 
 61 62  2  0  0  0  0 
 62 63  1  0  0  0  0 
 62 64  1  0  0  0  0 
 64 65  1  0  0  0  0 
 64 66  2  0  0  0  0 
 66 67  1  0  0  0  0 
 67 68  1  0  0  0  0 
 67 69  2  0  0  0  0 
 61 69  1  0  0  0  0 
 69 70  1  0  0  0  0 
 66 71  1  0  0  0  0 
 71 72  1  0  0  0  0 
 71 73  1  0  0  0  0 
 71 74  1  0  0  0  0 
 74 75  1  0  0  0  0 
 75 76  1  0  0  0  0 
 75 77  1  0  0  0  0 
 75 78  1  0  0  0  0 
 78 79  1  0  0  0  0 
 78 80  1  0  0  0  0 
 78 81  1  0  0  0  0 
 81 82  1  0  0  0  0 
 82 83  1  0  0  0  0 
 82 84  1  0  0  0  0 
 82 85  1  0  0  0  0 
 74 85  1  0  0  0  0 
 85 86  1  0  0  0  0 
 85 87  1  0  0  0  0 
M  END
> <Rank>
43

> <Priority_score>
0.064

> <Reaction_type>
benzylic_hydroxylation_(c-CH3)

> <Parent_ID>
24

> <Parent_InChI>
InChI=1S/C34H44N4O4/c1-5-38(29-10-14-41-15-11-29)32-20-28(27-8-6-26(7-9-27)22-37-12-16-42-17-13-37)19-30(25(32)4)33(39)35-21-31-23(2)18-24(3)36-34(31)40/h6-9,18-20,29H,5,10-17,21-22H2,1-4H3,(H,35,39)(H,36,40)

> <Parent_SMILES>
CCN(c1cc(-c2ccc(CN3CCOCC3)cc2)cc(C(=O)NCc2c(C)cc(C)[nH]c2=O)c1C)C1CCOCC1

$$$$
Molecule 24_metabolite 44
  CDK     0516241031

 86 90  0  0  0  0  0  0  0  0999 V2000
   11.3184    3.7273    0.0000 C   0  0  0  0  0  0  0  0  0  0  0  0
   12.0682    2.4281    0.0000 H   0  0  0  0  0  0  0  0  0  0  0  0
   11.0582    5.2045    0.0000 H   0  0  0  0  0  0  0  0  0  0  0  0
   12.7280    4.2401    0.0000 H   0  0  0  0  0  0  0  0  0  0  0  0
    9.8184    3.7275    0.0000 C   0  0  0  0  0  0  0  0  0  0  0  0
   10.0791    5.2047    0.0000 H   0  0  0  0  0  0  0  0  0  0  0  0
    8.4090    4.2408    0.0000 H   0  0  0  0  0  0  0  0  0  0  0  0
    9.0682    2.4286    0.0000 N   0  0  0  0  0  0  0  0  0  0  0  0
   10.5378   -0.1177    0.0000 C   0  0  0  0  0  0  0  0  0  0  0  0
    9.1281   -0.6302    0.0000 H   0  0  0  0  0  0  0  0  0  0  0  0
   11.6874    0.8470    0.0000 C   0  0  0  0  0  0  0  0  0  0  0  0
   12.9178    2.9773    0.0000 H   0  0  0  0  0  0  0  0  0  0  0  0
   10.5384    1.8113    0.0000 H   0  0  0  0  0  0  0  0  0  0  0  0
   13.0969    0.3336    0.0000 C   0  0  0  0  0  0  0  0  0  0  0  0
   14.5969    0.3329    0.0000 H   0  0  0  0  0  0  0  0  0  0  0  0
   13.3579    1.8107    0.0000 H   0  0  0  0  0  0  0  0  0  0  0  0
   13.3566   -1.1446    0.0000 O   0  0  0  0  0  0  0  0  0  0  0  0
   12.2069   -2.1093    0.0000 C   0  0  0  0  0  0  0  0  0  0  0  0
   11.4567   -3.4083    0.0000 H   0  0  0  0  0  0  0  0  0  0  0  0
   13.3560   -3.0736    0.0000 H   0  0  0  0  0  0  0  0  0  0  0  0
   10.7975   -1.5959    0.0000 C   0  0  0  0  0  0  0  0  0  0  0  0
    9.2975   -1.5952    0.0000 H   0  0  0  0  0  0  0  0  0  0  0  0
   10.5365   -3.0730    0.0000 H   0  0  0  0  0  0  0  0  0  0  0  0
    7.5682    2.4288    0.0000 C   0  0  0  0  0  0  0  0  0  0  0  0
    6.8174    1.1293    0.0000 C   0  0  0  0  0  0  0  0  0  0  0  0
    7.5674   -0.1697    0.0000 H   0  0  0  0  0  0  0  0  0  0  0  0
    5.3165    1.1288    0.0000 C   0  0  0  0  0  0  0  0  0  0  0  0
    4.5665    2.4279    0.0000 C   0  0  0  0  0  0  0  0  0  0  0  0
    3.0665    2.4281    0.0000 H   0  0  0  0  0  0  0  0  0  0  0  0
    5.3174    3.7274    0.0000 C   0  0  0  0  0  0  0  0  0  0  0  0
    6.8182    3.7279    0.0000 C   0  0  0  0  0  0  0  0  0  0  0  0
    7.5680    5.0270    0.0000 C   0  0  0  0  0  0  0  0  0  0  0  0
    9.0680    5.0273    0.0000 O   0  0  0  0  0  0  0  0  0  0  0  0
    6.8178    6.3260    0.0000 O   0  0  0  0  0  0  0  0  0  0  0  0
    7.5676    7.6251    0.0000 H   0  0  0  0  0  0  0  0  0  0  0  0
    4.5674    5.0264    0.0000 C   0  0  0  0  0  0  0  0  0  0  0  0
    5.3174    6.3255    0.0000 O   0  0  0  0  0  0  0  0  0  0  0  0
    3.0674    5.0264    0.0000 N   0  0  0  0  0  0  0  0  0  0  0  0
    2.3174    3.7274    0.0000 H   0  0  0  0  0  0  0  0  0  0  0  0
    2.3174    6.3255    0.0000 C   0  0  0  0  0  0  0  0  0  0  0  0
    2.0569    7.8027    0.0000 H   0  0  0  0  0  0  0  0  0  0  0  0
    3.7269    6.8385    0.0000 H   0  0  0  0  0  0  0  0  0  0  0  0
    0.8174    6.3255    0.0000 C   0  0  0  0  0  0  0  0  0  0  0  0
    0.0667    5.0258    0.0000 C   0  0  0  0  0  0  0  0  0  0  0  0
    0.8170    3.7269    0.0000 C   0  0  0  0  0  0  0  0  0  0  0  0
    0.0672    2.4278    0.0000 H   0  0  0  0  0  0  0  0  0  0  0  0
    1.9659    4.6913    0.0000 H   0  0  0  0  0  0  0  0  0  0  0  0
    1.9662    2.7629    0.0000 H   0  0  0  0  0  0  0  0  0  0  0  0
   -1.4341    5.0251    0.0000 C   0  0  0  0  0  0  0  0  0  0  0  0
   -2.1837    3.7258    0.0000 H   0  0  0  0  0  0  0  0  0  0  0  0
   -2.1843    6.3240    0.0000 C   0  0  0  0  0  0  0  0  0  0  0  0
   -3.6843    6.3240    0.0000 C   0  0  0  0  0  0  0  0  0  0  0  0
   -4.4343    7.6231    0.0000 H   0  0  0  0  0  0  0  0  0  0  0  0
   -3.4238    4.8468    0.0000 H   0  0  0  0  0  0  0  0  0  0  0  0
   -5.0938    5.8110    0.0000 H   0  0  0  0  0  0  0  0  0  0  0  0
   -1.4337    7.6237    0.0000 N   0  0  0  0  0  0  0  0  0  0  0  0
   -2.1839    8.9226    0.0000 H   0  0  0  0  0  0  0  0  0  0  0  0
    0.0672    7.6244    0.0000 C   0  0  0  0  0  0  0  0  0  0  0  0
    0.8167    8.9237    0.0000 O   0  0  0  0  0  0  0  0  0  0  0  0
    4.5667   -0.1703    0.0000 C   0  0  0  0  0  0  0  0  0  0  0  0
    3.1177   -0.1527    0.0000 C   0  0  0  0  0  0  0  0  0  0  0  0
    2.4014    1.1652    0.0000 H   0  0  0  0  0  0  0  0  0  0  0  0
    2.3279   -1.4044    0.0000 C   0  0  0  0  0  0  0  0  0  0  0  0
    0.8280   -1.3843    0.0000 H   0  0  0  0  0  0  0  0  0  0  0  0
    3.0932   -2.6925    0.0000 C   0  0  0  0  0  0  0  0  0  0  0  0
    4.5423   -2.7101    0.0000 C   0  0  0  0  0  0  0  0  0  0  0  0
    5.2586   -4.0280    0.0000 H   0  0  0  0  0  0  0  0  0  0  0  0
    5.3321   -1.4585    0.0000 C   0  0  0  0  0  0  0  0  0  0  0  0
    6.8319   -1.4786    0.0000 H   0  0  0  0  0  0  0  0  0  0  0  0
    2.1035   -4.4074    0.0000 C   0  0  0  0  0  0  0  0  0  0  0  0
    0.9542   -3.4434    0.0000 H   0  0  0  0  0  0  0  0  0  0  0  0
    0.9546   -5.3718    0.0000 H   0  0  0  0  0  0  0  0  0  0  0  0
    3.0937   -6.1220    0.0000 N   0  0  0  0  0  0  0  0  0  0  0  0
    4.5937   -6.1220    0.0000 C   0  0  0  0  0  0  0  0  0  0  0  0
    6.0034   -5.6092    0.0000 H   0  0  0  0  0  0  0  0  0  0  0  0
    4.3334   -4.6447    0.0000 H   0  0  0  0  0  0  0  0  0  0  0  0
    5.3437   -7.4220    0.0000 C   0  0  0  0  0  0  0  0  0  0  0  0
    6.4929   -8.3860    0.0000 H   0  0  0  0  0  0  0  0  0  0  0  0
    6.4929   -6.4579    0.0000 H   0  0  0  0  0  0  0  0  0  0  0  0
    4.5937   -8.7220    0.0000 O   0  0  0  0  0  0  0  0  0  0  0  0
    3.0937   -8.7220    0.0000 C   0  0  0  0  0  0  0  0  0  0  0  0
    1.6841   -9.2347    0.0000 H   0  0  0  0  0  0  0  0  0  0  0  0
    3.3541  -10.1992    0.0000 H   0  0  0  0  0  0  0  0  0  0  0  0
    2.3437   -7.4220    0.0000 C   0  0  0  0  0  0  0  0  0  0  0  0
    1.1946   -6.4579    0.0000 H   0  0  0  0  0  0  0  0  0  0  0  0
    1.1946   -8.3860    0.0000 H   0  0  0  0  0  0  0  0  0  0  0  0
  1  2  1  0  0  0  0 
  1  3  1  0  0  0  0 
  1  4  1  0  0  0  0 
  1  5  1  0  0  0  0 
  5  6  1  0  0  0  0 
  5  7  1  0  0  0  0 
  5  8  1  0  0  0  0 
  8  9  1  0  0  0  0 
  9 10  1  0  0  0  0 
  9 11  1  0  0  0  0 
 11 12  1  0  0  0  0 
 11 13  1  0  0  0  0 
 11 14  1  0  0  0  0 
 14 15  1  0  0  0  0 
 14 16  1  0  0  0  0 
 14 17  1  0  0  0  0 
 17 18  1  0  0  0  0 
 18 19  1  0  0  0  0 
 18 20  1  0  0  0  0 
 18 21  1  0  0  0  0 
  9 21  1  0  0  0  0 
 21 22  1  0  0  0  0 
 21 23  1  0  0  0  0 
  8 24  1  0  0  0  0 
 24 25  2  0  0  0  0 
 25 26  1  0  0  0  0 
 25 27  1  0  0  0  0 
 27 28  2  0  0  0  0 
 28 29  1  0  0  0  0 
 28 30  1  0  0  0  0 
 30 31  2  0  0  0  0 
 24 31  1  0  0  0  0 
 31 32  1  0  0  0  0 
 32 33  2  0  0  0  0 
 32 34  1  0  0  0  0 
 34 35  1  0  0  0  0 
 30 36  1  0  0  0  0 
 36 37  2  0  0  0  0 
 36 38  1  0  0  0  0 
 38 39  1  0  0  0  0 
 38 40  1  0  0  0  0 
 40 41  1  0  0  0  0 
 40 42  1  0  0  0  0 
 40 43  1  0  0  0  0 
 43 44  2  0  0  0  0 
 44 45  1  0  0  0  0 
 45 46  1  0  0  0  0 
 45 47  1  0  0  0  0 
 45 48  1  0  0  0  0 
 44 49  1  0  0  0  0 
 49 50  1  0  0  0  0 
 49 51  2  0  0  0  0 
 51 52  1  0  0  0  0 
 52 53  1  0  0  0  0 
 52 54  1  0  0  0  0 
 52 55  1  0  0  0  0 
 51 56  1  0  0  0  0 
 56 57  1  0  0  0  0 
 56 58  1  0  0  0  0 
 43 58  1  0  0  0  0 
 58 59  2  0  0  0  0 
 27 60  1  0  0  0  0 
 60 61  2  0  0  0  0 
 61 62  1  0  0  0  0 
 61 63  1  0  0  0  0 
 63 64  1  0  0  0  0 
 63 65  2  0  0  0  0 
 65 66  1  0  0  0  0 
 66 67  1  0  0  0  0 
 66 68  2  0  0  0  0 
 60 68  1  0  0  0  0 
 68 69  1  0  0  0  0 
 65 70  1  0  0  0  0 
 70 71  1  0  0  0  0 
 70 72  1  0  0  0  0 
 70 73  1  0  0  0  0 
 73 74  1  0  0  0  0 
 74 75  1  0  0  0  0 
 74 76  1  0  0  0  0 
 74 77  1  0  0  0  0 
 77 78  1  0  0  0  0 
 77 79  1  0  0  0  0 
 77 80  1  0  0  0  0 
 80 81  1  0  0  0  0 
 81 82  1  0  0  0  0 
 81 83  1  0  0  0  0 
 81 84  1  0  0  0  0 
 73 84  1  0  0  0  0 
 84 85  1  0  0  0  0 
 84 86  1  0  0  0  0 
M  END
> <Rank>
43

> <Priority_score>
0.064

> <Reaction_type>
carboxylation_(benzylic_CH3)

> <Parent_ID>
24

> <Parent_InChI>
InChI=1S/C34H44N4O4/c1-5-38(29-10-14-41-15-11-29)32-20-28(27-8-6-26(7-9-27)22-37-12-16-42-17-13-37)19-30(25(32)4)33(39)35-21-31-23(2)18-24(3)36-34(31)40/h6-9,18-20,29H,5,10-17,21-22H2,1-4H3,(H,35,39)(H,36,40)

> <Parent_SMILES>
CCN(c1cc(-c2ccc(CN3CCOCC3)cc2)cc(C(=O)NCc2c(C)cc(C)[nH]c2=O)c1C)C1CCOCC1

$$$$
Molecule 24_metabolite 45
  CDK     0516241031

 85 89  0  0  0  0  0  0  0  0999 V2000
    9.6845    6.9800    0.0000 C   0  0  0  0  0  0  0  0  0  0  0  0
   10.9834    6.2298    0.0000 H   0  0  0  0  0  0  0  0  0  0  0  0
    8.7205    8.1292    0.0000 H   0  0  0  0  0  0  0  0  0  0  0  0
   10.6488    8.1289    0.0000 H   0  0  0  0  0  0  0  0  0  0  0  0
    8.3853    6.2302    0.0000 C   0  0  0  0  0  0  0  0  0  0  0  0
    7.8725    7.6398    0.0000 H   0  0  0  0  0  0  0  0  0  0  0  0
    6.9081    5.9699    0.0000 H   0  0  0  0  0  0  0  0  0  0  0  0
    8.3851    4.7302    0.0000 N   0  0  0  0  0  0  0  0  0  0  0  0
    9.6840    3.9800    0.0000 C   0  0  0  0  0  0  0  0  0  0  0  0
   10.9836    4.7306    0.0000 C   0  0  0  0  0  0  0  0  0  0  0  0
   11.9479    5.8796    0.0000 H   0  0  0  0  0  0  0  0  0  0  0  0
   10.0194    5.8796    0.0000 H   0  0  0  0  0  0  0  0  0  0  0  0
   12.2826    3.9804    0.0000 C   0  0  0  0  0  0  0  0  0  0  0  0
   13.7597    3.7194    0.0000 H   0  0  0  0  0  0  0  0  0  0  0  0
   12.7960    5.3898    0.0000 H   0  0  0  0  0  0  0  0  0  0  0  0
   12.2818    2.4796    0.0000 O   0  0  0  0  0  0  0  0  0  0  0  0
   10.9822    1.7289    0.0000 C   0  0  0  0  0  0  0  0  0  0  0  0
   10.0180    0.5799    0.0000 H   0  0  0  0  0  0  0  0  0  0  0  0
   11.9464    0.5799    0.0000 H   0  0  0  0  0  0  0  0  0  0  0  0
    9.6833    2.4791    0.0000 C   0  0  0  0  0  0  0  0  0  0  0  0
    8.2062    2.7402    0.0000 H   0  0  0  0  0  0  0  0  0  0  0  0
    9.1699    1.0697    0.0000 H   0  0  0  0  0  0  0  0  0  0  0  0
    7.0859    3.9804    0.0000 C   0  0  0  0  0  0  0  0  0  0  0  0
    7.0854    2.4796    0.0000 C   0  0  0  0  0  0  0  0  0  0  0  0
    8.3845    1.7296    0.0000 H   0  0  0  0  0  0  0  0  0  0  0  0
    5.7859    1.7287    0.0000 C   0  0  0  0  0  0  0  0  0  0  0  0
    4.4869    2.4787    0.0000 C   0  0  0  0  0  0  0  0  0  0  0  0
    3.1877    1.7289    0.0000 H   0  0  0  0  0  0  0  0  0  0  0  0
    4.4874    3.9796    0.0000 C   0  0  0  0  0  0  0  0  0  0  0  0
    5.7869    4.7304    0.0000 C   0  0  0  0  0  0  0  0  0  0  0  0
    5.7866    6.2304    0.0000 C   0  0  0  0  0  0  0  0  0  0  0  0
    7.0856    6.9806    0.0000 H   0  0  0  0  0  0  0  0  0  0  0  0
    4.3095    5.9697    0.0000 H   0  0  0  0  0  0  0  0  0  0  0  0
    5.2734    7.6398    0.0000 H   0  0  0  0  0  0  0  0  0  0  0  0
    3.1883    4.7296    0.0000 C   0  0  0  0  0  0  0  0  0  0  0  0
    3.1883    6.2296    0.0000 O   0  0  0  0  0  0  0  0  0  0  0  0
    1.8893    3.9796    0.0000 N   0  0  0  0  0  0  0  0  0  0  0  0
    1.8893    2.4796    0.0000 H   0  0  0  0  0  0  0  0  0  0  0  0
    0.5903    4.7296    0.0000 C   0  0  0  0  0  0  0  0  0  0  0  0
   -0.3739    5.8786    0.0000 H   0  0  0  0  0  0  0  0  0  0  0  0
    1.5544    5.8786    0.0000 H   0  0  0  0  0  0  0  0  0  0  0  0
   -0.7088    3.9796    0.0000 C   0  0  0  0  0  0  0  0  0  0  0  0
   -0.7090    2.4787    0.0000 C   0  0  0  0  0  0  0  0  0  0  0  0
    0.5901    1.7289    0.0000 C   0  0  0  0  0  0  0  0  0  0  0  0
    0.5904    0.2289    0.0000 H   0  0  0  0  0  0  0  0  0  0  0  0
    1.1029    3.1386    0.0000 H   0  0  0  0  0  0  0  0  0  0  0  0
    2.0674    1.4687    0.0000 H   0  0  0  0  0  0  0  0  0  0  0  0
   -2.0084    1.7277    0.0000 C   0  0  0  0  0  0  0  0  0  0  0  0
   -2.0079    0.2277    0.0000 H   0  0  0  0  0  0  0  0  0  0  0  0
   -3.3076    2.4775    0.0000 C   0  0  0  0  0  0  0  0  0  0  0  0
   -4.6066    1.7275    0.0000 C   0  0  0  0  0  0  0  0  0  0  0  0
   -5.9057    2.4775    0.0000 H   0  0  0  0  0  0  0  0  0  0  0  0
   -3.6424    0.5784    0.0000 H   0  0  0  0  0  0  0  0  0  0  0  0
   -5.5708    0.5784    0.0000 H   0  0  0  0  0  0  0  0  0  0  0  0
   -3.3073    3.9783    0.0000 N   0  0  0  0  0  0  0  0  0  0  0  0
   -4.6065    4.7281    0.0000 H   0  0  0  0  0  0  0  0  0  0  0  0
   -2.0079    4.7293    0.0000 C   0  0  0  0  0  0  0  0  0  0  0  0
   -2.0084    6.2293    0.0000 O   0  0  0  0  0  0  0  0  0  0  0  0
    5.7862    0.2287    0.0000 C   0  0  0  0  0  0  0  0  0  0  0  0
    4.5224   -0.4805    0.0000 C   0  0  0  0  0  0  0  0  0  0  0  0
    3.2431    0.3026    0.0000 H   0  0  0  0  0  0  0  0  0  0  0  0
    4.4643   -1.9594    0.0000 C   0  0  0  0  0  0  0  0  0  0  0  0
    3.1553   -2.6920    0.0000 H   0  0  0  0  0  0  0  0  0  0  0  0
    5.7711   -2.6923    0.0000 C   0  0  0  0  0  0  0  0  0  0  0  0
    7.0349   -1.9831    0.0000 C   0  0  0  0  0  0  0  0  0  0  0  0
    8.3142   -2.7662    0.0000 H   0  0  0  0  0  0  0  0  0  0  0  0
    7.0930   -0.5042    0.0000 C   0  0  0  0  0  0  0  0  0  0  0  0
    8.4020    0.2283    0.0000 H   0  0  0  0  0  0  0  0  0  0  0  0
    5.7714   -4.6723    0.0000 C   0  0  0  0  0  0  0  0  0  0  0  0
    4.2942   -4.4121    0.0000 H   0  0  0  0  0  0  0  0  0  0  0  0
    5.2586   -6.0820    0.0000 H   0  0  0  0  0  0  0  0  0  0  0  0
    7.4863   -5.6621    0.0000 N   0  0  0  0  0  0  0  0  0  0  0  0
    8.7854   -4.9121    0.0000 C   0  0  0  0  0  0  0  0  0  0  0  0
    9.7498   -3.7632    0.0000 H   0  0  0  0  0  0  0  0  0  0  0  0
    7.8213   -3.7629    0.0000 H   0  0  0  0  0  0  0  0  0  0  0  0
   10.0849   -5.6629    0.0000 C   0  0  0  0  0  0  0  0  0  0  0  0
   11.5621   -5.9232    0.0000 H   0  0  0  0  0  0  0  0  0  0  0  0
   10.5981   -4.2534    0.0000 H   0  0  0  0  0  0  0  0  0  0  0  0
   10.0854   -7.1637    0.0000 O   0  0  0  0  0  0  0  0  0  0  0  0
    8.7863   -7.9137    0.0000 C   0  0  0  0  0  0  0  0  0  0  0  0
    7.8219   -9.0626    0.0000 H   0  0  0  0  0  0  0  0  0  0  0  0
    9.7504   -9.0629    0.0000 H   0  0  0  0  0  0  0  0  0  0  0  0
    7.4868   -7.1629    0.0000 C   0  0  0  0  0  0  0  0  0  0  0  0
    6.0096   -6.9026    0.0000 H   0  0  0  0  0  0  0  0  0  0  0  0
    6.9736   -8.5724    0.0000 H   0  0  0  0  0  0  0  0  0  0  0  0
  1  2  1  0  0  0  0 
  1  3  1  0  0  0  0 
  1  4  1  0  0  0  0 
  1  5  1  0  0  0  0 
  5  6  1  0  0  0  0 
  5  7  1  0  0  0  0 
  5  8  1  0  0  0  0 
  8  9  2  0  0  0  0 
  9 10  1  0  0  0  0 
 10 11  1  0  0  0  0 
 10 12  1  0  0  0  0 
 10 13  1  0  0  0  0 
 13 14  1  0  0  0  0 
 13 15  1  0  0  0  0 
 13 16  1  0  0  0  0 
 16 17  1  0  0  0  0 
 17 18  1  0  0  0  0 
 17 19  1  0  0  0  0 
 17 20  1  0  0  0  0 
  9 20  1  0  0  0  0 
 20 21  1  0  0  0  0 
 20 22  1  0  0  0  0 
  8 23  1  4  0  0  0 
 23 24  2  0  0  0  0 
 24 25  1  0  0  0  0 
 24 26  1  0  0  0  0 
 26 27  2  0  0  0  0 
 27 28  1  0  0  0  0 
 27 29  1  0  0  0  0 
 29 30  2  0  0  0  0 
 23 30  1  0  0  0  0 
 30 31  1  0  0  0  0 
 31 32  1  0  0  0  0 
 31 33  1  0  0  0  0 
 31 34  1  0  0  0  0 
 29 35  1  0  0  0  0 
 35 36  2  0  0  0  0 
 35 37  1  0  0  0  0 
 37 38  1  0  0  0  0 
 37 39  1  0  0  0  0 
 39 40  1  0  0  0  0 
 39 41  1  0  0  0  0 
 39 42  1  0  0  0  0 
 42 43  2  0  0  0  0 
 43 44  1  0  0  0  0 
 44 45  1  0  0  0  0 
 44 46  1  0  0  0  0 
 44 47  1  0  0  0  0 
 43 48  1  0  0  0  0 
 48 49  1  0  0  0  0 
 48 50  2  0  0  0  0 
 50 51  1  0  0  0  0 
 51 52  1  0  0  0  0 
 51 53  1  0  0  0  0 
 51 54  1  0  0  0  0 
 50 55  1  0  0  0  0 
 55 56  1  0  0  0  0 
 55 57  1  0  0  0  0 
 42 57  1  0  0  0  0 
 57 58  2  0  0  0  0 
 26 59  1  0  0  0  0 
 59 60  2  0  0  0  0 
 60 61  1  0  0  0  0 
 60 62  1  0  0  0  0 
 62 63  1  0  0  0  0 
 62 64  2  0  0  0  0 
 64 65  1  0  0  0  0 
 65 66  1  0  0  0  0 
 65 67  2  0  0  0  0 
 59 67  1  0  0  0  0 
 67 68  1  0  0  0  0 
 64 69  1  0  0  0  0 
 69 70  1  0  0  0  0 
 69 71  1  0  0  0  0 
 69 72  1  0  0  0  0 
 72 73  1  0  0  0  0 
 73 74  1  0  0  0  0 
 73 75  1  0  0  0  0 
 73 76  1  0  0  0  0 
 76 77  1  0  0  0  0 
 76 78  1  0  0  0  0 
 76 79  1  0  0  0  0 
 79 80  1  0  0  0  0 
 80 81  1  0  0  0  0 
 80 82  1  0  0  0  0 
 80 83  1  0  0  0  0 
 72 83  1  0  0  0  0 
 83 84  1  0  0  0  0 
 83 85  1  0  0  0  0 
M  CHG  1   8   1
M  END
> <Rank>
45

> <Priority_score>
0.0504

> <Reaction_type>
dehydration of N-C bond

> <Parent_ID>
24

> <Parent_InChI>
InChI=1S/C34H44N4O4/c1-5-38(29-10-14-41-15-11-29)32-20-28(27-8-6-26(7-9-27)22-37-12-16-42-17-13-37)19-30(25(32)4)33(39)35-21-31-23(2)18-24(3)36-34(31)40/h6-9,18-20,29H,5,10-17,21-22H2,1-4H3,(H,35,39)(H,36,40)

> <Parent_SMILES>
CCN(c1cc(-c2ccc(CN3CCOCC3)cc2)cc(C(=O)NCc2c(C)cc(C)[nH]c2=O)c1C)C1CCOCC1

$$$$
Molecule 24_metabolite 46
  CDK     0516241031

 85 89  0  0  0  0  0  0  0  0999 V2000
   11.3184    3.7273    0.0000 C   0  0  0  0  0  0  0  0  0  0  0  0
   12.0682    2.4281    0.0000 H   0  0  0  0  0  0  0  0  0  0  0  0
   11.0582    5.2045    0.0000 H   0  0  0  0  0  0  0  0  0  0  0  0
   12.7280    4.2401    0.0000 H   0  0  0  0  0  0  0  0  0  0  0  0
    9.8184    3.7275    0.0000 C   0  0  0  0  0  0  0  0  0  0  0  0
    9.0686    5.0267    0.0000 H   0  0  0  0  0  0  0  0  0  0  0  0
    9.0682    2.4286    0.0000 N   0  0  0  0  0  0  0  0  0  0  0  0
   10.5378   -0.1177    0.0000 C   0  0  0  0  0  0  0  0  0  0  0  0
    9.1281   -0.6302    0.0000 H   0  0  0  0  0  0  0  0  0  0  0  0
   11.6874    0.8470    0.0000 C   0  0  0  0  0  0  0  0  0  0  0  0
   12.9178    2.9773    0.0000 H   0  0  0  0  0  0  0  0  0  0  0  0
   10.5384    1.8113    0.0000 H   0  0  0  0  0  0  0  0  0  0  0  0
   13.0969    0.3336    0.0000 C   0  0  0  0  0  0  0  0  0  0  0  0
   14.5969    0.3329    0.0000 H   0  0  0  0  0  0  0  0  0  0  0  0
   13.3579    1.8107    0.0000 H   0  0  0  0  0  0  0  0  0  0  0  0
   13.3566   -1.1446    0.0000 O   0  0  0  0  0  0  0  0  0  0  0  0
   12.2069   -2.1093    0.0000 C   0  0  0  0  0  0  0  0  0  0  0  0
   11.4567   -3.4083    0.0000 H   0  0  0  0  0  0  0  0  0  0  0  0
   13.3560   -3.0736    0.0000 H   0  0  0  0  0  0  0  0  0  0  0  0
   10.7975   -1.5959    0.0000 C   0  0  0  0  0  0  0  0  0  0  0  0
    9.2975   -1.5952    0.0000 H   0  0  0  0  0  0  0  0  0  0  0  0
   10.5365   -3.0730    0.0000 H   0  0  0  0  0  0  0  0  0  0  0  0
    7.5682    2.4288    0.0000 C   0  0  0  0  0  0  0  0  0  0  0  0
    6.8174    1.1293    0.0000 C   0  0  0  0  0  0  0  0  0  0  0  0
    7.5674   -0.1697    0.0000 H   0  0  0  0  0  0  0  0  0  0  0  0
    5.3165    1.1288    0.0000 C   0  0  0  0  0  0  0  0  0  0  0  0
    4.5665    2.4279    0.0000 C   0  0  0  0  0  0  0  0  0  0  0  0
    3.0665    2.4281    0.0000 H   0  0  0  0  0  0  0  0  0  0  0  0
    5.3174    3.7274    0.0000 C   0  0  0  0  0  0  0  0  0  0  0  0
    6.8182    3.7279    0.0000 C   0  0  0  0  0  0  0  0  0  0  0  0
    7.5680    5.0270    0.0000 C   0  0  0  0  0  0  0  0  0  0  0  0
    6.8178    6.3260    0.0000 H   0  0  0  0  0  0  0  0  0  0  0  0
    8.7172    4.0630    0.0000 H   0  0  0  0  0  0  0  0  0  0  0  0
    8.7169    5.9914    0.0000 H   0  0  0  0  0  0  0  0  0  0  0  0
    4.5674    5.0264    0.0000 C   0  0  0  0  0  0  0  0  0  0  0  0
    5.3174    6.3255    0.0000 O   0  0  0  0  0  0  0  0  0  0  0  0
    3.0674    5.0264    0.0000 N   0  0  0  0  0  0  0  0  0  0  0  0
    2.3174    3.7274    0.0000 H   0  0  0  0  0  0  0  0  0  0  0  0
    2.3174    6.3255    0.0000 C   0  0  0  0  0  0  0  0  0  0  0  0
    2.0569    7.8027    0.0000 H   0  0  0  0  0  0  0  0  0  0  0  0
    3.7269    6.8385    0.0000 H   0  0  0  0  0  0  0  0  0  0  0  0
    0.8174    6.3255    0.0000 C   0  0  0  0  0  0  0  0  0  0  0  0
    0.0667    5.0258    0.0000 C   0  0  0  0  0  0  0  0  0  0  0  0
    0.8170    3.7269    0.0000 C   0  0  0  0  0  0  0  0  0  0  0  0
    0.0672    2.4278    0.0000 H   0  0  0  0  0  0  0  0  0  0  0  0
    1.9659    4.6913    0.0000 H   0  0  0  0  0  0  0  0  0  0  0  0
    1.9662    2.7629    0.0000 H   0  0  0  0  0  0  0  0  0  0  0  0
   -1.4341    5.0251    0.0000 C   0  0  0  0  0  0  0  0  0  0  0  0
   -2.1837    3.7258    0.0000 H   0  0  0  0  0  0  0  0  0  0  0  0
   -2.1843    6.3240    0.0000 C   0  0  0  0  0  0  0  0  0  0  0  0
   -3.6843    6.3240    0.0000 C   0  0  0  0  0  0  0  0  0  0  0  0
   -4.4343    7.6231    0.0000 H   0  0  0  0  0  0  0  0  0  0  0  0
   -3.4238    4.8468    0.0000 H   0  0  0  0  0  0  0  0  0  0  0  0
   -5.0938    5.8110    0.0000 H   0  0  0  0  0  0  0  0  0  0  0  0
   -1.4337    7.6237    0.0000 N   0  0  0  0  0  0  0  0  0  0  0  0
   -2.1839    8.9226    0.0000 H   0  0  0  0  0  0  0  0  0  0  0  0
    0.0672    7.6244    0.0000 C   0  0  0  0  0  0  0  0  0  0  0  0
    0.8167    8.9237    0.0000 O   0  0  0  0  0  0  0  0  0  0  0  0
    4.5667   -0.1703    0.0000 C   0  0  0  0  0  0  0  0  0  0  0  0
    3.1177   -0.1527    0.0000 C   0  0  0  0  0  0  0  0  0  0  0  0
    2.4014    1.1652    0.0000 H   0  0  0  0  0  0  0  0  0  0  0  0
    2.3279   -1.4044    0.0000 C   0  0  0  0  0  0  0  0  0  0  0  0
    0.8280   -1.3843    0.0000 H   0  0  0  0  0  0  0  0  0  0  0  0
    3.0932   -2.6925    0.0000 C   0  0  0  0  0  0  0  0  0  0  0  0
    4.5423   -2.7101    0.0000 C   0  0  0  0  0  0  0  0  0  0  0  0
    5.2586   -4.0280    0.0000 H   0  0  0  0  0  0  0  0  0  0  0  0
    5.3321   -1.4585    0.0000 C   0  0  0  0  0  0  0  0  0  0  0  0
    6.8319   -1.4786    0.0000 H   0  0  0  0  0  0  0  0  0  0  0  0
    2.1035   -4.4074    0.0000 C   0  0  0  0  0  0  0  0  0  0  0  0
    0.9542   -3.4434    0.0000 H   0  0  0  0  0  0  0  0  0  0  0  0
    0.9546   -5.3718    0.0000 H   0  0  0  0  0  0  0  0  0  0  0  0
    3.0937   -6.1220    0.0000 N   0  0  0  0  0  0  0  0  0  0  0  0
    4.5937   -6.1220    0.0000 C   0  0  0  0  0  0  0  0  0  0  0  0
    6.0034   -5.6092    0.0000 H   0  0  0  0  0  0  0  0  0  0  0  0
    4.3334   -4.6447    0.0000 H   0  0  0  0  0  0  0  0  0  0  0  0
    5.3437   -7.4220    0.0000 C   0  0  0  0  0  0  0  0  0  0  0  0
    6.4929   -8.3860    0.0000 H   0  0  0  0  0  0  0  0  0  0  0  0
    6.4929   -6.4579    0.0000 H   0  0  0  0  0  0  0  0  0  0  0  0
    4.5937   -8.7220    0.0000 O   0  0  0  0  0  0  0  0  0  0  0  0
    3.0937   -8.7220    0.0000 C   0  0  0  0  0  0  0  0  0  0  0  0
    1.6841   -9.2347    0.0000 H   0  0  0  0  0  0  0  0  0  0  0  0
    3.3541  -10.1992    0.0000 H   0  0  0  0  0  0  0  0  0  0  0  0
    2.3437   -7.4220    0.0000 C   0  0  0  0  0  0  0  0  0  0  0  0
    1.1946   -6.4579    0.0000 H   0  0  0  0  0  0  0  0  0  0  0  0
    1.1946   -8.3860    0.0000 H   0  0  0  0  0  0  0  0  0  0  0  0
  1  2  1  0  0  0  0 
  1  3  1  0  0  0  0 
  1  4  1  0  0  0  0 
  1  5  1  0  0  0  0 
  5  6  1  4  0  0  0 
  5  7  2  0  0  0  0 
  7  8  1  0  0  0  0 
  8  9  1  0  0  0  0 
  8 10  1  0  0  0  0 
 10 11  1  0  0  0  0 
 10 12  1  0  0  0  0 
 10 13  1  0  0  0  0 
 13 14  1  0  0  0  0 
 13 15  1  0  0  0  0 
 13 16  1  0  0  0  0 
 16 17  1  0  0  0  0 
 17 18  1  0  0  0  0 
 17 19  1  0  0  0  0 
 17 20  1  0  0  0  0 
  8 20  1  0  0  0  0 
 20 21  1  0  0  0  0 
 20 22  1  0  0  0  0 
  7 23  1  0  0  0  0 
 23 24  2  0  0  0  0 
 24 25  1  0  0  0  0 
 24 26  1  0  0  0  0 
 26 27  2  0  0  0  0 
 27 28  1  0  0  0  0 
 27 29  1  0  0  0  0 
 29 30  2  0  0  0  0 
 23 30  1  0  0  0  0 
 30 31  1  0  0  0  0 
 31 32  1  0  0  0  0 
 31 33  1  0  0  0  0 
 31 34  1  0  0  0  0 
 29 35  1  0  0  0  0 
 35 36  2  0  0  0  0 
 35 37  1  0  0  0  0 
 37 38  1  0  0  0  0 
 37 39  1  0  0  0  0 
 39 40  1  0  0  0  0 
 39 41  1  0  0  0  0 
 39 42  1  0  0  0  0 
 42 43  2  0  0  0  0 
 43 44  1  0  0  0  0 
 44 45  1  0  0  0  0 
 44 46  1  0  0  0  0 
 44 47  1  0  0  0  0 
 43 48  1  0  0  0  0 
 48 49  1  0  0  0  0 
 48 50  2  0  0  0  0 
 50 51  1  0  0  0  0 
 51 52  1  0  0  0  0 
 51 53  1  0  0  0  0 
 51 54  1  0  0  0  0 
 50 55  1  0  0  0  0 
 55 56  1  0  0  0  0 
 55 57  1  0  0  0  0 
 42 57  1  0  0  0  0 
 57 58  2  0  0  0  0 
 26 59  1  0  0  0  0 
 59 60  2  0  0  0  0 
 60 61  1  0  0  0  0 
 60 62  1  0  0  0  0 
 62 63  1  0  0  0  0 
 62 64  2  0  0  0  0 
 64 65  1  0  0  0  0 
 65 66  1  0  0  0  0 
 65 67  2  0  0  0  0 
 59 67  1  0  0  0  0 
 67 68  1  0  0  0  0 
 64 69  1  0  0  0  0 
 69 70  1  0  0  0  0 
 69 71  1  0  0  0  0 
 69 72  1  0  0  0  0 
 72 73  1  0  0  0  0 
 73 74  1  0  0  0  0 
 73 75  1  0  0  0  0 
 73 76  1  0  0  0  0 
 76 77  1  0  0  0  0 
 76 78  1  0  0  0  0 
 76 79  1  0  0  0  0 
 79 80  1  0  0  0  0 
 80 81  1  0  0  0  0 
 80 82  1  0  0  0  0 
 80 83  1  0  0  0  0 
 72 83  1  0  0  0  0 
 83 84  1  0  0  0  0 
 83 85  1  0  0  0  0 
M  CHG  1   7   1
M  END
> <Rank>
45

> <Priority_score>
0.0504

> <Reaction_type>
dehydration of N-C bond

> <Parent_ID>
24

> <Parent_InChI>
InChI=1S/C34H44N4O4/c1-5-38(29-10-14-41-15-11-29)32-20-28(27-8-6-26(7-9-27)22-37-12-16-42-17-13-37)19-30(25(32)4)33(39)35-21-31-23(2)18-24(3)36-34(31)40/h6-9,18-20,29H,5,10-17,21-22H2,1-4H3,(H,35,39)(H,36,40)

> <Parent_SMILES>
CCN(c1cc(-c2ccc(CN3CCOCC3)cc2)cc(C(=O)NCc2c(C)cc(C)[nH]c2=O)c1C)C1CCOCC1

$$$$
Molecule 24_metabolite 47
  CDK     0516241031

 84 88  0  0  0  0  0  0  0  0999 V2000
   -4.5727    0.9055    0.0000 C   0  0  0  0  0  0  0  0  0  0  0  0
   -5.8719    0.1558    0.0000 H   0  0  0  0  0  0  0  0  0  0  0  0
   -4.5725    2.4055    0.0000 H   0  0  0  0  0  0  0  0  0  0  0  0
   -2.0268   -0.5649    0.0000 C   0  0  0  0  0  0  0  0  0  0  0  0
   -2.0271   -2.0649    0.0000 H   0  0  0  0  0  0  0  0  0  0  0  0
   -0.3119    0.4249    0.0000 N   0  0  0  0  0  0  0  0  0  0  0  0
   -0.3116    2.4049    0.0000 C   0  0  0  0  0  0  0  0  0  0  0  0
    1.1655    2.1438    0.0000 H   0  0  0  0  0  0  0  0  0  0  0  0
   -1.7896    2.1442    0.0000 C   0  0  0  0  0  0  0  0  0  0  0  0
   -3.0888    1.3944    0.0000 H   0  0  0  0  0  0  0  0  0  0  0  0
   -1.2767    0.7346    0.0000 H   0  0  0  0  0  0  0  0  0  0  0  0
   -2.7535    3.2935    0.0000 C   0  0  0  0  0  0  0  0  0  0  0  0
   -4.0522    4.0441    0.0000 H   0  0  0  0  0  0  0  0  0  0  0  0
   -3.7181    2.1448    0.0000 H   0  0  0  0  0  0  0  0  0  0  0  0
   -2.2394    4.7035    0.0000 O   0  0  0  0  0  0  0  0  0  0  0  0
   -0.7614    4.9642    0.0000 C   0  0  0  0  0  0  0  0  0  0  0  0
    0.5378    5.7140    0.0000 H   0  0  0  0  0  0  0  0  0  0  0  0
   -1.2743    6.3738    0.0000 H   0  0  0  0  0  0  0  0  0  0  0  0
    0.2025    3.8149    0.0000 C   0  0  0  0  0  0  0  0  0  0  0  0
    1.5012    3.0643    0.0000 H   0  0  0  0  0  0  0  0  0  0  0  0
    1.1671    4.9636    0.0000 H   0  0  0  0  0  0  0  0  0  0  0  0
    0.9870   -0.3253    0.0000 C   0  0  0  0  0  0  0  0  0  0  0  0
    2.2870    0.4247    0.0000 C   0  0  0  0  0  0  0  0  0  0  0  0
    2.2870    1.9247    0.0000 H   0  0  0  0  0  0  0  0  0  0  0  0
    3.5870   -0.3253    0.0000 C   0  0  0  0  0  0  0  0  0  0  0  0
    3.5870   -1.8253    0.0000 C   0  0  0  0  0  0  0  0  0  0  0  0
    4.8859   -2.5756    0.0000 H   0  0  0  0  0  0  0  0  0  0  0  0
    2.2870   -2.5753    0.0000 C   0  0  0  0  0  0  0  0  0  0  0  0
    0.9870   -1.8253    0.0000 C   0  0  0  0  0  0  0  0  0  0  0  0
   -0.3119   -2.5756    0.0000 C   0  0  0  0  0  0  0  0  0  0  0  0
   -0.3117   -4.0756    0.0000 H   0  0  0  0  0  0  0  0  0  0  0  0
   -0.8252   -1.1661    0.0000 H   0  0  0  0  0  0  0  0  0  0  0  0
   -1.7891   -2.8363    0.0000 H   0  0  0  0  0  0  0  0  0  0  0  0
    2.2870   -4.0753    0.0000 C   0  0  0  0  0  0  0  0  0  0  0  0
    0.9879   -4.8253    0.0000 O   0  0  0  0  0  0  0  0  0  0  0  0
    3.5860   -4.8253    0.0000 N   0  0  0  0  0  0  0  0  0  0  0  0
    4.8850   -4.0753    0.0000 H   0  0  0  0  0  0  0  0  0  0  0  0
    3.5860   -6.3253    0.0000 C   0  0  0  0  0  0  0  0  0  0  0  0
    3.0730   -7.7349    0.0000 H   0  0  0  0  0  0  0  0  0  0  0  0
    2.1088   -6.0649    0.0000 H   0  0  0  0  0  0  0  0  0  0  0  0
    4.8850   -7.0753    0.0000 C   0  0  0  0  0  0  0  0  0  0  0  0
    6.1849   -6.3251    0.0000 C   0  0  0  0  0  0  0  0  0  0  0  0
    6.1847   -4.8251    0.0000 C   0  0  0  0  0  0  0  0  0  0  0  0
    7.4836   -4.0749    0.0000 H   0  0  0  0  0  0  0  0  0  0  0  0
    4.7075   -5.0858    0.0000 H   0  0  0  0  0  0  0  0  0  0  0  0
    5.6714   -3.4157    0.0000 H   0  0  0  0  0  0  0  0  0  0  0  0
    7.4850   -7.0749    0.0000 C   0  0  0  0  0  0  0  0  0  0  0  0
    8.7838   -6.3245    0.0000 H   0  0  0  0  0  0  0  0  0  0  0  0
    7.4853   -8.5749    0.0000 C   0  0  0  0  0  0  0  0  0  0  0  0
    8.7843   -9.3249    0.0000 C   0  0  0  0  0  0  0  0  0  0  0  0
    8.7843  -10.8249    0.0000 H   0  0  0  0  0  0  0  0  0  0  0  0
    9.2974   -7.9154    0.0000 H   0  0  0  0  0  0  0  0  0  0  0  0
   10.2615   -9.5854    0.0000 H   0  0  0  0  0  0  0  0  0  0  0  0
    6.1854   -9.3251    0.0000 N   0  0  0  0  0  0  0  0  0  0  0  0
    6.1856  -10.8251    0.0000 H   0  0  0  0  0  0  0  0  0  0  0  0
    4.8853   -8.5753    0.0000 C   0  0  0  0  0  0  0  0  0  0  0  0
    3.5865   -9.3258    0.0000 O   0  0  0  0  0  0  0  0  0  0  0  0
    4.8859    0.4249    0.0000 C   0  0  0  0  0  0  0  0  0  0  0  0
    6.1320   -0.3149    0.0000 C   0  0  0  0  0  0  0  0  0  0  0  0
    6.0934   -1.8144    0.0000 H   0  0  0  0  0  0  0  0  0  0  0  0
    7.4418    0.3742    0.0000 C   0  0  0  0  0  0  0  0  0  0  0  0
    8.7307   -0.3932    0.0000 H   0  0  0  0  0  0  0  0  0  0  0  0
    7.4231    1.8724    0.0000 C   0  0  0  0  0  0  0  0  0  0  0  0
    6.1770    2.6122    0.0000 C   0  0  0  0  0  0  0  0  0  0  0  0
    6.2156    4.1117    0.0000 H   0  0  0  0  0  0  0  0  0  0  0  0
    4.8672    1.9231    0.0000 C   0  0  0  0  0  0  0  0  0  0  0  0
    3.5783    2.6904    0.0000 H   0  0  0  0  0  0  0  0  0  0  0  0
    9.1377    2.8626    0.0000 C   0  0  0  0  0  0  0  0  0  0  0  0
    9.6509    1.4532    0.0000 H   0  0  0  0  0  0  0  0  0  0  0  0
   10.6149    3.1234    0.0000 H   0  0  0  0  0  0  0  0  0  0  0  0
    9.1374    4.8426    0.0000 N   0  0  0  0  0  0  0  0  0  0  0  0
    7.8383    5.5926    0.0000 C   0  0  0  0  0  0  0  0  0  0  0  0
    6.3612    5.8534    0.0000 H   0  0  0  0  0  0  0  0  0  0  0  0
    7.3252    4.1832    0.0000 H   0  0  0  0  0  0  0  0  0  0  0  0
    7.8388    7.0935    0.0000 C   0  0  0  0  0  0  0  0  0  0  0  0
    7.3256    8.5030    0.0000 H   0  0  0  0  0  0  0  0  0  0  0  0
    6.3616    6.8332    0.0000 H   0  0  0  0  0  0  0  0  0  0  0  0
    9.1383    7.8443    0.0000 O   0  0  0  0  0  0  0  0  0  0  0  0
   10.4374    7.0943    0.0000 C   0  0  0  0  0  0  0  0  0  0  0  0
   11.9145    6.8335    0.0000 H   0  0  0  0  0  0  0  0  0  0  0  0
   10.9506    8.5038    0.0000 H   0  0  0  0  0  0  0  0  0  0  0  0
   10.4369    5.5935    0.0000 C   0  0  0  0  0  0  0  0  0  0  0  0
   10.9501    4.1840    0.0000 H   0  0  0  0  0  0  0  0  0  0  0  0
   11.9141    5.8538    0.0000 H   0  0  0  0  0  0  0  0  0  0  0  0
  1  2  1  0  0  0  0 
  1  3  1  0  0  0  0 
  1  4  2  0  0  0  0 
  4  5  1  0  0  0  0 
  4  6  1  0  0  0  0 
  6  7  1  0  0  0  0 
  7  8  1  0  0  0  0 
  7  9  1  0  0  0  0 
  9 10  1  0  0  0  0 
  9 11  1  0  0  0  0 
  9 12  1  0  0  0  0 
 12 13  1  0  0  0  0 
 12 14  1  0  0  0  0 
 12 15  1  0  0  0  0 
 15 16  1  0  0  0  0 
 16 17  1  0  0  0  0 
 16 18  1  0  0  0  0 
 16 19  1  0  0  0  0 
  7 19  1  0  0  0  0 
 19 20  1  0  0  0  0 
 19 21  1  0  0  0  0 
  6 22  1  0  0  0  0 
 22 23  2  0  0  0  0 
 23 24  1  0  0  0  0 
 23 25  1  0  0  0  0 
 25 26  2  0  0  0  0 
 26 27  1  0  0  0  0 
 26 28  1  0  0  0  0 
 28 29  2  0  0  0  0 
 22 29  1  0  0  0  0 
 29 30  1  0  0  0  0 
 30 31  1  0  0  0  0 
 30 32  1  0  0  0  0 
 30 33  1  0  0  0  0 
 28 34  1  0  0  0  0 
 34 35  2  0  0  0  0 
 34 36  1  0  0  0  0 
 36 37  1  0  0  0  0 
 36 38  1  0  0  0  0 
 38 39  1  0  0  0  0 
 38 40  1  0  0  0  0 
 38 41  1  0  0  0  0 
 41 42  2  0  0  0  0 
 42 43  1  0  0  0  0 
 43 44  1  0  0  0  0 
 43 45  1  0  0  0  0 
 43 46  1  0  0  0  0 
 42 47  1  0  0  0  0 
 47 48  1  0  0  0  0 
 47 49  2  0  0  0  0 
 49 50  1  0  0  0  0 
 50 51  1  0  0  0  0 
 50 52  1  0  0  0  0 
 50 53  1  0  0  0  0 
 49 54  1  0  0  0  0 
 54 55  1  0  0  0  0 
 54 56  1  0  0  0  0 
 41 56  1  0  0  0  0 
 56 57  2  0  0  0  0 
 25 58  1  0  0  0  0 
 58 59  2  0  0  0  0 
 59 60  1  0  0  0  0 
 59 61  1  0  0  0  0 
 61 62  1  0  0  0  0 
 61 63  2  0  0  0  0 
 63 64  1  0  0  0  0 
 64 65  1  0  0  0  0 
 64 66  2  0  0  0  0 
 58 66  1  0  0  0  0 
 66 67  1  0  0  0  0 
 63 68  1  0  0  0  0 
 68 69  1  0  0  0  0 
 68 70  1  0  0  0  0 
 68 71  1  0  0  0  0 
 71 72  1  0  0  0  0 
 72 73  1  0  0  0  0 
 72 74  1  0  0  0  0 
 72 75  1  0  0  0  0 
 75 76  1  0  0  0  0 
 75 77  1  0  0  0  0 
 75 78  1  0  0  0  0 
 78 79  1  0  0  0  0 
 79 80  1  0  0  0  0 
 79 81  1  0  0  0  0 
 79 82  1  0  0  0  0 
 71 82  1  0  0  0  0 
 82 83  1  0  0  0  0 
 82 84  1  0  0  0  0 
M  END
> <Rank>
47

> <Priority_score>
0.0376

> <Reaction_type>
alkyl dehydrogenation

> <Parent_ID>
24

> <Parent_InChI>
InChI=1S/C34H44N4O4/c1-5-38(29-10-14-41-15-11-29)32-20-28(27-8-6-26(7-9-27)22-37-12-16-42-17-13-37)19-30(25(32)4)33(39)35-21-31-23(2)18-24(3)36-34(31)40/h6-9,18-20,29H,5,10-17,21-22H2,1-4H3,(H,35,39)(H,36,40)

> <Parent_SMILES>
CCN(c1cc(-c2ccc(CN3CCOCC3)cc2)cc(C(=O)NCc2c(C)cc(C)[nH]c2=O)c1C)C1CCOCC1

$$$$
Molecule 24_metabolite 48
  CDK     0516241031

 84 88  0  0  0  0  0  0  0  0999 V2000
    9.3431    6.3886    0.0000 C   0  0  0  0  0  0  0  0  0  0  0  0
   10.6420    5.6384    0.0000 H   0  0  0  0  0  0  0  0  0  0  0  0
    8.3791    7.5379    0.0000 H   0  0  0  0  0  0  0  0  0  0  0  0
   10.3074    7.5375    0.0000 H   0  0  0  0  0  0  0  0  0  0  0  0
    8.0439    5.6388    0.0000 C   0  0  0  0  0  0  0  0  0  0  0  0
    7.5311    7.0485    0.0000 H   0  0  0  0  0  0  0  0  0  0  0  0
    6.5667    5.3786    0.0000 H   0  0  0  0  0  0  0  0  0  0  0  0
    8.0437    4.1388    0.0000 N   0  0  0  0  0  0  0  0  0  0  0  0
   10.1739    2.9085    0.0000 C   0  0  0  0  0  0  0  0  0  0  0  0
    9.2093    1.7598    0.0000 H   0  0  0  0  0  0  0  0  0  0  0  0
   10.6871    4.3189    0.0000 C   0  0  0  0  0  0  0  0  0  0  0  0
    9.7231    5.4680    0.0000 H   0  0  0  0  0  0  0  0  0  0  0  0
   12.1644    4.5789    0.0000 C   0  0  0  0  0  0  0  0  0  0  0  0
   12.6781    5.9882    0.0000 H   0  0  0  0  0  0  0  0  0  0  0  0
   13.1285    3.4287    0.0000 O   0  0  0  0  0  0  0  0  0  0  0  0
   12.6152    2.0183    0.0000 C   0  0  0  0  0  0  0  0  0  0  0  0
   12.6150    0.5183    0.0000 H   0  0  0  0  0  0  0  0  0  0  0  0
   14.0924    1.7578    0.0000 H   0  0  0  0  0  0  0  0  0  0  0  0
   11.1379    1.7582    0.0000 C   0  0  0  0  0  0  0  0  0  0  0  0
    9.8385    1.0089    0.0000 H   0  0  0  0  0  0  0  0  0  0  0  0
   11.6504    0.3485    0.0000 H   0  0  0  0  0  0  0  0  0  0  0  0
    6.7445    3.3891    0.0000 C   0  0  0  0  0  0  0  0  0  0  0  0
    6.7440    1.8882    0.0000 C   0  0  0  0  0  0  0  0  0  0  0  0
    8.0431    1.1382    0.0000 H   0  0  0  0  0  0  0  0  0  0  0  0
    5.4445    1.1374    0.0000 C   0  0  0  0  0  0  0  0  0  0  0  0
    4.1455    1.8874    0.0000 C   0  0  0  0  0  0  0  0  0  0  0  0
    2.8463    1.1376    0.0000 H   0  0  0  0  0  0  0  0  0  0  0  0
    4.1460    3.3882    0.0000 C   0  0  0  0  0  0  0  0  0  0  0  0
    5.4455    4.1391    0.0000 C   0  0  0  0  0  0  0  0  0  0  0  0
    5.4452    5.6391    0.0000 C   0  0  0  0  0  0  0  0  0  0  0  0
    6.7442    6.3893    0.0000 H   0  0  0  0  0  0  0  0  0  0  0  0
    3.9681    5.3783    0.0000 H   0  0  0  0  0  0  0  0  0  0  0  0
    4.9320    7.0485    0.0000 H   0  0  0  0  0  0  0  0  0  0  0  0
    2.8469    4.1382    0.0000 C   0  0  0  0  0  0  0  0  0  0  0  0
    2.8469    5.6382    0.0000 O   0  0  0  0  0  0  0  0  0  0  0  0
    1.5479    3.3882    0.0000 N   0  0  0  0  0  0  0  0  0  0  0  0
    1.5479    1.8882    0.0000 H   0  0  0  0  0  0  0  0  0  0  0  0
    0.2488    4.1382    0.0000 C   0  0  0  0  0  0  0  0  0  0  0  0
   -0.7153    5.2873    0.0000 H   0  0  0  0  0  0  0  0  0  0  0  0
    1.2130    5.2873    0.0000 H   0  0  0  0  0  0  0  0  0  0  0  0
   -1.0502    3.3882    0.0000 C   0  0  0  0  0  0  0  0  0  0  0  0
   -1.0504    1.8874    0.0000 C   0  0  0  0  0  0  0  0  0  0  0  0
    0.2487    1.1376    0.0000 C   0  0  0  0  0  0  0  0  0  0  0  0
    0.2490   -0.3624    0.0000 H   0  0  0  0  0  0  0  0  0  0  0  0
    0.7615    2.5472    0.0000 H   0  0  0  0  0  0  0  0  0  0  0  0
    1.7260    0.8774    0.0000 H   0  0  0  0  0  0  0  0  0  0  0  0
   -2.3498    1.1363    0.0000 C   0  0  0  0  0  0  0  0  0  0  0  0
   -2.3494   -0.3637    0.0000 H   0  0  0  0  0  0  0  0  0  0  0  0
   -3.6490    1.8861    0.0000 C   0  0  0  0  0  0  0  0  0  0  0  0
   -4.9480    1.1361    0.0000 C   0  0  0  0  0  0  0  0  0  0  0  0
   -6.2471    1.8861    0.0000 H   0  0  0  0  0  0  0  0  0  0  0  0
   -3.9838   -0.0129    0.0000 H   0  0  0  0  0  0  0  0  0  0  0  0
   -5.9122   -0.0129    0.0000 H   0  0  0  0  0  0  0  0  0  0  0  0
   -3.6488    3.3870    0.0000 N   0  0  0  0  0  0  0  0  0  0  0  0
   -4.9479    4.1368    0.0000 H   0  0  0  0  0  0  0  0  0  0  0  0
   -2.3494    4.1380    0.0000 C   0  0  0  0  0  0  0  0  0  0  0  0
   -2.3498    5.6380    0.0000 O   0  0  0  0  0  0  0  0  0  0  0  0
    5.4448   -0.3626    0.0000 C   0  0  0  0  0  0  0  0  0  0  0  0
    4.1810   -1.0719    0.0000 C   0  0  0  0  0  0  0  0  0  0  0  0
    2.9017   -0.2887    0.0000 H   0  0  0  0  0  0  0  0  0  0  0  0
    4.1229   -2.5508    0.0000 C   0  0  0  0  0  0  0  0  0  0  0  0
    2.8139   -3.2833    0.0000 H   0  0  0  0  0  0  0  0  0  0  0  0
    5.4297   -3.2837    0.0000 C   0  0  0  0  0  0  0  0  0  0  0  0
    6.6935   -2.5744    0.0000 C   0  0  0  0  0  0  0  0  0  0  0  0
    7.9728   -3.3576    0.0000 H   0  0  0  0  0  0  0  0  0  0  0  0
    6.7516   -1.0955    0.0000 C   0  0  0  0  0  0  0  0  0  0  0  0
    8.0606   -0.3630    0.0000 H   0  0  0  0  0  0  0  0  0  0  0  0
    5.4300   -5.2637    0.0000 C   0  0  0  0  0  0  0  0  0  0  0  0
    3.9528   -5.0034    0.0000 H   0  0  0  0  0  0  0  0  0  0  0  0
    4.9172   -6.6733    0.0000 H   0  0  0  0  0  0  0  0  0  0  0  0
    7.1449   -6.2534    0.0000 N   0  0  0  0  0  0  0  0  0  0  0  0
    8.4440   -5.5034    0.0000 C   0  0  0  0  0  0  0  0  0  0  0  0
    9.4084   -4.3545    0.0000 H   0  0  0  0  0  0  0  0  0  0  0  0
    7.4799   -4.3542    0.0000 H   0  0  0  0  0  0  0  0  0  0  0  0
    9.7435   -6.2542    0.0000 C   0  0  0  0  0  0  0  0  0  0  0  0
   11.2207   -6.5145    0.0000 H   0  0  0  0  0  0  0  0  0  0  0  0
   10.2567   -4.8447    0.0000 H   0  0  0  0  0  0  0  0  0  0  0  0
    9.7440   -7.7551    0.0000 O   0  0  0  0  0  0  0  0  0  0  0  0
    8.4449   -8.5051    0.0000 C   0  0  0  0  0  0  0  0  0  0  0  0
    7.4805   -9.6539    0.0000 H   0  0  0  0  0  0  0  0  0  0  0  0
    9.4090   -9.6542    0.0000 H   0  0  0  0  0  0  0  0  0  0  0  0
    7.1454   -7.7542    0.0000 C   0  0  0  0  0  0  0  0  0  0  0  0
    5.6682   -7.4939    0.0000 H   0  0  0  0  0  0  0  0  0  0  0  0
    6.6322   -9.1637    0.0000 H   0  0  0  0  0  0  0  0  0  0  0  0
  1  2  1  0  0  0  0 
  1  3  1  0  0  0  0 
  1  4  1  0  0  0  0 
  1  5  1  0  0  0  0 
  5  6  1  0  0  0  0 
  5  7  1  0  0  0  0 
  5  8  1  0  0  0  0 
  8  9  1  0  0  0  0 
  9 10  1  0  0  0  0 
  9 11  1  0  0  0  0 
 11 12  1  0  0  0  0 
 11 13  2  0  0  0  0 
 13 14  1  0  0  0  0 
 13 15  1  0  0  0  0 
 15 16  1  0  0  0  0 
 16 17  1  0  0  0  0 
 16 18  1  0  0  0  0 
 16 19  1  0  0  0  0 
  9 19  1  0  0  0  0 
 19 20  1  0  0  0  0 
 19 21  1  0  0  0  0 
  8 22  1  0  0  0  0 
 22 23  2  0  0  0  0 
 23 24  1  0  0  0  0 
 23 25  1  0  0  0  0 
 25 26  2  0  0  0  0 
 26 27  1  0  0  0  0 
 26 28  1  0  0  0  0 
 28 29  2  0  0  0  0 
 22 29  1  0  0  0  0 
 29 30  1  0  0  0  0 
 30 31  1  0  0  0  0 
 30 32  1  0  0  0  0 
 30 33  1  0  0  0  0 
 28 34  1  0  0  0  0 
 34 35  2  0  0  0  0 
 34 36  1  0  0  0  0 
 36 37  1  0  0  0  0 
 36 38  1  0  0  0  0 
 38 39  1  0  0  0  0 
 38 40  1  0  0  0  0 
 38 41  1  0  0  0  0 
 41 42  2  0  0  0  0 
 42 43  1  0  0  0  0 
 43 44  1  0  0  0  0 
 43 45  1  0  0  0  0 
 43 46  1  0  0  0  0 
 42 47  1  0  0  0  0 
 47 48  1  0  0  0  0 
 47 49  2  0  0  0  0 
 49 50  1  0  0  0  0 
 50 51  1  0  0  0  0 
 50 52  1  0  0  0  0 
 50 53  1  0  0  0  0 
 49 54  1  0  0  0  0 
 54 55  1  0  0  0  0 
 54 56  1  0  0  0  0 
 41 56  1  0  0  0  0 
 56 57  2  0  0  0  0 
 25 58  1  0  0  0  0 
 58 59  2  0  0  0  0 
 59 60  1  0  0  0  0 
 59 61  1  0  0  0  0 
 61 62  1  0  0  0  0 
 61 63  2  0  0  0  0 
 63 64  1  0  0  0  0 
 64 65  1  0  0  0  0 
 64 66  2  0  0  0  0 
 58 66  1  0  0  0  0 
 66 67  1  0  0  0  0 
 63 68  1  0  0  0  0 
 68 69  1  0  0  0  0 
 68 70  1  0  0  0  0 
 68 71  1  0  0  0  0 
 71 72  1  0  0  0  0 
 72 73  1  0  0  0  0 
 72 74  1  0  0  0  0 
 72 75  1  0  0  0  0 
 75 76  1  0  0  0  0 
 75 77  1  0  0  0  0 
 75 78  1  0  0  0  0 
 78 79  1  0  0  0  0 
 79 80  1  0  0  0  0 
 79 81  1  0  0  0  0 
 79 82  1  0  0  0  0 
 71 82  1  0  0  0  0 
 82 83  1  0  0  0  0 
 82 84  1  0  0  0  0 
M  END
> <Rank>
48

> <Priority_score>
0.033600000000000005

> <Reaction_type>
alkyl dehydrogenation

> <Parent_ID>
24

> <Parent_InChI>
InChI=1S/C34H44N4O4/c1-5-38(29-10-14-41-15-11-29)32-20-28(27-8-6-26(7-9-27)22-37-12-16-42-17-13-37)19-30(25(32)4)33(39)35-21-31-23(2)18-24(3)36-34(31)40/h6-9,18-20,29H,5,10-17,21-22H2,1-4H3,(H,35,39)(H,36,40)

> <Parent_SMILES>
CCN(c1cc(-c2ccc(CN3CCOCC3)cc2)cc(C(=O)NCc2c(C)cc(C)[nH]c2=O)c1C)C1CCOCC1

$$$$
Molecule 24_metabolite 49
  CDK     0516241031

 84 88  0  0  0  0  0  0  0  0999 V2000
   15.9756   -7.2047    0.0000 C   0  0  0  0  0  0  0  0  0  0  0  0
   17.2747   -7.9545    0.0000 H   0  0  0  0  0  0  0  0  0  0  0  0
   14.4983   -6.9444    0.0000 H   0  0  0  0  0  0  0  0  0  0  0  0
   15.4628   -8.6143    0.0000 H   0  0  0  0  0  0  0  0  0  0  0  0
   15.9753   -5.7047    0.0000 C   0  0  0  0  0  0  0  0  0  0  0  0
   14.4982   -5.9654    0.0000 H   0  0  0  0  0  0  0  0  0  0  0  0
   15.4621   -4.2952    0.0000 H   0  0  0  0  0  0  0  0  0  0  0  0
   17.2742   -4.9545    0.0000 N   0  0  0  0  0  0  0  0  0  0  0  0
   19.8206   -6.4241    0.0000 C   0  0  0  0  0  0  0  0  0  0  0  0
   20.3331   -5.0143    0.0000 H   0  0  0  0  0  0  0  0  0  0  0  0
   18.8558   -7.5737    0.0000 C   0  0  0  0  0  0  0  0  0  0  0  0
   16.7256   -8.8040    0.0000 H   0  0  0  0  0  0  0  0  0  0  0  0
   17.8916   -6.4247    0.0000 H   0  0  0  0  0  0  0  0  0  0  0  0
   19.3692   -8.9831    0.0000 C   0  0  0  0  0  0  0  0  0  0  0  0
   19.3699  -10.4831    0.0000 H   0  0  0  0  0  0  0  0  0  0  0  0
   17.8921   -9.2441    0.0000 H   0  0  0  0  0  0  0  0  0  0  0  0
   20.8474   -9.2429    0.0000 O   0  0  0  0  0  0  0  0  0  0  0  0
   21.8122   -8.0932    0.0000 C   0  0  0  0  0  0  0  0  0  0  0  0
   23.1111   -7.3430    0.0000 H   0  0  0  0  0  0  0  0  0  0  0  0
   22.7764   -9.2422    0.0000 H   0  0  0  0  0  0  0  0  0  0  0  0
   21.2988   -6.6838    0.0000 C   0  0  0  0  0  0  0  0  0  0  0  0
   21.2981   -5.1838    0.0000 H   0  0  0  0  0  0  0  0  0  0  0  0
   22.7759   -6.4228    0.0000 H   0  0  0  0  0  0  0  0  0  0  0  0
   17.2740   -3.4545    0.0000 C   0  0  0  0  0  0  0  0  0  0  0  0
   18.5735   -2.7036    0.0000 C   0  0  0  0  0  0  0  0  0  0  0  0
   19.8726   -3.4536    0.0000 H   0  0  0  0  0  0  0  0  0  0  0  0
   18.5740   -1.2028    0.0000 C   0  0  0  0  0  0  0  0  0  0  0  0
   17.2750   -0.4528    0.0000 C   0  0  0  0  0  0  0  0  0  0  0  0
   17.2747    1.0472    0.0000 H   0  0  0  0  0  0  0  0  0  0  0  0
   15.9754   -1.2036    0.0000 C   0  0  0  0  0  0  0  0  0  0  0  0
   15.9750   -2.7045    0.0000 C   0  0  0  0  0  0  0  0  0  0  0  0
   14.6758   -3.4543    0.0000 C   0  0  0  0  0  0  0  0  0  0  0  0
   14.6756   -4.9543    0.0000 H   0  0  0  0  0  0  0  0  0  0  0  0
   14.1630   -2.0446    0.0000 H   0  0  0  0  0  0  0  0  0  0  0  0
   13.1985   -3.7145    0.0000 H   0  0  0  0  0  0  0  0  0  0  0  0
   14.6764   -0.4536    0.0000 C   0  0  0  0  0  0  0  0  0  0  0  0
   13.3774   -1.2036    0.0000 O   0  0  0  0  0  0  0  0  0  0  0  0
   14.6764    1.0464    0.0000 N   0  0  0  0  0  0  0  0  0  0  0  0
   13.3774    1.7964    0.0000 C   0  0  0  0  0  0  0  0  0  0  0  0
   12.0783    1.0464    0.0000 H   0  0  0  0  0  0  0  0  0  0  0  0
   13.3774    3.2964    0.0000 C   0  0  0  0  0  0  0  0  0  0  0  0
   12.0777    4.0470    0.0000 C   0  0  0  0  0  0  0  0  0  0  0  0
   10.7788    3.2968    0.0000 C   0  0  0  0  0  0  0  0  0  0  0  0
    9.4796    4.0466    0.0000 H   0  0  0  0  0  0  0  0  0  0  0  0
   11.7432    2.1479    0.0000 H   0  0  0  0  0  0  0  0  0  0  0  0
    9.8148    2.1476    0.0000 H   0  0  0  0  0  0  0  0  0  0  0  0
   12.0770    5.5478    0.0000 C   0  0  0  0  0  0  0  0  0  0  0  0
   10.7777    6.2974    0.0000 H   0  0  0  0  0  0  0  0  0  0  0  0
   13.3759    6.2980    0.0000 C   0  0  0  0  0  0  0  0  0  0  0  0
   13.3759    7.7980    0.0000 C   0  0  0  0  0  0  0  0  0  0  0  0
   14.6750    8.5480    0.0000 H   0  0  0  0  0  0  0  0  0  0  0  0
   11.8987    7.5376    0.0000 H   0  0  0  0  0  0  0  0  0  0  0  0
   12.8629    9.2076    0.0000 H   0  0  0  0  0  0  0  0  0  0  0  0
   14.6756    5.5474    0.0000 N   0  0  0  0  0  0  0  0  0  0  0  0
   15.9745    6.2976    0.0000 H   0  0  0  0  0  0  0  0  0  0  0  0
   14.6763    4.0466    0.0000 C   0  0  0  0  0  0  0  0  0  0  0  0
   15.9756    3.2970    0.0000 O   0  0  0  0  0  0  0  0  0  0  0  0
   19.8732   -0.4530    0.0000 C   0  0  0  0  0  0  0  0  0  0  0  0
   19.8555    0.9961    0.0000 C   0  0  0  0  0  0  0  0  0  0  0  0
   18.5376    1.7124    0.0000 H   0  0  0  0  0  0  0  0  0  0  0  0
   21.1072    1.7859    0.0000 C   0  0  0  0  0  0  0  0  0  0  0  0
   21.0871    3.2857    0.0000 H   0  0  0  0  0  0  0  0  0  0  0  0
   22.3953    1.0205    0.0000 C   0  0  0  0  0  0  0  0  0  0  0  0
   22.4130   -0.4285    0.0000 C   0  0  0  0  0  0  0  0  0  0  0  0
   23.7309   -1.1448    0.0000 H   0  0  0  0  0  0  0  0  0  0  0  0
   21.1613   -1.2183    0.0000 C   0  0  0  0  0  0  0  0  0  0  0  0
   21.1814   -2.7182    0.0000 H   0  0  0  0  0  0  0  0  0  0  0  0
   24.1102    2.0103    0.0000 C   0  0  0  0  0  0  0  0  0  0  0  0
   23.1462    3.1595    0.0000 H   0  0  0  0  0  0  0  0  0  0  0  0
   25.0746    3.1592    0.0000 H   0  0  0  0  0  0  0  0  0  0  0  0
   25.8248    1.0200    0.0000 N   0  0  0  0  0  0  0  0  0  0  0  0
   25.8248   -0.4800    0.0000 C   0  0  0  0  0  0  0  0  0  0  0  0
   25.3121   -1.8896    0.0000 H   0  0  0  0  0  0  0  0  0  0  0  0
   24.3476   -0.2197    0.0000 H   0  0  0  0  0  0  0  0  0  0  0  0
   27.1248   -1.2300    0.0000 C   0  0  0  0  0  0  0  0  0  0  0  0
   28.0889   -2.3792    0.0000 H   0  0  0  0  0  0  0  0  0  0  0  0
   26.1607   -2.3792    0.0000 H   0  0  0  0  0  0  0  0  0  0  0  0
   28.4248   -0.4800    0.0000 O   0  0  0  0  0  0  0  0  0  0  0  0
   28.4248    1.0200    0.0000 C   0  0  0  0  0  0  0  0  0  0  0  0
   28.9375    2.4296    0.0000 H   0  0  0  0  0  0  0  0  0  0  0  0
   29.9020    0.7597    0.0000 H   0  0  0  0  0  0  0  0  0  0  0  0
   27.1248    1.7700    0.0000 C   0  0  0  0  0  0  0  0  0  0  0  0
   26.1607    2.9192    0.0000 H   0  0  0  0  0  0  0  0  0  0  0  0
   28.0889    2.9192    0.0000 H   0  0  0  0  0  0  0  0  0  0  0  0
  1  2  1  0  0  0  0 
  1  3  1  0  0  0  0 
  1  4  1  0  0  0  0 
  1  5  1  0  0  0  0 
  5  6  1  0  0  0  0 
  5  7  1  0  0  0  0 
  5  8  1  0  0  0  0 
  8  9  1  0  0  0  0 
  9 10  1  0  0  0  0 
  9 11  1  0  0  0  0 
 11 12  1  0  0  0  0 
 11 13  1  0  0  0  0 
 11 14  1  0  0  0  0 
 14 15  1  0  0  0  0 
 14 16  1  0  0  0  0 
 14 17  1  0  0  0  0 
 17 18  1  0  0  0  0 
 18 19  1  0  0  0  0 
 18 20  1  0  0  0  0 
 18 21  1  0  0  0  0 
  9 21  1  0  0  0  0 
 21 22  1  0  0  0  0 
 21 23  1  0  0  0  0 
  8 24  1  0  0  0  0 
 24 25  2  0  0  0  0 
 25 26  1  0  0  0  0 
 25 27  1  0  0  0  0 
 27 28  2  0  0  0  0 
 28 29  1  0  0  0  0 
 28 30  1  0  0  0  0 
 30 31  2  0  0  0  0 
 24 31  1  0  0  0  0 
 31 32  1  0  0  0  0 
 32 33  1  0  0  0  0 
 32 34  1  0  0  0  0 
 32 35  1  0  0  0  0 
 30 36  1  0  0  0  0 
 36 37  2  0  0  0  0 
 36 38  1  0  0  0  0 
 38 39  2  0  0  0  0 
 39 40  1  4  0  0  0 
 39 41  1  0  0  0  0 
 41 42  2  0  0  0  0 
 42 43  1  0  0  0  0 
 43 44  1  0  0  0  0 
 43 45  1  0  0  0  0 
 43 46  1  0  0  0  0 
 42 47  1  0  0  0  0 
 47 48  1  0  0  0  0 
 47 49  2  0  0  0  0 
 49 50  1  0  0  0  0 
 50 51  1  0  0  0  0 
 50 52  1  0  0  0  0 
 50 53  1  0  0  0  0 
 49 54  1  0  0  0  0 
 54 55  1  0  0  0  0 
 54 56  1  0  0  0  0 
 41 56  1  0  0  0  0 
 56 57  2  0  0  0  0 
 27 58  1  0  0  0  0 
 58 59  2  0  0  0  0 
 59 60  1  0  0  0  0 
 59 61  1  0  0  0  0 
 61 62  1  0  0  0  0 
 61 63  2  0  0  0  0 
 63 64  1  0  0  0  0 
 64 65  1  0  0  0  0 
 64 66  2  0  0  0  0 
 58 66  1  0  0  0  0 
 66 67  1  0  0  0  0 
 63 68  1  0  0  0  0 
 68 69  1  0  0  0  0 
 68 70  1  0  0  0  0 
 68 71  1  0  0  0  0 
 71 72  1  0  0  0  0 
 72 73  1  0  0  0  0 
 72 74  1  0  0  0  0 
 72 75  1  0  0  0  0 
 75 76  1  0  0  0  0 
 75 77  1  0  0  0  0 
 75 78  1  0  0  0  0 
 78 79  1  0  0  0  0 
 79 80  1  0  0  0  0 
 79 81  1  0  0  0  0 
 79 82  1  0  0  0  0 
 71 82  1  0  0  0  0 
 82 83  1  0  0  0  0 
 82 84  1  0  0  0  0 
M  END
> <Rank>
49

> <Priority_score>
0.03178265452803066

> <Reaction_type>
dehydration of N-C bond

> <Parent_ID>
24

> <Parent_InChI>
InChI=1S/C34H44N4O4/c1-5-38(29-10-14-41-15-11-29)32-20-28(27-8-6-26(7-9-27)22-37-12-16-42-17-13-37)19-30(25(32)4)33(39)35-21-31-23(2)18-24(3)36-34(31)40/h6-9,18-20,29H,5,10-17,21-22H2,1-4H3,(H,35,39)(H,36,40)

> <Parent_SMILES>
CCN(c1cc(-c2ccc(CN3CCOCC3)cc2)cc(C(=O)NCc2c(C)cc(C)[nH]c2=O)c1C)C1CCOCC1

$$$$
Molecule 24_metabolite 50
  CDK     0516241031

 85 89  0  0  0  0  0  0  0  0999 V2000
   11.3184    3.7273    0.0000 C   0  0  0  0  0  0  0  0  0  0  0  0
   12.0682    2.4281    0.0000 H   0  0  0  0  0  0  0  0  0  0  0  0
   11.0582    5.2045    0.0000 H   0  0  0  0  0  0  0  0  0  0  0  0
   12.7280    4.2401    0.0000 H   0  0  0  0  0  0  0  0  0  0  0  0
    9.8184    3.7275    0.0000 C   0  0  0  0  0  0  0  0  0  0  0  0
   10.0791    5.2047    0.0000 H   0  0  0  0  0  0  0  0  0  0  0  0
    8.4090    4.2408    0.0000 H   0  0  0  0  0  0  0  0  0  0  0  0
    9.0682    2.4286    0.0000 N   0  0  0  0  0  0  0  0  0  0  0  0
   10.5378   -0.1177    0.0000 C   0  0  0  0  0  0  0  0  0  0  0  0
    9.1281   -0.6302    0.0000 H   0  0  0  0  0  0  0  0  0  0  0  0
   11.6874    0.8470    0.0000 C   0  0  0  0  0  0  0  0  0  0  0  0
   12.9178    2.9773    0.0000 H   0  0  0  0  0  0  0  0  0  0  0  0
   10.5384    1.8113    0.0000 H   0  0  0  0  0  0  0  0  0  0  0  0
   13.0969    0.3336    0.0000 C   0  0  0  0  0  0  0  0  0  0  0  0
   14.5969    0.3329    0.0000 H   0  0  0  0  0  0  0  0  0  0  0  0
   13.3579    1.8107    0.0000 H   0  0  0  0  0  0  0  0  0  0  0  0
   13.3566   -1.1446    0.0000 O   0  0  0  0  0  0  0  0  0  0  0  0
   12.2069   -2.1093    0.0000 C   0  0  0  0  0  0  0  0  0  0  0  0
   11.4567   -3.4083    0.0000 H   0  0  0  0  0  0  0  0  0  0  0  0
   13.3560   -3.0736    0.0000 H   0  0  0  0  0  0  0  0  0  0  0  0
   10.7975   -1.5959    0.0000 C   0  0  0  0  0  0  0  0  0  0  0  0
    9.2975   -1.5952    0.0000 H   0  0  0  0  0  0  0  0  0  0  0  0
   10.5365   -3.0730    0.0000 H   0  0  0  0  0  0  0  0  0  0  0  0
    7.5682    2.4288    0.0000 C   0  0  0  0  0  0  0  0  0  0  0  0
    6.8174    1.1293    0.0000 C   0  0  0  0  0  0  0  0  0  0  0  0
    7.5674   -0.1697    0.0000 H   0  0  0  0  0  0  0  0  0  0  0  0
    5.3165    1.1288    0.0000 C   0  0  0  0  0  0  0  0  0  0  0  0
    4.5665    2.4279    0.0000 C   0  0  0  0  0  0  0  0  0  0  0  0
    3.0665    2.4281    0.0000 H   0  0  0  0  0  0  0  0  0  0  0  0
    5.3174    3.7274    0.0000 C   0  0  0  0  0  0  0  0  0  0  0  0
    6.8182    3.7279    0.0000 C   0  0  0  0  0  0  0  0  0  0  0  0
    7.5680    5.0270    0.0000 C   0  0  0  0  0  0  0  0  0  0  0  0
    9.0680    5.0273    0.0000 H   0  0  0  0  0  0  0  0  0  0  0  0
    6.1584    5.5398    0.0000 H   0  0  0  0  0  0  0  0  0  0  0  0
    7.8282    6.5043    0.0000 H   0  0  0  0  0  0  0  0  0  0  0  0
    4.5674    5.0264    0.0000 C   0  0  0  0  0  0  0  0  0  0  0  0
    5.3174    6.3255    0.0000 O   0  0  0  0  0  0  0  0  0  0  0  0
    3.0674    5.0264    0.0000 N   0  0  0  0  0  0  0  0  0  0  0  0
    2.3174    3.7274    0.0000 H   0  0  0  0  0  0  0  0  0  0  0  0
    2.3174    6.3255    0.0000 C   0  0  0  0  0  0  0  0  0  0  0  0
    3.0674    7.6245    0.0000 H   0  0  0  0  0  0  0  0  0  0  0  0
    0.8174    6.3255    0.0000 C   0  0  0  0  0  0  0  0  0  0  0  0
    0.0667    5.0258    0.0000 C   0  0  0  0  0  0  0  0  0  0  0  0
    0.8170    3.7269    0.0000 C   0  0  0  0  0  0  0  0  0  0  0  0
    0.0672    2.4278    0.0000 H   0  0  0  0  0  0  0  0  0  0  0  0
    1.9659    4.6913    0.0000 H   0  0  0  0  0  0  0  0  0  0  0  0
    1.9662    2.7629    0.0000 H   0  0  0  0  0  0  0  0  0  0  0  0
   -1.4341    5.0251    0.0000 C   0  0  0  0  0  0  0  0  0  0  0  0
   -2.1837    3.7258    0.0000 H   0  0  0  0  0  0  0  0  0  0  0  0
   -2.1843    6.3240    0.0000 C   0  0  0  0  0  0  0  0  0  0  0  0
   -3.6843    6.3240    0.0000 C   0  0  0  0  0  0  0  0  0  0  0  0
   -4.4343    7.6231    0.0000 H   0  0  0  0  0  0  0  0  0  0  0  0
   -3.4238    4.8468    0.0000 H   0  0  0  0  0  0  0  0  0  0  0  0
   -5.0938    5.8110    0.0000 H   0  0  0  0  0  0  0  0  0  0  0  0
   -1.4337    7.6237    0.0000 N   0  0  0  0  0  0  0  0  0  0  0  0
   -2.1839    8.9226    0.0000 H   0  0  0  0  0  0  0  0  0  0  0  0
    0.0672    7.6244    0.0000 C   0  0  0  0  0  0  0  0  0  0  0  0
    0.8167    8.9237    0.0000 O   0  0  0  0  0  0  0  0  0  0  0  0
    4.5667   -0.1703    0.0000 C   0  0  0  0  0  0  0  0  0  0  0  0
    3.1177   -0.1527    0.0000 C   0  0  0  0  0  0  0  0  0  0  0  0
    2.4014    1.1652    0.0000 H   0  0  0  0  0  0  0  0  0  0  0  0
    2.3279   -1.4044    0.0000 C   0  0  0  0  0  0  0  0  0  0  0  0
    0.8280   -1.3843    0.0000 H   0  0  0  0  0  0  0  0  0  0  0  0
    3.0932   -2.6925    0.0000 C   0  0  0  0  0  0  0  0  0  0  0  0
    4.5423   -2.7101    0.0000 C   0  0  0  0  0  0  0  0  0  0  0  0
    5.2586   -4.0280    0.0000 H   0  0  0  0  0  0  0  0  0  0  0  0
    5.3321   -1.4585    0.0000 C   0  0  0  0  0  0  0  0  0  0  0  0
    6.8319   -1.4786    0.0000 H   0  0  0  0  0  0  0  0  0  0  0  0
    2.1035   -4.4074    0.0000 C   0  0  0  0  0  0  0  0  0  0  0  0
    0.9542   -3.4434    0.0000 H   0  0  0  0  0  0  0  0  0  0  0  0
    0.9546   -5.3718    0.0000 H   0  0  0  0  0  0  0  0  0  0  0  0
    3.0937   -6.1220    0.0000 N   0  0  0  0  0  0  0  0  0  0  0  0
    4.5937   -6.1220    0.0000 C   0  0  0  0  0  0  0  0  0  0  0  0
    6.0034   -5.6092    0.0000 H   0  0  0  0  0  0  0  0  0  0  0  0
    4.3334   -4.6447    0.0000 H   0  0  0  0  0  0  0  0  0  0  0  0
    5.3437   -7.4220    0.0000 C   0  0  0  0  0  0  0  0  0  0  0  0
    6.4929   -8.3860    0.0000 H   0  0  0  0  0  0  0  0  0  0  0  0
    6.4929   -6.4579    0.0000 H   0  0  0  0  0  0  0  0  0  0  0  0
    4.5937   -8.7220    0.0000 O   0  0  0  0  0  0  0  0  0  0  0  0
    3.0937   -8.7220    0.0000 C   0  0  0  0  0  0  0  0  0  0  0  0
    1.6841   -9.2347    0.0000 H   0  0  0  0  0  0  0  0  0  0  0  0
    3.3541  -10.1992    0.0000 H   0  0  0  0  0  0  0  0  0  0  0  0
    2.3437   -7.4220    0.0000 C   0  0  0  0  0  0  0  0  0  0  0  0
    1.1946   -6.4579    0.0000 H   0  0  0  0  0  0  0  0  0  0  0  0
    1.1946   -8.3860    0.0000 H   0  0  0  0  0  0  0  0  0  0  0  0
  1  2  1  0  0  0  0 
  1  3  1  0  0  0  0 
  1  4  1  0  0  0  0 
  1  5  1  0  0  0  0 
  5  6  1  0  0  0  0 
  5  7  1  0  0  0  0 
  5  8  1  0  0  0  0 
  8  9  1  0  0  0  0 
  9 10  1  0  0  0  0 
  9 11  1  0  0  0  0 
 11 12  1  0  0  0  0 
 11 13  1  0  0  0  0 
 11 14  1  0  0  0  0 
 14 15  1  0  0  0  0 
 14 16  1  0  0  0  0 
 14 17  1  0  0  0  0 
 17 18  1  0  0  0  0 
 18 19  1  0  0  0  0 
 18 20  1  0  0  0  0 
 18 21  1  0  0  0  0 
  9 21  1  0  0  0  0 
 21 22  1  0  0  0  0 
 21 23  1  0  0  0  0 
  8 24  1  0  0  0  0 
 24 25  2  0  0  0  0 
 25 26  1  0  0  0  0 
 25 27  1  0  0  0  0 
 27 28  2  0  0  0  0 
 28 29  1  0  0  0  0 
 28 30  1  0  0  0  0 
 30 31  2  0  0  0  0 
 24 31  1  0  0  0  0 
 31 32  1  0  0  0  0 
 32 33  1  0  0  0  0 
 32 34  1  0  0  0  0 
 32 35  1  0  0  0  0 
 30 36  1  0  0  0  0 
 36 37  2  0  0  0  0 
 36 38  1  0  0  0  0 
 38 39  1  4  0  0  0 
 38 40  2  0  0  0  0 
 40 41  1  0  0  0  0 
 40 42  1  0  0  0  0 
 42 43  2  0  0  0  0 
 43 44  1  0  0  0  0 
 44 45  1  0  0  0  0 
 44 46  1  0  0  0  0 
 44 47  1  0  0  0  0 
 43 48  1  0  0  0  0 
 48 49  1  0  0  0  0 
 48 50  2  0  0  0  0 
 50 51  1  0  0  0  0 
 51 52  1  0  0  0  0 
 51 53  1  0  0  0  0 
 51 54  1  0  0  0  0 
 50 55  1  0  0  0  0 
 55 56  1  0  0  0  0 
 55 57  1  0  0  0  0 
 42 57  1  0  0  0  0 
 57 58  2  0  0  0  0 
 27 59  1  0  0  0  0 
 59 60  2  0  0  0  0 
 60 61  1  0  0  0  0 
 60 62  1  0  0  0  0 
 62 63  1  0  0  0  0 
 62 64  2  0  0  0  0 
 64 65  1  0  0  0  0 
 65 66  1  0  0  0  0 
 65 67  2  0  0  0  0 
 59 67  1  0  0  0  0 
 67 68  1  0  0  0  0 
 64 69  1  0  0  0  0 
 69 70  1  0  0  0  0 
 69 71  1  0  0  0  0 
 69 72  1  0  0  0  0 
 72 73  1  0  0  0  0 
 73 74  1  0  0  0  0 
 73 75  1  0  0  0  0 
 73 76  1  0  0  0  0 
 76 77  1  0  0  0  0 
 76 78  1  0  0  0  0 
 76 79  1  0  0  0  0 
 79 80  1  0  0  0  0 
 80 81  1  0  0  0  0 
 80 82  1  0  0  0  0 
 80 83  1  0  0  0  0 
 72 83  1  0  0  0  0 
 83 84  1  0  0  0  0 
 83 85  1  0  0  0  0 
M  CHG  1  38   1
M  END
> <Rank>
49

> <Priority_score>
0.03178265452803066

> <Reaction_type>
dehydration of N-C bond

> <Parent_ID>
24

> <Parent_InChI>
InChI=1S/C34H44N4O4/c1-5-38(29-10-14-41-15-11-29)32-20-28(27-8-6-26(7-9-27)22-37-12-16-42-17-13-37)19-30(25(32)4)33(39)35-21-31-23(2)18-24(3)36-34(31)40/h6-9,18-20,29H,5,10-17,21-22H2,1-4H3,(H,35,39)(H,36,40)

> <Parent_SMILES>
CCN(c1cc(-c2ccc(CN3CCOCC3)cc2)cc(C(=O)NCc2c(C)cc(C)[nH]c2=O)c1C)C1CCOCC1

$$$$
Molecule 24_metabolite 51
  CDK     0516241031

 84 88  0  0  0  0  0  0  0  0999 V2000
    9.6845    6.9800    0.0000 C   0  0  0  0  0  0  0  0  0  0  0  0
    9.6847    8.4800    0.0000 H   0  0  0  0  0  0  0  0  0  0  0  0
   10.1973    5.5704    0.0000 H   0  0  0  0  0  0  0  0  0  0  0  0
   11.1617    7.2402    0.0000 H   0  0  0  0  0  0  0  0  0  0  0  0
    8.3853    6.2302    0.0000 C   0  0  0  0  0  0  0  0  0  0  0  0
    7.8725    7.6398    0.0000 H   0  0  0  0  0  0  0  0  0  0  0  0
    6.9081    5.9699    0.0000 H   0  0  0  0  0  0  0  0  0  0  0  0
    8.3851    4.7302    0.0000 N   0  0  0  0  0  0  0  0  0  0  0  0
    9.6840    3.9800    0.0000 C   0  0  0  0  0  0  0  0  0  0  0  0
   10.9836    4.7306    0.0000 C   0  0  0  0  0  0  0  0  0  0  0  0
   10.9836    6.2306    0.0000 H   0  0  0  0  0  0  0  0  0  0  0  0
   12.2826    3.9804    0.0000 C   0  0  0  0  0  0  0  0  0  0  0  0
   13.7597    3.7194    0.0000 H   0  0  0  0  0  0  0  0  0  0  0  0
   12.7960    5.3898    0.0000 H   0  0  0  0  0  0  0  0  0  0  0  0
   12.2818    2.4796    0.0000 O   0  0  0  0  0  0  0  0  0  0  0  0
   10.9822    1.7289    0.0000 C   0  0  0  0  0  0  0  0  0  0  0  0
   10.0180    0.5799    0.0000 H   0  0  0  0  0  0  0  0  0  0  0  0
   11.9464    0.5799    0.0000 H   0  0  0  0  0  0  0  0  0  0  0  0
    9.6833    2.4791    0.0000 C   0  0  0  0  0  0  0  0  0  0  0  0
    8.2062    2.7402    0.0000 H   0  0  0  0  0  0  0  0  0  0  0  0
    9.1699    1.0697    0.0000 H   0  0  0  0  0  0  0  0  0  0  0  0
    7.0859    3.9804    0.0000 C   0  0  0  0  0  0  0  0  0  0  0  0
    7.0854    2.4796    0.0000 C   0  0  0  0  0  0  0  0  0  0  0  0
    8.3845    1.7296    0.0000 H   0  0  0  0  0  0  0  0  0  0  0  0
    5.7859    1.7287    0.0000 C   0  0  0  0  0  0  0  0  0  0  0  0
    4.4869    2.4787    0.0000 C   0  0  0  0  0  0  0  0  0  0  0  0
    3.1877    1.7289    0.0000 H   0  0  0  0  0  0  0  0  0  0  0  0
    4.4874    3.9796    0.0000 C   0  0  0  0  0  0  0  0  0  0  0  0
    5.7869    4.7304    0.0000 C   0  0  0  0  0  0  0  0  0  0  0  0
    5.7866    6.2304    0.0000 C   0  0  0  0  0  0  0  0  0  0  0  0
    7.0856    6.9806    0.0000 H   0  0  0  0  0  0  0  0  0  0  0  0
    4.3095    5.9697    0.0000 H   0  0  0  0  0  0  0  0  0  0  0  0
    5.2734    7.6398    0.0000 H   0  0  0  0  0  0  0  0  0  0  0  0
    3.1883    4.7296    0.0000 C   0  0  0  0  0  0  0  0  0  0  0  0
    3.1883    6.2296    0.0000 O   0  0  0  0  0  0  0  0  0  0  0  0
    1.8893    3.9796    0.0000 N   0  0  0  0  0  0  0  0  0  0  0  0
    1.8893    2.4796    0.0000 H   0  0  0  0  0  0  0  0  0  0  0  0
    0.5903    4.7296    0.0000 C   0  0  0  0  0  0  0  0  0  0  0  0
   -0.3739    5.8786    0.0000 H   0  0  0  0  0  0  0  0  0  0  0  0
    1.5544    5.8786    0.0000 H   0  0  0  0  0  0  0  0  0  0  0  0
   -0.7088    3.9796    0.0000 C   0  0  0  0  0  0  0  0  0  0  0  0
   -0.7090    2.4787    0.0000 C   0  0  0  0  0  0  0  0  0  0  0  0
    0.5901    1.7289    0.0000 C   0  0  0  0  0  0  0  0  0  0  0  0
    0.5904    0.2289    0.0000 H   0  0  0  0  0  0  0  0  0  0  0  0
    1.1029    3.1386    0.0000 H   0  0  0  0  0  0  0  0  0  0  0  0
    2.0674    1.4687    0.0000 H   0  0  0  0  0  0  0  0  0  0  0  0
   -2.0084    1.7277    0.0000 C   0  0  0  0  0  0  0  0  0  0  0  0
   -2.0079    0.2277    0.0000 H   0  0  0  0  0  0  0  0  0  0  0  0
   -3.3076    2.4775    0.0000 C   0  0  0  0  0  0  0  0  0  0  0  0
   -4.6066    1.7275    0.0000 C   0  0  0  0  0  0  0  0  0  0  0  0
   -5.9057    2.4775    0.0000 H   0  0  0  0  0  0  0  0  0  0  0  0
   -3.6424    0.5784    0.0000 H   0  0  0  0  0  0  0  0  0  0  0  0
   -5.5708    0.5784    0.0000 H   0  0  0  0  0  0  0  0  0  0  0  0
   -3.3073    3.9783    0.0000 N   0  0  0  0  0  0  0  0  0  0  0  0
   -4.6065    4.7281    0.0000 H   0  0  0  0  0  0  0  0  0  0  0  0
   -2.0079    4.7293    0.0000 C   0  0  0  0  0  0  0  0  0  0  0  0
   -2.0084    6.2293    0.0000 O   0  0  0  0  0  0  0  0  0  0  0  0
    5.7862    0.2287    0.0000 C   0  0  0  0  0  0  0  0  0  0  0  0
    4.5224   -0.4805    0.0000 C   0  0  0  0  0  0  0  0  0  0  0  0
    3.2431    0.3026    0.0000 H   0  0  0  0  0  0  0  0  0  0  0  0
    4.4643   -1.9594    0.0000 C   0  0  0  0  0  0  0  0  0  0  0  0
    3.1553   -2.6920    0.0000 H   0  0  0  0  0  0  0  0  0  0  0  0
    5.7711   -2.6923    0.0000 C   0  0  0  0  0  0  0  0  0  0  0  0
    7.0349   -1.9831    0.0000 C   0  0  0  0  0  0  0  0  0  0  0  0
    8.3142   -2.7662    0.0000 H   0  0  0  0  0  0  0  0  0  0  0  0
    7.0930   -0.5042    0.0000 C   0  0  0  0  0  0  0  0  0  0  0  0
    8.4020    0.2283    0.0000 H   0  0  0  0  0  0  0  0  0  0  0  0
    5.7714   -4.6723    0.0000 C   0  0  0  0  0  0  0  0  0  0  0  0
    4.2942   -4.4121    0.0000 H   0  0  0  0  0  0  0  0  0  0  0  0
    5.2586   -6.0820    0.0000 H   0  0  0  0  0  0  0  0  0  0  0  0
    7.4863   -5.6621    0.0000 N   0  0  0  0  0  0  0  0  0  0  0  0
    8.7854   -4.9121    0.0000 C   0  0  0  0  0  0  0  0  0  0  0  0
    9.7498   -3.7632    0.0000 H   0  0  0  0  0  0  0  0  0  0  0  0
    7.8213   -3.7629    0.0000 H   0  0  0  0  0  0  0  0  0  0  0  0
   10.0849   -5.6629    0.0000 C   0  0  0  0  0  0  0  0  0  0  0  0
   11.5621   -5.9232    0.0000 H   0  0  0  0  0  0  0  0  0  0  0  0
   10.5981   -4.2534    0.0000 H   0  0  0  0  0  0  0  0  0  0  0  0
   10.0854   -7.1637    0.0000 O   0  0  0  0  0  0  0  0  0  0  0  0
    8.7863   -7.9137    0.0000 C   0  0  0  0  0  0  0  0  0  0  0  0
    7.8219   -9.0626    0.0000 H   0  0  0  0  0  0  0  0  0  0  0  0
    9.7504   -9.0629    0.0000 H   0  0  0  0  0  0  0  0  0  0  0  0
    7.4868   -7.1629    0.0000 C   0  0  0  0  0  0  0  0  0  0  0  0
    6.0096   -6.9026    0.0000 H   0  0  0  0  0  0  0  0  0  0  0  0
    6.9736   -8.5724    0.0000 H   0  0  0  0  0  0  0  0  0  0  0  0
  1  2  1  0  0  0  0 
  1  3  1  0  0  0  0 
  1  4  1  0  0  0  0 
  1  5  1  0  0  0  0 
  5  6  1  0  0  0  0 
  5  7  1  0  0  0  0 
  5  8  1  0  0  0  0 
  8  9  1  0  0  0  0 
  9 10  2  0  0  0  0 
 10 11  1  0  0  0  0 
 10 12  1  0  0  0  0 
 12 13  1  0  0  0  0 
 12 14  1  0  0  0  0 
 12 15  1  0  0  0  0 
 15 16  1  0  0  0  0 
 16 17  1  0  0  0  0 
 16 18  1  0  0  0  0 
 16 19  1  0  0  0  0 
  9 19  1  0  0  0  0 
 19 20  1  0  0  0  0 
 19 21  1  0  0  0  0 
  8 22  1  0  0  0  0 
 22 23  2  0  0  0  0 
 23 24  1  0  0  0  0 
 23 25  1  0  0  0  0 
 25 26  2  0  0  0  0 
 26 27  1  0  0  0  0 
 26 28  1  0  0  0  0 
 28 29  2  0  0  0  0 
 22 29  1  0  0  0  0 
 29 30  1  0  0  0  0 
 30 31  1  0  0  0  0 
 30 32  1  0  0  0  0 
 30 33  1  0  0  0  0 
 28 34  1  0  0  0  0 
 34 35  2  0  0  0  0 
 34 36  1  0  0  0  0 
 36 37  1  0  0  0  0 
 36 38  1  0  0  0  0 
 38 39  1  0  0  0  0 
 38 40  1  0  0  0  0 
 38 41  1  0  0  0  0 
 41 42  2  0  0  0  0 
 42 43  1  0  0  0  0 
 43 44  1  0  0  0  0 
 43 45  1  0  0  0  0 
 43 46  1  0  0  0  0 
 42 47  1  0  0  0  0 
 47 48  1  0  0  0  0 
 47 49  2  0  0  0  0 
 49 50  1  0  0  0  0 
 50 51  1  0  0  0  0 
 50 52  1  0  0  0  0 
 50 53  1  0  0  0  0 
 49 54  1  0  0  0  0 
 54 55  1  0  0  0  0 
 54 56  1  0  0  0  0 
 41 56  1  0  0  0  0 
 56 57  2  0  0  0  0 
 25 58  1  0  0  0  0 
 58 59  2  0  0  0  0 
 59 60  1  0  0  0  0 
 59 61  1  0  0  0  0 
 61 62  1  0  0  0  0 
 61 63  2  0  0  0  0 
 63 64  1  0  0  0  0 
 64 65  1  0  0  0  0 
 64 66  2  0  0  0  0 
 58 66  1  0  0  0  0 
 66 67  1  0  0  0  0 
 63 68  1  0  0  0  0 
 68 69  1  0  0  0  0 
 68 70  1  0  0  0  0 
 68 71  1  0  0  0  0 
 71 72  1  0  0  0  0 
 72 73  1  0  0  0  0 
 72 74  1  0  0  0  0 
 72 75  1  0  0  0  0 
 75 76  1  0  0  0  0 
 75 77  1  0  0  0  0 
 75 78  1  0  0  0  0 
 78 79  1  0  0  0  0 
 79 80  1  0  0  0  0 
 79 81  1  0  0  0  0 
 79 82  1  0  0  0  0 
 71 82  1  0  0  0  0 
 82 83  1  0  0  0  0 
 82 84  1  0  0  0  0 
M  END
> <Rank>
51

> <Priority_score>
0.031200000000000002

> <Reaction_type>
alkyl dehydrogenation

> <Parent_ID>
24

> <Parent_InChI>
InChI=1S/C34H44N4O4/c1-5-38(29-10-14-41-15-11-29)32-20-28(27-8-6-26(7-9-27)22-37-12-16-42-17-13-37)19-30(25(32)4)33(39)35-21-31-23(2)18-24(3)36-34(31)40/h6-9,18-20,29H,5,10-17,21-22H2,1-4H3,(H,35,39)(H,36,40)

> <Parent_SMILES>
CCN(c1cc(-c2ccc(CN3CCOCC3)cc2)cc(C(=O)NCc2c(C)cc(C)[nH]c2=O)c1C)C1CCOCC1

$$$$
Molecule 24_metabolite 52
  CDK     0516241031

 87 91  0  0  0  0  0  0  0  0999 V2000
   11.5643    3.5314    0.0000 C   0  0  0  0  0  0  0  0  0  0  0  0
   12.3141    2.2323    0.0000 H   0  0  0  0  0  0  0  0  0  0  0  0
   11.3041    5.0087    0.0000 H   0  0  0  0  0  0  0  0  0  0  0  0
   12.9740    4.0443    0.0000 H   0  0  0  0  0  0  0  0  0  0  0  0
   10.0643    3.5317    0.0000 C   0  0  0  0  0  0  0  0  0  0  0  0
   10.3250    5.0089    0.0000 H   0  0  0  0  0  0  0  0  0  0  0  0
    8.6549    4.0449    0.0000 H   0  0  0  0  0  0  0  0  0  0  0  0
    9.3141    2.2328    0.0000 N   0  0  0  0  0  0  0  0  0  0  0  0
   10.7837   -0.3136    0.0000 C   0  0  0  0  0  0  0  0  0  0  0  0
    9.3740   -0.8261    0.0000 H   0  0  0  0  0  0  0  0  0  0  0  0
   11.9334    0.6512    0.0000 C   0  0  0  0  0  0  0  0  0  0  0  0
   13.1637    2.7814    0.0000 H   0  0  0  0  0  0  0  0  0  0  0  0
   10.7844    1.6154    0.0000 H   0  0  0  0  0  0  0  0  0  0  0  0
   13.3428    0.1378    0.0000 C   0  0  0  0  0  0  0  0  0  0  0  0
   14.8428    0.1371    0.0000 H   0  0  0  0  0  0  0  0  0  0  0  0
   13.6038    1.6149    0.0000 H   0  0  0  0  0  0  0  0  0  0  0  0
   13.6025   -1.3404    0.0000 O   0  0  0  0  0  0  0  0  0  0  0  0
   12.4529   -2.3052    0.0000 C   0  0  0  0  0  0  0  0  0  0  0  0
   11.7027   -3.6041    0.0000 H   0  0  0  0  0  0  0  0  0  0  0  0
   13.6019   -3.2694    0.0000 H   0  0  0  0  0  0  0  0  0  0  0  0
   11.0435   -1.7918    0.0000 C   0  0  0  0  0  0  0  0  0  0  0  0
    9.5435   -1.7910    0.0000 H   0  0  0  0  0  0  0  0  0  0  0  0
   10.7824   -3.2689    0.0000 H   0  0  0  0  0  0  0  0  0  0  0  0
    7.8141    2.2330    0.0000 C   0  0  0  0  0  0  0  0  0  0  0  0
    7.0633    0.9335    0.0000 C   0  0  0  0  0  0  0  0  0  0  0  0
    7.8133   -0.3655    0.0000 H   0  0  0  0  0  0  0  0  0  0  0  0
    5.5625    0.9330    0.0000 C   0  0  0  0  0  0  0  0  0  0  0  0
    4.8125    2.2320    0.0000 C   0  0  0  0  0  0  0  0  0  0  0  0
    3.3125    2.2323    0.0000 H   0  0  0  0  0  0  0  0  0  0  0  0
    5.5633    3.5316    0.0000 C   0  0  0  0  0  0  0  0  0  0  0  0
    7.0641    3.5320    0.0000 C   0  0  0  0  0  0  0  0  0  0  0  0
    7.8139    4.8312    0.0000 C   0  0  0  0  0  0  0  0  0  0  0  0
    9.3139    4.8314    0.0000 H   0  0  0  0  0  0  0  0  0  0  0  0
    6.4043    5.3440    0.0000 H   0  0  0  0  0  0  0  0  0  0  0  0
    8.0742    6.3085    0.0000 H   0  0  0  0  0  0  0  0  0  0  0  0
    4.8133    4.8306    0.0000 C   0  0  0  0  0  0  0  0  0  0  0  0
    5.5633    6.1296    0.0000 O   0  0  0  0  0  0  0  0  0  0  0  0
    3.3133    4.8306    0.0000 N   0  0  0  0  0  0  0  0  0  0  0  0
    2.5633    3.5316    0.0000 H   0  0  0  0  0  0  0  0  0  0  0  0
    2.5633    6.1296    0.0000 C   0  0  0  0  0  0  0  0  0  0  0  0
    2.3028    7.6069    0.0000 H   0  0  0  0  0  0  0  0  0  0  0  0
    3.9728    6.6427    0.0000 H   0  0  0  0  0  0  0  0  0  0  0  0
    1.0633    6.1296    0.0000 C   0  0  0  0  0  0  0  0  0  0  0  0
    0.3127    4.8300    0.0000 C   0  0  0  0  0  0  0  0  0  0  0  0
    1.0629    3.5311    0.0000 C   0  0  0  0  0  0  0  0  0  0  0  0
    0.3131    2.2319    0.0000 H   0  0  0  0  0  0  0  0  0  0  0  0
    2.2118    4.4955    0.0000 H   0  0  0  0  0  0  0  0  0  0  0  0
    2.2121    2.5671    0.0000 H   0  0  0  0  0  0  0  0  0  0  0  0
   -1.1882    4.8293    0.0000 C   0  0  0  0  0  0  0  0  0  0  0  0
   -1.9377    3.5300    0.0000 H   0  0  0  0  0  0  0  0  0  0  0  0
   -1.9384    6.1282    0.0000 C   0  0  0  0  0  0  0  0  0  0  0  0
   -3.4384    6.1282    0.0000 C   0  0  0  0  0  0  0  0  0  0  0  0
   -4.1884    7.4272    0.0000 H   0  0  0  0  0  0  0  0  0  0  0  0
   -3.1779    4.6510    0.0000 H   0  0  0  0  0  0  0  0  0  0  0  0
   -4.8479    5.6152    0.0000 H   0  0  0  0  0  0  0  0  0  0  0  0
   -1.1877    7.4278    0.0000 N   0  0  0  0  0  0  0  0  0  0  0  0
   -1.9380    8.7268    0.0000 H   0  0  0  0  0  0  0  0  0  0  0  0
    0.3131    7.4286    0.0000 C   0  0  0  0  0  0  0  0  0  0  0  0
    1.0627    8.7278    0.0000 O   0  0  0  0  0  0  0  0  0  0  0  0
    4.8127   -0.3661    0.0000 C   0  0  0  0  0  0  0  0  0  0  0  0
    3.3118   -0.3659    0.0000 C   0  0  0  0  0  0  0  0  0  0  0  0
    2.5620   -1.6651    0.0000 C   0  0  0  0  0  0  0  0  0  0  0  0
    1.0620   -1.6655    0.0000 H   0  0  0  0  0  0  0  0  0  0  0  0
    3.3131   -2.9645    0.0000 C   0  0  0  0  0  0  0  0  0  0  0  0
    4.8139   -2.9647    0.0000 C   0  0  0  0  0  0  0  0  0  0  0  0
    5.5639   -4.2637    0.0000 H   0  0  0  0  0  0  0  0  0  0  0  0
    5.5637   -1.6655    0.0000 C   0  0  0  0  0  0  0  0  0  0  0  0
    7.0637   -1.6651    0.0000 H   0  0  0  0  0  0  0  0  0  0  0  0
    2.5633   -4.2636    0.0000 C   0  0  0  0  0  0  0  0  0  0  0  0
    1.4141   -3.2996    0.0000 H   0  0  0  0  0  0  0  0  0  0  0  0
    1.4144   -5.2280    0.0000 H   0  0  0  0  0  0  0  0  0  0  0  0
    3.5536   -5.9782    0.0000 N   0  0  0  0  0  0  0  0  0  0  0  0
    5.0536   -5.9782    0.0000 C   0  0  0  0  0  0  0  0  0  0  0  0
    6.4632   -5.4655    0.0000 H   0  0  0  0  0  0  0  0  0  0  0  0
    4.7933   -4.5010    0.0000 H   0  0  0  0  0  0  0  0  0  0  0  0
    5.8036   -7.2782    0.0000 C   0  0  0  0  0  0  0  0  0  0  0  0
    6.9527   -8.2423    0.0000 H   0  0  0  0  0  0  0  0  0  0  0  0
    6.9527   -6.3141    0.0000 H   0  0  0  0  0  0  0  0  0  0  0  0
    5.0536   -8.5782    0.0000 O   0  0  0  0  0  0  0  0  0  0  0  0
    3.5536   -8.5782    0.0000 C   0  0  0  0  0  0  0  0  0  0  0  0
    2.1439   -9.0909    0.0000 H   0  0  0  0  0  0  0  0  0  0  0  0
    3.8139  -10.0554    0.0000 H   0  0  0  0  0  0  0  0  0  0  0  0
    2.8036   -7.2782    0.0000 C   0  0  0  0  0  0  0  0  0  0  0  0
    1.6544   -6.3141    0.0000 H   0  0  0  0  0  0  0  0  0  0  0  0
    1.6544   -8.2423    0.0000 H   0  0  0  0  0  0  0  0  0  0  0  0
    2.5618    0.9331    0.0000 O   0  0  0  0  0  0  0  0  0  0  0  0
    1.0618    0.9331    0.0000 H   0  0  0  0  0  0  0  0  0  0  0  0
  1  2  1  0  0  0  0 
  1  3  1  0  0  0  0 
  1  4  1  0  0  0  0 
  1  5  1  0  0  0  0 
  5  6  1  0  0  0  0 
  5  7  1  0  0  0  0 
  5  8  1  0  0  0  0 
  8  9  1  0  0  0  0 
  9 10  1  0  0  0  0 
  9 11  1  0  0  0  0 
 11 12  1  0  0  0  0 
 11 13  1  0  0  0  0 
 11 14  1  0  0  0  0 
 14 15  1  0  0  0  0 
 14 16  1  0  0  0  0 
 14 17  1  0  0  0  0 
 17 18  1  0  0  0  0 
 18 19  1  0  0  0  0 
 18 20  1  0  0  0  0 
 18 21  1  0  0  0  0 
  9 21  1  0  0  0  0 
 21 22  1  0  0  0  0 
 21 23  1  0  0  0  0 
  8 24  1  0  0  0  0 
 24 25  2  0  0  0  0 
 25 26  1  0  0  0  0 
 25 27  1  0  0  0  0 
 27 28  2  0  0  0  0 
 28 29  1  0  0  0  0 
 28 30  1  0  0  0  0 
 30 31  2  0  0  0  0 
 24 31  1  0  0  0  0 
 31 32  1  0  0  0  0 
 32 33  1  0  0  0  0 
 32 34  1  0  0  0  0 
 32 35  1  0  0  0  0 
 30 36  1  0  0  0  0 
 36 37  2  0  0  0  0 
 36 38  1  0  0  0  0 
 38 39  1  0  0  0  0 
 38 40  1  0  0  0  0 
 40 41  1  0  0  0  0 
 40 42  1  0  0  0  0 
 40 43  1  0  0  0  0 
 43 44  2  0  0  0  0 
 44 45  1  0  0  0  0 
 45 46  1  0  0  0  0 
 45 47  1  0  0  0  0 
 45 48  1  0  0  0  0 
 44 49  1  0  0  0  0 
 49 50  1  0  0  0  0 
 49 51  2  0  0  0  0 
 51 52  1  0  0  0  0 
 52 53  1  0  0  0  0 
 52 54  1  0  0  0  0 
 52 55  1  0  0  0  0 
 51 56  1  0  0  0  0 
 56 57  1  0  0  0  0 
 56 58  1  0  0  0  0 
 43 58  1  0  0  0  0 
 58 59  2  0  0  0  0 
 27 60  1  0  0  0  0 
 60 61  2  0  0  0  0 
 61 62  1  0  0  0  0 
 62 63  1  0  0  0  0 
 62 64  2  0  0  0  0 
 64 65  1  0  0  0  0 
 65 66  1  0  0  0  0 
 65 67  2  0  0  0  0 
 60 67  1  0  0  0  0 
 67 68  1  0  0  0  0 
 64 69  1  0  0  0  0 
 69 70  1  0  0  0  0 
 69 71  1  0  0  0  0 
 69 72  1  0  0  0  0 
 72 73  1  0  0  0  0 
 73 74  1  0  0  0  0 
 73 75  1  0  0  0  0 
 73 76  1  0  0  0  0 
 76 77  1  0  0  0  0 
 76 78  1  0  0  0  0 
 76 79  1  0  0  0  0 
 79 80  1  0  0  0  0 
 80 81  1  0  0  0  0 
 80 82  1  0  0  0  0 
 80 83  1  0  0  0  0 
 72 83  1  0  0  0  0 
 83 84  1  0  0  0  0 
 83 85  1  0  0  0  0 
 61 86  1  0  0  0  0 
 86 87  1  0  0  0  0 
M  END
> <Rank>
52

> <Priority_score>
0.024

> <Reaction_type>
aromatic hydroxylation

> <Parent_ID>
24

> <Parent_InChI>
InChI=1S/C34H44N4O4/c1-5-38(29-10-14-41-15-11-29)32-20-28(27-8-6-26(7-9-27)22-37-12-16-42-17-13-37)19-30(25(32)4)33(39)35-21-31-23(2)18-24(3)36-34(31)40/h6-9,18-20,29H,5,10-17,21-22H2,1-4H3,(H,35,39)(H,36,40)

> <Parent_SMILES>
CCN(c1cc(-c2ccc(CN3CCOCC3)cc2)cc(C(=O)NCc2c(C)cc(C)[nH]c2=O)c1C)C1CCOCC1

$$$$
Molecule 24_metabolite 53
  CDK     0516241031

 87 91  0  0  0  0  0  0  0  0999 V2000
    9.1333   -8.7369    0.0000 C   0  0  0  0  0  0  0  0  0  0  0  0
    7.8342   -7.9871    0.0000 H   0  0  0  0  0  0  0  0  0  0  0  0
    8.1693   -9.8861    0.0000 H   0  0  0  0  0  0  0  0  0  0  0  0
   10.0977   -9.8858    0.0000 H   0  0  0  0  0  0  0  0  0  0  0  0
   10.4322   -7.9867    0.0000 C   0  0  0  0  0  0  0  0  0  0  0  0
   10.4315   -6.4859    0.0000 C   0  0  0  0  0  0  0  0  0  0  0  0
    9.1322   -5.7363    0.0000 C   0  0  0  0  0  0  0  0  0  0  0  0
    8.6197   -7.1460    0.0000 H   0  0  0  0  0  0  0  0  0  0  0  0
    7.6549   -5.4763    0.0000 H   0  0  0  0  0  0  0  0  0  0  0  0
    9.1318   -4.2363    0.0000 N   0  0  0  0  0  0  0  0  0  0  0  0
   10.4306   -3.4859    0.0000 H   0  0  0  0  0  0  0  0  0  0  0  0
    7.8325   -3.4867    0.0000 C   0  0  0  0  0  0  0  0  0  0  0  0
    6.5337   -4.2371    0.0000 O   0  0  0  0  0  0  0  0  0  0  0  0
    7.8320   -1.9867    0.0000 C   0  0  0  0  0  0  0  0  0  0  0  0
    9.1314   -1.2357    0.0000 C   0  0  0  0  0  0  0  0  0  0  0  0
   10.4306   -1.9854    0.0000 C   0  0  0  0  0  0  0  0  0  0  0  0
   11.7295   -1.2352    0.0000 H   0  0  0  0  0  0  0  0  0  0  0  0
   11.3949   -3.1344    0.0000 H   0  0  0  0  0  0  0  0  0  0  0  0
    9.4666   -3.1347    0.0000 H   0  0  0  0  0  0  0  0  0  0  0  0
    9.1316    0.2652    0.0000 C   0  0  0  0  0  0  0  0  0  0  0  0
    7.8325    1.0150    0.0000 C   0  0  0  0  0  0  0  0  0  0  0  0
    7.8320    2.5150    0.0000 H   0  0  0  0  0  0  0  0  0  0  0  0
    6.5331    0.2639    0.0000 C   0  0  0  0  0  0  0  0  0  0  0  0
    6.5328   -1.2369    0.0000 C   0  0  0  0  0  0  0  0  0  0  0  0
    5.2338   -1.9869    0.0000 H   0  0  0  0  0  0  0  0  0  0  0  0
    5.2339    1.0137    0.0000 C   0  0  0  0  0  0  0  0  0  0  0  0
    3.9880    0.2735    0.0000 C   0  0  0  0  0  0  0  0  0  0  0  0
    4.0271   -1.2260    0.0000 H   0  0  0  0  0  0  0  0  0  0  0  0
    2.6780    0.9622    0.0000 C   0  0  0  0  0  0  0  0  0  0  0  0
    1.3894    0.1944    0.0000 H   0  0  0  0  0  0  0  0  0  0  0  0
    2.6962    2.4604    0.0000 C   0  0  0  0  0  0  0  0  0  0  0  0
    3.9421    3.2006    0.0000 C   0  0  0  0  0  0  0  0  0  0  0  0
    3.9030    4.7001    0.0000 H   0  0  0  0  0  0  0  0  0  0  0  0
    5.2522    2.5119    0.0000 C   0  0  0  0  0  0  0  0  0  0  0  0
    6.5408    3.2797    0.0000 H   0  0  0  0  0  0  0  0  0  0  0  0
    1.3971    3.2102    0.0000 C   0  0  0  0  0  0  0  0  0  0  0  0
    2.3611    4.3594    0.0000 H   0  0  0  0  0  0  0  0  0  0  0  0
    0.4327    4.3591    0.0000 H   0  0  0  0  0  0  0  0  0  0  0  0
   -0.3175    2.2199    0.0000 N   0  0  0  0  0  0  0  0  0  0  0  0
   -0.3175    0.7199    0.0000 C   0  0  0  0  0  0  0  0  0  0  0  0
    0.1952   -0.6897    0.0000 H   0  0  0  0  0  0  0  0  0  0  0  0
    1.1597    0.9802    0.0000 H   0  0  0  0  0  0  0  0  0  0  0  0
   -1.6175   -0.0301    0.0000 C   0  0  0  0  0  0  0  0  0  0  0  0
   -2.5816   -1.1792    0.0000 H   0  0  0  0  0  0  0  0  0  0  0  0
   -0.6534   -1.1792    0.0000 H   0  0  0  0  0  0  0  0  0  0  0  0
   -2.9175    0.7199    0.0000 O   0  0  0  0  0  0  0  0  0  0  0  0
   -2.9175    2.2199    0.0000 C   0  0  0  0  0  0  0  0  0  0  0  0
   -3.4302    3.6296    0.0000 H   0  0  0  0  0  0  0  0  0  0  0  0
   -4.3947    1.9596    0.0000 H   0  0  0  0  0  0  0  0  0  0  0  0
   -1.6175    2.9699    0.0000 C   0  0  0  0  0  0  0  0  0  0  0  0
   -0.6534    4.1191    0.0000 H   0  0  0  0  0  0  0  0  0  0  0  0
   -2.5816    4.1191    0.0000 H   0  0  0  0  0  0  0  0  0  0  0  0
   10.4307    1.0152    0.0000 N   0  0  0  0  0  0  0  0  0  0  0  0
   11.7297    0.2652    0.0000 C   0  0  0  0  0  0  0  0  0  0  0  0
   12.6939   -0.8839    0.0000 H   0  0  0  0  0  0  0  0  0  0  0  0
   10.7655   -0.8839    0.0000 H   0  0  0  0  0  0  0  0  0  0  0  0
   13.0288    1.0152    0.0000 C   0  0  0  0  0  0  0  0  0  0  0  0
   13.5418   -0.3944    0.0000 H   0  0  0  0  0  0  0  0  0  0  0  0
   14.5060    1.2757    0.0000 H   0  0  0  0  0  0  0  0  0  0  0  0
   13.0288    2.5152    0.0000 O   0  0  0  0  0  0  0  0  0  0  0  0
   15.5749    3.9852    0.0000 H   0  0  0  0  0  0  0  0  0  0  0  0
   10.4307    3.9552    0.0000 C   0  0  0  0  0  0  0  0  0  0  0  0
    8.9535    3.6944    0.0000 H   0  0  0  0  0  0  0  0  0  0  0  0
   11.9087    3.6942    0.0000 C   0  0  0  0  0  0  0  0  0  0  0  0
   14.0391    2.4642    0.0000 H   0  0  0  0  0  0  0  0  0  0  0  0
   11.3955    2.2848    0.0000 H   0  0  0  0  0  0  0  0  0  0  0  0
   12.8727    4.8434    0.0000 C   0  0  0  0  0  0  0  0  0  0  0  0
   14.1715    5.5938    0.0000 H   0  0  0  0  0  0  0  0  0  0  0  0
   13.8371    3.6946    0.0000 H   0  0  0  0  0  0  0  0  0  0  0  0
   12.3588    6.2535    0.0000 O   0  0  0  0  0  0  0  0  0  0  0  0
   10.8808    6.5145    0.0000 C   0  0  0  0  0  0  0  0  0  0  0  0
    9.5818    7.2645    0.0000 H   0  0  0  0  0  0  0  0  0  0  0  0
   11.3940    7.9239    0.0000 H   0  0  0  0  0  0  0  0  0  0  0  0
    9.9168    5.3653    0.0000 C   0  0  0  0  0  0  0  0  0  0  0  0
    8.6180    4.6149    0.0000 H   0  0  0  0  0  0  0  0  0  0  0  0
    8.9523    6.5141    0.0000 H   0  0  0  0  0  0  0  0  0  0  0  0
   11.7304   -5.7357    0.0000 C   0  0  0  0  0  0  0  0  0  0  0  0
   11.7304   -4.2357    0.0000 O   0  0  0  0  0  0  0  0  0  0  0  0
   13.0301   -6.4863    0.0000 N   0  0  0  0  0  0  0  0  0  0  0  0
   14.3290   -5.7361    0.0000 H   0  0  0  0  0  0  0  0  0  0  0  0
   13.0308   -7.9871    0.0000 C   0  0  0  0  0  0  0  0  0  0  0  0
   11.7319   -8.7373    0.0000 C   0  0  0  0  0  0  0  0  0  0  0  0
   11.7319  -10.2373    0.0000 H   0  0  0  0  0  0  0  0  0  0  0  0
   14.3301   -8.7367    0.0000 C   0  0  0  0  0  0  0  0  0  0  0  0
   14.3306  -10.2367    0.0000 H   0  0  0  0  0  0  0  0  0  0  0  0
   14.8427   -7.3270    0.0000 H   0  0  0  0  0  0  0  0  0  0  0  0
   15.8074   -8.9967    0.0000 H   0  0  0  0  0  0  0  0  0  0  0  0
  1  2  1  0  0  0  0 
  1  3  1  0  0  0  0 
  1  4  1  0  0  0  0 
  1  5  1  0  0  0  0 
  5  6  2  0  0  0  0 
  6  7  1  0  0  0  0 
  7  8  1  0  0  0  0 
  7  9  1  0  0  0  0 
  7 10  1  0  0  0  0 
 10 11  1  0  0  0  0 
 10 12  1  0  0  0  0 
 12 13  2  0  0  0  0 
 12 14  1  0  0  0  0 
 14 15  2  0  0  0  0 
 15 16  1  0  0  0  0 
 16 17  1  0  0  0  0 
 16 18  1  0  0  0  0 
 16 19  1  0  0  0  0 
 15 20  1  0  0  0  0 
 20 21  2  0  0  0  0 
 21 22  1  0  0  0  0 
 21 23  1  0  0  0  0 
 23 24  2  0  0  0  0 
 14 24  1  0  0  0  0 
 24 25  1  0  0  0  0 
 23 26  1  0  0  0  0 
 26 27  2  0  0  0  0 
 27 28  1  0  0  0  0 
 27 29  1  0  0  0  0 
 29 30  1  0  0  0  0 
 29 31  2  0  0  0  0 
 31 32  1  0  0  0  0 
 32 33  1  0  0  0  0 
 32 34  2  0  0  0  0 
 26 34  1  0  0  0  0 
 34 35  1  0  0  0  0 
 31 36  1  0  0  0  0 
 36 37  1  0  0  0  0 
 36 38  1  0  0  0  0 
 36 39  1  0  0  0  0 
 39 40  1  0  0  0  0 
 40 41  1  0  0  0  0 
 40 42  1  0  0  0  0 
 40 43  1  0  0  0  0 
 43 44  1  0  0  0  0 
 43 45  1  0  0  0  0 
 43 46  1  0  0  0  0 
 46 47  1  0  0  0  0 
 47 48  1  0  0  0  0 
 47 49  1  0  0  0  0 
 47 50  1  0  0  0  0 
 39 50  1  0  0  0  0 
 50 51  1  0  0  0  0 
 50 52  1  0  0  0  0 
 20 53  1  0  0  0  0 
 53 54  1  0  0  0  0 
 54 55  1  0  0  0  0 
 54 56  1  0  0  0  0 
 54 57  1  0  0  0  0 
 57 58  1  0  0  0  0 
 57 59  1  0  0  0  0 
 57 60  1  0  0  0  0 
 60 61  1  0  0  0  0 
 53 62  1  0  0  0  0 
 62 63  1  0  0  0  0 
 62 64  1  0  0  0  0 
 64 65  1  0  0  0  0 
 64 66  1  0  0  0  0 
 64 67  1  0  0  0  0 
 67 68  1  0  0  0  0 
 67 69  1  0  0  0  0 
 67 70  1  0  0  0  0 
 70 71  1  0  0  0  0 
 71 72  1  0  0  0  0 
 71 73  1  0  0  0  0 
 71 74  1  0  0  0  0 
 62 74  1  0  0  0  0 
 74 75  1  0  0  0  0 
 74 76  1  0  0  0  0 
  6 77  1  0  0  0  0 
 77 78  2  0  0  0  0 
 77 79  1  0  0  0  0 
 79 80  1  0  0  0  0 
 79 81  1  0  0  0  0 
 81 82  2  0  0  0  0 
  5 82  1  0  0  0  0 
 82 83  1  0  0  0  0 
 81 84  1  0  0  0  0 
 84 85  1  0  0  0  0 
 84 86  1  0  0  0  0 
 84 87  1  0  0  0  0 
M  END
> <Rank>
52

> <Priority_score>
0.024

> <Reaction_type>
aliphatic hydroxylation

> <Parent_ID>
24

> <Parent_InChI>
InChI=1S/C34H44N4O4/c1-5-38(29-10-14-41-15-11-29)32-20-28(27-8-6-26(7-9-27)22-37-12-16-42-17-13-37)19-30(25(32)4)33(39)35-21-31-23(2)18-24(3)36-34(31)40/h6-9,18-20,29H,5,10-17,21-22H2,1-4H3,(H,35,39)(H,36,40)

> <Parent_SMILES>
CCN(c1cc(-c2ccc(CN3CCOCC3)cc2)cc(C(=O)NCc2c(C)cc(C)[nH]c2=O)c1C)C1CCOCC1

$$$$
Molecule 24_metabolite 54
  CDK     0516241031

 87 91  0  0  0  0  0  0  0  0999 V2000
   12.2136    3.6511    0.0000 C   0  0  0  0  0  0  0  0  0  0  0  0
   13.5129    4.4007    0.0000 H   0  0  0  0  0  0  0  0  0  0  0  0
   13.1775    2.5017    0.0000 H   0  0  0  0  0  0  0  0  0  0  0  0
   11.2491    2.5023    0.0000 H   0  0  0  0  0  0  0  0  0  0  0  0
   10.9148    4.4015    0.0000 C   0  0  0  0  0  0  0  0  0  0  0  0
    9.9510    5.5509    0.0000 H   0  0  0  0  0  0  0  0  0  0  0  0
   11.8794    5.5503    0.0000 H   0  0  0  0  0  0  0  0  0  0  0  0
    9.6156    3.6519    0.0000 N   0  0  0  0  0  0  0  0  0  0  0  0
    7.9012    4.6425    0.0000 C   0  0  0  0  0  0  0  0  0  0  0  0
    7.3880    3.2330    0.0000 H   0  0  0  0  0  0  0  0  0  0  0  0
    8.8665    5.7917    0.0000 C   0  0  0  0  0  0  0  0  0  0  0  0
   10.1658    6.5413    0.0000 H   0  0  0  0  0  0  0  0  0  0  0  0
    9.8302    4.6422    0.0000 H   0  0  0  0  0  0  0  0  0  0  0  0
    8.3538    7.2013    0.0000 C   0  0  0  0  0  0  0  0  0  0  0  0
    8.3538    8.7013    0.0000 H   0  0  0  0  0  0  0  0  0  0  0  0
    9.8310    7.4616    0.0000 H   0  0  0  0  0  0  0  0  0  0  0  0
    6.8757    7.4618    0.0000 O   0  0  0  0  0  0  0  0  0  0  0  0
    5.9104    6.3126    0.0000 C   0  0  0  0  0  0  0  0  0  0  0  0
    4.6111    5.5630    0.0000 H   0  0  0  0  0  0  0  0  0  0  0  0
    4.9467    7.4621    0.0000 H   0  0  0  0  0  0  0  0  0  0  0  0
    6.4231    4.9029    0.0000 C   0  0  0  0  0  0  0  0  0  0  0  0
    6.4231    3.4029    0.0000 H   0  0  0  0  0  0  0  0  0  0  0  0
    4.9459    4.6426    0.0000 H   0  0  0  0  0  0  0  0  0  0  0  0
    9.6146    0.7119    0.0000 C   0  0  0  0  0  0  0  0  0  0  0  0
    8.3147   -0.0383    0.0000 C   0  0  0  0  0  0  0  0  0  0  0  0
    7.0161    0.7124    0.0000 C   0  0  0  0  0  0  0  0  0  0  0  0
    5.7167   -0.0370    0.0000 H   0  0  0  0  0  0  0  0  0  0  0  0
    6.0524    1.8619    0.0000 H   0  0  0  0  0  0  0  0  0  0  0  0
    7.9808    1.8610    0.0000 H   0  0  0  0  0  0  0  0  0  0  0  0
    8.3135   -1.5391    0.0000 C   0  0  0  0  0  0  0  0  0  0  0  0
    9.6122   -2.2897    0.0000 C   0  0  0  0  0  0  0  0  0  0  0  0
    9.6117   -3.7897    0.0000 H   0  0  0  0  0  0  0  0  0  0  0  0
   10.9121   -1.5395    0.0000 C   0  0  0  0  0  0  0  0  0  0  0  0
   10.9133   -0.0387    0.0000 C   0  0  0  0  0  0  0  0  0  0  0  0
   12.2128    0.7105    0.0000 H   0  0  0  0  0  0  0  0  0  0  0  0
   12.2108   -2.2901    0.0000 C   0  0  0  0  0  0  0  0  0  0  0  0
   13.5107   -1.5399    0.0000 C   0  0  0  0  0  0  0  0  0  0  0  0
   13.5111   -0.0399    0.0000 H   0  0  0  0  0  0  0  0  0  0  0  0
   14.8093   -2.2906    0.0000 C   0  0  0  0  0  0  0  0  0  0  0  0
   16.1089   -1.5414    0.0000 H   0  0  0  0  0  0  0  0  0  0  0  0
   14.8081   -3.7914    0.0000 C   0  0  0  0  0  0  0  0  0  0  0  0
   16.1068   -4.5420    0.0000 C   0  0  0  0  0  0  0  0  0  0  0  0
   15.1421   -5.6906    0.0000 H   0  0  0  0  0  0  0  0  0  0  0  0
   17.0704   -5.6915    0.0000 H   0  0  0  0  0  0  0  0  0  0  0  0
   17.8220   -3.5528    0.0000 N   0  0  0  0  0  0  0  0  0  0  0  0
   17.8230   -2.0528    0.0000 C   0  0  0  0  0  0  0  0  0  0  0  0
   17.3112   -0.6429    0.0000 H   0  0  0  0  0  0  0  0  0  0  0  0
   16.3456   -2.3122    0.0000 H   0  0  0  0  0  0  0  0  0  0  0  0
   19.1235   -1.3037    0.0000 C   0  0  0  0  0  0  0  0  0  0  0  0
   20.0883   -0.1551    0.0000 H   0  0  0  0  0  0  0  0  0  0  0  0
   18.1601   -0.1539    0.0000 H   0  0  0  0  0  0  0  0  0  0  0  0
   20.4230   -2.0545    0.0000 O   0  0  0  0  0  0  0  0  0  0  0  0
   20.4220   -3.5545    0.0000 C   0  0  0  0  0  0  0  0  0  0  0  0
   20.9338   -4.9645    0.0000 H   0  0  0  0  0  0  0  0  0  0  0  0
   21.8994   -3.2951    0.0000 H   0  0  0  0  0  0  0  0  0  0  0  0
   19.1215   -4.3037    0.0000 C   0  0  0  0  0  0  0  0  0  0  0  0
   18.1567   -5.4522    0.0000 H   0  0  0  0  0  0  0  0  0  0  0  0
   20.0849   -5.4535    0.0000 H   0  0  0  0  0  0  0  0  0  0  0  0
   13.5083   -4.5416    0.0000 C   0  0  0  0  0  0  0  0  0  0  0  0
   12.2096   -3.7910    0.0000 C   0  0  0  0  0  0  0  0  0  0  0  0
   10.9101   -4.5401    0.0000 H   0  0  0  0  0  0  0  0  0  0  0  0
   13.5078   -6.0416    0.0000 O   0  0  0  0  0  0  0  0  0  0  0  0
   14.8066   -6.7920    0.0000 H   0  0  0  0  0  0  0  0  0  0  0  0
    7.0140   -2.2883    0.0000 C   0  0  0  0  0  0  0  0  0  0  0  0
    5.7155   -1.5374    0.0000 O   0  0  0  0  0  0  0  0  0  0  0  0
    7.0131   -3.7883    0.0000 N   0  0  0  0  0  0  0  0  0  0  0  0
    8.3116   -4.5391    0.0000 H   0  0  0  0  0  0  0  0  0  0  0  0
    5.7135   -4.5374    0.0000 C   0  0  0  0  0  0  0  0  0  0  0  0
    5.2014   -3.1276    0.0000 H   0  0  0  0  0  0  0  0  0  0  0  0
    4.2362   -4.7970    0.0000 H   0  0  0  0  0  0  0  0  0  0  0  0
    5.7126   -6.0374    0.0000 C   0  0  0  0  0  0  0  0  0  0  0  0
    4.4125   -6.7872    0.0000 C   0  0  0  0  0  0  0  0  0  0  0  0
    3.1140   -6.0362    0.0000 C   0  0  0  0  0  0  0  0  0  0  0  0
    3.1152   -4.5362    0.0000 H   0  0  0  0  0  0  0  0  0  0  0  0
    2.5999   -7.4453    0.0000 H   0  0  0  0  0  0  0  0  0  0  0  0
    1.6370   -5.7745    0.0000 H   0  0  0  0  0  0  0  0  0  0  0  0
    4.4108   -8.2881    0.0000 C   0  0  0  0  0  0  0  0  0  0  0  0
    3.1110   -9.0368    0.0000 H   0  0  0  0  0  0  0  0  0  0  0  0
    5.7092   -9.0391    0.0000 C   0  0  0  0  0  0  0  0  0  0  0  0
    5.7083  -10.5391    0.0000 C   0  0  0  0  0  0  0  0  0  0  0  0
    4.4087  -11.2883    0.0000 H   0  0  0  0  0  0  0  0  0  0  0  0
    6.2204  -11.9490    0.0000 H   0  0  0  0  0  0  0  0  0  0  0  0
    7.1856  -10.2796    0.0000 H   0  0  0  0  0  0  0  0  0  0  0  0
    7.0093   -8.2893    0.0000 N   0  0  0  0  0  0  0  0  0  0  0  0
    8.3078   -9.0404    0.0000 H   0  0  0  0  0  0  0  0  0  0  0  0
    7.0110   -6.7885    0.0000 C   0  0  0  0  0  0  0  0  0  0  0  0
    8.3108   -6.0397    0.0000 O   0  0  0  0  0  0  0  0  0  0  0  0
  1  2  1  0  0  0  0 
  1  3  1  0  0  0  0 
  1  4  1  0  0  0  0 
  1  5  1  0  0  0  0 
  5  6  1  0  0  0  0 
  5  7  1  0  0  0  0 
  5  8  1  0  0  0  0 
  8  9  1  0  0  0  0 
  9 10  1  0  0  0  0 
  9 11  1  0  0  0  0 
 11 12  1  0  0  0  0 
 11 13  1  0  0  0  0 
 11 14  1  0  0  0  0 
 14 15  1  0  0  0  0 
 14 16  1  0  0  0  0 
 14 17  1  0  0  0  0 
 17 18  1  0  0  0  0 
 18 19  1  0  0  0  0 
 18 20  1  0  0  0  0 
 18 21  1  0  0  0  0 
  9 21  1  0  0  0  0 
 21 22  1  0  0  0  0 
 21 23  1  0  0  0  0 
  8 24  1  0  0  0  0 
 24 25  2  0  0  0  0 
 25 26  1  0  0  0  0 
 26 27  1  0  0  0  0 
 26 28  1  0  0  0  0 
 26 29  1  0  0  0  0 
 25 30  1  0  0  0  0 
 30 31  2  0  0  0  0 
 31 32  1  0  0  0  0 
 31 33  1  0  0  0  0 
 33 34  2  0  0  0  0 
 24 34  1  0  0  0  0 
 34 35  1  0  0  0  0 
 33 36  1  0  0  0  0 
 36 37  2  0  0  0  0 
 37 38  1  0  0  0  0 
 37 39  1  0  0  0  0 
 39 40  1  0  0  0  0 
 39 41  2  0  0  0  0 
 41 42  1  0  0  0  0 
 42 43  1  0  0  0  0 
 42 44  1  0  0  0  0 
 42 45  1  0  0  0  0 
 45 46  1  0  0  0  0 
 46 47  1  0  0  0  0 
 46 48  1  0  0  0  0 
 46 49  1  0  0  0  0 
 49 50  1  0  0  0  0 
 49 51  1  0  0  0  0 
 49 52  1  0  0  0  0 
 52 53  1  0  0  0  0 
 53 54  1  0  0  0  0 
 53 55  1  0  0  0  0 
 53 56  1  0  0  0  0 
 45 56  1  0  0  0  0 
 56 57  1  0  0  0  0 
 56 58  1  0  0  0  0 
 41 59  1  0  0  0  0 
 59 60  2  0  0  0  0 
 36 60  1  0  0  0  0 
 60 61  1  0  0  0  0 
 59 62  1  0  0  0  0 
 62 63  1  0  0  0  0 
 30 64  1  0  0  0  0 
 64 65  2  0  0  0  0 
 64 66  1  0  0  0  0 
 66 67  1  0  0  0  0 
 66 68  1  0  0  0  0 
 68 69  1  0  0  0  0 
 68 70  1  0  0  0  0 
 68 71  1  0  0  0  0 
 71 72  2  0  0  0  0 
 72 73  1  0  0  0  0 
 73 74  1  0  0  0  0 
 73 75  1  0  0  0  0 
 73 76  1  0  0  0  0 
 72 77  1  0  0  0  0 
 77 78  1  0  0  0  0 
 77 79  2  0  0  0  0 
 79 80  1  0  0  0  0 
 80 81  1  0  0  0  0 
 80 82  1  0  0  0  0 
 80 83  1  0  0  0  0 
 79 84  1  0  0  0  0 
 84 85  1  0  0  0  0 
 84 86  1  0  0  0  0 
 71 86  1  0  0  0  0 
 86 87  2  0  0  0  0 
M  END
> <Rank>
54

> <Priority_score>
0.012

> <Reaction_type>
aromatic hydroxylation

> <Parent_ID>
24

> <Parent_InChI>
InChI=1S/C34H44N4O4/c1-5-38(29-10-14-41-15-11-29)32-20-28(27-8-6-26(7-9-27)22-37-12-16-42-17-13-37)19-30(25(32)4)33(39)35-21-31-23(2)18-24(3)36-34(31)40/h6-9,18-20,29H,5,10-17,21-22H2,1-4H3,(H,35,39)(H,36,40)

> <Parent_SMILES>
CCN(c1cc(-c2ccc(CN3CCOCC3)cc2)cc(C(=O)NCc2c(C)cc(C)[nH]c2=O)c1C)C1CCOCC1

$$$$
Molecule 25
  CDK     0516241031

 19 20  0  0  0  0  0  0  0  0999 V2000
   -2.1190    5.5300    0.0000 C   0  0  0  0  0  0  0  0  0  0  0  0
   -2.1190    4.0300    0.0000 C   0  0  0  0  0  0  0  0  0  0  0  0
   -0.8200    3.2800    0.0000 N   0  0  0  0  0  0  0  0  0  0  0  0
   -0.8200    1.7800    0.0000 C   0  0  1  0  0  0  0  0  0  0  0  0
   -2.1200    1.0300    0.0000 C   0  0  0  0  0  0  0  0  0  0  0  0
   -2.1200   -0.4400    0.0000 C   0  0  2  0  0  0  0  0  0  0  0  0
   -3.4253   -1.1790    0.0000 C   0  0  0  0  0  0  0  0  0  0  0  0
   -0.8200   -1.2200    0.0000 S   0  0  0  0  0  0  0  0  0  0  0  0
   -1.7906   -2.3636    0.0000 O   0  0  0  0  0  0  0  0  0  0  0  0
    0.1506   -2.3636    0.0000 O   0  0  0  0  0  0  0  0  0  0  0  0
    0.4800   -0.4400    0.0000 C   0  0  0  0  0  0  0  0  0  0  0  0
    0.4800    1.0300    0.0000 C   0  0  0  0  0  0  0  0  0  0  0  0
    1.9200    1.5200    0.0000 C   0  0  0  0  0  0  0  0  0  0  0  0
    2.7600    0.2800    0.0000 C   0  0  0  0  0  0  0  0  0  0  0  0
    1.9200   -0.9300    0.0000 S   0  0  0  0  0  0  0  0  0  0  0  0
    4.2600    0.2714    0.0000 S   0  0  0  0  0  0  0  0  0  0  0  0
    5.6724    0.7764    0.0000 O   0  0  0  0  0  0  0  0  0  0  0  0
    4.0079    1.7501    0.0000 O   0  0  0  0  0  0  0  0  0  0  0  0
    5.0025   -1.0319    0.0000 N   0  0  0  0  0  0  0  0  0  0  0  0
  1  2  1  0  0  0  0 
  2  3  1  0  0  0  0 
  4  3  1  6  0  0  0 
  4  5  1  0  0  0  0 
  5  6  1  0  0  0  0 
  6  7  1  1  0  0  0 
  6  8  1  0  0  0  0 
  8  9  2  0  0  0  0 
  8 10  2  0  0  0  0 
  8 11  1  0  0  0  0 
 11 12  2  0  0  0  0 
  4 12  1  0  0  0  0 
 12 13  1  0  0  0  0 
 13 14  2  0  0  0  0 
 14 15  1  0  0  0  0 
 11 15  1  0  0  0  0 
 14 16  1  0  0  0  0 
 16 17  2  0  0  0  0 
 16 18  2  0  0  0  0 
 16 19  1  0  0  0  0 
M  END
> <SMILES>
CCN[C@H]1C[C@H](C)S(=O)(=O)c2sc(S(N)(=O)=O)cc21

$$$$
Molecule 25_metabolite 1
  CDK     0516241031

 40 41  0  0  0  0  0  0  0  0999 V2000
    0.2974    6.9259    0.0000 C   0  0  0  0  0  0  0  0  0  0  0  0
   -0.2158    8.3354    0.0000 H   0  0  0  0  0  0  0  0  0  0  0  0
    1.2617    5.7769    0.0000 H   0  0  0  0  0  0  0  0  0  0  0  0
    1.5964    7.6760    0.0000 H   0  0  0  0  0  0  0  0  0  0  0  0
   -0.6666    5.7767    0.0000 C   0  0  0  0  0  0  0  0  0  0  0  0
   -1.6310    6.9257    0.0000 H   0  0  0  0  0  0  0  0  0  0  0  0
   -1.9656    5.0266    0.0000 H   0  0  0  0  0  0  0  0  0  0  0  0
    0.0107    3.9162    0.0000 N   0  0  0  0  0  0  0  0  0  0  0  0
    1.4880    3.6559    0.0000 H   0  0  0  0  0  0  0  0  0  0  0  0
   -0.9533    2.7670    0.0000 C   0  0  1  0  0  0  0  0  0  0  0  0
   -1.9174    3.9162    0.0000 H   0  0  0  0  0  0  0  0  0  0  0  0
   -2.2533    2.0170    0.0000 C   0  0  0  0  0  0  0  0  0  0  0  0
   -2.7660    3.4267    0.0000 H   0  0  0  0  0  0  0  0  0  0  0  0
   -3.7305    1.7567    0.0000 H   0  0  0  0  0  0  0  0  0  0  0  0
   -2.2533    0.5470    0.0000 C   0  0  2  0  0  0  0  0  0  0  0  0
   -3.7290    0.8158    0.0000 H   0  0  0  0  0  0  0  0  0  0  0  0
   -3.1205   -1.7551    0.0000 C   0  0  0  0  0  0  0  0  0  0  0  0
   -4.6006   -1.9989    0.0000 H   0  0  0  0  0  0  0  0  0  0  0  0
   -3.1374   -3.2550    0.0000 H   0  0  0  0  0  0  0  0  0  0  0  0
   -1.1746   -2.1207    0.0000 H   0  0  0  0  0  0  0  0  0  0  0  0
   -0.9533   -0.2330    0.0000 S   0  0  0  0  0  0  0  0  0  0  0  0
   -1.9239   -1.3766    0.0000 O   0  0  0  0  0  0  0  0  0  0  0  0
    0.0173   -1.3766    0.0000 O   0  0  0  0  0  0  0  0  0  0  0  0
    0.3467    0.5470    0.0000 C   0  0  0  0  0  0  0  0  0  0  0  0
    0.3467    2.0170    0.0000 C   0  0  0  0  0  0  0  0  0  0  0  0
    1.7867    2.5070    0.0000 C   0  0  0  0  0  0  0  0  0  0  0  0
    2.2638    3.9291    0.0000 H   0  0  0  0  0  0  0  0  0  0  0  0
    2.6267    1.2670    0.0000 C   0  0  0  0  0  0  0  0  0  0  0  0
    1.7867    0.0570    0.0000 S   0  0  0  0  0  0  0  0  0  0  0  0
    4.1267    1.2584    0.0000 S   0  0  0  0  0  0  0  0  0  0  0  0
    5.5391    1.7634    0.0000 O   0  0  0  0  0  0  0  0  0  0  0  0
    3.8746    2.7371    0.0000 O   0  0  0  0  0  0  0  0  0  0  0  0
    4.8692   -0.0449    0.0000 N   0  0  0  0  0  0  0  0  0  0  0  0
    4.1118   -1.3396    0.0000 H   0  0  0  0  0  0  0  0  0  0  0  0
    6.3692   -0.0534    0.0000 C   0  0  0  0  0  0  0  0  0  0  0  0
    7.1266    1.2413    0.0000 O   0  0  0  0  0  0  0  0  0  0  0  0
    7.1118   -1.3567    0.0000 C   0  0  0  0  0  0  0  0  0  0  0  0
    8.6118   -1.3653    0.0000 H   0  0  0  0  0  0  0  0  0  0  0  0
    5.6993   -1.8617    0.0000 H   0  0  0  0  0  0  0  0  0  0  0  0
    7.3638   -2.8354    0.0000 H   0  0  0  0  0  0  0  0  0  0  0  0
  1  2  1  0  0  0  0 
  1  3  1  0  0  0  0 
  1  4  1  0  0  0  0 
  1  5  1  0  0  0  0 
  5  6  1  0  0  0  0 
  5  7  1  0  0  0  0 
  5  8  1  0  0  0  0 
  8  9  1  0  0  0  0 
 10  8  1  6  0  0  0 
 10 11  1  1  0  0  0 
 10 12  1  0  0  0  0 
 12 13  1  0  0  0  0 
 12 14  1  0  0  0  0 
 12 15  1  0  0  0  0 
 15 16  1  6  0  0  0 
 15 17  1  1  0  0  0 
 17 18  1  0  0  0  0 
 17 19  1  0  0  0  0 
 17 20  1  0  0  0  0 
 15 21  1  0  0  0  0 
 21 22  2  0  0  0  0 
 21 23  2  0  0  0  0 
 21 24  1  0  0  0  0 
 24 25  2  0  0  0  0 
 10 25  1  0  0  0  0 
 25 26  1  0  0  0  0 
 26 27  1  0  0  0  0 
 26 28  2  0  0  0  0 
 28 29  1  0  0  0  0 
 24 29  1  0  0  0  0 
 28 30  1  0  0  0  0 
 30 31  2  0  0  0  0 
 30 32  2  0  0  0  0 
 30 33  1  0  0  0  0 
 33 34  1  0  0  0  0 
 33 35  1  0  0  0  0 
 35 36  2  0  0  0  0 
 35 37  1  0  0  0  0 
 37 38  1  0  0  0  0 
 37 39  1  0  0  0  0 
 37 40  1  0  0  0  0 
M  END
> <Rank>
1

> <Priority_score>
0.736

> <Reaction_type>
N-acetylation_(heteroatom_bonded_NH2)

> <Parent_ID>
25

> <Parent_InChI>
InChI=1S/C10H16N2O4S3/c1-3-12-8-4-6(2)18(13,14)10-7(8)5-9(17-10)19(11,15)16/h5-6,8,12H,3-4H2,1-2H3,(H2,11,15,16)

> <Parent_SMILES>
CCN[C@H]1C[C@H](C)S(=O)(=O)c2sc(S(N)(=O)=O)cc21

$$$$
Molecule 25_metabolite 2
  CDK     0516241031

 36 37  0  0  0  0  0  0  0  0999 V2000
   -3.2872   -0.5390    0.0000 C   0  0  0  0  0  0  0  0  0  0  0  0
   -3.7923    0.8734    0.0000 H   0  0  0  0  0  0  0  0  0  0  0  0
   -3.2956   -2.0390    0.0000 H   0  0  0  0  0  0  0  0  0  0  0  0
   -4.7659   -0.7912    0.0000 H   0  0  0  0  0  0  0  0  0  0  0  0
   -1.3393   -0.8937    0.0000 C   0  0  1  0  0  0  0  0  0  0  0  0
   -1.8681   -2.2974    0.0000 H   0  0  0  0  0  0  0  0  0  0  0  0
   -1.3393    0.5763    0.0000 C   0  0  0  0  0  0  0  0  0  0  0  0
   -1.8520    1.9859    0.0000 H   0  0  0  0  0  0  0  0  0  0  0  0
   -2.8165    0.3160    0.0000 H   0  0  0  0  0  0  0  0  0  0  0  0
   -0.0393    1.3263    0.0000 C   0  0  1  0  0  0  0  0  0  0  0  0
    0.9248    2.4754    0.0000 H   0  0  0  0  0  0  0  0  0  0  0  0
    1.2607    0.5763    0.0000 C   0  0  0  0  0  0  0  0  0  0  0  0
    1.2607   -0.8937    0.0000 C   0  0  0  0  0  0  0  0  0  0  0  0
    2.7007   -1.3837    0.0000 S   0  0  0  0  0  0  0  0  0  0  0  0
    3.5407   -0.1737    0.0000 C   0  0  0  0  0  0  0  0  0  0  0  0
    2.7007    1.0663    0.0000 C   0  0  0  0  0  0  0  0  0  0  0  0
    3.1778    2.4884    0.0000 H   0  0  0  0  0  0  0  0  0  0  0  0
    5.0407   -0.1823    0.0000 S   0  0  0  0  0  0  0  0  0  0  0  0
    6.4532    0.3227    0.0000 O   0  0  0  0  0  0  0  0  0  0  0  0
    4.7887    1.2964    0.0000 O   0  0  0  0  0  0  0  0  0  0  0  0
    5.7833   -1.4856    0.0000 N   0  0  0  0  0  0  0  0  0  0  0  0
    7.2833   -1.4942    0.0000 H   0  0  0  0  0  0  0  0  0  0  0  0
    5.0259   -2.7803    0.0000 H   0  0  0  0  0  0  0  0  0  0  0  0
   -0.0393   -1.6737    0.0000 S   0  0  0  0  0  0  0  0  0  0  0  0
   -1.0099   -2.8174    0.0000 O   0  0  0  0  0  0  0  0  0  0  0  0
    0.9313   -2.8174    0.0000 O   0  0  0  0  0  0  0  0  0  0  0  0
   -1.3118    2.8432    0.0000 N   0  0  0  0  0  0  0  0  0  0  0  0
   -2.7891    2.5829    0.0000 H   0  0  0  0  0  0  0  0  0  0  0  0
   -0.6344    4.7037    0.0000 C   0  0  0  0  0  0  0  0  0  0  0  0
    0.6645    3.9535    0.0000 H   0  0  0  0  0  0  0  0  0  0  0  0
   -1.5985    5.8529    0.0000 C   0  0  0  0  0  0  0  0  0  0  0  0
   -1.0853    7.2623    0.0000 H   0  0  0  0  0  0  0  0  0  0  0  0
   -2.8974    6.6030    0.0000 H   0  0  0  0  0  0  0  0  0  0  0  0
   -2.5628    4.7039    0.0000 H   0  0  0  0  0  0  0  0  0  0  0  0
    0.3299    5.8527    0.0000 O   0  0  0  0  0  0  0  0  0  0  0  0
   -0.1830    7.2622    0.0000 H   0  0  0  0  0  0  0  0  0  0  0  0
  1  2  1  0  0  0  0 
  1  3  1  0  0  0  0 
  1  4  1  0  0  0  0 
  1  5  1  0  0  0  0 
  5  6  1  6  0  0  0 
  5  7  1  0  0  0  0 
  7  8  1  0  0  0  0 
  7  9  1  0  0  0  0 
  7 10  1  0  0  0  0 
 10 11  1  1  0  0  0 
 10 12  1  0  0  0  0 
 12 13  2  0  0  0  0 
 13 14  1  0  0  0  0 
 14 15  1  0  0  0  0 
 15 16  2  0  0  0  0 
 12 16  1  0  0  0  0 
 16 17  1  0  0  0  0 
 15 18  1  0  0  0  0 
 18 19  2  0  0  0  0 
 18 20  2  0  0  0  0 
 18 21  1  0  0  0  0 
 21 22  1  0  0  0  0 
 21 23  1  0  0  0  0 
 13 24  1  0  0  0  0 
  5 24  1  1  0  0  0 
 24 25  2  0  0  0  0 
 24 26  2  0  0  0  0 
 10 27  1  6  0  0  0 
 27 28  1  0  0  0  0 
 27 29  1  0  0  0  0 
 29 30  1  0  0  0  0 
 29 31  1  0  0  0  0 
 31 32  1  0  0  0  0 
 31 33  1  0  0  0  0 
 31 34  1  0  0  0  0 
 29 35  1  0  0  0  0 
 35 36  1  0  0  0  0 
M  END
> <Rank>
2

> <Priority_score>
0.244

> <Reaction_type>
aliphatic hydroxylation

> <Parent_ID>
25

> <Parent_InChI>
InChI=1S/C10H16N2O4S3/c1-3-12-8-4-6(2)18(13,14)10-7(8)5-9(17-10)19(11,15)16/h5-6,8,12H,3-4H2,1-2H3,(H2,11,15,16)

> <Parent_SMILES>
CCN[C@H]1C[C@H](C)S(=O)(=O)c2sc(S(N)(=O)=O)cc21

$$$$
Molecule 25_metabolite 3
  CDK     0516241031

 29 30  0  0  0  0  0  0  0  0999 V2000
   -2.8145   -0.4557    0.0000 C   0  0  0  0  0  0  0  0  0  0  0  0
   -3.3196    0.9567    0.0000 H   0  0  0  0  0  0  0  0  0  0  0  0
   -2.8229   -1.9557    0.0000 H   0  0  0  0  0  0  0  0  0  0  0  0
   -4.2932   -0.7079    0.0000 H   0  0  0  0  0  0  0  0  0  0  0  0
   -0.3943   -0.8964    0.0000 C   0  0  1  0  0  0  0  0  0  0  0  0
   -0.9231   -2.3001    0.0000 H   0  0  0  0  0  0  0  0  0  0  0  0
   -0.3943    0.5736    0.0000 C   0  0  0  0  0  0  0  0  0  0  0  0
   -0.9070    1.9832    0.0000 H   0  0  0  0  0  0  0  0  0  0  0  0
   -2.3443    0.2300    0.0000 H   0  0  0  0  0  0  0  0  0  0  0  0
    0.9057    1.3236    0.0000 C   0  0  1  0  0  0  0  0  0  0  0  0
    1.8697    2.4727    0.0000 H   0  0  0  0  0  0  0  0  0  0  0  0
    2.2057    0.5736    0.0000 C   0  0  0  0  0  0  0  0  0  0  0  0
    2.2057   -0.8964    0.0000 C   0  0  0  0  0  0  0  0  0  0  0  0
    3.6457   -1.3864    0.0000 S   0  0  0  0  0  0  0  0  0  0  0  0
    4.4857   -0.1764    0.0000 C   0  0  0  0  0  0  0  0  0  0  0  0
    3.6457    1.0636    0.0000 C   0  0  0  0  0  0  0  0  0  0  0  0
    4.1228    2.4857    0.0000 H   0  0  0  0  0  0  0  0  0  0  0  0
    5.9857   -0.1850    0.0000 S   0  0  0  0  0  0  0  0  0  0  0  0
    7.3981    0.3200    0.0000 O   0  0  0  0  0  0  0  0  0  0  0  0
    5.7336    1.2937    0.0000 O   0  0  0  0  0  0  0  0  0  0  0  0
    6.7282   -1.4883    0.0000 N   0  0  0  0  0  0  0  0  0  0  0  0
    8.2282   -1.4969    0.0000 H   0  0  0  0  0  0  0  0  0  0  0  0
    5.9708   -2.7830    0.0000 H   0  0  0  0  0  0  0  0  0  0  0  0
    0.9057   -1.6764    0.0000 S   0  0  0  0  0  0  0  0  0  0  0  0
   -0.0649   -2.8201    0.0000 O   0  0  0  0  0  0  0  0  0  0  0  0
    1.8763   -2.8201    0.0000 O   0  0  0  0  0  0  0  0  0  0  0  0
   -0.3669    2.8405    0.0000 N   0  0  0  0  0  0  0  0  0  0  0  0
    0.1463    4.2500    0.0000 H   0  0  0  0  0  0  0  0  0  0  0  0
   -1.8441    2.5802    0.0000 H   0  0  0  0  0  0  0  0  0  0  0  0
  1  2  1  0  0  0  0 
  1  3  1  0  0  0  0 
  1  4  1  0  0  0  0 
  1  5  1  0  0  0  0 
  5  6  1  6  0  0  0 
  5  7  1  0  0  0  0 
  7  8  1  0  0  0  0 
  7  9  1  0  0  0  0 
  7 10  1  0  0  0  0 
 10 11  1  1  0  0  0 
 10 12  1  0  0  0  0 
 12 13  2  0  0  0  0 
 13 14  1  0  0  0  0 
 14 15  1  0  0  0  0 
 15 16  2  0  0  0  0 
 12 16  1  0  0  0  0 
 16 17  1  0  0  0  0 
 15 18  1  0  0  0  0 
 18 19  2  0  0  0  0 
 18 20  2  0  0  0  0 
 18 21  1  0  0  0  0 
 21 22  1  0  0  0  0 
 21 23  1  0  0  0  0 
 13 24  1  0  0  0  0 
  5 24  1  1  0  0  0 
 24 25  2  0  0  0  0 
 24 26  2  0  0  0  0 
 10 27  1  6  0  0  0 
 27 28  1  0  0  0  0 
 27 29  1  0  0  0  0 
M  END
> <Rank>
2

> <Priority_score>
0.244

> <Reaction_type>
N-dealkylation_(R-NHCH2-alkyl)

> <Parent_ID>
25

> <Parent_InChI>
InChI=1S/C10H16N2O4S3/c1-3-12-8-4-6(2)18(13,14)10-7(8)5-9(17-10)19(11,15)16/h5-6,8,12H,3-4H2,1-2H3,(H2,11,15,16)

> <Parent_SMILES>
CCN[C@H]1C[C@H](C)S(=O)(=O)c2sc(S(N)(=O)=O)cc21

$$$$
Molecule 25_metabolite 4
  CDK     0516241031

  7  6  0  0  0  0  0  0  0  0999 V2000
    2.7500   -0.4868    0.0000 C   0  0  0  0  0  0  0  0  0  0  0  0
    2.7500   -1.9868    0.0000 H   0  0  0  0  0  0  0  0  0  0  0  0
    4.2272   -0.7473    0.0000 H   0  0  0  0  0  0  0  0  0  0  0  0
    3.2631    0.9227    0.0000 H   0  0  0  0  0  0  0  0  0  0  0  0
    1.4510    0.2632    0.0000 C   0  0  0  0  0  0  0  0  0  0  0  0
    1.4510    1.7632    0.0000 H   0  0  0  0  0  0  0  0  0  0  0  0
    0.1520   -0.4868    0.0000 O   0  0  0  0  0  0  0  0  0  0  0  0
  1  2  1  0  0  0  0 
  1  3  1  0  0  0  0 
  1  4  1  0  0  0  0 
  1  5  1  0  0  0  0 
  5  6  1  0  0  0  0 
  5  7  2  0  0  0  0 
M  END
> <Rank>
2

> <Priority_score>
0.244

> <Reaction_type>
N-dealkylation

> <Parent_ID>
25

> <Parent_InChI>
InChI=1S/C10H16N2O4S3/c1-3-12-8-4-6(2)18(13,14)10-7(8)5-9(17-10)19(11,15)16/h5-6,8,12H,3-4H2,1-2H3,(H2,11,15,16)

> <Parent_SMILES>
CCN[C@H]1C[C@H](C)S(=O)(=O)c2sc(S(N)(=O)=O)cc21

$$$$
Molecule 25_metabolite 5
  CDK     0516241031

 36 37  0  0  0  0  0  0  0  0999 V2000
    0.4616    6.4748    0.0000 C   0  0  0  0  0  0  0  0  0  0  0  0
   -0.0516    7.8843    0.0000 H   0  0  0  0  0  0  0  0  0  0  0  0
    1.4259    5.3259    0.0000 H   0  0  0  0  0  0  0  0  0  0  0  0
    1.7606    7.2250    0.0000 H   0  0  0  0  0  0  0  0  0  0  0  0
   -0.5024    5.3257    0.0000 C   0  0  0  0  0  0  0  0  0  0  0  0
   -1.4667    6.4746    0.0000 H   0  0  0  0  0  0  0  0  0  0  0  0
   -1.8014    4.5755    0.0000 H   0  0  0  0  0  0  0  0  0  0  0  0
    0.1750    3.4651    0.0000 N   0  0  0  0  0  0  0  0  0  0  0  0
   -0.7891    2.3160    0.0000 C   0  0  1  0  0  0  0  0  0  0  0  0
   -1.7531    3.4651    0.0000 H   0  0  0  0  0  0  0  0  0  0  0  0
   -2.0891    1.5660    0.0000 C   0  0  0  0  0  0  0  0  0  0  0  0
   -2.6018    2.9756    0.0000 H   0  0  0  0  0  0  0  0  0  0  0  0
   -3.5663    1.3057    0.0000 H   0  0  0  0  0  0  0  0  0  0  0  0
   -2.0891    0.0960    0.0000 C   0  0  2  0  0  0  0  0  0  0  0  0
   -3.5648    0.3647    0.0000 H   0  0  0  0  0  0  0  0  0  0  0  0
   -2.9563   -2.2061    0.0000 C   0  0  0  0  0  0  0  0  0  0  0  0
   -4.4364   -2.4500    0.0000 H   0  0  0  0  0  0  0  0  0  0  0  0
   -2.9731   -3.7060    0.0000 H   0  0  0  0  0  0  0  0  0  0  0  0
   -1.0104   -2.5718    0.0000 H   0  0  0  0  0  0  0  0  0  0  0  0
   -0.7891   -0.6840    0.0000 S   0  0  0  0  0  0  0  0  0  0  0  0
   -1.7597   -1.8277    0.0000 O   0  0  0  0  0  0  0  0  0  0  0  0
    0.1815   -1.8277    0.0000 O   0  0  0  0  0  0  0  0  0  0  0  0
    0.5109    0.0960    0.0000 C   0  0  0  0  0  0  0  0  0  0  0  0
    0.5109    1.5660    0.0000 C   0  0  0  0  0  0  0  0  0  0  0  0
    1.9509    2.0560    0.0000 C   0  0  0  0  0  0  0  0  0  0  0  0
    2.4280    3.4781    0.0000 H   0  0  0  0  0  0  0  0  0  0  0  0
    2.7909    0.8160    0.0000 C   0  0  0  0  0  0  0  0  0  0  0  0
    1.9509   -0.3940    0.0000 S   0  0  0  0  0  0  0  0  0  0  0  0
    4.2909    0.8074    0.0000 S   0  0  0  0  0  0  0  0  0  0  0  0
    5.7033    1.3124    0.0000 O   0  0  0  0  0  0  0  0  0  0  0  0
    4.0389    2.2861    0.0000 O   0  0  0  0  0  0  0  0  0  0  0  0
    5.0335   -0.4959    0.0000 N   0  0  0  0  0  0  0  0  0  0  0  0
    6.5334   -0.5045    0.0000 H   0  0  0  0  0  0  0  0  0  0  0  0
    4.2760   -1.7906    0.0000 H   0  0  0  0  0  0  0  0  0  0  0  0
    1.6522    3.2048    0.0000 O   0  0  0  0  0  0  0  0  0  0  0  0
    2.6163    4.3540    0.0000 H   0  0  0  0  0  0  0  0  0  0  0  0
  1  2  1  0  0  0  0 
  1  3  1  0  0  0  0 
  1  4  1  0  0  0  0 
  1  5  1  0  0  0  0 
  5  6  1  0  0  0  0 
  5  7  1  0  0  0  0 
  5  8  1  0  0  0  0 
  9  8  1  6  0  0  0 
  9 10  1  1  0  0  0 
  9 11  1  0  0  0  0 
 11 12  1  0  0  0  0 
 11 13  1  0  0  0  0 
 11 14  1  0  0  0  0 
 14 15  1  6  0  0  0 
 14 16  1  1  0  0  0 
 16 17  1  0  0  0  0 
 16 18  1  0  0  0  0 
 16 19  1  0  0  0  0 
 14 20  1  0  0  0  0 
 20 21  2  0  0  0  0 
 20 22  2  0  0  0  0 
 20 23  1  0  0  0  0 
 23 24  2  0  0  0  0 
  9 24  1  0  0  0  0 
 24 25  1  0  0  0  0 
 25 26  1  0  0  0  0 
 25 27  2  0  0  0  0 
 27 28  1  0  0  0  0 
 23 28  1  0  0  0  0 
 27 29  1  0  0  0  0 
 29 30  2  0  0  0  0 
 29 31  2  0  0  0  0 
 29 32  1  0  0  0  0 
 32 33  1  0  0  0  0 
 32 34  1  0  0  0  0 
  8 35  1  0  0  0  0 
 35 36  1  0  0  0  0 
M  END
> <Rank>
2

> <Priority_score>
0.244

> <Reaction_type>
amine hydroxylation

> <Parent_ID>
25

> <Parent_InChI>
InChI=1S/C10H16N2O4S3/c1-3-12-8-4-6(2)18(13,14)10-7(8)5-9(17-10)19(11,15)16/h5-6,8,12H,3-4H2,1-2H3,(H2,11,15,16)

> <Parent_SMILES>
CCN[C@H]1C[C@H](C)S(=O)(=O)c2sc(S(N)(=O)=O)cc21

$$$$
Molecule 25_metabolite 6
  CDK     0516241031

  9  8  0  0  0  0  0  0  0  0999 V2000
    1.2990   -0.7500    0.0000 C   0  0  0  0  0  0  0  0  0  0  0  0
    0.0000    0.0000    0.0000 H   0  0  0  0  0  0  0  0  0  0  0  0
    0.3349   -1.8991    0.0000 H   0  0  0  0  0  0  0  0  0  0  0  0
    2.2632   -1.8991    0.0000 H   0  0  0  0  0  0  0  0  0  0  0  0
    2.5981   -0.0000    0.0000 C   0  0  0  0  0  0  0  0  0  0  0  0
    3.5623    1.1491    0.0000 H   0  0  0  0  0  0  0  0  0  0  0  0
    1.6339    1.1491    0.0000 H   0  0  0  0  0  0  0  0  0  0  0  0
    3.8971   -0.7500    0.0000 O   0  0  0  0  0  0  0  0  0  0  0  0
    5.1962   -0.0000    0.0000 H   0  0  0  0  0  0  0  0  0  0  0  0
  1  2  1  0  0  0  0 
  1  3  1  0  0  0  0 
  1  4  1  0  0  0  0 
  1  5  1  0  0  0  0 
  5  6  1  0  0  0  0 
  5  7  1  0  0  0  0 
  5  8  1  0  0  0  0 
  8  9  1  0  0  0  0 
M  END
> <Rank>
2

> <Priority_score>
0.244

> <Reaction_type>
N-dealkylation_(R-NHCH2-alkyl)

> <Parent_ID>
25

> <Parent_InChI>
InChI=1S/C10H16N2O4S3/c1-3-12-8-4-6(2)18(13,14)10-7(8)5-9(17-10)19(11,15)16/h5-6,8,12H,3-4H2,1-2H3,(H2,11,15,16)

> <Parent_SMILES>
CCN[C@H]1C[C@H](C)S(=O)(=O)c2sc(S(N)(=O)=O)cc21

$$$$
Molecule 25_metabolite 7
  CDK     0516241031

 36 37  0  0  0  0  0  0  0  0999 V2000
    0.4616    6.4748    0.0000 C   0  0  0  0  0  0  0  0  0  0  0  0
   -0.0516    7.8843    0.0000 H   0  0  0  0  0  0  0  0  0  0  0  0
    1.4259    5.3259    0.0000 H   0  0  0  0  0  0  0  0  0  0  0  0
    1.7606    7.2250    0.0000 H   0  0  0  0  0  0  0  0  0  0  0  0
   -0.5024    5.3257    0.0000 C   0  0  0  0  0  0  0  0  0  0  0  0
   -1.4667    6.4746    0.0000 H   0  0  0  0  0  0  0  0  0  0  0  0
   -1.8014    4.5755    0.0000 H   0  0  0  0  0  0  0  0  0  0  0  0
    0.1750    3.4651    0.0000 N   0  0  0  0  0  0  0  0  0  0  0  0
    1.6522    3.2048    0.0000 H   0  0  0  0  0  0  0  0  0  0  0  0
   -0.7891    2.3160    0.0000 C   0  0  1  0  0  0  0  0  0  0  0  0
   -1.7531    3.4651    0.0000 H   0  0  0  0  0  0  0  0  0  0  0  0
   -2.0891    1.5660    0.0000 C   0  0  0  0  0  0  0  0  0  0  0  0
   -2.6018    2.9756    0.0000 H   0  0  0  0  0  0  0  0  0  0  0  0
   -3.5663    1.3057    0.0000 H   0  0  0  0  0  0  0  0  0  0  0  0
   -2.0891    0.0960    0.0000 C   0  0  2  0  0  0  0  0  0  0  0  0
   -3.5648    0.3647    0.0000 H   0  0  0  0  0  0  0  0  0  0  0  0
   -2.9563   -2.2061    0.0000 C   0  0  0  0  0  0  0  0  0  0  0  0
   -2.9731   -3.7060    0.0000 H   0  0  0  0  0  0  0  0  0  0  0  0
   -1.0104   -2.5718    0.0000 H   0  0  0  0  0  0  0  0  0  0  0  0
   -4.4364   -2.4500    0.0000 O   0  0  0  0  0  0  0  0  0  0  0  0
   -4.9652   -3.8537    0.0000 H   0  0  0  0  0  0  0  0  0  0  0  0
   -0.7891   -0.6840    0.0000 S   0  0  0  0  0  0  0  0  0  0  0  0
   -1.7597   -1.8277    0.0000 O   0  0  0  0  0  0  0  0  0  0  0  0
    0.1815   -1.8277    0.0000 O   0  0  0  0  0  0  0  0  0  0  0  0
    0.5109    0.0960    0.0000 C   0  0  0  0  0  0  0  0  0  0  0  0
    0.5109    1.5660    0.0000 C   0  0  0  0  0  0  0  0  0  0  0  0
    1.9509    2.0560    0.0000 C   0  0  0  0  0  0  0  0  0  0  0  0
    2.4280    3.4781    0.0000 H   0  0  0  0  0  0  0  0  0  0  0  0
    2.7909    0.8160    0.0000 C   0  0  0  0  0  0  0  0  0  0  0  0
    1.9509   -0.3940    0.0000 S   0  0  0  0  0  0  0  0  0  0  0  0
    4.2909    0.8074    0.0000 S   0  0  0  0  0  0  0  0  0  0  0  0
    5.7033    1.3124    0.0000 O   0  0  0  0  0  0  0  0  0  0  0  0
    4.0389    2.2861    0.0000 O   0  0  0  0  0  0  0  0  0  0  0  0
    5.0335   -0.4959    0.0000 N   0  0  0  0  0  0  0  0  0  0  0  0
    6.5334   -0.5045    0.0000 H   0  0  0  0  0  0  0  0  0  0  0  0
    4.2760   -1.7906    0.0000 H   0  0  0  0  0  0  0  0  0  0  0  0
  1  2  1  0  0  0  0 
  1  3  1  0  0  0  0 
  1  4  1  0  0  0  0 
  1  5  1  0  0  0  0 
  5  6  1  0  0  0  0 
  5  7  1  0  0  0  0 
  5  8  1  0  0  0  0 
  8  9  1  0  0  0  0 
 10  8  1  6  0  0  0 
 10 11  1  1  0  0  0 
 10 12  1  0  0  0  0 
 12 13  1  0  0  0  0 
 12 14  1  0  0  0  0 
 12 15  1  0  0  0  0 
 15 16  1  6  0  0  0 
 15 17  1  1  0  0  0 
 17 18  1  0  0  0  0 
 17 19  1  0  0  0  0 
 17 20  1  0  0  0  0 
 20 21  1  0  0  0  0 
 15 22  1  0  0  0  0 
 22 23  2  0  0  0  0 
 22 24  2  0  0  0  0 
 22 25  1  0  0  0  0 
 25 26  2  0  0  0  0 
 10 26  1  0  0  0  0 
 26 27  1  0  0  0  0 
 27 28  1  0  0  0  0 
 27 29  2  0  0  0  0 
 29 30  1  0  0  0  0 
 25 30  1  0  0  0  0 
 29 31  1  0  0  0  0 
 31 32  2  0  0  0  0 
 31 33  2  0  0  0  0 
 31 34  1  0  0  0  0 
 34 35  1  0  0  0  0 
 34 36  1  0  0  0  0 
M  END
> <Rank>
7

> <Priority_score>
0.22

> <Reaction_type>
aliphatic hydroxylation

> <Parent_ID>
25

> <Parent_InChI>
InChI=1S/C10H16N2O4S3/c1-3-12-8-4-6(2)18(13,14)10-7(8)5-9(17-10)19(11,15)16/h5-6,8,12H,3-4H2,1-2H3,(H2,11,15,16)

> <Parent_SMILES>
CCN[C@H]1C[C@H](C)S(=O)(=O)c2sc(S(N)(=O)=O)cc21

$$$$
Molecule 25_metabolite 8
  CDK     0516241031

 26 27  0  0  0  0  0  0  0  0999 V2000
   -3.3030   -0.3779    0.0000 C   0  0  0  0  0  0  0  0  0  0  0  0
   -3.8081    1.0344    0.0000 H   0  0  0  0  0  0  0  0  0  0  0  0
   -3.3114   -1.8779    0.0000 H   0  0  0  0  0  0  0  0  0  0  0  0
   -4.7817   -0.6301    0.0000 H   0  0  0  0  0  0  0  0  0  0  0  0
   -0.8828   -0.8187    0.0000 C   0  0  1  0  0  0  0  0  0  0  0  0
   -1.4116   -2.2224    0.0000 H   0  0  0  0  0  0  0  0  0  0  0  0
   -0.8828    0.6513    0.0000 C   0  0  0  0  0  0  0  0  0  0  0  0
   -1.3955    2.0609    0.0000 H   0  0  0  0  0  0  0  0  0  0  0  0
   -2.8328    0.3077    0.0000 H   0  0  0  0  0  0  0  0  0  0  0  0
    0.4172    1.4013    0.0000 C   0  0  0  0  0  0  0  0  0  0  0  0
    0.4172    2.9013    0.0000 O   0  0  0  0  0  0  0  0  0  0  0  0
    1.7172    0.6513    0.0000 C   0  0  0  0  0  0  0  0  0  0  0  0
    1.7172   -0.8187    0.0000 C   0  0  0  0  0  0  0  0  0  0  0  0
    3.1472   -1.2987    0.0000 S   0  0  0  0  0  0  0  0  0  0  0  0
    3.9872   -0.0987    0.0000 C   0  0  0  0  0  0  0  0  0  0  0  0
    3.1472    1.1313    0.0000 C   0  0  0  0  0  0  0  0  0  0  0  0
    3.6246    2.5533    0.0000 H   0  0  0  0  0  0  0  0  0  0  0  0
    5.4872   -0.1074    0.0000 S   0  0  0  0  0  0  0  0  0  0  0  0
    5.2182   -1.5830    0.0000 O   0  0  0  0  0  0  0  0  0  0  0  0
    6.8937   -0.6285    0.0000 O   0  0  0  0  0  0  0  0  0  0  0  0
    6.2446    1.1873    0.0000 N   0  0  0  0  0  0  0  0  0  0  0  0
    7.7446    1.1787    0.0000 H   0  0  0  0  0  0  0  0  0  0  0  0
    5.5022    2.4907    0.0000 H   0  0  0  0  0  0  0  0  0  0  0  0
    0.4172   -1.5987    0.0000 S   0  0  0  0  0  0  0  0  0  0  0  0
   -0.5534   -2.7423    0.0000 O   0  0  0  0  0  0  0  0  0  0  0  0
    1.3878   -2.7423    0.0000 O   0  0  0  0  0  0  0  0  0  0  0  0
  1  2  1  0  0  0  0 
  1  3  1  0  0  0  0 
  1  4  1  0  0  0  0 
  1  5  1  0  0  0  0 
  5  6  1  6  0  0  0 
  5  7  1  0  0  0  0 
  7  8  1  0  0  0  0 
  7  9  1  0  0  0  0 
  7 10  1  0  0  0  0 
 10 11  2  0  0  0  0 
 10 12  1  0  0  0  0 
 12 13  2  0  0  0  0 
 13 14  1  0  0  0  0 
 14 15  1  0  0  0  0 
 15 16  2  0  0  0  0 
 12 16  1  0  0  0  0 
 16 17  1  0  0  0  0 
 15 18  1  0  0  0  0 
 18 19  2  0  0  0  0 
 18 20  2  0  0  0  0 
 18 21  1  0  0  0  0 
 21 22  1  0  0  0  0 
 21 23  1  0  0  0  0 
 13 24  1  0  0  0  0 
  5 24  1  1  0  0  0 
 24 25  2  0  0  0  0 
 24 26  2  0  0  0  0 
M  END
> <Rank>
8

> <Priority_score>
0.19155763604447046

> <Reaction_type>
N-dealkylation

> <Parent_ID>
25

> <Parent_InChI>
InChI=1S/C10H16N2O4S3/c1-3-12-8-4-6(2)18(13,14)10-7(8)5-9(17-10)19(11,15)16/h5-6,8,12H,3-4H2,1-2H3,(H2,11,15,16)

> <Parent_SMILES>
CCN[C@H]1C[C@H](C)S(=O)(=O)c2sc(S(N)(=O)=O)cc21

$$$$
Molecule 25_metabolite 9
  CDK     0516241031

 10  9  0  0  0  0  0  0  0  0999 V2000
    1.2990   -0.7500    0.0000 C   0  0  0  0  0  0  0  0  0  0  0  0
    0.0000    0.0000    0.0000 H   0  0  0  0  0  0  0  0  0  0  0  0
    0.3349   -1.8991    0.0000 H   0  0  0  0  0  0  0  0  0  0  0  0
    2.2632   -1.8991    0.0000 H   0  0  0  0  0  0  0  0  0  0  0  0
    2.5981   -0.0000    0.0000 C   0  0  0  0  0  0  0  0  0  0  0  0
    3.5623    1.1491    0.0000 H   0  0  0  0  0  0  0  0  0  0  0  0
    1.6339    1.1491    0.0000 H   0  0  0  0  0  0  0  0  0  0  0  0
    3.8971   -0.7500    0.0000 N   0  0  0  0  0  0  0  0  0  0  0  0
    5.1962   -0.0000    0.0000 H   0  0  0  0  0  0  0  0  0  0  0  0
    3.8971   -2.2500    0.0000 H   0  0  0  0  0  0  0  0  0  0  0  0
  1  2  1  0  0  0  0 
  1  3  1  0  0  0  0 
  1  4  1  0  0  0  0 
  1  5  1  0  0  0  0 
  5  6  1  0  0  0  0 
  5  7  1  0  0  0  0 
  5  8  1  0  0  0  0 
  8  9  1  0  0  0  0 
  8 10  1  0  0  0  0 
M  END
> <Rank>
8

> <Priority_score>
0.19155763604447046

> <Reaction_type>
N-dealkylation

> <Parent_ID>
25

> <Parent_InChI>
InChI=1S/C10H16N2O4S3/c1-3-12-8-4-6(2)18(13,14)10-7(8)5-9(17-10)19(11,15)16/h5-6,8,12H,3-4H2,1-2H3,(H2,11,15,16)

> <Parent_SMILES>
CCN[C@H]1C[C@H](C)S(=O)(=O)c2sc(S(N)(=O)=O)cc21

$$$$
Molecule 25_metabolite 10
  CDK     0516241031

 33 34  0  0  0  0  0  0  0  0999 V2000
   -2.7361    5.5231    0.0000 C   0  0  0  0  0  0  0  0  0  0  0  0
   -1.4370    6.2731    0.0000 H   0  0  0  0  0  0  0  0  0  0  0  0
   -4.2133    5.2626    0.0000 H   0  0  0  0  0  0  0  0  0  0  0  0
   -3.2491    6.9326    0.0000 H   0  0  0  0  0  0  0  0  0  0  0  0
   -2.7361    4.0231    0.0000 C   0  0  0  0  0  0  0  0  0  0  0  0
   -4.2133    4.2836    0.0000 H   0  0  0  0  0  0  0  0  0  0  0  0
   -3.2491    2.6135    0.0000 H   0  0  0  0  0  0  0  0  0  0  0  0
   -1.4370    3.2731    0.0000 N   0  0  0  0  0  0  0  0  0  0  0  0
   -0.1380    4.0231    0.0000 C   0  0  0  0  0  0  0  0  0  0  0  0
   -0.1385    5.5239    0.0000 C   0  0  0  0  0  0  0  0  0  0  0  0
   -1.6156    5.2631    0.0000 H   0  0  0  0  0  0  0  0  0  0  0  0
   -0.6517    6.9334    0.0000 H   0  0  0  0  0  0  0  0  0  0  0  0
    1.1346    6.2589    0.0000 C   0  0  2  0  0  0  0  0  0  0  0  0
    0.1640    7.4026    0.0000 H   0  0  0  0  0  0  0  0  0  0  0  0
    2.3902    7.7899    0.0000 C   0  0  0  0  0  0  0  0  0  0  0  0
    1.8614    9.1936    0.0000 H   0  0  0  0  0  0  0  0  0  0  0  0
    3.6808    8.5544    0.0000 H   0  0  0  0  0  0  0  0  0  0  0  0
    3.6799    6.2875    0.0000 H   0  0  0  0  0  0  0  0  0  0  0  0
    2.4601    5.5231    0.0000 S   0  0  0  0  0  0  0  0  0  0  0  0
    2.9652    6.9355    0.0000 O   0  0  0  0  0  0  0  0  0  0  0  0
    3.9358    5.2543    0.0000 O   0  0  0  0  0  0  0  0  0  0  0  0
    2.4346    4.0072    0.0000 C   0  0  0  0  0  0  0  0  0  0  0  0
    1.1615    3.2722    0.0000 C   0  0  0  0  0  0  0  0  0  0  0  0
    1.4572    1.7802    0.0000 C   0  0  0  0  0  0  0  0  0  0  0  0
    0.4642    0.6559    0.0000 H   0  0  0  0  0  0  0  0  0  0  0  0
    2.9510    1.6727    0.0000 C   0  0  0  0  0  0  0  0  0  0  0  0
    3.5789    3.0052    0.0000 S   0  0  0  0  0  0  0  0  0  0  0  0
    3.7084    0.3780    0.0000 S   0  0  0  0  0  0  0  0  0  0  0  0
    3.9774   -1.0977    0.0000 O   0  0  0  0  0  0  0  0  0  0  0  0
    2.3019   -0.1431    0.0000 O   0  0  0  0  0  0  0  0  0  0  0  0
    5.2084    0.3865    0.0000 N   0  0  0  0  0  0  0  0  0  0  0  0
    5.9658   -0.9082    0.0000 H   0  0  0  0  0  0  0  0  0  0  0  0
    5.9510    1.6898    0.0000 H   0  0  0  0  0  0  0  0  0  0  0  0
  1  2  1  0  0  0  0 
  1  3  1  0  0  0  0 
  1  4  1  0  0  0  0 
  1  5  1  0  0  0  0 
  5  6  1  0  0  0  0 
  5  7  1  0  0  0  0 
  5  8  1  0  0  0  0 
  8  9  2  0  0  0  0 
  9 10  1  0  0  0  0 
 10 11  1  0  0  0  0 
 10 12  1  0  0  0  0 
 10 13  1  0  0  0  0 
 13 14  1  1  0  0  0 
 13 15  1  6  0  0  0 
 15 16  1  0  0  0  0 
 15 17  1  0  0  0  0 
 15 18  1  0  0  0  0 
 13 19  1  0  0  0  0 
 19 20  2  0  0  0  0 
 19 21  2  0  0  0  0 
 19 22  1  0  0  0  0 
 22 23  2  0  0  0  0 
  9 23  1  4  0  0  0 
 23 24  1  0  0  0  0 
 24 25  1  0  0  0  0 
 24 26  2  0  0  0  0 
 26 27  1  0  0  0  0 
 22 27  1  0  0  0  0 
 26 28  1  0  0  0  0 
 28 29  2  0  0  0  0 
 28 30  2  0  0  0  0 
 28 31  1  0  0  0  0 
 31 32  1  0  0  0  0 
 31 33  1  0  0  0  0 
M  END
> <Rank>
8

> <Priority_score>
0.19155763604447046

> <Reaction_type>
dehydrogenation_(amine)

> <Parent_ID>
25

> <Parent_InChI>
InChI=1S/C10H16N2O4S3/c1-3-12-8-4-6(2)18(13,14)10-7(8)5-9(17-10)19(11,15)16/h5-6,8,12H,3-4H2,1-2H3,(H2,11,15,16)

> <Parent_SMILES>
CCN[C@H]1C[C@H](C)S(=O)(=O)c2sc(S(N)(=O)=O)cc21

$$$$
Molecule 25_metabolite 11
  CDK     0516241031

 36 37  0  0  0  0  0  0  0  0999 V2000
    1.0619    6.6305    0.0000 C   0  0  0  0  0  0  0  0  0  0  0  0
    0.5487    8.0400    0.0000 H   0  0  0  0  0  0  0  0  0  0  0  0
    2.0262    5.4816    0.0000 H   0  0  0  0  0  0  0  0  0  0  0  0
    2.3608    7.3807    0.0000 H   0  0  0  0  0  0  0  0  0  0  0  0
    0.0978    5.4814    0.0000 C   0  0  0  0  0  0  0  0  0  0  0  0
   -0.8665    6.6303    0.0000 H   0  0  0  0  0  0  0  0  0  0  0  0
   -1.2011    4.7312    0.0000 H   0  0  0  0  0  0  0  0  0  0  0  0
    0.7752    3.6208    0.0000 N   0  0  0  0  0  0  0  0  0  0  0  0
    2.2524    3.3605    0.0000 H   0  0  0  0  0  0  0  0  0  0  0  0
   -0.1888    2.4717    0.0000 C   0  0  1  0  0  0  0  0  0  0  0  0
   -1.4888    1.7217    0.0000 C   0  0  0  0  0  0  0  0  0  0  0  0
   -2.0016    3.1313    0.0000 H   0  0  0  0  0  0  0  0  0  0  0  0
   -2.9661    1.4614    0.0000 H   0  0  0  0  0  0  0  0  0  0  0  0
   -1.4888    0.2517    0.0000 C   0  0  2  0  0  0  0  0  0  0  0  0
   -2.9646    0.5204    0.0000 H   0  0  0  0  0  0  0  0  0  0  0  0
   -2.3561   -2.0504    0.0000 C   0  0  0  0  0  0  0  0  0  0  0  0
   -3.8361   -2.2943    0.0000 H   0  0  0  0  0  0  0  0  0  0  0  0
   -2.3729   -3.5503    0.0000 H   0  0  0  0  0  0  0  0  0  0  0  0
   -0.8819   -2.3274    0.0000 H   0  0  0  0  0  0  0  0  0  0  0  0
   -0.1888   -0.5283    0.0000 S   0  0  0  0  0  0  0  0  0  0  0  0
   -1.4921   -1.2710    0.0000 O   0  0  0  0  0  0  0  0  0  0  0  0
    0.7818   -1.6720    0.0000 O   0  0  0  0  0  0  0  0  0  0  0  0
    1.1112    0.2517    0.0000 C   0  0  0  0  0  0  0  0  0  0  0  0
    1.1112    1.7217    0.0000 C   0  0  0  0  0  0  0  0  0  0  0  0
    2.5412    2.2017    0.0000 C   0  0  0  0  0  0  0  0  0  0  0  0
    3.0185    3.6237    0.0000 H   0  0  0  0  0  0  0  0  0  0  0  0
    3.3812    0.9717    0.0000 C   0  0  0  0  0  0  0  0  0  0  0  0
    2.5412   -0.2283    0.0000 S   0  0  0  0  0  0  0  0  0  0  0  0
    4.8811    0.9630    0.0000 S   0  0  0  0  0  0  0  0  0  0  0  0
    6.2936    1.4679    0.0000 O   0  0  0  0  0  0  0  0  0  0  0  0
    4.6292    2.4417    0.0000 O   0  0  0  0  0  0  0  0  0  0  0  0
    5.6236   -0.3403    0.0000 N   0  0  0  0  0  0  0  0  0  0  0  0
    7.1236   -0.3490    0.0000 H   0  0  0  0  0  0  0  0  0  0  0  0
    4.8661   -1.6350    0.0000 H   0  0  0  0  0  0  0  0  0  0  0  0
   -1.1529    3.6208    0.0000 O   0  0  0  0  0  0  0  0  0  0  0  0
   -3.1029    3.2772    0.0000 H   0  0  0  0  0  0  0  0  0  0  0  0
  1  2  1  0  0  0  0 
  1  3  1  0  0  0  0 
  1  4  1  0  0  0  0 
  1  5  1  0  0  0  0 
  5  6  1  0  0  0  0 
  5  7  1  0  0  0  0 
  5  8  1  0  0  0  0 
  8  9  1  0  0  0  0 
 10  8  1  6  0  0  0 
 10 11  1  0  0  0  0 
 11 12  1  0  0  0  0 
 11 13  1  0  0  0  0 
 11 14  1  0  0  0  0 
 14 15  1  6  0  0  0 
 14 16  1  1  0  0  0 
 16 17  1  0  0  0  0 
 16 18  1  0  0  0  0 
 16 19  1  0  0  0  0 
 14 20  1  0  0  0  0 
 20 21  2  0  0  0  0 
 20 22  2  0  0  0  0 
 20 23  1  0  0  0  0 
 23 24  2  0  0  0  0 
 10 24  1  0  0  0  0 
 24 25  1  0  0  0  0 
 25 26  1  0  0  0  0 
 25 27  2  0  0  0  0 
 27 28  1  0  0  0  0 
 23 28  1  0  0  0  0 
 27 29  1  0  0  0  0 
 29 30  2  0  0  0  0 
 29 31  2  0  0  0  0 
 29 32  1  0  0  0  0 
 32 33  1  0  0  0  0 
 32 34  1  0  0  0  0 
 10 35  1  1  0  0  0 
 35 36  1  0  0  0  0 
M  END
> <Rank>
8

> <Priority_score>
0.19155763604447046

> <Reaction_type>
aliphatic hydroxylation

> <Parent_ID>
25

> <Parent_InChI>
InChI=1S/C10H16N2O4S3/c1-3-12-8-4-6(2)18(13,14)10-7(8)5-9(17-10)19(11,15)16/h5-6,8,12H,3-4H2,1-2H3,(H2,11,15,16)

> <Parent_SMILES>
CCN[C@H]1C[C@H](C)S(=O)(=O)c2sc(S(N)(=O)=O)cc21

$$$$
Molecule 25_metabolite 12
  CDK     0516241031

 36 37  0  0  0  0  0  0  0  0999 V2000
    0.1174    6.6359    0.0000 C   0  0  0  0  0  0  0  0  0  0  0  0
   -0.3958    8.0454    0.0000 H   0  0  0  0  0  0  0  0  0  0  0  0
    1.0817    5.4869    0.0000 H   0  0  0  0  0  0  0  0  0  0  0  0
    1.4164    7.3860    0.0000 H   0  0  0  0  0  0  0  0  0  0  0  0
   -0.8466    5.4867    0.0000 C   0  0  0  0  0  0  0  0  0  0  0  0
   -1.8110    6.6357    0.0000 H   0  0  0  0  0  0  0  0  0  0  0  0
   -2.1456    4.7366    0.0000 H   0  0  0  0  0  0  0  0  0  0  0  0
   -0.1693    3.6262    0.0000 N   0  0  0  0  0  0  0  0  0  0  0  0
    1.3080    3.3659    0.0000 H   0  0  0  0  0  0  0  0  0  0  0  0
   -1.1333    2.4770    0.0000 C   0  0  1  0  0  0  0  0  0  0  0  0
   -2.0974    3.6262    0.0000 H   0  0  0  0  0  0  0  0  0  0  0  0
   -2.4333    1.7270    0.0000 C   0  0  0  0  0  0  0  0  0  0  0  0
   -2.9460    3.1367    0.0000 H   0  0  0  0  0  0  0  0  0  0  0  0
   -3.9105    1.4667    0.0000 H   0  0  0  0  0  0  0  0  0  0  0  0
   -2.4333    0.2570    0.0000 C   0  0  2  0  0  0  0  0  0  0  0  0
   -3.9090    0.5258    0.0000 H   0  0  0  0  0  0  0  0  0  0  0  0
   -3.3005   -2.0451    0.0000 C   0  0  0  0  0  0  0  0  0  0  0  0
   -4.7806   -2.2889    0.0000 H   0  0  0  0  0  0  0  0  0  0  0  0
   -3.3174   -3.5450    0.0000 H   0  0  0  0  0  0  0  0  0  0  0  0
   -1.3546   -2.4107    0.0000 H   0  0  0  0  0  0  0  0  0  0  0  0
   -1.1333   -0.5230    0.0000 S   0  0  0  0  0  0  0  0  0  0  0  0
   -2.1039   -1.6666    0.0000 O   0  0  0  0  0  0  0  0  0  0  0  0
   -0.1627   -1.6666    0.0000 O   0  0  0  0  0  0  0  0  0  0  0  0
    0.1667    0.2570    0.0000 C   0  0  0  0  0  0  0  0  0  0  0  0
    0.1667    1.7270    0.0000 C   0  0  0  0  0  0  0  0  0  0  0  0
    1.5967    2.2070    0.0000 C   0  0  0  0  0  0  0  0  0  0  0  0
    2.0741    3.6290    0.0000 H   0  0  0  0  0  0  0  0  0  0  0  0
    2.4367    0.9770    0.0000 C   0  0  0  0  0  0  0  0  0  0  0  0
    1.5967   -0.2230    0.0000 S   0  0  0  0  0  0  0  0  0  0  0  0
    2.0659   -1.6477    0.0000 O   0  0  0  0  0  0  0  0  0  0  0  0
    3.9367    0.9684    0.0000 S   0  0  0  0  0  0  0  0  0  0  0  0
    5.3491    1.4732    0.0000 O   0  0  0  0  0  0  0  0  0  0  0  0
    3.6847    2.4470    0.0000 O   0  0  0  0  0  0  0  0  0  0  0  0
    4.6792   -0.3350    0.0000 N   0  0  0  0  0  0  0  0  0  0  0  0
    6.1791   -0.3437    0.0000 H   0  0  0  0  0  0  0  0  0  0  0  0
    3.9217   -1.6297    0.0000 H   0  0  0  0  0  0  0  0  0  0  0  0
  1  2  1  0  0  0  0 
  1  3  1  0  0  0  0 
  1  4  1  0  0  0  0 
  1  5  1  0  0  0  0 
  5  6  1  0  0  0  0 
  5  7  1  0  0  0  0 
  5  8  1  0  0  0  0 
  8  9  1  0  0  0  0 
 10  8  1  6  0  0  0 
 10 11  1  1  0  0  0 
 10 12  1  0  0  0  0 
 12 13  1  0  0  0  0 
 12 14  1  0  0  0  0 
 12 15  1  0  0  0  0 
 15 16  1  6  0  0  0 
 15 17  1  1  0  0  0 
 17 18  1  0  0  0  0 
 17 19  1  0  0  0  0 
 17 20  1  0  0  0  0 
 15 21  1  0  0  0  0 
 21 22  2  0  0  0  0 
 21 23  2  0  0  0  0 
 21 24  1  0  0  0  0 
 24 25  2  0  0  0  0 
 10 25  1  0  0  0  0 
 25 26  1  0  0  0  0 
 26 27  1  0  0  0  0 
 26 28  2  0  0  0  0 
 28 29  1  0  0  0  0 
 24 29  1  0  0  0  0 
 29 30  2  0  0  0  0 
 28 31  1  0  0  0  0 
 31 32  2  0  0  0  0 
 31 33  2  0  0  0  0 
 31 34  1  0  0  0  0 
 34 35  1  0  0  0  0 
 34 36  1  0  0  0  0 
M  END
> <Rank>
12

> <Priority_score>
0.15555763604447045

> <Reaction_type>
sulfide_oxidation_(c-S-c)

> <Parent_ID>
25

> <Parent_InChI>
InChI=1S/C10H16N2O4S3/c1-3-12-8-4-6(2)18(13,14)10-7(8)5-9(17-10)19(11,15)16/h5-6,8,12H,3-4H2,1-2H3,(H2,11,15,16)

> <Parent_SMILES>
CCN[C@H]1C[C@H](C)S(=O)(=O)c2sc(S(N)(=O)=O)cc21

$$$$
Molecule 25_metabolite 13
  CDK     0516241031

 36 37  0  0  0  0  0  0  0  0999 V2000
   -3.2872   -0.5390    0.0000 C   0  0  0  0  0  0  0  0  0  0  0  0
   -3.7923    0.8734    0.0000 H   0  0  0  0  0  0  0  0  0  0  0  0
   -3.2956   -2.0390    0.0000 H   0  0  0  0  0  0  0  0  0  0  0  0
   -4.7659   -0.7912    0.0000 H   0  0  0  0  0  0  0  0  0  0  0  0
   -1.3393   -0.8937    0.0000 C   0  0  1  0  0  0  0  0  0  0  0  0
   -1.8681   -2.2974    0.0000 H   0  0  0  0  0  0  0  0  0  0  0  0
   -1.3393    0.5763    0.0000 C   0  0  0  0  0  0  0  0  0  0  0  0
   -1.8520    1.9859    0.0000 H   0  0  0  0  0  0  0  0  0  0  0  0
   -2.8165    0.3160    0.0000 H   0  0  0  0  0  0  0  0  0  0  0  0
   -0.0393    1.3263    0.0000 C   0  0  1  0  0  0  0  0  0  0  0  0
    0.9248    2.4754    0.0000 H   0  0  0  0  0  0  0  0  0  0  0  0
    1.2607    0.5763    0.0000 C   0  0  0  0  0  0  0  0  0  0  0  0
    1.2607   -0.8937    0.0000 C   0  0  0  0  0  0  0  0  0  0  0  0
    2.7007   -1.3837    0.0000 S   0  0  0  0  0  0  0  0  0  0  0  0
    3.5407   -0.1737    0.0000 C   0  0  0  0  0  0  0  0  0  0  0  0
    2.7007    1.0663    0.0000 C   0  0  0  0  0  0  0  0  0  0  0  0
    3.1778    2.4884    0.0000 H   0  0  0  0  0  0  0  0  0  0  0  0
    5.0407   -0.1823    0.0000 S   0  0  0  0  0  0  0  0  0  0  0  0
    6.4532    0.3227    0.0000 O   0  0  0  0  0  0  0  0  0  0  0  0
    4.7887    1.2964    0.0000 O   0  0  0  0  0  0  0  0  0  0  0  0
    5.7833   -1.4856    0.0000 N   0  0  0  0  0  0  0  0  0  0  0  0
    7.2833   -1.4942    0.0000 H   0  0  0  0  0  0  0  0  0  0  0  0
    5.0259   -2.7803    0.0000 H   0  0  0  0  0  0  0  0  0  0  0  0
   -0.0393   -1.6737    0.0000 S   0  0  0  0  0  0  0  0  0  0  0  0
   -1.0099   -2.8174    0.0000 O   0  0  0  0  0  0  0  0  0  0  0  0
    0.9313   -2.8174    0.0000 O   0  0  0  0  0  0  0  0  0  0  0  0
   -1.3118    2.8432    0.0000 N   0  0  0  0  0  0  0  0  0  0  0  0
   -2.7891    2.5829    0.0000 H   0  0  0  0  0  0  0  0  0  0  0  0
   -0.6344    4.7037    0.0000 C   0  0  0  0  0  0  0  0  0  0  0  0
    0.6645    3.9535    0.0000 H   0  0  0  0  0  0  0  0  0  0  0  0
    0.3299    5.8527    0.0000 H   0  0  0  0  0  0  0  0  0  0  0  0
   -1.5985    5.8529    0.0000 C   0  0  0  0  0  0  0  0  0  0  0  0
   -2.8974    6.6030    0.0000 H   0  0  0  0  0  0  0  0  0  0  0  0
   -2.5628    4.7039    0.0000 H   0  0  0  0  0  0  0  0  0  0  0  0
   -1.0853    7.2623    0.0000 O   0  0  0  0  0  0  0  0  0  0  0  0
   -2.0494    8.4115    0.0000 H   0  0  0  0  0  0  0  0  0  0  0  0
  1  2  1  0  0  0  0 
  1  3  1  0  0  0  0 
  1  4  1  0  0  0  0 
  1  5  1  0  0  0  0 
  5  6  1  6  0  0  0 
  5  7  1  0  0  0  0 
  7  8  1  0  0  0  0 
  7  9  1  0  0  0  0 
  7 10  1  0  0  0  0 
 10 11  1  1  0  0  0 
 10 12  1  0  0  0  0 
 12 13  2  0  0  0  0 
 13 14  1  0  0  0  0 
 14 15  1  0  0  0  0 
 15 16  2  0  0  0  0 
 12 16  1  0  0  0  0 
 16 17  1  0  0  0  0 
 15 18  1  0  0  0  0 
 18 19  2  0  0  0  0 
 18 20  2  0  0  0  0 
 18 21  1  0  0  0  0 
 21 22  1  0  0  0  0 
 21 23  1  0  0  0  0 
 13 24  1  0  0  0  0 
  5 24  1  1  0  0  0 
 24 25  2  0  0  0  0 
 24 26  2  0  0  0  0 
 10 27  1  6  0  0  0 
 27 28  1  0  0  0  0 
 27 29  1  0  0  0  0 
 29 30  1  0  0  0  0 
 29 31  1  0  0  0  0 
 29 32  1  0  0  0  0 
 32 33  1  0  0  0  0 
 32 34  1  0  0  0  0 
 32 35  1  0  0  0  0 
 35 36  1  0  0  0  0 
M  END
> <Rank>
13

> <Priority_score>
0.1

> <Reaction_type>
aliphatic hydroxylation

> <Parent_ID>
25

> <Parent_InChI>
InChI=1S/C10H16N2O4S3/c1-3-12-8-4-6(2)18(13,14)10-7(8)5-9(17-10)19(11,15)16/h5-6,8,12H,3-4H2,1-2H3,(H2,11,15,16)

> <Parent_SMILES>
CCN[C@H]1C[C@H](C)S(=O)(=O)c2sc(S(N)(=O)=O)cc21

$$$$
Molecule 25_metabolite 14
  CDK     0516241031

 36 37  0  0  0  0  0  0  0  0999 V2000
    0.4616    6.4748    0.0000 C   0  0  0  0  0  0  0  0  0  0  0  0
   -0.0516    7.8843    0.0000 H   0  0  0  0  0  0  0  0  0  0  0  0
    1.4259    5.3259    0.0000 H   0  0  0  0  0  0  0  0  0  0  0  0
    1.7606    7.2250    0.0000 H   0  0  0  0  0  0  0  0  0  0  0  0
   -0.5024    5.3257    0.0000 C   0  0  0  0  0  0  0  0  0  0  0  0
   -1.4667    6.4746    0.0000 H   0  0  0  0  0  0  0  0  0  0  0  0
   -1.8014    4.5755    0.0000 H   0  0  0  0  0  0  0  0  0  0  0  0
    0.1750    3.4651    0.0000 N   0  0  0  0  0  0  0  0  0  0  0  0
    1.6522    3.2048    0.0000 H   0  0  0  0  0  0  0  0  0  0  0  0
   -0.7891    2.3160    0.0000 C   0  0  1  0  0  0  0  0  0  0  0  0
   -1.7531    3.4651    0.0000 H   0  0  0  0  0  0  0  0  0  0  0  0
   -2.0891    1.5660    0.0000 C   0  0  0  0  0  0  0  0  0  0  0  0
   -2.6018    2.9756    0.0000 H   0  0  0  0  0  0  0  0  0  0  0  0
   -3.5663    1.3057    0.0000 H   0  0  0  0  0  0  0  0  0  0  0  0
   -2.0891    0.0960    0.0000 C   0  0  2  0  0  0  0  0  0  0  0  0
   -3.5648    0.3647    0.0000 H   0  0  0  0  0  0  0  0  0  0  0  0
   -2.9563   -2.2061    0.0000 C   0  0  0  0  0  0  0  0  0  0  0  0
   -4.4364   -2.4500    0.0000 H   0  0  0  0  0  0  0  0  0  0  0  0
   -2.9731   -3.7060    0.0000 H   0  0  0  0  0  0  0  0  0  0  0  0
   -1.0104   -2.5718    0.0000 H   0  0  0  0  0  0  0  0  0  0  0  0
   -0.7891   -0.6840    0.0000 S   0  0  0  0  0  0  0  0  0  0  0  0
   -1.7597   -1.8277    0.0000 O   0  0  0  0  0  0  0  0  0  0  0  0
    0.1815   -1.8277    0.0000 O   0  0  0  0  0  0  0  0  0  0  0  0
    0.5109    0.0960    0.0000 C   0  0  0  0  0  0  0  0  0  0  0  0
    0.5109    1.5660    0.0000 C   0  0  0  0  0  0  0  0  0  0  0  0
    1.9509    2.0560    0.0000 C   0  0  0  0  0  0  0  0  0  0  0  0
    2.4280    3.4781    0.0000 H   0  0  0  0  0  0  0  0  0  0  0  0
    2.7909    0.8160    0.0000 C   0  0  0  0  0  0  0  0  0  0  0  0
    1.9509   -0.3940    0.0000 S   0  0  0  0  0  0  0  0  0  0  0  0
    4.2909    0.8074    0.0000 S   0  0  0  0  0  0  0  0  0  0  0  0
    5.7909    0.7988    0.0000 O   0  0  0  0  0  0  0  0  0  0  0  0
    5.0483    2.1021    0.0000 O   0  0  0  0  0  0  0  0  0  0  0  0
    3.5483    2.1107    0.0000 O   0  0  0  0  0  0  0  0  0  0  0  0
    5.0335   -0.4959    0.0000 N   0  0  0  0  0  0  0  0  0  0  0  0
    6.5334   -0.5045    0.0000 H   0  0  0  0  0  0  0  0  0  0  0  0
    4.2760   -1.7906    0.0000 H   0  0  0  0  0  0  0  0  0  0  0  0
  1  2  1  0  0  0  0 
  1  3  1  0  0  0  0 
  1  4  1  0  0  0  0 
  1  5  1  0  0  0  0 
  5  6  1  0  0  0  0 
  5  7  1  0  0  0  0 
  5  8  1  0  0  0  0 
  8  9  1  0  0  0  0 
 10  8  1  6  0  0  0 
 10 11  1  1  0  0  0 
 10 12  1  0  0  0  0 
 12 13  1  0  0  0  0 
 12 14  1  0  0  0  0 
 12 15  1  0  0  0  0 
 15 16  1  6  0  0  0 
 15 17  1  1  0  0  0 
 17 18  1  0  0  0  0 
 17 19  1  0  0  0  0 
 17 20  1  0  0  0  0 
 15 21  1  0  0  0  0 
 21 22  2  0  0  0  0 
 21 23  2  0  0  0  0 
 21 24  1  0  0  0  0 
 24 25  2  0  0  0  0 
 10 25  1  0  0  0  0 
 25 26  1  0  0  0  0 
 26 27  1  0  0  0  0 
 26 28  2  0  0  0  0 
 28 29  1  0  0  0  0 
 24 29  1  0  0  0  0 
 28 30  1  0  0  0  0 
 30 31  2  0  0  0  0 
 30 32  2  0  0  0  0 
 30 33  2  0  0  0  0 
 30 34  1  0  0  0  0 
 34 35  1  0  0  0  0 
 34 36  1  0  0  0  0 
M  END
> <Rank>
14

> <Priority_score>
0.096

> <Reaction_type>
S-oxidation

> <Parent_ID>
25

> <Parent_InChI>
InChI=1S/C10H16N2O4S3/c1-3-12-8-4-6(2)18(13,14)10-7(8)5-9(17-10)19(11,15)16/h5-6,8,12H,3-4H2,1-2H3,(H2,11,15,16)

> <Parent_SMILES>
CCN[C@H]1C[C@H](C)S(=O)(=O)c2sc(S(N)(=O)=O)cc21

$$$$
Molecule 25_metabolite 15
  CDK     0516241031

 36 37  0  0  0  0  0  0  0  0999 V2000
    0.2816    6.1848    0.0000 C   0  0  0  0  0  0  0  0  0  0  0  0
   -0.2316    7.5943    0.0000 H   0  0  0  0  0  0  0  0  0  0  0  0
    1.2459    5.0359    0.0000 H   0  0  0  0  0  0  0  0  0  0  0  0
    1.5806    6.9350    0.0000 H   0  0  0  0  0  0  0  0  0  0  0  0
   -0.6824    5.0357    0.0000 C   0  0  0  0  0  0  0  0  0  0  0  0
   -1.6467    6.1846    0.0000 H   0  0  0  0  0  0  0  0  0  0  0  0
   -1.9814    4.2855    0.0000 H   0  0  0  0  0  0  0  0  0  0  0  0
   -0.0050    3.1751    0.0000 N   0  0  0  0  0  0  0  0  0  0  0  0
    1.4722    2.9148    0.0000 H   0  0  0  0  0  0  0  0  0  0  0  0
   -0.9691    2.0260    0.0000 C   0  0  2  0  0  0  0  0  0  0  0  0
   -1.9331    3.1751    0.0000 H   0  0  0  0  0  0  0  0  0  0  0  0
    0.3309    1.2760    0.0000 C   0  0  0  0  0  0  0  0  0  0  0  0
    0.3309   -0.1940    0.0000 C   0  0  0  0  0  0  0  0  0  0  0  0
    1.7609   -0.6740    0.0000 S   0  0  0  0  0  0  0  0  0  0  0  0
    2.6009    0.5260    0.0000 C   0  0  0  0  0  0  0  0  0  0  0  0
    1.7609    1.7560    0.0000 C   0  0  0  0  0  0  0  0  0  0  0  0
    2.2383    3.1780    0.0000 H   0  0  0  0  0  0  0  0  0  0  0  0
    4.1009    0.5173    0.0000 S   0  0  0  0  0  0  0  0  0  0  0  0
    5.5134    1.0222    0.0000 O   0  0  0  0  0  0  0  0  0  0  0  0
    3.8489    1.9960    0.0000 O   0  0  0  0  0  0  0  0  0  0  0  0
    4.8434   -0.7860    0.0000 N   0  0  0  0  0  0  0  0  0  0  0  0
    6.3433   -0.7947    0.0000 H   0  0  0  0  0  0  0  0  0  0  0  0
    4.0859   -2.0807    0.0000 H   0  0  0  0  0  0  0  0  0  0  0  0
   -0.9691   -0.9740    0.0000 S   0  0  0  0  0  0  0  0  0  0  0  0
   -1.9397   -2.1177    0.0000 O   0  0  0  0  0  0  0  0  0  0  0  0
    0.0015   -2.1177    0.0000 O   0  0  0  0  0  0  0  0  0  0  0  0
   -2.2691   -0.1940    0.0000 C   0  0  1  0  0  0  0  0  0  0  0  0
   -3.7448    0.0747    0.0000 H   0  0  0  0  0  0  0  0  0  0  0  0
   -3.1363   -2.4961    0.0000 C   0  0  0  0  0  0  0  0  0  0  0  0
   -4.6164   -2.7400    0.0000 H   0  0  0  0  0  0  0  0  0  0  0  0
   -3.1531   -3.9960    0.0000 H   0  0  0  0  0  0  0  0  0  0  0  0
   -1.1904   -2.8618    0.0000 H   0  0  0  0  0  0  0  0  0  0  0  0
   -2.2691    1.2760    0.0000 C   0  0  0  0  0  0  0  0  0  0  0  0
   -2.7818    2.6856    0.0000 H   0  0  0  0  0  0  0  0  0  0  0  0
   -3.7463    1.0157    0.0000 O   0  0  0  0  0  0  0  0  0  0  0  0
   -4.7104    2.1648    0.0000 H   0  0  0  0  0  0  0  0  0  0  0  0
  1  2  1  0  0  0  0 
  1  3  1  0  0  0  0 
  1  4  1  0  0  0  0 
  1  5  1  0  0  0  0 
  5  6  1  0  0  0  0 
  5  7  1  0  0  0  0 
  5  8  1  0  0  0  0 
  8  9  1  0  0  0  0 
 10  8  1  6  0  0  0 
 10 11  1  1  0  0  0 
 10 12  1  0  0  0  0 
 12 13  2  0  0  0  0 
 13 14  1  0  0  0  0 
 14 15  1  0  0  0  0 
 15 16  2  0  0  0  0 
 12 16  1  0  0  0  0 
 16 17  1  0  0  0  0 
 15 18  1  0  0  0  0 
 18 19  2  0  0  0  0 
 18 20  2  0  0  0  0 
 18 21  1  0  0  0  0 
 21 22  1  0  0  0  0 
 21 23  1  0  0  0  0 
 13 24  1  0  0  0  0 
 24 25  2  0  0  0  0 
 24 26  2  0  0  0  0 
 24 27  1  0  0  0  0 
 27 28  1  6  0  0  0 
 27 29  1  1  0  0  0 
 29 30  1  0  0  0  0 
 29 31  1  0  0  0  0 
 29 32  1  0  0  0  0 
 27 33  1  0  0  0  0 
 10 33  1  0  0  0  0 
 33 34  1  0  0  0  0 
 33 35  1  0  0  0  0 
 35 36  1  0  0  0  0 
M  END
> <Rank>
15

> <Priority_score>
0.08875586909768521

> <Reaction_type>
aliphatic hydroxylation

> <Parent_ID>
25

> <Parent_InChI>
InChI=1S/C10H16N2O4S3/c1-3-12-8-4-6(2)18(13,14)10-7(8)5-9(17-10)19(11,15)16/h5-6,8,12H,3-4H2,1-2H3,(H2,11,15,16)

> <Parent_SMILES>
CCN[C@H]1C[C@H](C)S(=O)(=O)c2sc(S(N)(=O)=O)cc21

$$$$
Molecule 25_metabolite 16
  CDK     0516241031

 36 37  0  0  0  0  0  0  0  0999 V2000
    0.2816    6.1848    0.0000 C   0  0  0  0  0  0  0  0  0  0  0  0
   -0.2316    7.5943    0.0000 H   0  0  0  0  0  0  0  0  0  0  0  0
    1.2459    5.0359    0.0000 H   0  0  0  0  0  0  0  0  0  0  0  0
    1.5806    6.9350    0.0000 H   0  0  0  0  0  0  0  0  0  0  0  0
   -0.6824    5.0357    0.0000 C   0  0  0  0  0  0  0  0  0  0  0  0
   -1.6467    6.1846    0.0000 H   0  0  0  0  0  0  0  0  0  0  0  0
   -1.9814    4.2855    0.0000 H   0  0  0  0  0  0  0  0  0  0  0  0
   -0.0050    3.1751    0.0000 N   0  0  0  0  0  0  0  0  0  0  0  0
    1.4722    2.9148    0.0000 H   0  0  0  0  0  0  0  0  0  0  0  0
   -0.9691    2.0260    0.0000 C   0  0  1  0  0  0  0  0  0  0  0  0
   -1.9331    3.1751    0.0000 H   0  0  0  0  0  0  0  0  0  0  0  0
   -2.2691    1.2760    0.0000 C   0  0  0  0  0  0  0  0  0  0  0  0
   -2.7818    2.6856    0.0000 H   0  0  0  0  0  0  0  0  0  0  0  0
   -3.7463    1.0157    0.0000 H   0  0  0  0  0  0  0  0  0  0  0  0
   -2.2691   -0.1940    0.0000 C   0  0  2  0  0  0  0  0  0  0  0  0
   -3.7448    0.0747    0.0000 H   0  0  0  0  0  0  0  0  0  0  0  0
   -3.1363   -2.4961    0.0000 C   0  0  0  0  0  0  0  0  0  0  0  0
   -4.6164   -2.7400    0.0000 H   0  0  0  0  0  0  0  0  0  0  0  0
   -3.1531   -3.9960    0.0000 H   0  0  0  0  0  0  0  0  0  0  0  0
   -1.1904   -2.8618    0.0000 H   0  0  0  0  0  0  0  0  0  0  0  0
   -0.9691   -0.9740    0.0000 S   0  0  0  0  0  0  0  0  0  0  0  0
   -1.9397   -2.1177    0.0000 O   0  0  0  0  0  0  0  0  0  0  0  0
    0.0015   -2.1177    0.0000 O   0  0  0  0  0  0  0  0  0  0  0  0
    0.3309   -0.1940    0.0000 C   0  0  0  0  0  0  0  0  0  0  0  0
    0.3309    1.2760    0.0000 C   0  0  0  0  0  0  0  0  0  0  0  0
    1.7609    1.7560    0.0000 C   0  0  0  0  0  0  0  0  0  0  0  0
    2.6009    0.5260    0.0000 C   0  0  0  0  0  0  0  0  0  0  0  0
    1.7609   -0.6740    0.0000 S   0  0  0  0  0  0  0  0  0  0  0  0
    4.1009    0.5173    0.0000 S   0  0  0  0  0  0  0  0  0  0  0  0
    5.5134    1.0222    0.0000 O   0  0  0  0  0  0  0  0  0  0  0  0
    3.8489    1.9960    0.0000 O   0  0  0  0  0  0  0  0  0  0  0  0
    4.8434   -0.7860    0.0000 N   0  0  0  0  0  0  0  0  0  0  0  0
    6.3433   -0.7947    0.0000 H   0  0  0  0  0  0  0  0  0  0  0  0
    4.0859   -2.0807    0.0000 H   0  0  0  0  0  0  0  0  0  0  0  0
    2.2383    3.1780    0.0000 O   0  0  0  0  0  0  0  0  0  0  0  0
    3.7085    3.4756    0.0000 H   0  0  0  0  0  0  0  0  0  0  0  0
  1  2  1  0  0  0  0 
  1  3  1  0  0  0  0 
  1  4  1  0  0  0  0 
  1  5  1  0  0  0  0 
  5  6  1  0  0  0  0 
  5  7  1  0  0  0  0 
  5  8  1  0  0  0  0 
  8  9  1  0  0  0  0 
 10  8  1  6  0  0  0 
 10 11  1  1  0  0  0 
 10 12  1  0  0  0  0 
 12 13  1  0  0  0  0 
 12 14  1  0  0  0  0 
 12 15  1  0  0  0  0 
 15 16  1  6  0  0  0 
 15 17  1  1  0  0  0 
 17 18  1  0  0  0  0 
 17 19  1  0  0  0  0 
 17 20  1  0  0  0  0 
 15 21  1  0  0  0  0 
 21 22  2  0  0  0  0 
 21 23  2  0  0  0  0 
 21 24  1  0  0  0  0 
 24 25  2  0  0  0  0 
 10 25  1  0  0  0  0 
 25 26  1  0  0  0  0 
 26 27  2  0  0  0  0 
 27 28  1  0  0  0  0 
 24 28  1  0  0  0  0 
 27 29  1  0  0  0  0 
 29 30  2  0  0  0  0 
 29 31  2  0  0  0  0 
 29 32  1  0  0  0  0 
 32 33  1  0  0  0  0 
 32 34  1  0  0  0  0 
 26 35  1  0  0  0  0 
 35 36  1  0  0  0  0 
M  END
> <Rank>
16

> <Priority_score>
0.084

> <Reaction_type>
aromatic hydroxylation

> <Parent_ID>
25

> <Parent_InChI>
InChI=1S/C10H16N2O4S3/c1-3-12-8-4-6(2)18(13,14)10-7(8)5-9(17-10)19(11,15)16/h5-6,8,12H,3-4H2,1-2H3,(H2,11,15,16)

> <Parent_SMILES>
CCN[C@H]1C[C@H](C)S(=O)(=O)c2sc(S(N)(=O)=O)cc21

$$$$
Molecule 25_metabolite 17
  CDK     0516241031

 36 37  0  0  0  0  0  0  0  0999 V2000
    0.4199    6.5780    0.0000 C   0  0  0  0  0  0  0  0  0  0  0  0
   -0.0932    7.9875    0.0000 H   0  0  0  0  0  0  0  0  0  0  0  0
    1.3842    5.4291    0.0000 H   0  0  0  0  0  0  0  0  0  0  0  0
    1.7189    7.3282    0.0000 H   0  0  0  0  0  0  0  0  0  0  0  0
   -0.5441    5.4289    0.0000 C   0  0  0  0  0  0  0  0  0  0  0  0
   -1.5084    6.5778    0.0000 H   0  0  0  0  0  0  0  0  0  0  0  0
   -1.8431    4.6787    0.0000 H   0  0  0  0  0  0  0  0  0  0  0  0
    0.1333    3.5684    0.0000 N   0  0  0  0  0  0  0  0  0  0  0  0
    1.6105    3.3080    0.0000 H   0  0  0  0  0  0  0  0  0  0  0  0
   -0.8308    2.4192    0.0000 C   0  0  1  0  0  0  0  0  0  0  0  0
   -1.7948    3.5684    0.0000 H   0  0  0  0  0  0  0  0  0  0  0  0
   -2.1308    1.6692    0.0000 C   0  0  0  0  0  0  0  0  0  0  0  0
   -2.6435    3.0788    0.0000 H   0  0  0  0  0  0  0  0  0  0  0  0
   -3.6080    1.4089    0.0000 H   0  0  0  0  0  0  0  0  0  0  0  0
   -2.1308    0.1992    0.0000 C   0  0  2  0  0  0  0  0  0  0  0  0
   -3.6065    0.4679    0.0000 H   0  0  0  0  0  0  0  0  0  0  0  0
   -2.8288   -1.6537    0.0000 C   0  0  0  0  0  0  0  0  0  0  0  0
   -1.8776   -2.8135    0.0000 H   0  0  0  0  0  0  0  0  0  0  0  0
   -3.8058   -2.7919    0.0000 H   0  0  0  0  0  0  0  0  0  0  0  0
   -4.2325   -1.1249    0.0000 H   0  0  0  0  0  0  0  0  0  0  0  0
   -0.8308   -0.5808    0.0000 S   0  0  0  0  0  0  0  0  0  0  0  0
   -2.1361   -1.3199    0.0000 O   0  0  0  0  0  0  0  0  0  0  0  0
   -0.8308   -2.5608    0.0000 O   0  0  0  0  0  0  0  0  0  0  0  0
    0.4745   -1.3199    0.0000 O   0  0  0  0  0  0  0  0  0  0  0  0
    0.4692    0.1992    0.0000 C   0  0  0  0  0  0  0  0  0  0  0  0
    0.4692    1.6692    0.0000 C   0  0  0  0  0  0  0  0  0  0  0  0
    1.8992    2.1492    0.0000 C   0  0  0  0  0  0  0  0  0  0  0  0
    2.3766    3.5712    0.0000 H   0  0  0  0  0  0  0  0  0  0  0  0
    2.7392    0.9192    0.0000 C   0  0  0  0  0  0  0  0  0  0  0  0
    1.8992   -0.2808    0.0000 S   0  0  0  0  0  0  0  0  0  0  0  0
    4.2392    0.9105    0.0000 S   0  0  0  0  0  0  0  0  0  0  0  0
    5.6517    1.4154    0.0000 O   0  0  0  0  0  0  0  0  0  0  0  0
    3.9873    2.3892    0.0000 O   0  0  0  0  0  0  0  0  0  0  0  0
    4.9817   -0.3928    0.0000 N   0  0  0  0  0  0  0  0  0  0  0  0
    6.4817   -0.4015    0.0000 H   0  0  0  0  0  0  0  0  0  0  0  0
    4.2242   -1.6875    0.0000 H   0  0  0  0  0  0  0  0  0  0  0  0
  1  2  1  0  0  0  0 
  1  3  1  0  0  0  0 
  1  4  1  0  0  0  0 
  1  5  1  0  0  0  0 
  5  6  1  0  0  0  0 
  5  7  1  0  0  0  0 
  5  8  1  0  0  0  0 
  8  9  1  0  0  0  0 
 10  8  1  6  0  0  0 
 10 11  1  1  0  0  0 
 10 12  1  0  0  0  0 
 12 13  1  0  0  0  0 
 12 14  1  0  0  0  0 
 12 15  1  0  0  0  0 
 15 16  1  6  0  0  0 
 15 17  1  1  0  0  0 
 17 18  1  0  0  0  0 
 17 19  1  0  0  0  0 
 17 20  1  0  0  0  0 
 15 21  1  0  0  0  0 
 21 22  2  0  0  0  0 
 21 23  2  0  0  0  0 
 21 24  2  0  0  0  0 
 21 25  1  0  0  0  0 
 25 26  2  0  0  0  0 
 10 26  1  0  0  0  0 
 26 27  1  0  0  0  0 
 27 28  1  0  0  0  0 
 27 29  2  0  0  0  0 
 29 30  1  0  0  0  0 
 25 30  1  0  0  0  0 
 29 31  1  0  0  0  0 
 31 32  2  0  0  0  0 
 31 33  2  0  0  0  0 
 31 34  1  0  0  0  0 
 34 35  1  0  0  0  0 
 34 36  1  0  0  0  0 
M  END
> <Rank>
17

> <Priority_score>
0.076

> <Reaction_type>
S-oxidation

> <Parent_ID>
25

> <Parent_InChI>
InChI=1S/C10H16N2O4S3/c1-3-12-8-4-6(2)18(13,14)10-7(8)5-9(17-10)19(11,15)16/h5-6,8,12H,3-4H2,1-2H3,(H2,11,15,16)

> <Parent_SMILES>
CCN[C@H]1C[C@H](C)S(=O)(=O)c2sc(S(N)(=O)=O)cc21

$$$$
Molecule 25_metabolite 18
  CDK     0516241031

 36 37  0  0  0  0  0  0  0  0999 V2000
    0.5563    5.1127    0.0000 C   0  0  0  0  0  0  0  0  0  0  0  0
    0.0431    6.5222    0.0000 H   0  0  0  0  0  0  0  0  0  0  0  0
    1.5206    3.9638    0.0000 H   0  0  0  0  0  0  0  0  0  0  0  0
    1.8552    5.8629    0.0000 H   0  0  0  0  0  0  0  0  0  0  0  0
   -0.4078    3.9636    0.0000 C   0  0  0  0  0  0  0  0  0  0  0  0
   -1.3721    5.1125    0.0000 H   0  0  0  0  0  0  0  0  0  0  0  0
   -1.7068    3.2134    0.0000 H   0  0  0  0  0  0  0  0  0  0  0  0
    0.2696    2.1030    0.0000 N   0  0  0  0  0  0  0  0  0  0  0  0
    1.7468    1.8427    0.0000 H   0  0  0  0  0  0  0  0  0  0  0  0
   -0.6945    0.9539    0.0000 C   0  0  1  0  0  0  0  0  0  0  0  0
   -1.6585    2.1030    0.0000 H   0  0  0  0  0  0  0  0  0  0  0  0
   -1.9945    0.2039    0.0000 C   0  0  0  0  0  0  0  0  0  0  0  0
   -2.5072    1.6135    0.0000 H   0  0  0  0  0  0  0  0  0  0  0  0
   -3.4717   -0.0564    0.0000 H   0  0  0  0  0  0  0  0  0  0  0  0
   -1.9945   -1.2661    0.0000 C   0  0  1  0  0  0  0  0  0  0  0  0
   -3.9424   -0.9114    0.0000 C   0  0  0  0  0  0  0  0  0  0  0  0
   -4.9130   -2.0550    0.0000 H   0  0  0  0  0  0  0  0  0  0  0  0
   -3.2548    0.9454    0.0000 H   0  0  0  0  0  0  0  0  0  0  0  0
   -5.2372   -0.1541    0.0000 H   0  0  0  0  0  0  0  0  0  0  0  0
   -2.5233   -2.6698    0.0000 O   0  0  0  0  0  0  0  0  0  0  0  0
   -4.0033   -2.9137    0.0000 H   0  0  0  0  0  0  0  0  0  0  0  0
   -0.6945   -2.0461    0.0000 S   0  0  0  0  0  0  0  0  0  0  0  0
   -1.6651   -3.1898    0.0000 O   0  0  0  0  0  0  0  0  0  0  0  0
    0.2761   -3.1898    0.0000 O   0  0  0  0  0  0  0  0  0  0  0  0
    0.6055   -1.2661    0.0000 C   0  0  0  0  0  0  0  0  0  0  0  0
    0.6055    0.2039    0.0000 C   0  0  0  0  0  0  0  0  0  0  0  0
    2.0355    0.6839    0.0000 C   0  0  0  0  0  0  0  0  0  0  0  0
    2.5129    2.1059    0.0000 H   0  0  0  0  0  0  0  0  0  0  0  0
    2.8755   -0.5461    0.0000 C   0  0  0  0  0  0  0  0  0  0  0  0
    2.0355   -1.7461    0.0000 S   0  0  0  0  0  0  0  0  0  0  0  0
    4.3755   -0.5548    0.0000 S   0  0  0  0  0  0  0  0  0  0  0  0
    5.7880   -0.0499    0.0000 O   0  0  0  0  0  0  0  0  0  0  0  0
    4.1236    0.9239    0.0000 O   0  0  0  0  0  0  0  0  0  0  0  0
    5.1180   -1.8581    0.0000 N   0  0  0  0  0  0  0  0  0  0  0  0
    6.6180   -1.8668    0.0000 H   0  0  0  0  0  0  0  0  0  0  0  0
    4.3605   -3.1528    0.0000 H   0  0  0  0  0  0  0  0  0  0  0  0
  1  2  1  0  0  0  0 
  1  3  1  0  0  0  0 
  1  4  1  0  0  0  0 
  1  5  1  0  0  0  0 
  5  6  1  0  0  0  0 
  5  7  1  0  0  0  0 
  5  8  1  0  0  0  0 
  8  9  1  0  0  0  0 
 10  8  1  6  0  0  0 
 10 11  1  1  0  0  0 
 10 12  1  0  0  0  0 
 12 13  1  0  0  0  0 
 12 14  1  0  0  0  0 
 12 15  1  0  0  0  0 
 15 16  1  0  0  0  0 
 16 17  1  0  0  0  0 
 16 18  1  0  0  0  0 
 16 19  1  0  0  0  0 
 15 20  1  6  0  0  0 
 20 21  1  0  0  0  0 
 15 22  1  1  0  0  0 
 22 23  2  0  0  0  0 
 22 24  2  0  0  0  0 
 22 25  1  0  0  0  0 
 25 26  2  0  0  0  0 
 10 26  1  0  0  0  0 
 26 27  1  0  0  0  0 
 27 28  1  0  0  0  0 
 27 29  2  0  0  0  0 
 29 30  1  0  0  0  0 
 25 30  1  0  0  0  0 
 29 31  1  0  0  0  0 
 31 32  2  0  0  0  0 
 31 33  2  0  0  0  0 
 31 34  1  0  0  0  0 
 34 35  1  0  0  0  0 
 34 36  1  0  0  0  0 
M  END
> <Rank>
18

> <Priority_score>
0.0626713532513181

> <Reaction_type>
aliphatic hydroxylation

> <Parent_ID>
25

> <Parent_InChI>
InChI=1S/C10H16N2O4S3/c1-3-12-8-4-6(2)18(13,14)10-7(8)5-9(17-10)19(11,15)16/h5-6,8,12H,3-4H2,1-2H3,(H2,11,15,16)

> <Parent_SMILES>
CCN[C@H]1C[C@H](C)S(=O)(=O)c2sc(S(N)(=O)=O)cc21

$$$$
Molecule 25_metabolite 19
  CDK     0516241031

 33 34  0  0  0  0  0  0  0  0999 V2000
    0.2924    6.0257    0.0000 C   0  0  0  0  0  0  0  0  0  0  0  0
   -0.2208    7.4351    0.0000 H   0  0  0  0  0  0  0  0  0  0  0  0
    1.2567    4.8767    0.0000 H   0  0  0  0  0  0  0  0  0  0  0  0
    1.5914    6.7758    0.0000 H   0  0  0  0  0  0  0  0  0  0  0  0
   -0.6716    4.8765    0.0000 C   0  0  0  0  0  0  0  0  0  0  0  0
   -2.1489    5.1368    0.0000 H   0  0  0  0  0  0  0  0  0  0  0  0
   -0.1585    3.4670    0.0000 N   0  0  0  0  0  0  0  0  0  0  0  0
   -1.1225    2.3178    0.0000 C   0  0  1  0  0  0  0  0  0  0  0  0
   -2.0866    3.4670    0.0000 H   0  0  0  0  0  0  0  0  0  0  0  0
   -2.4225    1.5678    0.0000 C   0  0  0  0  0  0  0  0  0  0  0  0
   -2.9353    2.9775    0.0000 H   0  0  0  0  0  0  0  0  0  0  0  0
   -3.8998    1.3075    0.0000 H   0  0  0  0  0  0  0  0  0  0  0  0
   -2.4225    0.0978    0.0000 C   0  0  2  0  0  0  0  0  0  0  0  0
   -3.8983    0.3666    0.0000 H   0  0  0  0  0  0  0  0  0  0  0  0
   -3.1205   -1.7551    0.0000 C   0  0  0  0  0  0  0  0  0  0  0  0
   -4.6006   -1.9989    0.0000 H   0  0  0  0  0  0  0  0  0  0  0  0
   -3.1374   -3.2550    0.0000 H   0  0  0  0  0  0  0  0  0  0  0  0
   -1.1746   -2.1207    0.0000 H   0  0  0  0  0  0  0  0  0  0  0  0
   -1.1225   -0.6822    0.0000 S   0  0  0  0  0  0  0  0  0  0  0  0
   -2.0931   -1.8258    0.0000 O   0  0  0  0  0  0  0  0  0  0  0  0
   -0.1519   -1.8258    0.0000 O   0  0  0  0  0  0  0  0  0  0  0  0
    0.1775    0.0978    0.0000 C   0  0  0  0  0  0  0  0  0  0  0  0
    0.1775    1.5678    0.0000 C   0  0  0  0  0  0  0  0  0  0  0  0
    1.6175    2.0578    0.0000 C   0  0  0  0  0  0  0  0  0  0  0  0
    2.0946    3.4799    0.0000 H   0  0  0  0  0  0  0  0  0  0  0  0
    2.4575    0.8178    0.0000 C   0  0  0  0  0  0  0  0  0  0  0  0
    1.6175   -0.3922    0.0000 S   0  0  0  0  0  0  0  0  0  0  0  0
    3.9574    0.8093    0.0000 S   0  0  0  0  0  0  0  0  0  0  0  0
    5.3699    1.3142    0.0000 O   0  0  0  0  0  0  0  0  0  0  0  0
    3.7054    2.2879    0.0000 O   0  0  0  0  0  0  0  0  0  0  0  0
    4.7000   -0.4940    0.0000 N   0  0  0  0  0  0  0  0  0  0  0  0
    6.2000   -0.5026    0.0000 H   0  0  0  0  0  0  0  0  0  0  0  0
    3.9426   -1.7888    0.0000 H   0  0  0  0  0  0  0  0  0  0  0  0
  1  2  1  0  0  0  0 
  1  3  1  0  0  0  0 
  1  4  1  0  0  0  0 
  1  5  1  0  0  0  0 
  5  6  1  4  0  0  0 
  5  7  2  0  0  0  0 
  8  7  1  6  0  0  0 
  8  9  1  1  0  0  0 
  8 10  1  0  0  0  0 
 10 11  1  0  0  0  0 
 10 12  1  0  0  0  0 
 10 13  1  0  0  0  0 
 13 14  1  6  0  0  0 
 13 15  1  1  0  0  0 
 15 16  1  0  0  0  0 
 15 17  1  0  0  0  0 
 15 18  1  0  0  0  0 
 13 19  1  0  0  0  0 
 19 20  2  0  0  0  0 
 19 21  2  0  0  0  0 
 19 22  1  0  0  0  0 
 22 23  2  0  0  0  0 
  8 23  1  0  0  0  0 
 23 24  1  0  0  0  0 
 24 25  1  0  0  0  0 
 24 26  2  0  0  0  0 
 26 27  1  0  0  0  0 
 22 27  1  0  0  0  0 
 26 28  1  0  0  0  0 
 28 29  2  0  0  0  0 
 28 30  2  0  0  0  0 
 28 31  1  0  0  0  0 
 31 32  1  0  0  0  0 
 31 33  1  0  0  0  0 
M  END
> <Rank>
19

> <Priority_score>
0.0488

> <Reaction_type>
dehydration of N-C bond

> <Parent_ID>
25

> <Parent_InChI>
InChI=1S/C10H16N2O4S3/c1-3-12-8-4-6(2)18(13,14)10-7(8)5-9(17-10)19(11,15)16/h5-6,8,12H,3-4H2,1-2H3,(H2,11,15,16)

> <Parent_SMILES>
CCN[C@H]1C[C@H](C)S(=O)(=O)c2sc(S(N)(=O)=O)cc21

$$$$
Molecule 25_metabolite 20
  CDK     0516241031

 34 35  0  0  0  0  0  0  0  0999 V2000
    0.9334    6.3862    0.0000 C   0  0  0  0  0  0  0  0  0  0  0  0
    0.4202    7.7957    0.0000 H   0  0  0  0  0  0  0  0  0  0  0  0
    1.8977    5.2372    0.0000 H   0  0  0  0  0  0  0  0  0  0  0  0
    2.2323    7.1363    0.0000 H   0  0  0  0  0  0  0  0  0  0  0  0
   -0.0307    5.2370    0.0000 C   0  0  0  0  0  0  0  0  0  0  0  0
   -1.5079    5.4973    0.0000 H   0  0  0  0  0  0  0  0  0  0  0  0
    0.4825    3.8275    0.0000 N   0  0  0  0  0  0  0  0  0  0  0  0
    1.9597    3.5672    0.0000 H   0  0  0  0  0  0  0  0  0  0  0  0
   -0.4816    2.6784    0.0000 C   0  0  1  0  0  0  0  0  0  0  0  0
   -1.4456    3.8275    0.0000 H   0  0  0  0  0  0  0  0  0  0  0  0
   -1.7816    1.9284    0.0000 C   0  0  0  0  0  0  0  0  0  0  0  0
   -2.2943    3.3380    0.0000 H   0  0  0  0  0  0  0  0  0  0  0  0
   -3.2588    1.6681    0.0000 H   0  0  0  0  0  0  0  0  0  0  0  0
   -1.7816    0.4584    0.0000 C   0  0  2  0  0  0  0  0  0  0  0  0
   -3.2573    0.7271    0.0000 H   0  0  0  0  0  0  0  0  0  0  0  0
   -2.6488   -1.8437    0.0000 C   0  0  0  0  0  0  0  0  0  0  0  0
   -4.1288   -2.0876    0.0000 H   0  0  0  0  0  0  0  0  0  0  0  0
   -2.6656   -3.3436    0.0000 H   0  0  0  0  0  0  0  0  0  0  0  0
   -1.1746   -2.1207    0.0000 H   0  0  0  0  0  0  0  0  0  0  0  0
   -0.4816   -0.3216    0.0000 S   0  0  0  0  0  0  0  0  0  0  0  0
   -1.7848   -1.0643    0.0000 O   0  0  0  0  0  0  0  0  0  0  0  0
    0.4890   -1.4653    0.0000 O   0  0  0  0  0  0  0  0  0  0  0  0
    0.8184    0.4584    0.0000 C   0  0  0  0  0  0  0  0  0  0  0  0
    0.8184    1.9284    0.0000 C   0  0  0  0  0  0  0  0  0  0  0  0
    2.2584    2.4184    0.0000 C   0  0  0  0  0  0  0  0  0  0  0  0
    2.7355    3.8405    0.0000 H   0  0  0  0  0  0  0  0  0  0  0  0
    3.0984    1.1784    0.0000 C   0  0  0  0  0  0  0  0  0  0  0  0
    2.2584   -0.0316    0.0000 S   0  0  0  0  0  0  0  0  0  0  0  0
    4.5984    1.1698    0.0000 S   0  0  0  0  0  0  0  0  0  0  0  0
    6.0109    1.6748    0.0000 O   0  0  0  0  0  0  0  0  0  0  0  0
    4.3464    2.6485    0.0000 O   0  0  0  0  0  0  0  0  0  0  0  0
    5.3410   -0.1335    0.0000 N   0  0  0  0  0  0  0  0  0  0  0  0
    6.8410   -0.1421    0.0000 H   0  0  0  0  0  0  0  0  0  0  0  0
    4.5836   -1.4282    0.0000 H   0  0  0  0  0  0  0  0  0  0  0  0
  1  2  1  0  0  0  0 
  1  3  1  0  0  0  0 
  1  4  1  0  0  0  0 
  1  5  1  0  0  0  0 
  5  6  1  4  0  0  0 
  5  7  2  0  0  0  0 
  7  8  1  0  0  0  0 
  9  7  1  6  0  0  0 
  9 10  1  1  0  0  0 
  9 11  1  0  0  0  0 
 11 12  1  0  0  0  0 
 11 13  1  0  0  0  0 
 11 14  1  0  0  0  0 
 14 15  1  6  0  0  0 
 14 16  1  1  0  0  0 
 16 17  1  0  0  0  0 
 16 18  1  0  0  0  0 
 16 19  1  0  0  0  0 
 14 20  1  0  0  0  0 
 20 21  2  0  0  0  0 
 20 22  2  0  0  0  0 
 20 23  1  0  0  0  0 
 23 24  2  0  0  0  0 
  9 24  1  0  0  0  0 
 24 25  1  0  0  0  0 
 25 26  1  0  0  0  0 
 25 27  2  0  0  0  0 
 27 28  1  0  0  0  0 
 23 28  1  0  0  0  0 
 27 29  1  0  0  0  0 
 29 30  2  0  0  0  0 
 29 31  2  0  0  0  0 
 29 32  1  0  0  0  0 
 32 33  1  0  0  0  0 
 32 34  1  0  0  0  0 
M  CHG  1   7   1
M  END
> <Rank>
19

> <Priority_score>
0.0488

> <Reaction_type>
dehydration of N-C bond

> <Parent_ID>
25

> <Parent_InChI>
InChI=1S/C10H16N2O4S3/c1-3-12-8-4-6(2)18(13,14)10-7(8)5-9(17-10)19(11,15)16/h5-6,8,12H,3-4H2,1-2H3,(H2,11,15,16)

> <Parent_SMILES>
CCN[C@H]1C[C@H](C)S(=O)(=O)c2sc(S(N)(=O)=O)cc21

$$$$
Molecule 25_metabolite 21
  CDK     0516241031

 33 34  0  0  0  0  0  0  0  0999 V2000
    0.2924    6.0257    0.0000 C   0  0  0  0  0  0  0  0  0  0  0  0
   -0.2208    7.4351    0.0000 H   0  0  0  0  0  0  0  0  0  0  0  0
    1.7696    5.7653    0.0000 H   0  0  0  0  0  0  0  0  0  0  0  0
   -0.6716    4.8765    0.0000 C   0  0  0  0  0  0  0  0  0  0  0  0
   -2.1489    5.1368    0.0000 H   0  0  0  0  0  0  0  0  0  0  0  0
   -0.1585    3.4670    0.0000 N   0  0  0  0  0  0  0  0  0  0  0  0
    1.3188    3.2067    0.0000 H   0  0  0  0  0  0  0  0  0  0  0  0
   -1.1225    2.3178    0.0000 C   0  0  1  0  0  0  0  0  0  0  0  0
   -2.0866    3.4670    0.0000 H   0  0  0  0  0  0  0  0  0  0  0  0
   -2.4225    1.5678    0.0000 C   0  0  0  0  0  0  0  0  0  0  0  0
   -2.9353    2.9775    0.0000 H   0  0  0  0  0  0  0  0  0  0  0  0
   -3.8998    1.3075    0.0000 H   0  0  0  0  0  0  0  0  0  0  0  0
   -2.4225    0.0978    0.0000 C   0  0  2  0  0  0  0  0  0  0  0  0
   -3.8983    0.3666    0.0000 H   0  0  0  0  0  0  0  0  0  0  0  0
   -3.1205   -1.7551    0.0000 C   0  0  0  0  0  0  0  0  0  0  0  0
   -4.6006   -1.9989    0.0000 H   0  0  0  0  0  0  0  0  0  0  0  0
   -3.1374   -3.2550    0.0000 H   0  0  0  0  0  0  0  0  0  0  0  0
   -1.1746   -2.1207    0.0000 H   0  0  0  0  0  0  0  0  0  0  0  0
   -1.1225   -0.6822    0.0000 S   0  0  0  0  0  0  0  0  0  0  0  0
   -2.0931   -1.8258    0.0000 O   0  0  0  0  0  0  0  0  0  0  0  0
   -0.1519   -1.8258    0.0000 O   0  0  0  0  0  0  0  0  0  0  0  0
    0.1775    0.0978    0.0000 C   0  0  0  0  0  0  0  0  0  0  0  0
    0.1775    1.5678    0.0000 C   0  0  0  0  0  0  0  0  0  0  0  0
    1.6175    2.0578    0.0000 C   0  0  0  0  0  0  0  0  0  0  0  0
    2.0946    3.4799    0.0000 H   0  0  0  0  0  0  0  0  0  0  0  0
    2.4575    0.8178    0.0000 C   0  0  0  0  0  0  0  0  0  0  0  0
    1.6175   -0.3922    0.0000 S   0  0  0  0  0  0  0  0  0  0  0  0
    3.9574    0.8093    0.0000 S   0  0  0  0  0  0  0  0  0  0  0  0
    5.3699    1.3142    0.0000 O   0  0  0  0  0  0  0  0  0  0  0  0
    3.7054    2.2879    0.0000 O   0  0  0  0  0  0  0  0  0  0  0  0
    4.7000   -0.4940    0.0000 N   0  0  0  0  0  0  0  0  0  0  0  0
    6.2000   -0.5026    0.0000 H   0  0  0  0  0  0  0  0  0  0  0  0
    3.9426   -1.7888    0.0000 H   0  0  0  0  0  0  0  0  0  0  0  0
  1  2  1  0  0  0  0 
  1  3  1  0  0  0  0 
  1  4  2  0  0  0  0 
  4  5  1  0  0  0  0 
  4  6  1  0  0  0  0 
  6  7  1  0  0  0  0 
  8  6  1  6  0  0  0 
  8  9  1  1  0  0  0 
  8 10  1  0  0  0  0 
 10 11  1  0  0  0  0 
 10 12  1  0  0  0  0 
 10 13  1  0  0  0  0 
 13 14  1  6  0  0  0 
 13 15  1  1  0  0  0 
 15 16  1  0  0  0  0 
 15 17  1  0  0  0  0 
 15 18  1  0  0  0  0 
 13 19  1  0  0  0  0 
 19 20  2  0  0  0  0 
 19 21  2  0  0  0  0 
 19 22  1  0  0  0  0 
 22 23  2  0  0  0  0 
  8 23  1  0  0  0  0 
 23 24  1  0  0  0  0 
 24 25  1  0  0  0  0 
 24 26  2  0  0  0  0 
 26 27  1  0  0  0  0 
 22 27  1  0  0  0  0 
 26 28  1  0  0  0  0 
 28 29  2  0  0  0  0 
 28 30  2  0  0  0  0 
 28 31  1  0  0  0  0 
 31 32  1  0  0  0  0 
 31 33  1  0  0  0  0 
M  END
> <Rank>
19

> <Priority_score>
0.0488

> <Reaction_type>
alkyl dehydrogenation

> <Parent_ID>
25

> <Parent_InChI>
InChI=1S/C10H16N2O4S3/c1-3-12-8-4-6(2)18(13,14)10-7(8)5-9(17-10)19(11,15)16/h5-6,8,12H,3-4H2,1-2H3,(H2,11,15,16)

> <Parent_SMILES>
CCN[C@H]1C[C@H](C)S(=O)(=O)c2sc(S(N)(=O)=O)cc21

$$$$
Molecule 25_metabolite 22
  CDK     0516241031

 33 34  0  0  0  0  0  0  0  0999 V2000
    0.5949    5.4878    0.0000 C   0  0  0  0  0  0  0  0  0  0  0  0
    0.0818    6.8973    0.0000 H   0  0  0  0  0  0  0  0  0  0  0  0
    1.5592    4.3389    0.0000 H   0  0  0  0  0  0  0  0  0  0  0  0
    1.8939    6.2380    0.0000 H   0  0  0  0  0  0  0  0  0  0  0  0
   -0.3691    4.3387    0.0000 C   0  0  0  0  0  0  0  0  0  0  0  0
   -1.3334    5.4876    0.0000 H   0  0  0  0  0  0  0  0  0  0  0  0
   -1.6681    3.5885    0.0000 H   0  0  0  0  0  0  0  0  0  0  0  0
    0.3083    2.4781    0.0000 N   0  0  0  0  0  0  0  0  0  0  0  0
    1.7855    2.2178    0.0000 H   0  0  0  0  0  0  0  0  0  0  0  0
   -0.6558    1.3290    0.0000 C   0  0  1  0  0  0  0  0  0  0  0  0
   -1.6198    2.4781    0.0000 H   0  0  0  0  0  0  0  0  0  0  0  0
   -1.9558    0.5790    0.0000 C   0  0  0  0  0  0  0  0  0  0  0  0
   -2.4685    1.9886    0.0000 H   0  0  0  0  0  0  0  0  0  0  0  0
   -3.4330    0.3187    0.0000 H   0  0  0  0  0  0  0  0  0  0  0  0
   -1.9558   -0.8910    0.0000 C   0  0  0  0  0  0  0  0  0  0  0  0
   -3.2611   -1.6301    0.0000 C   0  0  0  0  0  0  0  0  0  0  0  0
   -3.2737   -3.1300    0.0000 H   0  0  0  0  0  0  0  0  0  0  0  0
   -4.5538   -0.8692    0.0000 H   0  0  0  0  0  0  0  0  0  0  0  0
   -0.6558   -1.6710    0.0000 S   0  0  0  0  0  0  0  0  0  0  0  0
   -1.6264   -2.8147    0.0000 O   0  0  0  0  0  0  0  0  0  0  0  0
    0.3148   -2.8147    0.0000 O   0  0  0  0  0  0  0  0  0  0  0  0
    0.6442   -0.8910    0.0000 C   0  0  0  0  0  0  0  0  0  0  0  0
    0.6442    0.5790    0.0000 C   0  0  0  0  0  0  0  0  0  0  0  0
    2.0842    1.0690    0.0000 C   0  0  0  0  0  0  0  0  0  0  0  0
    2.5613    2.4911    0.0000 H   0  0  0  0  0  0  0  0  0  0  0  0
    2.9242   -0.1710    0.0000 C   0  0  0  0  0  0  0  0  0  0  0  0
    2.0842   -1.3810    0.0000 S   0  0  0  0  0  0  0  0  0  0  0  0
    4.4242   -0.1796    0.0000 S   0  0  0  0  0  0  0  0  0  0  0  0
    5.8366    0.3254    0.0000 O   0  0  0  0  0  0  0  0  0  0  0  0
    4.1722    1.2991    0.0000 O   0  0  0  0  0  0  0  0  0  0  0  0
    5.1668   -1.4829    0.0000 N   0  0  0  0  0  0  0  0  0  0  0  0
    6.6667   -1.4915    0.0000 H   0  0  0  0  0  0  0  0  0  0  0  0
    4.4094   -2.7776    0.0000 H   0  0  0  0  0  0  0  0  0  0  0  0
  1  2  1  0  0  0  0 
  1  3  1  0  0  0  0 
  1  4  1  0  0  0  0 
  1  5  1  0  0  0  0 
  5  6  1  0  0  0  0 
  5  7  1  0  0  0  0 
  5  8  1  0  0  0  0 
  8  9  1  0  0  0  0 
 10  8  1  6  0  0  0 
 10 11  1  1  0  0  0 
 10 12  1  0  0  0  0 
 12 13  1  0  0  0  0 
 12 14  1  0  0  0  0 
 12 15  1  0  0  0  0 
 15 16  2  0  0  0  0 
 16 17  1  0  0  0  0 
 16 18  1  0  0  0  0 
 15 19  1  0  0  0  0 
 19 20  2  0  0  0  0 
 19 21  2  0  0  0  0 
 19 22  1  0  0  0  0 
 22 23  2  0  0  0  0 
 10 23  1  0  0  0  0 
 23 24  1  0  0  0  0 
 24 25  1  0  0  0  0 
 24 26  2  0  0  0  0 
 26 27  1  0  0  0  0 
 22 27  1  0  0  0  0 
 26 28  1  0  0  0  0 
 28 29  2  0  0  0  0 
 28 30  2  0  0  0  0 
 28 31  1  0  0  0  0 
 31 32  1  0  0  0  0 
 31 33  1  0  0  0  0 
M  END
> <Rank>
22

> <Priority_score>
0.044000000000000004

> <Reaction_type>
alkyl dehydrogenation

> <Parent_ID>
25

> <Parent_InChI>
InChI=1S/C10H16N2O4S3/c1-3-12-8-4-6(2)18(13,14)10-7(8)5-9(17-10)19(11,15)16/h5-6,8,12H,3-4H2,1-2H3,(H2,11,15,16)

> <Parent_SMILES>
CCN[C@H]1C[C@H](C)S(=O)(=O)c2sc(S(N)(=O)=O)cc21

$$$$
Molecule 25_metabolite 23
  CDK     0516241031

 34 35  0  0  0  0  0  0  0  0999 V2000
   -2.7361    5.5231    0.0000 C   0  0  0  0  0  0  0  0  0  0  0  0
   -1.4370    6.2731    0.0000 H   0  0  0  0  0  0  0  0  0  0  0  0
   -4.2133    5.2626    0.0000 H   0  0  0  0  0  0  0  0  0  0  0  0
   -3.2491    6.9326    0.0000 H   0  0  0  0  0  0  0  0  0  0  0  0
   -2.7361    4.0231    0.0000 C   0  0  0  0  0  0  0  0  0  0  0  0
   -4.2133    4.2836    0.0000 H   0  0  0  0  0  0  0  0  0  0  0  0
   -3.2491    2.6135    0.0000 H   0  0  0  0  0  0  0  0  0  0  0  0
   -1.4370    3.2731    0.0000 N   0  0  0  0  0  0  0  0  0  0  0  0
   -1.4370    1.7731    0.0000 H   0  0  0  0  0  0  0  0  0  0  0  0
   -0.1380    4.0231    0.0000 C   0  0  0  0  0  0  0  0  0  0  0  0
   -0.1385    5.5239    0.0000 C   0  0  0  0  0  0  0  0  0  0  0  0
   -1.6156    5.2631    0.0000 H   0  0  0  0  0  0  0  0  0  0  0  0
   -0.6517    6.9334    0.0000 H   0  0  0  0  0  0  0  0  0  0  0  0
    1.1346    6.2589    0.0000 C   0  0  2  0  0  0  0  0  0  0  0  0
    0.1640    7.4026    0.0000 H   0  0  0  0  0  0  0  0  0  0  0  0
    2.3902    7.7899    0.0000 C   0  0  0  0  0  0  0  0  0  0  0  0
    1.8614    9.1936    0.0000 H   0  0  0  0  0  0  0  0  0  0  0  0
    3.6808    8.5544    0.0000 H   0  0  0  0  0  0  0  0  0  0  0  0
    3.6799    6.2875    0.0000 H   0  0  0  0  0  0  0  0  0  0  0  0
    2.4601    5.5231    0.0000 S   0  0  0  0  0  0  0  0  0  0  0  0
    2.9652    6.9355    0.0000 O   0  0  0  0  0  0  0  0  0  0  0  0
    3.9358    5.2543    0.0000 O   0  0  0  0  0  0  0  0  0  0  0  0
    2.4346    4.0072    0.0000 C   0  0  0  0  0  0  0  0  0  0  0  0
    1.1615    3.2722    0.0000 C   0  0  0  0  0  0  0  0  0  0  0  0
    1.4572    1.7802    0.0000 C   0  0  0  0  0  0  0  0  0  0  0  0
    0.4642    0.6559    0.0000 H   0  0  0  0  0  0  0  0  0  0  0  0
    2.9510    1.6727    0.0000 C   0  0  0  0  0  0  0  0  0  0  0  0
    3.5789    3.0052    0.0000 S   0  0  0  0  0  0  0  0  0  0  0  0
    3.7084    0.3780    0.0000 S   0  0  0  0  0  0  0  0  0  0  0  0
    3.9774   -1.0977    0.0000 O   0  0  0  0  0  0  0  0  0  0  0  0
    2.3019   -0.1431    0.0000 O   0  0  0  0  0  0  0  0  0  0  0  0
    5.2084    0.3865    0.0000 N   0  0  0  0  0  0  0  0  0  0  0  0
    5.9658   -0.9082    0.0000 H   0  0  0  0  0  0  0  0  0  0  0  0
    5.9510    1.6898    0.0000 H   0  0  0  0  0  0  0  0  0  0  0  0
  1  2  1  0  0  0  0 
  1  3  1  0  0  0  0 
  1  4  1  0  0  0  0 
  1  5  1  0  0  0  0 
  5  6  1  0  0  0  0 
  5  7  1  0  0  0  0 
  5  8  1  0  0  0  0 
  8  9  1  4  0  0  0 
  8 10  2  0  0  0  0 
 10 11  1  0  0  0  0 
 11 12  1  0  0  0  0 
 11 13  1  0  0  0  0 
 11 14  1  0  0  0  0 
 14 15  1  1  0  0  0 
 14 16  1  6  0  0  0 
 16 17  1  0  0  0  0 
 16 18  1  0  0  0  0 
 16 19  1  0  0  0  0 
 14 20  1  0  0  0  0 
 20 21  2  0  0  0  0 
 20 22  2  0  0  0  0 
 20 23  1  0  0  0  0 
 23 24  2  0  0  0  0 
 10 24  1  0  0  0  0 
 24 25  1  0  0  0  0 
 25 26  1  0  0  0  0 
 25 27  2  0  0  0  0 
 27 28  1  0  0  0  0 
 23 28  1  0  0  0  0 
 27 29  1  0  0  0  0 
 29 30  2  0  0  0  0 
 29 31  2  0  0  0  0 
 29 32  1  0  0  0  0 
 32 33  1  0  0  0  0 
 32 34  1  0  0  0  0 
M  CHG  1   8   1
M  END
> <Rank>
23

> <Priority_score>
0.038311527208894094

> <Reaction_type>
dehydration of N-C bond

> <Parent_ID>
25

> <Parent_InChI>
InChI=1S/C10H16N2O4S3/c1-3-12-8-4-6(2)18(13,14)10-7(8)5-9(17-10)19(11,15)16/h5-6,8,12H,3-4H2,1-2H3,(H2,11,15,16)

> <Parent_SMILES>
CCN[C@H]1C[C@H](C)S(=O)(=O)c2sc(S(N)(=O)=O)cc21

$$$$
Molecule 25_metabolite 24
  CDK     0516241031

 33 34  0  0  0  0  0  0  0  0999 V2000
   -2.4216    6.0678    0.0000 C   0  0  0  0  0  0  0  0  0  0  0  0
   -3.7206    6.8178    0.0000 H   0  0  0  0  0  0  0  0  0  0  0  0
   -0.9444    5.8074    0.0000 H   0  0  0  0  0  0  0  0  0  0  0  0
   -1.9085    7.4774    0.0000 H   0  0  0  0  0  0  0  0  0  0  0  0
   -2.4216    4.5678    0.0000 C   0  0  0  0  0  0  0  0  0  0  0  0
   -3.8988    4.8283    0.0000 H   0  0  0  0  0  0  0  0  0  0  0  0
   -2.9346    3.1583    0.0000 H   0  0  0  0  0  0  0  0  0  0  0  0
   -1.1225    3.8178    0.0000 N   0  0  0  0  0  0  0  0  0  0  0  0
    0.1765    4.5678    0.0000 H   0  0  0  0  0  0  0  0  0  0  0  0
   -1.1225    2.3178    0.0000 C   0  0  0  0  0  0  0  0  0  0  0  0
   -2.4225    1.5678    0.0000 C   0  0  0  0  0  0  0  0  0  0  0  0
   -3.7214    2.3180    0.0000 H   0  0  0  0  0  0  0  0  0  0  0  0
   -2.4225    0.0978    0.0000 C   0  0  2  0  0  0  0  0  0  0  0  0
   -3.8983    0.3666    0.0000 H   0  0  0  0  0  0  0  0  0  0  0  0
   -3.1205   -1.7551    0.0000 C   0  0  0  0  0  0  0  0  0  0  0  0
   -4.6006   -1.9989    0.0000 H   0  0  0  0  0  0  0  0  0  0  0  0
   -3.1374   -3.2550    0.0000 H   0  0  0  0  0  0  0  0  0  0  0  0
   -1.1746   -2.1207    0.0000 H   0  0  0  0  0  0  0  0  0  0  0  0
   -1.1225   -0.6822    0.0000 S   0  0  0  0  0  0  0  0  0  0  0  0
   -2.0931   -1.8258    0.0000 O   0  0  0  0  0  0  0  0  0  0  0  0
   -0.1519   -1.8258    0.0000 O   0  0  0  0  0  0  0  0  0  0  0  0
    0.1775    0.0978    0.0000 C   0  0  0  0  0  0  0  0  0  0  0  0
    0.1775    1.5678    0.0000 C   0  0  0  0  0  0  0  0  0  0  0  0
    1.6175    2.0578    0.0000 C   0  0  0  0  0  0  0  0  0  0  0  0
    2.0946    3.4799    0.0000 H   0  0  0  0  0  0  0  0  0  0  0  0
    2.4575    0.8178    0.0000 C   0  0  0  0  0  0  0  0  0  0  0  0
    1.6175   -0.3922    0.0000 S   0  0  0  0  0  0  0  0  0  0  0  0
    3.9574    0.8093    0.0000 S   0  0  0  0  0  0  0  0  0  0  0  0
    5.3699    1.3142    0.0000 O   0  0  0  0  0  0  0  0  0  0  0  0
    3.7054    2.2879    0.0000 O   0  0  0  0  0  0  0  0  0  0  0  0
    4.7000   -0.4940    0.0000 N   0  0  0  0  0  0  0  0  0  0  0  0
    6.2000   -0.5026    0.0000 H   0  0  0  0  0  0  0  0  0  0  0  0
    3.9426   -1.7888    0.0000 H   0  0  0  0  0  0  0  0  0  0  0  0
  1  2  1  0  0  0  0 
  1  3  1  0  0  0  0 
  1  4  1  0  0  0  0 
  1  5  1  0  0  0  0 
  5  6  1  0  0  0  0 
  5  7  1  0  0  0  0 
  5  8  1  0  0  0  0 
  8  9  1  0  0  0  0 
  8 10  1  0  0  0  0 
 10 11  2  0  0  0  0 
 11 12  1  0  0  0  0 
 13 11  1  1  0  0  0 
 13 14  1  6  0  0  0 
 13 15  1  0  0  0  0 
 15 16  1  0  0  0  0 
 15 17  1  0  0  0  0 
 15 18  1  0  0  0  0 
 13 19  1  0  0  0  0 
 19 20  2  0  0  0  0 
 19 21  2  0  0  0  0 
 19 22  1  0  0  0  0 
 22 23  2  0  0  0  0 
 10 23  1  0  0  0  0 
 23 24  1  0  0  0  0 
 24 25  1  0  0  0  0 
 24 26  2  0  0  0  0 
 26 27  1  0  0  0  0 
 22 27  1  0  0  0  0 
 26 28  1  0  0  0  0 
 28 29  2  0  0  0  0 
 28 30  2  0  0  0  0 
 28 31  1  0  0  0  0 
 31 32  1  0  0  0  0 
 31 33  1  0  0  0  0 
M  END
> <Rank>
23

> <Priority_score>
0.038311527208894094

> <Reaction_type>
alkyl dehydrogenation

> <Parent_ID>
25

> <Parent_InChI>
InChI=1S/C10H16N2O4S3/c1-3-12-8-4-6(2)18(13,14)10-7(8)5-9(17-10)19(11,15)16/h5-6,8,12H,3-4H2,1-2H3,(H2,11,15,16)

> <Parent_SMILES>
CCN[C@H]1C[C@H](C)S(=O)(=O)c2sc(S(N)(=O)=O)cc21

$$$$
Molecule 25_metabolite 25
  CDK     0516241031

 33 34  0  0  0  0  0  0  0  0999 V2000
    0.4307    5.9389    0.0000 C   0  0  0  0  0  0  0  0  0  0  0  0
   -0.0825    7.3483    0.0000 H   0  0  0  0  0  0  0  0  0  0  0  0
    1.3950    4.7899    0.0000 H   0  0  0  0  0  0  0  0  0  0  0  0
    1.7297    6.6890    0.0000 H   0  0  0  0  0  0  0  0  0  0  0  0
   -0.5333    4.7897    0.0000 C   0  0  0  0  0  0  0  0  0  0  0  0
   -1.4976    5.9387    0.0000 H   0  0  0  0  0  0  0  0  0  0  0  0
   -1.8323    4.0395    0.0000 H   0  0  0  0  0  0  0  0  0  0  0  0
    0.1441    2.9292    0.0000 N   0  0  0  0  0  0  0  0  0  0  0  0
    1.6213    2.6689    0.0000 H   0  0  0  0  0  0  0  0  0  0  0  0
   -0.8200    1.7800    0.0000 C   0  0  1  0  0  0  0  0  0  0  0  0
   -1.7841    2.9292    0.0000 H   0  0  0  0  0  0  0  0  0  0  0  0
   -2.1200    1.0300    0.0000 C   0  0  0  0  0  0  0  0  0  0  0  0
   -3.4189    1.7802    0.0000 H   0  0  0  0  0  0  0  0  0  0  0  0
   -2.1200   -0.4400    0.0000 C   0  0  0  0  0  0  0  0  0  0  0  0
   -3.4253   -1.1790    0.0000 C   0  0  0  0  0  0  0  0  0  0  0  0
   -3.4379   -2.6790    0.0000 H   0  0  0  0  0  0  0  0  0  0  0  0
   -3.9265    0.2348    0.0000 H   0  0  0  0  0  0  0  0  0  0  0  0
   -4.9046   -1.4271    0.0000 H   0  0  0  0  0  0  0  0  0  0  0  0
   -0.8200   -1.2200    0.0000 S   0  0  0  0  0  0  0  0  0  0  0  0
   -1.7906   -2.3636    0.0000 O   0  0  0  0  0  0  0  0  0  0  0  0
    0.1506   -2.3636    0.0000 O   0  0  0  0  0  0  0  0  0  0  0  0
    0.4800   -0.4400    0.0000 C   0  0  0  0  0  0  0  0  0  0  0  0
    0.4800    1.0300    0.0000 C   0  0  0  0  0  0  0  0  0  0  0  0
    1.9200    1.5200    0.0000 C   0  0  0  0  0  0  0  0  0  0  0  0
    2.3971    2.9421    0.0000 H   0  0  0  0  0  0  0  0  0  0  0  0
    2.7600    0.2800    0.0000 C   0  0  0  0  0  0  0  0  0  0  0  0
    1.9200   -0.9300    0.0000 S   0  0  0  0  0  0  0  0  0  0  0  0
    4.2600    0.2714    0.0000 S   0  0  0  0  0  0  0  0  0  0  0  0
    5.6724    0.7764    0.0000 O   0  0  0  0  0  0  0  0  0  0  0  0
    4.0079    1.7501    0.0000 O   0  0  0  0  0  0  0  0  0  0  0  0
    5.0025   -1.0319    0.0000 N   0  0  0  0  0  0  0  0  0  0  0  0
    6.5025   -1.0404    0.0000 H   0  0  0  0  0  0  0  0  0  0  0  0
    4.2451   -2.3266    0.0000 H   0  0  0  0  0  0  0  0  0  0  0  0
  1  2  1  0  0  0  0 
  1  3  1  0  0  0  0 
  1  4  1  0  0  0  0 
  1  5  1  0  0  0  0 
  5  6  1  0  0  0  0 
  5  7  1  0  0  0  0 
  5  8  1  0  0  0  0 
  8  9  1  0  0  0  0 
 10  8  1  6  0  0  0 
 10 11  1  1  0  0  0 
 10 12  1  0  0  0  0 
 12 13  1  0  0  0  0 
 12 14  2  0  0  0  0 
 14 15  1  0  0  0  0 
 15 16  1  0  0  0  0 
 15 17  1  0  0  0  0 
 15 18  1  0  0  0  0 
 14 19  1  0  0  0  0 
 19 20  2  0  0  0  0 
 19 21  2  0  0  0  0 
 19 22  1  0  0  0  0 
 22 23  2  0  0  0  0 
 10 23  1  0  0  0  0 
 23 24  1  0  0  0  0 
 24 25  1  0  0  0  0 
 24 26  2  0  0  0  0 
 26 27  1  0  0  0  0 
 22 27  1  0  0  0  0 
 26 28  1  0  0  0  0 
 28 29  2  0  0  0  0 
 28 30  2  0  0  0  0 
 28 31  1  0  0  0  0 
 31 32  1  0  0  0  0 
 31 33  1  0  0  0  0 
M  END
> <Rank>
25

> <Priority_score>
0.01775117381953704

> <Reaction_type>
alkyl dehydrogenation

> <Parent_ID>
25

> <Parent_InChI>
InChI=1S/C10H16N2O4S3/c1-3-12-8-4-6(2)18(13,14)10-7(8)5-9(17-10)19(11,15)16/h5-6,8,12H,3-4H2,1-2H3,(H2,11,15,16)

> <Parent_SMILES>
CCN[C@H]1C[C@H](C)S(=O)(=O)c2sc(S(N)(=O)=O)cc21

$$$$
Molecule 26
  CDK     0516241031

 29 31  0  0  0  0  0  0  0  0999 V2000
   -2.5981   -7.3100    0.0000 C   0  0  0  0  0  0  0  0  0  0  0  0
   -2.5981   -5.8100    0.0000 C   0  0  0  0  0  0  0  0  0  0  0  0
   -1.2990   -5.0600    0.0000 N   0  0  0  0  0  0  0  0  0  0  0  0
   -0.0000   -5.8100    0.0000 C   0  0  0  0  0  0  0  0  0  0  0  0
   -0.0000   -7.3100    0.0000 C   0  0  0  0  0  0  0  0  0  0  0  0
   -1.2990   -3.5600    0.0000 C   0  0  0  0  0  0  0  0  0  0  0  0
   -0.0000   -2.8100    0.0000 C   0  0  0  0  0  0  0  0  0  0  0  0
    1.2990   -3.5600    0.0000 O   0  0  0  0  0  0  0  0  0  0  0  0
    0.0000   -1.3100    0.0000 N   0  0  0  0  0  0  0  0  0  0  0  0
   -1.3500   -0.6600    0.0000 C   0  0  0  0  0  0  0  0  0  0  0  0
   -1.6900    0.8000    0.0000 C   0  0  0  0  0  0  0  0  0  0  0  0
   -3.1200    1.2400    0.0000 C   0  0  0  0  0  0  0  0  0  0  0  0
   -4.2200    0.2200    0.0000 C   0  0  0  0  0  0  0  0  0  0  0  0
   -3.8800   -1.2400    0.0000 C   0  0  0  0  0  0  0  0  0  0  0  0
   -2.4500   -1.6800    0.0000 C   0  0  0  0  0  0  0  0  0  0  0  0
   -0.7500    1.9700    0.0000 C   0  0  0  0  0  0  0  0  0  0  0  0
    0.7500    1.9700    0.0000 C   0  0  0  0  0  0  0  0  0  0  0  0
    1.6900    0.8000    0.0000 C   0  0  0  0  0  0  0  0  0  0  0  0
    3.1200    1.2400    0.0000 C   0  0  0  0  0  0  0  0  0  0  0  0
    4.2200    0.2200    0.0000 C   0  0  0  0  0  0  0  0  0  0  0  0
    3.8800   -1.2400    0.0000 C   0  0  0  0  0  0  0  0  0  0  0  0
    2.4500   -1.6800    0.0000 C   0  0  0  0  0  0  0  0  0  0  0  0
    1.3500   -0.6600    0.0000 C   0  0  0  0  0  0  0  0  0  0  0  0
    4.9770   -2.2631    0.0000 N   0  0  0  0  0  0  0  0  0  0  0  0
    6.4115   -1.8246    0.0000 C   0  0  0  0  0  0  0  0  0  0  0  0
    6.7490   -0.3630    0.0000 O   0  0  0  0  0  0  0  0  0  0  0  0
    7.5084   -2.8476    0.0000 O   0  0  0  0  0  0  0  0  0  0  0  0
    8.9429   -2.4092    0.0000 C   0  0  0  0  0  0  0  0  0  0  0  0
   10.0399   -3.4322    0.0000 C   0  0  0  0  0  0  0  0  0  0  0  0
  1  2  1  0  0  0  0 
  2  3  1  0  0  0  0 
  3  4  1  0  0  0  0 
  4  5  1  0  0  0  0 
  3  6  1  0  0  0  0 
  6  7  1  0  0  0  0 
  7  8  2  0  0  0  0 
  7  9  1  0  0  0  0 
  9 10  1  0  0  0  0 
 10 11  2  0  0  0  0 
 11 12  1  0  0  0  0 
 12 13  2  0  0  0  0 
 13 14  1  0  0  0  0 
 14 15  2  0  0  0  0 
 10 15  1  0  0  0  0 
 11 16  1  0  0  0  0 
 16 17  1  0  0  0  0 
 17 18  1  0  0  0  0 
 18 19  2  0  0  0  0 
 19 20  1  0  0  0  0 
 20 21  2  0  0  0  0 
 21 22  1  0  0  0  0 
 22 23  2  0  0  0  0 
 18 23  1  0  0  0  0 
  9 23  1  0  0  0  0 
 21 24  1  0  0  0  0 
 24 25  1  0  0  0  0 
 25 26  2  0  0  0  0 
 25 27  1  0  0  0  0 
 27 28  1  0  0  0  0 
 28 29  1  0  0  0  0 
M  END
> <SMILES>
CCOC(=O)Nc1ccc2c(c1)N(C(=O)CN(CC)CC)c1ccccc1CC2

$$$$
Molecule 26_metabolite 1
  CDK     0516241031

  9  8  0  0  0  0  0  0  0  0999 V2000
    1.2990   -0.7500    0.0000 C   0  0  0  0  0  0  0  0  0  0  0  0
    0.0000    0.0000    0.0000 H   0  0  0  0  0  0  0  0  0  0  0  0
    0.3349   -1.8991    0.0000 H   0  0  0  0  0  0  0  0  0  0  0  0
    2.2632   -1.8991    0.0000 H   0  0  0  0  0  0  0  0  0  0  0  0
    2.5981   -0.0000    0.0000 C   0  0  0  0  0  0  0  0  0  0  0  0
    3.5623    1.1491    0.0000 H   0  0  0  0  0  0  0  0  0  0  0  0
    1.6339    1.1491    0.0000 H   0  0  0  0  0  0  0  0  0  0  0  0
    3.8971   -0.7500    0.0000 O   0  0  0  0  0  0  0  0  0  0  0  0
    5.1962   -0.0000    0.0000 H   0  0  0  0  0  0  0  0  0  0  0  0
  1  2  1  0  0  0  0 
  1  3  1  0  0  0  0 
  1  4  1  0  0  0  0 
  1  5  1  0  0  0  0 
  5  6  1  0  0  0  0 
  5  7  1  0  0  0  0 
  5  8  1  0  0  0  0 
  8  9  1  0  0  0  0 
M  END
> <Rank>
1

> <Priority_score>
0.572

> <Reaction_type>
N-dealkylation_(tertiaryN-CH2-alkyl)

> <Parent_ID>
26

> <Parent_InChI>
InChI=1S/C23H29N3O3/c1-4-25(5-2)16-22(27)26-20-10-8-7-9-17(20)11-12-18-13-14-19(15-21(18)26)24-23(28)29-6-3/h7-10,13-15H,4-6,11-12,16H2,1-3H3,(H,24,28)

> <Parent_SMILES>
CCOC(=O)Nc1ccc2c(c1)N(C(=O)CN(CC)CC)c1ccccc1CC2

$$$$
Molecule 26_metabolite 2
  CDK     0516241031

 59 61  0  0  0  0  0  0  0  0999 V2000
    2.5981   -7.7900    0.0000 C   0  0  0  0  0  0  0  0  0  0  0  0
    1.2990   -8.5400    0.0000 H   0  0  0  0  0  0  0  0  0  0  0  0
    4.0753   -7.5295    0.0000 H   0  0  0  0  0  0  0  0  0  0  0  0
    3.1111   -9.1995    0.0000 H   0  0  0  0  0  0  0  0  0  0  0  0
    2.5981   -6.2900    0.0000 C   0  0  0  0  0  0  0  0  0  0  0  0
    4.0753   -6.5505    0.0000 H   0  0  0  0  0  0  0  0  0  0  0  0
    3.1111   -4.8805    0.0000 H   0  0  0  0  0  0  0  0  0  0  0  0
    1.2990   -5.5400    0.0000 N   0  0  0  0  0  0  0  0  0  0  0  0
    1.2990   -3.5600    0.0000 C   0  0  0  0  0  0  0  0  0  0  0  0
    2.7762   -3.8205    0.0000 H   0  0  0  0  0  0  0  0  0  0  0  0
    1.8121   -2.1505    0.0000 H   0  0  0  0  0  0  0  0  0  0  0  0
   -0.0000   -2.8100    0.0000 C   0  0  0  0  0  0  0  0  0  0  0  0
   -1.2990   -3.5600    0.0000 O   0  0  0  0  0  0  0  0  0  0  0  0
    0.0000   -1.3100    0.0000 N   0  0  0  0  0  0  0  0  0  0  0  0
   -1.3500   -0.6600    0.0000 C   0  0  0  0  0  0  0  0  0  0  0  0
   -1.6900    0.8000    0.0000 C   0  0  0  0  0  0  0  0  0  0  0  0
   -3.1200    1.2400    0.0000 C   0  0  0  0  0  0  0  0  0  0  0  0
   -3.4541    2.7023    0.0000 H   0  0  0  0  0  0  0  0  0  0  0  0
   -4.2200    0.2200    0.0000 C   0  0  0  0  0  0  0  0  0  0  0  0
   -5.6543    0.6592    0.0000 H   0  0  0  0  0  0  0  0  0  0  0  0
   -3.8800   -1.2400    0.0000 C   0  0  0  0  0  0  0  0  0  0  0  0
   -4.9770   -2.2631    0.0000 H   0  0  0  0  0  0  0  0  0  0  0  0
   -2.4500   -1.6800    0.0000 C   0  0  0  0  0  0  0  0  0  0  0  0
   -2.1159   -3.1423    0.0000 H   0  0  0  0  0  0  0  0  0  0  0  0
   -0.7500    1.9700    0.0000 C   0  0  0  0  0  0  0  0  0  0  0  0
   -0.4145    3.4320    0.0000 H   0  0  0  0  0  0  0  0  0  0  0  0
   -2.0999    2.6241    0.0000 H   0  0  0  0  0  0  0  0  0  0  0  0
    0.7500    1.9700    0.0000 C   0  0  0  0  0  0  0  0  0  0  0  0
    2.0999    2.6241    0.0000 H   0  0  0  0  0  0  0  0  0  0  0  0
    0.4145    3.4320    0.0000 H   0  0  0  0  0  0  0  0  0  0  0  0
    1.6900    0.8000    0.0000 C   0  0  0  0  0  0  0  0  0  0  0  0
    3.1200    1.2400    0.0000 C   0  0  0  0  0  0  0  0  0  0  0  0
    3.4541    2.7023    0.0000 H   0  0  0  0  0  0  0  0  0  0  0  0
    4.2200    0.2200    0.0000 C   0  0  0  0  0  0  0  0  0  0  0  0
    5.6543    0.6592    0.0000 H   0  0  0  0  0  0  0  0  0  0  0  0
    3.8800   -1.2400    0.0000 C   0  0  0  0  0  0  0  0  0  0  0  0
    2.4500   -1.6800    0.0000 C   0  0  0  0  0  0  0  0  0  0  0  0
    2.1159   -3.1423    0.0000 H   0  0  0  0  0  0  0  0  0  0  0  0
    1.3500   -0.6600    0.0000 C   0  0  0  0  0  0  0  0  0  0  0  0
    4.9770   -2.2631    0.0000 N   0  0  0  0  0  0  0  0  0  0  0  0
    4.6395   -3.7246    0.0000 H   0  0  0  0  0  0  0  0  0  0  0  0
    6.4115   -1.8246    0.0000 C   0  0  0  0  0  0  0  0  0  0  0  0
    6.7490   -0.3630    0.0000 O   0  0  0  0  0  0  0  0  0  0  0  0
    7.5084   -2.8476    0.0000 O   0  0  0  0  0  0  0  0  0  0  0  0
    8.9429   -2.4092    0.0000 C   0  0  0  0  0  0  0  0  0  0  0  0
   10.1409   -1.5065    0.0000 H   0  0  0  0  0  0  0  0  0  0  0  0
    8.2620   -1.0726    0.0000 H   0  0  0  0  0  0  0  0  0  0  0  0
   10.0399   -3.4322    0.0000 C   0  0  0  0  0  0  0  0  0  0  0  0
   11.4744   -2.9937    0.0000 H   0  0  0  0  0  0  0  0  0  0  0  0
    8.8419   -4.3349    0.0000 H   0  0  0  0  0  0  0  0  0  0  0  0
   10.7208   -4.7688    0.0000 H   0  0  0  0  0  0  0  0  0  0  0  0
   -0.0000   -6.2900    0.0000 C   0  0  0  0  0  0  0  0  0  0  0  0
   -0.5130   -4.8805    0.0000 H   0  0  0  0  0  0  0  0  0  0  0  0
   -0.0000   -7.7900    0.0000 C   0  0  0  0  0  0  0  0  0  0  0  0
   -1.2990   -8.5400    0.0000 H   0  0  0  0  0  0  0  0  0  0  0  0
    0.5130   -9.1995    0.0000 H   0  0  0  0  0  0  0  0  0  0  0  0
    1.4772   -7.5295    0.0000 H   0  0  0  0  0  0  0  0  0  0  0  0
   -1.4772   -6.5505    0.0000 O   0  0  0  0  0  0  0  0  0  0  0  0
   -1.9902   -7.9600    0.0000 H   0  0  0  0  0  0  0  0  0  0  0  0
  1  2  1  0  0  0  0 
  1  3  1  0  0  0  0 
  1  4  1  0  0  0  0 
  1  5  1  0  0  0  0 
  5  6  1  0  0  0  0 
  5  7  1  0  0  0  0 
  5  8  1  0  0  0  0 
  8  9  1  0  0  0  0 
  9 10  1  0  0  0  0 
  9 11  1  0  0  0  0 
  9 12  1  0  0  0  0 
 12 13  2  0  0  0  0 
 12 14  1  0  0  0  0 
 14 15  1  0  0  0  0 
 15 16  2  0  0  0  0 
 16 17  1  0  0  0  0 
 17 18  1  0  0  0  0 
 17 19  2  0  0  0  0 
 19 20  1  0  0  0  0 
 19 21  1  0  0  0  0 
 21 22  1  0  0  0  0 
 21 23  2  0  0  0  0 
 15 23  1  0  0  0  0 
 23 24  1  0  0  0  0 
 16 25  1  0  0  0  0 
 25 26  1  0  0  0  0 
 25 27  1  0  0  0  0 
 25 28  1  0  0  0  0 
 28 29  1  0  0  0  0 
 28 30  1  0  0  0  0 
 28 31  1  0  0  0  0 
 31 32  2  0  0  0  0 
 32 33  1  0  0  0  0 
 32 34  1  0  0  0  0 
 34 35  1  0  0  0  0 
 34 36  2  0  0  0  0 
 36 37  1  0  0  0  0 
 37 38  1  0  0  0  0 
 37 39  2  0  0  0  0 
 31 39  1  0  0  0  0 
 14 39  1  0  0  0  0 
 36 40  1  0  0  0  0 
 40 41  1  0  0  0  0 
 40 42  1  0  0  0  0 
 42 43  2  0  0  0  0 
 42 44  1  0  0  0  0 
 44 45  1  0  0  0  0 
 45 46  1  0  0  0  0 
 45 47  1  0  0  0  0 
 45 48  1  0  0  0  0 
 48 49  1  0  0  0  0 
 48 50  1  0  0  0  0 
 48 51  1  0  0  0  0 
  8 52  1  0  0  0  0 
 52 53  1  0  0  0  0 
 52 54  1  0  0  0  0 
 54 55  1  0  0  0  0 
 54 56  1  0  0  0  0 
 54 57  1  0  0  0  0 
 52 58  1  0  0  0  0 
 58 59  1  0  0  0  0 
M  END
> <Rank>
1

> <Priority_score>
0.572

> <Reaction_type>
aliphatic hydroxylation

> <Parent_ID>
26

> <Parent_InChI>
InChI=1S/C23H29N3O3/c1-4-25(5-2)16-22(27)26-20-10-8-7-9-17(20)11-12-18-13-14-19(15-21(18)26)24-23(28)29-6-3/h7-10,13-15H,4-6,11-12,16H2,1-3H3,(H,24,28)

> <Parent_SMILES>
CCOC(=O)Nc1ccc2c(c1)N(C(=O)CN(CC)CC)c1ccccc1CC2

$$$$
Molecule 26_metabolite 3
  CDK     0516241031

  7  6  0  0  0  0  0  0  0  0999 V2000
    2.7500   -0.4868    0.0000 C   0  0  0  0  0  0  0  0  0  0  0  0
    2.7500   -1.9868    0.0000 H   0  0  0  0  0  0  0  0  0  0  0  0
    4.2272   -0.7473    0.0000 H   0  0  0  0  0  0  0  0  0  0  0  0
    3.2631    0.9227    0.0000 H   0  0  0  0  0  0  0  0  0  0  0  0
    1.4510    0.2632    0.0000 C   0  0  0  0  0  0  0  0  0  0  0  0
    1.4510    1.7632    0.0000 H   0  0  0  0  0  0  0  0  0  0  0  0
    0.1520   -0.4868    0.0000 O   0  0  0  0  0  0  0  0  0  0  0  0
  1  2  1  0  0  0  0 
  1  3  1  0  0  0  0 
  1  4  1  0  0  0  0 
  1  5  1  0  0  0  0 
  5  6  1  0  0  0  0 
  5  7  2  0  0  0  0 
M  END
> <Rank>
1

> <Priority_score>
0.572

> <Reaction_type>
N-dealkylation

> <Parent_ID>
26

> <Parent_InChI>
InChI=1S/C23H29N3O3/c1-4-25(5-2)16-22(27)26-20-10-8-7-9-17(20)11-12-18-13-14-19(15-21(18)26)24-23(28)29-6-3/h7-10,13-15H,4-6,11-12,16H2,1-3H3,(H,24,28)

> <Parent_SMILES>
CCOC(=O)Nc1ccc2c(c1)N(C(=O)CN(CC)CC)c1ccccc1CC2

$$$$
Molecule 26_metabolite 4
  CDK     0516241031

 59 61  0  0  0  0  0  0  0  0999 V2000
    2.5981   -7.7900    0.0000 C   0  0  0  0  0  0  0  0  0  0  0  0
    1.2990   -8.5400    0.0000 H   0  0  0  0  0  0  0  0  0  0  0  0
    4.0753   -7.5295    0.0000 H   0  0  0  0  0  0  0  0  0  0  0  0
    3.1111   -9.1995    0.0000 H   0  0  0  0  0  0  0  0  0  0  0  0
    2.5981   -6.2900    0.0000 C   0  0  0  0  0  0  0  0  0  0  0  0
    4.0753   -6.5505    0.0000 H   0  0  0  0  0  0  0  0  0  0  0  0
    3.1111   -4.8805    0.0000 H   0  0  0  0  0  0  0  0  0  0  0  0
    0.8833   -5.3000    0.0000 N   0  0  0  0  0  0  0  0  0  0  0  0
   -0.5939   -5.0395    0.0000 C   0  0  0  0  0  0  0  0  0  0  0  0
   -0.0808   -3.6300    0.0000 H   0  0  0  0  0  0  0  0  0  0  0  0
   -1.8929   -4.2895    0.0000 H   0  0  0  0  0  0  0  0  0  0  0  0
   -1.5580   -6.1886    0.0000 C   0  0  0  0  0  0  0  0  0  0  0  0
   -1.0450   -7.5981    0.0000 H   0  0  0  0  0  0  0  0  0  0  0  0
   -2.5222   -5.0395    0.0000 H   0  0  0  0  0  0  0  0  0  0  0  0
   -2.8571   -6.9386    0.0000 H   0  0  0  0  0  0  0  0  0  0  0  0
    0.8833   -3.3200    0.0000 C   0  0  0  0  0  0  0  0  0  0  0  0
    2.3606   -3.5805    0.0000 H   0  0  0  0  0  0  0  0  0  0  0  0
    1.3964   -1.9105    0.0000 H   0  0  0  0  0  0  0  0  0  0  0  0
   -0.4157   -2.5700    0.0000 C   0  0  0  0  0  0  0  0  0  0  0  0
   -1.7147   -3.3200    0.0000 O   0  0  0  0  0  0  0  0  0  0  0  0
   -0.4157   -1.0700    0.0000 N   0  0  0  0  0  0  0  0  0  0  0  0
   -1.7657   -0.4200    0.0000 C   0  0  0  0  0  0  0  0  0  0  0  0
   -2.1057    1.0400    0.0000 C   0  0  0  0  0  0  0  0  0  0  0  0
   -3.5357    1.4800    0.0000 C   0  0  0  0  0  0  0  0  0  0  0  0
   -3.8698    2.9423    0.0000 H   0  0  0  0  0  0  0  0  0  0  0  0
   -4.6357    0.4600    0.0000 C   0  0  0  0  0  0  0  0  0  0  0  0
   -6.0700    0.8992    0.0000 H   0  0  0  0  0  0  0  0  0  0  0  0
   -4.2957   -1.0000    0.0000 C   0  0  0  0  0  0  0  0  0  0  0  0
   -5.3927   -2.0231    0.0000 H   0  0  0  0  0  0  0  0  0  0  0  0
   -2.8657   -1.4400    0.0000 C   0  0  0  0  0  0  0  0  0  0  0  0
   -2.5316   -2.9023    0.0000 H   0  0  0  0  0  0  0  0  0  0  0  0
   -1.1657    2.2100    0.0000 C   0  0  0  0  0  0  0  0  0  0  0  0
   -0.8301    3.6720    0.0000 H   0  0  0  0  0  0  0  0  0  0  0  0
   -2.5156    2.8641    0.0000 H   0  0  0  0  0  0  0  0  0  0  0  0
    0.3343    2.2100    0.0000 C   0  0  0  0  0  0  0  0  0  0  0  0
    1.6842    2.8641    0.0000 H   0  0  0  0  0  0  0  0  0  0  0  0
   -0.0012    3.6720    0.0000 H   0  0  0  0  0  0  0  0  0  0  0  0
    1.2743    1.0400    0.0000 C   0  0  0  0  0  0  0  0  0  0  0  0
    2.7043    1.4800    0.0000 C   0  0  0  0  0  0  0  0  0  0  0  0
    3.0384    2.9423    0.0000 H   0  0  0  0  0  0  0  0  0  0  0  0
    3.8043    0.4600    0.0000 C   0  0  0  0  0  0  0  0  0  0  0  0
    5.2386    0.8992    0.0000 H   0  0  0  0  0  0  0  0  0  0  0  0
    3.4643   -1.0000    0.0000 C   0  0  0  0  0  0  0  0  0  0  0  0
    2.0343   -1.4400    0.0000 C   0  0  0  0  0  0  0  0  0  0  0  0
    1.7002   -2.9023    0.0000 H   0  0  0  0  0  0  0  0  0  0  0  0
    0.9343   -0.4200    0.0000 C   0  0  0  0  0  0  0  0  0  0  0  0
    4.5613   -2.0231    0.0000 N   0  0  0  0  0  0  0  0  0  0  0  0
    4.2238   -3.4846    0.0000 H   0  0  0  0  0  0  0  0  0  0  0  0
    5.9958   -1.5846    0.0000 C   0  0  0  0  0  0  0  0  0  0  0  0
    6.3333   -0.1230    0.0000 O   0  0  0  0  0  0  0  0  0  0  0  0
    7.0927   -2.6076    0.0000 O   0  0  0  0  0  0  0  0  0  0  0  0
    8.5272   -2.1692    0.0000 C   0  0  0  0  0  0  0  0  0  0  0  0
    9.7252   -1.2665    0.0000 H   0  0  0  0  0  0  0  0  0  0  0  0
    7.8463   -0.8326    0.0000 H   0  0  0  0  0  0  0  0  0  0  0  0
    9.6242   -3.1922    0.0000 C   0  0  0  0  0  0  0  0  0  0  0  0
   11.0587   -2.7537    0.0000 H   0  0  0  0  0  0  0  0  0  0  0  0
    8.4262   -4.0949    0.0000 H   0  0  0  0  0  0  0  0  0  0  0  0
   10.3051   -4.5288    0.0000 H   0  0  0  0  0  0  0  0  0  0  0  0
    0.3703   -6.7095    0.0000 O   0  0  0  0  0  0  0  0  0  0  0  0
  1  2  1  0  0  0  0 
  1  3  1  0  0  0  0 
  1  4  1  0  0  0  0 
  1  5  1  0  0  0  0 
  5  6  1  0  0  0  0 
  5  7  1  0  0  0  0 
  5  8  1  0  0  0  0 
  8  9  1  0  0  0  0 
  9 10  1  0  0  0  0 
  9 11  1  0  0  0  0 
  9 12  1  0  0  0  0 
 12 13  1  0  0  0  0 
 12 14  1  0  0  0  0 
 12 15  1  0  0  0  0 
  8 16  1  0  0  0  0 
 16 17  1  0  0  0  0 
 16 18  1  0  0  0  0 
 16 19  1  0  0  0  0 
 19 20  2  0  0  0  0 
 19 21  1  0  0  0  0 
 21 22  1  0  0  0  0 
 22 23  2  0  0  0  0 
 23 24  1  0  0  0  0 
 24 25  1  0  0  0  0 
 24 26  2  0  0  0  0 
 26 27  1  0  0  0  0 
 26 28  1  0  0  0  0 
 28 29  1  0  0  0  0 
 28 30  2  0  0  0  0 
 22 30  1  0  0  0  0 
 30 31  1  0  0  0  0 
 23 32  1  0  0  0  0 
 32 33  1  0  0  0  0 
 32 34  1  0  0  0  0 
 32 35  1  0  0  0  0 
 35 36  1  0  0  0  0 
 35 37  1  0  0  0  0 
 35 38  1  0  0  0  0 
 38 39  2  0  0  0  0 
 39 40  1  0  0  0  0 
 39 41  1  0  0  0  0 
 41 42  1  0  0  0  0 
 41 43  2  0  0  0  0 
 43 44  1  0  0  0  0 
 44 45  1  0  0  0  0 
 44 46  2  0  0  0  0 
 38 46  1  0  0  0  0 
 21 46  1  0  0  0  0 
 43 47  1  0  0  0  0 
 47 48  1  0  0  0  0 
 47 49  1  0  0  0  0 
 49 50  2  0  0  0  0 
 49 51  1  0  0  0  0 
 51 52  1  0  0  0  0 
 52 53  1  0  0  0  0 
 52 54  1  0  0  0  0 
 52 55  1  0  0  0  0 
 55 56  1  0  0  0  0 
 55 57  1  0  0  0  0 
 55 58  1  0  0  0  0 
  8 59  1  0  0  0  0 
M  CHG  1   8   1
M  CHG  1  59  -1
M  END
> <Rank>
1

> <Priority_score>
0.572

> <Reaction_type>
N-oxidation_(tertiary_N)

> <Parent_ID>
26

> <Parent_InChI>
InChI=1S/C23H29N3O3/c1-4-25(5-2)16-22(27)26-20-10-8-7-9-17(20)11-12-18-13-14-19(15-21(18)26)24-23(28)29-6-3/h7-10,13-15H,4-6,11-12,16H2,1-3H3,(H,24,28)

> <Parent_SMILES>
CCOC(=O)Nc1ccc2c(c1)N(C(=O)CN(CC)CC)c1ccccc1CC2

$$$$
Molecule 26_metabolite 5
  CDK     0516241031

 52 54  0  0  0  0  0  0  0  0999 V2000
   -0.0000   -7.3100    0.0000 C   0  0  0  0  0  0  0  0  0  0  0  0
   -1.2990   -8.0600    0.0000 H   0  0  0  0  0  0  0  0  0  0  0  0
    1.4772   -7.0495    0.0000 H   0  0  0  0  0  0  0  0  0  0  0  0
    0.5130   -8.7195    0.0000 H   0  0  0  0  0  0  0  0  0  0  0  0
   -0.0000   -5.8100    0.0000 C   0  0  0  0  0  0  0  0  0  0  0  0
   -1.4772   -6.0705    0.0000 H   0  0  0  0  0  0  0  0  0  0  0  0
   -0.5130   -4.4005    0.0000 H   0  0  0  0  0  0  0  0  0  0  0  0
    1.2990   -5.0600    0.0000 N   0  0  0  0  0  0  0  0  0  0  0  0
    2.5981   -5.8100    0.0000 H   0  0  0  0  0  0  0  0  0  0  0  0
    1.2990   -3.5600    0.0000 C   0  0  0  0  0  0  0  0  0  0  0  0
    2.7762   -3.8205    0.0000 H   0  0  0  0  0  0  0  0  0  0  0  0
    1.8121   -2.1505    0.0000 H   0  0  0  0  0  0  0  0  0  0  0  0
   -0.0000   -2.8100    0.0000 C   0  0  0  0  0  0  0  0  0  0  0  0
   -1.2990   -3.5600    0.0000 O   0  0  0  0  0  0  0  0  0  0  0  0
    0.0000   -1.3100    0.0000 N   0  0  0  0  0  0  0  0  0  0  0  0
   -1.3500   -0.6600    0.0000 C   0  0  0  0  0  0  0  0  0  0  0  0
   -1.6900    0.8000    0.0000 C   0  0  0  0  0  0  0  0  0  0  0  0
   -3.1200    1.2400    0.0000 C   0  0  0  0  0  0  0  0  0  0  0  0
   -3.4541    2.7023    0.0000 H   0  0  0  0  0  0  0  0  0  0  0  0
   -4.2200    0.2200    0.0000 C   0  0  0  0  0  0  0  0  0  0  0  0
   -5.6543    0.6592    0.0000 H   0  0  0  0  0  0  0  0  0  0  0  0
   -3.8800   -1.2400    0.0000 C   0  0  0  0  0  0  0  0  0  0  0  0
   -4.9770   -2.2631    0.0000 H   0  0  0  0  0  0  0  0  0  0  0  0
   -2.4500   -1.6800    0.0000 C   0  0  0  0  0  0  0  0  0  0  0  0
   -2.1159   -3.1423    0.0000 H   0  0  0  0  0  0  0  0  0  0  0  0
   -0.7500    1.9700    0.0000 C   0  0  0  0  0  0  0  0  0  0  0  0
   -0.4145    3.4320    0.0000 H   0  0  0  0  0  0  0  0  0  0  0  0
   -2.0999    2.6241    0.0000 H   0  0  0  0  0  0  0  0  0  0  0  0
    0.7500    1.9700    0.0000 C   0  0  0  0  0  0  0  0  0  0  0  0
    2.0999    2.6241    0.0000 H   0  0  0  0  0  0  0  0  0  0  0  0
    0.4145    3.4320    0.0000 H   0  0  0  0  0  0  0  0  0  0  0  0
    1.6900    0.8000    0.0000 C   0  0  0  0  0  0  0  0  0  0  0  0
    3.1200    1.2400    0.0000 C   0  0  0  0  0  0  0  0  0  0  0  0
    3.4541    2.7023    0.0000 H   0  0  0  0  0  0  0  0  0  0  0  0
    4.2200    0.2200    0.0000 C   0  0  0  0  0  0  0  0  0  0  0  0
    5.6543    0.6592    0.0000 H   0  0  0  0  0  0  0  0  0  0  0  0
    3.8800   -1.2400    0.0000 C   0  0  0  0  0  0  0  0  0  0  0  0
    2.4500   -1.6800    0.0000 C   0  0  0  0  0  0  0  0  0  0  0  0
    2.1159   -3.1423    0.0000 H   0  0  0  0  0  0  0  0  0  0  0  0
    1.3500   -0.6600    0.0000 C   0  0  0  0  0  0  0  0  0  0  0  0
    4.9770   -2.2631    0.0000 N   0  0  0  0  0  0  0  0  0  0  0  0
    4.6395   -3.7246    0.0000 H   0  0  0  0  0  0  0  0  0  0  0  0
    6.4115   -1.8246    0.0000 C   0  0  0  0  0  0  0  0  0  0  0  0
    6.7490   -0.3630    0.0000 O   0  0  0  0  0  0  0  0  0  0  0  0
    7.5084   -2.8476    0.0000 O   0  0  0  0  0  0  0  0  0  0  0  0
    8.9429   -2.4092    0.0000 C   0  0  0  0  0  0  0  0  0  0  0  0
   10.1409   -1.5065    0.0000 H   0  0  0  0  0  0  0  0  0  0  0  0
    8.2620   -1.0726    0.0000 H   0  0  0  0  0  0  0  0  0  0  0  0
   10.0399   -3.4322    0.0000 C   0  0  0  0  0  0  0  0  0  0  0  0
   11.4744   -2.9937    0.0000 H   0  0  0  0  0  0  0  0  0  0  0  0
    8.8419   -4.3349    0.0000 H   0  0  0  0  0  0  0  0  0  0  0  0
   10.7208   -4.7688    0.0000 H   0  0  0  0  0  0  0  0  0  0  0  0
  1  2  1  0  0  0  0 
  1  3  1  0  0  0  0 
  1  4  1  0  0  0  0 
  1  5  1  0  0  0  0 
  5  6  1  0  0  0  0 
  5  7  1  0  0  0  0 
  5  8  1  0  0  0  0 
  8  9  1  0  0  0  0 
  8 10  1  0  0  0  0 
 10 11  1  0  0  0  0 
 10 12  1  0  0  0  0 
 10 13  1  0  0  0  0 
 13 14  2  0  0  0  0 
 13 15  1  0  0  0  0 
 15 16  1  0  0  0  0 
 16 17  2  0  0  0  0 
 17 18  1  0  0  0  0 
 18 19  1  0  0  0  0 
 18 20  2  0  0  0  0 
 20 21  1  0  0  0  0 
 20 22  1  0  0  0  0 
 22 23  1  0  0  0  0 
 22 24  2  0  0  0  0 
 16 24  1  0  0  0  0 
 24 25  1  0  0  0  0 
 17 26  1  0  0  0  0 
 26 27  1  0  0  0  0 
 26 28  1  0  0  0  0 
 26 29  1  0  0  0  0 
 29 30  1  0  0  0  0 
 29 31  1  0  0  0  0 
 29 32  1  0  0  0  0 
 32 33  2  0  0  0  0 
 33 34  1  0  0  0  0 
 33 35  1  0  0  0  0 
 35 36  1  0  0  0  0 
 35 37  2  0  0  0  0 
 37 38  1  0  0  0  0 
 38 39  1  0  0  0  0 
 38 40  2  0  0  0  0 
 32 40  1  0  0  0  0 
 15 40  1  0  0  0  0 
 37 41  1  0  0  0  0 
 41 42  1  0  0  0  0 
 41 43  1  0  0  0  0 
 43 44  2  0  0  0  0 
 43 45  1  0  0  0  0 
 45 46  1  0  0  0  0 
 46 47  1  0  0  0  0 
 46 48  1  0  0  0  0 
 46 49  1  0  0  0  0 
 49 50  1  0  0  0  0 
 49 51  1  0  0  0  0 
 49 52  1  0  0  0  0 
M  END
> <Rank>
1

> <Priority_score>
0.572

> <Reaction_type>
N-dealkylation_(tertiaryN-CH2-alkyl)

> <Parent_ID>
26

> <Parent_InChI>
InChI=1S/C23H29N3O3/c1-4-25(5-2)16-22(27)26-20-10-8-7-9-17(20)11-12-18-13-14-19(15-21(18)26)24-23(28)29-6-3/h7-10,13-15H,4-6,11-12,16H2,1-3H3,(H,24,28)

> <Parent_SMILES>
CCOC(=O)Nc1ccc2c(c1)N(C(=O)CN(CC)CC)c1ccccc1CC2

$$$$
Molecule 26_metabolite 6
  CDK     0516241031

 56 58  0  0  0  0  0  0  0  0999 V2000
    2.5981   -7.7900    0.0000 C   0  0  0  0  0  0  0  0  0  0  0  0
    1.2990   -8.5400    0.0000 H   0  0  0  0  0  0  0  0  0  0  0  0
    4.0753   -7.5295    0.0000 H   0  0  0  0  0  0  0  0  0  0  0  0
    3.1111   -9.1995    0.0000 H   0  0  0  0  0  0  0  0  0  0  0  0
    2.5981   -6.2900    0.0000 C   0  0  0  0  0  0  0  0  0  0  0  0
    4.0753   -6.5505    0.0000 H   0  0  0  0  0  0  0  0  0  0  0  0
    3.1111   -4.8805    0.0000 H   0  0  0  0  0  0  0  0  0  0  0  0
    1.2990   -5.5400    0.0000 N   0  0  0  0  0  0  0  0  0  0  0  0
   -0.0000   -6.2900    0.0000 C   0  0  0  0  0  0  0  0  0  0  0  0
   -0.5130   -4.8805    0.0000 H   0  0  0  0  0  0  0  0  0  0  0  0
   -1.4772   -6.5505    0.0000 H   0  0  0  0  0  0  0  0  0  0  0  0
   -0.0000   -7.7900    0.0000 C   0  0  0  0  0  0  0  0  0  0  0  0
   -1.2990   -8.5400    0.0000 H   0  0  0  0  0  0  0  0  0  0  0  0
    0.5130   -9.1995    0.0000 H   0  0  0  0  0  0  0  0  0  0  0  0
    1.4772   -7.5295    0.0000 H   0  0  0  0  0  0  0  0  0  0  0  0
    1.2990   -3.5600    0.0000 C   0  0  0  0  0  0  0  0  0  0  0  0
    2.7762   -3.8205    0.0000 H   0  0  0  0  0  0  0  0  0  0  0  0
    1.8121   -2.1505    0.0000 H   0  0  0  0  0  0  0  0  0  0  0  0
   -0.0000   -2.8100    0.0000 C   0  0  0  0  0  0  0  0  0  0  0  0
   -1.2990   -3.5600    0.0000 O   0  0  0  0  0  0  0  0  0  0  0  0
    0.0000   -1.3100    0.0000 N   0  0  0  0  0  0  0  0  0  0  0  0
   -1.3500   -0.6600    0.0000 C   0  0  0  0  0  0  0  0  0  0  0  0
   -1.6900    0.8000    0.0000 C   0  0  0  0  0  0  0  0  0  0  0  0
   -3.1200    1.2400    0.0000 C   0  0  0  0  0  0  0  0  0  0  0  0
   -3.4541    2.7023    0.0000 H   0  0  0  0  0  0  0  0  0  0  0  0
   -4.2200    0.2200    0.0000 C   0  0  0  0  0  0  0  0  0  0  0  0
   -5.6543    0.6592    0.0000 H   0  0  0  0  0  0  0  0  0  0  0  0
   -3.8800   -1.2400    0.0000 C   0  0  0  0  0  0  0  0  0  0  0  0
   -4.9770   -2.2631    0.0000 H   0  0  0  0  0  0  0  0  0  0  0  0
   -2.4500   -1.6800    0.0000 C   0  0  0  0  0  0  0  0  0  0  0  0
   -2.1159   -3.1423    0.0000 H   0  0  0  0  0  0  0  0  0  0  0  0
   -0.7500    1.9700    0.0000 C   0  0  0  0  0  0  0  0  0  0  0  0
   -1.3984    3.3226    0.0000 H   0  0  0  0  0  0  0  0  0  0  0  0
    0.7500    1.9700    0.0000 C   0  0  0  0  0  0  0  0  0  0  0  0
    1.3984    3.3226    0.0000 H   0  0  0  0  0  0  0  0  0  0  0  0
    1.6900    0.8000    0.0000 C   0  0  0  0  0  0  0  0  0  0  0  0
    1.3500   -0.6600    0.0000 C   0  0  0  0  0  0  0  0  0  0  0  0
    2.4500   -1.6800    0.0000 C   0  0  0  0  0  0  0  0  0  0  0  0
    2.1159   -3.1423    0.0000 H   0  0  0  0  0  0  0  0  0  0  0  0
    3.8800   -1.2400    0.0000 C   0  0  0  0  0  0  0  0  0  0  0  0
    4.2200    0.2200    0.0000 C   0  0  0  0  0  0  0  0  0  0  0  0
    5.6543    0.6592    0.0000 H   0  0  0  0  0  0  0  0  0  0  0  0
    3.1200    1.2400    0.0000 C   0  0  0  0  0  0  0  0  0  0  0  0
    3.4541    2.7023    0.0000 H   0  0  0  0  0  0  0  0  0  0  0  0
    4.9770   -2.2631    0.0000 N   0  0  0  0  0  0  0  0  0  0  0  0
    4.6395   -3.7246    0.0000 H   0  0  0  0  0  0  0  0  0  0  0  0
    6.4115   -1.8246    0.0000 C   0  0  0  0  0  0  0  0  0  0  0  0
    6.7490   -0.3630    0.0000 O   0  0  0  0  0  0  0  0  0  0  0  0
    7.5084   -2.8476    0.0000 O   0  0  0  0  0  0  0  0  0  0  0  0
    8.9429   -2.4092    0.0000 C   0  0  0  0  0  0  0  0  0  0  0  0
   10.1409   -1.5065    0.0000 H   0  0  0  0  0  0  0  0  0  0  0  0
    8.2620   -1.0726    0.0000 H   0  0  0  0  0  0  0  0  0  0  0  0
   10.0399   -3.4322    0.0000 C   0  0  0  0  0  0  0  0  0  0  0  0
   11.4744   -2.9937    0.0000 H   0  0  0  0  0  0  0  0  0  0  0  0
    8.8419   -4.3349    0.0000 H   0  0  0  0  0  0  0  0  0  0  0  0
   10.7208   -4.7688    0.0000 H   0  0  0  0  0  0  0  0  0  0  0  0
  1  2  1  0  0  0  0 
  1  3  1  0  0  0  0 
  1  4  1  0  0  0  0 
  1  5  1  0  0  0  0 
  5  6  1  0  0  0  0 
  5  7  1  0  0  0  0 
  5  8  1  0  0  0  0 
  8  9  1  0  0  0  0 
  9 10  1  0  0  0  0 
  9 11  1  0  0  0  0 
  9 12  1  0  0  0  0 
 12 13  1  0  0  0  0 
 12 14  1  0  0  0  0 
 12 15  1  0  0  0  0 
  8 16  1  0  0  0  0 
 16 17  1  0  0  0  0 
 16 18  1  0  0  0  0 
 16 19  1  0  0  0  0 
 19 20  2  0  0  0  0 
 19 21  1  0  0  0  0 
 21 22  1  0  0  0  0 
 22 23  2  0  0  0  0 
 23 24  1  0  0  0  0 
 24 25  1  0  0  0  0 
 24 26  2  0  0  0  0 
 26 27  1  0  0  0  0 
 26 28  1  0  0  0  0 
 28 29  1  0  0  0  0 
 28 30  2  0  0  0  0 
 22 30  1  0  0  0  0 
 30 31  1  0  0  0  0 
 23 32  1  0  0  0  0 
 32 33  1  0  0  0  0 
 32 34  2  0  0  0  0 
 34 35  1  0  0  0  0 
 34 36  1  0  0  0  0 
 36 37  2  0  0  0  0 
 21 37  1  0  0  0  0 
 37 38  1  0  0  0  0 
 38 39  1  0  0  0  0 
 38 40  2  0  0  0  0 
 40 41  1  0  0  0  0 
 41 42  1  0  0  0  0 
 41 43  2  0  0  0  0 
 36 43  1  0  0  0  0 
 43 44  1  0  0  0  0 
 40 45  1  0  0  0  0 
 45 46  1  0  0  0  0 
 45 47  1  0  0  0  0 
 47 48  2  0  0  0  0 
 47 49  1  0  0  0  0 
 49 50  1  0  0  0  0 
 50 51  1  0  0  0  0 
 50 52  1  0  0  0  0 
 50 53  1  0  0  0  0 
 53 54  1  0  0  0  0 
 53 55  1  0  0  0  0 
 53 56  1  0  0  0  0 
M  END
> <Rank>
6

> <Priority_score>
0.37155763604447045

> <Reaction_type>
dehydrogenation_(alpha,beta_to_SP2_both_sides)

> <Parent_ID>
26

> <Parent_InChI>
InChI=1S/C23H29N3O3/c1-4-25(5-2)16-22(27)26-20-10-8-7-9-17(20)11-12-18-13-14-19(15-21(18)26)24-23(28)29-6-3/h7-10,13-15H,4-6,11-12,16H2,1-3H3,(H,24,28)

> <Parent_SMILES>
CCOC(=O)Nc1ccc2c(c1)N(C(=O)CN(CC)CC)c1ccccc1CC2

$$$$
Molecule 26_metabolite 7
  CDK     0516241031

 59 61  0  0  0  0  0  0  0  0999 V2000
    2.5981   -7.3100    0.0000 C   0  0  0  0  0  0  0  0  0  0  0  0
    1.2990   -8.0600    0.0000 H   0  0  0  0  0  0  0  0  0  0  0  0
    4.0753   -7.0495    0.0000 H   0  0  0  0  0  0  0  0  0  0  0  0
    3.1111   -8.7195    0.0000 H   0  0  0  0  0  0  0  0  0  0  0  0
    2.5981   -5.8100    0.0000 C   0  0  0  0  0  0  0  0  0  0  0  0
    4.0753   -6.0705    0.0000 H   0  0  0  0  0  0  0  0  0  0  0  0
    3.1111   -4.4005    0.0000 H   0  0  0  0  0  0  0  0  0  0  0  0
    0.8833   -4.8200    0.0000 N   0  0  0  0  0  0  0  0  0  0  0  0
   -0.4157   -5.5700    0.0000 C   0  0  0  0  0  0  0  0  0  0  0  0
   -0.9287   -4.1605    0.0000 H   0  0  0  0  0  0  0  0  0  0  0  0
   -1.8929   -5.8305    0.0000 H   0  0  0  0  0  0  0  0  0  0  0  0
   -0.4157   -7.0700    0.0000 C   0  0  0  0  0  0  0  0  0  0  0  0
   -1.7147   -7.8200    0.0000 H   0  0  0  0  0  0  0  0  0  0  0  0
    0.0973   -8.4795    0.0000 H   0  0  0  0  0  0  0  0  0  0  0  0
    1.0615   -6.8095    0.0000 H   0  0  0  0  0  0  0  0  0  0  0  0
    0.8833   -3.3200    0.0000 C   0  0  0  0  0  0  0  0  0  0  0  0
    2.3606   -3.5805    0.0000 H   0  0  0  0  0  0  0  0  0  0  0  0
    1.3964   -1.9105    0.0000 H   0  0  0  0  0  0  0  0  0  0  0  0
   -0.4157   -2.5700    0.0000 C   0  0  0  0  0  0  0  0  0  0  0  0
   -1.7147   -3.3200    0.0000 O   0  0  0  0  0  0  0  0  0  0  0  0
   -0.4157   -1.0700    0.0000 N   0  0  0  0  0  0  0  0  0  0  0  0
   -1.7657   -0.4200    0.0000 C   0  0  0  0  0  0  0  0  0  0  0  0
   -2.8657   -1.4400    0.0000 C   0  0  0  0  0  0  0  0  0  0  0  0
   -2.5316   -2.9023    0.0000 H   0  0  0  0  0  0  0  0  0  0  0  0
   -4.2957   -1.0000    0.0000 C   0  0  0  0  0  0  0  0  0  0  0  0
   -4.6357    0.4600    0.0000 C   0  0  0  0  0  0  0  0  0  0  0  0
   -6.0700    0.8992    0.0000 H   0  0  0  0  0  0  0  0  0  0  0  0
   -3.5357    1.4800    0.0000 C   0  0  0  0  0  0  0  0  0  0  0  0
   -3.8698    2.9423    0.0000 H   0  0  0  0  0  0  0  0  0  0  0  0
   -2.1057    1.0400    0.0000 C   0  0  0  0  0  0  0  0  0  0  0  0
   -1.1657    2.2100    0.0000 C   0  0  0  0  0  0  0  0  0  0  0  0
   -0.8301    3.6720    0.0000 H   0  0  0  0  0  0  0  0  0  0  0  0
   -2.5156    2.8641    0.0000 H   0  0  0  0  0  0  0  0  0  0  0  0
    0.3343    2.2100    0.0000 C   0  0  0  0  0  0  0  0  0  0  0  0
    1.6842    2.8641    0.0000 H   0  0  0  0  0  0  0  0  0  0  0  0
   -0.0012    3.6720    0.0000 H   0  0  0  0  0  0  0  0  0  0  0  0
    1.2743    1.0400    0.0000 C   0  0  0  0  0  0  0  0  0  0  0  0
    2.7043    1.4800    0.0000 C   0  0  0  0  0  0  0  0  0  0  0  0
    3.0384    2.9423    0.0000 H   0  0  0  0  0  0  0  0  0  0  0  0
    3.8043    0.4600    0.0000 C   0  0  0  0  0  0  0  0  0  0  0  0
    5.2386    0.8992    0.0000 H   0  0  0  0  0  0  0  0  0  0  0  0
    3.4643   -1.0000    0.0000 C   0  0  0  0  0  0  0  0  0  0  0  0
    2.0343   -1.4400    0.0000 C   0  0  0  0  0  0  0  0  0  0  0  0
    1.7002   -2.9023    0.0000 H   0  0  0  0  0  0  0  0  0  0  0  0
    0.9343   -0.4200    0.0000 C   0  0  0  0  0  0  0  0  0  0  0  0
    4.5613   -2.0231    0.0000 O   0  0  0  0  0  0  0  0  0  0  0  0
    5.9958   -1.5846    0.0000 H   0  0  0  0  0  0  0  0  0  0  0  0
   -5.3927   -2.0231    0.0000 N   0  0  0  0  0  0  0  0  0  0  0  0
   -5.0552   -3.4846    0.0000 H   0  0  0  0  0  0  0  0  0  0  0  0
   -6.8271   -1.5846    0.0000 C   0  0  0  0  0  0  0  0  0  0  0  0
   -7.1647   -0.1230    0.0000 O   0  0  0  0  0  0  0  0  0  0  0  0
   -7.9241   -2.6076    0.0000 O   0  0  0  0  0  0  0  0  0  0  0  0
   -9.3586   -2.1692    0.0000 C   0  0  0  0  0  0  0  0  0  0  0  0
   -8.6777   -0.8326    0.0000 H   0  0  0  0  0  0  0  0  0  0  0  0
  -10.5566   -1.2665    0.0000 H   0  0  0  0  0  0  0  0  0  0  0  0
  -10.4556   -3.1922    0.0000 C   0  0  0  0  0  0  0  0  0  0  0  0
  -11.8901   -2.7537    0.0000 H   0  0  0  0  0  0  0  0  0  0  0  0
  -11.1365   -4.5288    0.0000 H   0  0  0  0  0  0  0  0  0  0  0  0
   -9.2576   -4.0949    0.0000 H   0  0  0  0  0  0  0  0  0  0  0  0
  1  2  1  0  0  0  0 
  1  3  1  0  0  0  0 
  1  4  1  0  0  0  0 
  1  5  1  0  0  0  0 
  5  6  1  0  0  0  0 
  5  7  1  0  0  0  0 
  5  8  1  0  0  0  0 
  8  9  1  0  0  0  0 
  9 10  1  0  0  0  0 
  9 11  1  0  0  0  0 
  9 12  1  0  0  0  0 
 12 13  1  0  0  0  0 
 12 14  1  0  0  0  0 
 12 15  1  0  0  0  0 
  8 16  1  0  0  0  0 
 16 17  1  0  0  0  0 
 16 18  1  0  0  0  0 
 16 19  1  0  0  0  0 
 19 20  2  0  0  0  0 
 19 21  1  0  0  0  0 
 21 22  1  0  0  0  0 
 22 23  2  0  0  0  0 
 23 24  1  0  0  0  0 
 23 25  1  0  0  0  0 
 25 26  2  0  0  0  0 
 26 27  1  0  0  0  0 
 26 28  1  0  0  0  0 
 28 29  1  0  0  0  0 
 28 30  2  0  0  0  0 
 22 30  1  0  0  0  0 
 30 31  1  0  0  0  0 
 31 32  1  0  0  0  0 
 31 33  1  0  0  0  0 
 31 34  1  0  0  0  0 
 34 35  1  0  0  0  0 
 34 36  1  0  0  0  0 
 34 37  1  0  0  0  0 
 37 38  2  0  0  0  0 
 38 39  1  0  0  0  0 
 38 40  1  0  0  0  0 
 40 41  1  0  0  0  0 
 40 42  2  0  0  0  0 
 42 43  1  0  0  0  0 
 43 44  1  0  0  0  0 
 43 45  2  0  0  0  0 
 37 45  1  0  0  0  0 
 21 45  1  0  0  0  0 
 42 46  1  0  0  0  0 
 46 47  1  0  0  0  0 
 25 48  1  0  0  0  0 
 48 49  1  0  0  0  0 
 48 50  1  0  0  0  0 
 50 51  2  0  0  0  0 
 50 52  1  0  0  0  0 
 52 53  1  0  0  0  0 
 53 54  1  0  0  0  0 
 53 55  1  0  0  0  0 
 53 56  1  0  0  0  0 
 56 57  1  0  0  0  0 
 56 58  1  0  0  0  0 
 56 59  1  0  0  0  0 
M  END
> <Rank>
6

> <Priority_score>
0.37155763604447045

> <Reaction_type>
aromatic_hydroxylation_(para_to_carbon)

> <Parent_ID>
26

> <Parent_InChI>
InChI=1S/C23H29N3O3/c1-4-25(5-2)16-22(27)26-20-10-8-7-9-17(20)11-12-18-13-14-19(15-21(18)26)24-23(28)29-6-3/h7-10,13-15H,4-6,11-12,16H2,1-3H3,(H,24,28)

> <Parent_SMILES>
CCOC(=O)Nc1ccc2c(c1)N(C(=O)CN(CC)CC)c1ccccc1CC2

$$$$
Molecule 26_metabolite 8
  CDK     0516241031

 59 61  0  0  0  0  0  0  0  0999 V2000
    2.5981   -7.7900    0.0000 C   0  0  0  0  0  0  0  0  0  0  0  0
    1.2990   -8.5400    0.0000 H   0  0  0  0  0  0  0  0  0  0  0  0
    4.0753   -7.5295    0.0000 H   0  0  0  0  0  0  0  0  0  0  0  0
    3.1111   -9.1995    0.0000 H   0  0  0  0  0  0  0  0  0  0  0  0
    2.5981   -6.2900    0.0000 C   0  0  0  0  0  0  0  0  0  0  0  0
    4.0753   -6.5505    0.0000 H   0  0  0  0  0  0  0  0  0  0  0  0
    3.1111   -4.8805    0.0000 H   0  0  0  0  0  0  0  0  0  0  0  0
    1.2990   -5.5400    0.0000 N   0  0  0  0  0  0  0  0  0  0  0  0
   -0.0000   -6.2900    0.0000 C   0  0  0  0  0  0  0  0  0  0  0  0
   -0.5130   -4.8805    0.0000 H   0  0  0  0  0  0  0  0  0  0  0  0
   -1.4772   -6.5505    0.0000 H   0  0  0  0  0  0  0  0  0  0  0  0
   -0.0000   -7.7900    0.0000 C   0  0  0  0  0  0  0  0  0  0  0  0
   -1.2990   -8.5400    0.0000 H   0  0  0  0  0  0  0  0  0  0  0  0
    0.5130   -9.1995    0.0000 H   0  0  0  0  0  0  0  0  0  0  0  0
    1.4772   -7.5295    0.0000 H   0  0  0  0  0  0  0  0  0  0  0  0
    1.2990   -3.5600    0.0000 C   0  0  0  0  0  0  0  0  0  0  0  0
    2.7762   -3.8205    0.0000 H   0  0  0  0  0  0  0  0  0  0  0  0
    1.8121   -2.1505    0.0000 H   0  0  0  0  0  0  0  0  0  0  0  0
   -0.0000   -2.8100    0.0000 C   0  0  0  0  0  0  0  0  0  0  0  0
   -1.2990   -3.5600    0.0000 O   0  0  0  0  0  0  0  0  0  0  0  0
    0.0000   -1.3100    0.0000 N   0  0  0  0  0  0  0  0  0  0  0  0
   -1.3500   -0.6600    0.0000 C   0  0  0  0  0  0  0  0  0  0  0  0
   -1.6900    0.8000    0.0000 C   0  0  0  0  0  0  0  0  0  0  0  0
   -3.1200    1.2400    0.0000 C   0  0  0  0  0  0  0  0  0  0  0  0
   -3.4541    2.7023    0.0000 H   0  0  0  0  0  0  0  0  0  0  0  0
   -4.2200    0.2200    0.0000 C   0  0  0  0  0  0  0  0  0  0  0  0
   -5.6543    0.6592    0.0000 H   0  0  0  0  0  0  0  0  0  0  0  0
   -3.8800   -1.2400    0.0000 C   0  0  0  0  0  0  0  0  0  0  0  0
   -4.9770   -2.2631    0.0000 H   0  0  0  0  0  0  0  0  0  0  0  0
   -2.4500   -1.6800    0.0000 C   0  0  0  0  0  0  0  0  0  0  0  0
   -2.1159   -3.1423    0.0000 H   0  0  0  0  0  0  0  0  0  0  0  0
   -0.7500    1.9700    0.0000 C   0  0  0  0  0  0  0  0  0  0  0  0
   -0.4145    3.4320    0.0000 H   0  0  0  0  0  0  0  0  0  0  0  0
    0.7500    1.9700    0.0000 C   0  0  0  0  0  0  0  0  0  0  0  0
    2.0999    2.6241    0.0000 H   0  0  0  0  0  0  0  0  0  0  0  0
    0.4145    3.4320    0.0000 H   0  0  0  0  0  0  0  0  0  0  0  0
    1.6900    0.8000    0.0000 C   0  0  0  0  0  0  0  0  0  0  0  0
    3.1200    1.2400    0.0000 C   0  0  0  0  0  0  0  0  0  0  0  0
    3.4541    2.7023    0.0000 H   0  0  0  0  0  0  0  0  0  0  0  0
    4.2200    0.2200    0.0000 C   0  0  0  0  0  0  0  0  0  0  0  0
    5.6543    0.6592    0.0000 H   0  0  0  0  0  0  0  0  0  0  0  0
    3.8800   -1.2400    0.0000 C   0  0  0  0  0  0  0  0  0  0  0  0
    2.4500   -1.6800    0.0000 C   0  0  0  0  0  0  0  0  0  0  0  0
    2.1159   -3.1423    0.0000 H   0  0  0  0  0  0  0  0  0  0  0  0
    1.3500   -0.6600    0.0000 C   0  0  0  0  0  0  0  0  0  0  0  0
    4.9770   -2.2631    0.0000 N   0  0  0  0  0  0  0  0  0  0  0  0
    4.6395   -3.7246    0.0000 H   0  0  0  0  0  0  0  0  0  0  0  0
    6.4115   -1.8246    0.0000 C   0  0  0  0  0  0  0  0  0  0  0  0
    6.7490   -0.3630    0.0000 O   0  0  0  0  0  0  0  0  0  0  0  0
    7.5084   -2.8476    0.0000 O   0  0  0  0  0  0  0  0  0  0  0  0
    8.9429   -2.4092    0.0000 C   0  0  0  0  0  0  0  0  0  0  0  0
   10.1409   -1.5065    0.0000 H   0  0  0  0  0  0  0  0  0  0  0  0
    8.2620   -1.0726    0.0000 H   0  0  0  0  0  0  0  0  0  0  0  0
   10.0399   -3.4322    0.0000 C   0  0  0  0  0  0  0  0  0  0  0  0
   11.4744   -2.9937    0.0000 H   0  0  0  0  0  0  0  0  0  0  0  0
    8.8419   -4.3349    0.0000 H   0  0  0  0  0  0  0  0  0  0  0  0
   10.7208   -4.7688    0.0000 H   0  0  0  0  0  0  0  0  0  0  0  0
   -2.0999    2.6241    0.0000 O   0  0  0  0  0  0  0  0  0  0  0  0
   -2.2084    4.1202    0.0000 H   0  0  0  0  0  0  0  0  0  0  0  0
  1  2  1  0  0  0  0 
  1  3  1  0  0  0  0 
  1  4  1  0  0  0  0 
  1  5  1  0  0  0  0 
  5  6  1  0  0  0  0 
  5  7  1  0  0  0  0 
  5  8  1  0  0  0  0 
  8  9  1  0  0  0  0 
  9 10  1  0  0  0  0 
  9 11  1  0  0  0  0 
  9 12  1  0  0  0  0 
 12 13  1  0  0  0  0 
 12 14  1  0  0  0  0 
 12 15  1  0  0  0  0 
  8 16  1  0  0  0  0 
 16 17  1  0  0  0  0 
 16 18  1  0  0  0  0 
 16 19  1  0  0  0  0 
 19 20  2  0  0  0  0 
 19 21  1  0  0  0  0 
 21 22  1  0  0  0  0 
 22 23  2  0  0  0  0 
 23 24  1  0  0  0  0 
 24 25  1  0  0  0  0 
 24 26  2  0  0  0  0 
 26 27  1  0  0  0  0 
 26 28  1  0  0  0  0 
 28 29  1  0  0  0  0 
 28 30  2  0  0  0  0 
 22 30  1  0  0  0  0 
 30 31  1  0  0  0  0 
 23 32  1  0  0  0  0 
 32 33  1  0  0  0  0 
 32 34  1  0  0  0  0 
 34 35  1  0  0  0  0 
 34 36  1  0  0  0  0 
 34 37  1  0  0  0  0 
 37 38  2  0  0  0  0 
 38 39  1  0  0  0  0 
 38 40  1  0  0  0  0 
 40 41  1  0  0  0  0 
 40 42  2  0  0  0  0 
 42 43  1  0  0  0  0 
 43 44  1  0  0  0  0 
 43 45  2  0  0  0  0 
 37 45  1  0  0  0  0 
 21 45  1  0  0  0  0 
 42 46  1  0  0  0  0 
 46 47  1  0  0  0  0 
 46 48  1  0  0  0  0 
 48 49  2  0  0  0  0 
 48 50  1  0  0  0  0 
 50 51  1  0  0  0  0 
 51 52  1  0  0  0  0 
 51 53  1  0  0  0  0 
 51 54  1  0  0  0  0 
 54 55  1  0  0  0  0 
 54 56  1  0  0  0  0 
 54 57  1  0  0  0  0 
 32 58  1  0  0  0  0 
 58 59  1  0  0  0  0 
M  END
> <Rank>
6

> <Priority_score>
0.37155763604447045

> <Reaction_type>
benzylic_hydroxylation_(c-CH2-CR)

> <Parent_ID>
26

> <Parent_InChI>
InChI=1S/C23H29N3O3/c1-4-25(5-2)16-22(27)26-20-10-8-7-9-17(20)11-12-18-13-14-19(15-21(18)26)24-23(28)29-6-3/h7-10,13-15H,4-6,11-12,16H2,1-3H3,(H,24,28)

> <Parent_SMILES>
CCOC(=O)Nc1ccc2c(c1)N(C(=O)CN(CC)CC)c1ccccc1CC2

$$$$
Molecule 26_metabolite 9
  CDK     0516241031

 59 61  0  0  0  0  0  0  0  0999 V2000
    2.5981   -7.7900    0.0000 C   0  0  0  0  0  0  0  0  0  0  0  0
    1.2990   -8.5400    0.0000 H   0  0  0  0  0  0  0  0  0  0  0  0
    4.0753   -7.5295    0.0000 H   0  0  0  0  0  0  0  0  0  0  0  0
    3.1111   -9.1995    0.0000 H   0  0  0  0  0  0  0  0  0  0  0  0
    2.5981   -6.2900    0.0000 C   0  0  0  0  0  0  0  0  0  0  0  0
    4.0753   -6.5505    0.0000 H   0  0  0  0  0  0  0  0  0  0  0  0
    3.1111   -4.8805    0.0000 H   0  0  0  0  0  0  0  0  0  0  0  0
    1.2990   -5.5400    0.0000 N   0  0  0  0  0  0  0  0  0  0  0  0
   -0.0000   -6.2900    0.0000 C   0  0  0  0  0  0  0  0  0  0  0  0
   -0.5130   -4.8805    0.0000 H   0  0  0  0  0  0  0  0  0  0  0  0
   -1.4772   -6.5505    0.0000 H   0  0  0  0  0  0  0  0  0  0  0  0
   -0.0000   -7.7900    0.0000 C   0  0  0  0  0  0  0  0  0  0  0  0
   -1.2990   -8.5400    0.0000 H   0  0  0  0  0  0  0  0  0  0  0  0
    0.5130   -9.1995    0.0000 H   0  0  0  0  0  0  0  0  0  0  0  0
    1.4772   -7.5295    0.0000 H   0  0  0  0  0  0  0  0  0  0  0  0
    1.2990   -3.5600    0.0000 C   0  0  0  0  0  0  0  0  0  0  0  0
    2.7762   -3.8205    0.0000 H   0  0  0  0  0  0  0  0  0  0  0  0
    1.8121   -2.1505    0.0000 H   0  0  0  0  0  0  0  0  0  0  0  0
   -0.0000   -2.8100    0.0000 C   0  0  0  0  0  0  0  0  0  0  0  0
   -1.2990   -3.5600    0.0000 O   0  0  0  0  0  0  0  0  0  0  0  0
    0.0000   -1.3100    0.0000 N   0  0  0  0  0  0  0  0  0  0  0  0
   -1.3500   -0.6600    0.0000 C   0  0  0  0  0  0  0  0  0  0  0  0
   -1.6900    0.8000    0.0000 C   0  0  0  0  0  0  0  0  0  0  0  0
   -3.1200    1.2400    0.0000 C   0  0  0  0  0  0  0  0  0  0  0  0
   -3.4541    2.7023    0.0000 H   0  0  0  0  0  0  0  0  0  0  0  0
   -4.2200    0.2200    0.0000 C   0  0  0  0  0  0  0  0  0  0  0  0
   -5.6543    0.6592    0.0000 H   0  0  0  0  0  0  0  0  0  0  0  0
   -3.8800   -1.2400    0.0000 C   0  0  0  0  0  0  0  0  0  0  0  0
   -4.9770   -2.2631    0.0000 H   0  0  0  0  0  0  0  0  0  0  0  0
   -2.4500   -1.6800    0.0000 C   0  0  0  0  0  0  0  0  0  0  0  0
   -2.1159   -3.1423    0.0000 H   0  0  0  0  0  0  0  0  0  0  0  0
   -0.7500    1.9700    0.0000 C   0  0  0  0  0  0  0  0  0  0  0  0
   -0.4145    3.4320    0.0000 H   0  0  0  0  0  0  0  0  0  0  0  0
   -2.0999    2.6241    0.0000 H   0  0  0  0  0  0  0  0  0  0  0  0
    0.7500    1.9700    0.0000 C   0  0  0  0  0  0  0  0  0  0  0  0
    2.0999    2.6241    0.0000 H   0  0  0  0  0  0  0  0  0  0  0  0
    1.6900    0.8000    0.0000 C   0  0  0  0  0  0  0  0  0  0  0  0
    3.1200    1.2400    0.0000 C   0  0  0  0  0  0  0  0  0  0  0  0
    3.4541    2.7023    0.0000 H   0  0  0  0  0  0  0  0  0  0  0  0
    4.2200    0.2200    0.0000 C   0  0  0  0  0  0  0  0  0  0  0  0
    5.6543    0.6592    0.0000 H   0  0  0  0  0  0  0  0  0  0  0  0
    3.8800   -1.2400    0.0000 C   0  0  0  0  0  0  0  0  0  0  0  0
    2.4500   -1.6800    0.0000 C   0  0  0  0  0  0  0  0  0  0  0  0
    2.1159   -3.1423    0.0000 H   0  0  0  0  0  0  0  0  0  0  0  0
    1.3500   -0.6600    0.0000 C   0  0  0  0  0  0  0  0  0  0  0  0
    4.9770   -2.2631    0.0000 N   0  0  0  0  0  0  0  0  0  0  0  0
    4.6395   -3.7246    0.0000 H   0  0  0  0  0  0  0  0  0  0  0  0
    6.4115   -1.8246    0.0000 C   0  0  0  0  0  0  0  0  0  0  0  0
    6.7490   -0.3630    0.0000 O   0  0  0  0  0  0  0  0  0  0  0  0
    7.5084   -2.8476    0.0000 O   0  0  0  0  0  0  0  0  0  0  0  0
    8.9429   -2.4092    0.0000 C   0  0  0  0  0  0  0  0  0  0  0  0
   10.1409   -1.5065    0.0000 H   0  0  0  0  0  0  0  0  0  0  0  0
    8.2620   -1.0726    0.0000 H   0  0  0  0  0  0  0  0  0  0  0  0
   10.0399   -3.4322    0.0000 C   0  0  0  0  0  0  0  0  0  0  0  0
   11.4744   -2.9937    0.0000 H   0  0  0  0  0  0  0  0  0  0  0  0
    8.8419   -4.3349    0.0000 H   0  0  0  0  0  0  0  0  0  0  0  0
   10.7208   -4.7688    0.0000 H   0  0  0  0  0  0  0  0  0  0  0  0
    0.4145    3.4320    0.0000 O   0  0  0  0  0  0  0  0  0  0  0  0
    1.5128    4.4536    0.0000 H   0  0  0  0  0  0  0  0  0  0  0  0
  1  2  1  0  0  0  0 
  1  3  1  0  0  0  0 
  1  4  1  0  0  0  0 
  1  5  1  0  0  0  0 
  5  6  1  0  0  0  0 
  5  7  1  0  0  0  0 
  5  8  1  0  0  0  0 
  8  9  1  0  0  0  0 
  9 10  1  0  0  0  0 
  9 11  1  0  0  0  0 
  9 12  1  0  0  0  0 
 12 13  1  0  0  0  0 
 12 14  1  0  0  0  0 
 12 15  1  0  0  0  0 
  8 16  1  0  0  0  0 
 16 17  1  0  0  0  0 
 16 18  1  0  0  0  0 
 16 19  1  0  0  0  0 
 19 20  2  0  0  0  0 
 19 21  1  0  0  0  0 
 21 22  1  0  0  0  0 
 22 23  2  0  0  0  0 
 23 24  1  0  0  0  0 
 24 25  1  0  0  0  0 
 24 26  2  0  0  0  0 
 26 27  1  0  0  0  0 
 26 28  1  0  0  0  0 
 28 29  1  0  0  0  0 
 28 30  2  0  0  0  0 
 22 30  1  0  0  0  0 
 30 31  1  0  0  0  0 
 23 32  1  0  0  0  0 
 32 33  1  0  0  0  0 
 32 34  1  0  0  0  0 
 32 35  1  0  0  0  0 
 35 36  1  0  0  0  0 
 35 37  1  0  0  0  0 
 37 38  2  0  0  0  0 
 38 39  1  0  0  0  0 
 38 40  1  0  0  0  0 
 40 41  1  0  0  0  0 
 40 42  2  0  0  0  0 
 42 43  1  0  0  0  0 
 43 44  1  0  0  0  0 
 43 45  2  0  0  0  0 
 37 45  1  0  0  0  0 
 21 45  1  0  0  0  0 
 42 46  1  0  0  0  0 
 46 47  1  0  0  0  0 
 46 48  1  0  0  0  0 
 48 49  2  0  0  0  0 
 48 50  1  0  0  0  0 
 50 51  1  0  0  0  0 
 51 52  1  0  0  0  0 
 51 53  1  0  0  0  0 
 51 54  1  0  0  0  0 
 54 55  1  0  0  0  0 
 54 56  1  0  0  0  0 
 54 57  1  0  0  0  0 
 35 58  1  0  0  0  0 
 58 59  1  0  0  0  0 
M  END
> <Rank>
6

> <Priority_score>
0.37155763604447045

> <Reaction_type>
benzylic_hydroxylation_(c-CH2-CR)

> <Parent_ID>
26

> <Parent_InChI>
InChI=1S/C23H29N3O3/c1-4-25(5-2)16-22(27)26-20-10-8-7-9-17(20)11-12-18-13-14-19(15-21(18)26)24-23(28)29-6-3/h7-10,13-15H,4-6,11-12,16H2,1-3H3,(H,24,28)

> <Parent_SMILES>
CCOC(=O)Nc1ccc2c(c1)N(C(=O)CN(CC)CC)c1ccccc1CC2

$$$$
Molecule 26_metabolite 10
  CDK     0516241031

 59 61  0  0  0  0  0  0  0  0999 V2000
    2.5981   -7.7900    0.0000 C   0  0  0  0  0  0  0  0  0  0  0  0
    1.2990   -8.5400    0.0000 H   0  0  0  0  0  0  0  0  0  0  0  0
    4.0753   -7.5295    0.0000 H   0  0  0  0  0  0  0  0  0  0  0  0
    3.1111   -9.1995    0.0000 H   0  0  0  0  0  0  0  0  0  0  0  0
    2.5981   -6.2900    0.0000 C   0  0  0  0  0  0  0  0  0  0  0  0
    4.0753   -6.5505    0.0000 H   0  0  0  0  0  0  0  0  0  0  0  0
    3.1111   -4.8805    0.0000 H   0  0  0  0  0  0  0  0  0  0  0  0
    1.2990   -5.5400    0.0000 N   0  0  0  0  0  0  0  0  0  0  0  0
   -0.0000   -6.2900    0.0000 C   0  0  0  0  0  0  0  0  0  0  0  0
   -0.5130   -4.8805    0.0000 H   0  0  0  0  0  0  0  0  0  0  0  0
   -1.4772   -6.5505    0.0000 H   0  0  0  0  0  0  0  0  0  0  0  0
   -0.0000   -7.7900    0.0000 C   0  0  0  0  0  0  0  0  0  0  0  0
   -1.2990   -8.5400    0.0000 H   0  0  0  0  0  0  0  0  0  0  0  0
    0.5130   -9.1995    0.0000 H   0  0  0  0  0  0  0  0  0  0  0  0
    1.4772   -7.5295    0.0000 H   0  0  0  0  0  0  0  0  0  0  0  0
    1.2990   -3.5600    0.0000 C   0  0  0  0  0  0  0  0  0  0  0  0
    2.7762   -3.8205    0.0000 H   0  0  0  0  0  0  0  0  0  0  0  0
    1.8121   -2.1505    0.0000 H   0  0  0  0  0  0  0  0  0  0  0  0
   -0.0000   -2.8100    0.0000 C   0  0  0  0  0  0  0  0  0  0  0  0
   -1.2990   -3.5600    0.0000 O   0  0  0  0  0  0  0  0  0  0  0  0
    0.0000   -1.3100    0.0000 N   0  0  0  0  0  0  0  0  0  0  0  0
   -1.3500   -0.6600    0.0000 C   0  0  0  0  0  0  0  0  0  0  0  0
   -1.6900    0.8000    0.0000 C   0  0  0  0  0  0  0  0  0  0  0  0
   -3.1200    1.2400    0.0000 C   0  0  0  0  0  0  0  0  0  0  0  0
   -3.4541    2.7023    0.0000 H   0  0  0  0  0  0  0  0  0  0  0  0
   -4.2200    0.2200    0.0000 C   0  0  0  0  0  0  0  0  0  0  0  0
   -5.6543    0.6592    0.0000 H   0  0  0  0  0  0  0  0  0  0  0  0
   -3.8800   -1.2400    0.0000 C   0  0  0  0  0  0  0  0  0  0  0  0
   -4.9770   -2.2631    0.0000 H   0  0  0  0  0  0  0  0  0  0  0  0
   -2.4500   -1.6800    0.0000 C   0  0  0  0  0  0  0  0  0  0  0  0
   -2.1159   -3.1423    0.0000 H   0  0  0  0  0  0  0  0  0  0  0  0
   -0.7500    1.9700    0.0000 C   0  0  0  0  0  0  0  0  0  0  0  0
   -0.4145    3.4320    0.0000 H   0  0  0  0  0  0  0  0  0  0  0  0
   -2.0999    2.6241    0.0000 H   0  0  0  0  0  0  0  0  0  0  0  0
    0.7500    1.9700    0.0000 C   0  0  0  0  0  0  0  0  0  0  0  0
    2.0999    2.6241    0.0000 H   0  0  0  0  0  0  0  0  0  0  0  0
    0.4145    3.4320    0.0000 H   0  0  0  0  0  0  0  0  0  0  0  0
    1.6900    0.8000    0.0000 C   0  0  0  0  0  0  0  0  0  0  0  0
    3.1200    1.2400    0.0000 C   0  0  0  0  0  0  0  0  0  0  0  0
    3.4541    2.7023    0.0000 H   0  0  0  0  0  0  0  0  0  0  0  0
    4.2200    0.2200    0.0000 C   0  0  0  0  0  0  0  0  0  0  0  0
    5.6543    0.6592    0.0000 H   0  0  0  0  0  0  0  0  0  0  0  0
    3.8800   -1.2400    0.0000 C   0  0  0  0  0  0  0  0  0  0  0  0
    2.4500   -1.6800    0.0000 C   0  0  0  0  0  0  0  0  0  0  0  0
    2.1159   -3.1423    0.0000 H   0  0  0  0  0  0  0  0  0  0  0  0
    1.3500   -0.6600    0.0000 C   0  0  0  0  0  0  0  0  0  0  0  0
    4.9770   -2.2631    0.0000 N   0  0  0  0  0  0  0  0  0  0  0  0
    4.6395   -3.7246    0.0000 H   0  0  0  0  0  0  0  0  0  0  0  0
    6.4115   -1.8246    0.0000 C   0  0  0  0  0  0  0  0  0  0  0  0
    6.7490   -0.3630    0.0000 O   0  0  0  0  0  0  0  0  0  0  0  0
    7.5084   -2.8476    0.0000 O   0  0  0  0  0  0  0  0  0  0  0  0
    8.9429   -2.4092    0.0000 C   0  0  0  0  0  0  0  0  0  0  0  0
   10.1409   -1.5065    0.0000 H   0  0  0  0  0  0  0  0  0  0  0  0
   10.0399   -3.4322    0.0000 C   0  0  0  0  0  0  0  0  0  0  0  0
   11.4744   -2.9937    0.0000 H   0  0  0  0  0  0  0  0  0  0  0  0
    8.8419   -4.3349    0.0000 H   0  0  0  0  0  0  0  0  0  0  0  0
   10.7208   -4.7688    0.0000 H   0  0  0  0  0  0  0  0  0  0  0  0
    8.2620   -1.0726    0.0000 O   0  0  0  0  0  0  0  0  0  0  0  0
    9.0790    0.1853    0.0000 H   0  0  0  0  0  0  0  0  0  0  0  0
  1  2  1  0  0  0  0 
  1  3  1  0  0  0  0 
  1  4  1  0  0  0  0 
  1  5  1  0  0  0  0 
  5  6  1  0  0  0  0 
  5  7  1  0  0  0  0 
  5  8  1  0  0  0  0 
  8  9  1  0  0  0  0 
  9 10  1  0  0  0  0 
  9 11  1  0  0  0  0 
  9 12  1  0  0  0  0 
 12 13  1  0  0  0  0 
 12 14  1  0  0  0  0 
 12 15  1  0  0  0  0 
  8 16  1  0  0  0  0 
 16 17  1  0  0  0  0 
 16 18  1  0  0  0  0 
 16 19  1  0  0  0  0 
 19 20  2  0  0  0  0 
 19 21  1  0  0  0  0 
 21 22  1  0  0  0  0 
 22 23  2  0  0  0  0 
 23 24  1  0  0  0  0 
 24 25  1  0  0  0  0 
 24 26  2  0  0  0  0 
 26 27  1  0  0  0  0 
 26 28  1  0  0  0  0 
 28 29  1  0  0  0  0 
 28 30  2  0  0  0  0 
 22 30  1  0  0  0  0 
 30 31  1  0  0  0  0 
 23 32  1  0  0  0  0 
 32 33  1  0  0  0  0 
 32 34  1  0  0  0  0 
 32 35  1  0  0  0  0 
 35 36  1  0  0  0  0 
 35 37  1  0  0  0  0 
 35 38  1  0  0  0  0 
 38 39  2  0  0  0  0 
 39 40  1  0  0  0  0 
 39 41  1  0  0  0  0 
 41 42  1  0  0  0  0 
 41 43  2  0  0  0  0 
 43 44  1  0  0  0  0 
 44 45  1  0  0  0  0 
 44 46  2  0  0  0  0 
 38 46  1  0  0  0  0 
 21 46  1  0  0  0  0 
 43 47  1  0  0  0  0 
 47 48  1  0  0  0  0 
 47 49  1  0  0  0  0 
 49 50  2  0  0  0  0 
 49 51  1  0  0  0  0 
 51 52  1  0  0  0  0 
 52 53  1  0  0  0  0 
 52 54  1  0  0  0  0 
 54 55  1  0  0  0  0 
 54 56  1  0  0  0  0 
 54 57  1  0  0  0  0 
 52 58  1  0  0  0  0 
 58 59  1  0  0  0  0 
M  END
> <Rank>
10

> <Priority_score>
0.36737122262267813

> <Reaction_type>
aliphatic hydroxylation

> <Parent_ID>
26

> <Parent_InChI>
InChI=1S/C23H29N3O3/c1-4-25(5-2)16-22(27)26-20-10-8-7-9-17(20)11-12-18-13-14-19(15-21(18)26)24-23(28)29-6-3/h7-10,13-15H,4-6,11-12,16H2,1-3H3,(H,24,28)

> <Parent_SMILES>
CCOC(=O)Nc1ccc2c(c1)N(C(=O)CN(CC)CC)c1ccccc1CC2

$$$$
Molecule 26_metabolite 11
  CDK     0516241031

 52 54  0  0  0  0  0  0  0  0999 V2000
    2.5981   -7.7900    0.0000 C   0  0  0  0  0  0  0  0  0  0  0  0
    1.2990   -8.5400    0.0000 H   0  0  0  0  0  0  0  0  0  0  0  0
    4.0753   -7.5295    0.0000 H   0  0  0  0  0  0  0  0  0  0  0  0
    3.1111   -9.1995    0.0000 H   0  0  0  0  0  0  0  0  0  0  0  0
    2.5981   -6.2900    0.0000 C   0  0  0  0  0  0  0  0  0  0  0  0
    4.0753   -6.5505    0.0000 H   0  0  0  0  0  0  0  0  0  0  0  0
    3.1111   -4.8805    0.0000 H   0  0  0  0  0  0  0  0  0  0  0  0
    1.2990   -5.5400    0.0000 N   0  0  0  0  0  0  0  0  0  0  0  0
   -0.0000   -6.2900    0.0000 C   0  0  0  0  0  0  0  0  0  0  0  0
   -0.5130   -4.8805    0.0000 H   0  0  0  0  0  0  0  0  0  0  0  0
   -1.4772   -6.5505    0.0000 H   0  0  0  0  0  0  0  0  0  0  0  0
   -0.0000   -7.7900    0.0000 C   0  0  0  0  0  0  0  0  0  0  0  0
   -1.2990   -8.5400    0.0000 H   0  0  0  0  0  0  0  0  0  0  0  0
    0.5130   -9.1995    0.0000 H   0  0  0  0  0  0  0  0  0  0  0  0
    1.4772   -7.5295    0.0000 H   0  0  0  0  0  0  0  0  0  0  0  0
    1.2990   -3.5600    0.0000 C   0  0  0  0  0  0  0  0  0  0  0  0
    2.7762   -3.8205    0.0000 H   0  0  0  0  0  0  0  0  0  0  0  0
    1.8121   -2.1505    0.0000 H   0  0  0  0  0  0  0  0  0  0  0  0
   -0.0000   -2.8100    0.0000 C   0  0  0  0  0  0  0  0  0  0  0  0
   -1.2990   -3.5600    0.0000 O   0  0  0  0  0  0  0  0  0  0  0  0
    0.0000   -1.3100    0.0000 N   0  0  0  0  0  0  0  0  0  0  0  0
   -1.3500   -0.6600    0.0000 C   0  0  0  0  0  0  0  0  0  0  0  0
   -1.6900    0.8000    0.0000 C   0  0  0  0  0  0  0  0  0  0  0  0
   -3.1200    1.2400    0.0000 C   0  0  0  0  0  0  0  0  0  0  0  0
   -3.4541    2.7023    0.0000 H   0  0  0  0  0  0  0  0  0  0  0  0
   -4.2200    0.2200    0.0000 C   0  0  0  0  0  0  0  0  0  0  0  0
   -5.6543    0.6592    0.0000 H   0  0  0  0  0  0  0  0  0  0  0  0
   -3.8800   -1.2400    0.0000 C   0  0  0  0  0  0  0  0  0  0  0  0
   -4.9770   -2.2631    0.0000 H   0  0  0  0  0  0  0  0  0  0  0  0
   -2.4500   -1.6800    0.0000 C   0  0  0  0  0  0  0  0  0  0  0  0
   -2.1159   -3.1423    0.0000 H   0  0  0  0  0  0  0  0  0  0  0  0
   -0.7500    1.9700    0.0000 C   0  0  0  0  0  0  0  0  0  0  0  0
   -0.4145    3.4320    0.0000 H   0  0  0  0  0  0  0  0  0  0  0  0
   -2.0999    2.6241    0.0000 H   0  0  0  0  0  0  0  0  0  0  0  0
    0.7500    1.9700    0.0000 C   0  0  0  0  0  0  0  0  0  0  0  0
    2.0999    2.6241    0.0000 H   0  0  0  0  0  0  0  0  0  0  0  0
    0.4145    3.4320    0.0000 H   0  0  0  0  0  0  0  0  0  0  0  0
    1.6900    0.8000    0.0000 C   0  0  0  0  0  0  0  0  0  0  0  0
    3.1200    1.2400    0.0000 C   0  0  0  0  0  0  0  0  0  0  0  0
    3.4541    2.7023    0.0000 H   0  0  0  0  0  0  0  0  0  0  0  0
    4.2200    0.2200    0.0000 C   0  0  0  0  0  0  0  0  0  0  0  0
    5.6543    0.6592    0.0000 H   0  0  0  0  0  0  0  0  0  0  0  0
    3.8800   -1.2400    0.0000 C   0  0  0  0  0  0  0  0  0  0  0  0
    2.4500   -1.6800    0.0000 C   0  0  0  0  0  0  0  0  0  0  0  0
    2.1159   -3.1423    0.0000 H   0  0  0  0  0  0  0  0  0  0  0  0
    1.3500   -0.6600    0.0000 C   0  0  0  0  0  0  0  0  0  0  0  0
    4.9770   -2.2631    0.0000 N   0  0  0  0  0  0  0  0  0  0  0  0
    4.6395   -3.7246    0.0000 H   0  0  0  0  0  0  0  0  0  0  0  0
    6.4115   -1.8246    0.0000 C   0  0  0  0  0  0  0  0  0  0  0  0
    6.7490   -0.3630    0.0000 O   0  0  0  0  0  0  0  0  0  0  0  0
    7.5084   -2.8476    0.0000 O   0  0  0  0  0  0  0  0  0  0  0  0
    8.9429   -2.4092    0.0000 H   0  0  0  0  0  0  0  0  0  0  0  0
  1  2  1  0  0  0  0 
  1  3  1  0  0  0  0 
  1  4  1  0  0  0  0 
  1  5  1  0  0  0  0 
  5  6  1  0  0  0  0 
  5  7  1  0  0  0  0 
  5  8  1  0  0  0  0 
  8  9  1  0  0  0  0 
  9 10  1  0  0  0  0 
  9 11  1  0  0  0  0 
  9 12  1  0  0  0  0 
 12 13  1  0  0  0  0 
 12 14  1  0  0  0  0 
 12 15  1  0  0  0  0 
  8 16  1  0  0  0  0 
 16 17  1  0  0  0  0 
 16 18  1  0  0  0  0 
 16 19  1  0  0  0  0 
 19 20  2  0  0  0  0 
 19 21  1  0  0  0  0 
 21 22  1  0  0  0  0 
 22 23  2  0  0  0  0 
 23 24  1  0  0  0  0 
 24 25  1  0  0  0  0 
 24 26  2  0  0  0  0 
 26 27  1  0  0  0  0 
 26 28  1  0  0  0  0 
 28 29  1  0  0  0  0 
 28 30  2  0  0  0  0 
 22 30  1  0  0  0  0 
 30 31  1  0  0  0  0 
 23 32  1  0  0  0  0 
 32 33  1  0  0  0  0 
 32 34  1  0  0  0  0 
 32 35  1  0  0  0  0 
 35 36  1  0  0  0  0 
 35 37  1  0  0  0  0 
 35 38  1  0  0  0  0 
 38 39  2  0  0  0  0 
 39 40  1  0  0  0  0 
 39 41  1  0  0  0  0 
 41 42  1  0  0  0  0 
 41 43  2  0  0  0  0 
 43 44  1  0  0  0  0 
 44 45  1  0  0  0  0 
 44 46  2  0  0  0  0 
 38 46  1  0  0  0  0 
 21 46  1  0  0  0  0 
 43 47  1  0  0  0  0 
 47 48  1  0  0  0  0 
 47 49  1  0  0  0  0 
 49 50  2  0  0  0  0 
 49 51  1  0  0  0  0 
 51 52  1  0  0  0  0 
M  END
> <Rank>
10

> <Priority_score>
0.36737122262267813

> <Reaction_type>
hydrolysis_(urea_or_carbonate)

> <Parent_ID>
26

> <Parent_InChI>
InChI=1S/C23H29N3O3/c1-4-25(5-2)16-22(27)26-20-10-8-7-9-17(20)11-12-18-13-14-19(15-21(18)26)24-23(28)29-6-3/h7-10,13-15H,4-6,11-12,16H2,1-3H3,(H,24,28)

> <Parent_SMILES>
CCOC(=O)Nc1ccc2c(c1)N(C(=O)CN(CC)CC)c1ccccc1CC2

$$$$
Molecule 26_metabolite 12
  CDK     0516241031

 49 51  0  0  0  0  0  0  0  0999 V2000
    2.5981   -7.7900    0.0000 C   0  0  0  0  0  0  0  0  0  0  0  0
    1.2990   -8.5400    0.0000 H   0  0  0  0  0  0  0  0  0  0  0  0
    4.0753   -7.5295    0.0000 H   0  0  0  0  0  0  0  0  0  0  0  0
    3.1111   -9.1995    0.0000 H   0  0  0  0  0  0  0  0  0  0  0  0
    2.5981   -6.2900    0.0000 C   0  0  0  0  0  0  0  0  0  0  0  0
    4.0753   -6.5505    0.0000 H   0  0  0  0  0  0  0  0  0  0  0  0
    3.1111   -4.8805    0.0000 H   0  0  0  0  0  0  0  0  0  0  0  0
    1.2990   -5.5400    0.0000 N   0  0  0  0  0  0  0  0  0  0  0  0
   -0.0000   -6.2900    0.0000 C   0  0  0  0  0  0  0  0  0  0  0  0
   -0.5130   -4.8805    0.0000 H   0  0  0  0  0  0  0  0  0  0  0  0
   -1.4772   -6.5505    0.0000 H   0  0  0  0  0  0  0  0  0  0  0  0
   -0.0000   -7.7900    0.0000 C   0  0  0  0  0  0  0  0  0  0  0  0
   -1.2990   -8.5400    0.0000 H   0  0  0  0  0  0  0  0  0  0  0  0
    0.5130   -9.1995    0.0000 H   0  0  0  0  0  0  0  0  0  0  0  0
    1.4772   -7.5295    0.0000 H   0  0  0  0  0  0  0  0  0  0  0  0
    1.2990   -3.5600    0.0000 C   0  0  0  0  0  0  0  0  0  0  0  0
    2.7762   -3.8205    0.0000 H   0  0  0  0  0  0  0  0  0  0  0  0
    1.8121   -2.1505    0.0000 H   0  0  0  0  0  0  0  0  0  0  0  0
   -0.0000   -2.8100    0.0000 C   0  0  0  0  0  0  0  0  0  0  0  0
   -1.2990   -3.5600    0.0000 O   0  0  0  0  0  0  0  0  0  0  0  0
    0.0000   -1.3100    0.0000 N   0  0  0  0  0  0  0  0  0  0  0  0
   -1.3500   -0.6600    0.0000 C   0  0  0  0  0  0  0  0  0  0  0  0
   -1.6900    0.8000    0.0000 C   0  0  0  0  0  0  0  0  0  0  0  0
   -3.1200    1.2400    0.0000 C   0  0  0  0  0  0  0  0  0  0  0  0
   -3.4541    2.7023    0.0000 H   0  0  0  0  0  0  0  0  0  0  0  0
   -4.2200    0.2200    0.0000 C   0  0  0  0  0  0  0  0  0  0  0  0
   -5.6543    0.6592    0.0000 H   0  0  0  0  0  0  0  0  0  0  0  0
   -3.8800   -1.2400    0.0000 C   0  0  0  0  0  0  0  0  0  0  0  0
   -4.9770   -2.2631    0.0000 H   0  0  0  0  0  0  0  0  0  0  0  0
   -2.4500   -1.6800    0.0000 C   0  0  0  0  0  0  0  0  0  0  0  0
   -2.1159   -3.1423    0.0000 H   0  0  0  0  0  0  0  0  0  0  0  0
   -0.7500    1.9700    0.0000 C   0  0  0  0  0  0  0  0  0  0  0  0
   -0.4145    3.4320    0.0000 H   0  0  0  0  0  0  0  0  0  0  0  0
   -2.0999    2.6241    0.0000 H   0  0  0  0  0  0  0  0  0  0  0  0
    0.7500    1.9700    0.0000 C   0  0  0  0  0  0  0  0  0  0  0  0
    2.0999    2.6241    0.0000 H   0  0  0  0  0  0  0  0  0  0  0  0
    0.4145    3.4320    0.0000 H   0  0  0  0  0  0  0  0  0  0  0  0
    1.6900    0.8000    0.0000 C   0  0  0  0  0  0  0  0  0  0  0  0
    3.1200    1.2400    0.0000 C   0  0  0  0  0  0  0  0  0  0  0  0
    3.4541    2.7023    0.0000 H   0  0  0  0  0  0  0  0  0  0  0  0
    4.2200    0.2200    0.0000 C   0  0  0  0  0  0  0  0  0  0  0  0
    5.6543    0.6592    0.0000 H   0  0  0  0  0  0  0  0  0  0  0  0
    3.8800   -1.2400    0.0000 C   0  0  0  0  0  0  0  0  0  0  0  0
    2.4500   -1.6800    0.0000 C   0  0  0  0  0  0  0  0  0  0  0  0
    2.1159   -3.1423    0.0000 H   0  0  0  0  0  0  0  0  0  0  0  0
    1.3500   -0.6600    0.0000 C   0  0  0  0  0  0  0  0  0  0  0  0
    4.9770   -2.2631    0.0000 N   0  0  0  0  0  0  0  0  0  0  0  0
    6.4115   -1.8246    0.0000 H   0  0  0  0  0  0  0  0  0  0  0  0
    4.6395   -3.7246    0.0000 H   0  0  0  0  0  0  0  0  0  0  0  0
  1  2  1  0  0  0  0 
  1  3  1  0  0  0  0 
  1  4  1  0  0  0  0 
  1  5  1  0  0  0  0 
  5  6  1  0  0  0  0 
  5  7  1  0  0  0  0 
  5  8  1  0  0  0  0 
  8  9  1  0  0  0  0 
  9 10  1  0  0  0  0 
  9 11  1  0  0  0  0 
  9 12  1  0  0  0  0 
 12 13  1  0  0  0  0 
 12 14  1  0  0  0  0 
 12 15  1  0  0  0  0 
  8 16  1  0  0  0  0 
 16 17  1  0  0  0  0 
 16 18  1  0  0  0  0 
 16 19  1  0  0  0  0 
 19 20  2  0  0  0  0 
 19 21  1  0  0  0  0 
 21 22  1  0  0  0  0 
 22 23  2  0  0  0  0 
 23 24  1  0  0  0  0 
 24 25  1  0  0  0  0 
 24 26  2  0  0  0  0 
 26 27  1  0  0  0  0 
 26 28  1  0  0  0  0 
 28 29  1  0  0  0  0 
 28 30  2  0  0  0  0 
 22 30  1  0  0  0  0 
 30 31  1  0  0  0  0 
 23 32  1  0  0  0  0 
 32 33  1  0  0  0  0 
 32 34  1  0  0  0  0 
 32 35  1  0  0  0  0 
 35 36  1  0  0  0  0 
 35 37  1  0  0  0  0 
 35 38  1  0  0  0  0 
 38 39  2  0  0  0  0 
 39 40  1  0  0  0  0 
 39 41  1  0  0  0  0 
 41 42  1  0  0  0  0 
 41 43  2  0  0  0  0 
 43 44  1  0  0  0  0 
 44 45  1  0  0  0  0 
 44 46  2  0  0  0  0 
 38 46  1  0  0  0  0 
 21 46  1  0  0  0  0 
 43 47  1  0  0  0  0 
 47 48  1  0  0  0  0 
 47 49  1  0  0  0  0 
M  END
> <Rank>
12

> <Priority_score>
0.224

> <Reaction_type>
hydrolysis_(urea_or_carbonate)

> <Parent_ID>
26

> <Parent_InChI>
InChI=1S/C23H29N3O3/c1-4-25(5-2)16-22(27)26-20-10-8-7-9-17(20)11-12-18-13-14-19(15-21(18)26)24-23(28)29-6-3/h7-10,13-15H,4-6,11-12,16H2,1-3H3,(H,24,28)

> <Parent_SMILES>
CCOC(=O)Nc1ccc2c(c1)N(C(=O)CN(CC)CC)c1ccccc1CC2

$$$$
Molecule 26_metabolite 13
  CDK     0516241031

 12 11  0  0  0  0  0  0  0  0999 V2000
    1.2990   -0.7500    0.0000 C   0  0  0  0  0  0  0  0  0  0  0  0
    0.0000    0.0000    0.0000 H   0  0  0  0  0  0  0  0  0  0  0  0
    0.3349   -1.8991    0.0000 H   0  0  0  0  0  0  0  0  0  0  0  0
    2.2632   -1.8991    0.0000 H   0  0  0  0  0  0  0  0  0  0  0  0
    2.5981   -0.0000    0.0000 C   0  0  0  0  0  0  0  0  0  0  0  0
    3.5623    1.1491    0.0000 H   0  0  0  0  0  0  0  0  0  0  0  0
    1.6339    1.1491    0.0000 H   0  0  0  0  0  0  0  0  0  0  0  0
    3.8971   -0.7500    0.0000 O   0  0  0  0  0  0  0  0  0  0  0  0
    5.1962   -0.0000    0.0000 C   0  0  0  0  0  0  0  0  0  0  0  0
    5.1962    1.5000    0.0000 O   0  0  0  0  0  0  0  0  0  0  0  0
    6.4952   -0.7500    0.0000 O   0  0  0  0  0  0  0  0  0  0  0  0
    7.7942   -0.0000    0.0000 H   0  0  0  0  0  0  0  0  0  0  0  0
  1  2  1  0  0  0  0 
  1  3  1  0  0  0  0 
  1  4  1  0  0  0  0 
  1  5  1  0  0  0  0 
  5  6  1  0  0  0  0 
  5  7  1  0  0  0  0 
  5  8  1  0  0  0  0 
  8  9  1  0  0  0  0 
  9 10  2  0  0  0  0 
  9 11  1  0  0  0  0 
 11 12  1  0  0  0  0 
M  END
> <Rank>
12

> <Priority_score>
0.224

> <Reaction_type>
hydrolysis_(urea_or_carbonate)

> <Parent_ID>
26

> <Parent_InChI>
InChI=1S/C23H29N3O3/c1-4-25(5-2)16-22(27)26-20-10-8-7-9-17(20)11-12-18-13-14-19(15-21(18)26)24-23(28)29-6-3/h7-10,13-15H,4-6,11-12,16H2,1-3H3,(H,24,28)

> <Parent_SMILES>
CCOC(=O)Nc1ccc2c(c1)N(C(=O)CN(CC)CC)c1ccccc1CC2

$$$$
Molecule 26_metabolite 14
  CDK     0516241031

 59 61  0  0  0  0  0  0  0  0999 V2000
    2.5981   -7.7900    0.0000 C   0  0  0  0  0  0  0  0  0  0  0  0
    1.2990   -8.5400    0.0000 H   0  0  0  0  0  0  0  0  0  0  0  0
    4.0753   -7.5295    0.0000 H   0  0  0  0  0  0  0  0  0  0  0  0
    3.1111   -9.1995    0.0000 H   0  0  0  0  0  0  0  0  0  0  0  0
    2.5981   -6.2900    0.0000 C   0  0  0  0  0  0  0  0  0  0  0  0
    4.0753   -6.5505    0.0000 H   0  0  0  0  0  0  0  0  0  0  0  0
    3.1111   -4.8805    0.0000 H   0  0  0  0  0  0  0  0  0  0  0  0
    1.2990   -5.5400    0.0000 N   0  0  0  0  0  0  0  0  0  0  0  0
   -0.0000   -6.2900    0.0000 C   0  0  0  0  0  0  0  0  0  0  0  0
   -0.5130   -4.8805    0.0000 H   0  0  0  0  0  0  0  0  0  0  0  0
   -1.4772   -6.5505    0.0000 H   0  0  0  0  0  0  0  0  0  0  0  0
   -0.0000   -7.7900    0.0000 C   0  0  0  0  0  0  0  0  0  0  0  0
   -1.2990   -8.5400    0.0000 H   0  0  0  0  0  0  0  0  0  0  0  0
    0.5130   -9.1995    0.0000 H   0  0  0  0  0  0  0  0  0  0  0  0
    1.4772   -7.5295    0.0000 H   0  0  0  0  0  0  0  0  0  0  0  0
    1.2990   -3.5600    0.0000 C   0  0  0  0  0  0  0  0  0  0  0  0
    2.7762   -3.8205    0.0000 H   0  0  0  0  0  0  0  0  0  0  0  0
    1.8121   -2.1505    0.0000 H   0  0  0  0  0  0  0  0  0  0  0  0
   -0.0000   -2.8100    0.0000 C   0  0  0  0  0  0  0  0  0  0  0  0
   -1.2990   -3.5600    0.0000 O   0  0  0  0  0  0  0  0  0  0  0  0
    0.0000   -1.3100    0.0000 N   0  0  0  0  0  0  0  0  0  0  0  0
   -1.3500   -0.6600    0.0000 C   0  0  0  0  0  0  0  0  0  0  0  0
   -1.6900    0.8000    0.0000 C   0  0  0  0  0  0  0  0  0  0  0  0
   -3.1200    1.2400    0.0000 C   0  0  0  0  0  0  0  0  0  0  0  0
   -3.4541    2.7023    0.0000 H   0  0  0  0  0  0  0  0  0  0  0  0
   -4.2200    0.2200    0.0000 C   0  0  0  0  0  0  0  0  0  0  0  0
   -5.6543    0.6592    0.0000 H   0  0  0  0  0  0  0  0  0  0  0  0
   -3.8800   -1.2400    0.0000 C   0  0  0  0  0  0  0  0  0  0  0  0
   -4.9770   -2.2631    0.0000 H   0  0  0  0  0  0  0  0  0  0  0  0
   -2.4500   -1.6800    0.0000 C   0  0  0  0  0  0  0  0  0  0  0  0
   -2.1159   -3.1423    0.0000 H   0  0  0  0  0  0  0  0  0  0  0  0
   -0.7500    1.9700    0.0000 C   0  0  0  0  0  0  0  0  0  0  0  0
   -0.4145    3.4320    0.0000 H   0  0  0  0  0  0  0  0  0  0  0  0
   -2.0999    2.6241    0.0000 H   0  0  0  0  0  0  0  0  0  0  0  0
    0.7500    1.9700    0.0000 C   0  0  0  0  0  0  0  0  0  0  0  0
    2.0999    2.6241    0.0000 H   0  0  0  0  0  0  0  0  0  0  0  0
    0.4145    3.4320    0.0000 H   0  0  0  0  0  0  0  0  0  0  0  0
    1.6900    0.8000    0.0000 C   0  0  0  0  0  0  0  0  0  0  0  0
    3.1200    1.2400    0.0000 C   0  0  0  0  0  0  0  0  0  0  0  0
    3.4541    2.7023    0.0000 H   0  0  0  0  0  0  0  0  0  0  0  0
    4.2200    0.2200    0.0000 C   0  0  0  0  0  0  0  0  0  0  0  0
    5.6543    0.6592    0.0000 H   0  0  0  0  0  0  0  0  0  0  0  0
    3.8800   -1.2400    0.0000 C   0  0  0  0  0  0  0  0  0  0  0  0
    2.4500   -1.6800    0.0000 C   0  0  0  0  0  0  0  0  0  0  0  0
    2.1159   -3.1423    0.0000 H   0  0  0  0  0  0  0  0  0  0  0  0
    1.3500   -0.6600    0.0000 C   0  0  0  0  0  0  0  0  0  0  0  0
    4.9770   -2.2631    0.0000 N   0  0  0  0  0  0  0  0  0  0  0  0
    6.4115   -1.8246    0.0000 C   0  0  0  0  0  0  0  0  0  0  0  0
    6.7490   -0.3630    0.0000 O   0  0  0  0  0  0  0  0  0  0  0  0
    7.5084   -2.8476    0.0000 O   0  0  0  0  0  0  0  0  0  0  0  0
    8.9429   -2.4092    0.0000 C   0  0  0  0  0  0  0  0  0  0  0  0
   10.1409   -1.5065    0.0000 H   0  0  0  0  0  0  0  0  0  0  0  0
    8.2620   -1.0726    0.0000 H   0  0  0  0  0  0  0  0  0  0  0  0
   10.0399   -3.4322    0.0000 C   0  0  0  0  0  0  0  0  0  0  0  0
   11.4744   -2.9937    0.0000 H   0  0  0  0  0  0  0  0  0  0  0  0
    8.8419   -4.3349    0.0000 H   0  0  0  0  0  0  0  0  0  0  0  0
   10.7208   -4.7688    0.0000 H   0  0  0  0  0  0  0  0  0  0  0  0
    4.6395   -3.7246    0.0000 O   0  0  0  0  0  0  0  0  0  0  0  0
    5.7364   -4.7477    0.0000 H   0  0  0  0  0  0  0  0  0  0  0  0
  1  2  1  0  0  0  0 
  1  3  1  0  0  0  0 
  1  4  1  0  0  0  0 
  1  5  1  0  0  0  0 
  5  6  1  0  0  0  0 
  5  7  1  0  0  0  0 
  5  8  1  0  0  0  0 
  8  9  1  0  0  0  0 
  9 10  1  0  0  0  0 
  9 11  1  0  0  0  0 
  9 12  1  0  0  0  0 
 12 13  1  0  0  0  0 
 12 14  1  0  0  0  0 
 12 15  1  0  0  0  0 
  8 16  1  0  0  0  0 
 16 17  1  0  0  0  0 
 16 18  1  0  0  0  0 
 16 19  1  0  0  0  0 
 19 20  2  0  0  0  0 
 19 21  1  0  0  0  0 
 21 22  1  0  0  0  0 
 22 23  2  0  0  0  0 
 23 24  1  0  0  0  0 
 24 25  1  0  0  0  0 
 24 26  2  0  0  0  0 
 26 27  1  0  0  0  0 
 26 28  1  0  0  0  0 
 28 29  1  0  0  0  0 
 28 30  2  0  0  0  0 
 22 30  1  0  0  0  0 
 30 31  1  0  0  0  0 
 23 32  1  0  0  0  0 
 32 33  1  0  0  0  0 
 32 34  1  0  0  0  0 
 32 35  1  0  0  0  0 
 35 36  1  0  0  0  0 
 35 37  1  0  0  0  0 
 35 38  1  0  0  0  0 
 38 39  2  0  0  0  0 
 39 40  1  0  0  0  0 
 39 41  1  0  0  0  0 
 41 42  1  0  0  0  0 
 41 43  2  0  0  0  0 
 43 44  1  0  0  0  0 
 44 45  1  0  0  0  0 
 44 46  2  0  0  0  0 
 38 46  1  0  0  0  0 
 21 46  1  0  0  0  0 
 43 47  1  0  0  0  0 
 47 48  1  0  0  0  0 
 48 49  2  0  0  0  0 
 48 50  1  0  0  0  0 
 50 51  1  0  0  0  0 
 51 52  1  0  0  0  0 
 51 53  1  0  0  0  0 
 51 54  1  0  0  0  0 
 54 55  1  0  0  0  0 
 54 56  1  0  0  0  0 
 54 57  1  0  0  0  0 
 47 58  1  0  0  0  0 
 58 59  1  0  0  0  0 
M  END
> <Rank>
12

> <Priority_score>
0.224

> <Reaction_type>
amine hydroxylation

> <Parent_ID>
26

> <Parent_InChI>
InChI=1S/C23H29N3O3/c1-4-25(5-2)16-22(27)26-20-10-8-7-9-17(20)11-12-18-13-14-19(15-21(18)26)24-23(28)29-6-3/h7-10,13-15H,4-6,11-12,16H2,1-3H3,(H,24,28)

> <Parent_SMILES>
CCOC(=O)Nc1ccc2c(c1)N(C(=O)CN(CC)CC)c1ccccc1CC2

$$$$
Molecule 26_metabolite 15
  CDK     0516241031

 39 41  0  0  0  0  0  0  0  0999 V2000
   10.0399   -3.4322    0.0000 C   0  0  0  0  0  0  0  0  0  0  0  0
   11.4744   -2.9937    0.0000 H   0  0  0  0  0  0  0  0  0  0  0  0
    8.8419   -4.3349    0.0000 H   0  0  0  0  0  0  0  0  0  0  0  0
   10.7208   -4.7688    0.0000 H   0  0  0  0  0  0  0  0  0  0  0  0
    8.9429   -2.4092    0.0000 C   0  0  0  0  0  0  0  0  0  0  0  0
   10.1409   -1.5065    0.0000 H   0  0  0  0  0  0  0  0  0  0  0  0
    8.2620   -1.0726    0.0000 H   0  0  0  0  0  0  0  0  0  0  0  0
    7.5084   -2.8476    0.0000 O   0  0  0  0  0  0  0  0  0  0  0  0
    6.4115   -1.8246    0.0000 C   0  0  0  0  0  0  0  0  0  0  0  0
    6.7490   -0.3630    0.0000 O   0  0  0  0  0  0  0  0  0  0  0  0
    4.9770   -2.2631    0.0000 N   0  0  0  0  0  0  0  0  0  0  0  0
    4.6395   -3.7246    0.0000 H   0  0  0  0  0  0  0  0  0  0  0  0
    3.8800   -1.2400    0.0000 C   0  0  0  0  0  0  0  0  0  0  0  0
    4.2200    0.2200    0.0000 C   0  0  0  0  0  0  0  0  0  0  0  0
    5.6543    0.6592    0.0000 H   0  0  0  0  0  0  0  0  0  0  0  0
    3.1200    1.2400    0.0000 C   0  0  0  0  0  0  0  0  0  0  0  0
    3.4541    2.7023    0.0000 H   0  0  0  0  0  0  0  0  0  0  0  0
    1.6900    0.8000    0.0000 C   0  0  0  0  0  0  0  0  0  0  0  0
    0.7500    1.9700    0.0000 C   0  0  0  0  0  0  0  0  0  0  0  0
    2.0999    2.6241    0.0000 H   0  0  0  0  0  0  0  0  0  0  0  0
    0.4145    3.4320    0.0000 H   0  0  0  0  0  0  0  0  0  0  0  0
   -0.7500    1.9700    0.0000 C   0  0  0  0  0  0  0  0  0  0  0  0
   -0.4145    3.4320    0.0000 H   0  0  0  0  0  0  0  0  0  0  0  0
   -2.0999    2.6241    0.0000 H   0  0  0  0  0  0  0  0  0  0  0  0
   -1.6900    0.8000    0.0000 C   0  0  0  0  0  0  0  0  0  0  0  0
   -1.3500   -0.6600    0.0000 C   0  0  0  0  0  0  0  0  0  0  0  0
   -2.4500   -1.6800    0.0000 C   0  0  0  0  0  0  0  0  0  0  0  0
   -2.1159   -3.1423    0.0000 H   0  0  0  0  0  0  0  0  0  0  0  0
   -3.8800   -1.2400    0.0000 C   0  0  0  0  0  0  0  0  0  0  0  0
   -4.9770   -2.2631    0.0000 H   0  0  0  0  0  0  0  0  0  0  0  0
   -4.2200    0.2200    0.0000 C   0  0  0  0  0  0  0  0  0  0  0  0
   -5.6543    0.6592    0.0000 H   0  0  0  0  0  0  0  0  0  0  0  0
   -3.1200    1.2400    0.0000 C   0  0  0  0  0  0  0  0  0  0  0  0
   -3.4541    2.7023    0.0000 H   0  0  0  0  0  0  0  0  0  0  0  0
    0.0000   -1.3100    0.0000 N   0  0  0  0  0  0  0  0  0  0  0  0
   -0.0000   -2.8100    0.0000 H   0  0  0  0  0  0  0  0  0  0  0  0
    1.3500   -0.6600    0.0000 C   0  0  0  0  0  0  0  0  0  0  0  0
    2.4500   -1.6800    0.0000 C   0  0  0  0  0  0  0  0  0  0  0  0
    2.1159   -3.1423    0.0000 H   0  0  0  0  0  0  0  0  0  0  0  0
  1  2  1  0  0  0  0 
  1  3  1  0  0  0  0 
  1  4  1  0  0  0  0 
  1  5  1  0  0  0  0 
  5  6  1  0  0  0  0 
  5  7  1  0  0  0  0 
  5  8  1  0  0  0  0 
  8  9  1  0  0  0  0 
  9 10  2  0  0  0  0 
  9 11  1  0  0  0  0 
 11 12  1  0  0  0  0 
 11 13  1  0  0  0  0 
 13 14  2  0  0  0  0 
 14 15  1  0  0  0  0 
 14 16  1  0  0  0  0 
 16 17  1  0  0  0  0 
 16 18  2  0  0  0  0 
 18 19  1  0  0  0  0 
 19 20  1  0  0  0  0 
 19 21  1  0  0  0  0 
 19 22  1  0  0  0  0 
 22 23  1  0  0  0  0 
 22 24  1  0  0  0  0 
 22 25  1  0  0  0  0 
 25 26  2  0  0  0  0 
 26 27  1  0  0  0  0 
 27 28  1  0  0  0  0 
 27 29  2  0  0  0  0 
 29 30  1  0  0  0  0 
 29 31  1  0  0  0  0 
 31 32  1  0  0  0  0 
 31 33  2  0  0  0  0 
 25 33  1  0  0  0  0 
 33 34  1  0  0  0  0 
 26 35  1  0  0  0  0 
 35 36  1  0  0  0  0 
 35 37  1  0  0  0  0 
 18 37  1  0  0  0  0 
 37 38  2  0  0  0  0 
 13 38  1  0  0  0  0 
 38 39  1  0  0  0  0 
M  END
> <Rank>
15

> <Priority_score>
0.22

> <Reaction_type>
hydrolysis_(tertiary_amide)

> <Parent_ID>
26

> <Parent_InChI>
InChI=1S/C23H29N3O3/c1-4-25(5-2)16-22(27)26-20-10-8-7-9-17(20)11-12-18-13-14-19(15-21(18)26)24-23(28)29-6-3/h7-10,13-15H,4-6,11-12,16H2,1-3H3,(H,24,28)

> <Parent_SMILES>
CCOC(=O)Nc1ccc2c(c1)N(C(=O)CN(CC)CC)c1ccccc1CC2

$$$$
Molecule 26_metabolite 16
  CDK     0516241031

 22 21  0  0  0  0  0  0  0  0999 V2000
    7.6161   -2.6009    0.0000 C   0  0  0  0  0  0  0  0  0  0  0  0
    7.6161   -1.1009    0.0000 H   0  0  0  0  0  0  0  0  0  0  0  0
    9.0933   -2.3405    0.0000 H   0  0  0  0  0  0  0  0  0  0  0  0
    8.1291   -4.0105    0.0000 H   0  0  0  0  0  0  0  0  0  0  0  0
    6.3170   -3.3509    0.0000 C   0  0  0  0  0  0  0  0  0  0  0  0
    5.3528   -4.5000    0.0000 H   0  0  0  0  0  0  0  0  0  0  0  0
    7.2812   -4.5000    0.0000 H   0  0  0  0  0  0  0  0  0  0  0  0
    5.0180   -2.6009    0.0000 N   0  0  0  0  0  0  0  0  0  0  0  0
    5.0180   -1.1009    0.0000 C   0  0  0  0  0  0  0  0  0  0  0  0
    6.4952   -1.3614    0.0000 H   0  0  0  0  0  0  0  0  0  0  0  0
    5.5310    0.3086    0.0000 H   0  0  0  0  0  0  0  0  0  0  0  0
    3.7189   -0.3509    0.0000 C   0  0  0  0  0  0  0  0  0  0  0  0
    3.7189    1.1491    0.0000 H   0  0  0  0  0  0  0  0  0  0  0  0
    2.2417   -0.0905    0.0000 H   0  0  0  0  0  0  0  0  0  0  0  0
    3.2059   -1.7605    0.0000 H   0  0  0  0  0  0  0  0  0  0  0  0
    3.3032   -3.5909    0.0000 C   0  0  0  0  0  0  0  0  0  0  0  0
    2.3391   -4.7400    0.0000 H   0  0  0  0  0  0  0  0  0  0  0  0
    4.2674   -4.7400    0.0000 H   0  0  0  0  0  0  0  0  0  0  0  0
    2.0042   -2.8409    0.0000 C   0  0  0  0  0  0  0  0  0  0  0  0
    2.0042   -1.3409    0.0000 O   0  0  0  0  0  0  0  0  0  0  0  0
    0.7052   -3.5909    0.0000 O   0  0  0  0  0  0  0  0  0  0  0  0
   -0.5939   -2.8409    0.0000 H   0  0  0  0  0  0  0  0  0  0  0  0
  1  2  1  0  0  0  0 
  1  3  1  0  0  0  0 
  1  4  1  0  0  0  0 
  1  5  1  0  0  0  0 
  5  6  1  0  0  0  0 
  5  7  1  0  0  0  0 
  5  8  1  0  0  0  0 
  8  9  1  0  0  0  0 
  9 10  1  0  0  0  0 
  9 11  1  0  0  0  0 
  9 12  1  0  0  0  0 
 12 13  1  0  0  0  0 
 12 14  1  0  0  0  0 
 12 15  1  0  0  0  0 
  8 16  1  0  0  0  0 
 16 17  1  0  0  0  0 
 16 18  1  0  0  0  0 
 16 19  1  0  0  0  0 
 19 20  2  0  0  0  0 
 19 21  1  0  0  0  0 
 21 22  1  0  0  0  0 
M  END
> <Rank>
15

> <Priority_score>
0.22

> <Reaction_type>
hydrolysis_(tertiary_amide)

> <Parent_ID>
26

> <Parent_InChI>
InChI=1S/C23H29N3O3/c1-4-25(5-2)16-22(27)26-20-10-8-7-9-17(20)11-12-18-13-14-19(15-21(18)26)24-23(28)29-6-3/h7-10,13-15H,4-6,11-12,16H2,1-3H3,(H,24,28)

> <Parent_SMILES>
CCOC(=O)Nc1ccc2c(c1)N(C(=O)CN(CC)CC)c1ccccc1CC2

$$$$
Molecule 26_metabolite 17
  CDK     0516241031

 59 61  0  0  0  0  0  0  0  0999 V2000
   -0.5849   -8.2108    0.0000 C   0  0  0  0  0  0  0  0  0  0  0  0
   -0.0368   -9.6071    0.0000 H   0  0  0  0  0  0  0  0  0  0  0  0
   -1.5774   -7.0861    0.0000 H   0  0  0  0  0  0  0  0  0  0  0  0
   -1.8648   -8.9930    0.0000 H   0  0  0  0  0  0  0  0  0  0  0  0
    0.3503   -7.0380    0.0000 C   0  0  0  0  0  0  0  0  0  0  0  0
    1.3429   -8.1627    0.0000 H   0  0  0  0  0  0  0  0  0  0  0  0
    1.6303   -6.2558    0.0000 H   0  0  0  0  0  0  0  0  0  0  0  0
   -0.1977   -5.6417    0.0000 N   0  0  0  0  0  0  0  0  0  0  0  0
   -2.1556   -5.3467    0.0000 C   0  0  0  0  0  0  0  0  0  0  0  0
   -1.6779   -3.9248    0.0000 H   0  0  0  0  0  0  0  0  0  0  0  0
   -3.4730   -4.6293    0.0000 H   0  0  0  0  0  0  0  0  0  0  0  0
   -3.0908   -6.5194    0.0000 C   0  0  0  0  0  0  0  0  0  0  0  0
   -2.5428   -7.9157    0.0000 H   0  0  0  0  0  0  0  0  0  0  0  0
   -4.0834   -5.3948    0.0000 H   0  0  0  0  0  0  0  0  0  0  0  0
   -4.3707   -7.3016    0.0000 H   0  0  0  0  0  0  0  0  0  0  0  0
    1.0368   -4.0937    0.0000 C   0  0  0  0  0  0  0  0  0  0  0  0
    2.0293   -5.2183    0.0000 H   0  0  0  0  0  0  0  0  0  0  0  0
    2.3167   -3.3115    0.0000 H   0  0  0  0  0  0  0  0  0  0  0  0
    0.4887   -2.6974    0.0000 C   0  0  0  0  0  0  0  0  0  0  0  0
   -1.9438   -2.3308    0.0000 O   0  0  0  0  0  0  0  0  0  0  0  0
    2.3217   -0.3987    0.0000 N   0  0  0  0  0  0  0  0  0  0  0  0
    0.9717    0.2513    0.0000 C   0  0  0  0  0  0  0  0  0  0  0  0
    0.6317    1.7113    0.0000 C   0  0  0  0  0  0  0  0  0  0  0  0
   -0.7983    2.1513    0.0000 C   0  0  0  0  0  0  0  0  0  0  0  0
   -1.1323    3.6136    0.0000 H   0  0  0  0  0  0  0  0  0  0  0  0
   -1.8983    1.1313    0.0000 C   0  0  0  0  0  0  0  0  0  0  0  0
   -3.3325    1.5705    0.0000 H   0  0  0  0  0  0  0  0  0  0  0  0
   -1.5583   -0.3287    0.0000 C   0  0  0  0  0  0  0  0  0  0  0  0
   -2.6553   -1.3518    0.0000 H   0  0  0  0  0  0  0  0  0  0  0  0
   -0.1283   -0.7687    0.0000 C   0  0  0  0  0  0  0  0  0  0  0  0
   -0.3145   -2.2571    0.0000 H   0  0  0  0  0  0  0  0  0  0  0  0
    1.5717    2.8813    0.0000 C   0  0  0  0  0  0  0  0  0  0  0  0
    1.9073    4.3433    0.0000 H   0  0  0  0  0  0  0  0  0  0  0  0
    0.2218    3.5354    0.0000 H   0  0  0  0  0  0  0  0  0  0  0  0
    3.0717    2.8813    0.0000 C   0  0  0  0  0  0  0  0  0  0  0  0
    4.4216    3.5354    0.0000 H   0  0  0  0  0  0  0  0  0  0  0  0
    2.7362    4.3433    0.0000 H   0  0  0  0  0  0  0  0  0  0  0  0
    4.0117    1.7113    0.0000 C   0  0  0  0  0  0  0  0  0  0  0  0
    5.4417    2.1513    0.0000 C   0  0  0  0  0  0  0  0  0  0  0  0
    5.7758    3.6136    0.0000 H   0  0  0  0  0  0  0  0  0  0  0  0
    6.5417    1.1313    0.0000 C   0  0  0  0  0  0  0  0  0  0  0  0
    7.9760    1.5705    0.0000 H   0  0  0  0  0  0  0  0  0  0  0  0
    6.2017   -0.3287    0.0000 C   0  0  0  0  0  0  0  0  0  0  0  0
    4.7717   -0.7687    0.0000 C   0  0  0  0  0  0  0  0  0  0  0  0
    4.4377   -2.2311    0.0000 H   0  0  0  0  0  0  0  0  0  0  0  0
    3.6717    0.2513    0.0000 C   0  0  0  0  0  0  0  0  0  0  0  0
    7.2987   -1.3518    0.0000 N   0  0  0  0  0  0  0  0  0  0  0  0
    6.9612   -2.8133    0.0000 H   0  0  0  0  0  0  0  0  0  0  0  0
    8.7332   -0.9133    0.0000 C   0  0  0  0  0  0  0  0  0  0  0  0
    9.0707    0.5482    0.0000 O   0  0  0  0  0  0  0  0  0  0  0  0
    9.8301   -1.9364    0.0000 O   0  0  0  0  0  0  0  0  0  0  0  0
   11.2646   -1.4979    0.0000 C   0  0  0  0  0  0  0  0  0  0  0  0
   12.4626   -0.5952    0.0000 H   0  0  0  0  0  0  0  0  0  0  0  0
   10.5837   -0.1613    0.0000 H   0  0  0  0  0  0  0  0  0  0  0  0
   12.3616   -2.5210    0.0000 C   0  0  0  0  0  0  0  0  0  0  0  0
   13.7961   -2.0825    0.0000 H   0  0  0  0  0  0  0  0  0  0  0  0
   11.1636   -3.4236    0.0000 H   0  0  0  0  0  0  0  0  0  0  0  0
   13.0425   -3.8575    0.0000 H   0  0  0  0  0  0  0  0  0  0  0  0
    3.2569   -1.5715    0.0000 O   0  0  0  0  0  0  0  0  0  0  0  0
  1  2  1  0  0  0  0 
  1  3  1  0  0  0  0 
  1  4  1  0  0  0  0 
  1  5  1  0  0  0  0 
  5  6  1  0  0  0  0 
  5  7  1  0  0  0  0 
  5  8  1  0  0  0  0 
  8  9  1  0  0  0  0 
  9 10  1  0  0  0  0 
  9 11  1  0  0  0  0 
  9 12  1  0  0  0  0 
 12 13  1  0  0  0  0 
 12 14  1  0  0  0  0 
 12 15  1  0  0  0  0 
  8 16  1  0  0  0  0 
 16 17  1  0  0  0  0 
 16 18  1  0  0  0  0 
 16 19  1  0  0  0  0 
 19 20  2  0  0  0  0 
 19 21  1  0  0  0  0 
 21 22  1  0  0  0  0 
 22 23  2  0  0  0  0 
 23 24  1  0  0  0  0 
 24 25  1  0  0  0  0 
 24 26  2  0  0  0  0 
 26 27  1  0  0  0  0 
 26 28  1  0  0  0  0 
 28 29  1  0  0  0  0 
 28 30  2  0  0  0  0 
 22 30  1  0  0  0  0 
 30 31  1  0  0  0  0 
 23 32  1  0  0  0  0 
 32 33  1  0  0  0  0 
 32 34  1  0  0  0  0 
 32 35  1  0  0  0  0 
 35 36  1  0  0  0  0 
 35 37  1  0  0  0  0 
 35 38  1  0  0  0  0 
 38 39  2  0  0  0  0 
 39 40  1  0  0  0  0 
 39 41  1  0  0  0  0 
 41 42  1  0  0  0  0 
 41 43  2  0  0  0  0 
 43 44  1  0  0  0  0 
 44 45  1  0  0  0  0 
 44 46  2  0  0  0  0 
 38 46  1  0  0  0  0 
 21 46  1  0  0  0  0 
 43 47  1  0  0  0  0 
 47 48  1  0  0  0  0 
 47 49  1  0  0  0  0 
 49 50  2  0  0  0  0 
 49 51  1  0  0  0  0 
 51 52  1  0  0  0  0 
 52 53  1  0  0  0  0 
 52 54  1  0  0  0  0 
 52 55  1  0  0  0  0 
 55 56  1  0  0  0  0 
 55 57  1  0  0  0  0 
 55 58  1  0  0  0  0 
 21 59  1  0  0  0  0 
M  CHG  1  21   1
M  CHG  1  59  -1
M  END
> <Rank>
15

> <Priority_score>
0.22

> <Reaction_type>
N-oxidation

> <Parent_ID>
26

> <Parent_InChI>
InChI=1S/C23H29N3O3/c1-4-25(5-2)16-22(27)26-20-10-8-7-9-17(20)11-12-18-13-14-19(15-21(18)26)24-23(28)29-6-3/h7-10,13-15H,4-6,11-12,16H2,1-3H3,(H,24,28)

> <Parent_SMILES>
CCOC(=O)Nc1ccc2c(c1)N(C(=O)CN(CC)CC)c1ccccc1CC2

$$$$
Molecule 26_metabolite 18
  CDK     0516241031

 45 47  0  0  0  0  0  0  0  0999 V2000
   10.0399   -3.4322    0.0000 C   0  0  0  0  0  0  0  0  0  0  0  0
   11.4744   -2.9937    0.0000 H   0  0  0  0  0  0  0  0  0  0  0  0
    8.8419   -4.3349    0.0000 H   0  0  0  0  0  0  0  0  0  0  0  0
   10.7208   -4.7688    0.0000 H   0  0  0  0  0  0  0  0  0  0  0  0
    8.9429   -2.4092    0.0000 C   0  0  0  0  0  0  0  0  0  0  0  0
   10.1409   -1.5065    0.0000 H   0  0  0  0  0  0  0  0  0  0  0  0
    8.2620   -1.0726    0.0000 H   0  0  0  0  0  0  0  0  0  0  0  0
    7.5084   -2.8476    0.0000 O   0  0  0  0  0  0  0  0  0  0  0  0
    6.4115   -1.8246    0.0000 C   0  0  0  0  0  0  0  0  0  0  0  0
    6.7490   -0.3630    0.0000 O   0  0  0  0  0  0  0  0  0  0  0  0
    4.9770   -2.2631    0.0000 N   0  0  0  0  0  0  0  0  0  0  0  0
    4.6395   -3.7246    0.0000 H   0  0  0  0  0  0  0  0  0  0  0  0
    3.8800   -1.2400    0.0000 C   0  0  0  0  0  0  0  0  0  0  0  0
    4.2200    0.2200    0.0000 C   0  0  0  0  0  0  0  0  0  0  0  0
    5.6543    0.6592    0.0000 H   0  0  0  0  0  0  0  0  0  0  0  0
    3.1200    1.2400    0.0000 C   0  0  0  0  0  0  0  0  0  0  0  0
    3.4541    2.7023    0.0000 H   0  0  0  0  0  0  0  0  0  0  0  0
    1.6900    0.8000    0.0000 C   0  0  0  0  0  0  0  0  0  0  0  0
    0.7500    1.9700    0.0000 C   0  0  0  0  0  0  0  0  0  0  0  0
    2.0999    2.6241    0.0000 H   0  0  0  0  0  0  0  0  0  0  0  0
    0.4145    3.4320    0.0000 H   0  0  0  0  0  0  0  0  0  0  0  0
   -0.7500    1.9700    0.0000 C   0  0  0  0  0  0  0  0  0  0  0  0
   -0.4145    3.4320    0.0000 H   0  0  0  0  0  0  0  0  0  0  0  0
   -2.0999    2.6241    0.0000 H   0  0  0  0  0  0  0  0  0  0  0  0
   -1.6900    0.8000    0.0000 C   0  0  0  0  0  0  0  0  0  0  0  0
   -1.3500   -0.6600    0.0000 C   0  0  0  0  0  0  0  0  0  0  0  0
   -2.4500   -1.6800    0.0000 C   0  0  0  0  0  0  0  0  0  0  0  0
   -2.1159   -3.1423    0.0000 H   0  0  0  0  0  0  0  0  0  0  0  0
   -3.8800   -1.2400    0.0000 C   0  0  0  0  0  0  0  0  0  0  0  0
   -4.9770   -2.2631    0.0000 H   0  0  0  0  0  0  0  0  0  0  0  0
   -4.2200    0.2200    0.0000 C   0  0  0  0  0  0  0  0  0  0  0  0
   -5.6543    0.6592    0.0000 H   0  0  0  0  0  0  0  0  0  0  0  0
   -3.1200    1.2400    0.0000 C   0  0  0  0  0  0  0  0  0  0  0  0
   -3.4541    2.7023    0.0000 H   0  0  0  0  0  0  0  0  0  0  0  0
    0.0000   -1.3100    0.0000 N   0  0  0  0  0  0  0  0  0  0  0  0
    1.3500   -0.6600    0.0000 C   0  0  0  0  0  0  0  0  0  0  0  0
    2.4500   -1.6800    0.0000 C   0  0  0  0  0  0  0  0  0  0  0  0
    2.1159   -3.1423    0.0000 H   0  0  0  0  0  0  0  0  0  0  0  0
   -0.0000   -2.8100    0.0000 C   0  0  0  0  0  0  0  0  0  0  0  0
    1.2990   -3.5600    0.0000 O   0  0  0  0  0  0  0  0  0  0  0  0
   -1.2990   -3.5600    0.0000 C   0  0  0  0  0  0  0  0  0  0  0  0
   -1.8121   -2.1505    0.0000 H   0  0  0  0  0  0  0  0  0  0  0  0
   -2.7762   -3.8205    0.0000 H   0  0  0  0  0  0  0  0  0  0  0  0
   -1.2990   -5.0600    0.0000 O   0  0  0  0  0  0  0  0  0  0  0  0
   -2.5981   -5.8100    0.0000 H   0  0  0  0  0  0  0  0  0  0  0  0
  1  2  1  0  0  0  0 
  1  3  1  0  0  0  0 
  1  4  1  0  0  0  0 
  1  5  1  0  0  0  0 
  5  6  1  0  0  0  0 
  5  7  1  0  0  0  0 
  5  8  1  0  0  0  0 
  8  9  1  0  0  0  0 
  9 10  2  0  0  0  0 
  9 11  1  0  0  0  0 
 11 12  1  0  0  0  0 
 11 13  1  0  0  0  0 
 13 14  2  0  0  0  0 
 14 15  1  0  0  0  0 
 14 16  1  0  0  0  0 
 16 17  1  0  0  0  0 
 16 18  2  0  0  0  0 
 18 19  1  0  0  0  0 
 19 20  1  0  0  0  0 
 19 21  1  0  0  0  0 
 19 22  1  0  0  0  0 
 22 23  1  0  0  0  0 
 22 24  1  0  0  0  0 
 22 25  1  0  0  0  0 
 25 26  2  0  0  0  0 
 26 27  1  0  0  0  0 
 27 28  1  0  0  0  0 
 27 29  2  0  0  0  0 
 29 30  1  0  0  0  0 
 29 31  1  0  0  0  0 
 31 32  1  0  0  0  0 
 31 33  2  0  0  0  0 
 25 33  1  0  0  0  0 
 33 34  1  0  0  0  0 
 26 35  1  0  0  0  0 
 35 36  1  0  0  0  0 
 18 36  1  0  0  0  0 
 36 37  2  0  0  0  0 
 13 37  1  0  0  0  0 
 37 38  1  0  0  0  0 
 35 39  1  0  0  0  0 
 39 40  2  0  0  0  0 
 39 41  1  0  0  0  0 
 41 42  1  0  0  0  0 
 41 43  1  0  0  0  0 
 41 44  1  0  0  0  0 
 44 45  1  0  0  0  0 
M  END
> <Rank>
18

> <Priority_score>
0.172

> <Reaction_type>
N-dealkylation_(tertiaryN-CH2-alkyl)

> <Parent_ID>
26

> <Parent_InChI>
InChI=1S/C23H29N3O3/c1-4-25(5-2)16-22(27)26-20-10-8-7-9-17(20)11-12-18-13-14-19(15-21(18)26)24-23(28)29-6-3/h7-10,13-15H,4-6,11-12,16H2,1-3H3,(H,24,28)

> <Parent_SMILES>
CCOC(=O)Nc1ccc2c(c1)N(C(=O)CN(CC)CC)c1ccccc1CC2

$$$$
Molecule 26_metabolite 19
  CDK     0516241031

 16 15  0  0  0  0  0  0  0  0999 V2000
    5.0234    2.0393    0.0000 C   0  0  0  0  0  0  0  0  0  0  0  0
    6.3224    2.7893    0.0000 H   0  0  0  0  0  0  0  0  0  0  0  0
    4.5103    3.4488    0.0000 H   0  0  0  0  0  0  0  0  0  0  0  0
    3.5461    1.7788    0.0000 H   0  0  0  0  0  0  0  0  0  0  0  0
    5.0234    0.5393    0.0000 C   0  0  0  0  0  0  0  0  0  0  0  0
    5.5364   -0.8702    0.0000 H   0  0  0  0  0  0  0  0  0  0  0  0
    6.5006    0.7998    0.0000 H   0  0  0  0  0  0  0  0  0  0  0  0
    3.3086   -0.4507    0.0000 N   0  0  0  0  0  0  0  0  0  0  0  0
    2.0096    0.2993    0.0000 H   0  0  0  0  0  0  0  0  0  0  0  0
    3.3086   -1.9507    0.0000 C   0  0  0  0  0  0  0  0  0  0  0  0
    3.8217   -3.3602    0.0000 H   0  0  0  0  0  0  0  0  0  0  0  0
    4.7858   -1.6902    0.0000 H   0  0  0  0  0  0  0  0  0  0  0  0
    2.0096   -2.7007    0.0000 C   0  0  0  0  0  0  0  0  0  0  0  0
    2.0096   -4.2007    0.0000 H   0  0  0  0  0  0  0  0  0  0  0  0
    1.4966   -1.2912    0.0000 H   0  0  0  0  0  0  0  0  0  0  0  0
    0.5324   -2.9612    0.0000 H   0  0  0  0  0  0  0  0  0  0  0  0
  1  2  1  0  0  0  0 
  1  3  1  0  0  0  0 
  1  4  1  0  0  0  0 
  1  5  1  0  0  0  0 
  5  6  1  0  0  0  0 
  5  7  1  0  0  0  0 
  5  8  1  0  0  0  0 
  8  9  1  0  0  0  0 
  8 10  1  0  0  0  0 
 10 11  1  0  0  0  0 
 10 12  1  0  0  0  0 
 10 13  1  0  0  0  0 
 13 14  1  0  0  0  0 
 13 15  1  0  0  0  0 
 13 16  1  0  0  0  0 
M  END
> <Rank>
18

> <Priority_score>
0.172

> <Reaction_type>
N-dealkylation_(tertiaryN-CH2-alkyl)

> <Parent_ID>
26

> <Parent_InChI>
InChI=1S/C23H29N3O3/c1-4-25(5-2)16-22(27)26-20-10-8-7-9-17(20)11-12-18-13-14-19(15-21(18)26)24-23(28)29-6-3/h7-10,13-15H,4-6,11-12,16H2,1-3H3,(H,24,28)

> <Parent_SMILES>
CCOC(=O)Nc1ccc2c(c1)N(C(=O)CN(CC)CC)c1ccccc1CC2

$$$$
Molecule 26_metabolite 20
  CDK     0516241031

 43 45  0  0  0  0  0  0  0  0999 V2000
   10.4556   -3.1922    0.0000 C   0  0  0  0  0  0  0  0  0  0  0  0
   11.8901   -2.7537    0.0000 H   0  0  0  0  0  0  0  0  0  0  0  0
    9.2576   -4.0949    0.0000 H   0  0  0  0  0  0  0  0  0  0  0  0
   11.1365   -4.5288    0.0000 H   0  0  0  0  0  0  0  0  0  0  0  0
    9.3586   -2.1692    0.0000 C   0  0  0  0  0  0  0  0  0  0  0  0
   10.5566   -1.2665    0.0000 H   0  0  0  0  0  0  0  0  0  0  0  0
    8.6777   -0.8326    0.0000 H   0  0  0  0  0  0  0  0  0  0  0  0
    7.9241   -2.6076    0.0000 O   0  0  0  0  0  0  0  0  0  0  0  0
    6.8271   -1.5846    0.0000 C   0  0  0  0  0  0  0  0  0  0  0  0
    7.1647   -0.1230    0.0000 O   0  0  0  0  0  0  0  0  0  0  0  0
    5.3927   -2.0231    0.0000 N   0  0  0  0  0  0  0  0  0  0  0  0
    5.0552   -3.4846    0.0000 H   0  0  0  0  0  0  0  0  0  0  0  0
    4.2957   -1.0000    0.0000 C   0  0  0  0  0  0  0  0  0  0  0  0
    4.6357    0.4600    0.0000 C   0  0  0  0  0  0  0  0  0  0  0  0
    6.0700    0.8992    0.0000 H   0  0  0  0  0  0  0  0  0  0  0  0
    3.5357    1.4800    0.0000 C   0  0  0  0  0  0  0  0  0  0  0  0
    3.8698    2.9423    0.0000 H   0  0  0  0  0  0  0  0  0  0  0  0
    2.1057    1.0400    0.0000 C   0  0  0  0  0  0  0  0  0  0  0  0
    1.1657    2.2100    0.0000 C   0  0  0  0  0  0  0  0  0  0  0  0
    2.5156    2.8641    0.0000 H   0  0  0  0  0  0  0  0  0  0  0  0
    0.8301    3.6720    0.0000 H   0  0  0  0  0  0  0  0  0  0  0  0
   -0.3343    2.2100    0.0000 C   0  0  0  0  0  0  0  0  0  0  0  0
    0.0012    3.6720    0.0000 H   0  0  0  0  0  0  0  0  0  0  0  0
   -1.6842    2.8641    0.0000 H   0  0  0  0  0  0  0  0  0  0  0  0
   -1.2743    1.0400    0.0000 C   0  0  0  0  0  0  0  0  0  0  0  0
   -0.9343   -0.4200    0.0000 C   0  0  0  0  0  0  0  0  0  0  0  0
   -2.0343   -1.4400    0.0000 C   0  0  0  0  0  0  0  0  0  0  0  0
   -1.7002   -2.9023    0.0000 H   0  0  0  0  0  0  0  0  0  0  0  0
   -3.4643   -1.0000    0.0000 C   0  0  0  0  0  0  0  0  0  0  0  0
   -4.5613   -2.0231    0.0000 H   0  0  0  0  0  0  0  0  0  0  0  0
   -3.8043    0.4600    0.0000 C   0  0  0  0  0  0  0  0  0  0  0  0
   -5.2386    0.8992    0.0000 H   0  0  0  0  0  0  0  0  0  0  0  0
   -2.7043    1.4800    0.0000 C   0  0  0  0  0  0  0  0  0  0  0  0
   -3.0384    2.9423    0.0000 H   0  0  0  0  0  0  0  0  0  0  0  0
    0.4157   -1.0700    0.0000 N   0  0  0  0  0  0  0  0  0  0  0  0
    1.7657   -0.4200    0.0000 C   0  0  0  0  0  0  0  0  0  0  0  0
    2.8657   -1.4400    0.0000 C   0  0  0  0  0  0  0  0  0  0  0  0
    2.5316   -2.9023    0.0000 H   0  0  0  0  0  0  0  0  0  0  0  0
    0.4157   -2.5700    0.0000 C   0  0  0  0  0  0  0  0  0  0  0  0
    1.7147   -3.3200    0.0000 O   0  0  0  0  0  0  0  0  0  0  0  0
   -1.2990   -3.5600    0.0000 C   0  0  0  0  0  0  0  0  0  0  0  0
   -1.2990   -5.0600    0.0000 H   0  0  0  0  0  0  0  0  0  0  0  0
   -2.5981   -2.8100    0.0000 O   0  0  0  0  0  0  0  0  0  0  0  0
  1  2  1  0  0  0  0 
  1  3  1  0  0  0  0 
  1  4  1  0  0  0  0 
  1  5  1  0  0  0  0 
  5  6  1  0  0  0  0 
  5  7  1  0  0  0  0 
  5  8  1  0  0  0  0 
  8  9  1  0  0  0  0 
  9 10  2  0  0  0  0 
  9 11  1  0  0  0  0 
 11 12  1  0  0  0  0 
 11 13  1  0  0  0  0 
 13 14  2  0  0  0  0 
 14 15  1  0  0  0  0 
 14 16  1  0  0  0  0 
 16 17  1  0  0  0  0 
 16 18  2  0  0  0  0 
 18 19  1  0  0  0  0 
 19 20  1  0  0  0  0 
 19 21  1  0  0  0  0 
 19 22  1  0  0  0  0 
 22 23  1  0  0  0  0 
 22 24  1  0  0  0  0 
 22 25  1  0  0  0  0 
 25 26  2  0  0  0  0 
 26 27  1  0  0  0  0 
 27 28  1  0  0  0  0 
 27 29  2  0  0  0  0 
 29 30  1  0  0  0  0 
 29 31  1  0  0  0  0 
 31 32  1  0  0  0  0 
 31 33  2  0  0  0  0 
 25 33  1  0  0  0  0 
 33 34  1  0  0  0  0 
 26 35  1  0  0  0  0 
 35 36  1  0  0  0  0 
 18 36  1  0  0  0  0 
 36 37  2  0  0  0  0 
 13 37  1  0  0  0  0 
 37 38  1  0  0  0  0 
 35 39  1  0  0  0  0 
 39 40  2  0  0  0  0 
 39 41  1  0  0  0  0 
 41 42  1  0  0  0  0 
 41 43  2  0  0  0  0 
M  END
> <Rank>
18

> <Priority_score>
0.172

> <Reaction_type>
N-dealkylation

> <Parent_ID>
26

> <Parent_InChI>
InChI=1S/C23H29N3O3/c1-4-25(5-2)16-22(27)26-20-10-8-7-9-17(20)11-12-18-13-14-19(15-21(18)26)24-23(28)29-6-3/h7-10,13-15H,4-6,11-12,16H2,1-3H3,(H,24,28)

> <Parent_SMILES>
CCOC(=O)Nc1ccc2c(c1)N(C(=O)CN(CC)CC)c1ccccc1CC2

$$$$
Molecule 26_metabolite 21
  CDK     0516241031

 59 61  0  0  0  0  0  0  0  0999 V2000
    2.5981   -7.7900    0.0000 C   0  0  0  0  0  0  0  0  0  0  0  0
    1.2990   -8.5400    0.0000 H   0  0  0  0  0  0  0  0  0  0  0  0
    4.0753   -7.5295    0.0000 H   0  0  0  0  0  0  0  0  0  0  0  0
    3.1111   -9.1995    0.0000 H   0  0  0  0  0  0  0  0  0  0  0  0
    2.5981   -6.2900    0.0000 C   0  0  0  0  0  0  0  0  0  0  0  0
    4.0753   -6.5505    0.0000 H   0  0  0  0  0  0  0  0  0  0  0  0
    3.1111   -4.8805    0.0000 H   0  0  0  0  0  0  0  0  0  0  0  0
    1.2990   -5.5400    0.0000 N   0  0  0  0  0  0  0  0  0  0  0  0
   -0.0000   -6.2900    0.0000 C   0  0  0  0  0  0  0  0  0  0  0  0
   -0.5130   -4.8805    0.0000 H   0  0  0  0  0  0  0  0  0  0  0  0
   -1.4772   -6.5505    0.0000 H   0  0  0  0  0  0  0  0  0  0  0  0
   -0.0000   -7.7900    0.0000 C   0  0  0  0  0  0  0  0  0  0  0  0
   -1.2990   -8.5400    0.0000 H   0  0  0  0  0  0  0  0  0  0  0  0
    0.5130   -9.1995    0.0000 H   0  0  0  0  0  0  0  0  0  0  0  0
    1.4772   -7.5295    0.0000 H   0  0  0  0  0  0  0  0  0  0  0  0
    1.2990   -3.5600    0.0000 C   0  0  0  0  0  0  0  0  0  0  0  0
    2.7762   -3.8205    0.0000 H   0  0  0  0  0  0  0  0  0  0  0  0
    1.8121   -2.1505    0.0000 H   0  0  0  0  0  0  0  0  0  0  0  0
   -0.0000   -2.8100    0.0000 C   0  0  0  0  0  0  0  0  0  0  0  0
   -1.2990   -3.5600    0.0000 O   0  0  0  0  0  0  0  0  0  0  0  0
    0.0000   -1.3100    0.0000 N   0  0  0  0  0  0  0  0  0  0  0  0
   -1.3500   -0.6600    0.0000 C   0  0  0  0  0  0  0  0  0  0  0  0
   -1.6900    0.8000    0.0000 C   0  0  0  0  0  0  0  0  0  0  0  0
   -3.1200    1.2400    0.0000 C   0  0  0  0  0  0  0  0  0  0  0  0
   -3.4541    2.7023    0.0000 H   0  0  0  0  0  0  0  0  0  0  0  0
   -4.2200    0.2200    0.0000 C   0  0  0  0  0  0  0  0  0  0  0  0
   -5.6543    0.6592    0.0000 H   0  0  0  0  0  0  0  0  0  0  0  0
   -3.8800   -1.2400    0.0000 C   0  0  0  0  0  0  0  0  0  0  0  0
   -4.9770   -2.2631    0.0000 H   0  0  0  0  0  0  0  0  0  0  0  0
   -2.4500   -1.6800    0.0000 C   0  0  0  0  0  0  0  0  0  0  0  0
   -2.1159   -3.1423    0.0000 H   0  0  0  0  0  0  0  0  0  0  0  0
   -0.7500    1.9700    0.0000 C   0  0  0  0  0  0  0  0  0  0  0  0
   -0.4145    3.4320    0.0000 H   0  0  0  0  0  0  0  0  0  0  0  0
   -2.0999    2.6241    0.0000 H   0  0  0  0  0  0  0  0  0  0  0  0
    0.7500    1.9700    0.0000 C   0  0  0  0  0  0  0  0  0  0  0  0
    2.0999    2.6241    0.0000 H   0  0  0  0  0  0  0  0  0  0  0  0
    0.4145    3.4320    0.0000 H   0  0  0  0  0  0  0  0  0  0  0  0
    1.6900    0.8000    0.0000 C   0  0  0  0  0  0  0  0  0  0  0  0
    3.1200    1.2400    0.0000 C   0  0  0  0  0  0  0  0  0  0  0  0
    3.4541    2.7023    0.0000 H   0  0  0  0  0  0  0  0  0  0  0  0
    4.2200    0.2200    0.0000 C   0  0  0  0  0  0  0  0  0  0  0  0
    5.6543    0.6592    0.0000 H   0  0  0  0  0  0  0  0  0  0  0  0
    3.8800   -1.2400    0.0000 C   0  0  0  0  0  0  0  0  0  0  0  0
    2.4500   -1.6800    0.0000 C   0  0  0  0  0  0  0  0  0  0  0  0
    2.1159   -3.1423    0.0000 H   0  0  0  0  0  0  0  0  0  0  0  0
    1.3500   -0.6600    0.0000 C   0  0  0  0  0  0  0  0  0  0  0  0
    4.9770   -2.2631    0.0000 N   0  0  0  0  0  0  0  0  0  0  0  0
    4.6395   -3.7246    0.0000 H   0  0  0  0  0  0  0  0  0  0  0  0
    6.4115   -1.8246    0.0000 C   0  0  0  0  0  0  0  0  0  0  0  0
    6.7490   -0.3630    0.0000 O   0  0  0  0  0  0  0  0  0  0  0  0
    7.5084   -2.8476    0.0000 O   0  0  0  0  0  0  0  0  0  0  0  0
    8.9429   -2.4092    0.0000 C   0  0  0  0  0  0  0  0  0  0  0  0
   10.1409   -1.5065    0.0000 H   0  0  0  0  0  0  0  0  0  0  0  0
    8.2620   -1.0726    0.0000 H   0  0  0  0  0  0  0  0  0  0  0  0
   10.0399   -3.4322    0.0000 C   0  0  0  0  0  0  0  0  0  0  0  0
    8.8419   -4.3349    0.0000 H   0  0  0  0  0  0  0  0  0  0  0  0
   10.7208   -4.7688    0.0000 H   0  0  0  0  0  0  0  0  0  0  0  0
   11.4744   -2.9937    0.0000 O   0  0  0  0  0  0  0  0  0  0  0  0
   12.5713   -4.0168    0.0000 H   0  0  0  0  0  0  0  0  0  0  0  0
  1  2  1  0  0  0  0 
  1  3  1  0  0  0  0 
  1  4  1  0  0  0  0 
  1  5  1  0  0  0  0 
  5  6  1  0  0  0  0 
  5  7  1  0  0  0  0 
  5  8  1  0  0  0  0 
  8  9  1  0  0  0  0 
  9 10  1  0  0  0  0 
  9 11  1  0  0  0  0 
  9 12  1  0  0  0  0 
 12 13  1  0  0  0  0 
 12 14  1  0  0  0  0 
 12 15  1  0  0  0  0 
  8 16  1  0  0  0  0 
 16 17  1  0  0  0  0 
 16 18  1  0  0  0  0 
 16 19  1  0  0  0  0 
 19 20  2  0  0  0  0 
 19 21  1  0  0  0  0 
 21 22  1  0  0  0  0 
 22 23  2  0  0  0  0 
 23 24  1  0  0  0  0 
 24 25  1  0  0  0  0 
 24 26  2  0  0  0  0 
 26 27  1  0  0  0  0 
 26 28  1  0  0  0  0 
 28 29  1  0  0  0  0 
 28 30  2  0  0  0  0 
 22 30  1  0  0  0  0 
 30 31  1  0  0  0  0 
 23 32  1  0  0  0  0 
 32 33  1  0  0  0  0 
 32 34  1  0  0  0  0 
 32 35  1  0  0  0  0 
 35 36  1  0  0  0  0 
 35 37  1  0  0  0  0 
 35 38  1  0  0  0  0 
 38 39  2  0  0  0  0 
 39 40  1  0  0  0  0 
 39 41  1  0  0  0  0 
 41 42  1  0  0  0  0 
 41 43  2  0  0  0  0 
 43 44  1  0  0  0  0 
 44 45  1  0  0  0  0 
 44 46  2  0  0  0  0 
 38 46  1  0  0  0  0 
 21 46  1  0  0  0  0 
 43 47  1  0  0  0  0 
 47 48  1  0  0  0  0 
 47 49  1  0  0  0  0 
 49 50  2  0  0  0  0 
 49 51  1  0  0  0  0 
 51 52  1  0  0  0  0 
 52 53  1  0  0  0  0 
 52 54  1  0  0  0  0 
 52 55  1  0  0  0  0 
 55 56  1  0  0  0  0 
 55 57  1  0  0  0  0 
 55 58  1  0  0  0  0 
 58 59  1  0  0  0  0 
M  END
> <Rank>
21

> <Priority_score>
0.1670893796183323

> <Reaction_type>
aliphatic hydroxylation

> <Parent_ID>
26

> <Parent_InChI>
InChI=1S/C23H29N3O3/c1-4-25(5-2)16-22(27)26-20-10-8-7-9-17(20)11-12-18-13-14-19(15-21(18)26)24-23(28)29-6-3/h7-10,13-15H,4-6,11-12,16H2,1-3H3,(H,24,28)

> <Parent_SMILES>
CCOC(=O)Nc1ccc2c(c1)N(C(=O)CN(CC)CC)c1ccccc1CC2

$$$$
Molecule 26_metabolite 22
  CDK     0516241031

 59 61  0  0  0  0  0  0  0  0999 V2000
    2.5981   -7.7900    0.0000 C   0  0  0  0  0  0  0  0  0  0  0  0
    1.2990   -8.5400    0.0000 H   0  0  0  0  0  0  0  0  0  0  0  0
    4.0753   -7.5295    0.0000 H   0  0  0  0  0  0  0  0  0  0  0  0
    3.1111   -9.1995    0.0000 H   0  0  0  0  0  0  0  0  0  0  0  0
    2.5981   -6.2900    0.0000 C   0  0  0  0  0  0  0  0  0  0  0  0
    4.0753   -6.5505    0.0000 H   0  0  0  0  0  0  0  0  0  0  0  0
    3.1111   -4.8805    0.0000 H   0  0  0  0  0  0  0  0  0  0  0  0
    1.2990   -5.5400    0.0000 N   0  0  0  0  0  0  0  0  0  0  0  0
   -0.0000   -6.2900    0.0000 C   0  0  0  0  0  0  0  0  0  0  0  0
   -0.5130   -4.8805    0.0000 H   0  0  0  0  0  0  0  0  0  0  0  0
   -1.4772   -6.5505    0.0000 H   0  0  0  0  0  0  0  0  0  0  0  0
   -0.0000   -7.7900    0.0000 C   0  0  0  0  0  0  0  0  0  0  0  0
   -1.2990   -8.5400    0.0000 H   0  0  0  0  0  0  0  0  0  0  0  0
    0.5130   -9.1995    0.0000 H   0  0  0  0  0  0  0  0  0  0  0  0
    1.4772   -7.5295    0.0000 H   0  0  0  0  0  0  0  0  0  0  0  0
    1.2990   -3.5600    0.0000 C   0  0  0  0  0  0  0  0  0  0  0  0
    2.7762   -3.8205    0.0000 H   0  0  0  0  0  0  0  0  0  0  0  0
    1.8121   -2.1505    0.0000 H   0  0  0  0  0  0  0  0  0  0  0  0
   -0.0000   -2.8100    0.0000 C   0  0  0  0  0  0  0  0  0  0  0  0
   -1.2990   -3.5600    0.0000 O   0  0  0  0  0  0  0  0  0  0  0  0
    0.0000   -1.3100    0.0000 N   0  0  0  0  0  0  0  0  0  0  0  0
   -1.3500   -0.6600    0.0000 C   0  0  0  0  0  0  0  0  0  0  0  0
   -2.4500   -1.6800    0.0000 C   0  0  0  0  0  0  0  0  0  0  0  0
   -2.1159   -3.1423    0.0000 H   0  0  0  0  0  0  0  0  0  0  0  0
   -3.8800   -1.2400    0.0000 C   0  0  0  0  0  0  0  0  0  0  0  0
   -4.9770   -2.2631    0.0000 H   0  0  0  0  0  0  0  0  0  0  0  0
   -4.2200    0.2200    0.0000 C   0  0  0  0  0  0  0  0  0  0  0  0
   -3.1200    1.2400    0.0000 C   0  0  0  0  0  0  0  0  0  0  0  0
   -3.4541    2.7023    0.0000 H   0  0  0  0  0  0  0  0  0  0  0  0
   -1.6900    0.8000    0.0000 C   0  0  0  0  0  0  0  0  0  0  0  0
   -0.7500    1.9700    0.0000 C   0  0  0  0  0  0  0  0  0  0  0  0
   -0.4145    3.4320    0.0000 H   0  0  0  0  0  0  0  0  0  0  0  0
   -2.0999    2.6241    0.0000 H   0  0  0  0  0  0  0  0  0  0  0  0
    0.7500    1.9700    0.0000 C   0  0  0  0  0  0  0  0  0  0  0  0
    2.0999    2.6241    0.0000 H   0  0  0  0  0  0  0  0  0  0  0  0
    0.4145    3.4320    0.0000 H   0  0  0  0  0  0  0  0  0  0  0  0
    1.6900    0.8000    0.0000 C   0  0  0  0  0  0  0  0  0  0  0  0
    3.1200    1.2400    0.0000 C   0  0  0  0  0  0  0  0  0  0  0  0
    3.4541    2.7023    0.0000 H   0  0  0  0  0  0  0  0  0  0  0  0
    4.2200    0.2200    0.0000 C   0  0  0  0  0  0  0  0  0  0  0  0
    5.6543    0.6592    0.0000 H   0  0  0  0  0  0  0  0  0  0  0  0
    3.8800   -1.2400    0.0000 C   0  0  0  0  0  0  0  0  0  0  0  0
    2.4500   -1.6800    0.0000 C   0  0  0  0  0  0  0  0  0  0  0  0
    2.1159   -3.1423    0.0000 H   0  0  0  0  0  0  0  0  0  0  0  0
    1.3500   -0.6600    0.0000 C   0  0  0  0  0  0  0  0  0  0  0  0
    4.9770   -2.2631    0.0000 N   0  0  0  0  0  0  0  0  0  0  0  0
    4.6395   -3.7246    0.0000 H   0  0  0  0  0  0  0  0  0  0  0  0
    6.4115   -1.8246    0.0000 C   0  0  0  0  0  0  0  0  0  0  0  0
    6.7490   -0.3630    0.0000 O   0  0  0  0  0  0  0  0  0  0  0  0
    7.5084   -2.8476    0.0000 O   0  0  0  0  0  0  0  0  0  0  0  0
    8.9429   -2.4092    0.0000 C   0  0  0  0  0  0  0  0  0  0  0  0
   10.1409   -1.5065    0.0000 H   0  0  0  0  0  0  0  0  0  0  0  0
    8.2620   -1.0726    0.0000 H   0  0  0  0  0  0  0  0  0  0  0  0
   10.0399   -3.4322    0.0000 C   0  0  0  0  0  0  0  0  0  0  0  0
   11.4744   -2.9937    0.0000 H   0  0  0  0  0  0  0  0  0  0  0  0
    8.8419   -4.3349    0.0000 H   0  0  0  0  0  0  0  0  0  0  0  0
   10.7208   -4.7688    0.0000 H   0  0  0  0  0  0  0  0  0  0  0  0
   -5.6543    0.6592    0.0000 O   0  0  0  0  0  0  0  0  0  0  0  0
   -5.9910    2.1209    0.0000 H   0  0  0  0  0  0  0  0  0  0  0  0
  1  2  1  0  0  0  0 
  1  3  1  0  0  0  0 
  1  4  1  0  0  0  0 
  1  5  1  0  0  0  0 
  5  6  1  0  0  0  0 
  5  7  1  0  0  0  0 
  5  8  1  0  0  0  0 
  8  9  1  0  0  0  0 
  9 10  1  0  0  0  0 
  9 11  1  0  0  0  0 
  9 12  1  0  0  0  0 
 12 13  1  0  0  0  0 
 12 14  1  0  0  0  0 
 12 15  1  0  0  0  0 
  8 16  1  0  0  0  0 
 16 17  1  0  0  0  0 
 16 18  1  0  0  0  0 
 16 19  1  0  0  0  0 
 19 20  2  0  0  0  0 
 19 21  1  0  0  0  0 
 21 22  1  0  0  0  0 
 22 23  2  0  0  0  0 
 23 24  1  0  0  0  0 
 23 25  1  0  0  0  0 
 25 26  1  0  0  0  0 
 25 27  2  0  0  0  0 
 27 28  1  0  0  0  0 
 28 29  1  0  0  0  0 
 28 30  2  0  0  0  0 
 22 30  1  0  0  0  0 
 30 31  1  0  0  0  0 
 31 32  1  0  0  0  0 
 31 33  1  0  0  0  0 
 31 34  1  0  0  0  0 
 34 35  1  0  0  0  0 
 34 36  1  0  0  0  0 
 34 37  1  0  0  0  0 
 37 38  2  0  0  0  0 
 38 39  1  0  0  0  0 
 38 40  1  0  0  0  0 
 40 41  1  0  0  0  0 
 40 42  2  0  0  0  0 
 42 43  1  0  0  0  0 
 43 44  1  0  0  0  0 
 43 45  2  0  0  0  0 
 37 45  1  0  0  0  0 
 21 45  1  0  0  0  0 
 42 46  1  0  0  0  0 
 46 47  1  0  0  0  0 
 46 48  1  0  0  0  0 
 48 49  2  0  0  0  0 
 48 50  1  0  0  0  0 
 50 51  1  0  0  0  0 
 51 52  1  0  0  0  0 
 51 53  1  0  0  0  0 
 51 54  1  0  0  0  0 
 54 55  1  0  0  0  0 
 54 56  1  0  0  0  0 
 54 57  1  0  0  0  0 
 27 58  1  0  0  0  0 
 58 59  1  0  0  0  0 
M  END
> <Rank>
22

> <Priority_score>
0.13204196904829807

> <Reaction_type>
aromatic_hydroxylation_(para_to_nitrogen)

> <Parent_ID>
26

> <Parent_InChI>
InChI=1S/C23H29N3O3/c1-4-25(5-2)16-22(27)26-20-10-8-7-9-17(20)11-12-18-13-14-19(15-21(18)26)24-23(28)29-6-3/h7-10,13-15H,4-6,11-12,16H2,1-3H3,(H,24,28)

> <Parent_SMILES>
CCOC(=O)Nc1ccc2c(c1)N(C(=O)CN(CC)CC)c1ccccc1CC2

$$$$
Molecule 26_metabolite 23
  CDK     0516241031

 59 61  0  0  0  0  0  0  0  0999 V2000
   -2.5981   -7.7900    0.0000 C   0  0  0  0  0  0  0  0  0  0  0  0
   -1.2990   -8.5400    0.0000 H   0  0  0  0  0  0  0  0  0  0  0  0
   -4.0753   -7.5295    0.0000 H   0  0  0  0  0  0  0  0  0  0  0  0
   -3.1111   -9.1995    0.0000 H   0  0  0  0  0  0  0  0  0  0  0  0
   -2.5981   -6.2900    0.0000 C   0  0  0  0  0  0  0  0  0  0  0  0
   -4.0753   -6.5505    0.0000 H   0  0  0  0  0  0  0  0  0  0  0  0
   -3.1111   -4.8805    0.0000 H   0  0  0  0  0  0  0  0  0  0  0  0
   -1.2990   -5.5400    0.0000 N   0  0  0  0  0  0  0  0  0  0  0  0
    0.0000   -6.2900    0.0000 C   0  0  0  0  0  0  0  0  0  0  0  0
    0.5130   -4.8805    0.0000 H   0  0  0  0  0  0  0  0  0  0  0  0
    1.4772   -6.5505    0.0000 H   0  0  0  0  0  0  0  0  0  0  0  0
    0.0000   -7.7900    0.0000 C   0  0  0  0  0  0  0  0  0  0  0  0
    1.2990   -8.5400    0.0000 H   0  0  0  0  0  0  0  0  0  0  0  0
   -0.5130   -9.1995    0.0000 H   0  0  0  0  0  0  0  0  0  0  0  0
   -1.4772   -7.5295    0.0000 H   0  0  0  0  0  0  0  0  0  0  0  0
   -1.2990   -3.5600    0.0000 C   0  0  0  0  0  0  0  0  0  0  0  0
   -2.7762   -3.8205    0.0000 H   0  0  0  0  0  0  0  0  0  0  0  0
   -1.8121   -2.1505    0.0000 H   0  0  0  0  0  0  0  0  0  0  0  0
   -0.0000   -2.8100    0.0000 C   0  0  0  0  0  0  0  0  0  0  0  0
    1.2990   -3.5600    0.0000 O   0  0  0  0  0  0  0  0  0  0  0  0
    0.0000   -1.3100    0.0000 N   0  0  0  0  0  0  0  0  0  0  0  0
   -1.3500   -0.6600    0.0000 C   0  0  0  0  0  0  0  0  0  0  0  0
   -2.4500   -1.6800    0.0000 C   0  0  0  0  0  0  0  0  0  0  0  0
   -2.1159   -3.1423    0.0000 H   0  0  0  0  0  0  0  0  0  0  0  0
   -3.8800   -1.2400    0.0000 C   0  0  0  0  0  0  0  0  0  0  0  0
   -4.2200    0.2200    0.0000 C   0  0  0  0  0  0  0  0  0  0  0  0
   -5.6543    0.6592    0.0000 H   0  0  0  0  0  0  0  0  0  0  0  0
   -3.1200    1.2400    0.0000 C   0  0  0  0  0  0  0  0  0  0  0  0
   -3.4541    2.7023    0.0000 H   0  0  0  0  0  0  0  0  0  0  0  0
   -1.6900    0.8000    0.0000 C   0  0  0  0  0  0  0  0  0  0  0  0
   -0.7500    1.9700    0.0000 C   0  0  0  0  0  0  0  0  0  0  0  0
   -0.4145    3.4320    0.0000 H   0  0  0  0  0  0  0  0  0  0  0  0
   -2.0999    2.6241    0.0000 H   0  0  0  0  0  0  0  0  0  0  0  0
    0.7500    1.9700    0.0000 C   0  0  0  0  0  0  0  0  0  0  0  0
    2.0999    2.6241    0.0000 H   0  0  0  0  0  0  0  0  0  0  0  0
    0.4145    3.4320    0.0000 H   0  0  0  0  0  0  0  0  0  0  0  0
    1.6900    0.8000    0.0000 C   0  0  0  0  0  0  0  0  0  0  0  0
    3.1200    1.2400    0.0000 C   0  0  0  0  0  0  0  0  0  0  0  0
    3.4541    2.7023    0.0000 H   0  0  0  0  0  0  0  0  0  0  0  0
    4.2200    0.2200    0.0000 C   0  0  0  0  0  0  0  0  0  0  0  0
    5.6543    0.6592    0.0000 H   0  0  0  0  0  0  0  0  0  0  0  0
    3.8800   -1.2400    0.0000 C   0  0  0  0  0  0  0  0  0  0  0  0
    4.9770   -2.2631    0.0000 H   0  0  0  0  0  0  0  0  0  0  0  0
    2.4500   -1.6800    0.0000 C   0  0  0  0  0  0  0  0  0  0  0  0
    1.3500   -0.6600    0.0000 C   0  0  0  0  0  0  0  0  0  0  0  0
    2.1159   -3.1423    0.0000 O   0  0  0  0  0  0  0  0  0  0  0  0
    3.2153   -4.1628    0.0000 H   0  0  0  0  0  0  0  0  0  0  0  0
   -4.9770   -2.2631    0.0000 N   0  0  0  0  0  0  0  0  0  0  0  0
   -4.6395   -3.7246    0.0000 H   0  0  0  0  0  0  0  0  0  0  0  0
   -6.4115   -1.8246    0.0000 C   0  0  0  0  0  0  0  0  0  0  0  0
   -6.7490   -0.3630    0.0000 O   0  0  0  0  0  0  0  0  0  0  0  0
   -7.5084   -2.8476    0.0000 O   0  0  0  0  0  0  0  0  0  0  0  0
   -8.9429   -2.4092    0.0000 C   0  0  0  0  0  0  0  0  0  0  0  0
   -8.2620   -1.0726    0.0000 H   0  0  0  0  0  0  0  0  0  0  0  0
  -10.1409   -1.5065    0.0000 H   0  0  0  0  0  0  0  0  0  0  0  0
  -10.0399   -3.4322    0.0000 C   0  0  0  0  0  0  0  0  0  0  0  0
  -11.4744   -2.9937    0.0000 H   0  0  0  0  0  0  0  0  0  0  0  0
  -10.7208   -4.7688    0.0000 H   0  0  0  0  0  0  0  0  0  0  0  0
   -8.8419   -4.3349    0.0000 H   0  0  0  0  0  0  0  0  0  0  0  0
  1  2  1  0  0  0  0 
  1  3  1  0  0  0  0 
  1  4  1  0  0  0  0 
  1  5  1  0  0  0  0 
  5  6  1  0  0  0  0 
  5  7  1  0  0  0  0 
  5  8  1  0  0  0  0 
  8  9  1  0  0  0  0 
  9 10  1  0  0  0  0 
  9 11  1  0  0  0  0 
  9 12  1  0  0  0  0 
 12 13  1  0  0  0  0 
 12 14  1  0  0  0  0 
 12 15  1  0  0  0  0 
  8 16  1  0  0  0  0 
 16 17  1  0  0  0  0 
 16 18  1  0  0  0  0 
 16 19  1  0  0  0  0 
 19 20  2  0  0  0  0 
 19 21  1  0  0  0  0 
 21 22  1  0  0  0  0 
 22 23  2  0  0  0  0 
 23 24  1  0  0  0  0 
 23 25  1  0  0  0  0 
 25 26  2  0  0  0  0 
 26 27  1  0  0  0  0 
 26 28  1  0  0  0  0 
 28 29  1  0  0  0  0 
 28 30  2  0  0  0  0 
 22 30  1  0  0  0  0 
 30 31  1  0  0  0  0 
 31 32  1  0  0  0  0 
 31 33  1  0  0  0  0 
 31 34  1  0  0  0  0 
 34 35  1  0  0  0  0 
 34 36  1  0  0  0  0 
 34 37  1  0  0  0  0 
 37 38  2  0  0  0  0 
 38 39  1  0  0  0  0 
 38 40  1  0  0  0  0 
 40 41  1  0  0  0  0 
 40 42  2  0  0  0  0 
 42 43  1  0  0  0  0 
 42 44  1  0  0  0  0 
 44 45  2  0  0  0  0 
 37 45  1  0  0  0  0 
 21 45  1  0  0  0  0 
 44 46  1  0  0  0  0 
 46 47  1  0  0  0  0 
 25 48  1  0  0  0  0 
 48 49  1  0  0  0  0 
 48 50  1  0  0  0  0 
 50 51  2  0  0  0  0 
 50 52  1  0  0  0  0 
 52 53  1  0  0  0  0 
 53 54  1  0  0  0  0 
 53 55  1  0  0  0  0 
 53 56  1  0  0  0  0 
 56 57  1  0  0  0  0 
 56 58  1  0  0  0  0 
 56 59  1  0  0  0  0 
M  END
> <Rank>
22

> <Priority_score>
0.13204196904829807

> <Reaction_type>
aromatic_hydroxylation_(ortho_to_nitrogen)

> <Parent_ID>
26

> <Parent_InChI>
InChI=1S/C23H29N3O3/c1-4-25(5-2)16-22(27)26-20-10-8-7-9-17(20)11-12-18-13-14-19(15-21(18)26)24-23(28)29-6-3/h7-10,13-15H,4-6,11-12,16H2,1-3H3,(H,24,28)

> <Parent_SMILES>
CCOC(=O)Nc1ccc2c(c1)N(C(=O)CN(CC)CC)c1ccccc1CC2

$$$$
Molecule 26_metabolite 24
  CDK     0516241031

 59 61  0  0  0  0  0  0  0  0999 V2000
   -2.5981   -7.3100    0.0000 C   0  0  0  0  0  0  0  0  0  0  0  0
   -1.2990   -8.0600    0.0000 H   0  0  0  0  0  0  0  0  0  0  0  0
   -4.0753   -7.0495    0.0000 H   0  0  0  0  0  0  0  0  0  0  0  0
   -3.1111   -8.7195    0.0000 H   0  0  0  0  0  0  0  0  0  0  0  0
   -2.5981   -5.8100    0.0000 C   0  0  0  0  0  0  0  0  0  0  0  0
   -4.0753   -6.0705    0.0000 H   0  0  0  0  0  0  0  0  0  0  0  0
   -3.1111   -4.4005    0.0000 H   0  0  0  0  0  0  0  0  0  0  0  0
   -0.8833   -4.8200    0.0000 N   0  0  0  0  0  0  0  0  0  0  0  0
    0.4157   -5.5700    0.0000 C   0  0  0  0  0  0  0  0  0  0  0  0
    0.9287   -4.1605    0.0000 H   0  0  0  0  0  0  0  0  0  0  0  0
    1.8929   -5.8305    0.0000 H   0  0  0  0  0  0  0  0  0  0  0  0
    0.4157   -7.0700    0.0000 C   0  0  0  0  0  0  0  0  0  0  0  0
    1.7147   -7.8200    0.0000 H   0  0  0  0  0  0  0  0  0  0  0  0
   -0.0973   -8.4795    0.0000 H   0  0  0  0  0  0  0  0  0  0  0  0
   -1.0615   -6.8095    0.0000 H   0  0  0  0  0  0  0  0  0  0  0  0
   -0.8833   -3.3200    0.0000 C   0  0  0  0  0  0  0  0  0  0  0  0
   -2.3606   -3.5805    0.0000 H   0  0  0  0  0  0  0  0  0  0  0  0
   -1.3964   -1.9105    0.0000 H   0  0  0  0  0  0  0  0  0  0  0  0
    0.4157   -2.5700    0.0000 C   0  0  0  0  0  0  0  0  0  0  0  0
    1.7147   -3.3200    0.0000 O   0  0  0  0  0  0  0  0  0  0  0  0
    0.4157   -1.0700    0.0000 N   0  0  0  0  0  0  0  0  0  0  0  0
   -0.9343   -0.4200    0.0000 C   0  0  0  0  0  0  0  0  0  0  0  0
   -1.2743    1.0400    0.0000 C   0  0  0  0  0  0  0  0  0  0  0  0
   -2.7043    1.4800    0.0000 C   0  0  0  0  0  0  0  0  0  0  0  0
   -3.0384    2.9423    0.0000 H   0  0  0  0  0  0  0  0  0  0  0  0
   -3.8043    0.4600    0.0000 C   0  0  0  0  0  0  0  0  0  0  0  0
   -5.2386    0.8992    0.0000 H   0  0  0  0  0  0  0  0  0  0  0  0
   -3.4643   -1.0000    0.0000 C   0  0  0  0  0  0  0  0  0  0  0  0
   -4.5613   -2.0231    0.0000 H   0  0  0  0  0  0  0  0  0  0  0  0
   -2.0343   -1.4400    0.0000 C   0  0  0  0  0  0  0  0  0  0  0  0
   -1.7002   -2.9023    0.0000 H   0  0  0  0  0  0  0  0  0  0  0  0
   -0.3343    2.2100    0.0000 C   0  0  0  0  0  0  0  0  0  0  0  0
    0.0012    3.6720    0.0000 H   0  0  0  0  0  0  0  0  0  0  0  0
   -1.6842    2.8641    0.0000 H   0  0  0  0  0  0  0  0  0  0  0  0
    1.1657    2.2100    0.0000 C   0  0  0  0  0  0  0  0  0  0  0  0
    2.5156    2.8641    0.0000 H   0  0  0  0  0  0  0  0  0  0  0  0
    0.8301    3.6720    0.0000 H   0  0  0  0  0  0  0  0  0  0  0  0
    2.1057    1.0400    0.0000 C   0  0  0  0  0  0  0  0  0  0  0  0
    3.5357    1.4800    0.0000 C   0  0  0  0  0  0  0  0  0  0  0  0
    3.8698    2.9423    0.0000 H   0  0  0  0  0  0  0  0  0  0  0  0
    4.6357    0.4600    0.0000 C   0  0  0  0  0  0  0  0  0  0  0  0
    6.0700    0.8992    0.0000 H   0  0  0  0  0  0  0  0  0  0  0  0
    4.2957   -1.0000    0.0000 C   0  0  0  0  0  0  0  0  0  0  0  0
    2.8657   -1.4400    0.0000 C   0  0  0  0  0  0  0  0  0  0  0  0
    1.7657   -0.4200    0.0000 C   0  0  0  0  0  0  0  0  0  0  0  0
    2.5316   -2.9023    0.0000 O   0  0  0  0  0  0  0  0  0  0  0  0
    3.6310   -3.9228    0.0000 H   0  0  0  0  0  0  0  0  0  0  0  0
    5.3927   -2.0231    0.0000 N   0  0  0  0  0  0  0  0  0  0  0  0
    5.0552   -3.4846    0.0000 H   0  0  0  0  0  0  0  0  0  0  0  0
    6.8271   -1.5846    0.0000 C   0  0  0  0  0  0  0  0  0  0  0  0
    7.1647   -0.1230    0.0000 O   0  0  0  0  0  0  0  0  0  0  0  0
    7.9241   -2.6076    0.0000 O   0  0  0  0  0  0  0  0  0  0  0  0
    9.3586   -2.1692    0.0000 C   0  0  0  0  0  0  0  0  0  0  0  0
   10.5566   -1.2665    0.0000 H   0  0  0  0  0  0  0  0  0  0  0  0
    8.6777   -0.8326    0.0000 H   0  0  0  0  0  0  0  0  0  0  0  0
   10.4556   -3.1922    0.0000 C   0  0  0  0  0  0  0  0  0  0  0  0
   11.8901   -2.7537    0.0000 H   0  0  0  0  0  0  0  0  0  0  0  0
    9.2576   -4.0949    0.0000 H   0  0  0  0  0  0  0  0  0  0  0  0
   11.1365   -4.5288    0.0000 H   0  0  0  0  0  0  0  0  0  0  0  0
  1  2  1  0  0  0  0 
  1  3  1  0  0  0  0 
  1  4  1  0  0  0  0 
  1  5  1  0  0  0  0 
  5  6  1  0  0  0  0 
  5  7  1  0  0  0  0 
  5  8  1  0  0  0  0 
  8  9  1  0  0  0  0 
  9 10  1  0  0  0  0 
  9 11  1  0  0  0  0 
  9 12  1  0  0  0  0 
 12 13  1  0  0  0  0 
 12 14  1  0  0  0  0 
 12 15  1  0  0  0  0 
  8 16  1  0  0  0  0 
 16 17  1  0  0  0  0 
 16 18  1  0  0  0  0 
 16 19  1  0  0  0  0 
 19 20  2  0  0  0  0 
 19 21  1  0  0  0  0 
 21 22  1  0  0  0  0 
 22 23  2  0  0  0  0 
 23 24  1  0  0  0  0 
 24 25  1  0  0  0  0 
 24 26  2  0  0  0  0 
 26 27  1  0  0  0  0 
 26 28  1  0  0  0  0 
 28 29  1  0  0  0  0 
 28 30  2  0  0  0  0 
 22 30  1  0  0  0  0 
 30 31  1  0  0  0  0 
 23 32  1  0  0  0  0 
 32 33  1  0  0  0  0 
 32 34  1  0  0  0  0 
 32 35  1  0  0  0  0 
 35 36  1  0  0  0  0 
 35 37  1  0  0  0  0 
 35 38  1  0  0  0  0 
 38 39  2  0  0  0  0 
 39 40  1  0  0  0  0 
 39 41  1  0  0  0  0 
 41 42  1  0  0  0  0 
 41 43  2  0  0  0  0 
 43 44  1  0  0  0  0 
 44 45  2  0  0  0  0 
 38 45  1  0  0  0  0 
 21 45  1  0  0  0  0 
 44 46  1  0  0  0  0 
 46 47  1  0  0  0  0 
 43 48  1  0  0  0  0 
 48 49  1  0  0  0  0 
 48 50  1  0  0  0  0 
 50 51  2  0  0  0  0 
 50 52  1  0  0  0  0 
 52 53  1  0  0  0  0 
 53 54  1  0  0  0  0 
 53 55  1  0  0  0  0 
 53 56  1  0  0  0  0 
 56 57  1  0  0  0  0 
 56 58  1  0  0  0  0 
 56 59  1  0  0  0  0 
M  END
> <Rank>
24

> <Priority_score>
0.12

> <Reaction_type>
aromatic_hydroxylation_(ortho_to_2_substituents)

> <Parent_ID>
26

> <Parent_InChI>
InChI=1S/C23H29N3O3/c1-4-25(5-2)16-22(27)26-20-10-8-7-9-17(20)11-12-18-13-14-19(15-21(18)26)24-23(28)29-6-3/h7-10,13-15H,4-6,11-12,16H2,1-3H3,(H,24,28)

> <Parent_SMILES>
CCOC(=O)Nc1ccc2c(c1)N(C(=O)CN(CC)CC)c1ccccc1CC2

$$$$
Molecule 26_metabolite 25
  CDK     0516241031

 56 58  0  0  0  0  0  0  0  0999 V2000
    2.5981   -7.3100    0.0000 C   0  0  0  0  0  0  0  0  0  0  0  0
    3.8971   -8.0600    0.0000 H   0  0  0  0  0  0  0  0  0  0  0  0
    1.2990   -8.0600    0.0000 H   0  0  0  0  0  0  0  0  0  0  0  0
    2.5981   -5.8100    0.0000 C   0  0  0  0  0  0  0  0  0  0  0  0
    3.8971   -5.0600    0.0000 H   0  0  0  0  0  0  0  0  0  0  0  0
    1.2990   -5.0600    0.0000 N   0  0  0  0  0  0  0  0  0  0  0  0
   -0.0000   -5.8100    0.0000 C   0  0  0  0  0  0  0  0  0  0  0  0
   -1.4772   -6.0705    0.0000 H   0  0  0  0  0  0  0  0  0  0  0  0
   -0.5130   -4.4005    0.0000 H   0  0  0  0  0  0  0  0  0  0  0  0
   -0.0000   -7.3100    0.0000 C   0  0  0  0  0  0  0  0  0  0  0  0
   -1.2990   -8.0600    0.0000 H   0  0  0  0  0  0  0  0  0  0  0  0
    1.4772   -7.0495    0.0000 H   0  0  0  0  0  0  0  0  0  0  0  0
    0.5130   -8.7195    0.0000 H   0  0  0  0  0  0  0  0  0  0  0  0
    1.2990   -3.5600    0.0000 C   0  0  0  0  0  0  0  0  0  0  0  0
    2.7762   -3.8205    0.0000 H   0  0  0  0  0  0  0  0  0  0  0  0
    1.8121   -2.1505    0.0000 H   0  0  0  0  0  0  0  0  0  0  0  0
   -0.0000   -2.8100    0.0000 C   0  0  0  0  0  0  0  0  0  0  0  0
   -1.2990   -3.5600    0.0000 O   0  0  0  0  0  0  0  0  0  0  0  0
    0.0000   -1.3100    0.0000 N   0  0  0  0  0  0  0  0  0  0  0  0
   -1.3500   -0.6600    0.0000 C   0  0  0  0  0  0  0  0  0  0  0  0
   -1.6900    0.8000    0.0000 C   0  0  0  0  0  0  0  0  0  0  0  0
   -3.1200    1.2400    0.0000 C   0  0  0  0  0  0  0  0  0  0  0  0
   -3.4541    2.7023    0.0000 H   0  0  0  0  0  0  0  0  0  0  0  0
   -4.2200    0.2200    0.0000 C   0  0  0  0  0  0  0  0  0  0  0  0
   -5.6543    0.6592    0.0000 H   0  0  0  0  0  0  0  0  0  0  0  0
   -3.8800   -1.2400    0.0000 C   0  0  0  0  0  0  0  0  0  0  0  0
   -4.9770   -2.2631    0.0000 H   0  0  0  0  0  0  0  0  0  0  0  0
   -2.4500   -1.6800    0.0000 C   0  0  0  0  0  0  0  0  0  0  0  0
   -2.1159   -3.1423    0.0000 H   0  0  0  0  0  0  0  0  0  0  0  0
   -0.7500    1.9700    0.0000 C   0  0  0  0  0  0  0  0  0  0  0  0
   -0.4145    3.4320    0.0000 H   0  0  0  0  0  0  0  0  0  0  0  0
   -2.0999    2.6241    0.0000 H   0  0  0  0  0  0  0  0  0  0  0  0
    0.7500    1.9700    0.0000 C   0  0  0  0  0  0  0  0  0  0  0  0
    2.0999    2.6241    0.0000 H   0  0  0  0  0  0  0  0  0  0  0  0
    0.4145    3.4320    0.0000 H   0  0  0  0  0  0  0  0  0  0  0  0
    1.6900    0.8000    0.0000 C   0  0  0  0  0  0  0  0  0  0  0  0
    3.1200    1.2400    0.0000 C   0  0  0  0  0  0  0  0  0  0  0  0
    3.4541    2.7023    0.0000 H   0  0  0  0  0  0  0  0  0  0  0  0
    4.2200    0.2200    0.0000 C   0  0  0  0  0  0  0  0  0  0  0  0
    5.6543    0.6592    0.0000 H   0  0  0  0  0  0  0  0  0  0  0  0
    3.8800   -1.2400    0.0000 C   0  0  0  0  0  0  0  0  0  0  0  0
    2.4500   -1.6800    0.0000 C   0  0  0  0  0  0  0  0  0  0  0  0
    2.1159   -3.1423    0.0000 H   0  0  0  0  0  0  0  0  0  0  0  0
    1.3500   -0.6600    0.0000 C   0  0  0  0  0  0  0  0  0  0  0  0
    4.9770   -2.2631    0.0000 N   0  0  0  0  0  0  0  0  0  0  0  0
    4.6395   -3.7246    0.0000 H   0  0  0  0  0  0  0  0  0  0  0  0
    6.4115   -1.8246    0.0000 C   0  0  0  0  0  0  0  0  0  0  0  0
    6.7490   -0.3630    0.0000 O   0  0  0  0  0  0  0  0  0  0  0  0
    7.5084   -2.8476    0.0000 O   0  0  0  0  0  0  0  0  0  0  0  0
    8.9429   -2.4092    0.0000 C   0  0  0  0  0  0  0  0  0  0  0  0
   10.1409   -1.5065    0.0000 H   0  0  0  0  0  0  0  0  0  0  0  0
    8.2620   -1.0726    0.0000 H   0  0  0  0  0  0  0  0  0  0  0  0
   10.0399   -3.4322    0.0000 C   0  0  0  0  0  0  0  0  0  0  0  0
   11.4744   -2.9937    0.0000 H   0  0  0  0  0  0  0  0  0  0  0  0
    8.8419   -4.3349    0.0000 H   0  0  0  0  0  0  0  0  0  0  0  0
   10.7208   -4.7688    0.0000 H   0  0  0  0  0  0  0  0  0  0  0  0
  1  2  1  0  0  0  0 
  1  3  1  0  0  0  0 
  1  4  2  0  0  0  0 
  4  5  1  0  0  0  0 
  4  6  1  0  0  0  0 
  6  7  1  0  0  0  0 
  7  8  1  0  0  0  0 
  7  9  1  0  0  0  0 
  7 10  1  0  0  0  0 
 10 11  1  0  0  0  0 
 10 12  1  0  0  0  0 
 10 13  1  0  0  0  0 
  6 14  1  0  0  0  0 
 14 15  1  0  0  0  0 
 14 16  1  0  0  0  0 
 14 17  1  0  0  0  0 
 17 18  2  0  0  0  0 
 17 19  1  0  0  0  0 
 19 20  1  0  0  0  0 
 20 21  2  0  0  0  0 
 21 22  1  0  0  0  0 
 22 23  1  0  0  0  0 
 22 24  2  0  0  0  0 
 24 25  1  0  0  0  0 
 24 26  1  0  0  0  0 
 26 27  1  0  0  0  0 
 26 28  2  0  0  0  0 
 20 28  1  0  0  0  0 
 28 29  1  0  0  0  0 
 21 30  1  0  0  0  0 
 30 31  1  0  0  0  0 
 30 32  1  0  0  0  0 
 30 33  1  0  0  0  0 
 33 34  1  0  0  0  0 
 33 35  1  0  0  0  0 
 33 36  1  0  0  0  0 
 36 37  2  0  0  0  0 
 37 38  1  0  0  0  0 
 37 39  1  0  0  0  0 
 39 40  1  0  0  0  0 
 39 41  2  0  0  0  0 
 41 42  1  0  0  0  0 
 42 43  1  0  0  0  0 
 42 44  2  0  0  0  0 
 36 44  1  0  0  0  0 
 19 44  1  0  0  0  0 
 41 45  1  0  0  0  0 
 45 46  1  0  0  0  0 
 45 47  1  0  0  0  0 
 47 48  2  0  0  0  0 
 47 49  1  0  0  0  0 
 49 50  1  0  0  0  0 
 50 51  1  0  0  0  0 
 50 52  1  0  0  0  0 
 50 53  1  0  0  0  0 
 53 54  1  0  0  0  0 
 53 55  1  0  0  0  0 
 53 56  1  0  0  0  0 
M  END
> <Rank>
25

> <Priority_score>
0.1144

> <Reaction_type>
alkyl dehydrogenation

> <Parent_ID>
26

> <Parent_InChI>
InChI=1S/C23H29N3O3/c1-4-25(5-2)16-22(27)26-20-10-8-7-9-17(20)11-12-18-13-14-19(15-21(18)26)24-23(28)29-6-3/h7-10,13-15H,4-6,11-12,16H2,1-3H3,(H,24,28)

> <Parent_SMILES>
CCOC(=O)Nc1ccc2c(c1)N(C(=O)CN(CC)CC)c1ccccc1CC2

$$$$
Molecule 26_metabolite 26
  CDK     0516241031

 57 59  0  0  0  0  0  0  0  0999 V2000
   -0.0000   -7.3100    0.0000 C   0  0  0  0  0  0  0  0  0  0  0  0
    1.2990   -8.0600    0.0000 H   0  0  0  0  0  0  0  0  0  0  0  0
   -0.5130   -8.7195    0.0000 H   0  0  0  0  0  0  0  0  0  0  0  0
   -1.4772   -7.0495    0.0000 H   0  0  0  0  0  0  0  0  0  0  0  0
   -0.0000   -5.8100    0.0000 C   0  0  0  0  0  0  0  0  0  0  0  0
   -1.2990   -5.0600    0.0000 H   0  0  0  0  0  0  0  0  0  0  0  0
    1.2990   -5.0600    0.0000 N   0  0  0  0  0  0  0  0  0  0  0  0
    2.5981   -5.8100    0.0000 C   0  0  0  0  0  0  0  0  0  0  0  0
    4.0753   -6.0705    0.0000 H   0  0  0  0  0  0  0  0  0  0  0  0
    3.1111   -4.4005    0.0000 H   0  0  0  0  0  0  0  0  0  0  0  0
    2.5981   -7.3100    0.0000 C   0  0  0  0  0  0  0  0  0  0  0  0
    3.8971   -8.0600    0.0000 H   0  0  0  0  0  0  0  0  0  0  0  0
    1.1209   -7.0495    0.0000 H   0  0  0  0  0  0  0  0  0  0  0  0
    2.0850   -8.7195    0.0000 H   0  0  0  0  0  0  0  0  0  0  0  0
    1.2990   -3.5600    0.0000 C   0  0  0  0  0  0  0  0  0  0  0  0
   -0.1782   -3.8205    0.0000 H   0  0  0  0  0  0  0  0  0  0  0  0
    0.7860   -2.1505    0.0000 H   0  0  0  0  0  0  0  0  0  0  0  0
    2.5981   -2.8100    0.0000 C   0  0  0  0  0  0  0  0  0  0  0  0
    3.8971   -3.5600    0.0000 O   0  0  0  0  0  0  0  0  0  0  0  0
    2.5981   -1.3100    0.0000 N   0  0  0  0  0  0  0  0  0  0  0  0
    3.9481   -0.6600    0.0000 C   0  0  0  0  0  0  0  0  0  0  0  0
    4.2881    0.8000    0.0000 C   0  0  0  0  0  0  0  0  0  0  0  0
    5.7181    1.2400    0.0000 C   0  0  0  0  0  0  0  0  0  0  0  0
    6.0521    2.7023    0.0000 H   0  0  0  0  0  0  0  0  0  0  0  0
    6.8181    0.2200    0.0000 C   0  0  0  0  0  0  0  0  0  0  0  0
    8.2523    0.6592    0.0000 H   0  0  0  0  0  0  0  0  0  0  0  0
    6.4781   -1.2400    0.0000 C   0  0  0  0  0  0  0  0  0  0  0  0
    7.5750   -2.2631    0.0000 H   0  0  0  0  0  0  0  0  0  0  0  0
    5.0481   -1.6800    0.0000 C   0  0  0  0  0  0  0  0  0  0  0  0
    4.7140   -3.1423    0.0000 H   0  0  0  0  0  0  0  0  0  0  0  0
    3.3481    1.9700    0.0000 C   0  0  0  0  0  0  0  0  0  0  0  0
    3.0125    3.4320    0.0000 H   0  0  0  0  0  0  0  0  0  0  0  0
    4.6980    2.6241    0.0000 H   0  0  0  0  0  0  0  0  0  0  0  0
    1.8481    1.9700    0.0000 C   0  0  0  0  0  0  0  0  0  0  0  0
    0.4982    2.6241    0.0000 H   0  0  0  0  0  0  0  0  0  0  0  0
    2.1836    3.4320    0.0000 H   0  0  0  0  0  0  0  0  0  0  0  0
    0.9081    0.8000    0.0000 C   0  0  0  0  0  0  0  0  0  0  0  0
   -0.5219    1.2400    0.0000 C   0  0  0  0  0  0  0  0  0  0  0  0
   -0.8560    2.7023    0.0000 H   0  0  0  0  0  0  0  0  0  0  0  0
   -1.6219    0.2200    0.0000 C   0  0  0  0  0  0  0  0  0  0  0  0
   -3.0562    0.6592    0.0000 H   0  0  0  0  0  0  0  0  0  0  0  0
   -1.2819   -1.2400    0.0000 C   0  0  0  0  0  0  0  0  0  0  0  0
    0.1481   -1.6800    0.0000 C   0  0  0  0  0  0  0  0  0  0  0  0
    0.4821   -3.1423    0.0000 H   0  0  0  0  0  0  0  0  0  0  0  0
    1.2481   -0.6600    0.0000 C   0  0  0  0  0  0  0  0  0  0  0  0
   -2.3789   -2.2631    0.0000 N   0  0  0  0  0  0  0  0  0  0  0  0
   -2.0414   -3.7246    0.0000 H   0  0  0  0  0  0  0  0  0  0  0  0
   -3.8134   -1.8246    0.0000 C   0  0  0  0  0  0  0  0  0  0  0  0
   -4.1509   -0.3630    0.0000 O   0  0  0  0  0  0  0  0  0  0  0  0
   -4.9104   -2.8476    0.0000 O   0  0  0  0  0  0  0  0  0  0  0  0
   -6.3448   -2.4092    0.0000 C   0  0  0  0  0  0  0  0  0  0  0  0
   -7.5428   -1.5065    0.0000 H   0  0  0  0  0  0  0  0  0  0  0  0
   -5.6639   -1.0726    0.0000 H   0  0  0  0  0  0  0  0  0  0  0  0
   -7.4418   -3.4322    0.0000 C   0  0  0  0  0  0  0  0  0  0  0  0
   -8.8763   -2.9937    0.0000 H   0  0  0  0  0  0  0  0  0  0  0  0
   -6.2438   -4.3349    0.0000 H   0  0  0  0  0  0  0  0  0  0  0  0
   -8.1227   -4.7688    0.0000 H   0  0  0  0  0  0  0  0  0  0  0  0
  1  2  1  0  0  0  0 
  1  3  1  0  0  0  0 
  1  4  1  0  0  0  0 
  1  5  1  0  0  0  0 
  5  6  1  4  0  0  0 
  5  7  2  0  0  0  0 
  7  8  1  0  0  0  0 
  8  9  1  0  0  0  0 
  8 10  1  0  0  0  0 
  8 11  1  0  0  0  0 
 11 12  1  0  0  0  0 
 11 13  1  0  0  0  0 
 11 14  1  0  0  0  0 
  7 15  1  0  0  0  0 
 15 16  1  0  0  0  0 
 15 17  1  0  0  0  0 
 15 18  1  0  0  0  0 
 18 19  2  0  0  0  0 
 18 20  1  0  0  0  0 
 20 21  1  0  0  0  0 
 21 22  2  0  0  0  0 
 22 23  1  0  0  0  0 
 23 24  1  0  0  0  0 
 23 25  2  0  0  0  0 
 25 26  1  0  0  0  0 
 25 27  1  0  0  0  0 
 27 28  1  0  0  0  0 
 27 29  2  0  0  0  0 
 21 29  1  0  0  0  0 
 29 30  1  0  0  0  0 
 22 31  1  0  0  0  0 
 31 32  1  0  0  0  0 
 31 33  1  0  0  0  0 
 31 34  1  0  0  0  0 
 34 35  1  0  0  0  0 
 34 36  1  0  0  0  0 
 34 37  1  0  0  0  0 
 37 38  2  0  0  0  0 
 38 39  1  0  0  0  0 
 38 40  1  0  0  0  0 
 40 41  1  0  0  0  0 
 40 42  2  0  0  0  0 
 42 43  1  0  0  0  0 
 43 44  1  0  0  0  0 
 43 45  2  0  0  0  0 
 37 45  1  0  0  0  0 
 20 45  1  0  0  0  0 
 42 46  1  0  0  0  0 
 46 47  1  0  0  0  0 
 46 48  1  0  0  0  0 
 48 49  2  0  0  0  0 
 48 50  1  0  0  0  0 
 50 51  1  0  0  0  0 
 51 52  1  0  0  0  0 
 51 53  1  0  0  0  0 
 51 54  1  0  0  0  0 
 54 55  1  0  0  0  0 
 54 56  1  0  0  0  0 
 54 57  1  0  0  0  0 
M  CHG  1   7   1
M  END
> <Rank>
25

> <Priority_score>
0.1144

> <Reaction_type>
dehydration of N-C bond

> <Parent_ID>
26

> <Parent_InChI>
InChI=1S/C23H29N3O3/c1-4-25(5-2)16-22(27)26-20-10-8-7-9-17(20)11-12-18-13-14-19(15-21(18)26)24-23(28)29-6-3/h7-10,13-15H,4-6,11-12,16H2,1-3H3,(H,24,28)

> <Parent_SMILES>
CCOC(=O)Nc1ccc2c(c1)N(C(=O)CN(CC)CC)c1ccccc1CC2

$$$$
Molecule 26_metabolite 27
  CDK     0516241031

 59 61  0  0  0  0  0  0  0  0999 V2000
   -3.4295   -7.7900    0.0000 C   0  0  0  0  0  0  0  0  0  0  0  0
   -2.1304   -8.5400    0.0000 H   0  0  0  0  0  0  0  0  0  0  0  0
   -4.9067   -7.5295    0.0000 H   0  0  0  0  0  0  0  0  0  0  0  0
   -3.9425   -9.1995    0.0000 H   0  0  0  0  0  0  0  0  0  0  0  0
   -3.4295   -6.2900    0.0000 C   0  0  0  0  0  0  0  0  0  0  0  0
   -4.9067   -6.5505    0.0000 H   0  0  0  0  0  0  0  0  0  0  0  0
   -3.9425   -4.8805    0.0000 H   0  0  0  0  0  0  0  0  0  0  0  0
   -1.7147   -5.3000    0.0000 N   0  0  0  0  0  0  0  0  0  0  0  0
   -0.4157   -6.0500    0.0000 C   0  0  0  0  0  0  0  0  0  0  0  0
    0.0973   -4.6405    0.0000 H   0  0  0  0  0  0  0  0  0  0  0  0
    1.0615   -6.3105    0.0000 H   0  0  0  0  0  0  0  0  0  0  0  0
   -0.4157   -7.5500    0.0000 C   0  0  0  0  0  0  0  0  0  0  0  0
    0.8833   -8.3000    0.0000 H   0  0  0  0  0  0  0  0  0  0  0  0
   -0.9287   -8.9595    0.0000 H   0  0  0  0  0  0  0  0  0  0  0  0
   -1.8929   -7.2895    0.0000 H   0  0  0  0  0  0  0  0  0  0  0  0
   -1.7147   -3.8000    0.0000 C   0  0  0  0  0  0  0  0  0  0  0  0
   -3.1919   -4.0605    0.0000 H   0  0  0  0  0  0  0  0  0  0  0  0
    0.4157   -2.5700    0.0000 C   0  0  0  0  0  0  0  0  0  0  0  0
    1.7147   -3.3200    0.0000 O   0  0  0  0  0  0  0  0  0  0  0  0
    0.4157    0.3700    0.0000 N   0  0  0  0  0  0  0  0  0  0  0  0
   -0.9343    1.0200    0.0000 C   0  0  0  0  0  0  0  0  0  0  0  0
   -1.2743    2.4800    0.0000 C   0  0  0  0  0  0  0  0  0  0  0  0
   -2.7043    2.9200    0.0000 C   0  0  0  0  0  0  0  0  0  0  0  0
   -3.0384    4.3823    0.0000 H   0  0  0  0  0  0  0  0  0  0  0  0
   -3.8043    1.9000    0.0000 C   0  0  0  0  0  0  0  0  0  0  0  0
   -5.2386    2.3392    0.0000 H   0  0  0  0  0  0  0  0  0  0  0  0
   -3.4643    0.4400    0.0000 C   0  0  0  0  0  0  0  0  0  0  0  0
   -4.5613   -0.5831    0.0000 H   0  0  0  0  0  0  0  0  0  0  0  0
   -2.0343    0.0000    0.0000 C   0  0  0  0  0  0  0  0  0  0  0  0
   -1.7002   -1.4623    0.0000 H   0  0  0  0  0  0  0  0  0  0  0  0
   -0.3343    3.6500    0.0000 C   0  0  0  0  0  0  0  0  0  0  0  0
    0.0012    5.1120    0.0000 H   0  0  0  0  0  0  0  0  0  0  0  0
   -1.6842    4.3041    0.0000 H   0  0  0  0  0  0  0  0  0  0  0  0
    1.1657    3.6500    0.0000 C   0  0  0  0  0  0  0  0  0  0  0  0
    2.5156    4.3041    0.0000 H   0  0  0  0  0  0  0  0  0  0  0  0
    0.8301    5.1120    0.0000 H   0  0  0  0  0  0  0  0  0  0  0  0
    2.1057    2.4800    0.0000 C   0  0  0  0  0  0  0  0  0  0  0  0
    3.5357    2.9200    0.0000 C   0  0  0  0  0  0  0  0  0  0  0  0
    3.8698    4.3823    0.0000 H   0  0  0  0  0  0  0  0  0  0  0  0
    4.6357    1.9000    0.0000 C   0  0  0  0  0  0  0  0  0  0  0  0
    6.0700    2.3392    0.0000 H   0  0  0  0  0  0  0  0  0  0  0  0
    4.2957    0.4400    0.0000 C   0  0  0  0  0  0  0  0  0  0  0  0
    2.8657    0.0000    0.0000 C   0  0  0  0  0  0  0  0  0  0  0  0
    2.5316   -1.4623    0.0000 H   0  0  0  0  0  0  0  0  0  0  0  0
    1.7657    1.0200    0.0000 C   0  0  0  0  0  0  0  0  0  0  0  0
    5.3927   -0.5831    0.0000 N   0  0  0  0  0  0  0  0  0  0  0  0
    5.0552   -2.0446    0.0000 H   0  0  0  0  0  0  0  0  0  0  0  0
    6.8271   -0.1446    0.0000 C   0  0  0  0  0  0  0  0  0  0  0  0
    7.1647    1.3170    0.0000 O   0  0  0  0  0  0  0  0  0  0  0  0
    7.9241   -1.1676    0.0000 O   0  0  0  0  0  0  0  0  0  0  0  0
    9.3586   -0.7292    0.0000 C   0  0  0  0  0  0  0  0  0  0  0  0
   10.5566    0.1735    0.0000 H   0  0  0  0  0  0  0  0  0  0  0  0
    8.6777    0.6074    0.0000 H   0  0  0  0  0  0  0  0  0  0  0  0
   10.4556   -1.7522    0.0000 C   0  0  0  0  0  0  0  0  0  0  0  0
   11.8901   -1.3137    0.0000 H   0  0  0  0  0  0  0  0  0  0  0  0
    9.2576   -2.6549    0.0000 H   0  0  0  0  0  0  0  0  0  0  0  0
   11.1365   -3.0888    0.0000 H   0  0  0  0  0  0  0  0  0  0  0  0
   -2.2278   -2.3905    0.0000 O   0  0  0  0  0  0  0  0  0  0  0  0
   -3.7050   -2.1300    0.0000 H   0  0  0  0  0  0  0  0  0  0  0  0
  1  2  1  0  0  0  0 
  1  3  1  0  0  0  0 
  1  4  1  0  0  0  0 
  1  5  1  0  0  0  0 
  5  6  1  0  0  0  0 
  5  7  1  0  0  0  0 
  5  8  1  0  0  0  0 
  8  9  1  0  0  0  0 
  9 10  1  0  0  0  0 
  9 11  1  0  0  0  0 
  9 12  1  0  0  0  0 
 12 13  1  0  0  0  0 
 12 14  1  0  0  0  0 
 12 15  1  0  0  0  0 
  8 16  1  0  0  0  0 
 16 17  1  0  0  0  0 
 16 18  1  0  0  0  0 
 18 19  2  0  0  0  0 
 18 20  1  0  0  0  0 
 20 21  1  0  0  0  0 
 21 22  2  0  0  0  0 
 22 23  1  0  0  0  0 
 23 24  1  0  0  0  0 
 23 25  2  0  0  0  0 
 25 26  1  0  0  0  0 
 25 27  1  0  0  0  0 
 27 28  1  0  0  0  0 
 27 29  2  0  0  0  0 
 21 29  1  0  0  0  0 
 29 30  1  0  0  0  0 
 22 31  1  0  0  0  0 
 31 32  1  0  0  0  0 
 31 33  1  0  0  0  0 
 31 34  1  0  0  0  0 
 34 35  1  0  0  0  0 
 34 36  1  0  0  0  0 
 34 37  1  0  0  0  0 
 37 38  2  0  0  0  0 
 38 39  1  0  0  0  0 
 38 40  1  0  0  0  0 
 40 41  1  0  0  0  0 
 40 42  2  0  0  0  0 
 42 43  1  0  0  0  0 
 43 44  1  0  0  0  0 
 43 45  2  0  0  0  0 
 37 45  1  0  0  0  0 
 20 45  1  0  0  0  0 
 42 46  1  0  0  0  0 
 46 47  1  0  0  0  0 
 46 48  1  0  0  0  0 
 48 49  2  0  0  0  0 
 48 50  1  0  0  0  0 
 50 51  1  0  0  0  0 
 51 52  1  0  0  0  0 
 51 53  1  0  0  0  0 
 51 54  1  0  0  0  0 
 54 55  1  0  0  0  0 
 54 56  1  0  0  0  0 
 54 57  1  0  0  0  0 
 16 58  1  0  0  0  0 
 58 59  1  0  0  0  0 
M  END
> <Rank>
27

> <Priority_score>
0.108

> <Reaction_type>
aliphatic hydroxylation

> <Parent_ID>
26

> <Parent_InChI>
InChI=1S/C23H29N3O3/c1-4-25(5-2)16-22(27)26-20-10-8-7-9-17(20)11-12-18-13-14-19(15-21(18)26)24-23(28)29-6-3/h7-10,13-15H,4-6,11-12,16H2,1-3H3,(H,24,28)

> <Parent_SMILES>
CCOC(=O)Nc1ccc2c(c1)N(C(=O)CN(CC)CC)c1ccccc1CC2

$$$$
Molecule 26_metabolite 28
  CDK     0516241031

  3  2  0  0  0  0  0  0  0  0999 V2000
    1.2990   -0.7500    0.0000 C   0  0  0  0  0  0  0  0  0  0  0  0
   -0.2010   -0.7500    0.0000 O   0  0  0  0  0  0  0  0  0  0  0  0
    2.7990   -0.7500    0.0000 O   0  0  0  0  0  0  0  0  0  0  0  0
  1  2  2  0  0  0  0 
  1  3  2  0  0  0  0 
M  END
> <Rank>
28

> <Priority_score>
0.07347424452453563

> <Reaction_type>
carbamate cleavage

> <Parent_ID>
26

> <Parent_InChI>
InChI=1S/C23H29N3O3/c1-4-25(5-2)16-22(27)26-20-10-8-7-9-17(20)11-12-18-13-14-19(15-21(18)26)24-23(28)29-6-3/h7-10,13-15H,4-6,11-12,16H2,1-3H3,(H,24,28)

> <Parent_SMILES>
CCOC(=O)Nc1ccc2c(c1)N(C(=O)CN(CC)CC)c1ccccc1CC2

$$$$
Molecule 26_metabolite 29
  CDK     0516241031

 56 58  0  0  0  0  0  0  0  0999 V2000
    2.5981   -7.7900    0.0000 C   0  0  0  0  0  0  0  0  0  0  0  0
    1.2990   -8.5400    0.0000 H   0  0  0  0  0  0  0  0  0  0  0  0
    4.0753   -7.5295    0.0000 H   0  0  0  0  0  0  0  0  0  0  0  0
    3.1111   -9.1995    0.0000 H   0  0  0  0  0  0  0  0  0  0  0  0
    2.5981   -6.2900    0.0000 C   0  0  0  0  0  0  0  0  0  0  0  0
    4.0753   -6.5505    0.0000 H   0  0  0  0  0  0  0  0  0  0  0  0
    3.1111   -4.8805    0.0000 H   0  0  0  0  0  0  0  0  0  0  0  0
    1.2990   -5.5400    0.0000 N   0  0  0  0  0  0  0  0  0  0  0  0
   -0.0000   -6.2900    0.0000 C   0  0  0  0  0  0  0  0  0  0  0  0
   -0.5130   -4.8805    0.0000 H   0  0  0  0  0  0  0  0  0  0  0  0
   -1.4772   -6.5505    0.0000 H   0  0  0  0  0  0  0  0  0  0  0  0
   -0.0000   -7.7900    0.0000 C   0  0  0  0  0  0  0  0  0  0  0  0
   -1.2990   -8.5400    0.0000 H   0  0  0  0  0  0  0  0  0  0  0  0
    0.5130   -9.1995    0.0000 H   0  0  0  0  0  0  0  0  0  0  0  0
    1.4772   -7.5295    0.0000 H   0  0  0  0  0  0  0  0  0  0  0  0
    1.2990   -3.5600    0.0000 C   0  0  0  0  0  0  0  0  0  0  0  0
    2.7762   -3.8205    0.0000 H   0  0  0  0  0  0  0  0  0  0  0  0
    1.8121   -2.1505    0.0000 H   0  0  0  0  0  0  0  0  0  0  0  0
   -0.0000   -2.8100    0.0000 C   0  0  0  0  0  0  0  0  0  0  0  0
   -1.2990   -3.5600    0.0000 O   0  0  0  0  0  0  0  0  0  0  0  0
    0.0000   -1.3100    0.0000 N   0  0  0  0  0  0  0  0  0  0  0  0
   -1.3500   -0.6600    0.0000 C   0  0  0  0  0  0  0  0  0  0  0  0
   -1.6900    0.8000    0.0000 C   0  0  0  0  0  0  0  0  0  0  0  0
   -3.1200    1.2400    0.0000 C   0  0  0  0  0  0  0  0  0  0  0  0
   -3.4541    2.7023    0.0000 H   0  0  0  0  0  0  0  0  0  0  0  0
   -4.2200    0.2200    0.0000 C   0  0  0  0  0  0  0  0  0  0  0  0
   -5.6543    0.6592    0.0000 H   0  0  0  0  0  0  0  0  0  0  0  0
   -3.8800   -1.2400    0.0000 C   0  0  0  0  0  0  0  0  0  0  0  0
   -4.9770   -2.2631    0.0000 H   0  0  0  0  0  0  0  0  0  0  0  0
   -2.4500   -1.6800    0.0000 C   0  0  0  0  0  0  0  0  0  0  0  0
   -2.1159   -3.1423    0.0000 H   0  0  0  0  0  0  0  0  0  0  0  0
   -0.7500    1.9700    0.0000 C   0  0  0  0  0  0  0  0  0  0  0  0
   -0.4145    3.4320    0.0000 H   0  0  0  0  0  0  0  0  0  0  0  0
   -2.0999    2.6241    0.0000 H   0  0  0  0  0  0  0  0  0  0  0  0
    0.7500    1.9700    0.0000 C   0  0  0  0  0  0  0  0  0  0  0  0
    2.0999    2.6241    0.0000 H   0  0  0  0  0  0  0  0  0  0  0  0
    0.4145    3.4320    0.0000 H   0  0  0  0  0  0  0  0  0  0  0  0
    1.6900    0.8000    0.0000 C   0  0  0  0  0  0  0  0  0  0  0  0
    3.1200    1.2400    0.0000 C   0  0  0  0  0  0  0  0  0  0  0  0
    3.4541    2.7023    0.0000 H   0  0  0  0  0  0  0  0  0  0  0  0
    4.2200    0.2200    0.0000 C   0  0  0  0  0  0  0  0  0  0  0  0
    5.6543    0.6592    0.0000 H   0  0  0  0  0  0  0  0  0  0  0  0
    3.8800   -1.2400    0.0000 C   0  0  0  0  0  0  0  0  0  0  0  0
    2.4500   -1.6800    0.0000 C   0  0  0  0  0  0  0  0  0  0  0  0
    2.1159   -3.1423    0.0000 H   0  0  0  0  0  0  0  0  0  0  0  0
    1.3500   -0.6600    0.0000 C   0  0  0  0  0  0  0  0  0  0  0  0
    4.9770   -2.2631    0.0000 N   0  0  0  0  0  0  0  0  0  0  0  0
    4.6395   -3.7246    0.0000 H   0  0  0  0  0  0  0  0  0  0  0  0
    6.4115   -1.8246    0.0000 C   0  0  0  0  0  0  0  0  0  0  0  0
    6.7490   -0.3630    0.0000 O   0  0  0  0  0  0  0  0  0  0  0  0
    7.5084   -2.8476    0.0000 O   0  0  0  0  0  0  0  0  0  0  0  0
    8.9429   -2.4092    0.0000 C   0  0  0  0  0  0  0  0  0  0  0  0
    9.2804   -0.9476    0.0000 H   0  0  0  0  0  0  0  0  0  0  0  0
   10.0399   -3.4322    0.0000 C   0  0  0  0  0  0  0  0  0  0  0  0
   11.4744   -2.9937    0.0000 H   0  0  0  0  0  0  0  0  0  0  0  0
    9.7024   -4.8938    0.0000 H   0  0  0  0  0  0  0  0  0  0  0  0
  1  2  1  0  0  0  0 
  1  3  1  0  0  0  0 
  1  4  1  0  0  0  0 
  1  5  1  0  0  0  0 
  5  6  1  0  0  0  0 
  5  7  1  0  0  0  0 
  5  8  1  0  0  0  0 
  8  9  1  0  0  0  0 
  9 10  1  0  0  0  0 
  9 11  1  0  0  0  0 
  9 12  1  0  0  0  0 
 12 13  1  0  0  0  0 
 12 14  1  0  0  0  0 
 12 15  1  0  0  0  0 
  8 16  1  0  0  0  0 
 16 17  1  0  0  0  0 
 16 18  1  0  0  0  0 
 16 19  1  0  0  0  0 
 19 20  2  0  0  0  0 
 19 21  1  0  0  0  0 
 21 22  1  0  0  0  0 
 22 23  2  0  0  0  0 
 23 24  1  0  0  0  0 
 24 25  1  0  0  0  0 
 24 26  2  0  0  0  0 
 26 27  1  0  0  0  0 
 26 28  1  0  0  0  0 
 28 29  1  0  0  0  0 
 28 30  2  0  0  0  0 
 22 30  1  0  0  0  0 
 30 31  1  0  0  0  0 
 23 32  1  0  0  0  0 
 32 33  1  0  0  0  0 
 32 34  1  0  0  0  0 
 32 35  1  0  0  0  0 
 35 36  1  0  0  0  0 
 35 37  1  0  0  0  0 
 35 38  1  0  0  0  0 
 38 39  2  0  0  0  0 
 39 40  1  0  0  0  0 
 39 41  1  0  0  0  0 
 41 42  1  0  0  0  0 
 41 43  2  0  0  0  0 
 43 44  1  0  0  0  0 
 44 45  1  0  0  0  0 
 44 46  2  0  0  0  0 
 38 46  1  0  0  0  0 
 21 46  1  0  0  0  0 
 43 47  1  0  0  0  0 
 47 48  1  0  0  0  0 
 47 49  1  0  0  0  0 
 49 50  2  0  0  0  0 
 49 51  1  0  0  0  0 
 51 52  1  0  0  0  0 
 52 53  1  0  0  0  0 
 52 54  2  0  0  0  0 
 54 55  1  0  0  0  0 
 54 56  1  0  0  0  0 
M  END
> <Rank>
28

> <Priority_score>
0.07347424452453563

> <Reaction_type>
alkyl dehydrogenation

> <Parent_ID>
26

> <Parent_InChI>
InChI=1S/C23H29N3O3/c1-4-25(5-2)16-22(27)26-20-10-8-7-9-17(20)11-12-18-13-14-19(15-21(18)26)24-23(28)29-6-3/h7-10,13-15H,4-6,11-12,16H2,1-3H3,(H,24,28)

> <Parent_SMILES>
CCOC(=O)Nc1ccc2c(c1)N(C(=O)CN(CC)CC)c1ccccc1CC2

$$$$
Molecule 26_metabolite 30
  CDK     0516241031

 59 61  0  0  0  0  0  0  0  0999 V2000
   -0.0000   -7.7900    0.0000 C   0  0  0  0  0  0  0  0  0  0  0  0
    1.2990   -8.5400    0.0000 H   0  0  0  0  0  0  0  0  0  0  0  0
   -0.5130   -9.1995    0.0000 H   0  0  0  0  0  0  0  0  0  0  0  0
   -1.4772   -7.5295    0.0000 H   0  0  0  0  0  0  0  0  0  0  0  0
   -0.0000   -6.2900    0.0000 C   0  0  0  0  0  0  0  0  0  0  0  0
   -0.5130   -4.8805    0.0000 H   0  0  0  0  0  0  0  0  0  0  0  0
   -1.4772   -6.5505    0.0000 H   0  0  0  0  0  0  0  0  0  0  0  0
    1.2990   -5.5400    0.0000 N   0  0  0  0  0  0  0  0  0  0  0  0
    2.5981   -6.2900    0.0000 C   0  0  0  0  0  0  0  0  0  0  0  0
    4.0753   -6.5505    0.0000 H   0  0  0  0  0  0  0  0  0  0  0  0
    3.1111   -4.8805    0.0000 H   0  0  0  0  0  0  0  0  0  0  0  0
    2.5981   -7.7900    0.0000 C   0  0  0  0  0  0  0  0  0  0  0  0
    1.1209   -7.5295    0.0000 H   0  0  0  0  0  0  0  0  0  0  0  0
    2.0850   -9.1995    0.0000 H   0  0  0  0  0  0  0  0  0  0  0  0
    3.8971   -8.5400    0.0000 O   0  0  0  0  0  0  0  0  0  0  0  0
    3.8971  -10.0400    0.0000 H   0  0  0  0  0  0  0  0  0  0  0  0
    1.2990   -3.5600    0.0000 C   0  0  0  0  0  0  0  0  0  0  0  0
    2.7762   -3.8205    0.0000 H   0  0  0  0  0  0  0  0  0  0  0  0
    1.8121   -2.1505    0.0000 H   0  0  0  0  0  0  0  0  0  0  0  0
   -0.0000   -2.8100    0.0000 C   0  0  0  0  0  0  0  0  0  0  0  0
   -1.2990   -3.5600    0.0000 O   0  0  0  0  0  0  0  0  0  0  0  0
    0.0000   -1.3100    0.0000 N   0  0  0  0  0  0  0  0  0  0  0  0
   -1.3500   -0.6600    0.0000 C   0  0  0  0  0  0  0  0  0  0  0  0
   -1.6900    0.8000    0.0000 C   0  0  0  0  0  0  0  0  0  0  0  0
   -3.1200    1.2400    0.0000 C   0  0  0  0  0  0  0  0  0  0  0  0
   -3.4541    2.7023    0.0000 H   0  0  0  0  0  0  0  0  0  0  0  0
   -4.2200    0.2200    0.0000 C   0  0  0  0  0  0  0  0  0  0  0  0
   -5.6543    0.6592    0.0000 H   0  0  0  0  0  0  0  0  0  0  0  0
   -3.8800   -1.2400    0.0000 C   0  0  0  0  0  0  0  0  0  0  0  0
   -4.9770   -2.2631    0.0000 H   0  0  0  0  0  0  0  0  0  0  0  0
   -2.4500   -1.6800    0.0000 C   0  0  0  0  0  0  0  0  0  0  0  0
   -2.1159   -3.1423    0.0000 H   0  0  0  0  0  0  0  0  0  0  0  0
   -0.7500    1.9700    0.0000 C   0  0  0  0  0  0  0  0  0  0  0  0
   -0.4145    3.4320    0.0000 H   0  0  0  0  0  0  0  0  0  0  0  0
   -2.0999    2.6241    0.0000 H   0  0  0  0  0  0  0  0  0  0  0  0
    0.7500    1.9700    0.0000 C   0  0  0  0  0  0  0  0  0  0  0  0
    2.0999    2.6241    0.0000 H   0  0  0  0  0  0  0  0  0  0  0  0
    0.4145    3.4320    0.0000 H   0  0  0  0  0  0  0  0  0  0  0  0
    1.6900    0.8000    0.0000 C   0  0  0  0  0  0  0  0  0  0  0  0
    3.1200    1.2400    0.0000 C   0  0  0  0  0  0  0  0  0  0  0  0
    3.4541    2.7023    0.0000 H   0  0  0  0  0  0  0  0  0  0  0  0
    4.2200    0.2200    0.0000 C   0  0  0  0  0  0  0  0  0  0  0  0
    5.6543    0.6592    0.0000 H   0  0  0  0  0  0  0  0  0  0  0  0
    3.8800   -1.2400    0.0000 C   0  0  0  0  0  0  0  0  0  0  0  0
    2.4500   -1.6800    0.0000 C   0  0  0  0  0  0  0  0  0  0  0  0
    2.1159   -3.1423    0.0000 H   0  0  0  0  0  0  0  0  0  0  0  0
    1.3500   -0.6600    0.0000 C   0  0  0  0  0  0  0  0  0  0  0  0
    4.9770   -2.2631    0.0000 N   0  0  0  0  0  0  0  0  0  0  0  0
    4.6395   -3.7246    0.0000 H   0  0  0  0  0  0  0  0  0  0  0  0
    6.4115   -1.8246    0.0000 C   0  0  0  0  0  0  0  0  0  0  0  0
    6.7490   -0.3630    0.0000 O   0  0  0  0  0  0  0  0  0  0  0  0
    7.5084   -2.8476    0.0000 O   0  0  0  0  0  0  0  0  0  0  0  0
    8.9429   -2.4092    0.0000 C   0  0  0  0  0  0  0  0  0  0  0  0
   10.1409   -1.5065    0.0000 H   0  0  0  0  0  0  0  0  0  0  0  0
    8.2620   -1.0726    0.0000 H   0  0  0  0  0  0  0  0  0  0  0  0
   10.0399   -3.4322    0.0000 C   0  0  0  0  0  0  0  0  0  0  0  0
   11.4744   -2.9937    0.0000 H   0  0  0  0  0  0  0  0  0  0  0  0
    8.8419   -4.3349    0.0000 H   0  0  0  0  0  0  0  0  0  0  0  0
   10.7208   -4.7688    0.0000 H   0  0  0  0  0  0  0  0  0  0  0  0
  1  2  1  0  0  0  0 
  1  3  1  0  0  0  0 
  1  4  1  0  0  0  0 
  1  5  1  0  0  0  0 
  5  6  1  0  0  0  0 
  5  7  1  0  0  0  0 
  5  8  1  0  0  0  0 
  8  9  1  0  0  0  0 
  9 10  1  0  0  0  0 
  9 11  1  0  0  0  0 
  9 12  1  0  0  0  0 
 12 13  1  0  0  0  0 
 12 14  1  0  0  0  0 
 12 15  1  0  0  0  0 
 15 16  1  0  0  0  0 
  8 17  1  0  0  0  0 
 17 18  1  0  0  0  0 
 17 19  1  0  0  0  0 
 17 20  1  0  0  0  0 
 20 21  2  0  0  0  0 
 20 22  1  0  0  0  0 
 22 23  1  0  0  0  0 
 23 24  2  0  0  0  0 
 24 25  1  0  0  0  0 
 25 26  1  0  0  0  0 
 25 27  2  0  0  0  0 
 27 28  1  0  0  0  0 
 27 29  1  0  0  0  0 
 29 30  1  0  0  0  0 
 29 31  2  0  0  0  0 
 23 31  1  0  0  0  0 
 31 32  1  0  0  0  0 
 24 33  1  0  0  0  0 
 33 34  1  0  0  0  0 
 33 35  1  0  0  0  0 
 33 36  1  0  0  0  0 
 36 37  1  0  0  0  0 
 36 38  1  0  0  0  0 
 36 39  1  0  0  0  0 
 39 40  2  0  0  0  0 
 40 41  1  0  0  0  0 
 40 42  1  0  0  0  0 
 42 43  1  0  0  0  0 
 42 44  2  0  0  0  0 
 44 45  1  0  0  0  0 
 45 46  1  0  0  0  0 
 45 47  2  0  0  0  0 
 39 47  1  0  0  0  0 
 22 47  1  0  0  0  0 
 44 48  1  0  0  0  0 
 48 49  1  0  0  0  0 
 48 50  1  0  0  0  0 
 50 51  2  0  0  0  0 
 50 52  1  0  0  0  0 
 52 53  1  0  0  0  0 
 53 54  1  0  0  0  0 
 53 55  1  0  0  0  0 
 53 56  1  0  0  0  0 
 56 57  1  0  0  0  0 
 56 58  1  0  0  0  0 
 56 59  1  0  0  0  0 
M  END
> <Rank>
30

> <Priority_score>
0.06

> <Reaction_type>
aliphatic hydroxylation

> <Parent_ID>
26

> <Parent_InChI>
InChI=1S/C23H29N3O3/c1-4-25(5-2)16-22(27)26-20-10-8-7-9-17(20)11-12-18-13-14-19(15-21(18)26)24-23(28)29-6-3/h7-10,13-15H,4-6,11-12,16H2,1-3H3,(H,24,28)

> <Parent_SMILES>
CCOC(=O)Nc1ccc2c(c1)N(C(=O)CN(CC)CC)c1ccccc1CC2

$$$$
Molecule 26_metabolite 31
  CDK     0516241031

 59 61  0  0  0  0  0  0  0  0999 V2000
    2.5981   -7.7900    0.0000 C   0  0  0  0  0  0  0  0  0  0  0  0
    1.2990   -8.5400    0.0000 H   0  0  0  0  0  0  0  0  0  0  0  0
    4.0753   -7.5295    0.0000 H   0  0  0  0  0  0  0  0  0  0  0  0
    3.1111   -9.1995    0.0000 H   0  0  0  0  0  0  0  0  0  0  0  0
    2.5981   -6.2900    0.0000 C   0  0  0  0  0  0  0  0  0  0  0  0
    4.0753   -6.5505    0.0000 H   0  0  0  0  0  0  0  0  0  0  0  0
    3.1111   -4.8805    0.0000 H   0  0  0  0  0  0  0  0  0  0  0  0
    1.2990   -5.5400    0.0000 N   0  0  0  0  0  0  0  0  0  0  0  0
   -0.0000   -6.2900    0.0000 C   0  0  0  0  0  0  0  0  0  0  0  0
   -0.5130   -4.8805    0.0000 H   0  0  0  0  0  0  0  0  0  0  0  0
   -1.4772   -6.5505    0.0000 H   0  0  0  0  0  0  0  0  0  0  0  0
   -0.0000   -7.7900    0.0000 C   0  0  0  0  0  0  0  0  0  0  0  0
   -1.2990   -8.5400    0.0000 H   0  0  0  0  0  0  0  0  0  0  0  0
    0.5130   -9.1995    0.0000 H   0  0  0  0  0  0  0  0  0  0  0  0
    1.4772   -7.5295    0.0000 H   0  0  0  0  0  0  0  0  0  0  0  0
    1.2990   -3.5600    0.0000 C   0  0  0  0  0  0  0  0  0  0  0  0
    2.7762   -3.8205    0.0000 H   0  0  0  0  0  0  0  0  0  0  0  0
    1.8121   -2.1505    0.0000 H   0  0  0  0  0  0  0  0  0  0  0  0
   -0.0000   -2.8100    0.0000 C   0  0  0  0  0  0  0  0  0  0  0  0
   -1.2990   -3.5600    0.0000 O   0  0  0  0  0  0  0  0  0  0  0  0
    0.0000   -1.3100    0.0000 N   0  0  0  0  0  0  0  0  0  0  0  0
   -1.3500   -0.6600    0.0000 C   0  0  0  0  0  0  0  0  0  0  0  0
   -1.6900    0.8000    0.0000 C   0  0  0  0  0  0  0  0  0  0  0  0
   -3.1200    1.2400    0.0000 C   0  0  0  0  0  0  0  0  0  0  0  0
   -3.4541    2.7023    0.0000 H   0  0  0  0  0  0  0  0  0  0  0  0
   -4.2200    0.2200    0.0000 C   0  0  0  0  0  0  0  0  0  0  0  0
   -5.6543    0.6592    0.0000 H   0  0  0  0  0  0  0  0  0  0  0  0
   -3.8800   -1.2400    0.0000 C   0  0  0  0  0  0  0  0  0  0  0  0
   -4.9770   -2.2631    0.0000 H   0  0  0  0  0  0  0  0  0  0  0  0
   -2.4500   -1.6800    0.0000 C   0  0  0  0  0  0  0  0  0  0  0  0
   -2.1159   -3.1423    0.0000 H   0  0  0  0  0  0  0  0  0  0  0  0
   -0.7500    1.9700    0.0000 C   0  0  0  0  0  0  0  0  0  0  0  0
   -0.4145    3.4320    0.0000 H   0  0  0  0  0  0  0  0  0  0  0  0
   -2.0999    2.6241    0.0000 H   0  0  0  0  0  0  0  0  0  0  0  0
    0.7500    1.9700    0.0000 C   0  0  0  0  0  0  0  0  0  0  0  0
    2.0999    2.6241    0.0000 H   0  0  0  0  0  0  0  0  0  0  0  0
    0.4145    3.4320    0.0000 H   0  0  0  0  0  0  0  0  0  0  0  0
    1.6900    0.8000    0.0000 C   0  0  0  0  0  0  0  0  0  0  0  0
    1.3500   -0.6600    0.0000 C   0  0  0  0  0  0  0  0  0  0  0  0
    2.4500   -1.6800    0.0000 C   0  0  0  0  0  0  0  0  0  0  0  0
    2.1159   -3.1423    0.0000 H   0  0  0  0  0  0  0  0  0  0  0  0
    3.8800   -1.2400    0.0000 C   0  0  0  0  0  0  0  0  0  0  0  0
    4.2200    0.2200    0.0000 C   0  0  0  0  0  0  0  0  0  0  0  0
    3.1200    1.2400    0.0000 C   0  0  0  0  0  0  0  0  0  0  0  0
    3.4541    2.7023    0.0000 H   0  0  0  0  0  0  0  0  0  0  0  0
    5.6543    0.6592    0.0000 O   0  0  0  0  0  0  0  0  0  0  0  0
    5.9910    2.1209    0.0000 H   0  0  0  0  0  0  0  0  0  0  0  0
    4.9770   -2.2631    0.0000 N   0  0  0  0  0  0  0  0  0  0  0  0
    4.6395   -3.7246    0.0000 H   0  0  0  0  0  0  0  0  0  0  0  0
    6.4115   -1.8246    0.0000 C   0  0  0  0  0  0  0  0  0  0  0  0
    6.7490   -0.3630    0.0000 O   0  0  0  0  0  0  0  0  0  0  0  0
    7.5084   -2.8476    0.0000 O   0  0  0  0  0  0  0  0  0  0  0  0
    8.9429   -2.4092    0.0000 C   0  0  0  0  0  0  0  0  0  0  0  0
   10.1409   -1.5065    0.0000 H   0  0  0  0  0  0  0  0  0  0  0  0
    8.2620   -1.0726    0.0000 H   0  0  0  0  0  0  0  0  0  0  0  0
   10.0399   -3.4322    0.0000 C   0  0  0  0  0  0  0  0  0  0  0  0
   11.4744   -2.9937    0.0000 H   0  0  0  0  0  0  0  0  0  0  0  0
    8.8419   -4.3349    0.0000 H   0  0  0  0  0  0  0  0  0  0  0  0
   10.7208   -4.7688    0.0000 H   0  0  0  0  0  0  0  0  0  0  0  0
  1  2  1  0  0  0  0 
  1  3  1  0  0  0  0 
  1  4  1  0  0  0  0 
  1  5  1  0  0  0  0 
  5  6  1  0  0  0  0 
  5  7  1  0  0  0  0 
  5  8  1  0  0  0  0 
  8  9  1  0  0  0  0 
  9 10  1  0  0  0  0 
  9 11  1  0  0  0  0 
  9 12  1  0  0  0  0 
 12 13  1  0  0  0  0 
 12 14  1  0  0  0  0 
 12 15  1  0  0  0  0 
  8 16  1  0  0  0  0 
 16 17  1  0  0  0  0 
 16 18  1  0  0  0  0 
 16 19  1  0  0  0  0 
 19 20  2  0  0  0  0 
 19 21  1  0  0  0  0 
 21 22  1  0  0  0  0 
 22 23  2  0  0  0  0 
 23 24  1  0  0  0  0 
 24 25  1  0  0  0  0 
 24 26  2  0  0  0  0 
 26 27  1  0  0  0  0 
 26 28  1  0  0  0  0 
 28 29  1  0  0  0  0 
 28 30  2  0  0  0  0 
 22 30  1  0  0  0  0 
 30 31  1  0  0  0  0 
 23 32  1  0  0  0  0 
 32 33  1  0  0  0  0 
 32 34  1  0  0  0  0 
 32 35  1  0  0  0  0 
 35 36  1  0  0  0  0 
 35 37  1  0  0  0  0 
 35 38  1  0  0  0  0 
 38 39  2  0  0  0  0 
 21 39  1  0  0  0  0 
 39 40  1  0  0  0  0 
 40 41  1  0  0  0  0 
 40 42  2  0  0  0  0 
 42 43  1  0  0  0  0 
 43 44  2  0  0  0  0 
 38 44  1  0  0  0  0 
 44 45  1  0  0  0  0 
 43 46  1  0  0  0  0 
 46 47  1  0  0  0  0 
 42 48  1  0  0  0  0 
 48 49  1  0  0  0  0 
 48 50  1  0  0  0  0 
 50 51  2  0  0  0  0 
 50 52  1  0  0  0  0 
 52 53  1  0  0  0  0 
 53 54  1  0  0  0  0 
 53 55  1  0  0  0  0 
 53 56  1  0  0  0  0 
 56 57  1  0  0  0  0 
 56 58  1  0  0  0  0 
 56 59  1  0  0  0  0 
M  END
> <Rank>
31

> <Priority_score>
0.048

> <Reaction_type>
aromatic_hydroxylation_(para_to_nitrogen)

> <Parent_ID>
26

> <Parent_InChI>
InChI=1S/C23H29N3O3/c1-4-25(5-2)16-22(27)26-20-10-8-7-9-17(20)11-12-18-13-14-19(15-21(18)26)24-23(28)29-6-3/h7-10,13-15H,4-6,11-12,16H2,1-3H3,(H,24,28)

> <Parent_SMILES>
CCOC(=O)Nc1ccc2c(c1)N(C(=O)CN(CC)CC)c1ccccc1CC2

$$$$
Molecule 26_metabolite 32
  CDK     0516241031

 78 81  0  0  0  0  0  0  0  0999 V2000
    4.3937    6.8206    0.0000 C   0  0  0  0  0  0  0  0  0  0  0  0
    3.0947    6.0706    0.0000 H   0  0  0  0  0  0  0  0  0  0  0  0
    5.3579    7.9697    0.0000 H   0  0  0  0  0  0  0  0  0  0  0  0
    3.4295    7.9697    0.0000 H   0  0  0  0  0  0  0  0  0  0  0  0
    5.6928    6.0706    0.0000 C   0  0  0  0  0  0  0  0  0  0  0  0
    6.2058    7.4801    0.0000 H   0  0  0  0  0  0  0  0  0  0  0  0
    7.1700    5.8101    0.0000 H   0  0  0  0  0  0  0  0  0  0  0  0
    5.6928    4.0906    0.0000 N   0  0  0  0  0  0  0  0  0  0  0  0
    4.3937    3.3406    0.0000 C   0  0  0  0  0  0  0  0  0  0  0  0
    5.3579    2.1915    0.0000 H   0  0  0  0  0  0  0  0  0  0  0  0
    3.4295    2.1915    0.0000 H   0  0  0  0  0  0  0  0  0  0  0  0
    3.0947    4.0906    0.0000 C   0  0  0  0  0  0  0  0  0  0  0  0
    1.7956    3.3406    0.0000 H   0  0  0  0  0  0  0  0  0  0  0  0
    2.1305    5.2397    0.0000 H   0  0  0  0  0  0  0  0  0  0  0  0
    4.0589    5.2397    0.0000 H   0  0  0  0  0  0  0  0  0  0  0  0
    6.9918    3.3406    0.0000 C   0  0  0  0  0  0  0  0  0  0  0  0
    7.5048    4.7501    0.0000 H   0  0  0  0  0  0  0  0  0  0  0  0
    8.4690    3.0801    0.0000 H   0  0  0  0  0  0  0  0  0  0  0  0
    6.9918    1.8406    0.0000 C   0  0  0  0  0  0  0  0  0  0  0  0
    5.6928    1.0906    0.0000 O   0  0  0  0  0  0  0  0  0  0  0  0
    8.2908    1.0906    0.0000 N   0  0  0  0  0  0  0  0  0  0  0  0
    9.5287    1.9347    0.0000 C   0  0  0  0  0  0  0  0  0  0  0  0
   10.9631    1.4992    0.0000 C   0  0  0  0  0  0  0  0  0  0  0  0
   12.0592    2.5176    0.0000 C   0  0  0  0  0  0  0  0  0  0  0  0
   13.4926    2.0757    0.0000 H   0  0  0  0  0  0  0  0  0  0  0  0
   11.7259    3.9802    0.0000 C   0  0  0  0  0  0  0  0  0  0  0  0
   12.8233    5.0027    0.0000 H   0  0  0  0  0  0  0  0  0  0  0  0
   10.2915    4.4158    0.0000 C   0  0  0  0  0  0  0  0  0  0  0  0
    9.9539    5.8773    0.0000 H   0  0  0  0  0  0  0  0  0  0  0  0
    9.1954    3.3974    0.0000 C   0  0  0  0  0  0  0  0  0  0  0  0
    7.7620    3.8392    0.0000 H   0  0  0  0  0  0  0  0  0  0  0  0
   11.5064    0.1001    0.0000 C   0  0  0  0  0  0  0  0  0  0  0  0
   12.6047   -0.9215    0.0000 H   0  0  0  0  0  0  0  0  0  0  0  0
   12.7478    0.9421    0.0000 H   0  0  0  0  0  0  0  0  0  0  0  0
   10.7564   -1.1989    0.0000 C   0  0  0  0  0  0  0  0  0  0  0  0
   10.6479   -2.6950    0.0000 H   0  0  0  0  0  0  0  0  0  0  0  0
   12.1903   -1.6393    0.0000 H   0  0  0  0  0  0  0  0  0  0  0  0
    9.2731   -1.4280    0.0000 C   0  0  0  0  0  0  0  0  0  0  0  0
    8.9392   -2.8864    0.0000 C   0  0  0  0  0  0  0  0  0  0  0  0
   10.0386   -3.9069    0.0000 H   0  0  0  0  0  0  0  0  0  0  0  0
    7.5059   -3.3290    0.0000 C   0  0  0  0  0  0  0  0  0  0  0  0
    7.1691   -4.7907    0.0000 H   0  0  0  0  0  0  0  0  0  0  0  0
    6.4115   -2.3046    0.0000 C   0  0  0  0  0  0  0  0  0  0  0  0
    6.7454   -0.8462    0.0000 C   0  0  0  0  0  0  0  0  0  0  0  0
    5.6460    0.1743    0.0000 H   0  0  0  0  0  0  0  0  0  0  0  0
    8.1787   -0.4035    0.0000 C   0  0  0  0  0  0  0  0  0  0  0  0
    4.9770   -2.7431    0.0000 N   0  0  0  0  0  0  0  0  0  0  0  0
    4.4235   -5.1400    0.0000 C   0  0  0  0  0  0  0  0  0  0  0  0
    3.0427   -4.5540    0.0000 H   0  0  0  0  0  0  0  0  0  0  0  0
    3.6067   -6.3981    0.0000 C   0  0  0  0  0  0  0  0  0  0  0  0
    2.5094   -5.3754    0.0000 H   0  0  0  0  0  0  0  0  0  0  0  0
    4.2887   -7.7350    0.0000 C   0  0  0  0  0  0  0  0  0  0  0  0
    2.8544   -8.1740    0.0000 H   0  0  0  0  0  0  0  0  0  0  0  0
    5.7875   -7.8138    0.0000 C   0  0  0  0  0  0  0  0  0  0  0  0
    5.4500   -9.2754    0.0000 H   0  0  0  0  0  0  0  0  0  0  0  0
    6.6042   -6.5557    0.0000 C   0  0  0  0  0  0  0  0  0  0  0  0
    7.7015   -7.5784    0.0000 H   0  0  0  0  0  0  0  0  0  0  0  0
    7.8018   -5.6525    0.0000 C   0  0  0  0  0  0  0  0  0  0  0  0
    7.6185   -4.1638    0.0000 O   0  0  0  0  0  0  0  0  0  0  0  0
    9.1828   -6.2381    0.0000 O   0  0  0  0  0  0  0  0  0  0  0  0
    9.3662   -7.7269    0.0000 H   0  0  0  0  0  0  0  0  0  0  0  0
    5.9222   -5.2188    0.0000 O   0  0  0  0  0  0  0  0  0  0  0  0
    7.1682   -8.3999    0.0000 O   0  0  0  0  0  0  0  0  0  0  0  0
    7.3511   -9.8887    0.0000 H   0  0  0  0  0  0  0  0  0  0  0  0
    4.4716   -9.2238    0.0000 O   0  0  0  0  0  0  0  0  0  0  0  0
    3.2737  -10.1266    0.0000 H   0  0  0  0  0  0  0  0  0  0  0  0
    2.4091   -7.3013    0.0000 O   0  0  0  0  0  0  0  0  0  0  0  0
    1.0281   -6.7157    0.0000 H   0  0  0  0  0  0  0  0  0  0  0  0
    3.8800   -1.7200    0.0000 C   0  0  0  0  0  0  0  0  0  0  0  0
    4.2175   -0.2585    0.0000 O   0  0  0  0  0  0  0  0  0  0  0  0
    2.4455   -2.1585    0.0000 O   0  0  0  0  0  0  0  0  0  0  0  0
    1.3485   -1.1354    0.0000 C   0  0  0  0  0  0  0  0  0  0  0  0
    0.6676    0.2011    0.0000 H   0  0  0  0  0  0  0  0  0  0  0  0
    2.5465   -0.2328    0.0000 H   0  0  0  0  0  0  0  0  0  0  0  0
   -0.0859   -1.5739    0.0000 C   0  0  0  0  0  0  0  0  0  0  0  0
   -1.1829   -0.5508    0.0000 H   0  0  0  0  0  0  0  0  0  0  0  0
    0.5950   -2.9104    0.0000 H   0  0  0  0  0  0  0  0  0  0  0  0
   -1.2839   -2.4765    0.0000 H   0  0  0  0  0  0  0  0  0  0  0  0
  1  2  1  0  0  0  0 
  1  3  1  0  0  0  0 
  1  4  1  0  0  0  0 
  1  5  1  0  0  0  0 
  5  6  1  0  0  0  0 
  5  7  1  0  0  0  0 
  5  8  1  0  0  0  0 
  8  9  1  0  0  0  0 
  9 10  1  0  0  0  0 
  9 11  1  0  0  0  0 
  9 12  1  0  0  0  0 
 12 13  1  0  0  0  0 
 12 14  1  0  0  0  0 
 12 15  1  0  0  0  0 
  8 16  1  0  0  0  0 
 16 17  1  0  0  0  0 
 16 18  1  0  0  0  0 
 16 19  1  0  0  0  0 
 19 20  2  0  0  0  0 
 19 21  1  0  0  0  0 
 21 22  1  0  0  0  0 
 22 23  2  0  0  0  0 
 23 24  1  0  0  0  0 
 24 25  1  0  0  0  0 
 24 26  2  0  0  0  0 
 26 27  1  0  0  0  0 
 26 28  1  0  0  0  0 
 28 29  1  0  0  0  0 
 28 30  2  0  0  0  0 
 22 30  1  0  0  0  0 
 30 31  1  0  0  0  0 
 23 32  1  0  0  0  0 
 32 33  1  0  0  0  0 
 32 34  1  0  0  0  0 
 32 35  1  0  0  0  0 
 35 36  1  0  0  0  0 
 35 37  1  0  0  0  0 
 35 38  1  0  0  0  0 
 38 39  2  0  0  0  0 
 39 40  1  0  0  0  0 
 39 41  1  0  0  0  0 
 41 42  1  0  0  0  0 
 41 43  2  0  0  0  0 
 43 44  1  0  0  0  0 
 44 45  1  0  0  0  0 
 44 46  2  0  0  0  0 
 38 46  1  0  0  0  0 
 21 46  1  0  0  0  0 
 43 47  1  0  0  0  0 
 47 48  1  0  0  0  0 
 48 49  1  0  0  0  0 
 48 50  1  0  0  0  0 
 50 51  1  0  0  0  0 
 50 52  1  0  0  0  0 
 52 53  1  0  0  0  0 
 52 54  1  0  0  0  0 
 54 55  1  0  0  0  0 
 54 56  1  0  0  0  0 
 56 57  1  0  0  0  0 
 56 58  1  0  0  0  0 
 58 59  2  0  0  0  0 
 58 60  1  0  0  0  0 
 60 61  1  0  0  0  0 
 56 62  1  0  0  0  0 
 48 62  1  0  0  0  0 
 54 63  1  0  0  0  0 
 63 64  1  0  0  0  0 
 52 65  1  0  0  0  0 
 65 66  1  0  0  0  0 
 50 67  1  0  0  0  0 
 67 68  1  0  0  0  0 
 47 69  1  0  0  0  0 
 69 70  2  0  0  0  0 
 69 71  1  0  0  0  0 
 71 72  1  0  0  0  0 
 72 73  1  0  0  0  0 
 72 74  1  0  0  0  0 
 72 75  1  0  0  0  0 
 75 76  1  0  0  0  0 
 75 77  1  0  0  0  0 
 75 78  1  0  0  0  0 
M  END
> <Rank>
31

> <Priority_score>
0.048

> <Reaction_type>
N-glucuronidation_(aniline_NH1-R)

> <Parent_ID>
26

> <Parent_InChI>
InChI=1S/C23H29N3O3/c1-4-25(5-2)16-22(27)26-20-10-8-7-9-17(20)11-12-18-13-14-19(15-21(18)26)24-23(28)29-6-3/h7-10,13-15H,4-6,11-12,16H2,1-3H3,(H,24,28)

> <Parent_SMILES>
CCOC(=O)Nc1ccc2c(c1)N(C(=O)CN(CC)CC)c1ccccc1CC2

$$$$
Molecule 26_metabolite 33
  CDK     0516241031

 59 61  0  0  0  0  0  0  0  0999 V2000
    2.5981   -7.7900    0.0000 C   0  0  0  0  0  0  0  0  0  0  0  0
    1.2990   -8.5400    0.0000 H   0  0  0  0  0  0  0  0  0  0  0  0
    4.0753   -7.5295    0.0000 H   0  0  0  0  0  0  0  0  0  0  0  0
    3.1111   -9.1995    0.0000 H   0  0  0  0  0  0  0  0  0  0  0  0
    2.5981   -6.2900    0.0000 C   0  0  0  0  0  0  0  0  0  0  0  0
    4.0753   -6.5505    0.0000 H   0  0  0  0  0  0  0  0  0  0  0  0
    3.1111   -4.8805    0.0000 H   0  0  0  0  0  0  0  0  0  0  0  0
    1.2990   -5.5400    0.0000 N   0  0  0  0  0  0  0  0  0  0  0  0
   -0.0000   -6.2900    0.0000 C   0  0  0  0  0  0  0  0  0  0  0  0
   -0.5130   -4.8805    0.0000 H   0  0  0  0  0  0  0  0  0  0  0  0
   -1.4772   -6.5505    0.0000 H   0  0  0  0  0  0  0  0  0  0  0  0
   -0.0000   -7.7900    0.0000 C   0  0  0  0  0  0  0  0  0  0  0  0
   -1.2990   -8.5400    0.0000 H   0  0  0  0  0  0  0  0  0  0  0  0
    0.5130   -9.1995    0.0000 H   0  0  0  0  0  0  0  0  0  0  0  0
    1.4772   -7.5295    0.0000 H   0  0  0  0  0  0  0  0  0  0  0  0
    1.2990   -3.5600    0.0000 C   0  0  0  0  0  0  0  0  0  0  0  0
    2.7762   -3.8205    0.0000 H   0  0  0  0  0  0  0  0  0  0  0  0
    1.8121   -2.1505    0.0000 H   0  0  0  0  0  0  0  0  0  0  0  0
   -0.0000   -2.8100    0.0000 C   0  0  0  0  0  0  0  0  0  0  0  0
   -1.2990   -3.5600    0.0000 O   0  0  0  0  0  0  0  0  0  0  0  0
    0.0000   -1.3100    0.0000 N   0  0  0  0  0  0  0  0  0  0  0  0
   -1.3500   -0.6600    0.0000 C   0  0  0  0  0  0  0  0  0  0  0  0
   -1.6900    0.8000    0.0000 C   0  0  0  0  0  0  0  0  0  0  0  0
   -3.1200    1.2400    0.0000 C   0  0  0  0  0  0  0  0  0  0  0  0
   -3.4541    2.7023    0.0000 H   0  0  0  0  0  0  0  0  0  0  0  0
   -4.2200    0.2200    0.0000 C   0  0  0  0  0  0  0  0  0  0  0  0
   -5.6543    0.6592    0.0000 H   0  0  0  0  0  0  0  0  0  0  0  0
   -3.8800   -1.2400    0.0000 C   0  0  0  0  0  0  0  0  0  0  0  0
   -4.9770   -2.2631    0.0000 H   0  0  0  0  0  0  0  0  0  0  0  0
   -2.4500   -1.6800    0.0000 C   0  0  0  0  0  0  0  0  0  0  0  0
   -2.1159   -3.1423    0.0000 H   0  0  0  0  0  0  0  0  0  0  0  0
   -0.7500    1.9700    0.0000 C   0  0  0  0  0  0  0  0  0  0  0  0
   -0.4145    3.4320    0.0000 H   0  0  0  0  0  0  0  0  0  0  0  0
   -2.0999    2.6241    0.0000 H   0  0  0  0  0  0  0  0  0  0  0  0
    0.7500    1.9700    0.0000 C   0  0  0  0  0  0  0  0  0  0  0  0
    2.0999    2.6241    0.0000 H   0  0  0  0  0  0  0  0  0  0  0  0
    0.4145    3.4320    0.0000 H   0  0  0  0  0  0  0  0  0  0  0  0
    1.6900    0.8000    0.0000 C   0  0  0  0  0  0  0  0  0  0  0  0
    3.1200    1.2400    0.0000 C   0  0  0  0  0  0  0  0  0  0  0  0
    4.2200    0.2200    0.0000 C   0  0  0  0  0  0  0  0  0  0  0  0
    5.6543    0.6592    0.0000 H   0  0  0  0  0  0  0  0  0  0  0  0
    3.8800   -1.2400    0.0000 C   0  0  0  0  0  0  0  0  0  0  0  0
    2.4500   -1.6800    0.0000 C   0  0  0  0  0  0  0  0  0  0  0  0
    2.1159   -3.1423    0.0000 H   0  0  0  0  0  0  0  0  0  0  0  0
    1.3500   -0.6600    0.0000 C   0  0  0  0  0  0  0  0  0  0  0  0
    4.9770   -2.2631    0.0000 N   0  0  0  0  0  0  0  0  0  0  0  0
    4.6395   -3.7246    0.0000 H   0  0  0  0  0  0  0  0  0  0  0  0
    6.4115   -1.8246    0.0000 C   0  0  0  0  0  0  0  0  0  0  0  0
    6.7490   -0.3630    0.0000 O   0  0  0  0  0  0  0  0  0  0  0  0
    7.5084   -2.8476    0.0000 O   0  0  0  0  0  0  0  0  0  0  0  0
    8.9429   -2.4092    0.0000 C   0  0  0  0  0  0  0  0  0  0  0  0
   10.1409   -1.5065    0.0000 H   0  0  0  0  0  0  0  0  0  0  0  0
    8.2620   -1.0726    0.0000 H   0  0  0  0  0  0  0  0  0  0  0  0
   10.0399   -3.4322    0.0000 C   0  0  0  0  0  0  0  0  0  0  0  0
   11.4744   -2.9937    0.0000 H   0  0  0  0  0  0  0  0  0  0  0  0
    8.8419   -4.3349    0.0000 H   0  0  0  0  0  0  0  0  0  0  0  0
   10.7208   -4.7688    0.0000 H   0  0  0  0  0  0  0  0  0  0  0  0
    3.4541    2.7023    0.0000 O   0  0  0  0  0  0  0  0  0  0  0  0
    4.8875    3.1442    0.0000 H   0  0  0  0  0  0  0  0  0  0  0  0
  1  2  1  0  0  0  0 
  1  3  1  0  0  0  0 
  1  4  1  0  0  0  0 
  1  5  1  0  0  0  0 
  5  6  1  0  0  0  0 
  5  7  1  0  0  0  0 
  5  8  1  0  0  0  0 
  8  9  1  0  0  0  0 
  9 10  1  0  0  0  0 
  9 11  1  0  0  0  0 
  9 12  1  0  0  0  0 
 12 13  1  0  0  0  0 
 12 14  1  0  0  0  0 
 12 15  1  0  0  0  0 
  8 16  1  0  0  0  0 
 16 17  1  0  0  0  0 
 16 18  1  0  0  0  0 
 16 19  1  0  0  0  0 
 19 20  2  0  0  0  0 
 19 21  1  0  0  0  0 
 21 22  1  0  0  0  0 
 22 23  2  0  0  0  0 
 23 24  1  0  0  0  0 
 24 25  1  0  0  0  0 
 24 26  2  0  0  0  0 
 26 27  1  0  0  0  0 
 26 28  1  0  0  0  0 
 28 29  1  0  0  0  0 
 28 30  2  0  0  0  0 
 22 30  1  0  0  0  0 
 30 31  1  0  0  0  0 
 23 32  1  0  0  0  0 
 32 33  1  0  0  0  0 
 32 34  1  0  0  0  0 
 32 35  1  0  0  0  0 
 35 36  1  0  0  0  0 
 35 37  1  0  0  0  0 
 35 38  1  0  0  0  0 
 38 39  2  0  0  0  0 
 39 40  1  0  0  0  0 
 40 41  1  0  0  0  0 
 40 42  2  0  0  0  0 
 42 43  1  0  0  0  0 
 43 44  1  0  0  0  0 
 43 45  2  0  0  0  0 
 38 45  1  0  0  0  0 
 21 45  1  0  0  0  0 
 42 46  1  0  0  0  0 
 46 47  1  0  0  0  0 
 46 48  1  0  0  0  0 
 48 49  2  0  0  0  0 
 48 50  1  0  0  0  0 
 50 51  1  0  0  0  0 
 51 52  1  0  0  0  0 
 51 53  1  0  0  0  0 
 51 54  1  0  0  0  0 
 54 55  1  0  0  0  0 
 54 56  1  0  0  0  0 
 54 57  1  0  0  0  0 
 39 58  1  0  0  0  0 
 58 59  1  0  0  0  0 
M  END
> <Rank>
31

> <Priority_score>
0.048

> <Reaction_type>
aromatic hydroxylation

> <Parent_ID>
26

> <Parent_InChI>
InChI=1S/C23H29N3O3/c1-4-25(5-2)16-22(27)26-20-10-8-7-9-17(20)11-12-18-13-14-19(15-21(18)26)24-23(28)29-6-3/h7-10,13-15H,4-6,11-12,16H2,1-3H3,(H,24,28)

> <Parent_SMILES>
CCOC(=O)Nc1ccc2c(c1)N(C(=O)CN(CC)CC)c1ccccc1CC2

$$$$
Molecule 26_metabolite 34
  CDK     0516241031

 57 59  0  0  0  0  0  0  0  0999 V2000
   -3.0138   -7.5500    0.0000 C   0  0  0  0  0  0  0  0  0  0  0  0
   -1.7147   -8.3000    0.0000 H   0  0  0  0  0  0  0  0  0  0  0  0
   -4.4910   -7.2895    0.0000 H   0  0  0  0  0  0  0  0  0  0  0  0
   -3.5268   -8.9595    0.0000 H   0  0  0  0  0  0  0  0  0  0  0  0
   -3.0138   -6.0500    0.0000 C   0  0  0  0  0  0  0  0  0  0  0  0
   -4.4910   -6.3105    0.0000 H   0  0  0  0  0  0  0  0  0  0  0  0
   -3.5268   -4.6405    0.0000 H   0  0  0  0  0  0  0  0  0  0  0  0
   -1.7147   -5.3000    0.0000 N   0  0  0  0  0  0  0  0  0  0  0  0
   -1.7147   -3.8000    0.0000 C   0  0  0  0  0  0  0  0  0  0  0  0
   -3.0138   -3.0500    0.0000 H   0  0  0  0  0  0  0  0  0  0  0  0
   -0.0000   -2.8100    0.0000 C   0  0  0  0  0  0  0  0  0  0  0  0
    1.2990   -3.5600    0.0000 O   0  0  0  0  0  0  0  0  0  0  0  0
    0.0000   -1.3100    0.0000 N   0  0  0  0  0  0  0  0  0  0  0  0
   -1.3500   -0.6600    0.0000 C   0  0  0  0  0  0  0  0  0  0  0  0
   -1.6900    0.8000    0.0000 C   0  0  0  0  0  0  0  0  0  0  0  0
   -3.1200    1.2400    0.0000 C   0  0  0  0  0  0  0  0  0  0  0  0
   -3.4541    2.7023    0.0000 H   0  0  0  0  0  0  0  0  0  0  0  0
   -4.2200    0.2200    0.0000 C   0  0  0  0  0  0  0  0  0  0  0  0
   -5.6543    0.6592    0.0000 H   0  0  0  0  0  0  0  0  0  0  0  0
   -3.8800   -1.2400    0.0000 C   0  0  0  0  0  0  0  0  0  0  0  0
   -4.9770   -2.2631    0.0000 H   0  0  0  0  0  0  0  0  0  0  0  0
   -2.4500   -1.6800    0.0000 C   0  0  0  0  0  0  0  0  0  0  0  0
   -2.1159   -3.1423    0.0000 H   0  0  0  0  0  0  0  0  0  0  0  0
   -0.7500    1.9700    0.0000 C   0  0  0  0  0  0  0  0  0  0  0  0
   -0.4145    3.4320    0.0000 H   0  0  0  0  0  0  0  0  0  0  0  0
   -2.0999    2.6241    0.0000 H   0  0  0  0  0  0  0  0  0  0  0  0
    0.7500    1.9700    0.0000 C   0  0  0  0  0  0  0  0  0  0  0  0
    2.0999    2.6241    0.0000 H   0  0  0  0  0  0  0  0  0  0  0  0
    0.4145    3.4320    0.0000 H   0  0  0  0  0  0  0  0  0  0  0  0
    1.6900    0.8000    0.0000 C   0  0  0  0  0  0  0  0  0  0  0  0
    3.1200    1.2400    0.0000 C   0  0  0  0  0  0  0  0  0  0  0  0
    3.4541    2.7023    0.0000 H   0  0  0  0  0  0  0  0  0  0  0  0
    4.2200    0.2200    0.0000 C   0  0  0  0  0  0  0  0  0  0  0  0
    5.6543    0.6592    0.0000 H   0  0  0  0  0  0  0  0  0  0  0  0
    3.8800   -1.2400    0.0000 C   0  0  0  0  0  0  0  0  0  0  0  0
    2.4500   -1.6800    0.0000 C   0  0  0  0  0  0  0  0  0  0  0  0
    2.1159   -3.1423    0.0000 H   0  0  0  0  0  0  0  0  0  0  0  0
    1.3500   -0.6600    0.0000 C   0  0  0  0  0  0  0  0  0  0  0  0
    4.9770   -2.2631    0.0000 N   0  0  0  0  0  0  0  0  0  0  0  0
    4.6395   -3.7246    0.0000 H   0  0  0  0  0  0  0  0  0  0  0  0
    6.4115   -1.8246    0.0000 C   0  0  0  0  0  0  0  0  0  0  0  0
    6.7490   -0.3630    0.0000 O   0  0  0  0  0  0  0  0  0  0  0  0
    7.5084   -2.8476    0.0000 O   0  0  0  0  0  0  0  0  0  0  0  0
    8.9429   -2.4092    0.0000 C   0  0  0  0  0  0  0  0  0  0  0  0
   10.1409   -1.5065    0.0000 H   0  0  0  0  0  0  0  0  0  0  0  0
    8.2620   -1.0726    0.0000 H   0  0  0  0  0  0  0  0  0  0  0  0
   10.0399   -3.4322    0.0000 C   0  0  0  0  0  0  0  0  0  0  0  0
   11.4744   -2.9937    0.0000 H   0  0  0  0  0  0  0  0  0  0  0  0
    8.8419   -4.3349    0.0000 H   0  0  0  0  0  0  0  0  0  0  0  0
   10.7208   -4.7688    0.0000 H   0  0  0  0  0  0  0  0  0  0  0  0
   -0.4157   -6.0500    0.0000 C   0  0  0  0  0  0  0  0  0  0  0  0
    0.0973   -4.6405    0.0000 H   0  0  0  0  0  0  0  0  0  0  0  0
    1.0615   -6.3105    0.0000 H   0  0  0  0  0  0  0  0  0  0  0  0
   -0.4157   -7.5500    0.0000 C   0  0  0  0  0  0  0  0  0  0  0  0
    0.8833   -8.3000    0.0000 H   0  0  0  0  0  0  0  0  0  0  0  0
   -0.9287   -8.9595    0.0000 H   0  0  0  0  0  0  0  0  0  0  0  0
   -1.8929   -7.2895    0.0000 H   0  0  0  0  0  0  0  0  0  0  0  0
  1  2  1  0  0  0  0 
  1  3  1  0  0  0  0 
  1  4  1  0  0  0  0 
  1  5  1  0  0  0  0 
  5  6  1  0  0  0  0 
  5  7  1  0  0  0  0 
  5  8  1  0  0  0  0 
  8  9  2  0  0  0  0 
  9 10  1  0  0  0  0 
  9 11  1  0  0  0  0 
 11 12  2  0  0  0  0 
 11 13  1  0  0  0  0 
 13 14  1  0  0  0  0 
 14 15  2  0  0  0  0 
 15 16  1  0  0  0  0 
 16 17  1  0  0  0  0 
 16 18  2  0  0  0  0 
 18 19  1  0  0  0  0 
 18 20  1  0  0  0  0 
 20 21  1  0  0  0  0 
 20 22  2  0  0  0  0 
 14 22  1  0  0  0  0 
 22 23  1  0  0  0  0 
 15 24  1  0  0  0  0 
 24 25  1  0  0  0  0 
 24 26  1  0  0  0  0 
 24 27  1  0  0  0  0 
 27 28  1  0  0  0  0 
 27 29  1  0  0  0  0 
 27 30  1  0  0  0  0 
 30 31  2  0  0  0  0 
 31 32  1  0  0  0  0 
 31 33  1  0  0  0  0 
 33 34  1  0  0  0  0 
 33 35  2  0  0  0  0 
 35 36  1  0  0  0  0 
 36 37  1  0  0  0  0 
 36 38  2  0  0  0  0 
 30 38  1  0  0  0  0 
 13 38  1  0  0  0  0 
 35 39  1  0  0  0  0 
 39 40  1  0  0  0  0 
 39 41  1  0  0  0  0 
 41 42  2  0  0  0  0 
 41 43  1  0  0  0  0 
 43 44  1  0  0  0  0 
 44 45  1  0  0  0  0 
 44 46  1  0  0  0  0 
 44 47  1  0  0  0  0 
 47 48  1  0  0  0  0 
 47 49  1  0  0  0  0 
 47 50  1  0  0  0  0 
  8 51  1  0  0  0  0 
 51 52  1  0  0  0  0 
 51 53  1  0  0  0  0 
 51 54  1  0  0  0  0 
 54 55  1  0  0  0  0 
 54 56  1  0  0  0  0 
 54 57  1  0  0  0  0 
M  CHG  1   8   1
M  END
> <Rank>
34

> <Priority_score>
0.0344

> <Reaction_type>
dehydration of N-C bond

> <Parent_ID>
26

> <Parent_InChI>
InChI=1S/C23H29N3O3/c1-4-25(5-2)16-22(27)26-20-10-8-7-9-17(20)11-12-18-13-14-19(15-21(18)26)24-23(28)29-6-3/h7-10,13-15H,4-6,11-12,16H2,1-3H3,(H,24,28)

> <Parent_SMILES>
CCOC(=O)Nc1ccc2c(c1)N(C(=O)CN(CC)CC)c1ccccc1CC2

$$$$
Molecule 26_metabolite 35
  CDK     0516241031

 59 61  0  0  0  0  0  0  0  0999 V2000
    2.5981   -7.7900    0.0000 C   0  0  0  0  0  0  0  0  0  0  0  0
    1.2990   -8.5400    0.0000 H   0  0  0  0  0  0  0  0  0  0  0  0
    4.0753   -7.5295    0.0000 H   0  0  0  0  0  0  0  0  0  0  0  0
    3.1111   -9.1995    0.0000 H   0  0  0  0  0  0  0  0  0  0  0  0
    2.5981   -6.2900    0.0000 C   0  0  0  0  0  0  0  0  0  0  0  0
    4.0753   -6.5505    0.0000 H   0  0  0  0  0  0  0  0  0  0  0  0
    3.1111   -4.8805    0.0000 H   0  0  0  0  0  0  0  0  0  0  0  0
    1.2990   -5.5400    0.0000 N   0  0  0  0  0  0  0  0  0  0  0  0
   -0.0000   -6.2900    0.0000 C   0  0  0  0  0  0  0  0  0  0  0  0
   -0.5130   -4.8805    0.0000 H   0  0  0  0  0  0  0  0  0  0  0  0
   -1.4772   -6.5505    0.0000 H   0  0  0  0  0  0  0  0  0  0  0  0
   -0.0000   -7.7900    0.0000 C   0  0  0  0  0  0  0  0  0  0  0  0
   -1.2990   -8.5400    0.0000 H   0  0  0  0  0  0  0  0  0  0  0  0
    0.5130   -9.1995    0.0000 H   0  0  0  0  0  0  0  0  0  0  0  0
    1.4772   -7.5295    0.0000 H   0  0  0  0  0  0  0  0  0  0  0  0
    1.2990   -3.5600    0.0000 C   0  0  0  0  0  0  0  0  0  0  0  0
    2.7762   -3.8205    0.0000 H   0  0  0  0  0  0  0  0  0  0  0  0
    1.8121   -2.1505    0.0000 H   0  0  0  0  0  0  0  0  0  0  0  0
   -0.0000   -2.8100    0.0000 C   0  0  0  0  0  0  0  0  0  0  0  0
   -1.2990   -3.5600    0.0000 O   0  0  0  0  0  0  0  0  0  0  0  0
    0.0000   -1.3100    0.0000 N   0  0  0  0  0  0  0  0  0  0  0  0
   -1.3500   -0.6600    0.0000 C   0  0  0  0  0  0  0  0  0  0  0  0
   -2.4500   -1.6800    0.0000 C   0  0  0  0  0  0  0  0  0  0  0  0
   -2.1159   -3.1423    0.0000 H   0  0  0  0  0  0  0  0  0  0  0  0
   -3.8800   -1.2400    0.0000 C   0  0  0  0  0  0  0  0  0  0  0  0
   -4.9770   -2.2631    0.0000 H   0  0  0  0  0  0  0  0  0  0  0  0
   -4.2200    0.2200    0.0000 C   0  0  0  0  0  0  0  0  0  0  0  0
   -5.6543    0.6592    0.0000 H   0  0  0  0  0  0  0  0  0  0  0  0
   -3.1200    1.2400    0.0000 C   0  0  0  0  0  0  0  0  0  0  0  0
   -1.6900    0.8000    0.0000 C   0  0  0  0  0  0  0  0  0  0  0  0
   -0.7500    1.9700    0.0000 C   0  0  0  0  0  0  0  0  0  0  0  0
   -0.4145    3.4320    0.0000 H   0  0  0  0  0  0  0  0  0  0  0  0
   -2.0999    2.6241    0.0000 H   0  0  0  0  0  0  0  0  0  0  0  0
    0.7500    1.9700    0.0000 C   0  0  0  0  0  0  0  0  0  0  0  0
    2.0999    2.6241    0.0000 H   0  0  0  0  0  0  0  0  0  0  0  0
    0.4145    3.4320    0.0000 H   0  0  0  0  0  0  0  0  0  0  0  0
    1.6900    0.8000    0.0000 C   0  0  0  0  0  0  0  0  0  0  0  0
    3.1200    1.2400    0.0000 C   0  0  0  0  0  0  0  0  0  0  0  0
    3.4541    2.7023    0.0000 H   0  0  0  0  0  0  0  0  0  0  0  0
    4.2200    0.2200    0.0000 C   0  0  0  0  0  0  0  0  0  0  0  0
    5.6543    0.6592    0.0000 H   0  0  0  0  0  0  0  0  0  0  0  0
    3.8800   -1.2400    0.0000 C   0  0  0  0  0  0  0  0  0  0  0  0
    2.4500   -1.6800    0.0000 C   0  0  0  0  0  0  0  0  0  0  0  0
    2.1159   -3.1423    0.0000 H   0  0  0  0  0  0  0  0  0  0  0  0
    1.3500   -0.6600    0.0000 C   0  0  0  0  0  0  0  0  0  0  0  0
    4.9770   -2.2631    0.0000 N   0  0  0  0  0  0  0  0  0  0  0  0
    4.6395   -3.7246    0.0000 H   0  0  0  0  0  0  0  0  0  0  0  0
    6.4115   -1.8246    0.0000 C   0  0  0  0  0  0  0  0  0  0  0  0
    6.7490   -0.3630    0.0000 O   0  0  0  0  0  0  0  0  0  0  0  0
    7.5084   -2.8476    0.0000 O   0  0  0  0  0  0  0  0  0  0  0  0
    8.9429   -2.4092    0.0000 C   0  0  0  0  0  0  0  0  0  0  0  0
   10.1409   -1.5065    0.0000 H   0  0  0  0  0  0  0  0  0  0  0  0
    8.2620   -1.0726    0.0000 H   0  0  0  0  0  0  0  0  0  0  0  0
   10.0399   -3.4322    0.0000 C   0  0  0  0  0  0  0  0  0  0  0  0
   11.4744   -2.9937    0.0000 H   0  0  0  0  0  0  0  0  0  0  0  0
    8.8419   -4.3349    0.0000 H   0  0  0  0  0  0  0  0  0  0  0  0
   10.7208   -4.7688    0.0000 H   0  0  0  0  0  0  0  0  0  0  0  0
   -3.4541    2.7023    0.0000 O   0  0  0  0  0  0  0  0  0  0  0  0
   -4.8875    3.1442    0.0000 H   0  0  0  0  0  0  0  0  0  0  0  0
  1  2  1  0  0  0  0 
  1  3  1  0  0  0  0 
  1  4  1  0  0  0  0 
  1  5  1  0  0  0  0 
  5  6  1  0  0  0  0 
  5  7  1  0  0  0  0 
  5  8  1  0  0  0  0 
  8  9  1  0  0  0  0 
  9 10  1  0  0  0  0 
  9 11  1  0  0  0  0 
  9 12  1  0  0  0  0 
 12 13  1  0  0  0  0 
 12 14  1  0  0  0  0 
 12 15  1  0  0  0  0 
  8 16  1  0  0  0  0 
 16 17  1  0  0  0  0 
 16 18  1  0  0  0  0 
 16 19  1  0  0  0  0 
 19 20  2  0  0  0  0 
 19 21  1  0  0  0  0 
 21 22  1  0  0  0  0 
 22 23  2  0  0  0  0 
 23 24  1  0  0  0  0 
 23 25  1  0  0  0  0 
 25 26  1  0  0  0  0 
 25 27  2  0  0  0  0 
 27 28  1  0  0  0  0 
 27 29  1  0  0  0  0 
 29 30  2  0  0  0  0 
 22 30  1  0  0  0  0 
 30 31  1  0  0  0  0 
 31 32  1  0  0  0  0 
 31 33  1  0  0  0  0 
 31 34  1  0  0  0  0 
 34 35  1  0  0  0  0 
 34 36  1  0  0  0  0 
 34 37  1  0  0  0  0 
 37 38  2  0  0  0  0 
 38 39  1  0  0  0  0 
 38 40  1  0  0  0  0 
 40 41  1  0  0  0  0 
 40 42  2  0  0  0  0 
 42 43  1  0  0  0  0 
 43 44  1  0  0  0  0 
 43 45  2  0  0  0  0 
 37 45  1  0  0  0  0 
 21 45  1  0  0  0  0 
 42 46  1  0  0  0  0 
 46 47  1  0  0  0  0 
 46 48  1  0  0  0  0 
 48 49  2  0  0  0  0 
 48 50  1  0  0  0  0 
 50 51  1  0  0  0  0 
 51 52  1  0  0  0  0 
 51 53  1  0  0  0  0 
 51 54  1  0  0  0  0 
 54 55  1  0  0  0  0 
 54 56  1  0  0  0  0 
 54 57  1  0  0  0  0 
 29 58  1  0  0  0  0 
 58 59  1  0  0  0  0 
M  END
> <Rank>
35

> <Priority_score>
0.024

> <Reaction_type>
aromatic hydroxylation

> <Parent_ID>
26

> <Parent_InChI>
InChI=1S/C23H29N3O3/c1-4-25(5-2)16-22(27)26-20-10-8-7-9-17(20)11-12-18-13-14-19(15-21(18)26)24-23(28)29-6-3/h7-10,13-15H,4-6,11-12,16H2,1-3H3,(H,24,28)

> <Parent_SMILES>
CCOC(=O)Nc1ccc2c(c1)N(C(=O)CN(CC)CC)c1ccccc1CC2

$$$$
Molecule 27
  CDK     0516241031

 17 18  0  0  0  0  0  0  0  0999 V2000
   -7.1753    0.1798    0.0000 C   0  0  0  0  0  0  0  0  0  0  0  0
   -5.8049    0.7899    0.0000 C   0  0  0  0  0  0  0  0  0  0  0  0
   -4.5914   -0.0918    0.0000 O   0  0  0  0  0  0  0  0  0  0  0  0
   -3.2211    0.5183    0.0000 C   0  0  0  0  0  0  0  0  0  0  0  0
   -3.0643    2.0101    0.0000 O   0  0  0  0  0  0  0  0  0  0  0  0
   -2.0076   -0.3633    0.0000 N   0  0  0  0  0  0  0  0  0  0  0  0
   -0.6373    0.2468    0.0000 C   0  0  0  0  0  0  0  0  0  0  0  0
    0.6618   -0.5032    0.0000 C   0  0  0  0  0  0  0  0  0  0  0  0
    1.7765    0.5005    0.0000 N   0  0  0  0  0  0  0  0  0  0  0  0
    1.1664    1.8708    0.0000 N   0  0  0  0  0  0  0  0  0  0  0  0
   -0.3254    1.7140    0.0000 O   0  0  0  0  0  0  0  0  0  0  0  0
    3.2437    0.1886    0.0000 N   0  0  0  0  0  0  0  0  0  0  0  0
    3.7071   -1.2389    0.0000 C   0  0  0  0  0  0  0  0  0  0  0  0
    5.1743   -1.5508    0.0000 C   0  0  0  0  0  0  0  0  0  0  0  0
    6.1782   -0.4351    0.0000 O   0  0  0  0  0  0  0  0  0  0  0  0
    5.7148    0.9924    0.0000 C   0  0  0  0  0  0  0  0  0  0  0  0
    4.2476    1.3043    0.0000 C   0  0  0  0  0  0  0  0  0  0  0  0
  1  2  1  0  0  0  0 
  2  3  1  0  0  0  0 
  3  4  1  0  0  0  0 
  4  5  2  0  0  0  0 
  4  6  1  0  0  0  0 
  6  7  1  0  0  0  0 
  7  8  2  0  0  0  0 
  8  9  1  0  0  0  0 
  9 10  2  0  0  0  0 
 10 11  1  0  0  0  0 
  7 11  1  0  0  0  0 
  9 12  1  0  0  0  0 
 12 13  1  0  0  0  0 
 13 14  1  0  0  0  0 
 14 15  1  0  0  0  0 
 15 16  1  0  0  0  0 
 16 17  1  0  0  0  0 
 12 17  1  0  0  0  0 
M  CHG  1   6  -1
M  CHG  1   9   1
M  END
> <SMILES>
CCOC(=O)[N-]c1c[n+](N2CCOCC2)no1

$$$$
Molecule 27_metabolite 1
  CDK     0516241031

 32 33  0  0  0  0  0  0  0  0999 V2000
    5.7479   -3.0959    0.0000 C   0  0  0  0  0  0  0  0  0  0  0  0
    6.3580   -4.4662    0.0000 H   0  0  0  0  0  0  0  0  0  0  0  0
    7.2033   -2.7330    0.0000 H   0  0  0  0  0  0  0  0  0  0  0  0
    5.6432   -1.5995    0.0000 H   0  0  0  0  0  0  0  0  0  0  0  0
    4.2561   -2.9391    0.0000 C   0  0  0  0  0  0  0  0  0  0  0  0
    2.8007   -3.3020    0.0000 H   0  0  0  0  0  0  0  0  0  0  0  0
    4.3607   -4.4354    0.0000 H   0  0  0  0  0  0  0  0  0  0  0  0
    3.6460   -1.5688    0.0000 O   0  0  0  0  0  0  0  0  0  0  0  0
    2.1542   -1.4120    0.0000 C   0  0  0  0  0  0  0  0  0  0  0  0
    1.2725   -2.6255    0.0000 O   0  0  0  0  0  0  0  0  0  0  0  0
    1.5441   -0.0417    0.0000 N   0  0  0  0  0  0  0  0  0  0  0  0
    0.0523    0.1151    0.0000 C   0  0  0  0  0  0  0  0  0  0  0  0
   -0.6977    1.4142    0.0000 C   0  0  0  0  0  0  0  0  0  0  0  0
   -0.0876    2.7845    0.0000 H   0  0  0  0  0  0  0  0  0  0  0  0
   -2.1649    1.1023    0.0000 N   0  0  0  0  0  0  0  0  0  0  0  0
   -2.3217   -0.3895    0.0000 N   0  0  0  0  0  0  0  0  0  0  0  0
   -0.9514   -0.9996    0.0000 O   0  0  0  0  0  0  0  0  0  0  0  0
   -3.2796    2.1060    0.0000 N   0  0  0  0  0  0  0  0  0  0  0  0
   -2.9671    3.5739    0.0000 C   0  0  0  0  0  0  0  0  0  0  0  0
   -1.5764    3.0117    0.0000 H   0  0  0  0  0  0  0  0  0  0  0  0
   -2.1721    4.8459    0.0000 H   0  0  0  0  0  0  0  0  0  0  0  0
   -4.0818    4.5776    0.0000 C   0  0  0  0  0  0  0  0  0  0  0  0
   -2.8999    5.5013    0.0000 H   0  0  0  0  0  0  0  0  0  0  0  0
   -4.7863    5.9019    0.0000 H   0  0  0  0  0  0  0  0  0  0  0  0
   -5.5090    4.1134    0.0000 O   0  0  0  0  0  0  0  0  0  0  0  0
   -5.8216    2.6455    0.0000 C   0  0  0  0  0  0  0  0  0  0  0  0
   -7.2122    3.2077    0.0000 H   0  0  0  0  0  0  0  0  0  0  0  0
   -6.6166    1.3735    0.0000 H   0  0  0  0  0  0  0  0  0  0  0  0
   -4.7068    1.6418    0.0000 C   0  0  0  0  0  0  0  0  0  0  0  0
   -5.8888    0.7181    0.0000 H   0  0  0  0  0  0  0  0  0  0  0  0
   -4.0024    0.3175    0.0000 O   0  0  0  0  0  0  0  0  0  0  0  0
   -4.7970   -0.9547    0.0000 H   0  0  0  0  0  0  0  0  0  0  0  0
  1  2  1  0  0  0  0 
  1  3  1  0  0  0  0 
  1  4  1  0  0  0  0 
  1  5  1  0  0  0  0 
  5  6  1  0  0  0  0 
  5  7  1  0  0  0  0 
  5  8  1  0  0  0  0 
  8  9  1  0  0  0  0 
  9 10  2  0  0  0  0 
  9 11  1  0  0  0  0 
 11 12  1  0  0  0  0 
 12 13  2  0  0  0  0 
 13 14  1  0  0  0  0 
 13 15  1  0  0  0  0 
 15 16  2  0  0  0  0 
 16 17  1  0  0  0  0 
 12 17  1  0  0  0  0 
 15 18  1  0  0  0  0 
 18 19  1  0  0  0  0 
 19 20  1  0  0  0  0 
 19 21  1  0  0  0  0 
 19 22  1  0  0  0  0 
 22 23  1  0  0  0  0 
 22 24  1  0  0  0  0 
 22 25  1  0  0  0  0 
 25 26  1  0  0  0  0 
 26 27  1  0  0  0  0 
 26 28  1  0  0  0  0 
 26 29  1  0  0  0  0 
 18 29  1  0  0  0  0 
 29 30  1  0  0  0  0 
 29 31  1  0  0  0  0 
 31 32  1  0  0  0  0 
M  CHG  1  11  -1
M  CHG  1  15   1
M  END
> <Rank>
1

> <Priority_score>
0.404

> <Reaction_type>
aliphatic_hydroxylation_(sec_carbon_next_to_SP2,in_a_ring)

> <Parent_ID>
27

> <Parent_InChI>
InChI=1S/C9H14N4O4/c1-2-16-9(14)10-8-7-13(11-17-8)12-3-5-15-6-4-12/h7H,2-6H2,1H3

> <Parent_SMILES>
CCOC(=O)[N-]c1c[n+](N2CCOCC2)no1

$$$$
Molecule 27_metabolite 2
  CDK     0516241031

 27 27  0  0  0  0  0  0  0  0999 V2000
   -5.9933   -3.9450    0.0000 C   0  0  0  0  0  0  0  0  0  0  0  0
   -7.4851   -3.7882    0.0000 H   0  0  0  0  0  0  0  0  0  0  0  0
   -6.4067   -5.3869    0.0000 H   0  0  0  0  0  0  0  0  0  0  0  0
   -4.6451   -4.6026    0.0000 H   0  0  0  0  0  0  0  0  0  0  0  0
   -5.1116   -2.7315    0.0000 C   0  0  0  0  0  0  0  0  0  0  0  0
   -4.6981   -1.2896    0.0000 H   0  0  0  0  0  0  0  0  0  0  0  0
   -6.4598   -2.0740    0.0000 H   0  0  0  0  0  0  0  0  0  0  0  0
   -3.6198   -2.8883    0.0000 O   0  0  0  0  0  0  0  0  0  0  0  0
   -2.7381   -1.6748    0.0000 C   0  0  0  0  0  0  0  0  0  0  0  0
   -3.3482   -0.3045    0.0000 O   0  0  0  0  0  0  0  0  0  0  0  0
   -1.2464   -1.8316    0.0000 N   0  0  0  0  0  0  0  0  0  0  0  0
   -0.3647   -0.6180    0.0000 C   0  0  0  0  0  0  0  0  0  0  0  0
    1.1353   -0.6180    0.0000 C   0  0  0  0  0  0  0  0  0  0  0  0
    2.0170   -1.8316    0.0000 H   0  0  0  0  0  0  0  0  0  0  0  0
    1.5988    0.8085    0.0000 N   0  0  0  0  0  0  0  0  0  0  0  0
    0.3853    1.6902    0.0000 N   0  0  0  0  0  0  0  0  0  0  0  0
   -0.8282    0.8085    0.0000 O   0  0  0  0  0  0  0  0  0  0  0  0
    3.0254    1.2721    0.0000 N   0  0  0  0  0  0  0  0  0  0  0  0
    4.1402    0.2684    0.0000 H   0  0  0  0  0  0  0  0  0  0  0  0
    3.3373    2.7393    0.0000 C   0  0  0  0  0  0  0  0  0  0  0  0
    3.1285    4.2247    0.0000 H   0  0  0  0  0  0  0  0  0  0  0  0
    1.8382    2.7916    0.0000 H   0  0  0  0  0  0  0  0  0  0  0  0
    4.7639    3.2028    0.0000 C   0  0  0  0  0  0  0  0  0  0  0  0
    4.9726    1.7174    0.0000 H   0  0  0  0  0  0  0  0  0  0  0  0
    6.2630    3.1505    0.0000 H   0  0  0  0  0  0  0  0  0  0  0  0
    5.0758    4.6700    0.0000 O   0  0  0  0  0  0  0  0  0  0  0  0
    6.5023    5.1336    0.0000 H   0  0  0  0  0  0  0  0  0  0  0  0
  1  2  1  0  0  0  0 
  1  3  1  0  0  0  0 
  1  4  1  0  0  0  0 
  1  5  1  0  0  0  0 
  5  6  1  0  0  0  0 
  5  7  1  0  0  0  0 
  5  8  1  0  0  0  0 
  8  9  1  0  0  0  0 
  9 10  2  0  0  0  0 
  9 11  1  0  0  0  0 
 11 12  1  0  0  0  0 
 12 13  2  0  0  0  0 
 13 14  1  0  0  0  0 
 13 15  1  0  0  0  0 
 15 16  2  0  0  0  0 
 16 17  1  0  0  0  0 
 12 17  1  0  0  0  0 
 15 18  1  0  0  0  0 
 18 19  1  0  0  0  0 
 18 20  1  0  0  0  0 
 20 21  1  0  0  0  0 
 20 22  1  0  0  0  0 
 20 23  1  0  0  0  0 
 23 24  1  0  0  0  0 
 23 25  1  0  0  0  0 
 23 26  1  0  0  0  0 
 26 27  1  0  0  0  0 
M  CHG  1  11  -1
M  CHG  1  15   1
M  END
> <Rank>
1

> <Priority_score>
0.404

> <Reaction_type>
N-dealkylation_(morpholine)

> <Parent_ID>
27

> <Parent_InChI>
InChI=1S/C9H14N4O4/c1-2-16-9(14)10-8-7-13(11-17-8)12-3-5-15-6-4-12/h7H,2-6H2,1H3

> <Parent_SMILES>
CCOC(=O)[N-]c1c[n+](N2CCOCC2)no1

$$$$
Molecule 27_metabolite 3
  CDK     0516241031

 30 31  0  0  0  0  0  0  0  0999 V2000
    6.5781    0.3080    0.0000 C   0  0  0  0  0  0  0  0  0  0  0  0
    7.7916   -0.5737    0.0000 H   0  0  0  0  0  0  0  0  0  0  0  0
    7.6571    1.3500    0.0000 H   0  0  0  0  0  0  0  0  0  0  0  0
    5.7393    1.5515    0.0000 H   0  0  0  0  0  0  0  0  0  0  0  0
    5.2078   -0.3021    0.0000 C   0  0  0  0  0  0  0  0  0  0  0  0
    4.1287   -1.3441    0.0000 H   0  0  0  0  0  0  0  0  0  0  0  0
    6.0465   -1.5457    0.0000 H   0  0  0  0  0  0  0  0  0  0  0  0
    3.9942    0.5796    0.0000 O   0  0  0  0  0  0  0  0  0  0  0  0
    2.6239   -0.0306    0.0000 C   0  0  0  0  0  0  0  0  0  0  0  0
    2.4671   -1.5223    0.0000 O   0  0  0  0  0  0  0  0  0  0  0  0
    1.4104    0.8511    0.0000 N   0  0  0  0  0  0  0  0  0  0  0  0
    0.0401    0.2410    0.0000 C   0  0  0  0  0  0  0  0  0  0  0  0
   -1.2590    0.9910    0.0000 C   0  0  0  0  0  0  0  0  0  0  0  0
   -1.4158    2.4828    0.0000 H   0  0  0  0  0  0  0  0  0  0  0  0
   -2.3737   -0.0127    0.0000 N   0  0  0  0  0  0  0  0  0  0  0  0
   -1.7636   -1.3830    0.0000 N   0  0  0  0  0  0  0  0  0  0  0  0
   -0.2718   -1.2262    0.0000 O   0  0  0  0  0  0  0  0  0  0  0  0
   -3.8409    0.2992    0.0000 N   0  0  0  0  0  0  0  0  0  0  0  0
   -4.3042    1.7267    0.0000 C   0  0  0  0  0  0  0  0  0  0  0  0
   -2.8188    1.9352    0.0000 H   0  0  0  0  0  0  0  0  0  0  0  0
   -4.2517    3.2258    0.0000 H   0  0  0  0  0  0  0  0  0  0  0  0
   -5.7715    2.0386    0.0000 C   0  0  0  0  0  0  0  0  0  0  0  0
   -5.2097    3.4294    0.0000 H   0  0  0  0  0  0  0  0  0  0  0  0
   -7.0437    2.8332    0.0000 H   0  0  0  0  0  0  0  0  0  0  0  0
   -6.7753    0.9229    0.0000 O   0  0  0  0  0  0  0  0  0  0  0  0
   -6.3120   -0.5046    0.0000 C   0  0  0  0  0  0  0  0  0  0  0  0
   -7.7975   -0.7130    0.0000 H   0  0  0  0  0  0  0  0  0  0  0  0
   -6.3645   -2.0037    0.0000 H   0  0  0  0  0  0  0  0  0  0  0  0
   -4.8448   -0.8165    0.0000 C   0  0  0  0  0  0  0  0  0  0  0  0
   -4.3810   -2.2430    0.0000 O   0  0  0  0  0  0  0  0  0  0  0  0
  1  2  1  0  0  0  0 
  1  3  1  0  0  0  0 
  1  4  1  0  0  0  0 
  1  5  1  0  0  0  0 
  5  6  1  0  0  0  0 
  5  7  1  0  0  0  0 
  5  8  1  0  0  0  0 
  8  9  1  0  0  0  0 
  9 10  2  0  0  0  0 
  9 11  1  0  0  0  0 
 11 12  1  0  0  0  0 
 12 13  2  0  0  0  0 
 13 14  1  0  0  0  0 
 13 15  1  0  0  0  0 
 15 16  2  0  0  0  0 
 16 17  1  0  0  0  0 
 12 17  1  0  0  0  0 
 15 18  1  0  0  0  0 
 18 19  1  0  0  0  0 
 19 20  1  0  0  0  0 
 19 21  1  0  0  0  0 
 19 22  1  0  0  0  0 
 22 23  1  0  0  0  0 
 22 24  1  0  0  0  0 
 22 25  1  0  0  0  0 
 25 26  1  0  0  0  0 
 26 27  1  0  0  0  0 
 26 28  1  0  0  0  0 
 26 29  1  0  0  0  0 
 18 29  1  0  0  0  0 
 29 30  2  0  0  0  0 
M  CHG  1  11  -1
M  CHG  1  15   1
M  END
> <Rank>
1

> <Priority_score>
0.404

> <Reaction_type>
oxidation_(amine_in_a_ring)

> <Parent_ID>
27

> <Parent_InChI>
InChI=1S/C9H14N4O4/c1-2-16-9(14)10-8-7-13(11-17-8)12-3-5-15-6-4-12/h7H,2-6H2,1H3

> <Parent_SMILES>
CCOC(=O)[N-]c1c[n+](N2CCOCC2)no1

$$$$
Molecule 27_metabolite 4
  CDK     0516241031

 34 34  0  0  0  0  0  0  0  0999 V2000
   -6.0915   -3.2404    0.0000 C   0  0  0  0  0  0  0  0  0  0  0  0
   -7.5833   -3.0837    0.0000 H   0  0  0  0  0  0  0  0  0  0  0  0
   -6.5050   -4.6823    0.0000 H   0  0  0  0  0  0  0  0  0  0  0  0
   -4.7433   -3.8980    0.0000 H   0  0  0  0  0  0  0  0  0  0  0  0
   -5.2099   -2.0269    0.0000 C   0  0  0  0  0  0  0  0  0  0  0  0
   -4.7964   -0.5850    0.0000 H   0  0  0  0  0  0  0  0  0  0  0  0
   -6.5581   -1.3694    0.0000 H   0  0  0  0  0  0  0  0  0  0  0  0
   -3.7181   -2.1837    0.0000 O   0  0  0  0  0  0  0  0  0  0  0  0
   -2.8364   -0.9702    0.0000 C   0  0  0  0  0  0  0  0  0  0  0  0
   -3.4465    0.4001    0.0000 O   0  0  0  0  0  0  0  0  0  0  0  0
   -1.3446   -1.1270    0.0000 N   0  0  0  0  0  0  0  0  0  0  0  0
   -0.4629    0.0865    0.0000 C   0  0  0  0  0  0  0  0  0  0  0  0
    1.0371    0.0865    0.0000 C   0  0  0  0  0  0  0  0  0  0  0  0
    1.9187   -1.1270    0.0000 H   0  0  0  0  0  0  0  0  0  0  0  0
    1.5006    1.5131    0.0000 N   0  0  0  0  0  0  0  0  0  0  0  0
    0.2871    2.3948    0.0000 N   0  0  0  0  0  0  0  0  0  0  0  0
   -0.9265    1.5131    0.0000 O   0  0  0  0  0  0  0  0  0  0  0  0
    2.9272    1.9767    0.0000 N   0  0  0  0  0  0  0  0  0  0  0  0
    3.2390    3.4439    0.0000 C   0  0  0  0  0  0  0  0  0  0  0  0
    3.0303    4.9293    0.0000 H   0  0  0  0  0  0  0  0  0  0  0  0
    1.7400    3.4962    0.0000 H   0  0  0  0  0  0  0  0  0  0  0  0
    4.6656    3.9074    0.0000 C   0  0  0  0  0  0  0  0  0  0  0  0
    3.9614    5.2318    0.0000 H   0  0  0  0  0  0  0  0  0  0  0  0
    5.8476    4.8309    0.0000 H   0  0  0  0  0  0  0  0  0  0  0  0
    5.7803    2.9037    0.0000 O   0  0  0  0  0  0  0  0  0  0  0  0
    7.2069    3.3672    0.0000 H   0  0  0  0  0  0  0  0  0  0  0  0
    4.0419    0.9730    0.0000 C   0  0  0  0  0  0  0  0  0  0  0  0
    4.8368    2.2450    0.0000 H   0  0  0  0  0  0  0  0  0  0  0  0
    5.4327    0.4110    0.0000 H   0  0  0  0  0  0  0  0  0  0  0  0
    3.7300   -0.4943    0.0000 C   0  0  0  0  0  0  0  0  0  0  0  0
    2.9351   -1.7663    0.0000 H   0  0  0  0  0  0  0  0  0  0  0  0
    2.3392    0.0676    0.0000 H   0  0  0  0  0  0  0  0  0  0  0  0
    4.8447   -1.4980    0.0000 O   0  0  0  0  0  0  0  0  0  0  0  0
    4.5329   -2.9652    0.0000 H   0  0  0  0  0  0  0  0  0  0  0  0
  1  2  1  0  0  0  0 
  1  3  1  0  0  0  0 
  1  4  1  0  0  0  0 
  1  5  1  0  0  0  0 
  5  6  1  0  0  0  0 
  5  7  1  0  0  0  0 
  5  8  1  0  0  0  0 
  8  9  1  0  0  0  0 
  9 10  2  0  0  0  0 
  9 11  1  0  0  0  0 
 11 12  1  0  0  0  0 
 12 13  2  0  0  0  0 
 13 14  1  0  0  0  0 
 13 15  1  0  0  0  0 
 15 16  2  0  0  0  0 
 16 17  1  0  0  0  0 
 12 17  1  0  0  0  0 
 15 18  1  0  0  0  0 
 18 19  1  0  0  0  0 
 19 20  1  0  0  0  0 
 19 21  1  0  0  0  0 
 19 22  1  0  0  0  0 
 22 23  1  0  0  0  0 
 22 24  1  0  0  0  0 
 22 25  1  0  0  0  0 
 25 26  1  0  0  0  0 
 18 27  1  0  0  0  0 
 27 28  1  0  0  0  0 
 27 29  1  0  0  0  0 
 27 30  1  0  0  0  0 
 30 31  1  0  0  0  0 
 30 32  1  0  0  0  0 
 30 33  1  0  0  0  0 
 33 34  1  0  0  0  0 
M  CHG  1  11  -1
M  CHG  1  15   1
M  END
> <Rank>
1

> <Priority_score>
0.404

> <Reaction_type>
O-dealkylation_(aliphatic)

> <Parent_ID>
27

> <Parent_InChI>
InChI=1S/C9H14N4O4/c1-2-16-9(14)10-8-7-13(11-17-8)12-3-5-15-6-4-12/h7H,2-6H2,1H3

> <Parent_SMILES>
CCOC(=O)[N-]c1c[n+](N2CCOCC2)no1

$$$$
Molecule 27_metabolite 5
  CDK     0516241031

 32 32  0  0  0  0  0  0  0  0999 V2000
    5.6112   -2.9703    0.0000 C   0  0  0  0  0  0  0  0  0  0  0  0
    6.2213   -4.3406    0.0000 H   0  0  0  0  0  0  0  0  0  0  0  0
    7.0666   -2.6074    0.0000 H   0  0  0  0  0  0  0  0  0  0  0  0
    5.5065   -1.4740    0.0000 H   0  0  0  0  0  0  0  0  0  0  0  0
    4.1194   -2.8135    0.0000 C   0  0  0  0  0  0  0  0  0  0  0  0
    2.6639   -3.1764    0.0000 H   0  0  0  0  0  0  0  0  0  0  0  0
    4.2240   -4.3099    0.0000 H   0  0  0  0  0  0  0  0  0  0  0  0
    3.5093   -1.4432    0.0000 O   0  0  0  0  0  0  0  0  0  0  0  0
    2.0175   -1.2864    0.0000 C   0  0  0  0  0  0  0  0  0  0  0  0
    1.1358   -2.4999    0.0000 O   0  0  0  0  0  0  0  0  0  0  0  0
    1.4074    0.0839    0.0000 N   0  0  0  0  0  0  0  0  0  0  0  0
   -0.0844    0.2407    0.0000 C   0  0  0  0  0  0  0  0  0  0  0  0
   -0.8344    1.5397    0.0000 C   0  0  0  0  0  0  0  0  0  0  0  0
   -0.2243    2.9101    0.0000 H   0  0  0  0  0  0  0  0  0  0  0  0
   -2.3016    1.2279    0.0000 N   0  0  0  0  0  0  0  0  0  0  0  0
   -2.4584   -0.2639    0.0000 N   0  0  0  0  0  0  0  0  0  0  0  0
   -1.0881   -0.8740    0.0000 O   0  0  0  0  0  0  0  0  0  0  0  0
   -3.4163    2.2316    0.0000 N   0  0  0  0  0  0  0  0  0  0  0  0
   -3.1045    3.6988    0.0000 C   0  0  0  0  0  0  0  0  0  0  0  0
   -1.7137    3.1369    0.0000 H   0  0  0  0  0  0  0  0  0  0  0  0
   -2.3096    4.9709    0.0000 H   0  0  0  0  0  0  0  0  0  0  0  0
   -4.2192    4.7025    0.0000 C   0  0  0  0  0  0  0  0  0  0  0  0
   -3.9073    6.1697    0.0000 H   0  0  0  0  0  0  0  0  0  0  0  0
   -5.6458    4.2390    0.0000 O   0  0  0  0  0  0  0  0  0  0  0  0
   -4.8429    1.7680    0.0000 C   0  0  0  0  0  0  0  0  0  0  0  0
   -6.0249    0.8446    0.0000 H   0  0  0  0  0  0  0  0  0  0  0  0
   -4.1387    0.4436    0.0000 H   0  0  0  0  0  0  0  0  0  0  0  0
   -5.9576    2.7717    0.0000 C   0  0  0  0  0  0  0  0  0  0  0  0
   -4.7756    3.6952    0.0000 H   0  0  0  0  0  0  0  0  0  0  0  0
   -6.6618    4.0962    0.0000 H   0  0  0  0  0  0  0  0  0  0  0  0
   -7.3842    2.3082    0.0000 O   0  0  0  0  0  0  0  0  0  0  0  0
   -8.4989    3.3119    0.0000 H   0  0  0  0  0  0  0  0  0  0  0  0
  1  2  1  0  0  0  0 
  1  3  1  0  0  0  0 
  1  4  1  0  0  0  0 
  1  5  1  0  0  0  0 
  5  6  1  0  0  0  0 
  5  7  1  0  0  0  0 
  5  8  1  0  0  0  0 
  8  9  1  0  0  0  0 
  9 10  2  0  0  0  0 
  9 11  1  0  0  0  0 
 11 12  1  0  0  0  0 
 12 13  2  0  0  0  0 
 13 14  1  0  0  0  0 
 13 15  1  0  0  0  0 
 15 16  2  0  0  0  0 
 16 17  1  0  0  0  0 
 12 17  1  0  0  0  0 
 15 18  1  0  0  0  0 
 18 19  1  0  0  0  0 
 19 20  1  0  0  0  0 
 19 21  1  0  0  0  0 
 19 22  1  0  0  0  0 
 22 23  1  0  0  0  0 
 22 24  2  0  0  0  0 
 18 25  1  0  0  0  0 
 25 26  1  0  0  0  0 
 25 27  1  0  0  0  0 
 25 28  1  0  0  0  0 
 28 29  1  0  0  0  0 
 28 30  1  0  0  0  0 
 28 31  1  0  0  0  0 
 31 32  1  0  0  0  0 
M  CHG  1  11  -1
M  CHG  1  15   1
M  END
> <Rank>
1

> <Priority_score>
0.404

> <Reaction_type>
oxidative ether cleavage to one alcohol and one aldehyde/ketone

> <Parent_ID>
27

> <Parent_InChI>
InChI=1S/C9H14N4O4/c1-2-16-9(14)10-8-7-13(11-17-8)12-3-5-15-6-4-12/h7H,2-6H2,1H3

> <Parent_SMILES>
CCOC(=O)[N-]c1c[n+](N2CCOCC2)no1

$$$$
Molecule 27_metabolite 6
  CDK     0516241031

 32 33  0  0  0  0  0  0  0  0999 V2000
   -7.9095   -0.5483    0.0000 C   0  0  0  0  0  0  0  0  0  0  0  0
   -9.1230    0.3333    0.0000 H   0  0  0  0  0  0  0  0  0  0  0  0
   -8.9885   -1.5903    0.0000 H   0  0  0  0  0  0  0  0  0  0  0  0
   -7.0707   -1.7919    0.0000 H   0  0  0  0  0  0  0  0  0  0  0  0
   -6.5391    0.0618    0.0000 C   0  0  0  0  0  0  0  0  0  0  0  0
   -5.4601    1.1038    0.0000 H   0  0  0  0  0  0  0  0  0  0  0  0
   -7.3779    1.3053    0.0000 H   0  0  0  0  0  0  0  0  0  0  0  0
   -5.3256   -0.8199    0.0000 O   0  0  0  0  0  0  0  0  0  0  0  0
   -3.9553   -0.2098    0.0000 C   0  0  0  0  0  0  0  0  0  0  0  0
   -3.7985    1.2820    0.0000 O   0  0  0  0  0  0  0  0  0  0  0  0
   -2.7418   -1.0915    0.0000 N   0  0  0  0  0  0  0  0  0  0  0  0
   -1.3714   -0.4814    0.0000 C   0  0  0  0  0  0  0  0  0  0  0  0
   -0.0724   -1.2314    0.0000 C   0  0  0  0  0  0  0  0  0  0  0  0
    0.0844   -2.7232    0.0000 H   0  0  0  0  0  0  0  0  0  0  0  0
    1.0423   -0.2277    0.0000 N   0  0  0  0  0  0  0  0  0  0  0  0
    0.4322    1.1426    0.0000 N   0  0  0  0  0  0  0  0  0  0  0  0
   -1.0596    0.9858    0.0000 O   0  0  0  0  0  0  0  0  0  0  0  0
    2.5095   -0.5396    0.0000 N   0  0  0  0  0  0  0  0  0  0  0  0
    2.9729   -1.9671    0.0000 C   0  0  0  0  0  0  0  0  0  0  0  0
    1.4874   -2.1755    0.0000 H   0  0  0  0  0  0  0  0  0  0  0  0
    2.9203   -3.4662    0.0000 H   0  0  0  0  0  0  0  0  0  0  0  0
    4.4401   -2.2789    0.0000 C   0  0  0  0  0  0  0  0  0  0  0  0
    3.8783   -3.6698    0.0000 H   0  0  0  0  0  0  0  0  0  0  0  0
    5.7123   -3.0736    0.0000 H   0  0  0  0  0  0  0  0  0  0  0  0
    5.4440   -1.1633    0.0000 O   0  0  0  0  0  0  0  0  0  0  0  0
    4.9806    0.2642    0.0000 C   0  0  0  0  0  0  0  0  0  0  0  0
    6.4661    0.4727    0.0000 H   0  0  0  0  0  0  0  0  0  0  0  0
    3.5134    0.5761    0.0000 C   0  0  0  0  0  0  0  0  0  0  0  0
    4.0752    1.9669    0.0000 H   0  0  0  0  0  0  0  0  0  0  0  0
    2.2412    1.3707    0.0000 H   0  0  0  0  0  0  0  0  0  0  0  0
    5.0332    1.7633    0.0000 O   0  0  0  0  0  0  0  0  0  0  0  0
    6.3577    2.4674    0.0000 H   0  0  0  0  0  0  0  0  0  0  0  0
  1  2  1  0  0  0  0 
  1  3  1  0  0  0  0 
  1  4  1  0  0  0  0 
  1  5  1  0  0  0  0 
  5  6  1  0  0  0  0 
  5  7  1  0  0  0  0 
  5  8  1  0  0  0  0 
  8  9  1  0  0  0  0 
  9 10  2  0  0  0  0 
  9 11  1  0  0  0  0 
 11 12  1  0  0  0  0 
 12 13  2  0  0  0  0 
 13 14  1  0  0  0  0 
 13 15  1  0  0  0  0 
 15 16  2  0  0  0  0 
 16 17  1  0  0  0  0 
 12 17  1  0  0  0  0 
 15 18  1  0  0  0  0 
 18 19  1  0  0  0  0 
 19 20  1  0  0  0  0 
 19 21  1  0  0  0  0 
 19 22  1  0  0  0  0 
 22 23  1  0  0  0  0 
 22 24  1  0  0  0  0 
 22 25  1  0  0  0  0 
 25 26  1  0  0  0  0 
 26 27  1  0  0  0  0 
 26 28  1  0  0  0  0 
 18 28  1  0  0  0  0 
 28 29  1  0  0  0  0 
 28 30  1  0  0  0  0 
 26 31  1  0  0  0  0 
 31 32  1  0  0  0  0 
M  CHG  1  11  -1
M  CHG  1  15   1
M  END
> <Rank>
1

> <Priority_score>
0.404

> <Reaction_type>
aliphatic hydroxylation

> <Parent_ID>
27

> <Parent_InChI>
InChI=1S/C9H14N4O4/c1-2-16-9(14)10-8-7-13(11-17-8)12-3-5-15-6-4-12/h7H,2-6H2,1H3

> <Parent_SMILES>
CCOC(=O)[N-]c1c[n+](N2CCOCC2)no1

$$$$
Molecule 27_metabolite 7
  CDK     0516241031

 32 32  0  0  0  0  0  0  0  0999 V2000
   -9.6971   -0.6769    0.0000 C   0  0  0  0  0  0  0  0  0  0  0  0
  -10.9107    0.2048    0.0000 H   0  0  0  0  0  0  0  0  0  0  0  0
  -10.7761   -1.7189    0.0000 H   0  0  0  0  0  0  0  0  0  0  0  0
   -8.8583   -1.9204    0.0000 H   0  0  0  0  0  0  0  0  0  0  0  0
   -8.3268   -0.0668    0.0000 C   0  0  0  0  0  0  0  0  0  0  0  0
   -7.2478    0.9752    0.0000 H   0  0  0  0  0  0  0  0  0  0  0  0
   -9.1656    1.1768    0.0000 H   0  0  0  0  0  0  0  0  0  0  0  0
   -7.1133   -0.9484    0.0000 O   0  0  0  0  0  0  0  0  0  0  0  0
   -5.7430   -0.3383    0.0000 C   0  0  0  0  0  0  0  0  0  0  0  0
   -5.5862    1.1534    0.0000 O   0  0  0  0  0  0  0  0  0  0  0  0
   -4.5294   -1.2200    0.0000 N   0  0  0  0  0  0  0  0  0  0  0  0
   -3.1591   -0.6099    0.0000 C   0  0  0  0  0  0  0  0  0  0  0  0
   -1.8601   -1.3599    0.0000 C   0  0  0  0  0  0  0  0  0  0  0  0
   -1.7033   -2.8517    0.0000 H   0  0  0  0  0  0  0  0  0  0  0  0
   -0.7454   -0.3562    0.0000 N   0  0  0  0  0  0  0  0  0  0  0  0
   -1.3555    1.0141    0.0000 N   0  0  0  0  0  0  0  0  0  0  0  0
   -2.8473    0.8573    0.0000 O   0  0  0  0  0  0  0  0  0  0  0  0
    0.7219   -0.6681    0.0000 N   0  0  0  0  0  0  0  0  0  0  0  0
    1.1854   -2.0947    0.0000 H   0  0  0  0  0  0  0  0  0  0  0  0
    1.7255    0.4466    0.0000 C   0  0  0  0  0  0  0  0  0  0  0  0
    2.2875    1.8374    0.0000 H   0  0  0  0  0  0  0  0  0  0  0  0
    0.4535    1.2415    0.0000 H   0  0  0  0  0  0  0  0  0  0  0  0
    3.1928    0.1348    0.0000 C   0  0  0  0  0  0  0  0  0  0  0  0
    2.6309   -1.2560    0.0000 H   0  0  0  0  0  0  0  0  0  0  0  0
    4.4648   -0.6601    0.0000 H   0  0  0  0  0  0  0  0  0  0  0  0
    4.5176    1.6062    0.0000 O   0  0  0  0  0  0  0  0  0  0  0  0
    5.9849    1.2943    0.0000 C   0  0  0  0  0  0  0  0  0  0  0  0
    5.4230   -0.0964    0.0000 H   0  0  0  0  0  0  0  0  0  0  0  0
    7.2569    0.4994    0.0000 H   0  0  0  0  0  0  0  0  0  0  0  0
    6.9886    2.4090    0.0000 C   0  0  0  0  0  0  0  0  0  0  0  0
    8.4558    2.0972    0.0000 H   0  0  0  0  0  0  0  0  0  0  0  0
    6.5250    3.8356    0.0000 O   0  0  0  0  0  0  0  0  0  0  0  0
  1  2  1  0  0  0  0 
  1  3  1  0  0  0  0 
  1  4  1  0  0  0  0 
  1  5  1  0  0  0  0 
  5  6  1  0  0  0  0 
  5  7  1  0  0  0  0 
  5  8  1  0  0  0  0 
  8  9  1  0  0  0  0 
  9 10  2  0  0  0  0 
  9 11  1  0  0  0  0 
 11 12  1  0  0  0  0 
 12 13  2  0  0  0  0 
 13 14  1  0  0  0  0 
 13 15  1  0  0  0  0 
 15 16  2  0  0  0  0 
 16 17  1  0  0  0  0 
 12 17  1  0  0  0  0 
 15 18  1  0  0  0  0 
 18 19  1  0  0  0  0 
 18 20  1  0  0  0  0 
 20 21  1  0  0  0  0 
 20 22  1  0  0  0  0 
 20 23  1  0  0  0  0 
 23 24  1  0  0  0  0 
 23 25  1  0  0  0  0 
 23 26  1  0  0  0  0 
 26 27  1  0  0  0  0 
 27 28  1  0  0  0  0 
 27 29  1  0  0  0  0 
 27 30  1  0  0  0  0 
 30 31  1  0  0  0  0 
 30 32  2  0  0  0  0 
M  CHG  1  11  -1
M  CHG  1  15   1
M  END
> <Rank>
7

> <Priority_score>
0.284

> <Reaction_type>
N-dealkylation

> <Parent_ID>
27

> <Parent_InChI>
InChI=1S/C9H14N4O4/c1-2-16-9(14)10-8-7-13(11-17-8)12-3-5-15-6-4-12/h7H,2-6H2,1H3

> <Parent_SMILES>
CCOC(=O)[N-]c1c[n+](N2CCOCC2)no1

$$$$
Molecule 27_metabolite 8
  CDK     0516241031

 32 33  0  0  0  0  0  0  0  0999 V2000
   -6.7381    2.6782    0.0000 C   0  0  0  0  0  0  0  0  0  0  0  0
   -7.3482    4.0485    0.0000 H   0  0  0  0  0  0  0  0  0  0  0  0
   -8.1936    2.3153    0.0000 H   0  0  0  0  0  0  0  0  0  0  0  0
   -6.6335    1.1819    0.0000 H   0  0  0  0  0  0  0  0  0  0  0  0
   -5.2464    2.5214    0.0000 C   0  0  0  0  0  0  0  0  0  0  0  0
   -3.7909    2.8843    0.0000 H   0  0  0  0  0  0  0  0  0  0  0  0
   -5.3510    4.0178    0.0000 H   0  0  0  0  0  0  0  0  0  0  0  0
   -4.6362    1.1511    0.0000 O   0  0  0  0  0  0  0  0  0  0  0  0
   -3.1445    0.9943    0.0000 C   0  0  0  0  0  0  0  0  0  0  0  0
   -2.2628    2.2078    0.0000 O   0  0  0  0  0  0  0  0  0  0  0  0
   -2.5344   -0.3760    0.0000 N   0  0  0  0  0  0  0  0  0  0  0  0
   -1.0426   -0.5328    0.0000 C   0  0  0  0  0  0  0  0  0  0  0  0
   -0.2926   -1.8318    0.0000 C   0  0  0  0  0  0  0  0  0  0  0  0
   -0.9027   -3.2022    0.0000 H   0  0  0  0  0  0  0  0  0  0  0  0
    1.1746   -1.5200    0.0000 N   0  0  0  0  0  0  0  0  0  0  0  0
    1.3314   -0.0282    0.0000 N   0  0  0  0  0  0  0  0  0  0  0  0
   -0.0389    0.5819    0.0000 O   0  0  0  0  0  0  0  0  0  0  0  0
    2.2894   -2.5237    0.0000 N   0  0  0  0  0  0  0  0  0  0  0  0
    2.9934   -3.8491    0.0000 C   0  0  0  0  0  0  0  0  0  0  0  0
    1.5667   -4.3122    0.0000 H   0  0  0  0  0  0  0  0  0  0  0  0
    3.2018   -5.3346    0.0000 H   0  0  0  0  0  0  0  0  0  0  0  0
    4.4925   -3.9016    0.0000 C   0  0  0  0  0  0  0  0  0  0  0  0
    4.1806   -5.3689    0.0000 H   0  0  0  0  0  0  0  0  0  0  0  0
    5.8833   -4.4634    0.0000 H   0  0  0  0  0  0  0  0  0  0  0  0
    5.2875   -2.6287    0.0000 O   0  0  0  0  0  0  0  0  0  0  0  0
    4.5835   -1.3032    0.0000 C   0  0  0  0  0  0  0  0  0  0  0  0
    6.0102   -0.8402    0.0000 H   0  0  0  0  0  0  0  0  0  0  0  0
    4.3750    0.1822    0.0000 H   0  0  0  0  0  0  0  0  0  0  0  0
    3.0844   -1.2507    0.0000 C   0  0  0  0  0  0  0  0  0  0  0  0
    3.3963    0.2165    0.0000 H   0  0  0  0  0  0  0  0  0  0  0  0
    1.6936   -0.6890    0.0000 H   0  0  0  0  0  0  0  0  0  0  0  0
    1.1071   -3.4469    0.0000 O   0  0  0  0  0  0  0  0  0  0  0  0
  1  2  1  0  0  0  0 
  1  3  1  0  0  0  0 
  1  4  1  0  0  0  0 
  1  5  1  0  0  0  0 
  5  6  1  0  0  0  0 
  5  7  1  0  0  0  0 
  5  8  1  0  0  0  0 
  8  9  1  0  0  0  0 
  9 10  2  0  0  0  0 
  9 11  1  0  0  0  0 
 11 12  1  0  0  0  0 
 12 13  2  0  0  0  0 
 13 14  1  0  0  0  0 
 13 15  1  0  0  0  0 
 15 16  2  0  0  0  0 
 16 17  1  0  0  0  0 
 12 17  1  0  0  0  0 
 15 18  1  0  0  0  0 
 18 19  1  0  0  0  0 
 19 20  1  0  0  0  0 
 19 21  1  0  0  0  0 
 19 22  1  0  0  0  0 
 22 23  1  0  0  0  0 
 22 24  1  0  0  0  0 
 22 25  1  0  0  0  0 
 25 26  1  0  0  0  0 
 26 27  1  0  0  0  0 
 26 28  1  0  0  0  0 
 26 29  1  0  0  0  0 
 18 29  1  0  0  0  0 
 29 30  1  0  0  0  0 
 29 31  1  0  0  0  0 
 18 32  1  0  0  0  0 
M  CHG  1  11  -1
M  CHG  1  15   1
M  CHG  1  18   1
M  CHG  1  32  -1
M  END
> <Rank>
7

> <Priority_score>
0.284

> <Reaction_type>
N-oxidation

> <Parent_ID>
27

> <Parent_InChI>
InChI=1S/C9H14N4O4/c1-2-16-9(14)10-8-7-13(11-17-8)12-3-5-15-6-4-12/h7H,2-6H2,1H3

> <Parent_SMILES>
CCOC(=O)[N-]c1c[n+](N2CCOCC2)no1

$$$$
Molecule 27_metabolite 9
  CDK     0516241031

 25 26  0  0  0  0  0  0  0  0999 V2000
    1.7089   -1.2131    0.0000 C   0  0  0  0  0  0  0  0  0  0  0  0
    0.2534   -1.5756    0.0000 H   0  0  0  0  0  0  0  0  0  0  0  0
    1.8134   -2.7094    0.0000 H   0  0  0  0  0  0  0  0  0  0  0  0
    3.2007   -1.3698    0.0000 C   0  0  0  0  0  0  0  0  0  0  0  0
    2.7874   -2.8118    0.0000 H   0  0  0  0  0  0  0  0  0  0  0  0
    4.5490   -2.0271    0.0000 H   0  0  0  0  0  0  0  0  0  0  0  0
    4.0825   -0.1554    0.0000 O   0  0  0  0  0  0  0  0  0  0  0  0
    3.4725    1.2159    0.0000 C   0  0  0  0  0  0  0  0  0  0  0  0
    4.9280    1.5785    0.0000 H   0  0  0  0  0  0  0  0  0  0  0  0
    3.3680    2.7123    0.0000 H   0  0  0  0  0  0  0  0  0  0  0  0
    1.9807    1.3727    0.0000 C   0  0  0  0  0  0  0  0  0  0  0  0
    2.3940    2.8146    0.0000 H   0  0  0  0  0  0  0  0  0  0  0  0
    0.6324    2.0300    0.0000 H   0  0  0  0  0  0  0  0  0  0  0  0
    1.0989    0.1582    0.0000 N   0  0  0  0  0  0  0  0  0  0  0  0
   -0.3929    0.3150    0.0000 N   0  0  0  0  0  0  0  0  0  0  0  0
   -1.1429    1.6141    0.0000 N   0  0  0  0  0  0  0  0  0  0  0  0
   -2.6101    1.3022    0.0000 O   0  0  0  0  0  0  0  0  0  0  0  0
   -2.7669   -0.1896    0.0000 C   0  0  0  0  0  0  0  0  0  0  0  0
   -1.3966   -0.7997    0.0000 C   0  0  0  0  0  0  0  0  0  0  0  0
   -1.0847   -2.2669    0.0000 H   0  0  0  0  0  0  0  0  0  0  0  0
   -4.0659   -0.9396    0.0000 N   0  0  0  0  0  0  0  0  0  0  0  0
   -5.3650   -0.1896    0.0000 C   0  0  0  0  0  0  0  0  0  0  0  0
   -5.3650    1.3104    0.0000 O   0  0  0  0  0  0  0  0  0  0  0  0
   -6.6640   -0.9396    0.0000 O   0  0  0  0  0  0  0  0  0  0  0  0
   -7.9630   -0.1896    0.0000 H   0  0  0  0  0  0  0  0  0  0  0  0
  1  2  1  0  0  0  0 
  1  3  1  0  0  0  0 
  1  4  1  0  0  0  0 
  4  5  1  0  0  0  0 
  4  6  1  0  0  0  0 
  4  7  1  0  0  0  0 
  7  8  1  0  0  0  0 
  8  9  1  0  0  0  0 
  8 10  1  0  0  0  0 
  8 11  1  0  0  0  0 
 11 12  1  0  0  0  0 
 11 13  1  0  0  0  0 
 11 14  1  0  0  0  0 
  1 14  1  0  0  0  0 
 14 15  1  0  0  0  0 
 15 16  2  0  0  0  0 
 16 17  1  0  0  0  0 
 17 18  1  0  0  0  0 
 18 19  2  0  0  0  0 
 15 19  1  0  0  0  0 
 19 20  1  0  0  0  0 
 18 21  1  0  0  0  0 
 21 22  1  0  0  0  0 
 22 23  2  0  0  0  0 
 22 24  1  0  0  0  0 
 24 25  1  0  0  0  0 
M  CHG  1  15   1
M  CHG  1  21  -1
M  END
> <Rank>
9

> <Priority_score>
0.22

> <Reaction_type>
hydrolysis_(urea_or_carbonate)

> <Parent_ID>
27

> <Parent_InChI>
InChI=1S/C9H14N4O4/c1-2-16-9(14)10-8-7-13(11-17-8)12-3-5-15-6-4-12/h7H,2-6H2,1H3

> <Parent_SMILES>
CCOC(=O)[N-]c1c[n+](N2CCOCC2)no1

$$$$
Molecule 27_metabolite 10
  CDK     0516241031

  7  6  0  0  0  0  0  0  0  0999 V2000
    2.7500   -0.4868    0.0000 C   0  0  0  0  0  0  0  0  0  0  0  0
    2.7500   -1.9868    0.0000 H   0  0  0  0  0  0  0  0  0  0  0  0
    4.2272   -0.7473    0.0000 H   0  0  0  0  0  0  0  0  0  0  0  0
    3.2631    0.9227    0.0000 H   0  0  0  0  0  0  0  0  0  0  0  0
    1.4510    0.2632    0.0000 C   0  0  0  0  0  0  0  0  0  0  0  0
    1.4510    1.7632    0.0000 H   0  0  0  0  0  0  0  0  0  0  0  0
    0.1520   -0.4868    0.0000 O   0  0  0  0  0  0  0  0  0  0  0  0
  1  2  1  0  0  0  0 
  1  3  1  0  0  0  0 
  1  4  1  0  0  0  0 
  1  5  1  0  0  0  0 
  5  6  1  0  0  0  0 
  5  7  2  0  0  0  0 
M  END
> <Rank>
9

> <Priority_score>
0.22

> <Reaction_type>
oxidative ether cleavage to one alcohol and one aldehyde/ketone

> <Parent_ID>
27

> <Parent_InChI>
InChI=1S/C9H14N4O4/c1-2-16-9(14)10-8-7-13(11-17-8)12-3-5-15-6-4-12/h7H,2-6H2,1H3

> <Parent_SMILES>
CCOC(=O)[N-]c1c[n+](N2CCOCC2)no1

$$$$
Molecule 27_metabolite 11
  CDK     0516241031

  9  8  0  0  0  0  0  0  0  0999 V2000
    1.2990   -0.7500    0.0000 C   0  0  0  0  0  0  0  0  0  0  0  0
    0.0000    0.0000    0.0000 H   0  0  0  0  0  0  0  0  0  0  0  0
    0.3349   -1.8991    0.0000 H   0  0  0  0  0  0  0  0  0  0  0  0
    2.2632   -1.8991    0.0000 H   0  0  0  0  0  0  0  0  0  0  0  0
    2.5981   -0.0000    0.0000 C   0  0  0  0  0  0  0  0  0  0  0  0
    3.5623    1.1491    0.0000 H   0  0  0  0  0  0  0  0  0  0  0  0
    1.6339    1.1491    0.0000 H   0  0  0  0  0  0  0  0  0  0  0  0
    3.8971   -0.7500    0.0000 O   0  0  0  0  0  0  0  0  0  0  0  0
    5.1962   -0.0000    0.0000 H   0  0  0  0  0  0  0  0  0  0  0  0
  1  2  1  0  0  0  0 
  1  3  1  0  0  0  0 
  1  4  1  0  0  0  0 
  1  5  1  0  0  0  0 
  5  6  1  0  0  0  0 
  5  7  1  0  0  0  0 
  5  8  1  0  0  0  0 
  8  9  1  0  0  0  0 
M  END
> <Rank>
9

> <Priority_score>
0.22

> <Reaction_type>
hydrolysis_(urea_or_carbonate)

> <Parent_ID>
27

> <Parent_InChI>
InChI=1S/C9H14N4O4/c1-2-16-9(14)10-8-7-13(11-17-8)12-3-5-15-6-4-12/h7H,2-6H2,1H3

> <Parent_SMILES>
CCOC(=O)[N-]c1c[n+](N2CCOCC2)no1

$$$$
Molecule 27_metabolite 12
  CDK     0516241031

 32 33  0  0  0  0  0  0  0  0999 V2000
   -6.8609   -0.1613    0.0000 C   0  0  0  0  0  0  0  0  0  0  0  0
   -8.0745    0.7204    0.0000 H   0  0  0  0  0  0  0  0  0  0  0  0
   -7.9400   -1.2033    0.0000 H   0  0  0  0  0  0  0  0  0  0  0  0
   -6.0222   -1.4048    0.0000 H   0  0  0  0  0  0  0  0  0  0  0  0
   -5.4906    0.4488    0.0000 C   0  0  0  0  0  0  0  0  0  0  0  0
   -4.4116    1.4908    0.0000 H   0  0  0  0  0  0  0  0  0  0  0  0
   -6.3294    1.6924    0.0000 O   0  0  0  0  0  0  0  0  0  0  0  0
   -7.8258    1.5878    0.0000 H   0  0  0  0  0  0  0  0  0  0  0  0
   -4.2771   -0.4328    0.0000 O   0  0  0  0  0  0  0  0  0  0  0  0
   -2.9068    0.1773    0.0000 C   0  0  0  0  0  0  0  0  0  0  0  0
   -2.7500    1.6690    0.0000 O   0  0  0  0  0  0  0  0  0  0  0  0
   -1.6933   -0.7044    0.0000 N   0  0  0  0  0  0  0  0  0  0  0  0
   -0.3229   -0.0943    0.0000 C   0  0  0  0  0  0  0  0  0  0  0  0
    0.9761   -0.8443    0.0000 C   0  0  0  0  0  0  0  0  0  0  0  0
    1.1329   -2.3361    0.0000 H   0  0  0  0  0  0  0  0  0  0  0  0
    2.0908    0.1594    0.0000 N   0  0  0  0  0  0  0  0  0  0  0  0
    1.4807    1.5297    0.0000 N   0  0  0  0  0  0  0  0  0  0  0  0
   -0.0111    1.3729    0.0000 O   0  0  0  0  0  0  0  0  0  0  0  0
    3.5580   -0.1525    0.0000 N   0  0  0  0  0  0  0  0  0  0  0  0
    4.0214   -1.5800    0.0000 C   0  0  0  0  0  0  0  0  0  0  0  0
    2.5359   -1.7884    0.0000 H   0  0  0  0  0  0  0  0  0  0  0  0
    3.9689   -3.0791    0.0000 H   0  0  0  0  0  0  0  0  0  0  0  0
    5.4886   -1.8919    0.0000 C   0  0  0  0  0  0  0  0  0  0  0  0
    4.9268   -3.2827    0.0000 H   0  0  0  0  0  0  0  0  0  0  0  0
    6.7608   -2.6865    0.0000 H   0  0  0  0  0  0  0  0  0  0  0  0
    6.4925   -0.7762    0.0000 O   0  0  0  0  0  0  0  0  0  0  0  0
    6.0292    0.6513    0.0000 C   0  0  0  0  0  0  0  0  0  0  0  0
    7.5146    0.8598    0.0000 H   0  0  0  0  0  0  0  0  0  0  0  0
    6.0817    2.1504    0.0000 H   0  0  0  0  0  0  0  0  0  0  0  0
    4.5619    0.9632    0.0000 C   0  0  0  0  0  0  0  0  0  0  0  0
    5.1237    2.3540    0.0000 H   0  0  0  0  0  0  0  0  0  0  0  0
    3.2897    1.7578    0.0000 H   0  0  0  0  0  0  0  0  0  0  0  0
  1  2  1  0  0  0  0 
  1  3  1  0  0  0  0 
  1  4  1  0  0  0  0 
  1  5  1  0  0  0  0 
  5  6  1  0  0  0  0 
  5  7  1  0  0  0  0 
  7  8  1  0  0  0  0 
  5  9  1  0  0  0  0 
  9 10  1  0  0  0  0 
 10 11  2  0  0  0  0 
 10 12  1  0  0  0  0 
 12 13  1  0  0  0  0 
 13 14  2  0  0  0  0 
 14 15  1  0  0  0  0 
 14 16  1  0  0  0  0 
 16 17  2  0  0  0  0 
 17 18  1  0  0  0  0 
 13 18  1  0  0  0  0 
 16 19  1  0  0  0  0 
 19 20  1  0  0  0  0 
 20 21  1  0  0  0  0 
 20 22  1  0  0  0  0 
 20 23  1  0  0  0  0 
 23 24  1  0  0  0  0 
 23 25  1  0  0  0  0 
 23 26  1  0  0  0  0 
 26 27  1  0  0  0  0 
 27 28  1  0  0  0  0 
 27 29  1  0  0  0  0 
 27 30  1  0  0  0  0 
 19 30  1  0  0  0  0 
 30 31  1  0  0  0  0 
 30 32  1  0  0  0  0 
M  CHG  1  12  -1
M  CHG  1  16   1
M  END
> <Rank>
9

> <Priority_score>
0.22

> <Reaction_type>
aliphatic hydroxylation

> <Parent_ID>
27

> <Parent_InChI>
InChI=1S/C9H14N4O4/c1-2-16-9(14)10-8-7-13(11-17-8)12-3-5-15-6-4-12/h7H,2-6H2,1H3

> <Parent_SMILES>
CCOC(=O)[N-]c1c[n+](N2CCOCC2)no1

$$$$
Molecule 27_metabolite 13
  CDK     0516241031

 32 33  0  0  0  0  0  0  0  0999 V2000
   -4.0652    3.9419    0.0000 C   0  0  0  0  0  0  0  0  0  0  0  0
   -4.6753    5.3122    0.0000 H   0  0  0  0  0  0  0  0  0  0  0  0
   -5.5206    3.5790    0.0000 H   0  0  0  0  0  0  0  0  0  0  0  0
   -3.9606    2.4455    0.0000 H   0  0  0  0  0  0  0  0  0  0  0  0
   -2.5734    3.7851    0.0000 C   0  0  0  0  0  0  0  0  0  0  0  0
   -1.1180    4.1480    0.0000 H   0  0  0  0  0  0  0  0  0  0  0  0
   -2.6780    5.2814    0.0000 H   0  0  0  0  0  0  0  0  0  0  0  0
   -1.9633    2.4148    0.0000 O   0  0  0  0  0  0  0  0  0  0  0  0
   -0.4715    2.2580    0.0000 C   0  0  0  0  0  0  0  0  0  0  0  0
    0.4102    3.4715    0.0000 O   0  0  0  0  0  0  0  0  0  0  0  0
    0.1386    0.8877    0.0000 N   0  0  0  0  0  0  0  0  0  0  0  0
    1.6304    0.7309    0.0000 C   0  0  0  0  0  0  0  0  0  0  0  0
    2.3804   -0.5682    0.0000 C   0  0  0  0  0  0  0  0  0  0  0  0
    1.7703   -1.9385    0.0000 H   0  0  0  0  0  0  0  0  0  0  0  0
    3.8476   -0.2563    0.0000 N   0  0  0  0  0  0  0  0  0  0  0  0
    4.0044    1.2355    0.0000 N   0  0  0  0  0  0  0  0  0  0  0  0
    2.6341    1.8456    0.0000 O   0  0  0  0  0  0  0  0  0  0  0  0
    4.0044   -1.7481    0.0000 N   0  0  0  0  0  0  0  0  0  0  0  0
    2.7899   -2.6299    0.0000 C   0  0  0  0  0  0  0  0  0  0  0  0
    2.1326   -1.2815    0.0000 H   0  0  0  0  0  0  0  0  0  0  0  0
    1.3480   -3.0432    0.0000 H   0  0  0  0  0  0  0  0  0  0  0  0
    2.9467   -4.1216    0.0000 C   0  0  0  0  0  0  0  0  0  0  0  0
    1.4503   -4.0172    0.0000 H   0  0  0  0  0  0  0  0  0  0  0  0
    2.5841   -5.5772    0.0000 H   0  0  0  0  0  0  0  0  0  0  0  0
    4.3180   -4.7316    0.0000 O   0  0  0  0  0  0  0  0  0  0  0  0
    5.5324   -3.8499    0.0000 C   0  0  0  0  0  0  0  0  0  0  0  0
    6.1897   -5.1982    0.0000 H   0  0  0  0  0  0  0  0  0  0  0  0
    6.9744   -3.4366    0.0000 H   0  0  0  0  0  0  0  0  0  0  0  0
    5.3757   -2.3581    0.0000 C   0  0  0  0  0  0  0  0  0  0  0  0
    6.8720   -2.4626    0.0000 H   0  0  0  0  0  0  0  0  0  0  0  0
    5.7382   -0.9026    0.0000 H   0  0  0  0  0  0  0  0  0  0  0  0
    5.3476   -0.2563    0.0000 O   0  0  0  0  0  0  0  0  0  0  0  0
  1  2  1  0  0  0  0 
  1  3  1  0  0  0  0 
  1  4  1  0  0  0  0 
  1  5  1  0  0  0  0 
  5  6  1  0  0  0  0 
  5  7  1  0  0  0  0 
  5  8  1  0  0  0  0 
  8  9  1  0  0  0  0 
  9 10  2  0  0  0  0 
  9 11  1  0  0  0  0 
 11 12  1  0  0  0  0 
 12 13  2  0  0  0  0 
 13 14  1  0  0  0  0 
 13 15  1  0  0  0  0 
 15 16  2  0  0  0  0 
 16 17  1  0  0  0  0 
 12 17  1  0  0  0  0 
 15 18  1  0  0  0  0 
 18 19  1  0  0  0  0 
 19 20  1  0  0  0  0 
 19 21  1  0  0  0  0 
 19 22  1  0  0  0  0 
 22 23  1  0  0  0  0 
 22 24  1  0  0  0  0 
 22 25  1  0  0  0  0 
 25 26  1  0  0  0  0 
 26 27  1  0  0  0  0 
 26 28  1  0  0  0  0 
 26 29  1  0  0  0  0 
 18 29  1  0  0  0  0 
 29 30  1  0  0  0  0 
 29 31  1  0  0  0  0 
 15 32  1  0  0  0  0 
M  CHG  1  11  -1
M  CHG  1  15   1
M  CHG  1  32  -1
M  END
> <Rank>
13

> <Priority_score>
0.172

> <Reaction_type>
N-oxidation

> <Parent_ID>
27

> <Parent_InChI>
InChI=1S/C9H14N4O4/c1-2-16-9(14)10-8-7-13(11-17-8)12-3-5-15-6-4-12/h7H,2-6H2,1H3

> <Parent_SMILES>
CCOC(=O)[N-]c1c[n+](N2CCOCC2)no1

$$$$
Molecule 27_metabolite 14
  CDK     0516241031

 22 23  0  0  0  0  0  0  0  0999 V2000
   -0.8534   -0.5877    0.0000 C   0  0  0  0  0  0  0  0  0  0  0  0
    0.6021   -0.2251    0.0000 H   0  0  0  0  0  0  0  0  0  0  0  0
   -0.9579    0.9087    0.0000 H   0  0  0  0  0  0  0  0  0  0  0  0
   -2.3452   -0.4309    0.0000 C   0  0  0  0  0  0  0  0  0  0  0  0
   -1.9319    1.0110    0.0000 H   0  0  0  0  0  0  0  0  0  0  0  0
   -3.6935    0.2264    0.0000 H   0  0  0  0  0  0  0  0  0  0  0  0
   -3.2270   -1.6454    0.0000 O   0  0  0  0  0  0  0  0  0  0  0  0
   -2.6170   -3.0166    0.0000 C   0  0  0  0  0  0  0  0  0  0  0  0
   -4.0725   -3.3792    0.0000 H   0  0  0  0  0  0  0  0  0  0  0  0
   -2.5125   -4.5130    0.0000 H   0  0  0  0  0  0  0  0  0  0  0  0
   -1.1252   -3.1734    0.0000 C   0  0  0  0  0  0  0  0  0  0  0  0
   -1.5385   -4.6154    0.0000 H   0  0  0  0  0  0  0  0  0  0  0  0
    0.2232   -3.8307    0.0000 H   0  0  0  0  0  0  0  0  0  0  0  0
   -0.2434   -1.9590    0.0000 N   0  0  0  0  0  0  0  0  0  0  0  0
    1.2484   -2.1158    0.0000 N   0  0  0  0  0  0  0  0  0  0  0  0
    1.9984   -3.4148    0.0000 N   0  0  0  0  0  0  0  0  0  0  0  0
    3.4656   -3.1029    0.0000 O   0  0  0  0  0  0  0  0  0  0  0  0
    3.6224   -1.6111    0.0000 C   0  0  0  0  0  0  0  0  0  0  0  0
    2.2521   -1.0010    0.0000 C   0  0  0  0  0  0  0  0  0  0  0  0
    1.9402    0.4662    0.0000 H   0  0  0  0  0  0  0  0  0  0  0  0
    4.9214   -0.8611    0.0000 N   0  0  0  0  0  0  0  0  0  0  0  0
    6.2205   -1.6111    0.0000 H   0  0  0  0  0  0  0  0  0  0  0  0
  1  2  1  0  0  0  0 
  1  3  1  0  0  0  0 
  1  4  1  0  0  0  0 
  4  5  1  0  0  0  0 
  4  6  1  0  0  0  0 
  4  7  1  0  0  0  0 
  7  8  1  0  0  0  0 
  8  9  1  0  0  0  0 
  8 10  1  0  0  0  0 
  8 11  1  0  0  0  0 
 11 12  1  0  0  0  0 
 11 13  1  0  0  0  0 
 11 14  1  0  0  0  0 
  1 14  1  0  0  0  0 
 14 15  1  0  0  0  0 
 15 16  2  0  0  0  0 
 16 17  1  0  0  0  0 
 17 18  1  0  0  0  0 
 18 19  2  0  0  0  0 
 15 19  1  0  0  0  0 
 19 20  1  0  0  0  0 
 18 21  1  0  0  0  0 
 21 22  1  0  0  0  0 
M  CHG  1  15   1
M  CHG  1  21  -1
M  END
> <Rank>
14

> <Priority_score>
0.156

> <Reaction_type>
hydrolysis_(urea_or_carbonate)

> <Parent_ID>
27

> <Parent_InChI>
InChI=1S/C9H14N4O4/c1-2-16-9(14)10-8-7-13(11-17-8)12-3-5-15-6-4-12/h7H,2-6H2,1H3

> <Parent_SMILES>
CCOC(=O)[N-]c1c[n+](N2CCOCC2)no1

$$$$
Molecule 27_metabolite 15
  CDK     0516241031

 33 34  0  0  0  0  0  0  0  0999 V2000
   -5.9725   -3.3605    0.0000 C   0  0  0  0  0  0  0  0  0  0  0  0
   -7.4643   -3.2037    0.0000 H   0  0  0  0  0  0  0  0  0  0  0  0
   -6.3860   -4.8024    0.0000 H   0  0  0  0  0  0  0  0  0  0  0  0
   -4.6243   -4.0180    0.0000 H   0  0  0  0  0  0  0  0  0  0  0  0
   -5.0908   -2.1469    0.0000 C   0  0  0  0  0  0  0  0  0  0  0  0
   -4.6774   -0.7051    0.0000 H   0  0  0  0  0  0  0  0  0  0  0  0
   -6.4390   -1.4894    0.0000 H   0  0  0  0  0  0  0  0  0  0  0  0
   -3.5990   -2.3037    0.0000 O   0  0  0  0  0  0  0  0  0  0  0  0
   -2.7174   -1.0902    0.0000 C   0  0  0  0  0  0  0  0  0  0  0  0
   -3.3275    0.2801    0.0000 O   0  0  0  0  0  0  0  0  0  0  0  0
   -1.2256   -1.2470    0.0000 N   0  0  0  0  0  0  0  0  0  0  0  0
   -1.6390   -2.6889    0.0000 H   0  0  0  0  0  0  0  0  0  0  0  0
   -0.3439   -0.0335    0.0000 C   0  0  0  0  0  0  0  0  0  0  0  0
    1.1561   -0.0335    0.0000 C   0  0  0  0  0  0  0  0  0  0  0  0
    2.0378   -1.2470    0.0000 H   0  0  0  0  0  0  0  0  0  0  0  0
    1.6196    1.3931    0.0000 N   0  0  0  0  0  0  0  0  0  0  0  0
    0.4061    2.2748    0.0000 N   0  0  0  0  0  0  0  0  0  0  0  0
   -0.8074    1.3931    0.0000 O   0  0  0  0  0  0  0  0  0  0  0  0
    3.0462    1.8566    0.0000 N   0  0  0  0  0  0  0  0  0  0  0  0
    4.1612    0.8520    0.0000 C   0  0  0  0  0  0  0  0  0  0  0  0
    2.9790   -0.0712    0.0000 H   0  0  0  0  0  0  0  0  0  0  0  0
    4.8653   -0.4725    0.0000 H   0  0  0  0  0  0  0  0  0  0  0  0
    5.5878    1.3155    0.0000 C   0  0  0  0  0  0  0  0  0  0  0  0
    5.7967   -0.1698    0.0000 H   0  0  0  0  0  0  0  0  0  0  0  0
    7.0869    1.2635    0.0000 H   0  0  0  0  0  0  0  0  0  0  0  0
    5.8994    2.7837    0.0000 O   0  0  0  0  0  0  0  0  0  0  0  0
    4.7844    3.7883    0.0000 C   0  0  0  0  0  0  0  0  0  0  0  0
    5.9666    4.7115    0.0000 H   0  0  0  0  0  0  0  0  0  0  0  0
    4.0803    5.1128    0.0000 H   0  0  0  0  0  0  0  0  0  0  0  0
    3.3578    3.3248    0.0000 C   0  0  0  0  0  0  0  0  0  0  0  0
    3.1489    4.8101    0.0000 H   0  0  0  0  0  0  0  0  0  0  0  0
    1.8587    3.3768    0.0000 H   0  0  0  0  0  0  0  0  0  0  0  0
    0.1226   -1.9046    0.0000 O   0  0  0  0  0  0  0  0  0  0  0  0
  1  2  1  0  0  0  0 
  1  3  1  0  0  0  0 
  1  4  1  0  0  0  0 
  1  5  1  0  0  0  0 
  5  6  1  0  0  0  0 
  5  7  1  0  0  0  0 
  5  8  1  0  0  0  0 
  8  9  1  0  0  0  0 
  9 10  2  0  0  0  0 
  9 11  1  0  0  0  0 
 11 12  1  0  0  0  0 
 11 13  1  0  0  0  0 
 13 14  2  0  0  0  0 
 14 15  1  0  0  0  0 
 14 16  1  0  0  0  0 
 16 17  2  0  0  0  0 
 17 18  1  0  0  0  0 
 13 18  1  0  0  0  0 
 16 19  1  0  0  0  0 
 19 20  1  0  0  0  0 
 20 21  1  0  0  0  0 
 20 22  1  0  0  0  0 
 20 23  1  0  0  0  0 
 23 24  1  0  0  0  0 
 23 25  1  0  0  0  0 
 23 26  1  0  0  0  0 
 26 27  1  0  0  0  0 
 27 28  1  0  0  0  0 
 27 29  1  0  0  0  0 
 27 30  1  0  0  0  0 
 19 30  1  0  0  0  0 
 30 31  1  0  0  0  0 
 30 32  1  0  0  0  0 
 11 33  1  0  0  0  0 
M  CHG  1  11   1
M  CHG  1  16   1
M  CHG  1  33  -1
M  END
> <Rank>
14

> <Priority_score>
0.156

> <Reaction_type>
N-oxidation

> <Parent_ID>
27

> <Parent_InChI>
InChI=1S/C9H14N4O4/c1-2-16-9(14)10-8-7-13(11-17-8)12-3-5-15-6-4-12/h7H,2-6H2,1H3

> <Parent_SMILES>
CCOC(=O)[N-]c1c[n+](N2CCOCC2)no1

$$$$
Molecule 27_metabolite 16
  CDK     0516241031

 12 11  0  0  0  0  0  0  0  0999 V2000
    1.2990   -0.7500    0.0000 C   0  0  0  0  0  0  0  0  0  0  0  0
    0.0000    0.0000    0.0000 H   0  0  0  0  0  0  0  0  0  0  0  0
    0.3349   -1.8991    0.0000 H   0  0  0  0  0  0  0  0  0  0  0  0
    2.2632   -1.8991    0.0000 H   0  0  0  0  0  0  0  0  0  0  0  0
    2.5981   -0.0000    0.0000 C   0  0  0  0  0  0  0  0  0  0  0  0
    3.5623    1.1491    0.0000 H   0  0  0  0  0  0  0  0  0  0  0  0
    1.6339    1.1491    0.0000 H   0  0  0  0  0  0  0  0  0  0  0  0
    3.8971   -0.7500    0.0000 O   0  0  0  0  0  0  0  0  0  0  0  0
    5.1962   -0.0000    0.0000 C   0  0  0  0  0  0  0  0  0  0  0  0
    5.1962    1.5000    0.0000 O   0  0  0  0  0  0  0  0  0  0  0  0
    6.4952   -0.7500    0.0000 O   0  0  0  0  0  0  0  0  0  0  0  0
    7.7942   -0.0000    0.0000 H   0  0  0  0  0  0  0  0  0  0  0  0
  1  2  1  0  0  0  0 
  1  3  1  0  0  0  0 
  1  4  1  0  0  0  0 
  1  5  1  0  0  0  0 
  5  6  1  0  0  0  0 
  5  7  1  0  0  0  0 
  5  8  1  0  0  0  0 
  8  9  1  0  0  0  0 
  9 10  2  0  0  0  0 
  9 11  1  0  0  0  0 
 11 12  1  0  0  0  0 
M  END
> <Rank>
14

> <Priority_score>
0.156

> <Reaction_type>
hydrolysis_(urea_or_carbonate)

> <Parent_ID>
27

> <Parent_InChI>
InChI=1S/C9H14N4O4/c1-2-16-9(14)10-8-7-13(11-17-8)12-3-5-15-6-4-12/h7H,2-6H2,1H3

> <Parent_SMILES>
CCOC(=O)[N-]c1c[n+](N2CCOCC2)no1

$$$$
Molecule 27_metabolite 17
  CDK     0516241031

 32 33  0  0  0  0  0  0  0  0999 V2000
   -7.1455    0.5026    0.0000 C   0  0  0  0  0  0  0  0  0  0  0  0
   -5.6900    0.8652    0.0000 H   0  0  0  0  0  0  0  0  0  0  0  0
   -7.2500    1.9990    0.0000 H   0  0  0  0  0  0  0  0  0  0  0  0
   -8.6373    0.6594    0.0000 C   0  0  0  0  0  0  0  0  0  0  0  0
   -8.2240    2.1013    0.0000 H   0  0  0  0  0  0  0  0  0  0  0  0
   -9.9857    1.3167    0.0000 H   0  0  0  0  0  0  0  0  0  0  0  0
   -9.5191   -0.5551    0.0000 O   0  0  0  0  0  0  0  0  0  0  0  0
   -8.9091   -1.9264    0.0000 C   0  0  0  0  0  0  0  0  0  0  0  0
  -10.3646   -2.2889    0.0000 H   0  0  0  0  0  0  0  0  0  0  0  0
   -8.8046   -3.4227    0.0000 H   0  0  0  0  0  0  0  0  0  0  0  0
   -7.4173   -2.0832    0.0000 C   0  0  0  0  0  0  0  0  0  0  0  0
   -7.8306   -3.5251    0.0000 H   0  0  0  0  0  0  0  0  0  0  0  0
   -6.0690   -2.7404    0.0000 H   0  0  0  0  0  0  0  0  0  0  0  0
   -6.5355   -0.8687    0.0000 N   0  0  0  0  0  0  0  0  0  0  0  0
   -5.0437   -1.0255    0.0000 N   0  0  0  0  0  0  0  0  0  0  0  0
   -4.2937   -2.3245    0.0000 N   0  0  0  0  0  0  0  0  0  0  0  0
   -2.8265   -2.0126    0.0000 O   0  0  0  0  0  0  0  0  0  0  0  0
   -2.6697   -0.5209    0.0000 C   0  0  0  0  0  0  0  0  0  0  0  0
   -4.0401    0.0892    0.0000 C   0  0  0  0  0  0  0  0  0  0  0  0
   -4.3519    1.5565    0.0000 H   0  0  0  0  0  0  0  0  0  0  0  0
   -1.3707    0.2291    0.0000 N   0  0  0  0  0  0  0  0  0  0  0  0
   -0.0717   -0.5209    0.0000 C   0  0  0  0  0  0  0  0  0  0  0  0
   -0.0717   -2.0209    0.0000 O   0  0  0  0  0  0  0  0  0  0  0  0
    1.2274    0.2291    0.0000 O   0  0  0  0  0  0  0  0  0  0  0  0
    2.5264   -0.5209    0.0000 C   0  0  0  0  0  0  0  0  0  0  0  0
    1.5622   -1.6699    0.0000 H   0  0  0  0  0  0  0  0  0  0  0  0
    3.4906   -1.6699    0.0000 H   0  0  0  0  0  0  0  0  0  0  0  0
    3.8255    0.2291    0.0000 C   0  0  0  0  0  0  0  0  0  0  0  0
    4.7896    1.3782    0.0000 H   0  0  0  0  0  0  0  0  0  0  0  0
    2.8613    1.3782    0.0000 H   0  0  0  0  0  0  0  0  0  0  0  0
    5.1245   -0.5209    0.0000 O   0  0  0  0  0  0  0  0  0  0  0  0
    6.4235    0.2291    0.0000 H   0  0  0  0  0  0  0  0  0  0  0  0
  1  2  1  0  0  0  0 
  1  3  1  0  0  0  0 
  1  4  1  0  0  0  0 
  4  5  1  0  0  0  0 
  4  6  1  0  0  0  0 
  4  7  1  0  0  0  0 
  7  8  1  0  0  0  0 
  8  9  1  0  0  0  0 
  8 10  1  0  0  0  0 
  8 11  1  0  0  0  0 
 11 12  1  0  0  0  0 
 11 13  1  0  0  0  0 
 11 14  1  0  0  0  0 
  1 14  1  0  0  0  0 
 14 15  1  0  0  0  0 
 15 16  2  0  0  0  0 
 16 17  1  0  0  0  0 
 17 18  1  0  0  0  0 
 18 19  2  0  0  0  0 
 15 19  1  0  0  0  0 
 19 20  1  0  0  0  0 
 18 21  1  0  0  0  0 
 21 22  1  0  0  0  0 
 22 23  2  0  0  0  0 
 22 24  1  0  0  0  0 
 24 25  1  0  0  0  0 
 25 26  1  0  0  0  0 
 25 27  1  0  0  0  0 
 25 28  1  0  0  0  0 
 28 29  1  0  0  0  0 
 28 30  1  0  0  0  0 
 28 31  1  0  0  0  0 
 31 32  1  0  0  0  0 
M  CHG  1  15   1
M  CHG  1  21  -1
M  END
> <Rank>
17

> <Priority_score>
0.116

> <Reaction_type>
aliphatic hydroxylation

> <Parent_ID>
27

> <Parent_InChI>
InChI=1S/C9H14N4O4/c1-2-16-9(14)10-8-7-13(11-17-8)12-3-5-15-6-4-12/h7H,2-6H2,1H3

> <Parent_SMILES>
CCOC(=O)[N-]c1c[n+](N2CCOCC2)no1

$$$$
Molecule 27_metabolite 18
  CDK     0516241031

 32 33  0  0  0  0  0  0  0  0999 V2000
    6.5781    0.3080    0.0000 C   0  0  0  0  0  0  0  0  0  0  0  0
    7.7916   -0.5737    0.0000 H   0  0  0  0  0  0  0  0  0  0  0  0
    7.6571    1.3500    0.0000 H   0  0  0  0  0  0  0  0  0  0  0  0
    5.7393    1.5515    0.0000 H   0  0  0  0  0  0  0  0  0  0  0  0
    5.2078   -0.3021    0.0000 C   0  0  0  0  0  0  0  0  0  0  0  0
    4.1287   -1.3441    0.0000 H   0  0  0  0  0  0  0  0  0  0  0  0
    6.0465   -1.5457    0.0000 H   0  0  0  0  0  0  0  0  0  0  0  0
    3.9942    0.5796    0.0000 O   0  0  0  0  0  0  0  0  0  0  0  0
    2.6239   -0.0306    0.0000 C   0  0  0  0  0  0  0  0  0  0  0  0
    2.4671   -1.5223    0.0000 O   0  0  0  0  0  0  0  0  0  0  0  0
    1.4104    0.8511    0.0000 N   0  0  0  0  0  0  0  0  0  0  0  0
    0.0401    0.2410    0.0000 C   0  0  0  0  0  0  0  0  0  0  0  0
   -1.2590    0.9910    0.0000 C   0  0  0  0  0  0  0  0  0  0  0  0
   -2.3737   -0.0127    0.0000 N   0  0  0  0  0  0  0  0  0  0  0  0
   -1.7636   -1.3830    0.0000 N   0  0  0  0  0  0  0  0  0  0  0  0
   -0.2718   -1.2262    0.0000 O   0  0  0  0  0  0  0  0  0  0  0  0
   -3.8409    0.2992    0.0000 N   0  0  0  0  0  0  0  0  0  0  0  0
   -4.3042    1.7267    0.0000 C   0  0  0  0  0  0  0  0  0  0  0  0
   -2.8188    1.9352    0.0000 H   0  0  0  0  0  0  0  0  0  0  0  0
   -4.2517    3.2258    0.0000 H   0  0  0  0  0  0  0  0  0  0  0  0
   -5.7715    2.0386    0.0000 C   0  0  0  0  0  0  0  0  0  0  0  0
   -5.2097    3.4294    0.0000 H   0  0  0  0  0  0  0  0  0  0  0  0
   -7.0437    2.8332    0.0000 H   0  0  0  0  0  0  0  0  0  0  0  0
   -6.7753    0.9229    0.0000 O   0  0  0  0  0  0  0  0  0  0  0  0
   -6.3120   -0.5046    0.0000 C   0  0  0  0  0  0  0  0  0  0  0  0
   -7.7975   -0.7130    0.0000 H   0  0  0  0  0  0  0  0  0  0  0  0
   -6.3645   -2.0037    0.0000 H   0  0  0  0  0  0  0  0  0  0  0  0
   -4.8448   -0.8165    0.0000 C   0  0  0  0  0  0  0  0  0  0  0  0
   -5.4066   -2.2073    0.0000 H   0  0  0  0  0  0  0  0  0  0  0  0
   -3.5726   -1.6111    0.0000 H   0  0  0  0  0  0  0  0  0  0  0  0
   -1.4158    2.4828    0.0000 O   0  0  0  0  0  0  0  0  0  0  0  0
   -2.7861    3.0929    0.0000 H   0  0  0  0  0  0  0  0  0  0  0  0
  1  2  1  0  0  0  0 
  1  3  1  0  0  0  0 
  1  4  1  0  0  0  0 
  1  5  1  0  0  0  0 
  5  6  1  0  0  0  0 
  5  7  1  0  0  0  0 
  5  8  1  0  0  0  0 
  8  9  1  0  0  0  0 
  9 10  2  0  0  0  0 
  9 11  1  0  0  0  0 
 11 12  1  0  0  0  0 
 12 13  2  0  0  0  0 
 13 14  1  0  0  0  0 
 14 15  2  0  0  0  0 
 15 16  1  0  0  0  0 
 12 16  1  0  0  0  0 
 14 17  1  0  0  0  0 
 17 18  1  0  0  0  0 
 18 19  1  0  0  0  0 
 18 20  1  0  0  0  0 
 18 21  1  0  0  0  0 
 21 22  1  0  0  0  0 
 21 23  1  0  0  0  0 
 21 24  1  0  0  0  0 
 24 25  1  0  0  0  0 
 25 26  1  0  0  0  0 
 25 27  1  0  0  0  0 
 25 28  1  0  0  0  0 
 17 28  1  0  0  0  0 
 28 29  1  0  0  0  0 
 28 30  1  0  0  0  0 
 13 31  1  0  0  0  0 
 31 32  1  0  0  0  0 
M  CHG  1  11  -1
M  CHG  1  14   1
M  END
> <Rank>
18

> <Priority_score>
0.104

> <Reaction_type>
aromatic hydroxylation

> <Parent_ID>
27

> <Parent_InChI>
InChI=1S/C9H14N4O4/c1-2-16-9(14)10-8-7-13(11-17-8)12-3-5-15-6-4-12/h7H,2-6H2,1H3

> <Parent_SMILES>
CCOC(=O)[N-]c1c[n+](N2CCOCC2)no1

$$$$
Molecule 27_metabolite 19
  CDK     0516241031

 29 30  0  0  0  0  0  0  0  0999 V2000
    5.6518   -3.1216    0.0000 C   0  0  0  0  0  0  0  0  0  0  0  0
    6.2619   -4.4919    0.0000 H   0  0  0  0  0  0  0  0  0  0  0  0
    7.1073   -2.7587    0.0000 H   0  0  0  0  0  0  0  0  0  0  0  0
    5.5472   -1.6253    0.0000 H   0  0  0  0  0  0  0  0  0  0  0  0
    4.1600   -2.9648    0.0000 C   0  0  0  0  0  0  0  0  0  0  0  0
    2.7046   -3.3277    0.0000 H   0  0  0  0  0  0  0  0  0  0  0  0
    4.2647   -4.4612    0.0000 H   0  0  0  0  0  0  0  0  0  0  0  0
    3.5499   -1.5945    0.0000 O   0  0  0  0  0  0  0  0  0  0  0  0
    2.0582   -1.4377    0.0000 C   0  0  0  0  0  0  0  0  0  0  0  0
    1.1765   -2.6512    0.0000 O   0  0  0  0  0  0  0  0  0  0  0  0
    1.4481   -0.0674    0.0000 N   0  0  0  0  0  0  0  0  0  0  0  0
   -0.0437    0.0894    0.0000 C   0  0  0  0  0  0  0  0  0  0  0  0
   -0.7937    1.3884    0.0000 C   0  0  0  0  0  0  0  0  0  0  0  0
   -0.1836    2.7588    0.0000 H   0  0  0  0  0  0  0  0  0  0  0  0
   -2.2610    1.0766    0.0000 N   0  0  0  0  0  0  0  0  0  0  0  0
   -2.4177   -0.4152    0.0000 N   0  0  0  0  0  0  0  0  0  0  0  0
   -1.0474   -1.0253    0.0000 O   0  0  0  0  0  0  0  0  0  0  0  0
   -3.3757    2.0803    0.0000 N   0  0  0  0  0  0  0  0  0  0  0  0
   -3.0632    3.5482    0.0000 C   0  0  0  0  0  0  0  0  0  0  0  0
   -1.6365    4.0115    0.0000 H   0  0  0  0  0  0  0  0  0  0  0  0
   -4.1779    4.5519    0.0000 C   0  0  0  0  0  0  0  0  0  0  0  0
   -3.8662    6.0192    0.0000 H   0  0  0  0  0  0  0  0  0  0  0  0
   -5.6051    4.0877    0.0000 O   0  0  0  0  0  0  0  0  0  0  0  0
   -5.9176    2.6197    0.0000 C   0  0  0  0  0  0  0  0  0  0  0  0
   -7.3083    3.1819    0.0000 H   0  0  0  0  0  0  0  0  0  0  0  0
   -6.7126    1.3477    0.0000 H   0  0  0  0  0  0  0  0  0  0  0  0
   -4.8029    1.6160    0.0000 C   0  0  0  0  0  0  0  0  0  0  0  0
   -5.9848    0.6924    0.0000 H   0  0  0  0  0  0  0  0  0  0  0  0
   -4.0984    0.2918    0.0000 H   0  0  0  0  0  0  0  0  0  0  0  0
  1  2  1  0  0  0  0 
  1  3  1  0  0  0  0 
  1  4  1  0  0  0  0 
  1  5  1  0  0  0  0 
  5  6  1  0  0  0  0 
  5  7  1  0  0  0  0 
  5  8  1  0  0  0  0 
  8  9  1  0  0  0  0 
  9 10  2  0  0  0  0 
  9 11  1  0  0  0  0 
 11 12  1  0  0  0  0 
 12 13  2  0  0  0  0 
 13 14  1  0  0  0  0 
 13 15  1  0  0  0  0 
 15 16  2  0  0  0  0 
 16 17  1  0  0  0  0 
 12 17  1  0  0  0  0 
 15 18  1  0  0  0  0 
 18 19  1  0  0  0  0 
 19 20  1  0  0  0  0 
 19 21  2  0  0  0  0 
 21 22  1  0  0  0  0 
 21 23  1  0  0  0  0 
 23 24  1  0  0  0  0 
 24 25  1  0  0  0  0 
 24 26  1  0  0  0  0 
 24 27  1  0  0  0  0 
 18 27  1  0  0  0  0 
 27 28  1  0  0  0  0 
 27 29  1  0  0  0  0 
M  CHG  1  11  -1
M  CHG  1  15   1
M  END
> <Rank>
19

> <Priority_score>
0.08080000000000001

> <Reaction_type>
alkyl dehydrogenation

> <Parent_ID>
27

> <Parent_InChI>
InChI=1S/C9H14N4O4/c1-2-16-9(14)10-8-7-13(11-17-8)12-3-5-15-6-4-12/h7H,2-6H2,1H3

> <Parent_SMILES>
CCOC(=O)[N-]c1c[n+](N2CCOCC2)no1

$$$$
Molecule 27_metabolite 20
  CDK     0516241031

 52 54  0  0  0  0  0  0  0  0999 V2000
  -10.5473    2.2214    0.0000 C   0  0  0  0  0  0  0  0  0  0  0  0
  -11.1574    3.5917    0.0000 H   0  0  0  0  0  0  0  0  0  0  0  0
  -12.0027    1.8585    0.0000 H   0  0  0  0  0  0  0  0  0  0  0  0
  -10.4426    0.7251    0.0000 H   0  0  0  0  0  0  0  0  0  0  0  0
   -9.0555    2.0646    0.0000 C   0  0  0  0  0  0  0  0  0  0  0  0
   -7.6000    2.4275    0.0000 H   0  0  0  0  0  0  0  0  0  0  0  0
   -9.1601    3.5610    0.0000 H   0  0  0  0  0  0  0  0  0  0  0  0
   -8.4454    0.6943    0.0000 O   0  0  0  0  0  0  0  0  0  0  0  0
   -6.9536    0.5375    0.0000 C   0  0  0  0  0  0  0  0  0  0  0  0
   -6.0719    1.7510    0.0000 O   0  0  0  0  0  0  0  0  0  0  0  0
   -6.3435   -0.8328    0.0000 N   0  0  0  0  0  0  0  0  0  0  0  0
   -4.8517   -0.9896    0.0000 C   0  0  0  0  0  0  0  0  0  0  0  0
   -4.1017   -2.2886    0.0000 C   0  0  0  0  0  0  0  0  0  0  0  0
   -4.7118   -3.6589    0.0000 H   0  0  0  0  0  0  0  0  0  0  0  0
   -2.6345   -1.9768    0.0000 N   0  0  0  0  0  0  0  0  0  0  0  0
   -2.4777   -0.4850    0.0000 N   0  0  0  0  0  0  0  0  0  0  0  0
   -0.3473    0.7450    0.0000 C   0  0  0  0  0  0  0  0  0  0  0  0
    0.1659   -0.6645    0.0000 H   0  0  0  0  0  0  0  0  0  0  0  0
    1.1299    1.0058    0.0000 C   0  0  0  0  0  0  0  0  0  0  0  0
    1.1304   -0.4942    0.0000 H   0  0  0  0  0  0  0  0  0  0  0  0
    1.6424    2.4164    0.0000 C   0  0  0  0  0  0  0  0  0  0  0  0
    2.9417    1.6668    0.0000 H   0  0  0  0  0  0  0  0  0  0  0  0
    0.6778    3.5662    0.0000 C   0  0  0  0  0  0  0  0  0  0  0  0
    1.9769    4.3162    0.0000 H   0  0  0  0  0  0  0  0  0  0  0  0
   -0.7993    3.3054    0.0000 C   0  0  0  0  0  0  0  0  0  0  0  0
   -0.7998    4.8054    0.0000 H   0  0  0  0  0  0  0  0  0  0  0  0
   -2.2766    3.5653    0.0000 C   0  0  0  0  0  0  0  0  0  0  0  0
   -3.2403    2.4158    0.0000 O   0  0  0  0  0  0  0  0  0  0  0  0
   -2.7903    4.9746    0.0000 O   0  0  0  0  0  0  0  0  0  0  0  0
   -1.8266    6.1241    0.0000 H   0  0  0  0  0  0  0  0  0  0  0  0
   -1.3119    1.8948    0.0000 O   0  0  0  0  0  0  0  0  0  0  0  0
    0.1647    4.9757    0.0000 O   0  0  0  0  0  0  0  0  0  0  0  0
    1.1287    6.1249    0.0000 H   0  0  0  0  0  0  0  0  0  0  0  0
    2.6065    3.5656    0.0000 O   0  0  0  0  0  0  0  0  0  0  0  0
    4.0837    3.3053    0.0000 H   0  0  0  0  0  0  0  0  0  0  0  0
    2.6072    0.7460    0.0000 O   0  0  0  0  0  0  0  0  0  0  0  0
    3.1208   -0.6633    0.0000 H   0  0  0  0  0  0  0  0  0  0  0  0
   -3.8480    0.1251    0.0000 O   0  0  0  0  0  0  0  0  0  0  0  0
   -1.5198   -2.9805    0.0000 N   0  0  0  0  0  0  0  0  0  0  0  0
   -1.8323   -4.4484    0.0000 C   0  0  0  0  0  0  0  0  0  0  0  0
   -3.2229   -3.8862    0.0000 H   0  0  0  0  0  0  0  0  0  0  0  0
   -2.6273   -5.7204    0.0000 H   0  0  0  0  0  0  0  0  0  0  0  0
   -0.7176   -5.4521    0.0000 C   0  0  0  0  0  0  0  0  0  0  0  0
   -1.8995   -6.3757    0.0000 H   0  0  0  0  0  0  0  0  0  0  0  0
   -0.0131   -6.7764    0.0000 H   0  0  0  0  0  0  0  0  0  0  0  0
    0.7097   -4.9878    0.0000 O   0  0  0  0  0  0  0  0  0  0  0  0
    1.0222   -3.5199    0.0000 C   0  0  0  0  0  0  0  0  0  0  0  0
    2.4128   -4.0821    0.0000 H   0  0  0  0  0  0  0  0  0  0  0  0
    1.8172   -2.2479    0.0000 H   0  0  0  0  0  0  0  0  0  0  0  0
   -0.0925   -2.5162    0.0000 C   0  0  0  0  0  0  0  0  0  0  0  0
    1.0894   -1.5926    0.0000 H   0  0  0  0  0  0  0  0  0  0  0  0
   -0.7970   -1.1919    0.0000 H   0  0  0  0  0  0  0  0  0  0  0  0
  1  2  1  0  0  0  0 
  1  3  1  0  0  0  0 
  1  4  1  0  0  0  0 
  1  5  1  0  0  0  0 
  5  6  1  0  0  0  0 
  5  7  1  0  0  0  0 
  5  8  1  0  0  0  0 
  8  9  1  0  0  0  0 
  9 10  2  0  0  0  0 
  9 11  1  0  0  0  0 
 11 12  1  0  0  0  0 
 12 13  2  0  0  0  0 
 13 14  1  0  0  0  0 
 13 15  1  0  0  0  0 
 15 16  2  0  0  0  0 
 16 17  1  0  0  0  0 
 17 18  1  0  0  0  0 
 17 19  1  0  0  0  0 
 19 20  1  0  0  0  0 
 19 21  1  0  0  0  0 
 21 22  1  0  0  0  0 
 21 23  1  0  0  0  0 
 23 24  1  0  0  0  0 
 23 25  1  0  0  0  0 
 25 26  1  0  0  0  0 
 25 27  1  0  0  0  0 
 27 28  2  0  0  0  0 
 27 29  1  0  0  0  0 
 29 30  1  0  0  0  0 
 25 31  1  0  0  0  0 
 17 31  1  0  0  0  0 
 23 32  1  0  0  0  0 
 32 33  1  0  0  0  0 
 21 34  1  0  0  0  0 
 34 35  1  0  0  0  0 
 19 36  1  0  0  0  0 
 36 37  1  0  0  0  0 
 16 38  1  0  0  0  0 
 12 38  1  0  0  0  0 
 15 39  1  0  0  0  0 
 39 40  1  0  0  0  0 
 40 41  1  0  0  0  0 
 40 42  1  0  0  0  0 
 40 43  1  0  0  0  0 
 43 44  1  0  0  0  0 
 43 45  1  0  0  0  0 
 43 46  1  0  0  0  0 
 46 47  1  0  0  0  0 
 47 48  1  0  0  0  0 
 47 49  1  0  0  0  0 
 47 50  1  0  0  0  0 
 39 50  1  0  0  0  0 
 50 51  1  0  0  0  0 
 50 52  1  0  0  0  0 
M  CHG  1  11  -1
M  CHG  1  15   1
M  CHG  1  16   1
M  END
> <Rank>
20

> <Priority_score>
0.076

> <Reaction_type>
N-glucuronidation_(aromatic_=n-)

> <Parent_ID>
27

> <Parent_InChI>
InChI=1S/C9H14N4O4/c1-2-16-9(14)10-8-7-13(11-17-8)12-3-5-15-6-4-12/h7H,2-6H2,1H3

> <Parent_SMILES>
CCOC(=O)[N-]c1c[n+](N2CCOCC2)no1

$$$$
Molecule 27_metabolite 21
  CDK     0516241031

 30 31  0  0  0  0  0  0  0  0999 V2000
   -5.9725   -3.3605    0.0000 C   0  0  0  0  0  0  0  0  0  0  0  0
   -7.4643   -3.2037    0.0000 H   0  0  0  0  0  0  0  0  0  0  0  0
   -6.3860   -4.8024    0.0000 H   0  0  0  0  0  0  0  0  0  0  0  0
   -4.6243   -4.0180    0.0000 H   0  0  0  0  0  0  0  0  0  0  0  0
   -5.0908   -2.1469    0.0000 C   0  0  0  0  0  0  0  0  0  0  0  0
   -4.6774   -0.7051    0.0000 H   0  0  0  0  0  0  0  0  0  0  0  0
   -6.4390   -1.4894    0.0000 H   0  0  0  0  0  0  0  0  0  0  0  0
   -3.5990   -2.3037    0.0000 O   0  0  0  0  0  0  0  0  0  0  0  0
   -2.7174   -1.0902    0.0000 C   0  0  0  0  0  0  0  0  0  0  0  0
   -3.3275    0.2801    0.0000 O   0  0  0  0  0  0  0  0  0  0  0  0
   -1.2256   -1.2470    0.0000 N   0  0  0  0  0  0  0  0  0  0  0  0
   -0.3439   -0.0335    0.0000 C   0  0  0  0  0  0  0  0  0  0  0  0
    1.1561   -0.0335    0.0000 C   0  0  0  0  0  0  0  0  0  0  0  0
    2.0378   -1.2470    0.0000 H   0  0  0  0  0  0  0  0  0  0  0  0
    1.6196    1.3931    0.0000 N   0  0  0  0  0  0  0  0  0  0  0  0
    0.4061    2.2748    0.0000 N   0  0  0  0  0  0  0  0  0  0  0  0
   -0.8074    1.3931    0.0000 O   0  0  0  0  0  0  0  0  0  0  0  0
    3.0462    1.8566    0.0000 N   0  0  0  0  0  0  0  0  0  0  0  0
    4.1612    0.8520    0.0000 C   0  0  0  0  0  0  0  0  0  0  0  0
    3.8491   -0.6152    0.0000 H   0  0  0  0  0  0  0  0  0  0  0  0
    5.5878    1.3155    0.0000 C   0  0  0  0  0  0  0  0  0  0  0  0
    5.7967   -0.1698    0.0000 H   0  0  0  0  0  0  0  0  0  0  0  0
    7.0869    1.2635    0.0000 H   0  0  0  0  0  0  0  0  0  0  0  0
    5.8994    2.7837    0.0000 O   0  0  0  0  0  0  0  0  0  0  0  0
    4.7844    3.7883    0.0000 C   0  0  0  0  0  0  0  0  0  0  0  0
    5.9666    4.7115    0.0000 H   0  0  0  0  0  0  0  0  0  0  0  0
    4.0803    5.1128    0.0000 H   0  0  0  0  0  0  0  0  0  0  0  0
    3.3578    3.3248    0.0000 C   0  0  0  0  0  0  0  0  0  0  0  0
    3.1489    4.8101    0.0000 H   0  0  0  0  0  0  0  0  0  0  0  0
    1.8587    3.3768    0.0000 H   0  0  0  0  0  0  0  0  0  0  0  0
  1  2  1  0  0  0  0 
  1  3  1  0  0  0  0 
  1  4  1  0  0  0  0 
  1  5  1  0  0  0  0 
  5  6  1  0  0  0  0 
  5  7  1  0  0  0  0 
  5  8  1  0  0  0  0 
  8  9  1  0  0  0  0 
  9 10  2  0  0  0  0 
  9 11  1  0  0  0  0 
 11 12  1  0  0  0  0 
 12 13  2  0  0  0  0 
 13 14  1  0  0  0  0 
 13 15  1  0  0  0  0 
 15 16  2  0  0  0  0 
 16 17  1  0  0  0  0 
 12 17  1  0  0  0  0 
 15 18  1  0  0  0  0 
 18 19  2  0  0  0  0 
 19 20  1  0  0  0  0 
 19 21  1  0  0  0  0 
 21 22  1  0  0  0  0 
 21 23  1  0  0  0  0 
 21 24  1  0  0  0  0 
 24 25  1  0  0  0  0 
 25 26  1  0  0  0  0 
 25 27  1  0  0  0  0 
 25 28  1  0  0  0  0 
 18 28  1  0  0  0  0 
 28 29  1  0  0  0  0 
 28 30  1  0  0  0  0 
M  CHG  1  11  -1
M  CHG  1  15   1
M  CHG  1  18   1
M  END
> <Rank>
21

> <Priority_score>
0.056799999999999996

> <Reaction_type>
dehydration of N-C bond

> <Parent_ID>
27

> <Parent_InChI>
InChI=1S/C9H14N4O4/c1-2-16-9(14)10-8-7-13(11-17-8)12-3-5-15-6-4-12/h7H,2-6H2,1H3

> <Parent_SMILES>
CCOC(=O)[N-]c1c[n+](N2CCOCC2)no1

$$$$
Molecule 27_metabolite 22
  CDK     0516241031

  3  2  0  0  0  0  0  0  0  0999 V2000
    1.2990   -0.7500    0.0000 C   0  0  0  0  0  0  0  0  0  0  0  0
   -0.2010   -0.7500    0.0000 O   0  0  0  0  0  0  0  0  0  0  0  0
    2.7990   -0.7500    0.0000 O   0  0  0  0  0  0  0  0  0  0  0  0
  1  2  2  0  0  0  0 
  1  3  2  0  0  0  0 
M  END
> <Rank>
22

> <Priority_score>
0.044000000000000004

> <Reaction_type>
carbamate cleavage

> <Parent_ID>
27

> <Parent_InChI>
InChI=1S/C9H14N4O4/c1-2-16-9(14)10-8-7-13(11-17-8)12-3-5-15-6-4-12/h7H,2-6H2,1H3

> <Parent_SMILES>
CCOC(=O)[N-]c1c[n+](N2CCOCC2)no1

$$$$
Molecule 27_metabolite 23
  CDK     0516241031

 29 30  0  0  0  0  0  0  0  0999 V2000
    5.7431   -3.0780    0.0000 C   0  0  0  0  0  0  0  0  0  0  0  0
    6.3532   -4.4483    0.0000 H   0  0  0  0  0  0  0  0  0  0  0  0
    6.6248   -1.8645    0.0000 H   0  0  0  0  0  0  0  0  0  0  0  0
    4.2513   -2.9212    0.0000 C   0  0  0  0  0  0  0  0  0  0  0  0
    3.3696   -4.1347    0.0000 H   0  0  0  0  0  0  0  0  0  0  0  0
    3.6412   -1.5509    0.0000 O   0  0  0  0  0  0  0  0  0  0  0  0
    2.1494   -1.3941    0.0000 C   0  0  0  0  0  0  0  0  0  0  0  0
    1.2677   -2.6076    0.0000 O   0  0  0  0  0  0  0  0  0  0  0  0
    1.5393   -0.0238    0.0000 N   0  0  0  0  0  0  0  0  0  0  0  0
    0.0475    0.1330    0.0000 C   0  0  0  0  0  0  0  0  0  0  0  0
   -0.7025    1.4321    0.0000 C   0  0  0  0  0  0  0  0  0  0  0  0
   -0.0924    2.8024    0.0000 H   0  0  0  0  0  0  0  0  0  0  0  0
   -2.1697    1.1202    0.0000 N   0  0  0  0  0  0  0  0  0  0  0  0
   -2.3265   -0.3716    0.0000 N   0  0  0  0  0  0  0  0  0  0  0  0
   -0.9562   -0.9817    0.0000 O   0  0  0  0  0  0  0  0  0  0  0  0
   -3.2844    2.1239    0.0000 N   0  0  0  0  0  0  0  0  0  0  0  0
   -2.9719    3.5918    0.0000 C   0  0  0  0  0  0  0  0  0  0  0  0
   -1.5812    3.0296    0.0000 H   0  0  0  0  0  0  0  0  0  0  0  0
   -2.1769    4.8638    0.0000 H   0  0  0  0  0  0  0  0  0  0  0  0
   -4.0866    4.5955    0.0000 C   0  0  0  0  0  0  0  0  0  0  0  0
   -2.9047    5.5192    0.0000 H   0  0  0  0  0  0  0  0  0  0  0  0
   -4.7911    5.9198    0.0000 H   0  0  0  0  0  0  0  0  0  0  0  0
   -5.5138    4.1313    0.0000 O   0  0  0  0  0  0  0  0  0  0  0  0
   -5.8264    2.6634    0.0000 C   0  0  0  0  0  0  0  0  0  0  0  0
   -7.2170    3.2256    0.0000 H   0  0  0  0  0  0  0  0  0  0  0  0
   -6.6214    1.3914    0.0000 H   0  0  0  0  0  0  0  0  0  0  0  0
   -4.7116    1.6597    0.0000 C   0  0  0  0  0  0  0  0  0  0  0  0
   -5.8936    0.7360    0.0000 H   0  0  0  0  0  0  0  0  0  0  0  0
   -4.0071    0.3354    0.0000 H   0  0  0  0  0  0  0  0  0  0  0  0
  1  2  1  0  0  0  0 
  1  3  1  0  0  0  0 
  1  4  2  0  0  0  0 
  4  5  1  0  0  0  0 
  4  6  1  0  0  0  0 
  6  7  1  0  0  0  0 
  7  8  2  0  0  0  0 
  7  9  1  0  0  0  0 
  9 10  1  0  0  0  0 
 10 11  2  0  0  0  0 
 11 12  1  0  0  0  0 
 11 13  1  0  0  0  0 
 13 14  2  0  0  0  0 
 14 15  1  0  0  0  0 
 10 15  1  0  0  0  0 
 13 16  1  0  0  0  0 
 16 17  1  0  0  0  0 
 17 18  1  0  0  0  0 
 17 19  1  0  0  0  0 
 17 20  1  0  0  0  0 
 20 21  1  0  0  0  0 
 20 22  1  0  0  0  0 
 20 23  1  0  0  0  0 
 23 24  1  0  0  0  0 
 24 25  1  0  0  0  0 
 24 26  1  0  0  0  0 
 24 27  1  0  0  0  0 
 16 27  1  0  0  0  0 
 27 28  1  0  0  0  0 
 27 29  1  0  0  0  0 
M  CHG  1   9  -1
M  CHG  1  13   1
M  END
> <Rank>
22

> <Priority_score>
0.044000000000000004

> <Reaction_type>
alkyl dehydrogenation

> <Parent_ID>
27

> <Parent_InChI>
InChI=1S/C9H14N4O4/c1-2-16-9(14)10-8-7-13(11-17-8)12-3-5-15-6-4-12/h7H,2-6H2,1H3

> <Parent_SMILES>
CCOC(=O)[N-]c1c[n+](N2CCOCC2)no1

$$$$
Molecule 28
  CDK     0516241031

 29 31  0  0  0  0  0  0  0  0999 V2000
    5.5858    4.6822    0.0000 C   0  0  0  0  0  0  0  0  0  0  0  0
    4.1182    4.3721    0.0000 C   0  0  0  0  0  0  0  0  0  0  0  0
    3.6529    2.9461    0.0000 O   0  0  0  0  0  0  0  0  0  0  0  0
    2.1853    2.6360    0.0000 C   0  0  0  0  0  0  0  0  0  0  0  0
    1.1830    3.7520    0.0000 O   0  0  0  0  0  0  0  0  0  0  0  0
    1.7200    1.2100    0.0000 C   0  0  0  0  0  0  0  0  0  0  0  0
    2.6000   -0.0000    0.0000 C   0  0  0  0  0  0  0  0  0  0  0  0
    4.1000   -0.0000    0.0000 C   0  0  0  0  0  0  0  0  0  0  0  0
    4.8500   -1.2990    0.0000 S   0  0  0  0  0  0  0  0  0  0  0  0
    6.3500   -1.2990    0.0000 C   0  0  0  0  0  0  0  0  0  0  0  0
    7.1002   -0.0001    0.0000 C   0  0  0  0  0  0  0  0  0  0  0  0
    8.6010   -0.0008    0.0000 C   0  0  0  0  0  0  0  0  0  0  0  0
    9.3517   -1.3005    0.0000 C   0  0  0  0  0  0  0  0  0  0  0  0
    8.6015   -2.5994    0.0000 C   0  0  0  0  0  0  0  0  0  0  0  0
    7.1006   -2.5987    0.0000 C   0  0  0  0  0  0  0  0  0  0  0  0
    1.7200   -1.2100    0.0000 N   0  0  0  0  0  0  0  0  0  0  0  0
    2.1853   -2.6360    0.0000 C   0  0  0  0  0  0  0  0  0  0  0  0
    0.2900   -0.7500    0.0000 C   0  0  0  0  0  0  0  0  0  0  0  0
    0.2900    0.7500    0.0000 C   0  0  0  0  0  0  0  0  0  0  0  0
   -1.0100    1.5000    0.0000 C   0  0  0  0  0  0  0  0  0  0  0  0
   -2.3100    0.7500    0.0000 C   0  0  0  0  0  0  0  0  0  0  0  0
   -2.3100   -0.7500    0.0000 C   0  0  0  0  0  0  0  0  0  0  0  0
   -1.0100   -1.5000    0.0000 C   0  0  0  0  0  0  0  0  0  0  0  0
   -3.6089   -1.5002    0.0000 Br  0  0  0  0  0  0  0  0  0  0  0  0
   -3.6089    1.5002    0.0000 O   0  0  0  0  0  0  0  0  0  0  0  0
   -1.0100    3.0000    0.0000 C   0  0  0  0  0  0  0  0  0  0  0  0
   -2.3090    3.7500    0.0000 N   0  0  0  0  0  0  0  0  0  0  0  0
   -2.3090    5.2500    0.0000 C   0  0  0  0  0  0  0  0  0  0  0  0
   -3.6081    3.0000    0.0000 C   0  0  0  0  0  0  0  0  0  0  0  0
  1  2  1  0  0  0  0 
  2  3  1  0  0  0  0 
  3  4  1  0  0  0  0 
  4  5  2  0  0  0  0 
  4  6  1  0  0  0  0 
  6  7  2  0  0  0  0 
  7  8  1  0  0  0  0 
  8  9  1  0  0  0  0 
  9 10  1  0  0  0  0 
 10 11  2  0  0  0  0 
 11 12  1  0  0  0  0 
 12 13  2  0  0  0  0 
 13 14  1  0  0  0  0 
 14 15  2  0  0  0  0 
 10 15  1  0  0  0  0 
  7 16  1  0  0  0  0 
 16 17  1  0  0  0  0 
 16 18  1  0  0  0  0 
 18 19  2  0  0  0  0 
  6 19  1  0  0  0  0 
 19 20  1  0  0  0  0 
 20 21  2  0  0  0  0 
 21 22  1  0  0  0  0 
 22 23  2  0  0  0  0 
 18 23  1  0  0  0  0 
 22 24  1  0  0  0  0 
 21 25  1  0  0  0  0 
 20 26  1  0  0  0  0 
 26 27  1  0  0  0  0 
 27 28  1  0  0  0  0 
 27 29  1  0  0  0  0 
M  END
> <SMILES>
CCOC(=O)c1c(CSc2ccccc2)n(C)c2cc(Br)c(O)c(CN(C)C)c12

$$$$
Molecule 28_metabolite 1
  CDK     0516241031

 58 60  0  0  0  0  0  0  0  0999 V2000
    5.5858    4.6822    0.0000 C   0  0  0  0  0  0  0  0  0  0  0  0
    6.0510    6.1082    0.0000 H   0  0  0  0  0  0  0  0  0  0  0  0
    5.6363    3.1830    0.0000 H   0  0  0  0  0  0  0  0  0  0  0  0
    7.0709    4.4716    0.0000 H   0  0  0  0  0  0  0  0  0  0  0  0
    4.1182    4.3721    0.0000 C   0  0  0  0  0  0  0  0  0  0  0  0
    4.0677    5.8712    0.0000 H   0  0  0  0  0  0  0  0  0  0  0  0
    2.6330    4.5827    0.0000 H   0  0  0  0  0  0  0  0  0  0  0  0
    3.6529    2.9461    0.0000 O   0  0  0  0  0  0  0  0  0  0  0  0
    2.1853    2.6360    0.0000 C   0  0  0  0  0  0  0  0  0  0  0  0
    1.1830    3.7520    0.0000 O   0  0  0  0  0  0  0  0  0  0  0  0
    1.7200    1.2100    0.0000 C   0  0  0  0  0  0  0  0  0  0  0  0
    2.6000   -0.0000    0.0000 C   0  0  0  0  0  0  0  0  0  0  0  0
    4.1000   -0.0000    0.0000 C   0  0  0  0  0  0  0  0  0  0  0  0
    5.5095    0.5130    0.0000 H   0  0  0  0  0  0  0  0  0  0  0  0
    3.8395    1.4772    0.0000 H   0  0  0  0  0  0  0  0  0  0  0  0
    4.8500   -1.2990    0.0000 S   0  0  0  0  0  0  0  0  0  0  0  0
    6.3500   -1.2990    0.0000 C   0  0  0  0  0  0  0  0  0  0  0  0
    7.1002   -0.0001    0.0000 C   0  0  0  0  0  0  0  0  0  0  0  0
    6.3506    1.2992    0.0000 H   0  0  0  0  0  0  0  0  0  0  0  0
    8.6010   -0.0008    0.0000 C   0  0  0  0  0  0  0  0  0  0  0  0
    9.3512    1.2981    0.0000 H   0  0  0  0  0  0  0  0  0  0  0  0
    9.3517   -1.3005    0.0000 C   0  0  0  0  0  0  0  0  0  0  0  0
   10.8517   -1.3005    0.0000 H   0  0  0  0  0  0  0  0  0  0  0  0
    8.6015   -2.5994    0.0000 C   0  0  0  0  0  0  0  0  0  0  0  0
    9.3510   -3.8987    0.0000 H   0  0  0  0  0  0  0  0  0  0  0  0
    7.1006   -2.5987    0.0000 C   0  0  0  0  0  0  0  0  0  0  0  0
    6.3504   -3.8976    0.0000 H   0  0  0  0  0  0  0  0  0  0  0  0
    1.7200   -1.2100    0.0000 N   0  0  0  0  0  0  0  0  0  0  0  0
    2.1853   -2.6360    0.0000 C   0  0  0  0  0  0  0  0  0  0  0  0
    1.1830   -3.7520    0.0000 H   0  0  0  0  0  0  0  0  0  0  0  0
    3.1102   -3.8169    0.0000 H   0  0  0  0  0  0  0  0  0  0  0  0
    3.5088   -1.9302    0.0000 H   0  0  0  0  0  0  0  0  0  0  0  0
    0.2900   -0.7500    0.0000 C   0  0  0  0  0  0  0  0  0  0  0  0
    0.2900    0.7500    0.0000 C   0  0  0  0  0  0  0  0  0  0  0  0
   -1.0100    1.5000    0.0000 C   0  0  0  0  0  0  0  0  0  0  0  0
   -2.3100    0.7500    0.0000 C   0  0  0  0  0  0  0  0  0  0  0  0
   -2.3100   -0.7500    0.0000 C   0  0  0  0  0  0  0  0  0  0  0  0
   -1.0100   -1.5000    0.0000 C   0  0  0  0  0  0  0  0  0  0  0  0
   -1.0100   -3.0000    0.0000 H   0  0  0  0  0  0  0  0  0  0  0  0
   -3.6089   -1.5002    0.0000 Br  0  0  0  0  0  0  0  0  0  0  0  0
   -3.6089    1.5002    0.0000 O   0  0  0  0  0  0  0  0  0  0  0  0
   -4.9081    0.7504    0.0000 S   0  0  0  0  0  0  0  0  0  0  0  0
   -5.8724   -0.3985    0.0000 O   0  0  0  0  0  0  0  0  0  0  0  0
   -3.9441   -0.3988    0.0000 O   0  0  0  0  0  0  0  0  0  0  0  0
   -6.2070    1.5006    0.0000 O   0  0  0  0  0  0  0  0  0  0  0  0
   -7.5062    0.7508    0.0000 H   0  0  0  0  0  0  0  0  0  0  0  0
   -1.0100    3.0000    0.0000 C   0  0  0  0  0  0  0  0  0  0  0  0
    0.4672    2.7395    0.0000 H   0  0  0  0  0  0  0  0  0  0  0  0
   -0.4970    4.4095    0.0000 H   0  0  0  0  0  0  0  0  0  0  0  0
   -2.3090    3.7500    0.0000 N   0  0  0  0  0  0  0  0  0  0  0  0
   -2.3090    5.2500    0.0000 C   0  0  0  0  0  0  0  0  0  0  0  0
   -1.0100    6.0000    0.0000 H   0  0  0  0  0  0  0  0  0  0  0  0
   -3.7862    4.9895    0.0000 H   0  0  0  0  0  0  0  0  0  0  0  0
   -2.8221    6.6595    0.0000 H   0  0  0  0  0  0  0  0  0  0  0  0
   -3.6081    3.0000    0.0000 C   0  0  0  0  0  0  0  0  0  0  0  0
   -4.9071    3.7500    0.0000 H   0  0  0  0  0  0  0  0  0  0  0  0
   -4.5723    1.8509    0.0000 H   0  0  0  0  0  0  0  0  0  0  0  0
   -2.6439    1.8509    0.0000 H   0  0  0  0  0  0  0  0  0  0  0  0
  1  2  1  0  0  0  0 
  1  3  1  0  0  0  0 
  1  4  1  0  0  0  0 
  1  5  1  0  0  0  0 
  5  6  1  0  0  0  0 
  5  7  1  0  0  0  0 
  5  8  1  0  0  0  0 
  8  9  1  0  0  0  0 
  9 10  2  0  0  0  0 
  9 11  1  0  0  0  0 
 11 12  2  0  0  0  0 
 12 13  1  0  0  0  0 
 13 14  1  0  0  0  0 
 13 15  1  0  0  0  0 
 13 16  1  0  0  0  0 
 16 17  1  0  0  0  0 
 17 18  2  0  0  0  0 
 18 19  1  0  0  0  0 
 18 20  1  0  0  0  0 
 20 21  1  0  0  0  0 
 20 22  2  0  0  0  0 
 22 23  1  0  0  0  0 
 22 24  1  0  0  0  0 
 24 25  1  0  0  0  0 
 24 26  2  0  0  0  0 
 17 26  1  0  0  0  0 
 26 27  1  0  0  0  0 
 12 28  1  0  0  0  0 
 28 29  1  0  0  0  0 
 29 30  1  0  0  0  0 
 29 31  1  0  0  0  0 
 29 32  1  0  0  0  0 
 28 33  1  0  0  0  0 
 33 34  2  0  0  0  0 
 11 34  1  0  0  0  0 
 34 35  1  0  0  0  0 
 35 36  2  0  0  0  0 
 36 37  1  0  0  0  0 
 37 38  2  0  0  0  0 
 33 38  1  0  0  0  0 
 38 39  1  0  0  0  0 
 37 40  1  0  0  0  0 
 36 41  1  0  0  0  0 
 41 42  1  0  0  0  0 
 42 43  2  0  0  0  0 
 42 44  2  0  0  0  0 
 42 45  1  0  0  0  0 
 45 46  1  0  0  0  0 
 35 47  1  0  0  0  0 
 47 48  1  0  0  0  0 
 47 49  1  0  0  0  0 
 47 50  1  0  0  0  0 
 50 51  1  0  0  0  0 
 51 52  1  0  0  0  0 
 51 53  1  0  0  0  0 
 51 54  1  0  0  0  0 
 50 55  1  0  0  0  0 
 55 56  1  0  0  0  0 
 55 57  1  0  0  0  0 
 55 58  1  0  0  0  0 
M  END
> <Rank>
1

> <Priority_score>
0.852

> <Reaction_type>
sulfation_(aromatic_hydroxyl)

> <Parent_ID>
28

> <Parent_InChI>
InChI=1S/C22H25BrN2O3S/c1-5-28-22(27)20-18(13-29-14-9-7-6-8-10-14)25(4)17-11-16(23)21(26)15(19(17)20)12-24(2)3/h6-11,26H,5,12-13H2,1-4H3

> <Parent_SMILES>
CCOC(=O)c1c(CSc2ccccc2)n(C)c2cc(Br)c(O)c(CN(C)C)c12

$$$$
Molecule 28_metabolite 2
  CDK     0516241031

 74 77  0  0  0  0  0  0  0  0999 V2000
    4.0556    8.2366    0.0000 C   0  0  0  0  0  0  0  0  0  0  0  0
    5.5231    7.9261    0.0000 H   0  0  0  0  0  0  0  0  0  0  0  0
    2.7828    9.0303    0.0000 H   0  0  0  0  0  0  0  0  0  0  0  0
    4.6162    9.6279    0.0000 H   0  0  0  0  0  0  0  0  0  0  0  0
    3.0529    7.1210    0.0000 C   0  0  0  0  0  0  0  0  0  0  0  0
    4.3257    6.3273    0.0000 H   0  0  0  0  0  0  0  0  0  0  0  0
    2.4923    5.7297    0.0000 H   0  0  0  0  0  0  0  0  0  0  0  0
    1.5854    7.4315    0.0000 O   0  0  0  0  0  0  0  0  0  0  0  0
    0.5827    6.3159    0.0000 C   0  0  0  0  0  0  0  0  0  0  0  0
    1.0475    4.8897    0.0000 O   0  0  0  0  0  0  0  0  0  0  0  0
   -1.3544    6.7258    0.0000 C   0  0  0  0  0  0  0  0  0  0  0  0
   -1.9618    8.0931    0.0000 C   0  0  0  0  0  0  0  0  0  0  0  0
   -1.2114    9.3919    0.0000 C   0  0  0  0  0  0  0  0  0  0  0  0
   -0.0620   10.3557    0.0000 H   0  0  0  0  0  0  0  0  0  0  0  0
   -0.0627    8.4273    0.0000 H   0  0  0  0  0  0  0  0  0  0  0  0
   -1.9610   10.6912    0.0000 S   0  0  0  0  0  0  0  0  0  0  0  0
   -1.2106   11.9900    0.0000 C   0  0  0  0  0  0  0  0  0  0  0  0
    0.2894   11.9897    0.0000 C   0  0  0  0  0  0  0  0  0  0  0  0
    1.0394   10.6907    0.0000 H   0  0  0  0  0  0  0  0  0  0  0  0
    1.0396   13.2896    0.0000 C   0  0  0  0  0  0  0  0  0  0  0  0
    2.5396   13.2894    0.0000 H   0  0  0  0  0  0  0  0  0  0  0  0
    0.2898   14.5897    0.0000 C   0  0  0  0  0  0  0  0  0  0  0  0
    1.0402   15.8885    0.0000 H   0  0  0  0  0  0  0  0  0  0  0  0
   -1.2102   14.5900    0.0000 C   0  0  0  0  0  0  0  0  0  0  0  0
   -1.9602   15.8890    0.0000 H   0  0  0  0  0  0  0  0  0  0  0  0
   -1.9604   13.2901    0.0000 C   0  0  0  0  0  0  0  0  0  0  0  0
   -3.4604   13.2903    0.0000 H   0  0  0  0  0  0  0  0  0  0  0  0
   -3.4498    7.9365    0.0000 N   0  0  0  0  0  0  0  0  0  0  0  0
   -4.4517    9.0527    0.0000 C   0  0  0  0  0  0  0  0  0  0  0  0
   -5.9194    8.7431    0.0000 H   0  0  0  0  0  0  0  0  0  0  0  0
   -5.0115   10.4444    0.0000 H   0  0  0  0  0  0  0  0  0  0  0  0
   -3.1784    9.8456    0.0000 H   0  0  0  0  0  0  0  0  0  0  0  0
   -3.7669    6.4682    0.0000 C   0  0  0  0  0  0  0  0  0  0  0  0
   -2.4681    5.7177    0.0000 C   0  0  0  0  0  0  0  0  0  0  0  0
   -2.4690    4.2169    0.0000 C   0  0  0  0  0  0  0  0  0  0  0  0
   -3.7688    3.4665    0.0000 C   0  0  0  0  0  0  0  0  0  0  0  0
   -5.0676    4.2169    0.0000 C   0  0  0  0  0  0  0  0  0  0  0  0
   -5.0666    5.7177    0.0000 C   0  0  0  0  0  0  0  0  0  0  0  0
   -6.3654    6.4682    0.0000 H   0  0  0  0  0  0  0  0  0  0  0  0
   -6.3670    3.4675    0.0000 Br  0  0  0  0  0  0  0  0  0  0  0  0
   -3.7690    1.9665    0.0000 O   0  0  0  0  0  0  0  0  0  0  0  0
   -5.0682    1.2167    0.0000 C   0  0  0  0  0  0  0  0  0  0  0  0
   -5.5842    2.6251    0.0000 H   0  0  0  0  0  0  0  0  0  0  0  0
   -4.1133    0.0729    0.0000 C   0  0  0  0  0  0  0  0  0  0  0  0
   -2.8167   -0.6813    0.0000 H   0  0  0  0  0  0  0  0  0  0  0  0
   -4.6394   -1.3564    0.0000 C   0  0  0  0  0  0  0  0  0  0  0  0
   -4.6492   -2.8564    0.0000 H   0  0  0  0  0  0  0  0  0  0  0  0
   -6.1244   -1.6062    0.0000 C   0  0  0  0  0  0  0  0  0  0  0  0
   -7.4267   -2.3507    0.0000 H   0  0  0  0  0  0  0  0  0  0  0  0
   -7.0794   -0.4625    0.0000 C   0  0  0  0  0  0  0  0  0  0  0  0
   -8.3764    0.2910    0.0000 H   0  0  0  0  0  0  0  0  0  0  0  0
   -8.3560   -1.9760    0.0000 C   0  0  0  0  0  0  0  0  0  0  0  0
   -7.8466   -3.3868    0.0000 O   0  0  0  0  0  0  0  0  0  0  0  0
   -9.8325   -1.7117    0.0000 O   0  0  0  0  0  0  0  0  0  0  0  0
  -10.7996   -2.8583    0.0000 H   0  0  0  0  0  0  0  0  0  0  0  0
   -6.5621    0.9464    0.0000 O   0  0  0  0  0  0  0  0  0  0  0  0
   -5.6200   -3.0189    0.0000 O   0  0  0  0  0  0  0  0  0  0  0  0
   -6.5911   -4.1620    0.0000 H   0  0  0  0  0  0  0  0  0  0  0  0
   -3.1636   -1.6244    0.0000 O   0  0  0  0  0  0  0  0  0  0  0  0
   -2.6577   -3.0365    0.0000 H   0  0  0  0  0  0  0  0  0  0  0  0
   -3.1458    1.2192    0.0000 O   0  0  0  0  0  0  0  0  0  0  0  0
   -1.6693    0.9545    0.0000 H   0  0  0  0  0  0  0  0  0  0  0  0
   -1.1702    3.4665    0.0000 C   0  0  0  0  0  0  0  0  0  0  0  0
   -2.1348    2.3177    0.0000 H   0  0  0  0  0  0  0  0  0  0  0  0
   -0.2064    2.3171    0.0000 H   0  0  0  0  0  0  0  0  0  0  0  0
    0.1290    4.2161    0.0000 N   0  0  0  0  0  0  0  0  0  0  0  0
    1.4278    3.4657    0.0000 C   0  0  0  0  0  0  0  0  0  0  0  0
    1.4274    1.9657    0.0000 H   0  0  0  0  0  0  0  0  0  0  0  0
    1.9413    4.8750    0.0000 H   0  0  0  0  0  0  0  0  0  0  0  0
    2.9050    3.2047    0.0000 H   0  0  0  0  0  0  0  0  0  0  0  0
    0.1295    5.7161    0.0000 C   0  0  0  0  0  0  0  0  0  0  0  0
    1.4288    6.4657    0.0000 H   0  0  0  0  0  0  0  0  0  0  0  0
   -0.3831    7.1258    0.0000 H   0  0  0  0  0  0  0  0  0  0  0  0
   -1.3478    5.4561    0.0000 H   0  0  0  0  0  0  0  0  0  0  0  0
  1  2  1  0  0  0  0 
  1  3  1  0  0  0  0 
  1  4  1  0  0  0  0 
  1  5  1  0  0  0  0 
  5  6  1  0  0  0  0 
  5  7  1  0  0  0  0 
  5  8  1  0  0  0  0 
  8  9  1  0  0  0  0 
  9 10  2  0  0  0  0 
  9 11  1  0  0  0  0 
 11 12  2  0  0  0  0 
 12 13  1  0  0  0  0 
 13 14  1  0  0  0  0 
 13 15  1  0  0  0  0 
 13 16  1  0  0  0  0 
 16 17  1  0  0  0  0 
 17 18  2  0  0  0  0 
 18 19  1  0  0  0  0 
 18 20  1  0  0  0  0 
 20 21  1  0  0  0  0 
 20 22  2  0  0  0  0 
 22 23  1  0  0  0  0 
 22 24  1  0  0  0  0 
 24 25  1  0  0  0  0 
 24 26  2  0  0  0  0 
 17 26  1  0  0  0  0 
 26 27  1  0  0  0  0 
 12 28  1  0  0  0  0 
 28 29  1  0  0  0  0 
 29 30  1  0  0  0  0 
 29 31  1  0  0  0  0 
 29 32  1  0  0  0  0 
 28 33  1  0  0  0  0 
 33 34  2  0  0  0  0 
 11 34  1  0  0  0  0 
 34 35  1  0  0  0  0 
 35 36  2  0  0  0  0 
 36 37  1  0  0  0  0 
 37 38  2  0  0  0  0 
 33 38  1  0  0  0  0 
 38 39  1  0  0  0  0 
 37 40  1  0  0  0  0 
 36 41  1  0  0  0  0 
 41 42  1  0  0  0  0 
 42 43  1  0  0  0  0 
 42 44  1  0  0  0  0 
 44 45  1  0  0  0  0 
 44 46  1  0  0  0  0 
 46 47  1  0  0  0  0 
 46 48  1  0  0  0  0 
 48 49  1  0  0  0  0 
 48 50  1  0  0  0  0 
 50 51  1  0  0  0  0 
 50 52  1  0  0  0  0 
 52 53  2  0  0  0  0 
 52 54  1  0  0  0  0 
 54 55  1  0  0  0  0 
 50 56  1  0  0  0  0 
 42 56  1  0  0  0  0 
 48 57  1  0  0  0  0 
 57 58  1  0  0  0  0 
 46 59  1  0  0  0  0 
 59 60  1  0  0  0  0 
 44 61  1  0  0  0  0 
 61 62  1  0  0  0  0 
 35 63  1  0  0  0  0 
 63 64  1  0  0  0  0 
 63 65  1  0  0  0  0 
 63 66  1  0  0  0  0 
 66 67  1  0  0  0  0 
 67 68  1  0  0  0  0 
 67 69  1  0  0  0  0 
 67 70  1  0  0  0  0 
 66 71  1  0  0  0  0 
 71 72  1  0  0  0  0 
 71 73  1  0  0  0  0 
 71 74  1  0  0  0  0 
M  END
> <Rank>
2

> <Priority_score>
0.7957594493963669

> <Reaction_type>
O-glucuronidation_(aromatic_hydroxyl)

> <Parent_ID>
28

> <Parent_InChI>
InChI=1S/C22H25BrN2O3S/c1-5-28-22(27)20-18(13-29-14-9-7-6-8-10-14)25(4)17-11-16(23)21(26)15(19(17)20)12-24(2)3/h6-11,26H,5,12-13H2,1-4H3

> <Parent_SMILES>
CCOC(=O)c1c(CSc2ccccc2)n(C)c2cc(Br)c(O)c(CN(C)C)c12

$$$$
Molecule 28_metabolite 3
  CDK     0516241031

 51 53  0  0  0  0  0  0  0  0999 V2000
    5.5858    4.6822    0.0000 C   0  0  0  0  0  0  0  0  0  0  0  0
    6.0510    6.1082    0.0000 H   0  0  0  0  0  0  0  0  0  0  0  0
    5.6363    3.1830    0.0000 H   0  0  0  0  0  0  0  0  0  0  0  0
    7.0709    4.4716    0.0000 H   0  0  0  0  0  0  0  0  0  0  0  0
    4.1182    4.3721    0.0000 C   0  0  0  0  0  0  0  0  0  0  0  0
    4.0677    5.8712    0.0000 H   0  0  0  0  0  0  0  0  0  0  0  0
    2.6330    4.5827    0.0000 H   0  0  0  0  0  0  0  0  0  0  0  0
    3.6529    2.9461    0.0000 O   0  0  0  0  0  0  0  0  0  0  0  0
    2.1853    2.6360    0.0000 C   0  0  0  0  0  0  0  0  0  0  0  0
    1.1830    3.7520    0.0000 O   0  0  0  0  0  0  0  0  0  0  0  0
    1.7200    1.2100    0.0000 C   0  0  0  0  0  0  0  0  0  0  0  0
    2.6000   -0.0000    0.0000 C   0  0  0  0  0  0  0  0  0  0  0  0
    4.1000   -0.0000    0.0000 C   0  0  0  0  0  0  0  0  0  0  0  0
    5.5095    0.5130    0.0000 H   0  0  0  0  0  0  0  0  0  0  0  0
    3.8395    1.4772    0.0000 H   0  0  0  0  0  0  0  0  0  0  0  0
    4.8500   -1.2990    0.0000 S   0  0  0  0  0  0  0  0  0  0  0  0
    6.3500   -1.2990    0.0000 C   0  0  0  0  0  0  0  0  0  0  0  0
    7.1002   -0.0001    0.0000 C   0  0  0  0  0  0  0  0  0  0  0  0
    6.3506    1.2992    0.0000 H   0  0  0  0  0  0  0  0  0  0  0  0
    8.6010   -0.0008    0.0000 C   0  0  0  0  0  0  0  0  0  0  0  0
    9.3512    1.2981    0.0000 H   0  0  0  0  0  0  0  0  0  0  0  0
    9.3517   -1.3005    0.0000 C   0  0  0  0  0  0  0  0  0  0  0  0
   10.8517   -1.3005    0.0000 H   0  0  0  0  0  0  0  0  0  0  0  0
    8.6015   -2.5994    0.0000 C   0  0  0  0  0  0  0  0  0  0  0  0
    9.3510   -3.8987    0.0000 H   0  0  0  0  0  0  0  0  0  0  0  0
    7.1006   -2.5987    0.0000 C   0  0  0  0  0  0  0  0  0  0  0  0
    6.3504   -3.8976    0.0000 H   0  0  0  0  0  0  0  0  0  0  0  0
    1.7200   -1.2100    0.0000 N   0  0  0  0  0  0  0  0  0  0  0  0
    2.1853   -2.6360    0.0000 C   0  0  0  0  0  0  0  0  0  0  0  0
    1.1830   -3.7520    0.0000 H   0  0  0  0  0  0  0  0  0  0  0  0
    3.1102   -3.8169    0.0000 H   0  0  0  0  0  0  0  0  0  0  0  0
    3.5088   -1.9302    0.0000 H   0  0  0  0  0  0  0  0  0  0  0  0
    0.2900   -0.7500    0.0000 C   0  0  0  0  0  0  0  0  0  0  0  0
    0.2900    0.7500    0.0000 C   0  0  0  0  0  0  0  0  0  0  0  0
   -1.0100    1.5000    0.0000 C   0  0  0  0  0  0  0  0  0  0  0  0
   -2.3100    0.7500    0.0000 C   0  0  0  0  0  0  0  0  0  0  0  0
   -2.3100   -0.7500    0.0000 C   0  0  0  0  0  0  0  0  0  0  0  0
   -1.0100   -1.5000    0.0000 C   0  0  0  0  0  0  0  0  0  0  0  0
   -1.0100   -3.0000    0.0000 H   0  0  0  0  0  0  0  0  0  0  0  0
   -3.6089   -1.5002    0.0000 Br  0  0  0  0  0  0  0  0  0  0  0  0
   -3.6089    1.5002    0.0000 O   0  0  0  0  0  0  0  0  0  0  0  0
   -4.9081    0.7504    0.0000 H   0  0  0  0  0  0  0  0  0  0  0  0
   -1.0100    3.0000    0.0000 C   0  0  0  0  0  0  0  0  0  0  0  0
    0.4672    2.7395    0.0000 H   0  0  0  0  0  0  0  0  0  0  0  0
   -0.4970    4.4095    0.0000 H   0  0  0  0  0  0  0  0  0  0  0  0
   -2.3090    3.7500    0.0000 N   0  0  0  0  0  0  0  0  0  0  0  0
   -3.6081    3.0000    0.0000 H   0  0  0  0  0  0  0  0  0  0  0  0
   -2.3090    5.2500    0.0000 C   0  0  0  0  0  0  0  0  0  0  0  0
   -1.0100    6.0000    0.0000 H   0  0  0  0  0  0  0  0  0  0  0  0
   -3.7862    4.9895    0.0000 H   0  0  0  0  0  0  0  0  0  0  0  0
   -2.8221    6.6595    0.0000 H   0  0  0  0  0  0  0  0  0  0  0  0
  1  2  1  0  0  0  0 
  1  3  1  0  0  0  0 
  1  4  1  0  0  0  0 
  1  5  1  0  0  0  0 
  5  6  1  0  0  0  0 
  5  7  1  0  0  0  0 
  5  8  1  0  0  0  0 
  8  9  1  0  0  0  0 
  9 10  2  0  0  0  0 
  9 11  1  0  0  0  0 
 11 12  2  0  0  0  0 
 12 13  1  0  0  0  0 
 13 14  1  0  0  0  0 
 13 15  1  0  0  0  0 
 13 16  1  0  0  0  0 
 16 17  1  0  0  0  0 
 17 18  2  0  0  0  0 
 18 19  1  0  0  0  0 
 18 20  1  0  0  0  0 
 20 21  1  0  0  0  0 
 20 22  2  0  0  0  0 
 22 23  1  0  0  0  0 
 22 24  1  0  0  0  0 
 24 25  1  0  0  0  0 
 24 26  2  0  0  0  0 
 17 26  1  0  0  0  0 
 26 27  1  0  0  0  0 
 12 28  1  0  0  0  0 
 28 29  1  0  0  0  0 
 29 30  1  0  0  0  0 
 29 31  1  0  0  0  0 
 29 32  1  0  0  0  0 
 28 33  1  0  0  0  0 
 33 34  2  0  0  0  0 
 11 34  1  0  0  0  0 
 34 35  1  0  0  0  0 
 35 36  2  0  0  0  0 
 36 37  1  0  0  0  0 
 37 38  2  0  0  0  0 
 33 38  1  0  0  0  0 
 38 39  1  0  0  0  0 
 37 40  1  0  0  0  0 
 36 41  1  0  0  0  0 
 41 42  1  0  0  0  0 
 35 43  1  0  0  0  0 
 43 44  1  0  0  0  0 
 43 45  1  0  0  0  0 
 43 46  1  0  0  0  0 
 46 47  1  0  0  0  0 
 46 48  1  0  0  0  0 
 48 49  1  0  0  0  0 
 48 50  1  0  0  0  0 
 48 51  1  0  0  0  0 
M  END
> <Rank>
3

> <Priority_score>
0.5715317435738618

> <Reaction_type>
N-demethylation_(R-N(CH3)2)

> <Parent_ID>
28

> <Parent_InChI>
InChI=1S/C22H25BrN2O3S/c1-5-28-22(27)20-18(13-29-14-9-7-6-8-10-14)25(4)17-11-16(23)21(26)15(19(17)20)12-24(2)3/h6-11,26H,5,12-13H2,1-4H3

> <Parent_SMILES>
CCOC(=O)c1c(CSc2ccccc2)n(C)c2cc(Br)c(O)c(CN(C)C)c12

$$$$
Molecule 28_metabolite 4
  CDK     0516241031

 55 57  0  0  0  0  0  0  0  0999 V2000
    5.5858    4.6822    0.0000 C   0  0  0  0  0  0  0  0  0  0  0  0
    6.0510    6.1082    0.0000 H   0  0  0  0  0  0  0  0  0  0  0  0
    5.6363    3.1830    0.0000 H   0  0  0  0  0  0  0  0  0  0  0  0
    7.0709    4.4716    0.0000 H   0  0  0  0  0  0  0  0  0  0  0  0
    4.1182    4.3721    0.0000 C   0  0  0  0  0  0  0  0  0  0  0  0
    4.0677    5.8712    0.0000 H   0  0  0  0  0  0  0  0  0  0  0  0
    2.6330    4.5827    0.0000 H   0  0  0  0  0  0  0  0  0  0  0  0
    3.6529    2.9461    0.0000 O   0  0  0  0  0  0  0  0  0  0  0  0
    2.1853    2.6360    0.0000 C   0  0  0  0  0  0  0  0  0  0  0  0
    1.1830    3.7520    0.0000 O   0  0  0  0  0  0  0  0  0  0  0  0
    1.7200    1.2100    0.0000 C   0  0  0  0  0  0  0  0  0  0  0  0
    2.6000   -0.0000    0.0000 C   0  0  0  0  0  0  0  0  0  0  0  0
    4.1000   -0.0000    0.0000 C   0  0  0  0  0  0  0  0  0  0  0  0
    5.5095    0.5130    0.0000 H   0  0  0  0  0  0  0  0  0  0  0  0
    3.8395    1.4772    0.0000 H   0  0  0  0  0  0  0  0  0  0  0  0
    4.8500   -1.2990    0.0000 S   0  0  0  0  0  0  0  0  0  0  0  0
    6.3500   -1.2990    0.0000 C   0  0  0  0  0  0  0  0  0  0  0  0
    7.1002   -0.0001    0.0000 C   0  0  0  0  0  0  0  0  0  0  0  0
    6.3506    1.2992    0.0000 H   0  0  0  0  0  0  0  0  0  0  0  0
    8.6010   -0.0008    0.0000 C   0  0  0  0  0  0  0  0  0  0  0  0
    9.3512    1.2981    0.0000 H   0  0  0  0  0  0  0  0  0  0  0  0
    9.3517   -1.3005    0.0000 C   0  0  0  0  0  0  0  0  0  0  0  0
   10.8517   -1.3005    0.0000 H   0  0  0  0  0  0  0  0  0  0  0  0
    8.6015   -2.5994    0.0000 C   0  0  0  0  0  0  0  0  0  0  0  0
    9.3510   -3.8987    0.0000 H   0  0  0  0  0  0  0  0  0  0  0  0
    7.1006   -2.5987    0.0000 C   0  0  0  0  0  0  0  0  0  0  0  0
    6.3504   -3.8976    0.0000 H   0  0  0  0  0  0  0  0  0  0  0  0
    1.7200   -1.2100    0.0000 N   0  0  0  0  0  0  0  0  0  0  0  0
    2.1853   -2.6360    0.0000 C   0  0  0  0  0  0  0  0  0  0  0  0
    1.1830   -3.7520    0.0000 H   0  0  0  0  0  0  0  0  0  0  0  0
    3.1102   -3.8169    0.0000 H   0  0  0  0  0  0  0  0  0  0  0  0
    3.5088   -1.9302    0.0000 H   0  0  0  0  0  0  0  0  0  0  0  0
    0.2900   -0.7500    0.0000 C   0  0  0  0  0  0  0  0  0  0  0  0
    0.2900    0.7500    0.0000 C   0  0  0  0  0  0  0  0  0  0  0  0
   -1.0100    1.5000    0.0000 C   0  0  0  0  0  0  0  0  0  0  0  0
   -2.3100    0.7500    0.0000 C   0  0  0  0  0  0  0  0  0  0  0  0
   -2.3100   -0.7500    0.0000 C   0  0  0  0  0  0  0  0  0  0  0  0
   -1.0100   -1.5000    0.0000 C   0  0  0  0  0  0  0  0  0  0  0  0
   -1.0100   -3.0000    0.0000 H   0  0  0  0  0  0  0  0  0  0  0  0
   -3.6089   -1.5002    0.0000 Br  0  0  0  0  0  0  0  0  0  0  0  0
   -3.6089    1.5002    0.0000 O   0  0  0  0  0  0  0  0  0  0  0  0
   -4.9081    0.7504    0.0000 H   0  0  0  0  0  0  0  0  0  0  0  0
   -1.0100    3.0000    0.0000 C   0  0  0  0  0  0  0  0  0  0  0  0
    0.4672    2.7395    0.0000 H   0  0  0  0  0  0  0  0  0  0  0  0
   -0.4970    4.4095    0.0000 H   0  0  0  0  0  0  0  0  0  0  0  0
   -2.3090    3.7500    0.0000 N   0  0  0  0  0  0  0  0  0  0  0  0
   -3.6081    3.0000    0.0000 C   0  0  0  0  0  0  0  0  0  0  0  0
   -4.9071    3.7500    0.0000 H   0  0  0  0  0  0  0  0  0  0  0  0
   -4.5723    1.8509    0.0000 H   0  0  0  0  0  0  0  0  0  0  0  0
   -2.6439    1.8509    0.0000 H   0  0  0  0  0  0  0  0  0  0  0  0
   -2.3090    5.2500    0.0000 C   0  0  0  0  0  0  0  0  0  0  0  0
   -3.7862    4.9895    0.0000 H   0  0  0  0  0  0  0  0  0  0  0  0
   -2.8221    6.6595    0.0000 H   0  0  0  0  0  0  0  0  0  0  0  0
   -1.0100    6.0000    0.0000 O   0  0  0  0  0  0  0  0  0  0  0  0
   -1.0100    7.5000    0.0000 H   0  0  0  0  0  0  0  0  0  0  0  0
  1  2  1  0  0  0  0 
  1  3  1  0  0  0  0 
  1  4  1  0  0  0  0 
  1  5  1  0  0  0  0 
  5  6  1  0  0  0  0 
  5  7  1  0  0  0  0 
  5  8  1  0  0  0  0 
  8  9  1  0  0  0  0 
  9 10  2  0  0  0  0 
  9 11  1  0  0  0  0 
 11 12  2  0  0  0  0 
 12 13  1  0  0  0  0 
 13 14  1  0  0  0  0 
 13 15  1  0  0  0  0 
 13 16  1  0  0  0  0 
 16 17  1  0  0  0  0 
 17 18  2  0  0  0  0 
 18 19  1  0  0  0  0 
 18 20  1  0  0  0  0 
 20 21  1  0  0  0  0 
 20 22  2  0  0  0  0 
 22 23  1  0  0  0  0 
 22 24  1  0  0  0  0 
 24 25  1  0  0  0  0 
 24 26  2  0  0  0  0 
 17 26  1  0  0  0  0 
 26 27  1  0  0  0  0 
 12 28  1  0  0  0  0 
 28 29  1  0  0  0  0 
 29 30  1  0  0  0  0 
 29 31  1  0  0  0  0 
 29 32  1  0  0  0  0 
 28 33  1  0  0  0  0 
 33 34  2  0  0  0  0 
 11 34  1  0  0  0  0 
 34 35  1  0  0  0  0 
 35 36  2  0  0  0  0 
 36 37  1  0  0  0  0 
 37 38  2  0  0  0  0 
 33 38  1  0  0  0  0 
 38 39  1  0  0  0  0 
 37 40  1  0  0  0  0 
 36 41  1  0  0  0  0 
 41 42  1  0  0  0  0 
 35 43  1  0  0  0  0 
 43 44  1  0  0  0  0 
 43 45  1  0  0  0  0 
 43 46  1  0  0  0  0 
 46 47  1  0  0  0  0 
 47 48  1  0  0  0  0 
 47 49  1  0  0  0  0 
 47 50  1  0  0  0  0 
 46 51  1  0  0  0  0 
 51 52  1  0  0  0  0 
 51 53  1  0  0  0  0 
 51 54  1  0  0  0  0 
 54 55  1  0  0  0  0 
M  END
> <Rank>
3

> <Priority_score>
0.5715317435738618

> <Reaction_type>
aliphatic hydroxylation

> <Parent_ID>
28

> <Parent_InChI>
InChI=1S/C22H25BrN2O3S/c1-5-28-22(27)20-18(13-29-14-9-7-6-8-10-14)25(4)17-11-16(23)21(26)15(19(17)20)12-24(2)3/h6-11,26H,5,12-13H2,1-4H3

> <Parent_SMILES>
CCOC(=O)c1c(CSc2ccccc2)n(C)c2cc(Br)c(O)c(CN(C)C)c12

$$$$
Molecule 28_metabolite 5
  CDK     0516241031

 55 57  0  0  0  0  0  0  0  0999 V2000
    5.5858    4.6822    0.0000 C   0  0  0  0  0  0  0  0  0  0  0  0
    6.0510    6.1082    0.0000 H   0  0  0  0  0  0  0  0  0  0  0  0
    5.6363    3.1830    0.0000 H   0  0  0  0  0  0  0  0  0  0  0  0
    7.0709    4.4716    0.0000 H   0  0  0  0  0  0  0  0  0  0  0  0
    4.1182    4.3721    0.0000 C   0  0  0  0  0  0  0  0  0  0  0  0
    4.0677    5.8712    0.0000 H   0  0  0  0  0  0  0  0  0  0  0  0
    2.6330    4.5827    0.0000 H   0  0  0  0  0  0  0  0  0  0  0  0
    3.6529    2.9461    0.0000 O   0  0  0  0  0  0  0  0  0  0  0  0
    2.1853    2.6360    0.0000 C   0  0  0  0  0  0  0  0  0  0  0  0
    1.1830    3.7520    0.0000 O   0  0  0  0  0  0  0  0  0  0  0  0
    1.7200    1.2100    0.0000 C   0  0  0  0  0  0  0  0  0  0  0  0
    2.6000   -0.0000    0.0000 C   0  0  0  0  0  0  0  0  0  0  0  0
    4.1000   -0.0000    0.0000 C   0  0  0  0  0  0  0  0  0  0  0  0
    5.5095    0.5130    0.0000 H   0  0  0  0  0  0  0  0  0  0  0  0
    3.8395    1.4772    0.0000 H   0  0  0  0  0  0  0  0  0  0  0  0
    4.8500   -1.2990    0.0000 S   0  0  0  0  0  0  0  0  0  0  0  0
    6.3500   -1.2990    0.0000 C   0  0  0  0  0  0  0  0  0  0  0  0
    7.1002   -0.0001    0.0000 C   0  0  0  0  0  0  0  0  0  0  0  0
    6.3506    1.2992    0.0000 H   0  0  0  0  0  0  0  0  0  0  0  0
    8.6010   -0.0008    0.0000 C   0  0  0  0  0  0  0  0  0  0  0  0
    9.3512    1.2981    0.0000 H   0  0  0  0  0  0  0  0  0  0  0  0
    9.3517   -1.3005    0.0000 C   0  0  0  0  0  0  0  0  0  0  0  0
   10.8517   -1.3005    0.0000 H   0  0  0  0  0  0  0  0  0  0  0  0
    8.6015   -2.5994    0.0000 C   0  0  0  0  0  0  0  0  0  0  0  0
    9.3510   -3.8987    0.0000 H   0  0  0  0  0  0  0  0  0  0  0  0
    7.1006   -2.5987    0.0000 C   0  0  0  0  0  0  0  0  0  0  0  0
    6.3504   -3.8976    0.0000 H   0  0  0  0  0  0  0  0  0  0  0  0
    1.7200   -1.2100    0.0000 N   0  0  0  0  0  0  0  0  0  0  0  0
    2.1853   -2.6360    0.0000 C   0  0  0  0  0  0  0  0  0  0  0  0
    1.1830   -3.7520    0.0000 H   0  0  0  0  0  0  0  0  0  0  0  0
    3.1102   -3.8169    0.0000 H   0  0  0  0  0  0  0  0  0  0  0  0
    3.5088   -1.9302    0.0000 H   0  0  0  0  0  0  0  0  0  0  0  0
    0.2900   -0.7500    0.0000 C   0  0  0  0  0  0  0  0  0  0  0  0
    0.2900    0.7500    0.0000 C   0  0  0  0  0  0  0  0  0  0  0  0
   -1.0100    1.5000    0.0000 C   0  0  0  0  0  0  0  0  0  0  0  0
   -2.3100    0.7500    0.0000 C   0  0  0  0  0  0  0  0  0  0  0  0
   -2.3100   -0.7500    0.0000 C   0  0  0  0  0  0  0  0  0  0  0  0
   -1.0100   -1.5000    0.0000 C   0  0  0  0  0  0  0  0  0  0  0  0
   -1.0100   -3.0000    0.0000 H   0  0  0  0  0  0  0  0  0  0  0  0
   -3.6089   -1.5002    0.0000 Br  0  0  0  0  0  0  0  0  0  0  0  0
   -3.6089    1.5002    0.0000 O   0  0  0  0  0  0  0  0  0  0  0  0
   -4.9081    0.7504    0.0000 H   0  0  0  0  0  0  0  0  0  0  0  0
   -1.0100    3.0000    0.0000 C   0  0  0  0  0  0  0  0  0  0  0  0
    0.4672    2.7395    0.0000 H   0  0  0  0  0  0  0  0  0  0  0  0
   -0.4970    4.4095    0.0000 H   0  0  0  0  0  0  0  0  0  0  0  0
   -2.7247    3.9900    0.0000 N   0  0  0  0  0  0  0  0  0  0  0  0
   -2.7247    5.4900    0.0000 C   0  0  0  0  0  0  0  0  0  0  0  0
   -4.0238    6.2400    0.0000 H   0  0  0  0  0  0  0  0  0  0  0  0
   -1.2475    5.2295    0.0000 H   0  0  0  0  0  0  0  0  0  0  0  0
   -2.2117    6.8995    0.0000 H   0  0  0  0  0  0  0  0  0  0  0  0
   -4.2019    4.2505    0.0000 C   0  0  0  0  0  0  0  0  0  0  0  0
   -4.7150    5.6600    0.0000 H   0  0  0  0  0  0  0  0  0  0  0  0
   -5.6792    3.9900    0.0000 H   0  0  0  0  0  0  0  0  0  0  0  0
   -4.2019    2.7505    0.0000 H   0  0  0  0  0  0  0  0  0  0  0  0
   -3.2378    2.5805    0.0000 O   0  0  0  0  0  0  0  0  0  0  0  0
  1  2  1  0  0  0  0 
  1  3  1  0  0  0  0 
  1  4  1  0  0  0  0 
  1  5  1  0  0  0  0 
  5  6  1  0  0  0  0 
  5  7  1  0  0  0  0 
  5  8  1  0  0  0  0 
  8  9  1  0  0  0  0 
  9 10  2  0  0  0  0 
  9 11  1  0  0  0  0 
 11 12  2  0  0  0  0 
 12 13  1  0  0  0  0 
 13 14  1  0  0  0  0 
 13 15  1  0  0  0  0 
 13 16  1  0  0  0  0 
 16 17  1  0  0  0  0 
 17 18  2  0  0  0  0 
 18 19  1  0  0  0  0 
 18 20  1  0  0  0  0 
 20 21  1  0  0  0  0 
 20 22  2  0  0  0  0 
 22 23  1  0  0  0  0 
 22 24  1  0  0  0  0 
 24 25  1  0  0  0  0 
 24 26  2  0  0  0  0 
 17 26  1  0  0  0  0 
 26 27  1  0  0  0  0 
 12 28  1  0  0  0  0 
 28 29  1  0  0  0  0 
 29 30  1  0  0  0  0 
 29 31  1  0  0  0  0 
 29 32  1  0  0  0  0 
 28 33  1  0  0  0  0 
 33 34  2  0  0  0  0 
 11 34  1  0  0  0  0 
 34 35  1  0  0  0  0 
 35 36  2  0  0  0  0 
 36 37  1  0  0  0  0 
 37 38  2  0  0  0  0 
 33 38  1  0  0  0  0 
 38 39  1  0  0  0  0 
 37 40  1  0  0  0  0 
 36 41  1  0  0  0  0 
 41 42  1  0  0  0  0 
 35 43  1  0  0  0  0 
 43 44  1  0  0  0  0 
 43 45  1  0  0  0  0 
 43 46  1  0  0  0  0 
 46 47  1  0  0  0  0 
 47 48  1  0  0  0  0 
 47 49  1  0  0  0  0 
 47 50  1  0  0  0  0 
 46 51  1  0  0  0  0 
 51 52  1  0  0  0  0 
 51 53  1  0  0  0  0 
 51 54  1  0  0  0  0 
 46 55  1  0  0  0  0 
M  CHG  1  46   1
M  CHG  1  55  -1
M  END
> <Rank>
3

> <Priority_score>
0.5715317435738618

> <Reaction_type>
N-oxidation_(RN(CH3)2)

> <Parent_ID>
28

> <Parent_InChI>
InChI=1S/C22H25BrN2O3S/c1-5-28-22(27)20-18(13-29-14-9-7-6-8-10-14)25(4)17-11-16(23)21(26)15(19(17)20)12-24(2)3/h6-11,26H,5,12-13H2,1-4H3

> <Parent_SMILES>
CCOC(=O)c1c(CSc2ccccc2)n(C)c2cc(Br)c(O)c(CN(C)C)c12

$$$$
Molecule 28_metabolite 6
  CDK     0516241031

 57 59  0  0  0  0  0  0  0  0999 V2000
    5.5858    4.6822    0.0000 C   0  0  0  0  0  0  0  0  0  0  0  0
    6.0510    6.1082    0.0000 H   0  0  0  0  0  0  0  0  0  0  0  0
    5.6363    3.1830    0.0000 H   0  0  0  0  0  0  0  0  0  0  0  0
    7.0709    4.4716    0.0000 H   0  0  0  0  0  0  0  0  0  0  0  0
    4.1182    4.3721    0.0000 C   0  0  0  0  0  0  0  0  0  0  0  0
    4.0677    5.8712    0.0000 H   0  0  0  0  0  0  0  0  0  0  0  0
    2.6330    4.5827    0.0000 H   0  0  0  0  0  0  0  0  0  0  0  0
    3.6529    2.9461    0.0000 O   0  0  0  0  0  0  0  0  0  0  0  0
    2.1853    2.6360    0.0000 C   0  0  0  0  0  0  0  0  0  0  0  0
    1.1830    3.7520    0.0000 O   0  0  0  0  0  0  0  0  0  0  0  0
    1.7200    1.2100    0.0000 C   0  0  0  0  0  0  0  0  0  0  0  0
    2.6000   -0.0000    0.0000 C   0  0  0  0  0  0  0  0  0  0  0  0
    4.1000   -0.0000    0.0000 C   0  0  0  0  0  0  0  0  0  0  0  0
    5.5095    0.5130    0.0000 H   0  0  0  0  0  0  0  0  0  0  0  0
    3.8395    1.4772    0.0000 H   0  0  0  0  0  0  0  0  0  0  0  0
    4.8500   -1.2990    0.0000 S   0  0  0  0  0  0  0  0  0  0  0  0
    6.3500   -1.2990    0.0000 C   0  0  0  0  0  0  0  0  0  0  0  0
    7.1002   -0.0001    0.0000 C   0  0  0  0  0  0  0  0  0  0  0  0
    6.3506    1.2992    0.0000 H   0  0  0  0  0  0  0  0  0  0  0  0
    8.6010   -0.0008    0.0000 C   0  0  0  0  0  0  0  0  0  0  0  0
    9.3512    1.2981    0.0000 H   0  0  0  0  0  0  0  0  0  0  0  0
    9.3517   -1.3005    0.0000 C   0  0  0  0  0  0  0  0  0  0  0  0
   10.8517   -1.3005    0.0000 H   0  0  0  0  0  0  0  0  0  0  0  0
    8.6015   -2.5994    0.0000 C   0  0  0  0  0  0  0  0  0  0  0  0
    9.3510   -3.8987    0.0000 H   0  0  0  0  0  0  0  0  0  0  0  0
    7.1006   -2.5987    0.0000 C   0  0  0  0  0  0  0  0  0  0  0  0
    6.3504   -3.8976    0.0000 H   0  0  0  0  0  0  0  0  0  0  0  0
    1.7200   -1.2100    0.0000 N   0  0  0  0  0  0  0  0  0  0  0  0
    2.1853   -2.6360    0.0000 C   0  0  0  0  0  0  0  0  0  0  0  0
    1.1830   -3.7520    0.0000 H   0  0  0  0  0  0  0  0  0  0  0  0
    3.1102   -3.8169    0.0000 H   0  0  0  0  0  0  0  0  0  0  0  0
    3.5088   -1.9302    0.0000 H   0  0  0  0  0  0  0  0  0  0  0  0
    0.2900   -0.7500    0.0000 C   0  0  0  0  0  0  0  0  0  0  0  0
    0.2900    0.7500    0.0000 C   0  0  0  0  0  0  0  0  0  0  0  0
   -1.0100    1.5000    0.0000 C   0  0  0  0  0  0  0  0  0  0  0  0
   -2.3100    0.7500    0.0000 C   0  0  0  0  0  0  0  0  0  0  0  0
   -2.3100   -0.7500    0.0000 C   0  0  0  0  0  0  0  0  0  0  0  0
   -1.0100   -1.5000    0.0000 C   0  0  0  0  0  0  0  0  0  0  0  0
   -1.0100   -3.0000    0.0000 H   0  0  0  0  0  0  0  0  0  0  0  0
   -3.6089   -1.5002    0.0000 Br  0  0  0  0  0  0  0  0  0  0  0  0
   -3.6089    1.5002    0.0000 O   0  0  0  0  0  0  0  0  0  0  0  0
   -4.9081    0.7504    0.0000 C   0  0  0  0  0  0  0  0  0  0  0  0
   -6.2070    1.5006    0.0000 H   0  0  0  0  0  0  0  0  0  0  0  0
   -5.8724   -0.3985    0.0000 H   0  0  0  0  0  0  0  0  0  0  0  0
   -3.9441   -0.3988    0.0000 H   0  0  0  0  0  0  0  0  0  0  0  0
   -1.0100    3.0000    0.0000 C   0  0  0  0  0  0  0  0  0  0  0  0
    0.4672    2.7395    0.0000 H   0  0  0  0  0  0  0  0  0  0  0  0
   -0.4970    4.4095    0.0000 H   0  0  0  0  0  0  0  0  0  0  0  0
   -2.3090    3.7500    0.0000 N   0  0  0  0  0  0  0  0  0  0  0  0
   -2.3090    5.2500    0.0000 C   0  0  0  0  0  0  0  0  0  0  0  0
   -1.0100    6.0000    0.0000 H   0  0  0  0  0  0  0  0  0  0  0  0
   -3.7862    4.9895    0.0000 H   0  0  0  0  0  0  0  0  0  0  0  0
   -2.8221    6.6595    0.0000 H   0  0  0  0  0  0  0  0  0  0  0  0
   -3.6081    3.0000    0.0000 C   0  0  0  0  0  0  0  0  0  0  0  0
   -4.9071    3.7500    0.0000 H   0  0  0  0  0  0  0  0  0  0  0  0
   -4.5723    1.8509    0.0000 H   0  0  0  0  0  0  0  0  0  0  0  0
   -2.6439    1.8509    0.0000 H   0  0  0  0  0  0  0  0  0  0  0  0
  1  2  1  0  0  0  0 
  1  3  1  0  0  0  0 
  1  4  1  0  0  0  0 
  1  5  1  0  0  0  0 
  5  6  1  0  0  0  0 
  5  7  1  0  0  0  0 
  5  8  1  0  0  0  0 
  8  9  1  0  0  0  0 
  9 10  2  0  0  0  0 
  9 11  1  0  0  0  0 
 11 12  2  0  0  0  0 
 12 13  1  0  0  0  0 
 13 14  1  0  0  0  0 
 13 15  1  0  0  0  0 
 13 16  1  0  0  0  0 
 16 17  1  0  0  0  0 
 17 18  2  0  0  0  0 
 18 19  1  0  0  0  0 
 18 20  1  0  0  0  0 
 20 21  1  0  0  0  0 
 20 22  2  0  0  0  0 
 22 23  1  0  0  0  0 
 22 24  1  0  0  0  0 
 24 25  1  0  0  0  0 
 24 26  2  0  0  0  0 
 17 26  1  0  0  0  0 
 26 27  1  0  0  0  0 
 12 28  1  0  0  0  0 
 28 29  1  0  0  0  0 
 29 30  1  0  0  0  0 
 29 31  1  0  0  0  0 
 29 32  1  0  0  0  0 
 28 33  1  0  0  0  0 
 33 34  2  0  0  0  0 
 11 34  1  0  0  0  0 
 34 35  1  0  0  0  0 
 35 36  2  0  0  0  0 
 36 37  1  0  0  0  0 
 37 38  2  0  0  0  0 
 33 38  1  0  0  0  0 
 38 39  1  0  0  0  0 
 37 40  1  0  0  0  0 
 36 41  1  0  0  0  0 
 41 42  1  0  0  0  0 
 42 43  1  0  0  0  0 
 42 44  1  0  0  0  0 
 42 45  1  0  0  0  0 
 35 46  1  0  0  0  0 
 46 47  1  0  0  0  0 
 46 48  1  0  0  0  0 
 46 49  1  0  0  0  0 
 49 50  1  0  0  0  0 
 50 51  1  0  0  0  0 
 50 52  1  0  0  0  0 
 50 53  1  0  0  0  0 
 49 54  1  0  0  0  0 
 54 55  1  0  0  0  0 
 54 56  1  0  0  0  0 
 54 57  1  0  0  0  0 
M  END
> <Rank>
6

> <Priority_score>
0.416

> <Reaction_type>
methylation_(aromatic_OH)

> <Parent_ID>
28

> <Parent_InChI>
InChI=1S/C22H25BrN2O3S/c1-5-28-22(27)20-18(13-29-14-9-7-6-8-10-14)25(4)17-11-16(23)21(26)15(19(17)20)12-24(2)3/h6-11,26H,5,12-13H2,1-4H3

> <Parent_SMILES>
CCOC(=O)c1c(CSc2ccccc2)n(C)c2cc(Br)c(O)c(CN(C)C)c12

$$$$
Molecule 28_metabolite 7
  CDK     0516241031

 55 57  0  0  0  0  0  0  0  0999 V2000
    5.5858    4.6822    0.0000 C   0  0  0  0  0  0  0  0  0  0  0  0
    6.0510    6.1082    0.0000 H   0  0  0  0  0  0  0  0  0  0  0  0
    5.6363    3.1830    0.0000 H   0  0  0  0  0  0  0  0  0  0  0  0
    7.0709    4.4716    0.0000 H   0  0  0  0  0  0  0  0  0  0  0  0
    4.1182    4.3721    0.0000 C   0  0  0  0  0  0  0  0  0  0  0  0
    4.0677    5.8712    0.0000 H   0  0  0  0  0  0  0  0  0  0  0  0
    2.6330    4.5827    0.0000 H   0  0  0  0  0  0  0  0  0  0  0  0
    3.6529    2.9461    0.0000 O   0  0  0  0  0  0  0  0  0  0  0  0
    2.1853    2.6360    0.0000 C   0  0  0  0  0  0  0  0  0  0  0  0
    1.1830    3.7520    0.0000 O   0  0  0  0  0  0  0  0  0  0  0  0
    1.7200    1.2100    0.0000 C   0  0  0  0  0  0  0  0  0  0  0  0
    2.6000   -0.0000    0.0000 C   0  0  0  0  0  0  0  0  0  0  0  0
    4.1000   -0.0000    0.0000 C   0  0  0  0  0  0  0  0  0  0  0  0
    5.5095    0.5130    0.0000 H   0  0  0  0  0  0  0  0  0  0  0  0
    3.8395    1.4772    0.0000 H   0  0  0  0  0  0  0  0  0  0  0  0
    4.8500   -1.2990    0.0000 S   0  0  0  0  0  0  0  0  0  0  0  0
    4.1000   -2.5981    0.0000 O   0  0  0  0  0  0  0  0  0  0  0  0
    6.3500   -1.2990    0.0000 C   0  0  0  0  0  0  0  0  0  0  0  0
    7.1002   -0.0001    0.0000 C   0  0  0  0  0  0  0  0  0  0  0  0
    6.3506    1.2992    0.0000 H   0  0  0  0  0  0  0  0  0  0  0  0
    8.6010   -0.0008    0.0000 C   0  0  0  0  0  0  0  0  0  0  0  0
    9.3512    1.2981    0.0000 H   0  0  0  0  0  0  0  0  0  0  0  0
    9.3517   -1.3005    0.0000 C   0  0  0  0  0  0  0  0  0  0  0  0
   10.8517   -1.3005    0.0000 H   0  0  0  0  0  0  0  0  0  0  0  0
    8.6015   -2.5994    0.0000 C   0  0  0  0  0  0  0  0  0  0  0  0
    9.3510   -3.8987    0.0000 H   0  0  0  0  0  0  0  0  0  0  0  0
    7.1006   -2.5987    0.0000 C   0  0  0  0  0  0  0  0  0  0  0  0
    6.3504   -3.8976    0.0000 H   0  0  0  0  0  0  0  0  0  0  0  0
    1.7200   -1.2100    0.0000 N   0  0  0  0  0  0  0  0  0  0  0  0
    2.1853   -2.6360    0.0000 C   0  0  0  0  0  0  0  0  0  0  0  0
    1.1830   -3.7520    0.0000 H   0  0  0  0  0  0  0  0  0  0  0  0
    3.1102   -3.8169    0.0000 H   0  0  0  0  0  0  0  0  0  0  0  0
    3.5088   -1.9302    0.0000 H   0  0  0  0  0  0  0  0  0  0  0  0
    0.2900   -0.7500    0.0000 C   0  0  0  0  0  0  0  0  0  0  0  0
    0.2900    0.7500    0.0000 C   0  0  0  0  0  0  0  0  0  0  0  0
   -1.0100    1.5000    0.0000 C   0  0  0  0  0  0  0  0  0  0  0  0
   -2.3100    0.7500    0.0000 C   0  0  0  0  0  0  0  0  0  0  0  0
   -2.3100   -0.7500    0.0000 C   0  0  0  0  0  0  0  0  0  0  0  0
   -1.0100   -1.5000    0.0000 C   0  0  0  0  0  0  0  0  0  0  0  0
   -1.0100   -3.0000    0.0000 H   0  0  0  0  0  0  0  0  0  0  0  0
   -3.6089   -1.5002    0.0000 Br  0  0  0  0  0  0  0  0  0  0  0  0
   -3.6089    1.5002    0.0000 O   0  0  0  0  0  0  0  0  0  0  0  0
   -4.9081    0.7504    0.0000 H   0  0  0  0  0  0  0  0  0  0  0  0
   -1.0100    3.0000    0.0000 C   0  0  0  0  0  0  0  0  0  0  0  0
    0.4672    2.7395    0.0000 H   0  0  0  0  0  0  0  0  0  0  0  0
   -0.4970    4.4095    0.0000 H   0  0  0  0  0  0  0  0  0  0  0  0
   -2.3090    3.7500    0.0000 N   0  0  0  0  0  0  0  0  0  0  0  0
   -2.3090    5.2500    0.0000 C   0  0  0  0  0  0  0  0  0  0  0  0
   -1.0100    6.0000    0.0000 H   0  0  0  0  0  0  0  0  0  0  0  0
   -3.7862    4.9895    0.0000 H   0  0  0  0  0  0  0  0  0  0  0  0
   -2.8221    6.6595    0.0000 H   0  0  0  0  0  0  0  0  0  0  0  0
   -3.6081    3.0000    0.0000 C   0  0  0  0  0  0  0  0  0  0  0  0
   -4.9071    3.7500    0.0000 H   0  0  0  0  0  0  0  0  0  0  0  0
   -4.5723    1.8509    0.0000 H   0  0  0  0  0  0  0  0  0  0  0  0
   -2.6439    1.8509    0.0000 H   0  0  0  0  0  0  0  0  0  0  0  0
  1  2  1  0  0  0  0 
  1  3  1  0  0  0  0 
  1  4  1  0  0  0  0 
  1  5  1  0  0  0  0 
  5  6  1  0  0  0  0 
  5  7  1  0  0  0  0 
  5  8  1  0  0  0  0 
  8  9  1  0  0  0  0 
  9 10  2  0  0  0  0 
  9 11  1  0  0  0  0 
 11 12  2  0  0  0  0 
 12 13  1  0  0  0  0 
 13 14  1  0  0  0  0 
 13 15  1  0  0  0  0 
 13 16  1  0  0  0  0 
 16 17  2  0  0  0  0 
 16 18  1  0  0  0  0 
 18 19  2  0  0  0  0 
 19 20  1  0  0  0  0 
 19 21  1  0  0  0  0 
 21 22  1  0  0  0  0 
 21 23  2  0  0  0  0 
 23 24  1  0  0  0  0 
 23 25  1  0  0  0  0 
 25 26  1  0  0  0  0 
 25 27  2  0  0  0  0 
 18 27  1  0  0  0  0 
 27 28  1  0  0  0  0 
 12 29  1  0  0  0  0 
 29 30  1  0  0  0  0 
 30 31  1  0  0  0  0 
 30 32  1  0  0  0  0 
 30 33  1  0  0  0  0 
 29 34  1  0  0  0  0 
 34 35  2  0  0  0  0 
 11 35  1  0  0  0  0 
 35 36  1  0  0  0  0 
 36 37  2  0  0  0  0 
 37 38  1  0  0  0  0 
 38 39  2  0  0  0  0 
 34 39  1  0  0  0  0 
 39 40  1  0  0  0  0 
 38 41  1  0  0  0  0 
 37 42  1  0  0  0  0 
 42 43  1  0  0  0  0 
 36 44  1  0  0  0  0 
 44 45  1  0  0  0  0 
 44 46  1  0  0  0  0 
 44 47  1  0  0  0  0 
 47 48  1  0  0  0  0 
 48 49  1  0  0  0  0 
 48 50  1  0  0  0  0 
 48 51  1  0  0  0  0 
 47 52  1  0  0  0  0 
 52 53  1  0  0  0  0 
 52 54  1  0  0  0  0 
 52 55  1  0  0  0  0 
M  END
> <Rank>
7

> <Priority_score>
0.328

> <Reaction_type>
sulfide_oxidation_(c-S-C)

> <Parent_ID>
28

> <Parent_InChI>
InChI=1S/C22H25BrN2O3S/c1-5-28-22(27)20-18(13-29-14-9-7-6-8-10-14)25(4)17-11-16(23)21(26)15(19(17)20)12-24(2)3/h6-11,26H,5,12-13H2,1-4H3

> <Parent_SMILES>
CCOC(=O)c1c(CSc2ccccc2)n(C)c2cc(Br)c(O)c(CN(C)C)c12

$$$$
Molecule 28_metabolite 8
  CDK     0516241031

 44 45  0  0  0  0  0  0  0  0999 V2000
    5.5858    4.6822    0.0000 C   0  0  0  0  0  0  0  0  0  0  0  0
    6.0510    6.1082    0.0000 H   0  0  0  0  0  0  0  0  0  0  0  0
    5.6363    3.1830    0.0000 H   0  0  0  0  0  0  0  0  0  0  0  0
    7.0709    4.4716    0.0000 H   0  0  0  0  0  0  0  0  0  0  0  0
    4.1182    4.3721    0.0000 C   0  0  0  0  0  0  0  0  0  0  0  0
    4.0677    5.8712    0.0000 H   0  0  0  0  0  0  0  0  0  0  0  0
    2.6330    4.5827    0.0000 H   0  0  0  0  0  0  0  0  0  0  0  0
    3.6529    2.9461    0.0000 O   0  0  0  0  0  0  0  0  0  0  0  0
    2.1853    2.6360    0.0000 C   0  0  0  0  0  0  0  0  0  0  0  0
    1.1830    3.7520    0.0000 O   0  0  0  0  0  0  0  0  0  0  0  0
    1.7200    1.2100    0.0000 C   0  0  0  0  0  0  0  0  0  0  0  0
    2.6000   -0.0000    0.0000 C   0  0  0  0  0  0  0  0  0  0  0  0
    4.1000   -0.0000    0.0000 C   0  0  0  0  0  0  0  0  0  0  0  0
    5.5095    0.5130    0.0000 H   0  0  0  0  0  0  0  0  0  0  0  0
    3.8395    1.4772    0.0000 H   0  0  0  0  0  0  0  0  0  0  0  0
    4.8500   -1.2990    0.0000 O   0  0  0  0  0  0  0  0  0  0  0  0
    6.3500   -1.2990    0.0000 H   0  0  0  0  0  0  0  0  0  0  0  0
    1.7200   -1.2100    0.0000 N   0  0  0  0  0  0  0  0  0  0  0  0
    2.1853   -2.6360    0.0000 C   0  0  0  0  0  0  0  0  0  0  0  0
    1.1830   -3.7520    0.0000 H   0  0  0  0  0  0  0  0  0  0  0  0
    3.1102   -3.8169    0.0000 H   0  0  0  0  0  0  0  0  0  0  0  0
    3.5088   -1.9302    0.0000 H   0  0  0  0  0  0  0  0  0  0  0  0
    0.2900   -0.7500    0.0000 C   0  0  0  0  0  0  0  0  0  0  0  0
    0.2900    0.7500    0.0000 C   0  0  0  0  0  0  0  0  0  0  0  0
   -1.0100    1.5000    0.0000 C   0  0  0  0  0  0  0  0  0  0  0  0
   -2.3100    0.7500    0.0000 C   0  0  0  0  0  0  0  0  0  0  0  0
   -2.3100   -0.7500    0.0000 C   0  0  0  0  0  0  0  0  0  0  0  0
   -1.0100   -1.5000    0.0000 C   0  0  0  0  0  0  0  0  0  0  0  0
   -1.0100   -3.0000    0.0000 H   0  0  0  0  0  0  0  0  0  0  0  0
   -3.6089   -1.5002    0.0000 Br  0  0  0  0  0  0  0  0  0  0  0  0
   -3.6089    1.5002    0.0000 O   0  0  0  0  0  0  0  0  0  0  0  0
   -4.9081    0.7504    0.0000 H   0  0  0  0  0  0  0  0  0  0  0  0
   -1.0100    3.0000    0.0000 C   0  0  0  0  0  0  0  0  0  0  0  0
    0.4672    2.7395    0.0000 H   0  0  0  0  0  0  0  0  0  0  0  0
   -0.4970    4.4095    0.0000 H   0  0  0  0  0  0  0  0  0  0  0  0
   -2.3090    3.7500    0.0000 N   0  0  0  0  0  0  0  0  0  0  0  0
   -2.3090    5.2500    0.0000 C   0  0  0  0  0  0  0  0  0  0  0  0
   -1.0100    6.0000    0.0000 H   0  0  0  0  0  0  0  0  0  0  0  0
   -3.7862    4.9895    0.0000 H   0  0  0  0  0  0  0  0  0  0  0  0
   -2.8221    6.6595    0.0000 H   0  0  0  0  0  0  0  0  0  0  0  0
   -3.6081    3.0000    0.0000 C   0  0  0  0  0  0  0  0  0  0  0  0
   -4.9071    3.7500    0.0000 H   0  0  0  0  0  0  0  0  0  0  0  0
   -4.5723    1.8509    0.0000 H   0  0  0  0  0  0  0  0  0  0  0  0
   -2.6439    1.8509    0.0000 H   0  0  0  0  0  0  0  0  0  0  0  0
  1  2  1  0  0  0  0 
  1  3  1  0  0  0  0 
  1  4  1  0  0  0  0 
  1  5  1  0  0  0  0 
  5  6  1  0  0  0  0 
  5  7  1  0  0  0  0 
  5  8  1  0  0  0  0 
  8  9  1  0  0  0  0 
  9 10  2  0  0  0  0 
  9 11  1  0  0  0  0 
 11 12  2  0  0  0  0 
 12 13  1  0  0  0  0 
 13 14  1  0  0  0  0 
 13 15  1  0  0  0  0 
 13 16  1  0  0  0  0 
 16 17  1  0  0  0  0 
 12 18  1  0  0  0  0 
 18 19  1  0  0  0  0 
 19 20  1  0  0  0  0 
 19 21  1  0  0  0  0 
 19 22  1  0  0  0  0 
 18 23  1  0  0  0  0 
 23 24  2  0  0  0  0 
 11 24  1  0  0  0  0 
 24 25  1  0  0  0  0 
 25 26  2  0  0  0  0 
 26 27  1  0  0  0  0 
 27 28  2  0  0  0  0 
 23 28  1  0  0  0  0 
 28 29  1  0  0  0  0 
 27 30  1  0  0  0  0 
 26 31  1  0  0  0  0 
 31 32  1  0  0  0  0 
 25 33  1  0  0  0  0 
 33 34  1  0  0  0  0 
 33 35  1  0  0  0  0 
 33 36  1  0  0  0  0 
 36 37  1  0  0  0  0 
 37 38  1  0  0  0  0 
 37 39  1  0  0  0  0 
 37 40  1  0  0  0  0 
 36 41  1  0  0  0  0 
 41 42  1  0  0  0  0 
 41 43  1  0  0  0  0 
 41 44  1  0  0  0  0 
M  END
> <Rank>
7

> <Priority_score>
0.328

> <Reaction_type>
S-dealkylation_c-SCH2-R

> <Parent_ID>
28

> <Parent_InChI>
InChI=1S/C22H25BrN2O3S/c1-5-28-22(27)20-18(13-29-14-9-7-6-8-10-14)25(4)17-11-16(23)21(26)15(19(17)20)12-24(2)3/h6-11,26H,5,12-13H2,1-4H3

> <Parent_SMILES>
CCOC(=O)c1c(CSc2ccccc2)n(C)c2cc(Br)c(O)c(CN(C)C)c12

$$$$
Molecule 28_metabolite 9
  CDK     0516241031

 13 13  0  0  0  0  0  0  0  0999 V2000
    2.2292    0.5400    0.0000 C   0  0  0  0  0  0  0  0  0  0  0  0
    3.5281    1.2902    0.0000 H   0  0  0  0  0  0  0  0  0  0  0  0
    0.9292    1.2900    0.0000 C   0  0  0  0  0  0  0  0  0  0  0  0
    0.9292    2.7900    0.0000 H   0  0  0  0  0  0  0  0  0  0  0  0
   -0.3708    0.5400    0.0000 C   0  0  0  0  0  0  0  0  0  0  0  0
   -1.6698    1.2902    0.0000 H   0  0  0  0  0  0  0  0  0  0  0  0
   -0.3708   -0.9600    0.0000 C   0  0  0  0  0  0  0  0  0  0  0  0
    0.9292   -1.7100    0.0000 C   0  0  0  0  0  0  0  0  0  0  0  0
    0.9292   -3.2100    0.0000 H   0  0  0  0  0  0  0  0  0  0  0  0
    2.2292   -0.9600    0.0000 C   0  0  0  0  0  0  0  0  0  0  0  0
    3.5281   -1.7102    0.0000 H   0  0  0  0  0  0  0  0  0  0  0  0
   -1.6698   -1.7102    0.0000 S   0  0  0  0  0  0  0  0  0  0  0  0
   -2.9689   -0.9604    0.0000 H   0  0  0  0  0  0  0  0  0  0  0  0
  1  2  1  0  0  0  0 
  1  3  2  0  0  0  0 
  3  4  1  0  0  0  0 
  3  5  1  0  0  0  0 
  5  6  1  0  0  0  0 
  5  7  2  0  0  0  0 
  7  8  1  0  0  0  0 
  8  9  1  0  0  0  0 
  8 10  2  0  0  0  0 
  1 10  1  0  0  0  0 
 10 11  1  0  0  0  0 
  7 12  1  0  0  0  0 
 12 13  1  0  0  0  0 
M  END
> <Rank>
7

> <Priority_score>
0.328

> <Reaction_type>
S-dealkylation_c-SCH2-R

> <Parent_ID>
28

> <Parent_InChI>
InChI=1S/C22H25BrN2O3S/c1-5-28-22(27)20-18(13-29-14-9-7-6-8-10-14)25(4)17-11-16(23)21(26)15(19(17)20)12-24(2)3/h6-11,26H,5,12-13H2,1-4H3

> <Parent_SMILES>
CCOC(=O)c1c(CSc2ccccc2)n(C)c2cc(Br)c(O)c(CN(C)C)c12

$$$$
Molecule 28_metabolite 10
  CDK     0516241031

 48 50  0  0  0  0  0  0  0  0999 V2000
   -2.3090    5.2500    0.0000 C   0  0  0  0  0  0  0  0  0  0  0  0
   -1.0100    6.0000    0.0000 H   0  0  0  0  0  0  0  0  0  0  0  0
   -3.7862    4.9895    0.0000 H   0  0  0  0  0  0  0  0  0  0  0  0
   -2.8221    6.6595    0.0000 H   0  0  0  0  0  0  0  0  0  0  0  0
   -2.3090    3.7500    0.0000 N   0  0  0  0  0  0  0  0  0  0  0  0
   -3.6081    3.0000    0.0000 C   0  0  0  0  0  0  0  0  0  0  0  0
   -4.9071    3.7500    0.0000 H   0  0  0  0  0  0  0  0  0  0  0  0
   -4.5723    1.8509    0.0000 H   0  0  0  0  0  0  0  0  0  0  0  0
   -2.6439    1.8509    0.0000 H   0  0  0  0  0  0  0  0  0  0  0  0
   -1.0100    3.0000    0.0000 C   0  0  0  0  0  0  0  0  0  0  0  0
    0.4672    2.7395    0.0000 H   0  0  0  0  0  0  0  0  0  0  0  0
   -0.4970    4.4095    0.0000 H   0  0  0  0  0  0  0  0  0  0  0  0
   -1.0100    1.5000    0.0000 C   0  0  0  0  0  0  0  0  0  0  0  0
   -2.3100    0.7500    0.0000 C   0  0  0  0  0  0  0  0  0  0  0  0
   -2.3100   -0.7500    0.0000 C   0  0  0  0  0  0  0  0  0  0  0  0
   -1.0100   -1.5000    0.0000 C   0  0  0  0  0  0  0  0  0  0  0  0
   -1.0100   -3.0000    0.0000 H   0  0  0  0  0  0  0  0  0  0  0  0
    0.2900   -0.7500    0.0000 C   0  0  0  0  0  0  0  0  0  0  0  0
    0.2900    0.7500    0.0000 C   0  0  0  0  0  0  0  0  0  0  0  0
    1.7200    1.2100    0.0000 C   0  0  0  0  0  0  0  0  0  0  0  0
    2.6000   -0.0000    0.0000 C   0  0  0  0  0  0  0  0  0  0  0  0
    4.1000   -0.0000    0.0000 C   0  0  0  0  0  0  0  0  0  0  0  0
    5.5095    0.5130    0.0000 H   0  0  0  0  0  0  0  0  0  0  0  0
    3.8395    1.4772    0.0000 H   0  0  0  0  0  0  0  0  0  0  0  0
    4.8500   -1.2990    0.0000 S   0  0  0  0  0  0  0  0  0  0  0  0
    6.3500   -1.2990    0.0000 C   0  0  0  0  0  0  0  0  0  0  0  0
    7.1002   -0.0001    0.0000 C   0  0  0  0  0  0  0  0  0  0  0  0
    6.3506    1.2992    0.0000 H   0  0  0  0  0  0  0  0  0  0  0  0
    8.6010   -0.0008    0.0000 C   0  0  0  0  0  0  0  0  0  0  0  0
    9.3512    1.2981    0.0000 H   0  0  0  0  0  0  0  0  0  0  0  0
    9.3517   -1.3005    0.0000 C   0  0  0  0  0  0  0  0  0  0  0  0
   10.8517   -1.3005    0.0000 H   0  0  0  0  0  0  0  0  0  0  0  0
    8.6015   -2.5994    0.0000 C   0  0  0  0  0  0  0  0  0  0  0  0
    9.3510   -3.8987    0.0000 H   0  0  0  0  0  0  0  0  0  0  0  0
    7.1006   -2.5987    0.0000 C   0  0  0  0  0  0  0  0  0  0  0  0
    6.3504   -3.8976    0.0000 H   0  0  0  0  0  0  0  0  0  0  0  0
    1.7200   -1.2100    0.0000 N   0  0  0  0  0  0  0  0  0  0  0  0
    2.1853   -2.6360    0.0000 C   0  0  0  0  0  0  0  0  0  0  0  0
    1.1830   -3.7520    0.0000 H   0  0  0  0  0  0  0  0  0  0  0  0
    3.1102   -3.8169    0.0000 H   0  0  0  0  0  0  0  0  0  0  0  0
    3.5088   -1.9302    0.0000 H   0  0  0  0  0  0  0  0  0  0  0  0
    2.1853    2.6360    0.0000 C   0  0  0  0  0  0  0  0  0  0  0  0
    3.6529    2.9461    0.0000 O   0  0  0  0  0  0  0  0  0  0  0  0
    1.1830    3.7520    0.0000 O   0  0  0  0  0  0  0  0  0  0  0  0
    1.6482    5.1780    0.0000 H   0  0  0  0  0  0  0  0  0  0  0  0
   -3.6089   -1.5002    0.0000 Br  0  0  0  0  0  0  0  0  0  0  0  0
   -3.6089    1.5002    0.0000 O   0  0  0  0  0  0  0  0  0  0  0  0
   -4.9081    0.7504    0.0000 H   0  0  0  0  0  0  0  0  0  0  0  0
  1  2  1  0  0  0  0 
  1  3  1  0  0  0  0 
  1  4  1  0  0  0  0 
  1  5  1  0  0  0  0 
  5  6  1  0  0  0  0 
  6  7  1  0  0  0  0 
  6  8  1  0  0  0  0 
  6  9  1  0  0  0  0 
  5 10  1  0  0  0  0 
 10 11  1  0  0  0  0 
 10 12  1  0  0  0  0 
 10 13  1  0  0  0  0 
 13 14  2  0  0  0  0 
 14 15  1  0  0  0  0 
 15 16  2  0  0  0  0 
 16 17  1  0  0  0  0 
 16 18  1  0  0  0  0 
 18 19  2  0  0  0  0 
 13 19  1  0  0  0  0 
 19 20  1  0  0  0  0 
 20 21  2  0  0  0  0 
 21 22  1  0  0  0  0 
 22 23  1  0  0  0  0 
 22 24  1  0  0  0  0 
 22 25  1  0  0  0  0 
 25 26  1  0  0  0  0 
 26 27  2  0  0  0  0 
 27 28  1  0  0  0  0 
 27 29  1  0  0  0  0 
 29 30  1  0  0  0  0 
 29 31  2  0  0  0  0 
 31 32  1  0  0  0  0 
 31 33  1  0  0  0  0 
 33 34  1  0  0  0  0 
 33 35  2  0  0  0  0 
 26 35  1  0  0  0  0 
 35 36  1  0  0  0  0 
 21 37  1  0  0  0  0 
 18 37  1  0  0  0  0 
 37 38  1  0  0  0  0 
 38 39  1  0  0  0  0 
 38 40  1  0  0  0  0 
 38 41  1  0  0  0  0 
 20 42  1  0  0  0  0 
 42 43  2  0  0  0  0 
 42 44  1  0  0  0  0 
 44 45  1  0  0  0  0 
 15 46  1  0  0  0  0 
 14 47  1  0  0  0  0 
 47 48  1  0  0  0  0 
M  END
> <Rank>
10

> <Priority_score>
0.32720337197049526

> <Reaction_type>
hydrolysis_(ester)

> <Parent_ID>
28

> <Parent_InChI>
InChI=1S/C22H25BrN2O3S/c1-5-28-22(27)20-18(13-29-14-9-7-6-8-10-14)25(4)17-11-16(23)21(26)15(19(17)20)12-24(2)3/h6-11,26H,5,12-13H2,1-4H3

> <Parent_SMILES>
CCOC(=O)c1c(CSc2ccccc2)n(C)c2cc(Br)c(O)c(CN(C)C)c12

$$$$
Molecule 28_metabolite 11
  CDK     0516241031

 55 57  0  0  0  0  0  0  0  0999 V2000
    5.5858    4.6822    0.0000 C   0  0  0  0  0  0  0  0  0  0  0  0
    6.0510    6.1082    0.0000 H   0  0  0  0  0  0  0  0  0  0  0  0
    5.6363    3.1830    0.0000 H   0  0  0  0  0  0  0  0  0  0  0  0
    7.0709    4.4716    0.0000 H   0  0  0  0  0  0  0  0  0  0  0  0
    4.1182    4.3721    0.0000 C   0  0  0  0  0  0  0  0  0  0  0  0
    4.0677    5.8712    0.0000 H   0  0  0  0  0  0  0  0  0  0  0  0
    2.6330    4.5827    0.0000 O   0  0  0  0  0  0  0  0  0  0  0  0
    2.0728    5.9741    0.0000 H   0  0  0  0  0  0  0  0  0  0  0  0
    3.6529    2.9461    0.0000 O   0  0  0  0  0  0  0  0  0  0  0  0
    2.1853    2.6360    0.0000 C   0  0  0  0  0  0  0  0  0  0  0  0
    1.1830    3.7520    0.0000 O   0  0  0  0  0  0  0  0  0  0  0  0
    1.7200    1.2100    0.0000 C   0  0  0  0  0  0  0  0  0  0  0  0
    2.6000   -0.0000    0.0000 C   0  0  0  0  0  0  0  0  0  0  0  0
    4.1000   -0.0000    0.0000 C   0  0  0  0  0  0  0  0  0  0  0  0
    5.5095    0.5130    0.0000 H   0  0  0  0  0  0  0  0  0  0  0  0
    3.8395    1.4772    0.0000 H   0  0  0  0  0  0  0  0  0  0  0  0
    4.8500   -1.2990    0.0000 S   0  0  0  0  0  0  0  0  0  0  0  0
    6.3500   -1.2990    0.0000 C   0  0  0  0  0  0  0  0  0  0  0  0
    7.1002   -0.0001    0.0000 C   0  0  0  0  0  0  0  0  0  0  0  0
    6.3506    1.2992    0.0000 H   0  0  0  0  0  0  0  0  0  0  0  0
    8.6010   -0.0008    0.0000 C   0  0  0  0  0  0  0  0  0  0  0  0
    9.3512    1.2981    0.0000 H   0  0  0  0  0  0  0  0  0  0  0  0
    9.3517   -1.3005    0.0000 C   0  0  0  0  0  0  0  0  0  0  0  0
   10.8517   -1.3005    0.0000 H   0  0  0  0  0  0  0  0  0  0  0  0
    8.6015   -2.5994    0.0000 C   0  0  0  0  0  0  0  0  0  0  0  0
    9.3510   -3.8987    0.0000 H   0  0  0  0  0  0  0  0  0  0  0  0
    7.1006   -2.5987    0.0000 C   0  0  0  0  0  0  0  0  0  0  0  0
    6.3504   -3.8976    0.0000 H   0  0  0  0  0  0  0  0  0  0  0  0
    1.7200   -1.2100    0.0000 N   0  0  0  0  0  0  0  0  0  0  0  0
    2.1853   -2.6360    0.0000 C   0  0  0  0  0  0  0  0  0  0  0  0
    1.1830   -3.7520    0.0000 H   0  0  0  0  0  0  0  0  0  0  0  0
    3.1102   -3.8169    0.0000 H   0  0  0  0  0  0  0  0  0  0  0  0
    3.5088   -1.9302    0.0000 H   0  0  0  0  0  0  0  0  0  0  0  0
    0.2900   -0.7500    0.0000 C   0  0  0  0  0  0  0  0  0  0  0  0
    0.2900    0.7500    0.0000 C   0  0  0  0  0  0  0  0  0  0  0  0
   -1.0100    1.5000    0.0000 C   0  0  0  0  0  0  0  0  0  0  0  0
   -2.3100    0.7500    0.0000 C   0  0  0  0  0  0  0  0  0  0  0  0
   -2.3100   -0.7500    0.0000 C   0  0  0  0  0  0  0  0  0  0  0  0
   -1.0100   -1.5000    0.0000 C   0  0  0  0  0  0  0  0  0  0  0  0
   -1.0100   -3.0000    0.0000 H   0  0  0  0  0  0  0  0  0  0  0  0
   -3.6089   -1.5002    0.0000 Br  0  0  0  0  0  0  0  0  0  0  0  0
   -3.6089    1.5002    0.0000 O   0  0  0  0  0  0  0  0  0  0  0  0
   -4.9081    0.7504    0.0000 H   0  0  0  0  0  0  0  0  0  0  0  0
   -1.0100    3.0000    0.0000 C   0  0  0  0  0  0  0  0  0  0  0  0
    0.4672    2.7395    0.0000 H   0  0  0  0  0  0  0  0  0  0  0  0
   -0.4970    4.4095    0.0000 H   0  0  0  0  0  0  0  0  0  0  0  0
   -2.3090    3.7500    0.0000 N   0  0  0  0  0  0  0  0  0  0  0  0
   -3.6081    3.0000    0.0000 C   0  0  0  0  0  0  0  0  0  0  0  0
   -4.9071    3.7500    0.0000 H   0  0  0  0  0  0  0  0  0  0  0  0
   -4.5723    1.8509    0.0000 H   0  0  0  0  0  0  0  0  0  0  0  0
   -2.6439    1.8509    0.0000 H   0  0  0  0  0  0  0  0  0  0  0  0
   -2.3090    5.2500    0.0000 C   0  0  0  0  0  0  0  0  0  0  0  0
   -1.0100    6.0000    0.0000 H   0  0  0  0  0  0  0  0  0  0  0  0
   -3.7862    4.9895    0.0000 H   0  0  0  0  0  0  0  0  0  0  0  0
   -2.8221    6.6595    0.0000 H   0  0  0  0  0  0  0  0  0  0  0  0
  1  2  1  0  0  0  0 
  1  3  1  0  0  0  0 
  1  4  1  0  0  0  0 
  1  5  1  0  0  0  0 
  5  6  1  0  0  0  0 
  5  7  1  0  0  0  0 
  7  8  1  0  0  0  0 
  5  9  1  0  0  0  0 
  9 10  1  0  0  0  0 
 10 11  2  0  0  0  0 
 10 12  1  0  0  0  0 
 12 13  2  0  0  0  0 
 13 14  1  0  0  0  0 
 14 15  1  0  0  0  0 
 14 16  1  0  0  0  0 
 14 17  1  0  0  0  0 
 17 18  1  0  0  0  0 
 18 19  2  0  0  0  0 
 19 20  1  0  0  0  0 
 19 21  1  0  0  0  0 
 21 22  1  0  0  0  0 
 21 23  2  0  0  0  0 
 23 24  1  0  0  0  0 
 23 25  1  0  0  0  0 
 25 26  1  0  0  0  0 
 25 27  2  0  0  0  0 
 18 27  1  0  0  0  0 
 27 28  1  0  0  0  0 
 13 29  1  0  0  0  0 
 29 30  1  0  0  0  0 
 30 31  1  0  0  0  0 
 30 32  1  0  0  0  0 
 30 33  1  0  0  0  0 
 29 34  1  0  0  0  0 
 34 35  2  0  0  0  0 
 12 35  1  0  0  0  0 
 35 36  1  0  0  0  0 
 36 37  2  0  0  0  0 
 37 38  1  0  0  0  0 
 38 39  2  0  0  0  0 
 34 39  1  0  0  0  0 
 39 40  1  0  0  0  0 
 38 41  1  0  0  0  0 
 37 42  1  0  0  0  0 
 42 43  1  0  0  0  0 
 36 44  1  0  0  0  0 
 44 45  1  0  0  0  0 
 44 46  1  0  0  0  0 
 44 47  1  0  0  0  0 
 47 48  1  0  0  0  0 
 48 49  1  0  0  0  0 
 48 50  1  0  0  0  0 
 48 51  1  0  0  0  0 
 47 52  1  0  0  0  0 
 52 53  1  0  0  0  0 
 52 54  1  0  0  0  0 
 52 55  1  0  0  0  0 
M  END
> <Rank>
10

> <Priority_score>
0.32720337197049526

> <Reaction_type>
aliphatic hydroxylation

> <Parent_ID>
28

> <Parent_InChI>
InChI=1S/C22H25BrN2O3S/c1-5-28-22(27)20-18(13-29-14-9-7-6-8-10-14)25(4)17-11-16(23)21(26)15(19(17)20)12-24(2)3/h6-11,26H,5,12-13H2,1-4H3

> <Parent_SMILES>
CCOC(=O)c1c(CSc2ccccc2)n(C)c2cc(Br)c(O)c(CN(C)C)c12

$$$$
Molecule 28_metabolite 12
  CDK     0516241031

  9  8  0  0  0  0  0  0  0  0999 V2000
    1.2990   -0.7500    0.0000 C   0  0  0  0  0  0  0  0  0  0  0  0
    0.0000    0.0000    0.0000 H   0  0  0  0  0  0  0  0  0  0  0  0
    0.3349   -1.8991    0.0000 H   0  0  0  0  0  0  0  0  0  0  0  0
    2.2632   -1.8991    0.0000 H   0  0  0  0  0  0  0  0  0  0  0  0
    2.5981   -0.0000    0.0000 C   0  0  0  0  0  0  0  0  0  0  0  0
    3.5623    1.1491    0.0000 H   0  0  0  0  0  0  0  0  0  0  0  0
    1.6339    1.1491    0.0000 H   0  0  0  0  0  0  0  0  0  0  0  0
    3.8971   -0.7500    0.0000 O   0  0  0  0  0  0  0  0  0  0  0  0
    5.1962   -0.0000    0.0000 H   0  0  0  0  0  0  0  0  0  0  0  0
  1  2  1  0  0  0  0 
  1  3  1  0  0  0  0 
  1  4  1  0  0  0  0 
  1  5  1  0  0  0  0 
  5  6  1  0  0  0  0 
  5  7  1  0  0  0  0 
  5  8  1  0  0  0  0 
  8  9  1  0  0  0  0 
M  END
> <Rank>
10

> <Priority_score>
0.32720337197049526

> <Reaction_type>
hydrolysis_(ester)

> <Parent_ID>
28

> <Parent_InChI>
InChI=1S/C22H25BrN2O3S/c1-5-28-22(27)20-18(13-29-14-9-7-6-8-10-14)25(4)17-11-16(23)21(26)15(19(17)20)12-24(2)3/h6-11,26H,5,12-13H2,1-4H3

> <Parent_SMILES>
CCOC(=O)c1c(CSc2ccccc2)n(C)c2cc(Br)c(O)c(CN(C)C)c12

$$$$
Molecule 28_metabolite 13
  CDK     0516241031

  7  6  0  0  0  0  0  0  0  0999 V2000
    2.7500   -0.4868    0.0000 C   0  0  0  0  0  0  0  0  0  0  0  0
    2.7500   -1.9868    0.0000 H   0  0  0  0  0  0  0  0  0  0  0  0
    4.2272   -0.7473    0.0000 H   0  0  0  0  0  0  0  0  0  0  0  0
    3.2631    0.9227    0.0000 H   0  0  0  0  0  0  0  0  0  0  0  0
    1.4510    0.2632    0.0000 C   0  0  0  0  0  0  0  0  0  0  0  0
    1.4510    1.7632    0.0000 H   0  0  0  0  0  0  0  0  0  0  0  0
    0.1520   -0.4868    0.0000 O   0  0  0  0  0  0  0  0  0  0  0  0
  1  2  1  0  0  0  0 
  1  3  1  0  0  0  0 
  1  4  1  0  0  0  0 
  1  5  1  0  0  0  0 
  5  6  1  0  0  0  0 
  5  7  2  0  0  0  0 
M  END
> <Rank>
10

> <Priority_score>
0.32720337197049526

> <Reaction_type>
oxidative ether cleavage to one alcohol and one aldehyde/ketone

> <Parent_ID>
28

> <Parent_InChI>
InChI=1S/C22H25BrN2O3S/c1-5-28-22(27)20-18(13-29-14-9-7-6-8-10-14)25(4)17-11-16(23)21(26)15(19(17)20)12-24(2)3/h6-11,26H,5,12-13H2,1-4H3

> <Parent_SMILES>
CCOC(=O)c1c(CSc2ccccc2)n(C)c2cc(Br)c(O)c(CN(C)C)c12

$$$$
Molecule 28_metabolite 14
  CDK     0516241031

 47 49  0  0  0  0  0  0  0  0999 V2000
    5.5858    4.6822    0.0000 C   0  0  0  0  0  0  0  0  0  0  0  0
    6.0510    6.1082    0.0000 H   0  0  0  0  0  0  0  0  0  0  0  0
    5.6363    3.1830    0.0000 H   0  0  0  0  0  0  0  0  0  0  0  0
    7.0709    4.4716    0.0000 H   0  0  0  0  0  0  0  0  0  0  0  0
    4.1182    4.3721    0.0000 C   0  0  0  0  0  0  0  0  0  0  0  0
    4.0677    5.8712    0.0000 H   0  0  0  0  0  0  0  0  0  0  0  0
    2.6330    4.5827    0.0000 H   0  0  0  0  0  0  0  0  0  0  0  0
    3.6529    2.9461    0.0000 O   0  0  0  0  0  0  0  0  0  0  0  0
    2.1853    2.6360    0.0000 C   0  0  0  0  0  0  0  0  0  0  0  0
    1.1830    3.7520    0.0000 O   0  0  0  0  0  0  0  0  0  0  0  0
    1.7200    1.2100    0.0000 C   0  0  0  0  0  0  0  0  0  0  0  0
    2.6000   -0.0000    0.0000 C   0  0  0  0  0  0  0  0  0  0  0  0
    4.1000   -0.0000    0.0000 C   0  0  0  0  0  0  0  0  0  0  0  0
    5.5095    0.5130    0.0000 H   0  0  0  0  0  0  0  0  0  0  0  0
    3.8395    1.4772    0.0000 H   0  0  0  0  0  0  0  0  0  0  0  0
    4.8500   -1.2990    0.0000 S   0  0  0  0  0  0  0  0  0  0  0  0
    6.3500   -1.2990    0.0000 C   0  0  0  0  0  0  0  0  0  0  0  0
    7.1002   -0.0001    0.0000 C   0  0  0  0  0  0  0  0  0  0  0  0
    6.3506    1.2992    0.0000 H   0  0  0  0  0  0  0  0  0  0  0  0
    8.6010   -0.0008    0.0000 C   0  0  0  0  0  0  0  0  0  0  0  0
    9.3512    1.2981    0.0000 H   0  0  0  0  0  0  0  0  0  0  0  0
    9.3517   -1.3005    0.0000 C   0  0  0  0  0  0  0  0  0  0  0  0
   10.8517   -1.3005    0.0000 H   0  0  0  0  0  0  0  0  0  0  0  0
    8.6015   -2.5994    0.0000 C   0  0  0  0  0  0  0  0  0  0  0  0
    9.3510   -3.8987    0.0000 H   0  0  0  0  0  0  0  0  0  0  0  0
    7.1006   -2.5987    0.0000 C   0  0  0  0  0  0  0  0  0  0  0  0
    6.3504   -3.8976    0.0000 H   0  0  0  0  0  0  0  0  0  0  0  0
    1.7200   -1.2100    0.0000 N   0  0  0  0  0  0  0  0  0  0  0  0
    2.1853   -2.6360    0.0000 C   0  0  0  0  0  0  0  0  0  0  0  0
    1.1830   -3.7520    0.0000 H   0  0  0  0  0  0  0  0  0  0  0  0
    3.1102   -3.8169    0.0000 H   0  0  0  0  0  0  0  0  0  0  0  0
    3.5088   -1.9302    0.0000 H   0  0  0  0  0  0  0  0  0  0  0  0
    0.2900   -0.7500    0.0000 C   0  0  0  0  0  0  0  0  0  0  0  0
    0.2900    0.7500    0.0000 C   0  0  0  0  0  0  0  0  0  0  0  0
   -1.0100    1.5000    0.0000 C   0  0  0  0  0  0  0  0  0  0  0  0
   -2.3100    0.7500    0.0000 C   0  0  0  0  0  0  0  0  0  0  0  0
   -2.3100   -0.7500    0.0000 C   0  0  0  0  0  0  0  0  0  0  0  0
   -1.0100   -1.5000    0.0000 C   0  0  0  0  0  0  0  0  0  0  0  0
   -1.0100   -3.0000    0.0000 H   0  0  0  0  0  0  0  0  0  0  0  0
   -3.6089   -1.5002    0.0000 Br  0  0  0  0  0  0  0  0  0  0  0  0
   -3.6089    1.5002    0.0000 O   0  0  0  0  0  0  0  0  0  0  0  0
   -4.9081    0.7504    0.0000 H   0  0  0  0  0  0  0  0  0  0  0  0
   -1.0100    3.0000    0.0000 C   0  0  0  0  0  0  0  0  0  0  0  0
    0.4672    2.7395    0.0000 H   0  0  0  0  0  0  0  0  0  0  0  0
   -0.4970    4.4095    0.0000 H   0  0  0  0  0  0  0  0  0  0  0  0
   -2.3090    3.7500    0.0000 O   0  0  0  0  0  0  0  0  0  0  0  0
   -2.3090    5.2500    0.0000 H   0  0  0  0  0  0  0  0  0  0  0  0
  1  2  1  0  0  0  0 
  1  3  1  0  0  0  0 
  1  4  1  0  0  0  0 
  1  5  1  0  0  0  0 
  5  6  1  0  0  0  0 
  5  7  1  0  0  0  0 
  5  8  1  0  0  0  0 
  8  9  1  0  0  0  0 
  9 10  2  0  0  0  0 
  9 11  1  0  0  0  0 
 11 12  2  0  0  0  0 
 12 13  1  0  0  0  0 
 13 14  1  0  0  0  0 
 13 15  1  0  0  0  0 
 13 16  1  0  0  0  0 
 16 17  1  0  0  0  0 
 17 18  2  0  0  0  0 
 18 19  1  0  0  0  0 
 18 20  1  0  0  0  0 
 20 21  1  0  0  0  0 
 20 22  2  0  0  0  0 
 22 23  1  0  0  0  0 
 22 24  1  0  0  0  0 
 24 25  1  0  0  0  0 
 24 26  2  0  0  0  0 
 17 26  1  0  0  0  0 
 26 27  1  0  0  0  0 
 12 28  1  0  0  0  0 
 28 29  1  0  0  0  0 
 29 30  1  0  0  0  0 
 29 31  1  0  0  0  0 
 29 32  1  0  0  0  0 
 28 33  1  0  0  0  0 
 33 34  2  0  0  0  0 
 11 34  1  0  0  0  0 
 34 35  1  0  0  0  0 
 35 36  2  0  0  0  0 
 36 37  1  0  0  0  0 
 37 38  2  0  0  0  0 
 33 38  1  0  0  0  0 
 38 39  1  0  0  0  0 
 37 40  1  0  0  0  0 
 36 41  1  0  0  0  0 
 41 42  1  0  0  0  0 
 35 43  1  0  0  0  0 
 43 44  1  0  0  0  0 
 43 45  1  0  0  0  0 
 43 46  1  0  0  0  0 
 46 47  1  0  0  0  0 
M  END
> <Rank>
14

> <Priority_score>
0.2792033719704953

> <Reaction_type>
N-dealkylation_(tertiaryN-CH2-alkyl)

> <Parent_ID>
28

> <Parent_InChI>
InChI=1S/C22H25BrN2O3S/c1-5-28-22(27)20-18(13-29-14-9-7-6-8-10-14)25(4)17-11-16(23)21(26)15(19(17)20)12-24(2)3/h6-11,26H,5,12-13H2,1-4H3

> <Parent_SMILES>
CCOC(=O)c1c(CSc2ccccc2)n(C)c2cc(Br)c(O)c(CN(C)C)c12

$$$$
Molecule 28_metabolite 15
  CDK     0516241031

 10  9  0  0  0  0  0  0  0  0999 V2000
    2.7109   -0.6849    0.0000 C   0  0  0  0  0  0  0  0  0  0  0  0
    1.4118   -1.4349    0.0000 H   0  0  0  0  0  0  0  0  0  0  0  0
    3.2239   -2.0944    0.0000 H   0  0  0  0  0  0  0  0  0  0  0  0
    4.1881   -0.4244    0.0000 H   0  0  0  0  0  0  0  0  0  0  0  0
    2.7109    0.8151    0.0000 N   0  0  0  0  0  0  0  0  0  0  0  0
    4.0099    1.5651    0.0000 H   0  0  0  0  0  0  0  0  0  0  0  0
    1.4118    1.5651    0.0000 C   0  0  0  0  0  0  0  0  0  0  0  0
    1.4118    3.0651    0.0000 H   0  0  0  0  0  0  0  0  0  0  0  0
    0.8988    0.1556    0.0000 H   0  0  0  0  0  0  0  0  0  0  0  0
   -0.0654    1.8256    0.0000 H   0  0  0  0  0  0  0  0  0  0  0  0
  1  2  1  0  0  0  0 
  1  3  1  0  0  0  0 
  1  4  1  0  0  0  0 
  1  5  1  0  0  0  0 
  5  6  1  0  0  0  0 
  5  7  1  0  0  0  0 
  7  8  1  0  0  0  0 
  7  9  1  0  0  0  0 
  7 10  1  0  0  0  0 
M  END
> <Rank>
14

> <Priority_score>
0.2792033719704953

> <Reaction_type>
N-dealkylation_(tertiaryN-CH2-alkyl)

> <Parent_ID>
28

> <Parent_InChI>
InChI=1S/C22H25BrN2O3S/c1-5-28-22(27)20-18(13-29-14-9-7-6-8-10-14)25(4)17-11-16(23)21(26)15(19(17)20)12-24(2)3/h6-11,26H,5,12-13H2,1-4H3

> <Parent_SMILES>
CCOC(=O)c1c(CSc2ccccc2)n(C)c2cc(Br)c(O)c(CN(C)C)c12

$$$$
Molecule 28_metabolite 16
  CDK     0516241031

 55 57  0  0  0  0  0  0  0  0999 V2000
    5.5858    4.6822    0.0000 C   0  0  0  0  0  0  0  0  0  0  0  0
    6.0510    6.1082    0.0000 H   0  0  0  0  0  0  0  0  0  0  0  0
    5.6363    3.1830    0.0000 H   0  0  0  0  0  0  0  0  0  0  0  0
    7.0709    4.4716    0.0000 H   0  0  0  0  0  0  0  0  0  0  0  0
    4.1182    4.3721    0.0000 C   0  0  0  0  0  0  0  0  0  0  0  0
    4.0677    5.8712    0.0000 H   0  0  0  0  0  0  0  0  0  0  0  0
    2.6330    4.5827    0.0000 H   0  0  0  0  0  0  0  0  0  0  0  0
    3.6529    2.9461    0.0000 O   0  0  0  0  0  0  0  0  0  0  0  0
    2.1853    2.6360    0.0000 C   0  0  0  0  0  0  0  0  0  0  0  0
    1.1830    3.7520    0.0000 O   0  0  0  0  0  0  0  0  0  0  0  0
    1.7200    1.2100    0.0000 C   0  0  0  0  0  0  0  0  0  0  0  0
    2.6000   -0.0000    0.0000 C   0  0  0  0  0  0  0  0  0  0  0  0
    4.1000   -0.0000    0.0000 C   0  0  0  0  0  0  0  0  0  0  0  0
    5.5095    0.5130    0.0000 H   0  0  0  0  0  0  0  0  0  0  0  0
    3.8395    1.4772    0.0000 H   0  0  0  0  0  0  0  0  0  0  0  0
    4.8500   -1.2990    0.0000 S   0  0  0  0  0  0  0  0  0  0  0  0
    6.3500   -1.2990    0.0000 C   0  0  0  0  0  0  0  0  0  0  0  0
    7.1002   -0.0001    0.0000 C   0  0  0  0  0  0  0  0  0  0  0  0
    6.3506    1.2992    0.0000 H   0  0  0  0  0  0  0  0  0  0  0  0
    8.6010   -0.0008    0.0000 C   0  0  0  0  0  0  0  0  0  0  0  0
    9.3512    1.2981    0.0000 H   0  0  0  0  0  0  0  0  0  0  0  0
    9.3517   -1.3005    0.0000 C   0  0  0  0  0  0  0  0  0  0  0  0
   10.8517   -1.3005    0.0000 H   0  0  0  0  0  0  0  0  0  0  0  0
    8.6015   -2.5994    0.0000 C   0  0  0  0  0  0  0  0  0  0  0  0
    9.3510   -3.8987    0.0000 H   0  0  0  0  0  0  0  0  0  0  0  0
    7.1006   -2.5987    0.0000 C   0  0  0  0  0  0  0  0  0  0  0  0
    6.3504   -3.8976    0.0000 H   0  0  0  0  0  0  0  0  0  0  0  0
    1.7200   -1.2100    0.0000 N   0  0  0  0  0  0  0  0  0  0  0  0
    2.1853   -2.6360    0.0000 C   0  0  0  0  0  0  0  0  0  0  0  0
    1.1830   -3.7520    0.0000 H   0  0  0  0  0  0  0  0  0  0  0  0
    3.1102   -3.8169    0.0000 H   0  0  0  0  0  0  0  0  0  0  0  0
    3.5088   -1.9302    0.0000 H   0  0  0  0  0  0  0  0  0  0  0  0
    0.2900   -0.7500    0.0000 C   0  0  0  0  0  0  0  0  0  0  0  0
   -1.0100   -1.5000    0.0000 C   0  0  0  0  0  0  0  0  0  0  0  0
   -1.0100   -3.0000    0.0000 H   0  0  0  0  0  0  0  0  0  0  0  0
   -2.3100   -0.7500    0.0000 C   0  0  0  0  0  0  0  0  0  0  0  0
   -2.3100    0.7500    0.0000 C   0  0  0  0  0  0  0  0  0  0  0  0
   -1.0100    1.5000    0.0000 C   0  0  0  0  0  0  0  0  0  0  0  0
    0.2900    0.7500    0.0000 C   0  0  0  0  0  0  0  0  0  0  0  0
   -1.0100    3.0000    0.0000 C   0  0  0  0  0  0  0  0  0  0  0  0
    0.4672    2.7395    0.0000 H   0  0  0  0  0  0  0  0  0  0  0  0
   -2.3090    3.7500    0.0000 N   0  0  0  0  0  0  0  0  0  0  0  0
   -3.6081    3.0000    0.0000 C   0  0  0  0  0  0  0  0  0  0  0  0
   -4.9071    3.7500    0.0000 H   0  0  0  0  0  0  0  0  0  0  0  0
   -4.5723    1.8509    0.0000 H   0  0  0  0  0  0  0  0  0  0  0  0
   -2.6439    1.8509    0.0000 H   0  0  0  0  0  0  0  0  0  0  0  0
   -2.3090    5.2500    0.0000 C   0  0  0  0  0  0  0  0  0  0  0  0
   -1.0100    6.0000    0.0000 H   0  0  0  0  0  0  0  0  0  0  0  0
   -3.7862    4.9895    0.0000 H   0  0  0  0  0  0  0  0  0  0  0  0
   -2.8221    6.6595    0.0000 H   0  0  0  0  0  0  0  0  0  0  0  0
   -0.4970    4.4095    0.0000 O   0  0  0  0  0  0  0  0  0  0  0  0
    0.9802    4.6700    0.0000 H   0  0  0  0  0  0  0  0  0  0  0  0
   -3.6089    1.5002    0.0000 O   0  0  0  0  0  0  0  0  0  0  0  0
   -4.9081    0.7504    0.0000 H   0  0  0  0  0  0  0  0  0  0  0  0
   -3.6089   -1.5002    0.0000 Br  0  0  0  0  0  0  0  0  0  0  0  0
  1  2  1  0  0  0  0 
  1  3  1  0  0  0  0 
  1  4  1  0  0  0  0 
  1  5  1  0  0  0  0 
  5  6  1  0  0  0  0 
  5  7  1  0  0  0  0 
  5  8  1  0  0  0  0 
  8  9  1  0  0  0  0 
  9 10  2  0  0  0  0 
  9 11  1  0  0  0  0 
 11 12  2  0  0  0  0 
 12 13  1  0  0  0  0 
 13 14  1  0  0  0  0 
 13 15  1  0  0  0  0 
 13 16  1  0  0  0  0 
 16 17  1  0  0  0  0 
 17 18  2  0  0  0  0 
 18 19  1  0  0  0  0 
 18 20  1  0  0  0  0 
 20 21  1  0  0  0  0 
 20 22  2  0  0  0  0 
 22 23  1  0  0  0  0 
 22 24  1  0  0  0  0 
 24 25  1  0  0  0  0 
 24 26  2  0  0  0  0 
 17 26  1  0  0  0  0 
 26 27  1  0  0  0  0 
 12 28  1  0  0  0  0 
 28 29  1  0  0  0  0 
 29 30  1  0  0  0  0 
 29 31  1  0  0  0  0 
 29 32  1  0  0  0  0 
 28 33  1  0  0  0  0 
 33 34  2  0  0  0  0 
 34 35  1  0  0  0  0 
 34 36  1  0  0  0  0 
 36 37  2  0  0  0  0 
 37 38  1  0  0  0  0 
 38 39  2  0  0  0  0 
 33 39  1  0  0  0  0 
 11 39  1  0  0  0  0 
 38 40  1  0  0  0  0 
 40 41  1  0  0  0  0 
 40 42  1  0  0  0  0 
 42 43  1  0  0  0  0 
 43 44  1  0  0  0  0 
 43 45  1  0  0  0  0 
 43 46  1  0  0  0  0 
 42 47  1  0  0  0  0 
 47 48  1  0  0  0  0 
 47 49  1  0  0  0  0 
 47 50  1  0  0  0  0 
 40 51  1  0  0  0  0 
 51 52  1  0  0  0  0 
 37 53  1  0  0  0  0 
 53 54  1  0  0  0  0 
 36 55  1  0  0  0  0 
M  END
> <Rank>
14

> <Priority_score>
0.2792033719704953

> <Reaction_type>
benzylic_hydroxylation_(c-CH2-N)

> <Parent_ID>
28

> <Parent_InChI>
InChI=1S/C22H25BrN2O3S/c1-5-28-22(27)20-18(13-29-14-9-7-6-8-10-14)25(4)17-11-16(23)21(26)15(19(17)20)12-24(2)3/h6-11,26H,5,12-13H2,1-4H3

> <Parent_SMILES>
CCOC(=O)c1c(CSc2ccccc2)n(C)c2cc(Br)c(O)c(CN(C)C)c12

$$$$
Molecule 28_metabolite 17
  CDK     0516241031

 45 47  0  0  0  0  0  0  0  0999 V2000
    5.5858    4.6822    0.0000 C   0  0  0  0  0  0  0  0  0  0  0  0
    6.0510    6.1082    0.0000 H   0  0  0  0  0  0  0  0  0  0  0  0
    5.6363    3.1830    0.0000 H   0  0  0  0  0  0  0  0  0  0  0  0
    7.0709    4.4716    0.0000 H   0  0  0  0  0  0  0  0  0  0  0  0
    4.1182    4.3721    0.0000 C   0  0  0  0  0  0  0  0  0  0  0  0
    4.0677    5.8712    0.0000 H   0  0  0  0  0  0  0  0  0  0  0  0
    2.6330    4.5827    0.0000 H   0  0  0  0  0  0  0  0  0  0  0  0
    3.6529    2.9461    0.0000 O   0  0  0  0  0  0  0  0  0  0  0  0
    2.1853    2.6360    0.0000 C   0  0  0  0  0  0  0  0  0  0  0  0
    1.1830    3.7520    0.0000 O   0  0  0  0  0  0  0  0  0  0  0  0
    1.7200    1.2100    0.0000 C   0  0  0  0  0  0  0  0  0  0  0  0
    2.6000   -0.0000    0.0000 C   0  0  0  0  0  0  0  0  0  0  0  0
    4.1000   -0.0000    0.0000 C   0  0  0  0  0  0  0  0  0  0  0  0
    5.5095    0.5130    0.0000 H   0  0  0  0  0  0  0  0  0  0  0  0
    3.8395    1.4772    0.0000 H   0  0  0  0  0  0  0  0  0  0  0  0
    4.8500   -1.2990    0.0000 S   0  0  0  0  0  0  0  0  0  0  0  0
    6.3500   -1.2990    0.0000 C   0  0  0  0  0  0  0  0  0  0  0  0
    7.1002   -0.0001    0.0000 C   0  0  0  0  0  0  0  0  0  0  0  0
    6.3506    1.2992    0.0000 H   0  0  0  0  0  0  0  0  0  0  0  0
    8.6010   -0.0008    0.0000 C   0  0  0  0  0  0  0  0  0  0  0  0
    9.3512    1.2981    0.0000 H   0  0  0  0  0  0  0  0  0  0  0  0
    9.3517   -1.3005    0.0000 C   0  0  0  0  0  0  0  0  0  0  0  0
   10.8517   -1.3005    0.0000 H   0  0  0  0  0  0  0  0  0  0  0  0
    8.6015   -2.5994    0.0000 C   0  0  0  0  0  0  0  0  0  0  0  0
    9.3510   -3.8987    0.0000 H   0  0  0  0  0  0  0  0  0  0  0  0
    7.1006   -2.5987    0.0000 C   0  0  0  0  0  0  0  0  0  0  0  0
    6.3504   -3.8976    0.0000 H   0  0  0  0  0  0  0  0  0  0  0  0
    1.7200   -1.2100    0.0000 N   0  0  0  0  0  0  0  0  0  0  0  0
    2.1853   -2.6360    0.0000 C   0  0  0  0  0  0  0  0  0  0  0  0
    1.1830   -3.7520    0.0000 H   0  0  0  0  0  0  0  0  0  0  0  0
    3.1102   -3.8169    0.0000 H   0  0  0  0  0  0  0  0  0  0  0  0
    3.5088   -1.9302    0.0000 H   0  0  0  0  0  0  0  0  0  0  0  0
    0.2900   -0.7500    0.0000 C   0  0  0  0  0  0  0  0  0  0  0  0
    0.2900    0.7500    0.0000 C   0  0  0  0  0  0  0  0  0  0  0  0
   -1.0100    1.5000    0.0000 C   0  0  0  0  0  0  0  0  0  0  0  0
   -2.3100    0.7500    0.0000 C   0  0  0  0  0  0  0  0  0  0  0  0
   -2.3100   -0.7500    0.0000 C   0  0  0  0  0  0  0  0  0  0  0  0
   -1.0100   -1.5000    0.0000 C   0  0  0  0  0  0  0  0  0  0  0  0
   -1.0100   -3.0000    0.0000 H   0  0  0  0  0  0  0  0  0  0  0  0
   -3.6089   -1.5002    0.0000 Br  0  0  0  0  0  0  0  0  0  0  0  0
   -3.6089    1.5002    0.0000 O   0  0  0  0  0  0  0  0  0  0  0  0
   -4.9081    0.7504    0.0000 H   0  0  0  0  0  0  0  0  0  0  0  0
   -1.0100    3.0000    0.0000 C   0  0  0  0  0  0  0  0  0  0  0  0
   -2.3090    3.7500    0.0000 H   0  0  0  0  0  0  0  0  0  0  0  0
    0.2890    3.7500    0.0000 O   0  0  0  0  0  0  0  0  0  0  0  0
  1  2  1  0  0  0  0 
  1  3  1  0  0  0  0 
  1  4  1  0  0  0  0 
  1  5  1  0  0  0  0 
  5  6  1  0  0  0  0 
  5  7  1  0  0  0  0 
  5  8  1  0  0  0  0 
  8  9  1  0  0  0  0 
  9 10  2  0  0  0  0 
  9 11  1  0  0  0  0 
 11 12  2  0  0  0  0 
 12 13  1  0  0  0  0 
 13 14  1  0  0  0  0 
 13 15  1  0  0  0  0 
 13 16  1  0  0  0  0 
 16 17  1  0  0  0  0 
 17 18  2  0  0  0  0 
 18 19  1  0  0  0  0 
 18 20  1  0  0  0  0 
 20 21  1  0  0  0  0 
 20 22  2  0  0  0  0 
 22 23  1  0  0  0  0 
 22 24  1  0  0  0  0 
 24 25  1  0  0  0  0 
 24 26  2  0  0  0  0 
 17 26  1  0  0  0  0 
 26 27  1  0  0  0  0 
 12 28  1  0  0  0  0 
 28 29  1  0  0  0  0 
 29 30  1  0  0  0  0 
 29 31  1  0  0  0  0 
 29 32  1  0  0  0  0 
 28 33  1  0  0  0  0 
 33 34  2  0  0  0  0 
 11 34  1  0  0  0  0 
 34 35  1  0  0  0  0 
 35 36  2  0  0  0  0 
 36 37  1  0  0  0  0 
 37 38  2  0  0  0  0 
 33 38  1  0  0  0  0 
 38 39  1  0  0  0  0 
 37 40  1  0  0  0  0 
 36 41  1  0  0  0  0 
 41 42  1  0  0  0  0 
 35 43  1  0  0  0  0 
 43 44  1  0  0  0  0 
 43 45  2  0  0  0  0 
M  END
> <Rank>
14

> <Priority_score>
0.2792033719704953

> <Reaction_type>
N-dealkylation

> <Parent_ID>
28

> <Parent_InChI>
InChI=1S/C22H25BrN2O3S/c1-5-28-22(27)20-18(13-29-14-9-7-6-8-10-14)25(4)17-11-16(23)21(26)15(19(17)20)12-24(2)3/h6-11,26H,5,12-13H2,1-4H3

> <Parent_SMILES>
CCOC(=O)c1c(CSc2ccccc2)n(C)c2cc(Br)c(O)c(CN(C)C)c12

$$$$
Molecule 28_metabolite 18
  CDK     0516241031

 55 57  0  0  0  0  0  0  0  0999 V2000
    5.5858    4.6822    0.0000 C   0  0  0  0  0  0  0  0  0  0  0  0
    6.0510    6.1082    0.0000 H   0  0  0  0  0  0  0  0  0  0  0  0
    5.6363    3.1830    0.0000 H   0  0  0  0  0  0  0  0  0  0  0  0
    7.0709    4.4716    0.0000 H   0  0  0  0  0  0  0  0  0  0  0  0
    4.1182    4.3721    0.0000 C   0  0  0  0  0  0  0  0  0  0  0  0
    4.0677    5.8712    0.0000 H   0  0  0  0  0  0  0  0  0  0  0  0
    2.6330    4.5827    0.0000 H   0  0  0  0  0  0  0  0  0  0  0  0
    3.6529    2.9461    0.0000 O   0  0  0  0  0  0  0  0  0  0  0  0
    2.1853    2.6360    0.0000 C   0  0  0  0  0  0  0  0  0  0  0  0
    1.1830    3.7520    0.0000 O   0  0  0  0  0  0  0  0  0  0  0  0
    1.7200    1.2100    0.0000 C   0  0  0  0  0  0  0  0  0  0  0  0
    2.6000   -0.0000    0.0000 C   0  0  0  0  0  0  0  0  0  0  0  0
    4.1000   -0.0000    0.0000 C   0  0  0  0  0  0  0  0  0  0  0  0
    5.5095    0.5130    0.0000 H   0  0  0  0  0  0  0  0  0  0  0  0
    3.8395    1.4772    0.0000 O   0  0  0  0  0  0  0  0  0  0  0  0
    4.9886    2.4414    0.0000 H   0  0  0  0  0  0  0  0  0  0  0  0
    4.8500   -1.2990    0.0000 S   0  0  0  0  0  0  0  0  0  0  0  0
    6.3500   -1.2990    0.0000 C   0  0  0  0  0  0  0  0  0  0  0  0
    7.1002   -0.0001    0.0000 C   0  0  0  0  0  0  0  0  0  0  0  0
    6.3506    1.2992    0.0000 H   0  0  0  0  0  0  0  0  0  0  0  0
    8.6010   -0.0008    0.0000 C   0  0  0  0  0  0  0  0  0  0  0  0
    9.3512    1.2981    0.0000 H   0  0  0  0  0  0  0  0  0  0  0  0
    9.3517   -1.3005    0.0000 C   0  0  0  0  0  0  0  0  0  0  0  0
   10.8517   -1.3005    0.0000 H   0  0  0  0  0  0  0  0  0  0  0  0
    8.6015   -2.5994    0.0000 C   0  0  0  0  0  0  0  0  0  0  0  0
    9.3510   -3.8987    0.0000 H   0  0  0  0  0  0  0  0  0  0  0  0
    7.1006   -2.5987    0.0000 C   0  0  0  0  0  0  0  0  0  0  0  0
    6.3504   -3.8976    0.0000 H   0  0  0  0  0  0  0  0  0  0  0  0
    1.7200   -1.2100    0.0000 N   0  0  0  0  0  0  0  0  0  0  0  0
    2.1853   -2.6360    0.0000 C   0  0  0  0  0  0  0  0  0  0  0  0
    1.1830   -3.7520    0.0000 H   0  0  0  0  0  0  0  0  0  0  0  0
    3.1102   -3.8169    0.0000 H   0  0  0  0  0  0  0  0  0  0  0  0
    3.5088   -1.9302    0.0000 H   0  0  0  0  0  0  0  0  0  0  0  0
    0.2900   -0.7500    0.0000 C   0  0  0  0  0  0  0  0  0  0  0  0
    0.2900    0.7500    0.0000 C   0  0  0  0  0  0  0  0  0  0  0  0
   -1.0100    1.5000    0.0000 C   0  0  0  0  0  0  0  0  0  0  0  0
   -2.3100    0.7500    0.0000 C   0  0  0  0  0  0  0  0  0  0  0  0
   -2.3100   -0.7500    0.0000 C   0  0  0  0  0  0  0  0  0  0  0  0
   -1.0100   -1.5000    0.0000 C   0  0  0  0  0  0  0  0  0  0  0  0
   -1.0100   -3.0000    0.0000 H   0  0  0  0  0  0  0  0  0  0  0  0
   -3.6089   -1.5002    0.0000 Br  0  0  0  0  0  0  0  0  0  0  0  0
   -3.6089    1.5002    0.0000 O   0  0  0  0  0  0  0  0  0  0  0  0
   -4.9081    0.7504    0.0000 H   0  0  0  0  0  0  0  0  0  0  0  0
   -1.0100    3.0000    0.0000 C   0  0  0  0  0  0  0  0  0  0  0  0
    0.4672    2.7395    0.0000 H   0  0  0  0  0  0  0  0  0  0  0  0
   -0.4970    4.4095    0.0000 H   0  0  0  0  0  0  0  0  0  0  0  0
   -2.3090    3.7500    0.0000 N   0  0  0  0  0  0  0  0  0  0  0  0
   -3.6081    3.0000    0.0000 C   0  0  0  0  0  0  0  0  0  0  0  0
   -4.9071    3.7500    0.0000 H   0  0  0  0  0  0  0  0  0  0  0  0
   -4.5723    1.8509    0.0000 H   0  0  0  0  0  0  0  0  0  0  0  0
   -2.6439    1.8509    0.0000 H   0  0  0  0  0  0  0  0  0  0  0  0
   -2.3090    5.2500    0.0000 C   0  0  0  0  0  0  0  0  0  0  0  0
   -1.0100    6.0000    0.0000 H   0  0  0  0  0  0  0  0  0  0  0  0
   -3.7862    4.9895    0.0000 H   0  0  0  0  0  0  0  0  0  0  0  0
   -2.8221    6.6595    0.0000 H   0  0  0  0  0  0  0  0  0  0  0  0
  1  2  1  0  0  0  0 
  1  3  1  0  0  0  0 
  1  4  1  0  0  0  0 
  1  5  1  0  0  0  0 
  5  6  1  0  0  0  0 
  5  7  1  0  0  0  0 
  5  8  1  0  0  0  0 
  8  9  1  0  0  0  0 
  9 10  2  0  0  0  0 
  9 11  1  0  0  0  0 
 11 12  2  0  0  0  0 
 12 13  1  0  0  0  0 
 13 14  1  0  0  0  0 
 13 15  1  0  0  0  0 
 15 16  1  0  0  0  0 
 13 17  1  0  0  0  0 
 17 18  1  0  0  0  0 
 18 19  2  0  0  0  0 
 19 20  1  0  0  0  0 
 19 21  1  0  0  0  0 
 21 22  1  0  0  0  0 
 21 23  2  0  0  0  0 
 23 24  1  0  0  0  0 
 23 25  1  0  0  0  0 
 25 26  1  0  0  0  0 
 25 27  2  0  0  0  0 
 18 27  1  0  0  0  0 
 27 28  1  0  0  0  0 
 12 29  1  0  0  0  0 
 29 30  1  0  0  0  0 
 30 31  1  0  0  0  0 
 30 32  1  0  0  0  0 
 30 33  1  0  0  0  0 
 29 34  1  0  0  0  0 
 34 35  2  0  0  0  0 
 11 35  1  0  0  0  0 
 35 36  1  0  0  0  0 
 36 37  2  0  0  0  0 
 37 38  1  0  0  0  0 
 38 39  2  0  0  0  0 
 34 39  1  0  0  0  0 
 39 40  1  0  0  0  0 
 38 41  1  0  0  0  0 
 37 42  1  0  0  0  0 
 42 43  1  0  0  0  0 
 36 44  1  0  0  0  0 
 44 45  1  0  0  0  0 
 44 46  1  0  0  0  0 
 44 47  1  0  0  0  0 
 47 48  1  0  0  0  0 
 48 49  1  0  0  0  0 
 48 50  1  0  0  0  0 
 48 51  1  0  0  0  0 
 47 52  1  0  0  0  0 
 52 53  1  0  0  0  0 
 52 54  1  0  0  0  0 
 52 55  1  0  0  0  0 
M  END
> <Rank>
18

> <Priority_score>
0.232

> <Reaction_type>
aliphatic hydroxylation

> <Parent_ID>
28

> <Parent_InChI>
InChI=1S/C22H25BrN2O3S/c1-5-28-22(27)20-18(13-29-14-9-7-6-8-10-14)25(4)17-11-16(23)21(26)15(19(17)20)12-24(2)3/h6-11,26H,5,12-13H2,1-4H3

> <Parent_SMILES>
CCOC(=O)c1c(CSc2ccccc2)n(C)c2cc(Br)c(O)c(CN(C)C)c12

$$$$
Molecule 28_metabolite 19
  CDK     0516241031

 89 91  0  0  0  0  0  0  0  0999 V2000
    5.5858    4.2022    0.0000 C   0  0  0  0  0  0  0  0  0  0  0  0
    6.0510    5.6282    0.0000 H   0  0  0  0  0  0  0  0  0  0  0  0
    5.6363    2.7030    0.0000 H   0  0  0  0  0  0  0  0  0  0  0  0
    7.0709    3.9916    0.0000 H   0  0  0  0  0  0  0  0  0  0  0  0
    4.1182    3.8921    0.0000 C   0  0  0  0  0  0  0  0  0  0  0  0
    4.0677    5.3912    0.0000 H   0  0  0  0  0  0  0  0  0  0  0  0
    2.6330    4.1027    0.0000 H   0  0  0  0  0  0  0  0  0  0  0  0
    3.6529    2.4661    0.0000 O   0  0  0  0  0  0  0  0  0  0  0  0
    2.1853    2.1560    0.0000 C   0  0  0  0  0  0  0  0  0  0  0  0
    1.1830    3.2720    0.0000 O   0  0  0  0  0  0  0  0  0  0  0  0
    1.5711    0.2737    0.0000 C   0  0  0  0  0  0  0  0  0  0  0  0
    2.4511   -0.9363    0.0000 C   0  0  0  0  0  0  0  0  0  0  0  0
    3.9511   -0.9363    0.0000 C   0  0  0  0  0  0  0  0  0  0  0  0
    5.3607   -0.4233    0.0000 H   0  0  0  0  0  0  0  0  0  0  0  0
    3.6906    0.5409    0.0000 H   0  0  0  0  0  0  0  0  0  0  0  0
    4.7011   -2.2354    0.0000 S   0  0  0  0  0  0  0  0  0  0  0  0
    6.2011   -2.2354    0.0000 C   0  0  0  0  0  0  0  0  0  0  0  0
    6.9513   -0.9364    0.0000 C   0  0  0  0  0  0  0  0  0  0  0  0
    6.2017    0.3628    0.0000 H   0  0  0  0  0  0  0  0  0  0  0  0
    8.4522   -0.9372    0.0000 C   0  0  0  0  0  0  0  0  0  0  0  0
    9.2024    0.3618    0.0000 H   0  0  0  0  0  0  0  0  0  0  0  0
    9.2028   -2.2368    0.0000 C   0  0  0  0  0  0  0  0  0  0  0  0
   10.7028   -2.2368    0.0000 H   0  0  0  0  0  0  0  0  0  0  0  0
    8.4526   -3.5357    0.0000 C   0  0  0  0  0  0  0  0  0  0  0  0
    9.2022   -4.8350    0.0000 H   0  0  0  0  0  0  0  0  0  0  0  0
    6.9517   -3.5350    0.0000 C   0  0  0  0  0  0  0  0  0  0  0  0
    6.2015   -4.8339    0.0000 H   0  0  0  0  0  0  0  0  0  0  0  0
    1.5711   -2.1463    0.0000 N   0  0  0  0  0  0  0  0  0  0  0  0
    2.0364   -3.5723    0.0000 C   0  0  0  0  0  0  0  0  0  0  0  0
    1.0341   -4.6883    0.0000 H   0  0  0  0  0  0  0  0  0  0  0  0
    2.9613   -4.7532    0.0000 H   0  0  0  0  0  0  0  0  0  0  0  0
    3.3599   -2.8665    0.0000 H   0  0  0  0  0  0  0  0  0  0  0  0
    0.1411   -1.6863    0.0000 C   0  0  0  0  0  0  0  0  0  0  0  0
    0.1411   -0.1863    0.0000 C   0  0  0  0  0  0  0  0  0  0  0  0
   -1.1589    0.5637    0.0000 C   0  0  0  0  0  0  0  0  0  0  0  0
   -2.4589   -0.1863    0.0000 C   0  0  0  0  0  0  0  0  0  0  0  0
   -2.4589   -1.6863    0.0000 C   0  0  0  0  0  0  0  0  0  0  0  0
   -1.1589   -2.4363    0.0000 C   0  0  0  0  0  0  0  0  0  0  0  0
   -1.1589   -3.9363    0.0000 H   0  0  0  0  0  0  0  0  0  0  0  0
   -3.7578   -2.4365    0.0000 S   0  0  0  0  0  0  0  0  0  0  0  0
   -5.0570   -1.6867    0.0000 C   0  0  0  0  0  0  0  0  0  0  0  0
   -4.0930   -0.5375    0.0000 H   0  0  0  0  0  0  0  0  0  0  0  0
   -6.0213   -0.5378    0.0000 H   0  0  0  0  0  0  0  0  0  0  0  0
   -6.3559   -2.4369    0.0000 C   0  0  0  0  0  0  0  0  0  0  0  0
   -7.3199   -3.5862    0.0000 H   0  0  0  0  0  0  0  0  0  0  0  0
   -5.3915   -3.5859    0.0000 C   0  0  0  0  0  0  0  0  0  0  0  0
   -3.9143   -3.3252    0.0000 O   0  0  0  0  0  0  0  0  0  0  0  0
   -5.9043   -4.9955    0.0000 N   0  0  0  0  0  0  0  0  0  0  0  0
   -7.3815   -5.2562    0.0000 H   0  0  0  0  0  0  0  0  0  0  0  0
   -4.9400   -6.1444    0.0000 C   0  0  0  0  0  0  0  0  0  0  0  0
   -3.9760   -4.9952    0.0000 H   0  0  0  0  0  0  0  0  0  0  0  0
   -3.6408   -6.8942    0.0000 H   0  0  0  0  0  0  0  0  0  0  0  0
   -5.4528   -7.5540    0.0000 C   0  0  0  0  0  0  0  0  0  0  0  0
   -6.9299   -7.8147    0.0000 O   0  0  0  0  0  0  0  0  0  0  0  0
   -4.4884   -8.7029    0.0000 O   0  0  0  0  0  0  0  0  0  0  0  0
   -5.0012  -10.1125    0.0000 H   0  0  0  0  0  0  0  0  0  0  0  0
   -7.6550   -1.6872    0.0000 N   0  0  0  0  0  0  0  0  0  0  0  0
   -7.6553   -0.1872    0.0000 H   0  0  0  0  0  0  0  0  0  0  0  0
   -8.9540   -2.4374    0.0000 C   0  0  0  0  0  0  0  0  0  0  0  0
   -8.9537   -3.9374    0.0000 O   0  0  0  0  0  0  0  0  0  0  0  0
  -10.2531   -1.6876    0.0000 C   0  0  0  0  0  0  0  0  0  0  0  0
   -9.2891   -0.5384    0.0000 H   0  0  0  0  0  0  0  0  0  0  0  0
  -11.2175   -0.5387    0.0000 H   0  0  0  0  0  0  0  0  0  0  0  0
  -11.9677   -2.6778    0.0000 C   0  0  0  0  0  0  0  0  0  0  0  0
  -12.9317   -3.8271    0.0000 H   0  0  0  0  0  0  0  0  0  0  0  0
  -11.0033   -3.8268    0.0000 H   0  0  0  0  0  0  0  0  0  0  0  0
  -13.2668   -1.9281    0.0000 C   0  0  0  0  0  0  0  0  0  0  0  0
  -12.3028   -0.7788    0.0000 H   0  0  0  0  0  0  0  0  0  0  0  0
  -14.5658   -2.6783    0.0000 C   0  0  0  0  0  0  0  0  0  0  0  0
  -14.5655   -4.1783    0.0000 O   0  0  0  0  0  0  0  0  0  0  0  0
  -15.8649   -1.9285    0.0000 O   0  0  0  0  0  0  0  0  0  0  0  0
  -17.1638   -2.6787    0.0000 H   0  0  0  0  0  0  0  0  0  0  0  0
  -14.2312   -0.7791    0.0000 N   0  0  0  0  0  0  0  0  0  0  0  0
  -15.7084   -1.0399    0.0000 H   0  0  0  0  0  0  0  0  0  0  0  0
  -13.7184    0.6305    0.0000 H   0  0  0  0  0  0  0  0  0  0  0  0
   -3.7578    0.5639    0.0000 O   0  0  0  0  0  0  0  0  0  0  0  0
   -3.7576    2.0639    0.0000 H   0  0  0  0  0  0  0  0  0  0  0  0
   -1.1589    2.0637    0.0000 C   0  0  0  0  0  0  0  0  0  0  0  0
   -1.6719    3.4732    0.0000 H   0  0  0  0  0  0  0  0  0  0  0  0
   -2.6361    1.8032    0.0000 H   0  0  0  0  0  0  0  0  0  0  0  0
    0.1401    2.8137    0.0000 N   0  0  0  0  0  0  0  0  0  0  0  0
    0.1401    4.7937    0.0000 C   0  0  0  0  0  0  0  0  0  0  0  0
    1.4392    5.5437    0.0000 H   0  0  0  0  0  0  0  0  0  0  0  0
   -0.3729    6.2032    0.0000 H   0  0  0  0  0  0  0  0  0  0  0  0
   -1.3371    4.5332    0.0000 H   0  0  0  0  0  0  0  0  0  0  0  0
    1.4392    2.0637    0.0000 C   0  0  0  0  0  0  0  0  0  0  0  0
    2.7382    2.8137    0.0000 H   0  0  0  0  0  0  0  0  0  0  0  0
    0.4750    0.9146    0.0000 H   0  0  0  0  0  0  0  0  0  0  0  0
    2.4034    0.9146    0.0000 H   0  0  0  0  0  0  0  0  0  0  0  0
  1  2  1  0  0  0  0 
  1  3  1  0  0  0  0 
  1  4  1  0  0  0  0 
  1  5  1  0  0  0  0 
  5  6  1  0  0  0  0 
  5  7  1  0  0  0  0 
  5  8  1  0  0  0  0 
  8  9  1  0  0  0  0 
  9 10  2  0  0  0  0 
  9 11  1  0  0  0  0 
 11 12  2  0  0  0  0 
 12 13  1  0  0  0  0 
 13 14  1  0  0  0  0 
 13 15  1  0  0  0  0 
 13 16  1  0  0  0  0 
 16 17  1  0  0  0  0 
 17 18  2  0  0  0  0 
 18 19  1  0  0  0  0 
 18 20  1  0  0  0  0 
 20 21  1  0  0  0  0 
 20 22  2  0  0  0  0 
 22 23  1  0  0  0  0 
 22 24  1  0  0  0  0 
 24 25  1  0  0  0  0 
 24 26  2  0  0  0  0 
 17 26  1  0  0  0  0 
 26 27  1  0  0  0  0 
 12 28  1  0  0  0  0 
 28 29  1  0  0  0  0 
 29 30  1  0  0  0  0 
 29 31  1  0  0  0  0 
 29 32  1  0  0  0  0 
 28 33  1  0  0  0  0 
 33 34  2  0  0  0  0 
 11 34  1  0  0  0  0 
 34 35  1  0  0  0  0 
 35 36  2  0  0  0  0 
 36 37  1  0  0  0  0 
 37 38  2  0  0  0  0 
 33 38  1  0  0  0  0 
 38 39  1  0  0  0  0 
 37 40  1  0  0  0  0 
 40 41  1  0  0  0  0 
 41 42  1  0  0  0  0 
 41 43  1  0  0  0  0 
 41 44  1  0  0  0  0 
 44 45  1  0  0  0  0 
 44 46  1  0  0  0  0 
 46 47  2  0  0  0  0 
 46 48  1  0  0  0  0 
 48 49  1  0  0  0  0 
 48 50  1  0  0  0  0 
 50 51  1  0  0  0  0 
 50 52  1  0  0  0  0 
 50 53  1  0  0  0  0 
 53 54  2  0  0  0  0 
 53 55  1  0  0  0  0 
 55 56  1  0  0  0  0 
 44 57  1  0  0  0  0 
 57 58  1  0  0  0  0 
 57 59  1  0  0  0  0 
 59 60  2  0  0  0  0 
 59 61  1  0  0  0  0 
 61 62  1  0  0  0  0 
 61 63  1  0  0  0  0 
 61 64  1  0  0  0  0 
 64 65  1  0  0  0  0 
 64 66  1  0  0  0  0 
 64 67  1  0  0  0  0 
 67 68  1  0  0  0  0 
 67 69  1  0  0  0  0 
 69 70  2  0  0  0  0 
 69 71  1  0  0  0  0 
 71 72  1  0  0  0  0 
 67 73  1  0  0  0  0 
 73 74  1  0  0  0  0 
 73 75  1  0  0  0  0 
 36 76  1  0  0  0  0 
 76 77  1  0  0  0  0 
 35 78  1  0  0  0  0 
 78 79  1  0  0  0  0 
 78 80  1  0  0  0  0 
 78 81  1  0  0  0  0 
 81 82  1  0  0  0  0 
 82 83  1  0  0  0  0 
 82 84  1  0  0  0  0 
 82 85  1  0  0  0  0 
 81 86  1  0  0  0  0 
 86 87  1  0  0  0  0 
 86 88  1  0  0  0  0 
 86 89  1  0  0  0  0 
M  END
> <Rank>
19

> <Priority_score>
0.224

> <Reaction_type>
glutathione_conjugation_(aromatic_nucleophilic_substitution)

> <Parent_ID>
28

> <Parent_InChI>
InChI=1S/C22H25BrN2O3S/c1-5-28-22(27)20-18(13-29-14-9-7-6-8-10-14)25(4)17-11-16(23)21(26)15(19(17)20)12-24(2)3/h6-11,26H,5,12-13H2,1-4H3

> <Parent_SMILES>
CCOC(=O)c1c(CSc2ccccc2)n(C)c2cc(Br)c(O)c(CN(C)C)c12

$$$$
Molecule 28_metabolite 20
  CDK     0516241031

 55 57  0  0  0  0  0  0  0  0999 V2000
    5.5858    4.6822    0.0000 C   0  0  0  0  0  0  0  0  0  0  0  0
    6.0510    6.1082    0.0000 H   0  0  0  0  0  0  0  0  0  0  0  0
    5.6363    3.1830    0.0000 H   0  0  0  0  0  0  0  0  0  0  0  0
    7.0709    4.4716    0.0000 H   0  0  0  0  0  0  0  0  0  0  0  0
    4.1182    4.3721    0.0000 C   0  0  0  0  0  0  0  0  0  0  0  0
    4.0677    5.8712    0.0000 H   0  0  0  0  0  0  0  0  0  0  0  0
    2.6330    4.5827    0.0000 H   0  0  0  0  0  0  0  0  0  0  0  0
    3.6529    2.9461    0.0000 O   0  0  0  0  0  0  0  0  0  0  0  0
    2.1853    2.6360    0.0000 C   0  0  0  0  0  0  0  0  0  0  0  0
    1.1830    3.7520    0.0000 O   0  0  0  0  0  0  0  0  0  0  0  0
    1.7200    1.2100    0.0000 C   0  0  0  0  0  0  0  0  0  0  0  0
    2.6000   -0.0000    0.0000 C   0  0  0  0  0  0  0  0  0  0  0  0
    4.1000   -0.0000    0.0000 C   0  0  0  0  0  0  0  0  0  0  0  0
    5.5095    0.5130    0.0000 H   0  0  0  0  0  0  0  0  0  0  0  0
    3.8395    1.4772    0.0000 H   0  0  0  0  0  0  0  0  0  0  0  0
    4.8500   -1.2990    0.0000 S   0  0  0  0  0  0  0  0  0  0  0  0
    6.3500   -1.2990    0.0000 C   0  0  0  0  0  0  0  0  0  0  0  0
    7.1000    0.0010    0.0000 C   0  0  0  0  0  0  0  0  0  0  0  0
    6.3498    1.2999    0.0000 H   0  0  0  0  0  0  0  0  0  0  0  0
    8.6000    0.0010    0.0000 C   0  0  0  0  0  0  0  0  0  0  0  0
    9.3502    1.2999    0.0000 H   0  0  0  0  0  0  0  0  0  0  0  0
    9.3500   -1.2990    0.0000 C   0  0  0  0  0  0  0  0  0  0  0  0
    8.6000   -2.5990    0.0000 C   0  0  0  0  0  0  0  0  0  0  0  0
    9.3502   -3.8980    0.0000 H   0  0  0  0  0  0  0  0  0  0  0  0
    7.1000   -2.5990    0.0000 C   0  0  0  0  0  0  0  0  0  0  0  0
    6.3498   -3.8980    0.0000 H   0  0  0  0  0  0  0  0  0  0  0  0
   10.8500   -1.2990    0.0000 O   0  0  0  0  0  0  0  0  0  0  0  0
   11.6000   -2.5981    0.0000 H   0  0  0  0  0  0  0  0  0  0  0  0
    1.7200   -1.2100    0.0000 N   0  0  0  0  0  0  0  0  0  0  0  0
    2.1853   -2.6360    0.0000 C   0  0  0  0  0  0  0  0  0  0  0  0
    1.1830   -3.7520    0.0000 H   0  0  0  0  0  0  0  0  0  0  0  0
    3.1102   -3.8169    0.0000 H   0  0  0  0  0  0  0  0  0  0  0  0
    3.5088   -1.9302    0.0000 H   0  0  0  0  0  0  0  0  0  0  0  0
    0.2900   -0.7500    0.0000 C   0  0  0  0  0  0  0  0  0  0  0  0
    0.2900    0.7500    0.0000 C   0  0  0  0  0  0  0  0  0  0  0  0
   -1.0100    1.5000    0.0000 C   0  0  0  0  0  0  0  0  0  0  0  0
   -2.3100    0.7500    0.0000 C   0  0  0  0  0  0  0  0  0  0  0  0
   -2.3100   -0.7500    0.0000 C   0  0  0  0  0  0  0  0  0  0  0  0
   -1.0100   -1.5000    0.0000 C   0  0  0  0  0  0  0  0  0  0  0  0
   -1.0100   -3.0000    0.0000 H   0  0  0  0  0  0  0  0  0  0  0  0
   -3.6089   -1.5002    0.0000 Br  0  0  0  0  0  0  0  0  0  0  0  0
   -3.6089    1.5002    0.0000 O   0  0  0  0  0  0  0  0  0  0  0  0
   -4.9081    0.7504    0.0000 H   0  0  0  0  0  0  0  0  0  0  0  0
   -1.0100    3.0000    0.0000 C   0  0  0  0  0  0  0  0  0  0  0  0
    0.4672    2.7395    0.0000 H   0  0  0  0  0  0  0  0  0  0  0  0
   -0.4970    4.4095    0.0000 H   0  0  0  0  0  0  0  0  0  0  0  0
   -2.3090    3.7500    0.0000 N   0  0  0  0  0  0  0  0  0  0  0  0
   -2.3090    5.2500    0.0000 C   0  0  0  0  0  0  0  0  0  0  0  0
   -1.0100    6.0000    0.0000 H   0  0  0  0  0  0  0  0  0  0  0  0
   -3.7862    4.9895    0.0000 H   0  0  0  0  0  0  0  0  0  0  0  0
   -2.8221    6.6595    0.0000 H   0  0  0  0  0  0  0  0  0  0  0  0
   -3.6081    3.0000    0.0000 C   0  0  0  0  0  0  0  0  0  0  0  0
   -4.9071    3.7500    0.0000 H   0  0  0  0  0  0  0  0  0  0  0  0
   -4.5723    1.8509    0.0000 H   0  0  0  0  0  0  0  0  0  0  0  0
   -2.6439    1.8509    0.0000 H   0  0  0  0  0  0  0  0  0  0  0  0
  1  2  1  0  0  0  0 
  1  3  1  0  0  0  0 
  1  4  1  0  0  0  0 
  1  5  1  0  0  0  0 
  5  6  1  0  0  0  0 
  5  7  1  0  0  0  0 
  5  8  1  0  0  0  0 
  8  9  1  0  0  0  0 
  9 10  2  0  0  0  0 
  9 11  1  0  0  0  0 
 11 12  2  0  0  0  0 
 12 13  1  0  0  0  0 
 13 14  1  0  0  0  0 
 13 15  1  0  0  0  0 
 13 16  1  0  0  0  0 
 16 17  1  0  0  0  0 
 17 18  2  0  0  0  0 
 18 19  1  0  0  0  0 
 18 20  1  0  0  0  0 
 20 21  1  0  0  0  0 
 20 22  2  0  0  0  0 
 22 23  1  0  0  0  0 
 23 24  1  0  0  0  0 
 23 25  2  0  0  0  0 
 17 25  1  0  0  0  0 
 25 26  1  0  0  0  0 
 22 27  1  0  0  0  0 
 27 28  1  0  0  0  0 
 12 29  1  0  0  0  0 
 29 30  1  0  0  0  0 
 30 31  1  0  0  0  0 
 30 32  1  0  0  0  0 
 30 33  1  0  0  0  0 
 29 34  1  0  0  0  0 
 34 35  2  0  0  0  0 
 11 35  1  0  0  0  0 
 35 36  1  0  0  0  0 
 36 37  2  0  0  0  0 
 37 38  1  0  0  0  0 
 38 39  2  0  0  0  0 
 34 39  1  0  0  0  0 
 39 40  1  0  0  0  0 
 38 41  1  0  0  0  0 
 37 42  1  0  0  0  0 
 42 43  1  0  0  0  0 
 36 44  1  0  0  0  0 
 44 45  1  0  0  0  0 
 44 46  1  0  0  0  0 
 44 47  1  0  0  0  0 
 47 48  1  0  0  0  0 
 48 49  1  0  0  0  0 
 48 50  1  0  0  0  0 
 48 51  1  0  0  0  0 
 47 52  1  0  0  0  0 
 52 53  1  0  0  0  0 
 52 54  1  0  0  0  0 
 52 55  1  0  0  0  0 
M  END
> <Rank>
19

> <Priority_score>
0.224

> <Reaction_type>
aromatic hydroxylation

> <Parent_ID>
28

> <Parent_InChI>
InChI=1S/C22H25BrN2O3S/c1-5-28-22(27)20-18(13-29-14-9-7-6-8-10-14)25(4)17-11-16(23)21(26)15(19(17)20)12-24(2)3/h6-11,26H,5,12-13H2,1-4H3

> <Parent_SMILES>
CCOC(=O)c1c(CSc2ccccc2)n(C)c2cc(Br)c(O)c(CN(C)C)c12

$$$$
Molecule 28_metabolite 21
  CDK     0516241031

 55 57  0  0  0  0  0  0  0  0999 V2000
    6.1691    5.9987    0.0000 C   0  0  0  0  0  0  0  0  0  0  0  0
    6.6344    7.4247    0.0000 H   0  0  0  0  0  0  0  0  0  0  0  0
    6.2196    4.4996    0.0000 H   0  0  0  0  0  0  0  0  0  0  0  0
    7.6542    5.7881    0.0000 H   0  0  0  0  0  0  0  0  0  0  0  0
    4.7015    5.6886    0.0000 C   0  0  0  0  0  0  0  0  0  0  0  0
    4.6510    7.1878    0.0000 H   0  0  0  0  0  0  0  0  0  0  0  0
    3.2163    5.8992    0.0000 H   0  0  0  0  0  0  0  0  0  0  0  0
    4.2362    4.2626    0.0000 O   0  0  0  0  0  0  0  0  0  0  0  0
    2.7686    3.9526    0.0000 C   0  0  0  0  0  0  0  0  0  0  0  0
    1.7663    5.0685    0.0000 O   0  0  0  0  0  0  0  0  0  0  0  0
    2.3033    2.5266    0.0000 C   0  0  0  0  0  0  0  0  0  0  0  0
    3.1833    1.3166    0.0000 C   0  0  0  0  0  0  0  0  0  0  0  0
    4.6833    1.3166    0.0000 C   0  0  0  0  0  0  0  0  0  0  0  0
    6.0929    1.8296    0.0000 H   0  0  0  0  0  0  0  0  0  0  0  0
    4.4229    2.7938    0.0000 H   0  0  0  0  0  0  0  0  0  0  0  0
    5.4333    0.0175    0.0000 S   0  0  0  0  0  0  0  0  0  0  0  0
    6.9333    0.0175    0.0000 C   0  0  0  0  0  0  0  0  0  0  0  0
    7.6835    1.3164    0.0000 C   0  0  0  0  0  0  0  0  0  0  0  0
    6.9340    2.6157    0.0000 H   0  0  0  0  0  0  0  0  0  0  0  0
    9.1844    1.3157    0.0000 C   0  0  0  0  0  0  0  0  0  0  0  0
    9.9346    2.6146    0.0000 H   0  0  0  0  0  0  0  0  0  0  0  0
    9.9350    0.0161    0.0000 C   0  0  0  0  0  0  0  0  0  0  0  0
   11.4350    0.0161    0.0000 H   0  0  0  0  0  0  0  0  0  0  0  0
    9.1848   -1.2828    0.0000 C   0  0  0  0  0  0  0  0  0  0  0  0
    9.9344   -2.5821    0.0000 H   0  0  0  0  0  0  0  0  0  0  0  0
    7.6840   -1.2821    0.0000 C   0  0  0  0  0  0  0  0  0  0  0  0
    6.9338   -2.5810    0.0000 H   0  0  0  0  0  0  0  0  0  0  0  0
    2.3033    0.1066    0.0000 N   0  0  0  0  0  0  0  0  0  0  0  0
    1.1124   -2.5814    0.0000 C   0  0  0  0  0  0  0  0  0  0  0  0
   -0.3791   -2.7409    0.0000 H   0  0  0  0  0  0  0  0  0  0  0  0
    1.0104   -4.0779    0.0000 H   0  0  0  0  0  0  0  0  0  0  0  0
    2.5685   -2.9417    0.0000 H   0  0  0  0  0  0  0  0  0  0  0  0
    0.8733    0.5666    0.0000 C   0  0  0  0  0  0  0  0  0  0  0  0
    0.8733    2.0666    0.0000 C   0  0  0  0  0  0  0  0  0  0  0  0
   -0.4267    2.8166    0.0000 C   0  0  0  0  0  0  0  0  0  0  0  0
   -1.7267    2.0666    0.0000 C   0  0  0  0  0  0  0  0  0  0  0  0
   -1.7267    0.5666    0.0000 C   0  0  0  0  0  0  0  0  0  0  0  0
   -0.4267   -0.1834    0.0000 C   0  0  0  0  0  0  0  0  0  0  0  0
   -0.4267   -1.6834    0.0000 H   0  0  0  0  0  0  0  0  0  0  0  0
   -3.0256   -0.1837    0.0000 Br  0  0  0  0  0  0  0  0  0  0  0  0
   -3.0256    2.8168    0.0000 O   0  0  0  0  0  0  0  0  0  0  0  0
   -4.3247    2.0670    0.0000 H   0  0  0  0  0  0  0  0  0  0  0  0
   -0.4267    4.3166    0.0000 C   0  0  0  0  0  0  0  0  0  0  0  0
    1.0505    4.0561    0.0000 H   0  0  0  0  0  0  0  0  0  0  0  0
    0.0864    5.7261    0.0000 H   0  0  0  0  0  0  0  0  0  0  0  0
   -1.7257    5.0666    0.0000 N   0  0  0  0  0  0  0  0  0  0  0  0
   -1.7257    6.5666    0.0000 C   0  0  0  0  0  0  0  0  0  0  0  0
   -0.4267    7.3166    0.0000 H   0  0  0  0  0  0  0  0  0  0  0  0
   -3.2029    6.3061    0.0000 H   0  0  0  0  0  0  0  0  0  0  0  0
   -2.2387    7.9761    0.0000 H   0  0  0  0  0  0  0  0  0  0  0  0
   -3.0247    4.3166    0.0000 C   0  0  0  0  0  0  0  0  0  0  0  0
   -4.3238    5.0666    0.0000 H   0  0  0  0  0  0  0  0  0  0  0  0
   -3.9889    3.1675    0.0000 H   0  0  0  0  0  0  0  0  0  0  0  0
   -2.0606    3.1675    0.0000 H   0  0  0  0  0  0  0  0  0  0  0  0
    3.6029   -0.6426    0.0000 O   0  0  0  0  0  0  0  0  0  0  0  0
  1  2  1  0  0  0  0 
  1  3  1  0  0  0  0 
  1  4  1  0  0  0  0 
  1  5  1  0  0  0  0 
  5  6  1  0  0  0  0 
  5  7  1  0  0  0  0 
  5  8  1  0  0  0  0 
  8  9  1  0  0  0  0 
  9 10  2  0  0  0  0 
  9 11  1  0  0  0  0 
 11 12  2  0  0  0  0 
 12 13  1  0  0  0  0 
 13 14  1  0  0  0  0 
 13 15  1  0  0  0  0 
 13 16  1  0  0  0  0 
 16 17  1  0  0  0  0 
 17 18  2  0  0  0  0 
 18 19  1  0  0  0  0 
 18 20  1  0  0  0  0 
 20 21  1  0  0  0  0 
 20 22  2  0  0  0  0 
 22 23  1  0  0  0  0 
 22 24  1  0  0  0  0 
 24 25  1  0  0  0  0 
 24 26  2  0  0  0  0 
 17 26  1  0  0  0  0 
 26 27  1  0  0  0  0 
 12 28  1  0  0  0  0 
 28 29  1  0  0  0  0 
 29 30  1  0  0  0  0 
 29 31  1  0  0  0  0 
 29 32  1  0  0  0  0 
 28 33  1  0  0  0  0 
 33 34  2  0  0  0  0 
 11 34  1  0  0  0  0 
 34 35  1  0  0  0  0 
 35 36  2  0  0  0  0 
 36 37  1  0  0  0  0 
 37 38  2  0  0  0  0 
 33 38  1  0  0  0  0 
 38 39  1  0  0  0  0 
 37 40  1  0  0  0  0 
 36 41  1  0  0  0  0 
 41 42  1  0  0  0  0 
 35 43  1  0  0  0  0 
 43 44  1  0  0  0  0 
 43 45  1  0  0  0  0 
 43 46  1  0  0  0  0 
 46 47  1  0  0  0  0 
 47 48  1  0  0  0  0 
 47 49  1  0  0  0  0 
 47 50  1  0  0  0  0 
 46 51  1  0  0  0  0 
 51 52  1  0  0  0  0 
 51 53  1  0  0  0  0 
 51 54  1  0  0  0  0 
 28 55  1  0  0  0  0 
M  CHG  1  28   1
M  CHG  1  55  -1
M  END
> <Rank>
21

> <Priority_score>
0.192

> <Reaction_type>
N-oxidation

> <Parent_ID>
28

> <Parent_InChI>
InChI=1S/C22H25BrN2O3S/c1-5-28-22(27)20-18(13-29-14-9-7-6-8-10-14)25(4)17-11-16(23)21(26)15(19(17)20)12-24(2)3/h6-11,26H,5,12-13H2,1-4H3

> <Parent_SMILES>
CCOC(=O)c1c(CSc2ccccc2)n(C)c2cc(Br)c(O)c(CN(C)C)c12

$$$$
Molecule 28_metabolite 22
  CDK     0516241031

 55 57  0  0  0  0  0  0  0  0999 V2000
    5.5858    4.6822    0.0000 C   0  0  0  0  0  0  0  0  0  0  0  0
    6.0510    6.1082    0.0000 H   0  0  0  0  0  0  0  0  0  0  0  0
    5.6363    3.1830    0.0000 H   0  0  0  0  0  0  0  0  0  0  0  0
    7.0709    4.4716    0.0000 H   0  0  0  0  0  0  0  0  0  0  0  0
    4.1182    4.3721    0.0000 C   0  0  0  0  0  0  0  0  0  0  0  0
    4.0677    5.8712    0.0000 H   0  0  0  0  0  0  0  0  0  0  0  0
    2.6330    4.5827    0.0000 H   0  0  0  0  0  0  0  0  0  0  0  0
    3.6529    2.9461    0.0000 O   0  0  0  0  0  0  0  0  0  0  0  0
    2.1853    2.6360    0.0000 C   0  0  0  0  0  0  0  0  0  0  0  0
    1.1830    3.7520    0.0000 O   0  0  0  0  0  0  0  0  0  0  0  0
    1.7200    1.2100    0.0000 C   0  0  0  0  0  0  0  0  0  0  0  0
    2.6000   -0.0000    0.0000 C   0  0  0  0  0  0  0  0  0  0  0  0
    4.1000   -0.0000    0.0000 C   0  0  0  0  0  0  0  0  0  0  0  0
    5.5095    0.5130    0.0000 H   0  0  0  0  0  0  0  0  0  0  0  0
    3.8395    1.4772    0.0000 H   0  0  0  0  0  0  0  0  0  0  0  0
    4.8500   -1.2990    0.0000 S   0  0  0  0  0  0  0  0  0  0  0  0
    6.3500   -1.2990    0.0000 C   0  0  0  0  0  0  0  0  0  0  0  0
    7.1002   -0.0001    0.0000 C   0  0  0  0  0  0  0  0  0  0  0  0
    6.3506    1.2992    0.0000 H   0  0  0  0  0  0  0  0  0  0  0  0
    8.6010   -0.0008    0.0000 C   0  0  0  0  0  0  0  0  0  0  0  0
    9.3512    1.2981    0.0000 H   0  0  0  0  0  0  0  0  0  0  0  0
    9.3517   -1.3005    0.0000 C   0  0  0  0  0  0  0  0  0  0  0  0
   10.8517   -1.3005    0.0000 H   0  0  0  0  0  0  0  0  0  0  0  0
    8.6015   -2.5994    0.0000 C   0  0  0  0  0  0  0  0  0  0  0  0
    9.3510   -3.8987    0.0000 H   0  0  0  0  0  0  0  0  0  0  0  0
    7.1006   -2.5987    0.0000 C   0  0  0  0  0  0  0  0  0  0  0  0
    6.3504   -3.8976    0.0000 H   0  0  0  0  0  0  0  0  0  0  0  0
    1.7200   -1.2100    0.0000 N   0  0  0  0  0  0  0  0  0  0  0  0
    2.1853   -2.6360    0.0000 C   0  0  0  0  0  0  0  0  0  0  0  0
    3.1102   -3.8169    0.0000 H   0  0  0  0  0  0  0  0  0  0  0  0
    3.5088   -1.9302    0.0000 H   0  0  0  0  0  0  0  0  0  0  0  0
    1.1830   -3.7520    0.0000 O   0  0  0  0  0  0  0  0  0  0  0  0
    1.6482   -5.1780    0.0000 H   0  0  0  0  0  0  0  0  0  0  0  0
    0.2900   -0.7500    0.0000 C   0  0  0  0  0  0  0  0  0  0  0  0
    0.2900    0.7500    0.0000 C   0  0  0  0  0  0  0  0  0  0  0  0
   -1.0100    1.5000    0.0000 C   0  0  0  0  0  0  0  0  0  0  0  0
   -2.3100    0.7500    0.0000 C   0  0  0  0  0  0  0  0  0  0  0  0
   -2.3100   -0.7500    0.0000 C   0  0  0  0  0  0  0  0  0  0  0  0
   -1.0100   -1.5000    0.0000 C   0  0  0  0  0  0  0  0  0  0  0  0
   -1.0100   -3.0000    0.0000 H   0  0  0  0  0  0  0  0  0  0  0  0
   -3.6089   -1.5002    0.0000 Br  0  0  0  0  0  0  0  0  0  0  0  0
   -3.6089    1.5002    0.0000 O   0  0  0  0  0  0  0  0  0  0  0  0
   -4.9081    0.7504    0.0000 H   0  0  0  0  0  0  0  0  0  0  0  0
   -1.0100    3.0000    0.0000 C   0  0  0  0  0  0  0  0  0  0  0  0
    0.4672    2.7395    0.0000 H   0  0  0  0  0  0  0  0  0  0  0  0
   -0.4970    4.4095    0.0000 H   0  0  0  0  0  0  0  0  0  0  0  0
   -2.3090    3.7500    0.0000 N   0  0  0  0  0  0  0  0  0  0  0  0
   -2.3090    5.2500    0.0000 C   0  0  0  0  0  0  0  0  0  0  0  0
   -1.0100    6.0000    0.0000 H   0  0  0  0  0  0  0  0  0  0  0  0
   -3.7862    4.9895    0.0000 H   0  0  0  0  0  0  0  0  0  0  0  0
   -2.8221    6.6595    0.0000 H   0  0  0  0  0  0  0  0  0  0  0  0
   -3.6081    3.0000    0.0000 C   0  0  0  0  0  0  0  0  0  0  0  0
   -4.9071    3.7500    0.0000 H   0  0  0  0  0  0  0  0  0  0  0  0
   -4.5723    1.8509    0.0000 H   0  0  0  0  0  0  0  0  0  0  0  0
   -2.6439    1.8509    0.0000 H   0  0  0  0  0  0  0  0  0  0  0  0
  1  2  1  0  0  0  0 
  1  3  1  0  0  0  0 
  1  4  1  0  0  0  0 
  1  5  1  0  0  0  0 
  5  6  1  0  0  0  0 
  5  7  1  0  0  0  0 
  5  8  1  0  0  0  0 
  8  9  1  0  0  0  0 
  9 10  2  0  0  0  0 
  9 11  1  0  0  0  0 
 11 12  2  0  0  0  0 
 12 13  1  0  0  0  0 
 13 14  1  0  0  0  0 
 13 15  1  0  0  0  0 
 13 16  1  0  0  0  0 
 16 17  1  0  0  0  0 
 17 18  2  0  0  0  0 
 18 19  1  0  0  0  0 
 18 20  1  0  0  0  0 
 20 21  1  0  0  0  0 
 20 22  2  0  0  0  0 
 22 23  1  0  0  0  0 
 22 24  1  0  0  0  0 
 24 25  1  0  0  0  0 
 24 26  2  0  0  0  0 
 17 26  1  0  0  0  0 
 26 27  1  0  0  0  0 
 12 28  1  0  0  0  0 
 28 29  1  0  0  0  0 
 29 30  1  0  0  0  0 
 29 31  1  0  0  0  0 
 29 32  1  0  0  0  0 
 32 33  1  0  0  0  0 
 28 34  1  0  0  0  0 
 34 35  2  0  0  0  0 
 11 35  1  0  0  0  0 
 35 36  1  0  0  0  0 
 36 37  2  0  0  0  0 
 37 38  1  0  0  0  0 
 38 39  2  0  0  0  0 
 34 39  1  0  0  0  0 
 39 40  1  0  0  0  0 
 38 41  1  0  0  0  0 
 37 42  1  0  0  0  0 
 42 43  1  0  0  0  0 
 36 44  1  0  0  0  0 
 44 45  1  0  0  0  0 
 44 46  1  0  0  0  0 
 44 47  1  0  0  0  0 
 47 48  1  0  0  0  0 
 48 49  1  0  0  0  0 
 48 50  1  0  0  0  0 
 48 51  1  0  0  0  0 
 47 52  1  0  0  0  0 
 52 53  1  0  0  0  0 
 52 54  1  0  0  0  0 
 52 55  1  0  0  0  0 
M  END
> <Rank>
21

> <Priority_score>
0.192

> <Reaction_type>
aliphatic hydroxylation

> <Parent_ID>
28

> <Parent_InChI>
InChI=1S/C22H25BrN2O3S/c1-5-28-22(27)20-18(13-29-14-9-7-6-8-10-14)25(4)17-11-16(23)21(26)15(19(17)20)12-24(2)3/h6-11,26H,5,12-13H2,1-4H3

> <Parent_SMILES>
CCOC(=O)c1c(CSc2ccccc2)n(C)c2cc(Br)c(O)c(CN(C)C)c12

$$$$
Molecule 28_metabolite 23
  CDK     0516241031

 51 53  0  0  0  0  0  0  0  0999 V2000
    5.5858    4.6822    0.0000 C   0  0  0  0  0  0  0  0  0  0  0  0
    6.0510    6.1082    0.0000 H   0  0  0  0  0  0  0  0  0  0  0  0
    5.6363    3.1830    0.0000 H   0  0  0  0  0  0  0  0  0  0  0  0
    7.0709    4.4716    0.0000 H   0  0  0  0  0  0  0  0  0  0  0  0
    4.1182    4.3721    0.0000 C   0  0  0  0  0  0  0  0  0  0  0  0
    4.0677    5.8712    0.0000 H   0  0  0  0  0  0  0  0  0  0  0  0
    2.6330    4.5827    0.0000 H   0  0  0  0  0  0  0  0  0  0  0  0
    3.6529    2.9461    0.0000 O   0  0  0  0  0  0  0  0  0  0  0  0
    2.1853    2.6360    0.0000 C   0  0  0  0  0  0  0  0  0  0  0  0
    1.1830    3.7520    0.0000 O   0  0  0  0  0  0  0  0  0  0  0  0
    1.7200    1.2100    0.0000 C   0  0  0  0  0  0  0  0  0  0  0  0
    2.6000   -0.0000    0.0000 C   0  0  0  0  0  0  0  0  0  0  0  0
    4.1000   -0.0000    0.0000 C   0  0  0  0  0  0  0  0  0  0  0  0
    5.5095    0.5130    0.0000 H   0  0  0  0  0  0  0  0  0  0  0  0
    3.8395    1.4772    0.0000 H   0  0  0  0  0  0  0  0  0  0  0  0
    4.8500   -1.2990    0.0000 S   0  0  0  0  0  0  0  0  0  0  0  0
    6.3500   -1.2990    0.0000 C   0  0  0  0  0  0  0  0  0  0  0  0
    7.1002   -0.0001    0.0000 C   0  0  0  0  0  0  0  0  0  0  0  0
    6.3506    1.2992    0.0000 H   0  0  0  0  0  0  0  0  0  0  0  0
    8.6010   -0.0008    0.0000 C   0  0  0  0  0  0  0  0  0  0  0  0
    9.3512    1.2981    0.0000 H   0  0  0  0  0  0  0  0  0  0  0  0
    9.3517   -1.3005    0.0000 C   0  0  0  0  0  0  0  0  0  0  0  0
   10.8517   -1.3005    0.0000 H   0  0  0  0  0  0  0  0  0  0  0  0
    8.6015   -2.5994    0.0000 C   0  0  0  0  0  0  0  0  0  0  0  0
    9.3510   -3.8987    0.0000 H   0  0  0  0  0  0  0  0  0  0  0  0
    7.1006   -2.5987    0.0000 C   0  0  0  0  0  0  0  0  0  0  0  0
    6.3504   -3.8976    0.0000 H   0  0  0  0  0  0  0  0  0  0  0  0
    1.7200   -1.2100    0.0000 N   0  0  0  0  0  0  0  0  0  0  0  0
    2.1853   -2.6360    0.0000 H   0  0  0  0  0  0  0  0  0  0  0  0
    0.2900   -0.7500    0.0000 C   0  0  0  0  0  0  0  0  0  0  0  0
    0.2900    0.7500    0.0000 C   0  0  0  0  0  0  0  0  0  0  0  0
   -1.0100    1.5000    0.0000 C   0  0  0  0  0  0  0  0  0  0  0  0
   -2.3100    0.7500    0.0000 C   0  0  0  0  0  0  0  0  0  0  0  0
   -2.3100   -0.7500    0.0000 C   0  0  0  0  0  0  0  0  0  0  0  0
   -1.0100   -1.5000    0.0000 C   0  0  0  0  0  0  0  0  0  0  0  0
   -1.0100   -3.0000    0.0000 H   0  0  0  0  0  0  0  0  0  0  0  0
   -3.6089   -1.5002    0.0000 Br  0  0  0  0  0  0  0  0  0  0  0  0
   -3.6089    1.5002    0.0000 O   0  0  0  0  0  0  0  0  0  0  0  0
   -4.9081    0.7504    0.0000 H   0  0  0  0  0  0  0  0  0  0  0  0
   -1.0100    3.0000    0.0000 C   0  0  0  0  0  0  0  0  0  0  0  0
    0.4672    2.7395    0.0000 H   0  0  0  0  0  0  0  0  0  0  0  0
   -0.4970    4.4095    0.0000 H   0  0  0  0  0  0  0  0  0  0  0  0
   -2.3090    3.7500    0.0000 N   0  0  0  0  0  0  0  0  0  0  0  0
   -3.6081    3.0000    0.0000 C   0  0  0  0  0  0  0  0  0  0  0  0
   -4.9071    3.7500    0.0000 H   0  0  0  0  0  0  0  0  0  0  0  0
   -4.5723    1.8509    0.0000 H   0  0  0  0  0  0  0  0  0  0  0  0
   -2.6439    1.8509    0.0000 H   0  0  0  0  0  0  0  0  0  0  0  0
   -2.3090    5.2500    0.0000 C   0  0  0  0  0  0  0  0  0  0  0  0
   -1.0100    6.0000    0.0000 H   0  0  0  0  0  0  0  0  0  0  0  0
   -3.7862    4.9895    0.0000 H   0  0  0  0  0  0  0  0  0  0  0  0
   -2.8221    6.6595    0.0000 H   0  0  0  0  0  0  0  0  0  0  0  0
  1  2  1  0  0  0  0 
  1  3  1  0  0  0  0 
  1  4  1  0  0  0  0 
  1  5  1  0  0  0  0 
  5  6  1  0  0  0  0 
  5  7  1  0  0  0  0 
  5  8  1  0  0  0  0 
  8  9  1  0  0  0  0 
  9 10  2  0  0  0  0 
  9 11  1  0  0  0  0 
 11 12  2  0  0  0  0 
 12 13  1  0  0  0  0 
 13 14  1  0  0  0  0 
 13 15  1  0  0  0  0 
 13 16  1  0  0  0  0 
 16 17  1  0  0  0  0 
 17 18  2  0  0  0  0 
 18 19  1  0  0  0  0 
 18 20  1  0  0  0  0 
 20 21  1  0  0  0  0 
 20 22  2  0  0  0  0 
 22 23  1  0  0  0  0 
 22 24  1  0  0  0  0 
 24 25  1  0  0  0  0 
 24 26  2  0  0  0  0 
 17 26  1  0  0  0  0 
 26 27  1  0  0  0  0 
 12 28  1  0  0  0  0 
 28 29  1  0  0  0  0 
 28 30  1  0  0  0  0 
 30 31  2  0  0  0  0 
 11 31  1  0  0  0  0 
 31 32  1  0  0  0  0 
 32 33  2  0  0  0  0 
 33 34  1  0  0  0  0 
 34 35  2  0  0  0  0 
 30 35  1  0  0  0  0 
 35 36  1  0  0  0  0 
 34 37  1  0  0  0  0 
 33 38  1  0  0  0  0 
 38 39  1  0  0  0  0 
 32 40  1  0  0  0  0 
 40 41  1  0  0  0  0 
 40 42  1  0  0  0  0 
 40 43  1  0  0  0  0 
 43 44  1  0  0  0  0 
 44 45  1  0  0  0  0 
 44 46  1  0  0  0  0 
 44 47  1  0  0  0  0 
 43 48  1  0  0  0  0 
 48 49  1  0  0  0  0 
 48 50  1  0  0  0  0 
 48 51  1  0  0  0  0 
M  END
> <Rank>
21

> <Priority_score>
0.192

> <Reaction_type>
N-demethylation_(nCH3)

> <Parent_ID>
28

> <Parent_InChI>
InChI=1S/C22H25BrN2O3S/c1-5-28-22(27)20-18(13-29-14-9-7-6-8-10-14)25(4)17-11-16(23)21(26)15(19(17)20)12-24(2)3/h6-11,26H,5,12-13H2,1-4H3

> <Parent_SMILES>
CCOC(=O)c1c(CSc2ccccc2)n(C)c2cc(Br)c(O)c(CN(C)C)c12

$$$$
Molecule 28_metabolite 24
  CDK     0516241031

 55 57  0  0  0  0  0  0  0  0999 V2000
    5.5858    4.6822    0.0000 C   0  0  0  0  0  0  0  0  0  0  0  0
    6.0510    6.1082    0.0000 H   0  0  0  0  0  0  0  0  0  0  0  0
    5.6363    3.1830    0.0000 H   0  0  0  0  0  0  0  0  0  0  0  0
    7.0709    4.4716    0.0000 H   0  0  0  0  0  0  0  0  0  0  0  0
    4.1182    4.3721    0.0000 C   0  0  0  0  0  0  0  0  0  0  0  0
    4.0677    5.8712    0.0000 H   0  0  0  0  0  0  0  0  0  0  0  0
    2.6330    4.5827    0.0000 H   0  0  0  0  0  0  0  0  0  0  0  0
    3.6529    2.9461    0.0000 O   0  0  0  0  0  0  0  0  0  0  0  0
    2.1853    2.6360    0.0000 C   0  0  0  0  0  0  0  0  0  0  0  0
    1.1830    3.7520    0.0000 O   0  0  0  0  0  0  0  0  0  0  0  0
    1.7200    1.2100    0.0000 C   0  0  0  0  0  0  0  0  0  0  0  0
    2.6000   -0.0000    0.0000 C   0  0  0  0  0  0  0  0  0  0  0  0
    4.1000   -0.0000    0.0000 C   0  0  0  0  0  0  0  0  0  0  0  0
    5.5095    0.5130    0.0000 H   0  0  0  0  0  0  0  0  0  0  0  0
    3.8395    1.4772    0.0000 H   0  0  0  0  0  0  0  0  0  0  0  0
    4.8500   -1.2990    0.0000 S   0  0  0  0  0  0  0  0  0  0  0  0
    6.3500   -1.2990    0.0000 C   0  0  0  0  0  0  0  0  0  0  0  0
    7.1002   -0.0001    0.0000 C   0  0  0  0  0  0  0  0  0  0  0  0
    6.3506    1.2992    0.0000 H   0  0  0  0  0  0  0  0  0  0  0  0
    8.6010   -0.0008    0.0000 C   0  0  0  0  0  0  0  0  0  0  0  0
    9.3512    1.2981    0.0000 H   0  0  0  0  0  0  0  0  0  0  0  0
    9.3517   -1.3005    0.0000 C   0  0  0  0  0  0  0  0  0  0  0  0
   10.8517   -1.3005    0.0000 H   0  0  0  0  0  0  0  0  0  0  0  0
    8.6015   -2.5994    0.0000 C   0  0  0  0  0  0  0  0  0  0  0  0
    9.3510   -3.8987    0.0000 H   0  0  0  0  0  0  0  0  0  0  0  0
    7.1006   -2.5987    0.0000 C   0  0  0  0  0  0  0  0  0  0  0  0
    6.3504   -3.8976    0.0000 H   0  0  0  0  0  0  0  0  0  0  0  0
    1.7200   -1.2100    0.0000 N   0  0  0  0  0  0  0  0  0  0  0  0
    2.1853   -2.6360    0.0000 C   0  0  0  0  0  0  0  0  0  0  0  0
    1.1830   -3.7520    0.0000 H   0  0  0  0  0  0  0  0  0  0  0  0
    3.1102   -3.8169    0.0000 H   0  0  0  0  0  0  0  0  0  0  0  0
    3.5088   -1.9302    0.0000 H   0  0  0  0  0  0  0  0  0  0  0  0
    0.2900   -0.7500    0.0000 C   0  0  0  0  0  0  0  0  0  0  0  0
    0.2900    0.7500    0.0000 C   0  0  0  0  0  0  0  0  0  0  0  0
   -1.0100    1.5000    0.0000 C   0  0  0  0  0  0  0  0  0  0  0  0
   -2.3100    0.7500    0.0000 C   0  0  0  0  0  0  0  0  0  0  0  0
   -2.3100   -0.7500    0.0000 C   0  0  0  0  0  0  0  0  0  0  0  0
   -1.0100   -1.5000    0.0000 C   0  0  0  0  0  0  0  0  0  0  0  0
   -1.0100   -3.0000    0.0000 O   0  0  0  0  0  0  0  0  0  0  0  0
   -2.3090   -3.7500    0.0000 H   0  0  0  0  0  0  0  0  0  0  0  0
   -3.6089   -1.5002    0.0000 Br  0  0  0  0  0  0  0  0  0  0  0  0
   -3.6089    1.5002    0.0000 O   0  0  0  0  0  0  0  0  0  0  0  0
   -4.9081    0.7504    0.0000 H   0  0  0  0  0  0  0  0  0  0  0  0
   -1.0100    3.0000    0.0000 C   0  0  0  0  0  0  0  0  0  0  0  0
    0.4672    2.7395    0.0000 H   0  0  0  0  0  0  0  0  0  0  0  0
   -0.4970    4.4095    0.0000 H   0  0  0  0  0  0  0  0  0  0  0  0
   -2.3090    3.7500    0.0000 N   0  0  0  0  0  0  0  0  0  0  0  0
   -2.3090    5.2500    0.0000 C   0  0  0  0  0  0  0  0  0  0  0  0
   -1.0100    6.0000    0.0000 H   0  0  0  0  0  0  0  0  0  0  0  0
   -3.7862    4.9895    0.0000 H   0  0  0  0  0  0  0  0  0  0  0  0
   -2.8221    6.6595    0.0000 H   0  0  0  0  0  0  0  0  0  0  0  0
   -3.6081    3.0000    0.0000 C   0  0  0  0  0  0  0  0  0  0  0  0
   -4.9071    3.7500    0.0000 H   0  0  0  0  0  0  0  0  0  0  0  0
   -4.5723    1.8509    0.0000 H   0  0  0  0  0  0  0  0  0  0  0  0
   -2.6439    1.8509    0.0000 H   0  0  0  0  0  0  0  0  0  0  0  0
  1  2  1  0  0  0  0 
  1  3  1  0  0  0  0 
  1  4  1  0  0  0  0 
  1  5  1  0  0  0  0 
  5  6  1  0  0  0  0 
  5  7  1  0  0  0  0 
  5  8  1  0  0  0  0 
  8  9  1  0  0  0  0 
  9 10  2  0  0  0  0 
  9 11  1  0  0  0  0 
 11 12  2  0  0  0  0 
 12 13  1  0  0  0  0 
 13 14  1  0  0  0  0 
 13 15  1  0  0  0  0 
 13 16  1  0  0  0  0 
 16 17  1  0  0  0  0 
 17 18  2  0  0  0  0 
 18 19  1  0  0  0  0 
 18 20  1  0  0  0  0 
 20 21  1  0  0  0  0 
 20 22  2  0  0  0  0 
 22 23  1  0  0  0  0 
 22 24  1  0  0  0  0 
 24 25  1  0  0  0  0 
 24 26  2  0  0  0  0 
 17 26  1  0  0  0  0 
 26 27  1  0  0  0  0 
 12 28  1  0  0  0  0 
 28 29  1  0  0  0  0 
 29 30  1  0  0  0  0 
 29 31  1  0  0  0  0 
 29 32  1  0  0  0  0 
 28 33  1  0  0  0  0 
 33 34  2  0  0  0  0 
 11 34  1  0  0  0  0 
 34 35  1  0  0  0  0 
 35 36  2  0  0  0  0 
 36 37  1  0  0  0  0 
 37 38  2  0  0  0  0 
 33 38  1  0  0  0  0 
 38 39  1  0  0  0  0 
 39 40  1  0  0  0  0 
 37 41  1  0  0  0  0 
 36 42  1  0  0  0  0 
 42 43  1  0  0  0  0 
 35 44  1  0  0  0  0 
 44 45  1  0  0  0  0 
 44 46  1  0  0  0  0 
 44 47  1  0  0  0  0 
 47 48  1  0  0  0  0 
 48 49  1  0  0  0  0 
 48 50  1  0  0  0  0 
 48 51  1  0  0  0  0 
 47 52  1  0  0  0  0 
 52 53  1  0  0  0  0 
 52 54  1  0  0  0  0 
 52 55  1  0  0  0  0 
M  END
> <Rank>
24

> <Priority_score>
0.17822068296107038

> <Reaction_type>
aromatic_hydroxylation_(para_to_carbon)

> <Parent_ID>
28

> <Parent_InChI>
InChI=1S/C22H25BrN2O3S/c1-5-28-22(27)20-18(13-29-14-9-7-6-8-10-14)25(4)17-11-16(23)21(26)15(19(17)20)12-24(2)3/h6-11,26H,5,12-13H2,1-4H3

> <Parent_SMILES>
CCOC(=O)c1c(CSc2ccccc2)n(C)c2cc(Br)c(O)c(CN(C)C)c12

$$$$
Molecule 28_metabolite 25
  CDK     0516241031

 55 57  0  0  0  0  0  0  0  0999 V2000
    5.5858    4.6822    0.0000 C   0  0  0  0  0  0  0  0  0  0  0  0
    6.0510    6.1082    0.0000 H   0  0  0  0  0  0  0  0  0  0  0  0
    5.6363    3.1830    0.0000 H   0  0  0  0  0  0  0  0  0  0  0  0
    7.0709    4.4716    0.0000 H   0  0  0  0  0  0  0  0  0  0  0  0
    4.1182    4.3721    0.0000 C   0  0  0  0  0  0  0  0  0  0  0  0
    4.0677    5.8712    0.0000 H   0  0  0  0  0  0  0  0  0  0  0  0
    2.6330    4.5827    0.0000 H   0  0  0  0  0  0  0  0  0  0  0  0
    3.6529    2.9461    0.0000 O   0  0  0  0  0  0  0  0  0  0  0  0
    2.1853    2.6360    0.0000 C   0  0  0  0  0  0  0  0  0  0  0  0
    1.1830    3.7520    0.0000 O   0  0  0  0  0  0  0  0  0  0  0  0
    1.7200    1.2100    0.0000 C   0  0  0  0  0  0  0  0  0  0  0  0
    2.6000   -0.0000    0.0000 C   0  0  0  0  0  0  0  0  0  0  0  0
    4.1000   -0.0000    0.0000 C   0  0  0  0  0  0  0  0  0  0  0  0
    5.5095    0.5130    0.0000 H   0  0  0  0  0  0  0  0  0  0  0  0
    3.8395    1.4772    0.0000 H   0  0  0  0  0  0  0  0  0  0  0  0
    4.8500   -1.2990    0.0000 S   0  0  0  0  0  0  0  0  0  0  0  0
    6.3500   -1.2990    0.0000 C   0  0  0  0  0  0  0  0  0  0  0  0
    7.1006    0.0006    0.0000 C   0  0  0  0  0  0  0  0  0  0  0  0
    8.6015    0.0013    0.0000 C   0  0  0  0  0  0  0  0  0  0  0  0
    9.3510    1.3006    0.0000 H   0  0  0  0  0  0  0  0  0  0  0  0
    9.3517   -1.2976    0.0000 C   0  0  0  0  0  0  0  0  0  0  0  0
   10.8517   -1.2976    0.0000 H   0  0  0  0  0  0  0  0  0  0  0  0
    8.6010   -2.5972    0.0000 C   0  0  0  0  0  0  0  0  0  0  0  0
    9.3512   -3.8962    0.0000 H   0  0  0  0  0  0  0  0  0  0  0  0
    7.1002   -2.5980    0.0000 C   0  0  0  0  0  0  0  0  0  0  0  0
    6.3506   -3.8972    0.0000 H   0  0  0  0  0  0  0  0  0  0  0  0
    6.3504    1.2995    0.0000 O   0  0  0  0  0  0  0  0  0  0  0  0
    7.1002    2.5987    0.0000 H   0  0  0  0  0  0  0  0  0  0  0  0
    1.7200   -1.2100    0.0000 N   0  0  0  0  0  0  0  0  0  0  0  0
    2.1853   -2.6360    0.0000 C   0  0  0  0  0  0  0  0  0  0  0  0
    1.1830   -3.7520    0.0000 H   0  0  0  0  0  0  0  0  0  0  0  0
    3.1102   -3.8169    0.0000 H   0  0  0  0  0  0  0  0  0  0  0  0
    3.5088   -1.9302    0.0000 H   0  0  0  0  0  0  0  0  0  0  0  0
    0.2900   -0.7500    0.0000 C   0  0  0  0  0  0  0  0  0  0  0  0
    0.2900    0.7500    0.0000 C   0  0  0  0  0  0  0  0  0  0  0  0
   -1.0100    1.5000    0.0000 C   0  0  0  0  0  0  0  0  0  0  0  0
   -2.3100    0.7500    0.0000 C   0  0  0  0  0  0  0  0  0  0  0  0
   -2.3100   -0.7500    0.0000 C   0  0  0  0  0  0  0  0  0  0  0  0
   -1.0100   -1.5000    0.0000 C   0  0  0  0  0  0  0  0  0  0  0  0
   -1.0100   -3.0000    0.0000 H   0  0  0  0  0  0  0  0  0  0  0  0
   -3.6089   -1.5002    0.0000 Br  0  0  0  0  0  0  0  0  0  0  0  0
   -3.6089    1.5002    0.0000 O   0  0  0  0  0  0  0  0  0  0  0  0
   -4.9081    0.7504    0.0000 H   0  0  0  0  0  0  0  0  0  0  0  0
   -1.0100    3.0000    0.0000 C   0  0  0  0  0  0  0  0  0  0  0  0
    0.4672    2.7395    0.0000 H   0  0  0  0  0  0  0  0  0  0  0  0
   -0.4970    4.4095    0.0000 H   0  0  0  0  0  0  0  0  0  0  0  0
   -2.3090    3.7500    0.0000 N   0  0  0  0  0  0  0  0  0  0  0  0
   -3.6081    3.0000    0.0000 C   0  0  0  0  0  0  0  0  0  0  0  0
   -4.9071    3.7500    0.0000 H   0  0  0  0  0  0  0  0  0  0  0  0
   -4.5723    1.8509    0.0000 H   0  0  0  0  0  0  0  0  0  0  0  0
   -2.6439    1.8509    0.0000 H   0  0  0  0  0  0  0  0  0  0  0  0
   -2.3090    5.2500    0.0000 C   0  0  0  0  0  0  0  0  0  0  0  0
   -1.0100    6.0000    0.0000 H   0  0  0  0  0  0  0  0  0  0  0  0
   -3.7862    4.9895    0.0000 H   0  0  0  0  0  0  0  0  0  0  0  0
   -2.8221    6.6595    0.0000 H   0  0  0  0  0  0  0  0  0  0  0  0
  1  2  1  0  0  0  0 
  1  3  1  0  0  0  0 
  1  4  1  0  0  0  0 
  1  5  1  0  0  0  0 
  5  6  1  0  0  0  0 
  5  7  1  0  0  0  0 
  5  8  1  0  0  0  0 
  8  9  1  0  0  0  0 
  9 10  2  0  0  0  0 
  9 11  1  0  0  0  0 
 11 12  2  0  0  0  0 
 12 13  1  0  0  0  0 
 13 14  1  0  0  0  0 
 13 15  1  0  0  0  0 
 13 16  1  0  0  0  0 
 16 17  1  0  0  0  0 
 17 18  2  0  0  0  0 
 18 19  1  0  0  0  0 
 19 20  1  0  0  0  0 
 19 21  2  0  0  0  0 
 21 22  1  0  0  0  0 
 21 23  1  0  0  0  0 
 23 24  1  0  0  0  0 
 23 25  2  0  0  0  0 
 17 25  1  0  0  0  0 
 25 26  1  0  0  0  0 
 18 27  1  0  0  0  0 
 27 28  1  0  0  0  0 
 12 29  1  0  0  0  0 
 29 30  1  0  0  0  0 
 30 31  1  0  0  0  0 
 30 32  1  0  0  0  0 
 30 33  1  0  0  0  0 
 29 34  1  0  0  0  0 
 34 35  2  0  0  0  0 
 11 35  1  0  0  0  0 
 35 36  1  0  0  0  0 
 36 37  2  0  0  0  0 
 37 38  1  0  0  0  0 
 38 39  2  0  0  0  0 
 34 39  1  0  0  0  0 
 39 40  1  0  0  0  0 
 38 41  1  0  0  0  0 
 37 42  1  0  0  0  0 
 42 43  1  0  0  0  0 
 36 44  1  0  0  0  0 
 44 45  1  0  0  0  0 
 44 46  1  0  0  0  0 
 44 47  1  0  0  0  0 
 47 48  1  0  0  0  0 
 48 49  1  0  0  0  0 
 48 50  1  0  0  0  0 
 48 51  1  0  0  0  0 
 47 52  1  0  0  0  0 
 52 53  1  0  0  0  0 
 52 54  1  0  0  0  0 
 52 55  1  0  0  0  0 
M  END
> <Rank>
25

> <Priority_score>
0.152

> <Reaction_type>
aromatic hydroxylation

> <Parent_ID>
28

> <Parent_InChI>
InChI=1S/C22H25BrN2O3S/c1-5-28-22(27)20-18(13-29-14-9-7-6-8-10-14)25(4)17-11-16(23)21(26)15(19(17)20)12-24(2)3/h6-11,26H,5,12-13H2,1-4H3

> <Parent_SMILES>
CCOC(=O)c1c(CSc2ccccc2)n(C)c2cc(Br)c(O)c(CN(C)C)c12

$$$$
Molecule 28_metabolite 26
  CDK     0516241031

 53 55  0  0  0  0  0  0  0  0999 V2000
    5.5858    4.6822    0.0000 C   0  0  0  0  0  0  0  0  0  0  0  0
    6.0510    6.1082    0.0000 H   0  0  0  0  0  0  0  0  0  0  0  0
    5.6363    3.1830    0.0000 H   0  0  0  0  0  0  0  0  0  0  0  0
    7.0709    4.4716    0.0000 H   0  0  0  0  0  0  0  0  0  0  0  0
    4.1182    4.3721    0.0000 C   0  0  0  0  0  0  0  0  0  0  0  0
    4.0677    5.8712    0.0000 H   0  0  0  0  0  0  0  0  0  0  0  0
    2.6330    4.5827    0.0000 H   0  0  0  0  0  0  0  0  0  0  0  0
    3.6529    2.9461    0.0000 O   0  0  0  0  0  0  0  0  0  0  0  0
    2.1853    2.6360    0.0000 C   0  0  0  0  0  0  0  0  0  0  0  0
    1.1830    3.7520    0.0000 O   0  0  0  0  0  0  0  0  0  0  0  0
    1.7200    1.2100    0.0000 C   0  0  0  0  0  0  0  0  0  0  0  0
    2.6000   -0.0000    0.0000 C   0  0  0  0  0  0  0  0  0  0  0  0
    4.1000   -0.0000    0.0000 C   0  0  0  0  0  0  0  0  0  0  0  0
    5.5095    0.5130    0.0000 H   0  0  0  0  0  0  0  0  0  0  0  0
    3.8395    1.4772    0.0000 H   0  0  0  0  0  0  0  0  0  0  0  0
    4.8500   -1.2990    0.0000 S   0  0  0  0  0  0  0  0  0  0  0  0
    6.3500   -1.2990    0.0000 C   0  0  0  0  0  0  0  0  0  0  0  0
    7.1002   -0.0001    0.0000 C   0  0  0  0  0  0  0  0  0  0  0  0
    6.3506    1.2992    0.0000 H   0  0  0  0  0  0  0  0  0  0  0  0
    8.6010   -0.0008    0.0000 C   0  0  0  0  0  0  0  0  0  0  0  0
    9.3512    1.2981    0.0000 H   0  0  0  0  0  0  0  0  0  0  0  0
    9.3517   -1.3005    0.0000 C   0  0  0  0  0  0  0  0  0  0  0  0
   10.8517   -1.3005    0.0000 H   0  0  0  0  0  0  0  0  0  0  0  0
    8.6015   -2.5994    0.0000 C   0  0  0  0  0  0  0  0  0  0  0  0
    9.3510   -3.8987    0.0000 H   0  0  0  0  0  0  0  0  0  0  0  0
    7.1006   -2.5987    0.0000 C   0  0  0  0  0  0  0  0  0  0  0  0
    6.3504   -3.8976    0.0000 H   0  0  0  0  0  0  0  0  0  0  0  0
    1.7200   -1.2100    0.0000 N   0  0  0  0  0  0  0  0  0  0  0  0
    2.1853   -2.6360    0.0000 C   0  0  0  0  0  0  0  0  0  0  0  0
    1.1830   -3.7520    0.0000 H   0  0  0  0  0  0  0  0  0  0  0  0
    3.1102   -3.8169    0.0000 H   0  0  0  0  0  0  0  0  0  0  0  0
    3.5088   -1.9302    0.0000 H   0  0  0  0  0  0  0  0  0  0  0  0
    0.2900   -0.7500    0.0000 C   0  0  0  0  0  0  0  0  0  0  0  0
    0.2900    0.7500    0.0000 C   0  0  0  0  0  0  0  0  0  0  0  0
   -1.0100    1.5000    0.0000 C   0  0  0  0  0  0  0  0  0  0  0  0
   -2.3100    0.7500    0.0000 C   0  0  0  0  0  0  0  0  0  0  0  0
   -2.3100   -0.7500    0.0000 C   0  0  0  0  0  0  0  0  0  0  0  0
   -1.0100   -1.5000    0.0000 C   0  0  0  0  0  0  0  0  0  0  0  0
   -1.0100   -3.0000    0.0000 H   0  0  0  0  0  0  0  0  0  0  0  0
   -3.6089   -1.5002    0.0000 Br  0  0  0  0  0  0  0  0  0  0  0  0
   -3.6089    1.5002    0.0000 O   0  0  0  0  0  0  0  0  0  0  0  0
   -4.9081    0.7504    0.0000 H   0  0  0  0  0  0  0  0  0  0  0  0
   -1.0100    3.0000    0.0000 C   0  0  0  0  0  0  0  0  0  0  0  0
    0.4672    2.7395    0.0000 H   0  0  0  0  0  0  0  0  0  0  0  0
   -0.4970    4.4095    0.0000 H   0  0  0  0  0  0  0  0  0  0  0  0
   -2.3090    3.7500    0.0000 N   0  0  0  0  0  0  0  0  0  0  0  0
   -2.3090    5.2500    0.0000 C   0  0  0  0  0  0  0  0  0  0  0  0
   -3.6081    6.0000    0.0000 H   0  0  0  0  0  0  0  0  0  0  0  0
   -1.0100    6.0000    0.0000 H   0  0  0  0  0  0  0  0  0  0  0  0
   -3.6081    3.0000    0.0000 C   0  0  0  0  0  0  0  0  0  0  0  0
   -4.9071    3.7500    0.0000 H   0  0  0  0  0  0  0  0  0  0  0  0
   -2.6439    1.8509    0.0000 H   0  0  0  0  0  0  0  0  0  0  0  0
   -4.5723    1.8509    0.0000 H   0  0  0  0  0  0  0  0  0  0  0  0
  1  2  1  0  0  0  0 
  1  3  1  0  0  0  0 
  1  4  1  0  0  0  0 
  1  5  1  0  0  0  0 
  5  6  1  0  0  0  0 
  5  7  1  0  0  0  0 
  5  8  1  0  0  0  0 
  8  9  1  0  0  0  0 
  9 10  2  0  0  0  0 
  9 11  1  0  0  0  0 
 11 12  2  0  0  0  0 
 12 13  1  0  0  0  0 
 13 14  1  0  0  0  0 
 13 15  1  0  0  0  0 
 13 16  1  0  0  0  0 
 16 17  1  0  0  0  0 
 17 18  2  0  0  0  0 
 18 19  1  0  0  0  0 
 18 20  1  0  0  0  0 
 20 21  1  0  0  0  0 
 20 22  2  0  0  0  0 
 22 23  1  0  0  0  0 
 22 24  1  0  0  0  0 
 24 25  1  0  0  0  0 
 24 26  2  0  0  0  0 
 17 26  1  0  0  0  0 
 26 27  1  0  0  0  0 
 12 28  1  0  0  0  0 
 28 29  1  0  0  0  0 
 29 30  1  0  0  0  0 
 29 31  1  0  0  0  0 
 29 32  1  0  0  0  0 
 28 33  1  0  0  0  0 
 33 34  2  0  0  0  0 
 11 34  1  0  0  0  0 
 34 35  1  0  0  0  0 
 35 36  2  0  0  0  0 
 36 37  1  0  0  0  0 
 37 38  2  0  0  0  0 
 33 38  1  0  0  0  0 
 38 39  1  0  0  0  0 
 37 40  1  0  0  0  0 
 36 41  1  0  0  0  0 
 41 42  1  0  0  0  0 
 35 43  1  0  0  0  0 
 43 44  1  0  0  0  0 
 43 45  1  0  0  0  0 
 43 46  1  0  0  0  0 
 46 47  2  0  0  0  0 
 47 48  1  0  0  0  0 
 47 49  1  0  0  0  0 
 46 50  1  0  0  0  0 
 50 51  1  0  0  0  0 
 50 52  1  0  0  0  0 
 50 53  1  0  0  0  0 
M  CHG  1  46   1
M  END
> <Rank>
26

> <Priority_score>
0.11430634871477237

> <Reaction_type>
dehydration of N-C bond

> <Parent_ID>
28

> <Parent_InChI>
InChI=1S/C22H25BrN2O3S/c1-5-28-22(27)20-18(13-29-14-9-7-6-8-10-14)25(4)17-11-16(23)21(26)15(19(17)20)12-24(2)3/h6-11,26H,5,12-13H2,1-4H3

> <Parent_SMILES>
CCOC(=O)c1c(CSc2ccccc2)n(C)c2cc(Br)c(O)c(CN(C)C)c12

$$$$
Molecule 28_metabolite 27
  CDK     0516241031

 55 57  0  0  0  0  0  0  0  0999 V2000
   -2.3090    5.2500    0.0000 C   0  0  0  0  0  0  0  0  0  0  0  0
   -1.0100    6.0000    0.0000 H   0  0  0  0  0  0  0  0  0  0  0  0
   -3.7862    4.9895    0.0000 H   0  0  0  0  0  0  0  0  0  0  0  0
   -2.8221    6.6595    0.0000 H   0  0  0  0  0  0  0  0  0  0  0  0
   -2.3090    3.7500    0.0000 N   0  0  0  0  0  0  0  0  0  0  0  0
   -3.6081    3.0000    0.0000 C   0  0  0  0  0  0  0  0  0  0  0  0
   -4.9071    3.7500    0.0000 H   0  0  0  0  0  0  0  0  0  0  0  0
   -4.5723    1.8509    0.0000 H   0  0  0  0  0  0  0  0  0  0  0  0
   -2.6439    1.8509    0.0000 H   0  0  0  0  0  0  0  0  0  0  0  0
   -1.0100    3.0000    0.0000 C   0  0  0  0  0  0  0  0  0  0  0  0
    0.4672    2.7395    0.0000 H   0  0  0  0  0  0  0  0  0  0  0  0
   -0.4970    4.4095    0.0000 H   0  0  0  0  0  0  0  0  0  0  0  0
   -1.0100    1.5000    0.0000 C   0  0  0  0  0  0  0  0  0  0  0  0
   -2.3100    0.7500    0.0000 C   0  0  0  0  0  0  0  0  0  0  0  0
   -2.3100   -0.7500    0.0000 C   0  0  0  0  0  0  0  0  0  0  0  0
   -1.0100   -1.5000    0.0000 C   0  0  0  0  0  0  0  0  0  0  0  0
   -1.0100   -3.0000    0.0000 H   0  0  0  0  0  0  0  0  0  0  0  0
    0.2900   -0.7500    0.0000 C   0  0  0  0  0  0  0  0  0  0  0  0
    0.2900    0.7500    0.0000 C   0  0  0  0  0  0  0  0  0  0  0  0
    1.7200    1.2100    0.0000 C   0  0  0  0  0  0  0  0  0  0  0  0
    2.6000   -0.0000    0.0000 C   0  0  0  0  0  0  0  0  0  0  0  0
    4.1000   -0.0000    0.0000 C   0  0  0  0  0  0  0  0  0  0  0  0
    5.5095    0.5130    0.0000 H   0  0  0  0  0  0  0  0  0  0  0  0
    3.8395    1.4772    0.0000 H   0  0  0  0  0  0  0  0  0  0  0  0
    4.8500   -1.2990    0.0000 S   0  0  0  0  0  0  0  0  0  0  0  0
    6.3500   -1.2990    0.0000 C   0  0  0  0  0  0  0  0  0  0  0  0
    7.1002   -0.0001    0.0000 C   0  0  0  0  0  0  0  0  0  0  0  0
    6.3506    1.2992    0.0000 H   0  0  0  0  0  0  0  0  0  0  0  0
    8.6010   -0.0008    0.0000 C   0  0  0  0  0  0  0  0  0  0  0  0
    9.3512    1.2981    0.0000 H   0  0  0  0  0  0  0  0  0  0  0  0
    9.3517   -1.3005    0.0000 C   0  0  0  0  0  0  0  0  0  0  0  0
   10.8517   -1.3005    0.0000 H   0  0  0  0  0  0  0  0  0  0  0  0
    8.6015   -2.5994    0.0000 C   0  0  0  0  0  0  0  0  0  0  0  0
    9.3510   -3.8987    0.0000 H   0  0  0  0  0  0  0  0  0  0  0  0
    7.1006   -2.5987    0.0000 C   0  0  0  0  0  0  0  0  0  0  0  0
    6.3504   -3.8976    0.0000 H   0  0  0  0  0  0  0  0  0  0  0  0
    1.7200   -1.2100    0.0000 N   0  0  0  0  0  0  0  0  0  0  0  0
    2.1853   -2.6360    0.0000 C   0  0  0  0  0  0  0  0  0  0  0  0
    1.1830   -3.7520    0.0000 H   0  0  0  0  0  0  0  0  0  0  0  0
    3.1102   -3.8169    0.0000 H   0  0  0  0  0  0  0  0  0  0  0  0
    3.5088   -1.9302    0.0000 H   0  0  0  0  0  0  0  0  0  0  0  0
    2.1853    2.6360    0.0000 C   0  0  0  0  0  0  0  0  0  0  0  0
    1.1830    3.7520    0.0000 O   0  0  0  0  0  0  0  0  0  0  0  0
    3.6529    2.9461    0.0000 O   0  0  0  0  0  0  0  0  0  0  0  0
    4.1182    4.3721    0.0000 C   0  0  0  0  0  0  0  0  0  0  0  0
    2.6330    4.5827    0.0000 H   0  0  0  0  0  0  0  0  0  0  0  0
    4.0677    5.8712    0.0000 H   0  0  0  0  0  0  0  0  0  0  0  0
    5.5858    4.6822    0.0000 C   0  0  0  0  0  0  0  0  0  0  0  0
    7.0709    4.4716    0.0000 H   0  0  0  0  0  0  0  0  0  0  0  0
    5.6363    3.1830    0.0000 H   0  0  0  0  0  0  0  0  0  0  0  0
    6.0510    6.1082    0.0000 O   0  0  0  0  0  0  0  0  0  0  0  0
    7.5186    6.4182    0.0000 H   0  0  0  0  0  0  0  0  0  0  0  0
   -3.6089   -1.5002    0.0000 Br  0  0  0  0  0  0  0  0  0  0  0  0
   -3.6089    1.5002    0.0000 O   0  0  0  0  0  0  0  0  0  0  0  0
   -4.9081    0.7504    0.0000 H   0  0  0  0  0  0  0  0  0  0  0  0
  1  2  1  0  0  0  0 
  1  3  1  0  0  0  0 
  1  4  1  0  0  0  0 
  1  5  1  0  0  0  0 
  5  6  1  0  0  0  0 
  6  7  1  0  0  0  0 
  6  8  1  0  0  0  0 
  6  9  1  0  0  0  0 
  5 10  1  0  0  0  0 
 10 11  1  0  0  0  0 
 10 12  1  0  0  0  0 
 10 13  1  0  0  0  0 
 13 14  2  0  0  0  0 
 14 15  1  0  0  0  0 
 15 16  2  0  0  0  0 
 16 17  1  0  0  0  0 
 16 18  1  0  0  0  0 
 18 19  2  0  0  0  0 
 13 19  1  0  0  0  0 
 19 20  1  0  0  0  0 
 20 21  2  0  0  0  0 
 21 22  1  0  0  0  0 
 22 23  1  0  0  0  0 
 22 24  1  0  0  0  0 
 22 25  1  0  0  0  0 
 25 26  1  0  0  0  0 
 26 27  2  0  0  0  0 
 27 28  1  0  0  0  0 
 27 29  1  0  0  0  0 
 29 30  1  0  0  0  0 
 29 31  2  0  0  0  0 
 31 32  1  0  0  0  0 
 31 33  1  0  0  0  0 
 33 34  1  0  0  0  0 
 33 35  2  0  0  0  0 
 26 35  1  0  0  0  0 
 35 36  1  0  0  0  0 
 21 37  1  0  0  0  0 
 18 37  1  0  0  0  0 
 37 38  1  0  0  0  0 
 38 39  1  0  0  0  0 
 38 40  1  0  0  0  0 
 38 41  1  0  0  0  0 
 20 42  1  0  0  0  0 
 42 43  2  0  0  0  0 
 42 44  1  0  0  0  0 
 44 45  1  0  0  0  0 
 45 46  1  0  0  0  0 
 45 47  1  0  0  0  0 
 45 48  1  0  0  0  0 
 48 49  1  0  0  0  0 
 48 50  1  0  0  0  0 
 48 51  1  0  0  0  0 
 51 52  1  0  0  0  0 
 15 53  1  0  0  0  0 
 14 54  1  0  0  0  0 
 54 55  1  0  0  0  0 
M  END
> <Rank>
27

> <Priority_score>
0.096

> <Reaction_type>
aliphatic hydroxylation

> <Parent_ID>
28

> <Parent_InChI>
InChI=1S/C22H25BrN2O3S/c1-5-28-22(27)20-18(13-29-14-9-7-6-8-10-14)25(4)17-11-16(23)21(26)15(19(17)20)12-24(2)3/h6-11,26H,5,12-13H2,1-4H3

> <Parent_SMILES>
CCOC(=O)c1c(CSc2ccccc2)n(C)c2cc(Br)c(O)c(CN(C)C)c12

$$$$
Molecule 28_metabolite 28
  CDK     0516241031

 52 54  0  0  0  0  0  0  0  0999 V2000
    5.5858    4.6822    0.0000 C   0  0  0  0  0  0  0  0  0  0  0  0
    6.0510    6.1082    0.0000 H   0  0  0  0  0  0  0  0  0  0  0  0
    6.5881    3.5662    0.0000 H   0  0  0  0  0  0  0  0  0  0  0  0
    4.1182    4.3721    0.0000 C   0  0  0  0  0  0  0  0  0  0  0  0
    3.1158    5.4880    0.0000 H   0  0  0  0  0  0  0  0  0  0  0  0
    3.6529    2.9461    0.0000 O   0  0  0  0  0  0  0  0  0  0  0  0
    2.1853    2.6360    0.0000 C   0  0  0  0  0  0  0  0  0  0  0  0
    1.1830    3.7520    0.0000 O   0  0  0  0  0  0  0  0  0  0  0  0
    1.7200    1.2100    0.0000 C   0  0  0  0  0  0  0  0  0  0  0  0
    2.6000   -0.0000    0.0000 C   0  0  0  0  0  0  0  0  0  0  0  0
    4.1000   -0.0000    0.0000 C   0  0  0  0  0  0  0  0  0  0  0  0
    5.5095    0.5130    0.0000 H   0  0  0  0  0  0  0  0  0  0  0  0
    3.8395    1.4772    0.0000 H   0  0  0  0  0  0  0  0  0  0  0  0
    4.8500   -1.2990    0.0000 S   0  0  0  0  0  0  0  0  0  0  0  0
    6.3500   -1.2990    0.0000 C   0  0  0  0  0  0  0  0  0  0  0  0
    7.1002   -0.0001    0.0000 C   0  0  0  0  0  0  0  0  0  0  0  0
    6.3506    1.2992    0.0000 H   0  0  0  0  0  0  0  0  0  0  0  0
    8.6010   -0.0008    0.0000 C   0  0  0  0  0  0  0  0  0  0  0  0
    9.3512    1.2981    0.0000 H   0  0  0  0  0  0  0  0  0  0  0  0
    9.3517   -1.3005    0.0000 C   0  0  0  0  0  0  0  0  0  0  0  0
   10.8517   -1.3005    0.0000 H   0  0  0  0  0  0  0  0  0  0  0  0
    8.6015   -2.5994    0.0000 C   0  0  0  0  0  0  0  0  0  0  0  0
    9.3510   -3.8987    0.0000 H   0  0  0  0  0  0  0  0  0  0  0  0
    7.1006   -2.5987    0.0000 C   0  0  0  0  0  0  0  0  0  0  0  0
    6.3504   -3.8976    0.0000 H   0  0  0  0  0  0  0  0  0  0  0  0
    1.7200   -1.2100    0.0000 N   0  0  0  0  0  0  0  0  0  0  0  0
    2.1853   -2.6360    0.0000 C   0  0  0  0  0  0  0  0  0  0  0  0
    1.1830   -3.7520    0.0000 H   0  0  0  0  0  0  0  0  0  0  0  0
    3.1102   -3.8169    0.0000 H   0  0  0  0  0  0  0  0  0  0  0  0
    3.5088   -1.9302    0.0000 H   0  0  0  0  0  0  0  0  0  0  0  0
    0.2900   -0.7500    0.0000 C   0  0  0  0  0  0  0  0  0  0  0  0
    0.2900    0.7500    0.0000 C   0  0  0  0  0  0  0  0  0  0  0  0
   -1.0100    1.5000    0.0000 C   0  0  0  0  0  0  0  0  0  0  0  0
   -2.3100    0.7500    0.0000 C   0  0  0  0  0  0  0  0  0  0  0  0
   -2.3100   -0.7500    0.0000 C   0  0  0  0  0  0  0  0  0  0  0  0
   -1.0100   -1.5000    0.0000 C   0  0  0  0  0  0  0  0  0  0  0  0
   -1.0100   -3.0000    0.0000 H   0  0  0  0  0  0  0  0  0  0  0  0
   -3.6089   -1.5002    0.0000 Br  0  0  0  0  0  0  0  0  0  0  0  0
   -3.6089    1.5002    0.0000 O   0  0  0  0  0  0  0  0  0  0  0  0
   -4.9081    0.7504    0.0000 H   0  0  0  0  0  0  0  0  0  0  0  0
   -1.0100    3.0000    0.0000 C   0  0  0  0  0  0  0  0  0  0  0  0
    0.4672    2.7395    0.0000 H   0  0  0  0  0  0  0  0  0  0  0  0
   -0.4970    4.4095    0.0000 H   0  0  0  0  0  0  0  0  0  0  0  0
   -2.3090    3.7500    0.0000 N   0  0  0  0  0  0  0  0  0  0  0  0
   -2.3090    5.2500    0.0000 C   0  0  0  0  0  0  0  0  0  0  0  0
   -1.0100    6.0000    0.0000 H   0  0  0  0  0  0  0  0  0  0  0  0
   -3.7862    4.9895    0.0000 H   0  0  0  0  0  0  0  0  0  0  0  0
   -2.8221    6.6595    0.0000 H   0  0  0  0  0  0  0  0  0  0  0  0
   -3.6081    3.0000    0.0000 C   0  0  0  0  0  0  0  0  0  0  0  0
   -4.9071    3.7500    0.0000 H   0  0  0  0  0  0  0  0  0  0  0  0
   -4.5723    1.8509    0.0000 H   0  0  0  0  0  0  0  0  0  0  0  0
   -2.6439    1.8509    0.0000 H   0  0  0  0  0  0  0  0  0  0  0  0
  1  2  1  0  0  0  0 
  1  3  1  0  0  0  0 
  1  4  2  0  0  0  0 
  4  5  1  0  0  0  0 
  4  6  1  0  0  0  0 
  6  7  1  0  0  0  0 
  7  8  2  0  0  0  0 
  7  9  1  0  0  0  0 
  9 10  2  0  0  0  0 
 10 11  1  0  0  0  0 
 11 12  1  0  0  0  0 
 11 13  1  0  0  0  0 
 11 14  1  0  0  0  0 
 14 15  1  0  0  0  0 
 15 16  2  0  0  0  0 
 16 17  1  0  0  0  0 
 16 18  1  0  0  0  0 
 18 19  1  0  0  0  0 
 18 20  2  0  0  0  0 
 20 21  1  0  0  0  0 
 20 22  1  0  0  0  0 
 22 23  1  0  0  0  0 
 22 24  2  0  0  0  0 
 15 24  1  0  0  0  0 
 24 25  1  0  0  0  0 
 10 26  1  0  0  0  0 
 26 27  1  0  0  0  0 
 27 28  1  0  0  0  0 
 27 29  1  0  0  0  0 
 27 30  1  0  0  0  0 
 26 31  1  0  0  0  0 
 31 32  2  0  0  0  0 
  9 32  1  0  0  0  0 
 32 33  1  0  0  0  0 
 33 34  2  0  0  0  0 
 34 35  1  0  0  0  0 
 35 36  2  0  0  0  0 
 31 36  1  0  0  0  0 
 36 37  1  0  0  0  0 
 35 38  1  0  0  0  0 
 34 39  1  0  0  0  0 
 39 40  1  0  0  0  0 
 33 41  1  0  0  0  0 
 41 42  1  0  0  0  0 
 41 43  1  0  0  0  0 
 41 44  1  0  0  0  0 
 44 45  1  0  0  0  0 
 45 46  1  0  0  0  0 
 45 47  1  0  0  0  0 
 45 48  1  0  0  0  0 
 44 49  1  0  0  0  0 
 49 50  1  0  0  0  0 
 49 51  1  0  0  0  0 
 49 52  1  0  0  0  0 
M  END
> <Rank>
28

> <Priority_score>
0.06544067439409905

> <Reaction_type>
alkyl dehydrogenation

> <Parent_ID>
28

> <Parent_InChI>
InChI=1S/C22H25BrN2O3S/c1-5-28-22(27)20-18(13-29-14-9-7-6-8-10-14)25(4)17-11-16(23)21(26)15(19(17)20)12-24(2)3/h6-11,26H,5,12-13H2,1-4H3

> <Parent_SMILES>
CCOC(=O)c1c(CSc2ccccc2)n(C)c2cc(Br)c(O)c(CN(C)C)c12

$$$$
Molecule 28_metabolite 29
  CDK     0516241031

 46 49  0  0  0  0  0  0  0  0999 V2000
    6.1773   -0.0007    0.0000 C   0  0  0  0  0  0  0  0  0  0  0  0
    6.0205    1.4911    0.0000 H   0  0  0  0  0  0  0  0  0  0  0  0
    7.6192    0.4128    0.0000 H   0  0  0  0  0  0  0  0  0  0  0  0
    6.8349   -1.3489    0.0000 H   0  0  0  0  0  0  0  0  0  0  0  0
    4.9638   -0.8824    0.0000 N   0  0  0  0  0  0  0  0  0  0  0  0
    5.1206   -2.3741    0.0000 C   0  0  0  0  0  0  0  0  0  0  0  0
    6.4909   -2.9842    0.0000 H   0  0  0  0  0  0  0  0  0  0  0  0
    3.6242   -2.2695    0.0000 H   0  0  0  0  0  0  0  0  0  0  0  0
    4.7577   -3.8296    0.0000 H   0  0  0  0  0  0  0  0  0  0  0  0
    3.5935   -0.2722    0.0000 C   0  0  0  0  0  0  0  0  0  0  0  0
    4.4323    0.9713    0.0000 H   0  0  0  0  0  0  0  0  0  0  0  0
    2.5145    0.7697    0.0000 H   0  0  0  0  0  0  0  0  0  0  0  0
    2.3800   -1.1539    0.0000 C   0  0  0  0  0  0  0  0  0  0  0  0
    2.5367   -2.6457    0.0000 C   0  0  0  0  0  0  0  0  0  0  0  0
    1.3232   -3.5274    0.0000 C   0  0  0  0  0  0  0  0  0  0  0  0
   -0.0471   -2.9173    0.0000 C   0  0  0  0  0  0  0  0  0  0  0  0
   -1.2606   -3.7990    0.0000 H   0  0  0  0  0  0  0  0  0  0  0  0
   -0.2039   -1.4255    0.0000 C   0  0  0  0  0  0  0  0  0  0  0  0
    1.0096   -0.5438    0.0000 C   0  0  0  0  0  0  0  0  0  0  0  0
    0.5461    0.8828    0.0000 C   0  0  0  0  0  0  0  0  0  0  0  0
   -0.9539    0.8828    0.0000 C   0  0  0  0  0  0  0  0  0  0  0  0
   -1.4174    2.3093    0.0000 C   0  0  0  0  0  0  0  0  0  0  0  0
   -2.1674    3.6084    0.0000 H   0  0  0  0  0  0  0  0  0  0  0  0
   -0.2039    3.1910    0.0000 O   0  0  0  0  0  0  0  0  0  0  0  0
    1.0096    2.3093    0.0000 C   0  0  0  0  0  0  0  0  0  0  0  0
    2.4362    2.7729    0.0000 O   0  0  0  0  0  0  0  0  0  0  0  0
   -2.7877    1.6992    0.0000 S   0  0  0  0  0  0  0  0  0  0  0  0
   -4.0013    2.5809    0.0000 C   0  0  0  0  0  0  0  0  0  0  0  0
   -5.3717    1.9710    0.0000 C   0  0  0  0  0  0  0  0  0  0  0  0
   -5.5289    0.4793    0.0000 H   0  0  0  0  0  0  0  0  0  0  0  0
   -6.5855    2.8538    0.0000 C   0  0  0  0  0  0  0  0  0  0  0  0
   -7.9559    2.2439    0.0000 H   0  0  0  0  0  0  0  0  0  0  0  0
   -6.4288    4.3464    0.0000 C   0  0  0  0  0  0  0  0  0  0  0  0
   -7.6423    5.2281    0.0000 H   0  0  0  0  0  0  0  0  0  0  0  0
   -5.0584    4.9563    0.0000 C   0  0  0  0  0  0  0  0  0  0  0  0
   -4.9011    6.4480    0.0000 H   0  0  0  0  0  0  0  0  0  0  0  0
   -3.8446    4.0736    0.0000 C   0  0  0  0  0  0  0  0  0  0  0  0
   -2.4742    4.6834    0.0000 H   0  0  0  0  0  0  0  0  0  0  0  0
   -1.4174   -0.5438    0.0000 N   0  0  0  0  0  0  0  0  0  0  0  0
   -2.8440   -1.0073    0.0000 C   0  0  0  0  0  0  0  0  0  0  0  0
   -3.1559   -2.4746    0.0000 H   0  0  0  0  0  0  0  0  0  0  0  0
   -3.0528    0.4781    0.0000 H   0  0  0  0  0  0  0  0  0  0  0  0
   -4.3431   -0.9550    0.0000 H   0  0  0  0  0  0  0  0  0  0  0  0
    1.4800   -5.0192    0.0000 Br  0  0  0  0  0  0  0  0  0  0  0  0
    3.9071   -3.2558    0.0000 O   0  0  0  0  0  0  0  0  0  0  0  0
    4.0639   -4.7476    0.0000 H   0  0  0  0  0  0  0  0  0  0  0  0
  1  2  1  0  0  0  0 
  1  3  1  0  0  0  0 
  1  4  1  0  0  0  0 
  1  5  1  0  0  0  0 
  5  6  1  0  0  0  0 
  6  7  1  0  0  0  0 
  6  8  1  0  0  0  0 
  6  9  1  0  0  0  0 
  5 10  1  0  0  0  0 
 10 11  1  0  0  0  0 
 10 12  1  0  0  0  0 
 10 13  1  0  0  0  0 
 13 14  2  0  0  0  0 
 14 15  1  0  0  0  0 
 15 16  2  0  0  0  0 
 16 17  1  0  0  0  0 
 16 18  1  0  0  0  0 
 18 19  2  0  0  0  0 
 13 19  1  0  0  0  0 
 19 20  1  0  0  0  0 
 20 21  2  0  0  0  0 
 21 22  1  0  0  0  0 
 22 23  1  0  0  0  0 
 22 24  1  0  0  0  0 
 24 25  1  0  0  0  0 
 20 25  1  0  0  0  0 
 25 26  2  0  0  0  0 
 22 27  1  0  0  0  0 
 27 28  1  0  0  0  0 
 28 29  2  0  0  0  0 
 29 30  1  0  0  0  0 
 29 31  1  0  0  0  0 
 31 32  1  0  0  0  0 
 31 33  2  0  0  0  0 
 33 34  1  0  0  0  0 
 33 35  1  0  0  0  0 
 35 36  1  0  0  0  0 
 35 37  2  0  0  0  0 
 28 37  1  0  0  0  0 
 37 38  1  0  0  0  0 
 21 39  1  0  0  0  0 
 18 39  1  0  0  0  0 
 39 40  1  0  0  0  0 
 40 41  1  0  0  0  0 
 40 42  1  0  0  0  0 
 40 43  1  0  0  0  0 
 15 44  1  0  0  0  0 
 14 45  1  0  0  0  0 
 45 46  1  0  0  0  0 
M  END
> <Rank>
28

> <Priority_score>
0.06544067439409905

> <Reaction_type>
cyclization to 5-membered lactone

> <Parent_ID>
28

> <Parent_InChI>
InChI=1S/C22H25BrN2O3S/c1-5-28-22(27)20-18(13-29-14-9-7-6-8-10-14)25(4)17-11-16(23)21(26)15(19(17)20)12-24(2)3/h6-11,26H,5,12-13H2,1-4H3

> <Parent_SMILES>
CCOC(=O)c1c(CSc2ccccc2)n(C)c2cc(Br)c(O)c(CN(C)C)c12

$$$$
Molecule 28_metabolite 30
  CDK     0516241031

 53 55  0  0  0  0  0  0  0  0999 V2000
    5.5858    4.6822    0.0000 C   0  0  0  0  0  0  0  0  0  0  0  0
    6.0510    6.1082    0.0000 H   0  0  0  0  0  0  0  0  0  0  0  0
    5.6363    3.1830    0.0000 H   0  0  0  0  0  0  0  0  0  0  0  0
    7.0709    4.4716    0.0000 H   0  0  0  0  0  0  0  0  0  0  0  0
    4.1182    4.3721    0.0000 C   0  0  0  0  0  0  0  0  0  0  0  0
    4.0677    5.8712    0.0000 H   0  0  0  0  0  0  0  0  0  0  0  0
    2.6330    4.5827    0.0000 H   0  0  0  0  0  0  0  0  0  0  0  0
    3.6529    2.9461    0.0000 O   0  0  0  0  0  0  0  0  0  0  0  0
    2.1853    2.6360    0.0000 C   0  0  0  0  0  0  0  0  0  0  0  0
    1.1830    3.7520    0.0000 O   0  0  0  0  0  0  0  0  0  0  0  0
    1.7200    1.2100    0.0000 C   0  0  0  0  0  0  0  0  0  0  0  0
    2.6000   -0.0000    0.0000 C   0  0  0  0  0  0  0  0  0  0  0  0
    4.1000   -0.0000    0.0000 C   0  0  0  0  0  0  0  0  0  0  0  0
    5.5095    0.5130    0.0000 H   0  0  0  0  0  0  0  0  0  0  0  0
    3.8395    1.4772    0.0000 H   0  0  0  0  0  0  0  0  0  0  0  0
    4.8500   -1.2990    0.0000 S   0  0  0  0  0  0  0  0  0  0  0  0
    6.3500   -1.2990    0.0000 C   0  0  0  0  0  0  0  0  0  0  0  0
    7.1002   -0.0001    0.0000 C   0  0  0  0  0  0  0  0  0  0  0  0
    6.3506    1.2992    0.0000 H   0  0  0  0  0  0  0  0  0  0  0  0
    8.6010   -0.0008    0.0000 C   0  0  0  0  0  0  0  0  0  0  0  0
    9.3512    1.2981    0.0000 H   0  0  0  0  0  0  0  0  0  0  0  0
    9.3517   -1.3005    0.0000 C   0  0  0  0  0  0  0  0  0  0  0  0
   10.8517   -1.3005    0.0000 H   0  0  0  0  0  0  0  0  0  0  0  0
    8.6015   -2.5994    0.0000 C   0  0  0  0  0  0  0  0  0  0  0  0
    9.3510   -3.8987    0.0000 H   0  0  0  0  0  0  0  0  0  0  0  0
    7.1006   -2.5987    0.0000 C   0  0  0  0  0  0  0  0  0  0  0  0
    6.3504   -3.8976    0.0000 H   0  0  0  0  0  0  0  0  0  0  0  0
    1.7200   -1.2100    0.0000 N   0  0  0  0  0  0  0  0  0  0  0  0
    2.1853   -2.6360    0.0000 C   0  0  0  0  0  0  0  0  0  0  0  0
    1.1830   -3.7520    0.0000 H   0  0  0  0  0  0  0  0  0  0  0  0
    3.1102   -3.8169    0.0000 H   0  0  0  0  0  0  0  0  0  0  0  0
    3.5088   -1.9302    0.0000 H   0  0  0  0  0  0  0  0  0  0  0  0
    0.2900   -0.7500    0.0000 C   0  0  0  0  0  0  0  0  0  0  0  0
    0.2900    0.7500    0.0000 C   0  0  0  0  0  0  0  0  0  0  0  0
   -1.0100    1.5000    0.0000 C   0  0  0  0  0  0  0  0  0  0  0  0
   -2.3100    0.7500    0.0000 C   0  0  0  0  0  0  0  0  0  0  0  0
   -2.3100   -0.7500    0.0000 C   0  0  0  0  0  0  0  0  0  0  0  0
   -1.0100   -1.5000    0.0000 C   0  0  0  0  0  0  0  0  0  0  0  0
   -1.0100   -3.0000    0.0000 H   0  0  0  0  0  0  0  0  0  0  0  0
   -3.6089   -1.5002    0.0000 Br  0  0  0  0  0  0  0  0  0  0  0  0
   -3.6089    1.5002    0.0000 O   0  0  0  0  0  0  0  0  0  0  0  0
   -4.9081    0.7504    0.0000 H   0  0  0  0  0  0  0  0  0  0  0  0
   -1.0100    3.0000    0.0000 C   0  0  0  0  0  0  0  0  0  0  0  0
    0.2890    3.7500    0.0000 H   0  0  0  0  0  0  0  0  0  0  0  0
   -2.3090    3.7500    0.0000 N   0  0  0  0  0  0  0  0  0  0  0  0
   -2.3090    5.2500    0.0000 C   0  0  0  0  0  0  0  0  0  0  0  0
   -3.6081    6.0000    0.0000 H   0  0  0  0  0  0  0  0  0  0  0  0
   -0.8318    4.9895    0.0000 H   0  0  0  0  0  0  0  0  0  0  0  0
   -1.7960    6.6595    0.0000 H   0  0  0  0  0  0  0  0  0  0  0  0
   -3.6081    3.0000    0.0000 C   0  0  0  0  0  0  0  0  0  0  0  0
   -4.9071    3.7500    0.0000 H   0  0  0  0  0  0  0  0  0  0  0  0
   -4.5723    1.8509    0.0000 H   0  0  0  0  0  0  0  0  0  0  0  0
   -2.6439    1.8509    0.0000 H   0  0  0  0  0  0  0  0  0  0  0  0
  1  2  1  0  0  0  0 
  1  3  1  0  0  0  0 
  1  4  1  0  0  0  0 
  1  5  1  0  0  0  0 
  5  6  1  0  0  0  0 
  5  7  1  0  0  0  0 
  5  8  1  0  0  0  0 
  8  9  1  0  0  0  0 
  9 10  2  0  0  0  0 
  9 11  1  0  0  0  0 
 11 12  2  0  0  0  0 
 12 13  1  0  0  0  0 
 13 14  1  0  0  0  0 
 13 15  1  0  0  0  0 
 13 16  1  0  0  0  0 
 16 17  1  0  0  0  0 
 17 18  2  0  0  0  0 
 18 19  1  0  0  0  0 
 18 20  1  0  0  0  0 
 20 21  1  0  0  0  0 
 20 22  2  0  0  0  0 
 22 23  1  0  0  0  0 
 22 24  1  0  0  0  0 
 24 25  1  0  0  0  0 
 24 26  2  0  0  0  0 
 17 26  1  0  0  0  0 
 26 27  1  0  0  0  0 
 12 28  1  0  0  0  0 
 28 29  1  0  0  0  0 
 29 30  1  0  0  0  0 
 29 31  1  0  0  0  0 
 29 32  1  0  0  0  0 
 28 33  1  0  0  0  0 
 33 34  2  0  0  0  0 
 11 34  1  0  0  0  0 
 34 35  1  0  0  0  0 
 35 36  2  0  0  0  0 
 36 37  1  0  0  0  0 
 37 38  2  0  0  0  0 
 33 38  1  0  0  0  0 
 38 39  1  0  0  0  0 
 37 40  1  0  0  0  0 
 36 41  1  0  0  0  0 
 41 42  1  0  0  0  0 
 35 43  1  0  0  0  0 
 43 44  1  0  0  0  0 
 43 45  2  0  0  0  0 
 45 46  1  0  0  0  0 
 46 47  1  0  0  0  0 
 46 48  1  0  0  0  0 
 46 49  1  0  0  0  0 
 45 50  1  0  0  0  0 
 50 51  1  0  0  0  0 
 50 52  1  0  0  0  0 
 50 53  1  0  0  0  0 
M  CHG  1  45   1
M  END
> <Rank>
30

> <Priority_score>
0.05584067439409906

> <Reaction_type>
dehydration of N-C bond

> <Parent_ID>
28

> <Parent_InChI>
InChI=1S/C22H25BrN2O3S/c1-5-28-22(27)20-18(13-29-14-9-7-6-8-10-14)25(4)17-11-16(23)21(26)15(19(17)20)12-24(2)3/h6-11,26H,5,12-13H2,1-4H3

> <Parent_SMILES>
CCOC(=O)c1c(CSc2ccccc2)n(C)c2cc(Br)c(O)c(CN(C)C)c12

$$$$
Molecule 28_metabolite 31
  CDK     0516241031

 55 57  0  0  0  0  0  0  0  0999 V2000
    5.5858    4.6822    0.0000 C   0  0  0  0  0  0  0  0  0  0  0  0
    6.0510    6.1082    0.0000 H   0  0  0  0  0  0  0  0  0  0  0  0
    5.6363    3.1830    0.0000 H   0  0  0  0  0  0  0  0  0  0  0  0
    7.0709    4.4716    0.0000 H   0  0  0  0  0  0  0  0  0  0  0  0
    4.1182    4.3721    0.0000 C   0  0  0  0  0  0  0  0  0  0  0  0
    4.0677    5.8712    0.0000 H   0  0  0  0  0  0  0  0  0  0  0  0
    2.6330    4.5827    0.0000 H   0  0  0  0  0  0  0  0  0  0  0  0
    3.6529    2.9461    0.0000 O   0  0  0  0  0  0  0  0  0  0  0  0
    2.1853    2.6360    0.0000 C   0  0  0  0  0  0  0  0  0  0  0  0
    1.1830    3.7520    0.0000 O   0  0  0  0  0  0  0  0  0  0  0  0
    1.7200    1.2100    0.0000 C   0  0  0  0  0  0  0  0  0  0  0  0
    2.6000   -0.0000    0.0000 C   0  0  0  0  0  0  0  0  0  0  0  0
    4.1000   -0.0000    0.0000 C   0  0  0  0  0  0  0  0  0  0  0  0
    5.5095    0.5130    0.0000 H   0  0  0  0  0  0  0  0  0  0  0  0
    3.8395    1.4772    0.0000 H   0  0  0  0  0  0  0  0  0  0  0  0
    4.8500   -1.2990    0.0000 S   0  0  0  0  0  0  0  0  0  0  0  0
    6.3500   -1.2990    0.0000 C   0  0  0  0  0  0  0  0  0  0  0  0
    7.1006    0.0006    0.0000 C   0  0  0  0  0  0  0  0  0  0  0  0
    6.3504    1.2995    0.0000 H   0  0  0  0  0  0  0  0  0  0  0  0
    8.6015    0.0013    0.0000 C   0  0  0  0  0  0  0  0  0  0  0  0
    9.3517   -1.2976    0.0000 C   0  0  0  0  0  0  0  0  0  0  0  0
   10.8517   -1.2976    0.0000 H   0  0  0  0  0  0  0  0  0  0  0  0
    8.6010   -2.5972    0.0000 C   0  0  0  0  0  0  0  0  0  0  0  0
    9.3512   -3.8962    0.0000 H   0  0  0  0  0  0  0  0  0  0  0  0
    7.1002   -2.5980    0.0000 C   0  0  0  0  0  0  0  0  0  0  0  0
    6.3506   -3.8972    0.0000 H   0  0  0  0  0  0  0  0  0  0  0  0
    9.3510    1.3006    0.0000 O   0  0  0  0  0  0  0  0  0  0  0  0
   10.8510    1.3011    0.0000 H   0  0  0  0  0  0  0  0  0  0  0  0
    1.7200   -1.2100    0.0000 N   0  0  0  0  0  0  0  0  0  0  0  0
    2.1853   -2.6360    0.0000 C   0  0  0  0  0  0  0  0  0  0  0  0
    1.1830   -3.7520    0.0000 H   0  0  0  0  0  0  0  0  0  0  0  0
    3.1102   -3.8169    0.0000 H   0  0  0  0  0  0  0  0  0  0  0  0
    3.5088   -1.9302    0.0000 H   0  0  0  0  0  0  0  0  0  0  0  0
    0.2900   -0.7500    0.0000 C   0  0  0  0  0  0  0  0  0  0  0  0
    0.2900    0.7500    0.0000 C   0  0  0  0  0  0  0  0  0  0  0  0
   -1.0100    1.5000    0.0000 C   0  0  0  0  0  0  0  0  0  0  0  0
   -2.3100    0.7500    0.0000 C   0  0  0  0  0  0  0  0  0  0  0  0
   -2.3100   -0.7500    0.0000 C   0  0  0  0  0  0  0  0  0  0  0  0
   -1.0100   -1.5000    0.0000 C   0  0  0  0  0  0  0  0  0  0  0  0
   -1.0100   -3.0000    0.0000 H   0  0  0  0  0  0  0  0  0  0  0  0
   -3.6089   -1.5002    0.0000 Br  0  0  0  0  0  0  0  0  0  0  0  0
   -3.6089    1.5002    0.0000 O   0  0  0  0  0  0  0  0  0  0  0  0
   -4.9081    0.7504    0.0000 H   0  0  0  0  0  0  0  0  0  0  0  0
   -1.0100    3.0000    0.0000 C   0  0  0  0  0  0  0  0  0  0  0  0
    0.4672    2.7395    0.0000 H   0  0  0  0  0  0  0  0  0  0  0  0
   -0.4970    4.4095    0.0000 H   0  0  0  0  0  0  0  0  0  0  0  0
   -2.3090    3.7500    0.0000 N   0  0  0  0  0  0  0  0  0  0  0  0
   -3.6081    3.0000    0.0000 C   0  0  0  0  0  0  0  0  0  0  0  0
   -4.9071    3.7500    0.0000 H   0  0  0  0  0  0  0  0  0  0  0  0
   -4.5723    1.8509    0.0000 H   0  0  0  0  0  0  0  0  0  0  0  0
   -2.6439    1.8509    0.0000 H   0  0  0  0  0  0  0  0  0  0  0  0
   -2.3090    5.2500    0.0000 C   0  0  0  0  0  0  0  0  0  0  0  0
   -1.0100    6.0000    0.0000 H   0  0  0  0  0  0  0  0  0  0  0  0
   -3.7862    4.9895    0.0000 H   0  0  0  0  0  0  0  0  0  0  0  0
   -2.8221    6.6595    0.0000 H   0  0  0  0  0  0  0  0  0  0  0  0
  1  2  1  0  0  0  0 
  1  3  1  0  0  0  0 
  1  4  1  0  0  0  0 
  1  5  1  0  0  0  0 
  5  6  1  0  0  0  0 
  5  7  1  0  0  0  0 
  5  8  1  0  0  0  0 
  8  9  1  0  0  0  0 
  9 10  2  0  0  0  0 
  9 11  1  0  0  0  0 
 11 12  2  0  0  0  0 
 12 13  1  0  0  0  0 
 13 14  1  0  0  0  0 
 13 15  1  0  0  0  0 
 13 16  1  0  0  0  0 
 16 17  1  0  0  0  0 
 17 18  2  0  0  0  0 
 18 19  1  0  0  0  0 
 18 20  1  0  0  0  0 
 20 21  2  0  0  0  0 
 21 22  1  0  0  0  0 
 21 23  1  0  0  0  0 
 23 24  1  0  0  0  0 
 23 25  2  0  0  0  0 
 17 25  1  0  0  0  0 
 25 26  1  0  0  0  0 
 20 27  1  0  0  0  0 
 27 28  1  0  0  0  0 
 12 29  1  0  0  0  0 
 29 30  1  0  0  0  0 
 30 31  1  0  0  0  0 
 30 32  1  0  0  0  0 
 30 33  1  0  0  0  0 
 29 34  1  0  0  0  0 
 34 35  2  0  0  0  0 
 11 35  1  0  0  0  0 
 35 36  1  0  0  0  0 
 36 37  2  0  0  0  0 
 37 38  1  0  0  0  0 
 38 39  2  0  0  0  0 
 34 39  1  0  0  0  0 
 39 40  1  0  0  0  0 
 38 41  1  0  0  0  0 
 37 42  1  0  0  0  0 
 42 43  1  0  0  0  0 
 36 44  1  0  0  0  0 
 44 45  1  0  0  0  0 
 44 46  1  0  0  0  0 
 44 47  1  0  0  0  0 
 47 48  1  0  0  0  0 
 48 49  1  0  0  0  0 
 48 50  1  0  0  0  0 
 48 51  1  0  0  0  0 
 47 52  1  0  0  0  0 
 52 53  1  0  0  0  0 
 52 54  1  0  0  0  0 
 52 55  1  0  0  0  0 
M  END
> <Rank>
31

> <Priority_score>
0.05388251639757952

> <Reaction_type>
aromatic hydroxylation

> <Parent_ID>
28

> <Parent_InChI>
InChI=1S/C22H25BrN2O3S/c1-5-28-22(27)20-18(13-29-14-9-7-6-8-10-14)25(4)17-11-16(23)21(26)15(19(17)20)12-24(2)3/h6-11,26H,5,12-13H2,1-4H3

> <Parent_SMILES>
CCOC(=O)c1c(CSc2ccccc2)n(C)c2cc(Br)c(O)c(CN(C)C)c12

$$$$
Molecule 28_metabolite 32
  CDK     0516241031

 55 56  0  0  0  0  0  0  0  0999 V2000
    1.1077   -4.0514    0.0000 C   0  0  0  0  0  0  0  0  0  0  0  0
   -0.1912   -4.8016    0.0000 H   0  0  0  0  0  0  0  0  0  0  0  0
    2.5849   -3.7907    0.0000 H   0  0  0  0  0  0  0  0  0  0  0  0
    1.6210   -5.4608    0.0000 H   0  0  0  0  0  0  0  0  0  0  0  0
    1.1075   -2.5514    0.0000 C   0  0  0  0  0  0  0  0  0  0  0  0
   -0.3697   -2.8121    0.0000 H   0  0  0  0  0  0  0  0  0  0  0  0
    0.5942   -1.1419    0.0000 H   0  0  0  0  0  0  0  0  0  0  0  0
    2.4064   -1.8012    0.0000 O   0  0  0  0  0  0  0  0  0  0  0  0
    2.4062   -0.3012    0.0000 C   0  0  0  0  0  0  0  0  0  0  0  0
    1.1070    0.4486    0.0000 O   0  0  0  0  0  0  0  0  0  0  0  0
    3.7051    0.4490    0.0000 C   0  0  0  0  0  0  0  0  0  0  0  0
    5.0042   -0.3008    0.0000 C   0  0  0  0  0  0  0  0  0  0  0  0
    6.3032    0.4495    0.0000 C   0  0  0  0  0  0  0  0  0  0  0  0
    7.2672    1.5987    0.0000 H   0  0  0  0  0  0  0  0  0  0  0  0
    5.3388    1.5984    0.0000 H   0  0  0  0  0  0  0  0  0  0  0  0
    7.6023   -0.3003    0.0000 S   0  0  0  0  0  0  0  0  0  0  0  0
    8.9012    0.4499    0.0000 C   0  0  0  0  0  0  0  0  0  0  0  0
    8.9012    1.9499    0.0000 C   0  0  0  0  0  0  0  0  0  0  0  0
    7.6023    2.7001    0.0000 H   0  0  0  0  0  0  0  0  0  0  0  0
   10.2012    2.6999    0.0000 C   0  0  0  0  0  0  0  0  0  0  0  0
   10.2012    4.1999    0.0000 H   0  0  0  0  0  0  0  0  0  0  0  0
   11.5012    1.9499    0.0000 C   0  0  0  0  0  0  0  0  0  0  0  0
   12.8002    2.7001    0.0000 H   0  0  0  0  0  0  0  0  0  0  0  0
   11.5012    0.4499    0.0000 C   0  0  0  0  0  0  0  0  0  0  0  0
   12.8002   -0.3003    0.0000 H   0  0  0  0  0  0  0  0  0  0  0  0
   10.2012   -0.3001    0.0000 C   0  0  0  0  0  0  0  0  0  0  0  0
   10.2012   -1.8001    0.0000 H   0  0  0  0  0  0  0  0  0  0  0  0
    5.0045   -1.8008    0.0000 N   0  0  0  0  0  0  0  0  0  0  0  0
    6.3036   -2.5505    0.0000 H   0  0  0  0  0  0  0  0  0  0  0  0
    3.7056   -2.5510    0.0000 C   0  0  0  0  0  0  0  0  0  0  0  0
    3.7058   -4.0510    0.0000 H   0  0  0  0  0  0  0  0  0  0  0  0
    3.1923   -1.1415    0.0000 H   0  0  0  0  0  0  0  0  0  0  0  0
    2.2284   -2.8117    0.0000 H   0  0  0  0  0  0  0  0  0  0  0  0
    3.7048    1.9490    0.0000 C   0  0  0  0  0  0  0  0  0  0  0  0
    2.4051    2.6995    0.0000 C   0  0  0  0  0  0  0  0  0  0  0  0
    1.1063    1.9490    0.0000 C   0  0  0  0  0  0  0  0  0  0  0  0
    0.1425    0.7997    0.0000 H   0  0  0  0  0  0  0  0  0  0  0  0
    2.0708    0.8003    0.0000 H   0  0  0  0  0  0  0  0  0  0  0  0
   -0.1930    2.6986    0.0000 N   0  0  0  0  0  0  0  0  0  0  0  0
   -1.4918    1.9482    0.0000 C   0  0  0  0  0  0  0  0  0  0  0  0
   -1.4913    0.4482    0.0000 H   0  0  0  0  0  0  0  0  0  0  0  0
   -2.9689    1.6873    0.0000 H   0  0  0  0  0  0  0  0  0  0  0  0
   -2.0053    3.3576    0.0000 H   0  0  0  0  0  0  0  0  0  0  0  0
   -0.1935    4.1986    0.0000 C   0  0  0  0  0  0  0  0  0  0  0  0
   -1.4928    4.9482    0.0000 H   0  0  0  0  0  0  0  0  0  0  0  0
    1.2838    3.9386    0.0000 H   0  0  0  0  0  0  0  0  0  0  0  0
    0.3191    5.6083    0.0000 H   0  0  0  0  0  0  0  0  0  0  0  0
    2.4041    4.2003    0.0000 C   0  0  0  0  0  0  0  0  0  0  0  0
    1.1047    4.9497    0.0000 O   0  0  0  0  0  0  0  0  0  0  0  0
    3.7029    4.9507    0.0000 C   0  0  0  0  0  0  0  0  0  0  0  0
    5.0027    4.2003    0.0000 C   0  0  0  0  0  0  0  0  0  0  0  0
    6.3015    4.9507    0.0000 H   0  0  0  0  0  0  0  0  0  0  0  0
    5.0036    2.6995    0.0000 C   0  0  0  0  0  0  0  0  0  0  0  0
    6.3030    1.9501    0.0000 O   0  0  0  0  0  0  0  0  0  0  0  0
    3.7027    6.4507    0.0000 Br  0  0  0  0  0  0  0  0  0  0  0  0
  1  2  1  0  0  0  0 
  1  3  1  0  0  0  0 
  1  4  1  0  0  0  0 
  1  5  1  0  0  0  0 
  5  6  1  0  0  0  0 
  5  7  1  0  0  0  0 
  5  8  1  0  0  0  0 
  8  9  1  0  0  0  0 
  9 10  2  0  0  0  0 
  9 11  1  0  0  0  0 
 11 12  2  0  0  0  0 
 12 13  1  0  0  0  0 
 13 14  1  0  0  0  0 
 13 15  1  0  0  0  0 
 13 16  1  0  0  0  0 
 16 17  1  0  0  0  0 
 17 18  2  0  0  0  0 
 18 19  1  0  0  0  0 
 18 20  1  0  0  0  0 
 20 21  1  0  0  0  0 
 20 22  2  0  0  0  0 
 22 23  1  0  0  0  0 
 22 24  1  0  0  0  0 
 24 25  1  0  0  0  0 
 24 26  2  0  0  0  0 
 17 26  1  0  0  0  0 
 26 27  1  0  0  0  0 
 12 28  1  4  0  0  0 
 28 29  1  0  0  0  0 
 28 30  1  0  0  0  0 
 30 31  1  0  0  0  0 
 30 32  1  0  0  0  0 
 30 33  1  0  0  0  0 
 11 34  1  0  0  0  0 
 34 35  2  0  0  0  0 
 35 36  1  0  0  0  0 
 36 37  1  0  0  0  0 
 36 38  1  0  0  0  0 
 36 39  1  0  0  0  0 
 39 40  1  0  0  0  0 
 40 41  1  0  0  0  0 
 40 42  1  0  0  0  0 
 40 43  1  0  0  0  0 
 39 44  1  0  0  0  0 
 44 45  1  0  0  0  0 
 44 46  1  0  0  0  0 
 44 47  1  0  0  0  0 
 35 48  1  0  0  0  0 
 48 49  2  0  0  0  0 
 48 50  1  0  0  0  0 
 50 51  2  0  0  0  0 
 51 52  1  0  0  0  0 
 51 53  1  0  0  0  0 
 34 53  1  0  0  0  0 
 53 54  2  0  0  0  0 
 50 55  1  0  0  0  0 
M  END
> <Rank>
32

> <Priority_score>
0.039200000000000006

> <Reaction_type>
oxidation of 4-substituted phenol to quinone

> <Parent_ID>
28

> <Parent_InChI>
InChI=1S/C22H25BrN2O3S/c1-5-28-22(27)20-18(13-29-14-9-7-6-8-10-14)25(4)17-11-16(23)21(26)15(19(17)20)12-24(2)3/h6-11,26H,5,12-13H2,1-4H3

> <Parent_SMILES>
CCOC(=O)c1c(CSc2ccccc2)n(C)c2cc(Br)c(O)c(CN(C)C)c12

$$$$
Molecule 28_metabolite 33
  CDK     0516241031

 55 57  0  0  0  0  0  0  0  0999 V2000
    5.5858    4.6822    0.0000 C   0  0  0  0  0  0  0  0  0  0  0  0
    6.0510    6.1082    0.0000 H   0  0  0  0  0  0  0  0  0  0  0  0
    5.6363    3.1830    0.0000 H   0  0  0  0  0  0  0  0  0  0  0  0
    7.0709    4.4716    0.0000 H   0  0  0  0  0  0  0  0  0  0  0  0
    4.1182    4.3721    0.0000 C   0  0  0  0  0  0  0  0  0  0  0  0
    4.0677    5.8712    0.0000 H   0  0  0  0  0  0  0  0  0  0  0  0
    2.6330    4.5827    0.0000 H   0  0  0  0  0  0  0  0  0  0  0  0
    3.6529    2.9461    0.0000 O   0  0  0  0  0  0  0  0  0  0  0  0
    2.1853    2.6360    0.0000 C   0  0  0  0  0  0  0  0  0  0  0  0
    1.1830    3.7520    0.0000 O   0  0  0  0  0  0  0  0  0  0  0  0
    1.7200    1.2100    0.0000 C   0  0  0  0  0  0  0  0  0  0  0  0
    2.6000   -0.0000    0.0000 C   0  0  0  0  0  0  0  0  0  0  0  0
    4.1000   -0.0000    0.0000 C   0  0  0  0  0  0  0  0  0  0  0  0
    5.5095    0.5130    0.0000 H   0  0  0  0  0  0  0  0  0  0  0  0
    3.8395    1.4772    0.0000 H   0  0  0  0  0  0  0  0  0  0  0  0
    4.8500   -1.2990    0.0000 S   0  0  0  0  0  0  0  0  0  0  0  0
    6.3500   -1.2990    0.0000 C   0  0  0  0  0  0  0  0  0  0  0  0
    7.1002   -0.0001    0.0000 C   0  0  0  0  0  0  0  0  0  0  0  0
    6.3506    1.2992    0.0000 H   0  0  0  0  0  0  0  0  0  0  0  0
    8.6010   -0.0008    0.0000 C   0  0  0  0  0  0  0  0  0  0  0  0
    9.3512    1.2981    0.0000 H   0  0  0  0  0  0  0  0  0  0  0  0
    9.3517   -1.3005    0.0000 C   0  0  0  0  0  0  0  0  0  0  0  0
   10.8517   -1.3005    0.0000 H   0  0  0  0  0  0  0  0  0  0  0  0
    8.6015   -2.5994    0.0000 C   0  0  0  0  0  0  0  0  0  0  0  0
    9.3510   -3.8987    0.0000 H   0  0  0  0  0  0  0  0  0  0  0  0
    7.1006   -2.5987    0.0000 C   0  0  0  0  0  0  0  0  0  0  0  0
    6.3504   -3.8976    0.0000 H   0  0  0  0  0  0  0  0  0  0  0  0
    1.7200   -1.2100    0.0000 N   0  0  0  0  0  0  0  0  0  0  0  0
    2.1853   -2.6360    0.0000 C   0  0  0  0  0  0  0  0  0  0  0  0
    1.1830   -3.7520    0.0000 H   0  0  0  0  0  0  0  0  0  0  0  0
    3.1102   -3.8169    0.0000 H   0  0  0  0  0  0  0  0  0  0  0  0
    3.5088   -1.9302    0.0000 H   0  0  0  0  0  0  0  0  0  0  0  0
    0.2900   -0.7500    0.0000 C   0  0  0  0  0  0  0  0  0  0  0  0
    0.2900    0.7500    0.0000 C   0  0  0  0  0  0  0  0  0  0  0  0
   -1.0100    1.5000    0.0000 C   0  0  0  0  0  0  0  0  0  0  0  0
   -2.3100    0.7500    0.0000 C   0  0  0  0  0  0  0  0  0  0  0  0
   -2.3100   -0.7500    0.0000 C   0  0  0  0  0  0  0  0  0  0  0  0
   -1.0100   -1.5000    0.0000 C   0  0  0  0  0  0  0  0  0  0  0  0
   -1.0100   -3.0000    0.0000 H   0  0  0  0  0  0  0  0  0  0  0  0
   -3.6089   -1.5002    0.0000 O   0  0  0  0  0  0  0  0  0  0  0  0
   -4.9081   -0.7504    0.0000 H   0  0  0  0  0  0  0  0  0  0  0  0
   -3.6089    1.5002    0.0000 O   0  0  0  0  0  0  0  0  0  0  0  0
   -4.9081    0.7504    0.0000 H   0  0  0  0  0  0  0  0  0  0  0  0
   -1.0100    3.0000    0.0000 C   0  0  0  0  0  0  0  0  0  0  0  0
    0.4672    2.7395    0.0000 H   0  0  0  0  0  0  0  0  0  0  0  0
   -0.4970    4.4095    0.0000 H   0  0  0  0  0  0  0  0  0  0  0  0
   -2.3090    3.7500    0.0000 N   0  0  0  0  0  0  0  0  0  0  0  0
   -2.3090    5.2500    0.0000 C   0  0  0  0  0  0  0  0  0  0  0  0
   -1.0100    6.0000    0.0000 H   0  0  0  0  0  0  0  0  0  0  0  0
   -3.7862    4.9895    0.0000 H   0  0  0  0  0  0  0  0  0  0  0  0
   -2.8221    6.6595    0.0000 H   0  0  0  0  0  0  0  0  0  0  0  0
   -3.6081    3.0000    0.0000 C   0  0  0  0  0  0  0  0  0  0  0  0
   -4.9071    3.7500    0.0000 H   0  0  0  0  0  0  0  0  0  0  0  0
   -4.5723    1.8509    0.0000 H   0  0  0  0  0  0  0  0  0  0  0  0
   -2.6439    1.8509    0.0000 H   0  0  0  0  0  0  0  0  0  0  0  0
  1  2  1  0  0  0  0 
  1  3  1  0  0  0  0 
  1  4  1  0  0  0  0 
  1  5  1  0  0  0  0 
  5  6  1  0  0  0  0 
  5  7  1  0  0  0  0 
  5  8  1  0  0  0  0 
  8  9  1  0  0  0  0 
  9 10  2  0  0  0  0 
  9 11  1  0  0  0  0 
 11 12  2  0  0  0  0 
 12 13  1  0  0  0  0 
 13 14  1  0  0  0  0 
 13 15  1  0  0  0  0 
 13 16  1  0  0  0  0 
 16 17  1  0  0  0  0 
 17 18  2  0  0  0  0 
 18 19  1  0  0  0  0 
 18 20  1  0  0  0  0 
 20 21  1  0  0  0  0 
 20 22  2  0  0  0  0 
 22 23  1  0  0  0  0 
 22 24  1  0  0  0  0 
 24 25  1  0  0  0  0 
 24 26  2  0  0  0  0 
 17 26  1  0  0  0  0 
 26 27  1  0  0  0  0 
 12 28  1  0  0  0  0 
 28 29  1  0  0  0  0 
 29 30  1  0  0  0  0 
 29 31  1  0  0  0  0 
 29 32  1  0  0  0  0 
 28 33  1  0  0  0  0 
 33 34  2  0  0  0  0 
 11 34  1  0  0  0  0 
 34 35  1  0  0  0  0 
 35 36  2  0  0  0  0 
 36 37  1  0  0  0  0 
 37 38  2  0  0  0  0 
 33 38  1  0  0  0  0 
 38 39  1  0  0  0  0 
 37 40  1  0  0  0  0 
 40 41  1  0  0  0  0 
 36 42  1  0  0  0  0 
 42 43  1  0  0  0  0 
 35 44  1  0  0  0  0 
 44 45  1  0  0  0  0 
 44 46  1  0  0  0  0 
 44 47  1  0  0  0  0 
 47 48  1  0  0  0  0 
 48 49  1  0  0  0  0 
 48 50  1  0  0  0  0 
 48 51  1  0  0  0  0 
 47 52  1  0  0  0  0 
 52 53  1  0  0  0  0 
 52 54  1  0  0  0  0 
 52 55  1  0  0  0  0 
M  END
> <Rank>
33

> <Priority_score>
0.027200000000000002

> <Reaction_type>
oxidative dehalogenation benzyl

> <Parent_ID>
28

> <Parent_InChI>
InChI=1S/C22H25BrN2O3S/c1-5-28-22(27)20-18(13-29-14-9-7-6-8-10-14)25(4)17-11-16(23)21(26)15(19(17)20)12-24(2)3/h6-11,26H,5,12-13H2,1-4H3

> <Parent_SMILES>
CCOC(=O)c1c(CSc2ccccc2)n(C)c2cc(Br)c(O)c(CN(C)C)c12

$$$$
Molecule 29
  CDK     0516241031

 29 30  0  0  0  0  0  0  0  0999 V2000
  -12.3130    2.5774    0.0000 C   0  0  0  0  0  0  0  0  0  0  0  0
  -11.0177    1.8210    0.0000 N   0  0  0  0  0  0  0  0  0  0  0  0
  -11.0251    0.3211    0.0000 C   0  0  0  0  0  0  0  0  0  0  0  0
   -9.7150    2.5646    0.0000 C   0  0  0  0  0  0  0  0  0  0  0  0
   -9.7076    4.0646    0.0000 O   0  0  0  0  0  0  0  0  0  0  0  0
   -8.4197    1.8082    0.0000 C   0  0  0  0  0  0  0  0  0  0  0  0
   -7.1169    2.5518    0.0000 O   0  0  0  0  0  0  0  0  0  0  0  0
   -5.8216    1.7955    0.0000 C   0  0  0  0  0  0  0  0  0  0  0  0
   -5.8290    0.2955    0.0000 O   0  0  0  0  0  0  0  0  0  0  0  0
   -4.5189    2.5391    0.0000 C   0  0  0  0  0  0  0  0  0  0  0  0
   -3.2236    1.7827    0.0000 C   0  0  0  0  0  0  0  0  0  0  0  0
   -1.9245    2.5327    0.0000 C   0  0  0  0  0  0  0  0  0  0  0  0
   -0.6400    1.8078    0.0000 C   0  0  0  0  0  0  0  0  0  0  0  0
   -0.6145    0.2637    0.0000 C   0  0  0  0  0  0  0  0  0  0  0  0
   -1.9136   -0.4863    0.0000 C   0  0  0  0  0  0  0  0  0  0  0  0
   -3.2381    0.3078    0.0000 C   0  0  0  0  0  0  0  0  0  0  0  0
    0.6906   -0.4756    0.0000 O   0  0  0  0  0  0  0  0  0  0  0  0
    1.9835    0.2851    0.0000 C   0  0  0  0  0  0  0  0  0  0  0  0
    1.9711    1.7851    0.0000 O   0  0  0  0  0  0  0  0  0  0  0  0
    3.2886   -0.4541    0.0000 C   0  0  0  0  0  0  0  0  0  0  0  0
    3.3012   -1.9541    0.0000 C   0  0  0  0  0  0  0  0  0  0  0  0
    4.6075   -2.6931    0.0000 C   0  0  0  0  0  0  0  0  0  0  0  0
    5.9012   -1.9322    0.0000 C   0  0  0  0  0  0  0  0  0  0  0  0
    5.8885   -0.4323    0.0000 C   0  0  0  0  0  0  0  0  0  0  0  0
    4.5823    0.3068    0.0000 C   0  0  0  0  0  0  0  0  0  0  0  0
    7.2063   -2.6715    0.0000 N   0  0  0  0  0  0  0  0  0  0  0  0
    8.4991   -1.9108    0.0000 C   0  0  0  0  0  0  0  0  0  0  0  0
    8.4868   -0.4108    0.0000 N   0  0  0  0  0  0  0  0  0  0  0  0
    9.8043   -2.6500    0.0000 N   0  0  0  0  0  0  0  0  0  0  0  0
  1  2  1  0  0  0  0 
  2  3  1  0  0  0  0 
  2  4  1  0  0  0  0 
  4  5  2  0  0  0  0 
  4  6  1  0  0  0  0 
  6  7  1  0  0  0  0 
  7  8  1  0  0  0  0 
  8  9  2  0  0  0  0 
  8 10  1  0  0  0  0 
 10 11  1  0  0  0  0 
 11 12  2  0  0  0  0 
 12 13  1  0  0  0  0 
 13 14  2  0  0  0  0 
 14 15  1  0  0  0  0 
 15 16  2  0  0  0  0 
 11 16  1  0  0  0  0 
 14 17  1  0  0  0  0 
 17 18  1  0  0  0  0 
 18 19  2  0  0  0  0 
 18 20  1  0  0  0  0 
 20 21  2  0  0  0  0 
 21 22  1  0  0  0  0 
 22 23  2  0  0  0  0 
 23 24  1  0  0  0  0 
 24 25  2  0  0  0  0 
 20 25  1  0  0  0  0 
 23 26  1  0  0  0  0 
 26 27  1  0  0  0  0 
 27 28  2  0  0  0  0 
 27 29  1  0  0  0  0 
M  END
> <SMILES>
CN(C)C(=O)COC(=O)Cc1ccc(OC(=O)c2ccc(NC(=N)N)cc2)cc1

$$$$
Molecule 29_metabolite 1
  CDK     0516241031

 52 53  0  0  0  0  0  0  0  0999 V2000
  -14.1536    1.1867    0.0000 C   0  0  0  0  0  0  0  0  0  0  0  0
  -14.1610   -0.3132    0.0000 H   0  0  0  0  0  0  0  0  0  0  0  0
  -14.6597    2.5988    0.0000 H   0  0  0  0  0  0  0  0  0  0  0  0
  -15.6321    0.9335    0.0000 H   0  0  0  0  0  0  0  0  0  0  0  0
  -12.8509    1.9303    0.0000 N   0  0  0  0  0  0  0  0  0  0  0  0
  -12.3448    0.5183    0.0000 C   0  0  0  0  0  0  0  0  0  0  0  0
  -13.3146   -0.6260    0.0000 H   0  0  0  0  0  0  0  0  0  0  0  0
  -11.3863   -0.6355    0.0000 H   0  0  0  0  0  0  0  0  0  0  0  0
  -11.0421    1.2619    0.0000 H   0  0  0  0  0  0  0  0  0  0  0  0
  -12.8435    3.4303    0.0000 C   0  0  0  0  0  0  0  0  0  0  0  0
  -14.1388    4.1867    0.0000 O   0  0  0  0  0  0  0  0  0  0  0  0
  -11.5408    4.1739    0.0000 C   0  0  0  0  0  0  0  0  0  0  0  0
  -12.4993    5.3277    0.0000 H   0  0  0  0  0  0  0  0  0  0  0  0
  -10.5709    5.3182    0.0000 H   0  0  0  0  0  0  0  0  0  0  0  0
  -10.2454    3.4175    0.0000 O   0  0  0  0  0  0  0  0  0  0  0  0
   -8.9427    4.1611    0.0000 C   0  0  0  0  0  0  0  0  0  0  0  0
   -8.9353    5.6611    0.0000 O   0  0  0  0  0  0  0  0  0  0  0  0
   -7.6474    3.4047    0.0000 C   0  0  0  0  0  0  0  0  0  0  0  0
   -6.6889    2.2509    0.0000 H   0  0  0  0  0  0  0  0  0  0  0  0
   -8.6172    2.2604    0.0000 H   0  0  0  0  0  0  0  0  0  0  0  0
   -6.3447    4.1483    0.0000 C   0  0  0  0  0  0  0  0  0  0  0  0
   -5.0531    3.3856    0.0000 C   0  0  0  0  0  0  0  0  0  0  0  0
   -5.0752    1.8858    0.0000 H   0  0  0  0  0  0  0  0  0  0  0  0
   -3.7615    4.0978    0.0000 C   0  0  0  0  0  0  0  0  0  0  0  0
   -2.4801    3.3181    0.0000 H   0  0  0  0  0  0  0  0  0  0  0  0
   -3.7208    5.6416    0.0000 C   0  0  0  0  0  0  0  0  0  0  0  0
   -5.0124    6.4043    0.0000 C   0  0  0  0  0  0  0  0  0  0  0  0
   -5.0100    7.9043    0.0000 H   0  0  0  0  0  0  0  0  0  0  0  0
   -6.3447    5.6233    0.0000 C   0  0  0  0  0  0  0  0  0  0  0  0
   -7.6462    6.3689    0.0000 H   0  0  0  0  0  0  0  0  0  0  0  0
   -2.4084    6.3679    0.0000 O   0  0  0  0  0  0  0  0  0  0  0  0
   -1.1232    5.5946    0.0000 C   0  0  0  0  0  0  0  0  0  0  0  0
   -1.1503    4.0948    0.0000 O   0  0  0  0  0  0  0  0  0  0  0  0
    0.1892    6.3209    0.0000 C   0  0  0  0  0  0  0  0  0  0  0  0
    0.2166    7.8207    0.0000 C   0  0  0  0  0  0  0  0  0  0  0  0
   -1.0684    8.5945    0.0000 H   0  0  0  0  0  0  0  0  0  0  0  0
    1.5301    8.5468    0.0000 C   0  0  0  0  0  0  0  0  0  0  0  0
    1.5575   10.0466    0.0000 H   0  0  0  0  0  0  0  0  0  0  0  0
    2.8162    7.7732    0.0000 C   0  0  0  0  0  0  0  0  0  0  0  0
    2.7888    6.2735    0.0000 C   0  0  0  0  0  0  0  0  0  0  0  0
    4.0738    5.4997    0.0000 H   0  0  0  0  0  0  0  0  0  0  0  0
    1.4753    5.5473    0.0000 C   0  0  0  0  0  0  0  0  0  0  0  0
    1.4479    4.0476    0.0000 H   0  0  0  0  0  0  0  0  0  0  0  0
    4.1286    8.4996    0.0000 N   0  0  0  0  0  0  0  0  0  0  0  0
    4.1557    9.9994    0.0000 H   0  0  0  0  0  0  0  0  0  0  0  0
    5.4138    7.7262    0.0000 C   0  0  0  0  0  0  0  0  0  0  0  0
    5.3867    6.2265    0.0000 N   0  0  0  0  0  0  0  0  0  0  0  0
    6.6719    5.4531    0.0000 H   0  0  0  0  0  0  0  0  0  0  0  0
    6.7262    8.4526    0.0000 N   0  0  0  0  0  0  0  0  0  0  0  0
    8.0115    7.6792    0.0000 H   0  0  0  0  0  0  0  0  0  0  0  0
    6.7534    9.9523    0.0000 H   0  0  0  0  0  0  0  0  0  0  0  0
  -11.3724    2.1835    0.0000 O   0  0  0  0  0  0  0  0  0  0  0  0
  1  2  1  0  0  0  0 
  1  3  1  0  0  0  0 
  1  4  1  0  0  0  0 
  1  5  1  0  0  0  0 
  5  6  1  0  0  0  0 
  6  7  1  0  0  0  0 
  6  8  1  0  0  0  0 
  6  9  1  0  0  0  0 
  5 10  1  0  0  0  0 
 10 11  2  0  0  0  0 
 10 12  1  0  0  0  0 
 12 13  1  0  0  0  0 
 12 14  1  0  0  0  0 
 12 15  1  0  0  0  0 
 15 16  1  0  0  0  0 
 16 17  2  0  0  0  0 
 16 18  1  0  0  0  0 
 18 19  1  0  0  0  0 
 18 20  1  0  0  0  0 
 18 21  1  0  0  0  0 
 21 22  2  0  0  0  0 
 22 23  1  0  0  0  0 
 22 24  1  0  0  0  0 
 24 25  1  0  0  0  0 
 24 26  2  0  0  0  0 
 26 27  1  0  0  0  0 
 27 28  1  0  0  0  0 
 27 29  2  0  0  0  0 
 21 29  1  0  0  0  0 
 29 30  1  0  0  0  0 
 26 31  1  0  0  0  0 
 31 32  1  0  0  0  0 
 32 33  2  0  0  0  0 
 32 34  1  0  0  0  0 
 34 35  2  0  0  0  0 
 35 36  1  0  0  0  0 
 35 37  1  0  0  0  0 
 37 38  1  0  0  0  0 
 37 39  2  0  0  0  0 
 39 40  1  0  0  0  0 
 40 41  1  0  0  0  0 
 40 42  2  0  0  0  0 
 34 42  1  0  0  0  0 
 42 43  1  0  0  0  0 
 39 44  1  0  0  0  0 
 44 45  1  0  0  0  0 
 44 46  1  0  0  0  0 
 46 47  2  0  0  0  0 
 47 48  1  4  0  0  0 
 46 49  1  0  0  0  0 
 49 50  1  0  0  0  0 
 49 51  1  0  0  0  0 
  5 52  1  0  0  0  0 
M  CHG  1   5   1
M  CHG  1  52  -1
M  END
> <Rank>
1

> <Priority_score>
0.392

> <Reaction_type>
N-oxidation

> <Parent_ID>
29

> <Parent_InChI>
InChI=1S/C20H22N4O5/c1-24(2)17(25)12-28-18(26)11-13-3-9-16(10-4-13)29-19(27)14-5-7-15(8-6-14)23-20(21)22/h3-10H,11-12H2,1-2H3,(H4,21,22,23)

> <Parent_SMILES>
CN(C)C(=O)COC(=O)Cc1ccc(OC(=O)c2ccc(NC(=N)N)cc2)cc1

$$$$
Molecule 29_metabolite 2
  CDK     0516241031

 48 49  0  0  0  0  0  0  0  0999 V2000
  -12.1886    2.4928    0.0000 C   0  0  0  0  0  0  0  0  0  0  0  0
  -13.4913    1.7492    0.0000 H   0  0  0  0  0  0  0  0  0  0  0  0
  -11.2188    3.6371    0.0000 H   0  0  0  0  0  0  0  0  0  0  0  0
  -13.1471    3.6466    0.0000 H   0  0  0  0  0  0  0  0  0  0  0  0
  -10.8933    1.7364    0.0000 N   0  0  0  0  0  0  0  0  0  0  0  0
  -10.9006    0.2364    0.0000 H   0  0  0  0  0  0  0  0  0  0  0  0
   -9.5905    2.4800    0.0000 C   0  0  0  0  0  0  0  0  0  0  0  0
   -9.5832    3.9800    0.0000 O   0  0  0  0  0  0  0  0  0  0  0  0
   -8.2952    1.7236    0.0000 C   0  0  0  0  0  0  0  0  0  0  0  0
   -9.2650    0.5793    0.0000 H   0  0  0  0  0  0  0  0  0  0  0  0
   -7.3367    0.5698    0.0000 H   0  0  0  0  0  0  0  0  0  0  0  0
   -6.9925    2.4672    0.0000 O   0  0  0  0  0  0  0  0  0  0  0  0
   -5.6972    1.7109    0.0000 C   0  0  0  0  0  0  0  0  0  0  0  0
   -5.7046    0.2109    0.0000 O   0  0  0  0  0  0  0  0  0  0  0  0
   -4.3945    2.4545    0.0000 C   0  0  0  0  0  0  0  0  0  0  0  0
   -3.4246    3.5988    0.0000 H   0  0  0  0  0  0  0  0  0  0  0  0
   -5.3530    3.6083    0.0000 H   0  0  0  0  0  0  0  0  0  0  0  0
   -3.0991    1.6981    0.0000 C   0  0  0  0  0  0  0  0  0  0  0  0
   -1.8001    2.4481    0.0000 C   0  0  0  0  0  0  0  0  0  0  0  0
   -1.8075    3.9480    0.0000 H   0  0  0  0  0  0  0  0  0  0  0  0
   -0.5156    1.7232    0.0000 C   0  0  0  0  0  0  0  0  0  0  0  0
    0.7735    2.4903    0.0000 H   0  0  0  0  0  0  0  0  0  0  0  0
   -0.4901    0.1791    0.0000 C   0  0  0  0  0  0  0  0  0  0  0  0
   -1.7891   -0.5709    0.0000 C   0  0  0  0  0  0  0  0  0  0  0  0
   -1.8015   -2.0709    0.0000 H   0  0  0  0  0  0  0  0  0  0  0  0
   -3.1136    0.2232    0.0000 C   0  0  0  0  0  0  0  0  0  0  0  0
   -4.4224   -0.5096    0.0000 H   0  0  0  0  0  0  0  0  0  0  0  0
    0.8151   -0.5602    0.0000 O   0  0  0  0  0  0  0  0  0  0  0  0
    2.1079    0.2005    0.0000 C   0  0  0  0  0  0  0  0  0  0  0  0
    2.0955    1.7005    0.0000 O   0  0  0  0  0  0  0  0  0  0  0  0
    3.4131   -0.5387    0.0000 C   0  0  0  0  0  0  0  0  0  0  0  0
    3.4257   -2.0387    0.0000 C   0  0  0  0  0  0  0  0  0  0  0  0
    2.1331   -2.7998    0.0000 H   0  0  0  0  0  0  0  0  0  0  0  0
    4.7320   -2.7777    0.0000 C   0  0  0  0  0  0  0  0  0  0  0  0
    4.7446   -4.2777    0.0000 H   0  0  0  0  0  0  0  0  0  0  0  0
    6.0256   -2.0168    0.0000 C   0  0  0  0  0  0  0  0  0  0  0  0
    6.0130   -0.5169    0.0000 C   0  0  0  0  0  0  0  0  0  0  0  0
    7.3056    0.2442    0.0000 H   0  0  0  0  0  0  0  0  0  0  0  0
    4.7067    0.2222    0.0000 C   0  0  0  0  0  0  0  0  0  0  0  0
    4.6941    1.7221    0.0000 H   0  0  0  0  0  0  0  0  0  0  0  0
    7.3308   -2.7561    0.0000 N   0  0  0  0  0  0  0  0  0  0  0  0
    7.3432   -4.2560    0.0000 H   0  0  0  0  0  0  0  0  0  0  0  0
    8.6236   -1.9954    0.0000 C   0  0  0  0  0  0  0  0  0  0  0  0
    8.6112   -0.4954    0.0000 N   0  0  0  0  0  0  0  0  0  0  0  0
    9.9040    0.2653    0.0000 H   0  0  0  0  0  0  0  0  0  0  0  0
    9.9288   -2.7346    0.0000 N   0  0  0  0  0  0  0  0  0  0  0  0
   11.2216   -1.9740    0.0000 H   0  0  0  0  0  0  0  0  0  0  0  0
    9.9411   -4.2346    0.0000 H   0  0  0  0  0  0  0  0  0  0  0  0
  1  2  1  0  0  0  0 
  1  3  1  0  0  0  0 
  1  4  1  0  0  0  0 
  1  5  1  0  0  0  0 
  5  6  1  0  0  0  0 
  5  7  1  0  0  0  0 
  7  8  2  0  0  0  0 
  7  9  1  0  0  0  0 
  9 10  1  0  0  0  0 
  9 11  1  0  0  0  0 
  9 12  1  0  0  0  0 
 12 13  1  0  0  0  0 
 13 14  2  0  0  0  0 
 13 15  1  0  0  0  0 
 15 16  1  0  0  0  0 
 15 17  1  0  0  0  0 
 15 18  1  0  0  0  0 
 18 19  2  0  0  0  0 
 19 20  1  0  0  0  0 
 19 21  1  0  0  0  0 
 21 22  1  0  0  0  0 
 21 23  2  0  0  0  0 
 23 24  1  0  0  0  0 
 24 25  1  0  0  0  0 
 24 26  2  0  0  0  0 
 18 26  1  0  0  0  0 
 26 27  1  0  0  0  0 
 23 28  1  0  0  0  0 
 28 29  1  0  0  0  0 
 29 30  2  0  0  0  0 
 29 31  1  0  0  0  0 
 31 32  2  0  0  0  0 
 32 33  1  0  0  0  0 
 32 34  1  0  0  0  0 
 34 35  1  0  0  0  0 
 34 36  2  0  0  0  0 
 36 37  1  0  0  0  0 
 37 38  1  0  0  0  0 
 37 39  2  0  0  0  0 
 31 39  1  0  0  0  0 
 39 40  1  0  0  0  0 
 36 41  1  0  0  0  0 
 41 42  1  0  0  0  0 
 41 43  1  0  0  0  0 
 43 44  2  0  0  0  0 
 44 45  1  4  0  0  0 
 43 46  1  0  0  0  0 
 46 47  1  0  0  0  0 
 46 48  1  0  0  0  0 
M  END
> <Rank>
1

> <Priority_score>
0.392

> <Reaction_type>
N-demethylation_(R-N(CH3)2)

> <Parent_ID>
29

> <Parent_InChI>
InChI=1S/C20H22N4O5/c1-24(2)17(25)12-28-18(26)11-13-3-9-16(10-4-13)29-19(27)14-5-7-15(8-6-14)23-20(21)22/h3-10H,11-12H2,1-2H3,(H4,21,22,23)

> <Parent_SMILES>
CN(C)C(=O)COC(=O)Cc1ccc(OC(=O)c2ccc(NC(=N)N)cc2)cc1

$$$$
Molecule 29_metabolite 3
  CDK     0516241031

 10  9  0  0  0  0  0  0  0  0999 V2000
    2.7109   -0.6849    0.0000 C   0  0  0  0  0  0  0  0  0  0  0  0
    1.4118   -1.4349    0.0000 H   0  0  0  0  0  0  0  0  0  0  0  0
    3.2239   -2.0944    0.0000 H   0  0  0  0  0  0  0  0  0  0  0  0
    4.1881   -0.4244    0.0000 H   0  0  0  0  0  0  0  0  0  0  0  0
    2.7109    0.8151    0.0000 N   0  0  0  0  0  0  0  0  0  0  0  0
    4.0099    1.5651    0.0000 H   0  0  0  0  0  0  0  0  0  0  0  0
    1.4118    1.5651    0.0000 C   0  0  0  0  0  0  0  0  0  0  0  0
    1.4118    3.0651    0.0000 H   0  0  0  0  0  0  0  0  0  0  0  0
    0.8988    0.1556    0.0000 H   0  0  0  0  0  0  0  0  0  0  0  0
   -0.0654    1.8256    0.0000 H   0  0  0  0  0  0  0  0  0  0  0  0
  1  2  1  0  0  0  0 
  1  3  1  0  0  0  0 
  1  4  1  0  0  0  0 
  1  5  1  0  0  0  0 
  5  6  1  0  0  0  0 
  5  7  1  0  0  0  0 
  7  8  1  0  0  0  0 
  7  9  1  0  0  0  0 
  7 10  1  0  0  0  0 
M  END
> <Rank>
1

> <Priority_score>
0.392

> <Reaction_type>
hydrolysis_(tertiary_amide)

> <Parent_ID>
29

> <Parent_InChI>
InChI=1S/C20H22N4O5/c1-24(2)17(25)12-28-18(26)11-13-3-9-16(10-4-13)29-19(27)14-5-7-15(8-6-14)23-20(21)22/h3-10H,11-12H2,1-2H3,(H4,21,22,23)

> <Parent_SMILES>
CN(C)C(=O)COC(=O)Cc1ccc(OC(=O)c2ccc(NC(=N)N)cc2)cc1

$$$$
Molecule 29_metabolite 4
  CDK     0516241031

 44 45  0  0  0  0  0  0  0  0999 V2000
   -2.6262   -3.8378    0.0000 C   0  0  0  0  0  0  0  0  0  0  0  0
   -2.6460   -5.3377    0.0000 H   0  0  0  0  0  0  0  0  0  0  0  0
   -3.8962   -3.0878    0.0000 C   0  0  0  0  0  0  0  0  0  0  0  0
   -3.8962   -1.5878    0.0000 C   0  0  0  0  0  0  0  0  0  0  0  0
   -5.1990   -0.8442    0.0000 H   0  0  0  0  0  0  0  0  0  0  0  0
   -2.6262   -0.8378    0.0000 C   0  0  0  0  0  0  0  0  0  0  0  0
   -2.6460    0.6621    0.0000 H   0  0  0  0  0  0  0  0  0  0  0  0
   -1.2762   -1.5878    0.0000 C   0  0  0  0  0  0  0  0  0  0  0  0
   -1.2762   -3.0878    0.0000 C   0  0  0  0  0  0  0  0  0  0  0  0
    0.0166   -3.8485    0.0000 H   0  0  0  0  0  0  0  0  0  0  0  0
    0.0166   -0.8271    0.0000 O   0  0  0  0  0  0  0  0  0  0  0  0
    1.3217   -1.5664    0.0000 C   0  0  0  0  0  0  0  0  0  0  0  0
    1.3341   -3.0663    0.0000 O   0  0  0  0  0  0  0  0  0  0  0  0
    2.6146   -0.8057    0.0000 C   0  0  0  0  0  0  0  0  0  0  0  0
    3.9199   -1.5447    0.0000 C   0  0  0  0  0  0  0  0  0  0  0  0
    3.9327   -3.0447    0.0000 H   0  0  0  0  0  0  0  0  0  0  0  0
    5.2130   -0.7830    0.0000 C   0  0  0  0  0  0  0  0  0  0  0  0
    6.5183   -1.5220    0.0000 H   0  0  0  0  0  0  0  0  0  0  0  0
    5.2009    0.7178    0.0000 C   0  0  0  0  0  0  0  0  0  0  0  0
    3.8956    1.4568    0.0000 C   0  0  0  0  0  0  0  0  0  0  0  0
    3.8827    2.9568    0.0000 H   0  0  0  0  0  0  0  0  0  0  0  0
    2.6024    0.6951    0.0000 C   0  0  0  0  0  0  0  0  0  0  0  0
    1.2971    1.4342    0.0000 H   0  0  0  0  0  0  0  0  0  0  0  0
    6.4937    1.4785    0.0000 N   0  0  0  0  0  0  0  0  0  0  0  0
    6.4813    2.9784    0.0000 H   0  0  0  0  0  0  0  0  0  0  0  0
    7.7989    0.7392    0.0000 C   0  0  0  0  0  0  0  0  0  0  0  0
    7.8112   -0.7607    0.0000 N   0  0  0  0  0  0  0  0  0  0  0  0
    9.1164   -1.5000    0.0000 H   0  0  0  0  0  0  0  0  0  0  0  0
    9.0917    1.4999    0.0000 N   0  0  0  0  0  0  0  0  0  0  0  0
   10.3968    0.7607    0.0000 H   0  0  0  0  0  0  0  0  0  0  0  0
    9.0793    2.9999    0.0000 H   0  0  0  0  0  0  0  0  0  0  0  0
   -5.1990   -3.8314    0.0000 C   0  0  0  0  0  0  0  0  0  0  0  0
   -6.1688   -4.9757    0.0000 H   0  0  0  0  0  0  0  0  0  0  0  0
   -4.2404   -4.9852    0.0000 H   0  0  0  0  0  0  0  0  0  0  0  0
   -6.4943   -3.0750    0.0000 C   0  0  0  0  0  0  0  0  0  0  0  0
   -6.4869   -1.5750    0.0000 O   0  0  0  0  0  0  0  0  0  0  0  0
   -7.7970   -3.8186    0.0000 O   0  0  0  0  0  0  0  0  0  0  0  0
   -9.0923   -3.0622    0.0000 C   0  0  0  0  0  0  0  0  0  0  0  0
   -8.1225   -1.9179    0.0000 H   0  0  0  0  0  0  0  0  0  0  0  0
  -10.0508   -1.9084    0.0000 H   0  0  0  0  0  0  0  0  0  0  0  0
  -10.3950   -3.8058    0.0000 C   0  0  0  0  0  0  0  0  0  0  0  0
  -10.4024   -5.3058    0.0000 O   0  0  0  0  0  0  0  0  0  0  0  0
  -11.6904   -3.0494    0.0000 O   0  0  0  0  0  0  0  0  0  0  0  0
  -12.9931   -3.7930    0.0000 H   0  0  0  0  0  0  0  0  0  0  0  0
  1  2  1  0  0  0  0 
  1  3  2  0  0  0  0 
  3  4  1  0  0  0  0 
  4  5  1  0  0  0  0 
  4  6  2  0  0  0  0 
  6  7  1  0  0  0  0 
  6  8  1  0  0  0  0 
  8  9  2  0  0  0  0 
  1  9  1  0  0  0  0 
  9 10  1  0  0  0  0 
  8 11  1  0  0  0  0 
 11 12  1  0  0  0  0 
 12 13  2  0  0  0  0 
 12 14  1  0  0  0  0 
 14 15  2  0  0  0  0 
 15 16  1  0  0  0  0 
 15 17  1  0  0  0  0 
 17 18  1  0  0  0  0 
 17 19  2  0  0  0  0 
 19 20  1  0  0  0  0 
 20 21  1  0  0  0  0 
 20 22  2  0  0  0  0 
 14 22  1  0  0  0  0 
 22 23  1  0  0  0  0 
 19 24  1  0  0  0  0 
 24 25  1  0  0  0  0 
 24 26  1  0  0  0  0 
 26 27  2  0  0  0  0 
 27 28  1  4  0  0  0 
 26 29  1  0  0  0  0 
 29 30  1  0  0  0  0 
 29 31  1  0  0  0  0 
  3 32  1  0  0  0  0 
 32 33  1  0  0  0  0 
 32 34  1  0  0  0  0 
 32 35  1  0  0  0  0 
 35 36  2  0  0  0  0 
 35 37  1  0  0  0  0 
 37 38  1  0  0  0  0 
 38 39  1  0  0  0  0 
 38 40  1  0  0  0  0 
 38 41  1  0  0  0  0 
 41 42  2  0  0  0  0 
 41 43  1  0  0  0  0 
 43 44  1  0  0  0  0 
M  END
> <Rank>
1

> <Priority_score>
0.392

> <Reaction_type>
hydrolysis_(tertiary_amide)

> <Parent_ID>
29

> <Parent_InChI>
InChI=1S/C20H22N4O5/c1-24(2)17(25)12-28-18(26)11-13-3-9-16(10-4-13)29-19(27)14-5-7-15(8-6-14)23-20(21)22/h3-10H,11-12H2,1-2H3,(H4,21,22,23)

> <Parent_SMILES>
CN(C)C(=O)COC(=O)Cc1ccc(OC(=O)c2ccc(NC(=N)N)cc2)cc1

$$$$
Molecule 29_metabolite 5
  CDK     0516241031

 71 73  0  0  0  0  0  0  0  0999 V2000
   -4.6793   -5.3608    0.0000 C   0  0  0  0  0  0  0  0  0  0  0  0
   -5.8154   -4.3814    0.0000 H   0  0  0  0  0  0  0  0  0  0  0  0
   -5.8412   -6.3095    0.0000 H   0  0  0  0  0  0  0  0  0  0  0  0
   -3.9467   -6.6698    0.0000 H   0  0  0  0  0  0  0  0  0  0  0  0
   -3.2630   -4.8667    0.0000 N   0  0  0  0  0  0  0  0  0  0  0  0
   -2.9828   -3.3931    0.0000 C   0  0  0  0  0  0  0  0  0  0  0  0
   -1.5665   -2.8990    0.0000 H   0  0  0  0  0  0  0  0  0  0  0  0
   -4.4827   -3.3730    0.0000 H   0  0  0  0  0  0  0  0  0  0  0  0
   -3.2235   -1.9126    0.0000 H   0  0  0  0  0  0  0  0  0  0  0  0
   -2.1270   -5.8462    0.0000 C   0  0  0  0  0  0  0  0  0  0  0  0
   -2.4072   -7.3198    0.0000 O   0  0  0  0  0  0  0  0  0  0  0  0
   -0.7107   -5.3521    0.0000 C   0  0  0  0  0  0  0  0  0  0  0  0
    0.4512   -4.4034    0.0000 H   0  0  0  0  0  0  0  0  0  0  0  0
   -1.4432   -4.0431    0.0000 H   0  0  0  0  0  0  0  0  0  0  0  0
    0.4254   -6.3316    0.0000 O   0  0  0  0  0  0  0  0  0  0  0  0
    1.8417   -5.8374    0.0000 C   0  0  0  0  0  0  0  0  0  0  0  0
    2.1219   -4.3638    0.0000 O   0  0  0  0  0  0  0  0  0  0  0  0
    2.9777   -6.8169    0.0000 C   0  0  0  0  0  0  0  0  0  0  0  0
    1.8158   -7.7656    0.0000 H   0  0  0  0  0  0  0  0  0  0  0  0
    3.7103   -8.1259    0.0000 H   0  0  0  0  0  0  0  0  0  0  0  0
    4.3940   -6.3228    0.0000 C   0  0  0  0  0  0  0  0  0  0  0  0
    4.6670   -4.8478    0.0000 C   0  0  0  0  0  0  0  0  0  0  0  0
    3.5213   -3.8796    0.0000 H   0  0  0  0  0  0  0  0  0  0  0  0
    6.0522   -4.3415    0.0000 C   0  0  0  0  0  0  0  0  0  0  0  0
    6.3058   -2.8631    0.0000 H   0  0  0  0  0  0  0  0  0  0  0  0
    7.2432   -5.3246    0.0000 C   0  0  0  0  0  0  0  0  0  0  0  0
    6.9703   -6.7996    0.0000 C   0  0  0  0  0  0  0  0  0  0  0  0
    8.1030   -7.7828    0.0000 H   0  0  0  0  0  0  0  0  0  0  0  0
    5.5063   -7.2914    0.0000 C   0  0  0  0  0  0  0  0  0  0  0  0
    5.2139   -8.7626    0.0000 H   0  0  0  0  0  0  0  0  0  0  0  0
    8.6529   -4.8119    0.0000 O   0  0  0  0  0  0  0  0  0  0  0  0
    9.8017   -5.7763    0.0000 C   0  0  0  0  0  0  0  0  0  0  0  0
    9.5409   -7.2535    0.0000 O   0  0  0  0  0  0  0  0  0  0  0  0
   11.2114   -5.2636    0.0000 C   0  0  0  0  0  0  0  0  0  0  0  0
   12.3604   -6.2278    0.0000 C   0  0  0  0  0  0  0  0  0  0  0  0
   12.1001   -7.7051    0.0000 H   0  0  0  0  0  0  0  0  0  0  0  0
   13.7706   -5.7141    0.0000 C   0  0  0  0  0  0  0  0  0  0  0  0
   14.9196   -6.6784    0.0000 H   0  0  0  0  0  0  0  0  0  0  0  0
   14.0317   -4.2362    0.0000 C   0  0  0  0  0  0  0  0  0  0  0  0
   12.8827   -3.2720    0.0000 C   0  0  0  0  0  0  0  0  0  0  0  0
   13.1430   -1.7947    0.0000 H   0  0  0  0  0  0  0  0  0  0  0  0
   11.4725   -3.7857    0.0000 C   0  0  0  0  0  0  0  0  0  0  0  0
   10.3235   -2.8214    0.0000 H   0  0  0  0  0  0  0  0  0  0  0  0
   15.4414   -3.7235    0.0000 N   0  0  0  0  0  0  0  0  0  0  0  0
   15.7022   -2.2463    0.0000 H   0  0  0  0  0  0  0  0  0  0  0  0
   16.5903   -4.6879    0.0000 C   0  0  0  0  0  0  0  0  0  0  0  0
   16.3295   -6.1651    0.0000 N   0  0  0  0  0  0  0  0  0  0  0  0
   17.4783   -7.1295    0.0000 H   0  0  0  0  0  0  0  0  0  0  0  0
   17.9999   -4.1752    0.0000 N   0  0  0  0  0  0  0  0  0  0  0  0
   18.2607   -2.6980    0.0000 H   0  0  0  0  0  0  0  0  0  0  0  0
   19.1488   -5.1396    0.0000 C   0  0  0  0  0  0  0  0  0  0  0  0
   17.9996   -6.1037    0.0000 H   0  0  0  0  0  0  0  0  0  0  0  0
   19.8988   -6.4386    0.0000 C   0  0  0  0  0  0  0  0  0  0  0  0
   18.4893   -6.9518    0.0000 H   0  0  0  0  0  0  0  0  0  0  0  0
   21.3996   -6.4382    0.0000 C   0  0  0  0  0  0  0  0  0  0  0  0
   21.1393   -7.9154    0.0000 H   0  0  0  0  0  0  0  0  0  0  0  0
   22.1504   -5.1386    0.0000 C   0  0  0  0  0  0  0  0  0  0  0  0
   23.2993   -6.1031    0.0000 H   0  0  0  0  0  0  0  0  0  0  0  0
   21.4004   -3.8396    0.0000 C   0  0  0  0  0  0  0  0  0  0  0  0
   22.8099   -3.3264    0.0000 H   0  0  0  0  0  0  0  0  0  0  0  0
   21.1396   -2.3624    0.0000 C   0  0  0  0  0  0  0  0  0  0  0  0
   19.7300   -1.8497    0.0000 O   0  0  0  0  0  0  0  0  0  0  0  0
   22.2885   -1.3980    0.0000 O   0  0  0  0  0  0  0  0  0  0  0  0
   23.6982   -1.9107    0.0000 H   0  0  0  0  0  0  0  0  0  0  0  0
   19.8996   -3.8401    0.0000 O   0  0  0  0  0  0  0  0  0  0  0  0
   23.2996   -4.1746    0.0000 O   0  0  0  0  0  0  0  0  0  0  0  0
   24.7091   -4.6878    0.0000 H   0  0  0  0  0  0  0  0  0  0  0  0
   22.8091   -6.9513    0.0000 O   0  0  0  0  0  0  0  0  0  0  0  0
   23.0694   -8.4286    0.0000 H   0  0  0  0  0  0  0  0  0  0  0  0
   20.1596   -7.9158    0.0000 O   0  0  0  0  0  0  0  0  0  0  0  0
   19.0107   -8.8802    0.0000 H   0  0  0  0  0  0  0  0  0  0  0  0
  1  2  1  0  0  0  0 
  1  3  1  0  0  0  0 
  1  4  1  0  0  0  0 
  1  5  1  0  0  0  0 
  5  6  1  0  0  0  0 
  6  7  1  0  0  0  0 
  6  8  1  0  0  0  0 
  6  9  1  0  0  0  0 
  5 10  1  0  0  0  0 
 10 11  2  0  0  0  0 
 10 12  1  0  0  0  0 
 12 13  1  0  0  0  0 
 12 14  1  0  0  0  0 
 12 15  1  0  0  0  0 
 15 16  1  0  0  0  0 
 16 17  2  0  0  0  0 
 16 18  1  0  0  0  0 
 18 19  1  0  0  0  0 
 18 20  1  0  0  0  0 
 18 21  1  0  0  0  0 
 21 22  2  0  0  0  0 
 22 23  1  0  0  0  0 
 22 24  1  0  0  0  0 
 24 25  1  0  0  0  0 
 24 26  2  0  0  0  0 
 26 27  1  0  0  0  0 
 27 28  1  0  0  0  0 
 27 29  2  0  0  0  0 
 21 29  1  0  0  0  0 
 29 30  1  0  0  0  0 
 26 31  1  0  0  0  0 
 31 32  1  0  0  0  0 
 32 33  2  0  0  0  0 
 32 34  1  0  0  0  0 
 34 35  2  0  0  0  0 
 35 36  1  0  0  0  0 
 35 37  1  0  0  0  0 
 37 38  1  0  0  0  0 
 37 39  2  0  0  0  0 
 39 40  1  0  0  0  0 
 40 41  1  0  0  0  0 
 40 42  2  0  0  0  0 
 34 42  1  0  0  0  0 
 42 43  1  0  0  0  0 
 39 44  1  0  0  0  0 
 44 45  1  0  0  0  0 
 44 46  1  0  0  0  0 
 46 47  2  0  0  0  0 
 47 48  1  4  0  0  0 
 46 49  1  0  0  0  0 
 49 50  1  0  0  0  0 
 49 51  1  0  0  0  0 
 51 52  1  0  0  0  0 
 51 53  1  0  0  0  0 
 53 54  1  0  0  0  0 
 53 55  1  0  0  0  0 
 55 56  1  0  0  0  0 
 55 57  1  0  0  0  0 
 57 58  1  0  0  0  0 
 57 59  1  0  0  0  0 
 59 60  1  0  0  0  0 
 59 61  1  0  0  0  0 
 61 62  2  0  0  0  0 
 61 63  1  0  0  0  0 
 63 64  1  0  0  0  0 
 59 65  1  0  0  0  0 
 51 65  1  0  0  0  0 
 57 66  1  0  0  0  0 
 66 67  1  0  0  0  0 
 55 68  1  0  0  0  0 
 68 69  1  0  0  0  0 
 53 70  1  0  0  0  0 
 70 71  1  0  0  0  0 
M  END
> <Rank>
5

> <Priority_score>
0.256

> <Reaction_type>
N-glucuronidation_(aliphatic_NH2)

> <Parent_ID>
29

> <Parent_InChI>
InChI=1S/C20H22N4O5/c1-24(2)17(25)12-28-18(26)11-13-3-9-16(10-4-13)29-19(27)14-5-7-15(8-6-14)23-20(21)22/h3-10H,11-12H2,1-2H3,(H4,21,22,23)

> <Parent_SMILES>
CN(C)C(=O)COC(=O)Cc1ccc(OC(=O)c2ccc(NC(=N)N)cc2)cc1

$$$$
Molecule 29_metabolite 6
  CDK     0516241031

 16 15  0  0  0  0  0  0  0  0999 V2000
    1.2990   -0.7500    0.0000 C   0  0  0  0  0  0  0  0  0  0  0  0
    0.0000    0.0000    0.0000 H   0  0  0  0  0  0  0  0  0  0  0  0
    0.3349   -1.8991    0.0000 H   0  0  0  0  0  0  0  0  0  0  0  0
    2.2632   -1.8991    0.0000 H   0  0  0  0  0  0  0  0  0  0  0  0
    2.5981   -0.0000    0.0000 N   0  0  0  0  0  0  0  0  0  0  0  0
    2.5981    1.5000    0.0000 C   0  0  0  0  0  0  0  0  0  0  0  0
    3.8971    2.2500    0.0000 H   0  0  0  0  0  0  0  0  0  0  0  0
    1.1209    1.2395    0.0000 H   0  0  0  0  0  0  0  0  0  0  0  0
    2.0850    2.9095    0.0000 H   0  0  0  0  0  0  0  0  0  0  0  0
    3.8971   -0.7500    0.0000 C   0  0  0  0  0  0  0  0  0  0  0  0
    3.8971   -2.2500    0.0000 O   0  0  0  0  0  0  0  0  0  0  0  0
    5.1962   -0.0000    0.0000 C   0  0  0  0  0  0  0  0  0  0  0  0
    6.1603    1.1491    0.0000 H   0  0  0  0  0  0  0  0  0  0  0  0
    4.2320    1.1491    0.0000 H   0  0  0  0  0  0  0  0  0  0  0  0
    6.4952   -0.7500    0.0000 O   0  0  0  0  0  0  0  0  0  0  0  0
    7.7942   -0.0000    0.0000 H   0  0  0  0  0  0  0  0  0  0  0  0
  1  2  1  0  0  0  0 
  1  3  1  0  0  0  0 
  1  4  1  0  0  0  0 
  1  5  1  0  0  0  0 
  5  6  1  0  0  0  0 
  6  7  1  0  0  0  0 
  6  8  1  0  0  0  0 
  6  9  1  0  0  0  0 
  5 10  1  0  0  0  0 
 10 11  2  0  0  0  0 
 10 12  1  0  0  0  0 
 12 13  1  0  0  0  0 
 12 14  1  0  0  0  0 
 12 15  1  0  0  0  0 
 15 16  1  0  0  0  0 
M  END
> <Rank>
6

> <Priority_score>
0.224

> <Reaction_type>
hydrolysis_(ester)

> <Parent_ID>
29

> <Parent_InChI>
InChI=1S/C20H22N4O5/c1-24(2)17(25)12-28-18(26)11-13-3-9-16(10-4-13)29-19(27)14-5-7-15(8-6-14)23-20(21)22/h3-10H,11-12H2,1-2H3,(H4,21,22,23)

> <Parent_SMILES>
CN(C)C(=O)COC(=O)Cc1ccc(OC(=O)c2ccc(NC(=N)N)cc2)cc1

$$$$
Molecule 29_metabolite 7
  CDK     0516241031

 14 13  0  0  0  0  0  0  0  0999 V2000
    5.1962    1.4095    0.0000 C   0  0  0  0  0  0  0  0  0  0  0  0
    6.4952    0.6595    0.0000 H   0  0  0  0  0  0  0  0  0  0  0  0
    6.1603    2.5586    0.0000 H   0  0  0  0  0  0  0  0  0  0  0  0
    4.2320    2.5586    0.0000 H   0  0  0  0  0  0  0  0  0  0  0  0
    3.8971    0.6595    0.0000 N   0  0  0  0  0  0  0  0  0  0  0  0
    3.8971   -0.8405    0.0000 C   0  0  0  0  0  0  0  0  0  0  0  0
    5.1962   -1.5905    0.0000 H   0  0  0  0  0  0  0  0  0  0  0  0
    2.4199   -0.5800    0.0000 H   0  0  0  0  0  0  0  0  0  0  0  0
    3.3841   -2.2500    0.0000 H   0  0  0  0  0  0  0  0  0  0  0  0
    2.5981    1.4095    0.0000 C   0  0  0  0  0  0  0  0  0  0  0  0
    2.5981    2.9095    0.0000 O   0  0  0  0  0  0  0  0  0  0  0  0
    1.2990    0.6595    0.0000 C   0  0  0  0  0  0  0  0  0  0  0  0
    0.0000    1.4095    0.0000 H   0  0  0  0  0  0  0  0  0  0  0  0
    1.2990   -0.8405    0.0000 O   0  0  0  0  0  0  0  0  0  0  0  0
  1  2  1  0  0  0  0 
  1  3  1  0  0  0  0 
  1  4  1  0  0  0  0 
  1  5  1  0  0  0  0 
  5  6  1  0  0  0  0 
  6  7  1  0  0  0  0 
  6  8  1  0  0  0  0 
  6  9  1  0  0  0  0 
  5 10  1  0  0  0  0 
 10 11  2  0  0  0  0 
 10 12  1  0  0  0  0 
 12 13  1  0  0  0  0 
 12 14  2  0  0  0  0 
M  END
> <Rank>
6

> <Priority_score>
0.224

> <Reaction_type>
oxidative ether cleavage to one alcohol and one aldehyde/ketone

> <Parent_ID>
29

> <Parent_InChI>
InChI=1S/C20H22N4O5/c1-24(2)17(25)12-28-18(26)11-13-3-9-16(10-4-13)29-19(27)14-5-7-15(8-6-14)23-20(21)22/h3-10H,11-12H2,1-2H3,(H4,21,22,23)

> <Parent_SMILES>
CN(C)C(=O)COC(=O)Cc1ccc(OC(=O)c2ccc(NC(=N)N)cc2)cc1

$$$$
Molecule 29_metabolite 8
  CDK     0516241031

 52 53  0  0  0  0  0  0  0  0999 V2000
  -12.1886    2.4928    0.0000 C   0  0  0  0  0  0  0  0  0  0  0  0
  -13.4913    1.7492    0.0000 H   0  0  0  0  0  0  0  0  0  0  0  0
  -11.2188    3.6371    0.0000 H   0  0  0  0  0  0  0  0  0  0  0  0
  -13.1471    3.6466    0.0000 H   0  0  0  0  0  0  0  0  0  0  0  0
  -10.8933    1.7364    0.0000 N   0  0  0  0  0  0  0  0  0  0  0  0
  -10.9006    0.2364    0.0000 C   0  0  0  0  0  0  0  0  0  0  0  0
   -9.6053   -0.5199    0.0000 H   0  0  0  0  0  0  0  0  0  0  0  0
  -11.4206   -1.1705    0.0000 H   0  0  0  0  0  0  0  0  0  0  0  0
  -12.3766    0.5042    0.0000 H   0  0  0  0  0  0  0  0  0  0  0  0
   -9.5905    2.4800    0.0000 C   0  0  0  0  0  0  0  0  0  0  0  0
   -9.5832    3.9800    0.0000 O   0  0  0  0  0  0  0  0  0  0  0  0
   -8.2952    1.7236    0.0000 C   0  0  0  0  0  0  0  0  0  0  0  0
   -9.2650    0.5793    0.0000 H   0  0  0  0  0  0  0  0  0  0  0  0
   -7.3367    0.5698    0.0000 H   0  0  0  0  0  0  0  0  0  0  0  0
   -6.9925    2.4672    0.0000 O   0  0  0  0  0  0  0  0  0  0  0  0
   -5.6972    1.7109    0.0000 C   0  0  0  0  0  0  0  0  0  0  0  0
   -5.7046    0.2109    0.0000 O   0  0  0  0  0  0  0  0  0  0  0  0
   -4.3945    2.4545    0.0000 C   0  0  0  0  0  0  0  0  0  0  0  0
   -3.4246    3.5988    0.0000 H   0  0  0  0  0  0  0  0  0  0  0  0
   -3.0991    1.6981    0.0000 C   0  0  0  0  0  0  0  0  0  0  0  0
   -1.8001    2.4481    0.0000 C   0  0  0  0  0  0  0  0  0  0  0  0
   -1.8075    3.9480    0.0000 H   0  0  0  0  0  0  0  0  0  0  0  0
   -0.5156    1.7232    0.0000 C   0  0  0  0  0  0  0  0  0  0  0  0
    0.7735    2.4903    0.0000 H   0  0  0  0  0  0  0  0  0  0  0  0
   -0.4901    0.1791    0.0000 C   0  0  0  0  0  0  0  0  0  0  0  0
   -1.7891   -0.5709    0.0000 C   0  0  0  0  0  0  0  0  0  0  0  0
   -1.8015   -2.0709    0.0000 H   0  0  0  0  0  0  0  0  0  0  0  0
   -3.1136    0.2232    0.0000 C   0  0  0  0  0  0  0  0  0  0  0  0
   -4.4224   -0.5096    0.0000 H   0  0  0  0  0  0  0  0  0  0  0  0
    0.8151   -0.5602    0.0000 O   0  0  0  0  0  0  0  0  0  0  0  0
    2.1079    0.2005    0.0000 C   0  0  0  0  0  0  0  0  0  0  0  0
    2.0955    1.7005    0.0000 O   0  0  0  0  0  0  0  0  0  0  0  0
    3.4131   -0.5387    0.0000 C   0  0  0  0  0  0  0  0  0  0  0  0
    3.4257   -2.0387    0.0000 C   0  0  0  0  0  0  0  0  0  0  0  0
    2.1331   -2.7998    0.0000 H   0  0  0  0  0  0  0  0  0  0  0  0
    4.7320   -2.7777    0.0000 C   0  0  0  0  0  0  0  0  0  0  0  0
    4.7446   -4.2777    0.0000 H   0  0  0  0  0  0  0  0  0  0  0  0
    6.0256   -2.0168    0.0000 C   0  0  0  0  0  0  0  0  0  0  0  0
    6.0130   -0.5169    0.0000 C   0  0  0  0  0  0  0  0  0  0  0  0
    7.3056    0.2442    0.0000 H   0  0  0  0  0  0  0  0  0  0  0  0
    4.7067    0.2222    0.0000 C   0  0  0  0  0  0  0  0  0  0  0  0
    4.6941    1.7221    0.0000 H   0  0  0  0  0  0  0  0  0  0  0  0
    7.3308   -2.7561    0.0000 N   0  0  0  0  0  0  0  0  0  0  0  0
    7.3432   -4.2560    0.0000 H   0  0  0  0  0  0  0  0  0  0  0  0
    8.6236   -1.9954    0.0000 C   0  0  0  0  0  0  0  0  0  0  0  0
    8.6112   -0.4954    0.0000 N   0  0  0  0  0  0  0  0  0  0  0  0
    9.9040    0.2653    0.0000 H   0  0  0  0  0  0  0  0  0  0  0  0
    9.9288   -2.7346    0.0000 N   0  0  0  0  0  0  0  0  0  0  0  0
   11.2216   -1.9740    0.0000 H   0  0  0  0  0  0  0  0  0  0  0  0
    9.9411   -4.2346    0.0000 H   0  0  0  0  0  0  0  0  0  0  0  0
   -5.3530    3.6083    0.0000 O   0  0  0  0  0  0  0  0  0  0  0  0
   -4.8330    5.0152    0.0000 H   0  0  0  0  0  0  0  0  0  0  0  0
  1  2  1  0  0  0  0 
  1  3  1  0  0  0  0 
  1  4  1  0  0  0  0 
  1  5  1  0  0  0  0 
  5  6  1  0  0  0  0 
  6  7  1  0  0  0  0 
  6  8  1  0  0  0  0 
  6  9  1  0  0  0  0 
  5 10  1  0  0  0  0 
 10 11  2  0  0  0  0 
 10 12  1  0  0  0  0 
 12 13  1  0  0  0  0 
 12 14  1  0  0  0  0 
 12 15  1  0  0  0  0 
 15 16  1  0  0  0  0 
 16 17  2  0  0  0  0 
 16 18  1  0  0  0  0 
 18 19  1  0  0  0  0 
 18 20  1  0  0  0  0 
 20 21  2  0  0  0  0 
 21 22  1  0  0  0  0 
 21 23  1  0  0  0  0 
 23 24  1  0  0  0  0 
 23 25  2  0  0  0  0 
 25 26  1  0  0  0  0 
 26 27  1  0  0  0  0 
 26 28  2  0  0  0  0 
 20 28  1  0  0  0  0 
 28 29  1  0  0  0  0 
 25 30  1  0  0  0  0 
 30 31  1  0  0  0  0 
 31 32  2  0  0  0  0 
 31 33  1  0  0  0  0 
 33 34  2  0  0  0  0 
 34 35  1  0  0  0  0 
 34 36  1  0  0  0  0 
 36 37  1  0  0  0  0 
 36 38  2  0  0  0  0 
 38 39  1  0  0  0  0 
 39 40  1  0  0  0  0 
 39 41  2  0  0  0  0 
 33 41  1  0  0  0  0 
 41 42  1  0  0  0  0 
 38 43  1  0  0  0  0 
 43 44  1  0  0  0  0 
 43 45  1  0  0  0  0 
 45 46  2  0  0  0  0 
 46 47  1  4  0  0  0 
 45 48  1  0  0  0  0 
 48 49  1  0  0  0  0 
 48 50  1  0  0  0  0 
 18 51  1  0  0  0  0 
 51 52  1  0  0  0  0 
M  END
> <Rank>
6

> <Priority_score>
0.224

> <Reaction_type>
benzylic_hydroxylation_(c-CH2-CR)

> <Parent_ID>
29

> <Parent_InChI>
InChI=1S/C20H22N4O5/c1-24(2)17(25)12-28-18(26)11-13-3-9-16(10-4-13)29-19(27)14-5-7-15(8-6-14)23-20(21)22/h3-10H,11-12H2,1-2H3,(H4,21,22,23)

> <Parent_SMILES>
CN(C)C(=O)COC(=O)Cc1ccc(OC(=O)c2ccc(NC(=N)N)cc2)cc1

$$$$
Molecule 29_metabolite 9
  CDK     0516241031

 38 39  0  0  0  0  0  0  0  0999 V2000
    0.0300    1.5000    0.0000 C   0  0  0  0  0  0  0  0  0  0  0  0
    0.0498    2.9999    0.0000 H   0  0  0  0  0  0  0  0  0  0  0  0
    1.3000    0.7500    0.0000 C   0  0  0  0  0  0  0  0  0  0  0  0
    1.3000   -0.7500    0.0000 C   0  0  0  0  0  0  0  0  0  0  0  0
    2.6027   -1.4936    0.0000 H   0  0  0  0  0  0  0  0  0  0  0  0
    0.0300   -1.5000    0.0000 C   0  0  0  0  0  0  0  0  0  0  0  0
    0.0498   -2.9999    0.0000 H   0  0  0  0  0  0  0  0  0  0  0  0
   -1.3200   -0.7500    0.0000 C   0  0  0  0  0  0  0  0  0  0  0  0
   -1.3200    0.7500    0.0000 C   0  0  0  0  0  0  0  0  0  0  0  0
   -2.6128    1.5107    0.0000 H   0  0  0  0  0  0  0  0  0  0  0  0
   -2.6128   -1.5107    0.0000 O   0  0  0  0  0  0  0  0  0  0  0  0
   -3.9180   -0.7714    0.0000 C   0  0  0  0  0  0  0  0  0  0  0  0
   -3.9304    0.7285    0.0000 O   0  0  0  0  0  0  0  0  0  0  0  0
   -5.2108   -1.5321    0.0000 C   0  0  0  0  0  0  0  0  0  0  0  0
   -6.5161   -0.7931    0.0000 C   0  0  0  0  0  0  0  0  0  0  0  0
   -6.5289    0.7069    0.0000 H   0  0  0  0  0  0  0  0  0  0  0  0
   -7.8093   -1.5548    0.0000 C   0  0  0  0  0  0  0  0  0  0  0  0
   -9.1146   -0.8158    0.0000 H   0  0  0  0  0  0  0  0  0  0  0  0
   -7.7971   -3.0556    0.0000 C   0  0  0  0  0  0  0  0  0  0  0  0
   -6.4918   -3.7946    0.0000 C   0  0  0  0  0  0  0  0  0  0  0  0
   -6.4790   -5.2946    0.0000 H   0  0  0  0  0  0  0  0  0  0  0  0
   -5.1987   -3.0329    0.0000 C   0  0  0  0  0  0  0  0  0  0  0  0
   -3.8934   -3.7720    0.0000 H   0  0  0  0  0  0  0  0  0  0  0  0
   -9.0899   -3.8163    0.0000 N   0  0  0  0  0  0  0  0  0  0  0  0
   -9.0775   -5.3162    0.0000 H   0  0  0  0  0  0  0  0  0  0  0  0
  -10.3951   -3.0770    0.0000 C   0  0  0  0  0  0  0  0  0  0  0  0
  -10.4075   -1.5771    0.0000 N   0  0  0  0  0  0  0  0  0  0  0  0
  -11.7127   -0.8378    0.0000 H   0  0  0  0  0  0  0  0  0  0  0  0
  -11.6879   -3.8377    0.0000 N   0  0  0  0  0  0  0  0  0  0  0  0
  -12.9931   -3.0985    0.0000 H   0  0  0  0  0  0  0  0  0  0  0  0
  -11.6755   -5.3377    0.0000 H   0  0  0  0  0  0  0  0  0  0  0  0
    2.6027    1.4936    0.0000 C   0  0  0  0  0  0  0  0  0  0  0  0
    3.5725    2.6379    0.0000 H   0  0  0  0  0  0  0  0  0  0  0  0
    1.6442    2.6474    0.0000 H   0  0  0  0  0  0  0  0  0  0  0  0
    3.8980    0.7372    0.0000 C   0  0  0  0  0  0  0  0  0  0  0  0
    3.8907   -0.7628    0.0000 O   0  0  0  0  0  0  0  0  0  0  0  0
    5.2008    1.4808    0.0000 O   0  0  0  0  0  0  0  0  0  0  0  0
    6.4961    0.7244    0.0000 H   0  0  0  0  0  0  0  0  0  0  0  0
  1  2  1  0  0  0  0 
  1  3  2  0  0  0  0 
  3  4  1  0  0  0  0 
  4  5  1  0  0  0  0 
  4  6  2  0  0  0  0 
  6  7  1  0  0  0  0 
  6  8  1  0  0  0  0 
  8  9  2  0  0  0  0 
  1  9  1  0  0  0  0 
  9 10  1  0  0  0  0 
  8 11  1  0  0  0  0 
 11 12  1  0  0  0  0 
 12 13  2  0  0  0  0 
 12 14  1  0  0  0  0 
 14 15  2  0  0  0  0 
 15 16  1  0  0  0  0 
 15 17  1  0  0  0  0 
 17 18  1  0  0  0  0 
 17 19  2  0  0  0  0 
 19 20  1  0  0  0  0 
 20 21  1  0  0  0  0 
 20 22  2  0  0  0  0 
 14 22  1  0  0  0  0 
 22 23  1  0  0  0  0 
 19 24  1  0  0  0  0 
 24 25  1  0  0  0  0 
 24 26  1  0  0  0  0 
 26 27  2  0  0  0  0 
 27 28  1  4  0  0  0 
 26 29  1  0  0  0  0 
 29 30  1  0  0  0  0 
 29 31  1  0  0  0  0 
  3 32  1  0  0  0  0 
 32 33  1  0  0  0  0 
 32 34  1  0  0  0  0 
 32 35  1  0  0  0  0 
 35 36  2  0  0  0  0 
 35 37  1  0  0  0  0 
 37 38  1  0  0  0  0 
M  END
> <Rank>
6

> <Priority_score>
0.224

> <Reaction_type>
hydrolysis_(ester)

> <Parent_ID>
29

> <Parent_InChI>
InChI=1S/C20H22N4O5/c1-24(2)17(25)12-28-18(26)11-13-3-9-16(10-4-13)29-19(27)14-5-7-15(8-6-14)23-20(21)22/h3-10H,11-12H2,1-2H3,(H4,21,22,23)

> <Parent_SMILES>
CN(C)C(=O)COC(=O)Cc1ccc(OC(=O)c2ccc(NC(=N)N)cc2)cc1

$$$$
Molecule 29_metabolite 10
  CDK     0516241031

 32 32  0  0  0  0  0  0  0  0999 V2000
   -2.1682    7.1905    0.0000 C   0  0  0  0  0  0  0  0  0  0  0  0
   -3.6681    7.1979    0.0000 H   0  0  0  0  0  0  0  0  0  0  0  0
   -0.7561    7.6966    0.0000 H   0  0  0  0  0  0  0  0  0  0  0  0
   -2.4214    8.6690    0.0000 H   0  0  0  0  0  0  0  0  0  0  0  0
   -1.4246    5.8878    0.0000 N   0  0  0  0  0  0  0  0  0  0  0  0
   -2.1809    4.5925    0.0000 C   0  0  0  0  0  0  0  0  0  0  0  0
   -1.4373    3.2897    0.0000 H   0  0  0  0  0  0  0  0  0  0  0  0
   -3.3347    3.6339    0.0000 H   0  0  0  0  0  0  0  0  0  0  0  0
   -3.3253    5.5623    0.0000 H   0  0  0  0  0  0  0  0  0  0  0  0
    0.0754    5.8804    0.0000 C   0  0  0  0  0  0  0  0  0  0  0  0
    0.8318    7.1757    0.0000 O   0  0  0  0  0  0  0  0  0  0  0  0
    0.8190    4.5777    0.0000 C   0  0  0  0  0  0  0  0  0  0  0  0
   -0.5930    4.0716    0.0000 H   0  0  0  0  0  0  0  0  0  0  0  0
    1.0722    3.0992    0.0000 H   0  0  0  0  0  0  0  0  0  0  0  0
    2.3190    4.5703    0.0000 O   0  0  0  0  0  0  0  0  0  0  0  0
    3.0626    3.2676    0.0000 C   0  0  0  0  0  0  0  0  0  0  0  0
    2.3062    1.9723    0.0000 O   0  0  0  0  0  0  0  0  0  0  0  0
    4.5626    3.2602    0.0000 C   0  0  0  0  0  0  0  0  0  0  0  0
    5.9746    3.7663    0.0000 H   0  0  0  0  0  0  0  0  0  0  0  0
    4.3094    4.7387    0.0000 H   0  0  0  0  0  0  0  0  0  0  0  0
    5.3062    1.9575    0.0000 C   0  0  0  0  0  0  0  0  0  0  0  0
    6.8062    1.9575    0.0000 C   0  0  0  0  0  0  0  0  0  0  0  0
    7.5498    3.2602    0.0000 H   0  0  0  0  0  0  0  0  0  0  0  0
    7.5562    0.6875    0.0000 C   0  0  0  0  0  0  0  0  0  0  0  0
    9.0560    0.7073    0.0000 H   0  0  0  0  0  0  0  0  0  0  0  0
    6.8062   -0.6625    0.0000 C   0  0  0  0  0  0  0  0  0  0  0  0
    5.3062   -0.6625    0.0000 C   0  0  0  0  0  0  0  0  0  0  0  0
    4.5455   -1.9553    0.0000 H   0  0  0  0  0  0  0  0  0  0  0  0
    4.5562    0.6875    0.0000 C   0  0  0  0  0  0  0  0  0  0  0  0
    3.0563    0.7073    0.0000 H   0  0  0  0  0  0  0  0  0  0  0  0
    7.5669   -1.9553    0.0000 O   0  0  0  0  0  0  0  0  0  0  0  0
    9.0668   -1.9429    0.0000 H   0  0  0  0  0  0  0  0  0  0  0  0
  1  2  1  0  0  0  0 
  1  3  1  0  0  0  0 
  1  4  1  0  0  0  0 
  1  5  1  0  0  0  0 
  5  6  1  0  0  0  0 
  6  7  1  0  0  0  0 
  6  8  1  0  0  0  0 
  6  9  1  0  0  0  0 
  5 10  1  0  0  0  0 
 10 11  2  0  0  0  0 
 10 12  1  0  0  0  0 
 12 13  1  0  0  0  0 
 12 14  1  0  0  0  0 
 12 15  1  0  0  0  0 
 15 16  1  0  0  0  0 
 16 17  2  0  0  0  0 
 16 18  1  0  0  0  0 
 18 19  1  0  0  0  0 
 18 20  1  0  0  0  0 
 18 21  1  0  0  0  0 
 21 22  2  0  0  0  0 
 22 23  1  0  0  0  0 
 22 24  1  0  0  0  0 
 24 25  1  0  0  0  0 
 24 26  2  0  0  0  0 
 26 27  1  0  0  0  0 
 27 28  1  0  0  0  0 
 27 29  2  0  0  0  0 
 21 29  1  0  0  0  0 
 29 30  1  0  0  0  0 
 26 31  1  0  0  0  0 
 31 32  1  0  0  0  0 
M  END
> <Rank>
10

> <Priority_score>
0.192

> <Reaction_type>
hydrolysis_(ester)

> <Parent_ID>
29

> <Parent_InChI>
InChI=1S/C20H22N4O5/c1-24(2)17(25)12-28-18(26)11-13-3-9-16(10-4-13)29-19(27)14-5-7-15(8-6-14)23-20(21)22/h3-10H,11-12H2,1-2H3,(H4,21,22,23)

> <Parent_SMILES>
CN(C)C(=O)COC(=O)Cc1ccc(OC(=O)c2ccc(NC(=N)N)cc2)cc1

$$$$
Molecule 29_metabolite 11
  CDK     0516241031

 22 22  0  0  0  0  0  0  0  0999 V2000
    1.2992   -1.5004    0.0000 C   0  0  0  0  0  0  0  0  0  0  0  0
    1.2992   -3.0004    0.0000 H   0  0  0  0  0  0  0  0  0  0  0  0
    2.5992   -0.7504    0.0000 C   0  0  0  0  0  0  0  0  0  0  0  0
    2.5992    0.7496    0.0000 C   0  0  0  0  0  0  0  0  0  0  0  0
    3.8981    1.4998    0.0000 H   0  0  0  0  0  0  0  0  0  0  0  0
    1.2992    1.4996    0.0000 C   0  0  0  0  0  0  0  0  0  0  0  0
    1.2992    2.9996    0.0000 H   0  0  0  0  0  0  0  0  0  0  0  0
   -0.0008    0.7496    0.0000 C   0  0  0  0  0  0  0  0  0  0  0  0
   -0.0008   -0.7504    0.0000 C   0  0  0  0  0  0  0  0  0  0  0  0
   -1.2998   -1.5006    0.0000 H   0  0  0  0  0  0  0  0  0  0  0  0
   -1.2998    1.4998    0.0000 N   0  0  0  0  0  0  0  0  0  0  0  0
   -1.2995    2.9998    0.0000 H   0  0  0  0  0  0  0  0  0  0  0  0
   -2.5989    0.7500    0.0000 C   0  0  0  0  0  0  0  0  0  0  0  0
   -2.5992   -0.7500    0.0000 N   0  0  0  0  0  0  0  0  0  0  0  0
   -3.8983   -1.4998    0.0000 H   0  0  0  0  0  0  0  0  0  0  0  0
   -3.8978    1.5002    0.0000 N   0  0  0  0  0  0  0  0  0  0  0  0
   -5.1970    0.7504    0.0000 H   0  0  0  0  0  0  0  0  0  0  0  0
   -3.8976    3.0002    0.0000 H   0  0  0  0  0  0  0  0  0  0  0  0
    3.8981   -1.5006    0.0000 C   0  0  0  0  0  0  0  0  0  0  0  0
    3.8978   -3.0006    0.0000 O   0  0  0  0  0  0  0  0  0  0  0  0
    5.1972   -0.7508    0.0000 O   0  0  0  0  0  0  0  0  0  0  0  0
    6.4962   -1.5010    0.0000 H   0  0  0  0  0  0  0  0  0  0  0  0
  1  2  1  0  0  0  0 
  1  3  2  0  0  0  0 
  3  4  1  0  0  0  0 
  4  5  1  0  0  0  0 
  4  6  2  0  0  0  0 
  6  7  1  0  0  0  0 
  6  8  1  0  0  0  0 
  8  9  2  0  0  0  0 
  1  9  1  0  0  0  0 
  9 10  1  0  0  0  0 
  8 11  1  0  0  0  0 
 11 12  1  0  0  0  0 
 11 13  1  0  0  0  0 
 13 14  2  0  0  0  0 
 14 15  1  4  0  0  0 
 13 16  1  0  0  0  0 
 16 17  1  0  0  0  0 
 16 18  1  0  0  0  0 
  3 19  1  0  0  0  0 
 19 20  2  0  0  0  0 
 19 21  1  0  0  0  0 
 21 22  1  0  0  0  0 
M  END
> <Rank>
10

> <Priority_score>
0.192

> <Reaction_type>
hydrolysis_(ester)

> <Parent_ID>
29

> <Parent_InChI>
InChI=1S/C20H22N4O5/c1-24(2)17(25)12-28-18(26)11-13-3-9-16(10-4-13)29-19(27)14-5-7-15(8-6-14)23-20(21)22/h3-10H,11-12H2,1-2H3,(H4,21,22,23)

> <Parent_SMILES>
CN(C)C(=O)COC(=O)Cc1ccc(OC(=O)c2ccc(NC(=N)N)cc2)cc1

$$$$
Molecule 29_metabolite 12
  CDK     0516241031

 71 73  0  0  0  0  0  0  0  0999 V2000
   -5.0924   -3.2962    0.0000 C   0  0  0  0  0  0  0  0  0  0  0  0
   -6.2539   -2.3470    0.0000 H   0  0  0  0  0  0  0  0  0  0  0  0
   -4.3256   -4.5854    0.0000 H   0  0  0  0  0  0  0  0  0  0  0  0
   -6.2289   -4.2752    0.0000 H   0  0  0  0  0  0  0  0  0  0  0  0
   -3.6896   -2.7650    0.0000 N   0  0  0  0  0  0  0  0  0  0  0  0
   -3.4483   -1.2845    0.0000 C   0  0  0  0  0  0  0  0  0  0  0  0
   -2.0455   -0.7532    0.0000 H   0  0  0  0  0  0  0  0  0  0  0  0
   -3.7279    0.1892    0.0000 H   0  0  0  0  0  0  0  0  0  0  0  0
   -4.9482   -1.3039    0.0000 H   0  0  0  0  0  0  0  0  0  0  0  0
   -2.5282   -3.7142    0.0000 C   0  0  0  0  0  0  0  0  0  0  0  0
   -2.7695   -5.1946    0.0000 O   0  0  0  0  0  0  0  0  0  0  0  0
   -1.1254   -3.1829    0.0000 C   0  0  0  0  0  0  0  0  0  0  0  0
   -1.8921   -1.8937    0.0000 H   0  0  0  0  0  0  0  0  0  0  0  0
    0.0111   -2.2039    0.0000 H   0  0  0  0  0  0  0  0  0  0  0  0
    0.0361   -4.1321    0.0000 O   0  0  0  0  0  0  0  0  0  0  0  0
    1.4389   -3.6009    0.0000 C   0  0  0  0  0  0  0  0  0  0  0  0
    1.6802   -2.1204    0.0000 O   0  0  0  0  0  0  0  0  0  0  0  0
    2.6003   -4.5501    0.0000 C   0  0  0  0  0  0  0  0  0  0  0  0
    3.3671   -5.8393    0.0000 H   0  0  0  0  0  0  0  0  0  0  0  0
    1.4638   -5.5291    0.0000 H   0  0  0  0  0  0  0  0  0  0  0  0
    4.0031   -4.0188    0.0000 C   0  0  0  0  0  0  0  0  0  0  0  0
    5.1599   -4.9738    0.0000 C   0  0  0  0  0  0  0  0  0  0  0  0
    4.9040   -6.4518    0.0000 H   0  0  0  0  0  0  0  0  0  0  0  0
    6.5468   -4.4718    0.0000 C   0  0  0  0  0  0  0  0  0  0  0  0
    7.6909   -5.4419    0.0000 H   0  0  0  0  0  0  0  0  0  0  0  0
    6.8278   -2.9532    0.0000 C   0  0  0  0  0  0  0  0  0  0  0  0
    5.6710   -1.9983    0.0000 C   0  0  0  0  0  0  0  0  0  0  0  0
    5.9074   -0.5171    0.0000 H   0  0  0  0  0  0  0  0  0  0  0  0
    4.2332   -2.5620    0.0000 C   0  0  0  0  0  0  0  0  0  0  0  0
    3.0639   -1.6224    0.0000 H   0  0  0  0  0  0  0  0  0  0  0  0
    8.2374   -2.4405    0.0000 O   0  0  0  0  0  0  0  0  0  0  0  0
    9.3863   -3.4049    0.0000 C   0  0  0  0  0  0  0  0  0  0  0  0
    9.1255   -4.8821    0.0000 O   0  0  0  0  0  0  0  0  0  0  0  0
   10.7960   -2.8922    0.0000 C   0  0  0  0  0  0  0  0  0  0  0  0
   11.0570   -1.4151    0.0000 C   0  0  0  0  0  0  0  0  0  0  0  0
    9.9084   -0.4503    0.0000 H   0  0  0  0  0  0  0  0  0  0  0  0
   12.4677   -0.9028    0.0000 C   0  0  0  0  0  0  0  0  0  0  0  0
   12.7287    0.5744    0.0000 H   0  0  0  0  0  0  0  0  0  0  0  0
   13.6173   -1.8675    0.0000 C   0  0  0  0  0  0  0  0  0  0  0  0
   13.3563   -3.3447    0.0000 C   0  0  0  0  0  0  0  0  0  0  0  0
   14.5048   -4.3095    0.0000 H   0  0  0  0  0  0  0  0  0  0  0  0
   11.9456   -3.8570    0.0000 C   0  0  0  0  0  0  0  0  0  0  0  0
   11.6846   -5.3341    0.0000 H   0  0  0  0  0  0  0  0  0  0  0  0
   15.0270   -1.3548    0.0000 N   0  0  0  0  0  0  0  0  0  0  0  0
   17.2787   -3.2451    0.0000 C   0  0  0  0  0  0  0  0  0  0  0  0
   16.1296   -4.2091    0.0000 H   0  0  0  0  0  0  0  0  0  0  0  0
   18.0287   -4.5441    0.0000 C   0  0  0  0  0  0  0  0  0  0  0  0
   16.6192   -5.0573    0.0000 H   0  0  0  0  0  0  0  0  0  0  0  0
   19.5296   -4.5436    0.0000 C   0  0  0  0  0  0  0  0  0  0  0  0
   19.2692   -6.0209    0.0000 H   0  0  0  0  0  0  0  0  0  0  0  0
   20.2804   -3.2441    0.0000 C   0  0  0  0  0  0  0  0  0  0  0  0
   21.4292   -4.2086    0.0000 H   0  0  0  0  0  0  0  0  0  0  0  0
   19.5304   -1.9451    0.0000 C   0  0  0  0  0  0  0  0  0  0  0  0
   20.9399   -1.4319    0.0000 H   0  0  0  0  0  0  0  0  0  0  0  0
   19.1861    0.0048    0.0000 C   0  0  0  0  0  0  0  0  0  0  0  0
   17.7765    0.5175    0.0000 O   0  0  0  0  0  0  0  0  0  0  0  0
   20.3350    0.9692    0.0000 O   0  0  0  0  0  0  0  0  0  0  0  0
   21.7447    0.4565    0.0000 H   0  0  0  0  0  0  0  0  0  0  0  0
   18.0296   -1.9456    0.0000 O   0  0  0  0  0  0  0  0  0  0  0  0
   21.4296   -2.2801    0.0000 O   0  0  0  0  0  0  0  0  0  0  0  0
   22.8390   -2.7933    0.0000 H   0  0  0  0  0  0  0  0  0  0  0  0
   20.9390   -5.0568    0.0000 O   0  0  0  0  0  0  0  0  0  0  0  0
   21.1994   -6.5341    0.0000 H   0  0  0  0  0  0  0  0  0  0  0  0
   18.2895   -6.0213    0.0000 O   0  0  0  0  0  0  0  0  0  0  0  0
   17.1406   -6.9857    0.0000 H   0  0  0  0  0  0  0  0  0  0  0  0
   15.2877    0.1223    0.0000 C   0  0  0  0  0  0  0  0  0  0  0  0
   14.1389    1.0868    0.0000 N   0  0  0  0  0  0  0  0  0  0  0  0
   14.3997    2.5639    0.0000 H   0  0  0  0  0  0  0  0  0  0  0  0
   16.6974    0.6351    0.0000 N   0  0  0  0  0  0  0  0  0  0  0  0
   16.9582    2.1122    0.0000 H   0  0  0  0  0  0  0  0  0  0  0  0
   17.8463   -0.3294    0.0000 H   0  0  0  0  0  0  0  0  0  0  0  0
  1  2  1  0  0  0  0 
  1  3  1  0  0  0  0 
  1  4  1  0  0  0  0 
  1  5  1  0  0  0  0 
  5  6  1  0  0  0  0 
  6  7  1  0  0  0  0 
  6  8  1  0  0  0  0 
  6  9  1  0  0  0  0 
  5 10  1  0  0  0  0 
 10 11  2  0  0  0  0 
 10 12  1  0  0  0  0 
 12 13  1  0  0  0  0 
 12 14  1  0  0  0  0 
 12 15  1  0  0  0  0 
 15 16  1  0  0  0  0 
 16 17  2  0  0  0  0 
 16 18  1  0  0  0  0 
 18 19  1  0  0  0  0 
 18 20  1  0  0  0  0 
 18 21  1  0  0  0  0 
 21 22  2  0  0  0  0 
 22 23  1  0  0  0  0 
 22 24  1  0  0  0  0 
 24 25  1  0  0  0  0 
 24 26  2  0  0  0  0 
 26 27  1  0  0  0  0 
 27 28  1  0  0  0  0 
 27 29  2  0  0  0  0 
 21 29  1  0  0  0  0 
 29 30  1  0  0  0  0 
 26 31  1  0  0  0  0 
 31 32  1  0  0  0  0 
 32 33  2  0  0  0  0 
 32 34  1  0  0  0  0 
 34 35  2  0  0  0  0 
 35 36  1  0  0  0  0 
 35 37  1  0  0  0  0 
 37 38  1  0  0  0  0 
 37 39  2  0  0  0  0 
 39 40  1  0  0  0  0 
 40 41  1  0  0  0  0 
 40 42  2  0  0  0  0 
 34 42  1  0  0  0  0 
 42 43  1  0  0  0  0 
 39 44  1  0  0  0  0 
 44 45  1  0  0  0  0 
 45 46  1  0  0  0  0 
 45 47  1  0  0  0  0 
 47 48  1  0  0  0  0 
 47 49  1  0  0  0  0 
 49 50  1  0  0  0  0 
 49 51  1  0  0  0  0 
 51 52  1  0  0  0  0 
 51 53  1  0  0  0  0 
 53 54  1  0  0  0  0 
 53 55  1  0  0  0  0 
 55 56  2  0  0  0  0 
 55 57  1  0  0  0  0 
 57 58  1  0  0  0  0 
 53 59  1  0  0  0  0 
 45 59  1  0  0  0  0 
 51 60  1  0  0  0  0 
 60 61  1  0  0  0  0 
 49 62  1  0  0  0  0 
 62 63  1  0  0  0  0 
 47 64  1  0  0  0  0 
 64 65  1  0  0  0  0 
 44 66  1  0  0  0  0 
 66 67  2  0  0  0  0 
 67 68  1  4  0  0  0 
 66 69  1  0  0  0  0 
 69 70  1  0  0  0  0 
 69 71  1  0  0  0  0 
M  END
> <Rank>
12

> <Priority_score>
0.184

> <Reaction_type>
N-glucuronidation_(aniline_NH1-R)

> <Parent_ID>
29

> <Parent_InChI>
InChI=1S/C20H22N4O5/c1-24(2)17(25)12-28-18(26)11-13-3-9-16(10-4-13)29-19(27)14-5-7-15(8-6-14)23-20(21)22/h3-10H,11-12H2,1-2H3,(H4,21,22,23)

> <Parent_SMILES>
CN(C)C(=O)COC(=O)Cc1ccc(OC(=O)c2ccc(NC(=N)N)cc2)cc1

$$$$
Molecule 29_metabolite 13
  CDK     0516241031

 52 53  0  0  0  0  0  0  0  0999 V2000
  -10.5787    0.7941    0.0000 C   0  0  0  0  0  0  0  0  0  0  0  0
   -9.2833    0.0378    0.0000 H   0  0  0  0  0  0  0  0  0  0  0  0
  -11.0986   -0.6129    0.0000 H   0  0  0  0  0  0  0  0  0  0  0  0
  -12.0546    1.0619    0.0000 H   0  0  0  0  0  0  0  0  0  0  0  0
  -10.5713    2.2941    0.0000 N   0  0  0  0  0  0  0  0  0  0  0  0
  -11.8666    3.0505    0.0000 C   0  0  0  0  0  0  0  0  0  0  0  0
  -10.8968    4.1948    0.0000 H   0  0  0  0  0  0  0  0  0  0  0  0
  -12.8251    4.2043    0.0000 H   0  0  0  0  0  0  0  0  0  0  0  0
  -13.1693    2.3069    0.0000 O   0  0  0  0  0  0  0  0  0  0  0  0
  -14.4646    3.0633    0.0000 H   0  0  0  0  0  0  0  0  0  0  0  0
   -9.2686    3.0377    0.0000 C   0  0  0  0  0  0  0  0  0  0  0  0
   -9.2612    4.5377    0.0000 O   0  0  0  0  0  0  0  0  0  0  0  0
   -7.9732    2.2813    0.0000 C   0  0  0  0  0  0  0  0  0  0  0  0
   -8.9431    1.1370    0.0000 H   0  0  0  0  0  0  0  0  0  0  0  0
   -7.0147    1.1275    0.0000 H   0  0  0  0  0  0  0  0  0  0  0  0
   -6.6705    3.0249    0.0000 O   0  0  0  0  0  0  0  0  0  0  0  0
   -5.3752    2.2686    0.0000 C   0  0  0  0  0  0  0  0  0  0  0  0
   -5.3826    0.7686    0.0000 O   0  0  0  0  0  0  0  0  0  0  0  0
   -4.0725    3.0121    0.0000 C   0  0  0  0  0  0  0  0  0  0  0  0
   -3.1026    4.1565    0.0000 H   0  0  0  0  0  0  0  0  0  0  0  0
   -5.0310    4.1659    0.0000 H   0  0  0  0  0  0  0  0  0  0  0  0
   -2.7771    2.2558    0.0000 C   0  0  0  0  0  0  0  0  0  0  0  0
   -1.4781    3.0058    0.0000 C   0  0  0  0  0  0  0  0  0  0  0  0
   -1.4855    4.5057    0.0000 H   0  0  0  0  0  0  0  0  0  0  0  0
   -0.1936    2.2809    0.0000 C   0  0  0  0  0  0  0  0  0  0  0  0
    1.0955    3.0480    0.0000 H   0  0  0  0  0  0  0  0  0  0  0  0
   -0.1681    0.7368    0.0000 C   0  0  0  0  0  0  0  0  0  0  0  0
   -1.4671   -0.0132    0.0000 C   0  0  0  0  0  0  0  0  0  0  0  0
   -1.4795   -1.5132    0.0000 H   0  0  0  0  0  0  0  0  0  0  0  0
   -2.7917    0.7809    0.0000 C   0  0  0  0  0  0  0  0  0  0  0  0
   -4.1005    0.0481    0.0000 H   0  0  0  0  0  0  0  0  0  0  0  0
    1.1371   -0.0025    0.0000 O   0  0  0  0  0  0  0  0  0  0  0  0
    2.4299    0.7582    0.0000 C   0  0  0  0  0  0  0  0  0  0  0  0
    2.4175    2.2582    0.0000 O   0  0  0  0  0  0  0  0  0  0  0  0
    3.7351    0.0190    0.0000 C   0  0  0  0  0  0  0  0  0  0  0  0
    3.7477   -1.4810    0.0000 C   0  0  0  0  0  0  0  0  0  0  0  0
    2.4551   -2.2421    0.0000 H   0  0  0  0  0  0  0  0  0  0  0  0
    5.0539   -2.2200    0.0000 C   0  0  0  0  0  0  0  0  0  0  0  0
    5.0666   -3.7200    0.0000 H   0  0  0  0  0  0  0  0  0  0  0  0
    6.3476   -1.4591    0.0000 C   0  0  0  0  0  0  0  0  0  0  0  0
    6.3350    0.0408    0.0000 C   0  0  0  0  0  0  0  0  0  0  0  0
    7.6275    0.8019    0.0000 H   0  0  0  0  0  0  0  0  0  0  0  0
    5.0287    0.7799    0.0000 C   0  0  0  0  0  0  0  0  0  0  0  0
    5.0161    2.2798    0.0000 H   0  0  0  0  0  0  0  0  0  0  0  0
    7.6528   -2.1984    0.0000 N   0  0  0  0  0  0  0  0  0  0  0  0
    7.6651   -3.6983    0.0000 H   0  0  0  0  0  0  0  0  0  0  0  0
    8.9456   -1.4377    0.0000 C   0  0  0  0  0  0  0  0  0  0  0  0
    8.9332    0.0623    0.0000 N   0  0  0  0  0  0  0  0  0  0  0  0
   10.2260    0.8229    0.0000 H   0  0  0  0  0  0  0  0  0  0  0  0
   10.2508   -2.1769    0.0000 N   0  0  0  0  0  0  0  0  0  0  0  0
   11.5436   -1.4163    0.0000 H   0  0  0  0  0  0  0  0  0  0  0  0
   10.2631   -3.6769    0.0000 H   0  0  0  0  0  0  0  0  0  0  0  0
  1  2  1  0  0  0  0 
  1  3  1  0  0  0  0 
  1  4  1  0  0  0  0 
  1  5  1  0  0  0  0 
  5  6  1  0  0  0  0 
  6  7  1  0  0  0  0 
  6  8  1  0  0  0  0 
  6  9  1  0  0  0  0 
  9 10  1  0  0  0  0 
  5 11  1  0  0  0  0 
 11 12  2  0  0  0  0 
 11 13  1  0  0  0  0 
 13 14  1  0  0  0  0 
 13 15  1  0  0  0  0 
 13 16  1  0  0  0  0 
 16 17  1  0  0  0  0 
 17 18  2  0  0  0  0 
 17 19  1  0  0  0  0 
 19 20  1  0  0  0  0 
 19 21  1  0  0  0  0 
 19 22  1  0  0  0  0 
 22 23  2  0  0  0  0 
 23 24  1  0  0  0  0 
 23 25  1  0  0  0  0 
 25 26  1  0  0  0  0 
 25 27  2  0  0  0  0 
 27 28  1  0  0  0  0 
 28 29  1  0  0  0  0 
 28 30  2  0  0  0  0 
 22 30  1  0  0  0  0 
 30 31  1  0  0  0  0 
 27 32  1  0  0  0  0 
 32 33  1  0  0  0  0 
 33 34  2  0  0  0  0 
 33 35  1  0  0  0  0 
 35 36  2  0  0  0  0 
 36 37  1  0  0  0  0 
 36 38  1  0  0  0  0 
 38 39  1  0  0  0  0 
 38 40  2  0  0  0  0 
 40 41  1  0  0  0  0 
 41 42  1  0  0  0  0 
 41 43  2  0  0  0  0 
 35 43  1  0  0  0  0 
 43 44  1  0  0  0  0 
 40 45  1  0  0  0  0 
 45 46  1  0  0  0  0 
 45 47  1  0  0  0  0 
 47 48  2  0  0  0  0 
 48 49  1  4  0  0  0 
 47 50  1  0  0  0  0 
 50 51  1  0  0  0  0 
 50 52  1  0  0  0  0 
M  END
> <Rank>
13

> <Priority_score>
0.168

> <Reaction_type>
aliphatic hydroxylation

> <Parent_ID>
29

> <Parent_InChI>
InChI=1S/C20H22N4O5/c1-24(2)17(25)12-28-18(26)11-13-3-9-16(10-4-13)29-19(27)14-5-7-15(8-6-14)23-20(21)22/h3-10H,11-12H2,1-2H3,(H4,21,22,23)

> <Parent_SMILES>
CN(C)C(=O)COC(=O)Cc1ccc(OC(=O)c2ccc(NC(=N)N)cc2)cc1

$$$$
Molecule 29_metabolite 14
  CDK     0516241031

 52 53  0  0  0  0  0  0  0  0999 V2000
  -12.1886    2.4928    0.0000 C   0  0  0  0  0  0  0  0  0  0  0  0
  -13.4913    1.7492    0.0000 H   0  0  0  0  0  0  0  0  0  0  0  0
  -11.2188    3.6371    0.0000 H   0  0  0  0  0  0  0  0  0  0  0  0
  -13.1471    3.6466    0.0000 H   0  0  0  0  0  0  0  0  0  0  0  0
  -10.8933    1.7364    0.0000 N   0  0  0  0  0  0  0  0  0  0  0  0
  -10.9006    0.2364    0.0000 C   0  0  0  0  0  0  0  0  0  0  0  0
   -9.6053   -0.5199    0.0000 H   0  0  0  0  0  0  0  0  0  0  0  0
  -11.4206   -1.1705    0.0000 H   0  0  0  0  0  0  0  0  0  0  0  0
  -12.3766    0.5042    0.0000 H   0  0  0  0  0  0  0  0  0  0  0  0
   -9.5905    2.4800    0.0000 C   0  0  0  0  0  0  0  0  0  0  0  0
   -9.5832    3.9800    0.0000 O   0  0  0  0  0  0  0  0  0  0  0  0
   -8.2952    1.7236    0.0000 C   0  0  0  0  0  0  0  0  0  0  0  0
   -9.2650    0.5793    0.0000 H   0  0  0  0  0  0  0  0  0  0  0  0
   -7.3367    0.5698    0.0000 O   0  0  0  0  0  0  0  0  0  0  0  0
   -7.8567   -0.8372    0.0000 H   0  0  0  0  0  0  0  0  0  0  0  0
   -6.9925    2.4672    0.0000 O   0  0  0  0  0  0  0  0  0  0  0  0
   -5.6972    1.7109    0.0000 C   0  0  0  0  0  0  0  0  0  0  0  0
   -5.7046    0.2109    0.0000 O   0  0  0  0  0  0  0  0  0  0  0  0
   -4.3945    2.4545    0.0000 C   0  0  0  0  0  0  0  0  0  0  0  0
   -3.4246    3.5988    0.0000 H   0  0  0  0  0  0  0  0  0  0  0  0
   -5.3530    3.6083    0.0000 H   0  0  0  0  0  0  0  0  0  0  0  0
   -3.0991    1.6981    0.0000 C   0  0  0  0  0  0  0  0  0  0  0  0
   -1.8001    2.4481    0.0000 C   0  0  0  0  0  0  0  0  0  0  0  0
   -1.8075    3.9480    0.0000 H   0  0  0  0  0  0  0  0  0  0  0  0
   -0.5156    1.7232    0.0000 C   0  0  0  0  0  0  0  0  0  0  0  0
    0.7735    2.4903    0.0000 H   0  0  0  0  0  0  0  0  0  0  0  0
   -0.4901    0.1791    0.0000 C   0  0  0  0  0  0  0  0  0  0  0  0
   -1.7891   -0.5709    0.0000 C   0  0  0  0  0  0  0  0  0  0  0  0
   -1.8015   -2.0709    0.0000 H   0  0  0  0  0  0  0  0  0  0  0  0
   -3.1136    0.2232    0.0000 C   0  0  0  0  0  0  0  0  0  0  0  0
   -4.4224   -0.5096    0.0000 H   0  0  0  0  0  0  0  0  0  0  0  0
    0.8151   -0.5602    0.0000 O   0  0  0  0  0  0  0  0  0  0  0  0
    2.1079    0.2005    0.0000 C   0  0  0  0  0  0  0  0  0  0  0  0
    2.0955    1.7005    0.0000 O   0  0  0  0  0  0  0  0  0  0  0  0
    3.4131   -0.5387    0.0000 C   0  0  0  0  0  0  0  0  0  0  0  0
    3.4257   -2.0387    0.0000 C   0  0  0  0  0  0  0  0  0  0  0  0
    2.1331   -2.7998    0.0000 H   0  0  0  0  0  0  0  0  0  0  0  0
    4.7320   -2.7777    0.0000 C   0  0  0  0  0  0  0  0  0  0  0  0
    4.7446   -4.2777    0.0000 H   0  0  0  0  0  0  0  0  0  0  0  0
    6.0256   -2.0168    0.0000 C   0  0  0  0  0  0  0  0  0  0  0  0
    6.0130   -0.5169    0.0000 C   0  0  0  0  0  0  0  0  0  0  0  0
    7.3056    0.2442    0.0000 H   0  0  0  0  0  0  0  0  0  0  0  0
    4.7067    0.2222    0.0000 C   0  0  0  0  0  0  0  0  0  0  0  0
    4.6941    1.7221    0.0000 H   0  0  0  0  0  0  0  0  0  0  0  0
    7.3308   -2.7561    0.0000 N   0  0  0  0  0  0  0  0  0  0  0  0
    7.3432   -4.2560    0.0000 H   0  0  0  0  0  0  0  0  0  0  0  0
    8.6236   -1.9954    0.0000 C   0  0  0  0  0  0  0  0  0  0  0  0
    8.6112   -0.4954    0.0000 N   0  0  0  0  0  0  0  0  0  0  0  0
    9.9040    0.2653    0.0000 H   0  0  0  0  0  0  0  0  0  0  0  0
    9.9288   -2.7346    0.0000 N   0  0  0  0  0  0  0  0  0  0  0  0
   11.2216   -1.9740    0.0000 H   0  0  0  0  0  0  0  0  0  0  0  0
    9.9411   -4.2346    0.0000 H   0  0  0  0  0  0  0  0  0  0  0  0
  1  2  1  0  0  0  0 
  1  3  1  0  0  0  0 
  1  4  1  0  0  0  0 
  1  5  1  0  0  0  0 
  5  6  1  0  0  0  0 
  6  7  1  0  0  0  0 
  6  8  1  0  0  0  0 
  6  9  1  0  0  0  0 
  5 10  1  0  0  0  0 
 10 11  2  0  0  0  0 
 10 12  1  0  0  0  0 
 12 13  1  0  0  0  0 
 12 14  1  0  0  0  0 
 14 15  1  0  0  0  0 
 12 16  1  0  0  0  0 
 16 17  1  0  0  0  0 
 17 18  2  0  0  0  0 
 17 19  1  0  0  0  0 
 19 20  1  0  0  0  0 
 19 21  1  0  0  0  0 
 19 22  1  0  0  0  0 
 22 23  2  0  0  0  0 
 23 24  1  0  0  0  0 
 23 25  1  0  0  0  0 
 25 26  1  0  0  0  0 
 25 27  2  0  0  0  0 
 27 28  1  0  0  0  0 
 28 29  1  0  0  0  0 
 28 30  2  0  0  0  0 
 22 30  1  0  0  0  0 
 30 31  1  0  0  0  0 
 27 32  1  0  0  0  0 
 32 33  1  0  0  0  0 
 33 34  2  0  0  0  0 
 33 35  1  0  0  0  0 
 35 36  2  0  0  0  0 
 36 37  1  0  0  0  0 
 36 38  1  0  0  0  0 
 38 39  1  0  0  0  0 
 38 40  2  0  0  0  0 
 40 41  1  0  0  0  0 
 41 42  1  0  0  0  0 
 41 43  2  0  0  0  0 
 35 43  1  0  0  0  0 
 43 44  1  0  0  0  0 
 40 45  1  0  0  0  0 
 45 46  1  0  0  0  0 
 45 47  1  0  0  0  0 
 47 48  2  0  0  0  0 
 48 49  1  4  0  0  0 
 47 50  1  0  0  0  0 
 50 51  1  0  0  0  0 
 50 52  1  0  0  0  0 
M  END
> <Rank>
14

> <Priority_score>
0.164

> <Reaction_type>
aliphatic hydroxylation

> <Parent_ID>
29

> <Parent_InChI>
InChI=1S/C20H22N4O5/c1-24(2)17(25)12-28-18(26)11-13-3-9-16(10-4-13)29-19(27)14-5-7-15(8-6-14)23-20(21)22/h3-10H,11-12H2,1-2H3,(H4,21,22,23)

> <Parent_SMILES>
CN(C)C(=O)COC(=O)Cc1ccc(OC(=O)c2ccc(NC(=N)N)cc2)cc1

$$$$
Molecule 29_metabolite 15
  CDK     0516241031

 52 53  0  0  0  0  0  0  0  0999 V2000
  -12.5360    4.2109    0.0000 C   0  0  0  0  0  0  0  0  0  0  0  0
  -13.8387    3.4673    0.0000 H   0  0  0  0  0  0  0  0  0  0  0  0
  -11.5662    5.3552    0.0000 H   0  0  0  0  0  0  0  0  0  0  0  0
  -13.4945    5.3647    0.0000 H   0  0  0  0  0  0  0  0  0  0  0  0
  -11.2406    3.4546    0.0000 N   0  0  0  0  0  0  0  0  0  0  0  0
  -11.2480    1.9546    0.0000 C   0  0  0  0  0  0  0  0  0  0  0  0
   -9.9527    1.1982    0.0000 H   0  0  0  0  0  0  0  0  0  0  0  0
  -11.7680    0.5476    0.0000 H   0  0  0  0  0  0  0  0  0  0  0  0
  -12.7239    2.2223    0.0000 H   0  0  0  0  0  0  0  0  0  0  0  0
   -9.9379    4.1981    0.0000 C   0  0  0  0  0  0  0  0  0  0  0  0
   -9.9306    5.6981    0.0000 O   0  0  0  0  0  0  0  0  0  0  0  0
   -8.6426    3.4418    0.0000 C   0  0  0  0  0  0  0  0  0  0  0  0
   -9.6124    2.2975    0.0000 H   0  0  0  0  0  0  0  0  0  0  0  0
   -7.6841    2.2880    0.0000 H   0  0  0  0  0  0  0  0  0  0  0  0
   -7.3399    4.1854    0.0000 O   0  0  0  0  0  0  0  0  0  0  0  0
   -6.0446    3.4290    0.0000 C   0  0  0  0  0  0  0  0  0  0  0  0
   -6.0519    1.9290    0.0000 O   0  0  0  0  0  0  0  0  0  0  0  0
   -4.7418    4.1726    0.0000 C   0  0  0  0  0  0  0  0  0  0  0  0
   -3.7720    5.3169    0.0000 H   0  0  0  0  0  0  0  0  0  0  0  0
   -5.7004    5.3264    0.0000 H   0  0  0  0  0  0  0  0  0  0  0  0
   -3.4465    3.4162    0.0000 C   0  0  0  0  0  0  0  0  0  0  0  0
   -2.1475    4.1662    0.0000 C   0  0  0  0  0  0  0  0  0  0  0  0
   -2.1549    5.6662    0.0000 H   0  0  0  0  0  0  0  0  0  0  0  0
   -0.8630    3.4413    0.0000 C   0  0  0  0  0  0  0  0  0  0  0  0
    0.4261    4.2084    0.0000 H   0  0  0  0  0  0  0  0  0  0  0  0
   -0.8375    1.8972    0.0000 C   0  0  0  0  0  0  0  0  0  0  0  0
   -2.1365    1.1472    0.0000 C   0  0  0  0  0  0  0  0  0  0  0  0
   -2.1489   -0.3527    0.0000 H   0  0  0  0  0  0  0  0  0  0  0  0
   -3.4610    1.9413    0.0000 C   0  0  0  0  0  0  0  0  0  0  0  0
   -4.7698    1.2085    0.0000 H   0  0  0  0  0  0  0  0  0  0  0  0
    0.4677    1.1579    0.0000 O   0  0  0  0  0  0  0  0  0  0  0  0
    1.7605    1.9186    0.0000 C   0  0  0  0  0  0  0  0  0  0  0  0
    1.7481    3.4186    0.0000 O   0  0  0  0  0  0  0  0  0  0  0  0
    3.0657    1.1794    0.0000 C   0  0  0  0  0  0  0  0  0  0  0  0
    3.0776   -0.3128    0.0000 C   0  0  0  0  0  0  0  0  0  0  0  0
    1.7834   -1.0711    0.0000 H   0  0  0  0  0  0  0  0  0  0  0  0
    4.3803   -1.0564    0.0000 C   0  0  0  0  0  0  0  0  0  0  0  0
    4.3767   -2.5563    0.0000 H   0  0  0  0  0  0  0  0  0  0  0  0
    5.6885   -0.3177    0.0000 C   0  0  0  0  0  0  0  0  0  0  0  0
    5.6692    1.2017    0.0000 C   0  0  0  0  0  0  0  0  0  0  0  0
    4.3665    1.9453    0.0000 C   0  0  0  0  0  0  0  0  0  0  0  0
    4.3564    3.4452    0.0000 H   0  0  0  0  0  0  0  0  0  0  0  0
    6.9615    1.9631    0.0000 O   0  0  0  0  0  0  0  0  0  0  0  0
    8.2671    1.2246    0.0000 H   0  0  0  0  0  0  0  0  0  0  0  0
    6.9887   -1.0657    0.0000 N   0  0  0  0  0  0  0  0  0  0  0  0
    8.2866   -0.3137    0.0000 H   0  0  0  0  0  0  0  0  0  0  0  0
    6.9910   -2.5657    0.0000 C   0  0  0  0  0  0  0  0  0  0  0  0
    5.6931   -3.3177    0.0000 N   0  0  0  0  0  0  0  0  0  0  0  0
    5.6955   -4.8177    0.0000 H   0  0  0  0  0  0  0  0  0  0  0  0
    8.2912   -3.3137    0.0000 N   0  0  0  0  0  0  0  0  0  0  0  0
    8.2935   -4.8137    0.0000 H   0  0  0  0  0  0  0  0  0  0  0  0
    9.5891   -2.5617    0.0000 H   0  0  0  0  0  0  0  0  0  0  0  0
  1  2  1  0  0  0  0 
  1  3  1  0  0  0  0 
  1  4  1  0  0  0  0 
  1  5  1  0  0  0  0 
  5  6  1  0  0  0  0 
  6  7  1  0  0  0  0 
  6  8  1  0  0  0  0 
  6  9  1  0  0  0  0 
  5 10  1  0  0  0  0 
 10 11  2  0  0  0  0 
 10 12  1  0  0  0  0 
 12 13  1  0  0  0  0 
 12 14  1  0  0  0  0 
 12 15  1  0  0  0  0 
 15 16  1  0  0  0  0 
 16 17  2  0  0  0  0 
 16 18  1  0  0  0  0 
 18 19  1  0  0  0  0 
 18 20  1  0  0  0  0 
 18 21  1  0  0  0  0 
 21 22  2  0  0  0  0 
 22 23  1  0  0  0  0 
 22 24  1  0  0  0  0 
 24 25  1  0  0  0  0 
 24 26  2  0  0  0  0 
 26 27  1  0  0  0  0 
 27 28  1  0  0  0  0 
 27 29  2  0  0  0  0 
 21 29  1  0  0  0  0 
 29 30  1  0  0  0  0 
 26 31  1  0  0  0  0 
 31 32  1  0  0  0  0 
 32 33  2  0  0  0  0 
 32 34  1  0  0  0  0 
 34 35  2  0  0  0  0 
 35 36  1  0  0  0  0 
 35 37  1  0  0  0  0 
 37 38  1  0  0  0  0 
 37 39  2  0  0  0  0 
 39 40  1  0  0  0  0 
 40 41  2  0  0  0  0 
 34 41  1  0  0  0  0 
 41 42  1  0  0  0  0 
 40 43  1  0  0  0  0 
 43 44  1  0  0  0  0 
 39 45  1  0  0  0  0 
 45 46  1  0  0  0  0 
 45 47  1  0  0  0  0 
 47 48  2  0  0  0  0 
 48 49  1  4  0  0  0 
 47 50  1  0  0  0  0 
 50 51  1  0  0  0  0 
 50 52  1  0  0  0  0 
M  END
> <Rank>
15

> <Priority_score>
0.13955763604447047

> <Reaction_type>
aromatic_hydroxylation_(ortho_to_nitrogen)

> <Parent_ID>
29

> <Parent_InChI>
InChI=1S/C20H22N4O5/c1-24(2)17(25)12-28-18(26)11-13-3-9-16(10-4-13)29-19(27)14-5-7-15(8-6-14)23-20(21)22/h3-10H,11-12H2,1-2H3,(H4,21,22,23)

> <Parent_SMILES>
CN(C)C(=O)COC(=O)Cc1ccc(OC(=O)c2ccc(NC(=N)N)cc2)cc1

$$$$
Molecule 29_metabolite 16
  CDK     0516241031

 52 53  0  0  0  0  0  0  0  0999 V2000
  -12.1979    2.4982    0.0000 C   0  0  0  0  0  0  0  0  0  0  0  0
  -13.5006    1.7546    0.0000 H   0  0  0  0  0  0  0  0  0  0  0  0
  -11.2280    3.6425    0.0000 H   0  0  0  0  0  0  0  0  0  0  0  0
  -13.1564    3.6520    0.0000 H   0  0  0  0  0  0  0  0  0  0  0  0
  -10.9025    1.7418    0.0000 N   0  0  0  0  0  0  0  0  0  0  0  0
  -10.9099    0.2418    0.0000 C   0  0  0  0  0  0  0  0  0  0  0  0
   -9.6146   -0.5146    0.0000 H   0  0  0  0  0  0  0  0  0  0  0  0
  -11.4299   -1.1652    0.0000 H   0  0  0  0  0  0  0  0  0  0  0  0
  -12.3858    0.5095    0.0000 H   0  0  0  0  0  0  0  0  0  0  0  0
   -9.5998    2.4854    0.0000 C   0  0  0  0  0  0  0  0  0  0  0  0
   -9.5924    3.9854    0.0000 O   0  0  0  0  0  0  0  0  0  0  0  0
   -8.3045    1.7290    0.0000 C   0  0  0  0  0  0  0  0  0  0  0  0
   -9.2743    0.5847    0.0000 H   0  0  0  0  0  0  0  0  0  0  0  0
   -7.3460    0.5752    0.0000 H   0  0  0  0  0  0  0  0  0  0  0  0
   -7.0018    2.4726    0.0000 O   0  0  0  0  0  0  0  0  0  0  0  0
   -5.7065    1.7162    0.0000 C   0  0  0  0  0  0  0  0  0  0  0  0
   -5.7138    0.2162    0.0000 O   0  0  0  0  0  0  0  0  0  0  0  0
   -4.4037    2.4598    0.0000 C   0  0  0  0  0  0  0  0  0  0  0  0
   -3.4339    3.6041    0.0000 H   0  0  0  0  0  0  0  0  0  0  0  0
   -5.3623    3.6136    0.0000 H   0  0  0  0  0  0  0  0  0  0  0  0
   -3.1084    1.7034    0.0000 C   0  0  0  0  0  0  0  0  0  0  0  0
   -1.8094    2.4534    0.0000 C   0  0  0  0  0  0  0  0  0  0  0  0
   -1.8168    3.9534    0.0000 H   0  0  0  0  0  0  0  0  0  0  0  0
   -0.5249    1.7286    0.0000 C   0  0  0  0  0  0  0  0  0  0  0  0
    0.7642    2.4956    0.0000 H   0  0  0  0  0  0  0  0  0  0  0  0
   -0.4994    0.1844    0.0000 C   0  0  0  0  0  0  0  0  0  0  0  0
   -1.7984   -0.5656    0.0000 C   0  0  0  0  0  0  0  0  0  0  0  0
   -1.8108   -2.0655    0.0000 H   0  0  0  0  0  0  0  0  0  0  0  0
   -3.1229    0.2286    0.0000 C   0  0  0  0  0  0  0  0  0  0  0  0
   -4.4317   -0.5043    0.0000 H   0  0  0  0  0  0  0  0  0  0  0  0
    0.8058   -0.5548    0.0000 O   0  0  0  0  0  0  0  0  0  0  0  0
    2.0986    0.2059    0.0000 C   0  0  0  0  0  0  0  0  0  0  0  0
    2.0862    1.7058    0.0000 O   0  0  0  0  0  0  0  0  0  0  0  0
    3.4038   -0.5334    0.0000 C   0  0  0  0  0  0  0  0  0  0  0  0
    3.4164   -2.0333    0.0000 C   0  0  0  0  0  0  0  0  0  0  0  0
    2.1239   -2.7944    0.0000 H   0  0  0  0  0  0  0  0  0  0  0  0
    4.7227   -2.7724    0.0000 C   0  0  0  0  0  0  0  0  0  0  0  0
    4.7353   -4.2723    0.0000 H   0  0  0  0  0  0  0  0  0  0  0  0
    6.0163   -2.0115    0.0000 C   0  0  0  0  0  0  0  0  0  0  0  0
    6.0037   -0.5115    0.0000 C   0  0  0  0  0  0  0  0  0  0  0  0
    7.2963    0.2496    0.0000 H   0  0  0  0  0  0  0  0  0  0  0  0
    4.6974    0.2275    0.0000 C   0  0  0  0  0  0  0  0  0  0  0  0
    4.6848    1.7275    0.0000 H   0  0  0  0  0  0  0  0  0  0  0  0
    7.3215   -2.7507    0.0000 N   0  0  0  0  0  0  0  0  0  0  0  0
    8.6143   -1.9900    0.0000 C   0  0  0  0  0  0  0  0  0  0  0  0
    8.6019   -0.4901    0.0000 N   0  0  0  0  0  0  0  0  0  0  0  0
    9.8947    0.2706    0.0000 H   0  0  0  0  0  0  0  0  0  0  0  0
    9.9195   -2.7293    0.0000 N   0  0  0  0  0  0  0  0  0  0  0  0
   11.2123   -1.9686    0.0000 H   0  0  0  0  0  0  0  0  0  0  0  0
    9.9319   -4.2292    0.0000 H   0  0  0  0  0  0  0  0  0  0  0  0
    7.3339   -4.2507    0.0000 O   0  0  0  0  0  0  0  0  0  0  0  0
    8.6391   -4.9899    0.0000 H   0  0  0  0  0  0  0  0  0  0  0  0
  1  2  1  0  0  0  0 
  1  3  1  0  0  0  0 
  1  4  1  0  0  0  0 
  1  5  1  0  0  0  0 
  5  6  1  0  0  0  0 
  6  7  1  0  0  0  0 
  6  8  1  0  0  0  0 
  6  9  1  0  0  0  0 
  5 10  1  0  0  0  0 
 10 11  2  0  0  0  0 
 10 12  1  0  0  0  0 
 12 13  1  0  0  0  0 
 12 14  1  0  0  0  0 
 12 15  1  0  0  0  0 
 15 16  1  0  0  0  0 
 16 17  2  0  0  0  0 
 16 18  1  0  0  0  0 
 18 19  1  0  0  0  0 
 18 20  1  0  0  0  0 
 18 21  1  0  0  0  0 
 21 22  2  0  0  0  0 
 22 23  1  0  0  0  0 
 22 24  1  0  0  0  0 
 24 25  1  0  0  0  0 
 24 26  2  0  0  0  0 
 26 27  1  0  0  0  0 
 27 28  1  0  0  0  0 
 27 29  2  0  0  0  0 
 21 29  1  0  0  0  0 
 29 30  1  0  0  0  0 
 26 31  1  0  0  0  0 
 31 32  1  0  0  0  0 
 32 33  2  0  0  0  0 
 32 34  1  0  0  0  0 
 34 35  2  0  0  0  0 
 35 36  1  0  0  0  0 
 35 37  1  0  0  0  0 
 37 38  1  0  0  0  0 
 37 39  2  0  0  0  0 
 39 40  1  0  0  0  0 
 40 41  1  0  0  0  0 
 40 42  2  0  0  0  0 
 34 42  1  0  0  0  0 
 42 43  1  0  0  0  0 
 39 44  1  0  0  0  0 
 44 45  1  0  0  0  0 
 45 46  2  0  0  0  0 
 46 47  1  4  0  0  0 
 45 48  1  0  0  0  0 
 48 49  1  0  0  0  0 
 48 50  1  0  0  0  0 
 44 51  1  0  0  0  0 
 51 52  1  0  0  0  0 
M  END
> <Rank>
15

> <Priority_score>
0.13955763604447047

> <Reaction_type>
amine hydroxylation

> <Parent_ID>
29

> <Parent_InChI>
InChI=1S/C20H22N4O5/c1-24(2)17(25)12-28-18(26)11-13-3-9-16(10-4-13)29-19(27)14-5-7-15(8-6-14)23-20(21)22/h3-10H,11-12H2,1-2H3,(H4,21,22,23)

> <Parent_SMILES>
CN(C)C(=O)COC(=O)Cc1ccc(OC(=O)c2ccc(NC(=N)N)cc2)cc1

$$$$
Molecule 29_metabolite 17
  CDK     0516241031

 52 53  0  0  0  0  0  0  0  0999 V2000
  -12.5180    1.9223    0.0000 C   0  0  0  0  0  0  0  0  0  0  0  0
  -13.8207    1.1787    0.0000 H   0  0  0  0  0  0  0  0  0  0  0  0
  -11.5482    3.0666    0.0000 H   0  0  0  0  0  0  0  0  0  0  0  0
  -13.4765    3.0761    0.0000 H   0  0  0  0  0  0  0  0  0  0  0  0
  -11.2226    1.1659    0.0000 N   0  0  0  0  0  0  0  0  0  0  0  0
  -11.2300   -0.3341    0.0000 C   0  0  0  0  0  0  0  0  0  0  0  0
   -9.9347   -1.0905    0.0000 H   0  0  0  0  0  0  0  0  0  0  0  0
  -11.7500   -1.7411    0.0000 H   0  0  0  0  0  0  0  0  0  0  0  0
  -12.7059   -0.0663    0.0000 H   0  0  0  0  0  0  0  0  0  0  0  0
   -9.9199    1.9095    0.0000 C   0  0  0  0  0  0  0  0  0  0  0  0
   -9.9126    3.4095    0.0000 O   0  0  0  0  0  0  0  0  0  0  0  0
   -8.6246    1.1531    0.0000 C   0  0  0  0  0  0  0  0  0  0  0  0
   -9.5944    0.0088    0.0000 H   0  0  0  0  0  0  0  0  0  0  0  0
   -7.6661   -0.0007    0.0000 H   0  0  0  0  0  0  0  0  0  0  0  0
   -7.3219    1.8967    0.0000 O   0  0  0  0  0  0  0  0  0  0  0  0
   -6.0266    1.1403    0.0000 C   0  0  0  0  0  0  0  0  0  0  0  0
   -6.0339   -0.3596    0.0000 O   0  0  0  0  0  0  0  0  0  0  0  0
   -4.7238    1.8839    0.0000 C   0  0  0  0  0  0  0  0  0  0  0  0
   -3.7540    3.0282    0.0000 H   0  0  0  0  0  0  0  0  0  0  0  0
   -5.6824    3.0377    0.0000 H   0  0  0  0  0  0  0  0  0  0  0  0
   -3.4285    1.1275    0.0000 C   0  0  0  0  0  0  0  0  0  0  0  0
   -2.1295    1.8775    0.0000 C   0  0  0  0  0  0  0  0  0  0  0  0
   -2.1369    3.3775    0.0000 H   0  0  0  0  0  0  0  0  0  0  0  0
   -0.8450    1.1527    0.0000 C   0  0  0  0  0  0  0  0  0  0  0  0
    0.4441    1.9197    0.0000 H   0  0  0  0  0  0  0  0  0  0  0  0
   -0.8195   -0.3914    0.0000 C   0  0  0  0  0  0  0  0  0  0  0  0
   -2.1185   -1.1414    0.0000 C   0  0  0  0  0  0  0  0  0  0  0  0
   -2.1309   -2.6414    0.0000 H   0  0  0  0  0  0  0  0  0  0  0  0
   -3.4430   -0.3473    0.0000 C   0  0  0  0  0  0  0  0  0  0  0  0
   -4.7518   -1.0801    0.0000 H   0  0  0  0  0  0  0  0  0  0  0  0
    0.4857   -1.1307    0.0000 O   0  0  0  0  0  0  0  0  0  0  0  0
    1.7785   -0.3700    0.0000 C   0  0  0  0  0  0  0  0  0  0  0  0
    1.7661    1.1299    0.0000 O   0  0  0  0  0  0  0  0  0  0  0  0
    3.0837   -1.1093    0.0000 C   0  0  0  0  0  0  0  0  0  0  0  0
    3.0963   -2.6092    0.0000 C   0  0  0  0  0  0  0  0  0  0  0  0
    1.8037   -3.3703    0.0000 H   0  0  0  0  0  0  0  0  0  0  0  0
    4.4026   -3.3482    0.0000 C   0  0  0  0  0  0  0  0  0  0  0  0
    4.4152   -4.8482    0.0000 H   0  0  0  0  0  0  0  0  0  0  0  0
    5.6962   -2.5873    0.0000 C   0  0  0  0  0  0  0  0  0  0  0  0
    5.6836   -1.0874    0.0000 C   0  0  0  0  0  0  0  0  0  0  0  0
    6.9762   -0.3263    0.0000 H   0  0  0  0  0  0  0  0  0  0  0  0
    4.3773   -0.3484    0.0000 C   0  0  0  0  0  0  0  0  0  0  0  0
    4.3647    1.1516    0.0000 H   0  0  0  0  0  0  0  0  0  0  0  0
    7.0014   -3.3266    0.0000 N   0  0  0  0  0  0  0  0  0  0  0  0
    7.0138   -4.8265    0.0000 H   0  0  0  0  0  0  0  0  0  0  0  0
    8.2942   -2.5659    0.0000 C   0  0  0  0  0  0  0  0  0  0  0  0
    8.2818   -1.0660    0.0000 N   0  0  0  0  0  0  0  0  0  0  0  0
    9.5746   -0.3053    0.0000 H   0  0  0  0  0  0  0  0  0  0  0  0
    9.5994   -3.3052    0.0000 N   0  0  0  0  0  0  0  0  0  0  0  0
    9.6118   -4.8051    0.0000 H   0  0  0  0  0  0  0  0  0  0  0  0
   10.8922   -2.5445    0.0000 O   0  0  0  0  0  0  0  0  0  0  0  0
   12.1974   -3.2837    0.0000 H   0  0  0  0  0  0  0  0  0  0  0  0
  1  2  1  0  0  0  0 
  1  3  1  0  0  0  0 
  1  4  1  0  0  0  0 
  1  5  1  0  0  0  0 
  5  6  1  0  0  0  0 
  6  7  1  0  0  0  0 
  6  8  1  0  0  0  0 
  6  9  1  0  0  0  0 
  5 10  1  0  0  0  0 
 10 11  2  0  0  0  0 
 10 12  1  0  0  0  0 
 12 13  1  0  0  0  0 
 12 14  1  0  0  0  0 
 12 15  1  0  0  0  0 
 15 16  1  0  0  0  0 
 16 17  2  0  0  0  0 
 16 18  1  0  0  0  0 
 18 19  1  0  0  0  0 
 18 20  1  0  0  0  0 
 18 21  1  0  0  0  0 
 21 22  2  0  0  0  0 
 22 23  1  0  0  0  0 
 22 24  1  0  0  0  0 
 24 25  1  0  0  0  0 
 24 26  2  0  0  0  0 
 26 27  1  0  0  0  0 
 27 28  1  0  0  0  0 
 27 29  2  0  0  0  0 
 21 29  1  0  0  0  0 
 29 30  1  0  0  0  0 
 26 31  1  0  0  0  0 
 31 32  1  0  0  0  0 
 32 33  2  0  0  0  0 
 32 34  1  0  0  0  0 
 34 35  2  0  0  0  0 
 35 36  1  0  0  0  0 
 35 37  1  0  0  0  0 
 37 38  1  0  0  0  0 
 37 39  2  0  0  0  0 
 39 40  1  0  0  0  0 
 40 41  1  0  0  0  0 
 40 42  2  0  0  0  0 
 34 42  1  0  0  0  0 
 42 43  1  0  0  0  0 
 39 44  1  0  0  0  0 
 44 45  1  0  0  0  0 
 44 46  1  0  0  0  0 
 46 47  2  0  0  0  0 
 47 48  1  4  0  0  0 
 46 49  1  0  0  0  0 
 49 50  1  0  0  0  0 
 49 51  1  0  0  0  0 
 51 52  1  0  0  0  0 
M  END
> <Rank>
17

> <Priority_score>
0.12

> <Reaction_type>
amine hydroxylation

> <Parent_ID>
29

> <Parent_InChI>
InChI=1S/C20H22N4O5/c1-24(2)17(25)12-28-18(26)11-13-3-9-16(10-4-13)29-19(27)14-5-7-15(8-6-14)23-20(21)22/h3-10H,11-12H2,1-2H3,(H4,21,22,23)

> <Parent_SMILES>
CN(C)C(=O)COC(=O)Cc1ccc(OC(=O)c2ccc(NC(=N)N)cc2)cc1

$$$$
Molecule 29_metabolite 18
  CDK     0516241031

 52 53  0  0  0  0  0  0  0  0999 V2000
  -12.3903    3.0363    0.0000 C   0  0  0  0  0  0  0  0  0  0  0  0
  -13.6894    2.2863    0.0000 H   0  0  0  0  0  0  0  0  0  0  0  0
  -11.4261    4.1853    0.0000 H   0  0  0  0  0  0  0  0  0  0  0  0
  -13.3545    4.1853    0.0000 H   0  0  0  0  0  0  0  0  0  0  0  0
  -11.0913    2.2863    0.0000 N   0  0  0  0  0  0  0  0  0  0  0  0
  -11.0913    0.7863    0.0000 C   0  0  0  0  0  0  0  0  0  0  0  0
   -9.7923    0.0363    0.0000 H   0  0  0  0  0  0  0  0  0  0  0  0
  -11.6043   -0.6233    0.0000 H   0  0  0  0  0  0  0  0  0  0  0  0
  -12.5685    1.0467    0.0000 H   0  0  0  0  0  0  0  0  0  0  0  0
   -9.7923    3.0363    0.0000 C   0  0  0  0  0  0  0  0  0  0  0  0
   -9.7923    4.5363    0.0000 O   0  0  0  0  0  0  0  0  0  0  0  0
   -8.4932    2.2863    0.0000 C   0  0  0  0  0  0  0  0  0  0  0  0
   -9.4574    1.1372    0.0000 H   0  0  0  0  0  0  0  0  0  0  0  0
   -7.5290    1.1372    0.0000 H   0  0  0  0  0  0  0  0  0  0  0  0
   -7.1942    3.0363    0.0000 O   0  0  0  0  0  0  0  0  0  0  0  0
   -5.8951    2.2863    0.0000 C   0  0  0  0  0  0  0  0  0  0  0  0
   -5.8951    0.7863    0.0000 O   0  0  0  0  0  0  0  0  0  0  0  0
   -4.5961    3.0363    0.0000 C   0  0  0  0  0  0  0  0  0  0  0  0
   -3.6319    4.1853    0.0000 H   0  0  0  0  0  0  0  0  0  0  0  0
   -5.5603    4.1853    0.0000 H   0  0  0  0  0  0  0  0  0  0  0  0
   -3.2971    2.2863    0.0000 C   0  0  0  0  0  0  0  0  0  0  0  0
   -3.2975    0.7854    0.0000 C   0  0  0  0  0  0  0  0  0  0  0  0
   -4.5967    0.0356    0.0000 H   0  0  0  0  0  0  0  0  0  0  0  0
   -1.9985    0.0354    0.0000 C   0  0  0  0  0  0  0  0  0  0  0  0
   -1.9983   -1.4646    0.0000 H   0  0  0  0  0  0  0  0  0  0  0  0
   -0.6990    0.7863    0.0000 C   0  0  0  0  0  0  0  0  0  0  0  0
   -0.6985    2.2871    0.0000 C   0  0  0  0  0  0  0  0  0  0  0  0
   -1.9975    3.0371    0.0000 C   0  0  0  0  0  0  0  0  0  0  0  0
   -1.9978    4.5371    0.0000 H   0  0  0  0  0  0  0  0  0  0  0  0
    0.6007    3.0369    0.0000 O   0  0  0  0  0  0  0  0  0  0  0  0
    1.8996    2.2867    0.0000 H   0  0  0  0  0  0  0  0  0  0  0  0
    0.6001    0.0363    0.0000 O   0  0  0  0  0  0  0  0  0  0  0  0
    0.6001   -1.4637    0.0000 C   0  0  0  0  0  0  0  0  0  0  0  0
   -0.6990   -2.2137    0.0000 O   0  0  0  0  0  0  0  0  0  0  0  0
    1.8991   -2.2137    0.0000 C   0  0  0  0  0  0  0  0  0  0  0  0
    3.1982   -1.4640    0.0000 C   0  0  0  0  0  0  0  0  0  0  0  0
    3.1987    0.0360    0.0000 H   0  0  0  0  0  0  0  0  0  0  0  0
    4.4976   -2.2150    0.0000 C   0  0  0  0  0  0  0  0  0  0  0  0
    5.7968   -1.4652    0.0000 H   0  0  0  0  0  0  0  0  0  0  0  0
    4.4979   -3.7158    0.0000 C   0  0  0  0  0  0  0  0  0  0  0  0
    3.1987   -4.4656    0.0000 C   0  0  0  0  0  0  0  0  0  0  0  0
    3.1983   -5.9656    0.0000 H   0  0  0  0  0  0  0  0  0  0  0  0
    1.8993   -3.7146    0.0000 C   0  0  0  0  0  0  0  0  0  0  0  0
    0.6002   -4.4644    0.0000 H   0  0  0  0  0  0  0  0  0  0  0  0
    5.7969   -4.4658    0.0000 N   0  0  0  0  0  0  0  0  0  0  0  0
    7.0960   -3.7158    0.0000 H   0  0  0  0  0  0  0  0  0  0  0  0
    5.7969   -5.9658    0.0000 C   0  0  0  0  0  0  0  0  0  0  0  0
    4.4979   -6.7158    0.0000 N   0  0  0  0  0  0  0  0  0  0  0  0
    4.4979   -8.2158    0.0000 H   0  0  0  0  0  0  0  0  0  0  0  0
    7.0960   -6.7158    0.0000 N   0  0  0  0  0  0  0  0  0  0  0  0
    7.0960   -8.2158    0.0000 H   0  0  0  0  0  0  0  0  0  0  0  0
    8.3950   -5.9658    0.0000 H   0  0  0  0  0  0  0  0  0  0  0  0
  1  2  1  0  0  0  0 
  1  3  1  0  0  0  0 
  1  4  1  0  0  0  0 
  1  5  1  0  0  0  0 
  5  6  1  0  0  0  0 
  6  7  1  0  0  0  0 
  6  8  1  0  0  0  0 
  6  9  1  0  0  0  0 
  5 10  1  0  0  0  0 
 10 11  2  0  0  0  0 
 10 12  1  0  0  0  0 
 12 13  1  0  0  0  0 
 12 14  1  0  0  0  0 
 12 15  1  0  0  0  0 
 15 16  1  0  0  0  0 
 16 17  2  0  0  0  0 
 16 18  1  0  0  0  0 
 18 19  1  0  0  0  0 
 18 20  1  0  0  0  0 
 18 21  1  0  0  0  0 
 21 22  2  0  0  0  0 
 22 23  1  0  0  0  0 
 22 24  1  0  0  0  0 
 24 25  1  0  0  0  0 
 24 26  2  0  0  0  0 
 26 27  1  0  0  0  0 
 27 28  2  0  0  0  0 
 21 28  1  0  0  0  0 
 28 29  1  0  0  0  0 
 27 30  1  0  0  0  0 
 30 31  1  0  0  0  0 
 26 32  1  0  0  0  0 
 32 33  1  0  0  0  0 
 33 34  2  0  0  0  0 
 33 35  1  0  0  0  0 
 35 36  2  0  0  0  0 
 36 37  1  0  0  0  0 
 36 38  1  0  0  0  0 
 38 39  1  0  0  0  0 
 38 40  2  0  0  0  0 
 40 41  1  0  0  0  0 
 41 42  1  0  0  0  0 
 41 43  2  0  0  0  0 
 35 43  1  0  0  0  0 
 43 44  1  0  0  0  0 
 40 45  1  0  0  0  0 
 45 46  1  0  0  0  0 
 45 47  1  0  0  0  0 
 47 48  2  0  0  0  0 
 48 49  1  4  0  0  0 
 47 50  1  0  0  0  0 
 50 51  1  0  0  0  0 
 50 52  1  0  0  0  0 
M  END
> <Rank>
18

> <Priority_score>
0.048

> <Reaction_type>
aromatic_hydroxylation_(ortho_to_oxygen)

> <Parent_ID>
29

> <Parent_InChI>
InChI=1S/C20H22N4O5/c1-24(2)17(25)12-28-18(26)11-13-3-9-16(10-4-13)29-19(27)14-5-7-15(8-6-14)23-20(21)22/h3-10H,11-12H2,1-2H3,(H4,21,22,23)

> <Parent_SMILES>
CN(C)C(=O)COC(=O)Cc1ccc(OC(=O)c2ccc(NC(=N)N)cc2)cc1

$$$$
Molecule 29_metabolite 19
  CDK     0516241031

 21 21  0  0  0  0  0  0  0  0999 V2000
    0.0000    1.5000    0.0000 C   0  0  0  0  0  0  0  0  0  0  0  0
    0.0000    3.0000    0.0000 H   0  0  0  0  0  0  0  0  0  0  0  0
   -1.3000    0.7500    0.0000 C   0  0  0  0  0  0  0  0  0  0  0  0
   -1.3000   -0.7500    0.0000 C   0  0  0  0  0  0  0  0  0  0  0  0
   -2.5989   -1.5002    0.0000 H   0  0  0  0  0  0  0  0  0  0  0  0
    0.0000   -1.5000    0.0000 C   0  0  0  0  0  0  0  0  0  0  0  0
   -0.0000   -3.0000    0.0000 H   0  0  0  0  0  0  0  0  0  0  0  0
    1.3000   -0.7500    0.0000 C   0  0  0  0  0  0  0  0  0  0  0  0
    1.3000    0.7500    0.0000 C   0  0  0  0  0  0  0  0  0  0  0  0
    2.5989    1.5002    0.0000 H   0  0  0  0  0  0  0  0  0  0  0  0
    2.5989   -1.5002    0.0000 N   0  0  0  0  0  0  0  0  0  0  0  0
    2.5987   -3.0002    0.0000 H   0  0  0  0  0  0  0  0  0  0  0  0
    3.8981   -0.7504    0.0000 C   0  0  0  0  0  0  0  0  0  0  0  0
    3.8983    0.7496    0.0000 N   0  0  0  0  0  0  0  0  0  0  0  0
    5.1975    1.4994    0.0000 H   0  0  0  0  0  0  0  0  0  0  0  0
    5.1970   -1.5006    0.0000 N   0  0  0  0  0  0  0  0  0  0  0  0
    6.4962   -0.7508    0.0000 H   0  0  0  0  0  0  0  0  0  0  0  0
    5.1968   -3.0006    0.0000 H   0  0  0  0  0  0  0  0  0  0  0  0
   -2.5989    1.5002    0.0000 C   0  0  0  0  0  0  0  0  0  0  0  0
   -3.8981    0.7504    0.0000 H   0  0  0  0  0  0  0  0  0  0  0  0
   -2.5987    3.0002    0.0000 O   0  0  0  0  0  0  0  0  0  0  0  0
  1  2  1  0  0  0  0 
  1  3  2  0  0  0  0 
  3  4  1  0  0  0  0 
  4  5  1  0  0  0  0 
  4  6  2  0  0  0  0 
  6  7  1  0  0  0  0 
  6  8  1  0  0  0  0 
  8  9  2  0  0  0  0 
  1  9  1  0  0  0  0 
  9 10  1  0  0  0  0 
  8 11  1  0  0  0  0 
 11 12  1  0  0  0  0 
 11 13  1  0  0  0  0 
 13 14  2  0  0  0  0 
 14 15  1  4  0  0  0 
 13 16  1  0  0  0  0 
 16 17  1  0  0  0  0 
 16 18  1  0  0  0  0 
  3 19  1  0  0  0  0 
 19 20  1  0  0  0  0 
 19 21  2  0  0  0  0 
M  END
> <Rank>
19

> <Priority_score>
0.038400000000000004

> <Reaction_type>
oxidation of 4-substituted anisole to quinone (substituent not a leaving group)

> <Parent_ID>
29

> <Parent_InChI>
InChI=1S/C20H22N4O5/c1-24(2)17(25)12-28-18(26)11-13-3-9-16(10-4-13)29-19(27)14-5-7-15(8-6-14)23-20(21)22/h3-10H,11-12H2,1-2H3,(H4,21,22,23)

> <Parent_SMILES>
CN(C)C(=O)COC(=O)Cc1ccc(OC(=O)c2ccc(NC(=N)N)cc2)cc1

$$$$
Molecule 29_metabolite 20
  CDK     0516241031

 33 33  0  0  0  0  0  0  0  0999 V2000
    2.4451    3.9248    0.0000 C   0  0  0  0  0  0  0  0  0  0  0  0
    3.4095    5.0737    0.0000 H   0  0  0  0  0  0  0  0  0  0  0  0
    1.9317    2.5154    0.0000 H   0  0  0  0  0  0  0  0  0  0  0  0
    3.7439    3.1745    0.0000 H   0  0  0  0  0  0  0  0  0  0  0  0
    0.9679    4.1856    0.0000 N   0  0  0  0  0  0  0  0  0  0  0  0
    0.4552    5.5953    0.0000 C   0  0  0  0  0  0  0  0  0  0  0  0
   -1.0220    5.8560    0.0000 H   0  0  0  0  0  0  0  0  0  0  0  0
    0.4555    7.0953    0.0000 H   0  0  0  0  0  0  0  0  0  0  0  0
    1.9324    5.8554    0.0000 H   0  0  0  0  0  0  0  0  0  0  0  0
    0.0035    3.0367    0.0000 C   0  0  0  0  0  0  0  0  0  0  0  0
    0.5162    1.6271    0.0000 O   0  0  0  0  0  0  0  0  0  0  0  0
   -1.4737    3.2975    0.0000 C   0  0  0  0  0  0  0  0  0  0  0  0
   -0.9604    4.7070    0.0000 H   0  0  0  0  0  0  0  0  0  0  0  0
   -2.7726    4.0478    0.0000 H   0  0  0  0  0  0  0  0  0  0  0  0
   -2.4381    2.1487    0.0000 O   0  0  0  0  0  0  0  0  0  0  0  0
   -3.9153    2.4095    0.0000 C   0  0  0  0  0  0  0  0  0  0  0  0
   -4.4280    3.8191    0.0000 O   0  0  0  0  0  0  0  0  0  0  0  0
   -4.8797    1.2606    0.0000 C   0  0  0  0  0  0  0  0  0  0  0  0
   -5.3930   -0.1488    0.0000 H   0  0  0  0  0  0  0  0  0  0  0  0
   -3.5808    0.5103    0.0000 H   0  0  0  0  0  0  0  0  0  0  0  0
   -6.3568    1.5214    0.0000 C   0  0  0  0  0  0  0  0  0  0  0  0
   -6.3573    0.0206    0.0000 C   0  0  0  0  0  0  0  0  0  0  0  0
   -4.6426   -0.9694    0.0000 H   0  0  0  0  0  0  0  0  0  0  0  0
   -7.6568   -0.7303    0.0000 C   0  0  0  0  0  0  0  0  0  0  0  0
   -7.6566   -2.2303    0.0000 H   0  0  0  0  0  0  0  0  0  0  0  0
   -8.9559    0.0197    0.0000 C   0  0  0  0  0  0  0  0  0  0  0  0
  -10.2550   -0.7301    0.0000 O   0  0  0  0  0  0  0  0  0  0  0  0
   -8.9554    1.5206    0.0000 C   0  0  0  0  0  0  0  0  0  0  0  0
  -10.2544    2.2706    0.0000 H   0  0  0  0  0  0  0  0  0  0  0  0
   -7.6559    2.2714    0.0000 C   0  0  0  0  0  0  0  0  0  0  0  0
   -7.6561    3.7714    0.0000 H   0  0  0  0  0  0  0  0  0  0  0  0
   -5.8437    2.9309    0.0000 O   0  0  0  0  0  0  0  0  0  0  0  0
   -6.8077    4.0800    0.0000 H   0  0  0  0  0  0  0  0  0  0  0  0
  1  2  1  0  0  0  0 
  1  3  1  0  0  0  0 
  1  4  1  0  0  0  0 
  1  5  1  0  0  0  0 
  5  6  1  0  0  0  0 
  6  7  1  0  0  0  0 
  6  8  1  0  0  0  0 
  6  9  1  0  0  0  0 
  5 10  1  0  0  0  0 
 10 11  2  0  0  0  0 
 10 12  1  0  0  0  0 
 12 13  1  0  0  0  0 
 12 14  1  0  0  0  0 
 12 15  1  0  0  0  0 
 15 16  1  0  0  0  0 
 16 17  2  0  0  0  0 
 16 18  1  0  0  0  0 
 18 19  1  0  0  0  0 
 18 20  1  0  0  0  0 
 18 21  1  0  0  0  0 
 21 22  1  0  0  0  0 
 22 23  1  0  0  0  0 
 22 24  2  0  0  0  0 
 24 25  1  0  0  0  0 
 24 26  1  0  0  0  0 
 26 27  2  0  0  0  0 
 26 28  1  0  0  0  0 
 28 29  1  0  0  0  0 
 28 30  2  0  0  0  0 
 21 30  1  0  0  0  0 
 30 31  1  0  0  0  0 
 21 32  1  0  0  0  0 
 32 33  1  0  0  0  0 
M  END
> <Rank>
19

> <Priority_score>
0.038400000000000004

> <Reaction_type>
oxidation of 4-substituted anisole to quinone (substituent not a leaving group)

> <Parent_ID>
29

> <Parent_InChI>
InChI=1S/C20H22N4O5/c1-24(2)17(25)12-28-18(26)11-13-3-9-16(10-4-13)29-19(27)14-5-7-15(8-6-14)23-20(21)22/h3-10H,11-12H2,1-2H3,(H4,21,22,23)

> <Parent_SMILES>
CN(C)C(=O)COC(=O)Cc1ccc(OC(=O)c2ccc(NC(=N)N)cc2)cc1

$$$$
Molecule 29_metabolite 21
  CDK     0516241031

 50 51  0  0  0  0  0  0  0  0999 V2000
  -10.8951    0.2460    0.0000 C   0  0  0  0  0  0  0  0  0  0  0  0
  -12.1978   -0.4976    0.0000 H   0  0  0  0  0  0  0  0  0  0  0  0
   -9.5998   -0.5103    0.0000 H   0  0  0  0  0  0  0  0  0  0  0  0
  -10.8877    1.7460    0.0000 N   0  0  0  0  0  0  0  0  0  0  0  0
  -12.1831    2.5024    0.0000 C   0  0  0  0  0  0  0  0  0  0  0  0
  -13.4858    1.7588    0.0000 H   0  0  0  0  0  0  0  0  0  0  0  0
  -11.2132    3.6467    0.0000 H   0  0  0  0  0  0  0  0  0  0  0  0
  -13.1416    3.6562    0.0000 H   0  0  0  0  0  0  0  0  0  0  0  0
   -9.5850    2.4896    0.0000 C   0  0  0  0  0  0  0  0  0  0  0  0
   -9.5776    3.9896    0.0000 O   0  0  0  0  0  0  0  0  0  0  0  0
   -8.2897    1.7332    0.0000 C   0  0  0  0  0  0  0  0  0  0  0  0
   -9.2595    0.5889    0.0000 H   0  0  0  0  0  0  0  0  0  0  0  0
   -7.3312    0.5794    0.0000 H   0  0  0  0  0  0  0  0  0  0  0  0
   -6.9870    2.4768    0.0000 O   0  0  0  0  0  0  0  0  0  0  0  0
   -5.6916    1.7204    0.0000 C   0  0  0  0  0  0  0  0  0  0  0  0
   -5.6990    0.2205    0.0000 O   0  0  0  0  0  0  0  0  0  0  0  0
   -4.3889    2.4640    0.0000 C   0  0  0  0  0  0  0  0  0  0  0  0
   -3.4191    3.6084    0.0000 H   0  0  0  0  0  0  0  0  0  0  0  0
   -5.3474    3.6178    0.0000 H   0  0  0  0  0  0  0  0  0  0  0  0
   -3.0936    1.7077    0.0000 C   0  0  0  0  0  0  0  0  0  0  0  0
   -1.7946    2.4577    0.0000 C   0  0  0  0  0  0  0  0  0  0  0  0
   -1.8019    3.9576    0.0000 H   0  0  0  0  0  0  0  0  0  0  0  0
   -0.5100    1.7328    0.0000 C   0  0  0  0  0  0  0  0  0  0  0  0
    0.7790    2.4999    0.0000 H   0  0  0  0  0  0  0  0  0  0  0  0
   -0.4846    0.1887    0.0000 C   0  0  0  0  0  0  0  0  0  0  0  0
   -1.7836   -0.5613    0.0000 C   0  0  0  0  0  0  0  0  0  0  0  0
   -1.7960   -2.0613    0.0000 H   0  0  0  0  0  0  0  0  0  0  0  0
   -3.1081    0.2328    0.0000 C   0  0  0  0  0  0  0  0  0  0  0  0
   -4.4169   -0.5000    0.0000 H   0  0  0  0  0  0  0  0  0  0  0  0
    0.8206   -0.5506    0.0000 O   0  0  0  0  0  0  0  0  0  0  0  0
    2.1134    0.2101    0.0000 C   0  0  0  0  0  0  0  0  0  0  0  0
    2.1011    1.7101    0.0000 O   0  0  0  0  0  0  0  0  0  0  0  0
    3.4186   -0.5292    0.0000 C   0  0  0  0  0  0  0  0  0  0  0  0
    3.4312   -2.0291    0.0000 C   0  0  0  0  0  0  0  0  0  0  0  0
    2.1387   -2.7902    0.0000 H   0  0  0  0  0  0  0  0  0  0  0  0
    4.7375   -2.7681    0.0000 C   0  0  0  0  0  0  0  0  0  0  0  0
    4.7501   -4.2681    0.0000 H   0  0  0  0  0  0  0  0  0  0  0  0
    6.0311   -2.0072    0.0000 C   0  0  0  0  0  0  0  0  0  0  0  0
    6.0185   -0.5073    0.0000 C   0  0  0  0  0  0  0  0  0  0  0  0
    7.3111    0.2538    0.0000 H   0  0  0  0  0  0  0  0  0  0  0  0
    4.7123    0.2318    0.0000 C   0  0  0  0  0  0  0  0  0  0  0  0
    4.6996    1.7317    0.0000 H   0  0  0  0  0  0  0  0  0  0  0  0
    7.3363   -2.7465    0.0000 N   0  0  0  0  0  0  0  0  0  0  0  0
    7.3487   -4.2464    0.0000 H   0  0  0  0  0  0  0  0  0  0  0  0
    8.6291   -1.9858    0.0000 C   0  0  0  0  0  0  0  0  0  0  0  0
    8.6168   -0.4858    0.0000 N   0  0  0  0  0  0  0  0  0  0  0  0
    9.9096    0.2748    0.0000 H   0  0  0  0  0  0  0  0  0  0  0  0
    9.9343   -2.7251    0.0000 N   0  0  0  0  0  0  0  0  0  0  0  0
   11.2271   -1.9644    0.0000 H   0  0  0  0  0  0  0  0  0  0  0  0
    9.9467   -4.2250    0.0000 H   0  0  0  0  0  0  0  0  0  0  0  0
  1  2  1  0  0  0  0 
  1  3  1  0  0  0  0 
  1  4  2  0  0  0  0 
  4  5  1  0  0  0  0 
  5  6  1  0  0  0  0 
  5  7  1  0  0  0  0 
  5  8  1  0  0  0  0 
  4  9  1  0  0  0  0 
  9 10  2  0  0  0  0 
  9 11  1  0  0  0  0 
 11 12  1  0  0  0  0 
 11 13  1  0  0  0  0 
 11 14  1  0  0  0  0 
 14 15  1  0  0  0  0 
 15 16  2  0  0  0  0 
 15 17  1  0  0  0  0 
 17 18  1  0  0  0  0 
 17 19  1  0  0  0  0 
 17 20  1  0  0  0  0 
 20 21  2  0  0  0  0 
 21 22  1  0  0  0  0 
 21 23  1  0  0  0  0 
 23 24  1  0  0  0  0 
 23 25  2  0  0  0  0 
 25 26  1  0  0  0  0 
 26 27  1  0  0  0  0 
 26 28  2  0  0  0  0 
 20 28  1  0  0  0  0 
 28 29  1  0  0  0  0 
 25 30  1  0  0  0  0 
 30 31  1  0  0  0  0 
 31 32  2  0  0  0  0 
 31 33  1  0  0  0  0 
 33 34  2  0  0  0  0 
 34 35  1  0  0  0  0 
 34 36  1  0  0  0  0 
 36 37  1  0  0  0  0 
 36 38  2  0  0  0  0 
 38 39  1  0  0  0  0 
 39 40  1  0  0  0  0 
 39 41  2  0  0  0  0 
 33 41  1  0  0  0  0 
 41 42  1  0  0  0  0 
 38 43  1  0  0  0  0 
 43 44  1  0  0  0  0 
 43 45  1  0  0  0  0 
 45 46  2  0  0  0  0 
 46 47  1  4  0  0  0 
 45 48  1  0  0  0  0 
 48 49  1  0  0  0  0 
 48 50  1  0  0  0  0 
M  CHG  1   4   1
M  END
> <Rank>
21

> <Priority_score>
0.033600000000000005

> <Reaction_type>
dehydration of N-C bond

> <Parent_ID>
29

> <Parent_InChI>
InChI=1S/C20H22N4O5/c1-24(2)17(25)12-28-18(26)11-13-3-9-16(10-4-13)29-19(27)14-5-7-15(8-6-14)23-20(21)22/h3-10H,11-12H2,1-2H3,(H4,21,22,23)

> <Parent_SMILES>
CN(C)C(=O)COC(=O)Cc1ccc(OC(=O)c2ccc(NC(=N)N)cc2)cc1

$$$$
Molecule 29_metabolite 22
  CDK     0516241031

 52 53  0  0  0  0  0  0  0  0999 V2000
  -12.1886    2.4928    0.0000 C   0  0  0  0  0  0  0  0  0  0  0  0
  -13.4913    1.7492    0.0000 H   0  0  0  0  0  0  0  0  0  0  0  0
  -11.2188    3.6371    0.0000 H   0  0  0  0  0  0  0  0  0  0  0  0
  -13.1471    3.6466    0.0000 H   0  0  0  0  0  0  0  0  0  0  0  0
  -10.8933    1.7364    0.0000 N   0  0  0  0  0  0  0  0  0  0  0  0
  -10.9006    0.2364    0.0000 C   0  0  0  0  0  0  0  0  0  0  0  0
   -9.6053   -0.5199    0.0000 H   0  0  0  0  0  0  0  0  0  0  0  0
  -11.4206   -1.1705    0.0000 H   0  0  0  0  0  0  0  0  0  0  0  0
  -12.3766    0.5042    0.0000 H   0  0  0  0  0  0  0  0  0  0  0  0
   -9.5905    2.4800    0.0000 C   0  0  0  0  0  0  0  0  0  0  0  0
   -9.5832    3.9800    0.0000 O   0  0  0  0  0  0  0  0  0  0  0  0
   -8.2952    1.7236    0.0000 C   0  0  0  0  0  0  0  0  0  0  0  0
   -9.2650    0.5793    0.0000 H   0  0  0  0  0  0  0  0  0  0  0  0
   -7.3367    0.5698    0.0000 H   0  0  0  0  0  0  0  0  0  0  0  0
   -6.9925    2.4672    0.0000 O   0  0  0  0  0  0  0  0  0  0  0  0
   -5.6972    1.7109    0.0000 C   0  0  0  0  0  0  0  0  0  0  0  0
   -5.7046    0.2109    0.0000 O   0  0  0  0  0  0  0  0  0  0  0  0
   -4.3945    2.4545    0.0000 C   0  0  0  0  0  0  0  0  0  0  0  0
   -3.4246    3.5988    0.0000 H   0  0  0  0  0  0  0  0  0  0  0  0
   -5.3530    3.6083    0.0000 H   0  0  0  0  0  0  0  0  0  0  0  0
   -3.0991    1.6981    0.0000 C   0  0  0  0  0  0  0  0  0  0  0  0
   -1.8001    2.4481    0.0000 C   0  0  0  0  0  0  0  0  0  0  0  0
   -1.8075    3.9480    0.0000 H   0  0  0  0  0  0  0  0  0  0  0  0
   -0.5156    1.7232    0.0000 C   0  0  0  0  0  0  0  0  0  0  0  0
    0.7735    2.4903    0.0000 H   0  0  0  0  0  0  0  0  0  0  0  0
   -0.4901    0.1791    0.0000 C   0  0  0  0  0  0  0  0  0  0  0  0
   -1.7891   -0.5709    0.0000 C   0  0  0  0  0  0  0  0  0  0  0  0
   -1.8015   -2.0709    0.0000 H   0  0  0  0  0  0  0  0  0  0  0  0
   -3.1136    0.2232    0.0000 C   0  0  0  0  0  0  0  0  0  0  0  0
   -4.4224   -0.5096    0.0000 H   0  0  0  0  0  0  0  0  0  0  0  0
    0.8151   -0.5602    0.0000 O   0  0  0  0  0  0  0  0  0  0  0  0
    2.1079    0.2005    0.0000 C   0  0  0  0  0  0  0  0  0  0  0  0
    2.0955    1.7005    0.0000 O   0  0  0  0  0  0  0  0  0  0  0  0
    3.4131   -0.5387    0.0000 C   0  0  0  0  0  0  0  0  0  0  0  0
    4.7067    0.2222    0.0000 C   0  0  0  0  0  0  0  0  0  0  0  0
    4.6941    1.7221    0.0000 H   0  0  0  0  0  0  0  0  0  0  0  0
    6.0130   -0.5169    0.0000 C   0  0  0  0  0  0  0  0  0  0  0  0
    7.3056    0.2442    0.0000 H   0  0  0  0  0  0  0  0  0  0  0  0
    6.0256   -2.0168    0.0000 C   0  0  0  0  0  0  0  0  0  0  0  0
    4.7320   -2.7777    0.0000 C   0  0  0  0  0  0  0  0  0  0  0  0
    4.7446   -4.2777    0.0000 H   0  0  0  0  0  0  0  0  0  0  0  0
    3.4257   -2.0387    0.0000 C   0  0  0  0  0  0  0  0  0  0  0  0
    2.1331   -2.7998    0.0000 O   0  0  0  0  0  0  0  0  0  0  0  0
    2.1460   -4.2997    0.0000 H   0  0  0  0  0  0  0  0  0  0  0  0
    7.3308   -2.7561    0.0000 N   0  0  0  0  0  0  0  0  0  0  0  0
    7.3432   -4.2560    0.0000 H   0  0  0  0  0  0  0  0  0  0  0  0
    8.6236   -1.9954    0.0000 C   0  0  0  0  0  0  0  0  0  0  0  0
    8.6112   -0.4954    0.0000 N   0  0  0  0  0  0  0  0  0  0  0  0
    9.9040    0.2653    0.0000 H   0  0  0  0  0  0  0  0  0  0  0  0
    9.9288   -2.7346    0.0000 N   0  0  0  0  0  0  0  0  0  0  0  0
   11.2216   -1.9740    0.0000 H   0  0  0  0  0  0  0  0  0  0  0  0
    9.9411   -4.2346    0.0000 H   0  0  0  0  0  0  0  0  0  0  0  0
  1  2  1  0  0  0  0 
  1  3  1  0  0  0  0 
  1  4  1  0  0  0  0 
  1  5  1  0  0  0  0 
  5  6  1  0  0  0  0 
  6  7  1  0  0  0  0 
  6  8  1  0  0  0  0 
  6  9  1  0  0  0  0 
  5 10  1  0  0  0  0 
 10 11  2  0  0  0  0 
 10 12  1  0  0  0  0 
 12 13  1  0  0  0  0 
 12 14  1  0  0  0  0 
 12 15  1  0  0  0  0 
 15 16  1  0  0  0  0 
 16 17  2  0  0  0  0 
 16 18  1  0  0  0  0 
 18 19  1  0  0  0  0 
 18 20  1  0  0  0  0 
 18 21  1  0  0  0  0 
 21 22  2  0  0  0  0 
 22 23  1  0  0  0  0 
 22 24  1  0  0  0  0 
 24 25  1  0  0  0  0 
 24 26  2  0  0  0  0 
 26 27  1  0  0  0  0 
 27 28  1  0  0  0  0 
 27 29  2  0  0  0  0 
 21 29  1  0  0  0  0 
 29 30  1  0  0  0  0 
 26 31  1  0  0  0  0 
 31 32  1  0  0  0  0 
 32 33  2  0  0  0  0 
 32 34  1  0  0  0  0 
 34 35  2  0  0  0  0 
 35 36  1  0  0  0  0 
 35 37  1  0  0  0  0 
 37 38  1  0  0  0  0 
 37 39  2  0  0  0  0 
 39 40  1  0  0  0  0 
 40 41  1  0  0  0  0 
 40 42  2  0  0  0  0 
 34 42  1  0  0  0  0 
 42 43  1  0  0  0  0 
 43 44  1  0  0  0  0 
 39 45  1  0  0  0  0 
 45 46  1  0  0  0  0 
 45 47  1  0  0  0  0 
 47 48  2  0  0  0  0 
 48 49  1  4  0  0  0 
 47 50  1  0  0  0  0 
 50 51  1  0  0  0  0 
 50 52  1  0  0  0  0 
M  END
> <Rank>
22

> <Priority_score>
0.032

> <Reaction_type>
aromatic hydroxylation

> <Parent_ID>
29

> <Parent_InChI>
InChI=1S/C20H22N4O5/c1-24(2)17(25)12-28-18(26)11-13-3-9-16(10-4-13)29-19(27)14-5-7-15(8-6-14)23-20(21)22/h3-10H,11-12H2,1-2H3,(H4,21,22,23)

> <Parent_SMILES>
CN(C)C(=O)COC(=O)Cc1ccc(OC(=O)c2ccc(NC(=N)N)cc2)cc1

$$$$
Molecule 29_metabolite 23
  CDK     0516241031

 52 53  0  0  0  0  0  0  0  0999 V2000
   11.6940   -3.7517    0.0000 C   0  0  0  0  0  0  0  0  0  0  0  0
   12.9931   -3.0019    0.0000 H   0  0  0  0  0  0  0  0  0  0  0  0
   10.7296   -4.9006    0.0000 H   0  0  0  0  0  0  0  0  0  0  0  0
   12.6580   -4.9009    0.0000 H   0  0  0  0  0  0  0  0  0  0  0  0
   10.3951   -3.0015    0.0000 N   0  0  0  0  0  0  0  0  0  0  0  0
   10.3953   -1.5015    0.0000 C   0  0  0  0  0  0  0  0  0  0  0  0
    9.0964   -0.7512    0.0000 H   0  0  0  0  0  0  0  0  0  0  0  0
   10.9086   -0.0920    0.0000 H   0  0  0  0  0  0  0  0  0  0  0  0
   11.8725   -1.7622    0.0000 H   0  0  0  0  0  0  0  0  0  0  0  0
    9.0959   -3.7512    0.0000 C   0  0  0  0  0  0  0  0  0  0  0  0
    9.0957   -5.2512    0.0000 O   0  0  0  0  0  0  0  0  0  0  0  0
    7.7970   -3.0010    0.0000 C   0  0  0  0  0  0  0  0  0  0  0  0
    8.7614   -1.8521    0.0000 H   0  0  0  0  0  0  0  0  0  0  0  0
    6.8330   -1.8518    0.0000 H   0  0  0  0  0  0  0  0  0  0  0  0
    6.4978   -3.7508    0.0000 O   0  0  0  0  0  0  0  0  0  0  0  0
    5.1989   -3.0006    0.0000 C   0  0  0  0  0  0  0  0  0  0  0  0
    5.1992   -1.5006    0.0000 O   0  0  0  0  0  0  0  0  0  0  0  0
    3.8998   -3.7504    0.0000 C   0  0  0  0  0  0  0  0  0  0  0  0
    2.9354   -4.8993    0.0000 H   0  0  0  0  0  0  0  0  0  0  0  0
    4.8638   -4.8996    0.0000 H   0  0  0  0  0  0  0  0  0  0  0  0
    2.6008   -3.0002    0.0000 C   0  0  0  0  0  0  0  0  0  0  0  0
    1.3008   -3.7502    0.0000 C   0  0  0  0  0  0  0  0  0  0  0  0
    1.3008   -5.2502    0.0000 H   0  0  0  0  0  0  0  0  0  0  0  0
    0.0008   -3.0002    0.0000 C   0  0  0  0  0  0  0  0  0  0  0  0
   -1.2981   -3.7504    0.0000 H   0  0  0  0  0  0  0  0  0  0  0  0
    0.0008   -1.5002    0.0000 C   0  0  0  0  0  0  0  0  0  0  0  0
    1.3008   -0.7502    0.0000 C   0  0  0  0  0  0  0  0  0  0  0  0
    1.3008    0.7498    0.0000 H   0  0  0  0  0  0  0  0  0  0  0  0
    2.6008   -1.5002    0.0000 C   0  0  0  0  0  0  0  0  0  0  0  0
    3.8998   -0.7500    0.0000 O   0  0  0  0  0  0  0  0  0  0  0  0
    3.8995    0.7500    0.0000 H   0  0  0  0  0  0  0  0  0  0  0  0
   -1.2981   -0.7500    0.0000 O   0  0  0  0  0  0  0  0  0  0  0  0
   -2.5972   -1.4998    0.0000 C   0  0  0  0  0  0  0  0  0  0  0  0
   -2.5975   -2.9998    0.0000 O   0  0  0  0  0  0  0  0  0  0  0  0
   -3.8962   -0.7496    0.0000 C   0  0  0  0  0  0  0  0  0  0  0  0
   -3.8962    0.7504    0.0000 C   0  0  0  0  0  0  0  0  0  0  0  0
   -2.5972    1.5006    0.0000 H   0  0  0  0  0  0  0  0  0  0  0  0
   -5.1962    1.5004    0.0000 C   0  0  0  0  0  0  0  0  0  0  0  0
   -5.1962    3.0004    0.0000 H   0  0  0  0  0  0  0  0  0  0  0  0
   -6.4962    0.7504    0.0000 C   0  0  0  0  0  0  0  0  0  0  0  0
   -6.4962   -0.7496    0.0000 C   0  0  0  0  0  0  0  0  0  0  0  0
   -7.7951   -1.4998    0.0000 H   0  0  0  0  0  0  0  0  0  0  0  0
   -5.1962   -1.4996    0.0000 C   0  0  0  0  0  0  0  0  0  0  0  0
   -5.1962   -2.9996    0.0000 H   0  0  0  0  0  0  0  0  0  0  0  0
   -7.7951    1.5006    0.0000 N   0  0  0  0  0  0  0  0  0  0  0  0
   -7.7948    3.0006    0.0000 H   0  0  0  0  0  0  0  0  0  0  0  0
   -9.0942    0.7508    0.0000 C   0  0  0  0  0  0  0  0  0  0  0  0
   -9.0945   -0.7492    0.0000 N   0  0  0  0  0  0  0  0  0  0  0  0
  -10.3936   -1.4990    0.0000 H   0  0  0  0  0  0  0  0  0  0  0  0
  -10.3931    1.5010    0.0000 N   0  0  0  0  0  0  0  0  0  0  0  0
  -11.6923    0.7512    0.0000 H   0  0  0  0  0  0  0  0  0  0  0  0
  -10.3929    3.0010    0.0000 H   0  0  0  0  0  0  0  0  0  0  0  0
  1  2  1  0  0  0  0 
  1  3  1  0  0  0  0 
  1  4  1  0  0  0  0 
  1  5  1  0  0  0  0 
  5  6  1  0  0  0  0 
  6  7  1  0  0  0  0 
  6  8  1  0  0  0  0 
  6  9  1  0  0  0  0 
  5 10  1  0  0  0  0 
 10 11  2  0  0  0  0 
 10 12  1  0  0  0  0 
 12 13  1  0  0  0  0 
 12 14  1  0  0  0  0 
 12 15  1  0  0  0  0 
 15 16  1  0  0  0  0 
 16 17  2  0  0  0  0 
 16 18  1  0  0  0  0 
 18 19  1  0  0  0  0 
 18 20  1  0  0  0  0 
 18 21  1  0  0  0  0 
 21 22  2  0  0  0  0 
 22 23  1  0  0  0  0 
 22 24  1  0  0  0  0 
 24 25  1  0  0  0  0 
 24 26  2  0  0  0  0 
 26 27  1  0  0  0  0 
 27 28  1  0  0  0  0 
 27 29  2  0  0  0  0 
 21 29  1  0  0  0  0 
 29 30  1  0  0  0  0 
 30 31  1  0  0  0  0 
 26 32  1  0  0  0  0 
 32 33  1  0  0  0  0 
 33 34  2  0  0  0  0 
 33 35  1  0  0  0  0 
 35 36  2  0  0  0  0 
 36 37  1  0  0  0  0 
 36 38  1  0  0  0  0 
 38 39  1  0  0  0  0 
 38 40  2  0  0  0  0 
 40 41  1  0  0  0  0 
 41 42  1  0  0  0  0 
 41 43  2  0  0  0  0 
 35 43  1  0  0  0  0 
 43 44  1  0  0  0  0 
 40 45  1  0  0  0  0 
 45 46  1  0  0  0  0 
 45 47  1  0  0  0  0 
 47 48  2  0  0  0  0 
 48 49  1  4  0  0  0 
 47 50  1  0  0  0  0 
 50 51  1  0  0  0  0 
 50 52  1  0  0  0  0 
M  END
> <Rank>
23

> <Priority_score>
0.016

> <Reaction_type>
aromatic hydroxylation

> <Parent_ID>
29

> <Parent_InChI>
InChI=1S/C20H22N4O5/c1-24(2)17(25)12-28-18(26)11-13-3-9-16(10-4-13)29-19(27)14-5-7-15(8-6-14)23-20(21)22/h3-10H,11-12H2,1-2H3,(H4,21,22,23)

> <Parent_SMILES>
CN(C)C(=O)COC(=O)Cc1ccc(OC(=O)c2ccc(NC(=N)N)cc2)cc1

$$$$
Molecule 30
  CDK     0516241031

 21 23  0  0  0  0  0  0  0  0999 V2000
    2.5981   -7.1400    0.0000 C   0  0  0  0  0  0  0  0  0  0  0  0
    2.5981   -5.6400    0.0000 N   0  0  0  0  0  0  0  0  0  0  0  0
    3.8971   -4.8900    0.0000 C   0  0  0  0  0  0  0  0  0  0  0  0
    1.2990   -4.8900    0.0000 C   0  0  0  0  0  0  0  0  0  0  0  0
    1.2990   -3.3900    0.0000 C   0  0  0  0  0  0  0  0  0  0  0  0
   -0.0000   -2.6400    0.0000 C   0  0  0  0  0  0  0  0  0  0  0  0
    0.0000   -1.1400    0.0000 N   0  0  0  0  0  0  0  0  0  0  0  0
    1.3500   -0.4900    0.0000 C   0  0  0  0  0  0  0  0  0  0  0  0
    1.6900    0.9800    0.0000 C   0  0  0  0  0  0  0  0  0  0  0  0
    3.1200    1.4200    0.0000 C   0  0  0  0  0  0  0  0  0  0  0  0
    4.2200    0.4000    0.0000 C   0  0  0  0  0  0  0  0  0  0  0  0
    3.8800   -1.0600    0.0000 C   0  0  0  0  0  0  0  0  0  0  0  0
    2.4500   -1.5100    0.0000 C   0  0  0  0  0  0  0  0  0  0  0  0
    0.7500    2.1500    0.0000 C   0  0  0  0  0  0  0  0  0  0  0  0
   -0.7500    2.1500    0.0000 C   0  0  0  0  0  0  0  0  0  0  0  0
   -1.6900    0.9800    0.0000 C   0  0  0  0  0  0  0  0  0  0  0  0
   -1.3500   -0.4900    0.0000 C   0  0  0  0  0  0  0  0  0  0  0  0
   -2.4500   -1.5100    0.0000 C   0  0  0  0  0  0  0  0  0  0  0  0
   -3.8800   -1.0600    0.0000 C   0  0  0  0  0  0  0  0  0  0  0  0
   -4.2200    0.4000    0.0000 C   0  0  0  0  0  0  0  0  0  0  0  0
   -3.1200    1.4200    0.0000 C   0  0  0  0  0  0  0  0  0  0  0  0
  1  2  1  0  0  0  0 
  2  3  1  0  0  0  0 
  2  4  1  0  0  0  0 
  4  5  1  0  0  0  0 
  5  6  1  0  0  0  0 
  6  7  1  0  0  0  0 
  7  8  1  0  0  0  0 
  8  9  2  0  0  0  0 
  9 10  1  0  0  0  0 
 10 11  2  0  0  0  0 
 11 12  1  0  0  0  0 
 12 13  2  0  0  0  0 
  8 13  1  0  0  0  0 
  9 14  1  0  0  0  0 
 14 15  1  0  0  0  0 
 15 16  1  0  0  0  0 
 16 17  2  0  0  0  0 
  7 17  1  0  0  0  0 
 17 18  1  0  0  0  0 
 18 19  2  0  0  0  0 
 19 20  1  0  0  0  0 
 20 21  2  0  0  0  0 
 16 21  1  0  0  0  0 
M  END
> <SMILES>
CN(C)CCCN1c2ccccc2CCc2ccccc21

$$$$
Molecule 30_metabolite 1
  CDK     0516241031

 66 69  0  0  0  0  0  0  0  0999 V2000
    2.4809   -9.2196    0.0000 C   0  0  0  0  0  0  0  0  0  0  0  0
    1.1819   -9.9696    0.0000 H   0  0  0  0  0  0  0  0  0  0  0  0
    3.9582   -8.9591    0.0000 H   0  0  0  0  0  0  0  0  0  0  0  0
    2.9940  -10.6292    0.0000 H   0  0  0  0  0  0  0  0  0  0  0  0
    2.4809   -6.7596    0.0000 N   0  0  0  0  0  0  0  0  0  0  0  0
    3.9582   -7.0201    0.0000 C   0  0  0  0  0  0  0  0  0  0  0  0
    4.7995   -9.3317    0.0000 H   0  0  0  0  0  0  0  0  0  0  0  0
    5.4354   -6.7596    0.0000 H   0  0  0  0  0  0  0  0  0  0  0  0
    3.9582   -5.5201    0.0000 H   0  0  0  0  0  0  0  0  0  0  0  0
    0.3505   -5.5296    0.0000 C   0  0  0  0  0  0  0  0  0  0  0  0
   -1.1267   -5.2691    0.0000 H   0  0  0  0  0  0  0  0  0  0  0  0
   -0.1625   -6.9392    0.0000 H   0  0  0  0  0  0  0  0  0  0  0  0
    0.3505   -4.0296    0.0000 C   0  0  0  0  0  0  0  0  0  0  0  0
    1.8277   -4.2901    0.0000 H   0  0  0  0  0  0  0  0  0  0  0  0
    0.8635   -2.6201    0.0000 H   0  0  0  0  0  0  0  0  0  0  0  0
   -2.1956   -2.5596    0.0000 C   0  0  0  0  0  0  0  0  0  0  0  0
   -3.1598   -1.4106    0.0000 H   0  0  0  0  0  0  0  0  0  0  0  0
   -1.2314   -1.4106    0.0000 H   0  0  0  0  0  0  0  0  0  0  0  0
   -3.9103   -3.5496    0.0000 N   0  0  0  0  0  0  0  0  0  0  0  0
   -3.7982   -5.0438    0.0000 C   0  0  0  0  0  0  0  0  0  0  0  0
   -4.9013   -6.0732    0.0000 C   0  0  0  0  0  0  0  0  0  0  0  0
   -4.5674   -7.5316    0.0000 C   0  0  0  0  0  0  0  0  0  0  0  0
   -5.6667   -8.5521    0.0000 H   0  0  0  0  0  0  0  0  0  0  0  0
   -3.1340   -7.9742    0.0000 C   0  0  0  0  0  0  0  0  0  0  0  0
   -2.7972   -9.4360    0.0000 H   0  0  0  0  0  0  0  0  0  0  0  0
   -2.0396   -6.9498    0.0000 C   0  0  0  0  0  0  0  0  0  0  0  0
   -0.8445   -7.8563    0.0000 H   0  0  0  0  0  0  0  0  0  0  0  0
   -2.3649   -5.4864    0.0000 C   0  0  0  0  0  0  0  0  0  0  0  0
   -1.2623   -4.4694    0.0000 H   0  0  0  0  0  0  0  0  0  0  0  0
   -6.3845   -5.8441    0.0000 C   0  0  0  0  0  0  0  0  0  0  0  0
   -6.2761   -7.3402    0.0000 H   0  0  0  0  0  0  0  0  0  0  0  0
   -7.8184   -6.2845    0.0000 H   0  0  0  0  0  0  0  0  0  0  0  0
   -7.1345   -4.5451    0.0000 C   0  0  0  0  0  0  0  0  0  0  0  0
   -8.2329   -5.5667    0.0000 H   0  0  0  0  0  0  0  0  0  0  0  0
   -8.3759   -3.7031    0.0000 H   0  0  0  0  0  0  0  0  0  0  0  0
   -6.5913   -3.1460    0.0000 C   0  0  0  0  0  0  0  0  0  0  0  0
   -5.1482   -2.7055    0.0000 C   0  0  0  0  0  0  0  0  0  0  0  0
   -4.8149   -1.2429    0.0000 C   0  0  0  0  0  0  0  0  0  0  0  0
   -2.0081   -0.3679    0.0000 H   0  0  0  0  0  0  0  0  0  0  0  0
   -5.9196   -0.2294    0.0000 C   0  0  0  0  0  0  0  0  0  0  0  0
   -5.5868    1.2332    0.0000 H   0  0  0  0  0  0  0  0  0  0  0  0
   -7.3540   -0.6650    0.0000 C   0  0  0  0  0  0  0  0  0  0  0  0
   -8.4515    0.3575    0.0000 H   0  0  0  0  0  0  0  0  0  0  0  0
   -7.6874   -2.1276    0.0000 C   0  0  0  0  0  0  0  0  0  0  0  0
   -9.1208   -2.5695    0.0000 H   0  0  0  0  0  0  0  0  0  0  0  0
    3.9509   -4.2135    0.0000 C   0  0  0  0  0  0  0  0  0  0  0  0
    2.5415   -3.7003    0.0000 H   0  0  0  0  0  0  0  0  0  0  0  0
    4.2117   -2.7364    0.0000 C   0  0  0  0  0  0  0  0  0  0  0  0
    2.7117   -2.7359    0.0000 H   0  0  0  0  0  0  0  0  0  0  0  0
    5.6223   -2.2238    0.0000 C   0  0  0  0  0  0  0  0  0  0  0  0
    4.8727   -0.9245    0.0000 H   0  0  0  0  0  0  0  0  0  0  0  0
    6.7721   -3.1884    0.0000 C   0  0  0  0  0  0  0  0  0  0  0  0
    7.5221   -1.8893    0.0000 H   0  0  0  0  0  0  0  0  0  0  0  0
    6.5113   -4.6655    0.0000 C   0  0  0  0  0  0  0  0  0  0  0  0
    8.0113   -4.6660    0.0000 H   0  0  0  0  0  0  0  0  0  0  0  0
    6.9375   -7.0883    0.0000 C   0  0  0  0  0  0  0  0  0  0  0  0
    5.7880   -8.0520    0.0000 O   0  0  0  0  0  0  0  0  0  0  0  0
    8.3468   -7.6020    0.0000 O   0  0  0  0  0  0  0  0  0  0  0  0
    8.6066   -9.0793    0.0000 H   0  0  0  0  0  0  0  0  0  0  0  0
    5.1007   -5.1781    0.0000 O   0  0  0  0  0  0  0  0  0  0  0  0
    8.1816   -3.7016    0.0000 O   0  0  0  0  0  0  0  0  0  0  0  0
    9.3308   -2.7375    0.0000 H   0  0  0  0  0  0  0  0  0  0  0  0
    6.7715   -1.2597    0.0000 O   0  0  0  0  0  0  0  0  0  0  0  0
    6.5112    0.2175    0.0000 H   0  0  0  0  0  0  0  0  0  0  0  0
    3.7856   -0.3135    0.0000 O   0  0  0  0  0  0  0  0  0  0  0  0
    4.9351    0.6501    0.0000 H   0  0  0  0  0  0  0  0  0  0  0  0
  1  2  1  0  0  0  0 
  1  3  1  0  0  0  0 
  1  4  1  0  0  0  0 
  1  5  1  0  0  0  0 
  5  6  1  0  0  0  0 
  6  7  1  0  0  0  0 
  6  8  1  0  0  0  0 
  6  9  1  0  0  0  0 
  5 10  1  0  0  0  0 
 10 11  1  0  0  0  0 
 10 12  1  0  0  0  0 
 10 13  1  0  0  0  0 
 13 14  1  0  0  0  0 
 13 15  1  0  0  0  0 
 13 16  1  0  0  0  0 
 16 17  1  0  0  0  0 
 16 18  1  0  0  0  0 
 16 19  1  0  0  0  0 
 19 20  1  0  0  0  0 
 20 21  2  0  0  0  0 
 21 22  1  0  0  0  0 
 22 23  1  0  0  0  0 
 22 24  2  0  0  0  0 
 24 25  1  0  0  0  0 
 24 26  1  0  0  0  0 
 26 27  1  0  0  0  0 
 26 28  2  0  0  0  0 
 20 28  1  0  0  0  0 
 28 29  1  0  0  0  0 
 21 30  1  0  0  0  0 
 30 31  1  0  0  0  0 
 30 32  1  0  0  0  0 
 30 33  1  0  0  0  0 
 33 34  1  0  0  0  0 
 33 35  1  0  0  0  0 
 33 36  1  0  0  0  0 
 36 37  2  0  0  0  0 
 19 37  1  0  0  0  0 
 37 38  1  0  0  0  0 
 38 39  1  0  0  0  0 
 38 40  2  0  0  0  0 
 40 41  1  0  0  0  0 
 40 42  1  0  0  0  0 
 42 43  1  0  0  0  0 
 42 44  2  0  0  0  0 
 36 44  1  0  0  0  0 
 44 45  1  0  0  0  0 
  5 46  1  0  0  0  0 
 46 47  1  0  0  0  0 
 46 48  1  0  0  0  0 
 48 49  1  0  0  0  0 
 48 50  1  0  0  0  0 
 50 51  1  0  0  0  0 
 50 52  1  0  0  0  0 
 52 53  1  0  0  0  0 
 52 54  1  0  0  0  0 
 54 55  1  0  0  0  0 
 54 56  1  0  0  0  0 
 56 57  2  0  0  0  0 
 56 58  1  0  0  0  0 
 58 59  1  0  0  0  0 
 54 60  1  0  0  0  0 
 46 60  1  0  0  0  0 
 52 61  1  0  0  0  0 
 61 62  1  0  0  0  0 
 50 63  1  0  0  0  0 
 63 64  1  0  0  0  0 
 48 65  1  0  0  0  0 
 65 66  1  0  0  0  0 
M  CHG  1   5   1
M  END
> <Rank>
1

> <Priority_score>
0.916

> <Reaction_type>
N-glucuronidation_(N(CH3)2)

> <Parent_ID>
30

> <Parent_InChI>
InChI=1S/C19H24N2/c1-20(2)14-7-15-21-18-10-5-3-8-16(18)12-13-17-9-4-6-11-19(17)21/h3-6,8-11H,7,12-15H2,1-2H3

> <Parent_SMILES>
CN(C)CCCN1c2ccccc2CCc2ccccc21

$$$$
Molecule 30_metabolite 2
  CDK     0516241031

 46 48  0  0  0  0  0  0  0  0999 V2000
   -4.5212   -6.8396    0.0000 C   0  0  0  0  0  0  0  0  0  0  0  0
   -3.9731   -8.2359    0.0000 H   0  0  0  0  0  0  0  0  0  0  0  0
   -5.5137   -5.7149    0.0000 H   0  0  0  0  0  0  0  0  0  0  0  0
   -5.8011   -7.6218    0.0000 H   0  0  0  0  0  0  0  0  0  0  0  0
   -3.5860   -5.6668    0.0000 N   0  0  0  0  0  0  0  0  0  0  0  0
   -4.3094   -3.8237    0.0000 C   0  0  0  0  0  0  0  0  0  0  0  0
   -3.3742   -2.6509    0.0000 H   0  0  0  0  0  0  0  0  0  0  0  0
   -5.3020   -2.6990    0.0000 H   0  0  0  0  0  0  0  0  0  0  0  0
   -5.5893   -4.6059    0.0000 H   0  0  0  0  0  0  0  0  0  0  0  0
   -2.1027   -5.8903    0.0000 C   0  0  0  0  0  0  0  0  0  0  0  0
   -0.7854   -6.6077    0.0000 H   0  0  0  0  0  0  0  0  0  0  0  0
   -2.5804   -7.3122    0.0000 H   0  0  0  0  0  0  0  0  0  0  0  0
   -0.8683   -4.3423    0.0000 C   0  0  0  0  0  0  0  0  0  0  0  0
    0.1243   -5.4669    0.0000 H   0  0  0  0  0  0  0  0  0  0  0  0
    1.2308   -3.0595    0.0000 H   0  0  0  0  0  0  0  0  0  0  0  0
   -1.4163   -2.9460    0.0000 C   0  0  0  0  0  0  0  0  0  0  0  0
   -2.4089   -1.8213    0.0000 H   0  0  0  0  0  0  0  0  0  0  0  0
   -2.6962   -3.7282    0.0000 H   0  0  0  0  0  0  0  0  0  0  0  0
    0.4167   -0.6473    0.0000 N   0  0  0  0  0  0  0  0  0  0  0  0
   -0.9333    0.0027    0.0000 C   0  0  0  0  0  0  0  0  0  0  0  0
   -1.2733    1.4627    0.0000 C   0  0  0  0  0  0  0  0  0  0  0  0
   -2.7033    1.9027    0.0000 C   0  0  0  0  0  0  0  0  0  0  0  0
   -3.0374    3.3650    0.0000 H   0  0  0  0  0  0  0  0  0  0  0  0
   -3.8033    0.8827    0.0000 C   0  0  0  0  0  0  0  0  0  0  0  0
   -5.2376    1.3219    0.0000 H   0  0  0  0  0  0  0  0  0  0  0  0
   -3.4633   -0.5773    0.0000 C   0  0  0  0  0  0  0  0  0  0  0  0
   -4.8440   -1.1635    0.0000 H   0  0  0  0  0  0  0  0  0  0  0  0
   -2.0333   -1.0173    0.0000 C   0  0  0  0  0  0  0  0  0  0  0  0
   -1.6992   -2.4797    0.0000 H   0  0  0  0  0  0  0  0  0  0  0  0
   -0.3333    2.6327    0.0000 C   0  0  0  0  0  0  0  0  0  0  0  0
    0.0022    4.0946    0.0000 H   0  0  0  0  0  0  0  0  0  0  0  0
   -1.6832    3.2867    0.0000 H   0  0  0  0  0  0  0  0  0  0  0  0
    1.1667    2.6327    0.0000 C   0  0  0  0  0  0  0  0  0  0  0  0
    2.5166    3.2867    0.0000 H   0  0  0  0  0  0  0  0  0  0  0  0
    0.8312    4.0946    0.0000 H   0  0  0  0  0  0  0  0  0  0  0  0
    2.1067    1.4627    0.0000 C   0  0  0  0  0  0  0  0  0  0  0  0
    1.7667    0.0027    0.0000 C   0  0  0  0  0  0  0  0  0  0  0  0
    2.8667   -1.0173    0.0000 C   0  0  0  0  0  0  0  0  0  0  0  0
    2.5326   -2.4797    0.0000 H   0  0  0  0  0  0  0  0  0  0  0  0
    4.2967   -0.5773    0.0000 C   0  0  0  0  0  0  0  0  0  0  0  0
    5.3937   -1.6004    0.0000 H   0  0  0  0  0  0  0  0  0  0  0  0
    4.6367    0.8827    0.0000 C   0  0  0  0  0  0  0  0  0  0  0  0
    6.0710    1.3219    0.0000 H   0  0  0  0  0  0  0  0  0  0  0  0
    3.5367    1.9027    0.0000 C   0  0  0  0  0  0  0  0  0  0  0  0
    3.8708    3.3650    0.0000 H   0  0  0  0  0  0  0  0  0  0  0  0
    1.3519   -1.8201    0.0000 O   0  0  0  0  0  0  0  0  0  0  0  0
  1  2  1  0  0  0  0 
  1  3  1  0  0  0  0 
  1  4  1  0  0  0  0 
  1  5  1  0  0  0  0 
  5  6  1  0  0  0  0 
  6  7  1  0  0  0  0 
  6  8  1  0  0  0  0 
  6  9  1  0  0  0  0 
  5 10  1  0  0  0  0 
 10 11  1  0  0  0  0 
 10 12  1  0  0  0  0 
 10 13  1  0  0  0  0 
 13 14  1  0  0  0  0 
 13 15  1  0  0  0  0 
 13 16  1  0  0  0  0 
 16 17  1  0  0  0  0 
 16 18  1  0  0  0  0 
 16 19  1  0  0  0  0 
 19 20  1  0  0  0  0 
 20 21  2  0  0  0  0 
 21 22  1  0  0  0  0 
 22 23  1  0  0  0  0 
 22 24  2  0  0  0  0 
 24 25  1  0  0  0  0 
 24 26  1  0  0  0  0 
 26 27  1  0  0  0  0 
 26 28  2  0  0  0  0 
 20 28  1  0  0  0  0 
 28 29  1  0  0  0  0 
 21 30  1  0  0  0  0 
 30 31  1  0  0  0  0 
 30 32  1  0  0  0  0 
 30 33  1  0  0  0  0 
 33 34  1  0  0  0  0 
 33 35  1  0  0  0  0 
 33 36  1  0  0  0  0 
 36 37  2  0  0  0  0 
 19 37  1  0  0  0  0 
 37 38  1  0  0  0  0 
 38 39  1  0  0  0  0 
 38 40  2  0  0  0  0 
 40 41  1  0  0  0  0 
 40 42  1  0  0  0  0 
 42 43  1  0  0  0  0 
 42 44  2  0  0  0  0 
 36 44  1  0  0  0  0 
 44 45  1  0  0  0  0 
 19 46  1  0  0  0  0 
M  CHG  1  19   1
M  CHG  1  46  -1
M  END
> <Rank>
2

> <Priority_score>
0.484

> <Reaction_type>
N-oxidation

> <Parent_ID>
30

> <Parent_InChI>
InChI=1S/C19H24N2/c1-20(2)14-7-15-21-18-10-5-3-8-16(18)12-13-17-9-4-6-11-19(17)21/h3-6,8-11H,7,12-15H2,1-2H3

> <Parent_SMILES>
CN(C)CCCN1c2ccccc2CCc2ccccc21

$$$$
Molecule 30_metabolite 3
  CDK     0516241031

 20 19  0  0  0  0  0  0  0  0999 V2000
    8.6440   -1.3800    0.0000 C   0  0  0  0  0  0  0  0  0  0  0  0
    9.3940   -2.6790    0.0000 H   0  0  0  0  0  0  0  0  0  0  0  0
   10.0535   -0.8670    0.0000 H   0  0  0  0  0  0  0  0  0  0  0  0
    8.3835    0.0972    0.0000 H   0  0  0  0  0  0  0  0  0  0  0  0
    6.6640   -1.3800    0.0000 N   0  0  0  0  0  0  0  0  0  0  0  0
    5.9140   -0.0810    0.0000 C   0  0  0  0  0  0  0  0  0  0  0  0
    4.4140   -0.0810    0.0000 H   0  0  0  0  0  0  0  0  0  0  0  0
    7.3235    0.4321    0.0000 H   0  0  0  0  0  0  0  0  0  0  0  0
    5.6535    1.3962    0.0000 H   0  0  0  0  0  0  0  0  0  0  0  0
    5.9140   -2.6790    0.0000 C   0  0  0  0  0  0  0  0  0  0  0  0
    7.3235   -3.1921    0.0000 H   0  0  0  0  0  0  0  0  0  0  0  0
    5.6535   -4.1562    0.0000 H   0  0  0  0  0  0  0  0  0  0  0  0
    4.4140   -2.6790    0.0000 C   0  0  0  0  0  0  0  0  0  0  0  0
    3.0045   -3.1921    0.0000 H   0  0  0  0  0  0  0  0  0  0  0  0
    4.6745   -4.1562    0.0000 H   0  0  0  0  0  0  0  0  0  0  0  0
    3.6640   -1.3800    0.0000 C   0  0  0  0  0  0  0  0  0  0  0  0
    5.0735   -0.8670    0.0000 H   0  0  0  0  0  0  0  0  0  0  0  0
    3.4035    0.0972    0.0000 H   0  0  0  0  0  0  0  0  0  0  0  0
    2.1640   -1.3800    0.0000 O   0  0  0  0  0  0  0  0  0  0  0  0
    1.4140   -0.0810    0.0000 H   0  0  0  0  0  0  0  0  0  0  0  0
  1  2  1  0  0  0  0 
  1  3  1  0  0  0  0 
  1  4  1  0  0  0  0 
  1  5  1  0  0  0  0 
  5  6  1  0  0  0  0 
  6  7  1  0  0  0  0 
  6  8  1  0  0  0  0 
  6  9  1  0  0  0  0 
  5 10  1  0  0  0  0 
 10 11  1  0  0  0  0 
 10 12  1  0  0  0  0 
 10 13  1  0  0  0  0 
 13 14  1  0  0  0  0 
 13 15  1  0  0  0  0 
 13 16  1  0  0  0  0 
 16 17  1  0  0  0  0 
 16 18  1  0  0  0  0 
 16 19  1  0  0  0  0 
 19 20  1  0  0  0  0 
M  END
> <Rank>
2

> <Priority_score>
0.484

> <Reaction_type>
N-dealkylation_(tertiaryN-CH2-alkyl)

> <Parent_ID>
30

> <Parent_InChI>
InChI=1S/C19H24N2/c1-20(2)14-7-15-21-18-10-5-3-8-16(18)12-13-17-9-4-6-11-19(17)21/h3-6,8-11H,7,12-15H2,1-2H3

> <Parent_SMILES>
CN(C)CCCN1c2ccccc2CCc2ccccc21

$$$$
Molecule 30_metabolite 4
  CDK     0516241031

 18 17  0  0  0  0  0  0  0  0999 V2000
    6.3170    1.4095    0.0000 C   0  0  0  0  0  0  0  0  0  0  0  0
    6.3170    2.9095    0.0000 H   0  0  0  0  0  0  0  0  0  0  0  0
    7.7942    1.6700    0.0000 H   0  0  0  0  0  0  0  0  0  0  0  0
    6.8300   -0.0000    0.0000 H   0  0  0  0  0  0  0  0  0  0  0  0
    5.0180    0.6595    0.0000 N   0  0  0  0  0  0  0  0  0  0  0  0
    5.0180   -1.3205    0.0000 C   0  0  0  0  0  0  0  0  0  0  0  0
    3.7189   -2.0705    0.0000 H   0  0  0  0  0  0  0  0  0  0  0  0
    6.4952   -1.0600    0.0000 H   0  0  0  0  0  0  0  0  0  0  0  0
    5.5310   -2.7300    0.0000 H   0  0  0  0  0  0  0  0  0  0  0  0
    3.7189    1.4095    0.0000 C   0  0  0  0  0  0  0  0  0  0  0  0
    4.6831    2.5586    0.0000 H   0  0  0  0  0  0  0  0  0  0  0  0
    2.7548    2.5586    0.0000 H   0  0  0  0  0  0  0  0  0  0  0  0
    2.4199    0.6595    0.0000 C   0  0  0  0  0  0  0  0  0  0  0  0
    1.4557   -0.4895    0.0000 H   0  0  0  0  0  0  0  0  0  0  0  0
    3.3841   -0.4895    0.0000 H   0  0  0  0  0  0  0  0  0  0  0  0
    1.1209    1.4095    0.0000 C   0  0  0  0  0  0  0  0  0  0  0  0
   -0.1782    0.6595    0.0000 H   0  0  0  0  0  0  0  0  0  0  0  0
    1.1209    2.9095    0.0000 O   0  0  0  0  0  0  0  0  0  0  0  0
  1  2  1  0  0  0  0 
  1  3  1  0  0  0  0 
  1  4  1  0  0  0  0 
  1  5  1  0  0  0  0 
  5  6  1  0  0  0  0 
  6  7  1  0  0  0  0 
  6  8  1  0  0  0  0 
  6  9  1  0  0  0  0 
  5 10  1  0  0  0  0 
 10 11  1  0  0  0  0 
 10 12  1  0  0  0  0 
 10 13  1  0  0  0  0 
 13 14  1  0  0  0  0 
 13 15  1  0  0  0  0 
 13 16  1  0  0  0  0 
 16 17  1  0  0  0  0 
 16 18  2  0  0  0  0 
M  END
> <Rank>
2

> <Priority_score>
0.484

> <Reaction_type>
N-dealkylation

> <Parent_ID>
30

> <Parent_InChI>
InChI=1S/C19H24N2/c1-20(2)14-7-15-21-18-10-5-3-8-16(18)12-13-17-9-4-6-11-19(17)21/h3-6,8-11H,7,12-15H2,1-2H3

> <Parent_SMILES>
CN(C)CCCN1c2ccccc2CCc2ccccc21

$$$$
Molecule 30_metabolite 5
  CDK     0516241031

 46 48  0  0  0  0  0  0  0  0999 V2000
    2.5981   -7.1400    0.0000 C   0  0  0  0  0  0  0  0  0  0  0  0
    1.2990   -7.8900    0.0000 H   0  0  0  0  0  0  0  0  0  0  0  0
    4.0753   -6.8795    0.0000 H   0  0  0  0  0  0  0  0  0  0  0  0
    3.1111   -8.5495    0.0000 H   0  0  0  0  0  0  0  0  0  0  0  0
    2.5981   -5.1600    0.0000 N   0  0  0  0  0  0  0  0  0  0  0  0
    3.8971   -4.4100    0.0000 C   0  0  0  0  0  0  0  0  0  0  0  0
    3.8971   -2.9100    0.0000 H   0  0  0  0  0  0  0  0  0  0  0  0
    5.3743   -4.1495    0.0000 H   0  0  0  0  0  0  0  0  0  0  0  0
    4.4101   -5.8195    0.0000 H   0  0  0  0  0  0  0  0  0  0  0  0
    1.2990   -4.4100    0.0000 C   0  0  0  0  0  0  0  0  0  0  0  0
   -0.1782   -4.1495    0.0000 H   0  0  0  0  0  0  0  0  0  0  0  0
    0.7860   -5.8195    0.0000 H   0  0  0  0  0  0  0  0  0  0  0  0
    1.2990   -2.4300    0.0000 C   0  0  0  0  0  0  0  0  0  0  0  0
    2.7762   -2.6905    0.0000 H   0  0  0  0  0  0  0  0  0  0  0  0
    1.8121   -1.0205    0.0000 H   0  0  0  0  0  0  0  0  0  0  0  0
    0.0000   -1.6800    0.0000 C   0  0  0  0  0  0  0  0  0  0  0  0
   -1.4772   -1.4195    0.0000 H   0  0  0  0  0  0  0  0  0  0  0  0
    0.0000   -0.1800    0.0000 N   0  0  0  0  0  0  0  0  0  0  0  0
    1.3500    0.4700    0.0000 C   0  0  0  0  0  0  0  0  0  0  0  0
    1.6900    1.9400    0.0000 C   0  0  0  0  0  0  0  0  0  0  0  0
    3.1200    2.3800    0.0000 C   0  0  0  0  0  0  0  0  0  0  0  0
    3.4541    3.8423    0.0000 H   0  0  0  0  0  0  0  0  0  0  0  0
    4.2200    1.3600    0.0000 C   0  0  0  0  0  0  0  0  0  0  0  0
    5.6543    1.7992    0.0000 H   0  0  0  0  0  0  0  0  0  0  0  0
    3.8800   -0.1000    0.0000 C   0  0  0  0  0  0  0  0  0  0  0  0
    4.9802   -1.1196    0.0000 H   0  0  0  0  0  0  0  0  0  0  0  0
    2.4500   -0.5500    0.0000 C   0  0  0  0  0  0  0  0  0  0  0  0
    2.1206   -2.0134    0.0000 H   0  0  0  0  0  0  0  0  0  0  0  0
    0.7500    3.1100    0.0000 C   0  0  0  0  0  0  0  0  0  0  0  0
    2.0999    3.7641    0.0000 H   0  0  0  0  0  0  0  0  0  0  0  0
    0.4145    4.5720    0.0000 H   0  0  0  0  0  0  0  0  0  0  0  0
   -0.7500    3.1100    0.0000 C   0  0  0  0  0  0  0  0  0  0  0  0
   -0.4145    4.5720    0.0000 H   0  0  0  0  0  0  0  0  0  0  0  0
   -2.0999    3.7641    0.0000 H   0  0  0  0  0  0  0  0  0  0  0  0
   -1.6900    1.9400    0.0000 C   0  0  0  0  0  0  0  0  0  0  0  0
   -1.3500    0.4700    0.0000 C   0  0  0  0  0  0  0  0  0  0  0  0
   -2.4500   -0.5500    0.0000 C   0  0  0  0  0  0  0  0  0  0  0  0
   -2.1206   -2.0134    0.0000 H   0  0  0  0  0  0  0  0  0  0  0  0
   -3.8800   -0.1000    0.0000 C   0  0  0  0  0  0  0  0  0  0  0  0
   -4.9802   -1.1196    0.0000 H   0  0  0  0  0  0  0  0  0  0  0  0
   -4.2200    1.3600    0.0000 C   0  0  0  0  0  0  0  0  0  0  0  0
   -5.6543    1.7992    0.0000 H   0  0  0  0  0  0  0  0  0  0  0  0
   -3.1200    2.3800    0.0000 C   0  0  0  0  0  0  0  0  0  0  0  0
   -3.4541    3.8423    0.0000 H   0  0  0  0  0  0  0  0  0  0  0  0
   -0.5130   -3.0895    0.0000 O   0  0  0  0  0  0  0  0  0  0  0  0
   -1.9902   -3.3500    0.0000 H   0  0  0  0  0  0  0  0  0  0  0  0
  1  2  1  0  0  0  0 
  1  3  1  0  0  0  0 
  1  4  1  0  0  0  0 
  1  5  1  0  0  0  0 
  5  6  1  0  0  0  0 
  6  7  1  0  0  0  0 
  6  8  1  0  0  0  0 
  6  9  1  0  0  0  0 
  5 10  1  0  0  0  0 
 10 11  1  0  0  0  0 
 10 12  1  0  0  0  0 
 10 13  1  0  0  0  0 
 13 14  1  0  0  0  0 
 13 15  1  0  0  0  0 
 13 16  1  0  0  0  0 
 16 17  1  0  0  0  0 
 16 18  1  0  0  0  0 
 18 19  1  0  0  0  0 
 19 20  2  0  0  0  0 
 20 21  1  0  0  0  0 
 21 22  1  0  0  0  0 
 21 23  2  0  0  0  0 
 23 24  1  0  0  0  0 
 23 25  1  0  0  0  0 
 25 26  1  0  0  0  0 
 25 27  2  0  0  0  0 
 19 27  1  0  0  0  0 
 27 28  1  0  0  0  0 
 20 29  1  0  0  0  0 
 29 30  1  0  0  0  0 
 29 31  1  0  0  0  0 
 29 32  1  0  0  0  0 
 32 33  1  0  0  0  0 
 32 34  1  0  0  0  0 
 32 35  1  0  0  0  0 
 35 36  2  0  0  0  0 
 18 36  1  0  0  0  0 
 36 37  1  0  0  0  0 
 37 38  1  0  0  0  0 
 37 39  2  0  0  0  0 
 39 40  1  0  0  0  0 
 39 41  1  0  0  0  0 
 41 42  1  0  0  0  0 
 41 43  2  0  0  0  0 
 35 43  1  0  0  0  0 
 43 44  1  0  0  0  0 
 16 45  1  0  0  0  0 
 45 46  1  0  0  0  0 
M  END
> <Rank>
2

> <Priority_score>
0.484

> <Reaction_type>
aliphatic hydroxylation

> <Parent_ID>
30

> <Parent_InChI>
InChI=1S/C19H24N2/c1-20(2)14-7-15-21-18-10-5-3-8-16(18)12-13-17-9-4-6-11-19(17)21/h3-6,8-11H,7,12-15H2,1-2H3

> <Parent_SMILES>
CN(C)CCCN1c2ccccc2CCc2ccccc21

$$$$
Molecule 30_metabolite 6
  CDK     0516241031

 28 30  0  0  0  0  0  0  0  0999 V2000
   -4.2200    0.2200    0.0000 C   0  0  0  0  0  0  0  0  0  0  0  0
   -5.6543    0.6592    0.0000 H   0  0  0  0  0  0  0  0  0  0  0  0
   -3.1200    1.2400    0.0000 C   0  0  0  0  0  0  0  0  0  0  0  0
   -3.4541    2.7023    0.0000 H   0  0  0  0  0  0  0  0  0  0  0  0
   -1.6900    0.8000    0.0000 C   0  0  0  0  0  0  0  0  0  0  0  0
   -1.3500   -0.6600    0.0000 C   0  0  0  0  0  0  0  0  0  0  0  0
   -2.4500   -1.6800    0.0000 C   0  0  0  0  0  0  0  0  0  0  0  0
   -2.1159   -3.1423    0.0000 H   0  0  0  0  0  0  0  0  0  0  0  0
   -3.8800   -1.2400    0.0000 C   0  0  0  0  0  0  0  0  0  0  0  0
   -4.9770   -2.2631    0.0000 H   0  0  0  0  0  0  0  0  0  0  0  0
    0.0000   -1.3100    0.0000 N   0  0  0  0  0  0  0  0  0  0  0  0
   -0.0000   -2.8100    0.0000 H   0  0  0  0  0  0  0  0  0  0  0  0
    1.3500   -0.6600    0.0000 C   0  0  0  0  0  0  0  0  0  0  0  0
    1.6900    0.8000    0.0000 C   0  0  0  0  0  0  0  0  0  0  0  0
    3.1200    1.2400    0.0000 C   0  0  0  0  0  0  0  0  0  0  0  0
    3.4541    2.7023    0.0000 H   0  0  0  0  0  0  0  0  0  0  0  0
    4.2200    0.2200    0.0000 C   0  0  0  0  0  0  0  0  0  0  0  0
    5.6543    0.6592    0.0000 H   0  0  0  0  0  0  0  0  0  0  0  0
    3.8800   -1.2400    0.0000 C   0  0  0  0  0  0  0  0  0  0  0  0
    4.9770   -2.2631    0.0000 H   0  0  0  0  0  0  0  0  0  0  0  0
    2.4500   -1.6800    0.0000 C   0  0  0  0  0  0  0  0  0  0  0  0
    2.1159   -3.1423    0.0000 H   0  0  0  0  0  0  0  0  0  0  0  0
    0.7500    1.9700    0.0000 C   0  0  0  0  0  0  0  0  0  0  0  0
    2.0999    2.6241    0.0000 H   0  0  0  0  0  0  0  0  0  0  0  0
    0.4145    3.4320    0.0000 H   0  0  0  0  0  0  0  0  0  0  0  0
   -0.7500    1.9700    0.0000 C   0  0  0  0  0  0  0  0  0  0  0  0
   -0.4145    3.4320    0.0000 H   0  0  0  0  0  0  0  0  0  0  0  0
   -2.0999    2.6241    0.0000 H   0  0  0  0  0  0  0  0  0  0  0  0
  1  2  1  0  0  0  0 
  1  3  2  0  0  0  0 
  3  4  1  0  0  0  0 
  3  5  1  0  0  0  0 
  5  6  2  0  0  0  0 
  6  7  1  0  0  0  0 
  7  8  1  0  0  0  0 
  7  9  2  0  0  0  0 
  1  9  1  0  0  0  0 
  9 10  1  0  0  0  0 
  6 11  1  0  0  0  0 
 11 12  1  0  0  0  0 
 11 13  1  0  0  0  0 
 13 14  2  0  0  0  0 
 14 15  1  0  0  0  0 
 15 16  1  0  0  0  0 
 15 17  2  0  0  0  0 
 17 18  1  0  0  0  0 
 17 19  1  0  0  0  0 
 19 20  1  0  0  0  0 
 19 21  2  0  0  0  0 
 13 21  1  0  0  0  0 
 21 22  1  0  0  0  0 
 14 23  1  0  0  0  0 
 23 24  1  0  0  0  0 
 23 25  1  0  0  0  0 
 23 26  1  0  0  0  0 
  5 26  1  0  0  0  0 
 26 27  1  0  0  0  0 
 26 28  1  0  0  0  0 
M  END
> <Rank>
2

> <Priority_score>
0.484

> <Reaction_type>
N-dealkylation_(tertiaryN-CH2-alkyl)

> <Parent_ID>
30

> <Parent_InChI>
InChI=1S/C19H24N2/c1-20(2)14-7-15-21-18-10-5-3-8-16(18)12-13-17-9-4-6-11-19(17)21/h3-6,8-11H,7,12-15H2,1-2H3

> <Parent_SMILES>
CN(C)CCCN1c2ccccc2CCc2ccccc21

$$$$
Molecule 30_metabolite 7
  CDK     0516241031

 46 48  0  0  0  0  0  0  0  0999 V2000
    3.8452   -8.3400    0.0000 C   0  0  0  0  0  0  0  0  0  0  0  0
    5.1442   -9.0900    0.0000 H   0  0  0  0  0  0  0  0  0  0  0  0
    2.3679   -8.0795    0.0000 H   0  0  0  0  0  0  0  0  0  0  0  0
    3.3321   -9.7495    0.0000 H   0  0  0  0  0  0  0  0  0  0  0  0
    3.8452   -6.3600    0.0000 N   0  0  0  0  0  0  0  0  0  0  0  0
    5.3224   -6.6205    0.0000 C   0  0  0  0  0  0  0  0  0  0  0  0
    5.8354   -8.0300    0.0000 H   0  0  0  0  0  0  0  0  0  0  0  0
    6.7996   -6.3600    0.0000 H   0  0  0  0  0  0  0  0  0  0  0  0
    5.3224   -5.1205    0.0000 H   0  0  0  0  0  0  0  0  0  0  0  0
    2.5461   -5.6100    0.0000 C   0  0  0  0  0  0  0  0  0  0  0  0
    1.0689   -5.3495    0.0000 H   0  0  0  0  0  0  0  0  0  0  0  0
    2.0331   -7.0195    0.0000 H   0  0  0  0  0  0  0  0  0  0  0  0
    2.5461   -3.6300    0.0000 C   0  0  0  0  0  0  0  0  0  0  0  0
    4.0233   -3.8905    0.0000 H   0  0  0  0  0  0  0  0  0  0  0  0
    3.0591   -2.2205    0.0000 H   0  0  0  0  0  0  0  0  0  0  0  0
    0.0000   -2.1600    0.0000 C   0  0  0  0  0  0  0  0  0  0  0  0
   -1.4772   -1.8995    0.0000 H   0  0  0  0  0  0  0  0  0  0  0  0
   -0.5130   -3.5695    0.0000 H   0  0  0  0  0  0  0  0  0  0  0  0
    0.0000   -0.6600    0.0000 N   0  0  0  0  0  0  0  0  0  0  0  0
    1.3500   -0.0100    0.0000 C   0  0  0  0  0  0  0  0  0  0  0  0
    1.6900    1.4600    0.0000 C   0  0  0  0  0  0  0  0  0  0  0  0
    3.1200    1.9000    0.0000 C   0  0  0  0  0  0  0  0  0  0  0  0
    3.4541    3.3623    0.0000 H   0  0  0  0  0  0  0  0  0  0  0  0
    4.2200    0.8800    0.0000 C   0  0  0  0  0  0  0  0  0  0  0  0
    5.6543    1.3192    0.0000 H   0  0  0  0  0  0  0  0  0  0  0  0
    3.8800   -0.5800    0.0000 C   0  0  0  0  0  0  0  0  0  0  0  0
    4.9802   -1.5996    0.0000 H   0  0  0  0  0  0  0  0  0  0  0  0
    2.4500   -1.0300    0.0000 C   0  0  0  0  0  0  0  0  0  0  0  0
    2.1206   -2.4934    0.0000 H   0  0  0  0  0  0  0  0  0  0  0  0
    0.7500    2.6300    0.0000 C   0  0  0  0  0  0  0  0  0  0  0  0
    2.0999    3.2841    0.0000 H   0  0  0  0  0  0  0  0  0  0  0  0
    0.4145    4.0920    0.0000 H   0  0  0  0  0  0  0  0  0  0  0  0
   -0.7500    2.6300    0.0000 C   0  0  0  0  0  0  0  0  0  0  0  0
   -0.4145    4.0920    0.0000 H   0  0  0  0  0  0  0  0  0  0  0  0
   -2.0999    3.2841    0.0000 H   0  0  0  0  0  0  0  0  0  0  0  0
   -1.6900    1.4600    0.0000 C   0  0  0  0  0  0  0  0  0  0  0  0
   -1.3500   -0.0100    0.0000 C   0  0  0  0  0  0  0  0  0  0  0  0
   -2.4500   -1.0300    0.0000 C   0  0  0  0  0  0  0  0  0  0  0  0
   -2.1206   -2.4934    0.0000 H   0  0  0  0  0  0  0  0  0  0  0  0
   -3.8800   -0.5800    0.0000 C   0  0  0  0  0  0  0  0  0  0  0  0
   -4.9802   -1.5996    0.0000 H   0  0  0  0  0  0  0  0  0  0  0  0
   -4.2200    0.8800    0.0000 C   0  0  0  0  0  0  0  0  0  0  0  0
   -5.6543    1.3192    0.0000 H   0  0  0  0  0  0  0  0  0  0  0  0
   -3.1200    1.9000    0.0000 C   0  0  0  0  0  0  0  0  0  0  0  0
   -3.4541    3.3623    0.0000 H   0  0  0  0  0  0  0  0  0  0  0  0
    4.3582   -4.9505    0.0000 O   0  0  0  0  0  0  0  0  0  0  0  0
  1  2  1  0  0  0  0 
  1  3  1  0  0  0  0 
  1  4  1  0  0  0  0 
  1  5  1  0  0  0  0 
  5  6  1  0  0  0  0 
  6  7  1  0  0  0  0 
  6  8  1  0  0  0  0 
  6  9  1  0  0  0  0 
  5 10  1  0  0  0  0 
 10 11  1  0  0  0  0 
 10 12  1  0  0  0  0 
 10 13  1  0  0  0  0 
 13 14  1  0  0  0  0 
 13 15  1  0  0  0  0 
 13 16  1  0  0  0  0 
 16 17  1  0  0  0  0 
 16 18  1  0  0  0  0 
 16 19  1  0  0  0  0 
 19 20  1  0  0  0  0 
 20 21  2  0  0  0  0 
 21 22  1  0  0  0  0 
 22 23  1  0  0  0  0 
 22 24  2  0  0  0  0 
 24 25  1  0  0  0  0 
 24 26  1  0  0  0  0 
 26 27  1  0  0  0  0 
 26 28  2  0  0  0  0 
 20 28  1  0  0  0  0 
 28 29  1  0  0  0  0 
 21 30  1  0  0  0  0 
 30 31  1  0  0  0  0 
 30 32  1  0  0  0  0 
 30 33  1  0  0  0  0 
 33 34  1  0  0  0  0 
 33 35  1  0  0  0  0 
 33 36  1  0  0  0  0 
 36 37  2  0  0  0  0 
 19 37  1  0  0  0  0 
 37 38  1  0  0  0  0 
 38 39  1  0  0  0  0 
 38 40  2  0  0  0  0 
 40 41  1  0  0  0  0 
 40 42  1  0  0  0  0 
 42 43  1  0  0  0  0 
 42 44  2  0  0  0  0 
 36 44  1  0  0  0  0 
 44 45  1  0  0  0  0 
  5 46  1  0  0  0  0 
M  CHG  1   5   1
M  CHG  1  46  -1
M  END
> <Rank>
7

> <Priority_score>
0.43987940660392405

> <Reaction_type>
N-oxidation_(RN(CH3)2)

> <Parent_ID>
30

> <Parent_InChI>
InChI=1S/C19H24N2/c1-20(2)14-7-15-21-18-10-5-3-8-16(18)12-13-17-9-4-6-11-19(17)21/h3-6,8-11H,7,12-15H2,1-2H3

> <Parent_SMILES>
CN(C)CCCN1c2ccccc2CCc2ccccc21

$$$$
Molecule 30_metabolite 8
  CDK     0516241031

 46 48  0  0  0  0  0  0  0  0999 V2000
   -1.2990   -4.4100    0.0000 C   0  0  0  0  0  0  0  0  0  0  0  0
   -1.2990   -2.9100    0.0000 H   0  0  0  0  0  0  0  0  0  0  0  0
   -2.7762   -4.1495    0.0000 H   0  0  0  0  0  0  0  0  0  0  0  0
   -1.8121   -5.8195    0.0000 H   0  0  0  0  0  0  0  0  0  0  0  0
   -0.0000   -5.1600    0.0000 N   0  0  0  0  0  0  0  0  0  0  0  0
    1.2990   -4.4100    0.0000 C   0  0  0  0  0  0  0  0  0  0  0  0
    2.7762   -4.1495    0.0000 H   0  0  0  0  0  0  0  0  0  0  0  0
    1.8121   -5.8195    0.0000 H   0  0  0  0  0  0  0  0  0  0  0  0
    1.2990   -2.9100    0.0000 C   0  0  0  0  0  0  0  0  0  0  0  0
    2.7762   -3.1705    0.0000 H   0  0  0  0  0  0  0  0  0  0  0  0
    1.8121   -1.5005    0.0000 H   0  0  0  0  0  0  0  0  0  0  0  0
    0.0000   -2.1600    0.0000 C   0  0  0  0  0  0  0  0  0  0  0  0
   -1.4772   -1.8995    0.0000 H   0  0  0  0  0  0  0  0  0  0  0  0
   -0.5130   -3.5695    0.0000 H   0  0  0  0  0  0  0  0  0  0  0  0
    0.0000   -0.6600    0.0000 N   0  0  0  0  0  0  0  0  0  0  0  0
    1.3500   -0.0100    0.0000 C   0  0  0  0  0  0  0  0  0  0  0  0
    1.6900    1.4600    0.0000 C   0  0  0  0  0  0  0  0  0  0  0  0
    3.1200    1.9000    0.0000 C   0  0  0  0  0  0  0  0  0  0  0  0
    3.4541    3.3623    0.0000 H   0  0  0  0  0  0  0  0  0  0  0  0
    4.2200    0.8800    0.0000 C   0  0  0  0  0  0  0  0  0  0  0  0
    5.6543    1.3192    0.0000 H   0  0  0  0  0  0  0  0  0  0  0  0
    3.8800   -0.5800    0.0000 C   0  0  0  0  0  0  0  0  0  0  0  0
    4.9802   -1.5996    0.0000 H   0  0  0  0  0  0  0  0  0  0  0  0
    2.4500   -1.0300    0.0000 C   0  0  0  0  0  0  0  0  0  0  0  0
    2.1206   -2.4934    0.0000 H   0  0  0  0  0  0  0  0  0  0  0  0
    0.7500    2.6300    0.0000 C   0  0  0  0  0  0  0  0  0  0  0  0
    2.0999    3.2841    0.0000 H   0  0  0  0  0  0  0  0  0  0  0  0
    0.4145    4.0920    0.0000 H   0  0  0  0  0  0  0  0  0  0  0  0
   -0.7500    2.6300    0.0000 C   0  0  0  0  0  0  0  0  0  0  0  0
   -0.4145    4.0920    0.0000 H   0  0  0  0  0  0  0  0  0  0  0  0
   -2.0999    3.2841    0.0000 H   0  0  0  0  0  0  0  0  0  0  0  0
   -1.6900    1.4600    0.0000 C   0  0  0  0  0  0  0  0  0  0  0  0
   -1.3500   -0.0100    0.0000 C   0  0  0  0  0  0  0  0  0  0  0  0
   -2.4500   -1.0300    0.0000 C   0  0  0  0  0  0  0  0  0  0  0  0
   -2.1206   -2.4934    0.0000 H   0  0  0  0  0  0  0  0  0  0  0  0
   -3.8800   -0.5800    0.0000 C   0  0  0  0  0  0  0  0  0  0  0  0
   -4.9802   -1.5996    0.0000 H   0  0  0  0  0  0  0  0  0  0  0  0
   -4.2200    0.8800    0.0000 C   0  0  0  0  0  0  0  0  0  0  0  0
   -5.6543    1.3192    0.0000 H   0  0  0  0  0  0  0  0  0  0  0  0
   -3.1200    1.9000    0.0000 C   0  0  0  0  0  0  0  0  0  0  0  0
   -3.4541    3.3623    0.0000 H   0  0  0  0  0  0  0  0  0  0  0  0
   -0.0000   -7.1400    0.0000 C   0  0  0  0  0  0  0  0  0  0  0  0
   -1.4772   -6.8795    0.0000 H   0  0  0  0  0  0  0  0  0  0  0  0
   -0.5130   -8.5495    0.0000 H   0  0  0  0  0  0  0  0  0  0  0  0
    1.2990   -7.8900    0.0000 O   0  0  0  0  0  0  0  0  0  0  0  0
    1.2990   -9.3900    0.0000 H   0  0  0  0  0  0  0  0  0  0  0  0
  1  2  1  0  0  0  0 
  1  3  1  0  0  0  0 
  1  4  1  0  0  0  0 
  1  5  1  0  0  0  0 
  5  6  1  0  0  0  0 
  6  7  1  0  0  0  0 
  6  8  1  0  0  0  0 
  6  9  1  0  0  0  0 
  9 10  1  0  0  0  0 
  9 11  1  0  0  0  0 
  9 12  1  0  0  0  0 
 12 13  1  0  0  0  0 
 12 14  1  0  0  0  0 
 12 15  1  0  0  0  0 
 15 16  1  0  0  0  0 
 16 17  2  0  0  0  0 
 17 18  1  0  0  0  0 
 18 19  1  0  0  0  0 
 18 20  2  0  0  0  0 
 20 21  1  0  0  0  0 
 20 22  1  0  0  0  0 
 22 23  1  0  0  0  0 
 22 24  2  0  0  0  0 
 16 24  1  0  0  0  0 
 24 25  1  0  0  0  0 
 17 26  1  0  0  0  0 
 26 27  1  0  0  0  0 
 26 28  1  0  0  0  0 
 26 29  1  0  0  0  0 
 29 30  1  0  0  0  0 
 29 31  1  0  0  0  0 
 29 32  1  0  0  0  0 
 32 33  2  0  0  0  0 
 15 33  1  0  0  0  0 
 33 34  1  0  0  0  0 
 34 35  1  0  0  0  0 
 34 36  2  0  0  0  0 
 36 37  1  0  0  0  0 
 36 38  1  0  0  0  0 
 38 39  1  0  0  0  0 
 38 40  2  0  0  0  0 
 32 40  1  0  0  0  0 
 40 41  1  0  0  0  0 
  5 42  1  0  0  0  0 
 42 43  1  0  0  0  0 
 42 44  1  0  0  0  0 
 42 45  1  0  0  0  0 
 45 46  1  0  0  0  0 
M  END
> <Rank>
7

> <Priority_score>
0.43987940660392405

> <Reaction_type>
aliphatic hydroxylation

> <Parent_ID>
30

> <Parent_InChI>
InChI=1S/C19H24N2/c1-20(2)14-7-15-21-18-10-5-3-8-16(18)12-13-17-9-4-6-11-19(17)21/h3-6,8-11H,7,12-15H2,1-2H3

> <Parent_SMILES>
CN(C)CCCN1c2ccccc2CCc2ccccc21

$$$$
Molecule 30_metabolite 9
  CDK     0516241031

 42 44  0  0  0  0  0  0  0  0999 V2000
    2.5981   -7.1400    0.0000 C   0  0  0  0  0  0  0  0  0  0  0  0
    1.2990   -7.8900    0.0000 H   0  0  0  0  0  0  0  0  0  0  0  0
    4.0753   -6.8795    0.0000 H   0  0  0  0  0  0  0  0  0  0  0  0
    3.1111   -8.5495    0.0000 H   0  0  0  0  0  0  0  0  0  0  0  0
    2.5981   -5.6400    0.0000 N   0  0  0  0  0  0  0  0  0  0  0  0
    3.8971   -4.8900    0.0000 H   0  0  0  0  0  0  0  0  0  0  0  0
    1.2990   -4.8900    0.0000 C   0  0  0  0  0  0  0  0  0  0  0  0
   -0.1782   -4.6295    0.0000 H   0  0  0  0  0  0  0  0  0  0  0  0
    0.7860   -6.2995    0.0000 H   0  0  0  0  0  0  0  0  0  0  0  0
    1.2990   -2.9100    0.0000 C   0  0  0  0  0  0  0  0  0  0  0  0
    2.7762   -3.1705    0.0000 H   0  0  0  0  0  0  0  0  0  0  0  0
    1.8121   -1.5005    0.0000 H   0  0  0  0  0  0  0  0  0  0  0  0
    0.0000   -2.1600    0.0000 C   0  0  0  0  0  0  0  0  0  0  0  0
   -1.4772   -1.8995    0.0000 H   0  0  0  0  0  0  0  0  0  0  0  0
   -0.5130   -3.5695    0.0000 H   0  0  0  0  0  0  0  0  0  0  0  0
    0.0000   -0.6600    0.0000 N   0  0  0  0  0  0  0  0  0  0  0  0
    1.3500   -0.0100    0.0000 C   0  0  0  0  0  0  0  0  0  0  0  0
    1.6900    1.4600    0.0000 C   0  0  0  0  0  0  0  0  0  0  0  0
    3.1200    1.9000    0.0000 C   0  0  0  0  0  0  0  0  0  0  0  0
    3.4541    3.3623    0.0000 H   0  0  0  0  0  0  0  0  0  0  0  0
    4.2200    0.8800    0.0000 C   0  0  0  0  0  0  0  0  0  0  0  0
    5.6543    1.3192    0.0000 H   0  0  0  0  0  0  0  0  0  0  0  0
    3.8800   -0.5800    0.0000 C   0  0  0  0  0  0  0  0  0  0  0  0
    4.9802   -1.5996    0.0000 H   0  0  0  0  0  0  0  0  0  0  0  0
    2.4500   -1.0300    0.0000 C   0  0  0  0  0  0  0  0  0  0  0  0
    2.1206   -2.4934    0.0000 H   0  0  0  0  0  0  0  0  0  0  0  0
    0.7500    2.6300    0.0000 C   0  0  0  0  0  0  0  0  0  0  0  0
    2.0999    3.2841    0.0000 H   0  0  0  0  0  0  0  0  0  0  0  0
    0.4145    4.0920    0.0000 H   0  0  0  0  0  0  0  0  0  0  0  0
   -0.7500    2.6300    0.0000 C   0  0  0  0  0  0  0  0  0  0  0  0
   -0.4145    4.0920    0.0000 H   0  0  0  0  0  0  0  0  0  0  0  0
   -2.0999    3.2841    0.0000 H   0  0  0  0  0  0  0  0  0  0  0  0
   -1.6900    1.4600    0.0000 C   0  0  0  0  0  0  0  0  0  0  0  0
   -1.3500   -0.0100    0.0000 C   0  0  0  0  0  0  0  0  0  0  0  0
   -2.4500   -1.0300    0.0000 C   0  0  0  0  0  0  0  0  0  0  0  0
   -2.1206   -2.4934    0.0000 H   0  0  0  0  0  0  0  0  0  0  0  0
   -3.8800   -0.5800    0.0000 C   0  0  0  0  0  0  0  0  0  0  0  0
   -4.9802   -1.5996    0.0000 H   0  0  0  0  0  0  0  0  0  0  0  0
   -4.2200    0.8800    0.0000 C   0  0  0  0  0  0  0  0  0  0  0  0
   -5.6543    1.3192    0.0000 H   0  0  0  0  0  0  0  0  0  0  0  0
   -3.1200    1.9000    0.0000 C   0  0  0  0  0  0  0  0  0  0  0  0
   -3.4541    3.3623    0.0000 H   0  0  0  0  0  0  0  0  0  0  0  0
  1  2  1  0  0  0  0 
  1  3  1  0  0  0  0 
  1  4  1  0  0  0  0 
  1  5  1  0  0  0  0 
  5  6  1  0  0  0  0 
  5  7  1  0  0  0  0 
  7  8  1  0  0  0  0 
  7  9  1  0  0  0  0 
  7 10  1  0  0  0  0 
 10 11  1  0  0  0  0 
 10 12  1  0  0  0  0 
 10 13  1  0  0  0  0 
 13 14  1  0  0  0  0 
 13 15  1  0  0  0  0 
 13 16  1  0  0  0  0 
 16 17  1  0  0  0  0 
 17 18  2  0  0  0  0 
 18 19  1  0  0  0  0 
 19 20  1  0  0  0  0 
 19 21  2  0  0  0  0 
 21 22  1  0  0  0  0 
 21 23  1  0  0  0  0 
 23 24  1  0  0  0  0 
 23 25  2  0  0  0  0 
 17 25  1  0  0  0  0 
 25 26  1  0  0  0  0 
 18 27  1  0  0  0  0 
 27 28  1  0  0  0  0 
 27 29  1  0  0  0  0 
 27 30  1  0  0  0  0 
 30 31  1  0  0  0  0 
 30 32  1  0  0  0  0 
 30 33  1  0  0  0  0 
 33 34  2  0  0  0  0 
 16 34  1  0  0  0  0 
 34 35  1  0  0  0  0 
 35 36  1  0  0  0  0 
 35 37  2  0  0  0  0 
 37 38  1  0  0  0  0 
 37 39  1  0  0  0  0 
 39 40  1  0  0  0  0 
 39 41  2  0  0  0  0 
 33 41  1  0  0  0  0 
 41 42  1  0  0  0  0 
M  END
> <Rank>
7

> <Priority_score>
0.43987940660392405

> <Reaction_type>
N-demethylation_(R-N(CH3)2)

> <Parent_ID>
30

> <Parent_InChI>
InChI=1S/C19H24N2/c1-20(2)14-7-15-21-18-10-5-3-8-16(18)12-13-17-9-4-6-11-19(17)21/h3-6,8-11H,7,12-15H2,1-2H3

> <Parent_SMILES>
CN(C)CCCN1c2ccccc2CCc2ccccc21

$$$$
Molecule 30_metabolite 10
  CDK     0516241031

 10  9  0  0  0  0  0  0  0  0999 V2000
    2.7109   -0.6849    0.0000 C   0  0  0  0  0  0  0  0  0  0  0  0
    1.4118   -1.4349    0.0000 H   0  0  0  0  0  0  0  0  0  0  0  0
    3.2239   -2.0944    0.0000 H   0  0  0  0  0  0  0  0  0  0  0  0
    4.1881   -0.4244    0.0000 H   0  0  0  0  0  0  0  0  0  0  0  0
    2.7109    0.8151    0.0000 N   0  0  0  0  0  0  0  0  0  0  0  0
    4.0099    1.5651    0.0000 H   0  0  0  0  0  0  0  0  0  0  0  0
    1.4118    1.5651    0.0000 C   0  0  0  0  0  0  0  0  0  0  0  0
    1.4118    3.0651    0.0000 H   0  0  0  0  0  0  0  0  0  0  0  0
    0.8988    0.1556    0.0000 H   0  0  0  0  0  0  0  0  0  0  0  0
   -0.0654    1.8256    0.0000 H   0  0  0  0  0  0  0  0  0  0  0  0
  1  2  1  0  0  0  0 
  1  3  1  0  0  0  0 
  1  4  1  0  0  0  0 
  1  5  1  0  0  0  0 
  5  6  1  0  0  0  0 
  5  7  1  0  0  0  0 
  7  8  1  0  0  0  0 
  7  9  1  0  0  0  0 
  7 10  1  0  0  0  0 
M  END
> <Rank>
10

> <Priority_score>
0.328

> <Reaction_type>
N-dealkylation_(tertiaryN-CH2-alkyl)

> <Parent_ID>
30

> <Parent_InChI>
InChI=1S/C19H24N2/c1-20(2)14-7-15-21-18-10-5-3-8-16(18)12-13-17-9-4-6-11-19(17)21/h3-6,8-11H,7,12-15H2,1-2H3

> <Parent_SMILES>
CN(C)CCCN1c2ccccc2CCc2ccccc21

$$$$
Molecule 30_metabolite 11
  CDK     0516241031

 36 38  0  0  0  0  0  0  0  0999 V2000
    4.2200    0.4000    0.0000 C   0  0  0  0  0  0  0  0  0  0  0  0
    5.6543    0.8392    0.0000 H   0  0  0  0  0  0  0  0  0  0  0  0
    3.1200    1.4200    0.0000 C   0  0  0  0  0  0  0  0  0  0  0  0
    3.4541    2.8823    0.0000 H   0  0  0  0  0  0  0  0  0  0  0  0
    1.6900    0.9800    0.0000 C   0  0  0  0  0  0  0  0  0  0  0  0
    1.3500   -0.4900    0.0000 C   0  0  0  0  0  0  0  0  0  0  0  0
    2.4500   -1.5100    0.0000 C   0  0  0  0  0  0  0  0  0  0  0  0
    2.1206   -2.9734    0.0000 H   0  0  0  0  0  0  0  0  0  0  0  0
    3.8800   -1.0600    0.0000 C   0  0  0  0  0  0  0  0  0  0  0  0
    4.9802   -2.0796    0.0000 H   0  0  0  0  0  0  0  0  0  0  0  0
    0.0000   -1.1400    0.0000 N   0  0  0  0  0  0  0  0  0  0  0  0
   -0.0000   -2.6400    0.0000 C   0  0  0  0  0  0  0  0  0  0  0  0
   -1.4772   -2.3795    0.0000 H   0  0  0  0  0  0  0  0  0  0  0  0
   -0.5130   -4.0495    0.0000 H   0  0  0  0  0  0  0  0  0  0  0  0
    1.2990   -3.3900    0.0000 C   0  0  0  0  0  0  0  0  0  0  0  0
    2.7762   -3.6505    0.0000 H   0  0  0  0  0  0  0  0  0  0  0  0
    1.8121   -1.9805    0.0000 H   0  0  0  0  0  0  0  0  0  0  0  0
    1.2990   -4.8900    0.0000 C   0  0  0  0  0  0  0  0  0  0  0  0
    2.5981   -5.6400    0.0000 H   0  0  0  0  0  0  0  0  0  0  0  0
   -0.0000   -5.6400    0.0000 O   0  0  0  0  0  0  0  0  0  0  0  0
   -1.3500   -0.4900    0.0000 C   0  0  0  0  0  0  0  0  0  0  0  0
   -1.6900    0.9800    0.0000 C   0  0  0  0  0  0  0  0  0  0  0  0
   -3.1200    1.4200    0.0000 C   0  0  0  0  0  0  0  0  0  0  0  0
   -3.4541    2.8823    0.0000 H   0  0  0  0  0  0  0  0  0  0  0  0
   -4.2200    0.4000    0.0000 C   0  0  0  0  0  0  0  0  0  0  0  0
   -5.6543    0.8392    0.0000 H   0  0  0  0  0  0  0  0  0  0  0  0
   -3.8800   -1.0600    0.0000 C   0  0  0  0  0  0  0  0  0  0  0  0
   -4.9802   -2.0796    0.0000 H   0  0  0  0  0  0  0  0  0  0  0  0
   -2.4500   -1.5100    0.0000 C   0  0  0  0  0  0  0  0  0  0  0  0
   -2.1206   -2.9734    0.0000 H   0  0  0  0  0  0  0  0  0  0  0  0
   -0.7500    2.1500    0.0000 C   0  0  0  0  0  0  0  0  0  0  0  0
   -0.4145    3.6120    0.0000 H   0  0  0  0  0  0  0  0  0  0  0  0
   -2.0999    2.8041    0.0000 H   0  0  0  0  0  0  0  0  0  0  0  0
    0.7500    2.1500    0.0000 C   0  0  0  0  0  0  0  0  0  0  0  0
    2.0999    2.8041    0.0000 H   0  0  0  0  0  0  0  0  0  0  0  0
    0.4145    3.6120    0.0000 H   0  0  0  0  0  0  0  0  0  0  0  0
  1  2  1  0  0  0  0 
  1  3  2  0  0  0  0 
  3  4  1  0  0  0  0 
  3  5  1  0  0  0  0 
  5  6  2  0  0  0  0 
  6  7  1  0  0  0  0 
  7  8  1  0  0  0  0 
  7  9  2  0  0  0  0 
  1  9  1  0  0  0  0 
  9 10  1  0  0  0  0 
  6 11  1  0  0  0  0 
 11 12  1  0  0  0  0 
 12 13  1  0  0  0  0 
 12 14  1  0  0  0  0 
 12 15  1  0  0  0  0 
 15 16  1  0  0  0  0 
 15 17  1  0  0  0  0 
 15 18  1  0  0  0  0 
 18 19  1  0  0  0  0 
 18 20  2  0  0  0  0 
 11 21  1  0  0  0  0 
 21 22  2  0  0  0  0 
 22 23  1  0  0  0  0 
 23 24  1  0  0  0  0 
 23 25  2  0  0  0  0 
 25 26  1  0  0  0  0 
 25 27  1  0  0  0  0 
 27 28  1  0  0  0  0 
 27 29  2  0  0  0  0 
 21 29  1  0  0  0  0 
 29 30  1  0  0  0  0 
 22 31  1  0  0  0  0 
 31 32  1  0  0  0  0 
 31 33  1  0  0  0  0 
 31 34  1  0  0  0  0 
  5 34  1  0  0  0  0 
 34 35  1  0  0  0  0 
 34 36  1  0  0  0  0 
M  END
> <Rank>
10

> <Priority_score>
0.328

> <Reaction_type>
N-dealkylation

> <Parent_ID>
30

> <Parent_InChI>
InChI=1S/C19H24N2/c1-20(2)14-7-15-21-18-10-5-3-8-16(18)12-13-17-9-4-6-11-19(17)21/h3-6,8-11H,7,12-15H2,1-2H3

> <Parent_SMILES>
CN(C)CCCN1c2ccccc2CCc2ccccc21

$$$$
Molecule 30_metabolite 12
  CDK     0516241031

 38 40  0  0  0  0  0  0  0  0999 V2000
    4.2200    0.4000    0.0000 C   0  0  0  0  0  0  0  0  0  0  0  0
    5.6543    0.8392    0.0000 H   0  0  0  0  0  0  0  0  0  0  0  0
    3.1200    1.4200    0.0000 C   0  0  0  0  0  0  0  0  0  0  0  0
    3.4541    2.8823    0.0000 H   0  0  0  0  0  0  0  0  0  0  0  0
    1.6900    0.9800    0.0000 C   0  0  0  0  0  0  0  0  0  0  0  0
    1.3500   -0.4900    0.0000 C   0  0  0  0  0  0  0  0  0  0  0  0
    2.4500   -1.5100    0.0000 C   0  0  0  0  0  0  0  0  0  0  0  0
    2.1206   -2.9734    0.0000 H   0  0  0  0  0  0  0  0  0  0  0  0
    3.8800   -1.0600    0.0000 C   0  0  0  0  0  0  0  0  0  0  0  0
    4.9802   -2.0796    0.0000 H   0  0  0  0  0  0  0  0  0  0  0  0
    0.0000   -1.1400    0.0000 N   0  0  0  0  0  0  0  0  0  0  0  0
   -0.0000   -2.6400    0.0000 C   0  0  0  0  0  0  0  0  0  0  0  0
   -1.4772   -2.3795    0.0000 H   0  0  0  0  0  0  0  0  0  0  0  0
   -0.5130   -4.0495    0.0000 H   0  0  0  0  0  0  0  0  0  0  0  0
    1.2990   -3.3900    0.0000 C   0  0  0  0  0  0  0  0  0  0  0  0
    2.7762   -3.6505    0.0000 H   0  0  0  0  0  0  0  0  0  0  0  0
    1.8121   -1.9805    0.0000 H   0  0  0  0  0  0  0  0  0  0  0  0
    1.2990   -4.8900    0.0000 C   0  0  0  0  0  0  0  0  0  0  0  0
    2.7762   -4.6295    0.0000 H   0  0  0  0  0  0  0  0  0  0  0  0
    1.8121   -6.2995    0.0000 H   0  0  0  0  0  0  0  0  0  0  0  0
   -0.0000   -5.6400    0.0000 O   0  0  0  0  0  0  0  0  0  0  0  0
   -0.0000   -7.1400    0.0000 H   0  0  0  0  0  0  0  0  0  0  0  0
   -1.3500   -0.4900    0.0000 C   0  0  0  0  0  0  0  0  0  0  0  0
   -1.6900    0.9800    0.0000 C   0  0  0  0  0  0  0  0  0  0  0  0
   -3.1200    1.4200    0.0000 C   0  0  0  0  0  0  0  0  0  0  0  0
   -3.4541    2.8823    0.0000 H   0  0  0  0  0  0  0  0  0  0  0  0
   -4.2200    0.4000    0.0000 C   0  0  0  0  0  0  0  0  0  0  0  0
   -5.6543    0.8392    0.0000 H   0  0  0  0  0  0  0  0  0  0  0  0
   -3.8800   -1.0600    0.0000 C   0  0  0  0  0  0  0  0  0  0  0  0
   -4.9802   -2.0796    0.0000 H   0  0  0  0  0  0  0  0  0  0  0  0
   -2.4500   -1.5100    0.0000 C   0  0  0  0  0  0  0  0  0  0  0  0
   -2.1206   -2.9734    0.0000 H   0  0  0  0  0  0  0  0  0  0  0  0
   -0.7500    2.1500    0.0000 C   0  0  0  0  0  0  0  0  0  0  0  0
   -0.4145    3.6120    0.0000 H   0  0  0  0  0  0  0  0  0  0  0  0
   -2.0999    2.8041    0.0000 H   0  0  0  0  0  0  0  0  0  0  0  0
    0.7500    2.1500    0.0000 C   0  0  0  0  0  0  0  0  0  0  0  0
    2.0999    2.8041    0.0000 H   0  0  0  0  0  0  0  0  0  0  0  0
    0.4145    3.6120    0.0000 H   0  0  0  0  0  0  0  0  0  0  0  0
  1  2  1  0  0  0  0 
  1  3  2  0  0  0  0 
  3  4  1  0  0  0  0 
  3  5  1  0  0  0  0 
  5  6  2  0  0  0  0 
  6  7  1  0  0  0  0 
  7  8  1  0  0  0  0 
  7  9  2  0  0  0  0 
  1  9  1  0  0  0  0 
  9 10  1  0  0  0  0 
  6 11  1  0  0  0  0 
 11 12  1  0  0  0  0 
 12 13  1  0  0  0  0 
 12 14  1  0  0  0  0 
 12 15  1  0  0  0  0 
 15 16  1  0  0  0  0 
 15 17  1  0  0  0  0 
 15 18  1  0  0  0  0 
 18 19  1  0  0  0  0 
 18 20  1  0  0  0  0 
 18 21  1  0  0  0  0 
 21 22  1  0  0  0  0 
 11 23  1  0  0  0  0 
 23 24  2  0  0  0  0 
 24 25  1  0  0  0  0 
 25 26  1  0  0  0  0 
 25 27  2  0  0  0  0 
 27 28  1  0  0  0  0 
 27 29  1  0  0  0  0 
 29 30  1  0  0  0  0 
 29 31  2  0  0  0  0 
 23 31  1  0  0  0  0 
 31 32  1  0  0  0  0 
 24 33  1  0  0  0  0 
 33 34  1  0  0  0  0 
 33 35  1  0  0  0  0 
 33 36  1  0  0  0  0 
  5 36  1  0  0  0  0 
 36 37  1  0  0  0  0 
 36 38  1  0  0  0  0 
M  END
> <Rank>
10

> <Priority_score>
0.328

> <Reaction_type>
N-dealkylation_(tertiaryN-CH2-alkyl)

> <Parent_ID>
30

> <Parent_InChI>
InChI=1S/C19H24N2/c1-20(2)14-7-15-21-18-10-5-3-8-16(18)12-13-17-9-4-6-11-19(17)21/h3-6,8-11H,7,12-15H2,1-2H3

> <Parent_SMILES>
CN(C)CCCN1c2ccccc2CCc2ccccc21

$$$$
Molecule 30_metabolite 13
  CDK     0516241031

 46 48  0  0  0  0  0  0  0  0999 V2000
    2.5981   -7.6200    0.0000 C   0  0  0  0  0  0  0  0  0  0  0  0
    1.2990   -8.3700    0.0000 H   0  0  0  0  0  0  0  0  0  0  0  0
    4.0753   -7.3595    0.0000 H   0  0  0  0  0  0  0  0  0  0  0  0
    3.1111   -9.0295    0.0000 H   0  0  0  0  0  0  0  0  0  0  0  0
    2.5981   -5.6400    0.0000 N   0  0  0  0  0  0  0  0  0  0  0  0
    3.8971   -4.8900    0.0000 C   0  0  0  0  0  0  0  0  0  0  0  0
    3.8971   -3.3900    0.0000 H   0  0  0  0  0  0  0  0  0  0  0  0
    5.3743   -4.6295    0.0000 H   0  0  0  0  0  0  0  0  0  0  0  0
    4.4101   -6.2995    0.0000 H   0  0  0  0  0  0  0  0  0  0  0  0
    1.2990   -4.8900    0.0000 C   0  0  0  0  0  0  0  0  0  0  0  0
   -0.1782   -4.6295    0.0000 H   0  0  0  0  0  0  0  0  0  0  0  0
    1.2990   -2.9100    0.0000 C   0  0  0  0  0  0  0  0  0  0  0  0
    2.7762   -3.1705    0.0000 H   0  0  0  0  0  0  0  0  0  0  0  0
    1.8121   -1.5005    0.0000 H   0  0  0  0  0  0  0  0  0  0  0  0
    0.0000   -2.1600    0.0000 C   0  0  0  0  0  0  0  0  0  0  0  0
   -1.4772   -1.8995    0.0000 H   0  0  0  0  0  0  0  0  0  0  0  0
   -0.5130   -3.5695    0.0000 H   0  0  0  0  0  0  0  0  0  0  0  0
    0.0000   -0.6600    0.0000 N   0  0  0  0  0  0  0  0  0  0  0  0
    1.3500   -0.0100    0.0000 C   0  0  0  0  0  0  0  0  0  0  0  0
    1.6900    1.4600    0.0000 C   0  0  0  0  0  0  0  0  0  0  0  0
    3.1200    1.9000    0.0000 C   0  0  0  0  0  0  0  0  0  0  0  0
    3.4541    3.3623    0.0000 H   0  0  0  0  0  0  0  0  0  0  0  0
    4.2200    0.8800    0.0000 C   0  0  0  0  0  0  0  0  0  0  0  0
    5.6543    1.3192    0.0000 H   0  0  0  0  0  0  0  0  0  0  0  0
    3.8800   -0.5800    0.0000 C   0  0  0  0  0  0  0  0  0  0  0  0
    4.9802   -1.5996    0.0000 H   0  0  0  0  0  0  0  0  0  0  0  0
    2.4500   -1.0300    0.0000 C   0  0  0  0  0  0  0  0  0  0  0  0
    2.1206   -2.4934    0.0000 H   0  0  0  0  0  0  0  0  0  0  0  0
    0.7500    2.6300    0.0000 C   0  0  0  0  0  0  0  0  0  0  0  0
    2.0999    3.2841    0.0000 H   0  0  0  0  0  0  0  0  0  0  0  0
    0.4145    4.0920    0.0000 H   0  0  0  0  0  0  0  0  0  0  0  0
   -0.7500    2.6300    0.0000 C   0  0  0  0  0  0  0  0  0  0  0  0
   -0.4145    4.0920    0.0000 H   0  0  0  0  0  0  0  0  0  0  0  0
   -2.0999    3.2841    0.0000 H   0  0  0  0  0  0  0  0  0  0  0  0
   -1.6900    1.4600    0.0000 C   0  0  0  0  0  0  0  0  0  0  0  0
   -1.3500   -0.0100    0.0000 C   0  0  0  0  0  0  0  0  0  0  0  0
   -2.4500   -1.0300    0.0000 C   0  0  0  0  0  0  0  0  0  0  0  0
   -2.1206   -2.4934    0.0000 H   0  0  0  0  0  0  0  0  0  0  0  0
   -3.8800   -0.5800    0.0000 C   0  0  0  0  0  0  0  0  0  0  0  0
   -4.9802   -1.5996    0.0000 H   0  0  0  0  0  0  0  0  0  0  0  0
   -4.2200    0.8800    0.0000 C   0  0  0  0  0  0  0  0  0  0  0  0
   -5.6543    1.3192    0.0000 H   0  0  0  0  0  0  0  0  0  0  0  0
   -3.1200    1.9000    0.0000 C   0  0  0  0  0  0  0  0  0  0  0  0
   -3.4541    3.3623    0.0000 H   0  0  0  0  0  0  0  0  0  0  0  0
    0.7860   -6.2995    0.0000 O   0  0  0  0  0  0  0  0  0  0  0  0
   -0.6912   -6.5600    0.0000 H   0  0  0  0  0  0  0  0  0  0  0  0
  1  2  1  0  0  0  0 
  1  3  1  0  0  0  0 
  1  4  1  0  0  0  0 
  1  5  1  0  0  0  0 
  5  6  1  0  0  0  0 
  6  7  1  0  0  0  0 
  6  8  1  0  0  0  0 
  6  9  1  0  0  0  0 
  5 10  1  0  0  0  0 
 10 11  1  0  0  0  0 
 10 12  1  0  0  0  0 
 12 13  1  0  0  0  0 
 12 14  1  0  0  0  0 
 12 15  1  0  0  0  0 
 15 16  1  0  0  0  0 
 15 17  1  0  0  0  0 
 15 18  1  0  0  0  0 
 18 19  1  0  0  0  0 
 19 20  2  0  0  0  0 
 20 21  1  0  0  0  0 
 21 22  1  0  0  0  0 
 21 23  2  0  0  0  0 
 23 24  1  0  0  0  0 
 23 25  1  0  0  0  0 
 25 26  1  0  0  0  0 
 25 27  2  0  0  0  0 
 19 27  1  0  0  0  0 
 27 28  1  0  0  0  0 
 20 29  1  0  0  0  0 
 29 30  1  0  0  0  0 
 29 31  1  0  0  0  0 
 29 32  1  0  0  0  0 
 32 33  1  0  0  0  0 
 32 34  1  0  0  0  0 
 32 35  1  0  0  0  0 
 35 36  2  0  0  0  0 
 18 36  1  0  0  0  0 
 36 37  1  0  0  0  0 
 37 38  1  0  0  0  0 
 37 39  2  0  0  0  0 
 39 40  1  0  0  0  0 
 39 41  1  0  0  0  0 
 41 42  1  0  0  0  0 
 41 43  2  0  0  0  0 
 35 43  1  0  0  0  0 
 43 44  1  0  0  0  0 
 10 45  1  0  0  0  0 
 45 46  1  0  0  0  0 
M  END
> <Rank>
13

> <Priority_score>
0.25785038763329804

> <Reaction_type>
aliphatic hydroxylation

> <Parent_ID>
30

> <Parent_InChI>
InChI=1S/C19H24N2/c1-20(2)14-7-15-21-18-10-5-3-8-16(18)12-13-17-9-4-6-11-19(17)21/h3-6,8-11H,7,12-15H2,1-2H3

> <Parent_SMILES>
CN(C)CCCN1c2ccccc2CCc2ccccc21

$$$$
Molecule 30_metabolite 14
  CDK     0516241031

 46 48  0  0  0  0  0  0  0  0999 V2000
   -0.0000   -7.3100    0.0000 C   0  0  0  0  0  0  0  0  0  0  0  0
    1.2990   -8.0600    0.0000 H   0  0  0  0  0  0  0  0  0  0  0  0
   -1.4772   -7.0495    0.0000 H   0  0  0  0  0  0  0  0  0  0  0  0
   -0.5130   -8.7195    0.0000 H   0  0  0  0  0  0  0  0  0  0  0  0
   -0.0000   -5.3300    0.0000 N   0  0  0  0  0  0  0  0  0  0  0  0
   -1.2990   -4.5800    0.0000 C   0  0  0  0  0  0  0  0  0  0  0  0
   -1.2990   -3.0800    0.0000 H   0  0  0  0  0  0  0  0  0  0  0  0
   -2.7762   -4.3195    0.0000 H   0  0  0  0  0  0  0  0  0  0  0  0
   -1.8121   -5.9895    0.0000 H   0  0  0  0  0  0  0  0  0  0  0  0
    1.2990   -4.5800    0.0000 C   0  0  0  0  0  0  0  0  0  0  0  0
    2.7762   -4.3195    0.0000 H   0  0  0  0  0  0  0  0  0  0  0  0
    1.8121   -5.9895    0.0000 H   0  0  0  0  0  0  0  0  0  0  0  0
    1.2990   -3.0800    0.0000 C   0  0  0  0  0  0  0  0  0  0  0  0
    2.7762   -3.3405    0.0000 H   0  0  0  0  0  0  0  0  0  0  0  0
    1.8121   -1.6705    0.0000 H   0  0  0  0  0  0  0  0  0  0  0  0
    0.0000   -2.3300    0.0000 C   0  0  0  0  0  0  0  0  0  0  0  0
   -1.4772   -2.0695    0.0000 H   0  0  0  0  0  0  0  0  0  0  0  0
   -0.5130   -3.7395    0.0000 H   0  0  0  0  0  0  0  0  0  0  0  0
    0.0000   -0.8300    0.0000 N   0  0  0  0  0  0  0  0  0  0  0  0
   -1.3500   -0.1800    0.0000 C   0  0  0  0  0  0  0  0  0  0  0  0
   -1.6900    1.2800    0.0000 C   0  0  0  0  0  0  0  0  0  0  0  0
   -3.1200    1.7200    0.0000 C   0  0  0  0  0  0  0  0  0  0  0  0
   -3.4541    3.1823    0.0000 H   0  0  0  0  0  0  0  0  0  0  0  0
   -4.2200    0.7000    0.0000 C   0  0  0  0  0  0  0  0  0  0  0  0
   -5.6543    1.1392    0.0000 H   0  0  0  0  0  0  0  0  0  0  0  0
   -3.8800   -0.7600    0.0000 C   0  0  0  0  0  0  0  0  0  0  0  0
   -4.9770   -1.7831    0.0000 H   0  0  0  0  0  0  0  0  0  0  0  0
   -2.4500   -1.2000    0.0000 C   0  0  0  0  0  0  0  0  0  0  0  0
   -2.1159   -2.6623    0.0000 H   0  0  0  0  0  0  0  0  0  0  0  0
   -0.7500    2.4500    0.0000 C   0  0  0  0  0  0  0  0  0  0  0  0
   -0.4145    3.9120    0.0000 H   0  0  0  0  0  0  0  0  0  0  0  0
   -2.0999    3.1041    0.0000 H   0  0  0  0  0  0  0  0  0  0  0  0
    0.7500    2.4500    0.0000 C   0  0  0  0  0  0  0  0  0  0  0  0
    2.0999    3.1041    0.0000 H   0  0  0  0  0  0  0  0  0  0  0  0
    1.6900    1.2800    0.0000 C   0  0  0  0  0  0  0  0  0  0  0  0
    1.3500   -0.1800    0.0000 C   0  0  0  0  0  0  0  0  0  0  0  0
    2.4500   -1.2000    0.0000 C   0  0  0  0  0  0  0  0  0  0  0  0
    2.1159   -2.6623    0.0000 H   0  0  0  0  0  0  0  0  0  0  0  0
    3.8800   -0.7600    0.0000 C   0  0  0  0  0  0  0  0  0  0  0  0
    4.9770   -1.7831    0.0000 H   0  0  0  0  0  0  0  0  0  0  0  0
    4.2200    0.7000    0.0000 C   0  0  0  0  0  0  0  0  0  0  0  0
    5.6543    1.1392    0.0000 H   0  0  0  0  0  0  0  0  0  0  0  0
    3.1200    1.7200    0.0000 C   0  0  0  0  0  0  0  0  0  0  0  0
    3.4541    3.1823    0.0000 H   0  0  0  0  0  0  0  0  0  0  0  0
    0.4145    3.9120    0.0000 O   0  0  0  0  0  0  0  0  0  0  0  0
    1.5128    4.9336    0.0000 H   0  0  0  0  0  0  0  0  0  0  0  0
  1  2  1  0  0  0  0 
  1  3  1  0  0  0  0 
  1  4  1  0  0  0  0 
  1  5  1  0  0  0  0 
  5  6  1  0  0  0  0 
  6  7  1  0  0  0  0 
  6  8  1  0  0  0  0 
  6  9  1  0  0  0  0 
  5 10  1  0  0  0  0 
 10 11  1  0  0  0  0 
 10 12  1  0  0  0  0 
 10 13  1  0  0  0  0 
 13 14  1  0  0  0  0 
 13 15  1  0  0  0  0 
 13 16  1  0  0  0  0 
 16 17  1  0  0  0  0 
 16 18  1  0  0  0  0 
 16 19  1  0  0  0  0 
 19 20  1  0  0  0  0 
 20 21  2  0  0  0  0 
 21 22  1  0  0  0  0 
 22 23  1  0  0  0  0 
 22 24  2  0  0  0  0 
 24 25  1  0  0  0  0 
 24 26  1  0  0  0  0 
 26 27  1  0  0  0  0 
 26 28  2  0  0  0  0 
 20 28  1  0  0  0  0 
 28 29  1  0  0  0  0 
 21 30  1  0  0  0  0 
 30 31  1  0  0  0  0 
 30 32  1  0  0  0  0 
 30 33  1  0  0  0  0 
 33 34  1  0  0  0  0 
 33 35  1  0  0  0  0 
 35 36  2  0  0  0  0 
 19 36  1  0  0  0  0 
 36 37  1  0  0  0  0 
 37 38  1  0  0  0  0 
 37 39  2  0  0  0  0 
 39 40  1  0  0  0  0 
 39 41  1  0  0  0  0 
 41 42  1  0  0  0  0 
 41 43  2  0  0  0  0 
 35 43  1  0  0  0  0 
 43 44  1  0  0  0  0 
 33 45  1  0  0  0  0 
 45 46  1  0  0  0  0 
M  END
> <Rank>
14

> <Priority_score>
0.1307610080149657

> <Reaction_type>
benzylic_hydroxylation_(c-CH2-CR)

> <Parent_ID>
30

> <Parent_InChI>
InChI=1S/C19H24N2/c1-20(2)14-7-15-21-18-10-5-3-8-16(18)12-13-17-9-4-6-11-19(17)21/h3-6,8-11H,7,12-15H2,1-2H3

> <Parent_SMILES>
CN(C)CCCN1c2ccccc2CCc2ccccc21

$$$$
Molecule 30_metabolite 15
  CDK     0516241031

 43 45  0  0  0  0  0  0  0  0999 V2000
   -0.0000   -7.1400    0.0000 C   0  0  0  0  0  0  0  0  0  0  0  0
    1.2990   -7.8900    0.0000 H   0  0  0  0  0  0  0  0  0  0  0  0
   -1.4772   -6.8795    0.0000 H   0  0  0  0  0  0  0  0  0  0  0  0
   -0.5130   -8.5495    0.0000 H   0  0  0  0  0  0  0  0  0  0  0  0
   -0.0000   -5.1600    0.0000 N   0  0  0  0  0  0  0  0  0  0  0  0
   -1.2990   -4.4100    0.0000 C   0  0  0  0  0  0  0  0  0  0  0  0
   -1.2990   -2.9100    0.0000 H   0  0  0  0  0  0  0  0  0  0  0  0
   -2.7762   -4.1495    0.0000 H   0  0  0  0  0  0  0  0  0  0  0  0
   -1.8121   -5.8195    0.0000 H   0  0  0  0  0  0  0  0  0  0  0  0
    1.2990   -4.4100    0.0000 C   0  0  0  0  0  0  0  0  0  0  0  0
    2.7762   -4.1495    0.0000 H   0  0  0  0  0  0  0  0  0  0  0  0
    1.8121   -5.8195    0.0000 H   0  0  0  0  0  0  0  0  0  0  0  0
    1.2990   -2.9100    0.0000 C   0  0  0  0  0  0  0  0  0  0  0  0
    2.7762   -3.1705    0.0000 H   0  0  0  0  0  0  0  0  0  0  0  0
    1.8121   -1.5005    0.0000 H   0  0  0  0  0  0  0  0  0  0  0  0
    0.0000   -2.1600    0.0000 C   0  0  0  0  0  0  0  0  0  0  0  0
   -1.4772   -1.8995    0.0000 H   0  0  0  0  0  0  0  0  0  0  0  0
   -0.5130   -3.5695    0.0000 H   0  0  0  0  0  0  0  0  0  0  0  0
    0.0000   -0.6600    0.0000 N   0  0  0  0  0  0  0  0  0  0  0  0
    1.3500   -0.0100    0.0000 C   0  0  0  0  0  0  0  0  0  0  0  0
    1.6900    1.4600    0.0000 C   0  0  0  0  0  0  0  0  0  0  0  0
    3.1200    1.9000    0.0000 C   0  0  0  0  0  0  0  0  0  0  0  0
    3.4541    3.3623    0.0000 H   0  0  0  0  0  0  0  0  0  0  0  0
    4.2200    0.8800    0.0000 C   0  0  0  0  0  0  0  0  0  0  0  0
    5.6543    1.3192    0.0000 H   0  0  0  0  0  0  0  0  0  0  0  0
    3.8800   -0.5800    0.0000 C   0  0  0  0  0  0  0  0  0  0  0  0
    4.9802   -1.5996    0.0000 H   0  0  0  0  0  0  0  0  0  0  0  0
    2.4500   -1.0300    0.0000 C   0  0  0  0  0  0  0  0  0  0  0  0
    2.1206   -2.4934    0.0000 H   0  0  0  0  0  0  0  0  0  0  0  0
    0.7500    2.6300    0.0000 C   0  0  0  0  0  0  0  0  0  0  0  0
    1.3984    3.9826    0.0000 H   0  0  0  0  0  0  0  0  0  0  0  0
   -0.7500    2.6300    0.0000 C   0  0  0  0  0  0  0  0  0  0  0  0
   -1.3984    3.9826    0.0000 H   0  0  0  0  0  0  0  0  0  0  0  0
   -1.6900    1.4600    0.0000 C   0  0  0  0  0  0  0  0  0  0  0  0
   -1.3500   -0.0100    0.0000 C   0  0  0  0  0  0  0  0  0  0  0  0
   -2.4500   -1.0300    0.0000 C   0  0  0  0  0  0  0  0  0  0  0  0
   -2.1206   -2.4934    0.0000 H   0  0  0  0  0  0  0  0  0  0  0  0
   -3.8800   -0.5800    0.0000 C   0  0  0  0  0  0  0  0  0  0  0  0
   -4.9802   -1.5996    0.0000 H   0  0  0  0  0  0  0  0  0  0  0  0
   -4.2200    0.8800    0.0000 C   0  0  0  0  0  0  0  0  0  0  0  0
   -5.6543    1.3192    0.0000 H   0  0  0  0  0  0  0  0  0  0  0  0
   -3.1200    1.9000    0.0000 C   0  0  0  0  0  0  0  0  0  0  0  0
   -3.4541    3.3623    0.0000 H   0  0  0  0  0  0  0  0  0  0  0  0
  1  2  1  0  0  0  0 
  1  3  1  0  0  0  0 
  1  4  1  0  0  0  0 
  1  5  1  0  0  0  0 
  5  6  1  0  0  0  0 
  6  7  1  0  0  0  0 
  6  8  1  0  0  0  0 
  6  9  1  0  0  0  0 
  5 10  1  0  0  0  0 
 10 11  1  0  0  0  0 
 10 12  1  0  0  0  0 
 10 13  1  0  0  0  0 
 13 14  1  0  0  0  0 
 13 15  1  0  0  0  0 
 13 16  1  0  0  0  0 
 16 17  1  0  0  0  0 
 16 18  1  0  0  0  0 
 16 19  1  0  0  0  0 
 19 20  1  0  0  0  0 
 20 21  2  0  0  0  0 
 21 22  1  0  0  0  0 
 22 23  1  0  0  0  0 
 22 24  2  0  0  0  0 
 24 25  1  0  0  0  0 
 24 26  1  0  0  0  0 
 26 27  1  0  0  0  0 
 26 28  2  0  0  0  0 
 20 28  1  0  0  0  0 
 28 29  1  0  0  0  0 
 21 30  1  0  0  0  0 
 30 31  1  0  0  0  0 
 30 32  2  0  0  0  0 
 32 33  1  0  0  0  0 
 32 34  1  0  0  0  0 
 34 35  2  0  0  0  0 
 19 35  1  0  0  0  0 
 35 36  1  0  0  0  0 
 36 37  1  0  0  0  0 
 36 38  2  0  0  0  0 
 38 39  1  0  0  0  0 
 38 40  1  0  0  0  0 
 40 41  1  0  0  0  0 
 40 42  2  0  0  0  0 
 34 42  1  0  0  0  0 
 42 43  1  0  0  0  0 
M  END
> <Rank>
14

> <Priority_score>
0.1307610080149657

> <Reaction_type>
dehydrogenation_(alpha,beta_to_SP2_both_sides)

> <Parent_ID>
30

> <Parent_InChI>
InChI=1S/C19H24N2/c1-20(2)14-7-15-21-18-10-5-3-8-16(18)12-13-17-9-4-6-11-19(17)21/h3-6,8-11H,7,12-15H2,1-2H3

> <Parent_SMILES>
CN(C)CCCN1c2ccccc2CCc2ccccc21

$$$$
Molecule 30_metabolite 16
  CDK     0516241031

 46 48  0  0  0  0  0  0  0  0999 V2000
   -0.0000   -7.3100    0.0000 C   0  0  0  0  0  0  0  0  0  0  0  0
    1.2990   -8.0600    0.0000 H   0  0  0  0  0  0  0  0  0  0  0  0
   -1.4772   -7.0495    0.0000 H   0  0  0  0  0  0  0  0  0  0  0  0
   -0.5130   -8.7195    0.0000 H   0  0  0  0  0  0  0  0  0  0  0  0
   -0.0000   -5.3300    0.0000 N   0  0  0  0  0  0  0  0  0  0  0  0
   -1.2990   -4.5800    0.0000 C   0  0  0  0  0  0  0  0  0  0  0  0
   -1.2990   -3.0800    0.0000 H   0  0  0  0  0  0  0  0  0  0  0  0
   -2.7762   -4.3195    0.0000 H   0  0  0  0  0  0  0  0  0  0  0  0
   -1.8121   -5.9895    0.0000 H   0  0  0  0  0  0  0  0  0  0  0  0
    1.2990   -4.5800    0.0000 C   0  0  0  0  0  0  0  0  0  0  0  0
    2.7762   -4.3195    0.0000 H   0  0  0  0  0  0  0  0  0  0  0  0
    1.8121   -5.9895    0.0000 H   0  0  0  0  0  0  0  0  0  0  0  0
    1.2990   -3.0800    0.0000 C   0  0  0  0  0  0  0  0  0  0  0  0
    2.7762   -3.3405    0.0000 H   0  0  0  0  0  0  0  0  0  0  0  0
    1.8121   -1.6705    0.0000 H   0  0  0  0  0  0  0  0  0  0  0  0
    0.0000   -2.3300    0.0000 C   0  0  0  0  0  0  0  0  0  0  0  0
   -1.4772   -2.0695    0.0000 H   0  0  0  0  0  0  0  0  0  0  0  0
   -0.5130   -3.7395    0.0000 H   0  0  0  0  0  0  0  0  0  0  0  0
    0.0000   -0.8300    0.0000 N   0  0  0  0  0  0  0  0  0  0  0  0
   -1.3500   -0.1800    0.0000 C   0  0  0  0  0  0  0  0  0  0  0  0
   -1.6900    1.2800    0.0000 C   0  0  0  0  0  0  0  0  0  0  0  0
   -3.1200    1.7200    0.0000 C   0  0  0  0  0  0  0  0  0  0  0  0
   -3.4541    3.1823    0.0000 H   0  0  0  0  0  0  0  0  0  0  0  0
   -4.2200    0.7000    0.0000 C   0  0  0  0  0  0  0  0  0  0  0  0
   -5.6543    1.1392    0.0000 H   0  0  0  0  0  0  0  0  0  0  0  0
   -3.8800   -0.7600    0.0000 C   0  0  0  0  0  0  0  0  0  0  0  0
   -4.9770   -1.7831    0.0000 H   0  0  0  0  0  0  0  0  0  0  0  0
   -2.4500   -1.2000    0.0000 C   0  0  0  0  0  0  0  0  0  0  0  0
   -2.1159   -2.6623    0.0000 H   0  0  0  0  0  0  0  0  0  0  0  0
   -0.7500    2.4500    0.0000 C   0  0  0  0  0  0  0  0  0  0  0  0
   -0.4145    3.9120    0.0000 H   0  0  0  0  0  0  0  0  0  0  0  0
   -2.0999    3.1041    0.0000 H   0  0  0  0  0  0  0  0  0  0  0  0
    0.7500    2.4500    0.0000 C   0  0  0  0  0  0  0  0  0  0  0  0
    2.0999    3.1041    0.0000 H   0  0  0  0  0  0  0  0  0  0  0  0
    0.4145    3.9120    0.0000 H   0  0  0  0  0  0  0  0  0  0  0  0
    1.6900    1.2800    0.0000 C   0  0  0  0  0  0  0  0  0  0  0  0
    3.1200    1.7200    0.0000 C   0  0  0  0  0  0  0  0  0  0  0  0
    3.4541    3.1823    0.0000 H   0  0  0  0  0  0  0  0  0  0  0  0
    4.2200    0.7000    0.0000 C   0  0  0  0  0  0  0  0  0  0  0  0
    5.6543    1.1392    0.0000 H   0  0  0  0  0  0  0  0  0  0  0  0
    3.8800   -0.7600    0.0000 C   0  0  0  0  0  0  0  0  0  0  0  0
    2.4500   -1.2000    0.0000 C   0  0  0  0  0  0  0  0  0  0  0  0
    2.1159   -2.6623    0.0000 H   0  0  0  0  0  0  0  0  0  0  0  0
    1.3500   -0.1800    0.0000 C   0  0  0  0  0  0  0  0  0  0  0  0
    4.9770   -1.7831    0.0000 O   0  0  0  0  0  0  0  0  0  0  0  0
    6.4115   -1.3446    0.0000 H   0  0  0  0  0  0  0  0  0  0  0  0
  1  2  1  0  0  0  0 
  1  3  1  0  0  0  0 
  1  4  1  0  0  0  0 
  1  5  1  0  0  0  0 
  5  6  1  0  0  0  0 
  6  7  1  0  0  0  0 
  6  8  1  0  0  0  0 
  6  9  1  0  0  0  0 
  5 10  1  0  0  0  0 
 10 11  1  0  0  0  0 
 10 12  1  0  0  0  0 
 10 13  1  0  0  0  0 
 13 14  1  0  0  0  0 
 13 15  1  0  0  0  0 
 13 16  1  0  0  0  0 
 16 17  1  0  0  0  0 
 16 18  1  0  0  0  0 
 16 19  1  0  0  0  0 
 19 20  1  0  0  0  0 
 20 21  2  0  0  0  0 
 21 22  1  0  0  0  0 
 22 23  1  0  0  0  0 
 22 24  2  0  0  0  0 
 24 25  1  0  0  0  0 
 24 26  1  0  0  0  0 
 26 27  1  0  0  0  0 
 26 28  2  0  0  0  0 
 20 28  1  0  0  0  0 
 28 29  1  0  0  0  0 
 21 30  1  0  0  0  0 
 30 31  1  0  0  0  0 
 30 32  1  0  0  0  0 
 30 33  1  0  0  0  0 
 33 34  1  0  0  0  0 
 33 35  1  0  0  0  0 
 33 36  1  0  0  0  0 
 36 37  2  0  0  0  0 
 37 38  1  0  0  0  0 
 37 39  1  0  0  0  0 
 39 40  1  0  0  0  0 
 39 41  2  0  0  0  0 
 41 42  1  0  0  0  0 
 42 43  1  0  0  0  0 
 42 44  2  0  0  0  0 
 36 44  1  0  0  0  0 
 19 44  1  0  0  0  0 
 41 45  1  0  0  0  0 
 45 46  1  0  0  0  0 
M  END
> <Rank>
14

> <Priority_score>
0.1307610080149657

> <Reaction_type>
aromatic_hydroxylation_(para_to_carbon)

> <Parent_ID>
30

> <Parent_InChI>
InChI=1S/C19H24N2/c1-20(2)14-7-15-21-18-10-5-3-8-16(18)12-13-17-9-4-6-11-19(17)21/h3-6,8-11H,7,12-15H2,1-2H3

> <Parent_SMILES>
CN(C)CCCN1c2ccccc2CCc2ccccc21

$$$$
Molecule 30_metabolite 17
  CDK     0516241031

 46 48  0  0  0  0  0  0  0  0999 V2000
   -0.0000   -7.3100    0.0000 C   0  0  0  0  0  0  0  0  0  0  0  0
    1.2990   -8.0600    0.0000 H   0  0  0  0  0  0  0  0  0  0  0  0
   -1.4772   -7.0495    0.0000 H   0  0  0  0  0  0  0  0  0  0  0  0
   -0.5130   -8.7195    0.0000 H   0  0  0  0  0  0  0  0  0  0  0  0
   -0.0000   -5.3300    0.0000 N   0  0  0  0  0  0  0  0  0  0  0  0
   -1.2990   -4.5800    0.0000 C   0  0  0  0  0  0  0  0  0  0  0  0
   -1.2990   -3.0800    0.0000 H   0  0  0  0  0  0  0  0  0  0  0  0
   -2.7762   -4.3195    0.0000 H   0  0  0  0  0  0  0  0  0  0  0  0
   -1.8121   -5.9895    0.0000 H   0  0  0  0  0  0  0  0  0  0  0  0
    1.2990   -4.5800    0.0000 C   0  0  0  0  0  0  0  0  0  0  0  0
    2.7762   -4.3195    0.0000 H   0  0  0  0  0  0  0  0  0  0  0  0
    1.8121   -5.9895    0.0000 H   0  0  0  0  0  0  0  0  0  0  0  0
    1.2990   -3.0800    0.0000 C   0  0  0  0  0  0  0  0  0  0  0  0
    2.7762   -3.3405    0.0000 H   0  0  0  0  0  0  0  0  0  0  0  0
    1.8121   -1.6705    0.0000 H   0  0  0  0  0  0  0  0  0  0  0  0
    0.0000   -2.3300    0.0000 C   0  0  0  0  0  0  0  0  0  0  0  0
   -1.4772   -2.0695    0.0000 H   0  0  0  0  0  0  0  0  0  0  0  0
   -0.5130   -3.7395    0.0000 H   0  0  0  0  0  0  0  0  0  0  0  0
    0.0000   -0.8300    0.0000 N   0  0  0  0  0  0  0  0  0  0  0  0
    1.3500   -0.1800    0.0000 C   0  0  0  0  0  0  0  0  0  0  0  0
    1.6900    1.2800    0.0000 C   0  0  0  0  0  0  0  0  0  0  0  0
    3.1200    1.7200    0.0000 C   0  0  0  0  0  0  0  0  0  0  0  0
    3.4541    3.1823    0.0000 H   0  0  0  0  0  0  0  0  0  0  0  0
    4.2200    0.7000    0.0000 C   0  0  0  0  0  0  0  0  0  0  0  0
    5.6543    1.1392    0.0000 H   0  0  0  0  0  0  0  0  0  0  0  0
    3.8800   -0.7600    0.0000 C   0  0  0  0  0  0  0  0  0  0  0  0
    4.9770   -1.7831    0.0000 H   0  0  0  0  0  0  0  0  0  0  0  0
    2.4500   -1.2000    0.0000 C   0  0  0  0  0  0  0  0  0  0  0  0
    2.1159   -2.6623    0.0000 H   0  0  0  0  0  0  0  0  0  0  0  0
    0.7500    2.4500    0.0000 C   0  0  0  0  0  0  0  0  0  0  0  0
    0.4145    3.9120    0.0000 H   0  0  0  0  0  0  0  0  0  0  0  0
    2.0999    3.1041    0.0000 H   0  0  0  0  0  0  0  0  0  0  0  0
   -0.7500    2.4500    0.0000 C   0  0  0  0  0  0  0  0  0  0  0  0
   -2.0999    3.1041    0.0000 H   0  0  0  0  0  0  0  0  0  0  0  0
   -0.4145    3.9120    0.0000 H   0  0  0  0  0  0  0  0  0  0  0  0
   -1.6900    1.2800    0.0000 C   0  0  0  0  0  0  0  0  0  0  0  0
   -3.1200    1.7200    0.0000 C   0  0  0  0  0  0  0  0  0  0  0  0
   -3.4541    3.1823    0.0000 H   0  0  0  0  0  0  0  0  0  0  0  0
   -4.2200    0.7000    0.0000 C   0  0  0  0  0  0  0  0  0  0  0  0
   -5.6543    1.1392    0.0000 H   0  0  0  0  0  0  0  0  0  0  0  0
   -3.8800   -0.7600    0.0000 C   0  0  0  0  0  0  0  0  0  0  0  0
   -4.9770   -1.7831    0.0000 H   0  0  0  0  0  0  0  0  0  0  0  0
   -2.4500   -1.2000    0.0000 C   0  0  0  0  0  0  0  0  0  0  0  0
   -1.3500   -0.1800    0.0000 C   0  0  0  0  0  0  0  0  0  0  0  0
   -2.1159   -2.6623    0.0000 O   0  0  0  0  0  0  0  0  0  0  0  0
   -3.2153   -3.6828    0.0000 H   0  0  0  0  0  0  0  0  0  0  0  0
  1  2  1  0  0  0  0 
  1  3  1  0  0  0  0 
  1  4  1  0  0  0  0 
  1  5  1  0  0  0  0 
  5  6  1  0  0  0  0 
  6  7  1  0  0  0  0 
  6  8  1  0  0  0  0 
  6  9  1  0  0  0  0 
  5 10  1  0  0  0  0 
 10 11  1  0  0  0  0 
 10 12  1  0  0  0  0 
 10 13  1  0  0  0  0 
 13 14  1  0  0  0  0 
 13 15  1  0  0  0  0 
 13 16  1  0  0  0  0 
 16 17  1  0  0  0  0 
 16 18  1  0  0  0  0 
 16 19  1  0  0  0  0 
 19 20  1  0  0  0  0 
 20 21  2  0  0  0  0 
 21 22  1  0  0  0  0 
 22 23  1  0  0  0  0 
 22 24  2  0  0  0  0 
 24 25  1  0  0  0  0 
 24 26  1  0  0  0  0 
 26 27  1  0  0  0  0 
 26 28  2  0  0  0  0 
 20 28  1  0  0  0  0 
 28 29  1  0  0  0  0 
 21 30  1  0  0  0  0 
 30 31  1  0  0  0  0 
 30 32  1  0  0  0  0 
 30 33  1  0  0  0  0 
 33 34  1  0  0  0  0 
 33 35  1  0  0  0  0 
 33 36  1  0  0  0  0 
 36 37  2  0  0  0  0 
 37 38  1  0  0  0  0 
 37 39  1  0  0  0  0 
 39 40  1  0  0  0  0 
 39 41  2  0  0  0  0 
 41 42  1  0  0  0  0 
 41 43  1  0  0  0  0 
 43 44  2  0  0  0  0 
 36 44  1  0  0  0  0 
 19 44  1  0  0  0  0 
 43 45  1  0  0  0  0 
 45 46  1  0  0  0  0 
M  END
> <Rank>
17

> <Priority_score>
0.11955763604447045

> <Reaction_type>
aromatic_hydroxylation_(ortho_to_nitrogen)

> <Parent_ID>
30

> <Parent_InChI>
InChI=1S/C19H24N2/c1-20(2)14-7-15-21-18-10-5-3-8-16(18)12-13-17-9-4-6-11-19(17)21/h3-6,8-11H,7,12-15H2,1-2H3

> <Parent_SMILES>
CN(C)CCCN1c2ccccc2CCc2ccccc21

$$$$
Molecule 30_metabolite 18
  CDK     0516241031

 46 48  0  0  0  0  0  0  0  0999 V2000
   -0.0000   -7.3100    0.0000 C   0  0  0  0  0  0  0  0  0  0  0  0
    1.2990   -8.0600    0.0000 H   0  0  0  0  0  0  0  0  0  0  0  0
   -1.4772   -7.0495    0.0000 H   0  0  0  0  0  0  0  0  0  0  0  0
   -0.5130   -8.7195    0.0000 H   0  0  0  0  0  0  0  0  0  0  0  0
   -0.0000   -5.3300    0.0000 N   0  0  0  0  0  0  0  0  0  0  0  0
   -1.2990   -4.5800    0.0000 C   0  0  0  0  0  0  0  0  0  0  0  0
   -1.2990   -3.0800    0.0000 H   0  0  0  0  0  0  0  0  0  0  0  0
   -2.7762   -4.3195    0.0000 H   0  0  0  0  0  0  0  0  0  0  0  0
   -1.8121   -5.9895    0.0000 H   0  0  0  0  0  0  0  0  0  0  0  0
    1.2990   -4.5800    0.0000 C   0  0  0  0  0  0  0  0  0  0  0  0
    2.7762   -4.3195    0.0000 H   0  0  0  0  0  0  0  0  0  0  0  0
    1.8121   -5.9895    0.0000 H   0  0  0  0  0  0  0  0  0  0  0  0
    1.2990   -3.0800    0.0000 C   0  0  0  0  0  0  0  0  0  0  0  0
    2.7762   -3.3405    0.0000 H   0  0  0  0  0  0  0  0  0  0  0  0
    1.8121   -1.6705    0.0000 H   0  0  0  0  0  0  0  0  0  0  0  0
    0.0000   -2.3300    0.0000 C   0  0  0  0  0  0  0  0  0  0  0  0
   -1.4772   -2.0695    0.0000 H   0  0  0  0  0  0  0  0  0  0  0  0
   -0.5130   -3.7395    0.0000 H   0  0  0  0  0  0  0  0  0  0  0  0
    0.0000   -0.8300    0.0000 N   0  0  0  0  0  0  0  0  0  0  0  0
   -1.3500   -0.1800    0.0000 C   0  0  0  0  0  0  0  0  0  0  0  0
   -1.6900    1.2800    0.0000 C   0  0  0  0  0  0  0  0  0  0  0  0
   -3.1200    1.7200    0.0000 C   0  0  0  0  0  0  0  0  0  0  0  0
   -3.4541    3.1823    0.0000 H   0  0  0  0  0  0  0  0  0  0  0  0
   -4.2200    0.7000    0.0000 C   0  0  0  0  0  0  0  0  0  0  0  0
   -5.6543    1.1392    0.0000 H   0  0  0  0  0  0  0  0  0  0  0  0
   -3.8800   -0.7600    0.0000 C   0  0  0  0  0  0  0  0  0  0  0  0
   -4.9770   -1.7831    0.0000 H   0  0  0  0  0  0  0  0  0  0  0  0
   -2.4500   -1.2000    0.0000 C   0  0  0  0  0  0  0  0  0  0  0  0
   -2.1159   -2.6623    0.0000 H   0  0  0  0  0  0  0  0  0  0  0  0
   -0.7500    2.4500    0.0000 C   0  0  0  0  0  0  0  0  0  0  0  0
   -0.4145    3.9120    0.0000 H   0  0  0  0  0  0  0  0  0  0  0  0
   -2.0999    3.1041    0.0000 H   0  0  0  0  0  0  0  0  0  0  0  0
    0.7500    2.4500    0.0000 C   0  0  0  0  0  0  0  0  0  0  0  0
    2.0999    3.1041    0.0000 H   0  0  0  0  0  0  0  0  0  0  0  0
    0.4145    3.9120    0.0000 H   0  0  0  0  0  0  0  0  0  0  0  0
    1.6900    1.2800    0.0000 C   0  0  0  0  0  0  0  0  0  0  0  0
    3.1200    1.7200    0.0000 C   0  0  0  0  0  0  0  0  0  0  0  0
    3.4541    3.1823    0.0000 H   0  0  0  0  0  0  0  0  0  0  0  0
    4.2200    0.7000    0.0000 C   0  0  0  0  0  0  0  0  0  0  0  0
    3.8800   -0.7600    0.0000 C   0  0  0  0  0  0  0  0  0  0  0  0
    4.9770   -1.7831    0.0000 H   0  0  0  0  0  0  0  0  0  0  0  0
    2.4500   -1.2000    0.0000 C   0  0  0  0  0  0  0  0  0  0  0  0
    2.1159   -2.6623    0.0000 H   0  0  0  0  0  0  0  0  0  0  0  0
    1.3500   -0.1800    0.0000 C   0  0  0  0  0  0  0  0  0  0  0  0
    5.6543    1.1392    0.0000 O   0  0  0  0  0  0  0  0  0  0  0  0
    5.9910    2.6009    0.0000 H   0  0  0  0  0  0  0  0  0  0  0  0
  1  2  1  0  0  0  0 
  1  3  1  0  0  0  0 
  1  4  1  0  0  0  0 
  1  5  1  0  0  0  0 
  5  6  1  0  0  0  0 
  6  7  1  0  0  0  0 
  6  8  1  0  0  0  0 
  6  9  1  0  0  0  0 
  5 10  1  0  0  0  0 
 10 11  1  0  0  0  0 
 10 12  1  0  0  0  0 
 10 13  1  0  0  0  0 
 13 14  1  0  0  0  0 
 13 15  1  0  0  0  0 
 13 16  1  0  0  0  0 
 16 17  1  0  0  0  0 
 16 18  1  0  0  0  0 
 16 19  1  0  0  0  0 
 19 20  1  0  0  0  0 
 20 21  2  0  0  0  0 
 21 22  1  0  0  0  0 
 22 23  1  0  0  0  0 
 22 24  2  0  0  0  0 
 24 25  1  0  0  0  0 
 24 26  1  0  0  0  0 
 26 27  1  0  0  0  0 
 26 28  2  0  0  0  0 
 20 28  1  0  0  0  0 
 28 29  1  0  0  0  0 
 21 30  1  0  0  0  0 
 30 31  1  0  0  0  0 
 30 32  1  0  0  0  0 
 30 33  1  0  0  0  0 
 33 34  1  0  0  0  0 
 33 35  1  0  0  0  0 
 33 36  1  0  0  0  0 
 36 37  2  0  0  0  0 
 37 38  1  0  0  0  0 
 37 39  1  0  0  0  0 
 39 40  2  0  0  0  0 
 40 41  1  0  0  0  0 
 40 42  1  0  0  0  0 
 42 43  1  0  0  0  0 
 42 44  2  0  0  0  0 
 36 44  1  0  0  0  0 
 19 44  1  0  0  0  0 
 39 45  1  0  0  0  0 
 45 46  1  0  0  0  0 
M  END
> <Rank>
17

> <Priority_score>
0.11955763604447045

> <Reaction_type>
aromatic_hydroxylation_(para_to_nitrogen)

> <Parent_ID>
30

> <Parent_InChI>
InChI=1S/C19H24N2/c1-20(2)14-7-15-21-18-10-5-3-8-16(18)12-13-17-9-4-6-11-19(17)21/h3-6,8-11H,7,12-15H2,1-2H3

> <Parent_SMILES>
CN(C)CCCN1c2ccccc2CCc2ccccc21

$$$$
Molecule 30_metabolite 19
  CDK     0516241031

 44 46  0  0  0  0  0  0  0  0999 V2000
    2.5981   -7.1400    0.0000 C   0  0  0  0  0  0  0  0  0  0  0  0
    1.2990   -7.8900    0.0000 H   0  0  0  0  0  0  0  0  0  0  0  0
    4.0753   -6.8795    0.0000 H   0  0  0  0  0  0  0  0  0  0  0  0
    3.1111   -8.5495    0.0000 H   0  0  0  0  0  0  0  0  0  0  0  0
    2.5981   -5.1600    0.0000 N   0  0  0  0  0  0  0  0  0  0  0  0
    3.8971   -4.4100    0.0000 C   0  0  0  0  0  0  0  0  0  0  0  0
    3.8971   -2.9100    0.0000 H   0  0  0  0  0  0  0  0  0  0  0  0
    5.3743   -4.1495    0.0000 H   0  0  0  0  0  0  0  0  0  0  0  0
    4.4101   -5.8195    0.0000 H   0  0  0  0  0  0  0  0  0  0  0  0
    1.2990   -4.4100    0.0000 C   0  0  0  0  0  0  0  0  0  0  0  0
   -0.1782   -4.1495    0.0000 H   0  0  0  0  0  0  0  0  0  0  0  0
    0.7860   -5.8195    0.0000 H   0  0  0  0  0  0  0  0  0  0  0  0
    1.2990   -2.9100    0.0000 C   0  0  0  0  0  0  0  0  0  0  0  0
    2.7762   -3.1705    0.0000 H   0  0  0  0  0  0  0  0  0  0  0  0
    1.8121   -1.5005    0.0000 H   0  0  0  0  0  0  0  0  0  0  0  0
    0.0000   -2.1600    0.0000 C   0  0  0  0  0  0  0  0  0  0  0  0
   -1.2990   -2.9100    0.0000 H   0  0  0  0  0  0  0  0  0  0  0  0
    0.0000   -0.6600    0.0000 N   0  0  0  0  0  0  0  0  0  0  0  0
    1.3500   -0.0100    0.0000 C   0  0  0  0  0  0  0  0  0  0  0  0
    1.6900    1.4600    0.0000 C   0  0  0  0  0  0  0  0  0  0  0  0
    3.1200    1.9000    0.0000 C   0  0  0  0  0  0  0  0  0  0  0  0
    3.4541    3.3623    0.0000 H   0  0  0  0  0  0  0  0  0  0  0  0
    4.2200    0.8800    0.0000 C   0  0  0  0  0  0  0  0  0  0  0  0
    5.6543    1.3192    0.0000 H   0  0  0  0  0  0  0  0  0  0  0  0
    3.8800   -0.5800    0.0000 C   0  0  0  0  0  0  0  0  0  0  0  0
    4.9802   -1.5996    0.0000 H   0  0  0  0  0  0  0  0  0  0  0  0
    2.4500   -1.0300    0.0000 C   0  0  0  0  0  0  0  0  0  0  0  0
    2.1206   -2.4934    0.0000 H   0  0  0  0  0  0  0  0  0  0  0  0
    0.7500    2.6300    0.0000 C   0  0  0  0  0  0  0  0  0  0  0  0
    2.0999    3.2841    0.0000 H   0  0  0  0  0  0  0  0  0  0  0  0
    0.4145    4.0920    0.0000 H   0  0  0  0  0  0  0  0  0  0  0  0
   -0.7500    2.6300    0.0000 C   0  0  0  0  0  0  0  0  0  0  0  0
   -0.4145    4.0920    0.0000 H   0  0  0  0  0  0  0  0  0  0  0  0
   -2.0999    3.2841    0.0000 H   0  0  0  0  0  0  0  0  0  0  0  0
   -1.6900    1.4600    0.0000 C   0  0  0  0  0  0  0  0  0  0  0  0
   -1.3500   -0.0100    0.0000 C   0  0  0  0  0  0  0  0  0  0  0  0
   -2.4500   -1.0300    0.0000 C   0  0  0  0  0  0  0  0  0  0  0  0
   -2.1206   -2.4934    0.0000 H   0  0  0  0  0  0  0  0  0  0  0  0
   -3.8800   -0.5800    0.0000 C   0  0  0  0  0  0  0  0  0  0  0  0
   -4.9802   -1.5996    0.0000 H   0  0  0  0  0  0  0  0  0  0  0  0
   -4.2200    0.8800    0.0000 C   0  0  0  0  0  0  0  0  0  0  0  0
   -5.6543    1.3192    0.0000 H   0  0  0  0  0  0  0  0  0  0  0  0
   -3.1200    1.9000    0.0000 C   0  0  0  0  0  0  0  0  0  0  0  0
   -3.4541    3.3623    0.0000 H   0  0  0  0  0  0  0  0  0  0  0  0
  1  2  1  0  0  0  0 
  1  3  1  0  0  0  0 
  1  4  1  0  0  0  0 
  1  5  1  0  0  0  0 
  5  6  1  0  0  0  0 
  6  7  1  0  0  0  0 
  6  8  1  0  0  0  0 
  6  9  1  0  0  0  0 
  5 10  1  0  0  0  0 
 10 11  1  0  0  0  0 
 10 12  1  0  0  0  0 
 10 13  1  0  0  0  0 
 13 14  1  0  0  0  0 
 13 15  1  0  0  0  0 
 13 16  1  0  0  0  0 
 16 17  1  4  0  0  0 
 16 18  2  0  0  0  0 
 18 19  1  0  0  0  0 
 19 20  2  0  0  0  0 
 20 21  1  0  0  0  0 
 21 22  1  0  0  0  0 
 21 23  2  0  0  0  0 
 23 24  1  0  0  0  0 
 23 25  1  0  0  0  0 
 25 26  1  0  0  0  0 
 25 27  2  0  0  0  0 
 19 27  1  0  0  0  0 
 27 28  1  0  0  0  0 
 20 29  1  0  0  0  0 
 29 30  1  0  0  0  0 
 29 31  1  0  0  0  0 
 29 32  1  0  0  0  0 
 32 33  1  0  0  0  0 
 32 34  1  0  0  0  0 
 32 35  1  0  0  0  0 
 35 36  2  0  0  0  0 
 18 36  1  0  0  0  0 
 36 37  1  0  0  0  0 
 37 38  1  0  0  0  0 
 37 39  2  0  0  0  0 
 39 40  1  0  0  0  0 
 39 41  1  0  0  0  0 
 41 42  1  0  0  0  0 
 41 43  2  0  0  0  0 
 35 43  1  0  0  0  0 
 43 44  1  0  0  0  0 
M  CHG  1  18   1
M  END
> <Rank>
19

> <Priority_score>
0.0968

> <Reaction_type>
dehydration of N-C bond

> <Parent_ID>
30

> <Parent_InChI>
InChI=1S/C19H24N2/c1-20(2)14-7-15-21-18-10-5-3-8-16(18)12-13-17-9-4-6-11-19(17)21/h3-6,8-11H,7,12-15H2,1-2H3

> <Parent_SMILES>
CN(C)CCCN1c2ccccc2CCc2ccccc21

$$$$
Molecule 30_metabolite 20
  CDK     0516241031

 43 45  0  0  0  0  0  0  0  0999 V2000
    3.0138   -7.3800    0.0000 C   0  0  0  0  0  0  0  0  0  0  0  0
    1.7147   -8.1300    0.0000 H   0  0  0  0  0  0  0  0  0  0  0  0
    4.4910   -7.1195    0.0000 H   0  0  0  0  0  0  0  0  0  0  0  0
    3.5268   -8.7895    0.0000 H   0  0  0  0  0  0  0  0  0  0  0  0
    3.0138   -5.8800    0.0000 N   0  0  0  0  0  0  0  0  0  0  0  0
    4.3128   -5.1300    0.0000 C   0  0  0  0  0  0  0  0  0  0  0  0
    5.6118   -5.8800    0.0000 H   0  0  0  0  0  0  0  0  0  0  0  0
    5.2770   -3.9809    0.0000 H   0  0  0  0  0  0  0  0  0  0  0  0
    3.3486   -3.9809    0.0000 H   0  0  0  0  0  0  0  0  0  0  0  0
    1.7147   -5.1300    0.0000 C   0  0  0  0  0  0  0  0  0  0  0  0
    0.2375   -4.8695    0.0000 H   0  0  0  0  0  0  0  0  0  0  0  0
    1.2017   -6.5395    0.0000 H   0  0  0  0  0  0  0  0  0  0  0  0
    1.7147   -3.6300    0.0000 C   0  0  0  0  0  0  0  0  0  0  0  0
    3.0138   -2.8800    0.0000 H   0  0  0  0  0  0  0  0  0  0  0  0
   -0.0000   -2.6400    0.0000 C   0  0  0  0  0  0  0  0  0  0  0  0
   -1.2990   -3.3900    0.0000 H   0  0  0  0  0  0  0  0  0  0  0  0
    0.0000   -1.1400    0.0000 N   0  0  0  0  0  0  0  0  0  0  0  0
    1.3500   -0.4900    0.0000 C   0  0  0  0  0  0  0  0  0  0  0  0
    1.6900    0.9800    0.0000 C   0  0  0  0  0  0  0  0  0  0  0  0
    3.1200    1.4200    0.0000 C   0  0  0  0  0  0  0  0  0  0  0  0
    3.4541    2.8823    0.0000 H   0  0  0  0  0  0  0  0  0  0  0  0
    4.2200    0.4000    0.0000 C   0  0  0  0  0  0  0  0  0  0  0  0
    5.6543    0.8392    0.0000 H   0  0  0  0  0  0  0  0  0  0  0  0
    3.8800   -1.0600    0.0000 C   0  0  0  0  0  0  0  0  0  0  0  0
    4.9802   -2.0796    0.0000 H   0  0  0  0  0  0  0  0  0  0  0  0
    2.4500   -1.5100    0.0000 C   0  0  0  0  0  0  0  0  0  0  0  0
    1.4330   -2.6126    0.0000 H   0  0  0  0  0  0  0  0  0  0  0  0
    0.7500    2.1500    0.0000 C   0  0  0  0  0  0  0  0  0  0  0  0
    2.0999    2.8041    0.0000 H   0  0  0  0  0  0  0  0  0  0  0  0
    0.4145    3.6120    0.0000 H   0  0  0  0  0  0  0  0  0  0  0  0
   -0.7500    2.1500    0.0000 C   0  0  0  0  0  0  0  0  0  0  0  0
   -0.4145    3.6120    0.0000 H   0  0  0  0  0  0  0  0  0  0  0  0
   -2.0999    2.8041    0.0000 H   0  0  0  0  0  0  0  0  0  0  0  0
   -1.6900    0.9800    0.0000 C   0  0  0  0  0  0  0  0  0  0  0  0
   -1.3500   -0.4900    0.0000 C   0  0  0  0  0  0  0  0  0  0  0  0
   -2.4500   -1.5100    0.0000 C   0  0  0  0  0  0  0  0  0  0  0  0
   -2.1206   -2.9734    0.0000 H   0  0  0  0  0  0  0  0  0  0  0  0
   -3.8800   -1.0600    0.0000 C   0  0  0  0  0  0  0  0  0  0  0  0
   -4.9802   -2.0796    0.0000 H   0  0  0  0  0  0  0  0  0  0  0  0
   -4.2200    0.4000    0.0000 C   0  0  0  0  0  0  0  0  0  0  0  0
   -5.6543    0.8392    0.0000 H   0  0  0  0  0  0  0  0  0  0  0  0
   -3.1200    1.4200    0.0000 C   0  0  0  0  0  0  0  0  0  0  0  0
   -3.4541    2.8823    0.0000 H   0  0  0  0  0  0  0  0  0  0  0  0
  1  2  1  0  0  0  0 
  1  3  1  0  0  0  0 
  1  4  1  0  0  0  0 
  1  5  1  0  0  0  0 
  5  6  1  0  0  0  0 
  6  7  1  0  0  0  0 
  6  8  1  0  0  0  0 
  6  9  1  0  0  0  0 
  5 10  1  0  0  0  0 
 10 11  1  0  0  0  0 
 10 12  1  0  0  0  0 
 10 13  1  0  0  0  0 
 13 14  1  4  0  0  0 
 13 15  2  0  0  0  0 
 15 16  1  0  0  0  0 
 15 17  1  0  0  0  0 
 17 18  1  0  0  0  0 
 18 19  2  0  0  0  0 
 19 20  1  0  0  0  0 
 20 21  1  0  0  0  0 
 20 22  2  0  0  0  0 
 22 23  1  0  0  0  0 
 22 24  1  0  0  0  0 
 24 25  1  0  0  0  0 
 24 26  2  0  0  0  0 
 18 26  1  0  0  0  0 
 26 27  1  0  0  0  0 
 19 28  1  0  0  0  0 
 28 29  1  0  0  0  0 
 28 30  1  0  0  0  0 
 28 31  1  0  0  0  0 
 31 32  1  0  0  0  0 
 31 33  1  0  0  0  0 
 31 34  1  0  0  0  0 
 34 35  2  0  0  0  0 
 17 35  1  0  0  0  0 
 35 36  1  0  0  0  0 
 36 37  1  0  0  0  0 
 36 38  2  0  0  0  0 
 38 39  1  0  0  0  0 
 38 40  1  0  0  0  0 
 40 41  1  0  0  0  0 
 40 42  2  0  0  0  0 
 34 42  1  0  0  0  0 
 42 43  1  0  0  0  0 
M  END
> <Rank>
19

> <Priority_score>
0.0968

> <Reaction_type>
alkyl dehydrogenation

> <Parent_ID>
30

> <Parent_InChI>
InChI=1S/C19H24N2/c1-20(2)14-7-15-21-18-10-5-3-8-16(18)12-13-17-9-4-6-11-19(17)21/h3-6,8-11H,7,12-15H2,1-2H3

> <Parent_SMILES>
CN(C)CCCN1c2ccccc2CCc2ccccc21

$$$$
Molecule 30_metabolite 21
  CDK     0516241031

 44 46  0  0  0  0  0  0  0  0999 V2000
    3.8971   -4.8900    0.0000 C   0  0  0  0  0  0  0  0  0  0  0  0
    5.1962   -5.6400    0.0000 H   0  0  0  0  0  0  0  0  0  0  0  0
    3.8971   -3.3900    0.0000 H   0  0  0  0  0  0  0  0  0  0  0  0
    2.5981   -5.6400    0.0000 N   0  0  0  0  0  0  0  0  0  0  0  0
    2.5981   -7.1400    0.0000 C   0  0  0  0  0  0  0  0  0  0  0  0
    1.2990   -7.8900    0.0000 H   0  0  0  0  0  0  0  0  0  0  0  0
    4.0753   -6.8795    0.0000 H   0  0  0  0  0  0  0  0  0  0  0  0
    3.1111   -8.5495    0.0000 H   0  0  0  0  0  0  0  0  0  0  0  0
    1.2990   -4.8900    0.0000 C   0  0  0  0  0  0  0  0  0  0  0  0
   -0.1782   -4.6295    0.0000 H   0  0  0  0  0  0  0  0  0  0  0  0
    0.7860   -6.2995    0.0000 H   0  0  0  0  0  0  0  0  0  0  0  0
    1.2990   -2.9100    0.0000 C   0  0  0  0  0  0  0  0  0  0  0  0
    2.7762   -3.1705    0.0000 H   0  0  0  0  0  0  0  0  0  0  0  0
    1.8121   -1.5005    0.0000 H   0  0  0  0  0  0  0  0  0  0  0  0
    0.0000   -2.1600    0.0000 C   0  0  0  0  0  0  0  0  0  0  0  0
   -1.4772   -1.8995    0.0000 H   0  0  0  0  0  0  0  0  0  0  0  0
   -0.5130   -3.5695    0.0000 H   0  0  0  0  0  0  0  0  0  0  0  0
    0.0000   -0.6600    0.0000 N   0  0  0  0  0  0  0  0  0  0  0  0
    1.3500   -0.0100    0.0000 C   0  0  0  0  0  0  0  0  0  0  0  0
    1.6900    1.4600    0.0000 C   0  0  0  0  0  0  0  0  0  0  0  0
    3.1200    1.9000    0.0000 C   0  0  0  0  0  0  0  0  0  0  0  0
    3.4541    3.3623    0.0000 H   0  0  0  0  0  0  0  0  0  0  0  0
    4.2200    0.8800    0.0000 C   0  0  0  0  0  0  0  0  0  0  0  0
    5.6543    1.3192    0.0000 H   0  0  0  0  0  0  0  0  0  0  0  0
    3.8800   -0.5800    0.0000 C   0  0  0  0  0  0  0  0  0  0  0  0
    4.9802   -1.5996    0.0000 H   0  0  0  0  0  0  0  0  0  0  0  0
    2.4500   -1.0300    0.0000 C   0  0  0  0  0  0  0  0  0  0  0  0
    2.1206   -2.4934    0.0000 H   0  0  0  0  0  0  0  0  0  0  0  0
    0.7500    2.6300    0.0000 C   0  0  0  0  0  0  0  0  0  0  0  0
    2.0999    3.2841    0.0000 H   0  0  0  0  0  0  0  0  0  0  0  0
    0.4145    4.0920    0.0000 H   0  0  0  0  0  0  0  0  0  0  0  0
   -0.7500    2.6300    0.0000 C   0  0  0  0  0  0  0  0  0  0  0  0
   -0.4145    4.0920    0.0000 H   0  0  0  0  0  0  0  0  0  0  0  0
   -2.0999    3.2841    0.0000 H   0  0  0  0  0  0  0  0  0  0  0  0
   -1.6900    1.4600    0.0000 C   0  0  0  0  0  0  0  0  0  0  0  0
   -1.3500   -0.0100    0.0000 C   0  0  0  0  0  0  0  0  0  0  0  0
   -2.4500   -1.0300    0.0000 C   0  0  0  0  0  0  0  0  0  0  0  0
   -2.1206   -2.4934    0.0000 H   0  0  0  0  0  0  0  0  0  0  0  0
   -3.8800   -0.5800    0.0000 C   0  0  0  0  0  0  0  0  0  0  0  0
   -4.9802   -1.5996    0.0000 H   0  0  0  0  0  0  0  0  0  0  0  0
   -4.2200    0.8800    0.0000 C   0  0  0  0  0  0  0  0  0  0  0  0
   -5.6543    1.3192    0.0000 H   0  0  0  0  0  0  0  0  0  0  0  0
   -3.1200    1.9000    0.0000 C   0  0  0  0  0  0  0  0  0  0  0  0
   -3.4541    3.3623    0.0000 H   0  0  0  0  0  0  0  0  0  0  0  0
  1  2  1  0  0  0  0 
  1  3  1  0  0  0  0 
  1  4  2  0  0  0  0 
  4  5  1  0  0  0  0 
  5  6  1  0  0  0  0 
  5  7  1  0  0  0  0 
  5  8  1  0  0  0  0 
  4  9  1  0  0  0  0 
  9 10  1  0  0  0  0 
  9 11  1  0  0  0  0 
  9 12  1  0  0  0  0 
 12 13  1  0  0  0  0 
 12 14  1  0  0  0  0 
 12 15  1  0  0  0  0 
 15 16  1  0  0  0  0 
 15 17  1  0  0  0  0 
 15 18  1  0  0  0  0 
 18 19  1  0  0  0  0 
 19 20  2  0  0  0  0 
 20 21  1  0  0  0  0 
 21 22  1  0  0  0  0 
 21 23  2  0  0  0  0 
 23 24  1  0  0  0  0 
 23 25  1  0  0  0  0 
 25 26  1  0  0  0  0 
 25 27  2  0  0  0  0 
 19 27  1  0  0  0  0 
 27 28  1  0  0  0  0 
 20 29  1  0  0  0  0 
 29 30  1  0  0  0  0 
 29 31  1  0  0  0  0 
 29 32  1  0  0  0  0 
 32 33  1  0  0  0  0 
 32 34  1  0  0  0  0 
 32 35  1  0  0  0  0 
 35 36  2  0  0  0  0 
 18 36  1  0  0  0  0 
 36 37  1  0  0  0  0 
 37 38  1  0  0  0  0 
 37 39  2  0  0  0  0 
 39 40  1  0  0  0  0 
 39 41  1  0  0  0  0 
 41 42  1  0  0  0  0 
 41 43  2  0  0  0  0 
 35 43  1  0  0  0  0 
 43 44  1  0  0  0  0 
M  CHG  1   4   1
M  END
> <Rank>
21

> <Priority_score>
0.08797588132078482

> <Reaction_type>
dehydration of N-C bond

> <Parent_ID>
30

> <Parent_InChI>
InChI=1S/C19H24N2/c1-20(2)14-7-15-21-18-10-5-3-8-16(18)12-13-17-9-4-6-11-19(17)21/h3-6,8-11H,7,12-15H2,1-2H3

> <Parent_SMILES>
CN(C)CCCN1c2ccccc2CCc2ccccc21

$$$$
Molecule 30_metabolite 22
  CDK     0516241031

 44 46  0  0  0  0  0  0  0  0999 V2000
    2.5981   -7.1400    0.0000 C   0  0  0  0  0  0  0  0  0  0  0  0
    3.8971   -7.8900    0.0000 H   0  0  0  0  0  0  0  0  0  0  0  0
    1.1209   -6.8795    0.0000 H   0  0  0  0  0  0  0  0  0  0  0  0
    2.0850   -8.5495    0.0000 H   0  0  0  0  0  0  0  0  0  0  0  0
    2.5981   -5.6400    0.0000 N   0  0  0  0  0  0  0  0  0  0  0  0
    1.2990   -4.8900    0.0000 C   0  0  0  0  0  0  0  0  0  0  0  0
   -0.0000   -5.6400    0.0000 H   0  0  0  0  0  0  0  0  0  0  0  0
    1.2990   -3.3900    0.0000 C   0  0  0  0  0  0  0  0  0  0  0  0
    2.7762   -3.6505    0.0000 H   0  0  0  0  0  0  0  0  0  0  0  0
    1.8121   -1.9805    0.0000 H   0  0  0  0  0  0  0  0  0  0  0  0
   -0.0000   -2.6400    0.0000 C   0  0  0  0  0  0  0  0  0  0  0  0
   -1.4772   -2.3795    0.0000 H   0  0  0  0  0  0  0  0  0  0  0  0
   -0.5130   -4.0495    0.0000 H   0  0  0  0  0  0  0  0  0  0  0  0
    0.0000   -1.1400    0.0000 N   0  0  0  0  0  0  0  0  0  0  0  0
    1.3500   -0.4900    0.0000 C   0  0  0  0  0  0  0  0  0  0  0  0
    1.6900    0.9800    0.0000 C   0  0  0  0  0  0  0  0  0  0  0  0
    3.1200    1.4200    0.0000 C   0  0  0  0  0  0  0  0  0  0  0  0
    3.4541    2.8823    0.0000 H   0  0  0  0  0  0  0  0  0  0  0  0
    4.2200    0.4000    0.0000 C   0  0  0  0  0  0  0  0  0  0  0  0
    5.6543    0.8392    0.0000 H   0  0  0  0  0  0  0  0  0  0  0  0
    3.8800   -1.0600    0.0000 C   0  0  0  0  0  0  0  0  0  0  0  0
    4.9802   -2.0796    0.0000 H   0  0  0  0  0  0  0  0  0  0  0  0
    2.4500   -1.5100    0.0000 C   0  0  0  0  0  0  0  0  0  0  0  0
    2.1206   -2.9734    0.0000 H   0  0  0  0  0  0  0  0  0  0  0  0
    0.7500    2.1500    0.0000 C   0  0  0  0  0  0  0  0  0  0  0  0
    2.0999    2.8041    0.0000 H   0  0  0  0  0  0  0  0  0  0  0  0
    0.4145    3.6120    0.0000 H   0  0  0  0  0  0  0  0  0  0  0  0
   -0.7500    2.1500    0.0000 C   0  0  0  0  0  0  0  0  0  0  0  0
   -0.4145    3.6120    0.0000 H   0  0  0  0  0  0  0  0  0  0  0  0
   -2.0999    2.8041    0.0000 H   0  0  0  0  0  0  0  0  0  0  0  0
   -1.6900    0.9800    0.0000 C   0  0  0  0  0  0  0  0  0  0  0  0
   -1.3500   -0.4900    0.0000 C   0  0  0  0  0  0  0  0  0  0  0  0
   -2.4500   -1.5100    0.0000 C   0  0  0  0  0  0  0  0  0  0  0  0
   -2.1206   -2.9734    0.0000 H   0  0  0  0  0  0  0  0  0  0  0  0
   -3.8800   -1.0600    0.0000 C   0  0  0  0  0  0  0  0  0  0  0  0
   -4.9802   -2.0796    0.0000 H   0  0  0  0  0  0  0  0  0  0  0  0
   -4.2200    0.4000    0.0000 C   0  0  0  0  0  0  0  0  0  0  0  0
   -5.6543    0.8392    0.0000 H   0  0  0  0  0  0  0  0  0  0  0  0
   -3.1200    1.4200    0.0000 C   0  0  0  0  0  0  0  0  0  0  0  0
   -3.4541    2.8823    0.0000 H   0  0  0  0  0  0  0  0  0  0  0  0
    3.8971   -4.8900    0.0000 C   0  0  0  0  0  0  0  0  0  0  0  0
    3.8971   -3.3900    0.0000 H   0  0  0  0  0  0  0  0  0  0  0  0
    5.3743   -4.6295    0.0000 H   0  0  0  0  0  0  0  0  0  0  0  0
    4.4101   -6.2995    0.0000 H   0  0  0  0  0  0  0  0  0  0  0  0
  1  2  1  0  0  0  0 
  1  3  1  0  0  0  0 
  1  4  1  0  0  0  0 
  1  5  1  0  0  0  0 
  5  6  2  0  0  0  0 
  6  7  1  0  0  0  0 
  6  8  1  0  0  0  0 
  8  9  1  0  0  0  0 
  8 10  1  0  0  0  0 
  8 11  1  0  0  0  0 
 11 12  1  0  0  0  0 
 11 13  1  0  0  0  0 
 11 14  1  0  0  0  0 
 14 15  1  0  0  0  0 
 15 16  2  0  0  0  0 
 16 17  1  0  0  0  0 
 17 18  1  0  0  0  0 
 17 19  2  0  0  0  0 
 19 20  1  0  0  0  0 
 19 21  1  0  0  0  0 
 21 22  1  0  0  0  0 
 21 23  2  0  0  0  0 
 15 23  1  0  0  0  0 
 23 24  1  0  0  0  0 
 16 25  1  0  0  0  0 
 25 26  1  0  0  0  0 
 25 27  1  0  0  0  0 
 25 28  1  0  0  0  0 
 28 29  1  0  0  0  0 
 28 30  1  0  0  0  0 
 28 31  1  0  0  0  0 
 31 32  2  0  0  0  0 
 14 32  1  0  0  0  0 
 32 33  1  0  0  0  0 
 33 34  1  0  0  0  0 
 33 35  2  0  0  0  0 
 35 36  1  0  0  0  0 
 35 37  1  0  0  0  0 
 37 38  1  0  0  0  0 
 37 39  2  0  0  0  0 
 31 39  1  0  0  0  0 
 39 40  1  0  0  0  0 
  5 41  1  0  0  0  0 
 41 42  1  0  0  0  0 
 41 43  1  0  0  0  0 
 41 44  1  0  0  0  0 
M  CHG  1   5   1
M  END
> <Rank>
22

> <Priority_score>
0.0656

> <Reaction_type>
dehydration of N-C bond

> <Parent_ID>
30

> <Parent_InChI>
InChI=1S/C19H24N2/c1-20(2)14-7-15-21-18-10-5-3-8-16(18)12-13-17-9-4-6-11-19(17)21/h3-6,8-11H,7,12-15H2,1-2H3

> <Parent_SMILES>
CN(C)CCCN1c2ccccc2CCc2ccccc21

$$$$
Molecule 30_metabolite 23
  CDK     0516241031

 43 45  0  0  0  0  0  0  0  0999 V2000
    2.5981   -7.1400    0.0000 C   0  0  0  0  0  0  0  0  0  0  0  0
    3.8971   -7.8900    0.0000 H   0  0  0  0  0  0  0  0  0  0  0  0
    1.1209   -6.8795    0.0000 H   0  0  0  0  0  0  0  0  0  0  0  0
    2.0850   -8.5495    0.0000 H   0  0  0  0  0  0  0  0  0  0  0  0
    2.5981   -5.6400    0.0000 N   0  0  0  0  0  0  0  0  0  0  0  0
    3.8971   -4.8900    0.0000 C   0  0  0  0  0  0  0  0  0  0  0  0
    5.1962   -5.6400    0.0000 H   0  0  0  0  0  0  0  0  0  0  0  0
    4.8613   -3.7409    0.0000 H   0  0  0  0  0  0  0  0  0  0  0  0
    2.9329   -3.7409    0.0000 H   0  0  0  0  0  0  0  0  0  0  0  0
    1.2990   -4.8900    0.0000 C   0  0  0  0  0  0  0  0  0  0  0  0
   -0.0000   -5.6400    0.0000 H   0  0  0  0  0  0  0  0  0  0  0  0
    1.2990   -3.3900    0.0000 C   0  0  0  0  0  0  0  0  0  0  0  0
    2.5981   -2.6400    0.0000 H   0  0  0  0  0  0  0  0  0  0  0  0
   -0.4157   -2.4000    0.0000 C   0  0  0  0  0  0  0  0  0  0  0  0
   -1.8929   -2.1395    0.0000 H   0  0  0  0  0  0  0  0  0  0  0  0
   -0.9287   -3.8095    0.0000 H   0  0  0  0  0  0  0  0  0  0  0  0
   -0.4157   -0.9000    0.0000 N   0  0  0  0  0  0  0  0  0  0  0  0
    0.9343   -0.2500    0.0000 C   0  0  0  0  0  0  0  0  0  0  0  0
    1.2743    1.2200    0.0000 C   0  0  0  0  0  0  0  0  0  0  0  0
    2.7043    1.6600    0.0000 C   0  0  0  0  0  0  0  0  0  0  0  0
    3.0384    3.1223    0.0000 H   0  0  0  0  0  0  0  0  0  0  0  0
    3.8043    0.6400    0.0000 C   0  0  0  0  0  0  0  0  0  0  0  0
    5.2386    1.0792    0.0000 H   0  0  0  0  0  0  0  0  0  0  0  0
    3.4643   -0.8200    0.0000 C   0  0  0  0  0  0  0  0  0  0  0  0
    4.5645   -1.8396    0.0000 H   0  0  0  0  0  0  0  0  0  0  0  0
    2.0343   -1.2700    0.0000 C   0  0  0  0  0  0  0  0  0  0  0  0
    1.0173   -2.3726    0.0000 H   0  0  0  0  0  0  0  0  0  0  0  0
    0.3343    2.3900    0.0000 C   0  0  0  0  0  0  0  0  0  0  0  0
    1.6842    3.0441    0.0000 H   0  0  0  0  0  0  0  0  0  0  0  0
   -0.0012    3.8520    0.0000 H   0  0  0  0  0  0  0  0  0  0  0  0
   -1.1657    2.3900    0.0000 C   0  0  0  0  0  0  0  0  0  0  0  0
   -0.8301    3.8520    0.0000 H   0  0  0  0  0  0  0  0  0  0  0  0
   -2.5156    3.0441    0.0000 H   0  0  0  0  0  0  0  0  0  0  0  0
   -2.1057    1.2200    0.0000 C   0  0  0  0  0  0  0  0  0  0  0  0
   -1.7657   -0.2500    0.0000 C   0  0  0  0  0  0  0  0  0  0  0  0
   -2.8657   -1.2700    0.0000 C   0  0  0  0  0  0  0  0  0  0  0  0
   -2.5363   -2.7334    0.0000 H   0  0  0  0  0  0  0  0  0  0  0  0
   -4.2957   -0.8200    0.0000 C   0  0  0  0  0  0  0  0  0  0  0  0
   -5.3959   -1.8396    0.0000 H   0  0  0  0  0  0  0  0  0  0  0  0
   -4.6357    0.6400    0.0000 C   0  0  0  0  0  0  0  0  0  0  0  0
   -6.0700    1.0792    0.0000 H   0  0  0  0  0  0  0  0  0  0  0  0
   -3.5357    1.6600    0.0000 C   0  0  0  0  0  0  0  0  0  0  0  0
   -3.8698    3.1223    0.0000 H   0  0  0  0  0  0  0  0  0  0  0  0
  1  2  1  0  0  0  0 
  1  3  1  0  0  0  0 
  1  4  1  0  0  0  0 
  1  5  1  0  0  0  0 
  5  6  1  0  0  0  0 
  6  7  1  0  0  0  0 
  6  8  1  0  0  0  0 
  6  9  1  0  0  0  0 
  5 10  1  0  0  0  0 
 10 11  1  4  0  0  0 
 10 12  2  0  0  0  0 
 12 13  1  0  0  0  0 
 12 14  1  0  0  0  0 
 14 15  1  0  0  0  0 
 14 16  1  0  0  0  0 
 14 17  1  0  0  0  0 
 17 18  1  0  0  0  0 
 18 19  2  0  0  0  0 
 19 20  1  0  0  0  0 
 20 21  1  0  0  0  0 
 20 22  2  0  0  0  0 
 22 23  1  0  0  0  0 
 22 24  1  0  0  0  0 
 24 25  1  0  0  0  0 
 24 26  2  0  0  0  0 
 18 26  1  0  0  0  0 
 26 27  1  0  0  0  0 
 19 28  1  0  0  0  0 
 28 29  1  0  0  0  0 
 28 30  1  0  0  0  0 
 28 31  1  0  0  0  0 
 31 32  1  0  0  0  0 
 31 33  1  0  0  0  0 
 31 34  1  0  0  0  0 
 34 35  2  0  0  0  0 
 17 35  1  0  0  0  0 
 35 36  1  0  0  0  0 
 36 37  1  0  0  0  0 
 36 38  2  0  0  0  0 
 38 39  1  0  0  0  0 
 38 40  1  0  0  0  0 
 40 41  1  0  0  0  0 
 40 42  2  0  0  0  0 
 34 42  1  0  0  0  0 
 42 43  1  0  0  0  0 
M  END
> <Rank>
23

> <Priority_score>
0.05157007752665961

> <Reaction_type>
alkyl dehydrogenation

> <Parent_ID>
30

> <Parent_InChI>
InChI=1S/C19H24N2/c1-20(2)14-7-15-21-18-10-5-3-8-16(18)12-13-17-9-4-6-11-19(17)21/h3-6,8-11H,7,12-15H2,1-2H3

> <Parent_SMILES>
CN(C)CCCN1c2ccccc2CCc2ccccc21

$$$$
Molecule 30_metabolite 24
  CDK     0516241031

 46 48  0  0  0  0  0  0  0  0999 V2000
   -0.0000   -7.3100    0.0000 C   0  0  0  0  0  0  0  0  0  0  0  0
    1.2990   -8.0600    0.0000 H   0  0  0  0  0  0  0  0  0  0  0  0
   -1.4772   -7.0495    0.0000 H   0  0  0  0  0  0  0  0  0  0  0  0
   -0.5130   -8.7195    0.0000 H   0  0  0  0  0  0  0  0  0  0  0  0
   -0.0000   -5.3300    0.0000 N   0  0  0  0  0  0  0  0  0  0  0  0
   -1.2990   -4.5800    0.0000 C   0  0  0  0  0  0  0  0  0  0  0  0
   -1.2990   -3.0800    0.0000 H   0  0  0  0  0  0  0  0  0  0  0  0
   -2.7762   -4.3195    0.0000 H   0  0  0  0  0  0  0  0  0  0  0  0
   -1.8121   -5.9895    0.0000 H   0  0  0  0  0  0  0  0  0  0  0  0
    1.2990   -4.5800    0.0000 C   0  0  0  0  0  0  0  0  0  0  0  0
    2.7762   -4.3195    0.0000 H   0  0  0  0  0  0  0  0  0  0  0  0
    1.8121   -5.9895    0.0000 H   0  0  0  0  0  0  0  0  0  0  0  0
    1.2990   -3.0800    0.0000 C   0  0  0  0  0  0  0  0  0  0  0  0
    2.7762   -3.3405    0.0000 H   0  0  0  0  0  0  0  0  0  0  0  0
    1.8121   -1.6705    0.0000 H   0  0  0  0  0  0  0  0  0  0  0  0
    0.0000   -2.3300    0.0000 C   0  0  0  0  0  0  0  0  0  0  0  0
   -1.4772   -2.0695    0.0000 H   0  0  0  0  0  0  0  0  0  0  0  0
   -0.5130   -3.7395    0.0000 H   0  0  0  0  0  0  0  0  0  0  0  0
    0.0000   -0.8300    0.0000 N   0  0  0  0  0  0  0  0  0  0  0  0
   -1.3500   -0.1800    0.0000 C   0  0  0  0  0  0  0  0  0  0  0  0
   -1.6900    1.2800    0.0000 C   0  0  0  0  0  0  0  0  0  0  0  0
   -3.1200    1.7200    0.0000 C   0  0  0  0  0  0  0  0  0  0  0  0
   -3.4541    3.1823    0.0000 H   0  0  0  0  0  0  0  0  0  0  0  0
   -4.2200    0.7000    0.0000 C   0  0  0  0  0  0  0  0  0  0  0  0
   -5.6543    1.1392    0.0000 H   0  0  0  0  0  0  0  0  0  0  0  0
   -3.8800   -0.7600    0.0000 C   0  0  0  0  0  0  0  0  0  0  0  0
   -4.9770   -1.7831    0.0000 H   0  0  0  0  0  0  0  0  0  0  0  0
   -2.4500   -1.2000    0.0000 C   0  0  0  0  0  0  0  0  0  0  0  0
   -2.1159   -2.6623    0.0000 H   0  0  0  0  0  0  0  0  0  0  0  0
   -0.7500    2.4500    0.0000 C   0  0  0  0  0  0  0  0  0  0  0  0
   -0.4145    3.9120    0.0000 H   0  0  0  0  0  0  0  0  0  0  0  0
   -2.0999    3.1041    0.0000 H   0  0  0  0  0  0  0  0  0  0  0  0
    0.7500    2.4500    0.0000 C   0  0  0  0  0  0  0  0  0  0  0  0
    2.0999    3.1041    0.0000 H   0  0  0  0  0  0  0  0  0  0  0  0
    0.4145    3.9120    0.0000 H   0  0  0  0  0  0  0  0  0  0  0  0
    1.6900    1.2800    0.0000 C   0  0  0  0  0  0  0  0  0  0  0  0
    3.1200    1.7200    0.0000 C   0  0  0  0  0  0  0  0  0  0  0  0
    4.2200    0.7000    0.0000 C   0  0  0  0  0  0  0  0  0  0  0  0
    5.6543    1.1392    0.0000 H   0  0  0  0  0  0  0  0  0  0  0  0
    3.8800   -0.7600    0.0000 C   0  0  0  0  0  0  0  0  0  0  0  0
    4.9770   -1.7831    0.0000 H   0  0  0  0  0  0  0  0  0  0  0  0
    2.4500   -1.2000    0.0000 C   0  0  0  0  0  0  0  0  0  0  0  0
    2.1159   -2.6623    0.0000 H   0  0  0  0  0  0  0  0  0  0  0  0
    1.3500   -0.1800    0.0000 C   0  0  0  0  0  0  0  0  0  0  0  0
    3.4541    3.1823    0.0000 O   0  0  0  0  0  0  0  0  0  0  0  0
    4.8875    3.6242    0.0000 H   0  0  0  0  0  0  0  0  0  0  0  0
  1  2  1  0  0  0  0 
  1  3  1  0  0  0  0 
  1  4  1  0  0  0  0 
  1  5  1  0  0  0  0 
  5  6  1  0  0  0  0 
  6  7  1  0  0  0  0 
  6  8  1  0  0  0  0 
  6  9  1  0  0  0  0 
  5 10  1  0  0  0  0 
 10 11  1  0  0  0  0 
 10 12  1  0  0  0  0 
 10 13  1  0  0  0  0 
 13 14  1  0  0  0  0 
 13 15  1  0  0  0  0 
 13 16  1  0  0  0  0 
 16 17  1  0  0  0  0 
 16 18  1  0  0  0  0 
 16 19  1  0  0  0  0 
 19 20  1  0  0  0  0 
 20 21  2  0  0  0  0 
 21 22  1  0  0  0  0 
 22 23  1  0  0  0  0 
 22 24  2  0  0  0  0 
 24 25  1  0  0  0  0 
 24 26  1  0  0  0  0 
 26 27  1  0  0  0  0 
 26 28  2  0  0  0  0 
 20 28  1  0  0  0  0 
 28 29  1  0  0  0  0 
 21 30  1  0  0  0  0 
 30 31  1  0  0  0  0 
 30 32  1  0  0  0  0 
 30 33  1  0  0  0  0 
 33 34  1  0  0  0  0 
 33 35  1  0  0  0  0 
 33 36  1  0  0  0  0 
 36 37  2  0  0  0  0 
 37 38  1  0  0  0  0 
 38 39  1  0  0  0  0 
 38 40  2  0  0  0  0 
 40 41  1  0  0  0  0 
 40 42  1  0  0  0  0 
 42 43  1  0  0  0  0 
 42 44  2  0  0  0  0 
 36 44  1  0  0  0  0 
 19 44  1  0  0  0  0 
 37 45  1  0  0  0  0 
 45 46  1  0  0  0  0 
M  END
> <Rank>
24

> <Priority_score>
0.048

> <Reaction_type>
aromatic hydroxylation

> <Parent_ID>
30

> <Parent_InChI>
InChI=1S/C19H24N2/c1-20(2)14-7-15-21-18-10-5-3-8-16(18)12-13-17-9-4-6-11-19(17)21/h3-6,8-11H,7,12-15H2,1-2H3

> <Parent_SMILES>
CN(C)CCCN1c2ccccc2CCc2ccccc21

$$$$
Molecule 30_metabolite 25
  CDK     0516241031

 46 48  0  0  0  0  0  0  0  0999 V2000
    3.4295   -9.0600    0.0000 C   0  0  0  0  0  0  0  0  0  0  0  0
    2.1304   -9.8100    0.0000 H   0  0  0  0  0  0  0  0  0  0  0  0
    4.9067   -8.7995    0.0000 H   0  0  0  0  0  0  0  0  0  0  0  0
    3.9425  -10.4695    0.0000 H   0  0  0  0  0  0  0  0  0  0  0  0
    3.4295   -7.0800    0.0000 N   0  0  0  0  0  0  0  0  0  0  0  0
    4.7285   -6.3300    0.0000 C   0  0  0  0  0  0  0  0  0  0  0  0
    4.7285   -4.8300    0.0000 H   0  0  0  0  0  0  0  0  0  0  0  0
    6.2057   -6.0695    0.0000 H   0  0  0  0  0  0  0  0  0  0  0  0
    5.2415   -7.7395    0.0000 H   0  0  0  0  0  0  0  0  0  0  0  0
    2.1304   -6.3300    0.0000 C   0  0  0  0  0  0  0  0  0  0  0  0
    0.6532   -6.0695    0.0000 H   0  0  0  0  0  0  0  0  0  0  0  0
    1.6174   -7.7395    0.0000 H   0  0  0  0  0  0  0  0  0  0  0  0
    2.1304   -4.8300    0.0000 C   0  0  0  0  0  0  0  0  0  0  0  0
    3.6076   -5.0905    0.0000 H   0  0  0  0  0  0  0  0  0  0  0  0
    0.0000   -3.6000    0.0000 C   0  0  0  0  0  0  0  0  0  0  0  0
   -1.4772   -3.3395    0.0000 H   0  0  0  0  0  0  0  0  0  0  0  0
   -0.5130   -5.0095    0.0000 H   0  0  0  0  0  0  0  0  0  0  0  0
    0.0000   -0.6600    0.0000 N   0  0  0  0  0  0  0  0  0  0  0  0
    1.3500   -0.0100    0.0000 C   0  0  0  0  0  0  0  0  0  0  0  0
    1.6900    1.4600    0.0000 C   0  0  0  0  0  0  0  0  0  0  0  0
    3.1200    1.9000    0.0000 C   0  0  0  0  0  0  0  0  0  0  0  0
    3.4541    3.3623    0.0000 H   0  0  0  0  0  0  0  0  0  0  0  0
    4.2200    0.8800    0.0000 C   0  0  0  0  0  0  0  0  0  0  0  0
    5.6543    1.3192    0.0000 H   0  0  0  0  0  0  0  0  0  0  0  0
    3.8800   -0.5800    0.0000 C   0  0  0  0  0  0  0  0  0  0  0  0
    4.9802   -1.5996    0.0000 H   0  0  0  0  0  0  0  0  0  0  0  0
    2.4500   -1.0300    0.0000 C   0  0  0  0  0  0  0  0  0  0  0  0
    2.1206   -2.4934    0.0000 H   0  0  0  0  0  0  0  0  0  0  0  0
    0.7500    2.6300    0.0000 C   0  0  0  0  0  0  0  0  0  0  0  0
    2.0999    3.2841    0.0000 H   0  0  0  0  0  0  0  0  0  0  0  0
    0.4145    4.0920    0.0000 H   0  0  0  0  0  0  0  0  0  0  0  0
   -0.7500    2.6300    0.0000 C   0  0  0  0  0  0  0  0  0  0  0  0
   -0.4145    4.0920    0.0000 H   0  0  0  0  0  0  0  0  0  0  0  0
   -2.0999    3.2841    0.0000 H   0  0  0  0  0  0  0  0  0  0  0  0
   -1.6900    1.4600    0.0000 C   0  0  0  0  0  0  0  0  0  0  0  0
   -1.3500   -0.0100    0.0000 C   0  0  0  0  0  0  0  0  0  0  0  0
   -2.4500   -1.0300    0.0000 C   0  0  0  0  0  0  0  0  0  0  0  0
   -2.1206   -2.4934    0.0000 H   0  0  0  0  0  0  0  0  0  0  0  0
   -3.8800   -0.5800    0.0000 C   0  0  0  0  0  0  0  0  0  0  0  0
   -4.9802   -1.5996    0.0000 H   0  0  0  0  0  0  0  0  0  0  0  0
   -4.2200    0.8800    0.0000 C   0  0  0  0  0  0  0  0  0  0  0  0
   -5.6543    1.3192    0.0000 H   0  0  0  0  0  0  0  0  0  0  0  0
   -3.1200    1.9000    0.0000 C   0  0  0  0  0  0  0  0  0  0  0  0
   -3.4541    3.3623    0.0000 H   0  0  0  0  0  0  0  0  0  0  0  0
    2.6435   -3.4205    0.0000 O   0  0  0  0  0  0  0  0  0  0  0  0
    4.1207   -3.1600    0.0000 H   0  0  0  0  0  0  0  0  0  0  0  0
  1  2  1  0  0  0  0 
  1  3  1  0  0  0  0 
  1  4  1  0  0  0  0 
  1  5  1  0  0  0  0 
  5  6  1  0  0  0  0 
  6  7  1  0  0  0  0 
  6  8  1  0  0  0  0 
  6  9  1  0  0  0  0 
  5 10  1  0  0  0  0 
 10 11  1  0  0  0  0 
 10 12  1  0  0  0  0 
 10 13  1  0  0  0  0 
 13 14  1  0  0  0  0 
 13 15  1  0  0  0  0 
 15 16  1  0  0  0  0 
 15 17  1  0  0  0  0 
 15 18  1  0  0  0  0 
 18 19  1  0  0  0  0 
 19 20  2  0  0  0  0 
 20 21  1  0  0  0  0 
 21 22  1  0  0  0  0 
 21 23  2  0  0  0  0 
 23 24  1  0  0  0  0 
 23 25  1  0  0  0  0 
 25 26  1  0  0  0  0 
 25 27  2  0  0  0  0 
 19 27  1  0  0  0  0 
 27 28  1  0  0  0  0 
 20 29  1  0  0  0  0 
 29 30  1  0  0  0  0 
 29 31  1  0  0  0  0 
 29 32  1  0  0  0  0 
 32 33  1  0  0  0  0 
 32 34  1  0  0  0  0 
 32 35  1  0  0  0  0 
 35 36  2  0  0  0  0 
 18 36  1  0  0  0  0 
 36 37  1  0  0  0  0 
 37 38  1  0  0  0  0 
 37 39  2  0  0  0  0 
 39 40  1  0  0  0  0 
 39 41  1  0  0  0  0 
 41 42  1  0  0  0  0 
 41 43  2  0  0  0  0 
 35 43  1  0  0  0  0 
 43 44  1  0  0  0  0 
 13 45  1  0  0  0  0 
 45 46  1  0  0  0  0 
M  END
> <Rank>
25

> <Priority_score>
0.02

> <Reaction_type>
aliphatic hydroxylation

> <Parent_ID>
30

> <Parent_InChI>
InChI=1S/C19H24N2/c1-20(2)14-7-15-21-18-10-5-3-8-16(18)12-13-17-9-4-6-11-19(17)21/h3-6,8-11H,7,12-15H2,1-2H3

> <Parent_SMILES>
CN(C)CCCN1c2ccccc2CCc2ccccc21

$$$$
Molecule 31
  CDK     0516241031

 33 36  0  0  0  0  0  0  0  0999 V2000
   -5.7690    4.0600    0.0000 C   0  0  0  0  0  0  0  0  0  0  0  0
   -4.4700    3.3100    0.0000 N   0  0  0  0  0  0  0  0  0  0  0  0
   -3.1710    4.0600    0.0000 C   0  0  0  0  0  0  0  0  0  0  0  0
   -4.4700    1.8100    0.0000 C   0  0  0  0  0  0  0  0  0  0  0  0
   -5.7700    1.0600    0.0000 C   0  0  0  0  0  0  0  0  0  0  0  0
   -5.7700   -0.4400    0.0000 C   0  0  0  0  0  0  0  0  0  0  0  0
   -4.4700   -1.1900    0.0000 C   0  0  0  0  0  0  0  0  0  0  0  0
   -3.1700   -0.4400    0.0000 C   0  0  0  0  0  0  0  0  0  0  0  0
   -3.1700    1.0600    0.0000 C   0  0  0  0  0  0  0  0  0  0  0  0
   -1.8800    1.8100    0.0000 C   0  0  0  0  0  0  0  0  0  0  0  0
   -0.5800    1.0600    0.0000 C   0  0  1  0  0  0  0  0  0  0  0  0
    0.7200    1.8100    0.0000 C   0  0  0  0  0  0  0  0  0  0  0  0
    2.0200    1.0600    0.0000 C   0  0  1  0  0  0  0  0  0  0  0  0
    3.3200    1.8100    0.0000 C   0  0  1  0  0  0  0  0  0  0  0  0
    4.6200    1.0600    0.0000 C   0  0  0  0  0  0  0  0  0  0  0  0
    4.6200   -0.4400    0.0000 C   0  0  0  0  0  0  0  0  0  0  0  0
    3.3200   -1.1900    0.0000 C   0  0  0  0  0  0  0  0  0  0  0  0
    3.3200   -2.6900    0.0000 O   0  0  0  0  0  0  0  0  0  0  0  0
    2.0200   -0.4400    0.0000 C   0  0  1  0  0  0  0  0  0  0  0  0
    0.7200   -1.1900    0.0000 C   0  0  0  0  0  0  0  0  0  0  0  0
   -0.5800   -0.4400    0.0000 C   0  0  0  0  0  0  0  0  0  0  0  0
   -1.8800   -1.1900    0.0000 C   0  0  0  0  0  0  0  0  0  0  0  0
   -1.8825   -2.6900    0.0000 O   0  0  0  0  0  0  0  0  0  0  0  0
    0.7200   -2.6900    0.0000 O   0  0  0  0  0  0  0  0  0  0  0  0
    2.0200   -1.9400    0.0000 O   0  0  0  0  0  0  0  0  0  0  0  0
    5.9189   -1.1902    0.0000 C   0  0  0  0  0  0  0  0  0  0  0  0
    5.9187   -2.6902    0.0000 O   0  0  0  0  0  0  0  0  0  0  0  0
    7.2181   -0.4404    0.0000 N   0  0  0  0  0  0  0  0  0  0  0  0
    5.9189    1.8102    0.0000 O   0  0  0  0  0  0  0  0  0  0  0  0
    3.3200    3.3100    0.0000 N   0  0  0  0  0  0  0  0  0  0  0  0
    4.6190    4.0600    0.0000 C   0  0  0  0  0  0  0  0  0  0  0  0
    2.0210    4.0600    0.0000 C   0  0  0  0  0  0  0  0  0  0  0  0
   -4.4700   -2.6900    0.0000 O   0  0  0  0  0  0  0  0  0  0  0  0
  1  2  1  0  0  0  0 
  2  3  1  0  0  0  0 
  2  4  1  0  0  0  0 
  4  5  2  0  0  0  0 
  5  6  1  0  0  0  0 
  6  7  2  0  0  0  0 
  7  8  1  0  0  0  0 
  8  9  2  0  0  0  0 
  4  9  1  0  0  0  0 
  9 10  1  0  0  0  0 
 11 10  1  1  0  0  0 
 11 12  1  0  0  0  0 
 13 12  1  1  0  0  0 
 13 14  1  0  0  0  0 
 14 15  1  0  0  0  0 
 15 16  2  0  0  0  0 
 16 17  1  0  0  0  0 
 17 18  2  0  0  0  0 
 17 19  1  0  0  0  0 
 13 19  1  0  0  0  0 
 19 20  1  0  0  0  0 
 20 21  2  0  0  0  0 
 11 21  1  0  0  0  0 
 21 22  1  0  0  0  0 
  8 22  1  0  0  0  0 
 22 23  2  0  0  0  0 
 20 24  1  0  0  0  0 
 19 25  1  6  0  0  0 
 16 26  1  0  0  0  0 
 26 27  2  0  0  0  0 
 26 28  1  0  0  0  0 
 15 29  1  0  0  0  0 
 14 30  1  6  0  0  0 
 30 31  1  0  0  0  0 
 30 32  1  0  0  0  0 
  7 33  1  0  0  0  0 
M  END
> <SMILES>
CN(C)c1ccc(O)c2c1C[C@H]1C[C@H]3[C@H](N(C)C)C(O)=C(C(N)=O)C(=O)[C@@]3(O)C(O)=C1C2=O

$$$$
Molecule 31_metabolite 1
  CDK     0516241031

 80 84  0  0  0  0  0  0  0  0999 V2000
   -4.9836    3.3685    0.0000 C   0  0  0  0  0  0  0  0  0  0  0  0
   -4.9836    4.8685    0.0000 H   0  0  0  0  0  0  0  0  0  0  0  0
   -6.4608    3.6290    0.0000 H   0  0  0  0  0  0  0  0  0  0  0  0
   -5.4966    1.9589    0.0000 H   0  0  0  0  0  0  0  0  0  0  0  0
   -3.6846    2.6185    0.0000 N   0  0  0  0  0  0  0  0  0  0  0  0
   -2.3855    3.3685    0.0000 C   0  0  0  0  0  0  0  0  0  0  0  0
   -1.0865    2.6185    0.0000 H   0  0  0  0  0  0  0  0  0  0  0  0
   -3.3497    4.5175    0.0000 H   0  0  0  0  0  0  0  0  0  0  0  0
   -1.4213    4.5175    0.0000 H   0  0  0  0  0  0  0  0  0  0  0  0
   -3.6846    1.1185    0.0000 C   0  0  0  0  0  0  0  0  0  0  0  0
   -4.9846    0.3685    0.0000 C   0  0  0  0  0  0  0  0  0  0  0  0
   -6.2835    1.1187    0.0000 H   0  0  0  0  0  0  0  0  0  0  0  0
   -4.9846   -1.1315    0.0000 C   0  0  0  0  0  0  0  0  0  0  0  0
   -6.2835   -1.8817    0.0000 H   0  0  0  0  0  0  0  0  0  0  0  0
   -3.6846   -1.8815    0.0000 C   0  0  0  0  0  0  0  0  0  0  0  0
   -2.3846   -1.1315    0.0000 C   0  0  0  0  0  0  0  0  0  0  0  0
   -2.3846    0.3685    0.0000 C   0  0  0  0  0  0  0  0  0  0  0  0
   -1.0946    1.1185    0.0000 C   0  0  0  0  0  0  0  0  0  0  0  0
   -0.1318    2.2687    0.0000 H   0  0  0  0  0  0  0  0  0  0  0  0
   -2.0612    2.2655    0.0000 H   0  0  0  0  0  0  0  0  0  0  0  0
    0.2054    0.3685    0.0000 C   0  0  1  0  0  0  0  0  0  0  0  0
    0.2054    3.3085    0.0000 H   0  0  0  0  0  0  0  0  0  0  0  0
    1.5054    1.1185    0.0000 C   0  0  0  0  0  0  0  0  0  0  0  0
    0.9932   -0.2913    0.0000 H   0  0  0  0  0  0  0  0  0  0  0  0
    0.5414    2.2677    0.0000 H   0  0  0  0  0  0  0  0  0  0  0  0
    2.8054    0.3685    0.0000 C   0  0  1  0  0  0  0  0  0  0  0  0
    2.8054    1.8685    0.0000 H   0  0  0  0  0  0  0  0  0  0  0  0
    4.1054    1.1185    0.0000 C   0  0  1  0  0  0  0  0  0  0  0  0
    5.0695    2.2677    0.0000 H   0  0  0  0  0  0  0  0  0  0  0  0
    5.4054    0.3685    0.0000 C   0  0  0  0  0  0  0  0  0  0  0  0
    5.4054   -1.1315    0.0000 C   0  0  0  0  0  0  0  0  0  0  0  0
    4.1054   -1.8815    0.0000 C   0  0  0  0  0  0  0  0  0  0  0  0
    4.1054   -4.3415    0.0000 O   0  0  0  0  0  0  0  0  0  0  0  0
    2.8054   -1.1315    0.0000 C   0  0  1  0  0  0  0  0  0  0  0  0
    1.5054   -1.8815    0.0000 C   0  0  0  0  0  0  0  0  0  0  0  0
    0.2054   -1.1315    0.0000 C   0  0  0  0  0  0  0  0  0  0  0  0
   -1.0946   -1.8815    0.0000 C   0  0  0  0  0  0  0  0  0  0  0  0
   -1.0971   -3.3815    0.0000 O   0  0  0  0  0  0  0  0  0  0  0  0
    1.5054   -3.3815    0.0000 O   0  0  0  0  0  0  0  0  0  0  0  0
    2.8045   -4.1315    0.0000 H   0  0  0  0  0  0  0  0  0  0  0  0
    2.8054   -2.6315    0.0000 O   0  0  0  0  0  0  0  0  0  0  0  0
    4.1045   -3.3815    0.0000 H   0  0  0  0  0  0  0  0  0  0  0  0
    6.7044   -1.8817    0.0000 C   0  0  0  0  0  0  0  0  0  0  0  0
    8.0035   -1.1319    0.0000 O   0  0  0  0  0  0  0  0  0  0  0  0
    6.7041   -3.3817    0.0000 N   0  0  0  0  0  0  0  0  0  0  0  0
    8.0030   -4.1319    0.0000 H   0  0  0  0  0  0  0  0  0  0  0  0
    5.4050   -4.1315    0.0000 H   0  0  0  0  0  0  0  0  0  0  0  0
    6.7044    1.1187    0.0000 O   0  0  0  0  0  0  0  0  0  0  0  0
    8.0035    0.3689    0.0000 H   0  0  0  0  0  0  0  0  0  0  0  0
    3.6785    3.5412    0.0000 N   0  0  0  0  0  0  0  0  0  0  0  0
    2.2690    4.0543    0.0000 C   0  0  0  0  0  0  0  0  0  0  0  0
    1.1199    3.0903    0.0000 H   0  0  0  0  0  0  0  0  0  0  0  0
    1.1201    5.0186    0.0000 H   0  0  0  0  0  0  0  0  0  0  0  0
    3.0192    5.3533    0.0000 H   0  0  0  0  0  0  0  0  0  0  0  0
    4.8277    4.5052    0.0000 C   0  0  0  0  0  0  0  0  0  0  0  0
    4.5674    5.9825    0.0000 H   0  0  0  0  0  0  0  0  0  0  0  0
    6.2373    5.0181    0.0000 H   0  0  0  0  0  0  0  0  0  0  0  0
    5.5776    3.2061    0.0000 H   0  0  0  0  0  0  0  0  0  0  0  0
   -3.6846   -3.3815    0.0000 O   0  0  0  0  0  0  0  0  0  0  0  0
   -4.9836   -4.1315    0.0000 C   0  0  0  0  0  0  0  0  0  0  0  0
   -5.4999   -2.7232    0.0000 H   0  0  0  0  0  0  0  0  0  0  0  0
   -4.0285   -5.2751    0.0000 C   0  0  0  0  0  0  0  0  0  0  0  0
   -2.7318   -6.0291    0.0000 H   0  0  0  0  0  0  0  0  0  0  0  0
   -4.5544   -6.7046    0.0000 C   0  0  0  0  0  0  0  0  0  0  0  0
   -4.5639   -8.2046    0.0000 H   0  0  0  0  0  0  0  0  0  0  0  0
   -6.0394   -6.9546    0.0000 C   0  0  0  0  0  0  0  0  0  0  0  0
   -7.3415   -7.6993    0.0000 H   0  0  0  0  0  0  0  0  0  0  0  0
   -6.9945   -5.8110    0.0000 C   0  0  0  0  0  0  0  0  0  0  0  0
   -8.2916   -5.0577    0.0000 H   0  0  0  0  0  0  0  0  0  0  0  0
   -8.5803   -7.6917    0.0000 C   0  0  0  0  0  0  0  0  0  0  0  0
   -8.0707   -9.1024    0.0000 O   0  0  0  0  0  0  0  0  0  0  0  0
  -10.0569   -7.4276    0.0000 O   0  0  0  0  0  0  0  0  0  0  0  0
  -11.0238   -8.5744    0.0000 H   0  0  0  0  0  0  0  0  0  0  0  0
   -6.4775   -4.4020    0.0000 O   0  0  0  0  0  0  0  0  0  0  0  0
   -5.5347   -8.3672    0.0000 O   0  0  0  0  0  0  0  0  0  0  0  0
   -6.5057   -9.5105    0.0000 H   0  0  0  0  0  0  0  0  0  0  0  0
   -3.0785   -6.9723    0.0000 O   0  0  0  0  0  0  0  0  0  0  0  0
   -2.5724   -8.3844    0.0000 H   0  0  0  0  0  0  0  0  0  0  0  0
   -3.0612   -4.1287    0.0000 O   0  0  0  0  0  0  0  0  0  0  0  0
   -1.5847   -4.3931    0.0000 H   0  0  0  0  0  0  0  0  0  0  0  0
  1  2  1  0  0  0  0 
  1  3  1  0  0  0  0 
  1  4  1  0  0  0  0 
  1  5  1  0  0  0  0 
  5  6  1  0  0  0  0 
  6  7  1  0  0  0  0 
  6  8  1  0  0  0  0 
  6  9  1  0  0  0  0 
  5 10  1  0  0  0  0 
 10 11  2  0  0  0  0 
 11 12  1  0  0  0  0 
 11 13  1  0  0  0  0 
 13 14  1  0  0  0  0 
 13 15  2  0  0  0  0 
 15 16  1  0  0  0  0 
 16 17  2  0  0  0  0 
 10 17  1  0  0  0  0 
 17 18  1  0  0  0  0 
 18 19  1  0  0  0  0 
 18 20  1  0  0  0  0 
 18 21  1  0  0  0  0 
 21 22  1  6  0  0  0 
 21 23  1  0  0  0  0 
 23 24  1  0  0  0  0 
 23 25  1  0  0  0  0 
 23 26  1  0  0  0  0 
 26 27  1  6  0  0  0 
 26 28  1  0  0  0  0 
 28 29  1  1  0  0  0 
 28 30  1  0  0  0  0 
 30 31  2  0  0  0  0 
 31 32  1  0  0  0  0 
 32 33  2  0  0  0  0 
 32 34  1  0  0  0  0 
 26 34  1  0  0  0  0 
 34 35  1  0  0  0  0 
 35 36  2  0  0  0  0 
 21 36  1  0  0  0  0 
 36 37  1  0  0  0  0 
 16 37  1  0  0  0  0 
 37 38  2  0  0  0  0 
 35 39  1  0  0  0  0 
 39 40  1  0  0  0  0 
 34 41  1  6  0  0  0 
 41 42  1  0  0  0  0 
 31 43  1  0  0  0  0 
 43 44  2  0  0  0  0 
 43 45  1  0  0  0  0 
 45 46  1  0  0  0  0 
 45 47  1  0  0  0  0 
 30 48  1  0  0  0  0 
 48 49  1  0  0  0  0 
 28 50  1  6  0  0  0 
 50 51  1  0  0  0  0 
 51 52  1  0  0  0  0 
 51 53  1  0  0  0  0 
 51 54  1  0  0  0  0 
 50 55  1  0  0  0  0 
 55 56  1  0  0  0  0 
 55 57  1  0  0  0  0 
 55 58  1  0  0  0  0 
 15 59  1  0  0  0  0 
 59 60  1  0  0  0  0 
 60 61  1  0  0  0  0 
 60 62  1  0  0  0  0 
 62 63  1  0  0  0  0 
 62 64  1  0  0  0  0 
 64 65  1  0  0  0  0 
 64 66  1  0  0  0  0 
 66 67  1  0  0  0  0 
 66 68  1  0  0  0  0 
 68 69  1  0  0  0  0 
 68 70  1  0  0  0  0 
 70 71  2  0  0  0  0 
 70 72  1  0  0  0  0 
 72 73  1  0  0  0  0 
 68 74  1  0  0  0  0 
 60 74  1  0  0  0  0 
 66 75  1  0  0  0  0 
 75 76  1  0  0  0  0 
 64 77  1  0  0  0  0 
 77 78  1  0  0  0  0 
 62 79  1  0  0  0  0 
 79 80  1  0  0  0  0 
M  END
> <Rank>
1

> <Priority_score>
0.728

> <Reaction_type>
O-glucuronidation_(aromatic_hydroxyl)

> <Parent_ID>
31

> <Parent_InChI>
InChI=1S/C23H27N3O7/c1-25(2)12-5-6-13(27)15-10(12)7-9-8-11-17(26(3)4)19(29)16(22(24)32)21(31)23(11,33)20(30)14(9)18(15)28/h5-6,9,11,17,27,29-30,33H,7-8H2,1-4H3,(H2,24,32)

> <Parent_SMILES>
CN(C)c1ccc(O)c2c1C[C@H]1C[C@H]3[C@H](N(C)C)C(O)=C(C(N)=O)C(=O)[C@@]3(O)C(O)=C1C2=O

$$$$
Molecule 31_metabolite 2
  CDK     0516241031

 64 67  0  0  0  0  0  0  0  0999 V2000
   -5.6857    3.5873    0.0000 C   0  0  0  0  0  0  0  0  0  0  0  0
   -5.6857    5.0873    0.0000 H   0  0  0  0  0  0  0  0  0  0  0  0
   -7.1629    3.8478    0.0000 H   0  0  0  0  0  0  0  0  0  0  0  0
   -6.1988    2.1777    0.0000 H   0  0  0  0  0  0  0  0  0  0  0  0
   -4.3867    2.8373    0.0000 N   0  0  0  0  0  0  0  0  0  0  0  0
   -3.0877    3.5873    0.0000 C   0  0  0  0  0  0  0  0  0  0  0  0
   -1.7886    2.8373    0.0000 H   0  0  0  0  0  0  0  0  0  0  0  0
   -4.0518    4.7364    0.0000 H   0  0  0  0  0  0  0  0  0  0  0  0
   -2.1235    4.7364    0.0000 H   0  0  0  0  0  0  0  0  0  0  0  0
   -4.3867    1.3373    0.0000 C   0  0  0  0  0  0  0  0  0  0  0  0
   -5.6867    0.5873    0.0000 C   0  0  0  0  0  0  0  0  0  0  0  0
   -6.9856    1.3375    0.0000 H   0  0  0  0  0  0  0  0  0  0  0  0
   -5.6867   -0.9127    0.0000 C   0  0  0  0  0  0  0  0  0  0  0  0
   -6.9856   -1.6629    0.0000 H   0  0  0  0  0  0  0  0  0  0  0  0
   -4.3867   -1.6627    0.0000 C   0  0  0  0  0  0  0  0  0  0  0  0
   -3.0867   -0.9127    0.0000 C   0  0  0  0  0  0  0  0  0  0  0  0
   -3.0867    0.5873    0.0000 C   0  0  0  0  0  0  0  0  0  0  0  0
   -1.7967    1.3373    0.0000 C   0  0  0  0  0  0  0  0  0  0  0  0
   -0.8339    2.4875    0.0000 H   0  0  0  0  0  0  0  0  0  0  0  0
   -2.7633    2.4843    0.0000 H   0  0  0  0  0  0  0  0  0  0  0  0
   -0.4967    0.5873    0.0000 C   0  0  1  0  0  0  0  0  0  0  0  0
    1.6329   -0.6441    0.0000 H   0  0  0  0  0  0  0  0  0  0  0  0
    0.8033    1.3373    0.0000 C   0  0  0  0  0  0  0  0  0  0  0  0
    0.2910   -0.0725    0.0000 H   0  0  0  0  0  0  0  0  0  0  0  0
   -0.1608    2.4865    0.0000 H   0  0  0  0  0  0  0  0  0  0  0  0
    2.1033    0.5873    0.0000 C   0  0  1  0  0  0  0  0  0  0  0  0
    2.1033    2.0873    0.0000 H   0  0  0  0  0  0  0  0  0  0  0  0
    3.4033    1.3373    0.0000 C   0  0  1  0  0  0  0  0  0  0  0  0
    4.3674    2.4865    0.0000 H   0  0  0  0  0  0  0  0  0  0  0  0
    4.7033    0.5873    0.0000 C   0  0  0  0  0  0  0  0  0  0  0  0
    4.7033   -0.9127    0.0000 C   0  0  0  0  0  0  0  0  0  0  0  0
    3.4033   -1.6627    0.0000 C   0  0  0  0  0  0  0  0  0  0  0  0
    3.4033   -4.1227    0.0000 O   0  0  0  0  0  0  0  0  0  0  0  0
    2.1033   -0.9127    0.0000 C   0  0  1  0  0  0  0  0  0  0  0  0
    0.8033   -1.6627    0.0000 C   0  0  0  0  0  0  0  0  0  0  0  0
   -0.4967   -0.9127    0.0000 C   0  0  0  0  0  0  0  0  0  0  0  0
   -1.7967   -1.6627    0.0000 C   0  0  0  0  0  0  0  0  0  0  0  0
   -1.7992   -3.1627    0.0000 O   0  0  0  0  0  0  0  0  0  0  0  0
    0.8033   -3.1627    0.0000 O   0  0  0  0  0  0  0  0  0  0  0  0
    2.1023   -3.9127    0.0000 H   0  0  0  0  0  0  0  0  0  0  0  0
    2.1033   -2.4127    0.0000 O   0  0  0  0  0  0  0  0  0  0  0  0
    3.4023   -3.1627    0.0000 H   0  0  0  0  0  0  0  0  0  0  0  0
    6.0022   -1.6629    0.0000 C   0  0  0  0  0  0  0  0  0  0  0  0
    7.3014   -0.9131    0.0000 O   0  0  0  0  0  0  0  0  0  0  0  0
    6.0020   -3.1629    0.0000 N   0  0  0  0  0  0  0  0  0  0  0  0
    7.3009   -3.9131    0.0000 H   0  0  0  0  0  0  0  0  0  0  0  0
    4.7028   -3.9127    0.0000 H   0  0  0  0  0  0  0  0  0  0  0  0
    6.0022    1.3375    0.0000 O   0  0  0  0  0  0  0  0  0  0  0  0
    7.3014    0.5877    0.0000 H   0  0  0  0  0  0  0  0  0  0  0  0
    3.0597    3.2872    0.0000 N   0  0  0  0  0  0  0  0  0  0  0  0
    4.2089    4.2513    0.0000 C   0  0  0  0  0  0  0  0  0  0  0  0
    5.6183    3.7381    0.0000 H   0  0  0  0  0  0  0  0  0  0  0  0
    4.9590    5.5503    0.0000 H   0  0  0  0  0  0  0  0  0  0  0  0
    3.0599    5.2156    0.0000 H   0  0  0  0  0  0  0  0  0  0  0  0
    1.6502    3.8004    0.0000 C   0  0  0  0  0  0  0  0  0  0  0  0
    1.3899    5.2777    0.0000 H   0  0  0  0  0  0  0  0  0  0  0  0
    0.3512    4.5506    0.0000 H   0  0  0  0  0  0  0  0  0  0  0  0
    1.3896    2.3232    0.0000 H   0  0  0  0  0  0  0  0  0  0  0  0
   -4.3867   -3.1627    0.0000 O   0  0  0  0  0  0  0  0  0  0  0  0
   -5.6857   -3.9127    0.0000 S   0  0  0  0  0  0  0  0  0  0  0  0
   -6.1988   -2.5032    0.0000 O   0  0  0  0  0  0  0  0  0  0  0  0
   -7.1629   -4.1732    0.0000 O   0  0  0  0  0  0  0  0  0  0  0  0
   -5.6857   -5.4127    0.0000 O   0  0  0  0  0  0  0  0  0  0  0  0
   -6.9848   -6.1627    0.0000 H   0  0  0  0  0  0  0  0  0  0  0  0
  1  2  1  0  0  0  0 
  1  3  1  0  0  0  0 
  1  4  1  0  0  0  0 
  1  5  1  0  0  0  0 
  5  6  1  0  0  0  0 
  6  7  1  0  0  0  0 
  6  8  1  0  0  0  0 
  6  9  1  0  0  0  0 
  5 10  1  0  0  0  0 
 10 11  2  0  0  0  0 
 11 12  1  0  0  0  0 
 11 13  1  0  0  0  0 
 13 14  1  0  0  0  0 
 13 15  2  0  0  0  0 
 15 16  1  0  0  0  0 
 16 17  2  0  0  0  0 
 10 17  1  0  0  0  0 
 17 18  1  0  0  0  0 
 18 19  1  0  0  0  0 
 18 20  1  0  0  0  0 
 18 21  1  0  0  0  0 
 21 22  1  6  0  0  0 
 21 23  1  0  0  0  0 
 23 24  1  0  0  0  0 
 23 25  1  0  0  0  0 
 23 26  1  0  0  0  0 
 26 27  1  6  0  0  0 
 26 28  1  0  0  0  0 
 28 29  1  1  0  0  0 
 28 30  1  0  0  0  0 
 30 31  2  0  0  0  0 
 31 32  1  0  0  0  0 
 32 33  2  0  0  0  0 
 32 34  1  0  0  0  0 
 26 34  1  0  0  0  0 
 34 35  1  0  0  0  0 
 35 36  2  0  0  0  0 
 21 36  1  0  0  0  0 
 36 37  1  0  0  0  0 
 16 37  1  0  0  0  0 
 37 38  2  0  0  0  0 
 35 39  1  0  0  0  0 
 39 40  1  0  0  0  0 
 34 41  1  6  0  0  0 
 41 42  1  0  0  0  0 
 31 43  1  0  0  0  0 
 43 44  2  0  0  0  0 
 43 45  1  0  0  0  0 
 45 46  1  0  0  0  0 
 45 47  1  0  0  0  0 
 30 48  1  0  0  0  0 
 48 49  1  0  0  0  0 
 28 50  1  6  0  0  0 
 50 51  1  0  0  0  0 
 51 52  1  0  0  0  0 
 51 53  1  0  0  0  0 
 51 54  1  0  0  0  0 
 50 55  1  0  0  0  0 
 55 56  1  0  0  0  0 
 55 57  1  0  0  0  0 
 55 58  1  0  0  0  0 
 15 59  1  0  0  0  0 
 59 60  1  0  0  0  0 
 60 61  2  0  0  0  0 
 60 62  2  0  0  0  0 
 60 63  1  0  0  0  0 
 63 64  1  0  0  0  0 
M  END
> <Rank>
2

> <Priority_score>
0.62

> <Reaction_type>
sulfation_(aromatic_hydroxyl)

> <Parent_ID>
31

> <Parent_InChI>
InChI=1S/C23H27N3O7/c1-25(2)12-5-6-13(27)15-10(12)7-9-8-11-17(26(3)4)19(29)16(22(24)32)21(31)23(11,33)20(30)14(9)18(15)28/h5-6,9,11,17,27,29-30,33H,7-8H2,1-4H3,(H2,24,32)

> <Parent_SMILES>
CN(C)c1ccc(O)c2c1C[C@H]1C[C@H]3[C@H](N(C)C)C(O)=C(C(N)=O)C(=O)[C@@]3(O)C(O)=C1C2=O

$$$$
Molecule 31_metabolite 3
  CDK     0516241031

 80 84  0  0  0  0  0  0  0  0999 V2000
   -6.4468   -0.6381    0.0000 C   0  0  0  0  0  0  0  0  0  0  0  0
   -7.7459   -1.3881    0.0000 H   0  0  0  0  0  0  0  0  0  0  0  0
   -7.4110    0.5109    0.0000 H   0  0  0  0  0  0  0  0  0  0  0  0
   -5.4826    0.5109    0.0000 H   0  0  0  0  0  0  0  0  0  0  0  0
   -5.1478   -1.3881    0.0000 N   0  0  0  0  0  0  0  0  0  0  0  0
   -5.1478   -2.8881    0.0000 C   0  0  0  0  0  0  0  0  0  0  0  0
   -3.8487   -3.6381    0.0000 H   0  0  0  0  0  0  0  0  0  0  0  0
   -6.6250   -2.6277    0.0000 H   0  0  0  0  0  0  0  0  0  0  0  0
   -5.6608   -4.2977    0.0000 H   0  0  0  0  0  0  0  0  0  0  0  0
   -3.8487   -0.6381    0.0000 C   0  0  0  0  0  0  0  0  0  0  0  0
   -3.8492    0.8627    0.0000 C   0  0  0  0  0  0  0  0  0  0  0  0
   -5.1484    1.6125    0.0000 H   0  0  0  0  0  0  0  0  0  0  0  0
   -2.5502    1.6127    0.0000 C   0  0  0  0  0  0  0  0  0  0  0  0
   -2.5499    3.1127    0.0000 H   0  0  0  0  0  0  0  0  0  0  0  0
   -1.2507    0.8619    0.0000 C   0  0  0  0  0  0  0  0  0  0  0  0
   -1.2502   -0.6390    0.0000 C   0  0  0  0  0  0  0  0  0  0  0  0
   -2.5492   -1.3890    0.0000 C   0  0  0  0  0  0  0  0  0  0  0  0
   -2.5537   -2.8811    0.0000 C   0  0  0  0  0  0  0  0  0  0  0  0
   -3.0685   -4.2900    0.0000 H   0  0  0  0  0  0  0  0  0  0  0  0
   -4.0304   -2.6175    0.0000 H   0  0  0  0  0  0  0  0  0  0  0  0
   -1.2542   -3.6320    0.0000 C   0  0  1  0  0  0  0  0  0  0  0  0
   -3.8003   -5.1020    0.0000 H   0  0  0  0  0  0  0  0  0  0  0  0
   -1.2537   -5.1328    0.0000 C   0  0  0  0  0  0  0  0  0  0  0  0
   -0.2890   -3.9842    0.0000 H   0  0  0  0  0  0  0  0  0  0  0  0
   -2.7310   -4.8725    0.0000 H   0  0  0  0  0  0  0  0  0  0  0  0
    0.0458   -5.8836    0.0000 C   0  0  1  0  0  0  0  0  0  0  0  0
   -1.2533   -6.6336    0.0000 H   0  0  0  0  0  0  0  0  0  0  0  0
    0.0463   -7.3845    0.0000 C   0  0  1  0  0  0  0  0  0  0  0  0
   -0.4669   -8.7939    0.0000 H   0  0  0  0  0  0  0  0  0  0  0  0
    1.3458   -8.1353    0.0000 C   0  0  0  0  0  0  0  0  0  0  0  0
    2.6448   -7.3853    0.0000 C   0  0  0  0  0  0  0  0  0  0  0  0
    2.6443   -5.8845    0.0000 C   0  0  0  0  0  0  0  0  0  0  0  0
    3.9434   -5.1345    0.0000 O   0  0  0  0  0  0  0  0  0  0  0  0
    1.3448   -5.1336    0.0000 C   0  0  1  0  0  0  0  0  0  0  0  0
    1.3443   -3.6328    0.0000 C   0  0  0  0  0  0  0  0  0  0  0  0
    0.0448   -2.8820    0.0000 C   0  0  0  0  0  0  0  0  0  0  0  0
    0.0443   -1.3811    0.0000 C   0  0  0  0  0  0  0  0  0  0  0  0
    1.3421   -0.6290    0.0000 O   0  0  0  0  0  0  0  0  0  0  0  0
    2.6434   -2.8828    0.0000 O   0  0  0  0  0  0  0  0  0  0  0  0
    2.6434   -1.3828    0.0000 C   0  0  0  0  0  0  0  0  0  0  0  0
    1.1656   -1.6399    0.0000 H   0  0  0  0  0  0  0  0  0  0  0  0
    4.1113   -1.6382    0.0000 C   0  0  0  0  0  0  0  0  0  0  0  0
    5.4127   -2.3841    0.0000 H   0  0  0  0  0  0  0  0  0  0  0  0
    5.0863   -0.4679    0.0000 C   0  0  0  0  0  0  0  0  0  0  0  0
    6.3806    0.2903    0.0000 H   0  0  0  0  0  0  0  0  0  0  0  0
    4.5603    0.9431    0.0000 C   0  0  0  0  0  0  0  0  0  0  0  0
    4.5542    2.4431    0.0000 H   0  0  0  0  0  0  0  0  0  0  0  0
    3.0924    1.1984    0.0000 C   0  0  0  0  0  0  0  0  0  0  0  0
    1.7915    1.9452    0.0000 H   0  0  0  0  0  0  0  0  0  0  0  0
    3.9282    3.5121    0.0000 C   0  0  0  0  0  0  0  0  0  0  0  0
    5.4048    3.7761    0.0000 O   0  0  0  0  0  0  0  0  0  0  0  0
    2.9612    4.6588    0.0000 O   0  0  0  0  0  0  0  0  0  0  0  0
    3.4709    6.0696    0.0000 H   0  0  0  0  0  0  0  0  0  0  0  0
    2.1307    0.0462    0.0000 O   0  0  0  0  0  0  0  0  0  0  0  0
    6.0360    1.2123    0.0000 O   0  0  0  0  0  0  0  0  0  0  0  0
    6.5407    2.6249    0.0000 H   0  0  0  0  0  0  0  0  0  0  0  0
    6.0561   -1.6123    0.0000 O   0  0  0  0  0  0  0  0  0  0  0  0
    7.5320   -1.3445    0.0000 H   0  0  0  0  0  0  0  0  0  0  0  0
    3.6021   -3.0491    0.0000 O   0  0  0  0  0  0  0  0  0  0  0  0
    4.5694   -4.1955    0.0000 H   0  0  0  0  0  0  0  0  0  0  0  0
    2.8220   -4.8732    0.0000 O   0  0  0  0  0  0  0  0  0  0  0  0
    4.0947   -6.3899    0.0000 H   0  0  0  0  0  0  0  0  0  0  0  0
    3.9440   -8.1351    0.0000 C   0  0  0  0  0  0  0  0  0  0  0  0
    3.9442   -9.6351    0.0000 O   0  0  0  0  0  0  0  0  0  0  0  0
    5.2429   -7.3849    0.0000 N   0  0  0  0  0  0  0  0  0  0  0  0
    6.5420   -8.1347    0.0000 H   0  0  0  0  0  0  0  0  0  0  0  0
    5.2426   -5.8849    0.0000 H   0  0  0  0  0  0  0  0  0  0  0  0
    1.3455   -9.6353    0.0000 O   0  0  0  0  0  0  0  0  0  0  0  0
    2.6445  -10.3855    0.0000 H   0  0  0  0  0  0  0  0  0  0  0  0
   -1.4310   -7.1241    0.0000 N   0  0  0  0  0  0  0  0  0  0  0  0
   -2.3950   -8.2733    0.0000 C   0  0  0  0  0  0  0  0  0  0  0  0
   -1.8819   -9.6828    0.0000 H   0  0  0  0  0  0  0  0  0  0  0  0
   -3.6940   -9.0235    0.0000 H   0  0  0  0  0  0  0  0  0  0  0  0
   -3.3593   -7.1244    0.0000 H   0  0  0  0  0  0  0  0  0  0  0  0
   -1.9442   -5.7147    0.0000 C   0  0  0  0  0  0  0  0  0  0  0  0
   -4.8396   -5.2044    0.0000 H   0  0  0  0  0  0  0  0  0  0  0  0
   -1.9443   -4.2147    0.0000 H   0  0  0  0  0  0  0  0  0  0  0  0
   -0.4670   -5.4540    0.0000 H   0  0  0  0  0  0  0  0  0  0  0  0
    0.0484    1.6119    0.0000 O   0  0  0  0  0  0  0  0  0  0  0  0
    0.0484    3.1119    0.0000 H   0  0  0  0  0  0  0  0  0  0  0  0
  1  2  1  0  0  0  0 
  1  3  1  0  0  0  0 
  1  4  1  0  0  0  0 
  1  5  1  0  0  0  0 
  5  6  1  0  0  0  0 
  6  7  1  0  0  0  0 
  6  8  1  0  0  0  0 
  6  9  1  0  0  0  0 
  5 10  1  0  0  0  0 
 10 11  2  0  0  0  0 
 11 12  1  0  0  0  0 
 11 13  1  0  0  0  0 
 13 14  1  0  0  0  0 
 13 15  2  0  0  0  0 
 15 16  1  0  0  0  0 
 16 17  2  0  0  0  0 
 10 17  1  0  0  0  0 
 17 18  1  0  0  0  0 
 18 19  1  0  0  0  0 
 18 20  1  0  0  0  0 
 18 21  1  0  0  0  0 
 21 22  1  1  0  0  0 
 21 23  1  0  0  0  0 
 23 24  1  0  0  0  0 
 23 25  1  0  0  0  0 
 23 26  1  0  0  0  0 
 26 27  1  1  0  0  0 
 26 28  1  0  0  0  0 
 28 29  1  6  0  0  0 
 28 30  1  0  0  0  0 
 30 31  2  0  0  0  0 
 31 32  1  0  0  0  0 
 32 33  2  0  0  0  0 
 32 34  1  0  0  0  0 
 26 34  1  0  0  0  0 
 34 35  1  0  0  0  0 
 35 36  2  0  0  0  0 
 21 36  1  0  0  0  0 
 36 37  1  0  0  0  0 
 16 37  1  0  0  0  0 
 37 38  2  0  0  0  0 
 35 39  1  0  0  0  0 
 39 40  1  0  0  0  0 
 40 41  1  0  0  0  0 
 40 42  1  0  0  0  0 
 42 43  1  0  0  0  0 
 42 44  1  0  0  0  0 
 44 45  1  0  0  0  0 
 44 46  1  0  0  0  0 
 46 47  1  0  0  0  0 
 46 48  1  0  0  0  0 
 48 49  1  0  0  0  0 
 48 50  1  0  0  0  0 
 50 51  2  0  0  0  0 
 50 52  1  0  0  0  0 
 52 53  1  0  0  0  0 
 48 54  1  0  0  0  0 
 40 54  1  0  0  0  0 
 46 55  1  0  0  0  0 
 55 56  1  0  0  0  0 
 44 57  1  0  0  0  0 
 57 58  1  0  0  0  0 
 42 59  1  0  0  0  0 
 59 60  1  0  0  0  0 
 34 61  1  1  0  0  0 
 61 62  1  0  0  0  0 
 31 63  1  0  0  0  0 
 63 64  2  0  0  0  0 
 63 65  1  0  0  0  0 
 65 66  1  0  0  0  0 
 65 67  1  0  0  0  0 
 30 68  1  0  0  0  0 
 68 69  1  0  0  0  0 
 28 70  1  1  0  0  0 
 70 71  1  0  0  0  0 
 71 72  1  0  0  0  0 
 71 73  1  0  0  0  0 
 71 74  1  0  0  0  0 
 70 75  1  0  0  0  0 
 75 76  1  0  0  0  0 
 75 77  1  0  0  0  0 
 75 78  1  0  0  0  0 
 15 79  1  0  0  0  0 
 79 80  1  0  0  0  0 
M  END
> <Rank>
3

> <Priority_score>
0.4556354454412689

> <Reaction_type>
O-glucuronidation_(aliphatic_hydroxyl)

> <Parent_ID>
31

> <Parent_InChI>
InChI=1S/C23H27N3O7/c1-25(2)12-5-6-13(27)15-10(12)7-9-8-11-17(26(3)4)19(29)16(22(24)32)21(31)23(11,33)20(30)14(9)18(15)28/h5-6,9,11,17,27,29-30,33H,7-8H2,1-4H3,(H2,24,32)

> <Parent_SMILES>
CN(C)c1ccc(O)c2c1C[C@H]1C[C@H]3[C@H](N(C)C)C(O)=C(C(N)=O)C(=O)[C@@]3(O)C(O)=C1C2=O

$$$$
Molecule 31_metabolite 4
  CDK     0516241031

 62 65  0  0  0  0  0  0  0  0999 V2000
   -6.6112    3.7305    0.0000 C   0  0  0  0  0  0  0  0  0  0  0  0
   -6.6112    5.2305    0.0000 H   0  0  0  0  0  0  0  0  0  0  0  0
   -8.0884    3.9910    0.0000 H   0  0  0  0  0  0  0  0  0  0  0  0
   -7.1243    2.3209    0.0000 H   0  0  0  0  0  0  0  0  0  0  0  0
   -5.3122    2.9805    0.0000 N   0  0  0  0  0  0  0  0  0  0  0  0
   -4.0132    3.7305    0.0000 C   0  0  0  0  0  0  0  0  0  0  0  0
   -2.7141    2.9805    0.0000 H   0  0  0  0  0  0  0  0  0  0  0  0
   -4.9773    4.8796    0.0000 H   0  0  0  0  0  0  0  0  0  0  0  0
   -3.0490    4.8796    0.0000 H   0  0  0  0  0  0  0  0  0  0  0  0
   -5.3122    1.4805    0.0000 C   0  0  0  0  0  0  0  0  0  0  0  0
   -6.6122    0.7305    0.0000 C   0  0  0  0  0  0  0  0  0  0  0  0
   -7.9111    1.4807    0.0000 H   0  0  0  0  0  0  0  0  0  0  0  0
   -6.6122   -0.7695    0.0000 C   0  0  0  0  0  0  0  0  0  0  0  0
   -7.9111   -1.5197    0.0000 H   0  0  0  0  0  0  0  0  0  0  0  0
   -5.3122   -1.5195    0.0000 C   0  0  0  0  0  0  0  0  0  0  0  0
   -4.0122   -0.7695    0.0000 C   0  0  0  0  0  0  0  0  0  0  0  0
   -4.0122    0.7305    0.0000 C   0  0  0  0  0  0  0  0  0  0  0  0
   -2.7222    1.4805    0.0000 C   0  0  0  0  0  0  0  0  0  0  0  0
   -1.7594    2.6307    0.0000 H   0  0  0  0  0  0  0  0  0  0  0  0
   -3.6888    2.6275    0.0000 H   0  0  0  0  0  0  0  0  0  0  0  0
   -1.4222    0.7305    0.0000 C   0  0  1  0  0  0  0  0  0  0  0  0
    0.4613   -0.8520    0.0000 H   0  0  0  0  0  0  0  0  0  0  0  0
   -0.1222    1.4805    0.0000 C   0  0  0  0  0  0  0  0  0  0  0  0
   -0.6345    0.0707    0.0000 H   0  0  0  0  0  0  0  0  0  0  0  0
   -1.0863    2.6297    0.0000 H   0  0  0  0  0  0  0  0  0  0  0  0
    1.1778    0.7305    0.0000 C   0  0  1  0  0  0  0  0  0  0  0  0
    1.1778    2.2305    0.0000 H   0  0  0  0  0  0  0  0  0  0  0  0
    2.4778    1.4805    0.0000 C   0  0  1  0  0  0  0  0  0  0  0  0
    3.4419    2.6297    0.0000 H   0  0  0  0  0  0  0  0  0  0  0  0
    3.7778    0.7305    0.0000 C   0  0  0  0  0  0  0  0  0  0  0  0
    3.7778   -0.7695    0.0000 C   0  0  0  0  0  0  0  0  0  0  0  0
    2.4778   -1.5195    0.0000 C   0  0  0  0  0  0  0  0  0  0  0  0
    2.4778   -3.0195    0.0000 O   0  0  0  0  0  0  0  0  0  0  0  0
    1.1778   -0.7695    0.0000 C   0  0  1  0  0  0  0  0  0  0  0  0
   -0.1222   -1.5195    0.0000 C   0  0  0  0  0  0  0  0  0  0  0  0
    0.3901   -0.1097    0.0000 H   0  0  0  0  0  0  0  0  0  0  0  0
   -1.4222   -0.7695    0.0000 C   0  0  0  0  0  0  0  0  0  0  0  0
   -1.4222   -2.2695    0.0000 H   0  0  0  0  0  0  0  0  0  0  0  0
   -2.7222   -1.5195    0.0000 C   0  0  0  0  0  0  0  0  0  0  0  0
   -2.7247   -3.0195    0.0000 O   0  0  0  0  0  0  0  0  0  0  0  0
    1.7674   -3.7719    0.0000 O   0  0  0  0  0  0  0  0  0  0  0  0
    1.2542   -5.1814    0.0000 H   0  0  0  0  0  0  0  0  0  0  0  0
    1.1778   -2.2695    0.0000 O   0  0  0  0  0  0  0  0  0  0  0  0
   -0.1212   -3.0195    0.0000 H   0  0  0  0  0  0  0  0  0  0  0  0
    5.0767   -1.5197    0.0000 C   0  0  0  0  0  0  0  0  0  0  0  0
    6.3759   -0.7699    0.0000 O   0  0  0  0  0  0  0  0  0  0  0  0
    5.0765   -3.0197    0.0000 N   0  0  0  0  0  0  0  0  0  0  0  0
    6.3754   -3.7699    0.0000 H   0  0  0  0  0  0  0  0  0  0  0  0
    3.7773   -3.7695    0.0000 H   0  0  0  0  0  0  0  0  0  0  0  0
    5.0767    1.4807    0.0000 O   0  0  0  0  0  0  0  0  0  0  0  0
    6.3759    0.7309    0.0000 H   0  0  0  0  0  0  0  0  0  0  0  0
    2.1342    3.4304    0.0000 N   0  0  0  0  0  0  0  0  0  0  0  0
    3.2834    4.3945    0.0000 C   0  0  0  0  0  0  0  0  0  0  0  0
    4.6928    3.8813    0.0000 H   0  0  0  0  0  0  0  0  0  0  0  0
    4.0335    5.6935    0.0000 H   0  0  0  0  0  0  0  0  0  0  0  0
    2.1344    5.3588    0.0000 H   0  0  0  0  0  0  0  0  0  0  0  0
    0.7247    3.9436    0.0000 C   0  0  0  0  0  0  0  0  0  0  0  0
    0.4644    5.4209    0.0000 H   0  0  0  0  0  0  0  0  0  0  0  0
   -0.5743    4.6938    0.0000 H   0  0  0  0  0  0  0  0  0  0  0  0
    0.4641    2.4664    0.0000 H   0  0  0  0  0  0  0  0  0  0  0  0
   -5.3122   -3.0195    0.0000 O   0  0  0  0  0  0  0  0  0  0  0  0
   -6.6112   -3.7695    0.0000 H   0  0  0  0  0  0  0  0  0  0  0  0
  1  2  1  0  0  0  0 
  1  3  1  0  0  0  0 
  1  4  1  0  0  0  0 
  1  5  1  0  0  0  0 
  5  6  1  0  0  0  0 
  6  7  1  0  0  0  0 
  6  8  1  0  0  0  0 
  6  9  1  0  0  0  0 
  5 10  1  0  0  0  0 
 10 11  2  0  0  0  0 
 11 12  1  0  0  0  0 
 11 13  1  0  0  0  0 
 13 14  1  0  0  0  0 
 13 15  2  0  0  0  0 
 15 16  1  0  0  0  0 
 16 17  2  0  0  0  0 
 10 17  1  0  0  0  0 
 17 18  1  0  0  0  0 
 18 19  1  0  0  0  0 
 18 20  1  0  0  0  0 
 18 21  1  0  0  0  0 
 21 22  1  6  0  0  0 
 21 23  1  0  0  0  0 
 23 24  1  0  0  0  0 
 23 25  1  0  0  0  0 
 23 26  1  0  0  0  0 
 26 27  1  6  0  0  0 
 26 28  1  0  0  0  0 
 28 29  1  1  0  0  0 
 28 30  1  0  0  0  0 
 30 31  2  0  0  0  0 
 31 32  1  0  0  0  0 
 32 33  2  0  0  0  0 
 32 34  1  0  0  0  0 
 26 34  1  0  0  0  0 
 34 35  1  0  0  0  0 
 35 36  1  0  0  0  0 
 35 37  1  0  0  0  0 
 21 37  1  0  0  0  0 
 37 38  1  0  0  0  0 
 37 39  1  0  0  0  0 
 16 39  1  0  0  0  0 
 39 40  2  0  0  0  0 
 35 41  1  0  0  0  0 
 41 42  1  0  0  0  0 
 34 43  1  6  0  0  0 
 43 44  1  0  0  0  0 
 31 45  1  0  0  0  0 
 45 46  2  0  0  0  0 
 45 47  1  0  0  0  0 
 47 48  1  0  0  0  0 
 47 49  1  0  0  0  0 
 30 50  1  0  0  0  0 
 50 51  1  0  0  0  0 
 28 52  1  6  0  0  0 
 52 53  1  0  0  0  0 
 53 54  1  0  0  0  0 
 53 55  1  0  0  0  0 
 53 56  1  0  0  0  0 
 52 57  1  0  0  0  0 
 57 58  1  0  0  0  0 
 57 59  1  0  0  0  0 
 57 60  1  0  0  0  0 
 15 61  1  0  0  0  0 
 61 62  1  0  0  0  0 
M  END
> <Rank>
4

> <Priority_score>
0.452

> <Reaction_type>
double_bond_reduction

> <Parent_ID>
31

> <Parent_InChI>
InChI=1S/C23H27N3O7/c1-25(2)12-5-6-13(27)15-10(12)7-9-8-11-17(26(3)4)19(29)16(22(24)32)21(31)23(11,33)20(30)14(9)18(15)28/h5-6,9,11,17,27,29-30,33H,7-8H2,1-4H3,(H2,24,32)

> <Parent_SMILES>
CN(C)c1ccc(O)c2c1C[C@H]1C[C@H]3[C@H](N(C)C)C(O)=C(C(N)=O)C(=O)[C@@]3(O)C(O)=C1C2=O

$$$$
Molecule 31_metabolite 5
  CDK     0516241031

 61 65  0  0  0  0  0  0  0  0999 V2000
    0.2862    7.5200    0.0000 C   0  0  0  0  0  0  0  0  0  0  0  0
    1.5852    8.2700    0.0000 H   0  0  0  0  0  0  0  0  0  0  0  0
   -0.2269    8.9295    0.0000 H   0  0  0  0  0  0  0  0  0  0  0  0
   -1.1910    7.2595    0.0000 H   0  0  0  0  0  0  0  0  0  0  0  0
    0.2862    6.0200    0.0000 N   0  0  0  0  0  0  0  0  0  0  0  0
    1.5852    5.2700    0.0000 C   0  0  0  0  0  0  0  0  0  0  0  0
    1.5852    3.7700    0.0000 H   0  0  0  0  0  0  0  0  0  0  0  0
    2.0982    6.6795    0.0000 H   0  0  0  0  0  0  0  0  0  0  0  0
    3.0624    5.0095    0.0000 H   0  0  0  0  0  0  0  0  0  0  0  0
   -1.0129    5.2700    0.0000 C   0  0  0  0  0  0  0  0  0  0  0  0
   -2.3119    6.0200    0.0000 C   0  0  0  0  0  0  0  0  0  0  0  0
   -2.3119    7.5200    0.0000 H   0  0  0  0  0  0  0  0  0  0  0  0
   -3.6109    5.2700    0.0000 C   0  0  0  0  0  0  0  0  0  0  0  0
   -4.9100    6.0200    0.0000 H   0  0  0  0  0  0  0  0  0  0  0  0
   -3.6109    3.7700    0.0000 C   0  0  0  0  0  0  0  0  0  0  0  0
   -2.3119    3.0200    0.0000 C   0  0  0  0  0  0  0  0  0  0  0  0
   -1.0129    3.7700    0.0000 C   0  0  0  0  0  0  0  0  0  0  0  0
    0.2862    3.0200    0.0000 C   0  0  0  0  0  0  0  0  0  0  0  0
    1.7634    2.7595    0.0000 H   0  0  0  0  0  0  0  0  0  0  0  0
    0.7992    4.4295    0.0000 H   0  0  0  0  0  0  0  0  0  0  0  0
    0.2862    1.5200    0.0000 C   0  0  1  0  0  0  0  0  0  0  0  0
    0.2862   -0.9400    0.0000 H   0  0  0  0  0  0  0  0  0  0  0  0
    1.5852    0.7700    0.0000 C   0  0  0  0  0  0  0  0  0  0  0  0
    0.1080    0.5095    0.0000 H   0  0  0  0  0  0  0  0  0  0  0  0
    2.0982    2.1795    0.0000 H   0  0  0  0  0  0  0  0  0  0  0  0
    1.5852   -0.7300    0.0000 C   0  0  1  0  0  0  0  0  0  0  0  0
    2.8843    0.0200    0.0000 H   0  0  0  0  0  0  0  0  0  0  0  0
    2.8843   -1.4800    0.0000 C   0  0  1  0  0  0  0  0  0  0  0  0
    4.3615   -1.7405    0.0000 H   0  0  0  0  0  0  0  0  0  0  0  0
    2.8843   -2.9800    0.0000 C   0  0  0  0  0  0  0  0  0  0  0  0
    1.5852   -3.7300    0.0000 C   0  0  0  0  0  0  0  0  0  0  0  0
    0.2862   -2.9800    0.0000 C   0  0  0  0  0  0  0  0  0  0  0  0
   -1.0129   -3.7300    0.0000 O   0  0  0  0  0  0  0  0  0  0  0  0
    0.2862   -1.4800    0.0000 C   0  0  1  0  0  0  0  0  0  0  0  0
   -1.0129   -0.7300    0.0000 C   0  0  0  0  0  0  0  0  0  0  0  0
   -1.0129    0.7700    0.0000 C   0  0  0  0  0  0  0  0  0  0  0  0
   -2.3119    1.5200    0.0000 C   0  0  0  0  0  0  0  0  0  0  0  0
   -3.6109    0.7700    0.0000 O   0  0  0  0  0  0  0  0  0  0  0  0
   -2.3119    0.0200    0.0000 O   0  0  0  0  0  0  0  0  0  0  0  0
   -2.4829   -3.2761    0.0000 O   0  0  0  0  0  0  0  0  0  0  0  0
   -3.9829   -3.2761    0.0000 H   0  0  0  0  0  0  0  0  0  0  0  0
   -1.0129   -2.2300    0.0000 O   0  0  0  0  0  0  0  0  0  0  0  0
   -2.3119   -1.4800    0.0000 H   0  0  0  0  0  0  0  0  0  0  0  0
    1.5852   -5.2300    0.0000 C   0  0  0  0  0  0  0  0  0  0  0  0
    2.8843   -5.9800    0.0000 O   0  0  0  0  0  0  0  0  0  0  0  0
    0.2862   -5.9800    0.0000 N   0  0  0  0  0  0  0  0  0  0  0  0
    0.2862   -7.4800    0.0000 H   0  0  0  0  0  0  0  0  0  0  0  0
   -1.0129   -5.2300    0.0000 H   0  0  0  0  0  0  0  0  0  0  0  0
    4.1833   -3.7300    0.0000 O   0  0  0  0  0  0  0  0  0  0  0  0
    4.1833   -5.2300    0.0000 H   0  0  0  0  0  0  0  0  0  0  0  0
    4.4010   -0.2073    0.0000 N   0  0  0  0  0  0  0  0  0  0  0  0
    5.8106   -0.7203    0.0000 C   0  0  0  0  0  0  0  0  0  0  0  0
    6.0710   -2.1975    0.0000 H   0  0  0  0  0  0  0  0  0  0  0  0
    7.3106   -0.7203    0.0000 H   0  0  0  0  0  0  0  0  0  0  0  0
    6.0710    0.7569    0.0000 H   0  0  0  0  0  0  0  0  0  0  0  0
    4.1405    1.2699    0.0000 C   0  0  0  0  0  0  0  0  0  0  0  0
    5.2896    2.2341    0.0000 H   0  0  0  0  0  0  0  0  0  0  0  0
    4.1405    2.7699    0.0000 H   0  0  0  0  0  0  0  0  0  0  0  0
    2.7310    0.7569    0.0000 H   0  0  0  0  0  0  0  0  0  0  0  0
   -4.9100    3.0200    0.0000 O   0  0  0  0  0  0  0  0  0  0  0  0
   -6.2090    3.7700    0.0000 H   0  0  0  0  0  0  0  0  0  0  0  0
  1  2  1  0  0  0  0 
  1  3  1  0  0  0  0 
  1  4  1  0  0  0  0 
  1  5  1  0  0  0  0 
  5  6  1  0  0  0  0 
  6  7  1  0  0  0  0 
  6  8  1  0  0  0  0 
  6  9  1  0  0  0  0 
  5 10  1  0  0  0  0 
 10 11  2  0  0  0  0 
 11 12  1  0  0  0  0 
 11 13  1  0  0  0  0 
 13 14  1  0  0  0  0 
 13 15  2  0  0  0  0 
 15 16  1  0  0  0  0 
 16 17  2  0  0  0  0 
 10 17  1  0  0  0  0 
 17 18  1  0  0  0  0 
 18 19  1  0  0  0  0 
 18 20  1  0  0  0  0 
 18 21  1  0  0  0  0 
 21 22  1  6  0  0  0 
 21 23  1  0  0  0  0 
 23 24  1  0  0  0  0 
 23 25  1  0  0  0  0 
 23 26  1  0  0  0  0 
 26 27  1  6  0  0  0 
 26 28  1  0  0  0  0 
 28 29  1  1  0  0  0 
 28 30  1  0  0  0  0 
 30 31  2  0  0  0  0 
 31 32  1  0  0  0  0 
 32 33  2  0  0  0  0 
 32 34  1  0  0  0  0 
 26 34  1  0  0  0  0 
 34 35  1  0  0  0  0 
 35 36  1  0  0  0  0 
 21 36  1  0  0  0  0 
 36 37  1  0  0  0  0 
 16 37  1  0  0  0  0 
 37 38  2  0  0  0  0 
 36 39  1  0  0  0  0 
 35 39  1  0  0  0  0 
 35 40  1  0  0  0  0 
 40 41  1  0  0  0  0 
 34 42  1  6  0  0  0 
 42 43  1  0  0  0  0 
 31 44  1  0  0  0  0 
 44 45  2  0  0  0  0 
 44 46  1  0  0  0  0 
 46 47  1  0  0  0  0 
 46 48  1  0  0  0  0 
 30 49  1  0  0  0  0 
 49 50  1  0  0  0  0 
 28 51  1  6  0  0  0 
 51 52  1  0  0  0  0 
 52 53  1  0  0  0  0 
 52 54  1  0  0  0  0 
 52 55  1  0  0  0  0 
 51 56  1  0  0  0  0 
 56 57  1  0  0  0  0 
 56 58  1  0  0  0  0 
 56 59  1  0  0  0  0 
 15 60  1  0  0  0  0 
 60 61  1  0  0  0  0 
M  END
> <Rank>
4

> <Priority_score>
0.452

> <Reaction_type>
epoxidation

> <Parent_ID>
31

> <Parent_InChI>
InChI=1S/C23H27N3O7/c1-25(2)12-5-6-13(27)15-10(12)7-9-8-11-17(26(3)4)19(29)16(22(24)32)21(31)23(11,33)20(30)14(9)18(15)28/h5-6,9,11,17,27,29-30,33H,7-8H2,1-4H3,(H2,24,32)

> <Parent_SMILES>
CN(C)c1ccc(O)c2c1C[C@H]1C[C@H]3[C@H](N(C)C)C(O)=C(C(N)=O)C(=O)[C@@]3(O)C(O)=C1C2=O

$$$$
Molecule 31_metabolite 6
  CDK     0516241031

 58 61  0  0  0  0  0  0  0  0999 V2000
   -5.6857    4.5473    0.0000 C   0  0  0  0  0  0  0  0  0  0  0  0
   -5.6857    6.0473    0.0000 H   0  0  0  0  0  0  0  0  0  0  0  0
   -7.1629    4.8078    0.0000 H   0  0  0  0  0  0  0  0  0  0  0  0
   -6.1988    3.1377    0.0000 H   0  0  0  0  0  0  0  0  0  0  0  0
   -4.3867    3.7973    0.0000 N   0  0  0  0  0  0  0  0  0  0  0  0
   -3.0877    4.5473    0.0000 C   0  0  0  0  0  0  0  0  0  0  0  0
   -3.0877    6.0473    0.0000 H   0  0  0  0  0  0  0  0  0  0  0  0
   -2.5746    3.1377    0.0000 H   0  0  0  0  0  0  0  0  0  0  0  0
   -1.6104    4.8078    0.0000 H   0  0  0  0  0  0  0  0  0  0  0  0
   -4.3867    2.2973    0.0000 C   0  0  0  0  0  0  0  0  0  0  0  0
   -5.6867    1.5473    0.0000 C   0  0  0  0  0  0  0  0  0  0  0  0
   -6.9856    2.2975    0.0000 H   0  0  0  0  0  0  0  0  0  0  0  0
   -5.6867    0.0473    0.0000 C   0  0  0  0  0  0  0  0  0  0  0  0
   -6.9856   -0.7029    0.0000 H   0  0  0  0  0  0  0  0  0  0  0  0
   -4.3867   -0.7027    0.0000 C   0  0  0  0  0  0  0  0  0  0  0  0
   -3.0867    0.0473    0.0000 C   0  0  0  0  0  0  0  0  0  0  0  0
   -3.0867    1.5473    0.0000 C   0  0  0  0  0  0  0  0  0  0  0  0
   -1.7967    2.2973    0.0000 C   0  0  0  0  0  0  0  0  0  0  0  0
   -1.7992    3.7973    0.0000 H   0  0  0  0  0  0  0  0  0  0  0  0
   -0.4967    1.5473    0.0000 C   0  0  0  0  0  0  0  0  0  0  0  0
    0.8033    2.2973    0.0000 C   0  0  0  0  0  0  0  0  0  0  0  0
    0.2910    0.8875    0.0000 H   0  0  0  0  0  0  0  0  0  0  0  0
   -0.1608    3.4465    0.0000 H   0  0  0  0  0  0  0  0  0  0  0  0
    2.1033    1.5473    0.0000 C   0  0  1  0  0  0  0  0  0  0  0  0
    2.1033    3.0473    0.0000 H   0  0  0  0  0  0  0  0  0  0  0  0
    3.4033    2.2973    0.0000 C   0  0  1  0  0  0  0  0  0  0  0  0
    4.3674    3.4465    0.0000 H   0  0  0  0  0  0  0  0  0  0  0  0
    4.7033    1.5473    0.0000 C   0  0  0  0  0  0  0  0  0  0  0  0
    4.7033    0.0473    0.0000 C   0  0  0  0  0  0  0  0  0  0  0  0
    3.4033   -0.7027    0.0000 C   0  0  0  0  0  0  0  0  0  0  0  0
    3.4033   -3.1627    0.0000 O   0  0  0  0  0  0  0  0  0  0  0  0
    2.1033    0.0473    0.0000 C   0  0  1  0  0  0  0  0  0  0  0  0
    0.8033   -0.7027    0.0000 C   0  0  0  0  0  0  0  0  0  0  0  0
   -0.4967    0.0473    0.0000 C   0  0  0  0  0  0  0  0  0  0  0  0
   -1.7967   -0.7027    0.0000 C   0  0  0  0  0  0  0  0  0  0  0  0
   -1.7992   -2.2027    0.0000 O   0  0  0  0  0  0  0  0  0  0  0  0
    0.8033   -2.2027    0.0000 O   0  0  0  0  0  0  0  0  0  0  0  0
    2.1023   -2.9527    0.0000 H   0  0  0  0  0  0  0  0  0  0  0  0
    2.1033   -1.4527    0.0000 O   0  0  0  0  0  0  0  0  0  0  0  0
    3.4023   -2.2027    0.0000 H   0  0  0  0  0  0  0  0  0  0  0  0
    6.0022   -0.7029    0.0000 C   0  0  0  0  0  0  0  0  0  0  0  0
    7.3014    0.0469    0.0000 O   0  0  0  0  0  0  0  0  0  0  0  0
    6.0020   -2.2029    0.0000 N   0  0  0  0  0  0  0  0  0  0  0  0
    7.3009   -2.9531    0.0000 H   0  0  0  0  0  0  0  0  0  0  0  0
    4.7028   -2.9527    0.0000 H   0  0  0  0  0  0  0  0  0  0  0  0
    6.0022    2.2975    0.0000 O   0  0  0  0  0  0  0  0  0  0  0  0
    7.3014    1.5477    0.0000 H   0  0  0  0  0  0  0  0  0  0  0  0
    3.0597    4.2472    0.0000 N   0  0  0  0  0  0  0  0  0  0  0  0
    4.2089    5.2113    0.0000 C   0  0  0  0  0  0  0  0  0  0  0  0
    5.6183    4.6981    0.0000 H   0  0  0  0  0  0  0  0  0  0  0  0
    4.9590    6.5103    0.0000 H   0  0  0  0  0  0  0  0  0  0  0  0
    3.0599    6.1756    0.0000 H   0  0  0  0  0  0  0  0  0  0  0  0
    1.6502    4.7604    0.0000 C   0  0  0  0  0  0  0  0  0  0  0  0
    1.3899    6.2377    0.0000 H   0  0  0  0  0  0  0  0  0  0  0  0
    0.1502    4.7606    0.0000 H   0  0  0  0  0  0  0  0  0  0  0  0
    1.3896    3.2832    0.0000 H   0  0  0  0  0  0  0  0  0  0  0  0
   -4.3867   -2.2027    0.0000 O   0  0  0  0  0  0  0  0  0  0  0  0
   -5.6857   -2.9527    0.0000 H   0  0  0  0  0  0  0  0  0  0  0  0
  1  2  1  0  0  0  0 
  1  3  1  0  0  0  0 
  1  4  1  0  0  0  0 
  1  5  1  0  0  0  0 
  5  6  1  0  0  0  0 
  6  7  1  0  0  0  0 
  6  8  1  0  0  0  0 
  6  9  1  0  0  0  0 
  5 10  1  0  0  0  0 
 10 11  2  0  0  0  0 
 11 12  1  0  0  0  0 
 11 13  1  0  0  0  0 
 13 14  1  0  0  0  0 
 13 15  2  0  0  0  0 
 15 16  1  0  0  0  0 
 16 17  2  0  0  0  0 
 10 17  1  0  0  0  0 
 17 18  1  0  0  0  0 
 18 19  1  0  0  0  0 
 18 20  2  0  0  0  0 
 20 21  1  0  0  0  0 
 21 22  1  0  0  0  0 
 21 23  1  0  0  0  0 
 21 24  1  0  0  0  0 
 24 25  1  6  0  0  0 
 24 26  1  0  0  0  0 
 26 27  1  1  0  0  0 
 26 28  1  0  0  0  0 
 28 29  2  0  0  0  0 
 29 30  1  0  0  0  0 
 30 31  2  0  0  0  0 
 30 32  1  0  0  0  0 
 24 32  1  0  0  0  0 
 32 33  1  0  0  0  0 
 33 34  2  0  0  0  0 
 20 34  1  0  0  0  0 
 34 35  1  0  0  0  0 
 16 35  1  0  0  0  0 
 35 36  2  0  0  0  0 
 33 37  1  0  0  0  0 
 37 38  1  0  0  0  0 
 32 39  1  6  0  0  0 
 39 40  1  0  0  0  0 
 29 41  1  0  0  0  0 
 41 42  2  0  0  0  0 
 41 43  1  0  0  0  0 
 43 44  1  0  0  0  0 
 43 45  1  0  0  0  0 
 28 46  1  0  0  0  0 
 46 47  1  0  0  0  0 
 26 48  1  6  0  0  0 
 48 49  1  0  0  0  0 
 49 50  1  0  0  0  0 
 49 51  1  0  0  0  0 
 49 52  1  0  0  0  0 
 48 53  1  0  0  0  0 
 53 54  1  0  0  0  0 
 53 55  1  0  0  0  0 
 53 56  1  0  0  0  0 
 15 57  1  0  0  0  0 
 57 58  1  0  0  0  0 
M  END
> <Rank>
4

> <Priority_score>
0.452

> <Reaction_type>
dehydrogenation_(alpha,beta_to_SP2_both_sides)

> <Parent_ID>
31

> <Parent_InChI>
InChI=1S/C23H27N3O7/c1-25(2)12-5-6-13(27)15-10(12)7-9-8-11-17(26(3)4)19(29)16(22(24)32)21(31)23(11,33)20(30)14(9)18(15)28/h5-6,9,11,17,27,29-30,33H,7-8H2,1-4H3,(H2,24,32)

> <Parent_SMILES>
CN(C)c1ccc(O)c2c1C[C@H]1C[C@H]3[C@H](N(C)C)C(O)=C(C(N)=O)C(=O)[C@@]3(O)C(O)=C1C2=O

$$$$
Molecule 31_metabolite 7
  CDK     0516241031

 61 64  0  0  0  0  0  0  0  0999 V2000
   -6.0394    3.0139    0.0000 C   0  0  0  0  0  0  0  0  0  0  0  0
   -6.0394    4.5139    0.0000 H   0  0  0  0  0  0  0  0  0  0  0  0
   -7.5167    3.2744    0.0000 H   0  0  0  0  0  0  0  0  0  0  0  0
   -6.5525    1.6043    0.0000 H   0  0  0  0  0  0  0  0  0  0  0  0
   -4.7404    2.2639    0.0000 N   0  0  0  0  0  0  0  0  0  0  0  0
   -3.4414    3.0139    0.0000 C   0  0  0  0  0  0  0  0  0  0  0  0
   -2.1423    2.2639    0.0000 H   0  0  0  0  0  0  0  0  0  0  0  0
   -4.7141    4.5307    0.0000 H   0  0  0  0  0  0  0  0  0  0  0  0
   -2.4772    4.1629    0.0000 H   0  0  0  0  0  0  0  0  0  0  0  0
   -4.7404   -0.6761    0.0000 C   0  0  0  0  0  0  0  0  0  0  0  0
   -6.0404   -1.4261    0.0000 C   0  0  0  0  0  0  0  0  0  0  0  0
   -7.3393   -0.6759    0.0000 H   0  0  0  0  0  0  0  0  0  0  0  0
   -6.0404   -2.9261    0.0000 C   0  0  0  0  0  0  0  0  0  0  0  0
   -7.3393   -3.6763    0.0000 H   0  0  0  0  0  0  0  0  0  0  0  0
   -4.7404   -3.6761    0.0000 C   0  0  0  0  0  0  0  0  0  0  0  0
   -3.4404   -2.9261    0.0000 C   0  0  0  0  0  0  0  0  0  0  0  0
   -3.4404   -1.4261    0.0000 C   0  0  0  0  0  0  0  0  0  0  0  0
   -2.1404   -0.6761    0.0000 C   0  0  0  0  0  0  0  0  0  0  0  0
   -0.2508    1.5763    0.0000 H   0  0  0  0  0  0  0  0  0  0  0  0
   -3.1045    0.4731    0.0000 H   0  0  0  0  0  0  0  0  0  0  0  0
   -0.8404   -1.4261    0.0000 C   0  0  1  0  0  0  0  0  0  0  0  0
    0.4596   -0.6761    0.0000 C   0  0  0  0  0  0  0  0  0  0  0  0
   -0.0527   -2.0859    0.0000 H   0  0  0  0  0  0  0  0  0  0  0  0
   -1.1215    1.2085    0.0000 H   0  0  0  0  0  0  0  0  0  0  0  0
    1.7596   -1.4261    0.0000 C   0  0  1  0  0  0  0  0  0  0  0  0
    1.7596    0.0739    0.0000 H   0  0  0  0  0  0  0  0  0  0  0  0
    3.0596   -0.6761    0.0000 C   0  0  1  0  0  0  0  0  0  0  0  0
    4.0237    0.4731    0.0000 H   0  0  0  0  0  0  0  0  0  0  0  0
    4.3596   -1.4261    0.0000 C   0  0  0  0  0  0  0  0  0  0  0  0
    4.3596   -2.9261    0.0000 C   0  0  0  0  0  0  0  0  0  0  0  0
    3.0596   -3.6761    0.0000 C   0  0  0  0  0  0  0  0  0  0  0  0
    3.0596   -6.1361    0.0000 O   0  0  0  0  0  0  0  0  0  0  0  0
    1.7596   -2.9261    0.0000 C   0  0  1  0  0  0  0  0  0  0  0  0
    0.4596   -3.6761    0.0000 C   0  0  0  0  0  0  0  0  0  0  0  0
   -0.8404   -2.9261    0.0000 C   0  0  0  0  0  0  0  0  0  0  0  0
   -2.1404   -3.6761    0.0000 C   0  0  0  0  0  0  0  0  0  0  0  0
   -2.1404   -5.1761    0.0000 O   0  0  0  0  0  0  0  0  0  0  0  0
    0.4596   -5.1761    0.0000 O   0  0  0  0  0  0  0  0  0  0  0  0
    1.7586   -5.9261    0.0000 H   0  0  0  0  0  0  0  0  0  0  0  0
    1.7596   -4.4261    0.0000 O   0  0  0  0  0  0  0  0  0  0  0  0
    3.0586   -5.1761    0.0000 H   0  0  0  0  0  0  0  0  0  0  0  0
    5.6585   -3.6763    0.0000 C   0  0  0  0  0  0  0  0  0  0  0  0
    6.9577   -2.9265    0.0000 O   0  0  0  0  0  0  0  0  0  0  0  0
    5.6583   -5.1763    0.0000 N   0  0  0  0  0  0  0  0  0  0  0  0
    6.9572   -5.9265    0.0000 H   0  0  0  0  0  0  0  0  0  0  0  0
    4.3591   -5.9261    0.0000 H   0  0  0  0  0  0  0  0  0  0  0  0
    5.6585   -0.6759    0.0000 O   0  0  0  0  0  0  0  0  0  0  0  0
    6.9577   -1.4257    0.0000 H   0  0  0  0  0  0  0  0  0  0  0  0
    2.7993    0.8011    0.0000 N   0  0  0  0  0  0  0  0  0  0  0  0
    4.3162    2.0737    0.0000 C   0  0  0  0  0  0  0  0  0  0  0  0
    5.7257    1.5605    0.0000 H   0  0  0  0  0  0  0  0  0  0  0  0
    5.0663    3.3726    0.0000 H   0  0  0  0  0  0  0  0  0  0  0  0
    3.1672    3.0380    0.0000 H   0  0  0  0  0  0  0  0  0  0  0  0
    1.3898    1.3143    0.0000 C   0  0  0  0  0  0  0  0  0  0  0  0
    0.2406    0.3502    0.0000 H   0  0  0  0  0  0  0  0  0  0  0  0
    0.2408    2.2786    0.0000 H   0  0  0  0  0  0  0  0  0  0  0  0
    2.1399    2.6133    0.0000 H   0  0  0  0  0  0  0  0  0  0  0  0
   -0.8404    0.0739    0.0000 O   0  0  0  0  0  0  0  0  0  0  0  0
   -2.1394    0.8239    0.0000 H   0  0  0  0  0  0  0  0  0  0  0  0
   -4.7404   -5.1761    0.0000 O   0  0  0  0  0  0  0  0  0  0  0  0
   -6.0394   -5.9261    0.0000 H   0  0  0  0  0  0  0  0  0  0  0  0
  1  2  1  0  0  0  0 
  1  3  1  0  0  0  0 
  1  4  1  0  0  0  0 
  1  5  1  0  0  0  0 
  5  6  1  0  0  0  0 
  6  7  1  0  0  0  0 
  6  8  1  0  0  0  0 
  6  9  1  0  0  0  0 
  5 10  1  0  0  0  0 
 10 11  2  0  0  0  0 
 11 12  1  0  0  0  0 
 11 13  1  0  0  0  0 
 13 14  1  0  0  0  0 
 13 15  2  0  0  0  0 
 15 16  1  0  0  0  0 
 16 17  2  0  0  0  0 
 10 17  1  0  0  0  0 
 17 18  1  0  0  0  0 
 18 19  1  0  0  0  0 
 18 20  1  0  0  0  0 
 18 21  1  0  0  0  0 
 21 22  1  0  0  0  0 
 22 23  1  0  0  0  0 
 22 24  1  0  0  0  0 
 22 25  1  0  0  0  0 
 25 26  1  6  0  0  0 
 25 27  1  0  0  0  0 
 27 28  1  1  0  0  0 
 27 29  1  0  0  0  0 
 29 30  2  0  0  0  0 
 30 31  1  0  0  0  0 
 31 32  2  0  0  0  0 
 31 33  1  0  0  0  0 
 25 33  1  0  0  0  0 
 33 34  1  0  0  0  0 
 34 35  2  0  0  0  0 
 21 35  1  0  0  0  0 
 35 36  1  0  0  0  0 
 16 36  1  0  0  0  0 
 36 37  2  0  0  0  0 
 34 38  1  0  0  0  0 
 38 39  1  0  0  0  0 
 33 40  1  6  0  0  0 
 40 41  1  0  0  0  0 
 30 42  1  0  0  0  0 
 42 43  2  0  0  0  0 
 42 44  1  0  0  0  0 
 44 45  1  0  0  0  0 
 44 46  1  0  0  0  0 
 29 47  1  0  0  0  0 
 47 48  1  0  0  0  0 
 27 49  1  6  0  0  0 
 49 50  1  0  0  0  0 
 50 51  1  0  0  0  0 
 50 52  1  0  0  0  0 
 50 53  1  0  0  0  0 
 49 54  1  0  0  0  0 
 54 55  1  0  0  0  0 
 54 56  1  0  0  0  0 
 54 57  1  0  0  0  0 
 21 58  1  6  0  0  0 
 58 59  1  0  0  0  0 
 15 60  1  0  0  0  0 
 60 61  1  0  0  0  0 
M  END
> <Rank>
4

> <Priority_score>
0.452

> <Reaction_type>
aliphatic_hydroxylation_(tert_carbon_next_to_SP2)

> <Parent_ID>
31

> <Parent_InChI>
InChI=1S/C23H27N3O7/c1-25(2)12-5-6-13(27)15-10(12)7-9-8-11-17(26(3)4)19(29)16(22(24)32)21(31)23(11,33)20(30)14(9)18(15)28/h5-6,9,11,17,27,29-30,33H,7-8H2,1-4H3,(H2,24,32)

> <Parent_SMILES>
CN(C)c1ccc(O)c2c1C[C@H]1C[C@H]3[C@H](N(C)C)C(O)=C(C(N)=O)C(=O)[C@@]3(O)C(O)=C1C2=O

$$$$
Molecule 31_metabolite 8
  CDK     0516241031

 61 64  0  0  0  0  0  0  0  0999 V2000
  -15.1168    3.8991    0.0000 C   0  0  0  0  0  0  0  0  0  0  0  0
  -15.6300    2.4896    0.0000 H   0  0  0  0  0  0  0  0  0  0  0  0
  -15.1167    5.3991    0.0000 H   0  0  0  0  0  0  0  0  0  0  0  0
  -16.5940    4.1598    0.0000 H   0  0  0  0  0  0  0  0  0  0  0  0
  -13.1669    4.2427    0.0000 N   0  0  0  0  0  0  0  0  0  0  0  0
  -12.6537    5.6522    0.0000 C   0  0  0  0  0  0  0  0  0  0  0  0
  -13.6178    6.8014    0.0000 H   0  0  0  0  0  0  0  0  0  0  0  0
  -11.6894    6.8012    0.0000 H   0  0  0  0  0  0  0  0  0  0  0  0
  -11.3547    4.9021    0.0000 H   0  0  0  0  0  0  0  0  0  0  0  0
  -11.5858    2.3581    0.0000 C   0  0  1  0  0  0  0  0  0  0  0  0
  -12.0981    0.9483    0.0000 H   0  0  0  0  0  0  0  0  0  0  0  0
  -10.2858    1.6081    0.0000 C   0  0  2  0  0  0  0  0  0  0  0  0
   -8.5717    0.6170    0.0000 H   0  0  0  0  0  0  0  0  0  0  0  0
   -8.9858    2.3581    0.0000 C   0  0  0  0  0  0  0  0  0  0  0  0
   -9.9499    3.5073    0.0000 H   0  0  0  0  0  0  0  0  0  0  0  0
   -9.4981    0.9483    0.0000 H   0  0  0  0  0  0  0  0  0  0  0  0
   -7.6858    1.6081    0.0000 C   0  0  2  0  0  0  0  0  0  0  0  0
   -6.3873    0.8573    0.0000 H   0  0  0  0  0  0  0  0  0  0  0  0
   -6.3858    2.3581    0.0000 C   0  0  0  0  0  0  0  0  0  0  0  0
   -7.3486    3.5083    0.0000 H   0  0  0  0  0  0  0  0  0  0  0  0
   -5.4192    3.5051    0.0000 H   0  0  0  0  0  0  0  0  0  0  0  0
   -5.0958    1.6081    0.0000 C   0  0  0  0  0  0  0  0  0  0  0  0
   -5.0958    0.1081    0.0000 C   0  0  0  0  0  0  0  0  0  0  0  0
   -3.7958   -0.6419    0.0000 C   0  0  0  0  0  0  0  0  0  0  0  0
   -2.4958    0.1081    0.0000 C   0  0  0  0  0  0  0  0  0  0  0  0
   -1.1969   -0.6421    0.0000 H   0  0  0  0  0  0  0  0  0  0  0  0
   -2.4958    1.6081    0.0000 C   0  0  0  0  0  0  0  0  0  0  0  0
   -1.1969    2.3583    0.0000 H   0  0  0  0  0  0  0  0  0  0  0  0
   -3.7958    2.3581    0.0000 C   0  0  0  0  0  0  0  0  0  0  0  0
   -3.7958    4.8181    0.0000 N   0  0  0  0  0  0  0  0  0  0  0  0
   -5.0949    5.5681    0.0000 C   0  0  0  0  0  0  0  0  0  0  0  0
   -6.3939    4.8181    0.0000 H   0  0  0  0  0  0  0  0  0  0  0  0
   -4.1307    6.7172    0.0000 H   0  0  0  0  0  0  0  0  0  0  0  0
   -6.0590    6.7172    0.0000 H   0  0  0  0  0  0  0  0  0  0  0  0
   -2.3186    4.5576    0.0000 C   0  0  0  0  0  0  0  0  0  0  0  0
   -1.8056    3.1481    0.0000 H   0  0  0  0  0  0  0  0  0  0  0  0
   -2.3186    6.0576    0.0000 H   0  0  0  0  0  0  0  0  0  0  0  0
   -0.8414    4.8181    0.0000 H   0  0  0  0  0  0  0  0  0  0  0  0
   -3.2828    6.2276    0.0000 O   0  0  0  0  0  0  0  0  0  0  0  0
   -3.7958   -2.1419    0.0000 O   0  0  0  0  0  0  0  0  0  0  0  0
   -2.4968   -2.8919    0.0000 H   0  0  0  0  0  0  0  0  0  0  0  0
   -6.3858   -0.6419    0.0000 C   0  0  0  0  0  0  0  0  0  0  0  0
   -6.3833   -2.1419    0.0000 O   0  0  0  0  0  0  0  0  0  0  0  0
   -7.6858    0.1081    0.0000 C   0  0  0  0  0  0  0  0  0  0  0  0
   -8.9858   -0.6419    0.0000 C   0  0  0  0  0  0  0  0  0  0  0  0
  -10.2858    0.1081    0.0000 C   0  0  2  0  0  0  0  0  0  0  0  0
  -11.5858   -0.6419    0.0000 C   0  0  0  0  0  0  0  0  0  0  0  0
  -11.5858   -3.1019    0.0000 O   0  0  0  0  0  0  0  0  0  0  0  0
  -12.8858    0.1081    0.0000 C   0  0  0  0  0  0  0  0  0  0  0  0
  -12.8858    1.6081    0.0000 C   0  0  0  0  0  0  0  0  0  0  0  0
  -14.1847    2.3583    0.0000 O   0  0  0  0  0  0  0  0  0  0  0  0
  -14.1845    3.8583    0.0000 H   0  0  0  0  0  0  0  0  0  0  0  0
  -14.1847   -0.6421    0.0000 C   0  0  0  0  0  0  0  0  0  0  0  0
  -15.4839    0.1077    0.0000 O   0  0  0  0  0  0  0  0  0  0  0  0
  -14.1845   -2.1421    0.0000 N   0  0  0  0  0  0  0  0  0  0  0  0
  -15.4834   -2.8923    0.0000 H   0  0  0  0  0  0  0  0  0  0  0  0
  -12.8853   -2.8919    0.0000 H   0  0  0  0  0  0  0  0  0  0  0  0
  -10.2858   -1.3919    0.0000 O   0  0  0  0  0  0  0  0  0  0  0  0
  -11.5849   -2.1419    0.0000 H   0  0  0  0  0  0  0  0  0  0  0  0
   -8.9858   -2.1419    0.0000 O   0  0  0  0  0  0  0  0  0  0  0  0
  -10.2849   -2.8919    0.0000 H   0  0  0  0  0  0  0  0  0  0  0  0
  1  2  1  0  0  0  0 
  1  3  1  0  0  0  0 
  1  4  1  0  0  0  0 
  1  5  1  0  0  0  0 
  5  6  1  0  0  0  0 
  6  7  1  0  0  0  0 
  6  8  1  0  0  0  0 
  6  9  1  0  0  0  0 
  5 10  1  0  0  0  0 
 10 11  1  6  0  0  0 
 10 12  1  0  0  0  0 
 12 13  1  1  0  0  0 
 12 14  1  0  0  0  0 
 14 15  1  0  0  0  0 
 14 16  1  0  0  0  0 
 14 17  1  0  0  0  0 
 17 18  1  1  0  0  0 
 17 19  1  0  0  0  0 
 19 20  1  0  0  0  0 
 19 21  1  0  0  0  0 
 19 22  1  0  0  0  0 
 22 23  2  0  0  0  0 
 23 24  1  0  0  0  0 
 24 25  2  0  0  0  0 
 25 26  1  0  0  0  0 
 25 27  1  0  0  0  0 
 27 28  1  0  0  0  0 
 27 29  2  0  0  0  0 
 22 29  1  0  0  0  0 
 29 30  1  0  0  0  0 
 30 31  1  0  0  0  0 
 31 32  1  0  0  0  0 
 31 33  1  0  0  0  0 
 31 34  1  0  0  0  0 
 30 35  1  0  0  0  0 
 35 36  1  0  0  0  0 
 35 37  1  0  0  0  0 
 35 38  1  0  0  0  0 
 30 39  1  0  0  0  0 
 24 40  1  0  0  0  0 
 40 41  1  0  0  0  0 
 23 42  1  0  0  0  0 
 42 43  2  0  0  0  0 
 42 44  1  0  0  0  0 
 17 44  1  0  0  0  0 
 44 45  2  0  0  0  0 
 45 46  1  0  0  0  0 
 12 46  1  0  0  0  0 
 46 47  1  0  0  0  0 
 47 48  2  0  0  0  0 
 47 49  1  0  0  0  0 
 49 50  2  0  0  0  0 
 10 50  1  1  0  0  0 
 50 51  1  0  0  0  0 
 51 52  1  0  0  0  0 
 49 53  1  0  0  0  0 
 53 54  2  0  0  0  0 
 53 55  1  0  0  0  0 
 55 56  1  0  0  0  0 
 55 57  1  0  0  0  0 
 46 58  1  1  0  0  0 
 58 59  1  0  0  0  0 
 45 60  1  0  0  0  0 
 60 61  1  0  0  0  0 
M  CHG  1  30   1
M  CHG  1  39  -1
M  END
> <Rank>
8

> <Priority_score>
0.42355763604447044

> <Reaction_type>
N-oxidation

> <Parent_ID>
31

> <Parent_InChI>
InChI=1S/C23H27N3O7/c1-25(2)12-5-6-13(27)15-10(12)7-9-8-11-17(26(3)4)19(29)16(22(24)32)21(31)23(11,33)20(30)14(9)18(15)28/h5-6,9,11,17,27,29-30,33H,7-8H2,1-4H3,(H2,24,32)

> <Parent_SMILES>
CN(C)c1ccc(O)c2c1C[C@H]1C[C@H]3[C@H](N(C)C)C(O)=C(C(N)=O)C(=O)[C@@]3(O)C(O)=C1C2=O

$$$$
Molecule 31_metabolite 9
  CDK     0516241031

 57 60  0  0  0  0  0  0  0  0999 V2000
   -4.7602    2.4841    0.0000 C   0  0  0  0  0  0  0  0  0  0  0  0
   -4.7602    3.9841    0.0000 H   0  0  0  0  0  0  0  0  0  0  0  0
   -6.2375    2.7446    0.0000 H   0  0  0  0  0  0  0  0  0  0  0  0
   -5.2733    1.0745    0.0000 H   0  0  0  0  0  0  0  0  0  0  0  0
   -3.4612    1.7341    0.0000 N   0  0  0  0  0  0  0  0  0  0  0  0
   -2.1622    2.4841    0.0000 H   0  0  0  0  0  0  0  0  0  0  0  0
   -3.4612    0.2341    0.0000 C   0  0  0  0  0  0  0  0  0  0  0  0
   -4.7612   -0.5159    0.0000 C   0  0  0  0  0  0  0  0  0  0  0  0
   -6.0601    0.2343    0.0000 H   0  0  0  0  0  0  0  0  0  0  0  0
   -4.7612   -2.0159    0.0000 C   0  0  0  0  0  0  0  0  0  0  0  0
   -6.0601   -2.7661    0.0000 H   0  0  0  0  0  0  0  0  0  0  0  0
   -3.4612   -2.7659    0.0000 C   0  0  0  0  0  0  0  0  0  0  0  0
   -2.1612   -2.0159    0.0000 C   0  0  0  0  0  0  0  0  0  0  0  0
   -2.1612   -0.5159    0.0000 C   0  0  0  0  0  0  0  0  0  0  0  0
   -0.8712    0.2341    0.0000 C   0  0  0  0  0  0  0  0  0  0  0  0
    0.0916    1.3843    0.0000 H   0  0  0  0  0  0  0  0  0  0  0  0
   -1.8378    1.3811    0.0000 H   0  0  0  0  0  0  0  0  0  0  0  0
    0.4288   -0.5159    0.0000 C   0  0  1  0  0  0  0  0  0  0  0  0
    2.5584   -1.7473    0.0000 H   0  0  0  0  0  0  0  0  0  0  0  0
    1.7288    0.2341    0.0000 C   0  0  0  0  0  0  0  0  0  0  0  0
    1.2165   -1.1757    0.0000 H   0  0  0  0  0  0  0  0  0  0  0  0
   -0.1608    2.4865    0.0000 H   0  0  0  0  0  0  0  0  0  0  0  0
    3.0288   -0.5159    0.0000 C   0  0  1  0  0  0  0  0  0  0  0  0
    3.0288    0.9841    0.0000 H   0  0  0  0  0  0  0  0  0  0  0  0
    4.3288    0.2341    0.0000 C   0  0  1  0  0  0  0  0  0  0  0  0
    5.2929    1.3833    0.0000 H   0  0  0  0  0  0  0  0  0  0  0  0
    5.6288   -0.5159    0.0000 C   0  0  0  0  0  0  0  0  0  0  0  0
    5.6288   -2.0159    0.0000 C   0  0  0  0  0  0  0  0  0  0  0  0
    4.3288   -2.7659    0.0000 C   0  0  0  0  0  0  0  0  0  0  0  0
    4.3288   -5.2259    0.0000 O   0  0  0  0  0  0  0  0  0  0  0  0
    3.0288   -2.0159    0.0000 C   0  0  1  0  0  0  0  0  0  0  0  0
    1.7288   -2.7659    0.0000 C   0  0  0  0  0  0  0  0  0  0  0  0
    0.4288   -2.0159    0.0000 C   0  0  0  0  0  0  0  0  0  0  0  0
   -0.8712   -2.7659    0.0000 C   0  0  0  0  0  0  0  0  0  0  0  0
   -0.8737   -4.2659    0.0000 O   0  0  0  0  0  0  0  0  0  0  0  0
    1.7288   -4.2659    0.0000 O   0  0  0  0  0  0  0  0  0  0  0  0
    3.0278   -5.0159    0.0000 H   0  0  0  0  0  0  0  0  0  0  0  0
    3.0288   -3.5159    0.0000 O   0  0  0  0  0  0  0  0  0  0  0  0
    4.3278   -4.2659    0.0000 H   0  0  0  0  0  0  0  0  0  0  0  0
    6.9277   -2.7661    0.0000 C   0  0  0  0  0  0  0  0  0  0  0  0
    8.2269   -2.0163    0.0000 O   0  0  0  0  0  0  0  0  0  0  0  0
    6.9275   -4.2661    0.0000 N   0  0  0  0  0  0  0  0  0  0  0  0
    8.2264   -5.0163    0.0000 H   0  0  0  0  0  0  0  0  0  0  0  0
    5.6283   -5.0159    0.0000 H   0  0  0  0  0  0  0  0  0  0  0  0
    6.9277    0.2343    0.0000 O   0  0  0  0  0  0  0  0  0  0  0  0
    8.2269   -0.5155    0.0000 H   0  0  0  0  0  0  0  0  0  0  0  0
    3.9852    2.1840    0.0000 N   0  0  0  0  0  0  0  0  0  0  0  0
    5.1344    3.1481    0.0000 C   0  0  0  0  0  0  0  0  0  0  0  0
    6.5438    2.6349    0.0000 H   0  0  0  0  0  0  0  0  0  0  0  0
    5.8845    4.4471    0.0000 H   0  0  0  0  0  0  0  0  0  0  0  0
    3.9854    4.1124    0.0000 H   0  0  0  0  0  0  0  0  0  0  0  0
    2.5757    2.6972    0.0000 C   0  0  0  0  0  0  0  0  0  0  0  0
    2.3154    4.1745    0.0000 H   0  0  0  0  0  0  0  0  0  0  0  0
    1.2767    3.4474    0.0000 H   0  0  0  0  0  0  0  0  0  0  0  0
    2.3151    1.2200    0.0000 H   0  0  0  0  0  0  0  0  0  0  0  0
   -3.4612   -4.2659    0.0000 O   0  0  0  0  0  0  0  0  0  0  0  0
   -4.7602   -5.0159    0.0000 H   0  0  0  0  0  0  0  0  0  0  0  0
  1  2  1  0  0  0  0 
  1  3  1  0  0  0  0 
  1  4  1  0  0  0  0 
  1  5  1  0  0  0  0 
  5  6  1  0  0  0  0 
  5  7  1  0  0  0  0 
  7  8  2  0  0  0  0 
  8  9  1  0  0  0  0 
  8 10  1  0  0  0  0 
 10 11  1  0  0  0  0 
 10 12  2  0  0  0  0 
 12 13  1  0  0  0  0 
 13 14  2  0  0  0  0 
  7 14  1  0  0  0  0 
 14 15  1  0  0  0  0 
 15 16  1  0  0  0  0 
 15 17  1  0  0  0  0 
 15 18  1  0  0  0  0 
 18 19  1  6  0  0  0 
 18 20  1  0  0  0  0 
 20 21  1  0  0  0  0 
 20 22  1  0  0  0  0 
 20 23  1  0  0  0  0 
 23 24  1  6  0  0  0 
 23 25  1  0  0  0  0 
 25 26  1  1  0  0  0 
 25 27  1  0  0  0  0 
 27 28  2  0  0  0  0 
 28 29  1  0  0  0  0 
 29 30  2  0  0  0  0 
 29 31  1  0  0  0  0 
 23 31  1  0  0  0  0 
 31 32  1  0  0  0  0 
 32 33  2  0  0  0  0 
 18 33  1  0  0  0  0 
 33 34  1  0  0  0  0 
 13 34  1  0  0  0  0 
 34 35  2  0  0  0  0 
 32 36  1  0  0  0  0 
 36 37  1  0  0  0  0 
 31 38  1  6  0  0  0 
 38 39  1  0  0  0  0 
 28 40  1  0  0  0  0 
 40 41  2  0  0  0  0 
 40 42  1  0  0  0  0 
 42 43  1  0  0  0  0 
 42 44  1  0  0  0  0 
 27 45  1  0  0  0  0 
 45 46  1  0  0  0  0 
 25 47  1  6  0  0  0 
 47 48  1  0  0  0  0 
 48 49  1  0  0  0  0 
 48 50  1  0  0  0  0 
 48 51  1  0  0  0  0 
 47 52  1  0  0  0  0 
 52 53  1  0  0  0  0 
 52 54  1  0  0  0  0 
 52 55  1  0  0  0  0 
 12 56  1  0  0  0  0 
 56 57  1  0  0  0  0 
M  END
> <Rank>
8

> <Priority_score>
0.42355763604447044

> <Reaction_type>
N-demethylation_(c-N(CH3)2)

> <Parent_ID>
31

> <Parent_InChI>
InChI=1S/C23H27N3O7/c1-25(2)12-5-6-13(27)15-10(12)7-9-8-11-17(26(3)4)19(29)16(22(24)32)21(31)23(11,33)20(30)14(9)18(15)28/h5-6,9,11,17,27,29-30,33H,7-8H2,1-4H3,(H2,24,32)

> <Parent_SMILES>
CN(C)c1ccc(O)c2c1C[C@H]1C[C@H]3[C@H](N(C)C)C(O)=C(C(N)=O)C(=O)[C@@]3(O)C(O)=C1C2=O

$$$$
Molecule 31_metabolite 10
  CDK     0516241031

 63 66  0  0  0  0  0  0  0  0999 V2000
   -5.6857    3.5873    0.0000 C   0  0  0  0  0  0  0  0  0  0  0  0
   -5.6857    5.0873    0.0000 H   0  0  0  0  0  0  0  0  0  0  0  0
   -7.1629    3.8478    0.0000 H   0  0  0  0  0  0  0  0  0  0  0  0
   -6.1988    2.1777    0.0000 H   0  0  0  0  0  0  0  0  0  0  0  0
   -4.3867    2.8373    0.0000 N   0  0  0  0  0  0  0  0  0  0  0  0
   -3.0877    3.5873    0.0000 C   0  0  0  0  0  0  0  0  0  0  0  0
   -1.7886    2.8373    0.0000 H   0  0  0  0  0  0  0  0  0  0  0  0
   -4.0518    4.7364    0.0000 H   0  0  0  0  0  0  0  0  0  0  0  0
   -2.1235    4.7364    0.0000 H   0  0  0  0  0  0  0  0  0  0  0  0
   -4.3867    1.3373    0.0000 C   0  0  0  0  0  0  0  0  0  0  0  0
   -5.6867    0.5873    0.0000 C   0  0  0  0  0  0  0  0  0  0  0  0
   -6.9856    1.3375    0.0000 H   0  0  0  0  0  0  0  0  0  0  0  0
   -5.6867   -0.9127    0.0000 C   0  0  0  0  0  0  0  0  0  0  0  0
   -6.9856   -1.6629    0.0000 H   0  0  0  0  0  0  0  0  0  0  0  0
   -4.3867   -1.6627    0.0000 C   0  0  0  0  0  0  0  0  0  0  0  0
   -3.0867   -0.9127    0.0000 C   0  0  0  0  0  0  0  0  0  0  0  0
   -3.0867    0.5873    0.0000 C   0  0  0  0  0  0  0  0  0  0  0  0
   -1.7967    1.3373    0.0000 C   0  0  0  0  0  0  0  0  0  0  0  0
   -0.8339    2.4875    0.0000 H   0  0  0  0  0  0  0  0  0  0  0  0
   -2.7633    2.4843    0.0000 H   0  0  0  0  0  0  0  0  0  0  0  0
   -0.4967    0.5873    0.0000 C   0  0  1  0  0  0  0  0  0  0  0  0
    1.6329   -0.6441    0.0000 H   0  0  0  0  0  0  0  0  0  0  0  0
    0.8033    1.3373    0.0000 C   0  0  0  0  0  0  0  0  0  0  0  0
    0.2910   -0.0725    0.0000 H   0  0  0  0  0  0  0  0  0  0  0  0
   -0.1608    2.4865    0.0000 H   0  0  0  0  0  0  0  0  0  0  0  0
    2.1033    0.5873    0.0000 C   0  0  1  0  0  0  0  0  0  0  0  0
    2.1033    2.0873    0.0000 H   0  0  0  0  0  0  0  0  0  0  0  0
    3.4033    1.3373    0.0000 C   0  0  1  0  0  0  0  0  0  0  0  0
    4.3674    2.4865    0.0000 H   0  0  0  0  0  0  0  0  0  0  0  0
    4.7033    0.5873    0.0000 C   0  0  0  0  0  0  0  0  0  0  0  0
    4.7033   -0.9127    0.0000 C   0  0  0  0  0  0  0  0  0  0  0  0
    3.4033   -1.6627    0.0000 C   0  0  0  0  0  0  0  0  0  0  0  0
    3.4033   -4.1227    0.0000 O   0  0  0  0  0  0  0  0  0  0  0  0
    2.1033   -0.9127    0.0000 C   0  0  1  0  0  0  0  0  0  0  0  0
    0.8033   -1.6627    0.0000 C   0  0  0  0  0  0  0  0  0  0  0  0
   -0.4967   -0.9127    0.0000 C   0  0  0  0  0  0  0  0  0  0  0  0
   -1.7967   -1.6627    0.0000 C   0  0  0  0  0  0  0  0  0  0  0  0
   -1.7992   -3.1627    0.0000 O   0  0  0  0  0  0  0  0  0  0  0  0
    0.8033   -3.1627    0.0000 O   0  0  0  0  0  0  0  0  0  0  0  0
    2.1023   -3.9127    0.0000 H   0  0  0  0  0  0  0  0  0  0  0  0
    2.1033   -2.4127    0.0000 O   0  0  0  0  0  0  0  0  0  0  0  0
    3.4023   -3.1627    0.0000 H   0  0  0  0  0  0  0  0  0  0  0  0
    6.0022   -1.6629    0.0000 C   0  0  0  0  0  0  0  0  0  0  0  0
    7.3014   -0.9131    0.0000 O   0  0  0  0  0  0  0  0  0  0  0  0
    6.0020   -3.1629    0.0000 N   0  0  0  0  0  0  0  0  0  0  0  0
    7.3009   -3.9131    0.0000 H   0  0  0  0  0  0  0  0  0  0  0  0
    4.7028   -3.9127    0.0000 H   0  0  0  0  0  0  0  0  0  0  0  0
    6.0022    1.3375    0.0000 O   0  0  0  0  0  0  0  0  0  0  0  0
    7.3014    0.5877    0.0000 H   0  0  0  0  0  0  0  0  0  0  0  0
    3.0597    3.2872    0.0000 N   0  0  0  0  0  0  0  0  0  0  0  0
    4.2089    4.2513    0.0000 C   0  0  0  0  0  0  0  0  0  0  0  0
    5.6183    3.7381    0.0000 H   0  0  0  0  0  0  0  0  0  0  0  0
    4.9590    5.5503    0.0000 H   0  0  0  0  0  0  0  0  0  0  0  0
    3.0599    5.2156    0.0000 H   0  0  0  0  0  0  0  0  0  0  0  0
    1.6502    3.8004    0.0000 C   0  0  0  0  0  0  0  0  0  0  0  0
    1.3899    5.2777    0.0000 H   0  0  0  0  0  0  0  0  0  0  0  0
    0.3512    4.5506    0.0000 H   0  0  0  0  0  0  0  0  0  0  0  0
    1.3896    2.3232    0.0000 H   0  0  0  0  0  0  0  0  0  0  0  0
   -4.3867   -3.1627    0.0000 O   0  0  0  0  0  0  0  0  0  0  0  0
   -5.6857   -3.9127    0.0000 C   0  0  0  0  0  0  0  0  0  0  0  0
   -5.6857   -5.4127    0.0000 H   0  0  0  0  0  0  0  0  0  0  0  0
   -6.1988   -2.5032    0.0000 H   0  0  0  0  0  0  0  0  0  0  0  0
   -7.1629   -4.1732    0.0000 H   0  0  0  0  0  0  0  0  0  0  0  0
  1  2  1  0  0  0  0 
  1  3  1  0  0  0  0 
  1  4  1  0  0  0  0 
  1  5  1  0  0  0  0 
  5  6  1  0  0  0  0 
  6  7  1  0  0  0  0 
  6  8  1  0  0  0  0 
  6  9  1  0  0  0  0 
  5 10  1  0  0  0  0 
 10 11  2  0  0  0  0 
 11 12  1  0  0  0  0 
 11 13  1  0  0  0  0 
 13 14  1  0  0  0  0 
 13 15  2  0  0  0  0 
 15 16  1  0  0  0  0 
 16 17  2  0  0  0  0 
 10 17  1  0  0  0  0 
 17 18  1  0  0  0  0 
 18 19  1  0  0  0  0 
 18 20  1  0  0  0  0 
 18 21  1  0  0  0  0 
 21 22  1  6  0  0  0 
 21 23  1  0  0  0  0 
 23 24  1  0  0  0  0 
 23 25  1  0  0  0  0 
 23 26  1  0  0  0  0 
 26 27  1  6  0  0  0 
 26 28  1  0  0  0  0 
 28 29  1  1  0  0  0 
 28 30  1  0  0  0  0 
 30 31  2  0  0  0  0 
 31 32  1  0  0  0  0 
 32 33  2  0  0  0  0 
 32 34  1  0  0  0  0 
 26 34  1  0  0  0  0 
 34 35  1  0  0  0  0 
 35 36  2  0  0  0  0 
 21 36  1  0  0  0  0 
 36 37  1  0  0  0  0 
 16 37  1  0  0  0  0 
 37 38  2  0  0  0  0 
 35 39  1  0  0  0  0 
 39 40  1  0  0  0  0 
 34 41  1  6  0  0  0 
 41 42  1  0  0  0  0 
 31 43  1  0  0  0  0 
 43 44  2  0  0  0  0 
 43 45  1  0  0  0  0 
 45 46  1  0  0  0  0 
 45 47  1  0  0  0  0 
 30 48  1  0  0  0  0 
 48 49  1  0  0  0  0 
 28 50  1  6  0  0  0 
 50 51  1  0  0  0  0 
 51 52  1  0  0  0  0 
 51 53  1  0  0  0  0 
 51 54  1  0  0  0  0 
 50 55  1  0  0  0  0 
 55 56  1  0  0  0  0 
 55 57  1  0  0  0  0 
 55 58  1  0  0  0  0 
 15 59  1  0  0  0  0 
 59 60  1  0  0  0  0 
 60 61  1  0  0  0  0 
 60 62  1  0  0  0  0 
 60 63  1  0  0  0  0 
M  END
> <Rank>
10

> <Priority_score>
0.344

> <Reaction_type>
methylation_(aromatic_OH)

> <Parent_ID>
31

> <Parent_InChI>
InChI=1S/C23H27N3O7/c1-25(2)12-5-6-13(27)15-10(12)7-9-8-11-17(26(3)4)19(29)16(22(24)32)21(31)23(11,33)20(30)14(9)18(15)28/h5-6,9,11,17,27,29-30,33H,7-8H2,1-4H3,(H2,24,32)

> <Parent_SMILES>
CN(C)c1ccc(O)c2c1C[C@H]1C[C@H]3[C@H](N(C)C)C(O)=C(C(N)=O)C(=O)[C@@]3(O)C(O)=C1C2=O

$$$$
Molecule 31_metabolite 11
  CDK     0516241031

 61 64  0  0  0  0  0  0  0  0999 V2000
    6.1768    3.8991    0.0000 C   0  0  0  0  0  0  0  0  0  0  0  0
    6.6900    2.4896    0.0000 H   0  0  0  0  0  0  0  0  0  0  0  0
    6.1767    5.3991    0.0000 H   0  0  0  0  0  0  0  0  0  0  0  0
    7.6540    4.1598    0.0000 H   0  0  0  0  0  0  0  0  0  0  0  0
    4.2269    4.2427    0.0000 N   0  0  0  0  0  0  0  0  0  0  0  0
    3.7137    5.6522    0.0000 C   0  0  0  0  0  0  0  0  0  0  0  0
    4.6778    6.8014    0.0000 H   0  0  0  0  0  0  0  0  0  0  0  0
    2.7494    6.8012    0.0000 H   0  0  0  0  0  0  0  0  0  0  0  0
    2.4147    4.9021    0.0000 H   0  0  0  0  0  0  0  0  0  0  0  0
    2.6458    2.3581    0.0000 C   0  0  1  0  0  0  0  0  0  0  0  0
    3.1581    0.9483    0.0000 H   0  0  0  0  0  0  0  0  0  0  0  0
    1.3458    1.6081    0.0000 C   0  0  2  0  0  0  0  0  0  0  0  0
   -0.3683    0.6170    0.0000 H   0  0  0  0  0  0  0  0  0  0  0  0
    0.0458    2.3581    0.0000 C   0  0  0  0  0  0  0  0  0  0  0  0
    1.0099    3.5073    0.0000 H   0  0  0  0  0  0  0  0  0  0  0  0
    0.5581    0.9483    0.0000 H   0  0  0  0  0  0  0  0  0  0  0  0
   -1.2542    1.6081    0.0000 C   0  0  2  0  0  0  0  0  0  0  0  0
   -2.5527    0.8573    0.0000 H   0  0  0  0  0  0  0  0  0  0  0  0
   -2.5542    2.3581    0.0000 C   0  0  0  0  0  0  0  0  0  0  0  0
   -1.5914    3.5083    0.0000 H   0  0  0  0  0  0  0  0  0  0  0  0
   -3.5208    3.5051    0.0000 H   0  0  0  0  0  0  0  0  0  0  0  0
   -3.8442    1.6081    0.0000 C   0  0  0  0  0  0  0  0  0  0  0  0
   -3.8442    0.1081    0.0000 C   0  0  0  0  0  0  0  0  0  0  0  0
   -5.1442   -0.6419    0.0000 C   0  0  0  0  0  0  0  0  0  0  0  0
   -6.4442    0.1081    0.0000 C   0  0  0  0  0  0  0  0  0  0  0  0
   -7.7431   -0.6421    0.0000 H   0  0  0  0  0  0  0  0  0  0  0  0
   -6.4442    1.6081    0.0000 C   0  0  0  0  0  0  0  0  0  0  0  0
   -7.7431    2.3583    0.0000 H   0  0  0  0  0  0  0  0  0  0  0  0
   -5.1442    2.3581    0.0000 C   0  0  0  0  0  0  0  0  0  0  0  0
   -5.1442    3.8581    0.0000 N   0  0  0  0  0  0  0  0  0  0  0  0
   -6.4432    4.6081    0.0000 C   0  0  0  0  0  0  0  0  0  0  0  0
   -6.4432    6.1081    0.0000 H   0  0  0  0  0  0  0  0  0  0  0  0
   -6.9562    3.1986    0.0000 H   0  0  0  0  0  0  0  0  0  0  0  0
   -7.9204    4.8686    0.0000 H   0  0  0  0  0  0  0  0  0  0  0  0
   -3.8451    4.6081    0.0000 C   0  0  0  0  0  0  0  0  0  0  0  0
   -4.8093    5.7572    0.0000 H   0  0  0  0  0  0  0  0  0  0  0  0
   -2.8810    5.7572    0.0000 H   0  0  0  0  0  0  0  0  0  0  0  0
   -2.5461    3.8581    0.0000 O   0  0  0  0  0  0  0  0  0  0  0  0
   -1.2471    4.6081    0.0000 H   0  0  0  0  0  0  0  0  0  0  0  0
   -5.1442   -2.1419    0.0000 O   0  0  0  0  0  0  0  0  0  0  0  0
   -6.4432   -2.8919    0.0000 H   0  0  0  0  0  0  0  0  0  0  0  0
   -2.5542   -0.6419    0.0000 C   0  0  0  0  0  0  0  0  0  0  0  0
   -2.5567   -2.1419    0.0000 O   0  0  0  0  0  0  0  0  0  0  0  0
   -1.2542    0.1081    0.0000 C   0  0  0  0  0  0  0  0  0  0  0  0
    0.0458   -0.6419    0.0000 C   0  0  0  0  0  0  0  0  0  0  0  0
    1.3458    0.1081    0.0000 C   0  0  2  0  0  0  0  0  0  0  0  0
    2.6458   -0.6419    0.0000 C   0  0  0  0  0  0  0  0  0  0  0  0
    2.6458   -3.1019    0.0000 O   0  0  0  0  0  0  0  0  0  0  0  0
    3.9458    0.1081    0.0000 C   0  0  0  0  0  0  0  0  0  0  0  0
    3.9458    1.6081    0.0000 C   0  0  0  0  0  0  0  0  0  0  0  0
    5.2447    2.3583    0.0000 O   0  0  0  0  0  0  0  0  0  0  0  0
    5.2445    3.8583    0.0000 H   0  0  0  0  0  0  0  0  0  0  0  0
    5.2447   -0.6421    0.0000 C   0  0  0  0  0  0  0  0  0  0  0  0
    6.5439    0.1077    0.0000 O   0  0  0  0  0  0  0  0  0  0  0  0
    5.2445   -2.1421    0.0000 N   0  0  0  0  0  0  0  0  0  0  0  0
    6.5434   -2.8923    0.0000 H   0  0  0  0  0  0  0  0  0  0  0  0
    3.9453   -2.8919    0.0000 H   0  0  0  0  0  0  0  0  0  0  0  0
    1.3458   -1.3919    0.0000 O   0  0  0  0  0  0  0  0  0  0  0  0
    2.6449   -2.1419    0.0000 H   0  0  0  0  0  0  0  0  0  0  0  0
    0.0458   -2.1419    0.0000 O   0  0  0  0  0  0  0  0  0  0  0  0
    1.3449   -2.8919    0.0000 H   0  0  0  0  0  0  0  0  0  0  0  0
  1  2  1  0  0  0  0 
  1  3  1  0  0  0  0 
  1  4  1  0  0  0  0 
  1  5  1  0  0  0  0 
  5  6  1  0  0  0  0 
  6  7  1  0  0  0  0 
  6  8  1  0  0  0  0 
  6  9  1  0  0  0  0 
  5 10  1  0  0  0  0 
 10 11  1  1  0  0  0 
 10 12  1  0  0  0  0 
 12 13  1  6  0  0  0 
 12 14  1  0  0  0  0 
 14 15  1  0  0  0  0 
 14 16  1  0  0  0  0 
 14 17  1  0  0  0  0 
 17 18  1  6  0  0  0 
 17 19  1  0  0  0  0 
 19 20  1  0  0  0  0 
 19 21  1  0  0  0  0 
 19 22  1  0  0  0  0 
 22 23  2  0  0  0  0 
 23 24  1  0  0  0  0 
 24 25  2  0  0  0  0 
 25 26  1  0  0  0  0 
 25 27  1  0  0  0  0 
 27 28  1  0  0  0  0 
 27 29  2  0  0  0  0 
 22 29  1  0  0  0  0 
 29 30  1  0  0  0  0 
 30 31  1  0  0  0  0 
 31 32  1  0  0  0  0 
 31 33  1  0  0  0  0 
 31 34  1  0  0  0  0 
 30 35  1  0  0  0  0 
 35 36  1  0  0  0  0 
 35 37  1  0  0  0  0 
 35 38  1  0  0  0  0 
 38 39  1  0  0  0  0 
 24 40  1  0  0  0  0 
 40 41  1  0  0  0  0 
 23 42  1  0  0  0  0 
 42 43  2  0  0  0  0 
 42 44  1  0  0  0  0 
 17 44  1  0  0  0  0 
 44 45  2  0  0  0  0 
 45 46  1  0  0  0  0 
 12 46  1  0  0  0  0 
 46 47  1  0  0  0  0 
 47 48  2  0  0  0  0 
 47 49  1  0  0  0  0 
 49 50  2  0  0  0  0 
 10 50  1  6  0  0  0 
 50 51  1  0  0  0  0 
 51 52  1  0  0  0  0 
 49 53  1  0  0  0  0 
 53 54  2  0  0  0  0 
 53 55  1  0  0  0  0 
 55 56  1  0  0  0  0 
 55 57  1  0  0  0  0 
 46 58  1  6  0  0  0 
 58 59  1  0  0  0  0 
 45 60  1  0  0  0  0 
 60 61  1  0  0  0  0 
M  END
> <Rank>
11

> <Priority_score>
0.288

> <Reaction_type>
aliphatic hydroxylation

> <Parent_ID>
31

> <Parent_InChI>
InChI=1S/C23H27N3O7/c1-25(2)12-5-6-13(27)15-10(12)7-9-8-11-17(26(3)4)19(29)16(22(24)32)21(31)23(11,33)20(30)14(9)18(15)28/h5-6,9,11,17,27,29-30,33H,7-8H2,1-4H3,(H2,24,32)

> <Parent_SMILES>
CN(C)c1ccc(O)c2c1C[C@H]1C[C@H]3[C@H](N(C)C)C(O)=C(C(N)=O)C(=O)[C@@]3(O)C(O)=C1C2=O

$$$$
Molecule 31_metabolite 12
  CDK     0516241031

 80 84  0  0  0  0  0  0  0  0999 V2000
   -7.9131    2.9602    0.0000 C   0  0  0  0  0  0  0  0  0  0  0  0
   -7.9131    4.4602    0.0000 H   0  0  0  0  0  0  0  0  0  0  0  0
   -9.3903    3.2207    0.0000 H   0  0  0  0  0  0  0  0  0  0  0  0
   -8.4261    1.5507    0.0000 H   0  0  0  0  0  0  0  0  0  0  0  0
   -6.6141    2.2102    0.0000 N   0  0  0  0  0  0  0  0  0  0  0  0
   -5.3150    2.9602    0.0000 C   0  0  0  0  0  0  0  0  0  0  0  0
   -4.0160    2.2102    0.0000 H   0  0  0  0  0  0  0  0  0  0  0  0
   -6.2792    4.1093    0.0000 H   0  0  0  0  0  0  0  0  0  0  0  0
   -4.3509    4.1093    0.0000 H   0  0  0  0  0  0  0  0  0  0  0  0
   -6.6141    0.7102    0.0000 C   0  0  0  0  0  0  0  0  0  0  0  0
   -7.9141   -0.0398    0.0000 C   0  0  0  0  0  0  0  0  0  0  0  0
   -9.2130    0.7104    0.0000 H   0  0  0  0  0  0  0  0  0  0  0  0
   -7.9141   -1.5398    0.0000 C   0  0  0  0  0  0  0  0  0  0  0  0
   -9.2130   -2.2900    0.0000 H   0  0  0  0  0  0  0  0  0  0  0  0
   -6.6141   -2.2898    0.0000 C   0  0  0  0  0  0  0  0  0  0  0  0
   -5.3141   -1.5398    0.0000 C   0  0  0  0  0  0  0  0  0  0  0  0
   -5.3141   -0.0398    0.0000 C   0  0  0  0  0  0  0  0  0  0  0  0
   -4.0241    0.7102    0.0000 C   0  0  0  0  0  0  0  0  0  0  0  0
   -3.0613    1.8604    0.0000 H   0  0  0  0  0  0  0  0  0  0  0  0
   -4.9907    1.8572    0.0000 H   0  0  0  0  0  0  0  0  0  0  0  0
   -2.7241   -0.0398    0.0000 C   0  0  1  0  0  0  0  0  0  0  0  0
   -2.7241    2.9002    0.0000 H   0  0  0  0  0  0  0  0  0  0  0  0
   -1.4241    0.7102    0.0000 C   0  0  0  0  0  0  0  0  0  0  0  0
   -1.9364   -0.6996    0.0000 H   0  0  0  0  0  0  0  0  0  0  0  0
   -2.3881    1.8594    0.0000 H   0  0  0  0  0  0  0  0  0  0  0  0
   -0.1241   -0.0398    0.0000 C   0  0  1  0  0  0  0  0  0  0  0  0
   -0.1241    1.4602    0.0000 H   0  0  0  0  0  0  0  0  0  0  0  0
    1.1759    0.7102    0.0000 C   0  0  1  0  0  0  0  0  0  0  0  0
    2.1400    1.8594    0.0000 H   0  0  0  0  0  0  0  0  0  0  0  0
    2.4759   -0.0398    0.0000 C   0  0  0  0  0  0  0  0  0  0  0  0
    2.4759   -1.5398    0.0000 C   0  0  0  0  0  0  0  0  0  0  0  0
    1.1759   -2.2898    0.0000 C   0  0  0  0  0  0  0  0  0  0  0  0
    1.1759   -4.7498    0.0000 O   0  0  0  0  0  0  0  0  0  0  0  0
   -0.1241   -1.5398    0.0000 C   0  0  1  0  0  0  0  0  0  0  0  0
   -1.4241   -2.2898    0.0000 C   0  0  0  0  0  0  0  0  0  0  0  0
   -2.7241   -1.5398    0.0000 C   0  0  0  0  0  0  0  0  0  0  0  0
   -4.0241   -2.2898    0.0000 C   0  0  0  0  0  0  0  0  0  0  0  0
   -4.0266   -3.7898    0.0000 O   0  0  0  0  0  0  0  0  0  0  0  0
   -1.4241   -3.7898    0.0000 O   0  0  0  0  0  0  0  0  0  0  0  0
   -0.1250   -4.5398    0.0000 H   0  0  0  0  0  0  0  0  0  0  0  0
   -0.1241   -3.0398    0.0000 O   0  0  0  0  0  0  0  0  0  0  0  0
    1.1750   -3.7898    0.0000 H   0  0  0  0  0  0  0  0  0  0  0  0
    3.7748   -2.2900    0.0000 C   0  0  0  0  0  0  0  0  0  0  0  0
    5.0740   -1.5402    0.0000 O   0  0  0  0  0  0  0  0  0  0  0  0
    3.7746   -3.7900    0.0000 N   0  0  0  0  0  0  0  0  0  0  0  0
    5.0735   -4.5402    0.0000 H   0  0  0  0  0  0  0  0  0  0  0  0
    2.4754   -4.5398    0.0000 H   0  0  0  0  0  0  0  0  0  0  0  0
    4.6061    1.1905    0.0000 O   0  0  0  0  0  0  0  0  0  0  0  0
    7.1525   -0.2791    0.0000 C   0  0  0  0  0  0  0  0  0  0  0  0
    6.1911   -1.4305    0.0000 H   0  0  0  0  0  0  0  0  0  0  0  0
    7.6651    1.1200    0.0000 C   0  0  0  0  0  0  0  0  0  0  0  0
    7.6695    2.6200    0.0000 H   0  0  0  0  0  0  0  0  0  0  0  0
    9.1660    1.3795    0.0000 C   0  0  0  0  0  0  0  0  0  0  0  0
   10.4696    2.1215    0.0000 H   0  0  0  0  0  0  0  0  0  0  0  0
   10.1252    0.2186    0.0000 C   0  0  0  0  0  0  0  0  0  0  0  0
   11.4212   -0.5365    0.0000 H   0  0  0  0  0  0  0  0  0  0  0  0
    9.6126   -1.1804    0.0000 C   0  0  0  0  0  0  0  0  0  0  0  0
    9.6090   -2.6804    0.0000 H   0  0  0  0  0  0  0  0  0  0  0  0
   12.0342   -1.6130    0.0000 C   0  0  0  0  0  0  0  0  0  0  0  0
   12.5441   -3.0237    0.0000 O   0  0  0  0  0  0  0  0  0  0  0  0
   13.0010   -0.4661    0.0000 O   0  0  0  0  0  0  0  0  0  0  0  0
   14.4776   -0.7299    0.0000 H   0  0  0  0  0  0  0  0  0  0  0  0
    8.1339   -1.4374    0.0000 O   0  0  0  0  0  0  0  0  0  0  0  0
   11.0960    1.3621    0.0000 O   0  0  0  0  0  0  0  0  0  0  0  0
   12.5716    1.0931    0.0000 H   0  0  0  0  0  0  0  0  0  0  0  0
    8.6597    2.7914    0.0000 O   0  0  0  0  0  0  0  0  0  0  0  0
    9.6293    3.9359    0.0000 H   0  0  0  0  0  0  0  0  0  0  0  0
    6.1886    1.3842    0.0000 O   0  0  0  0  0  0  0  0  0  0  0  0
    5.6791    2.7951    0.0000 H   0  0  0  0  0  0  0  0  0  0  0  0
    0.9156    2.1874    0.0000 N   0  0  0  0  0  0  0  0  0  0  0  0
    2.4325    3.4600    0.0000 C   0  0  0  0  0  0  0  0  0  0  0  0
    3.8420    2.9468    0.0000 H   0  0  0  0  0  0  0  0  0  0  0  0
    1.2835    4.4243    0.0000 H   0  0  0  0  0  0  0  0  0  0  0  0
    3.1826    4.7589    0.0000 H   0  0  0  0  0  0  0  0  0  0  0  0
   -0.4939    2.7006    0.0000 C   0  0  0  0  0  0  0  0  0  0  0  0
   -1.6430    1.7366    0.0000 H   0  0  0  0  0  0  0  0  0  0  0  0
   -1.6428    3.6649    0.0000 H   0  0  0  0  0  0  0  0  0  0  0  0
    0.2563    3.9996    0.0000 H   0  0  0  0  0  0  0  0  0  0  0  0
   -6.6141   -3.7898    0.0000 O   0  0  0  0  0  0  0  0  0  0  0  0
   -7.9131   -4.5398    0.0000 H   0  0  0  0  0  0  0  0  0  0  0  0
  1  2  1  0  0  0  0 
  1  3  1  0  0  0  0 
  1  4  1  0  0  0  0 
  1  5  1  0  0  0  0 
  5  6  1  0  0  0  0 
  6  7  1  0  0  0  0 
  6  8  1  0  0  0  0 
  6  9  1  0  0  0  0 
  5 10  1  0  0  0  0 
 10 11  2  0  0  0  0 
 11 12  1  0  0  0  0 
 11 13  1  0  0  0  0 
 13 14  1  0  0  0  0 
 13 15  2  0  0  0  0 
 15 16  1  0  0  0  0 
 16 17  2  0  0  0  0 
 10 17  1  0  0  0  0 
 17 18  1  0  0  0  0 
 18 19  1  0  0  0  0 
 18 20  1  0  0  0  0 
 18 21  1  0  0  0  0 
 21 22  1  6  0  0  0 
 21 23  1  0  0  0  0 
 23 24  1  0  0  0  0 
 23 25  1  0  0  0  0 
 23 26  1  0  0  0  0 
 26 27  1  6  0  0  0 
 26 28  1  0  0  0  0 
 28 29  1  1  0  0  0 
 28 30  1  0  0  0  0 
 30 31  2  0  0  0  0 
 31 32  1  0  0  0  0 
 32 33  2  0  0  0  0 
 32 34  1  0  0  0  0 
 26 34  1  0  0  0  0 
 34 35  1  0  0  0  0 
 35 36  2  0  0  0  0 
 21 36  1  0  0  0  0 
 36 37  1  0  0  0  0 
 16 37  1  0  0  0  0 
 37 38  2  0  0  0  0 
 35 39  1  0  0  0  0 
 39 40  1  0  0  0  0 
 34 41  1  6  0  0  0 
 41 42  1  0  0  0  0 
 31 43  1  0  0  0  0 
 43 44  2  0  0  0  0 
 43 45  1  0  0  0  0 
 45 46  1  0  0  0  0 
 45 47  1  0  0  0  0 
 30 48  1  0  0  0  0 
 48 49  1  0  0  0  0 
 49 50  1  0  0  0  0 
 49 51  1  0  0  0  0 
 51 52  1  0  0  0  0 
 51 53  1  0  0  0  0 
 53 54  1  0  0  0  0 
 53 55  1  0  0  0  0 
 55 56  1  0  0  0  0 
 55 57  1  0  0  0  0 
 57 58  1  0  0  0  0 
 57 59  1  0  0  0  0 
 59 60  2  0  0  0  0 
 59 61  1  0  0  0  0 
 61 62  1  0  0  0  0 
 57 63  1  0  0  0  0 
 49 63  1  0  0  0  0 
 55 64  1  0  0  0  0 
 64 65  1  0  0  0  0 
 53 66  1  0  0  0  0 
 66 67  1  0  0  0  0 
 51 68  1  0  0  0  0 
 68 69  1  0  0  0  0 
 28 70  1  6  0  0  0 
 70 71  1  0  0  0  0 
 71 72  1  0  0  0  0 
 71 73  1  0  0  0  0 
 71 74  1  0  0  0  0 
 70 75  1  0  0  0  0 
 75 76  1  0  0  0  0 
 75 77  1  0  0  0  0 
 75 78  1  0  0  0  0 
 15 79  1  0  0  0  0 
 79 80  1  0  0  0  0 
M  END
> <Rank>
12

> <Priority_score>
0.216

> <Reaction_type>
O-glucuronidation_(aliphatic_hydroxyl)

> <Parent_ID>
31

> <Parent_InChI>
InChI=1S/C23H27N3O7/c1-25(2)12-5-6-13(27)15-10(12)7-9-8-11-17(26(3)4)19(29)16(22(24)32)21(31)23(11,33)20(30)14(9)18(15)28/h5-6,9,11,17,27,29-30,33H,7-8H2,1-4H3,(H2,24,32)

> <Parent_SMILES>
CN(C)c1ccc(O)c2c1C[C@H]1C[C@H]3[C@H](N(C)C)C(O)=C(C(N)=O)C(=O)[C@@]3(O)C(O)=C1C2=O

$$$$
Molecule 31_metabolite 13
  CDK     0516241031

 80 84  0  0  0  0  0  0  0  0999 V2000
   -6.5496    2.6159    0.0000 C   0  0  0  0  0  0  0  0  0  0  0  0
   -7.8487    1.8659    0.0000 H   0  0  0  0  0  0  0  0  0  0  0  0
   -7.5138    3.7650    0.0000 H   0  0  0  0  0  0  0  0  0  0  0  0
   -5.5854    3.7650    0.0000 H   0  0  0  0  0  0  0  0  0  0  0  0
   -5.2506    1.8659    0.0000 N   0  0  0  0  0  0  0  0  0  0  0  0
   -5.2506    0.3659    0.0000 C   0  0  0  0  0  0  0  0  0  0  0  0
   -3.9515   -0.3841    0.0000 H   0  0  0  0  0  0  0  0  0  0  0  0
   -6.7278    0.6264    0.0000 H   0  0  0  0  0  0  0  0  0  0  0  0
   -5.7636   -1.0436    0.0000 H   0  0  0  0  0  0  0  0  0  0  0  0
   -3.9515    2.6159    0.0000 C   0  0  0  0  0  0  0  0  0  0  0  0
   -3.9520    4.1167    0.0000 C   0  0  0  0  0  0  0  0  0  0  0  0
   -5.2512    4.8665    0.0000 H   0  0  0  0  0  0  0  0  0  0  0  0
   -2.6530    4.8667    0.0000 C   0  0  0  0  0  0  0  0  0  0  0  0
   -2.6527    6.3667    0.0000 H   0  0  0  0  0  0  0  0  0  0  0  0
   -1.3535    4.1159    0.0000 C   0  0  0  0  0  0  0  0  0  0  0  0
   -1.3530    2.6151    0.0000 C   0  0  0  0  0  0  0  0  0  0  0  0
   -2.6520    1.8651    0.0000 C   0  0  0  0  0  0  0  0  0  0  0  0
   -2.6565    0.3729    0.0000 C   0  0  0  0  0  0  0  0  0  0  0  0
   -3.1713   -1.0360    0.0000 H   0  0  0  0  0  0  0  0  0  0  0  0
   -4.1332    0.6365    0.0000 H   0  0  0  0  0  0  0  0  0  0  0  0
   -1.3570   -0.3779    0.0000 C   0  0  1  0  0  0  0  0  0  0  0  0
   -3.9031   -1.8479    0.0000 H   0  0  0  0  0  0  0  0  0  0  0  0
   -1.3565   -1.8788    0.0000 C   0  0  0  0  0  0  0  0  0  0  0  0
   -0.3917   -0.7302    0.0000 H   0  0  0  0  0  0  0  0  0  0  0  0
   -2.8338   -1.6184    0.0000 H   0  0  0  0  0  0  0  0  0  0  0  0
   -0.0570   -2.6296    0.0000 C   0  0  1  0  0  0  0  0  0  0  0  0
   -1.3561   -3.3796    0.0000 H   0  0  0  0  0  0  0  0  0  0  0  0
   -0.0565   -4.1304    0.0000 C   0  0  1  0  0  0  0  0  0  0  0  0
   -0.5697   -5.5399    0.0000 H   0  0  0  0  0  0  0  0  0  0  0  0
    1.2430   -4.8813    0.0000 C   0  0  0  0  0  0  0  0  0  0  0  0
    2.5420   -4.1313    0.0000 C   0  0  0  0  0  0  0  0  0  0  0  0
    2.5415   -2.6304    0.0000 C   0  0  0  0  0  0  0  0  0  0  0  0
    3.8406   -1.8804    0.0000 O   0  0  0  0  0  0  0  0  0  0  0  0
    1.2420   -1.8796    0.0000 C   0  0  1  0  0  0  0  0  0  0  0  0
    1.2415   -0.3788    0.0000 C   0  0  0  0  0  0  0  0  0  0  0  0
   -0.0580    0.3721    0.0000 C   0  0  0  0  0  0  0  0  0  0  0  0
   -0.0585    1.8729    0.0000 C   0  0  0  0  0  0  0  0  0  0  0  0
    1.2393    2.6251    0.0000 O   0  0  0  0  0  0  0  0  0  0  0  0
    2.5406    0.3712    0.0000 O   0  0  0  0  0  0  0  0  0  0  0  0
    2.5406    1.8712    0.0000 H   0  0  0  0  0  0  0  0  0  0  0  0
    2.7588   -0.6069    0.0000 O   0  0  0  0  0  0  0  0  0  0  0  0
    5.0704   -1.4482    0.0000 C   0  0  0  0  0  0  0  0  0  0  0  0
    4.3234   -2.7490    0.0000 H   0  0  0  0  0  0  0  0  0  0  0  0
    5.3325    0.0185    0.0000 C   0  0  0  0  0  0  0  0  0  0  0  0
    5.0766    1.4965    0.0000 H   0  0  0  0  0  0  0  0  0  0  0  0
    6.7656    0.5345    0.0000 C   0  0  0  0  0  0  0  0  0  0  0  0
    7.9208    1.4914    0.0000 H   0  0  0  0  0  0  0  0  0  0  0  0
    7.9117   -0.4424    0.0000 C   0  0  0  0  0  0  0  0  0  0  0  0
    9.3191   -0.9612    0.0000 H   0  0  0  0  0  0  0  0  0  0  0  0
    7.6496   -1.9091    0.0000 C   0  0  0  0  0  0  0  0  0  0  0  0
    7.9063   -3.3870    0.0000 H   0  0  0  0  0  0  0  0  0  0  0  0
   10.1096   -1.9151    0.0000 C   0  0  0  0  0  0  0  0  0  0  0  0
   10.8627   -0.6178    0.0000 O   0  0  0  0  0  0  0  0  0  0  0  0
   10.8564   -3.2159    0.0000 O   0  0  0  0  0  0  0  0  0  0  0  0
   12.3564   -3.2195    0.0000 H   0  0  0  0  0  0  0  0  0  0  0  0
    6.2379   -2.4188    0.0000 O   0  0  0  0  0  0  0  0  0  0  0  0
    8.6694    0.8522    0.0000 O   0  0  0  0  0  0  0  0  0  0  0  0
   10.1693    0.8433    0.0000 H   0  0  0  0  0  0  0  0  0  0  0  0
    6.0220    1.8372    0.0000 O   0  0  0  0  0  0  0  0  0  0  0  0
    6.7784    3.1325    0.0000 H   0  0  0  0  0  0  0  0  0  0  0  0
    4.0355    0.7720    0.0000 O   0  0  0  0  0  0  0  0  0  0  0  0
    4.0396    2.2720    0.0000 H   0  0  0  0  0  0  0  0  0  0  0  0
    4.4267   -5.7122    0.0000 C   0  0  0  0  0  0  0  0  0  0  0  0
    4.1665   -7.1895    0.0000 O   0  0  0  0  0  0  0  0  0  0  0  0
    5.8362   -5.1990    0.0000 N   0  0  0  0  0  0  0  0  0  0  0  0
    6.9854   -6.1630    0.0000 H   0  0  0  0  0  0  0  0  0  0  0  0
    6.0964   -3.7217    0.0000 H   0  0  0  0  0  0  0  0  0  0  0  0
    1.2427   -6.3813    0.0000 O   0  0  0  0  0  0  0  0  0  0  0  0
    2.5417   -7.1315    0.0000 H   0  0  0  0  0  0  0  0  0  0  0  0
   -1.5338   -3.8701    0.0000 N   0  0  0  0  0  0  0  0  0  0  0  0
   -2.4978   -5.0193    0.0000 C   0  0  0  0  0  0  0  0  0  0  0  0
   -1.9847   -6.4288    0.0000 H   0  0  0  0  0  0  0  0  0  0  0  0
   -3.4621   -3.8703    0.0000 H   0  0  0  0  0  0  0  0  0  0  0  0
   -3.7968   -5.7694    0.0000 H   0  0  0  0  0  0  0  0  0  0  0  0
   -2.0470   -2.4606    0.0000 C   0  0  0  0  0  0  0  0  0  0  0  0
   -4.9424   -1.9504    0.0000 H   0  0  0  0  0  0  0  0  0  0  0  0
   -2.0471   -0.9606    0.0000 H   0  0  0  0  0  0  0  0  0  0  0  0
   -0.5698   -2.2000    0.0000 H   0  0  0  0  0  0  0  0  0  0  0  0
   -0.0544    4.8659    0.0000 O   0  0  0  0  0  0  0  0  0  0  0  0
   -0.0544    6.3659    0.0000 H   0  0  0  0  0  0  0  0  0  0  0  0
  1  2  1  0  0  0  0 
  1  3  1  0  0  0  0 
  1  4  1  0  0  0  0 
  1  5  1  0  0  0  0 
  5  6  1  0  0  0  0 
  6  7  1  0  0  0  0 
  6  8  1  0  0  0  0 
  6  9  1  0  0  0  0 
  5 10  1  0  0  0  0 
 10 11  2  0  0  0  0 
 11 12  1  0  0  0  0 
 11 13  1  0  0  0  0 
 13 14  1  0  0  0  0 
 13 15  2  0  0  0  0 
 15 16  1  0  0  0  0 
 16 17  2  0  0  0  0 
 10 17  1  0  0  0  0 
 17 18  1  0  0  0  0 
 18 19  1  0  0  0  0 
 18 20  1  0  0  0  0 
 18 21  1  0  0  0  0 
 21 22  1  1  0  0  0 
 21 23  1  0  0  0  0 
 23 24  1  0  0  0  0 
 23 25  1  0  0  0  0 
 23 26  1  0  0  0  0 
 26 27  1  1  0  0  0 
 26 28  1  0  0  0  0 
 28 29  1  6  0  0  0 
 28 30  1  0  0  0  0 
 30 31  2  0  0  0  0 
 31 32  1  0  0  0  0 
 32 33  2  0  0  0  0 
 32 34  1  0  0  0  0 
 26 34  1  0  0  0  0 
 34 35  1  0  0  0  0 
 35 36  2  0  0  0  0 
 21 36  1  0  0  0  0 
 36 37  1  0  0  0  0 
 16 37  1  0  0  0  0 
 37 38  2  0  0  0  0 
 35 39  1  0  0  0  0 
 39 40  1  0  0  0  0 
 34 41  1  1  0  0  0 
 41 42  1  0  0  0  0 
 42 43  1  0  0  0  0 
 42 44  1  0  0  0  0 
 44 45  1  0  0  0  0 
 44 46  1  0  0  0  0 
 46 47  1  0  0  0  0 
 46 48  1  0  0  0  0 
 48 49  1  0  0  0  0 
 48 50  1  0  0  0  0 
 50 51  1  0  0  0  0 
 50 52  1  0  0  0  0 
 52 53  2  0  0  0  0 
 52 54  1  0  0  0  0 
 54 55  1  0  0  0  0 
 50 56  1  0  0  0  0 
 42 56  1  0  0  0  0 
 48 57  1  0  0  0  0 
 57 58  1  0  0  0  0 
 46 59  1  0  0  0  0 
 59 60  1  0  0  0  0 
 44 61  1  0  0  0  0 
 61 62  1  0  0  0  0 
 31 63  1  0  0  0  0 
 63 64  2  0  0  0  0 
 63 65  1  0  0  0  0 
 65 66  1  0  0  0  0 
 65 67  1  0  0  0  0 
 30 68  1  0  0  0  0 
 68 69  1  0  0  0  0 
 28 70  1  1  0  0  0 
 70 71  1  0  0  0  0 
 71 72  1  0  0  0  0 
 71 73  1  0  0  0  0 
 71 74  1  0  0  0  0 
 70 75  1  0  0  0  0 
 75 76  1  0  0  0  0 
 75 77  1  0  0  0  0 
 75 78  1  0  0  0  0 
 15 79  1  0  0  0  0 
 79 80  1  0  0  0  0 
M  END
> <Rank>
13

> <Priority_score>
0.168

> <Reaction_type>
O-glucuronidation_(aliphatic_hydroxyl)

> <Parent_ID>
31

> <Parent_InChI>
InChI=1S/C23H27N3O7/c1-25(2)12-5-6-13(27)15-10(12)7-9-8-11-17(26(3)4)19(29)16(22(24)32)21(31)23(11,33)20(30)14(9)18(15)28/h5-6,9,11,17,27,29-30,33H,7-8H2,1-4H3,(H2,24,32)

> <Parent_SMILES>
CN(C)c1ccc(O)c2c1C[C@H]1C[C@H]3[C@H](N(C)C)C(O)=C(C(N)=O)C(=O)[C@@]3(O)C(O)=C1C2=O

$$$$
Molecule 31_metabolite 14
  CDK     0516241031

 62 65  0  0  0  0  0  0  0  0999 V2000
   -5.6857    2.6273    0.0000 C   0  0  0  0  0  0  0  0  0  0  0  0
   -5.6857    4.1273    0.0000 H   0  0  0  0  0  0  0  0  0  0  0  0
   -7.1629    2.8878    0.0000 H   0  0  0  0  0  0  0  0  0  0  0  0
   -6.1988    1.2177    0.0000 H   0  0  0  0  0  0  0  0  0  0  0  0
   -4.3867    1.8773    0.0000 N   0  0  0  0  0  0  0  0  0  0  0  0
   -3.0877    2.6273    0.0000 C   0  0  0  0  0  0  0  0  0  0  0  0
   -1.7886    1.8773    0.0000 H   0  0  0  0  0  0  0  0  0  0  0  0
   -4.0518    3.7764    0.0000 H   0  0  0  0  0  0  0  0  0  0  0  0
   -2.1235    3.7764    0.0000 H   0  0  0  0  0  0  0  0  0  0  0  0
   -4.3867    0.3773    0.0000 C   0  0  0  0  0  0  0  0  0  0  0  0
   -5.6867   -0.3727    0.0000 C   0  0  0  0  0  0  0  0  0  0  0  0
   -6.9856    0.3775    0.0000 H   0  0  0  0  0  0  0  0  0  0  0  0
   -5.6867   -1.8727    0.0000 C   0  0  0  0  0  0  0  0  0  0  0  0
   -6.9856   -2.6229    0.0000 H   0  0  0  0  0  0  0  0  0  0  0  0
   -4.3867   -2.6227    0.0000 C   0  0  0  0  0  0  0  0  0  0  0  0
   -3.0867   -1.8727    0.0000 C   0  0  0  0  0  0  0  0  0  0  0  0
   -3.0867   -0.3727    0.0000 C   0  0  0  0  0  0  0  0  0  0  0  0
   -1.7967    0.3773    0.0000 C   0  0  0  0  0  0  0  0  0  0  0  0
   -0.8339    1.5275    0.0000 H   0  0  0  0  0  0  0  0  0  0  0  0
   -2.7633    1.5243    0.0000 H   0  0  0  0  0  0  0  0  0  0  0  0
   -0.4967   -0.3727    0.0000 C   0  0  1  0  0  0  0  0  0  0  0  0
    1.6329   -1.6041    0.0000 H   0  0  0  0  0  0  0  0  0  0  0  0
    0.8033    0.3773    0.0000 C   0  0  0  0  0  0  0  0  0  0  0  0
    0.2910   -1.0325    0.0000 H   0  0  0  0  0  0  0  0  0  0  0  0
   -0.1608    1.5265    0.0000 H   0  0  0  0  0  0  0  0  0  0  0  0
    2.1033   -0.3727    0.0000 C   0  0  1  0  0  0  0  0  0  0  0  0
    2.1033    1.1273    0.0000 H   0  0  0  0  0  0  0  0  0  0  0  0
    3.4033    0.3773    0.0000 C   0  0  1  0  0  0  0  0  0  0  0  0
    4.3674    1.5265    0.0000 H   0  0  0  0  0  0  0  0  0  0  0  0
    4.7033   -0.3727    0.0000 C   0  0  0  0  0  0  0  0  0  0  0  0
    4.7033   -1.8727    0.0000 C   0  0  0  0  0  0  0  0  0  0  0  0
    3.4033   -2.6227    0.0000 C   0  0  0  0  0  0  0  0  0  0  0  0
    2.4392   -3.7719    0.0000 H   0  0  0  0  0  0  0  0  0  0  0  0
    2.1033   -1.8727    0.0000 C   0  0  1  0  0  0  0  0  0  0  0  0
    0.8033   -2.6227    0.0000 C   0  0  0  0  0  0  0  0  0  0  0  0
   -0.4967   -1.8727    0.0000 C   0  0  0  0  0  0  0  0  0  0  0  0
   -1.7967   -2.6227    0.0000 C   0  0  0  0  0  0  0  0  0  0  0  0
   -1.7992   -4.1227    0.0000 O   0  0  0  0  0  0  0  0  0  0  0  0
    0.8033   -4.1227    0.0000 O   0  0  0  0  0  0  0  0  0  0  0  0
    2.1023   -4.8727    0.0000 H   0  0  0  0  0  0  0  0  0  0  0  0
    2.1033   -3.3727    0.0000 O   0  0  0  0  0  0  0  0  0  0  0  0
    3.4023   -4.1227    0.0000 H   0  0  0  0  0  0  0  0  0  0  0  0
    4.3674   -3.7719    0.0000 O   0  0  0  0  0  0  0  0  0  0  0  0
    3.8542   -5.1814    0.0000 H   0  0  0  0  0  0  0  0  0  0  0  0
    6.0022   -2.6229    0.0000 C   0  0  0  0  0  0  0  0  0  0  0  0
    7.3014   -1.8731    0.0000 O   0  0  0  0  0  0  0  0  0  0  0  0
    6.0020   -4.1229    0.0000 N   0  0  0  0  0  0  0  0  0  0  0  0
    7.3009   -4.8731    0.0000 H   0  0  0  0  0  0  0  0  0  0  0  0
    4.7028   -4.8727    0.0000 H   0  0  0  0  0  0  0  0  0  0  0  0
    6.0022    0.3775    0.0000 O   0  0  0  0  0  0  0  0  0  0  0  0
    7.3014   -0.3723    0.0000 H   0  0  0  0  0  0  0  0  0  0  0  0
    3.0597    2.3272    0.0000 N   0  0  0  0  0  0  0  0  0  0  0  0
    4.2089    3.2913    0.0000 C   0  0  0  0  0  0  0  0  0  0  0  0
    5.6183    2.7781    0.0000 H   0  0  0  0  0  0  0  0  0  0  0  0
    4.9590    4.5903    0.0000 H   0  0  0  0  0  0  0  0  0  0  0  0
    3.0599    4.2556    0.0000 H   0  0  0  0  0  0  0  0  0  0  0  0
    1.6502    2.8404    0.0000 C   0  0  0  0  0  0  0  0  0  0  0  0
    1.3899    4.3177    0.0000 H   0  0  0  0  0  0  0  0  0  0  0  0
    0.3512    3.5906    0.0000 H   0  0  0  0  0  0  0  0  0  0  0  0
    1.3896    1.3632    0.0000 H   0  0  0  0  0  0  0  0  0  0  0  0
   -4.3867   -4.1227    0.0000 O   0  0  0  0  0  0  0  0  0  0  0  0
   -5.6857   -4.8727    0.0000 H   0  0  0  0  0  0  0  0  0  0  0  0
  1  2  1  0  0  0  0 
  1  3  1  0  0  0  0 
  1  4  1  0  0  0  0 
  1  5  1  0  0  0  0 
  5  6  1  0  0  0  0 
  6  7  1  0  0  0  0 
  6  8  1  0  0  0  0 
  6  9  1  0  0  0  0 
  5 10  1  0  0  0  0 
 10 11  2  0  0  0  0 
 11 12  1  0  0  0  0 
 11 13  1  0  0  0  0 
 13 14  1  0  0  0  0 
 13 15  2  0  0  0  0 
 15 16  1  0  0  0  0 
 16 17  2  0  0  0  0 
 10 17  1  0  0  0  0 
 17 18  1  0  0  0  0 
 18 19  1  0  0  0  0 
 18 20  1  0  0  0  0 
 18 21  1  0  0  0  0 
 21 22  1  6  0  0  0 
 21 23  1  0  0  0  0 
 23 24  1  0  0  0  0 
 23 25  1  0  0  0  0 
 23 26  1  0  0  0  0 
 26 27  1  6  0  0  0 
 26 28  1  0  0  0  0 
 28 29  1  1  0  0  0 
 28 30  1  0  0  0  0 
 30 31  2  0  0  0  0 
 31 32  1  0  0  0  0 
 32 33  1  0  0  0  0 
 32 34  1  0  0  0  0 
 26 34  1  0  0  0  0 
 34 35  1  0  0  0  0 
 35 36  2  0  0  0  0 
 21 36  1  0  0  0  0 
 36 37  1  0  0  0  0 
 16 37  1  0  0  0  0 
 37 38  2  0  0  0  0 
 35 39  1  0  0  0  0 
 39 40  1  0  0  0  0 
 34 41  1  6  0  0  0 
 41 42  1  0  0  0  0 
 32 43  1  0  0  0  0 
 43 44  1  0  0  0  0 
 31 45  1  0  0  0  0 
 45 46  2  0  0  0  0 
 45 47  1  0  0  0  0 
 47 48  1  0  0  0  0 
 47 49  1  0  0  0  0 
 30 50  1  0  0  0  0 
 50 51  1  0  0  0  0 
 28 52  1  6  0  0  0 
 52 53  1  0  0  0  0 
 53 54  1  0  0  0  0 
 53 55  1  0  0  0  0 
 53 56  1  0  0  0  0 
 52 57  1  0  0  0  0 
 57 58  1  0  0  0  0 
 57 59  1  0  0  0  0 
 57 60  1  0  0  0  0 
 15 61  1  0  0  0  0 
 61 62  1  0  0  0  0 
M  END
> <Rank>
14

> <Priority_score>
0.156

> <Reaction_type>
carbonyl_reduction_(next_to_SP2_carbon)

> <Parent_ID>
31

> <Parent_InChI>
InChI=1S/C23H27N3O7/c1-25(2)12-5-6-13(27)15-10(12)7-9-8-11-17(26(3)4)19(29)16(22(24)32)21(31)23(11,33)20(30)14(9)18(15)28/h5-6,9,11,17,27,29-30,33H,7-8H2,1-4H3,(H2,24,32)

> <Parent_SMILES>
CN(C)c1ccc(O)c2c1C[C@H]1C[C@H]3[C@H](N(C)C)C(O)=C(C(N)=O)C(=O)[C@@]3(O)C(O)=C1C2=O

$$$$
Molecule 31_metabolite 15
  CDK     0516241031

 62 65  0  0  0  0  0  0  0  0999 V2000
   -6.9898    3.0240    0.0000 C   0  0  0  0  0  0  0  0  0  0  0  0
   -6.9898    4.5240    0.0000 H   0  0  0  0  0  0  0  0  0  0  0  0
   -8.4671    3.2845    0.0000 H   0  0  0  0  0  0  0  0  0  0  0  0
   -7.5029    1.6144    0.0000 H   0  0  0  0  0  0  0  0  0  0  0  0
   -5.6908    2.2740    0.0000 N   0  0  0  0  0  0  0  0  0  0  0  0
   -4.3918    3.0240    0.0000 C   0  0  0  0  0  0  0  0  0  0  0  0
   -3.0927    2.2740    0.0000 H   0  0  0  0  0  0  0  0  0  0  0  0
   -5.3559    4.1730    0.0000 H   0  0  0  0  0  0  0  0  0  0  0  0
   -3.4276    4.1730    0.0000 H   0  0  0  0  0  0  0  0  0  0  0  0
   -5.6908    0.7740    0.0000 C   0  0  0  0  0  0  0  0  0  0  0  0
   -6.9908    0.0240    0.0000 C   0  0  0  0  0  0  0  0  0  0  0  0
   -8.2897    0.7742    0.0000 H   0  0  0  0  0  0  0  0  0  0  0  0
   -6.9908   -1.4760    0.0000 C   0  0  0  0  0  0  0  0  0  0  0  0
   -8.2897   -2.2262    0.0000 H   0  0  0  0  0  0  0  0  0  0  0  0
   -5.6908   -2.2260    0.0000 C   0  0  0  0  0  0  0  0  0  0  0  0
   -4.3908   -1.4760    0.0000 C   0  0  0  0  0  0  0  0  0  0  0  0
   -4.3908    0.0240    0.0000 C   0  0  0  0  0  0  0  0  0  0  0  0
   -3.1008    0.7740    0.0000 C   0  0  0  0  0  0  0  0  0  0  0  0
   -2.1380    1.9242    0.0000 H   0  0  0  0  0  0  0  0  0  0  0  0
   -4.0674    1.9210    0.0000 H   0  0  0  0  0  0  0  0  0  0  0  0
   -1.8008    0.0240    0.0000 C   0  0  1  0  0  0  0  0  0  0  0  0
    0.3288   -1.2074    0.0000 H   0  0  0  0  0  0  0  0  0  0  0  0
   -0.5008    0.7740    0.0000 C   0  0  0  0  0  0  0  0  0  0  0  0
   -1.0131   -0.6358    0.0000 H   0  0  0  0  0  0  0  0  0  0  0  0
   -1.4649    1.9232    0.0000 H   0  0  0  0  0  0  0  0  0  0  0  0
    0.7992    0.0240    0.0000 C   0  0  1  0  0  0  0  0  0  0  0  0
    0.7992    1.5240    0.0000 H   0  0  0  0  0  0  0  0  0  0  0  0
    2.0992    0.7740    0.0000 C   0  0  1  0  0  0  0  0  0  0  0  0
    3.0633    1.9232    0.0000 H   0  0  0  0  0  0  0  0  0  0  0  0
    3.3992    0.0240    0.0000 C   0  0  0  0  0  0  0  0  0  0  0  0
    4.8764   -0.2363    0.0000 H   0  0  0  0  0  0  0  0  0  0  0  0
    3.3992   -1.4760    0.0000 C   0  0  0  0  0  0  0  0  0  0  0  0
    3.9119   -2.8857    0.0000 H   0  0  0  0  0  0  0  0  0  0  0  0
    2.0992   -2.2260    0.0000 C   0  0  0  0  0  0  0  0  0  0  0  0
    2.0992   -3.7260    0.0000 O   0  0  0  0  0  0  0  0  0  0  0  0
    0.7992   -1.4760    0.0000 C   0  0  1  0  0  0  0  0  0  0  0  0
   -0.5008   -2.2260    0.0000 C   0  0  0  0  0  0  0  0  0  0  0  0
   -1.8008   -1.4760    0.0000 C   0  0  0  0  0  0  0  0  0  0  0  0
   -3.1008   -2.2260    0.0000 C   0  0  0  0  0  0  0  0  0  0  0  0
   -3.1033   -3.7260    0.0000 O   0  0  0  0  0  0  0  0  0  0  0  0
   -0.5008   -3.7260    0.0000 O   0  0  0  0  0  0  0  0  0  0  0  0
    0.7982   -4.4760    0.0000 H   0  0  0  0  0  0  0  0  0  0  0  0
    0.7992   -2.9760    0.0000 O   0  0  0  0  0  0  0  0  0  0  0  0
    2.9296   -4.2060    0.0000 H   0  0  0  0  0  0  0  0  0  0  0  0
    5.3492   -1.1324    0.0000 C   0  0  0  0  0  0  0  0  0  0  0  0
    5.8623    0.2771    0.0000 O   0  0  0  0  0  0  0  0  0  0  0  0
    6.3132   -2.2816    0.0000 N   0  0  0  0  0  0  0  0  0  0  0  0
    7.7905   -2.0213    0.0000 H   0  0  0  0  0  0  0  0  0  0  0  0
    5.8000   -3.6911    0.0000 H   0  0  0  0  0  0  0  0  0  0  0  0
    3.9119    1.4336    0.0000 O   0  0  0  0  0  0  0  0  0  0  0  0
    5.3891    1.6944    0.0000 H   0  0  0  0  0  0  0  0  0  0  0  0
    1.7556    2.7239    0.0000 N   0  0  0  0  0  0  0  0  0  0  0  0
    2.9048    3.6880    0.0000 C   0  0  0  0  0  0  0  0  0  0  0  0
    4.3142    3.1748    0.0000 H   0  0  0  0  0  0  0  0  0  0  0  0
    3.6549    4.9870    0.0000 H   0  0  0  0  0  0  0  0  0  0  0  0
    1.7558    4.6523    0.0000 H   0  0  0  0  0  0  0  0  0  0  0  0
    0.3461    3.2371    0.0000 C   0  0  0  0  0  0  0  0  0  0  0  0
    0.0858    4.7144    0.0000 H   0  0  0  0  0  0  0  0  0  0  0  0
   -0.9529    3.9873    0.0000 H   0  0  0  0  0  0  0  0  0  0  0  0
    0.0855    1.7599    0.0000 H   0  0  0  0  0  0  0  0  0  0  0  0
   -5.6908   -3.7260    0.0000 O   0  0  0  0  0  0  0  0  0  0  0  0
   -6.9898   -4.4760    0.0000 H   0  0  0  0  0  0  0  0  0  0  0  0
  1  2  1  0  0  0  0 
  1  3  1  0  0  0  0 
  1  4  1  0  0  0  0 
  1  5  1  0  0  0  0 
  5  6  1  0  0  0  0 
  6  7  1  0  0  0  0 
  6  8  1  0  0  0  0 
  6  9  1  0  0  0  0 
  5 10  1  0  0  0  0 
 10 11  2  0  0  0  0 
 11 12  1  0  0  0  0 
 11 13  1  0  0  0  0 
 13 14  1  0  0  0  0 
 13 15  2  0  0  0  0 
 15 16  1  0  0  0  0 
 16 17  2  0  0  0  0 
 10 17  1  0  0  0  0 
 17 18  1  0  0  0  0 
 18 19  1  0  0  0  0 
 18 20  1  0  0  0  0 
 18 21  1  0  0  0  0 
 21 22  1  6  0  0  0 
 21 23  1  0  0  0  0 
 23 24  1  0  0  0  0 
 23 25  1  0  0  0  0 
 23 26  1  0  0  0  0 
 26 27  1  6  0  0  0 
 26 28  1  0  0  0  0 
 28 29  1  1  0  0  0 
 28 30  1  0  0  0  0 
 30 31  1  0  0  0  0 
 30 32  1  0  0  0  0 
 32 33  1  0  0  0  0 
 32 34  1  0  0  0  0 
 34 35  2  0  0  0  0 
 34 36  1  0  0  0  0 
 26 36  1  0  0  0  0 
 36 37  1  0  0  0  0 
 37 38  2  0  0  0  0 
 21 38  1  0  0  0  0 
 38 39  1  0  0  0  0 
 16 39  1  0  0  0  0 
 39 40  2  0  0  0  0 
 37 41  1  0  0  0  0 
 41 42  1  0  0  0  0 
 36 43  1  6  0  0  0 
 43 44  1  0  0  0  0 
 32 45  1  0  0  0  0 
 45 46  2  0  0  0  0 
 45 47  1  0  0  0  0 
 47 48  1  0  0  0  0 
 47 49  1  0  0  0  0 
 30 50  1  0  0  0  0 
 50 51  1  0  0  0  0 
 28 52  1  6  0  0  0 
 52 53  1  0  0  0  0 
 53 54  1  0  0  0  0 
 53 55  1  0  0  0  0 
 53 56  1  0  0  0  0 
 52 57  1  0  0  0  0 
 57 58  1  0  0  0  0 
 57 59  1  0  0  0  0 
 57 60  1  0  0  0  0 
 15 61  1  0  0  0  0 
 61 62  1  0  0  0  0 
M  END
> <Rank>
14

> <Priority_score>
0.156

> <Reaction_type>
double_bond_reduction

> <Parent_ID>
31

> <Parent_InChI>
InChI=1S/C23H27N3O7/c1-25(2)12-5-6-13(27)15-10(12)7-9-8-11-17(26(3)4)19(29)16(22(24)32)21(31)23(11,33)20(30)14(9)18(15)28/h5-6,9,11,17,27,29-30,33H,7-8H2,1-4H3,(H2,24,32)

> <Parent_SMILES>
CN(C)c1ccc(O)c2c1C[C@H]1C[C@H]3[C@H](N(C)C)C(O)=C(C(N)=O)C(=O)[C@@]3(O)C(O)=C1C2=O

$$$$
Molecule 31_metabolite 16
  CDK     0516241031

 97100  0  0  0  0  0  0  0  0999 V2000
   18.6212   -5.6908    0.0000 C   0  0  0  0  0  0  0  0  0  0  0  0
   19.5849   -4.5413    0.0000 H   0  0  0  0  0  0  0  0  0  0  0  0
   19.9205   -6.4402    0.0000 H   0  0  0  0  0  0  0  0  0  0  0  0
   18.1087   -7.1005    0.0000 H   0  0  0  0  0  0  0  0  0  0  0  0
   17.1439   -5.4309    0.0000 N   0  0  0  0  0  0  0  0  0  0  0  0
   16.6302   -4.0216    0.0000 C   0  0  0  0  0  0  0  0  0  0  0  0
   15.1529   -3.7618    0.0000 H   0  0  0  0  0  0  0  0  0  0  0  0
   18.1073   -3.7605    0.0000 H   0  0  0  0  0  0  0  0  0  0  0  0
   16.6296   -2.5216    0.0000 H   0  0  0  0  0  0  0  0  0  0  0  0
   16.1802   -6.5804    0.0000 C   0  0  0  0  0  0  0  0  0  0  0  0
   16.6945   -7.9903    0.0000 C   0  0  0  0  0  0  0  0  0  0  0  0
   18.1719   -8.2500    0.0000 H   0  0  0  0  0  0  0  0  0  0  0  0
   15.7308   -9.1398    0.0000 C   0  0  0  0  0  0  0  0  0  0  0  0
   16.2443  -10.5492    0.0000 H   0  0  0  0  0  0  0  0  0  0  0  0
   14.2528   -8.8794    0.0000 C   0  0  0  0  0  0  0  0  0  0  0  0
   13.7384   -7.4694    0.0000 C   0  0  0  0  0  0  0  0  0  0  0  0
   14.7021   -6.3200    0.0000 C   0  0  0  0  0  0  0  0  0  0  0  0
   14.1877   -4.9100    0.0000 C   0  0  0  0  0  0  0  0  0  0  0  0
   14.1873   -3.4100    0.0000 H   0  0  0  0  0  0  0  0  0  0  0  0
   15.6648   -4.6488    0.0000 H   0  0  0  0  0  0  0  0  0  0  0  0
   12.7097   -4.6496    0.0000 C   0  0  1  0  0  0  0  0  0  0  0  0
   14.5985   -2.3966    0.0000 H   0  0  0  0  0  0  0  0  0  0  0  0
   12.1953   -3.2396    0.0000 C   0  0  0  0  0  0  0  0  0  0  0  0
   11.6821   -4.6491    0.0000 H   0  0  0  0  0  0  0  0  0  0  0  0
   13.6724   -2.9784    0.0000 H   0  0  0  0  0  0  0  0  0  0  0  0
   10.7172   -2.9792    0.0000 C   0  0  1  0  0  0  0  0  0  0  0  0
   11.6809   -1.8297    0.0000 H   0  0  0  0  0  0  0  0  0  0  0  0
   10.2029   -1.5692    0.0000 C   0  0  1  0  0  0  0  0  0  0  0  0
   10.2024   -0.0692    0.0000 H   0  0  0  0  0  0  0  0  0  0  0  0
    8.7248   -1.3088    0.0000 C   0  0  0  0  0  0  0  0  0  0  0  0
    7.7611   -2.4582    0.0000 C   0  0  0  0  0  0  0  0  0  0  0  0
    6.4626   -3.2091    0.0000 H   0  0  0  0  0  0  0  0  0  0  0  0
    8.2755   -3.8682    0.0000 C   0  0  0  0  0  0  0  0  0  0  0  0
    6.3867   -6.1212    0.0000 O   0  0  0  0  0  0  0  0  0  0  0  0
    9.7536   -4.1286    0.0000 C   0  0  1  0  0  0  0  0  0  0  0  0
   10.2679   -5.5386    0.0000 C   0  0  0  0  0  0  0  0  0  0  0  0
   11.7460   -5.7990    0.0000 C   0  0  0  0  0  0  0  0  0  0  0  0
   12.2604   -7.2090    0.0000 C   0  0  0  0  0  0  0  0  0  0  0  0
   11.2967   -8.3584    0.0000 O   0  0  0  0  0  0  0  0  0  0  0  0
    9.3042   -6.6881    0.0000 O   0  0  0  0  0  0  0  0  0  0  0  0
    7.8269   -6.4282    0.0000 H   0  0  0  0  0  0  0  0  0  0  0  0
    8.7899   -5.2781    0.0000 O   0  0  0  0  0  0  0  0  0  0  0  0
    7.3125   -5.0183    0.0000 H   0  0  0  0  0  0  0  0  0  0  0  0
    6.7963   -1.3097    0.0000 C   0  0  0  0  0  0  0  0  0  0  0  0
    7.3086    0.1001    0.0000 O   0  0  0  0  0  0  0  0  0  0  0  0
    5.3193   -1.5709    0.0000 N   0  0  0  0  0  0  0  0  0  0  0  0
    4.3545   -0.4224    0.0000 H   0  0  0  0  0  0  0  0  0  0  0  0
    4.8070   -2.9808    0.0000 H   0  0  0  0  0  0  0  0  0  0  0  0
    6.1782    0.1604    0.0000 O   0  0  0  0  0  0  0  0  0  0  0  0
    6.1778    1.6604    0.0000 H   0  0  0  0  0  0  0  0  0  0  0  0
    9.2375    0.1009    0.0000 S   0  0  0  0  0  0  0  0  0  0  0  0
    7.6559    1.9850    0.0000 C   0  0  0  0  0  0  0  0  0  0  0  0
    6.6919    0.8357    0.0000 H   0  0  0  0  0  0  0  0  0  0  0  0
    6.3567    2.7347    0.0000 H   0  0  0  0  0  0  0  0  0  0  0  0
    8.6608    4.7479    0.0000 C   0  0  0  0  0  0  0  0  0  0  0  0
    8.6605    6.2479    0.0000 H   0  0  0  0  0  0  0  0  0  0  0  0
    7.1836    5.0081    0.0000 C   0  0  0  0  0  0  0  0  0  0  0  0
    6.2196    3.8588    0.0000 O   0  0  0  0  0  0  0  0  0  0  0  0
    6.6702    6.4175    0.0000 N   0  0  0  0  0  0  0  0  0  0  0  0
    7.6342    7.5668    0.0000 H   0  0  0  0  0  0  0  0  0  0  0  0
    5.1930    6.6777    0.0000 C   0  0  0  0  0  0  0  0  0  0  0  0
    5.1933    5.1777    0.0000 H   0  0  0  0  0  0  0  0  0  0  0  0
    3.7158    6.4169    0.0000 H   0  0  0  0  0  0  0  0  0  0  0  0
    4.6796    8.0871    0.0000 C   0  0  0  0  0  0  0  0  0  0  0  0
    5.6436    9.2364    0.0000 O   0  0  0  0  0  0  0  0  0  0  0  0
    3.2024    8.3473    0.0000 O   0  0  0  0  0  0  0  0  0  0  0  0
    2.6890    9.7567    0.0000 H   0  0  0  0  0  0  0  0  0  0  0  0
   10.1380    5.0087    0.0000 N   0  0  0  0  0  0  0  0  0  0  0  0
   11.1024    3.8599    0.0000 H   0  0  0  0  0  0  0  0  0  0  0  0
   10.8148    6.8695    0.0000 C   0  0  0  0  0  0  0  0  0  0  0  0
    9.8504    8.0183    0.0000 O   0  0  0  0  0  0  0  0  0  0  0  0
   13.7100    7.3806    0.0000 C   0  0  0  0  0  0  0  0  0  0  0  0
   13.7103    5.8806    0.0000 H   0  0  0  0  0  0  0  0  0  0  0  0
   15.1873    7.1204    0.0000 H   0  0  0  0  0  0  0  0  0  0  0  0
   14.5509    9.6924    0.0000 C   0  0  0  0  0  0  0  0  0  0  0  0
   14.5506   11.1924    0.0000 H   0  0  0  0  0  0  0  0  0  0  0  0
   13.0736    9.9526    0.0000 H   0  0  0  0  0  0  0  0  0  0  0  0
   16.0280    9.9532    0.0000 C   0  0  0  0  0  0  0  0  0  0  0  0
   16.0284    8.4532    0.0000 H   0  0  0  0  0  0  0  0  0  0  0  0
   16.5408   11.3629    0.0000 C   0  0  0  0  0  0  0  0  0  0  0  0
   15.5764   12.5117    0.0000 O   0  0  0  0  0  0  0  0  0  0  0  0
   18.0179   11.6236    0.0000 O   0  0  0  0  0  0  0  0  0  0  0  0
   18.5307   13.0333    0.0000 H   0  0  0  0  0  0  0  0  0  0  0  0
   17.5053    9.6931    0.0000 N   0  0  0  0  0  0  0  0  0  0  0  0
   18.4693   10.8423    0.0000 H   0  0  0  0  0  0  0  0  0  0  0  0
   18.0186    8.2836    0.0000 H   0  0  0  0  0  0  0  0  0  0  0  0
   11.3514   -0.6044    0.0000 N   0  0  0  0  0  0  0  0  0  0  0  0
   12.7612   -1.1167    0.0000 C   0  0  0  0  0  0  0  0  0  0  0  0
   13.0225   -2.5938    0.0000 H   0  0  0  0  0  0  0  0  0  0  0  0
   14.2612   -1.1159    0.0000 H   0  0  0  0  0  0  0  0  0  0  0  0
   13.0209    0.3606    0.0000 H   0  0  0  0  0  0  0  0  0  0  0  0
   11.0902    0.8726    0.0000 C   0  0  0  0  0  0  0  0  0  0  0  0
    9.6804    1.3849    0.0000 H   0  0  0  0  0  0  0  0  0  0  0  0
   12.5902    0.8734    0.0000 H   0  0  0  0  0  0  0  0  0  0  0  0
   11.3499    2.3500    0.0000 H   0  0  0  0  0  0  0  0  0  0  0  0
   13.2891  -10.0288    0.0000 O   0  0  0  0  0  0  0  0  0  0  0  0
   13.8027  -11.4382    0.0000 H   0  0  0  0  0  0  0  0  0  0  0  0
  1  2  1  0  0  0  0 
  1  3  1  0  0  0  0 
  1  4  1  0  0  0  0 
  1  5  1  0  0  0  0 
  5  6  1  0  0  0  0 
  6  7  1  0  0  0  0 
  6  8  1  0  0  0  0 
  6  9  1  0  0  0  0 
  5 10  1  0  0  0  0 
 10 11  2  0  0  0  0 
 11 12  1  0  0  0  0 
 11 13  1  0  0  0  0 
 13 14  1  0  0  0  0 
 13 15  2  0  0  0  0 
 15 16  1  0  0  0  0 
 16 17  2  0  0  0  0 
 10 17  1  0  0  0  0 
 17 18  1  0  0  0  0 
 18 19  1  0  0  0  0 
 18 20  1  0  0  0  0 
 18 21  1  0  0  0  0 
 21 22  1  1  0  0  0 
 21 23  1  0  0  0  0 
 23 24  1  0  0  0  0 
 23 25  1  0  0  0  0 
 23 26  1  0  0  0  0 
 26 27  1  1  0  0  0 
 26 28  1  0  0  0  0 
 28 29  1  6  0  0  0 
 28 30  1  0  0  0  0 
 30 31  1  0  0  0  0 
 31 32  1  0  0  0  0 
 31 33  1  0  0  0  0 
 33 34  2  0  0  0  0 
 33 35  1  0  0  0  0 
 26 35  1  0  0  0  0 
 35 36  1  0  0  0  0 
 36 37  2  0  0  0  0 
 21 37  1  0  0  0  0 
 37 38  1  0  0  0  0 
 16 38  1  0  0  0  0 
 38 39  2  0  0  0  0 
 36 40  1  0  0  0  0 
 40 41  1  0  0  0  0 
 35 42  1  1  0  0  0 
 42 43  1  0  0  0  0 
 31 44  1  0  0  0  0 
 44 45  2  0  0  0  0 
 44 46  1  0  0  0  0 
 46 47  1  0  0  0  0 
 46 48  1  0  0  0  0 
 30 49  1  0  0  0  0 
 49 50  1  0  0  0  0 
 30 51  1  0  0  0  0 
 51 52  1  0  0  0  0 
 52 53  1  0  0  0  0 
 52 54  1  0  0  0  0 
 52 55  1  0  0  0  0 
 55 56  1  0  0  0  0 
 55 57  1  0  0  0  0 
 57 58  2  0  0  0  0 
 57 59  1  0  0  0  0 
 59 60  1  0  0  0  0 
 59 61  1  0  0  0  0 
 61 62  1  0  0  0  0 
 61 63  1  0  0  0  0 
 61 64  1  0  0  0  0 
 64 65  2  0  0  0  0 
 64 66  1  0  0  0  0 
 66 67  1  0  0  0  0 
 55 68  1  0  0  0  0 
 68 69  1  0  0  0  0 
 68 70  1  0  0  0  0 
 70 71  2  0  0  0  0 
 70 72  1  0  0  0  0 
 72 73  1  0  0  0  0 
 72 74  1  0  0  0  0 
 72 75  1  0  0  0  0 
 75 76  1  0  0  0  0 
 75 77  1  0  0  0  0 
 75 78  1  0  0  0  0 
 78 79  1  0  0  0  0 
 78 80  1  0  0  0  0 
 80 81  2  0  0  0  0 
 80 82  1  0  0  0  0 
 82 83  1  0  0  0  0 
 78 84  1  0  0  0  0 
 84 85  1  0  0  0  0 
 84 86  1  0  0  0  0 
 28 87  1  1  0  0  0 
 87 88  1  0  0  0  0 
 88 89  1  0  0  0  0 
 88 90  1  0  0  0  0 
 88 91  1  0  0  0  0 
 87 92  1  0  0  0  0 
 92 93  1  0  0  0  0 
 92 94  1  0  0  0  0 
 92 95  1  0  0  0  0 
 15 96  1  0  0  0  0 
 96 97  1  0  0  0  0 
M  END
> <Rank>
16

> <Priority_score>
0.152

> <Reaction_type>
glutathione_conjugation_(alpha,beta-unsaturated_carbonyl)

> <Parent_ID>
31

> <Parent_InChI>
InChI=1S/C23H27N3O7/c1-25(2)12-5-6-13(27)15-10(12)7-9-8-11-17(26(3)4)19(29)16(22(24)32)21(31)23(11,33)20(30)14(9)18(15)28/h5-6,9,11,17,27,29-30,33H,7-8H2,1-4H3,(H2,24,32)

> <Parent_SMILES>
CN(C)c1ccc(O)c2c1C[C@H]1C[C@H]3[C@H](N(C)C)C(O)=C(C(N)=O)C(=O)[C@@]3(O)C(O)=C1C2=O

$$$$
Molecule 31_metabolite 17
  CDK     0516241031

 57 60  0  0  0  0  0  0  0  0999 V2000
    3.7709    4.3687    0.0000 C   0  0  0  0  0  0  0  0  0  0  0  0
    2.2936    4.6290    0.0000 H   0  0  0  0  0  0  0  0  0  0  0  0
    5.2481    4.6293    0.0000 H   0  0  0  0  0  0  0  0  0  0  0  0
    3.7707    5.8687    0.0000 H   0  0  0  0  0  0  0  0  0  0  0  0
    4.2841    2.9592    0.0000 N   0  0  0  0  0  0  0  0  0  0  0  0
    5.7613    2.6989    0.0000 H   0  0  0  0  0  0  0  0  0  0  0  0
    3.3200    1.8100    0.0000 C   0  0  1  0  0  0  0  0  0  0  0  0
    2.8071    3.2196    0.0000 H   0  0  0  0  0  0  0  0  0  0  0  0
    2.0200    1.0600    0.0000 C   0  0  2  0  0  0  0  0  0  0  0  0
   -0.1096   -0.1714    0.0000 H   0  0  0  0  0  0  0  0  0  0  0  0
    0.7200    1.8100    0.0000 C   0  0  0  0  0  0  0  0  0  0  0  0
    1.6841    2.9592    0.0000 H   0  0  0  0  0  0  0  0  0  0  0  0
    1.2323    0.4002    0.0000 H   0  0  0  0  0  0  0  0  0  0  0  0
   -0.5800    1.0600    0.0000 C   0  0  2  0  0  0  0  0  0  0  0  0
   -1.8786    0.3092    0.0000 H   0  0  0  0  0  0  0  0  0  0  0  0
   -1.8800    1.8100    0.0000 C   0  0  0  0  0  0  0  0  0  0  0  0
   -0.9172    2.9602    0.0000 H   0  0  0  0  0  0  0  0  0  0  0  0
   -2.8466    2.9570    0.0000 H   0  0  0  0  0  0  0  0  0  0  0  0
   -3.1700    1.0600    0.0000 C   0  0  0  0  0  0  0  0  0  0  0  0
   -3.1700   -0.4400    0.0000 C   0  0  0  0  0  0  0  0  0  0  0  0
   -4.4700   -1.1900    0.0000 C   0  0  0  0  0  0  0  0  0  0  0  0
   -5.7700   -0.4400    0.0000 C   0  0  0  0  0  0  0  0  0  0  0  0
   -7.0689   -1.1902    0.0000 H   0  0  0  0  0  0  0  0  0  0  0  0
   -5.7700    1.0600    0.0000 C   0  0  0  0  0  0  0  0  0  0  0  0
   -7.0689    1.8102    0.0000 H   0  0  0  0  0  0  0  0  0  0  0  0
   -4.4700    1.8100    0.0000 C   0  0  0  0  0  0  0  0  0  0  0  0
   -4.4700    3.3100    0.0000 N   0  0  0  0  0  0  0  0  0  0  0  0
   -3.1710    4.0600    0.0000 C   0  0  0  0  0  0  0  0  0  0  0  0
   -1.8719    3.3100    0.0000 H   0  0  0  0  0  0  0  0  0  0  0  0
   -4.1351    5.2091    0.0000 H   0  0  0  0  0  0  0  0  0  0  0  0
   -2.2068    5.2091    0.0000 H   0  0  0  0  0  0  0  0  0  0  0  0
   -5.7690    4.0600    0.0000 C   0  0  0  0  0  0  0  0  0  0  0  0
   -5.7690    5.5600    0.0000 H   0  0  0  0  0  0  0  0  0  0  0  0
   -6.2821    2.6505    0.0000 H   0  0  0  0  0  0  0  0  0  0  0  0
   -7.2462    4.3205    0.0000 H   0  0  0  0  0  0  0  0  0  0  0  0
   -4.4700   -2.6900    0.0000 O   0  0  0  0  0  0  0  0  0  0  0  0
   -5.7690   -3.4400    0.0000 H   0  0  0  0  0  0  0  0  0  0  0  0
   -1.8800   -1.1900    0.0000 C   0  0  0  0  0  0  0  0  0  0  0  0
   -1.8825   -2.6900    0.0000 O   0  0  0  0  0  0  0  0  0  0  0  0
   -0.5800   -0.4400    0.0000 C   0  0  0  0  0  0  0  0  0  0  0  0
    0.7200   -1.1900    0.0000 C   0  0  0  0  0  0  0  0  0  0  0  0
    2.0200   -0.4400    0.0000 C   0  0  2  0  0  0  0  0  0  0  0  0
    3.3200   -1.1900    0.0000 C   0  0  0  0  0  0  0  0  0  0  0  0
    3.3200   -3.6500    0.0000 O   0  0  0  0  0  0  0  0  0  0  0  0
    4.6200   -0.4400    0.0000 C   0  0  0  0  0  0  0  0  0  0  0  0
    4.6200    1.0600    0.0000 C   0  0  0  0  0  0  0  0  0  0  0  0
    5.9189    1.8102    0.0000 O   0  0  0  0  0  0  0  0  0  0  0  0
    7.2181    1.0604    0.0000 H   0  0  0  0  0  0  0  0  0  0  0  0
    5.9189   -1.1902    0.0000 C   0  0  0  0  0  0  0  0  0  0  0  0
    7.2181   -0.4404    0.0000 O   0  0  0  0  0  0  0  0  0  0  0  0
    5.9187   -2.6902    0.0000 N   0  0  0  0  0  0  0  0  0  0  0  0
    7.2176   -3.4404    0.0000 H   0  0  0  0  0  0  0  0  0  0  0  0
    4.6195   -3.4400    0.0000 H   0  0  0  0  0  0  0  0  0  0  0  0
    2.0200   -1.9400    0.0000 O   0  0  0  0  0  0  0  0  0  0  0  0
    3.3190   -2.6900    0.0000 H   0  0  0  0  0  0  0  0  0  0  0  0
    0.7200   -2.6900    0.0000 O   0  0  0  0  0  0  0  0  0  0  0  0
    2.0190   -3.4400    0.0000 H   0  0  0  0  0  0  0  0  0  0  0  0
  1  2  1  0  0  0  0 
  1  3  1  0  0  0  0 
  1  4  1  0  0  0  0 
  1  5  1  0  0  0  0 
  5  6  1  0  0  0  0 
  7  5  1  6  0  0  0 
  7  8  1  1  0  0  0 
  7  9  1  0  0  0  0 
  9 10  1  6  0  0  0 
  9 11  1  0  0  0  0 
 11 12  1  0  0  0  0 
 11 13  1  0  0  0  0 
 11 14  1  0  0  0  0 
 14 15  1  6  0  0  0 
 14 16  1  0  0  0  0 
 16 17  1  0  0  0  0 
 16 18  1  0  0  0  0 
 16 19  1  0  0  0  0 
 19 20  2  0  0  0  0 
 20 21  1  0  0  0  0 
 21 22  2  0  0  0  0 
 22 23  1  0  0  0  0 
 22 24  1  0  0  0  0 
 24 25  1  0  0  0  0 
 24 26  2  0  0  0  0 
 19 26  1  0  0  0  0 
 26 27  1  0  0  0  0 
 27 28  1  0  0  0  0 
 28 29  1  0  0  0  0 
 28 30  1  0  0  0  0 
 28 31  1  0  0  0  0 
 27 32  1  0  0  0  0 
 32 33  1  0  0  0  0 
 32 34  1  0  0  0  0 
 32 35  1  0  0  0  0 
 21 36  1  0  0  0  0 
 36 37  1  0  0  0  0 
 20 38  1  0  0  0  0 
 38 39  2  0  0  0  0 
 38 40  1  0  0  0  0 
 14 40  1  0  0  0  0 
 40 41  2  0  0  0  0 
 41 42  1  0  0  0  0 
  9 42  1  0  0  0  0 
 42 43  1  0  0  0  0 
 43 44  2  0  0  0  0 
 43 45  1  0  0  0  0 
 45 46  2  0  0  0  0 
  7 46  1  0  0  0  0 
 46 47  1  0  0  0  0 
 47 48  1  0  0  0  0 
 45 49  1  0  0  0  0 
 49 50  2  0  0  0  0 
 49 51  1  0  0  0  0 
 51 52  1  0  0  0  0 
 51 53  1  0  0  0  0 
 42 54  1  6  0  0  0 
 54 55  1  0  0  0  0 
 41 56  1  0  0  0  0 
 56 57  1  0  0  0  0 
M  END
> <Rank>
17

> <Priority_score>
0.096

> <Reaction_type>
N-demethylation_(R-N(CH3)2)

> <Parent_ID>
31

> <Parent_InChI>
InChI=1S/C23H27N3O7/c1-25(2)12-5-6-13(27)15-10(12)7-9-8-11-17(26(3)4)19(29)16(22(24)32)21(31)23(11,33)20(30)14(9)18(15)28/h5-6,9,11,17,27,29-30,33H,7-8H2,1-4H3,(H2,24,32)

> <Parent_SMILES>
CN(C)c1ccc(O)c2c1C[C@H]1C[C@H]3[C@H](N(C)C)C(O)=C(C(N)=O)C(=O)[C@@]3(O)C(O)=C1C2=O

$$$$
Molecule 31_metabolite 18
  CDK     0516241031

 51 54  0  0  0  0  0  0  0  0999 V2000
   -5.1990    4.7100    0.0000 C   0  0  0  0  0  0  0  0  0  0  0  0
   -5.1990    6.2100    0.0000 H   0  0  0  0  0  0  0  0  0  0  0  0
   -6.6762    4.9705    0.0000 H   0  0  0  0  0  0  0  0  0  0  0  0
   -5.7121    3.3005    0.0000 H   0  0  0  0  0  0  0  0  0  0  0  0
   -3.9000    3.9600    0.0000 N   0  0  0  0  0  0  0  0  0  0  0  0
   -2.6010    4.7100    0.0000 C   0  0  0  0  0  0  0  0  0  0  0  0
   -1.3019    3.9600    0.0000 H   0  0  0  0  0  0  0  0  0  0  0  0
   -3.5651    5.8591    0.0000 H   0  0  0  0  0  0  0  0  0  0  0  0
   -1.6368    5.8591    0.0000 H   0  0  0  0  0  0  0  0  0  0  0  0
   -3.9000    2.4600    0.0000 C   0  0  0  0  0  0  0  0  0  0  0  0
   -5.2000    1.7100    0.0000 C   0  0  0  0  0  0  0  0  0  0  0  0
   -6.4989    2.4602    0.0000 H   0  0  0  0  0  0  0  0  0  0  0  0
   -5.2000    0.2100    0.0000 C   0  0  0  0  0  0  0  0  0  0  0  0
   -6.4989   -0.5402    0.0000 H   0  0  0  0  0  0  0  0  0  0  0  0
   -3.9000   -0.5400    0.0000 C   0  0  0  0  0  0  0  0  0  0  0  0
   -2.6000    0.2100    0.0000 C   0  0  0  0  0  0  0  0  0  0  0  0
   -2.6000    1.7100    0.0000 C   0  0  0  0  0  0  0  0  0  0  0  0
   -1.3000    2.4600    0.0000 C   0  0  0  0  0  0  0  0  0  0  0  0
   -1.8123    1.0502    0.0000 H   0  0  0  0  0  0  0  0  0  0  0  0
   -2.2641    3.6092    0.0000 H   0  0  0  0  0  0  0  0  0  0  0  0
    0.0000    1.7100    0.0000 C   0  0  1  0  0  0  0  0  0  0  0  0
    0.0000    3.2100    0.0000 H   0  0  0  0  0  0  0  0  0  0  0  0
    1.3000    2.4600    0.0000 C   0  0  0  0  0  0  0  0  0  0  0  0
    0.7877    1.0502    0.0000 H   0  0  0  0  0  0  0  0  0  0  0  0
    0.5501    3.7591    0.0000 H   0  0  0  0  0  0  0  0  0  0  0  0
    2.6000    1.7100    0.0000 C   0  0  1  0  0  0  0  0  0  0  0  0
    2.6000    3.2100    0.0000 H   0  0  0  0  0  0  0  0  0  0  0  0
    3.9000    2.4600    0.0000 C   0  0  0  0  0  0  0  0  0  0  0  0
    3.9000    3.9600    0.0000 O   0  0  0  0  0  0  0  0  0  0  0  0
    5.2000    1.7100    0.0000 C   0  0  0  0  0  0  0  0  0  0  0  0
    5.2000    0.2100    0.0000 C   0  0  0  0  0  0  0  0  0  0  0  0
    3.9000   -0.5400    0.0000 C   0  0  0  0  0  0  0  0  0  0  0  0
    3.9000   -3.0000    0.0000 O   0  0  0  0  0  0  0  0  0  0  0  0
    2.6000    0.2100    0.0000 C   0  0  1  0  0  0  0  0  0  0  0  0
    1.3000   -0.5400    0.0000 C   0  0  0  0  0  0  0  0  0  0  0  0
    0.0000    0.2100    0.0000 C   0  0  0  0  0  0  0  0  0  0  0  0
   -1.3000   -0.5400    0.0000 C   0  0  0  0  0  0  0  0  0  0  0  0
   -1.3000   -2.0400    0.0000 O   0  0  0  0  0  0  0  0  0  0  0  0
    1.3000   -2.0400    0.0000 O   0  0  0  0  0  0  0  0  0  0  0  0
    2.5990   -2.7900    0.0000 H   0  0  0  0  0  0  0  0  0  0  0  0
    2.6000   -1.2900    0.0000 O   0  0  0  0  0  0  0  0  0  0  0  0
    3.8990   -2.0400    0.0000 H   0  0  0  0  0  0  0  0  0  0  0  0
    6.4989   -0.5402    0.0000 C   0  0  0  0  0  0  0  0  0  0  0  0
    7.7981    0.2096    0.0000 O   0  0  0  0  0  0  0  0  0  0  0  0
    6.4987   -2.0402    0.0000 N   0  0  0  0  0  0  0  0  0  0  0  0
    7.7976   -2.7904    0.0000 H   0  0  0  0  0  0  0  0  0  0  0  0
    5.1995   -2.7900    0.0000 H   0  0  0  0  0  0  0  0  0  0  0  0
    6.4989    2.4602    0.0000 O   0  0  0  0  0  0  0  0  0  0  0  0
    7.7981    1.7104    0.0000 H   0  0  0  0  0  0  0  0  0  0  0  0
   -3.9000   -2.0400    0.0000 O   0  0  0  0  0  0  0  0  0  0  0  0
   -5.1990   -2.7900    0.0000 H   0  0  0  0  0  0  0  0  0  0  0  0
  1  2  1  0  0  0  0 
  1  3  1  0  0  0  0 
  1  4  1  0  0  0  0 
  1  5  1  0  0  0  0 
  5  6  1  0  0  0  0 
  6  7  1  0  0  0  0 
  6  8  1  0  0  0  0 
  6  9  1  0  0  0  0 
  5 10  1  0  0  0  0 
 10 11  2  0  0  0  0 
 11 12  1  0  0  0  0 
 11 13  1  0  0  0  0 
 13 14  1  0  0  0  0 
 13 15  2  0  0  0  0 
 15 16  1  0  0  0  0 
 16 17  2  0  0  0  0 
 10 17  1  0  0  0  0 
 17 18  1  0  0  0  0 
 18 19  1  0  0  0  0 
 18 20  1  0  0  0  0 
 18 21  1  0  0  0  0 
 21 22  1  6  0  0  0 
 21 23  1  0  0  0  0 
 23 24  1  0  0  0  0 
 23 25  1  0  0  0  0 
 23 26  1  0  0  0  0 
 26 27  1  6  0  0  0 
 26 28  1  0  0  0  0 
 28 29  2  0  0  0  0 
 28 30  1  0  0  0  0 
 30 31  2  0  0  0  0 
 31 32  1  0  0  0  0 
 32 33  2  0  0  0  0 
 32 34  1  0  0  0  0 
 26 34  1  0  0  0  0 
 34 35  1  0  0  0  0 
 35 36  2  0  0  0  0 
 21 36  1  0  0  0  0 
 36 37  1  0  0  0  0 
 16 37  1  0  0  0  0 
 37 38  2  0  0  0  0 
 35 39  1  0  0  0  0 
 39 40  1  0  0  0  0 
 34 41  1  6  0  0  0 
 41 42  1  0  0  0  0 
 31 43  1  0  0  0  0 
 43 44  2  0  0  0  0 
 43 45  1  0  0  0  0 
 45 46  1  0  0  0  0 
 45 47  1  0  0  0  0 
 30 48  1  0  0  0  0 
 48 49  1  0  0  0  0 
 15 50  1  0  0  0  0 
 50 51  1  0  0  0  0 
M  END
> <Rank>
17

> <Priority_score>
0.096

> <Reaction_type>
N-dealkylation

> <Parent_ID>
31

> <Parent_InChI>
InChI=1S/C23H27N3O7/c1-25(2)12-5-6-13(27)15-10(12)7-9-8-11-17(26(3)4)19(29)16(22(24)32)21(31)23(11,33)20(30)14(9)18(15)28/h5-6,9,11,17,27,29-30,33H,7-8H2,1-4H3,(H2,24,32)

> <Parent_SMILES>
CN(C)c1ccc(O)c2c1C[C@H]1C[C@H]3[C@H](N(C)C)C(O)=C(C(N)=O)C(=O)[C@@]3(O)C(O)=C1C2=O

$$$$
Molecule 31_metabolite 19
  CDK     0516241031

 61 64  0  0  0  0  0  0  0  0999 V2000
   -4.7545    2.7765    0.0000 C   0  0  0  0  0  0  0  0  0  0  0  0
   -4.7545    4.2765    0.0000 H   0  0  0  0  0  0  0  0  0  0  0  0
   -6.2317    3.0370    0.0000 H   0  0  0  0  0  0  0  0  0  0  0  0
   -5.2675    1.3669    0.0000 H   0  0  0  0  0  0  0  0  0  0  0  0
   -3.4555    2.0265    0.0000 N   0  0  0  0  0  0  0  0  0  0  0  0
   -2.1564    2.7765    0.0000 C   0  0  0  0  0  0  0  0  0  0  0  0
   -0.8574    2.0265    0.0000 H   0  0  0  0  0  0  0  0  0  0  0  0
   -3.1206    3.9255    0.0000 H   0  0  0  0  0  0  0  0  0  0  0  0
   -1.1923    3.9255    0.0000 H   0  0  0  0  0  0  0  0  0  0  0  0
   -3.4555    0.5265    0.0000 C   0  0  0  0  0  0  0  0  0  0  0  0
   -4.7555   -0.2235    0.0000 C   0  0  0  0  0  0  0  0  0  0  0  0
   -6.0544    0.5267    0.0000 H   0  0  0  0  0  0  0  0  0  0  0  0
   -4.7555   -1.7235    0.0000 C   0  0  0  0  0  0  0  0  0  0  0  0
   -6.0544   -2.4737    0.0000 H   0  0  0  0  0  0  0  0  0  0  0  0
   -3.4555   -2.4735    0.0000 C   0  0  0  0  0  0  0  0  0  0  0  0
   -2.1555   -1.7235    0.0000 C   0  0  0  0  0  0  0  0  0  0  0  0
   -2.1555   -0.2235    0.0000 C   0  0  0  0  0  0  0  0  0  0  0  0
   -0.8655    0.5265    0.0000 C   0  0  0  0  0  0  0  0  0  0  0  0
   -1.3793   -0.8828    0.0000 H   0  0  0  0  0  0  0  0  0  0  0  0
   -1.8321    1.6735    0.0000 H   0  0  0  0  0  0  0  0  0  0  0  0
    0.4345   -0.2235    0.0000 C   0  0  1  0  0  0  0  0  0  0  0  0
    0.4345    1.2765    0.0000 H   0  0  0  0  0  0  0  0  0  0  0  0
    1.7345    0.5265    0.0000 C   0  0  0  0  0  0  0  0  0  0  0  0
    1.2222   -0.8833    0.0000 H   0  0  0  0  0  0  0  0  0  0  0  0
    1.2216    1.9361    0.0000 H   0  0  0  0  0  0  0  0  0  0  0  0
    3.0345   -0.2235    0.0000 C   0  0  1  0  0  0  0  0  0  0  0  0
    3.0345    1.2765    0.0000 H   0  0  0  0  0  0  0  0  0  0  0  0
    4.3345    0.5265    0.0000 C   0  0  1  0  0  0  0  0  0  0  0  0
    5.2986    1.6757    0.0000 H   0  0  0  0  0  0  0  0  0  0  0  0
    5.6345   -0.2235    0.0000 C   0  0  0  0  0  0  0  0  0  0  0  0
    5.6345   -1.7235    0.0000 C   0  0  0  0  0  0  0  0  0  0  0  0
    4.3345   -2.4735    0.0000 C   0  0  0  0  0  0  0  0  0  0  0  0
    4.3345   -4.9335    0.0000 O   0  0  0  0  0  0  0  0  0  0  0  0
    3.0345   -1.7235    0.0000 C   0  0  1  0  0  0  0  0  0  0  0  0
    1.7345   -2.4735    0.0000 C   0  0  0  0  0  0  0  0  0  0  0  0
    0.4345   -1.7235    0.0000 C   0  0  0  0  0  0  0  0  0  0  0  0
   -0.8655   -2.4735    0.0000 C   0  0  0  0  0  0  0  0  0  0  0  0
   -0.8680   -3.9735    0.0000 O   0  0  0  0  0  0  0  0  0  0  0  0
    1.7345   -3.9735    0.0000 O   0  0  0  0  0  0  0  0  0  0  0  0
    3.0336   -4.7235    0.0000 H   0  0  0  0  0  0  0  0  0  0  0  0
    3.0345   -3.2235    0.0000 O   0  0  0  0  0  0  0  0  0  0  0  0
    4.3336   -3.9735    0.0000 H   0  0  0  0  0  0  0  0  0  0  0  0
    6.9334   -2.4737    0.0000 C   0  0  0  0  0  0  0  0  0  0  0  0
    8.2326   -1.7239    0.0000 O   0  0  0  0  0  0  0  0  0  0  0  0
    6.9332   -3.9737    0.0000 N   0  0  0  0  0  0  0  0  0  0  0  0
    8.2321   -4.7239    0.0000 H   0  0  0  0  0  0  0  0  0  0  0  0
    5.6340   -4.7235    0.0000 H   0  0  0  0  0  0  0  0  0  0  0  0
    6.9334    0.5267    0.0000 O   0  0  0  0  0  0  0  0  0  0  0  0
    8.2326   -0.2231    0.0000 H   0  0  0  0  0  0  0  0  0  0  0  0
    3.3447    2.2413    0.0000 N   0  0  0  0  0  0  0  0  0  0  0  0
    4.5749    4.3716    0.0000 C   0  0  0  0  0  0  0  0  0  0  0  0
    3.8251    5.6707    0.0000 H   0  0  0  0  0  0  0  0  0  0  0  0
    5.7241    5.3357    0.0000 H   0  0  0  0  0  0  0  0  0  0  0  0
    5.7239    3.4073    0.0000 H   0  0  0  0  0  0  0  0  0  0  0  0
    1.0927    4.1314    0.0000 C   0  0  0  0  0  0  0  0  0  0  0  0
    1.3534    5.6085    0.0000 H   0  0  0  0  0  0  0  0  0  0  0  0
   -0.3167    4.6445    0.0000 H   0  0  0  0  0  0  0  0  0  0  0  0
    0.3426    2.8324    0.0000 H   0  0  0  0  0  0  0  0  0  0  0  0
    2.1955    1.2773    0.0000 O   0  0  0  0  0  0  0  0  0  0  0  0
   -3.4555   -3.9735    0.0000 O   0  0  0  0  0  0  0  0  0  0  0  0
   -4.7545   -4.7235    0.0000 H   0  0  0  0  0  0  0  0  0  0  0  0
  1  2  1  0  0  0  0 
  1  3  1  0  0  0  0 
  1  4  1  0  0  0  0 
  1  5  1  0  0  0  0 
  5  6  1  0  0  0  0 
  6  7  1  0  0  0  0 
  6  8  1  0  0  0  0 
  6  9  1  0  0  0  0 
  5 10  1  0  0  0  0 
 10 11  2  0  0  0  0 
 11 12  1  0  0  0  0 
 11 13  1  0  0  0  0 
 13 14  1  0  0  0  0 
 13 15  2  0  0  0  0 
 15 16  1  0  0  0  0 
 16 17  2  0  0  0  0 
 10 17  1  0  0  0  0 
 17 18  1  0  0  0  0 
 18 19  1  0  0  0  0 
 18 20  1  0  0  0  0 
 18 21  1  0  0  0  0 
 21 22  1  6  0  0  0 
 21 23  1  0  0  0  0 
 23 24  1  0  0  0  0 
 23 25  1  0  0  0  0 
 23 26  1  0  0  0  0 
 26 27  1  6  0  0  0 
 26 28  1  0  0  0  0 
 28 29  1  1  0  0  0 
 28 30  1  0  0  0  0 
 30 31  2  0  0  0  0 
 31 32  1  0  0  0  0 
 32 33  2  0  0  0  0 
 32 34  1  0  0  0  0 
 26 34  1  0  0  0  0 
 34 35  1  0  0  0  0 
 35 36  2  0  0  0  0 
 21 36  1  0  0  0  0 
 36 37  1  0  0  0  0 
 16 37  1  0  0  0  0 
 37 38  2  0  0  0  0 
 35 39  1  0  0  0  0 
 39 40  1  0  0  0  0 
 34 41  1  6  0  0  0 
 41 42  1  0  0  0  0 
 31 43  1  0  0  0  0 
 43 44  2  0  0  0  0 
 43 45  1  0  0  0  0 
 45 46  1  0  0  0  0 
 45 47  1  0  0  0  0 
 30 48  1  0  0  0  0 
 48 49  1  0  0  0  0 
 28 50  1  6  0  0  0 
 50 51  1  0  0  0  0 
 51 52  1  0  0  0  0 
 51 53  1  0  0  0  0 
 51 54  1  0  0  0  0 
 50 55  1  0  0  0  0 
 55 56  1  0  0  0  0 
 55 57  1  0  0  0  0 
 55 58  1  0  0  0  0 
 50 59  1  0  0  0  0 
 15 60  1  0  0  0  0 
 60 61  1  0  0  0  0 
M  CHG  1  50   1
M  CHG  1  59  -1
M  END
> <Rank>
17

> <Priority_score>
0.096

> <Reaction_type>
N-oxidation_(RN(CH3)2)

> <Parent_ID>
31

> <Parent_InChI>
InChI=1S/C23H27N3O7/c1-25(2)12-5-6-13(27)15-10(12)7-9-8-11-17(26(3)4)19(29)16(22(24)32)21(31)23(11,33)20(30)14(9)18(15)28/h5-6,9,11,17,27,29-30,33H,7-8H2,1-4H3,(H2,24,32)

> <Parent_SMILES>
CN(C)c1ccc(O)c2c1C[C@H]1C[C@H]3[C@H](N(C)C)C(O)=C(C(N)=O)C(=O)[C@@]3(O)C(O)=C1C2=O

$$$$
Molecule 31_metabolite 20
  CDK     0516241031

 61 65  0  0  0  0  0  0  0  0999 V2000
   -6.5130    5.4200    0.0000 C   0  0  0  0  0  0  0  0  0  0  0  0
   -7.8121    4.6700    0.0000 H   0  0  0  0  0  0  0  0  0  0  0  0
   -5.5488    6.5691    0.0000 H   0  0  0  0  0  0  0  0  0  0  0  0
   -7.4772    6.5691    0.0000 H   0  0  0  0  0  0  0  0  0  0  0  0
   -5.2140    4.6700    0.0000 N   0  0  0  0  0  0  0  0  0  0  0  0
   -5.2140    3.1700    0.0000 C   0  0  0  0  0  0  0  0  0  0  0  0
   -3.9149    2.4200    0.0000 H   0  0  0  0  0  0  0  0  0  0  0  0
   -5.7270    1.7605    0.0000 H   0  0  0  0  0  0  0  0  0  0  0  0
   -6.6912    3.4305    0.0000 H   0  0  0  0  0  0  0  0  0  0  0  0
   -3.9149    5.4200    0.0000 C   0  0  0  0  0  0  0  0  0  0  0  0
   -3.9149    6.9200    0.0000 C   0  0  0  0  0  0  0  0  0  0  0  0
   -5.2140    7.6700    0.0000 H   0  0  0  0  0  0  0  0  0  0  0  0
   -2.6159    7.6700    0.0000 C   0  0  0  0  0  0  0  0  0  0  0  0
   -2.6159    9.1700    0.0000 H   0  0  0  0  0  0  0  0  0  0  0  0
   -1.3169    6.9200    0.0000 C   0  0  0  0  0  0  0  0  0  0  0  0
   -1.3169    5.4200    0.0000 C   0  0  0  0  0  0  0  0  0  0  0  0
   -2.6159    4.6700    0.0000 C   0  0  0  0  0  0  0  0  0  0  0  0
   -2.6159    3.1700    0.0000 C   0  0  0  0  0  0  0  0  0  0  0  0
   -4.0931    3.4305    0.0000 H   0  0  0  0  0  0  0  0  0  0  0  0
   -3.6214    0.4073    0.0000 H   0  0  0  0  0  0  0  0  0  0  0  0
   -1.3169    2.4200    0.0000 C   0  0  1  0  0  0  0  0  0  0  0  0
   -0.0178    1.6700    0.0000 H   0  0  0  0  0  0  0  0  0  0  0  0
   -1.3169    0.9200    0.0000 C   0  0  0  0  0  0  0  0  0  0  0  0
   -2.7941    1.1805    0.0000 H   0  0  0  0  0  0  0  0  0  0  0  0
   -1.8299   -0.4895    0.0000 H   0  0  0  0  0  0  0  0  0  0  0  0
   -0.0178    0.1700    0.0000 C   0  0  1  0  0  0  0  0  0  0  0  0
    1.2812   -0.5800    0.0000 H   0  0  0  0  0  0  0  0  0  0  0  0
   -0.0178   -1.3300    0.0000 C   0  0  1  0  0  0  0  0  0  0  0  0
   -1.4950   -1.0695    0.0000 H   0  0  0  0  0  0  0  0  0  0  0  0
    1.2812   -2.0800    0.0000 C   0  0  0  0  0  0  0  0  0  0  0  0
    2.5802   -1.3300    0.0000 C   0  0  0  0  0  0  0  0  0  0  0  0
    2.5802    0.1700    0.0000 C   0  0  0  0  0  0  0  0  0  0  0  0
    3.8793    0.9200    0.0000 O   0  0  0  0  0  0  0  0  0  0  0  0
    1.2812    0.9200    0.0000 C   0  0  1  0  0  0  0  0  0  0  0  0
    1.2812    2.4200    0.0000 C   0  0  0  0  0  0  0  0  0  0  0  0
   -0.0178    3.1700    0.0000 C   0  0  0  0  0  0  0  0  0  0  0  0
   -0.0178    4.6700    0.0000 C   0  0  0  0  0  0  0  0  0  0  0  0
    1.2812    5.4200    0.0000 O   0  0  0  0  0  0  0  0  0  0  0  0
    2.5802    3.1700    0.0000 O   0  0  0  0  0  0  0  0  0  0  0  0
    3.8793    2.4200    0.0000 H   0  0  0  0  0  0  0  0  0  0  0  0
    2.9959    1.9100    0.0000 O   0  0  0  0  0  0  0  0  0  0  0  0
    4.7107    0.9200    0.0000 H   0  0  0  0  0  0  0  0  0  0  0  0
    4.0802   -1.3300    0.0000 C   0  0  0  0  0  0  0  0  0  0  0  0
    4.8302   -0.0310    0.0000 O   0  0  0  0  0  0  0  0  0  0  0  0
    4.8302   -2.6290    0.0000 N   0  0  0  0  0  0  0  0  0  0  0  0
    6.3302   -2.6290    0.0000 H   0  0  0  0  0  0  0  0  0  0  0  0
    4.0802   -3.9281    0.0000 H   0  0  0  0  0  0  0  0  0  0  0  0
    2.5802   -2.8300    0.0000 O   0  0  0  0  0  0  0  0  0  0  0  0
    0.5312   -3.3790    0.0000 O   0  0  0  0  0  0  0  0  0  0  0  0
    1.7612   -5.5095    0.0000 H   0  0  0  0  0  0  0  0  0  0  0  0
   -0.8592   -3.6416    0.0000 N   0  0  0  0  0  0  0  0  0  0  0  0
    0.1050   -4.7907    0.0000 C   0  0  0  0  0  0  0  0  0  0  0  0
    1.5822   -4.5302    0.0000 H   0  0  0  0  0  0  0  0  0  0  0  0
    0.6180   -6.2003    0.0000 H   0  0  0  0  0  0  0  0  0  0  0  0
   -1.1941   -5.5407    0.0000 H   0  0  0  0  0  0  0  0  0  0  0  0
   -2.8091   -3.9855    0.0000 C   0  0  0  0  0  0  0  0  0  0  0  0
   -3.7733   -2.8364    0.0000 H   0  0  0  0  0  0  0  0  0  0  0  0
   -2.2961   -5.3950    0.0000 H   0  0  0  0  0  0  0  0  0  0  0  0
   -4.1082   -4.7355    0.0000 H   0  0  0  0  0  0  0  0  0  0  0  0
   -0.0178    7.6700    0.0000 O   0  0  0  0  0  0  0  0  0  0  0  0
   -0.0178    9.1700    0.0000 H   0  0  0  0  0  0  0  0  0  0  0  0
  1  2  1  0  0  0  0 
  1  3  1  0  0  0  0 
  1  4  1  0  0  0  0 
  1  5  1  0  0  0  0 
  5  6  1  0  0  0  0 
  6  7  1  0  0  0  0 
  6  8  1  0  0  0  0 
  6  9  1  0  0  0  0 
  5 10  1  0  0  0  0 
 10 11  2  0  0  0  0 
 11 12  1  0  0  0  0 
 11 13  1  0  0  0  0 
 13 14  1  0  0  0  0 
 13 15  2  0  0  0  0 
 15 16  1  0  0  0  0 
 16 17  2  0  0  0  0 
 10 17  1  0  0  0  0 
 17 18  1  0  0  0  0 
 18 19  1  0  0  0  0 
 18 20  1  0  0  0  0 
 18 21  1  0  0  0  0 
 21 22  1  1  0  0  0 
 21 23  1  0  0  0  0 
 23 24  1  0  0  0  0 
 23 25  1  0  0  0  0 
 23 26  1  0  0  0  0 
 26 27  1  1  0  0  0 
 26 28  1  0  0  0  0 
 28 29  1  6  0  0  0 
 28 30  1  0  0  0  0 
 30 31  1  0  0  0  0 
 31 32  1  0  0  0  0 
 32 33  2  0  0  0  0 
 32 34  1  0  0  0  0 
 26 34  1  0  0  0  0 
 34 35  1  0  0  0  0 
 35 36  2  0  0  0  0 
 21 36  1  0  0  0  0 
 36 37  1  0  0  0  0 
 16 37  1  0  0  0  0 
 37 38  2  0  0  0  0 
 35 39  1  0  0  0  0 
 39 40  1  0  0  0  0 
 34 41  1  1  0  0  0 
 41 42  1  0  0  0  0 
 31 43  1  0  0  0  0 
 43 44  2  0  0  0  0 
 43 45  1  0  0  0  0 
 45 46  1  0  0  0  0 
 45 47  1  0  0  0  0 
 31 48  1  0  0  0  0 
 30 48  1  0  0  0  0 
 30 49  1  0  0  0  0 
 49 50  1  0  0  0  0 
 28 51  1  1  0  0  0 
 51 52  1  0  0  0  0 
 52 53  1  0  0  0  0 
 52 54  1  0  0  0  0 
 52 55  1  0  0  0  0 
 51 56  1  0  0  0  0 
 56 57  1  0  0  0  0 
 56 58  1  0  0  0  0 
 56 59  1  0  0  0  0 
 15 60  1  0  0  0  0 
 60 61  1  0  0  0  0 
M  END
> <Rank>
17

> <Priority_score>
0.096

> <Reaction_type>
epoxidation

> <Parent_ID>
31

> <Parent_InChI>
InChI=1S/C23H27N3O7/c1-25(2)12-5-6-13(27)15-10(12)7-9-8-11-17(26(3)4)19(29)16(22(24)32)21(31)23(11,33)20(30)14(9)18(15)28/h5-6,9,11,17,27,29-30,33H,7-8H2,1-4H3,(H2,24,32)

> <Parent_SMILES>
CN(C)c1ccc(O)c2c1C[C@H]1C[C@H]3[C@H](N(C)C)C(O)=C(C(N)=O)C(=O)[C@@]3(O)C(O)=C1C2=O

$$$$
Molecule 31_metabolite 21
  CDK     0516241031

 61 64  0  0  0  0  0  0  0  0999 V2000
   -6.3189    0.8969    0.0000 C   0  0  0  0  0  0  0  0  0  0  0  0
   -6.3189    2.3969    0.0000 H   0  0  0  0  0  0  0  0  0  0  0  0
   -7.7961    1.1573    0.0000 H   0  0  0  0  0  0  0  0  0  0  0  0
   -6.8319   -0.5127    0.0000 H   0  0  0  0  0  0  0  0  0  0  0  0
   -5.0199    0.1469    0.0000 N   0  0  0  0  0  0  0  0  0  0  0  0
   -3.7208    0.8969    0.0000 C   0  0  0  0  0  0  0  0  0  0  0  0
   -2.4218    0.1469    0.0000 H   0  0  0  0  0  0  0  0  0  0  0  0
   -4.6850    2.0459    0.0000 H   0  0  0  0  0  0  0  0  0  0  0  0
   -2.7566    2.0459    0.0000 H   0  0  0  0  0  0  0  0  0  0  0  0
   -5.0199   -1.3531    0.0000 C   0  0  0  0  0  0  0  0  0  0  0  0
   -6.3199   -2.1031    0.0000 C   0  0  0  0  0  0  0  0  0  0  0  0
   -7.6188   -1.3529    0.0000 H   0  0  0  0  0  0  0  0  0  0  0  0
   -6.3199   -3.6031    0.0000 C   0  0  0  0  0  0  0  0  0  0  0  0
   -7.6188   -4.3533    0.0000 H   0  0  0  0  0  0  0  0  0  0  0  0
   -5.0199   -4.3531    0.0000 C   0  0  0  0  0  0  0  0  0  0  0  0
   -3.7199   -3.6031    0.0000 C   0  0  0  0  0  0  0  0  0  0  0  0
   -3.7199   -2.1031    0.0000 C   0  0  0  0  0  0  0  0  0  0  0  0
   -2.4199   -1.3531    0.0000 C   0  0  0  0  0  0  0  0  0  0  0  0
   -2.9321   -2.7630    0.0000 H   0  0  0  0  0  0  0  0  0  0  0  0
   -3.3839   -0.2040    0.0000 H   0  0  0  0  0  0  0  0  0  0  0  0
   -1.1199   -2.1031    0.0000 C   0  0  1  0  0  0  0  0  0  0  0  0
   -1.1199    0.3569    0.0000 H   0  0  0  0  0  0  0  0  0  0  0  0
    0.1801   -1.3531    0.0000 C   0  0  0  0  0  0  0  0  0  0  0  0
   -0.3321   -2.7630    0.0000 H   0  0  0  0  0  0  0  0  0  0  0  0
   -0.3327    0.0565    0.0000 H   0  0  0  0  0  0  0  0  0  0  0  0
    1.4801   -2.1031    0.0000 C   0  0  2  0  0  0  0  0  0  0  0  0
    1.4801   -0.6031    0.0000 H   0  0  0  0  0  0  0  0  0  0  0  0
    1.4801   -3.6031    0.0000 C   0  0  2  0  0  0  0  0  0  0  0  0
    0.1801   -4.3531    0.0000 C   0  0  0  0  0  0  0  0  0  0  0  0
   -1.1199   -3.6031    0.0000 C   0  0  0  0  0  0  0  0  0  0  0  0
   -2.4199   -4.3531    0.0000 C   0  0  0  0  0  0  0  0  0  0  0  0
   -2.4199   -5.8531    0.0000 O   0  0  0  0  0  0  0  0  0  0  0  0
    0.1801   -5.8531    0.0000 O   0  0  0  0  0  0  0  0  0  0  0  0
    1.4792   -6.6031    0.0000 H   0  0  0  0  0  0  0  0  0  0  0  0
    2.7801   -4.3531    0.0000 C   0  0  0  0  0  0  0  0  0  0  0  0
    2.7801   -6.8131    0.0000 O   0  0  0  0  0  0  0  0  0  0  0  0
    4.0801   -3.6031    0.0000 C   0  0  0  0  0  0  0  0  0  0  0  0
    4.0801   -2.1031    0.0000 C   0  0  0  0  0  0  0  0  0  0  0  0
    2.7801   -1.3531    0.0000 C   0  0  1  0  0  0  0  0  0  0  0  0
    4.6697    0.8992    0.0000 N   0  0  0  0  0  0  0  0  0  0  0  0
    6.1469    0.6389    0.0000 C   0  0  0  0  0  0  0  0  0  0  0  0
    7.1110    1.7881    0.0000 H   0  0  0  0  0  0  0  0  0  0  0  0
    5.6340   -0.7707    0.0000 H   0  0  0  0  0  0  0  0  0  0  0  0
    7.4460   -0.1109    0.0000 H   0  0  0  0  0  0  0  0  0  0  0  0
    3.8281    3.2108    0.0000 C   0  0  0  0  0  0  0  0  0  0  0  0
    2.3508    3.4711    0.0000 H   0  0  0  0  0  0  0  0  0  0  0  0
    3.8279    4.7108    0.0000 H   0  0  0  0  0  0  0  0  0  0  0  0
    5.3053    3.4714    0.0000 H   0  0  0  0  0  0  0  0  0  0  0  0
    1.5076    0.1638    0.0000 O   0  0  0  0  0  0  0  0  0  0  0  0
    2.0208    1.5732    0.0000 H   0  0  0  0  0  0  0  0  0  0  0  0
    6.3916   -1.2614    0.0000 O   0  0  0  0  0  0  0  0  0  0  0  0
    7.5409   -2.2254    0.0000 H   0  0  0  0  0  0  0  0  0  0  0  0
    5.3790   -4.3533    0.0000 C   0  0  0  0  0  0  0  0  0  0  0  0
    6.6782   -3.6036    0.0000 O   0  0  0  0  0  0  0  0  0  0  0  0
    5.3788   -5.8533    0.0000 N   0  0  0  0  0  0  0  0  0  0  0  0
    6.6777   -6.6036    0.0000 H   0  0  0  0  0  0  0  0  0  0  0  0
    4.0796   -6.6031    0.0000 H   0  0  0  0  0  0  0  0  0  0  0  0
    1.4801   -5.1031    0.0000 O   0  0  0  0  0  0  0  0  0  0  0  0
    2.7792   -5.8531    0.0000 H   0  0  0  0  0  0  0  0  0  0  0  0
   -5.0199   -5.8531    0.0000 O   0  0  0  0  0  0  0  0  0  0  0  0
   -6.3189   -6.6031    0.0000 H   0  0  0  0  0  0  0  0  0  0  0  0
  1  2  1  0  0  0  0 
  1  3  1  0  0  0  0 
  1  4  1  0  0  0  0 
  1  5  1  0  0  0  0 
  5  6  1  0  0  0  0 
  6  7  1  0  0  0  0 
  6  8  1  0  0  0  0 
  6  9  1  0  0  0  0 
  5 10  1  0  0  0  0 
 10 11  2  0  0  0  0 
 11 12  1  0  0  0  0 
 11 13  1  0  0  0  0 
 13 14  1  0  0  0  0 
 13 15  2  0  0  0  0 
 15 16  1  0  0  0  0 
 16 17  2  0  0  0  0 
 10 17  1  0  0  0  0 
 17 18  1  0  0  0  0 
 18 19  1  0  0  0  0 
 18 20  1  0  0  0  0 
 18 21  1  0  0  0  0 
 21 22  1  6  0  0  0 
 21 23  1  0  0  0  0 
 23 24  1  0  0  0  0 
 23 25  1  0  0  0  0 
 23 26  1  0  0  0  0 
 26 27  1  6  0  0  0 
 26 28  1  0  0  0  0 
 28 29  1  0  0  0  0 
 29 30  2  0  0  0  0 
 21 30  1  0  0  0  0 
 30 31  1  0  0  0  0 
 16 31  1  0  0  0  0 
 31 32  2  0  0  0  0 
 29 33  1  0  0  0  0 
 33 34  1  0  0  0  0 
 28 35  1  0  0  0  0 
 35 36  2  0  0  0  0 
 35 37  1  0  0  0  0 
 37 38  2  0  0  0  0 
 38 39  1  0  0  0  0 
 26 39  1  0  0  0  0 
 39 40  1  6  0  0  0 
 40 41  1  0  0  0  0 
 41 42  1  0  0  0  0 
 41 43  1  0  0  0  0 
 41 44  1  0  0  0  0 
 40 45  1  0  0  0  0 
 45 46  1  0  0  0  0 
 45 47  1  0  0  0  0 
 45 48  1  0  0  0  0 
 39 49  1  1  0  0  0 
 49 50  1  0  0  0  0 
 38 51  1  0  0  0  0 
 51 52  1  0  0  0  0 
 37 53  1  0  0  0  0 
 53 54  2  0  0  0  0 
 53 55  1  0  0  0  0 
 55 56  1  0  0  0  0 
 55 57  1  0  0  0  0 
 28 58  1  6  0  0  0 
 58 59  1  0  0  0  0 
 15 60  1  0  0  0  0 
 60 61  1  0  0  0  0 
M  END
> <Rank>
17

> <Priority_score>
0.096

> <Reaction_type>
aliphatic_hydroxylation_(tert_carbon_next_to_SP2)

> <Parent_ID>
31

> <Parent_InChI>
InChI=1S/C23H27N3O7/c1-25(2)12-5-6-13(27)15-10(12)7-9-8-11-17(26(3)4)19(29)16(22(24)32)21(31)23(11,33)20(30)14(9)18(15)28/h5-6,9,11,17,27,29-30,33H,7-8H2,1-4H3,(H2,24,32)

> <Parent_SMILES>
CN(C)c1ccc(O)c2c1C[C@H]1C[C@H]3[C@H](N(C)C)C(O)=C(C(N)=O)C(=O)[C@@]3(O)C(O)=C1C2=O

$$$$
Molecule 31_metabolite 22
  CDK     0516241031

 10  9  0  0  0  0  0  0  0  0999 V2000
    2.7109   -0.6849    0.0000 C   0  0  0  0  0  0  0  0  0  0  0  0
    1.4118   -1.4349    0.0000 H   0  0  0  0  0  0  0  0  0  0  0  0
    3.2239   -2.0944    0.0000 H   0  0  0  0  0  0  0  0  0  0  0  0
    4.1881   -0.4244    0.0000 H   0  0  0  0  0  0  0  0  0  0  0  0
    2.7109    0.8151    0.0000 N   0  0  0  0  0  0  0  0  0  0  0  0
    4.0099    1.5651    0.0000 H   0  0  0  0  0  0  0  0  0  0  0  0
    1.4118    1.5651    0.0000 C   0  0  0  0  0  0  0  0  0  0  0  0
    1.4118    3.0651    0.0000 H   0  0  0  0  0  0  0  0  0  0  0  0
    0.8988    0.1556    0.0000 H   0  0  0  0  0  0  0  0  0  0  0  0
   -0.0654    1.8256    0.0000 H   0  0  0  0  0  0  0  0  0  0  0  0
  1  2  1  0  0  0  0 
  1  3  1  0  0  0  0 
  1  4  1  0  0  0  0 
  1  5  1  0  0  0  0 
  5  6  1  0  0  0  0 
  5  7  1  0  0  0  0 
  7  8  1  0  0  0  0 
  7  9  1  0  0  0  0 
  7 10  1  0  0  0  0 
M  END
> <Rank>
17

> <Priority_score>
0.096

> <Reaction_type>
N-dealkylation

> <Parent_ID>
31

> <Parent_InChI>
InChI=1S/C23H27N3O7/c1-25(2)12-5-6-13(27)15-10(12)7-9-8-11-17(26(3)4)19(29)16(22(24)32)21(31)23(11,33)20(30)14(9)18(15)28/h5-6,9,11,17,27,29-30,33H,7-8H2,1-4H3,(H2,24,32)

> <Parent_SMILES>
CN(C)c1ccc(O)c2c1C[C@H]1C[C@H]3[C@H](N(C)C)C(O)=C(C(N)=O)C(=O)[C@@]3(O)C(O)=C1C2=O

$$$$
Molecule 31_metabolite 23
  CDK     0516241031

 61 64  0  0  0  0  0  0  0  0999 V2000
   -6.0412    4.3805    0.0000 C   0  0  0  0  0  0  0  0  0  0  0  0
   -6.0412    5.8805    0.0000 H   0  0  0  0  0  0  0  0  0  0  0  0
   -7.5184    4.6410    0.0000 H   0  0  0  0  0  0  0  0  0  0  0  0
   -6.5543    2.9709    0.0000 H   0  0  0  0  0  0  0  0  0  0  0  0
   -4.7422    3.6305    0.0000 N   0  0  0  0  0  0  0  0  0  0  0  0
   -3.4432    4.3805    0.0000 C   0  0  0  0  0  0  0  0  0  0  0  0
   -2.1441    3.6305    0.0000 H   0  0  0  0  0  0  0  0  0  0  0  0
   -4.4073    5.5296    0.0000 H   0  0  0  0  0  0  0  0  0  0  0  0
   -2.4790    5.5296    0.0000 H   0  0  0  0  0  0  0  0  0  0  0  0
   -4.7422    2.1305    0.0000 C   0  0  0  0  0  0  0  0  0  0  0  0
   -6.0422    1.3805    0.0000 C   0  0  0  0  0  0  0  0  0  0  0  0
   -7.3411    2.1307    0.0000 H   0  0  0  0  0  0  0  0  0  0  0  0
   -6.0422   -0.1195    0.0000 C   0  0  0  0  0  0  0  0  0  0  0  0
   -7.3411   -0.8697    0.0000 H   0  0  0  0  0  0  0  0  0  0  0  0
   -4.7422   -0.8695    0.0000 C   0  0  0  0  0  0  0  0  0  0  0  0
   -3.4422   -0.1195    0.0000 C   0  0  0  0  0  0  0  0  0  0  0  0
   -3.4422    1.3805    0.0000 C   0  0  0  0  0  0  0  0  0  0  0  0
   -2.1422    2.1305    0.0000 C   0  0  0  0  0  0  0  0  0  0  0  0
   -1.1781    3.2797    0.0000 H   0  0  0  0  0  0  0  0  0  0  0  0
   -3.1063    3.2797    0.0000 H   0  0  0  0  0  0  0  0  0  0  0  0
   -0.8422    1.3805    0.0000 C   0  0  0  0  0  0  0  0  0  0  0  0
   -0.8422   -0.1195    0.0000 C   0  0  0  0  0  0  0  0  0  0  0  0
   -2.1422   -0.8695    0.0000 C   0  0  0  0  0  0  0  0  0  0  0  0
   -2.1422   -2.3695    0.0000 O   0  0  0  0  0  0  0  0  0  0  0  0
    0.4578   -0.8695    0.0000 C   0  0  0  0  0  0  0  0  0  0  0  0
    1.7578   -0.1195    0.0000 C   0  0  1  0  0  0  0  0  0  0  0  0
    1.7578    1.3805    0.0000 C   0  0  1  0  0  0  0  0  0  0  0  0
    0.4592    0.6297    0.0000 H   0  0  0  0  0  0  0  0  0  0  0  0
    0.4578    2.1305    0.0000 C   0  0  0  0  0  0  0  0  0  0  0  0
    1.4219    3.2797    0.0000 H   0  0  0  0  0  0  0  0  0  0  0  0
   -0.5063    3.2797    0.0000 H   0  0  0  0  0  0  0  0  0  0  0  0
    3.0578    2.1305    0.0000 C   0  0  1  0  0  0  0  0  0  0  0  0
    4.0219    3.2797    0.0000 H   0  0  0  0  0  0  0  0  0  0  0  0
    4.3578    1.3805    0.0000 C   0  0  0  0  0  0  0  0  0  0  0  0
    4.3578   -0.1195    0.0000 C   0  0  0  0  0  0  0  0  0  0  0  0
    3.0578   -0.8695    0.0000 C   0  0  0  0  0  0  0  0  0  0  0  0
    3.0578   -2.3695    0.0000 O   0  0  0  0  0  0  0  0  0  0  0  0
    5.6567   -0.8697    0.0000 C   0  0  0  0  0  0  0  0  0  0  0  0
    6.9559   -0.1199    0.0000 O   0  0  0  0  0  0  0  0  0  0  0  0
    5.6565   -2.3697    0.0000 N   0  0  0  0  0  0  0  0  0  0  0  0
    6.9554   -3.1199    0.0000 H   0  0  0  0  0  0  0  0  0  0  0  0
    4.3573   -3.1195    0.0000 H   0  0  0  0  0  0  0  0  0  0  0  0
    5.6567    2.1307    0.0000 O   0  0  0  0  0  0  0  0  0  0  0  0
    6.9559    1.3809    0.0000 H   0  0  0  0  0  0  0  0  0  0  0  0
    2.7142    4.0804    0.0000 N   0  0  0  0  0  0  0  0  0  0  0  0
    3.8634    5.0445    0.0000 C   0  0  0  0  0  0  0  0  0  0  0  0
    5.2728    4.5313    0.0000 H   0  0  0  0  0  0  0  0  0  0  0  0
    4.6135    6.3435    0.0000 H   0  0  0  0  0  0  0  0  0  0  0  0
    2.7144    6.0088    0.0000 H   0  0  0  0  0  0  0  0  0  0  0  0
    1.7501    5.2296    0.0000 C   0  0  0  0  0  0  0  0  0  0  0  0
    2.2633    6.6391    0.0000 H   0  0  0  0  0  0  0  0  0  0  0  0
    0.4512    5.9798    0.0000 H   0  0  0  0  0  0  0  0  0  0  0  0
    0.7858    4.0806    0.0000 H   0  0  0  0  0  0  0  0  0  0  0  0
    1.7578   -1.6195    0.0000 O   0  0  0  0  0  0  0  0  0  0  0  0
    0.4588   -2.3695    0.0000 H   0  0  0  0  0  0  0  0  0  0  0  0
   -0.5063   -2.0187    0.0000 O   0  0  0  0  0  0  0  0  0  0  0  0
    0.0069   -3.4282    0.0000 H   0  0  0  0  0  0  0  0  0  0  0  0
    2.3474   -3.1219    0.0000 O   0  0  0  0  0  0  0  0  0  0  0  0
    1.8342   -4.5314    0.0000 H   0  0  0  0  0  0  0  0  0  0  0  0
   -4.7422   -2.3695    0.0000 O   0  0  0  0  0  0  0  0  0  0  0  0
   -6.0412   -3.1195    0.0000 H   0  0  0  0  0  0  0  0  0  0  0  0
  1  2  1  0  0  0  0 
  1  3  1  0  0  0  0 
  1  4  1  0  0  0  0 
  1  5  1  0  0  0  0 
  5  6  1  0  0  0  0 
  6  7  1  0  0  0  0 
  6  8  1  0  0  0  0 
  6  9  1  0  0  0  0 
  5 10  1  0  0  0  0 
 10 11  2  0  0  0  0 
 11 12  1  0  0  0  0 
 11 13  1  0  0  0  0 
 13 14  1  0  0  0  0 
 13 15  2  0  0  0  0 
 15 16  1  0  0  0  0 
 16 17  2  0  0  0  0 
 10 17  1  0  0  0  0 
 17 18  1  0  0  0  0 
 18 19  1  0  0  0  0 
 18 20  1  0  0  0  0 
 18 21  1  0  0  0  0 
 21 22  2  0  0  0  0 
 22 23  1  0  0  0  0 
 16 23  1  0  0  0  0 
 23 24  2  0  0  0  0 
 22 25  1  0  0  0  0 
 25 26  1  0  0  0  0 
 26 27  1  0  0  0  0 
 27 28  1  6  0  0  0 
 27 29  1  0  0  0  0 
 21 29  1  0  0  0  0 
 29 30  1  0  0  0  0 
 29 31  1  0  0  0  0 
 27 32  1  0  0  0  0 
 32 33  1  1  0  0  0 
 32 34  1  0  0  0  0 
 34 35  2  0  0  0  0 
 35 36  1  0  0  0  0 
 26 36  1  0  0  0  0 
 36 37  2  0  0  0  0 
 35 38  1  0  0  0  0 
 38 39  2  0  0  0  0 
 38 40  1  0  0  0  0 
 40 41  1  0  0  0  0 
 40 42  1  0  0  0  0 
 34 43  1  0  0  0  0 
 43 44  1  0  0  0  0 
 32 45  1  6  0  0  0 
 45 46  1  0  0  0  0 
 46 47  1  0  0  0  0 
 46 48  1  0  0  0  0 
 46 49  1  0  0  0  0 
 45 50  1  0  0  0  0 
 50 51  1  0  0  0  0 
 50 52  1  0  0  0  0 
 50 53  1  0  0  0  0 
 26 54  1  6  0  0  0 
 54 55  1  0  0  0  0 
 25 56  1  0  0  0  0 
 56 57  1  0  0  0  0 
 25 58  1  0  0  0  0 
 58 59  1  0  0  0  0 
 15 60  1  0  0  0  0 
 60 61  1  0  0  0  0 
M  END
> <Rank>
23

> <Priority_score>
0.09040000000000001

> <Reaction_type>
aliphatic hydroxylation with allylic rearrangement 1

> <Parent_ID>
31

> <Parent_InChI>
InChI=1S/C23H27N3O7/c1-25(2)12-5-6-13(27)15-10(12)7-9-8-11-17(26(3)4)19(29)16(22(24)32)21(31)23(11,33)20(30)14(9)18(15)28/h5-6,9,11,17,27,29-30,33H,7-8H2,1-4H3,(H2,24,32)

> <Parent_SMILES>
CN(C)c1ccc(O)c2c1C[C@H]1C[C@H]3[C@H](N(C)C)C(O)=C(C(N)=O)C(=O)[C@@]3(O)C(O)=C1C2=O

$$$$
Molecule 31_metabolite 24
  CDK     0516241031

 64 67  0  0  0  0  0  0  0  0999 V2000
   -5.6857    3.5873    0.0000 C   0  0  0  0  0  0  0  0  0  0  0  0
   -5.6857    5.0873    0.0000 H   0  0  0  0  0  0  0  0  0  0  0  0
   -7.1629    3.8478    0.0000 H   0  0  0  0  0  0  0  0  0  0  0  0
   -6.1988    2.1777    0.0000 H   0  0  0  0  0  0  0  0  0  0  0  0
   -4.3867    2.8373    0.0000 N   0  0  0  0  0  0  0  0  0  0  0  0
   -3.0877    3.5873    0.0000 C   0  0  0  0  0  0  0  0  0  0  0  0
   -1.7886    2.8373    0.0000 H   0  0  0  0  0  0  0  0  0  0  0  0
   -4.0518    4.7364    0.0000 H   0  0  0  0  0  0  0  0  0  0  0  0
   -2.1235    4.7364    0.0000 H   0  0  0  0  0  0  0  0  0  0  0  0
   -4.3867    1.3373    0.0000 C   0  0  0  0  0  0  0  0  0  0  0  0
   -5.6867    0.5873    0.0000 C   0  0  0  0  0  0  0  0  0  0  0  0
   -6.9856    1.3375    0.0000 H   0  0  0  0  0  0  0  0  0  0  0  0
   -5.6867   -0.9127    0.0000 C   0  0  0  0  0  0  0  0  0  0  0  0
   -6.9856   -1.6629    0.0000 H   0  0  0  0  0  0  0  0  0  0  0  0
   -4.3867   -1.6627    0.0000 C   0  0  0  0  0  0  0  0  0  0  0  0
   -3.0867   -0.9127    0.0000 C   0  0  0  0  0  0  0  0  0  0  0  0
   -3.0867    0.5873    0.0000 C   0  0  0  0  0  0  0  0  0  0  0  0
   -1.7967    1.3373    0.0000 C   0  0  0  0  0  0  0  0  0  0  0  0
   -0.8339    2.4875    0.0000 H   0  0  0  0  0  0  0  0  0  0  0  0
   -2.7633    2.4843    0.0000 H   0  0  0  0  0  0  0  0  0  0  0  0
   -0.4967    0.5873    0.0000 C   0  0  1  0  0  0  0  0  0  0  0  0
    1.6329   -0.6441    0.0000 H   0  0  0  0  0  0  0  0  0  0  0  0
    0.8033    1.3373    0.0000 C   0  0  0  0  0  0  0  0  0  0  0  0
    0.2910   -0.0725    0.0000 H   0  0  0  0  0  0  0  0  0  0  0  0
   -0.1608    2.4865    0.0000 H   0  0  0  0  0  0  0  0  0  0  0  0
    2.1033    0.5873    0.0000 C   0  0  1  0  0  0  0  0  0  0  0  0
    2.1033    2.0873    0.0000 H   0  0  0  0  0  0  0  0  0  0  0  0
    3.4033    1.3373    0.0000 C   0  0  1  0  0  0  0  0  0  0  0  0
    4.3674    2.4865    0.0000 H   0  0  0  0  0  0  0  0  0  0  0  0
    4.7033    0.5873    0.0000 C   0  0  0  0  0  0  0  0  0  0  0  0
    4.7033   -0.9127    0.0000 C   0  0  0  0  0  0  0  0  0  0  0  0
    3.4033   -1.6627    0.0000 C   0  0  0  0  0  0  0  0  0  0  0  0
    3.4033   -4.1227    0.0000 O   0  0  0  0  0  0  0  0  0  0  0  0
    2.1033   -0.9127    0.0000 C   0  0  1  0  0  0  0  0  0  0  0  0
    0.8033   -1.6627    0.0000 C   0  0  0  0  0  0  0  0  0  0  0  0
   -0.4967   -0.9127    0.0000 C   0  0  0  0  0  0  0  0  0  0  0  0
   -1.7967   -1.6627    0.0000 C   0  0  0  0  0  0  0  0  0  0  0  0
   -1.7992   -3.1627    0.0000 O   0  0  0  0  0  0  0  0  0  0  0  0
    0.8033   -3.1627    0.0000 O   0  0  0  0  0  0  0  0  0  0  0  0
    2.1023   -3.9127    0.0000 H   0  0  0  0  0  0  0  0  0  0  0  0
    2.1033   -2.4127    0.0000 O   0  0  0  0  0  0  0  0  0  0  0  0
    3.4023   -3.1627    0.0000 H   0  0  0  0  0  0  0  0  0  0  0  0
    6.0022   -1.6629    0.0000 C   0  0  0  0  0  0  0  0  0  0  0  0
    7.3014   -0.9131    0.0000 O   0  0  0  0  0  0  0  0  0  0  0  0
    6.0020   -3.1629    0.0000 N   0  0  0  0  0  0  0  0  0  0  0  0
    7.3009   -3.9131    0.0000 H   0  0  0  0  0  0  0  0  0  0  0  0
    4.7028   -3.9127    0.0000 H   0  0  0  0  0  0  0  0  0  0  0  0
    6.0022    1.3375    0.0000 O   0  0  0  0  0  0  0  0  0  0  0  0
    7.3014    0.5877    0.0000 S   0  0  0  0  0  0  0  0  0  0  0  0
    6.3374   -0.5615    0.0000 O   0  0  0  0  0  0  0  0  0  0  0  0
    8.2657   -0.5612    0.0000 O   0  0  0  0  0  0  0  0  0  0  0  0
    8.6003    1.3379    0.0000 O   0  0  0  0  0  0  0  0  0  0  0  0
    9.8995    0.5881    0.0000 H   0  0  0  0  0  0  0  0  0  0  0  0
    3.0597    3.2872    0.0000 N   0  0  0  0  0  0  0  0  0  0  0  0
    4.2089    4.2513    0.0000 C   0  0  0  0  0  0  0  0  0  0  0  0
    5.6183    3.7381    0.0000 H   0  0  0  0  0  0  0  0  0  0  0  0
    4.9590    5.5503    0.0000 H   0  0  0  0  0  0  0  0  0  0  0  0
    3.0599    5.2156    0.0000 H   0  0  0  0  0  0  0  0  0  0  0  0
    1.6502    3.8004    0.0000 C   0  0  0  0  0  0  0  0  0  0  0  0
    1.3899    5.2777    0.0000 H   0  0  0  0  0  0  0  0  0  0  0  0
    0.3512    4.5506    0.0000 H   0  0  0  0  0  0  0  0  0  0  0  0
    1.3896    2.3232    0.0000 H   0  0  0  0  0  0  0  0  0  0  0  0
   -4.3867   -3.1627    0.0000 O   0  0  0  0  0  0  0  0  0  0  0  0
   -5.6857   -3.9127    0.0000 H   0  0  0  0  0  0  0  0  0  0  0  0
  1  2  1  0  0  0  0 
  1  3  1  0  0  0  0 
  1  4  1  0  0  0  0 
  1  5  1  0  0  0  0 
  5  6  1  0  0  0  0 
  6  7  1  0  0  0  0 
  6  8  1  0  0  0  0 
  6  9  1  0  0  0  0 
  5 10  1  0  0  0  0 
 10 11  2  0  0  0  0 
 11 12  1  0  0  0  0 
 11 13  1  0  0  0  0 
 13 14  1  0  0  0  0 
 13 15  2  0  0  0  0 
 15 16  1  0  0  0  0 
 16 17  2  0  0  0  0 
 10 17  1  0  0  0  0 
 17 18  1  0  0  0  0 
 18 19  1  0  0  0  0 
 18 20  1  0  0  0  0 
 18 21  1  0  0  0  0 
 21 22  1  6  0  0  0 
 21 23  1  0  0  0  0 
 23 24  1  0  0  0  0 
 23 25  1  0  0  0  0 
 23 26  1  0  0  0  0 
 26 27  1  6  0  0  0 
 26 28  1  0  0  0  0 
 28 29  1  1  0  0  0 
 28 30  1  0  0  0  0 
 30 31  2  0  0  0  0 
 31 32  1  0  0  0  0 
 32 33  2  0  0  0  0 
 32 34  1  0  0  0  0 
 26 34  1  0  0  0  0 
 34 35  1  0  0  0  0 
 35 36  2  0  0  0  0 
 21 36  1  0  0  0  0 
 36 37  1  0  0  0  0 
 16 37  1  0  0  0  0 
 37 38  2  0  0  0  0 
 35 39  1  0  0  0  0 
 39 40  1  0  0  0  0 
 34 41  1  6  0  0  0 
 41 42  1  0  0  0  0 
 31 43  1  0  0  0  0 
 43 44  2  0  0  0  0 
 43 45  1  0  0  0  0 
 45 46  1  0  0  0  0 
 45 47  1  0  0  0  0 
 30 48  1  0  0  0  0 
 48 49  1  0  0  0  0 
 49 50  2  0  0  0  0 
 49 51  2  0  0  0  0 
 49 52  1  0  0  0  0 
 52 53  1  0  0  0  0 
 28 54  1  6  0  0  0 
 54 55  1  0  0  0  0 
 55 56  1  0  0  0  0 
 55 57  1  0  0  0  0 
 55 58  1  0  0  0  0 
 54 59  1  0  0  0  0 
 59 60  1  0  0  0  0 
 59 61  1  0  0  0  0 
 59 62  1  0  0  0  0 
 15 63  1  0  0  0  0 
 63 64  1  0  0  0  0 
M  END
> <Rank>
24

> <Priority_score>
0.088

> <Reaction_type>
sulfation_(aliphatic_hydroxyl)

> <Parent_ID>
31

> <Parent_InChI>
InChI=1S/C23H27N3O7/c1-25(2)12-5-6-13(27)15-10(12)7-9-8-11-17(26(3)4)19(29)16(22(24)32)21(31)23(11,33)20(30)14(9)18(15)28/h5-6,9,11,17,27,29-30,33H,7-8H2,1-4H3,(H2,24,32)

> <Parent_SMILES>
CN(C)c1ccc(O)c2c1C[C@H]1C[C@H]3[C@H](N(C)C)C(O)=C(C(N)=O)C(=O)[C@@]3(O)C(O)=C1C2=O

$$$$
Molecule 31_metabolite 25
  CDK     0516241031

 51 54  0  0  0  0  0  0  0  0999 V2000
    1.8744   -3.5888    0.0000 C   0  0  0  0  0  0  0  0  0  0  0  0
    1.3612   -2.1793    0.0000 H   0  0  0  0  0  0  0  0  0  0  0  0
    1.8746   -5.0888    0.0000 H   0  0  0  0  0  0  0  0  0  0  0  0
    0.3972   -3.8494    0.0000 H   0  0  0  0  0  0  0  0  0  0  0  0
    3.3517   -3.8491    0.0000 N   0  0  0  0  0  0  0  0  0  0  0  0
    3.8648   -5.2586    0.0000 C   0  0  0  0  0  0  0  0  0  0  0  0
    2.9008   -6.4078    0.0000 H   0  0  0  0  0  0  0  0  0  0  0  0
    5.1638   -4.5085    0.0000 H   0  0  0  0  0  0  0  0  0  0  0  0
    5.1377   -6.7752    0.0000 H   0  0  0  0  0  0  0  0  0  0  0  0
    5.2412   -1.5968    0.0000 C   0  0  1  0  0  0  0  0  0  0  0  0
    6.2053   -2.7459    0.0000 H   0  0  0  0  0  0  0  0  0  0  0  0
    3.9412   -0.8468    0.0000 C   0  0  2  0  0  0  0  0  0  0  0  0
    2.6427   -0.0959    0.0000 H   0  0  0  0  0  0  0  0  0  0  0  0
    2.6412   -1.5968    0.0000 C   0  0  0  0  0  0  0  0  0  0  0  0
    1.6772   -2.7459    0.0000 H   0  0  0  0  0  0  0  0  0  0  0  0
    3.6053   -2.7459    0.0000 H   0  0  0  0  0  0  0  0  0  0  0  0
    1.3412   -0.8468    0.0000 C   0  0  2  0  0  0  0  0  0  0  0  0
    0.0427   -0.0959    0.0000 H   0  0  0  0  0  0  0  0  0  0  0  0
    0.0412   -1.5968    0.0000 C   0  0  0  0  0  0  0  0  0  0  0  0
   -0.9228   -2.7459    0.0000 H   0  0  0  0  0  0  0  0  0  0  0  0
    0.7911   -2.8959    0.0000 H   0  0  0  0  0  0  0  0  0  0  0  0
   -1.2588   -0.8468    0.0000 C   0  0  0  0  0  0  0  0  0  0  0  0
   -1.2588    0.6532    0.0000 C   0  0  0  0  0  0  0  0  0  0  0  0
   -2.5588    1.4032    0.0000 C   0  0  0  0  0  0  0  0  0  0  0  0
   -2.5588    2.9032    0.0000 O   0  0  0  0  0  0  0  0  0  0  0  0
   -3.8588    0.6532    0.0000 C   0  0  0  0  0  0  0  0  0  0  0  0
   -5.1577    1.4035    0.0000 H   0  0  0  0  0  0  0  0  0  0  0  0
   -3.8588   -0.8468    0.0000 C   0  0  0  0  0  0  0  0  0  0  0  0
   -5.1577   -1.5970    0.0000 H   0  0  0  0  0  0  0  0  0  0  0  0
   -2.5588   -1.5968    0.0000 C   0  0  0  0  0  0  0  0  0  0  0  0
   -2.5588   -3.0968    0.0000 O   0  0  0  0  0  0  0  0  0  0  0  0
    0.0412    1.4032    0.0000 C   0  0  0  0  0  0  0  0  0  0  0  0
    0.0412    2.9032    0.0000 O   0  0  0  0  0  0  0  0  0  0  0  0
    1.3412    0.6532    0.0000 C   0  0  0  0  0  0  0  0  0  0  0  0
    2.6412    1.4032    0.0000 C   0  0  0  0  0  0  0  0  0  0  0  0
    3.9412    0.6532    0.0000 C   0  0  2  0  0  0  0  0  0  0  0  0
    5.2412    1.4032    0.0000 C   0  0  0  0  0  0  0  0  0  0  0  0
    5.2412    2.9032    0.0000 O   0  0  0  0  0  0  0  0  0  0  0  0
    6.5412    0.6532    0.0000 C   0  0  0  0  0  0  0  0  0  0  0  0
    6.5412   -0.8468    0.0000 C   0  0  0  0  0  0  0  0  0  0  0  0
    7.8401   -1.5970    0.0000 O   0  0  0  0  0  0  0  0  0  0  0  0
    9.1393   -0.8472    0.0000 H   0  0  0  0  0  0  0  0  0  0  0  0
    7.8401    1.4035    0.0000 C   0  0  0  0  0  0  0  0  0  0  0  0
    9.1393    0.6537    0.0000 O   0  0  0  0  0  0  0  0  0  0  0  0
    7.8399    2.9035    0.0000 N   0  0  0  0  0  0  0  0  0  0  0  0
    9.1388    3.6537    0.0000 H   0  0  0  0  0  0  0  0  0  0  0  0
    6.5407    3.6532    0.0000 H   0  0  0  0  0  0  0  0  0  0  0  0
    3.9412    3.1132    0.0000 O   0  0  0  0  0  0  0  0  0  0  0  0
    5.2403    3.8632    0.0000 H   0  0  0  0  0  0  0  0  0  0  0  0
    2.6412    2.9032    0.0000 O   0  0  0  0  0  0  0  0  0  0  0  0
    1.3422    3.6532    0.0000 H   0  0  0  0  0  0  0  0  0  0  0  0
  1  2  1  0  0  0  0 
  1  3  1  0  0  0  0 
  1  4  1  0  0  0  0 
  1  5  1  0  0  0  0 
  5  6  1  0  0  0  0 
  6  7  1  0  0  0  0 
  6  8  1  0  0  0  0 
  6  9  1  0  0  0  0 
 10  5  1  1  0  0  0 
 10 11  1  6  0  0  0 
 10 12  1  0  0  0  0 
 12 13  1  1  0  0  0 
 12 14  1  0  0  0  0 
 14 15  1  0  0  0  0 
 14 16  1  0  0  0  0 
 14 17  1  0  0  0  0 
 17 18  1  1  0  0  0 
 17 19  1  0  0  0  0 
 19 20  1  0  0  0  0 
 19 21  1  0  0  0  0 
 19 22  1  0  0  0  0 
 22 23  2  0  0  0  0 
 23 24  1  0  0  0  0 
 24 25  2  0  0  0  0 
 24 26  1  0  0  0  0 
 26 27  1  0  0  0  0 
 26 28  2  0  0  0  0 
 28 29  1  0  0  0  0 
 28 30  1  0  0  0  0 
 22 30  1  0  0  0  0 
 30 31  2  0  0  0  0 
 23 32  1  0  0  0  0 
 32 33  2  0  0  0  0 
 32 34  1  0  0  0  0 
 17 34  1  0  0  0  0 
 34 35  2  0  0  0  0 
 35 36  1  0  0  0  0 
 12 36  1  0  0  0  0 
 36 37  1  0  0  0  0 
 37 38  2  0  0  0  0 
 37 39  1  0  0  0  0 
 39 40  2  0  0  0  0 
 10 40  1  0  0  0  0 
 40 41  1  0  0  0  0 
 41 42  1  0  0  0  0 
 39 43  1  0  0  0  0 
 43 44  2  0  0  0  0 
 43 45  1  0  0  0  0 
 45 46  1  0  0  0  0 
 45 47  1  0  0  0  0 
 36 48  1  1  0  0  0 
 48 49  1  0  0  0  0 
 35 50  1  0  0  0  0 
 50 51  1  0  0  0  0 
M  END
> <Rank>
25

> <Priority_score>
0.08471152720889409

> <Reaction_type>
oxidation of 4-substituted phenol to quinone

> <Parent_ID>
31

> <Parent_InChI>
InChI=1S/C23H27N3O7/c1-25(2)12-5-6-13(27)15-10(12)7-9-8-11-17(26(3)4)19(29)16(22(24)32)21(31)23(11,33)20(30)14(9)18(15)28/h5-6,9,11,17,27,29-30,33H,7-8H2,1-4H3,(H2,24,32)

> <Parent_SMILES>
CN(C)c1ccc(O)c2c1C[C@H]1C[C@H]3[C@H](N(C)C)C(O)=C(C(N)=O)C(=O)[C@@]3(O)C(O)=C1C2=O

$$$$
Molecule 31_metabolite 26
  CDK     0516241031

 59 62  0  0  0  0  0  0  0  0999 V2000
   -3.0877    3.5873    0.0000 C   0  0  0  0  0  0  0  0  0  0  0  0
   -3.0877    5.0873    0.0000 H   0  0  0  0  0  0  0  0  0  0  0  0
   -1.7886    2.8373    0.0000 H   0  0  0  0  0  0  0  0  0  0  0  0
   -4.3867    2.8373    0.0000 N   0  0  0  0  0  0  0  0  0  0  0  0
   -5.6857    3.5873    0.0000 C   0  0  0  0  0  0  0  0  0  0  0  0
   -5.6857    5.0873    0.0000 H   0  0  0  0  0  0  0  0  0  0  0  0
   -7.1629    3.8478    0.0000 H   0  0  0  0  0  0  0  0  0  0  0  0
   -6.1988    2.1777    0.0000 H   0  0  0  0  0  0  0  0  0  0  0  0
   -4.3867    1.3373    0.0000 C   0  0  0  0  0  0  0  0  0  0  0  0
   -5.6867    0.5873    0.0000 C   0  0  0  0  0  0  0  0  0  0  0  0
   -6.9856    1.3375    0.0000 H   0  0  0  0  0  0  0  0  0  0  0  0
   -5.6867   -0.9127    0.0000 C   0  0  0  0  0  0  0  0  0  0  0  0
   -6.9856   -1.6629    0.0000 H   0  0  0  0  0  0  0  0  0  0  0  0
   -4.3867   -1.6627    0.0000 C   0  0  0  0  0  0  0  0  0  0  0  0
   -3.0867   -0.9127    0.0000 C   0  0  0  0  0  0  0  0  0  0  0  0
   -3.0867    0.5873    0.0000 C   0  0  0  0  0  0  0  0  0  0  0  0
   -1.7967    1.3373    0.0000 C   0  0  0  0  0  0  0  0  0  0  0  0
   -0.8339    2.4875    0.0000 H   0  0  0  0  0  0  0  0  0  0  0  0
   -2.7633    2.4843    0.0000 H   0  0  0  0  0  0  0  0  0  0  0  0
   -0.4967    0.5873    0.0000 C   0  0  1  0  0  0  0  0  0  0  0  0
    1.6329   -0.6441    0.0000 H   0  0  0  0  0  0  0  0  0  0  0  0
    0.8033    1.3373    0.0000 C   0  0  0  0  0  0  0  0  0  0  0  0
    0.2910   -0.0725    0.0000 H   0  0  0  0  0  0  0  0  0  0  0  0
   -0.1608    2.4865    0.0000 H   0  0  0  0  0  0  0  0  0  0  0  0
    2.1033    0.5873    0.0000 C   0  0  1  0  0  0  0  0  0  0  0  0
    2.1033    2.0873    0.0000 H   0  0  0  0  0  0  0  0  0  0  0  0
    3.4033    1.3373    0.0000 C   0  0  1  0  0  0  0  0  0  0  0  0
    4.3674    2.4865    0.0000 H   0  0  0  0  0  0  0  0  0  0  0  0
    4.7033    0.5873    0.0000 C   0  0  0  0  0  0  0  0  0  0  0  0
    4.7033   -0.9127    0.0000 C   0  0  0  0  0  0  0  0  0  0  0  0
    3.4033   -1.6627    0.0000 C   0  0  0  0  0  0  0  0  0  0  0  0
    3.4033   -4.1227    0.0000 O   0  0  0  0  0  0  0  0  0  0  0  0
    2.1033   -0.9127    0.0000 C   0  0  1  0  0  0  0  0  0  0  0  0
    0.8033   -1.6627    0.0000 C   0  0  0  0  0  0  0  0  0  0  0  0
   -0.4967   -0.9127    0.0000 C   0  0  0  0  0  0  0  0  0  0  0  0
   -1.7967   -1.6627    0.0000 C   0  0  0  0  0  0  0  0  0  0  0  0
   -1.7992   -3.1627    0.0000 O   0  0  0  0  0  0  0  0  0  0  0  0
    0.8033   -3.1627    0.0000 O   0  0  0  0  0  0  0  0  0  0  0  0
    2.1023   -3.9127    0.0000 H   0  0  0  0  0  0  0  0  0  0  0  0
    2.1033   -2.4127    0.0000 O   0  0  0  0  0  0  0  0  0  0  0  0
    3.4023   -3.1627    0.0000 H   0  0  0  0  0  0  0  0  0  0  0  0
    6.0022   -1.6629    0.0000 C   0  0  0  0  0  0  0  0  0  0  0  0
    7.3014   -0.9131    0.0000 O   0  0  0  0  0  0  0  0  0  0  0  0
    6.0020   -3.1629    0.0000 N   0  0  0  0  0  0  0  0  0  0  0  0
    7.3009   -3.9131    0.0000 H   0  0  0  0  0  0  0  0  0  0  0  0
    4.7028   -3.9127    0.0000 H   0  0  0  0  0  0  0  0  0  0  0  0
    6.0022    1.3375    0.0000 O   0  0  0  0  0  0  0  0  0  0  0  0
    7.3014    0.5877    0.0000 H   0  0  0  0  0  0  0  0  0  0  0  0
    3.0597    3.2872    0.0000 N   0  0  0  0  0  0  0  0  0  0  0  0
    4.2089    4.2513    0.0000 C   0  0  0  0  0  0  0  0  0  0  0  0
    5.6183    3.7381    0.0000 H   0  0  0  0  0  0  0  0  0  0  0  0
    4.9590    5.5503    0.0000 H   0  0  0  0  0  0  0  0  0  0  0  0
    3.0599    5.2156    0.0000 H   0  0  0  0  0  0  0  0  0  0  0  0
    1.6502    3.8004    0.0000 C   0  0  0  0  0  0  0  0  0  0  0  0
    1.3899    5.2777    0.0000 H   0  0  0  0  0  0  0  0  0  0  0  0
    0.3512    4.5506    0.0000 H   0  0  0  0  0  0  0  0  0  0  0  0
    1.3896    2.3232    0.0000 H   0  0  0  0  0  0  0  0  0  0  0  0
   -4.3867   -3.1627    0.0000 O   0  0  0  0  0  0  0  0  0  0  0  0
   -5.6857   -3.9127    0.0000 H   0  0  0  0  0  0  0  0  0  0  0  0
  1  2  1  0  0  0  0 
  1  3  1  0  0  0  0 
  1  4  2  0  0  0  0 
  4  5  1  0  0  0  0 
  5  6  1  0  0  0  0 
  5  7  1  0  0  0  0 
  5  8  1  0  0  0  0 
  4  9  1  0  0  0  0 
  9 10  2  0  0  0  0 
 10 11  1  0  0  0  0 
 10 12  1  0  0  0  0 
 12 13  1  0  0  0  0 
 12 14  2  0  0  0  0 
 14 15  1  0  0  0  0 
 15 16  2  0  0  0  0 
  9 16  1  0  0  0  0 
 16 17  1  0  0  0  0 
 17 18  1  0  0  0  0 
 17 19  1  0  0  0  0 
 17 20  1  0  0  0  0 
 20 21  1  6  0  0  0 
 20 22  1  0  0  0  0 
 22 23  1  0  0  0  0 
 22 24  1  0  0  0  0 
 22 25  1  0  0  0  0 
 25 26  1  6  0  0  0 
 25 27  1  0  0  0  0 
 27 28  1  1  0  0  0 
 27 29  1  0  0  0  0 
 29 30  2  0  0  0  0 
 30 31  1  0  0  0  0 
 31 32  2  0  0  0  0 
 31 33  1  0  0  0  0 
 25 33  1  0  0  0  0 
 33 34  1  0  0  0  0 
 34 35  2  0  0  0  0 
 20 35  1  0  0  0  0 
 35 36  1  0  0  0  0 
 15 36  1  0  0  0  0 
 36 37  2  0  0  0  0 
 34 38  1  0  0  0  0 
 38 39  1  0  0  0  0 
 33 40  1  6  0  0  0 
 40 41  1  0  0  0  0 
 30 42  1  0  0  0  0 
 42 43  2  0  0  0  0 
 42 44  1  0  0  0  0 
 44 45  1  0  0  0  0 
 44 46  1  0  0  0  0 
 29 47  1  0  0  0  0 
 47 48  1  0  0  0  0 
 27 49  1  6  0  0  0 
 49 50  1  0  0  0  0 
 50 51  1  0  0  0  0 
 50 52  1  0  0  0  0 
 50 53  1  0  0  0  0 
 49 54  1  0  0  0  0 
 54 55  1  0  0  0  0 
 54 56  1  0  0  0  0 
 54 57  1  0  0  0  0 
 14 58  1  0  0  0  0 
 58 59  1  0  0  0  0 
M  CHG  1   4   1
M  END
> <Rank>
25

> <Priority_score>
0.08471152720889409

> <Reaction_type>
dehydration of N-C bond

> <Parent_ID>
31

> <Parent_InChI>
InChI=1S/C23H27N3O7/c1-25(2)12-5-6-13(27)15-10(12)7-9-8-11-17(26(3)4)19(29)16(22(24)32)21(31)23(11,33)20(30)14(9)18(15)28/h5-6,9,11,17,27,29-30,33H,7-8H2,1-4H3,(H2,24,32)

> <Parent_SMILES>
CN(C)c1ccc(O)c2c1C[C@H]1C[C@H]3[C@H](N(C)C)C(O)=C(C(N)=O)C(=O)[C@@]3(O)C(O)=C1C2=O

$$$$
Molecule 31_metabolite 27
  CDK     0516241031

 61 64  0  0  0  0  0  0  0  0999 V2000
   -5.6857    3.5873    0.0000 C   0  0  0  0  0  0  0  0  0  0  0  0
   -5.6857    5.0873    0.0000 H   0  0  0  0  0  0  0  0  0  0  0  0
   -7.1629    3.8478    0.0000 H   0  0  0  0  0  0  0  0  0  0  0  0
   -6.1988    2.1777    0.0000 H   0  0  0  0  0  0  0  0  0  0  0  0
   -4.3867    2.8373    0.0000 N   0  0  0  0  0  0  0  0  0  0  0  0
   -3.0877    3.5873    0.0000 C   0  0  0  0  0  0  0  0  0  0  0  0
   -1.7886    2.8373    0.0000 H   0  0  0  0  0  0  0  0  0  0  0  0
   -4.0518    4.7364    0.0000 H   0  0  0  0  0  0  0  0  0  0  0  0
   -2.1235    4.7364    0.0000 H   0  0  0  0  0  0  0  0  0  0  0  0
   -4.3867    1.3373    0.0000 C   0  0  0  0  0  0  0  0  0  0  0  0
   -5.6867    0.5873    0.0000 C   0  0  0  0  0  0  0  0  0  0  0  0
   -6.9856    1.3375    0.0000 H   0  0  0  0  0  0  0  0  0  0  0  0
   -5.6867   -0.9127    0.0000 C   0  0  0  0  0  0  0  0  0  0  0  0
   -6.9856   -1.6629    0.0000 H   0  0  0  0  0  0  0  0  0  0  0  0
   -4.3867   -1.6627    0.0000 C   0  0  0  0  0  0  0  0  0  0  0  0
   -3.0867   -0.9127    0.0000 C   0  0  0  0  0  0  0  0  0  0  0  0
   -3.0867    0.5873    0.0000 C   0  0  0  0  0  0  0  0  0  0  0  0
   -1.7967    1.3373    0.0000 C   0  0  0  0  0  0  0  0  0  0  0  0
   -0.8339    2.4875    0.0000 H   0  0  0  0  0  0  0  0  0  0  0  0
   -2.7633    2.4843    0.0000 H   0  0  0  0  0  0  0  0  0  0  0  0
   -0.4967    0.5873    0.0000 C   0  0  1  0  0  0  0  0  0  0  0  0
    1.6329   -0.6441    0.0000 H   0  0  0  0  0  0  0  0  0  0  0  0
    0.8033    1.3373    0.0000 C   0  0  0  0  0  0  0  0  0  0  0  0
    0.2910   -0.0725    0.0000 H   0  0  0  0  0  0  0  0  0  0  0  0
   -0.1608    2.4865    0.0000 H   0  0  0  0  0  0  0  0  0  0  0  0
    2.1033    0.5873    0.0000 C   0  0  1  0  0  0  0  0  0  0  0  0
    2.1033    2.0873    0.0000 H   0  0  0  0  0  0  0  0  0  0  0  0
    3.4033    1.3373    0.0000 C   0  0  1  0  0  0  0  0  0  0  0  0
    4.3674    2.4865    0.0000 H   0  0  0  0  0  0  0  0  0  0  0  0
    4.7033    0.5873    0.0000 C   0  0  0  0  0  0  0  0  0  0  0  0
    4.7033   -0.9127    0.0000 C   0  0  0  0  0  0  0  0  0  0  0  0
    3.4033   -1.6627    0.0000 C   0  0  0  0  0  0  0  0  0  0  0  0
    3.4033   -4.1227    0.0000 O   0  0  0  0  0  0  0  0  0  0  0  0
    2.1033   -0.9127    0.0000 C   0  0  1  0  0  0  0  0  0  0  0  0
    0.8033   -1.6627    0.0000 C   0  0  0  0  0  0  0  0  0  0  0  0
   -0.4967   -0.9127    0.0000 C   0  0  0  0  0  0  0  0  0  0  0  0
   -1.7967   -1.6627    0.0000 C   0  0  0  0  0  0  0  0  0  0  0  0
   -1.7992   -3.1627    0.0000 O   0  0  0  0  0  0  0  0  0  0  0  0
    0.8033   -3.1627    0.0000 O   0  0  0  0  0  0  0  0  0  0  0  0
    2.1023   -3.9127    0.0000 H   0  0  0  0  0  0  0  0  0  0  0  0
    2.1033   -2.4127    0.0000 O   0  0  0  0  0  0  0  0  0  0  0  0
    3.4023   -3.1627    0.0000 H   0  0  0  0  0  0  0  0  0  0  0  0
    6.0022   -1.6629    0.0000 C   0  0  0  0  0  0  0  0  0  0  0  0
    7.3014   -0.9131    0.0000 O   0  0  0  0  0  0  0  0  0  0  0  0
    6.0020   -3.1629    0.0000 N   0  0  0  0  0  0  0  0  0  0  0  0
    4.7028   -3.9127    0.0000 H   0  0  0  0  0  0  0  0  0  0  0  0
    7.3009   -3.9131    0.0000 O   0  0  0  0  0  0  0  0  0  0  0  0
    7.3007   -5.4131    0.0000 H   0  0  0  0  0  0  0  0  0  0  0  0
    6.0022    1.3375    0.0000 O   0  0  0  0  0  0  0  0  0  0  0  0
    7.3014    0.5877    0.0000 H   0  0  0  0  0  0  0  0  0  0  0  0
    3.0597    3.2872    0.0000 N   0  0  0  0  0  0  0  0  0  0  0  0
    4.2089    4.2513    0.0000 C   0  0  0  0  0  0  0  0  0  0  0  0
    5.6183    3.7381    0.0000 H   0  0  0  0  0  0  0  0  0  0  0  0
    4.9590    5.5503    0.0000 H   0  0  0  0  0  0  0  0  0  0  0  0
    3.0599    5.2156    0.0000 H   0  0  0  0  0  0  0  0  0  0  0  0
    1.6502    3.8004    0.0000 C   0  0  0  0  0  0  0  0  0  0  0  0
    1.3899    5.2777    0.0000 H   0  0  0  0  0  0  0  0  0  0  0  0
    0.3512    4.5506    0.0000 H   0  0  0  0  0  0  0  0  0  0  0  0
    1.3896    2.3232    0.0000 H   0  0  0  0  0  0  0  0  0  0  0  0
   -4.3867   -3.1627    0.0000 O   0  0  0  0  0  0  0  0  0  0  0  0
   -5.6857   -3.9127    0.0000 H   0  0  0  0  0  0  0  0  0  0  0  0
  1  2  1  0  0  0  0 
  1  3  1  0  0  0  0 
  1  4  1  0  0  0  0 
  1  5  1  0  0  0  0 
  5  6  1  0  0  0  0 
  6  7  1  0  0  0  0 
  6  8  1  0  0  0  0 
  6  9  1  0  0  0  0 
  5 10  1  0  0  0  0 
 10 11  2  0  0  0  0 
 11 12  1  0  0  0  0 
 11 13  1  0  0  0  0 
 13 14  1  0  0  0  0 
 13 15  2  0  0  0  0 
 15 16  1  0  0  0  0 
 16 17  2  0  0  0  0 
 10 17  1  0  0  0  0 
 17 18  1  0  0  0  0 
 18 19  1  0  0  0  0 
 18 20  1  0  0  0  0 
 18 21  1  0  0  0  0 
 21 22  1  6  0  0  0 
 21 23  1  0  0  0  0 
 23 24  1  0  0  0  0 
 23 25  1  0  0  0  0 
 23 26  1  0  0  0  0 
 26 27  1  6  0  0  0 
 26 28  1  0  0  0  0 
 28 29  1  1  0  0  0 
 28 30  1  0  0  0  0 
 30 31  2  0  0  0  0 
 31 32  1  0  0  0  0 
 32 33  2  0  0  0  0 
 32 34  1  0  0  0  0 
 26 34  1  0  0  0  0 
 34 35  1  0  0  0  0 
 35 36  2  0  0  0  0 
 21 36  1  0  0  0  0 
 36 37  1  0  0  0  0 
 16 37  1  0  0  0  0 
 37 38  2  0  0  0  0 
 35 39  1  0  0  0  0 
 39 40  1  0  0  0  0 
 34 41  1  6  0  0  0 
 41 42  1  0  0  0  0 
 31 43  1  0  0  0  0 
 43 44  2  0  0  0  0 
 43 45  1  0  0  0  0 
 45 46  1  0  0  0  0 
 45 47  1  0  0  0  0 
 47 48  1  0  0  0  0 
 30 49  1  0  0  0  0 
 49 50  1  0  0  0  0 
 28 51  1  6  0  0  0 
 51 52  1  0  0  0  0 
 52 53  1  0  0  0  0 
 52 54  1  0  0  0  0 
 52 55  1  0  0  0  0 
 51 56  1  0  0  0  0 
 56 57  1  0  0  0  0 
 56 58  1  0  0  0  0 
 56 59  1  0  0  0  0 
 15 60  1  0  0  0  0 
 60 61  1  0  0  0  0 
M  END
> <Rank>
27

> <Priority_score>
0.084

> <Reaction_type>
amine hydroxylation

> <Parent_ID>
31

> <Parent_InChI>
InChI=1S/C23H27N3O7/c1-25(2)12-5-6-13(27)15-10(12)7-9-8-11-17(26(3)4)19(29)16(22(24)32)21(31)23(11,33)20(30)14(9)18(15)28/h5-6,9,11,17,27,29-30,33H,7-8H2,1-4H3,(H2,24,32)

> <Parent_SMILES>
CN(C)c1ccc(O)c2c1C[C@H]1C[C@H]3[C@H](N(C)C)C(O)=C(C(N)=O)C(=O)[C@@]3(O)C(O)=C1C2=O

$$$$
Molecule 31_metabolite 28
  CDK     0516241031

 61 64  0  0  0  0  0  0  0  0999 V2000
   -5.6857    3.5873    0.0000 C   0  0  0  0  0  0  0  0  0  0  0  0
   -5.6857    5.0873    0.0000 H   0  0  0  0  0  0  0  0  0  0  0  0
   -7.1629    3.8478    0.0000 H   0  0  0  0  0  0  0  0  0  0  0  0
   -6.1988    2.1777    0.0000 H   0  0  0  0  0  0  0  0  0  0  0  0
   -4.3867    2.8373    0.0000 N   0  0  0  0  0  0  0  0  0  0  0  0
   -3.0877    3.5873    0.0000 C   0  0  0  0  0  0  0  0  0  0  0  0
   -1.7886    2.8373    0.0000 H   0  0  0  0  0  0  0  0  0  0  0  0
   -4.0518    4.7364    0.0000 H   0  0  0  0  0  0  0  0  0  0  0  0
   -2.1235    4.7364    0.0000 H   0  0  0  0  0  0  0  0  0  0  0  0
   -4.3867    1.3373    0.0000 C   0  0  0  0  0  0  0  0  0  0  0  0
   -5.6867    0.5873    0.0000 C   0  0  0  0  0  0  0  0  0  0  0  0
   -6.9856    1.3375    0.0000 H   0  0  0  0  0  0  0  0  0  0  0  0
   -5.6867   -0.9127    0.0000 C   0  0  0  0  0  0  0  0  0  0  0  0
   -6.9856   -1.6629    0.0000 H   0  0  0  0  0  0  0  0  0  0  0  0
   -4.3867   -1.6627    0.0000 C   0  0  0  0  0  0  0  0  0  0  0  0
   -3.0867   -0.9127    0.0000 C   0  0  0  0  0  0  0  0  0  0  0  0
   -3.0867    0.5873    0.0000 C   0  0  0  0  0  0  0  0  0  0  0  0
   -1.7967    1.3373    0.0000 C   0  0  0  0  0  0  0  0  0  0  0  0
   -0.8339    2.4875    0.0000 H   0  0  0  0  0  0  0  0  0  0  0  0
   -2.7633    2.4843    0.0000 H   0  0  0  0  0  0  0  0  0  0  0  0
   -0.4967    0.5873    0.0000 C   0  0  1  0  0  0  0  0  0  0  0  0
    1.6329   -0.6441    0.0000 H   0  0  0  0  0  0  0  0  0  0  0  0
    0.8033    1.3373    0.0000 C   0  0  0  0  0  0  0  0  0  0  0  0
    0.2910   -0.0725    0.0000 H   0  0  0  0  0  0  0  0  0  0  0  0
   -0.1608    2.4865    0.0000 H   0  0  0  0  0  0  0  0  0  0  0  0
    2.1033    0.5873    0.0000 C   0  0  1  0  0  0  0  0  0  0  0  0
    2.1033    2.0873    0.0000 H   0  0  0  0  0  0  0  0  0  0  0  0
    3.4033    1.3373    0.0000 C   0  0  1  0  0  0  0  0  0  0  0  0
    4.3674    2.4865    0.0000 H   0  0  0  0  0  0  0  0  0  0  0  0
    4.7033    0.5873    0.0000 C   0  0  0  0  0  0  0  0  0  0  0  0
    4.7033   -0.9127    0.0000 C   0  0  0  0  0  0  0  0  0  0  0  0
    3.4033   -1.6627    0.0000 C   0  0  0  0  0  0  0  0  0  0  0  0
    3.4033   -4.1227    0.0000 O   0  0  0  0  0  0  0  0  0  0  0  0
    2.1033   -0.9127    0.0000 C   0  0  1  0  0  0  0  0  0  0  0  0
    0.8033   -1.6627    0.0000 C   0  0  0  0  0  0  0  0  0  0  0  0
   -0.4967   -0.9127    0.0000 C   0  0  0  0  0  0  0  0  0  0  0  0
   -1.7967   -1.6627    0.0000 C   0  0  0  0  0  0  0  0  0  0  0  0
   -1.7992   -3.1627    0.0000 O   0  0  0  0  0  0  0  0  0  0  0  0
    0.8033   -3.1627    0.0000 O   0  0  0  0  0  0  0  0  0  0  0  0
    2.1023   -3.9127    0.0000 H   0  0  0  0  0  0  0  0  0  0  0  0
    2.1033   -2.4127    0.0000 O   0  0  0  0  0  0  0  0  0  0  0  0
    3.4023   -3.1627    0.0000 H   0  0  0  0  0  0  0  0  0  0  0  0
    6.0022   -1.6629    0.0000 C   0  0  0  0  0  0  0  0  0  0  0  0
    7.3014   -0.9131    0.0000 O   0  0  0  0  0  0  0  0  0  0  0  0
    6.0020   -3.1629    0.0000 N   0  0  0  0  0  0  0  0  0  0  0  0
    7.3009   -3.9131    0.0000 H   0  0  0  0  0  0  0  0  0  0  0  0
    4.7028   -3.9127    0.0000 H   0  0  0  0  0  0  0  0  0  0  0  0
    6.0022    1.3375    0.0000 O   0  0  0  0  0  0  0  0  0  0  0  0
    7.3014    0.5877    0.0000 H   0  0  0  0  0  0  0  0  0  0  0  0
    3.0597    3.2872    0.0000 N   0  0  0  0  0  0  0  0  0  0  0  0
    1.6502    3.8004    0.0000 C   0  0  0  0  0  0  0  0  0  0  0  0
    1.3899    5.2777    0.0000 H   0  0  0  0  0  0  0  0  0  0  0  0
    0.3512    4.5506    0.0000 H   0  0  0  0  0  0  0  0  0  0  0  0
    1.3896    2.3232    0.0000 H   0  0  0  0  0  0  0  0  0  0  0  0
    4.2089    4.2513    0.0000 C   0  0  0  0  0  0  0  0  0  0  0  0
    4.9590    5.5503    0.0000 H   0  0  0  0  0  0  0  0  0  0  0  0
    3.0599    5.2156    0.0000 H   0  0  0  0  0  0  0  0  0  0  0  0
    5.6183    3.7381    0.0000 O   0  0  0  0  0  0  0  0  0  0  0  0
    6.7675    4.7022    0.0000 H   0  0  0  0  0  0  0  0  0  0  0  0
   -4.3867   -3.1627    0.0000 O   0  0  0  0  0  0  0  0  0  0  0  0
   -5.6857   -3.9127    0.0000 H   0  0  0  0  0  0  0  0  0  0  0  0
  1  2  1  0  0  0  0 
  1  3  1  0  0  0  0 
  1  4  1  0  0  0  0 
  1  5  1  0  0  0  0 
  5  6  1  0  0  0  0 
  6  7  1  0  0  0  0 
  6  8  1  0  0  0  0 
  6  9  1  0  0  0  0 
  5 10  1  0  0  0  0 
 10 11  2  0  0  0  0 
 11 12  1  0  0  0  0 
 11 13  1  0  0  0  0 
 13 14  1  0  0  0  0 
 13 15  2  0  0  0  0 
 15 16  1  0  0  0  0 
 16 17  2  0  0  0  0 
 10 17  1  0  0  0  0 
 17 18  1  0  0  0  0 
 18 19  1  0  0  0  0 
 18 20  1  0  0  0  0 
 18 21  1  0  0  0  0 
 21 22  1  6  0  0  0 
 21 23  1  0  0  0  0 
 23 24  1  0  0  0  0 
 23 25  1  0  0  0  0 
 23 26  1  0  0  0  0 
 26 27  1  6  0  0  0 
 26 28  1  0  0  0  0 
 28 29  1  1  0  0  0 
 28 30  1  0  0  0  0 
 30 31  2  0  0  0  0 
 31 32  1  0  0  0  0 
 32 33  2  0  0  0  0 
 32 34  1  0  0  0  0 
 26 34  1  0  0  0  0 
 34 35  1  0  0  0  0 
 35 36  2  0  0  0  0 
 21 36  1  0  0  0  0 
 36 37  1  0  0  0  0 
 16 37  1  0  0  0  0 
 37 38  2  0  0  0  0 
 35 39  1  0  0  0  0 
 39 40  1  0  0  0  0 
 34 41  1  6  0  0  0 
 41 42  1  0  0  0  0 
 31 43  1  0  0  0  0 
 43 44  2  0  0  0  0 
 43 45  1  0  0  0  0 
 45 46  1  0  0  0  0 
 45 47  1  0  0  0  0 
 30 48  1  0  0  0  0 
 48 49  1  0  0  0  0 
 28 50  1  6  0  0  0 
 50 51  1  0  0  0  0 
 51 52  1  0  0  0  0 
 51 53  1  0  0  0  0 
 51 54  1  0  0  0  0 
 50 55  1  0  0  0  0 
 55 56  1  0  0  0  0 
 55 57  1  0  0  0  0 
 55 58  1  0  0  0  0 
 58 59  1  0  0  0  0 
 15 60  1  0  0  0  0 
 60 61  1  0  0  0  0 
M  END
> <Rank>
27

> <Priority_score>
0.084

> <Reaction_type>
aliphatic hydroxylation

> <Parent_ID>
31

> <Parent_InChI>
InChI=1S/C23H27N3O7/c1-25(2)12-5-6-13(27)15-10(12)7-9-8-11-17(26(3)4)19(29)16(22(24)32)21(31)23(11,33)20(30)14(9)18(15)28/h5-6,9,11,17,27,29-30,33H,7-8H2,1-4H3,(H2,24,32)

> <Parent_SMILES>
CN(C)c1ccc(O)c2c1C[C@H]1C[C@H]3[C@H](N(C)C)C(O)=C(C(N)=O)C(=O)[C@@]3(O)C(O)=C1C2=O

$$$$
Molecule 31_metabolite 29
  CDK     0516241031

 59 62  0  0  0  0  0  0  0  0999 V2000
   -6.5171    3.1073    0.0000 C   0  0  0  0  0  0  0  0  0  0  0  0
   -6.5171    4.6073    0.0000 H   0  0  0  0  0  0  0  0  0  0  0  0
   -7.9943    3.3678    0.0000 H   0  0  0  0  0  0  0  0  0  0  0  0
   -7.0302    1.6977    0.0000 H   0  0  0  0  0  0  0  0  0  0  0  0
   -5.2181    2.3573    0.0000 N   0  0  0  0  0  0  0  0  0  0  0  0
   -3.9190    3.1073    0.0000 C   0  0  0  0  0  0  0  0  0  0  0  0
   -2.6200    2.3573    0.0000 H   0  0  0  0  0  0  0  0  0  0  0  0
   -4.8832    4.2564    0.0000 H   0  0  0  0  0  0  0  0  0  0  0  0
   -2.9549    4.2564    0.0000 H   0  0  0  0  0  0  0  0  0  0  0  0
   -5.2181    0.8573    0.0000 C   0  0  0  0  0  0  0  0  0  0  0  0
   -6.5181    0.1073    0.0000 C   0  0  0  0  0  0  0  0  0  0  0  0
   -7.8170    0.8575    0.0000 H   0  0  0  0  0  0  0  0  0  0  0  0
   -6.5181   -1.3927    0.0000 C   0  0  0  0  0  0  0  0  0  0  0  0
   -7.8170   -2.1429    0.0000 H   0  0  0  0  0  0  0  0  0  0  0  0
   -5.2181   -2.1427    0.0000 C   0  0  0  0  0  0  0  0  0  0  0  0
   -3.9181   -1.3927    0.0000 C   0  0  0  0  0  0  0  0  0  0  0  0
   -3.9181    0.1073    0.0000 C   0  0  0  0  0  0  0  0  0  0  0  0
   -2.6281    0.8573    0.0000 C   0  0  0  0  0  0  0  0  0  0  0  0
   -1.6653    2.0075    0.0000 H   0  0  0  0  0  0  0  0  0  0  0  0
   -3.5947    2.0043    0.0000 H   0  0  0  0  0  0  0  0  0  0  0  0
   -1.3281    0.1073    0.0000 C   0  0  1  0  0  0  0  0  0  0  0  0
    0.8015   -1.1241    0.0000 H   0  0  0  0  0  0  0  0  0  0  0  0
   -0.0281    0.8573    0.0000 C   0  0  0  0  0  0  0  0  0  0  0  0
   -0.5404   -0.5525    0.0000 H   0  0  0  0  0  0  0  0  0  0  0  0
   -0.9921    2.0065    0.0000 H   0  0  0  0  0  0  0  0  0  0  0  0
    1.2719    0.1073    0.0000 C   0  0  1  0  0  0  0  0  0  0  0  0
    1.2719    1.6073    0.0000 H   0  0  0  0  0  0  0  0  0  0  0  0
    2.5719    0.8573    0.0000 C   0  0  1  0  0  0  0  0  0  0  0  0
    3.5360    2.0065    0.0000 H   0  0  0  0  0  0  0  0  0  0  0  0
    3.8719    0.1073    0.0000 C   0  0  0  0  0  0  0  0  0  0  0  0
    3.8719   -1.3927    0.0000 C   0  0  0  0  0  0  0  0  0  0  0  0
    2.5719   -2.1427    0.0000 C   0  0  0  0  0  0  0  0  0  0  0  0
    2.5719   -3.6427    0.0000 O   0  0  0  0  0  0  0  0  0  0  0  0
    1.2719   -1.3927    0.0000 C   0  0  1  0  0  0  0  0  0  0  0  0
   -0.0281   -2.1427    0.0000 C   0  0  0  0  0  0  0  0  0  0  0  0
   -1.3281   -1.3927    0.0000 C   0  0  0  0  0  0  0  0  0  0  0  0
   -2.6281   -2.1427    0.0000 C   0  0  0  0  0  0  0  0  0  0  0  0
   -2.6306   -3.6427    0.0000 O   0  0  0  0  0  0  0  0  0  0  0  0
   -0.0281   -3.6427    0.0000 O   0  0  0  0  0  0  0  0  0  0  0  0
    1.2710   -4.3927    0.0000 H   0  0  0  0  0  0  0  0  0  0  0  0
    1.2719   -2.8927    0.0000 O   0  0  0  0  0  0  0  0  0  0  0  0
    3.4023   -4.1227    0.0000 H   0  0  0  0  0  0  0  0  0  0  0  0
    5.1708   -2.1429    0.0000 C   0  0  0  0  0  0  0  0  0  0  0  0
    5.1706   -3.6429    0.0000 O   0  0  0  0  0  0  0  0  0  0  0  0
    6.4700   -1.3931    0.0000 O   0  0  0  0  0  0  0  0  0  0  0  0
    7.7689   -2.1433    0.0000 H   0  0  0  0  0  0  0  0  0  0  0  0
    5.1708    0.8575    0.0000 O   0  0  0  0  0  0  0  0  0  0  0  0
    6.4700    0.1077    0.0000 H   0  0  0  0  0  0  0  0  0  0  0  0
    2.2283    2.8072    0.0000 N   0  0  0  0  0  0  0  0  0  0  0  0
    3.3775    3.7713    0.0000 C   0  0  0  0  0  0  0  0  0  0  0  0
    4.7870    3.2581    0.0000 H   0  0  0  0  0  0  0  0  0  0  0  0
    4.1276    5.0703    0.0000 H   0  0  0  0  0  0  0  0  0  0  0  0
    2.2285    4.7356    0.0000 H   0  0  0  0  0  0  0  0  0  0  0  0
    0.8188    3.3204    0.0000 C   0  0  0  0  0  0  0  0  0  0  0  0
    0.5585    4.7977    0.0000 H   0  0  0  0  0  0  0  0  0  0  0  0
   -0.4801    4.0706    0.0000 H   0  0  0  0  0  0  0  0  0  0  0  0
    0.5582    1.8432    0.0000 H   0  0  0  0  0  0  0  0  0  0  0  0
   -5.2181   -3.6427    0.0000 O   0  0  0  0  0  0  0  0  0  0  0  0
   -6.5171   -4.3927    0.0000 H   0  0  0  0  0  0  0  0  0  0  0  0
  1  2  1  0  0  0  0 
  1  3  1  0  0  0  0 
  1  4  1  0  0  0  0 
  1  5  1  0  0  0  0 
  5  6  1  0  0  0  0 
  6  7  1  0  0  0  0 
  6  8  1  0  0  0  0 
  6  9  1  0  0  0  0 
  5 10  1  0  0  0  0 
 10 11  2  0  0  0  0 
 11 12  1  0  0  0  0 
 11 13  1  0  0  0  0 
 13 14  1  0  0  0  0 
 13 15  2  0  0  0  0 
 15 16  1  0  0  0  0 
 16 17  2  0  0  0  0 
 10 17  1  0  0  0  0 
 17 18  1  0  0  0  0 
 18 19  1  0  0  0  0 
 18 20  1  0  0  0  0 
 18 21  1  0  0  0  0 
 21 22  1  6  0  0  0 
 21 23  1  0  0  0  0 
 23 24  1  0  0  0  0 
 23 25  1  0  0  0  0 
 23 26  1  0  0  0  0 
 26 27  1  6  0  0  0 
 26 28  1  0  0  0  0 
 28 29  1  1  0  0  0 
 28 30  1  0  0  0  0 
 30 31  2  0  0  0  0 
 31 32  1  0  0  0  0 
 32 33  2  0  0  0  0 
 32 34  1  0  0  0  0 
 26 34  1  0  0  0  0 
 34 35  1  0  0  0  0 
 35 36  2  0  0  0  0 
 21 36  1  0  0  0  0 
 36 37  1  0  0  0  0 
 16 37  1  0  0  0  0 
 37 38  2  0  0  0  0 
 35 39  1  0  0  0  0 
 39 40  1  0  0  0  0 
 34 41  1  6  0  0  0 
 41 42  1  0  0  0  0 
 31 43  1  0  0  0  0 
 43 44  2  0  0  0  0 
 43 45  1  0  0  0  0 
 45 46  1  0  0  0  0 
 30 47  1  0  0  0  0 
 47 48  1  0  0  0  0 
 28 49  1  6  0  0  0 
 49 50  1  0  0  0  0 
 50 51  1  0  0  0  0 
 50 52  1  0  0  0  0 
 50 53  1  0  0  0  0 
 49 54  1  0  0  0  0 
 54 55  1  0  0  0  0 
 54 56  1  0  0  0  0 
 54 57  1  0  0  0  0 
 15 58  1  0  0  0  0 
 58 59  1  0  0  0  0 
M  END
> <Rank>
27

> <Priority_score>
0.084

> <Reaction_type>
hydrolysis_(primary_amide)

> <Parent_ID>
31

> <Parent_InChI>
InChI=1S/C23H27N3O7/c1-25(2)12-5-6-13(27)15-10(12)7-9-8-11-17(26(3)4)19(29)16(22(24)32)21(31)23(11,33)20(30)14(9)18(15)28/h5-6,9,11,17,27,29-30,33H,7-8H2,1-4H3,(H2,24,32)

> <Parent_SMILES>
CN(C)c1ccc(O)c2c1C[C@H]1C[C@H]3[C@H](N(C)C)C(O)=C(C(N)=O)C(=O)[C@@]3(O)C(O)=C1C2=O

$$$$
Molecule 31_metabolite 30
  CDK     0516241031

 97100  0  0  0  0  0  0  0  0999 V2000
   -4.7612    2.6776    0.0000 C   0  0  0  0  0  0  0  0  0  0  0  0
   -6.2383    2.9384    0.0000 H   0  0  0  0  0  0  0  0  0  0  0  0
   -4.7609    4.1776    0.0000 H   0  0  0  0  0  0  0  0  0  0  0  0
   -3.2839    2.9378    0.0000 H   0  0  0  0  0  0  0  0  0  0  0  0
   -4.2484    1.2679    0.0000 N   0  0  0  0  0  0  0  0  0  0  0  0
   -5.2129    0.1191    0.0000 C   0  0  0  0  0  0  0  0  0  0  0  0
   -4.7001   -1.2906    0.0000 H   0  0  0  0  0  0  0  0  0  0  0  0
   -6.1768    1.2684    0.0000 H   0  0  0  0  0  0  0  0  0  0  0  0
   -6.5121   -0.6306    0.0000 H   0  0  0  0  0  0  0  0  0  0  0  0
   -2.7713    1.0072    0.0000 C   0  0  0  0  0  0  0  0  0  0  0  0
   -1.8067    2.1570    0.0000 C   0  0  0  0  0  0  0  0  0  0  0  0
   -2.3197    3.5665    0.0000 H   0  0  0  0  0  0  0  0  0  0  0  0
   -0.3295    1.8962    0.0000 C   0  0  0  0  0  0  0  0  0  0  0  0
    0.6351    3.0449    0.0000 H   0  0  0  0  0  0  0  0  0  0  0  0
    0.1830    0.4856    0.0000 C   0  0  0  0  0  0  0  0  0  0  0  0
   -0.7816   -0.6642    0.0000 C   0  0  0  0  0  0  0  0  0  0  0  0
   -2.2587   -0.4034    0.0000 C   0  0  0  0  0  0  0  0  0  0  0  0
   -3.2233   -1.5532    0.0000 C   0  0  0  0  0  0  0  0  0  0  0  0
   -4.5226   -2.3028    0.0000 H   0  0  0  0  0  0  0  0  0  0  0  0
   -4.1874   -0.4041    0.0000 H   0  0  0  0  0  0  0  0  0  0  0  0
   -2.7108   -2.9638    0.0000 C   0  0  1  0  0  0  0  0  0  0  0  0
   -5.6060   -2.4527    0.0000 H   0  0  0  0  0  0  0  0  0  0  0  0
   -3.6754   -4.1136    0.0000 C   0  0  0  0  0  0  0  0  0  0  0  0
   -2.1979   -3.8543    0.0000 H   0  0  0  0  0  0  0  0  0  0  0  0
   -4.6394   -2.9645    0.0000 H   0  0  0  0  0  0  0  0  0  0  0  0
   -3.1628   -5.5242    0.0000 C   0  0  1  0  0  0  0  0  0  0  0  0
   -4.6399   -5.2635    0.0000 H   0  0  0  0  0  0  0  0  0  0  0  0
   -4.1274   -6.6741    0.0000 C   0  0  1  0  0  0  0  0  0  0  0  0
   -5.4267   -7.4236    0.0000 H   0  0  0  0  0  0  0  0  0  0  0  0
   -3.6148   -8.0846    0.0000 C   0  0  0  0  0  0  0  0  0  0  0  0
   -2.1377   -8.3454    0.0000 C   0  0  0  0  0  0  0  0  0  0  0  0
   -1.1731   -7.1956    0.0000 C   0  0  0  0  0  0  0  0  0  0  0  0
    0.3041   -7.4564    0.0000 O   0  0  0  0  0  0  0  0  0  0  0  0
   -1.6856   -5.7850    0.0000 C   0  0  1  0  0  0  0  0  0  0  0  0
   -0.7210   -4.6352    0.0000 C   0  0  0  0  0  0  0  0  0  0  0  0
   -1.2336   -3.2246    0.0000 C   0  0  0  0  0  0  0  0  0  0  0  0
    0.2436   -3.4854    0.0000 H   0  0  0  0  0  0  0  0  0  0  0  0
   -0.2690   -2.0748    0.0000 C   0  0  0  0  0  0  0  0  0  0  0  0
    1.2081   -2.3356    0.0000 O   0  0  0  0  0  0  0  0  0  0  0  0
    1.4098   -3.4059    0.0000 O   0  0  0  0  0  0  0  0  0  0  0  0
    2.7086   -4.1563    0.0000 H   0  0  0  0  0  0  0  0  0  0  0  0
    1.1685   -6.8876    0.0000 S   0  0  0  0  0  0  0  0  0  0  0  0
    3.1185   -6.5440    0.0000 C   0  0  0  0  0  0  0  0  0  0  0  0
    2.6056   -5.1344    0.0000 H   0  0  0  0  0  0  0  0  0  0  0  0
    4.4176   -5.7941    0.0000 H   0  0  0  0  0  0  0  0  0  0  0  0
    4.6995   -8.4286    0.0000 C   0  0  0  0  0  0  0  0  0  0  0  0
    5.9985   -9.1788    0.0000 H   0  0  0  0  0  0  0  0  0  0  0  0
    6.2810   -6.5443    0.0000 C   0  0  0  0  0  0  0  0  0  0  0  0
    5.7681   -5.1347    0.0000 O   0  0  0  0  0  0  0  0  0  0  0  0
    7.7582   -6.8050    0.0000 N   0  0  0  0  0  0  0  0  0  0  0  0
    8.2710   -8.2145    0.0000 H   0  0  0  0  0  0  0  0  0  0  0  0
    8.7225   -5.6560    0.0000 C   0  0  0  0  0  0  0  0  0  0  0  0
    7.4235   -4.9058    0.0000 H   0  0  0  0  0  0  0  0  0  0  0  0
    9.2357   -4.2465    0.0000 H   0  0  0  0  0  0  0  0  0  0  0  0
   10.1997   -5.9166    0.0000 C   0  0  0  0  0  0  0  0  0  0  0  0
   10.7125   -7.3262    0.0000 O   0  0  0  0  0  0  0  0  0  0  0  0
   11.1640   -4.7677    0.0000 O   0  0  0  0  0  0  0  0  0  0  0  0
   12.6411   -5.0283    0.0000 H   0  0  0  0  0  0  0  0  0  0  0  0
    4.1863   -9.8381    0.0000 N   0  0  0  0  0  0  0  0  0  0  0  0
    2.7091  -10.0984    0.0000 H   0  0  0  0  0  0  0  0  0  0  0  0
    5.1504  -10.9873    0.0000 C   0  0  0  0  0  0  0  0  0  0  0  0
    6.6276  -10.7270    0.0000 O   0  0  0  0  0  0  0  0  0  0  0  0
    4.6372  -12.3968    0.0000 C   0  0  0  0  0  0  0  0  0  0  0  0
    3.3383  -11.6466    0.0000 H   0  0  0  0  0  0  0  0  0  0  0  0
    3.6729  -13.5457    0.0000 H   0  0  0  0  0  0  0  0  0  0  0  0
    6.2183  -14.2814    0.0000 C   0  0  0  0  0  0  0  0  0  0  0  0
    7.5172  -15.0315    0.0000 H   0  0  0  0  0  0  0  0  0  0  0  0
    7.1826  -13.1324    0.0000 H   0  0  0  0  0  0  0  0  0  0  0  0
    5.7051  -15.6909    0.0000 C   0  0  0  0  0  0  0  0  0  0  0  0
    4.4061  -14.9407    0.0000 H   0  0  0  0  0  0  0  0  0  0  0  0
    6.6692  -16.8401    0.0000 C   0  0  0  0  0  0  0  0  0  0  0  0
    8.1464  -16.5797    0.0000 O   0  0  0  0  0  0  0  0  0  0  0  0
    6.1560  -18.2495    0.0000 O   0  0  0  0  0  0  0  0  0  0  0  0
    7.1200  -19.3987    0.0000 H   0  0  0  0  0  0  0  0  0  0  0  0
    4.7408  -16.8398    0.0000 N   0  0  0  0  0  0  0  0  0  0  0  0
    5.2537  -18.2494    0.0000 H   0  0  0  0  0  0  0  0  0  0  0  0
    3.2636  -16.5792    0.0000 H   0  0  0  0  0  0  0  0  0  0  0  0
   -0.2085   -6.0458    0.0000 O   0  0  0  0  0  0  0  0  0  0  0  0
    0.7559   -4.8970    0.0000 H   0  0  0  0  0  0  0  0  0  0  0  0
   -1.6247   -9.7550    0.0000 C   0  0  0  0  0  0  0  0  0  0  0  0
   -0.1475  -10.0156    0.0000 O   0  0  0  0  0  0  0  0  0  0  0  0
   -2.5890  -10.9040    0.0000 N   0  0  0  0  0  0  0  0  0  0  0  0
   -2.0760  -12.3136    0.0000 H   0  0  0  0  0  0  0  0  0  0  0  0
   -4.0662  -10.6435    0.0000 H   0  0  0  0  0  0  0  0  0  0  0  0
   -4.5794   -9.2334    0.0000 O   0  0  0  0  0  0  0  0  0  0  0  0
   -6.0566   -8.9723    0.0000 H   0  0  0  0  0  0  0  0  0  0  0  0
   -5.0914   -5.5249    0.0000 N   0  0  0  0  0  0  0  0  0  0  0  0
   -6.5687   -5.7852    0.0000 C   0  0  0  0  0  0  0  0  0  0  0  0
   -7.0819   -7.1947    0.0000 H   0  0  0  0  0  0  0  0  0  0  0  0
   -6.5685   -4.2852    0.0000 H   0  0  0  0  0  0  0  0  0  0  0  0
   -8.0459   -5.5246    0.0000 H   0  0  0  0  0  0  0  0  0  0  0  0
   -4.5783   -4.1154    0.0000 C   0  0  0  0  0  0  0  0  0  0  0  0
   -6.4678   -1.8630    0.0000 H   0  0  0  0  0  0  0  0  0  0  0  0
   -3.6140   -2.9664    0.0000 H   0  0  0  0  0  0  0  0  0  0  0  0
   -3.2793   -4.8655    0.0000 H   0  0  0  0  0  0  0  0  0  0  0  0
    1.6602    0.2248    0.0000 O   0  0  0  0  0  0  0  0  0  0  0  0
    2.6246    1.3737    0.0000 H   0  0  0  0  0  0  0  0  0  0  0  0
  1  2  1  0  0  0  0 
  1  3  1  0  0  0  0 
  1  4  1  0  0  0  0 
  1  5  1  0  0  0  0 
  5  6  1  0  0  0  0 
  6  7  1  0  0  0  0 
  6  8  1  0  0  0  0 
  6  9  1  0  0  0  0 
  5 10  1  0  0  0  0 
 10 11  2  0  0  0  0 
 11 12  1  0  0  0  0 
 11 13  1  0  0  0  0 
 13 14  1  0  0  0  0 
 13 15  2  0  0  0  0 
 15 16  1  0  0  0  0 
 16 17  2  0  0  0  0 
 10 17  1  0  0  0  0 
 17 18  1  0  0  0  0 
 18 19  1  0  0  0  0 
 18 20  1  0  0  0  0 
 18 21  1  0  0  0  0 
 21 22  1  1  0  0  0 
 21 23  1  0  0  0  0 
 23 24  1  0  0  0  0 
 23 25  1  0  0  0  0 
 23 26  1  0  0  0  0 
 26 27  1  1  0  0  0 
 26 28  1  0  0  0  0 
 28 29  1  6  0  0  0 
 28 30  1  0  0  0  0 
 30 31  2  0  0  0  0 
 31 32  1  0  0  0  0 
 32 33  2  0  0  0  0 
 32 34  1  0  0  0  0 
 26 34  1  0  0  0  0 
 34 35  1  0  0  0  0 
 35 36  1  0  0  0  0 
 21 36  1  0  0  0  0 
 36 37  1  0  0  0  0 
 36 38  1  0  0  0  0 
 16 38  1  0  0  0  0 
 38 39  2  0  0  0  0 
 35 40  1  0  0  0  0 
 40 41  1  0  0  0  0 
 35 42  1  0  0  0  0 
 42 43  1  0  0  0  0 
 43 44  1  0  0  0  0 
 43 45  1  0  0  0  0 
 43 46  1  0  0  0  0 
 46 47  1  0  0  0  0 
 46 48  1  0  0  0  0 
 48 49  2  0  0  0  0 
 48 50  1  0  0  0  0 
 50 51  1  0  0  0  0 
 50 52  1  0  0  0  0 
 52 53  1  0  0  0  0 
 52 54  1  0  0  0  0 
 52 55  1  0  0  0  0 
 55 56  2  0  0  0  0 
 55 57  1  0  0  0  0 
 57 58  1  0  0  0  0 
 46 59  1  0  0  0  0 
 59 60  1  0  0  0  0 
 59 61  1  0  0  0  0 
 61 62  2  0  0  0  0 
 61 63  1  0  0  0  0 
 63 64  1  0  0  0  0 
 63 65  1  0  0  0  0 
 63 66  1  0  0  0  0 
 66 67  1  0  0  0  0 
 66 68  1  0  0  0  0 
 66 69  1  0  0  0  0 
 69 70  1  0  0  0  0 
 69 71  1  0  0  0  0 
 71 72  2  0  0  0  0 
 71 73  1  0  0  0  0 
 73 74  1  0  0  0  0 
 69 75  1  0  0  0  0 
 75 76  1  0  0  0  0 
 75 77  1  0  0  0  0 
 34 78  1  1  0  0  0 
 78 79  1  0  0  0  0 
 31 80  1  0  0  0  0 
 80 81  2  0  0  0  0 
 80 82  1  0  0  0  0 
 82 83  1  0  0  0  0 
 82 84  1  0  0  0  0 
 30 85  1  0  0  0  0 
 85 86  1  0  0  0  0 
 28 87  1  1  0  0  0 
 87 88  1  0  0  0  0 
 88 89  1  0  0  0  0 
 88 90  1  0  0  0  0 
 88 91  1  0  0  0  0 
 87 92  1  0  0  0  0 
 92 93  1  0  0  0  0 
 92 94  1  0  0  0  0 
 92 95  1  0  0  0  0 
 15 96  1  0  0  0  0 
 96 97  1  0  0  0  0 
M  END
> <Rank>
30

> <Priority_score>
0.08

> <Reaction_type>
glutathione_conjugation_(alpha,beta-unsaturated_carbonyl)

> <Parent_ID>
31

> <Parent_InChI>
InChI=1S/C23H27N3O7/c1-25(2)12-5-6-13(27)15-10(12)7-9-8-11-17(26(3)4)19(29)16(22(24)32)21(31)23(11,33)20(30)14(9)18(15)28/h5-6,9,11,17,27,29-30,33H,7-8H2,1-4H3,(H2,24,32)

> <Parent_SMILES>
CN(C)c1ccc(O)c2c1C[C@H]1C[C@H]3[C@H](N(C)C)C(O)=C(C(N)=O)C(=O)[C@@]3(O)C(O)=C1C2=O

$$$$
Molecule 31_metabolite 31
  CDK     0516241031

 80 84  0  0  0  0  0  0  0  0999 V2000
   -6.1368    3.2715    0.0000 C   0  0  0  0  0  0  0  0  0  0  0  0
   -6.1368    4.7715    0.0000 H   0  0  0  0  0  0  0  0  0  0  0  0
   -7.6140    3.5320    0.0000 H   0  0  0  0  0  0  0  0  0  0  0  0
   -6.6498    1.8620    0.0000 H   0  0  0  0  0  0  0  0  0  0  0  0
   -4.8377    2.5215    0.0000 N   0  0  0  0  0  0  0  0  0  0  0  0
   -3.5387    3.2715    0.0000 C   0  0  0  0  0  0  0  0  0  0  0  0
   -2.2397    2.5215    0.0000 H   0  0  0  0  0  0  0  0  0  0  0  0
   -4.5029    4.4206    0.0000 H   0  0  0  0  0  0  0  0  0  0  0  0
   -2.5745    4.4206    0.0000 H   0  0  0  0  0  0  0  0  0  0  0  0
   -4.8377    1.0215    0.0000 C   0  0  0  0  0  0  0  0  0  0  0  0
   -6.1377    0.2715    0.0000 C   0  0  0  0  0  0  0  0  0  0  0  0
   -7.4367    1.0217    0.0000 H   0  0  0  0  0  0  0  0  0  0  0  0
   -6.1377   -1.2285    0.0000 C   0  0  0  0  0  0  0  0  0  0  0  0
   -7.4367   -1.9787    0.0000 H   0  0  0  0  0  0  0  0  0  0  0  0
   -4.8377   -1.9785    0.0000 C   0  0  0  0  0  0  0  0  0  0  0  0
   -3.5377   -1.2285    0.0000 C   0  0  0  0  0  0  0  0  0  0  0  0
   -3.5377    0.2715    0.0000 C   0  0  0  0  0  0  0  0  0  0  0  0
   -2.2477    1.0215    0.0000 C   0  0  0  0  0  0  0  0  0  0  0  0
   -1.2850    2.1717    0.0000 H   0  0  0  0  0  0  0  0  0  0  0  0
   -3.2144    2.1685    0.0000 H   0  0  0  0  0  0  0  0  0  0  0  0
   -0.9477    0.2715    0.0000 C   0  0  1  0  0  0  0  0  0  0  0  0
   -0.9477    3.2115    0.0000 H   0  0  0  0  0  0  0  0  0  0  0  0
    0.3523    1.0215    0.0000 C   0  0  0  0  0  0  0  0  0  0  0  0
   -0.1600   -0.3883    0.0000 H   0  0  0  0  0  0  0  0  0  0  0  0
   -0.6118    2.1707    0.0000 H   0  0  0  0  0  0  0  0  0  0  0  0
    1.6523    0.2715    0.0000 C   0  0  1  0  0  0  0  0  0  0  0  0
    1.6523    1.7715    0.0000 H   0  0  0  0  0  0  0  0  0  0  0  0
    2.9523    1.0215    0.0000 C   0  0  1  0  0  0  0  0  0  0  0  0
    3.9163    2.1707    0.0000 H   0  0  0  0  0  0  0  0  0  0  0  0
    4.2523    0.2715    0.0000 C   0  0  0  0  0  0  0  0  0  0  0  0
    4.2523   -1.2285    0.0000 C   0  0  0  0  0  0  0  0  0  0  0  0
    2.9523   -1.9785    0.0000 C   0  0  0  0  0  0  0  0  0  0  0  0
    2.9523   -4.4385    0.0000 O   0  0  0  0  0  0  0  0  0  0  0  0
    1.6523   -1.2285    0.0000 C   0  0  1  0  0  0  0  0  0  0  0  0
    0.3523   -1.9785    0.0000 C   0  0  0  0  0  0  0  0  0  0  0  0
   -0.9477   -1.2285    0.0000 C   0  0  0  0  0  0  0  0  0  0  0  0
   -2.2477   -1.9785    0.0000 C   0  0  0  0  0  0  0  0  0  0  0  0
   -2.2502   -3.4785    0.0000 O   0  0  0  0  0  0  0  0  0  0  0  0
    0.3523   -3.4785    0.0000 O   0  0  0  0  0  0  0  0  0  0  0  0
    1.6513   -4.2285    0.0000 H   0  0  0  0  0  0  0  0  0  0  0  0
    1.6523   -2.7285    0.0000 O   0  0  0  0  0  0  0  0  0  0  0  0
    2.9513   -3.4785    0.0000 H   0  0  0  0  0  0  0  0  0  0  0  0
    5.5512   -1.9787    0.0000 C   0  0  0  0  0  0  0  0  0  0  0  0
    6.8503   -1.2289    0.0000 O   0  0  0  0  0  0  0  0  0  0  0  0
    5.5509   -3.4787    0.0000 N   0  0  0  0  0  0  0  0  0  0  0  0
    4.2518   -4.2285    0.0000 H   0  0  0  0  0  0  0  0  0  0  0  0
    6.8499   -4.2289    0.0000 C   0  0  0  0  0  0  0  0  0  0  0  0
    7.3633   -2.8195    0.0000 H   0  0  0  0  0  0  0  0  0  0  0  0
    8.3270   -4.4899    0.0000 C   0  0  0  0  0  0  0  0  0  0  0  0
    8.3277   -2.9899    0.0000 H   0  0  0  0  0  0  0  0  0  0  0  0
    8.8393   -5.9006    0.0000 C   0  0  0  0  0  0  0  0  0  0  0  0
   10.1387   -5.1512    0.0000 H   0  0  0  0  0  0  0  0  0  0  0  0
    7.8745   -7.0503    0.0000 C   0  0  0  0  0  0  0  0  0  0  0  0
    9.1735   -7.8005    0.0000 H   0  0  0  0  0  0  0  0  0  0  0  0
    6.3974   -6.7892    0.0000 C   0  0  0  0  0  0  0  0  0  0  0  0
    6.3967   -8.2892    0.0000 H   0  0  0  0  0  0  0  0  0  0  0  0
    4.9201   -7.0489    0.0000 C   0  0  0  0  0  0  0  0  0  0  0  0
    3.9565   -5.8992    0.0000 O   0  0  0  0  0  0  0  0  0  0  0  0
    4.4062   -8.4581    0.0000 O   0  0  0  0  0  0  0  0  0  0  0  0
    5.3697   -9.6077    0.0000 H   0  0  0  0  0  0  0  0  0  0  0  0
    5.8851   -5.3786    0.0000 O   0  0  0  0  0  0  0  0  0  0  0  0
    7.3611   -8.4597    0.0000 O   0  0  0  0  0  0  0  0  0  0  0  0
    8.3250   -9.6090    0.0000 H   0  0  0  0  0  0  0  0  0  0  0  0
    9.8032   -7.0499    0.0000 O   0  0  0  0  0  0  0  0  0  0  0  0
   11.2805   -6.7899    0.0000 H   0  0  0  0  0  0  0  0  0  0  0  0
    9.8043   -4.2303    0.0000 O   0  0  0  0  0  0  0  0  0  0  0  0
   10.3182   -2.8211    0.0000 H   0  0  0  0  0  0  0  0  0  0  0  0
    5.5512    1.0217    0.0000 O   0  0  0  0  0  0  0  0  0  0  0  0
    6.8503    0.2719    0.0000 H   0  0  0  0  0  0  0  0  0  0  0  0
    2.6920    2.4987    0.0000 N   0  0  0  0  0  0  0  0  0  0  0  0
    4.2089    3.7713    0.0000 C   0  0  0  0  0  0  0  0  0  0  0  0
    5.6183    3.2581    0.0000 H   0  0  0  0  0  0  0  0  0  0  0  0
    3.0599    4.7356    0.0000 H   0  0  0  0  0  0  0  0  0  0  0  0
    4.9590    5.0703    0.0000 H   0  0  0  0  0  0  0  0  0  0  0  0
    1.2825    3.0119    0.0000 C   0  0  0  0  0  0  0  0  0  0  0  0
    0.1333    2.0479    0.0000 H   0  0  0  0  0  0  0  0  0  0  0  0
    0.1335    3.9762    0.0000 H   0  0  0  0  0  0  0  0  0  0  0  0
    2.0326    4.3109    0.0000 H   0  0  0  0  0  0  0  0  0  0  0  0
   -4.8377   -3.4785    0.0000 O   0  0  0  0  0  0  0  0  0  0  0  0
   -6.1368   -4.2285    0.0000 H   0  0  0  0  0  0  0  0  0  0  0  0
  1  2  1  0  0  0  0 
  1  3  1  0  0  0  0 
  1  4  1  0  0  0  0 
  1  5  1  0  0  0  0 
  5  6  1  0  0  0  0 
  6  7  1  0  0  0  0 
  6  8  1  0  0  0  0 
  6  9  1  0  0  0  0 
  5 10  1  0  0  0  0 
 10 11  2  0  0  0  0 
 11 12  1  0  0  0  0 
 11 13  1  0  0  0  0 
 13 14  1  0  0  0  0 
 13 15  2  0  0  0  0 
 15 16  1  0  0  0  0 
 16 17  2  0  0  0  0 
 10 17  1  0  0  0  0 
 17 18  1  0  0  0  0 
 18 19  1  0  0  0  0 
 18 20  1  0  0  0  0 
 18 21  1  0  0  0  0 
 21 22  1  6  0  0  0 
 21 23  1  0  0  0  0 
 23 24  1  0  0  0  0 
 23 25  1  0  0  0  0 
 23 26  1  0  0  0  0 
 26 27  1  6  0  0  0 
 26 28  1  0  0  0  0 
 28 29  1  1  0  0  0 
 28 30  1  0  0  0  0 
 30 31  2  0  0  0  0 
 31 32  1  0  0  0  0 
 32 33  2  0  0  0  0 
 32 34  1  0  0  0  0 
 26 34  1  0  0  0  0 
 34 35  1  0  0  0  0 
 35 36  2  0  0  0  0 
 21 36  1  0  0  0  0 
 36 37  1  0  0  0  0 
 16 37  1  0  0  0  0 
 37 38  2  0  0  0  0 
 35 39  1  0  0  0  0 
 39 40  1  0  0  0  0 
 34 41  1  6  0  0  0 
 41 42  1  0  0  0  0 
 31 43  1  0  0  0  0 
 43 44  2  0  0  0  0 
 43 45  1  0  0  0  0 
 45 46  1  0  0  0  0 
 45 47  1  0  0  0  0 
 47 48  1  0  0  0  0 
 47 49  1  0  0  0  0 
 49 50  1  0  0  0  0 
 49 51  1  0  0  0  0 
 51 52  1  0  0  0  0 
 51 53  1  0  0  0  0 
 53 54  1  0  0  0  0 
 53 55  1  0  0  0  0 
 55 56  1  0  0  0  0 
 55 57  1  0  0  0  0 
 57 58  2  0  0  0  0 
 57 59  1  0  0  0  0 
 59 60  1  0  0  0  0 
 55 61  1  0  0  0  0 
 47 61  1  0  0  0  0 
 53 62  1  0  0  0  0 
 62 63  1  0  0  0  0 
 51 64  1  0  0  0  0 
 64 65  1  0  0  0  0 
 49 66  1  0  0  0  0 
 66 67  1  0  0  0  0 
 30 68  1  0  0  0  0 
 68 69  1  0  0  0  0 
 28 70  1  6  0  0  0 
 70 71  1  0  0  0  0 
 71 72  1  0  0  0  0 
 71 73  1  0  0  0  0 
 71 74  1  0  0  0  0 
 70 75  1  0  0  0  0 
 75 76  1  0  0  0  0 
 75 77  1  0  0  0  0 
 75 78  1  0  0  0  0 
 15 79  1  0  0  0  0 
 79 80  1  0  0  0  0 
M  END
> <Rank>
31

> <Priority_score>
0.068

> <Reaction_type>
N-glucuronidation_(aliphatic_NH2)

> <Parent_ID>
31

> <Parent_InChI>
InChI=1S/C23H27N3O7/c1-25(2)12-5-6-13(27)15-10(12)7-9-8-11-17(26(3)4)19(29)16(22(24)32)21(31)23(11,33)20(30)14(9)18(15)28/h5-6,9,11,17,27,29-30,33H,7-8H2,1-4H3,(H2,24,32)

> <Parent_SMILES>
CN(C)c1ccc(O)c2c1C[C@H]1C[C@H]3[C@H](N(C)C)C(O)=C(C(N)=O)C(=O)[C@@]3(O)C(O)=C1C2=O

$$$$
Molecule 31_metabolite 32
  CDK     0516241031

 61 64  0  0  0  0  0  0  0  0999 V2000
    8.9342    3.7577    0.0000 C   0  0  0  0  0  0  0  0  0  0  0  0
    8.9342    5.2577    0.0000 H   0  0  0  0  0  0  0  0  0  0  0  0
    9.4472    2.3482    0.0000 H   0  0  0  0  0  0  0  0  0  0  0  0
   10.4114    4.0182    0.0000 H   0  0  0  0  0  0  0  0  0  0  0  0
    7.6351    3.0077    0.0000 N   0  0  0  0  0  0  0  0  0  0  0  0
    6.3361    3.7577    0.0000 C   0  0  0  0  0  0  0  0  0  0  0  0
    5.0370    3.0077    0.0000 H   0  0  0  0  0  0  0  0  0  0  0  0
    5.3719    4.9068    0.0000 H   0  0  0  0  0  0  0  0  0  0  0  0
    7.3003    4.9068    0.0000 H   0  0  0  0  0  0  0  0  0  0  0  0
    7.6351    1.5077    0.0000 C   0  0  0  0  0  0  0  0  0  0  0  0
    6.3351    0.7577    0.0000 C   0  0  0  0  0  0  0  0  0  0  0  0
    5.0351    1.5077    0.0000 C   0  0  0  0  0  0  0  0  0  0  0  0
    5.9992    2.6569    0.0000 H   0  0  0  0  0  0  0  0  0  0  0  0
    3.1456    3.7601    0.0000 H   0  0  0  0  0  0  0  0  0  0  0  0
    3.7351    0.7577    0.0000 C   0  0  1  0  0  0  0  0  0  0  0  0
    2.4366    0.0069    0.0000 H   0  0  0  0  0  0  0  0  0  0  0  0
    2.4351    1.5077    0.0000 C   0  0  0  0  0  0  0  0  0  0  0  0
    3.3992    2.6569    0.0000 H   0  0  0  0  0  0  0  0  0  0  0  0
    1.4711    2.6569    0.0000 H   0  0  0  0  0  0  0  0  0  0  0  0
    1.1351    0.7577    0.0000 C   0  0  1  0  0  0  0  0  0  0  0  0
   -0.1634    0.0069    0.0000 H   0  0  0  0  0  0  0  0  0  0  0  0
   -0.1649    1.5077    0.0000 C   0  0  1  0  0  0  0  0  0  0  0  0
    0.7992    2.6569    0.0000 H   0  0  0  0  0  0  0  0  0  0  0  0
   -1.4649    0.7577    0.0000 C   0  0  0  0  0  0  0  0  0  0  0  0
   -1.4649   -0.7423    0.0000 C   0  0  0  0  0  0  0  0  0  0  0  0
   -0.1649   -1.4923    0.0000 C   0  0  0  0  0  0  0  0  0  0  0  0
   -0.1649   -3.9523    0.0000 O   0  0  0  0  0  0  0  0  0  0  0  0
    1.1351   -0.7423    0.0000 C   0  0  1  0  0  0  0  0  0  0  0  0
    2.4351   -1.4923    0.0000 C   0  0  0  0  0  0  0  0  0  0  0  0
    3.7351   -0.7423    0.0000 C   0  0  0  0  0  0  0  0  0  0  0  0
    5.0351   -1.4923    0.0000 C   0  0  0  0  0  0  0  0  0  0  0  0
    5.0351   -2.9923    0.0000 O   0  0  0  0  0  0  0  0  0  0  0  0
    6.3351   -0.7423    0.0000 C   0  0  0  0  0  0  0  0  0  0  0  0
    7.6351   -1.4923    0.0000 C   0  0  0  0  0  0  0  0  0  0  0  0
    8.9351   -0.7423    0.0000 C   0  0  0  0  0  0  0  0  0  0  0  0
   10.2340   -1.4925    0.0000 H   0  0  0  0  0  0  0  0  0  0  0  0
    8.9351    0.7577    0.0000 C   0  0  0  0  0  0  0  0  0  0  0  0
   10.2340    1.5079    0.0000 O   0  0  0  0  0  0  0  0  0  0  0  0
   11.5332    0.7581    0.0000 H   0  0  0  0  0  0  0  0  0  0  0  0
    7.6351   -2.9923    0.0000 O   0  0  0  0  0  0  0  0  0  0  0  0
    8.9342   -3.7423    0.0000 H   0  0  0  0  0  0  0  0  0  0  0  0
    2.4351   -2.9923    0.0000 O   0  0  0  0  0  0  0  0  0  0  0  0
    1.1361   -3.7423    0.0000 H   0  0  0  0  0  0  0  0  0  0  0  0
    1.1351   -2.2423    0.0000 O   0  0  0  0  0  0  0  0  0  0  0  0
   -0.1639   -2.9923    0.0000 H   0  0  0  0  0  0  0  0  0  0  0  0
   -2.7638   -1.4925    0.0000 C   0  0  0  0  0  0  0  0  0  0  0  0
   -4.0630   -0.7427    0.0000 O   0  0  0  0  0  0  0  0  0  0  0  0
   -2.7636   -2.9925    0.0000 N   0  0  0  0  0  0  0  0  0  0  0  0
   -4.0625   -3.7427    0.0000 H   0  0  0  0  0  0  0  0  0  0  0  0
   -1.4644   -3.7423    0.0000 H   0  0  0  0  0  0  0  0  0  0  0  0
   -2.7638    1.5079    0.0000 O   0  0  0  0  0  0  0  0  0  0  0  0
   -5.3101    0.0383    0.0000 H   0  0  0  0  0  0  0  0  0  0  0  0
   -1.7459    3.3924    0.0000 N   0  0  0  0  0  0  0  0  0  0  0  0
   -4.1686    2.9655    0.0000 C   0  0  0  0  0  0  0  0  0  0  0  0
   -5.1327    4.1146    0.0000 H   0  0  0  0  0  0  0  0  0  0  0  0
   -5.4677    2.2156    0.0000 H   0  0  0  0  0  0  0  0  0  0  0  0
   -3.6557    1.5559    0.0000 H   0  0  0  0  0  0  0  0  0  0  0  0
   -1.2328    4.8019    0.0000 C   0  0  0  0  0  0  0  0  0  0  0  0
    0.2445    5.0622    0.0000 H   0  0  0  0  0  0  0  0  0  0  0  0
   -2.7099    5.0625    0.0000 H   0  0  0  0  0  0  0  0  0  0  0  0
   -1.2326    6.3019    0.0000 H   0  0  0  0  0  0  0  0  0  0  0  0
  1  2  1  0  0  0  0 
  1  3  1  0  0  0  0 
  1  4  1  0  0  0  0 
  1  5  1  0  0  0  0 
  5  6  1  0  0  0  0 
  6  7  1  0  0  0  0 
  6  8  1  0  0  0  0 
  6  9  1  0  0  0  0 
  5 10  1  0  0  0  0 
 10 11  2  0  0  0  0 
 11 12  1  0  0  0  0 
 12 13  1  0  0  0  0 
 12 14  1  0  0  0  0 
 12 15  1  0  0  0  0 
 15 16  1  1  0  0  0 
 15 17  1  0  0  0  0 
 17 18  1  0  0  0  0 
 17 19  1  0  0  0  0 
 17 20  1  0  0  0  0 
 20 21  1  1  0  0  0 
 20 22  1  0  0  0  0 
 22 23  1  6  0  0  0 
 22 24  1  0  0  0  0 
 24 25  2  0  0  0  0 
 25 26  1  0  0  0  0 
 26 27  2  0  0  0  0 
 26 28  1  0  0  0  0 
 20 28  1  0  0  0  0 
 28 29  1  0  0  0  0 
 29 30  2  0  0  0  0 
 15 30  1  0  0  0  0 
 30 31  1  0  0  0  0 
 31 32  2  0  0  0  0 
 31 33  1  0  0  0  0 
 11 33  1  0  0  0  0 
 33 34  2  0  0  0  0 
 34 35  1  0  0  0  0 
 35 36  1  0  0  0  0 
 35 37  2  0  0  0  0 
 10 37  1  0  0  0  0 
 37 38  1  0  0  0  0 
 38 39  1  0  0  0  0 
 34 40  1  0  0  0  0 
 40 41  1  0  0  0  0 
 29 42  1  0  0  0  0 
 42 43  1  0  0  0  0 
 28 44  1  1  0  0  0 
 44 45  1  0  0  0  0 
 25 46  1  0  0  0  0 
 46 47  2  0  0  0  0 
 46 48  1  0  0  0  0 
 48 49  1  0  0  0  0 
 48 50  1  0  0  0  0 
 24 51  1  0  0  0  0 
 51 52  1  0  0  0  0 
 22 53  1  1  0  0  0 
 53 54  1  0  0  0  0 
 54 55  1  0  0  0  0 
 54 56  1  0  0  0  0 
 54 57  1  0  0  0  0 
 53 58  1  0  0  0  0 
 58 59  1  0  0  0  0 
 58 60  1  0  0  0  0 
 58 61  1  0  0  0  0 
M  END
> <Rank>
32

> <Priority_score>
0.064

> <Reaction_type>
aromatic_hydroxylation_(para_to_carbon)

> <Parent_ID>
31

> <Parent_InChI>
InChI=1S/C23H27N3O7/c1-25(2)12-5-6-13(27)15-10(12)7-9-8-11-17(26(3)4)19(29)16(22(24)32)21(31)23(11,33)20(30)14(9)18(15)28/h5-6,9,11,17,27,29-30,33H,7-8H2,1-4H3,(H2,24,32)

> <Parent_SMILES>
CN(C)c1ccc(O)c2c1C[C@H]1C[C@H]3[C@H](N(C)C)C(O)=C(C(N)=O)C(=O)[C@@]3(O)C(O)=C1C2=O

$$$$
Molecule 31_metabolite 33
  CDK     0516241031

 61 64  0  0  0  0  0  0  0  0999 V2000
    8.9342    3.7577    0.0000 C   0  0  0  0  0  0  0  0  0  0  0  0
    8.9342    5.2577    0.0000 H   0  0  0  0  0  0  0  0  0  0  0  0
    9.4472    2.3482    0.0000 H   0  0  0  0  0  0  0  0  0  0  0  0
   10.4114    4.0182    0.0000 H   0  0  0  0  0  0  0  0  0  0  0  0
    7.6351    3.0077    0.0000 N   0  0  0  0  0  0  0  0  0  0  0  0
    6.3361    3.7577    0.0000 C   0  0  0  0  0  0  0  0  0  0  0  0
    5.0370    3.0077    0.0000 H   0  0  0  0  0  0  0  0  0  0  0  0
    5.3719    4.9068    0.0000 H   0  0  0  0  0  0  0  0  0  0  0  0
    7.3003    4.9068    0.0000 H   0  0  0  0  0  0  0  0  0  0  0  0
    7.6351    1.5077    0.0000 C   0  0  0  0  0  0  0  0  0  0  0  0
    6.3351    0.7577    0.0000 C   0  0  0  0  0  0  0  0  0  0  0  0
    5.0351    1.5077    0.0000 C   0  0  0  0  0  0  0  0  0  0  0  0
    5.9992    2.6569    0.0000 H   0  0  0  0  0  0  0  0  0  0  0  0
    3.1456    3.7601    0.0000 H   0  0  0  0  0  0  0  0  0  0  0  0
    3.7351    0.7577    0.0000 C   0  0  1  0  0  0  0  0  0  0  0  0
    2.4366    0.0069    0.0000 H   0  0  0  0  0  0  0  0  0  0  0  0
    2.4351    1.5077    0.0000 C   0  0  0  0  0  0  0  0  0  0  0  0
    3.3992    2.6569    0.0000 H   0  0  0  0  0  0  0  0  0  0  0  0
    1.4711    2.6569    0.0000 H   0  0  0  0  0  0  0  0  0  0  0  0
    1.1351    0.7577    0.0000 C   0  0  1  0  0  0  0  0  0  0  0  0
   -0.1634    0.0069    0.0000 H   0  0  0  0  0  0  0  0  0  0  0  0
   -0.1649    1.5077    0.0000 C   0  0  1  0  0  0  0  0  0  0  0  0
    0.7992    2.6569    0.0000 H   0  0  0  0  0  0  0  0  0  0  0  0
   -1.4649    0.7577    0.0000 C   0  0  0  0  0  0  0  0  0  0  0  0
   -1.4649   -0.7423    0.0000 C   0  0  0  0  0  0  0  0  0  0  0  0
   -0.1649   -1.4923    0.0000 C   0  0  0  0  0  0  0  0  0  0  0  0
   -0.1649   -3.9523    0.0000 O   0  0  0  0  0  0  0  0  0  0  0  0
    1.1351   -0.7423    0.0000 C   0  0  1  0  0  0  0  0  0  0  0  0
    2.4351   -1.4923    0.0000 C   0  0  0  0  0  0  0  0  0  0  0  0
    3.7351   -0.7423    0.0000 C   0  0  0  0  0  0  0  0  0  0  0  0
    5.0351   -1.4923    0.0000 C   0  0  0  0  0  0  0  0  0  0  0  0
    5.0351   -2.9923    0.0000 O   0  0  0  0  0  0  0  0  0  0  0  0
    6.3351   -0.7423    0.0000 C   0  0  0  0  0  0  0  0  0  0  0  0
    7.6351   -1.4923    0.0000 C   0  0  0  0  0  0  0  0  0  0  0  0
    8.9351   -0.7423    0.0000 C   0  0  0  0  0  0  0  0  0  0  0  0
    8.9351    0.7577    0.0000 C   0  0  0  0  0  0  0  0  0  0  0  0
   10.2340    1.5079    0.0000 H   0  0  0  0  0  0  0  0  0  0  0  0
   10.2340   -1.4925    0.0000 O   0  0  0  0  0  0  0  0  0  0  0  0
   11.5332   -0.7427    0.0000 H   0  0  0  0  0  0  0  0  0  0  0  0
    7.6351   -2.9923    0.0000 O   0  0  0  0  0  0  0  0  0  0  0  0
    8.9342   -3.7423    0.0000 H   0  0  0  0  0  0  0  0  0  0  0  0
    2.4351   -2.9923    0.0000 O   0  0  0  0  0  0  0  0  0  0  0  0
    1.1361   -3.7423    0.0000 H   0  0  0  0  0  0  0  0  0  0  0  0
    1.1351   -2.2423    0.0000 O   0  0  0  0  0  0  0  0  0  0  0  0
   -0.1639   -2.9923    0.0000 H   0  0  0  0  0  0  0  0  0  0  0  0
   -2.7638   -1.4925    0.0000 C   0  0  0  0  0  0  0  0  0  0  0  0
   -4.0630   -0.7427    0.0000 O   0  0  0  0  0  0  0  0  0  0  0  0
   -2.7636   -2.9925    0.0000 N   0  0  0  0  0  0  0  0  0  0  0  0
   -4.0625   -3.7427    0.0000 H   0  0  0  0  0  0  0  0  0  0  0  0
   -1.4644   -3.7423    0.0000 H   0  0  0  0  0  0  0  0  0  0  0  0
   -2.7638    1.5079    0.0000 O   0  0  0  0  0  0  0  0  0  0  0  0
   -5.3101    0.0383    0.0000 H   0  0  0  0  0  0  0  0  0  0  0  0
   -1.7459    3.3924    0.0000 N   0  0  0  0  0  0  0  0  0  0  0  0
   -4.1686    2.9655    0.0000 C   0  0  0  0  0  0  0  0  0  0  0  0
   -5.1327    4.1146    0.0000 H   0  0  0  0  0  0  0  0  0  0  0  0
   -5.4677    2.2156    0.0000 H   0  0  0  0  0  0  0  0  0  0  0  0
   -3.6557    1.5559    0.0000 H   0  0  0  0  0  0  0  0  0  0  0  0
   -1.2328    4.8019    0.0000 C   0  0  0  0  0  0  0  0  0  0  0  0
    0.2445    5.0622    0.0000 H   0  0  0  0  0  0  0  0  0  0  0  0
   -2.7099    5.0625    0.0000 H   0  0  0  0  0  0  0  0  0  0  0  0
   -1.2326    6.3019    0.0000 H   0  0  0  0  0  0  0  0  0  0  0  0
  1  2  1  0  0  0  0 
  1  3  1  0  0  0  0 
  1  4  1  0  0  0  0 
  1  5  1  0  0  0  0 
  5  6  1  0  0  0  0 
  6  7  1  0  0  0  0 
  6  8  1  0  0  0  0 
  6  9  1  0  0  0  0 
  5 10  1  0  0  0  0 
 10 11  2  0  0  0  0 
 11 12  1  0  0  0  0 
 12 13  1  0  0  0  0 
 12 14  1  0  0  0  0 
 12 15  1  0  0  0  0 
 15 16  1  1  0  0  0 
 15 17  1  0  0  0  0 
 17 18  1  0  0  0  0 
 17 19  1  0  0  0  0 
 17 20  1  0  0  0  0 
 20 21  1  1  0  0  0 
 20 22  1  0  0  0  0 
 22 23  1  6  0  0  0 
 22 24  1  0  0  0  0 
 24 25  2  0  0  0  0 
 25 26  1  0  0  0  0 
 26 27  2  0  0  0  0 
 26 28  1  0  0  0  0 
 20 28  1  0  0  0  0 
 28 29  1  0  0  0  0 
 29 30  2  0  0  0  0 
 15 30  1  0  0  0  0 
 30 31  1  0  0  0  0 
 31 32  2  0  0  0  0 
 31 33  1  0  0  0  0 
 11 33  1  0  0  0  0 
 33 34  2  0  0  0  0 
 34 35  1  0  0  0  0 
 35 36  2  0  0  0  0 
 10 36  1  0  0  0  0 
 36 37  1  0  0  0  0 
 35 38  1  0  0  0  0 
 38 39  1  0  0  0  0 
 34 40  1  0  0  0  0 
 40 41  1  0  0  0  0 
 29 42  1  0  0  0  0 
 42 43  1  0  0  0  0 
 28 44  1  1  0  0  0 
 44 45  1  0  0  0  0 
 25 46  1  0  0  0  0 
 46 47  2  0  0  0  0 
 46 48  1  0  0  0  0 
 48 49  1  0  0  0  0 
 48 50  1  0  0  0  0 
 24 51  1  0  0  0  0 
 51 52  1  0  0  0  0 
 22 53  1  1  0  0  0 
 53 54  1  0  0  0  0 
 54 55  1  0  0  0  0 
 54 56  1  0  0  0  0 
 54 57  1  0  0  0  0 
 53 58  1  0  0  0  0 
 58 59  1  0  0  0  0 
 58 60  1  0  0  0  0 
 58 61  1  0  0  0  0 
M  END
> <Rank>
33

> <Priority_score>
0.06355763604447046

> <Reaction_type>
aromatic_hydroxylation_(para_to_carbon)

> <Parent_ID>
31

> <Parent_InChI>
InChI=1S/C23H27N3O7/c1-25(2)12-5-6-13(27)15-10(12)7-9-8-11-17(26(3)4)19(29)16(22(24)32)21(31)23(11,33)20(30)14(9)18(15)28/h5-6,9,11,17,27,29-30,33H,7-8H2,1-4H3,(H2,24,32)

> <Parent_SMILES>
CN(C)c1ccc(O)c2c1C[C@H]1C[C@H]3[C@H](N(C)C)C(O)=C(C(N)=O)C(=O)[C@@]3(O)C(O)=C1C2=O

$$$$
Molecule 31_metabolite 34
  CDK     0516241031

 61 64  0  0  0  0  0  0  0  0999 V2000
   -5.1157    3.2773    0.0000 C   0  0  0  0  0  0  0  0  0  0  0  0
   -5.1157    4.7773    0.0000 H   0  0  0  0  0  0  0  0  0  0  0  0
   -6.5929    3.5378    0.0000 H   0  0  0  0  0  0  0  0  0  0  0  0
   -5.6288    1.8677    0.0000 H   0  0  0  0  0  0  0  0  0  0  0  0
   -3.8167    2.5273    0.0000 N   0  0  0  0  0  0  0  0  0  0  0  0
   -2.5177    3.2773    0.0000 C   0  0  0  0  0  0  0  0  0  0  0  0
   -1.2186    2.5273    0.0000 H   0  0  0  0  0  0  0  0  0  0  0  0
   -3.4818    4.4264    0.0000 H   0  0  0  0  0  0  0  0  0  0  0  0
   -1.5535    4.4264    0.0000 H   0  0  0  0  0  0  0  0  0  0  0  0
   -3.8167    0.5473    0.0000 C   0  0  0  0  0  0  0  0  0  0  0  0
   -5.1167   -0.2027    0.0000 C   0  0  0  0  0  0  0  0  0  0  0  0
   -6.4156    0.5475    0.0000 H   0  0  0  0  0  0  0  0  0  0  0  0
   -5.1167   -1.7027    0.0000 C   0  0  0  0  0  0  0  0  0  0  0  0
   -6.4156   -2.4529    0.0000 H   0  0  0  0  0  0  0  0  0  0  0  0
   -3.8167   -2.4527    0.0000 C   0  0  0  0  0  0  0  0  0  0  0  0
   -2.5167   -1.7027    0.0000 C   0  0  0  0  0  0  0  0  0  0  0  0
   -2.5167   -0.2027    0.0000 C   0  0  0  0  0  0  0  0  0  0  0  0
   -1.2167    0.5473    0.0000 C   0  0  0  0  0  0  0  0  0  0  0  0
   -0.2526    1.6965    0.0000 H   0  0  0  0  0  0  0  0  0  0  0  0
    0.0833   -0.2027    0.0000 C   0  0  1  0  0  0  0  0  0  0  0  0
    2.2129   -1.4341    0.0000 H   0  0  0  0  0  0  0  0  0  0  0  0
    1.3833    0.5473    0.0000 C   0  0  0  0  0  0  0  0  0  0  0  0
    0.8710   -0.8625    0.0000 H   0  0  0  0  0  0  0  0  0  0  0  0
    0.4192    1.6965    0.0000 H   0  0  0  0  0  0  0  0  0  0  0  0
    2.6833   -0.2027    0.0000 C   0  0  1  0  0  0  0  0  0  0  0  0
    2.6833    1.2973    0.0000 H   0  0  0  0  0  0  0  0  0  0  0  0
    3.9833    0.5473    0.0000 C   0  0  1  0  0  0  0  0  0  0  0  0
    4.9474    1.6965    0.0000 H   0  0  0  0  0  0  0  0  0  0  0  0
    5.2833   -0.2027    0.0000 C   0  0  0  0  0  0  0  0  0  0  0  0
    5.2833   -1.7027    0.0000 C   0  0  0  0  0  0  0  0  0  0  0  0
    3.9833   -2.4527    0.0000 C   0  0  0  0  0  0  0  0  0  0  0  0
    3.9833   -4.9127    0.0000 O   0  0  0  0  0  0  0  0  0  0  0  0
    2.6833   -1.7027    0.0000 C   0  0  1  0  0  0  0  0  0  0  0  0
    1.3833   -2.4527    0.0000 C   0  0  0  0  0  0  0  0  0  0  0  0
    0.0833   -1.7027    0.0000 C   0  0  0  0  0  0  0  0  0  0  0  0
   -1.2167   -2.4527    0.0000 C   0  0  0  0  0  0  0  0  0  0  0  0
   -1.2167   -3.9527    0.0000 O   0  0  0  0  0  0  0  0  0  0  0  0
    1.3833   -3.9527    0.0000 O   0  0  0  0  0  0  0  0  0  0  0  0
    2.6823   -4.7027    0.0000 H   0  0  0  0  0  0  0  0  0  0  0  0
    2.6833   -3.2027    0.0000 O   0  0  0  0  0  0  0  0  0  0  0  0
    3.9823   -3.9527    0.0000 H   0  0  0  0  0  0  0  0  0  0  0  0
    6.5822   -2.4529    0.0000 C   0  0  0  0  0  0  0  0  0  0  0  0
    7.8814   -1.7031    0.0000 O   0  0  0  0  0  0  0  0  0  0  0  0
    6.5820   -3.9529    0.0000 N   0  0  0  0  0  0  0  0  0  0  0  0
    7.8809   -4.7031    0.0000 H   0  0  0  0  0  0  0  0  0  0  0  0
    5.2828   -4.7027    0.0000 H   0  0  0  0  0  0  0  0  0  0  0  0
    6.5822    0.5475    0.0000 O   0  0  0  0  0  0  0  0  0  0  0  0
    7.8814   -0.2023    0.0000 H   0  0  0  0  0  0  0  0  0  0  0  0
    3.6397    2.4972    0.0000 N   0  0  0  0  0  0  0  0  0  0  0  0
    4.7889    3.4613    0.0000 C   0  0  0  0  0  0  0  0  0  0  0  0
    6.1983    2.9481    0.0000 H   0  0  0  0  0  0  0  0  0  0  0  0
    5.5390    4.7603    0.0000 H   0  0  0  0  0  0  0  0  0  0  0  0
    3.6399    4.4256    0.0000 H   0  0  0  0  0  0  0  0  0  0  0  0
    2.2302    3.0104    0.0000 C   0  0  0  0  0  0  0  0  0  0  0  0
    1.9699    4.4877    0.0000 H   0  0  0  0  0  0  0  0  0  0  0  0
    0.9312    3.7606    0.0000 H   0  0  0  0  0  0  0  0  0  0  0  0
    1.9696    1.5332    0.0000 H   0  0  0  0  0  0  0  0  0  0  0  0
   -2.1808    1.6965    0.0000 O   0  0  0  0  0  0  0  0  0  0  0  0
   -3.6580    1.4361    0.0000 H   0  0  0  0  0  0  0  0  0  0  0  0
   -3.8167   -3.9527    0.0000 O   0  0  0  0  0  0  0  0  0  0  0  0
   -5.1157   -4.7027    0.0000 H   0  0  0  0  0  0  0  0  0  0  0  0
  1  2  1  0  0  0  0 
  1  3  1  0  0  0  0 
  1  4  1  0  0  0  0 
  1  5  1  0  0  0  0 
  5  6  1  0  0  0  0 
  6  7  1  0  0  0  0 
  6  8  1  0  0  0  0 
  6  9  1  0  0  0  0 
  5 10  1  0  0  0  0 
 10 11  2  0  0  0  0 
 11 12  1  0  0  0  0 
 11 13  1  0  0  0  0 
 13 14  1  0  0  0  0 
 13 15  2  0  0  0  0 
 15 16  1  0  0  0  0 
 16 17  2  0  0  0  0 
 10 17  1  0  0  0  0 
 17 18  1  0  0  0  0 
 18 19  1  0  0  0  0 
 18 20  1  0  0  0  0 
 20 21  1  6  0  0  0 
 20 22  1  0  0  0  0 
 22 23  1  0  0  0  0 
 22 24  1  0  0  0  0 
 22 25  1  0  0  0  0 
 25 26  1  6  0  0  0 
 25 27  1  0  0  0  0 
 27 28  1  1  0  0  0 
 27 29  1  0  0  0  0 
 29 30  2  0  0  0  0 
 30 31  1  0  0  0  0 
 31 32  2  0  0  0  0 
 31 33  1  0  0  0  0 
 25 33  1  0  0  0  0 
 33 34  1  0  0  0  0 
 34 35  2  0  0  0  0 
 20 35  1  0  0  0  0 
 35 36  1  0  0  0  0 
 16 36  1  0  0  0  0 
 36 37  2  0  0  0  0 
 34 38  1  0  0  0  0 
 38 39  1  0  0  0  0 
 33 40  1  6  0  0  0 
 40 41  1  0  0  0  0 
 30 42  1  0  0  0  0 
 42 43  2  0  0  0  0 
 42 44  1  0  0  0  0 
 44 45  1  0  0  0  0 
 44 46  1  0  0  0  0 
 29 47  1  0  0  0  0 
 47 48  1  0  0  0  0 
 27 49  1  6  0  0  0 
 49 50  1  0  0  0  0 
 50 51  1  0  0  0  0 
 50 52  1  0  0  0  0 
 50 53  1  0  0  0  0 
 49 54  1  0  0  0  0 
 54 55  1  0  0  0  0 
 54 56  1  0  0  0  0 
 54 57  1  0  0  0  0 
 18 58  1  0  0  0  0 
 58 59  1  0  0  0  0 
 15 60  1  0  0  0  0 
 60 61  1  0  0  0  0 
M  END
> <Rank>
34

> <Priority_score>
0.028

> <Reaction_type>
benzylic_hydroxylation_(c-CH2-CR)

> <Parent_ID>
31

> <Parent_InChI>
InChI=1S/C23H27N3O7/c1-25(2)12-5-6-13(27)15-10(12)7-9-8-11-17(26(3)4)19(29)16(22(24)32)21(31)23(11,33)20(30)14(9)18(15)28/h5-6,9,11,17,27,29-30,33H,7-8H2,1-4H3,(H2,24,32)

> <Parent_SMILES>
CN(C)c1ccc(O)c2c1C[C@H]1C[C@H]3[C@H](N(C)C)C(O)=C(C(N)=O)C(=O)[C@@]3(O)C(O)=C1C2=O

$$$$
Molecule 31_metabolite 35
  CDK     0516241031

 57 60  0  0  0  0  0  0  0  0999 V2000
   -5.1990    3.7500    0.0000 C   0  0  0  0  0  0  0  0  0  0  0  0
   -5.1990    5.2500    0.0000 H   0  0  0  0  0  0  0  0  0  0  0  0
   -6.6762    4.0105    0.0000 H   0  0  0  0  0  0  0  0  0  0  0  0
   -5.7121    2.3405    0.0000 H   0  0  0  0  0  0  0  0  0  0  0  0
   -3.9000    3.0000    0.0000 N   0  0  0  0  0  0  0  0  0  0  0  0
   -2.6010    3.7500    0.0000 C   0  0  0  0  0  0  0  0  0  0  0  0
   -1.3019    3.0000    0.0000 H   0  0  0  0  0  0  0  0  0  0  0  0
   -3.5651    4.8991    0.0000 H   0  0  0  0  0  0  0  0  0  0  0  0
   -1.6368    4.8991    0.0000 H   0  0  0  0  0  0  0  0  0  0  0  0
   -3.9000    1.5000    0.0000 C   0  0  0  0  0  0  0  0  0  0  0  0
   -5.2000    0.7500    0.0000 C   0  0  0  0  0  0  0  0  0  0  0  0
   -6.4989    1.5002    0.0000 H   0  0  0  0  0  0  0  0  0  0  0  0
   -5.2000   -0.7500    0.0000 C   0  0  0  0  0  0  0  0  0  0  0  0
   -6.4989   -1.5002    0.0000 H   0  0  0  0  0  0  0  0  0  0  0  0
   -3.9000   -1.5000    0.0000 C   0  0  0  0  0  0  0  0  0  0  0  0
   -2.6000   -0.7500    0.0000 C   0  0  0  0  0  0  0  0  0  0  0  0
   -2.6000    0.7500    0.0000 C   0  0  0  0  0  0  0  0  0  0  0  0
   -1.3000    1.5000    0.0000 C   0  0  0  0  0  0  0  0  0  0  0  0
   -0.3359    2.6492    0.0000 H   0  0  0  0  0  0  0  0  0  0  0  0
   -2.2641    2.6492    0.0000 H   0  0  0  0  0  0  0  0  0  0  0  0
    0.0000    0.7500    0.0000 C   0  0  1  0  0  0  0  0  0  0  0  0
    1.2986   -0.0008    0.0000 H   0  0  0  0  0  0  0  0  0  0  0  0
    1.3000    1.5000    0.0000 C   0  0  0  0  0  0  0  0  0  0  0  0
    2.2641    2.6492    0.0000 H   0  0  0  0  0  0  0  0  0  0  0  0
    0.3359    2.6492    0.0000 H   0  0  0  0  0  0  0  0  0  0  0  0
    2.6000    0.7500    0.0000 C   0  0  0  0  0  0  0  0  0  0  0  0
    2.6000   -0.7500    0.0000 C   0  0  0  0  0  0  0  0  0  0  0  0
    1.3000   -1.5000    0.0000 C   0  0  0  0  0  0  0  0  0  0  0  0
    0.0000   -0.7500    0.0000 C   0  0  0  0  0  0  0  0  0  0  0  0
   -1.3000   -1.5000    0.0000 C   0  0  0  0  0  0  0  0  0  0  0  0
   -1.3000   -3.0000    0.0000 O   0  0  0  0  0  0  0  0  0  0  0  0
    1.3000   -3.0000    0.0000 O   0  0  0  0  0  0  0  0  0  0  0  0
    2.5990   -3.7500    0.0000 H   0  0  0  0  0  0  0  0  0  0  0  0
    3.9000   -1.5000    0.0000 C   0  0  0  0  0  0  0  0  0  0  0  0
    3.9000   -3.0000    0.0000 O   0  0  0  0  0  0  0  0  0  0  0  0
    5.2000   -0.7500    0.0000 C   0  0  0  0  0  0  0  0  0  0  0  0
    5.2000    0.7500    0.0000 C   0  0  0  0  0  0  0  0  0  0  0  0
    3.9000    1.5000    0.0000 C   0  0  1  0  0  0  0  0  0  0  0  0
    4.8641    2.6492    0.0000 H   0  0  0  0  0  0  0  0  0  0  0  0
    3.6397    2.9772    0.0000 N   0  0  0  0  0  0  0  0  0  0  0  0
    4.7889    3.9413    0.0000 C   0  0  0  0  0  0  0  0  0  0  0  0
    6.1983    3.4281    0.0000 H   0  0  0  0  0  0  0  0  0  0  0  0
    5.5390    5.2403    0.0000 H   0  0  0  0  0  0  0  0  0  0  0  0
    3.6399    4.9056    0.0000 H   0  0  0  0  0  0  0  0  0  0  0  0
    2.4907    3.9415    0.0000 C   0  0  0  0  0  0  0  0  0  0  0  0
    2.7514    5.4187    0.0000 H   0  0  0  0  0  0  0  0  0  0  0  0
    1.0812    4.4547    0.0000 H   0  0  0  0  0  0  0  0  0  0  0  0
    1.5264    2.7926    0.0000 H   0  0  0  0  0  0  0  0  0  0  0  0
    6.4989    1.5002    0.0000 O   0  0  0  0  0  0  0  0  0  0  0  0
    7.7981    0.7504    0.0000 H   0  0  0  0  0  0  0  0  0  0  0  0
    6.4989   -1.5002    0.0000 C   0  0  0  0  0  0  0  0  0  0  0  0
    7.7981   -0.7504    0.0000 O   0  0  0  0  0  0  0  0  0  0  0  0
    6.4987   -3.0002    0.0000 N   0  0  0  0  0  0  0  0  0  0  0  0
    7.7976   -3.7504    0.0000 H   0  0  0  0  0  0  0  0  0  0  0  0
    5.1995   -3.7500    0.0000 H   0  0  0  0  0  0  0  0  0  0  0  0
   -3.9000   -3.0000    0.0000 O   0  0  0  0  0  0  0  0  0  0  0  0
   -5.1990   -3.7500    0.0000 H   0  0  0  0  0  0  0  0  0  0  0  0
  1  2  1  0  0  0  0 
  1  3  1  0  0  0  0 
  1  4  1  0  0  0  0 
  1  5  1  0  0  0  0 
  5  6  1  0  0  0  0 
  6  7  1  0  0  0  0 
  6  8  1  0  0  0  0 
  6  9  1  0  0  0  0 
  5 10  1  0  0  0  0 
 10 11  2  0  0  0  0 
 11 12  1  0  0  0  0 
 11 13  1  0  0  0  0 
 13 14  1  0  0  0  0 
 13 15  2  0  0  0  0 
 15 16  1  0  0  0  0 
 16 17  2  0  0  0  0 
 10 17  1  0  0  0  0 
 17 18  1  0  0  0  0 
 18 19  1  0  0  0  0 
 18 20  1  0  0  0  0 
 18 21  1  0  0  0  0 
 21 22  1  6  0  0  0 
 21 23  1  0  0  0  0 
 23 24  1  0  0  0  0 
 23 25  1  0  0  0  0 
 23 26  1  0  0  0  0 
 26 27  2  0  0  0  0 
 27 28  1  0  0  0  0 
 28 29  2  0  0  0  0 
 21 29  1  0  0  0  0 
 29 30  1  0  0  0  0 
 16 30  1  0  0  0  0 
 30 31  2  0  0  0  0 
 28 32  1  0  0  0  0 
 32 33  1  0  0  0  0 
 27 34  1  0  0  0  0 
 34 35  2  0  0  0  0 
 34 36  1  0  0  0  0 
 36 37  2  0  0  0  0 
 37 38  1  0  0  0  0 
 26 38  1  0  0  0  0 
 38 39  1  1  0  0  0 
 38 40  1  6  0  0  0 
 40 41  1  0  0  0  0 
 41 42  1  0  0  0  0 
 41 43  1  0  0  0  0 
 41 44  1  0  0  0  0 
 40 45  1  0  0  0  0 
 45 46  1  0  0  0  0 
 45 47  1  0  0  0  0 
 45 48  1  0  0  0  0 
 37 49  1  0  0  0  0 
 49 50  1  0  0  0  0 
 36 51  1  0  0  0  0 
 51 52  2  0  0  0  0 
 51 53  1  0  0  0  0 
 53 54  1  0  0  0  0 
 53 55  1  0  0  0  0 
 15 56  1  0  0  0  0 
 56 57  1  0  0  0  0 
M  END
> <Rank>
35

> <Priority_score>
0.02

> <Reaction_type>
dehydration_next_to_SP2_a

> <Parent_ID>
31

> <Parent_InChI>
InChI=1S/C23H27N3O7/c1-25(2)12-5-6-13(27)15-10(12)7-9-8-11-17(26(3)4)19(29)16(22(24)32)21(31)23(11,33)20(30)14(9)18(15)28/h5-6,9,11,17,27,29-30,33H,7-8H2,1-4H3,(H2,24,32)

> <Parent_SMILES>
CN(C)c1ccc(O)c2c1C[C@H]1C[C@H]3[C@H](N(C)C)C(O)=C(C(N)=O)C(=O)[C@@]3(O)C(O)=C1C2=O

$$$$
Molecule 31_metabolite 36
  CDK     0516241031

 58 61  0  0  0  0  0  0  0  0999 V2000
   -5.7690    5.0200    0.0000 C   0  0  0  0  0  0  0  0  0  0  0  0
   -5.7690    6.5200    0.0000 H   0  0  0  0  0  0  0  0  0  0  0  0
   -7.2462    5.2805    0.0000 H   0  0  0  0  0  0  0  0  0  0  0  0
   -6.2821    3.6105    0.0000 H   0  0  0  0  0  0  0  0  0  0  0  0
   -4.4700    4.2700    0.0000 N   0  0  0  0  0  0  0  0  0  0  0  0
   -3.1710    5.0200    0.0000 C   0  0  0  0  0  0  0  0  0  0  0  0
   -1.8719    4.2700    0.0000 H   0  0  0  0  0  0  0  0  0  0  0  0
   -4.1351    6.1691    0.0000 H   0  0  0  0  0  0  0  0  0  0  0  0
   -2.2068    6.1691    0.0000 H   0  0  0  0  0  0  0  0  0  0  0  0
   -4.4700    2.7700    0.0000 C   0  0  0  0  0  0  0  0  0  0  0  0
   -5.7700    2.0200    0.0000 C   0  0  0  0  0  0  0  0  0  0  0  0
   -7.0689    2.7702    0.0000 H   0  0  0  0  0  0  0  0  0  0  0  0
   -5.7700    0.5200    0.0000 C   0  0  0  0  0  0  0  0  0  0  0  0
   -7.0689   -0.2302    0.0000 H   0  0  0  0  0  0  0  0  0  0  0  0
   -4.4700   -0.2300    0.0000 C   0  0  0  0  0  0  0  0  0  0  0  0
   -3.1700    0.5200    0.0000 C   0  0  0  0  0  0  0  0  0  0  0  0
   -3.1700    2.0200    0.0000 C   0  0  0  0  0  0  0  0  0  0  0  0
   -1.8800    2.7700    0.0000 C   0  0  0  0  0  0  0  0  0  0  0  0
   -0.9172    3.9202    0.0000 H   0  0  0  0  0  0  0  0  0  0  0  0
   -2.8466    3.9170    0.0000 H   0  0  0  0  0  0  0  0  0  0  0  0
   -0.5800    2.0200    0.0000 C   0  0  1  0  0  0  0  0  0  0  0  0
    0.7186    1.2692    0.0000 H   0  0  0  0  0  0  0  0  0  0  0  0
    0.7200    2.7700    0.0000 C   0  0  0  0  0  0  0  0  0  0  0  0
    1.6841    3.9192    0.0000 H   0  0  0  0  0  0  0  0  0  0  0  0
   -0.2441    3.9192    0.0000 H   0  0  0  0  0  0  0  0  0  0  0  0
    2.0200    2.0200    0.0000 C   0  0  0  0  0  0  0  0  0  0  0  0
    3.3200    2.7700    0.0000 C   0  0  0  0  0  0  0  0  0  0  0  0
    4.6200    2.0200    0.0000 C   0  0  0  0  0  0  0  0  0  0  0  0
    4.6200    0.5200    0.0000 C   0  0  0  0  0  0  0  0  0  0  0  0
    3.3200   -0.2300    0.0000 C   0  0  0  0  0  0  0  0  0  0  0  0
    3.3200   -2.6900    0.0000 O   0  0  0  0  0  0  0  0  0  0  0  0
    2.0200    0.5200    0.0000 C   0  0  1  0  0  0  0  0  0  0  0  0
    0.7200   -0.2300    0.0000 C   0  0  0  0  0  0  0  0  0  0  0  0
   -0.5800    0.5200    0.0000 C   0  0  0  0  0  0  0  0  0  0  0  0
   -1.8800   -0.2300    0.0000 C   0  0  0  0  0  0  0  0  0  0  0  0
   -1.8825   -1.7300    0.0000 O   0  0  0  0  0  0  0  0  0  0  0  0
    0.7200   -1.7300    0.0000 O   0  0  0  0  0  0  0  0  0  0  0  0
    2.0190   -2.4800    0.0000 H   0  0  0  0  0  0  0  0  0  0  0  0
    2.0200   -0.9800    0.0000 O   0  0  0  0  0  0  0  0  0  0  0  0
    3.3190   -1.7300    0.0000 H   0  0  0  0  0  0  0  0  0  0  0  0
    5.9189   -0.2302    0.0000 C   0  0  0  0  0  0  0  0  0  0  0  0
    7.2181    0.5196    0.0000 O   0  0  0  0  0  0  0  0  0  0  0  0
    5.9187   -1.7302    0.0000 N   0  0  0  0  0  0  0  0  0  0  0  0
    7.2176   -2.4804    0.0000 H   0  0  0  0  0  0  0  0  0  0  0  0
    4.6195   -2.4800    0.0000 H   0  0  0  0  0  0  0  0  0  0  0  0
    5.9189    2.7702    0.0000 O   0  0  0  0  0  0  0  0  0  0  0  0
    7.2181    2.0204    0.0000 H   0  0  0  0  0  0  0  0  0  0  0  0
    3.3200    4.2700    0.0000 N   0  0  0  0  0  0  0  0  0  0  0  0
    4.6190    5.0200    0.0000 C   0  0  0  0  0  0  0  0  0  0  0  0
    4.6190    6.5200    0.0000 H   0  0  0  0  0  0  0  0  0  0  0  0
    5.1321    3.6105    0.0000 H   0  0  0  0  0  0  0  0  0  0  0  0
    6.0962    5.2805    0.0000 H   0  0  0  0  0  0  0  0  0  0  0  0
    2.0210    5.0200    0.0000 C   0  0  0  0  0  0  0  0  0  0  0  0
    0.7219    4.2700    0.0000 H   0  0  0  0  0  0  0  0  0  0  0  0
    1.0568    6.1691    0.0000 H   0  0  0  0  0  0  0  0  0  0  0  0
    2.9851    6.1691    0.0000 H   0  0  0  0  0  0  0  0  0  0  0  0
   -4.4700   -1.7300    0.0000 O   0  0  0  0  0  0  0  0  0  0  0  0
   -5.7690   -2.4800    0.0000 H   0  0  0  0  0  0  0  0  0  0  0  0
  1  2  1  0  0  0  0 
  1  3  1  0  0  0  0 
  1  4  1  0  0  0  0 
  1  5  1  0  0  0  0 
  5  6  1  0  0  0  0 
  6  7  1  0  0  0  0 
  6  8  1  0  0  0  0 
  6  9  1  0  0  0  0 
  5 10  1  0  0  0  0 
 10 11  2  0  0  0  0 
 11 12  1  0  0  0  0 
 11 13  1  0  0  0  0 
 13 14  1  0  0  0  0 
 13 15  2  0  0  0  0 
 15 16  1  0  0  0  0 
 16 17  2  0  0  0  0 
 10 17  1  0  0  0  0 
 17 18  1  0  0  0  0 
 18 19  1  0  0  0  0 
 18 20  1  0  0  0  0 
 18 21  1  0  0  0  0 
 21 22  1  6  0  0  0 
 21 23  1  0  0  0  0 
 23 24  1  0  0  0  0 
 23 25  1  0  0  0  0 
 23 26  1  0  0  0  0 
 26 27  2  0  0  0  0 
 27 28  1  0  0  0  0 
 28 29  2  0  0  0  0 
 29 30  1  0  0  0  0 
 30 31  2  0  0  0  0 
 30 32  1  0  0  0  0 
 26 32  1  0  0  0  0 
 32 33  1  0  0  0  0 
 33 34  2  0  0  0  0 
 21 34  1  0  0  0  0 
 34 35  1  0  0  0  0 
 16 35  1  0  0  0  0 
 35 36  2  0  0  0  0 
 33 37  1  0  0  0  0 
 37 38  1  0  0  0  0 
 32 39  1  6  0  0  0 
 39 40  1  0  0  0  0 
 29 41  1  0  0  0  0 
 41 42  2  0  0  0  0 
 41 43  1  0  0  0  0 
 43 44  1  0  0  0  0 
 43 45  1  0  0  0  0 
 28 46  1  0  0  0  0 
 46 47  1  0  0  0  0 
 27 48  1  0  0  0  0 
 48 49  1  0  0  0  0 
 49 50  1  0  0  0  0 
 49 51  1  0  0  0  0 
 49 52  1  0  0  0  0 
 48 53  1  0  0  0  0 
 53 54  1  0  0  0  0 
 53 55  1  0  0  0  0 
 53 56  1  0  0  0  0 
 15 57  1  0  0  0  0 
 57 58  1  0  0  0  0 
M  END
> <Rank>
36

> <Priority_score>
0.019200000000000002

> <Reaction_type>
alkyl dehydrogenation

> <Parent_ID>
31

> <Parent_InChI>
InChI=1S/C23H27N3O7/c1-25(2)12-5-6-13(27)15-10(12)7-9-8-11-17(26(3)4)19(29)16(22(24)32)21(31)23(11,33)20(30)14(9)18(15)28/h5-6,9,11,17,27,29-30,33H,7-8H2,1-4H3,(H2,24,32)

> <Parent_SMILES>
CN(C)c1ccc(O)c2c1C[C@H]1C[C@H]3[C@H](N(C)C)C(O)=C(C(N)=O)C(=O)[C@@]3(O)C(O)=C1C2=O

$$$$
Molecule 31_metabolite 37
  CDK     0516241031

 61 64  0  0  0  0  0  0  0  0999 V2000
   -5.5272    5.6122    0.0000 C   0  0  0  0  0  0  0  0  0  0  0  0
   -5.5272    7.1122    0.0000 H   0  0  0  0  0  0  0  0  0  0  0  0
   -7.0044    5.8726    0.0000 H   0  0  0  0  0  0  0  0  0  0  0  0
   -6.0402    4.2026    0.0000 H   0  0  0  0  0  0  0  0  0  0  0  0
   -4.2281    4.8622    0.0000 N   0  0  0  0  0  0  0  0  0  0  0  0
   -2.9291    5.6122    0.0000 C   0  0  0  0  0  0  0  0  0  0  0  0
   -1.6301    4.8622    0.0000 H   0  0  0  0  0  0  0  0  0  0  0  0
   -3.8933    6.7612    0.0000 H   0  0  0  0  0  0  0  0  0  0  0  0
   -1.9649    6.7612    0.0000 H   0  0  0  0  0  0  0  0  0  0  0  0
   -4.2281    3.3622    0.0000 C   0  0  0  0  0  0  0  0  0  0  0  0
   -5.5281    2.6122    0.0000 C   0  0  0  0  0  0  0  0  0  0  0  0
   -6.8271    3.3624    0.0000 H   0  0  0  0  0  0  0  0  0  0  0  0
   -5.5281    1.1122    0.0000 C   0  0  0  0  0  0  0  0  0  0  0  0
   -6.8271    0.3620    0.0000 H   0  0  0  0  0  0  0  0  0  0  0  0
   -4.2281    0.3622    0.0000 C   0  0  0  0  0  0  0  0  0  0  0  0
   -2.9281    1.1122    0.0000 C   0  0  0  0  0  0  0  0  0  0  0  0
   -2.9281    2.6122    0.0000 C   0  0  0  0  0  0  0  0  0  0  0  0
   -1.6281    3.3622    0.0000 C   0  0  0  0  0  0  0  0  0  0  0  0
   -2.1404    1.9524    0.0000 H   0  0  0  0  0  0  0  0  0  0  0  0
   -2.5922    4.5113    0.0000 H   0  0  0  0  0  0  0  0  0  0  0  0
   -0.3281    2.6122    0.0000 C   0  0  1  0  0  0  0  0  0  0  0  0
   -0.3281    4.1122    0.0000 H   0  0  0  0  0  0  0  0  0  0  0  0
    0.9719    3.3622    0.0000 C   0  0  0  0  0  0  0  0  0  0  0  0
    0.4596    1.9524    0.0000 H   0  0  0  0  0  0  0  0  0  0  0  0
    0.2220    4.6613    0.0000 H   0  0  0  0  0  0  0  0  0  0  0  0
    2.2719    2.6122    0.0000 C   0  0  1  0  0  0  0  0  0  0  0  0
    2.2719    4.1122    0.0000 H   0  0  0  0  0  0  0  0  0  0  0  0
    3.5719    3.3622    0.0000 C   0  0  0  0  0  0  0  0  0  0  0  0
    4.8719    2.6122    0.0000 C   0  0  0  0  0  0  0  0  0  0  0  0
    4.8719    1.1122    0.0000 C   0  0  0  0  0  0  0  0  0  0  0  0
    3.5719    0.3622    0.0000 C   0  0  0  0  0  0  0  0  0  0  0  0
    3.5719   -1.1378    0.0000 O   0  0  0  0  0  0  0  0  0  0  0  0
    2.2719    1.1122    0.0000 C   0  0  1  0  0  0  0  0  0  0  0  0
    0.9719    0.3622    0.0000 C   0  0  0  0  0  0  0  0  0  0  0  0
   -0.3281    1.1122    0.0000 C   0  0  0  0  0  0  0  0  0  0  0  0
   -1.6281    0.3622    0.0000 C   0  0  0  0  0  0  0  0  0  0  0  0
   -1.6281   -1.1378    0.0000 O   0  0  0  0  0  0  0  0  0  0  0  0
    0.9719   -2.0978    0.0000 O   0  0  0  0  0  0  0  0  0  0  0  0
    2.2709   -2.8478    0.0000 H   0  0  0  0  0  0  0  0  0  0  0  0
    2.2719   -0.3878    0.0000 O   0  0  0  0  0  0  0  0  0  0  0  0
    0.9728   -1.1378    0.0000 H   0  0  0  0  0  0  0  0  0  0  0  0
    5.7127   -1.1996    0.0000 C   0  0  0  0  0  0  0  0  0  0  0  0
    4.7483   -2.3485    0.0000 O   0  0  0  0  0  0  0  0  0  0  0  0
    7.1899   -1.4604    0.0000 N   0  0  0  0  0  0  0  0  0  0  0  0
    7.7026   -2.8701    0.0000 H   0  0  0  0  0  0  0  0  0  0  0  0
    8.1543   -0.3116    0.0000 H   0  0  0  0  0  0  0  0  0  0  0  0
    6.3491    1.3725    0.0000 O   0  0  0  0  0  0  0  0  0  0  0  0
    7.3132    0.2233    0.0000 H   0  0  0  0  0  0  0  0  0  0  0  0
    6.1708    3.3624    0.0000 O   0  0  0  0  0  0  0  0  0  0  0  0
    7.4699    2.6126    0.0000 H   0  0  0  0  0  0  0  0  0  0  0  0
    3.5719    4.8622    0.0000 N   0  0  0  0  0  0  0  0  0  0  0  0
    4.8709    5.6122    0.0000 C   0  0  0  0  0  0  0  0  0  0  0  0
    4.8709    7.1122    0.0000 H   0  0  0  0  0  0  0  0  0  0  0  0
    5.3839    4.2026    0.0000 H   0  0  0  0  0  0  0  0  0  0  0  0
    6.3481    5.8726    0.0000 H   0  0  0  0  0  0  0  0  0  0  0  0
    2.2728    5.6122    0.0000 C   0  0  0  0  0  0  0  0  0  0  0  0
    0.9738    4.8622    0.0000 H   0  0  0  0  0  0  0  0  0  0  0  0
    1.3086    6.7612    0.0000 H   0  0  0  0  0  0  0  0  0  0  0  0
    3.2370    6.7612    0.0000 H   0  0  0  0  0  0  0  0  0  0  0  0
   -4.2281   -1.1378    0.0000 O   0  0  0  0  0  0  0  0  0  0  0  0
   -5.5272   -1.8878    0.0000 H   0  0  0  0  0  0  0  0  0  0  0  0
  1  2  1  0  0  0  0 
  1  3  1  0  0  0  0 
  1  4  1  0  0  0  0 
  1  5  1  0  0  0  0 
  5  6  1  0  0  0  0 
  6  7  1  0  0  0  0 
  6  8  1  0  0  0  0 
  6  9  1  0  0  0  0 
  5 10  1  0  0  0  0 
 10 11  2  0  0  0  0 
 11 12  1  0  0  0  0 
 11 13  1  0  0  0  0 
 13 14  1  0  0  0  0 
 13 15  2  0  0  0  0 
 15 16  1  0  0  0  0 
 16 17  2  0  0  0  0 
 10 17  1  0  0  0  0 
 17 18  1  0  0  0  0 
 18 19  1  0  0  0  0 
 18 20  1  0  0  0  0 
 18 21  1  0  0  0  0 
 21 22  1  6  0  0  0 
 21 23  1  0  0  0  0 
 23 24  1  0  0  0  0 
 23 25  1  0  0  0  0 
 23 26  1  0  0  0  0 
 26 27  1  6  0  0  0 
 26 28  1  0  0  0  0 
 28 29  2  0  0  0  0 
 29 30  1  0  0  0  0 
 30 31  1  0  0  0  0 
 31 32  2  0  0  0  0 
 31 33  1  0  0  0  0 
 26 33  1  0  0  0  0 
 33 34  1  0  0  0  0 
 34 35  2  0  0  0  0 
 21 35  1  0  0  0  0 
 35 36  1  0  0  0  0 
 16 36  1  0  0  0  0 
 36 37  2  0  0  0  0 
 34 38  1  0  0  0  0 
 38 39  1  0  0  0  0 
 33 40  1  6  0  0  0 
 40 41  1  0  0  0  0 
 30 42  1  0  0  0  0 
 42 43  2  0  0  0  0 
 42 44  1  0  0  0  0 
 44 45  1  0  0  0  0 
 44 46  1  0  0  0  0 
 30 47  1  0  0  0  0 
 47 48  1  0  0  0  0 
 29 49  1  0  0  0  0 
 49 50  1  0  0  0  0 
 28 51  1  0  0  0  0 
 51 52  1  0  0  0  0 
 52 53  1  0  0  0  0 
 52 54  1  0  0  0  0 
 52 55  1  0  0  0  0 
 51 56  1  0  0  0  0 
 56 57  1  0  0  0  0 
 56 58  1  0  0  0  0 
 56 59  1  0  0  0  0 
 15 60  1  0  0  0  0 
 60 61  1  0  0  0  0 
M  END
> <Rank>
36

> <Priority_score>
0.019200000000000002

> <Reaction_type>
aliphatic hydroxylation with allylic rearrangement 1

> <Parent_ID>
31

> <Parent_InChI>
InChI=1S/C23H27N3O7/c1-25(2)12-5-6-13(27)15-10(12)7-9-8-11-17(26(3)4)19(29)16(22(24)32)21(31)23(11,33)20(30)14(9)18(15)28/h5-6,9,11,17,27,29-30,33H,7-8H2,1-4H3,(H2,24,32)

> <Parent_SMILES>
CN(C)c1ccc(O)c2c1C[C@H]1C[C@H]3[C@H](N(C)C)C(O)=C(C(N)=O)C(=O)[C@@]3(O)C(O)=C1C2=O

$$$$
Molecule 31_metabolite 38
  CDK     0516241031

 59 62  0  0  0  0  0  0  0  0999 V2000
   -5.7690    5.0200    0.0000 C   0  0  0  0  0  0  0  0  0  0  0  0
   -5.7690    6.5200    0.0000 H   0  0  0  0  0  0  0  0  0  0  0  0
   -7.2462    5.2805    0.0000 H   0  0  0  0  0  0  0  0  0  0  0  0
   -6.2821    3.6105    0.0000 H   0  0  0  0  0  0  0  0  0  0  0  0
   -4.4700    4.2700    0.0000 N   0  0  0  0  0  0  0  0  0  0  0  0
   -3.1710    5.0200    0.0000 C   0  0  0  0  0  0  0  0  0  0  0  0
   -1.8719    4.2700    0.0000 H   0  0  0  0  0  0  0  0  0  0  0  0
   -4.1351    6.1691    0.0000 H   0  0  0  0  0  0  0  0  0  0  0  0
   -2.2068    6.1691    0.0000 H   0  0  0  0  0  0  0  0  0  0  0  0
   -4.4700    2.7700    0.0000 C   0  0  0  0  0  0  0  0  0  0  0  0
   -5.7700    2.0200    0.0000 C   0  0  0  0  0  0  0  0  0  0  0  0
   -7.0689    2.7702    0.0000 H   0  0  0  0  0  0  0  0  0  0  0  0
   -5.7700    0.5200    0.0000 C   0  0  0  0  0  0  0  0  0  0  0  0
   -7.0689   -0.2302    0.0000 H   0  0  0  0  0  0  0  0  0  0  0  0
   -4.4700   -0.2300    0.0000 C   0  0  0  0  0  0  0  0  0  0  0  0
   -3.1700    0.5200    0.0000 C   0  0  0  0  0  0  0  0  0  0  0  0
   -3.1700    2.0200    0.0000 C   0  0  0  0  0  0  0  0  0  0  0  0
   -1.8800    2.7700    0.0000 C   0  0  0  0  0  0  0  0  0  0  0  0
   -2.3939    1.3608    0.0000 H   0  0  0  0  0  0  0  0  0  0  0  0
   -2.8466    3.9170    0.0000 H   0  0  0  0  0  0  0  0  0  0  0  0
   -0.5800    2.0200    0.0000 C   0  0  1  0  0  0  0  0  0  0  0  0
   -0.5800    3.5200    0.0000 H   0  0  0  0  0  0  0  0  0  0  0  0
    0.7200    2.7700    0.0000 C   0  0  0  0  0  0  0  0  0  0  0  0
    0.2077    1.3602    0.0000 H   0  0  0  0  0  0  0  0  0  0  0  0
   -0.0299    4.0691    0.0000 H   0  0  0  0  0  0  0  0  0  0  0  0
    2.0200    2.0200    0.0000 C   0  0  1  0  0  0  0  0  0  0  0  0
    2.0200    3.5200    0.0000 H   0  0  0  0  0  0  0  0  0  0  0  0
    3.3200    2.7700    0.0000 C   0  0  0  0  0  0  0  0  0  0  0  0
    3.3200    4.2700    0.0000 N   0  0  0  0  0  0  0  0  0  0  0  0
    4.6190    5.0200    0.0000 C   0  0  0  0  0  0  0  0  0  0  0  0
    4.6190    6.5200    0.0000 H   0  0  0  0  0  0  0  0  0  0  0  0
    6.0962    5.2805    0.0000 H   0  0  0  0  0  0  0  0  0  0  0  0
    5.1321    3.6105    0.0000 H   0  0  0  0  0  0  0  0  0  0  0  0
    2.0210    5.0200    0.0000 C   0  0  0  0  0  0  0  0  0  0  0  0
    0.7219    4.2700    0.0000 H   0  0  0  0  0  0  0  0  0  0  0  0
    1.0568    6.1691    0.0000 H   0  0  0  0  0  0  0  0  0  0  0  0
    2.9851    6.1691    0.0000 H   0  0  0  0  0  0  0  0  0  0  0  0
    4.6200    2.0200    0.0000 C   0  0  0  0  0  0  0  0  0  0  0  0
    4.6200    0.5200    0.0000 C   0  0  0  0  0  0  0  0  0  0  0  0
    3.3200   -0.2300    0.0000 C   0  0  0  0  0  0  0  0  0  0  0  0
    3.3200   -2.6900    0.0000 O   0  0  0  0  0  0  0  0  0  0  0  0
    2.0200    0.5200    0.0000 C   0  0  1  0  0  0  0  0  0  0  0  0
    0.7200   -0.2300    0.0000 C   0  0  0  0  0  0  0  0  0  0  0  0
   -0.5800    0.5200    0.0000 C   0  0  0  0  0  0  0  0  0  0  0  0
   -1.8800   -0.2300    0.0000 C   0  0  0  0  0  0  0  0  0  0  0  0
   -1.8825   -1.7300    0.0000 O   0  0  0  0  0  0  0  0  0  0  0  0
    0.7200   -1.7300    0.0000 O   0  0  0  0  0  0  0  0  0  0  0  0
    2.0190   -2.4800    0.0000 H   0  0  0  0  0  0  0  0  0  0  0  0
    2.0200   -0.9800    0.0000 O   0  0  0  0  0  0  0  0  0  0  0  0
    3.3190   -1.7300    0.0000 H   0  0  0  0  0  0  0  0  0  0  0  0
    5.9189   -0.2302    0.0000 C   0  0  0  0  0  0  0  0  0  0  0  0
    7.2181    0.5196    0.0000 O   0  0  0  0  0  0  0  0  0  0  0  0
    5.9187   -1.7302    0.0000 N   0  0  0  0  0  0  0  0  0  0  0  0
    7.2176   -2.4804    0.0000 H   0  0  0  0  0  0  0  0  0  0  0  0
    4.6195   -2.4800    0.0000 H   0  0  0  0  0  0  0  0  0  0  0  0
    5.9189    2.7702    0.0000 O   0  0  0  0  0  0  0  0  0  0  0  0
    7.2181    2.0204    0.0000 H   0  0  0  0  0  0  0  0  0  0  0  0
   -4.4700   -1.7300    0.0000 O   0  0  0  0  0  0  0  0  0  0  0  0
   -5.7690   -2.4800    0.0000 H   0  0  0  0  0  0  0  0  0  0  0  0
  1  2  1  0  0  0  0 
  1  3  1  0  0  0  0 
  1  4  1  0  0  0  0 
  1  5  1  0  0  0  0 
  5  6  1  0  0  0  0 
  6  7  1  0  0  0  0 
  6  8  1  0  0  0  0 
  6  9  1  0  0  0  0 
  5 10  1  0  0  0  0 
 10 11  2  0  0  0  0 
 11 12  1  0  0  0  0 
 11 13  1  0  0  0  0 
 13 14  1  0  0  0  0 
 13 15  2  0  0  0  0 
 15 16  1  0  0  0  0 
 16 17  2  0  0  0  0 
 10 17  1  0  0  0  0 
 17 18  1  0  0  0  0 
 18 19  1  0  0  0  0 
 18 20  1  0  0  0  0 
 18 21  1  0  0  0  0 
 21 22  1  6  0  0  0 
 21 23  1  0  0  0  0 
 23 24  1  0  0  0  0 
 23 25  1  0  0  0  0 
 23 26  1  0  0  0  0 
 26 27  1  6  0  0  0 
 26 28  1  0  0  0  0 
 28 29  2  0  0  0  0 
 29 30  1  0  0  0  0 
 30 31  1  0  0  0  0 
 30 32  1  0  0  0  0 
 30 33  1  0  0  0  0 
 29 34  1  0  0  0  0 
 34 35  1  0  0  0  0 
 34 36  1  0  0  0  0 
 34 37  1  0  0  0  0 
 28 38  1  0  0  0  0 
 38 39  2  0  0  0  0 
 39 40  1  0  0  0  0 
 40 41  2  0  0  0  0 
 40 42  1  0  0  0  0 
 26 42  1  0  0  0  0 
 42 43  1  0  0  0  0 
 43 44  2  0  0  0  0 
 21 44  1  0  0  0  0 
 44 45  1  0  0  0  0 
 16 45  1  0  0  0  0 
 45 46  2  0  0  0  0 
 43 47  1  0  0  0  0 
 47 48  1  0  0  0  0 
 42 49  1  6  0  0  0 
 49 50  1  0  0  0  0 
 39 51  1  0  0  0  0 
 51 52  2  0  0  0  0 
 51 53  1  0  0  0  0 
 53 54  1  0  0  0  0 
 53 55  1  0  0  0  0 
 38 56  1  0  0  0  0 
 56 57  1  0  0  0  0 
 15 58  1  0  0  0  0 
 58 59  1  0  0  0  0 
M  CHG  1  29   1
M  END
> <Rank>
36

> <Priority_score>
0.019200000000000002

> <Reaction_type>
dehydration of N-C bond

> <Parent_ID>
31

> <Parent_InChI>
InChI=1S/C23H27N3O7/c1-25(2)12-5-6-13(27)15-10(12)7-9-8-11-17(26(3)4)19(29)16(22(24)32)21(31)23(11,33)20(30)14(9)18(15)28/h5-6,9,11,17,27,29-30,33H,7-8H2,1-4H3,(H2,24,32)

> <Parent_SMILES>
CN(C)c1ccc(O)c2c1C[C@H]1C[C@H]3[C@H](N(C)C)C(O)=C(C(N)=O)C(=O)[C@@]3(O)C(O)=C1C2=O

$$$$
Molecule 31_metabolite 39
  CDK     0516241031

 59 62  0  0  0  0  0  0  0  0999 V2000
   -5.6857    3.1073    0.0000 C   0  0  0  0  0  0  0  0  0  0  0  0
   -5.6857    4.6073    0.0000 H   0  0  0  0  0  0  0  0  0  0  0  0
   -7.1629    3.3678    0.0000 H   0  0  0  0  0  0  0  0  0  0  0  0
   -6.1988    1.6977    0.0000 H   0  0  0  0  0  0  0  0  0  0  0  0
   -4.3867    2.3573    0.0000 N   0  0  0  0  0  0  0  0  0  0  0  0
   -3.0877    3.1073    0.0000 C   0  0  0  0  0  0  0  0  0  0  0  0
   -1.7886    2.3573    0.0000 H   0  0  0  0  0  0  0  0  0  0  0  0
   -4.0518    4.2564    0.0000 H   0  0  0  0  0  0  0  0  0  0  0  0
   -2.1235    4.2564    0.0000 H   0  0  0  0  0  0  0  0  0  0  0  0
   -4.3867    0.8573    0.0000 C   0  0  0  0  0  0  0  0  0  0  0  0
   -5.6867    0.1073    0.0000 C   0  0  0  0  0  0  0  0  0  0  0  0
   -6.9856    0.8575    0.0000 H   0  0  0  0  0  0  0  0  0  0  0  0
   -5.6867   -1.3927    0.0000 C   0  0  0  0  0  0  0  0  0  0  0  0
   -6.9856   -2.1429    0.0000 H   0  0  0  0  0  0  0  0  0  0  0  0
   -4.3867   -2.1427    0.0000 C   0  0  0  0  0  0  0  0  0  0  0  0
   -3.0867   -1.3927    0.0000 C   0  0  0  0  0  0  0  0  0  0  0  0
   -3.0867    0.1073    0.0000 C   0  0  0  0  0  0  0  0  0  0  0  0
   -1.7967    0.8573    0.0000 C   0  0  0  0  0  0  0  0  0  0  0  0
   -0.8339    2.0075    0.0000 H   0  0  0  0  0  0  0  0  0  0  0  0
   -2.7633    2.0043    0.0000 H   0  0  0  0  0  0  0  0  0  0  0  0
   -0.4967    0.1073    0.0000 C   0  0  1  0  0  0  0  0  0  0  0  0
   -0.4967    3.0473    0.0000 H   0  0  0  0  0  0  0  0  0  0  0  0
    0.8033    0.8573    0.0000 C   0  0  0  0  0  0  0  0  0  0  0  0
    0.2910   -0.5525    0.0000 H   0  0  0  0  0  0  0  0  0  0  0  0
   -0.1608    2.0065    0.0000 H   0  0  0  0  0  0  0  0  0  0  0  0
    2.1033    0.1073    0.0000 C   0  0  1  0  0  0  0  0  0  0  0  0
    2.1033    1.6073    0.0000 H   0  0  0  0  0  0  0  0  0  0  0  0
    3.4033    0.8573    0.0000 C   0  0  1  0  0  0  0  0  0  0  0  0
    4.3674    2.0065    0.0000 H   0  0  0  0  0  0  0  0  0  0  0  0
    4.7033    0.1073    0.0000 C   0  0  0  0  0  0  0  0  0  0  0  0
    4.7033   -1.3927    0.0000 C   0  0  0  0  0  0  0  0  0  0  0  0
    3.4033   -2.1427    0.0000 C   0  0  0  0  0  0  0  0  0  0  0  0
    3.4033   -4.6027    0.0000 O   0  0  0  0  0  0  0  0  0  0  0  0
    2.1033   -1.3927    0.0000 C   0  0  1  0  0  0  0  0  0  0  0  0
    0.8033   -2.1427    0.0000 C   0  0  0  0  0  0  0  0  0  0  0  0
   -0.4967   -1.3927    0.0000 C   0  0  0  0  0  0  0  0  0  0  0  0
   -1.7967   -2.1427    0.0000 C   0  0  0  0  0  0  0  0  0  0  0  0
   -1.7992   -3.6427    0.0000 O   0  0  0  0  0  0  0  0  0  0  0  0
    0.8033   -3.6427    0.0000 O   0  0  0  0  0  0  0  0  0  0  0  0
    2.1023   -4.3927    0.0000 H   0  0  0  0  0  0  0  0  0  0  0  0
    2.1033   -2.8927    0.0000 O   0  0  0  0  0  0  0  0  0  0  0  0
    3.4023   -3.6427    0.0000 H   0  0  0  0  0  0  0  0  0  0  0  0
    6.0022   -2.1429    0.0000 C   0  0  0  0  0  0  0  0  0  0  0  0
    7.3014   -1.3931    0.0000 O   0  0  0  0  0  0  0  0  0  0  0  0
    6.0020   -3.6429    0.0000 N   0  0  0  0  0  0  0  0  0  0  0  0
    7.3009   -4.3931    0.0000 H   0  0  0  0  0  0  0  0  0  0  0  0
    4.7028   -4.3927    0.0000 H   0  0  0  0  0  0  0  0  0  0  0  0
    6.0022    0.8575    0.0000 O   0  0  0  0  0  0  0  0  0  0  0  0
    7.3014    0.1077    0.0000 H   0  0  0  0  0  0  0  0  0  0  0  0
    3.0597    2.8072    0.0000 N   0  0  0  0  0  0  0  0  0  0  0  0
    1.6502    3.3204    0.0000 C   0  0  0  0  0  0  0  0  0  0  0  0
    1.3899    4.7977    0.0000 H   0  0  0  0  0  0  0  0  0  0  0  0
    0.3511    2.5706    0.0000 H   0  0  0  0  0  0  0  0  0  0  0  0
    4.2089    3.7713    0.0000 C   0  0  0  0  0  0  0  0  0  0  0  0
    5.6183    3.2581    0.0000 H   0  0  0  0  0  0  0  0  0  0  0  0
    4.9590    5.0703    0.0000 H   0  0  0  0  0  0  0  0  0  0  0  0
    3.0599    4.7356    0.0000 H   0  0  0  0  0  0  0  0  0  0  0  0
   -4.3867   -3.6427    0.0000 O   0  0  0  0  0  0  0  0  0  0  0  0
   -5.6857   -4.3927    0.0000 H   0  0  0  0  0  0  0  0  0  0  0  0
  1  2  1  0  0  0  0 
  1  3  1  0  0  0  0 
  1  4  1  0  0  0  0 
  1  5  1  0  0  0  0 
  5  6  1  0  0  0  0 
  6  7  1  0  0  0  0 
  6  8  1  0  0  0  0 
  6  9  1  0  0  0  0 
  5 10  1  0  0  0  0 
 10 11  2  0  0  0  0 
 11 12  1  0  0  0  0 
 11 13  1  0  0  0  0 
 13 14  1  0  0  0  0 
 13 15  2  0  0  0  0 
 15 16  1  0  0  0  0 
 16 17  2  0  0  0  0 
 10 17  1  0  0  0  0 
 17 18  1  0  0  0  0 
 18 19  1  0  0  0  0 
 18 20  1  0  0  0  0 
 18 21  1  0  0  0  0 
 21 22  1  6  0  0  0 
 21 23  1  0  0  0  0 
 23 24  1  0  0  0  0 
 23 25  1  0  0  0  0 
 23 26  1  0  0  0  0 
 26 27  1  6  0  0  0 
 26 28  1  0  0  0  0 
 28 29  1  1  0  0  0 
 28 30  1  0  0  0  0 
 30 31  2  0  0  0  0 
 31 32  1  0  0  0  0 
 32 33  2  0  0  0  0 
 32 34  1  0  0  0  0 
 26 34  1  0  0  0  0 
 34 35  1  0  0  0  0 
 35 36  2  0  0  0  0 
 21 36  1  0  0  0  0 
 36 37  1  0  0  0  0 
 16 37  1  0  0  0  0 
 37 38  2  0  0  0  0 
 35 39  1  0  0  0  0 
 39 40  1  0  0  0  0 
 34 41  1  6  0  0  0 
 41 42  1  0  0  0  0 
 31 43  1  0  0  0  0 
 43 44  2  0  0  0  0 
 43 45  1  0  0  0  0 
 45 46  1  0  0  0  0 
 45 47  1  0  0  0  0 
 30 48  1  0  0  0  0 
 48 49  1  0  0  0  0 
 28 50  1  6  0  0  0 
 50 51  2  0  0  0  0 
 51 52  1  0  0  0  0 
 51 53  1  0  0  0  0 
 50 54  1  0  0  0  0 
 54 55  1  0  0  0  0 
 54 56  1  0  0  0  0 
 54 57  1  0  0  0  0 
 15 58  1  0  0  0  0 
 58 59  1  0  0  0  0 
M  CHG  1  50   1
M  END
> <Rank>
39

> <Priority_score>
0.016800000000000002

> <Reaction_type>
dehydration of N-C bond

> <Parent_ID>
31

> <Parent_InChI>
InChI=1S/C23H27N3O7/c1-25(2)12-5-6-13(27)15-10(12)7-9-8-11-17(26(3)4)19(29)16(22(24)32)21(31)23(11,33)20(30)14(9)18(15)28/h5-6,9,11,17,27,29-30,33H,7-8H2,1-4H3,(H2,24,32)

> <Parent_SMILES>
CN(C)c1ccc(O)c2c1C[C@H]1C[C@H]3[C@H](N(C)C)C(O)=C(C(N)=O)C(=O)[C@@]3(O)C(O)=C1C2=O

$$$$
Molecule 31_metabolite 40
  CDK     0516241031

 61 64  0  0  0  0  0  0  0  0999 V2000
   -5.1110    0.0043    0.0000 C   0  0  0  0  0  0  0  0  0  0  0  0
   -5.1110    1.5043    0.0000 H   0  0  0  0  0  0  0  0  0  0  0  0
   -6.5882    0.2648    0.0000 H   0  0  0  0  0  0  0  0  0  0  0  0
   -5.6240   -1.4052    0.0000 H   0  0  0  0  0  0  0  0  0  0  0  0
   -3.8119   -0.7457    0.0000 N   0  0  0  0  0  0  0  0  0  0  0  0
   -2.5129    0.0043    0.0000 C   0  0  0  0  0  0  0  0  0  0  0  0
   -1.2139   -0.7457    0.0000 H   0  0  0  0  0  0  0  0  0  0  0  0
   -3.4771    1.1534    0.0000 H   0  0  0  0  0  0  0  0  0  0  0  0
   -1.5487    1.1534    0.0000 H   0  0  0  0  0  0  0  0  0  0  0  0
   -3.8119   -2.2457    0.0000 C   0  0  0  0  0  0  0  0  0  0  0  0
   -5.1119   -2.9957    0.0000 C   0  0  0  0  0  0  0  0  0  0  0  0
   -6.4109   -2.2454    0.0000 H   0  0  0  0  0  0  0  0  0  0  0  0
   -5.1119   -4.4957    0.0000 C   0  0  0  0  0  0  0  0  0  0  0  0
   -6.4109   -5.2459    0.0000 H   0  0  0  0  0  0  0  0  0  0  0  0
   -3.8119   -5.2457    0.0000 C   0  0  0  0  0  0  0  0  0  0  0  0
   -2.5119   -4.4957    0.0000 C   0  0  0  0  0  0  0  0  0  0  0  0
   -2.5119   -2.9957    0.0000 C   0  0  0  0  0  0  0  0  0  0  0  0
   -1.2119   -2.2457    0.0000 C   0  0  0  0  0  0  0  0  0  0  0  0
   -1.7242   -3.6555    0.0000 H   0  0  0  0  0  0  0  0  0  0  0  0
   -2.1760   -1.0965    0.0000 H   0  0  0  0  0  0  0  0  0  0  0  0
    0.0881   -2.9957    0.0000 C   0  0  2  0  0  0  0  0  0  0  0  0
    0.0881   -0.0557    0.0000 H   0  0  0  0  0  0  0  0  0  0  0  0
    0.0881   -4.4957    0.0000 C   0  0  0  0  0  0  0  0  0  0  0  0
    1.3881   -5.2457    0.0000 C   0  0  0  0  0  0  0  0  0  0  0  0
    2.6881   -4.4957    0.0000 C   0  0  1  0  0  0  0  0  0  0  0  0
    2.6881   -2.9957    0.0000 C   0  0  2  0  0  0  0  0  0  0  0  0
    1.3895   -3.7465    0.0000 H   0  0  0  0  0  0  0  0  0  0  0  0
    3.9881   -2.2457    0.0000 C   0  0  1  0  0  0  0  0  0  0  0  0
    4.9521   -1.0965    0.0000 H   0  0  0  0  0  0  0  0  0  0  0  0
    5.2881   -2.9957    0.0000 C   0  0  0  0  0  0  0  0  0  0  0  0
    5.2881   -4.4957    0.0000 C   0  0  0  0  0  0  0  0  0  0  0  0
    3.9881   -5.2457    0.0000 C   0  0  0  0  0  0  0  0  0  0  0  0
    3.9881   -7.7057    0.0000 O   0  0  0  0  0  0  0  0  0  0  0  0
    6.5870   -5.2459    0.0000 C   0  0  0  0  0  0  0  0  0  0  0  0
    7.8861   -4.4961    0.0000 O   0  0  0  0  0  0  0  0  0  0  0  0
    6.5867   -6.7459    0.0000 N   0  0  0  0  0  0  0  0  0  0  0  0
    7.8857   -7.4961    0.0000 H   0  0  0  0  0  0  0  0  0  0  0  0
    5.2876   -7.4957    0.0000 H   0  0  0  0  0  0  0  0  0  0  0  0
    6.5870   -2.2454    0.0000 O   0  0  0  0  0  0  0  0  0  0  0  0
    7.8861   -2.9952    0.0000 H   0  0  0  0  0  0  0  0  0  0  0  0
    4.8297    0.0659    0.0000 N   0  0  0  0  0  0  0  0  0  0  0  0
    6.3069    0.3262    0.0000 C   0  0  0  0  0  0  0  0  0  0  0  0
    7.2710   -0.8230    0.0000 H   0  0  0  0  0  0  0  0  0  0  0  0
    7.6060    1.0761    0.0000 H   0  0  0  0  0  0  0  0  0  0  0  0
    5.7940    1.7358    0.0000 H   0  0  0  0  0  0  0  0  0  0  0  0
    3.8656    1.2151    0.0000 C   0  0  0  0  0  0  0  0  0  0  0  0
    4.8715    3.9777    0.0000 H   0  0  0  0  0  0  0  0  0  0  0  0
    2.5667    1.9652    0.0000 H   0  0  0  0  0  0  0  0  0  0  0  0
    2.9013    0.0661    0.0000 H   0  0  0  0  0  0  0  0  0  0  0  0
    1.3881   -2.2457    0.0000 C   0  0  0  0  0  0  0  0  0  0  0  0
    2.6870   -1.4955    0.0000 H   0  0  0  0  0  0  0  0  0  0  0  0
    0.2391   -1.2813    0.0000 O   0  0  0  0  0  0  0  0  0  0  0  0
    0.6665    1.1412    0.0000 H   0  0  0  0  0  0  0  0  0  0  0  0
    2.6881   -5.9957    0.0000 O   0  0  0  0  0  0  0  0  0  0  0  0
    3.9871   -6.7457    0.0000 H   0  0  0  0  0  0  0  0  0  0  0  0
    1.3881   -6.7457    0.0000 O   0  0  0  0  0  0  0  0  0  0  0  0
    2.6871   -7.4957    0.0000 H   0  0  0  0  0  0  0  0  0  0  0  0
   -1.2119   -5.2457    0.0000 C   0  0  0  0  0  0  0  0  0  0  0  0
   -1.2119   -6.7457    0.0000 O   0  0  0  0  0  0  0  0  0  0  0  0
   -3.8119   -6.7457    0.0000 O   0  0  0  0  0  0  0  0  0  0  0  0
   -5.1110   -7.4957    0.0000 H   0  0  0  0  0  0  0  0  0  0  0  0
  1  2  1  0  0  0  0 
  1  3  1  0  0  0  0 
  1  4  1  0  0  0  0 
  1  5  1  0  0  0  0 
  5  6  1  0  0  0  0 
  6  7  1  0  0  0  0 
  6  8  1  0  0  0  0 
  6  9  1  0  0  0  0 
  5 10  1  0  0  0  0 
 10 11  2  0  0  0  0 
 11 12  1  0  0  0  0 
 11 13  1  0  0  0  0 
 13 14  1  0  0  0  0 
 13 15  2  0  0  0  0 
 15 16  1  0  0  0  0 
 16 17  2  0  0  0  0 
 10 17  1  0  0  0  0 
 17 18  1  0  0  0  0 
 18 19  1  0  0  0  0 
 18 20  1  0  0  0  0 
 18 21  1  0  0  0  0 
 21 22  1  6  0  0  0 
 21 23  1  0  0  0  0 
 23 24  2  0  0  0  0 
 24 25  1  0  0  0  0 
 25 26  1  0  0  0  0 
 26 27  1  6  0  0  0 
 26 28  1  0  0  0  0 
 28 29  1  1  0  0  0 
 28 30  1  0  0  0  0 
 30 31  2  0  0  0  0 
 31 32  1  0  0  0  0 
 25 32  1  0  0  0  0 
 32 33  2  0  0  0  0 
 31 34  1  0  0  0  0 
 34 35  2  0  0  0  0 
 34 36  1  0  0  0  0 
 36 37  1  0  0  0  0 
 36 38  1  0  0  0  0 
 30 39  1  0  0  0  0 
 39 40  1  0  0  0  0 
 28 41  1  6  0  0  0 
 41 42  1  0  0  0  0 
 42 43  1  0  0  0  0 
 42 44  1  0  0  0  0 
 42 45  1  0  0  0  0 
 41 46  1  0  0  0  0 
 46 47  1  0  0  0  0 
 46 48  1  0  0  0  0 
 46 49  1  0  0  0  0 
 26 50  1  0  0  0  0 
 21 50  1  0  0  0  0 
 50 51  1  0  0  0  0 
 50 52  1  0  0  0  0 
 52 53  1  0  0  0  0 
 25 54  1  6  0  0  0 
 54 55  1  0  0  0  0 
 24 56  1  0  0  0  0 
 56 57  1  0  0  0  0 
 23 58  1  0  0  0  0 
 16 58  1  0  0  0  0 
 58 59  2  0  0  0  0 
 15 60  1  0  0  0  0 
 60 61  1  0  0  0  0 
M  END
> <Rank>
40

> <Priority_score>
0.008

> <Reaction_type>
aliphatic hydroxylation

> <Parent_ID>
31

> <Parent_InChI>
InChI=1S/C23H27N3O7/c1-25(2)12-5-6-13(27)15-10(12)7-9-8-11-17(26(3)4)19(29)16(22(24)32)21(31)23(11,33)20(30)14(9)18(15)28/h5-6,9,11,17,27,29-30,33H,7-8H2,1-4H3,(H2,24,32)

> <Parent_SMILES>
CN(C)c1ccc(O)c2c1C[C@H]1C[C@H]3[C@H](N(C)C)C(O)=C(C(N)=O)C(=O)[C@@]3(O)C(O)=C1C2=O

$$$$
Molecule 31_metabolite 41
  CDK     0516241031

 61 64  0  0  0  0  0  0  0  0999 V2000
   -5.5862    0.1219    0.0000 C   0  0  0  0  0  0  0  0  0  0  0  0
   -5.5862    1.6219    0.0000 H   0  0  0  0  0  0  0  0  0  0  0  0
   -7.0634    0.3823    0.0000 H   0  0  0  0  0  0  0  0  0  0  0  0
   -6.0992   -1.2877    0.0000 H   0  0  0  0  0  0  0  0  0  0  0  0
   -4.2871   -0.6281    0.0000 N   0  0  0  0  0  0  0  0  0  0  0  0
   -2.9881    0.1219    0.0000 C   0  0  0  0  0  0  0  0  0  0  0  0
   -1.6890   -0.6281    0.0000 H   0  0  0  0  0  0  0  0  0  0  0  0
   -3.9523    1.2709    0.0000 H   0  0  0  0  0  0  0  0  0  0  0  0
   -2.0239    1.2709    0.0000 H   0  0  0  0  0  0  0  0  0  0  0  0
   -4.2871   -2.1281    0.0000 C   0  0  0  0  0  0  0  0  0  0  0  0
   -5.5871   -2.8781    0.0000 C   0  0  0  0  0  0  0  0  0  0  0  0
   -6.8860   -2.1279    0.0000 H   0  0  0  0  0  0  0  0  0  0  0  0
   -5.5871   -4.3781    0.0000 C   0  0  0  0  0  0  0  0  0  0  0  0
   -6.8860   -5.1283    0.0000 H   0  0  0  0  0  0  0  0  0  0  0  0
   -4.2871   -5.1281    0.0000 C   0  0  0  0  0  0  0  0  0  0  0  0
   -2.9871   -4.3781    0.0000 C   0  0  0  0  0  0  0  0  0  0  0  0
   -2.9871   -2.8781    0.0000 C   0  0  0  0  0  0  0  0  0  0  0  0
   -1.6871   -2.1281    0.0000 C   0  0  0  0  0  0  0  0  0  0  0  0
   -0.7231   -0.9790    0.0000 H   0  0  0  0  0  0  0  0  0  0  0  0
   -2.6512   -0.9790    0.0000 H   0  0  0  0  0  0  0  0  0  0  0  0
   -0.3871   -2.8781    0.0000 C   0  0  1  0  0  0  0  0  0  0  0  0
    0.9114   -3.6290    0.0000 H   0  0  0  0  0  0  0  0  0  0  0  0
    0.9129   -2.1281    0.0000 C   0  0  0  0  0  0  0  0  0  0  0  0
    2.4939   -0.2435    0.0000 H   0  0  0  0  0  0  0  0  0  0  0  0
   -0.9767    0.1242    0.0000 H   0  0  0  0  0  0  0  0  0  0  0  0
    2.2129   -2.8781    0.0000 C   0  0  1  0  0  0  0  0  0  0  0  0
    3.5129   -2.1281    0.0000 C   0  0  1  0  0  0  0  0  0  0  0  0
    4.4769   -0.9790    0.0000 H   0  0  0  0  0  0  0  0  0  0  0  0
    4.8129   -2.8781    0.0000 C   0  0  0  0  0  0  0  0  0  0  0  0
    4.8129   -4.3781    0.0000 C   0  0  0  0  0  0  0  0  0  0  0  0
    3.5129   -5.1281    0.0000 C   0  0  0  0  0  0  0  0  0  0  0  0
    3.5129   -7.5881    0.0000 O   0  0  0  0  0  0  0  0  0  0  0  0
    2.2129   -4.3781    0.0000 C   0  0  1  0  0  0  0  0  0  0  0  0
    0.9129   -5.1281    0.0000 C   0  0  0  0  0  0  0  0  0  0  0  0
   -0.3871   -4.3781    0.0000 C   0  0  0  0  0  0  0  0  0  0  0  0
   -1.6871   -5.1281    0.0000 C   0  0  0  0  0  0  0  0  0  0  0  0
   -1.6871   -6.6281    0.0000 O   0  0  0  0  0  0  0  0  0  0  0  0
    0.9129   -6.6281    0.0000 O   0  0  0  0  0  0  0  0  0  0  0  0
    2.2119   -7.3781    0.0000 H   0  0  0  0  0  0  0  0  0  0  0  0
    2.2129   -5.8781    0.0000 O   0  0  0  0  0  0  0  0  0  0  0  0
    3.5119   -6.6281    0.0000 H   0  0  0  0  0  0  0  0  0  0  0  0
    6.1118   -5.1283    0.0000 C   0  0  0  0  0  0  0  0  0  0  0  0
    7.4110   -4.3785    0.0000 O   0  0  0  0  0  0  0  0  0  0  0  0
    6.1116   -6.6283    0.0000 N   0  0  0  0  0  0  0  0  0  0  0  0
    7.4105   -7.3785    0.0000 H   0  0  0  0  0  0  0  0  0  0  0  0
    4.8124   -7.3781    0.0000 H   0  0  0  0  0  0  0  0  0  0  0  0
    6.1118   -2.1279    0.0000 O   0  0  0  0  0  0  0  0  0  0  0  0
    7.4110   -2.8777    0.0000 H   0  0  0  0  0  0  0  0  0  0  0  0
    3.0027    0.7673    0.0000 N   0  0  0  0  0  0  0  0  0  0  0  0
    4.5196    2.0398    0.0000 C   0  0  0  0  0  0  0  0  0  0  0  0
    5.9290    1.5266    0.0000 H   0  0  0  0  0  0  0  0  0  0  0  0
    5.2697    3.3388    0.0000 H   0  0  0  0  0  0  0  0  0  0  0  0
    3.3706    3.0041    0.0000 H   0  0  0  0  0  0  0  0  0  0  0  0
    1.7301    2.2842    0.0000 C   0  0  0  0  0  0  0  0  0  0  0  0
    2.2433    3.6937    0.0000 H   0  0  0  0  0  0  0  0  0  0  0  0
    0.4311    3.0343    0.0000 H   0  0  0  0  0  0  0  0  0  0  0  0
    0.7658    1.1352    0.0000 H   0  0  0  0  0  0  0  0  0  0  0  0
    2.2129   -1.3781    0.0000 O   0  0  0  0  0  0  0  0  0  0  0  0
    4.7590    0.0919    0.0000 H   0  0  0  0  0  0  0  0  0  0  0  0
   -4.2871   -6.6281    0.0000 O   0  0  0  0  0  0  0  0  0  0  0  0
   -5.5862   -7.3781    0.0000 H   0  0  0  0  0  0  0  0  0  0  0  0
  1  2  1  0  0  0  0 
  1  3  1  0  0  0  0 
  1  4  1  0  0  0  0 
  1  5  1  0  0  0  0 
  5  6  1  0  0  0  0 
  6  7  1  0  0  0  0 
  6  8  1  0  0  0  0 
  6  9  1  0  0  0  0 
  5 10  1  0  0  0  0 
 10 11  2  0  0  0  0 
 11 12  1  0  0  0  0 
 11 13  1  0  0  0  0 
 13 14  1  0  0  0  0 
 13 15  2  0  0  0  0 
 15 16  1  0  0  0  0 
 16 17  2  0  0  0  0 
 10 17  1  0  0  0  0 
 17 18  1  0  0  0  0 
 18 19  1  0  0  0  0 
 18 20  1  0  0  0  0 
 18 21  1  0  0  0  0 
 21 22  1  6  0  0  0 
 21 23  1  0  0  0  0 
 23 24  1  0  0  0  0 
 23 25  1  0  0  0  0 
 23 26  1  0  0  0  0 
 26 27  1  0  0  0  0 
 27 28  1  1  0  0  0 
 27 29  1  0  0  0  0 
 29 30  2  0  0  0  0 
 30 31  1  0  0  0  0 
 31 32  2  0  0  0  0 
 31 33  1  0  0  0  0 
 26 33  1  0  0  0  0 
 33 34  1  0  0  0  0 
 34 35  2  0  0  0  0 
 21 35  1  0  0  0  0 
 35 36  1  0  0  0  0 
 16 36  1  0  0  0  0 
 36 37  2  0  0  0  0 
 34 38  1  0  0  0  0 
 38 39  1  0  0  0  0 
 33 40  1  6  0  0  0 
 40 41  1  0  0  0  0 
 30 42  1  0  0  0  0 
 42 43  2  0  0  0  0 
 42 44  1  0  0  0  0 
 44 45  1  0  0  0  0 
 44 46  1  0  0  0  0 
 29 47  1  0  0  0  0 
 47 48  1  0  0  0  0 
 27 49  1  6  0  0  0 
 49 50  1  0  0  0  0 
 50 51  1  0  0  0  0 
 50 52  1  0  0  0  0 
 50 53  1  0  0  0  0 
 49 54  1  0  0  0  0 
 54 55  1  0  0  0  0 
 54 56  1  0  0  0  0 
 54 57  1  0  0  0  0 
 26 58  1  6  0  0  0 
 58 59  1  0  0  0  0 
 15 60  1  0  0  0  0 
 60 61  1  0  0  0  0 
M  END
> <Rank>
40

> <Priority_score>
0.008

> <Reaction_type>
aliphatic hydroxylation

> <Parent_ID>
31

> <Parent_InChI>
InChI=1S/C23H27N3O7/c1-25(2)12-5-6-13(27)15-10(12)7-9-8-11-17(26(3)4)19(29)16(22(24)32)21(31)23(11,33)20(30)14(9)18(15)28/h5-6,9,11,17,27,29-30,33H,7-8H2,1-4H3,(H2,24,32)

> <Parent_SMILES>
CN(C)c1ccc(O)c2c1C[C@H]1C[C@H]3[C@H](N(C)C)C(O)=C(C(N)=O)C(=O)[C@@]3(O)C(O)=C1C2=O

$$$$
Molecule 31_metabolite 42
  CDK     0516241031

 58 61  0  0  0  0  0  0  0  0999 V2000
   -5.2765    5.1068    0.0000 C   0  0  0  0  0  0  0  0  0  0  0  0
   -5.2765    6.6068    0.0000 H   0  0  0  0  0  0  0  0  0  0  0  0
   -6.7537    5.3673    0.0000 H   0  0  0  0  0  0  0  0  0  0  0  0
   -5.7895    3.6973    0.0000 H   0  0  0  0  0  0  0  0  0  0  0  0
   -3.9775    4.3568    0.0000 N   0  0  0  0  0  0  0  0  0  0  0  0
   -2.6784    5.1068    0.0000 C   0  0  0  0  0  0  0  0  0  0  0  0
   -1.3794    4.3568    0.0000 H   0  0  0  0  0  0  0  0  0  0  0  0
   -3.6426    6.2559    0.0000 H   0  0  0  0  0  0  0  0  0  0  0  0
   -1.7143    6.2559    0.0000 H   0  0  0  0  0  0  0  0  0  0  0  0
   -3.9775    2.8568    0.0000 C   0  0  0  0  0  0  0  0  0  0  0  0
   -5.2775    2.1068    0.0000 C   0  0  0  0  0  0  0  0  0  0  0  0
   -6.5764    2.8570    0.0000 H   0  0  0  0  0  0  0  0  0  0  0  0
   -5.2775    0.6068    0.0000 C   0  0  0  0  0  0  0  0  0  0  0  0
   -6.5764   -0.1434    0.0000 H   0  0  0  0  0  0  0  0  0  0  0  0
   -3.9775   -0.1432    0.0000 C   0  0  0  0  0  0  0  0  0  0  0  0
   -2.6775    0.6068    0.0000 C   0  0  0  0  0  0  0  0  0  0  0  0
   -2.6775    2.1068    0.0000 C   0  0  0  0  0  0  0  0  0  0  0  0
   -1.3875    2.8568    0.0000 C   0  0  0  0  0  0  0  0  0  0  0  0
   -0.4247    4.0070    0.0000 H   0  0  0  0  0  0  0  0  0  0  0  0
   -2.3541    4.0038    0.0000 H   0  0  0  0  0  0  0  0  0  0  0  0
   -0.0875    2.1068    0.0000 C   0  0  0  0  0  0  0  0  0  0  0  0
    1.2125    2.8568    0.0000 C   0  0  0  0  0  0  0  0  0  0  0  0
    1.2125    4.3568    0.0000 H   0  0  0  0  0  0  0  0  0  0  0  0
    2.5125    2.1068    0.0000 C   0  0  1  0  0  0  0  0  0  0  0  0
    2.5125    3.6068    0.0000 H   0  0  0  0  0  0  0  0  0  0  0  0
    3.8125    2.8568    0.0000 C   0  0  1  0  0  0  0  0  0  0  0  0
    4.7766    4.0060    0.0000 H   0  0  0  0  0  0  0  0  0  0  0  0
    5.1125    2.1068    0.0000 C   0  0  0  0  0  0  0  0  0  0  0  0
    5.1125    0.6068    0.0000 C   0  0  0  0  0  0  0  0  0  0  0  0
    3.8125   -0.1432    0.0000 C   0  0  0  0  0  0  0  0  0  0  0  0
    3.8125   -2.6032    0.0000 O   0  0  0  0  0  0  0  0  0  0  0  0
    2.5125    0.6068    0.0000 C   0  0  1  0  0  0  0  0  0  0  0  0
    1.2125   -0.1432    0.0000 C   0  0  0  0  0  0  0  0  0  0  0  0
   -0.0875    0.6068    0.0000 C   0  0  0  0  0  0  0  0  0  0  0  0
   -1.3875   -0.1432    0.0000 C   0  0  0  0  0  0  0  0  0  0  0  0
   -1.3900   -1.6432    0.0000 O   0  0  0  0  0  0  0  0  0  0  0  0
    1.2125   -1.6432    0.0000 O   0  0  0  0  0  0  0  0  0  0  0  0
    2.5116   -2.3932    0.0000 H   0  0  0  0  0  0  0  0  0  0  0  0
    2.5125   -0.8932    0.0000 O   0  0  0  0  0  0  0  0  0  0  0  0
    3.8116   -1.6432    0.0000 H   0  0  0  0  0  0  0  0  0  0  0  0
    6.4114   -0.1434    0.0000 C   0  0  0  0  0  0  0  0  0  0  0  0
    7.7106    0.6064    0.0000 O   0  0  0  0  0  0  0  0  0  0  0  0
    6.4112   -1.6434    0.0000 N   0  0  0  0  0  0  0  0  0  0  0  0
    7.7101   -2.3936    0.0000 H   0  0  0  0  0  0  0  0  0  0  0  0
    5.1120   -2.3932    0.0000 H   0  0  0  0  0  0  0  0  0  0  0  0
    6.4114    2.8570    0.0000 O   0  0  0  0  0  0  0  0  0  0  0  0
    7.7106    2.1072    0.0000 H   0  0  0  0  0  0  0  0  0  0  0  0
    2.8073    5.6196    0.0000 N   0  0  0  0  0  0  0  0  0  0  0  0
    3.7716    6.7686    0.0000 C   0  0  0  0  0  0  0  0  0  0  0  0
    5.2488    6.5079    0.0000 H   0  0  0  0  0  0  0  0  0  0  0  0
    4.2848    8.1780    0.0000 H   0  0  0  0  0  0  0  0  0  0  0  0
    2.4726    7.5187    0.0000 H   0  0  0  0  0  0  0  0  0  0  0  0
    1.3301    5.8802    0.0000 C   0  0  0  0  0  0  0  0  0  0  0  0
    0.3658    4.7313    0.0000 H   0  0  0  0  0  0  0  0  0  0  0  0
    0.0311    6.6304    0.0000 H   0  0  0  0  0  0  0  0  0  0  0  0
    2.3359    8.6428    0.0000 H   0  0  0  0  0  0  0  0  0  0  0  0
   -3.9775   -1.6432    0.0000 O   0  0  0  0  0  0  0  0  0  0  0  0
   -5.2765   -2.3932    0.0000 H   0  0  0  0  0  0  0  0  0  0  0  0
  1  2  1  0  0  0  0 
  1  3  1  0  0  0  0 
  1  4  1  0  0  0  0 
  1  5  1  0  0  0  0 
  5  6  1  0  0  0  0 
  6  7  1  0  0  0  0 
  6  8  1  0  0  0  0 
  6  9  1  0  0  0  0 
  5 10  1  0  0  0  0 
 10 11  2  0  0  0  0 
 11 12  1  0  0  0  0 
 11 13  1  0  0  0  0 
 13 14  1  0  0  0  0 
 13 15  2  0  0  0  0 
 15 16  1  0  0  0  0 
 16 17  2  0  0  0  0 
 10 17  1  0  0  0  0 
 17 18  1  0  0  0  0 
 18 19  1  0  0  0  0 
 18 20  1  0  0  0  0 
 18 21  1  0  0  0  0 
 21 22  2  0  0  0  0 
 22 23  1  0  0  0  0 
 22 24  1  0  0  0  0 
 24 25  1  6  0  0  0 
 24 26  1  0  0  0  0 
 26 27  1  1  0  0  0 
 26 28  1  0  0  0  0 
 28 29  2  0  0  0  0 
 29 30  1  0  0  0  0 
 30 31  2  0  0  0  0 
 30 32  1  0  0  0  0 
 24 32  1  0  0  0  0 
 32 33  1  0  0  0  0 
 33 34  2  0  0  0  0 
 21 34  1  0  0  0  0 
 34 35  1  0  0  0  0 
 16 35  1  0  0  0  0 
 35 36  2  0  0  0  0 
 33 37  1  0  0  0  0 
 37 38  1  0  0  0  0 
 32 39  1  6  0  0  0 
 39 40  1  0  0  0  0 
 29 41  1  0  0  0  0 
 41 42  2  0  0  0  0 
 41 43  1  0  0  0  0 
 43 44  1  0  0  0  0 
 43 45  1  0  0  0  0 
 28 46  1  0  0  0  0 
 46 47  1  0  0  0  0 
 26 48  1  6  0  0  0 
 48 49  1  0  0  0  0 
 49 50  1  0  0  0  0 
 49 51  1  0  0  0  0 
 49 52  1  0  0  0  0 
 48 53  1  0  0  0  0 
 53 54  1  0  0  0  0 
 53 55  1  0  0  0  0 
 53 56  1  0  0  0  0 
 15 57  1  0  0  0  0 
 57 58  1  0  0  0  0 
M  END
> <Rank>
42

> <Priority_score>
0.004

> <Reaction_type>
alkyl dehydrogenation

> <Parent_ID>
31

> <Parent_InChI>
InChI=1S/C23H27N3O7/c1-25(2)12-5-6-13(27)15-10(12)7-9-8-11-17(26(3)4)19(29)16(22(24)32)21(31)23(11,33)20(30)14(9)18(15)28/h5-6,9,11,17,27,29-30,33H,7-8H2,1-4H3,(H2,24,32)

> <Parent_SMILES>
CN(C)c1ccc(O)c2c1C[C@H]1C[C@H]3[C@H](N(C)C)C(O)=C(C(N)=O)C(=O)[C@@]3(O)C(O)=C1C2=O

$$$$
Molecule 31_metabolite 43
  CDK     0516241031

 58 61  0  0  0  0  0  0  0  0999 V2000
   -5.6049    4.5689    0.0000 C   0  0  0  0  0  0  0  0  0  0  0  0
   -5.6049    6.0689    0.0000 H   0  0  0  0  0  0  0  0  0  0  0  0
   -7.0821    4.8294    0.0000 H   0  0  0  0  0  0  0  0  0  0  0  0
   -6.1179    3.1594    0.0000 H   0  0  0  0  0  0  0  0  0  0  0  0
   -4.3059    3.8189    0.0000 N   0  0  0  0  0  0  0  0  0  0  0  0
   -3.0068    4.5689    0.0000 C   0  0  0  0  0  0  0  0  0  0  0  0
   -1.7078    3.8189    0.0000 H   0  0  0  0  0  0  0  0  0  0  0  0
   -3.9710    5.7180    0.0000 H   0  0  0  0  0  0  0  0  0  0  0  0
   -2.0427    5.7180    0.0000 H   0  0  0  0  0  0  0  0  0  0  0  0
   -4.3059    2.3189    0.0000 C   0  0  0  0  0  0  0  0  0  0  0  0
   -5.6059    1.5689    0.0000 C   0  0  0  0  0  0  0  0  0  0  0  0
   -6.9048    2.3191    0.0000 H   0  0  0  0  0  0  0  0  0  0  0  0
   -5.6059    0.0689    0.0000 C   0  0  0  0  0  0  0  0  0  0  0  0
   -6.9048   -0.6813    0.0000 H   0  0  0  0  0  0  0  0  0  0  0  0
   -4.3059   -0.6811    0.0000 C   0  0  0  0  0  0  0  0  0  0  0  0
   -3.0059    0.0689    0.0000 C   0  0  0  0  0  0  0  0  0  0  0  0
   -3.0059    1.5689    0.0000 C   0  0  0  0  0  0  0  0  0  0  0  0
   -1.7159    2.3189    0.0000 C   0  0  0  0  0  0  0  0  0  0  0  0
   -2.2297    0.9097    0.0000 H   0  0  0  0  0  0  0  0  0  0  0  0
   -2.6825    3.4659    0.0000 H   0  0  0  0  0  0  0  0  0  0  0  0
   -0.4159    1.5689    0.0000 C   0  0  1  0  0  0  0  0  0  0  0  0
   -0.4159    3.0689    0.0000 H   0  0  0  0  0  0  0  0  0  0  0  0
    0.8841    2.3189    0.0000 C   0  0  0  0  0  0  0  0  0  0  0  0
    0.8841    3.8189    0.0000 H   0  0  0  0  0  0  0  0  0  0  0  0
    2.1841    1.5689    0.0000 C   0  0  0  0  0  0  0  0  0  0  0  0
    3.4841    2.3189    0.0000 C   0  0  1  0  0  0  0  0  0  0  0  0
    4.4482    3.4681    0.0000 H   0  0  0  0  0  0  0  0  0  0  0  0
    4.7841    1.5689    0.0000 C   0  0  0  0  0  0  0  0  0  0  0  0
    4.7841    0.0689    0.0000 C   0  0  0  0  0  0  0  0  0  0  0  0
    3.4841   -0.6811    0.0000 C   0  0  0  0  0  0  0  0  0  0  0  0
    3.4841   -3.1411    0.0000 O   0  0  0  0  0  0  0  0  0  0  0  0
    2.1841    0.0689    0.0000 C   0  0  1  0  0  0  0  0  0  0  0  0
    0.8841   -0.6811    0.0000 C   0  0  0  0  0  0  0  0  0  0  0  0
   -0.4159    0.0689    0.0000 C   0  0  0  0  0  0  0  0  0  0  0  0
   -1.7159   -0.6811    0.0000 C   0  0  0  0  0  0  0  0  0  0  0  0
   -1.7184   -2.1811    0.0000 O   0  0  0  0  0  0  0  0  0  0  0  0
    0.8841   -2.1811    0.0000 O   0  0  0  0  0  0  0  0  0  0  0  0
    2.1832   -2.9311    0.0000 H   0  0  0  0  0  0  0  0  0  0  0  0
    2.1841   -1.4311    0.0000 O   0  0  0  0  0  0  0  0  0  0  0  0
    3.4832   -2.1811    0.0000 H   0  0  0  0  0  0  0  0  0  0  0  0
    6.0830   -0.6813    0.0000 C   0  0  0  0  0  0  0  0  0  0  0  0
    7.3822    0.0685    0.0000 O   0  0  0  0  0  0  0  0  0  0  0  0
    6.0828   -2.1813    0.0000 N   0  0  0  0  0  0  0  0  0  0  0  0
    7.3817   -2.9315    0.0000 H   0  0  0  0  0  0  0  0  0  0  0  0
    4.7836   -2.9311    0.0000 H   0  0  0  0  0  0  0  0  0  0  0  0
    6.0830    2.3191    0.0000 O   0  0  0  0  0  0  0  0  0  0  0  0
    7.3822    1.5693    0.0000 H   0  0  0  0  0  0  0  0  0  0  0  0
    2.8071    4.1796    0.0000 N   0  0  0  0  0  0  0  0  0  0  0  0
    3.7714    5.3286    0.0000 C   0  0  0  0  0  0  0  0  0  0  0  0
    5.2486    5.0679    0.0000 H   0  0  0  0  0  0  0  0  0  0  0  0
    4.2846    6.7380    0.0000 H   0  0  0  0  0  0  0  0  0  0  0  0
    2.4725    6.0787    0.0000 H   0  0  0  0  0  0  0  0  0  0  0  0
    1.3299    4.4402    0.0000 C   0  0  0  0  0  0  0  0  0  0  0  0
    0.8171    5.8498    0.0000 H   0  0  0  0  0  0  0  0  0  0  0  0
   -0.1473    4.1799    0.0000 H   0  0  0  0  0  0  0  0  0  0  0  0
    1.3298    2.9402    0.0000 H   0  0  0  0  0  0  0  0  0  0  0  0
   -4.3059   -2.1811    0.0000 O   0  0  0  0  0  0  0  0  0  0  0  0
   -5.6049   -2.9311    0.0000 H   0  0  0  0  0  0  0  0  0  0  0  0
  1  2  1  0  0  0  0 
  1  3  1  0  0  0  0 
  1  4  1  0  0  0  0 
  1  5  1  0  0  0  0 
  5  6  1  0  0  0  0 
  6  7  1  0  0  0  0 
  6  8  1  0  0  0  0 
  6  9  1  0  0  0  0 
  5 10  1  0  0  0  0 
 10 11  2  0  0  0  0 
 11 12  1  0  0  0  0 
 11 13  1  0  0  0  0 
 13 14  1  0  0  0  0 
 13 15  2  0  0  0  0 
 15 16  1  0  0  0  0 
 16 17  2  0  0  0  0 
 10 17  1  0  0  0  0 
 17 18  1  0  0  0  0 
 18 19  1  0  0  0  0 
 18 20  1  0  0  0  0 
 18 21  1  0  0  0  0 
 21 22  1  6  0  0  0 
 21 23  1  0  0  0  0 
 23 24  1  0  0  0  0 
 23 25  2  0  0  0  0 
 25 26  1  0  0  0  0 
 26 27  1  1  0  0  0 
 26 28  1  0  0  0  0 
 28 29  2  0  0  0  0 
 29 30  1  0  0  0  0 
 30 31  2  0  0  0  0 
 30 32  1  0  0  0  0 
 25 32  1  0  0  0  0 
 32 33  1  0  0  0  0 
 33 34  2  0  0  0  0 
 21 34  1  0  0  0  0 
 34 35  1  0  0  0  0 
 16 35  1  0  0  0  0 
 35 36  2  0  0  0  0 
 33 37  1  0  0  0  0 
 37 38  1  0  0  0  0 
 32 39  1  6  0  0  0 
 39 40  1  0  0  0  0 
 29 41  1  0  0  0  0 
 41 42  2  0  0  0  0 
 41 43  1  0  0  0  0 
 43 44  1  0  0  0  0 
 43 45  1  0  0  0  0 
 28 46  1  0  0  0  0 
 46 47  1  0  0  0  0 
 26 48  1  6  0  0  0 
 48 49  1  0  0  0  0 
 49 50  1  0  0  0  0 
 49 51  1  0  0  0  0 
 49 52  1  0  0  0  0 
 48 53  1  0  0  0  0 
 53 54  1  0  0  0  0 
 53 55  1  0  0  0  0 
 53 56  1  0  0  0  0 
 15 57  1  0  0  0  0 
 57 58  1  0  0  0  0 
M  END
> <Rank>
43

> <Priority_score>
0.0016

> <Reaction_type>
alkyl dehydrogenation

> <Parent_ID>
31

> <Parent_InChI>
InChI=1S/C23H27N3O7/c1-25(2)12-5-6-13(27)15-10(12)7-9-8-11-17(26(3)4)19(29)16(22(24)32)21(31)23(11,33)20(30)14(9)18(15)28/h5-6,9,11,17,27,29-30,33H,7-8H2,1-4H3,(H2,24,32)

> <Parent_SMILES>
CN(C)c1ccc(O)c2c1C[C@H]1C[C@H]3[C@H](N(C)C)C(O)=C(C(N)=O)C(=O)[C@@]3(O)C(O)=C1C2=O

$$$$
Molecule 32
  CDK     0516241031

 21 23  0  0  0  0  0  0  0  0999 V2000
   -0.5568   -3.1525    0.0000 C   0  0  0  0  0  0  0  0  0  0  0  0
   -0.8900   -1.6900    0.0000 N   0  0  0  0  0  0  0  0  0  0  0  0
    0.2800   -0.7500    0.0000 C   0  0  0  0  0  0  0  0  0  0  0  0
    0.2800    0.7500    0.0000 C   0  0  0  0  0  0  0  0  0  0  0  0
    1.5800    1.5000    0.0000 C   0  0  0  0  0  0  0  0  0  0  0  0
    2.8800    0.7500    0.0000 C   0  0  0  0  0  0  0  0  0  0  0  0
    2.8800   -0.7500    0.0000 C   0  0  0  0  0  0  0  0  0  0  0  0
    1.5800   -1.5000    0.0000 C   0  0  0  0  0  0  0  0  0  0  0  0
    4.1789    1.5002    0.0000 Cl  0  0  0  0  0  0  0  0  0  0  0  0
   -0.8900    1.6900    0.0000 C   0  0  0  0  0  0  0  0  0  0  0  0
   -2.3500    1.3500    0.0000 N   0  0  0  0  0  0  0  0  0  0  0  0
   -3.0000    0.0000    0.0000 C   0  0  0  0  0  0  0  0  0  0  0  0
   -2.3500   -1.3500    0.0000 C   0  0  0  0  0  0  0  0  0  0  0  0
   -3.2879   -2.5207    0.0000 O   0  0  0  0  0  0  0  0  0  0  0  0
   -4.5000    0.0000    0.0000 O   0  0  0  0  0  0  0  0  0  0  0  0
   -0.5568    3.1525    0.0000 C   0  0  0  0  0  0  0  0  0  0  0  0
   -1.6577    4.1726    0.0000 C   0  0  0  0  0  0  0  0  0  0  0  0
   -1.3245    5.6351    0.0000 C   0  0  0  0  0  0  0  0  0  0  0  0
    0.1096    6.0776    0.0000 C   0  0  0  0  0  0  0  0  0  0  0  0
    1.2106    5.0575    0.0000 C   0  0  0  0  0  0  0  0  0  0  0  0
    0.8773    3.5950    0.0000 C   0  0  0  0  0  0  0  0  0  0  0  0
  1  2  1  0  0  0  0 
  2  3  1  0  0  0  0 
  3  4  2  0  0  0  0 
  4  5  1  0  0  0  0 
  5  6  2  0  0  0  0 
  6  7  1  0  0  0  0 
  7  8  2  0  0  0  0 
  3  8  1  0  0  0  0 
  6  9  1  0  0  0  0 
  4 10  1  0  0  0  0 
 10 11  2  0  0  0  0 
 11 12  1  0  0  0  0 
 12 13  1  0  0  0  0 
  2 13  1  0  0  0  0 
 13 14  2  0  0  0  0 
 12 15  1  0  0  0  0 
 10 16  1  0  0  0  0 
 16 17  2  0  0  0  0 
 17 18  1  0  0  0  0 
 18 19  2  0  0  0  0 
 19 20  1  0  0  0  0 
 20 21  2  0  0  0  0 
 16 21  1  0  0  0  0 
M  END
> <SMILES>
CN1C(=O)C(O)N=C(c2ccccc2)c2cc(Cl)ccc21

$$$$
Molecule 32_metabolite 1
  CDK     0516241031

 54 57  0  0  0  0  0  0  0  0999 V2000
   -0.1602   -3.0080    0.0000 C   0  0  0  0  0  0  0  0  0  0  0  0
   -1.2602   -4.0278    0.0000 H   0  0  0  0  0  0  0  0  0  0  0  0
    0.6531   -4.2683    0.0000 H   0  0  0  0  0  0  0  0  0  0  0  0
    1.2222   -2.4259    0.0000 H   0  0  0  0  0  0  0  0  0  0  0  0
   -0.4935   -1.5455    0.0000 N   0  0  0  0  0  0  0  0  0  0  0  0
    0.6765   -0.6055    0.0000 C   0  0  0  0  0  0  0  0  0  0  0  0
    0.6765    0.8945    0.0000 C   0  0  0  0  0  0  0  0  0  0  0  0
    1.9765    1.6445    0.0000 C   0  0  0  0  0  0  0  0  0  0  0  0
    1.9765    3.1445    0.0000 H   0  0  0  0  0  0  0  0  0  0  0  0
    3.2765    0.8945    0.0000 C   0  0  0  0  0  0  0  0  0  0  0  0
    3.2765   -0.6055    0.0000 C   0  0  0  0  0  0  0  0  0  0  0  0
    4.5755   -1.3557    0.0000 H   0  0  0  0  0  0  0  0  0  0  0  0
    1.9765   -1.3555    0.0000 C   0  0  0  0  0  0  0  0  0  0  0  0
    1.9765   -2.8555    0.0000 H   0  0  0  0  0  0  0  0  0  0  0  0
    4.5755    1.6447    0.0000 Cl  0  0  0  0  0  0  0  0  0  0  0  0
   -0.4935    1.8345    0.0000 C   0  0  0  0  0  0  0  0  0  0  0  0
   -1.9535    1.4945    0.0000 N   0  0  0  0  0  0  0  0  0  0  0  0
   -2.6035    0.1445    0.0000 C   0  0  0  0  0  0  0  0  0  0  0  0
   -3.7762    1.0797    0.0000 H   0  0  0  0  0  0  0  0  0  0  0  0
   -1.9535   -1.2055    0.0000 C   0  0  0  0  0  0  0  0  0  0  0  0
   -2.8913   -2.3761    0.0000 O   0  0  0  0  0  0  0  0  0  0  0  0
   -4.1515   -1.0899    0.0000 O   0  0  0  0  0  0  0  0  0  0  0  0
   -5.5478   -0.5419    0.0000 C   0  0  0  0  0  0  0  0  0  0  0  0
   -4.7686    0.7398    0.0000 H   0  0  0  0  0  0  0  0  0  0  0  0
   -5.8464   -2.0017    0.0000 C   0  0  0  0  0  0  0  0  0  0  0  0
   -5.6275   -3.4856    0.0000 H   0  0  0  0  0  0  0  0  0  0  0  0
   -7.2920   -2.4817    0.0000 C   0  0  0  0  0  0  0  0  0  0  0  0
   -8.4706   -3.4095    0.0000 H   0  0  0  0  0  0  0  0  0  0  0  0
   -8.4133   -1.4765    0.0000 C   0  0  0  0  0  0  0  0  0  0  0  0
   -9.8073   -0.9228    0.0000 H   0  0  0  0  0  0  0  0  0  0  0  0
   -8.1147   -0.0168    0.0000 C   0  0  0  0  0  0  0  0  0  0  0  0
   -8.3344    1.4670    0.0000 H   0  0  0  0  0  0  0  0  0  0  0  0
  -10.0939    0.0374    0.0000 C   0  0  0  0  0  0  0  0  0  0  0  0
  -10.8792   -1.2406    0.0000 O   0  0  0  0  0  0  0  0  0  0  0  0
  -10.8081    1.3565    0.0000 O   0  0  0  0  0  0  0  0  0  0  0  0
  -12.3075    1.3975    0.0000 H   0  0  0  0  0  0  0  0  0  0  0  0
   -6.6907    0.4574    0.0000 O   0  0  0  0  0  0  0  0  0  0  0  0
   -9.2030   -2.7518    0.0000 O   0  0  0  0  0  0  0  0  0  0  0  0
  -10.7023   -2.7055    0.0000 H   0  0  0  0  0  0  0  0  0  0  0  0
   -6.5811   -3.8025    0.0000 O   0  0  0  0  0  0  0  0  0  0  0  0
   -7.3696   -5.0786    0.0000 H   0  0  0  0  0  0  0  0  0  0  0  0
   -4.3470   -2.0431    0.0000 O   0  0  0  0  0  0  0  0  0  0  0  0
   -3.6332   -3.3624    0.0000 H   0  0  0  0  0  0  0  0  0  0  0  0
   -0.0536    3.7651    0.0000 C   0  0  0  0  0  0  0  0  0  0  0  0
   -1.1545    4.7851    0.0000 C   0  0  0  0  0  0  0  0  0  0  0  0
   -2.5876    4.3422    0.0000 H   0  0  0  0  0  0  0  0  0  0  0  0
   -0.8213    6.2476    0.0000 C   0  0  0  0  0  0  0  0  0  0  0  0
   -1.9211    7.2676    0.0000 H   0  0  0  0  0  0  0  0  0  0  0  0
    0.6128    6.6901    0.0000 C   0  0  0  0  0  0  0  0  0  0  0  0
    0.9460    8.1526    0.0000 H   0  0  0  0  0  0  0  0  0  0  0  0
    1.7137    5.6701    0.0000 C   0  0  0  0  0  0  0  0  0  0  0  0
    3.1468    6.1130    0.0000 H   0  0  0  0  0  0  0  0  0  0  0  0
    1.3805    4.2075    0.0000 C   0  0  0  0  0  0  0  0  0  0  0  0
    2.8323    2.8611    0.0000 H   0  0  0  0  0  0  0  0  0  0  0  0
  1  2  1  0  0  0  0 
  1  3  1  0  0  0  0 
  1  4  1  0  0  0  0 
  1  5  1  0  0  0  0 
  5  6  1  0  0  0  0 
  6  7  2  0  0  0  0 
  7  8  1  0  0  0  0 
  8  9  1  0  0  0  0 
  8 10  2  0  0  0  0 
 10 11  1  0  0  0  0 
 11 12  1  0  0  0  0 
 11 13  2  0  0  0  0 
  6 13  1  0  0  0  0 
 13 14  1  0  0  0  0 
 10 15  1  0  0  0  0 
  7 16  1  0  0  0  0 
 16 17  2  0  0  0  0 
 17 18  1  0  0  0  0 
 18 19  1  0  0  0  0 
 18 20  1  0  0  0  0 
  5 20  1  0  0  0  0 
 20 21  2  0  0  0  0 
 18 22  1  0  0  0  0 
 22 23  1  0  0  0  0 
 23 24  1  0  0  0  0 
 23 25  1  0  0  0  0 
 25 26  1  0  0  0  0 
 25 27  1  0  0  0  0 
 27 28  1  0  0  0  0 
 27 29  1  0  0  0  0 
 29 30  1  0  0  0  0 
 29 31  1  0  0  0  0 
 31 32  1  0  0  0  0 
 31 33  1  0  0  0  0 
 33 34  2  0  0  0  0 
 33 35  1  0  0  0  0 
 35 36  1  0  0  0  0 
 31 37  1  0  0  0  0 
 23 37  1  0  0  0  0 
 29 38  1  0  0  0  0 
 38 39  1  0  0  0  0 
 27 40  1  0  0  0  0 
 40 41  1  0  0  0  0 
 25 42  1  0  0  0  0 
 42 43  1  0  0  0  0 
 16 44  1  0  0  0  0 
 44 45  2  0  0  0  0 
 45 46  1  0  0  0  0 
 45 47  1  0  0  0  0 
 47 48  1  0  0  0  0 
 47 49  2  0  0  0  0 
 49 50  1  0  0  0  0 
 49 51  1  0  0  0  0 
 51 52  1  0  0  0  0 
 51 53  2  0  0  0  0 
 44 53  1  0  0  0  0 
 53 54  1  0  0  0  0 
M  END
> <Rank>
1

> <Priority_score>
0.92

> <Reaction_type>
O-glucuronidation_(aliphatic_hydroxyl)

> <Parent_ID>
32

> <Parent_InChI>
InChI=1S/C16H13ClN2O2/c1-19-13-8-7-11(17)9-12(13)14(18-15(20)16(19)21)10-5-3-2-4-6-10/h2-9,15,20H,1H3

> <Parent_SMILES>
CN1C(=O)C(O)N=C(c2ccccc2)c2cc(Cl)ccc21

$$$$
Molecule 32_metabolite 2
  CDK     0516241031

 38 40  0  0  0  0  0  0  0  0999 V2000
   -0.2538   -1.3538    0.0000 C   0  0  0  0  0  0  0  0  0  0  0  0
   -0.3664    0.1420    0.0000 H   0  0  0  0  0  0  0  0  0  0  0  0
    1.1997   -0.9832    0.0000 H   0  0  0  0  0  0  0  0  0  0  0  0
    0.3636   -2.7208    0.0000 H   0  0  0  0  0  0  0  0  0  0  0  0
   -1.4928   -2.1992    0.0000 N   0  0  0  0  0  0  0  0  0  0  0  0
   -1.2746   -3.6841    0.0000 C   0  0  0  0  0  0  0  0  0  0  0  0
   -2.2949   -4.7836    0.0000 C   0  0  0  0  0  0  0  0  0  0  0  0
   -1.8522   -6.2176    0.0000 C   0  0  0  0  0  0  0  0  0  0  0  0
   -2.8725   -7.3171    0.0000 H   0  0  0  0  0  0  0  0  0  0  0  0
   -0.3891   -6.5521    0.0000 C   0  0  0  0  0  0  0  0  0  0  0  0
    0.6312   -5.4526    0.0000 C   0  0  0  0  0  0  0  0  0  0  0  0
    2.0937   -5.7862    0.0000 H   0  0  0  0  0  0  0  0  0  0  0  0
    0.1885   -4.0186    0.0000 C   0  0  0  0  0  0  0  0  0  0  0  0
    1.2088   -2.9190    0.0000 H   0  0  0  0  0  0  0  0  0  0  0  0
    0.0528   -7.9856    0.0000 Cl  0  0  0  0  0  0  0  0  0  0  0  0
   -3.7919   -4.6768    0.0000 C   0  0  0  0  0  0  0  0  0  0  0  0
   -4.6309   -3.4344    0.0000 N   0  0  0  0  0  0  0  0  0  0  0  0
   -4.1891   -2.0027    0.0000 C   0  0  0  0  0  0  0  0  0  0  0  0
   -5.6849   -1.8905    0.0000 H   0  0  0  0  0  0  0  0  0  0  0  0
   -2.7943   -1.4553    0.0000 C   0  0  0  0  0  0  0  0  0  0  0  0
   -2.6855    0.0407    0.0000 O   0  0  0  0  0  0  0  0  0  0  0  0
   -4.4126   -0.5195    0.0000 O   0  0  0  0  0  0  0  0  0  0  0  0
   -5.8089    0.0286    0.0000 S   0  0  0  0  0  0  0  0  0  0  0  0
   -5.0267    1.3085    0.0000 O   0  0  0  0  0  0  0  0  0  0  0  0
   -6.9335    1.0211    0.0000 O   0  0  0  0  0  0  0  0  0  0  0  0
   -6.9817   -0.9066    0.0000 O   0  0  0  0  0  0  0  0  0  0  0  0
   -8.3780   -0.3586    0.0000 H   0  0  0  0  0  0  0  0  0  0  0  0
   -4.7827   -6.3911    0.0000 C   0  0  0  0  0  0  0  0  0  0  0  0
   -6.2835   -6.3899    0.0000 C   0  0  0  0  0  0  0  0  0  0  0  0
   -7.0328   -5.0904    0.0000 H   0  0  0  0  0  0  0  0  0  0  0  0
   -7.0341   -7.6886    0.0000 C   0  0  0  0  0  0  0  0  0  0  0  0
   -8.5341   -7.6882    0.0000 H   0  0  0  0  0  0  0  0  0  0  0  0
   -6.2838   -8.9885    0.0000 C   0  0  0  0  0  0  0  0  0  0  0  0
   -7.0344  -10.2872    0.0000 H   0  0  0  0  0  0  0  0  0  0  0  0
   -4.7830   -8.9896    0.0000 C   0  0  0  0  0  0  0  0  0  0  0  0
   -4.0338  -10.2891    0.0000 H   0  0  0  0  0  0  0  0  0  0  0  0
   -4.0324   -7.6909    0.0000 C   0  0  0  0  0  0  0  0  0  0  0  0
   -2.0524   -7.6915    0.0000 H   0  0  0  0  0  0  0  0  0  0  0  0
  1  2  1  0  0  0  0 
  1  3  1  0  0  0  0 
  1  4  1  0  0  0  0 
  1  5  1  0  0  0  0 
  5  6  1  0  0  0  0 
  6  7  2  0  0  0  0 
  7  8  1  0  0  0  0 
  8  9  1  0  0  0  0 
  8 10  2  0  0  0  0 
 10 11  1  0  0  0  0 
 11 12  1  0  0  0  0 
 11 13  2  0  0  0  0 
  6 13  1  0  0  0  0 
 13 14  1  0  0  0  0 
 10 15  1  0  0  0  0 
  7 16  1  0  0  0  0 
 16 17  2  0  0  0  0 
 17 18  1  0  0  0  0 
 18 19  1  0  0  0  0 
 18 20  1  0  0  0  0 
  5 20  1  0  0  0  0 
 20 21  2  0  0  0  0 
 18 22  1  0  0  0  0 
 22 23  1  0  0  0  0 
 23 24  2  0  0  0  0 
 23 25  2  0  0  0  0 
 23 26  1  0  0  0  0 
 26 27  1  0  0  0  0 
 16 28  1  0  0  0  0 
 28 29  2  0  0  0  0 
 29 30  1  0  0  0  0 
 29 31  1  0  0  0  0 
 31 32  1  0  0  0  0 
 31 33  2  0  0  0  0 
 33 34  1  0  0  0  0 
 33 35  1  0  0  0  0 
 35 36  1  0  0  0  0 
 35 37  2  0  0  0  0 
 28 37  1  0  0  0  0 
 37 38  1  0  0  0  0 
M  END
> <Rank>
2

> <Priority_score>
0.72

> <Reaction_type>
sulfation_(aliphatic_hydroxyl)

> <Parent_ID>
32

> <Parent_InChI>
InChI=1S/C16H13ClN2O2/c1-19-13-8-7-11(17)9-12(13)14(18-15(20)16(19)21)10-5-3-2-4-6-10/h2-9,15,20H,1H3

> <Parent_SMILES>
CN1C(=O)C(O)N=C(c2ccccc2)c2cc(Cl)ccc21

$$$$
Molecule 32_metabolite 3
  CDK     0516241031

 35 37  0  0  0  0  0  0  0  0999 V2000
   -2.0017   -3.1819    0.0000 C   0  0  0  0  0  0  0  0  0  0  0  0
   -3.4977   -3.2914    0.0000 H   0  0  0  0  0  0  0  0  0  0  0  0
   -2.1536   -4.6742    0.0000 H   0  0  0  0  0  0  0  0  0  0  0  0
   -0.5585   -3.5907    0.0000 H   0  0  0  0  0  0  0  0  0  0  0  0
   -1.1396   -1.3995    0.0000 N   0  0  0  0  0  0  0  0  0  0  0  0
    0.0304   -0.4595    0.0000 C   0  0  0  0  0  0  0  0  0  0  0  0
    0.0304    1.0405    0.0000 C   0  0  0  0  0  0  0  0  0  0  0  0
    1.3304    1.7905    0.0000 C   0  0  0  0  0  0  0  0  0  0  0  0
    1.3304    3.2905    0.0000 H   0  0  0  0  0  0  0  0  0  0  0  0
    2.6304    1.0405    0.0000 C   0  0  0  0  0  0  0  0  0  0  0  0
    2.6304   -0.4595    0.0000 C   0  0  0  0  0  0  0  0  0  0  0  0
    3.9294   -1.2097    0.0000 H   0  0  0  0  0  0  0  0  0  0  0  0
    1.3304   -1.2095    0.0000 C   0  0  0  0  0  0  0  0  0  0  0  0
    1.3304   -2.7095    0.0000 H   0  0  0  0  0  0  0  0  0  0  0  0
    3.9294    1.7907    0.0000 Cl  0  0  0  0  0  0  0  0  0  0  0  0
   -1.1396    1.9805    0.0000 C   0  0  0  0  0  0  0  0  0  0  0  0
   -2.5996    1.6405    0.0000 N   0  0  0  0  0  0  0  0  0  0  0  0
   -3.2496    0.2905    0.0000 C   0  0  0  0  0  0  0  0  0  0  0  0
   -4.4223    1.2257    0.0000 H   0  0  0  0  0  0  0  0  0  0  0  0
   -2.5996   -1.0595    0.0000 C   0  0  0  0  0  0  0  0  0  0  0  0
   -3.5374   -2.2302    0.0000 O   0  0  0  0  0  0  0  0  0  0  0  0
   -4.4223   -0.6447    0.0000 O   0  0  0  0  0  0  0  0  0  0  0  0
   -5.8186   -0.0967    0.0000 H   0  0  0  0  0  0  0  0  0  0  0  0
   -0.6997    3.9110    0.0000 C   0  0  0  0  0  0  0  0  0  0  0  0
   -1.8006    4.9311    0.0000 C   0  0  0  0  0  0  0  0  0  0  0  0
   -3.2337    4.4882    0.0000 H   0  0  0  0  0  0  0  0  0  0  0  0
   -1.4674    6.3936    0.0000 C   0  0  0  0  0  0  0  0  0  0  0  0
   -2.5672    7.4136    0.0000 H   0  0  0  0  0  0  0  0  0  0  0  0
   -0.0333    6.8361    0.0000 C   0  0  0  0  0  0  0  0  0  0  0  0
    0.2999    8.2986    0.0000 H   0  0  0  0  0  0  0  0  0  0  0  0
    1.0676    5.8160    0.0000 C   0  0  0  0  0  0  0  0  0  0  0  0
    2.5007    6.2589    0.0000 H   0  0  0  0  0  0  0  0  0  0  0  0
    0.7344    4.3535    0.0000 C   0  0  0  0  0  0  0  0  0  0  0  0
    2.1862    3.0071    0.0000 H   0  0  0  0  0  0  0  0  0  0  0  0
    0.0341   -2.3336    0.0000 O   0  0  0  0  0  0  0  0  0  0  0  0
  1  2  1  0  0  0  0 
  1  3  1  0  0  0  0 
  1  4  1  0  0  0  0 
  1  5  1  0  0  0  0 
  5  6  1  0  0  0  0 
  6  7  2  0  0  0  0 
  7  8  1  0  0  0  0 
  8  9  1  0  0  0  0 
  8 10  2  0  0  0  0 
 10 11  1  0  0  0  0 
 11 12  1  0  0  0  0 
 11 13  2  0  0  0  0 
  6 13  1  0  0  0  0 
 13 14  1  0  0  0  0 
 10 15  1  0  0  0  0 
  7 16  1  0  0  0  0 
 16 17  2  0  0  0  0 
 17 18  1  0  0  0  0 
 18 19  1  0  0  0  0 
 18 20  1  0  0  0  0 
  5 20  1  0  0  0  0 
 20 21  2  0  0  0  0 
 18 22  1  0  0  0  0 
 22 23  1  0  0  0  0 
 16 24  1  0  0  0  0 
 24 25  2  0  0  0  0 
 25 26  1  0  0  0  0 
 25 27  1  0  0  0  0 
 27 28  1  0  0  0  0 
 27 29  2  0  0  0  0 
 29 30  1  0  0  0  0 
 29 31  1  0  0  0  0 
 31 32  1  0  0  0  0 
 31 33  2  0  0  0  0 
 24 33  1  0  0  0  0 
 33 34  1  0  0  0  0 
  5 35  1  0  0  0  0 
M  CHG  1   5   1
M  CHG  1  35  -1
M  END
> <Rank>
3

> <Priority_score>
0.548

> <Reaction_type>
N-oxidation

> <Parent_ID>
32

> <Parent_InChI>
InChI=1S/C16H13ClN2O2/c1-19-13-8-7-11(17)9-12(13)14(18-15(20)16(19)21)10-5-3-2-4-6-10/h2-9,15,20H,1H3

> <Parent_SMILES>
CN1C(=O)C(O)N=C(c2ccccc2)c2cc(Cl)ccc21

$$$$
Molecule 32_metabolite 4
  CDK     0516241031

 31 33  0  0  0  0  0  0  0  0999 V2000
   -0.2423    6.4040    0.0000 C   0  0  0  0  0  0  0  0  0  0  0  0
    0.0909    7.8665    0.0000 H   0  0  0  0  0  0  0  0  0  0  0  0
   -1.6764    5.9615    0.0000 C   0  0  0  0  0  0  0  0  0  0  0  0
   -2.7762    6.9815    0.0000 H   0  0  0  0  0  0  0  0  0  0  0  0
   -2.0096    4.4990    0.0000 C   0  0  0  0  0  0  0  0  0  0  0  0
   -3.4428    4.0561    0.0000 H   0  0  0  0  0  0  0  0  0  0  0  0
   -0.9087    3.4789    0.0000 C   0  0  0  0  0  0  0  0  0  0  0  0
    0.5254    3.9214    0.0000 C   0  0  0  0  0  0  0  0  0  0  0  0
    1.9771    2.5750    0.0000 H   0  0  0  0  0  0  0  0  0  0  0  0
    0.8586    5.3839    0.0000 C   0  0  0  0  0  0  0  0  0  0  0  0
    2.2917    5.8268    0.0000 H   0  0  0  0  0  0  0  0  0  0  0  0
   -1.3486    1.5484    0.0000 C   0  0  0  0  0  0  0  0  0  0  0  0
   -2.8086    1.2084    0.0000 N   0  0  0  0  0  0  0  0  0  0  0  0
   -3.4586   -0.1416    0.0000 C   0  0  0  0  0  0  0  0  0  0  0  0
   -4.6313    0.7936    0.0000 H   0  0  0  0  0  0  0  0  0  0  0  0
   -2.8086   -1.4916    0.0000 C   0  0  0  0  0  0  0  0  0  0  0  0
   -3.7464   -2.6623    0.0000 O   0  0  0  0  0  0  0  0  0  0  0  0
   -1.3486   -1.8316    0.0000 N   0  0  0  0  0  0  0  0  0  0  0  0
   -1.0154   -3.2941    0.0000 H   0  0  0  0  0  0  0  0  0  0  0  0
   -0.1786   -0.8916    0.0000 C   0  0  0  0  0  0  0  0  0  0  0  0
   -0.1786    0.6084    0.0000 C   0  0  0  0  0  0  0  0  0  0  0  0
    1.1214    1.3584    0.0000 C   0  0  0  0  0  0  0  0  0  0  0  0
    1.1214    2.8584    0.0000 H   0  0  0  0  0  0  0  0  0  0  0  0
    2.4214    0.6084    0.0000 C   0  0  0  0  0  0  0  0  0  0  0  0
    2.4214   -0.8916    0.0000 C   0  0  0  0  0  0  0  0  0  0  0  0
    3.7204   -1.6418    0.0000 H   0  0  0  0  0  0  0  0  0  0  0  0
    1.1214   -1.6416    0.0000 C   0  0  0  0  0  0  0  0  0  0  0  0
    1.1214   -3.1416    0.0000 H   0  0  0  0  0  0  0  0  0  0  0  0
    3.7204    1.3586    0.0000 Cl  0  0  0  0  0  0  0  0  0  0  0  0
   -4.6313   -1.0768    0.0000 O   0  0  0  0  0  0  0  0  0  0  0  0
   -6.0276   -0.5288    0.0000 H   0  0  0  0  0  0  0  0  0  0  0  0
  1  2  1  0  0  0  0 
  1  3  2  0  0  0  0 
  3  4  1  0  0  0  0 
  3  5  1  0  0  0  0 
  5  6  1  0  0  0  0 
  5  7  2  0  0  0  0 
  7  8  1  0  0  0  0 
  8  9  1  0  0  0  0 
  8 10  2  0  0  0  0 
  1 10  1  0  0  0  0 
 10 11  1  0  0  0  0 
  7 12  1  0  0  0  0 
 12 13  2  0  0  0  0 
 13 14  1  0  0  0  0 
 14 15  1  0  0  0  0 
 14 16  1  0  0  0  0 
 16 17  2  0  0  0  0 
 16 18  1  0  0  0  0 
 18 19  1  0  0  0  0 
 18 20  1  0  0  0  0 
 20 21  2  0  0  0  0 
 12 21  1  0  0  0  0 
 21 22  1  0  0  0  0 
 22 23  1  0  0  0  0 
 22 24  2  0  0  0  0 
 24 25  1  0  0  0  0 
 25 26  1  0  0  0  0 
 25 27  2  0  0  0  0 
 20 27  1  0  0  0  0 
 27 28  1  0  0  0  0 
 24 29  1  0  0  0  0 
 14 30  1  0  0  0  0 
 30 31  1  0  0  0  0 
M  END
> <Rank>
3

> <Priority_score>
0.548

> <Reaction_type>
N-demethylation_(R-N(CR)CH3)

> <Parent_ID>
32

> <Parent_InChI>
InChI=1S/C16H13ClN2O2/c1-19-13-8-7-11(17)9-12(13)14(18-15(20)16(19)21)10-5-3-2-4-6-10/h2-9,15,20H,1H3

> <Parent_SMILES>
CN1C(=O)C(O)N=C(c2ccccc2)c2cc(Cl)ccc21

$$$$
Molecule 32_metabolite 5
  CDK     0516241031

 35 37  0  0  0  0  0  0  0  0999 V2000
   -0.2423    6.4040    0.0000 C   0  0  0  0  0  0  0  0  0  0  0  0
    0.0909    7.8665    0.0000 H   0  0  0  0  0  0  0  0  0  0  0  0
   -1.6764    5.9615    0.0000 C   0  0  0  0  0  0  0  0  0  0  0  0
   -2.7762    6.9815    0.0000 H   0  0  0  0  0  0  0  0  0  0  0  0
   -2.0096    4.4990    0.0000 C   0  0  0  0  0  0  0  0  0  0  0  0
   -3.4428    4.0561    0.0000 H   0  0  0  0  0  0  0  0  0  0  0  0
   -0.9087    3.4789    0.0000 C   0  0  0  0  0  0  0  0  0  0  0  0
    0.5254    3.9214    0.0000 C   0  0  0  0  0  0  0  0  0  0  0  0
    1.9771    2.5750    0.0000 H   0  0  0  0  0  0  0  0  0  0  0  0
    0.8586    5.3839    0.0000 C   0  0  0  0  0  0  0  0  0  0  0  0
    2.2917    5.8268    0.0000 H   0  0  0  0  0  0  0  0  0  0  0  0
   -1.3486    1.5484    0.0000 C   0  0  0  0  0  0  0  0  0  0  0  0
   -2.8086    1.2084    0.0000 N   0  0  0  0  0  0  0  0  0  0  0  0
   -3.4586   -0.1416    0.0000 C   0  0  0  0  0  0  0  0  0  0  0  0
   -4.6313    0.7936    0.0000 H   0  0  0  0  0  0  0  0  0  0  0  0
   -2.8086   -1.4916    0.0000 C   0  0  0  0  0  0  0  0  0  0  0  0
   -3.7464   -2.6623    0.0000 O   0  0  0  0  0  0  0  0  0  0  0  0
   -1.3486   -1.8316    0.0000 N   0  0  0  0  0  0  0  0  0  0  0  0
   -1.0154   -3.2941    0.0000 C   0  0  0  0  0  0  0  0  0  0  0  0
   -0.2020   -4.5545    0.0000 H   0  0  0  0  0  0  0  0  0  0  0  0
    0.3671   -2.7120    0.0000 H   0  0  0  0  0  0  0  0  0  0  0  0
   -2.1153   -4.3140    0.0000 O   0  0  0  0  0  0  0  0  0  0  0  0
   -1.7821   -5.7765    0.0000 H   0  0  0  0  0  0  0  0  0  0  0  0
   -0.1786   -0.8916    0.0000 C   0  0  0  0  0  0  0  0  0  0  0  0
   -0.1786    0.6084    0.0000 C   0  0  0  0  0  0  0  0  0  0  0  0
    1.1214    1.3584    0.0000 C   0  0  0  0  0  0  0  0  0  0  0  0
    1.1214    2.8584    0.0000 H   0  0  0  0  0  0  0  0  0  0  0  0
    2.4214    0.6084    0.0000 C   0  0  0  0  0  0  0  0  0  0  0  0
    2.4214   -0.8916    0.0000 C   0  0  0  0  0  0  0  0  0  0  0  0
    3.7204   -1.6418    0.0000 H   0  0  0  0  0  0  0  0  0  0  0  0
    1.1214   -1.6416    0.0000 C   0  0  0  0  0  0  0  0  0  0  0  0
    1.1214   -3.1416    0.0000 H   0  0  0  0  0  0  0  0  0  0  0  0
    3.7204    1.3586    0.0000 Cl  0  0  0  0  0  0  0  0  0  0  0  0
   -4.6313   -1.0768    0.0000 O   0  0  0  0  0  0  0  0  0  0  0  0
   -6.0276   -0.5288    0.0000 H   0  0  0  0  0  0  0  0  0  0  0  0
  1  2  1  0  0  0  0 
  1  3  2  0  0  0  0 
  3  4  1  0  0  0  0 
  3  5  1  0  0  0  0 
  5  6  1  0  0  0  0 
  5  7  2  0  0  0  0 
  7  8  1  0  0  0  0 
  8  9  1  0  0  0  0 
  8 10  2  0  0  0  0 
  1 10  1  0  0  0  0 
 10 11  1  0  0  0  0 
  7 12  1  0  0  0  0 
 12 13  2  0  0  0  0 
 13 14  1  0  0  0  0 
 14 15  1  0  0  0  0 
 14 16  1  0  0  0  0 
 16 17  2  0  0  0  0 
 16 18  1  0  0  0  0 
 18 19  1  0  0  0  0 
 19 20  1  0  0  0  0 
 19 21  1  0  0  0  0 
 19 22  1  0  0  0  0 
 22 23  1  0  0  0  0 
 18 24  1  0  0  0  0 
 24 25  2  0  0  0  0 
 12 25  1  0  0  0  0 
 25 26  1  0  0  0  0 
 26 27  1  0  0  0  0 
 26 28  2  0  0  0  0 
 28 29  1  0  0  0  0 
 29 30  1  0  0  0  0 
 29 31  2  0  0  0  0 
 24 31  1  0  0  0  0 
 31 32  1  0  0  0  0 
 28 33  1  0  0  0  0 
 14 34  1  0  0  0  0 
 34 35  1  0  0  0  0 
M  END
> <Rank>
3

> <Priority_score>
0.548

> <Reaction_type>
aliphatic hydroxylation

> <Parent_ID>
32

> <Parent_InChI>
InChI=1S/C16H13ClN2O2/c1-19-13-8-7-11(17)9-12(13)14(18-15(20)16(19)21)10-5-3-2-4-6-10/h2-9,15,20H,1H3

> <Parent_SMILES>
CN1C(=O)C(O)N=C(c2ccccc2)c2cc(Cl)ccc21

$$$$
Molecule 32_metabolite 6
  CDK     0516241031

 37 38  0  0  0  0  0  0  0  0999 V2000
   -3.8968   -6.0908    0.0000 C   0  0  0  0  0  0  0  0  0  0  0  0
   -2.5979   -6.8410    0.0000 H   0  0  0  0  0  0  0  0  0  0  0  0
   -4.4100   -7.5002    0.0000 H   0  0  0  0  0  0  0  0  0  0  0  0
   -5.3740   -5.8300    0.0000 H   0  0  0  0  0  0  0  0  0  0  0  0
   -3.8965   -4.5908    0.0000 N   0  0  0  0  0  0  0  0  0  0  0  0
   -2.5974   -3.8410    0.0000 H   0  0  0  0  0  0  0  0  0  0  0  0
   -5.1955   -3.8405    0.0000 C   0  0  0  0  0  0  0  0  0  0  0  0
   -6.4955   -4.5905    0.0000 C   0  0  0  0  0  0  0  0  0  0  0  0
   -6.4955   -6.0905    0.0000 H   0  0  0  0  0  0  0  0  0  0  0  0
   -7.7955   -3.8405    0.0000 C   0  0  0  0  0  0  0  0  0  0  0  0
   -9.0944   -4.5908    0.0000 H   0  0  0  0  0  0  0  0  0  0  0  0
   -7.7955   -2.3405    0.0000 C   0  0  0  0  0  0  0  0  0  0  0  0
   -6.4955   -1.5905    0.0000 C   0  0  0  0  0  0  0  0  0  0  0  0
   -6.4955   -0.0905    0.0000 H   0  0  0  0  0  0  0  0  0  0  0  0
   -5.1955   -2.3405    0.0000 C   0  0  0  0  0  0  0  0  0  0  0  0
   -3.8965   -1.5903    0.0000 C   0  0  0  0  0  0  0  0  0  0  0  0
   -2.5974   -2.3401    0.0000 N   0  0  0  0  0  0  0  0  0  0  0  0
   -1.2985   -1.5899    0.0000 C   0  0  0  0  0  0  0  0  0  0  0  0
   -2.2628   -0.4410    0.0000 H   0  0  0  0  0  0  0  0  0  0  0  0
    0.0007   -2.3397    0.0000 C   0  0  0  0  0  0  0  0  0  0  0  0
    0.0009   -3.8397    0.0000 O   0  0  0  0  0  0  0  0  0  0  0  0
    1.2996   -1.5895    0.0000 O   0  0  0  0  0  0  0  0  0  0  0  0
    2.5988   -2.3393    0.0000 H   0  0  0  0  0  0  0  0  0  0  0  0
   -0.3345   -0.4407    0.0000 O   0  0  0  0  0  0  0  0  0  0  0  0
    1.1428   -0.7009    0.0000 H   0  0  0  0  0  0  0  0  0  0  0  0
   -3.8969    0.8697    0.0000 C   0  0  0  0  0  0  0  0  0  0  0  0
   -2.5971    1.6199    0.0000 C   0  0  0  0  0  0  0  0  0  0  0  0
   -1.2980    0.8699    0.0000 H   0  0  0  0  0  0  0  0  0  0  0  0
   -2.5973    3.1199    0.0000 C   0  0  0  0  0  0  0  0  0  0  0  0
   -1.2985    3.8703    0.0000 H   0  0  0  0  0  0  0  0  0  0  0  0
   -3.8974    3.8697    0.0000 C   0  0  0  0  0  0  0  0  0  0  0  0
   -3.8977    5.3697    0.0000 H   0  0  0  0  0  0  0  0  0  0  0  0
   -5.1973    3.1195    0.0000 C   0  0  0  0  0  0  0  0  0  0  0  0
   -6.4963    3.8695    0.0000 H   0  0  0  0  0  0  0  0  0  0  0  0
   -5.1971    1.6195    0.0000 C   0  0  0  0  0  0  0  0  0  0  0  0
   -6.6064    1.1060    0.0000 H   0  0  0  0  0  0  0  0  0  0  0  0
   -9.0944   -1.5903    0.0000 Cl  0  0  0  0  0  0  0  0  0  0  0  0
  1  2  1  0  0  0  0 
  1  3  1  0  0  0  0 
  1  4  1  0  0  0  0 
  1  5  1  0  0  0  0 
  5  6  1  0  0  0  0 
  5  7  1  0  0  0  0 
  7  8  2  0  0  0  0 
  8  9  1  0  0  0  0 
  8 10  1  0  0  0  0 
 10 11  1  0  0  0  0 
 10 12  2  0  0  0  0 
 12 13  1  0  0  0  0 
 13 14  1  0  0  0  0 
 13 15  2  0  0  0  0 
  7 15  1  0  0  0  0 
 15 16  1  4  0  0  0 
 16 17  2  0  0  0  0 
 17 18  1  0  0  0  0 
 18 19  1  0  0  0  0 
 18 20  1  0  0  0  0 
 20 21  2  0  0  0  0 
 20 22  1  0  0  0  0 
 22 23  1  0  0  0  0 
 18 24  1  0  0  0  0 
 24 25  1  0  0  0  0 
 16 26  1  0  0  0  0 
 26 27  2  0  0  0  0 
 27 28  1  0  0  0  0 
 27 29  1  0  0  0  0 
 29 30  1  0  0  0  0 
 29 31  2  0  0  0  0 
 31 32  1  0  0  0  0 
 31 33  1  0  0  0  0 
 33 34  1  0  0  0  0 
 33 35  2  0  0  0  0 
 26 35  1  0  0  0  0 
 35 36  1  0  0  0  0 
 12 37  1  0  0  0  0 
M  END
> <Rank>
3

> <Priority_score>
0.548

> <Reaction_type>
hydrolysis_(tertiary_amide)

> <Parent_ID>
32

> <Parent_InChI>
InChI=1S/C16H13ClN2O2/c1-19-13-8-7-11(17)9-12(13)14(18-15(20)16(19)21)10-5-3-2-4-6-10/h2-9,15,20H,1H3

> <Parent_SMILES>
CN1C(=O)C(O)N=C(c2ccccc2)c2cc(Cl)ccc21

$$$$
Molecule 32_metabolite 7
  CDK     0516241031

 32 34  0  0  0  0  0  0  0  0999 V2000
   -1.0154   -3.2941    0.0000 C   0  0  0  0  0  0  0  0  0  0  0  0
   -2.1153   -4.3140    0.0000 H   0  0  0  0  0  0  0  0  0  0  0  0
   -0.2020   -4.5545    0.0000 H   0  0  0  0  0  0  0  0  0  0  0  0
    0.3671   -2.7120    0.0000 H   0  0  0  0  0  0  0  0  0  0  0  0
   -1.3486   -1.8316    0.0000 N   0  0  0  0  0  0  0  0  0  0  0  0
   -0.1786   -0.8916    0.0000 C   0  0  0  0  0  0  0  0  0  0  0  0
   -0.1786    0.6084    0.0000 C   0  0  0  0  0  0  0  0  0  0  0  0
    1.1214    1.3584    0.0000 C   0  0  0  0  0  0  0  0  0  0  0  0
    1.1214    2.8584    0.0000 H   0  0  0  0  0  0  0  0  0  0  0  0
    2.4214    0.6084    0.0000 C   0  0  0  0  0  0  0  0  0  0  0  0
    2.4214   -0.8916    0.0000 C   0  0  0  0  0  0  0  0  0  0  0  0
    3.7204   -1.6418    0.0000 H   0  0  0  0  0  0  0  0  0  0  0  0
    1.1214   -1.6416    0.0000 C   0  0  0  0  0  0  0  0  0  0  0  0
    1.1214   -3.1416    0.0000 H   0  0  0  0  0  0  0  0  0  0  0  0
    3.7204    1.3586    0.0000 Cl  0  0  0  0  0  0  0  0  0  0  0  0
   -1.3486    1.5484    0.0000 C   0  0  0  0  0  0  0  0  0  0  0  0
   -2.8086    1.2084    0.0000 N   0  0  0  0  0  0  0  0  0  0  0  0
   -3.4586   -0.1416    0.0000 C   0  0  0  0  0  0  0  0  0  0  0  0
   -4.9586   -0.1416    0.0000 O   0  0  0  0  0  0  0  0  0  0  0  0
   -2.8086   -1.4916    0.0000 C   0  0  0  0  0  0  0  0  0  0  0  0
   -3.7464   -2.6623    0.0000 O   0  0  0  0  0  0  0  0  0  0  0  0
   -0.9087    3.4789    0.0000 C   0  0  0  0  0  0  0  0  0  0  0  0
   -2.0096    4.4990    0.0000 C   0  0  0  0  0  0  0  0  0  0  0  0
   -3.4428    4.0561    0.0000 H   0  0  0  0  0  0  0  0  0  0  0  0
   -1.6764    5.9615    0.0000 C   0  0  0  0  0  0  0  0  0  0  0  0
   -2.7762    6.9815    0.0000 H   0  0  0  0  0  0  0  0  0  0  0  0
   -0.2423    6.4040    0.0000 C   0  0  0  0  0  0  0  0  0  0  0  0
    0.0909    7.8665    0.0000 H   0  0  0  0  0  0  0  0  0  0  0  0
    0.8586    5.3839    0.0000 C   0  0  0  0  0  0  0  0  0  0  0  0
    2.2917    5.8268    0.0000 H   0  0  0  0  0  0  0  0  0  0  0  0
    0.5254    3.9214    0.0000 C   0  0  0  0  0  0  0  0  0  0  0  0
    1.9771    2.5750    0.0000 H   0  0  0  0  0  0  0  0  0  0  0  0
  1  2  1  0  0  0  0 
  1  3  1  0  0  0  0 
  1  4  1  0  0  0  0 
  1  5  1  0  0  0  0 
  5  6  1  0  0  0  0 
  6  7  2  0  0  0  0 
  7  8  1  0  0  0  0 
  8  9  1  0  0  0  0 
  8 10  2  0  0  0  0 
 10 11  1  0  0  0  0 
 11 12  1  0  0  0  0 
 11 13  2  0  0  0  0 
  6 13  1  0  0  0  0 
 13 14  1  0  0  0  0 
 10 15  1  0  0  0  0 
  7 16  1  0  0  0  0 
 16 17  2  0  0  0  0 
 17 18  1  0  0  0  0 
 18 19  2  0  0  0  0 
 18 20  1  0  0  0  0 
  5 20  1  0  0  0  0 
 20 21  2  0  0  0  0 
 16 22  1  0  0  0  0 
 22 23  2  0  0  0  0 
 23 24  1  0  0  0  0 
 23 25  1  0  0  0  0 
 25 26  1  0  0  0  0 
 25 27  2  0  0  0  0 
 27 28  1  0  0  0  0 
 27 29  1  0  0  0  0 
 29 30  1  0  0  0  0 
 29 31  2  0  0  0  0 
 22 31  1  0  0  0  0 
 31 32  1  0  0  0  0 
M  END
> <Rank>
7

> <Priority_score>
0.34

> <Reaction_type>
alcohol oxidation

> <Parent_ID>
32

> <Parent_InChI>
InChI=1S/C16H13ClN2O2/c1-19-13-8-7-11(17)9-12(13)14(18-15(20)16(19)21)10-5-3-2-4-6-10/h2-9,15,20H,1H3

> <Parent_SMILES>
CN1C(=O)C(O)N=C(c2ccccc2)c2cc(Cl)ccc21

$$$$
Molecule 32_metabolite 8
  CDK     0516241031

 35 37  0  0  0  0  0  0  0  0999 V2000
   -1.0154   -3.2941    0.0000 C   0  0  0  0  0  0  0  0  0  0  0  0
   -2.1153   -4.3140    0.0000 H   0  0  0  0  0  0  0  0  0  0  0  0
   -0.2020   -4.5545    0.0000 H   0  0  0  0  0  0  0  0  0  0  0  0
    0.3671   -2.7120    0.0000 H   0  0  0  0  0  0  0  0  0  0  0  0
   -1.3486   -1.8316    0.0000 N   0  0  0  0  0  0  0  0  0  0  0  0
   -0.1786   -0.8916    0.0000 C   0  0  0  0  0  0  0  0  0  0  0  0
   -0.1786    0.6084    0.0000 C   0  0  0  0  0  0  0  0  0  0  0  0
    1.1214    1.3584    0.0000 C   0  0  0  0  0  0  0  0  0  0  0  0
    1.1214    2.8584    0.0000 H   0  0  0  0  0  0  0  0  0  0  0  0
    2.4214    0.6084    0.0000 C   0  0  0  0  0  0  0  0  0  0  0  0
    2.4214   -0.8916    0.0000 C   0  0  0  0  0  0  0  0  0  0  0  0
    3.7204   -1.6418    0.0000 H   0  0  0  0  0  0  0  0  0  0  0  0
    1.1214   -1.6416    0.0000 C   0  0  0  0  0  0  0  0  0  0  0  0
    1.1214   -3.1416    0.0000 H   0  0  0  0  0  0  0  0  0  0  0  0
    3.7204    1.3586    0.0000 Cl  0  0  0  0  0  0  0  0  0  0  0  0
   -1.3486    1.5484    0.0000 C   0  0  0  0  0  0  0  0  0  0  0  0
   -2.8086    1.2084    0.0000 N   0  0  0  0  0  0  0  0  0  0  0  0
   -3.4586   -0.1416    0.0000 C   0  0  0  0  0  0  0  0  0  0  0  0
   -4.6313    0.7936    0.0000 H   0  0  0  0  0  0  0  0  0  0  0  0
   -2.8086   -1.4916    0.0000 C   0  0  0  0  0  0  0  0  0  0  0  0
   -3.7464   -2.6623    0.0000 O   0  0  0  0  0  0  0  0  0  0  0  0
   -4.6313   -1.0768    0.0000 O   0  0  0  0  0  0  0  0  0  0  0  0
   -6.0276   -0.5288    0.0000 H   0  0  0  0  0  0  0  0  0  0  0  0
   -3.7464    2.3790    0.0000 O   0  0  0  0  0  0  0  0  0  0  0  0
   -0.9087    3.4789    0.0000 C   0  0  0  0  0  0  0  0  0  0  0  0
   -2.0096    4.4990    0.0000 C   0  0  0  0  0  0  0  0  0  0  0  0
   -3.4428    4.0561    0.0000 H   0  0  0  0  0  0  0  0  0  0  0  0
   -1.6764    5.9615    0.0000 C   0  0  0  0  0  0  0  0  0  0  0  0
   -2.7762    6.9815    0.0000 H   0  0  0  0  0  0  0  0  0  0  0  0
   -0.2423    6.4040    0.0000 C   0  0  0  0  0  0  0  0  0  0  0  0
    0.0909    7.8665    0.0000 H   0  0  0  0  0  0  0  0  0  0  0  0
    0.8586    5.3839    0.0000 C   0  0  0  0  0  0  0  0  0  0  0  0
    2.2917    5.8268    0.0000 H   0  0  0  0  0  0  0  0  0  0  0  0
    0.5254    3.9214    0.0000 C   0  0  0  0  0  0  0  0  0  0  0  0
    1.9771    2.5750    0.0000 H   0  0  0  0  0  0  0  0  0  0  0  0
  1  2  1  0  0  0  0 
  1  3  1  0  0  0  0 
  1  4  1  0  0  0  0 
  1  5  1  0  0  0  0 
  5  6  1  0  0  0  0 
  6  7  2  0  0  0  0 
  7  8  1  0  0  0  0 
  8  9  1  0  0  0  0 
  8 10  2  0  0  0  0 
 10 11  1  0  0  0  0 
 11 12  1  0  0  0  0 
 11 13  2  0  0  0  0 
  6 13  1  0  0  0  0 
 13 14  1  0  0  0  0 
 10 15  1  0  0  0  0 
  7 16  1  0  0  0  0 
 16 17  2  0  0  0  0 
 17 18  1  0  0  0  0 
 18 19  1  0  0  0  0 
 18 20  1  0  0  0  0 
  5 20  1  0  0  0  0 
 20 21  2  0  0  0  0 
 18 22  1  0  0  0  0 
 22 23  1  0  0  0  0 
 17 24  1  0  0  0  0 
 16 25  1  0  0  0  0 
 25 26  2  0  0  0  0 
 26 27  1  0  0  0  0 
 26 28  1  0  0  0  0 
 28 29  1  0  0  0  0 
 28 30  2  0  0  0  0 
 30 31  1  0  0  0  0 
 30 32  1  0  0  0  0 
 32 33  1  0  0  0  0 
 32 34  2  0  0  0  0 
 25 34  1  0  0  0  0 
 34 35  1  0  0  0  0 
M  CHG  1  17   1
M  CHG  1  24  -1
M  END
> <Rank>
7

> <Priority_score>
0.34

> <Reaction_type>
N-oxidation_(-N=)

> <Parent_ID>
32

> <Parent_InChI>
InChI=1S/C16H13ClN2O2/c1-19-13-8-7-11(17)9-12(13)14(18-15(20)16(19)21)10-5-3-2-4-6-10/h2-9,15,20H,1H3

> <Parent_SMILES>
CN1C(=O)C(O)N=C(c2ccccc2)c2cc(Cl)ccc21

$$$$
Molecule 32_metabolite 9
  CDK     0516241031

 35 36  0  0  0  0  0  0  0  0999 V2000
   -3.4823   -1.5302    0.0000 C   0  0  0  0  0  0  0  0  0  0  0  0
   -4.7815   -2.2800    0.0000 H   0  0  0  0  0  0  0  0  0  0  0  0
   -2.0051   -1.2700    0.0000 H   0  0  0  0  0  0  0  0  0  0  0  0
   -2.9695   -2.9398    0.0000 H   0  0  0  0  0  0  0  0  0  0  0  0
   -3.4821   -0.0302    0.0000 N   0  0  0  0  0  0  0  0  0  0  0  0
   -2.1830    0.7196    0.0000 C   0  0  0  0  0  0  0  0  0  0  0  0
   -2.1825    2.2204    0.0000 C   0  0  0  0  0  0  0  0  0  0  0  0
   -3.4815    2.9704    0.0000 H   0  0  0  0  0  0  0  0  0  0  0  0
   -0.8830    2.9713    0.0000 C   0  0  0  0  0  0  0  0  0  0  0  0
   -0.8832    4.4713    0.0000 H   0  0  0  0  0  0  0  0  0  0  0  0
    0.4161    2.2213    0.0000 C   0  0  0  0  0  0  0  0  0  0  0  0
    0.4156    0.7204    0.0000 C   0  0  0  0  0  0  0  0  0  0  0  0
    1.7146   -0.0296    0.0000 H   0  0  0  0  0  0  0  0  0  0  0  0
   -0.8839   -0.0304    0.0000 C   0  0  0  0  0  0  0  0  0  0  0  0
   -0.8835   -2.4904    0.0000 C   0  0  0  0  0  0  0  0  0  0  0  0
   -2.1824   -3.2406    0.0000 N   0  0  0  0  0  0  0  0  0  0  0  0
   -2.1822   -4.7406    0.0000 H   0  0  0  0  0  0  0  0  0  0  0  0
    0.4156   -3.2402    0.0000 C   0  0  0  0  0  0  0  0  0  0  0  0
    0.4154   -4.7410    0.0000 C   0  0  0  0  0  0  0  0  0  0  0  0
   -0.8836   -5.4910    0.0000 H   0  0  0  0  0  0  0  0  0  0  0  0
    1.7146   -5.4908    0.0000 C   0  0  0  0  0  0  0  0  0  0  0  0
    1.7150   -6.9908    0.0000 H   0  0  0  0  0  0  0  0  0  0  0  0
    3.0140   -4.7398    0.0000 C   0  0  0  0  0  0  0  0  0  0  0  0
    4.3131   -5.4896    0.0000 H   0  0  0  0  0  0  0  0  0  0  0  0
    3.0142   -3.2389    0.0000 C   0  0  0  0  0  0  0  0  0  0  0  0
    4.3132   -2.4889    0.0000 H   0  0  0  0  0  0  0  0  0  0  0  0
    1.7150   -2.4892    0.0000 C   0  0  0  0  0  0  0  0  0  0  0  0
    1.9750   -1.0119    0.0000 H   0  0  0  0  0  0  0  0  0  0  0  0
    1.7152    2.9711    0.0000 Cl  0  0  0  0  0  0  0  0  0  0  0  0
   -4.7810    0.7200    0.0000 C   0  0  0  0  0  0  0  0  0  0  0  0
   -4.7808    2.2200    0.0000 O   0  0  0  0  0  0  0  0  0  0  0  0
   -6.0802   -0.0298    0.0000 C   0  0  0  0  0  0  0  0  0  0  0  0
   -6.0804   -1.5298    0.0000 O   0  0  0  0  0  0  0  0  0  0  0  0
   -7.3791    0.7204    0.0000 O   0  0  0  0  0  0  0  0  0  0  0  0
   -8.6783   -0.0294    0.0000 H   0  0  0  0  0  0  0  0  0  0  0  0
  1  2  1  0  0  0  0 
  1  3  1  0  0  0  0 
  1  4  1  0  0  0  0 
  1  5  1  0  0  0  0 
  5  6  1  0  0  0  0 
  6  7  2  0  0  0  0 
  7  8  1  0  0  0  0 
  7  9  1  0  0  0  0 
  9 10  1  0  0  0  0 
  9 11  2  0  0  0  0 
 11 12  1  0  0  0  0 
 12 13  1  0  0  0  0 
 12 14  2  0  0  0  0 
  6 14  1  0  0  0  0 
 14 15  1  0  0  0  0 
 15 16  2  0  0  0  0 
 16 17  1  4  0  0  0 
 15 18  1  0  0  0  0 
 18 19  2  0  0  0  0 
 19 20  1  0  0  0  0 
 19 21  1  0  0  0  0 
 21 22  1  0  0  0  0 
 21 23  2  0  0  0  0 
 23 24  1  0  0  0  0 
 23 25  1  0  0  0  0 
 25 26  1  0  0  0  0 
 25 27  2  0  0  0  0 
 18 27  1  0  0  0  0 
 27 28  1  0  0  0  0 
 11 29  1  0  0  0  0 
  5 30  1  0  0  0  0 
 30 31  2  0  0  0  0 
 30 32  1  0  0  0  0 
 32 33  2  0  0  0  0 
 32 34  1  0  0  0  0 
 34 35  1  0  0  0  0 
M  END
> <Rank>
7

> <Priority_score>
0.34

> <Reaction_type>
N-dealkylation

> <Parent_ID>
32

> <Parent_InChI>
InChI=1S/C16H13ClN2O2/c1-19-13-8-7-11(17)9-12(13)14(18-15(20)16(19)21)10-5-3-2-4-6-10/h2-9,15,20H,1H3

> <Parent_SMILES>
CN1C(=O)C(O)N=C(c2ccccc2)c2cc(Cl)ccc21

$$$$
Molecule 32_metabolite 10
  CDK     0516241031

 35 37  0  0  0  0  0  0  0  0999 V2000
   -1.0154   -3.2941    0.0000 C   0  0  0  0  0  0  0  0  0  0  0  0
   -2.1153   -4.3140    0.0000 H   0  0  0  0  0  0  0  0  0  0  0  0
   -0.2020   -4.5545    0.0000 H   0  0  0  0  0  0  0  0  0  0  0  0
    0.3671   -2.7120    0.0000 H   0  0  0  0  0  0  0  0  0  0  0  0
   -1.3486   -1.8316    0.0000 N   0  0  0  0  0  0  0  0  0  0  0  0
   -0.1786   -0.8916    0.0000 C   0  0  0  0  0  0  0  0  0  0  0  0
   -0.1786    0.6084    0.0000 C   0  0  0  0  0  0  0  0  0  0  0  0
    1.1214    1.3584    0.0000 C   0  0  0  0  0  0  0  0  0  0  0  0
    1.1214    2.8584    0.0000 H   0  0  0  0  0  0  0  0  0  0  0  0
    2.4214    0.6084    0.0000 C   0  0  0  0  0  0  0  0  0  0  0  0
    2.4214   -0.8916    0.0000 C   0  0  0  0  0  0  0  0  0  0  0  0
    3.7204   -1.6418    0.0000 H   0  0  0  0  0  0  0  0  0  0  0  0
    1.1214   -1.6416    0.0000 C   0  0  0  0  0  0  0  0  0  0  0  0
    1.1214   -3.1416    0.0000 H   0  0  0  0  0  0  0  0  0  0  0  0
    3.7204    1.3586    0.0000 Cl  0  0  0  0  0  0  0  0  0  0  0  0
   -1.3486    1.5484    0.0000 C   0  0  0  0  0  0  0  0  0  0  0  0
   -2.8086    1.2084    0.0000 N   0  0  0  0  0  0  0  0  0  0  0  0
   -3.4586   -0.1416    0.0000 C   0  0  0  0  0  0  0  0  0  0  0  0
   -2.8086   -1.4916    0.0000 C   0  0  0  0  0  0  0  0  0  0  0  0
   -3.7464   -2.6623    0.0000 O   0  0  0  0  0  0  0  0  0  0  0  0
   -4.6313    0.7936    0.0000 O   0  0  0  0  0  0  0  0  0  0  0  0
   -6.0276    0.2456    0.0000 H   0  0  0  0  0  0  0  0  0  0  0  0
   -4.6313   -1.0768    0.0000 O   0  0  0  0  0  0  0  0  0  0  0  0
   -6.0276   -0.5288    0.0000 H   0  0  0  0  0  0  0  0  0  0  0  0
   -0.9087    3.4789    0.0000 C   0  0  0  0  0  0  0  0  0  0  0  0
   -2.0096    4.4990    0.0000 C   0  0  0  0  0  0  0  0  0  0  0  0
   -3.4428    4.0561    0.0000 H   0  0  0  0  0  0  0  0  0  0  0  0
   -1.6764    5.9615    0.0000 C   0  0  0  0  0  0  0  0  0  0  0  0
   -2.7762    6.9815    0.0000 H   0  0  0  0  0  0  0  0  0  0  0  0
   -0.2423    6.4040    0.0000 C   0  0  0  0  0  0  0  0  0  0  0  0
    0.0909    7.8665    0.0000 H   0  0  0  0  0  0  0  0  0  0  0  0
    0.8586    5.3839    0.0000 C   0  0  0  0  0  0  0  0  0  0  0  0
    2.2917    5.8268    0.0000 H   0  0  0  0  0  0  0  0  0  0  0  0
    0.5254    3.9214    0.0000 C   0  0  0  0  0  0  0  0  0  0  0  0
    1.9771    2.5750    0.0000 H   0  0  0  0  0  0  0  0  0  0  0  0
  1  2  1  0  0  0  0 
  1  3  1  0  0  0  0 
  1  4  1  0  0  0  0 
  1  5  1  0  0  0  0 
  5  6  1  0  0  0  0 
  6  7  2  0  0  0  0 
  7  8  1  0  0  0  0 
  8  9  1  0  0  0  0 
  8 10  2  0  0  0  0 
 10 11  1  0  0  0  0 
 11 12  1  0  0  0  0 
 11 13  2  0  0  0  0 
  6 13  1  0  0  0  0 
 13 14  1  0  0  0  0 
 10 15  1  0  0  0  0 
  7 16  1  0  0  0  0 
 16 17  2  0  0  0  0 
 17 18  1  0  0  0  0 
 18 19  1  0  0  0  0 
  5 19  1  0  0  0  0 
 19 20  2  0  0  0  0 
 18 21  1  0  0  0  0 
 21 22  1  0  0  0  0 
 18 23  1  0  0  0  0 
 23 24  1  0  0  0  0 
 16 25  1  0  0  0  0 
 25 26  2  0  0  0  0 
 26 27  1  0  0  0  0 
 26 28  1  0  0  0  0 
 28 29  1  0  0  0  0 
 28 30  2  0  0  0  0 
 30 31  1  0  0  0  0 
 30 32  1  0  0  0  0 
 32 33  1  0  0  0  0 
 32 34  2  0  0  0  0 
 25 34  1  0  0  0  0 
 34 35  1  0  0  0  0 
M  END
> <Rank>
7

> <Priority_score>
0.34

> <Reaction_type>
aliphatic hydroxylation

> <Parent_ID>
32

> <Parent_InChI>
InChI=1S/C16H13ClN2O2/c1-19-13-8-7-11(17)9-12(13)14(18-15(20)16(19)21)10-5-3-2-4-6-10/h2-9,15,20H,1H3

> <Parent_SMILES>
CN1C(=O)C(O)N=C(c2ccccc2)c2cc(Cl)ccc21

$$$$
Molecule 32_metabolite 11
  CDK     0516241031

 35 37  0  0  0  0  0  0  0  0999 V2000
   -1.0155   -3.2943    0.0000 C   0  0  0  0  0  0  0  0  0  0  0  0
   -2.1155   -4.3141    0.0000 H   0  0  0  0  0  0  0  0  0  0  0  0
   -0.2022   -4.5546    0.0000 H   0  0  0  0  0  0  0  0  0  0  0  0
    0.3669   -2.7122    0.0000 H   0  0  0  0  0  0  0  0  0  0  0  0
   -1.3487   -1.8318    0.0000 N   0  0  0  0  0  0  0  0  0  0  0  0
   -0.1787   -0.8918    0.0000 C   0  0  0  0  0  0  0  0  0  0  0  0
   -0.1787    0.6082    0.0000 C   0  0  0  0  0  0  0  0  0  0  0  0
    1.1213    1.3582    0.0000 C   0  0  0  0  0  0  0  0  0  0  0  0
    1.1213    2.8582    0.0000 H   0  0  0  0  0  0  0  0  0  0  0  0
    2.4213    0.6082    0.0000 C   0  0  0  0  0  0  0  0  0  0  0  0
    2.4213   -0.8918    0.0000 C   0  0  0  0  0  0  0  0  0  0  0  0
    3.7202   -1.6420    0.0000 H   0  0  0  0  0  0  0  0  0  0  0  0
    1.1213   -1.6418    0.0000 C   0  0  0  0  0  0  0  0  0  0  0  0
    1.1213   -3.1418    0.0000 H   0  0  0  0  0  0  0  0  0  0  0  0
    3.7202    1.3584    0.0000 Cl  0  0  0  0  0  0  0  0  0  0  0  0
   -1.3487    1.5482    0.0000 C   0  0  0  0  0  0  0  0  0  0  0  0
   -2.8087    1.2082    0.0000 N   0  0  0  0  0  0  0  0  0  0  0  0
   -3.4587   -0.1418    0.0000 C   0  0  0  0  0  0  0  0  0  0  0  0
   -4.6315    0.7934    0.0000 H   0  0  0  0  0  0  0  0  0  0  0  0
   -2.8087   -1.4918    0.0000 C   0  0  0  0  0  0  0  0  0  0  0  0
   -3.7466   -2.6624    0.0000 O   0  0  0  0  0  0  0  0  0  0  0  0
   -4.6315   -1.0770    0.0000 O   0  0  0  0  0  0  0  0  0  0  0  0
   -6.0278   -0.5289    0.0000 H   0  0  0  0  0  0  0  0  0  0  0  0
   -0.9089    3.4788    0.0000 C   0  0  0  0  0  0  0  0  0  0  0  0
    0.5242    3.9217    0.0000 C   0  0  0  0  0  0  0  0  0  0  0  0
    1.9766    2.5760    0.0000 H   0  0  0  0  0  0  0  0  0  0  0  0
    0.8569    5.3852    0.0000 C   0  0  0  0  0  0  0  0  0  0  0  0
   -0.2405    6.3962    0.0000 C   0  0  0  0  0  0  0  0  0  0  0  0
    0.0902    7.8593    0.0000 H   0  0  0  0  0  0  0  0  0  0  0  0
   -1.6737    5.9533    0.0000 C   0  0  0  0  0  0  0  0  0  0  0  0
   -2.7722    6.9746    0.0000 H   0  0  0  0  0  0  0  0  0  0  0  0
   -2.0093    4.4993    0.0000 C   0  0  0  0  0  0  0  0  0  0  0  0
   -3.4432    4.0588    0.0000 H   0  0  0  0  0  0  0  0  0  0  0  0
    2.2893    5.8305    0.0000 O   0  0  0  0  0  0  0  0  0  0  0  0
    2.6198    7.2936    0.0000 H   0  0  0  0  0  0  0  0  0  0  0  0
  1  2  1  0  0  0  0 
  1  3  1  0  0  0  0 
  1  4  1  0  0  0  0 
  1  5  1  0  0  0  0 
  5  6  1  0  0  0  0 
  6  7  2  0  0  0  0 
  7  8  1  0  0  0  0 
  8  9  1  0  0  0  0 
  8 10  2  0  0  0  0 
 10 11  1  0  0  0  0 
 11 12  1  0  0  0  0 
 11 13  2  0  0  0  0 
  6 13  1  0  0  0  0 
 13 14  1  0  0  0  0 
 10 15  1  0  0  0  0 
  7 16  1  0  0  0  0 
 16 17  2  0  0  0  0 
 17 18  1  0  0  0  0 
 18 19  1  0  0  0  0 
 18 20  1  0  0  0  0 
  5 20  1  0  0  0  0 
 20 21  2  0  0  0  0 
 18 22  1  0  0  0  0 
 22 23  1  0  0  0  0 
 16 24  1  0  0  0  0 
 24 25  2  0  0  0  0 
 25 26  1  0  0  0  0 
 25 27  1  0  0  0  0 
 27 28  2  0  0  0  0 
 28 29  1  0  0  0  0 
 28 30  1  0  0  0  0 
 30 31  1  0  0  0  0 
 30 32  2  0  0  0  0 
 24 32  1  0  0  0  0 
 32 33  1  0  0  0  0 
 27 34  1  0  0  0  0 
 34 35  1  0  0  0  0 
M  END
> <Rank>
11

> <Priority_score>
0.1958408085912824

> <Reaction_type>
aromatic_hydroxylation_(meta_to_carbon)

> <Parent_ID>
32

> <Parent_InChI>
InChI=1S/C16H13ClN2O2/c1-19-13-8-7-11(17)9-12(13)14(18-15(20)16(19)21)10-5-3-2-4-6-10/h2-9,15,20H,1H3

> <Parent_SMILES>
CN1C(=O)C(O)N=C(c2ccccc2)c2cc(Cl)ccc21

$$$$
Molecule 32_metabolite 12
  CDK     0516241031

 39 41  0  0  0  0  0  0  0  0999 V2000
   -1.0154   -3.2941    0.0000 C   0  0  0  0  0  0  0  0  0  0  0  0
   -2.1153   -4.3140    0.0000 H   0  0  0  0  0  0  0  0  0  0  0  0
   -0.2020   -4.5545    0.0000 H   0  0  0  0  0  0  0  0  0  0  0  0
    0.3671   -2.7120    0.0000 H   0  0  0  0  0  0  0  0  0  0  0  0
   -1.3486   -1.8316    0.0000 N   0  0  0  0  0  0  0  0  0  0  0  0
   -0.1786   -0.8916    0.0000 C   0  0  0  0  0  0  0  0  0  0  0  0
   -0.1786    0.6084    0.0000 C   0  0  0  0  0  0  0  0  0  0  0  0
    1.1214    1.3584    0.0000 C   0  0  0  0  0  0  0  0  0  0  0  0
    1.1214    2.8584    0.0000 H   0  0  0  0  0  0  0  0  0  0  0  0
    2.4214    0.6084    0.0000 C   0  0  0  0  0  0  0  0  0  0  0  0
    2.4214   -0.8916    0.0000 C   0  0  0  0  0  0  0  0  0  0  0  0
    3.7204   -1.6418    0.0000 H   0  0  0  0  0  0  0  0  0  0  0  0
    1.1214   -1.6416    0.0000 C   0  0  0  0  0  0  0  0  0  0  0  0
    1.1214   -3.1416    0.0000 H   0  0  0  0  0  0  0  0  0  0  0  0
    3.7204    1.3586    0.0000 Cl  0  0  0  0  0  0  0  0  0  0  0  0
   -1.3486    1.5484    0.0000 C   0  0  0  0  0  0  0  0  0  0  0  0
   -2.8086    1.2084    0.0000 N   0  0  0  0  0  0  0  0  0  0  0  0
   -3.4586   -0.1416    0.0000 C   0  0  0  0  0  0  0  0  0  0  0  0
   -4.6313    0.7936    0.0000 H   0  0  0  0  0  0  0  0  0  0  0  0
   -2.8086   -1.4916    0.0000 C   0  0  0  0  0  0  0  0  0  0  0  0
   -3.7464   -2.6623    0.0000 O   0  0  0  0  0  0  0  0  0  0  0  0
   -4.6313   -1.0768    0.0000 O   0  0  0  0  0  0  0  0  0  0  0  0
   -6.0276   -0.5288    0.0000 H   0  0  0  0  0  0  0  0  0  0  0  0
   -0.9087    3.4789    0.0000 C   0  0  0  0  0  0  0  0  0  0  0  0
   -2.0096    4.4990    0.0000 C   0  0  0  0  0  0  0  0  0  0  0  0
   -3.4428    4.0561    0.0000 H   0  0  0  0  0  0  0  0  0  0  0  0
   -1.6764    5.9615    0.0000 C   0  0  0  0  0  0  0  0  0  0  0  0
   -0.2423    6.4040    0.0000 C   0  0  0  0  0  0  0  0  0  0  0  0
    0.8586    5.3839    0.0000 C   0  0  0  0  0  0  0  0  0  0  0  0
    2.2917    5.8268    0.0000 H   0  0  0  0  0  0  0  0  0  0  0  0
    0.5254    3.9214    0.0000 C   0  0  0  0  0  0  0  0  0  0  0  0
    1.9771    2.5750    0.0000 H   0  0  0  0  0  0  0  0  0  0  0  0
    0.0909    7.8665    0.0000 O   0  0  0  0  0  0  0  0  0  0  0  0
   -1.0091    8.8863    0.0000 H   0  0  0  0  0  0  0  0  0  0  0  0
   -2.7762    6.9815    0.0000 O   0  0  0  0  0  0  0  0  0  0  0  0
   -2.4428    8.4440    0.0000 C   0  0  0  0  0  0  0  0  0  0  0  0
   -3.5426    9.4640    0.0000 H   0  0  0  0  0  0  0  0  0  0  0  0
   -1.0604    7.8616    0.0000 H   0  0  0  0  0  0  0  0  0  0  0  0
   -1.6293    9.7042    0.0000 H   0  0  0  0  0  0  0  0  0  0  0  0
  1  2  1  0  0  0  0 
  1  3  1  0  0  0  0 
  1  4  1  0  0  0  0 
  1  5  1  0  0  0  0 
  5  6  1  0  0  0  0 
  6  7  2  0  0  0  0 
  7  8  1  0  0  0  0 
  8  9  1  0  0  0  0 
  8 10  2  0  0  0  0 
 10 11  1  0  0  0  0 
 11 12  1  0  0  0  0 
 11 13  2  0  0  0  0 
  6 13  1  0  0  0  0 
 13 14  1  0  0  0  0 
 10 15  1  0  0  0  0 
  7 16  1  0  0  0  0 
 16 17  2  0  0  0  0 
 17 18  1  0  0  0  0 
 18 19  1  0  0  0  0 
 18 20  1  0  0  0  0 
  5 20  1  0  0  0  0 
 20 21  2  0  0  0  0 
 18 22  1  0  0  0  0 
 22 23  1  0  0  0  0 
 16 24  1  0  0  0  0 
 24 25  2  0  0  0  0 
 25 26  1  0  0  0  0 
 25 27  1  0  0  0  0 
 27 28  2  0  0  0  0 
 28 29  1  0  0  0  0 
 29 30  1  0  0  0  0 
 29 31  2  0  0  0  0 
 24 31  1  0  0  0  0 
 31 32  1  0  0  0  0 
 28 33  1  0  0  0  0 
 33 34  1  0  0  0  0 
 27 35  1  0  0  0  0 
 35 36  1  0  0  0  0 
 36 37  1  0  0  0  0 
 36 38  1  0  0  0  0 
 36 39  1  0  0  0  0 
M  END
> <Rank>
11

> <Priority_score>
0.1958408085912824

> <Reaction_type>
aromatic_oxidation

> <Parent_ID>
32

> <Parent_InChI>
InChI=1S/C16H13ClN2O2/c1-19-13-8-7-11(17)9-12(13)14(18-15(20)16(19)21)10-5-3-2-4-6-10/h2-9,15,20H,1H3

> <Parent_SMILES>
CN1C(=O)C(O)N=C(c2ccccc2)c2cc(Cl)ccc21

$$$$
Molecule 32_metabolite 13
  CDK     0516241031

 35 37  0  0  0  0  0  0  0  0999 V2000
   -1.1193   -4.2393    0.0000 C   0  0  0  0  0  0  0  0  0  0  0  0
   -2.2193   -5.2591    0.0000 H   0  0  0  0  0  0  0  0  0  0  0  0
   -0.3060   -5.4997    0.0000 H   0  0  0  0  0  0  0  0  0  0  0  0
    0.2631   -3.6572    0.0000 H   0  0  0  0  0  0  0  0  0  0  0  0
   -1.4525   -2.7768    0.0000 N   0  0  0  0  0  0  0  0  0  0  0  0
   -0.2825   -1.8368    0.0000 C   0  0  0  0  0  0  0  0  0  0  0  0
   -0.2825   -0.3368    0.0000 C   0  0  0  0  0  0  0  0  0  0  0  0
    1.0175    0.4132    0.0000 C   0  0  0  0  0  0  0  0  0  0  0  0
    1.0175    2.3932    0.0000 H   0  0  0  0  0  0  0  0  0  0  0  0
    2.3175   -0.3368    0.0000 C   0  0  0  0  0  0  0  0  0  0  0  0
    2.3175   -1.8368    0.0000 C   0  0  0  0  0  0  0  0  0  0  0  0
    3.6164   -2.5870    0.0000 H   0  0  0  0  0  0  0  0  0  0  0  0
    1.0175   -2.5868    0.0000 C   0  0  0  0  0  0  0  0  0  0  0  0
    1.0175   -4.0868    0.0000 H   0  0  0  0  0  0  0  0  0  0  0  0
    3.6164    0.4134    0.0000 Cl  0  0  0  0  0  0  0  0  0  0  0  0
   -1.4525    0.6032    0.0000 C   0  0  0  0  0  0  0  0  0  0  0  0
   -2.9125    0.2632    0.0000 N   0  0  0  0  0  0  0  0  0  0  0  0
   -3.5625   -1.0868    0.0000 C   0  0  0  0  0  0  0  0  0  0  0  0
   -4.7353   -0.1516    0.0000 H   0  0  0  0  0  0  0  0  0  0  0  0
   -2.9125   -2.4368    0.0000 C   0  0  0  0  0  0  0  0  0  0  0  0
   -3.8504   -3.6074    0.0000 O   0  0  0  0  0  0  0  0  0  0  0  0
   -4.7353   -2.0220    0.0000 O   0  0  0  0  0  0  0  0  0  0  0  0
   -6.1316   -1.4739    0.0000 H   0  0  0  0  0  0  0  0  0  0  0  0
   -0.9061    3.0018    0.0000 C   0  0  0  0  0  0  0  0  0  0  0  0
   -2.0111    4.0162    0.0000 C   0  0  0  0  0  0  0  0  0  0  0  0
   -3.4398    3.5594    0.0000 H   0  0  0  0  0  0  0  0  0  0  0  0
   -1.7047    5.4589    0.0000 C   0  0  0  0  0  0  0  0  0  0  0  0
   -2.8229    6.4587    0.0000 H   0  0  0  0  0  0  0  0  0  0  0  0
   -0.2392    5.9462    0.0000 C   0  0  0  0  0  0  0  0  0  0  0  0
    0.8658    4.9318    0.0000 C   0  0  0  0  0  0  0  0  0  0  0  0
    2.3004    5.3697    0.0000 H   0  0  0  0  0  0  0  0  0  0  0  0
    0.5053    3.4301    0.0000 C   0  0  0  0  0  0  0  0  0  0  0  0
    1.9461    2.0720    0.0000 H   0  0  0  0  0  0  0  0  0  0  0  0
    0.0747    7.4130    0.0000 O   0  0  0  0  0  0  0  0  0  0  0  0
   -1.0386    8.4182    0.0000 H   0  0  0  0  0  0  0  0  0  0  0  0
  1  2  1  0  0  0  0 
  1  3  1  0  0  0  0 
  1  4  1  0  0  0  0 
  1  5  1  0  0  0  0 
  5  6  1  0  0  0  0 
  6  7  2  0  0  0  0 
  7  8  1  0  0  0  0 
  8  9  1  0  0  0  0 
  8 10  2  0  0  0  0 
 10 11  1  0  0  0  0 
 11 12  1  0  0  0  0 
 11 13  2  0  0  0  0 
  6 13  1  0  0  0  0 
 13 14  1  0  0  0  0 
 10 15  1  0  0  0  0 
  7 16  1  0  0  0  0 
 16 17  2  0  0  0  0 
 17 18  1  0  0  0  0 
 18 19  1  0  0  0  0 
 18 20  1  0  0  0  0 
  5 20  1  0  0  0  0 
 20 21  2  0  0  0  0 
 18 22  1  0  0  0  0 
 22 23  1  0  0  0  0 
 16 24  1  0  0  0  0 
 24 25  2  0  0  0  0 
 25 26  1  0  0  0  0 
 25 27  1  0  0  0  0 
 27 28  1  0  0  0  0 
 27 29  2  0  0  0  0 
 29 30  1  0  0  0  0 
 30 31  1  0  0  0  0 
 30 32  2  0  0  0  0 
 24 32  1  0  0  0  0 
 32 33  1  0  0  0  0 
 29 34  1  0  0  0  0 
 34 35  1  0  0  0  0 
M  END
> <Rank>
11

> <Priority_score>
0.1958408085912824

> <Reaction_type>
aromatic_hydroxylation_(para_to_carbon)

> <Parent_ID>
32

> <Parent_InChI>
InChI=1S/C16H13ClN2O2/c1-19-13-8-7-11(17)9-12(13)14(18-15(20)16(19)21)10-5-3-2-4-6-10/h2-9,15,20H,1H3

> <Parent_SMILES>
CN1C(=O)C(O)N=C(c2ccccc2)c2cc(Cl)ccc21

$$$$
Molecule 32_metabolite 14
  CDK     0516241031

 35 37  0  0  0  0  0  0  0  0999 V2000
   -1.0154   -3.2941    0.0000 C   0  0  0  0  0  0  0  0  0  0  0  0
   -2.1153   -4.3140    0.0000 H   0  0  0  0  0  0  0  0  0  0  0  0
   -0.2020   -4.5545    0.0000 H   0  0  0  0  0  0  0  0  0  0  0  0
    0.3671   -2.7120    0.0000 H   0  0  0  0  0  0  0  0  0  0  0  0
   -1.3486   -1.8316    0.0000 N   0  0  0  0  0  0  0  0  0  0  0  0
   -0.1786   -0.8916    0.0000 C   0  0  0  0  0  0  0  0  0  0  0  0
   -0.1786    0.6084    0.0000 C   0  0  0  0  0  0  0  0  0  0  0  0
    1.1214    1.3584    0.0000 C   0  0  0  0  0  0  0  0  0  0  0  0
    1.1214    2.8584    0.0000 H   0  0  0  0  0  0  0  0  0  0  0  0
    2.4214    0.6084    0.0000 C   0  0  0  0  0  0  0  0  0  0  0  0
    2.4214   -0.8916    0.0000 C   0  0  0  0  0  0  0  0  0  0  0  0
    1.1214   -1.6416    0.0000 C   0  0  0  0  0  0  0  0  0  0  0  0
    1.1214   -3.1416    0.0000 H   0  0  0  0  0  0  0  0  0  0  0  0
    3.7204   -1.6418    0.0000 O   0  0  0  0  0  0  0  0  0  0  0  0
    5.0195   -0.8920    0.0000 H   0  0  0  0  0  0  0  0  0  0  0  0
    3.7204    1.3586    0.0000 Cl  0  0  0  0  0  0  0  0  0  0  0  0
   -1.3486    1.5484    0.0000 C   0  0  0  0  0  0  0  0  0  0  0  0
   -2.8086    1.2084    0.0000 N   0  0  0  0  0  0  0  0  0  0  0  0
   -3.4586   -0.1416    0.0000 C   0  0  0  0  0  0  0  0  0  0  0  0
   -4.6313    0.7936    0.0000 H   0  0  0  0  0  0  0  0  0  0  0  0
   -2.8086   -1.4916    0.0000 C   0  0  0  0  0  0  0  0  0  0  0  0
   -3.7464   -2.6623    0.0000 O   0  0  0  0  0  0  0  0  0  0  0  0
   -4.6313   -1.0768    0.0000 O   0  0  0  0  0  0  0  0  0  0  0  0
   -6.0276   -0.5288    0.0000 H   0  0  0  0  0  0  0  0  0  0  0  0
   -0.9087    3.4789    0.0000 C   0  0  0  0  0  0  0  0  0  0  0  0
   -2.0096    4.4990    0.0000 C   0  0  0  0  0  0  0  0  0  0  0  0
   -3.4428    4.0561    0.0000 H   0  0  0  0  0  0  0  0  0  0  0  0
   -1.6764    5.9615    0.0000 C   0  0  0  0  0  0  0  0  0  0  0  0
   -2.7762    6.9815    0.0000 H   0  0  0  0  0  0  0  0  0  0  0  0
   -0.2423    6.4040    0.0000 C   0  0  0  0  0  0  0  0  0  0  0  0
    0.0909    7.8665    0.0000 H   0  0  0  0  0  0  0  0  0  0  0  0
    0.8586    5.3839    0.0000 C   0  0  0  0  0  0  0  0  0  0  0  0
    2.2917    5.8268    0.0000 H   0  0  0  0  0  0  0  0  0  0  0  0
    0.5254    3.9214    0.0000 C   0  0  0  0  0  0  0  0  0  0  0  0
    1.9771    2.5750    0.0000 H   0  0  0  0  0  0  0  0  0  0  0  0
  1  2  1  0  0  0  0 
  1  3  1  0  0  0  0 
  1  4  1  0  0  0  0 
  1  5  1  0  0  0  0 
  5  6  1  0  0  0  0 
  6  7  2  0  0  0  0 
  7  8  1  0  0  0  0 
  8  9  1  0  0  0  0 
  8 10  2  0  0  0  0 
 10 11  1  0  0  0  0 
 11 12  2  0  0  0  0 
  6 12  1  0  0  0  0 
 12 13  1  0  0  0  0 
 11 14  1  0  0  0  0 
 14 15  1  0  0  0  0 
 10 16  1  0  0  0  0 
  7 17  1  0  0  0  0 
 17 18  2  0  0  0  0 
 18 19  1  0  0  0  0 
 19 20  1  0  0  0  0 
 19 21  1  0  0  0  0 
  5 21  1  0  0  0  0 
 21 22  2  0  0  0  0 
 19 23  1  0  0  0  0 
 23 24  1  0  0  0  0 
 17 25  1  0  0  0  0 
 25 26  2  0  0  0  0 
 26 27  1  0  0  0  0 
 26 28  1  0  0  0  0 
 28 29  1  0  0  0  0 
 28 30  2  0  0  0  0 
 30 31  1  0  0  0  0 
 30 32  1  0  0  0  0 
 32 33  1  0  0  0  0 
 32 34  2  0  0  0  0 
 25 34  1  0  0  0  0 
 34 35  1  0  0  0  0 
M  END
> <Rank>
14

> <Priority_score>
0.124

> <Reaction_type>
aromatic_hydroxylation_(para_to_carbon)

> <Parent_ID>
32

> <Parent_InChI>
InChI=1S/C16H13ClN2O2/c1-19-13-8-7-11(17)9-12(13)14(18-15(20)16(19)21)10-5-3-2-4-6-10/h2-9,15,20H,1H3

> <Parent_SMILES>
CN1C(=O)C(O)N=C(c2ccccc2)c2cc(Cl)ccc21

$$$$
Molecule 32_metabolite 15
  CDK     0516241031

 35 37  0  0  0  0  0  0  0  0999 V2000
   -1.0154   -3.2941    0.0000 C   0  0  0  0  0  0  0  0  0  0  0  0
   -2.1153   -4.3140    0.0000 H   0  0  0  0  0  0  0  0  0  0  0  0
   -0.2020   -4.5545    0.0000 H   0  0  0  0  0  0  0  0  0  0  0  0
    0.3671   -2.7120    0.0000 H   0  0  0  0  0  0  0  0  0  0  0  0
   -1.3486   -1.8316    0.0000 N   0  0  0  0  0  0  0  0  0  0  0  0
   -0.1786   -0.8916    0.0000 C   0  0  0  0  0  0  0  0  0  0  0  0
   -0.1786    0.6084    0.0000 C   0  0  0  0  0  0  0  0  0  0  0  0
    1.1214    1.3584    0.0000 C   0  0  0  0  0  0  0  0  0  0  0  0
    1.1214    2.8584    0.0000 H   0  0  0  0  0  0  0  0  0  0  0  0
    2.4214    0.6084    0.0000 C   0  0  0  0  0  0  0  0  0  0  0  0
    2.4214   -0.8916    0.0000 C   0  0  0  0  0  0  0  0  0  0  0  0
    3.7204   -1.6418    0.0000 H   0  0  0  0  0  0  0  0  0  0  0  0
    1.1214   -1.6416    0.0000 C   0  0  0  0  0  0  0  0  0  0  0  0
    1.1214   -3.1416    0.0000 O   0  0  0  0  0  0  0  0  0  0  0  0
    2.4205   -3.8916    0.0000 H   0  0  0  0  0  0  0  0  0  0  0  0
    3.7204    1.3586    0.0000 Cl  0  0  0  0  0  0  0  0  0  0  0  0
   -1.3486    1.5484    0.0000 C   0  0  0  0  0  0  0  0  0  0  0  0
   -2.8086    1.2084    0.0000 N   0  0  0  0  0  0  0  0  0  0  0  0
   -3.4586   -0.1416    0.0000 C   0  0  0  0  0  0  0  0  0  0  0  0
   -4.6313    0.7936    0.0000 H   0  0  0  0  0  0  0  0  0  0  0  0
   -2.8086   -1.4916    0.0000 C   0  0  0  0  0  0  0  0  0  0  0  0
   -3.7464   -2.6623    0.0000 O   0  0  0  0  0  0  0  0  0  0  0  0
   -4.6313   -1.0768    0.0000 O   0  0  0  0  0  0  0  0  0  0  0  0
   -6.0276   -0.5288    0.0000 H   0  0  0  0  0  0  0  0  0  0  0  0
   -0.9087    3.4789    0.0000 C   0  0  0  0  0  0  0  0  0  0  0  0
   -2.0096    4.4990    0.0000 C   0  0  0  0  0  0  0  0  0  0  0  0
   -3.4428    4.0561    0.0000 H   0  0  0  0  0  0  0  0  0  0  0  0
   -1.6764    5.9615    0.0000 C   0  0  0  0  0  0  0  0  0  0  0  0
   -2.7762    6.9815    0.0000 H   0  0  0  0  0  0  0  0  0  0  0  0
   -0.2423    6.4040    0.0000 C   0  0  0  0  0  0  0  0  0  0  0  0
    0.0909    7.8665    0.0000 H   0  0  0  0  0  0  0  0  0  0  0  0
    0.8586    5.3839    0.0000 C   0  0  0  0  0  0  0  0  0  0  0  0
    2.2917    5.8268    0.0000 H   0  0  0  0  0  0  0  0  0  0  0  0
    0.5254    3.9214    0.0000 C   0  0  0  0  0  0  0  0  0  0  0  0
    1.9771    2.5750    0.0000 H   0  0  0  0  0  0  0  0  0  0  0  0
  1  2  1  0  0  0  0 
  1  3  1  0  0  0  0 
  1  4  1  0  0  0  0 
  1  5  1  0  0  0  0 
  5  6  1  0  0  0  0 
  6  7  2  0  0  0  0 
  7  8  1  0  0  0  0 
  8  9  1  0  0  0  0 
  8 10  2  0  0  0  0 
 10 11  1  0  0  0  0 
 11 12  1  0  0  0  0 
 11 13  2  0  0  0  0 
  6 13  1  0  0  0  0 
 13 14  1  0  0  0  0 
 14 15  1  0  0  0  0 
 10 16  1  0  0  0  0 
  7 17  1  0  0  0  0 
 17 18  2  0  0  0  0 
 18 19  1  0  0  0  0 
 19 20  1  0  0  0  0 
 19 21  1  0  0  0  0 
  5 21  1  0  0  0  0 
 21 22  2  0  0  0  0 
 19 23  1  0  0  0  0 
 23 24  1  0  0  0  0 
 17 25  1  0  0  0  0 
 25 26  2  0  0  0  0 
 26 27  1  0  0  0  0 
 26 28  1  0  0  0  0 
 28 29  1  0  0  0  0 
 28 30  2  0  0  0  0 
 30 31  1  0  0  0  0 
 30 32  1  0  0  0  0 
 32 33  1  0  0  0  0 
 32 34  2  0  0  0  0 
 25 34  1  0  0  0  0 
 34 35  1  0  0  0  0 
M  END
> <Rank>
14

> <Priority_score>
0.124

> <Reaction_type>
aromatic_hydroxylation_(ortho_to_nitrogen)

> <Parent_ID>
32

> <Parent_InChI>
InChI=1S/C16H13ClN2O2/c1-19-13-8-7-11(17)9-12(13)14(18-15(20)16(19)21)10-5-3-2-4-6-10/h2-9,15,20H,1H3

> <Parent_SMILES>
CN1C(=O)C(O)N=C(c2ccccc2)c2cc(Cl)ccc21

$$$$
Molecule 32_metabolite 16
  CDK     0516241031

 69 71  0  0  0  0  0  0  0  0999 V2000
   -0.7700   -4.0885    0.0000 C   0  0  0  0  0  0  0  0  0  0  0  0
   -1.8700   -5.1084    0.0000 H   0  0  0  0  0  0  0  0  0  0  0  0
    0.0433   -5.3489    0.0000 H   0  0  0  0  0  0  0  0  0  0  0  0
    0.6124   -3.5064    0.0000 H   0  0  0  0  0  0  0  0  0  0  0  0
   -1.1033   -2.6260    0.0000 N   0  0  0  0  0  0  0  0  0  0  0  0
    0.0667   -1.6860    0.0000 C   0  0  0  0  0  0  0  0  0  0  0  0
    0.0667   -0.1860    0.0000 C   0  0  0  0  0  0  0  0  0  0  0  0
    1.3667    0.5640    0.0000 C   0  0  0  0  0  0  0  0  0  0  0  0
    1.3667    2.0640    0.0000 H   0  0  0  0  0  0  0  0  0  0  0  0
    2.6667   -0.1860    0.0000 C   0  0  0  0  0  0  0  0  0  0  0  0
    2.6667   -1.6860    0.0000 C   0  0  0  0  0  0  0  0  0  0  0  0
    3.9657   -2.4362    0.0000 H   0  0  0  0  0  0  0  0  0  0  0  0
    1.3667   -2.4360    0.0000 C   0  0  0  0  0  0  0  0  0  0  0  0
    1.3667   -3.9360    0.0000 H   0  0  0  0  0  0  0  0  0  0  0  0
    3.9657    0.5642    0.0000 S   0  0  0  0  0  0  0  0  0  0  0  0
    5.2648   -0.1856    0.0000 C   0  0  0  0  0  0  0  0  0  0  0  0
    4.3008   -1.3348    0.0000 H   0  0  0  0  0  0  0  0  0  0  0  0
    6.2292   -1.3345    0.0000 H   0  0  0  0  0  0  0  0  0  0  0  0
    6.5637    0.5646    0.0000 C   0  0  0  0  0  0  0  0  0  0  0  0
    7.5277    1.7138    0.0000 H   0  0  0  0  0  0  0  0  0  0  0  0
    5.5994    1.7135    0.0000 C   0  0  0  0  0  0  0  0  0  0  0  0
    4.1222    1.4528    0.0000 O   0  0  0  0  0  0  0  0  0  0  0  0
    6.1122    3.1231    0.0000 N   0  0  0  0  0  0  0  0  0  0  0  0
    7.5893    3.3839    0.0000 H   0  0  0  0  0  0  0  0  0  0  0  0
    5.1478    4.2721    0.0000 C   0  0  0  0  0  0  0  0  0  0  0  0
    4.1838    3.1228    0.0000 H   0  0  0  0  0  0  0  0  0  0  0  0
    3.8487    5.0218    0.0000 H   0  0  0  0  0  0  0  0  0  0  0  0
    5.6606    5.6817    0.0000 C   0  0  0  0  0  0  0  0  0  0  0  0
    7.1378    5.9424    0.0000 O   0  0  0  0  0  0  0  0  0  0  0  0
    4.6962    6.8306    0.0000 O   0  0  0  0  0  0  0  0  0  0  0  0
    5.2091    8.2402    0.0000 H   0  0  0  0  0  0  0  0  0  0  0  0
    7.8629   -0.1852    0.0000 N   0  0  0  0  0  0  0  0  0  0  0  0
    7.8631   -1.6852    0.0000 H   0  0  0  0  0  0  0  0  0  0  0  0
    9.1618    0.5650    0.0000 C   0  0  0  0  0  0  0  0  0  0  0  0
    9.1616    2.0650    0.0000 O   0  0  0  0  0  0  0  0  0  0  0  0
   10.4610   -0.1848    0.0000 C   0  0  0  0  0  0  0  0  0  0  0  0
    9.4970   -1.3340    0.0000 H   0  0  0  0  0  0  0  0  0  0  0  0
   11.4253   -1.3337    0.0000 H   0  0  0  0  0  0  0  0  0  0  0  0
   12.1755    0.8055    0.0000 C   0  0  0  0  0  0  0  0  0  0  0  0
   13.1395    1.9547    0.0000 H   0  0  0  0  0  0  0  0  0  0  0  0
   11.2112    1.9544    0.0000 H   0  0  0  0  0  0  0  0  0  0  0  0
   13.4747    0.0557    0.0000 C   0  0  0  0  0  0  0  0  0  0  0  0
   12.5107   -1.0935    0.0000 H   0  0  0  0  0  0  0  0  0  0  0  0
   14.7736    0.8059    0.0000 C   0  0  0  0  0  0  0  0  0  0  0  0
   14.7734    2.3059    0.0000 O   0  0  0  0  0  0  0  0  0  0  0  0
   16.0728    0.0561    0.0000 O   0  0  0  0  0  0  0  0  0  0  0  0
   17.3717    0.8063    0.0000 H   0  0  0  0  0  0  0  0  0  0  0  0
   14.4391   -1.0932    0.0000 N   0  0  0  0  0  0  0  0  0  0  0  0
   15.9162   -0.8325    0.0000 H   0  0  0  0  0  0  0  0  0  0  0  0
   13.9263   -2.5028    0.0000 H   0  0  0  0  0  0  0  0  0  0  0  0
   -1.1033    0.7540    0.0000 C   0  0  0  0  0  0  0  0  0  0  0  0
   -2.5633    0.4140    0.0000 N   0  0  0  0  0  0  0  0  0  0  0  0
   -3.2133   -0.9360    0.0000 C   0  0  0  0  0  0  0  0  0  0  0  0
   -4.3860   -0.0008    0.0000 H   0  0  0  0  0  0  0  0  0  0  0  0
   -2.5633   -2.2860    0.0000 C   0  0  0  0  0  0  0  0  0  0  0  0
   -3.5011   -3.4567    0.0000 O   0  0  0  0  0  0  0  0  0  0  0  0
   -4.3860   -1.8712    0.0000 O   0  0  0  0  0  0  0  0  0  0  0  0
   -5.7823   -1.3232    0.0000 H   0  0  0  0  0  0  0  0  0  0  0  0
   -0.5568    3.1525    0.0000 C   0  0  0  0  0  0  0  0  0  0  0  0
   -1.6577    4.1726    0.0000 C   0  0  0  0  0  0  0  0  0  0  0  0
   -3.0908    3.7296    0.0000 H   0  0  0  0  0  0  0  0  0  0  0  0
   -1.3245    5.6351    0.0000 C   0  0  0  0  0  0  0  0  0  0  0  0
   -2.4243    6.6551    0.0000 H   0  0  0  0  0  0  0  0  0  0  0  0
    0.1096    6.0776    0.0000 C   0  0  0  0  0  0  0  0  0  0  0  0
    0.4429    7.5401    0.0000 H   0  0  0  0  0  0  0  0  0  0  0  0
    1.2106    5.0575    0.0000 C   0  0  0  0  0  0  0  0  0  0  0  0
    2.6437    5.5004    0.0000 H   0  0  0  0  0  0  0  0  0  0  0  0
    0.8773    3.5950    0.0000 C   0  0  0  0  0  0  0  0  0  0  0  0
    1.9771    2.5750    0.0000 H   0  0  0  0  0  0  0  0  0  0  0  0
  1  2  1  0  0  0  0 
  1  3  1  0  0  0  0 
  1  4  1  0  0  0  0 
  1  5  1  0  0  0  0 
  5  6  1  0  0  0  0 
  6  7  2  0  0  0  0 
  7  8  1  0  0  0  0 
  8  9  1  0  0  0  0 
  8 10  2  0  0  0  0 
 10 11  1  0  0  0  0 
 11 12  1  0  0  0  0 
 11 13  2  0  0  0  0 
  6 13  1  0  0  0  0 
 13 14  1  0  0  0  0 
 10 15  1  0  0  0  0 
 15 16  1  0  0  0  0 
 16 17  1  0  0  0  0 
 16 18  1  0  0  0  0 
 16 19  1  0  0  0  0 
 19 20  1  0  0  0  0 
 19 21  1  0  0  0  0 
 21 22  2  0  0  0  0 
 21 23  1  0  0  0  0 
 23 24  1  0  0  0  0 
 23 25  1  0  0  0  0 
 25 26  1  0  0  0  0 
 25 27  1  0  0  0  0 
 25 28  1  0  0  0  0 
 28 29  2  0  0  0  0 
 28 30  1  0  0  0  0 
 30 31  1  0  0  0  0 
 19 32  1  0  0  0  0 
 32 33  1  0  0  0  0 
 32 34  1  0  0  0  0 
 34 35  2  0  0  0  0 
 34 36  1  0  0  0  0 
 36 37  1  0  0  0  0 
 36 38  1  0  0  0  0 
 36 39  1  0  0  0  0 
 39 40  1  0  0  0  0 
 39 41  1  0  0  0  0 
 39 42  1  0  0  0  0 
 42 43  1  0  0  0  0 
 42 44  1  0  0  0  0 
 44 45  2  0  0  0  0 
 44 46  1  0  0  0  0 
 46 47  1  0  0  0  0 
 42 48  1  0  0  0  0 
 48 49  1  0  0  0  0 
 48 50  1  0  0  0  0 
  7 51  1  0  0  0  0 
 51 52  2  0  0  0  0 
 52 53  1  0  0  0  0 
 53 54  1  0  0  0  0 
 53 55  1  0  0  0  0 
  5 55  1  0  0  0  0 
 55 56  2  0  0  0  0 
 53 57  1  0  0  0  0 
 57 58  1  0  0  0  0 
 51 59  1  0  0  0  0 
 59 60  2  0  0  0  0 
 60 61  1  0  0  0  0 
 60 62  1  0  0  0  0 
 62 63  1  0  0  0  0 
 62 64  2  0  0  0  0 
 64 65  1  0  0  0  0 
 64 66  1  0  0  0  0 
 66 67  1  0  0  0  0 
 66 68  2  0  0  0  0 
 59 68  1  0  0  0  0 
 68 69  1  0  0  0  0 
M  END
> <Rank>
16

> <Priority_score>
0.12

> <Reaction_type>
glutathione_conjugation_(aromatic_nucleophilic_substitution)

> <Parent_ID>
32

> <Parent_InChI>
InChI=1S/C16H13ClN2O2/c1-19-13-8-7-11(17)9-12(13)14(18-15(20)16(19)21)10-5-3-2-4-6-10/h2-9,15,20H,1H3

> <Parent_SMILES>
CN1C(=O)C(O)N=C(c2ccccc2)c2cc(Cl)ccc21

$$$$
Molecule 32_metabolite 17
  CDK     0516241031

 33 35  0  0  0  0  0  0  0  0999 V2000
   -1.0154   -3.2941    0.0000 C   0  0  0  0  0  0  0  0  0  0  0  0
   -2.1153   -4.3140    0.0000 H   0  0  0  0  0  0  0  0  0  0  0  0
    0.4178   -3.7368    0.0000 H   0  0  0  0  0  0  0  0  0  0  0  0
   -1.3486   -1.8316    0.0000 N   0  0  0  0  0  0  0  0  0  0  0  0
   -0.1786   -0.8916    0.0000 C   0  0  0  0  0  0  0  0  0  0  0  0
   -0.1786    0.6084    0.0000 C   0  0  0  0  0  0  0  0  0  0  0  0
    1.1214    1.3584    0.0000 C   0  0  0  0  0  0  0  0  0  0  0  0
    1.1214    2.8584    0.0000 H   0  0  0  0  0  0  0  0  0  0  0  0
    2.4214    0.6084    0.0000 C   0  0  0  0  0  0  0  0  0  0  0  0
    2.4214   -0.8916    0.0000 C   0  0  0  0  0  0  0  0  0  0  0  0
    3.7204   -1.6418    0.0000 H   0  0  0  0  0  0  0  0  0  0  0  0
    1.1214   -1.6416    0.0000 C   0  0  0  0  0  0  0  0  0  0  0  0
    1.1214   -3.1416    0.0000 H   0  0  0  0  0  0  0  0  0  0  0  0
    3.7204    1.3586    0.0000 Cl  0  0  0  0  0  0  0  0  0  0  0  0
   -1.3486    1.5484    0.0000 C   0  0  0  0  0  0  0  0  0  0  0  0
   -2.8086    1.2084    0.0000 N   0  0  0  0  0  0  0  0  0  0  0  0
   -3.4586   -0.1416    0.0000 C   0  0  0  0  0  0  0  0  0  0  0  0
   -4.6313    0.7936    0.0000 H   0  0  0  0  0  0  0  0  0  0  0  0
   -2.8086   -1.4916    0.0000 C   0  0  0  0  0  0  0  0  0  0  0  0
   -3.7464   -2.6623    0.0000 O   0  0  0  0  0  0  0  0  0  0  0  0
   -4.6313   -1.0768    0.0000 O   0  0  0  0  0  0  0  0  0  0  0  0
   -6.0276   -0.5288    0.0000 H   0  0  0  0  0  0  0  0  0  0  0  0
   -0.9087    3.4789    0.0000 C   0  0  0  0  0  0  0  0  0  0  0  0
   -2.0096    4.4990    0.0000 C   0  0  0  0  0  0  0  0  0  0  0  0
   -3.4428    4.0561    0.0000 H   0  0  0  0  0  0  0  0  0  0  0  0
   -1.6764    5.9615    0.0000 C   0  0  0  0  0  0  0  0  0  0  0  0
   -2.7762    6.9815    0.0000 H   0  0  0  0  0  0  0  0  0  0  0  0
   -0.2423    6.4040    0.0000 C   0  0  0  0  0  0  0  0  0  0  0  0
    0.0909    7.8665    0.0000 H   0  0  0  0  0  0  0  0  0  0  0  0
    0.8586    5.3839    0.0000 C   0  0  0  0  0  0  0  0  0  0  0  0
    2.2917    5.8268    0.0000 H   0  0  0  0  0  0  0  0  0  0  0  0
    0.5254    3.9214    0.0000 C   0  0  0  0  0  0  0  0  0  0  0  0
    1.9771    2.5750    0.0000 H   0  0  0  0  0  0  0  0  0  0  0  0
  1  2  1  0  0  0  0 
  1  3  1  0  0  0  0 
  1  4  2  0  0  0  0 
  4  5  1  0  0  0  0 
  5  6  2  0  0  0  0 
  6  7  1  0  0  0  0 
  7  8  1  0  0  0  0 
  7  9  2  0  0  0  0 
  9 10  1  0  0  0  0 
 10 11  1  0  0  0  0 
 10 12  2  0  0  0  0 
  5 12  1  0  0  0  0 
 12 13  1  0  0  0  0 
  9 14  1  0  0  0  0 
  6 15  1  0  0  0  0 
 15 16  2  0  0  0  0 
 16 17  1  0  0  0  0 
 17 18  1  0  0  0  0 
 17 19  1  0  0  0  0 
  4 19  1  0  0  0  0 
 19 20  2  0  0  0  0 
 17 21  1  0  0  0  0 
 21 22  1  0  0  0  0 
 15 23  1  0  0  0  0 
 23 24  2  0  0  0  0 
 24 25  1  0  0  0  0 
 24 26  1  0  0  0  0 
 26 27  1  0  0  0  0 
 26 28  2  0  0  0  0 
 28 29  1  0  0  0  0 
 28 30  1  0  0  0  0 
 30 31  1  0  0  0  0 
 30 32  2  0  0  0  0 
 23 32  1  0  0  0  0 
 32 33  1  0  0  0  0 
M  CHG  1   4   1
M  END
> <Rank>
17

> <Priority_score>
0.10960000000000002

> <Reaction_type>
dehydration of N-C bond

> <Parent_ID>
32

> <Parent_InChI>
InChI=1S/C16H13ClN2O2/c1-19-13-8-7-11(17)9-12(13)14(18-15(20)16(19)21)10-5-3-2-4-6-10/h2-9,15,20H,1H3

> <Parent_SMILES>
CN1C(=O)C(O)N=C(c2ccccc2)c2cc(Cl)ccc21

$$$$
Molecule 32_metabolite 18
  CDK     0516241031

 37 38  0  0  0  0  0  0  0  0999 V2000
    0.0012    1.4969    0.0000 C   0  0  0  0  0  0  0  0  0  0  0  0
    1.3001    0.7467    0.0000 H   0  0  0  0  0  0  0  0  0  0  0  0
   -1.4760    1.7576    0.0000 H   0  0  0  0  0  0  0  0  0  0  0  0
   -0.5121    0.0874    0.0000 H   0  0  0  0  0  0  0  0  0  0  0  0
    0.0014    2.9969    0.0000 N   0  0  0  0  0  0  0  0  0  0  0  0
   -1.2975    3.7471    0.0000 C   0  0  0  0  0  0  0  0  0  0  0  0
   -1.2975    5.2479    0.0000 C   0  0  0  0  0  0  0  0  0  0  0  0
    0.0018    5.9975    0.0000 H   0  0  0  0  0  0  0  0  0  0  0  0
   -2.5968    5.9992    0.0000 C   0  0  0  0  0  0  0  0  0  0  0  0
   -2.5960    7.4992    0.0000 H   0  0  0  0  0  0  0  0  0  0  0  0
   -3.8960    5.2496    0.0000 C   0  0  0  0  0  0  0  0  0  0  0  0
   -3.8960    3.7488    0.0000 C   0  0  0  0  0  0  0  0  0  0  0  0
   -5.1953    2.9992    0.0000 H   0  0  0  0  0  0  0  0  0  0  0  0
   -2.5968    2.9975    0.0000 C   0  0  0  0  0  0  0  0  0  0  0  0
   -2.5979    0.5375    0.0000 C   0  0  0  0  0  0  0  0  0  0  0  0
   -1.2993   -0.2131    0.0000 O   0  0  0  0  0  0  0  0  0  0  0  0
   -3.8973   -0.2119    0.0000 C   0  0  0  0  0  0  0  0  0  0  0  0
   -5.1965    0.5396    0.0000 C   0  0  0  0  0  0  0  0  0  0  0  0
   -4.9351    2.0166    0.0000 H   0  0  0  0  0  0  0  0  0  0  0  0
   -6.4959   -0.2098    0.0000 C   0  0  0  0  0  0  0  0  0  0  0  0
   -7.7947    0.5406    0.0000 H   0  0  0  0  0  0  0  0  0  0  0  0
   -6.4961   -1.7106    0.0000 C   0  0  0  0  0  0  0  0  0  0  0  0
   -7.7955   -2.4600    0.0000 H   0  0  0  0  0  0  0  0  0  0  0  0
   -5.1970   -2.4621    0.0000 C   0  0  0  0  0  0  0  0  0  0  0  0
   -5.1979   -3.9621    0.0000 H   0  0  0  0  0  0  0  0  0  0  0  0
   -3.8976   -1.7127    0.0000 C   0  0  0  0  0  0  0  0  0  0  0  0
   -2.5988   -2.4631    0.0000 H   0  0  0  0  0  0  0  0  0  0  0  0
   -5.1950    5.9998    0.0000 Cl  0  0  0  0  0  0  0  0  0  0  0  0
    1.3006    3.7467    0.0000 C   0  0  0  0  0  0  0  0  0  0  0  0
    1.3008    5.2467    0.0000 O   0  0  0  0  0  0  0  0  0  0  0  0
    2.5995    2.9965    0.0000 C   0  0  0  0  0  0  0  0  0  0  0  0
    1.6352    1.8475    0.0000 H   0  0  0  0  0  0  0  0  0  0  0  0
    3.8987    3.7463    0.0000 N   0  0  0  0  0  0  0  0  0  0  0  0
    5.1976    2.9960    0.0000 H   0  0  0  0  0  0  0  0  0  0  0  0
    3.8989    5.2463    0.0000 H   0  0  0  0  0  0  0  0  0  0  0  0
    3.5635    1.8472    0.0000 O   0  0  0  0  0  0  0  0  0  0  0  0
    5.0408    2.1075    0.0000 H   0  0  0  0  0  0  0  0  0  0  0  0
  1  2  1  0  0  0  0 
  1  3  1  0  0  0  0 
  1  4  1  0  0  0  0 
  1  5  1  0  0  0  0 
  5  6  1  0  0  0  0 
  6  7  2  0  0  0  0 
  7  8  1  0  0  0  0 
  7  9  1  0  0  0  0 
  9 10  1  0  0  0  0 
  9 11  2  0  0  0  0 
 11 12  1  0  0  0  0 
 12 13  1  0  0  0  0 
 12 14  2  0  0  0  0 
  6 14  1  0  0  0  0 
 14 15  1  0  0  0  0 
 15 16  2  0  0  0  0 
 15 17  1  0  0  0  0 
 17 18  2  0  0  0  0 
 18 19  1  0  0  0  0 
 18 20  1  0  0  0  0 
 20 21  1  0  0  0  0 
 20 22  2  0  0  0  0 
 22 23  1  0  0  0  0 
 22 24  1  0  0  0  0 
 24 25  1  0  0  0  0 
 24 26  2  0  0  0  0 
 17 26  1  0  0  0  0 
 26 27  1  0  0  0  0 
 11 28  1  0  0  0  0 
  5 29  1  0  0  0  0 
 29 30  2  0  0  0  0 
 29 31  1  0  0  0  0 
 31 32  1  0  0  0  0 
 31 33  1  0  0  0  0 
 33 34  1  0  0  0  0 
 33 35  1  0  0  0  0 
 31 36  1  0  0  0  0 
 36 37  1  0  0  0  0 
M  END
> <Rank>
18

> <Priority_score>
0.088

> <Reaction_type>
imine_hydrolysis

> <Parent_ID>
32

> <Parent_InChI>
InChI=1S/C16H13ClN2O2/c1-19-13-8-7-11(17)9-12(13)14(18-15(20)16(19)21)10-5-3-2-4-6-10/h2-9,15,20H,1H3

> <Parent_SMILES>
CN1C(=O)C(O)N=C(c2ccccc2)c2cc(Cl)ccc21

$$$$
Molecule 32_metabolite 19
  CDK     0516241031

 35 37  0  0  0  0  0  0  0  0999 V2000
   -2.4119   -4.3837    0.0000 C   0  0  0  0  0  0  0  0  0  0  0  0
   -3.5119   -5.4036    0.0000 H   0  0  0  0  0  0  0  0  0  0  0  0
   -1.5986   -5.6441    0.0000 H   0  0  0  0  0  0  0  0  0  0  0  0
   -1.0295   -3.8016    0.0000 H   0  0  0  0  0  0  0  0  0  0  0  0
   -2.7451   -2.9212    0.0000 N   0  0  0  0  0  0  0  0  0  0  0  0
   -1.5751   -1.9812    0.0000 C   0  0  0  0  0  0  0  0  0  0  0  0
   -0.2751   -2.7312    0.0000 C   0  0  0  0  0  0  0  0  0  0  0  0
   -0.2751   -4.2312    0.0000 H   0  0  0  0  0  0  0  0  0  0  0  0
    1.0249   -1.9812    0.0000 C   0  0  0  0  0  0  0  0  0  0  0  0
    2.3238   -2.7314    0.0000 H   0  0  0  0  0  0  0  0  0  0  0  0
    1.0249   -0.4812    0.0000 C   0  0  0  0  0  0  0  0  0  0  0  0
   -0.2751    0.2688    0.0000 C   0  0  0  0  0  0  0  0  0  0  0  0
   -1.5751   -0.4812    0.0000 C   0  0  0  0  0  0  0  0  0  0  0  0
   -2.7451    0.4588    0.0000 C   0  0  0  0  0  0  0  0  0  0  0  0
   -4.2051    0.1188    0.0000 N   0  0  0  0  0  0  0  0  0  0  0  0
   -4.8551   -1.2312    0.0000 C   0  0  0  0  0  0  0  0  0  0  0  0
   -6.0279   -0.2960    0.0000 H   0  0  0  0  0  0  0  0  0  0  0  0
   -4.2051   -2.5812    0.0000 C   0  0  0  0  0  0  0  0  0  0  0  0
   -5.1430   -3.7519    0.0000 O   0  0  0  0  0  0  0  0  0  0  0  0
   -6.0279   -2.1664    0.0000 O   0  0  0  0  0  0  0  0  0  0  0  0
   -7.4242   -1.6184    0.0000 H   0  0  0  0  0  0  0  0  0  0  0  0
   -2.5997    3.3952    0.0000 C   0  0  0  0  0  0  0  0  0  0  0  0
   -3.8611    4.2086    0.0000 C   0  0  0  0  0  0  0  0  0  0  0  0
   -5.1955    3.5235    0.0000 H   0  0  0  0  0  0  0  0  0  0  0  0
   -3.7869    5.7067    0.0000 C   0  0  0  0  0  0  0  0  0  0  0  0
   -5.0471    6.5203    0.0000 H   0  0  0  0  0  0  0  0  0  0  0  0
   -2.4514    6.3915    0.0000 C   0  0  0  0  0  0  0  0  0  0  0  0
   -2.3772    7.8897    0.0000 H   0  0  0  0  0  0  0  0  0  0  0  0
   -1.1900    5.5781    0.0000 C   0  0  0  0  0  0  0  0  0  0  0  0
    0.1444    6.2632    0.0000 H   0  0  0  0  0  0  0  0  0  0  0  0
   -1.2642    4.0800    0.0000 C   0  0  0  0  0  0  0  0  0  0  0  0
    0.8025    2.7458    0.0000 H   0  0  0  0  0  0  0  0  0  0  0  0
   -0.0147    1.7460    0.0000 O   0  0  0  0  0  0  0  0  0  0  0  0
    2.2970    2.5874    0.0000 H   0  0  0  0  0  0  0  0  0  0  0  0
    2.3238    0.2690    0.0000 Cl  0  0  0  0  0  0  0  0  0  0  0  0
  1  2  1  0  0  0  0 
  1  3  1  0  0  0  0 
  1  4  1  0  0  0  0 
  1  5  1  0  0  0  0 
  5  6  1  0  0  0  0 
  6  7  2  0  0  0  0 
  7  8  1  0  0  0  0 
  7  9  1  0  0  0  0 
  9 10  1  0  0  0  0 
  9 11  2  0  0  0  0 
 11 12  1  0  0  0  0 
 12 13  2  0  0  0  0 
  6 13  1  0  0  0  0 
 13 14  1  0  0  0  0 
 14 15  2  0  0  0  0 
 15 16  1  0  0  0  0 
 16 17  1  0  0  0  0 
 16 18  1  0  0  0  0 
  5 18  1  0  0  0  0 
 18 19  2  0  0  0  0 
 16 20  1  0  0  0  0 
 20 21  1  0  0  0  0 
 14 22  1  0  0  0  0 
 22 23  2  0  0  0  0 
 23 24  1  0  0  0  0 
 23 25  1  0  0  0  0 
 25 26  1  0  0  0  0 
 25 27  2  0  0  0  0 
 27 28  1  0  0  0  0 
 27 29  1  0  0  0  0 
 29 30  1  0  0  0  0 
 29 31  2  0  0  0  0 
 22 31  1  0  0  0  0 
 31 32  1  0  0  0  0 
 12 33  1  0  0  0  0 
 33 34  1  0  0  0  0 
 11 35  1  0  0  0  0 
M  END
> <Rank>
19

> <Priority_score>
0.032

> <Reaction_type>
aromatic hydroxylation

> <Parent_ID>
32

> <Parent_InChI>
InChI=1S/C16H13ClN2O2/c1-19-13-8-7-11(17)9-12(13)14(18-15(20)16(19)21)10-5-3-2-4-6-10/h2-9,15,20H,1H3

> <Parent_SMILES>
CN1C(=O)C(O)N=C(c2ccccc2)c2cc(Cl)ccc21

$$$$
Molecule 32_metabolite 20
  CDK     0516241031

 35 37  0  0  0  0  0  0  0  0999 V2000
   -1.0154   -3.2941    0.0000 C   0  0  0  0  0  0  0  0  0  0  0  0
   -2.1153   -4.3140    0.0000 H   0  0  0  0  0  0  0  0  0  0  0  0
   -0.2020   -4.5545    0.0000 H   0  0  0  0  0  0  0  0  0  0  0  0
    0.3671   -2.7120    0.0000 H   0  0  0  0  0  0  0  0  0  0  0  0
   -1.3486   -1.8316    0.0000 N   0  0  0  0  0  0  0  0  0  0  0  0
   -0.1786   -0.8916    0.0000 C   0  0  0  0  0  0  0  0  0  0  0  0
   -0.1786    0.6084    0.0000 C   0  0  0  0  0  0  0  0  0  0  0  0
    1.1214    1.3584    0.0000 C   0  0  0  0  0  0  0  0  0  0  0  0
    1.1214    2.8584    0.0000 H   0  0  0  0  0  0  0  0  0  0  0  0
    2.4214    0.6084    0.0000 C   0  0  0  0  0  0  0  0  0  0  0  0
    2.4214   -0.8916    0.0000 C   0  0  0  0  0  0  0  0  0  0  0  0
    3.7204   -1.6418    0.0000 H   0  0  0  0  0  0  0  0  0  0  0  0
    1.1214   -1.6416    0.0000 C   0  0  0  0  0  0  0  0  0  0  0  0
    1.1214   -3.1416    0.0000 H   0  0  0  0  0  0  0  0  0  0  0  0
    3.7204    1.3586    0.0000 Cl  0  0  0  0  0  0  0  0  0  0  0  0
   -1.3486    1.5484    0.0000 C   0  0  0  0  0  0  0  0  0  0  0  0
   -2.8086    1.2084    0.0000 N   0  0  0  0  0  0  0  0  0  0  0  0
   -3.4586   -0.1416    0.0000 C   0  0  0  0  0  0  0  0  0  0  0  0
   -4.6313    0.7936    0.0000 H   0  0  0  0  0  0  0  0  0  0  0  0
   -2.8086   -1.4916    0.0000 C   0  0  0  0  0  0  0  0  0  0  0  0
   -3.7464   -2.6623    0.0000 O   0  0  0  0  0  0  0  0  0  0  0  0
   -4.6313   -1.0768    0.0000 O   0  0  0  0  0  0  0  0  0  0  0  0
   -6.0276   -0.5288    0.0000 H   0  0  0  0  0  0  0  0  0  0  0  0
   -0.9087    3.4789    0.0000 C   0  0  0  0  0  0  0  0  0  0  0  0
   -2.0085    4.4989    0.0000 C   0  0  0  0  0  0  0  0  0  0  0  0
   -1.6744    5.9621    0.0000 C   0  0  0  0  0  0  0  0  0  0  0  0
   -2.7742    6.9821    0.0000 H   0  0  0  0  0  0  0  0  0  0  0  0
   -0.2405    6.4053    0.0000 C   0  0  0  0  0  0  0  0  0  0  0  0
    0.0927    7.8678    0.0000 H   0  0  0  0  0  0  0  0  0  0  0  0
    0.8593    5.3853    0.0000 C   0  0  0  0  0  0  0  0  0  0  0  0
    2.2926    5.8275    0.0000 H   0  0  0  0  0  0  0  0  0  0  0  0
    0.5252    3.9221    0.0000 C   0  0  0  0  0  0  0  0  0  0  0  0
    1.9769    2.5757    0.0000 H   0  0  0  0  0  0  0  0  0  0  0  0
   -3.4419    4.0567    0.0000 O   0  0  0  0  0  0  0  0  0  0  0  0
   -4.5415    5.0769    0.0000 H   0  0  0  0  0  0  0  0  0  0  0  0
  1  2  1  0  0  0  0 
  1  3  1  0  0  0  0 
  1  4  1  0  0  0  0 
  1  5  1  0  0  0  0 
  5  6  1  0  0  0  0 
  6  7  2  0  0  0  0 
  7  8  1  0  0  0  0 
  8  9  1  0  0  0  0 
  8 10  2  0  0  0  0 
 10 11  1  0  0  0  0 
 11 12  1  0  0  0  0 
 11 13  2  0  0  0  0 
  6 13  1  0  0  0  0 
 13 14  1  0  0  0  0 
 10 15  1  0  0  0  0 
  7 16  1  0  0  0  0 
 16 17  2  0  0  0  0 
 17 18  1  0  0  0  0 
 18 19  1  0  0  0  0 
 18 20  1  0  0  0  0 
  5 20  1  0  0  0  0 
 20 21  2  0  0  0  0 
 18 22  1  0  0  0  0 
 22 23  1  0  0  0  0 
 16 24  1  0  0  0  0 
 24 25  2  0  0  0  0 
 25 26  1  0  0  0  0 
 26 27  1  0  0  0  0 
 26 28  2  0  0  0  0 
 28 29  1  0  0  0  0 
 28 30  1  0  0  0  0 
 30 31  1  0  0  0  0 
 30 32  2  0  0  0  0 
 24 32  1  0  0  0  0 
 32 33  1  0  0  0  0 
 25 34  1  0  0  0  0 
 34 35  1  0  0  0  0 
M  END
> <Rank>
20

> <Priority_score>
0.019765871786930938

> <Reaction_type>
aromatic hydroxylation

> <Parent_ID>
32

> <Parent_InChI>
InChI=1S/C16H13ClN2O2/c1-19-13-8-7-11(17)9-12(13)14(18-15(20)16(19)21)10-5-3-2-4-6-10/h2-9,15,20H,1H3

> <Parent_SMILES>
CN1C(=O)C(O)N=C(c2ccccc2)c2cc(Cl)ccc21

$$$$
Molecule 32_metabolite 21
  CDK     0516241031

 35 37  0  0  0  0  0  0  0  0999 V2000
   -1.0154   -3.2941    0.0000 C   0  0  0  0  0  0  0  0  0  0  0  0
   -2.1153   -4.3140    0.0000 H   0  0  0  0  0  0  0  0  0  0  0  0
   -0.2020   -4.5545    0.0000 H   0  0  0  0  0  0  0  0  0  0  0  0
    0.3671   -2.7120    0.0000 H   0  0  0  0  0  0  0  0  0  0  0  0
   -1.3486   -1.8316    0.0000 N   0  0  0  0  0  0  0  0  0  0  0  0
   -0.1786   -0.8916    0.0000 C   0  0  0  0  0  0  0  0  0  0  0  0
   -0.1786    0.6084    0.0000 C   0  0  0  0  0  0  0  0  0  0  0  0
    1.1214    1.3584    0.0000 C   0  0  0  0  0  0  0  0  0  0  0  0
    1.1214    2.8584    0.0000 H   0  0  0  0  0  0  0  0  0  0  0  0
    2.4214    0.6084    0.0000 C   0  0  0  0  0  0  0  0  0  0  0  0
    2.4214   -0.8916    0.0000 C   0  0  0  0  0  0  0  0  0  0  0  0
    3.7204   -1.6418    0.0000 H   0  0  0  0  0  0  0  0  0  0  0  0
    1.1214   -1.6416    0.0000 C   0  0  0  0  0  0  0  0  0  0  0  0
    1.1214   -3.1416    0.0000 H   0  0  0  0  0  0  0  0  0  0  0  0
    3.7204    1.3586    0.0000 O   0  0  0  0  0  0  0  0  0  0  0  0
    5.0195    0.6088    0.0000 H   0  0  0  0  0  0  0  0  0  0  0  0
   -1.3486    1.5484    0.0000 C   0  0  0  0  0  0  0  0  0  0  0  0
   -2.8086    1.2084    0.0000 N   0  0  0  0  0  0  0  0  0  0  0  0
   -3.4586   -0.1416    0.0000 C   0  0  0  0  0  0  0  0  0  0  0  0
   -4.6313    0.7936    0.0000 H   0  0  0  0  0  0  0  0  0  0  0  0
   -2.8086   -1.4916    0.0000 C   0  0  0  0  0  0  0  0  0  0  0  0
   -3.7464   -2.6623    0.0000 O   0  0  0  0  0  0  0  0  0  0  0  0
   -4.6313   -1.0768    0.0000 O   0  0  0  0  0  0  0  0  0  0  0  0
   -6.0276   -0.5288    0.0000 H   0  0  0  0  0  0  0  0  0  0  0  0
   -0.9087    3.4789    0.0000 C   0  0  0  0  0  0  0  0  0  0  0  0
   -2.0096    4.4990    0.0000 C   0  0  0  0  0  0  0  0  0  0  0  0
   -3.4428    4.0561    0.0000 H   0  0  0  0  0  0  0  0  0  0  0  0
   -1.6764    5.9615    0.0000 C   0  0  0  0  0  0  0  0  0  0  0  0
   -2.7762    6.9815    0.0000 H   0  0  0  0  0  0  0  0  0  0  0  0
   -0.2423    6.4040    0.0000 C   0  0  0  0  0  0  0  0  0  0  0  0
    0.0909    7.8665    0.0000 H   0  0  0  0  0  0  0  0  0  0  0  0
    0.8586    5.3839    0.0000 C   0  0  0  0  0  0  0  0  0  0  0  0
    2.2917    5.8268    0.0000 H   0  0  0  0  0  0  0  0  0  0  0  0
    0.5254    3.9214    0.0000 C   0  0  0  0  0  0  0  0  0  0  0  0
    1.9771    2.5750    0.0000 H   0  0  0  0  0  0  0  0  0  0  0  0
  1  2  1  0  0  0  0 
  1  3  1  0  0  0  0 
  1  4  1  0  0  0  0 
  1  5  1  0  0  0  0 
  5  6  1  0  0  0  0 
  6  7  2  0  0  0  0 
  7  8  1  0  0  0  0 
  8  9  1  0  0  0  0 
  8 10  2  0  0  0  0 
 10 11  1  0  0  0  0 
 11 12  1  0  0  0  0 
 11 13  2  0  0  0  0 
  6 13  1  0  0  0  0 
 13 14  1  0  0  0  0 
 10 15  1  0  0  0  0 
 15 16  1  0  0  0  0 
  7 17  1  0  0  0  0 
 17 18  2  0  0  0  0 
 18 19  1  0  0  0  0 
 19 20  1  0  0  0  0 
 19 21  1  0  0  0  0 
  5 21  1  0  0  0  0 
 21 22  2  0  0  0  0 
 19 23  1  0  0  0  0 
 23 24  1  0  0  0  0 
 17 25  1  0  0  0  0 
 25 26  2  0  0  0  0 
 26 27  1  0  0  0  0 
 26 28  1  0  0  0  0 
 28 29  1  0  0  0  0 
 28 30  2  0  0  0  0 
 30 31  1  0  0  0  0 
 30 32  1  0  0  0  0 
 32 33  1  0  0  0  0 
 32 34  2  0  0  0  0 
 25 34  1  0  0  0  0 
 34 35  1  0  0  0  0 
M  END
> <Rank>
21

> <Priority_score>
0.008

> <Reaction_type>
aromatic_dechlorination

> <Parent_ID>
32

> <Parent_InChI>
InChI=1S/C16H13ClN2O2/c1-19-13-8-7-11(17)9-12(13)14(18-15(20)16(19)21)10-5-3-2-4-6-10/h2-9,15,20H,1H3

> <Parent_SMILES>
CN1C(=O)C(O)N=C(c2ccccc2)c2cc(Cl)ccc21

$$$$
Molecule 33
  CDK     0516241031

 25 28  0  0  0  0  0  0  0  0999 V2000
   -6.8372    7.9612    0.0000 C   0  0  0  0  0  0  0  0  0  0  0  0
   -5.5369    7.2134    0.0000 N   0  0  0  0  0  0  0  0  0  0  0  0
   -5.5342    5.7125    0.0000 C   0  0  0  0  0  0  0  0  0  0  0  0
   -4.2335    4.9637    0.0000 C   0  0  0  0  0  0  0  0  0  0  0  0
   -2.9356    5.7156    0.0000 N   0  0  0  0  0  0  0  0  0  0  0  0
   -1.6353    4.9678    0.0000 C   0  0  0  0  0  0  0  0  0  0  0  0
   -1.6328    3.4678    0.0000 C   0  0  0  0  0  0  0  0  0  0  0  0
   -0.3325    2.7200    0.0000 C   0  0  0  0  0  0  0  0  0  0  0  0
   -0.3300    1.2200    0.0000 N   0  0  0  0  0  0  0  0  0  0  0  0
   -1.6200    0.4700    0.0000 C   0  0  0  0  0  0  0  0  0  0  0  0
   -1.6200   -1.0300    0.0000 C   0  0  0  0  0  0  0  0  0  0  0  0
   -2.9200   -1.7800    0.0000 C   0  0  0  0  0  0  0  0  0  0  0  0
   -4.2200   -1.0300    0.0000 C   0  0  0  0  0  0  0  0  0  0  0  0
   -4.2200    0.4700    0.0000 C   0  0  0  0  0  0  0  0  0  0  0  0
   -2.9200    1.2200    0.0000 C   0  0  0  0  0  0  0  0  0  0  0  0
   -0.3300   -1.7800    0.0000 S   0  0  0  0  0  0  0  0  0  0  0  0
    0.9700   -1.0300    0.0000 C   0  0  0  0  0  0  0  0  0  0  0  0
    2.2700   -1.7800    0.0000 C   0  0  0  0  0  0  0  0  0  0  0  0
    3.5700   -1.0300    0.0000 C   0  0  0  0  0  0  0  0  0  0  0  0
    3.5700    0.4700    0.0000 C   0  0  0  0  0  0  0  0  0  0  0  0
    2.2700    1.2200    0.0000 C   0  0  0  0  0  0  0  0  0  0  0  0
    0.9700    0.4700    0.0000 C   0  0  0  0  0  0  0  0  0  0  0  0
    4.8689    1.2202    0.0000 Cl  0  0  0  0  0  0  0  0  0  0  0  0
   -2.9384    7.2165    0.0000 C   0  0  0  0  0  0  0  0  0  0  0  0
   -4.2390    7.9653    0.0000 C   0  0  0  0  0  0  0  0  0  0  0  0
  1  2  1  0  0  0  0 
  2  3  1  0  0  0  0 
  3  4  1  0  0  0  0 
  4  5  1  0  0  0  0 
  5  6  1  0  0  0  0 
  6  7  1  0  0  0  0 
  7  8  1  0  0  0  0 
  8  9  1  0  0  0  0 
  9 10  1  0  0  0  0 
 10 11  2  0  0  0  0 
 11 12  1  0  0  0  0 
 12 13  2  0  0  0  0 
 13 14  1  0  0  0  0 
 14 15  2  0  0  0  0 
 10 15  1  0  0  0  0 
 11 16  1  0  0  0  0 
 16 17  1  0  0  0  0 
 17 18  2  0  0  0  0 
 18 19  1  0  0  0  0 
 19 20  2  0  0  0  0 
 20 21  1  0  0  0  0 
 21 22  2  0  0  0  0 
 17 22  1  0  0  0  0 
  9 22  1  0  0  0  0 
 20 23  1  0  0  0  0 
  5 24  1  0  0  0  0 
 24 25  1  0  0  0  0 
  2 25  1  0  0  0  0 
M  END
> <SMILES>
CN1CCN(CCCN2c3ccccc3Sc3ccc(Cl)cc32)CC1

$$$$
Molecule 33_metabolite 1
  CDK     0516241031

 70 74  0  0  0  0  0  0  0  0999 V2000
   -7.6526    9.1619    0.0000 C   0  0  0  0  0  0  0  0  0  0  0  0
   -5.7668   11.4174    0.0000 H   0  0  0  0  0  0  0  0  0  0  0  0
  -10.1961    7.6873    0.0000 H   0  0  0  0  0  0  0  0  0  0  0  0
   -8.6189   10.3092    0.0000 H   0  0  0  0  0  0  0  0  0  0  0  0
   -7.1371    7.7532    0.0000 N   0  0  0  0  0  0  0  0  0  0  0  0
   -5.8388    8.5062    0.0000 C   0  0  0  0  0  0  0  0  0  0  0  0
   -4.8767    9.6570    0.0000 H   0  0  0  0  0  0  0  0  0  0  0  0
   -6.8052    9.6535    0.0000 H   0  0  0  0  0  0  0  0  0  0  0  0
   -4.5385    7.7584    0.0000 C   0  0  0  0  0  0  0  0  0  0  0  0
   -3.0609    7.5001    0.0000 H   0  0  0  0  0  0  0  0  0  0  0  0
   -4.0277    9.1688    0.0000 H   0  0  0  0  0  0  0  0  0  0  0  0
   -4.5365    6.2576    0.0000 N   0  0  0  0  0  0  0  0  0  0  0  0
   -3.2362    5.5098    0.0000 C   0  0  0  0  0  0  0  0  0  0  0  0
   -2.2701    4.3623    0.0000 H   0  0  0  0  0  0  0  0  0  0  0  0
   -4.1985    4.3591    0.0000 H   0  0  0  0  0  0  0  0  0  0  0  0
   -1.1079    6.7433    0.0000 C   0  0  0  0  0  0  0  0  0  0  0  0
   -2.0740    7.8908    0.0000 H   0  0  0  0  0  0  0  0  0  0  0  0
   -0.1456    7.8940    0.0000 H   0  0  0  0  0  0  0  0  0  0  0  0
    0.6085    5.7562    0.0000 C   0  0  0  0  0  0  0  0  0  0  0  0
    1.5746    4.6088    0.0000 H   0  0  0  0  0  0  0  0  0  0  0  0
   -0.3537    4.6055    0.0000 H   0  0  0  0  0  0  0  0  0  0  0  0
    3.1522    7.2305    0.0000 N   0  0  0  0  0  0  0  0  0  0  0  0
    3.1517    8.7226    0.0000 C   0  0  0  0  0  0  0  0  0  0  0  0
    4.4482    9.4770    0.0000 C   0  0  0  0  0  0  0  0  0  0  0  0
    4.4427   10.9778    0.0000 C   0  0  0  0  0  0  0  0  0  0  0  0
    5.7392   11.7322    0.0000 H   0  0  0  0  0  0  0  0  0  0  0  0
    3.1407   11.7243    0.0000 C   0  0  0  0  0  0  0  0  0  0  0  0
    3.1359   13.2243    0.0000 H   0  0  0  0  0  0  0  0  0  0  0  0
    1.8442   10.9699    0.0000 C   0  0  0  0  0  0  0  0  0  0  0  0
    0.5425   11.7154    0.0000 H   0  0  0  0  0  0  0  0  0  0  0  0
    1.8497    9.4691    0.0000 C   0  0  0  0  0  0  0  0  0  0  0  0
    0.5532    8.7148    0.0000 H   0  0  0  0  0  0  0  0  0  0  0  0
    5.7452    8.7392    0.0000 S   0  0  0  0  0  0  0  0  0  0  0  0
    5.7507    7.2383    0.0000 C   0  0  0  0  0  0  0  0  0  0  0  0
    7.0528    6.4919    0.0000 C   0  0  0  0  0  0  0  0  0  0  0  0
    8.3493    7.2462    0.0000 H   0  0  0  0  0  0  0  0  0  0  0  0
    7.0583    4.9910    0.0000 C   0  0  0  0  0  0  0  0  0  0  0  0
    8.3599    4.2456    0.0000 H   0  0  0  0  0  0  0  0  0  0  0  0
    5.7617    4.2367    0.0000 C   0  0  0  0  0  0  0  0  0  0  0  0
    4.4597    4.9832    0.0000 C   0  0  0  0  0  0  0  0  0  0  0  0
    3.1632    4.2288    0.0000 H   0  0  0  0  0  0  0  0  0  0  0  0
    4.4542    6.4840    0.0000 C   0  0  0  0  0  0  0  0  0  0  0  0
    5.7665    2.7367    0.0000 Cl  0  0  0  0  0  0  0  0  0  0  0  0
   -5.8348    5.5046    0.0000 C   0  0  0  0  0  0  0  0  0  0  0  0
   -6.7969    4.3538    0.0000 H   0  0  0  0  0  0  0  0  0  0  0  0
   -3.9407    3.2560    0.0000 H   0  0  0  0  0  0  0  0  0  0  0  0
   -7.1351    6.2524    0.0000 C   0  0  0  0  0  0  0  0  0  0  0  0
   -8.6126    6.5107    0.0000 H   0  0  0  0  0  0  0  0  0  0  0  0
   -7.6459    4.8421    0.0000 H   0  0  0  0  0  0  0  0  0  0  0  0
   -9.5590    7.3223    0.0000 C   0  0  0  0  0  0  0  0  0  0  0  0
   -8.5495    4.5610    0.0000 H   0  0  0  0  0  0  0  0  0  0  0  0
  -10.8571    6.5705    0.0000 C   0  0  0  0  0  0  0  0  0  0  0  0
   -9.8914    5.4226    0.0000 H   0  0  0  0  0  0  0  0  0  0  0  0
  -12.1576    7.3196    0.0000 C   0  0  0  0  0  0  0  0  0  0  0  0
  -12.6689    5.9094    0.0000 H   0  0  0  0  0  0  0  0  0  0  0  0
  -12.1601    8.8204    0.0000 C   0  0  0  0  0  0  0  0  0  0  0  0
  -13.6369    8.5576    0.0000 H   0  0  0  0  0  0  0  0  0  0  0  0
  -10.8621    9.5722    0.0000 C   0  0  0  0  0  0  0  0  0  0  0  0
  -11.8277   10.7200    0.0000 H   0  0  0  0  0  0  0  0  0  0  0  0
   -9.2830   11.4584    0.0000 C   0  0  0  0  0  0  0  0  0  0  0  0
   -7.8055   11.1997    0.0000 O   0  0  0  0  0  0  0  0  0  0  0  0
   -9.7976   12.8674    0.0000 O   0  0  0  0  0  0  0  0  0  0  0  0
  -11.2751   13.1262    0.0000 H   0  0  0  0  0  0  0  0  0  0  0  0
   -9.5616    8.8231    0.0000 O   0  0  0  0  0  0  0  0  0  0  0  0
  -12.6752   10.2292    0.0000 O   0  0  0  0  0  0  0  0  0  0  0  0
  -14.1528   10.4875    0.0000 H   0  0  0  0  0  0  0  0  0  0  0  0
  -13.6352    7.5779    0.0000 O   0  0  0  0  0  0  0  0  0  0  0  0
  -14.5977    6.4274    0.0000 H   0  0  0  0  0  0  0  0  0  0  0  0
  -11.8199    5.4203    0.0000 O   0  0  0  0  0  0  0  0  0  0  0  0
  -11.3053    4.0114    0.0000 H   0  0  0  0  0  0  0  0  0  0  0  0
  1  2  1  0  0  0  0 
  1  3  1  0  0  0  0 
  1  4  1  0  0  0  0 
  1  5  1  0  0  0  0 
  5  6  1  0  0  0  0 
  6  7  1  0  0  0  0 
  6  8  1  0  0  0  0 
  6  9  1  0  0  0  0 
  9 10  1  0  0  0  0 
  9 11  1  0  0  0  0 
  9 12  1  0  0  0  0 
 12 13  1  0  0  0  0 
 13 14  1  0  0  0  0 
 13 15  1  0  0  0  0 
 13 16  1  0  0  0  0 
 16 17  1  0  0  0  0 
 16 18  1  0  0  0  0 
 16 19  1  0  0  0  0 
 19 20  1  0  0  0  0 
 19 21  1  0  0  0  0 
 19 22  1  0  0  0  0 
 22 23  1  0  0  0  0 
 23 24  2  0  0  0  0 
 24 25  1  0  0  0  0 
 25 26  1  0  0  0  0 
 25 27  2  0  0  0  0 
 27 28  1  0  0  0  0 
 27 29  1  0  0  0  0 
 29 30  1  0  0  0  0 
 29 31  2  0  0  0  0 
 23 31  1  0  0  0  0 
 31 32  1  0  0  0  0 
 24 33  1  0  0  0  0 
 33 34  1  0  0  0  0 
 34 35  2  0  0  0  0 
 35 36  1  0  0  0  0 
 35 37  1  0  0  0  0 
 37 38  1  0  0  0  0 
 37 39  2  0  0  0  0 
 39 40  1  0  0  0  0 
 40 41  1  0  0  0  0 
 40 42  2  0  0  0  0 
 34 42  1  0  0  0  0 
 22 42  1  0  0  0  0 
 39 43  1  0  0  0  0 
 12 44  1  0  0  0  0 
 44 45  1  0  0  0  0 
 44 46  1  0  0  0  0 
 44 47  1  0  0  0  0 
  5 47  1  0  0  0  0 
 47 48  1  0  0  0  0 
 47 49  1  0  0  0  0 
  5 50  1  0  0  0  0 
 50 51  1  0  0  0  0 
 50 52  1  0  0  0  0 
 52 53  1  0  0  0  0 
 52 54  1  0  0  0  0 
 54 55  1  0  0  0  0 
 54 56  1  0  0  0  0 
 56 57  1  0  0  0  0 
 56 58  1  0  0  0  0 
 58 59  1  0  0  0  0 
 58 60  1  0  0  0  0 
 60 61  2  0  0  0  0 
 60 62  1  0  0  0  0 
 62 63  1  0  0  0  0 
 58 64  1  0  0  0  0 
 50 64  1  0  0  0  0 
 56 65  1  0  0  0  0 
 65 66  1  0  0  0  0 
 54 67  1  0  0  0  0 
 67 68  1  0  0  0  0 
 52 69  1  0  0  0  0 
 69 70  1  0  0  0  0 
M  CHG  1   5   1
M  END
> <Rank>
1

> <Priority_score>
0.724

> <Reaction_type>
N-glucuronidation_(NCH3_in_a_ring)

> <Parent_ID>
33

> <Parent_InChI>
InChI=1S/C20H24ClN3S/c1-22-11-13-23(14-12-22)9-4-10-24-17-5-2-3-6-19(17)25-20-8-7-16(21)15-18(20)24/h2-3,5-8,15H,4,9-14H2,1H3

> <Parent_SMILES>
CN1CCN(CCCN2c3ccccc3Sc3ccc(Cl)cc32)CC1

$$$$
Molecule 33_metabolite 2
  CDK     0516241031

 50 53  0  0  0  0  0  0  0  0999 V2000
   -2.9725    0.2321    0.0000 C   0  0  0  0  0  0  0  0  0  0  0  0
   -4.2714    0.9823    0.0000 H   0  0  0  0  0  0  0  0  0  0  0  0
   -1.6725    0.9821    0.0000 C   0  0  0  0  0  0  0  0  0  0  0  0
   -1.9330    2.4593    0.0000 H   0  0  0  0  0  0  0  0  0  0  0  0
   -0.3725    0.2321    0.0000 C   0  0  0  0  0  0  0  0  0  0  0  0
   -0.3725   -1.2679    0.0000 C   0  0  0  0  0  0  0  0  0  0  0  0
   -1.6725   -2.0179    0.0000 C   0  0  0  0  0  0  0  0  0  0  0  0
   -1.6725   -3.5179    0.0000 H   0  0  0  0  0  0  0  0  0  0  0  0
   -2.9725   -1.2679    0.0000 C   0  0  0  0  0  0  0  0  0  0  0  0
   -4.2714   -2.0181    0.0000 H   0  0  0  0  0  0  0  0  0  0  0  0
    0.9175   -2.0179    0.0000 S   0  0  0  0  0  0  0  0  0  0  0  0
    2.2175   -1.2679    0.0000 C   0  0  0  0  0  0  0  0  0  0  0  0
    3.5175   -2.0179    0.0000 C   0  0  0  0  0  0  0  0  0  0  0  0
    3.5175   -3.5179    0.0000 H   0  0  0  0  0  0  0  0  0  0  0  0
    4.8175   -1.2679    0.0000 C   0  0  0  0  0  0  0  0  0  0  0  0
    6.1164   -2.0181    0.0000 H   0  0  0  0  0  0  0  0  0  0  0  0
    4.8175    0.2321    0.0000 C   0  0  0  0  0  0  0  0  0  0  0  0
    3.5175    0.9821    0.0000 C   0  0  0  0  0  0  0  0  0  0  0  0
    3.5175    2.4821    0.0000 H   0  0  0  0  0  0  0  0  0  0  0  0
    2.2175    0.2321    0.0000 C   0  0  0  0  0  0  0  0  0  0  0  0
    0.9175    0.9821    0.0000 N   0  0  0  0  0  0  0  0  0  0  0  0
    0.9134    3.4421    0.0000 C   0  0  0  0  0  0  0  0  0  0  0  0
    2.3910    3.1841    0.0000 H   0  0  0  0  0  0  0  0  0  0  0  0
    1.4240    4.8525    0.0000 H   0  0  0  0  0  0  0  0  0  0  0  0
   -0.8030    4.4292    0.0000 C   0  0  0  0  0  0  0  0  0  0  0  0
   -2.2807    4.6872    0.0000 H   0  0  0  0  0  0  0  0  0  0  0  0
   -1.3137    3.0188    0.0000 H   0  0  0  0  0  0  0  0  0  0  0  0
   -0.8063    6.4092    0.0000 C   0  0  0  0  0  0  0  0  0  0  0  0
    0.6713    6.1512    0.0000 H   0  0  0  0  0  0  0  0  0  0  0  0
    0.1559    7.5599    0.0000 H   0  0  0  0  0  0  0  0  0  0  0  0
   -2.5227    7.3963    0.0000 N   0  0  0  0  0  0  0  0  0  0  0  0
   -2.5255    8.8972    0.0000 C   0  0  0  0  0  0  0  0  0  0  0  0
   -1.0479    8.6391    0.0000 H   0  0  0  0  0  0  0  0  0  0  0  0
   -2.0144   10.3074    0.0000 H   0  0  0  0  0  0  0  0  0  0  0  0
   -3.8261    9.6460    0.0000 C   0  0  0  0  0  0  0  0  0  0  0  0
   -2.8635   10.7964    0.0000 H   0  0  0  0  0  0  0  0  0  0  0  0
   -4.7919   10.7937    0.0000 H   0  0  0  0  0  0  0  0  0  0  0  0
   -5.1240    8.8941    0.0000 N   0  0  0  0  0  0  0  0  0  0  0  0
   -5.1213    7.3932    0.0000 C   0  0  0  0  0  0  0  0  0  0  0  0
   -6.5989    7.6513    0.0000 H   0  0  0  0  0  0  0  0  0  0  0  0
   -5.6323    5.9830    0.0000 H   0  0  0  0  0  0  0  0  0  0  0  0
   -3.8206    6.6444    0.0000 C   0  0  0  0  0  0  0  0  0  0  0  0
   -4.7833    5.4941    0.0000 H   0  0  0  0  0  0  0  0  0  0  0  0
   -2.8548    5.4967    0.0000 H   0  0  0  0  0  0  0  0  0  0  0  0
   -6.8404    9.8812    0.0000 C   0  0  0  0  0  0  0  0  0  0  0  0
   -8.3181   10.1392    0.0000 H   0  0  0  0  0  0  0  0  0  0  0  0
   -7.3511    8.4708    0.0000 H   0  0  0  0  0  0  0  0  0  0  0  0
   -6.8429   11.3812    0.0000 O   0  0  0  0  0  0  0  0  0  0  0  0
   -8.1432   12.1290    0.0000 H   0  0  0  0  0  0  0  0  0  0  0  0
    6.1164    0.9823    0.0000 Cl  0  0  0  0  0  0  0  0  0  0  0  0
  1  2  1  0  0  0  0 
  1  3  2  0  0  0  0 
  3  4  1  0  0  0  0 
  3  5  1  0  0  0  0 
  5  6  2  0  0  0  0 
  6  7  1  0  0  0  0 
  7  8  1  0  0  0  0 
  7  9  2  0  0  0  0 
  1  9  1  0  0  0  0 
  9 10  1  0  0  0  0 
  6 11  1  0  0  0  0 
 11 12  1  0  0  0  0 
 12 13  2  0  0  0  0 
 13 14  1  0  0  0  0 
 13 15  1  0  0  0  0 
 15 16  1  0  0  0  0 
 15 17  2  0  0  0  0 
 17 18  1  0  0  0  0 
 18 19  1  0  0  0  0 
 18 20  2  0  0  0  0 
 12 20  1  0  0  0  0 
 20 21  1  0  0  0  0 
  5 21  1  0  0  0  0 
 21 22  1  0  0  0  0 
 22 23  1  0  0  0  0 
 22 24  1  0  0  0  0 
 22 25  1  0  0  0  0 
 25 26  1  0  0  0  0 
 25 27  1  0  0  0  0 
 25 28  1  0  0  0  0 
 28 29  1  0  0  0  0 
 28 30  1  0  0  0  0 
 28 31  1  0  0  0  0 
 31 32  1  0  0  0  0 
 32 33  1  0  0  0  0 
 32 34  1  0  0  0  0 
 32 35  1  0  0  0  0 
 35 36  1  0  0  0  0 
 35 37  1  0  0  0  0 
 35 38  1  0  0  0  0 
 38 39  1  0  0  0  0 
 39 40  1  0  0  0  0 
 39 41  1  0  0  0  0 
 39 42  1  0  0  0  0 
 31 42  1  0  0  0  0 
 42 43  1  0  0  0  0 
 42 44  1  0  0  0  0 
 38 45  1  0  0  0  0 
 45 46  1  0  0  0  0 
 45 47  1  0  0  0  0 
 45 48  1  0  0  0  0 
 48 49  1  0  0  0  0 
 17 50  1  0  0  0  0 
M  END
> <Rank>
2

> <Priority_score>
0.56

> <Reaction_type>
aliphatic hydroxylation

> <Parent_ID>
33

> <Parent_InChI>
InChI=1S/C20H24ClN3S/c1-22-11-13-23(14-12-22)9-4-10-24-17-5-2-3-6-19(17)25-20-8-7-16(21)15-18(20)24/h2-3,5-8,15H,4,9-14H2,1H3

> <Parent_SMILES>
CN1CCN(CCCN2c3ccccc3Sc3ccc(Cl)cc32)CC1

$$$$
Molecule 33_metabolite 3
  CDK     0516241031

 46 49  0  0  0  0  0  0  0  0999 V2000
   -3.3886    0.4714    0.0000 C   0  0  0  0  0  0  0  0  0  0  0  0
   -4.6875    1.2216    0.0000 H   0  0  0  0  0  0  0  0  0  0  0  0
   -2.0886    1.2214    0.0000 C   0  0  0  0  0  0  0  0  0  0  0  0
   -2.3491    2.6986    0.0000 H   0  0  0  0  0  0  0  0  0  0  0  0
   -0.7886    0.4714    0.0000 C   0  0  0  0  0  0  0  0  0  0  0  0
   -0.7886   -1.0286    0.0000 C   0  0  0  0  0  0  0  0  0  0  0  0
   -2.0886   -1.7786    0.0000 C   0  0  0  0  0  0  0  0  0  0  0  0
   -2.0886   -3.2786    0.0000 H   0  0  0  0  0  0  0  0  0  0  0  0
   -3.3886   -1.0286    0.0000 C   0  0  0  0  0  0  0  0  0  0  0  0
   -4.6875   -1.7788    0.0000 H   0  0  0  0  0  0  0  0  0  0  0  0
    0.5014   -1.7786    0.0000 S   0  0  0  0  0  0  0  0  0  0  0  0
    1.8014   -1.0286    0.0000 C   0  0  0  0  0  0  0  0  0  0  0  0
    3.1014   -1.7786    0.0000 C   0  0  0  0  0  0  0  0  0  0  0  0
    3.1014   -3.2786    0.0000 H   0  0  0  0  0  0  0  0  0  0  0  0
    4.4014   -1.0286    0.0000 C   0  0  0  0  0  0  0  0  0  0  0  0
    5.7003   -1.7788    0.0000 H   0  0  0  0  0  0  0  0  0  0  0  0
    4.4014    0.4714    0.0000 C   0  0  0  0  0  0  0  0  0  0  0  0
    3.1014    1.2214    0.0000 C   0  0  0  0  0  0  0  0  0  0  0  0
    3.1014    2.7214    0.0000 H   0  0  0  0  0  0  0  0  0  0  0  0
    1.8014    0.4714    0.0000 C   0  0  0  0  0  0  0  0  0  0  0  0
    0.5014    1.2214    0.0000 N   0  0  0  0  0  0  0  0  0  0  0  0
    0.4973    3.6814    0.0000 C   0  0  0  0  0  0  0  0  0  0  0  0
    1.9749    3.4234    0.0000 H   0  0  0  0  0  0  0  0  0  0  0  0
    1.0079    5.0918    0.0000 H   0  0  0  0  0  0  0  0  0  0  0  0
   -1.2191    4.6685    0.0000 C   0  0  0  0  0  0  0  0  0  0  0  0
   -2.6968    4.9265    0.0000 H   0  0  0  0  0  0  0  0  0  0  0  0
   -1.7298    3.2581    0.0000 H   0  0  0  0  0  0  0  0  0  0  0  0
   -1.2224    6.6485    0.0000 C   0  0  0  0  0  0  0  0  0  0  0  0
    0.2552    6.3905    0.0000 H   0  0  0  0  0  0  0  0  0  0  0  0
   -0.2602    7.7992    0.0000 H   0  0  0  0  0  0  0  0  0  0  0  0
   -2.9388    7.6356    0.0000 N   0  0  0  0  0  0  0  0  0  0  0  0
   -4.2371    6.8826    0.0000 C   0  0  0  0  0  0  0  0  0  0  0  0
   -5.1992    5.7319    0.0000 H   0  0  0  0  0  0  0  0  0  0  0  0
   -3.2707    5.7354    0.0000 H   0  0  0  0  0  0  0  0  0  0  0  0
   -5.5374    7.6305    0.0000 C   0  0  0  0  0  0  0  0  0  0  0  0
   -7.0150    7.8888    0.0000 H   0  0  0  0  0  0  0  0  0  0  0  0
   -6.0482    6.2201    0.0000 H   0  0  0  0  0  0  0  0  0  0  0  0
   -5.5394    9.1313    0.0000 N   0  0  0  0  0  0  0  0  0  0  0  0
   -6.8397    9.8791    0.0000 H   0  0  0  0  0  0  0  0  0  0  0  0
   -4.2411    9.8843    0.0000 C   0  0  0  0  0  0  0  0  0  0  0  0
   -3.2790   11.0351    0.0000 H   0  0  0  0  0  0  0  0  0  0  0  0
   -5.2075   11.0315    0.0000 H   0  0  0  0  0  0  0  0  0  0  0  0
   -2.9409    9.1365    0.0000 C   0  0  0  0  0  0  0  0  0  0  0  0
   -1.4633    8.8782    0.0000 H   0  0  0  0  0  0  0  0  0  0  0  0
   -2.4300   10.5468    0.0000 H   0  0  0  0  0  0  0  0  0  0  0  0
    5.7003    1.2216    0.0000 Cl  0  0  0  0  0  0  0  0  0  0  0  0
  1  2  1  0  0  0  0 
  1  3  2  0  0  0  0 
  3  4  1  0  0  0  0 
  3  5  1  0  0  0  0 
  5  6  2  0  0  0  0 
  6  7  1  0  0  0  0 
  7  8  1  0  0  0  0 
  7  9  2  0  0  0  0 
  1  9  1  0  0  0  0 
  9 10  1  0  0  0  0 
  6 11  1  0  0  0  0 
 11 12  1  0  0  0  0 
 12 13  2  0  0  0  0 
 13 14  1  0  0  0  0 
 13 15  1  0  0  0  0 
 15 16  1  0  0  0  0 
 15 17  2  0  0  0  0 
 17 18  1  0  0  0  0 
 18 19  1  0  0  0  0 
 18 20  2  0  0  0  0 
 12 20  1  0  0  0  0 
 20 21  1  0  0  0  0 
  5 21  1  0  0  0  0 
 21 22  1  0  0  0  0 
 22 23  1  0  0  0  0 
 22 24  1  0  0  0  0 
 22 25  1  0  0  0  0 
 25 26  1  0  0  0  0 
 25 27  1  0  0  0  0 
 25 28  1  0  0  0  0 
 28 29  1  0  0  0  0 
 28 30  1  0  0  0  0 
 28 31  1  0  0  0  0 
 31 32  1  0  0  0  0 
 32 33  1  0  0  0  0 
 32 34  1  0  0  0  0 
 32 35  1  0  0  0  0 
 35 36  1  0  0  0  0 
 35 37  1  0  0  0  0 
 35 38  1  0  0  0  0 
 38 39  1  0  0  0  0 
 38 40  1  0  0  0  0 
 40 41  1  0  0  0  0 
 40 42  1  0  0  0  0 
 40 43  1  0  0  0  0 
 31 43  1  0  0  0  0 
 43 44  1  0  0  0  0 
 43 45  1  0  0  0  0 
 17 46  1  0  0  0  0 
M  END
> <Rank>
2

> <Priority_score>
0.56

> <Reaction_type>
N-demethylation_(R-N(CR)CH3)

> <Parent_ID>
33

> <Parent_InChI>
InChI=1S/C20H24ClN3S/c1-22-11-13-23(14-12-22)9-4-10-24-17-5-2-3-6-19(17)25-20-8-7-16(21)15-18(20)24/h2-3,5-8,15H,4,9-14H2,1H3

> <Parent_SMILES>
CN1CCN(CCCN2c3ccccc3Sc3ccc(Cl)cc32)CC1

$$$$
Molecule 33_metabolite 4
  CDK     0516241031

 45 47  0  0  0  0  0  0  0  0999 V2000
   -5.5412   10.2113    0.0000 C   0  0  0  0  0  0  0  0  0  0  0  0
   -6.8390    9.4591    0.0000 H   0  0  0  0  0  0  0  0  0  0  0  0
   -6.5073   11.3587    0.0000 H   0  0  0  0  0  0  0  0  0  0  0  0
   -4.5790   11.3620    0.0000 H   0  0  0  0  0  0  0  0  0  0  0  0
   -4.2409    9.4635    0.0000 N   0  0  0  0  0  0  0  0  0  0  0  0
   -2.9431   10.2156    0.0000 H   0  0  0  0  0  0  0  0  0  0  0  0
   -4.2384    7.9635    0.0000 C   0  0  0  0  0  0  0  0  0  0  0  0
   -5.7161    8.2215    0.0000 H   0  0  0  0  0  0  0  0  0  0  0  0
   -4.7491    6.5531    0.0000 H   0  0  0  0  0  0  0  0  0  0  0  0
   -2.9381    7.2156    0.0000 C   0  0  0  0  0  0  0  0  0  0  0  0
   -1.4605    6.9576    0.0000 H   0  0  0  0  0  0  0  0  0  0  0  0
   -2.4275    8.6260    0.0000 H   0  0  0  0  0  0  0  0  0  0  0  0
   -2.9356    5.7156    0.0000 N   0  0  0  0  0  0  0  0  0  0  0  0
   -4.2334    4.9635    0.0000 H   0  0  0  0  0  0  0  0  0  0  0  0
   -1.2192    4.7285    0.0000 C   0  0  0  0  0  0  0  0  0  0  0  0
    0.2584    4.4705    0.0000 H   0  0  0  0  0  0  0  0  0  0  0  0
   -0.7086    6.1389    0.0000 H   0  0  0  0  0  0  0  0  0  0  0  0
   -1.2159    2.7485    0.0000 C   0  0  0  0  0  0  0  0  0  0  0  0
   -2.6936    3.0065    0.0000 H   0  0  0  0  0  0  0  0  0  0  0  0
   -1.7266    1.3381    0.0000 H   0  0  0  0  0  0  0  0  0  0  0  0
    0.0844    2.0007    0.0000 C   0  0  0  0  0  0  0  0  0  0  0  0
    1.5620    1.7427    0.0000 H   0  0  0  0  0  0  0  0  0  0  0  0
    0.5951    3.4111    0.0000 H   0  0  0  0  0  0  0  0  0  0  0  0
    0.0869    0.5007    0.0000 N   0  0  0  0  0  0  0  0  0  0  0  0
   -1.2031   -0.2493    0.0000 C   0  0  0  0  0  0  0  0  0  0  0  0
   -1.2031   -1.7493    0.0000 C   0  0  0  0  0  0  0  0  0  0  0  0
   -2.5031   -2.4993    0.0000 C   0  0  0  0  0  0  0  0  0  0  0  0
   -2.5031   -3.9993    0.0000 H   0  0  0  0  0  0  0  0  0  0  0  0
   -3.8031   -1.7493    0.0000 C   0  0  0  0  0  0  0  0  0  0  0  0
   -5.1020   -2.4995    0.0000 H   0  0  0  0  0  0  0  0  0  0  0  0
   -3.8031   -0.2493    0.0000 C   0  0  0  0  0  0  0  0  0  0  0  0
   -5.1020    0.5009    0.0000 H   0  0  0  0  0  0  0  0  0  0  0  0
   -2.5031    0.5007    0.0000 C   0  0  0  0  0  0  0  0  0  0  0  0
   -2.5031    2.0007    0.0000 H   0  0  0  0  0  0  0  0  0  0  0  0
    0.0869   -2.4993    0.0000 S   0  0  0  0  0  0  0  0  0  0  0  0
    1.3869   -1.7493    0.0000 C   0  0  0  0  0  0  0  0  0  0  0  0
    2.6869   -2.4993    0.0000 C   0  0  0  0  0  0  0  0  0  0  0  0
    2.6869   -3.9993    0.0000 H   0  0  0  0  0  0  0  0  0  0  0  0
    3.9869   -1.7493    0.0000 C   0  0  0  0  0  0  0  0  0  0  0  0
    5.2858   -2.4995    0.0000 H   0  0  0  0  0  0  0  0  0  0  0  0
    3.9869   -0.2493    0.0000 C   0  0  0  0  0  0  0  0  0  0  0  0
    2.6869    0.5007    0.0000 C   0  0  0  0  0  0  0  0  0  0  0  0
    2.6869    2.0007    0.0000 H   0  0  0  0  0  0  0  0  0  0  0  0
    1.3869   -0.2493    0.0000 C   0  0  0  0  0  0  0  0  0  0  0  0
    5.2858    0.5009    0.0000 Cl  0  0  0  0  0  0  0  0  0  0  0  0
  1  2  1  0  0  0  0 
  1  3  1  0  0  0  0 
  1  4  1  0  0  0  0 
  1  5  1  0  0  0  0 
  5  6  1  0  0  0  0 
  5  7  1  0  0  0  0 
  7  8  1  0  0  0  0 
  7  9  1  0  0  0  0 
  7 10  1  0  0  0  0 
 10 11  1  0  0  0  0 
 10 12  1  0  0  0  0 
 10 13  1  0  0  0  0 
 13 14  1  0  0  0  0 
 13 15  1  0  0  0  0 
 15 16  1  0  0  0  0 
 15 17  1  0  0  0  0 
 15 18  1  0  0  0  0 
 18 19  1  0  0  0  0 
 18 20  1  0  0  0  0 
 18 21  1  0  0  0  0 
 21 22  1  0  0  0  0 
 21 23  1  0  0  0  0 
 21 24  1  0  0  0  0 
 24 25  1  0  0  0  0 
 25 26  2  0  0  0  0 
 26 27  1  0  0  0  0 
 27 28  1  0  0  0  0 
 27 29  2  0  0  0  0 
 29 30  1  0  0  0  0 
 29 31  1  0  0  0  0 
 31 32  1  0  0  0  0 
 31 33  2  0  0  0  0 
 25 33  1  0  0  0  0 
 33 34  1  0  0  0  0 
 26 35  1  0  0  0  0 
 35 36  1  0  0  0  0 
 36 37  2  0  0  0  0 
 37 38  1  0  0  0  0 
 37 39  1  0  0  0  0 
 39 40  1  0  0  0  0 
 39 41  2  0  0  0  0 
 41 42  1  0  0  0  0 
 42 43  1  0  0  0  0 
 42 44  2  0  0  0  0 
 36 44  1  0  0  0  0 
 24 44  1  0  0  0  0 
 41 45  1  0  0  0  0 
M  END
> <Rank>
2

> <Priority_score>
0.56

> <Reaction_type>
N-dealkylation of piperazine

> <Parent_ID>
33

> <Parent_InChI>
InChI=1S/C20H24ClN3S/c1-22-11-13-23(14-12-22)9-4-10-24-17-5-2-3-6-19(17)25-20-8-7-16(21)15-18(20)24/h2-3,5-8,15H,4,9-14H2,1H3

> <Parent_SMILES>
CN1CCN(CCCN2c3ccccc3Sc3ccc(Cl)cc32)CC1

$$$$
Molecule 33_metabolite 5
  CDK     0516241031

 50 53  0  0  0  0  0  0  0  0999 V2000
    2.3528    8.8740    0.0000 C   0  0  0  0  0  0  0  0  0  0  0  0
    1.3868   10.0215    0.0000 H   0  0  0  0  0  0  0  0  0  0  0  0
    3.6530    8.1260    0.0000 H   0  0  0  0  0  0  0  0  0  0  0  0
    3.3151   10.0246    0.0000 H   0  0  0  0  0  0  0  0  0  0  0  0
    1.5150    6.5610    0.0000 N   0  0  0  0  0  0  0  0  0  0  0  0
    0.2142    7.3097    0.0000 C   0  0  0  0  0  0  0  0  0  0  0  0
   -0.7517    8.4572    0.0000 H   0  0  0  0  0  0  0  0  0  0  0  0
    1.1767    8.4602    0.0000 H   0  0  0  0  0  0  0  0  0  0  0  0
   -1.0835    6.5575    0.0000 C   0  0  0  0  0  0  0  0  0  0  0  0
   -2.5612    6.8152    0.0000 H   0  0  0  0  0  0  0  0  0  0  0  0
   -1.5991    7.9661    0.0000 H   0  0  0  0  0  0  0  0  0  0  0  0
   -1.0806    5.0567    0.0000 N   0  0  0  0  0  0  0  0  0  0  0  0
   -2.3783    4.3045    0.0000 C   0  0  0  0  0  0  0  0  0  0  0  0
   -3.8551    4.0416    0.0000 H   0  0  0  0  0  0  0  0  0  0  0  0
   -2.8937    5.7132    0.0000 H   0  0  0  0  0  0  0  0  0  0  0  0
   -2.3758    2.8045    0.0000 C   0  0  0  0  0  0  0  0  0  0  0  0
   -3.8535    3.0625    0.0000 H   0  0  0  0  0  0  0  0  0  0  0  0
   -2.8865    1.3941    0.0000 H   0  0  0  0  0  0  0  0  0  0  0  0
   -0.8569    1.5343    0.0000 C   0  0  0  0  0  0  0  0  0  0  0  0
    0.5535    1.0237    0.0000 H   0  0  0  0  0  0  0  0  0  0  0  0
   -0.1091    2.8346    0.0000 H   0  0  0  0  0  0  0  0  0  0  0  0
   -1.1149    0.0567    0.0000 N   0  0  0  0  0  0  0  0  0  0  0  0
   -2.5156   -0.4579    0.0000 C   0  0  0  0  0  0  0  0  0  0  0  0
   -2.7760   -1.9351    0.0000 C   0  0  0  0  0  0  0  0  0  0  0  0
   -4.1865   -2.4480    0.0000 C   0  0  0  0  0  0  0  0  0  0  0  0
   -4.4470   -3.9252    0.0000 H   0  0  0  0  0  0  0  0  0  0  0  0
   -5.3365   -1.4836    0.0000 C   0  0  0  0  0  0  0  0  0  0  0  0
   -6.7460   -1.9969    0.0000 H   0  0  0  0  0  0  0  0  0  0  0  0
   -5.0761   -0.0064    0.0000 C   0  0  0  0  0  0  0  0  0  0  0  0
   -6.2250    0.9579    0.0000 H   0  0  0  0  0  0  0  0  0  0  0  0
   -3.6656    0.5064    0.0000 C   0  0  0  0  0  0  0  0  0  0  0  0
   -3.4051    1.9836    0.0000 H   0  0  0  0  0  0  0  0  0  0  0  0
   -1.6359   -2.8977    0.0000 S   0  0  0  0  0  0  0  0  0  0  0  0
   -0.2254   -2.3849    0.0000 C   0  0  0  0  0  0  0  0  0  0  0  0
    0.9246   -3.3492    0.0000 C   0  0  0  0  0  0  0  0  0  0  0  0
    0.6642   -4.8264    0.0000 H   0  0  0  0  0  0  0  0  0  0  0  0
    2.3351   -2.8364    0.0000 C   0  0  0  0  0  0  0  0  0  0  0  0
    3.4840   -3.8007    0.0000 H   0  0  0  0  0  0  0  0  0  0  0  0
    2.5956   -1.3592    0.0000 C   0  0  0  0  0  0  0  0  0  0  0  0
    1.4456   -0.3948    0.0000 C   0  0  0  0  0  0  0  0  0  0  0  0
    1.7060    1.0824    0.0000 H   0  0  0  0  0  0  0  0  0  0  0  0
    0.0351   -0.9077    0.0000 C   0  0  0  0  0  0  0  0  0  0  0  0
    4.0050   -0.8459    0.0000 Cl  0  0  0  0  0  0  0  0  0  0  0  0
    0.2202    4.3080    0.0000 C   0  0  0  0  0  0  0  0  0  0  0  0
    1.1862    3.1605    0.0000 H   0  0  0  0  0  0  0  0  0  0  0  0
   -1.0777    3.5561    0.0000 H   0  0  0  0  0  0  0  0  0  0  0  0
    1.5180    5.0602    0.0000 C   0  0  0  0  0  0  0  0  0  0  0  0
    2.9947    5.3235    0.0000 H   0  0  0  0  0  0  0  0  0  0  0  0
    2.0335    3.6516    0.0000 H   0  0  0  0  0  0  0  0  0  0  0  0
    2.9927    6.3032    0.0000 O   0  0  0  0  0  0  0  0  0  0  0  0
  1  2  1  0  0  0  0 
  1  3  1  0  0  0  0 
  1  4  1  0  0  0  0 
  1  5  1  0  0  0  0 
  5  6  1  0  0  0  0 
  6  7  1  0  0  0  0 
  6  8  1  0  0  0  0 
  6  9  1  0  0  0  0 
  9 10  1  0  0  0  0 
  9 11  1  0  0  0  0 
  9 12  1  0  0  0  0 
 12 13  1  0  0  0  0 
 13 14  1  0  0  0  0 
 13 15  1  0  0  0  0 
 13 16  1  0  0  0  0 
 16 17  1  0  0  0  0 
 16 18  1  0  0  0  0 
 16 19  1  0  0  0  0 
 19 20  1  0  0  0  0 
 19 21  1  0  0  0  0 
 19 22  1  0  0  0  0 
 22 23  1  0  0  0  0 
 23 24  2  0  0  0  0 
 24 25  1  0  0  0  0 
 25 26  1  0  0  0  0 
 25 27  2  0  0  0  0 
 27 28  1  0  0  0  0 
 27 29  1  0  0  0  0 
 29 30  1  0  0  0  0 
 29 31  2  0  0  0  0 
 23 31  1  0  0  0  0 
 31 32  1  0  0  0  0 
 24 33  1  0  0  0  0 
 33 34  1  0  0  0  0 
 34 35  2  0  0  0  0 
 35 36  1  0  0  0  0 
 35 37  1  0  0  0  0 
 37 38  1  0  0  0  0 
 37 39  2  0  0  0  0 
 39 40  1  0  0  0  0 
 40 41  1  0  0  0  0 
 40 42  2  0  0  0  0 
 34 42  1  0  0  0  0 
 22 42  1  0  0  0  0 
 39 43  1  0  0  0  0 
 12 44  1  0  0  0  0 
 44 45  1  0  0  0  0 
 44 46  1  0  0  0  0 
 44 47  1  0  0  0  0 
  5 47  1  0  0  0  0 
 47 48  1  0  0  0  0 
 47 49  1  0  0  0  0 
  5 50  1  0  0  0  0 
M  CHG  1   5   1
M  CHG  1  50  -1
M  END
> <Rank>
2

> <Priority_score>
0.56

> <Reaction_type>
N-oxidation_(tertiary_NCH3)

> <Parent_ID>
33

> <Parent_InChI>
InChI=1S/C20H24ClN3S/c1-22-11-13-23(14-12-22)9-4-10-24-17-5-2-3-6-19(17)25-20-8-7-16(21)15-18(20)24/h2-3,5-8,15H,4,9-14H2,1H3

> <Parent_SMILES>
CN1CCN(CCCN2c3ccccc3Sc3ccc(Cl)cc32)CC1

$$$$
Molecule 33_metabolite 6
  CDK     0516241031

 50 53  0  0  0  0  0  0  0  0999 V2000
   -6.4959   10.1721    0.0000 C   0  0  0  0  0  0  0  0  0  0  0  0
   -6.4959   11.6721    0.0000 H   0  0  0  0  0  0  0  0  0  0  0  0
   -7.9731   10.4326    0.0000 H   0  0  0  0  0  0  0  0  0  0  0  0
   -7.0089    8.7625    0.0000 H   0  0  0  0  0  0  0  0  0  0  0  0
   -4.7812    9.1821    0.0000 N   0  0  0  0  0  0  0  0  0  0  0  0
   -4.7809    7.6812    0.0000 C   0  0  0  0  0  0  0  0  0  0  0  0
   -6.2581    7.9418    0.0000 H   0  0  0  0  0  0  0  0  0  0  0  0
   -5.2943    6.2718    0.0000 H   0  0  0  0  0  0  0  0  0  0  0  0
   -3.4815    6.9302    0.0000 C   0  0  0  0  0  0  0  0  0  0  0  0
   -4.4462    5.7815    0.0000 H   0  0  0  0  0  0  0  0  0  0  0  0
   -2.5177    5.7809    0.0000 H   0  0  0  0  0  0  0  0  0  0  0  0
   -2.1824    7.6800    0.0000 N   0  0  0  0  0  0  0  0  0  0  0  0
   -0.4677    6.6900    0.0000 C   0  0  0  0  0  0  0  0  0  0  0  0
    1.0096    6.4295    0.0000 H   0  0  0  0  0  0  0  0  0  0  0  0
    0.4965    7.8391    0.0000 H   0  0  0  0  0  0  0  0  0  0  0  0
   -0.4677    4.7100    0.0000 C   0  0  0  0  0  0  0  0  0  0  0  0
   -1.9449    4.9705    0.0000 H   0  0  0  0  0  0  0  0  0  0  0  0
   -0.9807    3.3005    0.0000 H   0  0  0  0  0  0  0  0  0  0  0  0
    1.2471    3.7200    0.0000 C   0  0  0  0  0  0  0  0  0  0  0  0
    2.7243    3.4595    0.0000 H   0  0  0  0  0  0  0  0  0  0  0  0
    1.7601    5.1295    0.0000 H   0  0  0  0  0  0  0  0  0  0  0  0
    1.2471    1.2600    0.0000 N   0  0  0  0  0  0  0  0  0  0  0  0
   -0.0529    0.5100    0.0000 C   0  0  0  0  0  0  0  0  0  0  0  0
   -0.0529   -0.9900    0.0000 C   0  0  0  0  0  0  0  0  0  0  0  0
   -1.3529   -1.7400    0.0000 C   0  0  0  0  0  0  0  0  0  0  0  0
   -1.3529   -3.2400    0.0000 H   0  0  0  0  0  0  0  0  0  0  0  0
   -2.6529   -0.9900    0.0000 C   0  0  0  0  0  0  0  0  0  0  0  0
   -3.9518   -1.7402    0.0000 H   0  0  0  0  0  0  0  0  0  0  0  0
   -2.6529    0.5100    0.0000 C   0  0  0  0  0  0  0  0  0  0  0  0
   -3.9518    1.2602    0.0000 H   0  0  0  0  0  0  0  0  0  0  0  0
   -1.3529    1.2600    0.0000 C   0  0  0  0  0  0  0  0  0  0  0  0
   -1.6134    2.7372    0.0000 H   0  0  0  0  0  0  0  0  0  0  0  0
    1.2471   -1.7400    0.0000 S   0  0  0  0  0  0  0  0  0  0  0  0
    1.2471   -3.2400    0.0000 O   0  0  0  0  0  0  0  0  0  0  0  0
    2.5471   -0.9900    0.0000 C   0  0  0  0  0  0  0  0  0  0  0  0
    3.8471   -1.7400    0.0000 C   0  0  0  0  0  0  0  0  0  0  0  0
    3.8471   -3.2400    0.0000 H   0  0  0  0  0  0  0  0  0  0  0  0
    5.1471   -0.9900    0.0000 C   0  0  0  0  0  0  0  0  0  0  0  0
    6.4460   -1.7402    0.0000 H   0  0  0  0  0  0  0  0  0  0  0  0
    5.1471    0.5100    0.0000 C   0  0  0  0  0  0  0  0  0  0  0  0
    3.8471    1.2600    0.0000 C   0  0  0  0  0  0  0  0  0  0  0  0
    3.8471    2.7600    0.0000 H   0  0  0  0  0  0  0  0  0  0  0  0
    2.5471    0.5100    0.0000 C   0  0  0  0  0  0  0  0  0  0  0  0
    6.4460    1.2602    0.0000 Cl  0  0  0  0  0  0  0  0  0  0  0  0
   -2.1826    9.1808    0.0000 C   0  0  0  0  0  0  0  0  0  0  0  0
   -0.7054    8.9203    0.0000 H   0  0  0  0  0  0  0  0  0  0  0  0
   -1.6692   10.5902    0.0000 H   0  0  0  0  0  0  0  0  0  0  0  0
   -3.4820    9.9319    0.0000 C   0  0  0  0  0  0  0  0  0  0  0  0
   -2.5174   11.0806    0.0000 H   0  0  0  0  0  0  0  0  0  0  0  0
   -4.4459   11.0812    0.0000 H   0  0  0  0  0  0  0  0  0  0  0  0
  1  2  1  0  0  0  0 
  1  3  1  0  0  0  0 
  1  4  1  0  0  0  0 
  1  5  1  0  0  0  0 
  5  6  1  0  0  0  0 
  6  7  1  0  0  0  0 
  6  8  1  0  0  0  0 
  6  9  1  0  0  0  0 
  9 10  1  0  0  0  0 
  9 11  1  0  0  0  0 
  9 12  1  0  0  0  0 
 12 13  1  0  0  0  0 
 13 14  1  0  0  0  0 
 13 15  1  0  0  0  0 
 13 16  1  0  0  0  0 
 16 17  1  0  0  0  0 
 16 18  1  0  0  0  0 
 16 19  1  0  0  0  0 
 19 20  1  0  0  0  0 
 19 21  1  0  0  0  0 
 19 22  1  0  0  0  0 
 22 23  1  0  0  0  0 
 23 24  2  0  0  0  0 
 24 25  1  0  0  0  0 
 25 26  1  0  0  0  0 
 25 27  2  0  0  0  0 
 27 28  1  0  0  0  0 
 27 29  1  0  0  0  0 
 29 30  1  0  0  0  0 
 29 31  2  0  0  0  0 
 23 31  1  0  0  0  0 
 31 32  1  0  0  0  0 
 24 33  1  0  0  0  0 
 33 34  2  0  0  0  0 
 33 35  1  0  0  0  0 
 35 36  2  0  0  0  0 
 36 37  1  0  0  0  0 
 36 38  1  0  0  0  0 
 38 39  1  0  0  0  0 
 38 40  2  0  0  0  0 
 40 41  1  0  0  0  0 
 41 42  1  0  0  0  0 
 41 43  2  0  0  0  0 
 35 43  1  0  0  0  0 
 22 43  1  0  0  0  0 
 40 44  1  0  0  0  0 
 12 45  1  0  0  0  0 
 45 46  1  0  0  0  0 
 45 47  1  0  0  0  0 
 45 48  1  0  0  0  0 
  5 48  1  0  0  0  0 
 48 49  1  0  0  0  0 
 48 50  1  0  0  0  0 
M  END
> <Rank>
6

> <Priority_score>
0.545964379985461

> <Reaction_type>
sulfide_oxidation_(c-S-c)

> <Parent_ID>
33

> <Parent_InChI>
InChI=1S/C20H24ClN3S/c1-22-11-13-23(14-12-22)9-4-10-24-17-5-2-3-6-19(17)25-20-8-7-16(21)15-18(20)24/h2-3,5-8,15H,4,9-14H2,1H3

> <Parent_SMILES>
CN1CCN(CCCN2c3ccccc3Sc3ccc(Cl)cc32)CC1

$$$$
Molecule 33_metabolite 7
  CDK     0516241031

 50 53  0  0  0  0  0  0  0  0999 V2000
   -6.9884    8.8189    0.0000 C   0  0  0  0  0  0  0  0  0  0  0  0
   -6.9884   10.3189    0.0000 H   0  0  0  0  0  0  0  0  0  0  0  0
   -8.4656    9.0794    0.0000 H   0  0  0  0  0  0  0  0  0  0  0  0
   -7.5015    7.4094    0.0000 H   0  0  0  0  0  0  0  0  0  0  0  0
   -5.2737    7.8289    0.0000 N   0  0  0  0  0  0  0  0  0  0  0  0
   -5.2734    6.3281    0.0000 C   0  0  0  0  0  0  0  0  0  0  0  0
   -6.7506    6.5886    0.0000 H   0  0  0  0  0  0  0  0  0  0  0  0
   -5.7869    4.9187    0.0000 H   0  0  0  0  0  0  0  0  0  0  0  0
   -3.9741    5.5771    0.0000 C   0  0  0  0  0  0  0  0  0  0  0  0
   -4.9387    4.4283    0.0000 H   0  0  0  0  0  0  0  0  0  0  0  0
   -3.0102    4.4277    0.0000 H   0  0  0  0  0  0  0  0  0  0  0  0
   -2.6749    6.3268    0.0000 N   0  0  0  0  0  0  0  0  0  0  0  0
   -0.9602    5.3368    0.0000 C   0  0  0  0  0  0  0  0  0  0  0  0
    0.5170    5.0764    0.0000 H   0  0  0  0  0  0  0  0  0  0  0  0
    0.0454    8.0995    0.0000 H   0  0  0  0  0  0  0  0  0  0  0  0
   -0.9602    3.3568    0.0000 C   0  0  0  0  0  0  0  0  0  0  0  0
   -2.4374    3.6173    0.0000 H   0  0  0  0  0  0  0  0  0  0  0  0
   -1.4732    1.9473    0.0000 H   0  0  0  0  0  0  0  0  0  0  0  0
    0.7546    2.3668    0.0000 C   0  0  0  0  0  0  0  0  0  0  0  0
    2.2318    2.1064    0.0000 H   0  0  0  0  0  0  0  0  0  0  0  0
    1.2676    3.7764    0.0000 H   0  0  0  0  0  0  0  0  0  0  0  0
    0.7546   -0.0932    0.0000 N   0  0  0  0  0  0  0  0  0  0  0  0
   -0.5454   -0.8432    0.0000 C   0  0  0  0  0  0  0  0  0  0  0  0
   -0.5454   -2.3432    0.0000 C   0  0  0  0  0  0  0  0  0  0  0  0
   -1.8454   -3.0932    0.0000 C   0  0  0  0  0  0  0  0  0  0  0  0
   -1.8454   -4.5932    0.0000 H   0  0  0  0  0  0  0  0  0  0  0  0
   -3.1454   -2.3432    0.0000 C   0  0  0  0  0  0  0  0  0  0  0  0
   -4.4444   -3.0934    0.0000 H   0  0  0  0  0  0  0  0  0  0  0  0
   -3.1454   -0.8432    0.0000 C   0  0  0  0  0  0  0  0  0  0  0  0
   -4.4444   -0.0929    0.0000 H   0  0  0  0  0  0  0  0  0  0  0  0
   -1.8454   -0.0932    0.0000 C   0  0  0  0  0  0  0  0  0  0  0  0
   -2.1059    1.3841    0.0000 H   0  0  0  0  0  0  0  0  0  0  0  0
    0.7546   -3.0932    0.0000 S   0  0  0  0  0  0  0  0  0  0  0  0
    2.0546   -2.3432    0.0000 C   0  0  0  0  0  0  0  0  0  0  0  0
    3.3546   -3.0932    0.0000 C   0  0  0  0  0  0  0  0  0  0  0  0
    3.3546   -4.5932    0.0000 H   0  0  0  0  0  0  0  0  0  0  0  0
    4.6546   -2.3432    0.0000 C   0  0  0  0  0  0  0  0  0  0  0  0
    5.9535   -3.0934    0.0000 H   0  0  0  0  0  0  0  0  0  0  0  0
    4.6546   -0.8432    0.0000 C   0  0  0  0  0  0  0  0  0  0  0  0
    3.3546   -0.0932    0.0000 C   0  0  0  0  0  0  0  0  0  0  0  0
    2.0546   -0.8432    0.0000 C   0  0  0  0  0  0  0  0  0  0  0  0
    3.3546    1.4068    0.0000 O   0  0  0  0  0  0  0  0  0  0  0  0
    4.6536    2.1568    0.0000 H   0  0  0  0  0  0  0  0  0  0  0  0
    5.9535   -0.0929    0.0000 Cl  0  0  0  0  0  0  0  0  0  0  0  0
   -2.6751    7.8277    0.0000 C   0  0  0  0  0  0  0  0  0  0  0  0
   -1.1979    7.5671    0.0000 H   0  0  0  0  0  0  0  0  0  0  0  0
   -2.1617    9.2371    0.0000 H   0  0  0  0  0  0  0  0  0  0  0  0
   -3.9745    8.5787    0.0000 C   0  0  0  0  0  0  0  0  0  0  0  0
   -3.0099    9.7274    0.0000 H   0  0  0  0  0  0  0  0  0  0  0  0
   -4.9384    9.7280    0.0000 H   0  0  0  0  0  0  0  0  0  0  0  0
  1  2  1  0  0  0  0 
  1  3  1  0  0  0  0 
  1  4  1  0  0  0  0 
  1  5  1  0  0  0  0 
  5  6  1  0  0  0  0 
  6  7  1  0  0  0  0 
  6  8  1  0  0  0  0 
  6  9  1  0  0  0  0 
  9 10  1  0  0  0  0 
  9 11  1  0  0  0  0 
  9 12  1  0  0  0  0 
 12 13  1  0  0  0  0 
 13 14  1  0  0  0  0 
 13 15  1  0  0  0  0 
 13 16  1  0  0  0  0 
 16 17  1  0  0  0  0 
 16 18  1  0  0  0  0 
 16 19  1  0  0  0  0 
 19 20  1  0  0  0  0 
 19 21  1  0  0  0  0 
 19 22  1  0  0  0  0 
 22 23  1  0  0  0  0 
 23 24  2  0  0  0  0 
 24 25  1  0  0  0  0 
 25 26  1  0  0  0  0 
 25 27  2  0  0  0  0 
 27 28  1  0  0  0  0 
 27 29  1  0  0  0  0 
 29 30  1  0  0  0  0 
 29 31  2  0  0  0  0 
 23 31  1  0  0  0  0 
 31 32  1  0  0  0  0 
 24 33  1  0  0  0  0 
 33 34  1  0  0  0  0 
 34 35  2  0  0  0  0 
 35 36  1  0  0  0  0 
 35 37  1  0  0  0  0 
 37 38  1  0  0  0  0 
 37 39  2  0  0  0  0 
 39 40  1  0  0  0  0 
 40 41  2  0  0  0  0 
 34 41  1  0  0  0  0 
 22 41  1  0  0  0  0 
 40 42  1  0  0  0  0 
 42 43  1  0  0  0  0 
 39 44  1  0  0  0  0 
 12 45  1  0  0  0  0 
 45 46  1  0  0  0  0 
 45 47  1  0  0  0  0 
 45 48  1  0  0  0  0 
  5 48  1  0  0  0  0 
 48 49  1  0  0  0  0 
 48 50  1  0  0  0  0 
M  END
> <Rank>
7

> <Priority_score>
0.4109132726401533

> <Reaction_type>
aromatic_hydroxylation_(ortho_to_nitrogen)

> <Parent_ID>
33

> <Parent_InChI>
InChI=1S/C20H24ClN3S/c1-22-11-13-23(14-12-22)9-4-10-24-17-5-2-3-6-19(17)25-20-8-7-16(21)15-18(20)24/h2-3,5-8,15H,4,9-14H2,1H3

> <Parent_SMILES>
CN1CCN(CCCN2c3ccccc3Sc3ccc(Cl)cc32)CC1

$$$$
Molecule 33_metabolite 8
  CDK     0516241031

 50 53  0  0  0  0  0  0  0  0999 V2000
   -6.4959   10.1721    0.0000 C   0  0  0  0  0  0  0  0  0  0  0  0
   -6.4959   11.6721    0.0000 H   0  0  0  0  0  0  0  0  0  0  0  0
   -7.9731   10.4326    0.0000 H   0  0  0  0  0  0  0  0  0  0  0  0
   -7.0089    8.7625    0.0000 H   0  0  0  0  0  0  0  0  0  0  0  0
   -4.7812    9.1821    0.0000 N   0  0  0  0  0  0  0  0  0  0  0  0
   -4.7809    7.6812    0.0000 C   0  0  0  0  0  0  0  0  0  0  0  0
   -6.2581    7.9418    0.0000 H   0  0  0  0  0  0  0  0  0  0  0  0
   -5.2943    6.2718    0.0000 H   0  0  0  0  0  0  0  0  0  0  0  0
   -3.4815    6.9302    0.0000 C   0  0  0  0  0  0  0  0  0  0  0  0
   -4.4462    5.7815    0.0000 H   0  0  0  0  0  0  0  0  0  0  0  0
   -2.5177    5.7809    0.0000 H   0  0  0  0  0  0  0  0  0  0  0  0
   -2.1824    7.6800    0.0000 N   0  0  0  0  0  0  0  0  0  0  0  0
   -0.4677    6.6900    0.0000 C   0  0  0  0  0  0  0  0  0  0  0  0
    1.0096    6.4295    0.0000 H   0  0  0  0  0  0  0  0  0  0  0  0
    0.4965    7.8391    0.0000 H   0  0  0  0  0  0  0  0  0  0  0  0
   -0.4677    4.7100    0.0000 C   0  0  0  0  0  0  0  0  0  0  0  0
   -1.9449    4.9705    0.0000 H   0  0  0  0  0  0  0  0  0  0  0  0
   -0.9807    3.3005    0.0000 H   0  0  0  0  0  0  0  0  0  0  0  0
    1.2471    3.7200    0.0000 C   0  0  0  0  0  0  0  0  0  0  0  0
    2.7243    3.4595    0.0000 H   0  0  0  0  0  0  0  0  0  0  0  0
    1.7601    5.1295    0.0000 H   0  0  0  0  0  0  0  0  0  0  0  0
    1.2471    1.2600    0.0000 N   0  0  0  0  0  0  0  0  0  0  0  0
   -0.0529    0.5100    0.0000 C   0  0  0  0  0  0  0  0  0  0  0  0
   -0.0529   -0.9900    0.0000 C   0  0  0  0  0  0  0  0  0  0  0  0
   -1.3529   -1.7400    0.0000 C   0  0  0  0  0  0  0  0  0  0  0  0
   -1.3529   -3.2400    0.0000 H   0  0  0  0  0  0  0  0  0  0  0  0
   -2.6529   -0.9900    0.0000 C   0  0  0  0  0  0  0  0  0  0  0  0
   -3.9518   -1.7402    0.0000 H   0  0  0  0  0  0  0  0  0  0  0  0
   -2.6529    0.5100    0.0000 C   0  0  0  0  0  0  0  0  0  0  0  0
   -3.9518    1.2602    0.0000 H   0  0  0  0  0  0  0  0  0  0  0  0
   -1.3529    1.2600    0.0000 C   0  0  0  0  0  0  0  0  0  0  0  0
   -1.6134    2.7372    0.0000 H   0  0  0  0  0  0  0  0  0  0  0  0
    1.2471   -1.7400    0.0000 S   0  0  0  0  0  0  0  0  0  0  0  0
    2.5471   -0.9900    0.0000 C   0  0  0  0  0  0  0  0  0  0  0  0
    3.8471   -1.7400    0.0000 C   0  0  0  0  0  0  0  0  0  0  0  0
    3.8471   -3.2400    0.0000 H   0  0  0  0  0  0  0  0  0  0  0  0
    5.1471   -0.9900    0.0000 C   0  0  0  0  0  0  0  0  0  0  0  0
    5.1471    0.5100    0.0000 C   0  0  0  0  0  0  0  0  0  0  0  0
    3.8471    1.2600    0.0000 C   0  0  0  0  0  0  0  0  0  0  0  0
    3.8471    2.7600    0.0000 H   0  0  0  0  0  0  0  0  0  0  0  0
    2.5471    0.5100    0.0000 C   0  0  0  0  0  0  0  0  0  0  0  0
    6.4460    1.2602    0.0000 Cl  0  0  0  0  0  0  0  0  0  0  0  0
    6.4460   -1.7402    0.0000 O   0  0  0  0  0  0  0  0  0  0  0  0
    6.4458   -3.2402    0.0000 H   0  0  0  0  0  0  0  0  0  0  0  0
   -2.1826    9.1808    0.0000 C   0  0  0  0  0  0  0  0  0  0  0  0
   -0.7054    8.9203    0.0000 H   0  0  0  0  0  0  0  0  0  0  0  0
   -1.6692   10.5902    0.0000 H   0  0  0  0  0  0  0  0  0  0  0  0
   -3.4820    9.9319    0.0000 C   0  0  0  0  0  0  0  0  0  0  0  0
   -2.5174   11.0806    0.0000 H   0  0  0  0  0  0  0  0  0  0  0  0
   -4.4459   11.0812    0.0000 H   0  0  0  0  0  0  0  0  0  0  0  0
  1  2  1  0  0  0  0 
  1  3  1  0  0  0  0 
  1  4  1  0  0  0  0 
  1  5  1  0  0  0  0 
  5  6  1  0  0  0  0 
  6  7  1  0  0  0  0 
  6  8  1  0  0  0  0 
  6  9  1  0  0  0  0 
  9 10  1  0  0  0  0 
  9 11  1  0  0  0  0 
  9 12  1  0  0  0  0 
 12 13  1  0  0  0  0 
 13 14  1  0  0  0  0 
 13 15  1  0  0  0  0 
 13 16  1  0  0  0  0 
 16 17  1  0  0  0  0 
 16 18  1  0  0  0  0 
 16 19  1  0  0  0  0 
 19 20  1  0  0  0  0 
 19 21  1  0  0  0  0 
 19 22  1  0  0  0  0 
 22 23  1  0  0  0  0 
 23 24  2  0  0  0  0 
 24 25  1  0  0  0  0 
 25 26  1  0  0  0  0 
 25 27  2  0  0  0  0 
 27 28  1  0  0  0  0 
 27 29  1  0  0  0  0 
 29 30  1  0  0  0  0 
 29 31  2  0  0  0  0 
 23 31  1  0  0  0  0 
 31 32  1  0  0  0  0 
 24 33  1  0  0  0  0 
 33 34  1  0  0  0  0 
 34 35  2  0  0  0  0 
 35 36  1  0  0  0  0 
 35 37  1  0  0  0  0 
 37 38  2  0  0  0  0 
 38 39  1  0  0  0  0 
 39 40  1  0  0  0  0 
 39 41  2  0  0  0  0 
 34 41  1  0  0  0  0 
 22 41  1  0  0  0  0 
 38 42  1  0  0  0  0 
 37 43  1  0  0  0  0 
 43 44  1  0  0  0  0 
 12 45  1  0  0  0  0 
 45 46  1  0  0  0  0 
 45 47  1  0  0  0  0 
 45 48  1  0  0  0  0 
  5 48  1  0  0  0  0 
 48 49  1  0  0  0  0 
 48 50  1  0  0  0  0 
M  END
> <Rank>
7

> <Priority_score>
0.4109132726401533

> <Reaction_type>
aromatic_hydroxylation_(para_to_nitrogen)

> <Parent_ID>
33

> <Parent_InChI>
InChI=1S/C20H24ClN3S/c1-22-11-13-23(14-12-22)9-4-10-24-17-5-2-3-6-19(17)25-20-8-7-16(21)15-18(20)24/h2-3,5-8,15H,4,9-14H2,1H3

> <Parent_SMILES>
CN1CCN(CCCN2c3ccccc3Sc3ccc(Cl)cc32)CC1

$$$$
Molecule 33_metabolite 9
  CDK     0516241031

 50 53  0  0  0  0  0  0  0  0999 V2000
   -6.9884    8.8189    0.0000 C   0  0  0  0  0  0  0  0  0  0  0  0
   -6.9884   10.3189    0.0000 H   0  0  0  0  0  0  0  0  0  0  0  0
   -8.4656    9.0794    0.0000 H   0  0  0  0  0  0  0  0  0  0  0  0
   -7.5015    7.4094    0.0000 H   0  0  0  0  0  0  0  0  0  0  0  0
   -5.2737    7.8289    0.0000 N   0  0  0  0  0  0  0  0  0  0  0  0
   -5.2734    6.3281    0.0000 C   0  0  0  0  0  0  0  0  0  0  0  0
   -6.7506    6.5886    0.0000 H   0  0  0  0  0  0  0  0  0  0  0  0
   -5.7869    4.9187    0.0000 H   0  0  0  0  0  0  0  0  0  0  0  0
   -3.9741    5.5771    0.0000 C   0  0  0  0  0  0  0  0  0  0  0  0
   -4.9387    4.4283    0.0000 H   0  0  0  0  0  0  0  0  0  0  0  0
   -3.0102    4.4277    0.0000 H   0  0  0  0  0  0  0  0  0  0  0  0
   -2.6749    6.3268    0.0000 N   0  0  0  0  0  0  0  0  0  0  0  0
   -0.9602    5.3368    0.0000 C   0  0  0  0  0  0  0  0  0  0  0  0
    0.5170    5.0764    0.0000 H   0  0  0  0  0  0  0  0  0  0  0  0
    0.0454    8.0995    0.0000 H   0  0  0  0  0  0  0  0  0  0  0  0
   -0.9602    3.3568    0.0000 C   0  0  0  0  0  0  0  0  0  0  0  0
   -2.4374    3.6173    0.0000 H   0  0  0  0  0  0  0  0  0  0  0  0
   -1.4732    1.9473    0.0000 H   0  0  0  0  0  0  0  0  0  0  0  0
    0.7546    2.3668    0.0000 C   0  0  0  0  0  0  0  0  0  0  0  0
    2.2318    2.1064    0.0000 H   0  0  0  0  0  0  0  0  0  0  0  0
    1.2676    3.7764    0.0000 H   0  0  0  0  0  0  0  0  0  0  0  0
    0.7546   -0.0932    0.0000 N   0  0  0  0  0  0  0  0  0  0  0  0
   -0.5454   -0.8432    0.0000 C   0  0  0  0  0  0  0  0  0  0  0  0
   -1.8454   -0.0932    0.0000 C   0  0  0  0  0  0  0  0  0  0  0  0
   -2.1059    1.3841    0.0000 H   0  0  0  0  0  0  0  0  0  0  0  0
   -3.1454   -0.8432    0.0000 C   0  0  0  0  0  0  0  0  0  0  0  0
   -3.1454   -2.3432    0.0000 C   0  0  0  0  0  0  0  0  0  0  0  0
   -4.4444   -3.0934    0.0000 H   0  0  0  0  0  0  0  0  0  0  0  0
   -1.8454   -3.0932    0.0000 C   0  0  0  0  0  0  0  0  0  0  0  0
   -1.8454   -4.5932    0.0000 H   0  0  0  0  0  0  0  0  0  0  0  0
   -0.5454   -2.3432    0.0000 C   0  0  0  0  0  0  0  0  0  0  0  0
    0.7546   -3.0932    0.0000 S   0  0  0  0  0  0  0  0  0  0  0  0
    2.0546   -2.3432    0.0000 C   0  0  0  0  0  0  0  0  0  0  0  0
    2.0546   -0.8432    0.0000 C   0  0  0  0  0  0  0  0  0  0  0  0
    3.3546   -0.0932    0.0000 C   0  0  0  0  0  0  0  0  0  0  0  0
    4.6546   -0.8432    0.0000 C   0  0  0  0  0  0  0  0  0  0  0  0
    5.9535   -0.0929    0.0000 H   0  0  0  0  0  0  0  0  0  0  0  0
    4.6546   -2.3432    0.0000 C   0  0  0  0  0  0  0  0  0  0  0  0
    5.9535   -3.0934    0.0000 H   0  0  0  0  0  0  0  0  0  0  0  0
    3.3546   -3.0932    0.0000 C   0  0  0  0  0  0  0  0  0  0  0  0
    3.3546   -4.5932    0.0000 H   0  0  0  0  0  0  0  0  0  0  0  0
    3.3546    1.4068    0.0000 O   0  0  0  0  0  0  0  0  0  0  0  0
    4.6536    2.1568    0.0000 H   0  0  0  0  0  0  0  0  0  0  0  0
   -4.4444   -0.0929    0.0000 Cl  0  0  0  0  0  0  0  0  0  0  0  0
   -2.6751    7.8277    0.0000 C   0  0  0  0  0  0  0  0  0  0  0  0
   -1.1979    7.5671    0.0000 H   0  0  0  0  0  0  0  0  0  0  0  0
   -2.1617    9.2371    0.0000 H   0  0  0  0  0  0  0  0  0  0  0  0
   -3.9745    8.5787    0.0000 C   0  0  0  0  0  0  0  0  0  0  0  0
   -3.0099    9.7274    0.0000 H   0  0  0  0  0  0  0  0  0  0  0  0
   -4.9384    9.7280    0.0000 H   0  0  0  0  0  0  0  0  0  0  0  0
  1  2  1  0  0  0  0 
  1  3  1  0  0  0  0 
  1  4  1  0  0  0  0 
  1  5  1  0  0  0  0 
  5  6  1  0  0  0  0 
  6  7  1  0  0  0  0 
  6  8  1  0  0  0  0 
  6  9  1  0  0  0  0 
  9 10  1  0  0  0  0 
  9 11  1  0  0  0  0 
  9 12  1  0  0  0  0 
 12 13  1  0  0  0  0 
 13 14  1  0  0  0  0 
 13 15  1  0  0  0  0 
 13 16  1  0  0  0  0 
 16 17  1  0  0  0  0 
 16 18  1  0  0  0  0 
 16 19  1  0  0  0  0 
 19 20  1  0  0  0  0 
 19 21  1  0  0  0  0 
 19 22  1  0  0  0  0 
 22 23  1  0  0  0  0 
 23 24  2  0  0  0  0 
 24 25  1  0  0  0  0 
 24 26  1  0  0  0  0 
 26 27  2  0  0  0  0 
 27 28  1  0  0  0  0 
 27 29  1  0  0  0  0 
 29 30  1  0  0  0  0 
 29 31  2  0  0  0  0 
 23 31  1  0  0  0  0 
 31 32  1  0  0  0  0 
 32 33  1  0  0  0  0 
 33 34  2  0  0  0  0 
 22 34  1  0  0  0  0 
 34 35  1  0  0  0  0 
 35 36  2  0  0  0  0 
 36 37  1  0  0  0  0 
 36 38  1  0  0  0  0 
 38 39  1  0  0  0  0 
 38 40  2  0  0  0  0 
 33 40  1  0  0  0  0 
 40 41  1  0  0  0  0 
 35 42  1  0  0  0  0 
 42 43  1  0  0  0  0 
 26 44  1  0  0  0  0 
 12 45  1  0  0  0  0 
 45 46  1  0  0  0  0 
 45 47  1  0  0  0  0 
 45 48  1  0  0  0  0 
  5 48  1  0  0  0  0 
 48 49  1  0  0  0  0 
 48 50  1  0  0  0  0 
M  END
> <Rank>
9

> <Priority_score>
0.336

> <Reaction_type>
aromatic_hydroxylation_(ortho_to_nitrogen)

> <Parent_ID>
33

> <Parent_InChI>
InChI=1S/C20H24ClN3S/c1-22-11-13-23(14-12-22)9-4-10-24-17-5-2-3-6-19(17)25-20-8-7-16(21)15-18(20)24/h2-3,5-8,15H,4,9-14H2,1H3

> <Parent_SMILES>
CN1CCN(CCCN2c3ccccc3Sc3ccc(Cl)cc32)CC1

$$$$
Molecule 33_metabolite 10
  CDK     0516241031

 50 53  0  0  0  0  0  0  0  0999 V2000
   -6.4959   10.1721    0.0000 C   0  0  0  0  0  0  0  0  0  0  0  0
   -6.4959   11.6721    0.0000 H   0  0  0  0  0  0  0  0  0  0  0  0
   -7.9731   10.4326    0.0000 H   0  0  0  0  0  0  0  0  0  0  0  0
   -7.0089    8.7625    0.0000 H   0  0  0  0  0  0  0  0  0  0  0  0
   -4.7812    9.1821    0.0000 N   0  0  0  0  0  0  0  0  0  0  0  0
   -4.7809    7.6812    0.0000 C   0  0  0  0  0  0  0  0  0  0  0  0
   -6.2581    7.9418    0.0000 H   0  0  0  0  0  0  0  0  0  0  0  0
   -5.2943    6.2718    0.0000 H   0  0  0  0  0  0  0  0  0  0  0  0
   -3.4815    6.9302    0.0000 C   0  0  0  0  0  0  0  0  0  0  0  0
   -4.4462    5.7815    0.0000 H   0  0  0  0  0  0  0  0  0  0  0  0
   -2.5177    5.7809    0.0000 H   0  0  0  0  0  0  0  0  0  0  0  0
   -2.1824    7.6800    0.0000 N   0  0  0  0  0  0  0  0  0  0  0  0
   -0.4677    6.6900    0.0000 C   0  0  0  0  0  0  0  0  0  0  0  0
    1.0096    6.4295    0.0000 H   0  0  0  0  0  0  0  0  0  0  0  0
    0.4965    7.8391    0.0000 H   0  0  0  0  0  0  0  0  0  0  0  0
   -0.4677    4.7100    0.0000 C   0  0  0  0  0  0  0  0  0  0  0  0
   -1.9449    4.9705    0.0000 H   0  0  0  0  0  0  0  0  0  0  0  0
   -0.9807    3.3005    0.0000 H   0  0  0  0  0  0  0  0  0  0  0  0
    1.2471    3.7200    0.0000 C   0  0  0  0  0  0  0  0  0  0  0  0
    2.7243    3.4595    0.0000 H   0  0  0  0  0  0  0  0  0  0  0  0
    1.7601    5.1295    0.0000 H   0  0  0  0  0  0  0  0  0  0  0  0
    1.2471    1.2600    0.0000 N   0  0  0  0  0  0  0  0  0  0  0  0
   -0.0529    0.5100    0.0000 C   0  0  0  0  0  0  0  0  0  0  0  0
   -1.3529    1.2600    0.0000 C   0  0  0  0  0  0  0  0  0  0  0  0
   -1.6134    2.7372    0.0000 H   0  0  0  0  0  0  0  0  0  0  0  0
   -2.6529    0.5100    0.0000 C   0  0  0  0  0  0  0  0  0  0  0  0
   -3.9518    1.2602    0.0000 H   0  0  0  0  0  0  0  0  0  0  0  0
   -2.6529   -0.9900    0.0000 C   0  0  0  0  0  0  0  0  0  0  0  0
   -1.3529   -1.7400    0.0000 C   0  0  0  0  0  0  0  0  0  0  0  0
   -1.3529   -3.2400    0.0000 H   0  0  0  0  0  0  0  0  0  0  0  0
   -0.0529   -0.9900    0.0000 C   0  0  0  0  0  0  0  0  0  0  0  0
    1.2471   -1.7400    0.0000 S   0  0  0  0  0  0  0  0  0  0  0  0
    2.5471   -0.9900    0.0000 C   0  0  0  0  0  0  0  0  0  0  0  0
    3.8471   -1.7400    0.0000 C   0  0  0  0  0  0  0  0  0  0  0  0
    3.8471   -3.2400    0.0000 H   0  0  0  0  0  0  0  0  0  0  0  0
    5.1471   -0.9900    0.0000 C   0  0  0  0  0  0  0  0  0  0  0  0
    6.4460   -1.7402    0.0000 H   0  0  0  0  0  0  0  0  0  0  0  0
    5.1471    0.5100    0.0000 C   0  0  0  0  0  0  0  0  0  0  0  0
    3.8471    1.2600    0.0000 C   0  0  0  0  0  0  0  0  0  0  0  0
    3.8471    2.7600    0.0000 H   0  0  0  0  0  0  0  0  0  0  0  0
    2.5471    0.5100    0.0000 C   0  0  0  0  0  0  0  0  0  0  0  0
    6.4460    1.2602    0.0000 Cl  0  0  0  0  0  0  0  0  0  0  0  0
   -3.9518   -1.7402    0.0000 O   0  0  0  0  0  0  0  0  0  0  0  0
   -3.9516   -3.2402    0.0000 H   0  0  0  0  0  0  0  0  0  0  0  0
   -2.1826    9.1808    0.0000 C   0  0  0  0  0  0  0  0  0  0  0  0
   -0.7054    8.9203    0.0000 H   0  0  0  0  0  0  0  0  0  0  0  0
   -1.6692   10.5902    0.0000 H   0  0  0  0  0  0  0  0  0  0  0  0
   -3.4820    9.9319    0.0000 C   0  0  0  0  0  0  0  0  0  0  0  0
   -2.5174   11.0806    0.0000 H   0  0  0  0  0  0  0  0  0  0  0  0
   -4.4459   11.0812    0.0000 H   0  0  0  0  0  0  0  0  0  0  0  0
  1  2  1  0  0  0  0 
  1  3  1  0  0  0  0 
  1  4  1  0  0  0  0 
  1  5  1  0  0  0  0 
  5  6  1  0  0  0  0 
  6  7  1  0  0  0  0 
  6  8  1  0  0  0  0 
  6  9  1  0  0  0  0 
  9 10  1  0  0  0  0 
  9 11  1  0  0  0  0 
  9 12  1  0  0  0  0 
 12 13  1  0  0  0  0 
 13 14  1  0  0  0  0 
 13 15  1  0  0  0  0 
 13 16  1  0  0  0  0 
 16 17  1  0  0  0  0 
 16 18  1  0  0  0  0 
 16 19  1  0  0  0  0 
 19 20  1  0  0  0  0 
 19 21  1  0  0  0  0 
 19 22  1  0  0  0  0 
 22 23  1  0  0  0  0 
 23 24  2  0  0  0  0 
 24 25  1  0  0  0  0 
 24 26  1  0  0  0  0 
 26 27  1  0  0  0  0 
 26 28  2  0  0  0  0 
 28 29  1  0  0  0  0 
 29 30  1  0  0  0  0 
 29 31  2  0  0  0  0 
 23 31  1  0  0  0  0 
 31 32  1  0  0  0  0 
 32 33  1  0  0  0  0 
 33 34  2  0  0  0  0 
 34 35  1  0  0  0  0 
 34 36  1  0  0  0  0 
 36 37  1  0  0  0  0 
 36 38  2  0  0  0  0 
 38 39  1  0  0  0  0 
 39 40  1  0  0  0  0 
 39 41  2  0  0  0  0 
 33 41  1  0  0  0  0 
 22 41  1  0  0  0  0 
 38 42  1  0  0  0  0 
 28 43  1  0  0  0  0 
 43 44  1  0  0  0  0 
 12 45  1  0  0  0  0 
 45 46  1  0  0  0  0 
 45 47  1  0  0  0  0 
 45 48  1  0  0  0  0 
  5 48  1  0  0  0  0 
 48 49  1  0  0  0  0 
 48 50  1  0  0  0  0 
M  END
> <Rank>
9

> <Priority_score>
0.336

> <Reaction_type>
aromatic_hydroxylation_(para_to_nitrogen)

> <Parent_ID>
33

> <Parent_InChI>
InChI=1S/C20H24ClN3S/c1-22-11-13-23(14-12-22)9-4-10-24-17-5-2-3-6-19(17)25-20-8-7-16(21)15-18(20)24/h2-3,5-8,15H,4,9-14H2,1H3

> <Parent_SMILES>
CN1CCN(CCCN2c3ccccc3Sc3ccc(Cl)cc32)CC1

$$$$
Molecule 33_metabolite 11
  CDK     0516241031

 33 35  0  0  0  0  0  0  0  0999 V2000
   -4.2200    0.4700    0.0000 C   0  0  0  0  0  0  0  0  0  0  0  0
   -5.5189    1.2202    0.0000 H   0  0  0  0  0  0  0  0  0  0  0  0
   -2.9200    1.2200    0.0000 C   0  0  0  0  0  0  0  0  0  0  0  0
   -2.9200    2.7200    0.0000 H   0  0  0  0  0  0  0  0  0  0  0  0
   -1.6200    0.4700    0.0000 C   0  0  0  0  0  0  0  0  0  0  0  0
   -1.6200   -1.0300    0.0000 C   0  0  0  0  0  0  0  0  0  0  0  0
   -2.9200   -1.7800    0.0000 C   0  0  0  0  0  0  0  0  0  0  0  0
   -2.9200   -3.2800    0.0000 H   0  0  0  0  0  0  0  0  0  0  0  0
   -4.2200   -1.0300    0.0000 C   0  0  0  0  0  0  0  0  0  0  0  0
   -5.5189   -1.7802    0.0000 H   0  0  0  0  0  0  0  0  0  0  0  0
   -0.3300   -1.7800    0.0000 S   0  0  0  0  0  0  0  0  0  0  0  0
    0.9700   -1.0300    0.0000 C   0  0  0  0  0  0  0  0  0  0  0  0
    2.2700   -1.7800    0.0000 C   0  0  0  0  0  0  0  0  0  0  0  0
    2.2700   -3.2800    0.0000 H   0  0  0  0  0  0  0  0  0  0  0  0
    3.5700   -1.0300    0.0000 C   0  0  0  0  0  0  0  0  0  0  0  0
    4.8689   -1.7802    0.0000 H   0  0  0  0  0  0  0  0  0  0  0  0
    3.5700    0.4700    0.0000 C   0  0  0  0  0  0  0  0  0  0  0  0
    2.2700    1.2200    0.0000 C   0  0  0  0  0  0  0  0  0  0  0  0
    2.2700    2.7200    0.0000 H   0  0  0  0  0  0  0  0  0  0  0  0
    0.9700    0.4700    0.0000 C   0  0  0  0  0  0  0  0  0  0  0  0
   -0.3300    1.2200    0.0000 N   0  0  0  0  0  0  0  0  0  0  0  0
   -0.3325    2.7200    0.0000 C   0  0  0  0  0  0  0  0  0  0  0  0
    1.1451    2.4620    0.0000 H   0  0  0  0  0  0  0  0  0  0  0  0
    0.1782    4.1304    0.0000 H   0  0  0  0  0  0  0  0  0  0  0  0
   -1.6328    3.4678    0.0000 C   0  0  0  0  0  0  0  0  0  0  0  0
   -3.1104    3.7258    0.0000 H   0  0  0  0  0  0  0  0  0  0  0  0
   -2.1435    2.0574    0.0000 H   0  0  0  0  0  0  0  0  0  0  0  0
   -1.6353    4.9678    0.0000 C   0  0  0  0  0  0  0  0  0  0  0  0
   -3.1121    4.7049    0.0000 H   0  0  0  0  0  0  0  0  0  0  0  0
   -2.1507    6.3765    0.0000 H   0  0  0  0  0  0  0  0  0  0  0  0
   -0.3375    5.7200    0.0000 O   0  0  0  0  0  0  0  0  0  0  0  0
   -0.3400    7.2200    0.0000 H   0  0  0  0  0  0  0  0  0  0  0  0
    4.8689    1.2202    0.0000 Cl  0  0  0  0  0  0  0  0  0  0  0  0
  1  2  1  0  0  0  0 
  1  3  2  0  0  0  0 
  3  4  1  0  0  0  0 
  3  5  1  0  0  0  0 
  5  6  2  0  0  0  0 
  6  7  1  0  0  0  0 
  7  8  1  0  0  0  0 
  7  9  2  0  0  0  0 
  1  9  1  0  0  0  0 
  9 10  1  0  0  0  0 
  6 11  1  0  0  0  0 
 11 12  1  0  0  0  0 
 12 13  2  0  0  0  0 
 13 14  1  0  0  0  0 
 13 15  1  0  0  0  0 
 15 16  1  0  0  0  0 
 15 17  2  0  0  0  0 
 17 18  1  0  0  0  0 
 18 19  1  0  0  0  0 
 18 20  2  0  0  0  0 
 12 20  1  0  0  0  0 
 20 21  1  0  0  0  0 
  5 21  1  0  0  0  0 
 21 22  1  0  0  0  0 
 22 23  1  0  0  0  0 
 22 24  1  0  0  0  0 
 22 25  1  0  0  0  0 
 25 26  1  0  0  0  0 
 25 27  1  0  0  0  0 
 25 28  1  0  0  0  0 
 28 29  1  0  0  0  0 
 28 30  1  0  0  0  0 
 28 31  1  0  0  0  0 
 31 32  1  0  0  0  0 
 17 33  1  0  0  0  0 
M  END
> <Rank>
11

> <Priority_score>
0.308

> <Reaction_type>
N-dealkylation_(tertiaryN-CH2-alkyl)

> <Parent_ID>
33

> <Parent_InChI>
InChI=1S/C20H24ClN3S/c1-22-11-13-23(14-12-22)9-4-10-24-17-5-2-3-6-19(17)25-20-8-7-16(21)15-18(20)24/h2-3,5-8,15H,4,9-14H2,1H3

> <Parent_SMILES>
CN1CCN(CCCN2c3ccccc3Sc3ccc(Cl)cc32)CC1

$$$$
Molecule 33_metabolite 12
  CDK     0516241031

 50 53  0  0  0  0  0  0  0  0999 V2000
   -7.3307    8.5272    0.0000 C   0  0  0  0  0  0  0  0  0  0  0  0
   -7.3332   10.0272    0.0000 H   0  0  0  0  0  0  0  0  0  0  0  0
   -8.8083    8.7852    0.0000 H   0  0  0  0  0  0  0  0  0  0  0  0
   -7.8413    7.1168    0.0000 H   0  0  0  0  0  0  0  0  0  0  0  0
   -5.6143    7.5401    0.0000 N   0  0  0  0  0  0  0  0  0  0  0  0
   -5.6115    6.0393    0.0000 C   0  0  0  0  0  0  0  0  0  0  0  0
   -7.0892    6.2973    0.0000 H   0  0  0  0  0  0  0  0  0  0  0  0
   -6.1226    4.6290    0.0000 H   0  0  0  0  0  0  0  0  0  0  0  0
   -4.3109    5.2904    0.0000 C   0  0  0  0  0  0  0  0  0  0  0  0
   -5.2736    4.1401    0.0000 H   0  0  0  0  0  0  0  0  0  0  0  0
   -3.3451    4.1427    0.0000 H   0  0  0  0  0  0  0  0  0  0  0  0
   -3.0130    6.0424    0.0000 N   0  0  0  0  0  0  0  0  0  0  0  0
   -3.0157    7.5432    0.0000 C   0  0  0  0  0  0  0  0  0  0  0  0
   -1.5381    7.2851    0.0000 H   0  0  0  0  0  0  0  0  0  0  0  0
   -2.5047    8.9534    0.0000 H   0  0  0  0  0  0  0  0  0  0  0  0
   -4.3164    8.2921    0.0000 C   0  0  0  0  0  0  0  0  0  0  0  0
   -3.3537    9.4424    0.0000 H   0  0  0  0  0  0  0  0  0  0  0  0
   -5.2822    9.4398    0.0000 H   0  0  0  0  0  0  0  0  0  0  0  0
   -1.2966    5.0552    0.0000 C   0  0  0  0  0  0  0  0  0  0  0  0
    0.1811    4.7972    0.0000 H   0  0  0  0  0  0  0  0  0  0  0  0
   -1.2933    3.0752    0.0000 C   0  0  0  0  0  0  0  0  0  0  0  0
   -2.7709    3.3332    0.0000 H   0  0  0  0  0  0  0  0  0  0  0  0
   -1.8039    1.6648    0.0000 H   0  0  0  0  0  0  0  0  0  0  0  0
    0.4231    2.0881    0.0000 C   0  0  0  0  0  0  0  0  0  0  0  0
    1.9008    1.8301    0.0000 H   0  0  0  0  0  0  0  0  0  0  0  0
    0.9338    3.4985    0.0000 H   0  0  0  0  0  0  0  0  0  0  0  0
    0.4272   -0.3719    0.0000 N   0  0  0  0  0  0  0  0  0  0  0  0
   -0.8628   -1.1219    0.0000 C   0  0  0  0  0  0  0  0  0  0  0  0
   -0.8628   -2.6219    0.0000 C   0  0  0  0  0  0  0  0  0  0  0  0
   -2.1628   -3.3719    0.0000 C   0  0  0  0  0  0  0  0  0  0  0  0
   -2.1628   -4.8719    0.0000 H   0  0  0  0  0  0  0  0  0  0  0  0
   -3.4628   -2.6219    0.0000 C   0  0  0  0  0  0  0  0  0  0  0  0
   -4.7617   -3.3721    0.0000 H   0  0  0  0  0  0  0  0  0  0  0  0
   -3.4628   -1.1219    0.0000 C   0  0  0  0  0  0  0  0  0  0  0  0
   -4.7617   -0.3717    0.0000 H   0  0  0  0  0  0  0  0  0  0  0  0
   -2.1628   -0.3719    0.0000 C   0  0  0  0  0  0  0  0  0  0  0  0
   -2.4232    1.1053    0.0000 H   0  0  0  0  0  0  0  0  0  0  0  0
    0.4272   -3.3719    0.0000 S   0  0  0  0  0  0  0  0  0  0  0  0
    1.7272   -2.6219    0.0000 C   0  0  0  0  0  0  0  0  0  0  0  0
    3.0272   -3.3719    0.0000 C   0  0  0  0  0  0  0  0  0  0  0  0
    3.0272   -4.8719    0.0000 H   0  0  0  0  0  0  0  0  0  0  0  0
    4.3272   -2.6219    0.0000 C   0  0  0  0  0  0  0  0  0  0  0  0
    5.6262   -3.3721    0.0000 H   0  0  0  0  0  0  0  0  0  0  0  0
    4.3272   -1.1219    0.0000 C   0  0  0  0  0  0  0  0  0  0  0  0
    3.0272   -0.3719    0.0000 C   0  0  0  0  0  0  0  0  0  0  0  0
    3.0272    1.1281    0.0000 H   0  0  0  0  0  0  0  0  0  0  0  0
    1.7272   -1.1219    0.0000 C   0  0  0  0  0  0  0  0  0  0  0  0
    5.6262   -0.3717    0.0000 Cl  0  0  0  0  0  0  0  0  0  0  0  0
   -0.2957    7.8196    0.0000 O   0  0  0  0  0  0  0  0  0  0  0  0
    1.1811    8.0826    0.0000 H   0  0  0  0  0  0  0  0  0  0  0  0
  1  2  1  0  0  0  0 
  1  3  1  0  0  0  0 
  1  4  1  0  0  0  0 
  1  5  1  0  0  0  0 
  5  6  1  0  0  0  0 
  6  7  1  0  0  0  0 
  6  8  1  0  0  0  0 
  6  9  1  0  0  0  0 
  9 10  1  0  0  0  0 
  9 11  1  0  0  0  0 
  9 12  1  0  0  0  0 
 12 13  1  0  0  0  0 
 13 14  1  0  0  0  0 
 13 15  1  0  0  0  0 
 13 16  1  0  0  0  0 
  5 16  1  0  0  0  0 
 16 17  1  0  0  0  0 
 16 18  1  0  0  0  0 
 12 19  1  0  0  0  0 
 19 20  1  0  0  0  0 
 19 21  1  0  0  0  0 
 21 22  1  0  0  0  0 
 21 23  1  0  0  0  0 
 21 24  1  0  0  0  0 
 24 25  1  0  0  0  0 
 24 26  1  0  0  0  0 
 24 27  1  0  0  0  0 
 27 28  1  0  0  0  0 
 28 29  2  0  0  0  0 
 29 30  1  0  0  0  0 
 30 31  1  0  0  0  0 
 30 32  2  0  0  0  0 
 32 33  1  0  0  0  0 
 32 34  1  0  0  0  0 
 34 35  1  0  0  0  0 
 34 36  2  0  0  0  0 
 28 36  1  0  0  0  0 
 36 37  1  0  0  0  0 
 29 38  1  0  0  0  0 
 38 39  1  0  0  0  0 
 39 40  2  0  0  0  0 
 40 41  1  0  0  0  0 
 40 42  1  0  0  0  0 
 42 43  1  0  0  0  0 
 42 44  2  0  0  0  0 
 44 45  1  0  0  0  0 
 45 46  1  0  0  0  0 
 45 47  2  0  0  0  0 
 39 47  1  0  0  0  0 
 27 47  1  0  0  0  0 
 44 48  1  0  0  0  0 
 19 49  1  0  0  0  0 
 49 50  1  0  0  0  0 
M  END
> <Rank>
11

> <Priority_score>
0.308

> <Reaction_type>
aliphatic hydroxylation

> <Parent_ID>
33

> <Parent_InChI>
InChI=1S/C20H24ClN3S/c1-22-11-13-23(14-12-22)9-4-10-24-17-5-2-3-6-19(17)25-20-8-7-16(21)15-18(20)24/h2-3,5-8,15H,4,9-14H2,1H3

> <Parent_SMILES>
CN1CCN(CCCN2c3ccccc3Sc3ccc(Cl)cc32)CC1

$$$$
Molecule 33_metabolite 13
  CDK     0516241031

 31 33  0  0  0  0  0  0  0  0999 V2000
   -4.2200    0.4700    0.0000 C   0  0  0  0  0  0  0  0  0  0  0  0
   -5.5189    1.2202    0.0000 H   0  0  0  0  0  0  0  0  0  0  0  0
   -2.9200    1.2200    0.0000 C   0  0  0  0  0  0  0  0  0  0  0  0
   -2.9200    2.7200    0.0000 H   0  0  0  0  0  0  0  0  0  0  0  0
   -1.6200    0.4700    0.0000 C   0  0  0  0  0  0  0  0  0  0  0  0
   -1.6200   -1.0300    0.0000 C   0  0  0  0  0  0  0  0  0  0  0  0
   -2.9200   -1.7800    0.0000 C   0  0  0  0  0  0  0  0  0  0  0  0
   -2.9200   -3.2800    0.0000 H   0  0  0  0  0  0  0  0  0  0  0  0
   -4.2200   -1.0300    0.0000 C   0  0  0  0  0  0  0  0  0  0  0  0
   -5.5189   -1.7802    0.0000 H   0  0  0  0  0  0  0  0  0  0  0  0
   -0.3300   -1.7800    0.0000 S   0  0  0  0  0  0  0  0  0  0  0  0
    0.9700   -1.0300    0.0000 C   0  0  0  0  0  0  0  0  0  0  0  0
    2.2700   -1.7800    0.0000 C   0  0  0  0  0  0  0  0  0  0  0  0
    2.2700   -3.2800    0.0000 H   0  0  0  0  0  0  0  0  0  0  0  0
    3.5700   -1.0300    0.0000 C   0  0  0  0  0  0  0  0  0  0  0  0
    4.8689   -1.7802    0.0000 H   0  0  0  0  0  0  0  0  0  0  0  0
    3.5700    0.4700    0.0000 C   0  0  0  0  0  0  0  0  0  0  0  0
    2.2700    1.2200    0.0000 C   0  0  0  0  0  0  0  0  0  0  0  0
    2.2700    2.7200    0.0000 H   0  0  0  0  0  0  0  0  0  0  0  0
    0.9700    0.4700    0.0000 C   0  0  0  0  0  0  0  0  0  0  0  0
   -0.3300    1.2200    0.0000 N   0  0  0  0  0  0  0  0  0  0  0  0
   -0.3325    2.7200    0.0000 C   0  0  0  0  0  0  0  0  0  0  0  0
    1.1451    2.4620    0.0000 H   0  0  0  0  0  0  0  0  0  0  0  0
    0.1782    4.1304    0.0000 H   0  0  0  0  0  0  0  0  0  0  0  0
   -1.6328    3.4678    0.0000 C   0  0  0  0  0  0  0  0  0  0  0  0
   -3.1104    3.7258    0.0000 H   0  0  0  0  0  0  0  0  0  0  0  0
   -2.1435    2.0574    0.0000 H   0  0  0  0  0  0  0  0  0  0  0  0
   -1.6353    4.9678    0.0000 C   0  0  0  0  0  0  0  0  0  0  0  0
   -2.9356    5.7156    0.0000 H   0  0  0  0  0  0  0  0  0  0  0  0
   -0.3375    5.7200    0.0000 O   0  0  0  0  0  0  0  0  0  0  0  0
    4.8689    1.2202    0.0000 Cl  0  0  0  0  0  0  0  0  0  0  0  0
  1  2  1  0  0  0  0 
  1  3  2  0  0  0  0 
  3  4  1  0  0  0  0 
  3  5  1  0  0  0  0 
  5  6  2  0  0  0  0 
  6  7  1  0  0  0  0 
  7  8  1  0  0  0  0 
  7  9  2  0  0  0  0 
  1  9  1  0  0  0  0 
  9 10  1  0  0  0  0 
  6 11  1  0  0  0  0 
 11 12  1  0  0  0  0 
 12 13  2  0  0  0  0 
 13 14  1  0  0  0  0 
 13 15  1  0  0  0  0 
 15 16  1  0  0  0  0 
 15 17  2  0  0  0  0 
 17 18  1  0  0  0  0 
 18 19  1  0  0  0  0 
 18 20  2  0  0  0  0 
 12 20  1  0  0  0  0 
 20 21  1  0  0  0  0 
  5 21  1  0  0  0  0 
 21 22  1  0  0  0  0 
 22 23  1  0  0  0  0 
 22 24  1  0  0  0  0 
 22 25  1  0  0  0  0 
 25 26  1  0  0  0  0 
 25 27  1  0  0  0  0 
 25 28  1  0  0  0  0 
 28 29  1  0  0  0  0 
 28 30  2  0  0  0  0 
 17 31  1  0  0  0  0 
M  END
> <Rank>
11

> <Priority_score>
0.308

> <Reaction_type>
N-dealkylation

> <Parent_ID>
33

> <Parent_InChI>
InChI=1S/C20H24ClN3S/c1-22-11-13-23(14-12-22)9-4-10-24-17-5-2-3-6-19(17)25-20-8-7-16(21)15-18(20)24/h2-3,5-8,15H,4,9-14H2,1H3

> <Parent_SMILES>
CN1CCN(CCCN2c3ccccc3Sc3ccc(Cl)cc32)CC1

$$$$
Molecule 33_metabolite 14
  CDK     0516241031

 50 53  0  0  0  0  0  0  0  0999 V2000
  -10.7507    6.2049    0.0000 C   0  0  0  0  0  0  0  0  0  0  0  0
  -11.7167    7.3525    0.0000 H   0  0  0  0  0  0  0  0  0  0  0  0
  -12.0486    5.4529    0.0000 H   0  0  0  0  0  0  0  0  0  0  0  0
  -10.2355    4.7962    0.0000 H   0  0  0  0  0  0  0  0  0  0  0  0
   -8.8013    6.5518    0.0000 N   0  0  0  0  0  0  0  0  0  0  0  0
   -8.2907    7.9631    0.0000 C   0  0  0  0  0  0  0  0  0  0  0  0
   -8.2932    9.4631    0.0000 H   0  0  0  0  0  0  0  0  0  0  0  0
   -9.7684    8.2209    0.0000 H   0  0  0  0  0  0  0  0  0  0  0  0
   -6.8139    8.2259    0.0000 C   0  0  0  0  0  0  0  0  0  0  0  0
   -5.5159    8.9776    0.0000 H   0  0  0  0  0  0  0  0  0  0  0  0
   -7.3290    9.6347    0.0000 H   0  0  0  0  0  0  0  0  0  0  0  0
   -5.8477    7.0774    0.0000 N   0  0  0  0  0  0  0  0  0  0  0  0
   -3.2992    5.6116    0.0000 C   0  0  0  0  0  0  0  0  0  0  0  0
   -2.3331    4.4642    0.0000 H   0  0  0  0  0  0  0  0  0  0  0  0
   -4.2614    4.4610    0.0000 H   0  0  0  0  0  0  0  0  0  0  0  0
   -1.5861    6.6045    0.0000 C   0  0  0  0  0  0  0  0  0  0  0  0
   -2.5522    7.7520    0.0000 H   0  0  0  0  0  0  0  0  0  0  0  0
   -0.6238    7.7552    0.0000 H   0  0  0  0  0  0  0  0  0  0  0  0
    0.9625    5.1388    0.0000 C   0  0  0  0  0  0  0  0  0  0  0  0
    1.9286    3.9913    0.0000 H   0  0  0  0  0  0  0  0  0  0  0  0
    0.0002    3.9881    0.0000 H   0  0  0  0  0  0  0  0  0  0  0  0
    3.0908    6.3723    0.0000 N   0  0  0  0  0  0  0  0  0  0  0  0
    3.0904    7.8645    0.0000 C   0  0  0  0  0  0  0  0  0  0  0  0
    4.3869    8.6189    0.0000 C   0  0  0  0  0  0  0  0  0  0  0  0
    4.3814   10.1197    0.0000 C   0  0  0  0  0  0  0  0  0  0  0  0
    5.6779   10.8740    0.0000 H   0  0  0  0  0  0  0  0  0  0  0  0
    3.0793   10.8662    0.0000 C   0  0  0  0  0  0  0  0  0  0  0  0
    3.0746   12.3662    0.0000 H   0  0  0  0  0  0  0  0  0  0  0  0
    1.7828   10.1118    0.0000 C   0  0  0  0  0  0  0  0  0  0  0  0
    0.4812   10.8573    0.0000 H   0  0  0  0  0  0  0  0  0  0  0  0
    1.7883    8.6110    0.0000 C   0  0  0  0  0  0  0  0  0  0  0  0
    0.4918    7.8566    0.0000 H   0  0  0  0  0  0  0  0  0  0  0  0
    5.6839    7.8810    0.0000 S   0  0  0  0  0  0  0  0  0  0  0  0
    5.6894    6.3802    0.0000 C   0  0  0  0  0  0  0  0  0  0  0  0
    6.9914    5.6337    0.0000 C   0  0  0  0  0  0  0  0  0  0  0  0
    8.2879    6.3881    0.0000 H   0  0  0  0  0  0  0  0  0  0  0  0
    6.9969    4.1329    0.0000 C   0  0  0  0  0  0  0  0  0  0  0  0
    8.2986    3.3875    0.0000 H   0  0  0  0  0  0  0  0  0  0  0  0
    5.7004    3.3786    0.0000 C   0  0  0  0  0  0  0  0  0  0  0  0
    4.3984    4.1250    0.0000 C   0  0  0  0  0  0  0  0  0  0  0  0
    3.1019    3.3707    0.0000 H   0  0  0  0  0  0  0  0  0  0  0  0
    4.3929    5.6259    0.0000 C   0  0  0  0  0  0  0  0  0  0  0  0
    5.7052    1.8786    0.0000 Cl  0  0  0  0  0  0  0  0  0  0  0  0
   -6.3584    5.6661    0.0000 C   0  0  0  0  0  0  0  0  0  0  0  0
   -6.3559    4.1661    0.0000 H   0  0  0  0  0  0  0  0  0  0  0  0
   -4.4079    5.3257    0.0000 H   0  0  0  0  0  0  0  0  0  0  0  0
   -7.8352    5.4033    0.0000 C   0  0  0  0  0  0  0  0  0  0  0  0
   -9.1332    4.6515    0.0000 H   0  0  0  0  0  0  0  0  0  0  0  0
   -7.3201    3.9945    0.0000 H   0  0  0  0  0  0  0  0  0  0  0  0
   -4.8852    8.2278    0.0000 O   0  0  0  0  0  0  0  0  0  0  0  0
  1  2  1  0  0  0  0 
  1  3  1  0  0  0  0 
  1  4  1  0  0  0  0 
  1  5  1  0  0  0  0 
  5  6  1  0  0  0  0 
  6  7  1  0  0  0  0 
  6  8  1  0  0  0  0 
  6  9  1  0  0  0  0 
  9 10  1  0  0  0  0 
  9 11  1  0  0  0  0 
  9 12  1  0  0  0  0 
 12 13  1  0  0  0  0 
 13 14  1  0  0  0  0 
 13 15  1  0  0  0  0 
 13 16  1  0  0  0  0 
 16 17  1  0  0  0  0 
 16 18  1  0  0  0  0 
 16 19  1  0  0  0  0 
 19 20  1  0  0  0  0 
 19 21  1  0  0  0  0 
 19 22  1  0  0  0  0 
 22 23  1  0  0  0  0 
 23 24  2  0  0  0  0 
 24 25  1  0  0  0  0 
 25 26  1  0  0  0  0 
 25 27  2  0  0  0  0 
 27 28  1  0  0  0  0 
 27 29  1  0  0  0  0 
 29 30  1  0  0  0  0 
 29 31  2  0  0  0  0 
 23 31  1  0  0  0  0 
 31 32  1  0  0  0  0 
 24 33  1  0  0  0  0 
 33 34  1  0  0  0  0 
 34 35  2  0  0  0  0 
 35 36  1  0  0  0  0 
 35 37  1  0  0  0  0 
 37 38  1  0  0  0  0 
 37 39  2  0  0  0  0 
 39 40  1  0  0  0  0 
 40 41  1  0  0  0  0 
 40 42  2  0  0  0  0 
 34 42  1  0  0  0  0 
 22 42  1  0  0  0  0 
 39 43  1  0  0  0  0 
 12 44  1  0  0  0  0 
 44 45  1  0  0  0  0 
 44 46  1  0  0  0  0 
 44 47  1  0  0  0  0 
  5 47  1  0  0  0  0 
 47 48  1  0  0  0  0 
 47 49  1  0  0  0  0 
 12 50  1  0  0  0  0 
M  CHG  1  12   1
M  CHG  1  50  -1
M  END
> <Rank>
11

> <Priority_score>
0.308

> <Reaction_type>
N-oxidation_(tertiary_N)

> <Parent_ID>
33

> <Parent_InChI>
InChI=1S/C20H24ClN3S/c1-22-11-13-23(14-12-22)9-4-10-24-17-5-2-3-6-19(17)25-20-8-7-16(21)15-18(20)24/h2-3,5-8,15H,4,9-14H2,1H3

> <Parent_SMILES>
CN1CCN(CCCN2c3ccccc3Sc3ccc(Cl)cc32)CC1

$$$$
Molecule 33_metabolite 15
  CDK     0516241031

 19 19  0  0  0  0  0  0  0  0999 V2000
   -0.0000   -2.0705    0.0000 C   0  0  0  0  0  0  0  0  0  0  0  0
    1.2990   -2.8205    0.0000 H   0  0  0  0  0  0  0  0  0  0  0  0
   -1.4772   -1.8100    0.0000 H   0  0  0  0  0  0  0  0  0  0  0  0
   -0.5130   -3.4800    0.0000 H   0  0  0  0  0  0  0  0  0  0  0  0
   -0.0000   -0.0905    0.0000 N   0  0  0  0  0  0  0  0  0  0  0  0
   -1.3000    0.6595    0.0000 C   0  0  0  0  0  0  0  0  0  0  0  0
   -2.7772    0.9199    0.0000 H   0  0  0  0  0  0  0  0  0  0  0  0
   -1.8127   -0.7501    0.0000 H   0  0  0  0  0  0  0  0  0  0  0  0
   -1.3000    2.1595    0.0000 C   0  0  0  0  0  0  0  0  0  0  0  0
   -1.8127    3.5692    0.0000 H   0  0  0  0  0  0  0  0  0  0  0  0
   -2.7772    1.8992    0.0000 H   0  0  0  0  0  0  0  0  0  0  0  0
    0.0000    2.9095    0.0000 N   0  0  0  0  0  0  0  0  0  0  0  0
    0.0000    4.4095    0.0000 H   0  0  0  0  0  0  0  0  0  0  0  0
    1.3000    2.1595    0.0000 C   0  0  0  0  0  0  0  0  0  0  0  0
    2.7772    1.8992    0.0000 H   0  0  0  0  0  0  0  0  0  0  0  0
    1.8127    3.5692    0.0000 H   0  0  0  0  0  0  0  0  0  0  0  0
    1.3000    0.6595    0.0000 C   0  0  0  0  0  0  0  0  0  0  0  0
    1.8127   -0.7501    0.0000 H   0  0  0  0  0  0  0  0  0  0  0  0
    2.7772    0.9199    0.0000 H   0  0  0  0  0  0  0  0  0  0  0  0
  1  2  1  0  0  0  0 
  1  3  1  0  0  0  0 
  1  4  1  0  0  0  0 
  1  5  1  0  0  0  0 
  5  6  1  0  0  0  0 
  6  7  1  0  0  0  0 
  6  8  1  0  0  0  0 
  6  9  1  0  0  0  0 
  9 10  1  0  0  0  0 
  9 11  1  0  0  0  0 
  9 12  1  0  0  0  0 
 12 13  1  0  0  0  0 
 12 14  1  0  0  0  0 
 14 15  1  0  0  0  0 
 14 16  1  0  0  0  0 
 14 17  1  0  0  0  0 
  5 17  1  0  0  0  0 
 17 18  1  0  0  0  0 
 17 19  1  0  0  0  0 
M  END
> <Rank>
11

> <Priority_score>
0.308

> <Reaction_type>
N-dealkylation_(tertiaryN-CH2-alkyl)

> <Parent_ID>
33

> <Parent_InChI>
InChI=1S/C20H24ClN3S/c1-22-11-13-23(14-12-22)9-4-10-24-17-5-2-3-6-19(17)25-20-8-7-16(21)15-18(20)24/h2-3,5-8,15H,4,9-14H2,1H3

> <Parent_SMILES>
CN1CCN(CCCN2c3ccccc3Sc3ccc(Cl)cc32)CC1

$$$$
Molecule 33_metabolite 16
  CDK     0516241031

 48 51  0  0  0  0  0  0  0  0999 V2000
   -6.4236    9.6398    0.0000 C   0  0  0  0  0  0  0  0  0  0  0  0
   -6.4261   11.1398    0.0000 H   0  0  0  0  0  0  0  0  0  0  0  0
   -7.9013    9.8978    0.0000 H   0  0  0  0  0  0  0  0  0  0  0  0
   -6.9343    8.2294    0.0000 H   0  0  0  0  0  0  0  0  0  0  0  0
   -5.1233    8.8920    0.0000 N   0  0  0  0  0  0  0  0  0  0  0  0
   -3.8251    9.6450    0.0000 C   0  0  0  0  0  0  0  0  0  0  0  0
   -2.8629   10.7958    0.0000 H   0  0  0  0  0  0  0  0  0  0  0  0
   -4.7914   10.7922    0.0000 H   0  0  0  0  0  0  0  0  0  0  0  0
   -2.5248    8.8972    0.0000 C   0  0  0  0  0  0  0  0  0  0  0  0
   -1.0472    8.6389    0.0000 H   0  0  0  0  0  0  0  0  0  0  0  0
   -2.0139   10.3075    0.0000 H   0  0  0  0  0  0  0  0  0  0  0  0
   -2.5227    7.3963    0.0000 N   0  0  0  0  0  0  0  0  0  0  0  0
   -0.8063    6.4092    0.0000 C   0  0  0  0  0  0  0  0  0  0  0  0
    0.6713    6.1512    0.0000 H   0  0  0  0  0  0  0  0  0  0  0  0
    0.1559    7.5599    0.0000 H   0  0  0  0  0  0  0  0  0  0  0  0
   -0.8030    4.4292    0.0000 C   0  0  0  0  0  0  0  0  0  0  0  0
   -2.2807    4.6872    0.0000 H   0  0  0  0  0  0  0  0  0  0  0  0
   -1.3137    3.0188    0.0000 H   0  0  0  0  0  0  0  0  0  0  0  0
    0.9134    3.4421    0.0000 C   0  0  0  0  0  0  0  0  0  0  0  0
    2.3910    3.1841    0.0000 H   0  0  0  0  0  0  0  0  0  0  0  0
    1.4240    4.8525    0.0000 H   0  0  0  0  0  0  0  0  0  0  0  0
    0.9175    0.9821    0.0000 N   0  0  0  0  0  0  0  0  0  0  0  0
   -0.3725    0.2321    0.0000 C   0  0  0  0  0  0  0  0  0  0  0  0
   -0.3725   -1.2679    0.0000 C   0  0  0  0  0  0  0  0  0  0  0  0
   -1.6725   -2.0179    0.0000 C   0  0  0  0  0  0  0  0  0  0  0  0
   -1.6725   -3.5179    0.0000 H   0  0  0  0  0  0  0  0  0  0  0  0
   -2.9725   -1.2679    0.0000 C   0  0  0  0  0  0  0  0  0  0  0  0
   -4.2714   -2.0181    0.0000 H   0  0  0  0  0  0  0  0  0  0  0  0
   -2.9725    0.2321    0.0000 C   0  0  0  0  0  0  0  0  0  0  0  0
   -4.2714    0.9823    0.0000 H   0  0  0  0  0  0  0  0  0  0  0  0
   -1.6725    0.9821    0.0000 C   0  0  0  0  0  0  0  0  0  0  0  0
   -1.9330    2.4593    0.0000 H   0  0  0  0  0  0  0  0  0  0  0  0
    0.9175   -2.0179    0.0000 S   0  0  0  0  0  0  0  0  0  0  0  0
    2.2175   -1.2679    0.0000 C   0  0  0  0  0  0  0  0  0  0  0  0
    3.5175   -2.0179    0.0000 C   0  0  0  0  0  0  0  0  0  0  0  0
    3.5175   -3.5179    0.0000 H   0  0  0  0  0  0  0  0  0  0  0  0
    4.8175   -1.2679    0.0000 C   0  0  0  0  0  0  0  0  0  0  0  0
    6.1164   -2.0181    0.0000 H   0  0  0  0  0  0  0  0  0  0  0  0
    4.8175    0.2321    0.0000 C   0  0  0  0  0  0  0  0  0  0  0  0
    3.5175    0.9821    0.0000 C   0  0  0  0  0  0  0  0  0  0  0  0
    3.5175    2.4821    0.0000 H   0  0  0  0  0  0  0  0  0  0  0  0
    2.2175    0.2321    0.0000 C   0  0  0  0  0  0  0  0  0  0  0  0
    6.1164    0.9823    0.0000 Cl  0  0  0  0  0  0  0  0  0  0  0  0
   -3.8210    6.6433    0.0000 C   0  0  0  0  0  0  0  0  0  0  0  0
   -4.7831    5.4925    0.0000 H   0  0  0  0  0  0  0  0  0  0  0  0
   -2.8546    5.4961    0.0000 H   0  0  0  0  0  0  0  0  0  0  0  0
   -5.1213    7.3912    0.0000 C   0  0  0  0  0  0  0  0  0  0  0  0
   -6.4192    6.6392    0.0000 O   0  0  0  0  0  0  0  0  0  0  0  0
  1  2  1  0  0  0  0 
  1  3  1  0  0  0  0 
  1  4  1  0  0  0  0 
  1  5  1  0  0  0  0 
  5  6  1  0  0  0  0 
  6  7  1  0  0  0  0 
  6  8  1  0  0  0  0 
  6  9  1  0  0  0  0 
  9 10  1  0  0  0  0 
  9 11  1  0  0  0  0 
  9 12  1  0  0  0  0 
 12 13  1  0  0  0  0 
 13 14  1  0  0  0  0 
 13 15  1  0  0  0  0 
 13 16  1  0  0  0  0 
 16 17  1  0  0  0  0 
 16 18  1  0  0  0  0 
 16 19  1  0  0  0  0 
 19 20  1  0  0  0  0 
 19 21  1  0  0  0  0 
 19 22  1  0  0  0  0 
 22 23  1  0  0  0  0 
 23 24  2  0  0  0  0 
 24 25  1  0  0  0  0 
 25 26  1  0  0  0  0 
 25 27  2  0  0  0  0 
 27 28  1  0  0  0  0 
 27 29  1  0  0  0  0 
 29 30  1  0  0  0  0 
 29 31  2  0  0  0  0 
 23 31  1  0  0  0  0 
 31 32  1  0  0  0  0 
 24 33  1  0  0  0  0 
 33 34  1  0  0  0  0 
 34 35  2  0  0  0  0 
 35 36  1  0  0  0  0 
 35 37  1  0  0  0  0 
 37 38  1  0  0  0  0 
 37 39  2  0  0  0  0 
 39 40  1  0  0  0  0 
 40 41  1  0  0  0  0 
 40 42  2  0  0  0  0 
 34 42  1  0  0  0  0 
 22 42  1  0  0  0  0 
 39 43  1  0  0  0  0 
 12 44  1  0  0  0  0 
 44 45  1  0  0  0  0 
 44 46  1  0  0  0  0 
 44 47  1  0  0  0  0 
  5 47  1  0  0  0  0 
 47 48  2  0  0  0  0 
M  END
> <Rank>
16

> <Priority_score>
0.22

> <Reaction_type>
oxidation_(amine_in_a_ring)

> <Parent_ID>
33

> <Parent_InChI>
InChI=1S/C20H24ClN3S/c1-22-11-13-23(14-12-22)9-4-10-24-17-5-2-3-6-19(17)25-20-8-7-16(21)15-18(20)24/h2-3,5-8,15H,4,9-14H2,1H3

> <Parent_SMILES>
CN1CCN(CCCN2c3ccccc3Sc3ccc(Cl)cc32)CC1

$$$$
Molecule 33_metabolite 17
  CDK     0516241031

 50 52  0  0  0  0  0  0  0  0999 V2000
   -5.5428   11.1713    0.0000 C   0  0  0  0  0  0  0  0  0  0  0  0
   -6.8406   10.4191    0.0000 H   0  0  0  0  0  0  0  0  0  0  0  0
   -6.5089   12.3187    0.0000 H   0  0  0  0  0  0  0  0  0  0  0  0
   -4.5806   12.3220    0.0000 H   0  0  0  0  0  0  0  0  0  0  0  0
   -4.2425   10.4235    0.0000 N   0  0  0  0  0  0  0  0  0  0  0  0
   -2.9448   11.1756    0.0000 H   0  0  0  0  0  0  0  0  0  0  0  0
   -4.2400    8.9235    0.0000 C   0  0  0  0  0  0  0  0  0  0  0  0
   -5.7177    9.1815    0.0000 H   0  0  0  0  0  0  0  0  0  0  0  0
   -4.7507    7.5131    0.0000 H   0  0  0  0  0  0  0  0  0  0  0  0
   -2.9397    8.1756    0.0000 C   0  0  0  0  0  0  0  0  0  0  0  0
   -1.4621    7.9176    0.0000 H   0  0  0  0  0  0  0  0  0  0  0  0
   -2.4291    9.5860    0.0000 H   0  0  0  0  0  0  0  0  0  0  0  0
   -2.9364    6.1956    0.0000 N   0  0  0  0  0  0  0  0  0  0  0  0
   -1.2200    5.2085    0.0000 C   0  0  0  0  0  0  0  0  0  0  0  0
    0.2576    4.9505    0.0000 H   0  0  0  0  0  0  0  0  0  0  0  0
   -0.7094    6.6189    0.0000 H   0  0  0  0  0  0  0  0  0  0  0  0
   -1.2167    3.2285    0.0000 C   0  0  0  0  0  0  0  0  0  0  0  0
   -2.6944    3.4865    0.0000 H   0  0  0  0  0  0  0  0  0  0  0  0
   -1.7274    1.8181    0.0000 H   0  0  0  0  0  0  0  0  0  0  0  0
    0.0836    2.4807    0.0000 C   0  0  0  0  0  0  0  0  0  0  0  0
    1.5612    2.2227    0.0000 H   0  0  0  0  0  0  0  0  0  0  0  0
    0.5943    3.8911    0.0000 H   0  0  0  0  0  0  0  0  0  0  0  0
    0.0861    0.9807    0.0000 N   0  0  0  0  0  0  0  0  0  0  0  0
   -1.2039    0.2307    0.0000 C   0  0  0  0  0  0  0  0  0  0  0  0
   -1.2039   -1.2693    0.0000 C   0  0  0  0  0  0  0  0  0  0  0  0
   -2.5039   -2.0193    0.0000 C   0  0  0  0  0  0  0  0  0  0  0  0
   -2.5039   -3.5193    0.0000 H   0  0  0  0  0  0  0  0  0  0  0  0
   -3.8039   -1.2693    0.0000 C   0  0  0  0  0  0  0  0  0  0  0  0
   -5.1028   -2.0195    0.0000 H   0  0  0  0  0  0  0  0  0  0  0  0
   -3.8039    0.2307    0.0000 C   0  0  0  0  0  0  0  0  0  0  0  0
   -5.1028    0.9809    0.0000 H   0  0  0  0  0  0  0  0  0  0  0  0
   -2.5039    0.9807    0.0000 C   0  0  0  0  0  0  0  0  0  0  0  0
   -2.5039    2.4807    0.0000 H   0  0  0  0  0  0  0  0  0  0  0  0
    0.0861   -2.0193    0.0000 S   0  0  0  0  0  0  0  0  0  0  0  0
    1.3861   -1.2693    0.0000 C   0  0  0  0  0  0  0  0  0  0  0  0
    2.6861   -2.0193    0.0000 C   0  0  0  0  0  0  0  0  0  0  0  0
    2.6861   -3.5193    0.0000 H   0  0  0  0  0  0  0  0  0  0  0  0
    3.9861   -1.2693    0.0000 C   0  0  0  0  0  0  0  0  0  0  0  0
    5.2850   -2.0195    0.0000 H   0  0  0  0  0  0  0  0  0  0  0  0
    3.9861    0.2307    0.0000 C   0  0  0  0  0  0  0  0  0  0  0  0
    2.6861    0.9807    0.0000 C   0  0  0  0  0  0  0  0  0  0  0  0
    2.6861    2.4807    0.0000 H   0  0  0  0  0  0  0  0  0  0  0  0
    1.3861    0.2307    0.0000 C   0  0  0  0  0  0  0  0  0  0  0  0
    5.2850    0.9809    0.0000 Cl  0  0  0  0  0  0  0  0  0  0  0  0
   -4.6495    5.2028    0.0000 C   0  0  0  0  0  0  0  0  0  0  0  0
   -5.6117    4.0521    0.0000 H   0  0  0  0  0  0  0  0  0  0  0  0
   -3.6834    4.0553    0.0000 H   0  0  0  0  0  0  0  0  0  0  0  0
   -5.9498    5.9506    0.0000 C   0  0  0  0  0  0  0  0  0  0  0  0
   -5.9523    7.4506    0.0000 H   0  0  0  0  0  0  0  0  0  0  0  0
   -7.2476    5.1984    0.0000 O   0  0  0  0  0  0  0  0  0  0  0  0
  1  2  1  0  0  0  0 
  1  3  1  0  0  0  0 
  1  4  1  0  0  0  0 
  1  5  1  0  0  0  0 
  5  6  1  0  0  0  0 
  5  7  1  0  0  0  0 
  7  8  1  0  0  0  0 
  7  9  1  0  0  0  0 
  7 10  1  0  0  0  0 
 10 11  1  0  0  0  0 
 10 12  1  0  0  0  0 
 10 13  1  0  0  0  0 
 13 14  1  0  0  0  0 
 14 15  1  0  0  0  0 
 14 16  1  0  0  0  0 
 14 17  1  0  0  0  0 
 17 18  1  0  0  0  0 
 17 19  1  0  0  0  0 
 17 20  1  0  0  0  0 
 20 21  1  0  0  0  0 
 20 22  1  0  0  0  0 
 20 23  1  0  0  0  0 
 23 24  1  0  0  0  0 
 24 25  2  0  0  0  0 
 25 26  1  0  0  0  0 
 26 27  1  0  0  0  0 
 26 28  2  0  0  0  0 
 28 29  1  0  0  0  0 
 28 30  1  0  0  0  0 
 30 31  1  0  0  0  0 
 30 32  2  0  0  0  0 
 24 32  1  0  0  0  0 
 32 33  1  0  0  0  0 
 25 34  1  0  0  0  0 
 34 35  1  0  0  0  0 
 35 36  2  0  0  0  0 
 36 37  1  0  0  0  0 
 36 38  1  0  0  0  0 
 38 39  1  0  0  0  0 
 38 40  2  0  0  0  0 
 40 41  1  0  0  0  0 
 41 42  1  0  0  0  0 
 41 43  2  0  0  0  0 
 35 43  1  0  0  0  0 
 23 43  1  0  0  0  0 
 40 44  1  0  0  0  0 
 13 45  1  0  0  0  0 
 45 46  1  0  0  0  0 
 45 47  1  0  0  0  0 
 45 48  1  0  0  0  0 
 48 49  1  0  0  0  0 
 48 50  2  0  0  0  0 
M  END
> <Rank>
16

> <Priority_score>
0.22

> <Reaction_type>
N-dealkylation

> <Parent_ID>
33

> <Parent_InChI>
InChI=1S/C20H24ClN3S/c1-22-11-13-23(14-12-22)9-4-10-24-17-5-2-3-6-19(17)25-20-8-7-16(21)15-18(20)24/h2-3,5-8,15H,4,9-14H2,1H3

> <Parent_SMILES>
CN1CCN(CCCN2c3ccccc3Sc3ccc(Cl)cc32)CC1

$$$$
Molecule 33_metabolite 18
  CDK     0516241031

 50 53  0  0  0  0  0  0  0  0999 V2000
   -6.8381    8.9191    0.0000 C   0  0  0  0  0  0  0  0  0  0  0  0
   -6.8406   10.4191    0.0000 H   0  0  0  0  0  0  0  0  0  0  0  0
   -8.3157    9.1771    0.0000 H   0  0  0  0  0  0  0  0  0  0  0  0
   -7.3488    7.5087    0.0000 H   0  0  0  0  0  0  0  0  0  0  0  0
   -5.1217    7.9320    0.0000 N   0  0  0  0  0  0  0  0  0  0  0  0
   -3.8234    8.6850    0.0000 C   0  0  0  0  0  0  0  0  0  0  0  0
   -2.8613    9.8358    0.0000 H   0  0  0  0  0  0  0  0  0  0  0  0
   -4.7898    9.8322    0.0000 H   0  0  0  0  0  0  0  0  0  0  0  0
   -2.5232    7.9372    0.0000 C   0  0  0  0  0  0  0  0  0  0  0  0
   -1.0456    7.6789    0.0000 H   0  0  0  0  0  0  0  0  0  0  0  0
   -2.0123    9.3475    0.0000 H   0  0  0  0  0  0  0  0  0  0  0  0
   -2.5211    6.4363    0.0000 N   0  0  0  0  0  0  0  0  0  0  0  0
   -0.8047    5.4492    0.0000 C   0  0  0  0  0  0  0  0  0  0  0  0
    0.6729    5.1912    0.0000 H   0  0  0  0  0  0  0  0  0  0  0  0
    0.1575    6.5999    0.0000 H   0  0  0  0  0  0  0  0  0  0  0  0
   -0.8014    3.4692    0.0000 C   0  0  0  0  0  0  0  0  0  0  0  0
   -2.2791    3.7272    0.0000 H   0  0  0  0  0  0  0  0  0  0  0  0
   -1.3121    2.0588    0.0000 H   0  0  0  0  0  0  0  0  0  0  0  0
    0.9150    2.4821    0.0000 C   0  0  0  0  0  0  0  0  0  0  0  0
    2.3926    2.2241    0.0000 H   0  0  0  0  0  0  0  0  0  0  0  0
    1.4256    3.8925    0.0000 H   0  0  0  0  0  0  0  0  0  0  0  0
    0.9191    0.0221    0.0000 N   0  0  0  0  0  0  0  0  0  0  0  0
   -0.3709   -0.7279    0.0000 C   0  0  0  0  0  0  0  0  0  0  0  0
   -0.3709   -2.2279    0.0000 C   0  0  0  0  0  0  0  0  0  0  0  0
   -1.6709   -2.9779    0.0000 C   0  0  0  0  0  0  0  0  0  0  0  0
   -1.6709   -4.4779    0.0000 H   0  0  0  0  0  0  0  0  0  0  0  0
   -2.9709   -2.2279    0.0000 C   0  0  0  0  0  0  0  0  0  0  0  0
   -4.2698   -2.9781    0.0000 H   0  0  0  0  0  0  0  0  0  0  0  0
   -2.9709   -0.7279    0.0000 C   0  0  0  0  0  0  0  0  0  0  0  0
   -4.2698    0.0223    0.0000 H   0  0  0  0  0  0  0  0  0  0  0  0
   -1.6709    0.0221    0.0000 C   0  0  0  0  0  0  0  0  0  0  0  0
   -1.9314    1.4993    0.0000 H   0  0  0  0  0  0  0  0  0  0  0  0
    0.9191   -2.9779    0.0000 S   0  0  0  0  0  0  0  0  0  0  0  0
    2.2191   -2.2279    0.0000 C   0  0  0  0  0  0  0  0  0  0  0  0
    3.5191   -2.9779    0.0000 C   0  0  0  0  0  0  0  0  0  0  0  0
    3.5191   -4.4779    0.0000 H   0  0  0  0  0  0  0  0  0  0  0  0
    4.8191   -2.2279    0.0000 C   0  0  0  0  0  0  0  0  0  0  0  0
    6.1180   -2.9781    0.0000 H   0  0  0  0  0  0  0  0  0  0  0  0
    4.8191   -0.7279    0.0000 C   0  0  0  0  0  0  0  0  0  0  0  0
    3.5191    0.0221    0.0000 C   0  0  0  0  0  0  0  0  0  0  0  0
    3.5191    1.5221    0.0000 H   0  0  0  0  0  0  0  0  0  0  0  0
    2.2191   -0.7279    0.0000 C   0  0  0  0  0  0  0  0  0  0  0  0
    6.1180    0.0223    0.0000 Cl  0  0  0  0  0  0  0  0  0  0  0  0
   -3.8194    5.6833    0.0000 C   0  0  0  0  0  0  0  0  0  0  0  0
   -4.7815    4.5325    0.0000 H   0  0  0  0  0  0  0  0  0  0  0  0
   -2.8530    4.5361    0.0000 H   0  0  0  0  0  0  0  0  0  0  0  0
   -5.1197    6.4312    0.0000 C   0  0  0  0  0  0  0  0  0  0  0  0
   -6.5973    6.6895    0.0000 H   0  0  0  0  0  0  0  0  0  0  0  0
   -5.6305    5.0208    0.0000 O   0  0  0  0  0  0  0  0  0  0  0  0
   -7.1073    4.7580    0.0000 H   0  0  0  0  0  0  0  0  0  0  0  0
  1  2  1  0  0  0  0 
  1  3  1  0  0  0  0 
  1  4  1  0  0  0  0 
  1  5  1  0  0  0  0 
  5  6  1  0  0  0  0 
  6  7  1  0  0  0  0 
  6  8  1  0  0  0  0 
  6  9  1  0  0  0  0 
  9 10  1  0  0  0  0 
  9 11  1  0  0  0  0 
  9 12  1  0  0  0  0 
 12 13  1  0  0  0  0 
 13 14  1  0  0  0  0 
 13 15  1  0  0  0  0 
 13 16  1  0  0  0  0 
 16 17  1  0  0  0  0 
 16 18  1  0  0  0  0 
 16 19  1  0  0  0  0 
 19 20  1  0  0  0  0 
 19 21  1  0  0  0  0 
 19 22  1  0  0  0  0 
 22 23  1  0  0  0  0 
 23 24  2  0  0  0  0 
 24 25  1  0  0  0  0 
 25 26  1  0  0  0  0 
 25 27  2  0  0  0  0 
 27 28  1  0  0  0  0 
 27 29  1  0  0  0  0 
 29 30  1  0  0  0  0 
 29 31  2  0  0  0  0 
 23 31  1  0  0  0  0 
 31 32  1  0  0  0  0 
 24 33  1  0  0  0  0 
 33 34  1  0  0  0  0 
 34 35  2  0  0  0  0 
 35 36  1  0  0  0  0 
 35 37  1  0  0  0  0 
 37 38  1  0  0  0  0 
 37 39  2  0  0  0  0 
 39 40  1  0  0  0  0 
 40 41  1  0  0  0  0 
 40 42  2  0  0  0  0 
 34 42  1  0  0  0  0 
 22 42  1  0  0  0  0 
 39 43  1  0  0  0  0 
 12 44  1  0  0  0  0 
 44 45  1  0  0  0  0 
 44 46  1  0  0  0  0 
 44 47  1  0  0  0  0 
  5 47  1  0  0  0  0 
 47 48  1  0  0  0  0 
 47 49  1  0  0  0  0 
 49 50  1  0  0  0  0 
M  END
> <Rank>
16

> <Priority_score>
0.22

> <Reaction_type>
aliphatic_hydroxylation_(sec_carbon_next_to_SP2,in_a_ring)

> <Parent_ID>
33

> <Parent_InChI>
InChI=1S/C20H24ClN3S/c1-22-11-13-23(14-12-22)9-4-10-24-17-5-2-3-6-19(17)25-20-8-7-16(21)15-18(20)24/h2-3,5-8,15H,4,9-14H2,1H3

> <Parent_SMILES>
CN1CCN(CCCN2c3ccccc3Sc3ccc(Cl)cc32)CC1

$$$$
Molecule 33_metabolite 19
  CDK     0516241031

 50 53  0  0  0  0  0  0  0  0999 V2000
   -8.9129    6.7556    0.0000 C   0  0  0  0  0  0  0  0  0  0  0  0
   -8.9154    8.2556    0.0000 H   0  0  0  0  0  0  0  0  0  0  0  0
  -10.3906    7.0136    0.0000 H   0  0  0  0  0  0  0  0  0  0  0  0
   -9.4236    5.3452    0.0000 H   0  0  0  0  0  0  0  0  0  0  0  0
   -7.1965    5.7685    0.0000 N   0  0  0  0  0  0  0  0  0  0  0  0
   -5.8983    6.5215    0.0000 C   0  0  0  0  0  0  0  0  0  0  0  0
   -4.9362    7.6723    0.0000 H   0  0  0  0  0  0  0  0  0  0  0  0
   -6.8646    7.6688    0.0000 H   0  0  0  0  0  0  0  0  0  0  0  0
   -4.5980    5.7737    0.0000 C   0  0  0  0  0  0  0  0  0  0  0  0
   -3.1204    5.5154    0.0000 H   0  0  0  0  0  0  0  0  0  0  0  0
   -4.0872    7.1840    0.0000 H   0  0  0  0  0  0  0  0  0  0  0  0
   -4.5960    4.2729    0.0000 N   0  0  0  0  0  0  0  0  0  0  0  0
   -2.8796    3.2857    0.0000 C   0  0  0  0  0  0  0  0  0  0  0  0
   -1.9135    2.1383    0.0000 H   0  0  0  0  0  0  0  0  0  0  0  0
   -3.8418    2.1351    0.0000 H   0  0  0  0  0  0  0  0  0  0  0  0
   -1.1665    4.2786    0.0000 C   0  0  0  0  0  0  0  0  0  0  0  0
   -2.1326    5.4261    0.0000 H   0  0  0  0  0  0  0  0  0  0  0  0
   -0.2043    5.4293    0.0000 H   0  0  0  0  0  0  0  0  0  0  0  0
    0.5499    3.2915    0.0000 C   0  0  0  0  0  0  0  0  0  0  0  0
    1.5160    2.1440    0.0000 H   0  0  0  0  0  0  0  0  0  0  0  0
   -0.4124    2.1408    0.0000 H   0  0  0  0  0  0  0  0  0  0  0  0
    3.0935    4.7657    0.0000 N   0  0  0  0  0  0  0  0  0  0  0  0
    3.0931    6.2579    0.0000 C   0  0  0  0  0  0  0  0  0  0  0  0
    4.3896    7.0123    0.0000 C   0  0  0  0  0  0  0  0  0  0  0  0
    4.3841    8.5131    0.0000 C   0  0  0  0  0  0  0  0  0  0  0  0
    5.6806    9.2674    0.0000 H   0  0  0  0  0  0  0  0  0  0  0  0
    3.0820    9.2596    0.0000 C   0  0  0  0  0  0  0  0  0  0  0  0
    3.0773   10.7596    0.0000 H   0  0  0  0  0  0  0  0  0  0  0  0
    1.7855    8.5052    0.0000 C   0  0  0  0  0  0  0  0  0  0  0  0
    0.4839    9.2507    0.0000 H   0  0  0  0  0  0  0  0  0  0  0  0
    1.7910    7.0044    0.0000 C   0  0  0  0  0  0  0  0  0  0  0  0
    0.4945    6.2500    0.0000 H   0  0  0  0  0  0  0  0  0  0  0  0
    5.6866    6.2744    0.0000 S   0  0  0  0  0  0  0  0  0  0  0  0
    5.6921    4.7736    0.0000 C   0  0  0  0  0  0  0  0  0  0  0  0
    6.9941    4.0271    0.0000 C   0  0  0  0  0  0  0  0  0  0  0  0
    8.2906    4.7815    0.0000 H   0  0  0  0  0  0  0  0  0  0  0  0
    6.9996    2.5263    0.0000 C   0  0  0  0  0  0  0  0  0  0  0  0
    8.3013    1.7809    0.0000 H   0  0  0  0  0  0  0  0  0  0  0  0
    5.7031    1.7720    0.0000 C   0  0  0  0  0  0  0  0  0  0  0  0
    4.4011    2.5184    0.0000 C   0  0  0  0  0  0  0  0  0  0  0  0
    3.1045    1.7641    0.0000 H   0  0  0  0  0  0  0  0  0  0  0  0
    4.3956    4.0193    0.0000 C   0  0  0  0  0  0  0  0  0  0  0  0
    5.7079    0.2720    0.0000 Cl  0  0  0  0  0  0  0  0  0  0  0  0
   -5.8942    3.5199    0.0000 C   0  0  0  0  0  0  0  0  0  0  0  0
   -6.8564    2.3691    0.0000 H   0  0  0  0  0  0  0  0  0  0  0  0
   -7.1945    4.2677    0.0000 C   0  0  0  0  0  0  0  0  0  0  0  0
   -8.6721    4.5260    0.0000 H   0  0  0  0  0  0  0  0  0  0  0  0
   -7.7053    2.8573    0.0000 H   0  0  0  0  0  0  0  0  0  0  0  0
   -5.3785    2.1113    0.0000 O   0  0  0  0  0  0  0  0  0  0  0  0
   -6.3405    0.9604    0.0000 H   0  0  0  0  0  0  0  0  0  0  0  0
  1  2  1  0  0  0  0 
  1  3  1  0  0  0  0 
  1  4  1  0  0  0  0 
  1  5  1  0  0  0  0 
  5  6  1  0  0  0  0 
  6  7  1  0  0  0  0 
  6  8  1  0  0  0  0 
  6  9  1  0  0  0  0 
  9 10  1  0  0  0  0 
  9 11  1  0  0  0  0 
  9 12  1  0  0  0  0 
 12 13  1  0  0  0  0 
 13 14  1  0  0  0  0 
 13 15  1  0  0  0  0 
 13 16  1  0  0  0  0 
 16 17  1  0  0  0  0 
 16 18  1  0  0  0  0 
 16 19  1  0  0  0  0 
 19 20  1  0  0  0  0 
 19 21  1  0  0  0  0 
 19 22  1  0  0  0  0 
 22 23  1  0  0  0  0 
 23 24  2  0  0  0  0 
 24 25  1  0  0  0  0 
 25 26  1  0  0  0  0 
 25 27  2  0  0  0  0 
 27 28  1  0  0  0  0 
 27 29  1  0  0  0  0 
 29 30  1  0  0  0  0 
 29 31  2  0  0  0  0 
 23 31  1  0  0  0  0 
 31 32  1  0  0  0  0 
 24 33  1  0  0  0  0 
 33 34  1  0  0  0  0 
 34 35  2  0  0  0  0 
 35 36  1  0  0  0  0 
 35 37  1  0  0  0  0 
 37 38  1  0  0  0  0 
 37 39  2  0  0  0  0 
 39 40  1  0  0  0  0 
 40 41  1  0  0  0  0 
 40 42  2  0  0  0  0 
 34 42  1  0  0  0  0 
 22 42  1  0  0  0  0 
 39 43  1  0  0  0  0 
 12 44  1  0  0  0  0 
 44 45  1  0  0  0  0 
 44 46  1  0  0  0  0 
  5 46  1  0  0  0  0 
 46 47  1  0  0  0  0 
 46 48  1  0  0  0  0 
 44 49  1  0  0  0  0 
 49 50  1  0  0  0  0 
M  END
> <Rank>
19

> <Priority_score>
0.172

> <Reaction_type>
aliphatic_hydroxylation_(sec_carbon_next_to_SP2,in_a_ring)

> <Parent_ID>
33

> <Parent_InChI>
InChI=1S/C20H24ClN3S/c1-22-11-13-23(14-12-22)9-4-10-24-17-5-2-3-6-19(17)25-20-8-7-16(21)15-18(20)24/h2-3,5-8,15H,4,9-14H2,1H3

> <Parent_SMILES>
CN1CCN(CCCN2c3ccccc3Sc3ccc(Cl)cc32)CC1

$$$$
Molecule 33_metabolite 20
  CDK     0516241031

 48 51  0  0  0  0  0  0  0  0999 V2000
   -6.8365    7.9591    0.0000 C   0  0  0  0  0  0  0  0  0  0  0  0
   -6.8390    9.4591    0.0000 H   0  0  0  0  0  0  0  0  0  0  0  0
   -8.3141    8.2171    0.0000 H   0  0  0  0  0  0  0  0  0  0  0  0
   -7.3472    6.5487    0.0000 H   0  0  0  0  0  0  0  0  0  0  0  0
   -5.1201    6.9720    0.0000 N   0  0  0  0  0  0  0  0  0  0  0  0
   -3.8218    7.7250    0.0000 C   0  0  0  0  0  0  0  0  0  0  0  0
   -2.8597    8.8758    0.0000 H   0  0  0  0  0  0  0  0  0  0  0  0
   -4.7882    8.8722    0.0000 H   0  0  0  0  0  0  0  0  0  0  0  0
   -2.5215    6.9772    0.0000 C   0  0  0  0  0  0  0  0  0  0  0  0
   -1.0440    6.7189    0.0000 H   0  0  0  0  0  0  0  0  0  0  0  0
   -2.0107    8.3875    0.0000 H   0  0  0  0  0  0  0  0  0  0  0  0
   -2.5195    5.4763    0.0000 N   0  0  0  0  0  0  0  0  0  0  0  0
   -0.8031    4.4892    0.0000 C   0  0  0  0  0  0  0  0  0  0  0  0
    0.6745    4.2312    0.0000 H   0  0  0  0  0  0  0  0  0  0  0  0
   -0.2925    5.8996    0.0000 H   0  0  0  0  0  0  0  0  0  0  0  0
   -0.7998    2.5092    0.0000 C   0  0  0  0  0  0  0  0  0  0  0  0
   -2.2775    2.7672    0.0000 H   0  0  0  0  0  0  0  0  0  0  0  0
   -1.3105    1.0988    0.0000 H   0  0  0  0  0  0  0  0  0  0  0  0
    0.5005    1.7614    0.0000 C   0  0  0  0  0  0  0  0  0  0  0  0
    1.9781    1.5034    0.0000 H   0  0  0  0  0  0  0  0  0  0  0  0
    1.0111    3.1718    0.0000 H   0  0  0  0  0  0  0  0  0  0  0  0
    0.5030    0.2614    0.0000 N   0  0  0  0  0  0  0  0  0  0  0  0
   -0.7870   -0.4886    0.0000 C   0  0  0  0  0  0  0  0  0  0  0  0
   -0.7870   -1.9886    0.0000 C   0  0  0  0  0  0  0  0  0  0  0  0
   -2.0870   -2.7386    0.0000 C   0  0  0  0  0  0  0  0  0  0  0  0
   -2.0870   -4.2386    0.0000 H   0  0  0  0  0  0  0  0  0  0  0  0
   -3.3870   -1.9886    0.0000 C   0  0  0  0  0  0  0  0  0  0  0  0
   -4.6859   -2.7388    0.0000 H   0  0  0  0  0  0  0  0  0  0  0  0
   -3.3870   -0.4886    0.0000 C   0  0  0  0  0  0  0  0  0  0  0  0
   -4.6859    0.2616    0.0000 H   0  0  0  0  0  0  0  0  0  0  0  0
   -2.0870    0.2614    0.0000 C   0  0  0  0  0  0  0  0  0  0  0  0
   -2.0870    1.7614    0.0000 H   0  0  0  0  0  0  0  0  0  0  0  0
    0.5030   -2.7386    0.0000 S   0  0  0  0  0  0  0  0  0  0  0  0
    1.8030   -1.9886    0.0000 C   0  0  0  0  0  0  0  0  0  0  0  0
    3.1030   -2.7386    0.0000 C   0  0  0  0  0  0  0  0  0  0  0  0
    3.1030   -4.2386    0.0000 H   0  0  0  0  0  0  0  0  0  0  0  0
    4.4030   -1.9886    0.0000 C   0  0  0  0  0  0  0  0  0  0  0  0
    5.7019   -2.7388    0.0000 H   0  0  0  0  0  0  0  0  0  0  0  0
    4.4030   -0.4886    0.0000 C   0  0  0  0  0  0  0  0  0  0  0  0
    3.1030    0.2614    0.0000 C   0  0  0  0  0  0  0  0  0  0  0  0
    3.1030    1.7614    0.0000 H   0  0  0  0  0  0  0  0  0  0  0  0
    1.8030   -0.4886    0.0000 C   0  0  0  0  0  0  0  0  0  0  0  0
    5.7019    0.2616    0.0000 Cl  0  0  0  0  0  0  0  0  0  0  0  0
   -3.8178    4.7233    0.0000 C   0  0  0  0  0  0  0  0  0  0  0  0
   -3.8150    3.2233    0.0000 O   0  0  0  0  0  0  0  0  0  0  0  0
   -5.1181    5.4712    0.0000 C   0  0  0  0  0  0  0  0  0  0  0  0
   -6.5957    5.7295    0.0000 H   0  0  0  0  0  0  0  0  0  0  0  0
   -5.6289    4.0608    0.0000 H   0  0  0  0  0  0  0  0  0  0  0  0
  1  2  1  0  0  0  0 
  1  3  1  0  0  0  0 
  1  4  1  0  0  0  0 
  1  5  1  0  0  0  0 
  5  6  1  0  0  0  0 
  6  7  1  0  0  0  0 
  6  8  1  0  0  0  0 
  6  9  1  0  0  0  0 
  9 10  1  0  0  0  0 
  9 11  1  0  0  0  0 
  9 12  1  0  0  0  0 
 12 13  1  0  0  0  0 
 13 14  1  0  0  0  0 
 13 15  1  0  0  0  0 
 13 16  1  0  0  0  0 
 16 17  1  0  0  0  0 
 16 18  1  0  0  0  0 
 16 19  1  0  0  0  0 
 19 20  1  0  0  0  0 
 19 21  1  0  0  0  0 
 19 22  1  0  0  0  0 
 22 23  1  0  0  0  0 
 23 24  2  0  0  0  0 
 24 25  1  0  0  0  0 
 25 26  1  0  0  0  0 
 25 27  2  0  0  0  0 
 27 28  1  0  0  0  0 
 27 29  1  0  0  0  0 
 29 30  1  0  0  0  0 
 29 31  2  0  0  0  0 
 23 31  1  0  0  0  0 
 31 32  1  0  0  0  0 
 24 33  1  0  0  0  0 
 33 34  1  0  0  0  0 
 34 35  2  0  0  0  0 
 35 36  1  0  0  0  0 
 35 37  1  0  0  0  0 
 37 38  1  0  0  0  0 
 37 39  2  0  0  0  0 
 39 40  1  0  0  0  0 
 40 41  1  0  0  0  0 
 40 42  2  0  0  0  0 
 34 42  1  0  0  0  0 
 22 42  1  0  0  0  0 
 39 43  1  0  0  0  0 
 12 44  1  0  0  0  0 
 44 45  2  0  0  0  0 
 44 46  1  0  0  0  0 
  5 46  1  0  0  0  0 
 46 47  1  0  0  0  0 
 46 48  1  0  0  0  0 
M  END
> <Rank>
19

> <Priority_score>
0.172

> <Reaction_type>
oxidation_(amine_in_a_ring)

> <Parent_ID>
33

> <Parent_InChI>
InChI=1S/C20H24ClN3S/c1-22-11-13-23(14-12-22)9-4-10-24-17-5-2-3-6-19(17)25-20-8-7-16(21)15-18(20)24/h2-3,5-8,15H,4,9-14H2,1H3

> <Parent_SMILES>
CN1CCN(CCCN2c3ccccc3Sc3ccc(Cl)cc32)CC1

$$$$
Molecule 33_metabolite 21
  CDK     0516241031

 50 52  0  0  0  0  0  0  0  0999 V2000
   -2.5270    9.9763    0.0000 C   0  0  0  0  0  0  0  0  0  0  0  0
   -1.2268    9.2285    0.0000 H   0  0  0  0  0  0  0  0  0  0  0  0
   -3.4932   11.1238    0.0000 H   0  0  0  0  0  0  0  0  0  0  0  0
   -1.5648   11.1270    0.0000 H   0  0  0  0  0  0  0  0  0  0  0  0
   -3.8248    9.2242    0.0000 N   0  0  0  0  0  0  0  0  0  0  0  0
   -3.8223    7.7242    0.0000 C   0  0  0  0  0  0  0  0  0  0  0  0
   -5.3000    7.9822    0.0000 H   0  0  0  0  0  0  0  0  0  0  0  0
   -4.3330    6.3138    0.0000 H   0  0  0  0  0  0  0  0  0  0  0  0
   -2.5220    6.9763    0.0000 C   0  0  0  0  0  0  0  0  0  0  0  0
   -1.0444    6.7183    0.0000 H   0  0  0  0  0  0  0  0  0  0  0  0
   -2.0114    8.3867    0.0000 H   0  0  0  0  0  0  0  0  0  0  0  0
   -2.5195    5.4763    0.0000 N   0  0  0  0  0  0  0  0  0  0  0  0
   -3.8173    4.7242    0.0000 H   0  0  0  0  0  0  0  0  0  0  0  0
   -0.8031    4.4892    0.0000 C   0  0  0  0  0  0  0  0  0  0  0  0
    0.6745    4.2312    0.0000 H   0  0  0  0  0  0  0  0  0  0  0  0
   -0.2925    5.8996    0.0000 H   0  0  0  0  0  0  0  0  0  0  0  0
   -0.7998    2.5092    0.0000 C   0  0  0  0  0  0  0  0  0  0  0  0
   -2.2775    2.7672    0.0000 H   0  0  0  0  0  0  0  0  0  0  0  0
   -1.3105    1.0988    0.0000 H   0  0  0  0  0  0  0  0  0  0  0  0
    0.5005    1.7614    0.0000 C   0  0  0  0  0  0  0  0  0  0  0  0
    1.9781    1.5034    0.0000 H   0  0  0  0  0  0  0  0  0  0  0  0
    1.0111    3.1718    0.0000 H   0  0  0  0  0  0  0  0  0  0  0  0
    0.5030    0.2614    0.0000 N   0  0  0  0  0  0  0  0  0  0  0  0
   -0.7870   -0.4886    0.0000 C   0  0  0  0  0  0  0  0  0  0  0  0
   -0.7870   -1.9886    0.0000 C   0  0  0  0  0  0  0  0  0  0  0  0
   -2.0870   -2.7386    0.0000 C   0  0  0  0  0  0  0  0  0  0  0  0
   -2.0870   -4.2386    0.0000 H   0  0  0  0  0  0  0  0  0  0  0  0
   -3.3870   -1.9886    0.0000 C   0  0  0  0  0  0  0  0  0  0  0  0
   -4.6859   -2.7388    0.0000 H   0  0  0  0  0  0  0  0  0  0  0  0
   -3.3870   -0.4886    0.0000 C   0  0  0  0  0  0  0  0  0  0  0  0
   -4.6859    0.2616    0.0000 H   0  0  0  0  0  0  0  0  0  0  0  0
   -2.0870    0.2614    0.0000 C   0  0  0  0  0  0  0  0  0  0  0  0
   -2.0870    1.7614    0.0000 H   0  0  0  0  0  0  0  0  0  0  0  0
    0.5030   -2.7386    0.0000 S   0  0  0  0  0  0  0  0  0  0  0  0
    1.8030   -1.9886    0.0000 C   0  0  0  0  0  0  0  0  0  0  0  0
    3.1030   -2.7386    0.0000 C   0  0  0  0  0  0  0  0  0  0  0  0
    3.1030   -4.2386    0.0000 H   0  0  0  0  0  0  0  0  0  0  0  0
    4.4030   -1.9886    0.0000 C   0  0  0  0  0  0  0  0  0  0  0  0
    5.7019   -2.7388    0.0000 H   0  0  0  0  0  0  0  0  0  0  0  0
    4.4030   -0.4886    0.0000 C   0  0  0  0  0  0  0  0  0  0  0  0
    3.1030    0.2614    0.0000 C   0  0  0  0  0  0  0  0  0  0  0  0
    3.1030    1.7614    0.0000 H   0  0  0  0  0  0  0  0  0  0  0  0
    1.8030   -0.4886    0.0000 C   0  0  0  0  0  0  0  0  0  0  0  0
    5.7019    0.2616    0.0000 Cl  0  0  0  0  0  0  0  0  0  0  0  0
   -5.5412   10.2113    0.0000 C   0  0  0  0  0  0  0  0  0  0  0  0
   -6.5073   11.3587    0.0000 H   0  0  0  0  0  0  0  0  0  0  0  0
   -4.5790   11.3620    0.0000 H   0  0  0  0  0  0  0  0  0  0  0  0
   -6.8390    9.4591    0.0000 C   0  0  0  0  0  0  0  0  0  0  0  0
   -8.1393   10.2069    0.0000 H   0  0  0  0  0  0  0  0  0  0  0  0
   -6.8365    7.9591    0.0000 O   0  0  0  0  0  0  0  0  0  0  0  0
  1  2  1  0  0  0  0 
  1  3  1  0  0  0  0 
  1  4  1  0  0  0  0 
  1  5  1  0  0  0  0 
  5  6  1  0  0  0  0 
  6  7  1  0  0  0  0 
  6  8  1  0  0  0  0 
  6  9  1  0  0  0  0 
  9 10  1  0  0  0  0 
  9 11  1  0  0  0  0 
  9 12  1  0  0  0  0 
 12 13  1  0  0  0  0 
 12 14  1  0  0  0  0 
 14 15  1  0  0  0  0 
 14 16  1  0  0  0  0 
 14 17  1  0  0  0  0 
 17 18  1  0  0  0  0 
 17 19  1  0  0  0  0 
 17 20  1  0  0  0  0 
 20 21  1  0  0  0  0 
 20 22  1  0  0  0  0 
 20 23  1  0  0  0  0 
 23 24  1  0  0  0  0 
 24 25  2  0  0  0  0 
 25 26  1  0  0  0  0 
 26 27  1  0  0  0  0 
 26 28  2  0  0  0  0 
 28 29  1  0  0  0  0 
 28 30  1  0  0  0  0 
 30 31  1  0  0  0  0 
 30 32  2  0  0  0  0 
 24 32  1  0  0  0  0 
 32 33  1  0  0  0  0 
 25 34  1  0  0  0  0 
 34 35  1  0  0  0  0 
 35 36  2  0  0  0  0 
 36 37  1  0  0  0  0 
 36 38  1  0  0  0  0 
 38 39  1  0  0  0  0 
 38 40  2  0  0  0  0 
 40 41  1  0  0  0  0 
 41 42  1  0  0  0  0 
 41 43  2  0  0  0  0 
 35 43  1  0  0  0  0 
 23 43  1  0  0  0  0 
 40 44  1  0  0  0  0 
  5 45  1  0  0  0  0 
 45 46  1  0  0  0  0 
 45 47  1  0  0  0  0 
 45 48  1  0  0  0  0 
 48 49  1  0  0  0  0 
 48 50  2  0  0  0  0 
M  END
> <Rank>
19

> <Priority_score>
0.172

> <Reaction_type>
N-dealkylation

> <Parent_ID>
33

> <Parent_InChI>
InChI=1S/C20H24ClN3S/c1-22-11-13-23(14-12-22)9-4-10-24-17-5-2-3-6-19(17)25-20-8-7-16(21)15-18(20)24/h2-3,5-8,15H,4,9-14H2,1H3

> <Parent_SMILES>
CN1CCN(CCCN2c3ccccc3Sc3ccc(Cl)cc32)CC1

$$$$
Molecule 33_metabolite 22
  CDK     0516241031

 23 25  0  0  0  0  0  0  0  0999 V2000
   -3.9000    0.7500    0.0000 C   0  0  0  0  0  0  0  0  0  0  0  0
   -5.1989    1.5002    0.0000 H   0  0  0  0  0  0  0  0  0  0  0  0
   -2.6000    1.5000    0.0000 C   0  0  0  0  0  0  0  0  0  0  0  0
   -2.6000    3.0000    0.0000 H   0  0  0  0  0  0  0  0  0  0  0  0
   -1.3000    0.7500    0.0000 C   0  0  0  0  0  0  0  0  0  0  0  0
   -1.3000   -0.7500    0.0000 C   0  0  0  0  0  0  0  0  0  0  0  0
   -2.6000   -1.5000    0.0000 C   0  0  0  0  0  0  0  0  0  0  0  0
   -2.6000   -3.0000    0.0000 H   0  0  0  0  0  0  0  0  0  0  0  0
   -3.9000   -0.7500    0.0000 C   0  0  0  0  0  0  0  0  0  0  0  0
   -5.1989   -1.5002    0.0000 H   0  0  0  0  0  0  0  0  0  0  0  0
   -0.0000   -1.5000    0.0000 S   0  0  0  0  0  0  0  0  0  0  0  0
    1.3000   -0.7500    0.0000 C   0  0  0  0  0  0  0  0  0  0  0  0
    2.6000   -1.5000    0.0000 C   0  0  0  0  0  0  0  0  0  0  0  0
    2.6000   -3.0000    0.0000 H   0  0  0  0  0  0  0  0  0  0  0  0
    3.9000   -0.7500    0.0000 C   0  0  0  0  0  0  0  0  0  0  0  0
    5.1989   -1.5002    0.0000 H   0  0  0  0  0  0  0  0  0  0  0  0
    3.9000    0.7500    0.0000 C   0  0  0  0  0  0  0  0  0  0  0  0
    2.6000    1.5000    0.0000 C   0  0  0  0  0  0  0  0  0  0  0  0
    2.6000    3.0000    0.0000 H   0  0  0  0  0  0  0  0  0  0  0  0
    1.3000    0.7500    0.0000 C   0  0  0  0  0  0  0  0  0  0  0  0
   -0.0000    1.5000    0.0000 N   0  0  0  0  0  0  0  0  0  0  0  0
    0.0000    3.0000    0.0000 H   0  0  0  0  0  0  0  0  0  0  0  0
    5.1989    1.5002    0.0000 Cl  0  0  0  0  0  0  0  0  0  0  0  0
  1  2  1  0  0  0  0 
  1  3  2  0  0  0  0 
  3  4  1  0  0  0  0 
  3  5  1  0  0  0  0 
  5  6  2  0  0  0  0 
  6  7  1  0  0  0  0 
  7  8  1  0  0  0  0 
  7  9  2  0  0  0  0 
  1  9  1  0  0  0  0 
  9 10  1  0  0  0  0 
  6 11  1  0  0  0  0 
 11 12  1  0  0  0  0 
 12 13  2  0  0  0  0 
 13 14  1  0  0  0  0 
 13 15  1  0  0  0  0 
 15 16  1  0  0  0  0 
 15 17  2  0  0  0  0 
 17 18  1  0  0  0  0 
 18 19  1  0  0  0  0 
 18 20  2  0  0  0  0 
 12 20  1  0  0  0  0 
 20 21  1  0  0  0  0 
  5 21  1  0  0  0  0 
 21 22  1  0  0  0  0 
 17 23  1  0  0  0  0 
M  END
> <Rank>
22

> <Priority_score>
0.148

> <Reaction_type>
N-dealkylation_(tertiaryN-CH2-alkyl)

> <Parent_ID>
33

> <Parent_InChI>
InChI=1S/C20H24ClN3S/c1-22-11-13-23(14-12-22)9-4-10-24-17-5-2-3-6-19(17)25-20-8-7-16(21)15-18(20)24/h2-3,5-8,15H,4,9-14H2,1H3

> <Parent_SMILES>
CN1CCN(CCCN2c3ccccc3Sc3ccc(Cl)cc32)CC1

$$$$
Molecule 33_metabolite 23
  CDK     0516241031

 50 53  0  0  0  0  0  0  0  0999 V2000
   -7.9699    7.6107    0.0000 C   0  0  0  0  0  0  0  0  0  0  0  0
   -7.9724    9.1107    0.0000 H   0  0  0  0  0  0  0  0  0  0  0  0
   -9.4475    7.8687    0.0000 H   0  0  0  0  0  0  0  0  0  0  0  0
   -8.4805    6.2003    0.0000 H   0  0  0  0  0  0  0  0  0  0  0  0
   -6.2535    6.6235    0.0000 N   0  0  0  0  0  0  0  0  0  0  0  0
   -6.2507    5.1227    0.0000 C   0  0  0  0  0  0  0  0  0  0  0  0
   -7.7284    5.3808    0.0000 H   0  0  0  0  0  0  0  0  0  0  0  0
   -6.7618    3.7124    0.0000 H   0  0  0  0  0  0  0  0  0  0  0  0
   -4.9501    4.3738    0.0000 C   0  0  0  0  0  0  0  0  0  0  0  0
   -5.9128    3.2235    0.0000 H   0  0  0  0  0  0  0  0  0  0  0  0
   -3.3662    2.4916    0.0000 H   0  0  0  0  0  0  0  0  0  0  0  0
   -3.6522    5.1258    0.0000 N   0  0  0  0  0  0  0  0  0  0  0  0
   -1.1036    3.6601    0.0000 C   0  0  0  0  0  0  0  0  0  0  0  0
   -0.1375    2.5126    0.0000 H   0  0  0  0  0  0  0  0  0  0  0  0
   -2.9896    1.4047    0.0000 H   0  0  0  0  0  0  0  0  0  0  0  0
    0.6095    4.6529    0.0000 C   0  0  0  0  0  0  0  0  0  0  0  0
   -0.3566    5.8004    0.0000 H   0  0  0  0  0  0  0  0  0  0  0  0
    1.5717    5.8036    0.0000 H   0  0  0  0  0  0  0  0  0  0  0  0
    1.9098    3.9051    0.0000 C   0  0  0  0  0  0  0  0  0  0  0  0
    2.8759    2.7577    0.0000 H   0  0  0  0  0  0  0  0  0  0  0  0
    3.2075    4.6573    0.0000 N   0  0  0  0  0  0  0  0  0  0  0  0
    3.2071    6.1495    0.0000 C   0  0  0  0  0  0  0  0  0  0  0  0
    4.5036    6.9038    0.0000 C   0  0  0  0  0  0  0  0  0  0  0  0
    4.4981    8.4046    0.0000 C   0  0  0  0  0  0  0  0  0  0  0  0
    5.7946    9.1590    0.0000 H   0  0  0  0  0  0  0  0  0  0  0  0
    3.1961    9.1511    0.0000 C   0  0  0  0  0  0  0  0  0  0  0  0
    3.1913   10.6511    0.0000 H   0  0  0  0  0  0  0  0  0  0  0  0
    1.8995    8.3968    0.0000 C   0  0  0  0  0  0  0  0  0  0  0  0
    0.5979    9.1422    0.0000 H   0  0  0  0  0  0  0  0  0  0  0  0
    1.9050    6.8959    0.0000 C   0  0  0  0  0  0  0  0  0  0  0  0
    0.6085    6.1416    0.0000 H   0  0  0  0  0  0  0  0  0  0  0  0
    5.8006    6.1660    0.0000 S   0  0  0  0  0  0  0  0  0  0  0  0
    5.8061    4.6652    0.0000 C   0  0  0  0  0  0  0  0  0  0  0  0
    7.1081    3.9187    0.0000 C   0  0  0  0  0  0  0  0  0  0  0  0
    8.4046    4.6730    0.0000 H   0  0  0  0  0  0  0  0  0  0  0  0
    7.1136    2.4179    0.0000 C   0  0  0  0  0  0  0  0  0  0  0  0
    8.4153    1.6724    0.0000 H   0  0  0  0  0  0  0  0  0  0  0  0
    5.8171    1.6635    0.0000 C   0  0  0  0  0  0  0  0  0  0  0  0
    4.5151    2.4100    0.0000 C   0  0  0  0  0  0  0  0  0  0  0  0
    3.2186    1.6556    0.0000 H   0  0  0  0  0  0  0  0  0  0  0  0
    4.5096    3.9108    0.0000 C   0  0  0  0  0  0  0  0  0  0  0  0
    5.8219    0.1635    0.0000 Cl  0  0  0  0  0  0  0  0  0  0  0  0
    0.6396    2.3862    0.0000 O   0  0  0  0  0  0  0  0  0  0  0  0
    1.6057    1.2388    0.0000 H   0  0  0  0  0  0  0  0  0  0  0  0
   -3.6549    6.6266    0.0000 C   0  0  0  0  0  0  0  0  0  0  0  0
   -2.1773    6.3686    0.0000 H   0  0  0  0  0  0  0  0  0  0  0  0
   -3.1439    8.0369    0.0000 H   0  0  0  0  0  0  0  0  0  0  0  0
   -4.9556    7.3755    0.0000 C   0  0  0  0  0  0  0  0  0  0  0  0
   -3.9929    8.5258    0.0000 H   0  0  0  0  0  0  0  0  0  0  0  0
   -5.9214    8.5232    0.0000 H   0  0  0  0  0  0  0  0  0  0  0  0
  1  2  1  0  0  0  0 
  1  3  1  0  0  0  0 
  1  4  1  0  0  0  0 
  1  5  1  0  0  0  0 
  5  6  1  0  0  0  0 
  6  7  1  0  0  0  0 
  6  8  1  0  0  0  0 
  6  9  1  0  0  0  0 
  9 10  1  0  0  0  0 
  9 11  1  0  0  0  0 
  9 12  1  0  0  0  0 
 12 13  1  0  0  0  0 
 13 14  1  0  0  0  0 
 13 15  1  0  0  0  0 
 13 16  1  0  0  0  0 
 16 17  1  0  0  0  0 
 16 18  1  0  0  0  0 
 16 19  1  0  0  0  0 
 19 20  1  0  0  0  0 
 19 21  1  0  0  0  0 
 21 22  1  0  0  0  0 
 22 23  2  0  0  0  0 
 23 24  1  0  0  0  0 
 24 25  1  0  0  0  0 
 24 26  2  0  0  0  0 
 26 27  1  0  0  0  0 
 26 28  1  0  0  0  0 
 28 29  1  0  0  0  0 
 28 30  2  0  0  0  0 
 22 30  1  0  0  0  0 
 30 31  1  0  0  0  0 
 23 32  1  0  0  0  0 
 32 33  1  0  0  0  0 
 33 34  2  0  0  0  0 
 34 35  1  0  0  0  0 
 34 36  1  0  0  0  0 
 36 37  1  0  0  0  0 
 36 38  2  0  0  0  0 
 38 39  1  0  0  0  0 
 39 40  1  0  0  0  0 
 39 41  2  0  0  0  0 
 33 41  1  0  0  0  0 
 21 41  1  0  0  0  0 
 38 42  1  0  0  0  0 
 19 43  1  0  0  0  0 
 43 44  1  0  0  0  0 
 12 45  1  0  0  0  0 
 45 46  1  0  0  0  0 
 45 47  1  0  0  0  0 
 45 48  1  0  0  0  0 
  5 48  1  0  0  0  0 
 48 49  1  0  0  0  0 
 48 50  1  0  0  0  0 
M  END
> <Rank>
22

> <Priority_score>
0.148

> <Reaction_type>
aliphatic hydroxylation

> <Parent_ID>
33

> <Parent_InChI>
InChI=1S/C20H24ClN3S/c1-22-11-13-23(14-12-22)9-4-10-24-17-5-2-3-6-19(17)25-20-8-7-16(21)15-18(20)24/h2-3,5-8,15H,4,9-14H2,1H3

> <Parent_SMILES>
CN1CCN(CCCN2c3ccccc3Sc3ccc(Cl)cc32)CC1

$$$$
Molecule 33_metabolite 24
  CDK     0516241031

 27 27  0  0  0  0  0  0  0  0999 V2000
   -4.2740   -0.1328    0.0000 C   0  0  0  0  0  0  0  0  0  0  0  0
   -4.2742    1.3672    0.0000 H   0  0  0  0  0  0  0  0  0  0  0  0
   -5.7513    0.1274    0.0000 H   0  0  0  0  0  0  0  0  0  0  0  0
   -4.7868   -1.5424    0.0000 H   0  0  0  0  0  0  0  0  0  0  0  0
   -2.5591   -1.1225    0.0000 N   0  0  0  0  0  0  0  0  0  0  0  0
   -2.5586   -2.6233    0.0000 C   0  0  0  0  0  0  0  0  0  0  0  0
   -4.0359   -2.3630    0.0000 H   0  0  0  0  0  0  0  0  0  0  0  0
   -3.0718   -4.0328    0.0000 H   0  0  0  0  0  0  0  0  0  0  0  0
   -1.2591   -3.3742    0.0000 C   0  0  0  0  0  0  0  0  0  0  0  0
   -2.2235   -4.5230    0.0000 H   0  0  0  0  0  0  0  0  0  0  0  0
   -0.2950   -4.5233    0.0000 H   0  0  0  0  0  0  0  0  0  0  0  0
    0.0399   -2.6242    0.0000 N   0  0  0  0  0  0  0  0  0  0  0  0
    1.7548   -3.6139    0.0000 C   0  0  0  0  0  0  0  0  0  0  0  0
    0.7908   -4.7631    0.0000 H   0  0  0  0  0  0  0  0  0  0  0  0
    2.7192   -4.7628    0.0000 H   0  0  0  0  0  0  0  0  0  0  0  0
    3.0537   -2.8637    0.0000 C   0  0  0  0  0  0  0  0  0  0  0  0
    4.5309   -2.6030    0.0000 H   0  0  0  0  0  0  0  0  0  0  0  0
    3.5670   -4.2732    0.0000 H   0  0  0  0  0  0  0  0  0  0  0  0
    3.0535   -1.3637    0.0000 C   0  0  0  0  0  0  0  0  0  0  0  0
    4.3524   -0.6135    0.0000 H   0  0  0  0  0  0  0  0  0  0  0  0
    1.7543   -0.6139    0.0000 O   0  0  0  0  0  0  0  0  0  0  0  0
    0.0394   -1.1233    0.0000 C   0  0  0  0  0  0  0  0  0  0  0  0
    1.5167   -1.3837    0.0000 H   0  0  0  0  0  0  0  0  0  0  0  0
    0.5526    0.2861    0.0000 H   0  0  0  0  0  0  0  0  0  0  0  0
   -1.2601   -0.3725    0.0000 C   0  0  0  0  0  0  0  0  0  0  0  0
   -0.2956    0.7763    0.0000 H   0  0  0  0  0  0  0  0  0  0  0  0
   -2.2241    0.7767    0.0000 H   0  0  0  0  0  0  0  0  0  0  0  0
  1  2  1  0  0  0  0 
  1  3  1  0  0  0  0 
  1  4  1  0  0  0  0 
  1  5  1  0  0  0  0 
  5  6  1  0  0  0  0 
  6  7  1  0  0  0  0 
  6  8  1  0  0  0  0 
  6  9  1  0  0  0  0 
  9 10  1  0  0  0  0 
  9 11  1  0  0  0  0 
  9 12  1  0  0  0  0 
 12 13  1  0  0  0  0 
 13 14  1  0  0  0  0 
 13 15  1  0  0  0  0 
 13 16  1  0  0  0  0 
 16 17  1  0  0  0  0 
 16 18  1  0  0  0  0 
 16 19  1  0  0  0  0 
 19 20  1  0  0  0  0 
 19 21  2  0  0  0  0 
 12 22  1  0  0  0  0 
 22 23  1  0  0  0  0 
 22 24  1  0  0  0  0 
 22 25  1  0  0  0  0 
  5 25  1  0  0  0  0 
 25 26  1  0  0  0  0 
 25 27  1  0  0  0  0 
M  END
> <Rank>
22

> <Priority_score>
0.148

> <Reaction_type>
N-dealkylation

> <Parent_ID>
33

> <Parent_InChI>
InChI=1S/C20H24ClN3S/c1-22-11-13-23(14-12-22)9-4-10-24-17-5-2-3-6-19(17)25-20-8-7-16(21)15-18(20)24/h2-3,5-8,15H,4,9-14H2,1H3

> <Parent_SMILES>
CN1CCN(CCCN2c3ccccc3Sc3ccc(Cl)cc32)CC1

$$$$
Molecule 33_metabolite 25
  CDK     0516241031

 29 29  0  0  0  0  0  0  0  0999 V2000
   -3.1926   -3.9901    0.0000 C   0  0  0  0  0  0  0  0  0  0  0  0
   -4.4917   -3.2403    0.0000 H   0  0  0  0  0  0  0  0  0  0  0  0
   -4.1566   -5.1393    0.0000 H   0  0  0  0  0  0  0  0  0  0  0  0
   -2.2282   -5.1390    0.0000 H   0  0  0  0  0  0  0  0  0  0  0  0
   -1.4780   -2.9998    0.0000 N   0  0  0  0  0  0  0  0  0  0  0  0
   -0.1780   -3.7498    0.0000 C   0  0  0  0  0  0  0  0  0  0  0  0
   -1.1421   -4.8990    0.0000 H   0  0  0  0  0  0  0  0  0  0  0  0
    0.7860   -4.8990    0.0000 H   0  0  0  0  0  0  0  0  0  0  0  0
    1.1220   -2.9998    0.0000 C   0  0  0  0  0  0  0  0  0  0  0  0
    1.6347   -4.4094    0.0000 H   0  0  0  0  0  0  0  0  0  0  0  0
    2.5992   -2.7395    0.0000 H   0  0  0  0  0  0  0  0  0  0  0  0
    1.1220   -1.4998    0.0000 N   0  0  0  0  0  0  0  0  0  0  0  0
    2.8366   -0.5095    0.0000 C   0  0  0  0  0  0  0  0  0  0  0  0
    3.3498   -1.9190    0.0000 H   0  0  0  0  0  0  0  0  0  0  0  0
    4.3137   -0.2488    0.0000 H   0  0  0  0  0  0  0  0  0  0  0  0
    2.8363    0.9905    0.0000 C   0  0  0  0  0  0  0  0  0  0  0  0
    3.3491    2.4001    0.0000 H   0  0  0  0  0  0  0  0  0  0  0  0
    4.3136    0.7302    0.0000 H   0  0  0  0  0  0  0  0  0  0  0  0
    1.5372    1.7403    0.0000 C   0  0  0  0  0  0  0  0  0  0  0  0
    2.5012    2.8895    0.0000 H   0  0  0  0  0  0  0  0  0  0  0  0
    0.5728    2.8892    0.0000 H   0  0  0  0  0  0  0  0  0  0  0  0
    0.2382    0.9901    0.0000 O   0  0  0  0  0  0  0  0  0  0  0  0
   -1.0609    1.7399    0.0000 H   0  0  0  0  0  0  0  0  0  0  0  0
   -0.1780   -0.7498    0.0000 C   0  0  0  0  0  0  0  0  0  0  0  0
    0.7860    0.3994    0.0000 H   0  0  0  0  0  0  0  0  0  0  0  0
   -1.1421    0.3994    0.0000 H   0  0  0  0  0  0  0  0  0  0  0  0
   -1.4780   -1.4998    0.0000 C   0  0  0  0  0  0  0  0  0  0  0  0
   -1.9907   -0.0901    0.0000 H   0  0  0  0  0  0  0  0  0  0  0  0
   -2.9553   -1.7601    0.0000 H   0  0  0  0  0  0  0  0  0  0  0  0
  1  2  1  0  0  0  0 
  1  3  1  0  0  0  0 
  1  4  1  0  0  0  0 
  1  5  1  0  0  0  0 
  5  6  1  0  0  0  0 
  6  7  1  0  0  0  0 
  6  8  1  0  0  0  0 
  6  9  1  0  0  0  0 
  9 10  1  0  0  0  0 
  9 11  1  0  0  0  0 
  9 12  1  0  0  0  0 
 12 13  1  0  0  0  0 
 13 14  1  0  0  0  0 
 13 15  1  0  0  0  0 
 13 16  1  0  0  0  0 
 16 17  1  0  0  0  0 
 16 18  1  0  0  0  0 
 16 19  1  0  0  0  0 
 19 20  1  0  0  0  0 
 19 21  1  0  0  0  0 
 19 22  1  0  0  0  0 
 22 23  1  0  0  0  0 
 12 24  1  0  0  0  0 
 24 25  1  0  0  0  0 
 24 26  1  0  0  0  0 
 24 27  1  0  0  0  0 
  5 27  1  0  0  0  0 
 27 28  1  0  0  0  0 
 27 29  1  0  0  0  0 
M  END
> <Rank>
22

> <Priority_score>
0.148

> <Reaction_type>
N-dealkylation_(tertiaryN-CH2-alkyl)

> <Parent_ID>
33

> <Parent_InChI>
InChI=1S/C20H24ClN3S/c1-22-11-13-23(14-12-22)9-4-10-24-17-5-2-3-6-19(17)25-20-8-7-16(21)15-18(20)24/h2-3,5-8,15H,4,9-14H2,1H3

> <Parent_SMILES>
CN1CCN(CCCN2c3ccccc3Sc3ccc(Cl)cc32)CC1

$$$$
Molecule 33_metabolite 26
  CDK     0516241031

 50 53  0  0  0  0  0  0  0  0999 V2000
    6.4070    4.3497    0.0000 C   0  0  0  0  0  0  0  0  0  0  0  0
    7.3711    5.4989    0.0000 H   0  0  0  0  0  0  0  0  0  0  0  0
    7.7061    3.5998    0.0000 H   0  0  0  0  0  0  0  0  0  0  0  0
    5.8941    2.9401    0.0000 H   0  0  0  0  0  0  0  0  0  0  0  0
    4.4571    4.6933    0.0000 N   0  0  0  0  0  0  0  0  0  0  0  0
    3.4923    3.5437    0.0000 C   0  0  0  0  0  0  0  0  0  0  0  0
    4.7915    2.7939    0.0000 H   0  0  0  0  0  0  0  0  0  0  0  0
    2.9798    2.1339    0.0000 H   0  0  0  0  0  0  0  0  0  0  0  0
    2.0141    3.8034    0.0000 C   0  0  0  0  0  0  0  0  0  0  0  0
    2.0148    2.3034    0.0000 H   0  0  0  0  0  0  0  0  0  0  0  0
    0.5370    3.5424    0.0000 H   0  0  0  0  0  0  0  0  0  0  0  0
    1.5007    5.2128    0.0000 N   0  0  0  0  0  0  0  0  0  0  0  0
    0.0235    5.4731    0.0000 C   0  0  0  0  0  0  0  0  0  0  0  0
   -1.2757    6.2230    0.0000 H   0  0  0  0  0  0  0  0  0  0  0  0
    1.0287    8.2359    0.0000 H   0  0  0  0  0  0  0  0  0  0  0  0
   -1.5576    3.5885    0.0000 C   0  0  0  0  0  0  0  0  0  0  0  0
   -2.5219    4.7375    0.0000 H   0  0  0  0  0  0  0  0  0  0  0  0
   -3.6879    2.3583    0.0000 H   0  0  0  0  0  0  0  0  0  0  0  0
   -0.8802    1.7280    0.0000 C   0  0  0  0  0  0  0  0  0  0  0  0
   -0.6196    0.2508    0.0000 H   0  0  0  0  0  0  0  0  0  0  0  0
    0.4188    2.4781    0.0000 H   0  0  0  0  0  0  0  0  0  0  0  0
   -2.4613   -0.1567    0.0000 N   0  0  0  0  0  0  0  0  0  0  0  0
   -3.7613   -0.9067    0.0000 C   0  0  0  0  0  0  0  0  0  0  0  0
   -3.7613   -2.4067    0.0000 C   0  0  0  0  0  0  0  0  0  0  0  0
   -5.0613   -3.1567    0.0000 C   0  0  0  0  0  0  0  0  0  0  0  0
   -5.0613   -4.6567    0.0000 H   0  0  0  0  0  0  0  0  0  0  0  0
   -6.3613   -2.4067    0.0000 C   0  0  0  0  0  0  0  0  0  0  0  0
   -7.6602   -3.1569    0.0000 H   0  0  0  0  0  0  0  0  0  0  0  0
   -6.3613   -0.9067    0.0000 C   0  0  0  0  0  0  0  0  0  0  0  0
   -7.6602   -0.1565    0.0000 H   0  0  0  0  0  0  0  0  0  0  0  0
   -5.0613   -0.1567    0.0000 C   0  0  0  0  0  0  0  0  0  0  0  0
   -5.0613    1.3433    0.0000 H   0  0  0  0  0  0  0  0  0  0  0  0
   -2.4613   -3.1567    0.0000 S   0  0  0  0  0  0  0  0  0  0  0  0
   -1.1613   -2.4067    0.0000 C   0  0  0  0  0  0  0  0  0  0  0  0
    0.1387   -3.1567    0.0000 C   0  0  0  0  0  0  0  0  0  0  0  0
    0.1387   -4.6567    0.0000 H   0  0  0  0  0  0  0  0  0  0  0  0
    1.4387   -2.4067    0.0000 C   0  0  0  0  0  0  0  0  0  0  0  0
    2.7377   -3.1569    0.0000 H   0  0  0  0  0  0  0  0  0  0  0  0
    1.4387   -0.9067    0.0000 C   0  0  0  0  0  0  0  0  0  0  0  0
    0.1387   -0.1567    0.0000 C   0  0  0  0  0  0  0  0  0  0  0  0
    0.1387    1.3433    0.0000 H   0  0  0  0  0  0  0  0  0  0  0  0
   -1.1613   -0.9067    0.0000 C   0  0  0  0  0  0  0  0  0  0  0  0
    2.7377   -0.1565    0.0000 Cl  0  0  0  0  0  0  0  0  0  0  0  0
   -3.4253    0.9925    0.0000 O   0  0  0  0  0  0  0  0  0  0  0  0
    2.4655    6.3625    0.0000 C   0  0  0  0  0  0  0  0  0  0  0  0
    1.1663    7.1123    0.0000 H   0  0  0  0  0  0  0  0  0  0  0  0
    2.9780    7.7722    0.0000 H   0  0  0  0  0  0  0  0  0  0  0  0
    3.9437    6.1027    0.0000 C   0  0  0  0  0  0  0  0  0  0  0  0
    3.9429    7.6027    0.0000 H   0  0  0  0  0  0  0  0  0  0  0  0
    5.4208    6.3637    0.0000 H   0  0  0  0  0  0  0  0  0  0  0  0
  1  2  1  0  0  0  0 
  1  3  1  0  0  0  0 
  1  4  1  0  0  0  0 
  1  5  1  0  0  0  0 
  5  6  1  0  0  0  0 
  6  7  1  0  0  0  0 
  6  8  1  0  0  0  0 
  6  9  1  0  0  0  0 
  9 10  1  0  0  0  0 
  9 11  1  0  0  0  0 
  9 12  1  0  0  0  0 
 12 13  1  0  0  0  0 
 13 14  1  0  0  0  0 
 13 15  1  0  0  0  0 
 13 16  1  0  0  0  0 
 16 17  1  0  0  0  0 
 16 18  1  0  0  0  0 
 16 19  1  0  0  0  0 
 19 20  1  0  0  0  0 
 19 21  1  0  0  0  0 
 19 22  1  0  0  0  0 
 22 23  1  0  0  0  0 
 23 24  2  0  0  0  0 
 24 25  1  0  0  0  0 
 25 26  1  0  0  0  0 
 25 27  2  0  0  0  0 
 27 28  1  0  0  0  0 
 27 29  1  0  0  0  0 
 29 30  1  0  0  0  0 
 29 31  2  0  0  0  0 
 23 31  1  0  0  0  0 
 31 32  1  0  0  0  0 
 24 33  1  0  0  0  0 
 33 34  1  0  0  0  0 
 34 35  2  0  0  0  0 
 35 36  1  0  0  0  0 
 35 37  1  0  0  0  0 
 37 38  1  0  0  0  0 
 37 39  2  0  0  0  0 
 39 40  1  0  0  0  0 
 40 41  1  0  0  0  0 
 40 42  2  0  0  0  0 
 34 42  1  0  0  0  0 
 22 42  1  0  0  0  0 
 39 43  1  0  0  0  0 
 22 44  1  0  0  0  0 
 12 45  1  0  0  0  0 
 45 46  1  0  0  0  0 
 45 47  1  0  0  0  0 
 45 48  1  0  0  0  0 
  5 48  1  0  0  0  0 
 48 49  1  0  0  0  0 
 48 50  1  0  0  0  0 
M  CHG  1  22   1
M  CHG  1  44  -1
M  END
> <Rank>
22

> <Priority_score>
0.148

> <Reaction_type>
N-oxidation

> <Parent_ID>
33

> <Parent_InChI>
InChI=1S/C20H24ClN3S/c1-22-11-13-23(14-12-22)9-4-10-24-17-5-2-3-6-19(17)25-20-8-7-16(21)15-18(20)24/h2-3,5-8,15H,4,9-14H2,1H3

> <Parent_SMILES>
CN1CCN(CCCN2c3ccccc3Sc3ccc(Cl)cc32)CC1

$$$$
Molecule 33_metabolite 27
  CDK     0516241031

 48 51  0  0  0  0  0  0  0  0999 V2000
   -6.8404    9.8812    0.0000 C   0  0  0  0  0  0  0  0  0  0  0  0
   -6.8429   11.3812    0.0000 H   0  0  0  0  0  0  0  0  0  0  0  0
   -8.1382    9.1290    0.0000 H   0  0  0  0  0  0  0  0  0  0  0  0
   -5.5401    9.1334    0.0000 N   0  0  0  0  0  0  0  0  0  0  0  0
   -5.5374    7.6325    0.0000 C   0  0  0  0  0  0  0  0  0  0  0  0
   -7.0150    7.8906    0.0000 H   0  0  0  0  0  0  0  0  0  0  0  0
   -6.0484    6.2223    0.0000 H   0  0  0  0  0  0  0  0  0  0  0  0
   -4.2367    6.8837    0.0000 C   0  0  0  0  0  0  0  0  0  0  0  0
   -5.1994    5.7334    0.0000 H   0  0  0  0  0  0  0  0  0  0  0  0
   -3.2709    5.7360    0.0000 H   0  0  0  0  0  0  0  0  0  0  0  0
   -2.9388    7.6356    0.0000 N   0  0  0  0  0  0  0  0  0  0  0  0
   -1.2224    6.6485    0.0000 C   0  0  0  0  0  0  0  0  0  0  0  0
    0.2552    6.3905    0.0000 H   0  0  0  0  0  0  0  0  0  0  0  0
   -0.2602    7.7992    0.0000 H   0  0  0  0  0  0  0  0  0  0  0  0
   -1.2191    4.6685    0.0000 C   0  0  0  0  0  0  0  0  0  0  0  0
   -2.6968    4.9265    0.0000 H   0  0  0  0  0  0  0  0  0  0  0  0
   -1.7298    3.2581    0.0000 H   0  0  0  0  0  0  0  0  0  0  0  0
    0.4973    3.6814    0.0000 C   0  0  0  0  0  0  0  0  0  0  0  0
    1.9749    3.4234    0.0000 H   0  0  0  0  0  0  0  0  0  0  0  0
    1.0079    5.0918    0.0000 H   0  0  0  0  0  0  0  0  0  0  0  0
    0.5014    1.2214    0.0000 N   0  0  0  0  0  0  0  0  0  0  0  0
   -0.7886    0.4714    0.0000 C   0  0  0  0  0  0  0  0  0  0  0  0
   -0.7886   -1.0286    0.0000 C   0  0  0  0  0  0  0  0  0  0  0  0
   -2.0886   -1.7786    0.0000 C   0  0  0  0  0  0  0  0  0  0  0  0
   -2.0886   -3.2786    0.0000 H   0  0  0  0  0  0  0  0  0  0  0  0
   -3.3886   -1.0286    0.0000 C   0  0  0  0  0  0  0  0  0  0  0  0
   -4.6875   -1.7788    0.0000 H   0  0  0  0  0  0  0  0  0  0  0  0
   -3.3886    0.4714    0.0000 C   0  0  0  0  0  0  0  0  0  0  0  0
   -4.6875    1.2216    0.0000 H   0  0  0  0  0  0  0  0  0  0  0  0
   -2.0886    1.2214    0.0000 C   0  0  0  0  0  0  0  0  0  0  0  0
   -2.3491    2.6986    0.0000 H   0  0  0  0  0  0  0  0  0  0  0  0
    0.5014   -1.7786    0.0000 S   0  0  0  0  0  0  0  0  0  0  0  0
    1.8014   -1.0286    0.0000 C   0  0  0  0  0  0  0  0  0  0  0  0
    3.1014   -1.7786    0.0000 C   0  0  0  0  0  0  0  0  0  0  0  0
    3.1014   -3.2786    0.0000 H   0  0  0  0  0  0  0  0  0  0  0  0
    4.4014   -1.0286    0.0000 C   0  0  0  0  0  0  0  0  0  0  0  0
    5.7003   -1.7788    0.0000 H   0  0  0  0  0  0  0  0  0  0  0  0
    4.4014    0.4714    0.0000 C   0  0  0  0  0  0  0  0  0  0  0  0
    3.1014    1.2214    0.0000 C   0  0  0  0  0  0  0  0  0  0  0  0
    3.1014    2.7214    0.0000 H   0  0  0  0  0  0  0  0  0  0  0  0
    1.8014    0.4714    0.0000 C   0  0  0  0  0  0  0  0  0  0  0  0
    5.7003    1.2216    0.0000 Cl  0  0  0  0  0  0  0  0  0  0  0  0
   -2.9416    9.1365    0.0000 C   0  0  0  0  0  0  0  0  0  0  0  0
   -1.4639    8.8784    0.0000 H   0  0  0  0  0  0  0  0  0  0  0  0
   -2.4305   10.5467    0.0000 H   0  0  0  0  0  0  0  0  0  0  0  0
   -4.2422    9.8853    0.0000 C   0  0  0  0  0  0  0  0  0  0  0  0
   -3.2795   11.0357    0.0000 H   0  0  0  0  0  0  0  0  0  0  0  0
   -5.2080   11.0330    0.0000 H   0  0  0  0  0  0  0  0  0  0  0  0
  1  2  1  0  0  0  0 
  1  3  1  0  0  0  0 
  1  4  2  0  0  0  0 
  4  5  1  0  0  0  0 
  5  6  1  0  0  0  0 
  5  7  1  0  0  0  0 
  5  8  1  0  0  0  0 
  8  9  1  0  0  0  0 
  8 10  1  0  0  0  0 
  8 11  1  0  0  0  0 
 11 12  1  0  0  0  0 
 12 13  1  0  0  0  0 
 12 14  1  0  0  0  0 
 12 15  1  0  0  0  0 
 15 16  1  0  0  0  0 
 15 17  1  0  0  0  0 
 15 18  1  0  0  0  0 
 18 19  1  0  0  0  0 
 18 20  1  0  0  0  0 
 18 21  1  0  0  0  0 
 21 22  1  0  0  0  0 
 22 23  2  0  0  0  0 
 23 24  1  0  0  0  0 
 24 25  1  0  0  0  0 
 24 26  2  0  0  0  0 
 26 27  1  0  0  0  0 
 26 28  1  0  0  0  0 
 28 29  1  0  0  0  0 
 28 30  2  0  0  0  0 
 22 30  1  0  0  0  0 
 30 31  1  0  0  0  0 
 23 32  1  0  0  0  0 
 32 33  1  0  0  0  0 
 33 34  2  0  0  0  0 
 34 35  1  0  0  0  0 
 34 36  1  0  0  0  0 
 36 37  1  0  0  0  0 
 36 38  2  0  0  0  0 
 38 39  1  0  0  0  0 
 39 40  1  0  0  0  0 
 39 41  2  0  0  0  0 
 33 41  1  0  0  0  0 
 21 41  1  0  0  0  0 
 38 42  1  0  0  0  0 
 11 43  1  0  0  0  0 
 43 44  1  0  0  0  0 
 43 45  1  0  0  0  0 
 43 46  1  0  0  0  0 
  4 46  1  0  0  0  0 
 46 47  1  0  0  0  0 
 46 48  1  0  0  0  0 
M  CHG  1   4   1
M  END
> <Rank>
27

> <Priority_score>
0.11200000000000002

> <Reaction_type>
dehydration of N-C bond

> <Parent_ID>
33

> <Parent_InChI>
InChI=1S/C20H24ClN3S/c1-22-11-13-23(14-12-22)9-4-10-24-17-5-2-3-6-19(17)25-20-8-7-16(21)15-18(20)24/h2-3,5-8,15H,4,9-14H2,1H3

> <Parent_SMILES>
CN1CCN(CCCN2c3ccccc3Sc3ccc(Cl)cc32)CC1

$$$$
Molecule 33_metabolite 28
  CDK     0516241031

 50 53  0  0  0  0  0  0  0  0999 V2000
   -6.4959   10.1721    0.0000 C   0  0  0  0  0  0  0  0  0  0  0  0
   -6.4959   11.6721    0.0000 H   0  0  0  0  0  0  0  0  0  0  0  0
   -7.9731   10.4326    0.0000 H   0  0  0  0  0  0  0  0  0  0  0  0
   -7.0089    8.7625    0.0000 H   0  0  0  0  0  0  0  0  0  0  0  0
   -4.7812    9.1821    0.0000 N   0  0  0  0  0  0  0  0  0  0  0  0
   -4.7809    7.6812    0.0000 C   0  0  0  0  0  0  0  0  0  0  0  0
   -6.2581    7.9418    0.0000 H   0  0  0  0  0  0  0  0  0  0  0  0
   -5.2943    6.2718    0.0000 H   0  0  0  0  0  0  0  0  0  0  0  0
   -3.4815    6.9302    0.0000 C   0  0  0  0  0  0  0  0  0  0  0  0
   -4.4462    5.7815    0.0000 H   0  0  0  0  0  0  0  0  0  0  0  0
   -2.5177    5.7809    0.0000 H   0  0  0  0  0  0  0  0  0  0  0  0
   -2.1824    7.6800    0.0000 N   0  0  0  0  0  0  0  0  0  0  0  0
   -0.4677    6.6900    0.0000 C   0  0  0  0  0  0  0  0  0  0  0  0
    1.0096    6.4295    0.0000 H   0  0  0  0  0  0  0  0  0  0  0  0
    0.4965    7.8391    0.0000 H   0  0  0  0  0  0  0  0  0  0  0  0
   -0.4677    4.7100    0.0000 C   0  0  0  0  0  0  0  0  0  0  0  0
   -1.9449    4.9705    0.0000 H   0  0  0  0  0  0  0  0  0  0  0  0
   -0.9807    3.3005    0.0000 H   0  0  0  0  0  0  0  0  0  0  0  0
    1.2471    3.7200    0.0000 C   0  0  0  0  0  0  0  0  0  0  0  0
    2.7243    3.4595    0.0000 H   0  0  0  0  0  0  0  0  0  0  0  0
    1.7601    5.1295    0.0000 H   0  0  0  0  0  0  0  0  0  0  0  0
    1.2471    1.2600    0.0000 N   0  0  0  0  0  0  0  0  0  0  0  0
   -0.0529    0.5100    0.0000 C   0  0  0  0  0  0  0  0  0  0  0  0
   -1.3529    1.2600    0.0000 C   0  0  0  0  0  0  0  0  0  0  0  0
   -1.6134    2.7372    0.0000 H   0  0  0  0  0  0  0  0  0  0  0  0
   -2.6529    0.5100    0.0000 C   0  0  0  0  0  0  0  0  0  0  0  0
   -2.6529   -0.9900    0.0000 C   0  0  0  0  0  0  0  0  0  0  0  0
   -3.9518   -1.7402    0.0000 H   0  0  0  0  0  0  0  0  0  0  0  0
   -1.3529   -1.7400    0.0000 C   0  0  0  0  0  0  0  0  0  0  0  0
   -1.3529   -3.2400    0.0000 H   0  0  0  0  0  0  0  0  0  0  0  0
   -0.0529   -0.9900    0.0000 C   0  0  0  0  0  0  0  0  0  0  0  0
    1.2471   -1.7400    0.0000 S   0  0  0  0  0  0  0  0  0  0  0  0
    2.5471   -0.9900    0.0000 C   0  0  0  0  0  0  0  0  0  0  0  0
    3.8471   -1.7400    0.0000 C   0  0  0  0  0  0  0  0  0  0  0  0
    3.8471   -3.2400    0.0000 H   0  0  0  0  0  0  0  0  0  0  0  0
    5.1471   -0.9900    0.0000 C   0  0  0  0  0  0  0  0  0  0  0  0
    6.4460   -1.7402    0.0000 H   0  0  0  0  0  0  0  0  0  0  0  0
    5.1471    0.5100    0.0000 C   0  0  0  0  0  0  0  0  0  0  0  0
    3.8471    1.2600    0.0000 C   0  0  0  0  0  0  0  0  0  0  0  0
    3.8471    2.7600    0.0000 H   0  0  0  0  0  0  0  0  0  0  0  0
    2.5471    0.5100    0.0000 C   0  0  0  0  0  0  0  0  0  0  0  0
    6.4460    1.2602    0.0000 O   0  0  0  0  0  0  0  0  0  0  0  0
    7.7452    0.5104    0.0000 H   0  0  0  0  0  0  0  0  0  0  0  0
   -3.9518    1.2602    0.0000 Cl  0  0  0  0  0  0  0  0  0  0  0  0
   -2.1826    9.1808    0.0000 C   0  0  0  0  0  0  0  0  0  0  0  0
   -0.7054    8.9203    0.0000 H   0  0  0  0  0  0  0  0  0  0  0  0
   -1.6692   10.5902    0.0000 H   0  0  0  0  0  0  0  0  0  0  0  0
   -3.4820    9.9319    0.0000 C   0  0  0  0  0  0  0  0  0  0  0  0
   -2.5174   11.0806    0.0000 H   0  0  0  0  0  0  0  0  0  0  0  0
   -4.4459   11.0812    0.0000 H   0  0  0  0  0  0  0  0  0  0  0  0
  1  2  1  0  0  0  0 
  1  3  1  0  0  0  0 
  1  4  1  0  0  0  0 
  1  5  1  0  0  0  0 
  5  6  1  0  0  0  0 
  6  7  1  0  0  0  0 
  6  8  1  0  0  0  0 
  6  9  1  0  0  0  0 
  9 10  1  0  0  0  0 
  9 11  1  0  0  0  0 
  9 12  1  0  0  0  0 
 12 13  1  0  0  0  0 
 13 14  1  0  0  0  0 
 13 15  1  0  0  0  0 
 13 16  1  0  0  0  0 
 16 17  1  0  0  0  0 
 16 18  1  0  0  0  0 
 16 19  1  0  0  0  0 
 19 20  1  0  0  0  0 
 19 21  1  0  0  0  0 
 19 22  1  0  0  0  0 
 22 23  1  0  0  0  0 
 23 24  2  0  0  0  0 
 24 25  1  0  0  0  0 
 24 26  1  0  0  0  0 
 26 27  2  0  0  0  0 
 27 28  1  0  0  0  0 
 27 29  1  0  0  0  0 
 29 30  1  0  0  0  0 
 29 31  2  0  0  0  0 
 23 31  1  0  0  0  0 
 31 32  1  0  0  0  0 
 32 33  1  0  0  0  0 
 33 34  2  0  0  0  0 
 34 35  1  0  0  0  0 
 34 36  1  0  0  0  0 
 36 37  1  0  0  0  0 
 36 38  2  0  0  0  0 
 38 39  1  0  0  0  0 
 39 40  1  0  0  0  0 
 39 41  2  0  0  0  0 
 33 41  1  0  0  0  0 
 22 41  1  0  0  0  0 
 38 42  1  0  0  0  0 
 42 43  1  0  0  0  0 
 26 44  1  0  0  0  0 
 12 45  1  0  0  0  0 
 45 46  1  0  0  0  0 
 45 47  1  0  0  0  0 
 45 48  1  0  0  0  0 
  5 48  1  0  0  0  0 
 48 49  1  0  0  0  0 
 48 50  1  0  0  0  0 
M  END
> <Rank>
28

> <Priority_score>
0.09891327264015334

> <Reaction_type>
aromatic hydroxylation

> <Parent_ID>
33

> <Parent_InChI>
InChI=1S/C20H24ClN3S/c1-22-11-13-23(14-12-22)9-4-10-24-17-5-2-3-6-19(17)25-20-8-7-16(21)15-18(20)24/h2-3,5-8,15H,4,9-14H2,1H3

> <Parent_SMILES>
CN1CCN(CCCN2c3ccccc3Sc3ccc(Cl)cc32)CC1

$$$$
Molecule 33_metabolite 29
  CDK     0516241031

 84 87  0  0  0  0  0  0  0  0999 V2000
   -6.4959   11.1321    0.0000 C   0  0  0  0  0  0  0  0  0  0  0  0
   -6.4959   12.6321    0.0000 H   0  0  0  0  0  0  0  0  0  0  0  0
   -7.9731   11.3926    0.0000 H   0  0  0  0  0  0  0  0  0  0  0  0
   -7.0089    9.7225    0.0000 H   0  0  0  0  0  0  0  0  0  0  0  0
   -4.7812   10.1421    0.0000 N   0  0  0  0  0  0  0  0  0  0  0  0
   -4.7809    8.6412    0.0000 C   0  0  0  0  0  0  0  0  0  0  0  0
   -6.2581    8.9018    0.0000 H   0  0  0  0  0  0  0  0  0  0  0  0
   -5.2943    7.2318    0.0000 H   0  0  0  0  0  0  0  0  0  0  0  0
   -3.4815    7.8902    0.0000 C   0  0  0  0  0  0  0  0  0  0  0  0
   -4.4462    6.7415    0.0000 H   0  0  0  0  0  0  0  0  0  0  0  0
   -2.5177    6.7409    0.0000 H   0  0  0  0  0  0  0  0  0  0  0  0
   -2.1824    8.6400    0.0000 N   0  0  0  0  0  0  0  0  0  0  0  0
   -0.4677    7.6500    0.0000 C   0  0  0  0  0  0  0  0  0  0  0  0
    1.0096    7.3895    0.0000 H   0  0  0  0  0  0  0  0  0  0  0  0
    0.0454    9.0595    0.0000 H   0  0  0  0  0  0  0  0  0  0  0  0
   -0.4677    5.1900    0.0000 C   0  0  0  0  0  0  0  0  0  0  0  0
    1.0096    5.4505    0.0000 H   0  0  0  0  0  0  0  0  0  0  0  0
    0.0454    3.7805    0.0000 H   0  0  0  0  0  0  0  0  0  0  0  0
   -2.1824    4.2000    0.0000 C   0  0  0  0  0  0  0  0  0  0  0  0
   -3.6596    3.9395    0.0000 H   0  0  0  0  0  0  0  0  0  0  0  0
   -2.6954    5.6095    0.0000 H   0  0  0  0  0  0  0  0  0  0  0  0
   -2.1824    1.2600    0.0000 N   0  0  0  0  0  0  0  0  0  0  0  0
   -3.4824    0.5100    0.0000 C   0  0  0  0  0  0  0  0  0  0  0  0
   -3.4824   -0.9900    0.0000 C   0  0  0  0  0  0  0  0  0  0  0  0
   -4.7824   -1.7400    0.0000 C   0  0  0  0  0  0  0  0  0  0  0  0
   -4.7824   -3.2400    0.0000 H   0  0  0  0  0  0  0  0  0  0  0  0
   -6.0824   -0.9900    0.0000 C   0  0  0  0  0  0  0  0  0  0  0  0
   -7.3813   -1.7402    0.0000 H   0  0  0  0  0  0  0  0  0  0  0  0
   -6.0824    0.5100    0.0000 C   0  0  0  0  0  0  0  0  0  0  0  0
   -7.3813    1.2602    0.0000 H   0  0  0  0  0  0  0  0  0  0  0  0
   -4.7824    1.2600    0.0000 C   0  0  0  0  0  0  0  0  0  0  0  0
   -4.7824    2.7600    0.0000 H   0  0  0  0  0  0  0  0  0  0  0  0
   -2.1824   -1.7400    0.0000 S   0  0  0  0  0  0  0  0  0  0  0  0
   -0.8824   -0.9900    0.0000 C   0  0  0  0  0  0  0  0  0  0  0  0
    0.4176   -1.7400    0.0000 C   0  0  0  0  0  0  0  0  0  0  0  0
    0.4176   -3.2400    0.0000 H   0  0  0  0  0  0  0  0  0  0  0  0
    1.7176   -0.9900    0.0000 C   0  0  0  0  0  0  0  0  0  0  0  0
    3.0165   -1.7402    0.0000 H   0  0  0  0  0  0  0  0  0  0  0  0
    1.7176    0.5100    0.0000 C   0  0  0  0  0  0  0  0  0  0  0  0
    0.4176    1.2600    0.0000 C   0  0  0  0  0  0  0  0  0  0  0  0
    0.4176    2.7600    0.0000 H   0  0  0  0  0  0  0  0  0  0  0  0
   -0.8824    0.5100    0.0000 C   0  0  0  0  0  0  0  0  0  0  0  0
    3.0165    1.2602    0.0000 S   0  0  0  0  0  0  0  0  0  0  0  0
    4.3157    0.5104    0.0000 C   0  0  0  0  0  0  0  0  0  0  0  0
    3.3517   -0.6388    0.0000 H   0  0  0  0  0  0  0  0  0  0  0  0
    5.2801   -0.6385    0.0000 H   0  0  0  0  0  0  0  0  0  0  0  0
    5.6146    1.2606    0.0000 C   0  0  0  0  0  0  0  0  0  0  0  0
    6.5786    2.4098    0.0000 H   0  0  0  0  0  0  0  0  0  0  0  0
    4.6502    2.4095    0.0000 C   0  0  0  0  0  0  0  0  0  0  0  0
    3.1731    2.1488    0.0000 O   0  0  0  0  0  0  0  0  0  0  0  0
    5.1630    3.8192    0.0000 N   0  0  0  0  0  0  0  0  0  0  0  0
    6.6402    4.0799    0.0000 H   0  0  0  0  0  0  0  0  0  0  0  0
    4.1987    4.9681    0.0000 C   0  0  0  0  0  0  0  0  0  0  0  0
    3.2347    3.8188    0.0000 H   0  0  0  0  0  0  0  0  0  0  0  0
    2.8995    5.7179    0.0000 H   0  0  0  0  0  0  0  0  0  0  0  0
    4.7115    6.3777    0.0000 C   0  0  0  0  0  0  0  0  0  0  0  0
    6.1887    6.6384    0.0000 O   0  0  0  0  0  0  0  0  0  0  0  0
    3.7471    7.5266    0.0000 O   0  0  0  0  0  0  0  0  0  0  0  0
    4.2599    8.9362    0.0000 H   0  0  0  0  0  0  0  0  0  0  0  0
    6.9138    0.5108    0.0000 N   0  0  0  0  0  0  0  0  0  0  0  0
    6.9140   -0.9892    0.0000 H   0  0  0  0  0  0  0  0  0  0  0  0
    8.2127    1.2610    0.0000 C   0  0  0  0  0  0  0  0  0  0  0  0
    8.2124    2.7610    0.0000 O   0  0  0  0  0  0  0  0  0  0  0  0
    9.5118    0.5112    0.0000 C   0  0  0  0  0  0  0  0  0  0  0  0
    8.5478   -0.6380    0.0000 H   0  0  0  0  0  0  0  0  0  0  0  0
   10.4762   -0.6377    0.0000 H   0  0  0  0  0  0  0  0  0  0  0  0
   11.2264    1.5015    0.0000 C   0  0  0  0  0  0  0  0  0  0  0  0
   12.1904    2.6507    0.0000 H   0  0  0  0  0  0  0  0  0  0  0  0
   10.2621    2.6504    0.0000 H   0  0  0  0  0  0  0  0  0  0  0  0
   12.5256    0.7517    0.0000 C   0  0  0  0  0  0  0  0  0  0  0  0
   11.5616   -0.3975    0.0000 H   0  0  0  0  0  0  0  0  0  0  0  0
   13.8245    1.5019    0.0000 C   0  0  0  0  0  0  0  0  0  0  0  0
   13.8243    3.0019    0.0000 O   0  0  0  0  0  0  0  0  0  0  0  0
   15.1237    0.7521    0.0000 O   0  0  0  0  0  0  0  0  0  0  0  0
   16.4226    1.5024    0.0000 H   0  0  0  0  0  0  0  0  0  0  0  0
   13.4899   -0.3972    0.0000 N   0  0  0  0  0  0  0  0  0  0  0  0
   14.9671   -0.1365    0.0000 H   0  0  0  0  0  0  0  0  0  0  0  0
   12.9771   -1.8068    0.0000 H   0  0  0  0  0  0  0  0  0  0  0  0
   -2.1826   10.1408    0.0000 C   0  0  0  0  0  0  0  0  0  0  0  0
   -0.7054    9.8803    0.0000 H   0  0  0  0  0  0  0  0  0  0  0  0
   -1.6692   11.5502    0.0000 H   0  0  0  0  0  0  0  0  0  0  0  0
   -3.4820   10.8919    0.0000 C   0  0  0  0  0  0  0  0  0  0  0  0
   -2.5174   12.0406    0.0000 H   0  0  0  0  0  0  0  0  0  0  0  0
   -4.4459   12.0412    0.0000 H   0  0  0  0  0  0  0  0  0  0  0  0
  1  2  1  0  0  0  0 
  1  3  1  0  0  0  0 
  1  4  1  0  0  0  0 
  1  5  1  0  0  0  0 
  5  6  1  0  0  0  0 
  6  7  1  0  0  0  0 
  6  8  1  0  0  0  0 
  6  9  1  0  0  0  0 
  9 10  1  0  0  0  0 
  9 11  1  0  0  0  0 
  9 12  1  0  0  0  0 
 12 13  1  0  0  0  0 
 13 14  1  0  0  0  0 
 13 15  1  0  0  0  0 
 13 16  1  0  0  0  0 
 16 17  1  0  0  0  0 
 16 18  1  0  0  0  0 
 16 19  1  0  0  0  0 
 19 20  1  0  0  0  0 
 19 21  1  0  0  0  0 
 19 22  1  0  0  0  0 
 22 23  1  0  0  0  0 
 23 24  2  0  0  0  0 
 24 25  1  0  0  0  0 
 25 26  1  0  0  0  0 
 25 27  2  0  0  0  0 
 27 28  1  0  0  0  0 
 27 29  1  0  0  0  0 
 29 30  1  0  0  0  0 
 29 31  2  0  0  0  0 
 23 31  1  0  0  0  0 
 31 32  1  0  0  0  0 
 24 33  1  0  0  0  0 
 33 34  1  0  0  0  0 
 34 35  2  0  0  0  0 
 35 36  1  0  0  0  0 
 35 37  1  0  0  0  0 
 37 38  1  0  0  0  0 
 37 39  2  0  0  0  0 
 39 40  1  0  0  0  0 
 40 41  1  0  0  0  0 
 40 42  2  0  0  0  0 
 34 42  1  0  0  0  0 
 22 42  1  0  0  0  0 
 39 43  1  0  0  0  0 
 43 44  1  0  0  0  0 
 44 45  1  0  0  0  0 
 44 46  1  0  0  0  0 
 44 47  1  0  0  0  0 
 47 48  1  0  0  0  0 
 47 49  1  0  0  0  0 
 49 50  2  0  0  0  0 
 49 51  1  0  0  0  0 
 51 52  1  0  0  0  0 
 51 53  1  0  0  0  0 
 53 54  1  0  0  0  0 
 53 55  1  0  0  0  0 
 53 56  1  0  0  0  0 
 56 57  2  0  0  0  0 
 56 58  1  0  0  0  0 
 58 59  1  0  0  0  0 
 47 60  1  0  0  0  0 
 60 61  1  0  0  0  0 
 60 62  1  0  0  0  0 
 62 63  2  0  0  0  0 
 62 64  1  0  0  0  0 
 64 65  1  0  0  0  0 
 64 66  1  0  0  0  0 
 64 67  1  0  0  0  0 
 67 68  1  0  0  0  0 
 67 69  1  0  0  0  0 
 67 70  1  0  0  0  0 
 70 71  1  0  0  0  0 
 70 72  1  0  0  0  0 
 72 73  2  0  0  0  0 
 72 74  1  0  0  0  0 
 74 75  1  0  0  0  0 
 70 76  1  0  0  0  0 
 76 77  1  0  0  0  0 
 76 78  1  0  0  0  0 
 12 79  1  0  0  0  0 
 79 80  1  0  0  0  0 
 79 81  1  0  0  0  0 
 79 82  1  0  0  0  0 
  5 82  1  0  0  0  0 
 82 83  1  0  0  0  0 
 82 84  1  0  0  0  0 
M  END
> <Rank>
29

> <Priority_score>
0.092

> <Reaction_type>
glutathione_conjugation_(aromatic_nucleophilic_substitution)

> <Parent_ID>
33

> <Parent_InChI>
InChI=1S/C20H24ClN3S/c1-22-11-13-23(14-12-22)9-4-10-24-17-5-2-3-6-19(17)25-20-8-7-16(21)15-18(20)24/h2-3,5-8,15H,4,9-14H2,1H3

> <Parent_SMILES>
CN1CCN(CCCN2c3ccccc3Sc3ccc(Cl)cc32)CC1

$$$$
Molecule 33_metabolite 30
  CDK     0516241031

 48 51  0  0  0  0  0  0  0  0999 V2000
   -8.0847    7.7191    0.0000 C   0  0  0  0  0  0  0  0  0  0  0  0
   -8.0872    9.2191    0.0000 H   0  0  0  0  0  0  0  0  0  0  0  0
   -9.5623    7.9771    0.0000 H   0  0  0  0  0  0  0  0  0  0  0  0
   -8.5954    6.3087    0.0000 H   0  0  0  0  0  0  0  0  0  0  0  0
   -6.3683    6.7320    0.0000 N   0  0  0  0  0  0  0  0  0  0  0  0
   -6.3655    5.2311    0.0000 C   0  0  0  0  0  0  0  0  0  0  0  0
   -7.8432    5.4892    0.0000 H   0  0  0  0  0  0  0  0  0  0  0  0
   -6.8766    3.8209    0.0000 H   0  0  0  0  0  0  0  0  0  0  0  0
   -5.0649    4.4823    0.0000 C   0  0  0  0  0  0  0  0  0  0  0  0
   -6.0276    3.3320    0.0000 H   0  0  0  0  0  0  0  0  0  0  0  0
   -4.0991    3.3346    0.0000 H   0  0  0  0  0  0  0  0  0  0  0  0
   -3.7670    5.2343    0.0000 N   0  0  0  0  0  0  0  0  0  0  0  0
   -2.0506    4.2471    0.0000 C   0  0  0  0  0  0  0  0  0  0  0  0
   -0.7528    4.9993    0.0000 H   0  0  0  0  0  0  0  0  0  0  0  0
   -2.0473    2.2671    0.0000 C   0  0  0  0  0  0  0  0  0  0  0  0
   -3.5249    2.5251    0.0000 H   0  0  0  0  0  0  0  0  0  0  0  0
   -2.5580    0.8567    0.0000 H   0  0  0  0  0  0  0  0  0  0  0  0
   -0.3309    1.2800    0.0000 C   0  0  0  0  0  0  0  0  0  0  0  0
    1.1467    1.0220    0.0000 H   0  0  0  0  0  0  0  0  0  0  0  0
    0.1798    2.6904    0.0000 H   0  0  0  0  0  0  0  0  0  0  0  0
   -0.3284   -0.2200    0.0000 N   0  0  0  0  0  0  0  0  0  0  0  0
   -1.6184   -0.9700    0.0000 C   0  0  0  0  0  0  0  0  0  0  0  0
   -1.6184   -2.4700    0.0000 C   0  0  0  0  0  0  0  0  0  0  0  0
   -2.9184   -3.2200    0.0000 C   0  0  0  0  0  0  0  0  0  0  0  0
   -2.9184   -4.7200    0.0000 H   0  0  0  0  0  0  0  0  0  0  0  0
   -4.2184   -2.4700    0.0000 C   0  0  0  0  0  0  0  0  0  0  0  0
   -5.5173   -3.2202    0.0000 H   0  0  0  0  0  0  0  0  0  0  0  0
   -4.2184   -0.9700    0.0000 C   0  0  0  0  0  0  0  0  0  0  0  0
   -5.5173   -0.2198    0.0000 H   0  0  0  0  0  0  0  0  0  0  0  0
   -2.9184   -0.2200    0.0000 C   0  0  0  0  0  0  0  0  0  0  0  0
   -2.9184    1.7600    0.0000 H   0  0  0  0  0  0  0  0  0  0  0  0
   -0.3284   -3.2200    0.0000 S   0  0  0  0  0  0  0  0  0  0  0  0
    0.9716   -2.4700    0.0000 C   0  0  0  0  0  0  0  0  0  0  0  0
    2.2716   -3.2200    0.0000 C   0  0  0  0  0  0  0  0  0  0  0  0
    2.2716   -4.7200    0.0000 H   0  0  0  0  0  0  0  0  0  0  0  0
    3.5716   -2.4700    0.0000 C   0  0  0  0  0  0  0  0  0  0  0  0
    4.8705   -3.2202    0.0000 H   0  0  0  0  0  0  0  0  0  0  0  0
    3.5716   -0.9700    0.0000 C   0  0  0  0  0  0  0  0  0  0  0  0
    2.2716   -0.2200    0.0000 C   0  0  0  0  0  0  0  0  0  0  0  0
    2.2716    1.2800    0.0000 H   0  0  0  0  0  0  0  0  0  0  0  0
    0.9716   -0.9700    0.0000 C   0  0  0  0  0  0  0  0  0  0  0  0
    4.8705   -0.2198    0.0000 Cl  0  0  0  0  0  0  0  0  0  0  0  0
   -3.7697    6.7351    0.0000 C   0  0  0  0  0  0  0  0  0  0  0  0
   -2.2921    6.4770    0.0000 H   0  0  0  0  0  0  0  0  0  0  0  0
   -3.2587    8.1453    0.0000 H   0  0  0  0  0  0  0  0  0  0  0  0
   -5.0704    7.4839    0.0000 C   0  0  0  0  0  0  0  0  0  0  0  0
   -4.1077    8.6343    0.0000 H   0  0  0  0  0  0  0  0  0  0  0  0
   -6.0362    8.6317    0.0000 H   0  0  0  0  0  0  0  0  0  0  0  0
  1  2  1  0  0  0  0 
  1  3  1  0  0  0  0 
  1  4  1  0  0  0  0 
  1  5  1  0  0  0  0 
  5  6  1  0  0  0  0 
  6  7  1  0  0  0  0 
  6  8  1  0  0  0  0 
  6  9  1  0  0  0  0 
  9 10  1  0  0  0  0 
  9 11  1  0  0  0  0 
  9 12  1  0  0  0  0 
 12 13  2  0  0  0  0 
 13 14  1  4  0  0  0 
 13 15  1  0  0  0  0 
 15 16  1  0  0  0  0 
 15 17  1  0  0  0  0 
 15 18  1  0  0  0  0 
 18 19  1  0  0  0  0 
 18 20  1  0  0  0  0 
 18 21  1  0  0  0  0 
 21 22  1  0  0  0  0 
 22 23  2  0  0  0  0 
 23 24  1  0  0  0  0 
 24 25  1  0  0  0  0 
 24 26  2  0  0  0  0 
 26 27  1  0  0  0  0 
 26 28  1  0  0  0  0 
 28 29  1  0  0  0  0 
 28 30  2  0  0  0  0 
 22 30  1  0  0  0  0 
 30 31  1  0  0  0  0 
 23 32  1  0  0  0  0 
 32 33  1  0  0  0  0 
 33 34  2  0  0  0  0 
 34 35  1  0  0  0  0 
 34 36  1  0  0  0  0 
 36 37  1  0  0  0  0 
 36 38  2  0  0  0  0 
 38 39  1  0  0  0  0 
 39 40  1  0  0  0  0 
 39 41  2  0  0  0  0 
 33 41  1  0  0  0  0 
 21 41  1  0  0  0  0 
 38 42  1  0  0  0  0 
 12 43  1  0  0  0  0 
 43 44  1  0  0  0  0 
 43 45  1  0  0  0  0 
 43 46  1  0  0  0  0 
  5 46  1  0  0  0  0 
 46 47  1  0  0  0  0 
 46 48  1  0  0  0  0 
M  CHG  1  12   1
M  END
> <Rank>
30

> <Priority_score>
0.0616

> <Reaction_type>
dehydration of N-C bond

> <Parent_ID>
33

> <Parent_InChI>
InChI=1S/C20H24ClN3S/c1-22-11-13-23(14-12-22)9-4-10-24-17-5-2-3-6-19(17)25-20-8-7-16(21)15-18(20)24/h2-3,5-8,15H,4,9-14H2,1H3

> <Parent_SMILES>
CN1CCN(CCCN2c3ccccc3Sc3ccc(Cl)cc32)CC1

$$$$
Molecule 33_metabolite 31
  CDK     0516241031

 47 50  0  0  0  0  0  0  0  0999 V2000
   -6.8372    7.9612    0.0000 C   0  0  0  0  0  0  0  0  0  0  0  0
   -6.8397    9.4612    0.0000 H   0  0  0  0  0  0  0  0  0  0  0  0
   -8.3149    8.2192    0.0000 H   0  0  0  0  0  0  0  0  0  0  0  0
   -7.3479    6.5508    0.0000 H   0  0  0  0  0  0  0  0  0  0  0  0
   -5.1208    6.9741    0.0000 N   0  0  0  0  0  0  0  0  0  0  0  0
   -5.1181    5.4732    0.0000 C   0  0  0  0  0  0  0  0  0  0  0  0
   -6.5957    5.7313    0.0000 H   0  0  0  0  0  0  0  0  0  0  0  0
   -5.6291    4.0630    0.0000 H   0  0  0  0  0  0  0  0  0  0  0  0
   -3.8174    4.7244    0.0000 C   0  0  0  0  0  0  0  0  0  0  0  0
   -4.7801    3.5741    0.0000 H   0  0  0  0  0  0  0  0  0  0  0  0
   -2.8516    3.5767    0.0000 H   0  0  0  0  0  0  0  0  0  0  0  0
   -2.5195    5.4763    0.0000 N   0  0  0  0  0  0  0  0  0  0  0  0
   -1.2192    4.7285    0.0000 C   0  0  0  0  0  0  0  0  0  0  0  0
    0.0786    5.4807    0.0000 H   0  0  0  0  0  0  0  0  0  0  0  0
   -1.2167    3.2285    0.0000 C   0  0  0  0  0  0  0  0  0  0  0  0
   -2.5145    2.4763    0.0000 H   0  0  0  0  0  0  0  0  0  0  0  0
    0.0836    2.4807    0.0000 C   0  0  0  0  0  0  0  0  0  0  0  0
    1.5612    2.2227    0.0000 H   0  0  0  0  0  0  0  0  0  0  0  0
    0.5943    3.8911    0.0000 H   0  0  0  0  0  0  0  0  0  0  0  0
    0.0877    0.0207    0.0000 N   0  0  0  0  0  0  0  0  0  0  0  0
   -1.2023   -0.7293    0.0000 C   0  0  0  0  0  0  0  0  0  0  0  0
   -1.2023   -2.2293    0.0000 C   0  0  0  0  0  0  0  0  0  0  0  0
   -2.5023   -2.9793    0.0000 C   0  0  0  0  0  0  0  0  0  0  0  0
   -2.5023   -4.4793    0.0000 H   0  0  0  0  0  0  0  0  0  0  0  0
   -3.8023   -2.2293    0.0000 C   0  0  0  0  0  0  0  0  0  0  0  0
   -5.1012   -2.9795    0.0000 H   0  0  0  0  0  0  0  0  0  0  0  0
   -3.8023   -0.7293    0.0000 C   0  0  0  0  0  0  0  0  0  0  0  0
   -5.1012    0.0209    0.0000 H   0  0  0  0  0  0  0  0  0  0  0  0
   -2.5023    0.0207    0.0000 C   0  0  0  0  0  0  0  0  0  0  0  0
   -2.5023    1.5207    0.0000 H   0  0  0  0  0  0  0  0  0  0  0  0
    0.0877   -2.9793    0.0000 S   0  0  0  0  0  0  0  0  0  0  0  0
    1.3877   -2.2293    0.0000 C   0  0  0  0  0  0  0  0  0  0  0  0
    2.6877   -2.9793    0.0000 C   0  0  0  0  0  0  0  0  0  0  0  0
    2.6877   -4.4793    0.0000 H   0  0  0  0  0  0  0  0  0  0  0  0
    3.9877   -2.2293    0.0000 C   0  0  0  0  0  0  0  0  0  0  0  0
    5.2866   -2.9795    0.0000 H   0  0  0  0  0  0  0  0  0  0  0  0
    3.9877   -0.7293    0.0000 C   0  0  0  0  0  0  0  0  0  0  0  0
    2.6877    0.0207    0.0000 C   0  0  0  0  0  0  0  0  0  0  0  0
    2.6877    1.5207    0.0000 H   0  0  0  0  0  0  0  0  0  0  0  0
    1.3877   -0.7293    0.0000 C   0  0  0  0  0  0  0  0  0  0  0  0
    5.2866    0.0209    0.0000 Cl  0  0  0  0  0  0  0  0  0  0  0  0
   -2.5223    6.9772    0.0000 C   0  0  0  0  0  0  0  0  0  0  0  0
   -1.0446    6.7191    0.0000 H   0  0  0  0  0  0  0  0  0  0  0  0
   -2.0112    8.3874    0.0000 H   0  0  0  0  0  0  0  0  0  0  0  0
   -3.8229    7.7260    0.0000 C   0  0  0  0  0  0  0  0  0  0  0  0
   -2.8602    8.8764    0.0000 H   0  0  0  0  0  0  0  0  0  0  0  0
   -4.7887    8.8737    0.0000 H   0  0  0  0  0  0  0  0  0  0  0  0
  1  2  1  0  0  0  0 
  1  3  1  0  0  0  0 
  1  4  1  0  0  0  0 
  1  5  1  0  0  0  0 
  5  6  1  0  0  0  0 
  6  7  1  0  0  0  0 
  6  8  1  0  0  0  0 
  6  9  1  0  0  0  0 
  9 10  1  0  0  0  0 
  9 11  1  0  0  0  0 
  9 12  1  0  0  0  0 
 12 13  1  0  0  0  0 
 13 14  1  4  0  0  0 
 13 15  2  0  0  0  0 
 15 16  1  0  0  0  0 
 15 17  1  0  0  0  0 
 17 18  1  0  0  0  0 
 17 19  1  0  0  0  0 
 17 20  1  0  0  0  0 
 20 21  1  0  0  0  0 
 21 22  2  0  0  0  0 
 22 23  1  0  0  0  0 
 23 24  1  0  0  0  0 
 23 25  2  0  0  0  0 
 25 26  1  0  0  0  0 
 25 27  1  0  0  0  0 
 27 28  1  0  0  0  0 
 27 29  2  0  0  0  0 
 21 29  1  0  0  0  0 
 29 30  1  0  0  0  0 
 22 31  1  0  0  0  0 
 31 32  1  0  0  0  0 
 32 33  2  0  0  0  0 
 33 34  1  0  0  0  0 
 33 35  1  0  0  0  0 
 35 36  1  0  0  0  0 
 35 37  2  0  0  0  0 
 37 38  1  0  0  0  0 
 38 39  1  0  0  0  0 
 38 40  2  0  0  0  0 
 32 40  1  0  0  0  0 
 20 40  1  0  0  0  0 
 37 41  1  0  0  0  0 
 12 42  1  0  0  0  0 
 42 43  1  0  0  0  0 
 42 44  1  0  0  0  0 
 42 45  1  0  0  0  0 
  5 45  1  0  0  0  0 
 45 46  1  0  0  0  0 
 45 47  1  0  0  0  0 
M  END
> <Rank>
30

> <Priority_score>
0.0616

> <Reaction_type>
alkyl dehydrogenation

> <Parent_ID>
33

> <Parent_InChI>
InChI=1S/C20H24ClN3S/c1-22-11-13-23(14-12-22)9-4-10-24-17-5-2-3-6-19(17)25-20-8-7-16(21)15-18(20)24/h2-3,5-8,15H,4,9-14H2,1H3

> <Parent_SMILES>
CN1CCN(CCCN2c3ccccc3Sc3ccc(Cl)cc32)CC1

$$$$
Molecule 33_metabolite 32
  CDK     0516241031

 50 53  0  0  0  0  0  0  0  0999 V2000
   -6.4959   10.1721    0.0000 C   0  0  0  0  0  0  0  0  0  0  0  0
   -6.4959   11.6721    0.0000 H   0  0  0  0  0  0  0  0  0  0  0  0
   -7.9731   10.4326    0.0000 H   0  0  0  0  0  0  0  0  0  0  0  0
   -7.0089    8.7625    0.0000 H   0  0  0  0  0  0  0  0  0  0  0  0
   -4.7812    9.1821    0.0000 N   0  0  0  0  0  0  0  0  0  0  0  0
   -4.7809    7.6812    0.0000 C   0  0  0  0  0  0  0  0  0  0  0  0
   -6.2581    7.9418    0.0000 H   0  0  0  0  0  0  0  0  0  0  0  0
   -5.2943    6.2718    0.0000 H   0  0  0  0  0  0  0  0  0  0  0  0
   -3.4815    6.9302    0.0000 C   0  0  0  0  0  0  0  0  0  0  0  0
   -4.4462    5.7815    0.0000 H   0  0  0  0  0  0  0  0  0  0  0  0
   -2.5177    5.7809    0.0000 H   0  0  0  0  0  0  0  0  0  0  0  0
   -2.1824    7.6800    0.0000 N   0  0  0  0  0  0  0  0  0  0  0  0
   -0.4677    6.6900    0.0000 C   0  0  0  0  0  0  0  0  0  0  0  0
    1.0096    6.4295    0.0000 H   0  0  0  0  0  0  0  0  0  0  0  0
    0.4965    7.8391    0.0000 H   0  0  0  0  0  0  0  0  0  0  0  0
   -0.4677    4.7100    0.0000 C   0  0  0  0  0  0  0  0  0  0  0  0
   -1.9449    4.9705    0.0000 H   0  0  0  0  0  0  0  0  0  0  0  0
   -0.9807    3.3005    0.0000 H   0  0  0  0  0  0  0  0  0  0  0  0
    1.2471    3.7200    0.0000 C   0  0  0  0  0  0  0  0  0  0  0  0
    2.7243    3.4595    0.0000 H   0  0  0  0  0  0  0  0  0  0  0  0
    1.7601    5.1295    0.0000 H   0  0  0  0  0  0  0  0  0  0  0  0
    1.2471    1.2600    0.0000 N   0  0  0  0  0  0  0  0  0  0  0  0
   -0.0529    0.5100    0.0000 C   0  0  0  0  0  0  0  0  0  0  0  0
   -0.0529   -0.9900    0.0000 C   0  0  0  0  0  0  0  0  0  0  0  0
   -1.3529   -1.7400    0.0000 C   0  0  0  0  0  0  0  0  0  0  0  0
   -1.3529   -3.2400    0.0000 H   0  0  0  0  0  0  0  0  0  0  0  0
   -2.6529   -0.9900    0.0000 C   0  0  0  0  0  0  0  0  0  0  0  0
   -3.9518   -1.7402    0.0000 H   0  0  0  0  0  0  0  0  0  0  0  0
   -2.6529    0.5100    0.0000 C   0  0  0  0  0  0  0  0  0  0  0  0
   -3.9518    1.2602    0.0000 H   0  0  0  0  0  0  0  0  0  0  0  0
   -1.3529    1.2600    0.0000 C   0  0  0  0  0  0  0  0  0  0  0  0
   -1.6134    2.7372    0.0000 H   0  0  0  0  0  0  0  0  0  0  0  0
    1.2471   -1.7400    0.0000 S   0  0  0  0  0  0  0  0  0  0  0  0
    2.5471   -0.9900    0.0000 C   0  0  0  0  0  0  0  0  0  0  0  0
    3.8471   -1.7400    0.0000 C   0  0  0  0  0  0  0  0  0  0  0  0
    5.1471   -0.9900    0.0000 C   0  0  0  0  0  0  0  0  0  0  0  0
    6.4460   -1.7402    0.0000 H   0  0  0  0  0  0  0  0  0  0  0  0
    5.1471    0.5100    0.0000 C   0  0  0  0  0  0  0  0  0  0  0  0
    3.8471    1.2600    0.0000 C   0  0  0  0  0  0  0  0  0  0  0  0
    3.8471    2.7600    0.0000 H   0  0  0  0  0  0  0  0  0  0  0  0
    2.5471    0.5100    0.0000 C   0  0  0  0  0  0  0  0  0  0  0  0
    6.4460    1.2602    0.0000 Cl  0  0  0  0  0  0  0  0  0  0  0  0
    3.8471   -3.2400    0.0000 O   0  0  0  0  0  0  0  0  0  0  0  0
    5.1461   -3.9900    0.0000 H   0  0  0  0  0  0  0  0  0  0  0  0
   -2.1826    9.1808    0.0000 C   0  0  0  0  0  0  0  0  0  0  0  0
   -0.7054    8.9203    0.0000 H   0  0  0  0  0  0  0  0  0  0  0  0
   -1.6692   10.5902    0.0000 H   0  0  0  0  0  0  0  0  0  0  0  0
   -3.4820    9.9319    0.0000 C   0  0  0  0  0  0  0  0  0  0  0  0
   -2.5174   11.0806    0.0000 H   0  0  0  0  0  0  0  0  0  0  0  0
   -4.4459   11.0812    0.0000 H   0  0  0  0  0  0  0  0  0  0  0  0
  1  2  1  0  0  0  0 
  1  3  1  0  0  0  0 
  1  4  1  0  0  0  0 
  1  5  1  0  0  0  0 
  5  6  1  0  0  0  0 
  6  7  1  0  0  0  0 
  6  8  1  0  0  0  0 
  6  9  1  0  0  0  0 
  9 10  1  0  0  0  0 
  9 11  1  0  0  0  0 
  9 12  1  0  0  0  0 
 12 13  1  0  0  0  0 
 13 14  1  0  0  0  0 
 13 15  1  0  0  0  0 
 13 16  1  0  0  0  0 
 16 17  1  0  0  0  0 
 16 18  1  0  0  0  0 
 16 19  1  0  0  0  0 
 19 20  1  0  0  0  0 
 19 21  1  0  0  0  0 
 19 22  1  0  0  0  0 
 22 23  1  0  0  0  0 
 23 24  2  0  0  0  0 
 24 25  1  0  0  0  0 
 25 26  1  0  0  0  0 
 25 27  2  0  0  0  0 
 27 28  1  0  0  0  0 
 27 29  1  0  0  0  0 
 29 30  1  0  0  0  0 
 29 31  2  0  0  0  0 
 23 31  1  0  0  0  0 
 31 32  1  0  0  0  0 
 24 33  1  0  0  0  0 
 33 34  1  0  0  0  0 
 34 35  2  0  0  0  0 
 35 36  1  0  0  0  0 
 36 37  1  0  0  0  0 
 36 38  2  0  0  0  0 
 38 39  1  0  0  0  0 
 39 40  1  0  0  0  0 
 39 41  2  0  0  0  0 
 34 41  1  0  0  0  0 
 22 41  1  0  0  0  0 
 38 42  1  0  0  0  0 
 35 43  1  0  0  0  0 
 43 44  1  0  0  0  0 
 12 45  1  0  0  0  0 
 45 46  1  0  0  0  0 
 45 47  1  0  0  0  0 
 45 48  1  0  0  0  0 
  5 48  1  0  0  0  0 
 48 49  1  0  0  0  0 
 48 50  1  0  0  0  0 
M  END
> <Rank>
32

> <Priority_score>
0.048

> <Reaction_type>
aromatic hydroxylation

> <Parent_ID>
33

> <Parent_InChI>
InChI=1S/C20H24ClN3S/c1-22-11-13-23(14-12-22)9-4-10-24-17-5-2-3-6-19(17)25-20-8-7-16(21)15-18(20)24/h2-3,5-8,15H,4,9-14H2,1H3

> <Parent_SMILES>
CN1CCN(CCCN2c3ccccc3Sc3ccc(Cl)cc32)CC1

$$$$
Molecule 33_metabolite 33
  CDK     0516241031

 48 51  0  0  0  0  0  0  0  0999 V2000
   -6.4243    9.6419    0.0000 C   0  0  0  0  0  0  0  0  0  0  0  0
   -6.4268   11.1419    0.0000 H   0  0  0  0  0  0  0  0  0  0  0  0
   -7.9020    9.8999    0.0000 H   0  0  0  0  0  0  0  0  0  0  0  0
   -6.9350    8.2315    0.0000 H   0  0  0  0  0  0  0  0  0  0  0  0
   -5.1240    8.8941    0.0000 N   0  0  0  0  0  0  0  0  0  0  0  0
   -5.1213    7.3932    0.0000 C   0  0  0  0  0  0  0  0  0  0  0  0
   -6.4192    6.6413    0.0000 H   0  0  0  0  0  0  0  0  0  0  0  0
   -3.8206    6.6444    0.0000 C   0  0  0  0  0  0  0  0  0  0  0  0
   -4.7833    5.4941    0.0000 H   0  0  0  0  0  0  0  0  0  0  0  0
   -2.8548    5.4967    0.0000 H   0  0  0  0  0  0  0  0  0  0  0  0
   -2.5227    7.3963    0.0000 N   0  0  0  0  0  0  0  0  0  0  0  0
   -0.8063    6.4092    0.0000 C   0  0  0  0  0  0  0  0  0  0  0  0
    0.6713    6.1512    0.0000 H   0  0  0  0  0  0  0  0  0  0  0  0
    0.1559    7.5599    0.0000 H   0  0  0  0  0  0  0  0  0  0  0  0
   -0.8030    4.4292    0.0000 C   0  0  0  0  0  0  0  0  0  0  0  0
   -2.2807    4.6872    0.0000 H   0  0  0  0  0  0  0  0  0  0  0  0
   -1.3137    3.0188    0.0000 H   0  0  0  0  0  0  0  0  0  0  0  0
    0.9134    3.4421    0.0000 C   0  0  0  0  0  0  0  0  0  0  0  0
    2.3910    3.1841    0.0000 H   0  0  0  0  0  0  0  0  0  0  0  0
    1.4240    4.8525    0.0000 H   0  0  0  0  0  0  0  0  0  0  0  0
    0.9175    0.9821    0.0000 N   0  0  0  0  0  0  0  0  0  0  0  0
   -0.3725    0.2321    0.0000 C   0  0  0  0  0  0  0  0  0  0  0  0
   -0.3725   -1.2679    0.0000 C   0  0  0  0  0  0  0  0  0  0  0  0
   -1.6725   -2.0179    0.0000 C   0  0  0  0  0  0  0  0  0  0  0  0
   -1.6725   -3.5179    0.0000 H   0  0  0  0  0  0  0  0  0  0  0  0
   -2.9725   -1.2679    0.0000 C   0  0  0  0  0  0  0  0  0  0  0  0
   -4.2714   -2.0181    0.0000 H   0  0  0  0  0  0  0  0  0  0  0  0
   -2.9725    0.2321    0.0000 C   0  0  0  0  0  0  0  0  0  0  0  0
   -4.2714    0.9823    0.0000 H   0  0  0  0  0  0  0  0  0  0  0  0
   -1.6725    0.9821    0.0000 C   0  0  0  0  0  0  0  0  0  0  0  0
   -1.9330    2.4593    0.0000 H   0  0  0  0  0  0  0  0  0  0  0  0
    0.9175   -2.0179    0.0000 S   0  0  0  0  0  0  0  0  0  0  0  0
    2.2175   -1.2679    0.0000 C   0  0  0  0  0  0  0  0  0  0  0  0
    3.5175   -2.0179    0.0000 C   0  0  0  0  0  0  0  0  0  0  0  0
    3.5175   -3.5179    0.0000 H   0  0  0  0  0  0  0  0  0  0  0  0
    4.8175   -1.2679    0.0000 C   0  0  0  0  0  0  0  0  0  0  0  0
    6.1164   -2.0181    0.0000 H   0  0  0  0  0  0  0  0  0  0  0  0
    4.8175    0.2321    0.0000 C   0  0  0  0  0  0  0  0  0  0  0  0
    3.5175    0.9821    0.0000 C   0  0  0  0  0  0  0  0  0  0  0  0
    3.5175    2.4821    0.0000 H   0  0  0  0  0  0  0  0  0  0  0  0
    2.2175    0.2321    0.0000 C   0  0  0  0  0  0  0  0  0  0  0  0
    6.1164    0.9823    0.0000 Cl  0  0  0  0  0  0  0  0  0  0  0  0
   -2.5255    8.8972    0.0000 C   0  0  0  0  0  0  0  0  0  0  0  0
   -1.0479    8.6391    0.0000 H   0  0  0  0  0  0  0  0  0  0  0  0
   -2.0144   10.3074    0.0000 H   0  0  0  0  0  0  0  0  0  0  0  0
   -3.8261    9.6460    0.0000 C   0  0  0  0  0  0  0  0  0  0  0  0
   -2.8635   10.7964    0.0000 H   0  0  0  0  0  0  0  0  0  0  0  0
   -4.7919   10.7937    0.0000 H   0  0  0  0  0  0  0  0  0  0  0  0
  1  2  1  0  0  0  0 
  1  3  1  0  0  0  0 
  1  4  1  0  0  0  0 
  1  5  1  0  0  0  0 
  5  6  2  0  0  0  0 
  6  7  1  0  0  0  0 
  6  8  1  0  0  0  0 
  8  9  1  0  0  0  0 
  8 10  1  0  0  0  0 
  8 11  1  0  0  0  0 
 11 12  1  0  0  0  0 
 12 13  1  0  0  0  0 
 12 14  1  0  0  0  0 
 12 15  1  0  0  0  0 
 15 16  1  0  0  0  0 
 15 17  1  0  0  0  0 
 15 18  1  0  0  0  0 
 18 19  1  0  0  0  0 
 18 20  1  0  0  0  0 
 18 21  1  0  0  0  0 
 21 22  1  0  0  0  0 
 22 23  2  0  0  0  0 
 23 24  1  0  0  0  0 
 24 25  1  0  0  0  0 
 24 26  2  0  0  0  0 
 26 27  1  0  0  0  0 
 26 28  1  0  0  0  0 
 28 29  1  0  0  0  0 
 28 30  2  0  0  0  0 
 22 30  1  0  0  0  0 
 30 31  1  0  0  0  0 
 23 32  1  0  0  0  0 
 32 33  1  0  0  0  0 
 33 34  2  0  0  0  0 
 34 35  1  0  0  0  0 
 34 36  1  0  0  0  0 
 36 37  1  0  0  0  0 
 36 38  2  0  0  0  0 
 38 39  1  0  0  0  0 
 39 40  1  0  0  0  0 
 39 41  2  0  0  0  0 
 33 41  1  0  0  0  0 
 21 41  1  0  0  0  0 
 38 42  1  0  0  0  0 
 11 43  1  0  0  0  0 
 43 44  1  0  0  0  0 
 43 45  1  0  0  0  0 
 43 46  1  0  0  0  0 
  5 46  1  0  0  0  0 
 46 47  1  0  0  0  0 
 46 48  1  0  0  0  0 
M  CHG  1   5   1
M  END
> <Rank>
33

> <Priority_score>
0.044000000000000004

> <Reaction_type>
dehydration of N-C bond

> <Parent_ID>
33

> <Parent_InChI>
InChI=1S/C20H24ClN3S/c1-22-11-13-23(14-12-22)9-4-10-24-17-5-2-3-6-19(17)25-20-8-7-16(21)15-18(20)24/h2-3,5-8,15H,4,9-14H2,1H3

> <Parent_SMILES>
CN1CCN(CCCN2c3ccccc3Sc3ccc(Cl)cc32)CC1

$$$$
Molecule 33_metabolite 34
  CDK     0516241031

 50 53  0  0  0  0  0  0  0  0999 V2000
   -6.4959   10.1721    0.0000 C   0  0  0  0  0  0  0  0  0  0  0  0
   -6.4959   11.6721    0.0000 H   0  0  0  0  0  0  0  0  0  0  0  0
   -7.9731   10.4326    0.0000 H   0  0  0  0  0  0  0  0  0  0  0  0
   -7.0089    8.7625    0.0000 H   0  0  0  0  0  0  0  0  0  0  0  0
   -4.7812    9.1821    0.0000 N   0  0  0  0  0  0  0  0  0  0  0  0
   -4.7809    7.6812    0.0000 C   0  0  0  0  0  0  0  0  0  0  0  0
   -6.2581    7.9418    0.0000 H   0  0  0  0  0  0  0  0  0  0  0  0
   -5.2943    6.2718    0.0000 H   0  0  0  0  0  0  0  0  0  0  0  0
   -3.4815    6.9302    0.0000 C   0  0  0  0  0  0  0  0  0  0  0  0
   -4.4462    5.7815    0.0000 H   0  0  0  0  0  0  0  0  0  0  0  0
   -2.5177    5.7809    0.0000 H   0  0  0  0  0  0  0  0  0  0  0  0
   -2.1824    7.6800    0.0000 N   0  0  0  0  0  0  0  0  0  0  0  0
   -0.4677    6.6900    0.0000 C   0  0  0  0  0  0  0  0  0  0  0  0
    1.0096    6.4295    0.0000 H   0  0  0  0  0  0  0  0  0  0  0  0
    0.4965    7.8391    0.0000 H   0  0  0  0  0  0  0  0  0  0  0  0
   -0.4677    4.7100    0.0000 C   0  0  0  0  0  0  0  0  0  0  0  0
   -1.9449    4.9705    0.0000 H   0  0  0  0  0  0  0  0  0  0  0  0
   -0.9807    3.3005    0.0000 H   0  0  0  0  0  0  0  0  0  0  0  0
    1.2471    3.7200    0.0000 C   0  0  0  0  0  0  0  0  0  0  0  0
    2.7243    3.4595    0.0000 H   0  0  0  0  0  0  0  0  0  0  0  0
    1.7601    5.1295    0.0000 H   0  0  0  0  0  0  0  0  0  0  0  0
    1.2471    1.2600    0.0000 N   0  0  0  0  0  0  0  0  0  0  0  0
   -0.0529    0.5100    0.0000 C   0  0  0  0  0  0  0  0  0  0  0  0
   -1.3529    1.2600    0.0000 C   0  0  0  0  0  0  0  0  0  0  0  0
   -1.6134    2.7372    0.0000 H   0  0  0  0  0  0  0  0  0  0  0  0
   -2.6529    0.5100    0.0000 C   0  0  0  0  0  0  0  0  0  0  0  0
   -3.9518    1.2602    0.0000 H   0  0  0  0  0  0  0  0  0  0  0  0
   -2.6529   -0.9900    0.0000 C   0  0  0  0  0  0  0  0  0  0  0  0
   -3.9518   -1.7402    0.0000 H   0  0  0  0  0  0  0  0  0  0  0  0
   -1.3529   -1.7400    0.0000 C   0  0  0  0  0  0  0  0  0  0  0  0
   -0.0529   -0.9900    0.0000 C   0  0  0  0  0  0  0  0  0  0  0  0
    1.2471   -1.7400    0.0000 S   0  0  0  0  0  0  0  0  0  0  0  0
    2.5471   -0.9900    0.0000 C   0  0  0  0  0  0  0  0  0  0  0  0
    3.8471   -1.7400    0.0000 C   0  0  0  0  0  0  0  0  0  0  0  0
    3.8471   -3.2400    0.0000 H   0  0  0  0  0  0  0  0  0  0  0  0
    5.1471   -0.9900    0.0000 C   0  0  0  0  0  0  0  0  0  0  0  0
    6.4460   -1.7402    0.0000 H   0  0  0  0  0  0  0  0  0  0  0  0
    5.1471    0.5100    0.0000 C   0  0  0  0  0  0  0  0  0  0  0  0
    3.8471    1.2600    0.0000 C   0  0  0  0  0  0  0  0  0  0  0  0
    3.8471    2.7600    0.0000 H   0  0  0  0  0  0  0  0  0  0  0  0
    2.5471    0.5100    0.0000 C   0  0  0  0  0  0  0  0  0  0  0  0
    6.4460    1.2602    0.0000 Cl  0  0  0  0  0  0  0  0  0  0  0  0
   -1.3529   -3.2400    0.0000 O   0  0  0  0  0  0  0  0  0  0  0  0
   -2.6520   -3.9900    0.0000 H   0  0  0  0  0  0  0  0  0  0  0  0
   -2.1826    9.1808    0.0000 C   0  0  0  0  0  0  0  0  0  0  0  0
   -0.7054    8.9203    0.0000 H   0  0  0  0  0  0  0  0  0  0  0  0
   -1.6692   10.5902    0.0000 H   0  0  0  0  0  0  0  0  0  0  0  0
   -3.4820    9.9319    0.0000 C   0  0  0  0  0  0  0  0  0  0  0  0
   -2.5174   11.0806    0.0000 H   0  0  0  0  0  0  0  0  0  0  0  0
   -4.4459   11.0812    0.0000 H   0  0  0  0  0  0  0  0  0  0  0  0
  1  2  1  0  0  0  0 
  1  3  1  0  0  0  0 
  1  4  1  0  0  0  0 
  1  5  1  0  0  0  0 
  5  6  1  0  0  0  0 
  6  7  1  0  0  0  0 
  6  8  1  0  0  0  0 
  6  9  1  0  0  0  0 
  9 10  1  0  0  0  0 
  9 11  1  0  0  0  0 
  9 12  1  0  0  0  0 
 12 13  1  0  0  0  0 
 13 14  1  0  0  0  0 
 13 15  1  0  0  0  0 
 13 16  1  0  0  0  0 
 16 17  1  0  0  0  0 
 16 18  1  0  0  0  0 
 16 19  1  0  0  0  0 
 19 20  1  0  0  0  0 
 19 21  1  0  0  0  0 
 19 22  1  0  0  0  0 
 22 23  1  0  0  0  0 
 23 24  2  0  0  0  0 
 24 25  1  0  0  0  0 
 24 26  1  0  0  0  0 
 26 27  1  0  0  0  0 
 26 28  2  0  0  0  0 
 28 29  1  0  0  0  0 
 28 30  1  0  0  0  0 
 30 31  2  0  0  0  0 
 23 31  1  0  0  0  0 
 31 32  1  0  0  0  0 
 32 33  1  0  0  0  0 
 33 34  2  0  0  0  0 
 34 35  1  0  0  0  0 
 34 36  1  0  0  0  0 
 36 37  1  0  0  0  0 
 36 38  2  0  0  0  0 
 38 39  1  0  0  0  0 
 39 40  1  0  0  0  0 
 39 41  2  0  0  0  0 
 33 41  1  0  0  0  0 
 22 41  1  0  0  0  0 
 38 42  1  0  0  0  0 
 30 43  1  0  0  0  0 
 43 44  1  0  0  0  0 
 12 45  1  0  0  0  0 
 45 46  1  0  0  0  0 
 45 47  1  0  0  0  0 
 45 48  1  0  0  0  0 
  5 48  1  0  0  0  0 
 48 49  1  0  0  0  0 
 48 50  1  0  0  0  0 
M  END
> <Rank>
34

> <Priority_score>
0.036

> <Reaction_type>
aromatic hydroxylation

> <Parent_ID>
33

> <Parent_InChI>
InChI=1S/C20H24ClN3S/c1-22-11-13-23(14-12-22)9-4-10-24-17-5-2-3-6-19(17)25-20-8-7-16(21)15-18(20)24/h2-3,5-8,15H,4,9-14H2,1H3

> <Parent_SMILES>
CN1CCN(CCCN2c3ccccc3Sc3ccc(Cl)cc32)CC1

$$$$
Molecule 33_metabolite 35
  CDK     0516241031

 47 50  0  0  0  0  0  0  0  0999 V2000
   -6.8372    7.9612    0.0000 C   0  0  0  0  0  0  0  0  0  0  0  0
   -6.8397    9.4612    0.0000 H   0  0  0  0  0  0  0  0  0  0  0  0
   -8.3149    8.2192    0.0000 H   0  0  0  0  0  0  0  0  0  0  0  0
   -7.3479    6.5508    0.0000 H   0  0  0  0  0  0  0  0  0  0  0  0
   -5.5369    7.2134    0.0000 N   0  0  0  0  0  0  0  0  0  0  0  0
   -5.5342    5.7125    0.0000 C   0  0  0  0  0  0  0  0  0  0  0  0
   -6.8321    4.9606    0.0000 H   0  0  0  0  0  0  0  0  0  0  0  0
   -4.2335    4.9637    0.0000 C   0  0  0  0  0  0  0  0  0  0  0  0
   -4.2315    3.4637    0.0000 H   0  0  0  0  0  0  0  0  0  0  0  0
   -2.9356    5.7156    0.0000 N   0  0  0  0  0  0  0  0  0  0  0  0
   -1.2192    4.7285    0.0000 C   0  0  0  0  0  0  0  0  0  0  0  0
    0.2584    4.4705    0.0000 H   0  0  0  0  0  0  0  0  0  0  0  0
   -0.7086    6.1389    0.0000 H   0  0  0  0  0  0  0  0  0  0  0  0
   -1.2159    2.7485    0.0000 C   0  0  0  0  0  0  0  0  0  0  0  0
   -2.6936    3.0065    0.0000 H   0  0  0  0  0  0  0  0  0  0  0  0
   -1.7266    1.3381    0.0000 H   0  0  0  0  0  0  0  0  0  0  0  0
    0.0844    2.0007    0.0000 C   0  0  0  0  0  0  0  0  0  0  0  0
    1.5620    1.7427    0.0000 H   0  0  0  0  0  0  0  0  0  0  0  0
    0.5951    3.4111    0.0000 H   0  0  0  0  0  0  0  0  0  0  0  0
    0.0869    0.5007    0.0000 N   0  0  0  0  0  0  0  0  0  0  0  0
   -1.2031   -0.2493    0.0000 C   0  0  0  0  0  0  0  0  0  0  0  0
   -1.2031   -1.7493    0.0000 C   0  0  0  0  0  0  0  0  0  0  0  0
   -2.5031   -2.4993    0.0000 C   0  0  0  0  0  0  0  0  0  0  0  0
   -2.5031   -3.9993    0.0000 H   0  0  0  0  0  0  0  0  0  0  0  0
   -3.8031   -1.7493    0.0000 C   0  0  0  0  0  0  0  0  0  0  0  0
   -5.1020   -2.4995    0.0000 H   0  0  0  0  0  0  0  0  0  0  0  0
   -3.8031   -0.2493    0.0000 C   0  0  0  0  0  0  0  0  0  0  0  0
   -5.1020    0.5009    0.0000 H   0  0  0  0  0  0  0  0  0  0  0  0
   -2.5031    0.5007    0.0000 C   0  0  0  0  0  0  0  0  0  0  0  0
   -2.5031    2.0007    0.0000 H   0  0  0  0  0  0  0  0  0  0  0  0
    0.0869   -2.4993    0.0000 S   0  0  0  0  0  0  0  0  0  0  0  0
    1.3869   -1.7493    0.0000 C   0  0  0  0  0  0  0  0  0  0  0  0
    2.6869   -2.4993    0.0000 C   0  0  0  0  0  0  0  0  0  0  0  0
    2.6869   -3.9993    0.0000 H   0  0  0  0  0  0  0  0  0  0  0  0
    3.9869   -1.7493    0.0000 C   0  0  0  0  0  0  0  0  0  0  0  0
    5.2858   -2.4995    0.0000 H   0  0  0  0  0  0  0  0  0  0  0  0
    3.9869   -0.2493    0.0000 C   0  0  0  0  0  0  0  0  0  0  0  0
    2.6869    0.5007    0.0000 C   0  0  0  0  0  0  0  0  0  0  0  0
    2.6869    2.0007    0.0000 H   0  0  0  0  0  0  0  0  0  0  0  0
    1.3869   -0.2493    0.0000 C   0  0  0  0  0  0  0  0  0  0  0  0
    5.2858    0.5009    0.0000 Cl  0  0  0  0  0  0  0  0  0  0  0  0
   -2.9384    7.2165    0.0000 C   0  0  0  0  0  0  0  0  0  0  0  0
   -1.4607    6.9584    0.0000 H   0  0  0  0  0  0  0  0  0  0  0  0
   -2.4273    8.6267    0.0000 H   0  0  0  0  0  0  0  0  0  0  0  0
   -4.2390    7.9653    0.0000 C   0  0  0  0  0  0  0  0  0  0  0  0
   -3.2763    9.1157    0.0000 H   0  0  0  0  0  0  0  0  0  0  0  0
   -5.2048    9.1130    0.0000 H   0  0  0  0  0  0  0  0  0  0  0  0
  1  2  1  0  0  0  0 
  1  3  1  0  0  0  0 
  1  4  1  0  0  0  0 
  1  5  1  0  0  0  0 
  5  6  1  0  0  0  0 
  6  7  1  0  0  0  0 
  6  8  2  0  0  0  0 
  8  9  1  0  0  0  0 
  8 10  1  0  0  0  0 
 10 11  1  0  0  0  0 
 11 12  1  0  0  0  0 
 11 13  1  0  0  0  0 
 11 14  1  0  0  0  0 
 14 15  1  0  0  0  0 
 14 16  1  0  0  0  0 
 14 17  1  0  0  0  0 
 17 18  1  0  0  0  0 
 17 19  1  0  0  0  0 
 17 20  1  0  0  0  0 
 20 21  1  0  0  0  0 
 21 22  2  0  0  0  0 
 22 23  1  0  0  0  0 
 23 24  1  0  0  0  0 
 23 25  2  0  0  0  0 
 25 26  1  0  0  0  0 
 25 27  1  0  0  0  0 
 27 28  1  0  0  0  0 
 27 29  2  0  0  0  0 
 21 29  1  0  0  0  0 
 29 30  1  0  0  0  0 
 22 31  1  0  0  0  0 
 31 32  1  0  0  0  0 
 32 33  2  0  0  0  0 
 33 34  1  0  0  0  0 
 33 35  1  0  0  0  0 
 35 36  1  0  0  0  0 
 35 37  2  0  0  0  0 
 37 38  1  0  0  0  0 
 38 39  1  0  0  0  0 
 38 40  2  0  0  0  0 
 32 40  1  0  0  0  0 
 20 40  1  0  0  0  0 
 37 41  1  0  0  0  0 
 10 42  1  0  0  0  0 
 42 43  1  0  0  0  0 
 42 44  1  0  0  0  0 
 42 45  1  0  0  0  0 
  5 45  1  0  0  0  0 
 45 46  1  0  0  0  0 
 45 47  1  0  0  0  0 
M  END
> <Rank>
35

> <Priority_score>
0.0344

> <Reaction_type>
alkyl dehydrogenation

> <Parent_ID>
33

> <Parent_InChI>
InChI=1S/C20H24ClN3S/c1-22-11-13-23(14-12-22)9-4-10-24-17-5-2-3-6-19(17)25-20-8-7-16(21)15-18(20)24/h2-3,5-8,15H,4,9-14H2,1H3

> <Parent_SMILES>
CN1CCN(CCCN2c3ccccc3Sc3ccc(Cl)cc32)CC1

$$$$
Molecule 33_metabolite 36
  CDK     0516241031

 48 51  0  0  0  0  0  0  0  0999 V2000
   -6.8372    7.9612    0.0000 C   0  0  0  0  0  0  0  0  0  0  0  0
   -6.8397    9.4612    0.0000 H   0  0  0  0  0  0  0  0  0  0  0  0
   -8.3149    8.2192    0.0000 H   0  0  0  0  0  0  0  0  0  0  0  0
   -7.3479    6.5508    0.0000 H   0  0  0  0  0  0  0  0  0  0  0  0
   -5.1208    6.9741    0.0000 N   0  0  0  0  0  0  0  0  0  0  0  0
   -5.1181    5.4732    0.0000 C   0  0  0  0  0  0  0  0  0  0  0  0
   -6.5957    5.7313    0.0000 H   0  0  0  0  0  0  0  0  0  0  0  0
   -5.6291    4.0630    0.0000 H   0  0  0  0  0  0  0  0  0  0  0  0
   -3.8174    4.7244    0.0000 C   0  0  0  0  0  0  0  0  0  0  0  0
   -3.8154    3.2244    0.0000 H   0  0  0  0  0  0  0  0  0  0  0  0
   -2.5195    5.4763    0.0000 N   0  0  0  0  0  0  0  0  0  0  0  0
   -0.8031    4.4892    0.0000 C   0  0  0  0  0  0  0  0  0  0  0  0
    0.6745    4.2312    0.0000 H   0  0  0  0  0  0  0  0  0  0  0  0
   -0.2925    5.8996    0.0000 H   0  0  0  0  0  0  0  0  0  0  0  0
   -0.7998    2.5092    0.0000 C   0  0  0  0  0  0  0  0  0  0  0  0
   -2.2775    2.7672    0.0000 H   0  0  0  0  0  0  0  0  0  0  0  0
   -1.3105    1.0988    0.0000 H   0  0  0  0  0  0  0  0  0  0  0  0
    0.5005    1.7614    0.0000 C   0  0  0  0  0  0  0  0  0  0  0  0
    1.9781    1.5034    0.0000 H   0  0  0  0  0  0  0  0  0  0  0  0
    1.0111    3.1718    0.0000 H   0  0  0  0  0  0  0  0  0  0  0  0
    0.5030    0.2614    0.0000 N   0  0  0  0  0  0  0  0  0  0  0  0
   -0.7870   -0.4886    0.0000 C   0  0  0  0  0  0  0  0  0  0  0  0
   -0.7870   -1.9886    0.0000 C   0  0  0  0  0  0  0  0  0  0  0  0
   -2.0870   -2.7386    0.0000 C   0  0  0  0  0  0  0  0  0  0  0  0
   -2.0870   -4.2386    0.0000 H   0  0  0  0  0  0  0  0  0  0  0  0
   -3.3870   -1.9886    0.0000 C   0  0  0  0  0  0  0  0  0  0  0  0
   -4.6859   -2.7388    0.0000 H   0  0  0  0  0  0  0  0  0  0  0  0
   -3.3870   -0.4886    0.0000 C   0  0  0  0  0  0  0  0  0  0  0  0
   -4.6859    0.2616    0.0000 H   0  0  0  0  0  0  0  0  0  0  0  0
   -2.0870    0.2614    0.0000 C   0  0  0  0  0  0  0  0  0  0  0  0
   -2.0870    1.7614    0.0000 H   0  0  0  0  0  0  0  0  0  0  0  0
    0.5030   -2.7386    0.0000 S   0  0  0  0  0  0  0  0  0  0  0  0
    1.8030   -1.9886    0.0000 C   0  0  0  0  0  0  0  0  0  0  0  0
    3.1030   -2.7386    0.0000 C   0  0  0  0  0  0  0  0  0  0  0  0
    3.1030   -4.2386    0.0000 H   0  0  0  0  0  0  0  0  0  0  0  0
    4.4030   -1.9886    0.0000 C   0  0  0  0  0  0  0  0  0  0  0  0
    5.7019   -2.7388    0.0000 H   0  0  0  0  0  0  0  0  0  0  0  0
    4.4030   -0.4886    0.0000 C   0  0  0  0  0  0  0  0  0  0  0  0
    3.1030    0.2614    0.0000 C   0  0  0  0  0  0  0  0  0  0  0  0
    3.1030    1.7614    0.0000 H   0  0  0  0  0  0  0  0  0  0  0  0
    1.8030   -0.4886    0.0000 C   0  0  0  0  0  0  0  0  0  0  0  0
    5.7019    0.2616    0.0000 Cl  0  0  0  0  0  0  0  0  0  0  0  0
   -2.5223    6.9772    0.0000 C   0  0  0  0  0  0  0  0  0  0  0  0
   -1.0446    6.7191    0.0000 H   0  0  0  0  0  0  0  0  0  0  0  0
   -2.0112    8.3874    0.0000 H   0  0  0  0  0  0  0  0  0  0  0  0
   -3.8229    7.7260    0.0000 C   0  0  0  0  0  0  0  0  0  0  0  0
   -2.8602    8.8764    0.0000 H   0  0  0  0  0  0  0  0  0  0  0  0
   -4.7887    8.8737    0.0000 H   0  0  0  0  0  0  0  0  0  0  0  0
  1  2  1  0  0  0  0 
  1  3  1  0  0  0  0 
  1  4  1  0  0  0  0 
  1  5  1  0  0  0  0 
  5  6  1  0  0  0  0 
  6  7  1  0  0  0  0 
  6  8  1  0  0  0  0 
  6  9  1  0  0  0  0 
  9 10  1  0  0  0  0 
  9 11  2  0  0  0  0 
 11 12  1  0  0  0  0 
 12 13  1  0  0  0  0 
 12 14  1  0  0  0  0 
 12 15  1  0  0  0  0 
 15 16  1  0  0  0  0 
 15 17  1  0  0  0  0 
 15 18  1  0  0  0  0 
 18 19  1  0  0  0  0 
 18 20  1  0  0  0  0 
 18 21  1  0  0  0  0 
 21 22  1  0  0  0  0 
 22 23  2  0  0  0  0 
 23 24  1  0  0  0  0 
 24 25  1  0  0  0  0 
 24 26  2  0  0  0  0 
 26 27  1  0  0  0  0 
 26 28  1  0  0  0  0 
 28 29  1  0  0  0  0 
 28 30  2  0  0  0  0 
 22 30  1  0  0  0  0 
 30 31  1  0  0  0  0 
 23 32  1  0  0  0  0 
 32 33  1  0  0  0  0 
 33 34  2  0  0  0  0 
 34 35  1  0  0  0  0 
 34 36  1  0  0  0  0 
 36 37  1  0  0  0  0 
 36 38  2  0  0  0  0 
 38 39  1  0  0  0  0 
 39 40  1  0  0  0  0 
 39 41  2  0  0  0  0 
 33 41  1  0  0  0  0 
 21 41  1  0  0  0  0 
 38 42  1  0  0  0  0 
 11 43  1  0  0  0  0 
 43 44  1  0  0  0  0 
 43 45  1  0  0  0  0 
 43 46  1  0  0  0  0 
  5 46  1  0  0  0  0 
 46 47  1  0  0  0  0 
 46 48  1  0  0  0  0 
M  CHG  1  11   1
M  END
> <Rank>
35

> <Priority_score>
0.0344

> <Reaction_type>
dehydration of N-C bond

> <Parent_ID>
33

> <Parent_InChI>
InChI=1S/C20H24ClN3S/c1-22-11-13-23(14-12-22)9-4-10-24-17-5-2-3-6-19(17)25-20-8-7-16(21)15-18(20)24/h2-3,5-8,15H,4,9-14H2,1H3

> <Parent_SMILES>
CN1CCN(CCCN2c3ccccc3Sc3ccc(Cl)cc32)CC1

$$$$
Molecule 33_metabolite 37
  CDK     0516241031

 48 51  0  0  0  0  0  0  0  0999 V2000
   -7.2533    8.2005    0.0000 C   0  0  0  0  0  0  0  0  0  0  0  0
   -7.2558    9.7005    0.0000 H   0  0  0  0  0  0  0  0  0  0  0  0
   -8.7309    8.4585    0.0000 H   0  0  0  0  0  0  0  0  0  0  0  0
   -7.7640    6.7901    0.0000 H   0  0  0  0  0  0  0  0  0  0  0  0
   -5.5369    7.2134    0.0000 N   0  0  0  0  0  0  0  0  0  0  0  0
   -5.5342    5.7125    0.0000 C   0  0  0  0  0  0  0  0  0  0  0  0
   -7.0118    5.9706    0.0000 H   0  0  0  0  0  0  0  0  0  0  0  0
   -6.0452    4.3023    0.0000 H   0  0  0  0  0  0  0  0  0  0  0  0
   -4.2335    4.9637    0.0000 C   0  0  0  0  0  0  0  0  0  0  0  0
   -5.1962    3.8134    0.0000 H   0  0  0  0  0  0  0  0  0  0  0  0
   -3.2677    3.8160    0.0000 H   0  0  0  0  0  0  0  0  0  0  0  0
   -2.9356    5.7156    0.0000 N   0  0  0  0  0  0  0  0  0  0  0  0
   -1.2192    4.7285    0.0000 C   0  0  0  0  0  0  0  0  0  0  0  0
    0.2584    4.4705    0.0000 H   0  0  0  0  0  0  0  0  0  0  0  0
   -0.7086    6.1389    0.0000 H   0  0  0  0  0  0  0  0  0  0  0  0
   -1.2167    3.2285    0.0000 C   0  0  0  0  0  0  0  0  0  0  0  0
    0.2601    3.4915    0.0000 H   0  0  0  0  0  0  0  0  0  0  0  0
   -0.7013    1.8198    0.0000 H   0  0  0  0  0  0  0  0  0  0  0  0
   -2.5145    2.4763    0.0000 C   0  0  0  0  0  0  0  0  0  0  0  0
   -3.8148    3.2242    0.0000 H   0  0  0  0  0  0  0  0  0  0  0  0
   -2.5120    0.9763    0.0000 N   0  0  0  0  0  0  0  0  0  0  0  0
   -1.2195    0.2307    0.0000 C   0  0  0  0  0  0  0  0  0  0  0  0
   -1.2145   -1.2693    0.0000 C   0  0  0  0  0  0  0  0  0  0  0  0
    0.0881   -2.0150    0.0000 C   0  0  0  0  0  0  0  0  0  0  0  0
    0.0931   -3.5150    0.0000 H   0  0  0  0  0  0  0  0  0  0  0  0
    1.3855   -1.2606    0.0000 C   0  0  0  0  0  0  0  0  0  0  0  0
    2.6870   -2.0065    0.0000 H   0  0  0  0  0  0  0  0  0  0  0  0
    1.3805    0.2394    0.0000 C   0  0  0  0  0  0  0  0  0  0  0  0
    2.6769    0.9939    0.0000 H   0  0  0  0  0  0  0  0  0  0  0  0
    0.0780    0.9850    0.0000 C   0  0  0  0  0  0  0  0  0  0  0  0
    0.0730    2.4850    0.0000 H   0  0  0  0  0  0  0  0  0  0  0  0
   -2.5019   -2.0236    0.0000 S   0  0  0  0  0  0  0  0  0  0  0  0
   -3.8044   -1.2780    0.0000 C   0  0  0  0  0  0  0  0  0  0  0  0
   -5.1019   -2.0323    0.0000 C   0  0  0  0  0  0  0  0  0  0  0  0
   -5.0969   -3.5323    0.0000 H   0  0  0  0  0  0  0  0  0  0  0  0
   -6.4044   -1.2867    0.0000 C   0  0  0  0  0  0  0  0  0  0  0  0
   -7.7008   -2.0413    0.0000 H   0  0  0  0  0  0  0  0  0  0  0  0
   -6.4094    0.2133    0.0000 C   0  0  0  0  0  0  0  0  0  0  0  0
   -5.1120    0.9676    0.0000 C   0  0  0  0  0  0  0  0  0  0  0  0
   -5.1170    2.4676    0.0000 H   0  0  0  0  0  0  0  0  0  0  0  0
   -3.8095    0.2220    0.0000 C   0  0  0  0  0  0  0  0  0  0  0  0
   -7.7109    0.9591    0.0000 Cl  0  0  0  0  0  0  0  0  0  0  0  0
   -2.9384    7.2165    0.0000 C   0  0  0  0  0  0  0  0  0  0  0  0
   -1.4607    6.9584    0.0000 H   0  0  0  0  0  0  0  0  0  0  0  0
   -2.4273    8.6267    0.0000 H   0  0  0  0  0  0  0  0  0  0  0  0
   -4.2390    7.9653    0.0000 C   0  0  0  0  0  0  0  0  0  0  0  0
   -3.2763    9.1157    0.0000 H   0  0  0  0  0  0  0  0  0  0  0  0
   -5.2048    9.1130    0.0000 H   0  0  0  0  0  0  0  0  0  0  0  0
  1  2  1  0  0  0  0 
  1  3  1  0  0  0  0 
  1  4  1  0  0  0  0 
  1  5  1  0  0  0  0 
  5  6  1  0  0  0  0 
  6  7  1  0  0  0  0 
  6  8  1  0  0  0  0 
  6  9  1  0  0  0  0 
  9 10  1  0  0  0  0 
  9 11  1  0  0  0  0 
  9 12  1  0  0  0  0 
 12 13  1  0  0  0  0 
 13 14  1  0  0  0  0 
 13 15  1  0  0  0  0 
 13 16  1  0  0  0  0 
 16 17  1  0  0  0  0 
 16 18  1  0  0  0  0 
 16 19  1  0  0  0  0 
 19 20  1  4  0  0  0 
 19 21  2  0  0  0  0 
 21 22  1  0  0  0  0 
 22 23  2  0  0  0  0 
 23 24  1  0  0  0  0 
 24 25  1  0  0  0  0 
 24 26  2  0  0  0  0 
 26 27  1  0  0  0  0 
 26 28  1  0  0  0  0 
 28 29  1  0  0  0  0 
 28 30  2  0  0  0  0 
 22 30  1  0  0  0  0 
 30 31  1  0  0  0  0 
 23 32  1  0  0  0  0 
 32 33  1  0  0  0  0 
 33 34  2  0  0  0  0 
 34 35  1  0  0  0  0 
 34 36  1  0  0  0  0 
 36 37  1  0  0  0  0 
 36 38  2  0  0  0  0 
 38 39  1  0  0  0  0 
 39 40  1  0  0  0  0 
 39 41  2  0  0  0  0 
 33 41  1  0  0  0  0 
 21 41  1  0  0  0  0 
 38 42  1  0  0  0  0 
 12 43  1  0  0  0  0 
 43 44  1  0  0  0  0 
 43 45  1  0  0  0  0 
 43 46  1  0  0  0  0 
  5 46  1  0  0  0  0 
 46 47  1  0  0  0  0 
 46 48  1  0  0  0  0 
M  CHG  1  21   1
M  END
> <Rank>
37

> <Priority_score>
0.0296

> <Reaction_type>
dehydration of N-C bond

> <Parent_ID>
33

> <Parent_InChI>
InChI=1S/C20H24ClN3S/c1-22-11-13-23(14-12-22)9-4-10-24-17-5-2-3-6-19(17)25-20-8-7-16(21)15-18(20)24/h2-3,5-8,15H,4,9-14H2,1H3

> <Parent_SMILES>
CN1CCN(CCCN2c3ccccc3Sc3ccc(Cl)cc32)CC1

$$$$
Molecule 33_metabolite 38
  CDK     0516241031

 47 50  0  0  0  0  0  0  0  0999 V2000
   -7.2533    8.2005    0.0000 C   0  0  0  0  0  0  0  0  0  0  0  0
   -7.2558    9.7005    0.0000 H   0  0  0  0  0  0  0  0  0  0  0  0
   -8.7309    8.4585    0.0000 H   0  0  0  0  0  0  0  0  0  0  0  0
   -7.7640    6.7901    0.0000 H   0  0  0  0  0  0  0  0  0  0  0  0
   -5.5369    7.2134    0.0000 N   0  0  0  0  0  0  0  0  0  0  0  0
   -5.5342    5.7125    0.0000 C   0  0  0  0  0  0  0  0  0  0  0  0
   -7.0118    5.9706    0.0000 H   0  0  0  0  0  0  0  0  0  0  0  0
   -6.0452    4.3023    0.0000 H   0  0  0  0  0  0  0  0  0  0  0  0
   -4.2335    4.9637    0.0000 C   0  0  0  0  0  0  0  0  0  0  0  0
   -5.1962    3.8134    0.0000 H   0  0  0  0  0  0  0  0  0  0  0  0
   -3.2677    3.8160    0.0000 H   0  0  0  0  0  0  0  0  0  0  0  0
   -2.9356    5.7156    0.0000 N   0  0  0  0  0  0  0  0  0  0  0  0
   -1.2192    4.7285    0.0000 C   0  0  0  0  0  0  0  0  0  0  0  0
    0.2584    4.4705    0.0000 H   0  0  0  0  0  0  0  0  0  0  0  0
   -0.7086    6.1389    0.0000 H   0  0  0  0  0  0  0  0  0  0  0  0
   -1.2167    3.2285    0.0000 C   0  0  0  0  0  0  0  0  0  0  0  0
   -2.5145    2.4763    0.0000 H   0  0  0  0  0  0  0  0  0  0  0  0
    0.0836    2.4807    0.0000 C   0  0  0  0  0  0  0  0  0  0  0  0
    1.3814    3.2329    0.0000 H   0  0  0  0  0  0  0  0  0  0  0  0
    0.0877    0.0207    0.0000 N   0  0  0  0  0  0  0  0  0  0  0  0
   -1.2023   -0.7293    0.0000 C   0  0  0  0  0  0  0  0  0  0  0  0
   -1.2023   -2.2293    0.0000 C   0  0  0  0  0  0  0  0  0  0  0  0
   -2.5023   -2.9793    0.0000 C   0  0  0  0  0  0  0  0  0  0  0  0
   -2.5023   -4.4793    0.0000 H   0  0  0  0  0  0  0  0  0  0  0  0
   -3.8023   -2.2293    0.0000 C   0  0  0  0  0  0  0  0  0  0  0  0
   -5.1012   -2.9795    0.0000 H   0  0  0  0  0  0  0  0  0  0  0  0
   -3.8023   -0.7293    0.0000 C   0  0  0  0  0  0  0  0  0  0  0  0
   -5.1012    0.0209    0.0000 H   0  0  0  0  0  0  0  0  0  0  0  0
   -2.5023    0.0207    0.0000 C   0  0  0  0  0  0  0  0  0  0  0  0
   -2.5023    1.5207    0.0000 H   0  0  0  0  0  0  0  0  0  0  0  0
    0.0877   -2.9793    0.0000 S   0  0  0  0  0  0  0  0  0  0  0  0
    1.3877   -2.2293    0.0000 C   0  0  0  0  0  0  0  0  0  0  0  0
    2.6877   -2.9793    0.0000 C   0  0  0  0  0  0  0  0  0  0  0  0
    2.6877   -4.4793    0.0000 H   0  0  0  0  0  0  0  0  0  0  0  0
    3.9877   -2.2293    0.0000 C   0  0  0  0  0  0  0  0  0  0  0  0
    5.2866   -2.9795    0.0000 H   0  0  0  0  0  0  0  0  0  0  0  0
    3.9877   -0.7293    0.0000 C   0  0  0  0  0  0  0  0  0  0  0  0
    2.6877    0.0207    0.0000 C   0  0  0  0  0  0  0  0  0  0  0  0
    2.6877    1.5207    0.0000 H   0  0  0  0  0  0  0  0  0  0  0  0
    1.3877   -0.7293    0.0000 C   0  0  0  0  0  0  0  0  0  0  0  0
    5.2866    0.0209    0.0000 Cl  0  0  0  0  0  0  0  0  0  0  0  0
   -2.9384    7.2165    0.0000 C   0  0  0  0  0  0  0  0  0  0  0  0
   -1.4607    6.9584    0.0000 H   0  0  0  0  0  0  0  0  0  0  0  0
   -2.4273    8.6267    0.0000 H   0  0  0  0  0  0  0  0  0  0  0  0
   -4.2390    7.9653    0.0000 C   0  0  0  0  0  0  0  0  0  0  0  0
   -3.2763    9.1157    0.0000 H   0  0  0  0  0  0  0  0  0  0  0  0
   -5.2048    9.1130    0.0000 H   0  0  0  0  0  0  0  0  0  0  0  0
  1  2  1  0  0  0  0 
  1  3  1  0  0  0  0 
  1  4  1  0  0  0  0 
  1  5  1  0  0  0  0 
  5  6  1  0  0  0  0 
  6  7  1  0  0  0  0 
  6  8  1  0  0  0  0 
  6  9  1  0  0  0  0 
  9 10  1  0  0  0  0 
  9 11  1  0  0  0  0 
  9 12  1  0  0  0  0 
 12 13  1  0  0  0  0 
 13 14  1  0  0  0  0 
 13 15  1  0  0  0  0 
 13 16  1  0  0  0  0 
 16 17  1  4  0  0  0 
 16 18  2  0  0  0  0 
 18 19  1  0  0  0  0 
 18 20  1  0  0  0  0 
 20 21  1  0  0  0  0 
 21 22  2  0  0  0  0 
 22 23  1  0  0  0  0 
 23 24  1  0  0  0  0 
 23 25  2  0  0  0  0 
 25 26  1  0  0  0  0 
 25 27  1  0  0  0  0 
 27 28  1  0  0  0  0 
 27 29  2  0  0  0  0 
 21 29  1  0  0  0  0 
 29 30  1  0  0  0  0 
 22 31  1  0  0  0  0 
 31 32  1  0  0  0  0 
 32 33  2  0  0  0  0 
 33 34  1  0  0  0  0 
 33 35  1  0  0  0  0 
 35 36  1  0  0  0  0 
 35 37  2  0  0  0  0 
 37 38  1  0  0  0  0 
 38 39  1  0  0  0  0 
 38 40  2  0  0  0  0 
 32 40  1  0  0  0  0 
 20 40  1  0  0  0  0 
 37 41  1  0  0  0  0 
 12 42  1  0  0  0  0 
 42 43  1  0  0  0  0 
 42 44  1  0  0  0  0 
 42 45  1  0  0  0  0 
  5 45  1  0  0  0  0 
 45 46  1  0  0  0  0 
 45 47  1  0  0  0  0 
M  END
> <Rank>
37

> <Priority_score>
0.0296

> <Reaction_type>
alkyl dehydrogenation

> <Parent_ID>
33

> <Parent_InChI>
InChI=1S/C20H24ClN3S/c1-22-11-13-23(14-12-22)9-4-10-24-17-5-2-3-6-19(17)25-20-8-7-16(21)15-18(20)24/h2-3,5-8,15H,4,9-14H2,1H3

> <Parent_SMILES>
CN1CCN(CCCN2c3ccccc3Sc3ccc(Cl)cc32)CC1

$$$$
Molecule 33_metabolite 39
  CDK     0516241031

 50 53  0  0  0  0  0  0  0  0999 V2000
   -6.4993    8.5286    0.0000 C   0  0  0  0  0  0  0  0  0  0  0  0
   -6.5018   10.0286    0.0000 H   0  0  0  0  0  0  0  0  0  0  0  0
   -7.9769    8.7866    0.0000 H   0  0  0  0  0  0  0  0  0  0  0  0
   -7.0100    7.1182    0.0000 H   0  0  0  0  0  0  0  0  0  0  0  0
   -4.7829    7.5415    0.0000 N   0  0  0  0  0  0  0  0  0  0  0  0
   -4.7801    6.0406    0.0000 C   0  0  0  0  0  0  0  0  0  0  0  0
   -6.2578    6.2987    0.0000 H   0  0  0  0  0  0  0  0  0  0  0  0
   -5.2912    4.6304    0.0000 H   0  0  0  0  0  0  0  0  0  0  0  0
   -3.4795    5.2918    0.0000 C   0  0  0  0  0  0  0  0  0  0  0  0
   -4.4422    4.1415    0.0000 H   0  0  0  0  0  0  0  0  0  0  0  0
   -2.5137    4.1441    0.0000 H   0  0  0  0  0  0  0  0  0  0  0  0
   -2.1816    6.0437    0.0000 N   0  0  0  0  0  0  0  0  0  0  0  0
   -2.1843    7.5446    0.0000 C   0  0  0  0  0  0  0  0  0  0  0  0
   -0.7067    7.2865    0.0000 H   0  0  0  0  0  0  0  0  0  0  0  0
   -1.6733    8.9548    0.0000 H   0  0  0  0  0  0  0  0  0  0  0  0
   -3.4850    8.2934    0.0000 C   0  0  0  0  0  0  0  0  0  0  0  0
   -2.5223    9.4438    0.0000 H   0  0  0  0  0  0  0  0  0  0  0  0
   -4.4508    9.4412    0.0000 H   0  0  0  0  0  0  0  0  0  0  0  0
   -0.8813    5.2959    0.0000 C   0  0  0  0  0  0  0  0  0  0  0  0
    0.5963    5.0379    0.0000 H   0  0  0  0  0  0  0  0  0  0  0  0
    0.1196    8.0603    0.0000 H   0  0  0  0  0  0  0  0  0  0  0  0
   -0.8780    3.3159    0.0000 C   0  0  0  0  0  0  0  0  0  0  0  0
    0.5988    3.5789    0.0000 H   0  0  0  0  0  0  0  0  0  0  0  0
   -3.0063    2.0824    0.0000 C   0  0  0  0  0  0  0  0  0  0  0  0
   -4.4831    1.8194    0.0000 H   0  0  0  0  0  0  0  0  0  0  0  0
   -3.5217    3.4910    0.0000 H   0  0  0  0  0  0  0  0  0  0  0  0
   -3.0022   -0.3776    0.0000 N   0  0  0  0  0  0  0  0  0  0  0  0
   -1.7097   -1.1233    0.0000 C   0  0  0  0  0  0  0  0  0  0  0  0
   -1.7047   -2.6233    0.0000 C   0  0  0  0  0  0  0  0  0  0  0  0
   -0.4022   -3.3689    0.0000 C   0  0  0  0  0  0  0  0  0  0  0  0
   -0.3972   -4.8689    0.0000 H   0  0  0  0  0  0  0  0  0  0  0  0
    0.8953   -2.6146    0.0000 C   0  0  0  0  0  0  0  0  0  0  0  0
    2.1967   -3.3604    0.0000 H   0  0  0  0  0  0  0  0  0  0  0  0
    0.8903   -1.1146    0.0000 C   0  0  0  0  0  0  0  0  0  0  0  0
    2.1867   -0.3600    0.0000 H   0  0  0  0  0  0  0  0  0  0  0  0
   -0.4122   -0.3690    0.0000 C   0  0  0  0  0  0  0  0  0  0  0  0
   -0.4173    1.1310    0.0000 H   0  0  0  0  0  0  0  0  0  0  0  0
   -2.9922   -3.3776    0.0000 S   0  0  0  0  0  0  0  0  0  0  0  0
   -4.2947   -2.6320    0.0000 C   0  0  0  0  0  0  0  0  0  0  0  0
   -5.5922   -3.3863    0.0000 C   0  0  0  0  0  0  0  0  0  0  0  0
   -5.5871   -4.8863    0.0000 H   0  0  0  0  0  0  0  0  0  0  0  0
   -6.8947   -2.6407    0.0000 C   0  0  0  0  0  0  0  0  0  0  0  0
   -8.1911   -3.3952    0.0000 H   0  0  0  0  0  0  0  0  0  0  0  0
   -6.8997   -1.1407    0.0000 C   0  0  0  0  0  0  0  0  0  0  0  0
   -5.6022   -0.3863    0.0000 C   0  0  0  0  0  0  0  0  0  0  0  0
   -5.6072    1.1137    0.0000 H   0  0  0  0  0  0  0  0  0  0  0  0
   -4.2997   -1.1320    0.0000 C   0  0  0  0  0  0  0  0  0  0  0  0
   -8.2011   -0.3948    0.0000 Cl  0  0  0  0  0  0  0  0  0  0  0  0
   -0.3626    1.9073    0.0000 O   0  0  0  0  0  0  0  0  0  0  0  0
    1.1151    1.6493    0.0000 H   0  0  0  0  0  0  0  0  0  0  0  0
  1  2  1  0  0  0  0 
  1  3  1  0  0  0  0 
  1  4  1  0  0  0  0 
  1  5  1  0  0  0  0 
  5  6  1  0  0  0  0 
  6  7  1  0  0  0  0 
  6  8  1  0  0  0  0 
  6  9  1  0  0  0  0 
  9 10  1  0  0  0  0 
  9 11  1  0  0  0  0 
  9 12  1  0  0  0  0 
 12 13  1  0  0  0  0 
 13 14  1  0  0  0  0 
 13 15  1  0  0  0  0 
 13 16  1  0  0  0  0 
  5 16  1  0  0  0  0 
 16 17  1  0  0  0  0 
 16 18  1  0  0  0  0 
 12 19  1  0  0  0  0 
 19 20  1  0  0  0  0 
 19 21  1  0  0  0  0 
 19 22  1  0  0  0  0 
 22 23  1  0  0  0  0 
 22 24  1  0  0  0  0 
 24 25  1  0  0  0  0 
 24 26  1  0  0  0  0 
 24 27  1  0  0  0  0 
 27 28  1  0  0  0  0 
 28 29  2  0  0  0  0 
 29 30  1  0  0  0  0 
 30 31  1  0  0  0  0 
 30 32  2  0  0  0  0 
 32 33  1  0  0  0  0 
 32 34  1  0  0  0  0 
 34 35  1  0  0  0  0 
 34 36  2  0  0  0  0 
 28 36  1  0  0  0  0 
 36 37  1  0  0  0  0 
 29 38  1  0  0  0  0 
 38 39  1  0  0  0  0 
 39 40  2  0  0  0  0 
 40 41  1  0  0  0  0 
 40 42  1  0  0  0  0 
 42 43  1  0  0  0  0 
 42 44  2  0  0  0  0 
 44 45  1  0  0  0  0 
 45 46  1  0  0  0  0 
 45 47  2  0  0  0  0 
 39 47  1  0  0  0  0 
 27 47  1  0  0  0  0 
 44 48  1  0  0  0  0 
 22 49  1  0  0  0  0 
 49 50  1  0  0  0  0 
M  END
> <Rank>
39

> <Priority_score>
0.028

> <Reaction_type>
aliphatic hydroxylation

> <Parent_ID>
33

> <Parent_InChI>
InChI=1S/C20H24ClN3S/c1-22-11-13-23(14-12-22)9-4-10-24-17-5-2-3-6-19(17)25-20-8-7-16(21)15-18(20)24/h2-3,5-8,15H,4,9-14H2,1H3

> <Parent_SMILES>
CN1CCN(CCCN2c3ccccc3Sc3ccc(Cl)cc32)CC1

$$$$
Molecule 33_metabolite 40
  CDK     0516241031

 50 53  0  0  0  0  0  0  0  0999 V2000
   -6.4959   10.1721    0.0000 C   0  0  0  0  0  0  0  0  0  0  0  0
   -6.4959   11.6721    0.0000 H   0  0  0  0  0  0  0  0  0  0  0  0
   -7.9731   10.4326    0.0000 H   0  0  0  0  0  0  0  0  0  0  0  0
   -7.0089    8.7625    0.0000 H   0  0  0  0  0  0  0  0  0  0  0  0
   -4.7812    9.1821    0.0000 N   0  0  0  0  0  0  0  0  0  0  0  0
   -4.7809    7.6812    0.0000 C   0  0  0  0  0  0  0  0  0  0  0  0
   -6.2581    7.9418    0.0000 H   0  0  0  0  0  0  0  0  0  0  0  0
   -5.2943    6.2718    0.0000 H   0  0  0  0  0  0  0  0  0  0  0  0
   -3.4815    6.9302    0.0000 C   0  0  0  0  0  0  0  0  0  0  0  0
   -4.4462    5.7815    0.0000 H   0  0  0  0  0  0  0  0  0  0  0  0
   -2.5177    5.7809    0.0000 H   0  0  0  0  0  0  0  0  0  0  0  0
   -2.1824    7.6800    0.0000 N   0  0  0  0  0  0  0  0  0  0  0  0
   -0.4677    6.6900    0.0000 C   0  0  0  0  0  0  0  0  0  0  0  0
    1.0096    6.4295    0.0000 H   0  0  0  0  0  0  0  0  0  0  0  0
    0.4965    7.8391    0.0000 H   0  0  0  0  0  0  0  0  0  0  0  0
   -0.4677    4.7100    0.0000 C   0  0  0  0  0  0  0  0  0  0  0  0
   -1.9449    4.9705    0.0000 H   0  0  0  0  0  0  0  0  0  0  0  0
   -0.9807    3.3005    0.0000 H   0  0  0  0  0  0  0  0  0  0  0  0
    1.2471    3.7200    0.0000 C   0  0  0  0  0  0  0  0  0  0  0  0
    2.7243    3.4595    0.0000 H   0  0  0  0  0  0  0  0  0  0  0  0
    1.7601    5.1295    0.0000 H   0  0  0  0  0  0  0  0  0  0  0  0
    1.2471    1.2600    0.0000 N   0  0  0  0  0  0  0  0  0  0  0  0
   -0.0529    0.5100    0.0000 C   0  0  0  0  0  0  0  0  0  0  0  0
   -0.0529   -0.9900    0.0000 C   0  0  0  0  0  0  0  0  0  0  0  0
   -1.3529   -1.7400    0.0000 C   0  0  0  0  0  0  0  0  0  0  0  0
   -1.3529   -3.2400    0.0000 H   0  0  0  0  0  0  0  0  0  0  0  0
   -2.6529   -0.9900    0.0000 C   0  0  0  0  0  0  0  0  0  0  0  0
   -3.9518   -1.7402    0.0000 H   0  0  0  0  0  0  0  0  0  0  0  0
   -2.6529    0.5100    0.0000 C   0  0  0  0  0  0  0  0  0  0  0  0
   -3.9518    1.2602    0.0000 H   0  0  0  0  0  0  0  0  0  0  0  0
   -1.3529    1.2600    0.0000 C   0  0  0  0  0  0  0  0  0  0  0  0
   -1.6134    2.7372    0.0000 H   0  0  0  0  0  0  0  0  0  0  0  0
    1.2471   -1.7400    0.0000 S   0  0  0  0  0  0  0  0  0  0  0  0
    2.5471   -0.9900    0.0000 C   0  0  0  0  0  0  0  0  0  0  0  0
    3.8471   -1.7400    0.0000 C   0  0  0  0  0  0  0  0  0  0  0  0
    3.8471   -3.2400    0.0000 H   0  0  0  0  0  0  0  0  0  0  0  0
    5.1471   -0.9900    0.0000 C   0  0  0  0  0  0  0  0  0  0  0  0
    6.4460   -1.7402    0.0000 H   0  0  0  0  0  0  0  0  0  0  0  0
    5.1471    0.5100    0.0000 C   0  0  0  0  0  0  0  0  0  0  0  0
    3.8471    1.2600    0.0000 C   0  0  0  0  0  0  0  0  0  0  0  0
    3.8471    2.7600    0.0000 H   0  0  0  0  0  0  0  0  0  0  0  0
    2.5471    0.5100    0.0000 C   0  0  0  0  0  0  0  0  0  0  0  0
    6.4460    1.2602    0.0000 O   0  0  0  0  0  0  0  0  0  0  0  0
    7.7452    0.5104    0.0000 H   0  0  0  0  0  0  0  0  0  0  0  0
   -2.1826    9.1808    0.0000 C   0  0  0  0  0  0  0  0  0  0  0  0
   -0.7054    8.9203    0.0000 H   0  0  0  0  0  0  0  0  0  0  0  0
   -1.6692   10.5902    0.0000 H   0  0  0  0  0  0  0  0  0  0  0  0
   -3.4820    9.9319    0.0000 C   0  0  0  0  0  0  0  0  0  0  0  0
   -2.5174   11.0806    0.0000 H   0  0  0  0  0  0  0  0  0  0  0  0
   -4.4459   11.0812    0.0000 H   0  0  0  0  0  0  0  0  0  0  0  0
  1  2  1  0  0  0  0 
  1  3  1  0  0  0  0 
  1  4  1  0  0  0  0 
  1  5  1  0  0  0  0 
  5  6  1  0  0  0  0 
  6  7  1  0  0  0  0 
  6  8  1  0  0  0  0 
  6  9  1  0  0  0  0 
  9 10  1  0  0  0  0 
  9 11  1  0  0  0  0 
  9 12  1  0  0  0  0 
 12 13  1  0  0  0  0 
 13 14  1  0  0  0  0 
 13 15  1  0  0  0  0 
 13 16  1  0  0  0  0 
 16 17  1  0  0  0  0 
 16 18  1  0  0  0  0 
 16 19  1  0  0  0  0 
 19 20  1  0  0  0  0 
 19 21  1  0  0  0  0 
 19 22  1  0  0  0  0 
 22 23  1  0  0  0  0 
 23 24  2  0  0  0  0 
 24 25  1  0  0  0  0 
 25 26  1  0  0  0  0 
 25 27  2  0  0  0  0 
 27 28  1  0  0  0  0 
 27 29  1  0  0  0  0 
 29 30  1  0  0  0  0 
 29 31  2  0  0  0  0 
 23 31  1  0  0  0  0 
 31 32  1  0  0  0  0 
 24 33  1  0  0  0  0 
 33 34  1  0  0  0  0 
 34 35  2  0  0  0  0 
 35 36  1  0  0  0  0 
 35 37  1  0  0  0  0 
 37 38  1  0  0  0  0 
 37 39  2  0  0  0  0 
 39 40  1  0  0  0  0 
 40 41  1  0  0  0  0 
 40 42  2  0  0  0  0 
 34 42  1  0  0  0  0 
 22 42  1  0  0  0  0 
 39 43  1  0  0  0  0 
 43 44  1  0  0  0  0 
 12 45  1  0  0  0  0 
 45 46  1  0  0  0  0 
 45 47  1  0  0  0  0 
 45 48  1  0  0  0  0 
  5 48  1  0  0  0  0 
 48 49  1  0  0  0  0 
 48 50  1  0  0  0  0 
M  END
> <Rank>
40

> <Priority_score>
0.0104

> <Reaction_type>
oxidative dehalogenation benzyl

> <Parent_ID>
33

> <Parent_InChI>
InChI=1S/C20H24ClN3S/c1-22-11-13-23(14-12-22)9-4-10-24-17-5-2-3-6-19(17)25-20-8-7-16(21)15-18(20)24/h2-3,5-8,15H,4,9-14H2,1H3

> <Parent_SMILES>
CN1CCN(CCCN2c3ccccc3Sc3ccc(Cl)cc32)CC1

$$$$
Molecule 34
  CDK     0516241031

 20 23  0  0  0  0  0  0  0  0999 V2000
    4.2767    0.2560    0.0000 C   0  0  0  0  0  0  0  0  0  0  0  0
    2.9800    1.0100    0.0000 N   0  0  0  0  0  0  0  0  0  0  0  0
    2.9800    2.5200    0.0000 C   0  0  0  0  0  0  0  0  0  0  0  0
    1.6800    3.2700    0.0000 C   0  0  0  0  0  0  0  0  0  0  0  0
    0.3800    2.5200    0.0000 C   0  0  0  0  0  0  0  0  0  0  0  0
    0.3800    1.0100    0.0000 C   0  0  0  0  0  0  0  0  0  0  0  0
   -0.9200    0.2700    0.0000 C   0  0  0  0  0  0  0  0  0  0  0  0
   -2.2200    1.0100    0.0000 C   0  0  0  0  0  0  0  0  0  0  0  0
   -2.2200    2.5200    0.0000 C   0  0  0  0  0  0  0  0  0  0  0  0
   -0.9200    3.2700    0.0000 C   0  0  0  0  0  0  0  0  0  0  0  0
   -0.9200   -1.2400    0.0000 C   0  0  0  0  0  0  0  0  0  0  0  0
   -2.2200   -1.9900    0.0000 C   0  0  0  0  0  0  0  0  0  0  0  0
   -2.2200   -3.4800    0.0000 C   0  0  0  0  0  0  0  0  0  0  0  0
   -0.9200   -4.2400    0.0000 C   0  0  0  0  0  0  0  0  0  0  0  0
    0.3800   -3.4800    0.0000 C   0  0  0  0  0  0  0  0  0  0  0  0
    0.3800   -1.9900    0.0000 C   0  0  0  0  0  0  0  0  0  0  0  0
    1.6800   -1.2400    0.0000 C   0  0  0  0  0  0  0  0  0  0  0  0
    1.6800    0.2700    0.0000 C   0  0  1  0  0  0  0  0  0  0  0  0
   -3.5211   -4.2265    0.0000 O   0  0  0  0  0  0  0  0  0  0  0  0
   -3.5189   -1.2398    0.0000 O   0  0  0  0  0  0  0  0  0  0  0  0
  1  2  1  0  0  0  0 
  2  3  1  0  0  0  0 
  3  4  1  0  0  0  0 
  4  5  1  0  0  0  0 
  5  6  2  0  0  0  0 
  6  7  1  0  0  0  0 
  7  8  2  0  0  0  0 
  8  9  1  0  0  0  0 
  9 10  2  0  0  0  0 
  5 10  1  0  0  0  0 
  7 11  1  0  0  0  0 
 11 12  2  0  0  0  0 
 12 13  1  0  0  0  0 
 13 14  2  0  0  0  0 
 14 15  1  0  0  0  0 
 15 16  2  0  0  0  0 
 11 16  1  0  0  0  0 
 16 17  1  0  0  0  0 
 17 18  1  0  0  0  0 
  6 18  1  0  0  0  0 
 18  2  1  6  0  0  0 
 13 19  1  0  0  0  0 
 12 20  1  0  0  0  0 
M  END
> <SMILES>
CN1CCc2cccc3c2[C@H]1Cc1ccc(O)c(O)c1-3

$$$$
Molecule 34_metabolite 1
  CDK     0516241031

 41 44  0  0  0  0  0  0  0  0999 V2000
    4.2767    0.2560    0.0000 C   0  0  0  0  0  0  0  0  0  0  0  0
    4.2722   -1.2440    0.0000 H   0  0  0  0  0  0  0  0  0  0  0  0
    4.7941    1.6640    0.0000 H   0  0  0  0  0  0  0  0  0  0  0  0
    5.7531   -0.0090    0.0000 H   0  0  0  0  0  0  0  0  0  0  0  0
    2.5650    1.2513    0.0000 N   0  0  0  0  0  0  0  0  0  0  0  0
    2.5650    2.7613    0.0000 C   0  0  0  0  0  0  0  0  0  0  0  0
    4.0423    2.5010    0.0000 H   0  0  0  0  0  0  0  0  0  0  0  0
    3.0778    4.1709    0.0000 H   0  0  0  0  0  0  0  0  0  0  0  0
    1.2650    3.5113    0.0000 C   0  0  0  0  0  0  0  0  0  0  0  0
    2.2291    4.6604    0.0000 H   0  0  0  0  0  0  0  0  0  0  0  0
    0.3010    4.6604    0.0000 H   0  0  0  0  0  0  0  0  0  0  0  0
   -0.0350    2.7613    0.0000 C   0  0  0  0  0  0  0  0  0  0  0  0
   -0.0350    1.2513    0.0000 C   0  0  0  0  0  0  0  0  0  0  0  0
   -1.3350    0.5113    0.0000 C   0  0  0  0  0  0  0  0  0  0  0  0
   -2.6350    1.2513    0.0000 C   0  0  0  0  0  0  0  0  0  0  0  0
   -3.9317    0.4973    0.0000 H   0  0  0  0  0  0  0  0  0  0  0  0
   -2.6350    2.7613    0.0000 C   0  0  0  0  0  0  0  0  0  0  0  0
   -3.9339    3.5115    0.0000 H   0  0  0  0  0  0  0  0  0  0  0  0
   -1.3350    3.5113    0.0000 C   0  0  0  0  0  0  0  0  0  0  0  0
   -1.3350    5.0113    0.0000 H   0  0  0  0  0  0  0  0  0  0  0  0
   -1.3350   -0.9987    0.0000 C   0  0  0  0  0  0  0  0  0  0  0  0
   -2.6350   -1.7487    0.0000 C   0  0  0  0  0  0  0  0  0  0  0  0
   -2.6350   -3.2387    0.0000 C   0  0  0  0  0  0  0  0  0  0  0  0
   -1.3350   -3.9987    0.0000 C   0  0  0  0  0  0  0  0  0  0  0  0
   -1.3350   -5.4987    0.0000 H   0  0  0  0  0  0  0  0  0  0  0  0
   -0.0350   -3.2387    0.0000 C   0  0  0  0  0  0  0  0  0  0  0  0
    1.2661   -3.9852    0.0000 H   0  0  0  0  0  0  0  0  0  0  0  0
   -0.0350   -1.7487    0.0000 C   0  0  0  0  0  0  0  0  0  0  0  0
    1.2650   -0.9987    0.0000 C   0  0  0  0  0  0  0  0  0  0  0  0
    1.7778   -2.4084    0.0000 H   0  0  0  0  0  0  0  0  0  0  0  0
   -0.2122   -0.7384    0.0000 H   0  0  0  0  0  0  0  0  0  0  0  0
    1.2650    0.5113    0.0000 C   0  0  1  0  0  0  0  0  0  0  0  0
    2.5618   -0.2427    0.0000 H   0  0  0  0  0  0  0  0  0  0  0  0
   -3.9360   -3.9852    0.0000 O   0  0  0  0  0  0  0  0  0  0  0  0
   -3.9401   -5.4852    0.0000 H   0  0  0  0  0  0  0  0  0  0  0  0
   -3.9339   -0.9985    0.0000 O   0  0  0  0  0  0  0  0  0  0  0  0
   -5.2330   -1.7483    0.0000 S   0  0  0  0  0  0  0  0  0  0  0  0
   -6.1974   -2.8972    0.0000 O   0  0  0  0  0  0  0  0  0  0  0  0
   -4.2690   -2.8975    0.0000 O   0  0  0  0  0  0  0  0  0  0  0  0
   -6.5320   -0.9981    0.0000 O   0  0  0  0  0  0  0  0  0  0  0  0
   -7.8311   -1.7479    0.0000 H   0  0  0  0  0  0  0  0  0  0  0  0
  1  2  1  0  0  0  0 
  1  3  1  0  0  0  0 
  1  4  1  0  0  0  0 
  1  5  1  0  0  0  0 
  5  6  1  0  0  0  0 
  6  7  1  0  0  0  0 
  6  8  1  0  0  0  0 
  6  9  1  0  0  0  0 
  9 10  1  0  0  0  0 
  9 11  1  0  0  0  0 
  9 12  1  0  0  0  0 
 12 13  2  0  0  0  0 
 13 14  1  0  0  0  0 
 14 15  2  0  0  0  0 
 15 16  1  0  0  0  0 
 15 17  1  0  0  0  0 
 17 18  1  0  0  0  0 
 17 19  2  0  0  0  0 
 12 19  1  0  0  0  0 
 19 20  1  0  0  0  0 
 14 21  1  0  0  0  0 
 21 22  2  0  0  0  0 
 22 23  1  0  0  0  0 
 23 24  2  0  0  0  0 
 24 25  1  0  0  0  0 
 24 26  1  0  0  0  0 
 26 27  1  0  0  0  0 
 26 28  2  0  0  0  0 
 21 28  1  0  0  0  0 
 28 29  1  0  0  0  0 
 29 30  1  0  0  0  0 
 29 31  1  0  0  0  0 
 29 32  1  0  0  0  0 
 13 32  1  0  0  0  0 
  5 32  1  0  0  0  0 
 32 33  1  1  0  0  0 
 23 34  1  0  0  0  0 
 34 35  1  0  0  0  0 
 22 36  1  0  0  0  0 
 36 37  1  0  0  0  0 
 37 38  2  0  0  0  0 
 37 39  2  0  0  0  0 
 37 40  1  0  0  0  0 
 40 41  1  0  0  0  0 
M  END
> <Rank>
1

> <Priority_score>
0.944

> <Reaction_type>
sulfation_(aromatic_hydroxyl)

> <Parent_ID>
34

> <Parent_InChI>
InChI=1S/C17H17NO2/c1-18-8-7-10-3-2-4-12-15(10)13(18)9-11-5-6-14(19)17(20)16(11)12/h2-6,13,19-20H,7-9H2,1H3

> <Parent_SMILES>
CN1CCc2cccc3c2[C@H]1Cc1ccc(O)c(O)c1-3

$$$$
Molecule 34_metabolite 2
  CDK     0516241031

 57 61  0  0  0  0  0  0  0  0999 V2000
    1.9858    5.6088    0.0000 C   0  0  0  0  0  0  0  0  0  0  0  0
    0.6847    6.3552    0.0000 H   0  0  0  0  0  0  0  0  0  0  0  0
    3.4637    5.3523    0.0000 H   0  0  0  0  0  0  0  0  0  0  0  0
    2.4950    7.0197    0.0000 H   0  0  0  0  0  0  0  0  0  0  0  0
    1.9912    3.6288    0.0000 N   0  0  0  0  0  0  0  0  0  0  0  0
    3.2987    2.8734    0.0000 C   0  0  0  0  0  0  0  0  0  0  0  0
    3.8123    4.2827    0.0000 H   0  0  0  0  0  0  0  0  0  0  0  0
    4.7758    2.6121    0.0000 H   0  0  0  0  0  0  0  0  0  0  0  0
    3.2977    1.3725    0.0000 C   0  0  0  0  0  0  0  0  0  0  0  0
    4.7750    1.6324    0.0000 H   0  0  0  0  0  0  0  0  0  0  0  0
    3.8105   -0.0371    0.0000 H   0  0  0  0  0  0  0  0  0  0  0  0
    1.9980    0.6221    0.0000 C   0  0  0  0  0  0  0  0  0  0  0  0
    0.6905    1.3775    0.0000 C   0  0  0  0  0  0  0  0  0  0  0  0
   -0.6006    0.6221    0.0000 C   0  0  0  0  0  0  0  0  0  0  0  0
   -0.6102   -0.8737    0.0000 C   0  0  0  0  0  0  0  0  0  0  0  0
   -1.9118   -1.6193    0.0000 H   0  0  0  0  0  0  0  0  0  0  0  0
    0.6972   -1.6291    0.0000 C   0  0  0  0  0  0  0  0  0  0  0  0
    0.6970   -3.1291    0.0000 H   0  0  0  0  0  0  0  0  0  0  0  0
    1.9970   -0.8787    0.0000 C   0  0  0  0  0  0  0  0  0  0  0  0
    3.2958   -1.6291    0.0000 H   0  0  0  0  0  0  0  0  0  0  0  0
   -1.9080    1.3775    0.0000 C   0  0  0  0  0  0  0  0  0  0  0  0
   -3.2078    0.6271    0.0000 C   0  0  0  0  0  0  0  0  0  0  0  0
   -4.4979    1.3725    0.0000 C   0  0  0  0  0  0  0  0  0  0  0  0
   -4.5056    2.8784    0.0000 C   0  0  0  0  0  0  0  0  0  0  0  0
   -5.8044    3.6288    0.0000 H   0  0  0  0  0  0  0  0  0  0  0  0
   -3.1972    3.6238    0.0000 C   0  0  0  0  0  0  0  0  0  0  0  0
   -3.1927    5.1238    0.0000 H   0  0  0  0  0  0  0  0  0  0  0  0
   -1.9071    2.8784    0.0000 C   0  0  0  0  0  0  0  0  0  0  0  0
   -0.6073    3.6288    0.0000 C   0  0  0  0  0  0  0  0  0  0  0  0
   -1.5714    4.7780    0.0000 H   0  0  0  0  0  0  0  0  0  0  0  0
   -1.1210    2.2195    0.0000 H   0  0  0  0  0  0  0  0  0  0  0  0
    0.7001    2.8734    0.0000 C   0  0  1  0  0  0  0  0  0  0  0  0
    0.6960    4.3734    0.0000 H   0  0  0  0  0  0  0  0  0  0  0  0
   -5.7952    0.6194    0.0000 O   0  0  0  0  0  0  0  0  0  0  0  0
   -7.0960    1.3663    0.0000 H   0  0  0  0  0  0  0  0  0  0  0  0
   -3.2081   -1.3529    0.0000 O   0  0  0  0  0  0  0  0  0  0  0  0
   -4.5073   -2.1027    0.0000 C   0  0  0  0  0  0  0  0  0  0  0  0
   -5.0233   -0.6942    0.0000 H   0  0  0  0  0  0  0  0  0  0  0  0
   -3.5523   -3.2464    0.0000 C   0  0  0  0  0  0  0  0  0  0  0  0
   -2.2558   -4.0007    0.0000 H   0  0  0  0  0  0  0  0  0  0  0  0
   -4.0785   -4.6758    0.0000 C   0  0  0  0  0  0  0  0  0  0  0  0
   -4.0882   -6.1758    0.0000 H   0  0  0  0  0  0  0  0  0  0  0  0
   -5.5635   -4.9256    0.0000 C   0  0  0  0  0  0  0  0  0  0  0  0
   -6.8657   -5.6700    0.0000 H   0  0  0  0  0  0  0  0  0  0  0  0
   -6.5185   -3.7818    0.0000 C   0  0  0  0  0  0  0  0  0  0  0  0
   -7.8155   -3.0284    0.0000 H   0  0  0  0  0  0  0  0  0  0  0  0
   -7.7951   -5.2953    0.0000 C   0  0  0  0  0  0  0  0  0  0  0  0
   -7.2857   -6.7062    0.0000 O   0  0  0  0  0  0  0  0  0  0  0  0
   -9.2716   -5.0311    0.0000 O   0  0  0  0  0  0  0  0  0  0  0  0
  -10.2387   -6.1776    0.0000 H   0  0  0  0  0  0  0  0  0  0  0  0
   -6.0012   -2.3729    0.0000 O   0  0  0  0  0  0  0  0  0  0  0  0
   -5.0591   -6.3382    0.0000 O   0  0  0  0  0  0  0  0  0  0  0  0
   -6.0302   -7.4814    0.0000 H   0  0  0  0  0  0  0  0  0  0  0  0
   -2.6026   -4.9438    0.0000 O   0  0  0  0  0  0  0  0  0  0  0  0
   -2.0968   -6.3559    0.0000 H   0  0  0  0  0  0  0  0  0  0  0  0
   -2.5849   -2.1001    0.0000 O   0  0  0  0  0  0  0  0  0  0  0  0
   -1.1084   -2.3648    0.0000 H   0  0  0  0  0  0  0  0  0  0  0  0
  1  2  1  0  0  0  0 
  1  3  1  0  0  0  0 
  1  4  1  0  0  0  0 
  1  5  1  0  0  0  0 
  5  6  1  0  0  0  0 
  6  7  1  0  0  0  0 
  6  8  1  0  0  0  0 
  6  9  1  0  0  0  0 
  9 10  1  0  0  0  0 
  9 11  1  0  0  0  0 
  9 12  1  0  0  0  0 
 12 13  2  0  0  0  0 
 13 14  1  0  0  0  0 
 14 15  2  0  0  0  0 
 15 16  1  0  0  0  0 
 15 17  1  0  0  0  0 
 17 18  1  0  0  0  0 
 17 19  2  0  0  0  0 
 12 19  1  0  0  0  0 
 19 20  1  0  0  0  0 
 14 21  1  0  0  0  0 
 21 22  2  0  0  0  0 
 22 23  1  0  0  0  0 
 23 24  2  0  0  0  0 
 24 25  1  0  0  0  0 
 24 26  1  0  0  0  0 
 26 27  1  0  0  0  0 
 26 28  2  0  0  0  0 
 21 28  1  0  0  0  0 
 28 29  1  0  0  0  0 
 29 30  1  0  0  0  0 
 29 31  1  0  0  0  0 
 29 32  1  0  0  0  0 
 13 32  1  0  0  0  0 
  5 32  1  0  0  0  0 
 32 33  1  6  0  0  0 
 23 34  1  0  0  0  0 
 34 35  1  0  0  0  0 
 22 36  1  0  0  0  0 
 36 37  1  0  0  0  0 
 37 38  1  0  0  0  0 
 37 39  1  0  0  0  0 
 39 40  1  0  0  0  0 
 39 41  1  0  0  0  0 
 41 42  1  0  0  0  0 
 41 43  1  0  0  0  0 
 43 44  1  0  0  0  0 
 43 45  1  0  0  0  0 
 45 46  1  0  0  0  0 
 45 47  1  0  0  0  0 
 47 48  2  0  0  0  0 
 47 49  1  0  0  0  0 
 49 50  1  0  0  0  0 
 45 51  1  0  0  0  0 
 37 51  1  0  0  0  0 
 43 52  1  0  0  0  0 
 52 53  1  0  0  0  0 
 41 54  1  0  0  0  0 
 54 55  1  0  0  0  0 
 39 56  1  0  0  0  0 
 56 57  1  0  0  0  0 
M  END
> <Rank>
2

> <Priority_score>
0.928

> <Reaction_type>
O-glucuronidation_(aromatic_hydroxyl)

> <Parent_ID>
34

> <Parent_InChI>
InChI=1S/C17H17NO2/c1-18-8-7-10-3-2-4-12-15(10)13(18)9-11-5-6-14(19)17(20)16(11)12/h2-6,13,19-20H,7-9H2,1H3

> <Parent_SMILES>
CN1CCc2cccc3c2[C@H]1Cc1ccc(O)c(O)c1-3

$$$$
Molecule 34_metabolite 3
  CDK     0516241031

 41 44  0  0  0  0  0  0  0  0999 V2000
    4.2767    0.2560    0.0000 C   0  0  0  0  0  0  0  0  0  0  0  0
    4.2722   -1.2440    0.0000 H   0  0  0  0  0  0  0  0  0  0  0  0
    4.7941    1.6640    0.0000 H   0  0  0  0  0  0  0  0  0  0  0  0
    5.7531   -0.0090    0.0000 H   0  0  0  0  0  0  0  0  0  0  0  0
    2.5650    1.2513    0.0000 N   0  0  0  0  0  0  0  0  0  0  0  0
    2.5650    2.7613    0.0000 C   0  0  0  0  0  0  0  0  0  0  0  0
    4.0423    2.5010    0.0000 H   0  0  0  0  0  0  0  0  0  0  0  0
    3.0778    4.1709    0.0000 H   0  0  0  0  0  0  0  0  0  0  0  0
    1.2650    3.5113    0.0000 C   0  0  0  0  0  0  0  0  0  0  0  0
    2.2291    4.6604    0.0000 H   0  0  0  0  0  0  0  0  0  0  0  0
    0.3010    4.6604    0.0000 H   0  0  0  0  0  0  0  0  0  0  0  0
   -0.0350    2.7613    0.0000 C   0  0  0  0  0  0  0  0  0  0  0  0
   -0.0350    1.2513    0.0000 C   0  0  0  0  0  0  0  0  0  0  0  0
   -1.3350    0.5113    0.0000 C   0  0  0  0  0  0  0  0  0  0  0  0
   -2.6350    1.2513    0.0000 C   0  0  0  0  0  0  0  0  0  0  0  0
   -3.9317    0.4973    0.0000 H   0  0  0  0  0  0  0  0  0  0  0  0
   -2.6350    2.7613    0.0000 C   0  0  0  0  0  0  0  0  0  0  0  0
   -3.9339    3.5115    0.0000 H   0  0  0  0  0  0  0  0  0  0  0  0
   -1.3350    3.5113    0.0000 C   0  0  0  0  0  0  0  0  0  0  0  0
   -1.3350    5.0113    0.0000 H   0  0  0  0  0  0  0  0  0  0  0  0
   -1.3350   -0.9987    0.0000 C   0  0  0  0  0  0  0  0  0  0  0  0
   -2.6350   -1.7487    0.0000 C   0  0  0  0  0  0  0  0  0  0  0  0
   -2.6350   -3.2387    0.0000 C   0  0  0  0  0  0  0  0  0  0  0  0
   -1.3350   -3.9987    0.0000 C   0  0  0  0  0  0  0  0  0  0  0  0
   -1.3350   -5.4987    0.0000 H   0  0  0  0  0  0  0  0  0  0  0  0
   -0.0350   -3.2387    0.0000 C   0  0  0  0  0  0  0  0  0  0  0  0
    1.2661   -3.9852    0.0000 H   0  0  0  0  0  0  0  0  0  0  0  0
   -0.0350   -1.7487    0.0000 C   0  0  0  0  0  0  0  0  0  0  0  0
    1.2650   -0.9987    0.0000 C   0  0  0  0  0  0  0  0  0  0  0  0
    1.7778   -2.4084    0.0000 H   0  0  0  0  0  0  0  0  0  0  0  0
   -0.2122   -0.7384    0.0000 H   0  0  0  0  0  0  0  0  0  0  0  0
    1.2650    0.5113    0.0000 C   0  0  1  0  0  0  0  0  0  0  0  0
    2.5618   -0.2427    0.0000 H   0  0  0  0  0  0  0  0  0  0  0  0
   -3.9360   -3.9852    0.0000 O   0  0  0  0  0  0  0  0  0  0  0  0
   -3.9401   -5.4852    0.0000 S   0  0  0  0  0  0  0  0  0  0  0  0
   -3.4309   -6.8961    0.0000 O   0  0  0  0  0  0  0  0  0  0  0  0
   -2.4622   -5.2287    0.0000 O   0  0  0  0  0  0  0  0  0  0  0  0
   -5.2412   -6.2317    0.0000 O   0  0  0  0  0  0  0  0  0  0  0  0
   -5.2452   -7.7317    0.0000 H   0  0  0  0  0  0  0  0  0  0  0  0
   -3.9339   -0.9985    0.0000 O   0  0  0  0  0  0  0  0  0  0  0  0
   -5.2330   -1.7483    0.0000 H   0  0  0  0  0  0  0  0  0  0  0  0
  1  2  1  0  0  0  0 
  1  3  1  0  0  0  0 
  1  4  1  0  0  0  0 
  1  5  1  0  0  0  0 
  5  6  1  0  0  0  0 
  6  7  1  0  0  0  0 
  6  8  1  0  0  0  0 
  6  9  1  0  0  0  0 
  9 10  1  0  0  0  0 
  9 11  1  0  0  0  0 
  9 12  1  0  0  0  0 
 12 13  2  0  0  0  0 
 13 14  1  0  0  0  0 
 14 15  2  0  0  0  0 
 15 16  1  0  0  0  0 
 15 17  1  0  0  0  0 
 17 18  1  0  0  0  0 
 17 19  2  0  0  0  0 
 12 19  1  0  0  0  0 
 19 20  1  0  0  0  0 
 14 21  1  0  0  0  0 
 21 22  2  0  0  0  0 
 22 23  1  0  0  0  0 
 23 24  2  0  0  0  0 
 24 25  1  0  0  0  0 
 24 26  1  0  0  0  0 
 26 27  1  0  0  0  0 
 26 28  2  0  0  0  0 
 21 28  1  0  0  0  0 
 28 29  1  0  0  0  0 
 29 30  1  0  0  0  0 
 29 31  1  0  0  0  0 
 29 32  1  0  0  0  0 
 13 32  1  0  0  0  0 
  5 32  1  0  0  0  0 
 32 33  1  1  0  0  0 
 23 34  1  0  0  0  0 
 34 35  1  0  0  0  0 
 35 36  2  0  0  0  0 
 35 37  2  0  0  0  0 
 35 38  1  0  0  0  0 
 38 39  1  0  0  0  0 
 22 40  1  0  0  0  0 
 40 41  1  0  0  0  0 
M  END
> <Rank>
3

> <Priority_score>
0.824

> <Reaction_type>
sulfation_(aromatic_hydroxyl)

> <Parent_ID>
34

> <Parent_InChI>
InChI=1S/C17H17NO2/c1-18-8-7-10-3-2-4-12-15(10)13(18)9-11-5-6-14(19)17(20)16(11)12/h2-6,13,19-20H,7-9H2,1H3

> <Parent_SMILES>
CN1CCc2cccc3c2[C@H]1Cc1ccc(O)c(O)c1-3

$$$$
Molecule 34_metabolite 4
  CDK     0516241031

 57 61  0  0  0  0  0  0  0  0999 V2000
  -11.4563    0.7502    0.0000 C   0  0  0  0  0  0  0  0  0  0  0  0
  -11.4598   -0.7498    0.0000 H   0  0  0  0  0  0  0  0  0  0  0  0
  -11.9660    2.1610    0.0000 H   0  0  0  0  0  0  0  0  0  0  0  0
  -12.9341    0.4932    0.0000 H   0  0  0  0  0  0  0  0  0  0  0  0
   -9.7392    1.7361    0.0000 N   0  0  0  0  0  0  0  0  0  0  0  0
   -9.7310    3.2461    0.0000 C   0  0  0  0  0  0  0  0  0  0  0  0
  -11.2096    2.9938    0.0000 H   0  0  0  0  0  0  0  0  0  0  0  0
  -10.2361    4.6585    0.0000 H   0  0  0  0  0  0  0  0  0  0  0  0
   -8.4269    3.9890    0.0000 C   0  0  0  0  0  0  0  0  0  0  0  0
   -9.3847    5.1434    0.0000 H   0  0  0  0  0  0  0  0  0  0  0  0
   -7.4567    5.1330    0.0000 H   0  0  0  0  0  0  0  0  0  0  0  0
   -7.1310    3.2320    0.0000 C   0  0  0  0  0  0  0  0  0  0  0  0
   -7.1392    1.7220    0.0000 C   0  0  0  0  0  0  0  0  0  0  0  0
   -5.8433    0.9750    0.0000 C   0  0  0  0  0  0  0  0  0  0  0  0
   -4.5393    1.7079    0.0000 C   0  0  0  0  0  0  0  0  0  0  0  0
   -3.2466    0.9469    0.0000 H   0  0  0  0  0  0  0  0  0  0  0  0
   -4.5311    3.2179    0.0000 C   0  0  0  0  0  0  0  0  0  0  0  0
   -3.2281    3.9610    0.0000 H   0  0  0  0  0  0  0  0  0  0  0  0
   -5.8270    3.9749    0.0000 C   0  0  0  0  0  0  0  0  0  0  0  0
   -5.8188    5.4749    0.0000 H   0  0  0  0  0  0  0  0  0  0  0  0
   -5.8515   -0.5350    0.0000 C   0  0  0  0  0  0  0  0  0  0  0  0
   -4.5556   -1.2921    0.0000 C   0  0  0  0  0  0  0  0  0  0  0  0
   -4.5637   -2.7820    0.0000 C   0  0  0  0  0  0  0  0  0  0  0  0
   -5.8678   -3.5350    0.0000 C   0  0  0  0  0  0  0  0  0  0  0  0
   -5.8759   -5.0350    0.0000 H   0  0  0  0  0  0  0  0  0  0  0  0
   -7.1636   -2.7679    0.0000 C   0  0  0  0  0  0  0  0  0  0  0  0
   -8.4687   -3.5073    0.0000 H   0  0  0  0  0  0  0  0  0  0  0  0
   -7.1555   -1.2779    0.0000 C   0  0  0  0  0  0  0  0  0  0  0  0
   -8.4514   -0.5209    0.0000 C   0  0  0  0  0  0  0  0  0  0  0  0
   -8.9718   -1.9277    0.0000 H   0  0  0  0  0  0  0  0  0  0  0  0
   -6.9728   -0.2686    0.0000 H   0  0  0  0  0  0  0  0  0  0  0  0
   -8.4432    0.9891    0.0000 C   0  0  1  0  0  0  0  0  0  0  0  0
   -9.7441    0.2422    0.0000 H   0  0  0  0  0  0  0  0  0  0  0  0
   -3.2667   -3.5356    0.0000 O   0  0  0  0  0  0  0  0  0  0  0  0
   -3.2707   -5.0356    0.0000 C   0  0  0  0  0  0  0  0  0  0  0  0
   -4.7478   -4.7745    0.0000 H   0  0  0  0  0  0  0  0  0  0  0  0
   -1.8021   -4.7842    0.0000 C   0  0  0  0  0  0  0  0  0  0  0  0
   -0.4987   -4.0418    0.0000 H   0  0  0  0  0  0  0  0  0  0  0  0
   -0.8303   -5.9571    0.0000 C   0  0  0  0  0  0  0  0  0  0  0  0
    0.4619   -6.7188    0.0000 H   0  0  0  0  0  0  0  0  0  0  0  0
   -1.3601   -7.3666    0.0000 C   0  0  0  0  0  0  0  0  0  0  0  0
   -1.3703   -8.8666    0.0000 H   0  0  0  0  0  0  0  0  0  0  0  0
   -2.8287   -7.6180    0.0000 C   0  0  0  0  0  0  0  0  0  0  0  0
   -4.1317   -8.3612    0.0000 H   0  0  0  0  0  0  0  0  0  0  0  0
   -2.1611   -9.4820    0.0000 C   0  0  0  0  0  0  0  0  0  0  0  0
   -0.6852   -9.7501    0.0000 O   0  0  0  0  0  0  0  0  0  0  0  0
   -3.1311  -10.6262    0.0000 O   0  0  0  0  0  0  0  0  0  0  0  0
   -2.6253  -12.0383    0.0000 H   0  0  0  0  0  0  0  0  0  0  0  0
   -3.7873   -6.4632    0.0000 O   0  0  0  0  0  0  0  0  0  0  0  0
    0.1148   -7.6399    0.0000 O   0  0  0  0  0  0  0  0  0  0  0  0
    0.6157   -9.0538    0.0000 H   0  0  0  0  0  0  0  0  0  0  0  0
    0.1426   -4.8154    0.0000 O   0  0  0  0  0  0  0  0  0  0  0  0
    1.6178   -5.0871    0.0000 H   0  0  0  0  0  0  0  0  0  0  0  0
   -2.3075   -3.3719    0.0000 O   0  0  0  0  0  0  0  0  0  0  0  0
   -1.3371   -2.2281    0.0000 H   0  0  0  0  0  0  0  0  0  0  0  0
   -3.2526   -0.5489    0.0000 O   0  0  0  0  0  0  0  0  0  0  0  0
   -1.9575   -1.3058    0.0000 H   0  0  0  0  0  0  0  0  0  0  0  0
  1  2  1  0  0  0  0 
  1  3  1  0  0  0  0 
  1  4  1  0  0  0  0 
  1  5  1  0  0  0  0 
  5  6  1  0  0  0  0 
  6  7  1  0  0  0  0 
  6  8  1  0  0  0  0 
  6  9  1  0  0  0  0 
  9 10  1  0  0  0  0 
  9 11  1  0  0  0  0 
  9 12  1  0  0  0  0 
 12 13  2  0  0  0  0 
 13 14  1  0  0  0  0 
 14 15  2  0  0  0  0 
 15 16  1  0  0  0  0 
 15 17  1  0  0  0  0 
 17 18  1  0  0  0  0 
 17 19  2  0  0  0  0 
 12 19  1  0  0  0  0 
 19 20  1  0  0  0  0 
 14 21  1  0  0  0  0 
 21 22  2  0  0  0  0 
 22 23  1  0  0  0  0 
 23 24  2  0  0  0  0 
 24 25  1  0  0  0  0 
 24 26  1  0  0  0  0 
 26 27  1  0  0  0  0 
 26 28  2  0  0  0  0 
 21 28  1  0  0  0  0 
 28 29  1  0  0  0  0 
 29 30  1  0  0  0  0 
 29 31  1  0  0  0  0 
 29 32  1  0  0  0  0 
 13 32  1  0  0  0  0 
  5 32  1  0  0  0  0 
 32 33  1  6  0  0  0 
 23 34  1  0  0  0  0 
 34 35  1  0  0  0  0 
 35 36  1  0  0  0  0 
 35 37  1  0  0  0  0 
 37 38  1  0  0  0  0 
 37 39  1  0  0  0  0 
 39 40  1  0  0  0  0 
 39 41  1  0  0  0  0 
 41 42  1  0  0  0  0 
 41 43  1  0  0  0  0 
 43 44  1  0  0  0  0 
 43 45  1  0  0  0  0 
 45 46  2  0  0  0  0 
 45 47  1  0  0  0  0 
 47 48  1  0  0  0  0 
 43 49  1  0  0  0  0 
 35 49  1  0  0  0  0 
 41 50  1  0  0  0  0 
 50 51  1  0  0  0  0 
 39 52  1  0  0  0  0 
 52 53  1  0  0  0  0 
 37 54  1  0  0  0  0 
 54 55  1  0  0  0  0 
 22 56  1  0  0  0  0 
 56 57  1  0  0  0  0 
M  END
> <Rank>
4

> <Priority_score>
0.78

> <Reaction_type>
O-glucuronidation_(aromatic_hydroxyl)

> <Parent_ID>
34

> <Parent_InChI>
InChI=1S/C17H17NO2/c1-18-8-7-10-3-2-4-12-15(10)13(18)9-11-5-6-14(19)17(20)16(11)12/h2-6,13,19-20H,7-9H2,1H3

> <Parent_SMILES>
CN1CCc2cccc3c2[C@H]1Cc1ccc(O)c(O)c1-3

$$$$
Molecule 34_metabolite 5
  CDK     0516241031

 38 41  0  0  0  0  0  0  0  0999 V2000
    3.4873   -0.4016    0.0000 C   0  0  0  0  0  0  0  0  0  0  0  0
    2.5184   -1.5467    0.0000 H   0  0  0  0  0  0  0  0  0  0  0  0
    4.7894    0.3431    0.0000 H   0  0  0  0  0  0  0  0  0  0  0  0
    4.4468   -1.5546    0.0000 H   0  0  0  0  0  0  0  0  0  0  0  0
    2.8177    1.4617    0.0000 N   0  0  0  0  0  0  0  0  0  0  0  0
    2.8177    2.9717    0.0000 C   0  0  0  0  0  0  0  0  0  0  0  0
    4.2949    2.7114    0.0000 H   0  0  0  0  0  0  0  0  0  0  0  0
    3.3304    4.3814    0.0000 H   0  0  0  0  0  0  0  0  0  0  0  0
    1.5177    3.7217    0.0000 C   0  0  0  0  0  0  0  0  0  0  0  0
    2.4817    4.8709    0.0000 H   0  0  0  0  0  0  0  0  0  0  0  0
    0.5536    4.8709    0.0000 H   0  0  0  0  0  0  0  0  0  0  0  0
    0.2177    2.9717    0.0000 C   0  0  0  0  0  0  0  0  0  0  0  0
    0.2177    1.4617    0.0000 C   0  0  0  0  0  0  0  0  0  0  0  0
   -1.0823    0.7217    0.0000 C   0  0  0  0  0  0  0  0  0  0  0  0
   -2.3823    1.4617    0.0000 C   0  0  0  0  0  0  0  0  0  0  0  0
   -3.6791    0.7078    0.0000 H   0  0  0  0  0  0  0  0  0  0  0  0
   -2.3823    2.9717    0.0000 C   0  0  0  0  0  0  0  0  0  0  0  0
   -3.6812    3.7219    0.0000 H   0  0  0  0  0  0  0  0  0  0  0  0
   -1.0823    3.7217    0.0000 C   0  0  0  0  0  0  0  0  0  0  0  0
   -1.0823    5.2217    0.0000 H   0  0  0  0  0  0  0  0  0  0  0  0
   -1.0823   -0.7883    0.0000 C   0  0  0  0  0  0  0  0  0  0  0  0
   -2.3823   -1.5383    0.0000 C   0  0  0  0  0  0  0  0  0  0  0  0
   -2.3823   -3.0283    0.0000 C   0  0  0  0  0  0  0  0  0  0  0  0
   -1.0823   -3.7883    0.0000 C   0  0  0  0  0  0  0  0  0  0  0  0
   -1.0823   -5.2883    0.0000 H   0  0  0  0  0  0  0  0  0  0  0  0
    0.2177   -3.0283    0.0000 C   0  0  0  0  0  0  0  0  0  0  0  0
    1.5187   -3.7748    0.0000 H   0  0  0  0  0  0  0  0  0  0  0  0
    0.2177   -1.5383    0.0000 C   0  0  0  0  0  0  0  0  0  0  0  0
    1.5177   -0.7883    0.0000 C   0  0  0  0  0  0  0  0  0  0  0  0
    2.0304   -2.1979    0.0000 H   0  0  0  0  0  0  0  0  0  0  0  0
    0.0404   -0.5280    0.0000 H   0  0  0  0  0  0  0  0  0  0  0  0
    1.5177    0.7217    0.0000 C   0  0  1  0  0  0  0  0  0  0  0  0
    2.8144   -0.0322    0.0000 H   0  0  0  0  0  0  0  0  0  0  0  0
   -3.6834   -3.7748    0.0000 O   0  0  0  0  0  0  0  0  0  0  0  0
   -3.6875   -5.2747    0.0000 H   0  0  0  0  0  0  0  0  0  0  0  0
   -3.6812   -0.7881    0.0000 O   0  0  0  0  0  0  0  0  0  0  0  0
   -4.9804   -1.5379    0.0000 H   0  0  0  0  0  0  0  0  0  0  0  0
    4.2954    1.7192    0.0000 O   0  0  0  0  0  0  0  0  0  0  0  0
  1  2  1  0  0  0  0 
  1  3  1  0  0  0  0 
  1  4  1  0  0  0  0 
  1  5  1  0  0  0  0 
  5  6  1  0  0  0  0 
  6  7  1  0  0  0  0 
  6  8  1  0  0  0  0 
  6  9  1  0  0  0  0 
  9 10  1  0  0  0  0 
  9 11  1  0  0  0  0 
  9 12  1  0  0  0  0 
 12 13  2  0  0  0  0 
 13 14  1  0  0  0  0 
 14 15  2  0  0  0  0 
 15 16  1  0  0  0  0 
 15 17  1  0  0  0  0 
 17 18  1  0  0  0  0 
 17 19  2  0  0  0  0 
 12 19  1  0  0  0  0 
 19 20  1  0  0  0  0 
 14 21  1  0  0  0  0 
 21 22  2  0  0  0  0 
 22 23  1  0  0  0  0 
 23 24  2  0  0  0  0 
 24 25  1  0  0  0  0 
 24 26  1  0  0  0  0 
 26 27  1  0  0  0  0 
 26 28  2  0  0  0  0 
 21 28  1  0  0  0  0 
 28 29  1  0  0  0  0 
 29 30  1  0  0  0  0 
 29 31  1  0  0  0  0 
 29 32  1  0  0  0  0 
 13 32  1  0  0  0  0 
  5 32  1  0  0  0  0 
 32 33  1  1  0  0  0 
 23 34  1  0  0  0  0 
 34 35  1  0  0  0  0 
 22 36  1  0  0  0  0 
 36 37  1  0  0  0  0 
  5 38  1  0  0  0  0 
M  CHG  1   5   1
M  CHG  1  38  -1
M  END
> <Rank>
5

> <Priority_score>
0.6843447739206729

> <Reaction_type>
N-oxidation_(tertiary_NCH3)

> <Parent_ID>
34

> <Parent_InChI>
InChI=1S/C17H17NO2/c1-18-8-7-10-3-2-4-12-15(10)13(18)9-11-5-6-14(19)17(20)16(11)12/h2-6,13,19-20H,7-9H2,1H3

> <Parent_SMILES>
CN1CCc2cccc3c2[C@H]1Cc1ccc(O)c(O)c1-3

$$$$
Molecule 34_metabolite 6
  CDK     0516241031

 38 41  0  0  0  0  0  0  0  0999 V2000
   -2.6350    2.7613    0.0000 C   0  0  0  0  0  0  0  0  0  0  0  0
   -3.9339    3.5115    0.0000 H   0  0  0  0  0  0  0  0  0  0  0  0
   -1.3350    3.5113    0.0000 C   0  0  0  0  0  0  0  0  0  0  0  0
   -1.3350    5.0113    0.0000 H   0  0  0  0  0  0  0  0  0  0  0  0
   -0.0350    2.7613    0.0000 C   0  0  0  0  0  0  0  0  0  0  0  0
   -0.0350    1.2513    0.0000 C   0  0  0  0  0  0  0  0  0  0  0  0
   -1.3350    0.5113    0.0000 C   0  0  0  0  0  0  0  0  0  0  0  0
   -2.6350    1.2513    0.0000 C   0  0  0  0  0  0  0  0  0  0  0  0
   -3.9317    0.4973    0.0000 H   0  0  0  0  0  0  0  0  0  0  0  0
   -1.3350   -0.9987    0.0000 C   0  0  0  0  0  0  0  0  0  0  0  0
   -2.6350   -1.7487    0.0000 C   0  0  0  0  0  0  0  0  0  0  0  0
   -2.6350   -3.2387    0.0000 C   0  0  0  0  0  0  0  0  0  0  0  0
   -1.3350   -3.9987    0.0000 C   0  0  0  0  0  0  0  0  0  0  0  0
   -1.3350   -5.4987    0.0000 H   0  0  0  0  0  0  0  0  0  0  0  0
   -0.0350   -3.2387    0.0000 C   0  0  0  0  0  0  0  0  0  0  0  0
    1.2661   -3.9852    0.0000 H   0  0  0  0  0  0  0  0  0  0  0  0
   -0.0350   -1.7487    0.0000 C   0  0  0  0  0  0  0  0  0  0  0  0
    1.2650   -0.9987    0.0000 C   0  0  0  0  0  0  0  0  0  0  0  0
    1.7778   -2.4084    0.0000 H   0  0  0  0  0  0  0  0  0  0  0  0
   -0.2122   -0.7384    0.0000 H   0  0  0  0  0  0  0  0  0  0  0  0
    1.2650    0.5113    0.0000 C   0  0  1  0  0  0  0  0  0  0  0  0
    2.5618   -0.2427    0.0000 H   0  0  0  0  0  0  0  0  0  0  0  0
    2.5650    1.2513    0.0000 N   0  0  0  0  0  0  0  0  0  0  0  0
    2.5650    2.7613    0.0000 C   0  0  0  0  0  0  0  0  0  0  0  0
    4.0423    2.5010    0.0000 H   0  0  0  0  0  0  0  0  0  0  0  0
    3.0778    4.1709    0.0000 H   0  0  0  0  0  0  0  0  0  0  0  0
    1.2650    3.5113    0.0000 C   0  0  0  0  0  0  0  0  0  0  0  0
    2.2291    4.6604    0.0000 H   0  0  0  0  0  0  0  0  0  0  0  0
    0.3010    4.6604    0.0000 H   0  0  0  0  0  0  0  0  0  0  0  0
    4.2767    0.2560    0.0000 C   0  0  0  0  0  0  0  0  0  0  0  0
    4.7941    1.6640    0.0000 H   0  0  0  0  0  0  0  0  0  0  0  0
    5.7531   -0.0090    0.0000 H   0  0  0  0  0  0  0  0  0  0  0  0
    4.2722   -1.2440    0.0000 O   0  0  0  0  0  0  0  0  0  0  0  0
    5.5689   -1.9979    0.0000 H   0  0  0  0  0  0  0  0  0  0  0  0
   -3.9360   -3.9852    0.0000 O   0  0  0  0  0  0  0  0  0  0  0  0
   -3.9401   -5.4852    0.0000 H   0  0  0  0  0  0  0  0  0  0  0  0
   -3.9339   -0.9985    0.0000 O   0  0  0  0  0  0  0  0  0  0  0  0
   -5.2330   -1.7483    0.0000 H   0  0  0  0  0  0  0  0  0  0  0  0
  1  2  1  0  0  0  0 
  1  3  2  0  0  0  0 
  3  4  1  0  0  0  0 
  3  5  1  0  0  0  0 
  5  6  2  0  0  0  0 
  6  7  1  0  0  0  0 
  7  8  2  0  0  0  0 
  1  8  1  0  0  0  0 
  8  9  1  0  0  0  0 
  7 10  1  0  0  0  0 
 10 11  2  0  0  0  0 
 11 12  1  0  0  0  0 
 12 13  2  0  0  0  0 
 13 14  1  0  0  0  0 
 13 15  1  0  0  0  0 
 15 16  1  0  0  0  0 
 15 17  2  0  0  0  0 
 10 17  1  0  0  0  0 
 17 18  1  0  0  0  0 
 18 19  1  0  0  0  0 
 18 20  1  0  0  0  0 
 18 21  1  0  0  0  0 
  6 21  1  0  0  0  0 
 21 22  1  1  0  0  0 
 21 23  1  0  0  0  0 
 23 24  1  0  0  0  0 
 24 25  1  0  0  0  0 
 24 26  1  0  0  0  0 
 24 27  1  0  0  0  0 
  5 27  1  0  0  0  0 
 27 28  1  0  0  0  0 
 27 29  1  0  0  0  0 
 23 30  1  0  0  0  0 
 30 31  1  0  0  0  0 
 30 32  1  0  0  0  0 
 30 33  1  0  0  0  0 
 33 34  1  0  0  0  0 
 12 35  1  0  0  0  0 
 35 36  1  0  0  0  0 
 11 37  1  0  0  0  0 
 37 38  1  0  0  0  0 
M  END
> <Rank>
5

> <Priority_score>
0.6843447739206729

> <Reaction_type>
aliphatic hydroxylation

> <Parent_ID>
34

> <Parent_InChI>
InChI=1S/C17H17NO2/c1-18-8-7-10-3-2-4-12-15(10)13(18)9-11-5-6-14(19)17(20)16(11)12/h2-6,13,19-20H,7-9H2,1H3

> <Parent_SMILES>
CN1CCc2cccc3c2[C@H]1Cc1ccc(O)c(O)c1-3

$$$$
Molecule 34_metabolite 7
  CDK     0516241031

 34 37  0  0  0  0  0  0  0  0999 V2000
   -2.2200    2.5200    0.0000 C   0  0  0  0  0  0  0  0  0  0  0  0
   -3.5189    3.2702    0.0000 H   0  0  0  0  0  0  0  0  0  0  0  0
   -0.9200    3.2700    0.0000 C   0  0  0  0  0  0  0  0  0  0  0  0
   -0.9200    4.7700    0.0000 H   0  0  0  0  0  0  0  0  0  0  0  0
    0.3800    2.5200    0.0000 C   0  0  0  0  0  0  0  0  0  0  0  0
    0.3800    1.0100    0.0000 C   0  0  0  0  0  0  0  0  0  0  0  0
   -0.9200    0.2700    0.0000 C   0  0  0  0  0  0  0  0  0  0  0  0
   -2.2200    1.0100    0.0000 C   0  0  0  0  0  0  0  0  0  0  0  0
   -3.5167    0.2560    0.0000 H   0  0  0  0  0  0  0  0  0  0  0  0
   -0.9200   -1.2400    0.0000 C   0  0  0  0  0  0  0  0  0  0  0  0
   -2.2200   -1.9900    0.0000 C   0  0  0  0  0  0  0  0  0  0  0  0
   -2.2200   -3.4800    0.0000 C   0  0  0  0  0  0  0  0  0  0  0  0
   -0.9200   -4.2400    0.0000 C   0  0  0  0  0  0  0  0  0  0  0  0
   -0.9200   -5.7400    0.0000 H   0  0  0  0  0  0  0  0  0  0  0  0
    0.3800   -3.4800    0.0000 C   0  0  0  0  0  0  0  0  0  0  0  0
    1.6811   -4.2265    0.0000 H   0  0  0  0  0  0  0  0  0  0  0  0
    0.3800   -1.9900    0.0000 C   0  0  0  0  0  0  0  0  0  0  0  0
    1.6800   -1.2400    0.0000 C   0  0  0  0  0  0  0  0  0  0  0  0
    2.1927   -2.6496    0.0000 H   0  0  0  0  0  0  0  0  0  0  0  0
    0.2028   -0.9797    0.0000 H   0  0  0  0  0  0  0  0  0  0  0  0
    1.6800    0.2700    0.0000 C   0  0  1  0  0  0  0  0  0  0  0  0
    2.9767   -0.4840    0.0000 H   0  0  0  0  0  0  0  0  0  0  0  0
    2.9800    1.0100    0.0000 N   0  0  0  0  0  0  0  0  0  0  0  0
    4.2767    0.2560    0.0000 H   0  0  0  0  0  0  0  0  0  0  0  0
    2.9800    2.5200    0.0000 C   0  0  0  0  0  0  0  0  0  0  0  0
    4.4572    2.2597    0.0000 H   0  0  0  0  0  0  0  0  0  0  0  0
    3.4927    3.9296    0.0000 H   0  0  0  0  0  0  0  0  0  0  0  0
    1.6800    3.2700    0.0000 C   0  0  0  0  0  0  0  0  0  0  0  0
    2.6441    4.4192    0.0000 H   0  0  0  0  0  0  0  0  0  0  0  0
    0.7159    4.4192    0.0000 H   0  0  0  0  0  0  0  0  0  0  0  0
   -3.5211   -4.2265    0.0000 O   0  0  0  0  0  0  0  0  0  0  0  0
   -3.5251   -5.7265    0.0000 H   0  0  0  0  0  0  0  0  0  0  0  0
   -3.5189   -1.2398    0.0000 O   0  0  0  0  0  0  0  0  0  0  0  0
   -4.8181   -1.9896    0.0000 H   0  0  0  0  0  0  0  0  0  0  0  0
  1  2  1  0  0  0  0 
  1  3  2  0  0  0  0 
  3  4  1  0  0  0  0 
  3  5  1  0  0  0  0 
  5  6  2  0  0  0  0 
  6  7  1  0  0  0  0 
  7  8  2  0  0  0  0 
  1  8  1  0  0  0  0 
  8  9  1  0  0  0  0 
  7 10  1  0  0  0  0 
 10 11  2  0  0  0  0 
 11 12  1  0  0  0  0 
 12 13  2  0  0  0  0 
 13 14  1  0  0  0  0 
 13 15  1  0  0  0  0 
 15 16  1  0  0  0  0 
 15 17  2  0  0  0  0 
 10 17  1  0  0  0  0 
 17 18  1  0  0  0  0 
 18 19  1  0  0  0  0 
 18 20  1  0  0  0  0 
 18 21  1  0  0  0  0 
  6 21  1  0  0  0  0 
 21 22  1  1  0  0  0 
 21 23  1  0  0  0  0 
 23 24  1  0  0  0  0 
 23 25  1  0  0  0  0 
 25 26  1  0  0  0  0 
 25 27  1  0  0  0  0 
 25 28  1  0  0  0  0 
  5 28  1  0  0  0  0 
 28 29  1  0  0  0  0 
 28 30  1  0  0  0  0 
 12 31  1  0  0  0  0 
 31 32  1  0  0  0  0 
 11 33  1  0  0  0  0 
 33 34  1  0  0  0  0 
M  END
> <Rank>
5

> <Priority_score>
0.6843447739206729

> <Reaction_type>
N-demethylation_(R-N(CR)CH3)

> <Parent_ID>
34

> <Parent_InChI>
InChI=1S/C17H17NO2/c1-18-8-7-10-3-2-4-12-15(10)13(18)9-11-5-6-14(19)17(20)16(11)12/h2-6,13,19-20H,7-9H2,1H3

> <Parent_SMILES>
CN1CCc2cccc3c2[C@H]1Cc1ccc(O)c(O)c1-3

$$$$
Molecule 34_metabolite 8
  CDK     0516241031

 40 43  0  0  0  0  0  0  0  0999 V2000
    4.2767    0.2560    0.0000 C   0  0  0  0  0  0  0  0  0  0  0  0
    4.2722   -1.2440    0.0000 H   0  0  0  0  0  0  0  0  0  0  0  0
    4.7941    1.6640    0.0000 H   0  0  0  0  0  0  0  0  0  0  0  0
    5.7531   -0.0090    0.0000 H   0  0  0  0  0  0  0  0  0  0  0  0
    2.5650    1.2513    0.0000 N   0  0  0  0  0  0  0  0  0  0  0  0
    2.5650    2.7613    0.0000 C   0  0  0  0  0  0  0  0  0  0  0  0
    4.0423    2.5010    0.0000 H   0  0  0  0  0  0  0  0  0  0  0  0
    3.0778    4.1709    0.0000 H   0  0  0  0  0  0  0  0  0  0  0  0
    1.2650    3.5113    0.0000 C   0  0  0  0  0  0  0  0  0  0  0  0
    2.2291    4.6604    0.0000 H   0  0  0  0  0  0  0  0  0  0  0  0
    0.3010    4.6604    0.0000 H   0  0  0  0  0  0  0  0  0  0  0  0
   -0.0350    2.7613    0.0000 C   0  0  0  0  0  0  0  0  0  0  0  0
   -0.0350    1.2513    0.0000 C   0  0  0  0  0  0  0  0  0  0  0  0
   -1.3350    0.5113    0.0000 C   0  0  0  0  0  0  0  0  0  0  0  0
   -2.6350    1.2513    0.0000 C   0  0  0  0  0  0  0  0  0  0  0  0
   -3.9317    0.4973    0.0000 H   0  0  0  0  0  0  0  0  0  0  0  0
   -2.6350    2.7613    0.0000 C   0  0  0  0  0  0  0  0  0  0  0  0
   -3.9339    3.5115    0.0000 H   0  0  0  0  0  0  0  0  0  0  0  0
   -1.3350    3.5113    0.0000 C   0  0  0  0  0  0  0  0  0  0  0  0
   -1.3350    5.0113    0.0000 H   0  0  0  0  0  0  0  0  0  0  0  0
   -1.3350   -0.9987    0.0000 C   0  0  0  0  0  0  0  0  0  0  0  0
   -2.6350   -1.7487    0.0000 C   0  0  0  0  0  0  0  0  0  0  0  0
   -2.6350   -3.2387    0.0000 C   0  0  0  0  0  0  0  0  0  0  0  0
   -1.3350   -3.9987    0.0000 C   0  0  0  0  0  0  0  0  0  0  0  0
   -1.3350   -5.4987    0.0000 H   0  0  0  0  0  0  0  0  0  0  0  0
   -0.0350   -3.2387    0.0000 C   0  0  0  0  0  0  0  0  0  0  0  0
    1.2661   -3.9852    0.0000 H   0  0  0  0  0  0  0  0  0  0  0  0
   -0.0350   -1.7487    0.0000 C   0  0  0  0  0  0  0  0  0  0  0  0
    1.2650   -0.9987    0.0000 C   0  0  0  0  0  0  0  0  0  0  0  0
    1.7778   -2.4084    0.0000 H   0  0  0  0  0  0  0  0  0  0  0  0
   -0.2122   -0.7384    0.0000 H   0  0  0  0  0  0  0  0  0  0  0  0
    1.2650    0.5113    0.0000 C   0  0  1  0  0  0  0  0  0  0  0  0
    2.5618   -0.2427    0.0000 H   0  0  0  0  0  0  0  0  0  0  0  0
   -3.9360   -3.9852    0.0000 O   0  0  0  0  0  0  0  0  0  0  0  0
   -3.9401   -5.4852    0.0000 C   0  0  0  0  0  0  0  0  0  0  0  0
   -5.2412   -6.2317    0.0000 H   0  0  0  0  0  0  0  0  0  0  0  0
   -3.4309   -6.8961    0.0000 H   0  0  0  0  0  0  0  0  0  0  0  0
   -2.4622   -5.2287    0.0000 H   0  0  0  0  0  0  0  0  0  0  0  0
   -3.9339   -0.9985    0.0000 O   0  0  0  0  0  0  0  0  0  0  0  0
   -5.2330   -1.7483    0.0000 H   0  0  0  0  0  0  0  0  0  0  0  0
  1  2  1  0  0  0  0 
  1  3  1  0  0  0  0 
  1  4  1  0  0  0  0 
  1  5  1  0  0  0  0 
  5  6  1  0  0  0  0 
  6  7  1  0  0  0  0 
  6  8  1  0  0  0  0 
  6  9  1  0  0  0  0 
  9 10  1  0  0  0  0 
  9 11  1  0  0  0  0 
  9 12  1  0  0  0  0 
 12 13  2  0  0  0  0 
 13 14  1  0  0  0  0 
 14 15  2  0  0  0  0 
 15 16  1  0  0  0  0 
 15 17  1  0  0  0  0 
 17 18  1  0  0  0  0 
 17 19  2  0  0  0  0 
 12 19  1  0  0  0  0 
 19 20  1  0  0  0  0 
 14 21  1  0  0  0  0 
 21 22  2  0  0  0  0 
 22 23  1  0  0  0  0 
 23 24  2  0  0  0  0 
 24 25  1  0  0  0  0 
 24 26  1  0  0  0  0 
 26 27  1  0  0  0  0 
 26 28  2  0  0  0  0 
 21 28  1  0  0  0  0 
 28 29  1  0  0  0  0 
 29 30  1  0  0  0  0 
 29 31  1  0  0  0  0 
 29 32  1  0  0  0  0 
 13 32  1  0  0  0  0 
  5 32  1  0  0  0  0 
 32 33  1  1  0  0  0 
 23 34  1  0  0  0  0 
 34 35  1  0  0  0  0 
 35 36  1  0  0  0  0 
 35 37  1  0  0  0  0 
 35 38  1  0  0  0  0 
 22 39  1  0  0  0  0 
 39 40  1  0  0  0  0 
M  END
> <Rank>
8

> <Priority_score>
0.536

> <Reaction_type>
methylation_(aromatic_OH)

> <Parent_ID>
34

> <Parent_InChI>
InChI=1S/C17H17NO2/c1-18-8-7-10-3-2-4-12-15(10)13(18)9-11-5-6-14(19)17(20)16(11)12/h2-6,13,19-20H,7-9H2,1H3

> <Parent_SMILES>
CN1CCc2cccc3c2[C@H]1Cc1ccc(O)c(O)c1-3

$$$$
Molecule 34_metabolite 9
  CDK     0516241031

 38 40  0  0  0  0  0  0  0  0999 V2000
    0.0034   -4.3776    0.0000 C   0  0  0  0  0  0  0  0  0  0  0  0
   -0.9632   -5.5247    0.0000 H   0  0  0  0  0  0  0  0  0  0  0  0
    0.9651   -5.5288    0.0000 H   0  0  0  0  0  0  0  0  0  0  0  0
    1.3040   -3.6304    0.0000 H   0  0  0  0  0  0  0  0  0  0  0  0
   -0.6698   -2.5156    0.0000 N   0  0  0  0  0  0  0  0  0  0  0  0
   -2.1465   -2.2520    0.0000 H   0  0  0  0  0  0  0  0  0  0  0  0
    0.2968   -1.3686    0.0000 C   0  0  2  0  0  0  0  0  0  0  0  0
    1.2596   -2.5188    0.0000 H   0  0  0  0  0  0  0  0  0  0  0  0
    1.5968   -0.6186    0.0000 C   0  0  0  0  0  0  0  0  0  0  0  0
    2.1095   -2.0282    0.0000 H   0  0  0  0  0  0  0  0  0  0  0  0
    3.0740   -0.3583    0.0000 H   0  0  0  0  0  0  0  0  0  0  0  0
    1.5968    0.8814    0.0000 C   0  0  0  0  0  0  0  0  0  0  0  0
    2.8968    1.6314    0.0000 C   0  0  0  0  0  0  0  0  0  0  0  0
    4.1957    0.8812    0.0000 H   0  0  0  0  0  0  0  0  0  0  0  0
    2.8968    3.1314    0.0000 C   0  0  0  0  0  0  0  0  0  0  0  0
    4.1957    3.8816    0.0000 H   0  0  0  0  0  0  0  0  0  0  0  0
    1.5968    3.8814    0.0000 C   0  0  0  0  0  0  0  0  0  0  0  0
    0.2968    3.1314    0.0000 C   0  0  0  0  0  0  0  0  0  0  0  0
    0.2968    1.6314    0.0000 C   0  0  0  0  0  0  0  0  0  0  0  0
   -0.9932    0.8814    0.0000 C   0  0  0  0  0  0  0  0  0  0  0  0
   -2.2932    1.6314    0.0000 C   0  0  0  0  0  0  0  0  0  0  0  0
   -2.2932    3.1314    0.0000 H   0  0  0  0  0  0  0  0  0  0  0  0
   -3.5932    0.8814    0.0000 C   0  0  0  0  0  0  0  0  0  0  0  0
   -4.8921    1.6316    0.0000 H   0  0  0  0  0  0  0  0  0  0  0  0
   -3.5932   -0.6186    0.0000 C   0  0  0  0  0  0  0  0  0  0  0  0
   -4.8921   -1.3688    0.0000 H   0  0  0  0  0  0  0  0  0  0  0  0
   -2.2932   -1.3686    0.0000 C   0  0  0  0  0  0  0  0  0  0  0  0
   -0.9932   -0.6186    0.0000 C   0  0  0  0  0  0  0  0  0  0  0  0
   -2.2932   -3.3486    0.0000 C   0  0  0  0  0  0  0  0  0  0  0  0
   -1.7802   -4.7581    0.0000 H   0  0  0  0  0  0  0  0  0  0  0  0
   -0.7932   -3.3486    0.0000 H   0  0  0  0  0  0  0  0  0  0  0  0
   -3.5922   -4.0986    0.0000 C   0  0  0  0  0  0  0  0  0  0  0  0
   -3.5922   -5.5986    0.0000 H   0  0  0  0  0  0  0  0  0  0  0  0
   -4.8913   -3.3486    0.0000 O   0  0  0  0  0  0  0  0  0  0  0  0
   -1.0021    3.8816    0.0000 O   0  0  0  0  0  0  0  0  0  0  0  0
   -1.0019    5.3816    0.0000 H   0  0  0  0  0  0  0  0  0  0  0  0
    1.5968    5.3814    0.0000 O   0  0  0  0  0  0  0  0  0  0  0  0
    2.8958    6.1314    0.0000 H   0  0  0  0  0  0  0  0  0  0  0  0
  1  2  1  0  0  0  0 
  1  3  1  0  0  0  0 
  1  4  1  0  0  0  0 
  1  5  1  0  0  0  0 
  5  6  1  0  0  0  0 
  7  5  1  1  0  0  0 
  7  8  1  6  0  0  0 
  7  9  1  0  0  0  0 
  9 10  1  0  0  0  0 
  9 11  1  0  0  0  0 
  9 12  1  0  0  0  0 
 12 13  2  0  0  0  0 
 13 14  1  0  0  0  0 
 13 15  1  0  0  0  0 
 15 16  1  0  0  0  0 
 15 17  2  0  0  0  0 
 17 18  1  0  0  0  0 
 18 19  2  0  0  0  0 
 12 19  1  0  0  0  0 
 19 20  1  0  0  0  0 
 20 21  2  0  0  0  0 
 21 22  1  0  0  0  0 
 21 23  1  0  0  0  0 
 23 24  1  0  0  0  0 
 23 25  2  0  0  0  0 
 25 26  1  0  0  0  0 
 25 27  1  0  0  0  0 
 27 28  2  0  0  0  0 
 20 28  1  0  0  0  0 
  7 28  1  0  0  0  0 
 27 29  1  0  0  0  0 
 29 30  1  0  0  0  0 
 29 31  1  0  0  0  0 
 29 32  1  0  0  0  0 
 32 33  1  0  0  0  0 
 32 34  2  0  0  0  0 
 18 35  1  0  0  0  0 
 35 36  1  0  0  0  0 
 17 37  1  0  0  0  0 
 37 38  1  0  0  0  0 
M  END
> <Rank>
9

> <Priority_score>
0.5197658717869309

> <Reaction_type>
N-dealkylation

> <Parent_ID>
34

> <Parent_InChI>
InChI=1S/C17H17NO2/c1-18-8-7-10-3-2-4-12-15(10)13(18)9-11-5-6-14(19)17(20)16(11)12/h2-6,13,19-20H,7-9H2,1H3

> <Parent_SMILES>
CN1CCc2cccc3c2[C@H]1Cc1ccc(O)c(O)c1-3

$$$$
Molecule 34_metabolite 10
  CDK     0516241031

 38 41  0  0  0  0  0  0  0  0999 V2000
    4.2767    0.2560    0.0000 C   0  0  0  0  0  0  0  0  0  0  0  0
    4.2722   -1.2440    0.0000 H   0  0  0  0  0  0  0  0  0  0  0  0
    4.7941    1.6640    0.0000 H   0  0  0  0  0  0  0  0  0  0  0  0
    5.7531   -0.0090    0.0000 H   0  0  0  0  0  0  0  0  0  0  0  0
    2.5650    1.2513    0.0000 N   0  0  0  0  0  0  0  0  0  0  0  0
    1.2650    0.5113    0.0000 C   0  0  2  0  0  0  0  0  0  0  0  0
   -0.0317   -0.2427    0.0000 H   0  0  0  0  0  0  0  0  0  0  0  0
    1.2650   -0.9987    0.0000 C   0  0  0  0  0  0  0  0  0  0  0  0
    1.7778   -2.4084    0.0000 H   0  0  0  0  0  0  0  0  0  0  0  0
    2.7423   -0.7384    0.0000 H   0  0  0  0  0  0  0  0  0  0  0  0
   -0.0350   -1.7487    0.0000 C   0  0  0  0  0  0  0  0  0  0  0  0
   -0.0350   -3.2387    0.0000 C   0  0  0  0  0  0  0  0  0  0  0  0
    1.2661   -3.9852    0.0000 H   0  0  0  0  0  0  0  0  0  0  0  0
   -1.3350   -3.9987    0.0000 C   0  0  0  0  0  0  0  0  0  0  0  0
   -1.3350   -5.4987    0.0000 H   0  0  0  0  0  0  0  0  0  0  0  0
   -2.6350   -3.2387    0.0000 C   0  0  0  0  0  0  0  0  0  0  0  0
   -2.6350   -1.7487    0.0000 C   0  0  0  0  0  0  0  0  0  0  0  0
   -1.3350   -0.9987    0.0000 C   0  0  0  0  0  0  0  0  0  0  0  0
   -1.3350    0.5113    0.0000 C   0  0  0  0  0  0  0  0  0  0  0  0
   -2.6350    1.2513    0.0000 C   0  0  0  0  0  0  0  0  0  0  0  0
   -3.9317    0.4973    0.0000 H   0  0  0  0  0  0  0  0  0  0  0  0
   -2.6350    2.7613    0.0000 C   0  0  0  0  0  0  0  0  0  0  0  0
   -3.9339    3.5115    0.0000 H   0  0  0  0  0  0  0  0  0  0  0  0
   -1.3350    3.5113    0.0000 C   0  0  0  0  0  0  0  0  0  0  0  0
   -1.3350    5.0113    0.0000 H   0  0  0  0  0  0  0  0  0  0  0  0
   -0.0350    2.7613    0.0000 C   0  0  0  0  0  0  0  0  0  0  0  0
   -0.0350    1.2513    0.0000 C   0  0  0  0  0  0  0  0  0  0  0  0
    1.2650    3.5113    0.0000 C   0  0  0  0  0  0  0  0  0  0  0  0
    2.2291    4.6604    0.0000 H   0  0  0  0  0  0  0  0  0  0  0  0
    0.3010    4.6604    0.0000 H   0  0  0  0  0  0  0  0  0  0  0  0
    2.5650    2.7613    0.0000 C   0  0  0  0  0  0  0  0  0  0  0  0
    4.0423    2.5010    0.0000 H   0  0  0  0  0  0  0  0  0  0  0  0
    3.0778    4.1709    0.0000 O   0  0  0  0  0  0  0  0  0  0  0  0
    4.5549    4.4317    0.0000 H   0  0  0  0  0  0  0  0  0  0  0  0
   -3.9339   -0.9985    0.0000 O   0  0  0  0  0  0  0  0  0  0  0  0
   -5.2330   -1.7483    0.0000 H   0  0  0  0  0  0  0  0  0  0  0  0
   -3.9360   -3.9852    0.0000 O   0  0  0  0  0  0  0  0  0  0  0  0
   -3.9401   -5.4852    0.0000 H   0  0  0  0  0  0  0  0  0  0  0  0
  1  2  1  0  0  0  0 
  1  3  1  0  0  0  0 
  1  4  1  0  0  0  0 
  1  5  1  0  0  0  0 
  5  6  1  0  0  0  0 
  6  7  1  1  0  0  0 
  6  8  1  0  0  0  0 
  8  9  1  0  0  0  0 
  8 10  1  0  0  0  0 
  8 11  1  0  0  0  0 
 11 12  2  0  0  0  0 
 12 13  1  0  0  0  0 
 12 14  1  0  0  0  0 
 14 15  1  0  0  0  0 
 14 16  2  0  0  0  0 
 16 17  1  0  0  0  0 
 17 18  2  0  0  0  0 
 11 18  1  0  0  0  0 
 18 19  1  0  0  0  0 
 19 20  2  0  0  0  0 
 20 21  1  0  0  0  0 
 20 22  1  0  0  0  0 
 22 23  1  0  0  0  0 
 22 24  2  0  0  0  0 
 24 25  1  0  0  0  0 
 24 26  1  0  0  0  0 
 26 27  2  0  0  0  0 
 19 27  1  0  0  0  0 
  6 27  1  0  0  0  0 
 26 28  1  0  0  0  0 
 28 29  1  0  0  0  0 
 28 30  1  0  0  0  0 
 28 31  1  0  0  0  0 
  5 31  1  0  0  0  0 
 31 32  1  0  0  0  0 
 31 33  1  0  0  0  0 
 33 34  1  0  0  0  0 
 17 35  1  0  0  0  0 
 35 36  1  0  0  0  0 
 16 37  1  0  0  0  0 
 37 38  1  0  0  0  0 
M  END
> <Rank>
9

> <Priority_score>
0.5197658717869309

> <Reaction_type>
aliphatic_hydroxylation_(sec_carbon_next_to_SP2,in_a_ring)

> <Parent_ID>
34

> <Parent_InChI>
InChI=1S/C17H17NO2/c1-18-8-7-10-3-2-4-12-15(10)13(18)9-11-5-6-14(19)17(20)16(11)12/h2-6,13,19-20H,7-9H2,1H3

> <Parent_SMILES>
CN1CCc2cccc3c2[C@H]1Cc1ccc(O)c(O)c1-3

$$$$
Molecule 34_metabolite 11
  CDK     0516241031

 36 39  0  0  0  0  0  0  0  0999 V2000
    4.2767    0.2560    0.0000 C   0  0  0  0  0  0  0  0  0  0  0  0
    4.2722   -1.2440    0.0000 H   0  0  0  0  0  0  0  0  0  0  0  0
    4.7941    1.6640    0.0000 H   0  0  0  0  0  0  0  0  0  0  0  0
    5.7531   -0.0090    0.0000 H   0  0  0  0  0  0  0  0  0  0  0  0
    2.9800    1.0100    0.0000 N   0  0  0  0  0  0  0  0  0  0  0  0
    1.6800    0.2700    0.0000 C   0  0  2  0  0  0  0  0  0  0  0  0
    0.3833   -0.4840    0.0000 H   0  0  0  0  0  0  0  0  0  0  0  0
    1.6800   -1.2400    0.0000 C   0  0  0  0  0  0  0  0  0  0  0  0
    2.1927   -2.6496    0.0000 H   0  0  0  0  0  0  0  0  0  0  0  0
    3.1572   -0.9797    0.0000 H   0  0  0  0  0  0  0  0  0  0  0  0
    0.3800   -1.9900    0.0000 C   0  0  0  0  0  0  0  0  0  0  0  0
    0.3800   -3.4800    0.0000 C   0  0  0  0  0  0  0  0  0  0  0  0
    1.6811   -4.2265    0.0000 H   0  0  0  0  0  0  0  0  0  0  0  0
   -0.9200   -4.2400    0.0000 C   0  0  0  0  0  0  0  0  0  0  0  0
   -0.9200   -5.7400    0.0000 H   0  0  0  0  0  0  0  0  0  0  0  0
   -2.2200   -3.4800    0.0000 C   0  0  0  0  0  0  0  0  0  0  0  0
   -2.2200   -1.9900    0.0000 C   0  0  0  0  0  0  0  0  0  0  0  0
   -0.9200   -1.2400    0.0000 C   0  0  0  0  0  0  0  0  0  0  0  0
   -0.9200    0.2700    0.0000 C   0  0  0  0  0  0  0  0  0  0  0  0
   -2.2200    1.0100    0.0000 C   0  0  0  0  0  0  0  0  0  0  0  0
   -3.5167    0.2560    0.0000 H   0  0  0  0  0  0  0  0  0  0  0  0
   -2.2200    2.5200    0.0000 C   0  0  0  0  0  0  0  0  0  0  0  0
   -3.5189    3.2702    0.0000 H   0  0  0  0  0  0  0  0  0  0  0  0
   -0.9200    3.2700    0.0000 C   0  0  0  0  0  0  0  0  0  0  0  0
   -0.9200    4.7700    0.0000 H   0  0  0  0  0  0  0  0  0  0  0  0
    0.3800    2.5200    0.0000 C   0  0  0  0  0  0  0  0  0  0  0  0
    0.3800    1.0100    0.0000 C   0  0  0  0  0  0  0  0  0  0  0  0
    1.6800    3.2700    0.0000 C   0  0  0  0  0  0  0  0  0  0  0  0
    2.6441    4.4192    0.0000 H   0  0  0  0  0  0  0  0  0  0  0  0
    0.7159    4.4192    0.0000 H   0  0  0  0  0  0  0  0  0  0  0  0
    2.9800    2.5200    0.0000 C   0  0  0  0  0  0  0  0  0  0  0  0
    4.2789    3.2702    0.0000 O   0  0  0  0  0  0  0  0  0  0  0  0
   -3.5189   -1.2398    0.0000 O   0  0  0  0  0  0  0  0  0  0  0  0
   -4.8181   -1.9896    0.0000 H   0  0  0  0  0  0  0  0  0  0  0  0
   -3.5211   -4.2265    0.0000 O   0  0  0  0  0  0  0  0  0  0  0  0
   -3.5251   -5.7265    0.0000 H   0  0  0  0  0  0  0  0  0  0  0  0
  1  2  1  0  0  0  0 
  1  3  1  0  0  0  0 
  1  4  1  0  0  0  0 
  1  5  1  0  0  0  0 
  5  6  1  0  0  0  0 
  6  7  1  1  0  0  0 
  6  8  1  0  0  0  0 
  8  9  1  0  0  0  0 
  8 10  1  0  0  0  0 
  8 11  1  0  0  0  0 
 11 12  2  0  0  0  0 
 12 13  1  0  0  0  0 
 12 14  1  0  0  0  0 
 14 15  1  0  0  0  0 
 14 16  2  0  0  0  0 
 16 17  1  0  0  0  0 
 17 18  2  0  0  0  0 
 11 18  1  0  0  0  0 
 18 19  1  0  0  0  0 
 19 20  2  0  0  0  0 
 20 21  1  0  0  0  0 
 20 22  1  0  0  0  0 
 22 23  1  0  0  0  0 
 22 24  2  0  0  0  0 
 24 25  1  0  0  0  0 
 24 26  1  0  0  0  0 
 26 27  2  0  0  0  0 
 19 27  1  0  0  0  0 
  6 27  1  0  0  0  0 
 26 28  1  0  0  0  0 
 28 29  1  0  0  0  0 
 28 30  1  0  0  0  0 
 28 31  1  0  0  0  0 
  5 31  1  0  0  0  0 
 31 32  2  0  0  0  0 
 17 33  1  0  0  0  0 
 33 34  1  0  0  0  0 
 16 35  1  0  0  0  0 
 35 36  1  0  0  0  0 
M  END
> <Rank>
9

> <Priority_score>
0.5197658717869309

> <Reaction_type>
oxidation_(amine_in_a_ring)

> <Parent_ID>
34

> <Parent_InChI>
InChI=1S/C17H17NO2/c1-18-8-7-10-3-2-4-12-15(10)13(18)9-11-5-6-14(19)17(20)16(11)12/h2-6,13,19-20H,7-9H2,1H3

> <Parent_SMILES>
CN1CCc2cccc3c2[C@H]1Cc1ccc(O)c(O)c1-3

$$$$
Molecule 34_metabolite 12
  CDK     0516241031

 38 41  0  0  0  0  0  0  0  0999 V2000
    4.2767    0.2560    0.0000 C   0  0  0  0  0  0  0  0  0  0  0  0
    4.2722   -1.2440    0.0000 H   0  0  0  0  0  0  0  0  0  0  0  0
    4.7941    1.6640    0.0000 H   0  0  0  0  0  0  0  0  0  0  0  0
    5.7531   -0.0090    0.0000 H   0  0  0  0  0  0  0  0  0  0  0  0
    2.5650    1.2513    0.0000 N   0  0  0  0  0  0  0  0  0  0  0  0
    2.5650    2.7613    0.0000 C   0  0  0  0  0  0  0  0  0  0  0  0
    4.0423    2.5010    0.0000 H   0  0  0  0  0  0  0  0  0  0  0  0
    3.0778    4.1709    0.0000 H   0  0  0  0  0  0  0  0  0  0  0  0
    1.2650    3.5113    0.0000 C   0  0  0  0  0  0  0  0  0  0  0  0
    2.2291    4.6604    0.0000 H   0  0  0  0  0  0  0  0  0  0  0  0
   -0.0350    2.7613    0.0000 C   0  0  0  0  0  0  0  0  0  0  0  0
   -1.3350    3.5113    0.0000 C   0  0  0  0  0  0  0  0  0  0  0  0
   -1.3350    5.0113    0.0000 H   0  0  0  0  0  0  0  0  0  0  0  0
   -2.6350    2.7613    0.0000 C   0  0  0  0  0  0  0  0  0  0  0  0
   -3.9339    3.5115    0.0000 H   0  0  0  0  0  0  0  0  0  0  0  0
   -2.6350    1.2513    0.0000 C   0  0  0  0  0  0  0  0  0  0  0  0
   -3.9317    0.4973    0.0000 H   0  0  0  0  0  0  0  0  0  0  0  0
   -1.3350    0.5113    0.0000 C   0  0  0  0  0  0  0  0  0  0  0  0
   -0.0350    1.2513    0.0000 C   0  0  0  0  0  0  0  0  0  0  0  0
    1.2650    0.5113    0.0000 C   0  0  1  0  0  0  0  0  0  0  0  0
   -0.0317   -0.2427    0.0000 H   0  0  0  0  0  0  0  0  0  0  0  0
    1.2650   -0.9987    0.0000 C   0  0  0  0  0  0  0  0  0  0  0  0
    1.7778   -2.4084    0.0000 H   0  0  0  0  0  0  0  0  0  0  0  0
    2.7423   -0.7384    0.0000 H   0  0  0  0  0  0  0  0  0  0  0  0
   -0.0350   -1.7487    0.0000 C   0  0  0  0  0  0  0  0  0  0  0  0
   -0.0350   -3.2387    0.0000 C   0  0  0  0  0  0  0  0  0  0  0  0
    1.2661   -3.9852    0.0000 H   0  0  0  0  0  0  0  0  0  0  0  0
   -1.3350   -3.9987    0.0000 C   0  0  0  0  0  0  0  0  0  0  0  0
   -1.3350   -5.4987    0.0000 H   0  0  0  0  0  0  0  0  0  0  0  0
   -2.6350   -3.2387    0.0000 C   0  0  0  0  0  0  0  0  0  0  0  0
   -2.6350   -1.7487    0.0000 C   0  0  0  0  0  0  0  0  0  0  0  0
   -1.3350   -0.9987    0.0000 C   0  0  0  0  0  0  0  0  0  0  0  0
   -3.9339   -0.9985    0.0000 O   0  0  0  0  0  0  0  0  0  0  0  0
   -5.2330   -1.7483    0.0000 H   0  0  0  0  0  0  0  0  0  0  0  0
   -3.9360   -3.9852    0.0000 O   0  0  0  0  0  0  0  0  0  0  0  0
   -3.9401   -5.4852    0.0000 H   0  0  0  0  0  0  0  0  0  0  0  0
    0.3010    4.6604    0.0000 O   0  0  0  0  0  0  0  0  0  0  0  0
    0.8142    6.0699    0.0000 H   0  0  0  0  0  0  0  0  0  0  0  0
  1  2  1  0  0  0  0 
  1  3  1  0  0  0  0 
  1  4  1  0  0  0  0 
  1  5  1  0  0  0  0 
  5  6  1  0  0  0  0 
  6  7  1  0  0  0  0 
  6  8  1  0  0  0  0 
  6  9  1  0  0  0  0 
  9 10  1  0  0  0  0 
  9 11  1  0  0  0  0 
 11 12  2  0  0  0  0 
 12 13  1  0  0  0  0 
 12 14  1  0  0  0  0 
 14 15  1  0  0  0  0 
 14 16  2  0  0  0  0 
 16 17  1  0  0  0  0 
 16 18  1  0  0  0  0 
 18 19  2  0  0  0  0 
 11 19  1  0  0  0  0 
 19 20  1  0  0  0  0 
  5 20  1  0  0  0  0 
 20 21  1  1  0  0  0 
 20 22  1  0  0  0  0 
 22 23  1  0  0  0  0 
 22 24  1  0  0  0  0 
 22 25  1  0  0  0  0 
 25 26  2  0  0  0  0 
 26 27  1  0  0  0  0 
 26 28  1  0  0  0  0 
 28 29  1  0  0  0  0 
 28 30  2  0  0  0  0 
 30 31  1  0  0  0  0 
 31 32  2  0  0  0  0 
 25 32  1  0  0  0  0 
 18 32  1  0  0  0  0 
 31 33  1  0  0  0  0 
 33 34  1  0  0  0  0 
 30 35  1  0  0  0  0 
 35 36  1  0  0  0  0 
  9 37  1  0  0  0  0 
 37 38  1  0  0  0  0 
M  END
> <Rank>
9

> <Priority_score>
0.5197658717869309

> <Reaction_type>
benzylic_hydroxylation_(c-CH2-CR)

> <Parent_ID>
34

> <Parent_InChI>
InChI=1S/C17H17NO2/c1-18-8-7-10-3-2-4-12-15(10)13(18)9-11-5-6-14(19)17(20)16(11)12/h2-6,13,19-20H,7-9H2,1H3

> <Parent_SMILES>
CN1CCc2cccc3c2[C@H]1Cc1ccc(O)c(O)c1-3

$$$$
Molecule 34_metabolite 13
  CDK     0516241031

 38 40  0  0  0  0  0  0  0  0999 V2000
    8.2562    0.6992    0.0000 C   0  0  0  0  0  0  0  0  0  0  0  0
    8.2564    2.1992    0.0000 H   0  0  0  0  0  0  0  0  0  0  0  0
    9.7334    0.9594    0.0000 H   0  0  0  0  0  0  0  0  0  0  0  0
    8.7690   -0.7105    0.0000 H   0  0  0  0  0  0  0  0  0  0  0  0
    6.9570   -0.0506    0.0000 N   0  0  0  0  0  0  0  0  0  0  0  0
    6.9568   -1.5506    0.0000 H   0  0  0  0  0  0  0  0  0  0  0  0
    5.6581    0.6996    0.0000 C   0  0  0  0  0  0  0  0  0  0  0  0
    6.6224    1.8485    0.0000 H   0  0  0  0  0  0  0  0  0  0  0  0
    4.6941    1.8488    0.0000 H   0  0  0  0  0  0  0  0  0  0  0  0
    4.3589   -0.0502    0.0000 C   0  0  0  0  0  0  0  0  0  0  0  0
    3.3946   -1.1991    0.0000 H   0  0  0  0  0  0  0  0  0  0  0  0
    5.3229   -1.1994    0.0000 H   0  0  0  0  0  0  0  0  0  0  0  0
    3.0600    0.7000    0.0000 C   0  0  0  0  0  0  0  0  0  0  0  0
    1.7600   -0.0500    0.0000 C   0  0  0  0  0  0  0  0  0  0  0  0
    0.4600    0.7000    0.0000 C   0  0  0  0  0  0  0  0  0  0  0  0
    0.4600    2.2000    0.0000 C   0  0  0  0  0  0  0  0  0  0  0  0
   -0.8389    2.9502    0.0000 H   0  0  0  0  0  0  0  0  0  0  0  0
    1.7600    2.9500    0.0000 C   0  0  0  0  0  0  0  0  0  0  0  0
    1.7600    4.4500    0.0000 H   0  0  0  0  0  0  0  0  0  0  0  0
    3.0600    2.2000    0.0000 C   0  0  0  0  0  0  0  0  0  0  0  0
    4.3589    2.9502    0.0000 H   0  0  0  0  0  0  0  0  0  0  0  0
   -0.8300   -0.0500    0.0000 C   0  0  0  0  0  0  0  0  0  0  0  0
   -2.1300    0.7000    0.0000 C   0  0  0  0  0  0  0  0  0  0  0  0
   -3.4300   -0.0500    0.0000 C   0  0  0  0  0  0  0  0  0  0  0  0
   -3.4300   -1.5500    0.0000 C   0  0  0  0  0  0  0  0  0  0  0  0
   -4.7289   -2.3002    0.0000 H   0  0  0  0  0  0  0  0  0  0  0  0
   -2.1300   -2.3000    0.0000 C   0  0  0  0  0  0  0  0  0  0  0  0
   -2.1300   -3.8000    0.0000 H   0  0  0  0  0  0  0  0  0  0  0  0
   -0.8300   -1.5500    0.0000 C   0  0  0  0  0  0  0  0  0  0  0  0
    0.4600   -2.3000    0.0000 C   0  0  0  0  0  0  0  0  0  0  0  0
   -0.5066   -3.4470    0.0000 H   0  0  0  0  0  0  0  0  0  0  0  0
    1.4228   -3.4502    0.0000 H   0  0  0  0  0  0  0  0  0  0  0  0
    1.7600   -1.5500    0.0000 C   0  0  0  0  0  0  0  0  0  0  0  0
    3.0589   -2.3002    0.0000 O   0  0  0  0  0  0  0  0  0  0  0  0
   -4.7289    0.7002    0.0000 O   0  0  0  0  0  0  0  0  0  0  0  0
   -6.0281   -0.0496    0.0000 H   0  0  0  0  0  0  0  0  0  0  0  0
   -2.1300    2.2000    0.0000 O   0  0  0  0  0  0  0  0  0  0  0  0
   -3.4290    2.9500    0.0000 H   0  0  0  0  0  0  0  0  0  0  0  0
  1  2  1  0  0  0  0 
  1  3  1  0  0  0  0 
  1  4  1  0  0  0  0 
  1  5  1  0  0  0  0 
  5  6  1  0  0  0  0 
  5  7  1  0  0  0  0 
  7  8  1  0  0  0  0 
  7  9  1  0  0  0  0 
  7 10  1  0  0  0  0 
 10 11  1  0  0  0  0 
 10 12  1  0  0  0  0 
 10 13  1  0  0  0  0 
 13 14  2  0  0  0  0 
 14 15  1  0  0  0  0 
 15 16  2  0  0  0  0 
 16 17  1  0  0  0  0 
 16 18  1  0  0  0  0 
 18 19  1  0  0  0  0 
 18 20  2  0  0  0  0 
 13 20  1  0  0  0  0 
 20 21  1  0  0  0  0 
 15 22  1  0  0  0  0 
 22 23  2  0  0  0  0 
 23 24  1  0  0  0  0 
 24 25  2  0  0  0  0 
 25 26  1  0  0  0  0 
 25 27  1  0  0  0  0 
 27 28  1  0  0  0  0 
 27 29  2  0  0  0  0 
 22 29  1  0  0  0  0 
 29 30  1  0  0  0  0 
 30 31  1  0  0  0  0 
 30 32  1  0  0  0  0 
 30 33  1  0  0  0  0 
 14 33  1  0  0  0  0 
 33 34  2  0  0  0  0 
 24 35  1  0  0  0  0 
 35 36  1  0  0  0  0 
 23 37  1  0  0  0  0 
 37 38  1  0  0  0  0 
M  END
> <Rank>
13

> <Priority_score>
0.5124509033061322

> <Reaction_type>
N-dealkylation

> <Parent_ID>
34

> <Parent_InChI>
InChI=1S/C17H17NO2/c1-18-8-7-10-3-2-4-12-15(10)13(18)9-11-5-6-14(19)17(20)16(11)12/h2-6,13,19-20H,7-9H2,1H3

> <Parent_SMILES>
CN1CCc2cccc3c2[C@H]1Cc1ccc(O)c(O)c1-3

$$$$
Molecule 34_metabolite 14
  CDK     0516241031

 40 43  0  0  0  0  0  0  0  0999 V2000
    4.2767    0.2560    0.0000 C   0  0  0  0  0  0  0  0  0  0  0  0
    4.2722   -1.2440    0.0000 H   0  0  0  0  0  0  0  0  0  0  0  0
    4.7941    1.6640    0.0000 H   0  0  0  0  0  0  0  0  0  0  0  0
    5.7531   -0.0090    0.0000 H   0  0  0  0  0  0  0  0  0  0  0  0
    2.5650    1.2513    0.0000 N   0  0  0  0  0  0  0  0  0  0  0  0
    2.5650    2.7613    0.0000 C   0  0  0  0  0  0  0  0  0  0  0  0
    4.0423    2.5010    0.0000 H   0  0  0  0  0  0  0  0  0  0  0  0
    3.0778    4.1709    0.0000 H   0  0  0  0  0  0  0  0  0  0  0  0
    1.2650    3.5113    0.0000 C   0  0  0  0  0  0  0  0  0  0  0  0
    2.2291    4.6604    0.0000 H   0  0  0  0  0  0  0  0  0  0  0  0
    0.3010    4.6604    0.0000 H   0  0  0  0  0  0  0  0  0  0  0  0
   -0.0350    2.7613    0.0000 C   0  0  0  0  0  0  0  0  0  0  0  0
   -0.0350    1.2513    0.0000 C   0  0  0  0  0  0  0  0  0  0  0  0
   -1.3350    0.5113    0.0000 C   0  0  0  0  0  0  0  0  0  0  0  0
   -2.6350    1.2513    0.0000 C   0  0  0  0  0  0  0  0  0  0  0  0
   -3.9317    0.4973    0.0000 H   0  0  0  0  0  0  0  0  0  0  0  0
   -2.6350    2.7613    0.0000 C   0  0  0  0  0  0  0  0  0  0  0  0
   -3.9339    3.5115    0.0000 H   0  0  0  0  0  0  0  0  0  0  0  0
   -1.3350    3.5113    0.0000 C   0  0  0  0  0  0  0  0  0  0  0  0
   -1.3350    5.0113    0.0000 H   0  0  0  0  0  0  0  0  0  0  0  0
   -1.3350   -0.9987    0.0000 C   0  0  0  0  0  0  0  0  0  0  0  0
   -2.6350   -1.7487    0.0000 C   0  0  0  0  0  0  0  0  0  0  0  0
   -2.6350   -3.2387    0.0000 C   0  0  0  0  0  0  0  0  0  0  0  0
   -1.3350   -3.9987    0.0000 C   0  0  0  0  0  0  0  0  0  0  0  0
   -1.3350   -5.4987    0.0000 H   0  0  0  0  0  0  0  0  0  0  0  0
   -0.0350   -3.2387    0.0000 C   0  0  0  0  0  0  0  0  0  0  0  0
    1.2661   -3.9852    0.0000 H   0  0  0  0  0  0  0  0  0  0  0  0
   -0.0350   -1.7487    0.0000 C   0  0  0  0  0  0  0  0  0  0  0  0
    1.2650   -0.9987    0.0000 C   0  0  0  0  0  0  0  0  0  0  0  0
    1.7778   -2.4084    0.0000 H   0  0  0  0  0  0  0  0  0  0  0  0
   -0.2122   -0.7384    0.0000 H   0  0  0  0  0  0  0  0  0  0  0  0
    1.2650    0.5113    0.0000 C   0  0  1  0  0  0  0  0  0  0  0  0
    2.5618   -0.2427    0.0000 H   0  0  0  0  0  0  0  0  0  0  0  0
   -3.9360   -3.9852    0.0000 O   0  0  0  0  0  0  0  0  0  0  0  0
   -3.9401   -5.4852    0.0000 H   0  0  0  0  0  0  0  0  0  0  0  0
   -3.9339   -0.9985    0.0000 O   0  0  0  0  0  0  0  0  0  0  0  0
   -5.2330   -1.7483    0.0000 C   0  0  0  0  0  0  0  0  0  0  0  0
   -6.5320   -0.9981    0.0000 H   0  0  0  0  0  0  0  0  0  0  0  0
   -6.1974   -2.8972    0.0000 H   0  0  0  0  0  0  0  0  0  0  0  0
   -4.2690   -2.8975    0.0000 H   0  0  0  0  0  0  0  0  0  0  0  0
  1  2  1  0  0  0  0 
  1  3  1  0  0  0  0 
  1  4  1  0  0  0  0 
  1  5  1  0  0  0  0 
  5  6  1  0  0  0  0 
  6  7  1  0  0  0  0 
  6  8  1  0  0  0  0 
  6  9  1  0  0  0  0 
  9 10  1  0  0  0  0 
  9 11  1  0  0  0  0 
  9 12  1  0  0  0  0 
 12 13  2  0  0  0  0 
 13 14  1  0  0  0  0 
 14 15  2  0  0  0  0 
 15 16  1  0  0  0  0 
 15 17  1  0  0  0  0 
 17 18  1  0  0  0  0 
 17 19  2  0  0  0  0 
 12 19  1  0  0  0  0 
 19 20  1  0  0  0  0 
 14 21  1  0  0  0  0 
 21 22  2  0  0  0  0 
 22 23  1  0  0  0  0 
 23 24  2  0  0  0  0 
 24 25  1  0  0  0  0 
 24 26  1  0  0  0  0 
 26 27  1  0  0  0  0 
 26 28  2  0  0  0  0 
 21 28  1  0  0  0  0 
 28 29  1  0  0  0  0 
 29 30  1  0  0  0  0 
 29 31  1  0  0  0  0 
 29 32  1  0  0  0  0 
 13 32  1  0  0  0  0 
  5 32  1  0  0  0  0 
 32 33  1  1  0  0  0 
 23 34  1  0  0  0  0 
 34 35  1  0  0  0  0 
 22 36  1  0  0  0  0 
 36 37  1  0  0  0  0 
 37 38  1  0  0  0  0 
 37 39  1  0  0  0  0 
 37 40  1  0  0  0  0 
M  END
> <Rank>
14

> <Priority_score>
0.512

> <Reaction_type>
methylation_(aromatic_OH)

> <Parent_ID>
34

> <Parent_InChI>
InChI=1S/C17H17NO2/c1-18-8-7-10-3-2-4-12-15(10)13(18)9-11-5-6-14(19)17(20)16(11)12/h2-6,13,19-20H,7-9H2,1H3

> <Parent_SMILES>
CN1CCc2cccc3c2[C@H]1Cc1ccc(O)c(O)c1-3

$$$$
Molecule 34_metabolite 15
  CDK     0516241031

 38 41  0  0  0  0  0  0  0  0999 V2000
    4.2767    0.2560    0.0000 C   0  0  0  0  0  0  0  0  0  0  0  0
    4.2722   -1.2440    0.0000 H   0  0  0  0  0  0  0  0  0  0  0  0
    4.7941    1.6640    0.0000 H   0  0  0  0  0  0  0  0  0  0  0  0
    5.7531   -0.0090    0.0000 H   0  0  0  0  0  0  0  0  0  0  0  0
    2.5650    1.2513    0.0000 N   0  0  0  0  0  0  0  0  0  0  0  0
    2.5650    2.7613    0.0000 C   0  0  0  0  0  0  0  0  0  0  0  0
    4.0423    2.5010    0.0000 H   0  0  0  0  0  0  0  0  0  0  0  0
    3.0778    4.1709    0.0000 H   0  0  0  0  0  0  0  0  0  0  0  0
    1.2650    3.5113    0.0000 C   0  0  0  0  0  0  0  0  0  0  0  0
    2.2291    4.6604    0.0000 H   0  0  0  0  0  0  0  0  0  0  0  0
    0.3010    4.6604    0.0000 H   0  0  0  0  0  0  0  0  0  0  0  0
   -0.0350    2.7613    0.0000 C   0  0  0  0  0  0  0  0  0  0  0  0
   -0.0350    1.2513    0.0000 C   0  0  0  0  0  0  0  0  0  0  0  0
   -1.3350    0.5113    0.0000 C   0  0  0  0  0  0  0  0  0  0  0  0
   -2.6350    1.2513    0.0000 C   0  0  0  0  0  0  0  0  0  0  0  0
   -3.9317    0.4973    0.0000 H   0  0  0  0  0  0  0  0  0  0  0  0
   -2.6350    2.7613    0.0000 C   0  0  0  0  0  0  0  0  0  0  0  0
   -3.9339    3.5115    0.0000 H   0  0  0  0  0  0  0  0  0  0  0  0
   -1.3350    3.5113    0.0000 C   0  0  0  0  0  0  0  0  0  0  0  0
   -1.3350    5.0113    0.0000 H   0  0  0  0  0  0  0  0  0  0  0  0
   -1.3350   -0.9987    0.0000 C   0  0  0  0  0  0  0  0  0  0  0  0
   -2.6350   -1.7487    0.0000 C   0  0  0  0  0  0  0  0  0  0  0  0
   -2.6350   -3.2387    0.0000 C   0  0  0  0  0  0  0  0  0  0  0  0
   -1.3350   -3.9987    0.0000 C   0  0  0  0  0  0  0  0  0  0  0  0
   -1.3350   -5.4987    0.0000 H   0  0  0  0  0  0  0  0  0  0  0  0
   -0.0350   -3.2387    0.0000 C   0  0  0  0  0  0  0  0  0  0  0  0
   -0.0350   -1.7487    0.0000 C   0  0  0  0  0  0  0  0  0  0  0  0
    1.2650   -0.9987    0.0000 C   0  0  0  0  0  0  0  0  0  0  0  0
    1.7778   -2.4084    0.0000 H   0  0  0  0  0  0  0  0  0  0  0  0
   -0.2122   -0.7384    0.0000 H   0  0  0  0  0  0  0  0  0  0  0  0
    1.2650    0.5113    0.0000 C   0  0  1  0  0  0  0  0  0  0  0  0
    2.5618   -0.2427    0.0000 H   0  0  0  0  0  0  0  0  0  0  0  0
    1.2661   -3.9852    0.0000 O   0  0  0  0  0  0  0  0  0  0  0  0
    1.2702   -5.4852    0.0000 H   0  0  0  0  0  0  0  0  0  0  0  0
   -3.9360   -3.9852    0.0000 O   0  0  0  0  0  0  0  0  0  0  0  0
   -3.9401   -5.4852    0.0000 H   0  0  0  0  0  0  0  0  0  0  0  0
   -3.9339   -0.9985    0.0000 O   0  0  0  0  0  0  0  0  0  0  0  0
   -5.2330   -1.7483    0.0000 H   0  0  0  0  0  0  0  0  0  0  0  0
  1  2  1  0  0  0  0 
  1  3  1  0  0  0  0 
  1  4  1  0  0  0  0 
  1  5  1  0  0  0  0 
  5  6  1  0  0  0  0 
  6  7  1  0  0  0  0 
  6  8  1  0  0  0  0 
  6  9  1  0  0  0  0 
  9 10  1  0  0  0  0 
  9 11  1  0  0  0  0 
  9 12  1  0  0  0  0 
 12 13  2  0  0  0  0 
 13 14  1  0  0  0  0 
 14 15  2  0  0  0  0 
 15 16  1  0  0  0  0 
 15 17  1  0  0  0  0 
 17 18  1  0  0  0  0 
 17 19  2  0  0  0  0 
 12 19  1  0  0  0  0 
 19 20  1  0  0  0  0 
 14 21  1  0  0  0  0 
 21 22  2  0  0  0  0 
 22 23  1  0  0  0  0 
 23 24  2  0  0  0  0 
 24 25  1  0  0  0  0 
 24 26  1  0  0  0  0 
 26 27  2  0  0  0  0 
 21 27  1  0  0  0  0 
 27 28  1  0  0  0  0 
 28 29  1  0  0  0  0 
 28 30  1  0  0  0  0 
 28 31  1  0  0  0  0 
 13 31  1  0  0  0  0 
  5 31  1  0  0  0  0 
 31 32  1  1  0  0  0 
 26 33  1  0  0  0  0 
 33 34  1  0  0  0  0 
 23 35  1  0  0  0  0 
 35 36  1  0  0  0  0 
 22 37  1  0  0  0  0 
 37 38  1  0  0  0  0 
M  END
> <Rank>
15

> <Priority_score>
0.3355576360444704

> <Reaction_type>
aromatic_hydroxylation_(para_to_oxygen)

> <Parent_ID>
34

> <Parent_InChI>
InChI=1S/C17H17NO2/c1-18-8-7-10-3-2-4-12-15(10)13(18)9-11-5-6-14(19)17(20)16(11)12/h2-6,13,19-20H,7-9H2,1H3

> <Parent_SMILES>
CN1CCc2cccc3c2[C@H]1Cc1ccc(O)c(O)c1-3

$$$$
Molecule 34_metabolite 16
  CDK     0516241031

 36 39  0  0  0  0  0  0  0  0999 V2000
    4.2767    0.2560    0.0000 C   0  0  0  0  0  0  0  0  0  0  0  0
    4.2722   -1.2440    0.0000 H   0  0  0  0  0  0  0  0  0  0  0  0
    4.7941    1.6640    0.0000 H   0  0  0  0  0  0  0  0  0  0  0  0
    5.7531   -0.0090    0.0000 H   0  0  0  0  0  0  0  0  0  0  0  0
    2.5650    1.2513    0.0000 N   0  0  0  0  0  0  0  0  0  0  0  0
    2.5650    2.7613    0.0000 C   0  0  0  0  0  0  0  0  0  0  0  0
    4.0423    2.5010    0.0000 H   0  0  0  0  0  0  0  0  0  0  0  0
    3.0778    4.1709    0.0000 H   0  0  0  0  0  0  0  0  0  0  0  0
    1.2650    3.5113    0.0000 C   0  0  0  0  0  0  0  0  0  0  0  0
    2.2291    4.6604    0.0000 H   0  0  0  0  0  0  0  0  0  0  0  0
    0.3010    4.6604    0.0000 H   0  0  0  0  0  0  0  0  0  0  0  0
   -0.0350    2.7613    0.0000 C   0  0  0  0  0  0  0  0  0  0  0  0
   -1.3350    3.5113    0.0000 C   0  0  0  0  0  0  0  0  0  0  0  0
   -1.3350    5.0113    0.0000 H   0  0  0  0  0  0  0  0  0  0  0  0
   -2.6350    2.7613    0.0000 C   0  0  0  0  0  0  0  0  0  0  0  0
   -3.9339    3.5115    0.0000 H   0  0  0  0  0  0  0  0  0  0  0  0
   -2.6350    1.2513    0.0000 C   0  0  0  0  0  0  0  0  0  0  0  0
   -3.9317    0.4973    0.0000 H   0  0  0  0  0  0  0  0  0  0  0  0
   -1.3350    0.5113    0.0000 C   0  0  0  0  0  0  0  0  0  0  0  0
   -0.0350    1.2513    0.0000 C   0  0  0  0  0  0  0  0  0  0  0  0
    1.2650    0.5113    0.0000 C   0  0  1  0  0  0  0  0  0  0  0  0
   -0.0317   -0.2427    0.0000 H   0  0  0  0  0  0  0  0  0  0  0  0
    1.2650   -0.9987    0.0000 C   0  0  0  0  0  0  0  0  0  0  0  0
    1.7778   -2.4084    0.0000 H   0  0  0  0  0  0  0  0  0  0  0  0
    2.7423   -0.7384    0.0000 H   0  0  0  0  0  0  0  0  0  0  0  0
   -0.0350   -1.7487    0.0000 C   0  0  0  0  0  0  0  0  0  0  0  0
   -0.0350   -3.2387    0.0000 C   0  0  0  0  0  0  0  0  0  0  0  0
    1.2661   -3.9852    0.0000 H   0  0  0  0  0  0  0  0  0  0  0  0
   -1.3350   -3.9987    0.0000 C   0  0  0  0  0  0  0  0  0  0  0  0
   -1.3350   -5.4987    0.0000 H   0  0  0  0  0  0  0  0  0  0  0  0
   -2.6350   -3.2387    0.0000 C   0  0  0  0  0  0  0  0  0  0  0  0
   -2.6350   -1.7487    0.0000 C   0  0  0  0  0  0  0  0  0  0  0  0
   -3.9339   -0.9985    0.0000 H   0  0  0  0  0  0  0  0  0  0  0  0
   -1.3350   -0.9987    0.0000 C   0  0  0  0  0  0  0  0  0  0  0  0
   -3.9360   -3.9852    0.0000 O   0  0  0  0  0  0  0  0  0  0  0  0
   -3.9401   -5.4852    0.0000 H   0  0  0  0  0  0  0  0  0  0  0  0
  1  2  1  0  0  0  0 
  1  3  1  0  0  0  0 
  1  4  1  0  0  0  0 
  1  5  1  0  0  0  0 
  5  6  1  0  0  0  0 
  6  7  1  0  0  0  0 
  6  8  1  0  0  0  0 
  6  9  1  0  0  0  0 
  9 10  1  0  0  0  0 
  9 11  1  0  0  0  0 
  9 12  1  0  0  0  0 
 12 13  2  0  0  0  0 
 13 14  1  0  0  0  0 
 13 15  1  0  0  0  0 
 15 16  1  0  0  0  0 
 15 17  2  0  0  0  0 
 17 18  1  0  0  0  0 
 17 19  1  0  0  0  0 
 19 20  2  0  0  0  0 
 12 20  1  0  0  0  0 
 20 21  1  0  0  0  0 
  5 21  1  0  0  0  0 
 21 22  1  1  0  0  0 
 21 23  1  0  0  0  0 
 23 24  1  0  0  0  0 
 23 25  1  0  0  0  0 
 23 26  1  0  0  0  0 
 26 27  2  0  0  0  0 
 27 28  1  0  0  0  0 
 27 29  1  0  0  0  0 
 29 30  1  0  0  0  0 
 29 31  2  0  0  0  0 
 31 32  1  0  0  0  0 
 32 33  1  0  0  0  0 
 32 34  2  0  0  0  0 
 26 34  1  0  0  0  0 
 19 34  1  0  0  0  0 
 31 35  1  0  0  0  0 
 35 36  1  0  0  0  0 
M  END
> <Rank>
15

> <Priority_score>
0.3355576360444704

> <Reaction_type>
aromatic_dehydroxylation

> <Parent_ID>
34

> <Parent_InChI>
InChI=1S/C17H17NO2/c1-18-8-7-10-3-2-4-12-15(10)13(18)9-11-5-6-14(19)17(20)16(11)12/h2-6,13,19-20H,7-9H2,1H3

> <Parent_SMILES>
CN1CCc2cccc3c2[C@H]1Cc1ccc(O)c(O)c1-3

$$$$
Molecule 34_metabolite 17
  CDK     0516241031

 36 39  0  0  0  0  0  0  0  0999 V2000
    4.2767    0.2560    0.0000 C   0  0  0  0  0  0  0  0  0  0  0  0
    4.2722   -1.2440    0.0000 H   0  0  0  0  0  0  0  0  0  0  0  0
    4.7941    1.6640    0.0000 H   0  0  0  0  0  0  0  0  0  0  0  0
    5.7531   -0.0090    0.0000 H   0  0  0  0  0  0  0  0  0  0  0  0
    2.5650    1.2513    0.0000 N   0  0  0  0  0  0  0  0  0  0  0  0
    2.5650    2.7613    0.0000 C   0  0  0  0  0  0  0  0  0  0  0  0
    4.0423    2.5010    0.0000 H   0  0  0  0  0  0  0  0  0  0  0  0
    3.0778    4.1709    0.0000 H   0  0  0  0  0  0  0  0  0  0  0  0
    1.2650    3.5113    0.0000 C   0  0  0  0  0  0  0  0  0  0  0  0
    2.2291    4.6604    0.0000 H   0  0  0  0  0  0  0  0  0  0  0  0
    0.3010    4.6604    0.0000 H   0  0  0  0  0  0  0  0  0  0  0  0
   -0.0350    2.7613    0.0000 C   0  0  0  0  0  0  0  0  0  0  0  0
   -0.0350    1.2513    0.0000 C   0  0  0  0  0  0  0  0  0  0  0  0
   -1.3350    0.5113    0.0000 C   0  0  0  0  0  0  0  0  0  0  0  0
   -2.6350    1.2513    0.0000 C   0  0  0  0  0  0  0  0  0  0  0  0
   -3.9317    0.4973    0.0000 H   0  0  0  0  0  0  0  0  0  0  0  0
   -2.6350    2.7613    0.0000 C   0  0  0  0  0  0  0  0  0  0  0  0
   -3.9339    3.5115    0.0000 H   0  0  0  0  0  0  0  0  0  0  0  0
   -1.3350    3.5113    0.0000 C   0  0  0  0  0  0  0  0  0  0  0  0
   -1.3350    5.0113    0.0000 H   0  0  0  0  0  0  0  0  0  0  0  0
   -1.3350   -0.9987    0.0000 C   0  0  0  0  0  0  0  0  0  0  0  0
   -2.6350   -1.7487    0.0000 C   0  0  0  0  0  0  0  0  0  0  0  0
   -2.6350   -3.2387    0.0000 C   0  0  0  0  0  0  0  0  0  0  0  0
   -3.9360   -3.9852    0.0000 H   0  0  0  0  0  0  0  0  0  0  0  0
   -1.3350   -3.9987    0.0000 C   0  0  0  0  0  0  0  0  0  0  0  0
   -1.3350   -5.4987    0.0000 H   0  0  0  0  0  0  0  0  0  0  0  0
   -0.0350   -3.2387    0.0000 C   0  0  0  0  0  0  0  0  0  0  0  0
    1.2661   -3.9852    0.0000 H   0  0  0  0  0  0  0  0  0  0  0  0
   -0.0350   -1.7487    0.0000 C   0  0  0  0  0  0  0  0  0  0  0  0
    1.2650   -0.9987    0.0000 C   0  0  0  0  0  0  0  0  0  0  0  0
    1.7778   -2.4084    0.0000 H   0  0  0  0  0  0  0  0  0  0  0  0
   -0.2122   -0.7384    0.0000 H   0  0  0  0  0  0  0  0  0  0  0  0
    1.2650    0.5113    0.0000 C   0  0  1  0  0  0  0  0  0  0  0  0
    2.5618   -0.2427    0.0000 H   0  0  0  0  0  0  0  0  0  0  0  0
   -3.9339   -0.9985    0.0000 O   0  0  0  0  0  0  0  0  0  0  0  0
   -5.2330   -1.7483    0.0000 H   0  0  0  0  0  0  0  0  0  0  0  0
  1  2  1  0  0  0  0 
  1  3  1  0  0  0  0 
  1  4  1  0  0  0  0 
  1  5  1  0  0  0  0 
  5  6  1  0  0  0  0 
  6  7  1  0  0  0  0 
  6  8  1  0  0  0  0 
  6  9  1  0  0  0  0 
  9 10  1  0  0  0  0 
  9 11  1  0  0  0  0 
  9 12  1  0  0  0  0 
 12 13  2  0  0  0  0 
 13 14  1  0  0  0  0 
 14 15  2  0  0  0  0 
 15 16  1  0  0  0  0 
 15 17  1  0  0  0  0 
 17 18  1  0  0  0  0 
 17 19  2  0  0  0  0 
 12 19  1  0  0  0  0 
 19 20  1  0  0  0  0 
 14 21  1  0  0  0  0 
 21 22  2  0  0  0  0 
 22 23  1  0  0  0  0 
 23 24  1  0  0  0  0 
 23 25  2  0  0  0  0 
 25 26  1  0  0  0  0 
 25 27  1  0  0  0  0 
 27 28  1  0  0  0  0 
 27 29  2  0  0  0  0 
 21 29  1  0  0  0  0 
 29 30  1  0  0  0  0 
 30 31  1  0  0  0  0 
 30 32  1  0  0  0  0 
 30 33  1  0  0  0  0 
 13 33  1  0  0  0  0 
  5 33  1  0  0  0  0 
 33 34  1  1  0  0  0 
 22 35  1  0  0  0  0 
 35 36  1  0  0  0  0 
M  END
> <Rank>
17

> <Priority_score>
0.316

> <Reaction_type>
aromatic_dehydroxylation

> <Parent_ID>
34

> <Parent_InChI>
InChI=1S/C17H17NO2/c1-18-8-7-10-3-2-4-12-15(10)13(18)9-11-5-6-14(19)17(20)16(11)12/h2-6,13,19-20H,7-9H2,1H3

> <Parent_SMILES>
CN1CCc2cccc3c2[C@H]1Cc1ccc(O)c(O)c1-3

$$$$
Molecule 34_metabolite 18
  CDK     0516241031

 38 41  0  0  0  0  0  0  0  0999 V2000
    4.2767    0.2560    0.0000 C   0  0  0  0  0  0  0  0  0  0  0  0
    4.2722   -1.2440    0.0000 H   0  0  0  0  0  0  0  0  0  0  0  0
    4.7941    1.6640    0.0000 H   0  0  0  0  0  0  0  0  0  0  0  0
    5.7531   -0.0090    0.0000 H   0  0  0  0  0  0  0  0  0  0  0  0
    2.5650    1.2513    0.0000 N   0  0  0  0  0  0  0  0  0  0  0  0
    2.5650    2.7613    0.0000 C   0  0  0  0  0  0  0  0  0  0  0  0
    4.0423    2.5010    0.0000 H   0  0  0  0  0  0  0  0  0  0  0  0
    3.0778    4.1709    0.0000 H   0  0  0  0  0  0  0  0  0  0  0  0
    1.2650    3.5113    0.0000 C   0  0  0  0  0  0  0  0  0  0  0  0
    2.2291    4.6604    0.0000 H   0  0  0  0  0  0  0  0  0  0  0  0
    0.3010    4.6604    0.0000 H   0  0  0  0  0  0  0  0  0  0  0  0
   -0.0350    2.7613    0.0000 C   0  0  0  0  0  0  0  0  0  0  0  0
   -1.3350    3.5113    0.0000 C   0  0  0  0  0  0  0  0  0  0  0  0
   -1.3350    5.0113    0.0000 H   0  0  0  0  0  0  0  0  0  0  0  0
   -2.6350    2.7613    0.0000 C   0  0  0  0  0  0  0  0  0  0  0  0
   -3.9339    3.5115    0.0000 H   0  0  0  0  0  0  0  0  0  0  0  0
   -2.6350    1.2513    0.0000 C   0  0  0  0  0  0  0  0  0  0  0  0
   -1.3350    0.5113    0.0000 C   0  0  0  0  0  0  0  0  0  0  0  0
   -0.0350    1.2513    0.0000 C   0  0  0  0  0  0  0  0  0  0  0  0
    1.2650    0.5113    0.0000 C   0  0  1  0  0  0  0  0  0  0  0  0
   -0.0317   -0.2427    0.0000 H   0  0  0  0  0  0  0  0  0  0  0  0
    1.2650   -0.9987    0.0000 C   0  0  0  0  0  0  0  0  0  0  0  0
    1.7778   -2.4084    0.0000 H   0  0  0  0  0  0  0  0  0  0  0  0
    2.7423   -0.7384    0.0000 H   0  0  0  0  0  0  0  0  0  0  0  0
   -0.0350   -1.7487    0.0000 C   0  0  0  0  0  0  0  0  0  0  0  0
   -0.0350   -3.2387    0.0000 C   0  0  0  0  0  0  0  0  0  0  0  0
    1.2661   -3.9852    0.0000 H   0  0  0  0  0  0  0  0  0  0  0  0
   -1.3350   -3.9987    0.0000 C   0  0  0  0  0  0  0  0  0  0  0  0
   -1.3350   -5.4987    0.0000 H   0  0  0  0  0  0  0  0  0  0  0  0
   -2.6350   -3.2387    0.0000 C   0  0  0  0  0  0  0  0  0  0  0  0
   -2.6350   -1.7487    0.0000 C   0  0  0  0  0  0  0  0  0  0  0  0
   -1.3350   -0.9987    0.0000 C   0  0  0  0  0  0  0  0  0  0  0  0
   -3.9339   -0.9985    0.0000 O   0  0  0  0  0  0  0  0  0  0  0  0
   -5.2330   -1.7483    0.0000 H   0  0  0  0  0  0  0  0  0  0  0  0
   -3.9360   -3.9852    0.0000 O   0  0  0  0  0  0  0  0  0  0  0  0
   -3.9401   -5.4852    0.0000 H   0  0  0  0  0  0  0  0  0  0  0  0
   -3.9317    0.4973    0.0000 O   0  0  0  0  0  0  0  0  0  0  0  0
   -5.2330    1.2433    0.0000 H   0  0  0  0  0  0  0  0  0  0  0  0
  1  2  1  0  0  0  0 
  1  3  1  0  0  0  0 
  1  4  1  0  0  0  0 
  1  5  1  0  0  0  0 
  5  6  1  0  0  0  0 
  6  7  1  0  0  0  0 
  6  8  1  0  0  0  0 
  6  9  1  0  0  0  0 
  9 10  1  0  0  0  0 
  9 11  1  0  0  0  0 
  9 12  1  0  0  0  0 
 12 13  2  0  0  0  0 
 13 14  1  0  0  0  0 
 13 15  1  0  0  0  0 
 15 16  1  0  0  0  0 
 15 17  2  0  0  0  0 
 17 18  1  0  0  0  0 
 18 19  2  0  0  0  0 
 12 19  1  0  0  0  0 
 19 20  1  0  0  0  0 
  5 20  1  0  0  0  0 
 20 21  1  1  0  0  0 
 20 22  1  0  0  0  0 
 22 23  1  0  0  0  0 
 22 24  1  0  0  0  0 
 22 25  1  0  0  0  0 
 25 26  2  0  0  0  0 
 26 27  1  0  0  0  0 
 26 28  1  0  0  0  0 
 28 29  1  0  0  0  0 
 28 30  2  0  0  0  0 
 30 31  1  0  0  0  0 
 31 32  2  0  0  0  0 
 25 32  1  0  0  0  0 
 18 32  1  0  0  0  0 
 31 33  1  0  0  0  0 
 33 34  1  0  0  0  0 
 30 35  1  0  0  0  0 
 35 36  1  0  0  0  0 
 17 37  1  0  0  0  0 
 37 38  1  0  0  0  0 
M  END
> <Rank>
18

> <Priority_score>
0.30281005234870856

> <Reaction_type>
aromatic_hydroxylation_(para_to_carbon)

> <Parent_ID>
34

> <Parent_InChI>
InChI=1S/C17H17NO2/c1-18-8-7-10-3-2-4-12-15(10)13(18)9-11-5-6-14(19)17(20)16(11)12/h2-6,13,19-20H,7-9H2,1H3

> <Parent_SMILES>
CN1CCc2cccc3c2[C@H]1Cc1ccc(O)c(O)c1-3

$$$$
Molecule 34_metabolite 19
  CDK     0516241031

 38 41  0  0  0  0  0  0  0  0999 V2000
    3.4498    1.6986    0.0000 C   0  0  0  0  0  0  0  0  0  0  0  0
    3.4452    0.1986    0.0000 H   0  0  0  0  0  0  0  0  0  0  0  0
    3.9671    3.1065    0.0000 H   0  0  0  0  0  0  0  0  0  0  0  0
    4.9262    1.4336    0.0000 H   0  0  0  0  0  0  0  0  0  0  0  0
    1.7381    2.6938    0.0000 N   0  0  0  0  0  0  0  0  0  0  0  0
    1.7381    4.2038    0.0000 C   0  0  0  0  0  0  0  0  0  0  0  0
    3.2153    3.9435    0.0000 H   0  0  0  0  0  0  0  0  0  0  0  0
    2.2508    5.6135    0.0000 H   0  0  0  0  0  0  0  0  0  0  0  0
    0.4381    4.9538    0.0000 C   0  0  0  0  0  0  0  0  0  0  0  0
    1.4021    6.1030    0.0000 H   0  0  0  0  0  0  0  0  0  0  0  0
   -0.5260    6.1030    0.0000 H   0  0  0  0  0  0  0  0  0  0  0  0
   -0.8619    4.2038    0.0000 C   0  0  0  0  0  0  0  0  0  0  0  0
   -2.1619    4.9538    0.0000 C   0  0  0  0  0  0  0  0  0  0  0  0
   -2.1619    6.4538    0.0000 H   0  0  0  0  0  0  0  0  0  0  0  0
   -3.4619    4.2038    0.0000 C   0  0  0  0  0  0  0  0  0  0  0  0
   -4.7609    4.9540    0.0000 H   0  0  0  0  0  0  0  0  0  0  0  0
   -3.4619    2.6938    0.0000 C   0  0  0  0  0  0  0  0  0  0  0  0
   -4.7587    1.9398    0.0000 H   0  0  0  0  0  0  0  0  0  0  0  0
   -2.1619    1.9538    0.0000 C   0  0  0  0  0  0  0  0  0  0  0  0
   -0.8619    2.6938    0.0000 C   0  0  0  0  0  0  0  0  0  0  0  0
    0.4381    1.9538    0.0000 C   0  0  1  0  0  0  0  0  0  0  0  0
    0.4381    0.4438    0.0000 C   0  0  0  0  0  0  0  0  0  0  0  0
    0.9508   -0.9658    0.0000 H   0  0  0  0  0  0  0  0  0  0  0  0
    1.8475   -0.0694    0.0000 H   0  0  0  0  0  0  0  0  0  0  0  0
   -0.8619   -0.3062    0.0000 C   0  0  0  0  0  0  0  0  0  0  0  0
   -0.8619   -1.7962    0.0000 C   0  0  0  0  0  0  0  0  0  0  0  0
    0.4391   -2.5427    0.0000 H   0  0  0  0  0  0  0  0  0  0  0  0
   -2.1619   -2.5562    0.0000 C   0  0  0  0  0  0  0  0  0  0  0  0
   -2.1619   -4.0562    0.0000 H   0  0  0  0  0  0  0  0  0  0  0  0
   -3.4619   -1.7962    0.0000 C   0  0  0  0  0  0  0  0  0  0  0  0
   -3.4619   -0.3062    0.0000 C   0  0  0  0  0  0  0  0  0  0  0  0
   -2.1619    0.4438    0.0000 C   0  0  0  0  0  0  0  0  0  0  0  0
   -4.7609    0.4440    0.0000 O   0  0  0  0  0  0  0  0  0  0  0  0
   -6.0600   -0.3058    0.0000 H   0  0  0  0  0  0  0  0  0  0  0  0
   -4.7630   -2.5427    0.0000 O   0  0  0  0  0  0  0  0  0  0  0  0
   -4.7671   -4.0427    0.0000 H   0  0  0  0  0  0  0  0  0  0  0  0
    2.5647    0.7173    0.0000 O   0  0  0  0  0  0  0  0  0  0  0  0
    2.5572   -1.7427    0.0000 H   0  0  0  0  0  0  0  0  0  0  0  0
  1  2  1  0  0  0  0 
  1  3  1  0  0  0  0 
  1  4  1  0  0  0  0 
  1  5  1  0  0  0  0 
  5  6  1  0  0  0  0 
  6  7  1  0  0  0  0 
  6  8  1  0  0  0  0 
  6  9  1  0  0  0  0 
  9 10  1  0  0  0  0 
  9 11  1  0  0  0  0 
  9 12  1  0  0  0  0 
 12 13  2  0  0  0  0 
 13 14  1  0  0  0  0 
 13 15  1  0  0  0  0 
 15 16  1  0  0  0  0 
 15 17  2  0  0  0  0 
 17 18  1  0  0  0  0 
 17 19  1  0  0  0  0 
 19 20  2  0  0  0  0 
 12 20  1  0  0  0  0 
 20 21  1  0  0  0  0 
  5 21  1  0  0  0  0 
 21 22  1  0  0  0  0 
 22 23  1  0  0  0  0 
 22 24  1  0  0  0  0 
 22 25  1  0  0  0  0 
 25 26  2  0  0  0  0 
 26 27  1  0  0  0  0 
 26 28  1  0  0  0  0 
 28 29  1  0  0  0  0 
 28 30  2  0  0  0  0 
 30 31  1  0  0  0  0 
 31 32  2  0  0  0  0 
 25 32  1  0  0  0  0 
 19 32  1  0  0  0  0 
 31 33  1  0  0  0  0 
 33 34  1  0  0  0  0 
 30 35  1  0  0  0  0 
 35 36  1  0  0  0  0 
 21 37  1  1  0  0  0 
 37 38  1  0  0  0  0 
M  END
> <Rank>
19

> <Priority_score>
0.268

> <Reaction_type>
aliphatic hydroxylation

> <Parent_ID>
34

> <Parent_InChI>
InChI=1S/C17H17NO2/c1-18-8-7-10-3-2-4-12-15(10)13(18)9-11-5-6-14(19)17(20)16(11)12/h2-6,13,19-20H,7-9H2,1H3

> <Parent_SMILES>
CN1CCc2cccc3c2[C@H]1Cc1ccc(O)c(O)c1-3

$$$$
Molecule 34_metabolite 20
  CDK     0516241031

 38 41  0  0  0  0  0  0  0  0999 V2000
    4.2767    0.2560    0.0000 C   0  0  0  0  0  0  0  0  0  0  0  0
    4.2722   -1.2440    0.0000 H   0  0  0  0  0  0  0  0  0  0  0  0
    4.7941    1.6640    0.0000 H   0  0  0  0  0  0  0  0  0  0  0  0
    5.7531   -0.0090    0.0000 H   0  0  0  0  0  0  0  0  0  0  0  0
    2.5650    1.2513    0.0000 N   0  0  0  0  0  0  0  0  0  0  0  0
    2.5650    2.7613    0.0000 C   0  0  0  0  0  0  0  0  0  0  0  0
    4.0423    2.5010    0.0000 H   0  0  0  0  0  0  0  0  0  0  0  0
    3.0778    4.1709    0.0000 H   0  0  0  0  0  0  0  0  0  0  0  0
    1.2650    3.5113    0.0000 C   0  0  0  0  0  0  0  0  0  0  0  0
    2.2291    4.6604    0.0000 H   0  0  0  0  0  0  0  0  0  0  0  0
    0.3010    4.6604    0.0000 H   0  0  0  0  0  0  0  0  0  0  0  0
   -0.0350    2.7613    0.0000 C   0  0  0  0  0  0  0  0  0  0  0  0
   -0.0350    1.2513    0.0000 C   0  0  0  0  0  0  0  0  0  0  0  0
   -1.3350    0.5113    0.0000 C   0  0  0  0  0  0  0  0  0  0  0  0
   -2.6350    1.2513    0.0000 C   0  0  0  0  0  0  0  0  0  0  0  0
   -3.9317    0.4973    0.0000 H   0  0  0  0  0  0  0  0  0  0  0  0
   -2.6350    2.7613    0.0000 C   0  0  0  0  0  0  0  0  0  0  0  0
   -3.9339    3.5115    0.0000 H   0  0  0  0  0  0  0  0  0  0  0  0
   -1.3350    3.5113    0.0000 C   0  0  0  0  0  0  0  0  0  0  0  0
   -1.3350    5.0113    0.0000 H   0  0  0  0  0  0  0  0  0  0  0  0
   -1.3350   -0.9987    0.0000 C   0  0  0  0  0  0  0  0  0  0  0  0
   -2.6350   -1.7487    0.0000 C   0  0  0  0  0  0  0  0  0  0  0  0
   -2.6350   -3.2387    0.0000 C   0  0  0  0  0  0  0  0  0  0  0  0
   -1.3350   -3.9987    0.0000 C   0  0  0  0  0  0  0  0  0  0  0  0
   -1.3350   -5.4987    0.0000 H   0  0  0  0  0  0  0  0  0  0  0  0
   -0.0350   -3.2387    0.0000 C   0  0  0  0  0  0  0  0  0  0  0  0
    1.2661   -3.9852    0.0000 H   0  0  0  0  0  0  0  0  0  0  0  0
   -0.0350   -1.7487    0.0000 C   0  0  0  0  0  0  0  0  0  0  0  0
    1.2650   -0.9987    0.0000 C   0  0  0  0  0  0  0  0  0  0  0  0
    1.7778   -2.4084    0.0000 H   0  0  0  0  0  0  0  0  0  0  0  0
    1.2650    0.5113    0.0000 C   0  0  1  0  0  0  0  0  0  0  0  0
    2.5618   -0.2427    0.0000 H   0  0  0  0  0  0  0  0  0  0  0  0
    2.7650   -0.9989    0.0000 O   0  0  0  0  0  0  0  0  0  0  0  0
    3.5149   -2.2980    0.0000 H   0  0  0  0  0  0  0  0  0  0  0  0
   -3.9360   -3.9852    0.0000 O   0  0  0  0  0  0  0  0  0  0  0  0
   -3.9401   -5.4852    0.0000 H   0  0  0  0  0  0  0  0  0  0  0  0
   -3.9339   -0.9985    0.0000 O   0  0  0  0  0  0  0  0  0  0  0  0
   -5.2330   -1.7483    0.0000 H   0  0  0  0  0  0  0  0  0  0  0  0
  1  2  1  0  0  0  0 
  1  3  1  0  0  0  0 
  1  4  1  0  0  0  0 
  1  5  1  0  0  0  0 
  5  6  1  0  0  0  0 
  6  7  1  0  0  0  0 
  6  8  1  0  0  0  0 
  6  9  1  0  0  0  0 
  9 10  1  0  0  0  0 
  9 11  1  0  0  0  0 
  9 12  1  0  0  0  0 
 12 13  2  0  0  0  0 
 13 14  1  0  0  0  0 
 14 15  2  0  0  0  0 
 15 16  1  0  0  0  0 
 15 17  1  0  0  0  0 
 17 18  1  0  0  0  0 
 17 19  2  0  0  0  0 
 12 19  1  0  0  0  0 
 19 20  1  0  0  0  0 
 14 21  1  0  0  0  0 
 21 22  2  0  0  0  0 
 22 23  1  0  0  0  0 
 23 24  2  0  0  0  0 
 24 25  1  0  0  0  0 
 24 26  1  0  0  0  0 
 26 27  1  0  0  0  0 
 26 28  2  0  0  0  0 
 21 28  1  0  0  0  0 
 28 29  1  0  0  0  0 
 29 30  1  0  0  0  0 
 29 31  1  0  0  0  0 
 13 31  1  0  0  0  0 
  5 31  1  0  0  0  0 
 31 32  1  1  0  0  0 
 29 33  1  0  0  0  0 
 33 34  1  0  0  0  0 
 23 35  1  0  0  0  0 
 35 36  1  0  0  0  0 
 22 37  1  0  0  0  0 
 37 38  1  0  0  0  0 
M  END
> <Rank>
19

> <Priority_score>
0.268

> <Reaction_type>
benzylic_hydroxylation_(c-CH2-CR)

> <Parent_ID>
34

> <Parent_InChI>
InChI=1S/C17H17NO2/c1-18-8-7-10-3-2-4-12-15(10)13(18)9-11-5-6-14(19)17(20)16(11)12/h2-6,13,19-20H,7-9H2,1H3

> <Parent_SMILES>
CN1CCc2cccc3c2[C@H]1Cc1ccc(O)c(O)c1-3

$$$$
Molecule 34_metabolite 21
  CDK     0516241031

 38 41  0  0  0  0  0  0  0  0999 V2000
    4.2767    0.2560    0.0000 C   0  0  0  0  0  0  0  0  0  0  0  0
    4.2722   -1.2440    0.0000 H   0  0  0  0  0  0  0  0  0  0  0  0
    4.7941    1.6640    0.0000 H   0  0  0  0  0  0  0  0  0  0  0  0
    5.7531   -0.0090    0.0000 H   0  0  0  0  0  0  0  0  0  0  0  0
    2.5650    1.2513    0.0000 N   0  0  0  0  0  0  0  0  0  0  0  0
    2.5650    2.7613    0.0000 C   0  0  0  0  0  0  0  0  0  0  0  0
    4.0423    2.5010    0.0000 H   0  0  0  0  0  0  0  0  0  0  0  0
    3.0778    4.1709    0.0000 H   0  0  0  0  0  0  0  0  0  0  0  0
    1.2650    3.5113    0.0000 C   0  0  0  0  0  0  0  0  0  0  0  0
    2.2291    4.6604    0.0000 H   0  0  0  0  0  0  0  0  0  0  0  0
    0.3010    4.6604    0.0000 H   0  0  0  0  0  0  0  0  0  0  0  0
   -0.0350    2.7613    0.0000 C   0  0  0  0  0  0  0  0  0  0  0  0
   -0.0350    1.2513    0.0000 C   0  0  0  0  0  0  0  0  0  0  0  0
   -1.3350    0.5113    0.0000 C   0  0  0  0  0  0  0  0  0  0  0  0
   -2.6350    1.2513    0.0000 C   0  0  0  0  0  0  0  0  0  0  0  0
   -3.9317    0.4973    0.0000 H   0  0  0  0  0  0  0  0  0  0  0  0
   -2.6350    2.7613    0.0000 C   0  0  0  0  0  0  0  0  0  0  0  0
   -1.3350    3.5113    0.0000 C   0  0  0  0  0  0  0  0  0  0  0  0
   -1.3350    5.0113    0.0000 H   0  0  0  0  0  0  0  0  0  0  0  0
   -3.9339    3.5115    0.0000 O   0  0  0  0  0  0  0  0  0  0  0  0
   -3.9336    5.0115    0.0000 H   0  0  0  0  0  0  0  0  0  0  0  0
   -1.3350   -0.9987    0.0000 C   0  0  0  0  0  0  0  0  0  0  0  0
   -2.6350   -1.7487    0.0000 C   0  0  0  0  0  0  0  0  0  0  0  0
   -2.6350   -3.2387    0.0000 C   0  0  0  0  0  0  0  0  0  0  0  0
   -1.3350   -3.9987    0.0000 C   0  0  0  0  0  0  0  0  0  0  0  0
   -1.3350   -5.4987    0.0000 H   0  0  0  0  0  0  0  0  0  0  0  0
   -0.0350   -3.2387    0.0000 C   0  0  0  0  0  0  0  0  0  0  0  0
    1.2661   -3.9852    0.0000 H   0  0  0  0  0  0  0  0  0  0  0  0
   -0.0350   -1.7487    0.0000 C   0  0  0  0  0  0  0  0  0  0  0  0
    1.2650   -0.9987    0.0000 C   0  0  0  0  0  0  0  0  0  0  0  0
    1.7778   -2.4084    0.0000 H   0  0  0  0  0  0  0  0  0  0  0  0
   -0.2122   -0.7384    0.0000 H   0  0  0  0  0  0  0  0  0  0  0  0
    1.2650    0.5113    0.0000 C   0  0  1  0  0  0  0  0  0  0  0  0
    2.5618   -0.2427    0.0000 H   0  0  0  0  0  0  0  0  0  0  0  0
   -3.9360   -3.9852    0.0000 O   0  0  0  0  0  0  0  0  0  0  0  0
   -3.9401   -5.4852    0.0000 H   0  0  0  0  0  0  0  0  0  0  0  0
   -3.9339   -0.9985    0.0000 O   0  0  0  0  0  0  0  0  0  0  0  0
   -5.2330   -1.7483    0.0000 H   0  0  0  0  0  0  0  0  0  0  0  0
  1  2  1  0  0  0  0 
  1  3  1  0  0  0  0 
  1  4  1  0  0  0  0 
  1  5  1  0  0  0  0 
  5  6  1  0  0  0  0 
  6  7  1  0  0  0  0 
  6  8  1  0  0  0  0 
  6  9  1  0  0  0  0 
  9 10  1  0  0  0  0 
  9 11  1  0  0  0  0 
  9 12  1  0  0  0  0 
 12 13  2  0  0  0  0 
 13 14  1  0  0  0  0 
 14 15  2  0  0  0  0 
 15 16  1  0  0  0  0 
 15 17  1  0  0  0  0 
 17 18  2  0  0  0  0 
 12 18  1  0  0  0  0 
 18 19  1  0  0  0  0 
 17 20  1  0  0  0  0 
 20 21  1  0  0  0  0 
 14 22  1  0  0  0  0 
 22 23  2  0  0  0  0 
 23 24  1  0  0  0  0 
 24 25  2  0  0  0  0 
 25 26  1  0  0  0  0 
 25 27  1  0  0  0  0 
 27 28  1  0  0  0  0 
 27 29  2  0  0  0  0 
 22 29  1  0  0  0  0 
 29 30  1  0  0  0  0 
 30 31  1  0  0  0  0 
 30 32  1  0  0  0  0 
 30 33  1  0  0  0  0 
 13 33  1  0  0  0  0 
  5 33  1  0  0  0  0 
 33 34  1  1  0  0  0 
 24 35  1  0  0  0  0 
 35 36  1  0  0  0  0 
 23 37  1  0  0  0  0 
 37 38  1  0  0  0  0 
M  END
> <Rank>
19

> <Priority_score>
0.268

> <Reaction_type>
aromatic_hydroxylation_(para_to_carbon)

> <Parent_ID>
34

> <Parent_InChI>
InChI=1S/C17H17NO2/c1-18-8-7-10-3-2-4-12-15(10)13(18)9-11-5-6-14(19)17(20)16(11)12/h2-6,13,19-20H,7-9H2,1H3

> <Parent_SMILES>
CN1CCc2cccc3c2[C@H]1Cc1ccc(O)c(O)c1-3

$$$$
Molecule 34_metabolite 22
  CDK     0516241031

 58 62  0  0  0  0  0  0  0  0999 V2000
    2.1637   -0.0246    0.0000 C   0  0  0  0  0  0  0  0  0  0  0  0
    1.1948   -1.1697    0.0000 H   0  0  0  0  0  0  0  0  0  0  0  0
    4.2991    1.1967    0.0000 H   0  0  0  0  0  0  0  0  0  0  0  0
    3.1231   -1.1776    0.0000 H   0  0  0  0  0  0  0  0  0  0  0  0
    1.6564    1.3870    0.0000 N   0  0  0  0  0  0  0  0  0  0  0  0
    1.6564    2.8970    0.0000 C   0  0  0  0  0  0  0  0  0  0  0  0
    2.9555    2.1472    0.0000 H   0  0  0  0  0  0  0  0  0  0  0  0
    2.1691    4.3067    0.0000 H   0  0  0  0  0  0  0  0  0  0  0  0
    0.3564    3.6470    0.0000 C   0  0  0  0  0  0  0  0  0  0  0  0
    1.3204    4.7962    0.0000 H   0  0  0  0  0  0  0  0  0  0  0  0
   -0.6077    4.7962    0.0000 H   0  0  0  0  0  0  0  0  0  0  0  0
   -0.9436    2.8970    0.0000 C   0  0  0  0  0  0  0  0  0  0  0  0
   -0.9436    1.3870    0.0000 C   0  0  0  0  0  0  0  0  0  0  0  0
   -2.2436    0.6470    0.0000 C   0  0  0  0  0  0  0  0  0  0  0  0
   -3.5436    1.3870    0.0000 C   0  0  0  0  0  0  0  0  0  0  0  0
   -4.8404    0.6331    0.0000 H   0  0  0  0  0  0  0  0  0  0  0  0
   -3.5436    2.8970    0.0000 C   0  0  0  0  0  0  0  0  0  0  0  0
   -4.8426    3.6473    0.0000 H   0  0  0  0  0  0  0  0  0  0  0  0
   -2.2436    3.6470    0.0000 C   0  0  0  0  0  0  0  0  0  0  0  0
   -2.2436    5.1470    0.0000 H   0  0  0  0  0  0  0  0  0  0  0  0
   -2.2436   -0.8630    0.0000 C   0  0  0  0  0  0  0  0  0  0  0  0
   -3.5436   -1.6130    0.0000 C   0  0  0  0  0  0  0  0  0  0  0  0
   -3.5436   -3.1030    0.0000 C   0  0  0  0  0  0  0  0  0  0  0  0
   -2.2436   -3.8630    0.0000 C   0  0  0  0  0  0  0  0  0  0  0  0
   -2.2436   -5.3630    0.0000 H   0  0  0  0  0  0  0  0  0  0  0  0
   -0.9436   -3.1030    0.0000 C   0  0  0  0  0  0  0  0  0  0  0  0
    0.3574   -3.8494    0.0000 H   0  0  0  0  0  0  0  0  0  0  0  0
   -0.9436   -1.6130    0.0000 C   0  0  0  0  0  0  0  0  0  0  0  0
    0.3564   -0.8630    0.0000 C   0  0  0  0  0  0  0  0  0  0  0  0
    0.8691   -2.2726    0.0000 H   0  0  0  0  0  0  0  0  0  0  0  0
   -1.1209   -0.6026    0.0000 H   0  0  0  0  0  0  0  0  0  0  0  0
    0.3564    0.6470    0.0000 C   0  0  1  0  0  0  0  0  0  0  0  0
    1.6531   -0.1069    0.0000 H   0  0  0  0  0  0  0  0  0  0  0  0
   -4.8447   -3.8494    0.0000 O   0  0  0  0  0  0  0  0  0  0  0  0
   -4.8488   -5.3494    0.0000 H   0  0  0  0  0  0  0  0  0  0  0  0
   -4.8426   -0.8627    0.0000 O   0  0  0  0  0  0  0  0  0  0  0  0
   -6.1417   -1.6125    0.0000 H   0  0  0  0  0  0  0  0  0  0  0  0
    4.5527    1.8917    0.0000 C   0  0  0  0  0  0  0  0  0  0  0  0
    4.0427    3.3023    0.0000 H   0  0  0  0  0  0  0  0  0  0  0  0
    5.8535    2.6387    0.0000 C   0  0  0  0  0  0  0  0  0  0  0  0
    4.8920    3.7901    0.0000 H   0  0  0  0  0  0  0  0  0  0  0  0
    7.1513    1.8850    0.0000 C   0  0  0  0  0  0  0  0  0  0  0  0
    7.6676    3.2933    0.0000 H   0  0  0  0  0  0  0  0  0  0  0  0
    7.1484    0.3842    0.0000 C   0  0  0  0  0  0  0  0  0  0  0  0
    8.6261    0.6416    0.0000 H   0  0  0  0  0  0  0  0  0  0  0  0
    5.8477   -0.3629    0.0000 C   0  0  0  0  0  0  0  0  0  0  0  0
    6.8091   -1.5142    0.0000 H   0  0  0  0  0  0  0  0  0  0  0  0
    3.9523   -2.6104    0.0000 C   0  0  0  0  0  0  0  0  0  0  0  0
    2.4758   -2.3463    0.0000 O   0  0  0  0  0  0  0  0  0  0  0  0
    4.4619   -4.0212    0.0000 O   0  0  0  0  0  0  0  0  0  0  0  0
    5.9384   -4.2853    0.0000 H   0  0  0  0  0  0  0  0  0  0  0  0
    4.5498    0.3908    0.0000 O   0  0  0  0  0  0  0  0  0  0  0  0
    7.6584   -1.0265    0.0000 O   0  0  0  0  0  0  0  0  0  0  0  0
    9.1350   -1.2901    0.0000 H   0  0  0  0  0  0  0  0  0  0  0  0
    8.6279    1.6214    0.0000 O   0  0  0  0  0  0  0  0  0  0  0  0
    9.5946    2.7684    0.0000 H   0  0  0  0  0  0  0  0  0  0  0  0
    6.8205    3.7854    0.0000 O   0  0  0  0  0  0  0  0  0  0  0  0
    6.3109    5.1962    0.0000 H   0  0  0  0  0  0  0  0  0  0  0  0
  1  2  1  0  0  0  0 
  1  3  1  0  0  0  0 
  1  4  1  0  0  0  0 
  1  5  1  0  0  0  0 
  5  6  1  0  0  0  0 
  6  7  1  0  0  0  0 
  6  8  1  0  0  0  0 
  6  9  1  0  0  0  0 
  9 10  1  0  0  0  0 
  9 11  1  0  0  0  0 
  9 12  1  0  0  0  0 
 12 13  2  0  0  0  0 
 13 14  1  0  0  0  0 
 14 15  2  0  0  0  0 
 15 16  1  0  0  0  0 
 15 17  1  0  0  0  0 
 17 18  1  0  0  0  0 
 17 19  2  0  0  0  0 
 12 19  1  0  0  0  0 
 19 20  1  0  0  0  0 
 14 21  1  0  0  0  0 
 21 22  2  0  0  0  0 
 22 23  1  0  0  0  0 
 23 24  2  0  0  0  0 
 24 25  1  0  0  0  0 
 24 26  1  0  0  0  0 
 26 27  1  0  0  0  0 
 26 28  2  0  0  0  0 
 21 28  1  0  0  0  0 
 28 29  1  0  0  0  0 
 29 30  1  0  0  0  0 
 29 31  1  0  0  0  0 
 29 32  1  0  0  0  0 
 13 32  1  0  0  0  0 
  5 32  1  0  0  0  0 
 32 33  1  1  0  0  0 
 23 34  1  0  0  0  0 
 34 35  1  0  0  0  0 
 22 36  1  0  0  0  0 
 36 37  1  0  0  0  0 
  5 38  1  0  0  0  0 
 38 39  1  0  0  0  0 
 38 40  1  0  0  0  0 
 40 41  1  0  0  0  0 
 40 42  1  0  0  0  0 
 42 43  1  0  0  0  0 
 42 44  1  0  0  0  0 
 44 45  1  0  0  0  0 
 44 46  1  0  0  0  0 
 46 47  1  0  0  0  0 
 46 48  1  0  0  0  0 
 48 49  2  0  0  0  0 
 48 50  1  0  0  0  0 
 50 51  1  0  0  0  0 
 46 52  1  0  0  0  0 
 38 52  1  0  0  0  0 
 44 53  1  0  0  0  0 
 53 54  1  0  0  0  0 
 42 55  1  0  0  0  0 
 55 56  1  0  0  0  0 
 40 57  1  0  0  0  0 
 57 58  1  0  0  0  0 
M  CHG  1   5   1
M  END
> <Rank>
22

> <Priority_score>
0.216

> <Reaction_type>
N-glucuronidation_(NCH3_in_a_ring)

> <Parent_ID>
34

> <Parent_InChI>
InChI=1S/C17H17NO2/c1-18-8-7-10-3-2-4-12-15(10)13(18)9-11-5-6-14(19)17(20)16(11)12/h2-6,13,19-20H,7-9H2,1H3

> <Parent_SMILES>
CN1CCc2cccc3c2[C@H]1Cc1ccc(O)c(O)c1-3

$$$$
Molecule 34_metabolite 23
  CDK     0516241031

 36 39  0  0  0  0  0  0  0  0999 V2000
    4.2767    0.2560    0.0000 C   0  0  0  0  0  0  0  0  0  0  0  0
    5.5781    1.0021    0.0000 H   0  0  0  0  0  0  0  0  0  0  0  0
    4.2722   -1.2440    0.0000 H   0  0  0  0  0  0  0  0  0  0  0  0
    2.9800    1.0100    0.0000 N   0  0  0  0  0  0  0  0  0  0  0  0
    2.9800    2.5200    0.0000 C   0  0  0  0  0  0  0  0  0  0  0  0
    4.4572    2.2597    0.0000 H   0  0  0  0  0  0  0  0  0  0  0  0
    3.4927    3.9296    0.0000 H   0  0  0  0  0  0  0  0  0  0  0  0
    1.6800    3.2700    0.0000 C   0  0  0  0  0  0  0  0  0  0  0  0
    2.6441    4.4192    0.0000 H   0  0  0  0  0  0  0  0  0  0  0  0
    0.7159    4.4192    0.0000 H   0  0  0  0  0  0  0  0  0  0  0  0
    0.3800    2.5200    0.0000 C   0  0  0  0  0  0  0  0  0  0  0  0
    0.3800    1.0100    0.0000 C   0  0  0  0  0  0  0  0  0  0  0  0
   -0.9200    0.2700    0.0000 C   0  0  0  0  0  0  0  0  0  0  0  0
   -2.2200    1.0100    0.0000 C   0  0  0  0  0  0  0  0  0  0  0  0
   -3.5167    0.2560    0.0000 H   0  0  0  0  0  0  0  0  0  0  0  0
   -2.2200    2.5200    0.0000 C   0  0  0  0  0  0  0  0  0  0  0  0
   -3.5189    3.2702    0.0000 H   0  0  0  0  0  0  0  0  0  0  0  0
   -0.9200    3.2700    0.0000 C   0  0  0  0  0  0  0  0  0  0  0  0
   -0.9200    4.7700    0.0000 H   0  0  0  0  0  0  0  0  0  0  0  0
   -0.9200   -1.2400    0.0000 C   0  0  0  0  0  0  0  0  0  0  0  0
   -2.2200   -1.9900    0.0000 C   0  0  0  0  0  0  0  0  0  0  0  0
   -2.2200   -3.4800    0.0000 C   0  0  0  0  0  0  0  0  0  0  0  0
   -0.9200   -4.2400    0.0000 C   0  0  0  0  0  0  0  0  0  0  0  0
   -0.9200   -5.7400    0.0000 H   0  0  0  0  0  0  0  0  0  0  0  0
    0.3800   -3.4800    0.0000 C   0  0  0  0  0  0  0  0  0  0  0  0
    1.6811   -4.2265    0.0000 H   0  0  0  0  0  0  0  0  0  0  0  0
    0.3800   -1.9900    0.0000 C   0  0  0  0  0  0  0  0  0  0  0  0
    1.6800   -1.2400    0.0000 C   0  0  0  0  0  0  0  0  0  0  0  0
    2.1927   -2.6496    0.0000 H   0  0  0  0  0  0  0  0  0  0  0  0
    0.2028   -0.9797    0.0000 H   0  0  0  0  0  0  0  0  0  0  0  0
    1.6800    0.2700    0.0000 C   0  0  1  0  0  0  0  0  0  0  0  0
    2.9767   -0.4840    0.0000 H   0  0  0  0  0  0  0  0  0  0  0  0
   -3.5211   -4.2265    0.0000 O   0  0  0  0  0  0  0  0  0  0  0  0
   -3.5251   -5.7265    0.0000 H   0  0  0  0  0  0  0  0  0  0  0  0
   -3.5189   -1.2398    0.0000 O   0  0  0  0  0  0  0  0  0  0  0  0
   -4.8181   -1.9896    0.0000 H   0  0  0  0  0  0  0  0  0  0  0  0
  1  2  1  0  0  0  0 
  1  3  1  0  0  0  0 
  1  4  2  0  0  0  0 
  4  5  1  0  0  0  0 
  5  6  1  0  0  0  0 
  5  7  1  0  0  0  0 
  5  8  1  0  0  0  0 
  8  9  1  0  0  0  0 
  8 10  1  0  0  0  0 
  8 11  1  0  0  0  0 
 11 12  2  0  0  0  0 
 12 13  1  0  0  0  0 
 13 14  2  0  0  0  0 
 14 15  1  0  0  0  0 
 14 16  1  0  0  0  0 
 16 17  1  0  0  0  0 
 16 18  2  0  0  0  0 
 11 18  1  0  0  0  0 
 18 19  1  0  0  0  0 
 13 20  1  0  0  0  0 
 20 21  2  0  0  0  0 
 21 22  1  0  0  0  0 
 22 23  2  0  0  0  0 
 23 24  1  0  0  0  0 
 23 25  1  0  0  0  0 
 25 26  1  0  0  0  0 
 25 27  2  0  0  0  0 
 20 27  1  0  0  0  0 
 27 28  1  0  0  0  0 
 28 29  1  0  0  0  0 
 28 30  1  0  0  0  0 
 28 31  1  0  0  0  0 
 12 31  1  0  0  0  0 
  4 31  1  0  0  0  0 
 31 32  1  1  0  0  0 
 22 33  1  0  0  0  0 
 33 34  1  0  0  0  0 
 21 35  1  0  0  0  0 
 35 36  1  0  0  0  0 
M  CHG  1   4   1
M  END
> <Rank>
23

> <Priority_score>
0.1368689547841346

> <Reaction_type>
dehydration of N-C bond

> <Parent_ID>
34

> <Parent_InChI>
InChI=1S/C17H17NO2/c1-18-8-7-10-3-2-4-12-15(10)13(18)9-11-5-6-14(19)17(20)16(11)12/h2-6,13,19-20H,7-9H2,1H3

> <Parent_SMILES>
CN1CCc2cccc3c2[C@H]1Cc1ccc(O)c(O)c1-3

$$$$
Molecule 34_metabolite 24
  CDK     0516241031

 35 38  0  0  0  0  0  0  0  0999 V2000
    4.2767    0.2560    0.0000 C   0  0  0  0  0  0  0  0  0  0  0  0
    4.2722   -1.2440    0.0000 H   0  0  0  0  0  0  0  0  0  0  0  0
    4.7941    1.6640    0.0000 H   0  0  0  0  0  0  0  0  0  0  0  0
    5.7531   -0.0090    0.0000 H   0  0  0  0  0  0  0  0  0  0  0  0
    2.9800    1.0100    0.0000 N   0  0  0  0  0  0  0  0  0  0  0  0
    2.9800    2.5200    0.0000 C   0  0  0  0  0  0  0  0  0  0  0  0
    4.2789    3.2702    0.0000 H   0  0  0  0  0  0  0  0  0  0  0  0
    1.6800    3.2700    0.0000 C   0  0  0  0  0  0  0  0  0  0  0  0
    1.6800    4.7700    0.0000 H   0  0  0  0  0  0  0  0  0  0  0  0
    0.3800    2.5200    0.0000 C   0  0  0  0  0  0  0  0  0  0  0  0
    0.3800    1.0100    0.0000 C   0  0  0  0  0  0  0  0  0  0  0  0
   -0.9200    0.2700    0.0000 C   0  0  0  0  0  0  0  0  0  0  0  0
   -2.2200    1.0100    0.0000 C   0  0  0  0  0  0  0  0  0  0  0  0
   -3.5167    0.2560    0.0000 H   0  0  0  0  0  0  0  0  0  0  0  0
   -2.2200    2.5200    0.0000 C   0  0  0  0  0  0  0  0  0  0  0  0
   -3.5189    3.2702    0.0000 H   0  0  0  0  0  0  0  0  0  0  0  0
   -0.9200    3.2700    0.0000 C   0  0  0  0  0  0  0  0  0  0  0  0
   -0.9200    4.7700    0.0000 H   0  0  0  0  0  0  0  0  0  0  0  0
   -0.9200   -1.2400    0.0000 C   0  0  0  0  0  0  0  0  0  0  0  0
    0.3800   -1.9900    0.0000 C   0  0  0  0  0  0  0  0  0  0  0  0
    0.3800   -3.4800    0.0000 C   0  0  0  0  0  0  0  0  0  0  0  0
    1.6811   -4.2265    0.0000 H   0  0  0  0  0  0  0  0  0  0  0  0
   -0.9200   -4.2400    0.0000 C   0  0  0  0  0  0  0  0  0  0  0  0
   -0.9200   -5.7400    0.0000 H   0  0  0  0  0  0  0  0  0  0  0  0
   -2.2200   -3.4800    0.0000 C   0  0  0  0  0  0  0  0  0  0  0  0
   -2.2200   -1.9900    0.0000 C   0  0  0  0  0  0  0  0  0  0  0  0
   -3.5189   -1.2398    0.0000 O   0  0  0  0  0  0  0  0  0  0  0  0
   -4.8181   -1.9896    0.0000 H   0  0  0  0  0  0  0  0  0  0  0  0
   -3.5211   -4.2265    0.0000 O   0  0  0  0  0  0  0  0  0  0  0  0
   -3.5251   -5.7265    0.0000 H   0  0  0  0  0  0  0  0  0  0  0  0
    1.6800   -1.2400    0.0000 C   0  0  0  0  0  0  0  0  0  0  0  0
    2.1927   -2.6496    0.0000 H   0  0  0  0  0  0  0  0  0  0  0  0
    0.2028   -0.9797    0.0000 H   0  0  0  0  0  0  0  0  0  0  0  0
    1.6800    0.2700    0.0000 C   0  0  1  0  0  0  0  0  0  0  0  0
    2.9767   -0.4840    0.0000 H   0  0  0  0  0  0  0  0  0  0  0  0
  1  2  1  0  0  0  0 
  1  3  1  0  0  0  0 
  1  4  1  0  0  0  0 
  1  5  1  0  0  0  0 
  5  6  1  0  0  0  0 
  6  7  1  0  0  0  0 
  6  8  2  0  0  0  0 
  8  9  1  0  0  0  0 
  8 10  1  0  0  0  0 
 10 11  2  0  0  0  0 
 11 12  1  0  0  0  0 
 12 13  2  0  0  0  0 
 13 14  1  0  0  0  0 
 13 15  1  0  0  0  0 
 15 16  1  0  0  0  0 
 15 17  2  0  0  0  0 
 10 17  1  0  0  0  0 
 17 18  1  0  0  0  0 
 12 19  1  0  0  0  0 
 19 20  2  0  0  0  0 
 20 21  1  0  0  0  0 
 21 22  1  0  0  0  0 
 21 23  2  0  0  0  0 
 23 24  1  0  0  0  0 
 23 25  1  0  0  0  0 
 25 26  2  0  0  0  0 
 19 26  1  0  0  0  0 
 26 27  1  0  0  0  0 
 27 28  1  0  0  0  0 
 25 29  1  0  0  0  0 
 29 30  1  0  0  0  0 
 20 31  1  0  0  0  0 
 31 32  1  0  0  0  0 
 31 33  1  0  0  0  0 
 31 34  1  0  0  0  0 
 11 34  1  0  0  0  0 
  5 34  1  0  0  0  0 
 34 35  1  1  0  0  0 
M  END
> <Rank>
24

> <Priority_score>
0.10395317435738619

> <Reaction_type>
alkyl dehydrogenation

> <Parent_ID>
34

> <Parent_InChI>
InChI=1S/C17H17NO2/c1-18-8-7-10-3-2-4-12-15(10)13(18)9-11-5-6-14(19)17(20)16(11)12/h2-6,13,19-20H,7-9H2,1H3

> <Parent_SMILES>
CN1CCc2cccc3c2[C@H]1Cc1ccc(O)c(O)c1-3

$$$$
Molecule 34_metabolite 25
  CDK     0516241031

 36 39  0  0  0  0  0  0  0  0999 V2000
    4.2767    0.2560    0.0000 C   0  0  0  0  0  0  0  0  0  0  0  0
    4.2722   -1.2440    0.0000 H   0  0  0  0  0  0  0  0  0  0  0  0
    4.7941    1.6640    0.0000 H   0  0  0  0  0  0  0  0  0  0  0  0
    5.7531   -0.0090    0.0000 H   0  0  0  0  0  0  0  0  0  0  0  0
    2.9800    1.0100    0.0000 N   0  0  0  0  0  0  0  0  0  0  0  0
    2.9800    2.5200    0.0000 C   0  0  0  0  0  0  0  0  0  0  0  0
    4.2789    3.2702    0.0000 H   0  0  0  0  0  0  0  0  0  0  0  0
    1.6800    3.2700    0.0000 C   0  0  0  0  0  0  0  0  0  0  0  0
    2.6441    4.4192    0.0000 H   0  0  0  0  0  0  0  0  0  0  0  0
    0.7159    4.4192    0.0000 H   0  0  0  0  0  0  0  0  0  0  0  0
    0.3800    2.5200    0.0000 C   0  0  0  0  0  0  0  0  0  0  0  0
    0.3800    1.0100    0.0000 C   0  0  0  0  0  0  0  0  0  0  0  0
   -0.9200    0.2700    0.0000 C   0  0  0  0  0  0  0  0  0  0  0  0
   -2.2200    1.0100    0.0000 C   0  0  0  0  0  0  0  0  0  0  0  0
   -3.5167    0.2560    0.0000 H   0  0  0  0  0  0  0  0  0  0  0  0
   -2.2200    2.5200    0.0000 C   0  0  0  0  0  0  0  0  0  0  0  0
   -3.5189    3.2702    0.0000 H   0  0  0  0  0  0  0  0  0  0  0  0
   -0.9200    3.2700    0.0000 C   0  0  0  0  0  0  0  0  0  0  0  0
   -0.9200    4.7700    0.0000 H   0  0  0  0  0  0  0  0  0  0  0  0
   -0.9200   -1.2400    0.0000 C   0  0  0  0  0  0  0  0  0  0  0  0
   -2.2200   -1.9900    0.0000 C   0  0  0  0  0  0  0  0  0  0  0  0
   -2.2200   -3.4800    0.0000 C   0  0  0  0  0  0  0  0  0  0  0  0
   -0.9200   -4.2400    0.0000 C   0  0  0  0  0  0  0  0  0  0  0  0
   -0.9200   -5.7400    0.0000 H   0  0  0  0  0  0  0  0  0  0  0  0
    0.3800   -3.4800    0.0000 C   0  0  0  0  0  0  0  0  0  0  0  0
    1.6811   -4.2265    0.0000 H   0  0  0  0  0  0  0  0  0  0  0  0
    0.3800   -1.9900    0.0000 C   0  0  0  0  0  0  0  0  0  0  0  0
    1.6800   -1.2400    0.0000 C   0  0  0  0  0  0  0  0  0  0  0  0
    2.1927   -2.6496    0.0000 H   0  0  0  0  0  0  0  0  0  0  0  0
    0.2028   -0.9797    0.0000 H   0  0  0  0  0  0  0  0  0  0  0  0
    1.6800    0.2700    0.0000 C   0  0  1  0  0  0  0  0  0  0  0  0
    2.9767   -0.4840    0.0000 H   0  0  0  0  0  0  0  0  0  0  0  0
   -3.5211   -4.2265    0.0000 O   0  0  0  0  0  0  0  0  0  0  0  0
   -3.5251   -5.7265    0.0000 H   0  0  0  0  0  0  0  0  0  0  0  0
   -3.5189   -1.2398    0.0000 O   0  0  0  0  0  0  0  0  0  0  0  0
   -4.8181   -1.9896    0.0000 H   0  0  0  0  0  0  0  0  0  0  0  0
  1  2  1  0  0  0  0 
  1  3  1  0  0  0  0 
  1  4  1  0  0  0  0 
  1  5  1  0  0  0  0 
  5  6  2  0  0  0  0 
  6  7  1  0  0  0  0 
  6  8  1  0  0  0  0 
  8  9  1  0  0  0  0 
  8 10  1  0  0  0  0 
  8 11  1  0  0  0  0 
 11 12  2  0  0  0  0 
 12 13  1  0  0  0  0 
 13 14  2  0  0  0  0 
 14 15  1  0  0  0  0 
 14 16  1  0  0  0  0 
 16 17  1  0  0  0  0 
 16 18  2  0  0  0  0 
 11 18  1  0  0  0  0 
 18 19  1  0  0  0  0 
 13 20  1  0  0  0  0 
 20 21  2  0  0  0  0 
 21 22  1  0  0  0  0 
 22 23  2  0  0  0  0 
 23 24  1  0  0  0  0 
 23 25  1  0  0  0  0 
 25 26  1  0  0  0  0 
 25 27  2  0  0  0  0 
 20 27  1  0  0  0  0 
 27 28  1  0  0  0  0 
 28 29  1  0  0  0  0 
 28 30  1  0  0  0  0 
 28 31  1  0  0  0  0 
 12 31  1  0  0  0  0 
  5 31  1  0  0  0  0 
 31 32  1  1  0  0  0 
 22 33  1  0  0  0  0 
 33 34  1  0  0  0  0 
 21 35  1  0  0  0  0 
 35 36  1  0  0  0  0 
M  CHG  1   5   1
M  END
> <Rank>
24

> <Priority_score>
0.10395317435738619

> <Reaction_type>
dehydration of N-C bond

> <Parent_ID>
34

> <Parent_InChI>
InChI=1S/C17H17NO2/c1-18-8-7-10-3-2-4-12-15(10)13(18)9-11-5-6-14(19)17(20)16(11)12/h2-6,13,19-20H,7-9H2,1H3

> <Parent_SMILES>
CN1CCc2cccc3c2[C@H]1Cc1ccc(O)c(O)c1-3

$$$$
Molecule 34_metabolite 26
  CDK     0516241031

 36 39  0  0  0  0  0  0  0  0999 V2000
    4.2767    0.2560    0.0000 C   0  0  0  0  0  0  0  0  0  0  0  0
    4.2722   -1.2440    0.0000 H   0  0  0  0  0  0  0  0  0  0  0  0
    4.7941    1.6640    0.0000 H   0  0  0  0  0  0  0  0  0  0  0  0
    5.7531   -0.0090    0.0000 H   0  0  0  0  0  0  0  0  0  0  0  0
    2.5650    1.2513    0.0000 N   0  0  0  0  0  0  0  0  0  0  0  0
    1.2650    0.5113    0.0000 C   0  0  0  0  0  0  0  0  0  0  0  0
    1.2650   -0.9987    0.0000 C   0  0  0  0  0  0  0  0  0  0  0  0
    1.7778   -2.4084    0.0000 H   0  0  0  0  0  0  0  0  0  0  0  0
    2.7423   -0.7384    0.0000 H   0  0  0  0  0  0  0  0  0  0  0  0
   -0.0350   -1.7487    0.0000 C   0  0  0  0  0  0  0  0  0  0  0  0
   -0.0350   -3.2387    0.0000 C   0  0  0  0  0  0  0  0  0  0  0  0
    1.2661   -3.9852    0.0000 H   0  0  0  0  0  0  0  0  0  0  0  0
   -1.3350   -3.9987    0.0000 C   0  0  0  0  0  0  0  0  0  0  0  0
   -1.3350   -5.4987    0.0000 H   0  0  0  0  0  0  0  0  0  0  0  0
   -2.6350   -3.2387    0.0000 C   0  0  0  0  0  0  0  0  0  0  0  0
   -2.6350   -1.7487    0.0000 C   0  0  0  0  0  0  0  0  0  0  0  0
   -1.3350   -0.9987    0.0000 C   0  0  0  0  0  0  0  0  0  0  0  0
   -1.3350    0.5113    0.0000 C   0  0  0  0  0  0  0  0  0  0  0  0
   -0.0350    1.2513    0.0000 C   0  0  0  0  0  0  0  0  0  0  0  0
   -0.0350    2.7613    0.0000 C   0  0  0  0  0  0  0  0  0  0  0  0
   -1.3350    3.5113    0.0000 C   0  0  0  0  0  0  0  0  0  0  0  0
   -1.3350    5.0113    0.0000 H   0  0  0  0  0  0  0  0  0  0  0  0
   -2.6350    2.7613    0.0000 C   0  0  0  0  0  0  0  0  0  0  0  0
   -3.9339    3.5115    0.0000 H   0  0  0  0  0  0  0  0  0  0  0  0
   -2.6350    1.2513    0.0000 C   0  0  0  0  0  0  0  0  0  0  0  0
   -3.9317    0.4973    0.0000 H   0  0  0  0  0  0  0  0  0  0  0  0
    1.2650    3.5113    0.0000 C   0  0  0  0  0  0  0  0  0  0  0  0
    2.2291    4.6604    0.0000 H   0  0  0  0  0  0  0  0  0  0  0  0
    0.3010    4.6604    0.0000 H   0  0  0  0  0  0  0  0  0  0  0  0
    2.5650    2.7613    0.0000 C   0  0  0  0  0  0  0  0  0  0  0  0
    4.0423    2.5010    0.0000 H   0  0  0  0  0  0  0  0  0  0  0  0
    3.0778    4.1709    0.0000 H   0  0  0  0  0  0  0  0  0  0  0  0
   -3.9339   -0.9985    0.0000 O   0  0  0  0  0  0  0  0  0  0  0  0
   -5.2330   -1.7483    0.0000 H   0  0  0  0  0  0  0  0  0  0  0  0
   -3.9360   -3.9852    0.0000 O   0  0  0  0  0  0  0  0  0  0  0  0
   -3.9401   -5.4852    0.0000 H   0  0  0  0  0  0  0  0  0  0  0  0
  1  2  1  0  0  0  0 
  1  3  1  0  0  0  0 
  1  4  1  0  0  0  0 
  1  5  1  0  0  0  0 
  5  6  2  0  0  0  0 
  6  7  1  0  0  0  0 
  7  8  1  0  0  0  0 
  7  9  1  0  0  0  0 
  7 10  1  0  0  0  0 
 10 11  2  0  0  0  0 
 11 12  1  0  0  0  0 
 11 13  1  0  0  0  0 
 13 14  1  0  0  0  0 
 13 15  2  0  0  0  0 
 15 16  1  0  0  0  0 
 16 17  2  0  0  0  0 
 10 17  1  0  0  0  0 
 17 18  1  0  0  0  0 
 18 19  2  0  0  0  0 
  6 19  1  0  0  0  0 
 19 20  1  0  0  0  0 
 20 21  2  0  0  0  0 
 21 22  1  0  0  0  0 
 21 23  1  0  0  0  0 
 23 24  1  0  0  0  0 
 23 25  2  0  0  0  0 
 18 25  1  0  0  0  0 
 25 26  1  0  0  0  0 
 20 27  1  0  0  0  0 
 27 28  1  0  0  0  0 
 27 29  1  0  0  0  0 
 27 30  1  0  0  0  0 
  5 30  1  0  0  0  0 
 30 31  1  0  0  0  0 
 30 32  1  0  0  0  0 
 16 33  1  0  0  0  0 
 33 34  1  0  0  0  0 
 15 35  1  0  0  0  0 
 35 36  1  0  0  0  0 
M  CHG  1   5   1
M  END
> <Rank>
26

> <Priority_score>
0.10249018066122645

> <Reaction_type>
dehydration of N-C bond

> <Parent_ID>
34

> <Parent_InChI>
InChI=1S/C17H17NO2/c1-18-8-7-10-3-2-4-12-15(10)13(18)9-11-5-6-14(19)17(20)16(11)12/h2-6,13,19-20H,7-9H2,1H3

> <Parent_SMILES>
CN1CCc2cccc3c2[C@H]1Cc1ccc(O)c(O)c1-3

$$$$
Molecule 34_metabolite 27
  CDK     0516241031

 38 41  0  0  0  0  0  0  0  0999 V2000
    4.2767    0.2560    0.0000 C   0  0  0  0  0  0  0  0  0  0  0  0
    4.2722   -1.2440    0.0000 H   0  0  0  0  0  0  0  0  0  0  0  0
    4.7941    1.6640    0.0000 H   0  0  0  0  0  0  0  0  0  0  0  0
    5.7531   -0.0090    0.0000 H   0  0  0  0  0  0  0  0  0  0  0  0
    2.5650    1.2513    0.0000 N   0  0  0  0  0  0  0  0  0  0  0  0
    2.5650    2.7613    0.0000 C   0  0  0  0  0  0  0  0  0  0  0  0
    4.0423    2.5010    0.0000 H   0  0  0  0  0  0  0  0  0  0  0  0
    3.0778    4.1709    0.0000 H   0  0  0  0  0  0  0  0  0  0  0  0
    1.2650    3.5113    0.0000 C   0  0  0  0  0  0  0  0  0  0  0  0
    2.2291    4.6604    0.0000 H   0  0  0  0  0  0  0  0  0  0  0  0
    0.3010    4.6604    0.0000 H   0  0  0  0  0  0  0  0  0  0  0  0
   -0.0350    2.7613    0.0000 C   0  0  0  0  0  0  0  0  0  0  0  0
   -0.0350    1.2513    0.0000 C   0  0  0  0  0  0  0  0  0  0  0  0
   -1.3350    0.5113    0.0000 C   0  0  0  0  0  0  0  0  0  0  0  0
   -2.6350    1.2513    0.0000 C   0  0  0  0  0  0  0  0  0  0  0  0
   -3.9317    0.4973    0.0000 H   0  0  0  0  0  0  0  0  0  0  0  0
   -2.6350    2.7613    0.0000 C   0  0  0  0  0  0  0  0  0  0  0  0
   -3.9339    3.5115    0.0000 H   0  0  0  0  0  0  0  0  0  0  0  0
   -1.3350    3.5113    0.0000 C   0  0  0  0  0  0  0  0  0  0  0  0
   -1.3350    5.0113    0.0000 O   0  0  0  0  0  0  0  0  0  0  0  0
   -2.6340    5.7613    0.0000 H   0  0  0  0  0  0  0  0  0  0  0  0
   -1.3350   -0.9987    0.0000 C   0  0  0  0  0  0  0  0  0  0  0  0
   -2.6350   -1.7487    0.0000 C   0  0  0  0  0  0  0  0  0  0  0  0
   -2.6350   -3.2387    0.0000 C   0  0  0  0  0  0  0  0  0  0  0  0
   -1.3350   -3.9987    0.0000 C   0  0  0  0  0  0  0  0  0  0  0  0
   -1.3350   -5.4987    0.0000 H   0  0  0  0  0  0  0  0  0  0  0  0
   -0.0350   -3.2387    0.0000 C   0  0  0  0  0  0  0  0  0  0  0  0
    1.2661   -3.9852    0.0000 H   0  0  0  0  0  0  0  0  0  0  0  0
   -0.0350   -1.7487    0.0000 C   0  0  0  0  0  0  0  0  0  0  0  0
    1.2650   -0.9987    0.0000 C   0  0  0  0  0  0  0  0  0  0  0  0
    1.7778   -2.4084    0.0000 H   0  0  0  0  0  0  0  0  0  0  0  0
   -0.2122   -0.7384    0.0000 H   0  0  0  0  0  0  0  0  0  0  0  0
    1.2650    0.5113    0.0000 C   0  0  1  0  0  0  0  0  0  0  0  0
    2.5618   -0.2427    0.0000 H   0  0  0  0  0  0  0  0  0  0  0  0
   -3.9360   -3.9852    0.0000 O   0  0  0  0  0  0  0  0  0  0  0  0
   -3.9401   -5.4852    0.0000 H   0  0  0  0  0  0  0  0  0  0  0  0
   -3.9339   -0.9985    0.0000 O   0  0  0  0  0  0  0  0  0  0  0  0
   -5.2330   -1.7483    0.0000 H   0  0  0  0  0  0  0  0  0  0  0  0
  1  2  1  0  0  0  0 
  1  3  1  0  0  0  0 
  1  4  1  0  0  0  0 
  1  5  1  0  0  0  0 
  5  6  1  0  0  0  0 
  6  7  1  0  0  0  0 
  6  8  1  0  0  0  0 
  6  9  1  0  0  0  0 
  9 10  1  0  0  0  0 
  9 11  1  0  0  0  0 
  9 12  1  0  0  0  0 
 12 13  2  0  0  0  0 
 13 14  1  0  0  0  0 
 14 15  2  0  0  0  0 
 15 16  1  0  0  0  0 
 15 17  1  0  0  0  0 
 17 18  1  0  0  0  0 
 17 19  2  0  0  0  0 
 12 19  1  0  0  0  0 
 19 20  1  0  0  0  0 
 20 21  1  0  0  0  0 
 14 22  1  0  0  0  0 
 22 23  2  0  0  0  0 
 23 24  1  0  0  0  0 
 24 25  2  0  0  0  0 
 25 26  1  0  0  0  0 
 25 27  1  0  0  0  0 
 27 28  1  0  0  0  0 
 27 29  2  0  0  0  0 
 22 29  1  0  0  0  0 
 29 30  1  0  0  0  0 
 30 31  1  0  0  0  0 
 30 32  1  0  0  0  0 
 30 33  1  0  0  0  0 
 13 33  1  0  0  0  0 
  5 33  1  0  0  0  0 
 33 34  1  1  0  0  0 
 24 35  1  0  0  0  0 
 35 36  1  0  0  0  0 
 23 37  1  0  0  0  0 
 37 38  1  0  0  0  0 
M  END
> <Rank>
27

> <Priority_score>
0.09076100801496571

> <Reaction_type>
aromatic_hydroxylation_(para_to_carbon)

> <Parent_ID>
34

> <Parent_InChI>
InChI=1S/C17H17NO2/c1-18-8-7-10-3-2-4-12-15(10)13(18)9-11-5-6-14(19)17(20)16(11)12/h2-6,13,19-20H,7-9H2,1H3

> <Parent_SMILES>
CN1CCc2cccc3c2[C@H]1Cc1ccc(O)c(O)c1-3

$$$$
Molecule 34_metabolite 28
  CDK     0516241031

 38 41  0  0  0  0  0  0  0  0999 V2000
    4.2767    0.2560    0.0000 C   0  0  0  0  0  0  0  0  0  0  0  0
    4.2722   -1.2440    0.0000 H   0  0  0  0  0  0  0  0  0  0  0  0
    4.7941    1.6640    0.0000 H   0  0  0  0  0  0  0  0  0  0  0  0
    5.7531   -0.0090    0.0000 H   0  0  0  0  0  0  0  0  0  0  0  0
    2.5650    1.2513    0.0000 N   0  0  0  0  0  0  0  0  0  0  0  0
    2.5650    2.7613    0.0000 C   0  0  0  0  0  0  0  0  0  0  0  0
    4.0423    2.5010    0.0000 H   0  0  0  0  0  0  0  0  0  0  0  0
    3.0778    4.1709    0.0000 H   0  0  0  0  0  0  0  0  0  0  0  0
    1.2650    3.5113    0.0000 C   0  0  0  0  0  0  0  0  0  0  0  0
    2.2291    4.6604    0.0000 H   0  0  0  0  0  0  0  0  0  0  0  0
    0.3010    4.6604    0.0000 H   0  0  0  0  0  0  0  0  0  0  0  0
   -0.0350    2.7613    0.0000 C   0  0  0  0  0  0  0  0  0  0  0  0
   -0.0350    1.2513    0.0000 C   0  0  0  0  0  0  0  0  0  0  0  0
   -1.3350    0.5113    0.0000 C   0  0  0  0  0  0  0  0  0  0  0  0
   -2.6350    1.2513    0.0000 C   0  0  0  0  0  0  0  0  0  0  0  0
   -3.9317    0.4973    0.0000 H   0  0  0  0  0  0  0  0  0  0  0  0
   -2.6350    2.7613    0.0000 C   0  0  0  0  0  0  0  0  0  0  0  0
   -3.9339    3.5115    0.0000 H   0  0  0  0  0  0  0  0  0  0  0  0
   -1.3350    3.5113    0.0000 C   0  0  0  0  0  0  0  0  0  0  0  0
   -1.3350    5.0113    0.0000 H   0  0  0  0  0  0  0  0  0  0  0  0
   -1.3350   -0.9987    0.0000 C   0  0  0  0  0  0  0  0  0  0  0  0
   -2.6350   -1.7487    0.0000 C   0  0  0  0  0  0  0  0  0  0  0  0
   -2.6350   -3.2387    0.0000 C   0  0  0  0  0  0  0  0  0  0  0  0
   -1.3350   -3.9987    0.0000 C   0  0  0  0  0  0  0  0  0  0  0  0
   -0.0350   -3.2387    0.0000 C   0  0  0  0  0  0  0  0  0  0  0  0
    1.2661   -3.9852    0.0000 H   0  0  0  0  0  0  0  0  0  0  0  0
   -0.0350   -1.7487    0.0000 C   0  0  0  0  0  0  0  0  0  0  0  0
    1.2650   -0.9987    0.0000 C   0  0  0  0  0  0  0  0  0  0  0  0
    1.7778   -2.4084    0.0000 H   0  0  0  0  0  0  0  0  0  0  0  0
   -0.2122   -0.7384    0.0000 H   0  0  0  0  0  0  0  0  0  0  0  0
    1.2650    0.5113    0.0000 C   0  0  1  0  0  0  0  0  0  0  0  0
    2.5618   -0.2427    0.0000 H   0  0  0  0  0  0  0  0  0  0  0  0
   -1.3350   -5.4987    0.0000 O   0  0  0  0  0  0  0  0  0  0  0  0
   -2.6340   -6.2487    0.0000 H   0  0  0  0  0  0  0  0  0  0  0  0
   -3.9360   -3.9852    0.0000 O   0  0  0  0  0  0  0  0  0  0  0  0
   -3.9401   -5.4852    0.0000 H   0  0  0  0  0  0  0  0  0  0  0  0
   -3.9339   -0.9985    0.0000 O   0  0  0  0  0  0  0  0  0  0  0  0
   -5.2330   -1.7483    0.0000 H   0  0  0  0  0  0  0  0  0  0  0  0
  1  2  1  0  0  0  0 
  1  3  1  0  0  0  0 
  1  4  1  0  0  0  0 
  1  5  1  0  0  0  0 
  5  6  1  0  0  0  0 
  6  7  1  0  0  0  0 
  6  8  1  0  0  0  0 
  6  9  1  0  0  0  0 
  9 10  1  0  0  0  0 
  9 11  1  0  0  0  0 
  9 12  1  0  0  0  0 
 12 13  2  0  0  0  0 
 13 14  1  0  0  0  0 
 14 15  2  0  0  0  0 
 15 16  1  0  0  0  0 
 15 17  1  0  0  0  0 
 17 18  1  0  0  0  0 
 17 19  2  0  0  0  0 
 12 19  1  0  0  0  0 
 19 20  1  0  0  0  0 
 14 21  1  0  0  0  0 
 21 22  2  0  0  0  0 
 22 23  1  0  0  0  0 
 23 24  2  0  0  0  0 
 24 25  1  0  0  0  0 
 25 26  1  0  0  0  0 
 25 27  2  0  0  0  0 
 21 27  1  0  0  0  0 
 27 28  1  0  0  0  0 
 28 29  1  0  0  0  0 
 28 30  1  0  0  0  0 
 28 31  1  0  0  0  0 
 13 31  1  0  0  0  0 
  5 31  1  0  0  0  0 
 31 32  1  1  0  0  0 
 24 33  1  0  0  0  0 
 33 34  1  0  0  0  0 
 23 35  1  0  0  0  0 
 35 36  1  0  0  0  0 
 22 37  1  0  0  0  0 
 37 38  1  0  0  0  0 
M  END
> <Rank>
28

> <Priority_score>
0.07476100801496571

> <Reaction_type>
aromatic_hydroxylation_(para_to_carbon)

> <Parent_ID>
34

> <Parent_InChI>
InChI=1S/C17H17NO2/c1-18-8-7-10-3-2-4-12-15(10)13(18)9-11-5-6-14(19)17(20)16(11)12/h2-6,13,19-20H,7-9H2,1H3

> <Parent_SMILES>
CN1CCc2cccc3c2[C@H]1Cc1ccc(O)c(O)c1-3

$$$$
Molecule 34_metabolite 29
  CDK     0516241031

 36 39  0  0  0  0  0  0  0  0999 V2000
    4.2767    0.2560    0.0000 C   0  0  0  0  0  0  0  0  0  0  0  0
    4.2722   -1.2440    0.0000 H   0  0  0  0  0  0  0  0  0  0  0  0
    4.7941    1.6640    0.0000 H   0  0  0  0  0  0  0  0  0  0  0  0
    5.7531   -0.0090    0.0000 H   0  0  0  0  0  0  0  0  0  0  0  0
    2.5650    1.2513    0.0000 N   0  0  0  0  0  0  0  0  0  0  0  0
    2.5650    2.7613    0.0000 C   0  0  0  0  0  0  0  0  0  0  0  0
    4.0423    2.5010    0.0000 H   0  0  0  0  0  0  0  0  0  0  0  0
    3.0778    4.1709    0.0000 H   0  0  0  0  0  0  0  0  0  0  0  0
    1.2650    3.5113    0.0000 C   0  0  0  0  0  0  0  0  0  0  0  0
    2.2291    4.6604    0.0000 H   0  0  0  0  0  0  0  0  0  0  0  0
    0.3010    4.6604    0.0000 H   0  0  0  0  0  0  0  0  0  0  0  0
   -0.0350    2.7613    0.0000 C   0  0  0  0  0  0  0  0  0  0  0  0
   -1.3350    3.5113    0.0000 C   0  0  0  0  0  0  0  0  0  0  0  0
   -1.3350    5.0113    0.0000 H   0  0  0  0  0  0  0  0  0  0  0  0
   -2.6350    2.7613    0.0000 C   0  0  0  0  0  0  0  0  0  0  0  0
   -3.9339    3.5115    0.0000 H   0  0  0  0  0  0  0  0  0  0  0  0
   -2.6350    1.2513    0.0000 C   0  0  0  0  0  0  0  0  0  0  0  0
   -3.9317    0.4973    0.0000 H   0  0  0  0  0  0  0  0  0  0  0  0
   -1.3350    0.5113    0.0000 C   0  0  0  0  0  0  0  0  0  0  0  0
   -0.0350    1.2513    0.0000 C   0  0  0  0  0  0  0  0  0  0  0  0
    1.2650    0.5113    0.0000 C   0  0  1  0  0  0  0  0  0  0  0  0
   -0.0317   -0.2427    0.0000 H   0  0  0  0  0  0  0  0  0  0  0  0
    1.2650   -0.9987    0.0000 C   0  0  0  0  0  0  0  0  0  0  0  0
    1.7778   -2.4084    0.0000 H   0  0  0  0  0  0  0  0  0  0  0  0
    2.7423   -0.7384    0.0000 H   0  0  0  0  0  0  0  0  0  0  0  0
   -0.0350   -1.7487    0.0000 C   0  0  0  0  0  0  0  0  0  0  0  0
   -1.3350   -0.9987    0.0000 C   0  0  0  0  0  0  0  0  0  0  0  0
   -2.6350   -1.7487    0.0000 C   0  0  0  0  0  0  0  0  0  0  0  0
   -3.9339   -0.9985    0.0000 O   0  0  0  0  0  0  0  0  0  0  0  0
   -2.6350   -3.2387    0.0000 C   0  0  0  0  0  0  0  0  0  0  0  0
   -1.3350   -3.9987    0.0000 C   0  0  0  0  0  0  0  0  0  0  0  0
   -1.3350   -5.4987    0.0000 H   0  0  0  0  0  0  0  0  0  0  0  0
   -0.0350   -3.2387    0.0000 C   0  0  0  0  0  0  0  0  0  0  0  0
    1.2661   -3.9852    0.0000 O   0  0  0  0  0  0  0  0  0  0  0  0
   -3.9360   -3.9852    0.0000 O   0  0  0  0  0  0  0  0  0  0  0  0
   -3.9401   -5.4852    0.0000 H   0  0  0  0  0  0  0  0  0  0  0  0
  1  2  1  0  0  0  0 
  1  3  1  0  0  0  0 
  1  4  1  0  0  0  0 
  1  5  1  0  0  0  0 
  5  6  1  0  0  0  0 
  6  7  1  0  0  0  0 
  6  8  1  0  0  0  0 
  6  9  1  0  0  0  0 
  9 10  1  0  0  0  0 
  9 11  1  0  0  0  0 
  9 12  1  0  0  0  0 
 12 13  2  0  0  0  0 
 13 14  1  0  0  0  0 
 13 15  1  0  0  0  0 
 15 16  1  0  0  0  0 
 15 17  2  0  0  0  0 
 17 18  1  0  0  0  0 
 17 19  1  0  0  0  0 
 19 20  2  0  0  0  0 
 12 20  1  0  0  0  0 
 20 21  1  0  0  0  0 
  5 21  1  0  0  0  0 
 21 22  1  1  0  0  0 
 21 23  1  0  0  0  0 
 23 24  1  0  0  0  0 
 23 25  1  0  0  0  0 
 23 26  1  0  0  0  0 
 26 27  2  0  0  0  0 
 19 27  1  0  0  0  0 
 27 28  1  0  0  0  0 
 28 29  2  0  0  0  0 
 28 30  1  0  0  0  0 
 30 31  2  0  0  0  0 
 31 32  1  0  0  0  0 
 31 33  1  0  0  0  0 
 26 33  1  0  0  0  0 
 33 34  2  0  0  0  0 
 30 35  1  0  0  0  0 
 35 36  1  0  0  0  0 
M  END
> <Rank>
29

> <Priority_score>
0.06711152720889409

> <Reaction_type>
oxidation of 4-substituted phenol to quinone

> <Parent_ID>
34

> <Parent_InChI>
InChI=1S/C17H17NO2/c1-18-8-7-10-3-2-4-12-15(10)13(18)9-11-5-6-14(19)17(20)16(11)12/h2-6,13,19-20H,7-9H2,1H3

> <Parent_SMILES>
CN1CCc2cccc3c2[C@H]1Cc1ccc(O)c(O)c1-3

$$$$
Molecule 34_metabolite 30
  CDK     0516241031

 38 41  0  0  0  0  0  0  0  0999 V2000
    3.9486    1.1582    0.0000 C   0  0  0  0  0  0  0  0  0  0  0  0
    3.9440   -0.3418    0.0000 H   0  0  0  0  0  0  0  0  0  0  0  0
    4.4659    2.5662    0.0000 H   0  0  0  0  0  0  0  0  0  0  0  0
    5.4250    0.8932    0.0000 H   0  0  0  0  0  0  0  0  0  0  0  0
    2.2369    2.1534    0.0000 N   0  0  0  0  0  0  0  0  0  0  0  0
    2.2369    3.6634    0.0000 C   0  0  0  0  0  0  0  0  0  0  0  0
    3.7141    3.4031    0.0000 H   0  0  0  0  0  0  0  0  0  0  0  0
    2.7496    5.0731    0.0000 H   0  0  0  0  0  0  0  0  0  0  0  0
    0.9369    4.4134    0.0000 C   0  0  0  0  0  0  0  0  0  0  0  0
    1.9010    5.5626    0.0000 H   0  0  0  0  0  0  0  0  0  0  0  0
   -0.0272    5.5626    0.0000 H   0  0  0  0  0  0  0  0  0  0  0  0
   -0.3631    3.6634    0.0000 C   0  0  0  0  0  0  0  0  0  0  0  0
   -1.6631    4.4134    0.0000 C   0  0  0  0  0  0  0  0  0  0  0  0
   -1.6631    5.9134    0.0000 H   0  0  0  0  0  0  0  0  0  0  0  0
   -2.9631    3.6634    0.0000 C   0  0  0  0  0  0  0  0  0  0  0  0
   -4.2620    4.4137    0.0000 H   0  0  0  0  0  0  0  0  0  0  0  0
   -2.9631    2.1534    0.0000 C   0  0  0  0  0  0  0  0  0  0  0  0
   -4.2598    1.3995    0.0000 H   0  0  0  0  0  0  0  0  0  0  0  0
   -1.6631    1.4134    0.0000 C   0  0  0  0  0  0  0  0  0  0  0  0
   -0.3631    2.1534    0.0000 C   0  0  0  0  0  0  0  0  0  0  0  0
    0.9369    1.4134    0.0000 C   0  0  1  0  0  0  0  0  0  0  0  0
   -0.3598    0.6595    0.0000 H   0  0  0  0  0  0  0  0  0  0  0  0
    0.9369   -0.0966    0.0000 C   0  0  0  0  0  0  0  0  0  0  0  0
    1.7778   -2.4084    0.0000 H   0  0  0  0  0  0  0  0  0  0  0  0
    2.4141    0.1638    0.0000 H   0  0  0  0  0  0  0  0  0  0  0  0
   -0.3631   -0.8466    0.0000 C   0  0  0  0  0  0  0  0  0  0  0  0
   -0.3631   -2.3366    0.0000 C   0  0  0  0  0  0  0  0  0  0  0  0
    0.9380   -3.0830    0.0000 H   0  0  0  0  0  0  0  0  0  0  0  0
   -1.6631   -3.0966    0.0000 C   0  0  0  0  0  0  0  0  0  0  0  0
   -1.6631   -4.5966    0.0000 H   0  0  0  0  0  0  0  0  0  0  0  0
   -2.9631   -2.3366    0.0000 C   0  0  0  0  0  0  0  0  0  0  0  0
   -4.2642   -3.0830    0.0000 O   0  0  0  0  0  0  0  0  0  0  0  0
   -2.9631   -0.8466    0.0000 C   0  0  0  0  0  0  0  0  0  0  0  0
   -1.6631   -0.0966    0.0000 C   0  0  0  0  0  0  0  0  0  0  0  0
   -4.2620   -0.0963    0.0000 O   0  0  0  0  0  0  0  0  0  0  0  0
   -5.5612   -0.8461    0.0000 H   0  0  0  0  0  0  0  0  0  0  0  0
    0.9358   -1.5968    0.0000 O   0  0  0  0  0  0  0  0  0  0  0  0
    2.2350   -0.8470    0.0000 H   0  0  0  0  0  0  0  0  0  0  0  0
  1  2  1  0  0  0  0 
  1  3  1  0  0  0  0 
  1  4  1  0  0  0  0 
  1  5  1  0  0  0  0 
  5  6  1  0  0  0  0 
  6  7  1  0  0  0  0 
  6  8  1  0  0  0  0 
  6  9  1  0  0  0  0 
  9 10  1  0  0  0  0 
  9 11  1  0  0  0  0 
  9 12  1  0  0  0  0 
 12 13  2  0  0  0  0 
 13 14  1  0  0  0  0 
 13 15  1  0  0  0  0 
 15 16  1  0  0  0  0 
 15 17  2  0  0  0  0 
 17 18  1  0  0  0  0 
 17 19  1  0  0  0  0 
 19 20  2  0  0  0  0 
 12 20  1  0  0  0  0 
 20 21  1  0  0  0  0 
  5 21  1  0  0  0  0 
 21 22  1  1  0  0  0 
 21 23  1  0  0  0  0 
 23 24  1  0  0  0  0 
 23 25  1  0  0  0  0 
 23 26  1  0  0  0  0 
 26 27  1  0  0  0  0 
 27 28  1  0  0  0  0 
 27 29  2  0  0  0  0 
 29 30  1  0  0  0  0 
 29 31  1  0  0  0  0 
 31 32  2  0  0  0  0 
 31 33  1  0  0  0  0 
 33 34  2  0  0  0  0 
 19 34  1  0  0  0  0 
 26 34  1  0  0  0  0 
 33 35  1  0  0  0  0 
 35 36  1  0  0  0  0 
 26 37  1  0  0  0  0 
 37 38  1  0  0  0  0 
M  END
> <Rank>
30

> <Priority_score>
0.0632

> <Reaction_type>
oxidation of 4-substituted phenol to quinone (substituent not a leaving group)

> <Parent_ID>
34

> <Parent_InChI>
InChI=1S/C17H17NO2/c1-18-8-7-10-3-2-4-12-15(10)13(18)9-11-5-6-14(19)17(20)16(11)12/h2-6,13,19-20H,7-9H2,1H3

> <Parent_SMILES>
CN1CCc2cccc3c2[C@H]1Cc1ccc(O)c(O)c1-3

$$$$
Molecule 34_metabolite 31
  CDK     0516241031

 35 38  0  0  0  0  0  0  0  0999 V2000
    4.2767    0.2560    0.0000 C   0  0  0  0  0  0  0  0  0  0  0  0
    5.5781    1.0021    0.0000 H   0  0  0  0  0  0  0  0  0  0  0  0
    3.3091   -0.8901    0.0000 H   0  0  0  0  0  0  0  0  0  0  0  0
    5.2374   -0.8960    0.0000 H   0  0  0  0  0  0  0  0  0  0  0  0
    2.9800    1.0100    0.0000 N   0  0  0  0  0  0  0  0  0  0  0  0
    2.9800    2.5200    0.0000 C   0  0  0  0  0  0  0  0  0  0  0  0
    4.4572    2.2597    0.0000 H   0  0  0  0  0  0  0  0  0  0  0  0
    3.4927    3.9296    0.0000 H   0  0  0  0  0  0  0  0  0  0  0  0
    1.6800    3.2700    0.0000 C   0  0  0  0  0  0  0  0  0  0  0  0
    2.6441    4.4192    0.0000 H   0  0  0  0  0  0  0  0  0  0  0  0
    0.7159    4.4192    0.0000 H   0  0  0  0  0  0  0  0  0  0  0  0
    0.3800    2.5200    0.0000 C   0  0  0  0  0  0  0  0  0  0  0  0
   -0.9200    3.2700    0.0000 C   0  0  0  0  0  0  0  0  0  0  0  0
   -0.9200    4.7700    0.0000 H   0  0  0  0  0  0  0  0  0  0  0  0
   -2.2200    2.5200    0.0000 C   0  0  0  0  0  0  0  0  0  0  0  0
   -3.5189    3.2702    0.0000 H   0  0  0  0  0  0  0  0  0  0  0  0
   -2.2200    1.0100    0.0000 C   0  0  0  0  0  0  0  0  0  0  0  0
   -3.5167    0.2560    0.0000 H   0  0  0  0  0  0  0  0  0  0  0  0
   -0.9200    0.2700    0.0000 C   0  0  0  0  0  0  0  0  0  0  0  0
   -0.9200   -1.2400    0.0000 C   0  0  0  0  0  0  0  0  0  0  0  0
    0.3800   -1.9900    0.0000 C   0  0  0  0  0  0  0  0  0  0  0  0
    1.6800   -1.2400    0.0000 C   0  0  0  0  0  0  0  0  0  0  0  0
    2.9789   -1.9902    0.0000 H   0  0  0  0  0  0  0  0  0  0  0  0
    1.6800    0.2700    0.0000 C   0  0  0  0  0  0  0  0  0  0  0  0
    0.3800    1.0100    0.0000 C   0  0  0  0  0  0  0  0  0  0  0  0
    0.3800   -3.4800    0.0000 C   0  0  0  0  0  0  0  0  0  0  0  0
    1.6811   -4.2265    0.0000 H   0  0  0  0  0  0  0  0  0  0  0  0
   -0.9200   -4.2400    0.0000 C   0  0  0  0  0  0  0  0  0  0  0  0
   -0.9200   -5.7400    0.0000 H   0  0  0  0  0  0  0  0  0  0  0  0
   -2.2200   -3.4800    0.0000 C   0  0  0  0  0  0  0  0  0  0  0  0
   -2.2200   -1.9900    0.0000 C   0  0  0  0  0  0  0  0  0  0  0  0
   -3.5189   -1.2398    0.0000 O   0  0  0  0  0  0  0  0  0  0  0  0
   -4.8181   -1.9896    0.0000 H   0  0  0  0  0  0  0  0  0  0  0  0
   -3.5211   -4.2265    0.0000 O   0  0  0  0  0  0  0  0  0  0  0  0
   -3.5251   -5.7265    0.0000 H   0  0  0  0  0  0  0  0  0  0  0  0
  1  2  1  0  0  0  0 
  1  3  1  0  0  0  0 
  1  4  1  0  0  0  0 
  1  5  1  0  0  0  0 
  5  6  1  0  0  0  0 
  6  7  1  0  0  0  0 
  6  8  1  0  0  0  0 
  6  9  1  0  0  0  0 
  9 10  1  0  0  0  0 
  9 11  1  0  0  0  0 
  9 12  1  0  0  0  0 
 12 13  2  0  0  0  0 
 13 14  1  0  0  0  0 
 13 15  1  0  0  0  0 
 15 16  1  0  0  0  0 
 15 17  2  0  0  0  0 
 17 18  1  0  0  0  0 
 17 19  1  0  0  0  0 
 19 20  2  0  0  0  0 
 20 21  1  0  0  0  0 
 21 22  2  0  0  0  0 
 22 23  1  0  0  0  0 
 22 24  1  0  0  0  0 
  5 24  1  0  0  0  0 
 24 25  2  0  0  0  0 
 12 25  1  0  0  0  0 
 19 25  1  0  0  0  0 
 21 26  1  0  0  0  0 
 26 27  1  0  0  0  0 
 26 28  2  0  0  0  0 
 28 29  1  0  0  0  0 
 28 30  1  0  0  0  0 
 30 31  2  0  0  0  0 
 20 31  1  0  0  0  0 
 31 32  1  0  0  0  0 
 32 33  1  0  0  0  0 
 30 34  1  0  0  0  0 
 34 35  1  0  0  0  0 
M  END
> <Rank>
31

> <Priority_score>
0.05360000000000001

> <Reaction_type>
alkyl dehydrogenation

> <Parent_ID>
34

> <Parent_InChI>
InChI=1S/C17H17NO2/c1-18-8-7-10-3-2-4-12-15(10)13(18)9-11-5-6-14(19)17(20)16(11)12/h2-6,13,19-20H,7-9H2,1H3

> <Parent_SMILES>
CN1CCc2cccc3c2[C@H]1Cc1ccc(O)c(O)c1-3

$$$$
Molecule 35
  CDK     0516241031

 23 27  0  0  0  0  0  0  0  0999 V2000
    0.5130    3.4906    0.0000 C   0  0  0  0  0  0  0  0  0  0  0  0
    1.8121    2.7406    0.0000 N   0  0  0  0  0  0  0  0  0  0  0  0
    3.1111    3.4906    0.0000 C   0  0  0  0  0  0  0  0  0  0  0  0
    4.4102    2.7406    0.0000 C   0  0  0  0  0  0  0  0  0  0  0  0
    5.7092    3.4906    0.0000 C   0  0  0  0  0  0  0  0  0  0  0  0
    5.7092    4.9906    0.0000 C   0  0  0  0  0  0  0  0  0  0  0  0
    4.4102    5.7406    0.0000 C   0  0  0  0  0  0  0  0  0  0  0  0
    3.1111    4.9906    0.0000 C   0  0  0  0  0  0  0  0  0  0  0  0
    4.4102    1.2406    0.0000 C   0  0  0  0  0  0  0  0  0  0  0  0
    5.7092    0.4906    0.0000 O   0  0  0  0  0  0  0  0  0  0  0  0
    3.1111    0.4906    0.0000 N   0  0  0  0  0  0  0  0  0  0  0  0
    3.1111   -1.0094    0.0000 C   0  0  0  0  0  0  0  0  0  0  0  0
    1.8121   -1.7594    0.0000 C   0  0  0  0  0  0  0  0  0  0  0  0
    0.5130   -1.0094    0.0000 C   0  0  0  0  0  0  0  0  0  0  0  0
    0.5130    0.4906    0.0000 C   0  0  0  0  0  0  0  0  0  0  0  0
    1.8121    1.2406    0.0000 C   0  0  0  0  0  0  0  0  0  0  0  0
   -0.9135    0.9542    0.0000 N   0  0  0  0  0  0  0  0  0  0  0  0
   -1.7952   -0.2594    0.0000 C   0  0  0  0  0  0  0  0  0  0  0  0
   -0.9135   -1.4729    0.0000 C   0  0  0  0  0  0  0  0  0  0  0  0
   -1.5237   -2.8432    0.0000 C   0  0  0  0  0  0  0  0  0  0  0  0
   -3.0154   -3.0000    0.0000 C   0  0  0  0  0  0  0  0  0  0  0  0
   -3.8971   -1.7865    0.0000 C   0  0  0  0  0  0  0  0  0  0  0  0
   -3.2870   -0.4162    0.0000 C   0  0  0  0  0  0  0  0  0  0  0  0
  1  2  1  0  0  0  0 
  2  3  1  0  0  0  0 
  3  4  2  0  0  0  0 
  4  5  1  0  0  0  0 
  5  6  2  0  0  0  0 
  6  7  1  0  0  0  0 
  7  8  2  0  0  0  0 
  3  8  1  0  0  0  0 
  4  9  1  0  0  0  0 
  9 10  2  0  0  0  0 
  9 11  1  0  0  0  0 
 11 12  1  0  0  0  0 
 12 13  1  0  0  0  0 
 13 14  1  0  0  0  0 
 14 15  2  0  0  0  0 
 15 16  1  0  0  0  0 
  2 16  1  0  0  0  0 
 11 16  1  0  0  0  0 
 15 17  1  0  0  0  0 
 17 18  1  0  0  0  0 
 18 19  2  0  0  0  0 
 14 19  1  0  0  0  0 
 19 20  1  0  0  0  0 
 20 21  2  0  0  0  0 
 21 22  1  0  0  0  0 
 22 23  2  0  0  0  0 
 18 23  1  0  0  0  0 
M  END
> <SMILES>
CN1c2ccccc2C(=O)N2CCc3c([nH]c4ccccc34)C21

$$$$
Molecule 35_metabolite 1
  CDK     0516241031

 37 41  0  0  0  0  0  0  0  0999 V2000
   -7.4256    5.7406    0.0000 C   0  0  0  0  0  0  0  0  0  0  0  0
   -8.0357    7.1110    0.0000 H   0  0  0  0  0  0  0  0  0  0  0  0
   -5.9338    5.5838    0.0000 C   0  0  0  0  0  0  0  0  0  0  0  0
   -5.0521    6.7974    0.0000 H   0  0  0  0  0  0  0  0  0  0  0  0
   -5.3237    4.2135    0.0000 C   0  0  0  0  0  0  0  0  0  0  0  0
   -6.2054    3.0000    0.0000 C   0  0  0  0  0  0  0  0  0  0  0  0
   -7.6972    3.1568    0.0000 C   0  0  0  0  0  0  0  0  0  0  0  0
   -8.5788    1.9433    0.0000 H   0  0  0  0  0  0  0  0  0  0  0  0
   -8.3073    4.5271    0.0000 C   0  0  0  0  0  0  0  0  0  0  0  0
   -9.7990    4.6839    0.0000 H   0  0  0  0  0  0  0  0  0  0  0  0
   -5.3237    1.7865    0.0000 N   0  0  0  0  0  0  0  0  0  0  0  0
   -5.7872    0.3599    0.0000 H   0  0  0  0  0  0  0  0  0  0  0  0
   -3.8971    2.2500    0.0000 C   0  0  0  0  0  0  0  0  0  0  0  0
   -3.8971    3.7500    0.0000 C   0  0  0  0  0  0  0  0  0  0  0  0
   -2.5981    4.5000    0.0000 C   0  0  0  0  0  0  0  0  0  0  0  0
   -1.6339    5.6491    0.0000 H   0  0  0  0  0  0  0  0  0  0  0  0
   -3.5623    5.6491    0.0000 H   0  0  0  0  0  0  0  0  0  0  0  0
   -1.2990    3.7500    0.0000 C   0  0  0  0  0  0  0  0  0  0  0  0
    0.1782    3.4895    0.0000 H   0  0  0  0  0  0  0  0  0  0  0  0
   -0.7860    5.1595    0.0000 H   0  0  0  0  0  0  0  0  0  0  0  0
   -1.2990    2.2500    0.0000 N   0  0  0  0  0  0  0  0  0  0  0  0
   -2.5981    1.5000    0.0000 C   0  0  0  0  0  0  0  0  0  0  0  0
   -3.8971    0.7500    0.0000 H   0  0  0  0  0  0  0  0  0  0  0  0
   -2.5981   -0.0000    0.0000 N   0  0  0  0  0  0  0  0  0  0  0  0
   -3.8971   -0.7500    0.0000 H   0  0  0  0  0  0  0  0  0  0  0  0
   -1.2990   -0.7500    0.0000 C   0  0  0  0  0  0  0  0  0  0  0  0
    0.0000    0.0000    0.0000 C   0  0  0  0  0  0  0  0  0  0  0  0
    1.2990   -0.7500    0.0000 C   0  0  0  0  0  0  0  0  0  0  0  0
    2.5981   -0.0000    0.0000 H   0  0  0  0  0  0  0  0  0  0  0  0
    1.2990   -2.2500    0.0000 C   0  0  0  0  0  0  0  0  0  0  0  0
    2.5981   -3.0000    0.0000 H   0  0  0  0  0  0  0  0  0  0  0  0
    0.0000   -3.0000    0.0000 C   0  0  0  0  0  0  0  0  0  0  0  0
   -0.0000   -4.5000    0.0000 H   0  0  0  0  0  0  0  0  0  0  0  0
   -1.2990   -2.2500    0.0000 C   0  0  0  0  0  0  0  0  0  0  0  0
   -2.5981   -3.0000    0.0000 H   0  0  0  0  0  0  0  0  0  0  0  0
    0.0000    1.5000    0.0000 C   0  0  0  0  0  0  0  0  0  0  0  0
    1.2990    2.2500    0.0000 O   0  0  0  0  0  0  0  0  0  0  0  0
  1  2  1  0  0  0  0 
  1  3  2  0  0  0  0 
  3  4  1  0  0  0  0 
  3  5  1  0  0  0  0 
  5  6  2  0  0  0  0 
  6  7  1  0  0  0  0 
  7  8  1  0  0  0  0 
  7  9  2  0  0  0  0 
  1  9  1  0  0  0  0 
  9 10  1  0  0  0  0 
  6 11  1  0  0  0  0 
 11 12  1  0  0  0  0 
 11 13  1  0  0  0  0 
 13 14  2  0  0  0  0 
  5 14  1  0  0  0  0 
 14 15  1  0  0  0  0 
 15 16  1  0  0  0  0 
 15 17  1  0  0  0  0 
 15 18  1  0  0  0  0 
 18 19  1  0  0  0  0 
 18 20  1  0  0  0  0 
 18 21  1  0  0  0  0 
 21 22  1  0  0  0  0 
 13 22  1  0  0  0  0 
 22 23  1  0  0  0  0 
 22 24  1  0  0  0  0 
 24 25  1  0  0  0  0 
 24 26  1  0  0  0  0 
 26 27  2  0  0  0  0 
 27 28  1  0  0  0  0 
 28 29  1  0  0  0  0 
 28 30  2  0  0  0  0 
 30 31  1  0  0  0  0 
 30 32  1  0  0  0  0 
 32 33  1  0  0  0  0 
 32 34  2  0  0  0  0 
 26 34  1  0  0  0  0 
 34 35  1  0  0  0  0 
 27 36  1  0  0  0  0 
 21 36  1  0  0  0  0 
 36 37  2  0  0  0  0 
M  END
> <Rank>
1

> <Priority_score>
0.568

> <Reaction_type>
N-demethylation_(R-N(CR)CH3)

> <Parent_ID>
35

> <Parent_InChI>
InChI=1S/C19H17N3O/c1-21-16-9-5-3-7-14(16)19(23)22-11-10-13-12-6-2-4-8-15(12)20-17(13)18(21)22/h2-9,18,20H,10-11H2,1H3

> <Parent_SMILES>
CN1c2ccccc2C(=O)N2CCc3c([nH]c4ccccc34)C21

$$$$
Molecule 35_metabolite 2
  CDK     0516241031

 41 45  0  0  0  0  0  0  0  0999 V2000
    1.0761    4.2605    0.0000 C   0  0  0  0  0  0  0  0  0  0  0  0
    2.0403    5.4096    0.0000 H   0  0  0  0  0  0  0  0  0  0  0  0
    0.1119    5.4096    0.0000 H   0  0  0  0  0  0  0  0  0  0  0  0
   -0.2229    3.5105    0.0000 H   0  0  0  0  0  0  0  0  0  0  0  0
    1.5891    2.8510    0.0000 N   0  0  0  0  0  0  0  0  0  0  0  0
    2.8882    3.6010    0.0000 C   0  0  0  0  0  0  0  0  0  0  0  0
    4.1872    2.8510    0.0000 C   0  0  0  0  0  0  0  0  0  0  0  0
    5.4862    3.6010    0.0000 C   0  0  0  0  0  0  0  0  0  0  0  0
    6.7853    2.8510    0.0000 H   0  0  0  0  0  0  0  0  0  0  0  0
    5.4862    5.1010    0.0000 C   0  0  0  0  0  0  0  0  0  0  0  0
    6.7853    5.8510    0.0000 H   0  0  0  0  0  0  0  0  0  0  0  0
    4.1872    5.8510    0.0000 C   0  0  0  0  0  0  0  0  0  0  0  0
    4.1872    7.3510    0.0000 H   0  0  0  0  0  0  0  0  0  0  0  0
    2.8882    5.1010    0.0000 C   0  0  0  0  0  0  0  0  0  0  0  0
    1.1734    6.0910    0.0000 H   0  0  0  0  0  0  0  0  0  0  0  0
    4.1872    1.3510    0.0000 C   0  0  0  0  0  0  0  0  0  0  0  0
    5.4862    0.6010    0.0000 O   0  0  0  0  0  0  0  0  0  0  0  0
    2.8882    0.6010    0.0000 N   0  0  0  0  0  0  0  0  0  0  0  0
    2.8882   -0.8990    0.0000 C   0  0  0  0  0  0  0  0  0  0  0  0
    3.4012   -2.3086    0.0000 H   0  0  0  0  0  0  0  0  0  0  0  0
    4.3654   -0.6386    0.0000 H   0  0  0  0  0  0  0  0  0  0  0  0
    1.5891   -1.6490    0.0000 C   0  0  0  0  0  0  0  0  0  0  0  0
    0.6249   -2.7981    0.0000 H   0  0  0  0  0  0  0  0  0  0  0  0
    2.5533   -2.7981    0.0000 H   0  0  0  0  0  0  0  0  0  0  0  0
    0.2901   -0.8990    0.0000 C   0  0  0  0  0  0  0  0  0  0  0  0
    0.2901    0.6010    0.0000 C   0  0  0  0  0  0  0  0  0  0  0  0
    1.5891    1.3510    0.0000 C   0  0  0  0  0  0  0  0  0  0  0  0
    2.8882    2.1010    0.0000 H   0  0  0  0  0  0  0  0  0  0  0  0
   -1.1365    1.0645    0.0000 N   0  0  0  0  0  0  0  0  0  0  0  0
   -1.6000    2.4911    0.0000 H   0  0  0  0  0  0  0  0  0  0  0  0
   -2.0182   -0.1490    0.0000 C   0  0  0  0  0  0  0  0  0  0  0  0
   -1.1365   -1.3626    0.0000 C   0  0  0  0  0  0  0  0  0  0  0  0
   -1.7466   -2.7329    0.0000 C   0  0  0  0  0  0  0  0  0  0  0  0
   -0.8649   -3.9464    0.0000 H   0  0  0  0  0  0  0  0  0  0  0  0
   -3.2384   -2.8897    0.0000 C   0  0  0  0  0  0  0  0  0  0  0  0
   -3.8485   -4.2600    0.0000 H   0  0  0  0  0  0  0  0  0  0  0  0
   -4.1201   -1.6762    0.0000 C   0  0  0  0  0  0  0  0  0  0  0  0
   -5.6118   -1.8329    0.0000 H   0  0  0  0  0  0  0  0  0  0  0  0
   -3.5100   -0.3058    0.0000 C   0  0  0  0  0  0  0  0  0  0  0  0
   -4.3916    0.9077    0.0000 H   0  0  0  0  0  0  0  0  0  0  0  0
    0.1119    2.5905    0.0000 O   0  0  0  0  0  0  0  0  0  0  0  0
  1  2  1  0  0  0  0 
  1  3  1  0  0  0  0 
  1  4  1  0  0  0  0 
  1  5  1  0  0  0  0 
  5  6  1  0  0  0  0 
  6  7  2  0  0  0  0 
  7  8  1  0  0  0  0 
  8  9  1  0  0  0  0 
  8 10  2  0  0  0  0 
 10 11  1  0  0  0  0 
 10 12  1  0  0  0  0 
 12 13  1  0  0  0  0 
 12 14  2  0  0  0  0 
  6 14  1  0  0  0  0 
 14 15  1  0  0  0  0 
  7 16  1  0  0  0  0 
 16 17  2  0  0  0  0 
 16 18  1  0  0  0  0 
 18 19  1  0  0  0  0 
 19 20  1  0  0  0  0 
 19 21  1  0  0  0  0 
 19 22  1  0  0  0  0 
 22 23  1  0  0  0  0 
 22 24  1  0  0  0  0 
 22 25  1  0  0  0  0 
 25 26  2  0  0  0  0 
 26 27  1  0  0  0  0 
 18 27  1  0  0  0  0 
  5 27  1  0  0  0  0 
 27 28  1  0  0  0  0 
 26 29  1  0  0  0  0 
 29 30  1  0  0  0  0 
 29 31  1  0  0  0  0 
 31 32  2  0  0  0  0 
 25 32  1  0  0  0  0 
 32 33  1  0  0  0  0 
 33 34  1  0  0  0  0 
 33 35  2  0  0  0  0 
 35 36  1  0  0  0  0 
 35 37  1  0  0  0  0 
 37 38  1  0  0  0  0 
 37 39  2  0  0  0  0 
 31 39  1  0  0  0  0 
 39 40  1  0  0  0  0 
  5 41  1  0  0  0  0 
M  CHG  1   5   1
M  CHG  1  41  -1
M  END
> <Rank>
1

> <Priority_score>
0.568

> <Reaction_type>
N-oxidation

> <Parent_ID>
35

> <Parent_InChI>
InChI=1S/C19H17N3O/c1-21-16-9-5-3-7-14(16)19(23)22-11-10-13-12-6-2-4-8-15(12)20-17(13)18(21)22/h2-9,18,20H,10-11H2,1H3

> <Parent_SMILES>
CN1c2ccccc2C(=O)N2CCc3c([nH]c4ccccc34)C21

$$$$
Molecule 35_metabolite 3
  CDK     0516241031

 41 45  0  0  0  0  0  0  0  0999 V2000
   -7.0099    5.9806    0.0000 C   0  0  0  0  0  0  0  0  0  0  0  0
   -7.6200    7.3510    0.0000 H   0  0  0  0  0  0  0  0  0  0  0  0
   -5.5181    5.8238    0.0000 C   0  0  0  0  0  0  0  0  0  0  0  0
   -4.6364    7.0374    0.0000 H   0  0  0  0  0  0  0  0  0  0  0  0
   -4.9080    4.4535    0.0000 C   0  0  0  0  0  0  0  0  0  0  0  0
   -5.7897    3.2400    0.0000 C   0  0  0  0  0  0  0  0  0  0  0  0
   -7.2815    3.3968    0.0000 C   0  0  0  0  0  0  0  0  0  0  0  0
   -8.1631    2.1833    0.0000 H   0  0  0  0  0  0  0  0  0  0  0  0
   -7.8916    4.7671    0.0000 C   0  0  0  0  0  0  0  0  0  0  0  0
   -9.3834    4.9239    0.0000 H   0  0  0  0  0  0  0  0  0  0  0  0
   -4.9080    2.0265    0.0000 N   0  0  0  0  0  0  0  0  0  0  0  0
   -5.3715    0.5999    0.0000 H   0  0  0  0  0  0  0  0  0  0  0  0
   -3.4814    2.4900    0.0000 C   0  0  0  0  0  0  0  0  0  0  0  0
   -3.4814    3.9900    0.0000 C   0  0  0  0  0  0  0  0  0  0  0  0
   -2.1824    4.7400    0.0000 C   0  0  0  0  0  0  0  0  0  0  0  0
   -1.2182    5.8891    0.0000 H   0  0  0  0  0  0  0  0  0  0  0  0
   -3.1466    5.8891    0.0000 H   0  0  0  0  0  0  0  0  0  0  0  0
   -0.8833    3.9900    0.0000 C   0  0  0  0  0  0  0  0  0  0  0  0
    0.5939    3.7295    0.0000 H   0  0  0  0  0  0  0  0  0  0  0  0
   -0.3703    5.3995    0.0000 H   0  0  0  0  0  0  0  0  0  0  0  0
   -0.8833    2.4900    0.0000 N   0  0  0  0  0  0  0  0  0  0  0  0
   -2.1824    1.7400    0.0000 C   0  0  0  0  0  0  0  0  0  0  0  0
   -3.4814    0.9900    0.0000 H   0  0  0  0  0  0  0  0  0  0  0  0
   -2.1824    0.2400    0.0000 N   0  0  0  0  0  0  0  0  0  0  0  0
   -3.8971   -0.7500    0.0000 C   0  0  0  0  0  0  0  0  0  0  0  0
   -4.4101    0.6595    0.0000 H   0  0  0  0  0  0  0  0  0  0  0  0
   -5.3743   -1.0105    0.0000 H   0  0  0  0  0  0  0  0  0  0  0  0
   -3.8971   -2.2500    0.0000 O   0  0  0  0  0  0  0  0  0  0  0  0
   -5.1962   -3.0000    0.0000 H   0  0  0  0  0  0  0  0  0  0  0  0
   -0.8833   -0.5100    0.0000 C   0  0  0  0  0  0  0  0  0  0  0  0
    0.4157    0.2400    0.0000 C   0  0  0  0  0  0  0  0  0  0  0  0
    1.7147   -0.5100    0.0000 C   0  0  0  0  0  0  0  0  0  0  0  0
    3.0138    0.2400    0.0000 H   0  0  0  0  0  0  0  0  0  0  0  0
    1.7147   -2.0100    0.0000 C   0  0  0  0  0  0  0  0  0  0  0  0
    3.0138   -2.7600    0.0000 H   0  0  0  0  0  0  0  0  0  0  0  0
    0.4157   -2.7600    0.0000 C   0  0  0  0  0  0  0  0  0  0  0  0
    0.4157   -4.2600    0.0000 H   0  0  0  0  0  0  0  0  0  0  0  0
   -0.8833   -2.0100    0.0000 C   0  0  0  0  0  0  0  0  0  0  0  0
   -2.1824   -2.7600    0.0000 H   0  0  0  0  0  0  0  0  0  0  0  0
    0.4157    1.7400    0.0000 C   0  0  0  0  0  0  0  0  0  0  0  0
    1.7147    2.4900    0.0000 O   0  0  0  0  0  0  0  0  0  0  0  0
  1  2  1  0  0  0  0 
  1  3  2  0  0  0  0 
  3  4  1  0  0  0  0 
  3  5  1  0  0  0  0 
  5  6  2  0  0  0  0 
  6  7  1  0  0  0  0 
  7  8  1  0  0  0  0 
  7  9  2  0  0  0  0 
  1  9  1  0  0  0  0 
  9 10  1  0  0  0  0 
  6 11  1  0  0  0  0 
 11 12  1  0  0  0  0 
 11 13  1  0  0  0  0 
 13 14  2  0  0  0  0 
  5 14  1  0  0  0  0 
 14 15  1  0  0  0  0 
 15 16  1  0  0  0  0 
 15 17  1  0  0  0  0 
 15 18  1  0  0  0  0 
 18 19  1  0  0  0  0 
 18 20  1  0  0  0  0 
 18 21  1  0  0  0  0 
 21 22  1  0  0  0  0 
 13 22  1  0  0  0  0 
 22 23  1  0  0  0  0 
 22 24  1  0  0  0  0 
 24 25  1  0  0  0  0 
 25 26  1  0  0  0  0 
 25 27  1  0  0  0  0 
 25 28  1  0  0  0  0 
 28 29  1  0  0  0  0 
 24 30  1  0  0  0  0 
 30 31  2  0  0  0  0 
 31 32  1  0  0  0  0 
 32 33  1  0  0  0  0 
 32 34  2  0  0  0  0 
 34 35  1  0  0  0  0 
 34 36  1  0  0  0  0 
 36 37  1  0  0  0  0 
 36 38  2  0  0  0  0 
 30 38  1  0  0  0  0 
 38 39  1  0  0  0  0 
 31 40  1  0  0  0  0 
 21 40  1  0  0  0  0 
 40 41  2  0  0  0  0 
M  END
> <Rank>
1

> <Priority_score>
0.568

> <Reaction_type>
aliphatic hydroxylation

> <Parent_ID>
35

> <Parent_InChI>
InChI=1S/C19H17N3O/c1-21-16-9-5-3-7-14(16)19(23)22-11-10-13-12-6-2-4-8-15(12)20-17(13)18(21)22/h2-9,18,20H,10-11H2,1H3

> <Parent_SMILES>
CN1c2ccccc2C(=O)N2CCc3c([nH]c4ccccc34)C21

$$$$
Molecule 35_metabolite 4
  CDK     0516241031

 41 45  0  0  0  0  0  0  0  0999 V2000
    0.8558    3.5751    0.0000 C   0  0  0  0  0  0  0  0  0  0  0  0
   -0.5538    3.0621    0.0000 H   0  0  0  0  0  0  0  0  0  0  0  0
    0.1058    4.8742    0.0000 H   0  0  0  0  0  0  0  0  0  0  0  0
    2.0048    4.5393    0.0000 H   0  0  0  0  0  0  0  0  0  0  0  0
    2.0048    2.6110    0.0000 N   0  0  0  0  0  0  0  0  0  0  0  0
    3.3039    3.3610    0.0000 C   0  0  0  0  0  0  0  0  0  0  0  0
    4.6029    2.6110    0.0000 C   0  0  0  0  0  0  0  0  0  0  0  0
    5.9019    3.3610    0.0000 C   0  0  0  0  0  0  0  0  0  0  0  0
    7.2010    2.6110    0.0000 H   0  0  0  0  0  0  0  0  0  0  0  0
    5.9019    4.8610    0.0000 C   0  0  0  0  0  0  0  0  0  0  0  0
    7.2010    5.6110    0.0000 H   0  0  0  0  0  0  0  0  0  0  0  0
    4.6029    5.6110    0.0000 C   0  0  0  0  0  0  0  0  0  0  0  0
    4.6029    7.1110    0.0000 H   0  0  0  0  0  0  0  0  0  0  0  0
    3.3039    4.8610    0.0000 C   0  0  0  0  0  0  0  0  0  0  0  0
    2.0048    5.6110    0.0000 H   0  0  0  0  0  0  0  0  0  0  0  0
    4.6029    1.1110    0.0000 C   0  0  0  0  0  0  0  0  0  0  0  0
    5.9019    0.3610    0.0000 O   0  0  0  0  0  0  0  0  0  0  0  0
    3.3039    0.3610    0.0000 N   0  0  0  0  0  0  0  0  0  0  0  0
    3.3039   -1.1390    0.0000 C   0  0  0  0  0  0  0  0  0  0  0  0
    3.8169   -2.5486    0.0000 H   0  0  0  0  0  0  0  0  0  0  0  0
    4.7811   -0.8786    0.0000 H   0  0  0  0  0  0  0  0  0  0  0  0
    2.0048   -1.8890    0.0000 C   0  0  0  0  0  0  0  0  0  0  0  0
    1.0406   -3.0381    0.0000 H   0  0  0  0  0  0  0  0  0  0  0  0
    0.7058   -1.1390    0.0000 C   0  0  0  0  0  0  0  0  0  0  0  0
    0.7058    0.3610    0.0000 C   0  0  0  0  0  0  0  0  0  0  0  0
    2.0048    1.1110    0.0000 C   0  0  0  0  0  0  0  0  0  0  0  0
    0.7058    1.8610    0.0000 H   0  0  0  0  0  0  0  0  0  0  0  0
   -0.7208    0.8245    0.0000 N   0  0  0  0  0  0  0  0  0  0  0  0
   -1.1843    2.2511    0.0000 H   0  0  0  0  0  0  0  0  0  0  0  0
   -1.6025   -0.3890    0.0000 C   0  0  0  0  0  0  0  0  0  0  0  0
   -0.7208   -1.6026    0.0000 C   0  0  0  0  0  0  0  0  0  0  0  0
   -1.3309   -2.9729    0.0000 C   0  0  0  0  0  0  0  0  0  0  0  0
   -0.4492   -4.1864    0.0000 H   0  0  0  0  0  0  0  0  0  0  0  0
   -2.8227   -3.1297    0.0000 C   0  0  0  0  0  0  0  0  0  0  0  0
   -3.4328   -4.5000    0.0000 H   0  0  0  0  0  0  0  0  0  0  0  0
   -3.7044   -1.9162    0.0000 C   0  0  0  0  0  0  0  0  0  0  0  0
   -5.1962   -2.0729    0.0000 H   0  0  0  0  0  0  0  0  0  0  0  0
   -3.0943   -0.5458    0.0000 C   0  0  0  0  0  0  0  0  0  0  0  0
   -3.9759    0.6677    0.0000 H   0  0  0  0  0  0  0  0  0  0  0  0
    2.9690   -3.0381    0.0000 O   0  0  0  0  0  0  0  0  0  0  0  0
    2.4560   -4.4477    0.0000 H   0  0  0  0  0  0  0  0  0  0  0  0
  1  2  1  0  0  0  0 
  1  3  1  0  0  0  0 
  1  4  1  0  0  0  0 
  1  5  1  0  0  0  0 
  5  6  1  0  0  0  0 
  6  7  2  0  0  0  0 
  7  8  1  0  0  0  0 
  8  9  1  0  0  0  0 
  8 10  2  0  0  0  0 
 10 11  1  0  0  0  0 
 10 12  1  0  0  0  0 
 12 13  1  0  0  0  0 
 12 14  2  0  0  0  0 
  6 14  1  0  0  0  0 
 14 15  1  0  0  0  0 
  7 16  1  0  0  0  0 
 16 17  2  0  0  0  0 
 16 18  1  0  0  0  0 
 18 19  1  0  0  0  0 
 19 20  1  0  0  0  0 
 19 21  1  0  0  0  0 
 19 22  1  0  0  0  0 
 22 23  1  0  0  0  0 
 22 24  1  0  0  0  0 
 24 25  2  0  0  0  0 
 25 26  1  0  0  0  0 
  5 26  1  0  0  0  0 
 18 26  1  0  0  0  0 
 26 27  1  0  0  0  0 
 25 28  1  0  0  0  0 
 28 29  1  0  0  0  0 
 28 30  1  0  0  0  0 
 30 31  2  0  0  0  0 
 24 31  1  0  0  0  0 
 31 32  1  0  0  0  0 
 32 33  1  0  0  0  0 
 32 34  2  0  0  0  0 
 34 35  1  0  0  0  0 
 34 36  1  0  0  0  0 
 36 37  1  0  0  0  0 
 36 38  2  0  0  0  0 
 30 38  1  0  0  0  0 
 38 39  1  0  0  0  0 
 22 40  1  0  0  0  0 
 40 41  1  0  0  0  0 
M  END
> <Rank>
4

> <Priority_score>
0.54

> <Reaction_type>
benzylic_hydroxylation_(c-CH2-CR)

> <Parent_ID>
35

> <Parent_InChI>
InChI=1S/C19H17N3O/c1-21-16-9-5-3-7-14(16)19(23)22-11-10-13-12-6-2-4-8-15(12)20-17(13)18(21)22/h2-9,18,20H,10-11H2,1H3

> <Parent_SMILES>
CN1c2ccccc2C(=O)N2CCc3c([nH]c4ccccc34)C21

$$$$
Molecule 35_metabolite 5
  CDK     0516241031

 41 45  0  0  0  0  0  0  0  0999 V2000
    0.8558    3.5751    0.0000 C   0  0  0  0  0  0  0  0  0  0  0  0
   -0.5538    3.0621    0.0000 H   0  0  0  0  0  0  0  0  0  0  0  0
    0.1058    4.8742    0.0000 H   0  0  0  0  0  0  0  0  0  0  0  0
    2.0048    4.5393    0.0000 H   0  0  0  0  0  0  0  0  0  0  0  0
    2.0048    2.6110    0.0000 N   0  0  0  0  0  0  0  0  0  0  0  0
    3.3039    3.3610    0.0000 C   0  0  0  0  0  0  0  0  0  0  0  0
    4.6029    2.6110    0.0000 C   0  0  0  0  0  0  0  0  0  0  0  0
    5.9019    3.3610    0.0000 C   0  0  0  0  0  0  0  0  0  0  0  0
    7.2010    2.6110    0.0000 H   0  0  0  0  0  0  0  0  0  0  0  0
    5.9019    4.8610    0.0000 C   0  0  0  0  0  0  0  0  0  0  0  0
    7.2010    5.6110    0.0000 H   0  0  0  0  0  0  0  0  0  0  0  0
    4.6029    5.6110    0.0000 C   0  0  0  0  0  0  0  0  0  0  0  0
    4.6029    7.1110    0.0000 H   0  0  0  0  0  0  0  0  0  0  0  0
    3.3039    4.8610    0.0000 C   0  0  0  0  0  0  0  0  0  0  0  0
    2.0048    5.6110    0.0000 H   0  0  0  0  0  0  0  0  0  0  0  0
    4.6029    1.1110    0.0000 C   0  0  0  0  0  0  0  0  0  0  0  0
    5.9019    0.3610    0.0000 O   0  0  0  0  0  0  0  0  0  0  0  0
    3.3039    0.3610    0.0000 N   0  0  0  0  0  0  0  0  0  0  0  0
    3.3039   -1.1390    0.0000 C   0  0  0  0  0  0  0  0  0  0  0  0
    3.8169   -2.5486    0.0000 H   0  0  0  0  0  0  0  0  0  0  0  0
    2.0048   -1.8890    0.0000 C   0  0  0  0  0  0  0  0  0  0  0  0
    1.0406   -3.0381    0.0000 H   0  0  0  0  0  0  0  0  0  0  0  0
    2.9690   -3.0381    0.0000 H   0  0  0  0  0  0  0  0  0  0  0  0
    0.7058   -1.1390    0.0000 C   0  0  0  0  0  0  0  0  0  0  0  0
    0.7058    0.3610    0.0000 C   0  0  0  0  0  0  0  0  0  0  0  0
    2.0048    1.1110    0.0000 C   0  0  0  0  0  0  0  0  0  0  0  0
    0.7058    1.8610    0.0000 H   0  0  0  0  0  0  0  0  0  0  0  0
   -0.7208    0.8245    0.0000 N   0  0  0  0  0  0  0  0  0  0  0  0
   -1.1843    2.2511    0.0000 H   0  0  0  0  0  0  0  0  0  0  0  0
   -1.6025   -0.3890    0.0000 C   0  0  0  0  0  0  0  0  0  0  0  0
   -0.7208   -1.6026    0.0000 C   0  0  0  0  0  0  0  0  0  0  0  0
   -1.3309   -2.9729    0.0000 C   0  0  0  0  0  0  0  0  0  0  0  0
   -0.4492   -4.1864    0.0000 H   0  0  0  0  0  0  0  0  0  0  0  0
   -2.8227   -3.1297    0.0000 C   0  0  0  0  0  0  0  0  0  0  0  0
   -3.4328   -4.5000    0.0000 H   0  0  0  0  0  0  0  0  0  0  0  0
   -3.7044   -1.9162    0.0000 C   0  0  0  0  0  0  0  0  0  0  0  0
   -5.1962   -2.0729    0.0000 H   0  0  0  0  0  0  0  0  0  0  0  0
   -3.0943   -0.5458    0.0000 C   0  0  0  0  0  0  0  0  0  0  0  0
   -3.9759    0.6677    0.0000 H   0  0  0  0  0  0  0  0  0  0  0  0
    4.7811   -0.8786    0.0000 O   0  0  0  0  0  0  0  0  0  0  0  0
    5.7453   -2.0276    0.0000 H   0  0  0  0  0  0  0  0  0  0  0  0
  1  2  1  0  0  0  0 
  1  3  1  0  0  0  0 
  1  4  1  0  0  0  0 
  1  5  1  0  0  0  0 
  5  6  1  0  0  0  0 
  6  7  2  0  0  0  0 
  7  8  1  0  0  0  0 
  8  9  1  0  0  0  0 
  8 10  2  0  0  0  0 
 10 11  1  0  0  0  0 
 10 12  1  0  0  0  0 
 12 13  1  0  0  0  0 
 12 14  2  0  0  0  0 
  6 14  1  0  0  0  0 
 14 15  1  0  0  0  0 
  7 16  1  0  0  0  0 
 16 17  2  0  0  0  0 
 16 18  1  0  0  0  0 
 18 19  1  0  0  0  0 
 19 20  1  0  0  0  0 
 19 21  1  0  0  0  0 
 21 22  1  0  0  0  0 
 21 23  1  0  0  0  0 
 21 24  1  0  0  0  0 
 24 25  2  0  0  0  0 
 25 26  1  0  0  0  0 
  5 26  1  0  0  0  0 
 18 26  1  0  0  0  0 
 26 27  1  0  0  0  0 
 25 28  1  0  0  0  0 
 28 29  1  0  0  0  0 
 28 30  1  0  0  0  0 
 30 31  2  0  0  0  0 
 24 31  1  0  0  0  0 
 31 32  1  0  0  0  0 
 32 33  1  0  0  0  0 
 32 34  2  0  0  0  0 
 34 35  1  0  0  0  0 
 34 36  1  0  0  0  0 
 36 37  1  0  0  0  0 
 36 38  2  0  0  0  0 
 30 38  1  0  0  0  0 
 38 39  1  0  0  0  0 
 19 40  1  0  0  0  0 
 40 41  1  0  0  0  0 
M  END
> <Rank>
4

> <Priority_score>
0.54

> <Reaction_type>
aliphatic_hydroxylation_(sec_carbon_next_to_SP2,in_a_ring)

> <Parent_ID>
35

> <Parent_InChI>
InChI=1S/C19H17N3O/c1-21-16-9-5-3-7-14(16)19(23)22-11-10-13-12-6-2-4-8-15(12)20-17(13)18(21)22/h2-9,18,20H,10-11H2,1H3

> <Parent_SMILES>
CN1c2ccccc2C(=O)N2CCc3c([nH]c4ccccc34)C21

$$$$
Molecule 35_metabolite 6
  CDK     0516241031

 38 42  0  0  0  0  0  0  0  0999 V2000
    0.8558    3.5751    0.0000 C   0  0  0  0  0  0  0  0  0  0  0  0
   -0.5538    3.0621    0.0000 H   0  0  0  0  0  0  0  0  0  0  0  0
    0.1058    4.8742    0.0000 H   0  0  0  0  0  0  0  0  0  0  0  0
    2.0048    4.5393    0.0000 H   0  0  0  0  0  0  0  0  0  0  0  0
    2.0048    2.6110    0.0000 N   0  0  0  0  0  0  0  0  0  0  0  0
    3.3039    3.3610    0.0000 C   0  0  0  0  0  0  0  0  0  0  0  0
    4.6029    2.6110    0.0000 C   0  0  0  0  0  0  0  0  0  0  0  0
    5.9019    3.3610    0.0000 C   0  0  0  0  0  0  0  0  0  0  0  0
    7.2010    2.6110    0.0000 H   0  0  0  0  0  0  0  0  0  0  0  0
    5.9019    4.8610    0.0000 C   0  0  0  0  0  0  0  0  0  0  0  0
    7.2010    5.6110    0.0000 H   0  0  0  0  0  0  0  0  0  0  0  0
    4.6029    5.6110    0.0000 C   0  0  0  0  0  0  0  0  0  0  0  0
    4.6029    7.1110    0.0000 H   0  0  0  0  0  0  0  0  0  0  0  0
    3.3039    4.8610    0.0000 C   0  0  0  0  0  0  0  0  0  0  0  0
    2.0048    5.6110    0.0000 H   0  0  0  0  0  0  0  0  0  0  0  0
    4.6029    1.1110    0.0000 C   0  0  0  0  0  0  0  0  0  0  0  0
    5.9019    0.3610    0.0000 O   0  0  0  0  0  0  0  0  0  0  0  0
    3.3039    0.3610    0.0000 N   0  0  0  0  0  0  0  0  0  0  0  0
    3.3039   -1.1390    0.0000 C   0  0  0  0  0  0  0  0  0  0  0  0
    4.6029   -1.8890    0.0000 H   0  0  0  0  0  0  0  0  0  0  0  0
    2.0048   -1.8890    0.0000 C   0  0  0  0  0  0  0  0  0  0  0  0
    2.0048   -3.3890    0.0000 H   0  0  0  0  0  0  0  0  0  0  0  0
    0.7058   -1.1390    0.0000 C   0  0  0  0  0  0  0  0  0  0  0  0
    0.7058    0.3610    0.0000 C   0  0  0  0  0  0  0  0  0  0  0  0
    2.0048    1.1110    0.0000 C   0  0  0  0  0  0  0  0  0  0  0  0
    0.7058    1.8610    0.0000 H   0  0  0  0  0  0  0  0  0  0  0  0
   -0.7208    0.8245    0.0000 N   0  0  0  0  0  0  0  0  0  0  0  0
   -1.1843    2.2511    0.0000 H   0  0  0  0  0  0  0  0  0  0  0  0
   -1.6025   -0.3890    0.0000 C   0  0  0  0  0  0  0  0  0  0  0  0
   -0.7208   -1.6026    0.0000 C   0  0  0  0  0  0  0  0  0  0  0  0
   -1.3309   -2.9729    0.0000 C   0  0  0  0  0  0  0  0  0  0  0  0
   -0.4492   -4.1864    0.0000 H   0  0  0  0  0  0  0  0  0  0  0  0
   -2.8227   -3.1297    0.0000 C   0  0  0  0  0  0  0  0  0  0  0  0
   -3.4328   -4.5000    0.0000 H   0  0  0  0  0  0  0  0  0  0  0  0
   -3.7044   -1.9162    0.0000 C   0  0  0  0  0  0  0  0  0  0  0  0
   -5.1962   -2.0729    0.0000 H   0  0  0  0  0  0  0  0  0  0  0  0
   -3.0943   -0.5458    0.0000 C   0  0  0  0  0  0  0  0  0  0  0  0
   -3.9759    0.6677    0.0000 H   0  0  0  0  0  0  0  0  0  0  0  0
  1  2  1  0  0  0  0 
  1  3  1  0  0  0  0 
  1  4  1  0  0  0  0 
  1  5  1  0  0  0  0 
  5  6  1  0  0  0  0 
  6  7  2  0  0  0  0 
  7  8  1  0  0  0  0 
  8  9  1  0  0  0  0 
  8 10  2  0  0  0  0 
 10 11  1  0  0  0  0 
 10 12  1  0  0  0  0 
 12 13  1  0  0  0  0 
 12 14  2  0  0  0  0 
  6 14  1  0  0  0  0 
 14 15  1  0  0  0  0 
  7 16  1  0  0  0  0 
 16 17  2  0  0  0  0 
 16 18  1  0  0  0  0 
 18 19  1  0  0  0  0 
 19 20  1  0  0  0  0 
 19 21  2  0  0  0  0 
 21 22  1  0  0  0  0 
 21 23  1  0  0  0  0 
 23 24  2  0  0  0  0 
 24 25  1  0  0  0  0 
  5 25  1  0  0  0  0 
 18 25  1  0  0  0  0 
 25 26  1  0  0  0  0 
 24 27  1  0  0  0  0 
 27 28  1  0  0  0  0 
 27 29  1  0  0  0  0 
 29 30  2  0  0  0  0 
 23 30  1  0  0  0  0 
 30 31  1  0  0  0  0 
 31 32  1  0  0  0  0 
 31 33  2  0  0  0  0 
 33 34  1  0  0  0  0 
 33 35  1  0  0  0  0 
 35 36  1  0  0  0  0 
 35 37  2  0  0  0  0 
 29 37  1  0  0  0  0 
 37 38  1  0  0  0  0 
M  END
> <Rank>
4

> <Priority_score>
0.54

> <Reaction_type>
dehydrogenation_(alpha,beta_to_SP2_both_sides)

> <Parent_ID>
35

> <Parent_InChI>
InChI=1S/C19H17N3O/c1-21-16-9-5-3-7-14(16)19(23)22-11-10-13-12-6-2-4-8-15(12)20-17(13)18(21)22/h2-9,18,20H,10-11H2,1H3

> <Parent_SMILES>
CN1c2ccccc2C(=O)N2CCc3c([nH]c4ccccc34)C21

$$$$
Molecule 35_metabolite 7
  CDK     0516241031

 39 43  0  0  0  0  0  0  0  0999 V2000
    0.8558    3.5751    0.0000 C   0  0  0  0  0  0  0  0  0  0  0  0
   -0.5538    3.0621    0.0000 H   0  0  0  0  0  0  0  0  0  0  0  0
    0.1058    4.8742    0.0000 H   0  0  0  0  0  0  0  0  0  0  0  0
    2.0048    4.5393    0.0000 H   0  0  0  0  0  0  0  0  0  0  0  0
    2.0048    2.6110    0.0000 N   0  0  0  0  0  0  0  0  0  0  0  0
    3.3039    3.3610    0.0000 C   0  0  0  0  0  0  0  0  0  0  0  0
    4.6029    2.6110    0.0000 C   0  0  0  0  0  0  0  0  0  0  0  0
    5.9019    3.3610    0.0000 C   0  0  0  0  0  0  0  0  0  0  0  0
    7.2010    2.6110    0.0000 H   0  0  0  0  0  0  0  0  0  0  0  0
    5.9019    4.8610    0.0000 C   0  0  0  0  0  0  0  0  0  0  0  0
    7.2010    5.6110    0.0000 H   0  0  0  0  0  0  0  0  0  0  0  0
    4.6029    5.6110    0.0000 C   0  0  0  0  0  0  0  0  0  0  0  0
    4.6029    7.1110    0.0000 H   0  0  0  0  0  0  0  0  0  0  0  0
    3.3039    4.8610    0.0000 C   0  0  0  0  0  0  0  0  0  0  0  0
    2.0048    5.6110    0.0000 H   0  0  0  0  0  0  0  0  0  0  0  0
    4.6029    1.1110    0.0000 C   0  0  0  0  0  0  0  0  0  0  0  0
    5.9019    0.3610    0.0000 O   0  0  0  0  0  0  0  0  0  0  0  0
    3.3039    0.3610    0.0000 N   0  0  0  0  0  0  0  0  0  0  0  0
    3.3039   -1.1390    0.0000 C   0  0  0  0  0  0  0  0  0  0  0  0
    4.6029   -1.8890    0.0000 O   0  0  0  0  0  0  0  0  0  0  0  0
    2.0048   -1.8890    0.0000 C   0  0  0  0  0  0  0  0  0  0  0  0
    1.0406   -3.0381    0.0000 H   0  0  0  0  0  0  0  0  0  0  0  0
    2.9690   -3.0381    0.0000 H   0  0  0  0  0  0  0  0  0  0  0  0
    0.7058   -1.1390    0.0000 C   0  0  0  0  0  0  0  0  0  0  0  0
    0.7058    0.3610    0.0000 C   0  0  0  0  0  0  0  0  0  0  0  0
    2.0048    1.1110    0.0000 C   0  0  0  0  0  0  0  0  0  0  0  0
    0.7058    1.8610    0.0000 H   0  0  0  0  0  0  0  0  0  0  0  0
   -0.7208    0.8245    0.0000 N   0  0  0  0  0  0  0  0  0  0  0  0
   -1.1843    2.2511    0.0000 H   0  0  0  0  0  0  0  0  0  0  0  0
   -1.6025   -0.3890    0.0000 C   0  0  0  0  0  0  0  0  0  0  0  0
   -0.7208   -1.6026    0.0000 C   0  0  0  0  0  0  0  0  0  0  0  0
   -1.3309   -2.9729    0.0000 C   0  0  0  0  0  0  0  0  0  0  0  0
   -0.4492   -4.1864    0.0000 H   0  0  0  0  0  0  0  0  0  0  0  0
   -2.8227   -3.1297    0.0000 C   0  0  0  0  0  0  0  0  0  0  0  0
   -3.4328   -4.5000    0.0000 H   0  0  0  0  0  0  0  0  0  0  0  0
   -3.7044   -1.9162    0.0000 C   0  0  0  0  0  0  0  0  0  0  0  0
   -5.1962   -2.0729    0.0000 H   0  0  0  0  0  0  0  0  0  0  0  0
   -3.0943   -0.5458    0.0000 C   0  0  0  0  0  0  0  0  0  0  0  0
   -3.9759    0.6677    0.0000 H   0  0  0  0  0  0  0  0  0  0  0  0
  1  2  1  0  0  0  0 
  1  3  1  0  0  0  0 
  1  4  1  0  0  0  0 
  1  5  1  0  0  0  0 
  5  6  1  0  0  0  0 
  6  7  2  0  0  0  0 
  7  8  1  0  0  0  0 
  8  9  1  0  0  0  0 
  8 10  2  0  0  0  0 
 10 11  1  0  0  0  0 
 10 12  1  0  0  0  0 
 12 13  1  0  0  0  0 
 12 14  2  0  0  0  0 
  6 14  1  0  0  0  0 
 14 15  1  0  0  0  0 
  7 16  1  0  0  0  0 
 16 17  2  0  0  0  0 
 16 18  1  0  0  0  0 
 18 19  1  0  0  0  0 
 19 20  2  0  0  0  0 
 19 21  1  0  0  0  0 
 21 22  1  0  0  0  0 
 21 23  1  0  0  0  0 
 21 24  1  0  0  0  0 
 24 25  2  0  0  0  0 
 25 26  1  0  0  0  0 
  5 26  1  0  0  0  0 
 18 26  1  0  0  0  0 
 26 27  1  0  0  0  0 
 25 28  1  0  0  0  0 
 28 29  1  0  0  0  0 
 28 30  1  0  0  0  0 
 30 31  2  0  0  0  0 
 24 31  1  0  0  0  0 
 31 32  1  0  0  0  0 
 32 33  1  0  0  0  0 
 32 34  2  0  0  0  0 
 34 35  1  0  0  0  0 
 34 36  1  0  0  0  0 
 36 37  1  0  0  0  0 
 36 38  2  0  0  0  0 
 30 38  1  0  0  0  0 
 38 39  1  0  0  0  0 
M  END
> <Rank>
4

> <Priority_score>
0.54

> <Reaction_type>
oxidation_(amine_in_a_ring)

> <Parent_ID>
35

> <Parent_InChI>
InChI=1S/C19H17N3O/c1-21-16-9-5-3-7-14(16)19(23)22-11-10-13-12-6-2-4-8-15(12)20-17(13)18(21)22/h2-9,18,20H,10-11H2,1H3

> <Parent_SMILES>
CN1c2ccccc2C(=O)N2CCc3c([nH]c4ccccc34)C21

$$$$
Molecule 35_metabolite 8
  CDK     0516241031

 41 45  0  0  0  0  0  0  0  0999 V2000
    1.4659    3.5751    0.0000 C   0  0  0  0  0  0  0  0  0  0  0  0
    0.0563    3.0621    0.0000 H   0  0  0  0  0  0  0  0  0  0  0  0
    0.7159    4.8742    0.0000 H   0  0  0  0  0  0  0  0  0  0  0  0
    2.6149    4.5393    0.0000 H   0  0  0  0  0  0  0  0  0  0  0  0
    2.6149    2.6110    0.0000 N   0  0  0  0  0  0  0  0  0  0  0  0
    3.9140    3.3610    0.0000 C   0  0  0  0  0  0  0  0  0  0  0  0
    5.2130    2.6110    0.0000 C   0  0  0  0  0  0  0  0  0  0  0  0
    6.5120    3.3610    0.0000 C   0  0  0  0  0  0  0  0  0  0  0  0
    7.8111    2.6110    0.0000 H   0  0  0  0  0  0  0  0  0  0  0  0
    6.5120    4.8610    0.0000 C   0  0  0  0  0  0  0  0  0  0  0  0
    7.8111    5.6110    0.0000 H   0  0  0  0  0  0  0  0  0  0  0  0
    5.2130    5.6110    0.0000 C   0  0  0  0  0  0  0  0  0  0  0  0
    5.2130    7.1110    0.0000 H   0  0  0  0  0  0  0  0  0  0  0  0
    3.9140    4.8610    0.0000 C   0  0  0  0  0  0  0  0  0  0  0  0
    2.6149    5.6110    0.0000 H   0  0  0  0  0  0  0  0  0  0  0  0
    5.2130    1.1110    0.0000 C   0  0  0  0  0  0  0  0  0  0  0  0
    6.5120    0.3610    0.0000 O   0  0  0  0  0  0  0  0  0  0  0  0
    3.9140    0.3610    0.0000 N   0  0  0  0  0  0  0  0  0  0  0  0
    3.9140   -1.1390    0.0000 C   0  0  0  0  0  0  0  0  0  0  0  0
    4.4270   -2.5486    0.0000 H   0  0  0  0  0  0  0  0  0  0  0  0
    5.3912   -0.8786    0.0000 H   0  0  0  0  0  0  0  0  0  0  0  0
    2.6149   -1.8890    0.0000 C   0  0  0  0  0  0  0  0  0  0  0  0
    1.6507   -3.0381    0.0000 H   0  0  0  0  0  0  0  0  0  0  0  0
    3.5791   -3.0381    0.0000 H   0  0  0  0  0  0  0  0  0  0  0  0
    1.3159   -1.1390    0.0000 C   0  0  0  0  0  0  0  0  0  0  0  0
    1.3159    0.3610    0.0000 C   0  0  0  0  0  0  0  0  0  0  0  0
    2.6149    1.1110    0.0000 C   0  0  0  0  0  0  0  0  0  0  0  0
    1.3159    1.8610    0.0000 H   0  0  0  0  0  0  0  0  0  0  0  0
   -0.1107    0.8245    0.0000 N   0  0  0  0  0  0  0  0  0  0  0  0
   -0.5742    2.2511    0.0000 H   0  0  0  0  0  0  0  0  0  0  0  0
   -0.9924   -0.3890    0.0000 C   0  0  0  0  0  0  0  0  0  0  0  0
   -0.1107   -1.6026    0.0000 C   0  0  0  0  0  0  0  0  0  0  0  0
   -0.7208   -2.9729    0.0000 C   0  0  0  0  0  0  0  0  0  0  0  0
    0.1609   -4.1864    0.0000 H   0  0  0  0  0  0  0  0  0  0  0  0
   -2.2126   -3.1297    0.0000 C   0  0  0  0  0  0  0  0  0  0  0  0
   -2.8227   -4.5000    0.0000 H   0  0  0  0  0  0  0  0  0  0  0  0
   -3.0943   -1.9162    0.0000 C   0  0  0  0  0  0  0  0  0  0  0  0
   -2.4842   -0.5458    0.0000 C   0  0  0  0  0  0  0  0  0  0  0  0
   -3.3658    0.6677    0.0000 H   0  0  0  0  0  0  0  0  0  0  0  0
   -4.5860   -2.0729    0.0000 O   0  0  0  0  0  0  0  0  0  0  0  0
   -5.1962   -3.4433    0.0000 H   0  0  0  0  0  0  0  0  0  0  0  0
  1  2  1  0  0  0  0 
  1  3  1  0  0  0  0 
  1  4  1  0  0  0  0 
  1  5  1  0  0  0  0 
  5  6  1  0  0  0  0 
  6  7  2  0  0  0  0 
  7  8  1  0  0  0  0 
  8  9  1  0  0  0  0 
  8 10  2  0  0  0  0 
 10 11  1  0  0  0  0 
 10 12  1  0  0  0  0 
 12 13  1  0  0  0  0 
 12 14  2  0  0  0  0 
  6 14  1  0  0  0  0 
 14 15  1  0  0  0  0 
  7 16  1  0  0  0  0 
 16 17  2  0  0  0  0 
 16 18  1  0  0  0  0 
 18 19  1  0  0  0  0 
 19 20  1  0  0  0  0 
 19 21  1  0  0  0  0 
 19 22  1  0  0  0  0 
 22 23  1  0  0  0  0 
 22 24  1  0  0  0  0 
 22 25  1  0  0  0  0 
 25 26  2  0  0  0  0 
 26 27  1  0  0  0  0 
  5 27  1  0  0  0  0 
 18 27  1  0  0  0  0 
 27 28  1  0  0  0  0 
 26 29  1  0  0  0  0 
 29 30  1  0  0  0  0 
 29 31  1  0  0  0  0 
 31 32  2  0  0  0  0 
 25 32  1  0  0  0  0 
 32 33  1  0  0  0  0 
 33 34  1  0  0  0  0 
 33 35  2  0  0  0  0 
 35 36  1  0  0  0  0 
 35 37  1  0  0  0  0 
 37 38  2  0  0  0  0 
 31 38  1  0  0  0  0 
 38 39  1  0  0  0  0 
 37 40  1  0  0  0  0 
 40 41  1  0  0  0  0 
M  END
> <Rank>
8

> <Priority_score>
0.504

> <Reaction_type>
aromatic_hydroxylation_(para_to_carbon)

> <Parent_ID>
35

> <Parent_InChI>
InChI=1S/C19H17N3O/c1-21-16-9-5-3-7-14(16)19(23)22-11-10-13-12-6-2-4-8-15(12)20-17(13)18(21)22/h2-9,18,20H,10-11H2,1H3

> <Parent_SMILES>
CN1c2ccccc2C(=O)N2CCc3c([nH]c4ccccc34)C21

$$$$
Molecule 35_metabolite 9
  CDK     0516241031

 41 45  0  0  0  0  0  0  0  0999 V2000
    2.0494    3.4907    0.0000 C   0  0  0  0  0  0  0  0  0  0  0  0
    0.5722    3.7511    0.0000 H   0  0  0  0  0  0  0  0  0  0  0  0
    2.0494    4.9907    0.0000 H   0  0  0  0  0  0  0  0  0  0  0  0
    3.5266    3.7511    0.0000 H   0  0  0  0  0  0  0  0  0  0  0  0
    2.5625    2.0811    0.0000 N   0  0  0  0  0  0  0  0  0  0  0  0
    4.0625    2.0811    0.0000 C   0  0  0  0  0  0  0  0  0  0  0  0
    4.8125    0.7821    0.0000 C   0  0  0  0  0  0  0  0  0  0  0  0
    6.3125    0.7821    0.0000 C   0  0  0  0  0  0  0  0  0  0  0  0
    7.0625   -0.5169    0.0000 H   0  0  0  0  0  0  0  0  0  0  0  0
    7.0625    2.0811    0.0000 C   0  0  0  0  0  0  0  0  0  0  0  0
    8.5625    2.0811    0.0000 H   0  0  0  0  0  0  0  0  0  0  0  0
    6.3125    3.3802    0.0000 C   0  0  0  0  0  0  0  0  0  0  0  0
    7.0625    4.6792    0.0000 H   0  0  0  0  0  0  0  0  0  0  0  0
    4.8125    3.3802    0.0000 C   0  0  0  0  0  0  0  0  0  0  0  0
    4.0625    4.6792    0.0000 H   0  0  0  0  0  0  0  0  0  0  0  0
    4.0625   -0.5169    0.0000 C   0  0  0  0  0  0  0  0  0  0  0  0
    4.8125   -1.8160    0.0000 O   0  0  0  0  0  0  0  0  0  0  0  0
    2.5625   -0.5169    0.0000 N   0  0  0  0  0  0  0  0  0  0  0  0
    1.8125   -1.8160    0.0000 C   0  0  0  0  0  0  0  0  0  0  0  0
    1.5520   -3.2932    0.0000 H   0  0  0  0  0  0  0  0  0  0  0  0
    3.2220   -2.3290    0.0000 H   0  0  0  0  0  0  0  0  0  0  0  0
    0.3125   -1.8160    0.0000 C   0  0  0  0  0  0  0  0  0  0  0  0
   -1.0971   -2.3290    0.0000 H   0  0  0  0  0  0  0  0  0  0  0  0
    0.5729   -3.2932    0.0000 H   0  0  0  0  0  0  0  0  0  0  0  0
   -0.4375   -0.5169    0.0000 C   0  0  0  0  0  0  0  0  0  0  0  0
    0.3125    0.7821    0.0000 C   0  0  0  0  0  0  0  0  0  0  0  0
    1.8125    0.7821    0.0000 C   0  0  0  0  0  0  0  0  0  0  0  0
    1.0625    2.0811    0.0000 H   0  0  0  0  0  0  0  0  0  0  0  0
   -0.6912    1.8968    0.0000 N   0  0  0  0  0  0  0  0  0  0  0  0
   -0.3794    3.3640    0.0000 H   0  0  0  0  0  0  0  0  0  0  0  0
   -2.0616    1.2867    0.0000 C   0  0  0  0  0  0  0  0  0  0  0  0
   -1.9048   -0.2051    0.0000 C   0  0  0  0  0  0  0  0  0  0  0  0
   -3.1183   -1.0867    0.0000 C   0  0  0  0  0  0  0  0  0  0  0  0
   -2.9615   -2.5785    0.0000 H   0  0  0  0  0  0  0  0  0  0  0  0
   -4.4886   -0.4766    0.0000 C   0  0  0  0  0  0  0  0  0  0  0  0
   -4.6454    1.0151    0.0000 C   0  0  0  0  0  0  0  0  0  0  0  0
   -6.0157    1.6252    0.0000 H   0  0  0  0  0  0  0  0  0  0  0  0
   -3.4319    1.8968    0.0000 C   0  0  0  0  0  0  0  0  0  0  0  0
   -3.5887    3.3886    0.0000 H   0  0  0  0  0  0  0  0  0  0  0  0
   -5.7021   -1.3583    0.0000 O   0  0  0  0  0  0  0  0  0  0  0  0
   -7.0725   -0.7482    0.0000 H   0  0  0  0  0  0  0  0  0  0  0  0
  1  2  1  0  0  0  0 
  1  3  1  0  0  0  0 
  1  4  1  0  0  0  0 
  1  5  1  0  0  0  0 
  5  6  1  0  0  0  0 
  6  7  2  0  0  0  0 
  7  8  1  0  0  0  0 
  8  9  1  0  0  0  0 
  8 10  2  0  0  0  0 
 10 11  1  0  0  0  0 
 10 12  1  0  0  0  0 
 12 13  1  0  0  0  0 
 12 14  2  0  0  0  0 
  6 14  1  0  0  0  0 
 14 15  1  0  0  0  0 
  7 16  1  0  0  0  0 
 16 17  2  0  0  0  0 
 16 18  1  0  0  0  0 
 18 19  1  0  0  0  0 
 19 20  1  0  0  0  0 
 19 21  1  0  0  0  0 
 19 22  1  0  0  0  0 
 22 23  1  0  0  0  0 
 22 24  1  0  0  0  0 
 22 25  1  0  0  0  0 
 25 26  2  0  0  0  0 
 26 27  1  0  0  0  0 
  5 27  1  0  0  0  0 
 18 27  1  0  0  0  0 
 27 28  1  0  0  0  0 
 26 29  1  0  0  0  0 
 29 30  1  0  0  0  0 
 29 31  1  0  0  0  0 
 31 32  2  0  0  0  0 
 25 32  1  0  0  0  0 
 32 33  1  0  0  0  0 
 33 34  1  0  0  0  0 
 33 35  2  0  0  0  0 
 35 36  1  0  0  0  0 
 36 37  1  0  0  0  0 
 36 38  2  0  0  0  0 
 31 38  1  0  0  0  0 
 38 39  1  0  0  0  0 
 35 40  1  0  0  0  0 
 40 41  1  0  0  0  0 
M  END
> <Rank>
9

> <Priority_score>
0.5031152720889408

> <Reaction_type>
aromatic_hydroxylation_(para_to_nitrogen)

> <Parent_ID>
35

> <Parent_InChI>
InChI=1S/C19H17N3O/c1-21-16-9-5-3-7-14(16)19(23)22-11-10-13-12-6-2-4-8-15(12)20-17(13)18(21)22/h2-9,18,20H,10-11H2,1H3

> <Parent_SMILES>
CN1c2ccccc2C(=O)N2CCc3c([nH]c4ccccc34)C21

$$$$
Molecule 35_metabolite 10
  CDK     0516241031

 41 45  0  0  0  0  0  0  0  0999 V2000
    1.1273    3.5751    0.0000 C   0  0  0  0  0  0  0  0  0  0  0  0
   -0.2822    3.0621    0.0000 H   0  0  0  0  0  0  0  0  0  0  0  0
    0.3773    4.8742    0.0000 H   0  0  0  0  0  0  0  0  0  0  0  0
    2.2764    4.5393    0.0000 H   0  0  0  0  0  0  0  0  0  0  0  0
    2.2764    2.6110    0.0000 N   0  0  0  0  0  0  0  0  0  0  0  0
    3.5754    3.3610    0.0000 C   0  0  0  0  0  0  0  0  0  0  0  0
    4.8745    2.6110    0.0000 C   0  0  0  0  0  0  0  0  0  0  0  0
    6.1735    3.3610    0.0000 C   0  0  0  0  0  0  0  0  0  0  0  0
    7.4725    2.6110    0.0000 H   0  0  0  0  0  0  0  0  0  0  0  0
    6.1735    4.8610    0.0000 C   0  0  0  0  0  0  0  0  0  0  0  0
    7.4725    5.6110    0.0000 H   0  0  0  0  0  0  0  0  0  0  0  0
    4.8745    5.6110    0.0000 C   0  0  0  0  0  0  0  0  0  0  0  0
    4.8745    7.1110    0.0000 H   0  0  0  0  0  0  0  0  0  0  0  0
    3.5754    4.8610    0.0000 C   0  0  0  0  0  0  0  0  0  0  0  0
    2.2764    5.6110    0.0000 H   0  0  0  0  0  0  0  0  0  0  0  0
    4.8745    1.1110    0.0000 C   0  0  0  0  0  0  0  0  0  0  0  0
    6.1735    0.3610    0.0000 O   0  0  0  0  0  0  0  0  0  0  0  0
    3.5754    0.3610    0.0000 N   0  0  0  0  0  0  0  0  0  0  0  0
    3.5754   -1.1390    0.0000 C   0  0  0  0  0  0  0  0  0  0  0  0
    4.0885   -2.5486    0.0000 H   0  0  0  0  0  0  0  0  0  0  0  0
    5.0526   -0.8786    0.0000 H   0  0  0  0  0  0  0  0  0  0  0  0
    2.2764   -1.8890    0.0000 C   0  0  0  0  0  0  0  0  0  0  0  0
    1.3122   -3.0381    0.0000 H   0  0  0  0  0  0  0  0  0  0  0  0
    3.2406   -3.0381    0.0000 H   0  0  0  0  0  0  0  0  0  0  0  0
    0.9774   -1.1390    0.0000 C   0  0  0  0  0  0  0  0  0  0  0  0
    0.9774    0.3610    0.0000 C   0  0  0  0  0  0  0  0  0  0  0  0
    2.2764    1.1110    0.0000 C   0  0  0  0  0  0  0  0  0  0  0  0
    0.9774    1.8610    0.0000 H   0  0  0  0  0  0  0  0  0  0  0  0
   -0.4492    0.8245    0.0000 N   0  0  0  0  0  0  0  0  0  0  0  0
   -0.9128    2.2511    0.0000 H   0  0  0  0  0  0  0  0  0  0  0  0
   -1.3309   -0.3890    0.0000 C   0  0  0  0  0  0  0  0  0  0  0  0
   -0.4492   -1.6026    0.0000 C   0  0  0  0  0  0  0  0  0  0  0  0
   -1.0593   -2.9729    0.0000 C   0  0  0  0  0  0  0  0  0  0  0  0
   -0.1777   -4.1864    0.0000 H   0  0  0  0  0  0  0  0  0  0  0  0
   -2.5511   -3.1297    0.0000 C   0  0  0  0  0  0  0  0  0  0  0  0
   -3.1612   -4.5000    0.0000 H   0  0  0  0  0  0  0  0  0  0  0  0
   -3.4328   -1.9162    0.0000 C   0  0  0  0  0  0  0  0  0  0  0  0
   -4.9246   -2.0729    0.0000 H   0  0  0  0  0  0  0  0  0  0  0  0
   -2.8227   -0.5458    0.0000 C   0  0  0  0  0  0  0  0  0  0  0  0
   -3.7044    0.6677    0.0000 O   0  0  0  0  0  0  0  0  0  0  0  0
   -5.1962    0.5109    0.0000 H   0  0  0  0  0  0  0  0  0  0  0  0
  1  2  1  0  0  0  0 
  1  3  1  0  0  0  0 
  1  4  1  0  0  0  0 
  1  5  1  0  0  0  0 
  5  6  1  0  0  0  0 
  6  7  2  0  0  0  0 
  7  8  1  0  0  0  0 
  8  9  1  0  0  0  0 
  8 10  2  0  0  0  0 
 10 11  1  0  0  0  0 
 10 12  1  0  0  0  0 
 12 13  1  0  0  0  0 
 12 14  2  0  0  0  0 
  6 14  1  0  0  0  0 
 14 15  1  0  0  0  0 
  7 16  1  0  0  0  0 
 16 17  2  0  0  0  0 
 16 18  1  0  0  0  0 
 18 19  1  0  0  0  0 
 19 20  1  0  0  0  0 
 19 21  1  0  0  0  0 
 19 22  1  0  0  0  0 
 22 23  1  0  0  0  0 
 22 24  1  0  0  0  0 
 22 25  1  0  0  0  0 
 25 26  2  0  0  0  0 
 26 27  1  0  0  0  0 
  5 27  1  0  0  0  0 
 18 27  1  0  0  0  0 
 27 28  1  0  0  0  0 
 26 29  1  0  0  0  0 
 29 30  1  0  0  0  0 
 29 31  1  0  0  0  0 
 31 32  2  0  0  0  0 
 25 32  1  0  0  0  0 
 32 33  1  0  0  0  0 
 33 34  1  0  0  0  0 
 33 35  2  0  0  0  0 
 35 36  1  0  0  0  0 
 35 37  1  0  0  0  0 
 37 38  1  0  0  0  0 
 37 39  2  0  0  0  0 
 31 39  1  0  0  0  0 
 39 40  1  0  0  0  0 
 40 41  1  0  0  0  0 
M  END
> <Rank>
9

> <Priority_score>
0.5031152720889408

> <Reaction_type>
aromatic_hydroxylation_(ortho_to_nitrogen)

> <Parent_ID>
35

> <Parent_InChI>
InChI=1S/C19H17N3O/c1-21-16-9-5-3-7-14(16)19(23)22-11-10-13-12-6-2-4-8-15(12)20-17(13)18(21)22/h2-9,18,20H,10-11H2,1H3

> <Parent_SMILES>
CN1c2ccccc2C(=O)N2CCc3c([nH]c4ccccc34)C21

$$$$
Molecule 35_metabolite 11
  CDK     0516241031

 41 45  0  0  0  0  0  0  0  0999 V2000
    0.8558    3.5751    0.0000 C   0  0  0  0  0  0  0  0  0  0  0  0
   -0.5538    3.0621    0.0000 H   0  0  0  0  0  0  0  0  0  0  0  0
    0.1058    4.8742    0.0000 H   0  0  0  0  0  0  0  0  0  0  0  0
    2.0048    4.5393    0.0000 H   0  0  0  0  0  0  0  0  0  0  0  0
    2.0048    2.6110    0.0000 N   0  0  0  0  0  0  0  0  0  0  0  0
    3.3039    3.3610    0.0000 C   0  0  0  0  0  0  0  0  0  0  0  0
    3.3039    4.8610    0.0000 C   0  0  0  0  0  0  0  0  0  0  0  0
    4.6029    5.6110    0.0000 C   0  0  0  0  0  0  0  0  0  0  0  0
    4.6029    7.1110    0.0000 H   0  0  0  0  0  0  0  0  0  0  0  0
    5.9019    4.8610    0.0000 C   0  0  0  0  0  0  0  0  0  0  0  0
    7.2010    5.6110    0.0000 H   0  0  0  0  0  0  0  0  0  0  0  0
    5.9019    3.3610    0.0000 C   0  0  0  0  0  0  0  0  0  0  0  0
    7.2010    2.6110    0.0000 H   0  0  0  0  0  0  0  0  0  0  0  0
    4.6029    2.6110    0.0000 C   0  0  0  0  0  0  0  0  0  0  0  0
    4.6029    1.1110    0.0000 C   0  0  0  0  0  0  0  0  0  0  0  0
    5.9019    0.3610    0.0000 O   0  0  0  0  0  0  0  0  0  0  0  0
    3.3039    0.3610    0.0000 N   0  0  0  0  0  0  0  0  0  0  0  0
    3.3039   -1.1390    0.0000 C   0  0  0  0  0  0  0  0  0  0  0  0
    3.8169   -2.5486    0.0000 H   0  0  0  0  0  0  0  0  0  0  0  0
    4.7811   -0.8786    0.0000 H   0  0  0  0  0  0  0  0  0  0  0  0
    2.0048   -1.8890    0.0000 C   0  0  0  0  0  0  0  0  0  0  0  0
    1.0406   -3.0381    0.0000 H   0  0  0  0  0  0  0  0  0  0  0  0
    2.9690   -3.0381    0.0000 H   0  0  0  0  0  0  0  0  0  0  0  0
    0.7058   -1.1390    0.0000 C   0  0  0  0  0  0  0  0  0  0  0  0
    0.7058    0.3610    0.0000 C   0  0  0  0  0  0  0  0  0  0  0  0
    2.0048    1.1110    0.0000 C   0  0  0  0  0  0  0  0  0  0  0  0
    0.7058    1.8610    0.0000 H   0  0  0  0  0  0  0  0  0  0  0  0
   -0.7208    0.8245    0.0000 N   0  0  0  0  0  0  0  0  0  0  0  0
   -1.1843    2.2511    0.0000 H   0  0  0  0  0  0  0  0  0  0  0  0
   -1.6025   -0.3890    0.0000 C   0  0  0  0  0  0  0  0  0  0  0  0
   -0.7208   -1.6026    0.0000 C   0  0  0  0  0  0  0  0  0  0  0  0
   -1.3309   -2.9729    0.0000 C   0  0  0  0  0  0  0  0  0  0  0  0
   -0.4492   -4.1864    0.0000 H   0  0  0  0  0  0  0  0  0  0  0  0
   -2.8227   -3.1297    0.0000 C   0  0  0  0  0  0  0  0  0  0  0  0
   -3.4328   -4.5000    0.0000 H   0  0  0  0  0  0  0  0  0  0  0  0
   -3.7044   -1.9162    0.0000 C   0  0  0  0  0  0  0  0  0  0  0  0
   -5.1962   -2.0729    0.0000 H   0  0  0  0  0  0  0  0  0  0  0  0
   -3.0943   -0.5458    0.0000 C   0  0  0  0  0  0  0  0  0  0  0  0
   -3.9759    0.6677    0.0000 H   0  0  0  0  0  0  0  0  0  0  0  0
    2.0048    5.6110    0.0000 O   0  0  0  0  0  0  0  0  0  0  0  0
    2.0048    7.1110    0.0000 H   0  0  0  0  0  0  0  0  0  0  0  0
  1  2  1  0  0  0  0 
  1  3  1  0  0  0  0 
  1  4  1  0  0  0  0 
  1  5  1  0  0  0  0 
  5  6  1  0  0  0  0 
  6  7  2  0  0  0  0 
  7  8  1  0  0  0  0 
  8  9  1  0  0  0  0 
  8 10  2  0  0  0  0 
 10 11  1  0  0  0  0 
 10 12  1  0  0  0  0 
 12 13  1  0  0  0  0 
 12 14  2  0  0  0  0 
  6 14  1  0  0  0  0 
 14 15  1  0  0  0  0 
 15 16  2  0  0  0  0 
 15 17  1  0  0  0  0 
 17 18  1  0  0  0  0 
 18 19  1  0  0  0  0 
 18 20  1  0  0  0  0 
 18 21  1  0  0  0  0 
 21 22  1  0  0  0  0 
 21 23  1  0  0  0  0 
 21 24  1  0  0  0  0 
 24 25  2  0  0  0  0 
 25 26  1  0  0  0  0 
  5 26  1  0  0  0  0 
 17 26  1  0  0  0  0 
 26 27  1  0  0  0  0 
 25 28  1  0  0  0  0 
 28 29  1  0  0  0  0 
 28 30  1  0  0  0  0 
 30 31  2  0  0  0  0 
 24 31  1  0  0  0  0 
 31 32  1  0  0  0  0 
 32 33  1  0  0  0  0 
 32 34  2  0  0  0  0 
 34 35  1  0  0  0  0 
 34 36  1  0  0  0  0 
 36 37  1  0  0  0  0 
 36 38  2  0  0  0  0 
 30 38  1  0  0  0  0 
 38 39  1  0  0  0  0 
  7 40  1  0  0  0  0 
 40 41  1  0  0  0  0 
M  END
> <Rank>
11

> <Priority_score>
0.164

> <Reaction_type>
aromatic_hydroxylation_(ortho_to_nitrogen)

> <Parent_ID>
35

> <Parent_InChI>
InChI=1S/C19H17N3O/c1-21-16-9-5-3-7-14(16)19(23)22-11-10-13-12-6-2-4-8-15(12)20-17(13)18(21)22/h2-9,18,20H,10-11H2,1H3

> <Parent_SMILES>
CN1c2ccccc2C(=O)N2CCc3c([nH]c4ccccc34)C21

$$$$
Molecule 35_metabolite 12
  CDK     0516241031

 41 45  0  0  0  0  0  0  0  0999 V2000
    0.8558    3.5751    0.0000 C   0  0  0  0  0  0  0  0  0  0  0  0
   -0.5538    3.0621    0.0000 H   0  0  0  0  0  0  0  0  0  0  0  0
    0.1058    4.8742    0.0000 H   0  0  0  0  0  0  0  0  0  0  0  0
    2.0048    4.5393    0.0000 H   0  0  0  0  0  0  0  0  0  0  0  0
    2.0048    2.6110    0.0000 N   0  0  0  0  0  0  0  0  0  0  0  0
    3.3039    3.3610    0.0000 C   0  0  0  0  0  0  0  0  0  0  0  0
    3.3039    4.8610    0.0000 C   0  0  0  0  0  0  0  0  0  0  0  0
    2.0048    5.6110    0.0000 H   0  0  0  0  0  0  0  0  0  0  0  0
    4.6029    5.6110    0.0000 C   0  0  0  0  0  0  0  0  0  0  0  0
    4.6029    7.1110    0.0000 H   0  0  0  0  0  0  0  0  0  0  0  0
    5.9019    4.8610    0.0000 C   0  0  0  0  0  0  0  0  0  0  0  0
    5.9019    3.3610    0.0000 C   0  0  0  0  0  0  0  0  0  0  0  0
    7.2010    2.6110    0.0000 H   0  0  0  0  0  0  0  0  0  0  0  0
    4.6029    2.6110    0.0000 C   0  0  0  0  0  0  0  0  0  0  0  0
    4.6029    1.1110    0.0000 C   0  0  0  0  0  0  0  0  0  0  0  0
    5.9019    0.3610    0.0000 O   0  0  0  0  0  0  0  0  0  0  0  0
    3.3039    0.3610    0.0000 N   0  0  0  0  0  0  0  0  0  0  0  0
    3.3039   -1.1390    0.0000 C   0  0  0  0  0  0  0  0  0  0  0  0
    3.8169   -2.5486    0.0000 H   0  0  0  0  0  0  0  0  0  0  0  0
    4.7811   -0.8786    0.0000 H   0  0  0  0  0  0  0  0  0  0  0  0
    2.0048   -1.8890    0.0000 C   0  0  0  0  0  0  0  0  0  0  0  0
    1.0406   -3.0381    0.0000 H   0  0  0  0  0  0  0  0  0  0  0  0
    2.9690   -3.0381    0.0000 H   0  0  0  0  0  0  0  0  0  0  0  0
    0.7058   -1.1390    0.0000 C   0  0  0  0  0  0  0  0  0  0  0  0
    0.7058    0.3610    0.0000 C   0  0  0  0  0  0  0  0  0  0  0  0
    2.0048    1.1110    0.0000 C   0  0  0  0  0  0  0  0  0  0  0  0
    0.7058    1.8610    0.0000 H   0  0  0  0  0  0  0  0  0  0  0  0
   -0.7208    0.8245    0.0000 N   0  0  0  0  0  0  0  0  0  0  0  0
   -1.1843    2.2511    0.0000 H   0  0  0  0  0  0  0  0  0  0  0  0
   -1.6025   -0.3890    0.0000 C   0  0  0  0  0  0  0  0  0  0  0  0
   -0.7208   -1.6026    0.0000 C   0  0  0  0  0  0  0  0  0  0  0  0
   -1.3309   -2.9729    0.0000 C   0  0  0  0  0  0  0  0  0  0  0  0
   -0.4492   -4.1864    0.0000 H   0  0  0  0  0  0  0  0  0  0  0  0
   -2.8227   -3.1297    0.0000 C   0  0  0  0  0  0  0  0  0  0  0  0
   -3.4328   -4.5000    0.0000 H   0  0  0  0  0  0  0  0  0  0  0  0
   -3.7044   -1.9162    0.0000 C   0  0  0  0  0  0  0  0  0  0  0  0
   -5.1962   -2.0729    0.0000 H   0  0  0  0  0  0  0  0  0  0  0  0
   -3.0943   -0.5458    0.0000 C   0  0  0  0  0  0  0  0  0  0  0  0
   -3.9759    0.6677    0.0000 H   0  0  0  0  0  0  0  0  0  0  0  0
    7.2010    5.6110    0.0000 O   0  0  0  0  0  0  0  0  0  0  0  0
    7.2010    7.1110    0.0000 H   0  0  0  0  0  0  0  0  0  0  0  0
  1  2  1  0  0  0  0 
  1  3  1  0  0  0  0 
  1  4  1  0  0  0  0 
  1  5  1  0  0  0  0 
  5  6  1  0  0  0  0 
  6  7  2  0  0  0  0 
  7  8  1  0  0  0  0 
  7  9  1  0  0  0  0 
  9 10  1  0  0  0  0 
  9 11  2  0  0  0  0 
 11 12  1  0  0  0  0 
 12 13  1  0  0  0  0 
 12 14  2  0  0  0  0 
  6 14  1  0  0  0  0 
 14 15  1  0  0  0  0 
 15 16  2  0  0  0  0 
 15 17  1  0  0  0  0 
 17 18  1  0  0  0  0 
 18 19  1  0  0  0  0 
 18 20  1  0  0  0  0 
 18 21  1  0  0  0  0 
 21 22  1  0  0  0  0 
 21 23  1  0  0  0  0 
 21 24  1  0  0  0  0 
 24 25  2  0  0  0  0 
 25 26  1  0  0  0  0 
  5 26  1  0  0  0  0 
 17 26  1  0  0  0  0 
 26 27  1  0  0  0  0 
 25 28  1  0  0  0  0 
 28 29  1  0  0  0  0 
 28 30  1  0  0  0  0 
 30 31  2  0  0  0  0 
 24 31  1  0  0  0  0 
 31 32  1  0  0  0  0 
 32 33  1  0  0  0  0 
 32 34  2  0  0  0  0 
 34 35  1  0  0  0  0 
 34 36  1  0  0  0  0 
 36 37  1  0  0  0  0 
 36 38  2  0  0  0  0 
 30 38  1  0  0  0  0 
 38 39  1  0  0  0  0 
 11 40  1  0  0  0  0 
 40 41  1  0  0  0  0 
M  END
> <Rank>
11

> <Priority_score>
0.164

> <Reaction_type>
aromatic_hydroxylation_(para_to_nitrogen)

> <Parent_ID>
35

> <Parent_InChI>
InChI=1S/C19H17N3O/c1-21-16-9-5-3-7-14(16)19(23)22-11-10-13-12-6-2-4-8-15(12)20-17(13)18(21)22/h2-9,18,20H,10-11H2,1H3

> <Parent_SMILES>
CN1c2ccccc2C(=O)N2CCc3c([nH]c4ccccc34)C21

$$$$
Molecule 35_metabolite 13
  CDK     0516241031

 41 45  0  0  0  0  0  0  0  0999 V2000
    0.8558    2.8251    0.0000 C   0  0  0  0  0  0  0  0  0  0  0  0
   -0.5538    2.3121    0.0000 H   0  0  0  0  0  0  0  0  0  0  0  0
    0.1058    4.1242    0.0000 H   0  0  0  0  0  0  0  0  0  0  0  0
    2.0048    3.7893    0.0000 H   0  0  0  0  0  0  0  0  0  0  0  0
    2.0048    1.8610    0.0000 N   0  0  0  0  0  0  0  0  0  0  0  0
    3.3039    2.6110    0.0000 C   0  0  0  0  0  0  0  0  0  0  0  0
    3.3039    4.1110    0.0000 C   0  0  0  0  0  0  0  0  0  0  0  0
    2.0048    4.8610    0.0000 H   0  0  0  0  0  0  0  0  0  0  0  0
    4.6029    4.8610    0.0000 C   0  0  0  0  0  0  0  0  0  0  0  0
    5.9019    4.1110    0.0000 C   0  0  0  0  0  0  0  0  0  0  0  0
    7.2010    4.8610    0.0000 H   0  0  0  0  0  0  0  0  0  0  0  0
    5.9019    2.6110    0.0000 C   0  0  0  0  0  0  0  0  0  0  0  0
    7.2010    1.8610    0.0000 H   0  0  0  0  0  0  0  0  0  0  0  0
    4.6029    1.8610    0.0000 C   0  0  0  0  0  0  0  0  0  0  0  0
    4.6029    0.3610    0.0000 C   0  0  0  0  0  0  0  0  0  0  0  0
    5.9019   -0.3890    0.0000 O   0  0  0  0  0  0  0  0  0  0  0  0
    3.3039   -0.3890    0.0000 N   0  0  0  0  0  0  0  0  0  0  0  0
    3.3039   -1.8890    0.0000 C   0  0  0  0  0  0  0  0  0  0  0  0
    3.8169   -3.2986    0.0000 H   0  0  0  0  0  0  0  0  0  0  0  0
    4.7811   -1.6286    0.0000 H   0  0  0  0  0  0  0  0  0  0  0  0
    2.0048   -2.6390    0.0000 C   0  0  0  0  0  0  0  0  0  0  0  0
    1.0406   -3.7881    0.0000 H   0  0  0  0  0  0  0  0  0  0  0  0
    2.9690   -3.7881    0.0000 H   0  0  0  0  0  0  0  0  0  0  0  0
    0.7058   -1.8890    0.0000 C   0  0  0  0  0  0  0  0  0  0  0  0
    0.7058   -0.3890    0.0000 C   0  0  0  0  0  0  0  0  0  0  0  0
    2.0048    0.3610    0.0000 C   0  0  0  0  0  0  0  0  0  0  0  0
    0.7058    1.1110    0.0000 H   0  0  0  0  0  0  0  0  0  0  0  0
   -0.7208    0.0745    0.0000 N   0  0  0  0  0  0  0  0  0  0  0  0
   -1.1843    1.5011    0.0000 H   0  0  0  0  0  0  0  0  0  0  0  0
   -1.6025   -1.1390    0.0000 C   0  0  0  0  0  0  0  0  0  0  0  0
   -0.7208   -2.3526    0.0000 C   0  0  0  0  0  0  0  0  0  0  0  0
   -1.3309   -3.7229    0.0000 C   0  0  0  0  0  0  0  0  0  0  0  0
   -0.4492   -4.9364    0.0000 H   0  0  0  0  0  0  0  0  0  0  0  0
   -2.8227   -3.8797    0.0000 C   0  0  0  0  0  0  0  0  0  0  0  0
   -3.4328   -5.2500    0.0000 H   0  0  0  0  0  0  0  0  0  0  0  0
   -3.7044   -2.6662    0.0000 C   0  0  0  0  0  0  0  0  0  0  0  0
   -5.1962   -2.8229    0.0000 H   0  0  0  0  0  0  0  0  0  0  0  0
   -3.0943   -1.2958    0.0000 C   0  0  0  0  0  0  0  0  0  0  0  0
   -3.9759   -0.0823    0.0000 H   0  0  0  0  0  0  0  0  0  0  0  0
    4.6029    6.3610    0.0000 O   0  0  0  0  0  0  0  0  0  0  0  0
    5.9019    7.1110    0.0000 H   0  0  0  0  0  0  0  0  0  0  0  0
  1  2  1  0  0  0  0 
  1  3  1  0  0  0  0 
  1  4  1  0  0  0  0 
  1  5  1  0  0  0  0 
  5  6  1  0  0  0  0 
  6  7  2  0  0  0  0 
  7  8  1  0  0  0  0 
  7  9  1  0  0  0  0 
  9 10  2  0  0  0  0 
 10 11  1  0  0  0  0 
 10 12  1  0  0  0  0 
 12 13  1  0  0  0  0 
 12 14  2  0  0  0  0 
  6 14  1  0  0  0  0 
 14 15  1  0  0  0  0 
 15 16  2  0  0  0  0 
 15 17  1  0  0  0  0 
 17 18  1  0  0  0  0 
 18 19  1  0  0  0  0 
 18 20  1  0  0  0  0 
 18 21  1  0  0  0  0 
 21 22  1  0  0  0  0 
 21 23  1  0  0  0  0 
 21 24  1  0  0  0  0 
 24 25  2  0  0  0  0 
 25 26  1  0  0  0  0 
  5 26  1  0  0  0  0 
 17 26  1  0  0  0  0 
 26 27  1  0  0  0  0 
 25 28  1  0  0  0  0 
 28 29  1  0  0  0  0 
 28 30  1  0  0  0  0 
 30 31  2  0  0  0  0 
 24 31  1  0  0  0  0 
 31 32  1  0  0  0  0 
 32 33  1  0  0  0  0 
 32 34  2  0  0  0  0 
 34 35  1  0  0  0  0 
 34 36  1  0  0  0  0 
 36 37  1  0  0  0  0 
 36 38  2  0  0  0  0 
 30 38  1  0  0  0  0 
 38 39  1  0  0  0  0 
  9 40  1  0  0  0  0 
 40 41  1  0  0  0  0 
M  END
> <Rank>
11

> <Priority_score>
0.164

> <Reaction_type>
aromatic_hydroxylation_(para_to_carbon)

> <Parent_ID>
35

> <Parent_InChI>
InChI=1S/C19H17N3O/c1-21-16-9-5-3-7-14(16)19(23)22-11-10-13-12-6-2-4-8-15(12)20-17(13)18(21)22/h2-9,18,20H,10-11H2,1H3

> <Parent_SMILES>
CN1c2ccccc2C(=O)N2CCc3c([nH]c4ccccc34)C21

$$$$
Molecule 35_metabolite 14
  CDK     0516241031

 39 43  0  0  0  0  0  0  0  0999 V2000
    0.8558    3.5751    0.0000 C   0  0  0  0  0  0  0  0  0  0  0  0
    1.1162    5.0523    0.0000 H   0  0  0  0  0  0  0  0  0  0  0  0
   -0.5538    3.0621    0.0000 H   0  0  0  0  0  0  0  0  0  0  0  0
    2.0048    2.6110    0.0000 N   0  0  0  0  0  0  0  0  0  0  0  0
    3.3039    3.3610    0.0000 C   0  0  0  0  0  0  0  0  0  0  0  0
    4.6029    2.6110    0.0000 C   0  0  0  0  0  0  0  0  0  0  0  0
    5.9019    3.3610    0.0000 C   0  0  0  0  0  0  0  0  0  0  0  0
    7.2010    2.6110    0.0000 H   0  0  0  0  0  0  0  0  0  0  0  0
    5.9019    4.8610    0.0000 C   0  0  0  0  0  0  0  0  0  0  0  0
    7.2010    5.6110    0.0000 H   0  0  0  0  0  0  0  0  0  0  0  0
    4.6029    5.6110    0.0000 C   0  0  0  0  0  0  0  0  0  0  0  0
    4.6029    7.1110    0.0000 H   0  0  0  0  0  0  0  0  0  0  0  0
    3.3039    4.8610    0.0000 C   0  0  0  0  0  0  0  0  0  0  0  0
    2.0048    5.6110    0.0000 H   0  0  0  0  0  0  0  0  0  0  0  0
    4.6029    1.1110    0.0000 C   0  0  0  0  0  0  0  0  0  0  0  0
    5.9019    0.3610    0.0000 O   0  0  0  0  0  0  0  0  0  0  0  0
    3.3039    0.3610    0.0000 N   0  0  0  0  0  0  0  0  0  0  0  0
    3.3039   -1.1390    0.0000 C   0  0  0  0  0  0  0  0  0  0  0  0
    3.8169   -2.5486    0.0000 H   0  0  0  0  0  0  0  0  0  0  0  0
    4.7811   -0.8786    0.0000 H   0  0  0  0  0  0  0  0  0  0  0  0
    2.0048   -1.8890    0.0000 C   0  0  0  0  0  0  0  0  0  0  0  0
    1.0406   -3.0381    0.0000 H   0  0  0  0  0  0  0  0  0  0  0  0
    2.9690   -3.0381    0.0000 H   0  0  0  0  0  0  0  0  0  0  0  0
    0.7058   -1.1390    0.0000 C   0  0  0  0  0  0  0  0  0  0  0  0
    0.7058    0.3610    0.0000 C   0  0  0  0  0  0  0  0  0  0  0  0
    2.0048    1.1110    0.0000 C   0  0  0  0  0  0  0  0  0  0  0  0
    0.7058    1.8610    0.0000 H   0  0  0  0  0  0  0  0  0  0  0  0
   -0.7208    0.8245    0.0000 N   0  0  0  0  0  0  0  0  0  0  0  0
   -1.1843    2.2511    0.0000 H   0  0  0  0  0  0  0  0  0  0  0  0
   -1.6025   -0.3890    0.0000 C   0  0  0  0  0  0  0  0  0  0  0  0
   -0.7208   -1.6026    0.0000 C   0  0  0  0  0  0  0  0  0  0  0  0
   -1.3309   -2.9729    0.0000 C   0  0  0  0  0  0  0  0  0  0  0  0
   -0.4492   -4.1864    0.0000 H   0  0  0  0  0  0  0  0  0  0  0  0
   -2.8227   -3.1297    0.0000 C   0  0  0  0  0  0  0  0  0  0  0  0
   -3.4328   -4.5000    0.0000 H   0  0  0  0  0  0  0  0  0  0  0  0
   -3.7044   -1.9162    0.0000 C   0  0  0  0  0  0  0  0  0  0  0  0
   -5.1962   -2.0729    0.0000 H   0  0  0  0  0  0  0  0  0  0  0  0
   -3.0943   -0.5458    0.0000 C   0  0  0  0  0  0  0  0  0  0  0  0
   -3.9759    0.6677    0.0000 H   0  0  0  0  0  0  0  0  0  0  0  0
  1  2  1  0  0  0  0 
  1  3  1  0  0  0  0 
  1  4  2  0  0  0  0 
  4  5  1  0  0  0  0 
  5  6  2  0  0  0  0 
  6  7  1  0  0  0  0 
  7  8  1  0  0  0  0 
  7  9  2  0  0  0  0 
  9 10  1  0  0  0  0 
  9 11  1  0  0  0  0 
 11 12  1  0  0  0  0 
 11 13  2  0  0  0  0 
  5 13  1  0  0  0  0 
 13 14  1  0  0  0  0 
  6 15  1  0  0  0  0 
 15 16  2  0  0  0  0 
 15 17  1  0  0  0  0 
 17 18  1  0  0  0  0 
 18 19  1  0  0  0  0 
 18 20  1  0  0  0  0 
 18 21  1  0  0  0  0 
 21 22  1  0  0  0  0 
 21 23  1  0  0  0  0 
 21 24  1  0  0  0  0 
 24 25  2  0  0  0  0 
 25 26  1  0  0  0  0 
  4 26  1  0  0  0  0 
 17 26  1  0  0  0  0 
 26 27  1  0  0  0  0 
 25 28  1  0  0  0  0 
 28 29  1  0  0  0  0 
 28 30  1  0  0  0  0 
 30 31  2  0  0  0  0 
 24 31  1  0  0  0  0 
 31 32  1  0  0  0  0 
 32 33  1  0  0  0  0 
 32 34  2  0  0  0  0 
 34 35  1  0  0  0  0 
 34 36  1  0  0  0  0 
 36 37  1  0  0  0  0 
 36 38  2  0  0  0  0 
 30 38  1  0  0  0  0 
 38 39  1  0  0  0  0 
M  CHG  1   4   1
M  END
> <Rank>
14

> <Priority_score>
0.11359999999999999

> <Reaction_type>
dehydration of N-C bond

> <Parent_ID>
35

> <Parent_InChI>
InChI=1S/C19H17N3O/c1-21-16-9-5-3-7-14(16)19(23)22-11-10-13-12-6-2-4-8-15(12)20-17(13)18(21)22/h2-9,18,20H,10-11H2,1H3

> <Parent_SMILES>
CN1c2ccccc2C(=O)N2CCc3c([nH]c4ccccc34)C21

$$$$
Molecule 35_metabolite 15
  CDK     0516241031

 60 65  0  0  0  0  0  0  0  0999 V2000
    0.7430    2.1044    0.0000 C   0  0  0  0  0  0  0  0  0  0  0  0
    0.0658    0.2438    0.0000 H   0  0  0  0  0  0  0  0  0  0  0  0
   -0.7342    2.3648    0.0000 H   0  0  0  0  0  0  0  0  0  0  0  0
    0.7430    3.6044    0.0000 H   0  0  0  0  0  0  0  0  0  0  0  0
    2.2202    2.3648    0.0000 N   0  0  0  0  0  0  0  0  0  0  0  0
    2.2202    3.8648    0.0000 C   0  0  0  0  0  0  0  0  0  0  0  0
    3.5193    4.6148    0.0000 C   0  0  0  0  0  0  0  0  0  0  0  0
    3.5193    6.1148    0.0000 C   0  0  0  0  0  0  0  0  0  0  0  0
    4.8183    6.8648    0.0000 H   0  0  0  0  0  0  0  0  0  0  0  0
    2.2202    6.8648    0.0000 C   0  0  0  0  0  0  0  0  0  0  0  0
    2.2202    8.3648    0.0000 H   0  0  0  0  0  0  0  0  0  0  0  0
    0.9212    6.1148    0.0000 C   0  0  0  0  0  0  0  0  0  0  0  0
   -0.3778    6.8648    0.0000 H   0  0  0  0  0  0  0  0  0  0  0  0
    0.9212    4.6148    0.0000 C   0  0  0  0  0  0  0  0  0  0  0  0
   -0.3778    3.8648    0.0000 H   0  0  0  0  0  0  0  0  0  0  0  0
    4.8183    3.8648    0.0000 C   0  0  0  0  0  0  0  0  0  0  0  0
    6.1173    4.6148    0.0000 O   0  0  0  0  0  0  0  0  0  0  0  0
    4.8183    2.3648    0.0000 N   0  0  0  0  0  0  0  0  0  0  0  0
    6.1173    1.6148    0.0000 C   0  0  0  0  0  0  0  0  0  0  0  0
    7.5946    1.3544    0.0000 H   0  0  0  0  0  0  0  0  0  0  0  0
    6.6304    3.0244    0.0000 H   0  0  0  0  0  0  0  0  0  0  0  0
    6.1173    0.1148    0.0000 C   0  0  0  0  0  0  0  0  0  0  0  0
    6.6304   -1.2947    0.0000 H   0  0  0  0  0  0  0  0  0  0  0  0
    7.5946    0.3753    0.0000 H   0  0  0  0  0  0  0  0  0  0  0  0
    4.8183   -0.6352    0.0000 C   0  0  0  0  0  0  0  0  0  0  0  0
    3.5193    0.1148    0.0000 C   0  0  0  0  0  0  0  0  0  0  0  0
    3.5193    1.6148    0.0000 C   0  0  0  0  0  0  0  0  0  0  0  0
    2.2202    0.8648    0.0000 H   0  0  0  0  0  0  0  0  0  0  0  0
    2.4045   -0.8889    0.0000 N   0  0  0  0  0  0  0  0  0  0  0  0
    3.0147   -2.2592    0.0000 C   0  0  0  0  0  0  0  0  0  0  0  0
    4.5064   -2.1024    0.0000 C   0  0  0  0  0  0  0  0  0  0  0  0
    5.3881   -3.3159    0.0000 C   0  0  0  0  0  0  0  0  0  0  0  0
    6.8799   -3.1591    0.0000 H   0  0  0  0  0  0  0  0  0  0  0  0
    4.7780   -4.6862    0.0000 C   0  0  0  0  0  0  0  0  0  0  0  0
    5.6597   -5.8998    0.0000 H   0  0  0  0  0  0  0  0  0  0  0  0
    3.2862   -4.8430    0.0000 C   0  0  0  0  0  0  0  0  0  0  0  0
    2.6761   -6.2133    0.0000 H   0  0  0  0  0  0  0  0  0  0  0  0
    2.4045   -3.6295    0.0000 C   0  0  0  0  0  0  0  0  0  0  0  0
    0.9128   -3.7863    0.0000 H   0  0  0  0  0  0  0  0  0  0  0  0
   -0.4712   -0.2776    0.0000 C   0  0  0  0  0  0  0  0  0  0  0  0
    0.0906    1.1132    0.0000 H   0  0  0  0  0  0  0  0  0  0  0  0
   -1.7434    0.5170    0.0000 C   0  0  0  0  0  0  0  0  0  0  0  0
   -0.7401    1.6320    0.0000 H   0  0  0  0  0  0  0  0  0  0  0  0
   -3.0682   -0.1883    0.0000 C   0  0  0  0  0  0  0  0  0  0  0  0
   -3.5322    1.2381    0.0000 H   0  0  0  0  0  0  0  0  0  0  0  0
   -3.1208   -1.6882    0.0000 C   0  0  0  0  0  0  0  0  0  0  0  0
   -4.5880   -1.3764    0.0000 H   0  0  0  0  0  0  0  0  0  0  0  0
   -1.8485   -2.4828    0.0000 C   0  0  0  0  0  0  0  0  0  0  0  0
   -2.8519   -3.5979    0.0000 H   0  0  0  0  0  0  0  0  0  0  0  0
   -0.6927   -4.6544    0.0000 C   0  0  0  0  0  0  0  0  0  0  0  0
    0.8064   -4.7061    0.0000 O   0  0  0  0  0  0  0  0  0  0  0  0
   -1.4870   -5.9268    0.0000 O   0  0  0  0  0  0  0  0  0  0  0  0
   -2.9861   -5.8751    0.0000 H   0  0  0  0  0  0  0  0  0  0  0  0
   -0.5237   -1.7775    0.0000 O   0  0  0  0  0  0  0  0  0  0  0  0
   -3.6825   -3.0791    0.0000 O   0  0  0  0  0  0  0  0  0  0  0  0
   -5.1679   -3.2880    0.0000 H   0  0  0  0  0  0  0  0  0  0  0  0
   -4.5536   -0.3972    0.0000 O   0  0  0  0  0  0  0  0  0  0  0  0
   -5.4772    0.7847    0.0000 H   0  0  0  0  0  0  0  0  0  0  0  0
   -2.9631    2.0767    0.0000 O   0  0  0  0  0  0  0  0  0  0  0  0
   -4.4484    1.8673    0.0000 H   0  0  0  0  0  0  0  0  0  0  0  0
  1  2  1  0  0  0  0 
  1  3  1  0  0  0  0 
  1  4  1  0  0  0  0 
  1  5  1  0  0  0  0 
  5  6  1  0  0  0  0 
  6  7  2  0  0  0  0 
  7  8  1  0  0  0  0 
  8  9  1  0  0  0  0 
  8 10  2  0  0  0  0 
 10 11  1  0  0  0  0 
 10 12  1  0  0  0  0 
 12 13  1  0  0  0  0 
 12 14  2  0  0  0  0 
  6 14  1  0  0  0  0 
 14 15  1  0  0  0  0 
  7 16  1  0  0  0  0 
 16 17  2  0  0  0  0 
 16 18  1  0  0  0  0 
 18 19  1  0  0  0  0 
 19 20  1  0  0  0  0 
 19 21  1  0  0  0  0 
 19 22  1  0  0  0  0 
 22 23  1  0  0  0  0 
 22 24  1  0  0  0  0 
 22 25  1  0  0  0  0 
 25 26  2  0  0  0  0 
 26 27  1  0  0  0  0 
  5 27  1  0  0  0  0 
 18 27  1  0  0  0  0 
 27 28  1  0  0  0  0 
 26 29  1  0  0  0  0 
 29 30  1  0  0  0  0 
 30 31  2  0  0  0  0 
 25 31  1  0  0  0  0 
 31 32  1  0  0  0  0 
 32 33  1  0  0  0  0 
 32 34  2  0  0  0  0 
 34 35  1  0  0  0  0 
 34 36  1  0  0  0  0 
 36 37  1  0  0  0  0 
 36 38  2  0  0  0  0 
 30 38  1  0  0  0  0 
 38 39  1  0  0  0  0 
 29 40  1  0  0  0  0 
 40 41  1  0  0  0  0 
 40 42  1  0  0  0  0 
 42 43  1  0  0  0  0 
 42 44  1  0  0  0  0 
 44 45  1  0  0  0  0 
 44 46  1  0  0  0  0 
 46 47  1  0  0  0  0 
 46 48  1  0  0  0  0 
 48 49  1  0  0  0  0 
 48 50  1  0  0  0  0 
 50 51  2  0  0  0  0 
 50 52  1  0  0  0  0 
 52 53  1  0  0  0  0 
 48 54  1  0  0  0  0 
 40 54  1  0  0  0  0 
 46 55  1  0  0  0  0 
 55 56  1  0  0  0  0 
 44 57  1  0  0  0  0 
 57 58  1  0  0  0  0 
 42 59  1  0  0  0  0 
 59 60  1  0  0  0  0 
M  END
> <Rank>
15

> <Priority_score>
0.108

> <Reaction_type>
N-glucuronidation_(aromatic_-nH-)

> <Parent_ID>
35

> <Parent_InChI>
InChI=1S/C19H17N3O/c1-21-16-9-5-3-7-14(16)19(23)22-11-10-13-12-6-2-4-8-15(12)20-17(13)18(21)22/h2-9,18,20H,10-11H2,1H3

> <Parent_SMILES>
CN1c2ccccc2C(=O)N2CCc3c([nH]c4ccccc34)C21

$$$$
Molecule 35_metabolite 16
  CDK     0516241031

 41 44  0  0  0  0  0  0  0  0999 V2000
    9.5122   -1.3096    0.0000 C   0  0  0  0  0  0  0  0  0  0  0  0
    9.9776   -2.7356    0.0000 H   0  0  0  0  0  0  0  0  0  0  0  0
   10.9973   -1.0989    0.0000 H   0  0  0  0  0  0  0  0  0  0  0  0
    9.5626    0.1896    0.0000 H   0  0  0  0  0  0  0  0  0  0  0  0
    8.0446   -0.9996    0.0000 N   0  0  0  0  0  0  0  0  0  0  0  0
    7.0423   -2.1156    0.0000 H   0  0  0  0  0  0  0  0  0  0  0  0
    7.5792    0.4264    0.0000 C   0  0  0  0  0  0  0  0  0  0  0  0
    6.1331    0.7165    0.0000 C   0  0  0  0  0  0  0  0  0  0  0  0
    5.6648    2.1206    0.0000 C   0  0  0  0  0  0  0  0  0  0  0  0
    4.1945    2.4175    0.0000 H   0  0  0  0  0  0  0  0  0  0  0  0
    6.6426    3.2346    0.0000 C   0  0  0  0  0  0  0  0  0  0  0  0
    6.1620    4.6555    0.0000 H   0  0  0  0  0  0  0  0  0  0  0  0
    8.0887    2.9444    0.0000 C   0  0  0  0  0  0  0  0  0  0  0  0
    9.0703    4.0787    0.0000 H   0  0  0  0  0  0  0  0  0  0  0  0
    8.5919    1.5313    0.0000 C   0  0  0  0  0  0  0  0  0  0  0  0
   10.0621    1.2335    0.0000 H   0  0  0  0  0  0  0  0  0  0  0  0
    5.1401   -0.4078    0.0000 C   0  0  0  0  0  0  0  0  0  0  0  0
    5.6173   -1.8299    0.0000 O   0  0  0  0  0  0  0  0  0  0  0  0
    3.6700   -0.1100    0.0000 N   0  0  0  0  0  0  0  0  0  0  0  0
    3.2200    1.3000    0.0000 C   0  0  0  0  0  0  0  0  0  0  0  0
    4.7040    1.5188    0.0000 H   0  0  0  0  0  0  0  0  0  0  0  0
    3.2442    2.7998    0.0000 H   0  0  0  0  0  0  0  0  0  0  0  0
    1.7800    1.5600    0.0000 C   0  0  0  0  0  0  0  0  0  0  0  0
    2.3333    2.9542    0.0000 H   0  0  0  0  0  0  0  0  0  0  0  0
    0.5228    2.3782    0.0000 H   0  0  0  0  0  0  0  0  0  0  0  0
    0.7100    0.4700    0.0000 C   0  0  0  0  0  0  0  0  0  0  0  0
    1.2700   -0.9500    0.0000 C   0  0  0  0  0  0  0  0  0  0  0  0
    2.7100   -1.2300    0.0000 C   0  0  0  0  0  0  0  0  0  0  0  0
    3.2032   -2.6466    0.0000 O   0  0  0  0  0  0  0  0  0  0  0  0
    0.0000   -1.8100    0.0000 N   0  0  0  0  0  0  0  0  0  0  0  0
   -0.0077   -3.3100    0.0000 H   0  0  0  0  0  0  0  0  0  0  0  0
   -1.1700   -1.0000    0.0000 C   0  0  0  0  0  0  0  0  0  0  0  0
   -0.7100    0.4700    0.0000 C   0  0  0  0  0  0  0  0  0  0  0  0
   -1.8000    1.5900    0.0000 C   0  0  0  0  0  0  0  0  0  0  0  0
   -1.3735    3.0281    0.0000 H   0  0  0  0  0  0  0  0  0  0  0  0
   -3.2600    1.2600    0.0000 C   0  0  0  0  0  0  0  0  0  0  0  0
   -4.2803    2.3596    0.0000 H   0  0  0  0  0  0  0  0  0  0  0  0
   -3.7100   -0.2100    0.0000 C   0  0  0  0  0  0  0  0  0  0  0  0
   -5.1752   -0.5313    0.0000 H   0  0  0  0  0  0  0  0  0  0  0  0
   -2.7100   -1.3300    0.0000 C   0  0  0  0  0  0  0  0  0  0  0  0
   -3.1753   -2.7560    0.0000 H   0  0  0  0  0  0  0  0  0  0  0  0
  1  2  1  0  0  0  0 
  1  3  1  0  0  0  0 
  1  4  1  0  0  0  0 
  1  5  1  0  0  0  0 
  5  6  1  0  0  0  0 
  5  7  1  0  0  0  0 
  7  8  2  0  0  0  0 
  8  9  1  0  0  0  0 
  9 10  1  0  0  0  0 
  9 11  2  0  0  0  0 
 11 12  1  0  0  0  0 
 11 13  1  0  0  0  0 
 13 14  1  0  0  0  0 
 13 15  2  0  0  0  0 
  7 15  1  0  0  0  0 
 15 16  1  0  0  0  0 
  8 17  1  0  0  0  0 
 17 18  2  0  0  0  0 
 17 19  1  0  0  0  0 
 19 20  1  0  0  0  0 
 20 21  1  0  0  0  0 
 20 22  1  0  0  0  0 
 20 23  1  0  0  0  0 
 23 24  1  0  0  0  0 
 23 25  1  0  0  0  0 
 23 26  1  0  0  0  0 
 26 27  2  0  0  0  0 
 27 28  1  0  0  0  0 
 19 28  1  0  0  0  0 
 28 29  2  0  0  0  0 
 27 30  1  0  0  0  0 
 30 31  1  0  0  0  0 
 30 32  1  0  0  0  0 
 32 33  2  0  0  0  0 
 26 33  1  0  0  0  0 
 33 34  1  0  0  0  0 
 34 35  1  0  0  0  0 
 34 36  2  0  0  0  0 
 36 37  1  0  0  0  0 
 36 38  1  0  0  0  0 
 38 39  1  0  0  0  0 
 38 40  2  0  0  0  0 
 32 40  1  0  0  0  0 
 40 41  1  0  0  0  0 
M  END
> <Rank>
16

> <Priority_score>
0.104

> <Reaction_type>
N-dealkylation

> <Parent_ID>
35

> <Parent_InChI>
InChI=1S/C19H17N3O/c1-21-16-9-5-3-7-14(16)19(23)22-11-10-13-12-6-2-4-8-15(12)20-17(13)18(21)22/h2-9,18,20H,10-11H2,1H3

> <Parent_SMILES>
CN1c2ccccc2C(=O)N2CCc3c([nH]c4ccccc34)C21

$$$$
Molecule 35_metabolite 17
  CDK     0516241031

 43 46  0  0  0  0  0  0  0  0999 V2000
    0.0888   -2.1249    0.0000 C   0  0  0  0  0  0  0  0  0  0  0  0
   -0.4456   -3.5265    0.0000 H   0  0  0  0  0  0  0  0  0  0  0  0
   -1.3843   -1.8421    0.0000 H   0  0  0  0  0  0  0  0  0  0  0  0
    0.1116   -0.6251    0.0000 H   0  0  0  0  0  0  0  0  0  0  0  0
    1.5698   -1.8869    0.0000 N   0  0  0  0  0  0  0  0  0  0  0  0
    3.1223   -3.7952    0.0000 C   0  0  0  0  0  0  0  0  0  0  0  0
    4.5761   -3.5464    0.0000 C   0  0  0  0  0  0  0  0  0  0  0  0
    5.5176   -4.6885    0.0000 C   0  0  0  0  0  0  0  0  0  0  0  0
    6.9964   -4.4373    0.0000 H   0  0  0  0  0  0  0  0  0  0  0  0
    5.0053   -6.0793    0.0000 C   0  0  0  0  0  0  0  0  0  0  0  0
    5.9643   -7.2327    0.0000 H   0  0  0  0  0  0  0  0  0  0  0  0
    3.5515   -6.3281    0.0000 C   0  0  0  0  0  0  0  0  0  0  0  0
    3.0430   -7.7393    0.0000 H   0  0  0  0  0  0  0  0  0  0  0  0
    2.5742   -5.1902    0.0000 C   0  0  0  0  0  0  0  0  0  0  0  0
    1.0952   -5.4404    0.0000 H   0  0  0  0  0  0  0  0  0  0  0  0
    5.0988   -2.1404    0.0000 C   0  0  0  0  0  0  0  0  0  0  0  0
    4.1425   -0.9847    0.0000 O   0  0  0  0  0  0  0  0  0  0  0  0
    6.5777   -1.8901    0.0000 O   0  0  0  0  0  0  0  0  0  0  0  0
    7.1005   -0.4841    0.0000 H   0  0  0  0  0  0  0  0  0  0  0  0
    2.6171    0.8602    0.0000 C   0  0  0  0  0  0  0  0  0  0  0  0
    3.9064    0.0936    0.0000 H   0  0  0  0  0  0  0  0  0  0  0  0
    1.1771    1.1402    0.0000 C   0  0  0  0  0  0  0  0  0  0  0  0
    0.6171    2.5602    0.0000 C   0  0  0  0  0  0  0  0  0  0  0  0
    1.6871    3.6502    0.0000 C   0  0  0  0  0  0  0  0  0  0  0  0
    2.2405    5.0444    0.0000 H   0  0  0  0  0  0  0  0  0  0  0  0
    0.4300    4.4684    0.0000 H   0  0  0  0  0  0  0  0  0  0  0  0
    3.1271    3.3902    0.0000 C   0  0  0  0  0  0  0  0  0  0  0  0
    4.6111    3.6090    0.0000 H   0  0  0  0  0  0  0  0  0  0  0  0
    3.1513    4.8900    0.0000 H   0  0  0  0  0  0  0  0  0  0  0  0
    3.5771    1.9802    0.0000 N   0  0  0  0  0  0  0  0  0  0  0  0
    5.0473    1.6824    0.0000 H   0  0  0  0  0  0  0  0  0  0  0  0
   -0.8029    2.5602    0.0000 C   0  0  0  0  0  0  0  0  0  0  0  0
   -1.2629    1.0902    0.0000 C   0  0  0  0  0  0  0  0  0  0  0  0
   -2.8029    0.7602    0.0000 C   0  0  0  0  0  0  0  0  0  0  0  0
   -3.2682   -0.6658    0.0000 H   0  0  0  0  0  0  0  0  0  0  0  0
   -3.8029    1.8802    0.0000 C   0  0  0  0  0  0  0  0  0  0  0  0
   -5.2680    1.5589    0.0000 H   0  0  0  0  0  0  0  0  0  0  0  0
   -3.3529    3.3502    0.0000 C   0  0  0  0  0  0  0  0  0  0  0  0
   -4.3731    4.4498    0.0000 H   0  0  0  0  0  0  0  0  0  0  0  0
   -1.8929    3.6802    0.0000 C   0  0  0  0  0  0  0  0  0  0  0  0
   -1.4663    5.1183    0.0000 H   0  0  0  0  0  0  0  0  0  0  0  0
   -0.0929    0.2802    0.0000 N   0  0  0  0  0  0  0  0  0  0  0  0
   -0.6131   -1.1267    0.0000 H   0  0  0  0  0  0  0  0  0  0  0  0
  1  2  1  0  0  0  0 
  1  3  1  0  0  0  0 
  1  4  1  0  0  0  0 
  1  5  1  0  0  0  0 
  5  6  1  0  0  0  0 
  6  7  2  0  0  0  0 
  7  8  1  0  0  0  0 
  8  9  1  0  0  0  0 
  8 10  2  0  0  0  0 
 10 11  1  0  0  0  0 
 10 12  1  0  0  0  0 
 12 13  1  0  0  0  0 
 12 14  2  0  0  0  0 
  6 14  1  0  0  0  0 
 14 15  1  0  0  0  0 
  7 16  1  0  0  0  0 
 16 17  2  0  0  0  0 
 16 18  1  0  0  0  0 
 18 19  1  0  0  0  0 
  5 20  1  0  0  0  0 
 20 21  1  0  0  0  0 
 20 22  1  0  0  0  0 
 22 23  2  0  0  0  0 
 23 24  1  0  0  0  0 
 24 25  1  0  0  0  0 
 24 26  1  0  0  0  0 
 24 27  1  0  0  0  0 
 27 28  1  0  0  0  0 
 27 29  1  0  0  0  0 
 27 30  1  0  0  0  0 
 20 30  1  0  0  0  0 
 30 31  1  0  0  0  0 
 23 32  1  0  0  0  0 
 32 33  2  0  0  0  0 
 33 34  1  0  0  0  0 
 34 35  1  0  0  0  0 
 34 36  2  0  0  0  0 
 36 37  1  0  0  0  0 
 36 38  1  0  0  0  0 
 38 39  1  0  0  0  0 
 38 40  2  0  0  0  0 
 32 40  1  0  0  0  0 
 40 41  1  0  0  0  0 
 33 42  1  0  0  0  0 
 22 42  1  0  0  0  0 
 42 43  1  0  0  0  0 
M  END
> <Rank>
17

> <Priority_score>
0.092

> <Reaction_type>
hydrolysis_(tertiary_amide)

> <Parent_ID>
35

> <Parent_InChI>
InChI=1S/C19H17N3O/c1-21-16-9-5-3-7-14(16)19(23)22-11-10-13-12-6-2-4-8-15(12)20-17(13)18(21)22/h2-9,18,20H,10-11H2,1H3

> <Parent_SMILES>
CN1c2ccccc2C(=O)N2CCc3c([nH]c4ccccc34)C21

$$$$
Molecule 35_metabolite 18
  CDK     0516241031

 41 45  0  0  0  0  0  0  0  0999 V2000
    0.8558    3.5751    0.0000 C   0  0  0  0  0  0  0  0  0  0  0  0
   -0.5538    3.0621    0.0000 H   0  0  0  0  0  0  0  0  0  0  0  0
    0.1058    4.8742    0.0000 H   0  0  0  0  0  0  0  0  0  0  0  0
    2.0048    4.5393    0.0000 H   0  0  0  0  0  0  0  0  0  0  0  0
    2.0048    2.6110    0.0000 N   0  0  0  0  0  0  0  0  0  0  0  0
    3.3039    3.3610    0.0000 C   0  0  0  0  0  0  0  0  0  0  0  0
    4.6029    2.6110    0.0000 C   0  0  0  0  0  0  0  0  0  0  0  0
    5.9019    3.3610    0.0000 C   0  0  0  0  0  0  0  0  0  0  0  0
    7.2010    2.6110    0.0000 H   0  0  0  0  0  0  0  0  0  0  0  0
    5.9019    4.8610    0.0000 C   0  0  0  0  0  0  0  0  0  0  0  0
    7.2010    5.6110    0.0000 H   0  0  0  0  0  0  0  0  0  0  0  0
    4.6029    5.6110    0.0000 C   0  0  0  0  0  0  0  0  0  0  0  0
    4.6029    7.1110    0.0000 H   0  0  0  0  0  0  0  0  0  0  0  0
    3.3039    4.8610    0.0000 C   0  0  0  0  0  0  0  0  0  0  0  0
    2.0048    5.6110    0.0000 H   0  0  0  0  0  0  0  0  0  0  0  0
    4.6029    1.1110    0.0000 C   0  0  0  0  0  0  0  0  0  0  0  0
    5.9019    0.3610    0.0000 O   0  0  0  0  0  0  0  0  0  0  0  0
    3.3039    0.3610    0.0000 N   0  0  0  0  0  0  0  0  0  0  0  0
    3.3039   -1.1390    0.0000 C   0  0  0  0  0  0  0  0  0  0  0  0
    3.8169   -2.5486    0.0000 H   0  0  0  0  0  0  0  0  0  0  0  0
    4.7811   -0.8786    0.0000 H   0  0  0  0  0  0  0  0  0  0  0  0
    2.0048   -1.8890    0.0000 C   0  0  0  0  0  0  0  0  0  0  0  0
    1.0406   -3.0381    0.0000 H   0  0  0  0  0  0  0  0  0  0  0  0
    2.9690   -3.0381    0.0000 H   0  0  0  0  0  0  0  0  0  0  0  0
    0.7058   -1.1390    0.0000 C   0  0  0  0  0  0  0  0  0  0  0  0
    0.7058    0.3610    0.0000 C   0  0  0  0  0  0  0  0  0  0  0  0
    2.0048    1.1110    0.0000 C   0  0  0  0  0  0  0  0  0  0  0  0
    0.8558    2.0751    0.0000 O   0  0  0  0  0  0  0  0  0  0  0  0
   -0.5538    1.5621    0.0000 H   0  0  0  0  0  0  0  0  0  0  0  0
   -0.7208    0.8245    0.0000 N   0  0  0  0  0  0  0  0  0  0  0  0
   -1.1843    2.2511    0.0000 H   0  0  0  0  0  0  0  0  0  0  0  0
   -1.6025   -0.3890    0.0000 C   0  0  0  0  0  0  0  0  0  0  0  0
   -0.7208   -1.6026    0.0000 C   0  0  0  0  0  0  0  0  0  0  0  0
   -1.3309   -2.9729    0.0000 C   0  0  0  0  0  0  0  0  0  0  0  0
   -0.4492   -4.1864    0.0000 H   0  0  0  0  0  0  0  0  0  0  0  0
   -2.8227   -3.1297    0.0000 C   0  0  0  0  0  0  0  0  0  0  0  0
   -3.4328   -4.5000    0.0000 H   0  0  0  0  0  0  0  0  0  0  0  0
   -3.7044   -1.9162    0.0000 C   0  0  0  0  0  0  0  0  0  0  0  0
   -5.1962   -2.0729    0.0000 H   0  0  0  0  0  0  0  0  0  0  0  0
   -3.0943   -0.5458    0.0000 C   0  0  0  0  0  0  0  0  0  0  0  0
   -3.9759    0.6677    0.0000 H   0  0  0  0  0  0  0  0  0  0  0  0
  1  2  1  0  0  0  0 
  1  3  1  0  0  0  0 
  1  4  1  0  0  0  0 
  1  5  1  0  0  0  0 
  5  6  1  0  0  0  0 
  6  7  2  0  0  0  0 
  7  8  1  0  0  0  0 
  8  9  1  0  0  0  0 
  8 10  2  0  0  0  0 
 10 11  1  0  0  0  0 
 10 12  1  0  0  0  0 
 12 13  1  0  0  0  0 
 12 14  2  0  0  0  0 
  6 14  1  0  0  0  0 
 14 15  1  0  0  0  0 
  7 16  1  0  0  0  0 
 16 17  2  0  0  0  0 
 16 18  1  0  0  0  0 
 18 19  1  0  0  0  0 
 19 20  1  0  0  0  0 
 19 21  1  0  0  0  0 
 19 22  1  0  0  0  0 
 22 23  1  0  0  0  0 
 22 24  1  0  0  0  0 
 22 25  1  0  0  0  0 
 25 26  2  0  0  0  0 
 26 27  1  0  0  0  0 
  5 27  1  0  0  0  0 
 18 27  1  0  0  0  0 
 27 28  1  0  0  0  0 
 28 29  1  0  0  0  0 
 26 30  1  0  0  0  0 
 30 31  1  0  0  0  0 
 30 32  1  0  0  0  0 
 32 33  2  0  0  0  0 
 25 33  1  0  0  0  0 
 33 34  1  0  0  0  0 
 34 35  1  0  0  0  0 
 34 36  2  0  0  0  0 
 36 37  1  0  0  0  0 
 36 38  1  0  0  0  0 
 38 39  1  0  0  0  0 
 38 40  2  0  0  0  0 
 32 40  1  0  0  0  0 
 40 41  1  0  0  0  0 
M  END
> <Rank>
17

> <Priority_score>
0.092

> <Reaction_type>
aliphatic hydroxylation

> <Parent_ID>
35

> <Parent_InChI>
InChI=1S/C19H17N3O/c1-21-16-9-5-3-7-14(16)19(23)22-11-10-13-12-6-2-4-8-15(12)20-17(13)18(21)22/h2-9,18,20H,10-11H2,1H3

> <Parent_SMILES>
CN1c2ccccc2C(=O)N2CCc3c([nH]c4ccccc34)C21

$$$$
Molecule 35_metabolite 19
  CDK     0516241031

 41 44  0  0  0  0  0  0  0  0999 V2000
   -1.1202    2.6989    0.0000 C   0  0  0  0  0  0  0  0  0  0  0  0
   -2.6202    2.6987    0.0000 H   0  0  0  0  0  0  0  0  0  0  0  0
   -1.3809    4.1761    0.0000 H   0  0  0  0  0  0  0  0  0  0  0  0
    0.2892    3.2122    0.0000 H   0  0  0  0  0  0  0  0  0  0  0  0
   -0.3700    1.4000    0.0000 N   0  0  0  0  0  0  0  0  0  0  0  0
    0.3800    2.7000    0.0000 C   0  0  0  0  0  0  0  0  0  0  0  0
    1.8800    2.7000    0.0000 C   0  0  0  0  0  0  0  0  0  0  0  0
    2.6300    3.9990    0.0000 C   0  0  0  0  0  0  0  0  0  0  0  0
    4.1300    3.9990    0.0000 H   0  0  0  0  0  0  0  0  0  0  0  0
    1.8800    5.2981    0.0000 C   0  0  0  0  0  0  0  0  0  0  0  0
    2.6300    6.5971    0.0000 H   0  0  0  0  0  0  0  0  0  0  0  0
    0.3800    5.2981    0.0000 C   0  0  0  0  0  0  0  0  0  0  0  0
   -0.3700    6.5971    0.0000 H   0  0  0  0  0  0  0  0  0  0  0  0
   -0.3700    3.9990    0.0000 C   0  0  0  0  0  0  0  0  0  0  0  0
   -1.8700    3.9990    0.0000 H   0  0  0  0  0  0  0  0  0  0  0  0
    2.6300    1.4000    0.0000 C   0  0  0  0  0  0  0  0  0  0  0  0
    4.1300    1.4000    0.0000 O   0  0  0  0  0  0  0  0  0  0  0  0
    1.8800    0.1000    0.0000 N   0  0  0  0  0  0  0  0  0  0  0  0
    2.6302   -1.1989    0.0000 H   0  0  0  0  0  0  0  0  0  0  0  0
    0.3700    0.1000    0.0000 C   0  0  0  0  0  0  0  0  0  0  0  0
    0.6303    1.5772    0.0000 H   0  0  0  0  0  0  0  0  0  0  0  0
   -1.0396    0.6127    0.0000 H   0  0  0  0  0  0  0  0  0  0  0  0
   -0.3800   -1.2000    0.0000 C   0  0  0  0  0  0  0  0  0  0  0  0
   -0.6403   -2.6772    0.0000 H   0  0  0  0  0  0  0  0  0  0  0  0
    1.0296   -1.7127    0.0000 H   0  0  0  0  0  0  0  0  0  0  0  0
   -1.8800   -1.2000    0.0000 C   0  0  0  0  0  0  0  0  0  0  0  0
   -2.6300    0.1000    0.0000 C   0  0  0  0  0  0  0  0  0  0  0  0
   -1.8800    1.4000    0.0000 C   0  0  0  0  0  0  0  0  0  0  0  0
   -1.1298    0.1011    0.0000 O   0  0  0  0  0  0  0  0  0  0  0  0
   -4.0972   -0.2119    0.0000 N   0  0  0  0  0  0  0  0  0  0  0  0
   -5.2118    0.7919    0.0000 H   0  0  0  0  0  0  0  0  0  0  0  0
   -4.2544   -1.7035    0.0000 C   0  0  0  0  0  0  0  0  0  0  0  0
   -2.8844   -2.3141    0.0000 C   0  0  0  0  0  0  0  0  0  0  0  0
   -2.7281   -3.8059    0.0000 C   0  0  0  0  0  0  0  0  0  0  0  0
   -1.3580   -4.4165    0.0000 H   0  0  0  0  0  0  0  0  0  0  0  0
   -3.9420   -4.6871    0.0000 C   0  0  0  0  0  0  0  0  0  0  0  0
   -3.7858   -6.1790    0.0000 H   0  0  0  0  0  0  0  0  0  0  0  0
   -5.3121   -4.0765    0.0000 C   0  0  0  0  0  0  0  0  0  0  0  0
   -6.5260   -4.9577    0.0000 H   0  0  0  0  0  0  0  0  0  0  0  0
   -5.4683   -2.5846    0.0000 C   0  0  0  0  0  0  0  0  0  0  0  0
   -6.8384   -1.9740    0.0000 H   0  0  0  0  0  0  0  0  0  0  0  0
  1  2  1  0  0  0  0 
  1  3  1  0  0  0  0 
  1  4  1  0  0  0  0 
  1  5  1  0  0  0  0 
  5  6  1  0  0  0  0 
  6  7  2  0  0  0  0 
  7  8  1  0  0  0  0 
  8  9  1  0  0  0  0 
  8 10  2  0  0  0  0 
 10 11  1  0  0  0  0 
 10 12  1  0  0  0  0 
 12 13  1  0  0  0  0 
 12 14  2  0  0  0  0 
  6 14  1  0  0  0  0 
 14 15  1  0  0  0  0 
  7 16  1  0  0  0  0 
 16 17  2  0  0  0  0 
 16 18  1  0  0  0  0 
 18 19  1  0  0  0  0 
 18 20  1  0  0  0  0 
 20 21  1  0  0  0  0 
 20 22  1  0  0  0  0 
 20 23  1  0  0  0  0 
 23 24  1  0  0  0  0 
 23 25  1  0  0  0  0 
 23 26  1  0  0  0  0 
 26 27  2  0  0  0  0 
 27 28  1  0  0  0  0 
  5 28  1  0  0  0  0 
 28 29  2  0  0  0  0 
 27 30  1  0  0  0  0 
 30 31  1  0  0  0  0 
 30 32  1  0  0  0  0 
 32 33  2  0  0  0  0 
 26 33  1  0  0  0  0 
 33 34  1  0  0  0  0 
 34 35  1  0  0  0  0 
 34 36  2  0  0  0  0 
 36 37  1  0  0  0  0 
 36 38  1  0  0  0  0 
 38 39  1  0  0  0  0 
 38 40  2  0  0  0  0 
 32 40  1  0  0  0  0 
 40 41  1  0  0  0  0 
M  END
> <Rank>
17

> <Priority_score>
0.092

> <Reaction_type>
N-dealkylation

> <Parent_ID>
35

> <Parent_InChI>
InChI=1S/C19H17N3O/c1-21-16-9-5-3-7-14(16)19(23)22-11-10-13-12-6-2-4-8-15(12)20-17(13)18(21)22/h2-9,18,20H,10-11H2,1H3

> <Parent_SMILES>
CN1c2ccccc2C(=O)N2CCc3c([nH]c4ccccc34)C21

$$$$
Molecule 35_metabolite 20
  CDK     0516241031

 41 45  0  0  0  0  0  0  0  0999 V2000
    0.8558    3.5751    0.0000 C   0  0  0  0  0  0  0  0  0  0  0  0
   -0.5538    3.0621    0.0000 H   0  0  0  0  0  0  0  0  0  0  0  0
    0.1058    4.8742    0.0000 H   0  0  0  0  0  0  0  0  0  0  0  0
    2.0048    4.5393    0.0000 H   0  0  0  0  0  0  0  0  0  0  0  0
    2.0048    2.6110    0.0000 N   0  0  0  0  0  0  0  0  0  0  0  0
    3.3039    3.3610    0.0000 C   0  0  0  0  0  0  0  0  0  0  0  0
    4.6029    2.6110    0.0000 C   0  0  0  0  0  0  0  0  0  0  0  0
    5.9019    3.3610    0.0000 C   0  0  0  0  0  0  0  0  0  0  0  0
    7.2010    2.6110    0.0000 H   0  0  0  0  0  0  0  0  0  0  0  0
    5.9019    4.8610    0.0000 C   0  0  0  0  0  0  0  0  0  0  0  0
    7.2010    5.6110    0.0000 H   0  0  0  0  0  0  0  0  0  0  0  0
    4.6029    5.6110    0.0000 C   0  0  0  0  0  0  0  0  0  0  0  0
    4.6029    7.1110    0.0000 H   0  0  0  0  0  0  0  0  0  0  0  0
    3.3039    4.8610    0.0000 C   0  0  0  0  0  0  0  0  0  0  0  0
    2.0048    5.6110    0.0000 H   0  0  0  0  0  0  0  0  0  0  0  0
    4.6029    1.1110    0.0000 C   0  0  0  0  0  0  0  0  0  0  0  0
    5.9019    0.3610    0.0000 O   0  0  0  0  0  0  0  0  0  0  0  0
    3.3039    0.3610    0.0000 N   0  0  0  0  0  0  0  0  0  0  0  0
    3.3039   -1.1390    0.0000 C   0  0  0  0  0  0  0  0  0  0  0  0
    3.8169   -2.5486    0.0000 H   0  0  0  0  0  0  0  0  0  0  0  0
    1.8266   -0.8786    0.0000 H   0  0  0  0  0  0  0  0  0  0  0  0
    2.0048   -1.8890    0.0000 C   0  0  0  0  0  0  0  0  0  0  0  0
    1.0406   -3.0381    0.0000 H   0  0  0  0  0  0  0  0  0  0  0  0
    2.9690   -3.0381    0.0000 H   0  0  0  0  0  0  0  0  0  0  0  0
    0.7058   -1.1390    0.0000 C   0  0  0  0  0  0  0  0  0  0  0  0
    0.7058    0.3610    0.0000 C   0  0  0  0  0  0  0  0  0  0  0  0
    2.0048    1.1110    0.0000 C   0  0  0  0  0  0  0  0  0  0  0  0
    0.7058    1.8610    0.0000 H   0  0  0  0  0  0  0  0  0  0  0  0
   -0.7208    0.8245    0.0000 N   0  0  0  0  0  0  0  0  0  0  0  0
   -1.1843    2.2511    0.0000 H   0  0  0  0  0  0  0  0  0  0  0  0
   -1.6025   -0.3890    0.0000 C   0  0  0  0  0  0  0  0  0  0  0  0
   -0.7208   -1.6026    0.0000 C   0  0  0  0  0  0  0  0  0  0  0  0
   -1.3309   -2.9729    0.0000 C   0  0  0  0  0  0  0  0  0  0  0  0
   -0.4492   -4.1864    0.0000 H   0  0  0  0  0  0  0  0  0  0  0  0
   -2.8227   -3.1297    0.0000 C   0  0  0  0  0  0  0  0  0  0  0  0
   -3.4328   -4.5000    0.0000 H   0  0  0  0  0  0  0  0  0  0  0  0
   -3.7044   -1.9162    0.0000 C   0  0  0  0  0  0  0  0  0  0  0  0
   -5.1962   -2.0729    0.0000 H   0  0  0  0  0  0  0  0  0  0  0  0
   -3.0943   -0.5458    0.0000 C   0  0  0  0  0  0  0  0  0  0  0  0
   -3.9759    0.6677    0.0000 H   0  0  0  0  0  0  0  0  0  0  0  0
    4.6029   -0.3890    0.0000 O   0  0  0  0  0  0  0  0  0  0  0  0
  1  2  1  0  0  0  0 
  1  3  1  0  0  0  0 
  1  4  1  0  0  0  0 
  1  5  1  0  0  0  0 
  5  6  1  0  0  0  0 
  6  7  2  0  0  0  0 
  7  8  1  0  0  0  0 
  8  9  1  0  0  0  0 
  8 10  2  0  0  0  0 
 10 11  1  0  0  0  0 
 10 12  1  0  0  0  0 
 12 13  1  0  0  0  0 
 12 14  2  0  0  0  0 
  6 14  1  0  0  0  0 
 14 15  1  0  0  0  0 
  7 16  1  0  0  0  0 
 16 17  2  0  0  0  0 
 16 18  1  0  0  0  0 
 18 19  1  0  0  0  0 
 19 20  1  0  0  0  0 
 19 21  1  0  0  0  0 
 19 22  1  0  0  0  0 
 22 23  1  0  0  0  0 
 22 24  1  0  0  0  0 
 22 25  1  0  0  0  0 
 25 26  2  0  0  0  0 
 26 27  1  0  0  0  0 
  5 27  1  0  0  0  0 
 18 27  1  0  0  0  0 
 27 28  1  0  0  0  0 
 26 29  1  0  0  0  0 
 29 30  1  0  0  0  0 
 29 31  1  0  0  0  0 
 31 32  2  0  0  0  0 
 25 32  1  0  0  0  0 
 32 33  1  0  0  0  0 
 33 34  1  0  0  0  0 
 33 35  2  0  0  0  0 
 35 36  1  0  0  0  0 
 35 37  1  0  0  0  0 
 37 38  1  0  0  0  0 
 37 39  2  0  0  0  0 
 31 39  1  0  0  0  0 
 39 40  1  0  0  0  0 
 18 41  1  0  0  0  0 
M  CHG  1  18   1
M  CHG  1  41  -1
M  END
> <Rank>
17

> <Priority_score>
0.092

> <Reaction_type>
N-oxidation

> <Parent_ID>
35

> <Parent_InChI>
InChI=1S/C19H17N3O/c1-21-16-9-5-3-7-14(16)19(23)22-11-10-13-12-6-2-4-8-15(12)20-17(13)18(21)22/h2-9,18,20H,10-11H2,1H3

> <Parent_SMILES>
CN1c2ccccc2C(=O)N2CCc3c([nH]c4ccccc34)C21

$$$$
Molecule 35_metabolite 21
  CDK     0516241031

 41 44  0  0  0  0  0  0  0  0999 V2000
    1.8503    0.9967    0.0000 C   0  0  0  0  0  0  0  0  0  0  0  0
    3.2599    1.5097    0.0000 H   0  0  0  0  0  0  0  0  0  0  0  0
    1.3398    3.8920    0.0000 H   0  0  0  0  0  0  0  0  0  0  0  0
    0.3503    0.9967    0.0000 H   0  0  0  0  0  0  0  0  0  0  0  0
    1.5898   -0.4805    0.0000 N   0  0  0  0  0  0  0  0  0  0  0  0
    0.2898   -1.2305    0.0000 C   0  0  0  0  0  0  0  0  0  0  0  0
    0.2898   -2.7305    0.0000 C   0  0  0  0  0  0  0  0  0  0  0  0
   -1.0102   -3.4805    0.0000 C   0  0  0  0  0  0  0  0  0  0  0  0
   -1.0102   -4.9805    0.0000 H   0  0  0  0  0  0  0  0  0  0  0  0
   -2.3102   -2.7305    0.0000 C   0  0  0  0  0  0  0  0  0  0  0  0
   -3.6091   -3.4807    0.0000 H   0  0  0  0  0  0  0  0  0  0  0  0
   -2.3102   -1.2305    0.0000 C   0  0  0  0  0  0  0  0  0  0  0  0
   -3.6091   -0.4803    0.0000 H   0  0  0  0  0  0  0  0  0  0  0  0
   -1.0102   -0.4805    0.0000 C   0  0  0  0  0  0  0  0  0  0  0  0
   -1.0102    1.0195    0.0000 H   0  0  0  0  0  0  0  0  0  0  0  0
    1.5898   -3.4805    0.0000 C   0  0  0  0  0  0  0  0  0  0  0  0
    1.5898   -4.9805    0.0000 O   0  0  0  0  0  0  0  0  0  0  0  0
    2.8898   -2.7305    0.0000 N   0  0  0  0  0  0  0  0  0  0  0  0
    4.1888   -3.4807    0.0000 H   0  0  0  0  0  0  0  0  0  0  0  0
    2.8898   -1.2305    0.0000 C   0  0  0  0  0  0  0  0  0  0  0  0
    4.3671   -1.4908    0.0000 H   0  0  0  0  0  0  0  0  0  0  0  0
    4.4063    0.0425    0.0000 C   0  0  0  0  0  0  0  0  0  0  0  0
    5.8583   -0.3184    0.0000 C   0  0  0  0  0  0  0  0  0  0  0  0
    6.4188   -1.7098    0.0000 C   0  0  0  0  0  0  0  0  0  0  0  0
    4.9513   -2.0201    0.0000 H   0  0  0  0  0  0  0  0  0  0  0  0
    6.4696   -3.2089    0.0000 H   0  0  0  0  0  0  0  0  0  0  0  0
    7.9040   -1.9200    0.0000 C   0  0  0  0  0  0  0  0  0  0  0  0
    8.4645   -3.3114    0.0000 H   0  0  0  0  0  0  0  0  0  0  0  0
    8.8287   -0.7390    0.0000 O   0  0  0  0  0  0  0  0  0  0  0  0
    6.6578    0.9533    0.0000 C   0  0  0  0  0  0  0  0  0  0  0  0
    5.6934    2.1022    0.0000 C   0  0  0  0  0  0  0  0  0  0  0  0
    6.2068    3.5124    0.0000 C   0  0  0  0  0  0  0  0  0  0  0  0
    5.2424    4.6613    0.0000 H   0  0  0  0  0  0  0  0  0  0  0  0
    7.6847    3.7739    0.0000 C   0  0  0  0  0  0  0  0  0  0  0  0
    8.1972    5.1836    0.0000 H   0  0  0  0  0  0  0  0  0  0  0  0
    8.6492    2.6250    0.0000 C   0  0  0  0  0  0  0  0  0  0  0  0
   10.1264    2.8855    0.0000 H   0  0  0  0  0  0  0  0  0  0  0  0
    8.1357    1.2147    0.0000 C   0  0  0  0  0  0  0  0  0  0  0  0
    9.1001    0.0659    0.0000 H   0  0  0  0  0  0  0  0  0  0  0  0
    4.3024    1.5351    0.0000 N   0  0  0  0  0  0  0  0  0  0  0  0
    2.6217    2.5819    0.0000 H   0  0  0  0  0  0  0  0  0  0  0  0
  1  2  1  0  0  0  0 
  1  3  1  0  0  0  0 
  1  4  1  0  0  0  0 
  1  5  1  0  0  0  0 
  5  6  1  0  0  0  0 
  6  7  2  0  0  0  0 
  7  8  1  0  0  0  0 
  8  9  1  0  0  0  0 
  8 10  2  0  0  0  0 
 10 11  1  0  0  0  0 
 10 12  1  0  0  0  0 
 12 13  1  0  0  0  0 
 12 14  2  0  0  0  0 
  6 14  1  0  0  0  0 
 14 15  1  0  0  0  0 
  7 16  1  0  0  0  0 
 16 17  2  0  0  0  0 
 16 18  1  0  0  0  0 
 18 19  1  0  0  0  0 
 18 20  1  0  0  0  0 
  5 20  1  0  0  0  0 
 20 21  1  0  0  0  0 
 20 22  1  0  0  0  0 
 22 23  2  0  0  0  0 
 23 24  1  0  0  0  0 
 24 25  1  0  0  0  0 
 24 26  1  0  0  0  0 
 24 27  1  0  0  0  0 
 27 28  1  0  0  0  0 
 27 29  2  0  0  0  0 
 23 30  1  0  0  0  0 
 30 31  2  0  0  0  0 
 31 32  1  0  0  0  0 
 32 33  1  0  0  0  0 
 32 34  2  0  0  0  0 
 34 35  1  0  0  0  0 
 34 36  1  0  0  0  0 
 36 37  1  0  0  0  0 
 36 38  2  0  0  0  0 
 30 38  1  0  0  0  0 
 38 39  1  0  0  0  0 
 31 40  1  0  0  0  0 
 22 40  1  0  0  0  0 
 40 41  1  0  0  0  0 
M  END
> <Rank>
21

> <Priority_score>
0.068

> <Reaction_type>
N-dealkylation

> <Parent_ID>
35

> <Parent_InChI>
InChI=1S/C19H17N3O/c1-21-16-9-5-3-7-14(16)19(23)22-11-10-13-12-6-2-4-8-15(12)20-17(13)18(21)22/h2-9,18,20H,10-11H2,1H3

> <Parent_SMILES>
CN1c2ccccc2C(=O)N2CCc3c([nH]c4ccccc34)C21

$$$$
Molecule 35_metabolite 22
  CDK     0516241031

 41 45  0  0  0  0  0  0  0  0999 V2000
   -0.4433    3.5751    0.0000 C   0  0  0  0  0  0  0  0  0  0  0  0
   -1.8528    3.0621    0.0000 H   0  0  0  0  0  0  0  0  0  0  0  0
   -1.1933    4.8742    0.0000 H   0  0  0  0  0  0  0  0  0  0  0  0
    0.7058    4.5393    0.0000 H   0  0  0  0  0  0  0  0  0  0  0  0
    0.7058    2.6110    0.0000 N   0  0  0  0  0  0  0  0  0  0  0  0
    2.0048    3.3610    0.0000 C   0  0  0  0  0  0  0  0  0  0  0  0
    2.0048    4.8610    0.0000 C   0  0  0  0  0  0  0  0  0  0  0  0
    0.7058    5.6110    0.0000 H   0  0  0  0  0  0  0  0  0  0  0  0
    3.3039    5.6110    0.0000 C   0  0  0  0  0  0  0  0  0  0  0  0
    3.3039    7.1110    0.0000 H   0  0  0  0  0  0  0  0  0  0  0  0
    4.6029    4.8610    0.0000 C   0  0  0  0  0  0  0  0  0  0  0  0
    5.9019    5.6110    0.0000 H   0  0  0  0  0  0  0  0  0  0  0  0
    4.6029    3.3610    0.0000 C   0  0  0  0  0  0  0  0  0  0  0  0
    3.3039    2.6110    0.0000 C   0  0  0  0  0  0  0  0  0  0  0  0
    3.3039    1.1110    0.0000 C   0  0  0  0  0  0  0  0  0  0  0  0
    4.6029    0.3610    0.0000 O   0  0  0  0  0  0  0  0  0  0  0  0
    2.0048    0.3610    0.0000 N   0  0  0  0  0  0  0  0  0  0  0  0
    2.0048   -1.1390    0.0000 C   0  0  0  0  0  0  0  0  0  0  0  0
    2.5178   -2.5486    0.0000 H   0  0  0  0  0  0  0  0  0  0  0  0
    3.4820   -0.8786    0.0000 H   0  0  0  0  0  0  0  0  0  0  0  0
    0.7058   -1.8890    0.0000 C   0  0  0  0  0  0  0  0  0  0  0  0
   -0.2584   -3.0381    0.0000 H   0  0  0  0  0  0  0  0  0  0  0  0
    1.6700   -3.0381    0.0000 H   0  0  0  0  0  0  0  0  0  0  0  0
   -0.5933   -1.1390    0.0000 C   0  0  0  0  0  0  0  0  0  0  0  0
   -0.5933    0.3610    0.0000 C   0  0  0  0  0  0  0  0  0  0  0  0
    0.7058    1.1110    0.0000 C   0  0  0  0  0  0  0  0  0  0  0  0
   -0.5933    1.8610    0.0000 H   0  0  0  0  0  0  0  0  0  0  0  0
   -2.0198    0.8245    0.0000 N   0  0  0  0  0  0  0  0  0  0  0  0
   -2.4834    2.2511    0.0000 H   0  0  0  0  0  0  0  0  0  0  0  0
   -2.9015   -0.3890    0.0000 C   0  0  0  0  0  0  0  0  0  0  0  0
   -2.0198   -1.6026    0.0000 C   0  0  0  0  0  0  0  0  0  0  0  0
   -2.6299   -2.9729    0.0000 C   0  0  0  0  0  0  0  0  0  0  0  0
   -1.7483   -4.1864    0.0000 H   0  0  0  0  0  0  0  0  0  0  0  0
   -4.1217   -3.1297    0.0000 C   0  0  0  0  0  0  0  0  0  0  0  0
   -4.7318   -4.5000    0.0000 H   0  0  0  0  0  0  0  0  0  0  0  0
   -5.0034   -1.9162    0.0000 C   0  0  0  0  0  0  0  0  0  0  0  0
   -6.4952   -2.0729    0.0000 H   0  0  0  0  0  0  0  0  0  0  0  0
   -4.3933   -0.5458    0.0000 C   0  0  0  0  0  0  0  0  0  0  0  0
   -5.2750    0.6677    0.0000 H   0  0  0  0  0  0  0  0  0  0  0  0
    5.9019    2.6110    0.0000 O   0  0  0  0  0  0  0  0  0  0  0  0
    7.2010    3.3610    0.0000 H   0  0  0  0  0  0  0  0  0  0  0  0
  1  2  1  0  0  0  0 
  1  3  1  0  0  0  0 
  1  4  1  0  0  0  0 
  1  5  1  0  0  0  0 
  5  6  1  0  0  0  0 
  6  7  2  0  0  0  0 
  7  8  1  0  0  0  0 
  7  9  1  0  0  0  0 
  9 10  1  0  0  0  0 
  9 11  2  0  0  0  0 
 11 12  1  0  0  0  0 
 11 13  1  0  0  0  0 
 13 14  2  0  0  0  0 
  6 14  1  0  0  0  0 
 14 15  1  0  0  0  0 
 15 16  2  0  0  0  0 
 15 17  1  0  0  0  0 
 17 18  1  0  0  0  0 
 18 19  1  0  0  0  0 
 18 20  1  0  0  0  0 
 18 21  1  0  0  0  0 
 21 22  1  0  0  0  0 
 21 23  1  0  0  0  0 
 21 24  1  0  0  0  0 
 24 25  2  0  0  0  0 
 25 26  1  0  0  0  0 
  5 26  1  0  0  0  0 
 17 26  1  0  0  0  0 
 26 27  1  0  0  0  0 
 25 28  1  0  0  0  0 
 28 29  1  0  0  0  0 
 28 30  1  0  0  0  0 
 30 31  2  0  0  0  0 
 24 31  1  0  0  0  0 
 31 32  1  0  0  0  0 
 32 33  1  0  0  0  0 
 32 34  2  0  0  0  0 
 34 35  1  0  0  0  0 
 34 36  1  0  0  0  0 
 36 37  1  0  0  0  0 
 36 38  2  0  0  0  0 
 30 38  1  0  0  0  0 
 38 39  1  0  0  0  0 
 13 40  1  0  0  0  0 
 40 41  1  0  0  0  0 
M  END
> <Rank>
22

> <Priority_score>
0.03520337197049526

> <Reaction_type>
aromatic hydroxylation

> <Parent_ID>
35

> <Parent_InChI>
InChI=1S/C19H17N3O/c1-21-16-9-5-3-7-14(16)19(23)22-11-10-13-12-6-2-4-8-15(12)20-17(13)18(21)22/h2-9,18,20H,10-11H2,1H3

> <Parent_SMILES>
CN1c2ccccc2C(=O)N2CCc3c([nH]c4ccccc34)C21

$$$$
Molecule 35_metabolite 23
  CDK     0516241031

 41 45  0  0  0  0  0  0  0  0999 V2000
    0.8558    4.6319    0.0000 C   0  0  0  0  0  0  0  0  0  0  0  0
   -0.5538    4.1188    0.0000 H   0  0  0  0  0  0  0  0  0  0  0  0
    0.1058    5.9309    0.0000 H   0  0  0  0  0  0  0  0  0  0  0  0
    2.0048    5.5961    0.0000 H   0  0  0  0  0  0  0  0  0  0  0  0
    2.0048    3.6677    0.0000 N   0  0  0  0  0  0  0  0  0  0  0  0
    3.3039    4.4177    0.0000 C   0  0  0  0  0  0  0  0  0  0  0  0
    4.6029    3.6677    0.0000 C   0  0  0  0  0  0  0  0  0  0  0  0
    5.9019    4.4177    0.0000 C   0  0  0  0  0  0  0  0  0  0  0  0
    7.2010    3.6677    0.0000 H   0  0  0  0  0  0  0  0  0  0  0  0
    5.9019    5.9177    0.0000 C   0  0  0  0  0  0  0  0  0  0  0  0
    7.2010    6.6677    0.0000 H   0  0  0  0  0  0  0  0  0  0  0  0
    4.6029    6.6677    0.0000 C   0  0  0  0  0  0  0  0  0  0  0  0
    4.6029    8.1677    0.0000 H   0  0  0  0  0  0  0  0  0  0  0  0
    3.3039    5.9177    0.0000 C   0  0  0  0  0  0  0  0  0  0  0  0
    2.0048    6.6677    0.0000 H   0  0  0  0  0  0  0  0  0  0  0  0
    4.6029    2.1677    0.0000 C   0  0  0  0  0  0  0  0  0  0  0  0
    5.9019    1.4177    0.0000 O   0  0  0  0  0  0  0  0  0  0  0  0
    3.3039    1.4177    0.0000 N   0  0  0  0  0  0  0  0  0  0  0  0
    3.3039   -0.0823    0.0000 C   0  0  0  0  0  0  0  0  0  0  0  0
    3.8169   -1.4919    0.0000 H   0  0  0  0  0  0  0  0  0  0  0  0
    4.7811    0.1782    0.0000 H   0  0  0  0  0  0  0  0  0  0  0  0
    2.0048   -0.8323    0.0000 C   0  0  0  0  0  0  0  0  0  0  0  0
    1.0406   -1.9814    0.0000 H   0  0  0  0  0  0  0  0  0  0  0  0
    2.9690   -1.9814    0.0000 H   0  0  0  0  0  0  0  0  0  0  0  0
    0.7058   -0.0823    0.0000 C   0  0  0  0  0  0  0  0  0  0  0  0
    0.7058    1.4177    0.0000 C   0  0  0  0  0  0  0  0  0  0  0  0
    2.0048    2.1677    0.0000 C   0  0  0  0  0  0  0  0  0  0  0  0
    0.7058    2.9177    0.0000 H   0  0  0  0  0  0  0  0  0  0  0  0
   -0.7208    1.8812    0.0000 N   0  0  0  0  0  0  0  0  0  0  0  0
   -1.1843    3.3078    0.0000 H   0  0  0  0  0  0  0  0  0  0  0  0
   -1.6025    0.6677    0.0000 C   0  0  0  0  0  0  0  0  0  0  0  0
   -3.0943    0.5109    0.0000 C   0  0  0  0  0  0  0  0  0  0  0  0
   -3.9759    1.7244    0.0000 H   0  0  0  0  0  0  0  0  0  0  0  0
   -3.7044   -0.8594    0.0000 C   0  0  0  0  0  0  0  0  0  0  0  0
   -5.1962   -1.0162    0.0000 H   0  0  0  0  0  0  0  0  0  0  0  0
   -2.8227   -2.0729    0.0000 C   0  0  0  0  0  0  0  0  0  0  0  0
   -3.4328   -3.4433    0.0000 H   0  0  0  0  0  0  0  0  0  0  0  0
   -1.3309   -1.9162    0.0000 C   0  0  0  0  0  0  0  0  0  0  0  0
   -0.7208   -0.5458    0.0000 C   0  0  0  0  0  0  0  0  0  0  0  0
   -0.4492   -3.1297    0.0000 O   0  0  0  0  0  0  0  0  0  0  0  0
   -1.0593   -4.5000    0.0000 H   0  0  0  0  0  0  0  0  0  0  0  0
  1  2  1  0  0  0  0 
  1  3  1  0  0  0  0 
  1  4  1  0  0  0  0 
  1  5  1  0  0  0  0 
  5  6  1  0  0  0  0 
  6  7  2  0  0  0  0 
  7  8  1  0  0  0  0 
  8  9  1  0  0  0  0 
  8 10  2  0  0  0  0 
 10 11  1  0  0  0  0 
 10 12  1  0  0  0  0 
 12 13  1  0  0  0  0 
 12 14  2  0  0  0  0 
  6 14  1  0  0  0  0 
 14 15  1  0  0  0  0 
  7 16  1  0  0  0  0 
 16 17  2  0  0  0  0 
 16 18  1  0  0  0  0 
 18 19  1  0  0  0  0 
 19 20  1  0  0  0  0 
 19 21  1  0  0  0  0 
 19 22  1  0  0  0  0 
 22 23  1  0  0  0  0 
 22 24  1  0  0  0  0 
 22 25  1  0  0  0  0 
 25 26  2  0  0  0  0 
 26 27  1  0  0  0  0 
  5 27  1  0  0  0  0 
 18 27  1  0  0  0  0 
 27 28  1  0  0  0  0 
 26 29  1  0  0  0  0 
 29 30  1  0  0  0  0 
 29 31  1  0  0  0  0 
 31 32  2  0  0  0  0 
 32 33  1  0  0  0  0 
 32 34  1  0  0  0  0 
 34 35  1  0  0  0  0 
 34 36  2  0  0  0  0 
 36 37  1  0  0  0  0 
 36 38  1  0  0  0  0 
 38 39  2  0  0  0  0 
 25 39  1  0  0  0  0 
 31 39  1  0  0  0  0 
 38 40  1  0  0  0  0 
 40 41  1  0  0  0  0 
M  END
> <Rank>
23

> <Priority_score>
0.027840808591282375

> <Reaction_type>
aromatic hydroxylation

> <Parent_ID>
35

> <Parent_InChI>
InChI=1S/C19H17N3O/c1-21-16-9-5-3-7-14(16)19(23)22-11-10-13-12-6-2-4-8-15(12)20-17(13)18(21)22/h2-9,18,20H,10-11H2,1H3

> <Parent_SMILES>
CN1c2ccccc2C(=O)N2CCc3c([nH]c4ccccc34)C21

$$$$
Molecule 35_metabolite 24
  CDK     0516241031

 39 43  0  0  0  0  0  0  0  0999 V2000
   -0.5114    1.3076    0.0000 C   0  0  0  0  0  0  0  0  0  0  0  0
   -0.5114    2.8076    0.0000 H   0  0  0  0  0  0  0  0  0  0  0  0
    0.0016   -0.1019    0.0000 H   0  0  0  0  0  0  0  0  0  0  0  0
    0.9658    1.5681    0.0000 H   0  0  0  0  0  0  0  0  0  0  0  0
   -1.8104    0.5576    0.0000 N   0  0  0  0  0  0  0  0  0  0  0  0
   -1.8104   -0.9424    0.0000 C   0  0  0  0  0  0  0  0  0  0  0  0
   -0.5114   -1.6924    0.0000 C   0  0  0  0  0  0  0  0  0  0  0  0
   -0.5114   -3.1924    0.0000 C   0  0  0  0  0  0  0  0  0  0  0  0
   -1.8104   -3.9424    0.0000 C   0  0  0  0  0  0  0  0  0  0  0  0
   -2.7746   -5.0915    0.0000 H   0  0  0  0  0  0  0  0  0  0  0  0
   -0.8463   -5.0915    0.0000 H   0  0  0  0  0  0  0  0  0  0  0  0
   -3.1095   -3.1924    0.0000 C   0  0  0  0  0  0  0  0  0  0  0  0
   -4.5867   -2.9319    0.0000 H   0  0  0  0  0  0  0  0  0  0  0  0
   -3.6225   -4.6019    0.0000 H   0  0  0  0  0  0  0  0  0  0  0  0
   -3.1095   -1.6924    0.0000 N   0  0  0  0  0  0  0  0  0  0  0  0
   -4.4085   -0.9424    0.0000 C   0  0  0  0  0  0  0  0  0  0  0  0
   -5.7076   -1.6924    0.0000 O   0  0  0  0  0  0  0  0  0  0  0  0
   -4.4085    0.5576    0.0000 C   0  0  0  0  0  0  0  0  0  0  0  0
   -3.1095    1.3076    0.0000 C   0  0  0  0  0  0  0  0  0  0  0  0
   -3.1095    2.8076    0.0000 C   0  0  0  0  0  0  0  0  0  0  0  0
   -1.8104    3.5576    0.0000 H   0  0  0  0  0  0  0  0  0  0  0  0
   -4.4085    3.5576    0.0000 C   0  0  0  0  0  0  0  0  0  0  0  0
   -4.4085    5.0576    0.0000 H   0  0  0  0  0  0  0  0  0  0  0  0
   -5.7076    2.8076    0.0000 C   0  0  0  0  0  0  0  0  0  0  0  0
   -7.0066    3.5576    0.0000 H   0  0  0  0  0  0  0  0  0  0  0  0
   -5.7076    1.3076    0.0000 C   0  0  0  0  0  0  0  0  0  0  0  0
   -7.0066    0.5576    0.0000 H   0  0  0  0  0  0  0  0  0  0  0  0
    0.9152   -3.6559    0.0000 C   0  0  0  0  0  0  0  0  0  0  0  0
    1.7969   -2.4424    0.0000 C   0  0  0  0  0  0  0  0  0  0  0  0
    3.2886   -2.5992    0.0000 C   0  0  0  0  0  0  0  0  0  0  0  0
    4.1703   -1.3857    0.0000 H   0  0  0  0  0  0  0  0  0  0  0  0
    3.8987   -3.9695    0.0000 C   0  0  0  0  0  0  0  0  0  0  0  0
    5.3905   -4.1263    0.0000 H   0  0  0  0  0  0  0  0  0  0  0  0
    3.0171   -5.1830    0.0000 C   0  0  0  0  0  0  0  0  0  0  0  0
    3.6272   -6.5533    0.0000 H   0  0  0  0  0  0  0  0  0  0  0  0
    1.5253   -5.0262    0.0000 C   0  0  0  0  0  0  0  0  0  0  0  0
    0.6436   -6.2398    0.0000 H   0  0  0  0  0  0  0  0  0  0  0  0
    0.9152   -1.2289    0.0000 N   0  0  0  0  0  0  0  0  0  0  0  0
    1.3787    0.1977    0.0000 H   0  0  0  0  0  0  0  0  0  0  0  0
  1  2  1  0  0  0  0 
  1  3  1  0  0  0  0 
  1  4  1  0  0  0  0 
  1  5  1  0  0  0  0 
  5  6  2  0  0  0  0 
  6  7  1  0  0  0  0 
  7  8  2  0  0  0  0 
  8  9  1  0  0  0  0 
  9 10  1  0  0  0  0 
  9 11  1  0  0  0  0 
  9 12  1  0  0  0  0 
 12 13  1  0  0  0  0 
 12 14  1  0  0  0  0 
 12 15  1  0  0  0  0 
  6 15  1  0  0  0  0 
 15 16  1  0  0  0  0 
 16 17  2  0  0  0  0 
 16 18  1  0  0  0  0 
 18 19  2  0  0  0  0 
  5 19  1  0  0  0  0 
 19 20  1  0  0  0  0 
 20 21  1  0  0  0  0 
 20 22  2  0  0  0  0 
 22 23  1  0  0  0  0 
 22 24  1  0  0  0  0 
 24 25  1  0  0  0  0 
 24 26  2  0  0  0  0 
 18 26  1  0  0  0  0 
 26 27  1  0  0  0  0 
  8 28  1  0  0  0  0 
 28 29  2  0  0  0  0 
 29 30  1  0  0  0  0 
 30 31  1  0  0  0  0 
 30 32  2  0  0  0  0 
 32 33  1  0  0  0  0 
 32 34  1  0  0  0  0 
 34 35  1  0  0  0  0 
 34 36  2  0  0  0  0 
 28 36  1  0  0  0  0 
 36 37  1  0  0  0  0 
 29 38  1  0  0  0  0 
  7 38  1  0  0  0  0 
 38 39  1  0  0  0  0 
M  CHG  1   5   1
M  END
> <Rank>
24

> <Priority_score>
0.0208

> <Reaction_type>
dehydration of N-C bond

> <Parent_ID>
35

> <Parent_InChI>
InChI=1S/C19H17N3O/c1-21-16-9-5-3-7-14(16)19(23)22-11-10-13-12-6-2-4-8-15(12)20-17(13)18(21)22/h2-9,18,20H,10-11H2,1H3

> <Parent_SMILES>
CN1c2ccccc2C(=O)N2CCc3c([nH]c4ccccc34)C21

$$$$
Molecule 35_metabolite 25
  CDK     0516241031

 39 43  0  0  0  0  0  0  0  0999 V2000
    0.8558    3.5751    0.0000 C   0  0  0  0  0  0  0  0  0  0  0  0
   -0.5538    3.0621    0.0000 H   0  0  0  0  0  0  0  0  0  0  0  0
    0.1058    4.8742    0.0000 H   0  0  0  0  0  0  0  0  0  0  0  0
    2.0048    4.5393    0.0000 H   0  0  0  0  0  0  0  0  0  0  0  0
    2.0048    2.6110    0.0000 N   0  0  0  0  0  0  0  0  0  0  0  0
    3.3039    3.3610    0.0000 C   0  0  0  0  0  0  0  0  0  0  0  0
    4.6029    2.6110    0.0000 C   0  0  0  0  0  0  0  0  0  0  0  0
    5.9019    3.3610    0.0000 C   0  0  0  0  0  0  0  0  0  0  0  0
    7.2010    2.6110    0.0000 H   0  0  0  0  0  0  0  0  0  0  0  0
    5.9019    4.8610    0.0000 C   0  0  0  0  0  0  0  0  0  0  0  0
    7.2010    5.6110    0.0000 H   0  0  0  0  0  0  0  0  0  0  0  0
    4.6029    5.6110    0.0000 C   0  0  0  0  0  0  0  0  0  0  0  0
    4.6029    7.1110    0.0000 H   0  0  0  0  0  0  0  0  0  0  0  0
    3.3039    4.8610    0.0000 C   0  0  0  0  0  0  0  0  0  0  0  0
    2.0048    5.6110    0.0000 H   0  0  0  0  0  0  0  0  0  0  0  0
    4.6029    1.1110    0.0000 C   0  0  0  0  0  0  0  0  0  0  0  0
    5.9019    0.3610    0.0000 O   0  0  0  0  0  0  0  0  0  0  0  0
    3.3039    0.3610    0.0000 N   0  0  0  0  0  0  0  0  0  0  0  0
    3.3039   -1.1390    0.0000 C   0  0  0  0  0  0  0  0  0  0  0  0
    4.6029   -1.8890    0.0000 H   0  0  0  0  0  0  0  0  0  0  0  0
    2.0048   -1.8890    0.0000 C   0  0  0  0  0  0  0  0  0  0  0  0
    1.0406   -3.0381    0.0000 H   0  0  0  0  0  0  0  0  0  0  0  0
    2.9690   -3.0381    0.0000 H   0  0  0  0  0  0  0  0  0  0  0  0
    0.7058   -1.1390    0.0000 C   0  0  0  0  0  0  0  0  0  0  0  0
    0.7058    0.3610    0.0000 C   0  0  0  0  0  0  0  0  0  0  0  0
    2.0048    1.1110    0.0000 C   0  0  0  0  0  0  0  0  0  0  0  0
    0.7058    1.8610    0.0000 H   0  0  0  0  0  0  0  0  0  0  0  0
   -0.7208    0.8245    0.0000 N   0  0  0  0  0  0  0  0  0  0  0  0
   -1.1843    2.2511    0.0000 H   0  0  0  0  0  0  0  0  0  0  0  0
   -1.6025   -0.3890    0.0000 C   0  0  0  0  0  0  0  0  0  0  0  0
   -0.7208   -1.6026    0.0000 C   0  0  0  0  0  0  0  0  0  0  0  0
   -1.3309   -2.9729    0.0000 C   0  0  0  0  0  0  0  0  0  0  0  0
   -0.4492   -4.1864    0.0000 H   0  0  0  0  0  0  0  0  0  0  0  0
   -2.8227   -3.1297    0.0000 C   0  0  0  0  0  0  0  0  0  0  0  0
   -3.4328   -4.5000    0.0000 H   0  0  0  0  0  0  0  0  0  0  0  0
   -3.7044   -1.9162    0.0000 C   0  0  0  0  0  0  0  0  0  0  0  0
   -5.1962   -2.0729    0.0000 H   0  0  0  0  0  0  0  0  0  0  0  0
   -3.0943   -0.5458    0.0000 C   0  0  0  0  0  0  0  0  0  0  0  0
   -3.9759    0.6677    0.0000 H   0  0  0  0  0  0  0  0  0  0  0  0
  1  2  1  0  0  0  0 
  1  3  1  0  0  0  0 
  1  4  1  0  0  0  0 
  1  5  1  0  0  0  0 
  5  6  1  0  0  0  0 
  6  7  2  0  0  0  0 
  7  8  1  0  0  0  0 
  8  9  1  0  0  0  0 
  8 10  2  0  0  0  0 
 10 11  1  0  0  0  0 
 10 12  1  0  0  0  0 
 12 13  1  0  0  0  0 
 12 14  2  0  0  0  0 
  6 14  1  0  0  0  0 
 14 15  1  0  0  0  0 
  7 16  1  0  0  0  0 
 16 17  2  0  0  0  0 
 16 18  1  0  0  0  0 
 18 19  2  0  0  0  0 
 19 20  1  0  0  0  0 
 19 21  1  0  0  0  0 
 21 22  1  0  0  0  0 
 21 23  1  0  0  0  0 
 21 24  1  0  0  0  0 
 24 25  2  0  0  0  0 
 25 26  1  0  0  0  0 
  5 26  1  0  0  0  0 
 18 26  1  0  0  0  0 
 26 27  1  0  0  0  0 
 25 28  1  0  0  0  0 
 28 29  1  0  0  0  0 
 28 30  1  0  0  0  0 
 30 31  2  0  0  0  0 
 24 31  1  0  0  0  0 
 31 32  1  0  0  0  0 
 32 33  1  0  0  0  0 
 32 34  2  0  0  0  0 
 34 35  1  0  0  0  0 
 34 36  1  0  0  0  0 
 36 37  1  0  0  0  0 
 36 38  2  0  0  0  0 
 30 38  1  0  0  0  0 
 38 39  1  0  0  0  0 
M  CHG  1  18   1
M  END
> <Rank>
25

> <Priority_score>
0.013600000000000001

> <Reaction_type>
dehydration of N-C bond

> <Parent_ID>
35

> <Parent_InChI>
InChI=1S/C19H17N3O/c1-21-16-9-5-3-7-14(16)19(23)22-11-10-13-12-6-2-4-8-15(12)20-17(13)18(21)22/h2-9,18,20H,10-11H2,1H3

> <Parent_SMILES>
CN1c2ccccc2C(=O)N2CCc3c([nH]c4ccccc34)C21

$$$$
Molecule 36
  CDK     0516241031

 28 31  0  0  0  0  0  0  0  0999 V2000
   -7.5120    5.2491    0.0000 C   0  0  0  0  0  0  0  0  0  0  0  0
   -7.5099    3.7491    0.0000 N   0  0  0  0  0  0  0  0  0  0  0  0
   -6.2099    3.0008    0.0000 C   0  0  0  0  0  0  0  0  0  0  0  0
   -4.9118    3.7526    0.0000 O   0  0  0  0  0  0  0  0  0  0  0  0
   -6.2078    1.5008    0.0000 C   0  0  0  0  0  0  0  0  0  0  0  0
   -4.9081    0.7504    0.0000 C   0  0  0  0  0  0  0  0  0  0  0  0
   -4.9086   -0.7496    0.0000 C   0  0  0  0  0  0  0  0  0  0  0  0
   -6.2088   -1.4992    0.0000 C   0  0  0  0  0  0  0  0  0  0  0  0
   -7.4986   -0.7488    0.0000 C   0  0  0  0  0  0  0  0  0  0  0  0
   -7.4981    0.7512    0.0000 C   0  0  0  0  0  0  0  0  0  0  0  0
   -3.6089    1.5002    0.0000 S   0  0  0  0  0  0  0  0  0  0  0  0
   -2.3100    0.7500    0.0000 C   0  0  0  0  0  0  0  0  0  0  0  0
   -1.0100    1.5000    0.0000 C   0  0  0  0  0  0  0  0  0  0  0  0
    0.2900    0.7500    0.0000 C   0  0  0  0  0  0  0  0  0  0  0  0
    0.2900   -0.7500    0.0000 C   0  0  0  0  0  0  0  0  0  0  0  0
   -1.0100   -1.5000    0.0000 C   0  0  0  0  0  0  0  0  0  0  0  0
   -2.3100   -0.7500    0.0000 C   0  0  0  0  0  0  0  0  0  0  0  0
    1.7200   -1.2100    0.0000 C   0  0  0  0  0  0  0  0  0  0  0  0
    2.6000    0.0000    0.0000 N   0  0  0  0  0  0  0  0  0  0  0  0
    1.7200    1.2100    0.0000 N   0  0  0  0  0  0  0  0  0  0  0  0
    2.1853   -2.6360    0.0000 C   0  0  0  0  0  0  0  0  0  0  0  0
    3.6529   -2.9461    0.0000 C   0  0  0  0  0  0  0  0  0  0  0  0
    4.1182   -4.3721    0.0000 C   0  0  0  0  0  0  0  0  0  0  0  0
    3.1155   -5.4888    0.0000 N   0  0  0  0  0  0  0  0  0  0  0  0
    3.5803   -6.9159    0.0000 C   0  0  0  0  0  0  0  0  0  0  0  0
    5.0479   -7.2262    0.0000 C   0  0  0  0  0  0  0  0  0  0  0  0
    6.0506   -6.1094    0.0000 C   0  0  0  0  0  0  0  0  0  0  0  0
    5.5857   -4.6824    0.0000 C   0  0  0  0  0  0  0  0  0  0  0  0
  1  2  1  0  0  0  0 
  2  3  1  0  0  0  0 
  3  4  2  0  0  0  0 
  3  5  1  0  0  0  0 
  5  6  2  0  0  0  0 
  6  7  1  0  0  0  0 
  7  8  2  0  0  0  0 
  8  9  1  0  0  0  0 
  9 10  2  0  0  0  0 
  5 10  1  0  0  0  0 
  6 11  1  0  0  0  0 
 11 12  1  0  0  0  0 
 12 13  2  0  0  0  0 
 13 14  1  0  0  0  0 
 14 15  2  0  0  0  0 
 15 16  1  0  0  0  0 
 16 17  2  0  0  0  0 
 12 17  1  0  0  0  0 
 15 18  1  0  0  0  0 
 18 19  2  0  0  0  0 
 19 20  1  0  0  0  0 
 14 20  1  0  0  0  0 
 18 21  1  0  0  0  0 
 21 22  2  0  0  0  0 
 22 23  1  0  0  0  0 
 23 24  2  0  0  0  0 
 24 25  1  0  0  0  0 
 25 26  2  0  0  0  0 
 26 27  1  0  0  0  0 
 27 28  2  0  0  0  0 
 23 28  1  0  0  0  0 
M  END
> <SMILES>
CNC(=O)c1ccccc1Sc1ccc2c(/C=C/c3ccccn3)n[nH]c2c1

$$$$
Molecule 36_metabolite 1
  CDK     0516241031

 47 50  0  0  0  0  0  0  0  0999 V2000
   -8.3434    4.7692    0.0000 C   0  0  0  0  0  0  0  0  0  0  0  0
   -9.6435    5.5174    0.0000 H   0  0  0  0  0  0  0  0  0  0  0  0
   -6.8658    4.5107    0.0000 H   0  0  0  0  0  0  0  0  0  0  0  0
   -7.8323    6.1794    0.0000 H   0  0  0  0  0  0  0  0  0  0  0  0
   -8.3414    3.2692    0.0000 N   0  0  0  0  0  0  0  0  0  0  0  0
   -9.6394    2.5174    0.0000 H   0  0  0  0  0  0  0  0  0  0  0  0
   -7.0413    2.5210    0.0000 C   0  0  0  0  0  0  0  0  0  0  0  0
   -5.7433    3.2727    0.0000 O   0  0  0  0  0  0  0  0  0  0  0  0
   -7.0393    1.0210    0.0000 C   0  0  0  0  0  0  0  0  0  0  0  0
   -5.7395    0.2705    0.0000 C   0  0  0  0  0  0  0  0  0  0  0  0
   -5.7400   -1.2295    0.0000 C   0  0  0  0  0  0  0  0  0  0  0  0
   -4.4413   -1.9801    0.0000 H   0  0  0  0  0  0  0  0  0  0  0  0
   -7.0403   -1.9790    0.0000 C   0  0  0  0  0  0  0  0  0  0  0  0
   -7.0433   -3.4790    0.0000 H   0  0  0  0  0  0  0  0  0  0  0  0
   -8.3300   -1.2286    0.0000 C   0  0  0  0  0  0  0  0  0  0  0  0
   -9.6304   -1.9762    0.0000 H   0  0  0  0  0  0  0  0  0  0  0  0
   -8.3295    0.2714    0.0000 C   0  0  0  0  0  0  0  0  0  0  0  0
   -9.6295    1.0198    0.0000 H   0  0  0  0  0  0  0  0  0  0  0  0
   -3.6089    1.5002    0.0000 S   0  0  0  0  0  0  0  0  0  0  0  0
   -3.6087    3.0002    0.0000 O   0  0  0  0  0  0  0  0  0  0  0  0
   -2.3100    0.7500    0.0000 C   0  0  0  0  0  0  0  0  0  0  0  0
   -1.0100    1.5000    0.0000 C   0  0  0  0  0  0  0  0  0  0  0  0
   -1.0100    3.0000    0.0000 H   0  0  0  0  0  0  0  0  0  0  0  0
    0.2900    0.7500    0.0000 C   0  0  0  0  0  0  0  0  0  0  0  0
    0.2900   -0.7500    0.0000 C   0  0  0  0  0  0  0  0  0  0  0  0
   -1.0100   -1.5000    0.0000 C   0  0  0  0  0  0  0  0  0  0  0  0
   -1.0100   -3.0000    0.0000 H   0  0  0  0  0  0  0  0  0  0  0  0
   -2.3100   -0.7500    0.0000 C   0  0  0  0  0  0  0  0  0  0  0  0
   -3.6089   -1.5002    0.0000 H   0  0  0  0  0  0  0  0  0  0  0  0
    1.7200   -1.2100    0.0000 C   0  0  0  0  0  0  0  0  0  0  0  0
    2.6000    0.0000    0.0000 N   0  0  0  0  0  0  0  0  0  0  0  0
    1.7200    1.2100    0.0000 N   0  0  0  0  0  0  0  0  0  0  0  0
    2.1853    2.6360    0.0000 H   0  0  0  0  0  0  0  0  0  0  0  0
    2.1853   -2.6360    0.0000 C   0  0  0  0  0  0  0  0  0  0  0  0
    1.1830   -3.7520    0.0000 H   0  0  0  0  0  0  0  0  0  0  0  0
    3.6529   -2.9461    0.0000 C   0  0  0  0  0  0  0  0  0  0  0  0
    4.6552   -1.8301    0.0000 H   0  0  0  0  0  0  0  0  0  0  0  0
    4.1182   -4.3721    0.0000 C   0  0  0  0  0  0  0  0  0  0  0  0
    3.1155   -5.4888    0.0000 N   0  0  0  0  0  0  0  0  0  0  0  0
    3.5803   -6.9159    0.0000 C   0  0  0  0  0  0  0  0  0  0  0  0
    2.5776   -8.0315    0.0000 H   0  0  0  0  0  0  0  0  0  0  0  0
    5.0479   -7.2262    0.0000 C   0  0  0  0  0  0  0  0  0  0  0  0
    5.5131   -8.6522    0.0000 H   0  0  0  0  0  0  0  0  0  0  0  0
    6.0506   -6.1094    0.0000 C   0  0  0  0  0  0  0  0  0  0  0  0
    7.5181   -6.4197    0.0000 H   0  0  0  0  0  0  0  0  0  0  0  0
    5.5857   -4.6824    0.0000 C   0  0  0  0  0  0  0  0  0  0  0  0
    6.5884   -3.5668    0.0000 H   0  0  0  0  0  0  0  0  0  0  0  0
  1  2  1  0  0  0  0 
  1  3  1  0  0  0  0 
  1  4  1  0  0  0  0 
  1  5  1  0  0  0  0 
  5  6  1  0  0  0  0 
  5  7  1  0  0  0  0 
  7  8  2  0  0  0  0 
  7  9  1  0  0  0  0 
  9 10  2  0  0  0  0 
 10 11  1  0  0  0  0 
 11 12  1  0  0  0  0 
 11 13  2  0  0  0  0 
 13 14  1  0  0  0  0 
 13 15  1  0  0  0  0 
 15 16  1  0  0  0  0 
 15 17  2  0  0  0  0 
  9 17  1  0  0  0  0 
 17 18  1  0  0  0  0 
 10 19  1  0  0  0  0 
 19 20  2  0  0  0  0 
 19 21  1  0  0  0  0 
 21 22  2  0  0  0  0 
 22 23  1  0  0  0  0 
 22 24  1  0  0  0  0 
 24 25  2  0  0  0  0 
 25 26  1  0  0  0  0 
 26 27  1  0  0  0  0 
 26 28  2  0  0  0  0 
 21 28  1  0  0  0  0 
 28 29  1  0  0  0  0 
 25 30  1  0  0  0  0 
 30 31  2  0  0  0  0 
 31 32  1  0  0  0  0 
 24 32  1  0  0  0  0 
 32 33  1  0  0  0  0 
 30 34  1  0  0  0  0 
 34 35  1  0  0  0  0 
 34 36  2  0  0  0  0 
 36 37  1  0  0  0  0 
 36 38  1  0  0  0  0 
 38 39  2  0  0  0  0 
 39 40  1  0  0  0  0 
 40 41  1  0  0  0  0 
 40 42  2  0  0  0  0 
 42 43  1  0  0  0  0 
 42 44  1  0  0  0  0 
 44 45  1  0  0  0  0 
 44 46  2  0  0  0  0 
 38 46  1  0  0  0  0 
 46 47  1  0  0  0  0 
M  END
> <Rank>
1

> <Priority_score>
0.76

> <Reaction_type>
sulfide_oxidation_(c-S-c)

> <Parent_ID>
36

> <Parent_InChI>
InChI=1S/C22H18N4OS/c1-23-22(27)18-7-2-3-8-21(18)28-16-10-11-17-19(25-26-20(17)14-16)12-9-15-6-4-5-13-24-15/h2-14H,1H3,(H,23,27)(H,25,26)

> <Parent_SMILES>
CNC(=O)c1ccccc1Sc1ccc2c(/C=C/c3ccccn3)n[nH]c2c1

$$$$
Molecule 36_metabolite 2
  CDK     0516241031

 47 51  0  0  0  0  0  0  0  0999 V2000
   -7.1044    4.9954    0.0000 C   0  0  0  0  0  0  0  0  0  0  0  0
   -8.4045    5.7437    0.0000 H   0  0  0  0  0  0  0  0  0  0  0  0
   -5.6269    4.7370    0.0000 H   0  0  0  0  0  0  0  0  0  0  0  0
   -6.5933    6.4057    0.0000 H   0  0  0  0  0  0  0  0  0  0  0  0
   -7.1024    3.4954    0.0000 N   0  0  0  0  0  0  0  0  0  0  0  0
   -8.4004    2.7437    0.0000 H   0  0  0  0  0  0  0  0  0  0  0  0
   -5.8024    2.7472    0.0000 C   0  0  0  0  0  0  0  0  0  0  0  0
   -4.5043    3.4989    0.0000 O   0  0  0  0  0  0  0  0  0  0  0  0
   -5.8003    1.2472    0.0000 C   0  0  0  0  0  0  0  0  0  0  0  0
   -4.5006    0.4968    0.0000 C   0  0  0  0  0  0  0  0  0  0  0  0
   -4.5010   -1.0032    0.0000 C   0  0  0  0  0  0  0  0  0  0  0  0
   -3.2024   -1.7539    0.0000 H   0  0  0  0  0  0  0  0  0  0  0  0
   -5.8013   -1.7528    0.0000 C   0  0  0  0  0  0  0  0  0  0  0  0
   -5.8043   -3.2528    0.0000 H   0  0  0  0  0  0  0  0  0  0  0  0
   -7.0910   -1.0024    0.0000 C   0  0  0  0  0  0  0  0  0  0  0  0
   -8.3915   -1.7500    0.0000 H   0  0  0  0  0  0  0  0  0  0  0  0
   -7.0906    0.4976    0.0000 C   0  0  0  0  0  0  0  0  0  0  0  0
   -8.3905    1.2461    0.0000 H   0  0  0  0  0  0  0  0  0  0  0  0
   -3.2014    1.2466    0.0000 S   0  0  0  0  0  0  0  0  0  0  0  0
   -1.0712    0.0162    0.0000 C   0  0  0  0  0  0  0  0  0  0  0  0
    0.2288    0.7662    0.0000 C   0  0  0  0  0  0  0  0  0  0  0  0
    0.2288    2.2662    0.0000 H   0  0  0  0  0  0  0  0  0  0  0  0
    1.5288    0.0162    0.0000 C   0  0  0  0  0  0  0  0  0  0  0  0
    1.5288   -1.4838    0.0000 C   0  0  0  0  0  0  0  0  0  0  0  0
    0.2288   -2.2338    0.0000 C   0  0  0  0  0  0  0  0  0  0  0  0
    0.2288   -3.7338    0.0000 H   0  0  0  0  0  0  0  0  0  0  0  0
   -1.0712   -1.4838    0.0000 C   0  0  0  0  0  0  0  0  0  0  0  0
   -2.3701   -2.2340    0.0000 H   0  0  0  0  0  0  0  0  0  0  0  0
    2.9588   -1.9438    0.0000 C   0  0  0  0  0  0  0  0  0  0  0  0
    3.8388   -0.7338    0.0000 N   0  0  0  0  0  0  0  0  0  0  0  0
    2.9588    0.4762    0.0000 N   0  0  0  0  0  0  0  0  0  0  0  0
    3.4241    1.9022    0.0000 H   0  0  0  0  0  0  0  0  0  0  0  0
    3.5730   -3.8261    0.0000 C   0  0  0  0  0  0  0  0  0  0  0  0
    2.2494   -4.5318    0.0000 H   0  0  0  0  0  0  0  0  0  0  0  0
    5.0581   -3.6154    0.0000 C   0  0  0  0  0  0  0  0  0  0  0  0
    6.5258   -3.9250    0.0000 H   0  0  0  0  0  0  0  0  0  0  0  0
    5.6180   -2.2238    0.0000 C   0  0  0  0  0  0  0  0  0  0  0  0
    4.6925   -1.0423    0.0000 N   0  0  0  0  0  0  0  0  0  0  0  0
    5.2520    0.3503    0.0000 C   0  0  0  0  0  0  0  0  0  0  0  0
    4.3194    2.0969    0.0000 H   0  0  0  0  0  0  0  0  0  0  0  0
    6.7371    0.5615    0.0000 C   0  0  0  0  0  0  0  0  0  0  0  0
    7.2970    1.9531    0.0000 H   0  0  0  0  0  0  0  0  0  0  0  0
    7.6626   -0.6200    0.0000 C   0  0  0  0  0  0  0  0  0  0  0  0
    9.1477   -0.4089    0.0000 H   0  0  0  0  0  0  0  0  0  0  0  0
    7.1031   -2.0126    0.0000 C   0  0  0  0  0  0  0  0  0  0  0  0
    8.0287   -3.1930    0.0000 H   0  0  0  0  0  0  0  0  0  0  0  0
    4.4982   -5.0078    0.0000 O   0  0  0  0  0  0  0  0  0  0  0  0
  1  2  1  0  0  0  0 
  1  3  1  0  0  0  0 
  1  4  1  0  0  0  0 
  1  5  1  0  0  0  0 
  5  6  1  0  0  0  0 
  5  7  1  0  0  0  0 
  7  8  2  0  0  0  0 
  7  9  1  0  0  0  0 
  9 10  2  0  0  0  0 
 10 11  1  0  0  0  0 
 11 12  1  0  0  0  0 
 11 13  2  0  0  0  0 
 13 14  1  0  0  0  0 
 13 15  1  0  0  0  0 
 15 16  1  0  0  0  0 
 15 17  2  0  0  0  0 
  9 17  1  0  0  0  0 
 17 18  1  0  0  0  0 
 10 19  1  0  0  0  0 
 19 20  1  0  0  0  0 
 20 21  2  0  0  0  0 
 21 22  1  0  0  0  0 
 21 23  1  0  0  0  0 
 23 24  2  0  0  0  0 
 24 25  1  0  0  0  0 
 25 26  1  0  0  0  0 
 25 27  2  0  0  0  0 
 20 27  1  0  0  0  0 
 27 28  1  0  0  0  0 
 24 29  1  0  0  0  0 
 29 30  2  0  0  0  0 
 30 31  1  0  0  0  0 
 23 31  1  0  0  0  0 
 31 32  1  0  0  0  0 
 29 33  1  0  0  0  0 
 33 34  1  0  0  0  0 
 33 35  1  0  0  0  0 
 35 36  1  0  0  0  0 
 35 37  1  0  0  0  0 
 37 38  2  0  0  0  0 
 38 39  1  0  0  0  0 
 39 40  1  0  0  0  0 
 39 41  2  0  0  0  0 
 41 42  1  0  0  0  0 
 41 43  1  0  0  0  0 
 43 44  1  0  0  0  0 
 43 45  2  0  0  0  0 
 37 45  1  0  0  0  0 
 45 46  1  0  0  0  0 
 35 47  1  0  0  0  0 
 33 47  1  0  0  0  0 
M  END
> <Rank>
2

> <Priority_score>
0.484

> <Reaction_type>
epoxidation

> <Parent_ID>
36

> <Parent_InChI>
InChI=1S/C22H18N4OS/c1-23-22(27)18-7-2-3-8-21(18)28-16-10-11-17-19(25-26-20(17)14-16)12-9-15-6-4-5-13-24-15/h2-14H,1H3,(H,23,27)(H,25,26)

> <Parent_SMILES>
CNC(=O)c1ccccc1Sc1ccc2c(/C=C/c3ccccn3)n[nH]c2c1

$$$$
Molecule 36_metabolite 3
  CDK     0516241031

 47 50  0  0  0  0  0  0  0  0999 V2000
   -7.5120    5.2491    0.0000 C   0  0  0  0  0  0  0  0  0  0  0  0
   -8.8120    5.9973    0.0000 H   0  0  0  0  0  0  0  0  0  0  0  0
   -6.0344    4.9906    0.0000 H   0  0  0  0  0  0  0  0  0  0  0  0
   -7.0008    6.6593    0.0000 H   0  0  0  0  0  0  0  0  0  0  0  0
   -7.5099    3.7491    0.0000 N   0  0  0  0  0  0  0  0  0  0  0  0
   -8.8079    2.9973    0.0000 H   0  0  0  0  0  0  0  0  0  0  0  0
   -6.2099    3.0008    0.0000 C   0  0  0  0  0  0  0  0  0  0  0  0
   -4.9118    3.7526    0.0000 O   0  0  0  0  0  0  0  0  0  0  0  0
   -6.2078    1.5008    0.0000 C   0  0  0  0  0  0  0  0  0  0  0  0
   -4.9081    0.7504    0.0000 C   0  0  0  0  0  0  0  0  0  0  0  0
   -4.9086   -0.7496    0.0000 C   0  0  0  0  0  0  0  0  0  0  0  0
   -3.6099   -1.5002    0.0000 H   0  0  0  0  0  0  0  0  0  0  0  0
   -6.2088   -1.4992    0.0000 C   0  0  0  0  0  0  0  0  0  0  0  0
   -6.2118   -2.9992    0.0000 H   0  0  0  0  0  0  0  0  0  0  0  0
   -7.4986   -0.7488    0.0000 C   0  0  0  0  0  0  0  0  0  0  0  0
   -8.7990   -1.4964    0.0000 H   0  0  0  0  0  0  0  0  0  0  0  0
   -7.4981    0.7512    0.0000 C   0  0  0  0  0  0  0  0  0  0  0  0
   -8.7980    1.4997    0.0000 H   0  0  0  0  0  0  0  0  0  0  0  0
   -3.6089    1.5002    0.0000 S   0  0  0  0  0  0  0  0  0  0  0  0
   -1.4787    0.2699    0.0000 C   0  0  0  0  0  0  0  0  0  0  0  0
   -0.1787    1.0199    0.0000 C   0  0  0  0  0  0  0  0  0  0  0  0
   -0.1787    2.5199    0.0000 H   0  0  0  0  0  0  0  0  0  0  0  0
    1.1213    0.2699    0.0000 C   0  0  0  0  0  0  0  0  0  0  0  0
    1.1213   -1.2301    0.0000 C   0  0  0  0  0  0  0  0  0  0  0  0
   -0.1787   -1.9801    0.0000 C   0  0  0  0  0  0  0  0  0  0  0  0
   -0.1787   -3.4801    0.0000 H   0  0  0  0  0  0  0  0  0  0  0  0
   -1.4787   -1.2301    0.0000 C   0  0  0  0  0  0  0  0  0  0  0  0
   -2.7776   -1.9803    0.0000 H   0  0  0  0  0  0  0  0  0  0  0  0
    2.5513   -1.6901    0.0000 C   0  0  0  0  0  0  0  0  0  0  0  0
    3.4313   -0.4801    0.0000 N   0  0  0  0  0  0  0  0  0  0  0  0
    2.5513    0.7299    0.0000 N   0  0  0  0  0  0  0  0  0  0  0  0
    3.0166    2.1559    0.0000 H   0  0  0  0  0  0  0  0  0  0  0  0
    3.0166   -3.1161    0.0000 C   0  0  0  0  0  0  0  0  0  0  0  0
    2.0143   -4.2321    0.0000 H   0  0  0  0  0  0  0  0  0  0  0  0
    4.4842   -3.4262    0.0000 C   0  0  0  0  0  0  0  0  0  0  0  0
    5.4865   -2.3103    0.0000 H   0  0  0  0  0  0  0  0  0  0  0  0
    4.9495   -4.8522    0.0000 C   0  0  0  0  0  0  0  0  0  0  0  0
    6.4170   -5.1625    0.0000 C   0  0  0  0  0  0  0  0  0  0  0  0
    7.4197   -4.0469    0.0000 H   0  0  0  0  0  0  0  0  0  0  0  0
    6.8819   -6.5896    0.0000 C   0  0  0  0  0  0  0  0  0  0  0  0
    8.3494   -6.8999    0.0000 H   0  0  0  0  0  0  0  0  0  0  0  0
    5.8792   -7.7063    0.0000 C   0  0  0  0  0  0  0  0  0  0  0  0
    6.3444   -9.1323    0.0000 H   0  0  0  0  0  0  0  0  0  0  0  0
    4.4116   -7.3960    0.0000 C   0  0  0  0  0  0  0  0  0  0  0  0
    3.9468   -5.9690    0.0000 N   0  0  0  0  0  0  0  0  0  0  0  0
    3.4089   -8.5116    0.0000 O   0  0  0  0  0  0  0  0  0  0  0  0
    3.8737   -9.9378    0.0000 H   0  0  0  0  0  0  0  0  0  0  0  0
  1  2  1  0  0  0  0 
  1  3  1  0  0  0  0 
  1  4  1  0  0  0  0 
  1  5  1  0  0  0  0 
  5  6  1  0  0  0  0 
  5  7  1  0  0  0  0 
  7  8  2  0  0  0  0 
  7  9  1  0  0  0  0 
  9 10  2  0  0  0  0 
 10 11  1  0  0  0  0 
 11 12  1  0  0  0  0 
 11 13  2  0  0  0  0 
 13 14  1  0  0  0  0 
 13 15  1  0  0  0  0 
 15 16  1  0  0  0  0 
 15 17  2  0  0  0  0 
  9 17  1  0  0  0  0 
 17 18  1  0  0  0  0 
 10 19  1  0  0  0  0 
 19 20  1  0  0  0  0 
 20 21  2  0  0  0  0 
 21 22  1  0  0  0  0 
 21 23  1  0  0  0  0 
 23 24  2  0  0  0  0 
 24 25  1  0  0  0  0 
 25 26  1  0  0  0  0 
 25 27  2  0  0  0  0 
 20 27  1  0  0  0  0 
 27 28  1  0  0  0  0 
 24 29  1  0  0  0  0 
 29 30  2  0  0  0  0 
 30 31  1  0  0  0  0 
 23 31  1  0  0  0  0 
 31 32  1  0  0  0  0 
 29 33  1  0  0  0  0 
 33 34  1  0  0  0  0 
 33 35  2  0  0  0  0 
 35 36  1  0  0  0  0 
 35 37  1  0  0  0  0 
 37 38  2  0  0  0  0 
 38 39  1  0  0  0  0 
 38 40  1  0  0  0  0 
 40 41  1  0  0  0  0 
 40 42  2  0  0  0  0 
 42 43  1  0  0  0  0 
 42 44  1  0  0  0  0 
 44 45  2  0  0  0  0 
 37 45  1  0  0  0  0 
 44 46  1  0  0  0  0 
 46 47  1  0  0  0  0 
M  END
> <Rank>
3

> <Priority_score>
0.464

> <Reaction_type>
aromatic_hydroxylation_(meta_to_carbon)

> <Parent_ID>
36

> <Parent_InChI>
InChI=1S/C22H18N4OS/c1-23-22(27)18-7-2-3-8-21(18)28-16-10-11-17-19(25-26-20(17)14-16)12-9-15-6-4-5-13-24-15/h2-14H,1H3,(H,23,27)(H,25,26)

> <Parent_SMILES>
CNC(=O)c1ccccc1Sc1ccc2c(/C=C/c3ccccn3)n[nH]c2c1

$$$$
Molecule 36_metabolite 4
  CDK     0516241031

 47 50  0  0  0  0  0  0  0  0999 V2000
   -7.5120    5.2491    0.0000 C   0  0  0  0  0  0  0  0  0  0  0  0
   -8.8120    5.9973    0.0000 H   0  0  0  0  0  0  0  0  0  0  0  0
   -6.0344    4.9906    0.0000 H   0  0  0  0  0  0  0  0  0  0  0  0
   -7.0008    6.6593    0.0000 H   0  0  0  0  0  0  0  0  0  0  0  0
   -7.5099    3.7491    0.0000 N   0  0  0  0  0  0  0  0  0  0  0  0
   -8.8079    2.9973    0.0000 H   0  0  0  0  0  0  0  0  0  0  0  0
   -6.2099    3.0008    0.0000 C   0  0  0  0  0  0  0  0  0  0  0  0
   -4.9118    3.7526    0.0000 O   0  0  0  0  0  0  0  0  0  0  0  0
   -6.2078    1.5008    0.0000 C   0  0  0  0  0  0  0  0  0  0  0  0
   -4.9081    0.7504    0.0000 C   0  0  0  0  0  0  0  0  0  0  0  0
   -4.9086   -0.7496    0.0000 C   0  0  0  0  0  0  0  0  0  0  0  0
   -3.6099   -1.5002    0.0000 H   0  0  0  0  0  0  0  0  0  0  0  0
   -6.2088   -1.4992    0.0000 C   0  0  0  0  0  0  0  0  0  0  0  0
   -6.2118   -2.9992    0.0000 H   0  0  0  0  0  0  0  0  0  0  0  0
   -7.4986   -0.7488    0.0000 C   0  0  0  0  0  0  0  0  0  0  0  0
   -8.7990   -1.4964    0.0000 H   0  0  0  0  0  0  0  0  0  0  0  0
   -7.4981    0.7512    0.0000 C   0  0  0  0  0  0  0  0  0  0  0  0
   -8.7980    1.4997    0.0000 H   0  0  0  0  0  0  0  0  0  0  0  0
   -3.6089    1.5002    0.0000 S   0  0  0  0  0  0  0  0  0  0  0  0
   -1.4787    0.2699    0.0000 C   0  0  0  0  0  0  0  0  0  0  0  0
   -0.1787    1.0199    0.0000 C   0  0  0  0  0  0  0  0  0  0  0  0
   -0.1787    2.5199    0.0000 H   0  0  0  0  0  0  0  0  0  0  0  0
    1.1213    0.2699    0.0000 C   0  0  0  0  0  0  0  0  0  0  0  0
    1.1213   -1.2301    0.0000 C   0  0  0  0  0  0  0  0  0  0  0  0
   -0.1787   -1.9801    0.0000 C   0  0  0  0  0  0  0  0  0  0  0  0
   -0.1787   -3.4801    0.0000 H   0  0  0  0  0  0  0  0  0  0  0  0
   -1.4787   -1.2301    0.0000 C   0  0  0  0  0  0  0  0  0  0  0  0
   -2.7776   -1.9803    0.0000 H   0  0  0  0  0  0  0  0  0  0  0  0
    2.5513   -1.6901    0.0000 C   0  0  0  0  0  0  0  0  0  0  0  0
    3.4313   -0.4801    0.0000 N   0  0  0  0  0  0  0  0  0  0  0  0
    2.5513    0.7299    0.0000 N   0  0  0  0  0  0  0  0  0  0  0  0
    3.0166    2.1559    0.0000 H   0  0  0  0  0  0  0  0  0  0  0  0
    3.0166   -3.1161    0.0000 C   0  0  0  0  0  0  0  0  0  0  0  0
    2.0143   -4.2321    0.0000 H   0  0  0  0  0  0  0  0  0  0  0  0
    4.4842   -3.4262    0.0000 C   0  0  0  0  0  0  0  0  0  0  0  0
    5.4865   -2.3103    0.0000 H   0  0  0  0  0  0  0  0  0  0  0  0
    4.9495   -4.8522    0.0000 C   0  0  0  0  0  0  0  0  0  0  0  0
    6.4170   -5.1625    0.0000 C   0  0  0  0  0  0  0  0  0  0  0  0
    7.4197   -4.0469    0.0000 H   0  0  0  0  0  0  0  0  0  0  0  0
    6.8819   -6.5896    0.0000 C   0  0  0  0  0  0  0  0  0  0  0  0
    5.8792   -7.7063    0.0000 C   0  0  0  0  0  0  0  0  0  0  0  0
    6.3444   -9.1323    0.0000 H   0  0  0  0  0  0  0  0  0  0  0  0
    4.4116   -7.3960    0.0000 C   0  0  0  0  0  0  0  0  0  0  0  0
    3.4089   -8.5116    0.0000 H   0  0  0  0  0  0  0  0  0  0  0  0
    3.9468   -5.9690    0.0000 N   0  0  0  0  0  0  0  0  0  0  0  0
    8.3494   -6.8999    0.0000 O   0  0  0  0  0  0  0  0  0  0  0  0
    8.8145   -8.3259    0.0000 H   0  0  0  0  0  0  0  0  0  0  0  0
  1  2  1  0  0  0  0 
  1  3  1  0  0  0  0 
  1  4  1  0  0  0  0 
  1  5  1  0  0  0  0 
  5  6  1  0  0  0  0 
  5  7  1  0  0  0  0 
  7  8  2  0  0  0  0 
  7  9  1  0  0  0  0 
  9 10  2  0  0  0  0 
 10 11  1  0  0  0  0 
 11 12  1  0  0  0  0 
 11 13  2  0  0  0  0 
 13 14  1  0  0  0  0 
 13 15  1  0  0  0  0 
 15 16  1  0  0  0  0 
 15 17  2  0  0  0  0 
  9 17  1  0  0  0  0 
 17 18  1  0  0  0  0 
 10 19  1  0  0  0  0 
 19 20  1  0  0  0  0 
 20 21  2  0  0  0  0 
 21 22  1  0  0  0  0 
 21 23  1  0  0  0  0 
 23 24  2  0  0  0  0 
 24 25  1  0  0  0  0 
 25 26  1  0  0  0  0 
 25 27  2  0  0  0  0 
 20 27  1  0  0  0  0 
 27 28  1  0  0  0  0 
 24 29  1  0  0  0  0 
 29 30  2  0  0  0  0 
 30 31  1  0  0  0  0 
 23 31  1  0  0  0  0 
 31 32  1  0  0  0  0 
 29 33  1  0  0  0  0 
 33 34  1  0  0  0  0 
 33 35  2  0  0  0  0 
 35 36  1  0  0  0  0 
 35 37  1  0  0  0  0 
 37 38  2  0  0  0  0 
 38 39  1  0  0  0  0 
 38 40  1  0  0  0  0 
 40 41  2  0  0  0  0 
 41 42  1  0  0  0  0 
 41 43  1  0  0  0  0 
 43 44  1  0  0  0  0 
 43 45  2  0  0  0  0 
 37 45  1  0  0  0  0 
 40 46  1  0  0  0  0 
 46 47  1  0  0  0  0 
M  END
> <Rank>
3

> <Priority_score>
0.464

> <Reaction_type>
aromatic_hydroxylation_(meta_to_carbon)

> <Parent_ID>
36

> <Parent_InChI>
InChI=1S/C22H18N4OS/c1-23-22(27)18-7-2-3-8-21(18)28-16-10-11-17-19(25-26-20(17)14-16)12-9-15-6-4-5-13-24-15/h2-14H,1H3,(H,23,27)(H,25,26)

> <Parent_SMILES>
CNC(=O)c1ccccc1Sc1ccc2c(/C=C/c3ccccn3)n[nH]c2c1

$$$$
Molecule 36_metabolite 5
  CDK     0516241031

 47 50  0  0  0  0  0  0  0  0999 V2000
   -7.5120    5.2491    0.0000 C   0  0  0  0  0  0  0  0  0  0  0  0
   -8.8120    5.9973    0.0000 H   0  0  0  0  0  0  0  0  0  0  0  0
   -6.0344    4.9906    0.0000 H   0  0  0  0  0  0  0  0  0  0  0  0
   -7.0008    6.6593    0.0000 H   0  0  0  0  0  0  0  0  0  0  0  0
   -7.5099    3.7491    0.0000 N   0  0  0  0  0  0  0  0  0  0  0  0
   -8.8079    2.9973    0.0000 H   0  0  0  0  0  0  0  0  0  0  0  0
   -6.2099    3.0008    0.0000 C   0  0  0  0  0  0  0  0  0  0  0  0
   -4.9118    3.7526    0.0000 O   0  0  0  0  0  0  0  0  0  0  0  0
   -6.2078    1.5008    0.0000 C   0  0  0  0  0  0  0  0  0  0  0  0
   -4.9081    0.7504    0.0000 C   0  0  0  0  0  0  0  0  0  0  0  0
   -4.9086   -0.7496    0.0000 C   0  0  0  0  0  0  0  0  0  0  0  0
   -3.6099   -1.5002    0.0000 H   0  0  0  0  0  0  0  0  0  0  0  0
   -6.2088   -1.4992    0.0000 C   0  0  0  0  0  0  0  0  0  0  0  0
   -6.2118   -2.9992    0.0000 H   0  0  0  0  0  0  0  0  0  0  0  0
   -7.4986   -0.7488    0.0000 C   0  0  0  0  0  0  0  0  0  0  0  0
   -8.7990   -1.4964    0.0000 H   0  0  0  0  0  0  0  0  0  0  0  0
   -7.4981    0.7512    0.0000 C   0  0  0  0  0  0  0  0  0  0  0  0
   -8.7980    1.4997    0.0000 H   0  0  0  0  0  0  0  0  0  0  0  0
   -3.6089    1.5002    0.0000 S   0  0  0  0  0  0  0  0  0  0  0  0
   -1.4787    0.2699    0.0000 C   0  0  0  0  0  0  0  0  0  0  0  0
   -0.1787    1.0199    0.0000 C   0  0  0  0  0  0  0  0  0  0  0  0
   -0.1787    2.5199    0.0000 H   0  0  0  0  0  0  0  0  0  0  0  0
    1.1213    0.2699    0.0000 C   0  0  0  0  0  0  0  0  0  0  0  0
    1.1213   -1.2301    0.0000 C   0  0  0  0  0  0  0  0  0  0  0  0
   -0.1787   -1.9801    0.0000 C   0  0  0  0  0  0  0  0  0  0  0  0
   -0.1787   -3.4801    0.0000 H   0  0  0  0  0  0  0  0  0  0  0  0
   -1.4787   -1.2301    0.0000 C   0  0  0  0  0  0  0  0  0  0  0  0
   -2.7776   -1.9803    0.0000 H   0  0  0  0  0  0  0  0  0  0  0  0
    2.5513   -1.6901    0.0000 C   0  0  0  0  0  0  0  0  0  0  0  0
    3.4313   -0.4801    0.0000 N   0  0  0  0  0  0  0  0  0  0  0  0
    2.5513    0.7299    0.0000 N   0  0  0  0  0  0  0  0  0  0  0  0
    3.0166    2.1559    0.0000 H   0  0  0  0  0  0  0  0  0  0  0  0
    3.0166   -3.1161    0.0000 C   0  0  0  0  0  0  0  0  0  0  0  0
    2.0143   -4.2321    0.0000 H   0  0  0  0  0  0  0  0  0  0  0  0
    4.4842   -3.4262    0.0000 C   0  0  0  0  0  0  0  0  0  0  0  0
    5.4865   -2.3103    0.0000 H   0  0  0  0  0  0  0  0  0  0  0  0
    4.9495   -4.8522    0.0000 C   0  0  0  0  0  0  0  0  0  0  0  0
    6.4170   -5.1625    0.0000 C   0  0  0  0  0  0  0  0  0  0  0  0
    7.4197   -4.0469    0.0000 H   0  0  0  0  0  0  0  0  0  0  0  0
    6.8819   -6.5896    0.0000 C   0  0  0  0  0  0  0  0  0  0  0  0
    8.3494   -6.8999    0.0000 H   0  0  0  0  0  0  0  0  0  0  0  0
    5.8792   -7.7063    0.0000 C   0  0  0  0  0  0  0  0  0  0  0  0
    4.4116   -7.3960    0.0000 C   0  0  0  0  0  0  0  0  0  0  0  0
    3.4089   -8.5116    0.0000 H   0  0  0  0  0  0  0  0  0  0  0  0
    3.9468   -5.9690    0.0000 N   0  0  0  0  0  0  0  0  0  0  0  0
    6.3444   -9.1323    0.0000 O   0  0  0  0  0  0  0  0  0  0  0  0
    7.8120   -9.4424    0.0000 H   0  0  0  0  0  0  0  0  0  0  0  0
  1  2  1  0  0  0  0 
  1  3  1  0  0  0  0 
  1  4  1  0  0  0  0 
  1  5  1  0  0  0  0 
  5  6  1  0  0  0  0 
  5  7  1  0  0  0  0 
  7  8  2  0  0  0  0 
  7  9  1  0  0  0  0 
  9 10  2  0  0  0  0 
 10 11  1  0  0  0  0 
 11 12  1  0  0  0  0 
 11 13  2  0  0  0  0 
 13 14  1  0  0  0  0 
 13 15  1  0  0  0  0 
 15 16  1  0  0  0  0 
 15 17  2  0  0  0  0 
  9 17  1  0  0  0  0 
 17 18  1  0  0  0  0 
 10 19  1  0  0  0  0 
 19 20  1  0  0  0  0 
 20 21  2  0  0  0  0 
 21 22  1  0  0  0  0 
 21 23  1  0  0  0  0 
 23 24  2  0  0  0  0 
 24 25  1  0  0  0  0 
 25 26  1  0  0  0  0 
 25 27  2  0  0  0  0 
 20 27  1  0  0  0  0 
 27 28  1  0  0  0  0 
 24 29  1  0  0  0  0 
 29 30  2  0  0  0  0 
 30 31  1  0  0  0  0 
 23 31  1  0  0  0  0 
 31 32  1  0  0  0  0 
 29 33  1  0  0  0  0 
 33 34  1  0  0  0  0 
 33 35  2  0  0  0  0 
 35 36  1  0  0  0  0 
 35 37  1  0  0  0  0 
 37 38  2  0  0  0  0 
 38 39  1  0  0  0  0 
 38 40  1  0  0  0  0 
 40 41  1  0  0  0  0 
 40 42  2  0  0  0  0 
 42 43  1  0  0  0  0 
 43 44  1  0  0  0  0 
 43 45  2  0  0  0  0 
 37 45  1  0  0  0  0 
 42 46  1  0  0  0  0 
 46 47  1  0  0  0  0 
M  END
> <Rank>
3

> <Priority_score>
0.464

> <Reaction_type>
aromatic_hydroxylation_(para_to_carbon)

> <Parent_ID>
36

> <Parent_InChI>
InChI=1S/C22H18N4OS/c1-23-22(27)18-7-2-3-8-21(18)28-16-10-11-17-19(25-26-20(17)14-16)12-9-15-6-4-5-13-24-15/h2-14H,1H3,(H,23,27)(H,25,26)

> <Parent_SMILES>
CNC(=O)c1ccccc1Sc1ccc2c(/C=C/c3ccccn3)n[nH]c2c1

$$$$
Molecule 36_metabolite 6
  CDK     0516241031

 42 45  0  0  0  0  0  0  0  0999 V2000
   -7.4986   -0.7488    0.0000 C   0  0  0  0  0  0  0  0  0  0  0  0
   -8.7990   -1.4964    0.0000 H   0  0  0  0  0  0  0  0  0  0  0  0
   -7.4981    0.7512    0.0000 C   0  0  0  0  0  0  0  0  0  0  0  0
   -8.7980    1.4997    0.0000 H   0  0  0  0  0  0  0  0  0  0  0  0
   -6.2078    1.5008    0.0000 C   0  0  0  0  0  0  0  0  0  0  0  0
   -4.9081    0.7504    0.0000 C   0  0  0  0  0  0  0  0  0  0  0  0
   -4.9086   -0.7496    0.0000 C   0  0  0  0  0  0  0  0  0  0  0  0
   -3.6099   -1.5002    0.0000 H   0  0  0  0  0  0  0  0  0  0  0  0
   -6.2088   -1.4992    0.0000 C   0  0  0  0  0  0  0  0  0  0  0  0
   -6.2118   -2.9992    0.0000 H   0  0  0  0  0  0  0  0  0  0  0  0
   -3.6089    1.5002    0.0000 S   0  0  0  0  0  0  0  0  0  0  0  0
   -1.4787    0.2699    0.0000 C   0  0  0  0  0  0  0  0  0  0  0  0
   -0.1787    1.0199    0.0000 C   0  0  0  0  0  0  0  0  0  0  0  0
   -0.1787    2.5199    0.0000 H   0  0  0  0  0  0  0  0  0  0  0  0
    1.1213    0.2699    0.0000 C   0  0  0  0  0  0  0  0  0  0  0  0
    1.1213   -1.2301    0.0000 C   0  0  0  0  0  0  0  0  0  0  0  0
   -0.1787   -1.9801    0.0000 C   0  0  0  0  0  0  0  0  0  0  0  0
   -0.1787   -3.4801    0.0000 H   0  0  0  0  0  0  0  0  0  0  0  0
   -1.4787   -1.2301    0.0000 C   0  0  0  0  0  0  0  0  0  0  0  0
   -2.7776   -1.9803    0.0000 H   0  0  0  0  0  0  0  0  0  0  0  0
    2.5513   -1.6901    0.0000 C   0  0  0  0  0  0  0  0  0  0  0  0
    3.4313   -0.4801    0.0000 N   0  0  0  0  0  0  0  0  0  0  0  0
    2.5513    0.7299    0.0000 N   0  0  0  0  0  0  0  0  0  0  0  0
    3.0166    2.1559    0.0000 H   0  0  0  0  0  0  0  0  0  0  0  0
    3.0166   -3.1161    0.0000 C   0  0  0  0  0  0  0  0  0  0  0  0
    2.0143   -4.2321    0.0000 H   0  0  0  0  0  0  0  0  0  0  0  0
    4.4842   -3.4262    0.0000 C   0  0  0  0  0  0  0  0  0  0  0  0
    5.4865   -2.3103    0.0000 H   0  0  0  0  0  0  0  0  0  0  0  0
    4.9495   -4.8522    0.0000 C   0  0  0  0  0  0  0  0  0  0  0  0
    3.9468   -5.9690    0.0000 N   0  0  0  0  0  0  0  0  0  0  0  0
    4.4116   -7.3960    0.0000 C   0  0  0  0  0  0  0  0  0  0  0  0
    3.4089   -8.5116    0.0000 H   0  0  0  0  0  0  0  0  0  0  0  0
    5.8792   -7.7063    0.0000 C   0  0  0  0  0  0  0  0  0  0  0  0
    6.3444   -9.1323    0.0000 H   0  0  0  0  0  0  0  0  0  0  0  0
    6.8819   -6.5896    0.0000 C   0  0  0  0  0  0  0  0  0  0  0  0
    8.3494   -6.8999    0.0000 H   0  0  0  0  0  0  0  0  0  0  0  0
    6.4170   -5.1625    0.0000 C   0  0  0  0  0  0  0  0  0  0  0  0
    7.4197   -4.0469    0.0000 H   0  0  0  0  0  0  0  0  0  0  0  0
   -6.2099    3.0008    0.0000 C   0  0  0  0  0  0  0  0  0  0  0  0
   -4.9118    3.7526    0.0000 O   0  0  0  0  0  0  0  0  0  0  0  0
   -7.5099    3.7491    0.0000 O   0  0  0  0  0  0  0  0  0  0  0  0
   -7.5120    5.2491    0.0000 H   0  0  0  0  0  0  0  0  0  0  0  0
  1  2  1  0  0  0  0 
  1  3  2  0  0  0  0 
  3  4  1  0  0  0  0 
  3  5  1  0  0  0  0 
  5  6  2  0  0  0  0 
  6  7  1  0  0  0  0 
  7  8  1  0  0  0  0 
  7  9  2  0  0  0  0 
  1  9  1  0  0  0  0 
  9 10  1  0  0  0  0 
  6 11  1  0  0  0  0 
 11 12  1  0  0  0  0 
 12 13  2  0  0  0  0 
 13 14  1  0  0  0  0 
 13 15  1  0  0  0  0 
 15 16  2  0  0  0  0 
 16 17  1  0  0  0  0 
 17 18  1  0  0  0  0 
 17 19  2  0  0  0  0 
 12 19  1  0  0  0  0 
 19 20  1  0  0  0  0 
 16 21  1  0  0  0  0 
 21 22  2  0  0  0  0 
 22 23  1  0  0  0  0 
 15 23  1  0  0  0  0 
 23 24  1  0  0  0  0 
 21 25  1  0  0  0  0 
 25 26  1  0  0  0  0 
 25 27  2  0  0  0  0 
 27 28  1  0  0  0  0 
 27 29  1  0  0  0  0 
 29 30  2  0  0  0  0 
 30 31  1  0  0  0  0 
 31 32  1  0  0  0  0 
 31 33  2  0  0  0  0 
 33 34  1  0  0  0  0 
 33 35  1  0  0  0  0 
 35 36  1  0  0  0  0 
 35 37  2  0  0  0  0 
 29 37  1  0  0  0  0 
 37 38  1  0  0  0  0 
  5 39  1  0  0  0  0 
 39 40  2  0  0  0  0 
 39 41  1  0  0  0  0 
 41 42  1  0  0  0  0 
M  END
> <Rank>
6

> <Priority_score>
0.46

> <Reaction_type>
hydrolysis_(secondary_amide)

> <Parent_ID>
36

> <Parent_InChI>
InChI=1S/C22H18N4OS/c1-23-22(27)18-7-2-3-8-21(18)28-16-10-11-17-19(25-26-20(17)14-16)12-9-15-6-4-5-13-24-15/h2-14H,1H3,(H,23,27)(H,25,26)

> <Parent_SMILES>
CNC(=O)c1ccccc1Sc1ccc2c(/C=C/c3ccccn3)n[nH]c2c1

$$$$
Molecule 36_metabolite 7
  CDK     0516241031

 47 50  0  0  0  0  0  0  0  0999 V2000
   -7.4986   -0.7488    0.0000 C   0  0  0  0  0  0  0  0  0  0  0  0
   -8.7990   -1.4964    0.0000 H   0  0  0  0  0  0  0  0  0  0  0  0
   -7.4981    0.7512    0.0000 C   0  0  0  0  0  0  0  0  0  0  0  0
   -8.7980    1.4997    0.0000 H   0  0  0  0  0  0  0  0  0  0  0  0
   -6.2078    1.5008    0.0000 C   0  0  0  0  0  0  0  0  0  0  0  0
   -4.9081    0.7504    0.0000 C   0  0  0  0  0  0  0  0  0  0  0  0
   -4.9086   -0.7496    0.0000 C   0  0  0  0  0  0  0  0  0  0  0  0
   -3.6099   -1.5002    0.0000 H   0  0  0  0  0  0  0  0  0  0  0  0
   -6.2088   -1.4992    0.0000 C   0  0  0  0  0  0  0  0  0  0  0  0
   -6.2118   -2.9992    0.0000 H   0  0  0  0  0  0  0  0  0  0  0  0
   -3.6089    1.5002    0.0000 S   0  0  0  0  0  0  0  0  0  0  0  0
   -1.4787    0.2699    0.0000 C   0  0  0  0  0  0  0  0  0  0  0  0
   -0.1787    1.0199    0.0000 C   0  0  0  0  0  0  0  0  0  0  0  0
   -0.1787    2.5199    0.0000 H   0  0  0  0  0  0  0  0  0  0  0  0
    1.1213    0.2699    0.0000 C   0  0  0  0  0  0  0  0  0  0  0  0
    1.1213   -1.2301    0.0000 C   0  0  0  0  0  0  0  0  0  0  0  0
   -0.1787   -1.9801    0.0000 C   0  0  0  0  0  0  0  0  0  0  0  0
   -0.1787   -3.4801    0.0000 H   0  0  0  0  0  0  0  0  0  0  0  0
   -1.4787   -1.2301    0.0000 C   0  0  0  0  0  0  0  0  0  0  0  0
   -2.7776   -1.9803    0.0000 H   0  0  0  0  0  0  0  0  0  0  0  0
    2.5513   -1.6901    0.0000 C   0  0  0  0  0  0  0  0  0  0  0  0
    3.4313   -0.4801    0.0000 N   0  0  0  0  0  0  0  0  0  0  0  0
    2.5513    0.7299    0.0000 N   0  0  0  0  0  0  0  0  0  0  0  0
    3.0166    2.1559    0.0000 H   0  0  0  0  0  0  0  0  0  0  0  0
    3.0166   -3.1161    0.0000 C   0  0  0  0  0  0  0  0  0  0  0  0
    2.0143   -4.2321    0.0000 H   0  0  0  0  0  0  0  0  0  0  0  0
    4.4842   -3.4262    0.0000 C   0  0  0  0  0  0  0  0  0  0  0  0
    5.4865   -2.3103    0.0000 H   0  0  0  0  0  0  0  0  0  0  0  0
    4.9495   -4.8522    0.0000 C   0  0  0  0  0  0  0  0  0  0  0  0
    3.9468   -5.9690    0.0000 N   0  0  0  0  0  0  0  0  0  0  0  0
    4.4116   -7.3960    0.0000 C   0  0  0  0  0  0  0  0  0  0  0  0
    3.4089   -8.5116    0.0000 H   0  0  0  0  0  0  0  0  0  0  0  0
    5.8792   -7.7063    0.0000 C   0  0  0  0  0  0  0  0  0  0  0  0
    6.3444   -9.1323    0.0000 H   0  0  0  0  0  0  0  0  0  0  0  0
    6.8819   -6.5896    0.0000 C   0  0  0  0  0  0  0  0  0  0  0  0
    8.3494   -6.8999    0.0000 H   0  0  0  0  0  0  0  0  0  0  0  0
    6.4170   -5.1625    0.0000 C   0  0  0  0  0  0  0  0  0  0  0  0
    7.4197   -4.0469    0.0000 H   0  0  0  0  0  0  0  0  0  0  0  0
   -6.2099    3.0008    0.0000 C   0  0  0  0  0  0  0  0  0  0  0  0
   -4.9118    3.7526    0.0000 O   0  0  0  0  0  0  0  0  0  0  0  0
   -7.5099    3.7491    0.0000 N   0  0  0  0  0  0  0  0  0  0  0  0
   -8.8079    2.9973    0.0000 H   0  0  0  0  0  0  0  0  0  0  0  0
   -7.5120    5.2491    0.0000 C   0  0  0  0  0  0  0  0  0  0  0  0
   -6.0344    4.9906    0.0000 H   0  0  0  0  0  0  0  0  0  0  0  0
   -7.0008    6.6593    0.0000 H   0  0  0  0  0  0  0  0  0  0  0  0
   -8.8120    5.9973    0.0000 O   0  0  0  0  0  0  0  0  0  0  0  0
   -8.8140    7.4973    0.0000 H   0  0  0  0  0  0  0  0  0  0  0  0
  1  2  1  0  0  0  0 
  1  3  2  0  0  0  0 
  3  4  1  0  0  0  0 
  3  5  1  0  0  0  0 
  5  6  2  0  0  0  0 
  6  7  1  0  0  0  0 
  7  8  1  0  0  0  0 
  7  9  2  0  0  0  0 
  1  9  1  0  0  0  0 
  9 10  1  0  0  0  0 
  6 11  1  0  0  0  0 
 11 12  1  0  0  0  0 
 12 13  2  0  0  0  0 
 13 14  1  0  0  0  0 
 13 15  1  0  0  0  0 
 15 16  2  0  0  0  0 
 16 17  1  0  0  0  0 
 17 18  1  0  0  0  0 
 17 19  2  0  0  0  0 
 12 19  1  0  0  0  0 
 19 20  1  0  0  0  0 
 16 21  1  0  0  0  0 
 21 22  2  0  0  0  0 
 22 23  1  0  0  0  0 
 15 23  1  0  0  0  0 
 23 24  1  0  0  0  0 
 21 25  1  0  0  0  0 
 25 26  1  0  0  0  0 
 25 27  2  0  0  0  0 
 27 28  1  0  0  0  0 
 27 29  1  0  0  0  0 
 29 30  2  0  0  0  0 
 30 31  1  0  0  0  0 
 31 32  1  0  0  0  0 
 31 33  2  0  0  0  0 
 33 34  1  0  0  0  0 
 33 35  1  0  0  0  0 
 35 36  1  0  0  0  0 
 35 37  2  0  0  0  0 
 29 37  1  0  0  0  0 
 37 38  1  0  0  0  0 
  5 39  1  0  0  0  0 
 39 40  2  0  0  0  0 
 39 41  1  0  0  0  0 
 41 42  1  0  0  0  0 
 41 43  1  0  0  0  0 
 43 44  1  0  0  0  0 
 43 45  1  0  0  0  0 
 43 46  1  0  0  0  0 
 46 47  1  0  0  0  0 
M  END
> <Rank>
6

> <Priority_score>
0.46

> <Reaction_type>
aliphatic hydroxylation

> <Parent_ID>
36

> <Parent_InChI>
InChI=1S/C22H18N4OS/c1-23-22(27)18-7-2-3-8-21(18)28-16-10-11-17-19(25-26-20(17)14-16)12-9-15-6-4-5-13-24-15/h2-14H,1H3,(H,23,27)(H,25,26)

> <Parent_SMILES>
CNC(=O)c1ccccc1Sc1ccc2c(/C=C/c3ccccn3)n[nH]c2c1

$$$$
Molecule 36_metabolite 8
  CDK     0516241031

 47 50  0  0  0  0  0  0  0  0999 V2000
   -7.5120    5.2491    0.0000 C   0  0  0  0  0  0  0  0  0  0  0  0
   -8.8120    5.9973    0.0000 H   0  0  0  0  0  0  0  0  0  0  0  0
   -6.0344    4.9906    0.0000 H   0  0  0  0  0  0  0  0  0  0  0  0
   -7.0008    6.6593    0.0000 H   0  0  0  0  0  0  0  0  0  0  0  0
   -7.5099    3.7491    0.0000 N   0  0  0  0  0  0  0  0  0  0  0  0
   -6.2099    3.0008    0.0000 C   0  0  0  0  0  0  0  0  0  0  0  0
   -4.9118    3.7526    0.0000 O   0  0  0  0  0  0  0  0  0  0  0  0
   -6.2078    1.5008    0.0000 C   0  0  0  0  0  0  0  0  0  0  0  0
   -4.9081    0.7504    0.0000 C   0  0  0  0  0  0  0  0  0  0  0  0
   -4.9086   -0.7496    0.0000 C   0  0  0  0  0  0  0  0  0  0  0  0
   -3.6099   -1.5002    0.0000 H   0  0  0  0  0  0  0  0  0  0  0  0
   -6.2088   -1.4992    0.0000 C   0  0  0  0  0  0  0  0  0  0  0  0
   -6.2118   -2.9992    0.0000 H   0  0  0  0  0  0  0  0  0  0  0  0
   -7.4986   -0.7488    0.0000 C   0  0  0  0  0  0  0  0  0  0  0  0
   -8.7990   -1.4964    0.0000 H   0  0  0  0  0  0  0  0  0  0  0  0
   -7.4981    0.7512    0.0000 C   0  0  0  0  0  0  0  0  0  0  0  0
   -8.7980    1.4997    0.0000 H   0  0  0  0  0  0  0  0  0  0  0  0
   -3.6089    1.5002    0.0000 S   0  0  0  0  0  0  0  0  0  0  0  0
   -1.4787    0.2699    0.0000 C   0  0  0  0  0  0  0  0  0  0  0  0
   -0.1787    1.0199    0.0000 C   0  0  0  0  0  0  0  0  0  0  0  0
   -0.1787    2.5199    0.0000 H   0  0  0  0  0  0  0  0  0  0  0  0
    1.1213    0.2699    0.0000 C   0  0  0  0  0  0  0  0  0  0  0  0
    1.1213   -1.2301    0.0000 C   0  0  0  0  0  0  0  0  0  0  0  0
   -0.1787   -1.9801    0.0000 C   0  0  0  0  0  0  0  0  0  0  0  0
   -0.1787   -3.4801    0.0000 H   0  0  0  0  0  0  0  0  0  0  0  0
   -1.4787   -1.2301    0.0000 C   0  0  0  0  0  0  0  0  0  0  0  0
   -2.7776   -1.9803    0.0000 H   0  0  0  0  0  0  0  0  0  0  0  0
    2.5513   -1.6901    0.0000 C   0  0  0  0  0  0  0  0  0  0  0  0
    3.4313   -0.4801    0.0000 N   0  0  0  0  0  0  0  0  0  0  0  0
    2.5513    0.7299    0.0000 N   0  0  0  0  0  0  0  0  0  0  0  0
    3.0166    2.1559    0.0000 H   0  0  0  0  0  0  0  0  0  0  0  0
    3.0166   -3.1161    0.0000 C   0  0  0  0  0  0  0  0  0  0  0  0
    2.0143   -4.2321    0.0000 H   0  0  0  0  0  0  0  0  0  0  0  0
    4.4842   -3.4262    0.0000 C   0  0  0  0  0  0  0  0  0  0  0  0
    5.4865   -2.3103    0.0000 H   0  0  0  0  0  0  0  0  0  0  0  0
    4.9495   -4.8522    0.0000 C   0  0  0  0  0  0  0  0  0  0  0  0
    3.9468   -5.9690    0.0000 N   0  0  0  0  0  0  0  0  0  0  0  0
    4.4116   -7.3960    0.0000 C   0  0  0  0  0  0  0  0  0  0  0  0
    3.4089   -8.5116    0.0000 H   0  0  0  0  0  0  0  0  0  0  0  0
    5.8792   -7.7063    0.0000 C   0  0  0  0  0  0  0  0  0  0  0  0
    6.3444   -9.1323    0.0000 H   0  0  0  0  0  0  0  0  0  0  0  0
    6.8819   -6.5896    0.0000 C   0  0  0  0  0  0  0  0  0  0  0  0
    8.3494   -6.8999    0.0000 H   0  0  0  0  0  0  0  0  0  0  0  0
    6.4170   -5.1625    0.0000 C   0  0  0  0  0  0  0  0  0  0  0  0
    7.4197   -4.0469    0.0000 H   0  0  0  0  0  0  0  0  0  0  0  0
   -8.8079    2.9973    0.0000 O   0  0  0  0  0  0  0  0  0  0  0  0
  -10.1080    3.7456    0.0000 H   0  0  0  0  0  0  0  0  0  0  0  0
  1  2  1  0  0  0  0 
  1  3  1  0  0  0  0 
  1  4  1  0  0  0  0 
  1  5  1  0  0  0  0 
  5  6  1  0  0  0  0 
  6  7  2  0  0  0  0 
  6  8  1  0  0  0  0 
  8  9  2  0  0  0  0 
  9 10  1  0  0  0  0 
 10 11  1  0  0  0  0 
 10 12  2  0  0  0  0 
 12 13  1  0  0  0  0 
 12 14  1  0  0  0  0 
 14 15  1  0  0  0  0 
 14 16  2  0  0  0  0 
  8 16  1  0  0  0  0 
 16 17  1  0  0  0  0 
  9 18  1  0  0  0  0 
 18 19  1  0  0  0  0 
 19 20  2  0  0  0  0 
 20 21  1  0  0  0  0 
 20 22  1  0  0  0  0 
 22 23  2  0  0  0  0 
 23 24  1  0  0  0  0 
 24 25  1  0  0  0  0 
 24 26  2  0  0  0  0 
 19 26  1  0  0  0  0 
 26 27  1  0  0  0  0 
 23 28  1  0  0  0  0 
 28 29  2  0  0  0  0 
 29 30  1  0  0  0  0 
 22 30  1  0  0  0  0 
 30 31  1  0  0  0  0 
 28 32  1  0  0  0  0 
 32 33  1  0  0  0  0 
 32 34  2  0  0  0  0 
 34 35  1  0  0  0  0 
 34 36  1  0  0  0  0 
 36 37  2  0  0  0  0 
 37 38  1  0  0  0  0 
 38 39  1  0  0  0  0 
 38 40  2  0  0  0  0 
 40 41  1  0  0  0  0 
 40 42  1  0  0  0  0 
 42 43  1  0  0  0  0 
 42 44  2  0  0  0  0 
 36 44  1  0  0  0  0 
 44 45  1  0  0  0  0 
  5 46  1  0  0  0  0 
 46 47  1  0  0  0  0 
M  END
> <Rank>
6

> <Priority_score>
0.46

> <Reaction_type>
amine hydroxylation

> <Parent_ID>
36

> <Parent_InChI>
InChI=1S/C22H18N4OS/c1-23-22(27)18-7-2-3-8-21(18)28-16-10-11-17-19(25-26-20(17)14-16)12-9-15-6-4-5-13-24-15/h2-14H,1H3,(H,23,27)(H,25,26)

> <Parent_SMILES>
CNC(=O)c1ccccc1Sc1ccc2c(/C=C/c3ccccn3)n[nH]c2c1

$$$$
Molecule 36_metabolite 9
  CDK     0516241031

 43 46  0  0  0  0  0  0  0  0999 V2000
   -7.4986   -0.7488    0.0000 C   0  0  0  0  0  0  0  0  0  0  0  0
   -8.7990   -1.4964    0.0000 H   0  0  0  0  0  0  0  0  0  0  0  0
   -7.4981    0.7512    0.0000 C   0  0  0  0  0  0  0  0  0  0  0  0
   -8.7980    1.4997    0.0000 H   0  0  0  0  0  0  0  0  0  0  0  0
   -6.2078    1.5008    0.0000 C   0  0  0  0  0  0  0  0  0  0  0  0
   -4.9081    0.7504    0.0000 C   0  0  0  0  0  0  0  0  0  0  0  0
   -4.9086   -0.7496    0.0000 C   0  0  0  0  0  0  0  0  0  0  0  0
   -3.6099   -1.5002    0.0000 H   0  0  0  0  0  0  0  0  0  0  0  0
   -6.2088   -1.4992    0.0000 C   0  0  0  0  0  0  0  0  0  0  0  0
   -6.2118   -2.9992    0.0000 H   0  0  0  0  0  0  0  0  0  0  0  0
   -3.6089    1.5002    0.0000 S   0  0  0  0  0  0  0  0  0  0  0  0
   -1.4787    0.2699    0.0000 C   0  0  0  0  0  0  0  0  0  0  0  0
   -0.1787    1.0199    0.0000 C   0  0  0  0  0  0  0  0  0  0  0  0
   -0.1787    2.5199    0.0000 H   0  0  0  0  0  0  0  0  0  0  0  0
    1.1213    0.2699    0.0000 C   0  0  0  0  0  0  0  0  0  0  0  0
    1.1213   -1.2301    0.0000 C   0  0  0  0  0  0  0  0  0  0  0  0
   -0.1787   -1.9801    0.0000 C   0  0  0  0  0  0  0  0  0  0  0  0
   -0.1787   -3.4801    0.0000 H   0  0  0  0  0  0  0  0  0  0  0  0
   -1.4787   -1.2301    0.0000 C   0  0  0  0  0  0  0  0  0  0  0  0
   -2.7776   -1.9803    0.0000 H   0  0  0  0  0  0  0  0  0  0  0  0
    2.5513   -1.6901    0.0000 C   0  0  0  0  0  0  0  0  0  0  0  0
    3.4313   -0.4801    0.0000 N   0  0  0  0  0  0  0  0  0  0  0  0
    2.5513    0.7299    0.0000 N   0  0  0  0  0  0  0  0  0  0  0  0
    3.0166    2.1559    0.0000 H   0  0  0  0  0  0  0  0  0  0  0  0
    3.0166   -3.1161    0.0000 C   0  0  0  0  0  0  0  0  0  0  0  0
    2.0143   -4.2321    0.0000 H   0  0  0  0  0  0  0  0  0  0  0  0
    4.4842   -3.4262    0.0000 C   0  0  0  0  0  0  0  0  0  0  0  0
    5.4865   -2.3103    0.0000 H   0  0  0  0  0  0  0  0  0  0  0  0
    4.9495   -4.8522    0.0000 C   0  0  0  0  0  0  0  0  0  0  0  0
    3.9468   -5.9690    0.0000 N   0  0  0  0  0  0  0  0  0  0  0  0
    4.4116   -7.3960    0.0000 C   0  0  0  0  0  0  0  0  0  0  0  0
    3.4089   -8.5116    0.0000 H   0  0  0  0  0  0  0  0  0  0  0  0
    5.8792   -7.7063    0.0000 C   0  0  0  0  0  0  0  0  0  0  0  0
    6.3444   -9.1323    0.0000 H   0  0  0  0  0  0  0  0  0  0  0  0
    6.8819   -6.5896    0.0000 C   0  0  0  0  0  0  0  0  0  0  0  0
    8.3494   -6.8999    0.0000 H   0  0  0  0  0  0  0  0  0  0  0  0
    6.4170   -5.1625    0.0000 C   0  0  0  0  0  0  0  0  0  0  0  0
    7.4197   -4.0469    0.0000 H   0  0  0  0  0  0  0  0  0  0  0  0
   -6.2099    3.0008    0.0000 C   0  0  0  0  0  0  0  0  0  0  0  0
   -4.9118    3.7526    0.0000 O   0  0  0  0  0  0  0  0  0  0  0  0
   -7.5099    3.7491    0.0000 N   0  0  0  0  0  0  0  0  0  0  0  0
   -7.5120    5.2491    0.0000 H   0  0  0  0  0  0  0  0  0  0  0  0
   -8.8079    2.9973    0.0000 H   0  0  0  0  0  0  0  0  0  0  0  0
  1  2  1  0  0  0  0 
  1  3  2  0  0  0  0 
  3  4  1  0  0  0  0 
  3  5  1  0  0  0  0 
  5  6  2  0  0  0  0 
  6  7  1  0  0  0  0 
  7  8  1  0  0  0  0 
  7  9  2  0  0  0  0 
  1  9  1  0  0  0  0 
  9 10  1  0  0  0  0 
  6 11  1  0  0  0  0 
 11 12  1  0  0  0  0 
 12 13  2  0  0  0  0 
 13 14  1  0  0  0  0 
 13 15  1  0  0  0  0 
 15 16  2  0  0  0  0 
 16 17  1  0  0  0  0 
 17 18  1  0  0  0  0 
 17 19  2  0  0  0  0 
 12 19  1  0  0  0  0 
 19 20  1  0  0  0  0 
 16 21  1  0  0  0  0 
 21 22  2  0  0  0  0 
 22 23  1  0  0  0  0 
 15 23  1  0  0  0  0 
 23 24  1  0  0  0  0 
 21 25  1  0  0  0  0 
 25 26  1  0  0  0  0 
 25 27  2  0  0  0  0 
 27 28  1  0  0  0  0 
 27 29  1  0  0  0  0 
 29 30  2  0  0  0  0 
 30 31  1  0  0  0  0 
 31 32  1  0  0  0  0 
 31 33  2  0  0  0  0 
 33 34  1  0  0  0  0 
 33 35  1  0  0  0  0 
 35 36  1  0  0  0  0 
 35 37  2  0  0  0  0 
 29 37  1  0  0  0  0 
 37 38  1  0  0  0  0 
  5 39  1  0  0  0  0 
 39 40  2  0  0  0  0 
 39 41  1  0  0  0  0 
 41 42  1  0  0  0  0 
 41 43  1  0  0  0  0 
M  END
> <Rank>
6

> <Priority_score>
0.46

> <Reaction_type>
N-demethylation_(R-NHCH3)

> <Parent_ID>
36

> <Parent_InChI>
InChI=1S/C22H18N4OS/c1-23-22(27)18-7-2-3-8-21(18)28-16-10-11-17-19(25-26-20(17)14-16)12-9-15-6-4-5-13-24-15/h2-14H,1H3,(H,23,27)(H,25,26)

> <Parent_SMILES>
CNC(=O)c1ccccc1Sc1ccc2c(/C=C/c3ccccn3)n[nH]c2c1

$$$$
Molecule 36_metabolite 10
  CDK     0516241031

 66 70  0  0  0  0  0  0  0  0999 V2000
   11.5576   -0.9729    0.0000 C   0  0  0  0  0  0  0  0  0  0  0  0
   13.0488   -1.1354    0.0000 H   0  0  0  0  0  0  0  0  0  0  0  0
   10.2119   -0.3102    0.0000 H   0  0  0  0  0  0  0  0  0  0  0  0
   11.9765    0.4674    0.0000 H   0  0  0  0  0  0  0  0  0  0  0  0
   10.6713   -2.1831    0.0000 N   0  0  0  0  0  0  0  0  0  0  0  0
   11.2762   -3.5557    0.0000 H   0  0  0  0  0  0  0  0  0  0  0  0
    9.1801   -2.0206    0.0000 C   0  0  0  0  0  0  0  0  0  0  0  0
    8.5752   -0.6480    0.0000 O   0  0  0  0  0  0  0  0  0  0  0  0
    8.2938   -3.2307    0.0000 C   0  0  0  0  0  0  0  0  0  0  0  0
    6.8016   -3.0702    0.0000 C   0  0  0  0  0  0  0  0  0  0  0  0
    5.9173   -4.2818    0.0000 C   0  0  0  0  0  0  0  0  0  0  0  0
    4.4259   -4.1221    0.0000 H   0  0  0  0  0  0  0  0  0  0  0  0
    6.5253   -5.6540    0.0000 C   0  0  0  0  0  0  0  0  0  0  0  0
    5.6430   -6.8671    0.0000 H   0  0  0  0  0  0  0  0  0  0  0  0
    8.0094   -5.8087    0.0000 C   0  0  0  0  0  0  0  0  0  0  0  0
    8.6187   -7.1794    0.0000 H   0  0  0  0  0  0  0  0  0  0  0  0
    8.8937   -4.5970    0.0000 C   0  0  0  0  0  0  0  0  0  0  0  0
   10.3849   -4.7593    0.0000 H   0  0  0  0  0  0  0  0  0  0  0  0
    6.1946   -1.6985    0.0000 S   0  0  0  0  0  0  0  0  0  0  0  0
    3.7487   -1.4357    0.0000 C   0  0  0  0  0  0  0  0  0  0  0  0
    3.1412   -0.0633    0.0000 C   0  0  0  0  0  0  0  0  0  0  0  0
    4.0258    1.1480    0.0000 H   0  0  0  0  0  0  0  0  0  0  0  0
    1.6490    0.0977    0.0000 C   0  0  0  0  0  0  0  0  0  0  0  0
    0.7644   -1.1137    0.0000 C   0  0  0  0  0  0  0  0  0  0  0  0
    1.3719   -2.4861    0.0000 C   0  0  0  0  0  0  0  0  0  0  0  0
    0.4872   -3.6974    0.0000 H   0  0  0  0  0  0  0  0  0  0  0  0
    2.8640   -2.6471    0.0000 C   0  0  0  0  0  0  0  0  0  0  0  0
    3.4706   -4.0190    0.0000 H   0  0  0  0  0  0  0  0  0  0  0  0
   -0.6618   -0.6418    0.0000 C   0  0  0  0  0  0  0  0  0  0  0  0
   -0.6588    0.8544    0.0000 N   0  0  0  0  0  0  0  0  0  0  0  0
    0.7655    1.3125    0.0000 N   0  0  0  0  0  0  0  0  0  0  0  0
    1.2308    2.7386    0.0000 C   0  0  0  0  0  0  0  0  0  0  0  0
    2.5544    2.0329    0.0000 H   0  0  0  0  0  0  0  0  0  0  0  0
    2.1555    3.9196    0.0000 C   0  0  0  0  0  0  0  0  0  0  0  0
    3.1581    2.8040    0.0000 H   0  0  0  0  0  0  0  0  0  0  0  0
    1.5942    5.3116    0.0000 C   0  0  0  0  0  0  0  0  0  0  0  0
    3.0617    5.6221    0.0000 H   0  0  0  0  0  0  0  0  0  0  0  0
    0.1083    5.5224    0.0000 C   0  0  0  0  0  0  0  0  0  0  0  0
    0.5735    6.9484    0.0000 H   0  0  0  0  0  0  0  0  0  0  0  0
   -0.8164    4.3414    0.0000 C   0  0  0  0  0  0  0  0  0  0  0  0
   -1.8191    5.4570    0.0000 H   0  0  0  0  0  0  0  0  0  0  0  0
   -2.0891    3.5475    0.0000 C   0  0  0  0  0  0  0  0  0  0  0  0
   -2.0380    2.0484    0.0000 O   0  0  0  0  0  0  0  0  0  0  0  0
   -3.4130    4.2528    0.0000 O   0  0  0  0  0  0  0  0  0  0  0  0
   -3.4641    5.7519    0.0000 H   0  0  0  0  0  0  0  0  0  0  0  0
   -0.2552    2.9494    0.0000 O   0  0  0  0  0  0  0  0  0  0  0  0
   -1.2154    6.2281    0.0000 O   0  0  0  0  0  0  0  0  0  0  0  0
   -1.2660    7.7273    0.0000 H   0  0  0  0  0  0  0  0  0  0  0  0
    1.5435    6.8107    0.0000 O   0  0  0  0  0  0  0  0  0  0  0  0
    2.8165    7.6042    0.0000 H   0  0  0  0  0  0  0  0  0  0  0  0
    3.4282    4.7135    0.0000 O   0  0  0  0  0  0  0  0  0  0  0  0
    4.7520    4.0082    0.0000 H   0  0  0  0  0  0  0  0  0  0  0  0
   -1.8785   -1.5190    0.0000 C   0  0  0  0  0  0  0  0  0  0  0  0
   -1.7272   -3.0113    0.0000 H   0  0  0  0  0  0  0  0  0  0  0  0
   -3.2466   -0.9038    0.0000 C   0  0  0  0  0  0  0  0  0  0  0  0
   -3.3979    0.5885    0.0000 H   0  0  0  0  0  0  0  0  0  0  0  0
   -4.4633   -1.7810    0.0000 C   0  0  0  0  0  0  0  0  0  0  0  0
   -4.3122   -3.2742    0.0000 N   0  0  0  0  0  0  0  0  0  0  0  0
   -5.5292   -4.1525    0.0000 C   0  0  0  0  0  0  0  0  0  0  0  0
   -5.3775   -5.6448    0.0000 H   0  0  0  0  0  0  0  0  0  0  0  0
   -6.8974   -3.5376    0.0000 C   0  0  0  0  0  0  0  0  0  0  0  0
   -8.1142   -4.4148    0.0000 H   0  0  0  0  0  0  0  0  0  0  0  0
   -7.0485   -2.0444    0.0000 C   0  0  0  0  0  0  0  0  0  0  0  0
   -8.4167   -1.4294    0.0000 H   0  0  0  0  0  0  0  0  0  0  0  0
   -5.8315   -1.1661    0.0000 C   0  0  0  0  0  0  0  0  0  0  0  0
   -5.9833    0.3262    0.0000 H   0  0  0  0  0  0  0  0  0  0  0  0
  1  2  1  0  0  0  0 
  1  3  1  0  0  0  0 
  1  4  1  0  0  0  0 
  1  5  1  0  0  0  0 
  5  6  1  0  0  0  0 
  5  7  1  0  0  0  0 
  7  8  2  0  0  0  0 
  7  9  1  0  0  0  0 
  9 10  2  0  0  0  0 
 10 11  1  0  0  0  0 
 11 12  1  0  0  0  0 
 11 13  2  0  0  0  0 
 13 14  1  0  0  0  0 
 13 15  1  0  0  0  0 
 15 16  1  0  0  0  0 
 15 17  2  0  0  0  0 
  9 17  1  0  0  0  0 
 17 18  1  0  0  0  0 
 10 19  1  0  0  0  0 
 19 20  1  0  0  0  0 
 20 21  2  0  0  0  0 
 21 22  1  0  0  0  0 
 21 23  1  0  0  0  0 
 23 24  2  0  0  0  0 
 24 25  1  0  0  0  0 
 25 26  1  0  0  0  0 
 25 27  2  0  0  0  0 
 20 27  1  0  0  0  0 
 27 28  1  0  0  0  0 
 24 29  1  0  0  0  0 
 29 30  2  0  0  0  0 
 30 31  1  0  0  0  0 
 23 31  1  0  0  0  0 
 31 32  1  0  0  0  0 
 32 33  1  0  0  0  0 
 32 34  1  0  0  0  0 
 34 35  1  0  0  0  0 
 34 36  1  0  0  0  0 
 36 37  1  0  0  0  0 
 36 38  1  0  0  0  0 
 38 39  1  0  0  0  0 
 38 40  1  0  0  0  0 
 40 41  1  0  0  0  0 
 40 42  1  0  0  0  0 
 42 43  2  0  0  0  0 
 42 44  1  0  0  0  0 
 44 45  1  0  0  0  0 
 40 46  1  0  0  0  0 
 32 46  1  0  0  0  0 
 38 47  1  0  0  0  0 
 47 48  1  0  0  0  0 
 36 49  1  0  0  0  0 
 49 50  1  0  0  0  0 
 34 51  1  0  0  0  0 
 51 52  1  0  0  0  0 
 29 53  1  0  0  0  0 
 53 54  1  0  0  0  0 
 53 55  2  0  0  0  0 
 55 56  1  0  0  0  0 
 55 57  1  0  0  0  0 
 57 58  2  0  0  0  0 
 58 59  1  0  0  0  0 
 59 60  1  0  0  0  0 
 59 61  2  0  0  0  0 
 61 62  1  0  0  0  0 
 61 63  1  0  0  0  0 
 63 64  1  0  0  0  0 
 63 65  2  0  0  0  0 
 57 65  1  0  0  0  0 
 65 66  1  0  0  0  0 
M  END
> <Rank>
10

> <Priority_score>
0.412

> <Reaction_type>
N-glucuronidation_(aromatic_-nH-)

> <Parent_ID>
36

> <Parent_InChI>
InChI=1S/C22H18N4OS/c1-23-22(27)18-7-2-3-8-21(18)28-16-10-11-17-19(25-26-20(17)14-16)12-9-15-6-4-5-13-24-15/h2-14H,1H3,(H,23,27)(H,25,26)

> <Parent_SMILES>
CNC(=O)c1ccccc1Sc1ccc2c(/C=C/c3ccccn3)n[nH]c2c1

$$$$
Molecule 36_metabolite 11
  CDK     0516241031

 47 50  0  0  0  0  0  0  0  0999 V2000
   -7.5120    5.2491    0.0000 C   0  0  0  0  0  0  0  0  0  0  0  0
   -8.8120    5.9973    0.0000 H   0  0  0  0  0  0  0  0  0  0  0  0
   -6.0344    4.9906    0.0000 H   0  0  0  0  0  0  0  0  0  0  0  0
   -7.0008    6.6593    0.0000 H   0  0  0  0  0  0  0  0  0  0  0  0
   -7.5099    3.7491    0.0000 N   0  0  0  0  0  0  0  0  0  0  0  0
   -8.8079    2.9973    0.0000 H   0  0  0  0  0  0  0  0  0  0  0  0
   -6.2099    3.0008    0.0000 C   0  0  0  0  0  0  0  0  0  0  0  0
   -4.9118    3.7526    0.0000 O   0  0  0  0  0  0  0  0  0  0  0  0
   -6.2078    1.5008    0.0000 C   0  0  0  0  0  0  0  0  0  0  0  0
   -4.9081    0.7504    0.0000 C   0  0  0  0  0  0  0  0  0  0  0  0
   -4.9086   -0.7496    0.0000 C   0  0  0  0  0  0  0  0  0  0  0  0
   -3.6099   -1.5002    0.0000 H   0  0  0  0  0  0  0  0  0  0  0  0
   -6.2088   -1.4992    0.0000 C   0  0  0  0  0  0  0  0  0  0  0  0
   -6.2118   -2.9992    0.0000 H   0  0  0  0  0  0  0  0  0  0  0  0
   -7.4986   -0.7488    0.0000 C   0  0  0  0  0  0  0  0  0  0  0  0
   -8.7990   -1.4964    0.0000 H   0  0  0  0  0  0  0  0  0  0  0  0
   -7.4981    0.7512    0.0000 C   0  0  0  0  0  0  0  0  0  0  0  0
   -8.7980    1.4997    0.0000 H   0  0  0  0  0  0  0  0  0  0  0  0
   -3.6089    1.5002    0.0000 S   0  0  0  0  0  0  0  0  0  0  0  0
   -1.4787    0.2699    0.0000 C   0  0  0  0  0  0  0  0  0  0  0  0
   -0.1787    1.0199    0.0000 C   0  0  0  0  0  0  0  0  0  0  0  0
   -0.1787    2.5199    0.0000 H   0  0  0  0  0  0  0  0  0  0  0  0
    1.1213    0.2699    0.0000 C   0  0  0  0  0  0  0  0  0  0  0  0
    1.1213   -1.2301    0.0000 C   0  0  0  0  0  0  0  0  0  0  0  0
   -0.1787   -1.9801    0.0000 C   0  0  0  0  0  0  0  0  0  0  0  0
   -0.1787   -3.4801    0.0000 H   0  0  0  0  0  0  0  0  0  0  0  0
   -1.4787   -1.2301    0.0000 C   0  0  0  0  0  0  0  0  0  0  0  0
   -2.7776   -1.9803    0.0000 H   0  0  0  0  0  0  0  0  0  0  0  0
    2.5513   -1.6901    0.0000 C   0  0  0  0  0  0  0  0  0  0  0  0
    3.4313   -0.4801    0.0000 N   0  0  0  0  0  0  0  0  0  0  0  0
    2.5513    0.7299    0.0000 N   0  0  0  0  0  0  0  0  0  0  0  0
    3.0166    2.1559    0.0000 H   0  0  0  0  0  0  0  0  0  0  0  0
    3.0166   -3.1161    0.0000 C   0  0  0  0  0  0  0  0  0  0  0  0
    2.0143   -4.2321    0.0000 H   0  0  0  0  0  0  0  0  0  0  0  0
    4.4842   -3.4262    0.0000 C   0  0  0  0  0  0  0  0  0  0  0  0
    5.4865   -2.3103    0.0000 H   0  0  0  0  0  0  0  0  0  0  0  0
    4.9495   -4.8522    0.0000 C   0  0  0  0  0  0  0  0  0  0  0  0
    3.9468   -5.9690    0.0000 N   0  0  0  0  0  0  0  0  0  0  0  0
    4.4116   -7.3960    0.0000 C   0  0  0  0  0  0  0  0  0  0  0  0
    3.4089   -8.5116    0.0000 H   0  0  0  0  0  0  0  0  0  0  0  0
    5.8792   -7.7063    0.0000 C   0  0  0  0  0  0  0  0  0  0  0  0
    6.3444   -9.1323    0.0000 H   0  0  0  0  0  0  0  0  0  0  0  0
    6.8819   -6.5896    0.0000 C   0  0  0  0  0  0  0  0  0  0  0  0
    8.3494   -6.8999    0.0000 H   0  0  0  0  0  0  0  0  0  0  0  0
    6.4170   -5.1625    0.0000 C   0  0  0  0  0  0  0  0  0  0  0  0
    7.4197   -4.0469    0.0000 H   0  0  0  0  0  0  0  0  0  0  0  0
    2.4792   -5.6587    0.0000 O   0  0  0  0  0  0  0  0  0  0  0  0
  1  2  1  0  0  0  0 
  1  3  1  0  0  0  0 
  1  4  1  0  0  0  0 
  1  5  1  0  0  0  0 
  5  6  1  0  0  0  0 
  5  7  1  0  0  0  0 
  7  8  2  0  0  0  0 
  7  9  1  0  0  0  0 
  9 10  2  0  0  0  0 
 10 11  1  0  0  0  0 
 11 12  1  0  0  0  0 
 11 13  2  0  0  0  0 
 13 14  1  0  0  0  0 
 13 15  1  0  0  0  0 
 15 16  1  0  0  0  0 
 15 17  2  0  0  0  0 
  9 17  1  0  0  0  0 
 17 18  1  0  0  0  0 
 10 19  1  0  0  0  0 
 19 20  1  0  0  0  0 
 20 21  2  0  0  0  0 
 21 22  1  0  0  0  0 
 21 23  1  0  0  0  0 
 23 24  2  0  0  0  0 
 24 25  1  0  0  0  0 
 25 26  1  0  0  0  0 
 25 27  2  0  0  0  0 
 20 27  1  0  0  0  0 
 27 28  1  0  0  0  0 
 24 29  1  0  0  0  0 
 29 30  2  0  0  0  0 
 30 31  1  0  0  0  0 
 23 31  1  0  0  0  0 
 31 32  1  0  0  0  0 
 29 33  1  0  0  0  0 
 33 34  1  0  0  0  0 
 33 35  2  0  0  0  0 
 35 36  1  0  0  0  0 
 35 37  1  0  0  0  0 
 37 38  2  0  0  0  0 
 38 39  1  0  0  0  0 
 39 40  1  0  0  0  0 
 39 41  2  0  0  0  0 
 41 42  1  0  0  0  0 
 41 43  1  0  0  0  0 
 43 44  1  0  0  0  0 
 43 45  2  0  0  0  0 
 37 45  1  0  0  0  0 
 45 46  1  0  0  0  0 
 38 47  1  0  0  0  0 
M  CHG  1  38   1
M  CHG  1  47  -1
M  END
> <Rank>
11

> <Priority_score>
0.396

> <Reaction_type>
N-oxidation_(-N=)

> <Parent_ID>
36

> <Parent_InChI>
InChI=1S/C22H18N4OS/c1-23-22(27)18-7-2-3-8-21(18)28-16-10-11-17-19(25-26-20(17)14-16)12-9-15-6-4-5-13-24-15/h2-14H,1H3,(H,23,27)(H,25,26)

> <Parent_SMILES>
CNC(=O)c1ccccc1Sc1ccc2c(/C=C/c3ccccn3)n[nH]c2c1

$$$$
Molecule 36_metabolite 12
  CDK     0516241031

 51 54  0  0  0  0  0  0  0  0999 V2000
   -8.8120    5.9973    0.0000 C   0  0  0  0  0  0  0  0  0  0  0  0
   -8.8140    7.4973    0.0000 H   0  0  0  0  0  0  0  0  0  0  0  0
  -10.2896    6.2558    0.0000 H   0  0  0  0  0  0  0  0  0  0  0  0
   -9.3231    4.5871    0.0000 H   0  0  0  0  0  0  0  0  0  0  0  0
   -7.5120    5.2491    0.0000 C   0  0  0  0  0  0  0  0  0  0  0  0
   -6.2139    6.0008    0.0000 O   0  0  0  0  0  0  0  0  0  0  0  0
   -7.5099    3.7491    0.0000 N   0  0  0  0  0  0  0  0  0  0  0  0
   -8.8079    2.9973    0.0000 C   0  0  0  0  0  0  0  0  0  0  0  0
  -10.1080    3.7456    0.0000 H   0  0  0  0  0  0  0  0  0  0  0  0
   -9.7706    1.8469    0.0000 H   0  0  0  0  0  0  0  0  0  0  0  0
   -7.8422    1.8496    0.0000 H   0  0  0  0  0  0  0  0  0  0  0  0
   -6.2099    3.0008    0.0000 C   0  0  0  0  0  0  0  0  0  0  0  0
   -4.9118    3.7526    0.0000 O   0  0  0  0  0  0  0  0  0  0  0  0
   -6.2078    1.5008    0.0000 C   0  0  0  0  0  0  0  0  0  0  0  0
   -4.9081    0.7504    0.0000 C   0  0  0  0  0  0  0  0  0  0  0  0
   -4.9086   -0.7496    0.0000 C   0  0  0  0  0  0  0  0  0  0  0  0
   -3.6099   -1.5002    0.0000 H   0  0  0  0  0  0  0  0  0  0  0  0
   -6.2088   -1.4992    0.0000 C   0  0  0  0  0  0  0  0  0  0  0  0
   -6.2118   -2.9992    0.0000 H   0  0  0  0  0  0  0  0  0  0  0  0
   -7.4986   -0.7488    0.0000 C   0  0  0  0  0  0  0  0  0  0  0  0
   -8.7990   -1.4964    0.0000 H   0  0  0  0  0  0  0  0  0  0  0  0
   -7.4981    0.7512    0.0000 C   0  0  0  0  0  0  0  0  0  0  0  0
   -8.7980    1.4997    0.0000 H   0  0  0  0  0  0  0  0  0  0  0  0
   -3.6089    1.5002    0.0000 S   0  0  0  0  0  0  0  0  0  0  0  0
   -1.4787    0.2699    0.0000 C   0  0  0  0  0  0  0  0  0  0  0  0
   -0.1787    1.0199    0.0000 C   0  0  0  0  0  0  0  0  0  0  0  0
   -0.1787    2.5199    0.0000 H   0  0  0  0  0  0  0  0  0  0  0  0
    1.1213    0.2699    0.0000 C   0  0  0  0  0  0  0  0  0  0  0  0
    1.1213   -1.2301    0.0000 C   0  0  0  0  0  0  0  0  0  0  0  0
   -0.1787   -1.9801    0.0000 C   0  0  0  0  0  0  0  0  0  0  0  0
   -0.1787   -3.4801    0.0000 H   0  0  0  0  0  0  0  0  0  0  0  0
   -1.4787   -1.2301    0.0000 C   0  0  0  0  0  0  0  0  0  0  0  0
   -2.7776   -1.9803    0.0000 H   0  0  0  0  0  0  0  0  0  0  0  0
    2.5513   -1.6901    0.0000 C   0  0  0  0  0  0  0  0  0  0  0  0
    3.4313   -0.4801    0.0000 N   0  0  0  0  0  0  0  0  0  0  0  0
    2.5513    0.7299    0.0000 N   0  0  0  0  0  0  0  0  0  0  0  0
    3.0166    2.1559    0.0000 H   0  0  0  0  0  0  0  0  0  0  0  0
    3.0166   -3.1161    0.0000 C   0  0  0  0  0  0  0  0  0  0  0  0
    2.0143   -4.2321    0.0000 H   0  0  0  0  0  0  0  0  0  0  0  0
    4.4842   -3.4262    0.0000 C   0  0  0  0  0  0  0  0  0  0  0  0
    5.4865   -2.3103    0.0000 H   0  0  0  0  0  0  0  0  0  0  0  0
    4.9495   -4.8522    0.0000 C   0  0  0  0  0  0  0  0  0  0  0  0
    3.9468   -5.9690    0.0000 N   0  0  0  0  0  0  0  0  0  0  0  0
    4.4116   -7.3960    0.0000 C   0  0  0  0  0  0  0  0  0  0  0  0
    3.4089   -8.5116    0.0000 H   0  0  0  0  0  0  0  0  0  0  0  0
    5.8792   -7.7063    0.0000 C   0  0  0  0  0  0  0  0  0  0  0  0
    6.3444   -9.1323    0.0000 H   0  0  0  0  0  0  0  0  0  0  0  0
    6.8819   -6.5896    0.0000 C   0  0  0  0  0  0  0  0  0  0  0  0
    8.3494   -6.8999    0.0000 H   0  0  0  0  0  0  0  0  0  0  0  0
    6.4170   -5.1625    0.0000 C   0  0  0  0  0  0  0  0  0  0  0  0
    7.4197   -4.0469    0.0000 H   0  0  0  0  0  0  0  0  0  0  0  0
  1  2  1  0  0  0  0 
  1  3  1  0  0  0  0 
  1  4  1  0  0  0  0 
  1  5  1  0  0  0  0 
  5  6  2  0  0  0  0 
  5  7  1  0  0  0  0 
  7  8  1  0  0  0  0 
  8  9  1  0  0  0  0 
  8 10  1  0  0  0  0 
  8 11  1  0  0  0  0 
  7 12  1  0  0  0  0 
 12 13  2  0  0  0  0 
 12 14  1  0  0  0  0 
 14 15  2  0  0  0  0 
 15 16  1  0  0  0  0 
 16 17  1  0  0  0  0 
 16 18  2  0  0  0  0 
 18 19  1  0  0  0  0 
 18 20  1  0  0  0  0 
 20 21  1  0  0  0  0 
 20 22  2  0  0  0  0 
 14 22  1  0  0  0  0 
 22 23  1  0  0  0  0 
 15 24  1  0  0  0  0 
 24 25  1  0  0  0  0 
 25 26  2  0  0  0  0 
 26 27  1  0  0  0  0 
 26 28  1  0  0  0  0 
 28 29  2  0  0  0  0 
 29 30  1  0  0  0  0 
 30 31  1  0  0  0  0 
 30 32  2  0  0  0  0 
 25 32  1  0  0  0  0 
 32 33  1  0  0  0  0 
 29 34  1  0  0  0  0 
 34 35  2  0  0  0  0 
 35 36  1  0  0  0  0 
 28 36  1  0  0  0  0 
 36 37  1  0  0  0  0 
 34 38  1  0  0  0  0 
 38 39  1  0  0  0  0 
 38 40  2  0  0  0  0 
 40 41  1  0  0  0  0 
 40 42  1  0  0  0  0 
 42 43  2  0  0  0  0 
 43 44  1  0  0  0  0 
 44 45  1  0  0  0  0 
 44 46  2  0  0  0  0 
 46 47  1  0  0  0  0 
 46 48  1  0  0  0  0 
 48 49  1  0  0  0  0 
 48 50  2  0  0  0  0 
 42 50  1  0  0  0  0 
 50 51  1  0  0  0  0 
M  END
> <Rank>
12

> <Priority_score>
0.276

> <Reaction_type>
N-acetylation_(NH1-CH3)

> <Parent_ID>
36

> <Parent_InChI>
InChI=1S/C22H18N4OS/c1-23-22(27)18-7-2-3-8-21(18)28-16-10-11-17-19(25-26-20(17)14-16)12-9-15-6-4-5-13-24-15/h2-14H,1H3,(H,23,27)(H,25,26)

> <Parent_SMILES>
CNC(=O)c1ccccc1Sc1ccc2c(/C=C/c3ccccn3)n[nH]c2c1

$$$$
Molecule 36_metabolite 13
  CDK     0516241031

 47 50  0  0  0  0  0  0  0  0999 V2000
   -4.9100   -3.7496    0.0000 C   0  0  0  0  0  0  0  0  0  0  0  0
   -4.9107   -5.2496    0.0000 H   0  0  0  0  0  0  0  0  0  0  0  0
   -5.4224   -2.3398    0.0000 H   0  0  0  0  0  0  0  0  0  0  0  0
   -6.3873   -4.0093    0.0000 H   0  0  0  0  0  0  0  0  0  0  0  0
   -3.6106   -3.0002    0.0000 N   0  0  0  0  0  0  0  0  0  0  0  0
   -2.3119   -3.7508    0.0000 H   0  0  0  0  0  0  0  0  0  0  0  0
   -3.6099   -1.5002    0.0000 C   0  0  0  0  0  0  0  0  0  0  0  0
   -2.3105   -0.7508    0.0000 O   0  0  0  0  0  0  0  0  0  0  0  0
   -4.9086   -0.7496    0.0000 C   0  0  0  0  0  0  0  0  0  0  0  0
   -6.2088   -1.4992    0.0000 C   0  0  0  0  0  0  0  0  0  0  0  0
   -6.2093   -2.9992    0.0000 H   0  0  0  0  0  0  0  0  0  0  0  0
   -7.5086   -0.7488    0.0000 C   0  0  0  0  0  0  0  0  0  0  0  0
   -8.8077   -1.4985    0.0000 H   0  0  0  0  0  0  0  0  0  0  0  0
   -7.5081    0.7512    0.0000 C   0  0  0  0  0  0  0  0  0  0  0  0
   -6.2078    1.5008    0.0000 C   0  0  0  0  0  0  0  0  0  0  0  0
   -6.2074    3.0008    0.0000 H   0  0  0  0  0  0  0  0  0  0  0  0
   -4.9081    0.7504    0.0000 C   0  0  0  0  0  0  0  0  0  0  0  0
   -3.6089    1.5002    0.0000 S   0  0  0  0  0  0  0  0  0  0  0  0
   -3.6085    3.9602    0.0000 C   0  0  0  0  0  0  0  0  0  0  0  0
   -2.3088    4.7106    0.0000 C   0  0  0  0  0  0  0  0  0  0  0  0
   -1.0100    3.9602    0.0000 H   0  0  0  0  0  0  0  0  0  0  0  0
   -2.3078    6.2115    0.0000 C   0  0  0  0  0  0  0  0  0  0  0  0
   -3.6066    6.9619    0.0000 C   0  0  0  0  0  0  0  0  0  0  0  0
   -4.9064    6.2115    0.0000 C   0  0  0  0  0  0  0  0  0  0  0  0
   -6.2052    6.9619    0.0000 H   0  0  0  0  0  0  0  0  0  0  0  0
   -4.9073    4.7106    0.0000 C   0  0  0  0  0  0  0  0  0  0  0  0
   -6.2067    3.9612    0.0000 H   0  0  0  0  0  0  0  0  0  0  0  0
   -3.2895    8.4302    0.0000 C   0  0  0  0  0  0  0  0  0  0  0  0
   -1.8016    8.5868    0.0000 N   0  0  0  0  0  0  0  0  0  0  0  0
   -1.1941    7.2195    0.0000 N   0  0  0  0  0  0  0  0  0  0  0  0
    0.2734    6.9090    0.0000 H   0  0  0  0  0  0  0  0  0  0  0  0
   -4.2915    9.5465    0.0000 C   0  0  0  0  0  0  0  0  0  0  0  0
   -5.7592    9.2369    0.0000 H   0  0  0  0  0  0  0  0  0  0  0  0
   -3.8257   10.9723    0.0000 C   0  0  0  0  0  0  0  0  0  0  0  0
   -2.3580   11.2819    0.0000 H   0  0  0  0  0  0  0  0  0  0  0  0
   -4.8277   12.0886    0.0000 C   0  0  0  0  0  0  0  0  0  0  0  0
   -6.2963   11.7791    0.0000 N   0  0  0  0  0  0  0  0  0  0  0  0
   -7.2993   12.8955    0.0000 C   0  0  0  0  0  0  0  0  0  0  0  0
   -8.7669   12.5854    0.0000 H   0  0  0  0  0  0  0  0  0  0  0  0
   -6.8338   14.3214    0.0000 C   0  0  0  0  0  0  0  0  0  0  0  0
   -7.8358   15.4377    0.0000 H   0  0  0  0  0  0  0  0  0  0  0  0
   -5.3653   14.6309    0.0000 C   0  0  0  0  0  0  0  0  0  0  0  0
   -4.8998   16.0569    0.0000 H   0  0  0  0  0  0  0  0  0  0  0  0
   -4.3622   13.5145    0.0000 C   0  0  0  0  0  0  0  0  0  0  0  0
   -2.8946   13.8246    0.0000 H   0  0  0  0  0  0  0  0  0  0  0  0
   -8.8068    1.5019    0.0000 O   0  0  0  0  0  0  0  0  0  0  0  0
  -10.1062    0.7525    0.0000 H   0  0  0  0  0  0  0  0  0  0  0  0
  1  2  1  0  0  0  0 
  1  3  1  0  0  0  0 
  1  4  1  0  0  0  0 
  1  5  1  0  0  0  0 
  5  6  1  0  0  0  0 
  5  7  1  0  0  0  0 
  7  8  2  0  0  0  0 
  7  9  1  0  0  0  0 
  9 10  2  0  0  0  0 
 10 11  1  0  0  0  0 
 10 12  1  0  0  0  0 
 12 13  1  0  0  0  0 
 12 14  2  0  0  0  0 
 14 15  1  0  0  0  0 
 15 16  1  0  0  0  0 
 15 17  2  0  0  0  0 
  9 17  1  0  0  0  0 
 17 18  1  0  0  0  0 
 18 19  1  0  0  0  0 
 19 20  2  0  0  0  0 
 20 21  1  0  0  0  0 
 20 22  1  0  0  0  0 
 22 23  2  0  0  0  0 
 23 24  1  0  0  0  0 
 24 25  1  0  0  0  0 
 24 26  2  0  0  0  0 
 19 26  1  0  0  0  0 
 26 27  1  0  0  0  0 
 23 28  1  0  0  0  0 
 28 29  2  0  0  0  0 
 29 30  1  0  0  0  0 
 22 30  1  0  0  0  0 
 30 31  1  0  0  0  0 
 28 32  1  0  0  0  0 
 32 33  1  0  0  0  0 
 32 34  2  0  0  0  0 
 34 35  1  0  0  0  0 
 34 36  1  0  0  0  0 
 36 37  2  0  0  0  0 
 37 38  1  0  0  0  0 
 38 39  1  0  0  0  0 
 38 40  2  0  0  0  0 
 40 41  1  0  0  0  0 
 40 42  1  0  0  0  0 
 42 43  1  0  0  0  0 
 42 44  2  0  0  0  0 
 36 44  1  0  0  0  0 
 44 45  1  0  0  0  0 
 14 46  1  0  0  0  0 
 46 47  1  0  0  0  0 
M  END
> <Rank>
13

> <Priority_score>
0.132

> <Reaction_type>
aromatic_hydroxylation_(para_to_carbon)

> <Parent_ID>
36

> <Parent_InChI>
InChI=1S/C22H18N4OS/c1-23-22(27)18-7-2-3-8-21(18)28-16-10-11-17-19(25-26-20(17)14-16)12-9-15-6-4-5-13-24-15/h2-14H,1H3,(H,23,27)(H,25,26)

> <Parent_SMILES>
CNC(=O)c1ccccc1Sc1ccc2c(/C=C/c3ccccn3)n[nH]c2c1

$$$$
Molecule 36_metabolite 14
  CDK     0516241031

 47 50  0  0  0  0  0  0  0  0999 V2000
   -4.9100   -3.7496    0.0000 C   0  0  0  0  0  0  0  0  0  0  0  0
   -4.9107   -5.2496    0.0000 H   0  0  0  0  0  0  0  0  0  0  0  0
   -5.4224   -2.3398    0.0000 H   0  0  0  0  0  0  0  0  0  0  0  0
   -6.3873   -4.0093    0.0000 H   0  0  0  0  0  0  0  0  0  0  0  0
   -3.6106   -3.0002    0.0000 N   0  0  0  0  0  0  0  0  0  0  0  0
   -2.3119   -3.7508    0.0000 H   0  0  0  0  0  0  0  0  0  0  0  0
   -3.6099   -1.5002    0.0000 C   0  0  0  0  0  0  0  0  0  0  0  0
   -2.3105   -0.7508    0.0000 O   0  0  0  0  0  0  0  0  0  0  0  0
   -4.9086   -0.7496    0.0000 C   0  0  0  0  0  0  0  0  0  0  0  0
   -6.2088   -1.4992    0.0000 C   0  0  0  0  0  0  0  0  0  0  0  0
   -6.2093   -2.9992    0.0000 H   0  0  0  0  0  0  0  0  0  0  0  0
   -7.5086   -0.7488    0.0000 C   0  0  0  0  0  0  0  0  0  0  0  0
   -7.5081    0.7512    0.0000 C   0  0  0  0  0  0  0  0  0  0  0  0
   -8.8068    1.5019    0.0000 H   0  0  0  0  0  0  0  0  0  0  0  0
   -6.2078    1.5008    0.0000 C   0  0  0  0  0  0  0  0  0  0  0  0
   -6.2074    3.0008    0.0000 H   0  0  0  0  0  0  0  0  0  0  0  0
   -4.9081    0.7504    0.0000 C   0  0  0  0  0  0  0  0  0  0  0  0
   -3.6089    1.5002    0.0000 S   0  0  0  0  0  0  0  0  0  0  0  0
   -3.6085    3.9602    0.0000 C   0  0  0  0  0  0  0  0  0  0  0  0
   -2.3088    4.7106    0.0000 C   0  0  0  0  0  0  0  0  0  0  0  0
   -1.0100    3.9602    0.0000 H   0  0  0  0  0  0  0  0  0  0  0  0
   -2.3078    6.2115    0.0000 C   0  0  0  0  0  0  0  0  0  0  0  0
   -3.6066    6.9619    0.0000 C   0  0  0  0  0  0  0  0  0  0  0  0
   -4.9064    6.2115    0.0000 C   0  0  0  0  0  0  0  0  0  0  0  0
   -6.2052    6.9619    0.0000 H   0  0  0  0  0  0  0  0  0  0  0  0
   -4.9073    4.7106    0.0000 C   0  0  0  0  0  0  0  0  0  0  0  0
   -6.2067    3.9612    0.0000 H   0  0  0  0  0  0  0  0  0  0  0  0
   -3.2895    8.4302    0.0000 C   0  0  0  0  0  0  0  0  0  0  0  0
   -1.8016    8.5868    0.0000 N   0  0  0  0  0  0  0  0  0  0  0  0
   -1.1941    7.2195    0.0000 N   0  0  0  0  0  0  0  0  0  0  0  0
    0.2734    6.9090    0.0000 H   0  0  0  0  0  0  0  0  0  0  0  0
   -4.2915    9.5465    0.0000 C   0  0  0  0  0  0  0  0  0  0  0  0
   -5.7592    9.2369    0.0000 H   0  0  0  0  0  0  0  0  0  0  0  0
   -3.8257   10.9723    0.0000 C   0  0  0  0  0  0  0  0  0  0  0  0
   -2.3580   11.2819    0.0000 H   0  0  0  0  0  0  0  0  0  0  0  0
   -4.8277   12.0886    0.0000 C   0  0  0  0  0  0  0  0  0  0  0  0
   -6.2963   11.7791    0.0000 N   0  0  0  0  0  0  0  0  0  0  0  0
   -7.2993   12.8955    0.0000 C   0  0  0  0  0  0  0  0  0  0  0  0
   -8.7669   12.5854    0.0000 H   0  0  0  0  0  0  0  0  0  0  0  0
   -6.8338   14.3214    0.0000 C   0  0  0  0  0  0  0  0  0  0  0  0
   -7.8358   15.4377    0.0000 H   0  0  0  0  0  0  0  0  0  0  0  0
   -5.3653   14.6309    0.0000 C   0  0  0  0  0  0  0  0  0  0  0  0
   -4.8998   16.0569    0.0000 H   0  0  0  0  0  0  0  0  0  0  0  0
   -4.3622   13.5145    0.0000 C   0  0  0  0  0  0  0  0  0  0  0  0
   -2.8946   13.8246    0.0000 H   0  0  0  0  0  0  0  0  0  0  0  0
   -8.8077   -1.4985    0.0000 O   0  0  0  0  0  0  0  0  0  0  0  0
  -10.1066   -0.7483    0.0000 H   0  0  0  0  0  0  0  0  0  0  0  0
  1  2  1  0  0  0  0 
  1  3  1  0  0  0  0 
  1  4  1  0  0  0  0 
  1  5  1  0  0  0  0 
  5  6  1  0  0  0  0 
  5  7  1  0  0  0  0 
  7  8  2  0  0  0  0 
  7  9  1  0  0  0  0 
  9 10  2  0  0  0  0 
 10 11  1  0  0  0  0 
 10 12  1  0  0  0  0 
 12 13  2  0  0  0  0 
 13 14  1  0  0  0  0 
 13 15  1  0  0  0  0 
 15 16  1  0  0  0  0 
 15 17  2  0  0  0  0 
  9 17  1  0  0  0  0 
 17 18  1  0  0  0  0 
 18 19  1  0  0  0  0 
 19 20  2  0  0  0  0 
 20 21  1  0  0  0  0 
 20 22  1  0  0  0  0 
 22 23  2  0  0  0  0 
 23 24  1  0  0  0  0 
 24 25  1  0  0  0  0 
 24 26  2  0  0  0  0 
 19 26  1  0  0  0  0 
 26 27  1  0  0  0  0 
 23 28  1  0  0  0  0 
 28 29  2  0  0  0  0 
 29 30  1  0  0  0  0 
 22 30  1  0  0  0  0 
 30 31  1  0  0  0  0 
 28 32  1  0  0  0  0 
 32 33  1  0  0  0  0 
 32 34  2  0  0  0  0 
 34 35  1  0  0  0  0 
 34 36  1  0  0  0  0 
 36 37  2  0  0  0  0 
 37 38  1  0  0  0  0 
 38 39  1  0  0  0  0 
 38 40  2  0  0  0  0 
 40 41  1  0  0  0  0 
 40 42  1  0  0  0  0 
 42 43  1  0  0  0  0 
 42 44  2  0  0  0  0 
 36 44  1  0  0  0  0 
 44 45  1  0  0  0  0 
 12 46  1  0  0  0  0 
 46 47  1  0  0  0  0 
M  END
> <Rank>
13

> <Priority_score>
0.132

> <Reaction_type>
aromatic_hydroxylation_(meta_to_carbon)

> <Parent_ID>
36

> <Parent_InChI>
InChI=1S/C22H18N4OS/c1-23-22(27)18-7-2-3-8-21(18)28-16-10-11-17-19(25-26-20(17)14-16)12-9-15-6-4-5-13-24-15/h2-14H,1H3,(H,23,27)(H,25,26)

> <Parent_SMILES>
CNC(=O)c1ccccc1Sc1ccc2c(/C=C/c3ccccn3)n[nH]c2c1

$$$$
Molecule 36_metabolite 15
  CDK     0516241031

 47 50  0  0  0  0  0  0  0  0999 V2000
   -5.7415   -4.2295    0.0000 C   0  0  0  0  0  0  0  0  0  0  0  0
   -5.7422   -5.7294    0.0000 H   0  0  0  0  0  0  0  0  0  0  0  0
   -6.2538   -2.8197    0.0000 H   0  0  0  0  0  0  0  0  0  0  0  0
   -7.2188   -4.4892    0.0000 H   0  0  0  0  0  0  0  0  0  0  0  0
   -4.4421   -3.4801    0.0000 N   0  0  0  0  0  0  0  0  0  0  0  0
   -3.1434   -4.2307    0.0000 H   0  0  0  0  0  0  0  0  0  0  0  0
   -4.4413   -1.9801    0.0000 C   0  0  0  0  0  0  0  0  0  0  0  0
   -3.1419   -1.2307    0.0000 O   0  0  0  0  0  0  0  0  0  0  0  0
   -5.7400   -1.2295    0.0000 C   0  0  0  0  0  0  0  0  0  0  0  0
   -7.0403   -1.9790    0.0000 C   0  0  0  0  0  0  0  0  0  0  0  0
   -7.0407   -3.4790    0.0000 H   0  0  0  0  0  0  0  0  0  0  0  0
   -8.3400   -1.2286    0.0000 C   0  0  0  0  0  0  0  0  0  0  0  0
   -9.6392   -1.9784    0.0000 H   0  0  0  0  0  0  0  0  0  0  0  0
   -8.3395    0.2714    0.0000 C   0  0  0  0  0  0  0  0  0  0  0  0
   -9.6382    1.0220    0.0000 H   0  0  0  0  0  0  0  0  0  0  0  0
   -7.0393    1.0210    0.0000 C   0  0  0  0  0  0  0  0  0  0  0  0
   -5.7395    0.2705    0.0000 C   0  0  0  0  0  0  0  0  0  0  0  0
   -3.6089    1.5002    0.0000 S   0  0  0  0  0  0  0  0  0  0  0  0
   -3.6087    3.0002    0.0000 C   0  0  0  0  0  0  0  0  0  0  0  0
   -2.3089    3.7506    0.0000 C   0  0  0  0  0  0  0  0  0  0  0  0
   -1.0101    3.0002    0.0000 H   0  0  0  0  0  0  0  0  0  0  0  0
   -2.3080    5.2515    0.0000 C   0  0  0  0  0  0  0  0  0  0  0  0
   -3.6068    6.0019    0.0000 C   0  0  0  0  0  0  0  0  0  0  0  0
   -4.9065    5.2515    0.0000 C   0  0  0  0  0  0  0  0  0  0  0  0
   -6.2053    6.0019    0.0000 H   0  0  0  0  0  0  0  0  0  0  0  0
   -4.9075    3.7506    0.0000 C   0  0  0  0  0  0  0  0  0  0  0  0
   -6.2069    3.0012    0.0000 H   0  0  0  0  0  0  0  0  0  0  0  0
   -3.2897    7.4702    0.0000 C   0  0  0  0  0  0  0  0  0  0  0  0
   -1.8017    7.6268    0.0000 N   0  0  0  0  0  0  0  0  0  0  0  0
   -1.1943    6.2595    0.0000 N   0  0  0  0  0  0  0  0  0  0  0  0
    0.2732    5.9490    0.0000 H   0  0  0  0  0  0  0  0  0  0  0  0
   -4.2916    8.5865    0.0000 C   0  0  0  0  0  0  0  0  0  0  0  0
   -5.7593    8.2769    0.0000 H   0  0  0  0  0  0  0  0  0  0  0  0
   -3.8259   10.0123    0.0000 C   0  0  0  0  0  0  0  0  0  0  0  0
   -2.3582   10.3219    0.0000 H   0  0  0  0  0  0  0  0  0  0  0  0
   -4.8279   11.1286    0.0000 C   0  0  0  0  0  0  0  0  0  0  0  0
   -6.2964   10.8191    0.0000 N   0  0  0  0  0  0  0  0  0  0  0  0
   -7.2995   11.9355    0.0000 C   0  0  0  0  0  0  0  0  0  0  0  0
   -8.7671   11.6254    0.0000 H   0  0  0  0  0  0  0  0  0  0  0  0
   -6.8340   13.3614    0.0000 C   0  0  0  0  0  0  0  0  0  0  0  0
   -7.8359   14.4777    0.0000 H   0  0  0  0  0  0  0  0  0  0  0  0
   -5.3654   13.6709    0.0000 C   0  0  0  0  0  0  0  0  0  0  0  0
   -4.8999   15.0969    0.0000 H   0  0  0  0  0  0  0  0  0  0  0  0
   -4.3624   12.5545    0.0000 C   0  0  0  0  0  0  0  0  0  0  0  0
   -2.8947   12.8646    0.0000 H   0  0  0  0  0  0  0  0  0  0  0  0
   -7.0388    2.5210    0.0000 O   0  0  0  0  0  0  0  0  0  0  0  0
   -8.3376    3.2714    0.0000 H   0  0  0  0  0  0  0  0  0  0  0  0
  1  2  1  0  0  0  0 
  1  3  1  0  0  0  0 
  1  4  1  0  0  0  0 
  1  5  1  0  0  0  0 
  5  6  1  0  0  0  0 
  5  7  1  0  0  0  0 
  7  8  2  0  0  0  0 
  7  9  1  0  0  0  0 
  9 10  2  0  0  0  0 
 10 11  1  0  0  0  0 
 10 12  1  0  0  0  0 
 12 13  1  0  0  0  0 
 12 14  2  0  0  0  0 
 14 15  1  0  0  0  0 
 14 16  1  0  0  0  0 
 16 17  2  0  0  0  0 
  9 17  1  0  0  0  0 
 17 18  1  0  0  0  0 
 18 19  1  0  0  0  0 
 19 20  2  0  0  0  0 
 20 21  1  0  0  0  0 
 20 22  1  0  0  0  0 
 22 23  2  0  0  0  0 
 23 24  1  0  0  0  0 
 24 25  1  0  0  0  0 
 24 26  2  0  0  0  0 
 19 26  1  0  0  0  0 
 26 27  1  0  0  0  0 
 23 28  1  0  0  0  0 
 28 29  2  0  0  0  0 
 29 30  1  0  0  0  0 
 22 30  1  0  0  0  0 
 30 31  1  0  0  0  0 
 28 32  1  0  0  0  0 
 32 33  1  0  0  0  0 
 32 34  2  0  0  0  0 
 34 35  1  0  0  0  0 
 34 36  1  0  0  0  0 
 36 37  2  0  0  0  0 
 37 38  1  0  0  0  0 
 38 39  1  0  0  0  0 
 38 40  2  0  0  0  0 
 40 41  1  0  0  0  0 
 40 42  1  0  0  0  0 
 42 43  1  0  0  0  0 
 42 44  2  0  0  0  0 
 36 44  1  0  0  0  0 
 44 45  1  0  0  0  0 
 16 46  1  0  0  0  0 
 46 47  1  0  0  0  0 
M  END
> <Rank>
13

> <Priority_score>
0.132

> <Reaction_type>
aromatic_hydroxylation_(meta_to_carbon)

> <Parent_ID>
36

> <Parent_InChI>
InChI=1S/C22H18N4OS/c1-23-22(27)18-7-2-3-8-21(18)28-16-10-11-17-19(25-26-20(17)14-16)12-9-15-6-4-5-13-24-15/h2-14H,1H3,(H,23,27)(H,25,26)

> <Parent_SMILES>
CNC(=O)c1ccccc1Sc1ccc2c(/C=C/c3ccccn3)n[nH]c2c1

$$$$
Molecule 36_metabolite 16
  CDK     0516241031

 47 50  0  0  0  0  0  0  0  0999 V2000
   -7.5120    5.2491    0.0000 C   0  0  0  0  0  0  0  0  0  0  0  0
   -8.8120    5.9973    0.0000 H   0  0  0  0  0  0  0  0  0  0  0  0
   -6.0344    4.9906    0.0000 H   0  0  0  0  0  0  0  0  0  0  0  0
   -7.0008    6.6593    0.0000 H   0  0  0  0  0  0  0  0  0  0  0  0
   -7.5099    3.7491    0.0000 N   0  0  0  0  0  0  0  0  0  0  0  0
   -8.8079    2.9973    0.0000 H   0  0  0  0  0  0  0  0  0  0  0  0
   -6.2099    3.0008    0.0000 C   0  0  0  0  0  0  0  0  0  0  0  0
   -4.9118    3.7526    0.0000 O   0  0  0  0  0  0  0  0  0  0  0  0
   -6.2078    1.5008    0.0000 C   0  0  0  0  0  0  0  0  0  0  0  0
   -4.9081    0.7504    0.0000 C   0  0  0  0  0  0  0  0  0  0  0  0
   -4.9086   -0.7496    0.0000 C   0  0  0  0  0  0  0  0  0  0  0  0
   -3.6099   -1.5002    0.0000 H   0  0  0  0  0  0  0  0  0  0  0  0
   -6.2088   -1.4992    0.0000 C   0  0  0  0  0  0  0  0  0  0  0  0
   -6.2118   -2.9992    0.0000 H   0  0  0  0  0  0  0  0  0  0  0  0
   -7.4986   -0.7488    0.0000 C   0  0  0  0  0  0  0  0  0  0  0  0
   -8.7990   -1.4964    0.0000 H   0  0  0  0  0  0  0  0  0  0  0  0
   -7.4981    0.7512    0.0000 C   0  0  0  0  0  0  0  0  0  0  0  0
   -8.7980    1.4997    0.0000 H   0  0  0  0  0  0  0  0  0  0  0  0
   -3.6089    1.5002    0.0000 S   0  0  0  0  0  0  0  0  0  0  0  0
   -1.4787    0.2699    0.0000 C   0  0  0  0  0  0  0  0  0  0  0  0
   -0.1787    1.0199    0.0000 C   0  0  0  0  0  0  0  0  0  0  0  0
   -0.1787    2.5199    0.0000 H   0  0  0  0  0  0  0  0  0  0  0  0
    1.1213    0.2699    0.0000 C   0  0  0  0  0  0  0  0  0  0  0  0
    1.1213   -1.2301    0.0000 C   0  0  0  0  0  0  0  0  0  0  0  0
   -0.1787   -1.9801    0.0000 C   0  0  0  0  0  0  0  0  0  0  0  0
   -0.1787   -3.4801    0.0000 H   0  0  0  0  0  0  0  0  0  0  0  0
   -1.4787   -1.2301    0.0000 C   0  0  0  0  0  0  0  0  0  0  0  0
   -2.7776   -1.9803    0.0000 H   0  0  0  0  0  0  0  0  0  0  0  0
    2.5513   -1.6901    0.0000 C   0  0  0  0  0  0  0  0  0  0  0  0
    3.4313   -0.4801    0.0000 N   0  0  0  0  0  0  0  0  0  0  0  0
    2.5513    0.7299    0.0000 N   0  0  0  0  0  0  0  0  0  0  0  0
    3.0166    2.1559    0.0000 H   0  0  0  0  0  0  0  0  0  0  0  0
    3.0166   -3.1161    0.0000 C   0  0  0  0  0  0  0  0  0  0  0  0
    2.0143   -4.2321    0.0000 H   0  0  0  0  0  0  0  0  0  0  0  0
    4.4842   -3.4262    0.0000 C   0  0  0  0  0  0  0  0  0  0  0  0
    5.4865   -2.3103    0.0000 H   0  0  0  0  0  0  0  0  0  0  0  0
    4.9495   -4.8522    0.0000 C   0  0  0  0  0  0  0  0  0  0  0  0
    3.9468   -5.9690    0.0000 N   0  0  0  0  0  0  0  0  0  0  0  0
    4.4116   -7.3960    0.0000 C   0  0  0  0  0  0  0  0  0  0  0  0
    3.4089   -8.5116    0.0000 H   0  0  0  0  0  0  0  0  0  0  0  0
    5.8792   -7.7063    0.0000 C   0  0  0  0  0  0  0  0  0  0  0  0
    6.3444   -9.1323    0.0000 H   0  0  0  0  0  0  0  0  0  0  0  0
    6.8819   -6.5896    0.0000 C   0  0  0  0  0  0  0  0  0  0  0  0
    8.3494   -6.8999    0.0000 H   0  0  0  0  0  0  0  0  0  0  0  0
    6.4170   -5.1625    0.0000 C   0  0  0  0  0  0  0  0  0  0  0  0
    7.4197   -4.0469    0.0000 O   0  0  0  0  0  0  0  0  0  0  0  0
    8.8872   -4.3574    0.0000 H   0  0  0  0  0  0  0  0  0  0  0  0
  1  2  1  0  0  0  0 
  1  3  1  0  0  0  0 
  1  4  1  0  0  0  0 
  1  5  1  0  0  0  0 
  5  6  1  0  0  0  0 
  5  7  1  0  0  0  0 
  7  8  2  0  0  0  0 
  7  9  1  0  0  0  0 
  9 10  2  0  0  0  0 
 10 11  1  0  0  0  0 
 11 12  1  0  0  0  0 
 11 13  2  0  0  0  0 
 13 14  1  0  0  0  0 
 13 15  1  0  0  0  0 
 15 16  1  0  0  0  0 
 15 17  2  0  0  0  0 
  9 17  1  0  0  0  0 
 17 18  1  0  0  0  0 
 10 19  1  0  0  0  0 
 19 20  1  0  0  0  0 
 20 21  2  0  0  0  0 
 21 22  1  0  0  0  0 
 21 23  1  0  0  0  0 
 23 24  2  0  0  0  0 
 24 25  1  0  0  0  0 
 25 26  1  0  0  0  0 
 25 27  2  0  0  0  0 
 20 27  1  0  0  0  0 
 27 28  1  0  0  0  0 
 24 29  1  0  0  0  0 
 29 30  2  0  0  0  0 
 30 31  1  0  0  0  0 
 23 31  1  0  0  0  0 
 31 32  1  0  0  0  0 
 29 33  1  0  0  0  0 
 33 34  1  0  0  0  0 
 33 35  2  0  0  0  0 
 35 36  1  0  0  0  0 
 35 37  1  0  0  0  0 
 37 38  2  0  0  0  0 
 38 39  1  0  0  0  0 
 39 40  1  0  0  0  0 
 39 41  2  0  0  0  0 
 41 42  1  0  0  0  0 
 41 43  1  0  0  0  0 
 43 44  1  0  0  0  0 
 43 45  2  0  0  0  0 
 37 45  1  0  0  0  0 
 45 46  1  0  0  0  0 
 46 47  1  0  0  0  0 
M  END
> <Rank>
16

> <Priority_score>
0.128

> <Reaction_type>
aromatic hydroxylation

> <Parent_ID>
36

> <Parent_InChI>
InChI=1S/C22H18N4OS/c1-23-22(27)18-7-2-3-8-21(18)28-16-10-11-17-19(25-26-20(17)14-16)12-9-15-6-4-5-13-24-15/h2-14H,1H3,(H,23,27)(H,25,26)

> <Parent_SMILES>
CNC(=O)c1ccccc1Sc1ccc2c(/C=C/c3ccccn3)n[nH]c2c1

$$$$
Molecule 36_metabolite 17
  CDK     0516241031

 45 48  0  0  0  0  0  0  0  0999 V2000
   -7.5120    5.2491    0.0000 C   0  0  0  0  0  0  0  0  0  0  0  0
   -8.8120    5.9973    0.0000 H   0  0  0  0  0  0  0  0  0  0  0  0
   -6.2139    6.0008    0.0000 H   0  0  0  0  0  0  0  0  0  0  0  0
   -7.5099    3.7491    0.0000 N   0  0  0  0  0  0  0  0  0  0  0  0
   -8.8079    2.9973    0.0000 H   0  0  0  0  0  0  0  0  0  0  0  0
   -6.2099    3.0008    0.0000 C   0  0  0  0  0  0  0  0  0  0  0  0
   -4.9118    3.7526    0.0000 O   0  0  0  0  0  0  0  0  0  0  0  0
   -6.2078    1.5008    0.0000 C   0  0  0  0  0  0  0  0  0  0  0  0
   -4.9081    0.7504    0.0000 C   0  0  0  0  0  0  0  0  0  0  0  0
   -4.9086   -0.7496    0.0000 C   0  0  0  0  0  0  0  0  0  0  0  0
   -3.6099   -1.5002    0.0000 H   0  0  0  0  0  0  0  0  0  0  0  0
   -6.2088   -1.4992    0.0000 C   0  0  0  0  0  0  0  0  0  0  0  0
   -6.2118   -2.9992    0.0000 H   0  0  0  0  0  0  0  0  0  0  0  0
   -7.4986   -0.7488    0.0000 C   0  0  0  0  0  0  0  0  0  0  0  0
   -8.7990   -1.4964    0.0000 H   0  0  0  0  0  0  0  0  0  0  0  0
   -7.4981    0.7512    0.0000 C   0  0  0  0  0  0  0  0  0  0  0  0
   -8.7980    1.4997    0.0000 H   0  0  0  0  0  0  0  0  0  0  0  0
   -3.6089    1.5002    0.0000 S   0  0  0  0  0  0  0  0  0  0  0  0
   -1.4787    0.2699    0.0000 C   0  0  0  0  0  0  0  0  0  0  0  0
   -0.1787    1.0199    0.0000 C   0  0  0  0  0  0  0  0  0  0  0  0
   -0.1787    2.5199    0.0000 H   0  0  0  0  0  0  0  0  0  0  0  0
    1.1213    0.2699    0.0000 C   0  0  0  0  0  0  0  0  0  0  0  0
    1.1213   -1.2301    0.0000 C   0  0  0  0  0  0  0  0  0  0  0  0
   -0.1787   -1.9801    0.0000 C   0  0  0  0  0  0  0  0  0  0  0  0
   -0.1787   -3.4801    0.0000 H   0  0  0  0  0  0  0  0  0  0  0  0
   -1.4787   -1.2301    0.0000 C   0  0  0  0  0  0  0  0  0  0  0  0
   -2.7776   -1.9803    0.0000 H   0  0  0  0  0  0  0  0  0  0  0  0
    2.5513   -1.6901    0.0000 C   0  0  0  0  0  0  0  0  0  0  0  0
    3.4313   -0.4801    0.0000 N   0  0  0  0  0  0  0  0  0  0  0  0
    2.5513    0.7299    0.0000 N   0  0  0  0  0  0  0  0  0  0  0  0
    3.0166    2.1559    0.0000 H   0  0  0  0  0  0  0  0  0  0  0  0
    3.0166   -3.1161    0.0000 C   0  0  0  0  0  0  0  0  0  0  0  0
    2.0143   -4.2321    0.0000 H   0  0  0  0  0  0  0  0  0  0  0  0
    4.4842   -3.4262    0.0000 C   0  0  0  0  0  0  0  0  0  0  0  0
    5.4865   -2.3103    0.0000 H   0  0  0  0  0  0  0  0  0  0  0  0
    4.9495   -4.8522    0.0000 C   0  0  0  0  0  0  0  0  0  0  0  0
    3.9468   -5.9690    0.0000 N   0  0  0  0  0  0  0  0  0  0  0  0
    4.4116   -7.3960    0.0000 C   0  0  0  0  0  0  0  0  0  0  0  0
    3.4089   -8.5116    0.0000 H   0  0  0  0  0  0  0  0  0  0  0  0
    5.8792   -7.7063    0.0000 C   0  0  0  0  0  0  0  0  0  0  0  0
    6.3444   -9.1323    0.0000 H   0  0  0  0  0  0  0  0  0  0  0  0
    6.8819   -6.5896    0.0000 C   0  0  0  0  0  0  0  0  0  0  0  0
    8.3494   -6.8999    0.0000 H   0  0  0  0  0  0  0  0  0  0  0  0
    6.4170   -5.1625    0.0000 C   0  0  0  0  0  0  0  0  0  0  0  0
    7.4197   -4.0469    0.0000 H   0  0  0  0  0  0  0  0  0  0  0  0
  1  2  1  0  0  0  0 
  1  3  1  0  0  0  0 
  1  4  2  0  0  0  0 
  4  5  1  0  0  0  0 
  4  6  1  0  0  0  0 
  6  7  2  0  0  0  0 
  6  8  1  0  0  0  0 
  8  9  2  0  0  0  0 
  9 10  1  0  0  0  0 
 10 11  1  0  0  0  0 
 10 12  2  0  0  0  0 
 12 13  1  0  0  0  0 
 12 14  1  0  0  0  0 
 14 15  1  0  0  0  0 
 14 16  2  0  0  0  0 
  8 16  1  0  0  0  0 
 16 17  1  0  0  0  0 
  9 18  1  0  0  0  0 
 18 19  1  0  0  0  0 
 19 20  2  0  0  0  0 
 20 21  1  0  0  0  0 
 20 22  1  0  0  0  0 
 22 23  2  0  0  0  0 
 23 24  1  0  0  0  0 
 24 25  1  0  0  0  0 
 24 26  2  0  0  0  0 
 19 26  1  0  0  0  0 
 26 27  1  0  0  0  0 
 23 28  1  0  0  0  0 
 28 29  2  0  0  0  0 
 29 30  1  0  0  0  0 
 22 30  1  0  0  0  0 
 30 31  1  0  0  0  0 
 28 32  1  0  0  0  0 
 32 33  1  0  0  0  0 
 32 34  2  0  0  0  0 
 34 35  1  0  0  0  0 
 34 36  1  0  0  0  0 
 36 37  2  0  0  0  0 
 37 38  1  0  0  0  0 
 38 39  1  0  0  0  0 
 38 40  2  0  0  0  0 
 40 41  1  0  0  0  0 
 40 42  1  0  0  0  0 
 42 43  1  0  0  0  0 
 42 44  2  0  0  0  0 
 36 44  1  0  0  0  0 
 44 45  1  0  0  0  0 
M  CHG  1   4   1
M  END
> <Rank>
17

> <Priority_score>
0.09200000000000001

> <Reaction_type>
dehydration of N-C bond

> <Parent_ID>
36

> <Parent_InChI>
InChI=1S/C22H18N4OS/c1-23-22(27)18-7-2-3-8-21(18)28-16-10-11-17-19(25-26-20(17)14-16)12-9-15-6-4-5-13-24-15/h2-14H,1H3,(H,23,27)(H,25,26)

> <Parent_SMILES>
CNC(=O)c1ccccc1Sc1ccc2c(/C=C/c3ccccn3)n[nH]c2c1

$$$$
Molecule 36_metabolite 18
  CDK     0516241031

 47 50  0  0  0  0  0  0  0  0999 V2000
   -7.5120    5.2491    0.0000 C   0  0  0  0  0  0  0  0  0  0  0  0
   -8.8120    5.9973    0.0000 H   0  0  0  0  0  0  0  0  0  0  0  0
   -6.0344    4.9906    0.0000 H   0  0  0  0  0  0  0  0  0  0  0  0
   -7.0008    6.6593    0.0000 H   0  0  0  0  0  0  0  0  0  0  0  0
   -7.5099    3.7491    0.0000 N   0  0  0  0  0  0  0  0  0  0  0  0
   -8.8079    2.9973    0.0000 H   0  0  0  0  0  0  0  0  0  0  0  0
   -6.2099    3.0008    0.0000 C   0  0  0  0  0  0  0  0  0  0  0  0
   -4.9118    3.7526    0.0000 O   0  0  0  0  0  0  0  0  0  0  0  0
   -6.2078    1.5008    0.0000 C   0  0  0  0  0  0  0  0  0  0  0  0
   -4.9081    0.7504    0.0000 C   0  0  0  0  0  0  0  0  0  0  0  0
   -4.9086   -0.7496    0.0000 C   0  0  0  0  0  0  0  0  0  0  0  0
   -3.6099   -1.5002    0.0000 H   0  0  0  0  0  0  0  0  0  0  0  0
   -6.2088   -1.4992    0.0000 C   0  0  0  0  0  0  0  0  0  0  0  0
   -6.2118   -2.9992    0.0000 H   0  0  0  0  0  0  0  0  0  0  0  0
   -7.4986   -0.7488    0.0000 C   0  0  0  0  0  0  0  0  0  0  0  0
   -8.7990   -1.4964    0.0000 H   0  0  0  0  0  0  0  0  0  0  0  0
   -7.4981    0.7512    0.0000 C   0  0  0  0  0  0  0  0  0  0  0  0
   -8.7980    1.4997    0.0000 H   0  0  0  0  0  0  0  0  0  0  0  0
   -3.6089    1.5002    0.0000 S   0  0  0  0  0  0  0  0  0  0  0  0
   -1.4787    0.2699    0.0000 C   0  0  0  0  0  0  0  0  0  0  0  0
   -0.1787    1.0199    0.0000 C   0  0  0  0  0  0  0  0  0  0  0  0
    1.1213    0.2699    0.0000 C   0  0  0  0  0  0  0  0  0  0  0  0
    1.1213   -1.2301    0.0000 C   0  0  0  0  0  0  0  0  0  0  0  0
   -0.1787   -1.9801    0.0000 C   0  0  0  0  0  0  0  0  0  0  0  0
   -0.1787   -3.4801    0.0000 H   0  0  0  0  0  0  0  0  0  0  0  0
   -1.4787   -1.2301    0.0000 C   0  0  0  0  0  0  0  0  0  0  0  0
   -2.7776   -1.9803    0.0000 H   0  0  0  0  0  0  0  0  0  0  0  0
    2.5513   -1.6901    0.0000 C   0  0  0  0  0  0  0  0  0  0  0  0
    3.4313   -0.4801    0.0000 N   0  0  0  0  0  0  0  0  0  0  0  0
    2.5513    0.7299    0.0000 N   0  0  0  0  0  0  0  0  0  0  0  0
    3.0166    2.1559    0.0000 H   0  0  0  0  0  0  0  0  0  0  0  0
    3.0166   -3.1161    0.0000 C   0  0  0  0  0  0  0  0  0  0  0  0
    2.0143   -4.2321    0.0000 H   0  0  0  0  0  0  0  0  0  0  0  0
    4.4842   -3.4262    0.0000 C   0  0  0  0  0  0  0  0  0  0  0  0
    5.4865   -2.3103    0.0000 H   0  0  0  0  0  0  0  0  0  0  0  0
    4.9495   -4.8522    0.0000 C   0  0  0  0  0  0  0  0  0  0  0  0
    3.9468   -5.9690    0.0000 N   0  0  0  0  0  0  0  0  0  0  0  0
    4.4116   -7.3960    0.0000 C   0  0  0  0  0  0  0  0  0  0  0  0
    3.4089   -8.5116    0.0000 H   0  0  0  0  0  0  0  0  0  0  0  0
    5.8792   -7.7063    0.0000 C   0  0  0  0  0  0  0  0  0  0  0  0
    6.3444   -9.1323    0.0000 H   0  0  0  0  0  0  0  0  0  0  0  0
    6.8819   -6.5896    0.0000 C   0  0  0  0  0  0  0  0  0  0  0  0
    8.3494   -6.8999    0.0000 H   0  0  0  0  0  0  0  0  0  0  0  0
    6.4170   -5.1625    0.0000 C   0  0  0  0  0  0  0  0  0  0  0  0
    7.4197   -4.0469    0.0000 H   0  0  0  0  0  0  0  0  0  0  0  0
   -0.1787    2.5199    0.0000 O   0  0  0  0  0  0  0  0  0  0  0  0
    1.1203    3.2699    0.0000 H   0  0  0  0  0  0  0  0  0  0  0  0
  1  2  1  0  0  0  0 
  1  3  1  0  0  0  0 
  1  4  1  0  0  0  0 
  1  5  1  0  0  0  0 
  5  6  1  0  0  0  0 
  5  7  1  0  0  0  0 
  7  8  2  0  0  0  0 
  7  9  1  0  0  0  0 
  9 10  2  0  0  0  0 
 10 11  1  0  0  0  0 
 11 12  1  0  0  0  0 
 11 13  2  0  0  0  0 
 13 14  1  0  0  0  0 
 13 15  1  0  0  0  0 
 15 16  1  0  0  0  0 
 15 17  2  0  0  0  0 
  9 17  1  0  0  0  0 
 17 18  1  0  0  0  0 
 10 19  1  0  0  0  0 
 19 20  1  0  0  0  0 
 20 21  2  0  0  0  0 
 21 22  1  0  0  0  0 
 22 23  2  0  0  0  0 
 23 24  1  0  0  0  0 
 24 25  1  0  0  0  0 
 24 26  2  0  0  0  0 
 20 26  1  0  0  0  0 
 26 27  1  0  0  0  0 
 23 28  1  0  0  0  0 
 28 29  2  0  0  0  0 
 29 30  1  0  0  0  0 
 22 30  1  0  0  0  0 
 30 31  1  0  0  0  0 
 28 32  1  0  0  0  0 
 32 33  1  0  0  0  0 
 32 34  2  0  0  0  0 
 34 35  1  0  0  0  0 
 34 36  1  0  0  0  0 
 36 37  2  0  0  0  0 
 37 38  1  0  0  0  0 
 38 39  1  0  0  0  0 
 38 40  2  0  0  0  0 
 40 41  1  0  0  0  0 
 40 42  1  0  0  0  0 
 42 43  1  0  0  0  0 
 42 44  2  0  0  0  0 
 36 44  1  0  0  0  0 
 44 45  1  0  0  0  0 
 21 46  1  0  0  0  0 
 46 47  1  0  0  0  0 
M  END
> <Rank>
18

> <Priority_score>
0.084

> <Reaction_type>
aromatic_hydroxylation_(ortho_to_nitrogen)

> <Parent_ID>
36

> <Parent_InChI>
InChI=1S/C22H18N4OS/c1-23-22(27)18-7-2-3-8-21(18)28-16-10-11-17-19(25-26-20(17)14-16)12-9-15-6-4-5-13-24-15/h2-14H,1H3,(H,23,27)(H,25,26)

> <Parent_SMILES>
CNC(=O)c1ccccc1Sc1ccc2c(/C=C/c3ccccn3)n[nH]c2c1

$$$$
Molecule 36_metabolite 19
  CDK     0516241031

 47 50  0  0  0  0  0  0  0  0999 V2000
   -7.5120    5.2491    0.0000 C   0  0  0  0  0  0  0  0  0  0  0  0
   -8.8120    5.9973    0.0000 H   0  0  0  0  0  0  0  0  0  0  0  0
   -6.0344    4.9906    0.0000 H   0  0  0  0  0  0  0  0  0  0  0  0
   -7.0008    6.6593    0.0000 H   0  0  0  0  0  0  0  0  0  0  0  0
   -7.5099    3.7491    0.0000 N   0  0  0  0  0  0  0  0  0  0  0  0
   -8.8079    2.9973    0.0000 H   0  0  0  0  0  0  0  0  0  0  0  0
   -6.2099    3.0008    0.0000 C   0  0  0  0  0  0  0  0  0  0  0  0
   -4.9118    3.7526    0.0000 O   0  0  0  0  0  0  0  0  0  0  0  0
   -6.2078    1.5008    0.0000 C   0  0  0  0  0  0  0  0  0  0  0  0
   -4.9081    0.7504    0.0000 C   0  0  0  0  0  0  0  0  0  0  0  0
   -4.9086   -0.7496    0.0000 C   0  0  0  0  0  0  0  0  0  0  0  0
   -3.6099   -1.5002    0.0000 H   0  0  0  0  0  0  0  0  0  0  0  0
   -6.2088   -1.4992    0.0000 C   0  0  0  0  0  0  0  0  0  0  0  0
   -6.2118   -2.9992    0.0000 H   0  0  0  0  0  0  0  0  0  0  0  0
   -7.4986   -0.7488    0.0000 C   0  0  0  0  0  0  0  0  0  0  0  0
   -8.7990   -1.4964    0.0000 H   0  0  0  0  0  0  0  0  0  0  0  0
   -7.4981    0.7512    0.0000 C   0  0  0  0  0  0  0  0  0  0  0  0
   -8.7980    1.4997    0.0000 H   0  0  0  0  0  0  0  0  0  0  0  0
   -3.6089    1.5002    0.0000 S   0  0  0  0  0  0  0  0  0  0  0  0
   -1.4787    0.2699    0.0000 C   0  0  0  0  0  0  0  0  0  0  0  0
   -0.1787    1.0199    0.0000 C   0  0  0  0  0  0  0  0  0  0  0  0
   -0.1787    2.5199    0.0000 H   0  0  0  0  0  0  0  0  0  0  0  0
    1.1213    0.2699    0.0000 C   0  0  0  0  0  0  0  0  0  0  0  0
    1.1213   -1.2301    0.0000 C   0  0  0  0  0  0  0  0  0  0  0  0
   -0.1787   -1.9801    0.0000 C   0  0  0  0  0  0  0  0  0  0  0  0
   -0.1787   -3.4801    0.0000 H   0  0  0  0  0  0  0  0  0  0  0  0
   -1.4787   -1.2301    0.0000 C   0  0  0  0  0  0  0  0  0  0  0  0
   -2.7776   -1.9803    0.0000 O   0  0  0  0  0  0  0  0  0  0  0  0
   -2.7774   -3.4803    0.0000 H   0  0  0  0  0  0  0  0  0  0  0  0
    2.5513   -1.6901    0.0000 C   0  0  0  0  0  0  0  0  0  0  0  0
    3.4313   -0.4801    0.0000 N   0  0  0  0  0  0  0  0  0  0  0  0
    2.5513    0.7299    0.0000 N   0  0  0  0  0  0  0  0  0  0  0  0
    3.0166    2.1559    0.0000 H   0  0  0  0  0  0  0  0  0  0  0  0
    3.0166   -3.1161    0.0000 C   0  0  0  0  0  0  0  0  0  0  0  0
    2.0143   -4.2321    0.0000 H   0  0  0  0  0  0  0  0  0  0  0  0
    4.4842   -3.4262    0.0000 C   0  0  0  0  0  0  0  0  0  0  0  0
    5.4865   -2.3103    0.0000 H   0  0  0  0  0  0  0  0  0  0  0  0
    4.9495   -4.8522    0.0000 C   0  0  0  0  0  0  0  0  0  0  0  0
    3.9468   -5.9690    0.0000 N   0  0  0  0  0  0  0  0  0  0  0  0
    4.4116   -7.3960    0.0000 C   0  0  0  0  0  0  0  0  0  0  0  0
    3.4089   -8.5116    0.0000 H   0  0  0  0  0  0  0  0  0  0  0  0
    5.8792   -7.7063    0.0000 C   0  0  0  0  0  0  0  0  0  0  0  0
    6.3444   -9.1323    0.0000 H   0  0  0  0  0  0  0  0  0  0  0  0
    6.8819   -6.5896    0.0000 C   0  0  0  0  0  0  0  0  0  0  0  0
    8.3494   -6.8999    0.0000 H   0  0  0  0  0  0  0  0  0  0  0  0
    6.4170   -5.1625    0.0000 C   0  0  0  0  0  0  0  0  0  0  0  0
    7.4197   -4.0469    0.0000 H   0  0  0  0  0  0  0  0  0  0  0  0
  1  2  1  0  0  0  0 
  1  3  1  0  0  0  0 
  1  4  1  0  0  0  0 
  1  5  1  0  0  0  0 
  5  6  1  0  0  0  0 
  5  7  1  0  0  0  0 
  7  8  2  0  0  0  0 
  7  9  1  0  0  0  0 
  9 10  2  0  0  0  0 
 10 11  1  0  0  0  0 
 11 12  1  0  0  0  0 
 11 13  2  0  0  0  0 
 13 14  1  0  0  0  0 
 13 15  1  0  0  0  0 
 15 16  1  0  0  0  0 
 15 17  2  0  0  0  0 
  9 17  1  0  0  0  0 
 17 18  1  0  0  0  0 
 10 19  1  0  0  0  0 
 19 20  1  0  0  0  0 
 20 21  2  0  0  0  0 
 21 22  1  0  0  0  0 
 21 23  1  0  0  0  0 
 23 24  2  0  0  0  0 
 24 25  1  0  0  0  0 
 25 26  1  0  0  0  0 
 25 27  2  0  0  0  0 
 20 27  1  0  0  0  0 
 27 28  1  0  0  0  0 
 28 29  1  0  0  0  0 
 24 30  1  0  0  0  0 
 30 31  2  0  0  0  0 
 31 32  1  0  0  0  0 
 23 32  1  0  0  0  0 
 32 33  1  0  0  0  0 
 30 34  1  0  0  0  0 
 34 35  1  0  0  0  0 
 34 36  2  0  0  0  0 
 36 37  1  0  0  0  0 
 36 38  1  0  0  0  0 
 38 39  2  0  0  0  0 
 39 40  1  0  0  0  0 
 40 41  1  0  0  0  0 
 40 42  2  0  0  0  0 
 42 43  1  0  0  0  0 
 42 44  1  0  0  0  0 
 44 45  1  0  0  0  0 
 44 46  2  0  0  0  0 
 38 46  1  0  0  0  0 
 46 47  1  0  0  0  0 
M  END
> <Rank>
18

> <Priority_score>
0.084

> <Reaction_type>
aromatic_hydroxylation_(para_to_nitrogen)

> <Parent_ID>
36

> <Parent_InChI>
InChI=1S/C22H18N4OS/c1-23-22(27)18-7-2-3-8-21(18)28-16-10-11-17-19(25-26-20(17)14-16)12-9-15-6-4-5-13-24-15/h2-14H,1H3,(H,23,27)(H,25,26)

> <Parent_SMILES>
CNC(=O)c1ccccc1Sc1ccc2c(/C=C/c3ccccn3)n[nH]c2c1

$$$$
Molecule 36_metabolite 20
  CDK     0516241031

 47 50  0  0  0  0  0  0  0  0999 V2000
   -7.5120    5.2491    0.0000 C   0  0  0  0  0  0  0  0  0  0  0  0
   -8.8120    5.9973    0.0000 H   0  0  0  0  0  0  0  0  0  0  0  0
   -6.0344    4.9906    0.0000 H   0  0  0  0  0  0  0  0  0  0  0  0
   -7.0008    6.6593    0.0000 H   0  0  0  0  0  0  0  0  0  0  0  0
   -7.5099    3.7491    0.0000 N   0  0  0  0  0  0  0  0  0  0  0  0
   -8.8079    2.9973    0.0000 H   0  0  0  0  0  0  0  0  0  0  0  0
   -6.2099    3.0008    0.0000 C   0  0  0  0  0  0  0  0  0  0  0  0
   -4.9118    3.7526    0.0000 O   0  0  0  0  0  0  0  0  0  0  0  0
   -6.2078    1.5008    0.0000 C   0  0  0  0  0  0  0  0  0  0  0  0
   -4.9081    0.7504    0.0000 C   0  0  0  0  0  0  0  0  0  0  0  0
   -4.9086   -0.7496    0.0000 C   0  0  0  0  0  0  0  0  0  0  0  0
   -3.6099   -1.5002    0.0000 H   0  0  0  0  0  0  0  0  0  0  0  0
   -6.2088   -1.4992    0.0000 C   0  0  0  0  0  0  0  0  0  0  0  0
   -6.2118   -2.9992    0.0000 H   0  0  0  0  0  0  0  0  0  0  0  0
   -7.4986   -0.7488    0.0000 C   0  0  0  0  0  0  0  0  0  0  0  0
   -8.7990   -1.4964    0.0000 H   0  0  0  0  0  0  0  0  0  0  0  0
   -7.4981    0.7512    0.0000 C   0  0  0  0  0  0  0  0  0  0  0  0
   -8.7980    1.4997    0.0000 H   0  0  0  0  0  0  0  0  0  0  0  0
   -3.6089    1.5002    0.0000 S   0  0  0  0  0  0  0  0  0  0  0  0
   -1.4787    0.2699    0.0000 C   0  0  0  0  0  0  0  0  0  0  0  0
   -0.1787    1.0199    0.0000 C   0  0  0  0  0  0  0  0  0  0  0  0
   -0.1787    2.5199    0.0000 H   0  0  0  0  0  0  0  0  0  0  0  0
    1.1213    0.2699    0.0000 C   0  0  0  0  0  0  0  0  0  0  0  0
    1.1213   -1.2301    0.0000 C   0  0  0  0  0  0  0  0  0  0  0  0
   -0.1787   -1.9801    0.0000 C   0  0  0  0  0  0  0  0  0  0  0  0
   -0.1787   -3.4801    0.0000 H   0  0  0  0  0  0  0  0  0  0  0  0
   -1.4787   -1.2301    0.0000 C   0  0  0  0  0  0  0  0  0  0  0  0
   -2.7776   -1.9803    0.0000 H   0  0  0  0  0  0  0  0  0  0  0  0
    2.5513   -1.6901    0.0000 C   0  0  0  0  0  0  0  0  0  0  0  0
    3.4313   -0.4801    0.0000 N   0  0  0  0  0  0  0  0  0  0  0  0
    2.5513    0.7299    0.0000 N   0  0  0  0  0  0  0  0  0  0  0  0
    3.0166    2.1559    0.0000 H   0  0  0  0  0  0  0  0  0  0  0  0
    4.9313   -0.4801    0.0000 O   0  0  0  0  0  0  0  0  0  0  0  0
    3.0166   -3.1161    0.0000 C   0  0  0  0  0  0  0  0  0  0  0  0
    2.0143   -4.2321    0.0000 H   0  0  0  0  0  0  0  0  0  0  0  0
    4.4842   -3.4262    0.0000 C   0  0  0  0  0  0  0  0  0  0  0  0
    5.4865   -2.3103    0.0000 H   0  0  0  0  0  0  0  0  0  0  0  0
    4.9495   -4.8522    0.0000 C   0  0  0  0  0  0  0  0  0  0  0  0
    3.9468   -5.9690    0.0000 N   0  0  0  0  0  0  0  0  0  0  0  0
    4.4116   -7.3960    0.0000 C   0  0  0  0  0  0  0  0  0  0  0  0
    3.4089   -8.5116    0.0000 H   0  0  0  0  0  0  0  0  0  0  0  0
    5.8792   -7.7063    0.0000 C   0  0  0  0  0  0  0  0  0  0  0  0
    6.3444   -9.1323    0.0000 H   0  0  0  0  0  0  0  0  0  0  0  0
    6.8819   -6.5896    0.0000 C   0  0  0  0  0  0  0  0  0  0  0  0
    8.3494   -6.8999    0.0000 H   0  0  0  0  0  0  0  0  0  0  0  0
    6.4170   -5.1625    0.0000 C   0  0  0  0  0  0  0  0  0  0  0  0
    7.4197   -4.0469    0.0000 H   0  0  0  0  0  0  0  0  0  0  0  0
  1  2  1  0  0  0  0 
  1  3  1  0  0  0  0 
  1  4  1  0  0  0  0 
  1  5  1  0  0  0  0 
  5  6  1  0  0  0  0 
  5  7  1  0  0  0  0 
  7  8  2  0  0  0  0 
  7  9  1  0  0  0  0 
  9 10  2  0  0  0  0 
 10 11  1  0  0  0  0 
 11 12  1  0  0  0  0 
 11 13  2  0  0  0  0 
 13 14  1  0  0  0  0 
 13 15  1  0  0  0  0 
 15 16  1  0  0  0  0 
 15 17  2  0  0  0  0 
  9 17  1  0  0  0  0 
 17 18  1  0  0  0  0 
 10 19  1  0  0  0  0 
 19 20  1  0  0  0  0 
 20 21  2  0  0  0  0 
 21 22  1  0  0  0  0 
 21 23  1  0  0  0  0 
 23 24  2  0  0  0  0 
 24 25  1  0  0  0  0 
 25 26  1  0  0  0  0 
 25 27  2  0  0  0  0 
 20 27  1  0  0  0  0 
 27 28  1  0  0  0  0 
 24 29  1  0  0  0  0 
 29 30  2  0  0  0  0 
 30 31  1  0  0  0  0 
 23 31  1  0  0  0  0 
 31 32  1  0  0  0  0 
 30 33  1  0  0  0  0 
 29 34  1  0  0  0  0 
 34 35  1  0  0  0  0 
 34 36  2  0  0  0  0 
 36 37  1  0  0  0  0 
 36 38  1  0  0  0  0 
 38 39  2  0  0  0  0 
 39 40  1  0  0  0  0 
 40 41  1  0  0  0  0 
 40 42  2  0  0  0  0 
 42 43  1  0  0  0  0 
 42 44  1  0  0  0  0 
 44 45  1  0  0  0  0 
 44 46  2  0  0  0  0 
 38 46  1  0  0  0  0 
 46 47  1  0  0  0  0 
M  CHG  1  30   1
M  CHG  1  33  -1
M  END
> <Rank>
20

> <Priority_score>
0.06

> <Reaction_type>
N-oxidation

> <Parent_ID>
36

> <Parent_InChI>
InChI=1S/C22H18N4OS/c1-23-22(27)18-7-2-3-8-21(18)28-16-10-11-17-19(25-26-20(17)14-16)12-9-15-6-4-5-13-24-15/h2-14H,1H3,(H,23,27)(H,25,26)

> <Parent_SMILES>
CNC(=O)c1ccccc1Sc1ccc2c(/C=C/c3ccccn3)n[nH]c2c1

$$$$
Molecule 36_metabolite 21
  CDK     0516241031

 67 71  0  0  0  0  0  0  0  0999 V2000
   -7.5120    5.2491    0.0000 C   0  0  0  0  0  0  0  0  0  0  0  0
   -8.8120    5.9973    0.0000 H   0  0  0  0  0  0  0  0  0  0  0  0
   -6.0344    4.9906    0.0000 H   0  0  0  0  0  0  0  0  0  0  0  0
   -7.0008    6.6593    0.0000 H   0  0  0  0  0  0  0  0  0  0  0  0
   -7.5099    3.7491    0.0000 N   0  0  0  0  0  0  0  0  0  0  0  0
   -8.8079    2.9973    0.0000 H   0  0  0  0  0  0  0  0  0  0  0  0
   -6.2099    3.0008    0.0000 C   0  0  0  0  0  0  0  0  0  0  0  0
   -4.9118    3.7526    0.0000 O   0  0  0  0  0  0  0  0  0  0  0  0
   -6.2078    1.5008    0.0000 C   0  0  0  0  0  0  0  0  0  0  0  0
   -4.9081    0.7504    0.0000 C   0  0  0  0  0  0  0  0  0  0  0  0
   -4.9086   -0.7496    0.0000 C   0  0  0  0  0  0  0  0  0  0  0  0
   -3.6099   -1.5002    0.0000 H   0  0  0  0  0  0  0  0  0  0  0  0
   -6.2088   -1.4992    0.0000 C   0  0  0  0  0  0  0  0  0  0  0  0
   -6.2118   -2.9992    0.0000 H   0  0  0  0  0  0  0  0  0  0  0  0
   -7.4986   -0.7488    0.0000 C   0  0  0  0  0  0  0  0  0  0  0  0
   -8.7990   -1.4964    0.0000 H   0  0  0  0  0  0  0  0  0  0  0  0
   -7.4981    0.7512    0.0000 C   0  0  0  0  0  0  0  0  0  0  0  0
   -8.7980    1.4997    0.0000 H   0  0  0  0  0  0  0  0  0  0  0  0
   -3.6089    1.5002    0.0000 S   0  0  0  0  0  0  0  0  0  0  0  0
   -1.4787    0.2699    0.0000 C   0  0  0  0  0  0  0  0  0  0  0  0
   -0.1787    1.0199    0.0000 C   0  0  0  0  0  0  0  0  0  0  0  0
   -0.1787    2.5199    0.0000 H   0  0  0  0  0  0  0  0  0  0  0  0
    1.1213    0.2699    0.0000 C   0  0  0  0  0  0  0  0  0  0  0  0
    1.1213   -1.2301    0.0000 C   0  0  0  0  0  0  0  0  0  0  0  0
   -0.1787   -1.9801    0.0000 C   0  0  0  0  0  0  0  0  0  0  0  0
   -0.1787   -3.4801    0.0000 H   0  0  0  0  0  0  0  0  0  0  0  0
   -1.4787   -1.2301    0.0000 C   0  0  0  0  0  0  0  0  0  0  0  0
   -2.7776   -1.9803    0.0000 H   0  0  0  0  0  0  0  0  0  0  0  0
    2.5513   -1.6901    0.0000 C   0  0  0  0  0  0  0  0  0  0  0  0
    3.4313   -0.4801    0.0000 N   0  0  0  0  0  0  0  0  0  0  0  0
    5.4113   -0.4801    0.0000 C   0  0  0  0  0  0  0  0  0  0  0  0
    5.1510   -1.9574    0.0000 H   0  0  0  0  0  0  0  0  0  0  0  0
    6.8210   -0.9929    0.0000 C   0  0  0  0  0  0  0  0  0  0  0  0
    6.0714   -2.2921    0.0000 H   0  0  0  0  0  0  0  0  0  0  0  0
    7.9701   -0.0275    0.0000 C   0  0  0  0  0  0  0  0  0  0  0  0
    8.7206   -1.3263    0.0000 H   0  0  0  0  0  0  0  0  0  0  0  0
    7.7097    1.4505    0.0000 C   0  0  0  0  0  0  0  0  0  0  0  0
    9.2097    1.4505    0.0000 H   0  0  0  0  0  0  0  0  0  0  0  0
    6.3000    1.9633    0.0000 C   0  0  0  0  0  0  0  0  0  0  0  0
    7.0496    3.2625    0.0000 H   0  0  0  0  0  0  0  0  0  0  0  0
    5.1506    2.9269    0.0000 C   0  0  0  0  0  0  0  0  0  0  0  0
    3.7412    2.4133    0.0000 O   0  0  0  0  0  0  0  0  0  0  0  0
    5.4104    4.4043    0.0000 O   0  0  0  0  0  0  0  0  0  0  0  0
    6.8197    4.9179    0.0000 H   0  0  0  0  0  0  0  0  0  0  0  0
    5.1508    0.9979    0.0000 O   0  0  0  0  0  0  0  0  0  0  0  0
    7.9700    2.9278    0.0000 O   0  0  0  0  0  0  0  0  0  0  0  0
    9.3795    3.4409    0.0000 H   0  0  0  0  0  0  0  0  0  0  0  0
    9.3796    0.4856    0.0000 O   0  0  0  0  0  0  0  0  0  0  0  0
   10.5288   -0.4784    0.0000 H   0  0  0  0  0  0  0  0  0  0  0  0
    7.9704   -1.9566    0.0000 O   0  0  0  0  0  0  0  0  0  0  0  0
    7.7106   -3.4339    0.0000 H   0  0  0  0  0  0  0  0  0  0  0  0
    2.5513    0.7299    0.0000 N   0  0  0  0  0  0  0  0  0  0  0  0
    3.0166    2.1559    0.0000 H   0  0  0  0  0  0  0  0  0  0  0  0
    3.0166   -3.1161    0.0000 C   0  0  0  0  0  0  0  0  0  0  0  0
    4.4842   -3.4262    0.0000 H   0  0  0  0  0  0  0  0  0  0  0  0
    2.0143   -4.2321    0.0000 C   0  0  0  0  0  0  0  0  0  0  0  0
    0.5467   -3.9220    0.0000 H   0  0  0  0  0  0  0  0  0  0  0  0
    2.4795   -5.6581    0.0000 C   0  0  0  0  0  0  0  0  0  0  0  0
    3.9479   -5.9686    0.0000 N   0  0  0  0  0  0  0  0  0  0  0  0
    4.4141   -7.3952    0.0000 C   0  0  0  0  0  0  0  0  0  0  0  0
    5.8818   -7.7048    0.0000 H   0  0  0  0  0  0  0  0  0  0  0  0
    3.4120   -8.5113    0.0000 C   0  0  0  0  0  0  0  0  0  0  0  0
    3.8773   -9.9373    0.0000 H   0  0  0  0  0  0  0  0  0  0  0  0
    1.9436   -8.2008    0.0000 C   0  0  0  0  0  0  0  0  0  0  0  0
    0.9415   -9.3169    0.0000 H   0  0  0  0  0  0  0  0  0  0  0  0
    1.4774   -6.7742    0.0000 C   0  0  0  0  0  0  0  0  0  0  0  0
    0.0097   -6.4646    0.0000 H   0  0  0  0  0  0  0  0  0  0  0  0
  1  2  1  0  0  0  0 
  1  3  1  0  0  0  0 
  1  4  1  0  0  0  0 
  1  5  1  0  0  0  0 
  5  6  1  0  0  0  0 
  5  7  1  0  0  0  0 
  7  8  2  0  0  0  0 
  7  9  1  0  0  0  0 
  9 10  2  0  0  0  0 
 10 11  1  0  0  0  0 
 11 12  1  0  0  0  0 
 11 13  2  0  0  0  0 
 13 14  1  0  0  0  0 
 13 15  1  0  0  0  0 
 15 16  1  0  0  0  0 
 15 17  2  0  0  0  0 
  9 17  1  0  0  0  0 
 17 18  1  0  0  0  0 
 10 19  1  0  0  0  0 
 19 20  1  0  0  0  0 
 20 21  2  0  0  0  0 
 21 22  1  0  0  0  0 
 21 23  1  0  0  0  0 
 23 24  2  0  0  0  0 
 24 25  1  0  0  0  0 
 25 26  1  0  0  0  0 
 25 27  2  0  0  0  0 
 20 27  1  0  0  0  0 
 27 28  1  0  0  0  0 
 24 29  1  0  0  0  0 
 29 30  2  0  0  0  0 
 30 31  1  0  0  0  0 
 31 32  1  0  0  0  0 
 31 33  1  0  0  0  0 
 33 34  1  0  0  0  0 
 33 35  1  0  0  0  0 
 35 36  1  0  0  0  0 
 35 37  1  0  0  0  0 
 37 38  1  0  0  0  0 
 37 39  1  0  0  0  0 
 39 40  1  0  0  0  0 
 39 41  1  0  0  0  0 
 41 42  2  0  0  0  0 
 41 43  1  0  0  0  0 
 43 44  1  0  0  0  0 
 39 45  1  0  0  0  0 
 31 45  1  0  0  0  0 
 37 46  1  0  0  0  0 
 46 47  1  0  0  0  0 
 35 48  1  0  0  0  0 
 48 49  1  0  0  0  0 
 33 50  1  0  0  0  0 
 50 51  1  0  0  0  0 
 30 52  1  0  0  0  0 
 23 52  1  0  0  0  0 
 52 53  1  0  0  0  0 
 29 54  1  0  0  0  0 
 54 55  1  0  0  0  0 
 54 56  2  0  0  0  0 
 56 57  1  0  0  0  0 
 56 58  1  0  0  0  0 
 58 59  2  0  0  0  0 
 59 60  1  0  0  0  0 
 60 61  1  0  0  0  0 
 60 62  2  0  0  0  0 
 62 63  1  0  0  0  0 
 62 64  1  0  0  0  0 
 64 65  1  0  0  0  0 
 64 66  2  0  0  0  0 
 58 66  1  0  0  0  0 
 66 67  1  0  0  0  0 
M  CHG  1  30   1
M  END
> <Rank>
20

> <Priority_score>
0.06

> <Reaction_type>
N-glucuronidation_(aromatic_=n-)

> <Parent_ID>
36

> <Parent_InChI>
InChI=1S/C22H18N4OS/c1-23-22(27)18-7-2-3-8-21(18)28-16-10-11-17-19(25-26-20(17)14-16)12-9-15-6-4-5-13-24-15/h2-14H,1H3,(H,23,27)(H,25,26)

> <Parent_SMILES>
CNC(=O)c1ccccc1Sc1ccc2c(/C=C/c3ccccn3)n[nH]c2c1

$$$$
Molecule 36_metabolite 22
  CDK     0516241031

 67 71  0  0  0  0  0  0  0  0999 V2000
   17.3014  -16.6107    0.0000 C   0  0  0  0  0  0  0  0  0  0  0  0
   18.1807  -17.8259    0.0000 H   0  0  0  0  0  0  0  0  0  0  0  0
   16.8907  -15.1680    0.0000 H   0  0  0  0  0  0  0  0  0  0  0  0
   18.6508  -15.9557    0.0000 H   0  0  0  0  0  0  0  0  0  0  0  0
   15.8093  -16.7646    0.0000 N   0  0  0  0  0  0  0  0  0  0  0  0
   15.1966  -18.1338    0.0000 H   0  0  0  0  0  0  0  0  0  0  0  0
   14.9300  -15.5494    0.0000 C   0  0  0  0  0  0  0  0  0  0  0  0
   15.5427  -14.1803    0.0000 O   0  0  0  0  0  0  0  0  0  0  0  0
   13.4379  -15.7033    0.0000 C   0  0  0  0  0  0  0  0  0  0  0  0
   12.5564  -14.4886    0.0000 C   0  0  0  0  0  0  0  0  0  0  0  0
   11.0646  -14.6450    0.0000 C   0  0  0  0  0  0  0  0  0  0  0  0
   10.1830  -13.4314    0.0000 H   0  0  0  0  0  0  0  0  0  0  0  0
   10.4542  -16.0162    0.0000 C   0  0  0  0  0  0  0  0  0  0  0  0
    8.9627  -16.1751    0.0000 H   0  0  0  0  0  0  0  0  0  0  0  0
   11.3347  -17.2209    0.0000 C   0  0  0  0  0  0  0  0  0  0  0  0
   10.7263  -18.5920    0.0000 H   0  0  0  0  0  0  0  0  0  0  0  0
   12.8265  -17.0645    0.0000 C   0  0  0  0  0  0  0  0  0  0  0  0
   13.7060  -18.2796    0.0000 H   0  0  0  0  0  0  0  0  0  0  0  0
   13.1671  -13.1186    0.0000 S   0  0  0  0  0  0  0  0  0  0  0  0
   11.7219  -11.1278    0.0000 C   0  0  0  0  0  0  0  0  0  0  0  0
   12.3327   -9.7569    0.0000 C   0  0  0  0  0  0  0  0  0  0  0  0
   13.8246   -9.6009    0.0000 H   0  0  0  0  0  0  0  0  0  0  0  0
   11.4516   -8.5419    0.0000 C   0  0  0  0  0  0  0  0  0  0  0  0
    9.9598   -8.6978    0.0000 C   0  0  0  0  0  0  0  0  0  0  0  0
    9.3490  -10.0687    0.0000 C   0  0  0  0  0  0  0  0  0  0  0  0
    7.8571  -10.2247    0.0000 H   0  0  0  0  0  0  0  0  0  0  0  0
   10.2301  -11.2837    0.0000 C   0  0  0  0  0  0  0  0  0  0  0  0
    9.6190  -12.6536    0.0000 H   0  0  0  0  0  0  0  0  0  0  0  0
    9.3536   -7.3234    0.0000 C   0  0  0  0  0  0  0  0  0  0  0  0
   10.4656   -6.3224    0.0000 N   0  0  0  0  0  0  0  0  0  0  0  0
   11.7605   -7.0718    0.0000 N   0  0  0  0  0  0  0  0  0  0  0  0
   13.1304   -6.4608    0.0000 H   0  0  0  0  0  0  0  0  0  0  0  0
    7.8869   -7.0089    0.0000 C   0  0  0  0  0  0  0  0  0  0  0  0
    6.8812   -8.1218    0.0000 H   0  0  0  0  0  0  0  0  0  0  0  0
    7.4260   -5.5815    0.0000 C   0  0  0  0  0  0  0  0  0  0  0  0
    8.4317   -4.4685    0.0000 H   0  0  0  0  0  0  0  0  0  0  0  0
    5.9593   -5.2669    0.0000 C   0  0  0  0  0  0  0  0  0  0  0  0
    5.4979   -3.8388    0.0000 N   0  0  0  0  0  0  0  0  0  0  0  0
    4.0380   -3.5301    0.0000 C   0  0  0  0  0  0  0  0  0  0  0  0
    3.5751   -2.1033    0.0000 H   0  0  0  0  0  0  0  0  0  0  0  0
    3.0321   -4.6429    0.0000 C   0  0  0  0  0  0  0  0  0  0  0  0
    1.5660   -4.3259    0.0000 H   0  0  0  0  0  0  0  0  0  0  0  0
    3.4861   -6.0643    0.0000 C   0  0  0  0  0  0  0  0  0  0  0  0
    2.4784   -7.1754    0.0000 H   0  0  0  0  0  0  0  0  0  0  0  0
    4.9535   -6.3797    0.0000 C   0  0  0  0  0  0  0  0  0  0  0  0
    5.4140   -7.8073    0.0000 H   0  0  0  0  0  0  0  0  0  0  0  0
    6.5019   -2.7244    0.0000 C   0  0  0  0  0  0  0  0  0  0  0  0
    7.4252   -3.9066    0.0000 H   0  0  0  0  0  0  0  0  0  0  0  0
    7.8264   -2.0203    0.0000 C   0  0  0  0  0  0  0  0  0  0  0  0
    8.2900   -3.4468    0.0000 H   0  0  0  0  0  0  0  0  0  0  0  0
    7.8784   -0.5203    0.0000 C   0  0  0  0  0  0  0  0  0  0  0  0
    9.3456   -0.8321    0.0000 H   0  0  0  0  0  0  0  0  0  0  0  0
    6.6059    0.2755    0.0000 C   0  0  0  0  0  0  0  0  0  0  0  0
    7.6099    1.3899    0.0000 H   0  0  0  0  0  0  0  0  0  0  0  0
    5.2814   -0.4286    0.0000 C   0  0  0  0  0  0  0  0  0  0  0  0
    4.8179    0.9979    0.0000 H   0  0  0  0  0  0  0  0  0  0  0  0
    3.3208   -0.7045    0.0000 C   0  0  0  0  0  0  0  0  0  0  0  0
    2.7590   -2.0953    0.0000 O   0  0  0  0  0  0  0  0  0  0  0  0
    2.3971    0.4774    0.0000 O   0  0  0  0  0  0  0  0  0  0  0  0
    2.9588    1.8683    0.0000 H   0  0  0  0  0  0  0  0  0  0  0  0
    5.2294   -1.9286    0.0000 O   0  0  0  0  0  0  0  0  0  0  0  0
    5.6826    1.4577    0.0000 O   0  0  0  0  0  0  0  0  0  0  0  0
    6.2448    2.8483    0.0000 H   0  0  0  0  0  0  0  0  0  0  0  0
    8.4405    0.8703    0.0000 O   0  0  0  0  0  0  0  0  0  0  0  0
    9.9260    1.0788    0.0000 H   0  0  0  0  0  0  0  0  0  0  0  0
    9.3118   -1.8113    0.0000 O   0  0  0  0  0  0  0  0  0  0  0  0
   10.2354   -2.9932    0.0000 H   0  0  0  0  0  0  0  0  0  0  0  0
  1  2  1  0  0  0  0 
  1  3  1  0  0  0  0 
  1  4  1  0  0  0  0 
  1  5  1  0  0  0  0 
  5  6  1  0  0  0  0 
  5  7  1  0  0  0  0 
  7  8  2  0  0  0  0 
  7  9  1  0  0  0  0 
  9 10  2  0  0  0  0 
 10 11  1  0  0  0  0 
 11 12  1  0  0  0  0 
 11 13  2  0  0  0  0 
 13 14  1  0  0  0  0 
 13 15  1  0  0  0  0 
 15 16  1  0  0  0  0 
 15 17  2  0  0  0  0 
  9 17  1  0  0  0  0 
 17 18  1  0  0  0  0 
 10 19  1  0  0  0  0 
 19 20  1  0  0  0  0 
 20 21  2  0  0  0  0 
 21 22  1  0  0  0  0 
 21 23  1  0  0  0  0 
 23 24  2  0  0  0  0 
 24 25  1  0  0  0  0 
 25 26  1  0  0  0  0 
 25 27  2  0  0  0  0 
 20 27  1  0  0  0  0 
 27 28  1  0  0  0  0 
 24 29  1  0  0  0  0 
 29 30  2  0  0  0  0 
 30 31  1  0  0  0  0 
 23 31  1  0  0  0  0 
 31 32  1  0  0  0  0 
 29 33  1  0  0  0  0 
 33 34  1  0  0  0  0 
 33 35  2  0  0  0  0 
 35 36  1  0  0  0  0 
 35 37  1  0  0  0  0 
 37 38  2  0  0  0  0 
 38 39  1  0  0  0  0 
 39 40  1  0  0  0  0 
 39 41  2  0  0  0  0 
 41 42  1  0  0  0  0 
 41 43  1  0  0  0  0 
 43 44  1  0  0  0  0 
 43 45  2  0  0  0  0 
 37 45  1  0  0  0  0 
 45 46  1  0  0  0  0 
 38 47  1  0  0  0  0 
 47 48  1  0  0  0  0 
 47 49  1  0  0  0  0 
 49 50  1  0  0  0  0 
 49 51  1  0  0  0  0 
 51 52  1  0  0  0  0 
 51 53  1  0  0  0  0 
 53 54  1  0  0  0  0 
 53 55  1  0  0  0  0 
 55 56  1  0  0  0  0 
 55 57  1  0  0  0  0 
 57 58  2  0  0  0  0 
 57 59  1  0  0  0  0 
 59 60  1  0  0  0  0 
 55 61  1  0  0  0  0 
 47 61  1  0  0  0  0 
 53 62  1  0  0  0  0 
 62 63  1  0  0  0  0 
 51 64  1  0  0  0  0 
 64 65  1  0  0  0  0 
 49 66  1  0  0  0  0 
 66 67  1  0  0  0  0 
M  CHG  1  38   1
M  END
> <Rank>
22

> <Priority_score>
0.056

> <Reaction_type>
N-glucuronidation_(aromatic_=n-)

> <Parent_ID>
36

> <Parent_InChI>
InChI=1S/C22H18N4OS/c1-23-22(27)18-7-2-3-8-21(18)28-16-10-11-17-19(25-26-20(17)14-16)12-9-15-6-4-5-13-24-15/h2-14H,1H3,(H,23,27)(H,25,26)

> <Parent_SMILES>
CNC(=O)c1ccccc1Sc1ccc2c(/C=C/c3ccccn3)n[nH]c2c1

$$$$
Molecule 36_metabolite 23
  CDK     0516241031

 47 50  0  0  0  0  0  0  0  0999 V2000
   -7.5053    5.2519    0.0000 C   0  0  0  0  0  0  0  0  0  0  0  0
   -8.8041    6.0023    0.0000 H   0  0  0  0  0  0  0  0  0  0  0  0
   -6.0282    4.9909    0.0000 H   0  0  0  0  0  0  0  0  0  0  0  0
   -6.9918    6.6612    0.0000 H   0  0  0  0  0  0  0  0  0  0  0  0
   -7.5058    3.7519    0.0000 N   0  0  0  0  0  0  0  0  0  0  0  0
   -8.8051    3.0023    0.0000 H   0  0  0  0  0  0  0  0  0  0  0  0
   -6.2070    3.0015    0.0000 C   0  0  0  0  0  0  0  0  0  0  0  0
   -4.9077    3.7510    0.0000 O   0  0  0  0  0  0  0  0  0  0  0  0
   -6.2075    1.5015    0.0000 C   0  0  0  0  0  0  0  0  0  0  0  0
   -4.9081    0.7504    0.0000 C   0  0  0  0  0  0  0  0  0  0  0  0
   -4.9078   -0.7504    0.0000 C   0  0  0  0  0  0  0  0  0  0  0  0
   -3.6088   -1.5004    0.0000 H   0  0  0  0  0  0  0  0  0  0  0  0
   -6.2070   -1.5002    0.0000 C   0  0  0  0  0  0  0  0  0  0  0  0
   -6.2075   -3.0002    0.0000 H   0  0  0  0  0  0  0  0  0  0  0  0
   -7.5064   -0.7492    0.0000 C   0  0  0  0  0  0  0  0  0  0  0  0
   -8.8056   -1.4990    0.0000 H   0  0  0  0  0  0  0  0  0  0  0  0
   -7.5066    0.7517    0.0000 C   0  0  0  0  0  0  0  0  0  0  0  0
   -8.8057    1.5017    0.0000 O   0  0  0  0  0  0  0  0  0  0  0  0
  -10.1047    0.7517    0.0000 H   0  0  0  0  0  0  0  0  0  0  0  0
   -3.6089    1.5002    0.0000 S   0  0  0  0  0  0  0  0  0  0  0  0
   -1.4787    0.2699    0.0000 C   0  0  0  0  0  0  0  0  0  0  0  0
   -0.1787    1.0199    0.0000 C   0  0  0  0  0  0  0  0  0  0  0  0
   -0.1787    2.5199    0.0000 H   0  0  0  0  0  0  0  0  0  0  0  0
    1.1213    0.2699    0.0000 C   0  0  0  0  0  0  0  0  0  0  0  0
    1.1213   -1.2301    0.0000 C   0  0  0  0  0  0  0  0  0  0  0  0
   -0.1787   -1.9801    0.0000 C   0  0  0  0  0  0  0  0  0  0  0  0
   -0.1787   -3.4801    0.0000 H   0  0  0  0  0  0  0  0  0  0  0  0
   -1.4787   -1.2301    0.0000 C   0  0  0  0  0  0  0  0  0  0  0  0
   -2.7776   -1.9803    0.0000 H   0  0  0  0  0  0  0  0  0  0  0  0
    2.5513   -1.6901    0.0000 C   0  0  0  0  0  0  0  0  0  0  0  0
    3.4313   -0.4801    0.0000 N   0  0  0  0  0  0  0  0  0  0  0  0
    2.5513    0.7299    0.0000 N   0  0  0  0  0  0  0  0  0  0  0  0
    3.0166    2.1559    0.0000 H   0  0  0  0  0  0  0  0  0  0  0  0
    3.0166   -3.1161    0.0000 C   0  0  0  0  0  0  0  0  0  0  0  0
    2.0143   -4.2321    0.0000 H   0  0  0  0  0  0  0  0  0  0  0  0
    4.4842   -3.4262    0.0000 C   0  0  0  0  0  0  0  0  0  0  0  0
    5.4865   -2.3103    0.0000 H   0  0  0  0  0  0  0  0  0  0  0  0
    4.9495   -4.8522    0.0000 C   0  0  0  0  0  0  0  0  0  0  0  0
    3.9468   -5.9690    0.0000 N   0  0  0  0  0  0  0  0  0  0  0  0
    4.4116   -7.3960    0.0000 C   0  0  0  0  0  0  0  0  0  0  0  0
    3.4089   -8.5116    0.0000 H   0  0  0  0  0  0  0  0  0  0  0  0
    5.8792   -7.7063    0.0000 C   0  0  0  0  0  0  0  0  0  0  0  0
    6.3444   -9.1323    0.0000 H   0  0  0  0  0  0  0  0  0  0  0  0
    6.8819   -6.5896    0.0000 C   0  0  0  0  0  0  0  0  0  0  0  0
    8.3494   -6.8999    0.0000 H   0  0  0  0  0  0  0  0  0  0  0  0
    6.4170   -5.1625    0.0000 C   0  0  0  0  0  0  0  0  0  0  0  0
    7.4197   -4.0469    0.0000 H   0  0  0  0  0  0  0  0  0  0  0  0
  1  2  1  0  0  0  0 
  1  3  1  0  0  0  0 
  1  4  1  0  0  0  0 
  1  5  1  0  0  0  0 
  5  6  1  0  0  0  0 
  5  7  1  0  0  0  0 
  7  8  2  0  0  0  0 
  7  9  1  0  0  0  0 
  9 10  2  0  0  0  0 
 10 11  1  0  0  0  0 
 11 12  1  0  0  0  0 
 11 13  2  0  0  0  0 
 13 14  1  0  0  0  0 
 13 15  1  0  0  0  0 
 15 16  1  0  0  0  0 
 15 17  2  0  0  0  0 
  9 17  1  0  0  0  0 
 17 18  1  0  0  0  0 
 18 19  1  0  0  0  0 
 10 20  1  0  0  0  0 
 20 21  1  0  0  0  0 
 21 22  2  0  0  0  0 
 22 23  1  0  0  0  0 
 22 24  1  0  0  0  0 
 24 25  2  0  0  0  0 
 25 26  1  0  0  0  0 
 26 27  1  0  0  0  0 
 26 28  2  0  0  0  0 
 21 28  1  0  0  0  0 
 28 29  1  0  0  0  0 
 25 30  1  0  0  0  0 
 30 31  2  0  0  0  0 
 31 32  1  0  0  0  0 
 24 32  1  0  0  0  0 
 32 33  1  0  0  0  0 
 30 34  1  0  0  0  0 
 34 35  1  0  0  0  0 
 34 36  2  0  0  0  0 
 36 37  1  0  0  0  0 
 36 38  1  0  0  0  0 
 38 39  2  0  0  0  0 
 39 40  1  0  0  0  0 
 40 41  1  0  0  0  0 
 40 42  2  0  0  0  0 
 42 43  1  0  0  0  0 
 42 44  1  0  0  0  0 
 44 45  1  0  0  0  0 
 44 46  2  0  0  0  0 
 38 46  1  0  0  0  0 
 46 47  1  0  0  0  0 
M  END
> <Rank>
23

> <Priority_score>
0.04

> <Reaction_type>
aromatic hydroxylation

> <Parent_ID>
36

> <Parent_InChI>
InChI=1S/C22H18N4OS/c1-23-22(27)18-7-2-3-8-21(18)28-16-10-11-17-19(25-26-20(17)14-16)12-9-15-6-4-5-13-24-15/h2-14H,1H3,(H,23,27)(H,25,26)

> <Parent_SMILES>
CNC(=O)c1ccccc1Sc1ccc2c(/C=C/c3ccccn3)n[nH]c2c1

$$$$
Molecule 36_metabolite 24
  CDK     0516241031

 47 50  0  0  0  0  0  0  0  0999 V2000
   -7.5120    5.2491    0.0000 C   0  0  0  0  0  0  0  0  0  0  0  0
   -8.8120    5.9973    0.0000 H   0  0  0  0  0  0  0  0  0  0  0  0
   -6.0344    4.9906    0.0000 H   0  0  0  0  0  0  0  0  0  0  0  0
   -7.0008    6.6593    0.0000 H   0  0  0  0  0  0  0  0  0  0  0  0
   -7.5099    3.7491    0.0000 N   0  0  0  0  0  0  0  0  0  0  0  0
   -8.8079    2.9973    0.0000 H   0  0  0  0  0  0  0  0  0  0  0  0
   -6.2099    3.0008    0.0000 C   0  0  0  0  0  0  0  0  0  0  0  0
   -4.9118    3.7526    0.0000 O   0  0  0  0  0  0  0  0  0  0  0  0
   -6.2078    1.5008    0.0000 C   0  0  0  0  0  0  0  0  0  0  0  0
   -4.9081    0.7504    0.0000 C   0  0  0  0  0  0  0  0  0  0  0  0
   -4.9086   -0.7496    0.0000 C   0  0  0  0  0  0  0  0  0  0  0  0
   -3.6099   -1.5002    0.0000 H   0  0  0  0  0  0  0  0  0  0  0  0
   -6.2088   -1.4992    0.0000 C   0  0  0  0  0  0  0  0  0  0  0  0
   -6.2118   -2.9992    0.0000 H   0  0  0  0  0  0  0  0  0  0  0  0
   -7.4986   -0.7488    0.0000 C   0  0  0  0  0  0  0  0  0  0  0  0
   -8.7990   -1.4964    0.0000 H   0  0  0  0  0  0  0  0  0  0  0  0
   -7.4981    0.7512    0.0000 C   0  0  0  0  0  0  0  0  0  0  0  0
   -8.7980    1.4997    0.0000 H   0  0  0  0  0  0  0  0  0  0  0  0
   -3.6089    1.5002    0.0000 S   0  0  0  0  0  0  0  0  0  0  0  0
   -1.4787    0.2699    0.0000 C   0  0  0  0  0  0  0  0  0  0  0  0
   -1.4787   -1.2301    0.0000 C   0  0  0  0  0  0  0  0  0  0  0  0
   -2.7776   -1.9803    0.0000 H   0  0  0  0  0  0  0  0  0  0  0  0
   -0.1787   -1.9801    0.0000 C   0  0  0  0  0  0  0  0  0  0  0  0
    1.1213   -1.2301    0.0000 C   0  0  0  0  0  0  0  0  0  0  0  0
    2.5513   -1.6901    0.0000 C   0  0  0  0  0  0  0  0  0  0  0  0
    3.4313   -0.4801    0.0000 N   0  0  0  0  0  0  0  0  0  0  0  0
    2.5513    0.7299    0.0000 N   0  0  0  0  0  0  0  0  0  0  0  0
    3.0166    2.1559    0.0000 H   0  0  0  0  0  0  0  0  0  0  0  0
    1.1213    0.2699    0.0000 C   0  0  0  0  0  0  0  0  0  0  0  0
   -0.1787    1.0199    0.0000 C   0  0  0  0  0  0  0  0  0  0  0  0
   -0.1787    2.5199    0.0000 H   0  0  0  0  0  0  0  0  0  0  0  0
    3.0166   -3.1161    0.0000 C   0  0  0  0  0  0  0  0  0  0  0  0
    2.0143   -4.2321    0.0000 H   0  0  0  0  0  0  0  0  0  0  0  0
    4.4842   -3.4262    0.0000 C   0  0  0  0  0  0  0  0  0  0  0  0
    5.4865   -2.3103    0.0000 H   0  0  0  0  0  0  0  0  0  0  0  0
    4.9495   -4.8522    0.0000 C   0  0  0  0  0  0  0  0  0  0  0  0
    3.9468   -5.9690    0.0000 N   0  0  0  0  0  0  0  0  0  0  0  0
    4.4116   -7.3960    0.0000 C   0  0  0  0  0  0  0  0  0  0  0  0
    3.4089   -8.5116    0.0000 H   0  0  0  0  0  0  0  0  0  0  0  0
    5.8792   -7.7063    0.0000 C   0  0  0  0  0  0  0  0  0  0  0  0
    6.3444   -9.1323    0.0000 H   0  0  0  0  0  0  0  0  0  0  0  0
    6.8819   -6.5896    0.0000 C   0  0  0  0  0  0  0  0  0  0  0  0
    8.3494   -6.8999    0.0000 H   0  0  0  0  0  0  0  0  0  0  0  0
    6.4170   -5.1625    0.0000 C   0  0  0  0  0  0  0  0  0  0  0  0
    7.4197   -4.0469    0.0000 H   0  0  0  0  0  0  0  0  0  0  0  0
   -0.1787   -3.4801    0.0000 O   0  0  0  0  0  0  0  0  0  0  0  0
    1.1203   -4.2301    0.0000 H   0  0  0  0  0  0  0  0  0  0  0  0
  1  2  1  0  0  0  0 
  1  3  1  0  0  0  0 
  1  4  1  0  0  0  0 
  1  5  1  0  0  0  0 
  5  6  1  0  0  0  0 
  5  7  1  0  0  0  0 
  7  8  2  0  0  0  0 
  7  9  1  0  0  0  0 
  9 10  2  0  0  0  0 
 10 11  1  0  0  0  0 
 11 12  1  0  0  0  0 
 11 13  2  0  0  0  0 
 13 14  1  0  0  0  0 
 13 15  1  0  0  0  0 
 15 16  1  0  0  0  0 
 15 17  2  0  0  0  0 
  9 17  1  0  0  0  0 
 17 18  1  0  0  0  0 
 10 19  1  0  0  0  0 
 19 20  1  0  0  0  0 
 20 21  2  0  0  0  0 
 21 22  1  0  0  0  0 
 21 23  1  0  0  0  0 
 23 24  2  0  0  0  0 
 24 25  1  0  0  0  0 
 25 26  2  0  0  0  0 
 26 27  1  0  0  0  0 
 27 28  1  0  0  0  0 
 27 29  1  0  0  0  0 
 24 29  1  0  0  0  0 
 29 30  2  0  0  0  0 
 20 30  1  0  0  0  0 
 30 31  1  0  0  0  0 
 25 32  1  0  0  0  0 
 32 33  1  0  0  0  0 
 32 34  2  0  0  0  0 
 34 35  1  0  0  0  0 
 34 36  1  0  0  0  0 
 36 37  2  0  0  0  0 
 37 38  1  0  0  0  0 
 38 39  1  0  0  0  0 
 38 40  2  0  0  0  0 
 40 41  1  0  0  0  0 
 40 42  1  0  0  0  0 
 42 43  1  0  0  0  0 
 42 44  2  0  0  0  0 
 36 44  1  0  0  0  0 
 44 45  1  0  0  0  0 
 23 46  1  0  0  0  0 
 46 47  1  0  0  0  0 
M  END
> <Rank>
24

> <Priority_score>
0.008

> <Reaction_type>
aromatic hydroxylation

> <Parent_ID>
36

> <Parent_InChI>
InChI=1S/C22H18N4OS/c1-23-22(27)18-7-2-3-8-21(18)28-16-10-11-17-19(25-26-20(17)14-16)12-9-15-6-4-5-13-24-15/h2-14H,1H3,(H,23,27)(H,25,26)

> <Parent_SMILES>
CNC(=O)c1ccccc1Sc1ccc2c(/C=C/c3ccccn3)n[nH]c2c1

$$$$
Molecule 37
  CDK     0516241031

 19 20  0  0  0  0  0  0  0  0999 V2000
   -0.3885    1.2227    0.0000 C   0  0  0  0  0  0  0  0  0  0  0  0
   -1.1383   -0.0765    0.0000 C   0  0  0  0  0  0  0  0  0  0  0  0
   -0.3883   -1.3755    0.0000 C   0  0  0  0  0  0  0  0  0  0  0  0
   -1.1391   -2.6751    0.0000 C   0  0  0  0  0  0  0  0  0  0  0  0
   -2.6399   -2.6755    0.0000 C   0  0  0  0  0  0  0  0  0  0  0  0
   -3.3899   -1.3765    0.0000 C   0  0  0  0  0  0  0  0  0  0  0  0
   -2.6391   -0.0770    0.0000 C   0  0  0  0  0  0  0  0  0  0  0  0
    1.1117   -1.3758    0.0000 O   0  0  0  0  0  0  0  0  0  0  0  0
    1.8615   -2.6749    0.0000 C   0  0  2  0  0  0  0  0  0  0  0  0
    3.3615   -2.6752    0.0000 C   0  0  0  0  0  0  0  0  0  0  0  0
    4.1113   -3.9743    0.0000 C   0  0  0  0  0  0  0  0  0  0  0  0
    5.6113   -3.9746    0.0000 N   0  0  0  0  0  0  0  0  0  0  0  0
    6.3611   -5.2737    0.0000 C   0  0  0  0  0  0  0  0  0  0  0  0
    1.1113   -3.9739    0.0000 C   0  0  0  0  0  0  0  0  0  0  0  0
    1.8619   -5.2735    0.0000 C   0  0  0  0  0  0  0  0  0  0  0  0
    1.1117   -6.5724    0.0000 C   0  0  0  0  0  0  0  0  0  0  0  0
   -0.3891   -6.5717    0.0000 C   0  0  0  0  0  0  0  0  0  0  0  0
   -1.1397   -5.2721    0.0000 C   0  0  0  0  0  0  0  0  0  0  0  0
   -0.3895   -3.9731    0.0000 C   0  0  0  0  0  0  0  0  0  0  0  0
  1  2  1  0  0  0  0 
  2  3  2  0  0  0  0 
  3  4  1  0  0  0  0 
  4  5  2  0  0  0  0 
  5  6  1  0  0  0  0 
  6  7  2  0  0  0  0 
  2  7  1  0  0  0  0 
  3  8  1  0  0  0  0 
  9  8  1  6  0  0  0 
  9 10  1  0  0  0  0 
 10 11  1  0  0  0  0 
 11 12  1  0  0  0  0 
 12 13  1  0  0  0  0 
  9 14  1  0  0  0  0 
 14 15  2  0  0  0  0 
 15 16  1  0  0  0  0 
 16 17  2  0  0  0  0 
 17 18  1  0  0  0  0 
 18 19  2  0  0  0  0 
 14 19  1  0  0  0  0 
M  END
> <SMILES>
CNCC[C@@H](Oc1ccccc1C)c1ccccc1

$$$$
Molecule 37_metabolite 1
  CDK     0516241031

 45 46  0  0  0  0  0  0  0  0999 V2000
    7.2590   -4.1673    0.0000 C   0  0  0  0  0  0  0  0  0  0  0  0
    5.9601   -4.9175    0.0000 H   0  0  0  0  0  0  0  0  0  0  0  0
    7.7722   -5.5767    0.0000 H   0  0  0  0  0  0  0  0  0  0  0  0
    8.7361   -3.9066    0.0000 H   0  0  0  0  0  0  0  0  0  0  0  0
    7.2587   -2.6673    0.0000 C   0  0  0  0  0  0  0  0  0  0  0  0
    5.9597   -1.9173    0.0000 C   0  0  0  0  0  0  0  0  0  0  0  0
    5.9602   -0.4164    0.0000 C   0  0  0  0  0  0  0  0  0  0  0  0
    4.6611    0.3336    0.0000 H   0  0  0  0  0  0  0  0  0  0  0  0
    7.2597    0.3344    0.0000 C   0  0  0  0  0  0  0  0  0  0  0  0
    7.2594    1.8344    0.0000 H   0  0  0  0  0  0  0  0  0  0  0  0
    8.5587   -0.4156    0.0000 C   0  0  0  0  0  0  0  0  0  0  0  0
    9.8579    0.3342    0.0000 H   0  0  0  0  0  0  0  0  0  0  0  0
    8.5582   -1.9164    0.0000 C   0  0  0  0  0  0  0  0  0  0  0  0
    9.8573   -2.6664    0.0000 H   0  0  0  0  0  0  0  0  0  0  0  0
    4.6605   -2.6671    0.0000 O   0  0  0  0  0  0  0  0  0  0  0  0
    2.9460   -1.6768    0.0000 C   0  0  2  0  0  0  0  0  0  0  0  0
    3.9103   -0.5279    0.0000 H   0  0  0  0  0  0  0  0  0  0  0  0
    1.6468   -2.4266    0.0000 C   0  0  0  0  0  0  0  0  0  0  0  0
    0.1695   -2.6868    0.0000 H   0  0  0  0  0  0  0  0  0  0  0  0
    1.1340   -1.0170    0.0000 H   0  0  0  0  0  0  0  0  0  0  0  0
    1.6466   -3.9266    0.0000 C   0  0  0  0  0  0  0  0  0  0  0  0
    3.1238   -3.6663    0.0000 H   0  0  0  0  0  0  0  0  0  0  0  0
    2.1594   -5.3362    0.0000 H   0  0  0  0  0  0  0  0  0  0  0  0
   -0.0683   -4.9163    0.0000 N   0  0  0  0  0  0  0  0  0  0  0  0
   -0.0686   -6.4163    0.0000 C   0  0  0  0  0  0  0  0  0  0  0  0
   -1.3677   -7.1661    0.0000 H   0  0  0  0  0  0  0  0  0  0  0  0
    0.4442   -7.8259    0.0000 H   0  0  0  0  0  0  0  0  0  0  0  0
    1.4087   -6.1561    0.0000 H   0  0  0  0  0  0  0  0  0  0  0  0
   -1.3672   -4.1661    0.0000 C   0  0  0  0  0  0  0  0  0  0  0  0
   -1.3670   -2.6661    0.0000 O   0  0  0  0  0  0  0  0  0  0  0  0
   -2.6664   -4.9159    0.0000 C   0  0  0  0  0  0  0  0  0  0  0  0
   -3.9653   -4.1657    0.0000 H   0  0  0  0  0  0  0  0  0  0  0  0
   -3.6308   -6.0648    0.0000 H   0  0  0  0  0  0  0  0  0  0  0  0
   -1.7024   -6.0651    0.0000 H   0  0  0  0  0  0  0  0  0  0  0  0
    1.6735   -0.1598    0.0000 C   0  0  0  0  0  0  0  0  0  0  0  0
    0.1955   -0.4207    0.0000 C   0  0  0  0  0  0  0  0  0  0  0  0
   -0.3175   -1.8302    0.0000 H   0  0  0  0  0  0  0  0  0  0  0  0
   -0.7685    0.7286    0.0000 C   0  0  0  0  0  0  0  0  0  0  0  0
   -2.2458    0.4686    0.0000 H   0  0  0  0  0  0  0  0  0  0  0  0
   -0.2545    2.1386    0.0000 C   0  0  0  0  0  0  0  0  0  0  0  0
   -1.2185    3.2879    0.0000 H   0  0  0  0  0  0  0  0  0  0  0  0
    1.2235    2.3995    0.0000 C   0  0  0  0  0  0  0  0  0  0  0  0
    1.7365    3.8090    0.0000 H   0  0  0  0  0  0  0  0  0  0  0  0
    2.1875    1.2503    0.0000 C   0  0  0  0  0  0  0  0  0  0  0  0
    3.6648    1.5103    0.0000 H   0  0  0  0  0  0  0  0  0  0  0  0
  1  2  1  0  0  0  0 
  1  3  1  0  0  0  0 
  1  4  1  0  0  0  0 
  1  5  1  0  0  0  0 
  5  6  2  0  0  0  0 
  6  7  1  0  0  0  0 
  7  8  1  0  0  0  0 
  7  9  2  0  0  0  0 
  9 10  1  0  0  0  0 
  9 11  1  0  0  0  0 
 11 12  1  0  0  0  0 
 11 13  2  0  0  0  0 
  5 13  1  0  0  0  0 
 13 14  1  0  0  0  0 
  6 15  1  0  0  0  0 
 16 15  1  6  0  0  0 
 16 17  1  1  0  0  0 
 16 18  1  0  0  0  0 
 18 19  1  0  0  0  0 
 18 20  1  0  0  0  0 
 18 21  1  0  0  0  0 
 21 22  1  0  0  0  0 
 21 23  1  0  0  0  0 
 21 24  1  0  0  0  0 
 24 25  1  0  0  0  0 
 25 26  1  0  0  0  0 
 25 27  1  0  0  0  0 
 25 28  1  0  0  0  0 
 24 29  1  0  0  0  0 
 29 30  2  0  0  0  0 
 29 31  1  0  0  0  0 
 31 32  1  0  0  0  0 
 31 33  1  0  0  0  0 
 31 34  1  0  0  0  0 
 16 35  1  0  0  0  0 
 35 36  2  0  0  0  0 
 36 37  1  0  0  0  0 
 36 38  1  0  0  0  0 
 38 39  1  0  0  0  0 
 38 40  2  0  0  0  0 
 40 41  1  0  0  0  0 
 40 42  1  0  0  0  0 
 42 43  1  0  0  0  0 
 42 44  2  0  0  0  0 
 35 44  1  0  0  0  0 
 44 45  1  0  0  0  0 
M  END
> <Rank>
1

> <Priority_score>
0.908

> <Reaction_type>
N-acetylation_(NH1-CH3)

> <Parent_ID>
37

> <Parent_InChI>
InChI=1S/C17H21NO/c1-14-8-6-7-11-16(14)19-17(12-13-18-2)15-9-4-3-5-10-15/h3-11,17-18H,12-13H2,1-2H3

> <Parent_SMILES>
CNCC[C@@H](Oc1ccccc1C)c1ccccc1

$$$$
Molecule 37_metabolite 2
  CDK     0516241031

 36 37  0  0  0  0  0  0  0  0999 V2000
    5.6394    0.2935    0.0000 C   0  0  0  0  0  0  0  0  0  0  0  0
    5.6396   -1.2065    0.0000 H   0  0  0  0  0  0  0  0  0  0  0  0
    7.1167    0.0333    0.0000 H   0  0  0  0  0  0  0  0  0  0  0  0
    6.1522    1.7031    0.0000 H   0  0  0  0  0  0  0  0  0  0  0  0
    4.3402    1.0433    0.0000 C   0  0  0  0  0  0  0  0  0  0  0  0
    3.0412    0.2933    0.0000 C   0  0  0  0  0  0  0  0  0  0  0  0
    1.7417    1.0441    0.0000 C   0  0  0  0  0  0  0  0  0  0  0  0
    0.4427    0.2941    0.0000 H   0  0  0  0  0  0  0  0  0  0  0  0
    1.7412    2.5450    0.0000 C   0  0  0  0  0  0  0  0  0  0  0  0
    0.4421    3.2947    0.0000 H   0  0  0  0  0  0  0  0  0  0  0  0
    3.0402    3.2950    0.0000 C   0  0  0  0  0  0  0  0  0  0  0  0
    3.0405    4.7950    0.0000 H   0  0  0  0  0  0  0  0  0  0  0  0
    4.3398    2.5441    0.0000 C   0  0  0  0  0  0  0  0  0  0  0  0
    5.6388    3.2941    0.0000 H   0  0  0  0  0  0  0  0  0  0  0  0
    3.0410   -1.2067    0.0000 O   0  0  0  0  0  0  0  0  0  0  0  0
    1.3261   -2.1964    0.0000 C   0  0  2  0  0  0  0  0  0  0  0  0
    0.8133   -0.7868    0.0000 H   0  0  0  0  0  0  0  0  0  0  0  0
    1.3258   -3.6964    0.0000 C   0  0  0  0  0  0  0  0  0  0  0  0
    0.4841   -6.0079    0.0000 H   0  0  0  0  0  0  0  0  0  0  0  0
   -0.1513   -3.4357    0.0000 H   0  0  0  0  0  0  0  0  0  0  0  0
    2.6248   -4.4466    0.0000 C   0  0  0  0  0  0  0  0  0  0  0  0
    3.1380   -3.0372    0.0000 H   0  0  0  0  0  0  0  0  0  0  0  0
    4.1019   -4.7074    0.0000 H   0  0  0  0  0  0  0  0  0  0  0  0
    2.6245   -5.9466    0.0000 O   0  0  0  0  0  0  0  0  0  0  0  0
    3.9234   -6.6968    0.0000 H   0  0  0  0  0  0  0  0  0  0  0  0
   -0.6239   -2.5399    0.0000 C   0  0  0  0  0  0  0  0  0  0  0  0
   -1.1370   -3.9503    0.0000 C   0  0  0  0  0  0  0  0  0  0  0  0
   -0.1728   -5.0994    0.0000 H   0  0  0  0  0  0  0  0  0  0  0  0
   -2.6142   -4.2106    0.0000 C   0  0  0  0  0  0  0  0  0  0  0  0
   -3.1277   -5.6200    0.0000 H   0  0  0  0  0  0  0  0  0  0  0  0
   -3.5784   -3.0604    0.0000 C   0  0  0  0  0  0  0  0  0  0  0  0
   -5.0557   -3.3207    0.0000 H   0  0  0  0  0  0  0  0  0  0  0  0
   -3.0653   -1.6500    0.0000 C   0  0  0  0  0  0  0  0  0  0  0  0
   -4.0295   -0.5009    0.0000 H   0  0  0  0  0  0  0  0  0  0  0  0
   -1.5881   -1.3898    0.0000 C   0  0  0  0  0  0  0  0  0  0  0  0
   -1.0746    0.0196    0.0000 H   0  0  0  0  0  0  0  0  0  0  0  0
  1  2  1  0  0  0  0 
  1  3  1  0  0  0  0 
  1  4  1  0  0  0  0 
  1  5  1  0  0  0  0 
  5  6  2  0  0  0  0 
  6  7  1  0  0  0  0 
  7  8  1  0  0  0  0 
  7  9  2  0  0  0  0 
  9 10  1  0  0  0  0 
  9 11  1  0  0  0  0 
 11 12  1  0  0  0  0 
 11 13  2  0  0  0  0 
  5 13  1  0  0  0  0 
 13 14  1  0  0  0  0 
  6 15  1  0  0  0  0 
 16 15  1  6  0  0  0 
 16 17  1  1  0  0  0 
 16 18  1  0  0  0  0 
 18 19  1  0  0  0  0 
 18 20  1  0  0  0  0 
 18 21  1  0  0  0  0 
 21 22  1  0  0  0  0 
 21 23  1  0  0  0  0 
 21 24  1  0  0  0  0 
 24 25  1  0  0  0  0 
 16 26  1  0  0  0  0 
 26 27  2  0  0  0  0 
 27 28  1  0  0  0  0 
 27 29  1  0  0  0  0 
 29 30  1  0  0  0  0 
 29 31  2  0  0  0  0 
 31 32  1  0  0  0  0 
 31 33  1  0  0  0  0 
 33 34  1  0  0  0  0 
 33 35  2  0  0  0  0 
 26 35  1  0  0  0  0 
 35 36  1  0  0  0  0 
M  END
> <Rank>
2

> <Priority_score>
0.712

> <Reaction_type>
N-dealkylation_(R-NHCH2-alkyl)

> <Parent_ID>
37

> <Parent_InChI>
InChI=1S/C17H21NO/c1-14-8-6-7-11-16(14)19-17(12-13-18-2)15-9-4-3-5-10-15/h3-11,17-18H,12-13H2,1-2H3

> <Parent_SMILES>
CNCC[C@@H](Oc1ccccc1C)c1ccccc1

$$$$
Molecule 37_metabolite 3
  CDK     0516241031

 37 38  0  0  0  0  0  0  0  0999 V2000
   -2.0310   -0.4403    0.0000 C   0  0  0  0  0  0  0  0  0  0  0  0
   -0.7321    0.3099    0.0000 H   0  0  0  0  0  0  0  0  0  0  0  0
   -2.5443    0.9692    0.0000 H   0  0  0  0  0  0  0  0  0  0  0  0
   -3.5082   -0.7010    0.0000 H   0  0  0  0  0  0  0  0  0  0  0  0
   -2.0308   -1.9403    0.0000 C   0  0  0  0  0  0  0  0  0  0  0  0
   -0.7318   -2.6903    0.0000 C   0  0  0  0  0  0  0  0  0  0  0  0
   -0.7322   -4.1911    0.0000 C   0  0  0  0  0  0  0  0  0  0  0  0
    0.5668   -4.9411    0.0000 H   0  0  0  0  0  0  0  0  0  0  0  0
   -2.0318   -4.9419    0.0000 C   0  0  0  0  0  0  0  0  0  0  0  0
   -2.0315   -6.4419    0.0000 H   0  0  0  0  0  0  0  0  0  0  0  0
   -3.3308   -4.1919    0.0000 C   0  0  0  0  0  0  0  0  0  0  0  0
   -4.6300   -4.9417    0.0000 H   0  0  0  0  0  0  0  0  0  0  0  0
   -3.3303   -2.6911    0.0000 C   0  0  0  0  0  0  0  0  0  0  0  0
   -4.6294   -1.9411    0.0000 H   0  0  0  0  0  0  0  0  0  0  0  0
    0.5674   -1.9405    0.0000 O   0  0  0  0  0  0  0  0  0  0  0  0
    2.2820   -2.9308    0.0000 C   0  0  2  0  0  0  0  0  0  0  0  0
    1.3176   -4.0797    0.0000 H   0  0  0  0  0  0  0  0  0  0  0  0
    3.5811   -2.1810    0.0000 C   0  0  0  0  0  0  0  0  0  0  0  0
    5.0584   -1.9207    0.0000 H   0  0  0  0  0  0  0  0  0  0  0  0
    4.0939   -3.5906    0.0000 H   0  0  0  0  0  0  0  0  0  0  0  0
    3.5814   -0.6810    0.0000 C   0  0  0  0  0  0  0  0  0  0  0  0
    2.1041   -0.9412    0.0000 H   0  0  0  0  0  0  0  0  0  0  0  0
    3.0686    0.7287    0.0000 H   0  0  0  0  0  0  0  0  0  0  0  0
    4.8805    0.0688    0.0000 N   0  0  0  0  0  0  0  0  0  0  0  0
    4.8808    1.5688    0.0000 H   0  0  0  0  0  0  0  0  0  0  0  0
    6.1794   -0.6814    0.0000 H   0  0  0  0  0  0  0  0  0  0  0  0
    3.5544   -4.4477    0.0000 C   0  0  0  0  0  0  0  0  0  0  0  0
    5.0324   -4.1869    0.0000 C   0  0  0  0  0  0  0  0  0  0  0  0
    5.9966   -3.0378    0.0000 H   0  0  0  0  0  0  0  0  0  0  0  0
    5.9964   -5.3361    0.0000 C   0  0  0  0  0  0  0  0  0  0  0  0
    7.4737   -5.0761    0.0000 H   0  0  0  0  0  0  0  0  0  0  0  0
    5.4824   -6.7462    0.0000 C   0  0  0  0  0  0  0  0  0  0  0  0
    6.4464   -7.8954    0.0000 H   0  0  0  0  0  0  0  0  0  0  0  0
    4.0044   -7.0070    0.0000 C   0  0  0  0  0  0  0  0  0  0  0  0
    3.4914   -8.4166    0.0000 H   0  0  0  0  0  0  0  0  0  0  0  0
    3.0404   -5.8578    0.0000 C   0  0  0  0  0  0  0  0  0  0  0  0
    1.5632   -6.1178    0.0000 H   0  0  0  0  0  0  0  0  0  0  0  0
  1  2  1  0  0  0  0 
  1  3  1  0  0  0  0 
  1  4  1  0  0  0  0 
  1  5  1  0  0  0  0 
  5  6  2  0  0  0  0 
  6  7  1  0  0  0  0 
  7  8  1  0  0  0  0 
  7  9  2  0  0  0  0 
  9 10  1  0  0  0  0 
  9 11  1  0  0  0  0 
 11 12  1  0  0  0  0 
 11 13  2  0  0  0  0 
  5 13  1  0  0  0  0 
 13 14  1  0  0  0  0 
  6 15  1  0  0  0  0 
 16 15  1  6  0  0  0 
 16 17  1  1  0  0  0 
 16 18  1  0  0  0  0 
 18 19  1  0  0  0  0 
 18 20  1  0  0  0  0 
 18 21  1  0  0  0  0 
 21 22  1  0  0  0  0 
 21 23  1  0  0  0  0 
 21 24  1  0  0  0  0 
 24 25  1  0  0  0  0 
 24 26  1  0  0  0  0 
 16 27  1  0  0  0  0 
 27 28  2  0  0  0  0 
 28 29  1  0  0  0  0 
 28 30  1  0  0  0  0 
 30 31  1  0  0  0  0 
 30 32  2  0  0  0  0 
 32 33  1  0  0  0  0 
 32 34  1  0  0  0  0 
 34 35  1  0  0  0  0 
 34 36  2  0  0  0  0 
 27 36  1  0  0  0  0 
 36 37  1  0  0  0  0 
M  END
> <Rank>
2

> <Priority_score>
0.712

> <Reaction_type>
N-demethylation_(R-NHCH3)

> <Parent_ID>
37

> <Parent_InChI>
InChI=1S/C17H21NO/c1-14-8-6-7-11-16(14)19-17(12-13-18-2)15-9-4-3-5-10-15/h3-11,17-18H,12-13H2,1-2H3

> <Parent_SMILES>
CNCC[C@@H](Oc1ccccc1C)c1ccccc1

$$$$
Molecule 37_metabolite 4
  CDK     0516241031

 41 42  0  0  0  0  0  0  0  0999 V2000
    7.3633   -4.5871    0.0000 C   0  0  0  0  0  0  0  0  0  0  0  0
    6.0644   -5.3373    0.0000 H   0  0  0  0  0  0  0  0  0  0  0  0
    7.8766   -5.9965    0.0000 H   0  0  0  0  0  0  0  0  0  0  0  0
    8.8405   -4.3264    0.0000 H   0  0  0  0  0  0  0  0  0  0  0  0
    7.3631   -3.0871    0.0000 C   0  0  0  0  0  0  0  0  0  0  0  0
    6.0640   -2.3371    0.0000 C   0  0  0  0  0  0  0  0  0  0  0  0
    6.0645   -0.8362    0.0000 C   0  0  0  0  0  0  0  0  0  0  0  0
    4.7655   -0.0862    0.0000 H   0  0  0  0  0  0  0  0  0  0  0  0
    7.3640   -0.0854    0.0000 C   0  0  0  0  0  0  0  0  0  0  0  0
    7.3638    1.4146    0.0000 H   0  0  0  0  0  0  0  0  0  0  0  0
    8.6631   -0.8354    0.0000 C   0  0  0  0  0  0  0  0  0  0  0  0
    9.9622   -0.0856    0.0000 H   0  0  0  0  0  0  0  0  0  0  0  0
    8.6626   -2.3362    0.0000 C   0  0  0  0  0  0  0  0  0  0  0  0
    9.9616   -3.0862    0.0000 H   0  0  0  0  0  0  0  0  0  0  0  0
    4.7649   -3.0869    0.0000 O   0  0  0  0  0  0  0  0  0  0  0  0
    3.0503   -2.0966    0.0000 C   0  0  2  0  0  0  0  0  0  0  0  0
    4.0147   -0.9477    0.0000 H   0  0  0  0  0  0  0  0  0  0  0  0
    1.7511   -2.8464    0.0000 C   0  0  0  0  0  0  0  0  0  0  0  0
    0.2739   -3.1066    0.0000 H   0  0  0  0  0  0  0  0  0  0  0  0
    1.2383   -1.4368    0.0000 H   0  0  0  0  0  0  0  0  0  0  0  0
    1.7509   -4.3464    0.0000 C   0  0  0  0  0  0  0  0  0  0  0  0
    3.2282   -4.0861    0.0000 H   0  0  0  0  0  0  0  0  0  0  0  0
    2.2637   -5.7560    0.0000 H   0  0  0  0  0  0  0  0  0  0  0  0
    0.4517   -5.0962    0.0000 N   0  0  0  0  0  0  0  0  0  0  0  0
    0.4515   -6.5962    0.0000 C   0  0  0  0  0  0  0  0  0  0  0  0
    1.7504   -7.3464    0.0000 H   0  0  0  0  0  0  0  0  0  0  0  0
   -1.0257   -6.3355    0.0000 H   0  0  0  0  0  0  0  0  0  0  0  0
   -0.0618   -8.0056    0.0000 H   0  0  0  0  0  0  0  0  0  0  0  0
   -0.8472   -4.3460    0.0000 O   0  0  0  0  0  0  0  0  0  0  0  0
   -2.1463   -5.0958    0.0000 H   0  0  0  0  0  0  0  0  0  0  0  0
    1.7778   -0.5796    0.0000 C   0  0  0  0  0  0  0  0  0  0  0  0
    0.2998   -0.8405    0.0000 C   0  0  0  0  0  0  0  0  0  0  0  0
   -0.8492   -1.8047    0.0000 H   0  0  0  0  0  0  0  0  0  0  0  0
   -0.6642    0.3088    0.0000 C   0  0  0  0  0  0  0  0  0  0  0  0
   -2.1415    0.0488    0.0000 H   0  0  0  0  0  0  0  0  0  0  0  0
   -0.1502    1.7188    0.0000 C   0  0  0  0  0  0  0  0  0  0  0  0
   -1.1142    2.8680    0.0000 H   0  0  0  0  0  0  0  0  0  0  0  0
    1.3278    1.9797    0.0000 C   0  0  0  0  0  0  0  0  0  0  0  0
    1.8408    3.3892    0.0000 H   0  0  0  0  0  0  0  0  0  0  0  0
    2.2918    0.8305    0.0000 C   0  0  0  0  0  0  0  0  0  0  0  0
    3.7691    1.0905    0.0000 H   0  0  0  0  0  0  0  0  0  0  0  0
  1  2  1  0  0  0  0 
  1  3  1  0  0  0  0 
  1  4  1  0  0  0  0 
  1  5  1  0  0  0  0 
  5  6  2  0  0  0  0 
  6  7  1  0  0  0  0 
  7  8  1  0  0  0  0 
  7  9  2  0  0  0  0 
  9 10  1  0  0  0  0 
  9 11  1  0  0  0  0 
 11 12  1  0  0  0  0 
 11 13  2  0  0  0  0 
  5 13  1  0  0  0  0 
 13 14  1  0  0  0  0 
  6 15  1  0  0  0  0 
 16 15  1  6  0  0  0 
 16 17  1  1  0  0  0 
 16 18  1  0  0  0  0 
 18 19  1  0  0  0  0 
 18 20  1  0  0  0  0 
 18 21  1  0  0  0  0 
 21 22  1  0  0  0  0 
 21 23  1  0  0  0  0 
 21 24  1  0  0  0  0 
 24 25  1  0  0  0  0 
 25 26  1  0  0  0  0 
 25 27  1  0  0  0  0 
 25 28  1  0  0  0  0 
 24 29  1  0  0  0  0 
 29 30  1  0  0  0  0 
 16 31  1  0  0  0  0 
 31 32  2  0  0  0  0 
 32 33  1  0  0  0  0 
 32 34  1  0  0  0  0 
 34 35  1  0  0  0  0 
 34 36  2  0  0  0  0 
 36 37  1  0  0  0  0 
 36 38  1  0  0  0  0 
 38 39  1  0  0  0  0 
 38 40  2  0  0  0  0 
 31 40  1  0  0  0  0 
 40 41  1  0  0  0  0 
M  END
> <Rank>
2

> <Priority_score>
0.712

> <Reaction_type>
amine hydroxylation

> <Parent_ID>
37

> <Parent_InChI>
InChI=1S/C17H21NO/c1-14-8-6-7-11-16(14)19-17(12-13-18-2)15-9-4-3-5-10-15/h3-11,17-18H,12-13H2,1-2H3

> <Parent_SMILES>
CNCC[C@@H](Oc1ccccc1C)c1ccccc1

$$$$
Molecule 37_metabolite 5
  CDK     0516241031

 41 42  0  0  0  0  0  0  0  0999 V2000
   -1.6617   -1.0799    0.0000 C   0  0  0  0  0  0  0  0  0  0  0  0
   -0.3628   -0.3297    0.0000 H   0  0  0  0  0  0  0  0  0  0  0  0
   -2.1750    0.3295    0.0000 H   0  0  0  0  0  0  0  0  0  0  0  0
   -3.1389   -1.3406    0.0000 H   0  0  0  0  0  0  0  0  0  0  0  0
   -1.6615   -2.5799    0.0000 C   0  0  0  0  0  0  0  0  0  0  0  0
   -0.3625   -3.3299    0.0000 C   0  0  0  0  0  0  0  0  0  0  0  0
   -0.3629   -4.8308    0.0000 C   0  0  0  0  0  0  0  0  0  0  0  0
    0.9361   -5.5808    0.0000 H   0  0  0  0  0  0  0  0  0  0  0  0
   -1.6625   -5.5816    0.0000 C   0  0  0  0  0  0  0  0  0  0  0  0
   -1.6622   -7.0816    0.0000 H   0  0  0  0  0  0  0  0  0  0  0  0
   -2.9615   -4.8316    0.0000 C   0  0  0  0  0  0  0  0  0  0  0  0
   -4.2607   -5.5814    0.0000 H   0  0  0  0  0  0  0  0  0  0  0  0
   -2.9610   -3.3308    0.0000 C   0  0  0  0  0  0  0  0  0  0  0  0
   -4.2600   -2.5808    0.0000 H   0  0  0  0  0  0  0  0  0  0  0  0
    0.9367   -2.5801    0.0000 O   0  0  0  0  0  0  0  0  0  0  0  0
    2.6513   -3.5704    0.0000 C   0  0  2  0  0  0  0  0  0  0  0  0
    1.6869   -4.7193    0.0000 H   0  0  0  0  0  0  0  0  0  0  0  0
    3.9504   -2.8206    0.0000 C   0  0  0  0  0  0  0  0  0  0  0  0
    5.4277   -2.5604    0.0000 H   0  0  0  0  0  0  0  0  0  0  0  0
    4.4632   -4.2303    0.0000 H   0  0  0  0  0  0  0  0  0  0  0  0
    3.9507   -1.3206    0.0000 C   0  0  0  0  0  0  0  0  0  0  0  0
    2.4734   -1.5809    0.0000 H   0  0  0  0  0  0  0  0  0  0  0  0
    3.4379    0.0890    0.0000 H   0  0  0  0  0  0  0  0  0  0  0  0
    5.2498   -0.5708    0.0000 N   0  0  0  0  0  0  0  0  0  0  0  0
    6.5488   -1.3210    0.0000 H   0  0  0  0  0  0  0  0  0  0  0  0
    5.2501    0.9292    0.0000 C   0  0  0  0  0  0  0  0  0  0  0  0
    6.7272    0.6685    0.0000 H   0  0  0  0  0  0  0  0  0  0  0  0
    5.7633    2.3386    0.0000 H   0  0  0  0  0  0  0  0  0  0  0  0
    3.9512    1.6794    0.0000 O   0  0  0  0  0  0  0  0  0  0  0  0
    3.9514    3.1794    0.0000 H   0  0  0  0  0  0  0  0  0  0  0  0
    3.9238   -5.0874    0.0000 C   0  0  0  0  0  0  0  0  0  0  0  0
    5.4017   -4.8265    0.0000 C   0  0  0  0  0  0  0  0  0  0  0  0
    6.5508   -3.8624    0.0000 H   0  0  0  0  0  0  0  0  0  0  0  0
    6.3657   -5.9758    0.0000 C   0  0  0  0  0  0  0  0  0  0  0  0
    7.8430   -5.7158    0.0000 H   0  0  0  0  0  0  0  0  0  0  0  0
    5.8517   -7.3858    0.0000 C   0  0  0  0  0  0  0  0  0  0  0  0
    6.8157   -8.5351    0.0000 H   0  0  0  0  0  0  0  0  0  0  0  0
    4.3738   -7.6467    0.0000 C   0  0  0  0  0  0  0  0  0  0  0  0
    3.8607   -9.0562    0.0000 H   0  0  0  0  0  0  0  0  0  0  0  0
    3.4098   -6.4975    0.0000 C   0  0  0  0  0  0  0  0  0  0  0  0
    1.9325   -6.7575    0.0000 H   0  0  0  0  0  0  0  0  0  0  0  0
  1  2  1  0  0  0  0 
  1  3  1  0  0  0  0 
  1  4  1  0  0  0  0 
  1  5  1  0  0  0  0 
  5  6  2  0  0  0  0 
  6  7  1  0  0  0  0 
  7  8  1  0  0  0  0 
  7  9  2  0  0  0  0 
  9 10  1  0  0  0  0 
  9 11  1  0  0  0  0 
 11 12  1  0  0  0  0 
 11 13  2  0  0  0  0 
  5 13  1  0  0  0  0 
 13 14  1  0  0  0  0 
  6 15  1  0  0  0  0 
 16 15  1  6  0  0  0 
 16 17  1  1  0  0  0 
 16 18  1  0  0  0  0 
 18 19  1  0  0  0  0 
 18 20  1  0  0  0  0 
 18 21  1  0  0  0  0 
 21 22  1  0  0  0  0 
 21 23  1  0  0  0  0 
 21 24  1  0  0  0  0 
 24 25  1  0  0  0  0 
 24 26  1  0  0  0  0 
 26 27  1  0  0  0  0 
 26 28  1  0  0  0  0 
 26 29  1  0  0  0  0 
 29 30  1  0  0  0  0 
 16 31  1  0  0  0  0 
 31 32  2  0  0  0  0 
 32 33  1  0  0  0  0 
 32 34  1  0  0  0  0 
 34 35  1  0  0  0  0 
 34 36  2  0  0  0  0 
 36 37  1  0  0  0  0 
 36 38  1  0  0  0  0 
 38 39  1  0  0  0  0 
 38 40  2  0  0  0  0 
 31 40  1  0  0  0  0 
 40 41  1  0  0  0  0 
M  END
> <Rank>
2

> <Priority_score>
0.712

> <Reaction_type>
aliphatic hydroxylation

> <Parent_ID>
37

> <Parent_InChI>
InChI=1S/C17H21NO/c1-14-8-6-7-11-16(14)19-17(12-13-18-2)15-9-4-3-5-10-15/h3-11,17-18H,12-13H2,1-2H3

> <Parent_SMILES>
CNCC[C@@H](Oc1ccccc1C)c1ccccc1

$$$$
Molecule 37_metabolite 6
  CDK     0516241031

 34 35  0  0  0  0  0  0  0  0999 V2000
    5.2810   -5.7893    0.0000 C   0  0  0  0  0  0  0  0  0  0  0  0
    3.9821   -6.5395    0.0000 H   0  0  0  0  0  0  0  0  0  0  0  0
    5.7943   -7.1987    0.0000 H   0  0  0  0  0  0  0  0  0  0  0  0
    6.7582   -5.5286    0.0000 H   0  0  0  0  0  0  0  0  0  0  0  0
    5.2808   -4.2893    0.0000 C   0  0  0  0  0  0  0  0  0  0  0  0
    3.9817   -3.5393    0.0000 C   0  0  0  0  0  0  0  0  0  0  0  0
    3.9822   -2.0385    0.0000 C   0  0  0  0  0  0  0  0  0  0  0  0
    2.6832   -1.2885    0.0000 H   0  0  0  0  0  0  0  0  0  0  0  0
    5.2817   -1.2876    0.0000 C   0  0  0  0  0  0  0  0  0  0  0  0
    5.2815    0.2124    0.0000 H   0  0  0  0  0  0  0  0  0  0  0  0
    6.5808   -2.0376    0.0000 C   0  0  0  0  0  0  0  0  0  0  0  0
    7.8799   -1.2878    0.0000 H   0  0  0  0  0  0  0  0  0  0  0  0
    6.5803   -3.5385    0.0000 C   0  0  0  0  0  0  0  0  0  0  0  0
    7.8793   -4.2885    0.0000 H   0  0  0  0  0  0  0  0  0  0  0  0
    2.6826   -4.2891    0.0000 O   0  0  0  0  0  0  0  0  0  0  0  0
    0.9680   -3.2988    0.0000 C   0  0  2  0  0  0  0  0  0  0  0  0
    1.9324   -2.1499    0.0000 H   0  0  0  0  0  0  0  0  0  0  0  0
   -0.3312   -4.0486    0.0000 C   0  0  0  0  0  0  0  0  0  0  0  0
   -1.8084   -4.3088    0.0000 H   0  0  0  0  0  0  0  0  0  0  0  0
   -0.8440   -2.6390    0.0000 H   0  0  0  0  0  0  0  0  0  0  0  0
   -0.3314   -5.5486    0.0000 C   0  0  0  0  0  0  0  0  0  0  0  0
   -1.6306   -6.2984    0.0000 H   0  0  0  0  0  0  0  0  0  0  0  0
    0.9675   -6.2988    0.0000 O   0  0  0  0  0  0  0  0  0  0  0  0
   -0.3045   -1.7818    0.0000 C   0  0  0  0  0  0  0  0  0  0  0  0
   -1.7825   -2.0427    0.0000 C   0  0  0  0  0  0  0  0  0  0  0  0
   -2.7467   -3.1918    0.0000 H   0  0  0  0  0  0  0  0  0  0  0  0
   -2.7465   -0.8935    0.0000 C   0  0  0  0  0  0  0  0  0  0  0  0
   -4.2238   -1.1535    0.0000 H   0  0  0  0  0  0  0  0  0  0  0  0
   -2.2325    0.5166    0.0000 C   0  0  0  0  0  0  0  0  0  0  0  0
   -3.1965    1.6658    0.0000 H   0  0  0  0  0  0  0  0  0  0  0  0
   -0.7545    0.7775    0.0000 C   0  0  0  0  0  0  0  0  0  0  0  0
   -0.2415    2.1870    0.0000 H   0  0  0  0  0  0  0  0  0  0  0  0
    0.2095   -0.3718    0.0000 C   0  0  0  0  0  0  0  0  0  0  0  0
    1.6868   -0.1118    0.0000 H   0  0  0  0  0  0  0  0  0  0  0  0
  1  2  1  0  0  0  0 
  1  3  1  0  0  0  0 
  1  4  1  0  0  0  0 
  1  5  1  0  0  0  0 
  5  6  2  0  0  0  0 
  6  7  1  0  0  0  0 
  7  8  1  0  0  0  0 
  7  9  2  0  0  0  0 
  9 10  1  0  0  0  0 
  9 11  1  0  0  0  0 
 11 12  1  0  0  0  0 
 11 13  2  0  0  0  0 
  5 13  1  0  0  0  0 
 13 14  1  0  0  0  0 
  6 15  1  0  0  0  0 
 16 15  1  6  0  0  0 
 16 17  1  1  0  0  0 
 16 18  1  0  0  0  0 
 18 19  1  0  0  0  0 
 18 20  1  0  0  0  0 
 18 21  1  0  0  0  0 
 21 22  1  0  0  0  0 
 21 23  2  0  0  0  0 
 16 24  1  0  0  0  0 
 24 25  2  0  0  0  0 
 25 26  1  0  0  0  0 
 25 27  1  0  0  0  0 
 27 28  1  0  0  0  0 
 27 29  2  0  0  0  0 
 29 30  1  0  0  0  0 
 29 31  1  0  0  0  0 
 31 32  1  0  0  0  0 
 31 33  2  0  0  0  0 
 24 33  1  0  0  0  0 
 33 34  1  0  0  0  0 
M  END
> <Rank>
6

> <Priority_score>
0.587879406603924

> <Reaction_type>
N-dealkylation

> <Parent_ID>
37

> <Parent_InChI>
InChI=1S/C17H21NO/c1-14-8-6-7-11-16(14)19-17(12-13-18-2)15-9-4-3-5-10-15/h3-11,17-18H,12-13H2,1-2H3

> <Parent_SMILES>
CNCC[C@@H](Oc1ccccc1C)c1ccccc1

$$$$
Molecule 37_metabolite 7
  CDK     0516241031

 41 42  0  0  0  0  0  0  0  0999 V2000
    7.3603   -4.5819    0.0000 C   0  0  0  0  0  0  0  0  0  0  0  0
    6.0614   -5.3321    0.0000 H   0  0  0  0  0  0  0  0  0  0  0  0
    7.8736   -5.9913    0.0000 H   0  0  0  0  0  0  0  0  0  0  0  0
    8.8375   -4.3212    0.0000 H   0  0  0  0  0  0  0  0  0  0  0  0
    7.3601   -3.0819    0.0000 C   0  0  0  0  0  0  0  0  0  0  0  0
    6.0610   -2.3319    0.0000 C   0  0  0  0  0  0  0  0  0  0  0  0
    6.0615   -0.8310    0.0000 C   0  0  0  0  0  0  0  0  0  0  0  0
    4.7625   -0.0810    0.0000 H   0  0  0  0  0  0  0  0  0  0  0  0
    7.3610   -0.0802    0.0000 C   0  0  0  0  0  0  0  0  0  0  0  0
    7.3608    1.4198    0.0000 H   0  0  0  0  0  0  0  0  0  0  0  0
    8.6601   -0.8302    0.0000 C   0  0  0  0  0  0  0  0  0  0  0  0
    9.9592   -0.0804    0.0000 H   0  0  0  0  0  0  0  0  0  0  0  0
    8.6596   -2.3310    0.0000 C   0  0  0  0  0  0  0  0  0  0  0  0
    9.9586   -3.0810    0.0000 H   0  0  0  0  0  0  0  0  0  0  0  0
    4.7619   -3.0817    0.0000 O   0  0  0  0  0  0  0  0  0  0  0  0
    3.0473   -2.0914    0.0000 C   0  0  2  0  0  0  0  0  0  0  0  0
    4.0117   -0.9425    0.0000 H   0  0  0  0  0  0  0  0  0  0  0  0
    1.7481   -2.8412    0.0000 C   0  0  0  0  0  0  0  0  0  0  0  0
    0.2709   -3.1014    0.0000 H   0  0  0  0  0  0  0  0  0  0  0  0
    1.2353   -1.4316    0.0000 H   0  0  0  0  0  0  0  0  0  0  0  0
    1.7479   -4.3412    0.0000 C   0  0  0  0  0  0  0  0  0  0  0  0
    3.2251   -4.0809    0.0000 H   0  0  0  0  0  0  0  0  0  0  0  0
    2.2607   -5.7508    0.0000 H   0  0  0  0  0  0  0  0  0  0  0  0
    0.4487   -5.0910    0.0000 N   0  0  0  0  0  0  0  0  0  0  0  0
   -0.8502   -4.3408    0.0000 H   0  0  0  0  0  0  0  0  0  0  0  0
    0.4485   -6.5910    0.0000 C   0  0  0  0  0  0  0  0  0  0  0  0
    1.7474   -7.3412    0.0000 H   0  0  0  0  0  0  0  0  0  0  0  0
   -1.0287   -6.3303    0.0000 H   0  0  0  0  0  0  0  0  0  0  0  0
   -0.0648   -8.0004    0.0000 H   0  0  0  0  0  0  0  0  0  0  0  0
    1.7748   -0.5744    0.0000 C   0  0  0  0  0  0  0  0  0  0  0  0
    0.2967   -0.8346    0.0000 C   0  0  0  0  0  0  0  0  0  0  0  0
   -0.8540   -1.7968    0.0000 H   0  0  0  0  0  0  0  0  0  0  0  0
   -0.6590    0.3114    0.0000 C   0  0  0  0  0  0  0  0  0  0  0  0
   -2.1366    0.0532    0.0000 H   0  0  0  0  0  0  0  0  0  0  0  0
   -0.1460    1.7210    0.0000 C   0  0  0  0  0  0  0  0  0  0  0  0
   -1.1119    2.8686    0.0000 H   0  0  0  0  0  0  0  0  0  0  0  0
    1.3228    1.9845    0.0000 C   0  0  0  0  0  0  0  0  0  0  0  0
    2.2878    0.8351    0.0000 C   0  0  0  0  0  0  0  0  0  0  0  0
    3.7650    1.0958    0.0000 H   0  0  0  0  0  0  0  0  0  0  0  0
    1.8334    3.3949    0.0000 O   0  0  0  0  0  0  0  0  0  0  0  0
    0.8673    4.5424    0.0000 H   0  0  0  0  0  0  0  0  0  0  0  0
  1  2  1  0  0  0  0 
  1  3  1  0  0  0  0 
  1  4  1  0  0  0  0 
  1  5  1  0  0  0  0 
  5  6  2  0  0  0  0 
  6  7  1  0  0  0  0 
  7  8  1  0  0  0  0 
  7  9  2  0  0  0  0 
  9 10  1  0  0  0  0 
  9 11  1  0  0  0  0 
 11 12  1  0  0  0  0 
 11 13  2  0  0  0  0 
  5 13  1  0  0  0  0 
 13 14  1  0  0  0  0 
  6 15  1  0  0  0  0 
 16 15  1  6  0  0  0 
 16 17  1  1  0  0  0 
 16 18  1  0  0  0  0 
 18 19  1  0  0  0  0 
 18 20  1  0  0  0  0 
 18 21  1  0  0  0  0 
 21 22  1  0  0  0  0 
 21 23  1  0  0  0  0 
 21 24  1  0  0  0  0 
 24 25  1  0  0  0  0 
 24 26  1  0  0  0  0 
 26 27  1  0  0  0  0 
 26 28  1  0  0  0  0 
 26 29  1  0  0  0  0 
 16 30  1  0  0  0  0 
 30 31  2  0  0  0  0 
 31 32  1  0  0  0  0 
 31 33  1  0  0  0  0 
 33 34  1  0  0  0  0 
 33 35  2  0  0  0  0 
 35 36  1  0  0  0  0 
 35 37  1  0  0  0  0 
 37 38  2  0  0  0  0 
 30 38  1  0  0  0  0 
 38 39  1  0  0  0  0 
 37 40  1  0  0  0  0 
 40 41  1  0  0  0  0 
M  END
> <Rank>
7

> <Priority_score>
0.44

> <Reaction_type>
aromatic_hydroxylation_(meta_to_carbon)

> <Parent_ID>
37

> <Parent_InChI>
InChI=1S/C17H21NO/c1-14-8-6-7-11-16(14)19-17(12-13-18-2)15-9-4-3-5-10-15/h3-11,17-18H,12-13H2,1-2H3

> <Parent_SMILES>
CNCC[C@@H](Oc1ccccc1C)c1ccccc1

$$$$
Molecule 37_metabolite 8
  CDK     0516241031

 41 42  0  0  0  0  0  0  0  0999 V2000
   -2.1650   -1.3705    0.0000 C   0  0  0  0  0  0  0  0  0  0  0  0
   -0.8661   -0.6203    0.0000 H   0  0  0  0  0  0  0  0  0  0  0  0
   -2.6783    0.0390    0.0000 H   0  0  0  0  0  0  0  0  0  0  0  0
   -3.6422   -1.6312    0.0000 H   0  0  0  0  0  0  0  0  0  0  0  0
   -2.1648   -2.8705    0.0000 C   0  0  0  0  0  0  0  0  0  0  0  0
   -0.8657   -3.6205    0.0000 C   0  0  0  0  0  0  0  0  0  0  0  0
   -0.8662   -5.1213    0.0000 C   0  0  0  0  0  0  0  0  0  0  0  0
    0.4328   -5.8713    0.0000 H   0  0  0  0  0  0  0  0  0  0  0  0
   -2.1657   -5.8722    0.0000 C   0  0  0  0  0  0  0  0  0  0  0  0
   -2.1655   -7.3722    0.0000 H   0  0  0  0  0  0  0  0  0  0  0  0
   -3.4648   -5.1222    0.0000 C   0  0  0  0  0  0  0  0  0  0  0  0
   -4.7639   -5.8720    0.0000 H   0  0  0  0  0  0  0  0  0  0  0  0
   -3.4643   -3.6213    0.0000 C   0  0  0  0  0  0  0  0  0  0  0  0
   -4.7633   -2.8713    0.0000 H   0  0  0  0  0  0  0  0  0  0  0  0
    0.4334   -2.8707    0.0000 O   0  0  0  0  0  0  0  0  0  0  0  0
    2.1480   -3.8610    0.0000 C   0  0  2  0  0  0  0  0  0  0  0  0
    1.1836   -5.0099    0.0000 H   0  0  0  0  0  0  0  0  0  0  0  0
    3.4472   -3.1112    0.0000 C   0  0  0  0  0  0  0  0  0  0  0  0
    4.9244   -2.8510    0.0000 H   0  0  0  0  0  0  0  0  0  0  0  0
    3.9600   -4.5208    0.0000 H   0  0  0  0  0  0  0  0  0  0  0  0
    3.4474   -1.6112    0.0000 C   0  0  0  0  0  0  0  0  0  0  0  0
    1.9702   -1.8714    0.0000 H   0  0  0  0  0  0  0  0  0  0  0  0
    2.9346   -0.2016    0.0000 H   0  0  0  0  0  0  0  0  0  0  0  0
    4.7466   -0.8614    0.0000 N   0  0  0  0  0  0  0  0  0  0  0  0
    6.0455   -1.6116    0.0000 H   0  0  0  0  0  0  0  0  0  0  0  0
    4.7468    0.6386    0.0000 C   0  0  0  0  0  0  0  0  0  0  0  0
    3.4479    1.3888    0.0000 H   0  0  0  0  0  0  0  0  0  0  0  0
    6.2240    0.3779    0.0000 H   0  0  0  0  0  0  0  0  0  0  0  0
    5.2601    2.0481    0.0000 H   0  0  0  0  0  0  0  0  0  0  0  0
    3.4205   -5.3780    0.0000 C   0  0  0  0  0  0  0  0  0  0  0  0
    4.8964   -5.1105    0.0000 C   0  0  0  0  0  0  0  0  0  0  0  0
    6.0361   -4.1352    0.0000 H   0  0  0  0  0  0  0  0  0  0  0  0
    5.8609   -6.2263    0.0000 C   0  0  0  0  0  0  0  0  0  0  0  0
    7.3332   -5.9394    0.0000 H   0  0  0  0  0  0  0  0  0  0  0  0
    5.3637   -7.6885    0.0000 C   0  0  0  0  0  0  0  0  0  0  0  0
    3.8877   -7.9560    0.0000 C   0  0  0  0  0  0  0  0  0  0  0  0
    3.3698   -9.3637    0.0000 H   0  0  0  0  0  0  0  0  0  0  0  0
    2.9090   -6.7613    0.0000 C   0  0  0  0  0  0  0  0  0  0  0  0
    1.4296   -7.0094    0.0000 H   0  0  0  0  0  0  0  0  0  0  0  0
    6.3427   -8.8249    0.0000 O   0  0  0  0  0  0  0  0  0  0  0  0
    7.8164   -8.5452    0.0000 H   0  0  0  0  0  0  0  0  0  0  0  0
  1  2  1  0  0  0  0 
  1  3  1  0  0  0  0 
  1  4  1  0  0  0  0 
  1  5  1  0  0  0  0 
  5  6  2  0  0  0  0 
  6  7  1  0  0  0  0 
  7  8  1  0  0  0  0 
  7  9  2  0  0  0  0 
  9 10  1  0  0  0  0 
  9 11  1  0  0  0  0 
 11 12  1  0  0  0  0 
 11 13  2  0  0  0  0 
  5 13  1  0  0  0  0 
 13 14  1  0  0  0  0 
  6 15  1  0  0  0  0 
 16 15  1  6  0  0  0 
 16 17  1  1  0  0  0 
 16 18  1  0  0  0  0 
 18 19  1  0  0  0  0 
 18 20  1  0  0  0  0 
 18 21  1  0  0  0  0 
 21 22  1  0  0  0  0 
 21 23  1  0  0  0  0 
 21 24  1  0  0  0  0 
 24 25  1  0  0  0  0 
 24 26  1  0  0  0  0 
 26 27  1  0  0  0  0 
 26 28  1  0  0  0  0 
 26 29  1  0  0  0  0 
 16 30  1  0  0  0  0 
 30 31  2  0  0  0  0 
 31 32  1  0  0  0  0 
 31 33  1  0  0  0  0 
 33 34  1  0  0  0  0 
 33 35  2  0  0  0  0 
 35 36  1  0  0  0  0 
 36 37  1  0  0  0  0 
 36 38  2  0  0  0  0 
 30 38  1  0  0  0  0 
 38 39  1  0  0  0  0 
 35 40  1  0  0  0  0 
 40 41  1  0  0  0  0 
M  END
> <Rank>
7

> <Priority_score>
0.44

> <Reaction_type>
aromatic_hydroxylation_(para_to_carbon)

> <Parent_ID>
37

> <Parent_InChI>
InChI=1S/C17H21NO/c1-14-8-6-7-11-16(14)19-17(12-13-18-2)15-9-4-3-5-10-15/h3-11,17-18H,12-13H2,1-2H3

> <Parent_SMILES>
CNCC[C@@H](Oc1ccccc1C)c1ccccc1

$$$$
Molecule 37_metabolite 9
  CDK     0516241031

 45 46  0  0  0  0  0  0  0  0999 V2000
   -2.5445   -1.5896    0.0000 C   0  0  0  0  0  0  0  0  0  0  0  0
   -1.2456   -0.8394    0.0000 H   0  0  0  0  0  0  0  0  0  0  0  0
   -3.0578   -0.1802    0.0000 H   0  0  0  0  0  0  0  0  0  0  0  0
   -4.0217   -1.8503    0.0000 H   0  0  0  0  0  0  0  0  0  0  0  0
   -2.5443   -3.0896    0.0000 C   0  0  0  0  0  0  0  0  0  0  0  0
   -1.2453   -3.8396    0.0000 C   0  0  0  0  0  0  0  0  0  0  0  0
   -1.2457   -5.3405    0.0000 C   0  0  0  0  0  0  0  0  0  0  0  0
    0.0533   -6.0905    0.0000 H   0  0  0  0  0  0  0  0  0  0  0  0
   -2.5453   -6.0913    0.0000 C   0  0  0  0  0  0  0  0  0  0  0  0
   -2.5450   -7.5913    0.0000 H   0  0  0  0  0  0  0  0  0  0  0  0
   -3.8443   -5.3413    0.0000 C   0  0  0  0  0  0  0  0  0  0  0  0
   -5.1435   -6.0911    0.0000 H   0  0  0  0  0  0  0  0  0  0  0  0
   -3.8438   -3.8405    0.0000 C   0  0  0  0  0  0  0  0  0  0  0  0
   -5.1429   -3.0905    0.0000 H   0  0  0  0  0  0  0  0  0  0  0  0
    0.0539   -3.0898    0.0000 O   0  0  0  0  0  0  0  0  0  0  0  0
    1.7685   -4.0801    0.0000 C   0  0  2  0  0  0  0  0  0  0  0  0
    0.8041   -5.2290    0.0000 H   0  0  0  0  0  0  0  0  0  0  0  0
    3.0676   -3.3303    0.0000 C   0  0  0  0  0  0  0  0  0  0  0  0
    4.5449   -3.0701    0.0000 H   0  0  0  0  0  0  0  0  0  0  0  0
    3.5804   -4.7399    0.0000 H   0  0  0  0  0  0  0  0  0  0  0  0
    3.0679   -1.8303    0.0000 C   0  0  0  0  0  0  0  0  0  0  0  0
    1.5906   -2.0906    0.0000 H   0  0  0  0  0  0  0  0  0  0  0  0
    2.5551   -0.4207    0.0000 H   0  0  0  0  0  0  0  0  0  0  0  0
    4.3670   -1.0805    0.0000 N   0  0  0  0  0  0  0  0  0  0  0  0
    5.6659   -1.8307    0.0000 H   0  0  0  0  0  0  0  0  0  0  0  0
    4.3673    0.4195    0.0000 C   0  0  0  0  0  0  0  0  0  0  0  0
    3.0683    1.1697    0.0000 H   0  0  0  0  0  0  0  0  0  0  0  0
    5.8444    0.1588    0.0000 H   0  0  0  0  0  0  0  0  0  0  0  0
    4.8805    1.8289    0.0000 H   0  0  0  0  0  0  0  0  0  0  0  0
    3.0409   -5.5971    0.0000 C   0  0  0  0  0  0  0  0  0  0  0  0
    2.5269   -7.0072    0.0000 C   0  0  0  0  0  0  0  0  0  0  0  0
    1.0497   -7.2672    0.0000 H   0  0  0  0  0  0  0  0  0  0  0  0
    3.4909   -8.1564    0.0000 C   0  0  0  0  0  0  0  0  0  0  0  0
    2.9779   -9.5659    0.0000 H   0  0  0  0  0  0  0  0  0  0  0  0
    4.9689   -7.8955    0.0000 C   0  0  0  0  0  0  0  0  0  0  0  0
    5.4829   -6.4855    0.0000 C   0  0  0  0  0  0  0  0  0  0  0  0
    4.5189   -5.3362    0.0000 C   0  0  0  0  0  0  0  0  0  0  0  0
    5.0320   -3.9267    0.0000 H   0  0  0  0  0  0  0  0  0  0  0  0
    6.9602   -6.2255    0.0000 O   0  0  0  0  0  0  0  0  0  0  0  0
    7.9240   -7.3748    0.0000 C   0  0  0  0  0  0  0  0  0  0  0  0
    9.4013   -7.1148    0.0000 H   0  0  0  0  0  0  0  0  0  0  0  0
    6.6248   -8.1244    0.0000 H   0  0  0  0  0  0  0  0  0  0  0  0
    8.4366   -8.7845    0.0000 H   0  0  0  0  0  0  0  0  0  0  0  0
    5.9329   -9.0447    0.0000 O   0  0  0  0  0  0  0  0  0  0  0  0
    7.4102   -8.7845    0.0000 H   0  0  0  0  0  0  0  0  0  0  0  0
  1  2  1  0  0  0  0 
  1  3  1  0  0  0  0 
  1  4  1  0  0  0  0 
  1  5  1  0  0  0  0 
  5  6  2  0  0  0  0 
  6  7  1  0  0  0  0 
  7  8  1  0  0  0  0 
  7  9  2  0  0  0  0 
  9 10  1  0  0  0  0 
  9 11  1  0  0  0  0 
 11 12  1  0  0  0  0 
 11 13  2  0  0  0  0 
  5 13  1  0  0  0  0 
 13 14  1  0  0  0  0 
  6 15  1  0  0  0  0 
 16 15  1  6  0  0  0 
 16 17  1  1  0  0  0 
 16 18  1  0  0  0  0 
 18 19  1  0  0  0  0 
 18 20  1  0  0  0  0 
 18 21  1  0  0  0  0 
 21 22  1  0  0  0  0 
 21 23  1  0  0  0  0 
 21 24  1  0  0  0  0 
 24 25  1  0  0  0  0 
 24 26  1  0  0  0  0 
 26 27  1  0  0  0  0 
 26 28  1  0  0  0  0 
 26 29  1  0  0  0  0 
 16 30  1  0  0  0  0 
 30 31  2  0  0  0  0 
 31 32  1  0  0  0  0 
 31 33  1  0  0  0  0 
 33 34  1  0  0  0  0 
 33 35  2  0  0  0  0 
 35 36  1  0  0  0  0 
 36 37  2  0  0  0  0 
 30 37  1  0  0  0  0 
 37 38  1  0  0  0  0 
 36 39  1  0  0  0  0 
 39 40  1  0  0  0  0 
 40 41  1  0  0  0  0 
 40 42  1  0  0  0  0 
 40 43  1  0  0  0  0 
 35 44  1  0  0  0  0 
 44 45  1  0  0  0  0 
M  END
> <Rank>
7

> <Priority_score>
0.44

> <Reaction_type>
aromatic_oxidation

> <Parent_ID>
37

> <Parent_InChI>
InChI=1S/C17H21NO/c1-14-8-6-7-11-16(14)19-17(12-13-18-2)15-9-4-3-5-10-15/h3-11,17-18H,12-13H2,1-2H3

> <Parent_SMILES>
CNCC[C@@H](Oc1ccccc1C)c1ccccc1

$$$$
Molecule 37_metabolite 10
  CDK     0516241031

 41 42  0  0  0  0  0  0  0  0999 V2000
    2.7240    1.0892    0.0000 C   0  0  0  0  0  0  0  0  0  0  0  0
    1.4249    0.3394    0.0000 H   0  0  0  0  0  0  0  0  0  0  0  0
    3.2368   -0.3205    0.0000 H   0  0  0  0  0  0  0  0  0  0  0  0
    4.2013    1.3494    0.0000 H   0  0  0  0  0  0  0  0  0  0  0  0
    2.7242    2.5892    0.0000 C   0  0  0  0  0  0  0  0  0  0  0  0
    4.0233    3.3392    0.0000 C   0  0  0  0  0  0  0  0  0  0  0  0
    5.3224    2.5894    0.0000 H   0  0  0  0  0  0  0  0  0  0  0  0
    4.0228    4.8400    0.0000 C   0  0  0  0  0  0  0  0  0  0  0  0
    2.7233    5.5908    0.0000 C   0  0  0  0  0  0  0  0  0  0  0  0
    2.7235    7.0908    0.0000 H   0  0  0  0  0  0  0  0  0  0  0  0
    1.4242    4.8408    0.0000 C   0  0  0  0  0  0  0  0  0  0  0  0
    0.1251    5.5906    0.0000 H   0  0  0  0  0  0  0  0  0  0  0  0
    1.4247    3.3400    0.0000 C   0  0  0  0  0  0  0  0  0  0  0  0
    0.1257    2.5900    0.0000 O   0  0  0  0  0  0  0  0  0  0  0  0
   -1.1733    3.3400    0.0000 C   0  0  2  0  0  0  0  0  0  0  0  0
   -2.6506    3.6005    0.0000 H   0  0  0  0  0  0  0  0  0  0  0  0
   -1.1733    4.8400    0.0000 C   0  0  0  0  0  0  0  0  0  0  0  0
    0.3039    4.5795    0.0000 H   0  0  0  0  0  0  0  0  0  0  0  0
   -0.6603    6.2495    0.0000 H   0  0  0  0  0  0  0  0  0  0  0  0
   -2.8881    5.8300    0.0000 C   0  0  0  0  0  0  0  0  0  0  0  0
   -4.3653    6.0905    0.0000 H   0  0  0  0  0  0  0  0  0  0  0  0
   -3.4011    4.4205    0.0000 H   0  0  0  0  0  0  0  0  0  0  0  0
   -2.8881    7.3300    0.0000 N   0  0  0  0  0  0  0  0  0  0  0  0
   -1.5890    8.0800    0.0000 H   0  0  0  0  0  0  0  0  0  0  0  0
   -4.1871    8.0800    0.0000 C   0  0  0  0  0  0  0  0  0  0  0  0
   -5.4862    7.3300    0.0000 H   0  0  0  0  0  0  0  0  0  0  0  0
   -5.1513    9.2291    0.0000 H   0  0  0  0  0  0  0  0  0  0  0  0
   -3.2229    9.2291    0.0000 H   0  0  0  0  0  0  0  0  0  0  0  0
   -1.6864    1.9305    0.0000 C   0  0  0  0  0  0  0  0  0  0  0  0
   -0.7213    0.7811    0.0000 C   0  0  0  0  0  0  0  0  0  0  0  0
    0.7559    1.0418    0.0000 H   0  0  0  0  0  0  0  0  0  0  0  0
   -1.2343   -0.6285    0.0000 C   0  0  0  0  0  0  0  0  0  0  0  0
   -0.2703   -1.7777    0.0000 H   0  0  0  0  0  0  0  0  0  0  0  0
   -2.7124   -0.8886    0.0000 C   0  0  0  0  0  0  0  0  0  0  0  0
   -3.2255   -2.2982    0.0000 H   0  0  0  0  0  0  0  0  0  0  0  0
   -3.6775    0.2608    0.0000 C   0  0  0  0  0  0  0  0  0  0  0  0
   -5.1547    0.0001    0.0000 H   0  0  0  0  0  0  0  0  0  0  0  0
   -3.1645    1.6703    0.0000 C   0  0  0  0  0  0  0  0  0  0  0  0
   -4.1285    2.8195    0.0000 H   0  0  0  0  0  0  0  0  0  0  0  0
    5.3218    5.5900    0.0000 O   0  0  0  0  0  0  0  0  0  0  0  0
    6.6209    4.8400    0.0000 H   0  0  0  0  0  0  0  0  0  0  0  0
  1  2  1  0  0  0  0 
  1  3  1  0  0  0  0 
  1  4  1  0  0  0  0 
  1  5  1  0  0  0  0 
  5  6  2  0  0  0  0 
  6  7  1  0  0  0  0 
  6  8  1  0  0  0  0 
  8  9  2  0  0  0  0 
  9 10  1  0  0  0  0 
  9 11  1  0  0  0  0 
 11 12  1  0  0  0  0 
 11 13  2  0  0  0  0 
  5 13  1  0  0  0  0 
 13 14  1  0  0  0  0 
 14 15  1  0  0  0  0 
 15 16  1  6  0  0  0 
 15 17  1  0  0  0  0 
 17 18  1  0  0  0  0 
 17 19  1  0  0  0  0 
 17 20  1  0  0  0  0 
 20 21  1  0  0  0  0 
 20 22  1  0  0  0  0 
 20 23  1  0  0  0  0 
 23 24  1  0  0  0  0 
 23 25  1  0  0  0  0 
 25 26  1  0  0  0  0 
 25 27  1  0  0  0  0 
 25 28  1  0  0  0  0 
 15 29  1  1  0  0  0 
 29 30  2  0  0  0  0 
 30 31  1  0  0  0  0 
 30 32  1  0  0  0  0 
 32 33  1  0  0  0  0 
 32 34  2  0  0  0  0 
 34 35  1  0  0  0  0 
 34 36  1  0  0  0  0 
 36 37  1  0  0  0  0 
 36 38  2  0  0  0  0 
 29 38  1  0  0  0  0 
 38 39  1  0  0  0  0 
  8 40  1  0  0  0  0 
 40 41  1  0  0  0  0 
M  END
> <Rank>
10

> <Priority_score>
0.392

> <Reaction_type>
aromatic_hydroxylation_(para_to_oxygen)

> <Parent_ID>
37

> <Parent_InChI>
InChI=1S/C17H21NO/c1-14-8-6-7-11-16(14)19-17(12-13-18-2)15-9-4-3-5-10-15/h3-11,17-18H,12-13H2,1-2H3

> <Parent_SMILES>
CNCC[C@@H](Oc1ccccc1C)c1ccccc1

$$$$
Molecule 37_metabolite 11
  CDK     0516241031

 41 42  0  0  0  0  0  0  0  0999 V2000
   -6.8132   -0.1138    0.0000 C   0  0  0  0  0  0  0  0  0  0  0  0
   -5.5145    0.6369    0.0000 H   0  0  0  0  0  0  0  0  0  0  0  0
   -8.2903   -0.3749    0.0000 H   0  0  0  0  0  0  0  0  0  0  0  0
   -7.3269    1.2955    0.0000 H   0  0  0  0  0  0  0  0  0  0  0  0
   -6.8125   -1.6138    0.0000 C   0  0  0  0  0  0  0  0  0  0  0  0
   -8.1117   -2.3650    0.0000 C   0  0  0  0  0  0  0  0  0  0  0  0
   -9.4110   -1.6154    0.0000 H   0  0  0  0  0  0  0  0  0  0  0  0
   -8.1117   -3.8658    0.0000 C   0  0  0  0  0  0  0  0  0  0  0  0
   -9.4107   -4.6160    0.0000 H   0  0  0  0  0  0  0  0  0  0  0  0
   -6.8125   -4.6154    0.0000 C   0  0  0  0  0  0  0  0  0  0  0  0
   -5.5132   -3.8642    0.0000 C   0  0  0  0  0  0  0  0  0  0  0  0
   -4.2139   -4.6138    0.0000 H   0  0  0  0  0  0  0  0  0  0  0  0
   -5.5132   -2.3633    0.0000 C   0  0  0  0  0  0  0  0  0  0  0  0
   -4.2143   -1.6131    0.0000 O   0  0  0  0  0  0  0  0  0  0  0  0
   -2.9151   -2.3629    0.0000 C   0  0  2  0  0  0  0  0  0  0  0  0
   -1.4379   -2.6232    0.0000 H   0  0  0  0  0  0  0  0  0  0  0  0
   -2.9149   -3.8629    0.0000 C   0  0  0  0  0  0  0  0  0  0  0  0
   -4.3921   -3.6027    0.0000 H   0  0  0  0  0  0  0  0  0  0  0  0
   -3.4277   -5.2725    0.0000 H   0  0  0  0  0  0  0  0  0  0  0  0
   -1.2000   -4.8526    0.0000 C   0  0  0  0  0  0  0  0  0  0  0  0
    0.2773   -5.1129    0.0000 H   0  0  0  0  0  0  0  0  0  0  0  0
   -0.6872   -3.4430    0.0000 H   0  0  0  0  0  0  0  0  0  0  0  0
   -1.1997   -6.3526    0.0000 N   0  0  0  0  0  0  0  0  0  0  0  0
   -2.4987   -7.1029    0.0000 H   0  0  0  0  0  0  0  0  0  0  0  0
    0.0994   -7.1024    0.0000 C   0  0  0  0  0  0  0  0  0  0  0  0
    1.3983   -6.3522    0.0000 H   0  0  0  0  0  0  0  0  0  0  0  0
    1.0638   -8.2513    0.0000 H   0  0  0  0  0  0  0  0  0  0  0  0
   -0.8646   -8.2517    0.0000 H   0  0  0  0  0  0  0  0  0  0  0  0
   -2.4023   -0.9533    0.0000 C   0  0  0  0  0  0  0  0  0  0  0  0
   -3.3676    0.1959    0.0000 C   0  0  0  0  0  0  0  0  0  0  0  0
   -4.8447   -0.0650    0.0000 H   0  0  0  0  0  0  0  0  0  0  0  0
   -2.8548    1.6056    0.0000 C   0  0  0  0  0  0  0  0  0  0  0  0
   -3.8190    2.7546    0.0000 H   0  0  0  0  0  0  0  0  0  0  0  0
   -1.3767    1.8659    0.0000 C   0  0  0  0  0  0  0  0  0  0  0  0
   -0.8639    3.2756    0.0000 H   0  0  0  0  0  0  0  0  0  0  0  0
   -0.4114    0.7167    0.0000 C   0  0  0  0  0  0  0  0  0  0  0  0
    1.0657    0.9776    0.0000 H   0  0  0  0  0  0  0  0  0  0  0  0
   -0.9242   -0.6929    0.0000 C   0  0  0  0  0  0  0  0  0  0  0  0
    0.0399   -1.8420    0.0000 H   0  0  0  0  0  0  0  0  0  0  0  0
   -6.8117   -6.1154    0.0000 O   0  0  0  0  0  0  0  0  0  0  0  0
   -8.1104   -6.8660    0.0000 H   0  0  0  0  0  0  0  0  0  0  0  0
  1  2  1  0  0  0  0 
  1  3  1  0  0  0  0 
  1  4  1  0  0  0  0 
  1  5  1  0  0  0  0 
  5  6  2  0  0  0  0 
  6  7  1  0  0  0  0 
  6  8  1  0  0  0  0 
  8  9  1  0  0  0  0 
  8 10  2  0  0  0  0 
 10 11  1  0  0  0  0 
 11 12  1  0  0  0  0 
 11 13  2  0  0  0  0 
  5 13  1  0  0  0  0 
 13 14  1  0  0  0  0 
 14 15  1  0  0  0  0 
 15 16  1  6  0  0  0 
 15 17  1  0  0  0  0 
 17 18  1  0  0  0  0 
 17 19  1  0  0  0  0 
 17 20  1  0  0  0  0 
 20 21  1  0  0  0  0 
 20 22  1  0  0  0  0 
 20 23  1  0  0  0  0 
 23 24  1  0  0  0  0 
 23 25  1  0  0  0  0 
 25 26  1  0  0  0  0 
 25 27  1  0  0  0  0 
 25 28  1  0  0  0  0 
 15 29  1  1  0  0  0 
 29 30  2  0  0  0  0 
 30 31  1  0  0  0  0 
 30 32  1  0  0  0  0 
 32 33  1  0  0  0  0 
 32 34  2  0  0  0  0 
 34 35  1  0  0  0  0 
 34 36  1  0  0  0  0 
 36 37  1  0  0  0  0 
 36 38  2  0  0  0  0 
 29 38  1  0  0  0  0 
 38 39  1  0  0  0  0 
 10 40  1  0  0  0  0 
 40 41  1  0  0  0  0 
M  END
> <Rank>
10

> <Priority_score>
0.392

> <Reaction_type>
aromatic_hydroxylation_(para_to_carbon)

> <Parent_ID>
37

> <Parent_InChI>
InChI=1S/C17H21NO/c1-14-8-6-7-11-16(14)19-17(12-13-18-2)15-9-4-3-5-10-15/h3-11,17-18H,12-13H2,1-2H3

> <Parent_SMILES>
CNCC[C@@H](Oc1ccccc1C)c1ccccc1

$$$$
Molecule 37_metabolite 12
  CDK     0516241031

 41 42  0  0  0  0  0  0  0  0999 V2000
    5.9087    4.1455    0.0000 C   0  0  0  0  0  0  0  0  0  0  0  0
    7.2079    4.8953    0.0000 H   0  0  0  0  0  0  0  0  0  0  0  0
    4.9444    2.9966    0.0000 H   0  0  0  0  0  0  0  0  0  0  0  0
    6.8727    2.9963    0.0000 H   0  0  0  0  0  0  0  0  0  0  0  0
    4.6098    4.8957    0.0000 C   0  0  0  0  0  0  0  0  0  0  0  0
    4.6098    6.3957    0.0000 C   0  0  0  0  0  0  0  0  0  0  0  0
    5.9087    7.1459    0.0000 H   0  0  0  0  0  0  0  0  0  0  0  0
    3.3098    7.1457    0.0000 C   0  0  0  0  0  0  0  0  0  0  0  0
    3.3098    8.6457    0.0000 H   0  0  0  0  0  0  0  0  0  0  0  0
    2.0098    6.3957    0.0000 C   0  0  0  0  0  0  0  0  0  0  0  0
    0.7109    7.1459    0.0000 H   0  0  0  0  0  0  0  0  0  0  0  0
    2.0098    4.8957    0.0000 C   0  0  0  0  0  0  0  0  0  0  0  0
    3.3098    4.1457    0.0000 C   0  0  0  0  0  0  0  0  0  0  0  0
    3.3098    2.1657    0.0000 O   0  0  0  0  0  0  0  0  0  0  0  0
    2.0108    1.4157    0.0000 C   0  0  2  0  0  0  0  0  0  0  0  0
    1.4977    2.8253    0.0000 H   0  0  0  0  0  0  0  0  0  0  0  0
    2.0108   -0.0843    0.0000 C   0  0  0  0  0  0  0  0  0  0  0  0
    1.4977   -1.4938    0.0000 H   0  0  0  0  0  0  0  0  0  0  0  0
    0.5336    0.1762    0.0000 H   0  0  0  0  0  0  0  0  0  0  0  0
    3.3098   -0.8343    0.0000 C   0  0  0  0  0  0  0  0  0  0  0  0
    3.8228    0.5753    0.0000 H   0  0  0  0  0  0  0  0  0  0  0  0
    4.7870   -1.0948    0.0000 H   0  0  0  0  0  0  0  0  0  0  0  0
    3.3098   -2.3343    0.0000 N   0  0  0  0  0  0  0  0  0  0  0  0
    2.0108   -3.0843    0.0000 H   0  0  0  0  0  0  0  0  0  0  0  0
    4.6088   -3.0843    0.0000 C   0  0  0  0  0  0  0  0  0  0  0  0
    5.9079   -2.3343    0.0000 H   0  0  0  0  0  0  0  0  0  0  0  0
    3.6447   -4.2334    0.0000 H   0  0  0  0  0  0  0  0  0  0  0  0
    5.5730   -4.2334    0.0000 H   0  0  0  0  0  0  0  0  0  0  0  0
    0.0609    1.0719    0.0000 C   0  0  0  0  0  0  0  0  0  0  0  0
   -0.4520   -0.3386    0.0000 C   0  0  0  0  0  0  0  0  0  0  0  0
   -0.1913   -1.8158    0.0000 H   0  0  0  0  0  0  0  0  0  0  0  0
   -1.9292   -0.5991    0.0000 C   0  0  0  0  0  0  0  0  0  0  0  0
   -2.4425   -2.0085    0.0000 H   0  0  0  0  0  0  0  0  0  0  0  0
   -2.8936    0.5509    0.0000 C   0  0  0  0  0  0  0  0  0  0  0  0
   -4.3708    0.2905    0.0000 H   0  0  0  0  0  0  0  0  0  0  0  0
   -2.3807    1.9614    0.0000 C   0  0  0  0  0  0  0  0  0  0  0  0
   -3.3451    3.1103    0.0000 H   0  0  0  0  0  0  0  0  0  0  0  0
   -0.9035    2.2219    0.0000 C   0  0  0  0  0  0  0  0  0  0  0  0
   -0.3902    3.6314    0.0000 H   0  0  0  0  0  0  0  0  0  0  0  0
    0.7109    4.1455    0.0000 O   0  0  0  0  0  0  0  0  0  0  0  0
   -0.5883    4.8953    0.0000 H   0  0  0  0  0  0  0  0  0  0  0  0
  1  2  1  0  0  0  0 
  1  3  1  0  0  0  0 
  1  4  1  0  0  0  0 
  1  5  1  0  0  0  0 
  5  6  2  0  0  0  0 
  6  7  1  0  0  0  0 
  6  8  1  0  0  0  0 
  8  9  1  0  0  0  0 
  8 10  2  0  0  0  0 
 10 11  1  0  0  0  0 
 10 12  1  0  0  0  0 
 12 13  2  0  0  0  0 
  5 13  1  0  0  0  0 
 13 14  1  0  0  0  0 
 15 14  1  6  0  0  0 
 15 16  1  1  0  0  0 
 15 17  1  0  0  0  0 
 17 18  1  0  0  0  0 
 17 19  1  0  0  0  0 
 17 20  1  0  0  0  0 
 20 21  1  0  0  0  0 
 20 22  1  0  0  0  0 
 20 23  1  0  0  0  0 
 23 24  1  0  0  0  0 
 23 25  1  0  0  0  0 
 25 26  1  0  0  0  0 
 25 27  1  0  0  0  0 
 25 28  1  0  0  0  0 
 15 29  1  0  0  0  0 
 29 30  2  0  0  0  0 
 30 31  1  0  0  0  0 
 30 32  1  0  0  0  0 
 32 33  1  0  0  0  0 
 32 34  2  0  0  0  0 
 34 35  1  0  0  0  0 
 34 36  1  0  0  0  0 
 36 37  1  0  0  0  0 
 36 38  2  0  0  0  0 
 29 38  1  0  0  0  0 
 38 39  1  0  0  0  0 
 12 40  1  0  0  0  0 
 40 41  1  0  0  0  0 
M  END
> <Rank>
10

> <Priority_score>
0.392

> <Reaction_type>
aromatic_hydroxylation_(ortho_to_oxygen)

> <Parent_ID>
37

> <Parent_InChI>
InChI=1S/C17H21NO/c1-14-8-6-7-11-16(14)19-17(12-13-18-2)15-9-4-3-5-10-15/h3-11,17-18H,12-13H2,1-2H3

> <Parent_SMILES>
CNCC[C@@H](Oc1ccccc1C)c1ccccc1

$$$$
Molecule 37_metabolite 13
  CDK     0516241031

 41 42  0  0  0  0  0  0  0  0999 V2000
    7.1556   -3.9870    0.0000 C   0  0  0  0  0  0  0  0  0  0  0  0
    5.8566   -4.7372    0.0000 H   0  0  0  0  0  0  0  0  0  0  0  0
    7.6688   -5.3965    0.0000 H   0  0  0  0  0  0  0  0  0  0  0  0
    8.6327   -3.7263    0.0000 H   0  0  0  0  0  0  0  0  0  0  0  0
    7.1553   -2.4870    0.0000 C   0  0  0  0  0  0  0  0  0  0  0  0
    5.8563   -1.7370    0.0000 C   0  0  0  0  0  0  0  0  0  0  0  0
    5.8568   -0.2362    0.0000 C   0  0  0  0  0  0  0  0  0  0  0  0
    4.5577    0.5138    0.0000 H   0  0  0  0  0  0  0  0  0  0  0  0
    7.1563    0.5146    0.0000 C   0  0  0  0  0  0  0  0  0  0  0  0
    7.1560    2.0146    0.0000 H   0  0  0  0  0  0  0  0  0  0  0  0
    8.4553   -0.2354    0.0000 C   0  0  0  0  0  0  0  0  0  0  0  0
    9.7545    0.5144    0.0000 H   0  0  0  0  0  0  0  0  0  0  0  0
    8.4548   -1.7362    0.0000 C   0  0  0  0  0  0  0  0  0  0  0  0
    9.7539   -2.4862    0.0000 H   0  0  0  0  0  0  0  0  0  0  0  0
    4.1414   -2.7268    0.0000 O   0  0  0  0  0  0  0  0  0  0  0  0
    2.8425   -1.9766    0.0000 C   0  0  2  0  0  0  0  0  0  0  0  0
    3.8068   -0.8276    0.0000 H   0  0  0  0  0  0  0  0  0  0  0  0
    1.5433   -2.7263    0.0000 C   0  0  0  0  0  0  0  0  0  0  0  0
    0.0661   -2.9866    0.0000 H   0  0  0  0  0  0  0  0  0  0  0  0
    1.0305   -1.3167    0.0000 H   0  0  0  0  0  0  0  0  0  0  0  0
    1.5431   -4.2263    0.0000 C   0  0  0  0  0  0  0  0  0  0  0  0
    3.0203   -3.9661    0.0000 H   0  0  0  0  0  0  0  0  0  0  0  0
    0.2439   -4.9761    0.0000 N   0  0  0  0  0  0  0  0  0  0  0  0
   -1.0550   -4.2259    0.0000 H   0  0  0  0  0  0  0  0  0  0  0  0
    0.2437   -6.4761    0.0000 C   0  0  0  0  0  0  0  0  0  0  0  0
    1.5426   -7.2263    0.0000 H   0  0  0  0  0  0  0  0  0  0  0  0
   -1.2335   -6.2154    0.0000 H   0  0  0  0  0  0  0  0  0  0  0  0
   -0.2696   -7.8856    0.0000 H   0  0  0  0  0  0  0  0  0  0  0  0
    2.0559   -5.6360    0.0000 O   0  0  0  0  0  0  0  0  0  0  0  0
    3.5330   -5.8967    0.0000 H   0  0  0  0  0  0  0  0  0  0  0  0
    1.5700   -0.4596    0.0000 C   0  0  0  0  0  0  0  0  0  0  0  0
    0.0920   -0.7204    0.0000 C   0  0  0  0  0  0  0  0  0  0  0  0
   -1.0571   -1.6846    0.0000 H   0  0  0  0  0  0  0  0  0  0  0  0
   -0.8720    0.4288    0.0000 C   0  0  0  0  0  0  0  0  0  0  0  0
   -2.3493    0.1688    0.0000 H   0  0  0  0  0  0  0  0  0  0  0  0
   -0.3580    1.8389    0.0000 C   0  0  0  0  0  0  0  0  0  0  0  0
   -1.3220    2.9881    0.0000 H   0  0  0  0  0  0  0  0  0  0  0  0
    1.1200    2.0997    0.0000 C   0  0  0  0  0  0  0  0  0  0  0  0
    1.6330    3.5093    0.0000 H   0  0  0  0  0  0  0  0  0  0  0  0
    2.0840    0.9505    0.0000 C   0  0  0  0  0  0  0  0  0  0  0  0
    3.5613    1.2105    0.0000 H   0  0  0  0  0  0  0  0  0  0  0  0
  1  2  1  0  0  0  0 
  1  3  1  0  0  0  0 
  1  4  1  0  0  0  0 
  1  5  1  0  0  0  0 
  5  6  2  0  0  0  0 
  6  7  1  0  0  0  0 
  7  8  1  0  0  0  0 
  7  9  2  0  0  0  0 
  9 10  1  0  0  0  0 
  9 11  1  0  0  0  0 
 11 12  1  0  0  0  0 
 11 13  2  0  0  0  0 
  5 13  1  0  0  0  0 
 13 14  1  0  0  0  0 
  6 15  1  0  0  0  0 
 16 15  1  6  0  0  0 
 16 17  1  1  0  0  0 
 16 18  1  0  0  0  0 
 18 19  1  0  0  0  0 
 18 20  1  0  0  0  0 
 18 21  1  0  0  0  0 
 21 22  1  0  0  0  0 
 21 23  1  0  0  0  0 
 23 24  1  0  0  0  0 
 23 25  1  0  0  0  0 
 25 26  1  0  0  0  0 
 25 27  1  0  0  0  0 
 25 28  1  0  0  0  0 
 21 29  1  0  0  0  0 
 29 30  1  0  0  0  0 
 16 31  1  0  0  0  0 
 31 32  2  0  0  0  0 
 32 33  1  0  0  0  0 
 32 34  1  0  0  0  0 
 34 35  1  0  0  0  0 
 34 36  2  0  0  0  0 
 36 37  1  0  0  0  0 
 36 38  1  0  0  0  0 
 38 39  1  0  0  0  0 
 38 40  2  0  0  0  0 
 31 40  1  0  0  0  0 
 40 41  1  0  0  0  0 
M  END
> <Rank>
13

> <Priority_score>
0.144

> <Reaction_type>
aliphatic hydroxylation

> <Parent_ID>
37

> <Parent_InChI>
InChI=1S/C17H21NO/c1-14-8-6-7-11-16(14)19-17(12-13-18-2)15-9-4-3-5-10-15/h3-11,17-18H,12-13H2,1-2H3

> <Parent_SMILES>
CNCC[C@@H](Oc1ccccc1C)c1ccccc1

$$$$
Molecule 37_metabolite 14
  CDK     0516241031

 39 40  0  0  0  0  0  0  0  0999 V2000
   -1.7063   -1.0027    0.0000 C   0  0  0  0  0  0  0  0  0  0  0  0
   -0.4074   -0.2525    0.0000 H   0  0  0  0  0  0  0  0  0  0  0  0
   -2.2196    0.4067    0.0000 H   0  0  0  0  0  0  0  0  0  0  0  0
   -3.1835   -1.2634    0.0000 H   0  0  0  0  0  0  0  0  0  0  0  0
   -1.7061   -2.5027    0.0000 C   0  0  0  0  0  0  0  0  0  0  0  0
   -0.4070   -3.2527    0.0000 C   0  0  0  0  0  0  0  0  0  0  0  0
   -0.4075   -4.7535    0.0000 C   0  0  0  0  0  0  0  0  0  0  0  0
    0.8915   -5.5035    0.0000 H   0  0  0  0  0  0  0  0  0  0  0  0
   -1.7070   -5.5044    0.0000 C   0  0  0  0  0  0  0  0  0  0  0  0
   -1.7068   -7.0044    0.0000 H   0  0  0  0  0  0  0  0  0  0  0  0
   -3.0061   -4.7544    0.0000 C   0  0  0  0  0  0  0  0  0  0  0  0
   -4.3052   -5.5042    0.0000 H   0  0  0  0  0  0  0  0  0  0  0  0
   -3.0056   -3.2535    0.0000 C   0  0  0  0  0  0  0  0  0  0  0  0
   -4.3046   -2.5035    0.0000 H   0  0  0  0  0  0  0  0  0  0  0  0
    0.8921   -2.5029    0.0000 O   0  0  0  0  0  0  0  0  0  0  0  0
    2.6067   -3.4932    0.0000 C   0  0  2  0  0  0  0  0  0  0  0  0
    1.6423   -4.6421    0.0000 H   0  0  0  0  0  0  0  0  0  0  0  0
    3.9059   -2.7434    0.0000 C   0  0  0  0  0  0  0  0  0  0  0  0
    5.3831   -2.4832    0.0000 H   0  0  0  0  0  0  0  0  0  0  0  0
    4.4187   -4.1530    0.0000 H   0  0  0  0  0  0  0  0  0  0  0  0
    3.9061   -1.2434    0.0000 C   0  0  0  0  0  0  0  0  0  0  0  0
    2.4288   -1.5036    0.0000 H   0  0  0  0  0  0  0  0  0  0  0  0
    3.3933    0.1662    0.0000 H   0  0  0  0  0  0  0  0  0  0  0  0
    5.2052   -0.4936    0.0000 N   0  0  0  0  0  0  0  0  0  0  0  0
    6.5042   -1.2438    0.0000 H   0  0  0  0  0  0  0  0  0  0  0  0
    5.2055    1.0064    0.0000 C   0  0  0  0  0  0  0  0  0  0  0  0
    6.5046    1.7562    0.0000 H   0  0  0  0  0  0  0  0  0  0  0  0
    3.9066    1.7566    0.0000 H   0  0  0  0  0  0  0  0  0  0  0  0
    3.8792   -5.0102    0.0000 C   0  0  0  0  0  0  0  0  0  0  0  0
    5.3572   -4.7493    0.0000 C   0  0  0  0  0  0  0  0  0  0  0  0
    6.3213   -3.6003    0.0000 H   0  0  0  0  0  0  0  0  0  0  0  0
    6.3212   -5.8985    0.0000 C   0  0  0  0  0  0  0  0  0  0  0  0
    7.7985   -5.6385    0.0000 H   0  0  0  0  0  0  0  0  0  0  0  0
    5.8072   -7.3086    0.0000 C   0  0  0  0  0  0  0  0  0  0  0  0
    6.7712   -8.4578    0.0000 H   0  0  0  0  0  0  0  0  0  0  0  0
    4.3292   -7.5695    0.0000 C   0  0  0  0  0  0  0  0  0  0  0  0
    3.8161   -8.9790    0.0000 H   0  0  0  0  0  0  0  0  0  0  0  0
    3.3652   -6.4202    0.0000 C   0  0  0  0  0  0  0  0  0  0  0  0
    1.8879   -6.6802    0.0000 H   0  0  0  0  0  0  0  0  0  0  0  0
  1  2  1  0  0  0  0 
  1  3  1  0  0  0  0 
  1  4  1  0  0  0  0 
  1  5  1  0  0  0  0 
  5  6  2  0  0  0  0 
  6  7  1  0  0  0  0 
  7  8  1  0  0  0  0 
  7  9  2  0  0  0  0 
  9 10  1  0  0  0  0 
  9 11  1  0  0  0  0 
 11 12  1  0  0  0  0 
 11 13  2  0  0  0  0 
  5 13  1  0  0  0  0 
 13 14  1  0  0  0  0 
  6 15  1  0  0  0  0 
 16 15  1  6  0  0  0 
 16 17  1  1  0  0  0 
 16 18  1  0  0  0  0 
 18 19  1  0  0  0  0 
 18 20  1  0  0  0  0 
 18 21  1  0  0  0  0 
 21 22  1  0  0  0  0 
 21 23  1  0  0  0  0 
 21 24  1  0  0  0  0 
 24 25  1  0  0  0  0 
 24 26  2  0  0  0  0 
 26 27  1  0  0  0  0 
 26 28  1  0  0  0  0 
 16 29  1  0  0  0  0 
 29 30  2  0  0  0  0 
 30 31  1  0  0  0  0 
 30 32  1  0  0  0  0 
 32 33  1  0  0  0  0 
 32 34  2  0  0  0  0 
 34 35  1  0  0  0  0 
 34 36  1  0  0  0  0 
 36 37  1  0  0  0  0 
 36 38  2  0  0  0  0 
 29 38  1  0  0  0  0 
 38 39  1  0  0  0  0 
M  CHG  1  24   1
M  END
> <Rank>
14

> <Priority_score>
0.1424

> <Reaction_type>
dehydration of N-C bond

> <Parent_ID>
37

> <Parent_InChI>
InChI=1S/C17H21NO/c1-14-8-6-7-11-16(14)19-17(12-13-18-2)15-9-4-3-5-10-15/h3-11,17-18H,12-13H2,1-2H3

> <Parent_SMILES>
CNCC[C@@H](Oc1ccccc1C)c1ccccc1

$$$$
Molecule 37_metabolite 15
  CDK     0516241031

 40 41  0  0  0  0  0  0  0  0999 V2000
    5.1102    7.9480    0.0000 C   0  0  0  0  0  0  0  0  0  0  0  0
    5.6233    6.5384    0.0000 H   0  0  0  0  0  0  0  0  0  0  0  0
    5.1102    9.4480    0.0000 H   0  0  0  0  0  0  0  0  0  0  0  0
    6.5874    8.2085    0.0000 H   0  0  0  0  0  0  0  0  0  0  0  0
    3.6330    8.2085    0.0000 N   0  0  0  0  0  0  0  0  0  0  0  0
    3.1200    9.6180    0.0000 H   0  0  0  0  0  0  0  0  0  0  0  0
    2.6688    7.0594    0.0000 C   0  0  0  0  0  0  0  0  0  0  0  0
    2.1558    5.6498    0.0000 H   0  0  0  0  0  0  0  0  0  0  0  0
    3.9679    6.3094    0.0000 H   0  0  0  0  0  0  0  0  0  0  0  0
    1.1916    7.3199    0.0000 C   0  0  0  0  0  0  0  0  0  0  0  0
    1.7047    8.7294    0.0000 H   0  0  0  0  0  0  0  0  0  0  0  0
   -0.1074    8.0699    0.0000 H   0  0  0  0  0  0  0  0  0  0  0  0
    0.2274    6.1708    0.0000 C   0  0  2  0  0  0  0  0  0  0  0  0
   -1.0716    5.4208    0.0000 H   0  0  0  0  0  0  0  0  0  0  0  0
    0.9046    4.3102    0.0000 C   0  0  0  0  0  0  0  0  0  0  0  0
   -0.0604    3.1608    0.0000 C   0  0  0  0  0  0  0  0  0  0  0  0
   -1.5376    3.4215    0.0000 H   0  0  0  0  0  0  0  0  0  0  0  0
    0.4526    1.7513    0.0000 C   0  0  0  0  0  0  0  0  0  0  0  0
   -0.5114    0.6020    0.0000 H   0  0  0  0  0  0  0  0  0  0  0  0
    1.9307    1.4911    0.0000 C   0  0  0  0  0  0  0  0  0  0  0  0
    2.4437    0.0816    0.0000 H   0  0  0  0  0  0  0  0  0  0  0  0
    2.8958    2.6405    0.0000 C   0  0  0  0  0  0  0  0  0  0  0  0
    4.3730    2.3798    0.0000 H   0  0  0  0  0  0  0  0  0  0  0  0
    2.3828    4.0501    0.0000 C   0  0  0  0  0  0  0  0  0  0  0  0
    3.3468    5.1993    0.0000 H   0  0  0  0  0  0  0  0  0  0  0  0
   -0.7367    7.3199    0.0000 O   0  0  0  0  0  0  0  0  0  0  0  0
   -2.2140    7.0594    0.0000 C   0  0  0  0  0  0  0  0  0  0  0  0
   -3.1783    8.2083    0.0000 C   0  0  0  0  0  0  0  0  0  0  0  0
   -4.6562    7.9470    0.0000 C   0  0  0  0  0  0  0  0  0  0  0  0
   -5.6206    9.0959    0.0000 H   0  0  0  0  0  0  0  0  0  0  0  0
   -5.1698    6.5367    0.0000 C   0  0  0  0  0  0  0  0  0  0  0  0
   -6.6470    6.2763    0.0000 H   0  0  0  0  0  0  0  0  0  0  0  0
   -4.2054    5.3878    0.0000 C   0  0  0  0  0  0  0  0  0  0  0  0
   -4.7180    3.9781    0.0000 H   0  0  0  0  0  0  0  0  0  0  0  0
   -2.7275    5.6491    0.0000 C   0  0  0  0  0  0  0  0  0  0  0  0
   -1.7631    4.5002    0.0000 H   0  0  0  0  0  0  0  0  0  0  0  0
   -2.6657    9.6180    0.0000 C   0  0  0  0  0  0  0  0  0  0  0  0
   -1.1886    9.8789    0.0000 O   0  0  0  0  0  0  0  0  0  0  0  0
   -3.6303   10.7668    0.0000 O   0  0  0  0  0  0  0  0  0  0  0  0
   -5.1074   10.5058    0.0000 H   0  0  0  0  0  0  0  0  0  0  0  0
  1  2  1  0  0  0  0 
  1  3  1  0  0  0  0 
  1  4  1  0  0  0  0 
  1  5  1  0  0  0  0 
  5  6  1  0  0  0  0 
  5  7  1  0  0  0  0 
  7  8  1  0  0  0  0 
  7  9  1  0  0  0  0 
  7 10  1  0  0  0  0 
 10 11  1  0  0  0  0 
 10 12  1  0  0  0  0 
 10 13  1  0  0  0  0 
 13 14  1  1  0  0  0 
 13 15  1  0  0  0  0 
 15 16  2  0  0  0  0 
 16 17  1  0  0  0  0 
 16 18  1  0  0  0  0 
 18 19  1  0  0  0  0 
 18 20  2  0  0  0  0 
 20 21  1  0  0  0  0 
 20 22  1  0  0  0  0 
 22 23  1  0  0  0  0 
 22 24  2  0  0  0  0 
 15 24  1  0  0  0  0 
 24 25  1  0  0  0  0 
 13 26  1  6  0  0  0 
 26 27  1  0  0  0  0 
 27 28  2  0  0  0  0 
 28 29  1  0  0  0  0 
 29 30  1  0  0  0  0 
 29 31  2  0  0  0  0 
 31 32  1  0  0  0  0 
 31 33  1  0  0  0  0 
 33 34  1  0  0  0  0 
 33 35  2  0  0  0  0 
 27 35  1  0  0  0  0 
 35 36  1  0  0  0  0 
 28 37  1  0  0  0  0 
 37 38  2  0  0  0  0 
 37 39  1  0  0  0  0 
 39 40  1  0  0  0  0 
M  END
> <Rank>
15

> <Priority_score>
0.14

> <Reaction_type>
carboxylation_(benzylic_CH3)

> <Parent_ID>
37

> <Parent_InChI>
InChI=1S/C17H21NO/c1-14-8-6-7-11-16(14)19-17(12-13-18-2)15-9-4-3-5-10-15/h3-11,17-18H,12-13H2,1-2H3

> <Parent_SMILES>
CNCC[C@@H](Oc1ccccc1C)c1ccccc1

$$$$
Molecule 37_metabolite 16
  CDK     0516241031

 41 42  0  0  0  0  0  0  0  0999 V2000
    5.1102    7.9474    0.0000 C   0  0  0  0  0  0  0  0  0  0  0  0
    5.6233    6.5378    0.0000 H   0  0  0  0  0  0  0  0  0  0  0  0
    5.1102    9.4474    0.0000 H   0  0  0  0  0  0  0  0  0  0  0  0
    6.5874    8.2078    0.0000 H   0  0  0  0  0  0  0  0  0  0  0  0
    3.6330    8.2078    0.0000 N   0  0  0  0  0  0  0  0  0  0  0  0
    3.1200    9.6174    0.0000 H   0  0  0  0  0  0  0  0  0  0  0  0
    2.6688    7.0588    0.0000 C   0  0  0  0  0  0  0  0  0  0  0  0
    2.1558    5.6492    0.0000 H   0  0  0  0  0  0  0  0  0  0  0  0
    3.9679    6.3088    0.0000 H   0  0  0  0  0  0  0  0  0  0  0  0
    1.1916    7.3192    0.0000 C   0  0  0  0  0  0  0  0  0  0  0  0
    1.7047    8.7288    0.0000 H   0  0  0  0  0  0  0  0  0  0  0  0
   -0.1074    8.0692    0.0000 H   0  0  0  0  0  0  0  0  0  0  0  0
    0.2274    6.1702    0.0000 C   0  0  2  0  0  0  0  0  0  0  0  0
   -1.0716    5.4202    0.0000 H   0  0  0  0  0  0  0  0  0  0  0  0
    0.9046    4.3096    0.0000 C   0  0  0  0  0  0  0  0  0  0  0  0
   -0.0604    3.1602    0.0000 C   0  0  0  0  0  0  0  0  0  0  0  0
   -1.5376    3.4209    0.0000 H   0  0  0  0  0  0  0  0  0  0  0  0
    0.4526    1.7506    0.0000 C   0  0  0  0  0  0  0  0  0  0  0  0
   -0.5114    0.6014    0.0000 H   0  0  0  0  0  0  0  0  0  0  0  0
    1.9307    1.4905    0.0000 C   0  0  0  0  0  0  0  0  0  0  0  0
    2.4437    0.0810    0.0000 H   0  0  0  0  0  0  0  0  0  0  0  0
    2.8958    2.6399    0.0000 C   0  0  0  0  0  0  0  0  0  0  0  0
    4.3730    2.3792    0.0000 H   0  0  0  0  0  0  0  0  0  0  0  0
    2.3828    4.0494    0.0000 C   0  0  0  0  0  0  0  0  0  0  0  0
    3.3468    5.1987    0.0000 H   0  0  0  0  0  0  0  0  0  0  0  0
   -0.7367    7.3192    0.0000 O   0  0  0  0  0  0  0  0  0  0  0  0
   -2.2140    7.0588    0.0000 C   0  0  0  0  0  0  0  0  0  0  0  0
   -3.1783    8.2077    0.0000 C   0  0  0  0  0  0  0  0  0  0  0  0
   -4.6562    7.9464    0.0000 C   0  0  0  0  0  0  0  0  0  0  0  0
   -5.6206    9.0953    0.0000 H   0  0  0  0  0  0  0  0  0  0  0  0
   -5.1698    6.5361    0.0000 C   0  0  0  0  0  0  0  0  0  0  0  0
   -6.6470    6.2756    0.0000 H   0  0  0  0  0  0  0  0  0  0  0  0
   -4.2054    5.3872    0.0000 C   0  0  0  0  0  0  0  0  0  0  0  0
   -4.7180    3.9775    0.0000 H   0  0  0  0  0  0  0  0  0  0  0  0
   -2.7275    5.6485    0.0000 C   0  0  0  0  0  0  0  0  0  0  0  0
   -1.7631    4.4996    0.0000 H   0  0  0  0  0  0  0  0  0  0  0  0
   -2.6657    9.6174    0.0000 C   0  0  0  0  0  0  0  0  0  0  0  0
   -1.3665    8.8678    0.0000 H   0  0  0  0  0  0  0  0  0  0  0  0
   -1.7019   10.7668    0.0000 H   0  0  0  0  0  0  0  0  0  0  0  0
   -3.6303   10.7661    0.0000 O   0  0  0  0  0  0  0  0  0  0  0  0
   -5.1074   10.5052    0.0000 H   0  0  0  0  0  0  0  0  0  0  0  0
  1  2  1  0  0  0  0 
  1  3  1  0  0  0  0 
  1  4  1  0  0  0  0 
  1  5  1  0  0  0  0 
  5  6  1  0  0  0  0 
  5  7  1  0  0  0  0 
  7  8  1  0  0  0  0 
  7  9  1  0  0  0  0 
  7 10  1  0  0  0  0 
 10 11  1  0  0  0  0 
 10 12  1  0  0  0  0 
 10 13  1  0  0  0  0 
 13 14  1  1  0  0  0 
 13 15  1  0  0  0  0 
 15 16  2  0  0  0  0 
 16 17  1  0  0  0  0 
 16 18  1  0  0  0  0 
 18 19  1  0  0  0  0 
 18 20  2  0  0  0  0 
 20 21  1  0  0  0  0 
 20 22  1  0  0  0  0 
 22 23  1  0  0  0  0 
 22 24  2  0  0  0  0 
 15 24  1  0  0  0  0 
 24 25  1  0  0  0  0 
 13 26  1  6  0  0  0 
 26 27  1  0  0  0  0 
 27 28  2  0  0  0  0 
 28 29  1  0  0  0  0 
 29 30  1  0  0  0  0 
 29 31  2  0  0  0  0 
 31 32  1  0  0  0  0 
 31 33  1  0  0  0  0 
 33 34  1  0  0  0  0 
 33 35  2  0  0  0  0 
 27 35  1  0  0  0  0 
 35 36  1  0  0  0  0 
 28 37  1  0  0  0  0 
 37 38  1  0  0  0  0 
 37 39  1  0  0  0  0 
 37 40  1  0  0  0  0 
 40 41  1  0  0  0  0 
M  END
> <Rank>
15

> <Priority_score>
0.14

> <Reaction_type>
benzylic_hydroxylation_(c-CH3)

> <Parent_ID>
37

> <Parent_InChI>
InChI=1S/C17H21NO/c1-14-8-6-7-11-16(14)19-17(12-13-18-2)15-9-4-3-5-10-15/h3-11,17-18H,12-13H2,1-2H3

> <Parent_SMILES>
CNCC[C@@H](Oc1ccccc1C)c1ccccc1

$$$$
Molecule 37_metabolite 17
  CDK     0516241031

 41 42  0  0  0  0  0  0  0  0999 V2000
   -6.1193    0.2600    0.0000 C   0  0  0  0  0  0  0  0  0  0  0  0
   -7.4182    1.0102    0.0000 H   0  0  0  0  0  0  0  0  0  0  0  0
   -4.6421   -0.0007    0.0000 H   0  0  0  0  0  0  0  0  0  0  0  0
   -5.6060    1.6695    0.0000 H   0  0  0  0  0  0  0  0  0  0  0  0
   -6.1195   -1.2400    0.0000 C   0  0  0  0  0  0  0  0  0  0  0  0
   -4.8200   -1.9908    0.0000 C   0  0  0  0  0  0  0  0  0  0  0  0
   -4.8218   -3.5276    0.0000 C   0  0  0  0  0  0  0  0  0  0  0  0
   -3.5232   -4.2784    0.0000 H   0  0  0  0  0  0  0  0  0  0  0  0
   -6.1209   -4.2776    0.0000 C   0  0  0  0  0  0  0  0  0  0  0  0
   -6.1254   -5.7776    0.0000 H   0  0  0  0  0  0  0  0  0  0  0  0
   -7.4117   -3.5218    0.0000 C   0  0  0  0  0  0  0  0  0  0  0  0
   -8.7135   -4.2670    0.0000 H   0  0  0  0  0  0  0  0  0  0  0  0
   -7.4099   -1.9850    0.0000 C   0  0  0  0  0  0  0  0  0  0  0  0
   -8.7085   -1.2342    0.0000 O   0  0  0  0  0  0  0  0  0  0  0  0
  -10.0080   -1.9834    0.0000 H   0  0  0  0  0  0  0  0  0  0  0  0
   -3.5204   -1.2418    0.0000 O   0  0  0  0  0  0  0  0  0  0  0  0
   -1.8064   -2.2331    0.0000 C   0  0  2  0  0  0  0  0  0  0  0  0
   -2.7715   -3.3814    0.0000 H   0  0  0  0  0  0  0  0  0  0  0  0
   -0.5068   -1.4841    0.0000 C   0  0  0  0  0  0  0  0  0  0  0  0
    0.9706   -1.2247    0.0000 H   0  0  0  0  0  0  0  0  0  0  0  0
    0.0052   -2.8940    0.0000 H   0  0  0  0  0  0  0  0  0  0  0  0
   -0.5057    0.0159    0.0000 C   0  0  0  0  0  0  0  0  0  0  0  0
   -1.9831   -0.2434    0.0000 H   0  0  0  0  0  0  0  0  0  0  0  0
   -1.0176    1.4259    0.0000 H   0  0  0  0  0  0  0  0  0  0  0  0
    0.7940    0.7649    0.0000 N   0  0  0  0  0  0  0  0  0  0  0  0
    2.0924    0.0140    0.0000 H   0  0  0  0  0  0  0  0  0  0  0  0
    0.7951    2.2649    0.0000 C   0  0  0  0  0  0  0  0  0  0  0  0
   -0.5034    3.0159    0.0000 H   0  0  0  0  0  0  0  0  0  0  0  0
    2.2721    2.0033    0.0000 H   0  0  0  0  0  0  0  0  0  0  0  0
    1.3092    3.6741    0.0000 H   0  0  0  0  0  0  0  0  0  0  0  0
   -0.5348   -3.7508    0.0000 C   0  0  0  0  0  0  0  0  0  0  0  0
    0.9433   -3.4909    0.0000 C   0  0  0  0  0  0  0  0  0  0  0  0
    2.0930   -2.5274    0.0000 H   0  0  0  0  0  0  0  0  0  0  0  0
    1.9066   -4.6406    0.0000 C   0  0  0  0  0  0  0  0  0  0  0  0
    3.3841   -4.3815    0.0000 H   0  0  0  0  0  0  0  0  0  0  0  0
    1.3918   -6.0504    0.0000 C   0  0  0  0  0  0  0  0  0  0  0  0
    2.3551   -7.2002    0.0000 H   0  0  0  0  0  0  0  0  0  0  0  0
   -0.0864   -6.3104    0.0000 C   0  0  0  0  0  0  0  0  0  0  0  0
   -0.6002   -7.7196    0.0000 H   0  0  0  0  0  0  0  0  0  0  0  0
   -1.0497   -5.1606    0.0000 C   0  0  0  0  0  0  0  0  0  0  0  0
   -2.5271   -5.4197    0.0000 H   0  0  0  0  0  0  0  0  0  0  0  0
  1  2  1  0  0  0  0 
  1  3  1  0  0  0  0 
  1  4  1  0  0  0  0 
  1  5  1  0  0  0  0 
  5  6  2  0  0  0  0 
  6  7  1  0  0  0  0 
  7  8  1  0  0  0  0 
  7  9  2  0  0  0  0 
  9 10  1  0  0  0  0 
  9 11  1  0  0  0  0 
 11 12  1  0  0  0  0 
 11 13  2  0  0  0  0 
  5 13  1  0  0  0  0 
 13 14  1  0  0  0  0 
 14 15  1  0  0  0  0 
  6 16  1  0  0  0  0 
 17 16  1  6  0  0  0 
 17 18  1  1  0  0  0 
 17 19  1  0  0  0  0 
 19 20  1  0  0  0  0 
 19 21  1  0  0  0  0 
 19 22  1  0  0  0  0 
 22 23  1  0  0  0  0 
 22 24  1  0  0  0  0 
 22 25  1  0  0  0  0 
 25 26  1  0  0  0  0 
 25 27  1  0  0  0  0 
 27 28  1  0  0  0  0 
 27 29  1  0  0  0  0 
 27 30  1  0  0  0  0 
 17 31  1  0  0  0  0 
 31 32  2  0  0  0  0 
 32 33  1  0  0  0  0 
 32 34  1  0  0  0  0 
 34 35  1  0  0  0  0 
 34 36  2  0  0  0  0 
 36 37  1  0  0  0  0 
 36 38  1  0  0  0  0 
 38 39  1  0  0  0  0 
 38 40  2  0  0  0  0 
 31 40  1  0  0  0  0 
 40 41  1  0  0  0  0 
M  END
> <Rank>
17

> <Priority_score>
0.1304709086846238

> <Reaction_type>
aromatic hydroxylation

> <Parent_ID>
37

> <Parent_InChI>
InChI=1S/C17H21NO/c1-14-8-6-7-11-16(14)19-17(12-13-18-2)15-9-4-3-5-10-15/h3-11,17-18H,12-13H2,1-2H3

> <Parent_SMILES>
CNCC[C@@H](Oc1ccccc1C)c1ccccc1

$$$$
Molecule 37_metabolite 18
  CDK     0516241031

 25 25  0  0  0  0  0  0  0  0999 V2000
   -4.6215    5.5311    0.0000 C   0  0  0  0  0  0  0  0  0  0  0  0
   -3.8715    6.8301    0.0000 H   0  0  0  0  0  0  0  0  0  0  0  0
   -5.7706    4.5669    0.0000 H   0  0  0  0  0  0  0  0  0  0  0  0
   -5.7706    6.4953    0.0000 H   0  0  0  0  0  0  0  0  0  0  0  0
   -3.8715    4.2321    0.0000 N   0  0  0  0  0  0  0  0  0  0  0  0
   -4.6215    2.9330    0.0000 H   0  0  0  0  0  0  0  0  0  0  0  0
   -2.3715    4.2321    0.0000 C   0  0  0  0  0  0  0  0  0  0  0  0
   -0.9620    4.7451    0.0000 H   0  0  0  0  0  0  0  0  0  0  0  0
   -2.6320    5.7093    0.0000 H   0  0  0  0  0  0  0  0  0  0  0  0
   -1.6215    2.9330    0.0000 C   0  0  0  0  0  0  0  0  0  0  0  0
   -3.0311    2.4200    0.0000 H   0  0  0  0  0  0  0  0  0  0  0  0
   -1.3610    1.4558    0.0000 H   0  0  0  0  0  0  0  0  0  0  0  0
   -0.1215    2.9330    0.0000 C   0  0  0  0  0  0  0  0  0  0  0  0
    0.6285    4.2321    0.0000 O   0  0  0  0  0  0  0  0  0  0  0  0
    0.6285    1.6340    0.0000 C   0  0  0  0  0  0  0  0  0  0  0  0
    2.1293    1.6345    0.0000 C   0  0  0  0  0  0  0  0  0  0  0  0
    2.8791    2.9336    0.0000 H   0  0  0  0  0  0  0  0  0  0  0  0
    2.8793    0.3354    0.0000 C   0  0  0  0  0  0  0  0  0  0  0  0
    4.3793    0.3352    0.0000 H   0  0  0  0  0  0  0  0  0  0  0  0
    2.1285   -0.9641    0.0000 C   0  0  0  0  0  0  0  0  0  0  0  0
    2.8785   -2.2631    0.0000 H   0  0  0  0  0  0  0  0  0  0  0  0
    0.6277   -0.9646    0.0000 C   0  0  0  0  0  0  0  0  0  0  0  0
   -0.1221   -2.2637    0.0000 H   0  0  0  0  0  0  0  0  0  0  0  0
   -0.1223    0.3345    0.0000 C   0  0  0  0  0  0  0  0  0  0  0  0
   -1.6223    0.3347    0.0000 H   0  0  0  0  0  0  0  0  0  0  0  0
  1  2  1  0  0  0  0 
  1  3  1  0  0  0  0 
  1  4  1  0  0  0  0 
  1  5  1  0  0  0  0 
  5  6  1  0  0  0  0 
  5  7  1  0  0  0  0 
  7  8  1  0  0  0  0 
  7  9  1  0  0  0  0 
  7 10  1  0  0  0  0 
 10 11  1  0  0  0  0 
 10 12  1  0  0  0  0 
 10 13  1  0  0  0  0 
 13 14  2  0  0  0  0 
 13 15  1  0  0  0  0 
 15 16  2  0  0  0  0 
 16 17  1  0  0  0  0 
 16 18  1  0  0  0  0 
 18 19  1  0  0  0  0 
 18 20  2  0  0  0  0 
 20 21  1  0  0  0  0 
 20 22  1  0  0  0  0 
 22 23  1  0  0  0  0 
 22 24  2  0  0  0  0 
 15 24  1  0  0  0  0 
 24 25  1  0  0  0  0 
M  END
> <Rank>
18

> <Priority_score>
0.124

> <Reaction_type>
oxidative ether cleavage to one alcohol and one aldehyde/ketone

> <Parent_ID>
37

> <Parent_InChI>
InChI=1S/C17H21NO/c1-14-8-6-7-11-16(14)19-17(12-13-18-2)15-9-4-3-5-10-15/h3-11,17-18H,12-13H2,1-2H3

> <Parent_SMILES>
CNCC[C@@H](Oc1ccccc1C)c1ccccc1

$$$$
Molecule 37_metabolite 19
  CDK     0516241031

 16 16  0  0  0  0  0  0  0  0999 V2000
    0.3242   -2.4384    0.0000 C   0  0  0  0  0  0  0  0  0  0  0  0
   -0.9747   -3.1886    0.0000 H   0  0  0  0  0  0  0  0  0  0  0  0
    0.8375   -3.8479    0.0000 H   0  0  0  0  0  0  0  0  0  0  0  0
    1.8014   -2.1777    0.0000 H   0  0  0  0  0  0  0  0  0  0  0  0
    0.3240   -0.9384    0.0000 C   0  0  0  0  0  0  0  0  0  0  0  0
   -0.9751   -0.1884    0.0000 C   0  0  0  0  0  0  0  0  0  0  0  0
   -0.9746    1.3124    0.0000 C   0  0  0  0  0  0  0  0  0  0  0  0
   -2.2736    2.0624    0.0000 H   0  0  0  0  0  0  0  0  0  0  0  0
    0.3249    2.0632    0.0000 C   0  0  0  0  0  0  0  0  0  0  0  0
    0.3247    3.5632    0.0000 H   0  0  0  0  0  0  0  0  0  0  0  0
    1.6240    1.3132    0.0000 C   0  0  0  0  0  0  0  0  0  0  0  0
    2.9231    2.0630    0.0000 H   0  0  0  0  0  0  0  0  0  0  0  0
    1.6235   -0.1876    0.0000 C   0  0  0  0  0  0  0  0  0  0  0  0
    2.9225   -0.9376    0.0000 H   0  0  0  0  0  0  0  0  0  0  0  0
   -2.2742   -0.9382    0.0000 O   0  0  0  0  0  0  0  0  0  0  0  0
   -3.5731   -0.1880    0.0000 H   0  0  0  0  0  0  0  0  0  0  0  0
  1  2  1  0  0  0  0 
  1  3  1  0  0  0  0 
  1  4  1  0  0  0  0 
  1  5  1  0  0  0  0 
  5  6  2  0  0  0  0 
  6  7  1  0  0  0  0 
  7  8  1  0  0  0  0 
  7  9  2  0  0  0  0 
  9 10  1  0  0  0  0 
  9 11  1  0  0  0  0 
 11 12  1  0  0  0  0 
 11 13  2  0  0  0  0 
  5 13  1  0  0  0  0 
 13 14  1  0  0  0  0 
  6 15  1  0  0  0  0 
 15 16  1  0  0  0  0 
M  END
> <Rank>
18

> <Priority_score>
0.124

> <Reaction_type>
O-dealkylation_(aromatic)

> <Parent_ID>
37

> <Parent_InChI>
InChI=1S/C17H21NO/c1-14-8-6-7-11-16(14)19-17(12-13-18-2)15-9-4-3-5-10-15/h3-11,17-18H,12-13H2,1-2H3

> <Parent_SMILES>
CNCC[C@@H](Oc1ccccc1C)c1ccccc1

$$$$
Molecule 37_metabolite 20
  CDK     0516241031

 27 27  0  0  0  0  0  0  0  0999 V2000
   -4.6537    5.4111    0.0000 C   0  0  0  0  0  0  0  0  0  0  0  0
   -3.9037    6.7101    0.0000 H   0  0  0  0  0  0  0  0  0  0  0  0
   -5.8027    4.4469    0.0000 H   0  0  0  0  0  0  0  0  0  0  0  0
   -5.8027    6.3753    0.0000 H   0  0  0  0  0  0  0  0  0  0  0  0
   -3.9037    4.1121    0.0000 N   0  0  0  0  0  0  0  0  0  0  0  0
   -4.6537    2.8130    0.0000 H   0  0  0  0  0  0  0  0  0  0  0  0
   -2.4037    4.1121    0.0000 C   0  0  0  0  0  0  0  0  0  0  0  0
   -0.9941    4.6251    0.0000 H   0  0  0  0  0  0  0  0  0  0  0  0
   -2.6641    5.5893    0.0000 H   0  0  0  0  0  0  0  0  0  0  0  0
   -1.6537    2.8130    0.0000 C   0  0  0  0  0  0  0  0  0  0  0  0
   -3.0632    2.3000    0.0000 H   0  0  0  0  0  0  0  0  0  0  0  0
   -1.3932    1.3358    0.0000 H   0  0  0  0  0  0  0  0  0  0  0  0
    0.3263    2.8130    0.0000 C   0  0  2  0  0  0  0  0  0  0  0  0
    1.7359    3.3261    0.0000 H   0  0  0  0  0  0  0  0  0  0  0  0
    1.0763    1.5140    0.0000 C   0  0  0  0  0  0  0  0  0  0  0  0
    2.5772    1.5145    0.0000 C   0  0  0  0  0  0  0  0  0  0  0  0
    3.3270    2.8136    0.0000 H   0  0  0  0  0  0  0  0  0  0  0  0
    3.3272    0.2154    0.0000 C   0  0  0  0  0  0  0  0  0  0  0  0
    4.8272    0.2152    0.0000 H   0  0  0  0  0  0  0  0  0  0  0  0
    2.5763   -1.0841    0.0000 C   0  0  0  0  0  0  0  0  0  0  0  0
    3.3263   -2.3831    0.0000 H   0  0  0  0  0  0  0  0  0  0  0  0
    1.0755   -1.0846    0.0000 C   0  0  0  0  0  0  0  0  0  0  0  0
    0.3257   -2.3837    0.0000 H   0  0  0  0  0  0  0  0  0  0  0  0
    0.3255    0.2145    0.0000 C   0  0  0  0  0  0  0  0  0  0  0  0
   -1.1745    0.2147    0.0000 H   0  0  0  0  0  0  0  0  0  0  0  0
    0.0659    4.2902    0.0000 O   0  0  0  0  0  0  0  0  0  0  0  0
    1.2149    5.2544    0.0000 H   0  0  0  0  0  0  0  0  0  0  0  0
  1  2  1  0  0  0  0 
  1  3  1  0  0  0  0 
  1  4  1  0  0  0  0 
  1  5  1  0  0  0  0 
  5  6  1  0  0  0  0 
  5  7  1  0  0  0  0 
  7  8  1  0  0  0  0 
  7  9  1  0  0  0  0 
  7 10  1  0  0  0  0 
 10 11  1  0  0  0  0 
 10 12  1  0  0  0  0 
 10 13  1  0  0  0  0 
 13 14  1  6  0  0  0 
 13 15  1  0  0  0  0 
 15 16  2  0  0  0  0 
 16 17  1  0  0  0  0 
 16 18  1  0  0  0  0 
 18 19  1  0  0  0  0 
 18 20  2  0  0  0  0 
 20 21  1  0  0  0  0 
 20 22  1  0  0  0  0 
 22 23  1  0  0  0  0 
 22 24  2  0  0  0  0 
 15 24  1  0  0  0  0 
 24 25  1  0  0  0  0 
 13 26  1  1  0  0  0 
 26 27  1  0  0  0  0 
M  END
> <Rank>
18

> <Priority_score>
0.124

> <Reaction_type>
O-dealkylation_(aromatic)

> <Parent_ID>
37

> <Parent_InChI>
InChI=1S/C17H21NO/c1-14-8-6-7-11-16(14)19-17(12-13-18-2)15-9-4-3-5-10-15/h3-11,17-18H,12-13H2,1-2H3

> <Parent_SMILES>
CNCC[C@@H](Oc1ccccc1C)c1ccccc1

$$$$
Molecule 37_metabolite 21
  CDK     0516241031

 41 42  0  0  0  0  0  0  0  0999 V2000
   -2.7983   -4.1240    0.0000 C   0  0  0  0  0  0  0  0  0  0  0  0
   -1.4996   -4.8747    0.0000 H   0  0  0  0  0  0  0  0  0  0  0  0
   -3.3120   -5.5333    0.0000 H   0  0  0  0  0  0  0  0  0  0  0  0
   -4.2754   -3.8629    0.0000 H   0  0  0  0  0  0  0  0  0  0  0  0
   -2.7975   -2.6240    0.0000 C   0  0  0  0  0  0  0  0  0  0  0  0
   -1.4983   -1.8745    0.0000 C   0  0  0  0  0  0  0  0  0  0  0  0
   -1.4983   -0.3736    0.0000 C   0  0  0  0  0  0  0  0  0  0  0  0
   -0.1990    0.3760    0.0000 H   0  0  0  0  0  0  0  0  0  0  0  0
   -2.7975    0.3776    0.0000 C   0  0  0  0  0  0  0  0  0  0  0  0
   -2.7968    1.8776    0.0000 H   0  0  0  0  0  0  0  0  0  0  0  0
   -4.0968   -0.3720    0.0000 C   0  0  0  0  0  0  0  0  0  0  0  0
   -5.3957    0.3782    0.0000 H   0  0  0  0  0  0  0  0  0  0  0  0
   -4.0968   -1.8728    0.0000 C   0  0  0  0  0  0  0  0  0  0  0  0
   -5.3961   -2.6224    0.0000 H   0  0  0  0  0  0  0  0  0  0  0  0
    0.2163   -2.8647    0.0000 O   0  0  0  0  0  0  0  0  0  0  0  0
    1.5155   -2.1149    0.0000 C   0  0  2  0  0  0  0  0  0  0  0  0
    1.5158   -0.1349    0.0000 C   0  0  0  0  0  0  0  0  0  0  0  0
    1.0030    1.2747    0.0000 H   0  0  0  0  0  0  0  0  0  0  0  0
    0.0385   -0.3952    0.0000 H   0  0  0  0  0  0  0  0  0  0  0  0
    2.8149    0.6148    0.0000 C   0  0  0  0  0  0  0  0  0  0  0  0
    3.3277   -0.7948    0.0000 H   0  0  0  0  0  0  0  0  0  0  0  0
    4.2922    0.8751    0.0000 H   0  0  0  0  0  0  0  0  0  0  0  0
    2.8152    2.1148    0.0000 N   0  0  0  0  0  0  0  0  0  0  0  0
    1.5163    2.8651    0.0000 H   0  0  0  0  0  0  0  0  0  0  0  0
    4.1143    2.8646    0.0000 C   0  0  0  0  0  0  0  0  0  0  0  0
    5.4133    2.1144    0.0000 H   0  0  0  0  0  0  0  0  0  0  0  0
    3.1503    4.0139    0.0000 H   0  0  0  0  0  0  0  0  0  0  0  0
    5.0787    4.0136    0.0000 H   0  0  0  0  0  0  0  0  0  0  0  0
    2.0283   -3.5246    0.0000 C   0  0  0  0  0  0  0  0  0  0  0  0
    3.5063   -3.7849    0.0000 C   0  0  0  0  0  0  0  0  0  0  0  0
    4.4705   -2.6359    0.0000 H   0  0  0  0  0  0  0  0  0  0  0  0
    4.0191   -5.1946    0.0000 C   0  0  0  0  0  0  0  0  0  0  0  0
    5.4963   -5.4555    0.0000 H   0  0  0  0  0  0  0  0  0  0  0  0
    3.0539   -6.3438    0.0000 C   0  0  0  0  0  0  0  0  0  0  0  0
    3.5667   -7.7534    0.0000 H   0  0  0  0  0  0  0  0  0  0  0  0
    1.5758   -6.0834    0.0000 C   0  0  0  0  0  0  0  0  0  0  0  0
    0.6116   -7.2325    0.0000 H   0  0  0  0  0  0  0  0  0  0  0  0
    1.0630   -4.6738    0.0000 C   0  0  0  0  0  0  0  0  0  0  0  0
   -0.4141   -4.4129    0.0000 H   0  0  0  0  0  0  0  0  0  0  0  0
    3.4654   -1.7714    0.0000 O   0  0  0  0  0  0  0  0  0  0  0  0
    3.9787   -0.3620    0.0000 H   0  0  0  0  0  0  0  0  0  0  0  0
  1  2  1  0  0  0  0 
  1  3  1  0  0  0  0 
  1  4  1  0  0  0  0 
  1  5  1  0  0  0  0 
  5  6  2  0  0  0  0 
  6  7  1  0  0  0  0 
  7  8  1  0  0  0  0 
  7  9  2  0  0  0  0 
  9 10  1  0  0  0  0 
  9 11  1  0  0  0  0 
 11 12  1  0  0  0  0 
 11 13  2  0  0  0  0 
  5 13  1  0  0  0  0 
 13 14  1  0  0  0  0 
  6 15  1  0  0  0  0 
 16 15  1  1  0  0  0 
 16 17  1  0  0  0  0 
 17 18  1  0  0  0  0 
 17 19  1  0  0  0  0 
 17 20  1  0  0  0  0 
 20 21  1  0  0  0  0 
 20 22  1  0  0  0  0 
 20 23  1  0  0  0  0 
 23 24  1  0  0  0  0 
 23 25  1  0  0  0  0 
 25 26  1  0  0  0  0 
 25 27  1  0  0  0  0 
 25 28  1  0  0  0  0 
 16 29  1  6  0  0  0 
 29 30  2  0  0  0  0 
 30 31  1  0  0  0  0 
 30 32  1  0  0  0  0 
 32 33  1  0  0  0  0 
 32 34  2  0  0  0  0 
 34 35  1  0  0  0  0 
 34 36  1  0  0  0  0 
 36 37  1  0  0  0  0 
 36 38  2  0  0  0  0 
 29 38  1  0  0  0  0 
 38 39  1  0  0  0  0 
 16 40  1  0  0  0  0 
 40 41  1  0  0  0  0 
M  END
> <Rank>
18

> <Priority_score>
0.124

> <Reaction_type>
aliphatic hydroxylation

> <Parent_ID>
37

> <Parent_InChI>
InChI=1S/C17H21NO/c1-14-8-6-7-11-16(14)19-17(12-13-18-2)15-9-4-3-5-10-15/h3-11,17-18H,12-13H2,1-2H3

> <Parent_SMILES>
CNCC[C@@H](Oc1ccccc1C)c1ccccc1

$$$$
Molecule 37_metabolite 22
  CDK     0516241031

 39 40  0  0  0  0  0  0  0  0999 V2000
   -1.7063   -1.0027    0.0000 C   0  0  0  0  0  0  0  0  0  0  0  0
   -0.4074   -0.2525    0.0000 H   0  0  0  0  0  0  0  0  0  0  0  0
   -2.2196    0.4067    0.0000 H   0  0  0  0  0  0  0  0  0  0  0  0
   -3.1835   -1.2634    0.0000 H   0  0  0  0  0  0  0  0  0  0  0  0
   -1.7061   -2.5027    0.0000 C   0  0  0  0  0  0  0  0  0  0  0  0
   -0.4070   -3.2527    0.0000 C   0  0  0  0  0  0  0  0  0  0  0  0
   -0.4075   -4.7535    0.0000 C   0  0  0  0  0  0  0  0  0  0  0  0
    0.8915   -5.5035    0.0000 H   0  0  0  0  0  0  0  0  0  0  0  0
   -1.7070   -5.5044    0.0000 C   0  0  0  0  0  0  0  0  0  0  0  0
   -1.7068   -7.0044    0.0000 H   0  0  0  0  0  0  0  0  0  0  0  0
   -3.0061   -4.7544    0.0000 C   0  0  0  0  0  0  0  0  0  0  0  0
   -4.3052   -5.5042    0.0000 H   0  0  0  0  0  0  0  0  0  0  0  0
   -3.0056   -3.2535    0.0000 C   0  0  0  0  0  0  0  0  0  0  0  0
   -4.3046   -2.5035    0.0000 H   0  0  0  0  0  0  0  0  0  0  0  0
    0.8921   -2.5029    0.0000 O   0  0  0  0  0  0  0  0  0  0  0  0
    2.6067   -3.4932    0.0000 C   0  0  2  0  0  0  0  0  0  0  0  0
    1.6423   -4.6421    0.0000 H   0  0  0  0  0  0  0  0  0  0  0  0
    3.9059   -2.7434    0.0000 C   0  0  0  0  0  0  0  0  0  0  0  0
    5.3831   -2.4832    0.0000 H   0  0  0  0  0  0  0  0  0  0  0  0
    4.4187   -4.1530    0.0000 H   0  0  0  0  0  0  0  0  0  0  0  0
    3.9061   -1.2434    0.0000 C   0  0  0  0  0  0  0  0  0  0  0  0
    2.6072   -0.4932    0.0000 H   0  0  0  0  0  0  0  0  0  0  0  0
    5.2052   -0.4936    0.0000 N   0  0  0  0  0  0  0  0  0  0  0  0
    6.5042   -1.2438    0.0000 H   0  0  0  0  0  0  0  0  0  0  0  0
    5.2055    1.0064    0.0000 C   0  0  0  0  0  0  0  0  0  0  0  0
    6.5046    1.7562    0.0000 H   0  0  0  0  0  0  0  0  0  0  0  0
    3.7282    0.7461    0.0000 H   0  0  0  0  0  0  0  0  0  0  0  0
    4.6927    2.4160    0.0000 H   0  0  0  0  0  0  0  0  0  0  0  0
    3.8792   -5.0102    0.0000 C   0  0  0  0  0  0  0  0  0  0  0  0
    5.3572   -4.7493    0.0000 C   0  0  0  0  0  0  0  0  0  0  0  0
    6.3213   -3.6003    0.0000 H   0  0  0  0  0  0  0  0  0  0  0  0
    6.3212   -5.8985    0.0000 C   0  0  0  0  0  0  0  0  0  0  0  0
    7.7985   -5.6385    0.0000 H   0  0  0  0  0  0  0  0  0  0  0  0
    5.8072   -7.3086    0.0000 C   0  0  0  0  0  0  0  0  0  0  0  0
    6.7712   -8.4578    0.0000 H   0  0  0  0  0  0  0  0  0  0  0  0
    4.3292   -7.5695    0.0000 C   0  0  0  0  0  0  0  0  0  0  0  0
    3.8161   -8.9790    0.0000 H   0  0  0  0  0  0  0  0  0  0  0  0
    3.3652   -6.4202    0.0000 C   0  0  0  0  0  0  0  0  0  0  0  0
    1.8879   -6.6802    0.0000 H   0  0  0  0  0  0  0  0  0  0  0  0
  1  2  1  0  0  0  0 
  1  3  1  0  0  0  0 
  1  4  1  0  0  0  0 
  1  5  1  0  0  0  0 
  5  6  2  0  0  0  0 
  6  7  1  0  0  0  0 
  7  8  1  0  0  0  0 
  7  9  2  0  0  0  0 
  9 10  1  0  0  0  0 
  9 11  1  0  0  0  0 
 11 12  1  0  0  0  0 
 11 13  2  0  0  0  0 
  5 13  1  0  0  0  0 
 13 14  1  0  0  0  0 
  6 15  1  0  0  0  0 
 16 15  1  6  0  0  0 
 16 17  1  1  0  0  0 
 16 18  1  0  0  0  0 
 18 19  1  0  0  0  0 
 18 20  1  0  0  0  0 
 18 21  1  0  0  0  0 
 21 22  1  4  0  0  0 
 21 23  2  0  0  0  0 
 23 24  1  0  0  0  0 
 23 25  1  0  0  0  0 
 25 26  1  0  0  0  0 
 25 27  1  0  0  0  0 
 25 28  1  0  0  0  0 
 16 29  1  0  0  0  0 
 29 30  2  0  0  0  0 
 30 31  1  0  0  0  0 
 30 32  1  0  0  0  0 
 32 33  1  0  0  0  0 
 32 34  2  0  0  0  0 
 34 35  1  0  0  0  0 
 34 36  1  0  0  0  0 
 36 37  1  0  0  0  0 
 36 38  2  0  0  0  0 
 29 38  1  0  0  0  0 
 38 39  1  0  0  0  0 
M  CHG  1  23   1
M  END
> <Rank>
22

> <Priority_score>
0.11757588132078481

> <Reaction_type>
dehydration of N-C bond

> <Parent_ID>
37

> <Parent_InChI>
InChI=1S/C17H21NO/c1-14-8-6-7-11-16(14)19-17(12-13-18-2)15-9-4-3-5-10-15/h3-11,17-18H,12-13H2,1-2H3

> <Parent_SMILES>
CNCC[C@@H](Oc1ccccc1C)c1ccccc1

$$$$
Molecule 37_metabolite 23
  CDK     0516241031

 38 39  0  0  0  0  0  0  0  0999 V2000
   -1.7063   -1.0027    0.0000 C   0  0  0  0  0  0  0  0  0  0  0  0
   -0.4074   -0.2525    0.0000 H   0  0  0  0  0  0  0  0  0  0  0  0
   -2.2196    0.4067    0.0000 H   0  0  0  0  0  0  0  0  0  0  0  0
   -3.1835   -1.2634    0.0000 H   0  0  0  0  0  0  0  0  0  0  0  0
   -1.7061   -2.5027    0.0000 C   0  0  0  0  0  0  0  0  0  0  0  0
   -0.4070   -3.2527    0.0000 C   0  0  0  0  0  0  0  0  0  0  0  0
   -0.4075   -4.7535    0.0000 C   0  0  0  0  0  0  0  0  0  0  0  0
    0.8915   -5.5035    0.0000 H   0  0  0  0  0  0  0  0  0  0  0  0
   -1.7070   -5.5044    0.0000 C   0  0  0  0  0  0  0  0  0  0  0  0
   -1.7068   -7.0044    0.0000 H   0  0  0  0  0  0  0  0  0  0  0  0
   -3.0061   -4.7544    0.0000 C   0  0  0  0  0  0  0  0  0  0  0  0
   -4.3052   -5.5042    0.0000 H   0  0  0  0  0  0  0  0  0  0  0  0
   -3.0056   -3.2535    0.0000 C   0  0  0  0  0  0  0  0  0  0  0  0
   -4.3046   -2.5035    0.0000 H   0  0  0  0  0  0  0  0  0  0  0  0
    0.8921   -2.5029    0.0000 O   0  0  0  0  0  0  0  0  0  0  0  0
    2.6067   -3.4932    0.0000 C   0  0  2  0  0  0  0  0  0  0  0  0
    1.6423   -4.6421    0.0000 H   0  0  0  0  0  0  0  0  0  0  0  0
    3.9059   -2.7434    0.0000 C   0  0  0  0  0  0  0  0  0  0  0  0
    5.3831   -2.4832    0.0000 H   0  0  0  0  0  0  0  0  0  0  0  0
    4.4187   -4.1530    0.0000 H   0  0  0  0  0  0  0  0  0  0  0  0
    3.9061   -1.2434    0.0000 C   0  0  0  0  0  0  0  0  0  0  0  0
    2.6072   -0.4932    0.0000 H   0  0  0  0  0  0  0  0  0  0  0  0
    5.2052   -0.4936    0.0000 N   0  0  0  0  0  0  0  0  0  0  0  0
    5.2055    1.0064    0.0000 C   0  0  0  0  0  0  0  0  0  0  0  0
    6.5046    1.7562    0.0000 H   0  0  0  0  0  0  0  0  0  0  0  0
    3.7282    0.7461    0.0000 H   0  0  0  0  0  0  0  0  0  0  0  0
    4.6927    2.4160    0.0000 H   0  0  0  0  0  0  0  0  0  0  0  0
    3.8792   -5.0102    0.0000 C   0  0  0  0  0  0  0  0  0  0  0  0
    5.3572   -4.7493    0.0000 C   0  0  0  0  0  0  0  0  0  0  0  0
    6.3213   -3.6003    0.0000 H   0  0  0  0  0  0  0  0  0  0  0  0
    6.3212   -5.8985    0.0000 C   0  0  0  0  0  0  0  0  0  0  0  0
    7.7985   -5.6385    0.0000 H   0  0  0  0  0  0  0  0  0  0  0  0
    5.8072   -7.3086    0.0000 C   0  0  0  0  0  0  0  0  0  0  0  0
    6.7712   -8.4578    0.0000 H   0  0  0  0  0  0  0  0  0  0  0  0
    4.3292   -7.5695    0.0000 C   0  0  0  0  0  0  0  0  0  0  0  0
    3.8161   -8.9790    0.0000 H   0  0  0  0  0  0  0  0  0  0  0  0
    3.3652   -6.4202    0.0000 C   0  0  0  0  0  0  0  0  0  0  0  0
    1.8879   -6.6802    0.0000 H   0  0  0  0  0  0  0  0  0  0  0  0
  1  2  1  0  0  0  0 
  1  3  1  0  0  0  0 
  1  4  1  0  0  0  0 
  1  5  1  0  0  0  0 
  5  6  2  0  0  0  0 
  6  7  1  0  0  0  0 
  7  8  1  0  0  0  0 
  7  9  2  0  0  0  0 
  9 10  1  0  0  0  0 
  9 11  1  0  0  0  0 
 11 12  1  0  0  0  0 
 11 13  2  0  0  0  0 
  5 13  1  0  0  0  0 
 13 14  1  0  0  0  0 
  6 15  1  0  0  0  0 
 16 15  1  6  0  0  0 
 16 17  1  1  0  0  0 
 16 18  1  0  0  0  0 
 18 19  1  0  0  0  0 
 18 20  1  0  0  0  0 
 18 21  1  0  0  0  0 
 21 22  1  4  0  0  0 
 21 23  2  0  0  0  0 
 23 24  1  0  0  0  0 
 24 25  1  0  0  0  0 
 24 26  1  0  0  0  0 
 24 27  1  0  0  0  0 
 16 28  1  0  0  0  0 
 28 29  2  0  0  0  0 
 29 30  1  0  0  0  0 
 29 31  1  0  0  0  0 
 31 32  1  0  0  0  0 
 31 33  2  0  0  0  0 
 33 34  1  0  0  0  0 
 33 35  1  0  0  0  0 
 35 36  1  0  0  0  0 
 35 37  2  0  0  0  0 
 28 37  1  0  0  0  0 
 37 38  1  0  0  0  0 
M  END
> <Rank>
22

> <Priority_score>
0.11757588132078481

> <Reaction_type>
dehydration of N-C bond

> <Parent_ID>
37

> <Parent_InChI>
InChI=1S/C17H21NO/c1-14-8-6-7-11-16(14)19-17(12-13-18-2)15-9-4-3-5-10-15/h3-11,17-18H,12-13H2,1-2H3

> <Parent_SMILES>
CNCC[C@@H](Oc1ccccc1C)c1ccccc1

$$$$
Molecule 37_metabolite 24
  CDK     0516241031

 41 42  0  0  0  0  0  0  0  0999 V2000
   -2.8396    1.0700    0.0000 C   0  0  0  0  0  0  0  0  0  0  0  0
   -1.5407    1.8202    0.0000 H   0  0  0  0  0  0  0  0  0  0  0  0
   -3.3529    2.4795    0.0000 H   0  0  0  0  0  0  0  0  0  0  0  0
   -4.3168    0.8093    0.0000 H   0  0  0  0  0  0  0  0  0  0  0  0
   -2.8394   -0.4300    0.0000 C   0  0  0  0  0  0  0  0  0  0  0  0
   -1.5403   -1.1800    0.0000 C   0  0  0  0  0  0  0  0  0  0  0  0
   -1.5408   -2.6808    0.0000 C   0  0  0  0  0  0  0  0  0  0  0  0
   -0.2418   -3.4308    0.0000 H   0  0  0  0  0  0  0  0  0  0  0  0
   -2.8403   -3.4317    0.0000 C   0  0  0  0  0  0  0  0  0  0  0  0
   -2.8401   -4.9317    0.0000 H   0  0  0  0  0  0  0  0  0  0  0  0
   -4.1394   -2.6817    0.0000 C   0  0  0  0  0  0  0  0  0  0  0  0
   -5.4385   -3.4315    0.0000 H   0  0  0  0  0  0  0  0  0  0  0  0
   -4.1389   -1.1808    0.0000 C   0  0  0  0  0  0  0  0  0  0  0  0
   -5.4379   -0.4308    0.0000 H   0  0  0  0  0  0  0  0  0  0  0  0
   -0.2412   -0.4302    0.0000 O   0  0  0  0  0  0  0  0  0  0  0  0
    1.4734   -1.4205    0.0000 C   0  0  1  0  0  0  0  0  0  0  0  0
    0.5090   -2.5694    0.0000 H   0  0  0  0  0  0  0  0  0  0  0  0
    3.3628   -3.6730    0.0000 C   0  0  0  0  0  0  0  0  0  0  0  0
    4.8408   -3.4121    0.0000 C   0  0  0  0  0  0  0  0  0  0  0  0
    5.3538   -2.0026    0.0000 H   0  0  0  0  0  0  0  0  0  0  0  0
    5.8048   -4.5613    0.0000 C   0  0  0  0  0  0  0  0  0  0  0  0
    7.2821   -4.3013    0.0000 H   0  0  0  0  0  0  0  0  0  0  0  0
    5.2908   -5.9714    0.0000 C   0  0  0  0  0  0  0  0  0  0  0  0
    6.2548   -7.1206    0.0000 H   0  0  0  0  0  0  0  0  0  0  0  0
    3.8128   -6.2322    0.0000 C   0  0  0  0  0  0  0  0  0  0  0  0
    3.2998   -7.6418    0.0000 H   0  0  0  0  0  0  0  0  0  0  0  0
    2.8488   -5.0830    0.0000 C   0  0  0  0  0  0  0  0  0  0  0  0
    1.3715   -5.3430    0.0000 H   0  0  0  0  0  0  0  0  0  0  0  0
    3.6040   -0.1908    0.0000 C   0  0  0  0  0  0  0  0  0  0  0  0
    5.0813    0.0694    0.0000 H   0  0  0  0  0  0  0  0  0  0  0  0
    3.6042    1.3092    0.0000 C   0  0  0  0  0  0  0  0  0  0  0  0
    2.1270    1.0489    0.0000 H   0  0  0  0  0  0  0  0  0  0  0  0
    3.0914    2.7188    0.0000 H   0  0  0  0  0  0  0  0  0  0  0  0
    4.9034    2.0590    0.0000 N   0  0  0  0  0  0  0  0  0  0  0  0
    6.2023    1.3088    0.0000 H   0  0  0  0  0  0  0  0  0  0  0  0
    4.9036    3.5590    0.0000 C   0  0  0  0  0  0  0  0  0  0  0  0
    3.6047    4.3092    0.0000 H   0  0  0  0  0  0  0  0  0  0  0  0
    6.3808    3.2983    0.0000 H   0  0  0  0  0  0  0  0  0  0  0  0
    5.4169    4.9684    0.0000 H   0  0  0  0  0  0  0  0  0  0  0  0
    4.1168   -1.6004    0.0000 O   0  0  0  0  0  0  0  0  0  0  0  0
    7.0121   -2.1114    0.0000 H   0  0  0  0  0  0  0  0  0  0  0  0
  1  2  1  0  0  0  0 
  1  3  1  0  0  0  0 
  1  4  1  0  0  0  0 
  1  5  1  0  0  0  0 
  5  6  2  0  0  0  0 
  6  7  1  0  0  0  0 
  7  8  1  0  0  0  0 
  7  9  2  0  0  0  0 
  9 10  1  0  0  0  0 
  9 11  1  0  0  0  0 
 11 12  1  0  0  0  0 
 11 13  2  0  0  0  0 
  5 13  1  0  0  0  0 
 13 14  1  0  0  0  0 
  6 15  1  0  0  0  0 
 16 15  1  6  0  0  0 
 16 17  1  1  0  0  0 
 16 18  1  0  0  0  0 
 18 19  2  0  0  0  0 
 19 20  1  0  0  0  0 
 19 21  1  0  0  0  0 
 21 22  1  0  0  0  0 
 21 23  2  0  0  0  0 
 23 24  1  0  0  0  0 
 23 25  1  0  0  0  0 
 25 26  1  0  0  0  0 
 25 27  2  0  0  0  0 
 18 27  1  0  0  0  0 
 27 28  1  0  0  0  0 
 16 29  1  0  0  0  0 
 29 30  1  0  0  0  0 
 29 31  1  0  0  0  0 
 31 32  1  0  0  0  0 
 31 33  1  0  0  0  0 
 31 34  1  0  0  0  0 
 34 35  1  0  0  0  0 
 34 36  1  0  0  0  0 
 36 37  1  0  0  0  0 
 36 38  1  0  0  0  0 
 36 39  1  0  0  0  0 
 29 40  1  0  0  0  0 
 40 41  1  0  0  0  0 
M  END
> <Rank>
24

> <Priority_score>
0.084

> <Reaction_type>
aliphatic hydroxylation

> <Parent_ID>
37

> <Parent_InChI>
InChI=1S/C17H21NO/c1-14-8-6-7-11-16(14)19-17(12-13-18-2)15-9-4-3-5-10-15/h3-11,17-18H,12-13H2,1-2H3

> <Parent_SMILES>
CNCC[C@@H](Oc1ccccc1C)c1ccccc1

$$$$
Molecule 37_metabolite 25
  CDK     0516241031

 26 26  0  0  0  0  0  0  0  0999 V2000
   -5.0694    5.6511    0.0000 C   0  0  0  0  0  0  0  0  0  0  0  0
   -4.3194    6.9501    0.0000 H   0  0  0  0  0  0  0  0  0  0  0  0
   -6.2184    4.6869    0.0000 H   0  0  0  0  0  0  0  0  0  0  0  0
   -6.2184    6.6153    0.0000 H   0  0  0  0  0  0  0  0  0  0  0  0
   -4.3194    4.3521    0.0000 N   0  0  0  0  0  0  0  0  0  0  0  0
   -5.0694    3.0530    0.0000 H   0  0  0  0  0  0  0  0  0  0  0  0
   -2.8194    4.3521    0.0000 C   0  0  0  0  0  0  0  0  0  0  0  0
   -1.4098    4.8651    0.0000 H   0  0  0  0  0  0  0  0  0  0  0  0
   -3.0798    5.8293    0.0000 H   0  0  0  0  0  0  0  0  0  0  0  0
   -2.0694    3.0530    0.0000 C   0  0  0  0  0  0  0  0  0  0  0  0
   -3.4789    2.5400    0.0000 H   0  0  0  0  0  0  0  0  0  0  0  0
   -1.8089    1.5758    0.0000 H   0  0  0  0  0  0  0  0  0  0  0  0
   -0.0894    3.0530    0.0000 C   0  0  0  0  0  0  0  0  0  0  0  0
    1.3202    3.5661    0.0000 H   0  0  0  0  0  0  0  0  0  0  0  0
   -0.3498    4.5302    0.0000 H   0  0  0  0  0  0  0  0  0  0  0  0
    0.6606    1.7540    0.0000 C   0  0  0  0  0  0  0  0  0  0  0  0
    2.1615    1.7545    0.0000 C   0  0  0  0  0  0  0  0  0  0  0  0
    2.9113    3.0536    0.0000 H   0  0  0  0  0  0  0  0  0  0  0  0
    2.9115    0.4554    0.0000 C   0  0  0  0  0  0  0  0  0  0  0  0
    4.4115    0.4552    0.0000 H   0  0  0  0  0  0  0  0  0  0  0  0
    2.1606   -0.8441    0.0000 C   0  0  0  0  0  0  0  0  0  0  0  0
    2.9106   -2.1431    0.0000 H   0  0  0  0  0  0  0  0  0  0  0  0
    0.6598   -0.8446    0.0000 C   0  0  0  0  0  0  0  0  0  0  0  0
   -0.0900   -2.1437    0.0000 H   0  0  0  0  0  0  0  0  0  0  0  0
   -0.0902    0.4545    0.0000 C   0  0  0  0  0  0  0  0  0  0  0  0
   -1.5902    0.4547    0.0000 H   0  0  0  0  0  0  0  0  0  0  0  0
  1  2  1  0  0  0  0 
  1  3  1  0  0  0  0 
  1  4  1  0  0  0  0 
  1  5  1  0  0  0  0 
  5  6  1  0  0  0  0 
  5  7  1  0  0  0  0 
  7  8  1  0  0  0  0 
  7  9  1  0  0  0  0 
  7 10  1  0  0  0  0 
 10 11  1  0  0  0  0 
 10 12  1  0  0  0  0 
 10 13  1  0  0  0  0 
 13 14  1  0  0  0  0 
 13 15  1  0  0  0  0 
 13 16  1  0  0  0  0 
 16 17  2  0  0  0  0 
 17 18  1  0  0  0  0 
 17 19  1  0  0  0  0 
 19 20  1  0  0  0  0 
 19 21  2  0  0  0  0 
 21 22  1  0  0  0  0 
 21 23  1  0  0  0  0 
 23 24  1  0  0  0  0 
 23 25  2  0  0  0  0 
 16 25  1  0  0  0  0 
 25 26  1  0  0  0  0 
M  END
> <Rank>
25

> <Priority_score>
0.07840000000000001

> <Reaction_type>
oxidation of 4-substituted anisole to quinone

> <Parent_ID>
37

> <Parent_InChI>
InChI=1S/C17H21NO/c1-14-8-6-7-11-16(14)19-17(12-13-18-2)15-9-4-3-5-10-15/h3-11,17-18H,12-13H2,1-2H3

> <Parent_SMILES>
CNCC[C@@H](Oc1ccccc1C)c1ccccc1

$$$$
Molecule 37_metabolite 26
  CDK     0516241031

 15 15  0  0  0  0  0  0  0  0999 V2000
   -1.9143    0.7681    0.0000 C   0  0  0  0  0  0  0  0  0  0  0  0
   -1.9145    2.2681    0.0000 H   0  0  0  0  0  0  0  0  0  0  0  0
   -3.3916    1.0283    0.0000 H   0  0  0  0  0  0  0  0  0  0  0  0
   -2.4271   -0.6415    0.0000 H   0  0  0  0  0  0  0  0  0  0  0  0
   -0.6152    0.0183    0.0000 C   0  0  0  0  0  0  0  0  0  0  0  0
    0.6839    0.7683    0.0000 C   0  0  0  0  0  0  0  0  0  0  0  0
    0.6841    2.2683    0.0000 H   0  0  0  0  0  0  0  0  0  0  0  0
    1.9834    0.0174    0.0000 C   0  0  0  0  0  0  0  0  0  0  0  0
    3.2824    0.7674    0.0000 O   0  0  0  0  0  0  0  0  0  0  0  0
    1.9839   -1.4834    0.0000 C   0  0  0  0  0  0  0  0  0  0  0  0
    3.2830   -2.2332    0.0000 H   0  0  0  0  0  0  0  0  0  0  0  0
    0.6848   -2.2334    0.0000 C   0  0  0  0  0  0  0  0  0  0  0  0
    0.6846   -3.7334    0.0000 H   0  0  0  0  0  0  0  0  0  0  0  0
   -0.6147   -1.4826    0.0000 C   0  0  0  0  0  0  0  0  0  0  0  0
   -1.9137   -2.2326    0.0000 O   0  0  0  0  0  0  0  0  0  0  0  0
  1  2  1  0  0  0  0 
  1  3  1  0  0  0  0 
  1  4  1  0  0  0  0 
  1  5  1  0  0  0  0 
  5  6  2  0  0  0  0 
  6  7  1  0  0  0  0 
  6  8  1  0  0  0  0 
  8  9  2  0  0  0  0 
  8 10  1  0  0  0  0 
 10 11  1  0  0  0  0 
 10 12  2  0  0  0  0 
 12 13  1  0  0  0  0 
 12 14  1  0  0  0  0 
  5 14  1  0  0  0  0 
 14 15  2  0  0  0  0 
M  END
> <Rank>
25

> <Priority_score>
0.07840000000000001

> <Reaction_type>
oxidation of 4-substituted anisole to quinone

> <Parent_ID>
37

> <Parent_InChI>
InChI=1S/C17H21NO/c1-14-8-6-7-11-16(14)19-17(12-13-18-2)15-9-4-3-5-10-15/h3-11,17-18H,12-13H2,1-2H3

> <Parent_SMILES>
CNCC[C@@H](Oc1ccccc1C)c1ccccc1

$$$$
Molecule 37_metabolite 27
  CDK     0516241031

 41 42  0  0  0  0  0  0  0  0999 V2000
    7.3638   -4.5879    0.0000 C   0  0  0  0  0  0  0  0  0  0  0  0
    6.0649   -5.3381    0.0000 H   0  0  0  0  0  0  0  0  0  0  0  0
    7.8770   -5.9973    0.0000 H   0  0  0  0  0  0  0  0  0  0  0  0
    8.8409   -4.3272    0.0000 H   0  0  0  0  0  0  0  0  0  0  0  0
    7.3635   -3.0879    0.0000 C   0  0  0  0  0  0  0  0  0  0  0  0
    6.0645   -2.3379    0.0000 C   0  0  0  0  0  0  0  0  0  0  0  0
    6.0650   -0.8370    0.0000 C   0  0  0  0  0  0  0  0  0  0  0  0
    4.7659   -0.0870    0.0000 H   0  0  0  0  0  0  0  0  0  0  0  0
    7.3645   -0.0862    0.0000 C   0  0  0  0  0  0  0  0  0  0  0  0
    7.3642    1.4138    0.0000 H   0  0  0  0  0  0  0  0  0  0  0  0
    8.6635   -0.8362    0.0000 C   0  0  0  0  0  0  0  0  0  0  0  0
    9.9627   -0.0864    0.0000 H   0  0  0  0  0  0  0  0  0  0  0  0
    8.6630   -2.3370    0.0000 C   0  0  0  0  0  0  0  0  0  0  0  0
    9.9621   -3.0870    0.0000 H   0  0  0  0  0  0  0  0  0  0  0  0
    4.7653   -3.0877    0.0000 O   0  0  0  0  0  0  0  0  0  0  0  0
    3.0508   -2.0974    0.0000 C   0  0  2  0  0  0  0  0  0  0  0  0
    4.0151   -0.9485    0.0000 H   0  0  0  0  0  0  0  0  0  0  0  0
    1.7516   -2.8472    0.0000 C   0  0  0  0  0  0  0  0  0  0  0  0
    0.2743   -3.1074    0.0000 H   0  0  0  0  0  0  0  0  0  0  0  0
    1.2388   -1.4376    0.0000 H   0  0  0  0  0  0  0  0  0  0  0  0
    1.7514   -4.3472    0.0000 C   0  0  0  0  0  0  0  0  0  0  0  0
    3.2286   -4.0869    0.0000 H   0  0  0  0  0  0  0  0  0  0  0  0
    2.2642   -5.7568    0.0000 H   0  0  0  0  0  0  0  0  0  0  0  0
    0.4522   -5.0970    0.0000 N   0  0  0  0  0  0  0  0  0  0  0  0
   -0.8467   -4.3468    0.0000 H   0  0  0  0  0  0  0  0  0  0  0  0
    0.4520   -6.5970    0.0000 C   0  0  0  0  0  0  0  0  0  0  0  0
    1.7509   -7.3472    0.0000 H   0  0  0  0  0  0  0  0  0  0  0  0
   -1.0252   -6.3363    0.0000 H   0  0  0  0  0  0  0  0  0  0  0  0
   -0.0613   -8.0064    0.0000 H   0  0  0  0  0  0  0  0  0  0  0  0
    1.7783   -0.5804    0.0000 C   0  0  0  0  0  0  0  0  0  0  0  0
    0.3010   -0.8404    0.0000 C   0  0  0  0  0  0  0  0  0  0  0  0
   -0.6630    0.3099    0.0000 C   0  0  0  0  0  0  0  0  0  0  0  0
   -2.1403    0.0499    0.0000 H   0  0  0  0  0  0  0  0  0  0  0  0
   -0.1497    1.7202    0.0000 C   0  0  0  0  0  0  0  0  0  0  0  0
   -1.1137    2.8694    0.0000 H   0  0  0  0  0  0  0  0  0  0  0  0
    1.3276    1.9802    0.0000 C   0  0  0  0  0  0  0  0  0  0  0  0
    1.8413    3.3895    0.0000 H   0  0  0  0  0  0  0  0  0  0  0  0
    2.2916    0.8299    0.0000 C   0  0  0  0  0  0  0  0  0  0  0  0
    3.7689    1.0899    0.0000 H   0  0  0  0  0  0  0  0  0  0  0  0
   -0.6637   -1.9890    0.0000 O   0  0  0  0  0  0  0  0  0  0  0  0
   -2.1408   -1.7278    0.0000 H   0  0  0  0  0  0  0  0  0  0  0  0
  1  2  1  0  0  0  0 
  1  3  1  0  0  0  0 
  1  4  1  0  0  0  0 
  1  5  1  0  0  0  0 
  5  6  2  0  0  0  0 
  6  7  1  0  0  0  0 
  7  8  1  0  0  0  0 
  7  9  2  0  0  0  0 
  9 10  1  0  0  0  0 
  9 11  1  0  0  0  0 
 11 12  1  0  0  0  0 
 11 13  2  0  0  0  0 
  5 13  1  0  0  0  0 
 13 14  1  0  0  0  0 
  6 15  1  0  0  0  0 
 16 15  1  6  0  0  0 
 16 17  1  1  0  0  0 
 16 18  1  0  0  0  0 
 18 19  1  0  0  0  0 
 18 20  1  0  0  0  0 
 18 21  1  0  0  0  0 
 21 22  1  0  0  0  0 
 21 23  1  0  0  0  0 
 21 24  1  0  0  0  0 
 24 25  1  0  0  0  0 
 24 26  1  0  0  0  0 
 26 27  1  0  0  0  0 
 26 28  1  0  0  0  0 
 26 29  1  0  0  0  0 
 16 30  1  0  0  0  0 
 30 31  2  0  0  0  0 
 31 32  1  0  0  0  0 
 32 33  1  0  0  0  0 
 32 34  2  0  0  0  0 
 34 35  1  0  0  0  0 
 34 36  1  0  0  0  0 
 36 37  1  0  0  0  0 
 36 38  2  0  0  0  0 
 30 38  1  0  0  0  0 
 38 39  1  0  0  0  0 
 31 40  1  0  0  0  0 
 40 41  1  0  0  0  0 
M  END
> <Rank>
27

> <Priority_score>
0.04

> <Reaction_type>
aromatic hydroxylation

> <Parent_ID>
37

> <Parent_InChI>
InChI=1S/C17H21NO/c1-14-8-6-7-11-16(14)19-17(12-13-18-2)15-9-4-3-5-10-15/h3-11,17-18H,12-13H2,1-2H3

> <Parent_SMILES>
CNCC[C@@H](Oc1ccccc1C)c1ccccc1

$$$$
Molecule 37_metabolite 28
  CDK     0516241031

 38 39  0  0  0  0  0  0  0  0999 V2000
    7.5891   -4.5515    0.0000 C   0  0  0  0  0  0  0  0  0  0  0  0
    6.2902   -5.3017    0.0000 H   0  0  0  0  0  0  0  0  0  0  0  0
    8.1024   -5.9610    0.0000 H   0  0  0  0  0  0  0  0  0  0  0  0
    9.0663   -4.2908    0.0000 H   0  0  0  0  0  0  0  0  0  0  0  0
    7.5889   -3.0515    0.0000 C   0  0  0  0  0  0  0  0  0  0  0  0
    6.2898   -2.3015    0.0000 C   0  0  0  0  0  0  0  0  0  0  0  0
    6.2903   -0.8007    0.0000 C   0  0  0  0  0  0  0  0  0  0  0  0
    4.9913   -0.0507    0.0000 H   0  0  0  0  0  0  0  0  0  0  0  0
    7.5898   -0.0499    0.0000 C   0  0  0  0  0  0  0  0  0  0  0  0
    7.5896    1.4501    0.0000 H   0  0  0  0  0  0  0  0  0  0  0  0
    8.8889   -0.7999    0.0000 C   0  0  0  0  0  0  0  0  0  0  0  0
   10.1880   -0.0501    0.0000 H   0  0  0  0  0  0  0  0  0  0  0  0
    8.8884   -2.3007    0.0000 C   0  0  0  0  0  0  0  0  0  0  0  0
   10.1874   -3.0507    0.0000 H   0  0  0  0  0  0  0  0  0  0  0  0
    4.9907   -3.0513    0.0000 O   0  0  0  0  0  0  0  0  0  0  0  0
    3.2761   -2.0611    0.0000 C   0  0  2  0  0  0  0  0  0  0  0  0
    4.2405   -0.9121    0.0000 H   0  0  0  0  0  0  0  0  0  0  0  0
    1.9769   -2.8108    0.0000 C   0  0  0  0  0  0  0  0  0  0  0  0
    0.6780   -2.0606    0.0000 H   0  0  0  0  0  0  0  0  0  0  0  0
    1.9767   -4.3108    0.0000 C   0  0  0  0  0  0  0  0  0  0  0  0
    3.2756   -5.0611    0.0000 H   0  0  0  0  0  0  0  0  0  0  0  0
    0.6775   -5.0606    0.0000 N   0  0  0  0  0  0  0  0  0  0  0  0
   -0.6214   -4.3104    0.0000 H   0  0  0  0  0  0  0  0  0  0  0  0
    0.6773   -6.5606    0.0000 C   0  0  0  0  0  0  0  0  0  0  0  0
   -0.6219   -7.3104    0.0000 H   0  0  0  0  0  0  0  0  0  0  0  0
    2.1545   -6.3004    0.0000 H   0  0  0  0  0  0  0  0  0  0  0  0
    1.1901   -7.9703    0.0000 H   0  0  0  0  0  0  0  0  0  0  0  0
    1.6951   -0.1763    0.0000 C   0  0  0  0  0  0  0  0  0  0  0  0
    0.2171   -0.4372    0.0000 C   0  0  0  0  0  0  0  0  0  0  0  0
   -0.2959   -1.8467    0.0000 H   0  0  0  0  0  0  0  0  0  0  0  0
   -0.7469    0.7120    0.0000 C   0  0  0  0  0  0  0  0  0  0  0  0
   -2.2242    0.4520    0.0000 H   0  0  0  0  0  0  0  0  0  0  0  0
   -0.2329    2.1221    0.0000 C   0  0  0  0  0  0  0  0  0  0  0  0
   -1.1969    3.2713    0.0000 H   0  0  0  0  0  0  0  0  0  0  0  0
    1.2451    2.3830    0.0000 C   0  0  0  0  0  0  0  0  0  0  0  0
    1.7582    3.7925    0.0000 H   0  0  0  0  0  0  0  0  0  0  0  0
    2.2091    1.2337    0.0000 C   0  0  0  0  0  0  0  0  0  0  0  0
    3.6864    1.4937    0.0000 H   0  0  0  0  0  0  0  0  0  0  0  0
  1  2  1  0  0  0  0 
  1  3  1  0  0  0  0 
  1  4  1  0  0  0  0 
  1  5  1  0  0  0  0 
  5  6  2  0  0  0  0 
  6  7  1  0  0  0  0 
  7  8  1  0  0  0  0 
  7  9  2  0  0  0  0 
  9 10  1  0  0  0  0 
  9 11  1  0  0  0  0 
 11 12  1  0  0  0  0 
 11 13  2  0  0  0  0 
  5 13  1  0  0  0  0 
 13 14  1  0  0  0  0 
  6 15  1  0  0  0  0 
 16 15  1  6  0  0  0 
 16 17  1  1  0  0  0 
 16 18  1  0  0  0  0 
 18 19  1  4  0  0  0 
 18 20  2  0  0  0  0 
 20 21  1  0  0  0  0 
 20 22  1  0  0  0  0 
 22 23  1  0  0  0  0 
 22 24  1  0  0  0  0 
 24 25  1  0  0  0  0 
 24 26  1  0  0  0  0 
 24 27  1  0  0  0  0 
 16 28  1  0  0  0  0 
 28 29  2  0  0  0  0 
 29 30  1  0  0  0  0 
 29 31  1  0  0  0  0 
 31 32  1  0  0  0  0 
 31 33  2  0  0  0  0 
 33 34  1  0  0  0  0 
 33 35  1  0  0  0  0 
 35 36  1  0  0  0  0 
 35 37  2  0  0  0  0 
 28 37  1  0  0  0  0 
 37 38  1  0  0  0  0 
M  END
> <Rank>
28

> <Priority_score>
0.0288

> <Reaction_type>
alkyl dehydrogenation

> <Parent_ID>
37

> <Parent_InChI>
InChI=1S/C17H21NO/c1-14-8-6-7-11-16(14)19-17(12-13-18-2)15-9-4-3-5-10-15/h3-11,17-18H,12-13H2,1-2H3

> <Parent_SMILES>
CNCC[C@@H](Oc1ccccc1C)c1ccccc1

$$$$
Molecule 37_metabolite 29
  CDK     0516241031

 38 39  0  0  0  0  0  0  0  0999 V2000
    1.1185   -7.4113    0.0000 C   0  0  0  0  0  0  0  0  0  0  0  0
    2.4179   -6.6619    0.0000 H   0  0  0  0  0  0  0  0  0  0  0  0
    2.0821   -8.5608    0.0000 H   0  0  0  0  0  0  0  0  0  0  0  0
    0.1537   -8.5599    0.0000 H   0  0  0  0  0  0  0  0  0  0  0  0
   -0.1802   -6.6607    0.0000 C   0  0  0  0  0  0  0  0  0  0  0  0
   -0.1797   -5.1607    0.0000 C   0  0  0  0  0  0  0  0  0  0  0  0
   -1.4795   -4.4102    0.0000 C   0  0  0  0  0  0  0  0  0  0  0  0
   -1.4790   -2.9102    0.0000 H   0  0  0  0  0  0  0  0  0  0  0  0
   -2.7797   -5.1598    0.0000 C   0  0  0  0  0  0  0  0  0  0  0  0
   -4.0784   -4.4092    0.0000 H   0  0  0  0  0  0  0  0  0  0  0  0
   -2.7802   -6.6598    0.0000 C   0  0  0  0  0  0  0  0  0  0  0  0
   -4.0794   -7.4096    0.0000 H   0  0  0  0  0  0  0  0  0  0  0  0
   -1.4805   -7.4102    0.0000 C   0  0  0  0  0  0  0  0  0  0  0  0
   -1.4809   -8.9102    0.0000 H   0  0  0  0  0  0  0  0  0  0  0  0
    1.1194   -4.4109    0.0000 O   0  0  0  0  0  0  0  0  0  0  0  0
    1.1197   -2.9109    0.0000 C   0  0  0  0  0  0  0  0  0  0  0  0
   -1.0106   -1.6805    0.0000 C   0  0  0  0  0  0  0  0  0  0  0  0
   -2.3097   -2.4303    0.0000 H   0  0  0  0  0  0  0  0  0  0  0  0
   -1.0103   -0.1805    0.0000 C   0  0  0  0  0  0  0  0  0  0  0  0
    0.4668   -0.4412    0.0000 H   0  0  0  0  0  0  0  0  0  0  0  0
   -0.4971    1.2289    0.0000 H   0  0  0  0  0  0  0  0  0  0  0  0
   -2.3092    0.5697    0.0000 N   0  0  0  0  0  0  0  0  0  0  0  0
   -3.6084   -0.1801    0.0000 H   0  0  0  0  0  0  0  0  0  0  0  0
   -2.3090    2.0697    0.0000 C   0  0  0  0  0  0  0  0  0  0  0  0
   -1.0099    2.8195    0.0000 H   0  0  0  0  0  0  0  0  0  0  0  0
   -3.7863    1.8094    0.0000 H   0  0  0  0  0  0  0  0  0  0  0  0
   -2.8218    3.4793    0.0000 H   0  0  0  0  0  0  0  0  0  0  0  0
    2.4188   -2.1611    0.0000 C   0  0  0  0  0  0  0  0  0  0  0  0
    2.4186   -0.6602    0.0000 C   0  0  0  0  0  0  0  0  0  0  0  0
    1.1195    0.0898    0.0000 H   0  0  0  0  0  0  0  0  0  0  0  0
    3.7177    0.0895    0.0000 C   0  0  0  0  0  0  0  0  0  0  0  0
    3.7182    1.5895    0.0000 H   0  0  0  0  0  0  0  0  0  0  0  0
    5.0171   -0.6615    0.0000 C   0  0  0  0  0  0  0  0  0  0  0  0
    6.3163    0.0883    0.0000 H   0  0  0  0  0  0  0  0  0  0  0  0
    5.0174   -2.1623    0.0000 C   0  0  0  0  0  0  0  0  0  0  0  0
    6.3164   -2.9123    0.0000 H   0  0  0  0  0  0  0  0  0  0  0  0
    3.7182   -2.9121    0.0000 C   0  0  0  0  0  0  0  0  0  0  0  0
    3.7177   -4.4121    0.0000 H   0  0  0  0  0  0  0  0  0  0  0  0
  1  2  1  0  0  0  0 
  1  3  1  0  0  0  0 
  1  4  1  0  0  0  0 
  1  5  1  0  0  0  0 
  5  6  2  0  0  0  0 
  6  7  1  0  0  0  0 
  7  8  1  0  0  0  0 
  7  9  2  0  0  0  0 
  9 10  1  0  0  0  0 
  9 11  1  0  0  0  0 
 11 12  1  0  0  0  0 
 11 13  2  0  0  0  0 
  5 13  1  0  0  0  0 
 13 14  1  0  0  0  0 
  6 15  1  0  0  0  0 
 15 16  1  0  0  0  0 
 16 17  2  0  0  0  0 
 17 18  1  4  0  0  0 
 17 19  1  0  0  0  0 
 19 20  1  0  0  0  0 
 19 21  1  0  0  0  0 
 19 22  1  0  0  0  0 
 22 23  1  0  0  0  0 
 22 24  1  0  0  0  0 
 24 25  1  0  0  0  0 
 24 26  1  0  0  0  0 
 24 27  1  0  0  0  0 
 16 28  1  0  0  0  0 
 28 29  2  0  0  0  0 
 29 30  1  0  0  0  0 
 29 31  1  0  0  0  0 
 31 32  1  0  0  0  0 
 31 33  2  0  0  0  0 
 33 34  1  0  0  0  0 
 33 35  1  0  0  0  0 
 35 36  1  0  0  0  0 
 35 37  2  0  0  0  0 
 28 37  1  0  0  0  0 
 37 38  1  0  0  0  0 
M  END
> <Rank>
29

> <Priority_score>
0.024800000000000003

> <Reaction_type>
alkyl dehydrogenation

> <Parent_ID>
37

> <Parent_InChI>
InChI=1S/C17H21NO/c1-14-8-6-7-11-16(14)19-17(12-13-18-2)15-9-4-3-5-10-15/h3-11,17-18H,12-13H2,1-2H3

> <Parent_SMILES>
CNCC[C@@H](Oc1ccccc1C)c1ccccc1

$$$$
Molecule 38
  CDK     0516241031

 12 12  0  0  0  0  0  0  0  0999 V2000
   -3.8952   -1.4985    0.0000 C   0  0  0  0  0  0  0  0  0  0  0  0
   -2.5962   -2.2487    0.0000 N   0  0  0  0  0  0  0  0  0  0  0  0
   -1.2971   -1.4989    0.0000 C   0  0  0  0  0  0  0  0  0  0  0  0
    0.0018   -2.2491    0.0000 C   0  0  1  0  0  0  0  0  0  0  0  0
    1.3010   -1.4993    0.0000 C   0  0  0  0  0  0  0  0  0  0  0  0
    1.3015    0.0015    0.0000 C   0  0  0  0  0  0  0  0  0  0  0  0
    2.5960    0.7437    0.0000 C   0  0  0  0  0  0  0  0  0  0  0  0
    3.8950   -0.0063    0.0000 C   0  0  0  0  0  0  0  0  0  0  0  0
    3.8996   -1.4985    0.0000 C   0  0  0  0  0  0  0  0  0  0  0  0
    2.6000   -2.2493    0.0000 C   0  0  0  0  0  0  0  0  0  0  0  0
    5.1998   -2.2463    0.0000 O   0  0  0  0  0  0  0  0  0  0  0  0
    0.0016   -3.7491    0.0000 O   0  0  0  0  0  0  0  0  0  0  0  0
  1  2  1  0  0  0  0 
  2  3  1  0  0  0  0 
  3  4  1  0  0  0  0 
  4  5  1  0  0  0  0 
  5  6  2  0  0  0  0 
  6  7  1  0  0  0  0 
  7  8  2  0  0  0  0 
  8  9  1  0  0  0  0 
  9 10  2  0  0  0  0 
  5 10  1  0  0  0  0 
  9 11  1  0  0  0  0 
  4 12  1  1  0  0  0 
M  END
> <SMILES>
CNC[C@H](O)c1cccc(O)c1

$$$$
Molecule 38_metabolite 1
  CDK     0516241031

 30 30  0  0  0  0  0  0  0  0999 V2000
   -2.0367    0.8888    0.0000 C   0  0  0  0  0  0  0  0  0  0  0  0
   -3.3358    0.1391    0.0000 H   0  0  0  0  0  0  0  0  0  0  0  0
   -3.0007    2.0381    0.0000 H   0  0  0  0  0  0  0  0  0  0  0  0
   -1.0723    2.0378    0.0000 H   0  0  0  0  0  0  0  0  0  0  0  0
   -0.7377    0.1386    0.0000 C   0  0  0  0  0  0  0  0  0  0  0  0
   -0.7380   -1.3614    0.0000 O   0  0  0  0  0  0  0  0  0  0  0  0
    0.5614    0.8884    0.0000 N   0  0  0  0  0  0  0  0  0  0  0  0
    0.5616    2.3884    0.0000 C   0  0  0  0  0  0  0  0  0  0  0  0
   -0.7373    3.1386    0.0000 H   0  0  0  0  0  0  0  0  0  0  0  0
    1.0749    3.7979    0.0000 H   0  0  0  0  0  0  0  0  0  0  0  0
    2.0388    2.1277    0.0000 H   0  0  0  0  0  0  0  0  0  0  0  0
    2.2760   -0.1018    0.0000 C   0  0  0  0  0  0  0  0  0  0  0  0
    3.7531   -0.3626    0.0000 H   0  0  0  0  0  0  0  0  0  0  0  0
    2.7892    1.3076    0.0000 H   0  0  0  0  0  0  0  0  0  0  0  0
    2.2757   -1.6018    0.0000 C   0  0  1  0  0  0  0  0  0  0  0  0
    0.7986   -1.3411    0.0000 H   0  0  0  0  0  0  0  0  0  0  0  0
    3.5747   -2.3521    0.0000 C   0  0  0  0  0  0  0  0  0  0  0  0
    4.8747   -1.6021    0.0000 C   0  0  0  0  0  0  0  0  0  0  0  0
    4.8772   -0.1021    0.0000 H   0  0  0  0  0  0  0  0  0  0  0  0
    6.1647   -2.3521    0.0000 C   0  0  0  0  0  0  0  0  0  0  0  0
    7.4648   -1.6040    0.0000 H   0  0  0  0  0  0  0  0  0  0  0  0
    6.1647   -3.8521    0.0000 C   0  0  0  0  0  0  0  0  0  0  0  0
    7.4648   -4.6001    0.0000 H   0  0  0  0  0  0  0  0  0  0  0  0
    4.8747   -4.6021    0.0000 C   0  0  0  0  0  0  0  0  0  0  0  0
    3.5747   -3.8521    0.0000 C   0  0  0  0  0  0  0  0  0  0  0  0
    2.2757   -4.6023    0.0000 H   0  0  0  0  0  0  0  0  0  0  0  0
    4.8772   -6.1020    0.0000 O   0  0  0  0  0  0  0  0  0  0  0  0
    6.1775   -6.8499    0.0000 H   0  0  0  0  0  0  0  0  0  0  0  0
    1.7625   -3.0113    0.0000 O   0  0  0  0  0  0  0  0  0  0  0  0
    0.2852   -3.2715    0.0000 H   0  0  0  0  0  0  0  0  0  0  0  0
  1  2  1  0  0  0  0 
  1  3  1  0  0  0  0 
  1  4  1  0  0  0  0 
  1  5  1  0  0  0  0 
  5  6  2  0  0  0  0 
  5  7  1  0  0  0  0 
  7  8  1  0  0  0  0 
  8  9  1  0  0  0  0 
  8 10  1  0  0  0  0 
  8 11  1  0  0  0  0 
  7 12  1  0  0  0  0 
 12 13  1  0  0  0  0 
 12 14  1  0  0  0  0 
 12 15  1  0  0  0  0 
 15 16  1  6  0  0  0 
 15 17  1  0  0  0  0 
 17 18  2  0  0  0  0 
 18 19  1  0  0  0  0 
 18 20  1  0  0  0  0 
 20 21  1  0  0  0  0 
 20 22  2  0  0  0  0 
 22 23  1  0  0  0  0 
 22 24  1  0  0  0  0 
 24 25  2  0  0  0  0 
 17 25  1  0  0  0  0 
 25 26  1  0  0  0  0 
 24 27  1  0  0  0  0 
 27 28  1  0  0  0  0 
 15 29  1  1  0  0  0 
 29 30  1  0  0  0  0 
M  END
> <Rank>
1

> <Priority_score>
0.836

> <Reaction_type>
N-acetylation_(NH1-CH3)

> <Parent_ID>
38

> <Parent_InChI>
InChI=1S/C9H13NO2/c1-10-6-9(12)7-3-2-4-8(11)5-7/h2-5,9-12H,6H2,1H3

> <Parent_SMILES>
CNC[C@H](O)c1cccc(O)c1

$$$$
Molecule 38_metabolite 2
  CDK     0516241031

 29 29  0  0  0  0  0  0  0  0999 V2000
    5.6781   -3.4814    0.0000 C   0  0  0  0  0  0  0  0  0  0  0  0
    4.9279   -4.7803    0.0000 H   0  0  0  0  0  0  0  0  0  0  0  0
    6.8273   -2.5174    0.0000 H   0  0  0  0  0  0  0  0  0  0  0  0
    6.8270   -4.4457    0.0000 H   0  0  0  0  0  0  0  0  0  0  0  0
    4.9283   -2.1822    0.0000 N   0  0  0  0  0  0  0  0  0  0  0  0
    5.6785   -0.8833    0.0000 H   0  0  0  0  0  0  0  0  0  0  0  0
    3.4283   -2.1820    0.0000 C   0  0  0  0  0  0  0  0  0  0  0  0
    2.0187   -2.6948    0.0000 H   0  0  0  0  0  0  0  0  0  0  0  0
    3.6885   -3.6592    0.0000 H   0  0  0  0  0  0  0  0  0  0  0  0
    2.6785   -0.8828    0.0000 C   0  0  1  0  0  0  0  0  0  0  0  0
    4.0881   -0.3700    0.0000 H   0  0  0  0  0  0  0  0  0  0  0  0
    1.1785   -0.8826    0.0000 C   0  0  0  0  0  0  0  0  0  0  0  0
    0.4277   -2.1821    0.0000 C   0  0  0  0  0  0  0  0  0  0  0  0
    1.1755   -3.4824    0.0000 H   0  0  0  0  0  0  0  0  0  0  0  0
   -1.0645   -2.1776    0.0000 C   0  0  0  0  0  0  0  0  0  0  0  0
   -1.8165   -3.4755    0.0000 H   0  0  0  0  0  0  0  0  0  0  0  0
   -1.8145   -0.8785    0.0000 C   0  0  0  0  0  0  0  0  0  0  0  0
   -3.3145   -0.8808    0.0000 H   0  0  0  0  0  0  0  0  0  0  0  0
   -1.0723    0.4160    0.0000 C   0  0  0  0  0  0  0  0  0  0  0  0
    0.4285    0.4165    0.0000 C   0  0  0  0  0  0  0  0  0  0  0  0
    1.1783    1.7156    0.0000 H   0  0  0  0  0  0  0  0  0  0  0  0
   -1.8245    1.7138    0.0000 O   0  0  0  0  0  0  0  0  0  0  0  0
   -3.3245    1.7113    0.0000 S   0  0  0  0  0  0  0  0  0  0  0  0
   -4.7332    1.1959    0.0000 O   0  0  0  0  0  0  0  0  0  0  0  0
   -3.0615    0.2345    0.0000 O   0  0  0  0  0  0  0  0  0  0  0  0
   -4.0767    3.0090    0.0000 O   0  0  0  0  0  0  0  0  0  0  0  0
   -5.5767    3.0065    0.0000 H   0  0  0  0  0  0  0  0  0  0  0  0
    2.4183    0.5944    0.0000 O   0  0  0  0  0  0  0  0  0  0  0  0
    3.5675    1.5584    0.0000 H   0  0  0  0  0  0  0  0  0  0  0  0
  1  2  1  0  0  0  0 
  1  3  1  0  0  0  0 
  1  4  1  0  0  0  0 
  1  5  1  0  0  0  0 
  5  6  1  0  0  0  0 
  5  7  1  0  0  0  0 
  7  8  1  0  0  0  0 
  7  9  1  0  0  0  0 
  7 10  1  0  0  0  0 
 10 11  1  6  0  0  0 
 10 12  1  0  0  0  0 
 12 13  2  0  0  0  0 
 13 14  1  0  0  0  0 
 13 15  1  0  0  0  0 
 15 16  1  0  0  0  0 
 15 17  2  0  0  0  0 
 17 18  1  0  0  0  0 
 17 19  1  0  0  0  0 
 19 20  2  0  0  0  0 
 12 20  1  0  0  0  0 
 20 21  1  0  0  0  0 
 19 22  1  0  0  0  0 
 22 23  1  0  0  0  0 
 23 24  2  0  0  0  0 
 23 25  2  0  0  0  0 
 23 26  1  0  0  0  0 
 26 27  1  0  0  0  0 
 10 28  1  1  0  0  0 
 28 29  1  0  0  0  0 
M  END
> <Rank>
2

> <Priority_score>
0.8346248710512485

> <Reaction_type>
sulfation_(aromatic_hydroxyl)

> <Parent_ID>
38

> <Parent_InChI>
InChI=1S/C9H13NO2/c1-10-6-9(12)7-3-2-4-8(11)5-7/h2-5,9-12H,6H2,1H3

> <Parent_SMILES>
CNC[C@H](O)c1cccc(O)c1

$$$$
Molecule 38_metabolite 3
  CDK     0516241031

 26 26  0  0  0  0  0  0  0  0999 V2000
    3.5674   -5.4404    0.0000 C   0  0  0  0  0  0  0  0  0  0  0  0
    2.2682   -6.1902    0.0000 H   0  0  0  0  0  0  0  0  0  0  0  0
    5.0446   -5.1802    0.0000 H   0  0  0  0  0  0  0  0  0  0  0  0
    4.0802   -6.8500    0.0000 H   0  0  0  0  0  0  0  0  0  0  0  0
    3.5676   -3.9404    0.0000 N   0  0  0  0  0  0  0  0  0  0  0  0
    2.2687   -3.1902    0.0000 C   0  0  0  0  0  0  0  0  0  0  0  0
    0.7915   -2.9295    0.0000 H   0  0  0  0  0  0  0  0  0  0  0  0
    1.7554   -4.5997    0.0000 H   0  0  0  0  0  0  0  0  0  0  0  0
    2.2689   -1.6902    0.0000 C   0  0  1  0  0  0  0  0  0  0  0  0
    3.7461   -1.9509    0.0000 H   0  0  0  0  0  0  0  0  0  0  0  0
    0.9700   -0.9400    0.0000 C   0  0  0  0  0  0  0  0  0  0  0  0
   -0.3300   -1.6900    0.0000 C   0  0  0  0  0  0  0  0  0  0  0  0
   -0.3325   -3.1900    0.0000 H   0  0  0  0  0  0  0  0  0  0  0  0
   -1.6200   -0.9400    0.0000 C   0  0  0  0  0  0  0  0  0  0  0  0
   -2.9202   -1.6880    0.0000 H   0  0  0  0  0  0  0  0  0  0  0  0
   -1.6200    0.5600    0.0000 C   0  0  0  0  0  0  0  0  0  0  0  0
   -2.9202    1.3080    0.0000 H   0  0  0  0  0  0  0  0  0  0  0  0
   -0.3300    1.3100    0.0000 C   0  0  0  0  0  0  0  0  0  0  0  0
    0.9700    0.5600    0.0000 C   0  0  0  0  0  0  0  0  0  0  0  0
    2.2689    1.3102    0.0000 H   0  0  0  0  0  0  0  0  0  0  0  0
   -0.3325    2.8100    0.0000 O   0  0  0  0  0  0  0  0  0  0  0  0
   -1.6328    3.5578    0.0000 H   0  0  0  0  0  0  0  0  0  0  0  0
    2.7822   -0.2808    0.0000 O   0  0  0  0  0  0  0  0  0  0  0  0
    4.2594   -0.0205    0.0000 H   0  0  0  0  0  0  0  0  0  0  0  0
    4.8668   -3.1906    0.0000 O   0  0  0  0  0  0  0  0  0  0  0  0
    6.1657   -3.9408    0.0000 H   0  0  0  0  0  0  0  0  0  0  0  0
  1  2  1  0  0  0  0 
  1  3  1  0  0  0  0 
  1  4  1  0  0  0  0 
  1  5  1  0  0  0  0 
  5  6  1  0  0  0  0 
  6  7  1  0  0  0  0 
  6  8  1  0  0  0  0 
  6  9  1  0  0  0  0 
  9 10  1  6  0  0  0 
  9 11  1  0  0  0  0 
 11 12  2  0  0  0  0 
 12 13  1  0  0  0  0 
 12 14  1  0  0  0  0 
 14 15  1  0  0  0  0 
 14 16  2  0  0  0  0 
 16 17  1  0  0  0  0 
 16 18  1  0  0  0  0 
 18 19  2  0  0  0  0 
 11 19  1  0  0  0  0 
 19 20  1  0  0  0  0 
 18 21  1  0  0  0  0 
 21 22  1  0  0  0  0 
  9 23  1  1  0  0  0 
 23 24  1  0  0  0  0 
  5 25  1  0  0  0  0 
 25 26  1  0  0  0  0 
M  END
> <Rank>
3

> <Priority_score>
0.6402689291909924

> <Reaction_type>
amine hydroxylation

> <Parent_ID>
38

> <Parent_InChI>
InChI=1S/C9H13NO2/c1-10-6-9(12)7-3-2-4-8(11)5-7/h2-5,9-12H,6H2,1H3

> <Parent_SMILES>
CNC[C@H](O)c1cccc(O)c1

$$$$
Molecule 38_metabolite 4
  CDK     0516241031

 26 26  0  0  0  0  0  0  0  0999 V2000
   -1.2542   -3.8260    0.0000 C   0  0  0  0  0  0  0  0  0  0  0  0
   -1.2565   -5.3260    0.0000 H   0  0  0  0  0  0  0  0  0  0  0  0
   -2.5532   -3.0760    0.0000 C   0  0  0  0  0  0  0  0  0  0  0  0
   -3.8511   -3.8279    0.0000 H   0  0  0  0  0  0  0  0  0  0  0  0
   -2.5578   -1.5838    0.0000 C   0  0  0  0  0  0  0  0  0  0  0  0
   -1.2582   -0.8330    0.0000 C   0  0  0  0  0  0  0  0  0  0  0  0
   -1.2585    0.6670    0.0000 H   0  0  0  0  0  0  0  0  0  0  0  0
    0.0408   -1.5830    0.0000 C   0  0  0  0  0  0  0  0  0  0  0  0
    0.0403   -3.0838    0.0000 C   0  0  0  0  0  0  0  0  0  0  0  0
    1.3381   -3.8360    0.0000 H   0  0  0  0  0  0  0  0  0  0  0  0
    1.3400   -0.8332    0.0000 C   0  0  2  0  0  0  0  0  0  0  0  0
    2.3043    0.3157    0.0000 H   0  0  0  0  0  0  0  0  0  0  0  0
    2.6389   -1.5834    0.0000 C   0  0  0  0  0  0  0  0  0  0  0  0
    1.6745   -2.7323    0.0000 H   0  0  0  0  0  0  0  0  0  0  0  0
    3.6029   -2.7326    0.0000 H   0  0  0  0  0  0  0  0  0  0  0  0
    3.9380   -0.8336    0.0000 N   0  0  0  0  0  0  0  0  0  0  0  0
    3.9383    0.6664    0.0000 H   0  0  0  0  0  0  0  0  0  0  0  0
    5.2369   -1.5838    0.0000 C   0  0  0  0  0  0  0  0  0  0  0  0
    5.7502   -0.1743    0.0000 H   0  0  0  0  0  0  0  0  0  0  0  0
    6.7141   -1.8445    0.0000 H   0  0  0  0  0  0  0  0  0  0  0  0
    5.2367   -3.0838    0.0000 O   0  0  0  0  0  0  0  0  0  0  0  0
    6.5356   -3.8340    0.0000 H   0  0  0  0  0  0  0  0  0  0  0  0
    0.3760    0.3161    0.0000 O   0  0  0  0  0  0  0  0  0  0  0  0
    0.8892    1.7255    0.0000 H   0  0  0  0  0  0  0  0  0  0  0  0
   -3.8581   -0.8360    0.0000 O   0  0  0  0  0  0  0  0  0  0  0  0
   -5.1558   -1.5881    0.0000 H   0  0  0  0  0  0  0  0  0  0  0  0
  1  2  1  0  0  0  0 
  1  3  2  0  0  0  0 
  3  4  1  0  0  0  0 
  3  5  1  0  0  0  0 
  5  6  2  0  0  0  0 
  6  7  1  0  0  0  0 
  6  8  1  0  0  0  0 
  8  9  2  0  0  0  0 
  1  9  1  0  0  0  0 
  9 10  1  0  0  0  0 
  8 11  1  0  0  0  0 
 11 12  1  6  0  0  0 
 11 13  1  0  0  0  0 
 13 14  1  0  0  0  0 
 13 15  1  0  0  0  0 
 13 16  1  0  0  0  0 
 16 17  1  0  0  0  0 
 16 18  1  0  0  0  0 
 18 19  1  0  0  0  0 
 18 20  1  0  0  0  0 
 18 21  1  0  0  0  0 
 21 22  1  0  0  0  0 
 11 23  1  1  0  0  0 
 23 24  1  0  0  0  0 
  5 25  1  0  0  0  0 
 25 26  1  0  0  0  0 
M  END
> <Rank>
3

> <Priority_score>
0.6402689291909924

> <Reaction_type>
aliphatic hydroxylation

> <Parent_ID>
38

> <Parent_InChI>
InChI=1S/C9H13NO2/c1-10-6-9(12)7-3-2-4-8(11)5-7/h2-5,9-12H,6H2,1H3

> <Parent_SMILES>
CNC[C@H](O)c1cccc(O)c1

$$$$
Molecule 38_metabolite 5
  CDK     0516241031

 21 21  0  0  0  0  0  0  0  0999 V2000
   -0.4763   -2.9235    0.0000 C   0  0  0  0  0  0  0  0  0  0  0  0
   -0.4786   -4.4235    0.0000 H   0  0  0  0  0  0  0  0  0  0  0  0
   -1.7753   -2.1735    0.0000 C   0  0  0  0  0  0  0  0  0  0  0  0
   -3.0732   -2.9255    0.0000 H   0  0  0  0  0  0  0  0  0  0  0  0
   -1.7799   -0.6814    0.0000 C   0  0  0  0  0  0  0  0  0  0  0  0
   -0.4803    0.0695    0.0000 C   0  0  0  0  0  0  0  0  0  0  0  0
   -0.4806    1.5695    0.0000 H   0  0  0  0  0  0  0  0  0  0  0  0
    0.8187   -0.6805    0.0000 C   0  0  0  0  0  0  0  0  0  0  0  0
    0.8182   -2.1814    0.0000 C   0  0  0  0  0  0  0  0  0  0  0  0
    2.1160   -2.9335    0.0000 H   0  0  0  0  0  0  0  0  0  0  0  0
    2.1178    0.0693    0.0000 C   0  0  2  0  0  0  0  0  0  0  0  0
    3.0822    1.2182    0.0000 H   0  0  0  0  0  0  0  0  0  0  0  0
    3.4168   -0.6809    0.0000 C   0  0  0  0  0  0  0  0  0  0  0  0
    2.4524   -1.8298    0.0000 H   0  0  0  0  0  0  0  0  0  0  0  0
    4.3808   -1.8302    0.0000 H   0  0  0  0  0  0  0  0  0  0  0  0
    4.7159    0.0689    0.0000 O   0  0  0  0  0  0  0  0  0  0  0  0
    6.0148   -0.6814    0.0000 H   0  0  0  0  0  0  0  0  0  0  0  0
    1.1539    1.2185    0.0000 O   0  0  0  0  0  0  0  0  0  0  0  0
    1.6671    2.6280    0.0000 H   0  0  0  0  0  0  0  0  0  0  0  0
   -3.0802    0.0665    0.0000 O   0  0  0  0  0  0  0  0  0  0  0  0
   -4.3779   -0.6857    0.0000 H   0  0  0  0  0  0  0  0  0  0  0  0
  1  2  1  0  0  0  0 
  1  3  2  0  0  0  0 
  3  4  1  0  0  0  0 
  3  5  1  0  0  0  0 
  5  6  2  0  0  0  0 
  6  7  1  0  0  0  0 
  6  8  1  0  0  0  0 
  8  9  2  0  0  0  0 
  1  9  1  0  0  0  0 
  9 10  1  0  0  0  0 
  8 11  1  0  0  0  0 
 11 12  1  6  0  0  0 
 11 13  1  0  0  0  0 
 13 14  1  0  0  0  0 
 13 15  1  0  0  0  0 
 13 16  1  0  0  0  0 
 16 17  1  0  0  0  0 
 11 18  1  1  0  0  0 
 18 19  1  0  0  0  0 
  5 20  1  0  0  0  0 
 20 21  1  0  0  0  0 
M  END
> <Rank>
3

> <Priority_score>
0.6402689291909924

> <Reaction_type>
N-dealkylation_(R-NHCH2-alkyl)

> <Parent_ID>
38

> <Parent_InChI>
InChI=1S/C9H13NO2/c1-10-6-9(12)7-3-2-4-8(11)5-7/h2-5,9-12H,6H2,1H3

> <Parent_SMILES>
CNC[C@H](O)c1cccc(O)c1

$$$$
Molecule 38_metabolite 6
  CDK     0516241031

 22 22  0  0  0  0  0  0  0  0999 V2000
    3.5666   -0.9426    0.0000 C   0  0  0  0  0  0  0  0  0  0  0  0
    4.8668   -0.1946    0.0000 H   0  0  0  0  0  0  0  0  0  0  0  0
    3.5666   -2.4426    0.0000 C   0  0  0  0  0  0  0  0  0  0  0  0
    4.8668   -3.1906    0.0000 H   0  0  0  0  0  0  0  0  0  0  0  0
    2.2766   -3.1926    0.0000 C   0  0  0  0  0  0  0  0  0  0  0  0
    0.9766   -2.4426    0.0000 C   0  0  0  0  0  0  0  0  0  0  0  0
   -0.3223   -3.1928    0.0000 H   0  0  0  0  0  0  0  0  0  0  0  0
    0.9766   -0.9426    0.0000 C   0  0  0  0  0  0  0  0  0  0  0  0
    2.2766   -0.1926    0.0000 C   0  0  0  0  0  0  0  0  0  0  0  0
    2.2791    1.3074    0.0000 H   0  0  0  0  0  0  0  0  0  0  0  0
   -0.3223   -0.1924    0.0000 C   0  0  2  0  0  0  0  0  0  0  0  0
   -1.7995    0.0683    0.0000 H   0  0  0  0  0  0  0  0  0  0  0  0
   -0.3221    1.3076    0.0000 C   0  0  0  0  0  0  0  0  0  0  0  0
    1.1551    1.0469    0.0000 H   0  0  0  0  0  0  0  0  0  0  0  0
    0.1912    2.7171    0.0000 H   0  0  0  0  0  0  0  0  0  0  0  0
   -1.6210    2.0578    0.0000 N   0  0  0  0  0  0  0  0  0  0  0  0
   -1.6208    3.5578    0.0000 H   0  0  0  0  0  0  0  0  0  0  0  0
   -2.9202    1.3080    0.0000 H   0  0  0  0  0  0  0  0  0  0  0  0
   -0.8356   -1.6018    0.0000 O   0  0  0  0  0  0  0  0  0  0  0  0
   -2.3128   -1.8621    0.0000 H   0  0  0  0  0  0  0  0  0  0  0  0
    2.2791   -4.6926    0.0000 O   0  0  0  0  0  0  0  0  0  0  0  0
    3.5794   -5.4404    0.0000 H   0  0  0  0  0  0  0  0  0  0  0  0
  1  2  1  0  0  0  0 
  1  3  2  0  0  0  0 
  3  4  1  0  0  0  0 
  3  5  1  0  0  0  0 
  5  6  2  0  0  0  0 
  6  7  1  0  0  0  0 
  6  8  1  0  0  0  0 
  8  9  2  0  0  0  0 
  1  9  1  0  0  0  0 
  9 10  1  0  0  0  0 
  8 11  1  0  0  0  0 
 11 12  1  6  0  0  0 
 11 13  1  0  0  0  0 
 13 14  1  0  0  0  0 
 13 15  1  0  0  0  0 
 13 16  1  0  0  0  0 
 16 17  1  0  0  0  0 
 16 18  1  0  0  0  0 
 11 19  1  1  0  0  0 
 19 20  1  0  0  0  0 
  5 21  1  0  0  0  0 
 21 22  1  0  0  0  0 
M  END
> <Rank>
3

> <Priority_score>
0.6402689291909924

> <Reaction_type>
N-demethylation_(R-NHCH3)

> <Parent_ID>
38

> <Parent_InChI>
InChI=1S/C9H13NO2/c1-10-6-9(12)7-3-2-4-8(11)5-7/h2-5,9-12H,6H2,1H3

> <Parent_SMILES>
CNC[C@H](O)c1cccc(O)c1

$$$$
Molecule 38_metabolite 7
  CDK     0516241031

 45 46  0  0  0  0  0  0  0  0999 V2000
   -2.2155   -2.2967    0.0000 C   0  0  0  0  0  0  0  0  0  0  0  0
   -3.6928   -2.0369    0.0000 H   0  0  0  0  0  0  0  0  0  0  0  0
   -0.9161   -3.0461    0.0000 H   0  0  0  0  0  0  0  0  0  0  0  0
   -2.7279   -3.7065    0.0000 H   0  0  0  0  0  0  0  0  0  0  0  0
   -1.2519   -1.1472    0.0000 N   0  0  0  0  0  0  0  0  0  0  0  0
    0.2255   -1.4070    0.0000 H   0  0  0  0  0  0  0  0  0  0  0  0
   -1.7655    0.2621    0.0000 C   0  0  0  0  0  0  0  0  0  0  0  0
   -2.7303    1.4107    0.0000 H   0  0  0  0  0  0  0  0  0  0  0  0
   -3.0642   -0.4885    0.0000 H   0  0  0  0  0  0  0  0  0  0  0  0
   -0.8019    1.4116    0.0000 C   0  0  1  0  0  0  0  0  0  0  0  0
    0.1628    0.2630    0.0000 H   0  0  0  0  0  0  0  0  0  0  0  0
   -1.3156    2.8209    0.0000 C   0  0  0  0  0  0  0  0  0  0  0  0
   -2.7937    3.0811    0.0000 C   0  0  0  0  0  0  0  0  0  0  0  0
   -3.7591    1.9330    0.0000 H   0  0  0  0  0  0  0  0  0  0  0  0
   -3.3007    4.4845    0.0000 C   0  0  0  0  0  0  0  0  0  0  0  0
   -4.7777    4.7463    0.0000 H   0  0  0  0  0  0  0  0  0  0  0  0
   -2.3372    5.6342    0.0000 C   0  0  0  0  0  0  0  0  0  0  0  0
   -2.8533    7.0426    0.0000 H   0  0  0  0  0  0  0  0  0  0  0  0
   -0.8668    5.3804    0.0000 C   0  0  0  0  0  0  0  0  0  0  0  0
   -0.3521    3.9706    0.0000 C   0  0  0  0  0  0  0  0  0  0  0  0
    1.1253    3.7113    0.0000 H   0  0  0  0  0  0  0  0  0  0  0  0
    0.0948    6.5317    0.0000 O   0  0  0  0  0  0  0  0  0  0  0  0
    1.5726    6.2747    0.0000 C   0  0  0  0  0  0  0  0  0  0  0  0
    1.0660    4.8628    0.0000 H   0  0  0  0  0  0  0  0  0  0  0  0
    1.5726    7.7647    0.0000 C   0  0  0  0  0  0  0  0  0  0  0  0
    1.0607    9.1746    0.0000 H   0  0  0  0  0  0  0  0  0  0  0  0
    2.8926    8.5247    0.0000 C   0  0  0  0  0  0  0  0  0  0  0  0
    3.8614    9.6698    0.0000 H   0  0  0  0  0  0  0  0  0  0  0  0
    4.1926    7.7647    0.0000 C   0  0  0  0  0  0  0  0  0  0  0  0
    5.6693    7.5015    0.0000 H   0  0  0  0  0  0  0  0  0  0  0  0
    4.1926    6.2747    0.0000 C   0  0  0  0  0  0  0  0  0  0  0  0
    4.7053    4.8650    0.0000 H   0  0  0  0  0  0  0  0  0  0  0  0
    6.1425    6.6183    0.0000 C   0  0  0  0  0  0  0  0  0  0  0  0
    7.1066    5.4691    0.0000 O   0  0  0  0  0  0  0  0  0  0  0  0
    6.6557    8.0278    0.0000 O   0  0  0  0  0  0  0  0  0  0  0  0
    8.1329    8.2881    0.0000 H   0  0  0  0  0  0  0  0  0  0  0  0
    2.8926    5.5247    0.0000 O   0  0  0  0  0  0  0  0  0  0  0  0
    4.7107    9.1723    0.0000 O   0  0  0  0  0  0  0  0  0  0  0  0
    6.1888    9.4274    0.0000 H   0  0  0  0  0  0  0  0  0  0  0  0
    1.9314    9.6762    0.0000 O   0  0  0  0  0  0  0  0  0  0  0  0
    2.4481   11.0844    0.0000 H   0  0  0  0  0  0  0  0  0  0  0  0
    0.0953    7.5048    0.0000 O   0  0  0  0  0  0  0  0  0  0  0  0
   -0.8685    8.6542    0.0000 H   0  0  0  0  0  0  0  0  0  0  0  0
    0.4968    2.1622    0.0000 O   0  0  0  0  0  0  0  0  0  0  0  0
    1.7962    1.4128    0.0000 H   0  0  0  0  0  0  0  0  0  0  0  0
  1  2  1  0  0  0  0 
  1  3  1  0  0  0  0 
  1  4  1  0  0  0  0 
  1  5  1  0  0  0  0 
  5  6  1  0  0  0  0 
  5  7  1  0  0  0  0 
  7  8  1  0  0  0  0 
  7  9  1  0  0  0  0 
  7 10  1  0  0  0  0 
 10 11  1  6  0  0  0 
 10 12  1  0  0  0  0 
 12 13  2  0  0  0  0 
 13 14  1  0  0  0  0 
 13 15  1  0  0  0  0 
 15 16  1  0  0  0  0 
 15 17  2  0  0  0  0 
 17 18  1  0  0  0  0 
 17 19  1  0  0  0  0 
 19 20  2  0  0  0  0 
 12 20  1  0  0  0  0 
 20 21  1  0  0  0  0 
 19 22  1  0  0  0  0 
 22 23  1  0  0  0  0 
 23 24  1  0  0  0  0 
 23 25  1  0  0  0  0 
 25 26  1  0  0  0  0 
 25 27  1  0  0  0  0 
 27 28  1  0  0  0  0 
 27 29  1  0  0  0  0 
 29 30  1  0  0  0  0 
 29 31  1  0  0  0  0 
 31 32  1  0  0  0  0 
 31 33  1  0  0  0  0 
 33 34  2  0  0  0  0 
 33 35  1  0  0  0  0 
 35 36  1  0  0  0  0 
 31 37  1  0  0  0  0 
 23 37  1  0  0  0  0 
 29 38  1  0  0  0  0 
 38 39  1  0  0  0  0 
 27 40  1  0  0  0  0 
 40 41  1  0  0  0  0 
 25 42  1  0  0  0  0 
 42 43  1  0  0  0  0 
 10 44  1  1  0  0  0 
 44 45  1  0  0  0  0 
M  END
> <Rank>
7

> <Priority_score>
0.604

> <Reaction_type>
O-glucuronidation_(aromatic_hydroxyl)

> <Parent_ID>
38

> <Parent_InChI>
InChI=1S/C9H13NO2/c1-10-6-9(12)7-3-2-4-8(11)5-7/h2-5,9-12H,6H2,1H3

> <Parent_SMILES>
CNC[C@H](O)c1cccc(O)c1

$$$$
Molecule 38_metabolite 8
  CDK     0516241031

 26 26  0  0  0  0  0  0  0  0999 V2000
   -0.0238    2.9848    0.0000 C   0  0  0  0  0  0  0  0  0  0  0  0
    1.2752    3.7350    0.0000 H   0  0  0  0  0  0  0  0  0  0  0  0
   -1.5009    2.7240    0.0000 H   0  0  0  0  0  0  0  0  0  0  0  0
   -0.5370    4.3942    0.0000 H   0  0  0  0  0  0  0  0  0  0  0  0
   -0.0235    1.4848    0.0000 N   0  0  0  0  0  0  0  0  0  0  0  0
   -1.3224    0.7345    0.0000 H   0  0  0  0  0  0  0  0  0  0  0  0
    1.2756    0.7350    0.0000 C   0  0  0  0  0  0  0  0  0  0  0  0
    2.7529    0.4747    0.0000 H   0  0  0  0  0  0  0  0  0  0  0  0
    1.7884    2.1446    0.0000 H   0  0  0  0  0  0  0  0  0  0  0  0
    1.2759   -0.7650    0.0000 C   0  0  1  0  0  0  0  0  0  0  0  0
   -0.2014   -0.5048    0.0000 H   0  0  0  0  0  0  0  0  0  0  0  0
    2.5750   -1.5148    0.0000 C   0  0  0  0  0  0  0  0  0  0  0  0
    3.8741   -0.7648    0.0000 C   0  0  0  0  0  0  0  0  0  0  0  0
    3.8743    0.7352    0.0000 H   0  0  0  0  0  0  0  0  0  0  0  0
    5.1736   -1.5157    0.0000 C   0  0  0  0  0  0  0  0  0  0  0  0
    5.1741   -3.0165    0.0000 C   0  0  0  0  0  0  0  0  0  0  0  0
    6.4732   -3.7663    0.0000 H   0  0  0  0  0  0  0  0  0  0  0  0
    3.8750   -3.7665    0.0000 C   0  0  0  0  0  0  0  0  0  0  0  0
    3.8748   -5.2665    0.0000 H   0  0  0  0  0  0  0  0  0  0  0  0
    2.5755   -3.0157    0.0000 C   0  0  0  0  0  0  0  0  0  0  0  0
    1.2765   -3.7657    0.0000 O   0  0  0  0  0  0  0  0  0  0  0  0
    1.2765   -5.2657    0.0000 H   0  0  0  0  0  0  0  0  0  0  0  0
    6.4726   -0.7657    0.0000 O   0  0  0  0  0  0  0  0  0  0  0  0
    7.7717   -1.5157    0.0000 H   0  0  0  0  0  0  0  0  0  0  0  0
    0.7631   -2.1747    0.0000 O   0  0  0  0  0  0  0  0  0  0  0  0
   -0.7141   -2.4354    0.0000 H   0  0  0  0  0  0  0  0  0  0  0  0
  1  2  1  0  0  0  0 
  1  3  1  0  0  0  0 
  1  4  1  0  0  0  0 
  1  5  1  0  0  0  0 
  5  6  1  0  0  0  0 
  5  7  1  0  0  0  0 
  7  8  1  0  0  0  0 
  7  9  1  0  0  0  0 
  7 10  1  0  0  0  0 
 10 11  1  6  0  0  0 
 10 12  1  0  0  0  0 
 12 13  2  0  0  0  0 
 13 14  1  0  0  0  0 
 13 15  1  0  0  0  0 
 15 16  2  0  0  0  0 
 16 17  1  0  0  0  0 
 16 18  1  0  0  0  0 
 18 19  1  0  0  0  0 
 18 20  2  0  0  0  0 
 12 20  1  0  0  0  0 
 20 21  1  0  0  0  0 
 21 22  1  0  0  0  0 
 15 23  1  0  0  0  0 
 23 24  1  0  0  0  0 
 10 25  1  1  0  0  0 
 25 26  1  0  0  0  0 
M  END
> <Rank>
8

> <Priority_score>
0.5475576360444704

> <Reaction_type>
aromatic_hydroxylation_(para_to_oxygen)

> <Parent_ID>
38

> <Parent_InChI>
InChI=1S/C9H13NO2/c1-10-6-9(12)7-3-2-4-8(11)5-7/h2-5,9-12H,6H2,1H3

> <Parent_SMILES>
CNC[C@H](O)c1cccc(O)c1

$$$$
Molecule 38_metabolite 9
  CDK     0516241031

 26 26  0  0  0  0  0  0  0  0999 V2000
   -6.4962    0.0808    0.0000 C   0  0  0  0  0  0  0  0  0  0  0  0
   -6.4964   -1.4192    0.0000 H   0  0  0  0  0  0  0  0  0  0  0  0
   -7.9734   -0.1794    0.0000 H   0  0  0  0  0  0  0  0  0  0  0  0
   -7.0090    1.4905    0.0000 H   0  0  0  0  0  0  0  0  0  0  0  0
   -5.1970    0.8306    0.0000 N   0  0  0  0  0  0  0  0  0  0  0  0
   -5.1968    2.3306    0.0000 H   0  0  0  0  0  0  0  0  0  0  0  0
   -3.8981    0.0804    0.0000 C   0  0  0  0  0  0  0  0  0  0  0  0
   -4.8624   -1.0685    0.0000 H   0  0  0  0  0  0  0  0  0  0  0  0
   -2.9341   -1.0688    0.0000 H   0  0  0  0  0  0  0  0  0  0  0  0
   -2.5989    0.8302    0.0000 C   0  0  1  0  0  0  0  0  0  0  0  0
   -1.6346    1.9791    0.0000 H   0  0  0  0  0  0  0  0  0  0  0  0
   -1.3000    0.0800    0.0000 C   0  0  0  0  0  0  0  0  0  0  0  0
   -1.3000   -1.4200    0.0000 C   0  0  0  0  0  0  0  0  0  0  0  0
   -2.5989   -2.1702    0.0000 H   0  0  0  0  0  0  0  0  0  0  0  0
   -0.0000   -2.1700    0.0000 C   0  0  0  0  0  0  0  0  0  0  0  0
   -0.0000   -3.6700    0.0000 H   0  0  0  0  0  0  0  0  0  0  0  0
    1.3000   -1.4200    0.0000 C   0  0  0  0  0  0  0  0  0  0  0  0
    2.5989   -2.1702    0.0000 H   0  0  0  0  0  0  0  0  0  0  0  0
    1.3000    0.0800    0.0000 C   0  0  0  0  0  0  0  0  0  0  0  0
   -0.0000    0.8300    0.0000 C   0  0  0  0  0  0  0  0  0  0  0  0
    0.0000    2.3300    0.0000 O   0  0  0  0  0  0  0  0  0  0  0  0
    1.2990    3.0800    0.0000 H   0  0  0  0  0  0  0  0  0  0  0  0
    2.5989    0.8302    0.0000 O   0  0  0  0  0  0  0  0  0  0  0  0
    3.8981    0.0804    0.0000 H   0  0  0  0  0  0  0  0  0  0  0  0
   -3.5629    1.9794    0.0000 O   0  0  0  0  0  0  0  0  0  0  0  0
   -3.0497    3.3889    0.0000 H   0  0  0  0  0  0  0  0  0  0  0  0
  1  2  1  0  0  0  0 
  1  3  1  0  0  0  0 
  1  4  1  0  0  0  0 
  1  5  1  0  0  0  0 
  5  6  1  0  0  0  0 
  5  7  1  0  0  0  0 
  7  8  1  0  0  0  0 
  7  9  1  0  0  0  0 
  7 10  1  0  0  0  0 
 10 11  1  1  0  0  0 
 10 12  1  0  0  0  0 
 12 13  2  0  0  0  0 
 13 14  1  0  0  0  0 
 13 15  1  0  0  0  0 
 15 16  1  0  0  0  0 
 15 17  2  0  0  0  0 
 17 18  1  0  0  0  0 
 17 19  1  0  0  0  0 
 19 20  2  0  0  0  0 
 12 20  1  0  0  0  0 
 20 21  1  0  0  0  0 
 21 22  1  0  0  0  0 
 19 23  1  0  0  0  0 
 23 24  1  0  0  0  0 
 10 25  1  6  0  0  0 
 25 26  1  0  0  0  0 
M  END
> <Rank>
8

> <Priority_score>
0.5475576360444704

> <Reaction_type>
aromatic_hydroxylation_(ortho_to_2_substituents)

> <Parent_ID>
38

> <Parent_InChI>
InChI=1S/C9H13NO2/c1-10-6-9(12)7-3-2-4-8(11)5-7/h2-5,9-12H,6H2,1H3

> <Parent_SMILES>
CNC[C@H](O)c1cccc(O)c1

$$$$
Molecule 38_metabolite 10
  CDK     0516241031

 26 26  0  0  0  0  0  0  0  0999 V2000
   -4.7772    4.6194    0.0000 C   0  0  0  0  0  0  0  0  0  0  0  0
   -5.5272    3.3203    0.0000 H   0  0  0  0  0  0  0  0  0  0  0  0
   -6.1867    5.1324    0.0000 H   0  0  0  0  0  0  0  0  0  0  0  0
   -4.5167    6.0966    0.0000 H   0  0  0  0  0  0  0  0  0  0  0  0
   -3.2772    4.6194    0.0000 N   0  0  0  0  0  0  0  0  0  0  0  0
   -2.5272    5.9184    0.0000 H   0  0  0  0  0  0  0  0  0  0  0  0
   -2.5272    3.3203    0.0000 C   0  0  0  0  0  0  0  0  0  0  0  0
   -3.9367    2.8073    0.0000 H   0  0  0  0  0  0  0  0  0  0  0  0
   -2.2667    1.8431    0.0000 H   0  0  0  0  0  0  0  0  0  0  0  0
   -1.0272    3.3203    0.0000 C   0  0  1  0  0  0  0  0  0  0  0  0
    0.3823    3.8333    0.0000 H   0  0  0  0  0  0  0  0  0  0  0  0
   -0.2772    2.0213    0.0000 C   0  0  0  0  0  0  0  0  0  0  0  0
   -1.0280    0.7218    0.0000 C   0  0  0  0  0  0  0  0  0  0  0  0
   -2.5280    0.7220    0.0000 H   0  0  0  0  0  0  0  0  0  0  0  0
   -0.2780   -0.5773    0.0000 C   0  0  0  0  0  0  0  0  0  0  0  0
   -1.0278   -1.8764    0.0000 H   0  0  0  0  0  0  0  0  0  0  0  0
    1.2228   -0.5768    0.0000 C   0  0  0  0  0  0  0  0  0  0  0  0
    1.9736    0.7227    0.0000 C   0  0  0  0  0  0  0  0  0  0  0  0
    1.2236    2.0218    0.0000 C   0  0  0  0  0  0  0  0  0  0  0  0
    1.9734    3.3209    0.0000 H   0  0  0  0  0  0  0  0  0  0  0  0
    3.4736    0.7225    0.0000 O   0  0  0  0  0  0  0  0  0  0  0  0
    4.2234   -0.5767    0.0000 H   0  0  0  0  0  0  0  0  0  0  0  0
    1.9728   -1.8758    0.0000 O   0  0  0  0  0  0  0  0  0  0  0  0
    3.4728   -1.8758    0.0000 H   0  0  0  0  0  0  0  0  0  0  0  0
   -1.2877    4.7975    0.0000 O   0  0  0  0  0  0  0  0  0  0  0  0
   -0.1386    5.7617    0.0000 H   0  0  0  0  0  0  0  0  0  0  0  0
  1  2  1  0  0  0  0 
  1  3  1  0  0  0  0 
  1  4  1  0  0  0  0 
  1  5  1  0  0  0  0 
  5  6  1  0  0  0  0 
  5  7  1  0  0  0  0 
  7  8  1  0  0  0  0 
  7  9  1  0  0  0  0 
  7 10  1  0  0  0  0 
 10 11  1  1  0  0  0 
 10 12  1  0  0  0  0 
 12 13  2  0  0  0  0 
 13 14  1  0  0  0  0 
 13 15  1  0  0  0  0 
 15 16  1  0  0  0  0 
 15 17  2  0  0  0  0 
 17 18  1  0  0  0  0 
 18 19  2  0  0  0  0 
 12 19  1  0  0  0  0 
 19 20  1  0  0  0  0 
 18 21  1  0  0  0  0 
 21 22  1  0  0  0  0 
 17 23  1  0  0  0  0 
 23 24  1  0  0  0  0 
 10 25  1  6  0  0  0 
 25 26  1  0  0  0  0 
M  END
> <Rank>
8

> <Priority_score>
0.5475576360444704

> <Reaction_type>
aromatic_hydroxylation_(para_to_carbon)

> <Parent_ID>
38

> <Parent_InChI>
InChI=1S/C9H13NO2/c1-10-6-9(12)7-3-2-4-8(11)5-7/h2-5,9-12H,6H2,1H3

> <Parent_SMILES>
CNC[C@H](O)c1cccc(O)c1

$$$$
Molecule 38_metabolite 11
  CDK     0516241031

 26 26  0  0  0  0  0  0  0  0999 V2000
   -0.7081   -3.7174    0.0000 C   0  0  0  0  0  0  0  0  0  0  0  0
    0.5909   -4.4676    0.0000 H   0  0  0  0  0  0  0  0  0  0  0  0
   -1.2213   -5.1269    0.0000 H   0  0  0  0  0  0  0  0  0  0  0  0
   -2.1852   -3.4567    0.0000 H   0  0  0  0  0  0  0  0  0  0  0  0
   -0.7078   -2.2174    0.0000 N   0  0  0  0  0  0  0  0  0  0  0  0
   -2.0067   -1.4672    0.0000 H   0  0  0  0  0  0  0  0  0  0  0  0
    0.5913   -1.4676    0.0000 C   0  0  0  0  0  0  0  0  0  0  0  0
    1.1041   -2.8772    0.0000 H   0  0  0  0  0  0  0  0  0  0  0  0
    2.0686   -1.2074    0.0000 H   0  0  0  0  0  0  0  0  0  0  0  0
    0.5916    0.0324    0.0000 C   0  0  1  0  0  0  0  0  0  0  0  0
    0.0788    1.4420    0.0000 H   0  0  0  0  0  0  0  0  0  0  0  0
    1.8907    0.7822    0.0000 C   0  0  0  0  0  0  0  0  0  0  0  0
    1.8912    2.2830    0.0000 C   0  0  0  0  0  0  0  0  0  0  0  0
    0.5922    3.0330    0.0000 H   0  0  0  0  0  0  0  0  0  0  0  0
    3.1907    3.0338    0.0000 C   0  0  0  0  0  0  0  0  0  0  0  0
    4.4898    2.2838    0.0000 C   0  0  0  0  0  0  0  0  0  0  0  0
    5.7889    3.0336    0.0000 H   0  0  0  0  0  0  0  0  0  0  0  0
    4.4893    0.7830    0.0000 C   0  0  0  0  0  0  0  0  0  0  0  0
    3.1898    0.0322    0.0000 C   0  0  0  0  0  0  0  0  0  0  0  0
    3.1900   -1.4678    0.0000 H   0  0  0  0  0  0  0  0  0  0  0  0
    5.7883    0.0330    0.0000 O   0  0  0  0  0  0  0  0  0  0  0  0
    7.0874    0.7830    0.0000 H   0  0  0  0  0  0  0  0  0  0  0  0
    3.1905    4.5338    0.0000 O   0  0  0  0  0  0  0  0  0  0  0  0
    4.4894    5.2840    0.0000 H   0  0  0  0  0  0  0  0  0  0  0  0
   -0.8857   -0.2279    0.0000 O   0  0  0  0  0  0  0  0  0  0  0  0
   -1.8497    0.9214    0.0000 H   0  0  0  0  0  0  0  0  0  0  0  0
  1  2  1  0  0  0  0 
  1  3  1  0  0  0  0 
  1  4  1  0  0  0  0 
  1  5  1  0  0  0  0 
  5  6  1  0  0  0  0 
  5  7  1  0  0  0  0 
  7  8  1  0  0  0  0 
  7  9  1  0  0  0  0 
  7 10  1  0  0  0  0 
 10 11  1  1  0  0  0 
 10 12  1  0  0  0  0 
 12 13  2  0  0  0  0 
 13 14  1  0  0  0  0 
 13 15  1  0  0  0  0 
 15 16  2  0  0  0  0 
 16 17  1  0  0  0  0 
 16 18  1  0  0  0  0 
 18 19  2  0  0  0  0 
 12 19  1  0  0  0  0 
 19 20  1  0  0  0  0 
 18 21  1  0  0  0  0 
 21 22  1  0  0  0  0 
 15 23  1  0  0  0  0 
 23 24  1  0  0  0  0 
 10 25  1  6  0  0  0 
 25 26  1  0  0  0  0 
M  END
> <Rank>
8

> <Priority_score>
0.5475576360444704

> <Reaction_type>
aromatic_hydroxylation_(meta_to_carbon)

> <Parent_ID>
38

> <Parent_InChI>
InChI=1S/C9H13NO2/c1-10-6-9(12)7-3-2-4-8(11)5-7/h2-5,9-12H,6H2,1H3

> <Parent_SMILES>
CNC[C@H](O)c1cccc(O)c1

$$$$
Molecule 38_metabolite 12
  CDK     0516241031

 45 46  0  0  0  0  0  0  0  0999 V2000
    5.8572   -6.3224    0.0000 C   0  0  0  0  0  0  0  0  0  0  0  0
    4.3794   -6.0654    0.0000 H   0  0  0  0  0  0  0  0  0  0  0  0
    7.1579   -7.0694    0.0000 H   0  0  0  0  0  0  0  0  0  0  0  0
    5.3474   -7.7331    0.0000 H   0  0  0  0  0  0  0  0  0  0  0  0
    6.8187   -5.1711    0.0000 N   0  0  0  0  0  0  0  0  0  0  0  0
    8.2965   -5.4282    0.0000 H   0  0  0  0  0  0  0  0  0  0  0  0
    6.3024   -3.7628    0.0000 C   0  0  0  0  0  0  0  0  0  0  0  0
    5.3356   -2.6159    0.0000 H   0  0  0  0  0  0  0  0  0  0  0  0
    5.0051   -4.5158    0.0000 H   0  0  0  0  0  0  0  0  0  0  0  0
    7.5717   -2.2431    0.0000 C   0  0  1  0  0  0  0  0  0  0  0  0
    8.5385   -3.3899    0.0000 H   0  0  0  0  0  0  0  0  0  0  0  0
    8.8690   -1.4901    0.0000 C   0  0  0  0  0  0  0  0  0  0  0  0
    8.8658    0.0107    0.0000 C   0  0  0  0  0  0  0  0  0  0  0  0
    7.5661    0.7597    0.0000 H   0  0  0  0  0  0  0  0  0  0  0  0
   10.1585    0.7561    0.0000 C   0  0  0  0  0  0  0  0  0  0  0  0
   10.1570    2.2561    0.0000 H   0  0  0  0  0  0  0  0  0  0  0  0
   11.4593    0.0093    0.0000 C   0  0  0  0  0  0  0  0  0  0  0  0
   12.7554    0.7644    0.0000 H   0  0  0  0  0  0  0  0  0  0  0  0
   11.4675   -1.4829    0.0000 C   0  0  0  0  0  0  0  0  0  0  0  0
   10.1699   -2.2369    0.0000 C   0  0  0  0  0  0  0  0  0  0  0  0
   10.1738   -3.7369    0.0000 H   0  0  0  0  0  0  0  0  0  0  0  0
   12.7697   -2.2275    0.0000 O   0  0  0  0  0  0  0  0  0  0  0  0
   14.0656   -1.4721    0.0000 H   0  0  0  0  0  0  0  0  0  0  0  0
    6.8902   -0.3841    0.0000 O   0  0  0  0  0  0  0  0  0  0  0  0
    4.4666    0.0375    0.0000 C   0  0  0  0  0  0  0  0  0  0  0  0
    4.4666   -1.9425    0.0000 H   0  0  0  0  0  0  0  0  0  0  0  0
    4.9698    1.4400    0.0000 C   0  0  0  0  0  0  0  0  0  0  0  0
    5.9277    2.5943    0.0000 H   0  0  0  0  0  0  0  0  0  0  0  0
    3.9839    2.6011    0.0000 C   0  0  0  0  0  0  0  0  0  0  0  0
    3.4588    4.0062    0.0000 H   0  0  0  0  0  0  0  0  0  0  0  0
    2.5037    2.3248    0.0000 C   0  0  0  0  0  0  0  0  0  0  0  0
    1.0248    2.5757    0.0000 H   0  0  0  0  0  0  0  0  0  0  0  0
    2.0005    0.9223    0.0000 C   0  0  0  0  0  0  0  0  0  0  0  0
    1.0419   -0.2314    0.0000 H   0  0  0  0  0  0  0  0  0  0  0  0
    0.2811    1.9042    0.0000 C   0  0  0  0  0  0  0  0  0  0  0  0
   -1.0144    1.1481    0.0000 O   0  0  0  0  0  0  0  0  0  0  0  0
    0.2741    3.4042    0.0000 O   0  0  0  0  0  0  0  0  0  0  0  0
   -1.0285    4.1481    0.0000 H   0  0  0  0  0  0  0  0  0  0  0  0
    2.9709   -0.2227    0.0000 O   0  0  0  0  0  0  0  0  0  0  0  0
    2.4913    3.8247    0.0000 O   0  0  0  0  0  0  0  0  0  0  0  0
    1.1862    4.5640    0.0000 H   0  0  0  0  0  0  0  0  0  0  0  0
    5.2775    3.3605    0.0000 O   0  0  0  0  0  0  0  0  0  0  0  0
    5.2667    4.8604    0.0000 H   0  0  0  0  0  0  0  0  0  0  0  0
    6.2725    0.6965    0.0000 O   0  0  0  0  0  0  0  0  0  0  0  0
    8.3968    1.9371    0.0000 H   0  0  0  0  0  0  0  0  0  0  0  0
  1  2  1  0  0  0  0 
  1  3  1  0  0  0  0 
  1  4  1  0  0  0  0 
  1  5  1  0  0  0  0 
  5  6  1  0  0  0  0 
  5  7  1  0  0  0  0 
  7  8  1  0  0  0  0 
  7  9  1  0  0  0  0 
  7 10  1  0  0  0  0 
 10 11  1  1  0  0  0 
 10 12  1  6  0  0  0 
 12 13  2  0  0  0  0 
 13 14  1  0  0  0  0 
 13 15  1  0  0  0  0 
 15 16  1  0  0  0  0 
 15 17  2  0  0  0  0 
 17 18  1  0  0  0  0 
 17 19  1  0  0  0  0 
 19 20  2  0  0  0  0 
 12 20  1  0  0  0  0 
 20 21  1  0  0  0  0 
 19 22  1  0  0  0  0 
 22 23  1  0  0  0  0 
 10 24  1  0  0  0  0 
 24 25  1  0  0  0  0 
 25 26  1  0  0  0  0 
 25 27  1  0  0  0  0 
 27 28  1  0  0  0  0 
 27 29  1  0  0  0  0 
 29 30  1  0  0  0  0 
 29 31  1  0  0  0  0 
 31 32  1  0  0  0  0 
 31 33  1  0  0  0  0 
 33 34  1  0  0  0  0 
 33 35  1  0  0  0  0 
 35 36  2  0  0  0  0 
 35 37  1  0  0  0  0 
 37 38  1  0  0  0  0 
 33 39  1  0  0  0  0 
 25 39  1  0  0  0  0 
 31 40  1  0  0  0  0 
 40 41  1  0  0  0  0 
 29 42  1  0  0  0  0 
 42 43  1  0  0  0  0 
 27 44  1  0  0  0  0 
 44 45  1  0  0  0  0 
M  END
> <Rank>
12

> <Priority_score>
0.456

> <Reaction_type>
O-glucuronidation_(aliphatic_hydroxyl)

> <Parent_ID>
38

> <Parent_InChI>
InChI=1S/C9H13NO2/c1-10-6-9(12)7-3-2-4-8(11)5-7/h2-5,9-12H,6H2,1H3

> <Parent_SMILES>
CNC[C@H](O)c1cccc(O)c1

$$$$
Molecule 38_metabolite 13
  CDK     0516241031

 28 28  0  0  0  0  0  0  0  0999 V2000
    5.4911   -3.5315    0.0000 C   0  0  0  0  0  0  0  0  0  0  0  0
    4.7409   -4.8304    0.0000 H   0  0  0  0  0  0  0  0  0  0  0  0
    6.6404   -2.5675    0.0000 H   0  0  0  0  0  0  0  0  0  0  0  0
    6.6400   -4.4958    0.0000 H   0  0  0  0  0  0  0  0  0  0  0  0
    4.7413   -2.2323    0.0000 N   0  0  0  0  0  0  0  0  0  0  0  0
    5.4916   -0.9334    0.0000 H   0  0  0  0  0  0  0  0  0  0  0  0
    3.2413   -2.2321    0.0000 C   0  0  0  0  0  0  0  0  0  0  0  0
    1.8317   -2.7449    0.0000 H   0  0  0  0  0  0  0  0  0  0  0  0
    3.5016   -3.7093    0.0000 H   0  0  0  0  0  0  0  0  0  0  0  0
    2.4916   -0.9329    0.0000 C   0  0  1  0  0  0  0  0  0  0  0  0
    3.9012   -0.4201    0.0000 H   0  0  0  0  0  0  0  0  0  0  0  0
    0.9916   -0.9327    0.0000 C   0  0  0  0  0  0  0  0  0  0  0  0
    0.2407   -2.2322    0.0000 C   0  0  0  0  0  0  0  0  0  0  0  0
    0.9885   -3.5325    0.0000 H   0  0  0  0  0  0  0  0  0  0  0  0
   -1.2515   -2.2277    0.0000 C   0  0  0  0  0  0  0  0  0  0  0  0
   -2.0034   -3.5256    0.0000 H   0  0  0  0  0  0  0  0  0  0  0  0
   -2.0015   -0.9286    0.0000 C   0  0  0  0  0  0  0  0  0  0  0  0
   -3.5014   -0.9309    0.0000 H   0  0  0  0  0  0  0  0  0  0  0  0
   -1.2593    0.3659    0.0000 C   0  0  0  0  0  0  0  0  0  0  0  0
    0.2416    0.3664    0.0000 C   0  0  0  0  0  0  0  0  0  0  0  0
    0.9913    1.6655    0.0000 H   0  0  0  0  0  0  0  0  0  0  0  0
   -2.0115    1.6637    0.0000 O   0  0  0  0  0  0  0  0  0  0  0  0
   -3.5115    1.6612    0.0000 C   0  0  0  0  0  0  0  0  0  0  0  0
   -4.2636    2.9589    0.0000 H   0  0  0  0  0  0  0  0  0  0  0  0
   -4.9201    1.1458    0.0000 H   0  0  0  0  0  0  0  0  0  0  0  0
   -3.2485    0.1844    0.0000 H   0  0  0  0  0  0  0  0  0  0  0  0
    2.2313    0.5444    0.0000 O   0  0  0  0  0  0  0  0  0  0  0  0
    3.3805    1.5084    0.0000 H   0  0  0  0  0  0  0  0  0  0  0  0
  1  2  1  0  0  0  0 
  1  3  1  0  0  0  0 
  1  4  1  0  0  0  0 
  1  5  1  0  0  0  0 
  5  6  1  0  0  0  0 
  5  7  1  0  0  0  0 
  7  8  1  0  0  0  0 
  7  9  1  0  0  0  0 
  7 10  1  0  0  0  0 
 10 11  1  6  0  0  0 
 10 12  1  0  0  0  0 
 12 13  2  0  0  0  0 
 13 14  1  0  0  0  0 
 13 15  1  0  0  0  0 
 15 16  1  0  0  0  0 
 15 17  2  0  0  0  0 
 17 18  1  0  0  0  0 
 17 19  1  0  0  0  0 
 19 20  2  0  0  0  0 
 12 20  1  0  0  0  0 
 20 21  1  0  0  0  0 
 19 22  1  0  0  0  0 
 22 23  1  0  0  0  0 
 23 24  1  0  0  0  0 
 23 25  1  0  0  0  0 
 23 26  1  0  0  0  0 
 10 27  1  1  0  0  0 
 27 28  1  0  0  0  0 
M  END
> <Rank>
13

> <Priority_score>
0.39895188739925813

> <Reaction_type>
methylation_(aromatic_OH)

> <Parent_ID>
38

> <Parent_InChI>
InChI=1S/C9H13NO2/c1-10-6-9(12)7-3-2-4-8(11)5-7/h2-5,9-12H,6H2,1H3

> <Parent_SMILES>
CNC[C@H](O)c1cccc(O)c1

$$$$
Molecule 38_metabolite 14
  CDK     0516241031

 26 26  0  0  0  0  0  0  0  0999 V2000
    5.6008   -1.3737    0.0000 C   0  0  0  0  0  0  0  0  0  0  0  0
    5.6005   -2.8737    0.0000 H   0  0  0  0  0  0  0  0  0  0  0  0
    6.1140    0.0357    0.0000 H   0  0  0  0  0  0  0  0  0  0  0  0
    7.0779   -1.6345    0.0000 H   0  0  0  0  0  0  0  0  0  0  0  0
    4.3018   -0.6235    0.0000 N   0  0  0  0  0  0  0  0  0  0  0  0
    4.3021    0.8765    0.0000 H   0  0  0  0  0  0  0  0  0  0  0  0
    3.0027   -1.3733    0.0000 C   0  0  0  0  0  0  0  0  0  0  0  0
    2.0383   -2.5222    0.0000 H   0  0  0  0  0  0  0  0  0  0  0  0
    3.9667   -2.5226    0.0000 H   0  0  0  0  0  0  0  0  0  0  0  0
    1.7038   -0.6231    0.0000 C   0  0  1  0  0  0  0  0  0  0  0  0
    0.4046   -1.3729    0.0000 C   0  0  0  0  0  0  0  0  0  0  0  0
    0.4041   -2.8738    0.0000 C   0  0  0  0  0  0  0  0  0  0  0  0
    1.7019   -3.6259    0.0000 H   0  0  0  0  0  0  0  0  0  0  0  0
   -0.8904   -3.6159    0.0000 C   0  0  0  0  0  0  0  0  0  0  0  0
   -0.8927   -5.1159    0.0000 H   0  0  0  0  0  0  0  0  0  0  0  0
   -2.1894   -2.8659    0.0000 C   0  0  0  0  0  0  0  0  0  0  0  0
   -3.4873   -3.6179    0.0000 H   0  0  0  0  0  0  0  0  0  0  0  0
   -2.1940   -1.3738    0.0000 C   0  0  0  0  0  0  0  0  0  0  0  0
   -0.8944   -0.6229    0.0000 C   0  0  0  0  0  0  0  0  0  0  0  0
   -0.8947    0.8771    0.0000 H   0  0  0  0  0  0  0  0  0  0  0  0
   -3.4942   -0.6259    0.0000 O   0  0  0  0  0  0  0  0  0  0  0  0
   -4.7920   -1.3781    0.0000 H   0  0  0  0  0  0  0  0  0  0  0  0
    2.6681    0.5258    0.0000 O   0  0  0  0  0  0  0  0  0  0  0  0
    2.1553    1.9354    0.0000 H   0  0  0  0  0  0  0  0  0  0  0  0
    0.7398    0.5261    0.0000 O   0  0  0  0  0  0  0  0  0  0  0  0
    1.2530    1.9356    0.0000 H   0  0  0  0  0  0  0  0  0  0  0  0
  1  2  1  0  0  0  0 
  1  3  1  0  0  0  0 
  1  4  1  0  0  0  0 
  1  5  1  0  0  0  0 
  5  6  1  0  0  0  0 
  5  7  1  0  0  0  0 
  7  8  1  0  0  0  0 
  7  9  1  0  0  0  0 
  7 10  1  0  0  0  0 
 10 11  1  0  0  0  0 
 11 12  2  0  0  0  0 
 12 13  1  0  0  0  0 
 12 14  1  0  0  0  0 
 14 15  1  0  0  0  0 
 14 16  2  0  0  0  0 
 16 17  1  0  0  0  0 
 16 18  1  0  0  0  0 
 18 19  2  0  0  0  0 
 11 19  1  0  0  0  0 
 19 20  1  0  0  0  0 
 18 21  1  0  0  0  0 
 21 22  1  0  0  0  0 
 10 23  1  1  0  0  0 
 23 24  1  0  0  0  0 
 10 25  1  6  0  0  0 
 25 26  1  0  0  0  0 
M  END
> <Rank>
14

> <Priority_score>
0.168

> <Reaction_type>
aliphatic hydroxylation

> <Parent_ID>
38

> <Parent_InChI>
InChI=1S/C9H13NO2/c1-10-6-9(12)7-3-2-4-8(11)5-7/h2-5,9-12H,6H2,1H3

> <Parent_SMILES>
CNC[C@H](O)c1cccc(O)c1

$$$$
Molecule 38_metabolite 15
  CDK     0516241031

 22 22  0  0  0  0  0  0  0  0999 V2000
    5.5564   -1.2967    0.0000 C   0  0  0  0  0  0  0  0  0  0  0  0
    6.8555   -0.5469    0.0000 H   0  0  0  0  0  0  0  0  0  0  0  0
    4.5920   -2.4456    0.0000 H   0  0  0  0  0  0  0  0  0  0  0  0
    6.5204   -2.4459    0.0000 H   0  0  0  0  0  0  0  0  0  0  0  0
    4.2574   -0.5465    0.0000 N   0  0  0  0  0  0  0  0  0  0  0  0
    4.2577    0.9535    0.0000 H   0  0  0  0  0  0  0  0  0  0  0  0
    2.9583   -1.2963    0.0000 C   0  0  0  0  0  0  0  0  0  0  0  0
    2.9580   -2.7963    0.0000 H   0  0  0  0  0  0  0  0  0  0  0  0
    1.6594   -0.5461    0.0000 C   0  0  0  0  0  0  0  0  0  0  0  0
    1.6596    0.9539    0.0000 H   0  0  0  0  0  0  0  0  0  0  0  0
    0.3602   -1.2959    0.0000 C   0  0  0  0  0  0  0  0  0  0  0  0
    0.3597   -2.7967    0.0000 C   0  0  0  0  0  0  0  0  0  0  0  0
    1.6575   -3.5489    0.0000 H   0  0  0  0  0  0  0  0  0  0  0  0
   -0.9348   -3.5389    0.0000 C   0  0  0  0  0  0  0  0  0  0  0  0
   -0.9371   -5.0389    0.0000 H   0  0  0  0  0  0  0  0  0  0  0  0
   -2.2338   -2.7889    0.0000 C   0  0  0  0  0  0  0  0  0  0  0  0
   -3.5317   -3.5408    0.0000 H   0  0  0  0  0  0  0  0  0  0  0  0
   -2.2383   -1.2967    0.0000 C   0  0  0  0  0  0  0  0  0  0  0  0
   -0.9388   -0.5459    0.0000 C   0  0  0  0  0  0  0  0  0  0  0  0
   -0.9391    0.9541    0.0000 H   0  0  0  0  0  0  0  0  0  0  0  0
   -3.5386   -0.5489    0.0000 O   0  0  0  0  0  0  0  0  0  0  0  0
   -4.8364   -1.3010    0.0000 H   0  0  0  0  0  0  0  0  0  0  0  0
  1  2  1  0  0  0  0 
  1  3  1  0  0  0  0 
  1  4  1  0  0  0  0 
  1  5  1  0  0  0  0 
  5  6  1  0  0  0  0 
  5  7  1  0  0  0  0 
  7  8  1  4  0  0  0 
  7  9  2  0  0  0  0 
  9 10  1  0  0  0  0 
  9 11  1  0  0  0  0 
 11 12  2  0  0  0  0 
 12 13  1  0  0  0  0 
 12 14  1  0  0  0  0 
 14 15  1  0  0  0  0 
 14 16  2  0  0  0  0 
 16 17  1  0  0  0  0 
 16 18  1  0  0  0  0 
 18 19  2  0  0  0  0 
 11 19  1  0  0  0  0 
 19 20  1  0  0  0  0 
 18 21  1  0  0  0  0 
 21 22  1  0  0  0  0 
M  END
> <Rank>
14

> <Priority_score>
0.168

> <Reaction_type>
dehydration_next_to_SP2_a

> <Parent_ID>
38

> <Parent_InChI>
InChI=1S/C9H13NO2/c1-10-6-9(12)7-3-2-4-8(11)5-7/h2-5,9-12H,6H2,1H3

> <Parent_SMILES>
CNC[C@H](O)c1cccc(O)c1

$$$$
Molecule 38_metabolite 16
  CDK     0516241031

 23 23  0  0  0  0  0  0  0  0999 V2000
    5.6008   -1.3737    0.0000 C   0  0  0  0  0  0  0  0  0  0  0  0
    5.6005   -2.8737    0.0000 H   0  0  0  0  0  0  0  0  0  0  0  0
    6.1140    0.0357    0.0000 H   0  0  0  0  0  0  0  0  0  0  0  0
    7.0779   -1.6345    0.0000 H   0  0  0  0  0  0  0  0  0  0  0  0
    4.3018   -0.6235    0.0000 N   0  0  0  0  0  0  0  0  0  0  0  0
    4.3021    0.8765    0.0000 H   0  0  0  0  0  0  0  0  0  0  0  0
    3.0027   -1.3733    0.0000 C   0  0  0  0  0  0  0  0  0  0  0  0
    2.0383   -2.5222    0.0000 H   0  0  0  0  0  0  0  0  0  0  0  0
    3.9667   -2.5226    0.0000 H   0  0  0  0  0  0  0  0  0  0  0  0
    1.7038   -0.6231    0.0000 C   0  0  0  0  0  0  0  0  0  0  0  0
    1.7040    0.8769    0.0000 O   0  0  0  0  0  0  0  0  0  0  0  0
    0.4046   -1.3729    0.0000 C   0  0  0  0  0  0  0  0  0  0  0  0
    0.4041   -2.8738    0.0000 C   0  0  0  0  0  0  0  0  0  0  0  0
    1.7019   -3.6259    0.0000 H   0  0  0  0  0  0  0  0  0  0  0  0
   -0.8904   -3.6159    0.0000 C   0  0  0  0  0  0  0  0  0  0  0  0
   -0.8927   -5.1159    0.0000 H   0  0  0  0  0  0  0  0  0  0  0  0
   -2.1894   -2.8659    0.0000 C   0  0  0  0  0  0  0  0  0  0  0  0
   -3.4873   -3.6179    0.0000 H   0  0  0  0  0  0  0  0  0  0  0  0
   -2.1940   -1.3738    0.0000 C   0  0  0  0  0  0  0  0  0  0  0  0
   -0.8944   -0.6229    0.0000 C   0  0  0  0  0  0  0  0  0  0  0  0
   -0.8947    0.8771    0.0000 H   0  0  0  0  0  0  0  0  0  0  0  0
   -3.4942   -0.6259    0.0000 O   0  0  0  0  0  0  0  0  0  0  0  0
   -4.7920   -1.3781    0.0000 H   0  0  0  0  0  0  0  0  0  0  0  0
  1  2  1  0  0  0  0 
  1  3  1  0  0  0  0 
  1  4  1  0  0  0  0 
  1  5  1  0  0  0  0 
  5  6  1  0  0  0  0 
  5  7  1  0  0  0  0 
  7  8  1  0  0  0  0 
  7  9  1  0  0  0  0 
  7 10  1  0  0  0  0 
 10 11  2  0  0  0  0 
 10 12  1  0  0  0  0 
 12 13  2  0  0  0  0 
 13 14  1  0  0  0  0 
 13 15  1  0  0  0  0 
 15 16  1  0  0  0  0 
 15 17  2  0  0  0  0 
 17 18  1  0  0  0  0 
 17 19  1  0  0  0  0 
 19 20  2  0  0  0  0 
 12 20  1  0  0  0  0 
 20 21  1  0  0  0  0 
 19 22  1  0  0  0  0 
 22 23  1  0  0  0  0 
M  END
> <Rank>
14

> <Priority_score>
0.168

> <Reaction_type>
secondary_alcohol_oxidation_(benzylic)

> <Parent_ID>
38

> <Parent_InChI>
InChI=1S/C9H13NO2/c1-10-6-9(12)7-3-2-4-8(11)5-7/h2-5,9-12H,6H2,1H3

> <Parent_SMILES>
CNC[C@H](O)c1cccc(O)c1

$$$$
Molecule 38_metabolite 17
  CDK     0516241031

 24 24  0  0  0  0  0  0  0  0999 V2000
    5.8418   -1.1319    0.0000 C   0  0  0  0  0  0  0  0  0  0  0  0
    7.1410   -0.3821    0.0000 H   0  0  0  0  0  0  0  0  0  0  0  0
    5.8416   -2.6319    0.0000 H   0  0  0  0  0  0  0  0  0  0  0  0
    4.5429   -0.3817    0.0000 N   0  0  0  0  0  0  0  0  0  0  0  0
    4.5431    1.1183    0.0000 H   0  0  0  0  0  0  0  0  0  0  0  0
    3.2437   -1.1315    0.0000 C   0  0  0  0  0  0  0  0  0  0  0  0
    2.2794   -2.2804    0.0000 H   0  0  0  0  0  0  0  0  0  0  0  0
    4.2077   -2.2807    0.0000 H   0  0  0  0  0  0  0  0  0  0  0  0
    1.9448   -0.3813    0.0000 C   0  0  1  0  0  0  0  0  0  0  0  0
    2.9092    0.7677    0.0000 H   0  0  0  0  0  0  0  0  0  0  0  0
    0.6457   -1.1311    0.0000 C   0  0  0  0  0  0  0  0  0  0  0  0
    0.6452   -2.6319    0.0000 C   0  0  0  0  0  0  0  0  0  0  0  0
    1.9430   -3.3841    0.0000 H   0  0  0  0  0  0  0  0  0  0  0  0
   -0.6493   -3.3741    0.0000 C   0  0  0  0  0  0  0  0  0  0  0  0
   -0.6516   -4.8741    0.0000 H   0  0  0  0  0  0  0  0  0  0  0  0
   -1.9484   -2.6241    0.0000 C   0  0  0  0  0  0  0  0  0  0  0  0
   -3.2463   -3.3760    0.0000 H   0  0  0  0  0  0  0  0  0  0  0  0
   -1.9529   -1.1319    0.0000 C   0  0  0  0  0  0  0  0  0  0  0  0
   -0.6534   -0.3811    0.0000 C   0  0  0  0  0  0  0  0  0  0  0  0
   -0.6536    1.1189    0.0000 H   0  0  0  0  0  0  0  0  0  0  0  0
   -3.2532   -0.3841    0.0000 O   0  0  0  0  0  0  0  0  0  0  0  0
   -4.5510   -1.1362    0.0000 H   0  0  0  0  0  0  0  0  0  0  0  0
    0.9808    0.7680    0.0000 O   0  0  0  0  0  0  0  0  0  0  0  0
    1.4941    2.1774    0.0000 H   0  0  0  0  0  0  0  0  0  0  0  0
  1  2  1  0  0  0  0 
  1  3  1  0  0  0  0 
  1  4  2  0  0  0  0 
  4  5  1  0  0  0  0 
  4  6  1  0  0  0  0 
  6  7  1  0  0  0  0 
  6  8  1  0  0  0  0 
  6  9  1  0  0  0  0 
  9 10  1  6  0  0  0 
  9 11  1  0  0  0  0 
 11 12  2  0  0  0  0 
 12 13  1  0  0  0  0 
 12 14  1  0  0  0  0 
 14 15  1  0  0  0  0 
 14 16  2  0  0  0  0 
 16 17  1  0  0  0  0 
 16 18  1  0  0  0  0 
 18 19  2  0  0  0  0 
 11 19  1  0  0  0  0 
 19 20  1  0  0  0  0 
 18 21  1  0  0  0  0 
 21 22  1  0  0  0  0 
  9 23  1  1  0  0  0 
 23 24  1  0  0  0  0 
M  CHG  1   4   1
M  END
> <Rank>
17

> <Priority_score>
0.1280537858381985

> <Reaction_type>
dehydration of N-C bond

> <Parent_ID>
38

> <Parent_InChI>
InChI=1S/C9H13NO2/c1-10-6-9(12)7-3-2-4-8(11)5-7/h2-5,9-12H,6H2,1H3

> <Parent_SMILES>
CNC[C@H](O)c1cccc(O)c1

$$$$
Molecule 38_metabolite 18
  CDK     0516241031

 24 24  0  0  0  0  0  0  0  0999 V2000
    0.3010    3.5473    0.0000 C   0  0  0  0  0  0  0  0  0  0  0  0
    1.5999    4.2975    0.0000 H   0  0  0  0  0  0  0  0  0  0  0  0
   -1.1762    3.2865    0.0000 H   0  0  0  0  0  0  0  0  0  0  0  0
   -0.2123    4.9567    0.0000 H   0  0  0  0  0  0  0  0  0  0  0  0
    0.3012    2.0473    0.0000 N   0  0  0  0  0  0  0  0  0  0  0  0
   -0.9977    1.2970    0.0000 H   0  0  0  0  0  0  0  0  0  0  0  0
    1.6004    1.2975    0.0000 C   0  0  0  0  0  0  0  0  0  0  0  0
    3.0777    1.0372    0.0000 H   0  0  0  0  0  0  0  0  0  0  0  0
    2.1132    2.7071    0.0000 H   0  0  0  0  0  0  0  0  0  0  0  0
    1.6006   -0.2025    0.0000 C   0  0  1  0  0  0  0  0  0  0  0  0
    0.1234    0.0577    0.0000 H   0  0  0  0  0  0  0  0  0  0  0  0
    2.8998   -0.9523    0.0000 C   0  0  0  0  0  0  0  0  0  0  0  0
    4.1988   -0.2023    0.0000 C   0  0  0  0  0  0  0  0  0  0  0  0
    4.1991    1.2977    0.0000 H   0  0  0  0  0  0  0  0  0  0  0  0
    5.4984   -0.9532    0.0000 C   0  0  0  0  0  0  0  0  0  0  0  0
    6.7974   -0.2032    0.0000 O   0  0  0  0  0  0  0  0  0  0  0  0
    5.4988   -2.4540    0.0000 C   0  0  0  0  0  0  0  0  0  0  0  0
    6.7980   -3.2038    0.0000 H   0  0  0  0  0  0  0  0  0  0  0  0
    4.1998   -3.2040    0.0000 C   0  0  0  0  0  0  0  0  0  0  0  0
    4.1996   -4.7040    0.0000 H   0  0  0  0  0  0  0  0  0  0  0  0
    2.9003   -2.4532    0.0000 C   0  0  0  0  0  0  0  0  0  0  0  0
    1.6012   -3.2032    0.0000 O   0  0  0  0  0  0  0  0  0  0  0  0
    1.0878   -1.6122    0.0000 O   0  0  0  0  0  0  0  0  0  0  0  0
   -0.3893   -1.8729    0.0000 H   0  0  0  0  0  0  0  0  0  0  0  0
  1  2  1  0  0  0  0 
  1  3  1  0  0  0  0 
  1  4  1  0  0  0  0 
  1  5  1  0  0  0  0 
  5  6  1  0  0  0  0 
  5  7  1  0  0  0  0 
  7  8  1  0  0  0  0 
  7  9  1  0  0  0  0 
  7 10  1  0  0  0  0 
 10 11  1  6  0  0  0 
 10 12  1  0  0  0  0 
 12 13  2  0  0  0  0 
 13 14  1  0  0  0  0 
 13 15  1  0  0  0  0 
 15 16  2  0  0  0  0 
 15 17  1  0  0  0  0 
 17 18  1  0  0  0  0 
 17 19  2  0  0  0  0 
 19 20  1  0  0  0  0 
 19 21  1  0  0  0  0 
 12 21  1  0  0  0  0 
 21 22  2  0  0  0  0 
 10 23  1  1  0  0  0 
 23 24  1  0  0  0  0 
M  END
> <Rank>
18

> <Priority_score>
0.10951152720889408

> <Reaction_type>
oxidation of 4-substituted phenol to quinone

> <Parent_ID>
38

> <Parent_InChI>
InChI=1S/C9H13NO2/c1-10-6-9(12)7-3-2-4-8(11)5-7/h2-5,9-12H,6H2,1H3

> <Parent_SMILES>
CNC[C@H](O)c1cccc(O)c1

$$$$
Molecule 38_metabolite 19
  CDK     0516241031

 26 26  0  0  0  0  0  0  0  0999 V2000
    5.6008   -1.3737    0.0000 C   0  0  0  0  0  0  0  0  0  0  0  0
    5.6005   -2.8737    0.0000 H   0  0  0  0  0  0  0  0  0  0  0  0
    6.1140    0.0357    0.0000 H   0  0  0  0  0  0  0  0  0  0  0  0
    7.0779   -1.6345    0.0000 H   0  0  0  0  0  0  0  0  0  0  0  0
    4.3018   -0.6235    0.0000 N   0  0  0  0  0  0  0  0  0  0  0  0
    4.3021    0.8765    0.0000 H   0  0  0  0  0  0  0  0  0  0  0  0
    3.0027   -1.3733    0.0000 C   0  0  0  0  0  0  0  0  0  0  0  0
    2.0383   -2.5222    0.0000 H   0  0  0  0  0  0  0  0  0  0  0  0
    1.7038   -0.6231    0.0000 C   0  0  1  0  0  0  0  0  0  0  0  0
    2.6681    0.5258    0.0000 H   0  0  0  0  0  0  0  0  0  0  0  0
    0.4046   -1.3729    0.0000 C   0  0  0  0  0  0  0  0  0  0  0  0
    0.4041   -2.8738    0.0000 C   0  0  0  0  0  0  0  0  0  0  0  0
    1.7019   -3.6259    0.0000 H   0  0  0  0  0  0  0  0  0  0  0  0
   -0.8904   -3.6159    0.0000 C   0  0  0  0  0  0  0  0  0  0  0  0
   -0.8927   -5.1159    0.0000 H   0  0  0  0  0  0  0  0  0  0  0  0
   -2.1894   -2.8659    0.0000 C   0  0  0  0  0  0  0  0  0  0  0  0
   -3.4873   -3.6179    0.0000 H   0  0  0  0  0  0  0  0  0  0  0  0
   -2.1940   -1.3738    0.0000 C   0  0  0  0  0  0  0  0  0  0  0  0
   -0.8944   -0.6229    0.0000 C   0  0  0  0  0  0  0  0  0  0  0  0
   -0.8947    0.8771    0.0000 H   0  0  0  0  0  0  0  0  0  0  0  0
   -3.4942   -0.6259    0.0000 O   0  0  0  0  0  0  0  0  0  0  0  0
   -4.7920   -1.3781    0.0000 H   0  0  0  0  0  0  0  0  0  0  0  0
    0.7398    0.5261    0.0000 O   0  0  0  0  0  0  0  0  0  0  0  0
    1.2530    1.9356    0.0000 H   0  0  0  0  0  0  0  0  0  0  0  0
    3.9667   -2.5226    0.0000 O   0  0  0  0  0  0  0  0  0  0  0  0
    3.4534   -3.9320    0.0000 H   0  0  0  0  0  0  0  0  0  0  0  0
  1  2  1  0  0  0  0 
  1  3  1  0  0  0  0 
  1  4  1  0  0  0  0 
  1  5  1  0  0  0  0 
  5  6  1  0  0  0  0 
  5  7  1  0  0  0  0 
  7  8  1  0  0  0  0 
  7  9  1  0  0  0  0 
  9 10  1  6  0  0  0 
  9 11  1  0  0  0  0 
 11 12  2  0  0  0  0 
 12 13  1  0  0  0  0 
 12 14  1  0  0  0  0 
 14 15  1  0  0  0  0 
 14 16  2  0  0  0  0 
 16 17  1  0  0  0  0 
 16 18  1  0  0  0  0 
 18 19  2  0  0  0  0 
 11 19  1  0  0  0  0 
 19 20  1  0  0  0  0 
 18 21  1  0  0  0  0 
 21 22  1  0  0  0  0 
  9 23  1  1  0  0  0 
 23 24  1  0  0  0  0 
  7 25  1  0  0  0  0 
 25 26  1  0  0  0  0 
M  END
> <Rank>
19

> <Priority_score>
0.104

> <Reaction_type>
aliphatic hydroxylation

> <Parent_ID>
38

> <Parent_InChI>
InChI=1S/C9H13NO2/c1-10-6-9(12)7-3-2-4-8(11)5-7/h2-5,9-12H,6H2,1H3

> <Parent_SMILES>
CNC[C@H](O)c1cccc(O)c1

$$$$
Molecule 38_metabolite 20
  CDK     0516241031

 29 29  0  0  0  0  0  0  0  0999 V2000
    1.4352   -3.8969    0.0000 C   0  0  0  0  0  0  0  0  0  0  0  0
    2.9124   -4.1576    0.0000 H   0  0  0  0  0  0  0  0  0  0  0  0
   -0.0420   -4.1572    0.0000 H   0  0  0  0  0  0  0  0  0  0  0  0
    1.4350   -5.3969    0.0000 H   0  0  0  0  0  0  0  0  0  0  0  0
    0.9224   -2.4873    0.0000 N   0  0  0  0  0  0  0  0  0  0  0  0
   -0.5548   -2.2266    0.0000 H   0  0  0  0  0  0  0  0  0  0  0  0
    1.8868   -1.3384    0.0000 C   0  0  0  0  0  0  0  0  0  0  0  0
    3.1859   -0.5886    0.0000 H   0  0  0  0  0  0  0  0  0  0  0  0
    2.8508   -2.4876    0.0000 H   0  0  0  0  0  0  0  0  0  0  0  0
    1.3740    0.0712    0.0000 C   0  0  1  0  0  0  0  0  0  0  0  0
    0.0748   -0.6786    0.0000 H   0  0  0  0  0  0  0  0  0  0  0  0
    2.3383    1.2201    0.0000 C   0  0  0  0  0  0  0  0  0  0  0  0
    3.8164    0.9595    0.0000 C   0  0  0  0  0  0  0  0  0  0  0  0
    4.3313   -0.4493    0.0000 H   0  0  0  0  0  0  0  0  0  0  0  0
    4.7724    2.1052    0.0000 C   0  0  0  0  0  0  0  0  0  0  0  0
    6.2499    1.8465    0.0000 H   0  0  0  0  0  0  0  0  0  0  0  0
    4.2598    3.5149    0.0000 C   0  0  0  0  0  0  0  0  0  0  0  0
    5.2261    4.6622    0.0000 H   0  0  0  0  0  0  0  0  0  0  0  0
    2.7912    3.7789    0.0000 C   0  0  0  0  0  0  0  0  0  0  0  0
    1.8257    2.6298    0.0000 C   0  0  0  0  0  0  0  0  0  0  0  0
    0.3487    2.8910    0.0000 H   0  0  0  0  0  0  0  0  0  0  0  0
    2.2810    5.1895    0.0000 O   0  0  0  0  0  0  0  0  0  0  0  0
    3.2475    6.3366    0.0000 H   0  0  0  0  0  0  0  0  0  0  0  0
    0.4100    1.2204    0.0000 O   0  0  0  0  0  0  0  0  0  0  0  0
   -1.0673    0.9602    0.0000 S   0  0  0  0  0  0  0  0  0  0  0  0
   -1.0670    2.4602    0.0000 O   0  0  0  0  0  0  0  0  0  0  0  0
   -2.5445    1.2209    0.0000 O   0  0  0  0  0  0  0  0  0  0  0  0
   -1.5805   -0.4492    0.0000 O   0  0  0  0  0  0  0  0  0  0  0  0
   -3.0578   -0.7095    0.0000 H   0  0  0  0  0  0  0  0  0  0  0  0
  1  2  1  0  0  0  0 
  1  3  1  0  0  0  0 
  1  4  1  0  0  0  0 
  1  5  1  0  0  0  0 
  5  6  1  0  0  0  0 
  5  7  1  0  0  0  0 
  7  8  1  0  0  0  0 
  7  9  1  0  0  0  0 
  7 10  1  0  0  0  0 
 10 11  1  1  0  0  0 
 10 12  1  0  0  0  0 
 12 13  2  0  0  0  0 
 13 14  1  0  0  0  0 
 13 15  1  0  0  0  0 
 15 16  1  0  0  0  0 
 15 17  2  0  0  0  0 
 17 18  1  0  0  0  0 
 17 19  1  0  0  0  0 
 19 20  2  0  0  0  0 
 12 20  1  0  0  0  0 
 20 21  1  0  0  0  0 
 19 22  1  0  0  0  0 
 22 23  1  0  0  0  0 
 10 24  1  6  0  0  0 
 24 25  1  0  0  0  0 
 25 26  2  0  0  0  0 
 25 27  2  0  0  0  0 
 25 28  1  0  0  0  0 
 28 29  1  0  0  0  0 
M  END
> <Rank>
19

> <Priority_score>
0.104

> <Reaction_type>
sulfation_(aliphatic_hydroxyl)

> <Parent_ID>
38

> <Parent_InChI>
InChI=1S/C9H13NO2/c1-10-6-9(12)7-3-2-4-8(11)5-7/h2-5,9-12H,6H2,1H3

> <Parent_SMILES>
CNC[C@H](O)c1cccc(O)c1

$$$$
Molecule 38_metabolite 21
  CDK     0516241031

 19 19  0  0  0  0  0  0  0  0999 V2000
    2.9593    0.5574    0.0000 C   0  0  0  0  0  0  0  0  0  0  0  0
    4.2594    1.3054    0.0000 H   0  0  0  0  0  0  0  0  0  0  0  0
    2.9593   -0.9426    0.0000 C   0  0  0  0  0  0  0  0  0  0  0  0
    4.2594   -1.6906    0.0000 H   0  0  0  0  0  0  0  0  0  0  0  0
    1.6693   -1.6926    0.0000 C   0  0  0  0  0  0  0  0  0  0  0  0
    0.3693   -0.9426    0.0000 C   0  0  0  0  0  0  0  0  0  0  0  0
   -0.9297   -1.6928    0.0000 H   0  0  0  0  0  0  0  0  0  0  0  0
    0.3693    0.5574    0.0000 C   0  0  0  0  0  0  0  0  0  0  0  0
    1.6693    1.3074    0.0000 C   0  0  0  0  0  0  0  0  0  0  0  0
    1.6718    2.8074    0.0000 H   0  0  0  0  0  0  0  0  0  0  0  0
   -0.9297    1.3076    0.0000 C   0  0  2  0  0  0  0  0  0  0  0  0
   -2.4068    1.5683    0.0000 H   0  0  0  0  0  0  0  0  0  0  0  0
   -0.9294    2.8076    0.0000 C   0  0  0  0  0  0  0  0  0  0  0  0
   -2.2283    3.5578    0.0000 H   0  0  0  0  0  0  0  0  0  0  0  0
    0.3697    3.5574    0.0000 O   0  0  0  0  0  0  0  0  0  0  0  0
   -1.4429   -0.1018    0.0000 O   0  0  0  0  0  0  0  0  0  0  0  0
   -2.9202   -0.3621    0.0000 H   0  0  0  0  0  0  0  0  0  0  0  0
    1.6718   -3.1926    0.0000 O   0  0  0  0  0  0  0  0  0  0  0  0
    2.9721   -3.9404    0.0000 H   0  0  0  0  0  0  0  0  0  0  0  0
  1  2  1  0  0  0  0 
  1  3  2  0  0  0  0 
  3  4  1  0  0  0  0 
  3  5  1  0  0  0  0 
  5  6  2  0  0  0  0 
  6  7  1  0  0  0  0 
  6  8  1  0  0  0  0 
  8  9  2  0  0  0  0 
  1  9  1  0  0  0  0 
  9 10  1  0  0  0  0 
  8 11  1  0  0  0  0 
 11 12  1  6  0  0  0 
 11 13  1  0  0  0  0 
 13 14  1  0  0  0  0 
 13 15  2  0  0  0  0 
 11 16  1  1  0  0  0 
 16 17  1  0  0  0  0 
  5 18  1  0  0  0  0 
 18 19  1  0  0  0  0 
M  END
> <Rank>
19

> <Priority_score>
0.104

> <Reaction_type>
N-dealkylation

> <Parent_ID>
38

> <Parent_InChI>
InChI=1S/C9H13NO2/c1-10-6-9(12)7-3-2-4-8(11)5-7/h2-5,9-12H,6H2,1H3

> <Parent_SMILES>
CNC[C@H](O)c1cccc(O)c1

$$$$
Molecule 38_metabolite 22
  CDK     0516241031

 23 23  0  0  0  0  0  0  0  0999 V2000
    5.5564   -1.2968    0.0000 C   0  0  0  0  0  0  0  0  0  0  0  0
    6.8556   -0.5470    0.0000 H   0  0  0  0  0  0  0  0  0  0  0  0
    4.5921   -2.4457    0.0000 H   0  0  0  0  0  0  0  0  0  0  0  0
    6.5204   -2.4460    0.0000 H   0  0  0  0  0  0  0  0  0  0  0  0
    4.2575   -0.5466    0.0000 N   0  0  0  0  0  0  0  0  0  0  0  0
    4.2577    0.9534    0.0000 H   0  0  0  0  0  0  0  0  0  0  0  0
    2.9583   -1.2964    0.0000 C   0  0  0  0  0  0  0  0  0  0  0  0
    2.9581   -2.7964    0.0000 H   0  0  0  0  0  0  0  0  0  0  0  0
    1.6594   -0.5462    0.0000 C   0  0  0  0  0  0  0  0  0  0  0  0
    0.3603   -1.2960    0.0000 C   0  0  0  0  0  0  0  0  0  0  0  0
    0.3598   -2.7968    0.0000 C   0  0  0  0  0  0  0  0  0  0  0  0
    1.6576   -3.5490    0.0000 H   0  0  0  0  0  0  0  0  0  0  0  0
   -0.9347   -3.5390    0.0000 C   0  0  0  0  0  0  0  0  0  0  0  0
   -0.9370   -5.0390    0.0000 H   0  0  0  0  0  0  0  0  0  0  0  0
   -2.2338   -2.7890    0.0000 C   0  0  0  0  0  0  0  0  0  0  0  0
   -3.5317   -3.5409    0.0000 H   0  0  0  0  0  0  0  0  0  0  0  0
   -2.2383   -1.2968    0.0000 C   0  0  0  0  0  0  0  0  0  0  0  0
   -0.9388   -0.5460    0.0000 C   0  0  0  0  0  0  0  0  0  0  0  0
   -0.9390    0.9540    0.0000 H   0  0  0  0  0  0  0  0  0  0  0  0
   -3.5386   -0.5490    0.0000 O   0  0  0  0  0  0  0  0  0  0  0  0
   -4.8364   -1.3012    0.0000 H   0  0  0  0  0  0  0  0  0  0  0  0
    1.6597    0.9538    0.0000 O   0  0  0  0  0  0  0  0  0  0  0  0
    2.9588    1.7036    0.0000 H   0  0  0  0  0  0  0  0  0  0  0  0
  1  2  1  0  0  0  0 
  1  3  1  0  0  0  0 
  1  4  1  0  0  0  0 
  1  5  1  0  0  0  0 
  5  6  1  0  0  0  0 
  5  7  1  0  0  0  0 
  7  8  1  4  0  0  0 
  7  9  2  0  0  0  0 
  9 10  1  0  0  0  0 
 10 11  2  0  0  0  0 
 11 12  1  0  0  0  0 
 11 13  1  0  0  0  0 
 13 14  1  0  0  0  0 
 13 15  2  0  0  0  0 
 15 16  1  0  0  0  0 
 15 17  1  0  0  0  0 
 17 18  2  0  0  0  0 
 10 18  1  0  0  0  0 
 18 19  1  0  0  0  0 
 17 20  1  0  0  0  0 
 20 21  1  0  0  0  0 
  9 22  1  0  0  0  0 
 22 23  1  0  0  0  0 
M  END
> <Rank>
22

> <Priority_score>
0.033600000000000005

> <Reaction_type>
alkyl dehydrogenation

> <Parent_ID>
38

> <Parent_InChI>
InChI=1S/C9H13NO2/c1-10-6-9(12)7-3-2-4-8(11)5-7/h2-5,9-12H,6H2,1H3

> <Parent_SMILES>
CNC[C@H](O)c1cccc(O)c1

$$$$
Molecule 38_metabolite 23
  CDK     0516241031

 23 23  0  0  0  0  0  0  0  0999 V2000
    5.5562   -1.2965    0.0000 C   0  0  0  0  0  0  0  0  0  0  0  0
    6.8554   -0.5467    0.0000 H   0  0  0  0  0  0  0  0  0  0  0  0
    4.5919   -2.4454    0.0000 H   0  0  0  0  0  0  0  0  0  0  0  0
    6.5202   -2.4457    0.0000 H   0  0  0  0  0  0  0  0  0  0  0  0
    4.2573   -0.5463    0.0000 N   0  0  0  0  0  0  0  0  0  0  0  0
    2.9582   -1.2961    0.0000 C   0  0  0  0  0  0  0  0  0  0  0  0
    2.9579   -2.7961    0.0000 H   0  0  0  0  0  0  0  0  0  0  0  0
    1.6592   -0.5459    0.0000 C   0  0  1  0  0  0  0  0  0  0  0  0
    2.6236    0.6030    0.0000 H   0  0  0  0  0  0  0  0  0  0  0  0
    0.3601   -1.2957    0.0000 C   0  0  0  0  0  0  0  0  0  0  0  0
    0.3596   -2.7965    0.0000 C   0  0  0  0  0  0  0  0  0  0  0  0
    1.6574   -3.5487    0.0000 H   0  0  0  0  0  0  0  0  0  0  0  0
   -0.9349   -3.5387    0.0000 C   0  0  0  0  0  0  0  0  0  0  0  0
   -0.9372   -5.0387    0.0000 H   0  0  0  0  0  0  0  0  0  0  0  0
   -2.2339   -2.7887    0.0000 C   0  0  0  0  0  0  0  0  0  0  0  0
   -3.5319   -3.5406    0.0000 H   0  0  0  0  0  0  0  0  0  0  0  0
   -2.2385   -1.2965    0.0000 C   0  0  0  0  0  0  0  0  0  0  0  0
   -0.9389   -0.5457    0.0000 C   0  0  0  0  0  0  0  0  0  0  0  0
   -0.9392    0.9543    0.0000 H   0  0  0  0  0  0  0  0  0  0  0  0
   -3.5388   -0.5487    0.0000 O   0  0  0  0  0  0  0  0  0  0  0  0
   -4.8365   -1.3008    0.0000 H   0  0  0  0  0  0  0  0  0  0  0  0
    0.6953    0.6034    0.0000 O   0  0  0  0  0  0  0  0  0  0  0  0
    1.2085    2.0128    0.0000 H   0  0  0  0  0  0  0  0  0  0  0  0
  1  2  1  0  0  0  0 
  1  3  1  0  0  0  0 
  1  4  1  0  0  0  0 
  1  5  1  0  0  0  0 
  5  6  2  0  0  0  0 
  6  7  1  4  0  0  0 
  6  8  1  0  0  0  0 
  8  9  1  6  0  0  0 
  8 10  1  0  0  0  0 
 10 11  2  0  0  0  0 
 11 12  1  0  0  0  0 
 11 13  1  0  0  0  0 
 13 14  1  0  0  0  0 
 13 15  2  0  0  0  0 
 15 16  1  0  0  0  0 
 15 17  1  0  0  0  0 
 17 18  2  0  0  0  0 
 10 18  1  0  0  0  0 
 18 19  1  0  0  0  0 
 17 20  1  0  0  0  0 
 20 21  1  0  0  0  0 
  8 22  1  1  0  0  0 
 22 23  1  0  0  0  0 
M  END
> <Rank>
23

> <Priority_score>
0.0208

> <Reaction_type>
dehydration of N-C bond

> <Parent_ID>
38

> <Parent_InChI>
InChI=1S/C9H13NO2/c1-10-6-9(12)7-3-2-4-8(11)5-7/h2-5,9-12H,6H2,1H3

> <Parent_SMILES>
CNC[C@H](O)c1cccc(O)c1

$$$$
Molecule 38_metabolite 24
  CDK     0516241031

 24 24  0  0  0  0  0  0  0  0999 V2000
    5.5564   -1.2967    0.0000 C   0  0  0  0  0  0  0  0  0  0  0  0
    6.8555   -0.5469    0.0000 H   0  0  0  0  0  0  0  0  0  0  0  0
    4.5920   -2.4456    0.0000 H   0  0  0  0  0  0  0  0  0  0  0  0
    6.5204   -2.4459    0.0000 H   0  0  0  0  0  0  0  0  0  0  0  0
    4.2574   -0.5465    0.0000 N   0  0  0  0  0  0  0  0  0  0  0  0
    4.2577    0.9535    0.0000 H   0  0  0  0  0  0  0  0  0  0  0  0
    2.9583   -1.2963    0.0000 C   0  0  0  0  0  0  0  0  0  0  0  0
    2.9580   -2.7963    0.0000 H   0  0  0  0  0  0  0  0  0  0  0  0
    1.6594   -0.5461    0.0000 C   0  0  1  0  0  0  0  0  0  0  0  0
    2.6237    0.6028    0.0000 H   0  0  0  0  0  0  0  0  0  0  0  0
    0.3602   -1.2959    0.0000 C   0  0  0  0  0  0  0  0  0  0  0  0
    0.3597   -2.7967    0.0000 C   0  0  0  0  0  0  0  0  0  0  0  0
    1.6575   -3.5489    0.0000 H   0  0  0  0  0  0  0  0  0  0  0  0
   -0.9348   -3.5389    0.0000 C   0  0  0  0  0  0  0  0  0  0  0  0
   -0.9371   -5.0389    0.0000 H   0  0  0  0  0  0  0  0  0  0  0  0
   -2.2338   -2.7889    0.0000 C   0  0  0  0  0  0  0  0  0  0  0  0
   -3.5317   -3.5408    0.0000 H   0  0  0  0  0  0  0  0  0  0  0  0
   -2.2383   -1.2967    0.0000 C   0  0  0  0  0  0  0  0  0  0  0  0
   -0.9388   -0.5459    0.0000 C   0  0  0  0  0  0  0  0  0  0  0  0
   -0.9391    0.9541    0.0000 H   0  0  0  0  0  0  0  0  0  0  0  0
   -3.5386   -0.5489    0.0000 O   0  0  0  0  0  0  0  0  0  0  0  0
   -4.8364   -1.3010    0.0000 H   0  0  0  0  0  0  0  0  0  0  0  0
    0.6954    0.6032    0.0000 O   0  0  0  0  0  0  0  0  0  0  0  0
    1.2086    2.0126    0.0000 H   0  0  0  0  0  0  0  0  0  0  0  0
  1  2  1  0  0  0  0 
  1  3  1  0  0  0  0 
  1  4  1  0  0  0  0 
  1  5  1  0  0  0  0 
  5  6  1  4  0  0  0 
  5  7  2  0  0  0  0 
  7  8  1  0  0  0  0 
  7  9  1  0  0  0  0 
  9 10  1  6  0  0  0 
  9 11  1  0  0  0  0 
 11 12  2  0  0  0  0 
 12 13  1  0  0  0  0 
 12 14  1  0  0  0  0 
 14 15  1  0  0  0  0 
 14 16  2  0  0  0  0 
 16 17  1  0  0  0  0 
 16 18  1  0  0  0  0 
 18 19  2  0  0  0  0 
 11 19  1  0  0  0  0 
 19 20  1  0  0  0  0 
 18 21  1  0  0  0  0 
 21 22  1  0  0  0  0 
  9 23  1  1  0  0  0 
 23 24  1  0  0  0  0 
M  CHG  1   5   1
M  END
> <Rank>
23

> <Priority_score>
0.0208

> <Reaction_type>
dehydration of N-C bond

> <Parent_ID>
38

> <Parent_InChI>
InChI=1S/C9H13NO2/c1-10-6-9(12)7-3-2-4-8(11)5-7/h2-5,9-12H,6H2,1H3

> <Parent_SMILES>
CNC[C@H](O)c1cccc(O)c1

$$$$
Molecule 39
  CDK     0516241031

 24 26  0  0  0  0  0  0  0  0999 V2000
    7.0484    0.6025    0.0000 C   0  0  0  0  0  0  0  0  0  0  0  0
    5.5566    0.4451    0.0000 N   0  0  0  0  0  0  0  0  0  0  0  0
    4.9471   -0.9255    0.0000 C   0  0  0  0  0  0  0  0  0  0  0  0
    3.4554   -1.0830    0.0000 C   0  0  0  0  0  0  0  0  0  0  0  0
    2.4557    0.0254    0.0000 C   0  0  0  0  0  0  0  0  0  0  0  0
    1.0799   -0.5775    0.0000 N   0  0  0  0  0  0  0  0  0  0  0  0
    1.2457   -2.0704    0.0000 C   0  0  0  0  0  0  0  0  0  0  0  0
    2.7054   -2.3820    0.0000 C   0  0  0  0  0  0  0  0  0  0  0  0
    0.1335   -3.0768    0.0000 C   0  0  0  0  0  0  0  0  0  0  0  0
    0.4472   -4.5445    0.0000 C   0  0  0  0  0  0  0  0  0  0  0  0
   -0.6667   -5.5491    0.0000 C   0  0  0  0  0  0  0  0  0  0  0  0
   -2.0943   -5.0860    0.0000 C   0  0  0  0  0  0  0  0  0  0  0  0
   -2.4013   -3.6258    0.0000 C   0  0  0  0  0  0  0  0  0  0  0  0
   -1.2874   -2.6212    0.0000 C   0  0  0  0  0  0  0  0  0  0  0  0
    1.8742   -5.0067    0.0000 F   0  0  0  0  0  0  0  0  0  0  0  0
   -0.2191    0.1725    0.0000 S   0  0  0  0  0  0  0  0  0  0  0  0
   -1.6963    0.4330    0.0000 O   0  0  0  0  0  0  0  0  0  0  0  0
   -0.7322   -1.2370    0.0000 O   0  0  0  0  0  0  0  0  0  0  0  0
   -0.2191    1.6725    0.0000 C   0  0  0  0  0  0  0  0  0  0  0  0
    1.0805    2.4231    0.0000 C   0  0  0  0  0  0  0  0  0  0  0  0
    1.0812    3.9240    0.0000 C   0  0  0  0  0  0  0  0  0  0  0  0
   -0.2177    4.6742    0.0000 C   0  0  0  0  0  0  0  0  0  0  0  0
   -1.5173    3.9236    0.0000 N   0  0  0  0  0  0  0  0  0  0  0  0
   -1.5180    2.4227    0.0000 C   0  0  0  0  0  0  0  0  0  0  0  0
  1  2  1  0  0  0  0 
  2  3  1  0  0  0  0 
  3  4  1  0  0  0  0 
  4  5  2  0  0  0  0 
  5  6  1  0  0  0  0 
  6  7  1  0  0  0  0 
  7  8  2  0  0  0  0 
  4  8  1  0  0  0  0 
  7  9  1  0  0  0  0 
  9 10  2  0  0  0  0 
 10 11  1  0  0  0  0 
 11 12  2  0  0  0  0 
 12 13  1  0  0  0  0 
 13 14  2  0  0  0  0 
  9 14  1  0  0  0  0 
 10 15  1  0  0  0  0 
  6 16  1  0  0  0  0 
 16 17  2  0  0  0  0 
 16 18  2  0  0  0  0 
 16 19  1  0  0  0  0 
 19 20  2  0  0  0  0 
 20 21  1  0  0  0  0 
 21 22  2  0  0  0  0 
 22 23  1  0  0  0  0 
 23 24  2  0  0  0  0 
 19 24  1  0  0  0  0 
M  END
> <SMILES>
CNCc1cc(-c2ccccc2F)n(S(=O)(=O)c2cccnc2)c1

$$$$
Molecule 39_metabolite 1
  CDK     0516241031

 45 47  0  0  0  0  0  0  0  0999 V2000
   -5.9856   -5.7538    0.0000 C   0  0  0  0  0  0  0  0  0  0  0  0
   -6.8678   -6.9670    0.0000 H   0  0  0  0  0  0  0  0  0  0  0  0
   -7.3335   -5.0957    0.0000 H   0  0  0  0  0  0  0  0  0  0  0  0
   -5.5715   -4.3121    0.0000 H   0  0  0  0  0  0  0  0  0  0  0  0
   -4.4939   -5.9113    0.0000 C   0  0  0  0  0  0  0  0  0  0  0  0
   -3.8844   -7.2819    0.0000 O   0  0  0  0  0  0  0  0  0  0  0  0
   -3.6117   -4.6982    0.0000 N   0  0  0  0  0  0  0  0  0  0  0  0
   -4.2212   -3.3276    0.0000 C   0  0  0  0  0  0  0  0  0  0  0  0
   -5.7129   -3.1701    0.0000 H   0  0  0  0  0  0  0  0  0  0  0  0
   -4.3252   -1.8312    0.0000 H   0  0  0  0  0  0  0  0  0  0  0  0
   -2.7656   -2.9653    0.0000 H   0  0  0  0  0  0  0  0  0  0  0  0
   -2.1200   -4.8556    0.0000 C   0  0  0  0  0  0  0  0  0  0  0  0
   -0.7721   -5.5138    0.0000 H   0  0  0  0  0  0  0  0  0  0  0  0
   -2.5341   -6.2973    0.0000 H   0  0  0  0  0  0  0  0  0  0  0  0
   -1.2378   -3.6425    0.0000 C   0  0  0  0  0  0  0  0  0  0  0  0
   -1.6978   -2.2225    0.0000 C   0  0  0  0  0  0  0  0  0  0  0  0
   -3.1255   -1.7625    0.0000 H   0  0  0  0  0  0  0  0  0  0  0  0
   -0.4878   -1.3325    0.0000 N   0  0  0  0  0  0  0  0  0  0  0  0
    0.7222   -2.2225    0.0000 C   0  0  0  0  0  0  0  0  0  0  0  0
    0.2622   -3.6425    0.0000 C   0  0  0  0  0  0  0  0  0  0  0  0
    1.1444   -4.8556    0.0000 H   0  0  0  0  0  0  0  0  0  0  0  0
    2.1500   -1.7625    0.0000 C   0  0  0  0  0  0  0  0  0  0  0  0
    3.2641   -2.7680    0.0000 C   0  0  0  0  0  0  0  0  0  0  0  0
    4.6911   -2.3056    0.0000 C   0  0  0  0  0  0  0  0  0  0  0  0
    5.8052   -3.3101    0.0000 H   0  0  0  0  0  0  0  0  0  0  0  0
    5.0039   -0.8378    0.0000 C   0  0  0  0  0  0  0  0  0  0  0  0
    6.4301   -0.3730    0.0000 H   0  0  0  0  0  0  0  0  0  0  0  0
    3.8928    0.1582    0.0000 C   0  0  0  0  0  0  0  0  0  0  0  0
    4.2036    1.6257    0.0000 H   0  0  0  0  0  0  0  0  0  0  0  0
    2.4658   -0.3041    0.0000 C   0  0  0  0  0  0  0  0  0  0  0  0
    1.3534    0.7022    0.0000 H   0  0  0  0  0  0  0  0  0  0  0  0
    2.9508   -4.2349    0.0000 F   0  0  0  0  0  0  0  0  0  0  0  0
   -0.4878    0.1675    0.0000 S   0  0  0  0  0  0  0  0  0  0  0  0
    0.9894   -0.0929    0.0000 O   0  0  0  0  0  0  0  0  0  0  0  0
    0.0252    1.5771    0.0000 O   0  0  0  0  0  0  0  0  0  0  0  0
   -2.2025    1.1575    0.0000 C   0  0  0  0  0  0  0  0  0  0  0  0
   -2.2028    2.6584    0.0000 C   0  0  0  0  0  0  0  0  0  0  0  0
   -0.9036    3.4082    0.0000 H   0  0  0  0  0  0  0  0  0  0  0  0
   -3.5022    3.4094    0.0000 C   0  0  0  0  0  0  0  0  0  0  0  0
   -3.5017    4.9094    0.0000 H   0  0  0  0  0  0  0  0  0  0  0  0
   -4.8013    2.6596    0.0000 C   0  0  0  0  0  0  0  0  0  0  0  0
   -6.1003    3.4096    0.0000 H   0  0  0  0  0  0  0  0  0  0  0  0
   -4.8011    1.1588    0.0000 N   0  0  0  0  0  0  0  0  0  0  0  0
   -3.5017    0.4077    0.0000 C   0  0  0  0  0  0  0  0  0  0  0  0
   -3.5022   -1.0923    0.0000 H   0  0  0  0  0  0  0  0  0  0  0  0
  1  2  1  0  0  0  0 
  1  3  1  0  0  0  0 
  1  4  1  0  0  0  0 
  1  5  1  0  0  0  0 
  5  6  2  0  0  0  0 
  5  7  1  0  0  0  0 
  7  8  1  0  0  0  0 
  8  9  1  0  0  0  0 
  8 10  1  0  0  0  0 
  8 11  1  0  0  0  0 
  7 12  1  0  0  0  0 
 12 13  1  0  0  0  0 
 12 14  1  0  0  0  0 
 12 15  1  0  0  0  0 
 15 16  2  0  0  0  0 
 16 17  1  0  0  0  0 
 16 18  1  0  0  0  0 
 18 19  1  0  0  0  0 
 19 20  2  0  0  0  0 
 15 20  1  0  0  0  0 
 20 21  1  0  0  0  0 
 19 22  1  0  0  0  0 
 22 23  2  0  0  0  0 
 23 24  1  0  0  0  0 
 24 25  1  0  0  0  0 
 24 26  2  0  0  0  0 
 26 27  1  0  0  0  0 
 26 28  1  0  0  0  0 
 28 29  1  0  0  0  0 
 28 30  2  0  0  0  0 
 22 30  1  0  0  0  0 
 30 31  1  0  0  0  0 
 23 32  1  0  0  0  0 
 18 33  1  0  0  0  0 
 33 34  2  0  0  0  0 
 33 35  2  0  0  0  0 
 33 36  1  0  0  0  0 
 36 37  2  0  0  0  0 
 37 38  1  0  0  0  0 
 37 39  1  0  0  0  0 
 39 40  1  0  0  0  0 
 39 41  2  0  0  0  0 
 41 42  1  0  0  0  0 
 41 43  1  0  0  0  0 
 43 44  2  0  0  0  0 
 36 44  1  0  0  0  0 
 44 45  1  0  0  0  0 
M  END
> <Rank>
1

> <Priority_score>
0.768

> <Reaction_type>
N-acetylation_(NH1-CH3)

> <Parent_ID>
39

> <Parent_InChI>
InChI=1S/C17H16FN3O2S/c1-19-10-13-9-17(15-6-2-3-7-16(15)18)21(12-13)24(22,23)14-5-4-8-20-11-14/h2-9,11-12,19H,10H2,1H3

> <Parent_SMILES>
CNCc1cc(-c2ccccc2F)n(S(=O)(=O)c2cccnc2)c1

$$$$
Molecule 39_metabolite 2
  CDK     0516241031

 41 43  0  0  0  0  0  0  0  0999 V2000
    5.7257   -4.4098    0.0000 C   0  0  0  0  0  0  0  0  0  0  0  0
    5.1162   -5.7804    0.0000 H   0  0  0  0  0  0  0  0  0  0  0  0
    6.7672   -3.3304    0.0000 H   0  0  0  0  0  0  0  0  0  0  0  0
    6.9696   -5.2481    0.0000 H   0  0  0  0  0  0  0  0  0  0  0  0
    4.8435   -3.1967    0.0000 N   0  0  0  0  0  0  0  0  0  0  0  0
    3.3517   -3.3541    0.0000 C   0  0  0  0  0  0  0  0  0  0  0  0
    2.0038   -4.0123    0.0000 H   0  0  0  0  0  0  0  0  0  0  0  0
    3.7658   -4.7959    0.0000 H   0  0  0  0  0  0  0  0  0  0  0  0
    2.4695   -2.1410    0.0000 C   0  0  0  0  0  0  0  0  0  0  0  0
    2.9295   -0.7210    0.0000 C   0  0  0  0  0  0  0  0  0  0  0  0
    4.3573   -0.2610    0.0000 H   0  0  0  0  0  0  0  0  0  0  0  0
    1.7195    0.1690    0.0000 N   0  0  0  0  0  0  0  0  0  0  0  0
    0.5095   -0.7210    0.0000 C   0  0  0  0  0  0  0  0  0  0  0  0
    0.9695   -2.1410    0.0000 C   0  0  0  0  0  0  0  0  0  0  0  0
    0.0873   -3.3541    0.0000 H   0  0  0  0  0  0  0  0  0  0  0  0
   -0.9182   -0.2610    0.0000 C   0  0  0  0  0  0  0  0  0  0  0  0
   -2.0324   -1.2666    0.0000 C   0  0  0  0  0  0  0  0  0  0  0  0
   -3.4594   -0.8042    0.0000 C   0  0  0  0  0  0  0  0  0  0  0  0
   -4.5734   -1.8086    0.0000 H   0  0  0  0  0  0  0  0  0  0  0  0
   -3.7721    0.6637    0.0000 C   0  0  0  0  0  0  0  0  0  0  0  0
   -5.1983    1.1284    0.0000 H   0  0  0  0  0  0  0  0  0  0  0  0
   -2.6610    1.6597    0.0000 C   0  0  0  0  0  0  0  0  0  0  0  0
   -2.9719    3.1271    0.0000 H   0  0  0  0  0  0  0  0  0  0  0  0
   -1.2341    1.1973    0.0000 C   0  0  0  0  0  0  0  0  0  0  0  0
   -0.1217    2.2036    0.0000 H   0  0  0  0  0  0  0  0  0  0  0  0
   -1.7191   -2.7335    0.0000 F   0  0  0  0  0  0  0  0  0  0  0  0
    1.7195    1.6690    0.0000 S   0  0  0  0  0  0  0  0  0  0  0  0
    1.2065    3.0785    0.0000 O   0  0  0  0  0  0  0  0  0  0  0  0
    0.2423    1.4085    0.0000 O   0  0  0  0  0  0  0  0  0  0  0  0
    3.4343    2.6590    0.0000 C   0  0  0  0  0  0  0  0  0  0  0  0
    4.7341    1.9088    0.0000 C   0  0  0  0  0  0  0  0  0  0  0  0
    4.7339    0.4088    0.0000 H   0  0  0  0  0  0  0  0  0  0  0  0
    6.0343    2.6586    0.0000 C   0  0  0  0  0  0  0  0  0  0  0  0
    7.3331    1.9082    0.0000 H   0  0  0  0  0  0  0  0  0  0  0  0
    6.0345    4.1586    0.0000 C   0  0  0  0  0  0  0  0  0  0  0  0
    7.3335    4.9086    0.0000 H   0  0  0  0  0  0  0  0  0  0  0  0
    4.7346    4.9088    0.0000 N   0  0  0  0  0  0  0  0  0  0  0  0
    3.4345    4.1590    0.0000 C   0  0  0  0  0  0  0  0  0  0  0  0
    2.1357    4.9094    0.0000 H   0  0  0  0  0  0  0  0  0  0  0  0
    5.4530   -1.8261    0.0000 O   0  0  0  0  0  0  0  0  0  0  0  0
    6.9447   -1.6687    0.0000 H   0  0  0  0  0  0  0  0  0  0  0  0
  1  2  1  0  0  0  0 
  1  3  1  0  0  0  0 
  1  4  1  0  0  0  0 
  1  5  1  0  0  0  0 
  5  6  1  0  0  0  0 
  6  7  1  0  0  0  0 
  6  8  1  0  0  0  0 
  6  9  1  0  0  0  0 
  9 10  2  0  0  0  0 
 10 11  1  0  0  0  0 
 10 12  1  0  0  0  0 
 12 13  1  0  0  0  0 
 13 14  2  0  0  0  0 
  9 14  1  0  0  0  0 
 14 15  1  0  0  0  0 
 13 16  1  0  0  0  0 
 16 17  2  0  0  0  0 
 17 18  1  0  0  0  0 
 18 19  1  0  0  0  0 
 18 20  2  0  0  0  0 
 20 21  1  0  0  0  0 
 20 22  1  0  0  0  0 
 22 23  1  0  0  0  0 
 22 24  2  0  0  0  0 
 16 24  1  0  0  0  0 
 24 25  1  0  0  0  0 
 17 26  1  0  0  0  0 
 12 27  1  0  0  0  0 
 27 28  2  0  0  0  0 
 27 29  2  0  0  0  0 
 27 30  1  0  0  0  0 
 30 31  2  0  0  0  0 
 31 32  1  0  0  0  0 
 31 33  1  0  0  0  0 
 33 34  1  0  0  0  0 
 33 35  2  0  0  0  0 
 35 36  1  0  0  0  0 
 35 37  1  0  0  0  0 
 37 38  2  0  0  0  0 
 30 38  1  0  0  0  0 
 38 39  1  0  0  0  0 
  5 40  1  0  0  0  0 
 40 41  1  0  0  0  0 
M  END
> <Rank>
2

> <Priority_score>
0.516

> <Reaction_type>
amine hydroxylation

> <Parent_ID>
39

> <Parent_InChI>
InChI=1S/C17H16FN3O2S/c1-19-10-13-9-17(15-6-2-3-7-16(15)18)21(12-13)24(22,23)14-5-4-8-20-11-14/h2-9,11-12,19H,10H2,1H3

> <Parent_SMILES>
CNCc1cc(-c2ccccc2F)n(S(=O)(=O)c2cccnc2)c1

$$$$
Molecule 39_metabolite 3
  CDK     0516241031

 41 43  0  0  0  0  0  0  0  0999 V2000
    0.9116   -4.4590    0.0000 C   0  0  0  0  0  0  0  0  0  0  0  0
    0.5914   -5.9244    0.0000 H   0  0  0  0  0  0  0  0  0  0  0  0
   -0.1989   -3.4507    0.0000 C   0  0  0  0  0  0  0  0  0  0  0  0
   -1.6267   -3.9104    0.0000 H   0  0  0  0  0  0  0  0  0  0  0  0
    0.1130   -1.9915    0.0000 C   0  0  0  0  0  0  0  0  0  0  0  0
    1.5421   -1.5332    0.0000 C   0  0  0  0  0  0  0  0  0  0  0  0
    2.6527   -2.5415    0.0000 C   0  0  0  0  0  0  0  0  0  0  0  0
    4.0812   -2.0841    0.0000 H   0  0  0  0  0  0  0  0  0  0  0  0
    2.3341   -4.0081    0.0000 C   0  0  0  0  0  0  0  0  0  0  0  0
    3.4429   -5.0183    0.0000 H   0  0  0  0  0  0  0  0  0  0  0  0
    1.8599   -0.0672    0.0000 F   0  0  0  0  0  0  0  0  0  0  0  0
   -0.9992   -0.9850    0.0000 C   0  0  0  0  0  0  0  0  0  0  0  0
   -2.4590   -1.2966    0.0000 C   0  0  0  0  0  0  0  0  0  0  0  0
   -3.0685   -2.6672    0.0000 H   0  0  0  0  0  0  0  0  0  0  0  0
   -3.2090    0.0024    0.0000 C   0  0  0  0  0  0  0  0  0  0  0  0
   -2.2092    1.1108    0.0000 C   0  0  0  0  0  0  0  0  0  0  0  0
   -2.5247    2.5772    0.0000 H   0  0  0  0  0  0  0  0  0  0  0  0
   -0.8335    0.5079    0.0000 N   0  0  0  0  0  0  0  0  0  0  0  0
    0.4656    1.2579    0.0000 S   0  0  0  0  0  0  0  0  0  0  0  0
    0.9786   -0.1516    0.0000 O   0  0  0  0  0  0  0  0  0  0  0  0
    1.9428    1.5184    0.0000 O   0  0  0  0  0  0  0  0  0  0  0  0
    0.4656    3.2379    0.0000 C   0  0  0  0  0  0  0  0  0  0  0  0
    1.7652    3.9885    0.0000 C   0  0  0  0  0  0  0  0  0  0  0  0
    3.0641    3.2383    0.0000 H   0  0  0  0  0  0  0  0  0  0  0  0
    1.7659    5.4893    0.0000 C   0  0  0  0  0  0  0  0  0  0  0  0
    3.0652    6.2389    0.0000 H   0  0  0  0  0  0  0  0  0  0  0  0
    0.4670    6.2396    0.0000 C   0  0  0  0  0  0  0  0  0  0  0  0
    0.4670    7.7396    0.0000 H   0  0  0  0  0  0  0  0  0  0  0  0
   -0.8326    5.4889    0.0000 N   0  0  0  0  0  0  0  0  0  0  0  0
   -0.8333    3.9881    0.0000 C   0  0  0  0  0  0  0  0  0  0  0  0
   -2.1326    3.2385    0.0000 H   0  0  0  0  0  0  0  0  0  0  0  0
   -4.7007    0.1599    0.0000 C   0  0  0  0  0  0  0  0  0  0  0  0
   -4.2866    1.6016    0.0000 H   0  0  0  0  0  0  0  0  0  0  0  0
   -6.0486    0.8180    0.0000 H   0  0  0  0  0  0  0  0  0  0  0  0
   -5.5829   -1.0533    0.0000 N   0  0  0  0  0  0  0  0  0  0  0  0
   -4.9734   -2.4239    0.0000 H   0  0  0  0  0  0  0  0  0  0  0  0
   -7.0746   -0.8958    0.0000 C   0  0  0  0  0  0  0  0  0  0  0  0
   -6.9706   -2.3922    0.0000 H   0  0  0  0  0  0  0  0  0  0  0  0
   -8.5302   -1.2581    0.0000 H   0  0  0  0  0  0  0  0  0  0  0  0
   -7.6841    0.4748    0.0000 O   0  0  0  0  0  0  0  0  0  0  0  0
   -9.1758    0.6322    0.0000 H   0  0  0  0  0  0  0  0  0  0  0  0
  1  2  1  0  0  0  0 
  1  3  2  0  0  0  0 
  3  4  1  0  0  0  0 
  3  5  1  0  0  0  0 
  5  6  2  0  0  0  0 
  6  7  1  0  0  0  0 
  7  8  1  0  0  0  0 
  7  9  2  0  0  0  0 
  1  9  1  0  0  0  0 
  9 10  1  0  0  0  0 
  6 11  1  0  0  0  0 
  5 12  1  0  0  0  0 
 12 13  2  0  0  0  0 
 13 14  1  0  0  0  0 
 13 15  1  0  0  0  0 
 15 16  2  0  0  0  0 
 16 17  1  0  0  0  0 
 16 18  1  0  0  0  0 
 12 18  1  0  0  0  0 
 18 19  1  0  0  0  0 
 19 20  2  0  0  0  0 
 19 21  2  0  0  0  0 
 19 22  1  0  0  0  0 
 22 23  2  0  0  0  0 
 23 24  1  0  0  0  0 
 23 25  1  0  0  0  0 
 25 26  1  0  0  0  0 
 25 27  2  0  0  0  0 
 27 28  1  0  0  0  0 
 27 29  1  0  0  0  0 
 29 30  2  0  0  0  0 
 22 30  1  0  0  0  0 
 30 31  1  0  0  0  0 
 15 32  1  0  0  0  0 
 32 33  1  0  0  0  0 
 32 34  1  0  0  0  0 
 32 35  1  0  0  0  0 
 35 36  1  0  0  0  0 
 35 37  1  0  0  0  0 
 37 38  1  0  0  0  0 
 37 39  1  0  0  0  0 
 37 40  1  0  0  0  0 
 40 41  1  0  0  0  0 
M  END
> <Rank>
2

> <Priority_score>
0.516

> <Reaction_type>
aliphatic hydroxylation

> <Parent_ID>
39

> <Parent_InChI>
InChI=1S/C17H16FN3O2S/c1-19-10-13-9-17(15-6-2-3-7-16(15)18)21(12-13)24(22,23)14-5-4-8-20-11-14/h2-9,11-12,19H,10H2,1H3

> <Parent_SMILES>
CNCc1cc(-c2ccccc2F)n(S(=O)(=O)c2cccnc2)c1

$$$$
Molecule 39_metabolite 4
  CDK     0516241031

 37 39  0  0  0  0  0  0  0  0999 V2000
    2.0881    2.2856    0.0000 C   0  0  0  0  0  0  0  0  0  0  0  0
    3.5173    2.7410    0.0000 H   0  0  0  0  0  0  0  0  0  0  0  0
    1.7701    0.8197    0.0000 C   0  0  0  0  0  0  0  0  0  0  0  0
    2.8822   -0.1869    0.0000 H   0  0  0  0  0  0  0  0  0  0  0  0
    0.3505    0.3602    0.0000 C   0  0  0  0  0  0  0  0  0  0  0  0
   -0.7610    1.3687    0.0000 C   0  0  0  0  0  0  0  0  0  0  0  0
   -0.4430    2.8346    0.0000 C   0  0  0  0  0  0  0  0  0  0  0  0
   -1.5534    3.8431    0.0000 H   0  0  0  0  0  0  0  0  0  0  0  0
    0.9864    3.2920    0.0000 C   0  0  0  0  0  0  0  0  0  0  0  0
    1.3068    4.7574    0.0000 H   0  0  0  0  0  0  0  0  0  0  0  0
   -2.1894    0.9109    0.0000 F   0  0  0  0  0  0  0  0  0  0  0  0
    0.0350   -1.1062    0.0000 C   0  0  0  0  0  0  0  0  0  0  0  0
    1.0347   -2.2146    0.0000 C   0  0  0  0  0  0  0  0  0  0  0  0
    2.5264   -2.0572    0.0000 H   0  0  0  0  0  0  0  0  0  0  0  0
    0.2847   -3.5137    0.0000 C   0  0  0  0  0  0  0  0  0  0  0  0
   -1.1750   -3.2020    0.0000 C   0  0  0  0  0  0  0  0  0  0  0  0
   -2.2873   -4.2085    0.0000 H   0  0  0  0  0  0  0  0  0  0  0  0
   -1.3408   -1.7091    0.0000 N   0  0  0  0  0  0  0  0  0  0  0  0
   -2.6398   -0.9591    0.0000 S   0  0  0  0  0  0  0  0  0  0  0  0
   -1.6757    0.1899    0.0000 O   0  0  0  0  0  0  0  0  0  0  0  0
   -3.6040    0.1899    0.0000 O   0  0  0  0  0  0  0  0  0  0  0  0
   -4.3546   -1.9491    0.0000 C   0  0  0  0  0  0  0  0  0  0  0  0
   -5.6545   -1.1989    0.0000 C   0  0  0  0  0  0  0  0  0  0  0  0
   -5.6542    0.3011    0.0000 H   0  0  0  0  0  0  0  0  0  0  0  0
   -6.9546   -1.9487    0.0000 C   0  0  0  0  0  0  0  0  0  0  0  0
   -8.2534   -1.1983    0.0000 H   0  0  0  0  0  0  0  0  0  0  0  0
   -6.9548   -3.4487    0.0000 C   0  0  0  0  0  0  0  0  0  0  0  0
   -8.2539   -4.1987    0.0000 H   0  0  0  0  0  0  0  0  0  0  0  0
   -5.6549   -4.1989    0.0000 N   0  0  0  0  0  0  0  0  0  0  0  0
   -4.3548   -3.4491    0.0000 C   0  0  0  0  0  0  0  0  0  0  0  0
   -3.0560   -4.1995    0.0000 H   0  0  0  0  0  0  0  0  0  0  0  0
    0.8942   -4.8842    0.0000 C   0  0  0  0  0  0  0  0  0  0  0  0
   -0.5614   -5.2465    0.0000 H   0  0  0  0  0  0  0  0  0  0  0  0
    0.9982   -6.3806    0.0000 H   0  0  0  0  0  0  0  0  0  0  0  0
    2.3859   -5.0417    0.0000 N   0  0  0  0  0  0  0  0  0  0  0  0
    2.9954   -6.4123    0.0000 H   0  0  0  0  0  0  0  0  0  0  0  0
    3.2681   -3.8286    0.0000 H   0  0  0  0  0  0  0  0  0  0  0  0
  1  2  1  0  0  0  0 
  1  3  2  0  0  0  0 
  3  4  1  0  0  0  0 
  3  5  1  0  0  0  0 
  5  6  2  0  0  0  0 
  6  7  1  0  0  0  0 
  7  8  1  0  0  0  0 
  7  9  2  0  0  0  0 
  1  9  1  0  0  0  0 
  9 10  1  0  0  0  0 
  6 11  1  0  0  0  0 
  5 12  1  0  0  0  0 
 12 13  2  0  0  0  0 
 13 14  1  0  0  0  0 
 13 15  1  0  0  0  0 
 15 16  2  0  0  0  0 
 16 17  1  0  0  0  0 
 16 18  1  0  0  0  0 
 12 18  1  0  0  0  0 
 18 19  1  0  0  0  0 
 19 20  2  0  0  0  0 
 19 21  2  0  0  0  0 
 19 22  1  0  0  0  0 
 22 23  2  0  0  0  0 
 23 24  1  0  0  0  0 
 23 25  1  0  0  0  0 
 25 26  1  0  0  0  0 
 25 27  2  0  0  0  0 
 27 28  1  0  0  0  0 
 27 29  1  0  0  0  0 
 29 30  2  0  0  0  0 
 22 30  1  0  0  0  0 
 30 31  1  0  0  0  0 
 15 32  1  0  0  0  0 
 32 33  1  0  0  0  0 
 32 34  1  0  0  0  0 
 32 35  1  0  0  0  0 
 35 36  1  0  0  0  0 
 35 37  1  0  0  0  0 
M  END
> <Rank>
2

> <Priority_score>
0.516

> <Reaction_type>
N-demethylation_(R-NHCH3)

> <Parent_ID>
39

> <Parent_InChI>
InChI=1S/C17H16FN3O2S/c1-19-10-13-9-17(15-6-2-3-7-16(15)18)21(12-13)24(22,23)14-5-4-8-20-11-14/h2-9,11-12,19H,10H2,1H3

> <Parent_SMILES>
CNCc1cc(-c2ccccc2F)n(S(=O)(=O)c2cccnc2)c1

$$$$
Molecule 39_metabolite 5
  CDK     0516241031

 36 38  0  0  0  0  0  0  0  0999 V2000
    2.0881    2.2856    0.0000 C   0  0  0  0  0  0  0  0  0  0  0  0
    3.5173    2.7410    0.0000 H   0  0  0  0  0  0  0  0  0  0  0  0
    1.7701    0.8197    0.0000 C   0  0  0  0  0  0  0  0  0  0  0  0
    2.8822   -0.1869    0.0000 H   0  0  0  0  0  0  0  0  0  0  0  0
    0.3505    0.3602    0.0000 C   0  0  0  0  0  0  0  0  0  0  0  0
   -0.7610    1.3687    0.0000 C   0  0  0  0  0  0  0  0  0  0  0  0
   -0.4430    2.8346    0.0000 C   0  0  0  0  0  0  0  0  0  0  0  0
   -1.5534    3.8431    0.0000 H   0  0  0  0  0  0  0  0  0  0  0  0
    0.9864    3.2920    0.0000 C   0  0  0  0  0  0  0  0  0  0  0  0
    1.3068    4.7574    0.0000 H   0  0  0  0  0  0  0  0  0  0  0  0
   -2.1894    0.9109    0.0000 F   0  0  0  0  0  0  0  0  0  0  0  0
    0.0350   -1.1062    0.0000 C   0  0  0  0  0  0  0  0  0  0  0  0
    1.0347   -2.2146    0.0000 C   0  0  0  0  0  0  0  0  0  0  0  0
    2.5264   -2.0572    0.0000 H   0  0  0  0  0  0  0  0  0  0  0  0
    0.2847   -3.5137    0.0000 C   0  0  0  0  0  0  0  0  0  0  0  0
   -1.1750   -3.2020    0.0000 C   0  0  0  0  0  0  0  0  0  0  0  0
   -2.2873   -4.2085    0.0000 H   0  0  0  0  0  0  0  0  0  0  0  0
   -1.3408   -1.7091    0.0000 N   0  0  0  0  0  0  0  0  0  0  0  0
   -2.6398   -0.9591    0.0000 S   0  0  0  0  0  0  0  0  0  0  0  0
   -1.6757    0.1899    0.0000 O   0  0  0  0  0  0  0  0  0  0  0  0
   -3.6040    0.1899    0.0000 O   0  0  0  0  0  0  0  0  0  0  0  0
   -4.3546   -1.9491    0.0000 C   0  0  0  0  0  0  0  0  0  0  0  0
   -5.6545   -1.1989    0.0000 C   0  0  0  0  0  0  0  0  0  0  0  0
   -5.6542    0.3011    0.0000 H   0  0  0  0  0  0  0  0  0  0  0  0
   -6.9546   -1.9487    0.0000 C   0  0  0  0  0  0  0  0  0  0  0  0
   -8.2534   -1.1983    0.0000 H   0  0  0  0  0  0  0  0  0  0  0  0
   -6.9548   -3.4487    0.0000 C   0  0  0  0  0  0  0  0  0  0  0  0
   -8.2539   -4.1987    0.0000 H   0  0  0  0  0  0  0  0  0  0  0  0
   -5.6549   -4.1989    0.0000 N   0  0  0  0  0  0  0  0  0  0  0  0
   -4.3548   -3.4491    0.0000 C   0  0  0  0  0  0  0  0  0  0  0  0
   -3.0560   -4.1995    0.0000 H   0  0  0  0  0  0  0  0  0  0  0  0
    0.8942   -4.8842    0.0000 C   0  0  0  0  0  0  0  0  0  0  0  0
   -0.5614   -5.2465    0.0000 H   0  0  0  0  0  0  0  0  0  0  0  0
    0.9982   -6.3806    0.0000 H   0  0  0  0  0  0  0  0  0  0  0  0
    2.3859   -5.0417    0.0000 O   0  0  0  0  0  0  0  0  0  0  0  0
    2.9954   -6.4123    0.0000 H   0  0  0  0  0  0  0  0  0  0  0  0
  1  2  1  0  0  0  0 
  1  3  2  0  0  0  0 
  3  4  1  0  0  0  0 
  3  5  1  0  0  0  0 
  5  6  2  0  0  0  0 
  6  7  1  0  0  0  0 
  7  8  1  0  0  0  0 
  7  9  2  0  0  0  0 
  1  9  1  0  0  0  0 
  9 10  1  0  0  0  0 
  6 11  1  0  0  0  0 
  5 12  1  0  0  0  0 
 12 13  2  0  0  0  0 
 13 14  1  0  0  0  0 
 13 15  1  0  0  0  0 
 15 16  2  0  0  0  0 
 16 17  1  0  0  0  0 
 16 18  1  0  0  0  0 
 12 18  1  0  0  0  0 
 18 19  1  0  0  0  0 
 19 20  2  0  0  0  0 
 19 21  2  0  0  0  0 
 19 22  1  0  0  0  0 
 22 23  2  0  0  0  0 
 23 24  1  0  0  0  0 
 23 25  1  0  0  0  0 
 25 26  1  0  0  0  0 
 25 27  2  0  0  0  0 
 27 28  1  0  0  0  0 
 27 29  1  0  0  0  0 
 29 30  2  0  0  0  0 
 22 30  1  0  0  0  0 
 30 31  1  0  0  0  0 
 15 32  1  0  0  0  0 
 32 33  1  0  0  0  0 
 32 34  1  0  0  0  0 
 32 35  1  0  0  0  0 
 35 36  1  0  0  0  0 
M  END
> <Rank>
2

> <Priority_score>
0.516

> <Reaction_type>
N-dealkylation_(R-NHCH2-alkyl)

> <Parent_ID>
39

> <Parent_InChI>
InChI=1S/C17H16FN3O2S/c1-19-10-13-9-17(15-6-2-3-7-16(15)18)21(12-13)24(22,23)14-5-4-8-20-11-14/h2-9,11-12,19H,10H2,1H3

> <Parent_SMILES>
CNCc1cc(-c2ccccc2F)n(S(=O)(=O)c2cccnc2)c1

$$$$
Molecule 39_metabolite 6
  CDK     0516241031

 41 43  0  0  0  0  0  0  0  0999 V2000
    7.0790    1.7502    0.0000 C   0  0  0  0  0  0  0  0  0  0  0  0
    7.9612    0.5370    0.0000 H   0  0  0  0  0  0  0  0  0  0  0  0
    6.6649    3.1919    0.0000 H   0  0  0  0  0  0  0  0  0  0  0  0
    8.4269    2.4083    0.0000 H   0  0  0  0  0  0  0  0  0  0  0  0
    5.5873    1.5927    0.0000 N   0  0  0  0  0  0  0  0  0  0  0  0
    4.7051    2.8059    0.0000 H   0  0  0  0  0  0  0  0  0  0  0  0
    4.9778    0.2221    0.0000 C   0  0  0  0  0  0  0  0  0  0  0  0
    4.8738   -1.2743    0.0000 H   0  0  0  0  0  0  0  0  0  0  0  0
    6.4334   -0.1401    0.0000 H   0  0  0  0  0  0  0  0  0  0  0  0
    3.4861    0.0647    0.0000 C   0  0  0  0  0  0  0  0  0  0  0  0
    2.4863    1.1731    0.0000 C   0  0  0  0  0  0  0  0  0  0  0  0
    2.8018    2.6395    0.0000 H   0  0  0  0  0  0  0  0  0  0  0  0
    1.1105    0.5702    0.0000 N   0  0  0  0  0  0  0  0  0  0  0  0
    1.2763   -0.9227    0.0000 C   0  0  0  0  0  0  0  0  0  0  0  0
    2.7361   -1.2344    0.0000 C   0  0  0  0  0  0  0  0  0  0  0  0
    3.3456   -2.6049    0.0000 H   0  0  0  0  0  0  0  0  0  0  0  0
    0.1641   -1.9292    0.0000 C   0  0  0  0  0  0  0  0  0  0  0  0
    0.4795   -3.3965    0.0000 C   0  0  0  0  0  0  0  0  0  0  0  0
   -0.6328   -4.4041    0.0000 C   0  0  0  0  0  0  0  0  0  0  0  0
   -0.3168   -5.8704    0.0000 H   0  0  0  0  0  0  0  0  0  0  0  0
   -2.0606   -3.9443    0.0000 C   0  0  0  0  0  0  0  0  0  0  0  0
   -2.3761   -2.4770    0.0000 C   0  0  0  0  0  0  0  0  0  0  0  0
   -3.8039   -2.0173    0.0000 H   0  0  0  0  0  0  0  0  0  0  0  0
   -1.2637   -1.4695    0.0000 C   0  0  0  0  0  0  0  0  0  0  0  0
   -1.5797   -0.0031    0.0000 H   0  0  0  0  0  0  0  0  0  0  0  0
   -3.1728   -4.9508    0.0000 O   0  0  0  0  0  0  0  0  0  0  0  0
   -4.6006   -4.4908    0.0000 H   0  0  0  0  0  0  0  0  0  0  0  0
    1.9074   -3.8562    0.0000 F   0  0  0  0  0  0  0  0  0  0  0  0
   -0.1885    1.3202    0.0000 S   0  0  0  0  0  0  0  0  0  0  0  0
   -1.6657    1.5806    0.0000 O   0  0  0  0  0  0  0  0  0  0  0  0
   -0.7015   -0.0894    0.0000 O   0  0  0  0  0  0  0  0  0  0  0  0
   -0.1885    3.3002    0.0000 C   0  0  0  0  0  0  0  0  0  0  0  0
    1.1111    4.0508    0.0000 C   0  0  0  0  0  0  0  0  0  0  0  0
    2.4101    3.3006    0.0000 H   0  0  0  0  0  0  0  0  0  0  0  0
    1.1119    5.5516    0.0000 C   0  0  0  0  0  0  0  0  0  0  0  0
    2.4111    6.3012    0.0000 H   0  0  0  0  0  0  0  0  0  0  0  0
   -0.1871    6.3018    0.0000 C   0  0  0  0  0  0  0  0  0  0  0  0
   -0.1871    7.8018    0.0000 H   0  0  0  0  0  0  0  0  0  0  0  0
   -1.4867    5.5512    0.0000 N   0  0  0  0  0  0  0  0  0  0  0  0
   -1.4874    4.0504    0.0000 C   0  0  0  0  0  0  0  0  0  0  0  0
   -2.7867    3.3008    0.0000 H   0  0  0  0  0  0  0  0  0  0  0  0
  1  2  1  0  0  0  0 
  1  3  1  0  0  0  0 
  1  4  1  0  0  0  0 
  1  5  1  0  0  0  0 
  5  6  1  0  0  0  0 
  5  7  1  0  0  0  0 
  7  8  1  0  0  0  0 
  7  9  1  0  0  0  0 
  7 10  1  0  0  0  0 
 10 11  2  0  0  0  0 
 11 12  1  0  0  0  0 
 11 13  1  0  0  0  0 
 13 14  1  0  0  0  0 
 14 15  2  0  0  0  0 
 10 15  1  0  0  0  0 
 15 16  1  0  0  0  0 
 14 17  1  0  0  0  0 
 17 18  2  0  0  0  0 
 18 19  1  0  0  0  0 
 19 20  1  0  0  0  0 
 19 21  2  0  0  0  0 
 21 22  1  0  0  0  0 
 22 23  1  0  0  0  0 
 22 24  2  0  0  0  0 
 17 24  1  0  0  0  0 
 24 25  1  0  0  0  0 
 21 26  1  0  0  0  0 
 26 27  1  0  0  0  0 
 18 28  1  0  0  0  0 
 13 29  1  0  0  0  0 
 29 30  2  0  0  0  0 
 29 31  2  0  0  0  0 
 29 32  1  0  0  0  0 
 32 33  2  0  0  0  0 
 33 34  1  0  0  0  0 
 33 35  1  0  0  0  0 
 35 36  1  0  0  0  0 
 35 37  2  0  0  0  0 
 37 38  1  0  0  0  0 
 37 39  1  0  0  0  0 
 39 40  2  0  0  0  0 
 32 40  1  0  0  0  0 
 40 41  1  0  0  0  0 
M  END
> <Rank>
6

> <Priority_score>
0.2677658717869309

> <Reaction_type>
aromatic_hydroxylation_(para_to_carbon)

> <Parent_ID>
39

> <Parent_InChI>
InChI=1S/C17H16FN3O2S/c1-19-10-13-9-17(15-6-2-3-7-16(15)18)21(12-13)24(22,23)14-5-4-8-20-11-14/h2-9,11-12,19H,10H2,1H3

> <Parent_SMILES>
CNCc1cc(-c2ccccc2F)n(S(=O)(=O)c2cccnc2)c1

$$$$
Molecule 39_metabolite 7
  CDK     0516241031

 41 43  0  0  0  0  0  0  0  0999 V2000
    5.7308   -4.4098    0.0000 C   0  0  0  0  0  0  0  0  0  0  0  0
    5.1213   -5.7804    0.0000 H   0  0  0  0  0  0  0  0  0  0  0  0
    6.7723   -3.3304    0.0000 H   0  0  0  0  0  0  0  0  0  0  0  0
    6.9747   -5.2481    0.0000 H   0  0  0  0  0  0  0  0  0  0  0  0
    4.8486   -3.1967    0.0000 N   0  0  0  0  0  0  0  0  0  0  0  0
    5.4581   -1.8261    0.0000 H   0  0  0  0  0  0  0  0  0  0  0  0
    3.3569   -3.3541    0.0000 C   0  0  0  0  0  0  0  0  0  0  0  0
    2.0090   -4.0123    0.0000 H   0  0  0  0  0  0  0  0  0  0  0  0
    3.7710   -4.7959    0.0000 H   0  0  0  0  0  0  0  0  0  0  0  0
    2.4746   -2.1410    0.0000 C   0  0  0  0  0  0  0  0  0  0  0  0
    2.9346   -0.7210    0.0000 C   0  0  0  0  0  0  0  0  0  0  0  0
    4.3624   -0.2610    0.0000 H   0  0  0  0  0  0  0  0  0  0  0  0
    1.7246    0.1690    0.0000 N   0  0  0  0  0  0  0  0  0  0  0  0
    0.5146   -0.7210    0.0000 C   0  0  0  0  0  0  0  0  0  0  0  0
    0.9746   -2.1410    0.0000 C   0  0  0  0  0  0  0  0  0  0  0  0
    0.0924   -3.3541    0.0000 H   0  0  0  0  0  0  0  0  0  0  0  0
   -0.9131   -0.2610    0.0000 C   0  0  0  0  0  0  0  0  0  0  0  0
   -2.0261   -1.2679    0.0000 C   0  0  0  0  0  0  0  0  0  0  0  0
   -3.4548   -0.8083    0.0000 C   0  0  0  0  0  0  0  0  0  0  0  0
   -4.5667   -1.8152    0.0000 H   0  0  0  0  0  0  0  0  0  0  0  0
   -3.7706    0.6580    0.0000 C   0  0  0  0  0  0  0  0  0  0  0  0
   -5.1983    1.1180    0.0000 H   0  0  0  0  0  0  0  0  0  0  0  0
   -2.6576    1.6649    0.0000 C   0  0  0  0  0  0  0  0  0  0  0  0
   -1.2288    1.2054    0.0000 C   0  0  0  0  0  0  0  0  0  0  0  0
   -0.1169    2.2122    0.0000 H   0  0  0  0  0  0  0  0  0  0  0  0
   -2.9733    3.1313    0.0000 O   0  0  0  0  0  0  0  0  0  0  0  0
   -4.4012    3.5910    0.0000 H   0  0  0  0  0  0  0  0  0  0  0  0
   -1.7103   -2.7343    0.0000 F   0  0  0  0  0  0  0  0  0  0  0  0
    1.7246    1.6690    0.0000 S   0  0  0  0  0  0  0  0  0  0  0  0
    1.2116    3.0785    0.0000 O   0  0  0  0  0  0  0  0  0  0  0  0
    0.2474    1.4085    0.0000 O   0  0  0  0  0  0  0  0  0  0  0  0
    3.4394    2.6590    0.0000 C   0  0  0  0  0  0  0  0  0  0  0  0
    4.7393    1.9088    0.0000 C   0  0  0  0  0  0  0  0  0  0  0  0
    4.7390    0.4088    0.0000 H   0  0  0  0  0  0  0  0  0  0  0  0
    6.0394    2.6586    0.0000 C   0  0  0  0  0  0  0  0  0  0  0  0
    7.3382    1.9082    0.0000 H   0  0  0  0  0  0  0  0  0  0  0  0
    6.0396    4.1586    0.0000 C   0  0  0  0  0  0  0  0  0  0  0  0
    7.3387    4.9086    0.0000 H   0  0  0  0  0  0  0  0  0  0  0  0
    4.7397    4.9088    0.0000 N   0  0  0  0  0  0  0  0  0  0  0  0
    3.4396    4.1590    0.0000 C   0  0  0  0  0  0  0  0  0  0  0  0
    2.1408    4.9094    0.0000 H   0  0  0  0  0  0  0  0  0  0  0  0
  1  2  1  0  0  0  0 
  1  3  1  0  0  0  0 
  1  4  1  0  0  0  0 
  1  5  1  0  0  0  0 
  5  6  1  0  0  0  0 
  5  7  1  0  0  0  0 
  7  8  1  0  0  0  0 
  7  9  1  0  0  0  0 
  7 10  1  0  0  0  0 
 10 11  2  0  0  0  0 
 11 12  1  0  0  0  0 
 11 13  1  0  0  0  0 
 13 14  1  0  0  0  0 
 14 15  2  0  0  0  0 
 10 15  1  0  0  0  0 
 15 16  1  0  0  0  0 
 14 17  1  0  0  0  0 
 17 18  2  0  0  0  0 
 18 19  1  0  0  0  0 
 19 20  1  0  0  0  0 
 19 21  2  0  0  0  0 
 21 22  1  0  0  0  0 
 21 23  1  0  0  0  0 
 23 24  2  0  0  0  0 
 17 24  1  0  0  0  0 
 24 25  1  0  0  0  0 
 23 26  1  0  0  0  0 
 26 27  1  0  0  0  0 
 18 28  1  0  0  0  0 
 13 29  1  0  0  0  0 
 29 30  2  0  0  0  0 
 29 31  2  0  0  0  0 
 29 32  1  0  0  0  0 
 32 33  2  0  0  0  0 
 33 34  1  0  0  0  0 
 33 35  1  0  0  0  0 
 35 36  1  0  0  0  0 
 35 37  2  0  0  0  0 
 37 38  1  0  0  0  0 
 37 39  1  0  0  0  0 
 39 40  2  0  0  0  0 
 32 40  1  0  0  0  0 
 40 41  1  0  0  0  0 
M  END
> <Rank>
6

> <Priority_score>
0.2677658717869309

> <Reaction_type>
aromatic_hydroxylation_(meta_to_carbon)

> <Parent_ID>
39

> <Parent_InChI>
InChI=1S/C17H16FN3O2S/c1-19-10-13-9-17(15-6-2-3-7-16(15)18)21(12-13)24(22,23)14-5-4-8-20-11-14/h2-9,11-12,19H,10H2,1H3

> <Parent_SMILES>
CNCc1cc(-c2ccccc2F)n(S(=O)(=O)c2cccnc2)c1

$$$$
Molecule 39_metabolite 8
  CDK     0516241031

 41 43  0  0  0  0  0  0  0  0999 V2000
    6.5271   -4.4098    0.0000 C   0  0  0  0  0  0  0  0  0  0  0  0
    5.9176   -5.7804    0.0000 H   0  0  0  0  0  0  0  0  0  0  0  0
    7.5686   -3.3304    0.0000 H   0  0  0  0  0  0  0  0  0  0  0  0
    7.7710   -5.2481    0.0000 H   0  0  0  0  0  0  0  0  0  0  0  0
    5.6449   -3.1967    0.0000 N   0  0  0  0  0  0  0  0  0  0  0  0
    6.2544   -1.8261    0.0000 H   0  0  0  0  0  0  0  0  0  0  0  0
    4.1531   -3.3541    0.0000 C   0  0  0  0  0  0  0  0  0  0  0  0
    2.8052   -4.0123    0.0000 H   0  0  0  0  0  0  0  0  0  0  0  0
    4.5672   -4.7959    0.0000 H   0  0  0  0  0  0  0  0  0  0  0  0
    3.2709   -2.1410    0.0000 C   0  0  0  0  0  0  0  0  0  0  0  0
    3.7309   -0.7210    0.0000 C   0  0  0  0  0  0  0  0  0  0  0  0
    5.1587   -0.2610    0.0000 H   0  0  0  0  0  0  0  0  0  0  0  0
    2.5209    0.1690    0.0000 N   0  0  0  0  0  0  0  0  0  0  0  0
    1.3109   -0.7210    0.0000 C   0  0  0  0  0  0  0  0  0  0  0  0
    1.7709   -2.1410    0.0000 C   0  0  0  0  0  0  0  0  0  0  0  0
    0.8887   -3.3541    0.0000 H   0  0  0  0  0  0  0  0  0  0  0  0
   -0.1168   -0.2610    0.0000 C   0  0  0  0  0  0  0  0  0  0  0  0
   -1.2298   -1.2679    0.0000 C   0  0  0  0  0  0  0  0  0  0  0  0
   -2.6585   -0.8083    0.0000 C   0  0  0  0  0  0  0  0  0  0  0  0
   -2.9743    0.6580    0.0000 C   0  0  0  0  0  0  0  0  0  0  0  0
   -4.4020    1.1180    0.0000 H   0  0  0  0  0  0  0  0  0  0  0  0
   -1.8613    1.6649    0.0000 C   0  0  0  0  0  0  0  0  0  0  0  0
   -2.1771    3.1313    0.0000 H   0  0  0  0  0  0  0  0  0  0  0  0
   -0.4326    1.2054    0.0000 C   0  0  0  0  0  0  0  0  0  0  0  0
    0.6793    2.2122    0.0000 H   0  0  0  0  0  0  0  0  0  0  0  0
   -3.7704   -1.8152    0.0000 O   0  0  0  0  0  0  0  0  0  0  0  0
   -5.1983   -1.3557    0.0000 H   0  0  0  0  0  0  0  0  0  0  0  0
   -0.9140   -2.7343    0.0000 F   0  0  0  0  0  0  0  0  0  0  0  0
    2.5209    1.6690    0.0000 S   0  0  0  0  0  0  0  0  0  0  0  0
    2.0079    3.0785    0.0000 O   0  0  0  0  0  0  0  0  0  0  0  0
    1.0437    1.4085    0.0000 O   0  0  0  0  0  0  0  0  0  0  0  0
    4.2357    2.6590    0.0000 C   0  0  0  0  0  0  0  0  0  0  0  0
    5.5355    1.9088    0.0000 C   0  0  0  0  0  0  0  0  0  0  0  0
    5.5353    0.4088    0.0000 H   0  0  0  0  0  0  0  0  0  0  0  0
    6.8357    2.6586    0.0000 C   0  0  0  0  0  0  0  0  0  0  0  0
    8.1345    1.9082    0.0000 H   0  0  0  0  0  0  0  0  0  0  0  0
    6.8359    4.1586    0.0000 C   0  0  0  0  0  0  0  0  0  0  0  0
    8.1349    4.9086    0.0000 H   0  0  0  0  0  0  0  0  0  0  0  0
    5.5360    4.9088    0.0000 N   0  0  0  0  0  0  0  0  0  0  0  0
    4.2359    4.1590    0.0000 C   0  0  0  0  0  0  0  0  0  0  0  0
    2.9371    4.9094    0.0000 H   0  0  0  0  0  0  0  0  0  0  0  0
  1  2  1  0  0  0  0 
  1  3  1  0  0  0  0 
  1  4  1  0  0  0  0 
  1  5  1  0  0  0  0 
  5  6  1  0  0  0  0 
  5  7  1  0  0  0  0 
  7  8  1  0  0  0  0 
  7  9  1  0  0  0  0 
  7 10  1  0  0  0  0 
 10 11  2  0  0  0  0 
 11 12  1  0  0  0  0 
 11 13  1  0  0  0  0 
 13 14  1  0  0  0  0 
 14 15  2  0  0  0  0 
 10 15  1  0  0  0  0 
 15 16  1  0  0  0  0 
 14 17  1  0  0  0  0 
 17 18  2  0  0  0  0 
 18 19  1  0  0  0  0 
 19 20  2  0  0  0  0 
 20 21  1  0  0  0  0 
 20 22  1  0  0  0  0 
 22 23  1  0  0  0  0 
 22 24  2  0  0  0  0 
 17 24  1  0  0  0  0 
 24 25  1  0  0  0  0 
 19 26  1  0  0  0  0 
 26 27  1  0  0  0  0 
 18 28  1  0  0  0  0 
 13 29  1  0  0  0  0 
 29 30  2  0  0  0  0 
 29 31  2  0  0  0  0 
 29 32  1  0  0  0  0 
 32 33  2  0  0  0  0 
 33 34  1  0  0  0  0 
 33 35  1  0  0  0  0 
 35 36  1  0  0  0  0 
 35 37  2  0  0  0  0 
 37 38  1  0  0  0  0 
 37 39  1  0  0  0  0 
 39 40  2  0  0  0  0 
 32 40  1  0  0  0  0 
 40 41  1  0  0  0  0 
M  END
> <Rank>
6

> <Priority_score>
0.2677658717869309

> <Reaction_type>
aromatic_hydroxylation_(meta_to_carbon)

> <Parent_ID>
39

> <Parent_InChI>
InChI=1S/C17H16FN3O2S/c1-19-10-13-9-17(15-6-2-3-7-16(15)18)21(12-13)24(22,23)14-5-4-8-20-11-14/h2-9,11-12,19H,10H2,1H3

> <Parent_SMILES>
CNCc1cc(-c2ccccc2F)n(S(=O)(=O)c2cccnc2)c1

$$$$
Molecule 39_metabolite 9
  CDK     0516241031

 34 36  0  0  0  0  0  0  0  0999 V2000
    2.6134    1.3758    0.0000 C   0  0  0  0  0  0  0  0  0  0  0  0
    4.0426    1.8312    0.0000 H   0  0  0  0  0  0  0  0  0  0  0  0
    2.2954   -0.0902    0.0000 C   0  0  0  0  0  0  0  0  0  0  0  0
    3.4075   -1.0968    0.0000 H   0  0  0  0  0  0  0  0  0  0  0  0
    0.8758   -0.5497    0.0000 C   0  0  0  0  0  0  0  0  0  0  0  0
   -0.2357    0.4589    0.0000 C   0  0  0  0  0  0  0  0  0  0  0  0
    0.0823    1.9248    0.0000 C   0  0  0  0  0  0  0  0  0  0  0  0
   -1.0281    2.9333    0.0000 H   0  0  0  0  0  0  0  0  0  0  0  0
    1.5117    2.3822    0.0000 C   0  0  0  0  0  0  0  0  0  0  0  0
    1.8322    3.8475    0.0000 H   0  0  0  0  0  0  0  0  0  0  0  0
   -1.6641    0.0011    0.0000 F   0  0  0  0  0  0  0  0  0  0  0  0
    0.5603   -2.0161    0.0000 C   0  0  0  0  0  0  0  0  0  0  0  0
    1.5600   -3.1245    0.0000 C   0  0  0  0  0  0  0  0  0  0  0  0
    3.0517   -2.9670    0.0000 H   0  0  0  0  0  0  0  0  0  0  0  0
    0.8100   -4.4235    0.0000 C   0  0  0  0  0  0  0  0  0  0  0  0
   -0.6497   -4.1119    0.0000 C   0  0  0  0  0  0  0  0  0  0  0  0
   -1.7620   -5.1183    0.0000 H   0  0  0  0  0  0  0  0  0  0  0  0
   -0.8155   -2.6190    0.0000 N   0  0  0  0  0  0  0  0  0  0  0  0
   -2.1145   -1.8690    0.0000 S   0  0  0  0  0  0  0  0  0  0  0  0
   -1.1504   -0.7199    0.0000 O   0  0  0  0  0  0  0  0  0  0  0  0
   -3.0787   -0.7199    0.0000 O   0  0  0  0  0  0  0  0  0  0  0  0
   -3.8293   -2.8590    0.0000 C   0  0  0  0  0  0  0  0  0  0  0  0
   -5.1292   -2.1088    0.0000 C   0  0  0  0  0  0  0  0  0  0  0  0
   -5.1289   -0.6088    0.0000 H   0  0  0  0  0  0  0  0  0  0  0  0
   -6.4293   -2.8586    0.0000 C   0  0  0  0  0  0  0  0  0  0  0  0
   -7.7281   -2.1082    0.0000 H   0  0  0  0  0  0  0  0  0  0  0  0
   -6.4295   -4.3586    0.0000 C   0  0  0  0  0  0  0  0  0  0  0  0
   -7.7286   -5.1086    0.0000 H   0  0  0  0  0  0  0  0  0  0  0  0
   -5.1296   -5.1088    0.0000 N   0  0  0  0  0  0  0  0  0  0  0  0
   -3.8295   -4.3590    0.0000 C   0  0  0  0  0  0  0  0  0  0  0  0
   -2.5307   -5.1094    0.0000 H   0  0  0  0  0  0  0  0  0  0  0  0
    1.4195   -5.7941    0.0000 C   0  0  0  0  0  0  0  0  0  0  0  0
    2.9112   -5.9515    0.0000 H   0  0  0  0  0  0  0  0  0  0  0  0
    0.5373   -7.0072    0.0000 O   0  0  0  0  0  0  0  0  0  0  0  0
  1  2  1  0  0  0  0 
  1  3  2  0  0  0  0 
  3  4  1  0  0  0  0 
  3  5  1  0  0  0  0 
  5  6  2  0  0  0  0 
  6  7  1  0  0  0  0 
  7  8  1  0  0  0  0 
  7  9  2  0  0  0  0 
  1  9  1  0  0  0  0 
  9 10  1  0  0  0  0 
  6 11  1  0  0  0  0 
  5 12  1  0  0  0  0 
 12 13  2  0  0  0  0 
 13 14  1  0  0  0  0 
 13 15  1  0  0  0  0 
 15 16  2  0  0  0  0 
 16 17  1  0  0  0  0 
 16 18  1  0  0  0  0 
 12 18  1  0  0  0  0 
 18 19  1  0  0  0  0 
 19 20  2  0  0  0  0 
 19 21  2  0  0  0  0 
 19 22  1  0  0  0  0 
 22 23  2  0  0  0  0 
 23 24  1  0  0  0  0 
 23 25  1  0  0  0  0 
 25 26  1  0  0  0  0 
 25 27  2  0  0  0  0 
 27 28  1  0  0  0  0 
 27 29  1  0  0  0  0 
 29 30  2  0  0  0  0 
 22 30  1  0  0  0  0 
 30 31  1  0  0  0  0 
 15 32  1  0  0  0  0 
 32 33  1  0  0  0  0 
 32 34  2  0  0  0  0 
M  END
> <Rank>
9

> <Priority_score>
0.256

> <Reaction_type>
N-dealkylation

> <Parent_ID>
39

> <Parent_InChI>
InChI=1S/C17H16FN3O2S/c1-19-10-13-9-17(15-6-2-3-7-16(15)18)21(12-13)24(22,23)14-5-4-8-20-11-14/h2-9,11-12,19H,10H2,1H3

> <Parent_SMILES>
CNCc1cc(-c2ccccc2F)n(S(=O)(=O)c2cccnc2)c1

$$$$
Molecule 39_metabolite 10
  CDK     0516241031

 41 43  0  0  0  0  0  0  0  0999 V2000
    7.4878    0.4868    0.0000 C   0  0  0  0  0  0  0  0  0  0  0  0
    8.3700   -0.7263    0.0000 H   0  0  0  0  0  0  0  0  0  0  0  0
    7.0737    1.9285    0.0000 H   0  0  0  0  0  0  0  0  0  0  0  0
    8.8357    1.1450    0.0000 H   0  0  0  0  0  0  0  0  0  0  0  0
    5.9960    0.3293    0.0000 N   0  0  0  0  0  0  0  0  0  0  0  0
    5.1138    1.5425    0.0000 H   0  0  0  0  0  0  0  0  0  0  0  0
    5.3865   -1.0412    0.0000 C   0  0  0  0  0  0  0  0  0  0  0  0
    5.2826   -2.5376    0.0000 H   0  0  0  0  0  0  0  0  0  0  0  0
    6.8421   -1.4035    0.0000 H   0  0  0  0  0  0  0  0  0  0  0  0
    3.8948   -1.1987    0.0000 C   0  0  0  0  0  0  0  0  0  0  0  0
    2.8951   -0.0903    0.0000 C   0  0  0  0  0  0  0  0  0  0  0  0
    3.2106    1.3761    0.0000 H   0  0  0  0  0  0  0  0  0  0  0  0
    1.5193   -0.6932    0.0000 N   0  0  0  0  0  0  0  0  0  0  0  0
    1.6851   -2.1861    0.0000 C   0  0  0  0  0  0  0  0  0  0  0  0
    3.1448   -2.4977    0.0000 C   0  0  0  0  0  0  0  0  0  0  0  0
    3.7543   -3.8683    0.0000 H   0  0  0  0  0  0  0  0  0  0  0  0
    0.5729   -3.1926    0.0000 C   0  0  0  0  0  0  0  0  0  0  0  0
    0.8866   -4.6602    0.0000 C   0  0  0  0  0  0  0  0  0  0  0  0
   -0.2273   -5.6649    0.0000 C   0  0  0  0  0  0  0  0  0  0  0  0
    0.0855   -7.1319    0.0000 H   0  0  0  0  0  0  0  0  0  0  0  0
   -1.6549   -5.2018    0.0000 C   0  0  0  0  0  0  0  0  0  0  0  0
   -2.7705   -6.2045    0.0000 H   0  0  0  0  0  0  0  0  0  0  0  0
   -1.9620   -3.7415    0.0000 C   0  0  0  0  0  0  0  0  0  0  0  0
   -3.3882   -3.2770    0.0000 H   0  0  0  0  0  0  0  0  0  0  0  0
   -0.8481   -2.7369    0.0000 C   0  0  0  0  0  0  0  0  0  0  0  0
   -1.1633   -1.2704    0.0000 H   0  0  0  0  0  0  0  0  0  0  0  0
    2.3136   -5.1224    0.0000 F   0  0  0  0  0  0  0  0  0  0  0  0
    0.2203    0.0568    0.0000 S   0  0  0  0  0  0  0  0  0  0  0  0
   -1.2569    0.3173    0.0000 O   0  0  0  0  0  0  0  0  0  0  0  0
   -0.2928   -1.3527    0.0000 O   0  0  0  0  0  0  0  0  0  0  0  0
    0.2203    2.0368    0.0000 C   0  0  0  0  0  0  0  0  0  0  0  0
    1.5199    2.7874    0.0000 C   0  0  0  0  0  0  0  0  0  0  0  0
    2.8188    2.0372    0.0000 H   0  0  0  0  0  0  0  0  0  0  0  0
    1.5206    4.2882    0.0000 C   0  0  0  0  0  0  0  0  0  0  0  0
    2.8199    5.0378    0.0000 H   0  0  0  0  0  0  0  0  0  0  0  0
    0.2217    5.0385    0.0000 C   0  0  0  0  0  0  0  0  0  0  0  0
    0.2217    6.5385    0.0000 H   0  0  0  0  0  0  0  0  0  0  0  0
   -1.0779    4.2878    0.0000 N   0  0  0  0  0  0  0  0  0  0  0  0
   -1.0786    2.7870    0.0000 C   0  0  0  0  0  0  0  0  0  0  0  0
   -2.3779    2.0374    0.0000 H   0  0  0  0  0  0  0  0  0  0  0  0
   -2.3768    5.0380    0.0000 O   0  0  0  0  0  0  0  0  0  0  0  0
  1  2  1  0  0  0  0 
  1  3  1  0  0  0  0 
  1  4  1  0  0  0  0 
  1  5  1  0  0  0  0 
  5  6  1  0  0  0  0 
  5  7  1  0  0  0  0 
  7  8  1  0  0  0  0 
  7  9  1  0  0  0  0 
  7 10  1  0  0  0  0 
 10 11  2  0  0  0  0 
 11 12  1  0  0  0  0 
 11 13  1  0  0  0  0 
 13 14  1  0  0  0  0 
 14 15  2  0  0  0  0 
 10 15  1  0  0  0  0 
 15 16  1  0  0  0  0 
 14 17  1  0  0  0  0 
 17 18  2  0  0  0  0 
 18 19  1  0  0  0  0 
 19 20  1  0  0  0  0 
 19 21  2  0  0  0  0 
 21 22  1  0  0  0  0 
 21 23  1  0  0  0  0 
 23 24  1  0  0  0  0 
 23 25  2  0  0  0  0 
 17 25  1  0  0  0  0 
 25 26  1  0  0  0  0 
 18 27  1  0  0  0  0 
 13 28  1  0  0  0  0 
 28 29  2  0  0  0  0 
 28 30  2  0  0  0  0 
 28 31  1  0  0  0  0 
 31 32  2  0  0  0  0 
 32 33  1  0  0  0  0 
 32 34  1  0  0  0  0 
 34 35  1  0  0  0  0 
 34 36  2  0  0  0  0 
 36 37  1  0  0  0  0 
 36 38  1  0  0  0  0 
 38 39  2  0  0  0  0 
 31 39  1  0  0  0  0 
 39 40  1  0  0  0  0 
 38 41  1  0  0  0  0 
M  CHG  1  38   1
M  CHG  1  41  -1
M  END
> <Rank>
10

> <Priority_score>
0.24355763604447045

> <Reaction_type>
N-oxidation_(-N=)

> <Parent_ID>
39

> <Parent_InChI>
InChI=1S/C17H16FN3O2S/c1-19-10-13-9-17(15-6-2-3-7-16(15)18)21(12-13)24(22,23)14-5-4-8-20-11-14/h2-9,11-12,19H,10H2,1H3

> <Parent_SMILES>
CNCc1cc(-c2ccccc2F)n(S(=O)(=O)c2cccnc2)c1

$$$$
Molecule 39_metabolite 11
  CDK     0516241031

 41 43  0  0  0  0  0  0  0  0999 V2000
    6.7974    1.6825    0.0000 C   0  0  0  0  0  0  0  0  0  0  0  0
    7.6796    0.4694    0.0000 H   0  0  0  0  0  0  0  0  0  0  0  0
    6.3833    3.1242    0.0000 H   0  0  0  0  0  0  0  0  0  0  0  0
    8.1453    2.3407    0.0000 H   0  0  0  0  0  0  0  0  0  0  0  0
    5.3057    1.5251    0.0000 N   0  0  0  0  0  0  0  0  0  0  0  0
    4.4235    2.7382    0.0000 H   0  0  0  0  0  0  0  0  0  0  0  0
    4.6962    0.1545    0.0000 C   0  0  0  0  0  0  0  0  0  0  0  0
    4.5922   -1.3419    0.0000 H   0  0  0  0  0  0  0  0  0  0  0  0
    3.2045   -0.0030    0.0000 C   0  0  0  0  0  0  0  0  0  0  0  0
    2.2047    1.1054    0.0000 C   0  0  0  0  0  0  0  0  0  0  0  0
    2.5202    2.5718    0.0000 H   0  0  0  0  0  0  0  0  0  0  0  0
    0.8290    0.5025    0.0000 N   0  0  0  0  0  0  0  0  0  0  0  0
    0.9947   -0.9904    0.0000 C   0  0  0  0  0  0  0  0  0  0  0  0
    2.4545   -1.3020    0.0000 C   0  0  0  0  0  0  0  0  0  0  0  0
    3.0640   -2.6726    0.0000 H   0  0  0  0  0  0  0  0  0  0  0  0
   -0.1175   -1.9969    0.0000 C   0  0  0  0  0  0  0  0  0  0  0  0
    0.1962   -3.4645    0.0000 C   0  0  0  0  0  0  0  0  0  0  0  0
   -0.9177   -4.4691    0.0000 C   0  0  0  0  0  0  0  0  0  0  0  0
   -0.6049   -5.9362    0.0000 H   0  0  0  0  0  0  0  0  0  0  0  0
   -2.3453   -4.0061    0.0000 C   0  0  0  0  0  0  0  0  0  0  0  0
   -3.4609   -5.0088    0.0000 H   0  0  0  0  0  0  0  0  0  0  0  0
   -2.6523   -2.5458    0.0000 C   0  0  0  0  0  0  0  0  0  0  0  0
   -4.0786   -2.0813    0.0000 H   0  0  0  0  0  0  0  0  0  0  0  0
   -1.5384   -1.5412    0.0000 C   0  0  0  0  0  0  0  0  0  0  0  0
   -1.8537   -0.0747    0.0000 H   0  0  0  0  0  0  0  0  0  0  0  0
    1.6233   -3.9267    0.0000 F   0  0  0  0  0  0  0  0  0  0  0  0
   -0.4701    1.2525    0.0000 S   0  0  0  0  0  0  0  0  0  0  0  0
   -1.9473    1.5130    0.0000 O   0  0  0  0  0  0  0  0  0  0  0  0
   -0.9831   -0.1570    0.0000 O   0  0  0  0  0  0  0  0  0  0  0  0
   -0.4701    3.2325    0.0000 C   0  0  0  0  0  0  0  0  0  0  0  0
    0.8296    3.9831    0.0000 C   0  0  0  0  0  0  0  0  0  0  0  0
    2.1285    3.2329    0.0000 H   0  0  0  0  0  0  0  0  0  0  0  0
    0.8303    5.4840    0.0000 C   0  0  0  0  0  0  0  0  0  0  0  0
    2.1296    6.2335    0.0000 H   0  0  0  0  0  0  0  0  0  0  0  0
   -0.4686    6.2342    0.0000 C   0  0  0  0  0  0  0  0  0  0  0  0
   -0.4686    7.7342    0.0000 H   0  0  0  0  0  0  0  0  0  0  0  0
   -1.7683    5.4835    0.0000 N   0  0  0  0  0  0  0  0  0  0  0  0
   -1.7690    3.9827    0.0000 C   0  0  0  0  0  0  0  0  0  0  0  0
   -3.0683    3.2331    0.0000 H   0  0  0  0  0  0  0  0  0  0  0  0
    6.1518   -0.2078    0.0000 O   0  0  0  0  0  0  0  0  0  0  0  0
    6.5659   -1.6495    0.0000 H   0  0  0  0  0  0  0  0  0  0  0  0
  1  2  1  0  0  0  0 
  1  3  1  0  0  0  0 
  1  4  1  0  0  0  0 
  1  5  1  0  0  0  0 
  5  6  1  0  0  0  0 
  5  7  1  0  0  0  0 
  7  8  1  0  0  0  0 
  7  9  1  0  0  0  0 
  9 10  2  0  0  0  0 
 10 11  1  0  0  0  0 
 10 12  1  0  0  0  0 
 12 13  1  0  0  0  0 
 13 14  2  0  0  0  0 
  9 14  1  0  0  0  0 
 14 15  1  0  0  0  0 
 13 16  1  0  0  0  0 
 16 17  2  0  0  0  0 
 17 18  1  0  0  0  0 
 18 19  1  0  0  0  0 
 18 20  2  0  0  0  0 
 20 21  1  0  0  0  0 
 20 22  1  0  0  0  0 
 22 23  1  0  0  0  0 
 22 24  2  0  0  0  0 
 16 24  1  0  0  0  0 
 24 25  1  0  0  0  0 
 17 26  1  0  0  0  0 
 12 27  1  0  0  0  0 
 27 28  2  0  0  0  0 
 27 29  2  0  0  0  0 
 27 30  1  0  0  0  0 
 30 31  2  0  0  0  0 
 31 32  1  0  0  0  0 
 31 33  1  0  0  0  0 
 33 34  1  0  0  0  0 
 33 35  2  0  0  0  0 
 35 36  1  0  0  0  0 
 35 37  1  0  0  0  0 
 37 38  2  0  0  0  0 
 30 38  1  0  0  0  0 
 38 39  1  0  0  0  0 
  7 40  1  0  0  0  0 
 40 41  1  0  0  0  0 
M  END
> <Rank>
11

> <Priority_score>
0.2433235078314014

> <Reaction_type>
aliphatic hydroxylation

> <Parent_ID>
39

> <Parent_InChI>
InChI=1S/C17H16FN3O2S/c1-19-10-13-9-17(15-6-2-3-7-16(15)18)21(12-13)24(22,23)14-5-4-8-20-11-14/h2-9,11-12,19H,10H2,1H3

> <Parent_SMILES>
CNCc1cc(-c2ccccc2F)n(S(=O)(=O)c2cccnc2)c1

$$$$
Molecule 39_metabolite 12
  CDK     0516241031

 61 64  0  0  0  0  0  0  0  0999 V2000
   -0.2673  -10.4437    0.0000 C   0  0  0  0  0  0  0  0  0  0  0  0
    1.2244  -10.6016    0.0000 H   0  0  0  0  0  0  0  0  0  0  0  0
   -1.7230  -10.8055    0.0000 H   0  0  0  0  0  0  0  0  0  0  0  0
   -0.1638  -11.9401    0.0000 H   0  0  0  0  0  0  0  0  0  0  0  0
   -0.8764   -9.0729    0.0000 N   0  0  0  0  0  0  0  0  0  0  0  0
   -2.3680   -8.9150    0.0000 H   0  0  0  0  0  0  0  0  0  0  0  0
    0.0062   -7.8600    0.0000 C   0  0  0  0  0  0  0  0  0  0  0  0
    1.2504   -7.0222    0.0000 H   0  0  0  0  0  0  0  0  0  0  0  0
    1.0474   -8.9398    0.0000 H   0  0  0  0  0  0  0  0  0  0  0  0
   -0.6028   -6.4893    0.0000 C   0  0  0  0  0  0  0  0  0  0  0  0
   -2.0625   -6.1772    0.0000 C   0  0  0  0  0  0  0  0  0  0  0  0
   -3.1750   -7.1833    0.0000 H   0  0  0  0  0  0  0  0  0  0  0  0
   -2.2278   -4.6842    0.0000 N   0  0  0  0  0  0  0  0  0  0  0  0
   -0.8518   -4.0818    0.0000 C   0  0  0  0  0  0  0  0  0  0  0  0
    0.1476   -5.1905    0.0000 C   0  0  0  0  0  0  0  0  0  0  0  0
    1.6394   -5.0335    0.0000 H   0  0  0  0  0  0  0  0  0  0  0  0
   -0.5358   -2.6154    0.0000 C   0  0  0  0  0  0  0  0  0  0  0  0
    0.8922   -2.1537    0.0000 C   0  0  0  0  0  0  0  0  0  0  0  0
    1.2058   -0.6869    0.0000 C   0  0  0  0  0  0  0  0  0  0  0  0
    2.6328   -0.2247    0.0000 H   0  0  0  0  0  0  0  0  0  0  0  0
    0.0912    0.3183    0.0000 C   0  0  0  0  0  0  0  0  0  0  0  0
    0.4023    1.7857    0.0000 H   0  0  0  0  0  0  0  0  0  0  0  0
   -1.3270   -0.1455    0.0000 C   0  0  0  0  0  0  0  0  0  0  0  0
   -2.4421    0.8578    0.0000 H   0  0  0  0  0  0  0  0  0  0  0  0
   -1.6406   -1.6124    0.0000 C   0  0  0  0  0  0  0  0  0  0  0  0
   -3.0684   -2.0721    0.0000 H   0  0  0  0  0  0  0  0  0  0  0  0
    2.0056   -3.1589    0.0000 F   0  0  0  0  0  0  0  0  0  0  0  0
   -3.5266   -3.9338    0.0000 S   0  0  0  0  0  0  0  0  0  0  0  0
   -4.4904   -2.7844    0.0000 O   0  0  0  0  0  0  0  0  0  0  0  0
   -2.5620   -2.7850    0.0000 O   0  0  0  0  0  0  0  0  0  0  0  0
   -5.2416   -4.9233    0.0000 C   0  0  0  0  0  0  0  0  0  0  0  0
   -5.2423   -6.4241    0.0000 C   0  0  0  0  0  0  0  0  0  0  0  0
   -3.9434   -7.1743    0.0000 H   0  0  0  0  0  0  0  0  0  0  0  0
   -6.5420   -7.1747    0.0000 C   0  0  0  0  0  0  0  0  0  0  0  0
   -6.5420   -8.6747    0.0000 H   0  0  0  0  0  0  0  0  0  0  0  0
   -7.8409   -6.4245    0.0000 C   0  0  0  0  0  0  0  0  0  0  0  0
   -9.1402   -7.1741    0.0000 H   0  0  0  0  0  0  0  0  0  0  0  0
   -7.8402   -4.9237    0.0000 N   0  0  0  0  0  0  0  0  0  0  0  0
   -6.5405   -4.1730    0.0000 C   0  0  0  0  0  0  0  0  0  0  0  0
   -6.5405   -2.6730    0.0000 H   0  0  0  0  0  0  0  0  0  0  0  0
   -9.1391   -4.1735    0.0000 C   0  0  0  0  0  0  0  0  0  0  0  0
   -8.1748   -3.0245    0.0000 H   0  0  0  0  0  0  0  0  0  0  0  0
  -10.1033   -3.0245    0.0000 C   0  0  0  0  0  0  0  0  0  0  0  0
   -8.8044   -2.2742    0.0000 H   0  0  0  0  0  0  0  0  0  0  0  0
  -11.5813   -3.2856    0.0000 C   0  0  0  0  0  0  0  0  0  0  0  0
  -11.5815   -1.7856    0.0000 H   0  0  0  0  0  0  0  0  0  0  0  0
  -12.0950   -4.6958    0.0000 C   0  0  0  0  0  0  0  0  0  0  0  0
  -13.3939   -3.9456    0.0000 H   0  0  0  0  0  0  0  0  0  0  0  0
  -11.1307   -5.8448    0.0000 C   0  0  0  0  0  0  0  0  0  0  0  0
  -12.4296   -6.5950    0.0000 H   0  0  0  0  0  0  0  0  0  0  0  0
  -10.4530   -7.7052    0.0000 C   0  0  0  0  0  0  0  0  0  0  0  0
   -8.9757   -7.9653    0.0000 O   0  0  0  0  0  0  0  0  0  0  0  0
  -11.4169   -8.8546    0.0000 O   0  0  0  0  0  0  0  0  0  0  0  0
  -12.8942   -8.5945    0.0000 H   0  0  0  0  0  0  0  0  0  0  0  0
   -9.6528   -5.5837    0.0000 O   0  0  0  0  0  0  0  0  0  0  0  0
  -13.0592   -5.8448    0.0000 O   0  0  0  0  0  0  0  0  0  0  0  0
  -14.5364   -5.5843    0.0000 H   0  0  0  0  0  0  0  0  0  0  0  0
  -13.0585   -3.0251    0.0000 O   0  0  0  0  0  0  0  0  0  0  0  0
  -13.5714   -1.6155    0.0000 H   0  0  0  0  0  0  0  0  0  0  0  0
  -10.6167   -1.6150    0.0000 O   0  0  0  0  0  0  0  0  0  0  0  0
   -9.6529   -0.4657    0.0000 H   0  0  0  0  0  0  0  0  0  0  0  0
  1  2  1  0  0  0  0 
  1  3  1  0  0  0  0 
  1  4  1  0  0  0  0 
  1  5  1  0  0  0  0 
  5  6  1  0  0  0  0 
  5  7  1  0  0  0  0 
  7  8  1  0  0  0  0 
  7  9  1  0  0  0  0 
  7 10  1  0  0  0  0 
 10 11  2  0  0  0  0 
 11 12  1  0  0  0  0 
 11 13  1  0  0  0  0 
 13 14  1  0  0  0  0 
 14 15  2  0  0  0  0 
 10 15  1  0  0  0  0 
 15 16  1  0  0  0  0 
 14 17  1  0  0  0  0 
 17 18  2  0  0  0  0 
 18 19  1  0  0  0  0 
 19 20  1  0  0  0  0 
 19 21  2  0  0  0  0 
 21 22  1  0  0  0  0 
 21 23  1  0  0  0  0 
 23 24  1  0  0  0  0 
 23 25  2  0  0  0  0 
 17 25  1  0  0  0  0 
 25 26  1  0  0  0  0 
 18 27  1  0  0  0  0 
 13 28  1  0  0  0  0 
 28 29  2  0  0  0  0 
 28 30  2  0  0  0  0 
 28 31  1  0  0  0  0 
 31 32  2  0  0  0  0 
 32 33  1  0  0  0  0 
 32 34  1  0  0  0  0 
 34 35  1  0  0  0  0 
 34 36  2  0  0  0  0 
 36 37  1  0  0  0  0 
 36 38  1  0  0  0  0 
 38 39  2  0  0  0  0 
 31 39  1  0  0  0  0 
 39 40  1  0  0  0  0 
 38 41  1  0  0  0  0 
 41 42  1  0  0  0  0 
 41 43  1  0  0  0  0 
 43 44  1  0  0  0  0 
 43 45  1  0  0  0  0 
 45 46  1  0  0  0  0 
 45 47  1  0  0  0  0 
 47 48  1  0  0  0  0 
 47 49  1  0  0  0  0 
 49 50  1  0  0  0  0 
 49 51  1  0  0  0  0 
 51 52  2  0  0  0  0 
 51 53  1  0  0  0  0 
 53 54  1  0  0  0  0 
 49 55  1  0  0  0  0 
 41 55  1  0  0  0  0 
 47 56  1  0  0  0  0 
 56 57  1  0  0  0  0 
 45 58  1  0  0  0  0 
 58 59  1  0  0  0  0 
 43 60  1  0  0  0  0 
 60 61  1  0  0  0  0 
M  CHG  1  38   1
M  END
> <Rank>
12

> <Priority_score>
0.212

> <Reaction_type>
N-glucuronidation_(aromatic_=n-)

> <Parent_ID>
39

> <Parent_InChI>
InChI=1S/C17H16FN3O2S/c1-19-10-13-9-17(15-6-2-3-7-16(15)18)21(12-13)24(22,23)14-5-4-8-20-11-14/h2-9,11-12,19H,10H2,1H3

> <Parent_SMILES>
CNCc1cc(-c2ccccc2F)n(S(=O)(=O)c2cccnc2)c1

$$$$
Molecule 39_metabolite 13
  CDK     0516241031

 41 43  0  0  0  0  0  0  0  0999 V2000
    6.8385    1.6113    0.0000 C   0  0  0  0  0  0  0  0  0  0  0  0
    7.7207    0.3982    0.0000 H   0  0  0  0  0  0  0  0  0  0  0  0
    6.4244    3.0530    0.0000 H   0  0  0  0  0  0  0  0  0  0  0  0
    8.1864    2.2695    0.0000 H   0  0  0  0  0  0  0  0  0  0  0  0
    5.3468    1.4539    0.0000 N   0  0  0  0  0  0  0  0  0  0  0  0
    4.4646    2.6670    0.0000 H   0  0  0  0  0  0  0  0  0  0  0  0
    4.7373    0.0833    0.0000 C   0  0  0  0  0  0  0  0  0  0  0  0
    4.6333   -1.4131    0.0000 H   0  0  0  0  0  0  0  0  0  0  0  0
    6.1929   -0.2789    0.0000 H   0  0  0  0  0  0  0  0  0  0  0  0
    3.2456   -0.0742    0.0000 C   0  0  0  0  0  0  0  0  0  0  0  0
    2.2458    1.0342    0.0000 C   0  0  0  0  0  0  0  0  0  0  0  0
    2.5613    2.5007    0.0000 H   0  0  0  0  0  0  0  0  0  0  0  0
    0.8701    0.4313    0.0000 N   0  0  0  0  0  0  0  0  0  0  0  0
    1.0358   -1.0616    0.0000 C   0  0  0  0  0  0  0  0  0  0  0  0
    2.4956   -1.3732    0.0000 C   0  0  0  0  0  0  0  0  0  0  0  0
    3.1051   -2.7438    0.0000 O   0  0  0  0  0  0  0  0  0  0  0  0
    4.5968   -2.9012    0.0000 H   0  0  0  0  0  0  0  0  0  0  0  0
   -0.0764   -2.0680    0.0000 C   0  0  0  0  0  0  0  0  0  0  0  0
    0.2373   -3.5357    0.0000 C   0  0  0  0  0  0  0  0  0  0  0  0
   -0.8766   -4.5403    0.0000 C   0  0  0  0  0  0  0  0  0  0  0  0
   -0.5638   -6.0073    0.0000 H   0  0  0  0  0  0  0  0  0  0  0  0
   -2.3042   -4.0772    0.0000 C   0  0  0  0  0  0  0  0  0  0  0  0
   -3.4198   -5.0800    0.0000 H   0  0  0  0  0  0  0  0  0  0  0  0
   -2.6112   -2.6170    0.0000 C   0  0  0  0  0  0  0  0  0  0  0  0
   -4.0375   -2.1525    0.0000 H   0  0  0  0  0  0  0  0  0  0  0  0
   -1.4973   -1.6124    0.0000 C   0  0  0  0  0  0  0  0  0  0  0  0
   -1.8126   -0.1459    0.0000 H   0  0  0  0  0  0  0  0  0  0  0  0
    1.6644   -3.9979    0.0000 F   0  0  0  0  0  0  0  0  0  0  0  0
   -0.4290    1.1813    0.0000 S   0  0  0  0  0  0  0  0  0  0  0  0
   -1.9062    1.4418    0.0000 O   0  0  0  0  0  0  0  0  0  0  0  0
   -0.9420   -0.2282    0.0000 O   0  0  0  0  0  0  0  0  0  0  0  0
   -0.4290    3.1613    0.0000 C   0  0  0  0  0  0  0  0  0  0  0  0
    0.8707    3.9119    0.0000 C   0  0  0  0  0  0  0  0  0  0  0  0
    2.1696    3.1617    0.0000 H   0  0  0  0  0  0  0  0  0  0  0  0
    0.8714    5.4128    0.0000 C   0  0  0  0  0  0  0  0  0  0  0  0
    2.1707    6.1624    0.0000 H   0  0  0  0  0  0  0  0  0  0  0  0
   -0.4275    6.1630    0.0000 C   0  0  0  0  0  0  0  0  0  0  0  0
   -0.4275    7.6630    0.0000 H   0  0  0  0  0  0  0  0  0  0  0  0
   -1.7272    5.4124    0.0000 N   0  0  0  0  0  0  0  0  0  0  0  0
   -1.7279    3.9115    0.0000 C   0  0  0  0  0  0  0  0  0  0  0  0
   -3.0272    3.1619    0.0000 H   0  0  0  0  0  0  0  0  0  0  0  0
  1  2  1  0  0  0  0 
  1  3  1  0  0  0  0 
  1  4  1  0  0  0  0 
  1  5  1  0  0  0  0 
  5  6  1  0  0  0  0 
  5  7  1  0  0  0  0 
  7  8  1  0  0  0  0 
  7  9  1  0  0  0  0 
  7 10  1  0  0  0  0 
 10 11  2  0  0  0  0 
 11 12  1  0  0  0  0 
 11 13  1  0  0  0  0 
 13 14  1  0  0  0  0 
 14 15  2  0  0  0  0 
 10 15  1  0  0  0  0 
 15 16  1  0  0  0  0 
 16 17  1  0  0  0  0 
 14 18  1  0  0  0  0 
 18 19  2  0  0  0  0 
 19 20  1  0  0  0  0 
 20 21  1  0  0  0  0 
 20 22  2  0  0  0  0 
 22 23  1  0  0  0  0 
 22 24  1  0  0  0  0 
 24 25  1  0  0  0  0 
 24 26  2  0  0  0  0 
 18 26  1  0  0  0  0 
 26 27  1  0  0  0  0 
 19 28  1  0  0  0  0 
 13 29  1  0  0  0  0 
 29 30  2  0  0  0  0 
 29 31  2  0  0  0  0 
 29 32  1  0  0  0  0 
 32 33  2  0  0  0  0 
 33 34  1  0  0  0  0 
 33 35  1  0  0  0  0 
 35 36  1  0  0  0  0 
 35 37  2  0  0  0  0 
 37 38  1  0  0  0  0 
 37 39  1  0  0  0  0 
 39 40  2  0  0  0  0 
 32 40  1  0  0  0  0 
 40 41  1  0  0  0  0 
M  END
> <Rank>
13

> <Priority_score>
0.18

> <Reaction_type>
aromatic hydroxylation

> <Parent_ID>
39

> <Parent_InChI>
InChI=1S/C17H16FN3O2S/c1-19-10-13-9-17(15-6-2-3-7-16(15)18)21(12-13)24(22,23)14-5-4-8-20-11-14/h2-9,11-12,19H,10H2,1H3

> <Parent_SMILES>
CNCc1cc(-c2ccccc2F)n(S(=O)(=O)c2cccnc2)c1

$$$$
Molecule 39_metabolite 14
  CDK     0516241031

 41 43  0  0  0  0  0  0  0  0999 V2000
    4.4269   -4.4098    0.0000 C   0  0  0  0  0  0  0  0  0  0  0  0
    3.8174   -5.7804    0.0000 H   0  0  0  0  0  0  0  0  0  0  0  0
    5.4684   -3.3304    0.0000 H   0  0  0  0  0  0  0  0  0  0  0  0
    5.6708   -5.2481    0.0000 H   0  0  0  0  0  0  0  0  0  0  0  0
    3.5447   -3.1967    0.0000 N   0  0  0  0  0  0  0  0  0  0  0  0
    4.1542   -1.8261    0.0000 H   0  0  0  0  0  0  0  0  0  0  0  0
    2.0529   -3.3541    0.0000 C   0  0  0  0  0  0  0  0  0  0  0  0
    0.7050   -4.0123    0.0000 H   0  0  0  0  0  0  0  0  0  0  0  0
    2.4670   -4.7959    0.0000 H   0  0  0  0  0  0  0  0  0  0  0  0
    1.1707   -2.1410    0.0000 C   0  0  0  0  0  0  0  0  0  0  0  0
    1.6307   -0.7210    0.0000 C   0  0  0  0  0  0  0  0  0  0  0  0
    3.0585   -0.2610    0.0000 H   0  0  0  0  0  0  0  0  0  0  0  0
    0.4207    0.1690    0.0000 N   0  0  0  0  0  0  0  0  0  0  0  0
   -0.7893   -0.7210    0.0000 C   0  0  0  0  0  0  0  0  0  0  0  0
   -0.3293   -2.1410    0.0000 C   0  0  0  0  0  0  0  0  0  0  0  0
   -1.2115   -3.3541    0.0000 H   0  0  0  0  0  0  0  0  0  0  0  0
   -2.2170   -0.2610    0.0000 C   0  0  0  0  0  0  0  0  0  0  0  0
   -3.3312   -1.2666    0.0000 C   0  0  0  0  0  0  0  0  0  0  0  0
   -4.7582   -0.8042    0.0000 C   0  0  0  0  0  0  0  0  0  0  0  0
   -5.8722   -1.8086    0.0000 H   0  0  0  0  0  0  0  0  0  0  0  0
   -5.0709    0.6637    0.0000 C   0  0  0  0  0  0  0  0  0  0  0  0
   -6.4971    1.1284    0.0000 H   0  0  0  0  0  0  0  0  0  0  0  0
   -3.9598    1.6597    0.0000 C   0  0  0  0  0  0  0  0  0  0  0  0
   -4.2707    3.1271    0.0000 H   0  0  0  0  0  0  0  0  0  0  0  0
   -2.5329    1.1973    0.0000 C   0  0  0  0  0  0  0  0  0  0  0  0
   -1.4205    2.2036    0.0000 H   0  0  0  0  0  0  0  0  0  0  0  0
   -3.0179   -2.7335    0.0000 F   0  0  0  0  0  0  0  0  0  0  0  0
    0.4207    1.6690    0.0000 S   0  0  0  0  0  0  0  0  0  0  0  0
   -0.0923    3.0785    0.0000 O   0  0  0  0  0  0  0  0  0  0  0  0
   -1.0565    1.4085    0.0000 O   0  0  0  0  0  0  0  0  0  0  0  0
    2.1355    2.6590    0.0000 C   0  0  0  0  0  0  0  0  0  0  0  0
    3.4353    1.9088    0.0000 C   0  0  0  0  0  0  0  0  0  0  0  0
    3.4351    0.4088    0.0000 H   0  0  0  0  0  0  0  0  0  0  0  0
    4.7355    2.6586    0.0000 C   0  0  0  0  0  0  0  0  0  0  0  0
    4.7357    4.1586    0.0000 C   0  0  0  0  0  0  0  0  0  0  0  0
    6.0347    4.9086    0.0000 H   0  0  0  0  0  0  0  0  0  0  0  0
    3.4358    4.9088    0.0000 N   0  0  0  0  0  0  0  0  0  0  0  0
    2.1357    4.1590    0.0000 C   0  0  0  0  0  0  0  0  0  0  0  0
    0.8369    4.9094    0.0000 H   0  0  0  0  0  0  0  0  0  0  0  0
    6.0343    1.9082    0.0000 O   0  0  0  0  0  0  0  0  0  0  0  0
    7.3335    2.6577    0.0000 H   0  0  0  0  0  0  0  0  0  0  0  0
  1  2  1  0  0  0  0 
  1  3  1  0  0  0  0 
  1  4  1  0  0  0  0 
  1  5  1  0  0  0  0 
  5  6  1  0  0  0  0 
  5  7  1  0  0  0  0 
  7  8  1  0  0  0  0 
  7  9  1  0  0  0  0 
  7 10  1  0  0  0  0 
 10 11  2  0  0  0  0 
 11 12  1  0  0  0  0 
 11 13  1  0  0  0  0 
 13 14  1  0  0  0  0 
 14 15  2  0  0  0  0 
 10 15  1  0  0  0  0 
 15 16  1  0  0  0  0 
 14 17  1  0  0  0  0 
 17 18  2  0  0  0  0 
 18 19  1  0  0  0  0 
 19 20  1  0  0  0  0 
 19 21  2  0  0  0  0 
 21 22  1  0  0  0  0 
 21 23  1  0  0  0  0 
 23 24  1  0  0  0  0 
 23 25  2  0  0  0  0 
 17 25  1  0  0  0  0 
 25 26  1  0  0  0  0 
 18 27  1  0  0  0  0 
 13 28  1  0  0  0  0 
 28 29  2  0  0  0  0 
 28 30  2  0  0  0  0 
 28 31  1  0  0  0  0 
 31 32  2  0  0  0  0 
 32 33  1  0  0  0  0 
 32 34  1  0  0  0  0 
 34 35  2  0  0  0  0 
 35 36  1  0  0  0  0 
 35 37  1  0  0  0  0 
 37 38  2  0  0  0  0 
 31 38  1  0  0  0  0 
 38 39  1  0  0  0  0 
 34 40  1  0  0  0  0 
 40 41  1  0  0  0  0 
M  END
> <Rank>
14

> <Priority_score>
0.14755763604447045

> <Reaction_type>
aromatic hydroxylation

> <Parent_ID>
39

> <Parent_InChI>
InChI=1S/C17H16FN3O2S/c1-19-10-13-9-17(15-6-2-3-7-16(15)18)21(12-13)24(22,23)14-5-4-8-20-11-14/h2-9,11-12,19H,10H2,1H3

> <Parent_SMILES>
CNCc1cc(-c2ccccc2F)n(S(=O)(=O)c2cccnc2)c1

$$$$
Molecule 39_metabolite 15
  CDK     0516241031

 41 43  0  0  0  0  0  0  0  0999 V2000
   -4.2835    0.5012    0.0000 C   0  0  0  0  0  0  0  0  0  0  0  0
   -4.8930   -0.8694    0.0000 H   0  0  0  0  0  0  0  0  0  0  0  0
   -4.1796    1.9976    0.0000 H   0  0  0  0  0  0  0  0  0  0  0  0
   -5.7391    0.8634    0.0000 H   0  0  0  0  0  0  0  0  0  0  0  0
   -2.7918    0.6586    0.0000 N   0  0  0  0  0  0  0  0  0  0  0  0
   -2.1823    2.0292    0.0000 H   0  0  0  0  0  0  0  0  0  0  0  0
   -1.9096   -0.5545    0.0000 C   0  0  0  0  0  0  0  0  0  0  0  0
   -1.4955   -1.9962    0.0000 H   0  0  0  0  0  0  0  0  0  0  0  0
   -3.2575   -1.2127    0.0000 H   0  0  0  0  0  0  0  0  0  0  0  0
   -0.4179   -0.3971    0.0000 C   0  0  0  0  0  0  0  0  0  0  0  0
    0.5819   -1.5054    0.0000 C   0  0  0  0  0  0  0  0  0  0  0  0
    1.9576   -0.9025    0.0000 N   0  0  0  0  0  0  0  0  0  0  0  0
    1.7919    0.5904    0.0000 C   0  0  0  0  0  0  0  0  0  0  0  0
    0.3321    0.9020    0.0000 C   0  0  0  0  0  0  0  0  0  0  0  0
   -0.2774    2.2726    0.0000 H   0  0  0  0  0  0  0  0  0  0  0  0
    2.9041    1.5968    0.0000 C   0  0  0  0  0  0  0  0  0  0  0  0
    2.5904    3.0645    0.0000 C   0  0  0  0  0  0  0  0  0  0  0  0
    3.7043    4.0691    0.0000 C   0  0  0  0  0  0  0  0  0  0  0  0
    3.3914    5.5361    0.0000 H   0  0  0  0  0  0  0  0  0  0  0  0
    5.1319    3.6060    0.0000 C   0  0  0  0  0  0  0  0  0  0  0  0
    6.2474    4.6088    0.0000 H   0  0  0  0  0  0  0  0  0  0  0  0
    5.4389    2.1458    0.0000 C   0  0  0  0  0  0  0  0  0  0  0  0
    6.8651    1.6812    0.0000 H   0  0  0  0  0  0  0  0  0  0  0  0
    4.3250    1.1412    0.0000 C   0  0  0  0  0  0  0  0  0  0  0  0
    4.6403   -0.3253    0.0000 H   0  0  0  0  0  0  0  0  0  0  0  0
    1.1633    3.5266    0.0000 F   0  0  0  0  0  0  0  0  0  0  0  0
    3.2567   -1.6525    0.0000 S   0  0  0  0  0  0  0  0  0  0  0  0
    4.7339   -1.9130    0.0000 O   0  0  0  0  0  0  0  0  0  0  0  0
    3.7697   -0.2430    0.0000 O   0  0  0  0  0  0  0  0  0  0  0  0
    3.2567   -3.6325    0.0000 C   0  0  0  0  0  0  0  0  0  0  0  0
    1.9570   -4.3832    0.0000 C   0  0  0  0  0  0  0  0  0  0  0  0
    0.6581   -3.6330    0.0000 H   0  0  0  0  0  0  0  0  0  0  0  0
    1.9563   -5.8840    0.0000 C   0  0  0  0  0  0  0  0  0  0  0  0
    0.6570   -6.6336    0.0000 H   0  0  0  0  0  0  0  0  0  0  0  0
    3.2552   -6.6342    0.0000 C   0  0  0  0  0  0  0  0  0  0  0  0
    3.2552   -8.1342    0.0000 H   0  0  0  0  0  0  0  0  0  0  0  0
    4.5549   -5.8836    0.0000 N   0  0  0  0  0  0  0  0  0  0  0  0
    4.5556   -4.3827    0.0000 C   0  0  0  0  0  0  0  0  0  0  0  0
    5.8549   -3.6332    0.0000 H   0  0  0  0  0  0  0  0  0  0  0  0
    0.2663   -2.9719    0.0000 O   0  0  0  0  0  0  0  0  0  0  0  0
   -1.1614   -3.4318    0.0000 H   0  0  0  0  0  0  0  0  0  0  0  0
  1  2  1  0  0  0  0 
  1  3  1  0  0  0  0 
  1  4  1  0  0  0  0 
  1  5  1  0  0  0  0 
  5  6  1  0  0  0  0 
  5  7  1  0  0  0  0 
  7  8  1  0  0  0  0 
  7  9  1  0  0  0  0 
  7 10  1  0  0  0  0 
 10 11  2  0  0  0  0 
 11 12  1  0  0  0  0 
 12 13  1  0  0  0  0 
 13 14  2  0  0  0  0 
 10 14  1  0  0  0  0 
 14 15  1  0  0  0  0 
 13 16  1  0  0  0  0 
 16 17  2  0  0  0  0 
 17 18  1  0  0  0  0 
 18 19  1  0  0  0  0 
 18 20  2  0  0  0  0 
 20 21  1  0  0  0  0 
 20 22  1  0  0  0  0 
 22 23  1  0  0  0  0 
 22 24  2  0  0  0  0 
 16 24  1  0  0  0  0 
 24 25  1  0  0  0  0 
 17 26  1  0  0  0  0 
 12 27  1  0  0  0  0 
 27 28  2  0  0  0  0 
 27 29  2  0  0  0  0 
 27 30  1  0  0  0  0 
 30 31  2  0  0  0  0 
 31 32  1  0  0  0  0 
 31 33  1  0  0  0  0 
 33 34  1  0  0  0  0 
 33 35  2  0  0  0  0 
 35 36  1  0  0  0  0 
 35 37  1  0  0  0  0 
 37 38  2  0  0  0  0 
 30 38  1  0  0  0  0 
 38 39  1  0  0  0  0 
 11 40  1  0  0  0  0 
 40 41  1  0  0  0  0 
M  END
> <Rank>
15

> <Priority_score>
0.132

> <Reaction_type>
aromatic hydroxylation

> <Parent_ID>
39

> <Parent_InChI>
InChI=1S/C17H16FN3O2S/c1-19-10-13-9-17(15-6-2-3-7-16(15)18)21(12-13)24(22,23)14-5-4-8-20-11-14/h2-9,11-12,19H,10H2,1H3

> <Parent_SMILES>
CNCc1cc(-c2ccccc2F)n(S(=O)(=O)c2cccnc2)c1

$$$$
Molecule 39_metabolite 16
  CDK     0516241031

 41 43  0  0  0  0  0  0  0  0999 V2000
    0.7970    6.5303    0.0000 C   0  0  0  0  0  0  0  0  0  0  0  0
   -0.5736    7.1398    0.0000 H   0  0  0  0  0  0  0  0  0  0  0  0
    1.1593    7.9859    0.0000 H   0  0  0  0  0  0  0  0  0  0  0  0
    2.2934    6.4264    0.0000 H   0  0  0  0  0  0  0  0  0  0  0  0
    0.9545    5.0386    0.0000 N   0  0  0  0  0  0  0  0  0  0  0  0
    2.3251    4.4291    0.0000 H   0  0  0  0  0  0  0  0  0  0  0  0
   -0.2587    4.1564    0.0000 C   0  0  0  0  0  0  0  0  0  0  0  0
   -0.9168    5.5043    0.0000 H   0  0  0  0  0  0  0  0  0  0  0  0
   -1.7004    3.7423    0.0000 H   0  0  0  0  0  0  0  0  0  0  0  0
   -0.1012    2.6647    0.0000 C   0  0  0  0  0  0  0  0  0  0  0  0
   -1.2096    1.6649    0.0000 C   0  0  0  0  0  0  0  0  0  0  0  0
   -2.6760    1.9805    0.0000 H   0  0  0  0  0  0  0  0  0  0  0  0
   -0.6067    0.2892    0.0000 N   0  0  0  0  0  0  0  0  0  0  0  0
    0.8862    0.4549    0.0000 C   0  0  0  0  0  0  0  0  0  0  0  0
    1.1978    1.9147    0.0000 C   0  0  0  0  0  0  0  0  0  0  0  0
    2.5684    2.5242    0.0000 H   0  0  0  0  0  0  0  0  0  0  0  0
    1.8927   -0.6573    0.0000 C   0  0  0  0  0  0  0  0  0  0  0  0
    3.3603   -0.3436    0.0000 C   0  0  0  0  0  0  0  0  0  0  0  0
    4.3649   -1.4575    0.0000 C   0  0  0  0  0  0  0  0  0  0  0  0
    5.8320   -1.1446    0.0000 H   0  0  0  0  0  0  0  0  0  0  0  0
    3.9019   -2.8851    0.0000 C   0  0  0  0  0  0  0  0  0  0  0  0
    4.9046   -4.0007    0.0000 H   0  0  0  0  0  0  0  0  0  0  0  0
    2.4416   -3.1921    0.0000 C   0  0  0  0  0  0  0  0  0  0  0  0
    1.9771   -4.6183    0.0000 H   0  0  0  0  0  0  0  0  0  0  0  0
    1.4370   -2.0782    0.0000 C   0  0  0  0  0  0  0  0  0  0  0  0
   -0.0295   -2.3935    0.0000 H   0  0  0  0  0  0  0  0  0  0  0  0
    3.8225    1.0835    0.0000 F   0  0  0  0  0  0  0  0  0  0  0  0
   -2.0342   -0.1716    0.0000 O   0  0  0  0  0  0  0  0  0  0  0  0
   -0.5337   -1.6895    0.0000 S   0  0  0  0  0  0  0  0  0  0  0  0
    0.2116   -3.5239    0.0000 O   0  0  0  0  0  0  0  0  0  0  0  0
    0.9329   -1.3747    0.0000 O   0  0  0  0  0  0  0  0  0  0  0  0
   -1.8043   -2.4868    0.0000 C   0  0  0  0  0  0  0  0  0  0  0  0
   -3.1309   -1.7850    0.0000 C   0  0  0  0  0  0  0  0  0  0  0  0
   -3.1859   -0.2861    0.0000 H   0  0  0  0  0  0  0  0  0  0  0  0
   -4.4025   -2.5822    0.0000 C   0  0  0  0  0  0  0  0  0  0  0  0
   -5.7281   -1.8802    0.0000 H   0  0  0  0  0  0  0  0  0  0  0  0
   -4.3475   -4.0812    0.0000 C   0  0  0  0  0  0  0  0  0  0  0  0
   -5.6180   -4.8786    0.0000 H   0  0  0  0  0  0  0  0  0  0  0  0
   -3.0208   -4.7830    0.0000 N   0  0  0  0  0  0  0  0  0  0  0  0
   -1.7492   -3.9858    0.0000 C   0  0  0  0  0  0  0  0  0  0  0  0
   -0.4236   -4.6879    0.0000 H   0  0  0  0  0  0  0  0  0  0  0  0
  1  2  1  0  0  0  0 
  1  3  1  0  0  0  0 
  1  4  1  0  0  0  0 
  1  5  1  0  0  0  0 
  5  6  1  0  0  0  0 
  5  7  1  0  0  0  0 
  7  8  1  0  0  0  0 
  7  9  1  0  0  0  0 
  7 10  1  0  0  0  0 
 10 11  2  0  0  0  0 
 11 12  1  0  0  0  0 
 11 13  1  0  0  0  0 
 13 14  1  0  0  0  0 
 14 15  2  0  0  0  0 
 10 15  1  0  0  0  0 
 15 16  1  0  0  0  0 
 14 17  1  0  0  0  0 
 17 18  2  0  0  0  0 
 18 19  1  0  0  0  0 
 19 20  1  0  0  0  0 
 19 21  2  0  0  0  0 
 21 22  1  0  0  0  0 
 21 23  1  0  0  0  0 
 23 24  1  0  0  0  0 
 23 25  2  0  0  0  0 
 17 25  1  0  0  0  0 
 25 26  1  0  0  0  0 
 18 27  1  0  0  0  0 
 13 28  1  0  0  0  0 
 13 29  1  0  0  0  0 
 29 30  2  0  0  0  0 
 29 31  2  0  0  0  0 
 29 32  1  0  0  0  0 
 32 33  2  0  0  0  0 
 33 34  1  0  0  0  0 
 33 35  1  0  0  0  0 
 35 36  1  0  0  0  0 
 35 37  2  0  0  0  0 
 37 38  1  0  0  0  0 
 37 39  1  0  0  0  0 
 39 40  2  0  0  0  0 
 32 40  1  0  0  0  0 
 40 41  1  0  0  0  0 
M  CHG  1  13   1
M  CHG  1  28  -1
M  END
> <Rank>
15

> <Priority_score>
0.132

> <Reaction_type>
N-oxidation

> <Parent_ID>
39

> <Parent_InChI>
InChI=1S/C17H16FN3O2S/c1-19-10-13-9-17(15-6-2-3-7-16(15)18)21(12-13)24(22,23)14-5-4-8-20-11-14/h2-9,11-12,19H,10H2,1H3

> <Parent_SMILES>
CNCc1cc(-c2ccccc2F)n(S(=O)(=O)c2cccnc2)c1

$$$$
Molecule 39_metabolite 17
  CDK     0516241031

 41 43  0  0  0  0  0  0  0  0999 V2000
    7.4877    0.4870    0.0000 C   0  0  0  0  0  0  0  0  0  0  0  0
    8.3699   -0.7262    0.0000 H   0  0  0  0  0  0  0  0  0  0  0  0
    7.0736    1.9287    0.0000 H   0  0  0  0  0  0  0  0  0  0  0  0
    8.8356    1.1451    0.0000 H   0  0  0  0  0  0  0  0  0  0  0  0
    5.9960    0.3295    0.0000 N   0  0  0  0  0  0  0  0  0  0  0  0
    5.1137    1.5426    0.0000 H   0  0  0  0  0  0  0  0  0  0  0  0
    5.3865   -1.0411    0.0000 C   0  0  0  0  0  0  0  0  0  0  0  0
    5.2825   -2.5375    0.0000 H   0  0  0  0  0  0  0  0  0  0  0  0
    6.8421   -1.4033    0.0000 H   0  0  0  0  0  0  0  0  0  0  0  0
    3.8947   -1.1985    0.0000 C   0  0  0  0  0  0  0  0  0  0  0  0
    2.8950   -0.0902    0.0000 C   0  0  0  0  0  0  0  0  0  0  0  0
    3.2105    1.3763    0.0000 H   0  0  0  0  0  0  0  0  0  0  0  0
    1.5192   -0.6931    0.0000 N   0  0  0  0  0  0  0  0  0  0  0  0
    1.6850   -2.1859    0.0000 C   0  0  0  0  0  0  0  0  0  0  0  0
    3.1447   -2.4976    0.0000 C   0  0  0  0  0  0  0  0  0  0  0  0
    3.7542   -3.8682    0.0000 H   0  0  0  0  0  0  0  0  0  0  0  0
    0.5728   -3.1924    0.0000 C   0  0  0  0  0  0  0  0  0  0  0  0
    0.8865   -4.6601    0.0000 C   0  0  0  0  0  0  0  0  0  0  0  0
   -0.2274   -5.6647    0.0000 C   0  0  0  0  0  0  0  0  0  0  0  0
    0.0854   -7.1317    0.0000 H   0  0  0  0  0  0  0  0  0  0  0  0
   -1.6550   -5.2016    0.0000 C   0  0  0  0  0  0  0  0  0  0  0  0
   -2.7706   -6.2044    0.0000 H   0  0  0  0  0  0  0  0  0  0  0  0
   -1.9620   -3.7414    0.0000 C   0  0  0  0  0  0  0  0  0  0  0  0
   -3.3883   -3.2768    0.0000 H   0  0  0  0  0  0  0  0  0  0  0  0
   -0.8481   -2.7368    0.0000 C   0  0  0  0  0  0  0  0  0  0  0  0
   -1.1634   -1.2703    0.0000 H   0  0  0  0  0  0  0  0  0  0  0  0
    2.3135   -5.1222    0.0000 F   0  0  0  0  0  0  0  0  0  0  0  0
    0.2202    0.0569    0.0000 S   0  0  0  0  0  0  0  0  0  0  0  0
   -1.2570    0.3174    0.0000 O   0  0  0  0  0  0  0  0  0  0  0  0
   -0.2928   -1.3526    0.0000 O   0  0  0  0  0  0  0  0  0  0  0  0
    0.2202    2.0369    0.0000 C   0  0  0  0  0  0  0  0  0  0  0  0
    1.5198    2.7876    0.0000 C   0  0  0  0  0  0  0  0  0  0  0  0
    2.8187    2.0374    0.0000 H   0  0  0  0  0  0  0  0  0  0  0  0
    1.5205    4.2884    0.0000 C   0  0  0  0  0  0  0  0  0  0  0  0
    2.8198    5.0380    0.0000 H   0  0  0  0  0  0  0  0  0  0  0  0
    0.2216    5.0386    0.0000 C   0  0  0  0  0  0  0  0  0  0  0  0
   -1.0780    4.2880    0.0000 N   0  0  0  0  0  0  0  0  0  0  0  0
   -1.0787    2.7872    0.0000 C   0  0  0  0  0  0  0  0  0  0  0  0
   -2.3780    2.0376    0.0000 H   0  0  0  0  0  0  0  0  0  0  0  0
    0.2216    6.5386    0.0000 O   0  0  0  0  0  0  0  0  0  0  0  0
   -1.0774    7.2886    0.0000 H   0  0  0  0  0  0  0  0  0  0  0  0
  1  2  1  0  0  0  0 
  1  3  1  0  0  0  0 
  1  4  1  0  0  0  0 
  1  5  1  0  0  0  0 
  5  6  1  0  0  0  0 
  5  7  1  0  0  0  0 
  7  8  1  0  0  0  0 
  7  9  1  0  0  0  0 
  7 10  1  0  0  0  0 
 10 11  2  0  0  0  0 
 11 12  1  0  0  0  0 
 11 13  1  0  0  0  0 
 13 14  1  0  0  0  0 
 14 15  2  0  0  0  0 
 10 15  1  0  0  0  0 
 15 16  1  0  0  0  0 
 14 17  1  0  0  0  0 
 17 18  2  0  0  0  0 
 18 19  1  0  0  0  0 
 19 20  1  0  0  0  0 
 19 21  2  0  0  0  0 
 21 22  1  0  0  0  0 
 21 23  1  0  0  0  0 
 23 24  1  0  0  0  0 
 23 25  2  0  0  0  0 
 17 25  1  0  0  0  0 
 25 26  1  0  0  0  0 
 18 27  1  0  0  0  0 
 13 28  1  0  0  0  0 
 28 29  2  0  0  0  0 
 28 30  2  0  0  0  0 
 28 31  1  0  0  0  0 
 31 32  2  0  0  0  0 
 32 33  1  0  0  0  0 
 32 34  1  0  0  0  0 
 34 35  1  0  0  0  0 
 34 36  2  0  0  0  0 
 36 37  1  0  0  0  0 
 37 38  2  0  0  0  0 
 31 38  1  0  0  0  0 
 38 39  1  0  0  0  0 
 36 40  1  0  0  0  0 
 40 41  1  0  0  0  0 
M  END
> <Rank>
15

> <Priority_score>
0.132

> <Reaction_type>
aromatic hydroxylation

> <Parent_ID>
39

> <Parent_InChI>
InChI=1S/C17H16FN3O2S/c1-19-10-13-9-17(15-6-2-3-7-16(15)18)21(12-13)24(22,23)14-5-4-8-20-11-14/h2-9,11-12,19H,10H2,1H3

> <Parent_SMILES>
CNCc1cc(-c2ccccc2F)n(S(=O)(=O)c2cccnc2)c1

$$$$
Molecule 39_metabolite 18
  CDK     0516241031

 41 43  0  0  0  0  0  0  0  0999 V2000
    7.4880    0.4863    0.0000 C   0  0  0  0  0  0  0  0  0  0  0  0
    8.3702   -0.7268    0.0000 H   0  0  0  0  0  0  0  0  0  0  0  0
    7.0739    1.9280    0.0000 H   0  0  0  0  0  0  0  0  0  0  0  0
    8.8359    1.1445    0.0000 H   0  0  0  0  0  0  0  0  0  0  0  0
    5.9963    0.3289    0.0000 N   0  0  0  0  0  0  0  0  0  0  0  0
    5.1141    1.5420    0.0000 H   0  0  0  0  0  0  0  0  0  0  0  0
    5.3868   -1.0417    0.0000 C   0  0  0  0  0  0  0  0  0  0  0  0
    5.2828   -2.5381    0.0000 H   0  0  0  0  0  0  0  0  0  0  0  0
    6.8424   -1.4039    0.0000 H   0  0  0  0  0  0  0  0  0  0  0  0
    3.8951   -1.1992    0.0000 C   0  0  0  0  0  0  0  0  0  0  0  0
    2.8953   -0.0908    0.0000 C   0  0  0  0  0  0  0  0  0  0  0  0
    3.2109    1.3757    0.0000 H   0  0  0  0  0  0  0  0  0  0  0  0
    1.5196   -0.6937    0.0000 N   0  0  0  0  0  0  0  0  0  0  0  0
    1.6853   -2.1866    0.0000 C   0  0  0  0  0  0  0  0  0  0  0  0
    3.1451   -2.4982    0.0000 C   0  0  0  0  0  0  0  0  0  0  0  0
    3.7546   -3.8688    0.0000 H   0  0  0  0  0  0  0  0  0  0  0  0
    0.5731   -3.1930    0.0000 C   0  0  0  0  0  0  0  0  0  0  0  0
    0.8868   -4.6607    0.0000 C   0  0  0  0  0  0  0  0  0  0  0  0
   -0.2271   -5.6653    0.0000 C   0  0  0  0  0  0  0  0  0  0  0  0
    0.0858   -7.1323    0.0000 H   0  0  0  0  0  0  0  0  0  0  0  0
   -1.6547   -5.2022    0.0000 C   0  0  0  0  0  0  0  0  0  0  0  0
   -2.7703   -6.2050    0.0000 H   0  0  0  0  0  0  0  0  0  0  0  0
   -1.9617   -3.7420    0.0000 C   0  0  0  0  0  0  0  0  0  0  0  0
   -3.3879   -3.2775    0.0000 H   0  0  0  0  0  0  0  0  0  0  0  0
   -0.8478   -2.7374    0.0000 C   0  0  0  0  0  0  0  0  0  0  0  0
   -1.1631   -1.2709    0.0000 H   0  0  0  0  0  0  0  0  0  0  0  0
    2.3139   -5.1229    0.0000 F   0  0  0  0  0  0  0  0  0  0  0  0
    0.2205    0.0563    0.0000 S   0  0  0  0  0  0  0  0  0  0  0  0
   -1.2567    0.3168    0.0000 O   0  0  0  0  0  0  0  0  0  0  0  0
   -0.2925   -1.3532    0.0000 O   0  0  0  0  0  0  0  0  0  0  0  0
    0.2205    2.0363    0.0000 C   0  0  0  0  0  0  0  0  0  0  0  0
    1.5202    2.7869    0.0000 C   0  0  0  0  0  0  0  0  0  0  0  0
    2.8191    2.0367    0.0000 H   0  0  0  0  0  0  0  0  0  0  0  0
    1.5209    4.2878    0.0000 C   0  0  0  0  0  0  0  0  0  0  0  0
    2.8202    5.0374    0.0000 H   0  0  0  0  0  0  0  0  0  0  0  0
    0.2220    5.0380    0.0000 C   0  0  0  0  0  0  0  0  0  0  0  0
    0.2220    6.5380    0.0000 H   0  0  0  0  0  0  0  0  0  0  0  0
   -1.0777    4.2874    0.0000 N   0  0  0  0  0  0  0  0  0  0  0  0
   -1.0784    2.7865    0.0000 C   0  0  0  0  0  0  0  0  0  0  0  0
   -2.3777    2.0369    0.0000 O   0  0  0  0  0  0  0  0  0  0  0  0
   -3.6765    2.7874    0.0000 H   0  0  0  0  0  0  0  0  0  0  0  0
  1  2  1  0  0  0  0 
  1  3  1  0  0  0  0 
  1  4  1  0  0  0  0 
  1  5  1  0  0  0  0 
  5  6  1  0  0  0  0 
  5  7  1  0  0  0  0 
  7  8  1  0  0  0  0 
  7  9  1  0  0  0  0 
  7 10  1  0  0  0  0 
 10 11  2  0  0  0  0 
 11 12  1  0  0  0  0 
 11 13  1  0  0  0  0 
 13 14  1  0  0  0  0 
 14 15  2  0  0  0  0 
 10 15  1  0  0  0  0 
 15 16  1  0  0  0  0 
 14 17  1  0  0  0  0 
 17 18  2  0  0  0  0 
 18 19  1  0  0  0  0 
 19 20  1  0  0  0  0 
 19 21  2  0  0  0  0 
 21 22  1  0  0  0  0 
 21 23  1  0  0  0  0 
 23 24  1  0  0  0  0 
 23 25  2  0  0  0  0 
 17 25  1  0  0  0  0 
 25 26  1  0  0  0  0 
 18 27  1  0  0  0  0 
 13 28  1  0  0  0  0 
 28 29  2  0  0  0  0 
 28 30  2  0  0  0  0 
 28 31  1  0  0  0  0 
 31 32  2  0  0  0  0 
 32 33  1  0  0  0  0 
 32 34  1  0  0  0  0 
 34 35  1  0  0  0  0 
 34 36  2  0  0  0  0 
 36 37  1  0  0  0  0 
 36 38  1  0  0  0  0 
 38 39  2  0  0  0  0 
 31 39  1  0  0  0  0 
 39 40  1  0  0  0  0 
 40 41  1  0  0  0  0 
M  END
> <Rank>
18

> <Priority_score>
0.12

> <Reaction_type>
aromatic hydroxylation

> <Parent_ID>
39

> <Parent_InChI>
InChI=1S/C17H16FN3O2S/c1-19-10-13-9-17(15-6-2-3-7-16(15)18)21(12-13)24(22,23)14-5-4-8-20-11-14/h2-9,11-12,19H,10H2,1H3

> <Parent_SMILES>
CNCc1cc(-c2ccccc2F)n(S(=O)(=O)c2cccnc2)c1

$$$$
Molecule 39_metabolite 19
  CDK     0516241031

 39 41  0  0  0  0  0  0  0  0999 V2000
    5.7257   -4.4098    0.0000 C   0  0  0  0  0  0  0  0  0  0  0  0
    7.2174   -4.2524    0.0000 H   0  0  0  0  0  0  0  0  0  0  0  0
    5.1162   -5.7804    0.0000 H   0  0  0  0  0  0  0  0  0  0  0  0
    4.8435   -3.1967    0.0000 N   0  0  0  0  0  0  0  0  0  0  0  0
    5.4530   -1.8261    0.0000 H   0  0  0  0  0  0  0  0  0  0  0  0
    3.3517   -3.3541    0.0000 C   0  0  0  0  0  0  0  0  0  0  0  0
    2.0038   -4.0123    0.0000 H   0  0  0  0  0  0  0  0  0  0  0  0
    3.7658   -4.7959    0.0000 H   0  0  0  0  0  0  0  0  0  0  0  0
    2.4695   -2.1410    0.0000 C   0  0  0  0  0  0  0  0  0  0  0  0
    2.9295   -0.7210    0.0000 C   0  0  0  0  0  0  0  0  0  0  0  0
    4.3573   -0.2610    0.0000 H   0  0  0  0  0  0  0  0  0  0  0  0
    1.7195    0.1690    0.0000 N   0  0  0  0  0  0  0  0  0  0  0  0
    0.5095   -0.7210    0.0000 C   0  0  0  0  0  0  0  0  0  0  0  0
    0.9695   -2.1410    0.0000 C   0  0  0  0  0  0  0  0  0  0  0  0
    0.0873   -3.3541    0.0000 H   0  0  0  0  0  0  0  0  0  0  0  0
   -0.9182   -0.2610    0.0000 C   0  0  0  0  0  0  0  0  0  0  0  0
   -2.0324   -1.2666    0.0000 C   0  0  0  0  0  0  0  0  0  0  0  0
   -3.4594   -0.8042    0.0000 C   0  0  0  0  0  0  0  0  0  0  0  0
   -4.5734   -1.8086    0.0000 H   0  0  0  0  0  0  0  0  0  0  0  0
   -3.7721    0.6637    0.0000 C   0  0  0  0  0  0  0  0  0  0  0  0
   -5.1983    1.1284    0.0000 H   0  0  0  0  0  0  0  0  0  0  0  0
   -2.6610    1.6597    0.0000 C   0  0  0  0  0  0  0  0  0  0  0  0
   -2.9719    3.1271    0.0000 H   0  0  0  0  0  0  0  0  0  0  0  0
   -1.2341    1.1973    0.0000 C   0  0  0  0  0  0  0  0  0  0  0  0
   -0.1217    2.2036    0.0000 H   0  0  0  0  0  0  0  0  0  0  0  0
   -1.7191   -2.7335    0.0000 F   0  0  0  0  0  0  0  0  0  0  0  0
    1.7195    1.6690    0.0000 S   0  0  0  0  0  0  0  0  0  0  0  0
    1.2065    3.0785    0.0000 O   0  0  0  0  0  0  0  0  0  0  0  0
    0.2423    1.4085    0.0000 O   0  0  0  0  0  0  0  0  0  0  0  0
    3.4343    2.6590    0.0000 C   0  0  0  0  0  0  0  0  0  0  0  0
    4.7341    1.9088    0.0000 C   0  0  0  0  0  0  0  0  0  0  0  0
    4.7339    0.4088    0.0000 H   0  0  0  0  0  0  0  0  0  0  0  0
    6.0343    2.6586    0.0000 C   0  0  0  0  0  0  0  0  0  0  0  0
    7.3331    1.9082    0.0000 H   0  0  0  0  0  0  0  0  0  0  0  0
    6.0345    4.1586    0.0000 C   0  0  0  0  0  0  0  0  0  0  0  0
    7.3335    4.9086    0.0000 H   0  0  0  0  0  0  0  0  0  0  0  0
    4.7346    4.9088    0.0000 N   0  0  0  0  0  0  0  0  0  0  0  0
    3.4345    4.1590    0.0000 C   0  0  0  0  0  0  0  0  0  0  0  0
    2.1357    4.9094    0.0000 H   0  0  0  0  0  0  0  0  0  0  0  0
  1  2  1  0  0  0  0 
  1  3  1  0  0  0  0 
  1  4  2  0  0  0  0 
  4  5  1  0  0  0  0 
  4  6  1  0  0  0  0 
  6  7  1  0  0  0  0 
  6  8  1  0  0  0  0 
  6  9  1  0  0  0  0 
  9 10  2  0  0  0  0 
 10 11  1  0  0  0  0 
 10 12  1  0  0  0  0 
 12 13  1  0  0  0  0 
 13 14  2  0  0  0  0 
  9 14  1  0  0  0  0 
 14 15  1  0  0  0  0 
 13 16  1  0  0  0  0 
 16 17  2  0  0  0  0 
 17 18  1  0  0  0  0 
 18 19  1  0  0  0  0 
 18 20  2  0  0  0  0 
 20 21  1  0  0  0  0 
 20 22  1  0  0  0  0 
 22 23  1  0  0  0  0 
 22 24  2  0  0  0  0 
 16 24  1  0  0  0  0 
 24 25  1  0  0  0  0 
 17 26  1  0  0  0  0 
 12 27  1  0  0  0  0 
 27 28  2  0  0  0  0 
 27 29  2  0  0  0  0 
 27 30  1  0  0  0  0 
 30 31  2  0  0  0  0 
 31 32  1  0  0  0  0 
 31 33  1  0  0  0  0 
 33 34  1  0  0  0  0 
 33 35  2  0  0  0  0 
 35 36  1  0  0  0  0 
 35 37  1  0  0  0  0 
 37 38  2  0  0  0  0 
 30 38  1  0  0  0  0 
 38 39  1  0  0  0  0 
M  CHG  1   4   1
M  END
> <Rank>
19

> <Priority_score>
0.10320000000000001

> <Reaction_type>
dehydration of N-C bond

> <Parent_ID>
39

> <Parent_InChI>
InChI=1S/C17H16FN3O2S/c1-19-10-13-9-17(15-6-2-3-7-16(15)18)21(12-13)24(22,23)14-5-4-8-20-11-14/h2-9,11-12,19H,10H2,1H3

> <Parent_SMILES>
CNCc1cc(-c2ccccc2F)n(S(=O)(=O)c2cccnc2)c1

$$$$
Molecule 39_metabolite 20
  CDK     0516241031

 41 43  0  0  0  0  0  0  0  0999 V2000
    7.4897    0.4859    0.0000 C   0  0  0  0  0  0  0  0  0  0  0  0
    8.3720   -0.7273    0.0000 H   0  0  0  0  0  0  0  0  0  0  0  0
    7.0756    1.9276    0.0000 H   0  0  0  0  0  0  0  0  0  0  0  0
    8.8376    1.1440    0.0000 H   0  0  0  0  0  0  0  0  0  0  0  0
    5.9980    0.3284    0.0000 N   0  0  0  0  0  0  0  0  0  0  0  0
    5.1158    1.5415    0.0000 H   0  0  0  0  0  0  0  0  0  0  0  0
    5.3885   -1.0422    0.0000 C   0  0  0  0  0  0  0  0  0  0  0  0
    5.2846   -2.5386    0.0000 H   0  0  0  0  0  0  0  0  0  0  0  0
    6.8441   -1.4044    0.0000 H   0  0  0  0  0  0  0  0  0  0  0  0
    3.8968   -1.1996    0.0000 C   0  0  0  0  0  0  0  0  0  0  0  0
    2.8971   -0.0913    0.0000 C   0  0  0  0  0  0  0  0  0  0  0  0
    3.2126    1.3752    0.0000 H   0  0  0  0  0  0  0  0  0  0  0  0
    1.5213   -0.6941    0.0000 N   0  0  0  0  0  0  0  0  0  0  0  0
    1.6871   -2.1870    0.0000 C   0  0  0  0  0  0  0  0  0  0  0  0
    3.1468   -2.4987    0.0000 C   0  0  0  0  0  0  0  0  0  0  0  0
    3.7563   -3.8693    0.0000 H   0  0  0  0  0  0  0  0  0  0  0  0
    0.5748   -3.1935    0.0000 C   0  0  0  0  0  0  0  0  0  0  0  0
    0.8885   -4.6612    0.0000 C   0  0  0  0  0  0  0  0  0  0  0  0
   -0.2254   -5.6658    0.0000 C   0  0  0  0  0  0  0  0  0  0  0  0
    0.0875   -7.1328    0.0000 H   0  0  0  0  0  0  0  0  0  0  0  0
   -1.6530   -5.2027    0.0000 C   0  0  0  0  0  0  0  0  0  0  0  0
   -2.7685   -6.2055    0.0000 H   0  0  0  0  0  0  0  0  0  0  0  0
   -1.9600   -3.7425    0.0000 C   0  0  0  0  0  0  0  0  0  0  0  0
   -3.3862   -3.2779    0.0000 H   0  0  0  0  0  0  0  0  0  0  0  0
   -0.8461   -2.7379    0.0000 C   0  0  0  0  0  0  0  0  0  0  0  0
   -1.1614   -1.2714    0.0000 H   0  0  0  0  0  0  0  0  0  0  0  0
    2.3156   -5.1233    0.0000 F   0  0  0  0  0  0  0  0  0  0  0  0
    0.2223    0.0559    0.0000 S   0  0  0  0  0  0  0  0  0  0  0  0
   -1.2550    0.3163    0.0000 O   0  0  0  0  0  0  0  0  0  0  0  0
   -0.2908   -1.3537    0.0000 O   0  0  0  0  0  0  0  0  0  0  0  0
    0.2223    2.0359    0.0000 C   0  0  0  0  0  0  0  0  0  0  0  0
    1.5212    2.7861    0.0000 C   0  0  0  0  0  0  0  0  0  0  0  0
    2.8205    2.0365    0.0000 H   0  0  0  0  0  0  0  0  0  0  0  0
    1.5205    4.2869    0.0000 N   0  0  0  0  0  0  0  0  0  0  0  0
    0.2208    5.0375    0.0000 C   0  0  0  0  0  0  0  0  0  0  0  0
    0.2208    6.5375    0.0000 H   0  0  0  0  0  0  0  0  0  0  0  0
   -1.0781    4.2873    0.0000 C   0  0  0  0  0  0  0  0  0  0  0  0
   -2.3774    5.0369    0.0000 H   0  0  0  0  0  0  0  0  0  0  0  0
   -1.0774    2.7865    0.0000 C   0  0  0  0  0  0  0  0  0  0  0  0
   -2.3763    2.0363    0.0000 O   0  0  0  0  0  0  0  0  0  0  0  0
   -3.6755    2.7861    0.0000 H   0  0  0  0  0  0  0  0  0  0  0  0
  1  2  1  0  0  0  0 
  1  3  1  0  0  0  0 
  1  4  1  0  0  0  0 
  1  5  1  0  0  0  0 
  5  6  1  0  0  0  0 
  5  7  1  0  0  0  0 
  7  8  1  0  0  0  0 
  7  9  1  0  0  0  0 
  7 10  1  0  0  0  0 
 10 11  2  0  0  0  0 
 11 12  1  0  0  0  0 
 11 13  1  0  0  0  0 
 13 14  1  0  0  0  0 
 14 15  2  0  0  0  0 
 10 15  1  0  0  0  0 
 15 16  1  0  0  0  0 
 14 17  1  0  0  0  0 
 17 18  2  0  0  0  0 
 18 19  1  0  0  0  0 
 19 20  1  0  0  0  0 
 19 21  2  0  0  0  0 
 21 22  1  0  0  0  0 
 21 23  1  0  0  0  0 
 23 24  1  0  0  0  0 
 23 25  2  0  0  0  0 
 17 25  1  0  0  0  0 
 25 26  1  0  0  0  0 
 18 27  1  0  0  0  0 
 13 28  1  0  0  0  0 
 28 29  2  0  0  0  0 
 28 30  2  0  0  0  0 
 28 31  1  0  0  0  0 
 31 32  2  0  0  0  0 
 32 33  1  0  0  0  0 
 32 34  1  0  0  0  0 
 34 35  2  0  0  0  0 
 35 36  1  0  0  0  0 
 35 37  1  0  0  0  0 
 37 38  1  0  0  0  0 
 37 39  2  0  0  0  0 
 31 39  1  0  0  0  0 
 39 40  1  0  0  0  0 
 40 41  1  0  0  0  0 
M  END
> <Rank>
20

> <Priority_score>
0.084

> <Reaction_type>
aromatic hydroxylation

> <Parent_ID>
39

> <Parent_InChI>
InChI=1S/C17H16FN3O2S/c1-19-10-13-9-17(15-6-2-3-7-16(15)18)21(12-13)24(22,23)14-5-4-8-20-11-14/h2-9,11-12,19H,10H2,1H3

> <Parent_SMILES>
CNCc1cc(-c2ccccc2F)n(S(=O)(=O)c2cccnc2)c1

$$$$
Molecule 39_metabolite 21
  CDK     0516241031

 41 43  0  0  0  0  0  0  0  0999 V2000
   -0.0414   -6.4589    0.0000 C   0  0  0  0  0  0  0  0  0  0  0  0
   -1.5331   -6.6163    0.0000 H   0  0  0  0  0  0  0  0  0  0  0  0
    1.4142   -6.8211    0.0000 H   0  0  0  0  0  0  0  0  0  0  0  0
   -0.1454   -7.9553    0.0000 H   0  0  0  0  0  0  0  0  0  0  0  0
    0.5681   -5.0883    0.0000 N   0  0  0  0  0  0  0  0  0  0  0  0
    2.0598   -4.9308    0.0000 H   0  0  0  0  0  0  0  0  0  0  0  0
   -0.3141   -3.8752    0.0000 C   0  0  0  0  0  0  0  0  0  0  0  0
   -1.5580   -3.0369    0.0000 H   0  0  0  0  0  0  0  0  0  0  0  0
   -1.3556   -4.9546    0.0000 H   0  0  0  0  0  0  0  0  0  0  0  0
    0.2954   -2.5046    0.0000 C   0  0  0  0  0  0  0  0  0  0  0  0
    1.7552   -2.1929    0.0000 C   0  0  0  0  0  0  0  0  0  0  0  0
    2.8674   -3.1994    0.0000 H   0  0  0  0  0  0  0  0  0  0  0  0
    1.9209   -0.7001    0.0000 N   0  0  0  0  0  0  0  0  0  0  0  0
    0.5452   -0.0972    0.0000 C   0  0  0  0  0  0  0  0  0  0  0  0
   -0.4546   -1.2055    0.0000 C   0  0  0  0  0  0  0  0  0  0  0  0
   -1.9463   -1.0481    0.0000 H   0  0  0  0  0  0  0  0  0  0  0  0
    0.2296    1.3693    0.0000 C   0  0  0  0  0  0  0  0  0  0  0  0
   -1.1988    1.8297    0.0000 C   0  0  0  0  0  0  0  0  0  0  0  0
   -1.5152    3.2968    0.0000 C   0  0  0  0  0  0  0  0  0  0  0  0
   -2.9431    3.7564    0.0000 H   0  0  0  0  0  0  0  0  0  0  0  0
   -0.4032    4.3035    0.0000 C   0  0  0  0  0  0  0  0  0  0  0  0
   -0.7187    5.7699    0.0000 H   0  0  0  0  0  0  0  0  0  0  0  0
    1.0253    3.8430    0.0000 C   0  0  0  0  0  0  0  0  0  0  0  0
    2.1373    4.8497    0.0000 H   0  0  0  0  0  0  0  0  0  0  0  0
    1.3417    2.3759    0.0000 C   0  0  0  0  0  0  0  0  0  0  0  0
    2.7696    1.9164    0.0000 F   0  0  0  0  0  0  0  0  0  0  0  0
   -2.3109    0.8231    0.0000 O   0  0  0  0  0  0  0  0  0  0  0  0
   -3.7387    1.2828    0.0000 H   0  0  0  0  0  0  0  0  0  0  0  0
    3.2200    0.0499    0.0000 S   0  0  0  0  0  0  0  0  0  0  0  0
    4.1841    1.1990    0.0000 O   0  0  0  0  0  0  0  0  0  0  0  0
    2.2558    1.1990    0.0000 O   0  0  0  0  0  0  0  0  0  0  0  0
    4.9347   -0.9401    0.0000 C   0  0  0  0  0  0  0  0  0  0  0  0
    4.9349   -2.4409    0.0000 C   0  0  0  0  0  0  0  0  0  0  0  0
    3.6358   -3.1907    0.0000 H   0  0  0  0  0  0  0  0  0  0  0  0
    6.2343   -3.1919    0.0000 C   0  0  0  0  0  0  0  0  0  0  0  0
    6.2338   -4.6919    0.0000 H   0  0  0  0  0  0  0  0  0  0  0  0
    7.5335   -2.4421    0.0000 C   0  0  0  0  0  0  0  0  0  0  0  0
    8.8325   -3.1921    0.0000 H   0  0  0  0  0  0  0  0  0  0  0  0
    7.5332   -0.9413    0.0000 N   0  0  0  0  0  0  0  0  0  0  0  0
    6.2338   -0.1903    0.0000 C   0  0  0  0  0  0  0  0  0  0  0  0
    6.2343    1.3097    0.0000 H   0  0  0  0  0  0  0  0  0  0  0  0
  1  2  1  0  0  0  0 
  1  3  1  0  0  0  0 
  1  4  1  0  0  0  0 
  1  5  1  0  0  0  0 
  5  6  1  0  0  0  0 
  5  7  1  0  0  0  0 
  7  8  1  0  0  0  0 
  7  9  1  0  0  0  0 
  7 10  1  0  0  0  0 
 10 11  2  0  0  0  0 
 11 12  1  0  0  0  0 
 11 13  1  0  0  0  0 
 13 14  1  0  0  0  0 
 14 15  2  0  0  0  0 
 10 15  1  0  0  0  0 
 15 16  1  0  0  0  0 
 14 17  1  0  0  0  0 
 17 18  2  0  0  0  0 
 18 19  1  0  0  0  0 
 19 20  1  0  0  0  0 
 19 21  2  0  0  0  0 
 21 22  1  0  0  0  0 
 21 23  1  0  0  0  0 
 23 24  1  0  0  0  0 
 23 25  2  0  0  0  0 
 17 25  1  0  0  0  0 
 25 26  1  0  0  0  0 
 18 27  1  0  0  0  0 
 27 28  1  0  0  0  0 
 13 29  1  0  0  0  0 
 29 30  2  0  0  0  0 
 29 31  2  0  0  0  0 
 29 32  1  0  0  0  0 
 32 33  2  0  0  0  0 
 33 34  1  0  0  0  0 
 33 35  1  0  0  0  0 
 35 36  1  0  0  0  0 
 35 37  2  0  0  0  0 
 37 38  1  0  0  0  0 
 37 39  1  0  0  0  0 
 39 40  2  0  0  0  0 
 32 40  1  0  0  0  0 
 40 41  1  0  0  0  0 
M  END
> <Rank>
21

> <Priority_score>
0.08

> <Reaction_type>
aromatic hydroxylation

> <Parent_ID>
39

> <Parent_InChI>
InChI=1S/C17H16FN3O2S/c1-19-10-13-9-17(15-6-2-3-7-16(15)18)21(12-13)24(22,23)14-5-4-8-20-11-14/h2-9,11-12,19H,10H2,1H3

> <Parent_SMILES>
CNCc1cc(-c2ccccc2F)n(S(=O)(=O)c2cccnc2)c1

$$$$
Molecule 39_metabolite 22
  CDK     0516241031

 39 41  0  0  0  0  0  0  0  0999 V2000
    5.7257   -4.3387    0.0000 C   0  0  0  0  0  0  0  0  0  0  0  0
    7.2174   -4.1813    0.0000 H   0  0  0  0  0  0  0  0  0  0  0  0
    4.3778   -4.9969    0.0000 H   0  0  0  0  0  0  0  0  0  0  0  0
    6.1398   -5.7804    0.0000 H   0  0  0  0  0  0  0  0  0  0  0  0
    4.8435   -3.1256    0.0000 N   0  0  0  0  0  0  0  0  0  0  0  0
    5.4530   -1.7550    0.0000 H   0  0  0  0  0  0  0  0  0  0  0  0
    3.3517   -3.2830    0.0000 C   0  0  0  0  0  0  0  0  0  0  0  0
    2.7422   -4.6536    0.0000 H   0  0  0  0  0  0  0  0  0  0  0  0
    2.4695   -2.0699    0.0000 C   0  0  0  0  0  0  0  0  0  0  0  0
    2.9295   -0.6499    0.0000 C   0  0  0  0  0  0  0  0  0  0  0  0
    4.3573   -0.1899    0.0000 H   0  0  0  0  0  0  0  0  0  0  0  0
    1.7195    0.2401    0.0000 N   0  0  0  0  0  0  0  0  0  0  0  0
    0.5095   -0.6499    0.0000 C   0  0  0  0  0  0  0  0  0  0  0  0
    0.9695   -2.0699    0.0000 C   0  0  0  0  0  0  0  0  0  0  0  0
    0.0873   -3.2830    0.0000 H   0  0  0  0  0  0  0  0  0  0  0  0
   -0.9182   -0.1899    0.0000 C   0  0  0  0  0  0  0  0  0  0  0  0
   -2.0324   -1.1954    0.0000 C   0  0  0  0  0  0  0  0  0  0  0  0
   -3.4594   -0.7331    0.0000 C   0  0  0  0  0  0  0  0  0  0  0  0
   -4.5734   -1.7375    0.0000 H   0  0  0  0  0  0  0  0  0  0  0  0
   -3.7721    0.7348    0.0000 C   0  0  0  0  0  0  0  0  0  0  0  0
   -5.1983    1.1996    0.0000 H   0  0  0  0  0  0  0  0  0  0  0  0
   -2.6610    1.7308    0.0000 C   0  0  0  0  0  0  0  0  0  0  0  0
   -2.9719    3.1983    0.0000 H   0  0  0  0  0  0  0  0  0  0  0  0
   -1.2341    1.2685    0.0000 C   0  0  0  0  0  0  0  0  0  0  0  0
   -0.1217    2.2747    0.0000 H   0  0  0  0  0  0  0  0  0  0  0  0
   -1.7191   -2.6623    0.0000 F   0  0  0  0  0  0  0  0  0  0  0  0
    1.7195    1.7401    0.0000 S   0  0  0  0  0  0  0  0  0  0  0  0
    1.2065    3.1497    0.0000 O   0  0  0  0  0  0  0  0  0  0  0  0
    0.2423    1.4796    0.0000 O   0  0  0  0  0  0  0  0  0  0  0  0
    3.4343    2.7301    0.0000 C   0  0  0  0  0  0  0  0  0  0  0  0
    4.7341    1.9799    0.0000 C   0  0  0  0  0  0  0  0  0  0  0  0
    4.7339    0.4799    0.0000 H   0  0  0  0  0  0  0  0  0  0  0  0
    6.0343    2.7297    0.0000 C   0  0  0  0  0  0  0  0  0  0  0  0
    7.3331    1.9793    0.0000 H   0  0  0  0  0  0  0  0  0  0  0  0
    6.0345    4.2297    0.0000 C   0  0  0  0  0  0  0  0  0  0  0  0
    7.3335    4.9797    0.0000 H   0  0  0  0  0  0  0  0  0  0  0  0
    4.7346    4.9799    0.0000 N   0  0  0  0  0  0  0  0  0  0  0  0
    3.4345    4.2301    0.0000 C   0  0  0  0  0  0  0  0  0  0  0  0
    2.1357    4.9805    0.0000 H   0  0  0  0  0  0  0  0  0  0  0  0
  1  2  1  0  0  0  0 
  1  3  1  0  0  0  0 
  1  4  1  0  0  0  0 
  1  5  1  0  0  0  0 
  5  6  1  4  0  0  0 
  5  7  2  0  0  0  0 
  7  8  1  0  0  0  0 
  7  9  1  0  0  0  0 
  9 10  2  0  0  0  0 
 10 11  1  0  0  0  0 
 10 12  1  0  0  0  0 
 12 13  1  0  0  0  0 
 13 14  2  0  0  0  0 
  9 14  1  0  0  0  0 
 14 15  1  0  0  0  0 
 13 16  1  0  0  0  0 
 16 17  2  0  0  0  0 
 17 18  1  0  0  0  0 
 18 19  1  0  0  0  0 
 18 20  2  0  0  0  0 
 20 21  1  0  0  0  0 
 20 22  1  0  0  0  0 
 22 23  1  0  0  0  0 
 22 24  2  0  0  0  0 
 16 24  1  0  0  0  0 
 24 25  1  0  0  0  0 
 17 26  1  0  0  0  0 
 12 27  1  0  0  0  0 
 27 28  2  0  0  0  0 
 27 29  2  0  0  0  0 
 27 30  1  0  0  0  0 
 30 31  2  0  0  0  0 
 31 32  1  0  0  0  0 
 31 33  1  0  0  0  0 
 33 34  1  0  0  0  0 
 33 35  2  0  0  0  0 
 35 36  1  0  0  0  0 
 35 37  1  0  0  0  0 
 37 38  2  0  0  0  0 
 30 38  1  0  0  0  0 
 38 39  1  0  0  0  0 
M  CHG  1   5   1
M  END
> <Rank>
22

> <Priority_score>
0.0512

> <Reaction_type>
dehydration of N-C bond

> <Parent_ID>
39

> <Parent_InChI>
InChI=1S/C17H16FN3O2S/c1-19-10-13-9-17(15-6-2-3-7-16(15)18)21(12-13)24(22,23)14-5-4-8-20-11-14/h2-9,11-12,19H,10H2,1H3

> <Parent_SMILES>
CNCc1cc(-c2ccccc2F)n(S(=O)(=O)c2cccnc2)c1

$$$$
Molecule 39_metabolite 23
  CDK     0516241031

 38 40  0  0  0  0  0  0  0  0999 V2000
    5.7257   -4.3387    0.0000 C   0  0  0  0  0  0  0  0  0  0  0  0
    7.2174   -4.1813    0.0000 H   0  0  0  0  0  0  0  0  0  0  0  0
    4.3778   -4.9969    0.0000 H   0  0  0  0  0  0  0  0  0  0  0  0
    6.1398   -5.7804    0.0000 H   0  0  0  0  0  0  0  0  0  0  0  0
    4.8435   -3.1256    0.0000 N   0  0  0  0  0  0  0  0  0  0  0  0
    3.3517   -3.2830    0.0000 C   0  0  0  0  0  0  0  0  0  0  0  0
    2.7422   -4.6536    0.0000 H   0  0  0  0  0  0  0  0  0  0  0  0
    2.4695   -2.0699    0.0000 C   0  0  0  0  0  0  0  0  0  0  0  0
    2.9295   -0.6499    0.0000 C   0  0  0  0  0  0  0  0  0  0  0  0
    4.3573   -0.1899    0.0000 H   0  0  0  0  0  0  0  0  0  0  0  0
    1.7195    0.2401    0.0000 N   0  0  0  0  0  0  0  0  0  0  0  0
    0.5095   -0.6499    0.0000 C   0  0  0  0  0  0  0  0  0  0  0  0
    0.9695   -2.0699    0.0000 C   0  0  0  0  0  0  0  0  0  0  0  0
    0.0873   -3.2830    0.0000 H   0  0  0  0  0  0  0  0  0  0  0  0
   -0.9182   -0.1899    0.0000 C   0  0  0  0  0  0  0  0  0  0  0  0
   -2.0324   -1.1954    0.0000 C   0  0  0  0  0  0  0  0  0  0  0  0
   -3.4594   -0.7331    0.0000 C   0  0  0  0  0  0  0  0  0  0  0  0
   -4.5734   -1.7375    0.0000 H   0  0  0  0  0  0  0  0  0  0  0  0
   -3.7721    0.7348    0.0000 C   0  0  0  0  0  0  0  0  0  0  0  0
   -5.1983    1.1996    0.0000 H   0  0  0  0  0  0  0  0  0  0  0  0
   -2.6610    1.7308    0.0000 C   0  0  0  0  0  0  0  0  0  0  0  0
   -2.9719    3.1983    0.0000 H   0  0  0  0  0  0  0  0  0  0  0  0
   -1.2341    1.2685    0.0000 C   0  0  0  0  0  0  0  0  0  0  0  0
   -0.1217    2.2747    0.0000 H   0  0  0  0  0  0  0  0  0  0  0  0
   -1.7191   -2.6623    0.0000 F   0  0  0  0  0  0  0  0  0  0  0  0
    1.7195    1.7401    0.0000 S   0  0  0  0  0  0  0  0  0  0  0  0
    1.2065    3.1497    0.0000 O   0  0  0  0  0  0  0  0  0  0  0  0
    0.2423    1.4796    0.0000 O   0  0  0  0  0  0  0  0  0  0  0  0
    3.4343    2.7301    0.0000 C   0  0  0  0  0  0  0  0  0  0  0  0
    4.7341    1.9799    0.0000 C   0  0  0  0  0  0  0  0  0  0  0  0
    4.7339    0.4799    0.0000 H   0  0  0  0  0  0  0  0  0  0  0  0
    6.0343    2.7297    0.0000 C   0  0  0  0  0  0  0  0  0  0  0  0
    7.3331    1.9793    0.0000 H   0  0  0  0  0  0  0  0  0  0  0  0
    6.0345    4.2297    0.0000 C   0  0  0  0  0  0  0  0  0  0  0  0
    7.3335    4.9797    0.0000 H   0  0  0  0  0  0  0  0  0  0  0  0
    4.7346    4.9799    0.0000 N   0  0  0  0  0  0  0  0  0  0  0  0
    3.4345    4.2301    0.0000 C   0  0  0  0  0  0  0  0  0  0  0  0
    2.1357    4.9805    0.0000 H   0  0  0  0  0  0  0  0  0  0  0  0
  1  2  1  0  0  0  0 
  1  3  1  0  0  0  0 
  1  4  1  0  0  0  0 
  1  5  1  0  0  0  0 
  5  6  2  0  0  0  0 
  6  7  1  4  0  0  0 
  6  8  1  0  0  0  0 
  8  9  2  0  0  0  0 
  9 10  1  0  0  0  0 
  9 11  1  0  0  0  0 
 11 12  1  0  0  0  0 
 12 13  2  0  0  0  0 
  8 13  1  0  0  0  0 
 13 14  1  0  0  0  0 
 12 15  1  0  0  0  0 
 15 16  2  0  0  0  0 
 16 17  1  0  0  0  0 
 17 18  1  0  0  0  0 
 17 19  2  0  0  0  0 
 19 20  1  0  0  0  0 
 19 21  1  0  0  0  0 
 21 22  1  0  0  0  0 
 21 23  2  0  0  0  0 
 15 23  1  0  0  0  0 
 23 24  1  0  0  0  0 
 16 25  1  0  0  0  0 
 11 26  1  0  0  0  0 
 26 27  2  0  0  0  0 
 26 28  2  0  0  0  0 
 26 29  1  0  0  0  0 
 29 30  2  0  0  0  0 
 30 31  1  0  0  0  0 
 30 32  1  0  0  0  0 
 32 33  1  0  0  0  0 
 32 34  2  0  0  0  0 
 34 35  1  0  0  0  0 
 34 36  1  0  0  0  0 
 36 37  2  0  0  0  0 
 29 37  1  0  0  0  0 
 37 38  1  0  0  0  0 
M  END
> <Rank>
22

> <Priority_score>
0.0512

> <Reaction_type>
dehydration of N-C bond

> <Parent_ID>
39

> <Parent_InChI>
InChI=1S/C17H16FN3O2S/c1-19-10-13-9-17(15-6-2-3-7-16(15)18)21(12-13)24(22,23)14-5-4-8-20-11-14/h2-9,11-12,19H,10H2,1H3

> <Parent_SMILES>
CNCc1cc(-c2ccccc2F)n(S(=O)(=O)c2cccnc2)c1

$$$$
Molecule 39_metabolite 24
  CDK     0516241031

 41 43  0  0  0  0  0  0  0  0999 V2000
    7.0464    1.2513    0.0000 C   0  0  0  0  0  0  0  0  0  0  0  0
    7.9286    0.0382    0.0000 H   0  0  0  0  0  0  0  0  0  0  0  0
    6.6323    2.6930    0.0000 H   0  0  0  0  0  0  0  0  0  0  0  0
    8.3943    1.9095    0.0000 H   0  0  0  0  0  0  0  0  0  0  0  0
    5.5546    1.0939    0.0000 N   0  0  0  0  0  0  0  0  0  0  0  0
    4.6724    2.3070    0.0000 H   0  0  0  0  0  0  0  0  0  0  0  0
    4.9451   -0.2767    0.0000 C   0  0  0  0  0  0  0  0  0  0  0  0
    4.8412   -1.7731    0.0000 H   0  0  0  0  0  0  0  0  0  0  0  0
    6.4007   -0.6389    0.0000 H   0  0  0  0  0  0  0  0  0  0  0  0
    3.4534   -0.4342    0.0000 C   0  0  0  0  0  0  0  0  0  0  0  0
    2.4537    0.6742    0.0000 C   0  0  0  0  0  0  0  0  0  0  0  0
    2.7692    2.1407    0.0000 H   0  0  0  0  0  0  0  0  0  0  0  0
    1.0779    0.0713    0.0000 N   0  0  0  0  0  0  0  0  0  0  0  0
    1.2437   -1.4216    0.0000 C   0  0  0  0  0  0  0  0  0  0  0  0
    2.7034   -1.7332    0.0000 C   0  0  0  0  0  0  0  0  0  0  0  0
    3.3129   -3.1038    0.0000 H   0  0  0  0  0  0  0  0  0  0  0  0
    0.1315   -2.4280    0.0000 C   0  0  0  0  0  0  0  0  0  0  0  0
    0.4452   -3.8957    0.0000 C   0  0  0  0  0  0  0  0  0  0  0  0
   -0.6687   -4.9003    0.0000 C   0  0  0  0  0  0  0  0  0  0  0  0
   -0.3559   -6.3673    0.0000 H   0  0  0  0  0  0  0  0  0  0  0  0
   -2.0963   -4.4372    0.0000 C   0  0  0  0  0  0  0  0  0  0  0  0
   -3.2119   -5.4400    0.0000 H   0  0  0  0  0  0  0  0  0  0  0  0
   -2.4034   -2.9770    0.0000 C   0  0  0  0  0  0  0  0  0  0  0  0
   -3.8296   -2.5125    0.0000 H   0  0  0  0  0  0  0  0  0  0  0  0
   -1.2895   -1.9724    0.0000 C   0  0  0  0  0  0  0  0  0  0  0  0
   -1.6047   -0.5059    0.0000 H   0  0  0  0  0  0  0  0  0  0  0  0
    1.8722   -4.3579    0.0000 F   0  0  0  0  0  0  0  0  0  0  0  0
   -0.6368    1.0613    0.0000 S   0  0  0  0  0  0  0  0  0  0  0  0
   -1.9359    1.8113    0.0000 O   0  0  0  0  0  0  0  0  0  0  0  0
   -1.9359    0.3113    0.0000 O   0  0  0  0  0  0  0  0  0  0  0  0
   -0.6368   -0.4387    0.0000 O   0  0  0  0  0  0  0  0  0  0  0  0
   -0.6368    3.0413    0.0000 C   0  0  0  0  0  0  0  0  0  0  0  0
    0.6628    3.7919    0.0000 C   0  0  0  0  0  0  0  0  0  0  0  0
    1.9617    3.0417    0.0000 H   0  0  0  0  0  0  0  0  0  0  0  0
    0.6635    5.2928    0.0000 C   0  0  0  0  0  0  0  0  0  0  0  0
    1.9628    6.0424    0.0000 H   0  0  0  0  0  0  0  0  0  0  0  0
   -0.6354    6.0430    0.0000 C   0  0  0  0  0  0  0  0  0  0  0  0
   -0.6354    7.5430    0.0000 H   0  0  0  0  0  0  0  0  0  0  0  0
   -1.9350    5.2924    0.0000 N   0  0  0  0  0  0  0  0  0  0  0  0
   -1.9357    3.7915    0.0000 C   0  0  0  0  0  0  0  0  0  0  0  0
   -3.2350    3.0419    0.0000 H   0  0  0  0  0  0  0  0  0  0  0  0
  1  2  1  0  0  0  0 
  1  3  1  0  0  0  0 
  1  4  1  0  0  0  0 
  1  5  1  0  0  0  0 
  5  6  1  0  0  0  0 
  5  7  1  0  0  0  0 
  7  8  1  0  0  0  0 
  7  9  1  0  0  0  0 
  7 10  1  0  0  0  0 
 10 11  2  0  0  0  0 
 11 12  1  0  0  0  0 
 11 13  1  0  0  0  0 
 13 14  1  0  0  0  0 
 14 15  2  0  0  0  0 
 10 15  1  0  0  0  0 
 15 16  1  0  0  0  0 
 14 17  1  0  0  0  0 
 17 18  2  0  0  0  0 
 18 19  1  0  0  0  0 
 19 20  1  0  0  0  0 
 19 21  2  0  0  0  0 
 21 22  1  0  0  0  0 
 21 23  1  0  0  0  0 
 23 24  1  0  0  0  0 
 23 25  2  0  0  0  0 
 17 25  1  0  0  0  0 
 25 26  1  0  0  0  0 
 18 27  1  0  0  0  0 
 13 28  1  0  0  0  0 
 28 29  2  0  0  0  0 
 28 30  2  0  0  0  0 
 28 31  2  0  0  0  0 
 28 32  1  0  0  0  0 
 32 33  2  0  0  0  0 
 33 34  1  0  0  0  0 
 33 35  1  0  0  0  0 
 35 36  1  0  0  0  0 
 35 37  2  0  0  0  0 
 37 38  1  0  0  0  0 
 37 39  1  0  0  0  0 
 39 40  2  0  0  0  0 
 32 40  1  0  0  0  0 
 40 41  1  0  0  0  0 
M  END
> <Rank>
24

> <Priority_score>
0.048

> <Reaction_type>
S-oxidation

> <Parent_ID>
39

> <Parent_InChI>
InChI=1S/C17H16FN3O2S/c1-19-10-13-9-17(15-6-2-3-7-16(15)18)21(12-13)24(22,23)14-5-4-8-20-11-14/h2-9,11-12,19H,10H2,1H3

> <Parent_SMILES>
CNCc1cc(-c2ccccc2F)n(S(=O)(=O)c2cccnc2)c1

$$$$
Molecule 39_metabolite 25
  CDK     0516241031

 41 43  0  0  0  0  0  0  0  0999 V2000
   -0.0421   -6.4585    0.0000 C   0  0  0  0  0  0  0  0  0  0  0  0
   -1.5338   -6.6159    0.0000 H   0  0  0  0  0  0  0  0  0  0  0  0
    1.4136   -6.8207    0.0000 H   0  0  0  0  0  0  0  0  0  0  0  0
   -0.1460   -7.9549    0.0000 H   0  0  0  0  0  0  0  0  0  0  0  0
    0.5674   -5.0879    0.0000 N   0  0  0  0  0  0  0  0  0  0  0  0
    2.0592   -4.9305    0.0000 H   0  0  0  0  0  0  0  0  0  0  0  0
   -0.3148   -3.8748    0.0000 C   0  0  0  0  0  0  0  0  0  0  0  0
   -1.5587   -3.0365    0.0000 H   0  0  0  0  0  0  0  0  0  0  0  0
   -1.3563   -4.9542    0.0000 H   0  0  0  0  0  0  0  0  0  0  0  0
    0.2947   -2.5042    0.0000 C   0  0  0  0  0  0  0  0  0  0  0  0
    1.7545   -2.1926    0.0000 C   0  0  0  0  0  0  0  0  0  0  0  0
    2.8667   -3.1990    0.0000 H   0  0  0  0  0  0  0  0  0  0  0  0
    1.9203   -0.6997    0.0000 N   0  0  0  0  0  0  0  0  0  0  0  0
    0.5445   -0.0968    0.0000 C   0  0  0  0  0  0  0  0  0  0  0  0
   -0.4553   -1.2051    0.0000 C   0  0  0  0  0  0  0  0  0  0  0  0
   -1.9470   -1.0477    0.0000 H   0  0  0  0  0  0  0  0  0  0  0  0
    0.2290    1.3697    0.0000 C   0  0  0  0  0  0  0  0  0  0  0  0
   -1.1987    1.8299    0.0000 C   0  0  0  0  0  0  0  0  0  0  0  0
   -1.5137    3.2973    0.0000 C   0  0  0  0  0  0  0  0  0  0  0  0
   -2.9413    3.7575    0.0000 H   0  0  0  0  0  0  0  0  0  0  0  0
   -0.4010    4.3045    0.0000 C   0  0  0  0  0  0  0  0  0  0  0  0
   -0.7165    5.7709    0.0000 H   0  0  0  0  0  0  0  0  0  0  0  0
    1.0267    3.8443    0.0000 C   0  0  0  0  0  0  0  0  0  0  0  0
    2.1392    4.8504    0.0000 H   0  0  0  0  0  0  0  0  0  0  0  0
    1.3416    2.3769    0.0000 C   0  0  0  0  0  0  0  0  0  0  0  0
    2.7693    1.9167    0.0000 H   0  0  0  0  0  0  0  0  0  0  0  0
   -2.3112    0.8238    0.0000 O   0  0  0  0  0  0  0  0  0  0  0  0
   -3.7388    1.2842    0.0000 H   0  0  0  0  0  0  0  0  0  0  0  0
    3.2193    0.0503    0.0000 S   0  0  0  0  0  0  0  0  0  0  0  0
    4.1835    1.1994    0.0000 O   0  0  0  0  0  0  0  0  0  0  0  0
    2.2551    1.1994    0.0000 O   0  0  0  0  0  0  0  0  0  0  0  0
    4.9340   -0.9397    0.0000 C   0  0  0  0  0  0  0  0  0  0  0  0
    4.9343   -2.4405    0.0000 C   0  0  0  0  0  0  0  0  0  0  0  0
    3.6351   -3.1903    0.0000 H   0  0  0  0  0  0  0  0  0  0  0  0
    6.2337   -3.1915    0.0000 C   0  0  0  0  0  0  0  0  0  0  0  0
    6.2332   -4.6915    0.0000 H   0  0  0  0  0  0  0  0  0  0  0  0
    7.5328   -2.4418    0.0000 C   0  0  0  0  0  0  0  0  0  0  0  0
    8.8319   -3.1918    0.0000 H   0  0  0  0  0  0  0  0  0  0  0  0
    7.5326   -0.9409    0.0000 N   0  0  0  0  0  0  0  0  0  0  0  0
    6.2332   -0.1899    0.0000 C   0  0  0  0  0  0  0  0  0  0  0  0
    6.2337    1.3101    0.0000 H   0  0  0  0  0  0  0  0  0  0  0  0
  1  2  1  0  0  0  0 
  1  3  1  0  0  0  0 
  1  4  1  0  0  0  0 
  1  5  1  0  0  0  0 
  5  6  1  0  0  0  0 
  5  7  1  0  0  0  0 
  7  8  1  0  0  0  0 
  7  9  1  0  0  0  0 
  7 10  1  0  0  0  0 
 10 11  2  0  0  0  0 
 11 12  1  0  0  0  0 
 11 13  1  0  0  0  0 
 13 14  1  0  0  0  0 
 14 15  2  0  0  0  0 
 10 15  1  0  0  0  0 
 15 16  1  0  0  0  0 
 14 17  1  0  0  0  0 
 17 18  2  0  0  0  0 
 18 19  1  0  0  0  0 
 19 20  1  0  0  0  0 
 19 21  2  0  0  0  0 
 21 22  1  0  0  0  0 
 21 23  1  0  0  0  0 
 23 24  1  0  0  0  0 
 23 25  2  0  0  0  0 
 17 25  1  0  0  0  0 
 25 26  1  0  0  0  0 
 18 27  1  0  0  0  0 
 27 28  1  0  0  0  0 
 13 29  1  0  0  0  0 
 29 30  2  0  0  0  0 
 29 31  2  0  0  0  0 
 29 32  1  0  0  0  0 
 32 33  2  0  0  0  0 
 33 34  1  0  0  0  0 
 33 35  1  0  0  0  0 
 35 36  1  0  0  0  0 
 35 37  2  0  0  0  0 
 37 38  1  0  0  0  0 
 37 39  1  0  0  0  0 
 39 40  2  0  0  0  0 
 32 40  1  0  0  0  0 
 40 41  1  0  0  0  0 
M  END
> <Rank>
25

> <Priority_score>
0.0072

> <Reaction_type>
oxidative dehalogenation benzyl

> <Parent_ID>
39

> <Parent_InChI>
InChI=1S/C17H16FN3O2S/c1-19-10-13-9-17(15-6-2-3-7-16(15)18)21(12-13)24(22,23)14-5-4-8-20-11-14/h2-9,11-12,19H,10H2,1H3

> <Parent_SMILES>
CNCc1cc(-c2ccccc2F)n(S(=O)(=O)c2cccnc2)c1

$$$$
Molecule 40
  CDK     0516241031

 12 12  0  0  0  0  0  0  0  0999 V2000
    0.9750    3.1329    0.0000 C   0  0  0  0  0  0  0  0  0  0  0  0
    0.9750    1.6329    0.0000 C   0  0  1  0  0  0  0  0  0  0  0  0
   -0.3240    0.8829    0.0000 C   0  0  2  0  0  0  0  0  0  0  0  0
   -1.6231    1.6329    0.0000 C   0  0  0  0  0  0  0  0  0  0  0  0
   -2.9226    0.8821    0.0000 C   0  0  0  0  0  0  0  0  0  0  0  0
   -4.2216    1.6321    0.0000 C   0  0  0  0  0  0  0  0  0  0  0  0
   -4.2212    3.1329    0.0000 C   0  0  0  0  0  0  0  0  0  0  0  0
   -2.9216    3.8837    0.0000 C   0  0  0  0  0  0  0  0  0  0  0  0
   -1.6226    3.1337    0.0000 C   0  0  0  0  0  0  0  0  0  0  0  0
   -0.3240   -0.6171    0.0000 O   0  0  0  0  0  0  0  0  0  0  0  0
    2.2740    0.8829    0.0000 N   0  0  0  0  0  0  0  0  0  0  0  0
    3.5731    1.6329    0.0000 C   0  0  0  0  0  0  0  0  0  0  0  0
  2  1  1  6  0  0  0 
  2  3  1  0  0  0  0 
  3  4  1  0  0  0  0 
  4  5  2  0  0  0  0 
  5  6  1  0  0  0  0 
  6  7  2  0  0  0  0 
  7  8  1  0  0  0  0 
  8  9  2  0  0  0  0 
  4  9  1  0  0  0  0 
  3 10  1  1  0  0  0 
  2 11  1  0  0  0  0 
 11 12  1  0  0  0  0 
M  END
> <SMILES>
CN[C@@H](C)[C@@H](O)c1ccccc1

$$$$
Molecule 40_metabolite 1
  CDK     0516241031

 32 32  0  0  0  0  0  0  0  0999 V2000
   -2.6432    2.2839    0.0000 C   0  0  0  0  0  0  0  0  0  0  0  0
   -3.7923    3.2481    0.0000 H   0  0  0  0  0  0  0  0  0  0  0  0
   -3.7923    1.3197    0.0000 H   0  0  0  0  0  0  0  0  0  0  0  0
   -1.8932    0.9849    0.0000 H   0  0  0  0  0  0  0  0  0  0  0  0
   -1.2337    2.7970    0.0000 C   0  0  1  0  0  0  0  0  0  0  0  0
   -0.9732    1.3197    0.0000 H   0  0  0  0  0  0  0  0  0  0  0  0
    0.2663    2.7970    0.0000 C   0  0  2  0  0  0  0  0  0  0  0  0
    1.6759    3.3100    0.0000 H   0  0  0  0  0  0  0  0  0  0  0  0
    1.0163    1.4979    0.0000 C   0  0  0  0  0  0  0  0  0  0  0  0
    2.5172    1.4984    0.0000 C   0  0  0  0  0  0  0  0  0  0  0  0
    3.2670    2.7976    0.0000 H   0  0  0  0  0  0  0  0  0  0  0  0
    3.2672    0.1994    0.0000 C   0  0  0  0  0  0  0  0  0  0  0  0
    4.7672    0.1991    0.0000 H   0  0  0  0  0  0  0  0  0  0  0  0
    2.5163   -1.1002    0.0000 C   0  0  0  0  0  0  0  0  0  0  0  0
    3.2663   -2.3992    0.0000 H   0  0  0  0  0  0  0  0  0  0  0  0
    1.0155   -1.1006    0.0000 C   0  0  0  0  0  0  0  0  0  0  0  0
    0.2657   -2.3998    0.0000 H   0  0  0  0  0  0  0  0  0  0  0  0
    0.2655    0.1984    0.0000 C   0  0  0  0  0  0  0  0  0  0  0  0
   -1.2345    0.1986    0.0000 H   0  0  0  0  0  0  0  0  0  0  0  0
    0.0059    4.2742    0.0000 O   0  0  0  0  0  0  0  0  0  0  0  0
    1.1549    5.2383    0.0000 H   0  0  0  0  0  0  0  0  0  0  0  0
   -1.9837    4.0960    0.0000 N   0  0  0  0  0  0  0  0  0  0  0  0
   -3.9637    4.0960    0.0000 C   0  0  0  0  0  0  0  0  0  0  0  0
   -4.7137    5.3950    0.0000 H   0  0  0  0  0  0  0  0  0  0  0  0
   -4.2241    2.6188    0.0000 H   0  0  0  0  0  0  0  0  0  0  0  0
   -5.3732    3.5830    0.0000 H   0  0  0  0  0  0  0  0  0  0  0  0
   -1.2337    5.3950    0.0000 C   0  0  0  0  0  0  0  0  0  0  0  0
    0.2663    5.3950    0.0000 O   0  0  0  0  0  0  0  0  0  0  0  0
   -1.9837    6.6941    0.0000 C   0  0  0  0  0  0  0  0  0  0  0  0
   -1.2337    7.9931    0.0000 H   0  0  0  0  0  0  0  0  0  0  0  0
   -3.1327    5.7299    0.0000 H   0  0  0  0  0  0  0  0  0  0  0  0
   -3.1327    7.6583    0.0000 H   0  0  0  0  0  0  0  0  0  0  0  0
  1  2  1  0  0  0  0 
  1  3  1  0  0  0  0 
  1  4  1  0  0  0  0 
  5  1  1  6  0  0  0 
  5  6  1  1  0  0  0 
  5  7  1  0  0  0  0 
  7  8  1  6  0  0  0 
  7  9  1  0  0  0  0 
  9 10  2  0  0  0  0 
 10 11  1  0  0  0  0 
 10 12  1  0  0  0  0 
 12 13  1  0  0  0  0 
 12 14  2  0  0  0  0 
 14 15  1  0  0  0  0 
 14 16  1  0  0  0  0 
 16 17  1  0  0  0  0 
 16 18  2  0  0  0  0 
  9 18  1  0  0  0  0 
 18 19  1  0  0  0  0 
  7 20  1  1  0  0  0 
 20 21  1  0  0  0  0 
  5 22  1  0  0  0  0 
 22 23  1  0  0  0  0 
 23 24  1  0  0  0  0 
 23 25  1  0  0  0  0 
 23 26  1  0  0  0  0 
 22 27  1  0  0  0  0 
 27 28  2  0  0  0  0 
 27 29  1  0  0  0  0 
 29 30  1  0  0  0  0 
 29 31  1  0  0  0  0 
 29 32  1  0  0  0  0 
M  END
> <Rank>
1

> <Priority_score>
0.824

> <Reaction_type>
N-acetylation_(NH1-CH3)

> <Parent_ID>
40

> <Parent_InChI>
InChI=1S/C10H15NO/c1-8(11-2)10(12)9-6-4-3-5-7-9/h3-8,10-12H,1-2H3

> <Parent_SMILES>
CN[C@@H](C)[C@@H](O)c1ccccc1

$$$$
Molecule 40_metabolite 2
  CDK     0516241031

 24 24  0  0  0  0  0  0  0  0999 V2000
    2.9468    2.2622    0.0000 C   0  0  0  0  0  0  0  0  0  0  0  0
    4.2458    1.5122    0.0000 H   0  0  0  0  0  0  0  0  0  0  0  0
    1.4695    2.5227    0.0000 H   0  0  0  0  0  0  0  0  0  0  0  0
    2.4337    0.8527    0.0000 H   0  0  0  0  0  0  0  0  0  0  0  0
    2.9468    3.7622    0.0000 C   0  0  1  0  0  0  0  0  0  0  0  0
    4.4240    3.5018    0.0000 H   0  0  0  0  0  0  0  0  0  0  0  0
    1.6477    4.5122    0.0000 C   0  0  2  0  0  0  0  0  0  0  0  0
    0.6835    5.6613    0.0000 H   0  0  0  0  0  0  0  0  0  0  0  0
    0.3487    3.7622    0.0000 C   0  0  0  0  0  0  0  0  0  0  0  0
   -0.9508    4.5131    0.0000 C   0  0  0  0  0  0  0  0  0  0  0  0
   -0.9506    6.0131    0.0000 H   0  0  0  0  0  0  0  0  0  0  0  0
   -2.2499    3.7631    0.0000 C   0  0  0  0  0  0  0  0  0  0  0  0
   -3.5490    4.5129    0.0000 H   0  0  0  0  0  0  0  0  0  0  0  0
   -2.2494    2.2622    0.0000 C   0  0  0  0  0  0  0  0  0  0  0  0
   -3.5484    1.5122    0.0000 H   0  0  0  0  0  0  0  0  0  0  0  0
   -0.9499    1.5114    0.0000 C   0  0  0  0  0  0  0  0  0  0  0  0
   -0.9501    0.0114    0.0000 H   0  0  0  0  0  0  0  0  0  0  0  0
    0.3492    2.2614    0.0000 C   0  0  0  0  0  0  0  0  0  0  0  0
    1.6483    1.5116    0.0000 H   0  0  0  0  0  0  0  0  0  0  0  0
    2.6119    5.6613    0.0000 O   0  0  0  0  0  0  0  0  0  0  0  0
    2.0989    7.0708    0.0000 H   0  0  0  0  0  0  0  0  0  0  0  0
    3.6968    5.0613    0.0000 N   0  0  0  0  0  0  0  0  0  0  0  0
    5.1968    5.0613    0.0000 H   0  0  0  0  0  0  0  0  0  0  0  0
    2.9468    6.3603    0.0000 H   0  0  0  0  0  0  0  0  0  0  0  0
  1  2  1  0  0  0  0 
  1  3  1  0  0  0  0 
  1  4  1  0  0  0  0 
  1  5  1  0  0  0  0 
  5  6  1  6  0  0  0 
  5  7  1  0  0  0  0 
  7  8  1  1  0  0  0 
  7  9  1  0  0  0  0 
  9 10  2  0  0  0  0 
 10 11  1  0  0  0  0 
 10 12  1  0  0  0  0 
 12 13  1  0  0  0  0 
 12 14  2  0  0  0  0 
 14 15  1  0  0  0  0 
 14 16  1  0  0  0  0 
 16 17  1  0  0  0  0 
 16 18  2  0  0  0  0 
  9 18  1  0  0  0  0 
 18 19  1  0  0  0  0 
  7 20  1  6  0  0  0 
 20 21  1  0  0  0  0 
  5 22  1  1  0  0  0 
 22 23  1  0  0  0  0 
 22 24  1  0  0  0  0 
M  END
> <Rank>
2

> <Priority_score>
0.8154158638846178

> <Reaction_type>
N-demethylation_(R-NHCH3)

> <Parent_ID>
40

> <Parent_InChI>
InChI=1S/C10H15NO/c1-8(11-2)10(12)9-6-4-3-5-7-9/h3-8,10-12H,1-2H3

> <Parent_SMILES>
CN[C@@H](C)[C@@H](O)c1ccccc1

$$$$
Molecule 40_metabolite 3
  CDK     0516241031

 28 28  0  0  0  0  0  0  0  0999 V2000
   -2.5232   -0.5444    0.0000 C   0  0  0  0  0  0  0  0  0  0  0  0
   -3.9327   -1.0575    0.0000 H   0  0  0  0  0  0  0  0  0  0  0  0
   -2.2627   -2.0217    0.0000 H   0  0  0  0  0  0  0  0  0  0  0  0
   -1.0232   -0.5444    0.0000 H   0  0  0  0  0  0  0  0  0  0  0  0
   -2.2627    0.9328    0.0000 C   0  0  1  0  0  0  0  0  0  0  0  0
   -0.8532    0.4197    0.0000 H   0  0  0  0  0  0  0  0  0  0  0  0
   -1.5127    2.2318    0.0000 C   0  0  2  0  0  0  0  0  0  0  0  0
   -1.2523    3.7090    0.0000 H   0  0  0  0  0  0  0  0  0  0  0  0
   -0.0127    2.2318    0.0000 C   0  0  0  0  0  0  0  0  0  0  0  0
    0.7373    3.5318    0.0000 C   0  0  0  0  0  0  0  0  0  0  0  0
   -0.0129    4.8307    0.0000 H   0  0  0  0  0  0  0  0  0  0  0  0
    2.2373    3.5318    0.0000 C   0  0  0  0  0  0  0  0  0  0  0  0
    2.9875    4.8307    0.0000 H   0  0  0  0  0  0  0  0  0  0  0  0
    2.9873    2.2318    0.0000 C   0  0  0  0  0  0  0  0  0  0  0  0
    4.4873    2.2318    0.0000 H   0  0  0  0  0  0  0  0  0  0  0  0
    2.2373    0.9318    0.0000 C   0  0  0  0  0  0  0  0  0  0  0  0
    2.9875   -0.3671    0.0000 H   0  0  0  0  0  0  0  0  0  0  0  0
    0.7373    0.9318    0.0000 C   0  0  0  0  0  0  0  0  0  0  0  0
   -0.0129   -0.3671    0.0000 H   0  0  0  0  0  0  0  0  0  0  0  0
   -2.9223    2.7448    0.0000 O   0  0  0  0  0  0  0  0  0  0  0  0
   -3.1827    4.2220    0.0000 H   0  0  0  0  0  0  0  0  0  0  0  0
   -4.2427    0.9328    0.0000 N   0  0  0  0  0  0  0  0  0  0  0  0
   -4.9927   -0.3663    0.0000 H   0  0  0  0  0  0  0  0  0  0  0  0
   -4.9927    2.2318    0.0000 C   0  0  0  0  0  0  0  0  0  0  0  0
   -6.1418    3.1960    0.0000 H   0  0  0  0  0  0  0  0  0  0  0  0
   -6.1418    1.2676    0.0000 H   0  0  0  0  0  0  0  0  0  0  0  0
   -4.2427    3.5308    0.0000 O   0  0  0  0  0  0  0  0  0  0  0  0
   -4.9927    4.8299    0.0000 H   0  0  0  0  0  0  0  0  0  0  0  0
  1  2  1  0  0  0  0 
  1  3  1  0  0  0  0 
  1  4  1  0  0  0  0 
  5  1  1  6  0  0  0 
  5  6  1  1  0  0  0 
  5  7  1  0  0  0  0 
  7  8  1  6  0  0  0 
  7  9  1  0  0  0  0 
  9 10  2  0  0  0  0 
 10 11  1  0  0  0  0 
 10 12  1  0  0  0  0 
 12 13  1  0  0  0  0 
 12 14  2  0  0  0  0 
 14 15  1  0  0  0  0 
 14 16  1  0  0  0  0 
 16 17  1  0  0  0  0 
 16 18  2  0  0  0  0 
  9 18  1  0  0  0  0 
 18 19  1  0  0  0  0 
  7 20  1  1  0  0  0 
 20 21  1  0  0  0  0 
  5 22  1  0  0  0  0 
 22 23  1  0  0  0  0 
 22 24  1  0  0  0  0 
 24 25  1  0  0  0  0 
 24 26  1  0  0  0  0 
 24 27  1  0  0  0  0 
 27 28  1  0  0  0  0 
M  END
> <Rank>
2

> <Priority_score>
0.8154158638846178

> <Reaction_type>
aliphatic hydroxylation

> <Parent_ID>
40

> <Parent_InChI>
InChI=1S/C10H15NO/c1-8(11-2)10(12)9-6-4-3-5-7-9/h3-8,10-12H,1-2H3

> <Parent_SMILES>
CN[C@@H](C)[C@@H](O)c1ccccc1

$$$$
Molecule 40_metabolite 4
  CDK     0516241031

 28 28  0  0  0  0  0  0  0  0999 V2000
   -3.3264    1.0124    0.0000 C   0  0  0  0  0  0  0  0  0  0  0  0
   -4.8036    1.2728    0.0000 H   0  0  0  0  0  0  0  0  0  0  0  0
   -3.8394   -0.3972    0.0000 H   0  0  0  0  0  0  0  0  0  0  0  0
   -2.0273    0.2624    0.0000 H   0  0  0  0  0  0  0  0  0  0  0  0
   -2.3622    2.1614    0.0000 C   0  0  1  0  0  0  0  0  0  0  0  0
   -1.3980    1.0124    0.0000 H   0  0  0  0  0  0  0  0  0  0  0  0
   -1.0632    2.9114    0.0000 C   0  0  2  0  0  0  0  0  0  0  0  0
   -0.0990    4.0605    0.0000 H   0  0  0  0  0  0  0  0  0  0  0  0
    0.2359    2.1614    0.0000 C   0  0  0  0  0  0  0  0  0  0  0  0
    1.5354    2.9123    0.0000 C   0  0  0  0  0  0  0  0  0  0  0  0
    1.5352    4.4123    0.0000 H   0  0  0  0  0  0  0  0  0  0  0  0
    2.8344    2.1623    0.0000 C   0  0  0  0  0  0  0  0  0  0  0  0
    4.1336    2.9121    0.0000 H   0  0  0  0  0  0  0  0  0  0  0  0
    2.8340    0.6614    0.0000 C   0  0  0  0  0  0  0  0  0  0  0  0
    4.1330   -0.0886    0.0000 H   0  0  0  0  0  0  0  0  0  0  0  0
    1.5344   -0.0894    0.0000 C   0  0  0  0  0  0  0  0  0  0  0  0
    1.5347   -1.5894    0.0000 H   0  0  0  0  0  0  0  0  0  0  0  0
    0.2354    0.6606    0.0000 C   0  0  0  0  0  0  0  0  0  0  0  0
   -1.0638   -0.0892    0.0000 H   0  0  0  0  0  0  0  0  0  0  0  0
   -2.0273    4.0605    0.0000 O   0  0  0  0  0  0  0  0  0  0  0  0
   -1.5143    5.4700    0.0000 H   0  0  0  0  0  0  0  0  0  0  0  0
   -3.6612    2.9114    0.0000 N   0  0  0  0  0  0  0  0  0  0  0  0
   -3.6612    4.4114    0.0000 C   0  0  0  0  0  0  0  0  0  0  0  0
   -2.3622    5.1614    0.0000 H   0  0  0  0  0  0  0  0  0  0  0  0
   -4.1743    5.8210    0.0000 H   0  0  0  0  0  0  0  0  0  0  0  0
   -5.1384    4.1510    0.0000 H   0  0  0  0  0  0  0  0  0  0  0  0
   -4.9603    2.1614    0.0000 O   0  0  0  0  0  0  0  0  0  0  0  0
   -6.2593    2.9114    0.0000 H   0  0  0  0  0  0  0  0  0  0  0  0
  1  2  1  0  0  0  0 
  1  3  1  0  0  0  0 
  1  4  1  0  0  0  0 
  5  1  1  6  0  0  0 
  5  6  1  1  0  0  0 
  5  7  1  0  0  0  0 
  7  8  1  6  0  0  0 
  7  9  1  0  0  0  0 
  9 10  2  0  0  0  0 
 10 11  1  0  0  0  0 
 10 12  1  0  0  0  0 
 12 13  1  0  0  0  0 
 12 14  2  0  0  0  0 
 14 15  1  0  0  0  0 
 14 16  1  0  0  0  0 
 16 17  1  0  0  0  0 
 16 18  2  0  0  0  0 
  9 18  1  0  0  0  0 
 18 19  1  0  0  0  0 
  7 20  1  1  0  0  0 
 20 21  1  0  0  0  0 
  5 22  1  0  0  0  0 
 22 23  1  0  0  0  0 
 23 24  1  0  0  0  0 
 23 25  1  0  0  0  0 
 23 26  1  0  0  0  0 
 22 27  1  0  0  0  0 
 27 28  1  0  0  0  0 
M  END
> <Rank>
2

> <Priority_score>
0.8154158638846178

> <Reaction_type>
amine hydroxylation

> <Parent_ID>
40

> <Parent_InChI>
InChI=1S/C10H15NO/c1-8(11-2)10(12)9-6-4-3-5-7-9/h3-8,10-12H,1-2H3

> <Parent_SMILES>
CN[C@@H](C)[C@@H](O)c1ccccc1

$$$$
Molecule 40_metabolite 5
  CDK     0516241031

 47 48  0  0  0  0  0  0  0  0999 V2000
    2.4545   -0.5675    0.0000 C   0  0  0  0  0  0  0  0  0  0  0  0
    1.4877    0.5794    0.0000 H   0  0  0  0  0  0  0  0  0  0  0  0
    2.9708   -1.9758    0.0000 H   0  0  0  0  0  0  0  0  0  0  0  0
    1.1572   -1.3205    0.0000 H   0  0  0  0  0  0  0  0  0  0  0  0
    3.9312   -0.3036    0.0000 C   0  0  1  0  0  0  0  0  0  0  0  0
    3.9346   -1.8036    0.0000 H   0  0  0  0  0  0  0  0  0  0  0  0
    2.9193    2.4568    0.0000 C   0  0  2  0  0  0  0  0  0  0  0  0
    1.6220    1.7038    0.0000 H   0  0  0  0  0  0  0  0  0  0  0  0
    1.6431    3.9706    0.0000 C   0  0  0  0  0  0  0  0  0  0  0  0
    2.1536    5.3819    0.0000 C   0  0  0  0  0  0  0  0  0  0  0  0
    3.6302    5.6456    0.0000 H   0  0  0  0  0  0  0  0  0  0  0  0
    1.1868    6.5288    0.0000 C   0  0  0  0  0  0  0  0  0  0  0  0
    1.6963    7.9396    0.0000 H   0  0  0  0  0  0  0  0  0  0  0  0
   -0.2906    6.2643    0.0000 C   0  0  0  0  0  0  0  0  0  0  0  0
   -1.2574    7.4111    0.0000 H   0  0  0  0  0  0  0  0  0  0  0  0
   -0.8011    4.8529    0.0000 C   0  0  0  0  0  0  0  0  0  0  0  0
   -2.2778    4.5893    0.0000 H   0  0  0  0  0  0  0  0  0  0  0  0
    0.1657    3.7061    0.0000 C   0  0  0  0  0  0  0  0  0  0  0  0
   -0.3438    2.2953    0.0000 H   0  0  0  0  0  0  0  0  0  0  0  0
    4.4962    4.3449    0.0000 O   0  0  0  0  0  0  0  0  0  0  0  0
    5.9740    4.0878    0.0000 C   0  0  0  0  0  0  0  0  0  0  0  0
    5.4674    2.6759    0.0000 H   0  0  0  0  0  0  0  0  0  0  0  0
    5.9740    5.5778    0.0000 C   0  0  0  0  0  0  0  0  0  0  0  0
    5.4621    6.9877    0.0000 H   0  0  0  0  0  0  0  0  0  0  0  0
    7.2940    6.3378    0.0000 C   0  0  0  0  0  0  0  0  0  0  0  0
    8.2628    7.4830    0.0000 H   0  0  0  0  0  0  0  0  0  0  0  0
    8.5940    5.5778    0.0000 C   0  0  0  0  0  0  0  0  0  0  0  0
   10.0707    5.3146    0.0000 H   0  0  0  0  0  0  0  0  0  0  0  0
    8.5940    4.0878    0.0000 C   0  0  0  0  0  0  0  0  0  0  0  0
    9.1067    2.6781    0.0000 H   0  0  0  0  0  0  0  0  0  0  0  0
   10.5439    4.4314    0.0000 C   0  0  0  0  0  0  0  0  0  0  0  0
   11.0571    5.8409    0.0000 O   0  0  0  0  0  0  0  0  0  0  0  0
   11.5080    3.2822    0.0000 O   0  0  0  0  0  0  0  0  0  0  0  0
   12.9852    3.5425    0.0000 H   0  0  0  0  0  0  0  0  0  0  0  0
    7.2940    3.3378    0.0000 O   0  0  0  0  0  0  0  0  0  0  0  0
    9.1121    6.9855    0.0000 O   0  0  0  0  0  0  0  0  0  0  0  0
   10.5903    7.2406    0.0000 H   0  0  0  0  0  0  0  0  0  0  0  0
    6.3328    7.4894    0.0000 O   0  0  0  0  0  0  0  0  0  0  0  0
    6.8495    8.8976    0.0000 H   0  0  0  0  0  0  0  0  0  0  0  0
    4.4967    5.3179    0.0000 O   0  0  0  0  0  0  0  0  0  0  0  0
    2.9162    7.2030    0.0000 H   0  0  0  0  0  0  0  0  0  0  0  0
    5.4090   -0.5607    0.0000 N   0  0  0  0  0  0  0  0  0  0  0  0
    6.3705    0.5906    0.0000 H   0  0  0  0  0  0  0  0  0  0  0  0
    5.9252   -1.9690    0.0000 C   0  0  0  0  0  0  0  0  0  0  0  0
    4.9637   -3.1203    0.0000 H   0  0  0  0  0  0  0  0  0  0  0  0
    7.2225   -1.2161    0.0000 H   0  0  0  0  0  0  0  0  0  0  0  0
    6.8921   -3.1159    0.0000 H   0  0  0  0  0  0  0  0  0  0  0  0
  1  2  1  0  0  0  0 
  1  3  1  0  0  0  0 
  1  4  1  0  0  0  0 
  1  5  1  0  0  0  0 
  5  6  1  6  0  0  0 
  5  7  1  0  0  0  0 
  7  8  1  1  0  0  0 
  7  9  1  6  0  0  0 
  9 10  2  0  0  0  0 
 10 11  1  0  0  0  0 
 10 12  1  0  0  0  0 
 12 13  1  0  0  0  0 
 12 14  2  0  0  0  0 
 14 15  1  0  0  0  0 
 14 16  1  0  0  0  0 
 16 17  1  0  0  0  0 
 16 18  2  0  0  0  0 
  9 18  1  0  0  0  0 
 18 19  1  0  0  0  0 
  7 20  1  0  0  0  0 
 20 21  1  0  0  0  0 
 21 22  1  0  0  0  0 
 21 23  1  0  0  0  0 
 23 24  1  0  0  0  0 
 23 25  1  0  0  0  0 
 25 26  1  0  0  0  0 
 25 27  1  0  0  0  0 
 27 28  1  0  0  0  0 
 27 29  1  0  0  0  0 
 29 30  1  0  0  0  0 
 29 31  1  0  0  0  0 
 31 32  2  0  0  0  0 
 31 33  1  0  0  0  0 
 33 34  1  0  0  0  0 
 29 35  1  0  0  0  0 
 21 35  1  0  0  0  0 
 27 36  1  0  0  0  0 
 36 37  1  0  0  0  0 
 25 38  1  0  0  0  0 
 38 39  1  0  0  0  0 
 23 40  1  0  0  0  0 
 40 41  1  0  0  0  0 
  5 42  1  1  0  0  0 
 42 43  1  0  0  0  0 
 42 44  1  0  0  0  0 
 44 45  1  0  0  0  0 
 44 46  1  0  0  0  0 
 44 47  1  0  0  0  0 
M  END
> <Rank>
5

> <Priority_score>
0.812

> <Reaction_type>
O-glucuronidation_(aliphatic_hydroxyl)

> <Parent_ID>
40

> <Parent_InChI>
InChI=1S/C10H15NO/c1-8(11-2)10(12)9-6-4-3-5-7-9/h3-8,10-12H,1-2H3

> <Parent_SMILES>
CN[C@@H](C)[C@@H](O)c1ccccc1

$$$$
Molecule 40_metabolite 6
  CDK     0516241031

 31 31  0  0  0  0  0  0  0  0999 V2000
   -2.7762    3.1005    0.0000 C   0  0  0  0  0  0  0  0  0  0  0  0
   -3.7404    1.9514    0.0000 H   0  0  0  0  0  0  0  0  0  0  0  0
   -4.0753    3.8505    0.0000 H   0  0  0  0  0  0  0  0  0  0  0  0
   -2.2632    4.5100    0.0000 H   0  0  0  0  0  0  0  0  0  0  0  0
   -1.2990    2.8400    0.0000 C   0  0  1  0  0  0  0  0  0  0  0  0
   -1.8121    1.4305    0.0000 H   0  0  0  0  0  0  0  0  0  0  0  0
   -0.0000    2.0900    0.0000 C   0  0  2  0  0  0  0  0  0  0  0  0
    1.4772    1.8295    0.0000 H   0  0  0  0  0  0  0  0  0  0  0  0
   -0.0000    0.5900    0.0000 C   0  0  0  0  0  0  0  0  0  0  0  0
    1.3000   -0.1600    0.0000 C   0  0  0  0  0  0  0  0  0  0  0  0
    2.5989    0.5902    0.0000 H   0  0  0  0  0  0  0  0  0  0  0  0
    1.3000   -1.6600    0.0000 C   0  0  0  0  0  0  0  0  0  0  0  0
    2.5989   -2.4102    0.0000 H   0  0  0  0  0  0  0  0  0  0  0  0
   -0.0000   -2.4100    0.0000 C   0  0  0  0  0  0  0  0  0  0  0  0
   -0.0000   -3.9100    0.0000 H   0  0  0  0  0  0  0  0  0  0  0  0
   -1.3000   -1.6600    0.0000 C   0  0  0  0  0  0  0  0  0  0  0  0
   -2.5989   -2.4102    0.0000 H   0  0  0  0  0  0  0  0  0  0  0  0
   -1.3000   -0.1600    0.0000 C   0  0  0  0  0  0  0  0  0  0  0  0
   -2.5989    0.5902    0.0000 H   0  0  0  0  0  0  0  0  0  0  0  0
    0.5130    3.4995    0.0000 O   0  0  0  0  0  0  0  0  0  0  0  0
    1.9902    3.7600    0.0000 S   0  0  0  0  0  0  0  0  0  0  0  0
    1.4772    5.1695    0.0000 O   0  0  0  0  0  0  0  0  0  0  0  0
    3.2893    4.5100    0.0000 O   0  0  0  0  0  0  0  0  0  0  0  0
    2.9544    2.6109    0.0000 O   0  0  0  0  0  0  0  0  0  0  0  0
    4.4316    2.8714    0.0000 H   0  0  0  0  0  0  0  0  0  0  0  0
   -1.2990    4.8200    0.0000 N   0  0  0  0  0  0  0  0  0  0  0  0
    0.0000    5.5700    0.0000 H   0  0  0  0  0  0  0  0  0  0  0  0
   -2.5981    5.5700    0.0000 C   0  0  0  0  0  0  0  0  0  0  0  0
   -3.8971    4.8200    0.0000 H   0  0  0  0  0  0  0  0  0  0  0  0
   -3.5623    6.7191    0.0000 H   0  0  0  0  0  0  0  0  0  0  0  0
   -1.6339    6.7191    0.0000 H   0  0  0  0  0  0  0  0  0  0  0  0
  1  2  1  0  0  0  0 
  1  3  1  0  0  0  0 
  1  4  1  0  0  0  0 
  5  1  1  6  0  0  0 
  5  6  1  1  0  0  0 
  5  7  1  0  0  0  0 
  7  8  1  6  0  0  0 
  7  9  1  0  0  0  0 
  9 10  2  0  0  0  0 
 10 11  1  0  0  0  0 
 10 12  1  0  0  0  0 
 12 13  1  0  0  0  0 
 12 14  2  0  0  0  0 
 14 15  1  0  0  0  0 
 14 16  1  0  0  0  0 
 16 17  1  0  0  0  0 
 16 18  2  0  0  0  0 
  9 18  1  0  0  0  0 
 18 19  1  0  0  0  0 
  7 20  1  1  0  0  0 
 20 21  1  0  0  0  0 
 21 22  2  0  0  0  0 
 21 23  2  0  0  0  0 
 21 24  1  0  0  0  0 
 24 25  1  0  0  0  0 
  5 26  1  0  0  0  0 
 26 27  1  0  0  0  0 
 26 28  1  0  0  0  0 
 28 29  1  0  0  0  0 
 28 30  1  0  0  0  0 
 28 31  1  0  0  0  0 
M  END
> <Rank>
6

> <Priority_score>
0.7237092084006462

> <Reaction_type>
sulfation_(aliphatic_hydroxyl)

> <Parent_ID>
40

> <Parent_InChI>
InChI=1S/C10H15NO/c1-8(11-2)10(12)9-6-4-3-5-7-9/h3-8,10-12H,1-2H3

> <Parent_SMILES>
CN[C@@H](C)[C@@H](O)c1ccccc1

$$$$
Molecule 40_metabolite 7
  CDK     0516241031

 26 26  0  0  0  0  0  0  0  0999 V2000
   -2.5877   -0.1290    0.0000 C   0  0  0  0  0  0  0  0  0  0  0  0
   -3.9973   -0.6420    0.0000 H   0  0  0  0  0  0  0  0  0  0  0  0
   -2.3273   -1.6062    0.0000 H   0  0  0  0  0  0  0  0  0  0  0  0
   -1.0877   -0.1290    0.0000 H   0  0  0  0  0  0  0  0  0  0  0  0
   -2.3273    1.3482    0.0000 C   0  0  1  0  0  0  0  0  0  0  0  0
   -0.9177    0.8352    0.0000 H   0  0  0  0  0  0  0  0  0  0  0  0
   -1.5773    2.6473    0.0000 C   0  0  2  0  0  0  0  0  0  0  0  0
   -1.3168    4.1245    0.0000 H   0  0  0  0  0  0  0  0  0  0  0  0
   -0.0773    2.6473    0.0000 C   0  0  0  0  0  0  0  0  0  0  0  0
    0.6727    3.9473    0.0000 C   0  0  0  0  0  0  0  0  0  0  0  0
   -0.0775    5.2462    0.0000 H   0  0  0  0  0  0  0  0  0  0  0  0
    2.1727    3.9473    0.0000 C   0  0  0  0  0  0  0  0  0  0  0  0
    2.9229    5.2462    0.0000 H   0  0  0  0  0  0  0  0  0  0  0  0
    2.9227    2.6473    0.0000 C   0  0  0  0  0  0  0  0  0  0  0  0
    4.4227    2.6473    0.0000 H   0  0  0  0  0  0  0  0  0  0  0  0
    2.1727    1.3473    0.0000 C   0  0  0  0  0  0  0  0  0  0  0  0
    2.9229    0.0484    0.0000 H   0  0  0  0  0  0  0  0  0  0  0  0
    0.6727    1.3473    0.0000 C   0  0  0  0  0  0  0  0  0  0  0  0
   -0.0775    0.0484    0.0000 H   0  0  0  0  0  0  0  0  0  0  0  0
   -2.9868    3.1603    0.0000 O   0  0  0  0  0  0  0  0  0  0  0  0
   -3.2473    4.6375    0.0000 H   0  0  0  0  0  0  0  0  0  0  0  0
   -3.8273    1.3482    0.0000 N   0  0  0  0  0  0  0  0  0  0  0  0
   -4.5773    0.0492    0.0000 H   0  0  0  0  0  0  0  0  0  0  0  0
   -4.5773    2.6473    0.0000 C   0  0  0  0  0  0  0  0  0  0  0  0
   -6.0773    2.6473    0.0000 H   0  0  0  0  0  0  0  0  0  0  0  0
   -3.8273    3.9463    0.0000 H   0  0  0  0  0  0  0  0  0  0  0  0
  1  2  1  0  0  0  0 
  1  3  1  0  0  0  0 
  1  4  1  0  0  0  0 
  5  1  1  6  0  0  0 
  5  6  1  1  0  0  0 
  5  7  1  0  0  0  0 
  7  8  1  6  0  0  0 
  7  9  1  0  0  0  0 
  9 10  2  0  0  0  0 
 10 11  1  0  0  0  0 
 10 12  1  0  0  0  0 
 12 13  1  0  0  0  0 
 12 14  2  0  0  0  0 
 14 15  1  0  0  0  0 
 14 16  1  0  0  0  0 
 16 17  1  0  0  0  0 
 16 18  2  0  0  0  0 
  9 18  1  0  0  0  0 
 18 19  1  0  0  0  0 
  7 20  1  1  0  0  0 
 20 21  1  0  0  0  0 
  5 22  1  0  0  0  0 
 22 23  1  0  0  0  0 
 22 24  2  0  0  0  0 
 24 25  1  0  0  0  0 
 24 26  1  0  0  0  0 
M  CHG  1  22   1
M  END
> <Rank>
7

> <Priority_score>
0.16308317277692358

> <Reaction_type>
dehydration of N-C bond

> <Parent_ID>
40

> <Parent_InChI>
InChI=1S/C10H15NO/c1-8(11-2)10(12)9-6-4-3-5-7-9/h3-8,10-12H,1-2H3

> <Parent_SMILES>
CN[C@@H](C)[C@@H](O)c1ccccc1

$$$$
Molecule 40_metabolite 8
  CDK     0516241031

 25 25  0  0  0  0  0  0  0  0999 V2000
    1.6718    2.6276    0.0000 C   0  0  0  0  0  0  0  0  0  0  0  0
    3.1490    2.3672    0.0000 H   0  0  0  0  0  0  0  0  0  0  0  0
    2.1849    4.0372    0.0000 H   0  0  0  0  0  0  0  0  0  0  0  0
    0.3728    3.3776    0.0000 H   0  0  0  0  0  0  0  0  0  0  0  0
    0.7076    1.4786    0.0000 C   0  0  1  0  0  0  0  0  0  0  0  0
   -0.2565    2.6276    0.0000 H   0  0  0  0  0  0  0  0  0  0  0  0
   -0.5914    0.7286    0.0000 C   0  0  0  0  0  0  0  0  0  0  0  0
   -0.5914   -0.7714    0.0000 O   0  0  0  0  0  0  0  0  0  0  0  0
   -1.8904    1.4786    0.0000 C   0  0  0  0  0  0  0  0  0  0  0  0
   -3.1899    0.7277    0.0000 C   0  0  0  0  0  0  0  0  0  0  0  0
   -3.1897   -0.7723    0.0000 H   0  0  0  0  0  0  0  0  0  0  0  0
   -4.4890    1.4777    0.0000 C   0  0  0  0  0  0  0  0  0  0  0  0
   -5.7881    0.7279    0.0000 H   0  0  0  0  0  0  0  0  0  0  0  0
   -4.4885    2.9786    0.0000 C   0  0  0  0  0  0  0  0  0  0  0  0
   -5.7875    3.7286    0.0000 H   0  0  0  0  0  0  0  0  0  0  0  0
   -3.1890    3.7294    0.0000 C   0  0  0  0  0  0  0  0  0  0  0  0
   -3.1892    5.2294    0.0000 H   0  0  0  0  0  0  0  0  0  0  0  0
   -1.8899    2.9794    0.0000 C   0  0  0  0  0  0  0  0  0  0  0  0
   -0.5908    3.7292    0.0000 H   0  0  0  0  0  0  0  0  0  0  0  0
    2.0067    0.7286    0.0000 N   0  0  0  0  0  0  0  0  0  0  0  0
    3.3057    1.4786    0.0000 H   0  0  0  0  0  0  0  0  0  0  0  0
    2.0067   -0.7714    0.0000 C   0  0  0  0  0  0  0  0  0  0  0  0
    3.3057   -1.5214    0.0000 H   0  0  0  0  0  0  0  0  0  0  0  0
    1.4937   -2.1810    0.0000 H   0  0  0  0  0  0  0  0  0  0  0  0
    0.5295   -0.5110    0.0000 H   0  0  0  0  0  0  0  0  0  0  0  0
  1  2  1  0  0  0  0 
  1  3  1  0  0  0  0 
  1  4  1  0  0  0  0 
  1  5  1  0  0  0  0 
  5  6  1  1  0  0  0 
  5  7  1  6  0  0  0 
  7  8  2  0  0  0  0 
  7  9  1  0  0  0  0 
  9 10  2  0  0  0  0 
 10 11  1  0  0  0  0 
 10 12  1  0  0  0  0 
 12 13  1  0  0  0  0 
 12 14  2  0  0  0  0 
 14 15  1  0  0  0  0 
 14 16  1  0  0  0  0 
 16 17  1  0  0  0  0 
 16 18  2  0  0  0  0 
  9 18  1  0  0  0  0 
 18 19  1  0  0  0  0 
  5 20  1  0  0  0  0 
 20 21  1  0  0  0  0 
 20 22  1  0  0  0  0 
 22 23  1  0  0  0  0 
 22 24  1  0  0  0  0 
 22 25  1  0  0  0  0 
M  END
> <Rank>
8

> <Priority_score>
0.124

> <Reaction_type>
secondary_alcohol_oxidation_(benzylic)

> <Parent_ID>
40

> <Parent_InChI>
InChI=1S/C10H15NO/c1-8(11-2)10(12)9-6-4-3-5-7-9/h3-8,10-12H,1-2H3

> <Parent_SMILES>
CN[C@@H](C)[C@@H](O)c1ccccc1

$$$$
Molecule 40_metabolite 9
  CDK     0516241031

 28 28  0  0  0  0  0  0  0  0999 V2000
   -0.7103   -0.2320    0.0000 C   0  0  0  0  0  0  0  0  0  0  0  0
   -2.1862    0.0357    0.0000 H   0  0  0  0  0  0  0  0  0  0  0  0
   -1.2303   -1.6390    0.0000 H   0  0  0  0  0  0  0  0  0  0  0  0
    0.5850   -0.9884    0.0000 H   0  0  0  0  0  0  0  0  0  0  0  0
    0.2595    0.9123    0.0000 C   0  0  1  0  0  0  0  0  0  0  0  0
    1.2180   -0.2415    0.0000 H   0  0  0  0  0  0  0  0  0  0  0  0
    1.5622    1.6559    0.0000 C   0  0  2  0  0  0  0  0  0  0  0  0
    2.5321    2.8002    0.0000 H   0  0  0  0  0  0  0  0  0  0  0  0
    2.8576    0.8995    0.0000 C   0  0  0  0  0  0  0  0  0  0  0  0
    4.1566    1.6495    0.0000 C   0  0  0  0  0  0  0  0  0  0  0  0
    4.1492    3.1495    0.0000 H   0  0  0  0  0  0  0  0  0  0  0  0
    5.4411    0.9247    0.0000 C   0  0  0  0  0  0  0  0  0  0  0  0
    6.7302    1.6917    0.0000 H   0  0  0  0  0  0  0  0  0  0  0  0
    5.4666   -0.6195    0.0000 C   0  0  0  0  0  0  0  0  0  0  0  0
    4.1676   -1.3695    0.0000 C   0  0  0  0  0  0  0  0  0  0  0  0
    4.1552   -2.8694    0.0000 H   0  0  0  0  0  0  0  0  0  0  0  0
    2.8431   -0.5753    0.0000 C   0  0  0  0  0  0  0  0  0  0  0  0
    1.5342   -1.3082    0.0000 H   0  0  0  0  0  0  0  0  0  0  0  0
    6.7718   -1.3587    0.0000 O   0  0  0  0  0  0  0  0  0  0  0  0
    8.0646   -0.5980    0.0000 H   0  0  0  0  0  0  0  0  0  0  0  0
    0.6037    2.8097    0.0000 O   0  0  0  0  0  0  0  0  0  0  0  0
    1.1237    4.2167    0.0000 H   0  0  0  0  0  0  0  0  0  0  0  0
   -1.0358    1.6687    0.0000 N   0  0  0  0  0  0  0  0  0  0  0  0
   -2.3385    0.9251    0.0000 H   0  0  0  0  0  0  0  0  0  0  0  0
   -1.0284    3.1687    0.0000 C   0  0  0  0  0  0  0  0  0  0  0  0
    0.2743    3.9123    0.0000 H   0  0  0  0  0  0  0  0  0  0  0  0
   -1.5345    4.5807    0.0000 H   0  0  0  0  0  0  0  0  0  0  0  0
   -2.5069    2.9155    0.0000 H   0  0  0  0  0  0  0  0  0  0  0  0
  1  2  1  0  0  0  0 
  1  3  1  0  0  0  0 
  1  4  1  0  0  0  0 
  5  1  1  6  0  0  0 
  5  6  1  1  0  0  0 
  5  7  1  0  0  0  0 
  7  8  1  6  0  0  0 
  7  9  1  0  0  0  0 
  9 10  2  0  0  0  0 
 10 11  1  0  0  0  0 
 10 12  1  0  0  0  0 
 12 13  1  0  0  0  0 
 12 14  2  0  0  0  0 
 14 15  1  0  0  0  0 
 15 16  1  0  0  0  0 
 15 17  2  0  0  0  0 
  9 17  1  0  0  0  0 
 17 18  1  0  0  0  0 
 14 19  1  0  0  0  0 
 19 20  1  0  0  0  0 
  7 21  1  1  0  0  0 
 21 22  1  0  0  0  0 
  5 23  1  0  0  0  0 
 23 24  1  0  0  0  0 
 23 25  1  0  0  0  0 
 25 26  1  0  0  0  0 
 25 27  1  0  0  0  0 
 25 28  1  0  0  0  0 
M  END
> <Rank>
8

> <Priority_score>
0.124

> <Reaction_type>
aromatic_hydroxylation_(para_to_carbon)

> <Parent_ID>
40

> <Parent_InChI>
InChI=1S/C10H15NO/c1-8(11-2)10(12)9-6-4-3-5-7-9/h3-8,10-12H,1-2H3

> <Parent_SMILES>
CN[C@@H](C)[C@@H](O)c1ccccc1

$$$$
Molecule 40_metabolite 10
  CDK     0516241031

 28 28  0  0  0  0  0  0  0  0999 V2000
   -2.5232   -0.5444    0.0000 C   0  0  0  0  0  0  0  0  0  0  0  0
   -3.9327   -1.0575    0.0000 H   0  0  0  0  0  0  0  0  0  0  0  0
   -2.2627   -2.0217    0.0000 H   0  0  0  0  0  0  0  0  0  0  0  0
   -1.0232   -0.5444    0.0000 H   0  0  0  0  0  0  0  0  0  0  0  0
   -2.2627    0.9328    0.0000 C   0  0  1  0  0  0  0  0  0  0  0  0
   -0.8532    0.4197    0.0000 H   0  0  0  0  0  0  0  0  0  0  0  0
   -1.5127    2.2318    0.0000 C   0  0  2  0  0  0  0  0  0  0  0  0
   -0.0127    2.2318    0.0000 C   0  0  0  0  0  0  0  0  0  0  0  0
    0.7373    3.5318    0.0000 C   0  0  0  0  0  0  0  0  0  0  0  0
   -0.0129    4.8307    0.0000 H   0  0  0  0  0  0  0  0  0  0  0  0
    2.2373    3.5318    0.0000 C   0  0  0  0  0  0  0  0  0  0  0  0
    2.9875    4.8307    0.0000 H   0  0  0  0  0  0  0  0  0  0  0  0
    2.9873    2.2318    0.0000 C   0  0  0  0  0  0  0  0  0  0  0  0
    4.4873    2.2318    0.0000 H   0  0  0  0  0  0  0  0  0  0  0  0
    2.2373    0.9318    0.0000 C   0  0  0  0  0  0  0  0  0  0  0  0
    2.9875   -0.3671    0.0000 H   0  0  0  0  0  0  0  0  0  0  0  0
    0.7373    0.9318    0.0000 C   0  0  0  0  0  0  0  0  0  0  0  0
   -0.0129   -0.3671    0.0000 H   0  0  0  0  0  0  0  0  0  0  0  0
   -1.2523    3.7090    0.0000 O   0  0  0  0  0  0  0  0  0  0  0  0
   -2.4013    4.6732    0.0000 H   0  0  0  0  0  0  0  0  0  0  0  0
   -2.9223    2.7448    0.0000 O   0  0  0  0  0  0  0  0  0  0  0  0
   -3.1827    4.2220    0.0000 H   0  0  0  0  0  0  0  0  0  0  0  0
   -4.2427    0.9328    0.0000 N   0  0  0  0  0  0  0  0  0  0  0  0
   -4.9927   -0.3663    0.0000 H   0  0  0  0  0  0  0  0  0  0  0  0
   -4.9927    2.2318    0.0000 C   0  0  0  0  0  0  0  0  0  0  0  0
   -4.2427    3.5308    0.0000 H   0  0  0  0  0  0  0  0  0  0  0  0
   -6.1418    3.1960    0.0000 H   0  0  0  0  0  0  0  0  0  0  0  0
   -6.1418    1.2676    0.0000 H   0  0  0  0  0  0  0  0  0  0  0  0
  1  2  1  0  0  0  0 
  1  3  1  0  0  0  0 
  1  4  1  0  0  0  0 
  5  1  1  6  0  0  0 
  5  6  1  1  0  0  0 
  5  7  1  0  0  0  0 
  7  8  1  0  0  0  0 
  8  9  2  0  0  0  0 
  9 10  1  0  0  0  0 
  9 11  1  0  0  0  0 
 11 12  1  0  0  0  0 
 11 13  2  0  0  0  0 
 13 14  1  0  0  0  0 
 13 15  1  0  0  0  0 
 15 16  1  0  0  0  0 
 15 17  2  0  0  0  0 
  8 17  1  0  0  0  0 
 17 18  1  0  0  0  0 
  7 19  1  1  0  0  0 
 19 20  1  0  0  0  0 
  7 21  1  6  0  0  0 
 21 22  1  0  0  0  0 
  5 23  1  0  0  0  0 
 23 24  1  0  0  0  0 
 23 25  1  0  0  0  0 
 25 26  1  0  0  0  0 
 25 27  1  0  0  0  0 
 25 28  1  0  0  0  0 
M  END
> <Rank>
8

> <Priority_score>
0.124

> <Reaction_type>
aliphatic hydroxylation

> <Parent_ID>
40

> <Parent_InChI>
InChI=1S/C10H15NO/c1-8(11-2)10(12)9-6-4-3-5-7-9/h3-8,10-12H,1-2H3

> <Parent_SMILES>
CN[C@@H](C)[C@@H](O)c1ccccc1

$$$$
Molecule 40_metabolite 11
  CDK     0516241031

 28 28  0  0  0  0  0  0  0  0999 V2000
    3.7010   -3.2425    0.0000 C   0  0  0  0  0  0  0  0  0  0  0  0
    2.2238   -2.9818    0.0000 H   0  0  0  0  0  0  0  0  0  0  0  0
    4.9999   -3.9927    0.0000 H   0  0  0  0  0  0  0  0  0  0  0  0
    2.6950   -6.0050    0.0000 H   0  0  0  0  0  0  0  0  0  0  0  0
    4.6653   -2.0936    0.0000 C   0  0  1  0  0  0  0  0  0  0  0  0
    5.6293   -3.2428    0.0000 H   0  0  0  0  0  0  0  0  0  0  0  0
    3.3664   -1.3434    0.0000 C   0  0  2  0  0  0  0  0  0  0  0  0
    4.3308   -0.1945    0.0000 H   0  0  0  0  0  0  0  0  0  0  0  0
    1.6515   -2.3331    0.0000 C   0  0  0  0  0  0  0  0  0  0  0  0
    1.6510   -3.8340    0.0000 C   0  0  0  0  0  0  0  0  0  0  0  0
    2.9488   -4.5861    0.0000 H   0  0  0  0  0  0  0  0  0  0  0  0
    0.3565   -4.5761    0.0000 C   0  0  0  0  0  0  0  0  0  0  0  0
    0.3543   -6.0761    0.0000 H   0  0  0  0  0  0  0  0  0  0  0  0
   -0.9425   -3.8261    0.0000 C   0  0  0  0  0  0  0  0  0  0  0  0
   -2.2404   -4.5781    0.0000 H   0  0  0  0  0  0  0  0  0  0  0  0
   -0.9470   -2.3340    0.0000 C   0  0  0  0  0  0  0  0  0  0  0  0
    0.3525   -1.5831    0.0000 C   0  0  0  0  0  0  0  0  0  0  0  0
    0.3522   -0.0831    0.0000 H   0  0  0  0  0  0  0  0  0  0  0  0
   -2.2473   -1.5861    0.0000 O   0  0  0  0  0  0  0  0  0  0  0  0
   -3.5451   -2.3383    0.0000 H   0  0  0  0  0  0  0  0  0  0  0  0
    2.4024   -0.1942    0.0000 O   0  0  0  0  0  0  0  0  0  0  0  0
    2.9157    1.2153    0.0000 H   0  0  0  0  0  0  0  0  0  0  0  0
    5.9645   -1.3438    0.0000 N   0  0  0  0  0  0  0  0  0  0  0  0
    5.9647    0.1562    0.0000 H   0  0  0  0  0  0  0  0  0  0  0  0
    7.2634   -2.0940    0.0000 C   0  0  0  0  0  0  0  0  0  0  0  0
    7.2632   -3.5940    0.0000 H   0  0  0  0  0  0  0  0  0  0  0  0
    7.7767   -0.6846    0.0000 H   0  0  0  0  0  0  0  0  0  0  0  0
    8.7406   -2.3547    0.0000 H   0  0  0  0  0  0  0  0  0  0  0  0
  1  2  1  0  0  0  0 
  1  3  1  0  0  0  0 
  1  4  1  0  0  0  0 
  1  5  1  0  0  0  0 
  5  6  1  6  0  0  0 
  5  7  1  0  0  0  0 
  7  8  1  1  0  0  0 
  7  9  1  0  0  0  0 
  9 10  2  0  0  0  0 
 10 11  1  0  0  0  0 
 10 12  1  0  0  0  0 
 12 13  1  0  0  0  0 
 12 14  2  0  0  0  0 
 14 15  1  0  0  0  0 
 14 16  1  0  0  0  0 
 16 17  2  0  0  0  0 
  9 17  1  0  0  0  0 
 17 18  1  0  0  0  0 
 16 19  1  0  0  0  0 
 19 20  1  0  0  0  0 
  7 21  1  6  0  0  0 
 21 22  1  0  0  0  0 
  5 23  1  1  0  0  0 
 23 24  1  0  0  0  0 
 23 25  1  0  0  0  0 
 25 26  1  0  0  0  0 
 25 27  1  0  0  0  0 
 25 28  1  0  0  0  0 
M  END
> <Rank>
8

> <Priority_score>
0.124

> <Reaction_type>
aromatic_hydroxylation_(meta_to_carbon)

> <Parent_ID>
40

> <Parent_InChI>
InChI=1S/C10H15NO/c1-8(11-2)10(12)9-6-4-3-5-7-9/h3-8,10-12H,1-2H3

> <Parent_SMILES>
CN[C@@H](C)[C@@H](O)c1ccccc1

$$$$
Molecule 40_metabolite 12
  CDK     0516241031

 28 28  0  0  0  0  0  0  0  0999 V2000
   -3.2634    1.8777    0.0000 C   0  0  0  0  0  0  0  0  0  0  0  0
   -3.5239    0.4005    0.0000 H   0  0  0  0  0  0  0  0  0  0  0  0
   -4.7634    1.8777    0.0000 H   0  0  0  0  0  0  0  0  0  0  0  0
   -3.5239    3.3549    0.0000 H   0  0  0  0  0  0  0  0  0  0  0  0
   -1.8539    2.3908    0.0000 C   0  0  1  0  0  0  0  0  0  0  0  0
   -0.3539    2.3908    0.0000 C   0  0  2  0  0  0  0  0  0  0  0  0
    1.0556    2.9038    0.0000 H   0  0  0  0  0  0  0  0  0  0  0  0
    0.3961    1.0917    0.0000 C   0  0  0  0  0  0  0  0  0  0  0  0
    1.8969    1.0922    0.0000 C   0  0  0  0  0  0  0  0  0  0  0  0
    2.6467    2.3914    0.0000 H   0  0  0  0  0  0  0  0  0  0  0  0
    2.6469   -0.2068    0.0000 C   0  0  0  0  0  0  0  0  0  0  0  0
    4.1469   -0.2071    0.0000 H   0  0  0  0  0  0  0  0  0  0  0  0
    1.8961   -1.5063    0.0000 C   0  0  0  0  0  0  0  0  0  0  0  0
    2.6461   -2.8054    0.0000 H   0  0  0  0  0  0  0  0  0  0  0  0
    0.3953   -1.5068    0.0000 C   0  0  0  0  0  0  0  0  0  0  0  0
   -0.3545   -2.8060    0.0000 H   0  0  0  0  0  0  0  0  0  0  0  0
   -0.3547   -0.2078    0.0000 C   0  0  0  0  0  0  0  0  0  0  0  0
   -1.8547   -0.2076    0.0000 H   0  0  0  0  0  0  0  0  0  0  0  0
   -0.6144    3.8680    0.0000 O   0  0  0  0  0  0  0  0  0  0  0  0
    0.5347    4.8322    0.0000 H   0  0  0  0  0  0  0  0  0  0  0  0
   -2.8439    4.1055    0.0000 N   0  0  0  0  0  0  0  0  0  0  0  0
   -2.0939    5.4045    0.0000 H   0  0  0  0  0  0  0  0  0  0  0  0
   -4.3439    4.1055    0.0000 C   0  0  0  0  0  0  0  0  0  0  0  0
   -5.0939    5.4045    0.0000 H   0  0  0  0  0  0  0  0  0  0  0  0
   -5.7534    3.5925    0.0000 H   0  0  0  0  0  0  0  0  0  0  0  0
   -4.8569    2.6960    0.0000 H   0  0  0  0  0  0  0  0  0  0  0  0
   -1.5934    0.9136    0.0000 O   0  0  0  0  0  0  0  0  0  0  0  0
   -2.7425   -0.0506    0.0000 H   0  0  0  0  0  0  0  0  0  0  0  0
  1  2  1  0  0  0  0 
  1  3  1  0  0  0  0 
  1  4  1  0  0  0  0 
  5  1  1  6  0  0  0 
  5  6  1  0  0  0  0 
  6  7  1  6  0  0  0 
  6  8  1  0  0  0  0 
  8  9  2  0  0  0  0 
  9 10  1  0  0  0  0 
  9 11  1  0  0  0  0 
 11 12  1  0  0  0  0 
 11 13  2  0  0  0  0 
 13 14  1  0  0  0  0 
 13 15  1  0  0  0  0 
 15 16  1  0  0  0  0 
 15 17  2  0  0  0  0 
  8 17  1  0  0  0  0 
 17 18  1  0  0  0  0 
  6 19  1  1  0  0  0 
 19 20  1  0  0  0  0 
  5 21  1  1  0  0  0 
 21 22  1  0  0  0  0 
 21 23  1  0  0  0  0 
 23 24  1  0  0  0  0 
 23 25  1  0  0  0  0 
 23 26  1  0  0  0  0 
  5 27  1  0  0  0  0 
 27 28  1  0  0  0  0 
M  END
> <Rank>
8

> <Priority_score>
0.124

> <Reaction_type>
aliphatic_hydroxylation_(tert_carbon_next_to_SP2)

> <Parent_ID>
40

> <Parent_InChI>
InChI=1S/C10H15NO/c1-8(11-2)10(12)9-6-4-3-5-7-9/h3-8,10-12H,1-2H3

> <Parent_SMILES>
CN[C@@H](C)[C@@H](O)c1ccccc1

$$$$
Molecule 40_metabolite 13
  CDK     0516241031

 32 32  0  0  0  0  0  0  0  0999 V2000
   -4.0541    0.6099    0.0000 C   0  0  0  0  0  0  0  0  0  0  0  0
   -5.5313    0.8704    0.0000 H   0  0  0  0  0  0  0  0  0  0  0  0
   -4.5671   -0.7997    0.0000 H   0  0  0  0  0  0  0  0  0  0  0  0
   -2.7550   -0.1401    0.0000 H   0  0  0  0  0  0  0  0  0  0  0  0
   -3.0899    1.7589    0.0000 C   0  0  1  0  0  0  0  0  0  0  0  0
   -2.1257    0.6099    0.0000 H   0  0  0  0  0  0  0  0  0  0  0  0
   -1.7908    2.5089    0.0000 C   0  0  2  0  0  0  0  0  0  0  0  0
   -0.8267    3.6580    0.0000 H   0  0  0  0  0  0  0  0  0  0  0  0
   -0.4918    1.7589    0.0000 C   0  0  0  0  0  0  0  0  0  0  0  0
   -0.4923    0.2581    0.0000 C   0  0  0  0  0  0  0  0  0  0  0  0
   -1.7914   -0.4917    0.0000 H   0  0  0  0  0  0  0  0  0  0  0  0
    0.8067   -0.4919    0.0000 C   0  0  0  0  0  0  0  0  0  0  0  0
    0.8070   -1.9919    0.0000 H   0  0  0  0  0  0  0  0  0  0  0  0
    2.1063    0.2589    0.0000 C   0  0  0  0  0  0  0  0  0  0  0  0
    2.1067    1.7598    0.0000 C   0  0  0  0  0  0  0  0  0  0  0  0
    0.8077    2.5098    0.0000 C   0  0  0  0  0  0  0  0  0  0  0  0
    0.8075    4.0098    0.0000 H   0  0  0  0  0  0  0  0  0  0  0  0
    3.4059    2.5096    0.0000 O   0  0  0  0  0  0  0  0  0  0  0  0
    4.7048    1.7594    0.0000 C   0  0  0  0  0  0  0  0  0  0  0  0
    6.0040    2.5092    0.0000 H   0  0  0  0  0  0  0  0  0  0  0  0
    3.7405    0.6104    0.0000 H   0  0  0  0  0  0  0  0  0  0  0  0
    5.6688    0.6101    0.0000 H   0  0  0  0  0  0  0  0  0  0  0  0
    3.4053   -0.4911    0.0000 O   0  0  0  0  0  0  0  0  0  0  0  0
    4.7043    0.2589    0.0000 H   0  0  0  0  0  0  0  0  0  0  0  0
   -2.7550    3.6580    0.0000 O   0  0  0  0  0  0  0  0  0  0  0  0
   -2.2420    5.0676    0.0000 H   0  0  0  0  0  0  0  0  0  0  0  0
   -4.3889    2.5089    0.0000 N   0  0  0  0  0  0  0  0  0  0  0  0
   -5.6880    1.7589    0.0000 H   0  0  0  0  0  0  0  0  0  0  0  0
   -4.3889    4.0089    0.0000 C   0  0  0  0  0  0  0  0  0  0  0  0
   -3.0899    4.7589    0.0000 H   0  0  0  0  0  0  0  0  0  0  0  0
   -4.9020    5.4185    0.0000 H   0  0  0  0  0  0  0  0  0  0  0  0
   -5.8661    3.7485    0.0000 H   0  0  0  0  0  0  0  0  0  0  0  0
  1  2  1  0  0  0  0 
  1  3  1  0  0  0  0 
  1  4  1  0  0  0  0 
  5  1  1  6  0  0  0 
  5  6  1  1  0  0  0 
  5  7  1  0  0  0  0 
  7  8  1  6  0  0  0 
  7  9  1  0  0  0  0 
  9 10  2  0  0  0  0 
 10 11  1  0  0  0  0 
 10 12  1  0  0  0  0 
 12 13  1  0  0  0  0 
 12 14  2  0  0  0  0 
 14 15  1  0  0  0  0 
 15 16  2  0  0  0  0 
  9 16  1  0  0  0  0 
 16 17  1  0  0  0  0 
 15 18  1  0  0  0  0 
 18 19  1  0  0  0  0 
 19 20  1  0  0  0  0 
 19 21  1  0  0  0  0 
 19 22  1  0  0  0  0 
 14 23  1  0  0  0  0 
 23 24  1  0  0  0  0 
  7 25  1  1  0  0  0 
 25 26  1  0  0  0  0 
  5 27  1  0  0  0  0 
 27 28  1  0  0  0  0 
 27 29  1  0  0  0  0 
 29 30  1  0  0  0  0 
 29 31  1  0  0  0  0 
 29 32  1  0  0  0  0 
M  END
> <Rank>
8

> <Priority_score>
0.124

> <Reaction_type>
aromatic_oxidation

> <Parent_ID>
40

> <Parent_InChI>
InChI=1S/C10H15NO/c1-8(11-2)10(12)9-6-4-3-5-7-9/h3-8,10-12H,1-2H3

> <Parent_SMILES>
CN[C@@H](C)[C@@H](O)c1ccccc1

$$$$
Molecule 40_metabolite 14
  CDK     0516241031

 24 24  0  0  0  0  0  0  0  0999 V2000
   -2.3176    0.5843    0.0000 C   0  0  0  0  0  0  0  0  0  0  0  0
   -3.6167   -0.1657    0.0000 H   0  0  0  0  0  0  0  0  0  0  0  0
   -1.8046   -0.8253    0.0000 H   0  0  0  0  0  0  0  0  0  0  0  0
   -0.8404    0.8448    0.0000 H   0  0  0  0  0  0  0  0  0  0  0  0
   -2.3176    2.0843    0.0000 C   0  0  0  0  0  0  0  0  0  0  0  0
   -1.0186    2.8343    0.0000 C   0  0  0  0  0  0  0  0  0  0  0  0
   -1.0186    4.3343    0.0000 H   0  0  0  0  0  0  0  0  0  0  0  0
    0.2804    2.0843    0.0000 C   0  0  0  0  0  0  0  0  0  0  0  0
    1.5799    2.8351    0.0000 C   0  0  0  0  0  0  0  0  0  0  0  0
    1.5797    4.3351    0.0000 H   0  0  0  0  0  0  0  0  0  0  0  0
    2.8790    2.0851    0.0000 C   0  0  0  0  0  0  0  0  0  0  0  0
    4.1781    2.8349    0.0000 H   0  0  0  0  0  0  0  0  0  0  0  0
    2.8785    0.5843    0.0000 C   0  0  0  0  0  0  0  0  0  0  0  0
    4.1775   -0.1657    0.0000 H   0  0  0  0  0  0  0  0  0  0  0  0
    1.5790   -0.1665    0.0000 C   0  0  0  0  0  0  0  0  0  0  0  0
    1.5792   -1.6665    0.0000 H   0  0  0  0  0  0  0  0  0  0  0  0
    0.2799    0.5835    0.0000 C   0  0  0  0  0  0  0  0  0  0  0  0
   -1.0192   -0.1663    0.0000 H   0  0  0  0  0  0  0  0  0  0  0  0
   -3.6167    2.8343    0.0000 N   0  0  0  0  0  0  0  0  0  0  0  0
   -3.6167    4.3343    0.0000 H   0  0  0  0  0  0  0  0  0  0  0  0
   -4.9157    2.0843    0.0000 C   0  0  0  0  0  0  0  0  0  0  0  0
   -6.2148    2.8343    0.0000 H   0  0  0  0  0  0  0  0  0  0  0  0
   -5.8799    0.9352    0.0000 H   0  0  0  0  0  0  0  0  0  0  0  0
   -3.9515    0.9352    0.0000 H   0  0  0  0  0  0  0  0  0  0  0  0
  1  2  1  0  0  0  0 
  1  3  1  0  0  0  0 
  1  4  1  0  0  0  0 
  1  5  1  0  0  0  0 
  5  6  2  0  0  0  0 
  6  7  1  4  0  0  0 
  6  8  1  0  0  0  0 
  8  9  2  0  0  0  0 
  9 10  1  0  0  0  0 
  9 11  1  0  0  0  0 
 11 12  1  0  0  0  0 
 11 13  2  0  0  0  0 
 13 14  1  0  0  0  0 
 13 15  1  0  0  0  0 
 15 16  1  0  0  0  0 
 15 17  2  0  0  0  0 
  8 17  1  0  0  0  0 
 17 18  1  0  0  0  0 
  5 19  1  0  0  0  0 
 19 20  1  0  0  0  0 
 19 21  1  0  0  0  0 
 21 22  1  0  0  0  0 
 21 23  1  0  0  0  0 
 21 24  1  0  0  0  0 
M  END
> <Rank>
8

> <Priority_score>
0.124

> <Reaction_type>
dehydration_next_to_SP2_a

> <Parent_ID>
40

> <Parent_InChI>
InChI=1S/C10H15NO/c1-8(11-2)10(12)9-6-4-3-5-7-9/h3-8,10-12H,1-2H3

> <Parent_SMILES>
CN[C@@H](C)[C@@H](O)c1ccccc1

$$$$
Molecule 40_metabolite 15
  CDK     0516241031

 21 21  0  0  0  0  0  0  0  0999 V2000
   -3.6559    2.0617    0.0000 C   0  0  0  0  0  0  0  0  0  0  0  0
   -3.6559    3.5617    0.0000 H   0  0  0  0  0  0  0  0  0  0  0  0
   -4.1689    0.6521    0.0000 H   0  0  0  0  0  0  0  0  0  0  0  0
   -5.1331    2.3221    0.0000 H   0  0  0  0  0  0  0  0  0  0  0  0
   -2.3568    1.3117    0.0000 C   0  0  0  0  0  0  0  0  0  0  0  0
   -2.3568   -0.1883    0.0000 O   0  0  0  0  0  0  0  0  0  0  0  0
   -1.0578    2.0617    0.0000 C   0  0  2  0  0  0  0  0  0  0  0  0
   -0.0936    3.2107    0.0000 H   0  0  0  0  0  0  0  0  0  0  0  0
    0.2413    1.3117    0.0000 C   0  0  0  0  0  0  0  0  0  0  0  0
    1.5408    2.0625    0.0000 C   0  0  0  0  0  0  0  0  0  0  0  0
    1.5405    3.5625    0.0000 H   0  0  0  0  0  0  0  0  0  0  0  0
    2.8398    1.3125    0.0000 C   0  0  0  0  0  0  0  0  0  0  0  0
    4.1390    2.0623    0.0000 H   0  0  0  0  0  0  0  0  0  0  0  0
    2.8393   -0.1883    0.0000 C   0  0  0  0  0  0  0  0  0  0  0  0
    4.1384   -0.9383    0.0000 H   0  0  0  0  0  0  0  0  0  0  0  0
    1.5398   -0.9392    0.0000 C   0  0  0  0  0  0  0  0  0  0  0  0
    1.5401   -2.4392    0.0000 H   0  0  0  0  0  0  0  0  0  0  0  0
    0.2408   -0.1892    0.0000 C   0  0  0  0  0  0  0  0  0  0  0  0
   -1.0584   -0.9390    0.0000 H   0  0  0  0  0  0  0  0  0  0  0  0
   -2.0220    3.2107    0.0000 O   0  0  0  0  0  0  0  0  0  0  0  0
   -1.5089    4.6203    0.0000 H   0  0  0  0  0  0  0  0  0  0  0  0
  1  2  1  0  0  0  0 
  1  3  1  0  0  0  0 
  1  4  1  0  0  0  0 
  1  5  1  0  0  0  0 
  5  6  2  0  0  0  0 
  5  7  1  0  0  0  0 
  7  8  1  6  0  0  0 
  7  9  1  0  0  0  0 
  9 10  2  0  0  0  0 
 10 11  1  0  0  0  0 
 10 12  1  0  0  0  0 
 12 13  1  0  0  0  0 
 12 14  2  0  0  0  0 
 14 15  1  0  0  0  0 
 14 16  1  0  0  0  0 
 16 17  1  0  0  0  0 
 16 18  2  0  0  0  0 
  9 18  1  0  0  0  0 
 18 19  1  0  0  0  0 
  7 20  1  1  0  0  0 
 20 21  1  0  0  0  0 
M  END
> <Rank>
15

> <Priority_score>
0.056

> <Reaction_type>
N-dealkylation

> <Parent_ID>
40

> <Parent_InChI>
InChI=1S/C10H15NO/c1-8(11-2)10(12)9-6-4-3-5-7-9/h3-8,10-12H,1-2H3

> <Parent_SMILES>
CN[C@@H](C)[C@@H](O)c1ccccc1

$$$$
Molecule 40_metabolite 16
  CDK     0516241031

 25 25  0  0  0  0  0  0  0  0999 V2000
    0.8413    3.0557    0.0000 C   0  0  0  0  0  0  0  0  0  0  0  0
    2.1403    3.8057    0.0000 H   0  0  0  0  0  0  0  0  0  0  0  0
    0.3282    4.4653    0.0000 H   0  0  0  0  0  0  0  0  0  0  0  0
   -0.6359    2.7952    0.0000 H   0  0  0  0  0  0  0  0  0  0  0  0
    0.8413    1.5557    0.0000 C   0  0  0  0  0  0  0  0  0  0  0  0
   -0.4578    0.8057    0.0000 C   0  0  0  0  0  0  0  0  0  0  0  0
   -1.7568    1.5557    0.0000 C   0  0  0  0  0  0  0  0  0  0  0  0
   -3.0563    0.8049    0.0000 C   0  0  0  0  0  0  0  0  0  0  0  0
   -3.0561   -0.6951    0.0000 H   0  0  0  0  0  0  0  0  0  0  0  0
   -4.3554    1.5549    0.0000 C   0  0  0  0  0  0  0  0  0  0  0  0
   -5.6545    0.8051    0.0000 H   0  0  0  0  0  0  0  0  0  0  0  0
   -4.3549    3.0557    0.0000 C   0  0  0  0  0  0  0  0  0  0  0  0
   -5.6539    3.8057    0.0000 H   0  0  0  0  0  0  0  0  0  0  0  0
   -3.0554    3.8065    0.0000 C   0  0  0  0  0  0  0  0  0  0  0  0
   -3.0556    5.3065    0.0000 H   0  0  0  0  0  0  0  0  0  0  0  0
   -1.7563    3.0565    0.0000 C   0  0  0  0  0  0  0  0  0  0  0  0
   -0.4572    3.8063    0.0000 H   0  0  0  0  0  0  0  0  0  0  0  0
   -0.4578   -0.6943    0.0000 O   0  0  0  0  0  0  0  0  0  0  0  0
    0.8413   -1.4443    0.0000 H   0  0  0  0  0  0  0  0  0  0  0  0
    2.1403    0.8057    0.0000 N   0  0  0  0  0  0  0  0  0  0  0  0
    2.1403   -0.6943    0.0000 H   0  0  0  0  0  0  0  0  0  0  0  0
    3.4394    1.5557    0.0000 C   0  0  0  0  0  0  0  0  0  0  0  0
    4.7384    0.8057    0.0000 H   0  0  0  0  0  0  0  0  0  0  0  0
    4.4035    2.7048    0.0000 H   0  0  0  0  0  0  0  0  0  0  0  0
    2.4752    2.7048    0.0000 H   0  0  0  0  0  0  0  0  0  0  0  0
  1  2  1  0  0  0  0 
  1  3  1  0  0  0  0 
  1  4  1  0  0  0  0 
  1  5  1  0  0  0  0 
  5  6  2  0  0  0  0 
  6  7  1  0  0  0  0 
  7  8  2  0  0  0  0 
  8  9  1  0  0  0  0 
  8 10  1  0  0  0  0 
 10 11  1  0  0  0  0 
 10 12  2  0  0  0  0 
 12 13  1  0  0  0  0 
 12 14  1  0  0  0  0 
 14 15  1  0  0  0  0 
 14 16  2  0  0  0  0 
  7 16  1  0  0  0  0 
 16 17  1  0  0  0  0 
  6 18  1  0  0  0  0 
 18 19  1  0  0  0  0 
  5 20  1  4  0  0  0 
 20 21  1  0  0  0  0 
 20 22  1  0  0  0  0 
 22 23  1  0  0  0  0 
 22 24  1  0  0  0  0 
 22 25  1  0  0  0  0 
M  END
> <Rank>
16

> <Priority_score>
0.024800000000000003

> <Reaction_type>
alkyl dehydrogenation

> <Parent_ID>
40

> <Parent_InChI>
InChI=1S/C10H15NO/c1-8(11-2)10(12)9-6-4-3-5-7-9/h3-8,10-12H,1-2H3

> <Parent_SMILES>
CN[C@@H](C)[C@@H](O)c1ccccc1

$$$$
Molecule 40_metabolite 17
  CDK     0516241031

 28 28  0  0  0  0  0  0  0  0999 V2000
   -4.4436    4.6065    0.0000 C   0  0  0  0  0  0  0  0  0  0  0  0
   -5.1936    3.3075    0.0000 H   0  0  0  0  0  0  0  0  0  0  0  0
   -5.8531    5.1196    0.0000 H   0  0  0  0  0  0  0  0  0  0  0  0
   -4.1831    6.0837    0.0000 H   0  0  0  0  0  0  0  0  0  0  0  0
   -2.9436    4.6065    0.0000 N   0  0  0  0  0  0  0  0  0  0  0  0
   -2.1936    5.9056    0.0000 H   0  0  0  0  0  0  0  0  0  0  0  0
   -2.1936    3.3075    0.0000 C   0  0  1  0  0  0  0  0  0  0  0  0
   -3.6031    2.7945    0.0000 H   0  0  0  0  0  0  0  0  0  0  0  0
   -1.9331    1.8303    0.0000 C   0  0  0  0  0  0  0  0  0  0  0  0
   -1.1831    0.5312    0.0000 H   0  0  0  0  0  0  0  0  0  0  0  0
   -0.5236    2.3433    0.0000 H   0  0  0  0  0  0  0  0  0  0  0  0
   -3.0822    0.8661    0.0000 O   0  0  0  0  0  0  0  0  0  0  0  0
   -4.4917    1.3791    0.0000 H   0  0  0  0  0  0  0  0  0  0  0  0
   -0.6936    3.3075    0.0000 C   0  0  2  0  0  0  0  0  0  0  0  0
    0.7160    3.8205    0.0000 H   0  0  0  0  0  0  0  0  0  0  0  0
    0.2964    1.5928    0.0000 C   0  0  0  0  0  0  0  0  0  0  0  0
    1.7973    1.5932    0.0000 C   0  0  0  0  0  0  0  0  0  0  0  0
    2.5471    2.8924    0.0000 H   0  0  0  0  0  0  0  0  0  0  0  0
    2.5473    0.2942    0.0000 C   0  0  0  0  0  0  0  0  0  0  0  0
    4.0473    0.2940    0.0000 H   0  0  0  0  0  0  0  0  0  0  0  0
    1.7964   -1.0053    0.0000 C   0  0  0  0  0  0  0  0  0  0  0  0
    2.5464   -2.3044    0.0000 H   0  0  0  0  0  0  0  0  0  0  0  0
    0.2956   -1.0058    0.0000 C   0  0  0  0  0  0  0  0  0  0  0  0
   -0.4542   -2.3050    0.0000 H   0  0  0  0  0  0  0  0  0  0  0  0
   -0.4544    0.2932    0.0000 C   0  0  0  0  0  0  0  0  0  0  0  0
   -1.9544    0.2935    0.0000 H   0  0  0  0  0  0  0  0  0  0  0  0
   -0.9540    4.7847    0.0000 O   0  0  0  0  0  0  0  0  0  0  0  0
    0.1950    5.7489    0.0000 H   0  0  0  0  0  0  0  0  0  0  0  0
  1  2  1  0  0  0  0 
  1  3  1  0  0  0  0 
  1  4  1  0  0  0  0 
  1  5  1  0  0  0  0 
  5  6  1  0  0  0  0 
  7  5  1  6  0  0  0 
  7  8  1  1  0  0  0 
  7  9  1  0  0  0  0 
  9 10  1  0  0  0  0 
  9 11  1  0  0  0  0 
  9 12  1  0  0  0  0 
 12 13  1  0  0  0  0 
  7 14  1  0  0  0  0 
 14 15  1  6  0  0  0 
 14 16  1  0  0  0  0 
 16 17  2  0  0  0  0 
 17 18  1  0  0  0  0 
 17 19  1  0  0  0  0 
 19 20  1  0  0  0  0 
 19 21  2  0  0  0  0 
 21 22  1  0  0  0  0 
 21 23  1  0  0  0  0 
 23 24  1  0  0  0  0 
 23 25  2  0  0  0  0 
 16 25  1  0  0  0  0 
 25 26  1  0  0  0  0 
 14 27  1  1  0  0  0 
 27 28  1  0  0  0  0 
M  END
> <Rank>
17

> <Priority_score>
0.024

> <Reaction_type>
aliphatic hydroxylation

> <Parent_ID>
40

> <Parent_InChI>
InChI=1S/C10H15NO/c1-8(11-2)10(12)9-6-4-3-5-7-9/h3-8,10-12H,1-2H3

> <Parent_SMILES>
CN[C@@H](C)[C@@H](O)c1ccccc1

$$$$
Molecule 40_metabolite 18
  CDK     0516241031

 26 26  0  0  0  0  0  0  0  0999 V2000
   -2.3176    0.5843    0.0000 C   0  0  0  0  0  0  0  0  0  0  0  0
   -3.6167   -0.1657    0.0000 H   0  0  0  0  0  0  0  0  0  0  0  0
   -1.8046   -0.8253    0.0000 H   0  0  0  0  0  0  0  0  0  0  0  0
   -0.8404    0.8448    0.0000 H   0  0  0  0  0  0  0  0  0  0  0  0
   -2.3176    2.0843    0.0000 C   0  0  0  0  0  0  0  0  0  0  0  0
   -3.6167    2.8343    0.0000 N   0  0  0  0  0  0  0  0  0  0  0  0
   -3.6167    4.3343    0.0000 H   0  0  0  0  0  0  0  0  0  0  0  0
   -4.9157    2.0843    0.0000 C   0  0  0  0  0  0  0  0  0  0  0  0
   -6.2148    2.8343    0.0000 H   0  0  0  0  0  0  0  0  0  0  0  0
   -5.8799    0.9352    0.0000 H   0  0  0  0  0  0  0  0  0  0  0  0
   -3.9515    0.9352    0.0000 H   0  0  0  0  0  0  0  0  0  0  0  0
   -1.0186    2.8343    0.0000 C   0  0  2  0  0  0  0  0  0  0  0  0
   -0.0544    3.9834    0.0000 H   0  0  0  0  0  0  0  0  0  0  0  0
    0.2804    2.0843    0.0000 C   0  0  0  0  0  0  0  0  0  0  0  0
    1.5799    2.8351    0.0000 C   0  0  0  0  0  0  0  0  0  0  0  0
    1.5797    4.3351    0.0000 H   0  0  0  0  0  0  0  0  0  0  0  0
    2.8790    2.0851    0.0000 C   0  0  0  0  0  0  0  0  0  0  0  0
    4.1781    2.8349    0.0000 H   0  0  0  0  0  0  0  0  0  0  0  0
    2.8785    0.5843    0.0000 C   0  0  0  0  0  0  0  0  0  0  0  0
    4.1775   -0.1657    0.0000 H   0  0  0  0  0  0  0  0  0  0  0  0
    1.5790   -0.1665    0.0000 C   0  0  0  0  0  0  0  0  0  0  0  0
    1.5792   -1.6665    0.0000 H   0  0  0  0  0  0  0  0  0  0  0  0
    0.2799    0.5835    0.0000 C   0  0  0  0  0  0  0  0  0  0  0  0
   -1.0192   -0.1663    0.0000 H   0  0  0  0  0  0  0  0  0  0  0  0
   -1.9828    3.9834    0.0000 O   0  0  0  0  0  0  0  0  0  0  0  0
   -1.4698    5.3929    0.0000 H   0  0  0  0  0  0  0  0  0  0  0  0
  1  2  1  0  0  0  0 
  1  3  1  0  0  0  0 
  1  4  1  0  0  0  0 
  1  5  1  0  0  0  0 
  5  6  2  0  0  0  0 
  6  7  1  4  0  0  0 
  6  8  1  0  0  0  0 
  8  9  1  0  0  0  0 
  8 10  1  0  0  0  0 
  8 11  1  0  0  0  0 
  5 12  1  0  0  0  0 
 12 13  1  6  0  0  0 
 12 14  1  0  0  0  0 
 14 15  2  0  0  0  0 
 15 16  1  0  0  0  0 
 15 17  1  0  0  0  0 
 17 18  1  0  0  0  0 
 17 19  2  0  0  0  0 
 19 20  1  0  0  0  0 
 19 21  1  0  0  0  0 
 21 22  1  0  0  0  0 
 21 23  2  0  0  0  0 
 14 23  1  0  0  0  0 
 23 24  1  0  0  0  0 
 12 25  1  1  0  0  0 
 25 26  1  0  0  0  0 
M  CHG  1   6   1
M  END
> <Rank>
18

> <Priority_score>
0.011200000000000002

> <Reaction_type>
dehydration of N-C bond

> <Parent_ID>
40

> <Parent_InChI>
InChI=1S/C10H15NO/c1-8(11-2)10(12)9-6-4-3-5-7-9/h3-8,10-12H,1-2H3

> <Parent_SMILES>
CN[C@@H](C)[C@@H](O)c1ccccc1

$$$$
Molecule 40_metabolite 19
  CDK     0516241031

 25 25  0  0  0  0  0  0  0  0999 V2000
   -2.3176    0.5843    0.0000 C   0  0  0  0  0  0  0  0  0  0  0  0
   -3.6167   -0.1657    0.0000 H   0  0  0  0  0  0  0  0  0  0  0  0
   -1.8046   -0.8253    0.0000 H   0  0  0  0  0  0  0  0  0  0  0  0
   -0.8404    0.8448    0.0000 H   0  0  0  0  0  0  0  0  0  0  0  0
   -2.3176    2.0843    0.0000 C   0  0  0  0  0  0  0  0  0  0  0  0
   -3.6167    2.8343    0.0000 N   0  0  0  0  0  0  0  0  0  0  0  0
   -4.9157    2.0843    0.0000 C   0  0  0  0  0  0  0  0  0  0  0  0
   -6.2148    2.8343    0.0000 H   0  0  0  0  0  0  0  0  0  0  0  0
   -5.8799    0.9352    0.0000 H   0  0  0  0  0  0  0  0  0  0  0  0
   -3.9515    0.9352    0.0000 H   0  0  0  0  0  0  0  0  0  0  0  0
   -1.0186    2.8343    0.0000 C   0  0  2  0  0  0  0  0  0  0  0  0
   -0.0544    3.9834    0.0000 H   0  0  0  0  0  0  0  0  0  0  0  0
    0.2804    2.0843    0.0000 C   0  0  0  0  0  0  0  0  0  0  0  0
    1.5799    2.8351    0.0000 C   0  0  0  0  0  0  0  0  0  0  0  0
    1.5797    4.3351    0.0000 H   0  0  0  0  0  0  0  0  0  0  0  0
    2.8790    2.0851    0.0000 C   0  0  0  0  0  0  0  0  0  0  0  0
    4.1781    2.8349    0.0000 H   0  0  0  0  0  0  0  0  0  0  0  0
    2.8785    0.5843    0.0000 C   0  0  0  0  0  0  0  0  0  0  0  0
    4.1775   -0.1657    0.0000 H   0  0  0  0  0  0  0  0  0  0  0  0
    1.5790   -0.1665    0.0000 C   0  0  0  0  0  0  0  0  0  0  0  0
    1.5792   -1.6665    0.0000 H   0  0  0  0  0  0  0  0  0  0  0  0
    0.2799    0.5835    0.0000 C   0  0  0  0  0  0  0  0  0  0  0  0
   -1.0192   -0.1663    0.0000 H   0  0  0  0  0  0  0  0  0  0  0  0
   -1.9828    3.9834    0.0000 O   0  0  0  0  0  0  0  0  0  0  0  0
   -1.4698    5.3929    0.0000 H   0  0  0  0  0  0  0  0  0  0  0  0
  1  2  1  0  0  0  0 
  1  3  1  0  0  0  0 
  1  4  1  0  0  0  0 
  1  5  1  4  0  0  0 
  5  6  2  0  0  0  0 
  6  7  1  0  0  0  0 
  7  8  1  0  0  0  0 
  7  9  1  0  0  0  0 
  7 10  1  0  0  0  0 
  5 11  1  0  0  0  0 
 11 12  1  6  0  0  0 
 11 13  1  0  0  0  0 
 13 14  2  0  0  0  0 
 14 15  1  0  0  0  0 
 14 16  1  0  0  0  0 
 16 17  1  0  0  0  0 
 16 18  2  0  0  0  0 
 18 19  1  0  0  0  0 
 18 20  1  0  0  0  0 
 20 21  1  0  0  0  0 
 20 22  2  0  0  0  0 
 13 22  1  0  0  0  0 
 22 23  1  0  0  0  0 
 11 24  1  1  0  0  0 
 24 25  1  0  0  0  0 
M  END
> <Rank>
18

> <Priority_score>
0.011200000000000002

> <Reaction_type>
dehydration of N-C bond

> <Parent_ID>
40

> <Parent_InChI>
InChI=1S/C10H15NO/c1-8(11-2)10(12)9-6-4-3-5-7-9/h3-8,10-12H,1-2H3

> <Parent_SMILES>
CN[C@@H](C)[C@@H](O)c1ccccc1

$$$$
Molecule 40_metabolite 20
  CDK     0516241031

 25 25  0  0  0  0  0  0  0  0999 V2000
   -2.7882    1.2996    0.0000 C   0  0  0  0  0  0  0  0  0  0  0  0
   -4.2882    1.2996    0.0000 H   0  0  0  0  0  0  0  0  0  0  0  0
   -2.0382    0.0005    0.0000 H   0  0  0  0  0  0  0  0  0  0  0  0
   -2.0382    2.5986    0.0000 C   0  0  0  0  0  0  0  0  0  0  0  0
    0.4218    2.5986    0.0000 C   0  0  2  0  0  0  0  0  0  0  0  0
    1.8313    3.1116    0.0000 H   0  0  0  0  0  0  0  0  0  0  0  0
    1.1718    1.2996    0.0000 C   0  0  0  0  0  0  0  0  0  0  0  0
    2.6726    1.3001    0.0000 C   0  0  0  0  0  0  0  0  0  0  0  0
    3.4224    2.5992    0.0000 H   0  0  0  0  0  0  0  0  0  0  0  0
    3.4226    0.0010    0.0000 C   0  0  0  0  0  0  0  0  0  0  0  0
    4.9226    0.0008    0.0000 H   0  0  0  0  0  0  0  0  0  0  0  0
    2.6718   -1.2985    0.0000 C   0  0  0  0  0  0  0  0  0  0  0  0
    3.4218   -2.5975    0.0000 H   0  0  0  0  0  0  0  0  0  0  0  0
    1.1710   -1.2990    0.0000 C   0  0  0  0  0  0  0  0  0  0  0  0
    0.4212   -2.5981    0.0000 H   0  0  0  0  0  0  0  0  0  0  0  0
    0.4210    0.0001    0.0000 C   0  0  0  0  0  0  0  0  0  0  0  0
   -1.0790    0.0003    0.0000 H   0  0  0  0  0  0  0  0  0  0  0  0
    0.1613    4.0758    0.0000 O   0  0  0  0  0  0  0  0  0  0  0  0
    1.3104    5.0400    0.0000 H   0  0  0  0  0  0  0  0  0  0  0  0
   -2.7882    3.8976    0.0000 N   0  0  0  0  0  0  0  0  0  0  0  0
   -2.0382    5.1967    0.0000 H   0  0  0  0  0  0  0  0  0  0  0  0
   -4.2882    3.8976    0.0000 C   0  0  0  0  0  0  0  0  0  0  0  0
   -5.0382    5.1967    0.0000 H   0  0  0  0  0  0  0  0  0  0  0  0
   -5.6977    3.3846    0.0000 H   0  0  0  0  0  0  0  0  0  0  0  0
   -4.0277    2.4204    0.0000 H   0  0  0  0  0  0  0  0  0  0  0  0
  1  2  1  0  0  0  0 
  1  3  1  0  0  0  0 
  1  4  2  0  0  0  0 
  4  5  1  0  0  0  0 
  5  6  1  6  0  0  0 
  5  7  1  0  0  0  0 
  7  8  2  0  0  0  0 
  8  9  1  0  0  0  0 
  8 10  1  0  0  0  0 
 10 11  1  0  0  0  0 
 10 12  2  0  0  0  0 
 12 13  1  0  0  0  0 
 12 14  1  0  0  0  0 
 14 15  1  0  0  0  0 
 14 16  2  0  0  0  0 
  7 16  1  0  0  0  0 
 16 17  1  0  0  0  0 
  5 18  1  1  0  0  0 
 18 19  1  0  0  0  0 
  4 20  1  0  0  0  0 
 20 21  1  0  0  0  0 
 20 22  1  0  0  0  0 
 22 23  1  0  0  0  0 
 22 24  1  0  0  0  0 
 22 25  1  0  0  0  0 
M  END
> <Rank>
20

> <Priority_score>
0.0104

> <Reaction_type>
alkyl dehydrogenation

> <Parent_ID>
40

> <Parent_InChI>
InChI=1S/C10H15NO/c1-8(11-2)10(12)9-6-4-3-5-7-9/h3-8,10-12H,1-2H3

> <Parent_SMILES>
CN[C@@H](C)[C@@H](O)c1ccccc1

$$$$
Molecule 40_metabolite 21
  CDK     0516241031

 28 28  0  0  0  0  0  0  0  0999 V2000
    4.7782    1.0420    0.0000 C   0  0  0  0  0  0  0  0  0  0  0  0
    5.2915   -0.3675    0.0000 H   0  0  0  0  0  0  0  0  0  0  0  0
    3.8139    2.1909    0.0000 H   0  0  0  0  0  0  0  0  0  0  0  0
    2.2324   -0.4284    0.0000 H   0  0  0  0  0  0  0  0  0  0  0  0
    5.7422    2.1912    0.0000 C   0  0  1  0  0  0  0  0  0  0  0  0
    6.7066    1.0423    0.0000 H   0  0  0  0  0  0  0  0  0  0  0  0
    3.1959    3.6608    0.0000 C   0  0  2  0  0  0  0  0  0  0  0  0
    4.1599    4.8100    0.0000 H   0  0  0  0  0  0  0  0  0  0  0  0
    0.6500    2.1904    0.0000 C   0  0  0  0  0  0  0  0  0  0  0  0
    0.6500    0.6904    0.0000 C   0  0  0  0  0  0  0  0  0  0  0  0
   -0.6500   -0.0596    0.0000 C   0  0  0  0  0  0  0  0  0  0  0  0
   -0.6500   -1.5596    0.0000 H   0  0  0  0  0  0  0  0  0  0  0  0
   -1.9500    0.6904    0.0000 C   0  0  0  0  0  0  0  0  0  0  0  0
   -3.2489   -0.0598    0.0000 H   0  0  0  0  0  0  0  0  0  0  0  0
   -1.9500    2.1904    0.0000 C   0  0  0  0  0  0  0  0  0  0  0  0
   -3.2489    2.9406    0.0000 H   0  0  0  0  0  0  0  0  0  0  0  0
   -0.6500    2.9404    0.0000 C   0  0  0  0  0  0  0  0  0  0  0  0
   -0.6500    4.4404    0.0000 H   0  0  0  0  0  0  0  0  0  0  0  0
    2.5394   -1.5621    0.0000 O   0  0  0  0  0  0  0  0  0  0  0  0
    2.0262   -2.9715    0.0000 H   0  0  0  0  0  0  0  0  0  0  0  0
    2.2315    4.8097    0.0000 O   0  0  0  0  0  0  0  0  0  0  0  0
    2.7443    6.2193    0.0000 H   0  0  0  0  0  0  0  0  0  0  0  0
    7.0411    2.9414    0.0000 N   0  0  0  0  0  0  0  0  0  0  0  0
    7.0409    4.4414    0.0000 H   0  0  0  0  0  0  0  0  0  0  0  0
    8.3403    2.1916    0.0000 C   0  0  0  0  0  0  0  0  0  0  0  0
    8.3405    0.6916    0.0000 H   0  0  0  0  0  0  0  0  0  0  0  0
    8.8531    3.6013    0.0000 H   0  0  0  0  0  0  0  0  0  0  0  0
    9.8176    1.9314    0.0000 H   0  0  0  0  0  0  0  0  0  0  0  0
  1  2  1  0  0  0  0 
  1  3  1  0  0  0  0 
  1  4  1  0  0  0  0 
  1  5  1  0  0  0  0 
  5  6  1  6  0  0  0 
  5  7  1  0  0  0  0 
  7  8  1  1  0  0  0 
  7  9  1  0  0  0  0 
  9 10  2  0  0  0  0 
 10 11  1  0  0  0  0 
 11 12  1  0  0  0  0 
 11 13  2  0  0  0  0 
 13 14  1  0  0  0  0 
 13 15  1  0  0  0  0 
 15 16  1  0  0  0  0 
 15 17  2  0  0  0  0 
  9 17  1  0  0  0  0 
 17 18  1  0  0  0  0 
 10 19  1  0  0  0  0 
 19 20  1  0  0  0  0 
  7 21  1  6  0  0  0 
 21 22  1  0  0  0  0 
  5 23  1  1  0  0  0 
 23 24  1  0  0  0  0 
 23 25  1  0  0  0  0 
 25 26  1  0  0  0  0 
 25 27  1  0  0  0  0 
 25 28  1  0  0  0  0 
M  END
> <Rank>
21

> <Priority_score>
0.0

> <Reaction_type>
aromatic hydroxylation

> <Parent_ID>
40

> <Parent_InChI>
InChI=1S/C10H15NO/c1-8(11-2)10(12)9-6-4-3-5-7-9/h3-8,10-12H,1-2H3

> <Parent_SMILES>
CN[C@@H](C)[C@@H](O)c1ccccc1

$$$$
Molecule 41
  CDK     0516241031

 12 12  0  0  0  0  0  0  0  0999 V2000
    0.9750    3.1329    0.0000 C   0  0  0  0  0  0  0  0  0  0  0  0
    0.9750    1.6329    0.0000 C   0  0  1  0  0  0  0  0  0  0  0  0
   -0.3240    0.8829    0.0000 C   0  0  1  0  0  0  0  0  0  0  0  0
   -1.6231    1.6329    0.0000 C   0  0  0  0  0  0  0  0  0  0  0  0
   -2.9226    0.8821    0.0000 C   0  0  0  0  0  0  0  0  0  0  0  0
   -4.2216    1.6321    0.0000 C   0  0  0  0  0  0  0  0  0  0  0  0
   -4.2212    3.1329    0.0000 C   0  0  0  0  0  0  0  0  0  0  0  0
   -2.9216    3.8837    0.0000 C   0  0  0  0  0  0  0  0  0  0  0  0
   -1.6226    3.1337    0.0000 C   0  0  0  0  0  0  0  0  0  0  0  0
   -0.3240   -0.6171    0.0000 O   0  0  0  0  0  0  0  0  0  0  0  0
    2.2740    0.8829    0.0000 N   0  0  0  0  0  0  0  0  0  0  0  0
    3.5731    1.6329    0.0000 C   0  0  0  0  0  0  0  0  0  0  0  0
  2  1  1  6  0  0  0 
  2  3  1  0  0  0  0 
  3  4  1  0  0  0  0 
  4  5  2  0  0  0  0 
  5  6  1  0  0  0  0 
  6  7  2  0  0  0  0 
  7  8  1  0  0  0  0 
  8  9  2  0  0  0  0 
  4  9  1  0  0  0  0 
  3 10  1  6  0  0  0 
  2 11  1  0  0  0  0 
 11 12  1  0  0  0  0 
M  END
> <SMILES>
CN[C@@H](C)[C@H](O)c1ccccc1

$$$$
Molecule 41_metabolite 1
  CDK     0516241031

 32 32  0  0  0  0  0  0  0  0999 V2000
   -2.6432    2.2839    0.0000 C   0  0  0  0  0  0  0  0  0  0  0  0
   -3.7923    3.2481    0.0000 H   0  0  0  0  0  0  0  0  0  0  0  0
   -3.7923    1.3197    0.0000 H   0  0  0  0  0  0  0  0  0  0  0  0
   -1.8932    0.9849    0.0000 H   0  0  0  0  0  0  0  0  0  0  0  0
   -1.2337    2.7970    0.0000 C   0  0  1  0  0  0  0  0  0  0  0  0
   -0.9732    1.3197    0.0000 H   0  0  0  0  0  0  0  0  0  0  0  0
    0.2663    2.7970    0.0000 C   0  0  1  0  0  0  0  0  0  0  0  0
    1.6759    3.3100    0.0000 H   0  0  0  0  0  0  0  0  0  0  0  0
    1.0163    1.4979    0.0000 C   0  0  0  0  0  0  0  0  0  0  0  0
    2.5172    1.4984    0.0000 C   0  0  0  0  0  0  0  0  0  0  0  0
    3.2670    2.7976    0.0000 H   0  0  0  0  0  0  0  0  0  0  0  0
    3.2672    0.1994    0.0000 C   0  0  0  0  0  0  0  0  0  0  0  0
    4.7672    0.1991    0.0000 H   0  0  0  0  0  0  0  0  0  0  0  0
    2.5163   -1.1002    0.0000 C   0  0  0  0  0  0  0  0  0  0  0  0
    3.2663   -2.3992    0.0000 H   0  0  0  0  0  0  0  0  0  0  0  0
    1.0155   -1.1006    0.0000 C   0  0  0  0  0  0  0  0  0  0  0  0
    0.2657   -2.3998    0.0000 H   0  0  0  0  0  0  0  0  0  0  0  0
    0.2655    0.1984    0.0000 C   0  0  0  0  0  0  0  0  0  0  0  0
   -1.2345    0.1986    0.0000 H   0  0  0  0  0  0  0  0  0  0  0  0
    0.0059    4.2742    0.0000 O   0  0  0  0  0  0  0  0  0  0  0  0
    1.1549    5.2383    0.0000 H   0  0  0  0  0  0  0  0  0  0  0  0
   -1.9837    4.0960    0.0000 N   0  0  0  0  0  0  0  0  0  0  0  0
   -3.9637    4.0960    0.0000 C   0  0  0  0  0  0  0  0  0  0  0  0
   -4.7137    5.3950    0.0000 H   0  0  0  0  0  0  0  0  0  0  0  0
   -4.2241    2.6188    0.0000 H   0  0  0  0  0  0  0  0  0  0  0  0
   -5.3732    3.5830    0.0000 H   0  0  0  0  0  0  0  0  0  0  0  0
   -1.2337    5.3950    0.0000 C   0  0  0  0  0  0  0  0  0  0  0  0
    0.2663    5.3950    0.0000 O   0  0  0  0  0  0  0  0  0  0  0  0
   -1.9837    6.6941    0.0000 C   0  0  0  0  0  0  0  0  0  0  0  0
   -1.2337    7.9931    0.0000 H   0  0  0  0  0  0  0  0  0  0  0  0
   -3.1327    5.7299    0.0000 H   0  0  0  0  0  0  0  0  0  0  0  0
   -3.1327    7.6583    0.0000 H   0  0  0  0  0  0  0  0  0  0  0  0
  1  2  1  0  0  0  0 
  1  3  1  0  0  0  0 
  1  4  1  0  0  0  0 
  5  1  1  6  0  0  0 
  5  6  1  1  0  0  0 
  5  7  1  0  0  0  0 
  7  8  1  1  0  0  0 
  7  9  1  0  0  0  0 
  9 10  2  0  0  0  0 
 10 11  1  0  0  0  0 
 10 12  1  0  0  0  0 
 12 13  1  0  0  0  0 
 12 14  2  0  0  0  0 
 14 15  1  0  0  0  0 
 14 16  1  0  0  0  0 
 16 17  1  0  0  0  0 
 16 18  2  0  0  0  0 
  9 18  1  0  0  0  0 
 18 19  1  0  0  0  0 
  7 20  1  6  0  0  0 
 20 21  1  0  0  0  0 
  5 22  1  0  0  0  0 
 22 23  1  0  0  0  0 
 23 24  1  0  0  0  0 
 23 25  1  0  0  0  0 
 23 26  1  0  0  0  0 
 22 27  1  0  0  0  0 
 27 28  2  0  0  0  0 
 27 29  1  0  0  0  0 
 29 30  1  0  0  0  0 
 29 31  1  0  0  0  0 
 29 32  1  0  0  0  0 
M  END
> <Rank>
1

> <Priority_score>
0.824

> <Reaction_type>
N-acetylation_(NH1-CH3)

> <Parent_ID>
41

> <Parent_InChI>
InChI=1S/C10H15NO/c1-8(11-2)10(12)9-6-4-3-5-7-9/h3-8,10-12H,1-2H3

> <Parent_SMILES>
CN[C@@H](C)[C@H](O)c1ccccc1

$$$$
Molecule 41_metabolite 2
  CDK     0516241031

 24 24  0  0  0  0  0  0  0  0999 V2000
    2.9468    2.2622    0.0000 C   0  0  0  0  0  0  0  0  0  0  0  0
    4.2458    1.5122    0.0000 H   0  0  0  0  0  0  0  0  0  0  0  0
    1.4695    2.5227    0.0000 H   0  0  0  0  0  0  0  0  0  0  0  0
    2.4337    0.8527    0.0000 H   0  0  0  0  0  0  0  0  0  0  0  0
    2.9468    3.7622    0.0000 C   0  0  1  0  0  0  0  0  0  0  0  0
    4.4240    3.5018    0.0000 H   0  0  0  0  0  0  0  0  0  0  0  0
    1.6477    4.5122    0.0000 C   0  0  1  0  0  0  0  0  0  0  0  0
    0.6835    5.6613    0.0000 H   0  0  0  0  0  0  0  0  0  0  0  0
    0.3487    3.7622    0.0000 C   0  0  0  0  0  0  0  0  0  0  0  0
   -0.9508    4.5131    0.0000 C   0  0  0  0  0  0  0  0  0  0  0  0
   -0.9506    6.0131    0.0000 H   0  0  0  0  0  0  0  0  0  0  0  0
   -2.2499    3.7631    0.0000 C   0  0  0  0  0  0  0  0  0  0  0  0
   -3.5490    4.5129    0.0000 H   0  0  0  0  0  0  0  0  0  0  0  0
   -2.2494    2.2622    0.0000 C   0  0  0  0  0  0  0  0  0  0  0  0
   -3.5484    1.5122    0.0000 H   0  0  0  0  0  0  0  0  0  0  0  0
   -0.9499    1.5114    0.0000 C   0  0  0  0  0  0  0  0  0  0  0  0
   -0.9501    0.0114    0.0000 H   0  0  0  0  0  0  0  0  0  0  0  0
    0.3492    2.2614    0.0000 C   0  0  0  0  0  0  0  0  0  0  0  0
    1.6483    1.5116    0.0000 H   0  0  0  0  0  0  0  0  0  0  0  0
    2.6119    5.6613    0.0000 O   0  0  0  0  0  0  0  0  0  0  0  0
    2.0989    7.0708    0.0000 H   0  0  0  0  0  0  0  0  0  0  0  0
    3.6968    5.0613    0.0000 N   0  0  0  0  0  0  0  0  0  0  0  0
    5.1968    5.0613    0.0000 H   0  0  0  0  0  0  0  0  0  0  0  0
    2.9468    6.3603    0.0000 H   0  0  0  0  0  0  0  0  0  0  0  0
  1  2  1  0  0  0  0 
  1  3  1  0  0  0  0 
  1  4  1  0  0  0  0 
  1  5  1  0  0  0  0 
  5  6  1  6  0  0  0 
  5  7  1  0  0  0  0 
  7  8  1  6  0  0  0 
  7  9  1  0  0  0  0 
  9 10  2  0  0  0  0 
 10 11  1  0  0  0  0 
 10 12  1  0  0  0  0 
 12 13  1  0  0  0  0 
 12 14  2  0  0  0  0 
 14 15  1  0  0  0  0 
 14 16  1  0  0  0  0 
 16 17  1  0  0  0  0 
 16 18  2  0  0  0  0 
  9 18  1  0  0  0  0 
 18 19  1  0  0  0  0 
  7 20  1  1  0  0  0 
 20 21  1  0  0  0  0 
  5 22  1  1  0  0  0 
 22 23  1  0  0  0  0 
 22 24  1  0  0  0  0 
M  END
> <Rank>
2

> <Priority_score>
0.8154158638846178

> <Reaction_type>
N-demethylation_(R-NHCH3)

> <Parent_ID>
41

> <Parent_InChI>
InChI=1S/C10H15NO/c1-8(11-2)10(12)9-6-4-3-5-7-9/h3-8,10-12H,1-2H3

> <Parent_SMILES>
CN[C@@H](C)[C@H](O)c1ccccc1

$$$$
Molecule 41_metabolite 3
  CDK     0516241031

 28 28  0  0  0  0  0  0  0  0999 V2000
   -2.5232   -0.5444    0.0000 C   0  0  0  0  0  0  0  0  0  0  0  0
   -3.9327   -1.0575    0.0000 H   0  0  0  0  0  0  0  0  0  0  0  0
   -2.2627   -2.0217    0.0000 H   0  0  0  0  0  0  0  0  0  0  0  0
   -1.0232   -0.5444    0.0000 H   0  0  0  0  0  0  0  0  0  0  0  0
   -2.2627    0.9328    0.0000 C   0  0  1  0  0  0  0  0  0  0  0  0
   -0.8532    0.4197    0.0000 H   0  0  0  0  0  0  0  0  0  0  0  0
   -1.5127    2.2318    0.0000 C   0  0  1  0  0  0  0  0  0  0  0  0
   -1.2523    3.7090    0.0000 H   0  0  0  0  0  0  0  0  0  0  0  0
   -0.0127    2.2318    0.0000 C   0  0  0  0  0  0  0  0  0  0  0  0
    0.7373    3.5318    0.0000 C   0  0  0  0  0  0  0  0  0  0  0  0
   -0.0129    4.8307    0.0000 H   0  0  0  0  0  0  0  0  0  0  0  0
    2.2373    3.5318    0.0000 C   0  0  0  0  0  0  0  0  0  0  0  0
    2.9875    4.8307    0.0000 H   0  0  0  0  0  0  0  0  0  0  0  0
    2.9873    2.2318    0.0000 C   0  0  0  0  0  0  0  0  0  0  0  0
    4.4873    2.2318    0.0000 H   0  0  0  0  0  0  0  0  0  0  0  0
    2.2373    0.9318    0.0000 C   0  0  0  0  0  0  0  0  0  0  0  0
    2.9875   -0.3671    0.0000 H   0  0  0  0  0  0  0  0  0  0  0  0
    0.7373    0.9318    0.0000 C   0  0  0  0  0  0  0  0  0  0  0  0
   -0.0129   -0.3671    0.0000 H   0  0  0  0  0  0  0  0  0  0  0  0
   -2.9223    2.7448    0.0000 O   0  0  0  0  0  0  0  0  0  0  0  0
   -3.1827    4.2220    0.0000 H   0  0  0  0  0  0  0  0  0  0  0  0
   -4.2427    0.9328    0.0000 N   0  0  0  0  0  0  0  0  0  0  0  0
   -4.9927   -0.3663    0.0000 H   0  0  0  0  0  0  0  0  0  0  0  0
   -4.9927    2.2318    0.0000 C   0  0  0  0  0  0  0  0  0  0  0  0
   -6.1418    3.1960    0.0000 H   0  0  0  0  0  0  0  0  0  0  0  0
   -6.1418    1.2676    0.0000 H   0  0  0  0  0  0  0  0  0  0  0  0
   -4.2427    3.5308    0.0000 O   0  0  0  0  0  0  0  0  0  0  0  0
   -4.9927    4.8299    0.0000 H   0  0  0  0  0  0  0  0  0  0  0  0
  1  2  1  0  0  0  0 
  1  3  1  0  0  0  0 
  1  4  1  0  0  0  0 
  5  1  1  6  0  0  0 
  5  6  1  1  0  0  0 
  5  7  1  0  0  0  0 
  7  8  1  1  0  0  0 
  7  9  1  0  0  0  0 
  9 10  2  0  0  0  0 
 10 11  1  0  0  0  0 
 10 12  1  0  0  0  0 
 12 13  1  0  0  0  0 
 12 14  2  0  0  0  0 
 14 15  1  0  0  0  0 
 14 16  1  0  0  0  0 
 16 17  1  0  0  0  0 
 16 18  2  0  0  0  0 
  9 18  1  0  0  0  0 
 18 19  1  0  0  0  0 
  7 20  1  6  0  0  0 
 20 21  1  0  0  0  0 
  5 22  1  0  0  0  0 
 22 23  1  0  0  0  0 
 22 24  1  0  0  0  0 
 24 25  1  0  0  0  0 
 24 26  1  0  0  0  0 
 24 27  1  0  0  0  0 
 27 28  1  0  0  0  0 
M  END
> <Rank>
2

> <Priority_score>
0.8154158638846178

> <Reaction_type>
aliphatic hydroxylation

> <Parent_ID>
41

> <Parent_InChI>
InChI=1S/C10H15NO/c1-8(11-2)10(12)9-6-4-3-5-7-9/h3-8,10-12H,1-2H3

> <Parent_SMILES>
CN[C@@H](C)[C@H](O)c1ccccc1

$$$$
Molecule 41_metabolite 4
  CDK     0516241031

 28 28  0  0  0  0  0  0  0  0999 V2000
   -3.3264    1.0124    0.0000 C   0  0  0  0  0  0  0  0  0  0  0  0
   -4.8036    1.2728    0.0000 H   0  0  0  0  0  0  0  0  0  0  0  0
   -3.8394   -0.3972    0.0000 H   0  0  0  0  0  0  0  0  0  0  0  0
   -2.0273    0.2624    0.0000 H   0  0  0  0  0  0  0  0  0  0  0  0
   -2.3622    2.1614    0.0000 C   0  0  1  0  0  0  0  0  0  0  0  0
   -1.3980    1.0124    0.0000 H   0  0  0  0  0  0  0  0  0  0  0  0
   -1.0632    2.9114    0.0000 C   0  0  1  0  0  0  0  0  0  0  0  0
   -0.0990    4.0605    0.0000 H   0  0  0  0  0  0  0  0  0  0  0  0
    0.2359    2.1614    0.0000 C   0  0  0  0  0  0  0  0  0  0  0  0
    1.5354    2.9123    0.0000 C   0  0  0  0  0  0  0  0  0  0  0  0
    1.5352    4.4123    0.0000 H   0  0  0  0  0  0  0  0  0  0  0  0
    2.8344    2.1623    0.0000 C   0  0  0  0  0  0  0  0  0  0  0  0
    4.1336    2.9121    0.0000 H   0  0  0  0  0  0  0  0  0  0  0  0
    2.8340    0.6614    0.0000 C   0  0  0  0  0  0  0  0  0  0  0  0
    4.1330   -0.0886    0.0000 H   0  0  0  0  0  0  0  0  0  0  0  0
    1.5344   -0.0894    0.0000 C   0  0  0  0  0  0  0  0  0  0  0  0
    1.5347   -1.5894    0.0000 H   0  0  0  0  0  0  0  0  0  0  0  0
    0.2354    0.6606    0.0000 C   0  0  0  0  0  0  0  0  0  0  0  0
   -1.0638   -0.0892    0.0000 H   0  0  0  0  0  0  0  0  0  0  0  0
   -2.0273    4.0605    0.0000 O   0  0  0  0  0  0  0  0  0  0  0  0
   -1.5143    5.4700    0.0000 H   0  0  0  0  0  0  0  0  0  0  0  0
   -3.6612    2.9114    0.0000 N   0  0  0  0  0  0  0  0  0  0  0  0
   -3.6612    4.4114    0.0000 C   0  0  0  0  0  0  0  0  0  0  0  0
   -2.3622    5.1614    0.0000 H   0  0  0  0  0  0  0  0  0  0  0  0
   -4.1743    5.8210    0.0000 H   0  0  0  0  0  0  0  0  0  0  0  0
   -5.1384    4.1510    0.0000 H   0  0  0  0  0  0  0  0  0  0  0  0
   -4.9603    2.1614    0.0000 O   0  0  0  0  0  0  0  0  0  0  0  0
   -6.2593    2.9114    0.0000 H   0  0  0  0  0  0  0  0  0  0  0  0
  1  2  1  0  0  0  0 
  1  3  1  0  0  0  0 
  1  4  1  0  0  0  0 
  5  1  1  6  0  0  0 
  5  6  1  1  0  0  0 
  5  7  1  0  0  0  0 
  7  8  1  1  0  0  0 
  7  9  1  0  0  0  0 
  9 10  2  0  0  0  0 
 10 11  1  0  0  0  0 
 10 12  1  0  0  0  0 
 12 13  1  0  0  0  0 
 12 14  2  0  0  0  0 
 14 15  1  0  0  0  0 
 14 16  1  0  0  0  0 
 16 17  1  0  0  0  0 
 16 18  2  0  0  0  0 
  9 18  1  0  0  0  0 
 18 19  1  0  0  0  0 
  7 20  1  6  0  0  0 
 20 21  1  0  0  0  0 
  5 22  1  0  0  0  0 
 22 23  1  0  0  0  0 
 23 24  1  0  0  0  0 
 23 25  1  0  0  0  0 
 23 26  1  0  0  0  0 
 22 27  1  0  0  0  0 
 27 28  1  0  0  0  0 
M  END
> <Rank>
2

> <Priority_score>
0.8154158638846178

> <Reaction_type>
amine hydroxylation

> <Parent_ID>
41

> <Parent_InChI>
InChI=1S/C10H15NO/c1-8(11-2)10(12)9-6-4-3-5-7-9/h3-8,10-12H,1-2H3

> <Parent_SMILES>
CN[C@@H](C)[C@H](O)c1ccccc1

$$$$
Molecule 41_metabolite 5
  CDK     0516241031

 47 48  0  0  0  0  0  0  0  0999 V2000
    2.4545   -0.5675    0.0000 C   0  0  0  0  0  0  0  0  0  0  0  0
    1.4877    0.5794    0.0000 H   0  0  0  0  0  0  0  0  0  0  0  0
    2.9708   -1.9758    0.0000 H   0  0  0  0  0  0  0  0  0  0  0  0
    1.1572   -1.3205    0.0000 H   0  0  0  0  0  0  0  0  0  0  0  0
    3.9312   -0.3036    0.0000 C   0  0  1  0  0  0  0  0  0  0  0  0
    3.9346   -1.8036    0.0000 H   0  0  0  0  0  0  0  0  0  0  0  0
    2.9193    2.4568    0.0000 C   0  0  1  0  0  0  0  0  0  0  0  0
    1.6220    1.7038    0.0000 H   0  0  0  0  0  0  0  0  0  0  0  0
    1.6431    3.9706    0.0000 C   0  0  0  0  0  0  0  0  0  0  0  0
    2.1536    5.3819    0.0000 C   0  0  0  0  0  0  0  0  0  0  0  0
    3.6302    5.6456    0.0000 H   0  0  0  0  0  0  0  0  0  0  0  0
    1.1868    6.5288    0.0000 C   0  0  0  0  0  0  0  0  0  0  0  0
    1.6963    7.9396    0.0000 H   0  0  0  0  0  0  0  0  0  0  0  0
   -0.2906    6.2643    0.0000 C   0  0  0  0  0  0  0  0  0  0  0  0
   -1.2574    7.4111    0.0000 H   0  0  0  0  0  0  0  0  0  0  0  0
   -0.8011    4.8529    0.0000 C   0  0  0  0  0  0  0  0  0  0  0  0
   -2.2778    4.5893    0.0000 H   0  0  0  0  0  0  0  0  0  0  0  0
    0.1657    3.7061    0.0000 C   0  0  0  0  0  0  0  0  0  0  0  0
   -0.3438    2.2953    0.0000 H   0  0  0  0  0  0  0  0  0  0  0  0
    4.4962    4.3449    0.0000 O   0  0  0  0  0  0  0  0  0  0  0  0
    5.9740    4.0878    0.0000 C   0  0  0  0  0  0  0  0  0  0  0  0
    5.4674    2.6759    0.0000 H   0  0  0  0  0  0  0  0  0  0  0  0
    5.9740    5.5778    0.0000 C   0  0  0  0  0  0  0  0  0  0  0  0
    5.4621    6.9877    0.0000 H   0  0  0  0  0  0  0  0  0  0  0  0
    7.2940    6.3378    0.0000 C   0  0  0  0  0  0  0  0  0  0  0  0
    8.2628    7.4830    0.0000 H   0  0  0  0  0  0  0  0  0  0  0  0
    8.5940    5.5778    0.0000 C   0  0  0  0  0  0  0  0  0  0  0  0
   10.0707    5.3146    0.0000 H   0  0  0  0  0  0  0  0  0  0  0  0
    8.5940    4.0878    0.0000 C   0  0  0  0  0  0  0  0  0  0  0  0
    9.1067    2.6781    0.0000 H   0  0  0  0  0  0  0  0  0  0  0  0
   10.5439    4.4314    0.0000 C   0  0  0  0  0  0  0  0  0  0  0  0
   11.0571    5.8409    0.0000 O   0  0  0  0  0  0  0  0  0  0  0  0
   11.5080    3.2822    0.0000 O   0  0  0  0  0  0  0  0  0  0  0  0
   12.9852    3.5425    0.0000 H   0  0  0  0  0  0  0  0  0  0  0  0
    7.2940    3.3378    0.0000 O   0  0  0  0  0  0  0  0  0  0  0  0
    9.1121    6.9855    0.0000 O   0  0  0  0  0  0  0  0  0  0  0  0
   10.5903    7.2406    0.0000 H   0  0  0  0  0  0  0  0  0  0  0  0
    6.3328    7.4894    0.0000 O   0  0  0  0  0  0  0  0  0  0  0  0
    6.8495    8.8976    0.0000 H   0  0  0  0  0  0  0  0  0  0  0  0
    4.4967    5.3179    0.0000 O   0  0  0  0  0  0  0  0  0  0  0  0
    2.9162    7.2030    0.0000 H   0  0  0  0  0  0  0  0  0  0  0  0
    5.4090   -0.5607    0.0000 N   0  0  0  0  0  0  0  0  0  0  0  0
    6.3705    0.5906    0.0000 H   0  0  0  0  0  0  0  0  0  0  0  0
    5.9252   -1.9690    0.0000 C   0  0  0  0  0  0  0  0  0  0  0  0
    4.9637   -3.1203    0.0000 H   0  0  0  0  0  0  0  0  0  0  0  0
    7.2225   -1.2161    0.0000 H   0  0  0  0  0  0  0  0  0  0  0  0
    6.8921   -3.1159    0.0000 H   0  0  0  0  0  0  0  0  0  0  0  0
  1  2  1  0  0  0  0 
  1  3  1  0  0  0  0 
  1  4  1  0  0  0  0 
  1  5  1  0  0  0  0 
  5  6  1  6  0  0  0 
  5  7  1  0  0  0  0 
  7  8  1  6  0  0  0 
  7  9  1  1  0  0  0 
  9 10  2  0  0  0  0 
 10 11  1  0  0  0  0 
 10 12  1  0  0  0  0 
 12 13  1  0  0  0  0 
 12 14  2  0  0  0  0 
 14 15  1  0  0  0  0 
 14 16  1  0  0  0  0 
 16 17  1  0  0  0  0 
 16 18  2  0  0  0  0 
  9 18  1  0  0  0  0 
 18 19  1  0  0  0  0 
  7 20  1  0  0  0  0 
 20 21  1  0  0  0  0 
 21 22  1  0  0  0  0 
 21 23  1  0  0  0  0 
 23 24  1  0  0  0  0 
 23 25  1  0  0  0  0 
 25 26  1  0  0  0  0 
 25 27  1  0  0  0  0 
 27 28  1  0  0  0  0 
 27 29  1  0  0  0  0 
 29 30  1  0  0  0  0 
 29 31  1  0  0  0  0 
 31 32  2  0  0  0  0 
 31 33  1  0  0  0  0 
 33 34  1  0  0  0  0 
 29 35  1  0  0  0  0 
 21 35  1  0  0  0  0 
 27 36  1  0  0  0  0 
 36 37  1  0  0  0  0 
 25 38  1  0  0  0  0 
 38 39  1  0  0  0  0 
 23 40  1  0  0  0  0 
 40 41  1  0  0  0  0 
  5 42  1  1  0  0  0 
 42 43  1  0  0  0  0 
 42 44  1  0  0  0  0 
 44 45  1  0  0  0  0 
 44 46  1  0  0  0  0 
 44 47  1  0  0  0  0 
M  END
> <Rank>
5

> <Priority_score>
0.812

> <Reaction_type>
O-glucuronidation_(aliphatic_hydroxyl)

> <Parent_ID>
41

> <Parent_InChI>
InChI=1S/C10H15NO/c1-8(11-2)10(12)9-6-4-3-5-7-9/h3-8,10-12H,1-2H3

> <Parent_SMILES>
CN[C@@H](C)[C@H](O)c1ccccc1

$$$$
Molecule 41_metabolite 6
  CDK     0516241031

 31 31  0  0  0  0  0  0  0  0999 V2000
   -2.7762    3.1005    0.0000 C   0  0  0  0  0  0  0  0  0  0  0  0
   -3.7404    1.9514    0.0000 H   0  0  0  0  0  0  0  0  0  0  0  0
   -4.0753    3.8505    0.0000 H   0  0  0  0  0  0  0  0  0  0  0  0
   -2.2632    4.5100    0.0000 H   0  0  0  0  0  0  0  0  0  0  0  0
   -1.2990    2.8400    0.0000 C   0  0  1  0  0  0  0  0  0  0  0  0
   -1.8121    1.4305    0.0000 H   0  0  0  0  0  0  0  0  0  0  0  0
   -0.0000    2.0900    0.0000 C   0  0  1  0  0  0  0  0  0  0  0  0
    1.4772    1.8295    0.0000 H   0  0  0  0  0  0  0  0  0  0  0  0
   -0.0000    0.5900    0.0000 C   0  0  0  0  0  0  0  0  0  0  0  0
    1.3000   -0.1600    0.0000 C   0  0  0  0  0  0  0  0  0  0  0  0
    2.5989    0.5902    0.0000 H   0  0  0  0  0  0  0  0  0  0  0  0
    1.3000   -1.6600    0.0000 C   0  0  0  0  0  0  0  0  0  0  0  0
    2.5989   -2.4102    0.0000 H   0  0  0  0  0  0  0  0  0  0  0  0
   -0.0000   -2.4100    0.0000 C   0  0  0  0  0  0  0  0  0  0  0  0
   -0.0000   -3.9100    0.0000 H   0  0  0  0  0  0  0  0  0  0  0  0
   -1.3000   -1.6600    0.0000 C   0  0  0  0  0  0  0  0  0  0  0  0
   -2.5989   -2.4102    0.0000 H   0  0  0  0  0  0  0  0  0  0  0  0
   -1.3000   -0.1600    0.0000 C   0  0  0  0  0  0  0  0  0  0  0  0
   -2.5989    0.5902    0.0000 H   0  0  0  0  0  0  0  0  0  0  0  0
    0.5130    3.4995    0.0000 O   0  0  0  0  0  0  0  0  0  0  0  0
    1.9902    3.7600    0.0000 S   0  0  0  0  0  0  0  0  0  0  0  0
    1.4772    5.1695    0.0000 O   0  0  0  0  0  0  0  0  0  0  0  0
    3.2893    4.5100    0.0000 O   0  0  0  0  0  0  0  0  0  0  0  0
    2.9544    2.6109    0.0000 O   0  0  0  0  0  0  0  0  0  0  0  0
    4.4316    2.8714    0.0000 H   0  0  0  0  0  0  0  0  0  0  0  0
   -1.2990    4.8200    0.0000 N   0  0  0  0  0  0  0  0  0  0  0  0
    0.0000    5.5700    0.0000 H   0  0  0  0  0  0  0  0  0  0  0  0
   -2.5981    5.5700    0.0000 C   0  0  0  0  0  0  0  0  0  0  0  0
   -3.8971    4.8200    0.0000 H   0  0  0  0  0  0  0  0  0  0  0  0
   -3.5623    6.7191    0.0000 H   0  0  0  0  0  0  0  0  0  0  0  0
   -1.6339    6.7191    0.0000 H   0  0  0  0  0  0  0  0  0  0  0  0
  1  2  1  0  0  0  0 
  1  3  1  0  0  0  0 
  1  4  1  0  0  0  0 
  5  1  1  6  0  0  0 
  5  6  1  1  0  0  0 
  5  7  1  0  0  0  0 
  7  8  1  1  0  0  0 
  7  9  1  0  0  0  0 
  9 10  2  0  0  0  0 
 10 11  1  0  0  0  0 
 10 12  1  0  0  0  0 
 12 13  1  0  0  0  0 
 12 14  2  0  0  0  0 
 14 15  1  0  0  0  0 
 14 16  1  0  0  0  0 
 16 17  1  0  0  0  0 
 16 18  2  0  0  0  0 
  9 18  1  0  0  0  0 
 18 19  1  0  0  0  0 
  7 20  1  6  0  0  0 
 20 21  1  0  0  0  0 
 21 22  2  0  0  0  0 
 21 23  2  0  0  0  0 
 21 24  1  0  0  0  0 
 24 25  1  0  0  0  0 
  5 26  1  0  0  0  0 
 26 27  1  0  0  0  0 
 26 28  1  0  0  0  0 
 28 29  1  0  0  0  0 
 28 30  1  0  0  0  0 
 28 31  1  0  0  0  0 
M  END
> <Rank>
6

> <Priority_score>
0.7237092084006462

> <Reaction_type>
sulfation_(aliphatic_hydroxyl)

> <Parent_ID>
41

> <Parent_InChI>
InChI=1S/C10H15NO/c1-8(11-2)10(12)9-6-4-3-5-7-9/h3-8,10-12H,1-2H3

> <Parent_SMILES>
CN[C@@H](C)[C@H](O)c1ccccc1

$$$$
Molecule 41_metabolite 7
  CDK     0516241031

 26 26  0  0  0  0  0  0  0  0999 V2000
   -2.5877   -0.1290    0.0000 C   0  0  0  0  0  0  0  0  0  0  0  0
   -3.9973   -0.6420    0.0000 H   0  0  0  0  0  0  0  0  0  0  0  0
   -2.3273   -1.6062    0.0000 H   0  0  0  0  0  0  0  0  0  0  0  0
   -1.0877   -0.1290    0.0000 H   0  0  0  0  0  0  0  0  0  0  0  0
   -2.3273    1.3482    0.0000 C   0  0  1  0  0  0  0  0  0  0  0  0
   -0.9177    0.8352    0.0000 H   0  0  0  0  0  0  0  0  0  0  0  0
   -1.5773    2.6473    0.0000 C   0  0  1  0  0  0  0  0  0  0  0  0
   -1.3168    4.1245    0.0000 H   0  0  0  0  0  0  0  0  0  0  0  0
   -0.0773    2.6473    0.0000 C   0  0  0  0  0  0  0  0  0  0  0  0
    0.6727    3.9473    0.0000 C   0  0  0  0  0  0  0  0  0  0  0  0
   -0.0775    5.2462    0.0000 H   0  0  0  0  0  0  0  0  0  0  0  0
    2.1727    3.9473    0.0000 C   0  0  0  0  0  0  0  0  0  0  0  0
    2.9229    5.2462    0.0000 H   0  0  0  0  0  0  0  0  0  0  0  0
    2.9227    2.6473    0.0000 C   0  0  0  0  0  0  0  0  0  0  0  0
    4.4227    2.6473    0.0000 H   0  0  0  0  0  0  0  0  0  0  0  0
    2.1727    1.3473    0.0000 C   0  0  0  0  0  0  0  0  0  0  0  0
    2.9229    0.0484    0.0000 H   0  0  0  0  0  0  0  0  0  0  0  0
    0.6727    1.3473    0.0000 C   0  0  0  0  0  0  0  0  0  0  0  0
   -0.0775    0.0484    0.0000 H   0  0  0  0  0  0  0  0  0  0  0  0
   -2.9868    3.1603    0.0000 O   0  0  0  0  0  0  0  0  0  0  0  0
   -3.2473    4.6375    0.0000 H   0  0  0  0  0  0  0  0  0  0  0  0
   -3.8273    1.3482    0.0000 N   0  0  0  0  0  0  0  0  0  0  0  0
   -4.5773    0.0492    0.0000 H   0  0  0  0  0  0  0  0  0  0  0  0
   -4.5773    2.6473    0.0000 C   0  0  0  0  0  0  0  0  0  0  0  0
   -6.0773    2.6473    0.0000 H   0  0  0  0  0  0  0  0  0  0  0  0
   -3.8273    3.9463    0.0000 H   0  0  0  0  0  0  0  0  0  0  0  0
  1  2  1  0  0  0  0 
  1  3  1  0  0  0  0 
  1  4  1  0  0  0  0 
  5  1  1  6  0  0  0 
  5  6  1  1  0  0  0 
  5  7  1  0  0  0  0 
  7  8  1  1  0  0  0 
  7  9  1  0  0  0  0 
  9 10  2  0  0  0  0 
 10 11  1  0  0  0  0 
 10 12  1  0  0  0  0 
 12 13  1  0  0  0  0 
 12 14  2  0  0  0  0 
 14 15  1  0  0  0  0 
 14 16  1  0  0  0  0 
 16 17  1  0  0  0  0 
 16 18  2  0  0  0  0 
  9 18  1  0  0  0  0 
 18 19  1  0  0  0  0 
  7 20  1  6  0  0  0 
 20 21  1  0  0  0  0 
  5 22  1  0  0  0  0 
 22 23  1  0  0  0  0 
 22 24  2  0  0  0  0 
 24 25  1  0  0  0  0 
 24 26  1  0  0  0  0 
M  CHG  1  22   1
M  END
> <Rank>
7

> <Priority_score>
0.16308317277692358

> <Reaction_type>
dehydration of N-C bond

> <Parent_ID>
41

> <Parent_InChI>
InChI=1S/C10H15NO/c1-8(11-2)10(12)9-6-4-3-5-7-9/h3-8,10-12H,1-2H3

> <Parent_SMILES>
CN[C@@H](C)[C@H](O)c1ccccc1

$$$$
Molecule 41_metabolite 8
  CDK     0516241031

 25 25  0  0  0  0  0  0  0  0999 V2000
    1.6718    2.6276    0.0000 C   0  0  0  0  0  0  0  0  0  0  0  0
    3.1490    2.3672    0.0000 H   0  0  0  0  0  0  0  0  0  0  0  0
    2.1849    4.0372    0.0000 H   0  0  0  0  0  0  0  0  0  0  0  0
    0.3728    3.3776    0.0000 H   0  0  0  0  0  0  0  0  0  0  0  0
    0.7076    1.4786    0.0000 C   0  0  1  0  0  0  0  0  0  0  0  0
   -0.2565    2.6276    0.0000 H   0  0  0  0  0  0  0  0  0  0  0  0
   -0.5914    0.7286    0.0000 C   0  0  0  0  0  0  0  0  0  0  0  0
   -0.5914   -0.7714    0.0000 O   0  0  0  0  0  0  0  0  0  0  0  0
   -1.8904    1.4786    0.0000 C   0  0  0  0  0  0  0  0  0  0  0  0
   -3.1899    0.7277    0.0000 C   0  0  0  0  0  0  0  0  0  0  0  0
   -3.1897   -0.7723    0.0000 H   0  0  0  0  0  0  0  0  0  0  0  0
   -4.4890    1.4777    0.0000 C   0  0  0  0  0  0  0  0  0  0  0  0
   -5.7881    0.7279    0.0000 H   0  0  0  0  0  0  0  0  0  0  0  0
   -4.4885    2.9786    0.0000 C   0  0  0  0  0  0  0  0  0  0  0  0
   -5.7875    3.7286    0.0000 H   0  0  0  0  0  0  0  0  0  0  0  0
   -3.1890    3.7294    0.0000 C   0  0  0  0  0  0  0  0  0  0  0  0
   -3.1892    5.2294    0.0000 H   0  0  0  0  0  0  0  0  0  0  0  0
   -1.8899    2.9794    0.0000 C   0  0  0  0  0  0  0  0  0  0  0  0
   -0.5908    3.7292    0.0000 H   0  0  0  0  0  0  0  0  0  0  0  0
    2.0067    0.7286    0.0000 N   0  0  0  0  0  0  0  0  0  0  0  0
    3.3057    1.4786    0.0000 H   0  0  0  0  0  0  0  0  0  0  0  0
    2.0067   -0.7714    0.0000 C   0  0  0  0  0  0  0  0  0  0  0  0
    3.3057   -1.5214    0.0000 H   0  0  0  0  0  0  0  0  0  0  0  0
    1.4937   -2.1810    0.0000 H   0  0  0  0  0  0  0  0  0  0  0  0
    0.5295   -0.5110    0.0000 H   0  0  0  0  0  0  0  0  0  0  0  0
  1  2  1  0  0  0  0 
  1  3  1  0  0  0  0 
  1  4  1  0  0  0  0 
  1  5  1  0  0  0  0 
  5  6  1  1  0  0  0 
  5  7  1  6  0  0  0 
  7  8  2  0  0  0  0 
  7  9  1  0  0  0  0 
  9 10  2  0  0  0  0 
 10 11  1  0  0  0  0 
 10 12  1  0  0  0  0 
 12 13  1  0  0  0  0 
 12 14  2  0  0  0  0 
 14 15  1  0  0  0  0 
 14 16  1  0  0  0  0 
 16 17  1  0  0  0  0 
 16 18  2  0  0  0  0 
  9 18  1  0  0  0  0 
 18 19  1  0  0  0  0 
  5 20  1  0  0  0  0 
 20 21  1  0  0  0  0 
 20 22  1  0  0  0  0 
 22 23  1  0  0  0  0 
 22 24  1  0  0  0  0 
 22 25  1  0  0  0  0 
M  END
> <Rank>
8

> <Priority_score>
0.124

> <Reaction_type>
secondary_alcohol_oxidation_(benzylic)

> <Parent_ID>
41

> <Parent_InChI>
InChI=1S/C10H15NO/c1-8(11-2)10(12)9-6-4-3-5-7-9/h3-8,10-12H,1-2H3

> <Parent_SMILES>
CN[C@@H](C)[C@H](O)c1ccccc1

$$$$
Molecule 41_metabolite 9
  CDK     0516241031

 28 28  0  0  0  0  0  0  0  0999 V2000
   -0.7103   -0.2320    0.0000 C   0  0  0  0  0  0  0  0  0  0  0  0
   -2.1862    0.0357    0.0000 H   0  0  0  0  0  0  0  0  0  0  0  0
   -1.2303   -1.6390    0.0000 H   0  0  0  0  0  0  0  0  0  0  0  0
    0.5850   -0.9884    0.0000 H   0  0  0  0  0  0  0  0  0  0  0  0
    0.2595    0.9123    0.0000 C   0  0  1  0  0  0  0  0  0  0  0  0
    1.2180   -0.2415    0.0000 H   0  0  0  0  0  0  0  0  0  0  0  0
    1.5622    1.6559    0.0000 C   0  0  1  0  0  0  0  0  0  0  0  0
    2.5321    2.8002    0.0000 H   0  0  0  0  0  0  0  0  0  0  0  0
    2.8576    0.8995    0.0000 C   0  0  0  0  0  0  0  0  0  0  0  0
    4.1566    1.6495    0.0000 C   0  0  0  0  0  0  0  0  0  0  0  0
    4.1492    3.1495    0.0000 H   0  0  0  0  0  0  0  0  0  0  0  0
    5.4411    0.9247    0.0000 C   0  0  0  0  0  0  0  0  0  0  0  0
    6.7302    1.6917    0.0000 H   0  0  0  0  0  0  0  0  0  0  0  0
    5.4666   -0.6195    0.0000 C   0  0  0  0  0  0  0  0  0  0  0  0
    4.1676   -1.3695    0.0000 C   0  0  0  0  0  0  0  0  0  0  0  0
    4.1552   -2.8694    0.0000 H   0  0  0  0  0  0  0  0  0  0  0  0
    2.8431   -0.5753    0.0000 C   0  0  0  0  0  0  0  0  0  0  0  0
    1.5342   -1.3082    0.0000 H   0  0  0  0  0  0  0  0  0  0  0  0
    6.7718   -1.3587    0.0000 O   0  0  0  0  0  0  0  0  0  0  0  0
    8.0646   -0.5980    0.0000 H   0  0  0  0  0  0  0  0  0  0  0  0
    0.6037    2.8097    0.0000 O   0  0  0  0  0  0  0  0  0  0  0  0
    1.1237    4.2167    0.0000 H   0  0  0  0  0  0  0  0  0  0  0  0
   -1.0358    1.6687    0.0000 N   0  0  0  0  0  0  0  0  0  0  0  0
   -2.3385    0.9251    0.0000 H   0  0  0  0  0  0  0  0  0  0  0  0
   -1.0284    3.1687    0.0000 C   0  0  0  0  0  0  0  0  0  0  0  0
    0.2743    3.9123    0.0000 H   0  0  0  0  0  0  0  0  0  0  0  0
   -1.5345    4.5807    0.0000 H   0  0  0  0  0  0  0  0  0  0  0  0
   -2.5069    2.9155    0.0000 H   0  0  0  0  0  0  0  0  0  0  0  0
  1  2  1  0  0  0  0 
  1  3  1  0  0  0  0 
  1  4  1  0  0  0  0 
  5  1  1  6  0  0  0 
  5  6  1  1  0  0  0 
  5  7  1  0  0  0  0 
  7  8  1  1  0  0  0 
  7  9  1  0  0  0  0 
  9 10  2  0  0  0  0 
 10 11  1  0  0  0  0 
 10 12  1  0  0  0  0 
 12 13  1  0  0  0  0 
 12 14  2  0  0  0  0 
 14 15  1  0  0  0  0 
 15 16  1  0  0  0  0 
 15 17  2  0  0  0  0 
  9 17  1  0  0  0  0 
 17 18  1  0  0  0  0 
 14 19  1  0  0  0  0 
 19 20  1  0  0  0  0 
  7 21  1  6  0  0  0 
 21 22  1  0  0  0  0 
  5 23  1  0  0  0  0 
 23 24  1  0  0  0  0 
 23 25  1  0  0  0  0 
 25 26  1  0  0  0  0 
 25 27  1  0  0  0  0 
 25 28  1  0  0  0  0 
M  END
> <Rank>
8

> <Priority_score>
0.124

> <Reaction_type>
aromatic_hydroxylation_(para_to_carbon)

> <Parent_ID>
41

> <Parent_InChI>
InChI=1S/C10H15NO/c1-8(11-2)10(12)9-6-4-3-5-7-9/h3-8,10-12H,1-2H3

> <Parent_SMILES>
CN[C@@H](C)[C@H](O)c1ccccc1

$$$$
Molecule 41_metabolite 10
  CDK     0516241031

 28 28  0  0  0  0  0  0  0  0999 V2000
   -2.5232   -0.5444    0.0000 C   0  0  0  0  0  0  0  0  0  0  0  0
   -3.9327   -1.0575    0.0000 H   0  0  0  0  0  0  0  0  0  0  0  0
   -2.2627   -2.0217    0.0000 H   0  0  0  0  0  0  0  0  0  0  0  0
   -1.0232   -0.5444    0.0000 H   0  0  0  0  0  0  0  0  0  0  0  0
   -2.2627    0.9328    0.0000 C   0  0  1  0  0  0  0  0  0  0  0  0
   -0.8532    0.4197    0.0000 H   0  0  0  0  0  0  0  0  0  0  0  0
   -1.5127    2.2318    0.0000 C   0  0  1  0  0  0  0  0  0  0  0  0
   -0.0127    2.2318    0.0000 C   0  0  0  0  0  0  0  0  0  0  0  0
    0.7373    3.5318    0.0000 C   0  0  0  0  0  0  0  0  0  0  0  0
   -0.0129    4.8307    0.0000 H   0  0  0  0  0  0  0  0  0  0  0  0
    2.2373    3.5318    0.0000 C   0  0  0  0  0  0  0  0  0  0  0  0
    2.9875    4.8307    0.0000 H   0  0  0  0  0  0  0  0  0  0  0  0
    2.9873    2.2318    0.0000 C   0  0  0  0  0  0  0  0  0  0  0  0
    4.4873    2.2318    0.0000 H   0  0  0  0  0  0  0  0  0  0  0  0
    2.2373    0.9318    0.0000 C   0  0  0  0  0  0  0  0  0  0  0  0
    2.9875   -0.3671    0.0000 H   0  0  0  0  0  0  0  0  0  0  0  0
    0.7373    0.9318    0.0000 C   0  0  0  0  0  0  0  0  0  0  0  0
   -0.0129   -0.3671    0.0000 H   0  0  0  0  0  0  0  0  0  0  0  0
   -1.2523    3.7090    0.0000 O   0  0  0  0  0  0  0  0  0  0  0  0
   -2.4013    4.6732    0.0000 H   0  0  0  0  0  0  0  0  0  0  0  0
   -2.9223    2.7448    0.0000 O   0  0  0  0  0  0  0  0  0  0  0  0
   -3.1827    4.2220    0.0000 H   0  0  0  0  0  0  0  0  0  0  0  0
   -4.2427    0.9328    0.0000 N   0  0  0  0  0  0  0  0  0  0  0  0
   -4.9927   -0.3663    0.0000 H   0  0  0  0  0  0  0  0  0  0  0  0
   -4.9927    2.2318    0.0000 C   0  0  0  0  0  0  0  0  0  0  0  0
   -4.2427    3.5308    0.0000 H   0  0  0  0  0  0  0  0  0  0  0  0
   -6.1418    3.1960    0.0000 H   0  0  0  0  0  0  0  0  0  0  0  0
   -6.1418    1.2676    0.0000 H   0  0  0  0  0  0  0  0  0  0  0  0
  1  2  1  0  0  0  0 
  1  3  1  0  0  0  0 
  1  4  1  0  0  0  0 
  5  1  1  6  0  0  0 
  5  6  1  1  0  0  0 
  5  7  1  0  0  0  0 
  7  8  1  0  0  0  0 
  8  9  2  0  0  0  0 
  9 10  1  0  0  0  0 
  9 11  1  0  0  0  0 
 11 12  1  0  0  0  0 
 11 13  2  0  0  0  0 
 13 14  1  0  0  0  0 
 13 15  1  0  0  0  0 
 15 16  1  0  0  0  0 
 15 17  2  0  0  0  0 
  8 17  1  0  0  0  0 
 17 18  1  0  0  0  0 
  7 19  1  6  0  0  0 
 19 20  1  0  0  0  0 
  7 21  1  1  0  0  0 
 21 22  1  0  0  0  0 
  5 23  1  0  0  0  0 
 23 24  1  0  0  0  0 
 23 25  1  0  0  0  0 
 25 26  1  0  0  0  0 
 25 27  1  0  0  0  0 
 25 28  1  0  0  0  0 
M  END
> <Rank>
8

> <Priority_score>
0.124

> <Reaction_type>
aliphatic hydroxylation

> <Parent_ID>
41

> <Parent_InChI>
InChI=1S/C10H15NO/c1-8(11-2)10(12)9-6-4-3-5-7-9/h3-8,10-12H,1-2H3

> <Parent_SMILES>
CN[C@@H](C)[C@H](O)c1ccccc1

$$$$
Molecule 41_metabolite 11
  CDK     0516241031

 28 28  0  0  0  0  0  0  0  0999 V2000
    3.7010   -3.2425    0.0000 C   0  0  0  0  0  0  0  0  0  0  0  0
    2.2238   -2.9818    0.0000 H   0  0  0  0  0  0  0  0  0  0  0  0
    4.9999   -3.9927    0.0000 H   0  0  0  0  0  0  0  0  0  0  0  0
    2.6950   -6.0050    0.0000 H   0  0  0  0  0  0  0  0  0  0  0  0
    4.6653   -2.0936    0.0000 C   0  0  1  0  0  0  0  0  0  0  0  0
    5.6293   -3.2428    0.0000 H   0  0  0  0  0  0  0  0  0  0  0  0
    3.3664   -1.3434    0.0000 C   0  0  1  0  0  0  0  0  0  0  0  0
    4.3308   -0.1945    0.0000 H   0  0  0  0  0  0  0  0  0  0  0  0
    1.6515   -2.3331    0.0000 C   0  0  0  0  0  0  0  0  0  0  0  0
    1.6510   -3.8340    0.0000 C   0  0  0  0  0  0  0  0  0  0  0  0
    2.9488   -4.5861    0.0000 H   0  0  0  0  0  0  0  0  0  0  0  0
    0.3565   -4.5761    0.0000 C   0  0  0  0  0  0  0  0  0  0  0  0
    0.3543   -6.0761    0.0000 H   0  0  0  0  0  0  0  0  0  0  0  0
   -0.9425   -3.8261    0.0000 C   0  0  0  0  0  0  0  0  0  0  0  0
   -2.2404   -4.5781    0.0000 H   0  0  0  0  0  0  0  0  0  0  0  0
   -0.9470   -2.3340    0.0000 C   0  0  0  0  0  0  0  0  0  0  0  0
    0.3525   -1.5831    0.0000 C   0  0  0  0  0  0  0  0  0  0  0  0
    0.3522   -0.0831    0.0000 H   0  0  0  0  0  0  0  0  0  0  0  0
   -2.2473   -1.5861    0.0000 O   0  0  0  0  0  0  0  0  0  0  0  0
   -3.5451   -2.3383    0.0000 H   0  0  0  0  0  0  0  0  0  0  0  0
    2.4024   -0.1942    0.0000 O   0  0  0  0  0  0  0  0  0  0  0  0
    2.9157    1.2153    0.0000 H   0  0  0  0  0  0  0  0  0  0  0  0
    5.9645   -1.3438    0.0000 N   0  0  0  0  0  0  0  0  0  0  0  0
    5.9647    0.1562    0.0000 H   0  0  0  0  0  0  0  0  0  0  0  0
    7.2634   -2.0940    0.0000 C   0  0  0  0  0  0  0  0  0  0  0  0
    7.2632   -3.5940    0.0000 H   0  0  0  0  0  0  0  0  0  0  0  0
    7.7767   -0.6846    0.0000 H   0  0  0  0  0  0  0  0  0  0  0  0
    8.7406   -2.3547    0.0000 H   0  0  0  0  0  0  0  0  0  0  0  0
  1  2  1  0  0  0  0 
  1  3  1  0  0  0  0 
  1  4  1  0  0  0  0 
  1  5  1  0  0  0  0 
  5  6  1  6  0  0  0 
  5  7  1  0  0  0  0 
  7  8  1  6  0  0  0 
  7  9  1  0  0  0  0 
  9 10  2  0  0  0  0 
 10 11  1  0  0  0  0 
 10 12  1  0  0  0  0 
 12 13  1  0  0  0  0 
 12 14  2  0  0  0  0 
 14 15  1  0  0  0  0 
 14 16  1  0  0  0  0 
 16 17  2  0  0  0  0 
  9 17  1  0  0  0  0 
 17 18  1  0  0  0  0 
 16 19  1  0  0  0  0 
 19 20  1  0  0  0  0 
  7 21  1  1  0  0  0 
 21 22  1  0  0  0  0 
  5 23  1  1  0  0  0 
 23 24  1  0  0  0  0 
 23 25  1  0  0  0  0 
 25 26  1  0  0  0  0 
 25 27  1  0  0  0  0 
 25 28  1  0  0  0  0 
M  END
> <Rank>
8

> <Priority_score>
0.124

> <Reaction_type>
aromatic_hydroxylation_(meta_to_carbon)

> <Parent_ID>
41

> <Parent_InChI>
InChI=1S/C10H15NO/c1-8(11-2)10(12)9-6-4-3-5-7-9/h3-8,10-12H,1-2H3

> <Parent_SMILES>
CN[C@@H](C)[C@H](O)c1ccccc1

$$$$
Molecule 41_metabolite 12
  CDK     0516241031

 28 28  0  0  0  0  0  0  0  0999 V2000
   -3.2634    1.8777    0.0000 C   0  0  0  0  0  0  0  0  0  0  0  0
   -3.5239    0.4005    0.0000 H   0  0  0  0  0  0  0  0  0  0  0  0
   -4.7634    1.8777    0.0000 H   0  0  0  0  0  0  0  0  0  0  0  0
   -3.5239    3.3549    0.0000 H   0  0  0  0  0  0  0  0  0  0  0  0
   -1.8539    2.3908    0.0000 C   0  0  1  0  0  0  0  0  0  0  0  0
   -0.3539    2.3908    0.0000 C   0  0  1  0  0  0  0  0  0  0  0  0
    1.0556    2.9038    0.0000 H   0  0  0  0  0  0  0  0  0  0  0  0
    0.3961    1.0917    0.0000 C   0  0  0  0  0  0  0  0  0  0  0  0
    1.8969    1.0922    0.0000 C   0  0  0  0  0  0  0  0  0  0  0  0
    2.6467    2.3914    0.0000 H   0  0  0  0  0  0  0  0  0  0  0  0
    2.6469   -0.2068    0.0000 C   0  0  0  0  0  0  0  0  0  0  0  0
    4.1469   -0.2071    0.0000 H   0  0  0  0  0  0  0  0  0  0  0  0
    1.8961   -1.5063    0.0000 C   0  0  0  0  0  0  0  0  0  0  0  0
    2.6461   -2.8054    0.0000 H   0  0  0  0  0  0  0  0  0  0  0  0
    0.3953   -1.5068    0.0000 C   0  0  0  0  0  0  0  0  0  0  0  0
   -0.3545   -2.8060    0.0000 H   0  0  0  0  0  0  0  0  0  0  0  0
   -0.3547   -0.2078    0.0000 C   0  0  0  0  0  0  0  0  0  0  0  0
   -1.8547   -0.2076    0.0000 H   0  0  0  0  0  0  0  0  0  0  0  0
   -0.6144    3.8680    0.0000 O   0  0  0  0  0  0  0  0  0  0  0  0
    0.5347    4.8322    0.0000 H   0  0  0  0  0  0  0  0  0  0  0  0
   -2.8439    4.1055    0.0000 N   0  0  0  0  0  0  0  0  0  0  0  0
   -2.0939    5.4045    0.0000 H   0  0  0  0  0  0  0  0  0  0  0  0
   -4.3439    4.1055    0.0000 C   0  0  0  0  0  0  0  0  0  0  0  0
   -5.0939    5.4045    0.0000 H   0  0  0  0  0  0  0  0  0  0  0  0
   -5.7534    3.5925    0.0000 H   0  0  0  0  0  0  0  0  0  0  0  0
   -4.8569    2.6960    0.0000 H   0  0  0  0  0  0  0  0  0  0  0  0
   -1.5934    0.9136    0.0000 O   0  0  0  0  0  0  0  0  0  0  0  0
   -2.7425   -0.0506    0.0000 H   0  0  0  0  0  0  0  0  0  0  0  0
  1  2  1  0  0  0  0 
  1  3  1  0  0  0  0 
  1  4  1  0  0  0  0 
  5  1  1  6  0  0  0 
  5  6  1  0  0  0  0 
  6  7  1  1  0  0  0 
  6  8  1  0  0  0  0 
  8  9  2  0  0  0  0 
  9 10  1  0  0  0  0 
  9 11  1  0  0  0  0 
 11 12  1  0  0  0  0 
 11 13  2  0  0  0  0 
 13 14  1  0  0  0  0 
 13 15  1  0  0  0  0 
 15 16  1  0  0  0  0 
 15 17  2  0  0  0  0 
  8 17  1  0  0  0  0 
 17 18  1  0  0  0  0 
  6 19  1  6  0  0  0 
 19 20  1  0  0  0  0 
  5 21  1  1  0  0  0 
 21 22  1  0  0  0  0 
 21 23  1  0  0  0  0 
 23 24  1  0  0  0  0 
 23 25  1  0  0  0  0 
 23 26  1  0  0  0  0 
  5 27  1  0  0  0  0 
 27 28  1  0  0  0  0 
M  END
> <Rank>
8

> <Priority_score>
0.124

> <Reaction_type>
aliphatic_hydroxylation_(tert_carbon_next_to_SP2)

> <Parent_ID>
41

> <Parent_InChI>
InChI=1S/C10H15NO/c1-8(11-2)10(12)9-6-4-3-5-7-9/h3-8,10-12H,1-2H3

> <Parent_SMILES>
CN[C@@H](C)[C@H](O)c1ccccc1

$$$$
Molecule 41_metabolite 13
  CDK     0516241031

 32 32  0  0  0  0  0  0  0  0999 V2000
   -4.0541    0.6099    0.0000 C   0  0  0  0  0  0  0  0  0  0  0  0
   -5.5313    0.8704    0.0000 H   0  0  0  0  0  0  0  0  0  0  0  0
   -4.5671   -0.7997    0.0000 H   0  0  0  0  0  0  0  0  0  0  0  0
   -2.7550   -0.1401    0.0000 H   0  0  0  0  0  0  0  0  0  0  0  0
   -3.0899    1.7589    0.0000 C   0  0  1  0  0  0  0  0  0  0  0  0
   -2.1257    0.6099    0.0000 H   0  0  0  0  0  0  0  0  0  0  0  0
   -1.7908    2.5089    0.0000 C   0  0  1  0  0  0  0  0  0  0  0  0
   -0.8267    3.6580    0.0000 H   0  0  0  0  0  0  0  0  0  0  0  0
   -0.4918    1.7589    0.0000 C   0  0  0  0  0  0  0  0  0  0  0  0
   -0.4923    0.2581    0.0000 C   0  0  0  0  0  0  0  0  0  0  0  0
   -1.7914   -0.4917    0.0000 H   0  0  0  0  0  0  0  0  0  0  0  0
    0.8067   -0.4919    0.0000 C   0  0  0  0  0  0  0  0  0  0  0  0
    0.8070   -1.9919    0.0000 H   0  0  0  0  0  0  0  0  0  0  0  0
    2.1063    0.2589    0.0000 C   0  0  0  0  0  0  0  0  0  0  0  0
    2.1067    1.7598    0.0000 C   0  0  0  0  0  0  0  0  0  0  0  0
    0.8077    2.5098    0.0000 C   0  0  0  0  0  0  0  0  0  0  0  0
    0.8075    4.0098    0.0000 H   0  0  0  0  0  0  0  0  0  0  0  0
    3.4059    2.5096    0.0000 O   0  0  0  0  0  0  0  0  0  0  0  0
    4.7048    1.7594    0.0000 C   0  0  0  0  0  0  0  0  0  0  0  0
    6.0040    2.5092    0.0000 H   0  0  0  0  0  0  0  0  0  0  0  0
    3.7405    0.6104    0.0000 H   0  0  0  0  0  0  0  0  0  0  0  0
    5.6688    0.6101    0.0000 H   0  0  0  0  0  0  0  0  0  0  0  0
    3.4053   -0.4911    0.0000 O   0  0  0  0  0  0  0  0  0  0  0  0
    4.7043    0.2589    0.0000 H   0  0  0  0  0  0  0  0  0  0  0  0
   -2.7550    3.6580    0.0000 O   0  0  0  0  0  0  0  0  0  0  0  0
   -2.2420    5.0676    0.0000 H   0  0  0  0  0  0  0  0  0  0  0  0
   -4.3889    2.5089    0.0000 N   0  0  0  0  0  0  0  0  0  0  0  0
   -5.6880    1.7589    0.0000 H   0  0  0  0  0  0  0  0  0  0  0  0
   -4.3889    4.0089    0.0000 C   0  0  0  0  0  0  0  0  0  0  0  0
   -3.0899    4.7589    0.0000 H   0  0  0  0  0  0  0  0  0  0  0  0
   -4.9020    5.4185    0.0000 H   0  0  0  0  0  0  0  0  0  0  0  0
   -5.8661    3.7485    0.0000 H   0  0  0  0  0  0  0  0  0  0  0  0
  1  2  1  0  0  0  0 
  1  3  1  0  0  0  0 
  1  4  1  0  0  0  0 
  5  1  1  6  0  0  0 
  5  6  1  1  0  0  0 
  5  7  1  0  0  0  0 
  7  8  1  1  0  0  0 
  7  9  1  0  0  0  0 
  9 10  2  0  0  0  0 
 10 11  1  0  0  0  0 
 10 12  1  0  0  0  0 
 12 13  1  0  0  0  0 
 12 14  2  0  0  0  0 
 14 15  1  0  0  0  0 
 15 16  2  0  0  0  0 
  9 16  1  0  0  0  0 
 16 17  1  0  0  0  0 
 15 18  1  0  0  0  0 
 18 19  1  0  0  0  0 
 19 20  1  0  0  0  0 
 19 21  1  0  0  0  0 
 19 22  1  0  0  0  0 
 14 23  1  0  0  0  0 
 23 24  1  0  0  0  0 
  7 25  1  6  0  0  0 
 25 26  1  0  0  0  0 
  5 27  1  0  0  0  0 
 27 28  1  0  0  0  0 
 27 29  1  0  0  0  0 
 29 30  1  0  0  0  0 
 29 31  1  0  0  0  0 
 29 32  1  0  0  0  0 
M  END
> <Rank>
8

> <Priority_score>
0.124

> <Reaction_type>
aromatic_oxidation

> <Parent_ID>
41

> <Parent_InChI>
InChI=1S/C10H15NO/c1-8(11-2)10(12)9-6-4-3-5-7-9/h3-8,10-12H,1-2H3

> <Parent_SMILES>
CN[C@@H](C)[C@H](O)c1ccccc1

$$$$
Molecule 41_metabolite 14
  CDK     0516241031

 24 24  0  0  0  0  0  0  0  0999 V2000
   -2.3176    0.5843    0.0000 C   0  0  0  0  0  0  0  0  0  0  0  0
   -3.6167   -0.1657    0.0000 H   0  0  0  0  0  0  0  0  0  0  0  0
   -1.8046   -0.8253    0.0000 H   0  0  0  0  0  0  0  0  0  0  0  0
   -0.8404    0.8448    0.0000 H   0  0  0  0  0  0  0  0  0  0  0  0
   -2.3176    2.0843    0.0000 C   0  0  0  0  0  0  0  0  0  0  0  0
   -1.0186    2.8343    0.0000 C   0  0  0  0  0  0  0  0  0  0  0  0
   -1.0186    4.3343    0.0000 H   0  0  0  0  0  0  0  0  0  0  0  0
    0.2804    2.0843    0.0000 C   0  0  0  0  0  0  0  0  0  0  0  0
    1.5799    2.8351    0.0000 C   0  0  0  0  0  0  0  0  0  0  0  0
    1.5797    4.3351    0.0000 H   0  0  0  0  0  0  0  0  0  0  0  0
    2.8790    2.0851    0.0000 C   0  0  0  0  0  0  0  0  0  0  0  0
    4.1781    2.8349    0.0000 H   0  0  0  0  0  0  0  0  0  0  0  0
    2.8785    0.5843    0.0000 C   0  0  0  0  0  0  0  0  0  0  0  0
    4.1775   -0.1657    0.0000 H   0  0  0  0  0  0  0  0  0  0  0  0
    1.5790   -0.1665    0.0000 C   0  0  0  0  0  0  0  0  0  0  0  0
    1.5792   -1.6665    0.0000 H   0  0  0  0  0  0  0  0  0  0  0  0
    0.2799    0.5835    0.0000 C   0  0  0  0  0  0  0  0  0  0  0  0
   -1.0192   -0.1663    0.0000 H   0  0  0  0  0  0  0  0  0  0  0  0
   -3.6167    2.8343    0.0000 N   0  0  0  0  0  0  0  0  0  0  0  0
   -3.6167    4.3343    0.0000 H   0  0  0  0  0  0  0  0  0  0  0  0
   -4.9157    2.0843    0.0000 C   0  0  0  0  0  0  0  0  0  0  0  0
   -6.2148    2.8343    0.0000 H   0  0  0  0  0  0  0  0  0  0  0  0
   -5.8799    0.9352    0.0000 H   0  0  0  0  0  0  0  0  0  0  0  0
   -3.9515    0.9352    0.0000 H   0  0  0  0  0  0  0  0  0  0  0  0
  1  2  1  0  0  0  0 
  1  3  1  0  0  0  0 
  1  4  1  0  0  0  0 
  1  5  1  0  0  0  0 
  5  6  2  0  0  0  0 
  6  7  1  4  0  0  0 
  6  8  1  0  0  0  0 
  8  9  2  0  0  0  0 
  9 10  1  0  0  0  0 
  9 11  1  0  0  0  0 
 11 12  1  0  0  0  0 
 11 13  2  0  0  0  0 
 13 14  1  0  0  0  0 
 13 15  1  0  0  0  0 
 15 16  1  0  0  0  0 
 15 17  2  0  0  0  0 
  8 17  1  0  0  0  0 
 17 18  1  0  0  0  0 
  5 19  1  0  0  0  0 
 19 20  1  0  0  0  0 
 19 21  1  0  0  0  0 
 21 22  1  0  0  0  0 
 21 23  1  0  0  0  0 
 21 24  1  0  0  0  0 
M  END
> <Rank>
8

> <Priority_score>
0.124

> <Reaction_type>
dehydration_next_to_SP2_a

> <Parent_ID>
41

> <Parent_InChI>
InChI=1S/C10H15NO/c1-8(11-2)10(12)9-6-4-3-5-7-9/h3-8,10-12H,1-2H3

> <Parent_SMILES>
CN[C@@H](C)[C@H](O)c1ccccc1

$$$$
Molecule 41_metabolite 15
  CDK     0516241031

 21 21  0  0  0  0  0  0  0  0999 V2000
   -3.6559    2.0617    0.0000 C   0  0  0  0  0  0  0  0  0  0  0  0
   -3.6559    3.5617    0.0000 H   0  0  0  0  0  0  0  0  0  0  0  0
   -4.1689    0.6521    0.0000 H   0  0  0  0  0  0  0  0  0  0  0  0
   -5.1331    2.3221    0.0000 H   0  0  0  0  0  0  0  0  0  0  0  0
   -2.3568    1.3117    0.0000 C   0  0  0  0  0  0  0  0  0  0  0  0
   -2.3568   -0.1883    0.0000 O   0  0  0  0  0  0  0  0  0  0  0  0
   -1.0578    2.0617    0.0000 C   0  0  1  0  0  0  0  0  0  0  0  0
   -0.0936    3.2107    0.0000 H   0  0  0  0  0  0  0  0  0  0  0  0
    0.2413    1.3117    0.0000 C   0  0  0  0  0  0  0  0  0  0  0  0
    1.5408    2.0625    0.0000 C   0  0  0  0  0  0  0  0  0  0  0  0
    1.5405    3.5625    0.0000 H   0  0  0  0  0  0  0  0  0  0  0  0
    2.8398    1.3125    0.0000 C   0  0  0  0  0  0  0  0  0  0  0  0
    4.1390    2.0623    0.0000 H   0  0  0  0  0  0  0  0  0  0  0  0
    2.8393   -0.1883    0.0000 C   0  0  0  0  0  0  0  0  0  0  0  0
    4.1384   -0.9383    0.0000 H   0  0  0  0  0  0  0  0  0  0  0  0
    1.5398   -0.9392    0.0000 C   0  0  0  0  0  0  0  0  0  0  0  0
    1.5401   -2.4392    0.0000 H   0  0  0  0  0  0  0  0  0  0  0  0
    0.2408   -0.1892    0.0000 C   0  0  0  0  0  0  0  0  0  0  0  0
   -1.0584   -0.9390    0.0000 H   0  0  0  0  0  0  0  0  0  0  0  0
   -2.0220    3.2107    0.0000 O   0  0  0  0  0  0  0  0  0  0  0  0
   -1.5089    4.6203    0.0000 H   0  0  0  0  0  0  0  0  0  0  0  0
  1  2  1  0  0  0  0 
  1  3  1  0  0  0  0 
  1  4  1  0  0  0  0 
  1  5  1  0  0  0  0 
  5  6  2  0  0  0  0 
  5  7  1  0  0  0  0 
  7  8  1  1  0  0  0 
  7  9  1  0  0  0  0 
  9 10  2  0  0  0  0 
 10 11  1  0  0  0  0 
 10 12  1  0  0  0  0 
 12 13  1  0  0  0  0 
 12 14  2  0  0  0  0 
 14 15  1  0  0  0  0 
 14 16  1  0  0  0  0 
 16 17  1  0  0  0  0 
 16 18  2  0  0  0  0 
  9 18  1  0  0  0  0 
 18 19  1  0  0  0  0 
  7 20  1  6  0  0  0 
 20 21  1  0  0  0  0 
M  END
> <Rank>
15

> <Priority_score>
0.056

> <Reaction_type>
N-dealkylation

> <Parent_ID>
41

> <Parent_InChI>
InChI=1S/C10H15NO/c1-8(11-2)10(12)9-6-4-3-5-7-9/h3-8,10-12H,1-2H3

> <Parent_SMILES>
CN[C@@H](C)[C@H](O)c1ccccc1

$$$$
Molecule 41_metabolite 16
  CDK     0516241031

 25 25  0  0  0  0  0  0  0  0999 V2000
    0.8413    3.0557    0.0000 C   0  0  0  0  0  0  0  0  0  0  0  0
    2.1403    3.8057    0.0000 H   0  0  0  0  0  0  0  0  0  0  0  0
    0.3282    4.4653    0.0000 H   0  0  0  0  0  0  0  0  0  0  0  0
   -0.6359    2.7952    0.0000 H   0  0  0  0  0  0  0  0  0  0  0  0
    0.8413    1.5557    0.0000 C   0  0  0  0  0  0  0  0  0  0  0  0
   -0.4578    0.8057    0.0000 C   0  0  0  0  0  0  0  0  0  0  0  0
   -1.7568    1.5557    0.0000 C   0  0  0  0  0  0  0  0  0  0  0  0
   -3.0563    0.8049    0.0000 C   0  0  0  0  0  0  0  0  0  0  0  0
   -3.0561   -0.6951    0.0000 H   0  0  0  0  0  0  0  0  0  0  0  0
   -4.3554    1.5549    0.0000 C   0  0  0  0  0  0  0  0  0  0  0  0
   -5.6545    0.8051    0.0000 H   0  0  0  0  0  0  0  0  0  0  0  0
   -4.3549    3.0557    0.0000 C   0  0  0  0  0  0  0  0  0  0  0  0
   -5.6539    3.8057    0.0000 H   0  0  0  0  0  0  0  0  0  0  0  0
   -3.0554    3.8065    0.0000 C   0  0  0  0  0  0  0  0  0  0  0  0
   -3.0556    5.3065    0.0000 H   0  0  0  0  0  0  0  0  0  0  0  0
   -1.7563    3.0565    0.0000 C   0  0  0  0  0  0  0  0  0  0  0  0
   -0.4572    3.8063    0.0000 H   0  0  0  0  0  0  0  0  0  0  0  0
   -0.4578   -0.6943    0.0000 O   0  0  0  0  0  0  0  0  0  0  0  0
    0.8413   -1.4443    0.0000 H   0  0  0  0  0  0  0  0  0  0  0  0
    2.1403    0.8057    0.0000 N   0  0  0  0  0  0  0  0  0  0  0  0
    2.1403   -0.6943    0.0000 H   0  0  0  0  0  0  0  0  0  0  0  0
    3.4394    1.5557    0.0000 C   0  0  0  0  0  0  0  0  0  0  0  0
    4.7384    0.8057    0.0000 H   0  0  0  0  0  0  0  0  0  0  0  0
    4.4035    2.7048    0.0000 H   0  0  0  0  0  0  0  0  0  0  0  0
    2.4752    2.7048    0.0000 H   0  0  0  0  0  0  0  0  0  0  0  0
  1  2  1  0  0  0  0 
  1  3  1  0  0  0  0 
  1  4  1  0  0  0  0 
  1  5  1  0  0  0  0 
  5  6  2  0  0  0  0 
  6  7  1  0  0  0  0 
  7  8  2  0  0  0  0 
  8  9  1  0  0  0  0 
  8 10  1  0  0  0  0 
 10 11  1  0  0  0  0 
 10 12  2  0  0  0  0 
 12 13  1  0  0  0  0 
 12 14  1  0  0  0  0 
 14 15  1  0  0  0  0 
 14 16  2  0  0  0  0 
  7 16  1  0  0  0  0 
 16 17  1  0  0  0  0 
  6 18  1  0  0  0  0 
 18 19  1  0  0  0  0 
  5 20  1  4  0  0  0 
 20 21  1  0  0  0  0 
 20 22  1  0  0  0  0 
 22 23  1  0  0  0  0 
 22 24  1  0  0  0  0 
 22 25  1  0  0  0  0 
M  END
> <Rank>
16

> <Priority_score>
0.024800000000000003

> <Reaction_type>
alkyl dehydrogenation

> <Parent_ID>
41

> <Parent_InChI>
InChI=1S/C10H15NO/c1-8(11-2)10(12)9-6-4-3-5-7-9/h3-8,10-12H,1-2H3

> <Parent_SMILES>
CN[C@@H](C)[C@H](O)c1ccccc1

$$$$
Molecule 41_metabolite 17
  CDK     0516241031

 28 28  0  0  0  0  0  0  0  0999 V2000
   -4.4436    4.6065    0.0000 C   0  0  0  0  0  0  0  0  0  0  0  0
   -5.1936    3.3075    0.0000 H   0  0  0  0  0  0  0  0  0  0  0  0
   -5.8531    5.1196    0.0000 H   0  0  0  0  0  0  0  0  0  0  0  0
   -4.1831    6.0837    0.0000 H   0  0  0  0  0  0  0  0  0  0  0  0
   -2.9436    4.6065    0.0000 N   0  0  0  0  0  0  0  0  0  0  0  0
   -2.1936    5.9056    0.0000 H   0  0  0  0  0  0  0  0  0  0  0  0
   -2.1936    3.3075    0.0000 C   0  0  1  0  0  0  0  0  0  0  0  0
   -3.6031    2.7945    0.0000 H   0  0  0  0  0  0  0  0  0  0  0  0
   -1.9331    1.8303    0.0000 C   0  0  0  0  0  0  0  0  0  0  0  0
   -1.1831    0.5312    0.0000 H   0  0  0  0  0  0  0  0  0  0  0  0
   -0.5236    2.3433    0.0000 H   0  0  0  0  0  0  0  0  0  0  0  0
   -3.0822    0.8661    0.0000 O   0  0  0  0  0  0  0  0  0  0  0  0
   -4.4917    1.3791    0.0000 H   0  0  0  0  0  0  0  0  0  0  0  0
   -0.6936    3.3075    0.0000 C   0  0  1  0  0  0  0  0  0  0  0  0
    0.7160    3.8205    0.0000 H   0  0  0  0  0  0  0  0  0  0  0  0
    0.2964    1.5928    0.0000 C   0  0  0  0  0  0  0  0  0  0  0  0
    1.7973    1.5932    0.0000 C   0  0  0  0  0  0  0  0  0  0  0  0
    2.5471    2.8924    0.0000 H   0  0  0  0  0  0  0  0  0  0  0  0
    2.5473    0.2942    0.0000 C   0  0  0  0  0  0  0  0  0  0  0  0
    4.0473    0.2940    0.0000 H   0  0  0  0  0  0  0  0  0  0  0  0
    1.7964   -1.0053    0.0000 C   0  0  0  0  0  0  0  0  0  0  0  0
    2.5464   -2.3044    0.0000 H   0  0  0  0  0  0  0  0  0  0  0  0
    0.2956   -1.0058    0.0000 C   0  0  0  0  0  0  0  0  0  0  0  0
   -0.4542   -2.3050    0.0000 H   0  0  0  0  0  0  0  0  0  0  0  0
   -0.4544    0.2932    0.0000 C   0  0  0  0  0  0  0  0  0  0  0  0
   -1.9544    0.2935    0.0000 H   0  0  0  0  0  0  0  0  0  0  0  0
   -0.9540    4.7847    0.0000 O   0  0  0  0  0  0  0  0  0  0  0  0
    0.1950    5.7489    0.0000 H   0  0  0  0  0  0  0  0  0  0  0  0
  1  2  1  0  0  0  0 
  1  3  1  0  0  0  0 
  1  4  1  0  0  0  0 
  1  5  1  0  0  0  0 
  5  6  1  0  0  0  0 
  7  5  1  6  0  0  0 
  7  8  1  1  0  0  0 
  7  9  1  0  0  0  0 
  9 10  1  0  0  0  0 
  9 11  1  0  0  0  0 
  9 12  1  0  0  0  0 
 12 13  1  0  0  0  0 
  7 14  1  0  0  0  0 
 14 15  1  1  0  0  0 
 14 16  1  0  0  0  0 
 16 17  2  0  0  0  0 
 17 18  1  0  0  0  0 
 17 19  1  0  0  0  0 
 19 20  1  0  0  0  0 
 19 21  2  0  0  0  0 
 21 22  1  0  0  0  0 
 21 23  1  0  0  0  0 
 23 24  1  0  0  0  0 
 23 25  2  0  0  0  0 
 16 25  1  0  0  0  0 
 25 26  1  0  0  0  0 
 14 27  1  6  0  0  0 
 27 28  1  0  0  0  0 
M  END
> <Rank>
17

> <Priority_score>
0.024

> <Reaction_type>
aliphatic hydroxylation

> <Parent_ID>
41

> <Parent_InChI>
InChI=1S/C10H15NO/c1-8(11-2)10(12)9-6-4-3-5-7-9/h3-8,10-12H,1-2H3

> <Parent_SMILES>
CN[C@@H](C)[C@H](O)c1ccccc1

$$$$
Molecule 41_metabolite 18
  CDK     0516241031

 26 26  0  0  0  0  0  0  0  0999 V2000
   -2.3176    0.5843    0.0000 C   0  0  0  0  0  0  0  0  0  0  0  0
   -3.6167   -0.1657    0.0000 H   0  0  0  0  0  0  0  0  0  0  0  0
   -1.8046   -0.8253    0.0000 H   0  0  0  0  0  0  0  0  0  0  0  0
   -0.8404    0.8448    0.0000 H   0  0  0  0  0  0  0  0  0  0  0  0
   -2.3176    2.0843    0.0000 C   0  0  0  0  0  0  0  0  0  0  0  0
   -3.6167    2.8343    0.0000 N   0  0  0  0  0  0  0  0  0  0  0  0
   -3.6167    4.3343    0.0000 H   0  0  0  0  0  0  0  0  0  0  0  0
   -4.9157    2.0843    0.0000 C   0  0  0  0  0  0  0  0  0  0  0  0
   -6.2148    2.8343    0.0000 H   0  0  0  0  0  0  0  0  0  0  0  0
   -5.8799    0.9352    0.0000 H   0  0  0  0  0  0  0  0  0  0  0  0
   -3.9515    0.9352    0.0000 H   0  0  0  0  0  0  0  0  0  0  0  0
   -1.0186    2.8343    0.0000 C   0  0  1  0  0  0  0  0  0  0  0  0
   -0.0544    3.9834    0.0000 H   0  0  0  0  0  0  0  0  0  0  0  0
    0.2804    2.0843    0.0000 C   0  0  0  0  0  0  0  0  0  0  0  0
    1.5799    2.8351    0.0000 C   0  0  0  0  0  0  0  0  0  0  0  0
    1.5797    4.3351    0.0000 H   0  0  0  0  0  0  0  0  0  0  0  0
    2.8790    2.0851    0.0000 C   0  0  0  0  0  0  0  0  0  0  0  0
    4.1781    2.8349    0.0000 H   0  0  0  0  0  0  0  0  0  0  0  0
    2.8785    0.5843    0.0000 C   0  0  0  0  0  0  0  0  0  0  0  0
    4.1775   -0.1657    0.0000 H   0  0  0  0  0  0  0  0  0  0  0  0
    1.5790   -0.1665    0.0000 C   0  0  0  0  0  0  0  0  0  0  0  0
    1.5792   -1.6665    0.0000 H   0  0  0  0  0  0  0  0  0  0  0  0
    0.2799    0.5835    0.0000 C   0  0  0  0  0  0  0  0  0  0  0  0
   -1.0192   -0.1663    0.0000 H   0  0  0  0  0  0  0  0  0  0  0  0
   -1.9828    3.9834    0.0000 O   0  0  0  0  0  0  0  0  0  0  0  0
   -1.4698    5.3929    0.0000 H   0  0  0  0  0  0  0  0  0  0  0  0
  1  2  1  0  0  0  0 
  1  3  1  0  0  0  0 
  1  4  1  0  0  0  0 
  1  5  1  0  0  0  0 
  5  6  2  0  0  0  0 
  6  7  1  4  0  0  0 
  6  8  1  0  0  0  0 
  8  9  1  0  0  0  0 
  8 10  1  0  0  0  0 
  8 11  1  0  0  0  0 
  5 12  1  0  0  0  0 
 12 13  1  1  0  0  0 
 12 14  1  0  0  0  0 
 14 15  2  0  0  0  0 
 15 16  1  0  0  0  0 
 15 17  1  0  0  0  0 
 17 18  1  0  0  0  0 
 17 19  2  0  0  0  0 
 19 20  1  0  0  0  0 
 19 21  1  0  0  0  0 
 21 22  1  0  0  0  0 
 21 23  2  0  0  0  0 
 14 23  1  0  0  0  0 
 23 24  1  0  0  0  0 
 12 25  1  6  0  0  0 
 25 26  1  0  0  0  0 
M  CHG  1   6   1
M  END
> <Rank>
18

> <Priority_score>
0.011200000000000002

> <Reaction_type>
dehydration of N-C bond

> <Parent_ID>
41

> <Parent_InChI>
InChI=1S/C10H15NO/c1-8(11-2)10(12)9-6-4-3-5-7-9/h3-8,10-12H,1-2H3

> <Parent_SMILES>
CN[C@@H](C)[C@H](O)c1ccccc1

$$$$
Molecule 41_metabolite 19
  CDK     0516241031

 25 25  0  0  0  0  0  0  0  0999 V2000
   -2.3176    0.5843    0.0000 C   0  0  0  0  0  0  0  0  0  0  0  0
   -3.6167   -0.1657    0.0000 H   0  0  0  0  0  0  0  0  0  0  0  0
   -1.8046   -0.8253    0.0000 H   0  0  0  0  0  0  0  0  0  0  0  0
   -0.8404    0.8448    0.0000 H   0  0  0  0  0  0  0  0  0  0  0  0
   -2.3176    2.0843    0.0000 C   0  0  0  0  0  0  0  0  0  0  0  0
   -3.6167    2.8343    0.0000 N   0  0  0  0  0  0  0  0  0  0  0  0
   -4.9157    2.0843    0.0000 C   0  0  0  0  0  0  0  0  0  0  0  0
   -6.2148    2.8343    0.0000 H   0  0  0  0  0  0  0  0  0  0  0  0
   -5.8799    0.9352    0.0000 H   0  0  0  0  0  0  0  0  0  0  0  0
   -3.9515    0.9352    0.0000 H   0  0  0  0  0  0  0  0  0  0  0  0
   -1.0186    2.8343    0.0000 C   0  0  1  0  0  0  0  0  0  0  0  0
   -0.0544    3.9834    0.0000 H   0  0  0  0  0  0  0  0  0  0  0  0
    0.2804    2.0843    0.0000 C   0  0  0  0  0  0  0  0  0  0  0  0
    1.5799    2.8351    0.0000 C   0  0  0  0  0  0  0  0  0  0  0  0
    1.5797    4.3351    0.0000 H   0  0  0  0  0  0  0  0  0  0  0  0
    2.8790    2.0851    0.0000 C   0  0  0  0  0  0  0  0  0  0  0  0
    4.1781    2.8349    0.0000 H   0  0  0  0  0  0  0  0  0  0  0  0
    2.8785    0.5843    0.0000 C   0  0  0  0  0  0  0  0  0  0  0  0
    4.1775   -0.1657    0.0000 H   0  0  0  0  0  0  0  0  0  0  0  0
    1.5790   -0.1665    0.0000 C   0  0  0  0  0  0  0  0  0  0  0  0
    1.5792   -1.6665    0.0000 H   0  0  0  0  0  0  0  0  0  0  0  0
    0.2799    0.5835    0.0000 C   0  0  0  0  0  0  0  0  0  0  0  0
   -1.0192   -0.1663    0.0000 H   0  0  0  0  0  0  0  0  0  0  0  0
   -1.9828    3.9834    0.0000 O   0  0  0  0  0  0  0  0  0  0  0  0
   -1.4698    5.3929    0.0000 H   0  0  0  0  0  0  0  0  0  0  0  0
  1  2  1  0  0  0  0 
  1  3  1  0  0  0  0 
  1  4  1  0  0  0  0 
  1  5  1  4  0  0  0 
  5  6  2  0  0  0  0 
  6  7  1  0  0  0  0 
  7  8  1  0  0  0  0 
  7  9  1  0  0  0  0 
  7 10  1  0  0  0  0 
  5 11  1  0  0  0  0 
 11 12  1  1  0  0  0 
 11 13  1  0  0  0  0 
 13 14  2  0  0  0  0 
 14 15  1  0  0  0  0 
 14 16  1  0  0  0  0 
 16 17  1  0  0  0  0 
 16 18  2  0  0  0  0 
 18 19  1  0  0  0  0 
 18 20  1  0  0  0  0 
 20 21  1  0  0  0  0 
 20 22  2  0  0  0  0 
 13 22  1  0  0  0  0 
 22 23  1  0  0  0  0 
 11 24  1  6  0  0  0 
 24 25  1  0  0  0  0 
M  END
> <Rank>
18

> <Priority_score>
0.011200000000000002

> <Reaction_type>
dehydration of N-C bond

> <Parent_ID>
41

> <Parent_InChI>
InChI=1S/C10H15NO/c1-8(11-2)10(12)9-6-4-3-5-7-9/h3-8,10-12H,1-2H3

> <Parent_SMILES>
CN[C@@H](C)[C@H](O)c1ccccc1

$$$$
Molecule 41_metabolite 20
  CDK     0516241031

 25 25  0  0  0  0  0  0  0  0999 V2000
   -2.7882    1.2996    0.0000 C   0  0  0  0  0  0  0  0  0  0  0  0
   -4.2882    1.2996    0.0000 H   0  0  0  0  0  0  0  0  0  0  0  0
   -2.0382    0.0005    0.0000 H   0  0  0  0  0  0  0  0  0  0  0  0
   -2.0382    2.5986    0.0000 C   0  0  0  0  0  0  0  0  0  0  0  0
    0.4218    2.5986    0.0000 C   0  0  1  0  0  0  0  0  0  0  0  0
    1.8313    3.1116    0.0000 H   0  0  0  0  0  0  0  0  0  0  0  0
    1.1718    1.2996    0.0000 C   0  0  0  0  0  0  0  0  0  0  0  0
    2.6726    1.3001    0.0000 C   0  0  0  0  0  0  0  0  0  0  0  0
    3.4224    2.5992    0.0000 H   0  0  0  0  0  0  0  0  0  0  0  0
    3.4226    0.0010    0.0000 C   0  0  0  0  0  0  0  0  0  0  0  0
    4.9226    0.0008    0.0000 H   0  0  0  0  0  0  0  0  0  0  0  0
    2.6718   -1.2985    0.0000 C   0  0  0  0  0  0  0  0  0  0  0  0
    3.4218   -2.5975    0.0000 H   0  0  0  0  0  0  0  0  0  0  0  0
    1.1710   -1.2990    0.0000 C   0  0  0  0  0  0  0  0  0  0  0  0
    0.4212   -2.5981    0.0000 H   0  0  0  0  0  0  0  0  0  0  0  0
    0.4210    0.0001    0.0000 C   0  0  0  0  0  0  0  0  0  0  0  0
   -1.0790    0.0003    0.0000 H   0  0  0  0  0  0  0  0  0  0  0  0
    0.1613    4.0758    0.0000 O   0  0  0  0  0  0  0  0  0  0  0  0
    1.3104    5.0400    0.0000 H   0  0  0  0  0  0  0  0  0  0  0  0
   -2.7882    3.8976    0.0000 N   0  0  0  0  0  0  0  0  0  0  0  0
   -2.0382    5.1967    0.0000 H   0  0  0  0  0  0  0  0  0  0  0  0
   -4.2882    3.8976    0.0000 C   0  0  0  0  0  0  0  0  0  0  0  0
   -5.0382    5.1967    0.0000 H   0  0  0  0  0  0  0  0  0  0  0  0
   -5.6977    3.3846    0.0000 H   0  0  0  0  0  0  0  0  0  0  0  0
   -4.0277    2.4204    0.0000 H   0  0  0  0  0  0  0  0  0  0  0  0
  1  2  1  0  0  0  0 
  1  3  1  0  0  0  0 
  1  4  2  0  0  0  0 
  4  5  1  0  0  0  0 
  5  6  1  1  0  0  0 
  5  7  1  0  0  0  0 
  7  8  2  0  0  0  0 
  8  9  1  0  0  0  0 
  8 10  1  0  0  0  0 
 10 11  1  0  0  0  0 
 10 12  2  0  0  0  0 
 12 13  1  0  0  0  0 
 12 14  1  0  0  0  0 
 14 15  1  0  0  0  0 
 14 16  2  0  0  0  0 
  7 16  1  0  0  0  0 
 16 17  1  0  0  0  0 
  5 18  1  6  0  0  0 
 18 19  1  0  0  0  0 
  4 20  1  0  0  0  0 
 20 21  1  0  0  0  0 
 20 22  1  0  0  0  0 
 22 23  1  0  0  0  0 
 22 24  1  0  0  0  0 
 22 25  1  0  0  0  0 
M  END
> <Rank>
20

> <Priority_score>
0.0104

> <Reaction_type>
alkyl dehydrogenation

> <Parent_ID>
41

> <Parent_InChI>
InChI=1S/C10H15NO/c1-8(11-2)10(12)9-6-4-3-5-7-9/h3-8,10-12H,1-2H3

> <Parent_SMILES>
CN[C@@H](C)[C@H](O)c1ccccc1

$$$$
Molecule 41_metabolite 21
  CDK     0516241031

 28 28  0  0  0  0  0  0  0  0999 V2000
    4.7782    1.0420    0.0000 C   0  0  0  0  0  0  0  0  0  0  0  0
    5.2915   -0.3675    0.0000 H   0  0  0  0  0  0  0  0  0  0  0  0
    3.8139    2.1909    0.0000 H   0  0  0  0  0  0  0  0  0  0  0  0
    2.2324   -0.4284    0.0000 H   0  0  0  0  0  0  0  0  0  0  0  0
    5.7422    2.1912    0.0000 C   0  0  1  0  0  0  0  0  0  0  0  0
    6.7066    1.0423    0.0000 H   0  0  0  0  0  0  0  0  0  0  0  0
    3.1959    3.6608    0.0000 C   0  0  1  0  0  0  0  0  0  0  0  0
    4.1599    4.8100    0.0000 H   0  0  0  0  0  0  0  0  0  0  0  0
    0.6500    2.1904    0.0000 C   0  0  0  0  0  0  0  0  0  0  0  0
    0.6500    0.6904    0.0000 C   0  0  0  0  0  0  0  0  0  0  0  0
   -0.6500   -0.0596    0.0000 C   0  0  0  0  0  0  0  0  0  0  0  0
   -0.6500   -1.5596    0.0000 H   0  0  0  0  0  0  0  0  0  0  0  0
   -1.9500    0.6904    0.0000 C   0  0  0  0  0  0  0  0  0  0  0  0
   -3.2489   -0.0598    0.0000 H   0  0  0  0  0  0  0  0  0  0  0  0
   -1.9500    2.1904    0.0000 C   0  0  0  0  0  0  0  0  0  0  0  0
   -3.2489    2.9406    0.0000 H   0  0  0  0  0  0  0  0  0  0  0  0
   -0.6500    2.9404    0.0000 C   0  0  0  0  0  0  0  0  0  0  0  0
   -0.6500    4.4404    0.0000 H   0  0  0  0  0  0  0  0  0  0  0  0
    2.5394   -1.5621    0.0000 O   0  0  0  0  0  0  0  0  0  0  0  0
    2.0262   -2.9715    0.0000 H   0  0  0  0  0  0  0  0  0  0  0  0
    2.2315    4.8097    0.0000 O   0  0  0  0  0  0  0  0  0  0  0  0
    2.7443    6.2193    0.0000 H   0  0  0  0  0  0  0  0  0  0  0  0
    7.0411    2.9414    0.0000 N   0  0  0  0  0  0  0  0  0  0  0  0
    7.0409    4.4414    0.0000 H   0  0  0  0  0  0  0  0  0  0  0  0
    8.3403    2.1916    0.0000 C   0  0  0  0  0  0  0  0  0  0  0  0
    8.3405    0.6916    0.0000 H   0  0  0  0  0  0  0  0  0  0  0  0
    8.8531    3.6013    0.0000 H   0  0  0  0  0  0  0  0  0  0  0  0
    9.8176    1.9314    0.0000 H   0  0  0  0  0  0  0  0  0  0  0  0
  1  2  1  0  0  0  0 
  1  3  1  0  0  0  0 
  1  4  1  0  0  0  0 
  1  5  1  0  0  0  0 
  5  6  1  6  0  0  0 
  5  7  1  0  0  0  0 
  7  8  1  6  0  0  0 
  7  9  1  0  0  0  0 
  9 10  2  0  0  0  0 
 10 11  1  0  0  0  0 
 11 12  1  0  0  0  0 
 11 13  2  0  0  0  0 
 13 14  1  0  0  0  0 
 13 15  1  0  0  0  0 
 15 16  1  0  0  0  0 
 15 17  2  0  0  0  0 
  9 17  1  0  0  0  0 
 17 18  1  0  0  0  0 
 10 19  1  0  0  0  0 
 19 20  1  0  0  0  0 
  7 21  1  1  0  0  0 
 21 22  1  0  0  0  0 
  5 23  1  1  0  0  0 
 23 24  1  0  0  0  0 
 23 25  1  0  0  0  0 
 25 26  1  0  0  0  0 
 25 27  1  0  0  0  0 
 25 28  1  0  0  0  0 
M  END
> <Rank>
21

> <Priority_score>
0.0

> <Reaction_type>
aromatic hydroxylation

> <Parent_ID>
41

> <Parent_InChI>
InChI=1S/C10H15NO/c1-8(11-2)10(12)9-6-4-3-5-7-9/h3-8,10-12H,1-2H3

> <Parent_SMILES>
CN[C@@H](C)[C@H](O)c1ccccc1

$$$$
Molecule 42
  CDK     0516241031

 35 38  0  0  0  0  0  0  0  0999 V2000
   -6.4962    6.0029    0.0000 C   0  0  0  0  0  0  0  0  0  0  0  0
   -5.1975    5.2523    0.0000 C   0  0  0  0  0  0  0  0  0  0  0  0
   -3.7204    4.9911    0.0000 C   0  0  0  0  0  0  0  0  0  0  0  0
   -4.6838    6.6616    0.0000 C   0  0  0  0  0  0  0  0  0  0  0  0
   -5.1982    3.7523    0.0000 C   0  0  0  0  0  0  0  0  0  0  0  0
   -3.8989    3.0010    0.0000 C   0  0  0  0  0  0  0  0  0  0  0  0
   -3.8989    1.5002    0.0000 C   0  0  0  0  0  0  0  0  0  0  0  0
   -5.1982    0.7506    0.0000 C   0  0  0  0  0  0  0  0  0  0  0  0
   -6.4975    1.5019    0.0000 C   0  0  0  0  0  0  0  0  0  0  0  0
   -6.4975    3.0027    0.0000 C   0  0  0  0  0  0  0  0  0  0  0  0
   -7.7968    0.7523    0.0000 N   0  0  0  0  0  0  0  0  0  0  0  0
   -9.0960    1.5035    0.0000 C   0  0  0  0  0  0  0  0  0  0  0  0
  -10.3953    0.7540    0.0000 C   0  0  0  0  0  0  0  0  0  0  0  0
  -10.3953   -0.7469    0.0000 C   0  0  0  0  0  0  0  0  0  0  0  0
  -11.6946   -1.4965    0.0000 O   0  0  0  0  0  0  0  0  0  0  0  0
   -9.0960   -1.4981    0.0000 N   0  0  0  0  0  0  0  0  0  0  0  0
   -7.7968   -0.7485    0.0000 C   0  0  0  0  0  0  0  0  0  0  0  0
   -6.4978   -1.4988    0.0000 O   0  0  0  0  0  0  0  0  0  0  0  0
   -2.6000    0.7500    0.0000 C   0  0  0  0  0  0  0  0  0  0  0  0
   -1.3000    1.5000    0.0000 C   0  0  0  0  0  0  0  0  0  0  0  0
    0.0000    0.7500    0.0000 C   0  0  0  0  0  0  0  0  0  0  0  0
    1.3000    1.5000    0.0000 C   0  0  0  0  0  0  0  0  0  0  0  0
    2.6000    0.7500    0.0000 C   0  0  0  0  0  0  0  0  0  0  0  0
    2.6000   -0.7500    0.0000 C   0  0  0  0  0  0  0  0  0  0  0  0
    1.3000   -1.5000    0.0000 C   0  0  0  0  0  0  0  0  0  0  0  0
    0.0000   -0.7500    0.0000 C   0  0  0  0  0  0  0  0  0  0  0  0
   -1.3000   -1.5000    0.0000 C   0  0  0  0  0  0  0  0  0  0  0  0
   -2.6000   -0.7500    0.0000 C   0  0  0  0  0  0  0  0  0  0  0  0
    3.8989   -1.5002    0.0000 N   0  0  0  0  0  0  0  0  0  0  0  0
    5.1981   -0.7504    0.0000 S   0  0  0  0  0  0  0  0  0  0  0  0
    6.1624    0.3985    0.0000 O   0  0  0  0  0  0  0  0  0  0  0  0
    4.2341    0.3988    0.0000 O   0  0  0  0  0  0  0  0  0  0  0  0
    6.4970   -1.5006    0.0000 C   0  0  0  0  0  0  0  0  0  0  0  0
   -2.5996    3.7506    0.0000 O   0  0  0  0  0  0  0  0  0  0  0  0
   -2.5992    5.2506    0.0000 C   0  0  0  0  0  0  0  0  0  0  0  0
  1  2  1  0  0  0  0 
  2  3  1  0  0  0  0 
  2  4  1  0  0  0  0 
  2  5  1  0  0  0  0 
  5  6  2  0  0  0  0 
  6  7  1  0  0  0  0 
  7  8  2  0  0  0  0 
  8  9  1  0  0  0  0 
  9 10  2  0  0  0  0 
  5 10  1  0  0  0  0 
  9 11  1  0  0  0  0 
 11 12  1  0  0  0  0 
 12 13  2  0  0  0  0 
 13 14  1  0  0  0  0 
 14 15  2  0  0  0  0 
 14 16  1  0  0  0  0 
 16 17  1  0  0  0  0 
 11 17  1  0  0  0  0 
 17 18  2  0  0  0  0 
  7 19  1  0  0  0  0 
 19 20  2  0  0  0  0 
 20 21  1  0  0  0  0 
 21 22  2  0  0  0  0 
 22 23  1  0  0  0  0 
 23 24  2  0  0  0  0 
 24 25  1  0  0  0  0 
 25 26  2  0  0  0  0 
 21 26  1  0  0  0  0 
 26 27  1  0  0  0  0 
 27 28  2  0  0  0  0 
 19 28  1  0  0  0  0 
 24 29  1  0  0  0  0 
 29 30  1  0  0  0  0 
 30 31  2  0  0  0  0 
 30 32  2  0  0  0  0 
 30 33  1  0  0  0  0 
  6 34  1  0  0  0  0 
 34 35  1  0  0  0  0 
M  END
> <SMILES>
COc1c(-c2ccc3cc(NS(C)(=O)=O)ccc3c2)cc(-n2ccc(=O)[nH]c2=O)cc1C(C)(C)C

$$$$
Molecule 42_metabolite 1
  CDK     0516241031

 62 65  0  0  0  0  0  0  0  0999 V2000
   -2.8885    5.9507    0.0000 C   0  0  0  0  0  0  0  0  0  0  0  0
   -1.9238    7.0993    0.0000 H   0  0  0  0  0  0  0  0  0  0  0  0
   -3.4023    4.5414    0.0000 H   0  0  0  0  0  0  0  0  0  0  0  0
   -1.1743    4.9599    0.0000 H   0  0  0  0  0  0  0  0  0  0  0  0
   -4.3656    6.2119    0.0000 C   0  0  0  0  0  0  0  0  0  0  0  0
   -3.8519    7.6212    0.0000 C   0  0  0  0  0  0  0  0  0  0  0  0
   -2.3746    7.8809    0.0000 H   0  0  0  0  0  0  0  0  0  0  0  0
   -5.3290    7.8824    0.0000 H   0  0  0  0  0  0  0  0  0  0  0  0
   -3.8512    9.1212    0.0000 H   0  0  0  0  0  0  0  0  0  0  0  0
   -4.3668    3.7519    0.0000 C   0  0  0  0  0  0  0  0  0  0  0  0
   -5.6668    3.0019    0.0000 C   0  0  0  0  0  0  0  0  0  0  0  0
   -5.6683    1.5011    0.0000 C   0  0  0  0  0  0  0  0  0  0  0  0
   -4.3697    0.7502    0.0000 C   0  0  0  0  0  0  0  0  0  0  0  0
   -4.3704   -0.7498    0.0000 H   0  0  0  0  0  0  0  0  0  0  0  0
   -3.0697    1.5002    0.0000 C   0  0  0  0  0  0  0  0  0  0  0  0
   -3.0683    3.0011    0.0000 C   0  0  0  0  0  0  0  0  0  0  0  0
   -1.7686    3.7500    0.0000 H   0  0  0  0  0  0  0  0  0  0  0  0
   -1.7711    0.7494    0.0000 N   0  0  0  0  0  0  0  0  0  0  0  0
   -0.4711    1.4994    0.0000 C   0  0  0  0  0  0  0  0  0  0  0  0
   -0.4704    2.9994    0.0000 H   0  0  0  0  0  0  0  0  0  0  0  0
    0.8274    0.7486    0.0000 C   0  0  0  0  0  0  0  0  0  0  0  0
    2.1271    1.4975    0.0000 H   0  0  0  0  0  0  0  0  0  0  0  0
    0.8260   -0.7523    0.0000 C   0  0  0  0  0  0  0  0  0  0  0  0
    2.1245   -1.5031    0.0000 O   0  0  0  0  0  0  0  0  0  0  0  0
   -0.4740   -1.5023    0.0000 N   0  0  0  0  0  0  0  0  0  0  0  0
   -0.4747   -3.0023    0.0000 H   0  0  0  0  0  0  0  0  0  0  0  0
   -1.7726   -0.7514    0.0000 C   0  0  0  0  0  0  0  0  0  0  0  0
   -3.0722   -1.5004    0.0000 O   0  0  0  0  0  0  0  0  0  0  0  0
   -6.9679    0.7521    0.0000 C   0  0  0  0  0  0  0  0  0  0  0  0
   -8.2672    1.5033    0.0000 C   0  0  0  0  0  0  0  0  0  0  0  0
   -8.2657    3.0033    0.0000 H   0  0  0  0  0  0  0  0  0  0  0  0
   -9.5679    0.7546    0.0000 C   0  0  0  0  0  0  0  0  0  0  0  0
  -10.8672    1.5058    0.0000 C   0  0  0  0  0  0  0  0  0  0  0  0
  -10.8657    3.0058    0.0000 H   0  0  0  0  0  0  0  0  0  0  0  0
  -12.1679    0.7571    0.0000 C   0  0  0  0  0  0  0  0  0  0  0  0
  -13.4661    1.5086    0.0000 H   0  0  0  0  0  0  0  0  0  0  0  0
  -12.1693   -0.7429    0.0000 C   0  0  0  0  0  0  0  0  0  0  0  0
  -10.8701   -1.4942    0.0000 C   0  0  0  0  0  0  0  0  0  0  0  0
  -10.8715   -2.9941    0.0000 H   0  0  0  0  0  0  0  0  0  0  0  0
   -9.5693   -0.7454    0.0000 C   0  0  0  0  0  0  0  0  0  0  0  0
   -8.2701   -1.4966    0.0000 C   0  0  0  0  0  0  0  0  0  0  0  0
   -8.2715   -2.9966    0.0000 H   0  0  0  0  0  0  0  0  0  0  0  0
   -6.9693   -0.7479    0.0000 C   0  0  0  0  0  0  0  0  0  0  0  0
   -5.6711   -1.4994    0.0000 H   0  0  0  0  0  0  0  0  0  0  0  0
  -13.4690   -1.4919    0.0000 N   0  0  0  0  0  0  0  0  0  0  0  0
  -13.4702   -2.9919    0.0000 H   0  0  0  0  0  0  0  0  0  0  0  0
  -14.7674   -0.7408    0.0000 S   0  0  0  0  0  0  0  0  0  0  0  0
  -15.7307    0.4090    0.0000 O   0  0  0  0  0  0  0  0  0  0  0  0
  -13.8023    0.4075    0.0000 O   0  0  0  0  0  0  0  0  0  0  0  0
  -16.0670   -1.4898    0.0000 C   0  0  0  0  0  0  0  0  0  0  0  0
  -17.3655   -0.7387    0.0000 H   0  0  0  0  0  0  0  0  0  0  0  0
  -15.1038   -2.6396    0.0000 H   0  0  0  0  0  0  0  0  0  0  0  0
  -17.0321   -2.6381    0.0000 H   0  0  0  0  0  0  0  0  0  0  0  0
   -6.9654    3.7527    0.0000 O   0  0  0  0  0  0  0  0  0  0  0  0
   -6.9644    5.2527    0.0000 C   0  0  0  0  0  0  0  0  0  0  0  0
   -5.6649    6.0019    0.0000 H   0  0  0  0  0  0  0  0  0  0  0  0
   -7.4765    6.6626    0.0000 H   0  0  0  0  0  0  0  0  0  0  0  0
   -8.4418    4.9932    0.0000 H   0  0  0  0  0  0  0  0  0  0  0  0
   -6.4955    7.4429    0.0000 C   0  0  0  0  0  0  0  0  0  0  0  0
   -8.4755    7.4439    0.0000 O   0  0  0  0  0  0  0  0  0  0  0  0
   -6.4947    8.9429    0.0000 O   0  0  0  0  0  0  0  0  0  0  0  0
   -7.7934    9.6935    0.0000 H   0  0  0  0  0  0  0  0  0  0  0  0
  1  2  1  0  0  0  0 
  1  3  1  0  0  0  0 
  1  4  1  0  0  0  0 
  1  5  1  0  0  0  0 
  5  6  1  0  0  0  0 
  6  7  1  0  0  0  0 
  6  8  1  0  0  0  0 
  6  9  1  0  0  0  0 
  5 10  1  0  0  0  0 
 10 11  2  0  0  0  0 
 11 12  1  0  0  0  0 
 12 13  2  0  0  0  0 
 13 14  1  0  0  0  0 
 13 15  1  0  0  0  0 
 15 16  2  0  0  0  0 
 10 16  1  0  0  0  0 
 16 17  1  0  0  0  0 
 15 18  1  0  0  0  0 
 18 19  1  0  0  0  0 
 19 20  1  0  0  0  0 
 19 21  2  0  0  0  0 
 21 22  1  0  0  0  0 
 21 23  1  0  0  0  0 
 23 24  2  0  0  0  0 
 23 25  1  0  0  0  0 
 25 26  1  0  0  0  0 
 25 27  1  0  0  0  0 
 18 27  1  0  0  0  0 
 27 28  2  0  0  0  0 
 12 29  1  0  0  0  0 
 29 30  2  0  0  0  0 
 30 31  1  0  0  0  0 
 30 32  1  0  0  0  0 
 32 33  2  0  0  0  0 
 33 34  1  0  0  0  0 
 33 35  1  0  0  0  0 
 35 36  1  0  0  0  0 
 35 37  2  0  0  0  0 
 37 38  1  0  0  0  0 
 38 39  1  0  0  0  0 
 38 40  2  0  0  0  0 
 32 40  1  0  0  0  0 
 40 41  1  0  0  0  0 
 41 42  1  0  0  0  0 
 41 43  2  0  0  0  0 
 29 43  1  0  0  0  0 
 43 44  1  0  0  0  0 
 37 45  1  0  0  0  0 
 45 46  1  0  0  0  0 
 45 47  1  0  0  0  0 
 47 48  2  0  0  0  0 
 47 49  2  0  0  0  0 
 47 50  1  0  0  0  0 
 50 51  1  0  0  0  0 
 50 52  1  0  0  0  0 
 50 53  1  0  0  0  0 
 11 54  1  0  0  0  0 
 54 55  1  0  0  0  0 
 55 56  1  0  0  0  0 
 55 57  1  0  0  0  0 
 55 58  1  0  0  0  0 
  5 59  1  0  0  0  0 
 59 60  2  0  0  0  0 
 59 61  1  0  0  0  0 
 61 62  1  0  0  0  0 
M  END
> <Rank>
1

> <Priority_score>
0.328

> <Reaction_type>
carboxylation_(primary_carbon_next_to_quart_carbon)

> <Parent_ID>
42

> <Parent_InChI>
InChI=1S/C26H27N3O5S/c1-26(2,3)22-15-20(29-11-10-23(30)27-25(29)31)14-21(24(22)34-4)18-7-6-17-13-19(28-35(5,32)33)9-8-16(17)12-18/h6-15,28H,1-5H3,(H,27,30,31)

> <Parent_SMILES>
COc1c(-c2ccc3cc(NS(C)(=O)=O)ccc3c2)cc(-n2ccc(=O)[nH]c2=O)cc1C(C)(C)C

$$$$
Molecule 42_metabolite 2
  CDK     0516241031

 63 66  0  0  0  0  0  0  0  0999 V2000
   -2.9661    4.3576    0.0000 C   0  0  0  0  0  0  0  0  0  0  0  0
   -2.4538    2.9478    0.0000 H   0  0  0  0  0  0  0  0  0  0  0  0
   -2.9654    5.8576    0.0000 H   0  0  0  0  0  0  0  0  0  0  0  0
   -1.4888    4.6174    0.0000 H   0  0  0  0  0  0  0  0  0  0  0  0
   -4.4432    4.6188    0.0000 C   0  0  0  0  0  0  0  0  0  0  0  0
   -3.4363    7.3810    0.0000 C   0  0  0  0  0  0  0  0  0  0  0  0
   -4.4000    8.5305    0.0000 H   0  0  0  0  0  0  0  0  0  0  0  0
   -2.1377    6.6304    0.0000 H   0  0  0  0  0  0  0  0  0  0  0  0
   -2.4716    8.5296    0.0000 H   0  0  0  0  0  0  0  0  0  0  0  0
   -5.4068    5.7683    0.0000 C   0  0  0  0  0  0  0  0  0  0  0  0
   -7.9522    7.2395    0.0000 H   0  0  0  0  0  0  0  0  0  0  0  0
   -6.3716    4.6197    0.0000 H   0  0  0  0  0  0  0  0  0  0  0  0
   -4.8931    7.1776    0.0000 O   0  0  0  0  0  0  0  0  0  0  0  0
   -5.8568    8.3271    0.0000 H   0  0  0  0  0  0  0  0  0  0  0  0
   -4.4446    1.6788    0.0000 C   0  0  0  0  0  0  0  0  0  0  0  0
   -5.7446    0.9288    0.0000 C   0  0  0  0  0  0  0  0  0  0  0  0
   -5.7461   -0.5721    0.0000 C   0  0  0  0  0  0  0  0  0  0  0  0
   -4.4475   -1.3229    0.0000 C   0  0  0  0  0  0  0  0  0  0  0  0
   -4.4482   -2.8229    0.0000 H   0  0  0  0  0  0  0  0  0  0  0  0
   -3.1475   -0.5729    0.0000 C   0  0  0  0  0  0  0  0  0  0  0  0
   -3.1461    0.9279    0.0000 C   0  0  0  0  0  0  0  0  0  0  0  0
   -1.8464    1.6769    0.0000 H   0  0  0  0  0  0  0  0  0  0  0  0
   -1.8490   -1.3237    0.0000 N   0  0  0  0  0  0  0  0  0  0  0  0
   -0.5490   -0.5737    0.0000 C   0  0  0  0  0  0  0  0  0  0  0  0
   -0.5482    0.9263    0.0000 H   0  0  0  0  0  0  0  0  0  0  0  0
    0.7496   -1.3246    0.0000 C   0  0  0  0  0  0  0  0  0  0  0  0
    2.0492   -0.5756    0.0000 H   0  0  0  0  0  0  0  0  0  0  0  0
    0.7482   -2.8254    0.0000 C   0  0  0  0  0  0  0  0  0  0  0  0
    2.0467   -3.5762    0.0000 O   0  0  0  0  0  0  0  0  0  0  0  0
   -0.5518   -3.5754    0.0000 N   0  0  0  0  0  0  0  0  0  0  0  0
   -0.5526   -5.0754    0.0000 H   0  0  0  0  0  0  0  0  0  0  0  0
   -1.8504   -2.8246    0.0000 C   0  0  0  0  0  0  0  0  0  0  0  0
   -3.1500   -3.5735    0.0000 O   0  0  0  0  0  0  0  0  0  0  0  0
   -7.0457   -1.3210    0.0000 C   0  0  0  0  0  0  0  0  0  0  0  0
   -8.3450   -0.5698    0.0000 C   0  0  0  0  0  0  0  0  0  0  0  0
   -8.3435    0.9302    0.0000 H   0  0  0  0  0  0  0  0  0  0  0  0
   -9.6457   -1.3185    0.0000 C   0  0  0  0  0  0  0  0  0  0  0  0
  -10.9450   -0.5673    0.0000 C   0  0  0  0  0  0  0  0  0  0  0  0
  -10.9435    0.9327    0.0000 H   0  0  0  0  0  0  0  0  0  0  0  0
  -12.2457   -1.3160    0.0000 C   0  0  0  0  0  0  0  0  0  0  0  0
  -13.5439   -0.5646    0.0000 H   0  0  0  0  0  0  0  0  0  0  0  0
  -12.2471   -2.8160    0.0000 C   0  0  0  0  0  0  0  0  0  0  0  0
  -10.9479   -3.5673    0.0000 C   0  0  0  0  0  0  0  0  0  0  0  0
  -10.9493   -5.0673    0.0000 H   0  0  0  0  0  0  0  0  0  0  0  0
   -9.6471   -2.8185    0.0000 C   0  0  0  0  0  0  0  0  0  0  0  0
   -8.3479   -3.5698    0.0000 C   0  0  0  0  0  0  0  0  0  0  0  0
   -8.3493   -5.0698    0.0000 H   0  0  0  0  0  0  0  0  0  0  0  0
   -7.0471   -2.8210    0.0000 C   0  0  0  0  0  0  0  0  0  0  0  0
   -5.7490   -3.5725    0.0000 H   0  0  0  0  0  0  0  0  0  0  0  0
  -13.5468   -3.5650    0.0000 N   0  0  0  0  0  0  0  0  0  0  0  0
  -13.5480   -5.0650    0.0000 H   0  0  0  0  0  0  0  0  0  0  0  0
  -14.8452   -2.8139    0.0000 S   0  0  0  0  0  0  0  0  0  0  0  0
  -15.8085   -1.6641    0.0000 O   0  0  0  0  0  0  0  0  0  0  0  0
  -13.8801   -1.6656    0.0000 O   0  0  0  0  0  0  0  0  0  0  0  0
  -16.1449   -3.5629    0.0000 C   0  0  0  0  0  0  0  0  0  0  0  0
  -17.4433   -2.8119    0.0000 H   0  0  0  0  0  0  0  0  0  0  0  0
  -15.1816   -4.7127    0.0000 H   0  0  0  0  0  0  0  0  0  0  0  0
  -17.1100   -4.7112    0.0000 H   0  0  0  0  0  0  0  0  0  0  0  0
   -7.0432    1.6796    0.0000 O   0  0  0  0  0  0  0  0  0  0  0  0
   -7.0422    3.1796    0.0000 C   0  0  0  0  0  0  0  0  0  0  0  0
   -5.7427    3.9288    0.0000 H   0  0  0  0  0  0  0  0  0  0  0  0
   -7.5543    4.5895    0.0000 H   0  0  0  0  0  0  0  0  0  0  0  0
   -8.5196    2.9201    0.0000 H   0  0  0  0  0  0  0  0  0  0  0  0
  1  2  1  0  0  0  0 
  1  3  1  0  0  0  0 
  1  4  1  0  0  0  0 
  1  5  1  0  0  0  0 
  5  6  1  0  0  0  0 
  6  7  1  0  0  0  0 
  6  8  1  0  0  0  0 
  6  9  1  0  0  0  0 
  5 10  1  0  0  0  0 
 10 11  1  0  0  0  0 
 10 12  1  0  0  0  0 
 10 13  1  0  0  0  0 
 13 14  1  0  0  0  0 
  5 15  1  0  0  0  0 
 15 16  2  0  0  0  0 
 16 17  1  0  0  0  0 
 17 18  2  0  0  0  0 
 18 19  1  0  0  0  0 
 18 20  1  0  0  0  0 
 20 21  2  0  0  0  0 
 15 21  1  0  0  0  0 
 21 22  1  0  0  0  0 
 20 23  1  0  0  0  0 
 23 24  1  0  0  0  0 
 24 25  1  0  0  0  0 
 24 26  2  0  0  0  0 
 26 27  1  0  0  0  0 
 26 28  1  0  0  0  0 
 28 29  2  0  0  0  0 
 28 30  1  0  0  0  0 
 30 31  1  0  0  0  0 
 30 32  1  0  0  0  0 
 23 32  1  0  0  0  0 
 32 33  2  0  0  0  0 
 17 34  1  0  0  0  0 
 34 35  2  0  0  0  0 
 35 36  1  0  0  0  0 
 35 37  1  0  0  0  0 
 37 38  2  0  0  0  0 
 38 39  1  0  0  0  0 
 38 40  1  0  0  0  0 
 40 41  1  0  0  0  0 
 40 42  2  0  0  0  0 
 42 43  1  0  0  0  0 
 43 44  1  0  0  0  0 
 43 45  2  0  0  0  0 
 37 45  1  0  0  0  0 
 45 46  1  0  0  0  0 
 46 47  1  0  0  0  0 
 46 48  2  0  0  0  0 
 34 48  1  0  0  0  0 
 48 49  1  0  0  0  0 
 42 50  1  0  0  0  0 
 50 51  1  0  0  0  0 
 50 52  1  0  0  0  0 
 52 53  2  0  0  0  0 
 52 54  2  0  0  0  0 
 52 55  1  0  0  0  0 
 55 56  1  0  0  0  0 
 55 57  1  0  0  0  0 
 55 58  1  0  0  0  0 
 16 59  1  0  0  0  0 
 59 60  1  0  0  0  0 
 60 61  1  0  0  0  0 
 60 62  1  0  0  0  0 
 60 63  1  0  0  0  0 
M  END
> <Rank>
1

> <Priority_score>
0.328

> <Reaction_type>
aliphatic_hydroxylation_(primary_carbon_next_to_quart_carbon)

> <Parent_ID>
42

> <Parent_InChI>
InChI=1S/C26H27N3O5S/c1-26(2,3)22-15-20(29-11-10-23(30)27-25(29)31)14-21(24(22)34-4)18-7-6-17-13-19(28-35(5,32)33)9-8-16(17)12-18/h6-15,28H,1-5H3,(H,27,30,31)

> <Parent_SMILES>
COc1c(-c2ccc3cc(NS(C)(=O)=O)ccc3c2)cc(-n2ccc(=O)[nH]c2=O)cc1C(C)(C)C

$$$$
Molecule 42_metabolite 3
  CDK     0516241031

 63 66  0  0  0  0  0  0  0  0999 V2000
   -7.8206    5.1307    0.0000 C   0  0  0  0  0  0  0  0  0  0  0  0
   -7.8199    6.6307    0.0000 H   0  0  0  0  0  0  0  0  0  0  0  0
   -9.2977    5.3918    0.0000 H   0  0  0  0  0  0  0  0  0  0  0  0
   -8.3343    3.7214    0.0000 H   0  0  0  0  0  0  0  0  0  0  0  0
   -6.5219    4.3800    0.0000 C   0  0  0  0  0  0  0  0  0  0  0  0
   -5.0449    4.1189    0.0000 C   0  0  0  0  0  0  0  0  0  0  0  0
   -4.5325    2.7091    0.0000 H   0  0  0  0  0  0  0  0  0  0  0  0
   -5.0441    5.6189    0.0000 H   0  0  0  0  0  0  0  0  0  0  0  0
   -3.5675    4.3786    0.0000 H   0  0  0  0  0  0  0  0  0  0  0  0
   -5.5151    7.1422    0.0000 C   0  0  0  0  0  0  0  0  0  0  0  0
   -6.4787    8.2918    0.0000 H   0  0  0  0  0  0  0  0  0  0  0  0
   -4.2164    6.3916    0.0000 H   0  0  0  0  0  0  0  0  0  0  0  0
   -4.5503    8.2909    0.0000 H   0  0  0  0  0  0  0  0  0  0  0  0
   -6.5231    1.9200    0.0000 C   0  0  0  0  0  0  0  0  0  0  0  0
   -7.8231    1.1700    0.0000 C   0  0  0  0  0  0  0  0  0  0  0  0
   -7.8246   -0.3308    0.0000 C   0  0  0  0  0  0  0  0  0  0  0  0
   -6.5260   -1.0816    0.0000 C   0  0  0  0  0  0  0  0  0  0  0  0
   -6.5267   -2.5816    0.0000 H   0  0  0  0  0  0  0  0  0  0  0  0
   -5.2260   -0.3316    0.0000 C   0  0  0  0  0  0  0  0  0  0  0  0
   -5.2246    1.1692    0.0000 C   0  0  0  0  0  0  0  0  0  0  0  0
   -3.0932    2.3975    0.0000 H   0  0  0  0  0  0  0  0  0  0  0  0
   -3.9275   -1.0825    0.0000 N   0  0  0  0  0  0  0  0  0  0  0  0
   -2.6275   -0.3325    0.0000 C   0  0  0  0  0  0  0  0  0  0  0  0
   -2.6267    1.1675    0.0000 H   0  0  0  0  0  0  0  0  0  0  0  0
   -1.3289   -1.0833    0.0000 C   0  0  0  0  0  0  0  0  0  0  0  0
   -1.3303   -2.5841    0.0000 C   0  0  0  0  0  0  0  0  0  0  0  0
   -0.0318   -3.3350    0.0000 O   0  0  0  0  0  0  0  0  0  0  0  0
   -2.6303   -3.3341    0.0000 N   0  0  0  0  0  0  0  0  0  0  0  0
   -2.6311   -4.8341    0.0000 H   0  0  0  0  0  0  0  0  0  0  0  0
   -3.9289   -2.5833    0.0000 C   0  0  0  0  0  0  0  0  0  0  0  0
   -5.2285   -3.3323    0.0000 O   0  0  0  0  0  0  0  0  0  0  0  0
   -0.0293   -0.3343    0.0000 O   0  0  0  0  0  0  0  0  0  0  0  0
    1.2692   -1.0854    0.0000 H   0  0  0  0  0  0  0  0  0  0  0  0
   -9.1242   -1.0798    0.0000 C   0  0  0  0  0  0  0  0  0  0  0  0
  -10.4235   -0.3285    0.0000 C   0  0  0  0  0  0  0  0  0  0  0  0
  -10.4220    1.1715    0.0000 H   0  0  0  0  0  0  0  0  0  0  0  0
  -11.7242   -1.0773    0.0000 C   0  0  0  0  0  0  0  0  0  0  0  0
  -13.0235   -0.3260    0.0000 C   0  0  0  0  0  0  0  0  0  0  0  0
  -13.0220    1.1740    0.0000 H   0  0  0  0  0  0  0  0  0  0  0  0
  -14.3242   -1.0748    0.0000 C   0  0  0  0  0  0  0  0  0  0  0  0
  -15.6224   -0.3233    0.0000 H   0  0  0  0  0  0  0  0  0  0  0  0
  -14.3256   -2.5748    0.0000 C   0  0  0  0  0  0  0  0  0  0  0  0
  -13.0264   -3.3260    0.0000 C   0  0  0  0  0  0  0  0  0  0  0  0
  -13.0278   -4.8260    0.0000 H   0  0  0  0  0  0  0  0  0  0  0  0
  -11.7256   -2.5773    0.0000 C   0  0  0  0  0  0  0  0  0  0  0  0
  -10.4264   -3.3285    0.0000 C   0  0  0  0  0  0  0  0  0  0  0  0
  -10.4278   -4.8285    0.0000 H   0  0  0  0  0  0  0  0  0  0  0  0
   -9.1256   -2.5798    0.0000 C   0  0  0  0  0  0  0  0  0  0  0  0
   -7.8275   -3.3312    0.0000 H   0  0  0  0  0  0  0  0  0  0  0  0
  -15.6253   -3.3237    0.0000 N   0  0  0  0  0  0  0  0  0  0  0  0
  -15.6265   -4.8237    0.0000 H   0  0  0  0  0  0  0  0  0  0  0  0
  -16.9237   -2.5727    0.0000 S   0  0  0  0  0  0  0  0  0  0  0  0
  -17.8870   -1.4228    0.0000 O   0  0  0  0  0  0  0  0  0  0  0  0
  -15.9586   -1.4244    0.0000 O   0  0  0  0  0  0  0  0  0  0  0  0
  -18.2234   -3.3216    0.0000 C   0  0  0  0  0  0  0  0  0  0  0  0
  -19.5218   -2.5706    0.0000 H   0  0  0  0  0  0  0  0  0  0  0  0
  -17.2601   -4.4715    0.0000 H   0  0  0  0  0  0  0  0  0  0  0  0
  -19.1885   -4.4699    0.0000 H   0  0  0  0  0  0  0  0  0  0  0  0
   -9.1217    1.9209    0.0000 O   0  0  0  0  0  0  0  0  0  0  0  0
   -9.1207    3.4209    0.0000 C   0  0  0  0  0  0  0  0  0  0  0  0
  -10.4193    4.1717    0.0000 H   0  0  0  0  0  0  0  0  0  0  0  0
   -8.6068    4.8301    0.0000 H   0  0  0  0  0  0  0  0  0  0  0  0
   -7.6437    3.1594    0.0000 H   0  0  0  0  0  0  0  0  0  0  0  0
  1  2  1  0  0  0  0 
  1  3  1  0  0  0  0 
  1  4  1  0  0  0  0 
  1  5  1  0  0  0  0 
  5  6  1  0  0  0  0 
  6  7  1  0  0  0  0 
  6  8  1  0  0  0  0 
  6  9  1  0  0  0  0 
  5 10  1  0  0  0  0 
 10 11  1  0  0  0  0 
 10 12  1  0  0  0  0 
 10 13  1  0  0  0  0 
  5 14  1  0  0  0  0 
 14 15  2  0  0  0  0 
 15 16  1  0  0  0  0 
 16 17  2  0  0  0  0 
 17 18  1  0  0  0  0 
 17 19  1  0  0  0  0 
 19 20  2  0  0  0  0 
 14 20  1  0  0  0  0 
 20 21  1  0  0  0  0 
 19 22  1  0  0  0  0 
 22 23  1  0  0  0  0 
 23 24  1  0  0  0  0 
 23 25  2  0  0  0  0 
 25 26  1  0  0  0  0 
 26 27  2  0  0  0  0 
 26 28  1  0  0  0  0 
 28 29  1  0  0  0  0 
 28 30  1  0  0  0  0 
 22 30  1  0  0  0  0 
 30 31  2  0  0  0  0 
 25 32  1  0  0  0  0 
 32 33  1  0  0  0  0 
 16 34  1  0  0  0  0 
 34 35  2  0  0  0  0 
 35 36  1  0  0  0  0 
 35 37  1  0  0  0  0 
 37 38  2  0  0  0  0 
 38 39  1  0  0  0  0 
 38 40  1  0  0  0  0 
 40 41  1  0  0  0  0 
 40 42  2  0  0  0  0 
 42 43  1  0  0  0  0 
 43 44  1  0  0  0  0 
 43 45  2  0  0  0  0 
 37 45  1  0  0  0  0 
 45 46  1  0  0  0  0 
 46 47  1  0  0  0  0 
 46 48  2  0  0  0  0 
 34 48  1  0  0  0  0 
 48 49  1  0  0  0  0 
 42 50  1  0  0  0  0 
 50 51  1  0  0  0  0 
 50 52  1  0  0  0  0 
 52 53  2  0  0  0  0 
 52 54  2  0  0  0  0 
 52 55  1  0  0  0  0 
 55 56  1  0  0  0  0 
 55 57  1  0  0  0  0 
 55 58  1  0  0  0  0 
 15 59  1  0  0  0  0 
 59 60  1  0  0  0  0 
 60 61  1  0  0  0  0 
 60 62  1  0  0  0  0 
 60 63  1  0  0  0  0 
M  END
> <Rank>
3

> <Priority_score>
0.316

> <Reaction_type>
aromatic_hydroxylation_(para_to_oxygen)

> <Parent_ID>
42

> <Parent_InChI>
InChI=1S/C26H27N3O5S/c1-26(2,3)22-15-20(29-11-10-23(30)27-25(29)31)14-21(24(22)34-4)18-7-6-17-13-19(28-35(5,32)33)9-8-16(17)12-18/h6-15,28H,1-5H3,(H,27,30,31)

> <Parent_SMILES>
COc1c(-c2ccc3cc(NS(C)(=O)=O)ccc3c2)cc(-n2ccc(=O)[nH]c2=O)cc1C(C)(C)C

$$$$
Molecule 42_metabolite 4
  CDK     0516241031

 64 67  0  0  0  0  0  0  0  0999 V2000
   -7.8206    5.1307    0.0000 C   0  0  0  0  0  0  0  0  0  0  0  0
   -7.8199    6.6307    0.0000 H   0  0  0  0  0  0  0  0  0  0  0  0
   -9.2977    5.3918    0.0000 H   0  0  0  0  0  0  0  0  0  0  0  0
   -8.3343    3.7214    0.0000 H   0  0  0  0  0  0  0  0  0  0  0  0
   -6.5219    4.3800    0.0000 C   0  0  0  0  0  0  0  0  0  0  0  0
   -5.0449    4.1189    0.0000 C   0  0  0  0  0  0  0  0  0  0  0  0
   -4.5325    2.7091    0.0000 H   0  0  0  0  0  0  0  0  0  0  0  0
   -5.0441    5.6189    0.0000 H   0  0  0  0  0  0  0  0  0  0  0  0
   -3.5675    4.3786    0.0000 H   0  0  0  0  0  0  0  0  0  0  0  0
   -5.5151    7.1422    0.0000 C   0  0  0  0  0  0  0  0  0  0  0  0
   -6.4787    8.2918    0.0000 H   0  0  0  0  0  0  0  0  0  0  0  0
   -4.2164    6.3916    0.0000 H   0  0  0  0  0  0  0  0  0  0  0  0
   -4.5503    8.2909    0.0000 H   0  0  0  0  0  0  0  0  0  0  0  0
   -6.5231    1.9200    0.0000 C   0  0  0  0  0  0  0  0  0  0  0  0
   -7.8231    1.1700    0.0000 C   0  0  0  0  0  0  0  0  0  0  0  0
   -7.8246   -0.3308    0.0000 C   0  0  0  0  0  0  0  0  0  0  0  0
   -6.5260   -1.0816    0.0000 C   0  0  0  0  0  0  0  0  0  0  0  0
   -6.5267   -2.5816    0.0000 H   0  0  0  0  0  0  0  0  0  0  0  0
   -5.2260   -0.3316    0.0000 C   0  0  0  0  0  0  0  0  0  0  0  0
   -5.2246    1.1692    0.0000 C   0  0  0  0  0  0  0  0  0  0  0  0
   -3.0932    2.3975    0.0000 H   0  0  0  0  0  0  0  0  0  0  0  0
   -3.9275   -1.0825    0.0000 N   0  0  0  0  0  0  0  0  0  0  0  0
   -2.6275   -0.3325    0.0000 C   0  0  0  0  0  0  0  0  0  0  0  0
   -3.5911    0.8170    0.0000 H   0  0  0  0  0  0  0  0  0  0  0  0
   -1.6627    0.8161    0.0000 H   0  0  0  0  0  0  0  0  0  0  0  0
   -1.3289   -1.0833    0.0000 C   0  0  0  0  0  0  0  0  0  0  0  0
   -0.8148    0.3259    0.0000 H   0  0  0  0  0  0  0  0  0  0  0  0
    0.1481   -1.3450    0.0000 H   0  0  0  0  0  0  0  0  0  0  0  0
   -1.3303   -2.5841    0.0000 C   0  0  0  0  0  0  0  0  0  0  0  0
   -0.0318   -3.3350    0.0000 O   0  0  0  0  0  0  0  0  0  0  0  0
   -2.6303   -3.3341    0.0000 N   0  0  0  0  0  0  0  0  0  0  0  0
   -2.6311   -4.8341    0.0000 H   0  0  0  0  0  0  0  0  0  0  0  0
   -3.9289   -2.5833    0.0000 C   0  0  0  0  0  0  0  0  0  0  0  0
   -5.2285   -3.3323    0.0000 O   0  0  0  0  0  0  0  0  0  0  0  0
   -9.1242   -1.0798    0.0000 C   0  0  0  0  0  0  0  0  0  0  0  0
  -10.4235   -0.3285    0.0000 C   0  0  0  0  0  0  0  0  0  0  0  0
  -10.4220    1.1715    0.0000 H   0  0  0  0  0  0  0  0  0  0  0  0
  -11.7242   -1.0773    0.0000 C   0  0  0  0  0  0  0  0  0  0  0  0
  -13.0235   -0.3260    0.0000 C   0  0  0  0  0  0  0  0  0  0  0  0
  -13.0220    1.1740    0.0000 H   0  0  0  0  0  0  0  0  0  0  0  0
  -14.3242   -1.0748    0.0000 C   0  0  0  0  0  0  0  0  0  0  0  0
  -15.6224   -0.3233    0.0000 H   0  0  0  0  0  0  0  0  0  0  0  0
  -14.3256   -2.5748    0.0000 C   0  0  0  0  0  0  0  0  0  0  0  0
  -13.0264   -3.3260    0.0000 C   0  0  0  0  0  0  0  0  0  0  0  0
  -13.0278   -4.8260    0.0000 H   0  0  0  0  0  0  0  0  0  0  0  0
  -11.7256   -2.5773    0.0000 C   0  0  0  0  0  0  0  0  0  0  0  0
  -10.4264   -3.3285    0.0000 C   0  0  0  0  0  0  0  0  0  0  0  0
  -10.4278   -4.8285    0.0000 H   0  0  0  0  0  0  0  0  0  0  0  0
   -9.1256   -2.5798    0.0000 C   0  0  0  0  0  0  0  0  0  0  0  0
   -7.8275   -3.3312    0.0000 H   0  0  0  0  0  0  0  0  0  0  0  0
  -15.6253   -3.3237    0.0000 N   0  0  0  0  0  0  0  0  0  0  0  0
  -15.6265   -4.8237    0.0000 H   0  0  0  0  0  0  0  0  0  0  0  0
  -16.9237   -2.5727    0.0000 S   0  0  0  0  0  0  0  0  0  0  0  0
  -17.8870   -1.4228    0.0000 O   0  0  0  0  0  0  0  0  0  0  0  0
  -15.9586   -1.4244    0.0000 O   0  0  0  0  0  0  0  0  0  0  0  0
  -18.2234   -3.3216    0.0000 C   0  0  0  0  0  0  0  0  0  0  0  0
  -19.5218   -2.5706    0.0000 H   0  0  0  0  0  0  0  0  0  0  0  0
  -17.2601   -4.4715    0.0000 H   0  0  0  0  0  0  0  0  0  0  0  0
  -19.1885   -4.4699    0.0000 H   0  0  0  0  0  0  0  0  0  0  0  0
   -9.1217    1.9209    0.0000 O   0  0  0  0  0  0  0  0  0  0  0  0
   -9.1207    3.4209    0.0000 C   0  0  0  0  0  0  0  0  0  0  0  0
  -10.4193    4.1717    0.0000 H   0  0  0  0  0  0  0  0  0  0  0  0
   -8.6068    4.8301    0.0000 H   0  0  0  0  0  0  0  0  0  0  0  0
   -7.6437    3.1594    0.0000 H   0  0  0  0  0  0  0  0  0  0  0  0
  1  2  1  0  0  0  0 
  1  3  1  0  0  0  0 
  1  4  1  0  0  0  0 
  1  5  1  0  0  0  0 
  5  6  1  0  0  0  0 
  6  7  1  0  0  0  0 
  6  8  1  0  0  0  0 
  6  9  1  0  0  0  0 
  5 10  1  0  0  0  0 
 10 11  1  0  0  0  0 
 10 12  1  0  0  0  0 
 10 13  1  0  0  0  0 
  5 14  1  0  0  0  0 
 14 15  2  0  0  0  0 
 15 16  1  0  0  0  0 
 16 17  2  0  0  0  0 
 17 18  1  0  0  0  0 
 17 19  1  0  0  0  0 
 19 20  2  0  0  0  0 
 14 20  1  0  0  0  0 
 20 21  1  0  0  0  0 
 19 22  1  0  0  0  0 
 22 23  1  0  0  0  0 
 23 24  1  0  0  0  0 
 23 25  1  0  0  0  0 
 23 26  1  0  0  0  0 
 26 27  1  0  0  0  0 
 26 28  1  0  0  0  0 
 26 29  1  0  0  0  0 
 29 30  2  0  0  0  0 
 29 31  1  0  0  0  0 
 31 32  1  0  0  0  0 
 31 33  1  0  0  0  0 
 22 33  1  0  0  0  0 
 33 34  2  0  0  0  0 
 16 35  1  0  0  0  0 
 35 36  2  0  0  0  0 
 36 37  1  0  0  0  0 
 36 38  1  0  0  0  0 
 38 39  2  0  0  0  0 
 39 40  1  0  0  0  0 
 39 41  1  0  0  0  0 
 41 42  1  0  0  0  0 
 41 43  2  0  0  0  0 
 43 44  1  0  0  0  0 
 44 45  1  0  0  0  0 
 44 46  2  0  0  0  0 
 38 46  1  0  0  0  0 
 46 47  1  0  0  0  0 
 47 48  1  0  0  0  0 
 47 49  2  0  0  0  0 
 35 49  1  0  0  0  0 
 49 50  1  0  0  0  0 
 43 51  1  0  0  0  0 
 51 52  1  0  0  0  0 
 51 53  1  0  0  0  0 
 53 54  2  0  0  0  0 
 53 55  2  0  0  0  0 
 53 56  1  0  0  0  0 
 56 57  1  0  0  0  0 
 56 58  1  0  0  0  0 
 56 59  1  0  0  0  0 
 15 60  1  0  0  0  0 
 60 61  1  0  0  0  0 
 61 62  1  0  0  0  0 
 61 63  1  0  0  0  0 
 61 64  1  0  0  0  0 
M  END
> <Rank>
3

> <Priority_score>
0.316

> <Reaction_type>
double_bond_reduction_(aromatic)

> <Parent_ID>
42

> <Parent_InChI>
InChI=1S/C26H27N3O5S/c1-26(2,3)22-15-20(29-11-10-23(30)27-25(29)31)14-21(24(22)34-4)18-7-6-17-13-19(28-35(5,32)33)9-8-16(17)12-18/h6-15,28H,1-5H3,(H,27,30,31)

> <Parent_SMILES>
COc1c(-c2ccc3cc(NS(C)(=O)=O)ccc3c2)cc(-n2ccc(=O)[nH]c2=O)cc1C(C)(C)C

$$$$
Molecule 42_metabolite 5
  CDK     0516241031

 82 86  0  0  0  0  0  0  0  0999 V2000
    5.9474    5.9370    0.0000 C   0  0  0  0  0  0  0  0  0  0  0  0
    5.9481    7.4370    0.0000 H   0  0  0  0  0  0  0  0  0  0  0  0
    7.4247    6.1968    0.0000 H   0  0  0  0  0  0  0  0  0  0  0  0
    6.4597    4.5273    0.0000 H   0  0  0  0  0  0  0  0  0  0  0  0
    4.6480    5.1877    0.0000 C   0  0  0  0  0  0  0  0  0  0  0  0
    1.7524    4.6785    0.0000 C   0  0  0  0  0  0  0  0  0  0  0  0
    1.2387    3.2692    0.0000 H   0  0  0  0  0  0  0  0  0  0  0  0
    1.7531    6.1785    0.0000 H   0  0  0  0  0  0  0  0  0  0  0  0
    0.2753    4.9397    0.0000 H   0  0  0  0  0  0  0  0  0  0  0  0
    3.8077    7.4997    0.0000 C   0  0  0  0  0  0  0  0  0  0  0  0
    4.7724    8.6483    0.0000 H   0  0  0  0  0  0  0  0  0  0  0  0
    2.5083    6.7503    0.0000 H   0  0  0  0  0  0  0  0  0  0  0  0
    2.8441    8.6493    0.0000 H   0  0  0  0  0  0  0  0  0  0  0  0
    4.6468    2.7277    0.0000 C   0  0  0  0  0  0  0  0  0  0  0  0
    5.9461    1.9764    0.0000 C   0  0  0  0  0  0  0  0  0  0  0  0
    5.9461    0.4756    0.0000 C   0  0  0  0  0  0  0  0  0  0  0  0
    4.6468   -0.2740    0.0000 C   0  0  0  0  0  0  0  0  0  0  0  0
    4.6461   -1.7740    0.0000 H   0  0  0  0  0  0  0  0  0  0  0  0
    3.3475    0.4773    0.0000 C   0  0  0  0  0  0  0  0  0  0  0  0
    3.3475    1.9781    0.0000 C   0  0  0  0  0  0  0  0  0  0  0  0
    2.0486    2.7283    0.0000 H   0  0  0  0  0  0  0  0  0  0  0  0
    2.0482   -0.2723    0.0000 N   0  0  0  0  0  0  0  0  0  0  0  0
    0.7489    0.4789    0.0000 C   0  0  0  0  0  0  0  0  0  0  0  0
    0.7497    1.9789    0.0000 H   0  0  0  0  0  0  0  0  0  0  0  0
   -0.5503   -0.2707    0.0000 C   0  0  0  0  0  0  0  0  0  0  0  0
   -1.8493    0.4795    0.0000 H   0  0  0  0  0  0  0  0  0  0  0  0
   -0.5503   -1.7715    0.0000 C   0  0  0  0  0  0  0  0  0  0  0  0
   -1.8496   -2.5211    0.0000 O   0  0  0  0  0  0  0  0  0  0  0  0
    0.7489   -2.5227    0.0000 N   0  0  0  0  0  0  0  0  0  0  0  0
    0.7482   -4.0227    0.0000 C   0  0  0  0  0  0  0  0  0  0  0  0
    2.2256   -3.7631    0.0000 H   0  0  0  0  0  0  0  0  0  0  0  0
    1.2603   -5.4326    0.0000 C   0  0  0  0  0  0  0  0  0  0  0  0
    2.5599   -4.6837    0.0000 H   0  0  0  0  0  0  0  0  0  0  0  0
    0.2944   -6.5814    0.0000 C   0  0  0  0  0  0  0  0  0  0  0  0
    1.5928   -7.3324    0.0000 H   0  0  0  0  0  0  0  0  0  0  0  0
   -1.1835   -6.3202    0.0000 C   0  0  0  0  0  0  0  0  0  0  0  0
   -1.1843   -7.8202    0.0000 H   0  0  0  0  0  0  0  0  0  0  0  0
   -1.6956   -4.9103    0.0000 C   0  0  0  0  0  0  0  0  0  0  0  0
   -2.9952   -5.6593    0.0000 H   0  0  0  0  0  0  0  0  0  0  0  0
   -2.9669   -3.3924    0.0000 C   0  0  0  0  0  0  0  0  0  0  0  0
   -2.4526   -1.9833    0.0000 O   0  0  0  0  0  0  0  0  0  0  0  0
   -4.4444   -3.6515    0.0000 O   0  0  0  0  0  0  0  0  0  0  0  0
   -4.9587   -5.0606    0.0000 H   0  0  0  0  0  0  0  0  0  0  0  0
   -0.7297   -3.7616    0.0000 O   0  0  0  0  0  0  0  0  0  0  0  0
   -2.6609   -6.5798    0.0000 O   0  0  0  0  0  0  0  0  0  0  0  0
   -3.1748   -7.9890    0.0000 H   0  0  0  0  0  0  0  0  0  0  0  0
   -0.2195   -7.9906    0.0000 O   0  0  0  0  0  0  0  0  0  0  0  0
    0.7440   -9.1402    0.0000 H   0  0  0  0  0  0  0  0  0  0  0  0
    2.2234   -6.5826    0.0000 O   0  0  0  0  0  0  0  0  0  0  0  0
    3.7009   -6.3234    0.0000 H   0  0  0  0  0  0  0  0  0  0  0  0
    2.0482   -1.7732    0.0000 C   0  0  0  0  0  0  0  0  0  0  0  0
    3.3471   -2.5234    0.0000 O   0  0  0  0  0  0  0  0  0  0  0  0
    7.2450   -0.2746    0.0000 C   0  0  0  0  0  0  0  0  0  0  0  0
    8.5450    0.4754    0.0000 C   0  0  0  0  0  0  0  0  0  0  0  0
    8.5450    1.9754    0.0000 H   0  0  0  0  0  0  0  0  0  0  0  0
    9.8450   -0.2746    0.0000 C   0  0  0  0  0  0  0  0  0  0  0  0
   11.1450    0.4754    0.0000 C   0  0  0  0  0  0  0  0  0  0  0  0
   11.1450    1.9754    0.0000 H   0  0  0  0  0  0  0  0  0  0  0  0
   12.4450   -0.2746    0.0000 C   0  0  0  0  0  0  0  0  0  0  0  0
   13.7439    0.4756    0.0000 H   0  0  0  0  0  0  0  0  0  0  0  0
   12.4450   -1.7746    0.0000 C   0  0  0  0  0  0  0  0  0  0  0  0
   11.1450   -2.5246    0.0000 C   0  0  0  0  0  0  0  0  0  0  0  0
   11.1450   -4.0246    0.0000 H   0  0  0  0  0  0  0  0  0  0  0  0
    9.8450   -1.7746    0.0000 C   0  0  0  0  0  0  0  0  0  0  0  0
    8.5450   -2.5246    0.0000 C   0  0  0  0  0  0  0  0  0  0  0  0
    8.5450   -4.0246    0.0000 H   0  0  0  0  0  0  0  0  0  0  0  0
    7.2450   -1.7746    0.0000 C   0  0  0  0  0  0  0  0  0  0  0  0
    5.9461   -2.5248    0.0000 H   0  0  0  0  0  0  0  0  0  0  0  0
   13.7439   -2.5248    0.0000 N   0  0  0  0  0  0  0  0  0  0  0  0
   13.7437   -4.0248    0.0000 H   0  0  0  0  0  0  0  0  0  0  0  0
   15.0430   -1.7750    0.0000 S   0  0  0  0  0  0  0  0  0  0  0  0
   16.0074   -0.6261    0.0000 O   0  0  0  0  0  0  0  0  0  0  0  0
   14.0791   -0.6258    0.0000 O   0  0  0  0  0  0  0  0  0  0  0  0
   16.3420   -2.5252    0.0000 C   0  0  0  0  0  0  0  0  0  0  0  0
   17.6411   -1.7754    0.0000 H   0  0  0  0  0  0  0  0  0  0  0  0
   15.3776   -3.6742    0.0000 H   0  0  0  0  0  0  0  0  0  0  0  0
   17.3060   -3.6745    0.0000 H   0  0  0  0  0  0  0  0  0  0  0  0
    7.2453    2.7260    0.0000 O   0  0  0  0  0  0  0  0  0  0  0  0
    7.2458    4.2260    0.0000 C   0  0  0  0  0  0  0  0  0  0  0  0
    8.5451    4.9756    0.0000 H   0  0  0  0  0  0  0  0  0  0  0  0
    6.7332    5.6357    0.0000 H   0  0  0  0  0  0  0  0  0  0  0  0
    5.7685    3.9660    0.0000 H   0  0  0  0  0  0  0  0  0  0  0  0
  1  2  1  0  0  0  0 
  1  3  1  0  0  0  0 
  1  4  1  0  0  0  0 
  1  5  1  0  0  0  0 
  5  6  1  0  0  0  0 
  6  7  1  0  0  0  0 
  6  8  1  0  0  0  0 
  6  9  1  0  0  0  0 
  5 10  1  0  0  0  0 
 10 11  1  0  0  0  0 
 10 12  1  0  0  0  0 
 10 13  1  0  0  0  0 
  5 14  1  0  0  0  0 
 14 15  2  0  0  0  0 
 15 16  1  0  0  0  0 
 16 17  2  0  0  0  0 
 17 18  1  0  0  0  0 
 17 19  1  0  0  0  0 
 19 20  2  0  0  0  0 
 14 20  1  0  0  0  0 
 20 21  1  0  0  0  0 
 19 22  1  0  0  0  0 
 22 23  1  0  0  0  0 
 23 24  1  0  0  0  0 
 23 25  2  0  0  0  0 
 25 26  1  0  0  0  0 
 25 27  1  0  0  0  0 
 27 28  2  0  0  0  0 
 27 29  1  0  0  0  0 
 29 30  1  0  0  0  0 
 30 31  1  0  0  0  0 
 30 32  1  0  0  0  0 
 32 33  1  0  0  0  0 
 32 34  1  0  0  0  0 
 34 35  1  0  0  0  0 
 34 36  1  0  0  0  0 
 36 37  1  0  0  0  0 
 36 38  1  0  0  0  0 
 38 39  1  0  0  0  0 
 38 40  1  0  0  0  0 
 40 41  2  0  0  0  0 
 40 42  1  0  0  0  0 
 42 43  1  0  0  0  0 
 38 44  1  0  0  0  0 
 30 44  1  0  0  0  0 
 36 45  1  0  0  0  0 
 45 46  1  0  0  0  0 
 34 47  1  0  0  0  0 
 47 48  1  0  0  0  0 
 32 49  1  0  0  0  0 
 49 50  1  0  0  0  0 
 29 51  1  0  0  0  0 
 22 51  1  0  0  0  0 
 51 52  2  0  0  0  0 
 16 53  1  0  0  0  0 
 53 54  2  0  0  0  0 
 54 55  1  0  0  0  0 
 54 56  1  0  0  0  0 
 56 57  2  0  0  0  0 
 57 58  1  0  0  0  0 
 57 59  1  0  0  0  0 
 59 60  1  0  0  0  0 
 59 61  2  0  0  0  0 
 61 62  1  0  0  0  0 
 62 63  1  0  0  0  0 
 62 64  2  0  0  0  0 
 56 64  1  0  0  0  0 
 64 65  1  0  0  0  0 
 65 66  1  0  0  0  0 
 65 67  2  0  0  0  0 
 53 67  1  0  0  0  0 
 67 68  1  0  0  0  0 
 61 69  1  0  0  0  0 
 69 70  1  0  0  0  0 
 69 71  1  0  0  0  0 
 71 72  2  0  0  0  0 
 71 73  2  0  0  0  0 
 71 74  1  0  0  0  0 
 74 75  1  0  0  0  0 
 74 76  1  0  0  0  0 
 74 77  1  0  0  0  0 
 15 78  1  0  0  0  0 
 78 79  1  0  0  0  0 
 79 80  1  0  0  0  0 
 79 81  1  0  0  0  0 
 79 82  1  0  0  0  0 
M  END
> <Rank>
5

> <Priority_score>
0.272

> <Reaction_type>
N-glucuronidation_(aromatic_-nH-)

> <Parent_ID>
42

> <Parent_InChI>
InChI=1S/C26H27N3O5S/c1-26(2,3)22-15-20(29-11-10-23(30)27-25(29)31)14-21(24(22)34-4)18-7-6-17-13-19(28-35(5,32)33)9-8-16(17)12-18/h6-15,28H,1-5H3,(H,27,30,31)

> <Parent_SMILES>
COc1c(-c2ccc3cc(NS(C)(=O)=O)ccc3c2)cc(-n2ccc(=O)[nH]c2=O)cc1C(C)(C)C

$$$$
Molecule 42_metabolite 6
  CDK     0516241031

 82 86  0  0  0  0  0  0  0  0999 V2000
   -8.1584    6.9636    0.0000 C   0  0  0  0  0  0  0  0  0  0  0  0
   -8.1577    8.4636    0.0000 H   0  0  0  0  0  0  0  0  0  0  0  0
   -9.6355    7.2248    0.0000 H   0  0  0  0  0  0  0  0  0  0  0  0
   -8.6721    5.5544    0.0000 H   0  0  0  0  0  0  0  0  0  0  0  0
   -6.4442    5.9728    0.0000 C   0  0  0  0  0  0  0  0  0  0  0  0
   -4.9671    5.7116    0.0000 C   0  0  0  0  0  0  0  0  0  0  0  0
   -4.0023    6.8602    0.0000 H   0  0  0  0  0  0  0  0  0  0  0  0
   -5.4808    4.3023    0.0000 H   0  0  0  0  0  0  0  0  0  0  0  0
   -2.4217    4.2404    0.0000 H   0  0  0  0  0  0  0  0  0  0  0  0
   -5.9305    7.3821    0.0000 C   0  0  0  0  0  0  0  0  0  0  0  0
   -4.4531    7.6419    0.0000 H   0  0  0  0  0  0  0  0  0  0  0  0
   -7.4075    7.6433    0.0000 H   0  0  0  0  0  0  0  0  0  0  0  0
   -5.9297    8.8821    0.0000 H   0  0  0  0  0  0  0  0  0  0  0  0
   -6.4451    3.9928    0.0000 C   0  0  0  0  0  0  0  0  0  0  0  0
   -5.1458    3.2416    0.0000 C   0  0  0  0  0  0  0  0  0  0  0  0
   -5.1458    1.7407    0.0000 C   0  0  0  0  0  0  0  0  0  0  0  0
   -6.4451    0.9912    0.0000 C   0  0  0  0  0  0  0  0  0  0  0  0
   -6.4458   -0.5088    0.0000 H   0  0  0  0  0  0  0  0  0  0  0  0
   -7.7444    1.7424    0.0000 C   0  0  0  0  0  0  0  0  0  0  0  0
   -7.7444    3.2432    0.0000 C   0  0  0  0  0  0  0  0  0  0  0  0
   -9.0433    3.9934    0.0000 H   0  0  0  0  0  0  0  0  0  0  0  0
   -9.0437    0.9928    0.0000 N   0  0  0  0  0  0  0  0  0  0  0  0
  -10.3430    1.7441    0.0000 C   0  0  0  0  0  0  0  0  0  0  0  0
  -10.3422    3.2441    0.0000 H   0  0  0  0  0  0  0  0  0  0  0  0
  -11.6422    0.9945    0.0000 C   0  0  0  0  0  0  0  0  0  0  0  0
  -12.9412    1.7447    0.0000 H   0  0  0  0  0  0  0  0  0  0  0  0
  -11.6422   -0.5063    0.0000 C   0  0  0  0  0  0  0  0  0  0  0  0
  -12.9415   -1.2559    0.0000 O   0  0  0  0  0  0  0  0  0  0  0  0
  -10.3430   -1.2576    0.0000 N   0  0  0  0  0  0  0  0  0  0  0  0
  -10.3437   -2.7576    0.0000 H   0  0  0  0  0  0  0  0  0  0  0  0
   -9.0437   -0.5080    0.0000 C   0  0  0  0  0  0  0  0  0  0  0  0
   -7.7448   -1.2582    0.0000 O   0  0  0  0  0  0  0  0  0  0  0  0
   -3.8469    0.9905    0.0000 C   0  0  0  0  0  0  0  0  0  0  0  0
   -2.5469    1.7405    0.0000 C   0  0  0  0  0  0  0  0  0  0  0  0
   -2.5469    3.2405    0.0000 H   0  0  0  0  0  0  0  0  0  0  0  0
   -1.2469    0.9905    0.0000 C   0  0  0  0  0  0  0  0  0  0  0  0
    0.0531    1.7405    0.0000 C   0  0  0  0  0  0  0  0  0  0  0  0
    0.0531    3.2405    0.0000 H   0  0  0  0  0  0  0  0  0  0  0  0
    1.3531    0.9905    0.0000 C   0  0  0  0  0  0  0  0  0  0  0  0
    2.6520    1.7407    0.0000 H   0  0  0  0  0  0  0  0  0  0  0  0
    1.3531   -0.5095    0.0000 C   0  0  0  0  0  0  0  0  0  0  0  0
    0.0531   -1.2595    0.0000 C   0  0  0  0  0  0  0  0  0  0  0  0
    0.0531   -2.7595    0.0000 H   0  0  0  0  0  0  0  0  0  0  0  0
   -1.2469   -0.5095    0.0000 C   0  0  0  0  0  0  0  0  0  0  0  0
   -2.5469   -1.2595    0.0000 C   0  0  0  0  0  0  0  0  0  0  0  0
   -2.5469   -2.7595    0.0000 H   0  0  0  0  0  0  0  0  0  0  0  0
   -3.8469   -0.5095    0.0000 C   0  0  0  0  0  0  0  0  0  0  0  0
   -5.1458   -1.2597    0.0000 H   0  0  0  0  0  0  0  0  0  0  0  0
    2.6520   -1.2597    0.0000 N   0  0  0  0  0  0  0  0  0  0  0  0
    2.6517   -3.2397    0.0000 C   0  0  0  0  0  0  0  0  0  0  0  0
    1.1745   -2.9791    0.0000 H   0  0  0  0  0  0  0  0  0  0  0  0
    2.1387   -4.6492    0.0000 C   0  0  0  0  0  0  0  0  0  0  0  0
    0.8396   -3.8994    0.0000 H   0  0  0  0  0  0  0  0  0  0  0  0
    3.1039   -5.7986    0.0000 C   0  0  0  0  0  0  0  0  0  0  0  0
    1.8050   -6.5488    0.0000 H   0  0  0  0  0  0  0  0  0  0  0  0
    4.5820   -5.5384    0.0000 C   0  0  0  0  0  0  0  0  0  0  0  0
    4.5817   -7.0384    0.0000 H   0  0  0  0  0  0  0  0  0  0  0  0
    5.0949   -4.1288    0.0000 C   0  0  0  0  0  0  0  0  0  0  0  0
    6.3941   -4.8786    0.0000 H   0  0  0  0  0  0  0  0  0  0  0  0
    6.0588   -2.9795    0.0000 C   0  0  0  0  0  0  0  0  0  0  0  0
    5.5454   -1.5701    0.0000 O   0  0  0  0  0  0  0  0  0  0  0  0
    7.5361   -3.2396    0.0000 O   0  0  0  0  0  0  0  0  0  0  0  0
    8.0495   -4.6490    0.0000 H   0  0  0  0  0  0  0  0  0  0  0  0
    4.1298   -2.9795    0.0000 O   0  0  0  0  0  0  0  0  0  0  0  0
    6.0592   -5.7989    0.0000 O   0  0  0  0  0  0  0  0  0  0  0  0
    6.5721   -7.2085    0.0000 H   0  0  0  0  0  0  0  0  0  0  0  0
    3.6168   -7.2082    0.0000 O   0  0  0  0  0  0  0  0  0  0  0  0
    2.6526   -8.3572    0.0000 H   0  0  0  0  0  0  0  0  0  0  0  0
    1.1748   -5.7986    0.0000 O   0  0  0  0  0  0  0  0  0  0  0  0
   -0.3024   -5.5385    0.0000 H   0  0  0  0  0  0  0  0  0  0  0  0
    3.9512   -0.5099    0.0000 S   0  0  0  0  0  0  0  0  0  0  0  0
    5.4284   -0.2496    0.0000 O   0  0  0  0  0  0  0  0  0  0  0  0
    4.4640   -1.9195    0.0000 O   0  0  0  0  0  0  0  0  0  0  0  0
    3.9514    0.9901    0.0000 C   0  0  0  0  0  0  0  0  0  0  0  0
    5.2506    1.7399    0.0000 H   0  0  0  0  0  0  0  0  0  0  0  0
    2.4741    0.7299    0.0000 H   0  0  0  0  0  0  0  0  0  0  0  0
    3.4386    2.3997    0.0000 H   0  0  0  0  0  0  0  0  0  0  0  0
   -3.4308    4.2310    0.0000 O   0  0  0  0  0  0  0  0  0  0  0  0
   -3.4303    5.7310    0.0000 C   0  0  0  0  0  0  0  0  0  0  0  0
   -4.7291    6.4814    0.0000 H   0  0  0  0  0  0  0  0  0  0  0  0
   -1.9532    5.4701    0.0000 H   0  0  0  0  0  0  0  0  0  0  0  0
   -2.9168    7.1404    0.0000 H   0  0  0  0  0  0  0  0  0  0  0  0
  1  2  1  0  0  0  0 
  1  3  1  0  0  0  0 
  1  4  1  0  0  0  0 
  1  5  1  0  0  0  0 
  5  6  1  0  0  0  0 
  6  7  1  0  0  0  0 
  6  8  1  0  0  0  0 
  6  9  1  0  0  0  0 
  5 10  1  0  0  0  0 
 10 11  1  0  0  0  0 
 10 12  1  0  0  0  0 
 10 13  1  0  0  0  0 
  5 14  1  0  0  0  0 
 14 15  2  0  0  0  0 
 15 16  1  0  0  0  0 
 16 17  2  0  0  0  0 
 17 18  1  0  0  0  0 
 17 19  1  0  0  0  0 
 19 20  2  0  0  0  0 
 14 20  1  0  0  0  0 
 20 21  1  0  0  0  0 
 19 22  1  0  0  0  0 
 22 23  1  0  0  0  0 
 23 24  1  0  0  0  0 
 23 25  2  0  0  0  0 
 25 26  1  0  0  0  0 
 25 27  1  0  0  0  0 
 27 28  2  0  0  0  0 
 27 29  1  0  0  0  0 
 29 30  1  0  0  0  0 
 29 31  1  0  0  0  0 
 22 31  1  0  0  0  0 
 31 32  2  0  0  0  0 
 16 33  1  0  0  0  0 
 33 34  2  0  0  0  0 
 34 35  1  0  0  0  0 
 34 36  1  0  0  0  0 
 36 37  2  0  0  0  0 
 37 38  1  0  0  0  0 
 37 39  1  0  0  0  0 
 39 40  1  0  0  0  0 
 39 41  2  0  0  0  0 
 41 42  1  0  0  0  0 
 42 43  1  0  0  0  0 
 42 44  2  0  0  0  0 
 36 44  1  0  0  0  0 
 44 45  1  0  0  0  0 
 45 46  1  0  0  0  0 
 45 47  2  0  0  0  0 
 33 47  1  0  0  0  0 
 47 48  1  0  0  0  0 
 41 49  1  0  0  0  0 
 49 50  1  0  0  0  0 
 50 51  1  0  0  0  0 
 50 52  1  0  0  0  0 
 52 53  1  0  0  0  0 
 52 54  1  0  0  0  0 
 54 55  1  0  0  0  0 
 54 56  1  0  0  0  0 
 56 57  1  0  0  0  0 
 56 58  1  0  0  0  0 
 58 59  1  0  0  0  0 
 58 60  1  0  0  0  0 
 60 61  2  0  0  0  0 
 60 62  1  0  0  0  0 
 62 63  1  0  0  0  0 
 58 64  1  0  0  0  0 
 50 64  1  0  0  0  0 
 56 65  1  0  0  0  0 
 65 66  1  0  0  0  0 
 54 67  1  0  0  0  0 
 67 68  1  0  0  0  0 
 52 69  1  0  0  0  0 
 69 70  1  0  0  0  0 
 49 71  1  0  0  0  0 
 71 72  2  0  0  0  0 
 71 73  2  0  0  0  0 
 71 74  1  0  0  0  0 
 74 75  1  0  0  0  0 
 74 76  1  0  0  0  0 
 74 77  1  0  0  0  0 
 15 78  1  0  0  0  0 
 78 79  1  0  0  0  0 
 79 80  1  0  0  0  0 
 79 81  1  0  0  0  0 
 79 82  1  0  0  0  0 
M  END
> <Rank>
6

> <Priority_score>
0.268

> <Reaction_type>
N-glucuronidation_(aniline_NH1-R)

> <Parent_ID>
42

> <Parent_InChI>
InChI=1S/C26H27N3O5S/c1-26(2,3)22-15-20(29-11-10-23(30)27-25(29)31)14-21(24(22)34-4)18-7-6-17-13-19(28-35(5,32)33)9-8-16(17)12-18/h6-15,28H,1-5H3,(H,27,30,31)

> <Parent_SMILES>
COc1c(-c2ccc3cc(NS(C)(=O)=O)ccc3c2)cc(-n2ccc(=O)[nH]c2=O)cc1C(C)(C)C

$$$$
Molecule 42_metabolite 7
  CDK     0516241031

 59 62  0  0  0  0  0  0  0  0999 V2000
   -6.9889    5.6100    0.0000 C   0  0  0  0  0  0  0  0  0  0  0  0
   -6.9881    7.1100    0.0000 H   0  0  0  0  0  0  0  0  0  0  0  0
   -8.4659    5.8712    0.0000 H   0  0  0  0  0  0  0  0  0  0  0  0
   -7.5026    4.2007    0.0000 H   0  0  0  0  0  0  0  0  0  0  0  0
   -5.6902    4.8594    0.0000 C   0  0  0  0  0  0  0  0  0  0  0  0
   -4.2131    4.5982    0.0000 C   0  0  0  0  0  0  0  0  0  0  0  0
   -3.7007    3.1884    0.0000 H   0  0  0  0  0  0  0  0  0  0  0  0
   -4.2124    6.0982    0.0000 H   0  0  0  0  0  0  0  0  0  0  0  0
   -2.7358    4.8579    0.0000 H   0  0  0  0  0  0  0  0  0  0  0  0
   -4.6833    7.6216    0.0000 C   0  0  0  0  0  0  0  0  0  0  0  0
   -5.6469    8.7711    0.0000 H   0  0  0  0  0  0  0  0  0  0  0  0
   -3.3846    6.8710    0.0000 H   0  0  0  0  0  0  0  0  0  0  0  0
   -3.7186    8.7702    0.0000 H   0  0  0  0  0  0  0  0  0  0  0  0
   -5.6914    2.3994    0.0000 C   0  0  0  0  0  0  0  0  0  0  0  0
   -6.9914    1.6494    0.0000 C   0  0  0  0  0  0  0  0  0  0  0  0
   -6.9928    0.1485    0.0000 C   0  0  0  0  0  0  0  0  0  0  0  0
   -5.6942   -0.6023    0.0000 C   0  0  0  0  0  0  0  0  0  0  0  0
   -5.6950   -2.1023    0.0000 H   0  0  0  0  0  0  0  0  0  0  0  0
   -4.3942    0.1477    0.0000 C   0  0  0  0  0  0  0  0  0  0  0  0
   -4.3928    1.6485    0.0000 C   0  0  0  0  0  0  0  0  0  0  0  0
   -3.0932    2.3975    0.0000 H   0  0  0  0  0  0  0  0  0  0  0  0
   -3.0957   -0.6031    0.0000 N   0  0  0  0  0  0  0  0  0  0  0  0
   -1.7957    0.1469    0.0000 C   0  0  0  0  0  0  0  0  0  0  0  0
   -1.7950    1.6469    0.0000 H   0  0  0  0  0  0  0  0  0  0  0  0
   -0.4971   -0.6040    0.0000 C   0  0  0  0  0  0  0  0  0  0  0  0
    0.8025    0.1450    0.0000 H   0  0  0  0  0  0  0  0  0  0  0  0
   -0.4986   -2.1048    0.0000 C   0  0  0  0  0  0  0  0  0  0  0  0
    0.8000   -2.8556    0.0000 O   0  0  0  0  0  0  0  0  0  0  0  0
   -1.7986   -2.8548    0.0000 N   0  0  0  0  0  0  0  0  0  0  0  0
   -1.7993   -4.3548    0.0000 H   0  0  0  0  0  0  0  0  0  0  0  0
   -3.0971   -2.1040    0.0000 C   0  0  0  0  0  0  0  0  0  0  0  0
   -4.3968   -2.8529    0.0000 O   0  0  0  0  0  0  0  0  0  0  0  0
   -8.2924   -0.6004    0.0000 C   0  0  0  0  0  0  0  0  0  0  0  0
   -9.5917    0.1508    0.0000 C   0  0  0  0  0  0  0  0  0  0  0  0
   -9.5903    1.6508    0.0000 H   0  0  0  0  0  0  0  0  0  0  0  0
  -10.8924   -0.5979    0.0000 C   0  0  0  0  0  0  0  0  0  0  0  0
  -12.1917    0.1533    0.0000 C   0  0  0  0  0  0  0  0  0  0  0  0
  -12.1903    1.6533    0.0000 H   0  0  0  0  0  0  0  0  0  0  0  0
  -13.4924   -0.5954    0.0000 C   0  0  0  0  0  0  0  0  0  0  0  0
  -14.7906    0.1560    0.0000 H   0  0  0  0  0  0  0  0  0  0  0  0
  -13.4939   -2.0954    0.0000 C   0  0  0  0  0  0  0  0  0  0  0  0
  -12.1946   -2.8467    0.0000 C   0  0  0  0  0  0  0  0  0  0  0  0
  -12.1960   -4.3467    0.0000 H   0  0  0  0  0  0  0  0  0  0  0  0
  -10.8939   -2.0979    0.0000 C   0  0  0  0  0  0  0  0  0  0  0  0
   -9.5946   -2.8492    0.0000 C   0  0  0  0  0  0  0  0  0  0  0  0
   -9.5960   -4.3492    0.0000 H   0  0  0  0  0  0  0  0  0  0  0  0
   -8.2939   -2.1004    0.0000 C   0  0  0  0  0  0  0  0  0  0  0  0
   -6.9957   -2.8519    0.0000 H   0  0  0  0  0  0  0  0  0  0  0  0
  -14.7935   -2.8444    0.0000 N   0  0  0  0  0  0  0  0  0  0  0  0
  -14.7947   -4.3444    0.0000 H   0  0  0  0  0  0  0  0  0  0  0  0
  -16.0920   -2.0933    0.0000 S   0  0  0  0  0  0  0  0  0  0  0  0
  -17.0552   -0.9435    0.0000 O   0  0  0  0  0  0  0  0  0  0  0  0
  -15.1269   -0.9450    0.0000 O   0  0  0  0  0  0  0  0  0  0  0  0
  -17.3916   -2.8423    0.0000 C   0  0  0  0  0  0  0  0  0  0  0  0
  -18.6900   -2.0913    0.0000 H   0  0  0  0  0  0  0  0  0  0  0  0
  -16.4283   -3.9921    0.0000 H   0  0  0  0  0  0  0  0  0  0  0  0
  -18.3567   -3.9906    0.0000 H   0  0  0  0  0  0  0  0  0  0  0  0
   -8.2899    2.4002    0.0000 O   0  0  0  0  0  0  0  0  0  0  0  0
   -8.2890    3.9002    0.0000 H   0  0  0  0  0  0  0  0  0  0  0  0
  1  2  1  0  0  0  0 
  1  3  1  0  0  0  0 
  1  4  1  0  0  0  0 
  1  5  1  0  0  0  0 
  5  6  1  0  0  0  0 
  6  7  1  0  0  0  0 
  6  8  1  0  0  0  0 
  6  9  1  0  0  0  0 
  5 10  1  0  0  0  0 
 10 11  1  0  0  0  0 
 10 12  1  0  0  0  0 
 10 13  1  0  0  0  0 
  5 14  1  0  0  0  0 
 14 15  2  0  0  0  0 
 15 16  1  0  0  0  0 
 16 17  2  0  0  0  0 
 17 18  1  0  0  0  0 
 17 19  1  0  0  0  0 
 19 20  2  0  0  0  0 
 14 20  1  0  0  0  0 
 20 21  1  0  0  0  0 
 19 22  1  0  0  0  0 
 22 23  1  0  0  0  0 
 23 24  1  0  0  0  0 
 23 25  2  0  0  0  0 
 25 26  1  0  0  0  0 
 25 27  1  0  0  0  0 
 27 28  2  0  0  0  0 
 27 29  1  0  0  0  0 
 29 30  1  0  0  0  0 
 29 31  1  0  0  0  0 
 22 31  1  0  0  0  0 
 31 32  2  0  0  0  0 
 16 33  1  0  0  0  0 
 33 34  2  0  0  0  0 
 34 35  1  0  0  0  0 
 34 36  1  0  0  0  0 
 36 37  2  0  0  0  0 
 37 38  1  0  0  0  0 
 37 39  1  0  0  0  0 
 39 40  1  0  0  0  0 
 39 41  2  0  0  0  0 
 41 42  1  0  0  0  0 
 42 43  1  0  0  0  0 
 42 44  2  0  0  0  0 
 36 44  1  0  0  0  0 
 44 45  1  0  0  0  0 
 45 46  1  0  0  0  0 
 45 47  2  0  0  0  0 
 33 47  1  0  0  0  0 
 47 48  1  0  0  0  0 
 41 49  1  0  0  0  0 
 49 50  1  0  0  0  0 
 49 51  1  0  0  0  0 
 51 52  2  0  0  0  0 
 51 53  2  0  0  0  0 
 51 54  1  0  0  0  0 
 54 55  1  0  0  0  0 
 54 56  1  0  0  0  0 
 54 57  1  0  0  0  0 
 15 58  1  0  0  0  0 
 58 59  1  0  0  0  0 
M  END
> <Rank>
7

> <Priority_score>
0.264

> <Reaction_type>
O-demethylation

> <Parent_ID>
42

> <Parent_InChI>
InChI=1S/C26H27N3O5S/c1-26(2,3)22-15-20(29-11-10-23(30)27-25(29)31)14-21(24(22)34-4)18-7-6-17-13-19(28-35(5,32)33)9-8-16(17)12-18/h6-15,28H,1-5H3,(H,27,30,31)

> <Parent_SMILES>
COc1c(-c2ccc3cc(NS(C)(=O)=O)ccc3c2)cc(-n2ccc(=O)[nH]c2=O)cc1C(C)(C)C

$$$$
Molecule 42_metabolite 8
  CDK     0516241031

 63 66  0  0  0  0  0  0  0  0999 V2000
   -7.8206    5.1307    0.0000 C   0  0  0  0  0  0  0  0  0  0  0  0
   -7.8199    6.6307    0.0000 H   0  0  0  0  0  0  0  0  0  0  0  0
   -9.2977    5.3918    0.0000 H   0  0  0  0  0  0  0  0  0  0  0  0
   -8.3343    3.7214    0.0000 H   0  0  0  0  0  0  0  0  0  0  0  0
   -6.5219    4.3800    0.0000 C   0  0  0  0  0  0  0  0  0  0  0  0
   -5.0449    4.1189    0.0000 C   0  0  0  0  0  0  0  0  0  0  0  0
   -4.5325    2.7091    0.0000 H   0  0  0  0  0  0  0  0  0  0  0  0
   -5.0441    5.6189    0.0000 H   0  0  0  0  0  0  0  0  0  0  0  0
   -3.5675    4.3786    0.0000 H   0  0  0  0  0  0  0  0  0  0  0  0
   -5.5151    7.1422    0.0000 C   0  0  0  0  0  0  0  0  0  0  0  0
   -6.4787    8.2918    0.0000 H   0  0  0  0  0  0  0  0  0  0  0  0
   -4.2164    6.3916    0.0000 H   0  0  0  0  0  0  0  0  0  0  0  0
   -4.5503    8.2909    0.0000 H   0  0  0  0  0  0  0  0  0  0  0  0
   -6.5231    1.9200    0.0000 C   0  0  0  0  0  0  0  0  0  0  0  0
   -7.8231    1.1700    0.0000 C   0  0  0  0  0  0  0  0  0  0  0  0
   -7.8246   -0.3308    0.0000 C   0  0  0  0  0  0  0  0  0  0  0  0
   -6.5260   -1.0816    0.0000 C   0  0  0  0  0  0  0  0  0  0  0  0
   -6.5267   -2.5816    0.0000 H   0  0  0  0  0  0  0  0  0  0  0  0
   -5.2260   -0.3316    0.0000 C   0  0  0  0  0  0  0  0  0  0  0  0
   -5.2246    1.1692    0.0000 C   0  0  0  0  0  0  0  0  0  0  0  0
   -3.0932    2.3975    0.0000 H   0  0  0  0  0  0  0  0  0  0  0  0
   -3.9275   -1.0825    0.0000 N   0  0  0  0  0  0  0  0  0  0  0  0
   -2.6275   -0.3325    0.0000 C   0  0  0  0  0  0  0  0  0  0  0  0
   -2.6267    1.1675    0.0000 H   0  0  0  0  0  0  0  0  0  0  0  0
   -1.3289   -1.0833    0.0000 C   0  0  0  0  0  0  0  0  0  0  0  0
   -0.0293   -0.3343    0.0000 H   0  0  0  0  0  0  0  0  0  0  0  0
   -1.3303   -2.5841    0.0000 C   0  0  0  0  0  0  0  0  0  0  0  0
   -0.0318   -3.3350    0.0000 O   0  0  0  0  0  0  0  0  0  0  0  0
   -2.6303   -3.3341    0.0000 N   0  0  0  0  0  0  0  0  0  0  0  0
   -2.6311   -4.8341    0.0000 H   0  0  0  0  0  0  0  0  0  0  0  0
   -3.9289   -2.5833    0.0000 C   0  0  0  0  0  0  0  0  0  0  0  0
   -5.2285   -3.3323    0.0000 O   0  0  0  0  0  0  0  0  0  0  0  0
   -9.1242   -1.0798    0.0000 C   0  0  0  0  0  0  0  0  0  0  0  0
  -10.4235   -0.3285    0.0000 C   0  0  0  0  0  0  0  0  0  0  0  0
  -10.4220    1.1715    0.0000 H   0  0  0  0  0  0  0  0  0  0  0  0
  -11.7242   -1.0773    0.0000 C   0  0  0  0  0  0  0  0  0  0  0  0
  -13.0235   -0.3260    0.0000 C   0  0  0  0  0  0  0  0  0  0  0  0
  -13.0220    1.1740    0.0000 H   0  0  0  0  0  0  0  0  0  0  0  0
  -14.3242   -1.0748    0.0000 C   0  0  0  0  0  0  0  0  0  0  0  0
  -15.6224   -0.3233    0.0000 H   0  0  0  0  0  0  0  0  0  0  0  0
  -14.3256   -2.5748    0.0000 C   0  0  0  0  0  0  0  0  0  0  0  0
  -13.0264   -3.3260    0.0000 C   0  0  0  0  0  0  0  0  0  0  0  0
  -13.0278   -4.8260    0.0000 H   0  0  0  0  0  0  0  0  0  0  0  0
  -11.7256   -2.5773    0.0000 C   0  0  0  0  0  0  0  0  0  0  0  0
  -10.4264   -3.3285    0.0000 C   0  0  0  0  0  0  0  0  0  0  0  0
  -10.4278   -4.8285    0.0000 H   0  0  0  0  0  0  0  0  0  0  0  0
   -9.1256   -2.5798    0.0000 C   0  0  0  0  0  0  0  0  0  0  0  0
   -7.8275   -3.3312    0.0000 H   0  0  0  0  0  0  0  0  0  0  0  0
  -15.6253   -3.3237    0.0000 N   0  0  0  0  0  0  0  0  0  0  0  0
  -15.6265   -4.8237    0.0000 H   0  0  0  0  0  0  0  0  0  0  0  0
  -16.9237   -2.5727    0.0000 S   0  0  0  0  0  0  0  0  0  0  0  0
  -17.8870   -1.4228    0.0000 O   0  0  0  0  0  0  0  0  0  0  0  0
  -15.9586   -1.4244    0.0000 O   0  0  0  0  0  0  0  0  0  0  0  0
  -18.2234   -3.3216    0.0000 C   0  0  0  0  0  0  0  0  0  0  0  0
  -19.5218   -2.5706    0.0000 H   0  0  0  0  0  0  0  0  0  0  0  0
  -17.2601   -4.4715    0.0000 H   0  0  0  0  0  0  0  0  0  0  0  0
  -19.1885   -4.4699    0.0000 H   0  0  0  0  0  0  0  0  0  0  0  0
   -9.1217    1.9209    0.0000 O   0  0  0  0  0  0  0  0  0  0  0  0
   -9.1207    3.4209    0.0000 C   0  0  0  0  0  0  0  0  0  0  0  0
   -8.6068    4.8301    0.0000 H   0  0  0  0  0  0  0  0  0  0  0  0
   -7.6437    3.1594    0.0000 H   0  0  0  0  0  0  0  0  0  0  0  0
  -10.4193    4.1717    0.0000 O   0  0  0  0  0  0  0  0  0  0  0  0
  -10.4183    5.6717    0.0000 H   0  0  0  0  0  0  0  0  0  0  0  0
  1  2  1  0  0  0  0 
  1  3  1  0  0  0  0 
  1  4  1  0  0  0  0 
  1  5  1  0  0  0  0 
  5  6  1  0  0  0  0 
  6  7  1  0  0  0  0 
  6  8  1  0  0  0  0 
  6  9  1  0  0  0  0 
  5 10  1  0  0  0  0 
 10 11  1  0  0  0  0 
 10 12  1  0  0  0  0 
 10 13  1  0  0  0  0 
  5 14  1  0  0  0  0 
 14 15  2  0  0  0  0 
 15 16  1  0  0  0  0 
 16 17  2  0  0  0  0 
 17 18  1  0  0  0  0 
 17 19  1  0  0  0  0 
 19 20  2  0  0  0  0 
 14 20  1  0  0  0  0 
 20 21  1  0  0  0  0 
 19 22  1  0  0  0  0 
 22 23  1  0  0  0  0 
 23 24  1  0  0  0  0 
 23 25  2  0  0  0  0 
 25 26  1  0  0  0  0 
 25 27  1  0  0  0  0 
 27 28  2  0  0  0  0 
 27 29  1  0  0  0  0 
 29 30  1  0  0  0  0 
 29 31  1  0  0  0  0 
 22 31  1  0  0  0  0 
 31 32  2  0  0  0  0 
 16 33  1  0  0  0  0 
 33 34  2  0  0  0  0 
 34 35  1  0  0  0  0 
 34 36  1  0  0  0  0 
 36 37  2  0  0  0  0 
 37 38  1  0  0  0  0 
 37 39  1  0  0  0  0 
 39 40  1  0  0  0  0 
 39 41  2  0  0  0  0 
 41 42  1  0  0  0  0 
 42 43  1  0  0  0  0 
 42 44  2  0  0  0  0 
 36 44  1  0  0  0  0 
 44 45  1  0  0  0  0 
 45 46  1  0  0  0  0 
 45 47  2  0  0  0  0 
 33 47  1  0  0  0  0 
 47 48  1  0  0  0  0 
 41 49  1  0  0  0  0 
 49 50  1  0  0  0  0 
 49 51  1  0  0  0  0 
 51 52  2  0  0  0  0 
 51 53  2  0  0  0  0 
 51 54  1  0  0  0  0 
 54 55  1  0  0  0  0 
 54 56  1  0  0  0  0 
 54 57  1  0  0  0  0 
 15 58  1  0  0  0  0 
 58 59  1  0  0  0  0 
 59 60  1  0  0  0  0 
 59 61  1  0  0  0  0 
 59 62  1  0  0  0  0 
 62 63  1  0  0  0  0 
M  END
> <Rank>
7

> <Priority_score>
0.264

> <Reaction_type>
aliphatic hydroxylation

> <Parent_ID>
42

> <Parent_InChI>
InChI=1S/C26H27N3O5S/c1-26(2,3)22-15-20(29-11-10-23(30)27-25(29)31)14-21(24(22)34-4)18-7-6-17-13-19(28-35(5,32)33)9-8-16(17)12-18/h6-15,28H,1-5H3,(H,27,30,31)

> <Parent_SMILES>
COc1c(-c2ccc3cc(NS(C)(=O)=O)ccc3c2)cc(-n2ccc(=O)[nH]c2=O)cc1C(C)(C)C

$$$$
Molecule 42_metabolite 9
  CDK     0516241031

 63 66  0  0  0  0  0  0  0  0999 V2000
   -7.4846    6.9694    0.0000 C   0  0  0  0  0  0  0  0  0  0  0  0
   -6.9709    8.3787    0.0000 H   0  0  0  0  0  0  0  0  0  0  0  0
   -8.7833    7.7201    0.0000 H   0  0  0  0  0  0  0  0  0  0  0  0
   -8.4494    5.8208    0.0000 H   0  0  0  0  0  0  0  0  0  0  0  0
   -6.5210    5.8199    0.0000 C   0  0  0  0  0  0  0  0  0  0  0  0
   -5.0439    5.5587    0.0000 C   0  0  0  0  0  0  0  0  0  0  0  0
   -4.5316    4.1489    0.0000 H   0  0  0  0  0  0  0  0  0  0  0  0
   -5.0432    7.0587    0.0000 H   0  0  0  0  0  0  0  0  0  0  0  0
   -3.5666    5.8185    0.0000 H   0  0  0  0  0  0  0  0  0  0  0  0
   -5.5142    8.5821    0.0000 C   0  0  0  0  0  0  0  0  0  0  0  0
   -6.4778    9.7316    0.0000 H   0  0  0  0  0  0  0  0  0  0  0  0
   -4.2155    7.8315    0.0000 H   0  0  0  0  0  0  0  0  0  0  0  0
   -4.5494    9.7307    0.0000 H   0  0  0  0  0  0  0  0  0  0  0  0
   -6.5224    2.8799    0.0000 C   0  0  0  0  0  0  0  0  0  0  0  0
   -7.8224    2.1299    0.0000 C   0  0  0  0  0  0  0  0  0  0  0  0
   -7.8239    0.6291    0.0000 C   0  0  0  0  0  0  0  0  0  0  0  0
   -6.5253   -0.1218    0.0000 C   0  0  0  0  0  0  0  0  0  0  0  0
   -6.5260   -1.6218    0.0000 H   0  0  0  0  0  0  0  0  0  0  0  0
   -5.2253    0.6282    0.0000 C   0  0  0  0  0  0  0  0  0  0  0  0
   -5.2239    2.1291    0.0000 C   0  0  0  0  0  0  0  0  0  0  0  0
   -3.9242    2.8780    0.0000 H   0  0  0  0  0  0  0  0  0  0  0  0
   -3.0957   -0.6031    0.0000 N   0  0  0  0  0  0  0  0  0  0  0  0
   -1.6177   -0.8641    0.0000 C   0  0  0  0  0  0  0  0  0  0  0  0
   -0.6531    0.2846    0.0000 H   0  0  0  0  0  0  0  0  0  0  0  0
   -1.1054   -2.2739    0.0000 C   0  0  0  0  0  0  0  0  0  0  0  0
    0.3716   -2.5354    0.0000 H   0  0  0  0  0  0  0  0  0  0  0  0
   -2.0711   -3.4228    0.0000 C   0  0  0  0  0  0  0  0  0  0  0  0
   -1.5589   -4.8326    0.0000 O   0  0  0  0  0  0  0  0  0  0  0  0
   -3.5491   -3.1618    0.0000 N   0  0  0  0  0  0  0  0  0  0  0  0
   -4.5137   -4.3105    0.0000 H   0  0  0  0  0  0  0  0  0  0  0  0
   -4.0614   -1.7520    0.0000 C   0  0  0  0  0  0  0  0  0  0  0  0
   -5.5384   -1.4905    0.0000 O   0  0  0  0  0  0  0  0  0  0  0  0
   -2.5821    0.8062    0.0000 O   0  0  0  0  0  0  0  0  0  0  0  0
   -9.1235   -0.1199    0.0000 C   0  0  0  0  0  0  0  0  0  0  0  0
  -10.4228    0.6314    0.0000 C   0  0  0  0  0  0  0  0  0  0  0  0
  -10.4213    2.1314    0.0000 H   0  0  0  0  0  0  0  0  0  0  0  0
  -11.7235   -0.1174    0.0000 C   0  0  0  0  0  0  0  0  0  0  0  0
  -13.0228    0.6339    0.0000 C   0  0  0  0  0  0  0  0  0  0  0  0
  -13.0213    2.1339    0.0000 H   0  0  0  0  0  0  0  0  0  0  0  0
  -14.3235   -0.1149    0.0000 C   0  0  0  0  0  0  0  0  0  0  0  0
  -15.6217    0.6366    0.0000 H   0  0  0  0  0  0  0  0  0  0  0  0
  -14.3250   -1.6149    0.0000 C   0  0  0  0  0  0  0  0  0  0  0  0
  -13.0257   -2.3661    0.0000 C   0  0  0  0  0  0  0  0  0  0  0  0
  -13.0271   -3.8661    0.0000 H   0  0  0  0  0  0  0  0  0  0  0  0
  -11.7250   -1.6174    0.0000 C   0  0  0  0  0  0  0  0  0  0  0  0
  -10.4257   -2.3686    0.0000 C   0  0  0  0  0  0  0  0  0  0  0  0
  -10.4271   -3.8686    0.0000 H   0  0  0  0  0  0  0  0  0  0  0  0
   -9.1250   -1.6199    0.0000 C   0  0  0  0  0  0  0  0  0  0  0  0
   -7.8268   -2.3713    0.0000 H   0  0  0  0  0  0  0  0  0  0  0  0
  -15.6246   -2.3638    0.0000 N   0  0  0  0  0  0  0  0  0  0  0  0
  -15.6258   -3.8638    0.0000 H   0  0  0  0  0  0  0  0  0  0  0  0
  -16.9230   -1.6128    0.0000 S   0  0  0  0  0  0  0  0  0  0  0  0
  -17.8863   -0.4630    0.0000 O   0  0  0  0  0  0  0  0  0  0  0  0
  -15.9579   -0.4645    0.0000 O   0  0  0  0  0  0  0  0  0  0  0  0
  -18.2227   -2.3618    0.0000 C   0  0  0  0  0  0  0  0  0  0  0  0
  -19.5211   -1.6107    0.0000 H   0  0  0  0  0  0  0  0  0  0  0  0
  -17.2594   -3.5116    0.0000 H   0  0  0  0  0  0  0  0  0  0  0  0
  -19.1878   -3.5101    0.0000 H   0  0  0  0  0  0  0  0  0  0  0  0
   -9.1210    2.8807    0.0000 O   0  0  0  0  0  0  0  0  0  0  0  0
   -9.1200    4.3807    0.0000 C   0  0  0  0  0  0  0  0  0  0  0  0
   -7.8205    5.1299    0.0000 H   0  0  0  0  0  0  0  0  0  0  0  0
   -9.6322    5.7906    0.0000 H   0  0  0  0  0  0  0  0  0  0  0  0
  -10.5974    4.1212    0.0000 H   0  0  0  0  0  0  0  0  0  0  0  0
  1  2  1  0  0  0  0 
  1  3  1  0  0  0  0 
  1  4  1  0  0  0  0 
  1  5  1  0  0  0  0 
  5  6  1  0  0  0  0 
  6  7  1  0  0  0  0 
  6  8  1  0  0  0  0 
  6  9  1  0  0  0  0 
  5 10  1  0  0  0  0 
 10 11  1  0  0  0  0 
 10 12  1  0  0  0  0 
 10 13  1  0  0  0  0 
  5 14  1  0  0  0  0 
 14 15  2  0  0  0  0 
 15 16  1  0  0  0  0 
 16 17  2  0  0  0  0 
 17 18  1  0  0  0  0 
 17 19  1  0  0  0  0 
 19 20  2  0  0  0  0 
 14 20  1  0  0  0  0 
 20 21  1  0  0  0  0 
 19 22  1  0  0  0  0 
 22 23  1  0  0  0  0 
 23 24  1  0  0  0  0 
 23 25  2  0  0  0  0 
 25 26  1  0  0  0  0 
 25 27  1  0  0  0  0 
 27 28  2  0  0  0  0 
 27 29  1  0  0  0  0 
 29 30  1  0  0  0  0 
 29 31  1  0  0  0  0 
 22 31  1  0  0  0  0 
 31 32  2  0  0  0  0 
 22 33  1  0  0  0  0 
 16 34  1  0  0  0  0 
 34 35  2  0  0  0  0 
 35 36  1  0  0  0  0 
 35 37  1  0  0  0  0 
 37 38  2  0  0  0  0 
 38 39  1  0  0  0  0 
 38 40  1  0  0  0  0 
 40 41  1  0  0  0  0 
 40 42  2  0  0  0  0 
 42 43  1  0  0  0  0 
 43 44  1  0  0  0  0 
 43 45  2  0  0  0  0 
 37 45  1  0  0  0  0 
 45 46  1  0  0  0  0 
 46 47  1  0  0  0  0 
 46 48  2  0  0  0  0 
 34 48  1  0  0  0  0 
 48 49  1  0  0  0  0 
 42 50  1  0  0  0  0 
 50 51  1  0  0  0  0 
 50 52  1  0  0  0  0 
 52 53  2  0  0  0  0 
 52 54  2  0  0  0  0 
 52 55  1  0  0  0  0 
 55 56  1  0  0  0  0 
 55 57  1  0  0  0  0 
 55 58  1  0  0  0  0 
 15 59  1  0  0  0  0 
 59 60  1  0  0  0  0 
 60 61  1  0  0  0  0 
 60 62  1  0  0  0  0 
 60 63  1  0  0  0  0 
M  CHG  1  22   1
M  CHG  1  33  -1
M  END
> <Rank>
9

> <Priority_score>
0.24

> <Reaction_type>
N-oxidation

> <Parent_ID>
42

> <Parent_InChI>
InChI=1S/C26H27N3O5S/c1-26(2,3)22-15-20(29-11-10-23(30)27-25(29)31)14-21(24(22)34-4)18-7-6-17-13-19(28-35(5,32)33)9-8-16(17)12-18/h6-15,28H,1-5H3,(H,27,30,31)

> <Parent_SMILES>
COc1c(-c2ccc3cc(NS(C)(=O)=O)ccc3c2)cc(-n2ccc(=O)[nH]c2=O)cc1C(C)(C)C

$$$$
Molecule 42_metabolite 10
  CDK     0516241031

 63 66  0  0  0  0  0  0  0  0999 V2000
   -8.2365    4.8910    0.0000 C   0  0  0  0  0  0  0  0  0  0  0  0
   -8.2358    6.3910    0.0000 H   0  0  0  0  0  0  0  0  0  0  0  0
   -9.7136    5.1522    0.0000 H   0  0  0  0  0  0  0  0  0  0  0  0
   -8.7502    3.4817    0.0000 H   0  0  0  0  0  0  0  0  0  0  0  0
   -6.9378    4.1404    0.0000 C   0  0  0  0  0  0  0  0  0  0  0  0
   -5.4607    3.8792    0.0000 C   0  0  0  0  0  0  0  0  0  0  0  0
   -4.9484    2.4694    0.0000 H   0  0  0  0  0  0  0  0  0  0  0  0
   -5.4600    5.3792    0.0000 H   0  0  0  0  0  0  0  0  0  0  0  0
   -3.9834    4.1389    0.0000 H   0  0  0  0  0  0  0  0  0  0  0  0
   -5.9310    6.9026    0.0000 C   0  0  0  0  0  0  0  0  0  0  0  0
   -6.8946    8.0521    0.0000 H   0  0  0  0  0  0  0  0  0  0  0  0
   -4.6323    6.1520    0.0000 H   0  0  0  0  0  0  0  0  0  0  0  0
   -4.9662    8.0512    0.0000 H   0  0  0  0  0  0  0  0  0  0  0  0
   -6.9390    1.6804    0.0000 C   0  0  0  0  0  0  0  0  0  0  0  0
   -8.2390    0.9304    0.0000 C   0  0  0  0  0  0  0  0  0  0  0  0
   -8.2405   -0.5705    0.0000 C   0  0  0  0  0  0  0  0  0  0  0  0
   -6.9419   -1.3213    0.0000 C   0  0  0  0  0  0  0  0  0  0  0  0
   -6.9426   -2.8213    0.0000 H   0  0  0  0  0  0  0  0  0  0  0  0
   -5.6419   -0.5713    0.0000 C   0  0  0  0  0  0  0  0  0  0  0  0
   -5.6405    0.9295    0.0000 C   0  0  0  0  0  0  0  0  0  0  0  0
   -3.0932    2.3975    0.0000 H   0  0  0  0  0  0  0  0  0  0  0  0
   -4.3433   -1.3221    0.0000 N   0  0  0  0  0  0  0  0  0  0  0  0
   -3.0433   -0.5721    0.0000 C   0  0  0  0  0  0  0  0  0  0  0  0
   -1.7448   -1.3230    0.0000 C   0  0  0  0  0  0  0  0  0  0  0  0
   -0.4451   -0.5740    0.0000 H   0  0  0  0  0  0  0  0  0  0  0  0
   -1.7462   -2.8238    0.0000 C   0  0  0  0  0  0  0  0  0  0  0  0
   -0.4477   -3.5746    0.0000 O   0  0  0  0  0  0  0  0  0  0  0  0
   -3.0462   -3.5738    0.0000 N   0  0  0  0  0  0  0  0  0  0  0  0
   -3.0469   -5.0738    0.0000 H   0  0  0  0  0  0  0  0  0  0  0  0
   -4.3448   -2.8230    0.0000 C   0  0  0  0  0  0  0  0  0  0  0  0
   -5.6444   -3.5719    0.0000 O   0  0  0  0  0  0  0  0  0  0  0  0
   -3.0426    0.9279    0.0000 O   0  0  0  0  0  0  0  0  0  0  0  0
   -1.7432    1.6772    0.0000 H   0  0  0  0  0  0  0  0  0  0  0  0
   -9.5401   -1.3194    0.0000 C   0  0  0  0  0  0  0  0  0  0  0  0
  -10.8394   -0.5682    0.0000 C   0  0  0  0  0  0  0  0  0  0  0  0
  -10.8379    0.9318    0.0000 H   0  0  0  0  0  0  0  0  0  0  0  0
  -12.1401   -1.3169    0.0000 C   0  0  0  0  0  0  0  0  0  0  0  0
  -13.4394   -0.5657    0.0000 C   0  0  0  0  0  0  0  0  0  0  0  0
  -13.4379    0.9343    0.0000 H   0  0  0  0  0  0  0  0  0  0  0  0
  -14.7401   -1.3144    0.0000 C   0  0  0  0  0  0  0  0  0  0  0  0
  -16.0383   -0.5630    0.0000 H   0  0  0  0  0  0  0  0  0  0  0  0
  -14.7415   -2.8144    0.0000 C   0  0  0  0  0  0  0  0  0  0  0  0
  -13.4423   -3.5657    0.0000 C   0  0  0  0  0  0  0  0  0  0  0  0
  -13.4437   -5.0657    0.0000 H   0  0  0  0  0  0  0  0  0  0  0  0
  -12.1415   -2.8169    0.0000 C   0  0  0  0  0  0  0  0  0  0  0  0
  -10.8423   -3.5682    0.0000 C   0  0  0  0  0  0  0  0  0  0  0  0
  -10.8437   -5.0682    0.0000 H   0  0  0  0  0  0  0  0  0  0  0  0
   -9.5415   -2.8194    0.0000 C   0  0  0  0  0  0  0  0  0  0  0  0
   -8.2433   -3.5709    0.0000 H   0  0  0  0  0  0  0  0  0  0  0  0
  -16.0412   -3.5634    0.0000 N   0  0  0  0  0  0  0  0  0  0  0  0
  -16.0424   -5.0634    0.0000 H   0  0  0  0  0  0  0  0  0  0  0  0
  -17.3396   -2.8123    0.0000 S   0  0  0  0  0  0  0  0  0  0  0  0
  -18.3029   -1.6625    0.0000 O   0  0  0  0  0  0  0  0  0  0  0  0
  -16.3745   -1.6640    0.0000 O   0  0  0  0  0  0  0  0  0  0  0  0
  -18.6392   -3.5613    0.0000 C   0  0  0  0  0  0  0  0  0  0  0  0
  -19.9377   -2.8103    0.0000 H   0  0  0  0  0  0  0  0  0  0  0  0
  -17.6760   -4.7111    0.0000 H   0  0  0  0  0  0  0  0  0  0  0  0
  -19.6043   -4.7096    0.0000 H   0  0  0  0  0  0  0  0  0  0  0  0
   -9.5376    1.6812    0.0000 O   0  0  0  0  0  0  0  0  0  0  0  0
   -9.5366    3.1812    0.0000 C   0  0  0  0  0  0  0  0  0  0  0  0
  -10.8352    3.9320    0.0000 H   0  0  0  0  0  0  0  0  0  0  0  0
   -9.0227    4.5904    0.0000 H   0  0  0  0  0  0  0  0  0  0  0  0
   -8.0596    2.9198    0.0000 H   0  0  0  0  0  0  0  0  0  0  0  0
  1  2  1  0  0  0  0 
  1  3  1  0  0  0  0 
  1  4  1  0  0  0  0 
  1  5  1  0  0  0  0 
  5  6  1  0  0  0  0 
  6  7  1  0  0  0  0 
  6  8  1  0  0  0  0 
  6  9  1  0  0  0  0 
  5 10  1  0  0  0  0 
 10 11  1  0  0  0  0 
 10 12  1  0  0  0  0 
 10 13  1  0  0  0  0 
  5 14  1  0  0  0  0 
 14 15  2  0  0  0  0 
 15 16  1  0  0  0  0 
 16 17  2  0  0  0  0 
 17 18  1  0  0  0  0 
 17 19  1  0  0  0  0 
 19 20  2  0  0  0  0 
 14 20  1  0  0  0  0 
 20 21  1  0  0  0  0 
 19 22  1  0  0  0  0 
 22 23  1  0  0  0  0 
 23 24  2  0  0  0  0 
 24 25  1  0  0  0  0 
 24 26  1  0  0  0  0 
 26 27  2  0  0  0  0 
 26 28  1  0  0  0  0 
 28 29  1  0  0  0  0 
 28 30  1  0  0  0  0 
 22 30  1  0  0  0  0 
 30 31  2  0  0  0  0 
 23 32  1  0  0  0  0 
 32 33  1  0  0  0  0 
 16 34  1  0  0  0  0 
 34 35  2  0  0  0  0 
 35 36  1  0  0  0  0 
 35 37  1  0  0  0  0 
 37 38  2  0  0  0  0 
 38 39  1  0  0  0  0 
 38 40  1  0  0  0  0 
 40 41  1  0  0  0  0 
 40 42  2  0  0  0  0 
 42 43  1  0  0  0  0 
 43 44  1  0  0  0  0 
 43 45  2  0  0  0  0 
 37 45  1  0  0  0  0 
 45 46  1  0  0  0  0 
 46 47  1  0  0  0  0 
 46 48  2  0  0  0  0 
 34 48  1  0  0  0  0 
 48 49  1  0  0  0  0 
 42 50  1  0  0  0  0 
 50 51  1  0  0  0  0 
 50 52  1  0  0  0  0 
 52 53  2  0  0  0  0 
 52 54  2  0  0  0  0 
 52 55  1  0  0  0  0 
 55 56  1  0  0  0  0 
 55 57  1  0  0  0  0 
 55 58  1  0  0  0  0 
 15 59  1  0  0  0  0 
 59 60  1  0  0  0  0 
 60 61  1  0  0  0  0 
 60 62  1  0  0  0  0 
 60 63  1  0  0  0  0 
M  END
> <Rank>
9

> <Priority_score>
0.24

> <Reaction_type>
aromatic hydroxylation

> <Parent_ID>
42

> <Parent_InChI>
InChI=1S/C26H27N3O5S/c1-26(2,3)22-15-20(29-11-10-23(30)27-25(29)31)14-21(24(22)34-4)18-7-6-17-13-19(28-35(5,32)33)9-8-16(17)12-18/h6-15,28H,1-5H3,(H,27,30,31)

> <Parent_SMILES>
COc1c(-c2ccc3cc(NS(C)(=O)=O)ccc3c2)cc(-n2ccc(=O)[nH]c2=O)cc1C(C)(C)C

$$$$
Molecule 42_metabolite 11
  CDK     0516241031

 63 66  0  0  0  0  0  0  0  0999 V2000
   -7.8206    5.1307    0.0000 C   0  0  0  0  0  0  0  0  0  0  0  0
   -7.8199    6.6307    0.0000 H   0  0  0  0  0  0  0  0  0  0  0  0
   -9.2977    5.3918    0.0000 H   0  0  0  0  0  0  0  0  0  0  0  0
   -8.3343    3.7214    0.0000 H   0  0  0  0  0  0  0  0  0  0  0  0
   -6.5219    4.3800    0.0000 C   0  0  0  0  0  0  0  0  0  0  0  0
   -5.0449    4.1189    0.0000 C   0  0  0  0  0  0  0  0  0  0  0  0
   -4.5325    2.7091    0.0000 H   0  0  0  0  0  0  0  0  0  0  0  0
   -5.0441    5.6189    0.0000 H   0  0  0  0  0  0  0  0  0  0  0  0
   -3.5675    4.3786    0.0000 H   0  0  0  0  0  0  0  0  0  0  0  0
   -5.5151    7.1422    0.0000 C   0  0  0  0  0  0  0  0  0  0  0  0
   -6.4787    8.2918    0.0000 H   0  0  0  0  0  0  0  0  0  0  0  0
   -4.2164    6.3916    0.0000 H   0  0  0  0  0  0  0  0  0  0  0  0
   -4.5503    8.2909    0.0000 H   0  0  0  0  0  0  0  0  0  0  0  0
   -6.5231    1.9200    0.0000 C   0  0  0  0  0  0  0  0  0  0  0  0
   -7.8231    1.1700    0.0000 C   0  0  0  0  0  0  0  0  0  0  0  0
   -7.8246   -0.3308    0.0000 C   0  0  0  0  0  0  0  0  0  0  0  0
   -6.5260   -1.0816    0.0000 C   0  0  0  0  0  0  0  0  0  0  0  0
   -6.5267   -2.5816    0.0000 H   0  0  0  0  0  0  0  0  0  0  0  0
   -5.2260   -0.3316    0.0000 C   0  0  0  0  0  0  0  0  0  0  0  0
   -5.2246    1.1692    0.0000 C   0  0  0  0  0  0  0  0  0  0  0  0
   -3.0932    2.3975    0.0000 H   0  0  0  0  0  0  0  0  0  0  0  0
   -3.9275   -1.0825    0.0000 N   0  0  0  0  0  0  0  0  0  0  0  0
   -2.6275   -0.3325    0.0000 C   0  0  0  0  0  0  0  0  0  0  0  0
   -2.6267    1.1675    0.0000 H   0  0  0  0  0  0  0  0  0  0  0  0
   -1.3289   -1.0833    0.0000 C   0  0  0  0  0  0  0  0  0  0  0  0
   -0.0293   -0.3343    0.0000 H   0  0  0  0  0  0  0  0  0  0  0  0
   -1.3303   -2.5841    0.0000 C   0  0  0  0  0  0  0  0  0  0  0  0
   -0.0318   -3.3350    0.0000 O   0  0  0  0  0  0  0  0  0  0  0  0
   -2.6303   -3.3341    0.0000 N   0  0  0  0  0  0  0  0  0  0  0  0
   -2.6311   -4.8341    0.0000 H   0  0  0  0  0  0  0  0  0  0  0  0
   -3.9289   -2.5833    0.0000 C   0  0  0  0  0  0  0  0  0  0  0  0
   -5.2285   -3.3323    0.0000 O   0  0  0  0  0  0  0  0  0  0  0  0
   -9.1242   -1.0798    0.0000 C   0  0  0  0  0  0  0  0  0  0  0  0
  -10.4235   -0.3285    0.0000 C   0  0  0  0  0  0  0  0  0  0  0  0
  -10.4220    1.1715    0.0000 H   0  0  0  0  0  0  0  0  0  0  0  0
  -11.7242   -1.0773    0.0000 C   0  0  0  0  0  0  0  0  0  0  0  0
  -13.0235   -0.3260    0.0000 C   0  0  0  0  0  0  0  0  0  0  0  0
  -13.0220    1.1740    0.0000 H   0  0  0  0  0  0  0  0  0  0  0  0
  -14.3242   -1.0748    0.0000 C   0  0  0  0  0  0  0  0  0  0  0  0
  -15.6224   -0.3233    0.0000 H   0  0  0  0  0  0  0  0  0  0  0  0
  -14.3256   -2.5748    0.0000 C   0  0  0  0  0  0  0  0  0  0  0  0
  -13.0264   -3.3260    0.0000 C   0  0  0  0  0  0  0  0  0  0  0  0
  -13.0278   -4.8260    0.0000 H   0  0  0  0  0  0  0  0  0  0  0  0
  -11.7256   -2.5773    0.0000 C   0  0  0  0  0  0  0  0  0  0  0  0
  -10.4264   -3.3285    0.0000 C   0  0  0  0  0  0  0  0  0  0  0  0
  -10.4278   -4.8285    0.0000 H   0  0  0  0  0  0  0  0  0  0  0  0
   -9.1256   -2.5798    0.0000 C   0  0  0  0  0  0  0  0  0  0  0  0
   -7.8275   -3.3312    0.0000 H   0  0  0  0  0  0  0  0  0  0  0  0
  -15.6253   -3.3237    0.0000 N   0  0  0  0  0  0  0  0  0  0  0  0
  -15.6265   -4.8237    0.0000 H   0  0  0  0  0  0  0  0  0  0  0  0
  -16.9237   -2.5727    0.0000 S   0  0  0  0  0  0  0  0  0  0  0  0
  -18.2222   -1.8216    0.0000 O   0  0  0  0  0  0  0  0  0  0  0  0
  -16.9225   -1.0727    0.0000 O   0  0  0  0  0  0  0  0  0  0  0  0
  -15.6241   -1.8237    0.0000 O   0  0  0  0  0  0  0  0  0  0  0  0
  -18.2234   -3.3216    0.0000 C   0  0  0  0  0  0  0  0  0  0  0  0
  -19.5218   -2.5706    0.0000 H   0  0  0  0  0  0  0  0  0  0  0  0
  -17.2601   -4.4715    0.0000 H   0  0  0  0  0  0  0  0  0  0  0  0
  -19.1885   -4.4699    0.0000 H   0  0  0  0  0  0  0  0  0  0  0  0
   -9.1217    1.9209    0.0000 O   0  0  0  0  0  0  0  0  0  0  0  0
   -9.1207    3.4209    0.0000 C   0  0  0  0  0  0  0  0  0  0  0  0
  -10.4193    4.1717    0.0000 H   0  0  0  0  0  0  0  0  0  0  0  0
   -8.6068    4.8301    0.0000 H   0  0  0  0  0  0  0  0  0  0  0  0
   -7.6437    3.1594    0.0000 H   0  0  0  0  0  0  0  0  0  0  0  0
  1  2  1  0  0  0  0 
  1  3  1  0  0  0  0 
  1  4  1  0  0  0  0 
  1  5  1  0  0  0  0 
  5  6  1  0  0  0  0 
  6  7  1  0  0  0  0 
  6  8  1  0  0  0  0 
  6  9  1  0  0  0  0 
  5 10  1  0  0  0  0 
 10 11  1  0  0  0  0 
 10 12  1  0  0  0  0 
 10 13  1  0  0  0  0 
  5 14  1  0  0  0  0 
 14 15  2  0  0  0  0 
 15 16  1  0  0  0  0 
 16 17  2  0  0  0  0 
 17 18  1  0  0  0  0 
 17 19  1  0  0  0  0 
 19 20  2  0  0  0  0 
 14 20  1  0  0  0  0 
 20 21  1  0  0  0  0 
 19 22  1  0  0  0  0 
 22 23  1  0  0  0  0 
 23 24  1  0  0  0  0 
 23 25  2  0  0  0  0 
 25 26  1  0  0  0  0 
 25 27  1  0  0  0  0 
 27 28  2  0  0  0  0 
 27 29  1  0  0  0  0 
 29 30  1  0  0  0  0 
 29 31  1  0  0  0  0 
 22 31  1  0  0  0  0 
 31 32  2  0  0  0  0 
 16 33  1  0  0  0  0 
 33 34  2  0  0  0  0 
 34 35  1  0  0  0  0 
 34 36  1  0  0  0  0 
 36 37  2  0  0  0  0 
 37 38  1  0  0  0  0 
 37 39  1  0  0  0  0 
 39 40  1  0  0  0  0 
 39 41  2  0  0  0  0 
 41 42  1  0  0  0  0 
 42 43  1  0  0  0  0 
 42 44  2  0  0  0  0 
 36 44  1  0  0  0  0 
 44 45  1  0  0  0  0 
 45 46  1  0  0  0  0 
 45 47  2  0  0  0  0 
 33 47  1  0  0  0  0 
 47 48  1  0  0  0  0 
 41 49  1  0  0  0  0 
 49 50  1  0  0  0  0 
 49 51  1  0  0  0  0 
 51 52  2  0  0  0  0 
 51 53  2  0  0  0  0 
 51 54  2  0  0  0  0 
 51 55  1  0  0  0  0 
 55 56  1  0  0  0  0 
 55 57  1  0  0  0  0 
 55 58  1  0  0  0  0 
 15 59  1  0  0  0  0 
 59 60  1  0  0  0  0 
 60 61  1  0  0  0  0 
 60 62  1  0  0  0  0 
 60 63  1  0  0  0  0 
M  END
> <Rank>
11

> <Priority_score>
0.128

> <Reaction_type>
S-oxidation

> <Parent_ID>
42

> <Parent_InChI>
InChI=1S/C26H27N3O5S/c1-26(2,3)22-15-20(29-11-10-23(30)27-25(29)31)14-21(24(22)34-4)18-7-6-17-13-19(28-35(5,32)33)9-8-16(17)12-18/h6-15,28H,1-5H3,(H,27,30,31)

> <Parent_SMILES>
COc1c(-c2ccc3cc(NS(C)(=O)=O)ccc3c2)cc(-n2ccc(=O)[nH]c2=O)cc1C(C)(C)C

$$$$
Molecule 42_metabolite 12
  CDK     0516241031

 63 66  0  0  0  0  0  0  0  0999 V2000
   -7.2401    5.8212    0.0000 C   0  0  0  0  0  0  0  0  0  0  0  0
   -7.2394    7.3212    0.0000 H   0  0  0  0  0  0  0  0  0  0  0  0
   -8.7172    6.0824    0.0000 H   0  0  0  0  0  0  0  0  0  0  0  0
   -7.7538    4.4119    0.0000 H   0  0  0  0  0  0  0  0  0  0  0  0
   -5.5258    4.8304    0.0000 C   0  0  0  0  0  0  0  0  0  0  0  0
   -4.0487    4.5692    0.0000 C   0  0  0  0  0  0  0  0  0  0  0  0
   -3.0840    5.7178    0.0000 H   0  0  0  0  0  0  0  0  0  0  0  0
   -4.5625    3.1599    0.0000 H   0  0  0  0  0  0  0  0  0  0  0  0
   -1.9189    3.3382    0.0000 H   0  0  0  0  0  0  0  0  0  0  0  0
   -5.0121    6.2396    0.0000 C   0  0  0  0  0  0  0  0  0  0  0  0
   -3.5348    6.4994    0.0000 H   0  0  0  0  0  0  0  0  0  0  0  0
   -6.4892    6.5008    0.0000 H   0  0  0  0  0  0  0  0  0  0  0  0
   -5.0114    7.7396    0.0000 H   0  0  0  0  0  0  0  0  0  0  0  0
   -5.5268    2.8504    0.0000 C   0  0  0  0  0  0  0  0  0  0  0  0
   -4.2275    2.0991    0.0000 C   0  0  0  0  0  0  0  0  0  0  0  0
   -4.2275    0.5983    0.0000 C   0  0  0  0  0  0  0  0  0  0  0  0
   -5.5268   -0.1513    0.0000 C   0  0  0  0  0  0  0  0  0  0  0  0
   -5.5275   -1.6513    0.0000 H   0  0  0  0  0  0  0  0  0  0  0  0
   -6.8261    0.5999    0.0000 C   0  0  0  0  0  0  0  0  0  0  0  0
   -6.8261    2.1008    0.0000 C   0  0  0  0  0  0  0  0  0  0  0  0
   -8.1250    2.8510    0.0000 H   0  0  0  0  0  0  0  0  0  0  0  0
   -8.5411   -0.3895    0.0000 N   0  0  0  0  0  0  0  0  0  0  0  0
   -9.8404    0.3617    0.0000 C   0  0  0  0  0  0  0  0  0  0  0  0
   -9.8397    1.8617    0.0000 H   0  0  0  0  0  0  0  0  0  0  0  0
  -11.1397   -0.3878    0.0000 C   0  0  0  0  0  0  0  0  0  0  0  0
  -12.4386    0.3624    0.0000 H   0  0  0  0  0  0  0  0  0  0  0  0
  -11.1397   -1.8887    0.0000 C   0  0  0  0  0  0  0  0  0  0  0  0
  -12.4389   -2.6383    0.0000 O   0  0  0  0  0  0  0  0  0  0  0  0
   -9.8404   -2.6399    0.0000 N   0  0  0  0  0  0  0  0  0  0  0  0
   -9.8411   -4.1399    0.0000 H   0  0  0  0  0  0  0  0  0  0  0  0
   -8.5411   -1.8903    0.0000 C   0  0  0  0  0  0  0  0  0  0  0  0
   -7.2422   -2.6406    0.0000 O   0  0  0  0  0  0  0  0  0  0  0  0
   -2.9286   -0.1519    0.0000 C   0  0  0  0  0  0  0  0  0  0  0  0
   -1.6286    0.5981    0.0000 C   0  0  0  0  0  0  0  0  0  0  0  0
   -1.6286    2.0981    0.0000 H   0  0  0  0  0  0  0  0  0  0  0  0
   -0.3286   -0.1519    0.0000 C   0  0  0  0  0  0  0  0  0  0  0  0
    0.9714    0.5981    0.0000 C   0  0  0  0  0  0  0  0  0  0  0  0
    0.9714    2.0981    0.0000 H   0  0  0  0  0  0  0  0  0  0  0  0
    2.2714   -0.1519    0.0000 C   0  0  0  0  0  0  0  0  0  0  0  0
    3.5703    0.5983    0.0000 H   0  0  0  0  0  0  0  0  0  0  0  0
    2.2714   -1.6519    0.0000 C   0  0  0  0  0  0  0  0  0  0  0  0
    0.9714   -2.4019    0.0000 C   0  0  0  0  0  0  0  0  0  0  0  0
    0.9714   -3.9019    0.0000 H   0  0  0  0  0  0  0  0  0  0  0  0
   -0.3286   -1.6519    0.0000 C   0  0  0  0  0  0  0  0  0  0  0  0
   -1.6286   -2.4019    0.0000 C   0  0  0  0  0  0  0  0  0  0  0  0
   -1.6286   -3.9019    0.0000 H   0  0  0  0  0  0  0  0  0  0  0  0
   -2.9286   -1.6519    0.0000 C   0  0  0  0  0  0  0  0  0  0  0  0
   -4.2275   -2.4021    0.0000 H   0  0  0  0  0  0  0  0  0  0  0  0
    3.5703   -2.4021    0.0000 N   0  0  0  0  0  0  0  0  0  0  0  0
    3.5701   -3.9021    0.0000 H   0  0  0  0  0  0  0  0  0  0  0  0
    4.8695   -1.6523    0.0000 S   0  0  0  0  0  0  0  0  0  0  0  0
    5.8339   -0.5034    0.0000 O   0  0  0  0  0  0  0  0  0  0  0  0
    3.9055   -0.5031    0.0000 O   0  0  0  0  0  0  0  0  0  0  0  0
    6.1684   -2.4026    0.0000 C   0  0  0  0  0  0  0  0  0  0  0  0
    5.2040   -3.5515    0.0000 H   0  0  0  0  0  0  0  0  0  0  0  0
    7.1324   -3.5518    0.0000 H   0  0  0  0  0  0  0  0  0  0  0  0
    7.4676   -1.6528    0.0000 O   0  0  0  0  0  0  0  0  0  0  0  0
    8.7665   -2.4030    0.0000 H   0  0  0  0  0  0  0  0  0  0  0  0
   -2.9282    2.8487    0.0000 O   0  0  0  0  0  0  0  0  0  0  0  0
   -2.9276    4.8287    0.0000 C   0  0  0  0  0  0  0  0  0  0  0  0
   -4.2264    5.5791    0.0000 H   0  0  0  0  0  0  0  0  0  0  0  0
   -1.4505    4.5677    0.0000 H   0  0  0  0  0  0  0  0  0  0  0  0
   -2.0855    7.1401    0.0000 H   0  0  0  0  0  0  0  0  0  0  0  0
  1  2  1  0  0  0  0 
  1  3  1  0  0  0  0 
  1  4  1  0  0  0  0 
  1  5  1  0  0  0  0 
  5  6  1  0  0  0  0 
  6  7  1  0  0  0  0 
  6  8  1  0  0  0  0 
  6  9  1  0  0  0  0 
  5 10  1  0  0  0  0 
 10 11  1  0  0  0  0 
 10 12  1  0  0  0  0 
 10 13  1  0  0  0  0 
  5 14  1  0  0  0  0 
 14 15  2  0  0  0  0 
 15 16  1  0  0  0  0 
 16 17  2  0  0  0  0 
 17 18  1  0  0  0  0 
 17 19  1  0  0  0  0 
 19 20  2  0  0  0  0 
 14 20  1  0  0  0  0 
 20 21  1  0  0  0  0 
 19 22  1  0  0  0  0 
 22 23  1  0  0  0  0 
 23 24  1  0  0  0  0 
 23 25  2  0  0  0  0 
 25 26  1  0  0  0  0 
 25 27  1  0  0  0  0 
 27 28  2  0  0  0  0 
 27 29  1  0  0  0  0 
 29 30  1  0  0  0  0 
 29 31  1  0  0  0  0 
 22 31  1  0  0  0  0 
 31 32  2  0  0  0  0 
 16 33  1  0  0  0  0 
 33 34  2  0  0  0  0 
 34 35  1  0  0  0  0 
 34 36  1  0  0  0  0 
 36 37  2  0  0  0  0 
 37 38  1  0  0  0  0 
 37 39  1  0  0  0  0 
 39 40  1  0  0  0  0 
 39 41  2  0  0  0  0 
 41 42  1  0  0  0  0 
 42 43  1  0  0  0  0 
 42 44  2  0  0  0  0 
 36 44  1  0  0  0  0 
 44 45  1  0  0  0  0 
 45 46  1  0  0  0  0 
 45 47  2  0  0  0  0 
 33 47  1  0  0  0  0 
 47 48  1  0  0  0  0 
 41 49  1  0  0  0  0 
 49 50  1  0  0  0  0 
 49 51  1  0  0  0  0 
 51 52  2  0  0  0  0 
 51 53  2  0  0  0  0 
 51 54  1  0  0  0  0 
 54 55  1  0  0  0  0 
 54 56  1  0  0  0  0 
 54 57  1  0  0  0  0 
 57 58  1  0  0  0  0 
 15 59  1  0  0  0  0 
 59 60  1  0  0  0  0 
 60 61  1  0  0  0  0 
 60 62  1  0  0  0  0 
 60 63  1  0  0  0  0 
M  END
> <Rank>
12

> <Priority_score>
0.124

> <Reaction_type>
aliphatic hydroxylation

> <Parent_ID>
42

> <Parent_InChI>
InChI=1S/C26H27N3O5S/c1-26(2,3)22-15-20(29-11-10-23(30)27-25(29)31)14-21(24(22)34-4)18-7-6-17-13-19(28-35(5,32)33)9-8-16(17)12-18/h6-15,28H,1-5H3,(H,27,30,31)

> <Parent_SMILES>
COc1c(-c2ccc3cc(NS(C)(=O)=O)ccc3c2)cc(-n2ccc(=O)[nH]c2=O)cc1C(C)(C)C

$$$$
Molecule 42_metabolite 13
  CDK     0516241031

 63 66  0  0  0  0  0  0  0  0999 V2000
   -8.2362    5.3709    0.0000 C   0  0  0  0  0  0  0  0  0  0  0  0
   -8.2354    6.8709    0.0000 H   0  0  0  0  0  0  0  0  0  0  0  0
   -9.7132    5.6321    0.0000 H   0  0  0  0  0  0  0  0  0  0  0  0
   -8.7499    3.9616    0.0000 H   0  0  0  0  0  0  0  0  0  0  0  0
   -6.9375    4.6203    0.0000 C   0  0  0  0  0  0  0  0  0  0  0  0
   -5.4604    4.3591    0.0000 C   0  0  0  0  0  0  0  0  0  0  0  0
   -4.9480    2.9493    0.0000 H   0  0  0  0  0  0  0  0  0  0  0  0
   -5.4597    5.8591    0.0000 H   0  0  0  0  0  0  0  0  0  0  0  0
   -3.9831    4.6189    0.0000 H   0  0  0  0  0  0  0  0  0  0  0  0
   -5.9306    7.3825    0.0000 C   0  0  0  0  0  0  0  0  0  0  0  0
   -6.8942    8.5320    0.0000 H   0  0  0  0  0  0  0  0  0  0  0  0
   -4.6319    6.6319    0.0000 H   0  0  0  0  0  0  0  0  0  0  0  0
   -4.9659    8.5311    0.0000 H   0  0  0  0  0  0  0  0  0  0  0  0
   -6.9387    2.1603    0.0000 C   0  0  0  0  0  0  0  0  0  0  0  0
   -8.2387    1.4103    0.0000 C   0  0  0  0  0  0  0  0  0  0  0  0
   -8.2401   -0.0905    0.0000 C   0  0  0  0  0  0  0  0  0  0  0  0
   -6.9415   -0.8414    0.0000 C   0  0  0  0  0  0  0  0  0  0  0  0
   -5.6415   -0.0914    0.0000 C   0  0  0  0  0  0  0  0  0  0  0  0
   -5.6401    1.4095    0.0000 C   0  0  0  0  0  0  0  0  0  0  0  0
   -3.5087    2.6378    0.0000 H   0  0  0  0  0  0  0  0  0  0  0  0
   -3.9275   -1.0825    0.0000 N   0  0  0  0  0  0  0  0  0  0  0  0
   -2.6275   -0.3325    0.0000 C   0  0  0  0  0  0  0  0  0  0  0  0
   -2.6267    1.1675    0.0000 H   0  0  0  0  0  0  0  0  0  0  0  0
   -1.3289   -1.0833    0.0000 C   0  0  0  0  0  0  0  0  0  0  0  0
   -0.0293   -0.3343    0.0000 H   0  0  0  0  0  0  0  0  0  0  0  0
   -1.3303   -2.5841    0.0000 C   0  0  0  0  0  0  0  0  0  0  0  0
   -0.0318   -3.3350    0.0000 O   0  0  0  0  0  0  0  0  0  0  0  0
   -2.6303   -3.3341    0.0000 N   0  0  0  0  0  0  0  0  0  0  0  0
   -2.6311   -4.8341    0.0000 H   0  0  0  0  0  0  0  0  0  0  0  0
   -3.9289   -2.5833    0.0000 C   0  0  0  0  0  0  0  0  0  0  0  0
   -5.2285   -3.3323    0.0000 O   0  0  0  0  0  0  0  0  0  0  0  0
   -6.9423   -2.3414    0.0000 O   0  0  0  0  0  0  0  0  0  0  0  0
   -5.9786   -3.4909    0.0000 H   0  0  0  0  0  0  0  0  0  0  0  0
   -9.5397   -0.8395    0.0000 C   0  0  0  0  0  0  0  0  0  0  0  0
  -10.8390   -0.0882    0.0000 C   0  0  0  0  0  0  0  0  0  0  0  0
  -10.8376    1.4118    0.0000 H   0  0  0  0  0  0  0  0  0  0  0  0
  -12.1397   -0.8370    0.0000 C   0  0  0  0  0  0  0  0  0  0  0  0
  -13.4390   -0.0857    0.0000 C   0  0  0  0  0  0  0  0  0  0  0  0
  -13.4376    1.4143    0.0000 H   0  0  0  0  0  0  0  0  0  0  0  0
  -14.7397   -0.8345    0.0000 C   0  0  0  0  0  0  0  0  0  0  0  0
  -16.0379   -0.0830    0.0000 H   0  0  0  0  0  0  0  0  0  0  0  0
  -14.7412   -2.3345    0.0000 C   0  0  0  0  0  0  0  0  0  0  0  0
  -13.4419   -3.0857    0.0000 C   0  0  0  0  0  0  0  0  0  0  0  0
  -13.4433   -4.5857    0.0000 H   0  0  0  0  0  0  0  0  0  0  0  0
  -12.1412   -2.3370    0.0000 C   0  0  0  0  0  0  0  0  0  0  0  0
  -10.8419   -3.0882    0.0000 C   0  0  0  0  0  0  0  0  0  0  0  0
  -10.8433   -4.5882    0.0000 H   0  0  0  0  0  0  0  0  0  0  0  0
   -9.5412   -2.3395    0.0000 C   0  0  0  0  0  0  0  0  0  0  0  0
   -8.2430   -3.0909    0.0000 H   0  0  0  0  0  0  0  0  0  0  0  0
  -16.0408   -3.0834    0.0000 N   0  0  0  0  0  0  0  0  0  0  0  0
  -16.0420   -4.5834    0.0000 H   0  0  0  0  0  0  0  0  0  0  0  0
  -17.3393   -2.3324    0.0000 S   0  0  0  0  0  0  0  0  0  0  0  0
  -18.3025   -1.1826    0.0000 O   0  0  0  0  0  0  0  0  0  0  0  0
  -16.3742   -1.1841    0.0000 O   0  0  0  0  0  0  0  0  0  0  0  0
  -18.6389   -3.0814    0.0000 C   0  0  0  0  0  0  0  0  0  0  0  0
  -19.9373   -2.3303    0.0000 H   0  0  0  0  0  0  0  0  0  0  0  0
  -17.6756   -4.2312    0.0000 H   0  0  0  0  0  0  0  0  0  0  0  0
  -19.6040   -4.2297    0.0000 H   0  0  0  0  0  0  0  0  0  0  0  0
   -9.5372    2.1611    0.0000 O   0  0  0  0  0  0  0  0  0  0  0  0
   -9.5363    3.6611    0.0000 C   0  0  0  0  0  0  0  0  0  0  0  0
  -10.8348    4.4120    0.0000 H   0  0  0  0  0  0  0  0  0  0  0  0
   -9.0223    5.0703    0.0000 H   0  0  0  0  0  0  0  0  0  0  0  0
   -8.0592    3.3997    0.0000 H   0  0  0  0  0  0  0  0  0  0  0  0
  1  2  1  0  0  0  0 
  1  3  1  0  0  0  0 
  1  4  1  0  0  0  0 
  1  5  1  0  0  0  0 
  5  6  1  0  0  0  0 
  6  7  1  0  0  0  0 
  6  8  1  0  0  0  0 
  6  9  1  0  0  0  0 
  5 10  1  0  0  0  0 
 10 11  1  0  0  0  0 
 10 12  1  0  0  0  0 
 10 13  1  0  0  0  0 
  5 14  1  0  0  0  0 
 14 15  2  0  0  0  0 
 15 16  1  0  0  0  0 
 16 17  2  0  0  0  0 
 17 18  1  0  0  0  0 
 18 19  2  0  0  0  0 
 14 19  1  0  0  0  0 
 19 20  1  0  0  0  0 
 18 21  1  0  0  0  0 
 21 22  1  0  0  0  0 
 22 23  1  0  0  0  0 
 22 24  2  0  0  0  0 
 24 25  1  0  0  0  0 
 24 26  1  0  0  0  0 
 26 27  2  0  0  0  0 
 26 28  1  0  0  0  0 
 28 29  1  0  0  0  0 
 28 30  1  0  0  0  0 
 21 30  1  0  0  0  0 
 30 31  2  0  0  0  0 
 17 32  1  0  0  0  0 
 32 33  1  0  0  0  0 
 16 34  1  0  0  0  0 
 34 35  2  0  0  0  0 
 35 36  1  0  0  0  0 
 35 37  1  0  0  0  0 
 37 38  2  0  0  0  0 
 38 39  1  0  0  0  0 
 38 40  1  0  0  0  0 
 40 41  1  0  0  0  0 
 40 42  2  0  0  0  0 
 42 43  1  0  0  0  0 
 43 44  1  0  0  0  0 
 43 45  2  0  0  0  0 
 37 45  1  0  0  0  0 
 45 46  1  0  0  0  0 
 46 47  1  0  0  0  0 
 46 48  2  0  0  0  0 
 34 48  1  0  0  0  0 
 48 49  1  0  0  0  0 
 42 50  1  0  0  0  0 
 50 51  1  0  0  0  0 
 50 52  1  0  0  0  0 
 52 53  2  0  0  0  0 
 52 54  2  0  0  0  0 
 52 55  1  0  0  0  0 
 55 56  1  0  0  0  0 
 55 57  1  0  0  0  0 
 55 58  1  0  0  0  0 
 15 59  1  0  0  0  0 
 59 60  1  0  0  0  0 
 60 61  1  0  0  0  0 
 60 62  1  0  0  0  0 
 60 63  1  0  0  0  0 
M  END
> <Rank>
13

> <Priority_score>
0.088

> <Reaction_type>
aromatic_hydroxylation_(para_to_carbon)

> <Parent_ID>
42

> <Parent_InChI>
InChI=1S/C26H27N3O5S/c1-26(2,3)22-15-20(29-11-10-23(30)27-25(29)31)14-21(24(22)34-4)18-7-6-17-13-19(28-35(5,32)33)9-8-16(17)12-18/h6-15,28H,1-5H3,(H,27,30,31)

> <Parent_SMILES>
COc1c(-c2ccc3cc(NS(C)(=O)=O)ccc3c2)cc(-n2ccc(=O)[nH]c2=O)cc1C(C)(C)C

$$$$
Molecule 42_metabolite 14
  CDK     0516241031

 63 66  0  0  0  0  0  0  0  0999 V2000
   -8.3838    2.3481    0.0000 C   0  0  0  0  0  0  0  0  0  0  0  0
   -9.6831    1.5985    0.0000 H   0  0  0  0  0  0  0  0  0  0  0  0
   -7.4193    3.4969    0.0000 H   0  0  0  0  0  0  0  0  0  0  0  0
   -9.9645    4.2331    0.0000 H   0  0  0  0  0  0  0  0  0  0  0  0
   -7.0850    1.5977    0.0000 C   0  0  0  0  0  0  0  0  0  0  0  0
   -8.9755   -0.6539    0.0000 C   0  0  0  0  0  0  0  0  0  0  0  0
  -10.4527   -0.3929    0.0000 H   0  0  0  0  0  0  0  0  0  0  0  0
   -9.4890   -2.0633    0.0000 H   0  0  0  0  0  0  0  0  0  0  0  0
   -7.6767   -1.4043    0.0000 H   0  0  0  0  0  0  0  0  0  0  0  0
   -6.1212    0.4483    0.0000 C   0  0  0  0  0  0  0  0  0  0  0  0
   -4.6439    0.7083    0.0000 H   0  0  0  0  0  0  0  0  0  0  0  0
   -5.6086   -0.9614    0.0000 H   0  0  0  0  0  0  0  0  0  0  0  0
   -7.4205   -0.3013    0.0000 H   0  0  0  0  0  0  0  0  0  0  0  0
   -4.9542    2.8270    0.0000 C   0  0  0  0  0  0  0  0  0  0  0  0
   -3.6546    2.0764    0.0000 C   0  0  0  0  0  0  0  0  0  0  0  0
   -3.6557   -0.3836    0.0000 H   0  0  0  0  0  0  0  0  0  0  0  0
   -2.3542    2.8257    0.0000 C   0  0  0  0  0  0  0  0  0  0  0  0
   -2.3535    4.3257    0.0000 C   0  0  0  0  0  0  0  0  0  0  0  0
   -1.0542    5.0753    0.0000 H   0  0  0  0  0  0  0  0  0  0  0  0
   -3.6531    5.0764    0.0000 C   0  0  0  0  0  0  0  0  0  0  0  0
   -4.9535    4.3270    0.0000 C   0  0  0  0  0  0  0  0  0  0  0  0
   -6.2520    5.0778    0.0000 O   0  0  0  0  0  0  0  0  0  0  0  0
   -7.5516    4.3287    0.0000 C   0  0  0  0  0  0  0  0  0  0  0  0
   -8.8501    5.0795    0.0000 H   0  0  0  0  0  0  0  0  0  0  0  0
   -6.5881    3.1790    0.0000 H   0  0  0  0  0  0  0  0  0  0  0  0
   -8.5165    3.1802    0.0000 H   0  0  0  0  0  0  0  0  0  0  0  0
   -3.6524    6.5764    0.0000 C   0  0  0  0  0  0  0  0  0  0  0  0
   -4.9510    7.3272    0.0000 C   0  0  0  0  0  0  0  0  0  0  0  0
   -6.2506    6.5782    0.0000 H   0  0  0  0  0  0  0  0  0  0  0  0
   -4.9495    8.8280    0.0000 C   0  0  0  0  0  0  0  0  0  0  0  0
   -6.2481    9.5789    0.0000 H   0  0  0  0  0  0  0  0  0  0  0  0
   -3.6495    9.5780    0.0000 C   0  0  0  0  0  0  0  0  0  0  0  0
   -2.3510    8.8272    0.0000 C   0  0  0  0  0  0  0  0  0  0  0  0
   -2.3524    7.3264    0.0000 C   0  0  0  0  0  0  0  0  0  0  0  0
   -1.0538    6.5755    0.0000 H   0  0  0  0  0  0  0  0  0  0  0  0
   -1.0510    9.5772    0.0000 C   0  0  0  0  0  0  0  0  0  0  0  0
    0.2476    8.8264    0.0000 H   0  0  0  0  0  0  0  0  0  0  0  0
   -1.0495   11.0780    0.0000 C   0  0  0  0  0  0  0  0  0  0  0  0
    0.2501   11.8270    0.0000 H   0  0  0  0  0  0  0  0  0  0  0  0
   -2.3481   11.8289    0.0000 C   0  0  0  0  0  0  0  0  0  0  0  0
   -3.6481   11.0789    0.0000 C   0  0  0  0  0  0  0  0  0  0  0  0
   -4.9466   11.8297    0.0000 O   0  0  0  0  0  0  0  0  0  0  0  0
   -4.9457   13.3297    0.0000 H   0  0  0  0  0  0  0  0  0  0  0  0
   -2.3474   13.3289    0.0000 N   0  0  0  0  0  0  0  0  0  0  0  0
   -3.6460   14.0795    0.0000 H   0  0  0  0  0  0  0  0  0  0  0  0
   -1.0480   14.0782    0.0000 S   0  0  0  0  0  0  0  0  0  0  0  0
    0.4294   14.3380    0.0000 O   0  0  0  0  0  0  0  0  0  0  0  0
   -0.5356   12.6685    0.0000 O   0  0  0  0  0  0  0  0  0  0  0  0
   -1.0472   15.5782    0.0000 C   0  0  0  0  0  0  0  0  0  0  0  0
    0.2522   16.3276    0.0000 H   0  0  0  0  0  0  0  0  0  0  0  0
   -2.5246   15.3185    0.0000 H   0  0  0  0  0  0  0  0  0  0  0  0
   -1.5596   16.9880    0.0000 H   0  0  0  0  0  0  0  0  0  0  0  0
   -1.0556    2.0749    0.0000 N   0  0  0  0  0  0  0  0  0  0  0  0
    0.2444    2.8249    0.0000 C   0  0  0  0  0  0  0  0  0  0  0  0
    0.2451    4.3249    0.0000 H   0  0  0  0  0  0  0  0  0  0  0  0
    1.5429    2.0741    0.0000 C   0  0  0  0  0  0  0  0  0  0  0  0
    2.8425    2.8230    0.0000 H   0  0  0  0  0  0  0  0  0  0  0  0
    1.5415    0.5733    0.0000 C   0  0  0  0  0  0  0  0  0  0  0  0
    2.8400   -0.1776    0.0000 O   0  0  0  0  0  0  0  0  0  0  0  0
    0.2415   -0.1767    0.0000 N   0  0  0  0  0  0  0  0  0  0  0  0
    0.2407   -1.6767    0.0000 H   0  0  0  0  0  0  0  0  0  0  0  0
   -1.0571    0.5741    0.0000 C   0  0  0  0  0  0  0  0  0  0  0  0
   -2.3567   -0.1749    0.0000 O   0  0  0  0  0  0  0  0  0  0  0  0
  1  2  1  0  0  0  0 
  1  3  1  0  0  0  0 
  1  4  1  0  0  0  0 
  1  5  1  0  0  0  0 
  5  6  1  0  0  0  0 
  6  7  1  0  0  0  0 
  6  8  1  0  0  0  0 
  6  9  1  0  0  0  0 
  5 10  1  0  0  0  0 
 10 11  1  0  0  0  0 
 10 12  1  0  0  0  0 
 10 13  1  0  0  0  0 
  5 14  1  0  0  0  0 
 14 15  2  0  0  0  0 
 15 16  1  0  0  0  0 
 15 17  1  0  0  0  0 
 17 18  2  0  0  0  0 
 18 19  1  0  0  0  0 
 18 20  1  0  0  0  0 
 20 21  2  0  0  0  0 
 14 21  1  0  0  0  0 
 21 22  1  0  0  0  0 
 22 23  1  0  0  0  0 
 23 24  1  0  0  0  0 
 23 25  1  0  0  0  0 
 23 26  1  0  0  0  0 
 20 27  1  0  0  0  0 
 27 28  2  0  0  0  0 
 28 29  1  0  0  0  0 
 28 30  1  0  0  0  0 
 30 31  1  0  0  0  0 
 30 32  2  0  0  0  0 
 32 33  1  0  0  0  0 
 33 34  2  0  0  0  0 
 27 34  1  0  0  0  0 
 34 35  1  0  0  0  0 
 33 36  1  0  0  0  0 
 36 37  1  0  0  0  0 
 36 38  2  0  0  0  0 
 38 39  1  0  0  0  0 
 38 40  1  0  0  0  0 
 40 41  2  0  0  0  0 
 32 41  1  0  0  0  0 
 41 42  1  0  0  0  0 
 42 43  1  0  0  0  0 
 40 44  1  0  0  0  0 
 44 45  1  0  0  0  0 
 44 46  1  0  0  0  0 
 46 47  2  0  0  0  0 
 46 48  2  0  0  0  0 
 46 49  1  0  0  0  0 
 49 50  1  0  0  0  0 
 49 51  1  0  0  0  0 
 49 52  1  0  0  0  0 
 17 53  1  0  0  0  0 
 53 54  1  0  0  0  0 
 54 55  1  0  0  0  0 
 54 56  2  0  0  0  0 
 56 57  1  0  0  0  0 
 56 58  1  0  0  0  0 
 58 59  2  0  0  0  0 
 58 60  1  0  0  0  0 
 60 61  1  0  0  0  0 
 60 62  1  0  0  0  0 
 53 62  1  0  0  0  0 
 62 63  2  0  0  0  0 
M  END
> <Rank>
14

> <Priority_score>
0.084

> <Reaction_type>
aromatic_hydroxylation_(ortho_to_2_substituents)

> <Parent_ID>
42

> <Parent_InChI>
InChI=1S/C26H27N3O5S/c1-26(2,3)22-15-20(29-11-10-23(30)27-25(29)31)14-21(24(22)34-4)18-7-6-17-13-19(28-35(5,32)33)9-8-16(17)12-18/h6-15,28H,1-5H3,(H,27,30,31)

> <Parent_SMILES>
COc1c(-c2ccc3cc(NS(C)(=O)=O)ccc3c2)cc(-n2ccc(=O)[nH]c2=O)cc1C(C)(C)C

$$$$
Molecule 42_metabolite 15
  CDK     0516241031

 63 66  0  0  0  0  0  0  0  0999 V2000
   -7.8206    5.1307    0.0000 C   0  0  0  0  0  0  0  0  0  0  0  0
   -7.8199    6.6307    0.0000 H   0  0  0  0  0  0  0  0  0  0  0  0
   -9.2977    5.3918    0.0000 H   0  0  0  0  0  0  0  0  0  0  0  0
   -8.3343    3.7214    0.0000 H   0  0  0  0  0  0  0  0  0  0  0  0
   -6.5219    4.3800    0.0000 C   0  0  0  0  0  0  0  0  0  0  0  0
   -5.0449    4.1189    0.0000 C   0  0  0  0  0  0  0  0  0  0  0  0
   -4.5325    2.7091    0.0000 H   0  0  0  0  0  0  0  0  0  0  0  0
   -5.0441    5.6189    0.0000 H   0  0  0  0  0  0  0  0  0  0  0  0
   -3.5675    4.3786    0.0000 H   0  0  0  0  0  0  0  0  0  0  0  0
   -5.5151    7.1422    0.0000 C   0  0  0  0  0  0  0  0  0  0  0  0
   -6.4787    8.2918    0.0000 H   0  0  0  0  0  0  0  0  0  0  0  0
   -4.2164    6.3916    0.0000 H   0  0  0  0  0  0  0  0  0  0  0  0
   -4.5503    8.2909    0.0000 H   0  0  0  0  0  0  0  0  0  0  0  0
   -6.5231    1.9200    0.0000 C   0  0  0  0  0  0  0  0  0  0  0  0
   -7.8231    1.1700    0.0000 C   0  0  0  0  0  0  0  0  0  0  0  0
   -7.8246   -0.3308    0.0000 C   0  0  0  0  0  0  0  0  0  0  0  0
   -6.5260   -1.0816    0.0000 C   0  0  0  0  0  0  0  0  0  0  0  0
   -6.5267   -2.5816    0.0000 H   0  0  0  0  0  0  0  0  0  0  0  0
   -5.2260   -0.3316    0.0000 C   0  0  0  0  0  0  0  0  0  0  0  0
   -5.2246    1.1692    0.0000 C   0  0  0  0  0  0  0  0  0  0  0  0
   -3.0932    2.3975    0.0000 H   0  0  0  0  0  0  0  0  0  0  0  0
   -3.9275   -1.0825    0.0000 N   0  0  0  0  0  0  0  0  0  0  0  0
   -2.6275   -0.3325    0.0000 C   0  0  0  0  0  0  0  0  0  0  0  0
   -2.6267    1.1675    0.0000 H   0  0  0  0  0  0  0  0  0  0  0  0
   -1.3289   -1.0833    0.0000 C   0  0  0  0  0  0  0  0  0  0  0  0
   -0.0293   -0.3343    0.0000 H   0  0  0  0  0  0  0  0  0  0  0  0
   -1.3303   -2.5841    0.0000 C   0  0  0  0  0  0  0  0  0  0  0  0
   -0.0318   -3.3350    0.0000 O   0  0  0  0  0  0  0  0  0  0  0  0
   -2.6303   -3.3341    0.0000 N   0  0  0  0  0  0  0  0  0  0  0  0
   -2.6311   -4.8341    0.0000 H   0  0  0  0  0  0  0  0  0  0  0  0
   -3.9289   -2.5833    0.0000 C   0  0  0  0  0  0  0  0  0  0  0  0
   -5.2285   -3.3323    0.0000 O   0  0  0  0  0  0  0  0  0  0  0  0
   -9.1242   -1.0798    0.0000 C   0  0  0  0  0  0  0  0  0  0  0  0
  -10.4235   -0.3285    0.0000 C   0  0  0  0  0  0  0  0  0  0  0  0
  -10.4220    1.1715    0.0000 H   0  0  0  0  0  0  0  0  0  0  0  0
  -11.7242   -1.0773    0.0000 C   0  0  0  0  0  0  0  0  0  0  0  0
  -13.0235   -0.3260    0.0000 C   0  0  0  0  0  0  0  0  0  0  0  0
  -13.0220    1.1740    0.0000 H   0  0  0  0  0  0  0  0  0  0  0  0
  -14.3242   -1.0748    0.0000 C   0  0  0  0  0  0  0  0  0  0  0  0
  -15.6224   -0.3233    0.0000 H   0  0  0  0  0  0  0  0  0  0  0  0
  -14.3256   -2.5748    0.0000 C   0  0  0  0  0  0  0  0  0  0  0  0
  -13.0264   -3.3260    0.0000 C   0  0  0  0  0  0  0  0  0  0  0  0
  -13.0278   -4.8260    0.0000 H   0  0  0  0  0  0  0  0  0  0  0  0
  -11.7256   -2.5773    0.0000 C   0  0  0  0  0  0  0  0  0  0  0  0
  -10.4264   -3.3285    0.0000 C   0  0  0  0  0  0  0  0  0  0  0  0
  -10.4278   -4.8285    0.0000 H   0  0  0  0  0  0  0  0  0  0  0  0
   -9.1256   -2.5798    0.0000 C   0  0  0  0  0  0  0  0  0  0  0  0
   -7.8275   -3.3312    0.0000 H   0  0  0  0  0  0  0  0  0  0  0  0
  -15.6253   -3.3237    0.0000 N   0  0  0  0  0  0  0  0  0  0  0  0
  -15.6265   -4.8237    0.0000 O   0  0  0  0  0  0  0  0  0  0  0  0
  -16.9261   -5.5727    0.0000 H   0  0  0  0  0  0  0  0  0  0  0  0
  -16.9237   -2.5727    0.0000 S   0  0  0  0  0  0  0  0  0  0  0  0
  -17.8870   -1.4228    0.0000 O   0  0  0  0  0  0  0  0  0  0  0  0
  -15.9586   -1.4244    0.0000 O   0  0  0  0  0  0  0  0  0  0  0  0
  -18.2234   -3.3216    0.0000 C   0  0  0  0  0  0  0  0  0  0  0  0
  -19.5218   -2.5706    0.0000 H   0  0  0  0  0  0  0  0  0  0  0  0
  -17.2601   -4.4715    0.0000 H   0  0  0  0  0  0  0  0  0  0  0  0
  -19.1885   -4.4699    0.0000 H   0  0  0  0  0  0  0  0  0  0  0  0
   -9.1217    1.9209    0.0000 O   0  0  0  0  0  0  0  0  0  0  0  0
   -9.1207    3.4209    0.0000 C   0  0  0  0  0  0  0  0  0  0  0  0
  -10.4193    4.1717    0.0000 H   0  0  0  0  0  0  0  0  0  0  0  0
   -8.6068    4.8301    0.0000 H   0  0  0  0  0  0  0  0  0  0  0  0
   -7.6437    3.1594    0.0000 H   0  0  0  0  0  0  0  0  0  0  0  0
  1  2  1  0  0  0  0 
  1  3  1  0  0  0  0 
  1  4  1  0  0  0  0 
  1  5  1  0  0  0  0 
  5  6  1  0  0  0  0 
  6  7  1  0  0  0  0 
  6  8  1  0  0  0  0 
  6  9  1  0  0  0  0 
  5 10  1  0  0  0  0 
 10 11  1  0  0  0  0 
 10 12  1  0  0  0  0 
 10 13  1  0  0  0  0 
  5 14  1  0  0  0  0 
 14 15  2  0  0  0  0 
 15 16  1  0  0  0  0 
 16 17  2  0  0  0  0 
 17 18  1  0  0  0  0 
 17 19  1  0  0  0  0 
 19 20  2  0  0  0  0 
 14 20  1  0  0  0  0 
 20 21  1  0  0  0  0 
 19 22  1  0  0  0  0 
 22 23  1  0  0  0  0 
 23 24  1  0  0  0  0 
 23 25  2  0  0  0  0 
 25 26  1  0  0  0  0 
 25 27  1  0  0  0  0 
 27 28  2  0  0  0  0 
 27 29  1  0  0  0  0 
 29 30  1  0  0  0  0 
 29 31  1  0  0  0  0 
 22 31  1  0  0  0  0 
 31 32  2  0  0  0  0 
 16 33  1  0  0  0  0 
 33 34  2  0  0  0  0 
 34 35  1  0  0  0  0 
 34 36  1  0  0  0  0 
 36 37  2  0  0  0  0 
 37 38  1  0  0  0  0 
 37 39  1  0  0  0  0 
 39 40  1  0  0  0  0 
 39 41  2  0  0  0  0 
 41 42  1  0  0  0  0 
 42 43  1  0  0  0  0 
 42 44  2  0  0  0  0 
 36 44  1  0  0  0  0 
 44 45  1  0  0  0  0 
 45 46  1  0  0  0  0 
 45 47  2  0  0  0  0 
 33 47  1  0  0  0  0 
 47 48  1  0  0  0  0 
 41 49  1  0  0  0  0 
 49 50  1  0  0  0  0 
 50 51  1  0  0  0  0 
 49 52  1  0  0  0  0 
 52 53  2  0  0  0  0 
 52 54  2  0  0  0  0 
 52 55  1  0  0  0  0 
 55 56  1  0  0  0  0 
 55 57  1  0  0  0  0 
 55 58  1  0  0  0  0 
 15 59  1  0  0  0  0 
 59 60  1  0  0  0  0 
 60 61  1  0  0  0  0 
 60 62  1  0  0  0  0 
 60 63  1  0  0  0  0 
M  END
> <Rank>
14

> <Priority_score>
0.084

> <Reaction_type>
amine hydroxylation

> <Parent_ID>
42

> <Parent_InChI>
InChI=1S/C26H27N3O5S/c1-26(2,3)22-15-20(29-11-10-23(30)27-25(29)31)14-21(24(22)34-4)18-7-6-17-13-19(28-35(5,32)33)9-8-16(17)12-18/h6-15,28H,1-5H3,(H,27,30,31)

> <Parent_SMILES>
COc1c(-c2ccc3cc(NS(C)(=O)=O)ccc3c2)cc(-n2ccc(=O)[nH]c2=O)cc1C(C)(C)C

$$$$
Molecule 42_metabolite 16
  CDK     0516241031

 63 66  0  0  0  0  0  0  0  0999 V2000
   -8.3838    2.3481    0.0000 C   0  0  0  0  0  0  0  0  0  0  0  0
   -9.6831    1.5985    0.0000 H   0  0  0  0  0  0  0  0  0  0  0  0
   -7.4193    3.4969    0.0000 H   0  0  0  0  0  0  0  0  0  0  0  0
   -9.9645    4.2331    0.0000 H   0  0  0  0  0  0  0  0  0  0  0  0
   -7.0850    1.5977    0.0000 C   0  0  0  0  0  0  0  0  0  0  0  0
   -8.9755   -0.6539    0.0000 C   0  0  0  0  0  0  0  0  0  0  0  0
  -10.4527   -0.3929    0.0000 H   0  0  0  0  0  0  0  0  0  0  0  0
   -9.4890   -2.0633    0.0000 H   0  0  0  0  0  0  0  0  0  0  0  0
   -7.6767   -1.4043    0.0000 H   0  0  0  0  0  0  0  0  0  0  0  0
   -6.1212    0.4483    0.0000 C   0  0  0  0  0  0  0  0  0  0  0  0
   -4.6439    0.7083    0.0000 H   0  0  0  0  0  0  0  0  0  0  0  0
   -5.6086   -0.9614    0.0000 H   0  0  0  0  0  0  0  0  0  0  0  0
   -7.4205   -0.3013    0.0000 H   0  0  0  0  0  0  0  0  0  0  0  0
   -4.9542    2.8270    0.0000 C   0  0  0  0  0  0  0  0  0  0  0  0
   -3.6546    2.0764    0.0000 C   0  0  0  0  0  0  0  0  0  0  0  0
   -3.6557   -0.3836    0.0000 H   0  0  0  0  0  0  0  0  0  0  0  0
   -2.3542    2.8257    0.0000 C   0  0  0  0  0  0  0  0  0  0  0  0
   -2.3535    4.3257    0.0000 C   0  0  0  0  0  0  0  0  0  0  0  0
   -1.0542    5.0753    0.0000 H   0  0  0  0  0  0  0  0  0  0  0  0
   -3.6531    5.0764    0.0000 C   0  0  0  0  0  0  0  0  0  0  0  0
   -4.9535    4.3270    0.0000 C   0  0  0  0  0  0  0  0  0  0  0  0
   -6.2520    5.0778    0.0000 O   0  0  0  0  0  0  0  0  0  0  0  0
   -7.5516    4.3287    0.0000 C   0  0  0  0  0  0  0  0  0  0  0  0
   -8.8501    5.0795    0.0000 H   0  0  0  0  0  0  0  0  0  0  0  0
   -6.5881    3.1790    0.0000 H   0  0  0  0  0  0  0  0  0  0  0  0
   -8.5165    3.1802    0.0000 H   0  0  0  0  0  0  0  0  0  0  0  0
   -3.6524    6.5764    0.0000 C   0  0  0  0  0  0  0  0  0  0  0  0
   -2.3524    7.3264    0.0000 C   0  0  0  0  0  0  0  0  0  0  0  0
   -1.0538    6.5755    0.0000 H   0  0  0  0  0  0  0  0  0  0  0  0
   -2.3510    8.8272    0.0000 C   0  0  0  0  0  0  0  0  0  0  0  0
   -1.0510    9.5772    0.0000 C   0  0  0  0  0  0  0  0  0  0  0  0
    0.2476    8.8264    0.0000 H   0  0  0  0  0  0  0  0  0  0  0  0
   -1.0495   11.0780    0.0000 C   0  0  0  0  0  0  0  0  0  0  0  0
    0.2501   11.8270    0.0000 H   0  0  0  0  0  0  0  0  0  0  0  0
   -2.3481   11.8289    0.0000 C   0  0  0  0  0  0  0  0  0  0  0  0
   -3.6481   11.0789    0.0000 C   0  0  0  0  0  0  0  0  0  0  0  0
   -4.9466   11.8297    0.0000 H   0  0  0  0  0  0  0  0  0  0  0  0
   -3.6495    9.5780    0.0000 C   0  0  0  0  0  0  0  0  0  0  0  0
   -4.9495    8.8280    0.0000 C   0  0  0  0  0  0  0  0  0  0  0  0
   -6.2481    9.5789    0.0000 H   0  0  0  0  0  0  0  0  0  0  0  0
   -4.9510    7.3272    0.0000 C   0  0  0  0  0  0  0  0  0  0  0  0
   -6.2506    6.5782    0.0000 O   0  0  0  0  0  0  0  0  0  0  0  0
   -7.5490    7.3293    0.0000 H   0  0  0  0  0  0  0  0  0  0  0  0
   -2.3474   13.3289    0.0000 N   0  0  0  0  0  0  0  0  0  0  0  0
   -3.6460   14.0795    0.0000 H   0  0  0  0  0  0  0  0  0  0  0  0
   -1.0480   14.0782    0.0000 S   0  0  0  0  0  0  0  0  0  0  0  0
    0.4294   14.3380    0.0000 O   0  0  0  0  0  0  0  0  0  0  0  0
   -0.5356   12.6685    0.0000 O   0  0  0  0  0  0  0  0  0  0  0  0
   -1.0472   15.5782    0.0000 C   0  0  0  0  0  0  0  0  0  0  0  0
    0.2522   16.3276    0.0000 H   0  0  0  0  0  0  0  0  0  0  0  0
   -2.5246   15.3185    0.0000 H   0  0  0  0  0  0  0  0  0  0  0  0
   -1.5596   16.9880    0.0000 H   0  0  0  0  0  0  0  0  0  0  0  0
   -1.0556    2.0749    0.0000 N   0  0  0  0  0  0  0  0  0  0  0  0
    0.2444    2.8249    0.0000 C   0  0  0  0  0  0  0  0  0  0  0  0
    0.2451    4.3249    0.0000 H   0  0  0  0  0  0  0  0  0  0  0  0
    1.5429    2.0741    0.0000 C   0  0  0  0  0  0  0  0  0  0  0  0
    2.8425    2.8230    0.0000 H   0  0  0  0  0  0  0  0  0  0  0  0
    1.5415    0.5733    0.0000 C   0  0  0  0  0  0  0  0  0  0  0  0
    2.8400   -0.1776    0.0000 O   0  0  0  0  0  0  0  0  0  0  0  0
    0.2415   -0.1767    0.0000 N   0  0  0  0  0  0  0  0  0  0  0  0
    0.2407   -1.6767    0.0000 H   0  0  0  0  0  0  0  0  0  0  0  0
   -1.0571    0.5741    0.0000 C   0  0  0  0  0  0  0  0  0  0  0  0
   -2.3567   -0.1749    0.0000 O   0  0  0  0  0  0  0  0  0  0  0  0
  1  2  1  0  0  0  0 
  1  3  1  0  0  0  0 
  1  4  1  0  0  0  0 
  1  5  1  0  0  0  0 
  5  6  1  0  0  0  0 
  6  7  1  0  0  0  0 
  6  8  1  0  0  0  0 
  6  9  1  0  0  0  0 
  5 10  1  0  0  0  0 
 10 11  1  0  0  0  0 
 10 12  1  0  0  0  0 
 10 13  1  0  0  0  0 
  5 14  1  0  0  0  0 
 14 15  2  0  0  0  0 
 15 16  1  0  0  0  0 
 15 17  1  0  0  0  0 
 17 18  2  0  0  0  0 
 18 19  1  0  0  0  0 
 18 20  1  0  0  0  0 
 20 21  2  0  0  0  0 
 14 21  1  0  0  0  0 
 21 22  1  0  0  0  0 
 22 23  1  0  0  0  0 
 23 24  1  0  0  0  0 
 23 25  1  0  0  0  0 
 23 26  1  0  0  0  0 
 20 27  1  0  0  0  0 
 27 28  2  0  0  0  0 
 28 29  1  0  0  0  0 
 28 30  1  0  0  0  0 
 30 31  2  0  0  0  0 
 31 32  1  0  0  0  0 
 31 33  1  0  0  0  0 
 33 34  1  0  0  0  0 
 33 35  2  0  0  0  0 
 35 36  1  0  0  0  0 
 36 37  1  0  0  0  0 
 36 38  2  0  0  0  0 
 30 38  1  0  0  0  0 
 38 39  1  0  0  0  0 
 39 40  1  0  0  0  0 
 39 41  2  0  0  0  0 
 27 41  1  0  0  0  0 
 41 42  1  0  0  0  0 
 42 43  1  0  0  0  0 
 35 44  1  0  0  0  0 
 44 45  1  0  0  0  0 
 44 46  1  0  0  0  0 
 46 47  2  0  0  0  0 
 46 48  2  0  0  0  0 
 46 49  1  0  0  0  0 
 49 50  1  0  0  0  0 
 49 51  1  0  0  0  0 
 49 52  1  0  0  0  0 
 17 53  1  0  0  0  0 
 53 54  1  0  0  0  0 
 54 55  1  0  0  0  0 
 54 56  2  0  0  0  0 
 56 57  1  0  0  0  0 
 56 58  1  0  0  0  0 
 58 59  2  0  0  0  0 
 58 60  1  0  0  0  0 
 60 61  1  0  0  0  0 
 60 62  1  0  0  0  0 
 53 62  1  0  0  0  0 
 62 63  2  0  0  0  0 
M  END
> <Rank>
16

> <Priority_score>
0.055840808591282376

> <Reaction_type>
aromatic_hydroxylation_(para_to_carbon)

> <Parent_ID>
42

> <Parent_InChI>
InChI=1S/C26H27N3O5S/c1-26(2,3)22-15-20(29-11-10-23(30)27-25(29)31)14-21(24(22)34-4)18-7-6-17-13-19(28-35(5,32)33)9-8-16(17)12-18/h6-15,28H,1-5H3,(H,27,30,31)

> <Parent_SMILES>
COc1c(-c2ccc3cc(NS(C)(=O)=O)ccc3c2)cc(-n2ccc(=O)[nH]c2=O)cc1C(C)(C)C

$$$$
Molecule 42_metabolite 17
  CDK     0516241031

 63 66  0  0  0  0  0  0  0  0999 V2000
   -7.8206    5.1307    0.0000 C   0  0  0  0  0  0  0  0  0  0  0  0
   -7.8199    6.6307    0.0000 H   0  0  0  0  0  0  0  0  0  0  0  0
   -9.2977    5.3918    0.0000 H   0  0  0  0  0  0  0  0  0  0  0  0
   -8.3343    3.7214    0.0000 H   0  0  0  0  0  0  0  0  0  0  0  0
   -6.5219    4.3800    0.0000 C   0  0  0  0  0  0  0  0  0  0  0  0
   -5.0449    4.1189    0.0000 C   0  0  0  0  0  0  0  0  0  0  0  0
   -4.5325    2.7091    0.0000 H   0  0  0  0  0  0  0  0  0  0  0  0
   -5.0441    5.6189    0.0000 H   0  0  0  0  0  0  0  0  0  0  0  0
   -3.5675    4.3786    0.0000 H   0  0  0  0  0  0  0  0  0  0  0  0
   -5.5151    7.1422    0.0000 C   0  0  0  0  0  0  0  0  0  0  0  0
   -6.4787    8.2918    0.0000 H   0  0  0  0  0  0  0  0  0  0  0  0
   -4.2164    6.3916    0.0000 H   0  0  0  0  0  0  0  0  0  0  0  0
   -4.5503    8.2909    0.0000 H   0  0  0  0  0  0  0  0  0  0  0  0
   -6.5231    1.9200    0.0000 C   0  0  0  0  0  0  0  0  0  0  0  0
   -7.8231    1.1700    0.0000 C   0  0  0  0  0  0  0  0  0  0  0  0
   -7.8246   -0.3308    0.0000 C   0  0  0  0  0  0  0  0  0  0  0  0
   -6.5260   -1.0816    0.0000 C   0  0  0  0  0  0  0  0  0  0  0  0
   -6.5267   -2.5816    0.0000 H   0  0  0  0  0  0  0  0  0  0  0  0
   -5.2260   -0.3316    0.0000 C   0  0  0  0  0  0  0  0  0  0  0  0
   -5.2246    1.1692    0.0000 C   0  0  0  0  0  0  0  0  0  0  0  0
   -3.0932    2.3975    0.0000 H   0  0  0  0  0  0  0  0  0  0  0  0
   -3.9275   -1.0825    0.0000 N   0  0  0  0  0  0  0  0  0  0  0  0
   -2.6275   -0.3325    0.0000 C   0  0  0  0  0  0  0  0  0  0  0  0
   -2.6267    1.1675    0.0000 H   0  0  0  0  0  0  0  0  0  0  0  0
   -1.3289   -1.0833    0.0000 C   0  0  0  0  0  0  0  0  0  0  0  0
   -0.0293   -0.3343    0.0000 H   0  0  0  0  0  0  0  0  0  0  0  0
   -1.3303   -2.5841    0.0000 C   0  0  0  0  0  0  0  0  0  0  0  0
   -0.0318   -3.3350    0.0000 O   0  0  0  0  0  0  0  0  0  0  0  0
   -2.6303   -3.3341    0.0000 N   0  0  0  0  0  0  0  0  0  0  0  0
   -2.6311   -4.8341    0.0000 H   0  0  0  0  0  0  0  0  0  0  0  0
   -3.9289   -2.5833    0.0000 C   0  0  0  0  0  0  0  0  0  0  0  0
   -5.2285   -3.3323    0.0000 O   0  0  0  0  0  0  0  0  0  0  0  0
   -9.1242   -1.0798    0.0000 C   0  0  0  0  0  0  0  0  0  0  0  0
  -10.4235   -0.3285    0.0000 C   0  0  0  0  0  0  0  0  0  0  0  0
  -11.7242   -1.0773    0.0000 C   0  0  0  0  0  0  0  0  0  0  0  0
  -13.0235   -0.3260    0.0000 C   0  0  0  0  0  0  0  0  0  0  0  0
  -13.0220    1.1740    0.0000 H   0  0  0  0  0  0  0  0  0  0  0  0
  -14.3242   -1.0748    0.0000 C   0  0  0  0  0  0  0  0  0  0  0  0
  -15.6224   -0.3233    0.0000 H   0  0  0  0  0  0  0  0  0  0  0  0
  -14.3256   -2.5748    0.0000 C   0  0  0  0  0  0  0  0  0  0  0  0
  -13.0264   -3.3260    0.0000 C   0  0  0  0  0  0  0  0  0  0  0  0
  -13.0278   -4.8260    0.0000 H   0  0  0  0  0  0  0  0  0  0  0  0
  -11.7256   -2.5773    0.0000 C   0  0  0  0  0  0  0  0  0  0  0  0
  -10.4264   -3.3285    0.0000 C   0  0  0  0  0  0  0  0  0  0  0  0
  -10.4278   -4.8285    0.0000 H   0  0  0  0  0  0  0  0  0  0  0  0
   -9.1256   -2.5798    0.0000 C   0  0  0  0  0  0  0  0  0  0  0  0
   -7.8275   -3.3312    0.0000 H   0  0  0  0  0  0  0  0  0  0  0  0
  -15.6253   -3.3237    0.0000 N   0  0  0  0  0  0  0  0  0  0  0  0
  -15.6265   -4.8237    0.0000 H   0  0  0  0  0  0  0  0  0  0  0  0
  -16.9237   -2.5727    0.0000 S   0  0  0  0  0  0  0  0  0  0  0  0
  -17.8870   -1.4228    0.0000 O   0  0  0  0  0  0  0  0  0  0  0  0
  -15.9586   -1.4244    0.0000 O   0  0  0  0  0  0  0  0  0  0  0  0
  -18.2234   -3.3216    0.0000 C   0  0  0  0  0  0  0  0  0  0  0  0
  -19.5218   -2.5706    0.0000 H   0  0  0  0  0  0  0  0  0  0  0  0
  -17.2601   -4.4715    0.0000 H   0  0  0  0  0  0  0  0  0  0  0  0
  -19.1885   -4.4699    0.0000 H   0  0  0  0  0  0  0  0  0  0  0  0
  -10.4220    1.1715    0.0000 O   0  0  0  0  0  0  0  0  0  0  0  0
  -11.7204    1.9227    0.0000 H   0  0  0  0  0  0  0  0  0  0  0  0
   -9.1217    1.9209    0.0000 O   0  0  0  0  0  0  0  0  0  0  0  0
   -9.1207    3.4209    0.0000 C   0  0  0  0  0  0  0  0  0  0  0  0
  -10.4193    4.1717    0.0000 H   0  0  0  0  0  0  0  0  0  0  0  0
   -8.6068    4.8301    0.0000 H   0  0  0  0  0  0  0  0  0  0  0  0
   -7.6437    3.1594    0.0000 H   0  0  0  0  0  0  0  0  0  0  0  0
  1  2  1  0  0  0  0 
  1  3  1  0  0  0  0 
  1  4  1  0  0  0  0 
  1  5  1  0  0  0  0 
  5  6  1  0  0  0  0 
  6  7  1  0  0  0  0 
  6  8  1  0  0  0  0 
  6  9  1  0  0  0  0 
  5 10  1  0  0  0  0 
 10 11  1  0  0  0  0 
 10 12  1  0  0  0  0 
 10 13  1  0  0  0  0 
  5 14  1  0  0  0  0 
 14 15  2  0  0  0  0 
 15 16  1  0  0  0  0 
 16 17  2  0  0  0  0 
 17 18  1  0  0  0  0 
 17 19  1  0  0  0  0 
 19 20  2  0  0  0  0 
 14 20  1  0  0  0  0 
 20 21  1  0  0  0  0 
 19 22  1  0  0  0  0 
 22 23  1  0  0  0  0 
 23 24  1  0  0  0  0 
 23 25  2  0  0  0  0 
 25 26  1  0  0  0  0 
 25 27  1  0  0  0  0 
 27 28  2  0  0  0  0 
 27 29  1  0  0  0  0 
 29 30  1  0  0  0  0 
 29 31  1  0  0  0  0 
 22 31  1  0  0  0  0 
 31 32  2  0  0  0  0 
 16 33  1  0  0  0  0 
 33 34  2  0  0  0  0 
 34 35  1  0  0  0  0 
 35 36  2  0  0  0  0 
 36 37  1  0  0  0  0 
 36 38  1  0  0  0  0 
 38 39  1  0  0  0  0 
 38 40  2  0  0  0  0 
 40 41  1  0  0  0  0 
 41 42  1  0  0  0  0 
 41 43  2  0  0  0  0 
 35 43  1  0  0  0  0 
 43 44  1  0  0  0  0 
 44 45  1  0  0  0  0 
 44 46  2  0  0  0  0 
 33 46  1  0  0  0  0 
 46 47  1  0  0  0  0 
 40 48  1  0  0  0  0 
 48 49  1  0  0  0  0 
 48 50  1  0  0  0  0 
 50 51  2  0  0  0  0 
 50 52  2  0  0  0  0 
 50 53  1  0  0  0  0 
 53 54  1  0  0  0  0 
 53 55  1  0  0  0  0 
 53 56  1  0  0  0  0 
 34 57  1  0  0  0  0 
 57 58  1  0  0  0  0 
 15 59  1  0  0  0  0 
 59 60  1  0  0  0  0 
 60 61  1  0  0  0  0 
 60 62  1  0  0  0  0 
 60 63  1  0  0  0  0 
M  END
> <Rank>
16

> <Priority_score>
0.055840808591282376

> <Reaction_type>
aromatic_hydroxylation_(ortho_to_2_substituents)

> <Parent_ID>
42

> <Parent_InChI>
InChI=1S/C26H27N3O5S/c1-26(2,3)22-15-20(29-11-10-23(30)27-25(29)31)14-21(24(22)34-4)18-7-6-17-13-19(28-35(5,32)33)9-8-16(17)12-18/h6-15,28H,1-5H3,(H,27,30,31)

> <Parent_SMILES>
COc1c(-c2ccc3cc(NS(C)(=O)=O)ccc3c2)cc(-n2ccc(=O)[nH]c2=O)cc1C(C)(C)C

$$$$
Molecule 42_metabolite 18
  CDK     0516241031

 48 50  0  0  0  0  0  0  0  0999 V2000
   -8.5854    2.3636    0.0000 C   0  0  0  0  0  0  0  0  0  0  0  0
   -9.8846    1.6140    0.0000 H   0  0  0  0  0  0  0  0  0  0  0  0
   -7.6208    3.5123    0.0000 H   0  0  0  0  0  0  0  0  0  0  0  0
   -9.5492    3.5129    0.0000 H   0  0  0  0  0  0  0  0  0  0  0  0
   -7.2866    1.6131    0.0000 C   0  0  0  0  0  0  0  0  0  0  0  0
   -9.1771   -0.6384    0.0000 C   0  0  0  0  0  0  0  0  0  0  0  0
  -10.6542   -0.3775    0.0000 H   0  0  0  0  0  0  0  0  0  0  0  0
   -9.6906   -2.0478    0.0000 H   0  0  0  0  0  0  0  0  0  0  0  0
   -7.8783   -1.3888    0.0000 H   0  0  0  0  0  0  0  0  0  0  0  0
   -6.3227    0.4638    0.0000 C   0  0  0  0  0  0  0  0  0  0  0  0
   -4.8454    0.7238    0.0000 H   0  0  0  0  0  0  0  0  0  0  0  0
   -5.8102   -0.9459    0.0000 H   0  0  0  0  0  0  0  0  0  0  0  0
   -8.3027    0.4644    0.0000 H   0  0  0  0  0  0  0  0  0  0  0  0
   -5.1557    2.8425    0.0000 C   0  0  0  0  0  0  0  0  0  0  0  0
   -5.1550    4.3433    0.0000 C   0  0  0  0  0  0  0  0  0  0  0  0
   -6.4539    5.0935    0.0000 H   0  0  0  0  0  0  0  0  0  0  0  0
   -3.8554    5.0939    0.0000 C   0  0  0  0  0  0  0  0  0  0  0  0
   -3.8554    6.5939    0.0000 O   0  0  0  0  0  0  0  0  0  0  0  0
   -2.5565    4.3437    0.0000 C   0  0  0  0  0  0  0  0  0  0  0  0
   -1.2572    5.0933    0.0000 H   0  0  0  0  0  0  0  0  0  0  0  0
   -2.5572    2.8429    0.0000 C   0  0  0  0  0  0  0  0  0  0  0  0
   -1.2583    2.0927    0.0000 C   0  0  0  0  0  0  0  0  0  0  0  0
    0.0417    2.8427    0.0000 C   0  0  0  0  0  0  0  0  0  0  0  0
    0.0417    4.3427    0.0000 H   0  0  0  0  0  0  0  0  0  0  0  0
    1.3417    2.0927    0.0000 C   0  0  0  0  0  0  0  0  0  0  0  0
    1.3417    0.5927    0.0000 C   0  0  0  0  0  0  0  0  0  0  0  0
    0.0417   -0.1573    0.0000 C   0  0  0  0  0  0  0  0  0  0  0  0
    0.0417   -1.6573    0.0000 H   0  0  0  0  0  0  0  0  0  0  0  0
   -1.2583    0.5927    0.0000 C   0  0  0  0  0  0  0  0  0  0  0  0
   -2.5572   -0.1575    0.0000 H   0  0  0  0  0  0  0  0  0  0  0  0
    2.6417   -0.1573    0.0000 C   0  0  0  0  0  0  0  0  0  0  0  0
    2.6417   -1.6573    0.0000 H   0  0  0  0  0  0  0  0  0  0  0  0
    3.9417    0.5927    0.0000 C   0  0  0  0  0  0  0  0  0  0  0  0
    3.9417    2.0927    0.0000 C   0  0  0  0  0  0  0  0  0  0  0  0
    5.2407    2.8429    0.0000 H   0  0  0  0  0  0  0  0  0  0  0  0
    2.6417    2.8427    0.0000 C   0  0  0  0  0  0  0  0  0  0  0  0
    2.6417    4.3427    0.0000 H   0  0  0  0  0  0  0  0  0  0  0  0
    5.2407   -0.1575    0.0000 N   0  0  0  0  0  0  0  0  0  0  0  0
    5.2404   -1.6575    0.0000 H   0  0  0  0  0  0  0  0  0  0  0  0
    6.5398    0.5923    0.0000 S   0  0  0  0  0  0  0  0  0  0  0  0
    7.5042    1.7412    0.0000 O   0  0  0  0  0  0  0  0  0  0  0  0
    5.5758    1.7415    0.0000 O   0  0  0  0  0  0  0  0  0  0  0  0
    7.8387   -0.1580    0.0000 C   0  0  0  0  0  0  0  0  0  0  0  0
    9.1379    0.5918    0.0000 H   0  0  0  0  0  0  0  0  0  0  0  0
    6.8744   -1.3069    0.0000 H   0  0  0  0  0  0  0  0  0  0  0  0
    8.8027   -1.3072    0.0000 H   0  0  0  0  0  0  0  0  0  0  0  0
   -3.8568    2.0923    0.0000 C   0  0  0  0  0  0  0  0  0  0  0  0
   -3.8568    0.5923    0.0000 O   0  0  0  0  0  0  0  0  0  0  0  0
  1  2  1  0  0  0  0 
  1  3  1  0  0  0  0 
  1  4  1  0  0  0  0 
  1  5  1  0  0  0  0 
  5  6  1  0  0  0  0 
  6  7  1  0  0  0  0 
  6  8  1  0  0  0  0 
  6  9  1  0  0  0  0 
  5 10  1  0  0  0  0 
 10 11  1  0  0  0  0 
 10 12  1  0  0  0  0 
 10 13  1  0  0  0  0 
  5 14  1  0  0  0  0 
 14 15  2  0  0  0  0 
 15 16  1  0  0  0  0 
 15 17  1  0  0  0  0 
 17 18  2  0  0  0  0 
 17 19  1  0  0  0  0 
 19 20  1  0  0  0  0 
 19 21  2  0  0  0  0 
 21 22  1  0  0  0  0 
 22 23  2  0  0  0  0 
 23 24  1  0  0  0  0 
 23 25  1  0  0  0  0 
 25 26  2  0  0  0  0 
 26 27  1  0  0  0  0 
 27 28  1  0  0  0  0 
 27 29  2  0  0  0  0 
 22 29  1  0  0  0  0 
 29 30  1  0  0  0  0 
 26 31  1  0  0  0  0 
 31 32  1  0  0  0  0 
 31 33  2  0  0  0  0 
 33 34  1  0  0  0  0 
 34 35  1  0  0  0  0 
 34 36  2  0  0  0  0 
 25 36  1  0  0  0  0 
 36 37  1  0  0  0  0 
 33 38  1  0  0  0  0 
 38 39  1  0  0  0  0 
 38 40  1  0  0  0  0 
 40 41  2  0  0  0  0 
 40 42  2  0  0  0  0 
 40 43  1  0  0  0  0 
 43 44  1  0  0  0  0 
 43 45  1  0  0  0  0 
 43 46  1  0  0  0  0 
 21 47  1  0  0  0  0 
 14 47  1  0  0  0  0 
 47 48  2  0  0  0  0 
M  END
> <Rank>
18

> <Priority_score>
0.05280000000000001

> <Reaction_type>
oxidation of 4-substituted anisole to quinone

> <Parent_ID>
42

> <Parent_InChI>
InChI=1S/C26H27N3O5S/c1-26(2,3)22-15-20(29-11-10-23(30)27-25(29)31)14-21(24(22)34-4)18-7-6-17-13-19(28-35(5,32)33)9-8-16(17)12-18/h6-15,28H,1-5H3,(H,27,30,31)

> <Parent_SMILES>
COc1c(-c2ccc3cc(NS(C)(=O)=O)ccc3c2)cc(-n2ccc(=O)[nH]c2=O)cc1C(C)(C)C

$$$$
Molecule 42_metabolite 19
  CDK     0516241031

 12 12  0  0  0  0  0  0  0  0999 V2000
    0.3280   -1.6860    0.0000 C   0  0  0  0  0  0  0  0  0  0  0  0
    0.3257   -3.1860    0.0000 H   0  0  0  0  0  0  0  0  0  0  0  0
   -0.9711   -0.9360    0.0000 C   0  0  0  0  0  0  0  0  0  0  0  0
   -2.2690   -1.6879    0.0000 H   0  0  0  0  0  0  0  0  0  0  0  0
   -0.9756    0.5562    0.0000 N   0  0  0  0  0  0  0  0  0  0  0  0
   -2.2759    1.3040    0.0000 H   0  0  0  0  0  0  0  0  0  0  0  0
    0.3239    1.3070    0.0000 C   0  0  0  0  0  0  0  0  0  0  0  0
    0.3237    2.8070    0.0000 O   0  0  0  0  0  0  0  0  0  0  0  0
    1.6230    0.5570    0.0000 N   0  0  0  0  0  0  0  0  0  0  0  0
    2.9221    1.3068    0.0000 H   0  0  0  0  0  0  0  0  0  0  0  0
    1.6225   -0.9438    0.0000 C   0  0  0  0  0  0  0  0  0  0  0  0
    2.9203   -1.6960    0.0000 O   0  0  0  0  0  0  0  0  0  0  0  0
  1  2  1  0  0  0  0 
  1  3  2  0  0  0  0 
  3  4  1  0  0  0  0 
  3  5  1  0  0  0  0 
  5  6  1  0  0  0  0 
  5  7  1  0  0  0  0 
  7  8  2  0  0  0  0 
  7  9  1  0  0  0  0 
  9 10  1  0  0  0  0 
  9 11  1  0  0  0  0 
  1 11  1  0  0  0  0 
 11 12  2  0  0  0  0 
M  END
> <Rank>
18

> <Priority_score>
0.05280000000000001

> <Reaction_type>
oxidation of 4-substituted anisole to quinone

> <Parent_ID>
42

> <Parent_InChI>
InChI=1S/C26H27N3O5S/c1-26(2,3)22-15-20(29-11-10-23(30)27-25(29)31)14-21(24(22)34-4)18-7-6-17-13-19(28-35(5,32)33)9-8-16(17)12-18/h6-15,28H,1-5H3,(H,27,30,31)

> <Parent_SMILES>
COc1c(-c2ccc3cc(NS(C)(=O)=O)ccc3c2)cc(-n2ccc(=O)[nH]c2=O)cc1C(C)(C)C

$$$$
Molecule 42_metabolite 20
  CDK     0516241031

 63 66  0  0  0  0  0  0  0  0999 V2000
   -8.3804    5.8765    0.0000 C   0  0  0  0  0  0  0  0  0  0  0  0
   -8.3797    7.3765    0.0000 H   0  0  0  0  0  0  0  0  0  0  0  0
   -9.8575    6.1377    0.0000 H   0  0  0  0  0  0  0  0  0  0  0  0
   -8.8941    4.4672    0.0000 H   0  0  0  0  0  0  0  0  0  0  0  0
   -7.0817    5.1259    0.0000 C   0  0  0  0  0  0  0  0  0  0  0  0
   -5.1320    4.7811    0.0000 C   0  0  0  0  0  0  0  0  0  0  0  0
   -4.1672    5.9297    0.0000 H   0  0  0  0  0  0  0  0  0  0  0  0
   -5.6457    3.3718    0.0000 H   0  0  0  0  0  0  0  0  0  0  0  0
   -3.8333    4.0305    0.0000 H   0  0  0  0  0  0  0  0  0  0  0  0
   -6.4036    6.9862    0.0000 C   0  0  0  0  0  0  0  0  0  0  0  0
   -7.3673    8.1357    0.0000 H   0  0  0  0  0  0  0  0  0  0  0  0
   -5.1049    6.2355    0.0000 H   0  0  0  0  0  0  0  0  0  0  0  0
   -5.4389    8.1348    0.0000 H   0  0  0  0  0  0  0  0  0  0  0  0
   -7.0829    2.6659    0.0000 C   0  0  0  0  0  0  0  0  0  0  0  0
   -8.3829    1.9159    0.0000 C   0  0  0  0  0  0  0  0  0  0  0  0
   -8.3843    0.4151    0.0000 C   0  0  0  0  0  0  0  0  0  0  0  0
   -7.0858   -0.3358    0.0000 C   0  0  0  0  0  0  0  0  0  0  0  0
   -7.0865   -1.8358    0.0000 H   0  0  0  0  0  0  0  0  0  0  0  0
   -5.7858    0.4142    0.0000 C   0  0  0  0  0  0  0  0  0  0  0  0
   -5.7843    1.9151    0.0000 C   0  0  0  0  0  0  0  0  0  0  0  0
   -3.2371    3.3830    0.0000 O   0  0  0  0  0  0  0  0  0  0  0  0
   -3.2359    4.8830    0.0000 H   0  0  0  0  0  0  0  0  0  0  0  0
   -4.4872   -0.3366    0.0000 N   0  0  0  0  0  0  0  0  0  0  0  0
   -3.1872    0.4134    0.0000 C   0  0  0  0  0  0  0  0  0  0  0  0
   -3.1865    1.9134    0.0000 H   0  0  0  0  0  0  0  0  0  0  0  0
   -1.8887   -0.3374    0.0000 C   0  0  0  0  0  0  0  0  0  0  0  0
   -0.5890    0.4115    0.0000 H   0  0  0  0  0  0  0  0  0  0  0  0
   -1.8901   -1.8383    0.0000 C   0  0  0  0  0  0  0  0  0  0  0  0
   -0.5916   -2.5891    0.0000 O   0  0  0  0  0  0  0  0  0  0  0  0
   -3.1901   -2.5883    0.0000 N   0  0  0  0  0  0  0  0  0  0  0  0
   -3.1908   -4.0883    0.0000 H   0  0  0  0  0  0  0  0  0  0  0  0
   -4.4887   -1.8374    0.0000 C   0  0  0  0  0  0  0  0  0  0  0  0
   -5.7883   -2.5864    0.0000 O   0  0  0  0  0  0  0  0  0  0  0  0
   -9.6840   -0.3339    0.0000 C   0  0  0  0  0  0  0  0  0  0  0  0
  -10.9833    0.4174    0.0000 C   0  0  0  0  0  0  0  0  0  0  0  0
  -10.9818    1.9174    0.0000 H   0  0  0  0  0  0  0  0  0  0  0  0
  -12.2840   -0.3314    0.0000 C   0  0  0  0  0  0  0  0  0  0  0  0
  -13.5833    0.4199    0.0000 C   0  0  0  0  0  0  0  0  0  0  0  0
  -13.5818    1.9199    0.0000 H   0  0  0  0  0  0  0  0  0  0  0  0
  -14.8840   -0.3289    0.0000 C   0  0  0  0  0  0  0  0  0  0  0  0
  -16.1822    0.4226    0.0000 H   0  0  0  0  0  0  0  0  0  0  0  0
  -14.8854   -1.8289    0.0000 C   0  0  0  0  0  0  0  0  0  0  0  0
  -13.5861   -2.5801    0.0000 C   0  0  0  0  0  0  0  0  0  0  0  0
  -13.5876   -4.0801    0.0000 H   0  0  0  0  0  0  0  0  0  0  0  0
  -12.2854   -1.8314    0.0000 C   0  0  0  0  0  0  0  0  0  0  0  0
  -10.9861   -2.5826    0.0000 C   0  0  0  0  0  0  0  0  0  0  0  0
  -10.9876   -4.0826    0.0000 H   0  0  0  0  0  0  0  0  0  0  0  0
   -9.6854   -1.8339    0.0000 C   0  0  0  0  0  0  0  0  0  0  0  0
   -8.3872   -2.5854    0.0000 H   0  0  0  0  0  0  0  0  0  0  0  0
  -16.1851   -2.5779    0.0000 N   0  0  0  0  0  0  0  0  0  0  0  0
  -16.1863   -4.0779    0.0000 H   0  0  0  0  0  0  0  0  0  0  0  0
  -17.4835   -1.8268    0.0000 S   0  0  0  0  0  0  0  0  0  0  0  0
  -18.4468   -0.6770    0.0000 O   0  0  0  0  0  0  0  0  0  0  0  0
  -16.5184   -0.6785    0.0000 O   0  0  0  0  0  0  0  0  0  0  0  0
  -18.7831   -2.5758    0.0000 C   0  0  0  0  0  0  0  0  0  0  0  0
  -20.0816   -1.8247    0.0000 H   0  0  0  0  0  0  0  0  0  0  0  0
  -17.8199   -3.7256    0.0000 H   0  0  0  0  0  0  0  0  0  0  0  0
  -19.7482   -3.7241    0.0000 H   0  0  0  0  0  0  0  0  0  0  0  0
   -9.6815    2.6667    0.0000 O   0  0  0  0  0  0  0  0  0  0  0  0
   -9.6805    4.1667    0.0000 C   0  0  0  0  0  0  0  0  0  0  0  0
  -10.9791    4.9176    0.0000 H   0  0  0  0  0  0  0  0  0  0  0  0
   -9.1666    5.5759    0.0000 H   0  0  0  0  0  0  0  0  0  0  0  0
   -8.2035    3.9053    0.0000 H   0  0  0  0  0  0  0  0  0  0  0  0
  1  2  1  0  0  0  0 
  1  3  1  0  0  0  0 
  1  4  1  0  0  0  0 
  1  5  1  0  0  0  0 
  5  6  1  0  0  0  0 
  6  7  1  0  0  0  0 
  6  8  1  0  0  0  0 
  6  9  1  0  0  0  0 
  5 10  1  0  0  0  0 
 10 11  1  0  0  0  0 
 10 12  1  0  0  0  0 
 10 13  1  0  0  0  0 
  5 14  1  0  0  0  0 
 14 15  2  0  0  0  0 
 15 16  1  0  0  0  0 
 16 17  2  0  0  0  0 
 17 18  1  0  0  0  0 
 17 19  1  0  0  0  0 
 19 20  2  0  0  0  0 
 14 20  1  0  0  0  0 
 20 21  1  0  0  0  0 
 21 22  1  0  0  0  0 
 19 23  1  0  0  0  0 
 23 24  1  0  0  0  0 
 24 25  1  0  0  0  0 
 24 26  2  0  0  0  0 
 26 27  1  0  0  0  0 
 26 28  1  0  0  0  0 
 28 29  2  0  0  0  0 
 28 30  1  0  0  0  0 
 30 31  1  0  0  0  0 
 30 32  1  0  0  0  0 
 23 32  1  0  0  0  0 
 32 33  2  0  0  0  0 
 16 34  1  0  0  0  0 
 34 35  2  0  0  0  0 
 35 36  1  0  0  0  0 
 35 37  1  0  0  0  0 
 37 38  2  0  0  0  0 
 38 39  1  0  0  0  0 
 38 40  1  0  0  0  0 
 40 41  1  0  0  0  0 
 40 42  2  0  0  0  0 
 42 43  1  0  0  0  0 
 43 44  1  0  0  0  0 
 43 45  2  0  0  0  0 
 37 45  1  0  0  0  0 
 45 46  1  0  0  0  0 
 46 47  1  0  0  0  0 
 46 48  2  0  0  0  0 
 34 48  1  0  0  0  0 
 48 49  1  0  0  0  0 
 42 50  1  0  0  0  0 
 50 51  1  0  0  0  0 
 50 52  1  0  0  0  0 
 52 53  2  0  0  0  0 
 52 54  2  0  0  0  0 
 52 55  1  0  0  0  0 
 55 56  1  0  0  0  0 
 55 57  1  0  0  0  0 
 55 58  1  0  0  0  0 
 15 59  1  0  0  0  0 
 59 60  1  0  0  0  0 
 60 61  1  0  0  0  0 
 60 62  1  0  0  0  0 
 60 63  1  0  0  0  0 
M  END
> <Rank>
20

> <Priority_score>
0.048

> <Reaction_type>
aromatic_hydroxylation_(para_to_carbon)

> <Parent_ID>
42

> <Parent_InChI>
InChI=1S/C26H27N3O5S/c1-26(2,3)22-15-20(29-11-10-23(30)27-25(29)31)14-21(24(22)34-4)18-7-6-17-13-19(28-35(5,32)33)9-8-16(17)12-18/h6-15,28H,1-5H3,(H,27,30,31)

> <Parent_SMILES>
COc1c(-c2ccc3cc(NS(C)(=O)=O)ccc3c2)cc(-n2ccc(=O)[nH]c2=O)cc1C(C)(C)C

$$$$
Molecule 42_metabolite 21
  CDK     0516241031

 63 66  0  0  0  0  0  0  0  0999 V2000
   -8.3838    2.3481    0.0000 C   0  0  0  0  0  0  0  0  0  0  0  0
   -9.6831    1.5985    0.0000 H   0  0  0  0  0  0  0  0  0  0  0  0
   -7.4193    3.4969    0.0000 H   0  0  0  0  0  0  0  0  0  0  0  0
   -9.9645    4.2331    0.0000 H   0  0  0  0  0  0  0  0  0  0  0  0
   -7.0850    1.5977    0.0000 C   0  0  0  0  0  0  0  0  0  0  0  0
   -8.9755   -0.6539    0.0000 C   0  0  0  0  0  0  0  0  0  0  0  0
  -10.4527   -0.3929    0.0000 H   0  0  0  0  0  0  0  0  0  0  0  0
   -9.4890   -2.0633    0.0000 H   0  0  0  0  0  0  0  0  0  0  0  0
   -7.6767   -1.4043    0.0000 H   0  0  0  0  0  0  0  0  0  0  0  0
   -6.1212    0.4483    0.0000 C   0  0  0  0  0  0  0  0  0  0  0  0
   -4.6439    0.7083    0.0000 H   0  0  0  0  0  0  0  0  0  0  0  0
   -5.6086   -0.9614    0.0000 H   0  0  0  0  0  0  0  0  0  0  0  0
   -7.4205   -0.3013    0.0000 H   0  0  0  0  0  0  0  0  0  0  0  0
   -4.9542    2.8270    0.0000 C   0  0  0  0  0  0  0  0  0  0  0  0
   -3.6546    2.0764    0.0000 C   0  0  0  0  0  0  0  0  0  0  0  0
   -3.6557   -0.3836    0.0000 H   0  0  0  0  0  0  0  0  0  0  0  0
   -2.3542    2.8257    0.0000 C   0  0  0  0  0  0  0  0  0  0  0  0
   -2.3535    4.3257    0.0000 C   0  0  0  0  0  0  0  0  0  0  0  0
   -1.0542    5.0753    0.0000 H   0  0  0  0  0  0  0  0  0  0  0  0
   -3.6531    5.0764    0.0000 C   0  0  0  0  0  0  0  0  0  0  0  0
   -4.9535    4.3270    0.0000 C   0  0  0  0  0  0  0  0  0  0  0  0
   -6.2520    5.0778    0.0000 O   0  0  0  0  0  0  0  0  0  0  0  0
   -7.5516    4.3287    0.0000 C   0  0  0  0  0  0  0  0  0  0  0  0
   -8.8501    5.0795    0.0000 H   0  0  0  0  0  0  0  0  0  0  0  0
   -6.5881    3.1790    0.0000 H   0  0  0  0  0  0  0  0  0  0  0  0
   -8.5165    3.1802    0.0000 H   0  0  0  0  0  0  0  0  0  0  0  0
   -3.6524    6.5764    0.0000 C   0  0  0  0  0  0  0  0  0  0  0  0
   -2.3524    7.3264    0.0000 C   0  0  0  0  0  0  0  0  0  0  0  0
   -1.0538    6.5755    0.0000 H   0  0  0  0  0  0  0  0  0  0  0  0
   -2.3510    8.8272    0.0000 C   0  0  0  0  0  0  0  0  0  0  0  0
   -1.0510    9.5772    0.0000 C   0  0  0  0  0  0  0  0  0  0  0  0
    0.2476    8.8264    0.0000 H   0  0  0  0  0  0  0  0  0  0  0  0
   -1.0495   11.0780    0.0000 C   0  0  0  0  0  0  0  0  0  0  0  0
   -2.3481   11.8289    0.0000 C   0  0  0  0  0  0  0  0  0  0  0  0
   -3.6481   11.0789    0.0000 C   0  0  0  0  0  0  0  0  0  0  0  0
   -4.9466   11.8297    0.0000 H   0  0  0  0  0  0  0  0  0  0  0  0
   -3.6495    9.5780    0.0000 C   0  0  0  0  0  0  0  0  0  0  0  0
   -4.9495    8.8280    0.0000 C   0  0  0  0  0  0  0  0  0  0  0  0
   -6.2481    9.5789    0.0000 H   0  0  0  0  0  0  0  0  0  0  0  0
   -4.9510    7.3272    0.0000 C   0  0  0  0  0  0  0  0  0  0  0  0
   -6.2506    6.5782    0.0000 H   0  0  0  0  0  0  0  0  0  0  0  0
   -2.3474   13.3289    0.0000 N   0  0  0  0  0  0  0  0  0  0  0  0
   -3.6460   14.0795    0.0000 H   0  0  0  0  0  0  0  0  0  0  0  0
   -1.0480   14.0782    0.0000 S   0  0  0  0  0  0  0  0  0  0  0  0
    0.4294   14.3380    0.0000 O   0  0  0  0  0  0  0  0  0  0  0  0
   -0.5356   12.6685    0.0000 O   0  0  0  0  0  0  0  0  0  0  0  0
   -1.0472   15.5782    0.0000 C   0  0  0  0  0  0  0  0  0  0  0  0
    0.2522   16.3276    0.0000 H   0  0  0  0  0  0  0  0  0  0  0  0
   -2.5246   15.3185    0.0000 H   0  0  0  0  0  0  0  0  0  0  0  0
   -1.5596   16.9880    0.0000 H   0  0  0  0  0  0  0  0  0  0  0  0
    0.2501   11.8270    0.0000 O   0  0  0  0  0  0  0  0  0  0  0  0
    0.2513   13.3270    0.0000 H   0  0  0  0  0  0  0  0  0  0  0  0
   -1.0556    2.0749    0.0000 N   0  0  0  0  0  0  0  0  0  0  0  0
    0.2444    2.8249    0.0000 C   0  0  0  0  0  0  0  0  0  0  0  0
    0.2451    4.3249    0.0000 H   0  0  0  0  0  0  0  0  0  0  0  0
    1.5429    2.0741    0.0000 C   0  0  0  0  0  0  0  0  0  0  0  0
    2.8425    2.8230    0.0000 H   0  0  0  0  0  0  0  0  0  0  0  0
    1.5415    0.5733    0.0000 C   0  0  0  0  0  0  0  0  0  0  0  0
    2.8400   -0.1776    0.0000 O   0  0  0  0  0  0  0  0  0  0  0  0
    0.2415   -0.1767    0.0000 N   0  0  0  0  0  0  0  0  0  0  0  0
    0.2407   -1.6767    0.0000 H   0  0  0  0  0  0  0  0  0  0  0  0
   -1.0571    0.5741    0.0000 C   0  0  0  0  0  0  0  0  0  0  0  0
   -2.3567   -0.1749    0.0000 O   0  0  0  0  0  0  0  0  0  0  0  0
  1  2  1  0  0  0  0 
  1  3  1  0  0  0  0 
  1  4  1  0  0  0  0 
  1  5  1  0  0  0  0 
  5  6  1  0  0  0  0 
  6  7  1  0  0  0  0 
  6  8  1  0  0  0  0 
  6  9  1  0  0  0  0 
  5 10  1  0  0  0  0 
 10 11  1  0  0  0  0 
 10 12  1  0  0  0  0 
 10 13  1  0  0  0  0 
  5 14  1  0  0  0  0 
 14 15  2  0  0  0  0 
 15 16  1  0  0  0  0 
 15 17  1  0  0  0  0 
 17 18  2  0  0  0  0 
 18 19  1  0  0  0  0 
 18 20  1  0  0  0  0 
 20 21  2  0  0  0  0 
 14 21  1  0  0  0  0 
 21 22  1  0  0  0  0 
 22 23  1  0  0  0  0 
 23 24  1  0  0  0  0 
 23 25  1  0  0  0  0 
 23 26  1  0  0  0  0 
 20 27  1  0  0  0  0 
 27 28  2  0  0  0  0 
 28 29  1  0  0  0  0 
 28 30  1  0  0  0  0 
 30 31  2  0  0  0  0 
 31 32  1  0  0  0  0 
 31 33  1  0  0  0  0 
 33 34  2  0  0  0  0 
 34 35  1  0  0  0  0 
 35 36  1  0  0  0  0 
 35 37  2  0  0  0  0 
 30 37  1  0  0  0  0 
 37 38  1  0  0  0  0 
 38 39  1  0  0  0  0 
 38 40  2  0  0  0  0 
 27 40  1  0  0  0  0 
 40 41  1  0  0  0  0 
 34 42  1  0  0  0  0 
 42 43  1  0  0  0  0 
 42 44  1  0  0  0  0 
 44 45  2  0  0  0  0 
 44 46  2  0  0  0  0 
 44 47  1  0  0  0  0 
 47 48  1  0  0  0  0 
 47 49  1  0  0  0  0 
 47 50  1  0  0  0  0 
 33 51  1  0  0  0  0 
 51 52  1  0  0  0  0 
 17 53  1  0  0  0  0 
 53 54  1  0  0  0  0 
 54 55  1  0  0  0  0 
 54 56  2  0  0  0  0 
 56 57  1  0  0  0  0 
 56 58  1  0  0  0  0 
 58 59  2  0  0  0  0 
 58 60  1  0  0  0  0 
 60 61  1  0  0  0  0 
 60 62  1  0  0  0  0 
 53 62  1  0  0  0  0 
 62 63  2  0  0  0  0 
M  END
> <Rank>
21

> <Priority_score>
0.036

> <Reaction_type>
aromatic_hydroxylation_(para_to_carbon)

> <Parent_ID>
42

> <Parent_InChI>
InChI=1S/C26H27N3O5S/c1-26(2,3)22-15-20(29-11-10-23(30)27-25(29)31)14-21(24(22)34-4)18-7-6-17-13-19(28-35(5,32)33)9-8-16(17)12-18/h6-15,28H,1-5H3,(H,27,30,31)

> <Parent_SMILES>
COc1c(-c2ccc3cc(NS(C)(=O)=O)ccc3c2)cc(-n2ccc(=O)[nH]c2=O)cc1C(C)(C)C

$$$$
Molecule 42_metabolite 22
  CDK     0516241031

 63 66  0  0  0  0  0  0  0  0999 V2000
    8.3838   -2.3481    0.0000 C   0  0  0  0  0  0  0  0  0  0  0  0
    9.6831   -1.5985    0.0000 H   0  0  0  0  0  0  0  0  0  0  0  0
    7.4193   -3.4969    0.0000 H   0  0  0  0  0  0  0  0  0  0  0  0
    9.9645   -4.2331    0.0000 H   0  0  0  0  0  0  0  0  0  0  0  0
    7.0850   -1.5977    0.0000 C   0  0  0  0  0  0  0  0  0  0  0  0
    8.9755    0.6539    0.0000 C   0  0  0  0  0  0  0  0  0  0  0  0
   10.4527    0.3929    0.0000 H   0  0  0  0  0  0  0  0  0  0  0  0
    9.4890    2.0633    0.0000 H   0  0  0  0  0  0  0  0  0  0  0  0
    7.6767    1.4043    0.0000 H   0  0  0  0  0  0  0  0  0  0  0  0
    6.1212   -0.4483    0.0000 C   0  0  0  0  0  0  0  0  0  0  0  0
    4.6439   -0.7083    0.0000 H   0  0  0  0  0  0  0  0  0  0  0  0
    5.6086    0.9614    0.0000 H   0  0  0  0  0  0  0  0  0  0  0  0
    7.4205    0.3013    0.0000 H   0  0  0  0  0  0  0  0  0  0  0  0
    4.9542   -2.8270    0.0000 C   0  0  0  0  0  0  0  0  0  0  0  0
    3.6546   -2.0764    0.0000 C   0  0  0  0  0  0  0  0  0  0  0  0
    3.6557    0.3836    0.0000 H   0  0  0  0  0  0  0  0  0  0  0  0
    2.3542   -2.8257    0.0000 C   0  0  0  0  0  0  0  0  0  0  0  0
    2.3535   -4.3257    0.0000 C   0  0  0  0  0  0  0  0  0  0  0  0
    1.0542   -5.0753    0.0000 H   0  0  0  0  0  0  0  0  0  0  0  0
    3.6531   -5.0764    0.0000 C   0  0  0  0  0  0  0  0  0  0  0  0
    4.9535   -4.3270    0.0000 C   0  0  0  0  0  0  0  0  0  0  0  0
    6.2520   -5.0778    0.0000 O   0  0  0  0  0  0  0  0  0  0  0  0
    7.5516   -4.3287    0.0000 C   0  0  0  0  0  0  0  0  0  0  0  0
    8.8501   -5.0795    0.0000 H   0  0  0  0  0  0  0  0  0  0  0  0
    6.5881   -3.1790    0.0000 H   0  0  0  0  0  0  0  0  0  0  0  0
    8.5165   -3.1802    0.0000 H   0  0  0  0  0  0  0  0  0  0  0  0
    3.6524   -6.5764    0.0000 C   0  0  0  0  0  0  0  0  0  0  0  0
    4.9510   -7.3272    0.0000 C   0  0  0  0  0  0  0  0  0  0  0  0
    6.2506   -6.5782    0.0000 H   0  0  0  0  0  0  0  0  0  0  0  0
    4.9495   -8.8280    0.0000 C   0  0  0  0  0  0  0  0  0  0  0  0
    3.6495   -9.5780    0.0000 C   0  0  0  0  0  0  0  0  0  0  0  0
    3.6481  -11.0789    0.0000 C   0  0  0  0  0  0  0  0  0  0  0  0
    4.9466  -11.8297    0.0000 H   0  0  0  0  0  0  0  0  0  0  0  0
    2.3481  -11.8289    0.0000 C   0  0  0  0  0  0  0  0  0  0  0  0
    1.0495  -11.0780    0.0000 C   0  0  0  0  0  0  0  0  0  0  0  0
   -0.2501  -11.8270    0.0000 H   0  0  0  0  0  0  0  0  0  0  0  0
    1.0510   -9.5772    0.0000 C   0  0  0  0  0  0  0  0  0  0  0  0
   -0.2476   -8.8264    0.0000 H   0  0  0  0  0  0  0  0  0  0  0  0
    2.3510   -8.8272    0.0000 C   0  0  0  0  0  0  0  0  0  0  0  0
    2.3524   -7.3264    0.0000 C   0  0  0  0  0  0  0  0  0  0  0  0
    1.0538   -6.5755    0.0000 H   0  0  0  0  0  0  0  0  0  0  0  0
    2.3474  -13.3289    0.0000 N   0  0  0  0  0  0  0  0  0  0  0  0
    3.6460  -14.0795    0.0000 H   0  0  0  0  0  0  0  0  0  0  0  0
    1.0480  -14.0782    0.0000 S   0  0  0  0  0  0  0  0  0  0  0  0
   -0.4294  -14.3380    0.0000 O   0  0  0  0  0  0  0  0  0  0  0  0
    0.5356  -12.6685    0.0000 O   0  0  0  0  0  0  0  0  0  0  0  0
    1.0472  -15.5782    0.0000 C   0  0  0  0  0  0  0  0  0  0  0  0
   -0.2522  -16.3276    0.0000 H   0  0  0  0  0  0  0  0  0  0  0  0
    2.5246  -15.3185    0.0000 H   0  0  0  0  0  0  0  0  0  0  0  0
    1.5596  -16.9880    0.0000 H   0  0  0  0  0  0  0  0  0  0  0  0
    6.2481   -9.5789    0.0000 O   0  0  0  0  0  0  0  0  0  0  0  0
    6.2471  -11.0789    0.0000 H   0  0  0  0  0  0  0  0  0  0  0  0
    1.0556   -2.0749    0.0000 N   0  0  0  0  0  0  0  0  0  0  0  0
   -0.2444   -2.8249    0.0000 C   0  0  0  0  0  0  0  0  0  0  0  0
   -0.2451   -4.3249    0.0000 H   0  0  0  0  0  0  0  0  0  0  0  0
   -1.5429   -2.0741    0.0000 C   0  0  0  0  0  0  0  0  0  0  0  0
   -2.8425   -2.8230    0.0000 H   0  0  0  0  0  0  0  0  0  0  0  0
   -1.5415   -0.5733    0.0000 C   0  0  0  0  0  0  0  0  0  0  0  0
   -2.8400    0.1776    0.0000 O   0  0  0  0  0  0  0  0  0  0  0  0
   -0.2415    0.1767    0.0000 N   0  0  0  0  0  0  0  0  0  0  0  0
   -0.2407    1.6767    0.0000 H   0  0  0  0  0  0  0  0  0  0  0  0
    1.0571   -0.5741    0.0000 C   0  0  0  0  0  0  0  0  0  0  0  0
    2.3567    0.1749    0.0000 O   0  0  0  0  0  0  0  0  0  0  0  0
  1  2  1  0  0  0  0 
  1  3  1  0  0  0  0 
  1  4  1  0  0  0  0 
  1  5  1  0  0  0  0 
  5  6  1  0  0  0  0 
  6  7  1  0  0  0  0 
  6  8  1  0  0  0  0 
  6  9  1  0  0  0  0 
  5 10  1  0  0  0  0 
 10 11  1  0  0  0  0 
 10 12  1  0  0  0  0 
 10 13  1  0  0  0  0 
  5 14  1  0  0  0  0 
 14 15  2  0  0  0  0 
 15 16  1  0  0  0  0 
 15 17  1  0  0  0  0 
 17 18  2  0  0  0  0 
 18 19  1  0  0  0  0 
 18 20  1  0  0  0  0 
 20 21  2  0  0  0  0 
 14 21  1  0  0  0  0 
 21 22  1  0  0  0  0 
 22 23  1  0  0  0  0 
 23 24  1  0  0  0  0 
 23 25  1  0  0  0  0 
 23 26  1  0  0  0  0 
 20 27  1  0  0  0  0 
 27 28  2  0  0  0  0 
 28 29  1  0  0  0  0 
 28 30  1  0  0  0  0 
 30 31  2  0  0  0  0 
 31 32  1  0  0  0  0 
 32 33  1  0  0  0  0 
 32 34  2  0  0  0  0 
 34 35  1  0  0  0  0 
 35 36  1  0  0  0  0 
 35 37  2  0  0  0  0 
 37 38  1  0  0  0  0 
 37 39  1  0  0  0  0 
 31 39  1  0  0  0  0 
 39 40  2  0  0  0  0 
 27 40  1  0  0  0  0 
 40 41  1  0  0  0  0 
 34 42  1  0  0  0  0 
 42 43  1  0  0  0  0 
 42 44  1  0  0  0  0 
 44 45  2  0  0  0  0 
 44 46  2  0  0  0  0 
 44 47  1  0  0  0  0 
 47 48  1  0  0  0  0 
 47 49  1  0  0  0  0 
 47 50  1  0  0  0  0 
 30 51  1  0  0  0  0 
 51 52  1  0  0  0  0 
 17 53  1  0  0  0  0 
 53 54  1  0  0  0  0 
 54 55  1  0  0  0  0 
 54 56  2  0  0  0  0 
 56 57  1  0  0  0  0 
 56 58  1  0  0  0  0 
 58 59  2  0  0  0  0 
 58 60  1  0  0  0  0 
 60 61  1  0  0  0  0 
 60 62  1  0  0  0  0 
 53 62  1  0  0  0  0 
 62 63  2  0  0  0  0 
M  END
> <Rank>
22

> <Priority_score>
0.02

> <Reaction_type>
aromatic hydroxylation

> <Parent_ID>
42

> <Parent_InChI>
InChI=1S/C26H27N3O5S/c1-26(2,3)22-15-20(29-11-10-23(30)27-25(29)31)14-21(24(22)34-4)18-7-6-17-13-19(28-35(5,32)33)9-8-16(17)12-18/h6-15,28H,1-5H3,(H,27,30,31)

> <Parent_SMILES>
COc1c(-c2ccc3cc(NS(C)(=O)=O)ccc3c2)cc(-n2ccc(=O)[nH]c2=O)cc1C(C)(C)C

$$$$
Molecule 42_metabolite 23
  CDK     0516241031

 63 66  0  0  0  0  0  0  0  0999 V2000
   -8.3838    2.3481    0.0000 C   0  0  0  0  0  0  0  0  0  0  0  0
   -9.6831    1.5985    0.0000 H   0  0  0  0  0  0  0  0  0  0  0  0
   -7.4193    3.4969    0.0000 H   0  0  0  0  0  0  0  0  0  0  0  0
   -9.9645    4.2331    0.0000 H   0  0  0  0  0  0  0  0  0  0  0  0
   -7.0850    1.5977    0.0000 C   0  0  0  0  0  0  0  0  0  0  0  0
   -8.9755   -0.6539    0.0000 C   0  0  0  0  0  0  0  0  0  0  0  0
  -10.4527   -0.3929    0.0000 H   0  0  0  0  0  0  0  0  0  0  0  0
   -9.4890   -2.0633    0.0000 H   0  0  0  0  0  0  0  0  0  0  0  0
   -7.6767   -1.4043    0.0000 H   0  0  0  0  0  0  0  0  0  0  0  0
   -6.1212    0.4483    0.0000 C   0  0  0  0  0  0  0  0  0  0  0  0
   -4.6439    0.7083    0.0000 H   0  0  0  0  0  0  0  0  0  0  0  0
   -5.6086   -0.9614    0.0000 H   0  0  0  0  0  0  0  0  0  0  0  0
   -7.4205   -0.3013    0.0000 H   0  0  0  0  0  0  0  0  0  0  0  0
   -4.9542    2.8270    0.0000 C   0  0  0  0  0  0  0  0  0  0  0  0
   -3.6546    2.0764    0.0000 C   0  0  0  0  0  0  0  0  0  0  0  0
   -3.6557   -0.3836    0.0000 H   0  0  0  0  0  0  0  0  0  0  0  0
   -2.3542    2.8257    0.0000 C   0  0  0  0  0  0  0  0  0  0  0  0
   -2.3535    4.3257    0.0000 C   0  0  0  0  0  0  0  0  0  0  0  0
   -1.0542    5.0753    0.0000 H   0  0  0  0  0  0  0  0  0  0  0  0
   -3.6531    5.0764    0.0000 C   0  0  0  0  0  0  0  0  0  0  0  0
   -4.9535    4.3270    0.0000 C   0  0  0  0  0  0  0  0  0  0  0  0
   -6.2520    5.0778    0.0000 O   0  0  0  0  0  0  0  0  0  0  0  0
   -7.5516    4.3287    0.0000 C   0  0  0  0  0  0  0  0  0  0  0  0
   -8.8501    5.0795    0.0000 H   0  0  0  0  0  0  0  0  0  0  0  0
   -6.5881    3.1790    0.0000 H   0  0  0  0  0  0  0  0  0  0  0  0
   -8.5165    3.1802    0.0000 H   0  0  0  0  0  0  0  0  0  0  0  0
   -3.6524    6.5764    0.0000 C   0  0  0  0  0  0  0  0  0  0  0  0
   -2.3524    7.3264    0.0000 C   0  0  0  0  0  0  0  0  0  0  0  0
   -1.0538    6.5755    0.0000 H   0  0  0  0  0  0  0  0  0  0  0  0
   -2.3510    8.8272    0.0000 C   0  0  0  0  0  0  0  0  0  0  0  0
   -1.0510    9.5772    0.0000 C   0  0  0  0  0  0  0  0  0  0  0  0
   -1.0495   11.0780    0.0000 C   0  0  0  0  0  0  0  0  0  0  0  0
    0.2501   11.8270    0.0000 H   0  0  0  0  0  0  0  0  0  0  0  0
   -2.3481   11.8289    0.0000 C   0  0  0  0  0  0  0  0  0  0  0  0
   -3.6481   11.0789    0.0000 C   0  0  0  0  0  0  0  0  0  0  0  0
   -4.9466   11.8297    0.0000 H   0  0  0  0  0  0  0  0  0  0  0  0
   -3.6495    9.5780    0.0000 C   0  0  0  0  0  0  0  0  0  0  0  0
   -4.9495    8.8280    0.0000 C   0  0  0  0  0  0  0  0  0  0  0  0
   -6.2481    9.5789    0.0000 H   0  0  0  0  0  0  0  0  0  0  0  0
   -4.9510    7.3272    0.0000 C   0  0  0  0  0  0  0  0  0  0  0  0
   -6.2506    6.5782    0.0000 H   0  0  0  0  0  0  0  0  0  0  0  0
   -2.3474   13.3289    0.0000 N   0  0  0  0  0  0  0  0  0  0  0  0
   -3.6460   14.0795    0.0000 H   0  0  0  0  0  0  0  0  0  0  0  0
   -1.0480   14.0782    0.0000 S   0  0  0  0  0  0  0  0  0  0  0  0
    0.4294   14.3380    0.0000 O   0  0  0  0  0  0  0  0  0  0  0  0
   -0.5356   12.6685    0.0000 O   0  0  0  0  0  0  0  0  0  0  0  0
   -1.0472   15.5782    0.0000 C   0  0  0  0  0  0  0  0  0  0  0  0
    0.2522   16.3276    0.0000 H   0  0  0  0  0  0  0  0  0  0  0  0
   -2.5246   15.3185    0.0000 H   0  0  0  0  0  0  0  0  0  0  0  0
   -1.5596   16.9880    0.0000 H   0  0  0  0  0  0  0  0  0  0  0  0
    0.2476    8.8264    0.0000 O   0  0  0  0  0  0  0  0  0  0  0  0
    1.5471    9.5755    0.0000 H   0  0  0  0  0  0  0  0  0  0  0  0
   -1.0556    2.0749    0.0000 N   0  0  0  0  0  0  0  0  0  0  0  0
    0.2444    2.8249    0.0000 C   0  0  0  0  0  0  0  0  0  0  0  0
    0.2451    4.3249    0.0000 H   0  0  0  0  0  0  0  0  0  0  0  0
    1.5429    2.0741    0.0000 C   0  0  0  0  0  0  0  0  0  0  0  0
    2.8425    2.8230    0.0000 H   0  0  0  0  0  0  0  0  0  0  0  0
    1.5415    0.5733    0.0000 C   0  0  0  0  0  0  0  0  0  0  0  0
    2.8400   -0.1776    0.0000 O   0  0  0  0  0  0  0  0  0  0  0  0
    0.2415   -0.1767    0.0000 N   0  0  0  0  0  0  0  0  0  0  0  0
    0.2407   -1.6767    0.0000 H   0  0  0  0  0  0  0  0  0  0  0  0
   -1.0571    0.5741    0.0000 C   0  0  0  0  0  0  0  0  0  0  0  0
   -2.3567   -0.1749    0.0000 O   0  0  0  0  0  0  0  0  0  0  0  0
  1  2  1  0  0  0  0 
  1  3  1  0  0  0  0 
  1  4  1  0  0  0  0 
  1  5  1  0  0  0  0 
  5  6  1  0  0  0  0 
  6  7  1  0  0  0  0 
  6  8  1  0  0  0  0 
  6  9  1  0  0  0  0 
  5 10  1  0  0  0  0 
 10 11  1  0  0  0  0 
 10 12  1  0  0  0  0 
 10 13  1  0  0  0  0 
  5 14  1  0  0  0  0 
 14 15  2  0  0  0  0 
 15 16  1  0  0  0  0 
 15 17  1  0  0  0  0 
 17 18  2  0  0  0  0 
 18 19  1  0  0  0  0 
 18 20  1  0  0  0  0 
 20 21  2  0  0  0  0 
 14 21  1  0  0  0  0 
 21 22  1  0  0  0  0 
 22 23  1  0  0  0  0 
 23 24  1  0  0  0  0 
 23 25  1  0  0  0  0 
 23 26  1  0  0  0  0 
 20 27  1  0  0  0  0 
 27 28  2  0  0  0  0 
 28 29  1  0  0  0  0 
 28 30  1  0  0  0  0 
 30 31  2  0  0  0  0 
 31 32  1  0  0  0  0 
 32 33  1  0  0  0  0 
 32 34  2  0  0  0  0 
 34 35  1  0  0  0  0 
 35 36  1  0  0  0  0 
 35 37  2  0  0  0  0 
 30 37  1  0  0  0  0 
 37 38  1  0  0  0  0 
 38 39  1  0  0  0  0 
 38 40  2  0  0  0  0 
 27 40  1  0  0  0  0 
 40 41  1  0  0  0  0 
 34 42  1  0  0  0  0 
 42 43  1  0  0  0  0 
 42 44  1  0  0  0  0 
 44 45  2  0  0  0  0 
 44 46  2  0  0  0  0 
 44 47  1  0  0  0  0 
 47 48  1  0  0  0  0 
 47 49  1  0  0  0  0 
 47 50  1  0  0  0  0 
 31 51  1  0  0  0  0 
 51 52  1  0  0  0  0 
 17 53  1  0  0  0  0 
 53 54  1  0  0  0  0 
 54 55  1  0  0  0  0 
 54 56  2  0  0  0  0 
 56 57  1  0  0  0  0 
 56 58  1  0  0  0  0 
 58 59  2  0  0  0  0 
 58 60  1  0  0  0  0 
 60 61  1  0  0  0  0 
 60 62  1  0  0  0  0 
 53 62  1  0  0  0  0 
 62 63  2  0  0  0  0 
M  END
> <Rank>
23

> <Priority_score>
0.016

> <Reaction_type>
aromatic hydroxylation

> <Parent_ID>
42

> <Parent_InChI>
InChI=1S/C26H27N3O5S/c1-26(2,3)22-15-20(29-11-10-23(30)27-25(29)31)14-21(24(22)34-4)18-7-6-17-13-19(28-35(5,32)33)9-8-16(17)12-18/h6-15,28H,1-5H3,(H,27,30,31)

> <Parent_SMILES>
COc1c(-c2ccc3cc(NS(C)(=O)=O)ccc3c2)cc(-n2ccc(=O)[nH]c2=O)cc1C(C)(C)C

$$$$
Molecule 43
  CDK     0516241031

 21 22  0  0  0  0  0  0  0  0999 V2000
    4.2227   -4.6876    0.0000 C   0  0  0  0  0  0  0  0  0  0  0  0
    2.9239   -5.4380    0.0000 O   0  0  0  0  0  0  0  0  0  0  0  0
    1.6246   -4.6884    0.0000 C   0  0  0  0  0  0  0  0  0  0  0  0
    0.3257   -5.4386    0.0000 C   0  0  0  0  0  0  0  0  0  0  0  0
   -0.9740   -4.6880    0.0000 C   0  0  0  0  0  0  0  0  0  0  0  0
   -0.9747   -3.1872    0.0000 C   0  0  0  0  0  0  0  0  0  0  0  0
    0.3242   -2.4370    0.0000 C   0  0  0  0  0  0  0  0  0  0  0  0
    1.6239   -3.1876    0.0000 C   0  0  0  0  0  0  0  0  0  0  0  0
    2.9228   -2.4374    0.0000 O   0  0  0  0  0  0  0  0  0  0  0  0
    4.2219   -3.1872    0.0000 C   0  0  0  0  0  0  0  0  0  0  0  0
    0.3242   -0.9370    0.0000 O   0  0  0  0  0  0  0  0  0  0  0  0
    1.6233   -0.1870    0.0000 C   0  0  0  0  0  0  0  0  0  0  0  0
   -2.2729   -5.4382    0.0000 C   0  0  0  0  0  0  0  0  0  0  0  0
   -3.5721   -4.6884    0.0000 C   0  0  0  0  0  0  0  0  0  0  0  0
   -4.8711   -5.4384    0.0000 C   0  0  0  0  0  0  0  0  0  0  0  0
   -4.8713   -6.9384    0.0000 N   0  0  0  0  0  0  0  0  0  0  0  0
   -6.1706   -4.6876    0.0000 N   0  0  0  0  0  0  0  0  0  0  0  0
   -6.1711   -3.1868    0.0000 C   0  0  0  0  0  0  0  0  0  0  0  0
   -7.4703   -2.4370    0.0000 N   0  0  0  0  0  0  0  0  0  0  0  0
   -4.8721   -2.4368    0.0000 N   0  0  0  0  0  0  0  0  0  0  0  0
   -3.5725   -3.1876    0.0000 C   0  0  0  0  0  0  0  0  0  0  0  0
  1  2  1  0  0  0  0 
  2  3  1  0  0  0  0 
  3  4  2  0  0  0  0 
  4  5  1  0  0  0  0 
  5  6  2  0  0  0  0 
  6  7  1  0  0  0  0 
  7  8  2  0  0  0  0 
  3  8  1  0  0  0  0 
  8  9  1  0  0  0  0 
  9 10  1  0  0  0  0 
  7 11  1  0  0  0  0 
 11 12  1  0  0  0  0 
  5 13  1  0  0  0  0 
 13 14  1  0  0  0  0 
 14 15  2  0  0  0  0 
 15 16  1  0  0  0  0 
 15 17  1  0  0  0  0 
 17 18  2  0  0  0  0 
 18 19  1  0  0  0  0 
 18 20  1  0  0  0  0 
 20 21  2  0  0  0  0 
 14 21  1  0  0  0  0 
M  END
> <SMILES>
COc1cc(Cc2cnc(N)nc2N)cc(OC)c1OC

$$$$
Molecule 43_metabolite 1
  CDK     0516241031

 59 61  0  0  0  0  0  0  0  0999 V2000
    4.9718   -2.7428    0.0000 C   0  0  0  0  0  0  0  0  0  0  0  0
    4.9718   -4.2428    0.0000 H   0  0  0  0  0  0  0  0  0  0  0  0
    6.4491   -3.0033    0.0000 H   0  0  0  0  0  0  0  0  0  0  0  0
    5.4849   -1.3333    0.0000 H   0  0  0  0  0  0  0  0  0  0  0  0
    3.6728   -1.9928    0.0000 O   0  0  0  0  0  0  0  0  0  0  0  0
    2.3738   -2.7428    0.0000 C   0  0  0  0  0  0  0  0  0  0  0  0
    1.0746   -1.9930    0.0000 C   0  0  0  0  0  0  0  0  0  0  0  0
    1.0741   -0.4930    0.0000 H   0  0  0  0  0  0  0  0  0  0  0  0
   -0.2248   -2.7441    0.0000 C   0  0  0  0  0  0  0  0  0  0  0  0
   -0.2250   -4.2449    0.0000 C   0  0  0  0  0  0  0  0  0  0  0  0
   -1.5241   -4.9949    0.0000 H   0  0  0  0  0  0  0  0  0  0  0  0
    1.0741   -4.9947    0.0000 C   0  0  0  0  0  0  0  0  0  0  0  0
    2.3735   -4.2437    0.0000 C   0  0  0  0  0  0  0  0  0  0  0  0
    3.6727   -4.9934    0.0000 O   0  0  0  0  0  0  0  0  0  0  0  0
    3.6729   -6.4934    0.0000 C   0  0  0  0  0  0  0  0  0  0  0  0
    4.9721   -7.2432    0.0000 H   0  0  0  0  0  0  0  0  0  0  0  0
    3.1601   -7.9031    0.0000 H   0  0  0  0  0  0  0  0  0  0  0  0
    2.1957   -6.2332    0.0000 H   0  0  0  0  0  0  0  0  0  0  0  0
    1.0746   -6.4947    0.0000 O   0  0  0  0  0  0  0  0  0  0  0  0
   -0.2242   -7.2451    0.0000 C   0  0  0  0  0  0  0  0  0  0  0  0
   -0.2237   -8.7451    0.0000 H   0  0  0  0  0  0  0  0  0  0  0  0
   -1.7013   -7.5061    0.0000 H   0  0  0  0  0  0  0  0  0  0  0  0
   -0.7377   -5.8357    0.0000 H   0  0  0  0  0  0  0  0  0  0  0  0
   -1.9397   -1.7543    0.0000 C   0  0  0  0  0  0  0  0  0  0  0  0
   -2.4525   -3.1640    0.0000 H   0  0  0  0  0  0  0  0  0  0  0  0
   -3.4169   -1.4941    0.0000 H   0  0  0  0  0  0  0  0  0  0  0  0
   -1.9399   -0.2543    0.0000 C   0  0  0  0  0  0  0  0  0  0  0  0
   -3.2390    0.4957    0.0000 C   0  0  0  0  0  0  0  0  0  0  0  0
   -4.5381   -0.2541    0.0000 N   0  0  0  0  0  0  0  0  0  0  0  0
   -4.5384   -1.7541    0.0000 H   0  0  0  0  0  0  0  0  0  0  0  0
   -5.8370    0.4961    0.0000 C   0  0  0  0  0  0  0  0  0  0  0  0
   -4.8728    1.6451    0.0000 H   0  0  0  0  0  0  0  0  0  0  0  0
   -6.8013    1.6451    0.0000 C   0  0  0  0  0  0  0  0  0  0  0  0
   -5.5024    2.3953    0.0000 H   0  0  0  0  0  0  0  0  0  0  0  0
   -8.2792    1.3839    0.0000 C   0  0  0  0  0  0  0  0  0  0  0  0
   -8.2794    2.8839    0.0000 H   0  0  0  0  0  0  0  0  0  0  0  0
   -8.7929   -0.0263    0.0000 C   0  0  0  0  0  0  0  0  0  0  0  0
  -10.0918    0.7239    0.0000 H   0  0  0  0  0  0  0  0  0  0  0  0
   -7.8287   -1.1753    0.0000 C   0  0  0  0  0  0  0  0  0  0  0  0
   -9.1276   -1.9255    0.0000 H   0  0  0  0  0  0  0  0  0  0  0  0
   -7.3153   -2.5847    0.0000 C   0  0  0  0  0  0  0  0  0  0  0  0
   -5.8380   -2.8448    0.0000 O   0  0  0  0  0  0  0  0  0  0  0  0
   -8.2791   -3.7340    0.0000 O   0  0  0  0  0  0  0  0  0  0  0  0
   -9.7564   -3.4739    0.0000 H   0  0  0  0  0  0  0  0  0  0  0  0
   -6.3507   -0.9141    0.0000 O   0  0  0  0  0  0  0  0  0  0  0  0
   -9.7571   -1.1753    0.0000 O   0  0  0  0  0  0  0  0  0  0  0  0
  -11.2343   -0.9147    0.0000 H   0  0  0  0  0  0  0  0  0  0  0  0
   -9.7564    1.6445    0.0000 O   0  0  0  0  0  0  0  0  0  0  0  0
  -10.2694    3.0540    0.0000 H   0  0  0  0  0  0  0  0  0  0  0  0
   -7.3147    3.0545    0.0000 O   0  0  0  0  0  0  0  0  0  0  0  0
   -6.3508    4.2038    0.0000 H   0  0  0  0  0  0  0  0  0  0  0  0
   -3.2385    1.9965    0.0000 N   0  0  0  0  0  0  0  0  0  0  0  0
   -1.9390    2.7473    0.0000 C   0  0  0  0  0  0  0  0  0  0  0  0
   -1.9392    4.2473    0.0000 N   0  0  0  0  0  0  0  0  0  0  0  0
   -0.6403    4.9975    0.0000 H   0  0  0  0  0  0  0  0  0  0  0  0
   -3.2384    4.9971    0.0000 H   0  0  0  0  0  0  0  0  0  0  0  0
   -0.6399    1.9973    0.0000 N   0  0  0  0  0  0  0  0  0  0  0  0
   -0.6404    0.4965    0.0000 C   0  0  0  0  0  0  0  0  0  0  0  0
    0.3238   -0.6526    0.0000 H   0  0  0  0  0  0  0  0  0  0  0  0
  1  2  1  0  0  0  0 
  1  3  1  0  0  0  0 
  1  4  1  0  0  0  0 
  1  5  1  0  0  0  0 
  5  6  1  0  0  0  0 
  6  7  2  0  0  0  0 
  7  8  1  0  0  0  0 
  7  9  1  0  0  0  0 
  9 10  2  0  0  0  0 
 10 11  1  0  0  0  0 
 10 12  1  0  0  0  0 
 12 13  2  0  0  0  0 
  6 13  1  0  0  0  0 
 13 14  1  0  0  0  0 
 14 15  1  0  0  0  0 
 15 16  1  0  0  0  0 
 15 17  1  0  0  0  0 
 15 18  1  0  0  0  0 
 12 19  1  0  0  0  0 
 19 20  1  0  0  0  0 
 20 21  1  0  0  0  0 
 20 22  1  0  0  0  0 
 20 23  1  0  0  0  0 
  9 24  1  0  0  0  0 
 24 25  1  0  0  0  0 
 24 26  1  0  0  0  0 
 24 27  1  0  0  0  0 
 27 28  2  0  0  0  0 
 28 29  1  0  0  0  0 
 29 30  1  0  0  0  0 
 29 31  1  0  0  0  0 
 31 32  1  0  0  0  0 
 31 33  1  0  0  0  0 
 33 34  1  0  0  0  0 
 33 35  1  0  0  0  0 
 35 36  1  0  0  0  0 
 35 37  1  0  0  0  0 
 37 38  1  0  0  0  0 
 37 39  1  0  0  0  0 
 39 40  1  0  0  0  0 
 39 41  1  0  0  0  0 
 41 42  2  0  0  0  0 
 41 43  1  0  0  0  0 
 43 44  1  0  0  0  0 
 39 45  1  0  0  0  0 
 31 45  1  0  0  0  0 
 37 46  1  0  0  0  0 
 46 47  1  0  0  0  0 
 35 48  1  0  0  0  0 
 48 49  1  0  0  0  0 
 33 50  1  0  0  0  0 
 50 51  1  0  0  0  0 
 28 52  1  0  0  0  0 
 52 53  2  0  0  0  0 
 53 54  1  0  0  0  0 
 54 55  1  0  0  0  0 
 54 56  1  0  0  0  0 
 53 57  1  0  0  0  0 
 57 58  2  0  0  0  0 
 27 58  1  0  0  0  0 
 58 59  1  0  0  0  0 
M  END
> <Rank>
1

> <Priority_score>
0.704

> <Reaction_type>
N-glucuronidation_(aniline)

> <Parent_ID>
43

> <Parent_InChI>
InChI=1S/C14H18N4O3/c1-19-10-5-8(6-11(20-2)12(10)21-3)4-9-7-17-14(16)18-13(9)15/h5-7H,4H2,1-3H3,(H4,15,16,17,18)

> <Parent_SMILES>
COc1cc(Cc2cnc(N)nc2N)cc(OC)c1OC

$$$$
Molecule 43_metabolite 2
  CDK     0516241031

 40 41  0  0  0  0  0  0  0  0999 V2000
   -4.7165   -4.8991    0.0000 C   0  0  0  0  0  0  0  0  0  0  0  0
   -6.0153   -5.6495    0.0000 H   0  0  0  0  0  0  0  0  0  0  0  0
   -4.2030   -6.3085    0.0000 H   0  0  0  0  0  0  0  0  0  0  0  0
   -3.2394   -4.6382    0.0000 H   0  0  0  0  0  0  0  0  0  0  0  0
   -4.7170   -3.3991    0.0000 O   0  0  0  0  0  0  0  0  0  0  0  0
   -3.4182   -2.6487    0.0000 C   0  0  0  0  0  0  0  0  0  0  0  0
   -3.4184   -1.1487    0.0000 C   0  0  0  0  0  0  0  0  0  0  0  0
   -4.7175   -0.3987    0.0000 H   0  0  0  0  0  0  0  0  0  0  0  0
   -2.1185   -0.3985    0.0000 C   0  0  0  0  0  0  0  0  0  0  0  0
   -0.8184   -1.1483    0.0000 C   0  0  0  0  0  0  0  0  0  0  0  0
    0.4804   -0.3979    0.0000 H   0  0  0  0  0  0  0  0  0  0  0  0
   -0.8182   -2.6483    0.0000 C   0  0  0  0  0  0  0  0  0  0  0  0
   -2.1181   -3.3985    0.0000 C   0  0  0  0  0  0  0  0  0  0  0  0
   -2.1178   -4.8985    0.0000 O   0  0  0  0  0  0  0  0  0  0  0  0
   -0.8187   -5.6483    0.0000 C   0  0  0  0  0  0  0  0  0  0  0  0
   -0.8184   -7.1483    0.0000 H   0  0  0  0  0  0  0  0  0  0  0  0
    0.6586   -5.9085    0.0000 H   0  0  0  0  0  0  0  0  0  0  0  0
   -0.3059   -4.2387    0.0000 H   0  0  0  0  0  0  0  0  0  0  0  0
    0.4809   -3.3983    0.0000 O   0  0  0  0  0  0  0  0  0  0  0  0
    1.7799   -2.6483    0.0000 C   0  0  0  0  0  0  0  0  0  0  0  0
    3.0789   -3.3983    0.0000 H   0  0  0  0  0  0  0  0  0  0  0  0
    2.7441   -1.4992    0.0000 H   0  0  0  0  0  0  0  0  0  0  0  0
    0.8157   -1.4992    0.0000 H   0  0  0  0  0  0  0  0  0  0  0  0
   -2.1188    1.1015    0.0000 C   0  0  0  0  0  0  0  0  0  0  0  0
   -0.6415    0.8413    0.0000 H   0  0  0  0  0  0  0  0  0  0  0  0
   -4.2494    2.3312    0.0000 C   0  0  0  0  0  0  0  0  0  0  0  0
   -4.2499    3.8312    0.0000 C   0  0  0  0  0  0  0  0  0  0  0  0
   -2.9512    4.5818    0.0000 N   0  0  0  0  0  0  0  0  0  0  0  0
   -2.9519    6.0818    0.0000 H   0  0  0  0  0  0  0  0  0  0  0  0
   -1.6518    3.8324    0.0000 H   0  0  0  0  0  0  0  0  0  0  0  0
   -5.5501    4.5807    0.0000 N   0  0  0  0  0  0  0  0  0  0  0  0
   -6.8499    3.8303    0.0000 C   0  0  0  0  0  0  0  0  0  0  0  0
   -8.1490    4.5801    0.0000 N   0  0  0  0  0  0  0  0  0  0  0  0
   -9.4480    3.8299    0.0000 H   0  0  0  0  0  0  0  0  0  0  0  0
   -8.1493    6.0801    0.0000 H   0  0  0  0  0  0  0  0  0  0  0  0
   -6.8494    2.3303    0.0000 N   0  0  0  0  0  0  0  0  0  0  0  0
   -5.5492    1.5807    0.0000 C   0  0  0  0  0  0  0  0  0  0  0  0
   -5.8092    0.1034    0.0000 H   0  0  0  0  0  0  0  0  0  0  0  0
   -1.6060    2.5111    0.0000 O   0  0  0  0  0  0  0  0  0  0  0  0
   -0.1288    2.7718    0.0000 H   0  0  0  0  0  0  0  0  0  0  0  0
  1  2  1  0  0  0  0 
  1  3  1  0  0  0  0 
  1  4  1  0  0  0  0 
  1  5  1  0  0  0  0 
  5  6  1  0  0  0  0 
  6  7  2  0  0  0  0 
  7  8  1  0  0  0  0 
  7  9  1  0  0  0  0 
  9 10  2  0  0  0  0 
 10 11  1  0  0  0  0 
 10 12  1  0  0  0  0 
 12 13  2  0  0  0  0 
  6 13  1  0  0  0  0 
 13 14  1  0  0  0  0 
 14 15  1  0  0  0  0 
 15 16  1  0  0  0  0 
 15 17  1  0  0  0  0 
 15 18  1  0  0  0  0 
 12 19  1  0  0  0  0 
 19 20  1  0  0  0  0 
 20 21  1  0  0  0  0 
 20 22  1  0  0  0  0 
 20 23  1  0  0  0  0 
  9 24  1  0  0  0  0 
 24 25  1  0  0  0  0 
 24 26  1  0  0  0  0 
 26 27  2  0  0  0  0 
 27 28  1  0  0  0  0 
 28 29  1  0  0  0  0 
 28 30  1  0  0  0  0 
 27 31  1  0  0  0  0 
 31 32  2  0  0  0  0 
 32 33  1  0  0  0  0 
 33 34  1  0  0  0  0 
 33 35  1  0  0  0  0 
 32 36  1  0  0  0  0 
 36 37  2  0  0  0  0 
 26 37  1  0  0  0  0 
 37 38  1  0  0  0  0 
 24 39  1  0  0  0  0 
 39 40  1  0  0  0  0 
M  END
> <Rank>
2

> <Priority_score>
0.632

> <Reaction_type>
benzylic_hydroxylation_(c-CH2-CR)

> <Parent_ID>
43

> <Parent_InChI>
InChI=1S/C14H18N4O3/c1-19-10-5-8(6-11(20-2)12(10)21-3)4-9-7-17-14(16)18-13(9)15/h5-7H,4H2,1-3H3,(H4,15,16,17,18)

> <Parent_SMILES>
COc1cc(Cc2cnc(N)nc2N)cc(OC)c1OC

$$$$
Molecule 43_metabolite 3
  CDK     0516241031

 59 61  0  0  0  0  0  0  0  0999 V2000
   -7.3281    3.2697    0.0000 C   0  0  0  0  0  0  0  0  0  0  0  0
   -7.3285    4.7697    0.0000 H   0  0  0  0  0  0  0  0  0  0  0  0
   -8.8054    3.5297    0.0000 H   0  0  0  0  0  0  0  0  0  0  0  0
   -7.8406    1.8600    0.0000 H   0  0  0  0  0  0  0  0  0  0  0  0
   -6.0288    2.5201    0.0000 O   0  0  0  0  0  0  0  0  0  0  0  0
   -6.0283    1.0201    0.0000 C   0  0  0  0  0  0  0  0  0  0  0  0
   -4.7291    0.2703    0.0000 C   0  0  0  0  0  0  0  0  0  0  0  0
   -3.4301    1.0203    0.0000 H   0  0  0  0  0  0  0  0  0  0  0  0
   -4.7294   -1.2305    0.0000 C   0  0  0  0  0  0  0  0  0  0  0  0
   -6.0288   -1.9816    0.0000 C   0  0  0  0  0  0  0  0  0  0  0  0
   -6.0283   -3.4816    0.0000 H   0  0  0  0  0  0  0  0  0  0  0  0
   -7.3279   -1.2318    0.0000 C   0  0  0  0  0  0  0  0  0  0  0  0
   -7.3277    0.2690    0.0000 C   0  0  0  0  0  0  0  0  0  0  0  0
   -8.6269    1.0188    0.0000 O   0  0  0  0  0  0  0  0  0  0  0  0
   -9.9258    0.2686    0.0000 C   0  0  0  0  0  0  0  0  0  0  0  0
  -11.2249    1.0184    0.0000 H   0  0  0  0  0  0  0  0  0  0  0  0
  -10.8898   -0.8806    0.0000 H   0  0  0  0  0  0  0  0  0  0  0  0
   -8.9614   -0.8803    0.0000 H   0  0  0  0  0  0  0  0  0  0  0  0
   -8.6270   -1.9818    0.0000 O   0  0  0  0  0  0  0  0  0  0  0  0
   -8.6270   -3.4818    0.0000 C   0  0  0  0  0  0  0  0  0  0  0  0
   -9.9260   -4.2318    0.0000 H   0  0  0  0  0  0  0  0  0  0  0  0
   -8.1139   -4.8913    0.0000 H   0  0  0  0  0  0  0  0  0  0  0  0
   -7.1498   -3.2213    0.0000 H   0  0  0  0  0  0  0  0  0  0  0  0
   -3.4302   -1.9803    0.0000 C   0  0  0  0  0  0  0  0  0  0  0  0
   -4.3942   -3.1296    0.0000 H   0  0  0  0  0  0  0  0  0  0  0  0
   -2.4659   -3.1293    0.0000 H   0  0  0  0  0  0  0  0  0  0  0  0
   -1.3000   -0.7500    0.0000 C   0  0  0  0  0  0  0  0  0  0  0  0
   -0.0007   -1.4996    0.0000 C   0  0  0  0  0  0  0  0  0  0  0  0
   -0.0000   -2.9996    0.0000 N   0  0  0  0  0  0  0  0  0  0  0  0
    1.2994   -3.7490    0.0000 H   0  0  0  0  0  0  0  0  0  0  0  0
   -1.2987   -3.7502    0.0000 H   0  0  0  0  0  0  0  0  0  0  0  0
    1.2986   -0.7483    0.0000 N   0  0  0  0  0  0  0  0  0  0  0  0
    1.2986    0.7525    0.0000 C   0  0  0  0  0  0  0  0  0  0  0  0
   -0.0007    1.5021    0.0000 N   0  0  0  0  0  0  0  0  0  0  0  0
   -1.3000    0.7508    0.0000 C   0  0  0  0  0  0  0  0  0  0  0  0
   -2.4494    1.7146    0.0000 H   0  0  0  0  0  0  0  0  0  0  0  0
    2.5975    1.5027    0.0000 N   0  0  0  0  0  0  0  0  0  0  0  0
    3.8966    0.7529    0.0000 H   0  0  0  0  0  0  0  0  0  0  0  0
    2.5972    3.0027    0.0000 C   0  0  0  0  0  0  0  0  0  0  0  0
    1.1200    2.7422    0.0000 H   0  0  0  0  0  0  0  0  0  0  0  0
    2.0843    4.4123    0.0000 C   0  0  0  0  0  0  0  0  0  0  0  0
    0.7851    3.6625    0.0000 H   0  0  0  0  0  0  0  0  0  0  0  0
    3.0494    5.5616    0.0000 C   0  0  0  0  0  0  0  0  0  0  0  0
    1.7505    6.3118    0.0000 H   0  0  0  0  0  0  0  0  0  0  0  0
    4.5275    5.3014    0.0000 C   0  0  0  0  0  0  0  0  0  0  0  0
    4.5273    6.8014    0.0000 H   0  0  0  0  0  0  0  0  0  0  0  0
    5.0405    3.8918    0.0000 C   0  0  0  0  0  0  0  0  0  0  0  0
    6.3396    4.6416    0.0000 H   0  0  0  0  0  0  0  0  0  0  0  0
    6.0044    2.7425    0.0000 C   0  0  0  0  0  0  0  0  0  0  0  0
    5.4910    1.3331    0.0000 O   0  0  0  0  0  0  0  0  0  0  0  0
    7.4816    3.0026    0.0000 O   0  0  0  0  0  0  0  0  0  0  0  0
    7.9950    4.4120    0.0000 H   0  0  0  0  0  0  0  0  0  0  0  0
    4.0753    2.7425    0.0000 O   0  0  0  0  0  0  0  0  0  0  0  0
    6.0047    5.5619    0.0000 O   0  0  0  0  0  0  0  0  0  0  0  0
    6.5177    6.9715    0.0000 H   0  0  0  0  0  0  0  0  0  0  0  0
    3.5624    6.9712    0.0000 O   0  0  0  0  0  0  0  0  0  0  0  0
    2.5981    8.1202    0.0000 H   0  0  0  0  0  0  0  0  0  0  0  0
    1.1204    5.5616    0.0000 O   0  0  0  0  0  0  0  0  0  0  0  0
   -0.3569    5.3015    0.0000 H   0  0  0  0  0  0  0  0  0  0  0  0
  1  2  1  0  0  0  0 
  1  3  1  0  0  0  0 
  1  4  1  0  0  0  0 
  1  5  1  0  0  0  0 
  5  6  1  0  0  0  0 
  6  7  2  0  0  0  0 
  7  8  1  0  0  0  0 
  7  9  1  0  0  0  0 
  9 10  2  0  0  0  0 
 10 11  1  0  0  0  0 
 10 12  1  0  0  0  0 
 12 13  2  0  0  0  0 
  6 13  1  0  0  0  0 
 13 14  1  0  0  0  0 
 14 15  1  0  0  0  0 
 15 16  1  0  0  0  0 
 15 17  1  0  0  0  0 
 15 18  1  0  0  0  0 
 12 19  1  0  0  0  0 
 19 20  1  0  0  0  0 
 20 21  1  0  0  0  0 
 20 22  1  0  0  0  0 
 20 23  1  0  0  0  0 
  9 24  1  0  0  0  0 
 24 25  1  0  0  0  0 
 24 26  1  0  0  0  0 
 24 27  1  0  0  0  0 
 27 28  2  0  0  0  0 
 28 29  1  0  0  0  0 
 29 30  1  0  0  0  0 
 29 31  1  0  0  0  0 
 28 32  1  0  0  0  0 
 32 33  2  0  0  0  0 
 33 34  1  0  0  0  0 
 34 35  2  0  0  0  0 
 27 35  1  0  0  0  0 
 35 36  1  0  0  0  0 
 33 37  1  0  0  0  0 
 37 38  1  0  0  0  0 
 37 39  1  0  0  0  0 
 39 40  1  0  0  0  0 
 39 41  1  0  0  0  0 
 41 42  1  0  0  0  0 
 41 43  1  0  0  0  0 
 43 44  1  0  0  0  0 
 43 45  1  0  0  0  0 
 45 46  1  0  0  0  0 
 45 47  1  0  0  0  0 
 47 48  1  0  0  0  0 
 47 49  1  0  0  0  0 
 49 50  2  0  0  0  0 
 49 51  1  0  0  0  0 
 51 52  1  0  0  0  0 
 47 53  1  0  0  0  0 
 39 53  1  0  0  0  0 
 45 54  1  0  0  0  0 
 54 55  1  0  0  0  0 
 43 56  1  0  0  0  0 
 56 57  1  0  0  0  0 
 41 58  1  0  0  0  0 
 58 59  1  0  0  0  0 
M  END
> <Rank>
3

> <Priority_score>
0.62

> <Reaction_type>
N-glucuronidation_(aniline)

> <Parent_ID>
43

> <Parent_InChI>
InChI=1S/C14H18N4O3/c1-19-10-5-8(6-11(20-2)12(10)21-3)4-9-7-17-14(16)18-13(9)15/h5-7H,4H2,1-3H3,(H4,15,16,17,18)

> <Parent_SMILES>
COc1cc(Cc2cnc(N)nc2N)cc(OC)c1OC

$$$$
Molecule 43_metabolite 4
  CDK     0516241031

 43 44  0  0  0  0  0  0  0  0999 V2000
    0.4155   -3.1480    0.0000 C   0  0  0  0  0  0  0  0  0  0  0  0
    0.4160   -4.6480    0.0000 H   0  0  0  0  0  0  0  0  0  0  0  0
    1.8928   -3.4080    0.0000 H   0  0  0  0  0  0  0  0  0  0  0  0
    0.9281   -1.7383    0.0000 H   0  0  0  0  0  0  0  0  0  0  0  0
   -0.8838   -2.3984    0.0000 O   0  0  0  0  0  0  0  0  0  0  0  0
   -0.8843   -0.8984    0.0000 C   0  0  0  0  0  0  0  0  0  0  0  0
   -2.1834   -0.1486    0.0000 C   0  0  0  0  0  0  0  0  0  0  0  0
   -3.4825   -0.8986    0.0000 H   0  0  0  0  0  0  0  0  0  0  0  0
   -2.1832    1.3522    0.0000 C   0  0  0  0  0  0  0  0  0  0  0  0
   -0.8838    2.1032    0.0000 C   0  0  0  0  0  0  0  0  0  0  0  0
   -0.8843    3.6032    0.0000 H   0  0  0  0  0  0  0  0  0  0  0  0
    0.4154    1.3534    0.0000 C   0  0  0  0  0  0  0  0  0  0  0  0
    0.4151   -0.1474    0.0000 C   0  0  0  0  0  0  0  0  0  0  0  0
    1.7143   -0.8972    0.0000 O   0  0  0  0  0  0  0  0  0  0  0  0
    3.0132   -0.1470    0.0000 C   0  0  0  0  0  0  0  0  0  0  0  0
    4.3124   -0.8968    0.0000 H   0  0  0  0  0  0  0  0  0  0  0  0
    3.9772    1.0022    0.0000 H   0  0  0  0  0  0  0  0  0  0  0  0
    2.0488    1.0019    0.0000 H   0  0  0  0  0  0  0  0  0  0  0  0
    1.7144    2.1034    0.0000 O   0  0  0  0  0  0  0  0  0  0  0  0
    1.7144    3.6034    0.0000 C   0  0  0  0  0  0  0  0  0  0  0  0
    3.0134    4.3534    0.0000 H   0  0  0  0  0  0  0  0  0  0  0  0
    1.2014    5.0130    0.0000 H   0  0  0  0  0  0  0  0  0  0  0  0
    0.2372    3.3430    0.0000 H   0  0  0  0  0  0  0  0  0  0  0  0
   -3.8981    2.3419    0.0000 C   0  0  0  0  0  0  0  0  0  0  0  0
   -2.9341    3.4911    0.0000 H   0  0  0  0  0  0  0  0  0  0  0  0
   -4.8624    3.4908    0.0000 H   0  0  0  0  0  0  0  0  0  0  0  0
   -5.6126    1.3516    0.0000 C   0  0  0  0  0  0  0  0  0  0  0  0
   -6.9119    2.1012    0.0000 C   0  0  0  0  0  0  0  0  0  0  0  0
   -6.9126    3.6012    0.0000 N   0  0  0  0  0  0  0  0  0  0  0  0
   -8.2120    4.3506    0.0000 H   0  0  0  0  0  0  0  0  0  0  0  0
   -5.6140    4.3519    0.0000 H   0  0  0  0  0  0  0  0  0  0  0  0
   -8.2112    1.3500    0.0000 N   0  0  0  0  0  0  0  0  0  0  0  0
   -8.2112   -0.1509    0.0000 C   0  0  0  0  0  0  0  0  0  0  0  0
   -6.9119   -0.9004    0.0000 N   0  0  0  0  0  0  0  0  0  0  0  0
   -5.6126   -0.1492    0.0000 C   0  0  0  0  0  0  0  0  0  0  0  0
   -4.4633   -1.1130    0.0000 H   0  0  0  0  0  0  0  0  0  0  0  0
   -9.5101   -0.9011    0.0000 N   0  0  0  0  0  0  0  0  0  0  0  0
  -10.8093   -0.1513    0.0000 H   0  0  0  0  0  0  0  0  0  0  0  0
   -9.5099   -2.4011    0.0000 S   0  0  0  0  0  0  0  0  0  0  0  0
   -8.0327   -2.1404    0.0000 O   0  0  0  0  0  0  0  0  0  0  0  0
   -8.9966   -3.8105    0.0000 O   0  0  0  0  0  0  0  0  0  0  0  0
  -10.8088   -3.1513    0.0000 O   0  0  0  0  0  0  0  0  0  0  0  0
  -10.8086   -4.6513    0.0000 H   0  0  0  0  0  0  0  0  0  0  0  0
  1  2  1  0  0  0  0 
  1  3  1  0  0  0  0 
  1  4  1  0  0  0  0 
  1  5  1  0  0  0  0 
  5  6  1  0  0  0  0 
  6  7  2  0  0  0  0 
  7  8  1  0  0  0  0 
  7  9  1  0  0  0  0 
  9 10  2  0  0  0  0 
 10 11  1  0  0  0  0 
 10 12  1  0  0  0  0 
 12 13  2  0  0  0  0 
  6 13  1  0  0  0  0 
 13 14  1  0  0  0  0 
 14 15  1  0  0  0  0 
 15 16  1  0  0  0  0 
 15 17  1  0  0  0  0 
 15 18  1  0  0  0  0 
 12 19  1  0  0  0  0 
 19 20  1  0  0  0  0 
 20 21  1  0  0  0  0 
 20 22  1  0  0  0  0 
 20 23  1  0  0  0  0 
  9 24  1  0  0  0  0 
 24 25  1  0  0  0  0 
 24 26  1  0  0  0  0 
 24 27  1  0  0  0  0 
 27 28  2  0  0  0  0 
 28 29  1  0  0  0  0 
 29 30  1  0  0  0  0 
 29 31  1  0  0  0  0 
 28 32  1  0  0  0  0 
 32 33  2  0  0  0  0 
 33 34  1  0  0  0  0 
 34 35  2  0  0  0  0 
 27 35  1  0  0  0  0 
 35 36  1  0  0  0  0 
 33 37  1  0  0  0  0 
 37 38  1  0  0  0  0 
 37 39  1  0  0  0  0 
 39 40  2  0  0  0  0 
 39 41  2  0  0  0  0 
 39 42  1  0  0  0  0 
 42 43  1  0  0  0  0 
M  END
> <Rank>
4

> <Priority_score>
0.608

> <Reaction_type>
sulfation_(aniline)

> <Parent_ID>
43

> <Parent_InChI>
InChI=1S/C14H18N4O3/c1-19-10-5-8(6-11(20-2)12(10)21-3)4-9-7-17-14(16)18-13(9)15/h5-7H,4H2,1-3H3,(H4,15,16,17,18)

> <Parent_SMILES>
COc1cc(Cc2cnc(N)nc2N)cc(OC)c1OC

$$$$
Molecule 43_metabolite 5
  CDK     0516241031

 44 45  0  0  0  0  0  0  0  0999 V2000
    4.3119    3.5130    0.0000 C   0  0  0  0  0  0  0  0  0  0  0  0
    4.3116    5.0130    0.0000 H   0  0  0  0  0  0  0  0  0  0  0  0
    5.7891    3.7737    0.0000 H   0  0  0  0  0  0  0  0  0  0  0  0
    4.8251    2.1035    0.0000 H   0  0  0  0  0  0  0  0  0  0  0  0
    3.0130    2.7628    0.0000 C   0  0  0  0  0  0  0  0  0  0  0  0
    1.7138    3.5126    0.0000 O   0  0  0  0  0  0  0  0  0  0  0  0
    3.0132    1.2628    0.0000 N   0  0  0  0  0  0  0  0  0  0  0  0
    4.3124    0.5130    0.0000 H   0  0  0  0  0  0  0  0  0  0  0  0
    1.7143    0.5126    0.0000 C   0  0  0  0  0  0  0  0  0  0  0  0
    1.7143   -0.9883    0.0000 N   0  0  0  0  0  0  0  0  0  0  0  0
    0.4150   -1.7395    0.0000 C   0  0  0  0  0  0  0  0  0  0  0  0
   -0.8843   -0.9899    0.0000 C   0  0  0  0  0  0  0  0  0  0  0  0
   -2.5988   -1.9802    0.0000 C   0  0  0  0  0  0  0  0  0  0  0  0
   -3.5628   -3.1294    0.0000 H   0  0  0  0  0  0  0  0  0  0  0  0
   -1.6345   -3.1291    0.0000 H   0  0  0  0  0  0  0  0  0  0  0  0
   -4.3137   -0.9905    0.0000 C   0  0  0  0  0  0  0  0  0  0  0  0
   -5.6131   -1.7415    0.0000 C   0  0  0  0  0  0  0  0  0  0  0  0
   -5.6126   -3.2415    0.0000 H   0  0  0  0  0  0  0  0  0  0  0  0
   -6.9123   -0.9917    0.0000 C   0  0  0  0  0  0  0  0  0  0  0  0
   -6.9120    0.5091    0.0000 C   0  0  0  0  0  0  0  0  0  0  0  0
   -5.6126    1.2601    0.0000 C   0  0  0  0  0  0  0  0  0  0  0  0
   -4.3135    0.5104    0.0000 C   0  0  0  0  0  0  0  0  0  0  0  0
   -3.0145    1.2604    0.0000 H   0  0  0  0  0  0  0  0  0  0  0  0
   -5.6131    2.7601    0.0000 O   0  0  0  0  0  0  0  0  0  0  0  0
   -6.9124    3.5097    0.0000 C   0  0  0  0  0  0  0  0  0  0  0  0
   -6.9129    5.0097    0.0000 H   0  0  0  0  0  0  0  0  0  0  0  0
   -8.3897    3.7697    0.0000 H   0  0  0  0  0  0  0  0  0  0  0  0
   -7.4250    2.1000    0.0000 H   0  0  0  0  0  0  0  0  0  0  0  0
   -8.2112    1.2589    0.0000 O   0  0  0  0  0  0  0  0  0  0  0  0
   -9.5101    0.5087    0.0000 C   0  0  0  0  0  0  0  0  0  0  0  0
  -10.8093    1.2585    0.0000 H   0  0  0  0  0  0  0  0  0  0  0  0
  -10.4741   -0.6405    0.0000 H   0  0  0  0  0  0  0  0  0  0  0  0
   -8.5458   -0.6402    0.0000 H   0  0  0  0  0  0  0  0  0  0  0  0
   -8.2113   -1.7417    0.0000 O   0  0  0  0  0  0  0  0  0  0  0  0
   -8.2113   -3.2417    0.0000 C   0  0  0  0  0  0  0  0  0  0  0  0
   -9.5104   -3.9917    0.0000 H   0  0  0  0  0  0  0  0  0  0  0  0
   -6.7341   -2.9813    0.0000 H   0  0  0  0  0  0  0  0  0  0  0  0
   -7.6983   -4.6513    0.0000 H   0  0  0  0  0  0  0  0  0  0  0  0
   -0.8843    0.5109    0.0000 C   0  0  0  0  0  0  0  0  0  0  0  0
   -2.0336    1.4747    0.0000 H   0  0  0  0  0  0  0  0  0  0  0  0
    0.4150    1.2621    0.0000 N   0  0  0  0  0  0  0  0  0  0  0  0
    0.4157   -3.2395    0.0000 N   0  0  0  0  0  0  0  0  0  0  0  0
    1.7151   -3.9889    0.0000 H   0  0  0  0  0  0  0  0  0  0  0  0
   -0.8829   -3.9901    0.0000 H   0  0  0  0  0  0  0  0  0  0  0  0
  1  2  1  0  0  0  0 
  1  3  1  0  0  0  0 
  1  4  1  0  0  0  0 
  1  5  1  0  0  0  0 
  5  6  2  0  0  0  0 
  5  7  1  0  0  0  0 
  7  8  1  0  0  0  0 
  7  9  1  0  0  0  0 
  9 10  2  0  0  0  0 
 10 11  1  0  0  0  0 
 11 12  2  0  0  0  0 
 12 13  1  0  0  0  0 
 13 14  1  0  0  0  0 
 13 15  1  0  0  0  0 
 13 16  1  0  0  0  0 
 16 17  2  0  0  0  0 
 17 18  1  0  0  0  0 
 17 19  1  0  0  0  0 
 19 20  2  0  0  0  0 
 20 21  1  0  0  0  0 
 21 22  2  0  0  0  0 
 16 22  1  0  0  0  0 
 22 23  1  0  0  0  0 
 21 24  1  0  0  0  0 
 24 25  1  0  0  0  0 
 25 26  1  0  0  0  0 
 25 27  1  0  0  0  0 
 25 28  1  0  0  0  0 
 20 29  1  0  0  0  0 
 29 30  1  0  0  0  0 
 30 31  1  0  0  0  0 
 30 32  1  0  0  0  0 
 30 33  1  0  0  0  0 
 19 34  1  0  0  0  0 
 34 35  1  0  0  0  0 
 35 36  1  0  0  0  0 
 35 37  1  0  0  0  0 
 35 38  1  0  0  0  0 
 12 39  1  0  0  0  0 
 39 40  1  0  0  0  0 
 39 41  2  0  0  0  0 
  9 41  1  0  0  0  0 
 11 42  1  0  0  0  0 
 42 43  1  0  0  0  0 
 42 44  1  0  0  0  0 
M  END
> <Rank>
5

> <Priority_score>
0.584

> <Reaction_type>
N-acetylation_(aniline)

> <Parent_ID>
43

> <Parent_InChI>
InChI=1S/C14H18N4O3/c1-19-10-5-8(6-11(20-2)12(10)21-3)4-9-7-17-14(16)18-13(9)15/h5-7H,4H2,1-3H3,(H4,15,16,17,18)

> <Parent_SMILES>
COc1cc(Cc2cnc(N)nc2N)cc(OC)c1OC

$$$$
Molecule 43_metabolite 6
  CDK     0516241031

 44 45  0  0  0  0  0  0  0  0999 V2000
   -7.7946    3.8403    0.0000 C   0  0  0  0  0  0  0  0  0  0  0  0
   -9.0936    4.5903    0.0000 H   0  0  0  0  0  0  0  0  0  0  0  0
   -6.3174    3.5798    0.0000 H   0  0  0  0  0  0  0  0  0  0  0  0
   -7.2816    5.2498    0.0000 H   0  0  0  0  0  0  0  0  0  0  0  0
   -7.7946    2.3403    0.0000 C   0  0  0  0  0  0  0  0  0  0  0  0
   -9.0936    1.5903    0.0000 O   0  0  0  0  0  0  0  0  0  0  0  0
   -6.4956    1.5903    0.0000 N   0  0  0  0  0  0  0  0  0  0  0  0
   -5.1965    2.3403    0.0000 H   0  0  0  0  0  0  0  0  0  0  0  0
   -6.4956    0.0903    0.0000 C   0  0  0  0  0  0  0  0  0  0  0  0
   -5.1956   -0.6597    0.0000 C   0  0  0  0  0  0  0  0  0  0  0  0
   -3.8966    0.0905    0.0000 C   0  0  0  0  0  0  0  0  0  0  0  0
   -2.9326    1.2397    0.0000 H   0  0  0  0  0  0  0  0  0  0  0  0
   -4.8610    1.2394    0.0000 H   0  0  0  0  0  0  0  0  0  0  0  0
   -1.7660   -1.1392    0.0000 C   0  0  0  0  0  0  0  0  0  0  0  0
   -0.4666   -0.3882    0.0000 C   0  0  0  0  0  0  0  0  0  0  0  0
   -0.4671    1.1118    0.0000 H   0  0  0  0  0  0  0  0  0  0  0  0
    0.8325   -1.1379    0.0000 C   0  0  0  0  0  0  0  0  0  0  0  0
    0.8323   -2.6388    0.0000 C   0  0  0  0  0  0  0  0  0  0  0  0
   -0.4671   -3.3898    0.0000 C   0  0  0  0  0  0  0  0  0  0  0  0
   -1.7663   -2.6400    0.0000 C   0  0  0  0  0  0  0  0  0  0  0  0
   -3.0653   -3.3900    0.0000 H   0  0  0  0  0  0  0  0  0  0  0  0
   -0.4666   -4.8898    0.0000 O   0  0  0  0  0  0  0  0  0  0  0  0
    0.8327   -5.6394    0.0000 C   0  0  0  0  0  0  0  0  0  0  0  0
    0.8331   -7.1394    0.0000 H   0  0  0  0  0  0  0  0  0  0  0  0
    2.3100   -5.8994    0.0000 H   0  0  0  0  0  0  0  0  0  0  0  0
    1.3452   -4.2297    0.0000 H   0  0  0  0  0  0  0  0  0  0  0  0
    2.1315   -3.3886    0.0000 O   0  0  0  0  0  0  0  0  0  0  0  0
    3.4304   -2.6384    0.0000 C   0  0  0  0  0  0  0  0  0  0  0  0
    4.7295   -3.3882    0.0000 H   0  0  0  0  0  0  0  0  0  0  0  0
    4.3944   -1.4891    0.0000 H   0  0  0  0  0  0  0  0  0  0  0  0
    2.4660   -1.4895    0.0000 H   0  0  0  0  0  0  0  0  0  0  0  0
    2.1316   -0.3879    0.0000 O   0  0  0  0  0  0  0  0  0  0  0  0
    2.1316    1.1121    0.0000 C   0  0  0  0  0  0  0  0  0  0  0  0
    3.4306    1.8621    0.0000 H   0  0  0  0  0  0  0  0  0  0  0  0
    0.6544    0.8516    0.0000 H   0  0  0  0  0  0  0  0  0  0  0  0
    1.6186    2.5216    0.0000 H   0  0  0  0  0  0  0  0  0  0  0  0
   -5.1956   -2.1597    0.0000 C   0  0  0  0  0  0  0  0  0  0  0  0
   -3.8966   -2.9100    0.0000 H   0  0  0  0  0  0  0  0  0  0  0  0
   -6.4956   -2.9097    0.0000 N   0  0  0  0  0  0  0  0  0  0  0  0
   -7.7956   -2.1597    0.0000 C   0  0  0  0  0  0  0  0  0  0  0  0
   -7.7956   -0.6597    0.0000 N   0  0  0  0  0  0  0  0  0  0  0  0
   -9.0945   -2.9100    0.0000 N   0  0  0  0  0  0  0  0  0  0  0  0
  -10.3936   -2.1602    0.0000 H   0  0  0  0  0  0  0  0  0  0  0  0
   -9.0942   -4.4100    0.0000 H   0  0  0  0  0  0  0  0  0  0  0  0
  1  2  1  0  0  0  0 
  1  3  1  0  0  0  0 
  1  4  1  0  0  0  0 
  1  5  1  0  0  0  0 
  5  6  2  0  0  0  0 
  5  7  1  0  0  0  0 
  7  8  1  0  0  0  0 
  7  9  1  0  0  0  0 
  9 10  2  0  0  0  0 
 10 11  1  0  0  0  0 
 11 12  1  0  0  0  0 
 11 13  1  0  0  0  0 
 11 14  1  0  0  0  0 
 14 15  2  0  0  0  0 
 15 16  1  0  0  0  0 
 15 17  1  0  0  0  0 
 17 18  2  0  0  0  0 
 18 19  1  0  0  0  0 
 19 20  2  0  0  0  0 
 14 20  1  0  0  0  0 
 20 21  1  0  0  0  0 
 19 22  1  0  0  0  0 
 22 23  1  0  0  0  0 
 23 24  1  0  0  0  0 
 23 25  1  0  0  0  0 
 23 26  1  0  0  0  0 
 18 27  1  0  0  0  0 
 27 28  1  0  0  0  0 
 28 29  1  0  0  0  0 
 28 30  1  0  0  0  0 
 28 31  1  0  0  0  0 
 17 32  1  0  0  0  0 
 32 33  1  0  0  0  0 
 33 34  1  0  0  0  0 
 33 35  1  0  0  0  0 
 33 36  1  0  0  0  0 
 10 37  1  0  0  0  0 
 37 38  1  0  0  0  0 
 37 39  2  0  0  0  0 
 39 40  1  0  0  0  0 
 40 41  2  0  0  0  0 
  9 41  1  0  0  0  0 
 40 42  1  0  0  0  0 
 42 43  1  0  0  0  0 
 42 44  1  0  0  0  0 
M  END
> <Rank>
6

> <Priority_score>
0.568

> <Reaction_type>
N-acetylation_(aniline)

> <Parent_ID>
43

> <Parent_InChI>
InChI=1S/C14H18N4O3/c1-19-10-5-8(6-11(20-2)12(10)21-3)4-9-7-17-14(16)18-13(9)15/h5-7H,4H2,1-3H3,(H4,15,16,17,18)

> <Parent_SMILES>
COc1cc(Cc2cnc(N)nc2N)cc(OC)c1OC

$$$$
Molecule 43_metabolite 7
  CDK     0516241031

 40 41  0  0  0  0  0  0  0  0999 V2000
   -4.6647   -5.2894    0.0000 C   0  0  0  0  0  0  0  0  0  0  0  0
   -5.9635   -6.0399    0.0000 H   0  0  0  0  0  0  0  0  0  0  0  0
   -4.1512   -6.6988    0.0000 H   0  0  0  0  0  0  0  0  0  0  0  0
   -3.1876   -5.0285    0.0000 H   0  0  0  0  0  0  0  0  0  0  0  0
   -4.6652   -3.7894    0.0000 O   0  0  0  0  0  0  0  0  0  0  0  0
   -3.3664   -3.0390    0.0000 C   0  0  0  0  0  0  0  0  0  0  0  0
   -3.3666   -1.5390    0.0000 C   0  0  0  0  0  0  0  0  0  0  0  0
   -4.6657   -0.7890    0.0000 H   0  0  0  0  0  0  0  0  0  0  0  0
   -2.0668   -0.7888    0.0000 C   0  0  0  0  0  0  0  0  0  0  0  0
   -0.7666   -1.5386    0.0000 C   0  0  0  0  0  0  0  0  0  0  0  0
    0.5322   -0.7882    0.0000 H   0  0  0  0  0  0  0  0  0  0  0  0
   -0.7664   -3.0386    0.0000 C   0  0  0  0  0  0  0  0  0  0  0  0
   -2.0663   -3.7888    0.0000 C   0  0  0  0  0  0  0  0  0  0  0  0
   -2.0660   -5.2888    0.0000 O   0  0  0  0  0  0  0  0  0  0  0  0
   -0.7669   -6.0386    0.0000 C   0  0  0  0  0  0  0  0  0  0  0  0
   -0.7666   -7.5386    0.0000 H   0  0  0  0  0  0  0  0  0  0  0  0
    0.7104   -6.2988    0.0000 H   0  0  0  0  0  0  0  0  0  0  0  0
   -0.2541   -4.6290    0.0000 H   0  0  0  0  0  0  0  0  0  0  0  0
    0.5326   -3.7886    0.0000 O   0  0  0  0  0  0  0  0  0  0  0  0
    1.8317   -3.0386    0.0000 C   0  0  0  0  0  0  0  0  0  0  0  0
    2.7959   -1.8895    0.0000 H   0  0  0  0  0  0  0  0  0  0  0  0
    0.8675   -1.8895    0.0000 H   0  0  0  0  0  0  0  0  0  0  0  0
    3.1307   -3.7886    0.0000 O   0  0  0  0  0  0  0  0  0  0  0  0
    4.4298   -3.0386    0.0000 H   0  0  0  0  0  0  0  0  0  0  0  0
   -2.0671    1.1912    0.0000 C   0  0  0  0  0  0  0  0  0  0  0  0
   -0.5898    0.9309    0.0000 H   0  0  0  0  0  0  0  0  0  0  0  0
   -1.5543    2.6008    0.0000 H   0  0  0  0  0  0  0  0  0  0  0  0
   -3.7820    2.1809    0.0000 C   0  0  0  0  0  0  0  0  0  0  0  0
   -3.7824    3.6809    0.0000 C   0  0  0  0  0  0  0  0  0  0  0  0
   -2.4838    4.4315    0.0000 N   0  0  0  0  0  0  0  0  0  0  0  0
   -2.4845    5.9315    0.0000 H   0  0  0  0  0  0  0  0  0  0  0  0
   -1.1844    3.6822    0.0000 H   0  0  0  0  0  0  0  0  0  0  0  0
   -5.0827    4.4305    0.0000 N   0  0  0  0  0  0  0  0  0  0  0  0
   -6.3824    3.6801    0.0000 C   0  0  0  0  0  0  0  0  0  0  0  0
   -7.6816    4.4299    0.0000 N   0  0  0  0  0  0  0  0  0  0  0  0
   -8.9805    3.6797    0.0000 H   0  0  0  0  0  0  0  0  0  0  0  0
   -7.6818    5.9299    0.0000 H   0  0  0  0  0  0  0  0  0  0  0  0
   -6.3820    2.1801    0.0000 N   0  0  0  0  0  0  0  0  0  0  0  0
   -5.0817    1.4305    0.0000 C   0  0  0  0  0  0  0  0  0  0  0  0
   -5.3417   -0.0468    0.0000 H   0  0  0  0  0  0  0  0  0  0  0  0
  1  2  1  0  0  0  0 
  1  3  1  0  0  0  0 
  1  4  1  0  0  0  0 
  1  5  1  0  0  0  0 
  5  6  1  0  0  0  0 
  6  7  2  0  0  0  0 
  7  8  1  0  0  0  0 
  7  9  1  0  0  0  0 
  9 10  2  0  0  0  0 
 10 11  1  0  0  0  0 
 10 12  1  0  0  0  0 
 12 13  2  0  0  0  0 
  6 13  1  0  0  0  0 
 13 14  1  0  0  0  0 
 14 15  1  0  0  0  0 
 15 16  1  0  0  0  0 
 15 17  1  0  0  0  0 
 15 18  1  0  0  0  0 
 12 19  1  0  0  0  0 
 19 20  1  0  0  0  0 
 20 21  1  0  0  0  0 
 20 22  1  0  0  0  0 
 20 23  1  0  0  0  0 
 23 24  1  0  0  0  0 
  9 25  1  0  0  0  0 
 25 26  1  0  0  0  0 
 25 27  1  0  0  0  0 
 25 28  1  0  0  0  0 
 28 29  2  0  0  0  0 
 29 30  1  0  0  0  0 
 30 31  1  0  0  0  0 
 30 32  1  0  0  0  0 
 29 33  1  0  0  0  0 
 33 34  2  0  0  0  0 
 34 35  1  0  0  0  0 
 35 36  1  0  0  0  0 
 35 37  1  0  0  0  0 
 34 38  1  0  0  0  0 
 38 39  2  0  0  0  0 
 28 39  1  0  0  0  0 
 39 40  1  0  0  0  0 
M  END
> <Rank>
7

> <Priority_score>
0.564

> <Reaction_type>
aliphatic hydroxylation

> <Parent_ID>
43

> <Parent_InChI>
InChI=1S/C14H18N4O3/c1-19-10-5-8(6-11(20-2)12(10)21-3)4-9-7-17-14(16)18-13(9)15/h5-7H,4H2,1-3H3,(H4,15,16,17,18)

> <Parent_SMILES>
COc1cc(Cc2cnc(N)nc2N)cc(OC)c1OC

$$$$
Molecule 43_metabolite 8
  CDK     0516241031

 36 37  0  0  0  0  0  0  0  0999 V2000
   -6.9124    3.5097    0.0000 C   0  0  0  0  0  0  0  0  0  0  0  0
   -6.9129    5.0097    0.0000 H   0  0  0  0  0  0  0  0  0  0  0  0
   -8.3897    3.7697    0.0000 H   0  0  0  0  0  0  0  0  0  0  0  0
   -7.4250    2.1000    0.0000 H   0  0  0  0  0  0  0  0  0  0  0  0
   -5.6131    2.7601    0.0000 O   0  0  0  0  0  0  0  0  0  0  0  0
   -5.6126    1.2601    0.0000 C   0  0  0  0  0  0  0  0  0  0  0  0
   -6.9120    0.5091    0.0000 C   0  0  0  0  0  0  0  0  0  0  0  0
   -6.9123   -0.9917    0.0000 C   0  0  0  0  0  0  0  0  0  0  0  0
   -5.6131   -1.7415    0.0000 C   0  0  0  0  0  0  0  0  0  0  0  0
   -5.6126   -3.2415    0.0000 H   0  0  0  0  0  0  0  0  0  0  0  0
   -4.3137   -0.9905    0.0000 C   0  0  0  0  0  0  0  0  0  0  0  0
   -4.3135    0.5104    0.0000 C   0  0  0  0  0  0  0  0  0  0  0  0
   -3.0145    1.2604    0.0000 H   0  0  0  0  0  0  0  0  0  0  0  0
   -2.5988   -1.9802    0.0000 C   0  0  0  0  0  0  0  0  0  0  0  0
   -3.5628   -3.1294    0.0000 H   0  0  0  0  0  0  0  0  0  0  0  0
   -1.6345   -3.1291    0.0000 H   0  0  0  0  0  0  0  0  0  0  0  0
   -0.8843   -0.9899    0.0000 C   0  0  0  0  0  0  0  0  0  0  0  0
    0.4150   -1.7395    0.0000 C   0  0  0  0  0  0  0  0  0  0  0  0
    0.4157   -3.2395    0.0000 N   0  0  0  0  0  0  0  0  0  0  0  0
    1.7151   -3.9889    0.0000 H   0  0  0  0  0  0  0  0  0  0  0  0
   -0.8829   -3.9901    0.0000 H   0  0  0  0  0  0  0  0  0  0  0  0
    1.7143   -0.9883    0.0000 N   0  0  0  0  0  0  0  0  0  0  0  0
    1.7143    0.5126    0.0000 C   0  0  0  0  0  0  0  0  0  0  0  0
    3.0132    1.2628    0.0000 N   0  0  0  0  0  0  0  0  0  0  0  0
    3.0130    2.7628    0.0000 H   0  0  0  0  0  0  0  0  0  0  0  0
    4.3124    0.5130    0.0000 H   0  0  0  0  0  0  0  0  0  0  0  0
    0.4150    1.2621    0.0000 N   0  0  0  0  0  0  0  0  0  0  0  0
   -0.8843    0.5109    0.0000 C   0  0  0  0  0  0  0  0  0  0  0  0
   -2.0336    1.4747    0.0000 H   0  0  0  0  0  0  0  0  0  0  0  0
   -8.2113   -1.7417    0.0000 O   0  0  0  0  0  0  0  0  0  0  0  0
   -9.5104   -0.9917    0.0000 H   0  0  0  0  0  0  0  0  0  0  0  0
   -8.2112    1.2589    0.0000 O   0  0  0  0  0  0  0  0  0  0  0  0
   -9.5101    0.5087    0.0000 C   0  0  0  0  0  0  0  0  0  0  0  0
  -10.8093    1.2585    0.0000 H   0  0  0  0  0  0  0  0  0  0  0  0
  -10.4741   -0.6405    0.0000 H   0  0  0  0  0  0  0  0  0  0  0  0
   -8.5458   -0.6402    0.0000 H   0  0  0  0  0  0  0  0  0  0  0  0
  1  2  1  0  0  0  0 
  1  3  1  0  0  0  0 
  1  4  1  0  0  0  0 
  1  5  1  0  0  0  0 
  5  6  1  0  0  0  0 
  6  7  2  0  0  0  0 
  7  8  1  0  0  0  0 
  8  9  2  0  0  0  0 
  9 10  1  0  0  0  0 
  9 11  1  0  0  0  0 
 11 12  2  0  0  0  0 
  6 12  1  0  0  0  0 
 12 13  1  0  0  0  0 
 11 14  1  0  0  0  0 
 14 15  1  0  0  0  0 
 14 16  1  0  0  0  0 
 14 17  1  0  0  0  0 
 17 18  2  0  0  0  0 
 18 19  1  0  0  0  0 
 19 20  1  0  0  0  0 
 19 21  1  0  0  0  0 
 18 22  1  0  0  0  0 
 22 23  2  0  0  0  0 
 23 24  1  0  0  0  0 
 24 25  1  0  0  0  0 
 24 26  1  0  0  0  0 
 23 27  1  0  0  0  0 
 27 28  2  0  0  0  0 
 17 28  1  0  0  0  0 
 28 29  1  0  0  0  0 
  8 30  1  0  0  0  0 
 30 31  1  0  0  0  0 
  7 32  1  0  0  0  0 
 32 33  1  0  0  0  0 
 33 34  1  0  0  0  0 
 33 35  1  0  0  0  0 
 33 36  1  0  0  0  0 
M  END
> <Rank>
7

> <Priority_score>
0.564

> <Reaction_type>
O-demethylation

> <Parent_ID>
43

> <Parent_InChI>
InChI=1S/C14H18N4O3/c1-19-10-5-8(6-11(20-2)12(10)21-3)4-9-7-17-14(16)18-13(9)15/h5-7H,4H2,1-3H3,(H4,15,16,17,18)

> <Parent_SMILES>
COc1cc(Cc2cnc(N)nc2N)cc(OC)c1OC

$$$$
Molecule 43_metabolite 9
  CDK     0516241031

 38 39  0  0  0  0  0  0  0  0999 V2000
   -0.2421   -6.7933    0.0000 C   0  0  0  0  0  0  0  0  0  0  0  0
    0.5083   -8.0921    0.0000 H   0  0  0  0  0  0  0  0  0  0  0  0
   -1.3908   -7.7578    0.0000 H   0  0  0  0  0  0  0  0  0  0  0  0
   -1.3914   -5.8295    0.0000 H   0  0  0  0  0  0  0  0  0  0  0  0
    0.5075   -5.4940    0.0000 O   0  0  0  0  0  0  0  0  0  0  0  0
   -0.2429   -4.1952    0.0000 C   0  0  0  0  0  0  0  0  0  0  0  0
   -1.7429   -4.1954    0.0000 C   0  0  0  0  0  0  0  0  0  0  0  0
   -2.4929   -5.4945    0.0000 H   0  0  0  0  0  0  0  0  0  0  0  0
   -2.4931   -2.8956    0.0000 C   0  0  0  0  0  0  0  0  0  0  0  0
   -1.7433   -1.5954    0.0000 C   0  0  0  0  0  0  0  0  0  0  0  0
   -2.4937   -0.2967    0.0000 H   0  0  0  0  0  0  0  0  0  0  0  0
   -0.2433   -1.5952    0.0000 C   0  0  0  0  0  0  0  0  0  0  0  0
    0.5069   -2.8951    0.0000 C   0  0  0  0  0  0  0  0  0  0  0  0
    2.0069   -2.8948    0.0000 O   0  0  0  0  0  0  0  0  0  0  0  0
    2.7571   -4.1938    0.0000 C   0  0  0  0  0  0  0  0  0  0  0  0
    4.2571   -4.1935    0.0000 H   0  0  0  0  0  0  0  0  0  0  0  0
    1.3476   -4.7070    0.0000 H   0  0  0  0  0  0  0  0  0  0  0  0
    3.0178   -5.6709    0.0000 H   0  0  0  0  0  0  0  0  0  0  0  0
    0.5067   -0.2962    0.0000 O   0  0  0  0  0  0  0  0  0  0  0  0
    2.0067   -0.2962    0.0000 C   0  0  0  0  0  0  0  0  0  0  0  0
    2.7567    1.0029    0.0000 H   0  0  0  0  0  0  0  0  0  0  0  0
    1.7462   -1.7734    0.0000 H   0  0  0  0  0  0  0  0  0  0  0  0
    3.4162   -0.8092    0.0000 H   0  0  0  0  0  0  0  0  0  0  0  0
   -4.9531   -2.8960    0.0000 C   0  0  0  0  0  0  0  0  0  0  0  0
   -6.3626   -3.4092    0.0000 H   0  0  0  0  0  0  0  0  0  0  0  0
   -4.6924   -4.3731    0.0000 H   0  0  0  0  0  0  0  0  0  0  0  0
   -5.7033   -1.5970    0.0000 C   0  0  0  0  0  0  0  0  0  0  0  0
   -7.2033   -1.5970    0.0000 C   0  0  0  0  0  0  0  0  0  0  0  0
   -7.9535   -2.8960    0.0000 N   0  0  0  0  0  0  0  0  0  0  0  0
   -9.4535   -2.8957    0.0000 H   0  0  0  0  0  0  0  0  0  0  0  0
   -7.2037   -4.1951    0.0000 H   0  0  0  0  0  0  0  0  0  0  0  0
   -7.9533   -0.2970    0.0000 N   0  0  0  0  0  0  0  0  0  0  0  0
   -9.4533   -0.2970    0.0000 H   0  0  0  0  0  0  0  0  0  0  0  0
   -7.2033    1.0030    0.0000 C   0  0  0  0  0  0  0  0  0  0  0  0
   -7.9535    2.3019    0.0000 O   0  0  0  0  0  0  0  0  0  0  0  0
   -5.7033    1.0030    0.0000 N   0  0  0  0  0  0  0  0  0  0  0  0
   -4.9533   -0.2970    0.0000 C   0  0  0  0  0  0  0  0  0  0  0  0
   -3.4761   -0.5575    0.0000 H   0  0  0  0  0  0  0  0  0  0  0  0
  1  2  1  0  0  0  0 
  1  3  1  0  0  0  0 
  1  4  1  0  0  0  0 
  1  5  1  0  0  0  0 
  5  6  1  0  0  0  0 
  6  7  2  0  0  0  0 
  7  8  1  0  0  0  0 
  7  9  1  0  0  0  0 
  9 10  2  0  0  0  0 
 10 11  1  0  0  0  0 
 10 12  1  0  0  0  0 
 12 13  2  0  0  0  0 
  6 13  1  0  0  0  0 
 13 14  1  0  0  0  0 
 14 15  1  0  0  0  0 
 15 16  1  0  0  0  0 
 15 17  1  0  0  0  0 
 15 18  1  0  0  0  0 
 12 19  1  0  0  0  0 
 19 20  1  0  0  0  0 
 20 21  1  0  0  0  0 
 20 22  1  0  0  0  0 
 20 23  1  0  0  0  0 
  9 24  1  0  0  0  0 
 24 25  1  0  0  0  0 
 24 26  1  0  0  0  0 
 24 27  1  0  0  0  0 
 27 28  2  0  0  0  0 
 28 29  1  0  0  0  0 
 29 30  1  0  0  0  0 
 29 31  1  0  0  0  0 
 28 32  1  0  0  0  0 
 32 33  1  0  0  0  0 
 32 34  1  0  0  0  0 
 34 35  2  0  0  0  0 
 34 36  1  0  0  0  0 
 36 37  2  0  0  0  0 
 27 37  1  0  0  0  0 
 37 38  1  0  0  0  0 
M  END
> <Rank>
9

> <Priority_score>
0.4956938031591737

> <Reaction_type>
oxidative_deamination_(aromatic)

> <Parent_ID>
43

> <Parent_InChI>
InChI=1S/C14H18N4O3/c1-19-10-5-8(6-11(20-2)12(10)21-3)4-9-7-17-14(16)18-13(9)15/h5-7H,4H2,1-3H3,(H4,15,16,17,18)

> <Parent_SMILES>
COc1cc(Cc2cnc(N)nc2N)cc(OC)c1OC

$$$$
Molecule 43_metabolite 10
  CDK     0516241031

 40 41  0  0  0  0  0  0  0  0999 V2000
   -6.9124    3.5097    0.0000 C   0  0  0  0  0  0  0  0  0  0  0  0
   -6.9129    5.0097    0.0000 H   0  0  0  0  0  0  0  0  0  0  0  0
   -8.3897    3.7697    0.0000 H   0  0  0  0  0  0  0  0  0  0  0  0
   -7.4250    2.1000    0.0000 H   0  0  0  0  0  0  0  0  0  0  0  0
   -5.6131    2.7601    0.0000 O   0  0  0  0  0  0  0  0  0  0  0  0
   -5.6126    1.2601    0.0000 C   0  0  0  0  0  0  0  0  0  0  0  0
   -4.3135    0.5104    0.0000 C   0  0  0  0  0  0  0  0  0  0  0  0
   -3.0145    1.2604    0.0000 H   0  0  0  0  0  0  0  0  0  0  0  0
   -4.3137   -0.9905    0.0000 C   0  0  0  0  0  0  0  0  0  0  0  0
   -5.6131   -1.7415    0.0000 C   0  0  0  0  0  0  0  0  0  0  0  0
   -5.6126   -3.2415    0.0000 H   0  0  0  0  0  0  0  0  0  0  0  0
   -6.9123   -0.9917    0.0000 C   0  0  0  0  0  0  0  0  0  0  0  0
   -6.9120    0.5091    0.0000 C   0  0  0  0  0  0  0  0  0  0  0  0
   -8.2112    1.2589    0.0000 O   0  0  0  0  0  0  0  0  0  0  0  0
   -9.5101    0.5087    0.0000 C   0  0  0  0  0  0  0  0  0  0  0  0
  -10.8093    1.2585    0.0000 H   0  0  0  0  0  0  0  0  0  0  0  0
  -10.4741   -0.6405    0.0000 H   0  0  0  0  0  0  0  0  0  0  0  0
   -8.5458   -0.6402    0.0000 H   0  0  0  0  0  0  0  0  0  0  0  0
   -8.2113   -1.7417    0.0000 O   0  0  0  0  0  0  0  0  0  0  0  0
   -8.2113   -3.2417    0.0000 C   0  0  0  0  0  0  0  0  0  0  0  0
   -9.5104   -3.9917    0.0000 H   0  0  0  0  0  0  0  0  0  0  0  0
   -7.6983   -4.6513    0.0000 H   0  0  0  0  0  0  0  0  0  0  0  0
   -6.7341   -2.9813    0.0000 H   0  0  0  0  0  0  0  0  0  0  0  0
   -2.5988   -1.9802    0.0000 C   0  0  0  0  0  0  0  0  0  0  0  0
   -3.5628   -3.1294    0.0000 H   0  0  0  0  0  0  0  0  0  0  0  0
   -1.6345   -3.1291    0.0000 H   0  0  0  0  0  0  0  0  0  0  0  0
   -0.8843   -0.9899    0.0000 C   0  0  0  0  0  0  0  0  0  0  0  0
    0.4150   -1.7395    0.0000 C   0  0  0  0  0  0  0  0  0  0  0  0
    0.4157   -3.2395    0.0000 N   0  0  0  0  0  0  0  0  0  0  0  0
    1.7151   -3.9889    0.0000 H   0  0  0  0  0  0  0  0  0  0  0  0
   -0.8829   -3.9901    0.0000 H   0  0  0  0  0  0  0  0  0  0  0  0
    1.7143   -0.9883    0.0000 N   0  0  0  0  0  0  0  0  0  0  0  0
    1.7143    0.5126    0.0000 C   0  0  0  0  0  0  0  0  0  0  0  0
    0.4150    1.2621    0.0000 N   0  0  0  0  0  0  0  0  0  0  0  0
   -0.8843    0.5109    0.0000 C   0  0  0  0  0  0  0  0  0  0  0  0
   -2.0336    1.4747    0.0000 H   0  0  0  0  0  0  0  0  0  0  0  0
    3.0132    1.2628    0.0000 N   0  0  0  0  0  0  0  0  0  0  0  0
    4.3124    0.5130    0.0000 H   0  0  0  0  0  0  0  0  0  0  0  0
    3.0130    2.7628    0.0000 O   0  0  0  0  0  0  0  0  0  0  0  0
    4.3119    3.5130    0.0000 H   0  0  0  0  0  0  0  0  0  0  0  0
  1  2  1  0  0  0  0 
  1  3  1  0  0  0  0 
  1  4  1  0  0  0  0 
  1  5  1  0  0  0  0 
  5  6  1  0  0  0  0 
  6  7  2  0  0  0  0 
  7  8  1  0  0  0  0 
  7  9  1  0  0  0  0 
  9 10  2  0  0  0  0 
 10 11  1  0  0  0  0 
 10 12  1  0  0  0  0 
 12 13  2  0  0  0  0 
  6 13  1  0  0  0  0 
 13 14  1  0  0  0  0 
 14 15  1  0  0  0  0 
 15 16  1  0  0  0  0 
 15 17  1  0  0  0  0 
 15 18  1  0  0  0  0 
 12 19  1  0  0  0  0 
 19 20  1  0  0  0  0 
 20 21  1  0  0  0  0 
 20 22  1  0  0  0  0 
 20 23  1  0  0  0  0 
  9 24  1  0  0  0  0 
 24 25  1  0  0  0  0 
 24 26  1  0  0  0  0 
 24 27  1  0  0  0  0 
 27 28  2  0  0  0  0 
 28 29  1  0  0  0  0 
 29 30  1  0  0  0  0 
 29 31  1  0  0  0  0 
 28 32  1  0  0  0  0 
 32 33  2  0  0  0  0 
 33 34  1  0  0  0  0 
 34 35  2  0  0  0  0 
 27 35  1  0  0  0  0 
 35 36  1  0  0  0  0 
 33 37  1  0  0  0  0 
 37 38  1  0  0  0  0 
 37 39  1  0  0  0  0 
 39 40  1  0  0  0  0 
M  END
> <Rank>
9

> <Priority_score>
0.4956938031591737

> <Reaction_type>
N-oxidation_(aniline)

> <Parent_ID>
43

> <Parent_InChI>
InChI=1S/C14H18N4O3/c1-19-10-5-8(6-11(20-2)12(10)21-3)4-9-7-17-14(16)18-13(9)15/h5-7H,4H2,1-3H3,(H4,15,16,17,18)

> <Parent_SMILES>
COc1cc(Cc2cnc(N)nc2N)cc(OC)c1OC

$$$$
Molecule 43_metabolite 11
  CDK     0516241031

 38 39  0  0  0  0  0  0  0  0999 V2000
   -6.4968    3.7498    0.0000 C   0  0  0  0  0  0  0  0  0  0  0  0
   -6.4972    5.2498    0.0000 H   0  0  0  0  0  0  0  0  0  0  0  0
   -7.9740    4.0098    0.0000 H   0  0  0  0  0  0  0  0  0  0  0  0
   -7.0093    2.3401    0.0000 H   0  0  0  0  0  0  0  0  0  0  0  0
   -5.1975    3.0002    0.0000 O   0  0  0  0  0  0  0  0  0  0  0  0
   -5.1970    1.5002    0.0000 C   0  0  0  0  0  0  0  0  0  0  0  0
   -3.8978    0.7504    0.0000 C   0  0  0  0  0  0  0  0  0  0  0  0
   -2.5988    1.5004    0.0000 H   0  0  0  0  0  0  0  0  0  0  0  0
   -3.8981   -0.7504    0.0000 C   0  0  0  0  0  0  0  0  0  0  0  0
   -5.1975   -1.5015    0.0000 C   0  0  0  0  0  0  0  0  0  0  0  0
   -5.1970   -3.0015    0.0000 H   0  0  0  0  0  0  0  0  0  0  0  0
   -6.4966   -0.7517    0.0000 C   0  0  0  0  0  0  0  0  0  0  0  0
   -6.4964    0.7492    0.0000 C   0  0  0  0  0  0  0  0  0  0  0  0
   -7.7956    1.4990    0.0000 O   0  0  0  0  0  0  0  0  0  0  0  0
   -9.0945    0.7488    0.0000 C   0  0  0  0  0  0  0  0  0  0  0  0
  -10.3936    1.4985    0.0000 H   0  0  0  0  0  0  0  0  0  0  0  0
  -10.0585   -0.4005    0.0000 H   0  0  0  0  0  0  0  0  0  0  0  0
   -8.1301   -0.4002    0.0000 H   0  0  0  0  0  0  0  0  0  0  0  0
   -7.7957   -1.5017    0.0000 O   0  0  0  0  0  0  0  0  0  0  0  0
   -7.7957   -3.0017    0.0000 C   0  0  0  0  0  0  0  0  0  0  0  0
   -9.0947   -3.7517    0.0000 H   0  0  0  0  0  0  0  0  0  0  0  0
   -6.3185   -2.7412    0.0000 H   0  0  0  0  0  0  0  0  0  0  0  0
   -7.2826   -4.4112    0.0000 H   0  0  0  0  0  0  0  0  0  0  0  0
   -1.7675   -1.9801    0.0000 C   0  0  0  0  0  0  0  0  0  0  0  0
   -2.7315   -3.1293    0.0000 H   0  0  0  0  0  0  0  0  0  0  0  0
   -0.8031   -3.1290    0.0000 H   0  0  0  0  0  0  0  0  0  0  0  0
   -0.4685   -1.2299    0.0000 C   0  0  0  0  0  0  0  0  0  0  0  0
   -0.4685    0.2701    0.0000 C   0  0  0  0  0  0  0  0  0  0  0  0
   -1.7675    1.0203    0.0000 H   0  0  0  0  0  0  0  0  0  0  0  0
    0.8315    1.0201    0.0000 N   0  0  0  0  0  0  0  0  0  0  0  0
    2.1315    0.2701    0.0000 C   0  0  0  0  0  0  0  0  0  0  0  0
    3.4304    1.0203    0.0000 N   0  0  0  0  0  0  0  0  0  0  0  0
    4.7295    0.2705    0.0000 H   0  0  0  0  0  0  0  0  0  0  0  0
    3.4301    2.5203    0.0000 H   0  0  0  0  0  0  0  0  0  0  0  0
    2.1315   -1.2299    0.0000 N   0  0  0  0  0  0  0  0  0  0  0  0
    3.4304   -1.9801    0.0000 H   0  0  0  0  0  0  0  0  0  0  0  0
    0.8315   -1.9799    0.0000 C   0  0  0  0  0  0  0  0  0  0  0  0
    0.8315   -3.4799    0.0000 O   0  0  0  0  0  0  0  0  0  0  0  0
  1  2  1  0  0  0  0 
  1  3  1  0  0  0  0 
  1  4  1  0  0  0  0 
  1  5  1  0  0  0  0 
  5  6  1  0  0  0  0 
  6  7  2  0  0  0  0 
  7  8  1  0  0  0  0 
  7  9  1  0  0  0  0 
  9 10  2  0  0  0  0 
 10 11  1  0  0  0  0 
 10 12  1  0  0  0  0 
 12 13  2  0  0  0  0 
  6 13  1  0  0  0  0 
 13 14  1  0  0  0  0 
 14 15  1  0  0  0  0 
 15 16  1  0  0  0  0 
 15 17  1  0  0  0  0 
 15 18  1  0  0  0  0 
 12 19  1  0  0  0  0 
 19 20  1  0  0  0  0 
 20 21  1  0  0  0  0 
 20 22  1  0  0  0  0 
 20 23  1  0  0  0  0 
  9 24  1  0  0  0  0 
 24 25  1  0  0  0  0 
 24 26  1  0  0  0  0 
 24 27  1  0  0  0  0 
 27 28  2  0  0  0  0 
 28 29  1  0  0  0  0 
 28 30  1  0  0  0  0 
 30 31  2  0  0  0  0 
 31 32  1  0  0  0  0 
 32 33  1  0  0  0  0 
 32 34  1  0  0  0  0 
 31 35  1  0  0  0  0 
 35 36  1  0  0  0  0 
 35 37  1  0  0  0  0 
 27 37  1  0  0  0  0 
 37 38  2  0  0  0  0 
M  END
> <Rank>
11

> <Priority_score>
0.484

> <Reaction_type>
oxidative_deamination_(aromatic)

> <Parent_ID>
43

> <Parent_InChI>
InChI=1S/C14H18N4O3/c1-19-10-5-8(6-11(20-2)12(10)21-3)4-9-7-17-14(16)18-13(9)15/h5-7H,4H2,1-3H3,(H4,15,16,17,18)

> <Parent_SMILES>
COc1cc(Cc2cnc(N)nc2N)cc(OC)c1OC

$$$$
Molecule 43_metabolite 12
  CDK     0516241031

 40 41  0  0  0  0  0  0  0  0999 V2000
   -6.9124    3.5097    0.0000 C   0  0  0  0  0  0  0  0  0  0  0  0
   -6.9129    5.0097    0.0000 H   0  0  0  0  0  0  0  0  0  0  0  0
   -8.3897    3.7697    0.0000 H   0  0  0  0  0  0  0  0  0  0  0  0
   -7.4250    2.1000    0.0000 H   0  0  0  0  0  0  0  0  0  0  0  0
   -5.6131    2.7601    0.0000 O   0  0  0  0  0  0  0  0  0  0  0  0
   -5.6126    1.2601    0.0000 C   0  0  0  0  0  0  0  0  0  0  0  0
   -4.3135    0.5104    0.0000 C   0  0  0  0  0  0  0  0  0  0  0  0
   -3.0145    1.2604    0.0000 H   0  0  0  0  0  0  0  0  0  0  0  0
   -4.3137   -0.9905    0.0000 C   0  0  0  0  0  0  0  0  0  0  0  0
   -5.6131   -1.7415    0.0000 C   0  0  0  0  0  0  0  0  0  0  0  0
   -5.6126   -3.2415    0.0000 H   0  0  0  0  0  0  0  0  0  0  0  0
   -6.9123   -0.9917    0.0000 C   0  0  0  0  0  0  0  0  0  0  0  0
   -6.9120    0.5091    0.0000 C   0  0  0  0  0  0  0  0  0  0  0  0
   -8.2112    1.2589    0.0000 O   0  0  0  0  0  0  0  0  0  0  0  0
   -9.5101    0.5087    0.0000 C   0  0  0  0  0  0  0  0  0  0  0  0
  -10.8093    1.2585    0.0000 H   0  0  0  0  0  0  0  0  0  0  0  0
  -10.4741   -0.6405    0.0000 H   0  0  0  0  0  0  0  0  0  0  0  0
   -8.5458   -0.6402    0.0000 H   0  0  0  0  0  0  0  0  0  0  0  0
   -8.2113   -1.7417    0.0000 O   0  0  0  0  0  0  0  0  0  0  0  0
   -8.2113   -3.2417    0.0000 C   0  0  0  0  0  0  0  0  0  0  0  0
   -9.5104   -3.9917    0.0000 H   0  0  0  0  0  0  0  0  0  0  0  0
   -6.7341   -2.9813    0.0000 H   0  0  0  0  0  0  0  0  0  0  0  0
   -7.6983   -4.6513    0.0000 H   0  0  0  0  0  0  0  0  0  0  0  0
   -2.5988   -1.9802    0.0000 C   0  0  0  0  0  0  0  0  0  0  0  0
   -3.5628   -3.1294    0.0000 H   0  0  0  0  0  0  0  0  0  0  0  0
   -1.6345   -3.1291    0.0000 H   0  0  0  0  0  0  0  0  0  0  0  0
   -0.8843   -0.9899    0.0000 C   0  0  0  0  0  0  0  0  0  0  0  0
    0.4150   -1.7395    0.0000 C   0  0  0  0  0  0  0  0  0  0  0  0
    0.4157   -3.2395    0.0000 N   0  0  0  0  0  0  0  0  0  0  0  0
    1.7151   -3.9889    0.0000 H   0  0  0  0  0  0  0  0  0  0  0  0
   -0.8829   -3.9901    0.0000 H   0  0  0  0  0  0  0  0  0  0  0  0
    1.7143   -0.9883    0.0000 N   0  0  0  0  0  0  0  0  0  0  0  0
    1.7143    0.5126    0.0000 C   0  0  0  0  0  0  0  0  0  0  0  0
    3.0132    1.2628    0.0000 N   0  0  0  0  0  0  0  0  0  0  0  0
    3.0130    2.7628    0.0000 H   0  0  0  0  0  0  0  0  0  0  0  0
    4.3124    0.5130    0.0000 H   0  0  0  0  0  0  0  0  0  0  0  0
    0.4150    1.2621    0.0000 N   0  0  0  0  0  0  0  0  0  0  0  0
   -0.8843    0.5109    0.0000 C   0  0  0  0  0  0  0  0  0  0  0  0
   -2.0336    1.4747    0.0000 H   0  0  0  0  0  0  0  0  0  0  0  0
    0.4143    2.7621    0.0000 O   0  0  0  0  0  0  0  0  0  0  0  0
  1  2  1  0  0  0  0 
  1  3  1  0  0  0  0 
  1  4  1  0  0  0  0 
  1  5  1  0  0  0  0 
  5  6  1  0  0  0  0 
  6  7  2  0  0  0  0 
  7  8  1  0  0  0  0 
  7  9  1  0  0  0  0 
  9 10  2  0  0  0  0 
 10 11  1  0  0  0  0 
 10 12  1  0  0  0  0 
 12 13  2  0  0  0  0 
  6 13  1  0  0  0  0 
 13 14  1  0  0  0  0 
 14 15  1  0  0  0  0 
 15 16  1  0  0  0  0 
 15 17  1  0  0  0  0 
 15 18  1  0  0  0  0 
 12 19  1  0  0  0  0 
 19 20  1  0  0  0  0 
 20 21  1  0  0  0  0 
 20 22  1  0  0  0  0 
 20 23  1  0  0  0  0 
  9 24  1  0  0  0  0 
 24 25  1  0  0  0  0 
 24 26  1  0  0  0  0 
 24 27  1  0  0  0  0 
 27 28  2  0  0  0  0 
 28 29  1  0  0  0  0 
 29 30  1  0  0  0  0 
 29 31  1  0  0  0  0 
 28 32  1  0  0  0  0 
 32 33  2  0  0  0  0 
 33 34  1  0  0  0  0 
 34 35  1  0  0  0  0 
 34 36  1  0  0  0  0 
 33 37  1  0  0  0  0 
 37 38  2  0  0  0  0 
 27 38  1  0  0  0  0 
 38 39  1  0  0  0  0 
 37 40  1  0  0  0  0 
M  CHG  1  37   1
M  CHG  1  40  -1
M  END
> <Rank>
12

> <Priority_score>
0.46

> <Reaction_type>
N-oxidation_(-N=)

> <Parent_ID>
43

> <Parent_InChI>
InChI=1S/C14H18N4O3/c1-19-10-5-8(6-11(20-2)12(10)21-3)4-9-7-17-14(16)18-13(9)15/h5-7H,4H2,1-3H3,(H4,15,16,17,18)

> <Parent_SMILES>
COc1cc(Cc2cnc(N)nc2N)cc(OC)c1OC

$$$$
Molecule 43_metabolite 13
  CDK     0516241031

 40 41  0  0  0  0  0  0  0  0999 V2000
   -2.1820   -8.0117    0.0000 C   0  0  0  0  0  0  0  0  0  0  0  0
   -2.1816   -9.5117    0.0000 H   0  0  0  0  0  0  0  0  0  0  0  0
   -3.6592   -8.2726    0.0000 H   0  0  0  0  0  0  0  0  0  0  0  0
   -2.6955   -6.6023    0.0000 H   0  0  0  0  0  0  0  0  0  0  0  0
   -0.8832   -7.2612    0.0000 O   0  0  0  0  0  0  0  0  0  0  0  0
   -0.8837   -5.7612    0.0000 C   0  0  0  0  0  0  0  0  0  0  0  0
   -2.1829   -5.0114    0.0000 C   0  0  0  0  0  0  0  0  0  0  0  0
   -3.4819   -5.7614    0.0000 H   0  0  0  0  0  0  0  0  0  0  0  0
   -2.1826   -3.5106    0.0000 C   0  0  0  0  0  0  0  0  0  0  0  0
   -0.8832   -2.7596    0.0000 C   0  0  0  0  0  0  0  0  0  0  0  0
   -0.8837   -1.2596    0.0000 H   0  0  0  0  0  0  0  0  0  0  0  0
    0.4159   -3.5094    0.0000 C   0  0  0  0  0  0  0  0  0  0  0  0
    0.4157   -5.0102    0.0000 C   0  0  0  0  0  0  0  0  0  0  0  0
    1.7148   -5.7600    0.0000 O   0  0  0  0  0  0  0  0  0  0  0  0
    1.7151   -7.2600    0.0000 C   0  0  0  0  0  0  0  0  0  0  0  0
    3.0142   -8.0098    0.0000 H   0  0  0  0  0  0  0  0  0  0  0  0
    0.2378   -6.9998    0.0000 H   0  0  0  0  0  0  0  0  0  0  0  0
    1.2023   -8.6696    0.0000 H   0  0  0  0  0  0  0  0  0  0  0  0
    1.7150   -2.7594    0.0000 O   0  0  0  0  0  0  0  0  0  0  0  0
    3.0140   -3.5094    0.0000 C   0  0  0  0  0  0  0  0  0  0  0  0
    4.3130   -2.7594    0.0000 H   0  0  0  0  0  0  0  0  0  0  0  0
    2.0498   -4.6584    0.0000 H   0  0  0  0  0  0  0  0  0  0  0  0
    3.9782   -4.6584    0.0000 H   0  0  0  0  0  0  0  0  0  0  0  0
   -4.3133   -2.2810    0.0000 C   0  0  0  0  0  0  0  0  0  0  0  0
   -5.7905   -2.0207    0.0000 H   0  0  0  0  0  0  0  0  0  0  0  0
   -4.8261   -3.6906    0.0000 H   0  0  0  0  0  0  0  0  0  0  0  0
   -4.3135   -0.7810    0.0000 C   0  0  0  0  0  0  0  0  0  0  0  0
   -5.6125   -0.0310    0.0000 C   0  0  0  0  0  0  0  0  0  0  0  0
   -6.9117   -0.7807    0.0000 N   0  0  0  0  0  0  0  0  0  0  0  0
   -8.2106   -0.0305    0.0000 H   0  0  0  0  0  0  0  0  0  0  0  0
   -6.9119   -2.2807    0.0000 H   0  0  0  0  0  0  0  0  0  0  0  0
   -5.6121    1.4699    0.0000 N   0  0  0  0  0  0  0  0  0  0  0  0
   -4.3125    2.2207    0.0000 C   0  0  0  0  0  0  0  0  0  0  0  0
   -4.3128    3.7207    0.0000 N   0  0  0  0  0  0  0  0  0  0  0  0
   -5.6119    4.4705    0.0000 H   0  0  0  0  0  0  0  0  0  0  0  0
   -3.0139    4.4709    0.0000 H   0  0  0  0  0  0  0  0  0  0  0  0
   -3.0135    1.4707    0.0000 N   0  0  0  0  0  0  0  0  0  0  0  0
   -3.0140   -0.0301    0.0000 C   0  0  0  0  0  0  0  0  0  0  0  0
   -1.8649   -0.9943    0.0000 H   0  0  0  0  0  0  0  0  0  0  0  0
   -6.9111    2.2199    0.0000 O   0  0  0  0  0  0  0  0  0  0  0  0
  1  2  1  0  0  0  0 
  1  3  1  0  0  0  0 
  1  4  1  0  0  0  0 
  1  5  1  0  0  0  0 
  5  6  1  0  0  0  0 
  6  7  2  0  0  0  0 
  7  8  1  0  0  0  0 
  7  9  1  0  0  0  0 
  9 10  2  0  0  0  0 
 10 11  1  0  0  0  0 
 10 12  1  0  0  0  0 
 12 13  2  0  0  0  0 
  6 13  1  0  0  0  0 
 13 14  1  0  0  0  0 
 14 15  1  0  0  0  0 
 15 16  1  0  0  0  0 
 15 17  1  0  0  0  0 
 15 18  1  0  0  0  0 
 12 19  1  0  0  0  0 
 19 20  1  0  0  0  0 
 20 21  1  0  0  0  0 
 20 22  1  0  0  0  0 
 20 23  1  0  0  0  0 
  9 24  1  0  0  0  0 
 24 25  1  0  0  0  0 
 24 26  1  0  0  0  0 
 24 27  1  0  0  0  0 
 27 28  2  0  0  0  0 
 28 29  1  0  0  0  0 
 29 30  1  0  0  0  0 
 29 31  1  0  0  0  0 
 28 32  1  0  0  0  0 
 32 33  2  0  0  0  0 
 33 34  1  0  0  0  0 
 34 35  1  0  0  0  0 
 34 36  1  0  0  0  0 
 33 37  1  0  0  0  0 
 37 38  2  0  0  0  0 
 27 38  1  0  0  0  0 
 38 39  1  0  0  0  0 
 32 40  1  0  0  0  0 
M  CHG  1  32   1
M  CHG  1  40  -1
M  END
> <Rank>
12

> <Priority_score>
0.46

> <Reaction_type>
N-oxidation_(-N=)

> <Parent_ID>
43

> <Parent_InChI>
InChI=1S/C14H18N4O3/c1-19-10-5-8(6-11(20-2)12(10)21-3)4-9-7-17-14(16)18-13(9)15/h5-7H,4H2,1-3H3,(H4,15,16,17,18)

> <Parent_SMILES>
COc1cc(Cc2cnc(N)nc2N)cc(OC)c1OC

$$$$
Molecule 43_metabolite 14
  CDK     0516241031

 40 41  0  0  0  0  0  0  0  0999 V2000
   -6.9124    3.5097    0.0000 C   0  0  0  0  0  0  0  0  0  0  0  0
   -6.9129    5.0097    0.0000 H   0  0  0  0  0  0  0  0  0  0  0  0
   -8.3897    3.7697    0.0000 H   0  0  0  0  0  0  0  0  0  0  0  0
   -7.4250    2.1000    0.0000 H   0  0  0  0  0  0  0  0  0  0  0  0
   -5.6131    2.7601    0.0000 O   0  0  0  0  0  0  0  0  0  0  0  0
   -5.6126    1.2601    0.0000 C   0  0  0  0  0  0  0  0  0  0  0  0
   -4.3135    0.5104    0.0000 C   0  0  0  0  0  0  0  0  0  0  0  0
   -3.0145    1.2604    0.0000 H   0  0  0  0  0  0  0  0  0  0  0  0
   -4.3137   -0.9905    0.0000 C   0  0  0  0  0  0  0  0  0  0  0  0
   -5.6131   -1.7415    0.0000 C   0  0  0  0  0  0  0  0  0  0  0  0
   -5.6126   -3.2415    0.0000 H   0  0  0  0  0  0  0  0  0  0  0  0
   -6.9123   -0.9917    0.0000 C   0  0  0  0  0  0  0  0  0  0  0  0
   -6.9120    0.5091    0.0000 C   0  0  0  0  0  0  0  0  0  0  0  0
   -8.2112    1.2589    0.0000 O   0  0  0  0  0  0  0  0  0  0  0  0
   -9.5101    0.5087    0.0000 C   0  0  0  0  0  0  0  0  0  0  0  0
  -10.4741   -0.6405    0.0000 H   0  0  0  0  0  0  0  0  0  0  0  0
   -8.5458   -0.6402    0.0000 H   0  0  0  0  0  0  0  0  0  0  0  0
  -10.8093    1.2585    0.0000 O   0  0  0  0  0  0  0  0  0  0  0  0
  -12.1082    0.5083    0.0000 H   0  0  0  0  0  0  0  0  0  0  0  0
   -8.2113   -1.7417    0.0000 O   0  0  0  0  0  0  0  0  0  0  0  0
   -8.2113   -3.2417    0.0000 C   0  0  0  0  0  0  0  0  0  0  0  0
   -9.5104   -3.9917    0.0000 H   0  0  0  0  0  0  0  0  0  0  0  0
   -7.6983   -4.6513    0.0000 H   0  0  0  0  0  0  0  0  0  0  0  0
   -6.7341   -2.9813    0.0000 H   0  0  0  0  0  0  0  0  0  0  0  0
   -2.5988   -1.9802    0.0000 C   0  0  0  0  0  0  0  0  0  0  0  0
   -3.5628   -3.1294    0.0000 H   0  0  0  0  0  0  0  0  0  0  0  0
   -1.6345   -3.1291    0.0000 H   0  0  0  0  0  0  0  0  0  0  0  0
   -0.8843   -0.9899    0.0000 C   0  0  0  0  0  0  0  0  0  0  0  0
    0.4150   -1.7395    0.0000 C   0  0  0  0  0  0  0  0  0  0  0  0
    0.4157   -3.2395    0.0000 N   0  0  0  0  0  0  0  0  0  0  0  0
    1.7151   -3.9889    0.0000 H   0  0  0  0  0  0  0  0  0  0  0  0
   -0.8829   -3.9901    0.0000 H   0  0  0  0  0  0  0  0  0  0  0  0
    1.7143   -0.9883    0.0000 N   0  0  0  0  0  0  0  0  0  0  0  0
    1.7143    0.5126    0.0000 C   0  0  0  0  0  0  0  0  0  0  0  0
    3.0132    1.2628    0.0000 N   0  0  0  0  0  0  0  0  0  0  0  0
    3.0130    2.7628    0.0000 H   0  0  0  0  0  0  0  0  0  0  0  0
    4.3124    0.5130    0.0000 H   0  0  0  0  0  0  0  0  0  0  0  0
    0.4150    1.2621    0.0000 N   0  0  0  0  0  0  0  0  0  0  0  0
   -0.8843    0.5109    0.0000 C   0  0  0  0  0  0  0  0  0  0  0  0
   -2.0336    1.4747    0.0000 H   0  0  0  0  0  0  0  0  0  0  0  0
  1  2  1  0  0  0  0 
  1  3  1  0  0  0  0 
  1  4  1  0  0  0  0 
  1  5  1  0  0  0  0 
  5  6  1  0  0  0  0 
  6  7  2  0  0  0  0 
  7  8  1  0  0  0  0 
  7  9  1  0  0  0  0 
  9 10  2  0  0  0  0 
 10 11  1  0  0  0  0 
 10 12  1  0  0  0  0 
 12 13  2  0  0  0  0 
  6 13  1  0  0  0  0 
 13 14  1  0  0  0  0 
 14 15  1  0  0  0  0 
 15 16  1  0  0  0  0 
 15 17  1  0  0  0  0 
 15 18  1  0  0  0  0 
 18 19  1  0  0  0  0 
 12 20  1  0  0  0  0 
 20 21  1  0  0  0  0 
 21 22  1  0  0  0  0 
 21 23  1  0  0  0  0 
 21 24  1  0  0  0  0 
  9 25  1  0  0  0  0 
 25 26  1  0  0  0  0 
 25 27  1  0  0  0  0 
 25 28  1  0  0  0  0 
 28 29  2  0  0  0  0 
 29 30  1  0  0  0  0 
 30 31  1  0  0  0  0 
 30 32  1  0  0  0  0 
 29 33  1  0  0  0  0 
 33 34  2  0  0  0  0 
 34 35  1  0  0  0  0 
 35 36  1  0  0  0  0 
 35 37  1  0  0  0  0 
 34 38  1  0  0  0  0 
 38 39  2  0  0  0  0 
 28 39  1  0  0  0  0 
 39 40  1  0  0  0  0 
M  END
> <Rank>
12

> <Priority_score>
0.46

> <Reaction_type>
aliphatic hydroxylation

> <Parent_ID>
43

> <Parent_InChI>
InChI=1S/C14H18N4O3/c1-19-10-5-8(6-11(20-2)12(10)21-3)4-9-7-17-14(16)18-13(9)15/h5-7H,4H2,1-3H3,(H4,15,16,17,18)

> <Parent_SMILES>
COc1cc(Cc2cnc(N)nc2N)cc(OC)c1OC

$$$$
Molecule 43_metabolite 15
  CDK     0516241031

 36 37  0  0  0  0  0  0  0  0999 V2000
    0.4154   -2.4901    0.0000 C   0  0  0  0  0  0  0  0  0  0  0  0
    0.4158   -3.9901    0.0000 H   0  0  0  0  0  0  0  0  0  0  0  0
    1.8927   -2.7501    0.0000 H   0  0  0  0  0  0  0  0  0  0  0  0
    0.9279   -1.0804    0.0000 H   0  0  0  0  0  0  0  0  0  0  0  0
   -0.8839   -1.7406    0.0000 O   0  0  0  0  0  0  0  0  0  0  0  0
   -0.8844   -0.2406    0.0000 C   0  0  0  0  0  0  0  0  0  0  0  0
   -2.1835    0.5092    0.0000 C   0  0  0  0  0  0  0  0  0  0  0  0
   -3.4826   -0.2408    0.0000 H   0  0  0  0  0  0  0  0  0  0  0  0
   -2.1833    2.0101    0.0000 C   0  0  0  0  0  0  0  0  0  0  0  0
   -0.8839    2.7611    0.0000 C   0  0  0  0  0  0  0  0  0  0  0  0
   -0.8844    4.2611    0.0000 H   0  0  0  0  0  0  0  0  0  0  0  0
    0.4152    2.0113    0.0000 C   0  0  0  0  0  0  0  0  0  0  0  0
    0.4150    0.5105    0.0000 C   0  0  0  0  0  0  0  0  0  0  0  0
    1.7142   -0.2393    0.0000 O   0  0  0  0  0  0  0  0  0  0  0  0
    3.0131    0.5109    0.0000 H   0  0  0  0  0  0  0  0  0  0  0  0
    1.7143    2.7613    0.0000 O   0  0  0  0  0  0  0  0  0  0  0  0
    3.0133    2.0113    0.0000 C   0  0  0  0  0  0  0  0  0  0  0  0
    4.3124    2.7613    0.0000 H   0  0  0  0  0  0  0  0  0  0  0  0
    2.0491    0.8622    0.0000 H   0  0  0  0  0  0  0  0  0  0  0  0
    3.9775    0.8622    0.0000 H   0  0  0  0  0  0  0  0  0  0  0  0
   -3.8982    2.9998    0.0000 C   0  0  0  0  0  0  0  0  0  0  0  0
   -2.9342    4.1490    0.0000 H   0  0  0  0  0  0  0  0  0  0  0  0
   -4.8626    4.1487    0.0000 H   0  0  0  0  0  0  0  0  0  0  0  0
   -5.6128    2.0095    0.0000 C   0  0  0  0  0  0  0  0  0  0  0  0
   -6.9120    2.7591    0.0000 C   0  0  0  0  0  0  0  0  0  0  0  0
   -6.9128    4.2591    0.0000 N   0  0  0  0  0  0  0  0  0  0  0  0
   -8.2122    5.0085    0.0000 H   0  0  0  0  0  0  0  0  0  0  0  0
   -5.6141    5.0097    0.0000 H   0  0  0  0  0  0  0  0  0  0  0  0
   -8.2113    2.0079    0.0000 N   0  0  0  0  0  0  0  0  0  0  0  0
   -8.2113    0.5070    0.0000 C   0  0  0  0  0  0  0  0  0  0  0  0
   -9.5102   -0.2432    0.0000 N   0  0  0  0  0  0  0  0  0  0  0  0
   -9.5100   -1.7432    0.0000 H   0  0  0  0  0  0  0  0  0  0  0  0
  -10.8094    0.5066    0.0000 H   0  0  0  0  0  0  0  0  0  0  0  0
   -6.9120   -0.2426    0.0000 N   0  0  0  0  0  0  0  0  0  0  0  0
   -5.6128    0.5087    0.0000 C   0  0  0  0  0  0  0  0  0  0  0  0
   -4.4634   -0.4551    0.0000 H   0  0  0  0  0  0  0  0  0  0  0  0
  1  2  1  0  0  0  0 
  1  3  1  0  0  0  0 
  1  4  1  0  0  0  0 
  1  5  1  0  0  0  0 
  5  6  1  0  0  0  0 
  6  7  2  0  0  0  0 
  7  8  1  0  0  0  0 
  7  9  1  0  0  0  0 
  9 10  2  0  0  0  0 
 10 11  1  0  0  0  0 
 10 12  1  0  0  0  0 
 12 13  2  0  0  0  0 
  6 13  1  0  0  0  0 
 13 14  1  0  0  0  0 
 14 15  1  0  0  0  0 
 12 16  1  0  0  0  0 
 16 17  1  0  0  0  0 
 17 18  1  0  0  0  0 
 17 19  1  0  0  0  0 
 17 20  1  0  0  0  0 
  9 21  1  0  0  0  0 
 21 22  1  0  0  0  0 
 21 23  1  0  0  0  0 
 21 24  1  0  0  0  0 
 24 25  2  0  0  0  0 
 25 26  1  0  0  0  0 
 26 27  1  0  0  0  0 
 26 28  1  0  0  0  0 
 25 29  1  0  0  0  0 
 29 30  2  0  0  0  0 
 30 31  1  0  0  0  0 
 31 32  1  0  0  0  0 
 31 33  1  0  0  0  0 
 30 34  1  0  0  0  0 
 34 35  2  0  0  0  0 
 24 35  1  0  0  0  0 
 35 36  1  0  0  0  0 
M  END
> <Rank>
12

> <Priority_score>
0.46

> <Reaction_type>
O-demethylation

> <Parent_ID>
43

> <Parent_InChI>
InChI=1S/C14H18N4O3/c1-19-10-5-8(6-11(20-2)12(10)21-3)4-9-7-17-14(16)18-13(9)15/h5-7H,4H2,1-3H3,(H4,15,16,17,18)

> <Parent_SMILES>
COc1cc(Cc2cnc(N)nc2N)cc(OC)c1OC

$$$$
Molecule 43_metabolite 16
  CDK     0516241031

 43 44  0  0  0  0  0  0  0  0999 V2000
    0.4163   -3.6384    0.0000 C   0  0  0  0  0  0  0  0  0  0  0  0
    0.4168   -5.1384    0.0000 H   0  0  0  0  0  0  0  0  0  0  0  0
    1.8936   -3.8984    0.0000 H   0  0  0  0  0  0  0  0  0  0  0  0
    0.9289   -2.2287    0.0000 H   0  0  0  0  0  0  0  0  0  0  0  0
   -0.8829   -2.8888    0.0000 O   0  0  0  0  0  0  0  0  0  0  0  0
   -0.8834   -1.3888    0.0000 C   0  0  0  0  0  0  0  0  0  0  0  0
   -2.1826   -0.6390    0.0000 C   0  0  0  0  0  0  0  0  0  0  0  0
   -3.4816   -1.3890    0.0000 H   0  0  0  0  0  0  0  0  0  0  0  0
   -2.1823    0.8618    0.0000 C   0  0  0  0  0  0  0  0  0  0  0  0
   -0.8829    1.6128    0.0000 C   0  0  0  0  0  0  0  0  0  0  0  0
   -0.8834    3.1128    0.0000 H   0  0  0  0  0  0  0  0  0  0  0  0
    0.4162    0.8630    0.0000 C   0  0  0  0  0  0  0  0  0  0  0  0
    0.4160   -0.6378    0.0000 C   0  0  0  0  0  0  0  0  0  0  0  0
    1.7151   -1.3876    0.0000 O   0  0  0  0  0  0  0  0  0  0  0  0
    3.0140   -0.6374    0.0000 C   0  0  0  0  0  0  0  0  0  0  0  0
    4.3132   -1.3872    0.0000 H   0  0  0  0  0  0  0  0  0  0  0  0
    3.9780    0.5118    0.0000 H   0  0  0  0  0  0  0  0  0  0  0  0
    2.0497    0.5115    0.0000 H   0  0  0  0  0  0  0  0  0  0  0  0
    1.7152    1.6130    0.0000 O   0  0  0  0  0  0  0  0  0  0  0  0
    1.7152    3.1130    0.0000 C   0  0  0  0  0  0  0  0  0  0  0  0
    3.0143    3.8630    0.0000 H   0  0  0  0  0  0  0  0  0  0  0  0
    1.2022    4.5226    0.0000 H   0  0  0  0  0  0  0  0  0  0  0  0
    0.2380    2.8526    0.0000 H   0  0  0  0  0  0  0  0  0  0  0  0
   -3.8972    1.8515    0.0000 C   0  0  0  0  0  0  0  0  0  0  0  0
   -2.9332    3.0007    0.0000 H   0  0  0  0  0  0  0  0  0  0  0  0
   -4.8616    3.0004    0.0000 H   0  0  0  0  0  0  0  0  0  0  0  0
   -5.6118    0.8612    0.0000 C   0  0  0  0  0  0  0  0  0  0  0  0
   -6.9111    1.6108    0.0000 C   0  0  0  0  0  0  0  0  0  0  0  0
   -8.2104    0.8596    0.0000 N   0  0  0  0  0  0  0  0  0  0  0  0
   -8.2104   -0.6413    0.0000 C   0  0  0  0  0  0  0  0  0  0  0  0
   -9.5093   -1.3915    0.0000 N   0  0  0  0  0  0  0  0  0  0  0  0
   -9.5090   -2.8915    0.0000 H   0  0  0  0  0  0  0  0  0  0  0  0
  -10.8084   -0.6417    0.0000 H   0  0  0  0  0  0  0  0  0  0  0  0
   -6.9111   -1.3908    0.0000 N   0  0  0  0  0  0  0  0  0  0  0  0
   -5.6118   -0.6396    0.0000 C   0  0  0  0  0  0  0  0  0  0  0  0
   -4.4624   -1.6034    0.0000 H   0  0  0  0  0  0  0  0  0  0  0  0
   -6.9118    3.1108    0.0000 N   0  0  0  0  0  0  0  0  0  0  0  0
   -5.6131    3.8614    0.0000 H   0  0  0  0  0  0  0  0  0  0  0  0
   -8.2112    3.8602    0.0000 S   0  0  0  0  0  0  0  0  0  0  0  0
   -9.1759    5.0088    0.0000 O   0  0  0  0  0  0  0  0  0  0  0  0
   -7.2476    5.0097    0.0000 O   0  0  0  0  0  0  0  0  0  0  0  0
   -9.5099    3.1096    0.0000 O   0  0  0  0  0  0  0  0  0  0  0  0
  -10.8093    3.8589    0.0000 H   0  0  0  0  0  0  0  0  0  0  0  0
  1  2  1  0  0  0  0 
  1  3  1  0  0  0  0 
  1  4  1  0  0  0  0 
  1  5  1  0  0  0  0 
  5  6  1  0  0  0  0 
  6  7  2  0  0  0  0 
  7  8  1  0  0  0  0 
  7  9  1  0  0  0  0 
  9 10  2  0  0  0  0 
 10 11  1  0  0  0  0 
 10 12  1  0  0  0  0 
 12 13  2  0  0  0  0 
  6 13  1  0  0  0  0 
 13 14  1  0  0  0  0 
 14 15  1  0  0  0  0 
 15 16  1  0  0  0  0 
 15 17  1  0  0  0  0 
 15 18  1  0  0  0  0 
 12 19  1  0  0  0  0 
 19 20  1  0  0  0  0 
 20 21  1  0  0  0  0 
 20 22  1  0  0  0  0 
 20 23  1  0  0  0  0 
  9 24  1  0  0  0  0 
 24 25  1  0  0  0  0 
 24 26  1  0  0  0  0 
 24 27  1  0  0  0  0 
 27 28  2  0  0  0  0 
 28 29  1  0  0  0  0 
 29 30  2  0  0  0  0 
 30 31  1  0  0  0  0 
 31 32  1  0  0  0  0 
 31 33  1  0  0  0  0 
 30 34  1  0  0  0  0 
 34 35  2  0  0  0  0 
 27 35  1  0  0  0  0 
 35 36  1  0  0  0  0 
 28 37  1  0  0  0  0 
 37 38  1  0  0  0  0 
 37 39  1  0  0  0  0 
 39 40  2  0  0  0  0 
 39 41  2  0  0  0  0 
 39 42  1  0  0  0  0 
 42 43  1  0  0  0  0 
M  END
> <Rank>
16

> <Priority_score>
0.384

> <Reaction_type>
sulfation_(aniline)

> <Parent_ID>
43

> <Parent_InChI>
InChI=1S/C14H18N4O3/c1-19-10-5-8(6-11(20-2)12(10)21-3)4-9-7-17-14(16)18-13(9)15/h5-7H,4H2,1-3H3,(H4,15,16,17,18)

> <Parent_SMILES>
COc1cc(Cc2cnc(N)nc2N)cc(OC)c1OC

$$$$
Molecule 43_metabolite 17
  CDK     0516241031

 60 62  0  0  0  0  0  0  0  0999 V2000
    6.4977   -1.0832    0.0000 C   0  0  0  0  0  0  0  0  0  0  0  0
    6.4977    0.4168    0.0000 H   0  0  0  0  0  0  0  0  0  0  0  0
    7.9749   -0.8227    0.0000 H   0  0  0  0  0  0  0  0  0  0  0  0
    7.0108   -2.4927    0.0000 H   0  0  0  0  0  0  0  0  0  0  0  0
    5.1987   -1.8332    0.0000 O   0  0  0  0  0  0  0  0  0  0  0  0
    5.1987   -3.3332    0.0000 C   0  0  0  0  0  0  0  0  0  0  0  0
    3.8998   -4.0834    0.0000 C   0  0  0  0  0  0  0  0  0  0  0  0
    2.6005   -3.3338    0.0000 H   0  0  0  0  0  0  0  0  0  0  0  0
    3.9005   -5.5842    0.0000 C   0  0  0  0  0  0  0  0  0  0  0  0
    5.2001   -6.3348    0.0000 C   0  0  0  0  0  0  0  0  0  0  0  0
    5.2001   -7.8348    0.0000 H   0  0  0  0  0  0  0  0  0  0  0  0
    6.4991   -5.5846    0.0000 C   0  0  0  0  0  0  0  0  0  0  0  0
    6.4983   -4.0838    0.0000 C   0  0  0  0  0  0  0  0  0  0  0  0
    7.7973   -3.3336    0.0000 O   0  0  0  0  0  0  0  0  0  0  0  0
    9.0964   -4.0834    0.0000 C   0  0  0  0  0  0  0  0  0  0  0  0
   10.3953   -3.3332    0.0000 H   0  0  0  0  0  0  0  0  0  0  0  0
   10.0608   -5.2323    0.0000 H   0  0  0  0  0  0  0  0  0  0  0  0
    8.1324   -5.2326    0.0000 H   0  0  0  0  0  0  0  0  0  0  0  0
    7.7983   -6.3342    0.0000 O   0  0  0  0  0  0  0  0  0  0  0  0
    7.7988   -7.8342    0.0000 C   0  0  0  0  0  0  0  0  0  0  0  0
    9.0981   -8.5838    0.0000 H   0  0  0  0  0  0  0  0  0  0  0  0
    6.3215   -7.5742    0.0000 H   0  0  0  0  0  0  0  0  0  0  0  0
    7.2862   -9.2439    0.0000 H   0  0  0  0  0  0  0  0  0  0  0  0
    2.6016   -6.3344    0.0000 C   0  0  0  0  0  0  0  0  0  0  0  0
    3.5659   -7.4833    0.0000 H   0  0  0  0  0  0  0  0  0  0  0  0
    1.6376   -7.4836    0.0000 H   0  0  0  0  0  0  0  0  0  0  0  0
    0.8867   -5.3447    0.0000 C   0  0  0  0  0  0  0  0  0  0  0  0
   -0.4123   -6.0947    0.0000 C   0  0  0  0  0  0  0  0  0  0  0  0
   -0.4126   -7.5947    0.0000 N   0  0  0  0  0  0  0  0  0  0  0  0
   -1.7117   -8.3445    0.0000 H   0  0  0  0  0  0  0  0  0  0  0  0
    0.8863   -8.3449    0.0000 H   0  0  0  0  0  0  0  0  0  0  0  0
   -1.7119   -5.3438    0.0000 N   0  0  0  0  0  0  0  0  0  0  0  0
   -1.7123   -3.8430    0.0000 C   0  0  0  0  0  0  0  0  0  0  0  0
   -3.0115   -3.0932    0.0000 N   0  0  0  0  0  0  0  0  0  0  0  0
   -3.0117   -1.5932    0.0000 H   0  0  0  0  0  0  0  0  0  0  0  0
   -4.3104   -3.8434    0.0000 H   0  0  0  0  0  0  0  0  0  0  0  0
   -0.4133   -3.0930    0.0000 N   0  0  0  0  0  0  0  0  0  0  0  0
    0.8862   -3.8438    0.0000 C   0  0  0  0  0  0  0  0  0  0  0  0
    3.0166   -2.6138    0.0000 H   0  0  0  0  0  0  0  0  0  0  0  0
   -0.4130   -1.1130    0.0000 C   0  0  0  0  0  0  0  0  0  0  0  0
    1.0642   -1.3736    0.0000 H   0  0  0  0  0  0  0  0  0  0  0  0
    0.1000    0.2966    0.0000 C   0  0  0  0  0  0  0  0  0  0  0  0
    1.3991   -0.4532    0.0000 H   0  0  0  0  0  0  0  0  0  0  0  0
   -0.8652    1.4459    0.0000 C   0  0  0  0  0  0  0  0  0  0  0  0
    0.4337    2.1961    0.0000 H   0  0  0  0  0  0  0  0  0  0  0  0
   -2.3433    1.1857    0.0000 C   0  0  0  0  0  0  0  0  0  0  0  0
   -2.3430    2.6857    0.0000 H   0  0  0  0  0  0  0  0  0  0  0  0
   -2.8562   -0.2239    0.0000 C   0  0  0  0  0  0  0  0  0  0  0  0
   -4.1554    0.5259    0.0000 H   0  0  0  0  0  0  0  0  0  0  0  0
   -5.6187   -1.2302    0.0000 C   0  0  0  0  0  0  0  0  0  0  0  0
   -6.0452   -3.6529    0.0000 O   0  0  0  0  0  0  0  0  0  0  0  0
   -6.7680   -0.2663    0.0000 O   0  0  0  0  0  0  0  0  0  0  0  0
   -6.5079    1.2110    0.0000 H   0  0  0  0  0  0  0  0  0  0  0  0
   -1.8911   -1.3732    0.0000 O   0  0  0  0  0  0  0  0  0  0  0  0
   -3.8205    1.4462    0.0000 O   0  0  0  0  0  0  0  0  0  0  0  0
   -4.3334    2.8558    0.0000 H   0  0  0  0  0  0  0  0  0  0  0  0
   -1.3781    2.8555    0.0000 O   0  0  0  0  0  0  0  0  0  0  0  0
   -0.4139    4.0045    0.0000 H   0  0  0  0  0  0  0  0  0  0  0  0
    1.0638    1.4459    0.0000 O   0  0  0  0  0  0  0  0  0  0  0  0
    2.5411    1.1858    0.0000 H   0  0  0  0  0  0  0  0  0  0  0  0
  1  2  1  0  0  0  0 
  1  3  1  0  0  0  0 
  1  4  1  0  0  0  0 
  1  5  1  0  0  0  0 
  5  6  1  0  0  0  0 
  6  7  2  0  0  0  0 
  7  8  1  0  0  0  0 
  7  9  1  0  0  0  0 
  9 10  2  0  0  0  0 
 10 11  1  0  0  0  0 
 10 12  1  0  0  0  0 
 12 13  2  0  0  0  0 
  6 13  1  0  0  0  0 
 13 14  1  0  0  0  0 
 14 15  1  0  0  0  0 
 15 16  1  0  0  0  0 
 15 17  1  0  0  0  0 
 15 18  1  0  0  0  0 
 12 19  1  0  0  0  0 
 19 20  1  0  0  0  0 
 20 21  1  0  0  0  0 
 20 22  1  0  0  0  0 
 20 23  1  0  0  0  0 
  9 24  1  0  0  0  0 
 24 25  1  0  0  0  0 
 24 26  1  0  0  0  0 
 24 27  1  0  0  0  0 
 27 28  2  0  0  0  0 
 28 29  1  0  0  0  0 
 29 30  1  0  0  0  0 
 29 31  1  0  0  0  0 
 28 32  1  0  0  0  0 
 32 33  2  0  0  0  0 
 33 34  1  0  0  0  0 
 34 35  1  0  0  0  0 
 34 36  1  0  0  0  0 
 33 37  1  0  0  0  0 
 37 38  2  0  0  0  0 
 27 38  1  0  0  0  0 
 38 39  1  0  0  0  0 
 37 40  1  0  0  0  0 
 40 41  1  0  0  0  0 
 40 42  1  0  0  0  0 
 42 43  1  0  0  0  0 
 42 44  1  0  0  0  0 
 44 45  1  0  0  0  0 
 44 46  1  0  0  0  0 
 46 47  1  0  0  0  0 
 46 48  1  0  0  0  0 
 48 49  1  0  0  0  0 
 48 50  1  0  0  0  0 
 50 51  2  0  0  0  0 
 50 52  1  0  0  0  0 
 52 53  1  0  0  0  0 
 48 54  1  0  0  0  0 
 40 54  1  0  0  0  0 
 46 55  1  0  0  0  0 
 55 56  1  0  0  0  0 
 44 57  1  0  0  0  0 
 57 58  1  0  0  0  0 
 42 59  1  0  0  0  0 
 59 60  1  0  0  0  0 
M  CHG  1  37   1
M  END
> <Rank>
17

> <Priority_score>
0.32

> <Reaction_type>
N-glucuronidation_(aromatic_=n-)

> <Parent_ID>
43

> <Parent_InChI>
InChI=1S/C14H18N4O3/c1-19-10-5-8(6-11(20-2)12(10)21-3)4-9-7-17-14(16)18-13(9)15/h5-7H,4H2,1-3H3,(H4,15,16,17,18)

> <Parent_SMILES>
COc1cc(Cc2cnc(N)nc2N)cc(OC)c1OC

$$$$
Molecule 43_metabolite 18
  CDK     0516241031

 60 62  0  0  0  0  0  0  0  0999 V2000
    9.1666    2.7754    0.0000 C   0  0  0  0  0  0  0  0  0  0  0  0
   10.4659    3.5250    0.0000 H   0  0  0  0  0  0  0  0  0  0  0  0
    8.6540    4.1851    0.0000 H   0  0  0  0  0  0  0  0  0  0  0  0
    7.6893    2.5154    0.0000 H   0  0  0  0  0  0  0  0  0  0  0  0
    9.1661    1.2754    0.0000 O   0  0  0  0  0  0  0  0  0  0  0  0
    7.8668    0.5258    0.0000 C   0  0  0  0  0  0  0  0  0  0  0  0
    6.5679    1.2760    0.0000 C   0  0  0  0  0  0  0  0  0  0  0  0
    6.5679    2.7760    0.0000 H   0  0  0  0  0  0  0  0  0  0  0  0
    5.2683    0.5254    0.0000 C   0  0  0  0  0  0  0  0  0  0  0  0
    5.2675   -0.9754    0.0000 C   0  0  0  0  0  0  0  0  0  0  0  0
    3.9683   -1.7250    0.0000 H   0  0  0  0  0  0  0  0  0  0  0  0
    6.5665   -1.7257    0.0000 C   0  0  0  0  0  0  0  0  0  0  0  0
    7.8661   -0.9750    0.0000 C   0  0  0  0  0  0  0  0  0  0  0  0
    9.1650   -1.7252    0.0000 O   0  0  0  0  0  0  0  0  0  0  0  0
   10.4642   -0.9754    0.0000 C   0  0  0  0  0  0  0  0  0  0  0  0
   11.7631   -1.7257    0.0000 H   0  0  0  0  0  0  0  0  0  0  0  0
    9.5002    0.1738    0.0000 H   0  0  0  0  0  0  0  0  0  0  0  0
   11.4285    0.1735    0.0000 H   0  0  0  0  0  0  0  0  0  0  0  0
    6.5665   -3.2257    0.0000 O   0  0  0  0  0  0  0  0  0  0  0  0
    7.8655   -3.9757    0.0000 C   0  0  0  0  0  0  0  0  0  0  0  0
    7.8655   -5.4757    0.0000 H   0  0  0  0  0  0  0  0  0  0  0  0
    8.3785   -2.5661    0.0000 H   0  0  0  0  0  0  0  0  0  0  0  0
    9.3427   -4.2361    0.0000 H   0  0  0  0  0  0  0  0  0  0  0  0
    3.5537    1.5157    0.0000 C   0  0  0  0  0  0  0  0  0  0  0  0
    2.5897    2.6649    0.0000 H   0  0  0  0  0  0  0  0  0  0  0  0
    4.5181    2.6646    0.0000 H   0  0  0  0  0  0  0  0  0  0  0  0
    2.2545    0.7659    0.0000 C   0  0  0  0  0  0  0  0  0  0  0  0
    0.9555    1.5159    0.0000 C   0  0  0  0  0  0  0  0  0  0  0  0
    0.9553    3.0159    0.0000 N   0  0  0  0  0  0  0  0  0  0  0  0
   -0.3439    3.7657    0.0000 H   0  0  0  0  0  0  0  0  0  0  0  0
    2.2542    3.7661    0.0000 H   0  0  0  0  0  0  0  0  0  0  0  0
   -0.3440    0.7650    0.0000 N   0  0  0  0  0  0  0  0  0  0  0  0
   -0.3445   -0.7358    0.0000 C   0  0  0  0  0  0  0  0  0  0  0  0
   -1.6437   -1.4856    0.0000 N   0  0  0  0  0  0  0  0  0  0  0  0
   -2.9426   -0.7354    0.0000 H   0  0  0  0  0  0  0  0  0  0  0  0
   -1.6441   -3.9456    0.0000 H   0  0  0  0  0  0  0  0  0  0  0  0
    0.9545   -1.4858    0.0000 N   0  0  0  0  0  0  0  0  0  0  0  0
    2.2541   -0.7350    0.0000 C   0  0  0  0  0  0  0  0  0  0  0  0
    3.2182   -1.8840    0.0000 H   0  0  0  0  0  0  0  0  0  0  0  0
   -2.0588    1.7550    0.0000 C   0  0  0  0  0  0  0  0  0  0  0  0
   -1.0947    2.9042    0.0000 H   0  0  0  0  0  0  0  0  0  0  0  0
   -3.0232    2.9039    0.0000 C   0  0  0  0  0  0  0  0  0  0  0  0
   -1.7244    3.6543    0.0000 H   0  0  0  0  0  0  0  0  0  0  0  0
   -4.5011    2.6425    0.0000 C   0  0  0  0  0  0  0  0  0  0  0  0
   -4.5016    4.1425    0.0000 H   0  0  0  0  0  0  0  0  0  0  0  0
   -5.0145    1.2322    0.0000 C   0  0  0  0  0  0  0  0  0  0  0  0
   -6.3136    1.9822    0.0000 H   0  0  0  0  0  0  0  0  0  0  0  0
   -4.0501    0.0834    0.0000 C   0  0  0  0  0  0  0  0  0  0  0  0
   -5.3489   -0.6671    0.0000 H   0  0  0  0  0  0  0  0  0  0  0  0
   -3.3721   -1.7769    0.0000 C   0  0  0  0  0  0  0  0  0  0  0  0
   -2.0728   -2.5264    0.0000 O   0  0  0  0  0  0  0  0  0  0  0  0
   -4.3358   -2.9264    0.0000 O   0  0  0  0  0  0  0  0  0  0  0  0
   -5.8131   -2.6666    0.0000 H   0  0  0  0  0  0  0  0  0  0  0  0
   -2.5722    0.3448    0.0000 O   0  0  0  0  0  0  0  0  0  0  0  0
   -5.9786    0.0831    0.0000 O   0  0  0  0  0  0  0  0  0  0  0  0
   -7.4558    0.3434    0.0000 H   0  0  0  0  0  0  0  0  0  0  0  0
   -5.9783    2.9028    0.0000 O   0  0  0  0  0  0  0  0  0  0  0  0
   -6.4915    4.3123    0.0000 H   0  0  0  0  0  0  0  0  0  0  0  0
   -3.5368    4.3132    0.0000 O   0  0  0  0  0  0  0  0  0  0  0  0
   -2.5731    5.4627    0.0000 H   0  0  0  0  0  0  0  0  0  0  0  0
  1  2  1  0  0  0  0 
  1  3  1  0  0  0  0 
  1  4  1  0  0  0  0 
  1  5  1  0  0  0  0 
  5  6  1  0  0  0  0 
  6  7  2  0  0  0  0 
  7  8  1  0  0  0  0 
  7  9  1  0  0  0  0 
  9 10  2  0  0  0  0 
 10 11  1  0  0  0  0 
 10 12  1  0  0  0  0 
 12 13  2  0  0  0  0 
  6 13  1  0  0  0  0 
 13 14  1  0  0  0  0 
 14 15  1  0  0  0  0 
 15 16  1  0  0  0  0 
 15 17  1  0  0  0  0 
 15 18  1  0  0  0  0 
 12 19  1  0  0  0  0 
 19 20  1  0  0  0  0 
 20 21  1  0  0  0  0 
 20 22  1  0  0  0  0 
 20 23  1  0  0  0  0 
  9 24  1  0  0  0  0 
 24 25  1  0  0  0  0 
 24 26  1  0  0  0  0 
 24 27  1  0  0  0  0 
 27 28  2  0  0  0  0 
 28 29  1  0  0  0  0 
 29 30  1  0  0  0  0 
 29 31  1  0  0  0  0 
 28 32  1  0  0  0  0 
 32 33  2  0  0  0  0 
 33 34  1  0  0  0  0 
 34 35  1  0  0  0  0 
 34 36  1  0  0  0  0 
 33 37  1  0  0  0  0 
 37 38  2  0  0  0  0 
 27 38  1  0  0  0  0 
 38 39  1  0  0  0  0 
 32 40  1  0  0  0  0 
 40 41  1  0  0  0  0 
 40 42  1  0  0  0  0 
 42 43  1  0  0  0  0 
 42 44  1  0  0  0  0 
 44 45  1  0  0  0  0 
 44 46  1  0  0  0  0 
 46 47  1  0  0  0  0 
 46 48  1  0  0  0  0 
 48 49  1  0  0  0  0 
 48 50  1  0  0  0  0 
 50 51  2  0  0  0  0 
 50 52  1  0  0  0  0 
 52 53  1  0  0  0  0 
 48 54  1  0  0  0  0 
 40 54  1  0  0  0  0 
 46 55  1  0  0  0  0 
 55 56  1  0  0  0  0 
 44 57  1  0  0  0  0 
 57 58  1  0  0  0  0 
 42 59  1  0  0  0  0 
 59 60  1  0  0  0  0 
M  CHG  1  32   1
M  END
> <Rank>
18

> <Priority_score>
0.292

> <Reaction_type>
N-glucuronidation_(aromatic_=n-)

> <Parent_ID>
43

> <Parent_InChI>
InChI=1S/C14H18N4O3/c1-19-10-5-8(6-11(20-2)12(10)21-3)4-9-7-17-14(16)18-13(9)15/h5-7H,4H2,1-3H3,(H4,15,16,17,18)

> <Parent_SMILES>
COc1cc(Cc2cnc(N)nc2N)cc(OC)c1OC

$$$$
Molecule 43_metabolite 19
  CDK     0516241031

 40 41  0  0  0  0  0  0  0  0999 V2000
   -6.9124    3.5097    0.0000 C   0  0  0  0  0  0  0  0  0  0  0  0
   -6.9129    5.0097    0.0000 H   0  0  0  0  0  0  0  0  0  0  0  0
   -8.3897    3.7697    0.0000 H   0  0  0  0  0  0  0  0  0  0  0  0
   -7.4250    2.1000    0.0000 H   0  0  0  0  0  0  0  0  0  0  0  0
   -5.6131    2.7601    0.0000 O   0  0  0  0  0  0  0  0  0  0  0  0
   -5.6126    1.2601    0.0000 C   0  0  0  0  0  0  0  0  0  0  0  0
   -4.3135    0.5104    0.0000 C   0  0  0  0  0  0  0  0  0  0  0  0
   -3.0145    1.2604    0.0000 H   0  0  0  0  0  0  0  0  0  0  0  0
   -4.3137   -0.9905    0.0000 C   0  0  0  0  0  0  0  0  0  0  0  0
   -5.6131   -1.7415    0.0000 C   0  0  0  0  0  0  0  0  0  0  0  0
   -5.6126   -3.2415    0.0000 H   0  0  0  0  0  0  0  0  0  0  0  0
   -6.9123   -0.9917    0.0000 C   0  0  0  0  0  0  0  0  0  0  0  0
   -6.9120    0.5091    0.0000 C   0  0  0  0  0  0  0  0  0  0  0  0
   -8.2112    1.2589    0.0000 O   0  0  0  0  0  0  0  0  0  0  0  0
   -9.5101    0.5087    0.0000 C   0  0  0  0  0  0  0  0  0  0  0  0
  -10.8093    1.2585    0.0000 H   0  0  0  0  0  0  0  0  0  0  0  0
  -10.4741   -0.6405    0.0000 H   0  0  0  0  0  0  0  0  0  0  0  0
   -8.5458   -0.6402    0.0000 H   0  0  0  0  0  0  0  0  0  0  0  0
   -8.2113   -1.7417    0.0000 O   0  0  0  0  0  0  0  0  0  0  0  0
   -8.2113   -3.2417    0.0000 C   0  0  0  0  0  0  0  0  0  0  0  0
   -9.5104   -3.9917    0.0000 H   0  0  0  0  0  0  0  0  0  0  0  0
   -7.6983   -4.6513    0.0000 H   0  0  0  0  0  0  0  0  0  0  0  0
   -6.7341   -2.9813    0.0000 H   0  0  0  0  0  0  0  0  0  0  0  0
   -2.5988   -1.9802    0.0000 C   0  0  0  0  0  0  0  0  0  0  0  0
   -3.5628   -3.1294    0.0000 H   0  0  0  0  0  0  0  0  0  0  0  0
   -1.6345   -3.1291    0.0000 H   0  0  0  0  0  0  0  0  0  0  0  0
   -0.8843   -0.9899    0.0000 C   0  0  0  0  0  0  0  0  0  0  0  0
    0.4150   -1.7395    0.0000 C   0  0  0  0  0  0  0  0  0  0  0  0
    1.7143   -0.9883    0.0000 N   0  0  0  0  0  0  0  0  0  0  0  0
    1.7143    0.5126    0.0000 C   0  0  0  0  0  0  0  0  0  0  0  0
    3.0132    1.2628    0.0000 N   0  0  0  0  0  0  0  0  0  0  0  0
    3.0130    2.7628    0.0000 H   0  0  0  0  0  0  0  0  0  0  0  0
    4.3124    0.5130    0.0000 H   0  0  0  0  0  0  0  0  0  0  0  0
    0.4150    1.2621    0.0000 N   0  0  0  0  0  0  0  0  0  0  0  0
   -0.8843    0.5109    0.0000 C   0  0  0  0  0  0  0  0  0  0  0  0
   -2.0336    1.4747    0.0000 H   0  0  0  0  0  0  0  0  0  0  0  0
    0.4157   -3.2395    0.0000 N   0  0  0  0  0  0  0  0  0  0  0  0
   -0.8829   -3.9901    0.0000 H   0  0  0  0  0  0  0  0  0  0  0  0
    1.7151   -3.9889    0.0000 O   0  0  0  0  0  0  0  0  0  0  0  0
    3.0138   -3.2383    0.0000 H   0  0  0  0  0  0  0  0  0  0  0  0
  1  2  1  0  0  0  0 
  1  3  1  0  0  0  0 
  1  4  1  0  0  0  0 
  1  5  1  0  0  0  0 
  5  6  1  0  0  0  0 
  6  7  2  0  0  0  0 
  7  8  1  0  0  0  0 
  7  9  1  0  0  0  0 
  9 10  2  0  0  0  0 
 10 11  1  0  0  0  0 
 10 12  1  0  0  0  0 
 12 13  2  0  0  0  0 
  6 13  1  0  0  0  0 
 13 14  1  0  0  0  0 
 14 15  1  0  0  0  0 
 15 16  1  0  0  0  0 
 15 17  1  0  0  0  0 
 15 18  1  0  0  0  0 
 12 19  1  0  0  0  0 
 19 20  1  0  0  0  0 
 20 21  1  0  0  0  0 
 20 22  1  0  0  0  0 
 20 23  1  0  0  0  0 
  9 24  1  0  0  0  0 
 24 25  1  0  0  0  0 
 24 26  1  0  0  0  0 
 24 27  1  0  0  0  0 
 27 28  2  0  0  0  0 
 28 29  1  0  0  0  0 
 29 30  2  0  0  0  0 
 30 31  1  0  0  0  0 
 31 32  1  0  0  0  0 
 31 33  1  0  0  0  0 
 30 34  1  0  0  0  0 
 34 35  2  0  0  0  0 
 27 35  1  0  0  0  0 
 35 36  1  0  0  0  0 
 28 37  1  0  0  0  0 
 37 38  1  0  0  0  0 
 37 39  1  0  0  0  0 
 39 40  1  0  0  0  0 
M  END
> <Rank>
19

> <Priority_score>
0.136

> <Reaction_type>
N-oxidation_(aniline)

> <Parent_ID>
43

> <Parent_InChI>
InChI=1S/C14H18N4O3/c1-19-10-5-8(6-11(20-2)12(10)21-3)4-9-7-17-14(16)18-13(9)15/h5-7H,4H2,1-3H3,(H4,15,16,17,18)

> <Parent_SMILES>
COc1cc(Cc2cnc(N)nc2N)cc(OC)c1OC

$$$$
Molecule 43_metabolite 20
  CDK     0516241031

 37 38  0  0  0  0  0  0  0  0999 V2000
    1.6797    1.5898    0.0000 C   0  0  0  0  0  0  0  0  0  0  0  0
    2.1833    3.0027    0.0000 H   0  0  0  0  0  0  0  0  0  0  0  0
    1.6897    0.0898    0.0000 H   0  0  0  0  0  0  0  0  0  0  0  0
    3.1586    1.3392    0.0000 H   0  0  0  0  0  0  0  0  0  0  0  0
    0.2043    1.3194    0.0000 O   0  0  0  0  0  0  0  0  0  0  0  0
   -0.2993   -0.0935    0.0000 C   0  0  0  0  0  0  0  0  0  0  0  0
   -1.7759   -0.3574    0.0000 C   0  0  0  0  0  0  0  0  0  0  0  0
   -2.7410    0.7910    0.0000 H   0  0  0  0  0  0  0  0  0  0  0  0
   -2.2873   -1.7592    0.0000 C   0  0  0  0  0  0  0  0  0  0  0  0
   -4.8337   -0.2896    0.0000 C   0  0  0  0  0  0  0  0  0  0  0  0
   -3.8697    0.8596    0.0000 H   0  0  0  0  0  0  0  0  0  0  0  0
   -5.7980    0.8593    0.0000 H   0  0  0  0  0  0  0  0  0  0  0  0
   -6.1326   -1.0398    0.0000 C   0  0  0  0  0  0  0  0  0  0  0  0
   -7.4319   -0.2902    0.0000 C   0  0  0  0  0  0  0  0  0  0  0  0
   -7.4326    1.2098    0.0000 N   0  0  0  0  0  0  0  0  0  0  0  0
   -8.7320    1.9592    0.0000 H   0  0  0  0  0  0  0  0  0  0  0  0
   -6.1339    1.9604    0.0000 H   0  0  0  0  0  0  0  0  0  0  0  0
   -8.7312   -1.0415    0.0000 N   0  0  0  0  0  0  0  0  0  0  0  0
   -8.7312   -2.5423    0.0000 C   0  0  0  0  0  0  0  0  0  0  0  0
  -10.0301   -3.2925    0.0000 N   0  0  0  0  0  0  0  0  0  0  0  0
  -10.0298   -4.7925    0.0000 H   0  0  0  0  0  0  0  0  0  0  0  0
  -11.3292   -2.5427    0.0000 H   0  0  0  0  0  0  0  0  0  0  0  0
   -7.4319   -3.2919    0.0000 N   0  0  0  0  0  0  0  0  0  0  0  0
   -6.1326   -2.5406    0.0000 C   0  0  0  0  0  0  0  0  0  0  0  0
   -4.8333   -3.2902    0.0000 H   0  0  0  0  0  0  0  0  0  0  0  0
   -1.3204   -2.9070    0.0000 C   0  0  0  0  0  0  0  0  0  0  0  0
   -1.8304   -4.3176    0.0000 H   0  0  0  0  0  0  0  0  0  0  0  0
    0.1563   -2.6431    0.0000 C   0  0  0  0  0  0  0  0  0  0  0  0
    0.6757   -1.2297    0.0000 C   0  0  0  0  0  0  0  0  0  0  0  0
    2.1519   -0.9634    0.0000 O   0  0  0  0  0  0  0  0  0  0  0  0
    1.1199   -3.7926    0.0000 O   0  0  0  0  0  0  0  0  0  0  0  0
    2.5973   -3.5328    0.0000 C   0  0  0  0  0  0  0  0  0  0  0  0
    3.5610   -4.6823    0.0000 H   0  0  0  0  0  0  0  0  0  0  0  0
    3.8966   -2.7833    0.0000 H   0  0  0  0  0  0  0  0  0  0  0  0
    2.0848   -2.1230    0.0000 H   0  0  0  0  0  0  0  0  0  0  0  0
   -3.2503   -2.9093    0.0000 O   0  0  0  0  0  0  0  0  0  0  0  0
   -2.7358   -4.3183    0.0000 H   0  0  0  0  0  0  0  0  0  0  0  0
  1  2  1  0  0  0  0 
  1  3  1  0  0  0  0 
  1  4  1  0  0  0  0 
  1  5  1  0  0  0  0 
  5  6  1  0  0  0  0 
  6  7  2  0  0  0  0 
  7  8  1  0  0  0  0 
  7  9  1  0  0  0  0 
  9 10  1  0  0  0  0 
 10 11  1  0  0  0  0 
 10 12  1  0  0  0  0 
 10 13  1  0  0  0  0 
 13 14  2  0  0  0  0 
 14 15  1  0  0  0  0 
 15 16  1  0  0  0  0 
 15 17  1  0  0  0  0 
 14 18  1  0  0  0  0 
 18 19  2  0  0  0  0 
 19 20  1  0  0  0  0 
 20 21  1  0  0  0  0 
 20 22  1  0  0  0  0 
 19 23  1  0  0  0  0 
 23 24  2  0  0  0  0 
 13 24  1  0  0  0  0 
 24 25  1  0  0  0  0 
  9 26  1  0  0  0  0 
 26 27  1  0  0  0  0 
 26 28  2  0  0  0  0 
 28 29  1  0  0  0  0 
  6 29  1  0  0  0  0 
 29 30  2  0  0  0  0 
 28 31  1  0  0  0  0 
 31 32  1  0  0  0  0 
 32 33  1  0  0  0  0 
 32 34  1  0  0  0  0 
 32 35  1  0  0  0  0 
  9 36  1  0  0  0  0 
 36 37  1  0  0  0  0 
M  END
> <Rank>
20

> <Priority_score>
0.1264

> <Reaction_type>
oxidation of 4-substituted anisole to quinone (substituent not a leaving group)

> <Parent_ID>
43

> <Parent_InChI>
InChI=1S/C14H18N4O3/c1-19-10-5-8(6-11(20-2)12(10)21-3)4-9-7-17-14(16)18-13(9)15/h5-7H,4H2,1-3H3,(H4,15,16,17,18)

> <Parent_SMILES>
COc1cc(Cc2cnc(N)nc2N)cc(OC)c1OC

$$$$
Molecule 43_metabolite 21
  CDK     0516241031

 35 36  0  0  0  0  0  0  0  0999 V2000
    2.5962    0.7548    0.0000 C   0  0  0  0  0  0  0  0  0  0  0  0
    3.8966    0.0071    0.0000 H   0  0  0  0  0  0  0  0  0  0  0  0
    3.5583    1.9056    0.0000 H   0  0  0  0  0  0  0  0  0  0  0  0
    1.6299    1.9021    0.0000 H   0  0  0  0  0  0  0  0  0  0  0  0
    1.2986    0.0024    0.0000 O   0  0  0  0  0  0  0  0  0  0  0  0
   -0.0019    0.7500    0.0000 C   0  0  0  0  0  0  0  0  0  0  0  0
   -1.2996   -0.0022    0.0000 C   0  0  0  0  0  0  0  0  0  0  0  0
   -2.6004    0.7465    0.0000 C   0  0  0  0  0  0  0  0  0  0  0  0
   -3.8994   -0.0035    0.0000 O   0  0  0  0  0  0  0  0  0  0  0  0
   -2.5984    2.2387    0.0000 C   0  0  0  0  0  0  0  0  0  0  0  0
   -1.3006    2.9908    0.0000 C   0  0  0  0  0  0  0  0  0  0  0  0
   -1.3054    4.4908    0.0000 H   0  0  0  0  0  0  0  0  0  0  0  0
   -0.0048    2.2508    0.0000 C   0  0  0  0  0  0  0  0  0  0  0  0
    1.2917    3.0052    0.0000 O   0  0  0  0  0  0  0  0  0  0  0  0
   -3.8975    2.9884    0.0000 C   0  0  0  0  0  0  0  0  0  0  0  0
   -2.9335    4.1377    0.0000 H   0  0  0  0  0  0  0  0  0  0  0  0
   -4.8619    4.1374    0.0000 H   0  0  0  0  0  0  0  0  0  0  0  0
   -6.0278    1.7581    0.0000 C   0  0  0  0  0  0  0  0  0  0  0  0
   -7.3270    2.5077    0.0000 C   0  0  0  0  0  0  0  0  0  0  0  0
   -7.3278    4.0077    0.0000 N   0  0  0  0  0  0  0  0  0  0  0  0
   -8.6272    4.7571    0.0000 H   0  0  0  0  0  0  0  0  0  0  0  0
   -6.0291    4.7583    0.0000 H   0  0  0  0  0  0  0  0  0  0  0  0
   -8.6263    1.7564    0.0000 N   0  0  0  0  0  0  0  0  0  0  0  0
   -8.6263    0.2556    0.0000 C   0  0  0  0  0  0  0  0  0  0  0  0
   -9.9252   -0.4946    0.0000 N   0  0  0  0  0  0  0  0  0  0  0  0
   -9.9250   -1.9946    0.0000 H   0  0  0  0  0  0  0  0  0  0  0  0
  -11.2244    0.2552    0.0000 H   0  0  0  0  0  0  0  0  0  0  0  0
   -7.3270   -0.4940    0.0000 N   0  0  0  0  0  0  0  0  0  0  0  0
   -6.0278    0.2573    0.0000 C   0  0  0  0  0  0  0  0  0  0  0  0
   -4.7285   -0.4923    0.0000 H   0  0  0  0  0  0  0  0  0  0  0  0
   -1.2974   -1.5022    0.0000 O   0  0  0  0  0  0  0  0  0  0  0  0
    0.0028   -2.2502    0.0000 C   0  0  0  0  0  0  0  0  0  0  0  0
    0.0051   -3.7502    0.0000 H   0  0  0  0  0  0  0  0  0  0  0  0
    0.5137   -0.8399    0.0000 H   0  0  0  0  0  0  0  0  0  0  0  0
    1.4804   -2.5084    0.0000 H   0  0  0  0  0  0  0  0  0  0  0  0
  1  2  1  0  0  0  0 
  1  3  1  0  0  0  0 
  1  4  1  0  0  0  0 
  1  5  1  0  0  0  0 
  5  6  1  0  0  0  0 
  6  7  2  0  0  0  0 
  7  8  1  0  0  0  0 
  8  9  2  0  0  0  0 
  8 10  1  0  0  0  0 
 10 11  2  0  0  0  0 
 11 12  1  0  0  0  0 
 11 13  1  0  0  0  0 
  6 13  1  0  0  0  0 
 13 14  2  0  0  0  0 
 10 15  1  0  0  0  0 
 15 16  1  0  0  0  0 
 15 17  1  0  0  0  0 
 15 18  1  0  0  0  0 
 18 19  2  0  0  0  0 
 19 20  1  0  0  0  0 
 20 21  1  0  0  0  0 
 20 22  1  0  0  0  0 
 19 23  1  0  0  0  0 
 23 24  2  0  0  0  0 
 24 25  1  0  0  0  0 
 25 26  1  0  0  0  0 
 25 27  1  0  0  0  0 
 24 28  1  0  0  0  0 
 28 29  2  0  0  0  0 
 18 29  1  0  0  0  0 
 29 30  1  0  0  0  0 
  7 31  1  0  0  0  0 
 31 32  1  0  0  0  0 
 32 33  1  0  0  0  0 
 32 34  1  0  0  0  0 
 32 35  1  0  0  0  0 
M  END
> <Rank>
21

> <Priority_score>
0.1128

> <Reaction_type>
oxidation of 4-substituted anisole to quinone

> <Parent_ID>
43

> <Parent_InChI>
InChI=1S/C14H18N4O3/c1-19-10-5-8(6-11(20-2)12(10)21-3)4-9-7-17-14(16)18-13(9)15/h5-7H,4H2,1-3H3,(H4,15,16,17,18)

> <Parent_SMILES>
COc1cc(Cc2cnc(N)nc2N)cc(OC)c1OC

$$$$
Molecule 43_metabolite 22
  CDK     0516241031

 40 41  0  0  0  0  0  0  0  0999 V2000
   -7.3281    3.2697    0.0000 C   0  0  0  0  0  0  0  0  0  0  0  0
   -7.3285    4.7697    0.0000 H   0  0  0  0  0  0  0  0  0  0  0  0
   -8.8054    3.5297    0.0000 H   0  0  0  0  0  0  0  0  0  0  0  0
   -7.8406    1.8600    0.0000 H   0  0  0  0  0  0  0  0  0  0  0  0
   -6.0288    2.5201    0.0000 O   0  0  0  0  0  0  0  0  0  0  0  0
   -6.0283    1.0201    0.0000 C   0  0  0  0  0  0  0  0  0  0  0  0
   -4.7291    0.2703    0.0000 C   0  0  0  0  0  0  0  0  0  0  0  0
   -3.4301    1.0203    0.0000 H   0  0  0  0  0  0  0  0  0  0  0  0
   -4.7294   -1.2305    0.0000 C   0  0  0  0  0  0  0  0  0  0  0  0
   -6.0288   -1.9816    0.0000 C   0  0  0  0  0  0  0  0  0  0  0  0
   -6.0283   -3.4816    0.0000 H   0  0  0  0  0  0  0  0  0  0  0  0
   -7.3279   -1.2318    0.0000 C   0  0  0  0  0  0  0  0  0  0  0  0
   -7.3277    0.2690    0.0000 C   0  0  0  0  0  0  0  0  0  0  0  0
   -8.6269    1.0188    0.0000 O   0  0  0  0  0  0  0  0  0  0  0  0
   -9.9258    0.2686    0.0000 C   0  0  0  0  0  0  0  0  0  0  0  0
  -11.2249    1.0184    0.0000 H   0  0  0  0  0  0  0  0  0  0  0  0
  -10.8898   -0.8806    0.0000 H   0  0  0  0  0  0  0  0  0  0  0  0
   -8.9614   -0.8803    0.0000 H   0  0  0  0  0  0  0  0  0  0  0  0
   -8.6270   -1.9818    0.0000 O   0  0  0  0  0  0  0  0  0  0  0  0
   -8.6270   -3.4818    0.0000 C   0  0  0  0  0  0  0  0  0  0  0  0
   -9.9260   -4.2318    0.0000 H   0  0  0  0  0  0  0  0  0  0  0  0
   -8.1139   -4.8913    0.0000 H   0  0  0  0  0  0  0  0  0  0  0  0
   -7.1498   -3.2213    0.0000 H   0  0  0  0  0  0  0  0  0  0  0  0
   -3.4302   -1.9803    0.0000 C   0  0  0  0  0  0  0  0  0  0  0  0
   -4.3942   -3.1296    0.0000 H   0  0  0  0  0  0  0  0  0  0  0  0
   -2.4659   -3.1293    0.0000 H   0  0  0  0  0  0  0  0  0  0  0  0
   -1.3000   -0.7500    0.0000 C   0  0  0  0  0  0  0  0  0  0  0  0
   -1.3000    0.7500    0.0000 C   0  0  0  0  0  0  0  0  0  0  0  0
    0.0000    1.5000    0.0000 N   0  0  0  0  0  0  0  0  0  0  0  0
    1.3000    0.7500    0.0000 C   0  0  0  0  0  0  0  0  0  0  0  0
    2.5989    1.5002    0.0000 N   0  0  0  0  0  0  0  0  0  0  0  0
    3.8981    0.7504    0.0000 H   0  0  0  0  0  0  0  0  0  0  0  0
    2.5987    3.0002    0.0000 H   0  0  0  0  0  0  0  0  0  0  0  0
    1.3000   -0.7500    0.0000 N   0  0  0  0  0  0  0  0  0  0  0  0
    0.0000   -1.5000    0.0000 C   0  0  0  0  0  0  0  0  0  0  0  0
   -0.0000   -3.0000    0.0000 N   0  0  0  0  0  0  0  0  0  0  0  0
    1.2990   -3.7500    0.0000 H   0  0  0  0  0  0  0  0  0  0  0  0
   -1.2990   -3.7500    0.0000 H   0  0  0  0  0  0  0  0  0  0  0  0
   -2.5989    1.5002    0.0000 O   0  0  0  0  0  0  0  0  0  0  0  0
   -2.5987    3.0002    0.0000 H   0  0  0  0  0  0  0  0  0  0  0  0
  1  2  1  0  0  0  0 
  1  3  1  0  0  0  0 
  1  4  1  0  0  0  0 
  1  5  1  0  0  0  0 
  5  6  1  0  0  0  0 
  6  7  2  0  0  0  0 
  7  8  1  0  0  0  0 
  7  9  1  0  0  0  0 
  9 10  2  0  0  0  0 
 10 11  1  0  0  0  0 
 10 12  1  0  0  0  0 
 12 13  2  0  0  0  0 
  6 13  1  0  0  0  0 
 13 14  1  0  0  0  0 
 14 15  1  0  0  0  0 
 15 16  1  0  0  0  0 
 15 17  1  0  0  0  0 
 15 18  1  0  0  0  0 
 12 19  1  0  0  0  0 
 19 20  1  0  0  0  0 
 20 21  1  0  0  0  0 
 20 22  1  0  0  0  0 
 20 23  1  0  0  0  0 
  9 24  1  0  0  0  0 
 24 25  1  0  0  0  0 
 24 26  1  0  0  0  0 
 24 27  1  0  0  0  0 
 27 28  2  0  0  0  0 
 28 29  1  0  0  0  0 
 29 30  2  0  0  0  0 
 30 31  1  0  0  0  0 
 31 32  1  0  0  0  0 
 31 33  1  0  0  0  0 
 30 34  1  0  0  0  0 
 34 35  2  0  0  0  0 
 27 35  1  0  0  0  0 
 35 36  1  0  0  0  0 
 36 37  1  0  0  0  0 
 36 38  1  0  0  0  0 
 28 39  1  0  0  0  0 
 39 40  1  0  0  0  0 
M  END
> <Rank>
22

> <Priority_score>
0.1

> <Reaction_type>
aromatic hydroxylation

> <Parent_ID>
43

> <Parent_InChI>
InChI=1S/C14H18N4O3/c1-19-10-5-8(6-11(20-2)12(10)21-3)4-9-7-17-14(16)18-13(9)15/h5-7H,4H2,1-3H3,(H4,15,16,17,18)

> <Parent_SMILES>
COc1cc(Cc2cnc(N)nc2N)cc(OC)c1OC

$$$$
Molecule 43_metabolite 23
  CDK     0516241031

 40 41  0  0  0  0  0  0  0  0999 V2000
   -0.0081   -2.4256    0.0000 C   0  0  0  0  0  0  0  0  0  0  0  0
   -0.0127   -3.9256    0.0000 H   0  0  0  0  0  0  0  0  0  0  0  0
    1.4683   -2.6906    0.0000 H   0  0  0  0  0  0  0  0  0  0  0  0
    0.5092   -1.0177    0.0000 H   0  0  0  0  0  0  0  0  0  0  0  0
   -1.3049   -1.6717    0.0000 O   0  0  0  0  0  0  0  0  0  0  0  0
   -1.3004   -0.1717    0.0000 C   0  0  0  0  0  0  0  0  0  0  0  0
   -2.5893    0.5800    0.0000 C   0  0  0  0  0  0  0  0  0  0  0  0
   -3.8905   -0.1662    0.0000 H   0  0  0  0  0  0  0  0  0  0  0  0
   -2.5873    2.0800    0.0000 C   0  0  0  0  0  0  0  0  0  0  0  0
   -1.2963    2.8283    0.0000 C   0  0  0  0  0  0  0  0  0  0  0  0
    0.0027    2.0765    0.0000 C   0  0  0  0  0  0  0  0  0  0  0  0
    0.0007    0.5765    0.0000 C   0  0  0  0  0  0  0  0  0  0  0  0
    1.2986   -0.1755    0.0000 O   0  0  0  0  0  0  0  0  0  0  0  0
    2.5987    0.5726    0.0000 C   0  0  0  0  0  0  0  0  0  0  0  0
    3.8966   -0.1794    0.0000 H   0  0  0  0  0  0  0  0  0  0  0  0
    3.5647    1.7202    0.0000 H   0  0  0  0  0  0  0  0  0  0  0  0
    1.6363    1.7231    0.0000 H   0  0  0  0  0  0  0  0  0  0  0  0
    1.3026    2.8250    0.0000 O   0  0  0  0  0  0  0  0  0  0  0  0
    1.3044    4.3250    0.0000 C   0  0  0  0  0  0  0  0  0  0  0  0
    2.6043    5.0734    0.0000 H   0  0  0  0  0  0  0  0  0  0  0  0
    0.7931    5.7351    0.0000 H   0  0  0  0  0  0  0  0  0  0  0  0
   -0.1731    4.0663    0.0000 H   0  0  0  0  0  0  0  0  0  0  0  0
   -1.2968    4.3283    0.0000 O   0  0  0  0  0  0  0  0  0  0  0  0
    0.0020    5.0787    0.0000 H   0  0  0  0  0  0  0  0  0  0  0  0
   -4.7179    3.3097    0.0000 C   0  0  0  0  0  0  0  0  0  0  0  0
   -3.7539    4.4589    0.0000 H   0  0  0  0  0  0  0  0  0  0  0  0
   -5.6823    4.4586    0.0000 H   0  0  0  0  0  0  0  0  0  0  0  0
   -6.0168    2.5595    0.0000 C   0  0  0  0  0  0  0  0  0  0  0  0
   -7.3161    3.3091    0.0000 C   0  0  0  0  0  0  0  0  0  0  0  0
   -7.3168    4.8091    0.0000 N   0  0  0  0  0  0  0  0  0  0  0  0
   -8.6162    5.5584    0.0000 H   0  0  0  0  0  0  0  0  0  0  0  0
   -6.0182    5.5597    0.0000 H   0  0  0  0  0  0  0  0  0  0  0  0
   -8.6154    2.5578    0.0000 N   0  0  0  0  0  0  0  0  0  0  0  0
   -8.6154    1.0570    0.0000 C   0  0  0  0  0  0  0  0  0  0  0  0
   -9.9143    0.3068    0.0000 N   0  0  0  0  0  0  0  0  0  0  0  0
   -9.9141   -1.1932    0.0000 H   0  0  0  0  0  0  0  0  0  0  0  0
  -11.2135    1.0566    0.0000 H   0  0  0  0  0  0  0  0  0  0  0  0
   -7.3161    0.3074    0.0000 N   0  0  0  0  0  0  0  0  0  0  0  0
   -6.0168    1.0586    0.0000 C   0  0  0  0  0  0  0  0  0  0  0  0
   -4.6071    0.5461    0.0000 H   0  0  0  0  0  0  0  0  0  0  0  0
  1  2  1  0  0  0  0 
  1  3  1  0  0  0  0 
  1  4  1  0  0  0  0 
  1  5  1  0  0  0  0 
  5  6  1  0  0  0  0 
  6  7  2  0  0  0  0 
  7  8  1  0  0  0  0 
  7  9  1  0  0  0  0 
  9 10  2  0  0  0  0 
 10 11  1  0  0  0  0 
 11 12  2  0  0  0  0 
  6 12  1  0  0  0  0 
 12 13  1  0  0  0  0 
 13 14  1  0  0  0  0 
 14 15  1  0  0  0  0 
 14 16  1  0  0  0  0 
 14 17  1  0  0  0  0 
 11 18  1  0  0  0  0 
 18 19  1  0  0  0  0 
 19 20  1  0  0  0  0 
 19 21  1  0  0  0  0 
 19 22  1  0  0  0  0 
 10 23  1  0  0  0  0 
 23 24  1  0  0  0  0 
  9 25  1  0  0  0  0 
 25 26  1  0  0  0  0 
 25 27  1  0  0  0  0 
 25 28  1  0  0  0  0 
 28 29  2  0  0  0  0 
 29 30  1  0  0  0  0 
 30 31  1  0  0  0  0 
 30 32  1  0  0  0  0 
 29 33  1  0  0  0  0 
 33 34  2  0  0  0  0 
 34 35  1  0  0  0  0 
 35 36  1  0  0  0  0 
 35 37  1  0  0  0  0 
 34 38  1  0  0  0  0 
 38 39  2  0  0  0  0 
 28 39  1  0  0  0  0 
 39 40  1  0  0  0  0 
M  END
> <Rank>
23

> <Priority_score>
0.016

> <Reaction_type>
aromatic_hydroxylation_(para_to_oxygen)

> <Parent_ID>
43

> <Parent_InChI>
InChI=1S/C14H18N4O3/c1-19-10-5-8(6-11(20-2)12(10)21-3)4-9-7-17-14(16)18-13(9)15/h5-7H,4H2,1-3H3,(H4,15,16,17,18)

> <Parent_SMILES>
COc1cc(Cc2cnc(N)nc2N)cc(OC)c1OC

$$$$
Molecule 44
  CDK     0516241031

 28 31  0  0  0  0  0  0  0  0999 V2000
   -5.1981   -0.7504    0.0000 C   0  0  0  0  0  0  0  0  0  0  0  0
   -3.8989   -1.5002    0.0000 O   0  0  0  0  0  0  0  0  0  0  0  0
   -2.6000   -0.7500    0.0000 C   0  0  0  0  0  0  0  0  0  0  0  0
   -1.3000   -1.5000    0.0000 C   0  0  0  0  0  0  0  0  0  0  0  0
    0.0000   -0.7500    0.0000 C   0  0  0  0  0  0  0  0  0  0  0  0
    1.3000   -1.5000    0.0000 C   0  0  0  0  0  0  0  0  0  0  0  0
    1.3000   -3.0000    0.0000 N   0  0  0  0  0  0  0  0  0  0  0  0
    2.6000   -0.7500    0.0000 N   0  0  0  0  0  0  0  0  0  0  0  0
    2.6000    0.7500    0.0000 C   0  0  0  0  0  0  0  0  0  0  0  0
    1.3000    1.5000    0.0000 N   0  0  0  0  0  0  0  0  0  0  0  0
    0.0000    0.7500    0.0000 C   0  0  0  0  0  0  0  0  0  0  0  0
   -1.3000    1.5000    0.0000 C   0  0  0  0  0  0  0  0  0  0  0  0
   -2.6000    0.7500    0.0000 C   0  0  0  0  0  0  0  0  0  0  0  0
   -3.8989    1.5002    0.0000 O   0  0  0  0  0  0  0  0  0  0  0  0
   -5.1981    0.7504    0.0000 C   0  0  0  0  0  0  0  0  0  0  0  0
    3.8989    1.5002    0.0000 N   0  0  0  0  0  0  0  0  0  0  0  0
    5.1989    0.7502    0.0000 C   0  0  0  0  0  0  0  0  0  0  0  0
    6.4989    1.5002    0.0000 C   0  0  0  0  0  0  0  0  0  0  0  0
    6.4989    3.0002    0.0000 N   0  0  0  0  0  0  0  0  0  0  0  0
    5.1989    3.7502    0.0000 C   0  0  0  0  0  0  0  0  0  0  0  0
    3.8989    3.0002    0.0000 C   0  0  0  0  0  0  0  0  0  0  0  0
    7.7978    3.7504    0.0000 C   0  0  0  0  0  0  0  0  0  0  0  0
    7.7976    5.2504    0.0000 O   0  0  0  0  0  0  0  0  0  0  0  0
    9.0970    3.0006    0.0000 C   0  0  0  0  0  0  0  0  0  0  0  0
   10.4660    3.6031    0.0000 C   0  0  0  0  0  0  0  0  0  0  0  0
   11.4711    2.4896    0.0000 C   0  0  0  0  0  0  0  0  0  0  0  0
   10.7251    1.1967    0.0000 C   0  0  0  0  0  0  0  0  0  0  0  0
    9.2611    1.5053    0.0000 O   0  0  0  0  0  0  0  0  0  0  0  0
  1  2  1  0  0  0  0 
  2  3  1  0  0  0  0 
  3  4  2  0  0  0  0 
  4  5  1  0  0  0  0 
  5  6  2  0  0  0  0 
  6  7  1  0  0  0  0 
  6  8  1  0  0  0  0 
  8  9  2  0  0  0  0 
  9 10  1  0  0  0  0 
 10 11  2  0  0  0  0 
  5 11  1  0  0  0  0 
 11 12  1  0  0  0  0 
 12 13  2  0  0  0  0 
  3 13  1  0  0  0  0 
 13 14  1  0  0  0  0 
 14 15  1  0  0  0  0 
  9 16  1  0  0  0  0 
 16 17  1  0  0  0  0 
 17 18  1  0  0  0  0 
 18 19  1  0  0  0  0 
 19 20  1  0  0  0  0 
 20 21  1  0  0  0  0 
 16 21  1  0  0  0  0 
 19 22  1  0  0  0  0 
 22 23  2  0  0  0  0 
 22 24  1  0  0  0  0 
 24 25  1  0  0  0  0 
 25 26  1  0  0  0  0 
 26 27  1  0  0  0  0 
 27 28  1  0  0  0  0 
 24 28  1  0  0  0  0 
M  END
> <SMILES>
COc1cc2nc(N3CCN(C(=O)C4CCCO4)CC3)nc(N)c2cc1OC

$$$$
Molecule 44_metabolite 1
  CDK     0516241031

 73 77  0  0  0  0  0  0  0  0999 V2000
    9.0958  -21.0102    0.0000 C   0  0  0  0  0  0  0  0  0  0  0  0
   10.3947  -21.7604    0.0000 H   0  0  0  0  0  0  0  0  0  0  0  0
    7.6186  -20.7495    0.0000 H   0  0  0  0  0  0  0  0  0  0  0  0
    8.5825  -22.4197    0.0000 H   0  0  0  0  0  0  0  0  0  0  0  0
    9.0960  -19.5102    0.0000 O   0  0  0  0  0  0  0  0  0  0  0  0
    7.7971  -18.7600    0.0000 C   0  0  0  0  0  0  0  0  0  0  0  0
    7.7971  -17.2592    0.0000 C   0  0  0  0  0  0  0  0  0  0  0  0
    9.0964  -16.5096    0.0000 H   0  0  0  0  0  0  0  0  0  0  0  0
    6.4978  -16.5079    0.0000 C   0  0  0  0  0  0  0  0  0  0  0  0
    6.4978  -15.0071    0.0000 C   0  0  0  0  0  0  0  0  0  0  0  0
    7.7971  -14.2575    0.0000 N   0  0  0  0  0  0  0  0  0  0  0  0
    9.0959  -15.0079    0.0000 H   0  0  0  0  0  0  0  0  0  0  0  0
    7.7976  -12.7575    0.0000 C   0  0  0  0  0  0  0  0  0  0  0  0
    6.3203  -13.0173    0.0000 H   0  0  0  0  0  0  0  0  0  0  0  0
    7.2853  -11.3477    0.0000 C   0  0  0  0  0  0  0  0  0  0  0  0
    5.9858  -12.0969    0.0000 H   0  0  0  0  0  0  0  0  0  0  0  0
    8.2510  -10.1988    0.0000 C   0  0  0  0  0  0  0  0  0  0  0  0
    6.9525   -9.4480    0.0000 H   0  0  0  0  0  0  0  0  0  0  0  0
    9.7290  -10.4597    0.0000 C   0  0  0  0  0  0  0  0  0  0  0  0
    9.7295   -8.9597    0.0000 H   0  0  0  0  0  0  0  0  0  0  0  0
   10.2413  -11.8695    0.0000 C   0  0  0  0  0  0  0  0  0  0  0  0
   11.5408  -11.1204    0.0000 H   0  0  0  0  0  0  0  0  0  0  0  0
   11.2046  -13.0193    0.0000 C   0  0  0  0  0  0  0  0  0  0  0  0
   10.6905  -14.4285    0.0000 O   0  0  0  0  0  0  0  0  0  0  0  0
   12.6820  -12.7600    0.0000 O   0  0  0  0  0  0  0  0  0  0  0  0
   13.1961  -11.3508    0.0000 H   0  0  0  0  0  0  0  0  0  0  0  0
    9.2756  -13.0184    0.0000 O   0  0  0  0  0  0  0  0  0  0  0  0
   11.2063  -10.1999    0.0000 O   0  0  0  0  0  0  0  0  0  0  0  0
   11.7199   -8.7906    0.0000 H   0  0  0  0  0  0  0  0  0  0  0  0
    8.7646   -8.7895    0.0000 O   0  0  0  0  0  0  0  0  0  0  0  0
    7.8010   -7.6400    0.0000 H   0  0  0  0  0  0  0  0  0  0  0  0
    6.3220  -10.1979    0.0000 O   0  0  0  0  0  0  0  0  0  0  0  0
    4.8446  -10.4573    0.0000 H   0  0  0  0  0  0  0  0  0  0  0  0
    5.1986  -14.2558    0.0000 N   0  0  0  0  0  0  0  0  0  0  0  0
    3.8993  -15.0054    0.0000 C   0  0  0  0  0  0  0  0  0  0  0  0
    3.8993  -16.5062    0.0000 N   0  0  0  0  0  0  0  0  0  0  0  0
    5.1986  -17.2575    0.0000 C   0  0  0  0  0  0  0  0  0  0  0  0
    5.1986  -18.7583    0.0000 C   0  0  0  0  0  0  0  0  0  0  0  0
    3.8993  -19.5079    0.0000 H   0  0  0  0  0  0  0  0  0  0  0  0
    6.4978  -19.5096    0.0000 C   0  0  0  0  0  0  0  0  0  0  0  0
    6.4971  -21.0096    0.0000 O   0  0  0  0  0  0  0  0  0  0  0  0
    5.1977  -21.7590    0.0000 C   0  0  0  0  0  0  0  0  0  0  0  0
    5.1970  -23.2590    0.0000 H   0  0  0  0  0  0  0  0  0  0  0  0
    4.6854  -20.3492    0.0000 H   0  0  0  0  0  0  0  0  0  0  0  0
    3.7204  -22.0187    0.0000 H   0  0  0  0  0  0  0  0  0  0  0  0
    2.6004  -14.2552    0.0000 N   0  0  0  0  0  0  0  0  0  0  0  0
    2.6004  -12.7544    0.0000 C   0  0  0  0  0  0  0  0  0  0  0  0
    4.0775  -13.0152    0.0000 H   0  0  0  0  0  0  0  0  0  0  0  0
    3.1140  -11.3451    0.0000 H   0  0  0  0  0  0  0  0  0  0  0  0
    1.3011  -12.0031    0.0000 C   0  0  0  0  0  0  0  0  0  0  0  0
    2.2659  -10.8546    0.0000 H   0  0  0  0  0  0  0  0  0  0  0  0
    0.3374  -10.8536    0.0000 H   0  0  0  0  0  0  0  0  0  0  0  0
    0.0018  -12.7527    0.0000 N   0  0  0  0  0  0  0  0  0  0  0  0
    0.0018  -14.2535    0.0000 C   0  0  0  0  0  0  0  0  0  0  0  0
   -1.4754  -13.9928    0.0000 H   0  0  0  0  0  0  0  0  0  0  0  0
   -0.5118  -15.6629    0.0000 H   0  0  0  0  0  0  0  0  0  0  0  0
    1.3011  -15.0048    0.0000 C   0  0  0  0  0  0  0  0  0  0  0  0
    0.3363  -16.1533    0.0000 H   0  0  0  0  0  0  0  0  0  0  0  0
    2.2648  -16.1543    0.0000 H   0  0  0  0  0  0  0  0  0  0  0  0
   -1.2971  -12.0025    0.0000 C   0  0  0  0  0  0  0  0  0  0  0  0
   -1.2969  -10.5025    0.0000 O   0  0  0  0  0  0  0  0  0  0  0  0
   -3.4277  -13.2322    0.0000 C   0  0  0  0  0  0  0  0  0  0  0  0
   -2.5499  -14.4484    0.0000 H   0  0  0  0  0  0  0  0  0  0  0  0
   -4.0400  -11.8674    0.0000 C   0  0  0  0  0  0  0  0  0  0  0  0
   -4.3506  -10.3999    0.0000 H   0  0  0  0  0  0  0  0  0  0  0  0
   -2.6138  -11.4025    0.0000 H   0  0  0  0  0  0  0  0  0  0  0  0
   -5.5321  -12.0202    0.0000 C   0  0  0  0  0  0  0  0  0  0  0  0
   -7.0236  -11.8603    0.0000 H   0  0  0  0  0  0  0  0  0  0  0  0
   -5.5286  -10.5202    0.0000 H   0  0  0  0  0  0  0  0  0  0  0  0
   -5.8451  -13.4797    0.0000 C   0  0  0  0  0  0  0  0  0  0  0  0
   -6.4589  -14.8484    0.0000 H   0  0  0  0  0  0  0  0  0  0  0  0
   -7.2706  -13.0130    0.0000 H   0  0  0  0  0  0  0  0  0  0  0  0
   -4.5517  -14.2319    0.0000 O   0  0  0  0  0  0  0  0  0  0  0  0
  1  2  1  0  0  0  0 
  1  3  1  0  0  0  0 
  1  4  1  0  0  0  0 
  1  5  1  0  0  0  0 
  5  6  1  0  0  0  0 
  6  7  2  0  0  0  0 
  7  8  1  0  0  0  0 
  7  9  1  0  0  0  0 
  9 10  2  0  0  0  0 
 10 11  1  0  0  0  0 
 11 12  1  0  0  0  0 
 11 13  1  0  0  0  0 
 13 14  1  0  0  0  0 
 13 15  1  0  0  0  0 
 15 16  1  0  0  0  0 
 15 17  1  0  0  0  0 
 17 18  1  0  0  0  0 
 17 19  1  0  0  0  0 
 19 20  1  0  0  0  0 
 19 21  1  0  0  0  0 
 21 22  1  0  0  0  0 
 21 23  1  0  0  0  0 
 23 24  2  0  0  0  0 
 23 25  1  0  0  0  0 
 25 26  1  0  0  0  0 
 21 27  1  0  0  0  0 
 13 27  1  0  0  0  0 
 19 28  1  0  0  0  0 
 28 29  1  0  0  0  0 
 17 30  1  0  0  0  0 
 30 31  1  0  0  0  0 
 15 32  1  0  0  0  0 
 32 33  1  0  0  0  0 
 10 34  1  0  0  0  0 
 34 35  2  0  0  0  0 
 35 36  1  0  0  0  0 
 36 37  2  0  0  0  0 
  9 37  1  0  0  0  0 
 37 38  1  0  0  0  0 
 38 39  1  0  0  0  0 
 38 40  2  0  0  0  0 
  6 40  1  0  0  0  0 
 40 41  1  0  0  0  0 
 41 42  1  0  0  0  0 
 42 43  1  0  0  0  0 
 42 44  1  0  0  0  0 
 42 45  1  0  0  0  0 
 35 46  1  0  0  0  0 
 46 47  1  0  0  0  0 
 47 48  1  0  0  0  0 
 47 49  1  0  0  0  0 
 47 50  1  0  0  0  0 
 50 51  1  0  0  0  0 
 50 52  1  0  0  0  0 
 50 53  1  0  0  0  0 
 53 54  1  0  0  0  0 
 54 55  1  0  0  0  0 
 54 56  1  0  0  0  0 
 54 57  1  0  0  0  0 
 46 57  1  0  0  0  0 
 57 58  1  0  0  0  0 
 57 59  1  0  0  0  0 
 53 60  1  0  0  0  0 
 60 61  2  0  0  0  0 
 60 62  1  0  0  0  0 
 62 63  1  0  0  0  0 
 62 64  1  0  0  0  0 
 64 65  1  0  0  0  0 
 64 66  1  0  0  0  0 
 64 67  1  0  0  0  0 
 67 68  1  0  0  0  0 
 67 69  1  0  0  0  0 
 67 70  1  0  0  0  0 
 70 71  1  0  0  0  0 
 70 72  1  0  0  0  0 
 70 73  1  0  0  0  0 
 62 73  1  0  0  0  0 
M  END
> <Rank>
1

> <Priority_score>
0.776

> <Reaction_type>
N-glucuronidation_(aniline)

> <Parent_ID>
44

> <Parent_InChI>
InChI=1S/C19H25N5O4/c1-26-15-10-12-13(11-16(15)27-2)21-19(22-17(12)20)24-7-5-23(6-8-24)18(25)14-4-3-9-28-14/h10-11,14H,3-9H2,1-2H3,(H2,20,21,22)

> <Parent_SMILES>
COc1cc2nc(N3CCN(C(=O)C4CCCO4)CC3)nc(N)c2cc1OC

$$$$
Molecule 44_metabolite 2
  CDK     0516241031

 50 53  0  0  0  0  0  0  0  0999 V2000
   -5.6135   -2.4305    0.0000 C   0  0  0  0  0  0  0  0  0  0  0  0
   -6.9124   -3.1807    0.0000 H   0  0  0  0  0  0  0  0  0  0  0  0
   -4.6495   -1.2813    0.0000 H   0  0  0  0  0  0  0  0  0  0  0  0
   -6.5779   -1.2816    0.0000 H   0  0  0  0  0  0  0  0  0  0  0  0
   -4.3143   -3.1803    0.0000 O   0  0  0  0  0  0  0  0  0  0  0  0
   -3.0154   -2.4301    0.0000 C   0  0  0  0  0  0  0  0  0  0  0  0
   -1.7154   -3.1801    0.0000 C   0  0  0  0  0  0  0  0  0  0  0  0
   -1.7154   -4.6801    0.0000 H   0  0  0  0  0  0  0  0  0  0  0  0
   -0.4154   -2.4301    0.0000 C   0  0  0  0  0  0  0  0  0  0  0  0
    0.8846   -3.1801    0.0000 C   0  0  0  0  0  0  0  0  0  0  0  0
    0.8846   -4.6801    0.0000 N   0  0  0  0  0  0  0  0  0  0  0  0
    2.1836   -5.4301    0.0000 H   0  0  0  0  0  0  0  0  0  0  0  0
   -0.4145   -5.4301    0.0000 H   0  0  0  0  0  0  0  0  0  0  0  0
    2.1846   -2.4301    0.0000 N   0  0  0  0  0  0  0  0  0  0  0  0
    2.1846   -0.9301    0.0000 C   0  0  0  0  0  0  0  0  0  0  0  0
    0.8846   -0.1801    0.0000 N   0  0  0  0  0  0  0  0  0  0  0  0
   -0.4154   -0.9301    0.0000 C   0  0  0  0  0  0  0  0  0  0  0  0
   -1.7154   -0.1801    0.0000 C   0  0  0  0  0  0  0  0  0  0  0  0
   -1.7154    1.3199    0.0000 H   0  0  0  0  0  0  0  0  0  0  0  0
   -3.0154   -0.9301    0.0000 C   0  0  0  0  0  0  0  0  0  0  0  0
   -4.3143   -0.1799    0.0000 O   0  0  0  0  0  0  0  0  0  0  0  0
   -4.3141    1.3201    0.0000 H   0  0  0  0  0  0  0  0  0  0  0  0
    3.4835   -0.1799    0.0000 N   0  0  0  0  0  0  0  0  0  0  0  0
    4.7835   -0.9299    0.0000 C   0  0  0  0  0  0  0  0  0  0  0  0
    3.8194   -2.0790    0.0000 H   0  0  0  0  0  0  0  0  0  0  0  0
    5.7476   -2.0790    0.0000 H   0  0  0  0  0  0  0  0  0  0  0  0
    6.0835   -0.1799    0.0000 C   0  0  0  0  0  0  0  0  0  0  0  0
    6.5962   -1.5895    0.0000 H   0  0  0  0  0  0  0  0  0  0  0  0
    7.5607    0.0805    0.0000 H   0  0  0  0  0  0  0  0  0  0  0  0
    6.0835    1.3201    0.0000 N   0  0  0  0  0  0  0  0  0  0  0  0
    4.7835    2.0701    0.0000 C   0  0  0  0  0  0  0  0  0  0  0  0
    5.7476    3.2193    0.0000 H   0  0  0  0  0  0  0  0  0  0  0  0
    3.8194    3.2193    0.0000 H   0  0  0  0  0  0  0  0  0  0  0  0
    3.4835    1.3201    0.0000 C   0  0  0  0  0  0  0  0  0  0  0  0
    2.9708    2.7298    0.0000 H   0  0  0  0  0  0  0  0  0  0  0  0
    2.0063    1.0598    0.0000 H   0  0  0  0  0  0  0  0  0  0  0  0
    7.7981    2.3104    0.0000 C   0  0  0  0  0  0  0  0  0  0  0  0
    7.7976    5.2504    0.0000 O   0  0  0  0  0  0  0  0  0  0  0  0
    9.5130    1.3207    0.0000 C   0  0  0  0  0  0  0  0  0  0  0  0
    8.6351    0.1044    0.0000 H   0  0  0  0  0  0  0  0  0  0  0  0
   10.1252    2.6854    0.0000 C   0  0  0  0  0  0  0  0  0  0  0  0
   10.4358    4.1529    0.0000 H   0  0  0  0  0  0  0  0  0  0  0  0
    8.6990    3.1504    0.0000 H   0  0  0  0  0  0  0  0  0  0  0  0
   11.6174    2.5326    0.0000 C   0  0  0  0  0  0  0  0  0  0  0  0
   13.1088    2.6925    0.0000 H   0  0  0  0  0  0  0  0  0  0  0  0
   11.6138    4.0326    0.0000 H   0  0  0  0  0  0  0  0  0  0  0  0
   11.9303    1.0731    0.0000 C   0  0  0  0  0  0  0  0  0  0  0  0
   12.5441   -0.2955    0.0000 H   0  0  0  0  0  0  0  0  0  0  0  0
   13.3559    1.5399    0.0000 H   0  0  0  0  0  0  0  0  0  0  0  0
   10.6370    0.3210    0.0000 O   0  0  0  0  0  0  0  0  0  0  0  0
  1  2  1  0  0  0  0 
  1  3  1  0  0  0  0 
  1  4  1  0  0  0  0 
  1  5  1  0  0  0  0 
  5  6  1  0  0  0  0 
  6  7  2  0  0  0  0 
  7  8  1  0  0  0  0 
  7  9  1  0  0  0  0 
  9 10  2  0  0  0  0 
 10 11  1  0  0  0  0 
 11 12  1  0  0  0  0 
 11 13  1  0  0  0  0 
 10 14  1  0  0  0  0 
 14 15  2  0  0  0  0 
 15 16  1  0  0  0  0 
 16 17  2  0  0  0  0 
  9 17  1  0  0  0  0 
 17 18  1  0  0  0  0 
 18 19  1  0  0  0  0 
 18 20  2  0  0  0  0 
  6 20  1  0  0  0  0 
 20 21  1  0  0  0  0 
 21 22  1  0  0  0  0 
 15 23  1  0  0  0  0 
 23 24  1  0  0  0  0 
 24 25  1  0  0  0  0 
 24 26  1  0  0  0  0 
 24 27  1  0  0  0  0 
 27 28  1  0  0  0  0 
 27 29  1  0  0  0  0 
 27 30  1  0  0  0  0 
 30 31  1  0  0  0  0 
 31 32  1  0  0  0  0 
 31 33  1  0  0  0  0 
 31 34  1  0  0  0  0 
 23 34  1  0  0  0  0 
 34 35  1  0  0  0  0 
 34 36  1  0  0  0  0 
 30 37  1  0  0  0  0 
 37 38  2  0  0  0  0 
 37 39  1  0  0  0  0 
 39 40  1  0  0  0  0 
 39 41  1  0  0  0  0 
 41 42  1  0  0  0  0 
 41 43  1  0  0  0  0 
 41 44  1  0  0  0  0 
 44 45  1  0  0  0  0 
 44 46  1  0  0  0  0 
 44 47  1  0  0  0  0 
 47 48  1  0  0  0  0 
 47 49  1  0  0  0  0 
 47 50  1  0  0  0  0 
 39 50  1  0  0  0  0 
M  END
> <Rank>
2

> <Priority_score>
0.6755576360444704

> <Reaction_type>
O-demethylation

> <Parent_ID>
44

> <Parent_InChI>
InChI=1S/C19H25N5O4/c1-26-15-10-12-13(11-16(15)27-2)21-19(22-17(12)20)24-7-5-23(6-8-24)18(25)14-4-3-9-28-14/h10-11,14H,3-9H2,1-2H3,(H2,20,21,22)

> <Parent_SMILES>
COc1cc2nc(N3CCN(C(=O)C4CCCO4)CC3)nc(N)c2cc1OC

$$$$
Molecule 44_metabolite 3
  CDK     0516241031

 54 57  0  0  0  0  0  0  0  0999 V2000
   -5.6135   -2.4305    0.0000 C   0  0  0  0  0  0  0  0  0  0  0  0
   -6.9124   -3.1807    0.0000 H   0  0  0  0  0  0  0  0  0  0  0  0
   -4.6495   -1.2813    0.0000 H   0  0  0  0  0  0  0  0  0  0  0  0
   -6.5779   -1.2816    0.0000 H   0  0  0  0  0  0  0  0  0  0  0  0
   -4.3143   -3.1803    0.0000 O   0  0  0  0  0  0  0  0  0  0  0  0
   -3.0154   -2.4301    0.0000 C   0  0  0  0  0  0  0  0  0  0  0  0
   -1.7154   -3.1801    0.0000 C   0  0  0  0  0  0  0  0  0  0  0  0
   -1.7154   -4.6801    0.0000 H   0  0  0  0  0  0  0  0  0  0  0  0
   -0.4154   -2.4301    0.0000 C   0  0  0  0  0  0  0  0  0  0  0  0
    0.8846   -3.1801    0.0000 C   0  0  0  0  0  0  0  0  0  0  0  0
    0.8846   -4.6801    0.0000 N   0  0  0  0  0  0  0  0  0  0  0  0
    2.1836   -5.4301    0.0000 H   0  0  0  0  0  0  0  0  0  0  0  0
   -0.4145   -5.4301    0.0000 H   0  0  0  0  0  0  0  0  0  0  0  0
    2.1846   -2.4301    0.0000 N   0  0  0  0  0  0  0  0  0  0  0  0
    2.1846   -0.9301    0.0000 C   0  0  0  0  0  0  0  0  0  0  0  0
    0.8846   -0.1801    0.0000 N   0  0  0  0  0  0  0  0  0  0  0  0
   -0.4154   -0.9301    0.0000 C   0  0  0  0  0  0  0  0  0  0  0  0
   -1.7154   -0.1801    0.0000 C   0  0  0  0  0  0  0  0  0  0  0  0
   -1.7154    1.3199    0.0000 H   0  0  0  0  0  0  0  0  0  0  0  0
   -3.0154   -0.9301    0.0000 C   0  0  0  0  0  0  0  0  0  0  0  0
   -4.3143   -0.1799    0.0000 O   0  0  0  0  0  0  0  0  0  0  0  0
   -4.3141    1.3201    0.0000 C   0  0  0  0  0  0  0  0  0  0  0  0
   -2.8369    1.0594    0.0000 H   0  0  0  0  0  0  0  0  0  0  0  0
   -3.8008    2.7296    0.0000 H   0  0  0  0  0  0  0  0  0  0  0  0
   -5.6130    2.0703    0.0000 O   0  0  0  0  0  0  0  0  0  0  0  0
   -5.6128    3.5703    0.0000 H   0  0  0  0  0  0  0  0  0  0  0  0
    3.4835   -0.1799    0.0000 N   0  0  0  0  0  0  0  0  0  0  0  0
    4.7835   -0.9299    0.0000 C   0  0  0  0  0  0  0  0  0  0  0  0
    3.8194   -2.0790    0.0000 H   0  0  0  0  0  0  0  0  0  0  0  0
    5.7476   -2.0790    0.0000 H   0  0  0  0  0  0  0  0  0  0  0  0
    6.0835   -0.1799    0.0000 C   0  0  0  0  0  0  0  0  0  0  0  0
    6.5962   -1.5895    0.0000 H   0  0  0  0  0  0  0  0  0  0  0  0
    7.5607    0.0805    0.0000 H   0  0  0  0  0  0  0  0  0  0  0  0
    6.0835    1.3201    0.0000 N   0  0  0  0  0  0  0  0  0  0  0  0
    4.7835    2.0701    0.0000 C   0  0  0  0  0  0  0  0  0  0  0  0
    5.7476    3.2193    0.0000 H   0  0  0  0  0  0  0  0  0  0  0  0
    3.8194    3.2193    0.0000 H   0  0  0  0  0  0  0  0  0  0  0  0
    3.4835    1.3201    0.0000 C   0  0  0  0  0  0  0  0  0  0  0  0
    2.9708    2.7298    0.0000 H   0  0  0  0  0  0  0  0  0  0  0  0
    2.0063    1.0598    0.0000 H   0  0  0  0  0  0  0  0  0  0  0  0
    7.7981    2.3104    0.0000 C   0  0  0  0  0  0  0  0  0  0  0  0
    7.7976    5.2504    0.0000 O   0  0  0  0  0  0  0  0  0  0  0  0
    9.5130    1.3207    0.0000 C   0  0  0  0  0  0  0  0  0  0  0  0
    8.6351    0.1044    0.0000 H   0  0  0  0  0  0  0  0  0  0  0  0
   10.1252    2.6854    0.0000 C   0  0  0  0  0  0  0  0  0  0  0  0
   10.4358    4.1529    0.0000 H   0  0  0  0  0  0  0  0  0  0  0  0
    8.6990    3.1504    0.0000 H   0  0  0  0  0  0  0  0  0  0  0  0
   11.6174    2.5326    0.0000 C   0  0  0  0  0  0  0  0  0  0  0  0
   13.1088    2.6925    0.0000 H   0  0  0  0  0  0  0  0  0  0  0  0
   11.6138    4.0326    0.0000 H   0  0  0  0  0  0  0  0  0  0  0  0
   11.9303    1.0731    0.0000 C   0  0  0  0  0  0  0  0  0  0  0  0
   12.5441   -0.2955    0.0000 H   0  0  0  0  0  0  0  0  0  0  0  0
   13.3559    1.5399    0.0000 H   0  0  0  0  0  0  0  0  0  0  0  0
   10.6370    0.3210    0.0000 O   0  0  0  0  0  0  0  0  0  0  0  0
  1  2  1  0  0  0  0 
  1  3  1  0  0  0  0 
  1  4  1  0  0  0  0 
  1  5  1  0  0  0  0 
  5  6  1  0  0  0  0 
  6  7  2  0  0  0  0 
  7  8  1  0  0  0  0 
  7  9  1  0  0  0  0 
  9 10  2  0  0  0  0 
 10 11  1  0  0  0  0 
 11 12  1  0  0  0  0 
 11 13  1  0  0  0  0 
 10 14  1  0  0  0  0 
 14 15  2  0  0  0  0 
 15 16  1  0  0  0  0 
 16 17  2  0  0  0  0 
  9 17  1  0  0  0  0 
 17 18  1  0  0  0  0 
 18 19  1  0  0  0  0 
 18 20  2  0  0  0  0 
  6 20  1  0  0  0  0 
 20 21  1  0  0  0  0 
 21 22  1  0  0  0  0 
 22 23  1  0  0  0  0 
 22 24  1  0  0  0  0 
 22 25  1  0  0  0  0 
 25 26  1  0  0  0  0 
 15 27  1  0  0  0  0 
 27 28  1  0  0  0  0 
 28 29  1  0  0  0  0 
 28 30  1  0  0  0  0 
 28 31  1  0  0  0  0 
 31 32  1  0  0  0  0 
 31 33  1  0  0  0  0 
 31 34  1  0  0  0  0 
 34 35  1  0  0  0  0 
 35 36  1  0  0  0  0 
 35 37  1  0  0  0  0 
 35 38  1  0  0  0  0 
 27 38  1  0  0  0  0 
 38 39  1  0  0  0  0 
 38 40  1  0  0  0  0 
 34 41  1  0  0  0  0 
 41 42  2  0  0  0  0 
 41 43  1  0  0  0  0 
 43 44  1  0  0  0  0 
 43 45  1  0  0  0  0 
 45 46  1  0  0  0  0 
 45 47  1  0  0  0  0 
 45 48  1  0  0  0  0 
 48 49  1  0  0  0  0 
 48 50  1  0  0  0  0 
 48 51  1  0  0  0  0 
 51 52  1  0  0  0  0 
 51 53  1  0  0  0  0 
 51 54  1  0  0  0  0 
 43 54  1  0  0  0  0 
M  END
> <Rank>
2

> <Priority_score>
0.6755576360444704

> <Reaction_type>
aliphatic hydroxylation

> <Parent_ID>
44

> <Parent_InChI>
InChI=1S/C19H25N5O4/c1-26-15-10-12-13(11-16(15)27-2)21-19(22-17(12)20)24-7-5-23(6-8-24)18(25)14-4-3-9-28-14/h10-11,14H,3-9H2,1-2H3,(H2,20,21,22)

> <Parent_SMILES>
COc1cc2nc(N3CCN(C(=O)C4CCCO4)CC3)nc(N)c2cc1OC

$$$$
Molecule 44_metabolite 4
  CDK     0516241031

 58 61  0  0  0  0  0  0  0  0999 V2000
   12.9995   -5.2483    0.0000 C   0  0  0  0  0  0  0  0  0  0  0  0
   11.7007   -5.9987    0.0000 H   0  0  0  0  0  0  0  0  0  0  0  0
   14.4766   -4.9874    0.0000 H   0  0  0  0  0  0  0  0  0  0  0  0
   13.5130   -6.6577    0.0000 H   0  0  0  0  0  0  0  0  0  0  0  0
   12.9990   -3.7483    0.0000 C   0  0  0  0  0  0  0  0  0  0  0  0
   11.6998   -2.9987    0.0000 O   0  0  0  0  0  0  0  0  0  0  0  0
   14.2978   -2.9979    0.0000 N   0  0  0  0  0  0  0  0  0  0  0  0
   15.5971   -3.7475    0.0000 H   0  0  0  0  0  0  0  0  0  0  0  0
   14.2974   -1.4979    0.0000 C   0  0  0  0  0  0  0  0  0  0  0  0
   15.5971   -0.7475    0.0000 C   0  0  0  0  0  0  0  0  0  0  0  0
   16.8974   -1.4971    0.0000 C   0  0  0  0  0  0  0  0  0  0  0  0
   16.8978   -2.9971    0.0000 H   0  0  0  0  0  0  0  0  0  0  0  0
   18.1971   -0.7467    0.0000 C   0  0  0  0  0  0  0  0  0  0  0  0
   18.1966    0.7533    0.0000 C   0  0  0  0  0  0  0  0  0  0  0  0
   16.8964    1.5029    0.0000 C   0  0  0  0  0  0  0  0  0  0  0  0
   16.8959    3.0029    0.0000 H   0  0  0  0  0  0  0  0  0  0  0  0
   15.5966    0.7525    0.0000 C   0  0  0  0  0  0  0  0  0  0  0  0
   14.2964    1.5021    0.0000 N   0  0  0  0  0  0  0  0  0  0  0  0
   12.9966    0.7517    0.0000 C   0  0  0  0  0  0  0  0  0  0  0  0
   12.9971   -0.7483    0.0000 N   0  0  0  0  0  0  0  0  0  0  0  0
   11.6975    1.5015    0.0000 N   0  0  0  0  0  0  0  0  0  0  0  0
   10.3977    0.7510    0.0000 C   0  0  0  0  0  0  0  0  0  0  0  0
   11.3621   -0.3978    0.0000 H   0  0  0  0  0  0  0  0  0  0  0  0
    9.4340   -0.3984    0.0000 H   0  0  0  0  0  0  0  0  0  0  0  0
    9.0975    1.5006    0.0000 C   0  0  0  0  0  0  0  0  0  0  0  0
    8.5852    0.0908    0.0000 H   0  0  0  0  0  0  0  0  0  0  0  0
    7.6202    1.7605    0.0000 H   0  0  0  0  0  0  0  0  0  0  0  0
    9.0970    3.0006    0.0000 N   0  0  0  0  0  0  0  0  0  0  0  0
   10.3968    3.7510    0.0000 C   0  0  0  0  0  0  0  0  0  0  0  0
    9.4323    4.8999    0.0000 H   0  0  0  0  0  0  0  0  0  0  0  0
   11.3604    4.9005    0.0000 H   0  0  0  0  0  0  0  0  0  0  0  0
   11.6970    3.0015    0.0000 C   0  0  0  0  0  0  0  0  0  0  0  0
   12.2093    4.4113    0.0000 H   0  0  0  0  0  0  0  0  0  0  0  0
   13.1743    2.7416    0.0000 H   0  0  0  0  0  0  0  0  0  0  0  0
    7.7978    3.7504    0.0000 C   0  0  0  0  0  0  0  0  0  0  0  0
    6.4989    3.0002    0.0000 O   0  0  0  0  0  0  0  0  0  0  0  0
    7.7974    6.2104    0.0000 C   0  0  0  0  0  0  0  0  0  0  0  0
    9.2897    6.0583    0.0000 H   0  0  0  0  0  0  0  0  0  0  0  0
    6.3094    6.0582    0.0000 C   0  0  0  0  0  0  0  0  0  0  0  0
    4.8832    5.5935    0.0000 H   0  0  0  0  0  0  0  0  0  0  0  0
    6.6199    4.5907    0.0000 H   0  0  0  0  0  0  0  0  0  0  0  0
    5.6957    7.4269    0.0000 C   0  0  0  0  0  0  0  0  0  0  0  0
    4.8115    8.6386    0.0000 H   0  0  0  0  0  0  0  0  0  0  0  0
    4.3984    6.6739    0.0000 H   0  0  0  0  0  0  0  0  0  0  0  0
    6.8032    8.4277    0.0000 C   0  0  0  0  0  0  0  0  0  0  0  0
    7.6816    9.6436    0.0000 H   0  0  0  0  0  0  0  0  0  0  0  0
    5.6862    9.4289    0.0000 H   0  0  0  0  0  0  0  0  0  0  0  0
    8.1012    7.6837    0.0000 O   0  0  0  0  0  0  0  0  0  0  0  0
   19.4953    1.5040    0.0000 O   0  0  0  0  0  0  0  0  0  0  0  0
   20.7947    0.7546    0.0000 C   0  0  0  0  0  0  0  0  0  0  0  0
   20.7954   -0.7454    0.0000 H   0  0  0  0  0  0  0  0  0  0  0  0
   22.2720    0.4948    0.0000 H   0  0  0  0  0  0  0  0  0  0  0  0
   21.3071    2.1644    0.0000 H   0  0  0  0  0  0  0  0  0  0  0  0
   19.4963   -1.4965    0.0000 O   0  0  0  0  0  0  0  0  0  0  0  0
   19.4965   -2.9965    0.0000 C   0  0  0  0  0  0  0  0  0  0  0  0
   20.7957   -3.7463    0.0000 H   0  0  0  0  0  0  0  0  0  0  0  0
   18.0193   -2.7362    0.0000 H   0  0  0  0  0  0  0  0  0  0  0  0
   18.9837   -4.4061    0.0000 H   0  0  0  0  0  0  0  0  0  0  0  0
  1  2  1  0  0  0  0 
  1  3  1  0  0  0  0 
  1  4  1  0  0  0  0 
  1  5  1  0  0  0  0 
  5  6  2  0  0  0  0 
  5  7  1  0  0  0  0 
  7  8  1  0  0  0  0 
  7  9  1  0  0  0  0 
  9 10  2  0  0  0  0 
 10 11  1  0  0  0  0 
 11 12  1  0  0  0  0 
 11 13  2  0  0  0  0 
 13 14  1  0  0  0  0 
 14 15  2  0  0  0  0 
 15 16  1  0  0  0  0 
 15 17  1  0  0  0  0 
 10 17  1  0  0  0  0 
 17 18  2  0  0  0  0 
 18 19  1  0  0  0  0 
 19 20  2  0  0  0  0 
  9 20  1  0  0  0  0 
 19 21  1  0  0  0  0 
 21 22  1  0  0  0  0 
 22 23  1  0  0  0  0 
 22 24  1  0  0  0  0 
 22 25  1  0  0  0  0 
 25 26  1  0  0  0  0 
 25 27  1  0  0  0  0 
 25 28  1  0  0  0  0 
 28 29  1  0  0  0  0 
 29 30  1  0  0  0  0 
 29 31  1  0  0  0  0 
 29 32  1  0  0  0  0 
 21 32  1  0  0  0  0 
 32 33  1  0  0  0  0 
 32 34  1  0  0  0  0 
 28 35  1  0  0  0  0 
 35 36  2  0  0  0  0 
 35 37  1  0  0  0  0 
 37 38  1  0  0  0  0 
 37 39  1  0  0  0  0 
 39 40  1  0  0  0  0 
 39 41  1  0  0  0  0 
 39 42  1  0  0  0  0 
 42 43  1  0  0  0  0 
 42 44  1  0  0  0  0 
 42 45  1  0  0  0  0 
 45 46  1  0  0  0  0 
 45 47  1  0  0  0  0 
 45 48  1  0  0  0  0 
 37 48  1  0  0  0  0 
 14 49  1  0  0  0  0 
 49 50  1  0  0  0  0 
 50 51  1  0  0  0  0 
 50 52  1  0  0  0  0 
 50 53  1  0  0  0  0 
 13 54  1  0  0  0  0 
 54 55  1  0  0  0  0 
 55 56  1  0  0  0  0 
 55 57  1  0  0  0  0 
 55 58  1  0  0  0  0 
M  END
> <Rank>
4

> <Priority_score>
0.524

> <Reaction_type>
N-acetylation_(aniline)

> <Parent_ID>
44

> <Parent_InChI>
InChI=1S/C19H25N5O4/c1-26-15-10-12-13(11-16(15)27-2)21-19(22-17(12)20)24-7-5-23(6-8-24)18(25)14-4-3-9-28-14/h10-11,14H,3-9H2,1-2H3,(H2,20,21,22)

> <Parent_SMILES>
COc1cc2nc(N3CCN(C(=O)C4CCCO4)CC3)nc(N)c2cc1OC

$$$$
Molecule 44_metabolite 5
  CDK     0516241031

 50 53  0  0  0  0  0  0  0  0999 V2000
   -5.6135   -0.9297    0.0000 C   0  0  0  0  0  0  0  0  0  0  0  0
   -6.9124   -0.1794    0.0000 H   0  0  0  0  0  0  0  0  0  0  0  0
   -6.5779   -2.0786    0.0000 H   0  0  0  0  0  0  0  0  0  0  0  0
   -4.6495   -2.0789    0.0000 H   0  0  0  0  0  0  0  0  0  0  0  0
   -4.3143   -0.1799    0.0000 O   0  0  0  0  0  0  0  0  0  0  0  0
   -3.0154   -0.9301    0.0000 C   0  0  0  0  0  0  0  0  0  0  0  0
   -1.7154   -0.1801    0.0000 C   0  0  0  0  0  0  0  0  0  0  0  0
   -1.7154    1.3199    0.0000 H   0  0  0  0  0  0  0  0  0  0  0  0
   -0.4154   -0.9301    0.0000 C   0  0  0  0  0  0  0  0  0  0  0  0
    0.8846   -0.1801    0.0000 N   0  0  0  0  0  0  0  0  0  0  0  0
    2.1846   -0.9301    0.0000 C   0  0  0  0  0  0  0  0  0  0  0  0
    2.1846   -2.4301    0.0000 N   0  0  0  0  0  0  0  0  0  0  0  0
    0.8846   -3.1801    0.0000 C   0  0  0  0  0  0  0  0  0  0  0  0
   -0.4154   -2.4301    0.0000 C   0  0  0  0  0  0  0  0  0  0  0  0
   -1.7154   -3.1801    0.0000 C   0  0  0  0  0  0  0  0  0  0  0  0
   -1.7154   -4.6801    0.0000 H   0  0  0  0  0  0  0  0  0  0  0  0
   -3.0154   -2.4301    0.0000 C   0  0  0  0  0  0  0  0  0  0  0  0
   -4.3143   -3.1803    0.0000 O   0  0  0  0  0  0  0  0  0  0  0  0
   -4.3141   -4.6803    0.0000 H   0  0  0  0  0  0  0  0  0  0  0  0
    0.8846   -4.6801    0.0000 N   0  0  0  0  0  0  0  0  0  0  0  0
    2.1836   -5.4301    0.0000 H   0  0  0  0  0  0  0  0  0  0  0  0
   -0.4145   -5.4301    0.0000 H   0  0  0  0  0  0  0  0  0  0  0  0
    3.4835   -0.1799    0.0000 N   0  0  0  0  0  0  0  0  0  0  0  0
    4.7835   -0.9299    0.0000 C   0  0  0  0  0  0  0  0  0  0  0  0
    3.8194   -2.0790    0.0000 H   0  0  0  0  0  0  0  0  0  0  0  0
    5.7476   -2.0790    0.0000 H   0  0  0  0  0  0  0  0  0  0  0  0
    6.0835   -0.1799    0.0000 C   0  0  0  0  0  0  0  0  0  0  0  0
    6.5962   -1.5895    0.0000 H   0  0  0  0  0  0  0  0  0  0  0  0
    7.5607    0.0805    0.0000 H   0  0  0  0  0  0  0  0  0  0  0  0
    6.0835    1.3201    0.0000 N   0  0  0  0  0  0  0  0  0  0  0  0
    4.7835    2.0701    0.0000 C   0  0  0  0  0  0  0  0  0  0  0  0
    5.7476    3.2193    0.0000 H   0  0  0  0  0  0  0  0  0  0  0  0
    3.8194    3.2193    0.0000 H   0  0  0  0  0  0  0  0  0  0  0  0
    3.4835    1.3201    0.0000 C   0  0  0  0  0  0  0  0  0  0  0  0
    2.9708    2.7298    0.0000 H   0  0  0  0  0  0  0  0  0  0  0  0
    2.0063    1.0598    0.0000 H   0  0  0  0  0  0  0  0  0  0  0  0
    7.7981    2.3104    0.0000 C   0  0  0  0  0  0  0  0  0  0  0  0
    7.7976    5.2504    0.0000 O   0  0  0  0  0  0  0  0  0  0  0  0
    9.5130    1.3207    0.0000 C   0  0  0  0  0  0  0  0  0  0  0  0
    8.6351    0.1044    0.0000 H   0  0  0  0  0  0  0  0  0  0  0  0
   10.1252    2.6854    0.0000 C   0  0  0  0  0  0  0  0  0  0  0  0
   10.4358    4.1529    0.0000 H   0  0  0  0  0  0  0  0  0  0  0  0
    8.6990    3.1504    0.0000 H   0  0  0  0  0  0  0  0  0  0  0  0
   11.6174    2.5326    0.0000 C   0  0  0  0  0  0  0  0  0  0  0  0
   13.1088    2.6925    0.0000 H   0  0  0  0  0  0  0  0  0  0  0  0
   11.6138    4.0326    0.0000 H   0  0  0  0  0  0  0  0  0  0  0  0
   11.9303    1.0731    0.0000 C   0  0  0  0  0  0  0  0  0  0  0  0
   12.5441   -0.2955    0.0000 H   0  0  0  0  0  0  0  0  0  0  0  0
   13.3559    1.5399    0.0000 H   0  0  0  0  0  0  0  0  0  0  0  0
   10.6370    0.3210    0.0000 O   0  0  0  0  0  0  0  0  0  0  0  0
  1  2  1  0  0  0  0 
  1  3  1  0  0  0  0 
  1  4  1  0  0  0  0 
  1  5  1  0  0  0  0 
  5  6  1  0  0  0  0 
  6  7  2  0  0  0  0 
  7  8  1  0  0  0  0 
  7  9  1  0  0  0  0 
  9 10  2  0  0  0  0 
 10 11  1  0  0  0  0 
 11 12  2  0  0  0  0 
 12 13  1  0  0  0  0 
 13 14  2  0  0  0  0 
  9 14  1  0  0  0  0 
 14 15  1  0  0  0  0 
 15 16  1  0  0  0  0 
 15 17  2  0  0  0  0 
  6 17  1  0  0  0  0 
 17 18  1  0  0  0  0 
 18 19  1  0  0  0  0 
 13 20  1  0  0  0  0 
 20 21  1  0  0  0  0 
 20 22  1  0  0  0  0 
 11 23  1  0  0  0  0 
 23 24  1  0  0  0  0 
 24 25  1  0  0  0  0 
 24 26  1  0  0  0  0 
 24 27  1  0  0  0  0 
 27 28  1  0  0  0  0 
 27 29  1  0  0  0  0 
 27 30  1  0  0  0  0 
 30 31  1  0  0  0  0 
 31 32  1  0  0  0  0 
 31 33  1  0  0  0  0 
 31 34  1  0  0  0  0 
 23 34  1  0  0  0  0 
 34 35  1  0  0  0  0 
 34 36  1  0  0  0  0 
 30 37  1  0  0  0  0 
 37 38  2  0  0  0  0 
 37 39  1  0  0  0  0 
 39 40  1  0  0  0  0 
 39 41  1  0  0  0  0 
 41 42  1  0  0  0  0 
 41 43  1  0  0  0  0 
 41 44  1  0  0  0  0 
 44 45  1  0  0  0  0 
 44 46  1  0  0  0  0 
 44 47  1  0  0  0  0 
 47 48  1  0  0  0  0 
 47 49  1  0  0  0  0 
 47 50  1  0  0  0  0 
 39 50  1  0  0  0  0 
M  END
> <Rank>
5

> <Priority_score>
0.42

> <Reaction_type>
O-demethylation

> <Parent_ID>
44

> <Parent_InChI>
InChI=1S/C19H25N5O4/c1-26-15-10-12-13(11-16(15)27-2)21-19(22-17(12)20)24-7-5-23(6-8-24)18(25)14-4-3-9-28-14/h10-11,14H,3-9H2,1-2H3,(H2,20,21,22)

> <Parent_SMILES>
COc1cc2nc(N3CCN(C(=O)C4CCCO4)CC3)nc(N)c2cc1OC

$$$$
Molecule 44_metabolite 6
  CDK     0516241031

 54 57  0  0  0  0  0  0  0  0999 V2000
   -5.6135   -0.9297    0.0000 C   0  0  0  0  0  0  0  0  0  0  0  0
   -6.9124   -0.1794    0.0000 H   0  0  0  0  0  0  0  0  0  0  0  0
   -6.5779   -2.0786    0.0000 H   0  0  0  0  0  0  0  0  0  0  0  0
   -4.6495   -2.0789    0.0000 H   0  0  0  0  0  0  0  0  0  0  0  0
   -4.3143   -0.1799    0.0000 O   0  0  0  0  0  0  0  0  0  0  0  0
   -3.0154   -0.9301    0.0000 C   0  0  0  0  0  0  0  0  0  0  0  0
   -1.7154   -0.1801    0.0000 C   0  0  0  0  0  0  0  0  0  0  0  0
   -1.7154    1.3199    0.0000 H   0  0  0  0  0  0  0  0  0  0  0  0
   -0.4154   -0.9301    0.0000 C   0  0  0  0  0  0  0  0  0  0  0  0
    0.8846   -0.1801    0.0000 N   0  0  0  0  0  0  0  0  0  0  0  0
    2.1846   -0.9301    0.0000 C   0  0  0  0  0  0  0  0  0  0  0  0
    2.1846   -2.4301    0.0000 N   0  0  0  0  0  0  0  0  0  0  0  0
    0.8846   -3.1801    0.0000 C   0  0  0  0  0  0  0  0  0  0  0  0
   -0.4154   -2.4301    0.0000 C   0  0  0  0  0  0  0  0  0  0  0  0
   -1.7154   -3.1801    0.0000 C   0  0  0  0  0  0  0  0  0  0  0  0
   -1.7154   -4.6801    0.0000 H   0  0  0  0  0  0  0  0  0  0  0  0
   -3.0154   -2.4301    0.0000 C   0  0  0  0  0  0  0  0  0  0  0  0
   -4.3143   -3.1803    0.0000 O   0  0  0  0  0  0  0  0  0  0  0  0
   -4.3141   -4.6803    0.0000 C   0  0  0  0  0  0  0  0  0  0  0  0
   -3.8008   -6.0897    0.0000 H   0  0  0  0  0  0  0  0  0  0  0  0
   -2.8369   -4.4196    0.0000 H   0  0  0  0  0  0  0  0  0  0  0  0
   -5.6130   -5.4305    0.0000 O   0  0  0  0  0  0  0  0  0  0  0  0
   -5.6128   -6.9305    0.0000 H   0  0  0  0  0  0  0  0  0  0  0  0
    0.8846   -4.6801    0.0000 N   0  0  0  0  0  0  0  0  0  0  0  0
    2.1836   -5.4301    0.0000 H   0  0  0  0  0  0  0  0  0  0  0  0
   -0.4145   -5.4301    0.0000 H   0  0  0  0  0  0  0  0  0  0  0  0
    3.4835   -0.1799    0.0000 N   0  0  0  0  0  0  0  0  0  0  0  0
    4.7835   -0.9299    0.0000 C   0  0  0  0  0  0  0  0  0  0  0  0
    3.8194   -2.0790    0.0000 H   0  0  0  0  0  0  0  0  0  0  0  0
    5.7476   -2.0790    0.0000 H   0  0  0  0  0  0  0  0  0  0  0  0
    6.0835   -0.1799    0.0000 C   0  0  0  0  0  0  0  0  0  0  0  0
    6.5962   -1.5895    0.0000 H   0  0  0  0  0  0  0  0  0  0  0  0
    7.5607    0.0805    0.0000 H   0  0  0  0  0  0  0  0  0  0  0  0
    6.0835    1.3201    0.0000 N   0  0  0  0  0  0  0  0  0  0  0  0
    4.7835    2.0701    0.0000 C   0  0  0  0  0  0  0  0  0  0  0  0
    5.7476    3.2193    0.0000 H   0  0  0  0  0  0  0  0  0  0  0  0
    3.8194    3.2193    0.0000 H   0  0  0  0  0  0  0  0  0  0  0  0
    3.4835    1.3201    0.0000 C   0  0  0  0  0  0  0  0  0  0  0  0
    2.9708    2.7298    0.0000 H   0  0  0  0  0  0  0  0  0  0  0  0
    2.0063    1.0598    0.0000 H   0  0  0  0  0  0  0  0  0  0  0  0
    7.7981    2.3104    0.0000 C   0  0  0  0  0  0  0  0  0  0  0  0
    7.7976    5.2504    0.0000 O   0  0  0  0  0  0  0  0  0  0  0  0
    9.5130    1.3207    0.0000 C   0  0  0  0  0  0  0  0  0  0  0  0
    8.6351    0.1044    0.0000 H   0  0  0  0  0  0  0  0  0  0  0  0
   10.1252    2.6854    0.0000 C   0  0  0  0  0  0  0  0  0  0  0  0
   10.4358    4.1529    0.0000 H   0  0  0  0  0  0  0  0  0  0  0  0
    8.6990    3.1504    0.0000 H   0  0  0  0  0  0  0  0  0  0  0  0
   11.6174    2.5326    0.0000 C   0  0  0  0  0  0  0  0  0  0  0  0
   13.1088    2.6925    0.0000 H   0  0  0  0  0  0  0  0  0  0  0  0
   11.6138    4.0326    0.0000 H   0  0  0  0  0  0  0  0  0  0  0  0
   11.9303    1.0731    0.0000 C   0  0  0  0  0  0  0  0  0  0  0  0
   12.5441   -0.2955    0.0000 H   0  0  0  0  0  0  0  0  0  0  0  0
   13.3559    1.5399    0.0000 H   0  0  0  0  0  0  0  0  0  0  0  0
   10.6370    0.3210    0.0000 O   0  0  0  0  0  0  0  0  0  0  0  0
  1  2  1  0  0  0  0 
  1  3  1  0  0  0  0 
  1  4  1  0  0  0  0 
  1  5  1  0  0  0  0 
  5  6  1  0  0  0  0 
  6  7  2  0  0  0  0 
  7  8  1  0  0  0  0 
  7  9  1  0  0  0  0 
  9 10  2  0  0  0  0 
 10 11  1  0  0  0  0 
 11 12  2  0  0  0  0 
 12 13  1  0  0  0  0 
 13 14  2  0  0  0  0 
  9 14  1  0  0  0  0 
 14 15  1  0  0  0  0 
 15 16  1  0  0  0  0 
 15 17  2  0  0  0  0 
  6 17  1  0  0  0  0 
 17 18  1  0  0  0  0 
 18 19  1  0  0  0  0 
 19 20  1  0  0  0  0 
 19 21  1  0  0  0  0 
 19 22  1  0  0  0  0 
 22 23  1  0  0  0  0 
 13 24  1  0  0  0  0 
 24 25  1  0  0  0  0 
 24 26  1  0  0  0  0 
 11 27  1  0  0  0  0 
 27 28  1  0  0  0  0 
 28 29  1  0  0  0  0 
 28 30  1  0  0  0  0 
 28 31  1  0  0  0  0 
 31 32  1  0  0  0  0 
 31 33  1  0  0  0  0 
 31 34  1  0  0  0  0 
 34 35  1  0  0  0  0 
 35 36  1  0  0  0  0 
 35 37  1  0  0  0  0 
 35 38  1  0  0  0  0 
 27 38  1  0  0  0  0 
 38 39  1  0  0  0  0 
 38 40  1  0  0  0  0 
 34 41  1  0  0  0  0 
 41 42  2  0  0  0  0 
 41 43  1  0  0  0  0 
 43 44  1  0  0  0  0 
 43 45  1  0  0  0  0 
 45 46  1  0  0  0  0 
 45 47  1  0  0  0  0 
 45 48  1  0  0  0  0 
 48 49  1  0  0  0  0 
 48 50  1  0  0  0  0 
 48 51  1  0  0  0  0 
 51 52  1  0  0  0  0 
 51 53  1  0  0  0  0 
 51 54  1  0  0  0  0 
 43 54  1  0  0  0  0 
M  END
> <Rank>
5

> <Priority_score>
0.42

> <Reaction_type>
aliphatic hydroxylation

> <Parent_ID>
44

> <Parent_InChI>
InChI=1S/C19H25N5O4/c1-26-15-10-12-13(11-16(15)27-2)21-19(22-17(12)20)24-7-5-23(6-8-24)18(25)14-4-3-9-28-14/h10-11,14H,3-9H2,1-2H3,(H2,20,21,22)

> <Parent_SMILES>
COc1cc2nc(N3CCN(C(=O)C4CCCO4)CC3)nc(N)c2cc1OC

$$$$
Molecule 44_metabolite 7
  CDK     0516241031

 54 56  0  0  0  0  0  0  0  0999 V2000
   -5.1981   -0.7504    0.0000 C   0  0  0  0  0  0  0  0  0  0  0  0
   -6.4970   -1.5006    0.0000 H   0  0  0  0  0  0  0  0  0  0  0  0
   -4.2341    0.3988    0.0000 H   0  0  0  0  0  0  0  0  0  0  0  0
   -6.1624    0.3985    0.0000 H   0  0  0  0  0  0  0  0  0  0  0  0
   -3.8989   -1.5002    0.0000 O   0  0  0  0  0  0  0  0  0  0  0  0
   -2.6000   -0.7500    0.0000 C   0  0  0  0  0  0  0  0  0  0  0  0
   -1.3000   -1.5000    0.0000 C   0  0  0  0  0  0  0  0  0  0  0  0
   -1.3000   -3.0000    0.0000 H   0  0  0  0  0  0  0  0  0  0  0  0
    0.0000   -0.7500    0.0000 C   0  0  0  0  0  0  0  0  0  0  0  0
    1.3000   -1.5000    0.0000 C   0  0  0  0  0  0  0  0  0  0  0  0
    1.3000   -3.0000    0.0000 N   0  0  0  0  0  0  0  0  0  0  0  0
    2.5990   -3.7500    0.0000 H   0  0  0  0  0  0  0  0  0  0  0  0
    0.0010   -3.7500    0.0000 H   0  0  0  0  0  0  0  0  0  0  0  0
    2.6000   -0.7500    0.0000 N   0  0  0  0  0  0  0  0  0  0  0  0
    2.6000    0.7500    0.0000 C   0  0  0  0  0  0  0  0  0  0  0  0
    1.3000    1.5000    0.0000 N   0  0  0  0  0  0  0  0  0  0  0  0
    0.0000    0.7500    0.0000 C   0  0  0  0  0  0  0  0  0  0  0  0
   -1.3000    1.5000    0.0000 C   0  0  0  0  0  0  0  0  0  0  0  0
   -1.3000    3.0000    0.0000 H   0  0  0  0  0  0  0  0  0  0  0  0
   -2.6000    0.7500    0.0000 C   0  0  0  0  0  0  0  0  0  0  0  0
   -3.8989    1.5002    0.0000 O   0  0  0  0  0  0  0  0  0  0  0  0
   -3.8987    3.0002    0.0000 C   0  0  0  0  0  0  0  0  0  0  0  0
   -5.1976    3.7504    0.0000 H   0  0  0  0  0  0  0  0  0  0  0  0
   -2.4215    2.7395    0.0000 H   0  0  0  0  0  0  0  0  0  0  0  0
   -3.3854    4.4097    0.0000 H   0  0  0  0  0  0  0  0  0  0  0  0
    3.8989    1.5002    0.0000 N   0  0  0  0  0  0  0  0  0  0  0  0
    5.1989    0.7502    0.0000 C   0  0  0  0  0  0  0  0  0  0  0  0
    4.2349   -0.3990    0.0000 H   0  0  0  0  0  0  0  0  0  0  0  0
    6.1630   -0.3990    0.0000 H   0  0  0  0  0  0  0  0  0  0  0  0
    6.4989    1.5002    0.0000 C   0  0  0  0  0  0  0  0  0  0  0  0
    7.0116    0.0906    0.0000 H   0  0  0  0  0  0  0  0  0  0  0  0
    7.9762    1.7605    0.0000 H   0  0  0  0  0  0  0  0  0  0  0  0
    6.4989    3.0002    0.0000 N   0  0  0  0  0  0  0  0  0  0  0  0
    5.1989    3.7502    0.0000 C   0  0  0  0  0  0  0  0  0  0  0  0
    6.1630    4.8994    0.0000 H   0  0  0  0  0  0  0  0  0  0  0  0
    4.2349    4.8994    0.0000 H   0  0  0  0  0  0  0  0  0  0  0  0
    3.8989    3.0002    0.0000 C   0  0  0  0  0  0  0  0  0  0  0  0
    3.3862    4.4099    0.0000 H   0  0  0  0  0  0  0  0  0  0  0  0
    2.4217    2.7399    0.0000 H   0  0  0  0  0  0  0  0  0  0  0  0
    7.7978    3.7504    0.0000 C   0  0  0  0  0  0  0  0  0  0  0  0
    7.7976    5.2504    0.0000 O   0  0  0  0  0  0  0  0  0  0  0  0
    9.0970    3.0006    0.0000 C   0  0  0  0  0  0  0  0  0  0  0  0
    9.0972    1.5006    0.0000 O   0  0  0  0  0  0  0  0  0  0  0  0
   10.3959    3.7508    0.0000 C   0  0  0  0  0  0  0  0  0  0  0  0
   11.3599    4.9001    0.0000 H   0  0  0  0  0  0  0  0  0  0  0  0
    9.4315    4.8997    0.0000 H   0  0  0  0  0  0  0  0  0  0  0  0
   11.6951    3.0010    0.0000 C   0  0  0  0  0  0  0  0  0  0  0  0
   10.7311    1.8518    0.0000 H   0  0  0  0  0  0  0  0  0  0  0  0
   12.6594    1.8521    0.0000 H   0  0  0  0  0  0  0  0  0  0  0  0
   12.9940    3.7512    0.0000 C   0  0  0  0  0  0  0  0  0  0  0  0
   14.4712    4.0120    0.0000 H   0  0  0  0  0  0  0  0  0  0  0  0
   13.5072    2.3418    0.0000 H   0  0  0  0  0  0  0  0  0  0  0  0
   12.9937    5.2512    0.0000 O   0  0  0  0  0  0  0  0  0  0  0  0
   14.2927    6.0015    0.0000 H   0  0  0  0  0  0  0  0  0  0  0  0
  1  2  1  0  0  0  0 
  1  3  1  0  0  0  0 
  1  4  1  0  0  0  0 
  1  5  1  0  0  0  0 
  5  6  1  0  0  0  0 
  6  7  2  0  0  0  0 
  7  8  1  0  0  0  0 
  7  9  1  0  0  0  0 
  9 10  2  0  0  0  0 
 10 11  1  0  0  0  0 
 11 12  1  0  0  0  0 
 11 13  1  0  0  0  0 
 10 14  1  0  0  0  0 
 14 15  2  0  0  0  0 
 15 16  1  0  0  0  0 
 16 17  2  0  0  0  0 
  9 17  1  0  0  0  0 
 17 18  1  0  0  0  0 
 18 19  1  0  0  0  0 
 18 20  2  0  0  0  0 
  6 20  1  0  0  0  0 
 20 21  1  0  0  0  0 
 21 22  1  0  0  0  0 
 22 23  1  0  0  0  0 
 22 24  1  0  0  0  0 
 22 25  1  0  0  0  0 
 15 26  1  0  0  0  0 
 26 27  1  0  0  0  0 
 27 28  1  0  0  0  0 
 27 29  1  0  0  0  0 
 27 30  1  0  0  0  0 
 30 31  1  0  0  0  0 
 30 32  1  0  0  0  0 
 30 33  1  0  0  0  0 
 33 34  1  0  0  0  0 
 34 35  1  0  0  0  0 
 34 36  1  0  0  0  0 
 34 37  1  0  0  0  0 
 26 37  1  0  0  0  0 
 37 38  1  0  0  0  0 
 37 39  1  0  0  0  0 
 33 40  1  0  0  0  0 
 40 41  2  0  0  0  0 
 40 42  1  0  0  0  0 
 42 43  2  0  0  0  0 
 42 44  1  0  0  0  0 
 44 45  1  0  0  0  0 
 44 46  1  0  0  0  0 
 44 47  1  0  0  0  0 
 47 48  1  0  0  0  0 
 47 49  1  0  0  0  0 
 47 50  1  0  0  0  0 
 50 51  1  0  0  0  0 
 50 52  1  0  0  0  0 
 50 53  1  0  0  0  0 
 53 54  1  0  0  0  0 
M  END
> <Rank>
7

> <Priority_score>
0.3438794066039241

> <Reaction_type>
oxidative ether cleavage to one alcohol and one aldehyde/ketone

> <Parent_ID>
44

> <Parent_InChI>
InChI=1S/C19H25N5O4/c1-26-15-10-12-13(11-16(15)27-2)21-19(22-17(12)20)24-7-5-23(6-8-24)18(25)14-4-3-9-28-14/h10-11,14H,3-9H2,1-2H3,(H2,20,21,22)

> <Parent_SMILES>
COc1cc2nc(N3CCN(C(=O)C4CCCO4)CC3)nc(N)c2cc1OC

$$$$
Molecule 44_metabolite 8
  CDK     0516241031

 54 57  0  0  0  0  0  0  0  0999 V2000
   -5.6135   -2.4305    0.0000 C   0  0  0  0  0  0  0  0  0  0  0  0
   -6.9124   -3.1807    0.0000 H   0  0  0  0  0  0  0  0  0  0  0  0
   -4.6495   -1.2813    0.0000 H   0  0  0  0  0  0  0  0  0  0  0  0
   -6.5779   -1.2816    0.0000 H   0  0  0  0  0  0  0  0  0  0  0  0
   -4.3143   -3.1803    0.0000 O   0  0  0  0  0  0  0  0  0  0  0  0
   -3.0154   -2.4301    0.0000 C   0  0  0  0  0  0  0  0  0  0  0  0
   -1.7154   -3.1801    0.0000 C   0  0  0  0  0  0  0  0  0  0  0  0
   -1.7154   -4.6801    0.0000 H   0  0  0  0  0  0  0  0  0  0  0  0
   -0.4154   -2.4301    0.0000 C   0  0  0  0  0  0  0  0  0  0  0  0
    0.8846   -3.1801    0.0000 C   0  0  0  0  0  0  0  0  0  0  0  0
    0.8846   -4.6801    0.0000 N   0  0  0  0  0  0  0  0  0  0  0  0
    2.1836   -5.4301    0.0000 H   0  0  0  0  0  0  0  0  0  0  0  0
   -0.4145   -5.4301    0.0000 H   0  0  0  0  0  0  0  0  0  0  0  0
    2.1846   -2.4301    0.0000 N   0  0  0  0  0  0  0  0  0  0  0  0
    2.1846   -0.9301    0.0000 C   0  0  0  0  0  0  0  0  0  0  0  0
    0.8846   -0.1801    0.0000 N   0  0  0  0  0  0  0  0  0  0  0  0
   -0.4154   -0.9301    0.0000 C   0  0  0  0  0  0  0  0  0  0  0  0
   -1.7154   -0.1801    0.0000 C   0  0  0  0  0  0  0  0  0  0  0  0
   -1.7154    1.3199    0.0000 H   0  0  0  0  0  0  0  0  0  0  0  0
   -3.0154   -0.9301    0.0000 C   0  0  0  0  0  0  0  0  0  0  0  0
   -4.3143   -0.1799    0.0000 O   0  0  0  0  0  0  0  0  0  0  0  0
   -4.3141    1.3201    0.0000 C   0  0  0  0  0  0  0  0  0  0  0  0
   -5.6130    2.0703    0.0000 H   0  0  0  0  0  0  0  0  0  0  0  0
   -2.8369    1.0594    0.0000 H   0  0  0  0  0  0  0  0  0  0  0  0
   -3.8008    2.7296    0.0000 H   0  0  0  0  0  0  0  0  0  0  0  0
    3.4835   -0.1799    0.0000 N   0  0  0  0  0  0  0  0  0  0  0  0
    4.7835   -0.9299    0.0000 C   0  0  0  0  0  0  0  0  0  0  0  0
    3.8194   -2.0790    0.0000 H   0  0  0  0  0  0  0  0  0  0  0  0
    5.7476   -2.0790    0.0000 H   0  0  0  0  0  0  0  0  0  0  0  0
    6.0835   -0.1799    0.0000 C   0  0  0  0  0  0  0  0  0  0  0  0
    6.5962   -1.5895    0.0000 H   0  0  0  0  0  0  0  0  0  0  0  0
    7.5607    0.0805    0.0000 H   0  0  0  0  0  0  0  0  0  0  0  0
    6.0835    1.3201    0.0000 N   0  0  0  0  0  0  0  0  0  0  0  0
    4.7835    2.0701    0.0000 C   0  0  0  0  0  0  0  0  0  0  0  0
    5.7476    3.2193    0.0000 H   0  0  0  0  0  0  0  0  0  0  0  0
    3.8194    3.2193    0.0000 H   0  0  0  0  0  0  0  0  0  0  0  0
    3.4835    1.3201    0.0000 C   0  0  0  0  0  0  0  0  0  0  0  0
    2.9708    2.7298    0.0000 H   0  0  0  0  0  0  0  0  0  0  0  0
    2.0063    1.0598    0.0000 H   0  0  0  0  0  0  0  0  0  0  0  0
    7.7981    2.3104    0.0000 C   0  0  0  0  0  0  0  0  0  0  0  0
    7.7976    5.2504    0.0000 O   0  0  0  0  0  0  0  0  0  0  0  0
    9.5130    1.3207    0.0000 C   0  0  0  0  0  0  0  0  0  0  0  0
    8.6293    0.1086    0.0000 H   0  0  0  0  0  0  0  0  0  0  0  0
   10.1186    2.6883    0.0000 C   0  0  0  0  0  0  0  0  0  0  0  0
   10.4310    4.1554    0.0000 H   0  0  0  0  0  0  0  0  0  0  0  0
    8.6917    3.1507    0.0000 H   0  0  0  0  0  0  0  0  0  0  0  0
   11.6202    2.5282    0.0000 C   0  0  0  0  0  0  0  0  0  0  0  0
   13.1130    2.6749    0.0000 H   0  0  0  0  0  0  0  0  0  0  0  0
   11.6265    4.0281    0.0000 H   0  0  0  0  0  0  0  0  0  0  0  0
   11.9188    1.0561    0.0000 C   0  0  0  0  0  0  0  0  0  0  0  0
   12.5222   -0.3172    0.0000 H   0  0  0  0  0  0  0  0  0  0  0  0
   13.3486    1.5094    0.0000 O   0  0  0  0  0  0  0  0  0  0  0  0
   14.4562    0.4978    0.0000 H   0  0  0  0  0  0  0  0  0  0  0  0
   10.6242    0.3131    0.0000 O   0  0  0  0  0  0  0  0  0  0  0  0
  1  2  1  0  0  0  0 
  1  3  1  0  0  0  0 
  1  4  1  0  0  0  0 
  1  5  1  0  0  0  0 
  5  6  1  0  0  0  0 
  6  7  2  0  0  0  0 
  7  8  1  0  0  0  0 
  7  9  1  0  0  0  0 
  9 10  2  0  0  0  0 
 10 11  1  0  0  0  0 
 11 12  1  0  0  0  0 
 11 13  1  0  0  0  0 
 10 14  1  0  0  0  0 
 14 15  2  0  0  0  0 
 15 16  1  0  0  0  0 
 16 17  2  0  0  0  0 
  9 17  1  0  0  0  0 
 17 18  1  0  0  0  0 
 18 19  1  0  0  0  0 
 18 20  2  0  0  0  0 
  6 20  1  0  0  0  0 
 20 21  1  0  0  0  0 
 21 22  1  0  0  0  0 
 22 23  1  0  0  0  0 
 22 24  1  0  0  0  0 
 22 25  1  0  0  0  0 
 15 26  1  0  0  0  0 
 26 27  1  0  0  0  0 
 27 28  1  0  0  0  0 
 27 29  1  0  0  0  0 
 27 30  1  0  0  0  0 
 30 31  1  0  0  0  0 
 30 32  1  0  0  0  0 
 30 33  1  0  0  0  0 
 33 34  1  0  0  0  0 
 34 35  1  0  0  0  0 
 34 36  1  0  0  0  0 
 34 37  1  0  0  0  0 
 26 37  1  0  0  0  0 
 37 38  1  0  0  0  0 
 37 39  1  0  0  0  0 
 33 40  1  0  0  0  0 
 40 41  2  0  0  0  0 
 40 42  1  0  0  0  0 
 42 43  1  0  0  0  0 
 42 44  1  0  0  0  0 
 44 45  1  0  0  0  0 
 44 46  1  0  0  0  0 
 44 47  1  0  0  0  0 
 47 48  1  0  0  0  0 
 47 49  1  0  0  0  0 
 47 50  1  0  0  0  0 
 50 51  1  0  0  0  0 
 50 52  1  0  0  0  0 
 52 53  1  0  0  0  0 
 50 54  1  0  0  0  0 
 42 54  1  0  0  0  0 
M  END
> <Rank>
7

> <Priority_score>
0.3438794066039241

> <Reaction_type>
aliphatic hydroxylation

> <Parent_ID>
44

> <Parent_InChI>
InChI=1S/C19H25N5O4/c1-26-15-10-12-13(11-16(15)27-2)21-19(22-17(12)20)24-7-5-23(6-8-24)18(25)14-4-3-9-28-14/h10-11,14H,3-9H2,1-2H3,(H2,20,21,22)

> <Parent_SMILES>
COc1cc2nc(N3CCN(C(=O)C4CCCO4)CC3)nc(N)c2cc1OC

$$$$
Molecule 44_metabolite 9
  CDK     0516241031

 54 56  0  0  0  0  0  0  0  0999 V2000
    4.3620   17.2547    0.0000 C   0  0  0  0  0  0  0  0  0  0  0  0
    4.3618   18.7547    0.0000 H   0  0  0  0  0  0  0  0  0  0  0  0
    3.8492   15.8450    0.0000 H   0  0  0  0  0  0  0  0  0  0  0  0
    2.8847   17.5149    0.0000 H   0  0  0  0  0  0  0  0  0  0  0  0
    5.6612   16.5049    0.0000 O   0  0  0  0  0  0  0  0  0  0  0  0
    5.6614   15.0049    0.0000 C   0  0  0  0  0  0  0  0  0  0  0  0
    6.9612   14.2544    0.0000 C   0  0  0  0  0  0  0  0  0  0  0  0
    8.2600   15.0049    0.0000 H   0  0  0  0  0  0  0  0  0  0  0  0
    6.9621   12.7536    0.0000 C   0  0  0  0  0  0  0  0  0  0  0  0
    8.2619   12.0032    0.0000 C   0  0  0  0  0  0  0  0  0  0  0  0
    9.5607   12.7536    0.0000 N   0  0  0  0  0  0  0  0  0  0  0  0
   10.8600   12.0040    0.0000 H   0  0  0  0  0  0  0  0  0  0  0  0
    9.5602   14.2536    0.0000 H   0  0  0  0  0  0  0  0  0  0  0  0
    8.2628   10.5024    0.0000 N   0  0  0  0  0  0  0  0  0  0  0  0
    6.9640    9.7519    0.0000 C   0  0  0  0  0  0  0  0  0  0  0  0
    5.6643   10.5024    0.0000 N   0  0  0  0  0  0  0  0  0  0  0  0
    5.6633   12.0032    0.0000 C   0  0  0  0  0  0  0  0  0  0  0  0
    4.3636   12.7536    0.0000 C   0  0  0  0  0  0  0  0  0  0  0  0
    3.0648   12.0032    0.0000 H   0  0  0  0  0  0  0  0  0  0  0  0
    4.3626   14.2544    0.0000 C   0  0  0  0  0  0  0  0  0  0  0  0
    3.0632   15.0038    0.0000 O   0  0  0  0  0  0  0  0  0  0  0  0
    1.7645   14.2532    0.0000 C   0  0  0  0  0  0  0  0  0  0  0  0
    0.4651   15.0026    0.0000 H   0  0  0  0  0  0  0  0  0  0  0  0
    2.7293   13.1046    0.0000 H   0  0  0  0  0  0  0  0  0  0  0  0
    0.8009   13.1037    0.0000 H   0  0  0  0  0  0  0  0  0  0  0  0
    6.9643    8.2519    0.0000 N   0  0  0  0  0  0  0  0  0  0  0  0
    8.2640    7.5015    0.0000 C   0  0  0  0  0  0  0  0  0  0  0  0
    8.7768    8.9112    0.0000 H   0  0  0  0  0  0  0  0  0  0  0  0
    9.7414    7.2417    0.0000 H   0  0  0  0  0  0  0  0  0  0  0  0
    8.2650    6.0007    0.0000 C   0  0  0  0  0  0  0  0  0  0  0  0
    9.7421    6.2620    0.0000 H   0  0  0  0  0  0  0  0  0  0  0  0
    8.7786    4.5914    0.0000 H   0  0  0  0  0  0  0  0  0  0  0  0
    6.9662    5.2503    0.0000 N   0  0  0  0  0  0  0  0  0  0  0  0
    5.6665    6.0007    0.0000 C   0  0  0  0  0  0  0  0  0  0  0  0
    5.1537    4.5911    0.0000 H   0  0  0  0  0  0  0  0  0  0  0  0
    4.1891    6.2605    0.0000 H   0  0  0  0  0  0  0  0  0  0  0  0
    5.6655    7.5015    0.0000 C   0  0  0  0  0  0  0  0  0  0  0  0
    4.1884    7.2403    0.0000 H   0  0  0  0  0  0  0  0  0  0  0  0
    5.1519    8.9109    0.0000 H   0  0  0  0  0  0  0  0  0  0  0  0
    6.9665    3.7503    0.0000 C   0  0  0  0  0  0  0  0  0  0  0  0
    5.6675    3.0001    0.0000 O   0  0  0  0  0  0  0  0  0  0  0  0
    8.2656    3.0005    0.0000 C   0  0  0  0  0  0  0  0  0  0  0  0
    7.3016    1.8513    0.0000 H   0  0  0  0  0  0  0  0  0  0  0  0
    9.9802    3.9908    0.0000 C   0  0  0  0  0  0  0  0  0  0  0  0
   10.9442    5.1400    0.0000 H   0  0  0  0  0  0  0  0  0  0  0  0
    9.4669    5.4002    0.0000 H   0  0  0  0  0  0  0  0  0  0  0  0
   11.6951    3.0010    0.0000 C   0  0  0  0  0  0  0  0  0  0  0  0
   10.7311    1.8518    0.0000 H   0  0  0  0  0  0  0  0  0  0  0  0
   12.6594    1.8521    0.0000 H   0  0  0  0  0  0  0  0  0  0  0  0
   12.9940    3.7512    0.0000 C   0  0  0  0  0  0  0  0  0  0  0  0
   14.2931    3.0015    0.0000 H   0  0  0  0  0  0  0  0  0  0  0  0
   12.9937    5.2512    0.0000 O   0  0  0  0  0  0  0  0  0  0  0  0
    9.2300    1.8516    0.0000 O   0  0  0  0  0  0  0  0  0  0  0  0
    8.7172    0.4420    0.0000 H   0  0  0  0  0  0  0  0  0  0  0  0
  1  2  1  0  0  0  0 
  1  3  1  0  0  0  0 
  1  4  1  0  0  0  0 
  1  5  1  0  0  0  0 
  5  6  1  0  0  0  0 
  6  7  2  0  0  0  0 
  7  8  1  0  0  0  0 
  7  9  1  0  0  0  0 
  9 10  2  0  0  0  0 
 10 11  1  0  0  0  0 
 11 12  1  0  0  0  0 
 11 13  1  0  0  0  0 
 10 14  1  0  0  0  0 
 14 15  2  0  0  0  0 
 15 16  1  0  0  0  0 
 16 17  2  0  0  0  0 
  9 17  1  0  0  0  0 
 17 18  1  0  0  0  0 
 18 19  1  0  0  0  0 
 18 20  2  0  0  0  0 
  6 20  1  0  0  0  0 
 20 21  1  0  0  0  0 
 21 22  1  0  0  0  0 
 22 23  1  0  0  0  0 
 22 24  1  0  0  0  0 
 22 25  1  0  0  0  0 
 15 26  1  0  0  0  0 
 26 27  1  0  0  0  0 
 27 28  1  0  0  0  0 
 27 29  1  0  0  0  0 
 27 30  1  0  0  0  0 
 30 31  1  0  0  0  0 
 30 32  1  0  0  0  0 
 30 33  1  0  0  0  0 
 33 34  1  0  0  0  0 
 34 35  1  0  0  0  0 
 34 36  1  0  0  0  0 
 34 37  1  0  0  0  0 
 26 37  1  0  0  0  0 
 37 38  1  0  0  0  0 
 37 39  1  0  0  0  0 
 33 40  1  0  0  0  0 
 40 41  2  0  0  0  0 
 40 42  1  0  0  0  0 
 42 43  1  0  0  0  0 
 42 44  1  0  0  0  0 
 44 45  1  0  0  0  0 
 44 46  1  0  0  0  0 
 44 47  1  0  0  0  0 
 47 48  1  0  0  0  0 
 47 49  1  0  0  0  0 
 47 50  1  0  0  0  0 
 50 51  1  0  0  0  0 
 50 52  2  0  0  0  0 
 42 53  1  0  0  0  0 
 53 54  1  0  0  0  0 
M  END
> <Rank>
7

> <Priority_score>
0.3438794066039241

> <Reaction_type>
oxidative ether cleavage to one alcohol and one aldehyde/ketone

> <Parent_ID>
44

> <Parent_InChI>
InChI=1S/C19H25N5O4/c1-26-15-10-12-13(11-16(15)27-2)21-19(22-17(12)20)24-7-5-23(6-8-24)18(25)14-4-3-9-28-14/h10-11,14H,3-9H2,1-2H3,(H2,20,21,22)

> <Parent_SMILES>
COc1cc2nc(N3CCN(C(=O)C4CCCO4)CC3)nc(N)c2cc1OC

$$$$
Molecule 44_metabolite 10
  CDK     0516241031

 56 58  0  0  0  0  0  0  0  0999 V2000
   -2.1270   -7.9872    0.0000 C   0  0  0  0  0  0  0  0  0  0  0  0
   -3.4259   -8.7374    0.0000 H   0  0  0  0  0  0  0  0  0  0  0  0
   -0.6498   -7.7265    0.0000 H   0  0  0  0  0  0  0  0  0  0  0  0
   -1.6137   -9.3967    0.0000 H   0  0  0  0  0  0  0  0  0  0  0  0
   -2.1272   -6.4872    0.0000 O   0  0  0  0  0  0  0  0  0  0  0  0
   -0.8283   -5.7370    0.0000 C   0  0  0  0  0  0  0  0  0  0  0  0
   -0.8283   -4.2362    0.0000 C   0  0  0  0  0  0  0  0  0  0  0  0
   -2.1276   -3.4866    0.0000 H   0  0  0  0  0  0  0  0  0  0  0  0
    0.4710   -3.4849    0.0000 C   0  0  0  0  0  0  0  0  0  0  0  0
    0.4710   -1.9841    0.0000 C   0  0  0  0  0  0  0  0  0  0  0  0
   -0.8283   -1.2345    0.0000 N   0  0  0  0  0  0  0  0  0  0  0  0
   -0.8288    0.2655    0.0000 H   0  0  0  0  0  0  0  0  0  0  0  0
   -2.1271   -1.9849    0.0000 H   0  0  0  0  0  0  0  0  0  0  0  0
    1.7703   -1.2328    0.0000 N   0  0  0  0  0  0  0  0  0  0  0  0
    3.0695   -1.9824    0.0000 C   0  0  0  0  0  0  0  0  0  0  0  0
    3.0695   -3.4833    0.0000 N   0  0  0  0  0  0  0  0  0  0  0  0
    1.7703   -4.2345    0.0000 C   0  0  0  0  0  0  0  0  0  0  0  0
    1.7703   -5.7353    0.0000 C   0  0  0  0  0  0  0  0  0  0  0  0
    3.0695   -6.4849    0.0000 H   0  0  0  0  0  0  0  0  0  0  0  0
    0.4710   -6.4866    0.0000 C   0  0  0  0  0  0  0  0  0  0  0  0
    0.4717   -7.9866    0.0000 O   0  0  0  0  0  0  0  0  0  0  0  0
    1.7711   -8.7360    0.0000 C   0  0  0  0  0  0  0  0  0  0  0  0
    1.7718  -10.2360    0.0000 H   0  0  0  0  0  0  0  0  0  0  0  0
    2.2834   -7.3262    0.0000 H   0  0  0  0  0  0  0  0  0  0  0  0
    3.2484   -8.9957    0.0000 H   0  0  0  0  0  0  0  0  0  0  0  0
    4.3685   -1.2322    0.0000 N   0  0  0  0  0  0  0  0  0  0  0  0
    4.3685    0.2686    0.0000 C   0  0  0  0  0  0  0  0  0  0  0  0
    2.8913    0.0078    0.0000 H   0  0  0  0  0  0  0  0  0  0  0  0
    3.8548    1.6779    0.0000 H   0  0  0  0  0  0  0  0  0  0  0  0
    5.6677    1.0199    0.0000 C   0  0  0  0  0  0  0  0  0  0  0  0
    4.7029    2.1684    0.0000 H   0  0  0  0  0  0  0  0  0  0  0  0
    6.6314    2.1693    0.0000 H   0  0  0  0  0  0  0  0  0  0  0  0
    6.9670    0.2703    0.0000 N   0  0  0  0  0  0  0  0  0  0  0  0
    6.9670   -1.2306    0.0000 C   0  0  0  0  0  0  0  0  0  0  0  0
    8.4442   -0.9698    0.0000 H   0  0  0  0  0  0  0  0  0  0  0  0
    7.4806   -2.6399    0.0000 H   0  0  0  0  0  0  0  0  0  0  0  0
    5.6677   -1.9818    0.0000 C   0  0  0  0  0  0  0  0  0  0  0  0
    6.6325   -3.1304    0.0000 H   0  0  0  0  0  0  0  0  0  0  0  0
    4.7040   -3.1313    0.0000 H   0  0  0  0  0  0  0  0  0  0  0  0
    9.0972    1.5006    0.0000 C   0  0  0  0  0  0  0  0  0  0  0  0
   10.3964    0.7508    0.0000 O   0  0  0  0  0  0  0  0  0  0  0  0
    9.0970    3.0006    0.0000 C   0  0  0  0  0  0  0  0  0  0  0  0
    7.6198    2.7399    0.0000 H   0  0  0  0  0  0  0  0  0  0  0  0
   10.3959    3.7508    0.0000 C   0  0  0  0  0  0  0  0  0  0  0  0
   11.3599    4.9001    0.0000 H   0  0  0  0  0  0  0  0  0  0  0  0
    9.4315    4.8997    0.0000 H   0  0  0  0  0  0  0  0  0  0  0  0
   11.6951    3.0010    0.0000 C   0  0  0  0  0  0  0  0  0  0  0  0
   10.7311    1.8518    0.0000 H   0  0  0  0  0  0  0  0  0  0  0  0
   12.6594    1.8521    0.0000 H   0  0  0  0  0  0  0  0  0  0  0  0
   12.9940    3.7512    0.0000 C   0  0  0  0  0  0  0  0  0  0  0  0
   14.4712    4.0120    0.0000 H   0  0  0  0  0  0  0  0  0  0  0  0
   13.5072    2.3418    0.0000 H   0  0  0  0  0  0  0  0  0  0  0  0
   12.9937    5.2512    0.0000 O   0  0  0  0  0  0  0  0  0  0  0  0
   14.2927    6.0015    0.0000 H   0  0  0  0  0  0  0  0  0  0  0  0
    8.5837    4.4101    0.0000 O   0  0  0  0  0  0  0  0  0  0  0  0
    7.1065    4.6703    0.0000 H   0  0  0  0  0  0  0  0  0  0  0  0
  1  2  1  0  0  0  0 
  1  3  1  0  0  0  0 
  1  4  1  0  0  0  0 
  1  5  1  0  0  0  0 
  5  6  1  0  0  0  0 
  6  7  2  0  0  0  0 
  7  8  1  0  0  0  0 
  7  9  1  0  0  0  0 
  9 10  2  0  0  0  0 
 10 11  1  0  0  0  0 
 11 12  1  0  0  0  0 
 11 13  1  0  0  0  0 
 10 14  1  0  0  0  0 
 14 15  2  0  0  0  0 
 15 16  1  0  0  0  0 
 16 17  2  0  0  0  0 
  9 17  1  0  0  0  0 
 17 18  1  0  0  0  0 
 18 19  1  0  0  0  0 
 18 20  2  0  0  0  0 
  6 20  1  0  0  0  0 
 20 21  1  0  0  0  0 
 21 22  1  0  0  0  0 
 22 23  1  0  0  0  0 
 22 24  1  0  0  0  0 
 22 25  1  0  0  0  0 
 15 26  1  0  0  0  0 
 26 27  1  0  0  0  0 
 27 28  1  0  0  0  0 
 27 29  1  0  0  0  0 
 27 30  1  0  0  0  0 
 30 31  1  0  0  0  0 
 30 32  1  0  0  0  0 
 30 33  1  0  0  0  0 
 33 34  1  0  0  0  0 
 34 35  1  0  0  0  0 
 34 36  1  0  0  0  0 
 34 37  1  0  0  0  0 
 26 37  1  0  0  0  0 
 37 38  1  0  0  0  0 
 37 39  1  0  0  0  0 
 33 40  1  0  0  0  0 
 40 41  2  0  0  0  0 
 40 42  1  0  0  0  0 
 42 43  1  0  0  0  0 
 42 44  1  0  0  0  0 
 44 45  1  0  0  0  0 
 44 46  1  0  0  0  0 
 44 47  1  0  0  0  0 
 47 48  1  0  0  0  0 
 47 49  1  0  0  0  0 
 47 50  1  0  0  0  0 
 50 51  1  0  0  0  0 
 50 52  1  0  0  0  0 
 50 53  1  0  0  0  0 
 53 54  1  0  0  0  0 
 42 55  1  0  0  0  0 
 55 56  1  0  0  0  0 
M  END
> <Rank>
7

> <Priority_score>
0.3438794066039241

> <Reaction_type>
O-dealkylation_(aliphatic)

> <Parent_ID>
44

> <Parent_InChI>
InChI=1S/C19H25N5O4/c1-26-15-10-12-13(11-16(15)27-2)21-19(22-17(12)20)24-7-5-23(6-8-24)18(25)14-4-3-9-28-14/h10-11,14H,3-9H2,1-2H3,(H2,20,21,22)

> <Parent_SMILES>
COc1cc2nc(N3CCN(C(=O)C4CCCO4)CC3)nc(N)c2cc1OC

$$$$
Molecule 44_metabolite 11
  CDK     0516241031

 54 57  0  0  0  0  0  0  0  0999 V2000
   -6.0294   -1.2305    0.0000 C   0  0  0  0  0  0  0  0  0  0  0  0
   -7.3283   -1.9808    0.0000 H   0  0  0  0  0  0  0  0  0  0  0  0
   -5.0654   -0.0813    0.0000 H   0  0  0  0  0  0  0  0  0  0  0  0
   -6.9937   -0.0816    0.0000 H   0  0  0  0  0  0  0  0  0  0  0  0
   -4.7302   -1.9803    0.0000 O   0  0  0  0  0  0  0  0  0  0  0  0
   -3.4313   -1.2301    0.0000 C   0  0  0  0  0  0  0  0  0  0  0  0
   -2.1313   -1.9801    0.0000 C   0  0  0  0  0  0  0  0  0  0  0  0
   -2.1313   -3.4801    0.0000 H   0  0  0  0  0  0  0  0  0  0  0  0
   -0.8313   -1.2301    0.0000 C   0  0  0  0  0  0  0  0  0  0  0  0
    0.4687   -1.9801    0.0000 C   0  0  0  0  0  0  0  0  0  0  0  0
    0.4687   -3.4801    0.0000 N   0  0  0  0  0  0  0  0  0  0  0  0
    1.7677   -4.2301    0.0000 H   0  0  0  0  0  0  0  0  0  0  0  0
   -0.8303   -4.2301    0.0000 H   0  0  0  0  0  0  0  0  0  0  0  0
    1.7687   -1.2301    0.0000 N   0  0  0  0  0  0  0  0  0  0  0  0
    1.7687    0.2699    0.0000 C   0  0  0  0  0  0  0  0  0  0  0  0
    0.4687    1.0199    0.0000 N   0  0  0  0  0  0  0  0  0  0  0  0
   -0.8313    0.2699    0.0000 C   0  0  0  0  0  0  0  0  0  0  0  0
   -2.1313    1.0199    0.0000 C   0  0  0  0  0  0  0  0  0  0  0  0
   -2.1313    2.5199    0.0000 H   0  0  0  0  0  0  0  0  0  0  0  0
   -3.4313    0.2699    0.0000 C   0  0  0  0  0  0  0  0  0  0  0  0
   -4.7302    1.0201    0.0000 O   0  0  0  0  0  0  0  0  0  0  0  0
   -4.7300    2.5201    0.0000 C   0  0  0  0  0  0  0  0  0  0  0  0
   -6.0289    3.2703    0.0000 H   0  0  0  0  0  0  0  0  0  0  0  0
   -3.2528    2.2594    0.0000 H   0  0  0  0  0  0  0  0  0  0  0  0
   -4.2167    3.9295    0.0000 H   0  0  0  0  0  0  0  0  0  0  0  0
    3.0676    1.0201    0.0000 N   0  0  0  0  0  0  0  0  0  0  0  0
    4.3676    0.2701    0.0000 C   0  0  0  0  0  0  0  0  0  0  0  0
    3.4036   -0.8791    0.0000 H   0  0  0  0  0  0  0  0  0  0  0  0
    5.3317   -0.8791    0.0000 H   0  0  0  0  0  0  0  0  0  0  0  0
    5.6676    1.0201    0.0000 C   0  0  0  0  0  0  0  0  0  0  0  0
    6.1803   -0.3896    0.0000 H   0  0  0  0  0  0  0  0  0  0  0  0
    7.1448    1.2804    0.0000 H   0  0  0  0  0  0  0  0  0  0  0  0
    5.6676    2.5201    0.0000 N   0  0  0  0  0  0  0  0  0  0  0  0
    4.3676    3.2701    0.0000 C   0  0  0  0  0  0  0  0  0  0  0  0
    5.3317    4.4192    0.0000 H   0  0  0  0  0  0  0  0  0  0  0  0
    3.4036    4.4192    0.0000 H   0  0  0  0  0  0  0  0  0  0  0  0
    3.0676    2.5201    0.0000 C   0  0  0  0  0  0  0  0  0  0  0  0
    2.5549    3.9297    0.0000 H   0  0  0  0  0  0  0  0  0  0  0  0
    1.5904    2.2598    0.0000 H   0  0  0  0  0  0  0  0  0  0  0  0
    7.7978    3.7504    0.0000 C   0  0  0  0  0  0  0  0  0  0  0  0
    7.7976    5.2504    0.0000 O   0  0  0  0  0  0  0  0  0  0  0  0
    9.0970    3.0006    0.0000 C   0  0  0  0  0  0  0  0  0  0  0  0
    8.2128    1.7889    0.0000 H   0  0  0  0  0  0  0  0  0  0  0  0
   10.2019    1.9970    0.0000 C   0  0  0  0  0  0  0  0  0  0  0  0
    9.0831    0.9979    0.0000 H   0  0  0  0  0  0  0  0  0  0  0  0
   11.0790    0.7802    0.0000 H   0  0  0  0  0  0  0  0  0  0  0  0
   11.5035    2.7426    0.0000 C   0  0  0  0  0  0  0  0  0  0  0  0
   12.1093    1.3703    0.0000 H   0  0  0  0  0  0  0  0  0  0  0  0
   11.1969    4.2034    0.0000 C   0  0  0  0  0  0  0  0  0  0  0  0
   12.6895    4.3530    0.0000 H   0  0  0  0  0  0  0  0  0  0  0  0
   11.2075    5.7033    0.0000 H   0  0  0  0  0  0  0  0  0  0  0  0
    9.7046    4.3743    0.0000 O   0  0  0  0  0  0  0  0  0  0  0  0
   12.9314    3.2020    0.0000 O   0  0  0  0  0  0  0  0  0  0  0  0
   14.0433    2.1951    0.0000 H   0  0  0  0  0  0  0  0  0  0  0  0
  1  2  1  0  0  0  0 
  1  3  1  0  0  0  0 
  1  4  1  0  0  0  0 
  1  5  1  0  0  0  0 
  5  6  1  0  0  0  0 
  6  7  2  0  0  0  0 
  7  8  1  0  0  0  0 
  7  9  1  0  0  0  0 
  9 10  2  0  0  0  0 
 10 11  1  0  0  0  0 
 11 12  1  0  0  0  0 
 11 13  1  0  0  0  0 
 10 14  1  0  0  0  0 
 14 15  2  0  0  0  0 
 15 16  1  0  0  0  0 
 16 17  2  0  0  0  0 
  9 17  1  0  0  0  0 
 17 18  1  0  0  0  0 
 18 19  1  0  0  0  0 
 18 20  2  0  0  0  0 
  6 20  1  0  0  0  0 
 20 21  1  0  0  0  0 
 21 22  1  0  0  0  0 
 22 23  1  0  0  0  0 
 22 24  1  0  0  0  0 
 22 25  1  0  0  0  0 
 15 26  1  0  0  0  0 
 26 27  1  0  0  0  0 
 27 28  1  0  0  0  0 
 27 29  1  0  0  0  0 
 27 30  1  0  0  0  0 
 30 31  1  0  0  0  0 
 30 32  1  0  0  0  0 
 30 33  1  0  0  0  0 
 33 34  1  0  0  0  0 
 34 35  1  0  0  0  0 
 34 36  1  0  0  0  0 
 34 37  1  0  0  0  0 
 26 37  1  0  0  0  0 
 37 38  1  0  0  0  0 
 37 39  1  0  0  0  0 
 33 40  1  0  0  0  0 
 40 41  2  0  0  0  0 
 40 42  1  0  0  0  0 
 42 43  1  0  0  0  0 
 42 44  1  0  0  0  0 
 44 45  1  0  0  0  0 
 44 46  1  0  0  0  0 
 44 47  1  0  0  0  0 
 47 48  1  0  0  0  0 
 47 49  1  0  0  0  0 
 49 50  1  0  0  0  0 
 49 51  1  0  0  0  0 
 49 52  1  0  0  0  0 
 42 52  1  0  0  0  0 
 47 53  1  0  0  0  0 
 53 54  1  0  0  0  0 
M  END
> <Rank>
7

> <Priority_score>
0.3438794066039241

> <Reaction_type>
aliphatic_hydroxylation_(sec_carbon_in_a_ringA)

> <Parent_ID>
44

> <Parent_InChI>
InChI=1S/C19H25N5O4/c1-26-15-10-12-13(11-16(15)27-2)21-19(22-17(12)20)24-7-5-23(6-8-24)18(25)14-4-3-9-28-14/h10-11,14H,3-9H2,1-2H3,(H2,20,21,22)

> <Parent_SMILES>
COc1cc2nc(N3CCN(C(=O)C4CCCO4)CC3)nc(N)c2cc1OC

$$$$
Molecule 44_metabolite 12
  CDK     0516241031

 57 60  0  0  0  0  0  0  0  0999 V2000
   -5.1981   -0.7504    0.0000 C   0  0  0  0  0  0  0  0  0  0  0  0
   -6.4970   -1.5006    0.0000 H   0  0  0  0  0  0  0  0  0  0  0  0
   -4.2341    0.3988    0.0000 H   0  0  0  0  0  0  0  0  0  0  0  0
   -6.1624    0.3985    0.0000 H   0  0  0  0  0  0  0  0  0  0  0  0
   -3.8989   -1.5002    0.0000 O   0  0  0  0  0  0  0  0  0  0  0  0
   -2.6000   -0.7500    0.0000 C   0  0  0  0  0  0  0  0  0  0  0  0
   -1.3000   -1.5000    0.0000 C   0  0  0  0  0  0  0  0  0  0  0  0
   -1.3000   -3.0000    0.0000 H   0  0  0  0  0  0  0  0  0  0  0  0
    0.0000   -0.7500    0.0000 C   0  0  0  0  0  0  0  0  0  0  0  0
    1.3000   -1.5000    0.0000 C   0  0  0  0  0  0  0  0  0  0  0  0
    2.6000   -0.7500    0.0000 N   0  0  0  0  0  0  0  0  0  0  0  0
    2.6000    0.7500    0.0000 C   0  0  0  0  0  0  0  0  0  0  0  0
    1.3000    1.5000    0.0000 N   0  0  0  0  0  0  0  0  0  0  0  0
    0.0000    0.7500    0.0000 C   0  0  0  0  0  0  0  0  0  0  0  0
   -1.3000    1.5000    0.0000 C   0  0  0  0  0  0  0  0  0  0  0  0
   -1.3000    3.0000    0.0000 H   0  0  0  0  0  0  0  0  0  0  0  0
   -2.6000    0.7500    0.0000 C   0  0  0  0  0  0  0  0  0  0  0  0
   -3.8989    1.5002    0.0000 O   0  0  0  0  0  0  0  0  0  0  0  0
   -3.8987    3.0002    0.0000 C   0  0  0  0  0  0  0  0  0  0  0  0
   -5.1976    3.7504    0.0000 H   0  0  0  0  0  0  0  0  0  0  0  0
   -2.4215    2.7395    0.0000 H   0  0  0  0  0  0  0  0  0  0  0  0
   -3.3854    4.4097    0.0000 H   0  0  0  0  0  0  0  0  0  0  0  0
    3.8989    1.5002    0.0000 N   0  0  0  0  0  0  0  0  0  0  0  0
    5.1989    0.7502    0.0000 C   0  0  0  0  0  0  0  0  0  0  0  0
    4.2349   -0.3990    0.0000 H   0  0  0  0  0  0  0  0  0  0  0  0
    6.1630   -0.3990    0.0000 H   0  0  0  0  0  0  0  0  0  0  0  0
    6.4989    1.5002    0.0000 C   0  0  0  0  0  0  0  0  0  0  0  0
    7.0116    0.0906    0.0000 H   0  0  0  0  0  0  0  0  0  0  0  0
    7.9762    1.7605    0.0000 H   0  0  0  0  0  0  0  0  0  0  0  0
    6.4989    3.0002    0.0000 N   0  0  0  0  0  0  0  0  0  0  0  0
    5.1989    3.7502    0.0000 C   0  0  0  0  0  0  0  0  0  0  0  0
    6.1630    4.8994    0.0000 H   0  0  0  0  0  0  0  0  0  0  0  0
    4.2349    4.8994    0.0000 H   0  0  0  0  0  0  0  0  0  0  0  0
    3.8989    3.0002    0.0000 C   0  0  0  0  0  0  0  0  0  0  0  0
    3.3862    4.4099    0.0000 H   0  0  0  0  0  0  0  0  0  0  0  0
    2.4217    2.7399    0.0000 H   0  0  0  0  0  0  0  0  0  0  0  0
    7.7978    3.7504    0.0000 C   0  0  0  0  0  0  0  0  0  0  0  0
    7.7976    5.2504    0.0000 O   0  0  0  0  0  0  0  0  0  0  0  0
    9.9285    2.5208    0.0000 C   0  0  0  0  0  0  0  0  0  0  0  0
    9.0506    1.3045    0.0000 H   0  0  0  0  0  0  0  0  0  0  0  0
   10.5407    3.8855    0.0000 C   0  0  0  0  0  0  0  0  0  0  0  0
   10.8513    5.3530    0.0000 H   0  0  0  0  0  0  0  0  0  0  0  0
    9.1145    4.3504    0.0000 H   0  0  0  0  0  0  0  0  0  0  0  0
   12.0329    3.7327    0.0000 C   0  0  0  0  0  0  0  0  0  0  0  0
   13.5243    3.8926    0.0000 H   0  0  0  0  0  0  0  0  0  0  0  0
   12.0293    5.2327    0.0000 H   0  0  0  0  0  0  0  0  0  0  0  0
   12.3458    2.2732    0.0000 C   0  0  0  0  0  0  0  0  0  0  0  0
   12.9596    0.9045    0.0000 H   0  0  0  0  0  0  0  0  0  0  0  0
   13.7714    2.7399    0.0000 H   0  0  0  0  0  0  0  0  0  0  0  0
   11.0525    1.5210    0.0000 O   0  0  0  0  0  0  0  0  0  0  0  0
    1.3000   -3.0000    0.0000 N   0  0  0  0  0  0  0  0  0  0  0  0
    2.5990   -3.7500    0.0000 H   0  0  0  0  0  0  0  0  0  0  0  0
    0.0010   -3.7500    0.0000 S   0  0  0  0  0  0  0  0  0  0  0  0
   -0.5121   -2.3405    0.0000 O   0  0  0  0  0  0  0  0  0  0  0  0
   -1.4762   -4.0105    0.0000 O   0  0  0  0  0  0  0  0  0  0  0  0
    0.0010   -5.2500    0.0000 O   0  0  0  0  0  0  0  0  0  0  0  0
   -1.2981   -6.0000    0.0000 H   0  0  0  0  0  0  0  0  0  0  0  0
  1  2  1  0  0  0  0 
  1  3  1  0  0  0  0 
  1  4  1  0  0  0  0 
  1  5  1  0  0  0  0 
  5  6  1  0  0  0  0 
  6  7  2  0  0  0  0 
  7  8  1  0  0  0  0 
  7  9  1  0  0  0  0 
  9 10  2  0  0  0  0 
 10 11  1  0  0  0  0 
 11 12  2  0  0  0  0 
 12 13  1  0  0  0  0 
 13 14  2  0  0  0  0 
  9 14  1  0  0  0  0 
 14 15  1  0  0  0  0 
 15 16  1  0  0  0  0 
 15 17  2  0  0  0  0 
  6 17  1  0  0  0  0 
 17 18  1  0  0  0  0 
 18 19  1  0  0  0  0 
 19 20  1  0  0  0  0 
 19 21  1  0  0  0  0 
 19 22  1  0  0  0  0 
 12 23  1  0  0  0  0 
 23 24  1  0  0  0  0 
 24 25  1  0  0  0  0 
 24 26  1  0  0  0  0 
 24 27  1  0  0  0  0 
 27 28  1  0  0  0  0 
 27 29  1  0  0  0  0 
 27 30  1  0  0  0  0 
 30 31  1  0  0  0  0 
 31 32  1  0  0  0  0 
 31 33  1  0  0  0  0 
 31 34  1  0  0  0  0 
 23 34  1  0  0  0  0 
 34 35  1  0  0  0  0 
 34 36  1  0  0  0  0 
 30 37  1  0  0  0  0 
 37 38  2  0  0  0  0 
 37 39  1  0  0  0  0 
 39 40  1  0  0  0  0 
 39 41  1  0  0  0  0 
 41 42  1  0  0  0  0 
 41 43  1  0  0  0  0 
 41 44  1  0  0  0  0 
 44 45  1  0  0  0  0 
 44 46  1  0  0  0  0 
 44 47  1  0  0  0  0 
 47 48  1  0  0  0  0 
 47 49  1  0  0  0  0 
 47 50  1  0  0  0  0 
 39 50  1  0  0  0  0 
 10 51  1  0  0  0  0 
 51 52  1  0  0  0  0 
 51 53  1  0  0  0  0 
 53 54  2  0  0  0  0 
 53 55  2  0  0  0  0 
 53 56  1  0  0  0  0 
 56 57  1  0  0  0  0 
M  END
> <Rank>
12

> <Priority_score>
0.28340744813241486

> <Reaction_type>
sulfation_(aniline)

> <Parent_ID>
44

> <Parent_InChI>
InChI=1S/C19H25N5O4/c1-26-15-10-12-13(11-16(15)27-2)21-19(22-17(12)20)24-7-5-23(6-8-24)18(25)14-4-3-9-28-14/h10-11,14H,3-9H2,1-2H3,(H2,20,21,22)

> <Parent_SMILES>
COc1cc2nc(N3CCN(C(=O)C4CCCO4)CC3)nc(N)c2cc1OC

$$$$
Molecule 44_metabolite 13
  CDK     0516241031

 54 57  0  0  0  0  0  0  0  0999 V2000
   -5.6135   -2.4305    0.0000 C   0  0  0  0  0  0  0  0  0  0  0  0
   -6.9124   -3.1807    0.0000 H   0  0  0  0  0  0  0  0  0  0  0  0
   -4.6495   -1.2813    0.0000 H   0  0  0  0  0  0  0  0  0  0  0  0
   -6.5779   -1.2816    0.0000 H   0  0  0  0  0  0  0  0  0  0  0  0
   -4.3143   -3.1803    0.0000 O   0  0  0  0  0  0  0  0  0  0  0  0
   -3.0154   -2.4301    0.0000 C   0  0  0  0  0  0  0  0  0  0  0  0
   -1.7154   -3.1801    0.0000 C   0  0  0  0  0  0  0  0  0  0  0  0
   -1.7154   -4.6801    0.0000 H   0  0  0  0  0  0  0  0  0  0  0  0
   -0.4154   -2.4301    0.0000 C   0  0  0  0  0  0  0  0  0  0  0  0
    0.8846   -3.1801    0.0000 C   0  0  0  0  0  0  0  0  0  0  0  0
    2.1846   -2.4301    0.0000 N   0  0  0  0  0  0  0  0  0  0  0  0
    2.1846   -0.9301    0.0000 C   0  0  0  0  0  0  0  0  0  0  0  0
    0.8846   -0.1801    0.0000 N   0  0  0  0  0  0  0  0  0  0  0  0
   -0.4154   -0.9301    0.0000 C   0  0  0  0  0  0  0  0  0  0  0  0
   -1.7154   -0.1801    0.0000 C   0  0  0  0  0  0  0  0  0  0  0  0
   -1.7154    1.3199    0.0000 H   0  0  0  0  0  0  0  0  0  0  0  0
   -3.0154   -0.9301    0.0000 C   0  0  0  0  0  0  0  0  0  0  0  0
   -4.3143   -0.1799    0.0000 O   0  0  0  0  0  0  0  0  0  0  0  0
   -4.3141    1.3201    0.0000 C   0  0  0  0  0  0  0  0  0  0  0  0
   -5.6130    2.0703    0.0000 H   0  0  0  0  0  0  0  0  0  0  0  0
   -2.8369    1.0594    0.0000 H   0  0  0  0  0  0  0  0  0  0  0  0
   -3.8008    2.7296    0.0000 H   0  0  0  0  0  0  0  0  0  0  0  0
    3.4835   -0.1799    0.0000 N   0  0  0  0  0  0  0  0  0  0  0  0
    4.7835   -0.9299    0.0000 C   0  0  0  0  0  0  0  0  0  0  0  0
    3.8194   -2.0790    0.0000 H   0  0  0  0  0  0  0  0  0  0  0  0
    5.7476   -2.0790    0.0000 H   0  0  0  0  0  0  0  0  0  0  0  0
    6.0835   -0.1799    0.0000 C   0  0  0  0  0  0  0  0  0  0  0  0
    6.5962   -1.5895    0.0000 H   0  0  0  0  0  0  0  0  0  0  0  0
    7.5607    0.0805    0.0000 H   0  0  0  0  0  0  0  0  0  0  0  0
    6.0835    1.3201    0.0000 N   0  0  0  0  0  0  0  0  0  0  0  0
    4.7835    2.0701    0.0000 C   0  0  0  0  0  0  0  0  0  0  0  0
    5.7476    3.2193    0.0000 H   0  0  0  0  0  0  0  0  0  0  0  0
    3.8194    3.2193    0.0000 H   0  0  0  0  0  0  0  0  0  0  0  0
    3.4835    1.3201    0.0000 C   0  0  0  0  0  0  0  0  0  0  0  0
    2.9708    2.7298    0.0000 H   0  0  0  0  0  0  0  0  0  0  0  0
    2.0063    1.0598    0.0000 H   0  0  0  0  0  0  0  0  0  0  0  0
    7.7981    2.3104    0.0000 C   0  0  0  0  0  0  0  0  0  0  0  0
    7.7976    5.2504    0.0000 O   0  0  0  0  0  0  0  0  0  0  0  0
    9.5130    1.3207    0.0000 C   0  0  0  0  0  0  0  0  0  0  0  0
    8.6351    0.1044    0.0000 H   0  0  0  0  0  0  0  0  0  0  0  0
   10.1252    2.6854    0.0000 C   0  0  0  0  0  0  0  0  0  0  0  0
   10.4358    4.1529    0.0000 H   0  0  0  0  0  0  0  0  0  0  0  0
    8.6990    3.1504    0.0000 H   0  0  0  0  0  0  0  0  0  0  0  0
   11.6174    2.5326    0.0000 C   0  0  0  0  0  0  0  0  0  0  0  0
   13.1088    2.6925    0.0000 H   0  0  0  0  0  0  0  0  0  0  0  0
   11.6138    4.0326    0.0000 H   0  0  0  0  0  0  0  0  0  0  0  0
   11.9303    1.0731    0.0000 C   0  0  0  0  0  0  0  0  0  0  0  0
   12.5441   -0.2955    0.0000 H   0  0  0  0  0  0  0  0  0  0  0  0
   13.3559    1.5399    0.0000 H   0  0  0  0  0  0  0  0  0  0  0  0
   10.6370    0.3210    0.0000 O   0  0  0  0  0  0  0  0  0  0  0  0
    0.8846   -4.6801    0.0000 N   0  0  0  0  0  0  0  0  0  0  0  0
    2.1836   -5.4301    0.0000 H   0  0  0  0  0  0  0  0  0  0  0  0
   -0.4145   -5.4301    0.0000 O   0  0  0  0  0  0  0  0  0  0  0  0
   -0.4145   -6.9301    0.0000 H   0  0  0  0  0  0  0  0  0  0  0  0
  1  2  1  0  0  0  0 
  1  3  1  0  0  0  0 
  1  4  1  0  0  0  0 
  1  5  1  0  0  0  0 
  5  6  1  0  0  0  0 
  6  7  2  0  0  0  0 
  7  8  1  0  0  0  0 
  7  9  1  0  0  0  0 
  9 10  2  0  0  0  0 
 10 11  1  0  0  0  0 
 11 12  2  0  0  0  0 
 12 13  1  0  0  0  0 
 13 14  2  0  0  0  0 
  9 14  1  0  0  0  0 
 14 15  1  0  0  0  0 
 15 16  1  0  0  0  0 
 15 17  2  0  0  0  0 
  6 17  1  0  0  0  0 
 17 18  1  0  0  0  0 
 18 19  1  0  0  0  0 
 19 20  1  0  0  0  0 
 19 21  1  0  0  0  0 
 19 22  1  0  0  0  0 
 12 23  1  0  0  0  0 
 23 24  1  0  0  0  0 
 24 25  1  0  0  0  0 
 24 26  1  0  0  0  0 
 24 27  1  0  0  0  0 
 27 28  1  0  0  0  0 
 27 29  1  0  0  0  0 
 27 30  1  0  0  0  0 
 30 31  1  0  0  0  0 
 31 32  1  0  0  0  0 
 31 33  1  0  0  0  0 
 31 34  1  0  0  0  0 
 23 34  1  0  0  0  0 
 34 35  1  0  0  0  0 
 34 36  1  0  0  0  0 
 30 37  1  0  0  0  0 
 37 38  2  0  0  0  0 
 37 39  1  0  0  0  0 
 39 40  1  0  0  0  0 
 39 41  1  0  0  0  0 
 41 42  1  0  0  0  0 
 41 43  1  0  0  0  0 
 41 44  1  0  0  0  0 
 44 45  1  0  0  0  0 
 44 46  1  0  0  0  0 
 44 47  1  0  0  0  0 
 47 48  1  0  0  0  0 
 47 49  1  0  0  0  0 
 47 50  1  0  0  0  0 
 39 50  1  0  0  0  0 
 10 51  1  0  0  0  0 
 51 52  1  0  0  0  0 
 51 53  1  0  0  0  0 
 53 54  1  0  0  0  0 
M  END
> <Rank>
13

> <Priority_score>
0.192

> <Reaction_type>
N-oxidation_(aniline)

> <Parent_ID>
44

> <Parent_InChI>
InChI=1S/C19H25N5O4/c1-26-15-10-12-13(11-16(15)27-2)21-19(22-17(12)20)24-7-5-23(6-8-24)18(25)14-4-3-9-28-14/h10-11,14H,3-9H2,1-2H3,(H2,20,21,22)

> <Parent_SMILES>
COc1cc2nc(N3CCN(C(=O)C4CCCO4)CC3)nc(N)c2cc1OC

$$$$
Molecule 44_metabolite 14
  CDK     0516241031

 52 55  0  0  0  0  0  0  0  0999 V2000
   -5.6135   -2.4305    0.0000 C   0  0  0  0  0  0  0  0  0  0  0  0
   -6.9124   -3.1807    0.0000 H   0  0  0  0  0  0  0  0  0  0  0  0
   -4.6495   -1.2813    0.0000 H   0  0  0  0  0  0  0  0  0  0  0  0
   -6.5779   -1.2816    0.0000 H   0  0  0  0  0  0  0  0  0  0  0  0
   -4.3143   -3.1803    0.0000 O   0  0  0  0  0  0  0  0  0  0  0  0
   -3.0154   -2.4301    0.0000 C   0  0  0  0  0  0  0  0  0  0  0  0
   -1.7154   -3.1801    0.0000 C   0  0  0  0  0  0  0  0  0  0  0  0
   -1.7154   -4.6801    0.0000 H   0  0  0  0  0  0  0  0  0  0  0  0
   -0.4154   -2.4301    0.0000 C   0  0  0  0  0  0  0  0  0  0  0  0
   -0.4154   -0.9301    0.0000 C   0  0  0  0  0  0  0  0  0  0  0  0
   -1.7154   -0.1801    0.0000 C   0  0  0  0  0  0  0  0  0  0  0  0
   -1.7154    1.3199    0.0000 H   0  0  0  0  0  0  0  0  0  0  0  0
   -3.0154   -0.9301    0.0000 C   0  0  0  0  0  0  0  0  0  0  0  0
   -4.3143   -0.1799    0.0000 O   0  0  0  0  0  0  0  0  0  0  0  0
   -4.3141    1.3201    0.0000 C   0  0  0  0  0  0  0  0  0  0  0  0
   -5.6130    2.0703    0.0000 H   0  0  0  0  0  0  0  0  0  0  0  0
   -2.8369    1.0594    0.0000 H   0  0  0  0  0  0  0  0  0  0  0  0
   -3.8008    2.7296    0.0000 H   0  0  0  0  0  0  0  0  0  0  0  0
    0.8846   -0.1801    0.0000 N   0  0  0  0  0  0  0  0  0  0  0  0
    2.1846   -0.9301    0.0000 C   0  0  0  0  0  0  0  0  0  0  0  0
    2.1846   -2.4301    0.0000 N   0  0  0  0  0  0  0  0  0  0  0  0
    3.4835   -3.1803    0.0000 H   0  0  0  0  0  0  0  0  0  0  0  0
    0.8846   -3.1801    0.0000 C   0  0  0  0  0  0  0  0  0  0  0  0
    0.8846   -4.6801    0.0000 O   0  0  0  0  0  0  0  0  0  0  0  0
    3.4835   -0.1799    0.0000 N   0  0  0  0  0  0  0  0  0  0  0  0
    4.7835   -0.9299    0.0000 C   0  0  0  0  0  0  0  0  0  0  0  0
    3.8194   -2.0790    0.0000 H   0  0  0  0  0  0  0  0  0  0  0  0
    5.7476   -2.0790    0.0000 H   0  0  0  0  0  0  0  0  0  0  0  0
    6.0835   -0.1799    0.0000 C   0  0  0  0  0  0  0  0  0  0  0  0
    6.5962   -1.5895    0.0000 H   0  0  0  0  0  0  0  0  0  0  0  0
    7.5607    0.0805    0.0000 H   0  0  0  0  0  0  0  0  0  0  0  0
    6.0835    1.3201    0.0000 N   0  0  0  0  0  0  0  0  0  0  0  0
    4.7835    2.0701    0.0000 C   0  0  0  0  0  0  0  0  0  0  0  0
    5.7476    3.2193    0.0000 H   0  0  0  0  0  0  0  0  0  0  0  0
    3.8194    3.2193    0.0000 H   0  0  0  0  0  0  0  0  0  0  0  0
    3.4835    1.3201    0.0000 C   0  0  0  0  0  0  0  0  0  0  0  0
    2.9708    2.7298    0.0000 H   0  0  0  0  0  0  0  0  0  0  0  0
    2.0063    1.0598    0.0000 H   0  0  0  0  0  0  0  0  0  0  0  0
    7.7981    2.3104    0.0000 C   0  0  0  0  0  0  0  0  0  0  0  0
    7.7976    5.2504    0.0000 O   0  0  0  0  0  0  0  0  0  0  0  0
    9.5130    1.3207    0.0000 C   0  0  0  0  0  0  0  0  0  0  0  0
    8.6351    0.1044    0.0000 H   0  0  0  0  0  0  0  0  0  0  0  0
   10.1252    2.6854    0.0000 C   0  0  0  0  0  0  0  0  0  0  0  0
   10.4358    4.1529    0.0000 H   0  0  0  0  0  0  0  0  0  0  0  0
    8.6990    3.1504    0.0000 H   0  0  0  0  0  0  0  0  0  0  0  0
   11.6174    2.5326    0.0000 C   0  0  0  0  0  0  0  0  0  0  0  0
   13.1088    2.6925    0.0000 H   0  0  0  0  0  0  0  0  0  0  0  0
   11.6138    4.0326    0.0000 H   0  0  0  0  0  0  0  0  0  0  0  0
   11.9303    1.0731    0.0000 C   0  0  0  0  0  0  0  0  0  0  0  0
   12.5441   -0.2955    0.0000 H   0  0  0  0  0  0  0  0  0  0  0  0
   13.3559    1.5399    0.0000 H   0  0  0  0  0  0  0  0  0  0  0  0
   10.6370    0.3210    0.0000 O   0  0  0  0  0  0  0  0  0  0  0  0
  1  2  1  0  0  0  0 
  1  3  1  0  0  0  0 
  1  4  1  0  0  0  0 
  1  5  1  0  0  0  0 
  5  6  1  0  0  0  0 
  6  7  2  0  0  0  0 
  7  8  1  0  0  0  0 
  7  9  1  0  0  0  0 
  9 10  2  0  0  0  0 
 10 11  1  0  0  0  0 
 11 12  1  0  0  0  0 
 11 13  2  0  0  0  0 
  6 13  1  0  0  0  0 
 13 14  1  0  0  0  0 
 14 15  1  0  0  0  0 
 15 16  1  0  0  0  0 
 15 17  1  0  0  0  0 
 15 18  1  0  0  0  0 
 10 19  1  0  0  0  0 
 19 20  2  0  0  0  0 
 20 21  1  0  0  0  0 
 21 22  1  0  0  0  0 
 21 23  1  0  0  0  0 
  9 23  1  0  0  0  0 
 23 24  2  0  0  0  0 
 20 25  1  0  0  0  0 
 25 26  1  0  0  0  0 
 26 27  1  0  0  0  0 
 26 28  1  0  0  0  0 
 26 29  1  0  0  0  0 
 29 30  1  0  0  0  0 
 29 31  1  0  0  0  0 
 29 32  1  0  0  0  0 
 32 33  1  0  0  0  0 
 33 34  1  0  0  0  0 
 33 35  1  0  0  0  0 
 33 36  1  0  0  0  0 
 25 36  1  0  0  0  0 
 36 37  1  0  0  0  0 
 36 38  1  0  0  0  0 
 32 39  1  0  0  0  0 
 39 40  2  0  0  0  0 
 39 41  1  0  0  0  0 
 41 42  1  0  0  0  0 
 41 43  1  0  0  0  0 
 43 44  1  0  0  0  0 
 43 45  1  0  0  0  0 
 43 46  1  0  0  0  0 
 46 47  1  0  0  0  0 
 46 48  1  0  0  0  0 
 46 49  1  0  0  0  0 
 49 50  1  0  0  0  0 
 49 51  1  0  0  0  0 
 49 52  1  0  0  0  0 
 41 52  1  0  0  0  0 
M  END
> <Rank>
13

> <Priority_score>
0.192

> <Reaction_type>
oxidative_deamination_(aromatic)

> <Parent_ID>
44

> <Parent_InChI>
InChI=1S/C19H25N5O4/c1-26-15-10-12-13(11-16(15)27-2)21-19(22-17(12)20)24-7-5-23(6-8-24)18(25)14-4-3-9-28-14/h10-11,14H,3-9H2,1-2H3,(H2,20,21,22)

> <Parent_SMILES>
COc1cc2nc(N3CCN(C(=O)C4CCCO4)CC3)nc(N)c2cc1OC

$$$$
Molecule 44_metabolite 15
  CDK     0516241031

 49 51  0  0  0  0  0  0  0  0999 V2000
   -3.8987   -3.0002    0.0000 C   0  0  0  0  0  0  0  0  0  0  0  0
   -5.1976   -3.7504    0.0000 H   0  0  0  0  0  0  0  0  0  0  0  0
   -2.4215   -2.7395    0.0000 H   0  0  0  0  0  0  0  0  0  0  0  0
   -3.3854   -4.4097    0.0000 H   0  0  0  0  0  0  0  0  0  0  0  0
   -3.8989   -1.5002    0.0000 O   0  0  0  0  0  0  0  0  0  0  0  0
   -2.6000   -0.7500    0.0000 C   0  0  0  0  0  0  0  0  0  0  0  0
   -1.3000   -1.5000    0.0000 C   0  0  0  0  0  0  0  0  0  0  0  0
   -1.3000   -3.0000    0.0000 H   0  0  0  0  0  0  0  0  0  0  0  0
    0.0000   -0.7500    0.0000 C   0  0  0  0  0  0  0  0  0  0  0  0
    1.3000   -1.5000    0.0000 C   0  0  0  0  0  0  0  0  0  0  0  0
    1.3000   -3.0000    0.0000 N   0  0  0  0  0  0  0  0  0  0  0  0
    2.5990   -3.7500    0.0000 H   0  0  0  0  0  0  0  0  0  0  0  0
    0.0010   -3.7500    0.0000 H   0  0  0  0  0  0  0  0  0  0  0  0
    2.6000   -0.7500    0.0000 N   0  0  0  0  0  0  0  0  0  0  0  0
    2.6000    0.7500    0.0000 C   0  0  0  0  0  0  0  0  0  0  0  0
    3.8989    1.5002    0.0000 N   0  0  0  0  0  0  0  0  0  0  0  0
    3.8987    3.0002    0.0000 H   0  0  0  0  0  0  0  0  0  0  0  0
    5.1981    0.7504    0.0000 C   0  0  0  0  0  0  0  0  0  0  0  0
    4.2341   -0.3988    0.0000 H   0  0  0  0  0  0  0  0  0  0  0  0
    6.1624   -0.3985    0.0000 H   0  0  0  0  0  0  0  0  0  0  0  0
    6.4970    1.5006    0.0000 C   0  0  0  0  0  0  0  0  0  0  0  0
    7.4610    2.6498    0.0000 H   0  0  0  0  0  0  0  0  0  0  0  0
    5.5326    2.6495    0.0000 H   0  0  0  0  0  0  0  0  0  0  0  0
    7.7962    0.7508    0.0000 N   0  0  0  0  0  0  0  0  0  0  0  0
    7.7964   -0.7492    0.0000 H   0  0  0  0  0  0  0  0  0  0  0  0
    9.0951    1.5010    0.0000 C   0  0  0  0  0  0  0  0  0  0  0  0
    9.0948    3.0010    0.0000 O   0  0  0  0  0  0  0  0  0  0  0  0
   10.8100    0.5113    0.0000 C   0  0  0  0  0  0  0  0  0  0  0  0
    9.9321   -0.7050    0.0000 H   0  0  0  0  0  0  0  0  0  0  0  0
   11.4222    1.8760    0.0000 C   0  0  0  0  0  0  0  0  0  0  0  0
   11.7328    3.3435    0.0000 H   0  0  0  0  0  0  0  0  0  0  0  0
    9.9960    2.3410    0.0000 H   0  0  0  0  0  0  0  0  0  0  0  0
   12.9144    1.7232    0.0000 C   0  0  0  0  0  0  0  0  0  0  0  0
   14.4058    1.8831    0.0000 H   0  0  0  0  0  0  0  0  0  0  0  0
   12.9108    3.2232    0.0000 H   0  0  0  0  0  0  0  0  0  0  0  0
   13.2273    0.2638    0.0000 C   0  0  0  0  0  0  0  0  0  0  0  0
   13.8411   -1.1049    0.0000 H   0  0  0  0  0  0  0  0  0  0  0  0
   14.6529    0.7305    0.0000 H   0  0  0  0  0  0  0  0  0  0  0  0
   11.9340   -0.4884    0.0000 O   0  0  0  0  0  0  0  0  0  0  0  0
    1.3000    1.5000    0.0000 N   0  0  0  0  0  0  0  0  0  0  0  0
    0.0000    0.7500    0.0000 C   0  0  0  0  0  0  0  0  0  0  0  0
   -1.3000    1.5000    0.0000 C   0  0  0  0  0  0  0  0  0  0  0  0
   -1.3000    3.0000    0.0000 H   0  0  0  0  0  0  0  0  0  0  0  0
   -2.6000    0.7500    0.0000 C   0  0  0  0  0  0  0  0  0  0  0  0
   -3.8989    1.5002    0.0000 O   0  0  0  0  0  0  0  0  0  0  0  0
   -5.1981    0.7504    0.0000 C   0  0  0  0  0  0  0  0  0  0  0  0
   -5.1983   -0.7496    0.0000 H   0  0  0  0  0  0  0  0  0  0  0  0
   -6.6753    0.4902    0.0000 H   0  0  0  0  0  0  0  0  0  0  0  0
   -5.7109    2.1600    0.0000 H   0  0  0  0  0  0  0  0  0  0  0  0
  1  2  1  0  0  0  0 
  1  3  1  0  0  0  0 
  1  4  1  0  0  0  0 
  1  5  1  0  0  0  0 
  5  6  1  0  0  0  0 
  6  7  2  0  0  0  0 
  7  8  1  0  0  0  0 
  7  9  1  0  0  0  0 
  9 10  2  0  0  0  0 
 10 11  1  0  0  0  0 
 11 12  1  0  0  0  0 
 11 13  1  0  0  0  0 
 10 14  1  0  0  0  0 
 14 15  2  0  0  0  0 
 15 16  1  0  0  0  0 
 16 17  1  0  0  0  0 
 16 18  1  0  0  0  0 
 18 19  1  0  0  0  0 
 18 20  1  0  0  0  0 
 18 21  1  0  0  0  0 
 21 22  1  0  0  0  0 
 21 23  1  0  0  0  0 
 21 24  1  0  0  0  0 
 24 25  1  0  0  0  0 
 24 26  1  0  0  0  0 
 26 27  2  0  0  0  0 
 26 28  1  0  0  0  0 
 28 29  1  0  0  0  0 
 28 30  1  0  0  0  0 
 30 31  1  0  0  0  0 
 30 32  1  0  0  0  0 
 30 33  1  0  0  0  0 
 33 34  1  0  0  0  0 
 33 35  1  0  0  0  0 
 33 36  1  0  0  0  0 
 36 37  1  0  0  0  0 
 36 38  1  0  0  0  0 
 36 39  1  0  0  0  0 
 28 39  1  0  0  0  0 
 15 40  1  0  0  0  0 
 40 41  2  0  0  0  0 
  9 41  1  0  0  0  0 
 41 42  1  0  0  0  0 
 42 43  1  0  0  0  0 
 42 44  2  0  0  0  0 
  6 44  1  0  0  0  0 
 44 45  1  0  0  0  0 
 45 46  1  0  0  0  0 
 46 47  1  0  0  0  0 
 46 48  1  0  0  0  0 
 46 49  1  0  0  0  0 
M  END
> <Rank>
15

> <Priority_score>
0.18

> <Reaction_type>
N-dealkylation_(piperazine)

> <Parent_ID>
44

> <Parent_InChI>
InChI=1S/C19H25N5O4/c1-26-15-10-12-13(11-16(15)27-2)21-19(22-17(12)20)24-7-5-23(6-8-24)18(25)14-4-3-9-28-14/h10-11,14H,3-9H2,1-2H3,(H2,20,21,22)

> <Parent_SMILES>
COc1cc2nc(N3CCN(C(=O)C4CCCO4)CC3)nc(N)c2cc1OC

$$$$
Molecule 44_metabolite 16
  CDK     0516241031

 40 42  0  0  0  0  0  0  0  0999 V2000
   -5.1981   -0.7504    0.0000 C   0  0  0  0  0  0  0  0  0  0  0  0
   -6.4970   -1.5006    0.0000 H   0  0  0  0  0  0  0  0  0  0  0  0
   -4.2341    0.3988    0.0000 H   0  0  0  0  0  0  0  0  0  0  0  0
   -6.1624    0.3985    0.0000 H   0  0  0  0  0  0  0  0  0  0  0  0
   -3.8989   -1.5002    0.0000 O   0  0  0  0  0  0  0  0  0  0  0  0
   -2.6000   -0.7500    0.0000 C   0  0  0  0  0  0  0  0  0  0  0  0
   -1.3000   -1.5000    0.0000 C   0  0  0  0  0  0  0  0  0  0  0  0
   -1.3000   -3.0000    0.0000 H   0  0  0  0  0  0  0  0  0  0  0  0
    0.0000   -0.7500    0.0000 C   0  0  0  0  0  0  0  0  0  0  0  0
    1.3000   -1.5000    0.0000 C   0  0  0  0  0  0  0  0  0  0  0  0
    1.3000   -3.0000    0.0000 N   0  0  0  0  0  0  0  0  0  0  0  0
    2.5990   -3.7500    0.0000 H   0  0  0  0  0  0  0  0  0  0  0  0
    0.0010   -3.7500    0.0000 H   0  0  0  0  0  0  0  0  0  0  0  0
    2.6000   -0.7500    0.0000 N   0  0  0  0  0  0  0  0  0  0  0  0
    2.6000    0.7500    0.0000 C   0  0  0  0  0  0  0  0  0  0  0  0
    1.3000    1.5000    0.0000 N   0  0  0  0  0  0  0  0  0  0  0  0
    0.0000    0.7500    0.0000 C   0  0  0  0  0  0  0  0  0  0  0  0
   -1.3000    1.5000    0.0000 C   0  0  0  0  0  0  0  0  0  0  0  0
   -1.3000    3.0000    0.0000 H   0  0  0  0  0  0  0  0  0  0  0  0
   -2.6000    0.7500    0.0000 C   0  0  0  0  0  0  0  0  0  0  0  0
   -3.8989    1.5002    0.0000 O   0  0  0  0  0  0  0  0  0  0  0  0
   -3.8987    3.0002    0.0000 C   0  0  0  0  0  0  0  0  0  0  0  0
   -5.1976    3.7504    0.0000 H   0  0  0  0  0  0  0  0  0  0  0  0
   -2.4215    2.7395    0.0000 H   0  0  0  0  0  0  0  0  0  0  0  0
   -3.3854    4.4097    0.0000 H   0  0  0  0  0  0  0  0  0  0  0  0
    3.8989    1.5002    0.0000 N   0  0  0  0  0  0  0  0  0  0  0  0
    3.8982    3.0010    0.0000 C   0  0  0  0  0  0  0  0  0  0  0  0
    3.3848    4.4104    0.0000 H   0  0  0  0  0  0  0  0  0  0  0  0
    2.4211    2.7400    0.0000 H   0  0  0  0  0  0  0  0  0  0  0  0
    5.1971    3.7512    0.0000 C   0  0  0  0  0  0  0  0  0  0  0  0
    6.1614    4.9003    0.0000 H   0  0  0  0  0  0  0  0  0  0  0  0
    4.2329    4.9003    0.0000 H   0  0  0  0  0  0  0  0  0  0  0  0
    6.4968    3.0006    0.0000 N   0  0  0  0  0  0  0  0  0  0  0  0
    7.7957    3.7508    0.0000 H   0  0  0  0  0  0  0  0  0  0  0  0
    6.4975    1.4998    0.0000 C   0  0  0  0  0  0  0  0  0  0  0  0
    7.0109    0.0904    0.0000 H   0  0  0  0  0  0  0  0  0  0  0  0
    7.9746    1.7608    0.0000 H   0  0  0  0  0  0  0  0  0  0  0  0
    5.1986    0.7496    0.0000 C   0  0  0  0  0  0  0  0  0  0  0  0
    4.2343   -0.3994    0.0000 H   0  0  0  0  0  0  0  0  0  0  0  0
    6.1628   -0.3994    0.0000 H   0  0  0  0  0  0  0  0  0  0  0  0
  1  2  1  0  0  0  0 
  1  3  1  0  0  0  0 
  1  4  1  0  0  0  0 
  1  5  1  0  0  0  0 
  5  6  1  0  0  0  0 
  6  7  2  0  0  0  0 
  7  8  1  0  0  0  0 
  7  9  1  0  0  0  0 
  9 10  2  0  0  0  0 
 10 11  1  0  0  0  0 
 11 12  1  0  0  0  0 
 11 13  1  0  0  0  0 
 10 14  1  0  0  0  0 
 14 15  2  0  0  0  0 
 15 16  1  0  0  0  0 
 16 17  2  0  0  0  0 
  9 17  1  0  0  0  0 
 17 18  1  0  0  0  0 
 18 19  1  0  0  0  0 
 18 20  2  0  0  0  0 
  6 20  1  0  0  0  0 
 20 21  1  0  0  0  0 
 21 22  1  0  0  0  0 
 22 23  1  0  0  0  0 
 22 24  1  0  0  0  0 
 22 25  1  0  0  0  0 
 15 26  1  0  0  0  0 
 26 27  1  0  0  0  0 
 27 28  1  0  0  0  0 
 27 29  1  0  0  0  0 
 27 30  1  0  0  0  0 
 30 31  1  0  0  0  0 
 30 32  1  0  0  0  0 
 30 33  1  0  0  0  0 
 33 34  1  0  0  0  0 
 33 35  1  0  0  0  0 
 35 36  1  0  0  0  0 
 35 37  1  0  0  0  0 
 35 38  1  0  0  0  0 
 26 38  1  0  0  0  0 
 38 39  1  0  0  0  0 
 38 40  1  0  0  0  0 
M  END
> <Rank>
15

> <Priority_score>
0.18

> <Reaction_type>
hydrolysis_(tertiary_amide)

> <Parent_ID>
44

> <Parent_InChI>
InChI=1S/C19H25N5O4/c1-26-15-10-12-13(11-16(15)27-2)21-19(22-17(12)20)24-7-5-23(6-8-24)18(25)14-4-3-9-28-14/h10-11,14H,3-9H2,1-2H3,(H2,20,21,22)

> <Parent_SMILES>
COc1cc2nc(N3CCN(C(=O)C4CCCO4)CC3)nc(N)c2cc1OC

$$$$
Molecule 44_metabolite 17
  CDK     0516241031

 16 16  0  0  0  0  0  0  0  0999 V2000
    1.6629   -1.5253    0.0000 C   0  0  0  0  0  0  0  0  0  0  0  0
    1.9739   -2.9927    0.0000 H   0  0  0  0  0  0  0  0  0  0  0  0
    3.1548   -1.3689    0.0000 H   0  0  0  0  0  0  0  0  0  0  0  0
    1.6629   -0.0253    0.0000 C   0  0  0  0  0  0  0  0  0  0  0  0
    3.1544   -0.1848    0.0000 H   0  0  0  0  0  0  0  0  0  0  0  0
    1.9801    1.4408    0.0000 H   0  0  0  0  0  0  0  0  0  0  0  0
    0.2429    0.4447    0.0000 C   0  0  0  0  0  0  0  0  0  0  0  0
    0.8565    1.8135    0.0000 H   0  0  0  0  0  0  0  0  0  0  0  0
   -1.0565    1.1941    0.0000 C   0  0  0  0  0  0  0  0  0  0  0  0
   -2.3551    0.4435    0.0000 O   0  0  0  0  0  0  0  0  0  0  0  0
   -1.0572    2.6941    0.0000 O   0  0  0  0  0  0  0  0  0  0  0  0
   -2.3565    3.4435    0.0000 H   0  0  0  0  0  0  0  0  0  0  0  0
   -0.6371   -0.7753    0.0000 O   0  0  0  0  0  0  0  0  0  0  0  0
    0.2429   -1.9853    0.0000 C   0  0  0  0  0  0  0  0  0  0  0  0
   -1.0561   -2.7353    0.0000 H   0  0  0  0  0  0  0  0  0  0  0  0
    0.8524   -3.3559    0.0000 H   0  0  0  0  0  0  0  0  0  0  0  0
  1  2  1  0  0  0  0 
  1  3  1  0  0  0  0 
  1  4  1  0  0  0  0 
  4  5  1  0  0  0  0 
  4  6  1  0  0  0  0 
  4  7  1  0  0  0  0 
  7  8  1  0  0  0  0 
  7  9  1  0  0  0  0 
  9 10  2  0  0  0  0 
  9 11  1  0  0  0  0 
 11 12  1  0  0  0  0 
  7 13  1  0  0  0  0 
 13 14  1  0  0  0  0 
  1 14  1  0  0  0  0 
 14 15  1  0  0  0  0 
 14 16  1  0  0  0  0 
M  END
> <Rank>
15

> <Priority_score>
0.18

> <Reaction_type>
hydrolysis_(tertiary_amide)

> <Parent_ID>
44

> <Parent_InChI>
InChI=1S/C19H25N5O4/c1-26-15-10-12-13(11-16(15)27-2)21-19(22-17(12)20)24-7-5-23(6-8-24)18(25)14-4-3-9-28-14/h10-11,14H,3-9H2,1-2H3,(H2,20,21,22)

> <Parent_SMILES>
COc1cc2nc(N3CCN(C(=O)C4CCCO4)CC3)nc(N)c2cc1OC

$$$$
Molecule 44_metabolite 18
  CDK     0516241031

 54 57  0  0  0  0  0  0  0  0999 V2000
    6.9950  -11.2893    0.0000 C   0  0  0  0  0  0  0  0  0  0  0  0
    6.4825  -12.6990    0.0000 H   0  0  0  0  0  0  0  0  0  0  0  0
    7.9587  -10.1398    0.0000 H   0  0  0  0  0  0  0  0  0  0  0  0
    8.2943  -12.0388    0.0000 H   0  0  0  0  0  0  0  0  0  0  0  0
    6.0304  -10.1406    0.0000 O   0  0  0  0  0  0  0  0  0  0  0  0
    6.5429   -8.7308    0.0000 C   0  0  0  0  0  0  0  0  0  0  0  0
    5.5779   -7.5813    0.0000 C   0  0  0  0  0  0  0  0  0  0  0  0
    4.1008   -7.8426    0.0000 H   0  0  0  0  0  0  0  0  0  0  0  0
    6.0900   -6.1706    0.0000 C   0  0  0  0  0  0  0  0  0  0  0  0
    5.1250   -5.0211    0.0000 C   0  0  0  0  0  0  0  0  0  0  0  0
    3.6480   -5.2823    0.0000 N   0  0  0  0  0  0  0  0  0  0  0  0
    2.6832   -4.1338    0.0000 H   0  0  0  0  0  0  0  0  0  0  0  0
    3.1357   -6.6922    0.0000 H   0  0  0  0  0  0  0  0  0  0  0  0
    5.6371   -3.6103    0.0000 N   0  0  0  0  0  0  0  0  0  0  0  0
    7.1142   -3.3491    0.0000 C   0  0  0  0  0  0  0  0  0  0  0  0
    8.0792   -4.4986    0.0000 N   0  0  0  0  0  0  0  0  0  0  0  0
    7.5671   -5.9093    0.0000 C   0  0  0  0  0  0  0  0  0  0  0  0
    8.5320   -7.0588    0.0000 C   0  0  0  0  0  0  0  0  0  0  0  0
   10.0091   -6.7976    0.0000 H   0  0  0  0  0  0  0  0  0  0  0  0
    8.0199   -8.4696    0.0000 C   0  0  0  0  0  0  0  0  0  0  0  0
    8.9849   -9.6180    0.0000 O   0  0  0  0  0  0  0  0  0  0  0  0
   10.4619   -9.3565    0.0000 C   0  0  0  0  0  0  0  0  0  0  0  0
   11.4269  -10.5049    0.0000 H   0  0  0  0  0  0  0  0  0  0  0  0
    9.9479   -7.9473    0.0000 H   0  0  0  0  0  0  0  0  0  0  0  0
   11.7605   -8.6056    0.0000 H   0  0  0  0  0  0  0  0  0  0  0  0
    7.6267   -1.9393    0.0000 N   0  0  0  0  0  0  0  0  0  0  0  0
    9.1047   -1.6786    0.0000 C   0  0  0  0  0  0  0  0  0  0  0  0
   10.5820   -1.9387    0.0000 H   0  0  0  0  0  0  0  0  0  0  0  0
    9.1050   -3.1786    0.0000 H   0  0  0  0  0  0  0  0  0  0  0  0
    9.6172   -0.2689    0.0000 C   0  0  0  0  0  0  0  0  0  0  0  0
   10.5808    0.8807    0.0000 H   0  0  0  0  0  0  0  0  0  0  0  0
   10.9166   -1.0183    0.0000 H   0  0  0  0  0  0  0  0  0  0  0  0
    8.6517    0.8801    0.0000 N   0  0  0  0  0  0  0  0  0  0  0  0
    7.1737    0.6194    0.0000 C   0  0  0  0  0  0  0  0  0  0  0  0
    5.6964    0.8795    0.0000 H   0  0  0  0  0  0  0  0  0  0  0  0
    7.1735    2.1194    0.0000 H   0  0  0  0  0  0  0  0  0  0  0  0
    6.6612   -0.7903    0.0000 C   0  0  0  0  0  0  0  0  0  0  0  0
    5.6977   -1.9399    0.0000 H   0  0  0  0  0  0  0  0  0  0  0  0
    5.3618   -0.0409    0.0000 H   0  0  0  0  0  0  0  0  0  0  0  0
    7.9740    2.7405    0.0000 C   0  0  0  0  0  0  0  0  0  0  0  0
    6.4968    3.0006    0.0000 O   0  0  0  0  0  0  0  0  0  0  0  0
    9.2463    4.2577    0.0000 C   0  0  0  0  0  0  0  0  0  0  0  0
   10.2918    3.1820    0.0000 H   0  0  0  0  0  0  0  0  0  0  0  0
    8.0086    5.0974    0.0000 C   0  0  0  0  0  0  0  0  0  0  0  0
    6.6173    5.6580    0.0000 H   0  0  0  0  0  0  0  0  0  0  0  0
    7.3032    3.7736    0.0000 H   0  0  0  0  0  0  0  0  0  0  0  0
    8.4180    6.5405    0.0000 C   0  0  0  0  0  0  0  0  0  0  0  0
    8.5194    8.0370    0.0000 H   0  0  0  0  0  0  0  0  0  0  0  0
    6.9402    6.7973    0.0000 H   0  0  0  0  0  0  0  0  0  0  0  0
    9.9097    6.5954    0.0000 C   0  0  0  0  0  0  0  0  0  0  0  0
   11.3641    6.9623    0.0000 H   0  0  0  0  0  0  0  0  0  0  0  0
    9.6974    8.0803    0.0000 H   0  0  0  0  0  0  0  0  0  0  0  0
   10.4260    5.1911    0.0000 O   0  0  0  0  0  0  0  0  0  0  0  0
    9.9504    1.6308    0.0000 O   0  0  0  0  0  0  0  0  0  0  0  0
  1  2  1  0  0  0  0 
  1  3  1  0  0  0  0 
  1  4  1  0  0  0  0 
  1  5  1  0  0  0  0 
  5  6  1  0  0  0  0 
  6  7  2  0  0  0  0 
  7  8  1  0  0  0  0 
  7  9  1  0  0  0  0 
  9 10  2  0  0  0  0 
 10 11  1  0  0  0  0 
 11 12  1  0  0  0  0 
 11 13  1  0  0  0  0 
 10 14  1  0  0  0  0 
 14 15  2  0  0  0  0 
 15 16  1  0  0  0  0 
 16 17  2  0  0  0  0 
  9 17  1  0  0  0  0 
 17 18  1  0  0  0  0 
 18 19  1  0  0  0  0 
 18 20  2  0  0  0  0 
  6 20  1  0  0  0  0 
 20 21  1  0  0  0  0 
 21 22  1  0  0  0  0 
 22 23  1  0  0  0  0 
 22 24  1  0  0  0  0 
 22 25  1  0  0  0  0 
 15 26  1  0  0  0  0 
 26 27  1  0  0  0  0 
 27 28  1  0  0  0  0 
 27 29  1  0  0  0  0 
 27 30  1  0  0  0  0 
 30 31  1  0  0  0  0 
 30 32  1  0  0  0  0 
 30 33  1  0  0  0  0 
 33 34  1  0  0  0  0 
 34 35  1  0  0  0  0 
 34 36  1  0  0  0  0 
 34 37  1  0  0  0  0 
 26 37  1  0  0  0  0 
 37 38  1  0  0  0  0 
 37 39  1  0  0  0  0 
 33 40  1  0  0  0  0 
 40 41  2  0  0  0  0 
 40 42  1  0  0  0  0 
 42 43  1  0  0  0  0 
 42 44  1  0  0  0  0 
 44 45  1  0  0  0  0 
 44 46  1  0  0  0  0 
 44 47  1  0  0  0  0 
 47 48  1  0  0  0  0 
 47 49  1  0  0  0  0 
 47 50  1  0  0  0  0 
 50 51  1  0  0  0  0 
 50 52  1  0  0  0  0 
 50 53  1  0  0  0  0 
 42 53  1  0  0  0  0 
 33 54  1  0  0  0  0 
M  CHG  1  33   1
M  CHG  1  54  -1
M  END
> <Rank>
15

> <Priority_score>
0.18

> <Reaction_type>
N-oxidation

> <Parent_ID>
44

> <Parent_InChI>
InChI=1S/C19H25N5O4/c1-26-15-10-12-13(11-16(15)27-2)21-19(22-17(12)20)24-7-5-23(6-8-24)18(25)14-4-3-9-28-14/h10-11,14H,3-9H2,1-2H3,(H2,20,21,22)

> <Parent_SMILES>
COc1cc2nc(N3CCN(C(=O)C4CCCO4)CC3)nc(N)c2cc1OC

$$$$
Molecule 44_metabolite 19
  CDK     0516241031

 54 57  0  0  0  0  0  0  0  0999 V2000
   -5.1981   -0.7504    0.0000 C   0  0  0  0  0  0  0  0  0  0  0  0
   -6.4970   -1.5006    0.0000 H   0  0  0  0  0  0  0  0  0  0  0  0
   -4.2341    0.3988    0.0000 H   0  0  0  0  0  0  0  0  0  0  0  0
   -6.1624    0.3985    0.0000 H   0  0  0  0  0  0  0  0  0  0  0  0
   -3.8989   -1.5002    0.0000 O   0  0  0  0  0  0  0  0  0  0  0  0
   -2.6000   -0.7500    0.0000 C   0  0  0  0  0  0  0  0  0  0  0  0
   -1.3000   -1.5000    0.0000 C   0  0  0  0  0  0  0  0  0  0  0  0
   -1.3000   -3.0000    0.0000 H   0  0  0  0  0  0  0  0  0  0  0  0
    0.0000   -0.7500    0.0000 C   0  0  0  0  0  0  0  0  0  0  0  0
    1.3000   -1.5000    0.0000 C   0  0  0  0  0  0  0  0  0  0  0  0
    1.3000   -3.0000    0.0000 N   0  0  0  0  0  0  0  0  0  0  0  0
    2.5990   -3.7500    0.0000 H   0  0  0  0  0  0  0  0  0  0  0  0
    0.0010   -3.7500    0.0000 H   0  0  0  0  0  0  0  0  0  0  0  0
    2.6000   -0.7500    0.0000 N   0  0  0  0  0  0  0  0  0  0  0  0
    2.6000    0.7500    0.0000 C   0  0  0  0  0  0  0  0  0  0  0  0
    1.3000    1.5000    0.0000 N   0  0  0  0  0  0  0  0  0  0  0  0
    0.0000    0.7500    0.0000 C   0  0  0  0  0  0  0  0  0  0  0  0
   -1.3000    1.5000    0.0000 C   0  0  0  0  0  0  0  0  0  0  0  0
   -1.3000    3.0000    0.0000 H   0  0  0  0  0  0  0  0  0  0  0  0
   -2.6000    0.7500    0.0000 C   0  0  0  0  0  0  0  0  0  0  0  0
   -3.8989    1.5002    0.0000 O   0  0  0  0  0  0  0  0  0  0  0  0
   -3.8987    3.0002    0.0000 C   0  0  0  0  0  0  0  0  0  0  0  0
   -5.1976    3.7504    0.0000 H   0  0  0  0  0  0  0  0  0  0  0  0
   -2.4215    2.7395    0.0000 H   0  0  0  0  0  0  0  0  0  0  0  0
   -3.3854    4.4097    0.0000 H   0  0  0  0  0  0  0  0  0  0  0  0
    4.3146    1.7403    0.0000 N   0  0  0  0  0  0  0  0  0  0  0  0
    3.3494    2.8896    0.0000 C   0  0  0  0  0  0  0  0  0  0  0  0
    2.0503    3.6394    0.0000 H   0  0  0  0  0  0  0  0  0  0  0  0
    2.3856    1.7403    0.0000 H   0  0  0  0  0  0  0  0  0  0  0  0
    3.8624    4.2992    0.0000 C   0  0  0  0  0  0  0  0  0  0  0  0
    3.8626    5.7992    0.0000 H   0  0  0  0  0  0  0  0  0  0  0  0
    2.3852    4.5597    0.0000 H   0  0  0  0  0  0  0  0  0  0  0  0
    5.3405    4.5594    0.0000 N   0  0  0  0  0  0  0  0  0  0  0  0
    6.3056    3.4101    0.0000 C   0  0  0  0  0  0  0  0  0  0  0  0
    7.6048    2.6603    0.0000 H   0  0  0  0  0  0  0  0  0  0  0  0
    7.2695    4.5594    0.0000 H   0  0  0  0  0  0  0  0  0  0  0  0
    5.7927    2.0005    0.0000 C   0  0  0  0  0  0  0  0  0  0  0  0
    5.7924    0.5005    0.0000 H   0  0  0  0  0  0  0  0  0  0  0  0
    7.2699    1.7399    0.0000 H   0  0  0  0  0  0  0  0  0  0  0  0
    5.8534    5.9690    0.0000 C   0  0  0  0  0  0  0  0  0  0  0  0
    4.8892    7.1180    0.0000 O   0  0  0  0  0  0  0  0  0  0  0  0
    8.2760    6.3963    0.0000 C   0  0  0  0  0  0  0  0  0  0  0  0
    8.3852    4.9003    0.0000 H   0  0  0  0  0  0  0  0  0  0  0  0
    7.8679    7.8353    0.0000 C   0  0  0  0  0  0  0  0  0  0  0  0
    7.1628    9.1592    0.0000 H   0  0  0  0  0  0  0  0  0  0  0  0
    6.4766    7.2749    0.0000 H   0  0  0  0  0  0  0  0  0  0  0  0
    9.1094    8.6773    0.0000 C   0  0  0  0  0  0  0  0  0  0  0  0
   10.1492    9.7583    0.0000 H   0  0  0  0  0  0  0  0  0  0  0  0
    8.1426    9.8241    0.0000 H   0  0  0  0  0  0  0  0  0  0  0  0
   10.2871    7.7603    0.0000 C   0  0  0  0  0  0  0  0  0  0  0  0
   11.6370    7.1062    0.0000 H   0  0  0  0  0  0  0  0  0  0  0  0
   11.0793    9.0340    0.0000 H   0  0  0  0  0  0  0  0  0  0  0  0
    9.7797    6.3528    0.0000 O   0  0  0  0  0  0  0  0  0  0  0  0
    4.8275    0.3307    0.0000 O   0  0  0  0  0  0  0  0  0  0  0  0
  1  2  1  0  0  0  0 
  1  3  1  0  0  0  0 
  1  4  1  0  0  0  0 
  1  5  1  0  0  0  0 
  5  6  1  0  0  0  0 
  6  7  2  0  0  0  0 
  7  8  1  0  0  0  0 
  7  9  1  0  0  0  0 
  9 10  2  0  0  0  0 
 10 11  1  0  0  0  0 
 11 12  1  0  0  0  0 
 11 13  1  0  0  0  0 
 10 14  1  0  0  0  0 
 14 15  2  0  0  0  0 
 15 16  1  0  0  0  0 
 16 17  2  0  0  0  0 
  9 17  1  0  0  0  0 
 17 18  1  0  0  0  0 
 18 19  1  0  0  0  0 
 18 20  2  0  0  0  0 
  6 20  1  0  0  0  0 
 20 21  1  0  0  0  0 
 21 22  1  0  0  0  0 
 22 23  1  0  0  0  0 
 22 24  1  0  0  0  0 
 22 25  1  0  0  0  0 
 15 26  1  0  0  0  0 
 26 27  1  0  0  0  0 
 27 28  1  0  0  0  0 
 27 29  1  0  0  0  0 
 27 30  1  0  0  0  0 
 30 31  1  0  0  0  0 
 30 32  1  0  0  0  0 
 30 33  1  0  0  0  0 
 33 34  1  0  0  0  0 
 34 35  1  0  0  0  0 
 34 36  1  0  0  0  0 
 34 37  1  0  0  0  0 
 26 37  1  0  0  0  0 
 37 38  1  0  0  0  0 
 37 39  1  0  0  0  0 
 33 40  1  0  0  0  0 
 40 41  2  0  0  0  0 
 40 42  1  0  0  0  0 
 42 43  1  0  0  0  0 
 42 44  1  0  0  0  0 
 44 45  1  0  0  0  0 
 44 46  1  0  0  0  0 
 44 47  1  0  0  0  0 
 47 48  1  0  0  0  0 
 47 49  1  0  0  0  0 
 47 50  1  0  0  0  0 
 50 51  1  0  0  0  0 
 50 52  1  0  0  0  0 
 50 53  1  0  0  0  0 
 42 53  1  0  0  0  0 
 26 54  1  0  0  0  0 
M  CHG  1  26   1
M  CHG  1  54  -1
M  END
> <Rank>
19

> <Priority_score>
0.168

> <Reaction_type>
N-oxidation

> <Parent_ID>
44

> <Parent_InChI>
InChI=1S/C19H25N5O4/c1-26-15-10-12-13(11-16(15)27-2)21-19(22-17(12)20)24-7-5-23(6-8-24)18(25)14-4-3-9-28-14/h10-11,14H,3-9H2,1-2H3,(H2,20,21,22)

> <Parent_SMILES>
COc1cc2nc(N3CCN(C(=O)C4CCCO4)CC3)nc(N)c2cc1OC

$$$$
Molecule 44_metabolite 20
  CDK     0516241031

 54 57  0  0  0  0  0  0  0  0999 V2000
   -5.6137   -0.9905    0.0000 C   0  0  0  0  0  0  0  0  0  0  0  0
   -6.9126   -1.7407    0.0000 H   0  0  0  0  0  0  0  0  0  0  0  0
   -4.6497    0.1587    0.0000 H   0  0  0  0  0  0  0  0  0  0  0  0
   -6.5781    0.1584    0.0000 H   0  0  0  0  0  0  0  0  0  0  0  0
   -4.3146   -1.7403    0.0000 O   0  0  0  0  0  0  0  0  0  0  0  0
   -3.0157   -0.9901    0.0000 C   0  0  0  0  0  0  0  0  0  0  0  0
   -1.7157   -1.7401    0.0000 C   0  0  0  0  0  0  0  0  0  0  0  0
   -1.7157   -3.2401    0.0000 H   0  0  0  0  0  0  0  0  0  0  0  0
   -0.4157   -0.9901    0.0000 C   0  0  0  0  0  0  0  0  0  0  0  0
    0.8843   -1.7401    0.0000 C   0  0  0  0  0  0  0  0  0  0  0  0
    0.8843   -3.2401    0.0000 N   0  0  0  0  0  0  0  0  0  0  0  0
    2.1834   -3.9901    0.0000 H   0  0  0  0  0  0  0  0  0  0  0  0
   -0.4147   -3.9901    0.0000 H   0  0  0  0  0  0  0  0  0  0  0  0
    2.1843   -0.9901    0.0000 N   0  0  0  0  0  0  0  0  0  0  0  0
    2.1843    0.5099    0.0000 C   0  0  0  0  0  0  0  0  0  0  0  0
    0.8843    1.2599    0.0000 N   0  0  0  0  0  0  0  0  0  0  0  0
   -0.4157    0.5099    0.0000 C   0  0  0  0  0  0  0  0  0  0  0  0
   -1.7157    1.2599    0.0000 C   0  0  0  0  0  0  0  0  0  0  0  0
   -1.7157    2.7599    0.0000 H   0  0  0  0  0  0  0  0  0  0  0  0
   -3.0157    0.5099    0.0000 C   0  0  0  0  0  0  0  0  0  0  0  0
   -4.3146    1.2601    0.0000 O   0  0  0  0  0  0  0  0  0  0  0  0
   -4.3143    2.7601    0.0000 C   0  0  0  0  0  0  0  0  0  0  0  0
   -5.6132    3.5103    0.0000 H   0  0  0  0  0  0  0  0  0  0  0  0
   -2.8372    2.4994    0.0000 H   0  0  0  0  0  0  0  0  0  0  0  0
   -3.8011    4.1696    0.0000 H   0  0  0  0  0  0  0  0  0  0  0  0
    3.4833    1.2601    0.0000 N   0  0  0  0  0  0  0  0  0  0  0  0
    3.4825    2.7610    0.0000 C   0  0  0  0  0  0  0  0  0  0  0  0
    2.9691    4.1704    0.0000 H   0  0  0  0  0  0  0  0  0  0  0  0
    2.0054    2.4999    0.0000 H   0  0  0  0  0  0  0  0  0  0  0  0
    4.7815    3.5112    0.0000 C   0  0  0  0  0  0  0  0  0  0  0  0
    5.7457    4.6602    0.0000 H   0  0  0  0  0  0  0  0  0  0  0  0
    3.8172    4.6602    0.0000 H   0  0  0  0  0  0  0  0  0  0  0  0
    6.0811    2.7606    0.0000 N   0  0  0  0  0  0  0  0  0  0  0  0
    6.0818    1.2597    0.0000 C   0  0  0  0  0  0  0  0  0  0  0  0
    6.5952   -0.1497    0.0000 H   0  0  0  0  0  0  0  0  0  0  0  0
    4.7829    0.5095    0.0000 C   0  0  0  0  0  0  0  0  0  0  0  0
    3.8187   -0.6395    0.0000 H   0  0  0  0  0  0  0  0  0  0  0  0
    5.7471   -0.6395    0.0000 H   0  0  0  0  0  0  0  0  0  0  0  0
    7.5589    1.5207    0.0000 O   0  0  0  0  0  0  0  0  0  0  0  0
    8.5235    0.3720    0.0000 H   0  0  0  0  0  0  0  0  0  0  0  0
    7.7957    3.7508    0.0000 C   0  0  0  0  0  0  0  0  0  0  0  0
    7.7954    5.2508    0.0000 O   0  0  0  0  0  0  0  0  0  0  0  0
    9.5106    2.7611    0.0000 C   0  0  0  0  0  0  0  0  0  0  0  0
    8.6327    1.5448    0.0000 H   0  0  0  0  0  0  0  0  0  0  0  0
   10.1228    4.1258    0.0000 C   0  0  0  0  0  0  0  0  0  0  0  0
   10.4334    5.5933    0.0000 H   0  0  0  0  0  0  0  0  0  0  0  0
    8.6966    4.5908    0.0000 H   0  0  0  0  0  0  0  0  0  0  0  0
   11.6150    3.9730    0.0000 C   0  0  0  0  0  0  0  0  0  0  0  0
   13.1064    4.1329    0.0000 H   0  0  0  0  0  0  0  0  0  0  0  0
   11.6114    5.4730    0.0000 H   0  0  0  0  0  0  0  0  0  0  0  0
   11.9279    2.5136    0.0000 C   0  0  0  0  0  0  0  0  0  0  0  0
   12.5417    1.1449    0.0000 H   0  0  0  0  0  0  0  0  0  0  0  0
   13.3535    2.9803    0.0000 H   0  0  0  0  0  0  0  0  0  0  0  0
   10.6346    1.7614    0.0000 O   0  0  0  0  0  0  0  0  0  0  0  0
  1  2  1  0  0  0  0 
  1  3  1  0  0  0  0 
  1  4  1  0  0  0  0 
  1  5  1  0  0  0  0 
  5  6  1  0  0  0  0 
  6  7  2  0  0  0  0 
  7  8  1  0  0  0  0 
  7  9  1  0  0  0  0 
  9 10  2  0  0  0  0 
 10 11  1  0  0  0  0 
 11 12  1  0  0  0  0 
 11 13  1  0  0  0  0 
 10 14  1  0  0  0  0 
 14 15  2  0  0  0  0 
 15 16  1  0  0  0  0 
 16 17  2  0  0  0  0 
  9 17  1  0  0  0  0 
 17 18  1  0  0  0  0 
 18 19  1  0  0  0  0 
 18 20  2  0  0  0  0 
  6 20  1  0  0  0  0 
 20 21  1  0  0  0  0 
 21 22  1  0  0  0  0 
 22 23  1  0  0  0  0 
 22 24  1  0  0  0  0 
 22 25  1  0  0  0  0 
 15 26  1  0  0  0  0 
 26 27  1  0  0  0  0 
 27 28  1  0  0  0  0 
 27 29  1  0  0  0  0 
 27 30  1  0  0  0  0 
 30 31  1  0  0  0  0 
 30 32  1  0  0  0  0 
 30 33  1  0  0  0  0 
 33 34  1  0  0  0  0 
 34 35  1  0  0  0  0 
 34 36  1  0  0  0  0 
 26 36  1  0  0  0  0 
 36 37  1  0  0  0  0 
 36 38  1  0  0  0  0 
 34 39  1  0  0  0  0 
 39 40  1  0  0  0  0 
 33 41  1  0  0  0  0 
 41 42  2  0  0  0  0 
 41 43  1  0  0  0  0 
 43 44  1  0  0  0  0 
 43 45  1  0  0  0  0 
 45 46  1  0  0  0  0 
 45 47  1  0  0  0  0 
 45 48  1  0  0  0  0 
 48 49  1  0  0  0  0 
 48 50  1  0  0  0  0 
 48 51  1  0  0  0  0 
 51 52  1  0  0  0  0 
 51 53  1  0  0  0  0 
 51 54  1  0  0  0  0 
 43 54  1  0  0  0  0 
M  END
> <Rank>
19

> <Priority_score>
0.168

> <Reaction_type>
aliphatic_hydroxylation_(sec_carbon_next_to_SP2,in_a_ring)

> <Parent_ID>
44

> <Parent_InChI>
InChI=1S/C19H25N5O4/c1-26-15-10-12-13(11-16(15)27-2)21-19(22-17(12)20)24-7-5-23(6-8-24)18(25)14-4-3-9-28-14/h10-11,14H,3-9H2,1-2H3,(H2,20,21,22)

> <Parent_SMILES>
COc1cc2nc(N3CCN(C(=O)C4CCCO4)CC3)nc(N)c2cc1OC

$$$$
Molecule 44_metabolite 21
  CDK     0516241031

 52 55  0  0  0  0  0  0  0  0999 V2000
   -5.6135   -2.4305    0.0000 C   0  0  0  0  0  0  0  0  0  0  0  0
   -6.9124   -3.1807    0.0000 H   0  0  0  0  0  0  0  0  0  0  0  0
   -4.6495   -1.2813    0.0000 H   0  0  0  0  0  0  0  0  0  0  0  0
   -6.5779   -1.2816    0.0000 H   0  0  0  0  0  0  0  0  0  0  0  0
   -4.3143   -3.1803    0.0000 O   0  0  0  0  0  0  0  0  0  0  0  0
   -3.0154   -2.4301    0.0000 C   0  0  0  0  0  0  0  0  0  0  0  0
   -1.7154   -3.1801    0.0000 C   0  0  0  0  0  0  0  0  0  0  0  0
   -1.7154   -4.6801    0.0000 H   0  0  0  0  0  0  0  0  0  0  0  0
   -0.4154   -2.4301    0.0000 C   0  0  0  0  0  0  0  0  0  0  0  0
    0.8846   -3.1801    0.0000 C   0  0  0  0  0  0  0  0  0  0  0  0
    0.8846   -4.6801    0.0000 N   0  0  0  0  0  0  0  0  0  0  0  0
    2.1836   -5.4301    0.0000 H   0  0  0  0  0  0  0  0  0  0  0  0
   -0.4145   -5.4301    0.0000 H   0  0  0  0  0  0  0  0  0  0  0  0
    2.1846   -2.4301    0.0000 N   0  0  0  0  0  0  0  0  0  0  0  0
    2.1846   -0.9301    0.0000 C   0  0  0  0  0  0  0  0  0  0  0  0
    0.8846   -0.1801    0.0000 N   0  0  0  0  0  0  0  0  0  0  0  0
   -0.4154   -0.9301    0.0000 C   0  0  0  0  0  0  0  0  0  0  0  0
   -1.7154   -0.1801    0.0000 C   0  0  0  0  0  0  0  0  0  0  0  0
   -1.7154    1.3199    0.0000 H   0  0  0  0  0  0  0  0  0  0  0  0
   -3.0154   -0.9301    0.0000 C   0  0  0  0  0  0  0  0  0  0  0  0
   -4.3143   -0.1799    0.0000 O   0  0  0  0  0  0  0  0  0  0  0  0
   -4.3141    1.3201    0.0000 C   0  0  0  0  0  0  0  0  0  0  0  0
   -5.6130    2.0703    0.0000 H   0  0  0  0  0  0  0  0  0  0  0  0
   -2.8369    1.0594    0.0000 H   0  0  0  0  0  0  0  0  0  0  0  0
   -3.8008    2.7296    0.0000 H   0  0  0  0  0  0  0  0  0  0  0  0
    3.4835   -0.1799    0.0000 N   0  0  0  0  0  0  0  0  0  0  0  0
    3.4828    1.3210    0.0000 C   0  0  0  0  0  0  0  0  0  0  0  0
    2.9694    2.7304    0.0000 H   0  0  0  0  0  0  0  0  0  0  0  0
    2.0057    1.0599    0.0000 H   0  0  0  0  0  0  0  0  0  0  0  0
    4.7817    2.0712    0.0000 C   0  0  0  0  0  0  0  0  0  0  0  0
    5.7459    3.2202    0.0000 H   0  0  0  0  0  0  0  0  0  0  0  0
    3.8174    3.2202    0.0000 H   0  0  0  0  0  0  0  0  0  0  0  0
    6.0813    1.3206    0.0000 N   0  0  0  0  0  0  0  0  0  0  0  0
    6.0821   -0.1803    0.0000 C   0  0  0  0  0  0  0  0  0  0  0  0
    6.5955   -1.5897    0.0000 H   0  0  0  0  0  0  0  0  0  0  0  0
    7.5592    0.0807    0.0000 H   0  0  0  0  0  0  0  0  0  0  0  0
    4.7831   -0.9305    0.0000 C   0  0  0  0  0  0  0  0  0  0  0  0
    4.7831   -2.4305    0.0000 O   0  0  0  0  0  0  0  0  0  0  0  0
    7.7959    2.3108    0.0000 C   0  0  0  0  0  0  0  0  0  0  0  0
    7.7954    5.2508    0.0000 O   0  0  0  0  0  0  0  0  0  0  0  0
    9.5108    1.3211    0.0000 C   0  0  0  0  0  0  0  0  0  0  0  0
    8.6329    0.1048    0.0000 H   0  0  0  0  0  0  0  0  0  0  0  0
   10.1230    2.6858    0.0000 C   0  0  0  0  0  0  0  0  0  0  0  0
   10.4336    4.1533    0.0000 H   0  0  0  0  0  0  0  0  0  0  0  0
    8.6969    3.1508    0.0000 H   0  0  0  0  0  0  0  0  0  0  0  0
   11.6152    2.5330    0.0000 C   0  0  0  0  0  0  0  0  0  0  0  0
   13.1067    2.6929    0.0000 H   0  0  0  0  0  0  0  0  0  0  0  0
   11.6116    4.0330    0.0000 H   0  0  0  0  0  0  0  0  0  0  0  0
   11.9281    1.0736    0.0000 C   0  0  0  0  0  0  0  0  0  0  0  0
   12.5419   -0.2951    0.0000 H   0  0  0  0  0  0  0  0  0  0  0  0
   13.3537    1.5403    0.0000 H   0  0  0  0  0  0  0  0  0  0  0  0
   10.6348    0.3214    0.0000 O   0  0  0  0  0  0  0  0  0  0  0  0
  1  2  1  0  0  0  0 
  1  3  1  0  0  0  0 
  1  4  1  0  0  0  0 
  1  5  1  0  0  0  0 
  5  6  1  0  0  0  0 
  6  7  2  0  0  0  0 
  7  8  1  0  0  0  0 
  7  9  1  0  0  0  0 
  9 10  2  0  0  0  0 
 10 11  1  0  0  0  0 
 11 12  1  0  0  0  0 
 11 13  1  0  0  0  0 
 10 14  1  0  0  0  0 
 14 15  2  0  0  0  0 
 15 16  1  0  0  0  0 
 16 17  2  0  0  0  0 
  9 17  1  0  0  0  0 
 17 18  1  0  0  0  0 
 18 19  1  0  0  0  0 
 18 20  2  0  0  0  0 
  6 20  1  0  0  0  0 
 20 21  1  0  0  0  0 
 21 22  1  0  0  0  0 
 22 23  1  0  0  0  0 
 22 24  1  0  0  0  0 
 22 25  1  0  0  0  0 
 15 26  1  0  0  0  0 
 26 27  1  0  0  0  0 
 27 28  1  0  0  0  0 
 27 29  1  0  0  0  0 
 27 30  1  0  0  0  0 
 30 31  1  0  0  0  0 
 30 32  1  0  0  0  0 
 30 33  1  0  0  0  0 
 33 34  1  0  0  0  0 
 34 35  1  0  0  0  0 
 34 36  1  0  0  0  0 
 34 37  1  0  0  0  0 
 26 37  1  0  0  0  0 
 37 38  2  0  0  0  0 
 33 39  1  0  0  0  0 
 39 40  2  0  0  0  0 
 39 41  1  0  0  0  0 
 41 42  1  0  0  0  0 
 41 43  1  0  0  0  0 
 43 44  1  0  0  0  0 
 43 45  1  0  0  0  0 
 43 46  1  0  0  0  0 
 46 47  1  0  0  0  0 
 46 48  1  0  0  0  0 
 46 49  1  0  0  0  0 
 49 50  1  0  0  0  0 
 49 51  1  0  0  0  0 
 49 52  1  0  0  0  0 
 41 52  1  0  0  0  0 
M  END
> <Rank>
19

> <Priority_score>
0.168

> <Reaction_type>
oxidation_(amine_in_a_ring)

> <Parent_ID>
44

> <Parent_InChI>
InChI=1S/C19H25N5O4/c1-26-15-10-12-13(11-16(15)27-2)21-19(22-17(12)20)24-7-5-23(6-8-24)18(25)14-4-3-9-28-14/h10-11,14H,3-9H2,1-2H3,(H2,20,21,22)

> <Parent_SMILES>
COc1cc2nc(N3CCN(C(=O)C4CCCO4)CC3)nc(N)c2cc1OC

$$$$
Molecule 44_metabolite 22
  CDK     0516241031

 51 54  0  0  0  0  0  0  0  0999 V2000
   -5.1981   -0.7504    0.0000 C   0  0  0  0  0  0  0  0  0  0  0  0
   -6.4970   -1.5006    0.0000 H   0  0  0  0  0  0  0  0  0  0  0  0
   -4.2341    0.3988    0.0000 H   0  0  0  0  0  0  0  0  0  0  0  0
   -6.1624    0.3985    0.0000 H   0  0  0  0  0  0  0  0  0  0  0  0
   -3.8989   -1.5002    0.0000 O   0  0  0  0  0  0  0  0  0  0  0  0
   -2.6000   -0.7500    0.0000 C   0  0  0  0  0  0  0  0  0  0  0  0
   -1.3000   -1.5000    0.0000 C   0  0  0  0  0  0  0  0  0  0  0  0
   -1.3000   -3.0000    0.0000 H   0  0  0  0  0  0  0  0  0  0  0  0
    0.0000   -0.7500    0.0000 C   0  0  0  0  0  0  0  0  0  0  0  0
    1.3000   -1.5000    0.0000 C   0  0  0  0  0  0  0  0  0  0  0  0
    1.3000   -3.0000    0.0000 N   0  0  0  0  0  0  0  0  0  0  0  0
    2.5990   -3.7500    0.0000 H   0  0  0  0  0  0  0  0  0  0  0  0
    0.0010   -3.7500    0.0000 H   0  0  0  0  0  0  0  0  0  0  0  0
    2.6000   -0.7500    0.0000 N   0  0  0  0  0  0  0  0  0  0  0  0
    2.6000    0.7500    0.0000 C   0  0  0  0  0  0  0  0  0  0  0  0
    1.3000    1.5000    0.0000 N   0  0  0  0  0  0  0  0  0  0  0  0
    0.0000    0.7500    0.0000 C   0  0  0  0  0  0  0  0  0  0  0  0
   -1.3000    1.5000    0.0000 C   0  0  0  0  0  0  0  0  0  0  0  0
   -1.3000    3.0000    0.0000 H   0  0  0  0  0  0  0  0  0  0  0  0
   -2.6000    0.7500    0.0000 C   0  0  0  0  0  0  0  0  0  0  0  0
   -3.8989    1.5002    0.0000 O   0  0  0  0  0  0  0  0  0  0  0  0
   -3.8987    3.0002    0.0000 C   0  0  0  0  0  0  0  0  0  0  0  0
   -5.1976    3.7504    0.0000 H   0  0  0  0  0  0  0  0  0  0  0  0
   -2.4215    2.7395    0.0000 H   0  0  0  0  0  0  0  0  0  0  0  0
   -3.3854    4.4097    0.0000 H   0  0  0  0  0  0  0  0  0  0  0  0
    3.8989    1.5002    0.0000 N   0  0  0  0  0  0  0  0  0  0  0  0
    5.1989    0.7502    0.0000 C   0  0  0  0  0  0  0  0  0  0  0  0
    5.1989   -0.7498    0.0000 H   0  0  0  0  0  0  0  0  0  0  0  0
    6.4989    1.5002    0.0000 C   0  0  0  0  0  0  0  0  0  0  0  0
    7.7978    0.7500    0.0000 H   0  0  0  0  0  0  0  0  0  0  0  0
    6.4989    3.0002    0.0000 N   0  0  0  0  0  0  0  0  0  0  0  0
    5.1989    3.7502    0.0000 C   0  0  0  0  0  0  0  0  0  0  0  0
    6.1630    4.8994    0.0000 H   0  0  0  0  0  0  0  0  0  0  0  0
    4.2349    4.8994    0.0000 H   0  0  0  0  0  0  0  0  0  0  0  0
    3.8989    3.0002    0.0000 C   0  0  0  0  0  0  0  0  0  0  0  0
    3.3862    4.4099    0.0000 H   0  0  0  0  0  0  0  0  0  0  0  0
    2.4217    2.7399    0.0000 H   0  0  0  0  0  0  0  0  0  0  0  0
    7.7978    3.7504    0.0000 C   0  0  0  0  0  0  0  0  0  0  0  0
    7.7976    5.2504    0.0000 O   0  0  0  0  0  0  0  0  0  0  0  0
    9.5127    2.7607    0.0000 C   0  0  0  0  0  0  0  0  0  0  0  0
    8.6348    1.5444    0.0000 H   0  0  0  0  0  0  0  0  0  0  0  0
   10.1249    4.1254    0.0000 C   0  0  0  0  0  0  0  0  0  0  0  0
   10.4356    5.5929    0.0000 H   0  0  0  0  0  0  0  0  0  0  0  0
    8.6988    4.5904    0.0000 H   0  0  0  0  0  0  0  0  0  0  0  0
   11.6171    3.9726    0.0000 C   0  0  0  0  0  0  0  0  0  0  0  0
   13.1086    4.1325    0.0000 H   0  0  0  0  0  0  0  0  0  0  0  0
   11.6136    5.4726    0.0000 H   0  0  0  0  0  0  0  0  0  0  0  0
   11.9301    2.5131    0.0000 C   0  0  0  0  0  0  0  0  0  0  0  0
   12.5439    1.1445    0.0000 H   0  0  0  0  0  0  0  0  0  0  0  0
   13.3556    2.9799    0.0000 H   0  0  0  0  0  0  0  0  0  0  0  0
   10.6367    1.7610    0.0000 O   0  0  0  0  0  0  0  0  0  0  0  0
  1  2  1  0  0  0  0 
  1  3  1  0  0  0  0 
  1  4  1  0  0  0  0 
  1  5  1  0  0  0  0 
  5  6  1  0  0  0  0 
  6  7  2  0  0  0  0 
  7  8  1  0  0  0  0 
  7  9  1  0  0  0  0 
  9 10  2  0  0  0  0 
 10 11  1  0  0  0  0 
 11 12  1  0  0  0  0 
 11 13  1  0  0  0  0 
 10 14  1  0  0  0  0 
 14 15  2  0  0  0  0 
 15 16  1  0  0  0  0 
 16 17  2  0  0  0  0 
  9 17  1  0  0  0  0 
 17 18  1  0  0  0  0 
 18 19  1  0  0  0  0 
 18 20  2  0  0  0  0 
  6 20  1  0  0  0  0 
 20 21  1  0  0  0  0 
 21 22  1  0  0  0  0 
 22 23  1  0  0  0  0 
 22 24  1  0  0  0  0 
 22 25  1  0  0  0  0 
 15 26  1  0  0  0  0 
 26 27  1  0  0  0  0 
 27 28  1  0  0  0  0 
 27 29  2  0  0  0  0 
 29 30  1  0  0  0  0 
 29 31  1  0  0  0  0 
 31 32  1  0  0  0  0 
 32 33  1  0  0  0  0 
 32 34  1  0  0  0  0 
 32 35  1  0  0  0  0 
 26 35  1  0  0  0  0 
 35 36  1  0  0  0  0 
 35 37  1  0  0  0  0 
 31 38  1  0  0  0  0 
 38 39  2  0  0  0  0 
 38 40  1  0  0  0  0 
 40 41  1  0  0  0  0 
 40 42  1  0  0  0  0 
 42 43  1  0  0  0  0 
 42 44  1  0  0  0  0 
 42 45  1  0  0  0  0 
 45 46  1  0  0  0  0 
 45 47  1  0  0  0  0 
 45 48  1  0  0  0  0 
 48 49  1  0  0  0  0 
 48 50  1  0  0  0  0 
 48 51  1  0  0  0  0 
 40 51  1  0  0  0  0 
M  END
> <Rank>
19

> <Priority_score>
0.168

> <Reaction_type>
dehydrogenation_(alpha,beta_to_SP2_both_sides)

> <Parent_ID>
44

> <Parent_InChI>
InChI=1S/C19H25N5O4/c1-26-15-10-12-13(11-16(15)27-2)21-19(22-17(12)20)24-7-5-23(6-8-24)18(25)14-4-3-9-28-14/h10-11,14H,3-9H2,1-2H3,(H2,20,21,22)

> <Parent_SMILES>
COc1cc2nc(N3CCN(C(=O)C4CCCO4)CC3)nc(N)c2cc1OC

$$$$
Molecule 44_metabolite 23
  CDK     0516241031

 52 55  0  0  0  0  0  0  0  0999 V2000
   -5.1981   -0.7504    0.0000 C   0  0  0  0  0  0  0  0  0  0  0  0
   -6.4970   -1.5006    0.0000 H   0  0  0  0  0  0  0  0  0  0  0  0
   -4.2341    0.3988    0.0000 H   0  0  0  0  0  0  0  0  0  0  0  0
   -6.1624    0.3985    0.0000 H   0  0  0  0  0  0  0  0  0  0  0  0
   -3.8989   -1.5002    0.0000 O   0  0  0  0  0  0  0  0  0  0  0  0
   -2.6000   -0.7500    0.0000 C   0  0  0  0  0  0  0  0  0  0  0  0
   -1.3000   -1.5000    0.0000 C   0  0  0  0  0  0  0  0  0  0  0  0
   -1.3000   -3.0000    0.0000 H   0  0  0  0  0  0  0  0  0  0  0  0
    0.0000   -0.7500    0.0000 C   0  0  0  0  0  0  0  0  0  0  0  0
    1.3000   -1.5000    0.0000 C   0  0  0  0  0  0  0  0  0  0  0  0
    1.3000   -3.0000    0.0000 N   0  0  0  0  0  0  0  0  0  0  0  0
    2.5990   -3.7500    0.0000 H   0  0  0  0  0  0  0  0  0  0  0  0
    0.0010   -3.7500    0.0000 H   0  0  0  0  0  0  0  0  0  0  0  0
    2.6000   -0.7500    0.0000 N   0  0  0  0  0  0  0  0  0  0  0  0
    2.6000    0.7500    0.0000 C   0  0  0  0  0  0  0  0  0  0  0  0
    1.3000    1.5000    0.0000 N   0  0  0  0  0  0  0  0  0  0  0  0
    0.0000    0.7500    0.0000 C   0  0  0  0  0  0  0  0  0  0  0  0
   -1.3000    1.5000    0.0000 C   0  0  0  0  0  0  0  0  0  0  0  0
   -1.3000    3.0000    0.0000 H   0  0  0  0  0  0  0  0  0  0  0  0
   -2.6000    0.7500    0.0000 C   0  0  0  0  0  0  0  0  0  0  0  0
   -3.8989    1.5002    0.0000 O   0  0  0  0  0  0  0  0  0  0  0  0
   -3.8987    3.0002    0.0000 C   0  0  0  0  0  0  0  0  0  0  0  0
   -5.1976    3.7504    0.0000 H   0  0  0  0  0  0  0  0  0  0  0  0
   -2.4215    2.7395    0.0000 H   0  0  0  0  0  0  0  0  0  0  0  0
   -3.3854    4.4097    0.0000 H   0  0  0  0  0  0  0  0  0  0  0  0
    3.8989    1.5002    0.0000 N   0  0  0  0  0  0  0  0  0  0  0  0
    3.8982    3.0010    0.0000 C   0  0  0  0  0  0  0  0  0  0  0  0
    3.3848    4.4104    0.0000 H   0  0  0  0  0  0  0  0  0  0  0  0
    2.4211    2.7400    0.0000 H   0  0  0  0  0  0  0  0  0  0  0  0
    5.1971    3.7512    0.0000 C   0  0  0  0  0  0  0  0  0  0  0  0
    6.1614    4.9003    0.0000 H   0  0  0  0  0  0  0  0  0  0  0  0
    4.2329    4.9003    0.0000 H   0  0  0  0  0  0  0  0  0  0  0  0
    6.4968    3.0006    0.0000 N   0  0  0  0  0  0  0  0  0  0  0  0
    6.4975    1.4998    0.0000 C   0  0  0  0  0  0  0  0  0  0  0  0
    7.7968    0.7502    0.0000 O   0  0  0  0  0  0  0  0  0  0  0  0
    5.1986    0.7496    0.0000 C   0  0  0  0  0  0  0  0  0  0  0  0
    4.2343   -0.3994    0.0000 H   0  0  0  0  0  0  0  0  0  0  0  0
    6.1628   -0.3994    0.0000 H   0  0  0  0  0  0  0  0  0  0  0  0
    7.7957    3.7508    0.0000 C   0  0  0  0  0  0  0  0  0  0  0  0
    7.7954    5.2508    0.0000 O   0  0  0  0  0  0  0  0  0  0  0  0
    9.5106    2.7611    0.0000 C   0  0  0  0  0  0  0  0  0  0  0  0
    8.6327    1.5448    0.0000 H   0  0  0  0  0  0  0  0  0  0  0  0
   10.1228    4.1258    0.0000 C   0  0  0  0  0  0  0  0  0  0  0  0
   10.4334    5.5933    0.0000 H   0  0  0  0  0  0  0  0  0  0  0  0
    8.6966    4.5908    0.0000 H   0  0  0  0  0  0  0  0  0  0  0  0
   11.6150    3.9730    0.0000 C   0  0  0  0  0  0  0  0  0  0  0  0
   13.1064    4.1329    0.0000 H   0  0  0  0  0  0  0  0  0  0  0  0
   11.6114    5.4730    0.0000 H   0  0  0  0  0  0  0  0  0  0  0  0
   11.9279    2.5136    0.0000 C   0  0  0  0  0  0  0  0  0  0  0  0
   12.5417    1.1449    0.0000 H   0  0  0  0  0  0  0  0  0  0  0  0
   13.3535    2.9803    0.0000 H   0  0  0  0  0  0  0  0  0  0  0  0
   10.6346    1.7614    0.0000 O   0  0  0  0  0  0  0  0  0  0  0  0
  1  2  1  0  0  0  0 
  1  3  1  0  0  0  0 
  1  4  1  0  0  0  0 
  1  5  1  0  0  0  0 
  5  6  1  0  0  0  0 
  6  7  2  0  0  0  0 
  7  8  1  0  0  0  0 
  7  9  1  0  0  0  0 
  9 10  2  0  0  0  0 
 10 11  1  0  0  0  0 
 11 12  1  0  0  0  0 
 11 13  1  0  0  0  0 
 10 14  1  0  0  0  0 
 14 15  2  0  0  0  0 
 15 16  1  0  0  0  0 
 16 17  2  0  0  0  0 
  9 17  1  0  0  0  0 
 17 18  1  0  0  0  0 
 18 19  1  0  0  0  0 
 18 20  2  0  0  0  0 
  6 20  1  0  0  0  0 
 20 21  1  0  0  0  0 
 21 22  1  0  0  0  0 
 22 23  1  0  0  0  0 
 22 24  1  0  0  0  0 
 22 25  1  0  0  0  0 
 15 26  1  0  0  0  0 
 26 27  1  0  0  0  0 
 27 28  1  0  0  0  0 
 27 29  1  0  0  0  0 
 27 30  1  0  0  0  0 
 30 31  1  0  0  0  0 
 30 32  1  0  0  0  0 
 30 33  1  0  0  0  0 
 33 34  1  0  0  0  0 
 34 35  2  0  0  0  0 
 34 36  1  0  0  0  0 
 26 36  1  0  0  0  0 
 36 37  1  0  0  0  0 
 36 38  1  0  0  0  0 
 33 39  1  0  0  0  0 
 39 40  2  0  0  0  0 
 39 41  1  0  0  0  0 
 41 42  1  0  0  0  0 
 41 43  1  0  0  0  0 
 43 44  1  0  0  0  0 
 43 45  1  0  0  0  0 
 43 46  1  0  0  0  0 
 46 47  1  0  0  0  0 
 46 48  1  0  0  0  0 
 46 49  1  0  0  0  0 
 49 50  1  0  0  0  0 
 49 51  1  0  0  0  0 
 49 52  1  0  0  0  0 
 41 52  1  0  0  0  0 
M  END
> <Rank>
19

> <Priority_score>
0.168

> <Reaction_type>
oxidation_(amine_in_a_ring)

> <Parent_ID>
44

> <Parent_InChI>
InChI=1S/C19H25N5O4/c1-26-15-10-12-13(11-16(15)27-2)21-19(22-17(12)20)24-7-5-23(6-8-24)18(25)14-4-3-9-28-14/h10-11,14H,3-9H2,1-2H3,(H2,20,21,22)

> <Parent_SMILES>
COc1cc2nc(N3CCN(C(=O)C4CCCO4)CC3)nc(N)c2cc1OC

$$$$
Molecule 44_metabolite 24
  CDK     0516241031

 54 56  0  0  0  0  0  0  0  0999 V2000
    3.8947   10.5033    0.0000 C   0  0  0  0  0  0  0  0  0  0  0  0
    3.8945   12.0033    0.0000 H   0  0  0  0  0  0  0  0  0  0  0  0
    4.4080    9.0939    0.0000 H   0  0  0  0  0  0  0  0  0  0  0  0
    5.3719   10.7640    0.0000 H   0  0  0  0  0  0  0  0  0  0  0  0
    2.5958    9.7531    0.0000 O   0  0  0  0  0  0  0  0  0  0  0  0
    2.5960    8.2531    0.0000 C   0  0  0  0  0  0  0  0  0  0  0  0
    3.8958    7.5027    0.0000 C   0  0  0  0  0  0  0  0  0  0  0  0
    5.1946    8.2531    0.0000 H   0  0  0  0  0  0  0  0  0  0  0  0
    3.8968    6.0019    0.0000 C   0  0  0  0  0  0  0  0  0  0  0  0
    5.1965    5.2515    0.0000 C   0  0  0  0  0  0  0  0  0  0  0  0
    6.4953    6.0019    0.0000 N   0  0  0  0  0  0  0  0  0  0  0  0
    7.7946    5.2523    0.0000 H   0  0  0  0  0  0  0  0  0  0  0  0
    6.4948    7.5019    0.0000 H   0  0  0  0  0  0  0  0  0  0  0  0
    5.1975    3.7506    0.0000 N   0  0  0  0  0  0  0  0  0  0  0  0
    3.8987    3.0002    0.0000 C   0  0  0  0  0  0  0  0  0  0  0  0
    3.8989    1.5002    0.0000 N   0  0  0  0  0  0  0  0  0  0  0  0
    2.6000    0.7500    0.0000 H   0  0  0  0  0  0  0  0  0  0  0  0
    5.1981    0.7504    0.0000 C   0  0  0  0  0  0  0  0  0  0  0  0
    5.7109    2.1600    0.0000 H   0  0  0  0  0  0  0  0  0  0  0  0
    6.6753    0.4902    0.0000 H   0  0  0  0  0  0  0  0  0  0  0  0
    5.1983   -0.7496    0.0000 C   0  0  0  0  0  0  0  0  0  0  0  0
    4.6855   -2.1592    0.0000 H   0  0  0  0  0  0  0  0  0  0  0  0
    3.7211   -0.4893    0.0000 H   0  0  0  0  0  0  0  0  0  0  0  0
    6.4975   -1.4994    0.0000 N   0  0  0  0  0  0  0  0  0  0  0  0
    6.4978   -3.4794    0.0000 C   0  0  0  0  0  0  0  0  0  0  0  0
    5.9850   -4.8890    0.0000 H   0  0  0  0  0  0  0  0  0  0  0  0
    5.0205   -3.2191    0.0000 H   0  0  0  0  0  0  0  0  0  0  0  0
    7.7970   -4.2292    0.0000 C   0  0  0  0  0  0  0  0  0  0  0  0
    7.7972   -5.7292    0.0000 H   0  0  0  0  0  0  0  0  0  0  0  0
    9.0959   -3.4790    0.0000 O   0  0  0  0  0  0  0  0  0  0  0  0
    7.7964   -0.7492    0.0000 C   0  0  0  0  0  0  0  0  0  0  0  0
    7.7961    1.2308    0.0000 O   0  0  0  0  0  0  0  0  0  0  0  0
    9.0956   -1.4990    0.0000 C   0  0  0  0  0  0  0  0  0  0  0  0
    8.2177   -2.7152    0.0000 H   0  0  0  0  0  0  0  0  0  0  0  0
    9.7078   -0.1342    0.0000 C   0  0  0  0  0  0  0  0  0  0  0  0
   10.0184    1.3333    0.0000 H   0  0  0  0  0  0  0  0  0  0  0  0
    8.2816    0.3307    0.0000 H   0  0  0  0  0  0  0  0  0  0  0  0
   11.2000   -0.2870    0.0000 C   0  0  0  0  0  0  0  0  0  0  0  0
   12.6914   -0.1271    0.0000 H   0  0  0  0  0  0  0  0  0  0  0  0
   11.1964    1.2130    0.0000 H   0  0  0  0  0  0  0  0  0  0  0  0
   11.5129   -1.7465    0.0000 C   0  0  0  0  0  0  0  0  0  0  0  0
   12.1267   -3.1152    0.0000 H   0  0  0  0  0  0  0  0  0  0  0  0
   12.9385   -1.2798    0.0000 H   0  0  0  0  0  0  0  0  0  0  0  0
   10.2196   -2.4987    0.0000 O   0  0  0  0  0  0  0  0  0  0  0  0
    2.5989    3.7506    0.0000 N   0  0  0  0  0  0  0  0  0  0  0  0
    2.5980    5.2515    0.0000 C   0  0  0  0  0  0  0  0  0  0  0  0
    1.2982    6.0019    0.0000 C   0  0  0  0  0  0  0  0  0  0  0  0
   -0.0006    5.2515    0.0000 H   0  0  0  0  0  0  0  0  0  0  0  0
    1.2972    7.5027    0.0000 C   0  0  0  0  0  0  0  0  0  0  0  0
   -0.0022    8.2521    0.0000 O   0  0  0  0  0  0  0  0  0  0  0  0
   -0.0029    9.7521    0.0000 C   0  0  0  0  0  0  0  0  0  0  0  0
    1.2958   10.5027    0.0000 H   0  0  0  0  0  0  0  0  0  0  0  0
   -0.5166   11.1614    0.0000 H   0  0  0  0  0  0  0  0  0  0  0  0
   -1.4800    9.4909    0.0000 H   0  0  0  0  0  0  0  0  0  0  0  0
  1  2  1  0  0  0  0 
  1  3  1  0  0  0  0 
  1  4  1  0  0  0  0 
  1  5  1  0  0  0  0 
  5  6  1  0  0  0  0 
  6  7  2  0  0  0  0 
  7  8  1  0  0  0  0 
  7  9  1  0  0  0  0 
  9 10  2  0  0  0  0 
 10 11  1  0  0  0  0 
 11 12  1  0  0  0  0 
 11 13  1  0  0  0  0 
 10 14  1  0  0  0  0 
 14 15  2  0  0  0  0 
 15 16  1  0  0  0  0 
 16 17  1  0  0  0  0 
 16 18  1  0  0  0  0 
 18 19  1  0  0  0  0 
 18 20  1  0  0  0  0 
 18 21  1  0  0  0  0 
 21 22  1  0  0  0  0 
 21 23  1  0  0  0  0 
 21 24  1  0  0  0  0 
 24 25  1  0  0  0  0 
 25 26  1  0  0  0  0 
 25 27  1  0  0  0  0 
 25 28  1  0  0  0  0 
 28 29  1  0  0  0  0 
 28 30  2  0  0  0  0 
 24 31  1  0  0  0  0 
 31 32  2  0  0  0  0 
 31 33  1  0  0  0  0 
 33 34  1  0  0  0  0 
 33 35  1  0  0  0  0 
 35 36  1  0  0  0  0 
 35 37  1  0  0  0  0 
 35 38  1  0  0  0  0 
 38 39  1  0  0  0  0 
 38 40  1  0  0  0  0 
 38 41  1  0  0  0  0 
 41 42  1  0  0  0  0 
 41 43  1  0  0  0  0 
 41 44  1  0  0  0  0 
 33 44  1  0  0  0  0 
 15 45  1  0  0  0  0 
 45 46  2  0  0  0  0 
  9 46  1  0  0  0  0 
 46 47  1  0  0  0  0 
 47 48  1  0  0  0  0 
 47 49  2  0  0  0  0 
  6 49  1  0  0  0  0 
 49 50  1  0  0  0  0 
 50 51  1  0  0  0  0 
 51 52  1  0  0  0  0 
 51 53  1  0  0  0  0 
 51 54  1  0  0  0  0 
M  END
> <Rank>
19

> <Priority_score>
0.168

> <Reaction_type>
N-dealkylation

> <Parent_ID>
44

> <Parent_InChI>
InChI=1S/C19H25N5O4/c1-26-15-10-12-13(11-16(15)27-2)21-19(22-17(12)20)24-7-5-23(6-8-24)18(25)14-4-3-9-28-14/h10-11,14H,3-9H2,1-2H3,(H2,20,21,22)

> <Parent_SMILES>
COc1cc2nc(N3CCN(C(=O)C4CCCO4)CC3)nc(N)c2cc1OC

$$$$
Molecule 44_metabolite 25
  CDK     0516241031

 54 57  0  0  0  0  0  0  0  0999 V2000
   -5.6135   -2.4305    0.0000 C   0  0  0  0  0  0  0  0  0  0  0  0
   -6.9124   -3.1807    0.0000 H   0  0  0  0  0  0  0  0  0  0  0  0
   -4.6495   -1.2813    0.0000 H   0  0  0  0  0  0  0  0  0  0  0  0
   -6.5779   -1.2816    0.0000 H   0  0  0  0  0  0  0  0  0  0  0  0
   -4.3143   -3.1803    0.0000 O   0  0  0  0  0  0  0  0  0  0  0  0
   -3.0154   -2.4301    0.0000 C   0  0  0  0  0  0  0  0  0  0  0  0
   -1.7154   -3.1801    0.0000 C   0  0  0  0  0  0  0  0  0  0  0  0
   -1.7154   -4.6801    0.0000 H   0  0  0  0  0  0  0  0  0  0  0  0
   -0.4154   -2.4301    0.0000 C   0  0  0  0  0  0  0  0  0  0  0  0
    0.8846   -3.1801    0.0000 C   0  0  0  0  0  0  0  0  0  0  0  0
    0.8846   -4.6801    0.0000 N   0  0  0  0  0  0  0  0  0  0  0  0
    2.1836   -5.4301    0.0000 H   0  0  0  0  0  0  0  0  0  0  0  0
   -0.4145   -5.4301    0.0000 H   0  0  0  0  0  0  0  0  0  0  0  0
    2.1846   -2.4301    0.0000 N   0  0  0  0  0  0  0  0  0  0  0  0
    2.1846   -0.9301    0.0000 C   0  0  0  0  0  0  0  0  0  0  0  0
    0.8846   -0.1801    0.0000 N   0  0  0  0  0  0  0  0  0  0  0  0
   -0.4154   -0.9301    0.0000 C   0  0  0  0  0  0  0  0  0  0  0  0
   -1.7154   -0.1801    0.0000 C   0  0  0  0  0  0  0  0  0  0  0  0
   -1.7154    1.3199    0.0000 H   0  0  0  0  0  0  0  0  0  0  0  0
   -3.0154   -0.9301    0.0000 C   0  0  0  0  0  0  0  0  0  0  0  0
   -4.3143   -0.1799    0.0000 O   0  0  0  0  0  0  0  0  0  0  0  0
   -4.3141    1.3201    0.0000 C   0  0  0  0  0  0  0  0  0  0  0  0
   -5.6130    2.0703    0.0000 H   0  0  0  0  0  0  0  0  0  0  0  0
   -2.8369    1.0594    0.0000 H   0  0  0  0  0  0  0  0  0  0  0  0
   -3.8008    2.7296    0.0000 H   0  0  0  0  0  0  0  0  0  0  0  0
    3.4835   -0.1799    0.0000 N   0  0  0  0  0  0  0  0  0  0  0  0
    3.4828    1.3210    0.0000 C   0  0  0  0  0  0  0  0  0  0  0  0
    2.9694    2.7304    0.0000 H   0  0  0  0  0  0  0  0  0  0  0  0
    2.0057    1.0599    0.0000 H   0  0  0  0  0  0  0  0  0  0  0  0
    4.7817    2.0712    0.0000 C   0  0  0  0  0  0  0  0  0  0  0  0
    5.7459    3.2202    0.0000 H   0  0  0  0  0  0  0  0  0  0  0  0
    3.8174    3.2202    0.0000 H   0  0  0  0  0  0  0  0  0  0  0  0
    6.0813    1.3206    0.0000 N   0  0  0  0  0  0  0  0  0  0  0  0
    6.0821   -0.1803    0.0000 C   0  0  0  0  0  0  0  0  0  0  0  0
    6.5955   -1.5897    0.0000 H   0  0  0  0  0  0  0  0  0  0  0  0
    7.5592    0.0807    0.0000 H   0  0  0  0  0  0  0  0  0  0  0  0
    4.7831   -0.9305    0.0000 C   0  0  0  0  0  0  0  0  0  0  0  0
    3.8189   -2.0795    0.0000 H   0  0  0  0  0  0  0  0  0  0  0  0
    5.7474   -2.0795    0.0000 O   0  0  0  0  0  0  0  0  0  0  0  0
    5.2344   -3.4891    0.0000 H   0  0  0  0  0  0  0  0  0  0  0  0
    7.7959    2.3108    0.0000 C   0  0  0  0  0  0  0  0  0  0  0  0
    7.7954    5.2508    0.0000 O   0  0  0  0  0  0  0  0  0  0  0  0
    9.5108    1.3211    0.0000 C   0  0  0  0  0  0  0  0  0  0  0  0
    8.6329    0.1048    0.0000 H   0  0  0  0  0  0  0  0  0  0  0  0
   10.1230    2.6858    0.0000 C   0  0  0  0  0  0  0  0  0  0  0  0
   10.4336    4.1533    0.0000 H   0  0  0  0  0  0  0  0  0  0  0  0
    8.6969    3.1508    0.0000 H   0  0  0  0  0  0  0  0  0  0  0  0
   11.6152    2.5330    0.0000 C   0  0  0  0  0  0  0  0  0  0  0  0
   13.1067    2.6929    0.0000 H   0  0  0  0  0  0  0  0  0  0  0  0
   11.6116    4.0330    0.0000 H   0  0  0  0  0  0  0  0  0  0  0  0
   11.9281    1.0736    0.0000 C   0  0  0  0  0  0  0  0  0  0  0  0
   12.5419   -0.2951    0.0000 H   0  0  0  0  0  0  0  0  0  0  0  0
   13.3537    1.5403    0.0000 H   0  0  0  0  0  0  0  0  0  0  0  0
   10.6348    0.3214    0.0000 O   0  0  0  0  0  0  0  0  0  0  0  0
  1  2  1  0  0  0  0 
  1  3  1  0  0  0  0 
  1  4  1  0  0  0  0 
  1  5  1  0  0  0  0 
  5  6  1  0  0  0  0 
  6  7  2  0  0  0  0 
  7  8  1  0  0  0  0 
  7  9  1  0  0  0  0 
  9 10  2  0  0  0  0 
 10 11  1  0  0  0  0 
 11 12  1  0  0  0  0 
 11 13  1  0  0  0  0 
 10 14  1  0  0  0  0 
 14 15  2  0  0  0  0 
 15 16  1  0  0  0  0 
 16 17  2  0  0  0  0 
  9 17  1  0  0  0  0 
 17 18  1  0  0  0  0 
 18 19  1  0  0  0  0 
 18 20  2  0  0  0  0 
  6 20  1  0  0  0  0 
 20 21  1  0  0  0  0 
 21 22  1  0  0  0  0 
 22 23  1  0  0  0  0 
 22 24  1  0  0  0  0 
 22 25  1  0  0  0  0 
 15 26  1  0  0  0  0 
 26 27  1  0  0  0  0 
 27 28  1  0  0  0  0 
 27 29  1  0  0  0  0 
 27 30  1  0  0  0  0 
 30 31  1  0  0  0  0 
 30 32  1  0  0  0  0 
 30 33  1  0  0  0  0 
 33 34  1  0  0  0  0 
 34 35  1  0  0  0  0 
 34 36  1  0  0  0  0 
 34 37  1  0  0  0  0 
 26 37  1  0  0  0  0 
 37 38  1  0  0  0  0 
 37 39  1  0  0  0  0 
 39 40  1  0  0  0  0 
 33 41  1  0  0  0  0 
 41 42  2  0  0  0  0 
 41 43  1  0  0  0  0 
 43 44  1  0  0  0  0 
 43 45  1  0  0  0  0 
 45 46  1  0  0  0  0 
 45 47  1  0  0  0  0 
 45 48  1  0  0  0  0 
 48 49  1  0  0  0  0 
 48 50  1  0  0  0  0 
 48 51  1  0  0  0  0 
 51 52  1  0  0  0  0 
 51 53  1  0  0  0  0 
 51 54  1  0  0  0  0 
 43 54  1  0  0  0  0 
M  END
> <Rank>
19

> <Priority_score>
0.168

> <Reaction_type>
aliphatic_hydroxylation_(sec_carbon_next_to_SP2,in_a_ring)

> <Parent_ID>
44

> <Parent_InChI>
InChI=1S/C19H25N5O4/c1-26-15-10-12-13(11-16(15)27-2)21-19(22-17(12)20)24-7-5-23(6-8-24)18(25)14-4-3-9-28-14/h10-11,14H,3-9H2,1-2H3,(H2,20,21,22)

> <Parent_SMILES>
COc1cc2nc(N3CCN(C(=O)C4CCCO4)CC3)nc(N)c2cc1OC

$$$$
Molecule 44_metabolite 26
  CDK     0516241031

 27 28  0  0  0  0  0  0  0  0999 V2000
   -5.1981   -0.7504    0.0000 C   0  0  0  0  0  0  0  0  0  0  0  0
   -6.4970   -1.5006    0.0000 H   0  0  0  0  0  0  0  0  0  0  0  0
   -4.2341    0.3988    0.0000 H   0  0  0  0  0  0  0  0  0  0  0  0
   -6.1624    0.3985    0.0000 H   0  0  0  0  0  0  0  0  0  0  0  0
   -3.8989   -1.5002    0.0000 O   0  0  0  0  0  0  0  0  0  0  0  0
   -2.6000   -0.7500    0.0000 C   0  0  0  0  0  0  0  0  0  0  0  0
   -1.3000   -1.5000    0.0000 C   0  0  0  0  0  0  0  0  0  0  0  0
   -1.3000   -3.0000    0.0000 H   0  0  0  0  0  0  0  0  0  0  0  0
    0.0000   -0.7500    0.0000 C   0  0  0  0  0  0  0  0  0  0  0  0
    1.3000   -1.5000    0.0000 C   0  0  0  0  0  0  0  0  0  0  0  0
    1.3000   -3.0000    0.0000 N   0  0  0  0  0  0  0  0  0  0  0  0
    2.5990   -3.7500    0.0000 H   0  0  0  0  0  0  0  0  0  0  0  0
    0.0010   -3.7500    0.0000 H   0  0  0  0  0  0  0  0  0  0  0  0
    2.6000   -0.7500    0.0000 N   0  0  0  0  0  0  0  0  0  0  0  0
    3.8989   -1.5002    0.0000 H   0  0  0  0  0  0  0  0  0  0  0  0
    2.6000    0.7500    0.0000 C   0  0  0  0  0  0  0  0  0  0  0  0
    3.8989    1.5002    0.0000 O   0  0  0  0  0  0  0  0  0  0  0  0
    1.3000    1.5000    0.0000 N   0  0  0  0  0  0  0  0  0  0  0  0
    0.0000    0.7500    0.0000 C   0  0  0  0  0  0  0  0  0  0  0  0
   -1.3000    1.5000    0.0000 C   0  0  0  0  0  0  0  0  0  0  0  0
   -1.3000    3.0000    0.0000 H   0  0  0  0  0  0  0  0  0  0  0  0
   -2.6000    0.7500    0.0000 C   0  0  0  0  0  0  0  0  0  0  0  0
   -3.8989    1.5002    0.0000 O   0  0  0  0  0  0  0  0  0  0  0  0
   -3.8987    3.0002    0.0000 C   0  0  0  0  0  0  0  0  0  0  0  0
   -5.1976    3.7504    0.0000 H   0  0  0  0  0  0  0  0  0  0  0  0
   -2.4215    2.7395    0.0000 H   0  0  0  0  0  0  0  0  0  0  0  0
   -3.3854    4.4097    0.0000 H   0  0  0  0  0  0  0  0  0  0  0  0
  1  2  1  0  0  0  0 
  1  3  1  0  0  0  0 
  1  4  1  0  0  0  0 
  1  5  1  0  0  0  0 
  5  6  1  0  0  0  0 
  6  7  2  0  0  0  0 
  7  8  1  0  0  0  0 
  7  9  1  0  0  0  0 
  9 10  2  0  0  0  0 
 10 11  1  0  0  0  0 
 11 12  1  0  0  0  0 
 11 13  1  0  0  0  0 
 10 14  1  0  0  0  0 
 14 15  1  0  0  0  0 
 14 16  1  0  0  0  0 
 16 17  2  0  0  0  0 
 16 18  1  0  0  0  0 
 18 19  2  0  0  0  0 
  9 19  1  0  0  0  0 
 19 20  1  0  0  0  0 
 20 21  1  0  0  0  0 
 20 22  2  0  0  0  0 
  6 22  1  0  0  0  0 
 22 23  1  0  0  0  0 
 23 24  1  0  0  0  0 
 24 25  1  0  0  0  0 
 24 26  1  0  0  0  0 
 24 27  1  0  0  0  0 
M  END
> <Rank>
26

> <Priority_score>
0.152

> <Reaction_type>
oxidative_deamination_(aromatic)

> <Parent_ID>
44

> <Parent_InChI>
InChI=1S/C19H25N5O4/c1-26-15-10-12-13(11-16(15)27-2)21-19(22-17(12)20)24-7-5-23(6-8-24)18(25)14-4-3-9-28-14/h10-11,14H,3-9H2,1-2H3,(H2,20,21,22)

> <Parent_SMILES>
COc1cc2nc(N3CCN(C(=O)C4CCCO4)CC3)nc(N)c2cc1OC

$$$$
Molecule 44_metabolite 27
  CDK     0516241031

 29 30  0  0  0  0  0  0  0  0999 V2000
   -5.1167    2.0246    0.0000 C   0  0  0  0  0  0  0  0  0  0  0  0
   -6.5428    2.4896    0.0000 H   0  0  0  0  0  0  0  0  0  0  0  0
   -5.7278    0.6547    0.0000 H   0  0  0  0  0  0  0  0  0  0  0  0
   -3.8180    1.2740    0.0000 C   0  0  0  0  0  0  0  0  0  0  0  0
   -4.7024    0.0625    0.0000 H   0  0  0  0  0  0  0  0  0  0  0  0
   -2.7074    0.2657    0.0000 H   0  0  0  0  0  0  0  0  0  0  0  0
   -2.7005    2.2682    0.0000 C   0  0  0  0  0  0  0  0  0  0  0  0
   -1.8224    1.0521    0.0000 H   0  0  0  0  0  0  0  0  0  0  0  0
   -1.4014    3.0182    0.0000 C   0  0  0  0  0  0  0  0  0  0  0  0
   -1.4014    4.5182    0.0000 O   0  0  0  0  0  0  0  0  0  0  0  0
    0.7290    1.7882    0.0000 N   0  0  0  0  0  0  0  0  0  0  0  0
    2.0285    2.5391    0.0000 C   0  0  0  0  0  0  0  0  0  0  0  0
    2.9926    3.6882    0.0000 H   0  0  0  0  0  0  0  0  0  0  0  0
    1.0641    3.6879    0.0000 H   0  0  0  0  0  0  0  0  0  0  0  0
    3.3275    1.7891    0.0000 C   0  0  0  0  0  0  0  0  0  0  0  0
    4.8047    1.5283    0.0000 H   0  0  0  0  0  0  0  0  0  0  0  0
    3.8407    3.1985    0.0000 H   0  0  0  0  0  0  0  0  0  0  0  0
    3.3271    0.2882    0.0000 N   0  0  0  0  0  0  0  0  0  0  0  0
    4.6261   -0.4618    0.0000 H   0  0  0  0  0  0  0  0  0  0  0  0
    2.0275   -0.4626    0.0000 C   0  0  0  0  0  0  0  0  0  0  0  0
    1.0635   -1.6118    0.0000 H   0  0  0  0  0  0  0  0  0  0  0  0
    2.9920   -1.6115    0.0000 H   0  0  0  0  0  0  0  0  0  0  0  0
    0.7285    0.2874    0.0000 C   0  0  0  0  0  0  0  0  0  0  0  0
   -0.7487    0.5482    0.0000 H   0  0  0  0  0  0  0  0  0  0  0  0
    0.2153   -1.1221    0.0000 H   0  0  0  0  0  0  0  0  0  0  0  0
   -3.3164    3.6406    0.0000 O   0  0  0  0  0  0  0  0  0  0  0  0
   -4.8044    3.4842    0.0000 C   0  0  0  0  0  0  0  0  0  0  0  0
   -4.8037    4.9842    0.0000 H   0  0  0  0  0  0  0  0  0  0  0  0
   -6.2960    3.6423    0.0000 H   0  0  0  0  0  0  0  0  0  0  0  0
  1  2  1  0  0  0  0 
  1  3  1  0  0  0  0 
  1  4  1  0  0  0  0 
  4  5  1  0  0  0  0 
  4  6  1  0  0  0  0 
  4  7  1  0  0  0  0 
  7  8  1  0  0  0  0 
  7  9  1  0  0  0  0 
  9 10  2  0  0  0  0 
  9 11  1  0  0  0  0 
 11 12  1  0  0  0  0 
 12 13  1  0  0  0  0 
 12 14  1  0  0  0  0 
 12 15  1  0  0  0  0 
 15 16  1  0  0  0  0 
 15 17  1  0  0  0  0 
 15 18  1  0  0  0  0 
 18 19  1  0  0  0  0 
 18 20  1  0  0  0  0 
 20 21  1  0  0  0  0 
 20 22  1  0  0  0  0 
 20 23  1  0  0  0  0 
 11 23  1  0  0  0  0 
 23 24  1  0  0  0  0 
 23 25  1  0  0  0  0 
  7 26  1  0  0  0  0 
 26 27  1  0  0  0  0 
  1 27  1  0  0  0  0 
 27 28  1  0  0  0  0 
 27 29  1  0  0  0  0 
M  END
> <Rank>
26

> <Priority_score>
0.152

> <Reaction_type>
oxidative_deamination_(aromatic)

> <Parent_ID>
44

> <Parent_InChI>
InChI=1S/C19H25N5O4/c1-26-15-10-12-13(11-16(15)27-2)21-19(22-17(12)20)24-7-5-23(6-8-24)18(25)14-4-3-9-28-14/h10-11,14H,3-9H2,1-2H3,(H2,20,21,22)

> <Parent_SMILES>
COc1cc2nc(N3CCN(C(=O)C4CCCO4)CC3)nc(N)c2cc1OC

$$$$
Molecule 44_metabolite 28
  CDK     0516241031

 54 57  0  0  0  0  0  0  0  0999 V2000
   -6.0294   -1.2305    0.0000 C   0  0  0  0  0  0  0  0  0  0  0  0
   -7.3283   -1.9808    0.0000 H   0  0  0  0  0  0  0  0  0  0  0  0
   -5.0654   -0.0813    0.0000 H   0  0  0  0  0  0  0  0  0  0  0  0
   -6.9937   -0.0816    0.0000 H   0  0  0  0  0  0  0  0  0  0  0  0
   -4.7302   -1.9803    0.0000 O   0  0  0  0  0  0  0  0  0  0  0  0
   -3.4313   -1.2301    0.0000 C   0  0  0  0  0  0  0  0  0  0  0  0
   -2.1313   -1.9801    0.0000 C   0  0  0  0  0  0  0  0  0  0  0  0
   -2.1313   -3.4801    0.0000 H   0  0  0  0  0  0  0  0  0  0  0  0
   -0.8313   -1.2301    0.0000 C   0  0  0  0  0  0  0  0  0  0  0  0
    0.4687   -1.9801    0.0000 C   0  0  0  0  0  0  0  0  0  0  0  0
    0.4687   -3.4801    0.0000 N   0  0  0  0  0  0  0  0  0  0  0  0
    1.7677   -4.2301    0.0000 H   0  0  0  0  0  0  0  0  0  0  0  0
   -0.8303   -4.2301    0.0000 H   0  0  0  0  0  0  0  0  0  0  0  0
    1.7687   -1.2301    0.0000 N   0  0  0  0  0  0  0  0  0  0  0  0
    1.7687    0.2699    0.0000 C   0  0  0  0  0  0  0  0  0  0  0  0
    0.4687    1.0199    0.0000 N   0  0  0  0  0  0  0  0  0  0  0  0
   -0.8313    0.2699    0.0000 C   0  0  0  0  0  0  0  0  0  0  0  0
   -2.1313    1.0199    0.0000 C   0  0  0  0  0  0  0  0  0  0  0  0
   -2.1313    2.5199    0.0000 H   0  0  0  0  0  0  0  0  0  0  0  0
   -3.4313    0.2699    0.0000 C   0  0  0  0  0  0  0  0  0  0  0  0
   -4.7302    1.0201    0.0000 O   0  0  0  0  0  0  0  0  0  0  0  0
   -4.7300    2.5201    0.0000 C   0  0  0  0  0  0  0  0  0  0  0  0
   -6.0289    3.2703    0.0000 H   0  0  0  0  0  0  0  0  0  0  0  0
   -3.2528    2.2594    0.0000 H   0  0  0  0  0  0  0  0  0  0  0  0
   -4.2167    3.9295    0.0000 H   0  0  0  0  0  0  0  0  0  0  0  0
    3.0676    1.0201    0.0000 N   0  0  0  0  0  0  0  0  0  0  0  0
    4.3676    0.2701    0.0000 C   0  0  0  0  0  0  0  0  0  0  0  0
    3.4036   -0.8791    0.0000 H   0  0  0  0  0  0  0  0  0  0  0  0
    5.3317   -0.8791    0.0000 H   0  0  0  0  0  0  0  0  0  0  0  0
    5.6676    1.0201    0.0000 C   0  0  0  0  0  0  0  0  0  0  0  0
    6.1803   -0.3896    0.0000 H   0  0  0  0  0  0  0  0  0  0  0  0
    7.1448    1.2804    0.0000 H   0  0  0  0  0  0  0  0  0  0  0  0
    5.6676    2.5201    0.0000 N   0  0  0  0  0  0  0  0  0  0  0  0
    4.3676    3.2701    0.0000 C   0  0  0  0  0  0  0  0  0  0  0  0
    5.3317    4.4192    0.0000 H   0  0  0  0  0  0  0  0  0  0  0  0
    3.4036    4.4192    0.0000 H   0  0  0  0  0  0  0  0  0  0  0  0
    3.0676    2.5201    0.0000 C   0  0  0  0  0  0  0  0  0  0  0  0
    2.5549    3.9297    0.0000 H   0  0  0  0  0  0  0  0  0  0  0  0
    1.5904    2.2598    0.0000 H   0  0  0  0  0  0  0  0  0  0  0  0
    7.7978    3.7504    0.0000 C   0  0  0  0  0  0  0  0  0  0  0  0
    7.7976    5.2504    0.0000 O   0  0  0  0  0  0  0  0  0  0  0  0
    9.0970    3.0006    0.0000 C   0  0  0  0  0  0  0  0  0  0  0  0
    8.2128    1.7889    0.0000 H   0  0  0  0  0  0  0  0  0  0  0  0
   10.2019    1.9970    0.0000 C   0  0  0  0  0  0  0  0  0  0  0  0
    9.0831    0.9979    0.0000 H   0  0  0  0  0  0  0  0  0  0  0  0
   11.5035    2.7426    0.0000 C   0  0  0  0  0  0  0  0  0  0  0  0
   12.1093    1.3703    0.0000 H   0  0  0  0  0  0  0  0  0  0  0  0
   12.9314    3.2020    0.0000 H   0  0  0  0  0  0  0  0  0  0  0  0
   11.1969    4.2034    0.0000 C   0  0  0  0  0  0  0  0  0  0  0  0
   12.6895    4.3530    0.0000 H   0  0  0  0  0  0  0  0  0  0  0  0
   11.2075    5.7033    0.0000 H   0  0  0  0  0  0  0  0  0  0  0  0
    9.7046    4.3743    0.0000 O   0  0  0  0  0  0  0  0  0  0  0  0
   11.0790    0.7802    0.0000 O   0  0  0  0  0  0  0  0  0  0  0  0
   10.4638   -0.5878    0.0000 H   0  0  0  0  0  0  0  0  0  0  0  0
  1  2  1  0  0  0  0 
  1  3  1  0  0  0  0 
  1  4  1  0  0  0  0 
  1  5  1  0  0  0  0 
  5  6  1  0  0  0  0 
  6  7  2  0  0  0  0 
  7  8  1  0  0  0  0 
  7  9  1  0  0  0  0 
  9 10  2  0  0  0  0 
 10 11  1  0  0  0  0 
 11 12  1  0  0  0  0 
 11 13  1  0  0  0  0 
 10 14  1  0  0  0  0 
 14 15  2  0  0  0  0 
 15 16  1  0  0  0  0 
 16 17  2  0  0  0  0 
  9 17  1  0  0  0  0 
 17 18  1  0  0  0  0 
 18 19  1  0  0  0  0 
 18 20  2  0  0  0  0 
  6 20  1  0  0  0  0 
 20 21  1  0  0  0  0 
 21 22  1  0  0  0  0 
 22 23  1  0  0  0  0 
 22 24  1  0  0  0  0 
 22 25  1  0  0  0  0 
 15 26  1  0  0  0  0 
 26 27  1  0  0  0  0 
 27 28  1  0  0  0  0 
 27 29  1  0  0  0  0 
 27 30  1  0  0  0  0 
 30 31  1  0  0  0  0 
 30 32  1  0  0  0  0 
 30 33  1  0  0  0  0 
 33 34  1  0  0  0  0 
 34 35  1  0  0  0  0 
 34 36  1  0  0  0  0 
 34 37  1  0  0  0  0 
 26 37  1  0  0  0  0 
 37 38  1  0  0  0  0 
 37 39  1  0  0  0  0 
 33 40  1  0  0  0  0 
 40 41  2  0  0  0  0 
 40 42  1  0  0  0  0 
 42 43  1  0  0  0  0 
 42 44  1  0  0  0  0 
 44 45  1  0  0  0  0 
 44 46  1  0  0  0  0 
 46 47  1  0  0  0  0 
 46 48  1  0  0  0  0 
 46 49  1  0  0  0  0 
 49 50  1  0  0  0  0 
 49 51  1  0  0  0  0 
 49 52  1  0  0  0  0 
 42 52  1  0  0  0  0 
 44 53  1  0  0  0  0 
 53 54  1  0  0  0  0 
M  END
> <Rank>
28

> <Priority_score>
0.144

> <Reaction_type>
aliphatic_hydroxylation_(sec_carbon_in_a_ringB)

> <Parent_ID>
44

> <Parent_InChI>
InChI=1S/C19H25N5O4/c1-26-15-10-12-13(11-16(15)27-2)21-19(22-17(12)20)24-7-5-23(6-8-24)18(25)14-4-3-9-28-14/h10-11,14H,3-9H2,1-2H3,(H2,20,21,22)

> <Parent_SMILES>
COc1cc2nc(N3CCN(C(=O)C4CCCO4)CC3)nc(N)c2cc1OC

$$$$
Molecule 44_metabolite 29
  CDK     0516241031

 54 57  0  0  0  0  0  0  0  0999 V2000
   -4.9151   -0.3627    0.0000 C   0  0  0  0  0  0  0  0  0  0  0  0
   -6.2140   -1.1129    0.0000 H   0  0  0  0  0  0  0  0  0  0  0  0
   -3.9511    0.7865    0.0000 H   0  0  0  0  0  0  0  0  0  0  0  0
   -5.8795    0.7862    0.0000 H   0  0  0  0  0  0  0  0  0  0  0  0
   -3.6160   -1.1125    0.0000 O   0  0  0  0  0  0  0  0  0  0  0  0
   -2.3171   -0.3623    0.0000 C   0  0  0  0  0  0  0  0  0  0  0  0
   -1.0171   -1.1123    0.0000 C   0  0  0  0  0  0  0  0  0  0  0  0
   -1.0171   -2.6123    0.0000 H   0  0  0  0  0  0  0  0  0  0  0  0
    0.2829   -0.3623    0.0000 C   0  0  0  0  0  0  0  0  0  0  0  0
    1.5829   -1.1123    0.0000 C   0  0  0  0  0  0  0  0  0  0  0  0
    1.5829   -2.6123    0.0000 N   0  0  0  0  0  0  0  0  0  0  0  0
    2.8820   -3.3623    0.0000 H   0  0  0  0  0  0  0  0  0  0  0  0
    0.2839   -3.3623    0.0000 H   0  0  0  0  0  0  0  0  0  0  0  0
    2.8829   -0.3623    0.0000 N   0  0  0  0  0  0  0  0  0  0  0  0
    2.8829    1.1377    0.0000 C   0  0  0  0  0  0  0  0  0  0  0  0
    1.5829    1.8877    0.0000 N   0  0  0  0  0  0  0  0  0  0  0  0
    0.2829    1.1377    0.0000 C   0  0  0  0  0  0  0  0  0  0  0  0
   -1.0171    1.8877    0.0000 C   0  0  0  0  0  0  0  0  0  0  0  0
   -1.0171    3.3877    0.0000 H   0  0  0  0  0  0  0  0  0  0  0  0
   -2.3171    1.1377    0.0000 C   0  0  0  0  0  0  0  0  0  0  0  0
   -3.6160    1.8879    0.0000 O   0  0  0  0  0  0  0  0  0  0  0  0
   -3.6157    3.3879    0.0000 C   0  0  0  0  0  0  0  0  0  0  0  0
   -4.9146    4.1382    0.0000 H   0  0  0  0  0  0  0  0  0  0  0  0
   -2.1386    3.1272    0.0000 H   0  0  0  0  0  0  0  0  0  0  0  0
   -3.1025    4.7974    0.0000 H   0  0  0  0  0  0  0  0  0  0  0  0
    4.1819    1.8879    0.0000 N   0  0  0  0  0  0  0  0  0  0  0  0
    5.4819    1.1379    0.0000 C   0  0  0  0  0  0  0  0  0  0  0  0
    4.5178   -0.0112    0.0000 H   0  0  0  0  0  0  0  0  0  0  0  0
    6.4459   -0.0112    0.0000 H   0  0  0  0  0  0  0  0  0  0  0  0
    6.7819    1.8879    0.0000 C   0  0  0  0  0  0  0  0  0  0  0  0
    7.2946    0.4783    0.0000 H   0  0  0  0  0  0  0  0  0  0  0  0
    8.2591    2.1483    0.0000 H   0  0  0  0  0  0  0  0  0  0  0  0
    6.7819    3.3879    0.0000 N   0  0  0  0  0  0  0  0  0  0  0  0
    5.4819    4.1379    0.0000 C   0  0  0  0  0  0  0  0  0  0  0  0
    6.4459    5.2871    0.0000 H   0  0  0  0  0  0  0  0  0  0  0  0
    4.5178    5.2871    0.0000 H   0  0  0  0  0  0  0  0  0  0  0  0
    4.1819    3.3879    0.0000 C   0  0  0  0  0  0  0  0  0  0  0  0
    3.6691    4.7976    0.0000 H   0  0  0  0  0  0  0  0  0  0  0  0
    2.7046    3.1276    0.0000 H   0  0  0  0  0  0  0  0  0  0  0  0
    8.0808    4.1382    0.0000 C   0  0  0  0  0  0  0  0  0  0  0  0
    8.0805    5.6382    0.0000 O   0  0  0  0  0  0  0  0  0  0  0  0
   10.2114    2.9085    0.0000 C   0  0  0  0  0  0  0  0  0  0  0  0
   11.3163    1.9049    0.0000 C   0  0  0  0  0  0  0  0  0  0  0  0
   10.1975    0.9057    0.0000 H   0  0  0  0  0  0  0  0  0  0  0  0
   12.1934    0.6881    0.0000 H   0  0  0  0  0  0  0  0  0  0  0  0
   12.6179    2.6504    0.0000 C   0  0  0  0  0  0  0  0  0  0  0  0
   13.2237    1.2782    0.0000 H   0  0  0  0  0  0  0  0  0  0  0  0
   14.0458    3.1099    0.0000 H   0  0  0  0  0  0  0  0  0  0  0  0
   12.3113    4.1113    0.0000 C   0  0  0  0  0  0  0  0  0  0  0  0
   13.8039    4.2609    0.0000 H   0  0  0  0  0  0  0  0  0  0  0  0
   12.3220    5.6112    0.0000 H   0  0  0  0  0  0  0  0  0  0  0  0
   10.8190    4.2822    0.0000 O   0  0  0  0  0  0  0  0  0  0  0  0
    9.0442    1.3091    0.0000 O   0  0  0  0  0  0  0  0  0  0  0  0
    9.6515   -0.0625    0.0000 H   0  0  0  0  0  0  0  0  0  0  0  0
  1  2  1  0  0  0  0 
  1  3  1  0  0  0  0 
  1  4  1  0  0  0  0 
  1  5  1  0  0  0  0 
  5  6  1  0  0  0  0 
  6  7  2  0  0  0  0 
  7  8  1  0  0  0  0 
  7  9  1  0  0  0  0 
  9 10  2  0  0  0  0 
 10 11  1  0  0  0  0 
 11 12  1  0  0  0  0 
 11 13  1  0  0  0  0 
 10 14  1  0  0  0  0 
 14 15  2  0  0  0  0 
 15 16  1  0  0  0  0 
 16 17  2  0  0  0  0 
  9 17  1  0  0  0  0 
 17 18  1  0  0  0  0 
 18 19  1  0  0  0  0 
 18 20  2  0  0  0  0 
  6 20  1  0  0  0  0 
 20 21  1  0  0  0  0 
 21 22  1  0  0  0  0 
 22 23  1  0  0  0  0 
 22 24  1  0  0  0  0 
 22 25  1  0  0  0  0 
 15 26  1  0  0  0  0 
 26 27  1  0  0  0  0 
 27 28  1  0  0  0  0 
 27 29  1  0  0  0  0 
 27 30  1  0  0  0  0 
 30 31  1  0  0  0  0 
 30 32  1  0  0  0  0 
 30 33  1  0  0  0  0 
 33 34  1  0  0  0  0 
 34 35  1  0  0  0  0 
 34 36  1  0  0  0  0 
 34 37  1  0  0  0  0 
 26 37  1  0  0  0  0 
 37 38  1  0  0  0  0 
 37 39  1  0  0  0  0 
 33 40  1  0  0  0  0 
 40 41  2  0  0  0  0 
 40 42  1  0  0  0  0 
 42 43  1  0  0  0  0 
 43 44  1  0  0  0  0 
 43 45  1  0  0  0  0 
 43 46  1  0  0  0  0 
 46 47  1  0  0  0  0 
 46 48  1  0  0  0  0 
 46 49  1  0  0  0  0 
 49 50  1  0  0  0  0 
 49 51  1  0  0  0  0 
 49 52  1  0  0  0  0 
 42 52  1  0  0  0  0 
 42 53  1  0  0  0  0 
 53 54  1  0  0  0  0 
M  END
> <Rank>
29

> <Priority_score>
0.104

> <Reaction_type>
aliphatic hydroxylation

> <Parent_ID>
44

> <Parent_InChI>
InChI=1S/C19H25N5O4/c1-26-15-10-12-13(11-16(15)27-2)21-19(22-17(12)20)24-7-5-23(6-8-24)18(25)14-4-3-9-28-14/h10-11,14H,3-9H2,1-2H3,(H2,20,21,22)

> <Parent_SMILES>
COc1cc2nc(N3CCN(C(=O)C4CCCO4)CC3)nc(N)c2cc1OC

$$$$
Molecule 44_metabolite 30
  CDK     0516241031

 54 56  0  0  0  0  0  0  0  0999 V2000
   -5.1981   -0.7504    0.0000 C   0  0  0  0  0  0  0  0  0  0  0  0
   -6.4970   -1.5006    0.0000 H   0  0  0  0  0  0  0  0  0  0  0  0
   -4.2341    0.3988    0.0000 H   0  0  0  0  0  0  0  0  0  0  0  0
   -6.1624    0.3985    0.0000 H   0  0  0  0  0  0  0  0  0  0  0  0
   -3.8989   -1.5002    0.0000 O   0  0  0  0  0  0  0  0  0  0  0  0
   -2.6000   -0.7500    0.0000 C   0  0  0  0  0  0  0  0  0  0  0  0
   -1.3000   -1.5000    0.0000 C   0  0  0  0  0  0  0  0  0  0  0  0
   -1.3000   -3.0000    0.0000 H   0  0  0  0  0  0  0  0  0  0  0  0
    0.0000   -0.7500    0.0000 C   0  0  0  0  0  0  0  0  0  0  0  0
    1.3000   -1.5000    0.0000 C   0  0  0  0  0  0  0  0  0  0  0  0
    1.3000   -3.0000    0.0000 N   0  0  0  0  0  0  0  0  0  0  0  0
    2.5990   -3.7500    0.0000 H   0  0  0  0  0  0  0  0  0  0  0  0
    0.0010   -3.7500    0.0000 H   0  0  0  0  0  0  0  0  0  0  0  0
    2.6000   -0.7500    0.0000 N   0  0  0  0  0  0  0  0  0  0  0  0
    2.6000    0.7500    0.0000 C   0  0  0  0  0  0  0  0  0  0  0  0
    1.3000    1.5000    0.0000 N   0  0  0  0  0  0  0  0  0  0  0  0
    0.0000    0.7500    0.0000 C   0  0  0  0  0  0  0  0  0  0  0  0
   -1.3000    1.5000    0.0000 C   0  0  0  0  0  0  0  0  0  0  0  0
   -1.3000    3.0000    0.0000 H   0  0  0  0  0  0  0  0  0  0  0  0
   -2.6000    0.7500    0.0000 C   0  0  0  0  0  0  0  0  0  0  0  0
   -3.8989    1.5002    0.0000 O   0  0  0  0  0  0  0  0  0  0  0  0
   -3.8987    3.0002    0.0000 C   0  0  0  0  0  0  0  0  0  0  0  0
   -5.1976    3.7504    0.0000 H   0  0  0  0  0  0  0  0  0  0  0  0
   -2.4215    2.7395    0.0000 H   0  0  0  0  0  0  0  0  0  0  0  0
   -3.3854    4.4097    0.0000 H   0  0  0  0  0  0  0  0  0  0  0  0
    3.8989    1.5002    0.0000 N   0  0  0  0  0  0  0  0  0  0  0  0
    5.1981    0.7504    0.0000 C   0  0  0  0  0  0  0  0  0  0  0  0
    4.2341   -0.3988    0.0000 H   0  0  0  0  0  0  0  0  0  0  0  0
    6.1624   -0.3985    0.0000 H   0  0  0  0  0  0  0  0  0  0  0  0
    6.4970    1.5006    0.0000 C   0  0  0  0  0  0  0  0  0  0  0  0
    7.4610    2.6498    0.0000 H   0  0  0  0  0  0  0  0  0  0  0  0
    5.5326    2.6495    0.0000 H   0  0  0  0  0  0  0  0  0  0  0  0
    7.7962    0.7508    0.0000 N   0  0  0  0  0  0  0  0  0  0  0  0
    7.7964   -0.7492    0.0000 H   0  0  0  0  0  0  0  0  0  0  0  0
    9.0951    1.5010    0.0000 C   0  0  0  0  0  0  0  0  0  0  0  0
    9.0948    3.0010    0.0000 O   0  0  0  0  0  0  0  0  0  0  0  0
   10.8100    0.5113    0.0000 C   0  0  0  0  0  0  0  0  0  0  0  0
    9.9321   -0.7050    0.0000 H   0  0  0  0  0  0  0  0  0  0  0  0
   11.4222    1.8760    0.0000 C   0  0  0  0  0  0  0  0  0  0  0  0
   11.7328    3.3435    0.0000 H   0  0  0  0  0  0  0  0  0  0  0  0
    9.9960    2.3410    0.0000 H   0  0  0  0  0  0  0  0  0  0  0  0
   12.9144    1.7232    0.0000 C   0  0  0  0  0  0  0  0  0  0  0  0
   14.4058    1.8831    0.0000 H   0  0  0  0  0  0  0  0  0  0  0  0
   12.9108    3.2232    0.0000 H   0  0  0  0  0  0  0  0  0  0  0  0
   13.2273    0.2638    0.0000 C   0  0  0  0  0  0  0  0  0  0  0  0
   13.8411   -1.1049    0.0000 H   0  0  0  0  0  0  0  0  0  0  0  0
   14.6529    0.7305    0.0000 H   0  0  0  0  0  0  0  0  0  0  0  0
   11.9340   -0.4884    0.0000 O   0  0  0  0  0  0  0  0  0  0  0  0
    3.8987    3.0002    0.0000 C   0  0  0  0  0  0  0  0  0  0  0  0
    3.3854    4.4097    0.0000 H   0  0  0  0  0  0  0  0  0  0  0  0
    2.4215    2.7395    0.0000 H   0  0  0  0  0  0  0  0  0  0  0  0
    5.1976    3.7504    0.0000 C   0  0  0  0  0  0  0  0  0  0  0  0
    5.1974    5.2504    0.0000 H   0  0  0  0  0  0  0  0  0  0  0  0
    6.4968    3.0006    0.0000 O   0  0  0  0  0  0  0  0  0  0  0  0
  1  2  1  0  0  0  0 
  1  3  1  0  0  0  0 
  1  4  1  0  0  0  0 
  1  5  1  0  0  0  0 
  5  6  1  0  0  0  0 
  6  7  2  0  0  0  0 
  7  8  1  0  0  0  0 
  7  9  1  0  0  0  0 
  9 10  2  0  0  0  0 
 10 11  1  0  0  0  0 
 11 12  1  0  0  0  0 
 11 13  1  0  0  0  0 
 10 14  1  0  0  0  0 
 14 15  2  0  0  0  0 
 15 16  1  0  0  0  0 
 16 17  2  0  0  0  0 
  9 17  1  0  0  0  0 
 17 18  1  0  0  0  0 
 18 19  1  0  0  0  0 
 18 20  2  0  0  0  0 
  6 20  1  0  0  0  0 
 20 21  1  0  0  0  0 
 21 22  1  0  0  0  0 
 22 23  1  0  0  0  0 
 22 24  1  0  0  0  0 
 22 25  1  0  0  0  0 
 15 26  1  0  0  0  0 
 26 27  1  0  0  0  0 
 27 28  1  0  0  0  0 
 27 29  1  0  0  0  0 
 27 30  1  0  0  0  0 
 30 31  1  0  0  0  0 
 30 32  1  0  0  0  0 
 30 33  1  0  0  0  0 
 33 34  1  0  0  0  0 
 33 35  1  0  0  0  0 
 35 36  2  0  0  0  0 
 35 37  1  0  0  0  0 
 37 38  1  0  0  0  0 
 37 39  1  0  0  0  0 
 39 40  1  0  0  0  0 
 39 41  1  0  0  0  0 
 39 42  1  0  0  0  0 
 42 43  1  0  0  0  0 
 42 44  1  0  0  0  0 
 42 45  1  0  0  0  0 
 45 46  1  0  0  0  0 
 45 47  1  0  0  0  0 
 45 48  1  0  0  0  0 
 37 48  1  0  0  0  0 
 26 49  1  0  0  0  0 
 49 50  1  0  0  0  0 
 49 51  1  0  0  0  0 
 49 52  1  0  0  0  0 
 52 53  1  0  0  0  0 
 52 54  2  0  0  0  0 
M  END
> <Rank>
30

> <Priority_score>
0.076

> <Reaction_type>
N-dealkylation

> <Parent_ID>
44

> <Parent_InChI>
InChI=1S/C19H25N5O4/c1-26-15-10-12-13(11-16(15)27-2)21-19(22-17(12)20)24-7-5-23(6-8-24)18(25)14-4-3-9-28-14/h10-11,14H,3-9H2,1-2H3,(H2,20,21,22)

> <Parent_SMILES>
COc1cc2nc(N3CCN(C(=O)C4CCCO4)CC3)nc(N)c2cc1OC

$$$$
Molecule 44_metabolite 31
  CDK     0516241031

 54 57  0  0  0  0  0  0  0  0999 V2000
   -5.6135   -2.4305    0.0000 C   0  0  0  0  0  0  0  0  0  0  0  0
   -6.9124   -3.1807    0.0000 H   0  0  0  0  0  0  0  0  0  0  0  0
   -4.6495   -1.2813    0.0000 H   0  0  0  0  0  0  0  0  0  0  0  0
   -6.5779   -1.2816    0.0000 H   0  0  0  0  0  0  0  0  0  0  0  0
   -4.3143   -3.1803    0.0000 O   0  0  0  0  0  0  0  0  0  0  0  0
   -3.0154   -2.4301    0.0000 C   0  0  0  0  0  0  0  0  0  0  0  0
   -1.7154   -3.1801    0.0000 C   0  0  0  0  0  0  0  0  0  0  0  0
   -1.7154   -4.6801    0.0000 H   0  0  0  0  0  0  0  0  0  0  0  0
   -0.4154   -2.4301    0.0000 C   0  0  0  0  0  0  0  0  0  0  0  0
    0.8846   -3.1801    0.0000 C   0  0  0  0  0  0  0  0  0  0  0  0
    0.8846   -4.6801    0.0000 N   0  0  0  0  0  0  0  0  0  0  0  0
    2.1836   -5.4301    0.0000 H   0  0  0  0  0  0  0  0  0  0  0  0
   -0.4145   -5.4301    0.0000 H   0  0  0  0  0  0  0  0  0  0  0  0
    2.1846   -2.4301    0.0000 N   0  0  0  0  0  0  0  0  0  0  0  0
    2.1846   -0.9301    0.0000 C   0  0  0  0  0  0  0  0  0  0  0  0
    0.8846   -0.1801    0.0000 N   0  0  0  0  0  0  0  0  0  0  0  0
   -0.4154   -0.9301    0.0000 C   0  0  0  0  0  0  0  0  0  0  0  0
   -1.7154   -0.1801    0.0000 C   0  0  0  0  0  0  0  0  0  0  0  0
   -1.7154    1.3199    0.0000 H   0  0  0  0  0  0  0  0  0  0  0  0
   -3.0154   -0.9301    0.0000 C   0  0  0  0  0  0  0  0  0  0  0  0
   -4.3143   -0.1799    0.0000 O   0  0  0  0  0  0  0  0  0  0  0  0
   -4.3141    1.3201    0.0000 C   0  0  0  0  0  0  0  0  0  0  0  0
   -5.6130    2.0703    0.0000 H   0  0  0  0  0  0  0  0  0  0  0  0
   -2.8369    1.0594    0.0000 H   0  0  0  0  0  0  0  0  0  0  0  0
   -3.8008    2.7296    0.0000 H   0  0  0  0  0  0  0  0  0  0  0  0
    3.4835   -0.1799    0.0000 N   0  0  0  0  0  0  0  0  0  0  0  0
    4.7835   -0.9299    0.0000 C   0  0  0  0  0  0  0  0  0  0  0  0
    3.8194   -2.0790    0.0000 H   0  0  0  0  0  0  0  0  0  0  0  0
    5.7476   -2.0790    0.0000 H   0  0  0  0  0  0  0  0  0  0  0  0
    6.0835   -0.1799    0.0000 C   0  0  0  0  0  0  0  0  0  0  0  0
    6.5962   -1.5895    0.0000 H   0  0  0  0  0  0  0  0  0  0  0  0
    7.5607    0.0805    0.0000 H   0  0  0  0  0  0  0  0  0  0  0  0
    6.0835    1.3201    0.0000 N   0  0  0  0  0  0  0  0  0  0  0  0
    4.7835    2.0701    0.0000 C   0  0  0  0  0  0  0  0  0  0  0  0
    5.7476    3.2193    0.0000 H   0  0  0  0  0  0  0  0  0  0  0  0
    3.8194    3.2193    0.0000 H   0  0  0  0  0  0  0  0  0  0  0  0
    3.4835    1.3201    0.0000 C   0  0  0  0  0  0  0  0  0  0  0  0
    2.9708    2.7298    0.0000 H   0  0  0  0  0  0  0  0  0  0  0  0
    2.0063    1.0598    0.0000 H   0  0  0  0  0  0  0  0  0  0  0  0
    7.7981    2.3104    0.0000 C   0  0  0  0  0  0  0  0  0  0  0  0
    7.7976    5.2504    0.0000 O   0  0  0  0  0  0  0  0  0  0  0  0
    9.5130    1.3207    0.0000 C   0  0  0  0  0  0  0  0  0  0  0  0
    8.6351    0.1044    0.0000 H   0  0  0  0  0  0  0  0  0  0  0  0
   10.1252    2.6854    0.0000 C   0  0  0  0  0  0  0  0  0  0  0  0
   10.4358    4.1529    0.0000 H   0  0  0  0  0  0  0  0  0  0  0  0
    8.6990    3.1504    0.0000 H   0  0  0  0  0  0  0  0  0  0  0  0
   11.6174    2.5326    0.0000 C   0  0  0  0  0  0  0  0  0  0  0  0
   13.1088    2.6925    0.0000 H   0  0  0  0  0  0  0  0  0  0  0  0
   11.6138    4.0326    0.0000 H   0  0  0  0  0  0  0  0  0  0  0  0
   11.9303    1.0731    0.0000 C   0  0  0  0  0  0  0  0  0  0  0  0
   12.5441   -0.2955    0.0000 H   0  0  0  0  0  0  0  0  0  0  0  0
   13.3559    1.5399    0.0000 H   0  0  0  0  0  0  0  0  0  0  0  0
   10.6370    0.3210    0.0000 O   0  0  0  0  0  0  0  0  0  0  0  0
    3.4835   -3.1803    0.0000 O   0  0  0  0  0  0  0  0  0  0  0  0
  1  2  1  0  0  0  0 
  1  3  1  0  0  0  0 
  1  4  1  0  0  0  0 
  1  5  1  0  0  0  0 
  5  6  1  0  0  0  0 
  6  7  2  0  0  0  0 
  7  8  1  0  0  0  0 
  7  9  1  0  0  0  0 
  9 10  2  0  0  0  0 
 10 11  1  0  0  0  0 
 11 12  1  0  0  0  0 
 11 13  1  0  0  0  0 
 10 14  1  0  0  0  0 
 14 15  2  0  0  0  0 
 15 16  1  0  0  0  0 
 16 17  2  0  0  0  0 
  9 17  1  0  0  0  0 
 17 18  1  0  0  0  0 
 18 19  1  0  0  0  0 
 18 20  2  0  0  0  0 
  6 20  1  0  0  0  0 
 20 21  1  0  0  0  0 
 21 22  1  0  0  0  0 
 22 23  1  0  0  0  0 
 22 24  1  0  0  0  0 
 22 25  1  0  0  0  0 
 15 26  1  0  0  0  0 
 26 27  1  0  0  0  0 
 27 28  1  0  0  0  0 
 27 29  1  0  0  0  0 
 27 30  1  0  0  0  0 
 30 31  1  0  0  0  0 
 30 32  1  0  0  0  0 
 30 33  1  0  0  0  0 
 33 34  1  0  0  0  0 
 34 35  1  0  0  0  0 
 34 36  1  0  0  0  0 
 34 37  1  0  0  0  0 
 26 37  1  0  0  0  0 
 37 38  1  0  0  0  0 
 37 39  1  0  0  0  0 
 33 40  1  0  0  0  0 
 40 41  2  0  0  0  0 
 40 42  1  0  0  0  0 
 42 43  1  0  0  0  0 
 42 44  1  0  0  0  0 
 44 45  1  0  0  0  0 
 44 46  1  0  0  0  0 
 44 47  1  0  0  0  0 
 47 48  1  0  0  0  0 
 47 49  1  0  0  0  0 
 47 50  1  0  0  0  0 
 50 51  1  0  0  0  0 
 50 52  1  0  0  0  0 
 50 53  1  0  0  0  0 
 42 53  1  0  0  0  0 
 14 54  1  0  0  0  0 
M  CHG  1  14   1
M  CHG  1  54  -1
M  END
> <Rank>
31

> <Priority_score>
0.072

> <Reaction_type>
N-oxidation_(-N=)

> <Parent_ID>
44

> <Parent_InChI>
InChI=1S/C19H25N5O4/c1-26-15-10-12-13(11-16(15)27-2)21-19(22-17(12)20)24-7-5-23(6-8-24)18(25)14-4-3-9-28-14/h10-11,14H,3-9H2,1-2H3,(H2,20,21,22)

> <Parent_SMILES>
COc1cc2nc(N3CCN(C(=O)C4CCCO4)CC3)nc(N)c2cc1OC

$$$$
Molecule 44_metabolite 32
  CDK     0516241031

 54 57  0  0  0  0  0  0  0  0999 V2000
   -4.3141   -4.6803    0.0000 C   0  0  0  0  0  0  0  0  0  0  0  0
   -5.6130   -5.4305    0.0000 H   0  0  0  0  0  0  0  0  0  0  0  0
   -2.8369   -4.4196    0.0000 H   0  0  0  0  0  0  0  0  0  0  0  0
   -3.8008   -6.0897    0.0000 H   0  0  0  0  0  0  0  0  0  0  0  0
   -4.3143   -3.1803    0.0000 O   0  0  0  0  0  0  0  0  0  0  0  0
   -3.0154   -2.4301    0.0000 C   0  0  0  0  0  0  0  0  0  0  0  0
   -1.7154   -3.1801    0.0000 C   0  0  0  0  0  0  0  0  0  0  0  0
   -1.7154   -4.6801    0.0000 H   0  0  0  0  0  0  0  0  0  0  0  0
   -0.4154   -2.4301    0.0000 C   0  0  0  0  0  0  0  0  0  0  0  0
    0.8846   -3.1801    0.0000 C   0  0  0  0  0  0  0  0  0  0  0  0
    0.8846   -4.6801    0.0000 N   0  0  0  0  0  0  0  0  0  0  0  0
    2.1836   -5.4301    0.0000 H   0  0  0  0  0  0  0  0  0  0  0  0
   -0.4145   -5.4301    0.0000 H   0  0  0  0  0  0  0  0  0  0  0  0
    2.1846   -2.4301    0.0000 N   0  0  0  0  0  0  0  0  0  0  0  0
    2.1846   -0.9301    0.0000 C   0  0  0  0  0  0  0  0  0  0  0  0
    3.4835   -0.1799    0.0000 N   0  0  0  0  0  0  0  0  0  0  0  0
    4.7835   -0.9299    0.0000 C   0  0  0  0  0  0  0  0  0  0  0  0
    3.8194   -2.0790    0.0000 H   0  0  0  0  0  0  0  0  0  0  0  0
    5.7476   -2.0790    0.0000 H   0  0  0  0  0  0  0  0  0  0  0  0
    6.0835   -0.1799    0.0000 C   0  0  0  0  0  0  0  0  0  0  0  0
    6.5962   -1.5895    0.0000 H   0  0  0  0  0  0  0  0  0  0  0  0
    7.5607    0.0805    0.0000 H   0  0  0  0  0  0  0  0  0  0  0  0
    6.0835    1.3201    0.0000 N   0  0  0  0  0  0  0  0  0  0  0  0
    4.7835    2.0701    0.0000 C   0  0  0  0  0  0  0  0  0  0  0  0
    5.7476    3.2193    0.0000 H   0  0  0  0  0  0  0  0  0  0  0  0
    3.8194    3.2193    0.0000 H   0  0  0  0  0  0  0  0  0  0  0  0
    3.4835    1.3201    0.0000 C   0  0  0  0  0  0  0  0  0  0  0  0
    2.9708    2.7298    0.0000 H   0  0  0  0  0  0  0  0  0  0  0  0
    2.0063    1.0598    0.0000 H   0  0  0  0  0  0  0  0  0  0  0  0
    7.7981    2.3104    0.0000 C   0  0  0  0  0  0  0  0  0  0  0  0
    7.7976    5.2504    0.0000 O   0  0  0  0  0  0  0  0  0  0  0  0
    9.5130    1.3207    0.0000 C   0  0  0  0  0  0  0  0  0  0  0  0
    8.6351    0.1044    0.0000 H   0  0  0  0  0  0  0  0  0  0  0  0
   10.1252    2.6854    0.0000 C   0  0  0  0  0  0  0  0  0  0  0  0
   10.4358    4.1529    0.0000 H   0  0  0  0  0  0  0  0  0  0  0  0
    8.6990    3.1504    0.0000 H   0  0  0  0  0  0  0  0  0  0  0  0
   11.6174    2.5326    0.0000 C   0  0  0  0  0  0  0  0  0  0  0  0
   13.1088    2.6925    0.0000 H   0  0  0  0  0  0  0  0  0  0  0  0
   11.6138    4.0326    0.0000 H   0  0  0  0  0  0  0  0  0  0  0  0
   11.9303    1.0731    0.0000 C   0  0  0  0  0  0  0  0  0  0  0  0
   12.5441   -0.2955    0.0000 H   0  0  0  0  0  0  0  0  0  0  0  0
   13.3559    1.5399    0.0000 H   0  0  0  0  0  0  0  0  0  0  0  0
   10.6370    0.3210    0.0000 O   0  0  0  0  0  0  0  0  0  0  0  0
    0.8846   -0.1801    0.0000 N   0  0  0  0  0  0  0  0  0  0  0  0
   -0.4154   -0.9301    0.0000 C   0  0  0  0  0  0  0  0  0  0  0  0
   -1.7154   -0.1801    0.0000 C   0  0  0  0  0  0  0  0  0  0  0  0
   -1.7154    1.3199    0.0000 H   0  0  0  0  0  0  0  0  0  0  0  0
   -3.0154   -0.9301    0.0000 C   0  0  0  0  0  0  0  0  0  0  0  0
   -4.3143   -0.1799    0.0000 O   0  0  0  0  0  0  0  0  0  0  0  0
   -5.6135   -0.9297    0.0000 C   0  0  0  0  0  0  0  0  0  0  0  0
   -5.6137   -2.4297    0.0000 H   0  0  0  0  0  0  0  0  0  0  0  0
   -7.0908   -1.1899    0.0000 H   0  0  0  0  0  0  0  0  0  0  0  0
   -6.1263    0.4800    0.0000 H   0  0  0  0  0  0  0  0  0  0  0  0
    0.8846    1.3199    0.0000 O   0  0  0  0  0  0  0  0  0  0  0  0
  1  2  1  0  0  0  0 
  1  3  1  0  0  0  0 
  1  4  1  0  0  0  0 
  1  5  1  0  0  0  0 
  5  6  1  0  0  0  0 
  6  7  2  0  0  0  0 
  7  8  1  0  0  0  0 
  7  9  1  0  0  0  0 
  9 10  2  0  0  0  0 
 10 11  1  0  0  0  0 
 11 12  1  0  0  0  0 
 11 13  1  0  0  0  0 
 10 14  1  0  0  0  0 
 14 15  2  0  0  0  0 
 15 16  1  0  0  0  0 
 16 17  1  0  0  0  0 
 17 18  1  0  0  0  0 
 17 19  1  0  0  0  0 
 17 20  1  0  0  0  0 
 20 21  1  0  0  0  0 
 20 22  1  0  0  0  0 
 20 23  1  0  0  0  0 
 23 24  1  0  0  0  0 
 24 25  1  0  0  0  0 
 24 26  1  0  0  0  0 
 24 27  1  0  0  0  0 
 16 27  1  0  0  0  0 
 27 28  1  0  0  0  0 
 27 29  1  0  0  0  0 
 23 30  1  0  0  0  0 
 30 31  2  0  0  0  0 
 30 32  1  0  0  0  0 
 32 33  1  0  0  0  0 
 32 34  1  0  0  0  0 
 34 35  1  0  0  0  0 
 34 36  1  0  0  0  0 
 34 37  1  0  0  0  0 
 37 38  1  0  0  0  0 
 37 39  1  0  0  0  0 
 37 40  1  0  0  0  0 
 40 41  1  0  0  0  0 
 40 42  1  0  0  0  0 
 40 43  1  0  0  0  0 
 32 43  1  0  0  0  0 
 15 44  1  0  0  0  0 
 44 45  2  0  0  0  0 
  9 45  1  0  0  0  0 
 45 46  1  0  0  0  0 
 46 47  1  0  0  0  0 
 46 48  2  0  0  0  0 
  6 48  1  0  0  0  0 
 48 49  1  0  0  0  0 
 49 50  1  0  0  0  0 
 50 51  1  0  0  0  0 
 50 52  1  0  0  0  0 
 50 53  1  0  0  0  0 
 44 54  1  0  0  0  0 
M  CHG  1  44   1
M  CHG  1  54  -1
M  END
> <Rank>
31

> <Priority_score>
0.072

> <Reaction_type>
N-oxidation_(-N=)

> <Parent_ID>
44

> <Parent_InChI>
InChI=1S/C19H25N5O4/c1-26-15-10-12-13(11-16(15)27-2)21-19(22-17(12)20)24-7-5-23(6-8-24)18(25)14-4-3-9-28-14/h10-11,14H,3-9H2,1-2H3,(H2,20,21,22)

> <Parent_SMILES>
COc1cc2nc(N3CCN(C(=O)C4CCCO4)CC3)nc(N)c2cc1OC

$$$$
Molecule 44_metabolite 33
  CDK     0516241031

 51 54  0  0  0  0  0  0  0  0999 V2000
   -5.6135   -2.4305    0.0000 C   0  0  0  0  0  0  0  0  0  0  0  0
   -6.9124   -3.1807    0.0000 H   0  0  0  0  0  0  0  0  0  0  0  0
   -4.6495   -1.2813    0.0000 H   0  0  0  0  0  0  0  0  0  0  0  0
   -6.5779   -1.2816    0.0000 H   0  0  0  0  0  0  0  0  0  0  0  0
   -4.3143   -3.1803    0.0000 O   0  0  0  0  0  0  0  0  0  0  0  0
   -3.0154   -2.4301    0.0000 C   0  0  0  0  0  0  0  0  0  0  0  0
   -1.7154   -3.1801    0.0000 C   0  0  0  0  0  0  0  0  0  0  0  0
   -1.7154   -4.6801    0.0000 H   0  0  0  0  0  0  0  0  0  0  0  0
   -0.4154   -2.4301    0.0000 C   0  0  0  0  0  0  0  0  0  0  0  0
    0.8846   -3.1801    0.0000 C   0  0  0  0  0  0  0  0  0  0  0  0
    0.8846   -4.6801    0.0000 N   0  0  0  0  0  0  0  0  0  0  0  0
    2.1836   -5.4301    0.0000 H   0  0  0  0  0  0  0  0  0  0  0  0
   -0.4145   -5.4301    0.0000 H   0  0  0  0  0  0  0  0  0  0  0  0
    2.1846   -2.4301    0.0000 N   0  0  0  0  0  0  0  0  0  0  0  0
    2.1846   -0.9301    0.0000 C   0  0  0  0  0  0  0  0  0  0  0  0
    0.8846   -0.1801    0.0000 N   0  0  0  0  0  0  0  0  0  0  0  0
   -0.4154   -0.9301    0.0000 C   0  0  0  0  0  0  0  0  0  0  0  0
   -1.7154   -0.1801    0.0000 C   0  0  0  0  0  0  0  0  0  0  0  0
   -1.7154    1.3199    0.0000 H   0  0  0  0  0  0  0  0  0  0  0  0
   -3.0154   -0.9301    0.0000 C   0  0  0  0  0  0  0  0  0  0  0  0
   -4.3143   -0.1799    0.0000 O   0  0  0  0  0  0  0  0  0  0  0  0
   -4.3141    1.3201    0.0000 C   0  0  0  0  0  0  0  0  0  0  0  0
   -5.6130    2.0703    0.0000 H   0  0  0  0  0  0  0  0  0  0  0  0
   -2.8369    1.0594    0.0000 H   0  0  0  0  0  0  0  0  0  0  0  0
   -3.8008    2.7296    0.0000 H   0  0  0  0  0  0  0  0  0  0  0  0
    3.4835   -0.1799    0.0000 N   0  0  0  0  0  0  0  0  0  0  0  0
    4.7835   -0.9299    0.0000 C   0  0  0  0  0  0  0  0  0  0  0  0
    3.8194   -2.0790    0.0000 H   0  0  0  0  0  0  0  0  0  0  0  0
    5.7476   -2.0790    0.0000 H   0  0  0  0  0  0  0  0  0  0  0  0
    6.0835   -0.1799    0.0000 C   0  0  0  0  0  0  0  0  0  0  0  0
    6.5962   -1.5895    0.0000 H   0  0  0  0  0  0  0  0  0  0  0  0
    7.5607    0.0805    0.0000 H   0  0  0  0  0  0  0  0  0  0  0  0
    6.0835    1.3201    0.0000 N   0  0  0  0  0  0  0  0  0  0  0  0
    4.7835    2.0701    0.0000 C   0  0  0  0  0  0  0  0  0  0  0  0
    5.7476    3.2193    0.0000 H   0  0  0  0  0  0  0  0  0  0  0  0
    3.8194    3.2193    0.0000 H   0  0  0  0  0  0  0  0  0  0  0  0
    3.4835    1.3201    0.0000 C   0  0  0  0  0  0  0  0  0  0  0  0
    2.9708    2.7298    0.0000 H   0  0  0  0  0  0  0  0  0  0  0  0
    2.0063    1.0598    0.0000 H   0  0  0  0  0  0  0  0  0  0  0  0
    7.7981    2.3104    0.0000 C   0  0  0  0  0  0  0  0  0  0  0  0
    7.7976    5.2504    0.0000 O   0  0  0  0  0  0  0  0  0  0  0  0
    9.5130    1.3207    0.0000 C   0  0  0  0  0  0  0  0  0  0  0  0
    8.6351    0.1044    0.0000 H   0  0  0  0  0  0  0  0  0  0  0  0
   10.1252    2.6854    0.0000 C   0  0  0  0  0  0  0  0  0  0  0  0
   10.4358    4.1529    0.0000 H   0  0  0  0  0  0  0  0  0  0  0  0
    8.6990    3.1504    0.0000 H   0  0  0  0  0  0  0  0  0  0  0  0
   11.6174    2.5326    0.0000 C   0  0  0  0  0  0  0  0  0  0  0  0
   12.6186    3.6496    0.0000 H   0  0  0  0  0  0  0  0  0  0  0  0
   11.9303    1.0731    0.0000 C   0  0  0  0  0  0  0  0  0  0  0  0
   13.3021    0.4664    0.0000 H   0  0  0  0  0  0  0  0  0  0  0  0
   10.6370    0.3210    0.0000 O   0  0  0  0  0  0  0  0  0  0  0  0
  1  2  1  0  0  0  0 
  1  3  1  0  0  0  0 
  1  4  1  0  0  0  0 
  1  5  1  0  0  0  0 
  5  6  1  0  0  0  0 
  6  7  2  0  0  0  0 
  7  8  1  0  0  0  0 
  7  9  1  0  0  0  0 
  9 10  2  0  0  0  0 
 10 11  1  0  0  0  0 
 11 12  1  0  0  0  0 
 11 13  1  0  0  0  0 
 10 14  1  0  0  0  0 
 14 15  2  0  0  0  0 
 15 16  1  0  0  0  0 
 16 17  2  0  0  0  0 
  9 17  1  0  0  0  0 
 17 18  1  0  0  0  0 
 18 19  1  0  0  0  0 
 18 20  2  0  0  0  0 
  6 20  1  0  0  0  0 
 20 21  1  0  0  0  0 
 21 22  1  0  0  0  0 
 22 23  1  0  0  0  0 
 22 24  1  0  0  0  0 
 22 25  1  0  0  0  0 
 15 26  1  0  0  0  0 
 26 27  1  0  0  0  0 
 27 28  1  0  0  0  0 
 27 29  1  0  0  0  0 
 27 30  1  0  0  0  0 
 30 31  1  0  0  0  0 
 30 32  1  0  0  0  0 
 30 33  1  0  0  0  0 
 33 34  1  0  0  0  0 
 34 35  1  0  0  0  0 
 34 36  1  0  0  0  0 
 34 37  1  0  0  0  0 
 26 37  1  0  0  0  0 
 37 38  1  0  0  0  0 
 37 39  1  0  0  0  0 
 33 40  1  0  0  0  0 
 40 41  2  0  0  0  0 
 40 42  1  0  0  0  0 
 42 43  1  0  0  0  0 
 42 44  1  0  0  0  0 
 44 45  1  0  0  0  0 
 44 46  1  0  0  0  0 
 44 47  1  0  0  0  0 
 47 48  1  0  0  0  0 
 47 49  2  0  0  0  0 
 49 50  1  0  0  0  0 
 49 51  1  0  0  0  0 
 42 51  1  0  0  0  0 
M  END
> <Rank>
33

> <Priority_score>
0.06877588132078481

> <Reaction_type>
alkyl dehydrogenation

> <Parent_ID>
44

> <Parent_InChI>
InChI=1S/C19H25N5O4/c1-26-15-10-12-13(11-16(15)27-2)21-19(22-17(12)20)24-7-5-23(6-8-24)18(25)14-4-3-9-28-14/h10-11,14H,3-9H2,1-2H3,(H2,20,21,22)

> <Parent_SMILES>
COc1cc2nc(N3CCN(C(=O)C4CCCO4)CC3)nc(N)c2cc1OC

$$$$
Molecule 44_metabolite 34
  CDK     0516241031

 54 57  0  0  0  0  0  0  0  0999 V2000
   -5.6135   -2.4305    0.0000 C   0  0  0  0  0  0  0  0  0  0  0  0
   -6.9124   -3.1807    0.0000 H   0  0  0  0  0  0  0  0  0  0  0  0
   -4.6495   -1.2813    0.0000 H   0  0  0  0  0  0  0  0  0  0  0  0
   -6.5779   -1.2816    0.0000 H   0  0  0  0  0  0  0  0  0  0  0  0
   -4.3143   -3.1803    0.0000 O   0  0  0  0  0  0  0  0  0  0  0  0
   -3.0154   -2.4301    0.0000 C   0  0  0  0  0  0  0  0  0  0  0  0
   -1.7154   -3.1801    0.0000 C   0  0  0  0  0  0  0  0  0  0  0  0
   -1.7154   -4.6801    0.0000 H   0  0  0  0  0  0  0  0  0  0  0  0
   -0.4154   -2.4301    0.0000 C   0  0  0  0  0  0  0  0  0  0  0  0
    0.8846   -3.1801    0.0000 C   0  0  0  0  0  0  0  0  0  0  0  0
    0.8846   -4.6801    0.0000 N   0  0  0  0  0  0  0  0  0  0  0  0
    2.1836   -5.4301    0.0000 H   0  0  0  0  0  0  0  0  0  0  0  0
   -0.4145   -5.4301    0.0000 H   0  0  0  0  0  0  0  0  0  0  0  0
    2.1846   -2.4301    0.0000 N   0  0  0  0  0  0  0  0  0  0  0  0
    2.1846   -0.9301    0.0000 C   0  0  0  0  0  0  0  0  0  0  0  0
    0.8846   -0.1801    0.0000 N   0  0  0  0  0  0  0  0  0  0  0  0
   -0.4154   -0.9301    0.0000 C   0  0  0  0  0  0  0  0  0  0  0  0
   -1.7154   -0.1801    0.0000 C   0  0  0  0  0  0  0  0  0  0  0  0
   -3.0154   -0.9301    0.0000 C   0  0  0  0  0  0  0  0  0  0  0  0
   -4.3143   -0.1799    0.0000 O   0  0  0  0  0  0  0  0  0  0  0  0
   -4.3141    1.3201    0.0000 C   0  0  0  0  0  0  0  0  0  0  0  0
   -5.6130    2.0703    0.0000 H   0  0  0  0  0  0  0  0  0  0  0  0
   -2.8369    1.0594    0.0000 H   0  0  0  0  0  0  0  0  0  0  0  0
   -3.8008    2.7296    0.0000 H   0  0  0  0  0  0  0  0  0  0  0  0
   -1.7154    1.3199    0.0000 O   0  0  0  0  0  0  0  0  0  0  0  0
   -0.4164    2.0699    0.0000 H   0  0  0  0  0  0  0  0  0  0  0  0
    3.4835   -0.1799    0.0000 N   0  0  0  0  0  0  0  0  0  0  0  0
    4.7835   -0.9299    0.0000 C   0  0  0  0  0  0  0  0  0  0  0  0
    3.8194   -2.0790    0.0000 H   0  0  0  0  0  0  0  0  0  0  0  0
    5.7476   -2.0790    0.0000 H   0  0  0  0  0  0  0  0  0  0  0  0
    6.0835   -0.1799    0.0000 C   0  0  0  0  0  0  0  0  0  0  0  0
    6.5962   -1.5895    0.0000 H   0  0  0  0  0  0  0  0  0  0  0  0
    7.5607    0.0805    0.0000 H   0  0  0  0  0  0  0  0  0  0  0  0
    6.0835    1.3201    0.0000 N   0  0  0  0  0  0  0  0  0  0  0  0
    4.7835    2.0701    0.0000 C   0  0  0  0  0  0  0  0  0  0  0  0
    5.7476    3.2193    0.0000 H   0  0  0  0  0  0  0  0  0  0  0  0
    3.8194    3.2193    0.0000 H   0  0  0  0  0  0  0  0  0  0  0  0
    3.4835    1.3201    0.0000 C   0  0  0  0  0  0  0  0  0  0  0  0
    2.9708    2.7298    0.0000 H   0  0  0  0  0  0  0  0  0  0  0  0
    2.0063    1.0598    0.0000 H   0  0  0  0  0  0  0  0  0  0  0  0
    7.7981    2.3104    0.0000 C   0  0  0  0  0  0  0  0  0  0  0  0
    7.7976    5.2504    0.0000 O   0  0  0  0  0  0  0  0  0  0  0  0
    9.5130    1.3207    0.0000 C   0  0  0  0  0  0  0  0  0  0  0  0
    8.6351    0.1044    0.0000 H   0  0  0  0  0  0  0  0  0  0  0  0
   10.1252    2.6854    0.0000 C   0  0  0  0  0  0  0  0  0  0  0  0
   10.4358    4.1529    0.0000 H   0  0  0  0  0  0  0  0  0  0  0  0
    8.6990    3.1504    0.0000 H   0  0  0  0  0  0  0  0  0  0  0  0
   11.6174    2.5326    0.0000 C   0  0  0  0  0  0  0  0  0  0  0  0
   13.1088    2.6925    0.0000 H   0  0  0  0  0  0  0  0  0  0  0  0
   11.6138    4.0326    0.0000 H   0  0  0  0  0  0  0  0  0  0  0  0
   11.9303    1.0731    0.0000 C   0  0  0  0  0  0  0  0  0  0  0  0
   12.5441   -0.2955    0.0000 H   0  0  0  0  0  0  0  0  0  0  0  0
   13.3559    1.5399    0.0000 H   0  0  0  0  0  0  0  0  0  0  0  0
   10.6370    0.3210    0.0000 O   0  0  0  0  0  0  0  0  0  0  0  0
  1  2  1  0  0  0  0 
  1  3  1  0  0  0  0 
  1  4  1  0  0  0  0 
  1  5  1  0  0  0  0 
  5  6  1  0  0  0  0 
  6  7  2  0  0  0  0 
  7  8  1  0  0  0  0 
  7  9  1  0  0  0  0 
  9 10  2  0  0  0  0 
 10 11  1  0  0  0  0 
 11 12  1  0  0  0  0 
 11 13  1  0  0  0  0 
 10 14  1  0  0  0  0 
 14 15  2  0  0  0  0 
 15 16  1  0  0  0  0 
 16 17  2  0  0  0  0 
  9 17  1  0  0  0  0 
 17 18  1  0  0  0  0 
 18 19  2  0  0  0  0 
  6 19  1  0  0  0  0 
 19 20  1  0  0  0  0 
 20 21  1  0  0  0  0 
 21 22  1  0  0  0  0 
 21 23  1  0  0  0  0 
 21 24  1  0  0  0  0 
 18 25  1  0  0  0  0 
 25 26  1  0  0  0  0 
 15 27  1  0  0  0  0 
 27 28  1  0  0  0  0 
 28 29  1  0  0  0  0 
 28 30  1  0  0  0  0 
 28 31  1  0  0  0  0 
 31 32  1  0  0  0  0 
 31 33  1  0  0  0  0 
 31 34  1  0  0  0  0 
 34 35  1  0  0  0  0 
 35 36  1  0  0  0  0 
 35 37  1  0  0  0  0 
 35 38  1  0  0  0  0 
 27 38  1  0  0  0  0 
 38 39  1  0  0  0  0 
 38 40  1  0  0  0  0 
 34 41  1  0  0  0  0 
 41 42  2  0  0  0  0 
 41 43  1  0  0  0  0 
 43 44  1  0  0  0  0 
 43 45  1  0  0  0  0 
 45 46  1  0  0  0  0 
 45 47  1  0  0  0  0 
 45 48  1  0  0  0  0 
 48 49  1  0  0  0  0 
 48 50  1  0  0  0  0 
 48 51  1  0  0  0  0 
 51 52  1  0  0  0  0 
 51 53  1  0  0  0  0 
 51 54  1  0  0  0  0 
 43 54  1  0  0  0  0 
M  END
> <Rank>
34

> <Priority_score>
0.068

> <Reaction_type>
aromatic_hydroxylation_(ortho_to_2_substituents)

> <Parent_ID>
44

> <Parent_InChI>
InChI=1S/C19H25N5O4/c1-26-15-10-12-13(11-16(15)27-2)21-19(22-17(12)20)24-7-5-23(6-8-24)18(25)14-4-3-9-28-14/h10-11,14H,3-9H2,1-2H3,(H2,20,21,22)

> <Parent_SMILES>
COc1cc2nc(N3CCN(C(=O)C4CCCO4)CC3)nc(N)c2cc1OC

$$$$
Molecule 44_metabolite 35
  CDK     0516241031

 74 78  0  0  0  0  0  0  0  0999 V2000
    5.3494   -6.0700    0.0000 C   0  0  0  0  0  0  0  0  0  0  0  0
    6.6490   -6.8189    0.0000 H   0  0  0  0  0  0  0  0  0  0  0  0
    3.8719   -5.8107    0.0000 H   0  0  0  0  0  0  0  0  0  0  0  0
    4.8375   -7.4799    0.0000 H   0  0  0  0  0  0  0  0  0  0  0  0
    5.3482   -4.5700    0.0000 O   0  0  0  0  0  0  0  0  0  0  0  0
    4.0485   -3.8210    0.0000 C   0  0  0  0  0  0  0  0  0  0  0  0
    4.0471   -2.3202    0.0000 C   0  0  0  0  0  0  0  0  0  0  0  0
    5.3456   -1.5693    0.0000 H   0  0  0  0  0  0  0  0  0  0  0  0
    2.7471   -1.5702    0.0000 C   0  0  0  0  0  0  0  0  0  0  0  0
    2.7456   -0.0693    0.0000 C   0  0  0  0  0  0  0  0  0  0  0  0
    4.0442    0.6815    0.0000 N   0  0  0  0  0  0  0  0  0  0  0  0
    4.0432    2.1815    0.0000 H   0  0  0  0  0  0  0  0  0  0  0  0
    5.3437   -0.0677    0.0000 H   0  0  0  0  0  0  0  0  0  0  0  0
    1.4456    0.6807    0.0000 N   0  0  0  0  0  0  0  0  0  0  0  0
    0.1471   -0.0702    0.0000 C   0  0  0  0  0  0  0  0  0  0  0  0
    0.1485   -1.5710    0.0000 N   0  0  0  0  0  0  0  0  0  0  0  0
    1.4485   -2.3210    0.0000 C   0  0  0  0  0  0  0  0  0  0  0  0
    1.4500   -3.8218    0.0000 C   0  0  0  0  0  0  0  0  0  0  0  0
    0.1514   -4.5727    0.0000 H   0  0  0  0  0  0  0  0  0  0  0  0
    2.7500   -4.5718    0.0000 C   0  0  0  0  0  0  0  0  0  0  0  0
    2.7507   -6.0718    0.0000 O   0  0  0  0  0  0  0  0  0  0  0  0
    1.4520   -6.8225    0.0000 C   0  0  0  0  0  0  0  0  0  0  0  0
    1.4527   -8.3225    0.0000 H   0  0  0  0  0  0  0  0  0  0  0  0
    0.9383   -5.4132    0.0000 H   0  0  0  0  0  0  0  0  0  0  0  0
   -0.0251   -7.0837    0.0000 H   0  0  0  0  0  0  0  0  0  0  0  0
   -1.9843    1.1581    0.0000 N   0  0  0  0  0  0  0  0  0  0  0  0
   -3.2836    0.4069    0.0000 C   0  0  0  0  0  0  0  0  0  0  0  0
   -2.3184   -0.7414    0.0000 H   0  0  0  0  0  0  0  0  0  0  0  0
   -4.2466   -0.7432    0.0000 H   0  0  0  0  0  0  0  0  0  0  0  0
   -4.5843    1.1556    0.0000 C   0  0  0  0  0  0  0  0  0  0  0  0
   -5.0957   -0.2545    0.0000 H   0  0  0  0  0  0  0  0  0  0  0  0
   -6.0618    1.4145    0.0000 H   0  0  0  0  0  0  0  0  0  0  0  0
   -4.5858    2.6556    0.0000 N   0  0  0  0  0  0  0  0  0  0  0  0
   -3.2865    3.4069    0.0000 C   0  0  0  0  0  0  0  0  0  0  0  0
   -4.2516    4.5551    0.0000 H   0  0  0  0  0  0  0  0  0  0  0  0
   -2.3235    4.5570    0.0000 H   0  0  0  0  0  0  0  0  0  0  0  0
   -1.9858    2.6581    0.0000 C   0  0  0  0  0  0  0  0  0  0  0  0
   -1.3108    4.5195    0.0000 H   0  0  0  0  0  0  0  0  0  0  0  0
   -0.6859    1.9095    0.0000 H   0  0  0  0  0  0  0  0  0  0  0  0
   -5.8854    3.4046    0.0000 C   0  0  0  0  0  0  0  0  0  0  0  0
   -5.8866    4.9046    0.0000 O   0  0  0  0  0  0  0  0  0  0  0  0
   -8.0148    2.1729    0.0000 C   0  0  0  0  0  0  0  0  0  0  0  0
   -7.1358    0.9574    0.0000 H   0  0  0  0  0  0  0  0  0  0  0  0
   -8.6284    3.5370    0.0000 C   0  0  0  0  0  0  0  0  0  0  0  0
   -8.9404    5.0042    0.0000 H   0  0  0  0  0  0  0  0  0  0  0  0
   -7.2027    4.0033    0.0000 H   0  0  0  0  0  0  0  0  0  0  0  0
  -10.1204    3.3828    0.0000 C   0  0  0  0  0  0  0  0  0  0  0  0
  -11.6120    3.5412    0.0000 H   0  0  0  0  0  0  0  0  0  0  0  0
  -10.1183    4.8828    0.0000 H   0  0  0  0  0  0  0  0  0  0  0  0
  -10.4320    1.9230    0.0000 C   0  0  0  0  0  0  0  0  0  0  0  0
  -11.0444    0.5537    0.0000 H   0  0  0  0  0  0  0  0  0  0  0  0
  -11.8580    2.3883    0.0000 H   0  0  0  0  0  0  0  0  0  0  0  0
   -9.1379    1.1721    0.0000 O   0  0  0  0  0  0  0  0  0  0  0  0
    1.4442    3.6207    0.0000 C   0  0  0  0  0  0  0  0  0  0  0  0
   -0.0329    3.3596    0.0000 H   0  0  0  0  0  0  0  0  0  0  0  0
    0.9308    5.0301    0.0000 C   0  0  0  0  0  0  0  0  0  0  0  0
   -0.3681    4.2798    0.0000 H   0  0  0  0  0  0  0  0  0  0  0  0
    1.8956    6.1797    0.0000 C   0  0  0  0  0  0  0  0  0  0  0  0
    0.5964    6.9295    0.0000 H   0  0  0  0  0  0  0  0  0  0  0  0
    3.3738    5.9200    0.0000 C   0  0  0  0  0  0  0  0  0  0  0  0
    3.3731    7.4200    0.0000 H   0  0  0  0  0  0  0  0  0  0  0  0
    3.8872    4.5106    0.0000 C   0  0  0  0  0  0  0  0  0  0  0  0
    5.1861    5.2608    0.0000 H   0  0  0  0  0  0  0  0  0  0  0  0
    5.1600    2.9939    0.0000 C   0  0  0  0  0  0  0  0  0  0  0  0
    4.6470    1.5843    0.0000 O   0  0  0  0  0  0  0  0  0  0  0  0
    6.6372    3.2544    0.0000 O   0  0  0  0  0  0  0  0  0  0  0  0
    7.1501    4.6640    0.0000 H   0  0  0  0  0  0  0  0  0  0  0  0
    2.9224    3.3609    0.0000 O   0  0  0  0  0  0  0  0  0  0  0  0
    4.8509    6.1810    0.0000 O   0  0  0  0  0  0  0  0  0  0  0  0
    5.3634    7.5907    0.0000 H   0  0  0  0  0  0  0  0  0  0  0  0
    2.4081    7.5894    0.0000 O   0  0  0  0  0  0  0  0  0  0  0  0
    1.4435    8.7381    0.0000 H   0  0  0  0  0  0  0  0  0  0  0  0
   -0.6505    6.9144    0.0000 O   0  0  0  0  0  0  0  0  0  0  0  0
   -0.1376    8.3240    0.0000 H   0  0  0  0  0  0  0  0  0  0  0  0
  1  2  1  0  0  0  0 
  1  3  1  0  0  0  0 
  1  4  1  0  0  0  0 
  1  5  1  0  0  0  0 
  5  6  1  0  0  0  0 
  6  7  2  0  0  0  0 
  7  8  1  0  0  0  0 
  7  9  1  0  0  0  0 
  9 10  2  0  0  0  0 
 10 11  1  0  0  0  0 
 11 12  1  0  0  0  0 
 11 13  1  0  0  0  0 
 10 14  1  0  0  0  0 
 14 15  2  0  0  0  0 
 15 16  1  0  0  0  0 
 16 17  2  0  0  0  0 
  9 17  1  0  0  0  0 
 17 18  1  0  0  0  0 
 18 19  1  0  0  0  0 
 18 20  2  0  0  0  0 
  6 20  1  0  0  0  0 
 20 21  1  0  0  0  0 
 21 22  1  0  0  0  0 
 22 23  1  0  0  0  0 
 22 24  1  0  0  0  0 
 22 25  1  0  0  0  0 
 15 26  1  0  0  0  0 
 26 27  1  0  0  0  0 
 27 28  1  0  0  0  0 
 27 29  1  0  0  0  0 
 27 30  1  0  0  0  0 
 30 31  1  0  0  0  0 
 30 32  1  0  0  0  0 
 30 33  1  0  0  0  0 
 33 34  1  0  0  0  0 
 34 35  1  0  0  0  0 
 34 36  1  0  0  0  0 
 34 37  1  0  0  0  0 
 26 37  1  0  0  0  0 
 37 38  1  0  0  0  0 
 37 39  1  0  0  0  0 
 33 40  1  0  0  0  0 
 40 41  2  0  0  0  0 
 40 42  1  0  0  0  0 
 42 43  1  0  0  0  0 
 42 44  1  0  0  0  0 
 44 45  1  0  0  0  0 
 44 46  1  0  0  0  0 
 44 47  1  0  0  0  0 
 47 48  1  0  0  0  0 
 47 49  1  0  0  0  0 
 47 50  1  0  0  0  0 
 50 51  1  0  0  0  0 
 50 52  1  0  0  0  0 
 50 53  1  0  0  0  0 
 42 53  1  0  0  0  0 
 14 54  1  0  0  0  0 
 54 55  1  0  0  0  0 
 54 56  1  0  0  0  0 
 56 57  1  0  0  0  0 
 56 58  1  0  0  0  0 
 58 59  1  0  0  0  0 
 58 60  1  0  0  0  0 
 60 61  1  0  0  0  0 
 60 62  1  0  0  0  0 
 62 63  1  0  0  0  0 
 62 64  1  0  0  0  0 
 64 65  2  0  0  0  0 
 64 66  1  0  0  0  0 
 66 67  1  0  0  0  0 
 62 68  1  0  0  0  0 
 54 68  1  0  0  0  0 
 60 69  1  0  0  0  0 
 69 70  1  0  0  0  0 
 58 71  1  0  0  0  0 
 71 72  1  0  0  0  0 
 56 73  1  0  0  0  0 
 73 74  1  0  0  0  0 
M  CHG  1  14   1
M  END
> <Rank>
35

> <Priority_score>
0.044

> <Reaction_type>
N-glucuronidation_(aromatic_=n-)

> <Parent_ID>
44

> <Parent_InChI>
InChI=1S/C19H25N5O4/c1-26-15-10-12-13(11-16(15)27-2)21-19(22-17(12)20)24-7-5-23(6-8-24)18(25)14-4-3-9-28-14/h10-11,14H,3-9H2,1-2H3,(H2,20,21,22)

> <Parent_SMILES>
COc1cc2nc(N3CCN(C(=O)C4CCCO4)CC3)nc(N)c2cc1OC

$$$$
Molecule 44_metabolite 36
  CDK     0516241031

 54 57  0  0  0  0  0  0  0  0999 V2000
   -5.6135   -0.9297    0.0000 C   0  0  0  0  0  0  0  0  0  0  0  0
   -6.9124   -0.1794    0.0000 H   0  0  0  0  0  0  0  0  0  0  0  0
   -6.5779   -2.0786    0.0000 H   0  0  0  0  0  0  0  0  0  0  0  0
   -4.6495   -2.0789    0.0000 H   0  0  0  0  0  0  0  0  0  0  0  0
   -4.3143   -0.1799    0.0000 O   0  0  0  0  0  0  0  0  0  0  0  0
   -3.0154   -0.9301    0.0000 C   0  0  0  0  0  0  0  0  0  0  0  0
   -1.7154   -0.1801    0.0000 C   0  0  0  0  0  0  0  0  0  0  0  0
   -1.7154    1.3199    0.0000 H   0  0  0  0  0  0  0  0  0  0  0  0
   -0.4154   -0.9301    0.0000 C   0  0  0  0  0  0  0  0  0  0  0  0
    0.8846   -0.1801    0.0000 N   0  0  0  0  0  0  0  0  0  0  0  0
    2.1846   -0.9301    0.0000 C   0  0  0  0  0  0  0  0  0  0  0  0
    2.1846   -2.4301    0.0000 N   0  0  0  0  0  0  0  0  0  0  0  0
    0.8846   -3.1801    0.0000 C   0  0  0  0  0  0  0  0  0  0  0  0
   -0.4154   -2.4301    0.0000 C   0  0  0  0  0  0  0  0  0  0  0  0
   -1.7154   -3.1801    0.0000 C   0  0  0  0  0  0  0  0  0  0  0  0
   -3.0154   -2.4301    0.0000 C   0  0  0  0  0  0  0  0  0  0  0  0
   -4.3143   -3.1803    0.0000 O   0  0  0  0  0  0  0  0  0  0  0  0
   -4.3141   -4.6803    0.0000 C   0  0  0  0  0  0  0  0  0  0  0  0
   -5.6130   -5.4305    0.0000 H   0  0  0  0  0  0  0  0  0  0  0  0
   -3.8008   -6.0897    0.0000 H   0  0  0  0  0  0  0  0  0  0  0  0
   -2.8369   -4.4196    0.0000 H   0  0  0  0  0  0  0  0  0  0  0  0
   -1.7154   -4.6801    0.0000 O   0  0  0  0  0  0  0  0  0  0  0  0
   -3.0145   -5.4301    0.0000 H   0  0  0  0  0  0  0  0  0  0  0  0
    0.8846   -4.6801    0.0000 N   0  0  0  0  0  0  0  0  0  0  0  0
    2.1836   -5.4301    0.0000 H   0  0  0  0  0  0  0  0  0  0  0  0
   -0.4145   -5.4301    0.0000 H   0  0  0  0  0  0  0  0  0  0  0  0
    3.4835   -0.1799    0.0000 N   0  0  0  0  0  0  0  0  0  0  0  0
    4.7835   -0.9299    0.0000 C   0  0  0  0  0  0  0  0  0  0  0  0
    3.8194   -2.0790    0.0000 H   0  0  0  0  0  0  0  0  0  0  0  0
    5.7476   -2.0790    0.0000 H   0  0  0  0  0  0  0  0  0  0  0  0
    6.0835   -0.1799    0.0000 C   0  0  0  0  0  0  0  0  0  0  0  0
    6.5962   -1.5895    0.0000 H   0  0  0  0  0  0  0  0  0  0  0  0
    7.5607    0.0805    0.0000 H   0  0  0  0  0  0  0  0  0  0  0  0
    6.0835    1.3201    0.0000 N   0  0  0  0  0  0  0  0  0  0  0  0
    4.7835    2.0701    0.0000 C   0  0  0  0  0  0  0  0  0  0  0  0
    5.7476    3.2193    0.0000 H   0  0  0  0  0  0  0  0  0  0  0  0
    3.8194    3.2193    0.0000 H   0  0  0  0  0  0  0  0  0  0  0  0
    3.4835    1.3201    0.0000 C   0  0  0  0  0  0  0  0  0  0  0  0
    2.9708    2.7298    0.0000 H   0  0  0  0  0  0  0  0  0  0  0  0
    2.0063    1.0598    0.0000 H   0  0  0  0  0  0  0  0  0  0  0  0
    7.7981    2.3104    0.0000 C   0  0  0  0  0  0  0  0  0  0  0  0
    7.7976    5.2504    0.0000 O   0  0  0  0  0  0  0  0  0  0  0  0
    9.5130    1.3207    0.0000 C   0  0  0  0  0  0  0  0  0  0  0  0
    8.6351    0.1044    0.0000 H   0  0  0  0  0  0  0  0  0  0  0  0
   10.1252    2.6854    0.0000 C   0  0  0  0  0  0  0  0  0  0  0  0
   10.4358    4.1529    0.0000 H   0  0  0  0  0  0  0  0  0  0  0  0
    8.6990    3.1504    0.0000 H   0  0  0  0  0  0  0  0  0  0  0  0
   11.6174    2.5326    0.0000 C   0  0  0  0  0  0  0  0  0  0  0  0
   13.1088    2.6925    0.0000 H   0  0  0  0  0  0  0  0  0  0  0  0
   11.6138    4.0326    0.0000 H   0  0  0  0  0  0  0  0  0  0  0  0
   11.9303    1.0731    0.0000 C   0  0  0  0  0  0  0  0  0  0  0  0
   12.5441   -0.2955    0.0000 H   0  0  0  0  0  0  0  0  0  0  0  0
   13.3559    1.5399    0.0000 H   0  0  0  0  0  0  0  0  0  0  0  0
   10.6370    0.3210    0.0000 O   0  0  0  0  0  0  0  0  0  0  0  0
  1  2  1  0  0  0  0 
  1  3  1  0  0  0  0 
  1  4  1  0  0  0  0 
  1  5  1  0  0  0  0 
  5  6  1  0  0  0  0 
  6  7  2  0  0  0  0 
  7  8  1  0  0  0  0 
  7  9  1  0  0  0  0 
  9 10  2  0  0  0  0 
 10 11  1  0  0  0  0 
 11 12  2  0  0  0  0 
 12 13  1  0  0  0  0 
 13 14  2  0  0  0  0 
  9 14  1  0  0  0  0 
 14 15  1  0  0  0  0 
 15 16  2  0  0  0  0 
  6 16  1  0  0  0  0 
 16 17  1  0  0  0  0 
 17 18  1  0  0  0  0 
 18 19  1  0  0  0  0 
 18 20  1  0  0  0  0 
 18 21  1  0  0  0  0 
 15 22  1  0  0  0  0 
 22 23  1  0  0  0  0 
 13 24  1  0  0  0  0 
 24 25  1  0  0  0  0 
 24 26  1  0  0  0  0 
 11 27  1  0  0  0  0 
 27 28  1  0  0  0  0 
 28 29  1  0  0  0  0 
 28 30  1  0  0  0  0 
 28 31  1  0  0  0  0 
 31 32  1  0  0  0  0 
 31 33  1  0  0  0  0 
 31 34  1  0  0  0  0 
 34 35  1  0  0  0  0 
 35 36  1  0  0  0  0 
 35 37  1  0  0  0  0 
 35 38  1  0  0  0  0 
 27 38  1  0  0  0  0 
 38 39  1  0  0  0  0 
 38 40  1  0  0  0  0 
 34 41  1  0  0  0  0 
 41 42  2  0  0  0  0 
 41 43  1  0  0  0  0 
 43 44  1  0  0  0  0 
 43 45  1  0  0  0  0 
 45 46  1  0  0  0  0 
 45 47  1  0  0  0  0 
 45 48  1  0  0  0  0 
 48 49  1  0  0  0  0 
 48 50  1  0  0  0  0 
 48 51  1  0  0  0  0 
 51 52  1  0  0  0  0 
 51 53  1  0  0  0  0 
 51 54  1  0  0  0  0 
 43 54  1  0  0  0  0 
M  END
> <Rank>
35

> <Priority_score>
0.044

> <Reaction_type>
aromatic_hydroxylation_(ortho_to_2_substituents)

> <Parent_ID>
44

> <Parent_InChI>
InChI=1S/C19H25N5O4/c1-26-15-10-12-13(11-16(15)27-2)21-19(22-17(12)20)24-7-5-23(6-8-24)18(25)14-4-3-9-28-14/h10-11,14H,3-9H2,1-2H3,(H2,20,21,22)

> <Parent_SMILES>
COc1cc2nc(N3CCN(C(=O)C4CCCO4)CC3)nc(N)c2cc1OC

$$$$
Molecule 44_metabolite 37
  CDK     0516241031

 51 55  0  0  0  0  0  0  0  0999 V2000
    0.0335   -5.1371    0.0000 C   0  0  0  0  0  0  0  0  0  0  0  0
   -1.4555   -4.9556    0.0000 H   0  0  0  0  0  0  0  0  0  0  0  0
    1.4947   -4.7984    0.0000 H   0  0  0  0  0  0  0  0  0  0  0  0
   -0.0463   -3.6392    0.0000 H   0  0  0  0  0  0  0  0  0  0  0  0
    0.6208   -6.5173    0.0000 O   0  0  0  0  0  0  0  0  0  0  0  0
    2.1097   -6.6988    0.0000 C   0  0  0  0  0  0  0  0  0  0  0  0
    3.0110   -5.5003    0.0000 C   0  0  0  0  0  0  0  0  0  0  0  0
    2.4232   -4.1203    0.0000 H   0  0  0  0  0  0  0  0  0  0  0  0
    4.5001   -5.6807    0.0000 C   0  0  0  0  0  0  0  0  0  0  0  0
    5.0717   -4.2913    0.0000 C   0  0  0  0  0  0  0  0  0  0  0  0
    6.4472   -3.7104    0.0000 N   0  0  0  0  0  0  0  0  0  0  0  0
    6.4356   -2.2105    0.0000 H   0  0  0  0  0  0  0  0  0  0  0  0
    7.8435   -4.2750    0.0000 C   0  0  0  0  0  0  0  0  0  0  0  0
    9.3435   -4.2791    0.0000 H   0  0  0  0  0  0  0  0  0  0  0  0
    8.7554   -3.0841    0.0000 C   0  0  0  0  0  0  0  0  0  0  0  0
    7.4238   -2.3935    0.0000 H   0  0  0  0  0  0  0  0  0  0  0  0
    9.2035   -1.6526    0.0000 H   0  0  0  0  0  0  0  0  0  0  0  0
   10.2421   -3.2759    0.0000 N   0  0  0  0  0  0  0  0  0  0  0  0
   10.8204   -4.6590    0.0000 C   0  0  0  0  0  0  0  0  0  0  0  0
   12.0826   -3.8486    0.0000 H   0  0  0  0  0  0  0  0  0  0  0  0
   11.8380   -5.7611    0.0000 H   0  0  0  0  0  0  0  0  0  0  0  0
    9.9126   -5.8519    0.0000 C   0  0  0  0  0  0  0  0  0  0  0  0
   11.2463   -6.5385    0.0000 H   0  0  0  0  0  0  0  0  0  0  0  0
    9.4688   -7.2848    0.0000 H   0  0  0  0  0  0  0  0  0  0  0  0
    8.4245   -5.6645    0.0000 N   0  0  0  0  0  0  0  0  0  0  0  0
    7.8599   -7.0468    0.0000 C   0  0  0  0  0  0  0  0  0  0  0  0
    5.7910   -6.3519    0.0000 N   0  0  0  0  0  0  0  0  0  0  0  0
    6.4774   -7.6348    0.0000 N   0  0  0  0  0  0  0  0  0  0  0  0
    5.0881   -7.0632    0.0000 C   0  0  0  0  0  0  0  0  0  0  0  0
    4.1853   -8.2609    0.0000 C   0  0  0  0  0  0  0  0  0  0  0  0
    4.7716   -9.6416    0.0000 H   0  0  0  0  0  0  0  0  0  0  0  0
    2.6967   -8.0789    0.0000 C   0  0  0  0  0  0  0  0  0  0  0  0
    1.7947   -9.2773    0.0000 O   0  0  0  0  0  0  0  0  0  0  0  0
    0.3058   -9.0954    0.0000 C   0  0  0  0  0  0  0  0  0  0  0  0
   -0.2812   -7.7150    0.0000 H   0  0  0  0  0  0  0  0  0  0  0  0
   -1.1556   -9.4337    0.0000 H   0  0  0  0  0  0  0  0  0  0  0  0
    0.3852  -10.5933    0.0000 H   0  0  0  0  0  0  0  0  0  0  0  0
   11.4428   -1.7015    0.0000 C   0  0  0  0  0  0  0  0  0  0  0  0
   10.3097    1.0113    0.0000 O   0  0  0  0  0  0  0  0  0  0  0  0
   13.4067   -1.9542    0.0000 C   0  0  0  0  0  0  0  0  0  0  0  0
   13.0651   -3.4148    0.0000 H   0  0  0  0  0  0  0  0  0  0  0  0
   13.4458   -0.4589    0.0000 C   0  0  0  0  0  0  0  0  0  0  0  0
   13.1671    1.0150    0.0000 H   0  0  0  0  0  0  0  0  0  0  0  0
   11.9507   -0.5793    0.0000 H   0  0  0  0  0  0  0  0  0  0  0  0
   14.8817   -0.0250    0.0000 C   0  0  0  0  0  0  0  0  0  0  0  0
   16.1964    0.6971    0.0000 H   0  0  0  0  0  0  0  0  0  0  0  0
   14.3005    1.3578    0.0000 H   0  0  0  0  0  0  0  0  0  0  0  0
   15.7328   -1.2513    0.0000 C   0  0  0  0  0  0  0  0  0  0  0  0
   16.8265   -2.2778    0.0000 H   0  0  0  0  0  0  0  0  0  0  0  0
   16.8685   -0.2714    0.0000 H   0  0  0  0  0  0  0  0  0  0  0  0
   14.8290   -2.4437    0.0000 O   0  0  0  0  0  0  0  0  0  0  0  0
  1  2  1  0  0  0  0 
  1  3  1  0  0  0  0 
  1  4  1  0  0  0  0 
  1  5  1  0  0  0  0 
  5  6  1  0  0  0  0 
  6  7  2  0  0  0  0 
  7  8  1  0  0  0  0 
  7  9  1  0  0  0  0 
  9 10  2  0  0  0  0 
 10 11  1  0  0  0  0 
 11 12  1  0  0  0  0 
 11 13  1  0  0  0  0 
 13 14  1  0  0  0  0 
 13 15  1  0  0  0  0 
 15 16  1  0  0  0  0 
 15 17  1  0  0  0  0 
 15 18  1  0  0  0  0 
 18 19  1  0  0  0  0 
 19 20  1  0  0  0  0 
 19 21  1  0  0  0  0 
 19 22  1  0  0  0  0 
 22 23  1  0  0  0  0 
 22 24  1  0  0  0  0 
 22 25  1  0  0  0  0 
 13 25  1  0  0  0  0 
 25 26  1  0  0  0  0 
 26 27  2  0  0  0  0 
 10 27  1  0  0  0  0 
 26 28  1  0  0  0  0 
 28 29  2  0  0  0  0 
  9 29  1  0  0  0  0 
 29 30  1  0  0  0  0 
 30 31  1  0  0  0  0 
 30 32  2  0  0  0  0 
  6 32  1  0  0  0  0 
 32 33  1  0  0  0  0 
 33 34  1  0  0  0  0 
 34 35  1  0  0  0  0 
 34 36  1  0  0  0  0 
 34 37  1  0  0  0  0 
 18 38  1  0  0  0  0 
 38 39  2  0  0  0  0 
 38 40  1  0  0  0  0 
 40 41  1  0  0  0  0 
 40 42  1  0  0  0  0 
 42 43  1  0  0  0  0 
 42 44  1  0  0  0  0 
 42 45  1  0  0  0  0 
 45 46  1  0  0  0  0 
 45 47  1  0  0  0  0 
 45 48  1  0  0  0  0 
 48 49  1  0  0  0  0 
 48 50  1  0  0  0  0 
 48 51  1  0  0  0  0 
 40 51  1  0  0  0  0 
M  END
> <Rank>
37

> <Priority_score>
0.038400000000000004

> <Reaction_type>
cyclization to 6-membered NCN ring

> <Parent_ID>
44

> <Parent_InChI>
InChI=1S/C19H25N5O4/c1-26-15-10-12-13(11-16(15)27-2)21-19(22-17(12)20)24-7-5-23(6-8-24)18(25)14-4-3-9-28-14/h10-11,14H,3-9H2,1-2H3,(H2,20,21,22)

> <Parent_SMILES>
COc1cc2nc(N3CCN(C(=O)C4CCCO4)CC3)nc(N)c2cc1OC

$$$$
Molecule 44_metabolite 38
  CDK     0516241031

 11 11  0  0  0  0  0  0  0  0999 V2000
    0.7500    1.0300    0.0000 C   0  0  0  0  0  0  0  0  0  0  0  0
    1.6322    2.2431    0.0000 H   0  0  0  0  0  0  0  0  0  0  0  0
    1.2100   -0.3900    0.0000 C   0  0  0  0  0  0  0  0  0  0  0  0
    2.6377   -0.8500    0.0000 H   0  0  0  0  0  0  0  0  0  0  0  0
   -0.0000   -1.2800    0.0000 O   0  0  0  0  0  0  0  0  0  0  0  0
   -1.2100   -0.3900    0.0000 C   0  0  0  0  0  0  0  0  0  0  0  0
   -2.5795    0.2220    0.0000 H   0  0  0  0  0  0  0  0  0  0  0  0
   -1.9647   -1.6863    0.0000 H   0  0  0  0  0  0  0  0  0  0  0  0
   -0.7500    1.0300    0.0000 C   0  0  0  0  0  0  0  0  0  0  0  0
   -0.5936    2.5218    0.0000 H   0  0  0  0  0  0  0  0  0  0  0  0
   -2.2174    1.3410    0.0000 H   0  0  0  0  0  0  0  0  0  0  0  0
  1  2  1  0  0  0  0 
  1  3  2  0  0  0  0 
  3  4  1  0  0  0  0 
  3  5  1  0  0  0  0 
  5  6  1  0  0  0  0 
  6  7  1  0  0  0  0 
  6  8  1  0  0  0  0 
  6  9  1  0  0  0  0 
  1  9  1  0  0  0  0 
  9 10  1  0  0  0  0 
  9 11  1  0  0  0  0 
M  END
> <Rank>
38

> <Priority_score>
0.036

> <Reaction_type>
deformylation

> <Parent_ID>
44

> <Parent_InChI>
InChI=1S/C19H25N5O4/c1-26-15-10-12-13(11-16(15)27-2)21-19(22-17(12)20)24-7-5-23(6-8-24)18(25)14-4-3-9-28-14/h10-11,14H,3-9H2,1-2H3,(H2,20,21,22)

> <Parent_SMILES>
COc1cc2nc(N3CCN(C(=O)C4CCCO4)CC3)nc(N)c2cc1OC

$$$$
Molecule 44_metabolite 39
  CDK     0516241031

 42 44  0  0  0  0  0  0  0  0999 V2000
   -5.1981   -0.7504    0.0000 C   0  0  0  0  0  0  0  0  0  0  0  0
   -6.4970   -1.5006    0.0000 H   0  0  0  0  0  0  0  0  0  0  0  0
   -4.2341    0.3988    0.0000 H   0  0  0  0  0  0  0  0  0  0  0  0
   -6.1624    0.3985    0.0000 H   0  0  0  0  0  0  0  0  0  0  0  0
   -3.8989   -1.5002    0.0000 O   0  0  0  0  0  0  0  0  0  0  0  0
   -2.6000   -0.7500    0.0000 C   0  0  0  0  0  0  0  0  0  0  0  0
   -1.3000   -1.5000    0.0000 C   0  0  0  0  0  0  0  0  0  0  0  0
   -1.3000   -3.0000    0.0000 H   0  0  0  0  0  0  0  0  0  0  0  0
    0.0000   -0.7500    0.0000 C   0  0  0  0  0  0  0  0  0  0  0  0
    1.3000   -1.5000    0.0000 C   0  0  0  0  0  0  0  0  0  0  0  0
    1.3000   -3.0000    0.0000 N   0  0  0  0  0  0  0  0  0  0  0  0
    2.5990   -3.7500    0.0000 H   0  0  0  0  0  0  0  0  0  0  0  0
    0.0010   -3.7500    0.0000 H   0  0  0  0  0  0  0  0  0  0  0  0
    2.6000   -0.7500    0.0000 N   0  0  0  0  0  0  0  0  0  0  0  0
    2.6000    0.7500    0.0000 C   0  0  0  0  0  0  0  0  0  0  0  0
    1.3000    1.5000    0.0000 N   0  0  0  0  0  0  0  0  0  0  0  0
    0.0000    0.7500    0.0000 C   0  0  0  0  0  0  0  0  0  0  0  0
   -1.3000    1.5000    0.0000 C   0  0  0  0  0  0  0  0  0  0  0  0
   -1.3000    3.0000    0.0000 H   0  0  0  0  0  0  0  0  0  0  0  0
   -2.6000    0.7500    0.0000 C   0  0  0  0  0  0  0  0  0  0  0  0
   -3.8989    1.5002    0.0000 O   0  0  0  0  0  0  0  0  0  0  0  0
   -3.8987    3.0002    0.0000 C   0  0  0  0  0  0  0  0  0  0  0  0
   -5.1976    3.7504    0.0000 H   0  0  0  0  0  0  0  0  0  0  0  0
   -2.4215    2.7395    0.0000 H   0  0  0  0  0  0  0  0  0  0  0  0
   -3.3854    4.4097    0.0000 H   0  0  0  0  0  0  0  0  0  0  0  0
    3.8989    1.5002    0.0000 N   0  0  0  0  0  0  0  0  0  0  0  0
    5.1989    0.7502    0.0000 C   0  0  0  0  0  0  0  0  0  0  0  0
    4.2349   -0.3990    0.0000 H   0  0  0  0  0  0  0  0  0  0  0  0
    6.1630   -0.3990    0.0000 H   0  0  0  0  0  0  0  0  0  0  0  0
    6.4989    1.5002    0.0000 C   0  0  0  0  0  0  0  0  0  0  0  0
    7.0116    0.0906    0.0000 H   0  0  0  0  0  0  0  0  0  0  0  0
    7.9762    1.7605    0.0000 H   0  0  0  0  0  0  0  0  0  0  0  0
    6.4989    3.0002    0.0000 N   0  0  0  0  0  0  0  0  0  0  0  0
    5.1989    3.7502    0.0000 C   0  0  0  0  0  0  0  0  0  0  0  0
    6.1630    4.8994    0.0000 H   0  0  0  0  0  0  0  0  0  0  0  0
    4.2349    4.8994    0.0000 H   0  0  0  0  0  0  0  0  0  0  0  0
    3.8989    3.0002    0.0000 C   0  0  0  0  0  0  0  0  0  0  0  0
    3.3862    4.4099    0.0000 H   0  0  0  0  0  0  0  0  0  0  0  0
    2.4217    2.7399    0.0000 H   0  0  0  0  0  0  0  0  0  0  0  0
    7.7978    3.7504    0.0000 C   0  0  0  0  0  0  0  0  0  0  0  0
    9.0970    3.0006    0.0000 H   0  0  0  0  0  0  0  0  0  0  0  0
    7.7976    5.2504    0.0000 O   0  0  0  0  0  0  0  0  0  0  0  0
  1  2  1  0  0  0  0 
  1  3  1  0  0  0  0 
  1  4  1  0  0  0  0 
  1  5  1  0  0  0  0 
  5  6  1  0  0  0  0 
  6  7  2  0  0  0  0 
  7  8  1  0  0  0  0 
  7  9  1  0  0  0  0 
  9 10  2  0  0  0  0 
 10 11  1  0  0  0  0 
 11 12  1  0  0  0  0 
 11 13  1  0  0  0  0 
 10 14  1  0  0  0  0 
 14 15  2  0  0  0  0 
 15 16  1  0  0  0  0 
 16 17  2  0  0  0  0 
  9 17  1  0  0  0  0 
 17 18  1  0  0  0  0 
 18 19  1  0  0  0  0 
 18 20  2  0  0  0  0 
  6 20  1  0  0  0  0 
 20 21  1  0  0  0  0 
 21 22  1  0  0  0  0 
 22 23  1  0  0  0  0 
 22 24  1  0  0  0  0 
 22 25  1  0  0  0  0 
 15 26  1  0  0  0  0 
 26 27  1  0  0  0  0 
 27 28  1  0  0  0  0 
 27 29  1  0  0  0  0 
 27 30  1  0  0  0  0 
 30 31  1  0  0  0  0 
 30 32  1  0  0  0  0 
 30 33  1  0  0  0  0 
 33 34  1  0  0  0  0 
 34 35  1  0  0  0  0 
 34 36  1  0  0  0  0 
 34 37  1  0  0  0  0 
 26 37  1  0  0  0  0 
 37 38  1  0  0  0  0 
 37 39  1  0  0  0  0 
 33 40  1  0  0  0  0 
 40 41  1  0  0  0  0 
 40 42  2  0  0  0  0 
M  END
> <Rank>
38

> <Priority_score>
0.036

> <Reaction_type>
deformylation

> <Parent_ID>
44

> <Parent_InChI>
InChI=1S/C19H25N5O4/c1-26-15-10-12-13(11-16(15)27-2)21-19(22-17(12)20)24-7-5-23(6-8-24)18(25)14-4-3-9-28-14/h10-11,14H,3-9H2,1-2H3,(H2,20,21,22)

> <Parent_SMILES>
COc1cc2nc(N3CCN(C(=O)C4CCCO4)CC3)nc(N)c2cc1OC

$$$$
Molecule 44_metabolite 40
  CDK     0516241031

 52 55  0  0  0  0  0  0  0  0999 V2000
   -5.6135   -2.4305    0.0000 C   0  0  0  0  0  0  0  0  0  0  0  0
   -6.9124   -3.1807    0.0000 H   0  0  0  0  0  0  0  0  0  0  0  0
   -4.6495   -1.2813    0.0000 H   0  0  0  0  0  0  0  0  0  0  0  0
   -6.5779   -1.2816    0.0000 H   0  0  0  0  0  0  0  0  0  0  0  0
   -4.3143   -3.1803    0.0000 O   0  0  0  0  0  0  0  0  0  0  0  0
   -3.0154   -2.4301    0.0000 C   0  0  0  0  0  0  0  0  0  0  0  0
   -1.7154   -3.1801    0.0000 C   0  0  0  0  0  0  0  0  0  0  0  0
   -1.7154   -4.6801    0.0000 H   0  0  0  0  0  0  0  0  0  0  0  0
   -0.4154   -2.4301    0.0000 C   0  0  0  0  0  0  0  0  0  0  0  0
    0.8846   -3.1801    0.0000 C   0  0  0  0  0  0  0  0  0  0  0  0
    0.8846   -4.6801    0.0000 N   0  0  0  0  0  0  0  0  0  0  0  0
    2.1836   -5.4301    0.0000 H   0  0  0  0  0  0  0  0  0  0  0  0
   -0.4145   -5.4301    0.0000 H   0  0  0  0  0  0  0  0  0  0  0  0
    2.1846   -2.4301    0.0000 N   0  0  0  0  0  0  0  0  0  0  0  0
    2.1846   -0.9301    0.0000 C   0  0  0  0  0  0  0  0  0  0  0  0
    0.8846   -0.1801    0.0000 N   0  0  0  0  0  0  0  0  0  0  0  0
   -0.4154   -0.9301    0.0000 C   0  0  0  0  0  0  0  0  0  0  0  0
   -1.7154   -0.1801    0.0000 C   0  0  0  0  0  0  0  0  0  0  0  0
   -1.7154    1.3199    0.0000 H   0  0  0  0  0  0  0  0  0  0  0  0
   -3.0154   -0.9301    0.0000 C   0  0  0  0  0  0  0  0  0  0  0  0
   -4.3143   -0.1799    0.0000 O   0  0  0  0  0  0  0  0  0  0  0  0
   -4.3141    1.3201    0.0000 C   0  0  0  0  0  0  0  0  0  0  0  0
   -5.6130    2.0703    0.0000 H   0  0  0  0  0  0  0  0  0  0  0  0
   -2.8369    1.0594    0.0000 H   0  0  0  0  0  0  0  0  0  0  0  0
   -3.8008    2.7296    0.0000 H   0  0  0  0  0  0  0  0  0  0  0  0
    3.4835   -0.1799    0.0000 N   0  0  0  0  0  0  0  0  0  0  0  0
    4.7835   -0.9299    0.0000 C   0  0  0  0  0  0  0  0  0  0  0  0
    4.7835   -2.4299    0.0000 H   0  0  0  0  0  0  0  0  0  0  0  0
    6.0835   -0.1799    0.0000 C   0  0  0  0  0  0  0  0  0  0  0  0
    6.5962   -1.5895    0.0000 H   0  0  0  0  0  0  0  0  0  0  0  0
    7.5607    0.0805    0.0000 H   0  0  0  0  0  0  0  0  0  0  0  0
    6.0835    1.3201    0.0000 N   0  0  0  0  0  0  0  0  0  0  0  0
    4.7835    2.0701    0.0000 C   0  0  0  0  0  0  0  0  0  0  0  0
    5.7476    3.2193    0.0000 H   0  0  0  0  0  0  0  0  0  0  0  0
    3.8194    3.2193    0.0000 H   0  0  0  0  0  0  0  0  0  0  0  0
    3.4835    1.3201    0.0000 C   0  0  0  0  0  0  0  0  0  0  0  0
    2.9708    2.7298    0.0000 H   0  0  0  0  0  0  0  0  0  0  0  0
    2.0063    1.0598    0.0000 H   0  0  0  0  0  0  0  0  0  0  0  0
    7.7981    2.3104    0.0000 C   0  0  0  0  0  0  0  0  0  0  0  0
    7.7976    5.2504    0.0000 O   0  0  0  0  0  0  0  0  0  0  0  0
    9.5130    1.3207    0.0000 C   0  0  0  0  0  0  0  0  0  0  0  0
    8.6351    0.1044    0.0000 H   0  0  0  0  0  0  0  0  0  0  0  0
   10.1252    2.6854    0.0000 C   0  0  0  0  0  0  0  0  0  0  0  0
   10.4358    4.1529    0.0000 H   0  0  0  0  0  0  0  0  0  0  0  0
    8.6990    3.1504    0.0000 H   0  0  0  0  0  0  0  0  0  0  0  0
   11.6174    2.5326    0.0000 C   0  0  0  0  0  0  0  0  0  0  0  0
   13.1088    2.6925    0.0000 H   0  0  0  0  0  0  0  0  0  0  0  0
   11.6138    4.0326    0.0000 H   0  0  0  0  0  0  0  0  0  0  0  0
   11.9303    1.0731    0.0000 C   0  0  0  0  0  0  0  0  0  0  0  0
   12.5441   -0.2955    0.0000 H   0  0  0  0  0  0  0  0  0  0  0  0
   13.3559    1.5399    0.0000 H   0  0  0  0  0  0  0  0  0  0  0  0
   10.6370    0.3210    0.0000 O   0  0  0  0  0  0  0  0  0  0  0  0
  1  2  1  0  0  0  0 
  1  3  1  0  0  0  0 
  1  4  1  0  0  0  0 
  1  5  1  0  0  0  0 
  5  6  1  0  0  0  0 
  6  7  2  0  0  0  0 
  7  8  1  0  0  0  0 
  7  9  1  0  0  0  0 
  9 10  2  0  0  0  0 
 10 11  1  0  0  0  0 
 11 12  1  0  0  0  0 
 11 13  1  0  0  0  0 
 10 14  1  0  0  0  0 
 14 15  2  0  0  0  0 
 15 16  1  0  0  0  0 
 16 17  2  0  0  0  0 
  9 17  1  0  0  0  0 
 17 18  1  0  0  0  0 
 18 19  1  0  0  0  0 
 18 20  2  0  0  0  0 
  6 20  1  0  0  0  0 
 20 21  1  0  0  0  0 
 21 22  1  0  0  0  0 
 22 23  1  0  0  0  0 
 22 24  1  0  0  0  0 
 22 25  1  0  0  0  0 
 15 26  1  0  0  0  0 
 26 27  2  0  0  0  0 
 27 28  1  0  0  0  0 
 27 29  1  0  0  0  0 
 29 30  1  0  0  0  0 
 29 31  1  0  0  0  0 
 29 32  1  0  0  0  0 
 32 33  1  0  0  0  0 
 33 34  1  0  0  0  0 
 33 35  1  0  0  0  0 
 33 36  1  0  0  0  0 
 26 36  1  0  0  0  0 
 36 37  1  0  0  0  0 
 36 38  1  0  0  0  0 
 32 39  1  0  0  0  0 
 39 40  2  0  0  0  0 
 39 41  1  0  0  0  0 
 41 42  1  0  0  0  0 
 41 43  1  0  0  0  0 
 43 44  1  0  0  0  0 
 43 45  1  0  0  0  0 
 43 46  1  0  0  0  0 
 46 47  1  0  0  0  0 
 46 48  1  0  0  0  0 
 46 49  1  0  0  0  0 
 49 50  1  0  0  0  0 
 49 51  1  0  0  0  0 
 49 52  1  0  0  0  0 
 41 52  1  0  0  0  0 
M  CHG  1  26   1
M  END
> <Rank>
40

> <Priority_score>
0.033600000000000005

> <Reaction_type>
dehydration of N-C bond

> <Parent_ID>
44

> <Parent_InChI>
InChI=1S/C19H25N5O4/c1-26-15-10-12-13(11-16(15)27-2)21-19(22-17(12)20)24-7-5-23(6-8-24)18(25)14-4-3-9-28-14/h10-11,14H,3-9H2,1-2H3,(H2,20,21,22)

> <Parent_SMILES>
COc1cc2nc(N3CCN(C(=O)C4CCCO4)CC3)nc(N)c2cc1OC

$$$$
Molecule 44_metabolite 41
  CDK     0516241031

 74 78  0  0  0  0  0  0  0  0999 V2000
   -4.3514   -4.1870    0.0000 C   0  0  0  0  0  0  0  0  0  0  0  0
   -5.6503   -4.9372    0.0000 H   0  0  0  0  0  0  0  0  0  0  0  0
   -2.8742   -3.9263    0.0000 H   0  0  0  0  0  0  0  0  0  0  0  0
   -3.8381   -5.5964    0.0000 H   0  0  0  0  0  0  0  0  0  0  0  0
   -4.3516   -2.6870    0.0000 O   0  0  0  0  0  0  0  0  0  0  0  0
   -3.0527   -1.9368    0.0000 C   0  0  0  0  0  0  0  0  0  0  0  0
   -1.7527   -2.6868    0.0000 C   0  0  0  0  0  0  0  0  0  0  0  0
   -1.7527   -4.1868    0.0000 H   0  0  0  0  0  0  0  0  0  0  0  0
   -0.4527   -1.9368    0.0000 C   0  0  0  0  0  0  0  0  0  0  0  0
    0.8473   -2.6868    0.0000 C   0  0  0  0  0  0  0  0  0  0  0  0
    0.8473   -4.1868    0.0000 N   0  0  0  0  0  0  0  0  0  0  0  0
    2.1463   -4.9368    0.0000 H   0  0  0  0  0  0  0  0  0  0  0  0
   -0.4517   -4.9368    0.0000 H   0  0  0  0  0  0  0  0  0  0  0  0
    2.1473   -1.9368    0.0000 N   0  0  0  0  0  0  0  0  0  0  0  0
    2.1473   -0.4368    0.0000 C   0  0  0  0  0  0  0  0  0  0  0  0
    4.2775    0.7936    0.0000 N   0  0  0  0  0  0  0  0  0  0  0  0
    5.5775    0.0436    0.0000 C   0  0  0  0  0  0  0  0  0  0  0  0
    4.6135   -1.1056    0.0000 H   0  0  0  0  0  0  0  0  0  0  0  0
    6.5416   -1.1056    0.0000 H   0  0  0  0  0  0  0  0  0  0  0  0
    6.8775    0.7936    0.0000 C   0  0  0  0  0  0  0  0  0  0  0  0
    7.3903   -0.6161    0.0000 H   0  0  0  0  0  0  0  0  0  0  0  0
    8.3548    1.0539    0.0000 H   0  0  0  0  0  0  0  0  0  0  0  0
    6.8775    2.2936    0.0000 N   0  0  0  0  0  0  0  0  0  0  0  0
    5.5775    3.0436    0.0000 C   0  0  0  0  0  0  0  0  0  0  0  0
    6.5416    4.1928    0.0000 H   0  0  0  0  0  0  0  0  0  0  0  0
    4.6135    4.1928    0.0000 H   0  0  0  0  0  0  0  0  0  0  0  0
    4.2775    2.2936    0.0000 C   0  0  0  0  0  0  0  0  0  0  0  0
    3.6007    4.1543    0.0000 H   0  0  0  0  0  0  0  0  0  0  0  0
    2.8003    2.0333    0.0000 H   0  0  0  0  0  0  0  0  0  0  0  0
    8.1765    3.0438    0.0000 C   0  0  0  0  0  0  0  0  0  0  0  0
    8.1762    4.5438    0.0000 O   0  0  0  0  0  0  0  0  0  0  0  0
   10.3071    1.8141    0.0000 C   0  0  0  0  0  0  0  0  0  0  0  0
    9.4292    0.5979    0.0000 H   0  0  0  0  0  0  0  0  0  0  0  0
   10.9193    3.1789    0.0000 C   0  0  0  0  0  0  0  0  0  0  0  0
   11.2299    4.6464    0.0000 H   0  0  0  0  0  0  0  0  0  0  0  0
    9.4932    3.6438    0.0000 H   0  0  0  0  0  0  0  0  0  0  0  0
   12.4115    3.0261    0.0000 C   0  0  0  0  0  0  0  0  0  0  0  0
   13.9029    3.1859    0.0000 H   0  0  0  0  0  0  0  0  0  0  0  0
   12.4079    4.5261    0.0000 H   0  0  0  0  0  0  0  0  0  0  0  0
   12.7244    1.5666    0.0000 C   0  0  0  0  0  0  0  0  0  0  0  0
   13.3382    0.1979    0.0000 H   0  0  0  0  0  0  0  0  0  0  0  0
   14.1500    2.0333    0.0000 H   0  0  0  0  0  0  0  0  0  0  0  0
   11.4311    0.8144    0.0000 O   0  0  0  0  0  0  0  0  0  0  0  0
    0.8473    0.3132    0.0000 N   0  0  0  0  0  0  0  0  0  0  0  0
   -0.4527   -0.4368    0.0000 C   0  0  0  0  0  0  0  0  0  0  0  0
   -1.7527    0.3132    0.0000 C   0  0  0  0  0  0  0  0  0  0  0  0
   -1.7527    1.8132    0.0000 H   0  0  0  0  0  0  0  0  0  0  0  0
   -3.0527   -0.4368    0.0000 C   0  0  0  0  0  0  0  0  0  0  0  0
   -4.3516    0.3135    0.0000 O   0  0  0  0  0  0  0  0  0  0  0  0
   -5.6508   -0.4363    0.0000 C   0  0  0  0  0  0  0  0  0  0  0  0
   -6.9497    0.3139    0.0000 H   0  0  0  0  0  0  0  0  0  0  0  0
   -6.6151   -1.5852    0.0000 H   0  0  0  0  0  0  0  0  0  0  0  0
   -4.6868   -1.5856    0.0000 H   0  0  0  0  0  0  0  0  0  0  0  0
    0.8473    2.2932    0.0000 C   0  0  0  0  0  0  0  0  0  0  0  0
    2.1464    1.5434    0.0000 H   0  0  0  0  0  0  0  0  0  0  0  0
    1.3600    3.7029    0.0000 C   0  0  0  0  0  0  0  0  0  0  0  0
    2.6593    2.9533    0.0000 H   0  0  0  0  0  0  0  0  0  0  0  0
    0.3947    4.8521    0.0000 C   0  0  0  0  0  0  0  0  0  0  0  0
    1.6935    5.6025    0.0000 H   0  0  0  0  0  0  0  0  0  0  0  0
   -1.0834    4.5916    0.0000 C   0  0  0  0  0  0  0  0  0  0  0  0
   -1.0834    6.0916    0.0000 H   0  0  0  0  0  0  0  0  0  0  0  0
   -1.5961    3.1820    0.0000 C   0  0  0  0  0  0  0  0  0  0  0  0
   -2.8954    3.9316    0.0000 H   0  0  0  0  0  0  0  0  0  0  0  0
   -2.7447    2.2173    0.0000 C   0  0  0  0  0  0  0  0  0  0  0  0
   -2.4836    0.7402    0.0000 O   0  0  0  0  0  0  0  0  0  0  0  0
   -4.1545    2.7297    0.0000 O   0  0  0  0  0  0  0  0  0  0  0  0
   -4.4156    4.2068    0.0000 H   0  0  0  0  0  0  0  0  0  0  0  0
   -0.6307    2.0328    0.0000 O   0  0  0  0  0  0  0  0  0  0  0  0
   -2.5606    4.8519    0.0000 O   0  0  0  0  0  0  0  0  0  0  0  0
   -3.0738    6.2614    0.0000 H   0  0  0  0  0  0  0  0  0  0  0  0
   -0.1185    6.2616    0.0000 O   0  0  0  0  0  0  0  0  0  0  0  0
    0.8456    7.4107    0.0000 H   0  0  0  0  0  0  0  0  0  0  0  0
    2.9405    5.5880    0.0000 O   0  0  0  0  0  0  0  0  0  0  0  0
    2.4269    6.9974    0.0000 H   0  0  0  0  0  0  0  0  0  0  0  0
  1  2  1  0  0  0  0 
  1  3  1  0  0  0  0 
  1  4  1  0  0  0  0 
  1  5  1  0  0  0  0 
  5  6  1  0  0  0  0 
  6  7  2  0  0  0  0 
  7  8  1  0  0  0  0 
  7  9  1  0  0  0  0 
  9 10  2  0  0  0  0 
 10 11  1  0  0  0  0 
 11 12  1  0  0  0  0 
 11 13  1  0  0  0  0 
 10 14  1  0  0  0  0 
 14 15  2  0  0  0  0 
 15 16  1  0  0  0  0 
 16 17  1  0  0  0  0 
 17 18  1  0  0  0  0 
 17 19  1  0  0  0  0 
 17 20  1  0  0  0  0 
 20 21  1  0  0  0  0 
 20 22  1  0  0  0  0 
 20 23  1  0  0  0  0 
 23 24  1  0  0  0  0 
 24 25  1  0  0  0  0 
 24 26  1  0  0  0  0 
 24 27  1  0  0  0  0 
 16 27  1  0  0  0  0 
 27 28  1  0  0  0  0 
 27 29  1  0  0  0  0 
 23 30  1  0  0  0  0 
 30 31  2  0  0  0  0 
 30 32  1  0  0  0  0 
 32 33  1  0  0  0  0 
 32 34  1  0  0  0  0 
 34 35  1  0  0  0  0 
 34 36  1  0  0  0  0 
 34 37  1  0  0  0  0 
 37 38  1  0  0  0  0 
 37 39  1  0  0  0  0 
 37 40  1  0  0  0  0 
 40 41  1  0  0  0  0 
 40 42  1  0  0  0  0 
 40 43  1  0  0  0  0 
 32 43  1  0  0  0  0 
 15 44  1  0  0  0  0 
 44 45  2  0  0  0  0 
  9 45  1  0  0  0  0 
 45 46  1  0  0  0  0 
 46 47  1  0  0  0  0 
 46 48  2  0  0  0  0 
  6 48  1  0  0  0  0 
 48 49  1  0  0  0  0 
 49 50  1  0  0  0  0 
 50 51  1  0  0  0  0 
 50 52  1  0  0  0  0 
 50 53  1  0  0  0  0 
 44 54  1  0  0  0  0 
 54 55  1  0  0  0  0 
 54 56  1  0  0  0  0 
 56 57  1  0  0  0  0 
 56 58  1  0  0  0  0 
 58 59  1  0  0  0  0 
 58 60  1  0  0  0  0 
 60 61  1  0  0  0  0 
 60 62  1  0  0  0  0 
 62 63  1  0  0  0  0 
 62 64  1  0  0  0  0 
 64 65  2  0  0  0  0 
 64 66  1  0  0  0  0 
 66 67  1  0  0  0  0 
 62 68  1  0  0  0  0 
 54 68  1  0  0  0  0 
 60 69  1  0  0  0  0 
 69 70  1  0  0  0  0 
 58 71  1  0  0  0  0 
 71 72  1  0  0  0  0 
 56 73  1  0  0  0  0 
 73 74  1  0  0  0  0 
M  CHG  1  44   1
M  END
> <Rank>
41

> <Priority_score>
0.032

> <Reaction_type>
N-glucuronidation_(aromatic_=n-)

> <Parent_ID>
44

> <Parent_InChI>
InChI=1S/C19H25N5O4/c1-26-15-10-12-13(11-16(15)27-2)21-19(22-17(12)20)24-7-5-23(6-8-24)18(25)14-4-3-9-28-14/h10-11,14H,3-9H2,1-2H3,(H2,20,21,22)

> <Parent_SMILES>
COc1cc2nc(N3CCN(C(=O)C4CCCO4)CC3)nc(N)c2cc1OC

$$$$
Molecule 44_metabolite 42
  CDK     0516241031

 51 54  0  0  0  0  0  0  0  0999 V2000
   -6.0294   -1.2305    0.0000 C   0  0  0  0  0  0  0  0  0  0  0  0
   -7.3283   -1.9808    0.0000 H   0  0  0  0  0  0  0  0  0  0  0  0
   -5.0654   -0.0813    0.0000 H   0  0  0  0  0  0  0  0  0  0  0  0
   -6.9937   -0.0816    0.0000 H   0  0  0  0  0  0  0  0  0  0  0  0
   -4.7302   -1.9803    0.0000 O   0  0  0  0  0  0  0  0  0  0  0  0
   -3.4313   -1.2301    0.0000 C   0  0  0  0  0  0  0  0  0  0  0  0
   -2.1313   -1.9801    0.0000 C   0  0  0  0  0  0  0  0  0  0  0  0
   -2.1313   -3.4801    0.0000 H   0  0  0  0  0  0  0  0  0  0  0  0
   -0.8313   -1.2301    0.0000 C   0  0  0  0  0  0  0  0  0  0  0  0
    0.4687   -1.9801    0.0000 C   0  0  0  0  0  0  0  0  0  0  0  0
    0.4687   -3.4801    0.0000 N   0  0  0  0  0  0  0  0  0  0  0  0
    1.7677   -4.2301    0.0000 H   0  0  0  0  0  0  0  0  0  0  0  0
   -0.8303   -4.2301    0.0000 H   0  0  0  0  0  0  0  0  0  0  0  0
    1.7687   -1.2301    0.0000 N   0  0  0  0  0  0  0  0  0  0  0  0
    1.7687    0.2699    0.0000 C   0  0  0  0  0  0  0  0  0  0  0  0
    0.4687    1.0199    0.0000 N   0  0  0  0  0  0  0  0  0  0  0  0
   -0.8313    0.2699    0.0000 C   0  0  0  0  0  0  0  0  0  0  0  0
   -2.1313    1.0199    0.0000 C   0  0  0  0  0  0  0  0  0  0  0  0
   -2.1313    2.5199    0.0000 H   0  0  0  0  0  0  0  0  0  0  0  0
   -3.4313    0.2699    0.0000 C   0  0  0  0  0  0  0  0  0  0  0  0
   -4.7302    1.0201    0.0000 O   0  0  0  0  0  0  0  0  0  0  0  0
   -4.7300    2.5201    0.0000 C   0  0  0  0  0  0  0  0  0  0  0  0
   -6.0289    3.2703    0.0000 H   0  0  0  0  0  0  0  0  0  0  0  0
   -3.2528    2.2594    0.0000 H   0  0  0  0  0  0  0  0  0  0  0  0
   -4.2167    3.9295    0.0000 H   0  0  0  0  0  0  0  0  0  0  0  0
    3.0676    1.0201    0.0000 N   0  0  0  0  0  0  0  0  0  0  0  0
    4.3676    0.2701    0.0000 C   0  0  0  0  0  0  0  0  0  0  0  0
    3.4036   -0.8791    0.0000 H   0  0  0  0  0  0  0  0  0  0  0  0
    5.3317   -0.8791    0.0000 H   0  0  0  0  0  0  0  0  0  0  0  0
    5.6676    1.0201    0.0000 C   0  0  0  0  0  0  0  0  0  0  0  0
    6.1803   -0.3896    0.0000 H   0  0  0  0  0  0  0  0  0  0  0  0
    7.1448    1.2804    0.0000 H   0  0  0  0  0  0  0  0  0  0  0  0
    5.6676    2.5201    0.0000 N   0  0  0  0  0  0  0  0  0  0  0  0
    4.3676    3.2701    0.0000 C   0  0  0  0  0  0  0  0  0  0  0  0
    5.3317    4.4192    0.0000 H   0  0  0  0  0  0  0  0  0  0  0  0
    3.4036    4.4192    0.0000 H   0  0  0  0  0  0  0  0  0  0  0  0
    3.0676    2.5201    0.0000 C   0  0  0  0  0  0  0  0  0  0  0  0
    2.5549    3.9297    0.0000 H   0  0  0  0  0  0  0  0  0  0  0  0
    1.5904    2.2598    0.0000 H   0  0  0  0  0  0  0  0  0  0  0  0
    7.7978    3.7504    0.0000 C   0  0  0  0  0  0  0  0  0  0  0  0
    7.7976    5.2504    0.0000 O   0  0  0  0  0  0  0  0  0  0  0  0
    9.0970    3.0006    0.0000 C   0  0  0  0  0  0  0  0  0  0  0  0
    8.2191    1.7843    0.0000 H   0  0  0  0  0  0  0  0  0  0  0  0
    9.7092    4.3654    0.0000 C   0  0  0  0  0  0  0  0  0  0  0  0
    8.9593    5.6644    0.0000 H   0  0  0  0  0  0  0  0  0  0  0  0
   11.2014    4.2125    0.0000 C   0  0  0  0  0  0  0  0  0  0  0  0
   12.2026    5.3295    0.0000 H   0  0  0  0  0  0  0  0  0  0  0  0
   11.5144    2.7531    0.0000 C   0  0  0  0  0  0  0  0  0  0  0  0
   12.1281    1.3844    0.0000 H   0  0  0  0  0  0  0  0  0  0  0  0
   12.9399    3.2198    0.0000 H   0  0  0  0  0  0  0  0  0  0  0  0
   10.2210    2.0009    0.0000 O   0  0  0  0  0  0  0  0  0  0  0  0
  1  2  1  0  0  0  0 
  1  3  1  0  0  0  0 
  1  4  1  0  0  0  0 
  1  5  1  0  0  0  0 
  5  6  1  0  0  0  0 
  6  7  2  0  0  0  0 
  7  8  1  0  0  0  0 
  7  9  1  0  0  0  0 
  9 10  2  0  0  0  0 
 10 11  1  0  0  0  0 
 11 12  1  0  0  0  0 
 11 13  1  0  0  0  0 
 10 14  1  0  0  0  0 
 14 15  2  0  0  0  0 
 15 16  1  0  0  0  0 
 16 17  2  0  0  0  0 
  9 17  1  0  0  0  0 
 17 18  1  0  0  0  0 
 18 19  1  0  0  0  0 
 18 20  2  0  0  0  0 
  6 20  1  0  0  0  0 
 20 21  1  0  0  0  0 
 21 22  1  0  0  0  0 
 22 23  1  0  0  0  0 
 22 24  1  0  0  0  0 
 22 25  1  0  0  0  0 
 15 26  1  0  0  0  0 
 26 27  1  0  0  0  0 
 27 28  1  0  0  0  0 
 27 29  1  0  0  0  0 
 27 30  1  0  0  0  0 
 30 31  1  0  0  0  0 
 30 32  1  0  0  0  0 
 30 33  1  0  0  0  0 
 33 34  1  0  0  0  0 
 34 35  1  0  0  0  0 
 34 36  1  0  0  0  0 
 34 37  1  0  0  0  0 
 26 37  1  0  0  0  0 
 37 38  1  0  0  0  0 
 37 39  1  0  0  0  0 
 33 40  1  0  0  0  0 
 40 41  2  0  0  0  0 
 40 42  1  0  0  0  0 
 42 43  1  0  0  0  0 
 42 44  1  0  0  0  0 
 44 45  1  0  0  0  0 
 44 46  2  0  0  0  0 
 46 47  1  0  0  0  0 
 46 48  1  0  0  0  0 
 48 49  1  0  0  0  0 
 48 50  1  0  0  0  0 
 48 51  1  0  0  0  0 
 42 51  1  0  0  0  0 
M  END
> <Rank>
42

> <Priority_score>
0.0288

> <Reaction_type>
alkyl dehydrogenation

> <Parent_ID>
44

> <Parent_InChI>
InChI=1S/C19H25N5O4/c1-26-15-10-12-13(11-16(15)27-2)21-19(22-17(12)20)24-7-5-23(6-8-24)18(25)14-4-3-9-28-14/h10-11,14H,3-9H2,1-2H3,(H2,20,21,22)

> <Parent_SMILES>
COc1cc2nc(N3CCN(C(=O)C4CCCO4)CC3)nc(N)c2cc1OC

$$$$
Molecule 44_metabolite 43
  CDK     0516241031

 51 54  0  0  0  0  0  0  0  0999 V2000
   -5.1981   -0.7504    0.0000 C   0  0  0  0  0  0  0  0  0  0  0  0
   -6.4970   -1.5006    0.0000 H   0  0  0  0  0  0  0  0  0  0  0  0
   -4.2341    0.3988    0.0000 H   0  0  0  0  0  0  0  0  0  0  0  0
   -6.1624    0.3985    0.0000 H   0  0  0  0  0  0  0  0  0  0  0  0
   -3.8989   -1.5002    0.0000 O   0  0  0  0  0  0  0  0  0  0  0  0
   -2.6000   -0.7500    0.0000 C   0  0  0  0  0  0  0  0  0  0  0  0
   -1.3000   -1.5000    0.0000 C   0  0  0  0  0  0  0  0  0  0  0  0
   -1.3000   -3.0000    0.0000 H   0  0  0  0  0  0  0  0  0  0  0  0
    0.0000   -0.7500    0.0000 C   0  0  0  0  0  0  0  0  0  0  0  0
    1.3000   -1.5000    0.0000 C   0  0  0  0  0  0  0  0  0  0  0  0
    1.3000   -3.0000    0.0000 N   0  0  0  0  0  0  0  0  0  0  0  0
    2.5990   -3.7500    0.0000 H   0  0  0  0  0  0  0  0  0  0  0  0
    0.0010   -3.7500    0.0000 H   0  0  0  0  0  0  0  0  0  0  0  0
    2.6000   -0.7500    0.0000 N   0  0  0  0  0  0  0  0  0  0  0  0
    2.6000    0.7500    0.0000 C   0  0  0  0  0  0  0  0  0  0  0  0
    1.3000    1.5000    0.0000 N   0  0  0  0  0  0  0  0  0  0  0  0
    0.0000    0.7500    0.0000 C   0  0  0  0  0  0  0  0  0  0  0  0
   -1.3000    1.5000    0.0000 C   0  0  0  0  0  0  0  0  0  0  0  0
   -1.3000    3.0000    0.0000 H   0  0  0  0  0  0  0  0  0  0  0  0
   -2.6000    0.7500    0.0000 C   0  0  0  0  0  0  0  0  0  0  0  0
   -3.8989    1.5002    0.0000 O   0  0  0  0  0  0  0  0  0  0  0  0
   -3.8987    3.0002    0.0000 C   0  0  0  0  0  0  0  0  0  0  0  0
   -5.1976    3.7504    0.0000 H   0  0  0  0  0  0  0  0  0  0  0  0
   -2.4215    2.7395    0.0000 H   0  0  0  0  0  0  0  0  0  0  0  0
   -3.3854    4.4097    0.0000 H   0  0  0  0  0  0  0  0  0  0  0  0
    3.8989    1.5002    0.0000 N   0  0  0  0  0  0  0  0  0  0  0  0
    5.1989    0.7502    0.0000 C   0  0  0  0  0  0  0  0  0  0  0  0
    4.2349   -0.3990    0.0000 H   0  0  0  0  0  0  0  0  0  0  0  0
    6.1630   -0.3990    0.0000 H   0  0  0  0  0  0  0  0  0  0  0  0
    6.4989    1.5002    0.0000 C   0  0  0  0  0  0  0  0  0  0  0  0
    7.0116    0.0906    0.0000 H   0  0  0  0  0  0  0  0  0  0  0  0
    7.9762    1.7605    0.0000 H   0  0  0  0  0  0  0  0  0  0  0  0
    6.4989    3.0002    0.0000 N   0  0  0  0  0  0  0  0  0  0  0  0
    5.1989    3.7502    0.0000 C   0  0  0  0  0  0  0  0  0  0  0  0
    6.1630    4.8994    0.0000 H   0  0  0  0  0  0  0  0  0  0  0  0
    4.2349    4.8994    0.0000 H   0  0  0  0  0  0  0  0  0  0  0  0
    3.8989    3.0002    0.0000 C   0  0  0  0  0  0  0  0  0  0  0  0
    3.3862    4.4099    0.0000 H   0  0  0  0  0  0  0  0  0  0  0  0
    2.4217    2.7399    0.0000 H   0  0  0  0  0  0  0  0  0  0  0  0
    7.7978    3.7504    0.0000 C   0  0  0  0  0  0  0  0  0  0  0  0
    7.7976    5.2504    0.0000 O   0  0  0  0  0  0  0  0  0  0  0  0
    9.0970    3.0006    0.0000 C   0  0  0  0  0  0  0  0  0  0  0  0
   10.4660    3.6031    0.0000 C   0  0  0  0  0  0  0  0  0  0  0  0
   10.7802    5.0699    0.0000 H   0  0  0  0  0  0  0  0  0  0  0  0
   11.4711    2.4896    0.0000 C   0  0  0  0  0  0  0  0  0  0  0  0
   12.6851    1.6086    0.0000 H   0  0  0  0  0  0  0  0  0  0  0  0
   12.4738    3.6052    0.0000 H   0  0  0  0  0  0  0  0  0  0  0  0
   10.7251    1.1967    0.0000 C   0  0  0  0  0  0  0  0  0  0  0  0
   10.2633   -0.2304    0.0000 H   0  0  0  0  0  0  0  0  0  0  0  0
   12.0959    0.5876    0.0000 H   0  0  0  0  0  0  0  0  0  0  0  0
    9.2611    1.5053    0.0000 O   0  0  0  0  0  0  0  0  0  0  0  0
  1  2  1  0  0  0  0 
  1  3  1  0  0  0  0 
  1  4  1  0  0  0  0 
  1  5  1  0  0  0  0 
  5  6  1  0  0  0  0 
  6  7  2  0  0  0  0 
  7  8  1  0  0  0  0 
  7  9  1  0  0  0  0 
  9 10  2  0  0  0  0 
 10 11  1  0  0  0  0 
 11 12  1  0  0  0  0 
 11 13  1  0  0  0  0 
 10 14  1  0  0  0  0 
 14 15  2  0  0  0  0 
 15 16  1  0  0  0  0 
 16 17  2  0  0  0  0 
  9 17  1  0  0  0  0 
 17 18  1  0  0  0  0 
 18 19  1  0  0  0  0 
 18 20  2  0  0  0  0 
  6 20  1  0  0  0  0 
 20 21  1  0  0  0  0 
 21 22  1  0  0  0  0 
 22 23  1  0  0  0  0 
 22 24  1  0  0  0  0 
 22 25  1  0  0  0  0 
 15 26  1  0  0  0  0 
 26 27  1  0  0  0  0 
 27 28  1  0  0  0  0 
 27 29  1  0  0  0  0 
 27 30  1  0  0  0  0 
 30 31  1  0  0  0  0 
 30 32  1  0  0  0  0 
 30 33  1  0  0  0  0 
 33 34  1  0  0  0  0 
 34 35  1  0  0  0  0 
 34 36  1  0  0  0  0 
 34 37  1  0  0  0  0 
 26 37  1  0  0  0  0 
 37 38  1  0  0  0  0 
 37 39  1  0  0  0  0 
 33 40  1  0  0  0  0 
 40 41  2  0  0  0  0 
 40 42  1  0  0  0  0 
 42 43  2  0  0  0  0 
 43 44  1  0  0  0  0 
 43 45  1  0  0  0  0 
 45 46  1  0  0  0  0 
 45 47  1  0  0  0  0 
 45 48  1  0  0  0  0 
 48 49  1  0  0  0  0 
 48 50  1  0  0  0  0 
 48 51  1  0  0  0  0 
 42 51  1  0  0  0  0 
M  END
> <Rank>
43

> <Priority_score>
0.022400000000000003

> <Reaction_type>
alkyl dehydrogenation

> <Parent_ID>
44

> <Parent_InChI>
InChI=1S/C19H25N5O4/c1-26-15-10-12-13(11-16(15)27-2)21-19(22-17(12)20)24-7-5-23(6-8-24)18(25)14-4-3-9-28-14/h10-11,14H,3-9H2,1-2H3,(H2,20,21,22)

> <Parent_SMILES>
COc1cc2nc(N3CCN(C(=O)C4CCCO4)CC3)nc(N)c2cc1OC

$$$$
Molecule 44_metabolite 44
  CDK     0516241031

 52 55  0  0  0  0  0  0  0  0999 V2000
   -5.1981   -0.7504    0.0000 C   0  0  0  0  0  0  0  0  0  0  0  0
   -6.4970   -1.5006    0.0000 H   0  0  0  0  0  0  0  0  0  0  0  0
   -4.2341    0.3988    0.0000 H   0  0  0  0  0  0  0  0  0  0  0  0
   -6.1624    0.3985    0.0000 H   0  0  0  0  0  0  0  0  0  0  0  0
   -3.8989   -1.5002    0.0000 O   0  0  0  0  0  0  0  0  0  0  0  0
   -2.6000   -0.7500    0.0000 C   0  0  0  0  0  0  0  0  0  0  0  0
   -1.3000   -1.5000    0.0000 C   0  0  0  0  0  0  0  0  0  0  0  0
   -1.3000   -3.0000    0.0000 H   0  0  0  0  0  0  0  0  0  0  0  0
    0.0000   -0.7500    0.0000 C   0  0  0  0  0  0  0  0  0  0  0  0
    1.3000   -1.5000    0.0000 C   0  0  0  0  0  0  0  0  0  0  0  0
    1.3000   -3.0000    0.0000 N   0  0  0  0  0  0  0  0  0  0  0  0
    2.5990   -3.7500    0.0000 H   0  0  0  0  0  0  0  0  0  0  0  0
    0.0010   -3.7500    0.0000 H   0  0  0  0  0  0  0  0  0  0  0  0
    2.6000   -0.7500    0.0000 N   0  0  0  0  0  0  0  0  0  0  0  0
    2.6000    0.7500    0.0000 C   0  0  0  0  0  0  0  0  0  0  0  0
    1.3000    1.5000    0.0000 N   0  0  0  0  0  0  0  0  0  0  0  0
    0.0000    0.7500    0.0000 C   0  0  0  0  0  0  0  0  0  0  0  0
   -1.3000    1.5000    0.0000 C   0  0  0  0  0  0  0  0  0  0  0  0
   -1.3000    3.0000    0.0000 H   0  0  0  0  0  0  0  0  0  0  0  0
   -2.6000    0.7500    0.0000 C   0  0  0  0  0  0  0  0  0  0  0  0
   -3.8989    1.5002    0.0000 O   0  0  0  0  0  0  0  0  0  0  0  0
   -3.8987    3.0002    0.0000 C   0  0  0  0  0  0  0  0  0  0  0  0
   -5.1976    3.7504    0.0000 H   0  0  0  0  0  0  0  0  0  0  0  0
   -2.4215    2.7395    0.0000 H   0  0  0  0  0  0  0  0  0  0  0  0
   -3.3854    4.4097    0.0000 H   0  0  0  0  0  0  0  0  0  0  0  0
    3.8989    1.5002    0.0000 N   0  0  0  0  0  0  0  0  0  0  0  0
    5.1989    0.7502    0.0000 C   0  0  0  0  0  0  0  0  0  0  0  0
    4.2349   -0.3990    0.0000 H   0  0  0  0  0  0  0  0  0  0  0  0
    6.1630   -0.3990    0.0000 H   0  0  0  0  0  0  0  0  0  0  0  0
    6.4989    1.5002    0.0000 C   0  0  0  0  0  0  0  0  0  0  0  0
    7.7978    0.7500    0.0000 H   0  0  0  0  0  0  0  0  0  0  0  0
    6.4989    3.0002    0.0000 N   0  0  0  0  0  0  0  0  0  0  0  0
    5.1989    3.7502    0.0000 C   0  0  0  0  0  0  0  0  0  0  0  0
    6.1630    4.8994    0.0000 H   0  0  0  0  0  0  0  0  0  0  0  0
    4.2349    4.8994    0.0000 H   0  0  0  0  0  0  0  0  0  0  0  0
    3.8989    3.0002    0.0000 C   0  0  0  0  0  0  0  0  0  0  0  0
    3.3862    4.4099    0.0000 H   0  0  0  0  0  0  0  0  0  0  0  0
    2.4217    2.7399    0.0000 H   0  0  0  0  0  0  0  0  0  0  0  0
    7.7978    3.7504    0.0000 C   0  0  0  0  0  0  0  0  0  0  0  0
    7.7976    5.2504    0.0000 O   0  0  0  0  0  0  0  0  0  0  0  0
    9.5127    2.7607    0.0000 C   0  0  0  0  0  0  0  0  0  0  0  0
    8.6348    1.5444    0.0000 H   0  0  0  0  0  0  0  0  0  0  0  0
   10.1249    4.1254    0.0000 C   0  0  0  0  0  0  0  0  0  0  0  0
   10.4356    5.5929    0.0000 H   0  0  0  0  0  0  0  0  0  0  0  0
    8.6988    4.5904    0.0000 H   0  0  0  0  0  0  0  0  0  0  0  0
   11.6171    3.9726    0.0000 C   0  0  0  0  0  0  0  0  0  0  0  0
   13.1086    4.1325    0.0000 H   0  0  0  0  0  0  0  0  0  0  0  0
   11.6136    5.4726    0.0000 H   0  0  0  0  0  0  0  0  0  0  0  0
   11.9301    2.5131    0.0000 C   0  0  0  0  0  0  0  0  0  0  0  0
   12.5439    1.1445    0.0000 H   0  0  0  0  0  0  0  0  0  0  0  0
   13.3556    2.9799    0.0000 H   0  0  0  0  0  0  0  0  0  0  0  0
   10.6367    1.7610    0.0000 O   0  0  0  0  0  0  0  0  0  0  0  0
  1  2  1  0  0  0  0 
  1  3  1  0  0  0  0 
  1  4  1  0  0  0  0 
  1  5  1  0  0  0  0 
  5  6  1  0  0  0  0 
  6  7  2  0  0  0  0 
  7  8  1  0  0  0  0 
  7  9  1  0  0  0  0 
  9 10  2  0  0  0  0 
 10 11  1  0  0  0  0 
 11 12  1  0  0  0  0 
 11 13  1  0  0  0  0 
 10 14  1  0  0  0  0 
 14 15  2  0  0  0  0 
 15 16  1  0  0  0  0 
 16 17  2  0  0  0  0 
  9 17  1  0  0  0  0 
 17 18  1  0  0  0  0 
 18 19  1  0  0  0  0 
 18 20  2  0  0  0  0 
  6 20  1  0  0  0  0 
 20 21  1  0  0  0  0 
 21 22  1  0  0  0  0 
 22 23  1  0  0  0  0 
 22 24  1  0  0  0  0 
 22 25  1  0  0  0  0 
 15 26  1  0  0  0  0 
 26 27  1  0  0  0  0 
 27 28  1  0  0  0  0 
 27 29  1  0  0  0  0 
 27 30  1  0  0  0  0 
 30 31  1  0  0  0  0 
 30 32  2  0  0  0  0 
 32 33  1  0  0  0  0 
 33 34  1  0  0  0  0 
 33 35  1  0  0  0  0 
 33 36  1  0  0  0  0 
 26 36  1  0  0  0  0 
 36 37  1  0  0  0  0 
 36 38  1  0  0  0  0 
 32 39  1  0  0  0  0 
 39 40  2  0  0  0  0 
 39 41  1  0  0  0  0 
 41 42  1  0  0  0  0 
 41 43  1  0  0  0  0 
 43 44  1  0  0  0  0 
 43 45  1  0  0  0  0 
 43 46  1  0  0  0  0 
 46 47  1  0  0  0  0 
 46 48  1  0  0  0  0 
 46 49  1  0  0  0  0 
 49 50  1  0  0  0  0 
 49 51  1  0  0  0  0 
 49 52  1  0  0  0  0 
 41 52  1  0  0  0  0 
M  CHG  1  32   1
M  END
> <Rank>
44

> <Priority_score>
0.0152

> <Reaction_type>
dehydration of N-C bond

> <Parent_ID>
44

> <Parent_InChI>
InChI=1S/C19H25N5O4/c1-26-15-10-12-13(11-16(15)27-2)21-19(22-17(12)20)24-7-5-23(6-8-24)18(25)14-4-3-9-28-14/h10-11,14H,3-9H2,1-2H3,(H2,20,21,22)

> <Parent_SMILES>
COc1cc2nc(N3CCN(C(=O)C4CCCO4)CC3)nc(N)c2cc1OC

$$$$
Molecule 45
  CDK     0516241031

 30 33  0  0  0  0  0  0  0  0999 V2000
   -5.1981   -0.7504    0.0000 C   0  0  0  0  0  0  0  0  0  0  0  0
   -3.8989   -1.5002    0.0000 O   0  0  0  0  0  0  0  0  0  0  0  0
   -2.6000   -0.7500    0.0000 C   0  0  0  0  0  0  0  0  0  0  0  0
   -1.3000   -1.5000    0.0000 C   0  0  0  0  0  0  0  0  0  0  0  0
   -0.0000   -0.7500    0.0000 C   0  0  0  0  0  0  0  0  0  0  0  0
   -0.0000    0.7500    0.0000 C   0  0  0  0  0  0  0  0  0  0  0  0
   -1.3000    1.5000    0.0000 C   0  0  0  0  0  0  0  0  0  0  0  0
   -2.6000    0.7500    0.0000 C   0  0  0  0  0  0  0  0  0  0  0  0
   -3.8989    1.5002    0.0000 C   0  0  0  0  0  0  0  0  0  0  0  0
   -3.8987    3.0002    0.0000 O   0  0  0  0  0  0  0  0  0  0  0  0
   -5.1981    0.7504    0.0000 N   0  0  0  0  0  0  0  0  0  0  0  0
    1.3000    1.5000    0.0000 C   0  0  0  0  0  0  0  0  0  0  0  0
    2.6000    0.7500    0.0000 C   0  0  0  0  0  0  0  0  0  0  0  0
    2.6000   -0.7500    0.0000 C   0  0  0  0  0  0  0  0  0  0  0  0
    1.3000   -1.5000    0.0000 N   0  0  0  0  0  0  0  0  0  0  0  0
    1.3000    3.0000    0.0000 O   0  0  0  0  0  0  0  0  0  0  0  0
    2.5990    3.7500    0.0000 C   0  0  0  0  0  0  0  0  0  0  0  0
    2.5993    5.2508    0.0000 C   0  0  0  0  0  0  0  0  0  0  0  0
    3.8987    6.0019    0.0000 C   0  0  0  0  0  0  0  0  0  0  0  0
    5.1978    5.2521    0.0000 C   0  0  0  0  0  0  0  0  0  0  0  0
    5.1976    3.7512    0.0000 C   0  0  0  0  0  0  0  0  0  0  0  0
    3.8982    3.0002    0.0000 C   0  0  0  0  0  0  0  0  0  0  0  0
    6.4968    3.0015    0.0000 Cl  0  0  0  0  0  0  0  0  0  0  0  0
    6.4969    6.0021    0.0000 N   0  0  0  0  0  0  0  0  0  0  0  0
    6.4969    7.5021    0.0000 C   0  0  0  0  0  0  0  0  0  0  0  0
    5.1978    8.2521    0.0000 O   0  0  0  0  0  0  0  0  0  0  0  0
    7.7959    8.2521    0.0000 N   0  0  0  0  0  0  0  0  0  0  0  0
    7.7959    9.7521    0.0000 C   0  0  0  0  0  0  0  0  0  0  0  0
    7.0453   11.0517    0.0000 C   0  0  0  0  0  0  0  0  0  0  0  0
    8.5461   11.0510    0.0000 C   0  0  0  0  0  0  0  0  0  0  0  0
  1  2  1  0  0  0  0 
  2  3  1  0  0  0  0 
  3  4  2  0  0  0  0 
  4  5  1  0  0  0  0 
  5  6  2  0  0  0  0 
  6  7  1  0  0  0  0 
  7  8  2  0  0  0  0 
  3  8  1  0  0  0  0 
  8  9  1  0  0  0  0 
  9 10  2  0  0  0  0 
  9 11  1  0  0  0  0 
  6 12  1  0  0  0  0 
 12 13  2  0  0  0  0 
 13 14  1  0  0  0  0 
 14 15  2  0  0  0  0 
  5 15  1  0  0  0  0 
 12 16  1  0  0  0  0 
 16 17  1  0  0  0  0 
 17 18  2  0  0  0  0 
 18 19  1  0  0  0  0 
 19 20  2  0  0  0  0 
 20 21  1  0  0  0  0 
 21 22  2  0  0  0  0 
 17 22  1  0  0  0  0 
 21 23  1  0  0  0  0 
 20 24  1  0  0  0  0 
 24 25  1  0  0  0  0 
 25 26  2  0  0  0  0 
 25 27  1  0  0  0  0 
 27 28  1  0  0  0  0 
 28 29  1  0  0  0  0 
 29 30  1  0  0  0  0 
 28 30  1  0  0  0  0 
M  END
> <SMILES>
COc1cc2nccc(Oc3ccc(NC(=O)NC4CC4)c(Cl)c3)c2cc1C(N)=O

$$$$
Molecule 45_metabolite 1
  CDK     0516241031

 50 53  0  0  0  0  0  0  0  0999 V2000
    9.1400   11.6417    0.0000 C   0  0  0  0  0  0  0  0  0  0  0  0
   10.1037   12.7912    0.0000 H   0  0  0  0  0  0  0  0  0  0  0  0
    7.8407   12.3913    0.0000 H   0  0  0  0  0  0  0  0  0  0  0  0
   10.1054   10.4925    0.0000 C   0  0  0  0  0  0  0  0  0  0  0  0
   10.6185    9.0831    0.0000 H   0  0  0  0  0  0  0  0  0  0  0  0
   11.4042   11.2430    0.0000 H   0  0  0  0  0  0  0  0  0  0  0  0
    8.6273   10.2321    0.0000 C   0  0  0  0  0  0  0  0  0  0  0  0
    7.1501   10.4924    0.0000 H   0  0  0  0  0  0  0  0  0  0  0  0
    8.6273    8.7321    0.0000 N   0  0  0  0  0  0  0  0  0  0  0  0
    9.9263    7.9821    0.0000 H   0  0  0  0  0  0  0  0  0  0  0  0
    7.3283    7.9821    0.0000 C   0  0  0  0  0  0  0  0  0  0  0  0
    6.0292    8.7321    0.0000 O   0  0  0  0  0  0  0  0  0  0  0  0
    7.3283    6.4821    0.0000 N   0  0  0  0  0  0  0  0  0  0  0  0
    8.6273    5.7321    0.0000 H   0  0  0  0  0  0  0  0  0  0  0  0
    6.0292    5.7321    0.0000 C   0  0  0  0  0  0  0  0  0  0  0  0
    6.0290    4.2312    0.0000 C   0  0  0  0  0  0  0  0  0  0  0  0
    7.3281    3.4815    0.0000 H   0  0  0  0  0  0  0  0  0  0  0  0
    4.7296    3.4802    0.0000 C   0  0  0  0  0  0  0  0  0  0  0  0
    4.7301    1.9802    0.0000 H   0  0  0  0  0  0  0  0  0  0  0  0
    3.4304    4.2300    0.0000 C   0  0  0  0  0  0  0  0  0  0  0  0
    3.4307    5.7308    0.0000 C   0  0  0  0  0  0  0  0  0  0  0  0
    2.1315    6.4806    0.0000 H   0  0  0  0  0  0  0  0  0  0  0  0
    4.7301    6.4819    0.0000 C   0  0  0  0  0  0  0  0  0  0  0  0
    4.7296    7.9819    0.0000 Cl  0  0  0  0  0  0  0  0  0  0  0  0
    1.3000    3.0000    0.0000 O   0  0  0  0  0  0  0  0  0  0  0  0
    1.3000    1.5000    0.0000 C   0  0  0  0  0  0  0  0  0  0  0  0
    2.6000    0.7500    0.0000 C   0  0  0  0  0  0  0  0  0  0  0  0
    3.8989    1.5002    0.0000 H   0  0  0  0  0  0  0  0  0  0  0  0
    2.6000   -0.7500    0.0000 C   0  0  0  0  0  0  0  0  0  0  0  0
    3.8989   -1.5002    0.0000 H   0  0  0  0  0  0  0  0  0  0  0  0
    1.3000   -1.5000    0.0000 N   0  0  0  0  0  0  0  0  0  0  0  0
   -0.0000   -0.7500    0.0000 C   0  0  0  0  0  0  0  0  0  0  0  0
   -0.0000    0.7500    0.0000 C   0  0  0  0  0  0  0  0  0  0  0  0
   -1.3000    1.5000    0.0000 C   0  0  0  0  0  0  0  0  0  0  0  0
   -1.3000    3.0000    0.0000 H   0  0  0  0  0  0  0  0  0  0  0  0
   -2.6000    0.7500    0.0000 C   0  0  0  0  0  0  0  0  0  0  0  0
   -2.6000   -0.7500    0.0000 C   0  0  0  0  0  0  0  0  0  0  0  0
   -1.3000   -1.5000    0.0000 C   0  0  0  0  0  0  0  0  0  0  0  0
   -1.3000   -3.0000    0.0000 H   0  0  0  0  0  0  0  0  0  0  0  0
   -3.8989   -1.5002    0.0000 O   0  0  0  0  0  0  0  0  0  0  0  0
   -3.8987   -3.0002    0.0000 C   0  0  0  0  0  0  0  0  0  0  0  0
   -3.3854   -4.4097    0.0000 H   0  0  0  0  0  0  0  0  0  0  0  0
   -2.4215   -2.7395    0.0000 H   0  0  0  0  0  0  0  0  0  0  0  0
   -5.1976   -3.7504    0.0000 O   0  0  0  0  0  0  0  0  0  0  0  0
   -5.1974   -5.2504    0.0000 H   0  0  0  0  0  0  0  0  0  0  0  0
   -3.8989    1.5002    0.0000 C   0  0  0  0  0  0  0  0  0  0  0  0
   -3.8987    3.0002    0.0000 O   0  0  0  0  0  0  0  0  0  0  0  0
   -5.1981    0.7504    0.0000 N   0  0  0  0  0  0  0  0  0  0  0  0
   -6.4970    1.5006    0.0000 H   0  0  0  0  0  0  0  0  0  0  0  0
   -5.1983   -0.7496    0.0000 H   0  0  0  0  0  0  0  0  0  0  0  0
  1  2  1  0  0  0  0 
  1  3  1  0  0  0  0 
  1  4  1  0  0  0  0 
  4  5  1  0  0  0  0 
  4  6  1  0  0  0  0 
  4  7  1  0  0  0  0 
  1  7  1  0  0  0  0 
  7  8  1  0  0  0  0 
  7  9  1  0  0  0  0 
  9 10  1  0  0  0  0 
  9 11  1  0  0  0  0 
 11 12  2  0  0  0  0 
 11 13  1  0  0  0  0 
 13 14  1  0  0  0  0 
 13 15  1  0  0  0  0 
 15 16  2  0  0  0  0 
 16 17  1  0  0  0  0 
 16 18  1  0  0  0  0 
 18 19  1  0  0  0  0 
 18 20  2  0  0  0  0 
 20 21  1  0  0  0  0 
 21 22  1  0  0  0  0 
 21 23  2  0  0  0  0 
 15 23  1  0  0  0  0 
 23 24  1  0  0  0  0 
 20 25  1  0  0  0  0 
 25 26  1  0  0  0  0 
 26 27  2  0  0  0  0 
 27 28  1  0  0  0  0 
 27 29  1  0  0  0  0 
 29 30  1  0  0  0  0 
 29 31  2  0  0  0  0 
 31 32  1  0  0  0  0 
 32 33  2  0  0  0  0 
 26 33  1  0  0  0  0 
 33 34  1  0  0  0  0 
 34 35  1  0  0  0  0 
 34 36  2  0  0  0  0 
 36 37  1  0  0  0  0 
 37 38  2  0  0  0  0 
 32 38  1  0  0  0  0 
 38 39  1  0  0  0  0 
 37 40  1  0  0  0  0 
 40 41  1  0  0  0  0 
 41 42  1  0  0  0  0 
 41 43  1  0  0  0  0 
 41 44  1  0  0  0  0 
 44 45  1  0  0  0  0 
 36 46  1  0  0  0  0 
 46 47  2  0  0  0  0 
 46 48  1  0  0  0  0 
 48 49  1  0  0  0  0 
 48 50  1  0  0  0  0 
M  END
> <Rank>
1

> <Priority_score>
0.644

> <Reaction_type>
aliphatic hydroxylation

> <Parent_ID>
45

> <Parent_InChI>
InChI=1S/C21H19ClN4O4/c1-29-19-10-17-13(9-14(19)20(23)27)18(6-7-24-17)30-12-4-5-16(15(22)8-12)26-21(28)25-11-2-3-11/h4-11H,2-3H2,1H3,(H2,23,27)(H2,25,26,28)

> <Parent_SMILES>
COc1cc2nccc(Oc3ccc(NC(=O)NC4CC4)c(Cl)c3)c2cc1C(N)=O

$$$$
Molecule 45_metabolite 2
  CDK     0516241031

 46 49  0  0  0  0  0  0  0  0999 V2000
    9.1400   11.6417    0.0000 C   0  0  0  0  0  0  0  0  0  0  0  0
   10.1037   12.7912    0.0000 H   0  0  0  0  0  0  0  0  0  0  0  0
    7.8407   12.3913    0.0000 H   0  0  0  0  0  0  0  0  0  0  0  0
   10.1054   10.4925    0.0000 C   0  0  0  0  0  0  0  0  0  0  0  0
   10.6185    9.0831    0.0000 H   0  0  0  0  0  0  0  0  0  0  0  0
   11.4042   11.2430    0.0000 H   0  0  0  0  0  0  0  0  0  0  0  0
    8.6273   10.2321    0.0000 C   0  0  0  0  0  0  0  0  0  0  0  0
    7.1501   10.4924    0.0000 H   0  0  0  0  0  0  0  0  0  0  0  0
    8.6273    8.7321    0.0000 N   0  0  0  0  0  0  0  0  0  0  0  0
    9.9263    7.9821    0.0000 H   0  0  0  0  0  0  0  0  0  0  0  0
    7.3283    7.9821    0.0000 C   0  0  0  0  0  0  0  0  0  0  0  0
    6.0292    8.7321    0.0000 O   0  0  0  0  0  0  0  0  0  0  0  0
    7.3283    6.4821    0.0000 N   0  0  0  0  0  0  0  0  0  0  0  0
    8.6273    5.7321    0.0000 H   0  0  0  0  0  0  0  0  0  0  0  0
    6.0292    5.7321    0.0000 C   0  0  0  0  0  0  0  0  0  0  0  0
    6.0290    4.2312    0.0000 C   0  0  0  0  0  0  0  0  0  0  0  0
    7.3281    3.4815    0.0000 H   0  0  0  0  0  0  0  0  0  0  0  0
    4.7296    3.4802    0.0000 C   0  0  0  0  0  0  0  0  0  0  0  0
    4.7301    1.9802    0.0000 H   0  0  0  0  0  0  0  0  0  0  0  0
    3.4304    4.2300    0.0000 C   0  0  0  0  0  0  0  0  0  0  0  0
    3.4307    5.7308    0.0000 C   0  0  0  0  0  0  0  0  0  0  0  0
    2.1315    6.4806    0.0000 H   0  0  0  0  0  0  0  0  0  0  0  0
    4.7301    6.4819    0.0000 C   0  0  0  0  0  0  0  0  0  0  0  0
    4.7296    7.9819    0.0000 Cl  0  0  0  0  0  0  0  0  0  0  0  0
    1.3000    3.0000    0.0000 O   0  0  0  0  0  0  0  0  0  0  0  0
    1.3000    1.5000    0.0000 C   0  0  0  0  0  0  0  0  0  0  0  0
    2.6000    0.7500    0.0000 C   0  0  0  0  0  0  0  0  0  0  0  0
    3.8989    1.5002    0.0000 H   0  0  0  0  0  0  0  0  0  0  0  0
    2.6000   -0.7500    0.0000 C   0  0  0  0  0  0  0  0  0  0  0  0
    3.8989   -1.5002    0.0000 H   0  0  0  0  0  0  0  0  0  0  0  0
    1.3000   -1.5000    0.0000 N   0  0  0  0  0  0  0  0  0  0  0  0
   -0.0000   -0.7500    0.0000 C   0  0  0  0  0  0  0  0  0  0  0  0
   -0.0000    0.7500    0.0000 C   0  0  0  0  0  0  0  0  0  0  0  0
   -1.3000    1.5000    0.0000 C   0  0  0  0  0  0  0  0  0  0  0  0
   -1.3000    3.0000    0.0000 H   0  0  0  0  0  0  0  0  0  0  0  0
   -2.6000    0.7500    0.0000 C   0  0  0  0  0  0  0  0  0  0  0  0
   -2.6000   -0.7500    0.0000 C   0  0  0  0  0  0  0  0  0  0  0  0
   -1.3000   -1.5000    0.0000 C   0  0  0  0  0  0  0  0  0  0  0  0
   -1.3000   -3.0000    0.0000 H   0  0  0  0  0  0  0  0  0  0  0  0
   -3.8989   -1.5002    0.0000 O   0  0  0  0  0  0  0  0  0  0  0  0
   -3.8987   -3.0002    0.0000 H   0  0  0  0  0  0  0  0  0  0  0  0
   -3.8989    1.5002    0.0000 C   0  0  0  0  0  0  0  0  0  0  0  0
   -3.8987    3.0002    0.0000 O   0  0  0  0  0  0  0  0  0  0  0  0
   -5.1981    0.7504    0.0000 N   0  0  0  0  0  0  0  0  0  0  0  0
   -6.4970    1.5006    0.0000 H   0  0  0  0  0  0  0  0  0  0  0  0
   -5.1983   -0.7496    0.0000 H   0  0  0  0  0  0  0  0  0  0  0  0
  1  2  1  0  0  0  0 
  1  3  1  0  0  0  0 
  1  4  1  0  0  0  0 
  4  5  1  0  0  0  0 
  4  6  1  0  0  0  0 
  4  7  1  0  0  0  0 
  1  7  1  0  0  0  0 
  7  8  1  0  0  0  0 
  7  9  1  0  0  0  0 
  9 10  1  0  0  0  0 
  9 11  1  0  0  0  0 
 11 12  2  0  0  0  0 
 11 13  1  0  0  0  0 
 13 14  1  0  0  0  0 
 13 15  1  0  0  0  0 
 15 16  2  0  0  0  0 
 16 17  1  0  0  0  0 
 16 18  1  0  0  0  0 
 18 19  1  0  0  0  0 
 18 20  2  0  0  0  0 
 20 21  1  0  0  0  0 
 21 22  1  0  0  0  0 
 21 23  2  0  0  0  0 
 15 23  1  0  0  0  0 
 23 24  1  0  0  0  0 
 20 25  1  0  0  0  0 
 25 26  1  0  0  0  0 
 26 27  2  0  0  0  0 
 27 28  1  0  0  0  0 
 27 29  1  0  0  0  0 
 29 30  1  0  0  0  0 
 29 31  2  0  0  0  0 
 31 32  1  0  0  0  0 
 32 33  2  0  0  0  0 
 26 33  1  0  0  0  0 
 33 34  1  0  0  0  0 
 34 35  1  0  0  0  0 
 34 36  2  0  0  0  0 
 36 37  1  0  0  0  0 
 37 38  2  0  0  0  0 
 32 38  1  0  0  0  0 
 38 39  1  0  0  0  0 
 37 40  1  0  0  0  0 
 40 41  1  0  0  0  0 
 36 42  1  0  0  0  0 
 42 43  2  0  0  0  0 
 42 44  1  0  0  0  0 
 44 45  1  0  0  0  0 
 44 46  1  0  0  0  0 
M  END
> <Rank>
1

> <Priority_score>
0.644

> <Reaction_type>
O-demethylation

> <Parent_ID>
45

> <Parent_InChI>
InChI=1S/C21H19ClN4O4/c1-29-19-10-17-13(9-14(19)20(23)27)18(6-7-24-17)30-12-4-5-16(15(22)8-12)26-21(28)25-11-2-3-11/h4-11H,2-3H2,1H3,(H2,23,27)(H2,25,26,28)

> <Parent_SMILES>
COc1cc2nccc(Oc3ccc(NC(=O)NC4CC4)c(Cl)c3)c2cc1C(N)=O

$$$$
Molecule 45_metabolite 3
  CDK     0516241031

 69 73  0  0  0  0  0  0  0  0999 V2000
   -3.8987   -3.0002    0.0000 C   0  0  0  0  0  0  0  0  0  0  0  0
   -5.1976   -3.7504    0.0000 H   0  0  0  0  0  0  0  0  0  0  0  0
   -2.4215   -2.7395    0.0000 H   0  0  0  0  0  0  0  0  0  0  0  0
   -3.3854   -4.4097    0.0000 H   0  0  0  0  0  0  0  0  0  0  0  0
   -3.8989   -1.5002    0.0000 O   0  0  0  0  0  0  0  0  0  0  0  0
   -2.6000   -0.7500    0.0000 C   0  0  0  0  0  0  0  0  0  0  0  0
   -1.3000   -1.5000    0.0000 C   0  0  0  0  0  0  0  0  0  0  0  0
   -1.3000   -3.0000    0.0000 H   0  0  0  0  0  0  0  0  0  0  0  0
   -0.0000   -0.7500    0.0000 C   0  0  0  0  0  0  0  0  0  0  0  0
   -0.0000    0.7500    0.0000 C   0  0  0  0  0  0  0  0  0  0  0  0
   -1.3000    1.5000    0.0000 C   0  0  0  0  0  0  0  0  0  0  0  0
   -1.3000    3.0000    0.0000 H   0  0  0  0  0  0  0  0  0  0  0  0
   -2.6000    0.7500    0.0000 C   0  0  0  0  0  0  0  0  0  0  0  0
   -3.8989    1.5002    0.0000 C   0  0  0  0  0  0  0  0  0  0  0  0
   -5.1981    0.7504    0.0000 O   0  0  0  0  0  0  0  0  0  0  0  0
   -3.8987    3.0002    0.0000 N   0  0  0  0  0  0  0  0  0  0  0  0
   -2.5995    3.7500    0.0000 H   0  0  0  0  0  0  0  0  0  0  0  0
   -5.1976    3.7504    0.0000 C   0  0  0  0  0  0  0  0  0  0  0  0
   -5.7110    2.3410    0.0000 H   0  0  0  0  0  0  0  0  0  0  0  0
   -6.6747    4.0114    0.0000 C   0  0  0  0  0  0  0  0  0  0  0  0
   -6.6754    2.5114    0.0000 H   0  0  0  0  0  0  0  0  0  0  0  0
   -7.1870    5.4221    0.0000 C   0  0  0  0  0  0  0  0  0  0  0  0
   -8.4864    4.6727    0.0000 H   0  0  0  0  0  0  0  0  0  0  0  0
   -6.2223    6.5718    0.0000 C   0  0  0  0  0  0  0  0  0  0  0  0
   -7.5212    7.3220    0.0000 H   0  0  0  0  0  0  0  0  0  0  0  0
   -4.7452    6.3107    0.0000 C   0  0  0  0  0  0  0  0  0  0  0  0
   -4.7444    7.8107    0.0000 H   0  0  0  0  0  0  0  0  0  0  0  0
   -3.2678    6.5704    0.0000 C   0  0  0  0  0  0  0  0  0  0  0  0
   -2.3043    5.4207    0.0000 O   0  0  0  0  0  0  0  0  0  0  0  0
   -2.7539    7.9796    0.0000 O   0  0  0  0  0  0  0  0  0  0  0  0
   -3.7174    9.1292    0.0000 H   0  0  0  0  0  0  0  0  0  0  0  0
   -4.2328    4.9001    0.0000 O   0  0  0  0  0  0  0  0  0  0  0  0
   -5.7089    7.9812    0.0000 O   0  0  0  0  0  0  0  0  0  0  0  0
   -6.6727    9.1305    0.0000 H   0  0  0  0  0  0  0  0  0  0  0  0
   -8.1509    6.5714    0.0000 O   0  0  0  0  0  0  0  0  0  0  0  0
   -9.6282    6.3114    0.0000 H   0  0  0  0  0  0  0  0  0  0  0  0
   -8.1521    3.7518    0.0000 O   0  0  0  0  0  0  0  0  0  0  0  0
   -8.6659    2.3426    0.0000 H   0  0  0  0  0  0  0  0  0  0  0  0
    1.3000    1.5000    0.0000 C   0  0  0  0  0  0  0  0  0  0  0  0
    2.6000    0.7500    0.0000 C   0  0  0  0  0  0  0  0  0  0  0  0
    3.8989    1.5002    0.0000 H   0  0  0  0  0  0  0  0  0  0  0  0
    2.6000   -0.7500    0.0000 C   0  0  0  0  0  0  0  0  0  0  0  0
    3.8989   -1.5002    0.0000 H   0  0  0  0  0  0  0  0  0  0  0  0
    1.3000   -1.5000    0.0000 N   0  0  0  0  0  0  0  0  0  0  0  0
    1.3000    3.0000    0.0000 O   0  0  0  0  0  0  0  0  0  0  0  0
    3.4304    4.2300    0.0000 C   0  0  0  0  0  0  0  0  0  0  0  0
    3.4307    5.7308    0.0000 C   0  0  0  0  0  0  0  0  0  0  0  0
    2.1315    6.4806    0.0000 H   0  0  0  0  0  0  0  0  0  0  0  0
    4.7301    6.4819    0.0000 C   0  0  0  0  0  0  0  0  0  0  0  0
    4.7296    7.9819    0.0000 H   0  0  0  0  0  0  0  0  0  0  0  0
    6.0292    5.7321    0.0000 C   0  0  0  0  0  0  0  0  0  0  0  0
    6.0290    4.2312    0.0000 C   0  0  0  0  0  0  0  0  0  0  0  0
    4.7296    3.4802    0.0000 C   0  0  0  0  0  0  0  0  0  0  0  0
    4.7301    1.9802    0.0000 H   0  0  0  0  0  0  0  0  0  0  0  0
    7.3281    3.4815    0.0000 Cl  0  0  0  0  0  0  0  0  0  0  0  0
    7.3283    6.4821    0.0000 N   0  0  0  0  0  0  0  0  0  0  0  0
    7.3283    7.9821    0.0000 H   0  0  0  0  0  0  0  0  0  0  0  0
    8.6273    5.7321    0.0000 C   0  0  0  0  0  0  0  0  0  0  0  0
    8.6273    4.2321    0.0000 O   0  0  0  0  0  0  0  0  0  0  0  0
    9.9263    6.4821    0.0000 N   0  0  0  0  0  0  0  0  0  0  0  0
    9.9263    7.9821    0.0000 H   0  0  0  0  0  0  0  0  0  0  0  0
   11.2254    5.7321    0.0000 C   0  0  0  0  0  0  0  0  0  0  0  0
   10.7122    4.3226    0.0000 H   0  0  0  0  0  0  0  0  0  0  0  0
   12.1900    6.8819    0.0000 C   0  0  0  0  0  0  0  0  0  0  0  0
   13.4892    7.6315    0.0000 H   0  0  0  0  0  0  0  0  0  0  0  0
   11.2259    8.0311    0.0000 H   0  0  0  0  0  0  0  0  0  0  0  0
   12.7025    5.4713    0.0000 C   0  0  0  0  0  0  0  0  0  0  0  0
   12.7020    3.9713    0.0000 H   0  0  0  0  0  0  0  0  0  0  0  0
   14.1799    5.7311    0.0000 H   0  0  0  0  0  0  0  0  0  0  0  0
  1  2  1  0  0  0  0 
  1  3  1  0  0  0  0 
  1  4  1  0  0  0  0 
  1  5  1  0  0  0  0 
  5  6  1  0  0  0  0 
  6  7  2  0  0  0  0 
  7  8  1  0  0  0  0 
  7  9  1  0  0  0  0 
  9 10  2  0  0  0  0 
 10 11  1  0  0  0  0 
 11 12  1  0  0  0  0 
 11 13  2  0  0  0  0 
  6 13  1  0  0  0  0 
 13 14  1  0  0  0  0 
 14 15  2  0  0  0  0 
 14 16  1  0  0  0  0 
 16 17  1  0  0  0  0 
 16 18  1  0  0  0  0 
 18 19  1  0  0  0  0 
 18 20  1  0  0  0  0 
 20 21  1  0  0  0  0 
 20 22  1  0  0  0  0 
 22 23  1  0  0  0  0 
 22 24  1  0  0  0  0 
 24 25  1  0  0  0  0 
 24 26  1  0  0  0  0 
 26 27  1  0  0  0  0 
 26 28  1  0  0  0  0 
 28 29  2  0  0  0  0 
 28 30  1  0  0  0  0 
 30 31  1  0  0  0  0 
 26 32  1  0  0  0  0 
 18 32  1  0  0  0  0 
 24 33  1  0  0  0  0 
 33 34  1  0  0  0  0 
 22 35  1  0  0  0  0 
 35 36  1  0  0  0  0 
 20 37  1  0  0  0  0 
 37 38  1  0  0  0  0 
 10 39  1  0  0  0  0 
 39 40  2  0  0  0  0 
 40 41  1  0  0  0  0 
 40 42  1  0  0  0  0 
 42 43  1  0  0  0  0 
 42 44  2  0  0  0  0 
  9 44  1  0  0  0  0 
 39 45  1  0  0  0  0 
 45 46  1  0  0  0  0 
 46 47  2  0  0  0  0 
 47 48  1  0  0  0  0 
 47 49  1  0  0  0  0 
 49 50  1  0  0  0  0 
 49 51  2  0  0  0  0 
 51 52  1  0  0  0  0 
 52 53  2  0  0  0  0 
 46 53  1  0  0  0  0 
 53 54  1  0  0  0  0 
 52 55  1  0  0  0  0 
 51 56  1  0  0  0  0 
 56 57  1  0  0  0  0 
 56 58  1  0  0  0  0 
 58 59  2  0  0  0  0 
 58 60  1  0  0  0  0 
 60 61  1  0  0  0  0 
 60 62  1  0  0  0  0 
 62 63  1  0  0  0  0 
 62 64  1  0  0  0  0 
 64 65  1  0  0  0  0 
 64 66  1  0  0  0  0 
 64 67  1  0  0  0  0 
 62 67  1  0  0  0  0 
 67 68  1  0  0  0  0 
 67 69  1  0  0  0  0 
M  END
> <Rank>
3

> <Priority_score>
0.176

> <Reaction_type>
N-glucuronidation_(aliphatic_NH2)

> <Parent_ID>
45

> <Parent_InChI>
InChI=1S/C21H19ClN4O4/c1-29-19-10-17-13(9-14(19)20(23)27)18(6-7-24-17)30-12-4-5-16(15(22)8-12)26-21(28)25-11-2-3-11/h4-11H,2-3H2,1H3,(H2,23,27)(H2,25,26,28)

> <Parent_SMILES>
COc1cc2nccc(Oc3ccc(NC(=O)NC4CC4)c(Cl)c3)c2cc1C(N)=O

$$$$
Molecule 45_metabolite 4
  CDK     0516241031

 50 53  0  0  0  0  0  0  0  0999 V2000
   20.7899   -0.7504    0.0000 C   0  0  0  0  0  0  0  0  0  0  0  0
   22.0888   -1.5006    0.0000 H   0  0  0  0  0  0  0  0  0  0  0  0
   19.8259    0.3988    0.0000 H   0  0  0  0  0  0  0  0  0  0  0  0
   21.7543    0.3985    0.0000 H   0  0  0  0  0  0  0  0  0  0  0  0
   19.4907   -1.5002    0.0000 O   0  0  0  0  0  0  0  0  0  0  0  0
   18.1918   -0.7500    0.0000 C   0  0  0  0  0  0  0  0  0  0  0  0
   18.1918    0.7500    0.0000 C   0  0  0  0  0  0  0  0  0  0  0  0
   16.8918    1.5000    0.0000 C   0  0  0  0  0  0  0  0  0  0  0  0
   15.5918    0.7500    0.0000 C   0  0  0  0  0  0  0  0  0  0  0  0
   15.5918   -0.7500    0.0000 C   0  0  0  0  0  0  0  0  0  0  0  0
   16.8918   -1.5000    0.0000 C   0  0  0  0  0  0  0  0  0  0  0  0
   16.8918   -3.0000    0.0000 H   0  0  0  0  0  0  0  0  0  0  0  0
   14.2918   -1.5000    0.0000 N   0  0  0  0  0  0  0  0  0  0  0  0
   12.9918   -0.7500    0.0000 C   0  0  0  0  0  0  0  0  0  0  0  0
   11.6929   -1.5002    0.0000 H   0  0  0  0  0  0  0  0  0  0  0  0
   12.9918    0.7500    0.0000 C   0  0  0  0  0  0  0  0  0  0  0  0
   11.6929    1.5002    0.0000 H   0  0  0  0  0  0  0  0  0  0  0  0
   14.2918    1.5000    0.0000 C   0  0  0  0  0  0  0  0  0  0  0  0
   14.2918    3.0000    0.0000 O   0  0  0  0  0  0  0  0  0  0  0  0
   12.1614    4.2300    0.0000 C   0  0  0  0  0  0  0  0  0  0  0  0
   12.1612    5.7308    0.0000 C   0  0  0  0  0  0  0  0  0  0  0  0
   13.4603    6.4806    0.0000 H   0  0  0  0  0  0  0  0  0  0  0  0
   10.8618    6.4819    0.0000 C   0  0  0  0  0  0  0  0  0  0  0  0
   10.8622    7.9819    0.0000 H   0  0  0  0  0  0  0  0  0  0  0  0
    9.5626    5.7321    0.0000 C   0  0  0  0  0  0  0  0  0  0  0  0
    9.5628    4.2312    0.0000 C   0  0  0  0  0  0  0  0  0  0  0  0
   10.8622    3.4802    0.0000 C   0  0  0  0  0  0  0  0  0  0  0  0
   10.8618    1.9802    0.0000 H   0  0  0  0  0  0  0  0  0  0  0  0
    8.2637    3.4815    0.0000 Cl  0  0  0  0  0  0  0  0  0  0  0  0
    8.2636    6.4821    0.0000 N   0  0  0  0  0  0  0  0  0  0  0  0
    6.9645    5.7321    0.0000 H   0  0  0  0  0  0  0  0  0  0  0  0
    8.2636    7.9821    0.0000 C   0  0  0  0  0  0  0  0  0  0  0  0
    9.5626    8.7321    0.0000 O   0  0  0  0  0  0  0  0  0  0  0  0
    6.9645    8.7321    0.0000 N   0  0  0  0  0  0  0  0  0  0  0  0
    5.6655    7.9821    0.0000 H   0  0  0  0  0  0  0  0  0  0  0  0
    6.9645   10.2321    0.0000 C   0  0  0  0  0  0  0  0  0  0  0  0
    8.4418   10.4924    0.0000 H   0  0  0  0  0  0  0  0  0  0  0  0
    5.4865   10.4925    0.0000 C   0  0  0  0  0  0  0  0  0  0  0  0
    4.1877   11.2430    0.0000 H   0  0  0  0  0  0  0  0  0  0  0  0
    4.9733    9.0831    0.0000 H   0  0  0  0  0  0  0  0  0  0  0  0
    6.4518   11.6417    0.0000 C   0  0  0  0  0  0  0  0  0  0  0  0
    7.7511   12.3913    0.0000 H   0  0  0  0  0  0  0  0  0  0  0  0
    5.4881   12.7912    0.0000 H   0  0  0  0  0  0  0  0  0  0  0  0
   16.8918    3.0000    0.0000 O   0  0  0  0  0  0  0  0  0  0  0  0
   15.5928    3.7500    0.0000 H   0  0  0  0  0  0  0  0  0  0  0  0
   19.4907    1.5002    0.0000 C   0  0  0  0  0  0  0  0  0  0  0  0
   20.7899    0.7504    0.0000 O   0  0  0  0  0  0  0  0  0  0  0  0
   19.4905    3.0002    0.0000 N   0  0  0  0  0  0  0  0  0  0  0  0
   20.7894    3.7504    0.0000 H   0  0  0  0  0  0  0  0  0  0  0  0
   18.1913    3.7500    0.0000 H   0  0  0  0  0  0  0  0  0  0  0  0
  1  2  1  0  0  0  0 
  1  3  1  0  0  0  0 
  1  4  1  0  0  0  0 
  1  5  1  0  0  0  0 
  5  6  1  0  0  0  0 
  6  7  2  0  0  0  0 
  7  8  1  0  0  0  0 
  8  9  2  0  0  0  0 
  9 10  1  0  0  0  0 
 10 11  2  0  0  0  0 
  6 11  1  0  0  0  0 
 11 12  1  0  0  0  0 
 10 13  1  0  0  0  0 
 13 14  2  0  0  0  0 
 14 15  1  0  0  0  0 
 14 16  1  0  0  0  0 
 16 17  1  0  0  0  0 
 16 18  2  0  0  0  0 
  9 18  1  0  0  0  0 
 18 19  1  0  0  0  0 
 19 20  1  0  0  0  0 
 20 21  2  0  0  0  0 
 21 22  1  0  0  0  0 
 21 23  1  0  0  0  0 
 23 24  1  0  0  0  0 
 23 25  2  0  0  0  0 
 25 26  1  0  0  0  0 
 26 27  2  0  0  0  0 
 20 27  1  0  0  0  0 
 27 28  1  0  0  0  0 
 26 29  1  0  0  0  0 
 25 30  1  0  0  0  0 
 30 31  1  0  0  0  0 
 30 32  1  0  0  0  0 
 32 33  2  0  0  0  0 
 32 34  1  0  0  0  0 
 34 35  1  0  0  0  0 
 34 36  1  0  0  0  0 
 36 37  1  0  0  0  0 
 36 38  1  0  0  0  0 
 38 39  1  0  0  0  0 
 38 40  1  0  0  0  0 
 38 41  1  0  0  0  0 
 36 41  1  0  0  0  0 
 41 42  1  0  0  0  0 
 41 43  1  0  0  0  0 
  8 44  1  0  0  0  0 
 44 45  1  0  0  0  0 
  7 46  1  0  0  0  0 
 46 47  2  0  0  0  0 
 46 48  1  0  0  0  0 
 48 49  1  0  0  0  0 
 48 50  1  0  0  0  0 
M  END
> <Rank>
4

> <Priority_score>
0.144

> <Reaction_type>
aromatic_hydroxylation_(ortho_to_2_substituents)

> <Parent_ID>
45

> <Parent_InChI>
InChI=1S/C21H19ClN4O4/c1-29-19-10-17-13(9-14(19)20(23)27)18(6-7-24-17)30-12-4-5-16(15(22)8-12)26-21(28)25-11-2-3-11/h4-11H,2-3H2,1H3,(H2,23,27)(H2,25,26,28)

> <Parent_SMILES>
COc1cc2nccc(Oc3ccc(NC(=O)NC4CC4)c(Cl)c3)c2cc1C(N)=O

$$$$
Molecule 45_metabolite 5
  CDK     0516241031

 48 51  0  0  0  0  0  0  0  0999 V2000
   20.7899   -0.7504    0.0000 C   0  0  0  0  0  0  0  0  0  0  0  0
   22.0888   -1.5006    0.0000 H   0  0  0  0  0  0  0  0  0  0  0  0
   19.8259    0.3988    0.0000 H   0  0  0  0  0  0  0  0  0  0  0  0
   21.7543    0.3985    0.0000 H   0  0  0  0  0  0  0  0  0  0  0  0
   19.4907   -1.5002    0.0000 O   0  0  0  0  0  0  0  0  0  0  0  0
   18.1918   -0.7500    0.0000 C   0  0  0  0  0  0  0  0  0  0  0  0
   16.8918   -1.5000    0.0000 C   0  0  0  0  0  0  0  0  0  0  0  0
   16.8918   -3.0000    0.0000 H   0  0  0  0  0  0  0  0  0  0  0  0
   15.5918   -0.7500    0.0000 C   0  0  0  0  0  0  0  0  0  0  0  0
   15.5918    0.7500    0.0000 C   0  0  0  0  0  0  0  0  0  0  0  0
   16.8918    1.5000    0.0000 C   0  0  0  0  0  0  0  0  0  0  0  0
   16.8918    3.0000    0.0000 H   0  0  0  0  0  0  0  0  0  0  0  0
   18.1918    0.7500    0.0000 C   0  0  0  0  0  0  0  0  0  0  0  0
   19.4907    1.5002    0.0000 C   0  0  0  0  0  0  0  0  0  0  0  0
   19.4905    3.0002    0.0000 O   0  0  0  0  0  0  0  0  0  0  0  0
   20.7899    0.7504    0.0000 O   0  0  0  0  0  0  0  0  0  0  0  0
   22.0888    1.5006    0.0000 H   0  0  0  0  0  0  0  0  0  0  0  0
   14.2918    1.5000    0.0000 C   0  0  0  0  0  0  0  0  0  0  0  0
   12.9918    0.7500    0.0000 C   0  0  0  0  0  0  0  0  0  0  0  0
   11.6929    1.5002    0.0000 H   0  0  0  0  0  0  0  0  0  0  0  0
   12.9918   -0.7500    0.0000 C   0  0  0  0  0  0  0  0  0  0  0  0
   11.6929   -1.5002    0.0000 H   0  0  0  0  0  0  0  0  0  0  0  0
   14.2918   -1.5000    0.0000 N   0  0  0  0  0  0  0  0  0  0  0  0
   14.2918    3.0000    0.0000 O   0  0  0  0  0  0  0  0  0  0  0  0
   12.1614    4.2300    0.0000 C   0  0  0  0  0  0  0  0  0  0  0  0
   12.1612    5.7308    0.0000 C   0  0  0  0  0  0  0  0  0  0  0  0
   13.4603    6.4806    0.0000 H   0  0  0  0  0  0  0  0  0  0  0  0
   10.8618    6.4819    0.0000 C   0  0  0  0  0  0  0  0  0  0  0  0
   10.8622    7.9819    0.0000 H   0  0  0  0  0  0  0  0  0  0  0  0
    9.5626    5.7321    0.0000 C   0  0  0  0  0  0  0  0  0  0  0  0
    9.5628    4.2312    0.0000 C   0  0  0  0  0  0  0  0  0  0  0  0
   10.8622    3.4802    0.0000 C   0  0  0  0  0  0  0  0  0  0  0  0
   10.8618    1.9802    0.0000 H   0  0  0  0  0  0  0  0  0  0  0  0
    8.2637    3.4815    0.0000 Cl  0  0  0  0  0  0  0  0  0  0  0  0
    8.2636    6.4821    0.0000 N   0  0  0  0  0  0  0  0  0  0  0  0
    6.9645    5.7321    0.0000 H   0  0  0  0  0  0  0  0  0  0  0  0
    8.2636    7.9821    0.0000 C   0  0  0  0  0  0  0  0  0  0  0  0
    9.5626    8.7321    0.0000 O   0  0  0  0  0  0  0  0  0  0  0  0
    6.9645    8.7321    0.0000 N   0  0  0  0  0  0  0  0  0  0  0  0
    5.6655    7.9821    0.0000 H   0  0  0  0  0  0  0  0  0  0  0  0
    6.9645   10.2321    0.0000 C   0  0  0  0  0  0  0  0  0  0  0  0
    8.4418   10.4924    0.0000 H   0  0  0  0  0  0  0  0  0  0  0  0
    5.4865   10.4925    0.0000 C   0  0  0  0  0  0  0  0  0  0  0  0
    4.1877   11.2430    0.0000 H   0  0  0  0  0  0  0  0  0  0  0  0
    4.9733    9.0831    0.0000 H   0  0  0  0  0  0  0  0  0  0  0  0
    6.4518   11.6417    0.0000 C   0  0  0  0  0  0  0  0  0  0  0  0
    7.7511   12.3913    0.0000 H   0  0  0  0  0  0  0  0  0  0  0  0
    5.4881   12.7912    0.0000 H   0  0  0  0  0  0  0  0  0  0  0  0
  1  2  1  0  0  0  0 
  1  3  1  0  0  0  0 
  1  4  1  0  0  0  0 
  1  5  1  0  0  0  0 
  5  6  1  0  0  0  0 
  6  7  2  0  0  0  0 
  7  8  1  0  0  0  0 
  7  9  1  0  0  0  0 
  9 10  2  0  0  0  0 
 10 11  1  0  0  0  0 
 11 12  1  0  0  0  0 
 11 13  2  0  0  0  0 
  6 13  1  0  0  0  0 
 13 14  1  0  0  0  0 
 14 15  2  0  0  0  0 
 14 16  1  0  0  0  0 
 16 17  1  0  0  0  0 
 10 18  1  0  0  0  0 
 18 19  2  0  0  0  0 
 19 20  1  0  0  0  0 
 19 21  1  0  0  0  0 
 21 22  1  0  0  0  0 
 21 23  2  0  0  0  0 
  9 23  1  0  0  0  0 
 18 24  1  0  0  0  0 
 24 25  1  0  0  0  0 
 25 26  2  0  0  0  0 
 26 27  1  0  0  0  0 
 26 28  1  0  0  0  0 
 28 29  1  0  0  0  0 
 28 30  2  0  0  0  0 
 30 31  1  0  0  0  0 
 31 32  2  0  0  0  0 
 25 32  1  0  0  0  0 
 32 33  1  0  0  0  0 
 31 34  1  0  0  0  0 
 30 35  1  0  0  0  0 
 35 36  1  0  0  0  0 
 35 37  1  0  0  0  0 
 37 38  2  0  0  0  0 
 37 39  1  0  0  0  0 
 39 40  1  0  0  0  0 
 39 41  1  0  0  0  0 
 41 42  1  0  0  0  0 
 41 43  1  0  0  0  0 
 43 44  1  0  0  0  0 
 43 45  1  0  0  0  0 
 43 46  1  0  0  0  0 
 41 46  1  0  0  0  0 
 46 47  1  0  0  0  0 
 46 48  1  0  0  0  0 
M  END
> <Rank>
4

> <Priority_score>
0.144

> <Reaction_type>
hydrolysis_(primary_amide)

> <Parent_ID>
45

> <Parent_InChI>
InChI=1S/C21H19ClN4O4/c1-29-19-10-17-13(9-14(19)20(23)27)18(6-7-24-17)30-12-4-5-16(15(22)8-12)26-21(28)25-11-2-3-11/h4-11H,2-3H2,1H3,(H2,23,27)(H2,25,26,28)

> <Parent_SMILES>
COc1cc2nccc(Oc3ccc(NC(=O)NC4CC4)c(Cl)c3)c2cc1C(N)=O

$$$$
Molecule 45_metabolite 6
  CDK     0516241031

 50 53  0  0  0  0  0  0  0  0999 V2000
   20.7899   -0.7504    0.0000 C   0  0  0  0  0  0  0  0  0  0  0  0
   22.0888   -1.5006    0.0000 H   0  0  0  0  0  0  0  0  0  0  0  0
   19.8259    0.3988    0.0000 H   0  0  0  0  0  0  0  0  0  0  0  0
   21.7543    0.3985    0.0000 H   0  0  0  0  0  0  0  0  0  0  0  0
   19.4907   -1.5002    0.0000 O   0  0  0  0  0  0  0  0  0  0  0  0
   18.1918   -0.7500    0.0000 C   0  0  0  0  0  0  0  0  0  0  0  0
   16.8918   -1.5000    0.0000 C   0  0  0  0  0  0  0  0  0  0  0  0
   16.8918   -3.0000    0.0000 H   0  0  0  0  0  0  0  0  0  0  0  0
   15.5918   -0.7500    0.0000 C   0  0  0  0  0  0  0  0  0  0  0  0
   15.5918    0.7500    0.0000 C   0  0  0  0  0  0  0  0  0  0  0  0
   16.8918    1.5000    0.0000 C   0  0  0  0  0  0  0  0  0  0  0  0
   16.8918    3.0000    0.0000 H   0  0  0  0  0  0  0  0  0  0  0  0
   18.1918    0.7500    0.0000 C   0  0  0  0  0  0  0  0  0  0  0  0
   19.4907    1.5002    0.0000 C   0  0  0  0  0  0  0  0  0  0  0  0
   20.7899    0.7504    0.0000 O   0  0  0  0  0  0  0  0  0  0  0  0
   19.4905    3.0002    0.0000 N   0  0  0  0  0  0  0  0  0  0  0  0
   18.1913    3.7500    0.0000 H   0  0  0  0  0  0  0  0  0  0  0  0
   20.7894    3.7504    0.0000 O   0  0  0  0  0  0  0  0  0  0  0  0
   20.7892    5.2504    0.0000 H   0  0  0  0  0  0  0  0  0  0  0  0
   14.2918    1.5000    0.0000 C   0  0  0  0  0  0  0  0  0  0  0  0
   12.9918    0.7500    0.0000 C   0  0  0  0  0  0  0  0  0  0  0  0
   11.6929    1.5002    0.0000 H   0  0  0  0  0  0  0  0  0  0  0  0
   12.9918   -0.7500    0.0000 C   0  0  0  0  0  0  0  0  0  0  0  0
   11.6929   -1.5002    0.0000 H   0  0  0  0  0  0  0  0  0  0  0  0
   14.2918   -1.5000    0.0000 N   0  0  0  0  0  0  0  0  0  0  0  0
   14.2918    3.0000    0.0000 O   0  0  0  0  0  0  0  0  0  0  0  0
   12.1614    4.2300    0.0000 C   0  0  0  0  0  0  0  0  0  0  0  0
   12.1612    5.7308    0.0000 C   0  0  0  0  0  0  0  0  0  0  0  0
   13.4603    6.4806    0.0000 H   0  0  0  0  0  0  0  0  0  0  0  0
   10.8618    6.4819    0.0000 C   0  0  0  0  0  0  0  0  0  0  0  0
   10.8622    7.9819    0.0000 H   0  0  0  0  0  0  0  0  0  0  0  0
    9.5626    5.7321    0.0000 C   0  0  0  0  0  0  0  0  0  0  0  0
    9.5628    4.2312    0.0000 C   0  0  0  0  0  0  0  0  0  0  0  0
   10.8622    3.4802    0.0000 C   0  0  0  0  0  0  0  0  0  0  0  0
   10.8618    1.9802    0.0000 H   0  0  0  0  0  0  0  0  0  0  0  0
    8.2637    3.4815    0.0000 Cl  0  0  0  0  0  0  0  0  0  0  0  0
    8.2636    6.4821    0.0000 N   0  0  0  0  0  0  0  0  0  0  0  0
    6.9645    5.7321    0.0000 H   0  0  0  0  0  0  0  0  0  0  0  0
    8.2636    7.9821    0.0000 C   0  0  0  0  0  0  0  0  0  0  0  0
    9.5626    8.7321    0.0000 O   0  0  0  0  0  0  0  0  0  0  0  0
    6.9645    8.7321    0.0000 N   0  0  0  0  0  0  0  0  0  0  0  0
    5.6655    7.9821    0.0000 H   0  0  0  0  0  0  0  0  0  0  0  0
    6.9645   10.2321    0.0000 C   0  0  0  0  0  0  0  0  0  0  0  0
    8.4418   10.4924    0.0000 H   0  0  0  0  0  0  0  0  0  0  0  0
    5.4865   10.4925    0.0000 C   0  0  0  0  0  0  0  0  0  0  0  0
    4.1877   11.2430    0.0000 H   0  0  0  0  0  0  0  0  0  0  0  0
    4.9733    9.0831    0.0000 H   0  0  0  0  0  0  0  0  0  0  0  0
    6.4518   11.6417    0.0000 C   0  0  0  0  0  0  0  0  0  0  0  0
    7.7511   12.3913    0.0000 H   0  0  0  0  0  0  0  0  0  0  0  0
    5.4881   12.7912    0.0000 H   0  0  0  0  0  0  0  0  0  0  0  0
  1  2  1  0  0  0  0 
  1  3  1  0  0  0  0 
  1  4  1  0  0  0  0 
  1  5  1  0  0  0  0 
  5  6  1  0  0  0  0 
  6  7  2  0  0  0  0 
  7  8  1  0  0  0  0 
  7  9  1  0  0  0  0 
  9 10  2  0  0  0  0 
 10 11  1  0  0  0  0 
 11 12  1  0  0  0  0 
 11 13  2  0  0  0  0 
  6 13  1  0  0  0  0 
 13 14  1  0  0  0  0 
 14 15  2  0  0  0  0 
 14 16  1  0  0  0  0 
 16 17  1  0  0  0  0 
 16 18  1  0  0  0  0 
 18 19  1  0  0  0  0 
 10 20  1  0  0  0  0 
 20 21  2  0  0  0  0 
 21 22  1  0  0  0  0 
 21 23  1  0  0  0  0 
 23 24  1  0  0  0  0 
 23 25  2  0  0  0  0 
  9 25  1  0  0  0  0 
 20 26  1  0  0  0  0 
 26 27  1  0  0  0  0 
 27 28  2  0  0  0  0 
 28 29  1  0  0  0  0 
 28 30  1  0  0  0  0 
 30 31  1  0  0  0  0 
 30 32  2  0  0  0  0 
 32 33  1  0  0  0  0 
 33 34  2  0  0  0  0 
 27 34  1  0  0  0  0 
 34 35  1  0  0  0  0 
 33 36  1  0  0  0  0 
 32 37  1  0  0  0  0 
 37 38  1  0  0  0  0 
 37 39  1  0  0  0  0 
 39 40  2  0  0  0  0 
 39 41  1  0  0  0  0 
 41 42  1  0  0  0  0 
 41 43  1  0  0  0  0 
 43 44  1  0  0  0  0 
 43 45  1  0  0  0  0 
 45 46  1  0  0  0  0 
 45 47  1  0  0  0  0 
 45 48  1  0  0  0  0 
 43 48  1  0  0  0  0 
 48 49  1  0  0  0  0 
 48 50  1  0  0  0  0 
M  END
> <Rank>
4

> <Priority_score>
0.144

> <Reaction_type>
amine hydroxylation

> <Parent_ID>
45

> <Parent_InChI>
InChI=1S/C21H19ClN4O4/c1-29-19-10-17-13(9-14(19)20(23)27)18(6-7-24-17)30-12-4-5-16(15(22)8-12)26-21(28)25-11-2-3-11/h4-11H,2-3H2,1H3,(H2,23,27)(H2,25,26,28)

> <Parent_SMILES>
COc1cc2nccc(Oc3ccc(NC(=O)NC4CC4)c(Cl)c3)c2cc1C(N)=O

$$$$
Molecule 45_metabolite 7
  CDK     0516241031

  8  8  0  0  0  0  0  0  0  0999 V2000
   -0.4602   -0.7246    0.0000 C   0  0  0  0  0  0  0  0  0  0  0  0
   -1.9374   -0.9854    0.0000 H   0  0  0  0  0  0  0  0  0  0  0  0
    0.0529   -2.1341    0.0000 H   0  0  0  0  0  0  0  0  0  0  0  0
   -0.4607    0.7762    0.0000 C   0  0  0  0  0  0  0  0  0  0  0  0
    0.0525    2.1857    0.0000 H   0  0  0  0  0  0  0  0  0  0  0  0
   -1.9380    1.0365    0.0000 H   0  0  0  0  0  0  0  0  0  0  0  0
    0.8388    0.0254    0.0000 C   0  0  0  0  0  0  0  0  0  0  0  0
    2.3388    0.0251    0.0000 O   0  0  0  0  0  0  0  0  0  0  0  0
  1  2  1  0  0  0  0 
  1  3  1  0  0  0  0 
  1  4  1  0  0  0  0 
  4  5  1  0  0  0  0 
  4  6  1  0  0  0  0 
  4  7  1  0  0  0  0 
  1  7  1  0  0  0  0 
  7  8  2  0  0  0  0 
M  END
> <Rank>
7

> <Priority_score>
0.136

> <Reaction_type>
N-dealkylation

> <Parent_ID>
45

> <Parent_InChI>
InChI=1S/C21H19ClN4O4/c1-29-19-10-17-13(9-14(19)20(23)27)18(6-7-24-17)30-12-4-5-16(15(22)8-12)26-21(28)25-11-2-3-11/h4-11H,2-3H2,1H3,(H2,23,27)(H2,25,26,28)

> <Parent_SMILES>
COc1cc2nccc(Oc3ccc(NC(=O)NC4CC4)c(Cl)c3)c2cc1C(N)=O

$$$$
Molecule 45_metabolite 8
  CDK     0516241031

 41 43  0  0  0  0  0  0  0  0999 V2000
   -5.1981   -0.7504    0.0000 C   0  0  0  0  0  0  0  0  0  0  0  0
   -6.4970   -1.5006    0.0000 H   0  0  0  0  0  0  0  0  0  0  0  0
   -4.2341    0.3988    0.0000 H   0  0  0  0  0  0  0  0  0  0  0  0
   -6.1624    0.3985    0.0000 H   0  0  0  0  0  0  0  0  0  0  0  0
   -3.8989   -1.5002    0.0000 O   0  0  0  0  0  0  0  0  0  0  0  0
   -2.6000   -0.7500    0.0000 C   0  0  0  0  0  0  0  0  0  0  0  0
   -1.3000   -1.5000    0.0000 C   0  0  0  0  0  0  0  0  0  0  0  0
   -1.3000   -3.0000    0.0000 H   0  0  0  0  0  0  0  0  0  0  0  0
   -0.0000   -0.7500    0.0000 C   0  0  0  0  0  0  0  0  0  0  0  0
   -0.0000    0.7500    0.0000 C   0  0  0  0  0  0  0  0  0  0  0  0
   -1.3000    1.5000    0.0000 C   0  0  0  0  0  0  0  0  0  0  0  0
   -1.3000    3.0000    0.0000 H   0  0  0  0  0  0  0  0  0  0  0  0
   -2.6000    0.7500    0.0000 C   0  0  0  0  0  0  0  0  0  0  0  0
   -3.8989    1.5002    0.0000 C   0  0  0  0  0  0  0  0  0  0  0  0
   -5.1981    0.7504    0.0000 O   0  0  0  0  0  0  0  0  0  0  0  0
   -3.8987    3.0002    0.0000 N   0  0  0  0  0  0  0  0  0  0  0  0
   -5.1976    3.7504    0.0000 H   0  0  0  0  0  0  0  0  0  0  0  0
   -2.5995    3.7500    0.0000 H   0  0  0  0  0  0  0  0  0  0  0  0
    1.3000    1.5000    0.0000 C   0  0  0  0  0  0  0  0  0  0  0  0
    2.6000    0.7500    0.0000 C   0  0  0  0  0  0  0  0  0  0  0  0
    3.8989    1.5002    0.0000 H   0  0  0  0  0  0  0  0  0  0  0  0
    2.6000   -0.7500    0.0000 C   0  0  0  0  0  0  0  0  0  0  0  0
    3.8989   -1.5002    0.0000 H   0  0  0  0  0  0  0  0  0  0  0  0
    1.3000   -1.5000    0.0000 N   0  0  0  0  0  0  0  0  0  0  0  0
    1.3000    3.0000    0.0000 O   0  0  0  0  0  0  0  0  0  0  0  0
    3.4304    4.2300    0.0000 C   0  0  0  0  0  0  0  0  0  0  0  0
    3.4307    5.7308    0.0000 C   0  0  0  0  0  0  0  0  0  0  0  0
    2.1315    6.4806    0.0000 H   0  0  0  0  0  0  0  0  0  0  0  0
    4.7301    6.4819    0.0000 C   0  0  0  0  0  0  0  0  0  0  0  0
    4.7296    7.9819    0.0000 H   0  0  0  0  0  0  0  0  0  0  0  0
    6.0292    5.7321    0.0000 C   0  0  0  0  0  0  0  0  0  0  0  0
    6.0290    4.2312    0.0000 C   0  0  0  0  0  0  0  0  0  0  0  0
    4.7296    3.4802    0.0000 C   0  0  0  0  0  0  0  0  0  0  0  0
    4.7301    1.9802    0.0000 H   0  0  0  0  0  0  0  0  0  0  0  0
    7.3281    3.4815    0.0000 Cl  0  0  0  0  0  0  0  0  0  0  0  0
    7.3283    6.4821    0.0000 N   0  0  0  0  0  0  0  0  0  0  0  0
    8.6273    5.7321    0.0000 H   0  0  0  0  0  0  0  0  0  0  0  0
    7.3283    7.9821    0.0000 C   0  0  0  0  0  0  0  0  0  0  0  0
    6.0292    8.7321    0.0000 O   0  0  0  0  0  0  0  0  0  0  0  0
    8.6273    8.7321    0.0000 O   0  0  0  0  0  0  0  0  0  0  0  0
    8.6273   10.2321    0.0000 H   0  0  0  0  0  0  0  0  0  0  0  0
  1  2  1  0  0  0  0 
  1  3  1  0  0  0  0 
  1  4  1  0  0  0  0 
  1  5  1  0  0  0  0 
  5  6  1  0  0  0  0 
  6  7  2  0  0  0  0 
  7  8  1  0  0  0  0 
  7  9  1  0  0  0  0 
  9 10  2  0  0  0  0 
 10 11  1  0  0  0  0 
 11 12  1  0  0  0  0 
 11 13  2  0  0  0  0 
  6 13  1  0  0  0  0 
 13 14  1  0  0  0  0 
 14 15  2  0  0  0  0 
 14 16  1  0  0  0  0 
 16 17  1  0  0  0  0 
 16 18  1  0  0  0  0 
 10 19  1  0  0  0  0 
 19 20  2  0  0  0  0 
 20 21  1  0  0  0  0 
 20 22  1  0  0  0  0 
 22 23  1  0  0  0  0 
 22 24  2  0  0  0  0 
  9 24  1  0  0  0  0 
 19 25  1  0  0  0  0 
 25 26  1  0  0  0  0 
 26 27  2  0  0  0  0 
 27 28  1  0  0  0  0 
 27 29  1  0  0  0  0 
 29 30  1  0  0  0  0 
 29 31  2  0  0  0  0 
 31 32  1  0  0  0  0 
 32 33  2  0  0  0  0 
 26 33  1  0  0  0  0 
 33 34  1  0  0  0  0 
 32 35  1  0  0  0  0 
 31 36  1  0  0  0  0 
 36 37  1  0  0  0  0 
 36 38  1  0  0  0  0 
 38 39  2  0  0  0  0 
 38 40  1  0  0  0  0 
 40 41  1  0  0  0  0 
M  END
> <Rank>
7

> <Priority_score>
0.136

> <Reaction_type>
hydrolysis_(urea_or_carbonate)

> <Parent_ID>
45

> <Parent_InChI>
InChI=1S/C21H19ClN4O4/c1-29-19-10-17-13(9-14(19)20(23)27)18(6-7-24-17)30-12-4-5-16(15(22)8-12)26-21(28)25-11-2-3-11/h4-11H,2-3H2,1H3,(H2,23,27)(H2,25,26,28)

> <Parent_SMILES>
COc1cc2nccc(Oc3ccc(NC(=O)NC4CC4)c(Cl)c3)c2cc1C(N)=O

$$$$
Molecule 45_metabolite 9
  CDK     0516241031

 50 53  0  0  0  0  0  0  0  0999 V2000
   -5.1981   -0.7504    0.0000 C   0  0  0  0  0  0  0  0  0  0  0  0
   -6.4970   -1.5006    0.0000 H   0  0  0  0  0  0  0  0  0  0  0  0
   -4.2341    0.3988    0.0000 H   0  0  0  0  0  0  0  0  0  0  0  0
   -6.1624    0.3985    0.0000 H   0  0  0  0  0  0  0  0  0  0  0  0
   -3.8989   -1.5002    0.0000 O   0  0  0  0  0  0  0  0  0  0  0  0
   -2.6000   -0.7500    0.0000 C   0  0  0  0  0  0  0  0  0  0  0  0
   -1.3000   -1.5000    0.0000 C   0  0  0  0  0  0  0  0  0  0  0  0
   -1.3000   -3.0000    0.0000 H   0  0  0  0  0  0  0  0  0  0  0  0
   -0.0000   -0.7500    0.0000 C   0  0  0  0  0  0  0  0  0  0  0  0
   -0.0000    0.7500    0.0000 C   0  0  0  0  0  0  0  0  0  0  0  0
   -1.3000    1.5000    0.0000 C   0  0  0  0  0  0  0  0  0  0  0  0
   -1.3000    3.0000    0.0000 H   0  0  0  0  0  0  0  0  0  0  0  0
   -2.6000    0.7500    0.0000 C   0  0  0  0  0  0  0  0  0  0  0  0
   -3.8989    1.5002    0.0000 C   0  0  0  0  0  0  0  0  0  0  0  0
   -5.1981    0.7504    0.0000 O   0  0  0  0  0  0  0  0  0  0  0  0
   -3.8987    3.0002    0.0000 N   0  0  0  0  0  0  0  0  0  0  0  0
   -5.1976    3.7504    0.0000 H   0  0  0  0  0  0  0  0  0  0  0  0
   -2.5995    3.7500    0.0000 H   0  0  0  0  0  0  0  0  0  0  0  0
    1.3000    1.5000    0.0000 C   0  0  0  0  0  0  0  0  0  0  0  0
    2.6000    0.7500    0.0000 C   0  0  0  0  0  0  0  0  0  0  0  0
    3.8989    1.5002    0.0000 H   0  0  0  0  0  0  0  0  0  0  0  0
    2.6000   -0.7500    0.0000 C   0  0  0  0  0  0  0  0  0  0  0  0
    3.8989   -1.5002    0.0000 H   0  0  0  0  0  0  0  0  0  0  0  0
    1.3000   -1.5000    0.0000 N   0  0  0  0  0  0  0  0  0  0  0  0
    1.3000    3.0000    0.0000 O   0  0  0  0  0  0  0  0  0  0  0  0
    3.4304    4.2300    0.0000 C   0  0  0  0  0  0  0  0  0  0  0  0
    3.4307    5.7308    0.0000 C   0  0  0  0  0  0  0  0  0  0  0  0
    2.1315    6.4806    0.0000 H   0  0  0  0  0  0  0  0  0  0  0  0
    4.7301    6.4819    0.0000 C   0  0  0  0  0  0  0  0  0  0  0  0
    4.7296    7.9819    0.0000 H   0  0  0  0  0  0  0  0  0  0  0  0
    6.0292    5.7321    0.0000 C   0  0  0  0  0  0  0  0  0  0  0  0
    6.0290    4.2312    0.0000 C   0  0  0  0  0  0  0  0  0  0  0  0
    4.7296    3.4802    0.0000 C   0  0  0  0  0  0  0  0  0  0  0  0
    4.7301    1.9802    0.0000 H   0  0  0  0  0  0  0  0  0  0  0  0
    7.3281    3.4815    0.0000 Cl  0  0  0  0  0  0  0  0  0  0  0  0
    7.3283    6.4821    0.0000 N   0  0  0  0  0  0  0  0  0  0  0  0
    8.6273    5.7321    0.0000 H   0  0  0  0  0  0  0  0  0  0  0  0
    7.3283    7.9821    0.0000 C   0  0  0  0  0  0  0  0  0  0  0  0
    6.0292    8.7321    0.0000 O   0  0  0  0  0  0  0  0  0  0  0  0
    8.6273    8.7321    0.0000 N   0  0  0  0  0  0  0  0  0  0  0  0
    8.6273   10.7121    0.0000 C   0  0  0  0  0  0  0  0  0  0  0  0
   10.1045   10.9724    0.0000 H   0  0  0  0  0  0  0  0  0  0  0  0
    7.1492   10.9725    0.0000 C   0  0  0  0  0  0  0  0  0  0  0  0
    5.8504   11.7230    0.0000 H   0  0  0  0  0  0  0  0  0  0  0  0
    6.6361    9.5631    0.0000 H   0  0  0  0  0  0  0  0  0  0  0  0
    8.1146   12.1217    0.0000 C   0  0  0  0  0  0  0  0  0  0  0  0
    9.4138   12.8713    0.0000 H   0  0  0  0  0  0  0  0  0  0  0  0
    7.1509   13.2712    0.0000 H   0  0  0  0  0  0  0  0  0  0  0  0
    9.9263    7.9821    0.0000 O   0  0  0  0  0  0  0  0  0  0  0  0
   11.2254    8.7321    0.0000 H   0  0  0  0  0  0  0  0  0  0  0  0
  1  2  1  0  0  0  0 
  1  3  1  0  0  0  0 
  1  4  1  0  0  0  0 
  1  5  1  0  0  0  0 
  5  6  1  0  0  0  0 
  6  7  2  0  0  0  0 
  7  8  1  0  0  0  0 
  7  9  1  0  0  0  0 
  9 10  2  0  0  0  0 
 10 11  1  0  0  0  0 
 11 12  1  0  0  0  0 
 11 13  2  0  0  0  0 
  6 13  1  0  0  0  0 
 13 14  1  0  0  0  0 
 14 15  2  0  0  0  0 
 14 16  1  0  0  0  0 
 16 17  1  0  0  0  0 
 16 18  1  0  0  0  0 
 10 19  1  0  0  0  0 
 19 20  2  0  0  0  0 
 20 21  1  0  0  0  0 
 20 22  1  0  0  0  0 
 22 23  1  0  0  0  0 
 22 24  2  0  0  0  0 
  9 24  1  0  0  0  0 
 19 25  1  0  0  0  0 
 25 26  1  0  0  0  0 
 26 27  2  0  0  0  0 
 27 28  1  0  0  0  0 
 27 29  1  0  0  0  0 
 29 30  1  0  0  0  0 
 29 31  2  0  0  0  0 
 31 32  1  0  0  0  0 
 32 33  2  0  0  0  0 
 26 33  1  0  0  0  0 
 33 34  1  0  0  0  0 
 32 35  1  0  0  0  0 
 31 36  1  0  0  0  0 
 36 37  1  0  0  0  0 
 36 38  1  0  0  0  0 
 38 39  2  0  0  0  0 
 38 40  1  0  0  0  0 
 40 41  1  0  0  0  0 
 41 42  1  0  0  0  0 
 41 43  1  0  0  0  0 
 43 44  1  0  0  0  0 
 43 45  1  0  0  0  0 
 43 46  1  0  0  0  0 
 41 46  1  0  0  0  0 
 46 47  1  0  0  0  0 
 46 48  1  0  0  0  0 
 40 49  1  0  0  0  0 
 49 50  1  0  0  0  0 
M  END
> <Rank>
7

> <Priority_score>
0.136

> <Reaction_type>
amine hydroxylation

> <Parent_ID>
45

> <Parent_InChI>
InChI=1S/C21H19ClN4O4/c1-29-19-10-17-13(9-14(19)20(23)27)18(6-7-24-17)30-12-4-5-16(15(22)8-12)26-21(28)25-11-2-3-11/h4-11H,2-3H2,1H3,(H2,23,27)(H2,25,26,28)

> <Parent_SMILES>
COc1cc2nccc(Oc3ccc(NC(=O)NC4CC4)c(Cl)c3)c2cc1C(N)=O

$$$$
Molecule 45_metabolite 10
  CDK     0516241031

 42 44  0  0  0  0  0  0  0  0999 V2000
   -5.1981   -0.7504    0.0000 C   0  0  0  0  0  0  0  0  0  0  0  0
   -6.4970   -1.5006    0.0000 H   0  0  0  0  0  0  0  0  0  0  0  0
   -4.2341    0.3988    0.0000 H   0  0  0  0  0  0  0  0  0  0  0  0
   -6.1624    0.3985    0.0000 H   0  0  0  0  0  0  0  0  0  0  0  0
   -3.8989   -1.5002    0.0000 O   0  0  0  0  0  0  0  0  0  0  0  0
   -2.6000   -0.7500    0.0000 C   0  0  0  0  0  0  0  0  0  0  0  0
   -1.3000   -1.5000    0.0000 C   0  0  0  0  0  0  0  0  0  0  0  0
   -1.3000   -3.0000    0.0000 H   0  0  0  0  0  0  0  0  0  0  0  0
   -0.0000   -0.7500    0.0000 C   0  0  0  0  0  0  0  0  0  0  0  0
   -0.0000    0.7500    0.0000 C   0  0  0  0  0  0  0  0  0  0  0  0
   -1.3000    1.5000    0.0000 C   0  0  0  0  0  0  0  0  0  0  0  0
   -1.3000    3.0000    0.0000 H   0  0  0  0  0  0  0  0  0  0  0  0
   -2.6000    0.7500    0.0000 C   0  0  0  0  0  0  0  0  0  0  0  0
   -3.8989    1.5002    0.0000 C   0  0  0  0  0  0  0  0  0  0  0  0
   -5.1981    0.7504    0.0000 O   0  0  0  0  0  0  0  0  0  0  0  0
   -3.8987    3.0002    0.0000 N   0  0  0  0  0  0  0  0  0  0  0  0
   -5.1976    3.7504    0.0000 H   0  0  0  0  0  0  0  0  0  0  0  0
   -2.5995    3.7500    0.0000 H   0  0  0  0  0  0  0  0  0  0  0  0
    1.3000    1.5000    0.0000 C   0  0  0  0  0  0  0  0  0  0  0  0
    2.6000    0.7500    0.0000 C   0  0  0  0  0  0  0  0  0  0  0  0
    3.8989    1.5002    0.0000 H   0  0  0  0  0  0  0  0  0  0  0  0
    2.6000   -0.7500    0.0000 C   0  0  0  0  0  0  0  0  0  0  0  0
    3.8989   -1.5002    0.0000 H   0  0  0  0  0  0  0  0  0  0  0  0
    1.3000   -1.5000    0.0000 N   0  0  0  0  0  0  0  0  0  0  0  0
    1.3000    3.0000    0.0000 O   0  0  0  0  0  0  0  0  0  0  0  0
    3.4304    4.2300    0.0000 C   0  0  0  0  0  0  0  0  0  0  0  0
    3.4307    5.7308    0.0000 C   0  0  0  0  0  0  0  0  0  0  0  0
    2.1315    6.4806    0.0000 H   0  0  0  0  0  0  0  0  0  0  0  0
    4.7301    6.4819    0.0000 C   0  0  0  0  0  0  0  0  0  0  0  0
    4.7296    7.9819    0.0000 H   0  0  0  0  0  0  0  0  0  0  0  0
    6.0292    5.7321    0.0000 C   0  0  0  0  0  0  0  0  0  0  0  0
    6.0290    4.2312    0.0000 C   0  0  0  0  0  0  0  0  0  0  0  0
    4.7296    3.4802    0.0000 C   0  0  0  0  0  0  0  0  0  0  0  0
    4.7301    1.9802    0.0000 H   0  0  0  0  0  0  0  0  0  0  0  0
    7.3281    3.4815    0.0000 Cl  0  0  0  0  0  0  0  0  0  0  0  0
    7.3283    6.4821    0.0000 N   0  0  0  0  0  0  0  0  0  0  0  0
    8.6273    5.7321    0.0000 H   0  0  0  0  0  0  0  0  0  0  0  0
    7.3283    7.9821    0.0000 C   0  0  0  0  0  0  0  0  0  0  0  0
    6.0292    8.7321    0.0000 O   0  0  0  0  0  0  0  0  0  0  0  0
    8.6273    8.7321    0.0000 N   0  0  0  0  0  0  0  0  0  0  0  0
    8.6273   10.2321    0.0000 H   0  0  0  0  0  0  0  0  0  0  0  0
    9.9263    7.9821    0.0000 H   0  0  0  0  0  0  0  0  0  0  0  0
  1  2  1  0  0  0  0 
  1  3  1  0  0  0  0 
  1  4  1  0  0  0  0 
  1  5  1  0  0  0  0 
  5  6  1  0  0  0  0 
  6  7  2  0  0  0  0 
  7  8  1  0  0  0  0 
  7  9  1  0  0  0  0 
  9 10  2  0  0  0  0 
 10 11  1  0  0  0  0 
 11 12  1  0  0  0  0 
 11 13  2  0  0  0  0 
  6 13  1  0  0  0  0 
 13 14  1  0  0  0  0 
 14 15  2  0  0  0  0 
 14 16  1  0  0  0  0 
 16 17  1  0  0  0  0 
 16 18  1  0  0  0  0 
 10 19  1  0  0  0  0 
 19 20  2  0  0  0  0 
 20 21  1  0  0  0  0 
 20 22  1  0  0  0  0 
 22 23  1  0  0  0  0 
 22 24  2  0  0  0  0 
  9 24  1  0  0  0  0 
 19 25  1  0  0  0  0 
 25 26  1  0  0  0  0 
 26 27  2  0  0  0  0 
 27 28  1  0  0  0  0 
 27 29  1  0  0  0  0 
 29 30  1  0  0  0  0 
 29 31  2  0  0  0  0 
 31 32  1  0  0  0  0 
 32 33  2  0  0  0  0 
 26 33  1  0  0  0  0 
 33 34  1  0  0  0  0 
 32 35  1  0  0  0  0 
 31 36  1  0  0  0  0 
 36 37  1  0  0  0  0 
 36 38  1  0  0  0  0 
 38 39  2  0  0  0  0 
 38 40  1  0  0  0  0 
 40 41  1  0  0  0  0 
 40 42  1  0  0  0  0 
M  END
> <Rank>
7

> <Priority_score>
0.136

> <Reaction_type>
N-dealkylation

> <Parent_ID>
45

> <Parent_InChI>
InChI=1S/C21H19ClN4O4/c1-29-19-10-17-13(9-14(19)20(23)27)18(6-7-24-17)30-12-4-5-16(15(22)8-12)26-21(28)25-11-2-3-11/h4-11H,2-3H2,1H3,(H2,23,27)(H2,25,26,28)

> <Parent_SMILES>
COc1cc2nccc(Oc3ccc(NC(=O)NC4CC4)c(Cl)c3)c2cc1C(N)=O

$$$$
Molecule 45_metabolite 11
  CDK     0516241031

 50 53  0  0  0  0  0  0  0  0999 V2000
   20.7899   -0.7504    0.0000 C   0  0  0  0  0  0  0  0  0  0  0  0
   22.0888   -1.5006    0.0000 H   0  0  0  0  0  0  0  0  0  0  0  0
   19.8259    0.3988    0.0000 H   0  0  0  0  0  0  0  0  0  0  0  0
   21.7543    0.3985    0.0000 H   0  0  0  0  0  0  0  0  0  0  0  0
   19.4907   -1.5002    0.0000 O   0  0  0  0  0  0  0  0  0  0  0  0
   18.1918   -0.7500    0.0000 C   0  0  0  0  0  0  0  0  0  0  0  0
   16.8918   -1.5000    0.0000 C   0  0  0  0  0  0  0  0  0  0  0  0
   16.8918   -3.0000    0.0000 H   0  0  0  0  0  0  0  0  0  0  0  0
   15.5918   -0.7500    0.0000 C   0  0  0  0  0  0  0  0  0  0  0  0
   15.5918    0.7500    0.0000 C   0  0  0  0  0  0  0  0  0  0  0  0
   16.8918    1.5000    0.0000 C   0  0  0  0  0  0  0  0  0  0  0  0
   16.8918    3.0000    0.0000 H   0  0  0  0  0  0  0  0  0  0  0  0
   18.1918    0.7500    0.0000 C   0  0  0  0  0  0  0  0  0  0  0  0
   19.4907    1.5002    0.0000 C   0  0  0  0  0  0  0  0  0  0  0  0
   20.7899    0.7504    0.0000 O   0  0  0  0  0  0  0  0  0  0  0  0
   19.4905    3.0002    0.0000 N   0  0  0  0  0  0  0  0  0  0  0  0
   20.7894    3.7504    0.0000 H   0  0  0  0  0  0  0  0  0  0  0  0
   18.1913    3.7500    0.0000 H   0  0  0  0  0  0  0  0  0  0  0  0
   14.2918    1.5000    0.0000 C   0  0  0  0  0  0  0  0  0  0  0  0
   12.9918    0.7500    0.0000 C   0  0  0  0  0  0  0  0  0  0  0  0
   11.6929    1.5002    0.0000 H   0  0  0  0  0  0  0  0  0  0  0  0
   12.9918   -0.7500    0.0000 C   0  0  0  0  0  0  0  0  0  0  0  0
   11.6929   -1.5002    0.0000 H   0  0  0  0  0  0  0  0  0  0  0  0
   14.2918   -1.5000    0.0000 N   0  0  0  0  0  0  0  0  0  0  0  0
   14.2918    3.0000    0.0000 O   0  0  0  0  0  0  0  0  0  0  0  0
   12.1614    4.2300    0.0000 C   0  0  0  0  0  0  0  0  0  0  0  0
   12.1612    5.7308    0.0000 C   0  0  0  0  0  0  0  0  0  0  0  0
   13.4603    6.4806    0.0000 H   0  0  0  0  0  0  0  0  0  0  0  0
   10.8618    6.4819    0.0000 C   0  0  0  0  0  0  0  0  0  0  0  0
   10.8622    7.9819    0.0000 H   0  0  0  0  0  0  0  0  0  0  0  0
    9.5626    5.7321    0.0000 C   0  0  0  0  0  0  0  0  0  0  0  0
    9.5628    4.2312    0.0000 C   0  0  0  0  0  0  0  0  0  0  0  0
   10.8622    3.4802    0.0000 C   0  0  0  0  0  0  0  0  0  0  0  0
   10.8618    1.9802    0.0000 H   0  0  0  0  0  0  0  0  0  0  0  0
    8.2637    3.4815    0.0000 Cl  0  0  0  0  0  0  0  0  0  0  0  0
    8.2636    6.4821    0.0000 N   0  0  0  0  0  0  0  0  0  0  0  0
    6.9645    5.7321    0.0000 H   0  0  0  0  0  0  0  0  0  0  0  0
    8.2636    7.9821    0.0000 C   0  0  0  0  0  0  0  0  0  0  0  0
    9.5626    8.7321    0.0000 O   0  0  0  0  0  0  0  0  0  0  0  0
    6.9645    8.7321    0.0000 N   0  0  0  0  0  0  0  0  0  0  0  0
    5.6655    7.9821    0.0000 H   0  0  0  0  0  0  0  0  0  0  0  0
    6.9645   10.2321    0.0000 C   0  0  0  0  0  0  0  0  0  0  0  0
    5.4865   10.4925    0.0000 C   0  0  0  0  0  0  0  0  0  0  0  0
    4.1877   11.2430    0.0000 H   0  0  0  0  0  0  0  0  0  0  0  0
    4.9733    9.0831    0.0000 H   0  0  0  0  0  0  0  0  0  0  0  0
    6.4518   11.6417    0.0000 C   0  0  0  0  0  0  0  0  0  0  0  0
    7.7511   12.3913    0.0000 H   0  0  0  0  0  0  0  0  0  0  0  0
    5.4881   12.7912    0.0000 H   0  0  0  0  0  0  0  0  0  0  0  0
    8.4418   10.4924    0.0000 O   0  0  0  0  0  0  0  0  0  0  0  0
    8.9549   11.9019    0.0000 H   0  0  0  0  0  0  0  0  0  0  0  0
  1  2  1  0  0  0  0 
  1  3  1  0  0  0  0 
  1  4  1  0  0  0  0 
  1  5  1  0  0  0  0 
  5  6  1  0  0  0  0 
  6  7  2  0  0  0  0 
  7  8  1  0  0  0  0 
  7  9  1  0  0  0  0 
  9 10  2  0  0  0  0 
 10 11  1  0  0  0  0 
 11 12  1  0  0  0  0 
 11 13  2  0  0  0  0 
  6 13  1  0  0  0  0 
 13 14  1  0  0  0  0 
 14 15  2  0  0  0  0 
 14 16  1  0  0  0  0 
 16 17  1  0  0  0  0 
 16 18  1  0  0  0  0 
 10 19  1  0  0  0  0 
 19 20  2  0  0  0  0 
 20 21  1  0  0  0  0 
 20 22  1  0  0  0  0 
 22 23  1  0  0  0  0 
 22 24  2  0  0  0  0 
  9 24  1  0  0  0  0 
 19 25  1  0  0  0  0 
 25 26  1  0  0  0  0 
 26 27  2  0  0  0  0 
 27 28  1  0  0  0  0 
 27 29  1  0  0  0  0 
 29 30  1  0  0  0  0 
 29 31  2  0  0  0  0 
 31 32  1  0  0  0  0 
 32 33  2  0  0  0  0 
 26 33  1  0  0  0  0 
 33 34  1  0  0  0  0 
 32 35  1  0  0  0  0 
 31 36  1  0  0  0  0 
 36 37  1  0  0  0  0 
 36 38  1  0  0  0  0 
 38 39  2  0  0  0  0 
 38 40  1  0  0  0  0 
 40 41  1  0  0  0  0 
 40 42  1  0  0  0  0 
 42 43  1  0  0  0  0 
 43 44  1  0  0  0  0 
 43 45  1  0  0  0  0 
 43 46  1  0  0  0  0 
 42 46  1  0  0  0  0 
 46 47  1  0  0  0  0 
 46 48  1  0  0  0  0 
 42 49  1  0  0  0  0 
 49 50  1  0  0  0  0 
M  END
> <Rank>
7

> <Priority_score>
0.136

> <Reaction_type>
aliphatic_hydroxylation_(tert_carbon_next_to_SP2)

> <Parent_ID>
45

> <Parent_InChI>
InChI=1S/C21H19ClN4O4/c1-29-19-10-17-13(9-14(19)20(23)27)18(6-7-24-17)30-12-4-5-16(15(22)8-12)26-21(28)25-11-2-3-11/h4-11H,2-3H2,1H3,(H2,23,27)(H2,25,26,28)

> <Parent_SMILES>
COc1cc2nccc(Oc3ccc(NC(=O)NC4CC4)c(Cl)c3)c2cc1C(N)=O

$$$$
Molecule 45_metabolite 12
  CDK     0516241031

 50 53  0  0  0  0  0  0  0  0999 V2000
   20.7899   -0.7504    0.0000 C   0  0  0  0  0  0  0  0  0  0  0  0
   22.0888   -1.5006    0.0000 H   0  0  0  0  0  0  0  0  0  0  0  0
   19.8259    0.3988    0.0000 H   0  0  0  0  0  0  0  0  0  0  0  0
   21.7543    0.3985    0.0000 H   0  0  0  0  0  0  0  0  0  0  0  0
   19.4907   -1.5002    0.0000 O   0  0  0  0  0  0  0  0  0  0  0  0
   18.1918   -0.7500    0.0000 C   0  0  0  0  0  0  0  0  0  0  0  0
   16.8918   -1.5000    0.0000 C   0  0  0  0  0  0  0  0  0  0  0  0
   16.8918   -3.0000    0.0000 H   0  0  0  0  0  0  0  0  0  0  0  0
   15.5918   -0.7500    0.0000 C   0  0  0  0  0  0  0  0  0  0  0  0
   15.5918    0.7500    0.0000 C   0  0  0  0  0  0  0  0  0  0  0  0
   16.8918    1.5000    0.0000 C   0  0  0  0  0  0  0  0  0  0  0  0
   16.8918    3.0000    0.0000 H   0  0  0  0  0  0  0  0  0  0  0  0
   18.1918    0.7500    0.0000 C   0  0  0  0  0  0  0  0  0  0  0  0
   19.4907    1.5002    0.0000 C   0  0  0  0  0  0  0  0  0  0  0  0
   20.7899    0.7504    0.0000 O   0  0  0  0  0  0  0  0  0  0  0  0
   19.4905    3.0002    0.0000 N   0  0  0  0  0  0  0  0  0  0  0  0
   20.7894    3.7504    0.0000 H   0  0  0  0  0  0  0  0  0  0  0  0
   18.1913    3.7500    0.0000 H   0  0  0  0  0  0  0  0  0  0  0  0
   14.2918    1.5000    0.0000 C   0  0  0  0  0  0  0  0  0  0  0  0
   12.9918    0.7500    0.0000 C   0  0  0  0  0  0  0  0  0  0  0  0
   11.6929    1.5002    0.0000 H   0  0  0  0  0  0  0  0  0  0  0  0
   12.9918   -0.7500    0.0000 C   0  0  0  0  0  0  0  0  0  0  0  0
   11.6929   -1.5002    0.0000 H   0  0  0  0  0  0  0  0  0  0  0  0
   14.2918   -1.5000    0.0000 N   0  0  0  0  0  0  0  0  0  0  0  0
   14.2918    3.0000    0.0000 O   0  0  0  0  0  0  0  0  0  0  0  0
   12.1614    4.2300    0.0000 C   0  0  0  0  0  0  0  0  0  0  0  0
   12.1612    5.7308    0.0000 C   0  0  0  0  0  0  0  0  0  0  0  0
   13.4603    6.4806    0.0000 H   0  0  0  0  0  0  0  0  0  0  0  0
   10.8618    6.4819    0.0000 C   0  0  0  0  0  0  0  0  0  0  0  0
   10.8622    7.9819    0.0000 H   0  0  0  0  0  0  0  0  0  0  0  0
    9.5626    5.7321    0.0000 C   0  0  0  0  0  0  0  0  0  0  0  0
    9.5628    4.2312    0.0000 C   0  0  0  0  0  0  0  0  0  0  0  0
   10.8622    3.4802    0.0000 C   0  0  0  0  0  0  0  0  0  0  0  0
   10.8618    1.9802    0.0000 H   0  0  0  0  0  0  0  0  0  0  0  0
    8.2637    3.4815    0.0000 Cl  0  0  0  0  0  0  0  0  0  0  0  0
    8.2636    6.4821    0.0000 N   0  0  0  0  0  0  0  0  0  0  0  0
    6.9645    5.7321    0.0000 H   0  0  0  0  0  0  0  0  0  0  0  0
    8.2636    7.9821    0.0000 C   0  0  0  0  0  0  0  0  0  0  0  0
    9.5626    8.7321    0.0000 O   0  0  0  0  0  0  0  0  0  0  0  0
    6.9645    8.7321    0.0000 N   0  0  0  0  0  0  0  0  0  0  0  0
    5.6655    7.9821    0.0000 H   0  0  0  0  0  0  0  0  0  0  0  0
    6.9645   10.2321    0.0000 C   0  0  0  0  0  0  0  0  0  0  0  0
    8.4418   10.4924    0.0000 H   0  0  0  0  0  0  0  0  0  0  0  0
    5.4865   10.4925    0.0000 C   0  0  0  0  0  0  0  0  0  0  0  0
    4.1877   11.2430    0.0000 H   0  0  0  0  0  0  0  0  0  0  0  0
    4.9733    9.0831    0.0000 H   0  0  0  0  0  0  0  0  0  0  0  0
    6.4518   11.6417    0.0000 C   0  0  0  0  0  0  0  0  0  0  0  0
    7.7511   12.3913    0.0000 H   0  0  0  0  0  0  0  0  0  0  0  0
    5.4881   12.7912    0.0000 O   0  0  0  0  0  0  0  0  0  0  0  0
    6.0017   14.2005    0.0000 H   0  0  0  0  0  0  0  0  0  0  0  0
  1  2  1  0  0  0  0 
  1  3  1  0  0  0  0 
  1  4  1  0  0  0  0 
  1  5  1  0  0  0  0 
  5  6  1  0  0  0  0 
  6  7  2  0  0  0  0 
  7  8  1  0  0  0  0 
  7  9  1  0  0  0  0 
  9 10  2  0  0  0  0 
 10 11  1  0  0  0  0 
 11 12  1  0  0  0  0 
 11 13  2  0  0  0  0 
  6 13  1  0  0  0  0 
 13 14  1  0  0  0  0 
 14 15  2  0  0  0  0 
 14 16  1  0  0  0  0 
 16 17  1  0  0  0  0 
 16 18  1  0  0  0  0 
 10 19  1  0  0  0  0 
 19 20  2  0  0  0  0 
 20 21  1  0  0  0  0 
 20 22  1  0  0  0  0 
 22 23  1  0  0  0  0 
 22 24  2  0  0  0  0 
  9 24  1  0  0  0  0 
 19 25  1  0  0  0  0 
 25 26  1  0  0  0  0 
 26 27  2  0  0  0  0 
 27 28  1  0  0  0  0 
 27 29  1  0  0  0  0 
 29 30  1  0  0  0  0 
 29 31  2  0  0  0  0 
 31 32  1  0  0  0  0 
 32 33  2  0  0  0  0 
 26 33  1  0  0  0  0 
 33 34  1  0  0  0  0 
 32 35  1  0  0  0  0 
 31 36  1  0  0  0  0 
 36 37  1  0  0  0  0 
 36 38  1  0  0  0  0 
 38 39  2  0  0  0  0 
 38 40  1  0  0  0  0 
 40 41  1  0  0  0  0 
 40 42  1  0  0  0  0 
 42 43  1  0  0  0  0 
 42 44  1  0  0  0  0 
 44 45  1  0  0  0  0 
 44 46  1  0  0  0  0 
 44 47  1  0  0  0  0 
 42 47  1  0  0  0  0 
 47 48  1  0  0  0  0 
 47 49  1  0  0  0  0 
 49 50  1  0  0  0  0 
M  END
> <Rank>
7

> <Priority_score>
0.136

> <Reaction_type>
aliphatic_hydroxylation_(sec_carbon_in_a_ringB)

> <Parent_ID>
45

> <Parent_InChI>
InChI=1S/C21H19ClN4O4/c1-29-19-10-17-13(9-14(19)20(23)27)18(6-7-24-17)30-12-4-5-16(15(22)8-12)26-21(28)25-11-2-3-11/h4-11H,2-3H2,1H3,(H2,23,27)(H2,25,26,28)

> <Parent_SMILES>
COc1cc2nccc(Oc3ccc(NC(=O)NC4CC4)c(Cl)c3)c2cc1C(N)=O

$$$$
Molecule 45_metabolite 13
  CDK     0516241031

 11 11  0  0  0  0  0  0  0  0999 V2000
    1.5247    0.9663    0.0000 C   0  0  0  0  0  0  0  0  0  0  0  0
    3.0019    1.2271    0.0000 H   0  0  0  0  0  0  0  0  0  0  0  0
    1.0115    2.3758    0.0000 H   0  0  0  0  0  0  0  0  0  0  0  0
    1.5252   -0.5345    0.0000 C   0  0  0  0  0  0  0  0  0  0  0  0
    1.0120   -1.9440    0.0000 H   0  0  0  0  0  0  0  0  0  0  0  0
    3.0024   -0.7948    0.0000 H   0  0  0  0  0  0  0  0  0  0  0  0
    0.2257    0.2163    0.0000 C   0  0  0  0  0  0  0  0  0  0  0  0
   -0.7384    1.3655    0.0000 H   0  0  0  0  0  0  0  0  0  0  0  0
   -0.7387   -0.9325    0.0000 N   0  0  0  0  0  0  0  0  0  0  0  0
   -2.2159   -0.6717    0.0000 H   0  0  0  0  0  0  0  0  0  0  0  0
   -0.2260   -2.3422    0.0000 H   0  0  0  0  0  0  0  0  0  0  0  0
  1  2  1  0  0  0  0 
  1  3  1  0  0  0  0 
  1  4  1  0  0  0  0 
  4  5  1  0  0  0  0 
  4  6  1  0  0  0  0 
  4  7  1  0  0  0  0 
  1  7  1  0  0  0  0 
  7  8  1  0  0  0  0 
  7  9  1  0  0  0  0 
  9 10  1  0  0  0  0 
  9 11  1  0  0  0  0 
M  END
> <Rank>
7

> <Priority_score>
0.136

> <Reaction_type>
hydrolysis_(urea_or_carbonate)

> <Parent_ID>
45

> <Parent_InChI>
InChI=1S/C21H19ClN4O4/c1-29-19-10-17-13(9-14(19)20(23)27)18(6-7-24-17)30-12-4-5-16(15(22)8-12)26-21(28)25-11-2-3-11/h4-11H,2-3H2,1H3,(H2,23,27)(H2,25,26,28)

> <Parent_SMILES>
COc1cc2nccc(Oc3ccc(NC(=O)NC4CC4)c(Cl)c3)c2cc1C(N)=O

$$$$
Molecule 45_metabolite 14
  CDK     0516241031

 47 49  0  0  0  0  0  0  0  0999 V2000
    4.2553   -6.2974    0.0000 C   0  0  0  0  0  0  0  0  0  0  0  0
    4.2556   -4.7974    0.0000 H   0  0  0  0  0  0  0  0  0  0  0  0
    2.9562   -7.0472    0.0000 C   0  0  0  0  0  0  0  0  0  0  0  0
    2.9559   -8.5472    0.0000 H   0  0  0  0  0  0  0  0  0  0  0  0
    1.6573   -6.2970    0.0000 O   0  0  0  0  0  0  0  0  0  0  0  0
    0.3581   -7.0468    0.0000 C   0  0  0  0  0  0  0  0  0  0  0  0
   -0.9417   -6.2963    0.0000 C   0  0  0  0  0  0  0  0  0  0  0  0
   -0.9412   -4.7963    0.0000 H   0  0  0  0  0  0  0  0  0  0  0  0
   -2.2419   -7.0459    0.0000 C   0  0  0  0  0  0  0  0  0  0  0  0
   -3.5406   -6.2953    0.0000 H   0  0  0  0  0  0  0  0  0  0  0  0
   -2.2424   -8.5459    0.0000 C   0  0  0  0  0  0  0  0  0  0  0  0
   -0.9426   -9.2963    0.0000 C   0  0  0  0  0  0  0  0  0  0  0  0
    0.3576   -8.5468    0.0000 C   0  0  0  0  0  0  0  0  0  0  0  0
    1.6563   -9.2974    0.0000 H   0  0  0  0  0  0  0  0  0  0  0  0
   -0.9431  -10.7963    0.0000 Cl  0  0  0  0  0  0  0  0  0  0  0  0
   -3.5415   -9.2957    0.0000 N   0  0  0  0  0  0  0  0  0  0  0  0
   -3.5418  -10.7957    0.0000 H   0  0  0  0  0  0  0  0  0  0  0  0
   -4.8405   -8.5455    0.0000 C   0  0  0  0  0  0  0  0  0  0  0  0
   -4.8402   -7.0455    0.0000 O   0  0  0  0  0  0  0  0  0  0  0  0
   -6.1396   -9.2953    0.0000 N   0  0  0  0  0  0  0  0  0  0  0  0
   -6.1398  -10.7953    0.0000 H   0  0  0  0  0  0  0  0  0  0  0  0
   -7.4385   -8.5451    0.0000 C   0  0  0  0  0  0  0  0  0  0  0  0
   -6.9251   -7.1357    0.0000 H   0  0  0  0  0  0  0  0  0  0  0  0
   -8.4033   -9.6947    0.0000 C   0  0  0  0  0  0  0  0  0  0  0  0
   -9.7027  -10.4441    0.0000 H   0  0  0  0  0  0  0  0  0  0  0  0
   -7.4394  -10.8441    0.0000 H   0  0  0  0  0  0  0  0  0  0  0  0
   -8.9156   -8.2841    0.0000 C   0  0  0  0  0  0  0  0  0  0  0  0
   -8.9149   -6.7841    0.0000 H   0  0  0  0  0  0  0  0  0  0  0  0
  -10.3930   -8.5437    0.0000 H   0  0  0  0  0  0  0  0  0  0  0  0
    5.5543   -7.0476    0.0000 C   0  0  0  0  0  0  0  0  0  0  0  0
    5.5540   -8.5476    0.0000 H   0  0  0  0  0  0  0  0  0  0  0  0
    6.8534   -6.2978    0.0000 N   0  0  0  0  0  0  0  0  0  0  0  0
    8.1523   -7.0480    0.0000 C   0  0  0  0  0  0  0  0  0  0  0  0
    8.1523   -8.5488    0.0000 C   0  0  0  0  0  0  0  0  0  0  0  0
    6.8531   -9.2984    0.0000 H   0  0  0  0  0  0  0  0  0  0  0  0
    9.4516   -9.3001    0.0000 C   0  0  0  0  0  0  0  0  0  0  0  0
    9.4509  -10.8001    0.0000 O   0  0  0  0  0  0  0  0  0  0  0  0
   10.7509   -8.5505    0.0000 C   0  0  0  0  0  0  0  0  0  0  0  0
   10.7509   -7.0497    0.0000 C   0  0  0  0  0  0  0  0  0  0  0  0
   12.0502   -6.3001    0.0000 H   0  0  0  0  0  0  0  0  0  0  0  0
    9.4516   -6.2984    0.0000 C   0  0  0  0  0  0  0  0  0  0  0  0
    9.4523   -4.7984    0.0000 O   0  0  0  0  0  0  0  0  0  0  0  0
   12.0498   -9.3007    0.0000 C   0  0  0  0  0  0  0  0  0  0  0  0
   12.0496  -10.8007    0.0000 O   0  0  0  0  0  0  0  0  0  0  0  0
   13.3490   -8.5509    0.0000 N   0  0  0  0  0  0  0  0  0  0  0  0
   14.6479   -9.3011    0.0000 H   0  0  0  0  0  0  0  0  0  0  0  0
   13.3492   -7.0509    0.0000 H   0  0  0  0  0  0  0  0  0  0  0  0
  1  2  1  4  0  0  0 
  1  3  2  0  0  0  0 
  3  4  1  0  0  0  0 
  3  5  1  0  0  0  0 
  5  6  1  0  0  0  0 
  6  7  2  0  0  0  0 
  7  8  1  0  0  0  0 
  7  9  1  0  0  0  0 
  9 10  1  0  0  0  0 
  9 11  2  0  0  0  0 
 11 12  1  0  0  0  0 
 12 13  2  0  0  0  0 
  6 13  1  0  0  0  0 
 13 14  1  0  0  0  0 
 12 15  1  0  0  0  0 
 11 16  1  0  0  0  0 
 16 17  1  0  0  0  0 
 16 18  1  0  0  0  0 
 18 19  2  0  0  0  0 
 18 20  1  0  0  0  0 
 20 21  1  0  0  0  0 
 20 22  1  0  0  0  0 
 22 23  1  0  0  0  0 
 22 24  1  0  0  0  0 
 24 25  1  0  0  0  0 
 24 26  1  0  0  0  0 
 24 27  1  0  0  0  0 
 22 27  1  0  0  0  0 
 27 28  1  0  0  0  0 
 27 29  1  0  0  0  0 
  1 30  1  0  0  0  0 
 30 31  1  4  0  0  0 
 30 32  2  0  0  0  0 
 32 33  1  0  0  0  0 
 33 34  2  0  0  0  0 
 34 35  1  0  0  0  0 
 34 36  1  0  0  0  0 
 36 37  2  0  0  0  0 
 36 38  1  0  0  0  0 
 38 39  2  0  0  0  0 
 39 40  1  0  0  0  0 
 39 41  1  0  0  0  0 
 33 41  1  0  0  0  0 
 41 42  2  0  0  0  0 
 38 43  1  0  0  0  0 
 43 44  2  0  0  0  0 
 43 45  1  0  0  0  0 
 45 46  1  0  0  0  0 
 45 47  1  0  0  0  0 
M  END
> <Rank>
14

> <Priority_score>
0.1288

> <Reaction_type>
oxidation of 4-substituted anisole to quinone

> <Parent_ID>
45

> <Parent_InChI>
InChI=1S/C21H19ClN4O4/c1-29-19-10-17-13(9-14(19)20(23)27)18(6-7-24-17)30-12-4-5-16(15(22)8-12)26-21(28)25-11-2-3-11/h4-11H,2-3H2,1H3,(H2,23,27)(H2,25,26,28)

> <Parent_SMILES>
COc1cc2nccc(Oc3ccc(NC(=O)NC4CC4)c(Cl)c3)c2cc1C(N)=O

$$$$
Molecule 45_metabolite 15
  CDK     0516241031

 70 74  0  0  0  0  0  0  0  0999 V2000
   21.0983   -2.0782    0.0000 C   0  0  0  0  0  0  0  0  0  0  0  0
   22.3972   -2.8285    0.0000 H   0  0  0  0  0  0  0  0  0  0  0  0
   20.1343   -0.9290    0.0000 H   0  0  0  0  0  0  0  0  0  0  0  0
   22.0626   -0.9293    0.0000 H   0  0  0  0  0  0  0  0  0  0  0  0
   19.7991   -2.8280    0.0000 O   0  0  0  0  0  0  0  0  0  0  0  0
   18.5002   -2.0778    0.0000 C   0  0  0  0  0  0  0  0  0  0  0  0
   17.2002   -2.8278    0.0000 C   0  0  0  0  0  0  0  0  0  0  0  0
   17.2002   -4.3278    0.0000 H   0  0  0  0  0  0  0  0  0  0  0  0
   15.9002   -2.0778    0.0000 C   0  0  0  0  0  0  0  0  0  0  0  0
   15.9002   -0.5778    0.0000 C   0  0  0  0  0  0  0  0  0  0  0  0
   17.2002    0.1722    0.0000 C   0  0  0  0  0  0  0  0  0  0  0  0
   17.2002    1.6722    0.0000 H   0  0  0  0  0  0  0  0  0  0  0  0
   18.5002   -0.5778    0.0000 C   0  0  0  0  0  0  0  0  0  0  0  0
   19.7991    0.1724    0.0000 C   0  0  0  0  0  0  0  0  0  0  0  0
   21.0983   -0.5774    0.0000 O   0  0  0  0  0  0  0  0  0  0  0  0
   19.7989    1.6724    0.0000 N   0  0  0  0  0  0  0  0  0  0  0  0
   21.0978    2.4226    0.0000 H   0  0  0  0  0  0  0  0  0  0  0  0
   18.4997    2.4222    0.0000 H   0  0  0  0  0  0  0  0  0  0  0  0
   14.6002    0.1722    0.0000 C   0  0  0  0  0  0  0  0  0  0  0  0
   13.3002   -0.5778    0.0000 C   0  0  0  0  0  0  0  0  0  0  0  0
   12.0013    0.1724    0.0000 H   0  0  0  0  0  0  0  0  0  0  0  0
   13.3002   -2.0778    0.0000 C   0  0  0  0  0  0  0  0  0  0  0  0
   12.0013   -2.8280    0.0000 H   0  0  0  0  0  0  0  0  0  0  0  0
   14.6002   -2.8278    0.0000 N   0  0  0  0  0  0  0  0  0  0  0  0
   14.6002   -4.3278    0.0000 C   0  0  0  0  0  0  0  0  0  0  0  0
   16.0774   -4.0675    0.0000 H   0  0  0  0  0  0  0  0  0  0  0  0
   15.1129   -5.7375    0.0000 C   0  0  0  0  0  0  0  0  0  0  0  0
   16.4122   -4.9879    0.0000 H   0  0  0  0  0  0  0  0  0  0  0  0
   14.1476   -6.8867    0.0000 C   0  0  0  0  0  0  0  0  0  0  0  0
   15.4464   -7.6371    0.0000 H   0  0  0  0  0  0  0  0  0  0  0  0
   12.6695   -6.6262    0.0000 C   0  0  0  0  0  0  0  0  0  0  0  0
   12.6695   -8.1262    0.0000 H   0  0  0  0  0  0  0  0  0  0  0  0
   12.1568   -5.2166    0.0000 C   0  0  0  0  0  0  0  0  0  0  0  0
   10.8575   -5.9661    0.0000 H   0  0  0  0  0  0  0  0  0  0  0  0
   10.8847   -3.6993    0.0000 C   0  0  0  0  0  0  0  0  0  0  0  0
   11.3984   -2.2899    0.0000 O   0  0  0  0  0  0  0  0  0  0  0  0
    9.4074   -3.9591    0.0000 O   0  0  0  0  0  0  0  0  0  0  0  0
    8.8938   -5.3684    0.0000 H   0  0  0  0  0  0  0  0  0  0  0  0
   13.1221   -4.0674    0.0000 O   0  0  0  0  0  0  0  0  0  0  0  0
   11.1923   -6.8865    0.0000 O   0  0  0  0  0  0  0  0  0  0  0  0
   10.6791   -8.2960    0.0000 H   0  0  0  0  0  0  0  0  0  0  0  0
   13.6344   -8.2962    0.0000 O   0  0  0  0  0  0  0  0  0  0  0  0
   14.5985   -9.4453    0.0000 H   0  0  0  0  0  0  0  0  0  0  0  0
   16.0766   -6.8870    0.0000 O   0  0  0  0  0  0  0  0  0  0  0  0
   17.5539   -6.6271    0.0000 H   0  0  0  0  0  0  0  0  0  0  0  0
   14.6002    2.6322    0.0000 O   0  0  0  0  0  0  0  0  0  0  0  0
   13.3012    3.3822    0.0000 C   0  0  0  0  0  0  0  0  0  0  0  0
   13.3009    4.8830    0.0000 C   0  0  0  0  0  0  0  0  0  0  0  0
   14.6001    5.6328    0.0000 H   0  0  0  0  0  0  0  0  0  0  0  0
   12.0015    5.6340    0.0000 C   0  0  0  0  0  0  0  0  0  0  0  0
   12.0020    7.1340    0.0000 H   0  0  0  0  0  0  0  0  0  0  0  0
   10.7024    4.8842    0.0000 C   0  0  0  0  0  0  0  0  0  0  0  0
   10.7026    3.3834    0.0000 C   0  0  0  0  0  0  0  0  0  0  0  0
   12.0020    2.6324    0.0000 C   0  0  0  0  0  0  0  0  0  0  0  0
   12.0015    1.1324    0.0000 H   0  0  0  0  0  0  0  0  0  0  0  0
    9.4035    2.6336    0.0000 Cl  0  0  0  0  0  0  0  0  0  0  0  0
    9.4033    5.6342    0.0000 N   0  0  0  0  0  0  0  0  0  0  0  0
    8.1043    4.8842    0.0000 H   0  0  0  0  0  0  0  0  0  0  0  0
    9.4033    7.1342    0.0000 C   0  0  0  0  0  0  0  0  0  0  0  0
   10.7024    7.8842    0.0000 O   0  0  0  0  0  0  0  0  0  0  0  0
    8.1043    7.8842    0.0000 N   0  0  0  0  0  0  0  0  0  0  0  0
    6.8053    7.1342    0.0000 H   0  0  0  0  0  0  0  0  0  0  0  0
    8.1043    9.3842    0.0000 C   0  0  0  0  0  0  0  0  0  0  0  0
    9.5815    9.6446    0.0000 H   0  0  0  0  0  0  0  0  0  0  0  0
    6.6262    9.6447    0.0000 C   0  0  0  0  0  0  0  0  0  0  0  0
    5.3274   10.3951    0.0000 H   0  0  0  0  0  0  0  0  0  0  0  0
    6.1131    8.2352    0.0000 H   0  0  0  0  0  0  0  0  0  0  0  0
    7.5916   10.7939    0.0000 C   0  0  0  0  0  0  0  0  0  0  0  0
    8.8908   11.5435    0.0000 H   0  0  0  0  0  0  0  0  0  0  0  0
    6.6279   11.9434    0.0000 H   0  0  0  0  0  0  0  0  0  0  0  0
  1  2  1  0  0  0  0 
  1  3  1  0  0  0  0 
  1  4  1  0  0  0  0 
  1  5  1  0  0  0  0 
  5  6  1  0  0  0  0 
  6  7  2  0  0  0  0 
  7  8  1  0  0  0  0 
  7  9  1  0  0  0  0 
  9 10  2  0  0  0  0 
 10 11  1  0  0  0  0 
 11 12  1  0  0  0  0 
 11 13  2  0  0  0  0 
  6 13  1  0  0  0  0 
 13 14  1  0  0  0  0 
 14 15  2  0  0  0  0 
 14 16  1  0  0  0  0 
 16 17  1  0  0  0  0 
 16 18  1  0  0  0  0 
 10 19  1  0  0  0  0 
 19 20  2  0  0  0  0 
 20 21  1  0  0  0  0 
 20 22  1  0  0  0  0 
 22 23  1  0  0  0  0 
 22 24  2  0  0  0  0 
  9 24  1  0  0  0  0 
 24 25  1  0  0  0  0 
 25 26  1  0  0  0  0 
 25 27  1  0  0  0  0 
 27 28  1  0  0  0  0 
 27 29  1  0  0  0  0 
 29 30  1  0  0  0  0 
 29 31  1  0  0  0  0 
 31 32  1  0  0  0  0 
 31 33  1  0  0  0  0 
 33 34  1  0  0  0  0 
 33 35  1  0  0  0  0 
 35 36  2  0  0  0  0 
 35 37  1  0  0  0  0 
 37 38  1  0  0  0  0 
 33 39  1  0  0  0  0 
 25 39  1  0  0  0  0 
 31 40  1  0  0  0  0 
 40 41  1  0  0  0  0 
 29 42  1  0  0  0  0 
 42 43  1  0  0  0  0 
 27 44  1  0  0  0  0 
 44 45  1  0  0  0  0 
 19 46  1  0  0  0  0 
 46 47  1  0  0  0  0 
 47 48  2  0  0  0  0 
 48 49  1  0  0  0  0 
 48 50  1  0  0  0  0 
 50 51  1  0  0  0  0 
 50 52  2  0  0  0  0 
 52 53  1  0  0  0  0 
 53 54  2  0  0  0  0 
 47 54  1  0  0  0  0 
 54 55  1  0  0  0  0 
 53 56  1  0  0  0  0 
 52 57  1  0  0  0  0 
 57 58  1  0  0  0  0 
 57 59  1  0  0  0  0 
 59 60  2  0  0  0  0 
 59 61  1  0  0  0  0 
 61 62  1  0  0  0  0 
 61 63  1  0  0  0  0 
 63 64  1  0  0  0  0 
 63 65  1  0  0  0  0 
 65 66  1  0  0  0  0 
 65 67  1  0  0  0  0 
 65 68  1  0  0  0  0 
 63 68  1  0  0  0  0 
 68 69  1  0  0  0  0 
 68 70  1  0  0  0  0 
M  CHG  1  24   1
M  END
> <Rank>
15

> <Priority_score>
0.124

> <Reaction_type>
N-glucuronidation_(aromatic_=n-)

> <Parent_ID>
45

> <Parent_InChI>
InChI=1S/C21H19ClN4O4/c1-29-19-10-17-13(9-14(19)20(23)27)18(6-7-24-17)30-12-4-5-16(15(22)8-12)26-21(28)25-11-2-3-11/h4-11H,2-3H2,1H3,(H2,23,27)(H2,25,26,28)

> <Parent_SMILES>
COc1cc2nccc(Oc3ccc(NC(=O)NC4CC4)c(Cl)c3)c2cc1C(N)=O

$$$$
Molecule 45_metabolite 16
  CDK     0516241031

 50 53  0  0  0  0  0  0  0  0999 V2000
   20.7899   -0.7504    0.0000 C   0  0  0  0  0  0  0  0  0  0  0  0
   22.0888   -1.5006    0.0000 H   0  0  0  0  0  0  0  0  0  0  0  0
   19.8259    0.3988    0.0000 H   0  0  0  0  0  0  0  0  0  0  0  0
   21.7543    0.3985    0.0000 H   0  0  0  0  0  0  0  0  0  0  0  0
   19.4907   -1.5002    0.0000 O   0  0  0  0  0  0  0  0  0  0  0  0
   18.1918   -0.7500    0.0000 C   0  0  0  0  0  0  0  0  0  0  0  0
   16.8918   -1.5000    0.0000 C   0  0  0  0  0  0  0  0  0  0  0  0
   15.5918   -0.7500    0.0000 C   0  0  0  0  0  0  0  0  0  0  0  0
   15.5918    0.7500    0.0000 C   0  0  0  0  0  0  0  0  0  0  0  0
   16.8918    1.5000    0.0000 C   0  0  0  0  0  0  0  0  0  0  0  0
   16.8918    3.0000    0.0000 H   0  0  0  0  0  0  0  0  0  0  0  0
   18.1918    0.7500    0.0000 C   0  0  0  0  0  0  0  0  0  0  0  0
   19.4907    1.5002    0.0000 C   0  0  0  0  0  0  0  0  0  0  0  0
   20.7899    0.7504    0.0000 O   0  0  0  0  0  0  0  0  0  0  0  0
   19.4905    3.0002    0.0000 N   0  0  0  0  0  0  0  0  0  0  0  0
   20.7894    3.7504    0.0000 H   0  0  0  0  0  0  0  0  0  0  0  0
   18.1913    3.7500    0.0000 H   0  0  0  0  0  0  0  0  0  0  0  0
   14.2918    1.5000    0.0000 C   0  0  0  0  0  0  0  0  0  0  0  0
   12.9918    0.7500    0.0000 C   0  0  0  0  0  0  0  0  0  0  0  0
   11.6929    1.5002    0.0000 H   0  0  0  0  0  0  0  0  0  0  0  0
   12.9918   -0.7500    0.0000 C   0  0  0  0  0  0  0  0  0  0  0  0
   11.6929   -1.5002    0.0000 H   0  0  0  0  0  0  0  0  0  0  0  0
   14.2918   -1.5000    0.0000 N   0  0  0  0  0  0  0  0  0  0  0  0
   14.2918    3.0000    0.0000 O   0  0  0  0  0  0  0  0  0  0  0  0
   12.1614    4.2300    0.0000 C   0  0  0  0  0  0  0  0  0  0  0  0
   12.1612    5.7308    0.0000 C   0  0  0  0  0  0  0  0  0  0  0  0
   13.4603    6.4806    0.0000 H   0  0  0  0  0  0  0  0  0  0  0  0
   10.8618    6.4819    0.0000 C   0  0  0  0  0  0  0  0  0  0  0  0
   10.8622    7.9819    0.0000 H   0  0  0  0  0  0  0  0  0  0  0  0
    9.5626    5.7321    0.0000 C   0  0  0  0  0  0  0  0  0  0  0  0
    9.5628    4.2312    0.0000 C   0  0  0  0  0  0  0  0  0  0  0  0
   10.8622    3.4802    0.0000 C   0  0  0  0  0  0  0  0  0  0  0  0
   10.8618    1.9802    0.0000 H   0  0  0  0  0  0  0  0  0  0  0  0
    8.2637    3.4815    0.0000 Cl  0  0  0  0  0  0  0  0  0  0  0  0
    8.2636    6.4821    0.0000 N   0  0  0  0  0  0  0  0  0  0  0  0
    6.9645    5.7321    0.0000 H   0  0  0  0  0  0  0  0  0  0  0  0
    8.2636    7.9821    0.0000 C   0  0  0  0  0  0  0  0  0  0  0  0
    9.5626    8.7321    0.0000 O   0  0  0  0  0  0  0  0  0  0  0  0
    6.9645    8.7321    0.0000 N   0  0  0  0  0  0  0  0  0  0  0  0
    5.6655    7.9821    0.0000 H   0  0  0  0  0  0  0  0  0  0  0  0
    6.9645   10.2321    0.0000 C   0  0  0  0  0  0  0  0  0  0  0  0
    8.4418   10.4924    0.0000 H   0  0  0  0  0  0  0  0  0  0  0  0
    5.4865   10.4925    0.0000 C   0  0  0  0  0  0  0  0  0  0  0  0
    4.1877   11.2430    0.0000 H   0  0  0  0  0  0  0  0  0  0  0  0
    4.9733    9.0831    0.0000 H   0  0  0  0  0  0  0  0  0  0  0  0
    6.4518   11.6417    0.0000 C   0  0  0  0  0  0  0  0  0  0  0  0
    7.7511   12.3913    0.0000 H   0  0  0  0  0  0  0  0  0  0  0  0
    5.4881   12.7912    0.0000 H   0  0  0  0  0  0  0  0  0  0  0  0
   16.8918   -3.0000    0.0000 O   0  0  0  0  0  0  0  0  0  0  0  0
   18.1909   -3.7500    0.0000 H   0  0  0  0  0  0  0  0  0  0  0  0
  1  2  1  0  0  0  0 
  1  3  1  0  0  0  0 
  1  4  1  0  0  0  0 
  1  5  1  0  0  0  0 
  5  6  1  0  0  0  0 
  6  7  2  0  0  0  0 
  7  8  1  0  0  0  0 
  8  9  2  0  0  0  0 
  9 10  1  0  0  0  0 
 10 11  1  0  0  0  0 
 10 12  2  0  0  0  0 
  6 12  1  0  0  0  0 
 12 13  1  0  0  0  0 
 13 14  2  0  0  0  0 
 13 15  1  0  0  0  0 
 15 16  1  0  0  0  0 
 15 17  1  0  0  0  0 
  9 18  1  0  0  0  0 
 18 19  2  0  0  0  0 
 19 20  1  0  0  0  0 
 19 21  1  0  0  0  0 
 21 22  1  0  0  0  0 
 21 23  2  0  0  0  0 
  8 23  1  0  0  0  0 
 18 24  1  0  0  0  0 
 24 25  1  0  0  0  0 
 25 26  2  0  0  0  0 
 26 27  1  0  0  0  0 
 26 28  1  0  0  0  0 
 28 29  1  0  0  0  0 
 28 30  2  0  0  0  0 
 30 31  1  0  0  0  0 
 31 32  2  0  0  0  0 
 25 32  1  0  0  0  0 
 32 33  1  0  0  0  0 
 31 34  1  0  0  0  0 
 30 35  1  0  0  0  0 
 35 36  1  0  0  0  0 
 35 37  1  0  0  0  0 
 37 38  2  0  0  0  0 
 37 39  1  0  0  0  0 
 39 40  1  0  0  0  0 
 39 41  1  0  0  0  0 
 41 42  1  0  0  0  0 
 41 43  1  0  0  0  0 
 43 44  1  0  0  0  0 
 43 45  1  0  0  0  0 
 43 46  1  0  0  0  0 
 41 46  1  0  0  0  0 
 46 47  1  0  0  0  0 
 46 48  1  0  0  0  0 
  7 49  1  0  0  0  0 
 49 50  1  0  0  0  0 
M  END
> <Rank>
15

> <Priority_score>
0.124

> <Reaction_type>
aromatic_hydroxylation_(ortho_to_2_substituents)

> <Parent_ID>
45

> <Parent_InChI>
InChI=1S/C21H19ClN4O4/c1-29-19-10-17-13(9-14(19)20(23)27)18(6-7-24-17)30-12-4-5-16(15(22)8-12)26-21(28)25-11-2-3-11/h4-11H,2-3H2,1H3,(H2,23,27)(H2,25,26,28)

> <Parent_SMILES>
COc1cc2nccc(Oc3ccc(NC(=O)NC4CC4)c(Cl)c3)c2cc1C(N)=O

$$$$
Molecule 45_metabolite 17
  CDK     0516241031

 50 53  0  0  0  0  0  0  0  0999 V2000
   20.7899   -0.7504    0.0000 C   0  0  0  0  0  0  0  0  0  0  0  0
   22.0888   -1.5006    0.0000 H   0  0  0  0  0  0  0  0  0  0  0  0
   19.8259    0.3988    0.0000 H   0  0  0  0  0  0  0  0  0  0  0  0
   21.7543    0.3985    0.0000 H   0  0  0  0  0  0  0  0  0  0  0  0
   19.4907   -1.5002    0.0000 O   0  0  0  0  0  0  0  0  0  0  0  0
   18.1918   -0.7500    0.0000 C   0  0  0  0  0  0  0  0  0  0  0  0
   16.8918   -1.5000    0.0000 C   0  0  0  0  0  0  0  0  0  0  0  0
   16.8918   -3.0000    0.0000 H   0  0  0  0  0  0  0  0  0  0  0  0
   15.5918   -0.7500    0.0000 C   0  0  0  0  0  0  0  0  0  0  0  0
   15.5918    0.7500    0.0000 C   0  0  0  0  0  0  0  0  0  0  0  0
   16.8918    1.5000    0.0000 C   0  0  0  0  0  0  0  0  0  0  0  0
   16.8918    3.0000    0.0000 H   0  0  0  0  0  0  0  0  0  0  0  0
   18.1918    0.7500    0.0000 C   0  0  0  0  0  0  0  0  0  0  0  0
   19.4907    1.5002    0.0000 C   0  0  0  0  0  0  0  0  0  0  0  0
   20.7899    0.7504    0.0000 O   0  0  0  0  0  0  0  0  0  0  0  0
   19.4905    3.0002    0.0000 N   0  0  0  0  0  0  0  0  0  0  0  0
   20.7894    3.7504    0.0000 H   0  0  0  0  0  0  0  0  0  0  0  0
   18.1913    3.7500    0.0000 H   0  0  0  0  0  0  0  0  0  0  0  0
   14.2918    1.5000    0.0000 C   0  0  0  0  0  0  0  0  0  0  0  0
   12.9918    0.7500    0.0000 C   0  0  0  0  0  0  0  0  0  0  0  0
   11.6929    1.5002    0.0000 H   0  0  0  0  0  0  0  0  0  0  0  0
   12.9918   -0.7500    0.0000 C   0  0  0  0  0  0  0  0  0  0  0  0
   11.6929   -1.5002    0.0000 H   0  0  0  0  0  0  0  0  0  0  0  0
   14.2918   -1.5000    0.0000 N   0  0  0  0  0  0  0  0  0  0  0  0
   14.2918   -3.0000    0.0000 O   0  0  0  0  0  0  0  0  0  0  0  0
   14.2918    3.0000    0.0000 O   0  0  0  0  0  0  0  0  0  0  0  0
   12.1614    4.2300    0.0000 C   0  0  0  0  0  0  0  0  0  0  0  0
   12.1612    5.7308    0.0000 C   0  0  0  0  0  0  0  0  0  0  0  0
   13.4603    6.4806    0.0000 H   0  0  0  0  0  0  0  0  0  0  0  0
   10.8618    6.4819    0.0000 C   0  0  0  0  0  0  0  0  0  0  0  0
   10.8622    7.9819    0.0000 H   0  0  0  0  0  0  0  0  0  0  0  0
    9.5626    5.7321    0.0000 C   0  0  0  0  0  0  0  0  0  0  0  0
    9.5628    4.2312    0.0000 C   0  0  0  0  0  0  0  0  0  0  0  0
   10.8622    3.4802    0.0000 C   0  0  0  0  0  0  0  0  0  0  0  0
   10.8618    1.9802    0.0000 H   0  0  0  0  0  0  0  0  0  0  0  0
    8.2637    3.4815    0.0000 Cl  0  0  0  0  0  0  0  0  0  0  0  0
    8.2636    6.4821    0.0000 N   0  0  0  0  0  0  0  0  0  0  0  0
    6.9645    5.7321    0.0000 H   0  0  0  0  0  0  0  0  0  0  0  0
    8.2636    7.9821    0.0000 C   0  0  0  0  0  0  0  0  0  0  0  0
    9.5626    8.7321    0.0000 O   0  0  0  0  0  0  0  0  0  0  0  0
    6.9645    8.7321    0.0000 N   0  0  0  0  0  0  0  0  0  0  0  0
    5.6655    7.9821    0.0000 H   0  0  0  0  0  0  0  0  0  0  0  0
    6.9645   10.2321    0.0000 C   0  0  0  0  0  0  0  0  0  0  0  0
    8.4418   10.4924    0.0000 H   0  0  0  0  0  0  0  0  0  0  0  0
    5.4865   10.4925    0.0000 C   0  0  0  0  0  0  0  0  0  0  0  0
    4.1877   11.2430    0.0000 H   0  0  0  0  0  0  0  0  0  0  0  0
    4.9733    9.0831    0.0000 H   0  0  0  0  0  0  0  0  0  0  0  0
    6.4518   11.6417    0.0000 C   0  0  0  0  0  0  0  0  0  0  0  0
    7.7511   12.3913    0.0000 H   0  0  0  0  0  0  0  0  0  0  0  0
    5.4881   12.7912    0.0000 H   0  0  0  0  0  0  0  0  0  0  0  0
  1  2  1  0  0  0  0 
  1  3  1  0  0  0  0 
  1  4  1  0  0  0  0 
  1  5  1  0  0  0  0 
  5  6  1  0  0  0  0 
  6  7  2  0  0  0  0 
  7  8  1  0  0  0  0 
  7  9  1  0  0  0  0 
  9 10  2  0  0  0  0 
 10 11  1  0  0  0  0 
 11 12  1  0  0  0  0 
 11 13  2  0  0  0  0 
  6 13  1  0  0  0  0 
 13 14  1  0  0  0  0 
 14 15  2  0  0  0  0 
 14 16  1  0  0  0  0 
 16 17  1  0  0  0  0 
 16 18  1  0  0  0  0 
 10 19  1  0  0  0  0 
 19 20  2  0  0  0  0 
 20 21  1  0  0  0  0 
 20 22  1  0  0  0  0 
 22 23  1  0  0  0  0 
 22 24  2  0  0  0  0 
  9 24  1  0  0  0  0 
 24 25  1  0  0  0  0 
 19 26  1  0  0  0  0 
 26 27  1  0  0  0  0 
 27 28  2  0  0  0  0 
 28 29  1  0  0  0  0 
 28 30  1  0  0  0  0 
 30 31  1  0  0  0  0 
 30 32  2  0  0  0  0 
 32 33  1  0  0  0  0 
 33 34  2  0  0  0  0 
 27 34  1  0  0  0  0 
 34 35  1  0  0  0  0 
 33 36  1  0  0  0  0 
 32 37  1  0  0  0  0 
 37 38  1  0  0  0  0 
 37 39  1  0  0  0  0 
 39 40  2  0  0  0  0 
 39 41  1  0  0  0  0 
 41 42  1  0  0  0  0 
 41 43  1  0  0  0  0 
 43 44  1  0  0  0  0 
 43 45  1  0  0  0  0 
 45 46  1  0  0  0  0 
 45 47  1  0  0  0  0 
 45 48  1  0  0  0  0 
 43 48  1  0  0  0  0 
 48 49  1  0  0  0  0 
 48 50  1  0  0  0  0 
M  CHG  1  24   1
M  CHG  1  25  -1
M  END
> <Rank>
15

> <Priority_score>
0.124

> <Reaction_type>
N-oxidation_(-N=)

> <Parent_ID>
45

> <Parent_InChI>
InChI=1S/C21H19ClN4O4/c1-29-19-10-17-13(9-14(19)20(23)27)18(6-7-24-17)30-12-4-5-16(15(22)8-12)26-21(28)25-11-2-3-11/h4-11H,2-3H2,1H3,(H2,23,27)(H2,25,26,28)

> <Parent_SMILES>
COc1cc2nccc(Oc3ccc(NC(=O)NC4CC4)c(Cl)c3)c2cc1C(N)=O

$$$$
Molecule 45_metabolite 18
  CDK     0516241031

 50 53  0  0  0  0  0  0  0  0999 V2000
   20.7899   -1.7104    0.0000 C   0  0  0  0  0  0  0  0  0  0  0  0
   22.0888   -2.4606    0.0000 H   0  0  0  0  0  0  0  0  0  0  0  0
   19.8259   -0.5612    0.0000 H   0  0  0  0  0  0  0  0  0  0  0  0
   21.7543   -0.5615    0.0000 H   0  0  0  0  0  0  0  0  0  0  0  0
   19.4907   -2.4602    0.0000 O   0  0  0  0  0  0  0  0  0  0  0  0
   18.1918   -1.7100    0.0000 C   0  0  0  0  0  0  0  0  0  0  0  0
   16.8918   -2.4600    0.0000 C   0  0  0  0  0  0  0  0  0  0  0  0
   16.8918   -3.9600    0.0000 H   0  0  0  0  0  0  0  0  0  0  0  0
   15.5918   -1.7100    0.0000 C   0  0  0  0  0  0  0  0  0  0  0  0
   14.2918   -2.4600    0.0000 N   0  0  0  0  0  0  0  0  0  0  0  0
   12.9918   -1.7100    0.0000 C   0  0  0  0  0  0  0  0  0  0  0  0
   11.6929   -2.4602    0.0000 H   0  0  0  0  0  0  0  0  0  0  0  0
   12.9918   -0.2100    0.0000 C   0  0  0  0  0  0  0  0  0  0  0  0
   14.2918    0.5400    0.0000 C   0  0  0  0  0  0  0  0  0  0  0  0
   15.5918   -0.2100    0.0000 C   0  0  0  0  0  0  0  0  0  0  0  0
   16.8918    0.5400    0.0000 C   0  0  0  0  0  0  0  0  0  0  0  0
   16.8918    2.0400    0.0000 H   0  0  0  0  0  0  0  0  0  0  0  0
   18.1918   -0.2100    0.0000 C   0  0  0  0  0  0  0  0  0  0  0  0
   19.4907    0.5402    0.0000 C   0  0  0  0  0  0  0  0  0  0  0  0
   20.7899   -0.2096    0.0000 O   0  0  0  0  0  0  0  0  0  0  0  0
   19.4905    2.0402    0.0000 N   0  0  0  0  0  0  0  0  0  0  0  0
   20.7894    2.7904    0.0000 H   0  0  0  0  0  0  0  0  0  0  0  0
   18.1913    2.7900    0.0000 H   0  0  0  0  0  0  0  0  0  0  0  0
   14.2918    3.0000    0.0000 O   0  0  0  0  0  0  0  0  0  0  0  0
   12.9928    3.7500    0.0000 C   0  0  0  0  0  0  0  0  0  0  0  0
   12.9925    5.2508    0.0000 C   0  0  0  0  0  0  0  0  0  0  0  0
   14.2917    6.0006    0.0000 H   0  0  0  0  0  0  0  0  0  0  0  0
   11.6931    6.0019    0.0000 C   0  0  0  0  0  0  0  0  0  0  0  0
   11.6936    7.5019    0.0000 H   0  0  0  0  0  0  0  0  0  0  0  0
   10.3940    5.2521    0.0000 C   0  0  0  0  0  0  0  0  0  0  0  0
   10.3942    3.7512    0.0000 C   0  0  0  0  0  0  0  0  0  0  0  0
   11.6936    3.0002    0.0000 C   0  0  0  0  0  0  0  0  0  0  0  0
   11.6931    1.5002    0.0000 H   0  0  0  0  0  0  0  0  0  0  0  0
    9.0951    3.0015    0.0000 Cl  0  0  0  0  0  0  0  0  0  0  0  0
    9.0949    6.0021    0.0000 N   0  0  0  0  0  0  0  0  0  0  0  0
    7.7959    5.2521    0.0000 H   0  0  0  0  0  0  0  0  0  0  0  0
    9.0949    7.5021    0.0000 C   0  0  0  0  0  0  0  0  0  0  0  0
   10.3940    8.2521    0.0000 O   0  0  0  0  0  0  0  0  0  0  0  0
    7.7959    8.2521    0.0000 N   0  0  0  0  0  0  0  0  0  0  0  0
    6.4969    7.5021    0.0000 H   0  0  0  0  0  0  0  0  0  0  0  0
    7.7959    9.7521    0.0000 C   0  0  0  0  0  0  0  0  0  0  0  0
    9.2732   10.0124    0.0000 H   0  0  0  0  0  0  0  0  0  0  0  0
    6.3179   10.0125    0.0000 C   0  0  0  0  0  0  0  0  0  0  0  0
    5.0191   10.7630    0.0000 H   0  0  0  0  0  0  0  0  0  0  0  0
    5.8047    8.6031    0.0000 H   0  0  0  0  0  0  0  0  0  0  0  0
    7.2832   11.1617    0.0000 C   0  0  0  0  0  0  0  0  0  0  0  0
    8.5825   11.9113    0.0000 H   0  0  0  0  0  0  0  0  0  0  0  0
    6.3195   12.3112    0.0000 H   0  0  0  0  0  0  0  0  0  0  0  0
   11.6929    0.5402    0.0000 O   0  0  0  0  0  0  0  0  0  0  0  0
   10.3937   -0.2096    0.0000 H   0  0  0  0  0  0  0  0  0  0  0  0
  1  2  1  0  0  0  0 
  1  3  1  0  0  0  0 
  1  4  1  0  0  0  0 
  1  5  1  0  0  0  0 
  5  6  1  0  0  0  0 
  6  7  2  0  0  0  0 
  7  8  1  0  0  0  0 
  7  9  1  0  0  0  0 
  9 10  2  0  0  0  0 
 10 11  1  0  0  0  0 
 11 12  1  0  0  0  0 
 11 13  2  0  0  0  0 
 13 14  1  0  0  0  0 
 14 15  2  0  0  0  0 
  9 15  1  0  0  0  0 
 15 16  1  0  0  0  0 
 16 17  1  0  0  0  0 
 16 18  2  0  0  0  0 
  6 18  1  0  0  0  0 
 18 19  1  0  0  0  0 
 19 20  2  0  0  0  0 
 19 21  1  0  0  0  0 
 21 22  1  0  0  0  0 
 21 23  1  0  0  0  0 
 14 24  1  0  0  0  0 
 24 25  1  0  0  0  0 
 25 26  2  0  0  0  0 
 26 27  1  0  0  0  0 
 26 28  1  0  0  0  0 
 28 29  1  0  0  0  0 
 28 30  2  0  0  0  0 
 30 31  1  0  0  0  0 
 31 32  2  0  0  0  0 
 25 32  1  0  0  0  0 
 32 33  1  0  0  0  0 
 31 34  1  0  0  0  0 
 30 35  1  0  0  0  0 
 35 36  1  0  0  0  0 
 35 37  1  0  0  0  0 
 37 38  2  0  0  0  0 
 37 39  1  0  0  0  0 
 39 40  1  0  0  0  0 
 39 41  1  0  0  0  0 
 41 42  1  0  0  0  0 
 41 43  1  0  0  0  0 
 43 44  1  0  0  0  0 
 43 45  1  0  0  0  0 
 43 46  1  0  0  0  0 
 41 46  1  0  0  0  0 
 46 47  1  0  0  0  0 
 46 48  1  0  0  0  0 
 13 49  1  0  0  0  0 
 49 50  1  0  0  0  0 
M  END
> <Rank>
15

> <Priority_score>
0.124

> <Reaction_type>
aromatic_hydroxylation_(para_to_carbon)

> <Parent_ID>
45

> <Parent_InChI>
InChI=1S/C21H19ClN4O4/c1-29-19-10-17-13(9-14(19)20(23)27)18(6-7-24-17)30-12-4-5-16(15(22)8-12)26-21(28)25-11-2-3-11/h4-11H,2-3H2,1H3,(H2,23,27)(H2,25,26,28)

> <Parent_SMILES>
COc1cc2nccc(Oc3ccc(NC(=O)NC4CC4)c(Cl)c3)c2cc1C(N)=O

$$$$
Molecule 45_metabolite 19
  CDK     0516241031

 50 53  0  0  0  0  0  0  0  0999 V2000
   20.7899   -0.7504    0.0000 C   0  0  0  0  0  0  0  0  0  0  0  0
   22.0888   -1.5006    0.0000 H   0  0  0  0  0  0  0  0  0  0  0  0
   19.8259    0.3988    0.0000 H   0  0  0  0  0  0  0  0  0  0  0  0
   21.7543    0.3985    0.0000 H   0  0  0  0  0  0  0  0  0  0  0  0
   19.4907   -1.5002    0.0000 O   0  0  0  0  0  0  0  0  0  0  0  0
   18.1918   -0.7500    0.0000 C   0  0  0  0  0  0  0  0  0  0  0  0
   16.8918   -1.5000    0.0000 C   0  0  0  0  0  0  0  0  0  0  0  0
   16.8918   -3.0000    0.0000 H   0  0  0  0  0  0  0  0  0  0  0  0
   15.5918   -0.7500    0.0000 C   0  0  0  0  0  0  0  0  0  0  0  0
   14.2918   -1.5000    0.0000 N   0  0  0  0  0  0  0  0  0  0  0  0
   12.9918   -0.7500    0.0000 C   0  0  0  0  0  0  0  0  0  0  0  0
   12.9918    0.7500    0.0000 C   0  0  0  0  0  0  0  0  0  0  0  0
   11.6929    1.5002    0.0000 H   0  0  0  0  0  0  0  0  0  0  0  0
   14.2918    1.5000    0.0000 C   0  0  0  0  0  0  0  0  0  0  0  0
   15.5918    0.7500    0.0000 C   0  0  0  0  0  0  0  0  0  0  0  0
   16.8918    1.5000    0.0000 C   0  0  0  0  0  0  0  0  0  0  0  0
   16.8918    3.0000    0.0000 H   0  0  0  0  0  0  0  0  0  0  0  0
   18.1918    0.7500    0.0000 C   0  0  0  0  0  0  0  0  0  0  0  0
   19.4907    1.5002    0.0000 C   0  0  0  0  0  0  0  0  0  0  0  0
   20.7899    0.7504    0.0000 O   0  0  0  0  0  0  0  0  0  0  0  0
   19.4905    3.0002    0.0000 N   0  0  0  0  0  0  0  0  0  0  0  0
   20.7894    3.7504    0.0000 H   0  0  0  0  0  0  0  0  0  0  0  0
   18.1913    3.7500    0.0000 H   0  0  0  0  0  0  0  0  0  0  0  0
   14.2918    3.0000    0.0000 O   0  0  0  0  0  0  0  0  0  0  0  0
   12.1614    4.2300    0.0000 C   0  0  0  0  0  0  0  0  0  0  0  0
   12.1612    5.7308    0.0000 C   0  0  0  0  0  0  0  0  0  0  0  0
   13.4603    6.4806    0.0000 H   0  0  0  0  0  0  0  0  0  0  0  0
   10.8618    6.4819    0.0000 C   0  0  0  0  0  0  0  0  0  0  0  0
   10.8622    7.9819    0.0000 H   0  0  0  0  0  0  0  0  0  0  0  0
    9.5626    5.7321    0.0000 C   0  0  0  0  0  0  0  0  0  0  0  0
    9.5628    4.2312    0.0000 C   0  0  0  0  0  0  0  0  0  0  0  0
   10.8622    3.4802    0.0000 C   0  0  0  0  0  0  0  0  0  0  0  0
   10.8618    1.9802    0.0000 H   0  0  0  0  0  0  0  0  0  0  0  0
    8.2637    3.4815    0.0000 Cl  0  0  0  0  0  0  0  0  0  0  0  0
    8.2636    6.4821    0.0000 N   0  0  0  0  0  0  0  0  0  0  0  0
    6.9645    5.7321    0.0000 H   0  0  0  0  0  0  0  0  0  0  0  0
    8.2636    7.9821    0.0000 C   0  0  0  0  0  0  0  0  0  0  0  0
    9.5626    8.7321    0.0000 O   0  0  0  0  0  0  0  0  0  0  0  0
    6.9645    8.7321    0.0000 N   0  0  0  0  0  0  0  0  0  0  0  0
    5.6655    7.9821    0.0000 H   0  0  0  0  0  0  0  0  0  0  0  0
    6.9645   10.2321    0.0000 C   0  0  0  0  0  0  0  0  0  0  0  0
    8.4418   10.4924    0.0000 H   0  0  0  0  0  0  0  0  0  0  0  0
    5.4865   10.4925    0.0000 C   0  0  0  0  0  0  0  0  0  0  0  0
    4.1877   11.2430    0.0000 H   0  0  0  0  0  0  0  0  0  0  0  0
    4.9733    9.0831    0.0000 H   0  0  0  0  0  0  0  0  0  0  0  0
    6.4518   11.6417    0.0000 C   0  0  0  0  0  0  0  0  0  0  0  0
    7.7511   12.3913    0.0000 H   0  0  0  0  0  0  0  0  0  0  0  0
    5.4881   12.7912    0.0000 H   0  0  0  0  0  0  0  0  0  0  0  0
   11.6929   -1.5002    0.0000 O   0  0  0  0  0  0  0  0  0  0  0  0
   11.6931   -3.0002    0.0000 H   0  0  0  0  0  0  0  0  0  0  0  0
  1  2  1  0  0  0  0 
  1  3  1  0  0  0  0 
  1  4  1  0  0  0  0 
  1  5  1  0  0  0  0 
  5  6  1  0  0  0  0 
  6  7  2  0  0  0  0 
  7  8  1  0  0  0  0 
  7  9  1  0  0  0  0 
  9 10  2  0  0  0  0 
 10 11  1  0  0  0  0 
 11 12  2  0  0  0  0 
 12 13  1  0  0  0  0 
 12 14  1  0  0  0  0 
 14 15  2  0  0  0  0 
  9 15  1  0  0  0  0 
 15 16  1  0  0  0  0 
 16 17  1  0  0  0  0 
 16 18  2  0  0  0  0 
  6 18  1  0  0  0  0 
 18 19  1  0  0  0  0 
 19 20  2  0  0  0  0 
 19 21  1  0  0  0  0 
 21 22  1  0  0  0  0 
 21 23  1  0  0  0  0 
 14 24  1  0  0  0  0 
 24 25  1  0  0  0  0 
 25 26  2  0  0  0  0 
 26 27  1  0  0  0  0 
 26 28  1  0  0  0  0 
 28 29  1  0  0  0  0 
 28 30  2  0  0  0  0 
 30 31  1  0  0  0  0 
 31 32  2  0  0  0  0 
 25 32  1  0  0  0  0 
 32 33  1  0  0  0  0 
 31 34  1  0  0  0  0 
 30 35  1  0  0  0  0 
 35 36  1  0  0  0  0 
 35 37  1  0  0  0  0 
 37 38  2  0  0  0  0 
 37 39  1  0  0  0  0 
 39 40  1  0  0  0  0 
 39 41  1  0  0  0  0 
 41 42  1  0  0  0  0 
 41 43  1  0  0  0  0 
 43 44  1  0  0  0  0 
 43 45  1  0  0  0  0 
 43 46  1  0  0  0  0 
 41 46  1  0  0  0  0 
 46 47  1  0  0  0  0 
 46 48  1  0  0  0  0 
 11 49  1  0  0  0  0 
 49 50  1  0  0  0  0 
M  END
> <Rank>
15

> <Priority_score>
0.124

> <Reaction_type>
aromatic_hydroxylation_(para_to_carbon)

> <Parent_ID>
45

> <Parent_InChI>
InChI=1S/C21H19ClN4O4/c1-29-19-10-17-13(9-14(19)20(23)27)18(6-7-24-17)30-12-4-5-16(15(22)8-12)26-21(28)25-11-2-3-11/h4-11H,2-3H2,1H3,(H2,23,27)(H2,25,26,28)

> <Parent_SMILES>
COc1cc2nccc(Oc3ccc(NC(=O)NC4CC4)c(Cl)c3)c2cc1C(N)=O

$$$$
Molecule 45_metabolite 20
  CDK     0516241031

 69 73  0  0  0  0  0  0  0  0999 V2000
   -5.1981   -0.7504    0.0000 C   0  0  0  0  0  0  0  0  0  0  0  0
   -6.4970   -1.5006    0.0000 H   0  0  0  0  0  0  0  0  0  0  0  0
   -4.2341    0.3988    0.0000 H   0  0  0  0  0  0  0  0  0  0  0  0
   -6.1624    0.3985    0.0000 H   0  0  0  0  0  0  0  0  0  0  0  0
   -3.8989   -1.5002    0.0000 O   0  0  0  0  0  0  0  0  0  0  0  0
   -2.6000   -0.7500    0.0000 C   0  0  0  0  0  0  0  0  0  0  0  0
   -1.3000   -1.5000    0.0000 C   0  0  0  0  0  0  0  0  0  0  0  0
   -1.3000   -3.0000    0.0000 H   0  0  0  0  0  0  0  0  0  0  0  0
   -0.0000   -0.7500    0.0000 C   0  0  0  0  0  0  0  0  0  0  0  0
   -0.0000    0.7500    0.0000 C   0  0  0  0  0  0  0  0  0  0  0  0
   -1.3000    1.5000    0.0000 C   0  0  0  0  0  0  0  0  0  0  0  0
   -1.3000    3.0000    0.0000 H   0  0  0  0  0  0  0  0  0  0  0  0
   -2.6000    0.7500    0.0000 C   0  0  0  0  0  0  0  0  0  0  0  0
   -3.8989    1.5002    0.0000 C   0  0  0  0  0  0  0  0  0  0  0  0
   -5.1981    0.7504    0.0000 O   0  0  0  0  0  0  0  0  0  0  0  0
   -3.8987    3.0002    0.0000 N   0  0  0  0  0  0  0  0  0  0  0  0
   -5.1976    3.7504    0.0000 H   0  0  0  0  0  0  0  0  0  0  0  0
   -2.5995    3.7500    0.0000 H   0  0  0  0  0  0  0  0  0  0  0  0
    1.3000    1.5000    0.0000 C   0  0  0  0  0  0  0  0  0  0  0  0
    2.6000    0.7500    0.0000 C   0  0  0  0  0  0  0  0  0  0  0  0
    3.8989    1.5002    0.0000 H   0  0  0  0  0  0  0  0  0  0  0  0
    2.6000   -0.7500    0.0000 C   0  0  0  0  0  0  0  0  0  0  0  0
    3.8989   -1.5002    0.0000 H   0  0  0  0  0  0  0  0  0  0  0  0
    1.3000   -1.5000    0.0000 N   0  0  0  0  0  0  0  0  0  0  0  0
    1.3000    3.0000    0.0000 O   0  0  0  0  0  0  0  0  0  0  0  0
    3.4304    4.2300    0.0000 C   0  0  0  0  0  0  0  0  0  0  0  0
    3.4307    5.7308    0.0000 C   0  0  0  0  0  0  0  0  0  0  0  0
    2.1315    6.4806    0.0000 H   0  0  0  0  0  0  0  0  0  0  0  0
    4.7301    6.4819    0.0000 C   0  0  0  0  0  0  0  0  0  0  0  0
    4.7296    7.9819    0.0000 H   0  0  0  0  0  0  0  0  0  0  0  0
    6.0292    5.7321    0.0000 C   0  0  0  0  0  0  0  0  0  0  0  0
    6.0290    4.2312    0.0000 C   0  0  0  0  0  0  0  0  0  0  0  0
    4.7296    3.4802    0.0000 C   0  0  0  0  0  0  0  0  0  0  0  0
    4.7301    1.9802    0.0000 H   0  0  0  0  0  0  0  0  0  0  0  0
    7.3281    3.4815    0.0000 Cl  0  0  0  0  0  0  0  0  0  0  0  0
    7.3283    6.4821    0.0000 N   0  0  0  0  0  0  0  0  0  0  0  0
    9.4587    5.2521    0.0000 C   0  0  0  0  0  0  0  0  0  0  0  0
    8.4946    4.1029    0.0000 H   0  0  0  0  0  0  0  0  0  0  0  0
   10.4231    4.1032    0.0000 C   0  0  0  0  0  0  0  0  0  0  0  0
    9.1243    3.3528    0.0000 H   0  0  0  0  0  0  0  0  0  0  0  0
   11.9010    4.3646    0.0000 C   0  0  0  0  0  0  0  0  0  0  0  0
   11.9015    2.8646    0.0000 H   0  0  0  0  0  0  0  0  0  0  0  0
   12.4145    5.7749    0.0000 C   0  0  0  0  0  0  0  0  0  0  0  0
   13.7135    5.0249    0.0000 H   0  0  0  0  0  0  0  0  0  0  0  0
   11.4500    6.9238    0.0000 C   0  0  0  0  0  0  0  0  0  0  0  0
   12.7488    7.6742    0.0000 H   0  0  0  0  0  0  0  0  0  0  0  0
   10.9364    8.3331    0.0000 C   0  0  0  0  0  0  0  0  0  0  0  0
    9.4591    8.5929    0.0000 O   0  0  0  0  0  0  0  0  0  0  0  0
   11.9001    9.4826    0.0000 O   0  0  0  0  0  0  0  0  0  0  0  0
   13.3774    9.2227    0.0000 H   0  0  0  0  0  0  0  0  0  0  0  0
    9.9721    6.6623    0.0000 O   0  0  0  0  0  0  0  0  0  0  0  0
   13.3785    6.9241    0.0000 O   0  0  0  0  0  0  0  0  0  0  0  0
   14.8558    6.6638    0.0000 H   0  0  0  0  0  0  0  0  0  0  0  0
   13.3782    4.1043    0.0000 O   0  0  0  0  0  0  0  0  0  0  0  0
   13.8914    2.6948    0.0000 H   0  0  0  0  0  0  0  0  0  0  0  0
   10.9367    2.6939    0.0000 O   0  0  0  0  0  0  0  0  0  0  0  0
    9.9730    1.5444    0.0000 H   0  0  0  0  0  0  0  0  0  0  0  0
    7.3283    7.9821    0.0000 C   0  0  0  0  0  0  0  0  0  0  0  0
    6.0292    8.7321    0.0000 O   0  0  0  0  0  0  0  0  0  0  0  0
    8.6273    8.7321    0.0000 N   0  0  0  0  0  0  0  0  0  0  0  0
    9.9263    7.9821    0.0000 H   0  0  0  0  0  0  0  0  0  0  0  0
    8.6273   10.7121    0.0000 C   0  0  0  0  0  0  0  0  0  0  0  0
   10.1045   10.9724    0.0000 H   0  0  0  0  0  0  0  0  0  0  0  0
    7.1492   10.9725    0.0000 C   0  0  0  0  0  0  0  0  0  0  0  0
    5.8504   11.7230    0.0000 H   0  0  0  0  0  0  0  0  0  0  0  0
    6.6361    9.5631    0.0000 H   0  0  0  0  0  0  0  0  0  0  0  0
    8.1146   12.1217    0.0000 C   0  0  0  0  0  0  0  0  0  0  0  0
    9.4138   12.8713    0.0000 H   0  0  0  0  0  0  0  0  0  0  0  0
    7.1509   13.2712    0.0000 H   0  0  0  0  0  0  0  0  0  0  0  0
  1  2  1  0  0  0  0 
  1  3  1  0  0  0  0 
  1  4  1  0  0  0  0 
  1  5  1  0  0  0  0 
  5  6  1  0  0  0  0 
  6  7  2  0  0  0  0 
  7  8  1  0  0  0  0 
  7  9  1  0  0  0  0 
  9 10  2  0  0  0  0 
 10 11  1  0  0  0  0 
 11 12  1  0  0  0  0 
 11 13  2  0  0  0  0 
  6 13  1  0  0  0  0 
 13 14  1  0  0  0  0 
 14 15  2  0  0  0  0 
 14 16  1  0  0  0  0 
 16 17  1  0  0  0  0 
 16 18  1  0  0  0  0 
 10 19  1  0  0  0  0 
 19 20  2  0  0  0  0 
 20 21  1  0  0  0  0 
 20 22  1  0  0  0  0 
 22 23  1  0  0  0  0 
 22 24  2  0  0  0  0 
  9 24  1  0  0  0  0 
 19 25  1  0  0  0  0 
 25 26  1  0  0  0  0 
 26 27  2  0  0  0  0 
 27 28  1  0  0  0  0 
 27 29  1  0  0  0  0 
 29 30  1  0  0  0  0 
 29 31  2  0  0  0  0 
 31 32  1  0  0  0  0 
 32 33  2  0  0  0  0 
 26 33  1  0  0  0  0 
 33 34  1  0  0  0  0 
 32 35  1  0  0  0  0 
 31 36  1  0  0  0  0 
 36 37  1  0  0  0  0 
 37 38  1  0  0  0  0 
 37 39  1  0  0  0  0 
 39 40  1  0  0  0  0 
 39 41  1  0  0  0  0 
 41 42  1  0  0  0  0 
 41 43  1  0  0  0  0 
 43 44  1  0  0  0  0 
 43 45  1  0  0  0  0 
 45 46  1  0  0  0  0 
 45 47  1  0  0  0  0 
 47 48  2  0  0  0  0 
 47 49  1  0  0  0  0 
 49 50  1  0  0  0  0 
 45 51  1  0  0  0  0 
 37 51  1  0  0  0  0 
 43 52  1  0  0  0  0 
 52 53  1  0  0  0  0 
 41 54  1  0  0  0  0 
 54 55  1  0  0  0  0 
 39 56  1  0  0  0  0 
 56 57  1  0  0  0  0 
 36 58  1  0  0  0  0 
 58 59  2  0  0  0  0 
 58 60  1  0  0  0  0 
 60 61  1  0  0  0  0 
 60 62  1  0  0  0  0 
 62 63  1  0  0  0  0 
 62 64  1  0  0  0  0 
 64 65  1  0  0  0  0 
 64 66  1  0  0  0  0 
 64 67  1  0  0  0  0 
 62 67  1  0  0  0  0 
 67 68  1  0  0  0  0 
 67 69  1  0  0  0  0 
M  END
> <Rank>
20

> <Priority_score>
0.088

> <Reaction_type>
N-glucuronidation_(aniline_NH1-R)

> <Parent_ID>
45

> <Parent_InChI>
InChI=1S/C21H19ClN4O4/c1-29-19-10-17-13(9-14(19)20(23)27)18(6-7-24-17)30-12-4-5-16(15(22)8-12)26-21(28)25-11-2-3-11/h4-11H,2-3H2,1H3,(H2,23,27)(H2,25,26,28)

> <Parent_SMILES>
COc1cc2nccc(Oc3ccc(NC(=O)NC4CC4)c(Cl)c3)c2cc1C(N)=O

$$$$
Molecule 45_metabolite 21
  CDK     0516241031

 84 87  0  0  0  0  0  0  0  0999 V2000
   10.3867   18.6969    0.0000 C   0  0  0  0  0  0  0  0  0  0  0  0
   10.3864   20.1969    0.0000 H   0  0  0  0  0  0  0  0  0  0  0  0
    9.8739   17.2872    0.0000 H   0  0  0  0  0  0  0  0  0  0  0  0
    8.9094   18.9571    0.0000 H   0  0  0  0  0  0  0  0  0  0  0  0
   11.6858   17.9471    0.0000 O   0  0  0  0  0  0  0  0  0  0  0  0
   11.6861   16.4471    0.0000 C   0  0  0  0  0  0  0  0  0  0  0  0
   12.9858   15.6967    0.0000 C   0  0  0  0  0  0  0  0  0  0  0  0
   14.2846   16.4471    0.0000 H   0  0  0  0  0  0  0  0  0  0  0  0
   12.9868   14.1958    0.0000 C   0  0  0  0  0  0  0  0  0  0  0  0
   11.6880   13.4454    0.0000 C   0  0  0  0  0  0  0  0  0  0  0  0
   10.3882   14.1958    0.0000 C   0  0  0  0  0  0  0  0  0  0  0  0
    9.0894   13.4454    0.0000 H   0  0  0  0  0  0  0  0  0  0  0  0
   10.3873   15.6967    0.0000 C   0  0  0  0  0  0  0  0  0  0  0  0
    9.0879   16.4460    0.0000 C   0  0  0  0  0  0  0  0  0  0  0  0
    9.0872   17.9460    0.0000 O   0  0  0  0  0  0  0  0  0  0  0  0
    7.7892   15.6954    0.0000 N   0  0  0  0  0  0  0  0  0  0  0  0
    6.4898   16.4448    0.0000 H   0  0  0  0  0  0  0  0  0  0  0  0
    7.7899   14.1954    0.0000 H   0  0  0  0  0  0  0  0  0  0  0  0
   11.6890   11.9446    0.0000 C   0  0  0  0  0  0  0  0  0  0  0  0
   12.9887   11.1942    0.0000 C   0  0  0  0  0  0  0  0  0  0  0  0
   12.9890    9.6942    0.0000 H   0  0  0  0  0  0  0  0  0  0  0  0
   14.2875   11.9446    0.0000 C   0  0  0  0  0  0  0  0  0  0  0  0
   15.5869   11.1952    0.0000 H   0  0  0  0  0  0  0  0  0  0  0  0
   14.2866   13.4454    0.0000 N   0  0  0  0  0  0  0  0  0  0  0  0
   10.3902   11.1942    0.0000 O   0  0  0  0  0  0  0  0  0  0  0  0
   10.3910    8.7342    0.0000 C   0  0  0  0  0  0  0  0  0  0  0  0
   11.6908    7.9840    0.0000 C   0  0  0  0  0  0  0  0  0  0  0  0
   13.1001    8.4977    0.0000 H   0  0  0  0  0  0  0  0  0  0  0  0
   11.6920    6.4831    0.0000 C   0  0  0  0  0  0  0  0  0  0  0  0
   12.9916    5.7340    0.0000 H   0  0  0  0  0  0  0  0  0  0  0  0
   10.3934    5.7325    0.0000 C   0  0  0  0  0  0  0  0  0  0  0  0
    9.0935    6.4827    0.0000 C   0  0  0  0  0  0  0  0  0  0  0  0
    9.0923    7.9835    0.0000 C   0  0  0  0  0  0  0  0  0  0  0  0
    7.7928    8.7327    0.0000 H   0  0  0  0  0  0  0  0  0  0  0  0
    7.7948    5.7321    0.0000 S   0  0  0  0  0  0  0  0  0  0  0  0
    7.7955    4.2321    0.0000 C   0  0  0  0  0  0  0  0  0  0  0  0
    8.3092    2.8228    0.0000 H   0  0  0  0  0  0  0  0  0  0  0  0
    9.2726    4.4933    0.0000 H   0  0  0  0  0  0  0  0  0  0  0  0
    6.4968    3.4815    0.0000 C   0  0  0  0  0  0  0  0  0  0  0  0
    5.9831    4.8907    0.0000 H   0  0  0  0  0  0  0  0  0  0  0  0
    5.0198    3.2203    0.0000 C   0  0  0  0  0  0  0  0  0  0  0  0
    4.5074    1.8105    0.0000 O   0  0  0  0  0  0  0  0  0  0  0  0
    4.0550    4.3689    0.0000 N   0  0  0  0  0  0  0  0  0  0  0  0
    4.5674    5.7787    0.0000 H   0  0  0  0  0  0  0  0  0  0  0  0
    2.5779    4.1077    0.0000 C   0  0  0  0  0  0  0  0  0  0  0  0
    3.0917    2.6984    0.0000 H   0  0  0  0  0  0  0  0  0  0  0  0
    1.2793    3.3571    0.0000 H   0  0  0  0  0  0  0  0  0  0  0  0
    1.6132    5.2563    0.0000 C   0  0  0  0  0  0  0  0  0  0  0  0
    2.1256    6.6661    0.0000 O   0  0  0  0  0  0  0  0  0  0  0  0
    0.1361    4.9951    0.0000 O   0  0  0  0  0  0  0  0  0  0  0  0
   -0.8286    6.1437    0.0000 H   0  0  0  0  0  0  0  0  0  0  0  0
    6.4976    1.9815    0.0000 N   0  0  0  0  0  0  0  0  0  0  0  0
    5.1989    1.2308    0.0000 H   0  0  0  0  0  0  0  0  0  0  0  0
    7.7970    1.2321    0.0000 C   0  0  0  0  0  0  0  0  0  0  0  0
    9.0956    1.9827    0.0000 O   0  0  0  0  0  0  0  0  0  0  0  0
    7.7977   -0.2679    0.0000 C   0  0  0  0  0  0  0  0  0  0  0  0
    8.3114   -1.6772    0.0000 H   0  0  0  0  0  0  0  0  0  0  0  0
    9.2748   -0.0067    0.0000 H   0  0  0  0  0  0  0  0  0  0  0  0
    6.4990   -1.0185    0.0000 C   0  0  0  0  0  0  0  0  0  0  0  0
    5.9853    0.3908    0.0000 H   0  0  0  0  0  0  0  0  0  0  0  0
    5.0219   -1.2797    0.0000 H   0  0  0  0  0  0  0  0  0  0  0  0
    6.5004   -3.9585    0.0000 C   0  0  0  0  0  0  0  0  0  0  0  0
    5.9881   -5.3683    0.0000 H   0  0  0  0  0  0  0  0  0  0  0  0
    7.7998   -4.7079    0.0000 C   0  0  0  0  0  0  0  0  0  0  0  0
    9.0985   -3.9573    0.0000 O   0  0  0  0  0  0  0  0  0  0  0  0
    7.8005   -6.2079    0.0000 O   0  0  0  0  0  0  0  0  0  0  0  0
    9.0999   -6.9573    0.0000 H   0  0  0  0  0  0  0  0  0  0  0  0
    5.0231   -3.6988    0.0000 N   0  0  0  0  0  0  0  0  0  0  0  0
    4.0595   -4.8483    0.0000 H   0  0  0  0  0  0  0  0  0  0  0  0
    4.5094   -2.2895    0.0000 H   0  0  0  0  0  0  0  0  0  0  0  0
   10.3938    4.2325    0.0000 N   0  0  0  0  0  0  0  0  0  0  0  0
    9.0950    3.4821    0.0000 H   0  0  0  0  0  0  0  0  0  0  0  0
   11.6931    3.4829    0.0000 C   0  0  0  0  0  0  0  0  0  0  0  0
   12.9919    4.2333    0.0000 O   0  0  0  0  0  0  0  0  0  0  0  0
   11.6936    1.9829    0.0000 N   0  0  0  0  0  0  0  0  0  0  0  0
   10.3948    1.2325    0.0000 H   0  0  0  0  0  0  0  0  0  0  0  0
   12.9929    1.2333    0.0000 C   0  0  0  0  0  0  0  0  0  0  0  0
   13.9566    2.3828    0.0000 H   0  0  0  0  0  0  0  0  0  0  0  0
   12.4799   -0.1771    0.0000 C   0  0  0  0  0  0  0  0  0  0  0  0
   12.4808   -1.6771    0.0000 H   0  0  0  0  0  0  0  0  0  0  0  0
   11.0025    0.0827    0.0000 H   0  0  0  0  0  0  0  0  0  0  0  0
   13.9577    0.0848    0.0000 C   0  0  0  0  0  0  0  0  0  0  0  0
   15.2562    0.8356    0.0000 H   0  0  0  0  0  0  0  0  0  0  0  0
   14.4718   -1.3244    0.0000 H   0  0  0  0  0  0  0  0  0  0  0  0
  1  2  1  0  0  0  0 
  1  3  1  0  0  0  0 
  1  4  1  0  0  0  0 
  1  5  1  0  0  0  0 
  5  6  1  0  0  0  0 
  6  7  2  0  0  0  0 
  7  8  1  0  0  0  0 
  7  9  1  0  0  0  0 
  9 10  2  0  0  0  0 
 10 11  1  0  0  0  0 
 11 12  1  0  0  0  0 
 11 13  2  0  0  0  0 
  6 13  1  0  0  0  0 
 13 14  1  0  0  0  0 
 14 15  2  0  0  0  0 
 14 16  1  0  0  0  0 
 16 17  1  0  0  0  0 
 16 18  1  0  0  0  0 
 10 19  1  0  0  0  0 
 19 20  2  0  0  0  0 
 20 21  1  0  0  0  0 
 20 22  1  0  0  0  0 
 22 23  1  0  0  0  0 
 22 24  2  0  0  0  0 
  9 24  1  0  0  0  0 
 19 25  1  0  0  0  0 
 25 26  1  0  0  0  0 
 26 27  2  0  0  0  0 
 27 28  1  0  0  0  0 
 27 29  1  0  0  0  0 
 29 30  1  0  0  0  0 
 29 31  2  0  0  0  0 
 31 32  1  0  0  0  0 
 32 33  2  0  0  0  0 
 26 33  1  0  0  0  0 
 33 34  1  0  0  0  0 
 32 35  1  0  0  0  0 
 35 36  1  0  0  0  0 
 36 37  1  0  0  0  0 
 36 38  1  0  0  0  0 
 36 39  1  0  0  0  0 
 39 40  1  0  0  0  0 
 39 41  1  0  0  0  0 
 41 42  2  0  0  0  0 
 41 43  1  0  0  0  0 
 43 44  1  0  0  0  0 
 43 45  1  0  0  0  0 
 45 46  1  0  0  0  0 
 45 47  1  0  0  0  0 
 45 48  1  0  0  0  0 
 48 49  2  0  0  0  0 
 48 50  1  0  0  0  0 
 50 51  1  0  0  0  0 
 39 52  1  0  0  0  0 
 52 53  1  0  0  0  0 
 52 54  1  0  0  0  0 
 54 55  2  0  0  0  0 
 54 56  1  0  0  0  0 
 56 57  1  0  0  0  0 
 56 58  1  0  0  0  0 
 56 59  1  0  0  0  0 
 59 60  1  0  0  0  0 
 59 61  1  0  0  0  0 
 59 62  1  0  0  0  0 
 62 63  1  0  0  0  0 
 62 64  1  0  0  0  0 
 64 65  2  0  0  0  0 
 64 66  1  0  0  0  0 
 66 67  1  0  0  0  0 
 62 68  1  0  0  0  0 
 68 69  1  0  0  0  0 
 68 70  1  0  0  0  0 
 31 71  1  0  0  0  0 
 71 72  1  0  0  0  0 
 71 73  1  0  0  0  0 
 73 74  2  0  0  0  0 
 73 75  1  0  0  0  0 
 75 76  1  0  0  0  0 
 75 77  1  0  0  0  0 
 77 78  1  0  0  0  0 
 77 79  1  0  0  0  0 
 79 80  1  0  0  0  0 
 79 81  1  0  0  0  0 
 79 82  1  0  0  0  0 
 77 82  1  0  0  0  0 
 82 83  1  0  0  0  0 
 82 84  1  0  0  0  0 
M  END
> <Rank>
21

> <Priority_score>
0.068

> <Reaction_type>
glutathione_conjugation_(aromatic_nucleophilic_substitution)

> <Parent_ID>
45

> <Parent_InChI>
InChI=1S/C21H19ClN4O4/c1-29-19-10-17-13(9-14(19)20(23)27)18(6-7-24-17)30-12-4-5-16(15(22)8-12)26-21(28)25-11-2-3-11/h4-11H,2-3H2,1H3,(H2,23,27)(H2,25,26,28)

> <Parent_SMILES>
COc1cc2nccc(Oc3ccc(NC(=O)NC4CC4)c(Cl)c3)c2cc1C(N)=O

$$$$
Molecule 45_metabolite 22
  CDK     0516241031

 50 53  0  0  0  0  0  0  0  0999 V2000
    7.7963   21.7565    0.0000 C   0  0  0  0  0  0  0  0  0  0  0  0
    7.7965   23.2565    0.0000 H   0  0  0  0  0  0  0  0  0  0  0  0
    7.2830   20.3470    0.0000 H   0  0  0  0  0  0  0  0  0  0  0  0
    6.3191   22.0172    0.0000 H   0  0  0  0  0  0  0  0  0  0  0  0
    9.0952   21.0062    0.0000 O   0  0  0  0  0  0  0  0  0  0  0  0
    9.0949   19.5062    0.0000 C   0  0  0  0  0  0  0  0  0  0  0  0
   10.3945   18.7554    0.0000 C   0  0  0  0  0  0  0  0  0  0  0  0
   11.6935   19.5054    0.0000 H   0  0  0  0  0  0  0  0  0  0  0  0
   10.3949   17.2546    0.0000 C   0  0  0  0  0  0  0  0  0  0  0  0
    9.0959   16.5046    0.0000 C   0  0  0  0  0  0  0  0  0  0  0  0
    7.7964   17.2554    0.0000 C   0  0  0  0  0  0  0  0  0  0  0  0
    6.4974   16.5054    0.0000 H   0  0  0  0  0  0  0  0  0  0  0  0
    7.7959   18.7562    0.0000 C   0  0  0  0  0  0  0  0  0  0  0  0
    6.4968   19.5060    0.0000 C   0  0  0  0  0  0  0  0  0  0  0  0
    6.4965   21.0060    0.0000 O   0  0  0  0  0  0  0  0  0  0  0  0
    5.1978   18.7558    0.0000 N   0  0  0  0  0  0  0  0  0  0  0  0
    3.8987   19.5056    0.0000 H   0  0  0  0  0  0  0  0  0  0  0  0
    5.1981   17.2558    0.0000 H   0  0  0  0  0  0  0  0  0  0  0  0
    9.0964   15.0037    0.0000 C   0  0  0  0  0  0  0  0  0  0  0  0
   10.3959   14.2529    0.0000 C   0  0  0  0  0  0  0  0  0  0  0  0
   10.3957   12.7529    0.0000 H   0  0  0  0  0  0  0  0  0  0  0  0
   11.6950   15.0029    0.0000 C   0  0  0  0  0  0  0  0  0  0  0  0
   12.9941   14.2531    0.0000 H   0  0  0  0  0  0  0  0  0  0  0  0
   11.6945   16.5037    0.0000 N   0  0  0  0  0  0  0  0  0  0  0  0
    7.7974   14.2537    0.0000 O   0  0  0  0  0  0  0  0  0  0  0  0
    7.7974   11.7937    0.0000 C   0  0  0  0  0  0  0  0  0  0  0  0
    6.4977   11.0431    0.0000 C   0  0  0  0  0  0  0  0  0  0  0  0
    5.1988   11.7933    0.0000 H   0  0  0  0  0  0  0  0  0  0  0  0
    6.4970    9.5423    0.0000 C   0  0  0  0  0  0  0  0  0  0  0  0
    7.7959    8.7921    0.0000 C   0  0  0  0  0  0  0  0  0  0  0  0
    9.0956    9.5427    0.0000 C   0  0  0  0  0  0  0  0  0  0  0  0
    9.0963   11.0435    0.0000 C   0  0  0  0  0  0  0  0  0  0  0  0
   10.3956   11.7931    0.0000 H   0  0  0  0  0  0  0  0  0  0  0  0
   10.3945    8.7925    0.0000 Cl  0  0  0  0  0  0  0  0  0  0  0  0
    7.7959    7.2921    0.0000 N   0  0  0  0  0  0  0  0  0  0  0  0
    6.4969    6.5421    0.0000 H   0  0  0  0  0  0  0  0  0  0  0  0
    9.0949    6.5421    0.0000 C   0  0  0  0  0  0  0  0  0  0  0  0
   10.3940    7.2921    0.0000 O   0  0  0  0  0  0  0  0  0  0  0  0
    9.0949    5.0421    0.0000 N   0  0  0  0  0  0  0  0  0  0  0  0
    7.7959    4.2921    0.0000 H   0  0  0  0  0  0  0  0  0  0  0  0
   10.3940    4.2921    0.0000 C   0  0  0  0  0  0  0  0  0  0  0  0
   11.3580    5.4413    0.0000 H   0  0  0  0  0  0  0  0  0  0  0  0
    9.8805    2.8818    0.0000 C   0  0  0  0  0  0  0  0  0  0  0  0
    9.8810    1.3818    0.0000 H   0  0  0  0  0  0  0  0  0  0  0  0
    8.4033    3.1421    0.0000 H   0  0  0  0  0  0  0  0  0  0  0  0
   11.3584    3.1432    0.0000 C   0  0  0  0  0  0  0  0  0  0  0  0
   12.6572    3.8936    0.0000 H   0  0  0  0  0  0  0  0  0  0  0  0
   11.8720    1.7339    0.0000 H   0  0  0  0  0  0  0  0  0  0  0  0
    5.1977    8.7927    0.0000 O   0  0  0  0  0  0  0  0  0  0  0  0
    5.1972    7.2927    0.0000 H   0  0  0  0  0  0  0  0  0  0  0  0
  1  2  1  0  0  0  0 
  1  3  1  0  0  0  0 
  1  4  1  0  0  0  0 
  1  5  1  0  0  0  0 
  5  6  1  0  0  0  0 
  6  7  2  0  0  0  0 
  7  8  1  0  0  0  0 
  7  9  1  0  0  0  0 
  9 10  2  0  0  0  0 
 10 11  1  0  0  0  0 
 11 12  1  0  0  0  0 
 11 13  2  0  0  0  0 
  6 13  1  0  0  0  0 
 13 14  1  0  0  0  0 
 14 15  2  0  0  0  0 
 14 16  1  0  0  0  0 
 16 17  1  0  0  0  0 
 16 18  1  0  0  0  0 
 10 19  1  0  0  0  0 
 19 20  2  0  0  0  0 
 20 21  1  0  0  0  0 
 20 22  1  0  0  0  0 
 22 23  1  0  0  0  0 
 22 24  2  0  0  0  0 
  9 24  1  0  0  0  0 
 19 25  1  0  0  0  0 
 25 26  1  0  0  0  0 
 26 27  2  0  0  0  0 
 27 28  1  0  0  0  0 
 27 29  1  0  0  0  0 
 29 30  2  0  0  0  0 
 30 31  1  0  0  0  0 
 31 32  2  0  0  0  0 
 26 32  1  0  0  0  0 
 32 33  1  0  0  0  0 
 31 34  1  0  0  0  0 
 30 35  1  0  0  0  0 
 35 36  1  0  0  0  0 
 35 37  1  0  0  0  0 
 37 38  2  0  0  0  0 
 37 39  1  0  0  0  0 
 39 40  1  0  0  0  0 
 39 41  1  0  0  0  0 
 41 42  1  0  0  0  0 
 41 43  1  0  0  0  0 
 43 44  1  0  0  0  0 
 43 45  1  0  0  0  0 
 43 46  1  0  0  0  0 
 41 46  1  0  0  0  0 
 46 47  1  0  0  0  0 
 46 48  1  0  0  0  0 
 29 49  1  0  0  0  0 
 49 50  1  0  0  0  0 
M  END
> <Rank>
22

> <Priority_score>
0.056

> <Reaction_type>
aromatic_hydroxylation_(ortho_to_nitrogen)

> <Parent_ID>
45

> <Parent_InChI>
InChI=1S/C21H19ClN4O4/c1-29-19-10-17-13(9-14(19)20(23)27)18(6-7-24-17)30-12-4-5-16(15(22)8-12)26-21(28)25-11-2-3-11/h4-11H,2-3H2,1H3,(H2,23,27)(H2,25,26,28)

> <Parent_SMILES>
COc1cc2nccc(Oc3ccc(NC(=O)NC4CC4)c(Cl)c3)c2cc1C(N)=O

$$$$
Molecule 45_metabolite 23
  CDK     0516241031

 50 53  0  0  0  0  0  0  0  0999 V2000
   20.7899   -0.7504    0.0000 C   0  0  0  0  0  0  0  0  0  0  0  0
   22.0888   -1.5006    0.0000 H   0  0  0  0  0  0  0  0  0  0  0  0
   19.8259    0.3988    0.0000 H   0  0  0  0  0  0  0  0  0  0  0  0
   21.7543    0.3985    0.0000 H   0  0  0  0  0  0  0  0  0  0  0  0
   19.4907   -1.5002    0.0000 O   0  0  0  0  0  0  0  0  0  0  0  0
   18.1918   -0.7500    0.0000 C   0  0  0  0  0  0  0  0  0  0  0  0
   16.8918   -1.5000    0.0000 C   0  0  0  0  0  0  0  0  0  0  0  0
   16.8918   -3.0000    0.0000 H   0  0  0  0  0  0  0  0  0  0  0  0
   15.5918   -0.7500    0.0000 C   0  0  0  0  0  0  0  0  0  0  0  0
   15.5918    0.7500    0.0000 C   0  0  0  0  0  0  0  0  0  0  0  0
   16.8918    1.5000    0.0000 C   0  0  0  0  0  0  0  0  0  0  0  0
   16.8918    3.0000    0.0000 H   0  0  0  0  0  0  0  0  0  0  0  0
   18.1918    0.7500    0.0000 C   0  0  0  0  0  0  0  0  0  0  0  0
   19.4907    1.5002    0.0000 C   0  0  0  0  0  0  0  0  0  0  0  0
   20.7899    0.7504    0.0000 O   0  0  0  0  0  0  0  0  0  0  0  0
   19.4905    3.0002    0.0000 N   0  0  0  0  0  0  0  0  0  0  0  0
   20.7894    3.7504    0.0000 H   0  0  0  0  0  0  0  0  0  0  0  0
   18.1913    3.7500    0.0000 H   0  0  0  0  0  0  0  0  0  0  0  0
   14.2918    1.5000    0.0000 C   0  0  0  0  0  0  0  0  0  0  0  0
   12.9918    0.7500    0.0000 C   0  0  0  0  0  0  0  0  0  0  0  0
   11.6929    1.5002    0.0000 H   0  0  0  0  0  0  0  0  0  0  0  0
   12.9918   -0.7500    0.0000 C   0  0  0  0  0  0  0  0  0  0  0  0
   11.6929   -1.5002    0.0000 H   0  0  0  0  0  0  0  0  0  0  0  0
   14.2918   -1.5000    0.0000 N   0  0  0  0  0  0  0  0  0  0  0  0
   14.2918    3.0000    0.0000 O   0  0  0  0  0  0  0  0  0  0  0  0
   12.1614    4.2300    0.0000 C   0  0  0  0  0  0  0  0  0  0  0  0
   12.1612    5.7308    0.0000 C   0  0  0  0  0  0  0  0  0  0  0  0
   13.4603    6.4806    0.0000 H   0  0  0  0  0  0  0  0  0  0  0  0
   10.8618    6.4819    0.0000 C   0  0  0  0  0  0  0  0  0  0  0  0
   10.8622    7.9819    0.0000 H   0  0  0  0  0  0  0  0  0  0  0  0
    9.5626    5.7321    0.0000 C   0  0  0  0  0  0  0  0  0  0  0  0
    9.5628    4.2312    0.0000 C   0  0  0  0  0  0  0  0  0  0  0  0
   10.8622    3.4802    0.0000 C   0  0  0  0  0  0  0  0  0  0  0  0
   10.8618    1.9802    0.0000 O   0  0  0  0  0  0  0  0  0  0  0  0
    9.5625    1.2306    0.0000 H   0  0  0  0  0  0  0  0  0  0  0  0
    8.2637    3.4815    0.0000 Cl  0  0  0  0  0  0  0  0  0  0  0  0
    8.2636    6.4821    0.0000 N   0  0  0  0  0  0  0  0  0  0  0  0
    6.9645    5.7321    0.0000 H   0  0  0  0  0  0  0  0  0  0  0  0
    8.2636    7.9821    0.0000 C   0  0  0  0  0  0  0  0  0  0  0  0
    9.5626    8.7321    0.0000 O   0  0  0  0  0  0  0  0  0  0  0  0
    6.9645    8.7321    0.0000 N   0  0  0  0  0  0  0  0  0  0  0  0
    5.6655    7.9821    0.0000 H   0  0  0  0  0  0  0  0  0  0  0  0
    6.9645   10.2321    0.0000 C   0  0  0  0  0  0  0  0  0  0  0  0
    8.4418   10.4924    0.0000 H   0  0  0  0  0  0  0  0  0  0  0  0
    5.4865   10.4925    0.0000 C   0  0  0  0  0  0  0  0  0  0  0  0
    4.1877   11.2430    0.0000 H   0  0  0  0  0  0  0  0  0  0  0  0
    4.9733    9.0831    0.0000 H   0  0  0  0  0  0  0  0  0  0  0  0
    6.4518   11.6417    0.0000 C   0  0  0  0  0  0  0  0  0  0  0  0
    7.7511   12.3913    0.0000 H   0  0  0  0  0  0  0  0  0  0  0  0
    5.4881   12.7912    0.0000 H   0  0  0  0  0  0  0  0  0  0  0  0
  1  2  1  0  0  0  0 
  1  3  1  0  0  0  0 
  1  4  1  0  0  0  0 
  1  5  1  0  0  0  0 
  5  6  1  0  0  0  0 
  6  7  2  0  0  0  0 
  7  8  1  0  0  0  0 
  7  9  1  0  0  0  0 
  9 10  2  0  0  0  0 
 10 11  1  0  0  0  0 
 11 12  1  0  0  0  0 
 11 13  2  0  0  0  0 
  6 13  1  0  0  0  0 
 13 14  1  0  0  0  0 
 14 15  2  0  0  0  0 
 14 16  1  0  0  0  0 
 16 17  1  0  0  0  0 
 16 18  1  0  0  0  0 
 10 19  1  0  0  0  0 
 19 20  2  0  0  0  0 
 20 21  1  0  0  0  0 
 20 22  1  0  0  0  0 
 22 23  1  0  0  0  0 
 22 24  2  0  0  0  0 
  9 24  1  0  0  0  0 
 19 25  1  0  0  0  0 
 25 26  1  0  0  0  0 
 26 27  2  0  0  0  0 
 27 28  1  0  0  0  0 
 27 29  1  0  0  0  0 
 29 30  1  0  0  0  0 
 29 31  2  0  0  0  0 
 31 32  1  0  0  0  0 
 32 33  2  0  0  0  0 
 26 33  1  0  0  0  0 
 33 34  1  0  0  0  0 
 34 35  1  0  0  0  0 
 32 36  1  0  0  0  0 
 31 37  1  0  0  0  0 
 37 38  1  0  0  0  0 
 37 39  1  0  0  0  0 
 39 40  2  0  0  0  0 
 39 41  1  0  0  0  0 
 41 42  1  0  0  0  0 
 41 43  1  0  0  0  0 
 43 44  1  0  0  0  0 
 43 45  1  0  0  0  0 
 45 46  1  0  0  0  0 
 45 47  1  0  0  0  0 
 45 48  1  0  0  0  0 
 43 48  1  0  0  0  0 
 48 49  1  0  0  0  0 
 48 50  1  0  0  0  0 
M  END
> <Rank>
22

> <Priority_score>
0.056

> <Reaction_type>
aromatic_hydroxylation_(ortho_to_oxygen)

> <Parent_ID>
45

> <Parent_InChI>
InChI=1S/C21H19ClN4O4/c1-29-19-10-17-13(9-14(19)20(23)27)18(6-7-24-17)30-12-4-5-16(15(22)8-12)26-21(28)25-11-2-3-11/h4-11H,2-3H2,1H3,(H2,23,27)(H2,25,26,28)

> <Parent_SMILES>
COc1cc2nccc(Oc3ccc(NC(=O)NC4CC4)c(Cl)c3)c2cc1C(N)=O

$$$$
Molecule 45_metabolite 24
  CDK     0516241031

 50 53  0  0  0  0  0  0  0  0999 V2000
   20.7899   -0.7504    0.0000 C   0  0  0  0  0  0  0  0  0  0  0  0
   22.0888   -1.5006    0.0000 H   0  0  0  0  0  0  0  0  0  0  0  0
   19.8259    0.3988    0.0000 H   0  0  0  0  0  0  0  0  0  0  0  0
   21.7543    0.3985    0.0000 H   0  0  0  0  0  0  0  0  0  0  0  0
   19.4907   -1.5002    0.0000 O   0  0  0  0  0  0  0  0  0  0  0  0
   18.1918   -0.7500    0.0000 C   0  0  0  0  0  0  0  0  0  0  0  0
   16.8918   -1.5000    0.0000 C   0  0  0  0  0  0  0  0  0  0  0  0
   16.8918   -3.0000    0.0000 H   0  0  0  0  0  0  0  0  0  0  0  0
   15.5918   -0.7500    0.0000 C   0  0  0  0  0  0  0  0  0  0  0  0
   15.5918    0.7500    0.0000 C   0  0  0  0  0  0  0  0  0  0  0  0
   16.8918    1.5000    0.0000 C   0  0  0  0  0  0  0  0  0  0  0  0
   16.8918    3.0000    0.0000 H   0  0  0  0  0  0  0  0  0  0  0  0
   18.1918    0.7500    0.0000 C   0  0  0  0  0  0  0  0  0  0  0  0
   19.4907    1.5002    0.0000 C   0  0  0  0  0  0  0  0  0  0  0  0
   20.7899    0.7504    0.0000 O   0  0  0  0  0  0  0  0  0  0  0  0
   19.4905    3.0002    0.0000 N   0  0  0  0  0  0  0  0  0  0  0  0
   20.7894    3.7504    0.0000 H   0  0  0  0  0  0  0  0  0  0  0  0
   18.1913    3.7500    0.0000 H   0  0  0  0  0  0  0  0  0  0  0  0
   14.2918    1.5000    0.0000 C   0  0  0  0  0  0  0  0  0  0  0  0
   12.9918    0.7500    0.0000 C   0  0  0  0  0  0  0  0  0  0  0  0
   11.6929    1.5002    0.0000 H   0  0  0  0  0  0  0  0  0  0  0  0
   12.9918   -0.7500    0.0000 C   0  0  0  0  0  0  0  0  0  0  0  0
   11.6929   -1.5002    0.0000 H   0  0  0  0  0  0  0  0  0  0  0  0
   14.2918   -1.5000    0.0000 N   0  0  0  0  0  0  0  0  0  0  0  0
   14.2918    3.0000    0.0000 O   0  0  0  0  0  0  0  0  0  0  0  0
   12.1614    4.2300    0.0000 C   0  0  0  0  0  0  0  0  0  0  0  0
   12.1612    5.7308    0.0000 C   0  0  0  0  0  0  0  0  0  0  0  0
   13.4603    6.4806    0.0000 H   0  0  0  0  0  0  0  0  0  0  0  0
   10.8618    6.4819    0.0000 C   0  0  0  0  0  0  0  0  0  0  0  0
    9.5626    5.7321    0.0000 C   0  0  0  0  0  0  0  0  0  0  0  0
    9.5628    4.2312    0.0000 C   0  0  0  0  0  0  0  0  0  0  0  0
    8.2637    3.4815    0.0000 H   0  0  0  0  0  0  0  0  0  0  0  0
   10.8622    3.4802    0.0000 C   0  0  0  0  0  0  0  0  0  0  0  0
   10.8618    1.9802    0.0000 O   0  0  0  0  0  0  0  0  0  0  0  0
    9.5625    1.2306    0.0000 H   0  0  0  0  0  0  0  0  0  0  0  0
    8.2636    6.4821    0.0000 N   0  0  0  0  0  0  0  0  0  0  0  0
    6.9645    5.7321    0.0000 H   0  0  0  0  0  0  0  0  0  0  0  0
    8.2636    7.9821    0.0000 C   0  0  0  0  0  0  0  0  0  0  0  0
    9.5626    8.7321    0.0000 O   0  0  0  0  0  0  0  0  0  0  0  0
    6.9645    8.7321    0.0000 N   0  0  0  0  0  0  0  0  0  0  0  0
    5.6655    7.9821    0.0000 H   0  0  0  0  0  0  0  0  0  0  0  0
    6.9645   10.2321    0.0000 C   0  0  0  0  0  0  0  0  0  0  0  0
    8.4418   10.4924    0.0000 H   0  0  0  0  0  0  0  0  0  0  0  0
    5.4865   10.4925    0.0000 C   0  0  0  0  0  0  0  0  0  0  0  0
    4.1877   11.2430    0.0000 H   0  0  0  0  0  0  0  0  0  0  0  0
    4.9733    9.0831    0.0000 H   0  0  0  0  0  0  0  0  0  0  0  0
    6.4518   11.6417    0.0000 C   0  0  0  0  0  0  0  0  0  0  0  0
    7.7511   12.3913    0.0000 H   0  0  0  0  0  0  0  0  0  0  0  0
    5.4881   12.7912    0.0000 H   0  0  0  0  0  0  0  0  0  0  0  0
   10.8622    7.9819    0.0000 Cl  0  0  0  0  0  0  0  0  0  0  0  0
  1  2  1  0  0  0  0 
  1  3  1  0  0  0  0 
  1  4  1  0  0  0  0 
  1  5  1  0  0  0  0 
  5  6  1  0  0  0  0 
  6  7  2  0  0  0  0 
  7  8  1  0  0  0  0 
  7  9  1  0  0  0  0 
  9 10  2  0  0  0  0 
 10 11  1  0  0  0  0 
 11 12  1  0  0  0  0 
 11 13  2  0  0  0  0 
  6 13  1  0  0  0  0 
 13 14  1  0  0  0  0 
 14 15  2  0  0  0  0 
 14 16  1  0  0  0  0 
 16 17  1  0  0  0  0 
 16 18  1  0  0  0  0 
 10 19  1  0  0  0  0 
 19 20  2  0  0  0  0 
 20 21  1  0  0  0  0 
 20 22  1  0  0  0  0 
 22 23  1  0  0  0  0 
 22 24  2  0  0  0  0 
  9 24  1  0  0  0  0 
 19 25  1  0  0  0  0 
 25 26  1  0  0  0  0 
 26 27  2  0  0  0  0 
 27 28  1  0  0  0  0 
 27 29  1  0  0  0  0 
 29 30  2  0  0  0  0 
 30 31  1  0  0  0  0 
 31 32  1  0  0  0  0 
 31 33  2  0  0  0  0 
 26 33  1  0  0  0  0 
 33 34  1  0  0  0  0 
 34 35  1  0  0  0  0 
 30 36  1  0  0  0  0 
 36 37  1  0  0  0  0 
 36 38  1  0  0  0  0 
 38 39  2  0  0  0  0 
 38 40  1  0  0  0  0 
 40 41  1  0  0  0  0 
 40 42  1  0  0  0  0 
 42 43  1  0  0  0  0 
 42 44  1  0  0  0  0 
 44 45  1  0  0  0  0 
 44 46  1  0  0  0  0 
 44 47  1  0  0  0  0 
 42 47  1  0  0  0  0 
 47 48  1  0  0  0  0 
 47 49  1  0  0  0  0 
 29 50  1  0  0  0  0 
M  END
> <Rank>
22

> <Priority_score>
0.056

> <Reaction_type>
aromatic_hydroxylation_(ortho_to_oxygen)

> <Parent_ID>
45

> <Parent_InChI>
InChI=1S/C21H19ClN4O4/c1-29-19-10-17-13(9-14(19)20(23)27)18(6-7-24-17)30-12-4-5-16(15(22)8-12)26-21(28)25-11-2-3-11/h4-11H,2-3H2,1H3,(H2,23,27)(H2,25,26,28)

> <Parent_SMILES>
COc1cc2nccc(Oc3ccc(NC(=O)NC4CC4)c(Cl)c3)c2cc1C(N)=O

$$$$
Molecule 45_metabolite 25
  CDK     0516241031

 38 40  0  0  0  0  0  0  0  0999 V2000
   -5.1981   -0.7504    0.0000 C   0  0  0  0  0  0  0  0  0  0  0  0
   -6.4970   -1.5006    0.0000 H   0  0  0  0  0  0  0  0  0  0  0  0
   -4.2341    0.3988    0.0000 H   0  0  0  0  0  0  0  0  0  0  0  0
   -6.1624    0.3985    0.0000 H   0  0  0  0  0  0  0  0  0  0  0  0
   -3.8989   -1.5002    0.0000 O   0  0  0  0  0  0  0  0  0  0  0  0
   -2.6000   -0.7500    0.0000 C   0  0  0  0  0  0  0  0  0  0  0  0
   -1.3000   -1.5000    0.0000 C   0  0  0  0  0  0  0  0  0  0  0  0
   -1.3000   -3.0000    0.0000 H   0  0  0  0  0  0  0  0  0  0  0  0
   -0.0000   -0.7500    0.0000 C   0  0  0  0  0  0  0  0  0  0  0  0
   -0.0000    0.7500    0.0000 C   0  0  0  0  0  0  0  0  0  0  0  0
   -1.3000    1.5000    0.0000 C   0  0  0  0  0  0  0  0  0  0  0  0
   -1.3000    3.0000    0.0000 H   0  0  0  0  0  0  0  0  0  0  0  0
   -2.6000    0.7500    0.0000 C   0  0  0  0  0  0  0  0  0  0  0  0
   -3.8989    1.5002    0.0000 C   0  0  0  0  0  0  0  0  0  0  0  0
   -5.1981    0.7504    0.0000 O   0  0  0  0  0  0  0  0  0  0  0  0
   -3.8987    3.0002    0.0000 N   0  0  0  0  0  0  0  0  0  0  0  0
   -5.1976    3.7504    0.0000 H   0  0  0  0  0  0  0  0  0  0  0  0
   -2.5995    3.7500    0.0000 H   0  0  0  0  0  0  0  0  0  0  0  0
    1.3000    1.5000    0.0000 C   0  0  0  0  0  0  0  0  0  0  0  0
    2.6000    0.7500    0.0000 C   0  0  0  0  0  0  0  0  0  0  0  0
    3.8989    1.5002    0.0000 H   0  0  0  0  0  0  0  0  0  0  0  0
    2.6000   -0.7500    0.0000 C   0  0  0  0  0  0  0  0  0  0  0  0
    3.8989   -1.5002    0.0000 H   0  0  0  0  0  0  0  0  0  0  0  0
    1.3000   -1.5000    0.0000 N   0  0  0  0  0  0  0  0  0  0  0  0
    1.3000    3.0000    0.0000 O   0  0  0  0  0  0  0  0  0  0  0  0
    3.4304    4.2300    0.0000 C   0  0  0  0  0  0  0  0  0  0  0  0
    3.4307    5.7308    0.0000 C   0  0  0  0  0  0  0  0  0  0  0  0
    2.1315    6.4806    0.0000 H   0  0  0  0  0  0  0  0  0  0  0  0
    4.7301    6.4819    0.0000 C   0  0  0  0  0  0  0  0  0  0  0  0
    4.7296    7.9819    0.0000 H   0  0  0  0  0  0  0  0  0  0  0  0
    6.0292    5.7321    0.0000 C   0  0  0  0  0  0  0  0  0  0  0  0
    6.0290    4.2312    0.0000 C   0  0  0  0  0  0  0  0  0  0  0  0
    4.7296    3.4802    0.0000 C   0  0  0  0  0  0  0  0  0  0  0  0
    4.7301    1.9802    0.0000 H   0  0  0  0  0  0  0  0  0  0  0  0
    7.3281    3.4815    0.0000 Cl  0  0  0  0  0  0  0  0  0  0  0  0
    7.3283    6.4821    0.0000 N   0  0  0  0  0  0  0  0  0  0  0  0
    7.3283    7.9821    0.0000 H   0  0  0  0  0  0  0  0  0  0  0  0
    8.6273    5.7321    0.0000 H   0  0  0  0  0  0  0  0  0  0  0  0
  1  2  1  0  0  0  0 
  1  3  1  0  0  0  0 
  1  4  1  0  0  0  0 
  1  5  1  0  0  0  0 
  5  6  1  0  0  0  0 
  6  7  2  0  0  0  0 
  7  8  1  0  0  0  0 
  7  9  1  0  0  0  0 
  9 10  2  0  0  0  0 
 10 11  1  0  0  0  0 
 11 12  1  0  0  0  0 
 11 13  2  0  0  0  0 
  6 13  1  0  0  0  0 
 13 14  1  0  0  0  0 
 14 15  2  0  0  0  0 
 14 16  1  0  0  0  0 
 16 17  1  0  0  0  0 
 16 18  1  0  0  0  0 
 10 19  1  0  0  0  0 
 19 20  2  0  0  0  0 
 20 21  1  0  0  0  0 
 20 22  1  0  0  0  0 
 22 23  1  0  0  0  0 
 22 24  2  0  0  0  0 
  9 24  1  0  0  0  0 
 19 25  1  0  0  0  0 
 25 26  1  0  0  0  0 
 26 27  2  0  0  0  0 
 27 28  1  0  0  0  0 
 27 29  1  0  0  0  0 
 29 30  1  0  0  0  0 
 29 31  2  0  0  0  0 
 31 32  1  0  0  0  0 
 32 33  2  0  0  0  0 
 26 33  1  0  0  0  0 
 33 34  1  0  0  0  0 
 32 35  1  0  0  0  0 
 31 36  1  0  0  0  0 
 36 37  1  0  0  0  0 
 36 38  1  0  0  0  0 
M  END
> <Rank>
25

> <Priority_score>
0.052

> <Reaction_type>
hydrolysis_(urea_or_carbonate)

> <Parent_ID>
45

> <Parent_InChI>
InChI=1S/C21H19ClN4O4/c1-29-19-10-17-13(9-14(19)20(23)27)18(6-7-24-17)30-12-4-5-16(15(22)8-12)26-21(28)25-11-2-3-11/h4-11H,2-3H2,1H3,(H2,23,27)(H2,25,26,28)

> <Parent_SMILES>
COc1cc2nccc(Oc3ccc(NC(=O)NC4CC4)c(Cl)c3)c2cc1C(N)=O

$$$$
Molecule 45_metabolite 26
  CDK     0516241031

 14 14  0  0  0  0  0  0  0  0999 V2000
    4.0247    1.1846    0.0000 C   0  0  0  0  0  0  0  0  0  0  0  0
    5.5019    1.4454    0.0000 H   0  0  0  0  0  0  0  0  0  0  0  0
    3.5116    2.5941    0.0000 H   0  0  0  0  0  0  0  0  0  0  0  0
    4.0252   -0.3162    0.0000 C   0  0  0  0  0  0  0  0  0  0  0  0
    3.5120   -1.7257    0.0000 H   0  0  0  0  0  0  0  0  0  0  0  0
    5.5025   -0.5766    0.0000 H   0  0  0  0  0  0  0  0  0  0  0  0
    2.7257    0.4346    0.0000 C   0  0  0  0  0  0  0  0  0  0  0  0
    1.7616    1.5838    0.0000 H   0  0  0  0  0  0  0  0  0  0  0  0
    1.7613   -0.7143    0.0000 N   0  0  0  0  0  0  0  0  0  0  0  0
    2.2740   -2.1239    0.0000 H   0  0  0  0  0  0  0  0  0  0  0  0
    0.2841   -0.4535    0.0000 C   0  0  0  0  0  0  0  0  0  0  0  0
   -0.2286    0.9562    0.0000 O   0  0  0  0  0  0  0  0  0  0  0  0
   -0.6803   -1.6023    0.0000 O   0  0  0  0  0  0  0  0  0  0  0  0
   -2.1575   -1.3416    0.0000 H   0  0  0  0  0  0  0  0  0  0  0  0
  1  2  1  0  0  0  0 
  1  3  1  0  0  0  0 
  1  4  1  0  0  0  0 
  4  5  1  0  0  0  0 
  4  6  1  0  0  0  0 
  4  7  1  0  0  0  0 
  1  7  1  0  0  0  0 
  7  8  1  0  0  0  0 
  7  9  1  0  0  0  0 
  9 10  1  0  0  0  0 
  9 11  1  0  0  0  0 
 11 12  2  0  0  0  0 
 11 13  1  0  0  0  0 
 13 14  1  0  0  0  0 
M  END
> <Rank>
25

> <Priority_score>
0.052

> <Reaction_type>
hydrolysis_(urea_or_carbonate)

> <Parent_ID>
45

> <Parent_InChI>
InChI=1S/C21H19ClN4O4/c1-29-19-10-17-13(9-14(19)20(23)27)18(6-7-24-17)30-12-4-5-16(15(22)8-12)26-21(28)25-11-2-3-11/h4-11H,2-3H2,1H3,(H2,23,27)(H2,25,26,28)

> <Parent_SMILES>
COc1cc2nccc(Oc3ccc(NC(=O)NC4CC4)c(Cl)c3)c2cc1C(N)=O

$$$$
Molecule 45_metabolite 27
  CDK     0516241031

 50 53  0  0  0  0  0  0  0  0999 V2000
   20.7899   -0.7504    0.0000 C   0  0  0  0  0  0  0  0  0  0  0  0
   22.0888   -1.5006    0.0000 H   0  0  0  0  0  0  0  0  0  0  0  0
   19.8259    0.3988    0.0000 H   0  0  0  0  0  0  0  0  0  0  0  0
   21.7543    0.3985    0.0000 H   0  0  0  0  0  0  0  0  0  0  0  0
   19.4907   -1.5002    0.0000 O   0  0  0  0  0  0  0  0  0  0  0  0
   18.1918   -0.7500    0.0000 C   0  0  0  0  0  0  0  0  0  0  0  0
   16.8918   -1.5000    0.0000 C   0  0  0  0  0  0  0  0  0  0  0  0
   16.8918   -3.0000    0.0000 H   0  0  0  0  0  0  0  0  0  0  0  0
   15.5918   -0.7500    0.0000 C   0  0  0  0  0  0  0  0  0  0  0  0
   15.5918    0.7500    0.0000 C   0  0  0  0  0  0  0  0  0  0  0  0
   16.8918    1.5000    0.0000 C   0  0  0  0  0  0  0  0  0  0  0  0
   16.8918    3.0000    0.0000 H   0  0  0  0  0  0  0  0  0  0  0  0
   18.1918    0.7500    0.0000 C   0  0  0  0  0  0  0  0  0  0  0  0
   19.4907    1.5002    0.0000 C   0  0  0  0  0  0  0  0  0  0  0  0
   20.7899    0.7504    0.0000 O   0  0  0  0  0  0  0  0  0  0  0  0
   19.4905    3.0002    0.0000 N   0  0  0  0  0  0  0  0  0  0  0  0
   20.7894    3.7504    0.0000 H   0  0  0  0  0  0  0  0  0  0  0  0
   18.1913    3.7500    0.0000 H   0  0  0  0  0  0  0  0  0  0  0  0
   14.2918    1.5000    0.0000 C   0  0  0  0  0  0  0  0  0  0  0  0
   12.9918    0.7500    0.0000 C   0  0  0  0  0  0  0  0  0  0  0  0
   11.6929    1.5002    0.0000 H   0  0  0  0  0  0  0  0  0  0  0  0
   12.9918   -0.7500    0.0000 C   0  0  0  0  0  0  0  0  0  0  0  0
   11.6929   -1.5002    0.0000 H   0  0  0  0  0  0  0  0  0  0  0  0
   14.2918   -1.5000    0.0000 N   0  0  0  0  0  0  0  0  0  0  0  0
   14.2918    3.0000    0.0000 O   0  0  0  0  0  0  0  0  0  0  0  0
   12.1614    4.2300    0.0000 C   0  0  0  0  0  0  0  0  0  0  0  0
   12.1612    5.7308    0.0000 C   0  0  0  0  0  0  0  0  0  0  0  0
   13.4603    6.4806    0.0000 H   0  0  0  0  0  0  0  0  0  0  0  0
   10.8618    6.4819    0.0000 C   0  0  0  0  0  0  0  0  0  0  0  0
   10.8622    7.9819    0.0000 H   0  0  0  0  0  0  0  0  0  0  0  0
    9.5626    5.7321    0.0000 C   0  0  0  0  0  0  0  0  0  0  0  0
    9.5628    4.2312    0.0000 C   0  0  0  0  0  0  0  0  0  0  0  0
   10.8622    3.4802    0.0000 C   0  0  0  0  0  0  0  0  0  0  0  0
   10.8618    1.9802    0.0000 H   0  0  0  0  0  0  0  0  0  0  0  0
    8.2637    3.4815    0.0000 Cl  0  0  0  0  0  0  0  0  0  0  0  0
    8.2636    6.4821    0.0000 N   0  0  0  0  0  0  0  0  0  0  0  0
    8.2636    7.9821    0.0000 C   0  0  0  0  0  0  0  0  0  0  0  0
    9.5626    8.7321    0.0000 O   0  0  0  0  0  0  0  0  0  0  0  0
    6.9645    8.7321    0.0000 N   0  0  0  0  0  0  0  0  0  0  0  0
    5.6655    7.9821    0.0000 H   0  0  0  0  0  0  0  0  0  0  0  0
    6.9645   10.2321    0.0000 C   0  0  0  0  0  0  0  0  0  0  0  0
    8.4418   10.4924    0.0000 H   0  0  0  0  0  0  0  0  0  0  0  0
    5.4865   10.4925    0.0000 C   0  0  0  0  0  0  0  0  0  0  0  0
    4.1877   11.2430    0.0000 H   0  0  0  0  0  0  0  0  0  0  0  0
    4.9733    9.0831    0.0000 H   0  0  0  0  0  0  0  0  0  0  0  0
    6.4518   11.6417    0.0000 C   0  0  0  0  0  0  0  0  0  0  0  0
    7.7511   12.3913    0.0000 H   0  0  0  0  0  0  0  0  0  0  0  0
    5.4881   12.7912    0.0000 H   0  0  0  0  0  0  0  0  0  0  0  0
    6.9645    5.7321    0.0000 O   0  0  0  0  0  0  0  0  0  0  0  0
    5.6655    6.4821    0.0000 H   0  0  0  0  0  0  0  0  0  0  0  0
  1  2  1  0  0  0  0 
  1  3  1  0  0  0  0 
  1  4  1  0  0  0  0 
  1  5  1  0  0  0  0 
  5  6  1  0  0  0  0 
  6  7  2  0  0  0  0 
  7  8  1  0  0  0  0 
  7  9  1  0  0  0  0 
  9 10  2  0  0  0  0 
 10 11  1  0  0  0  0 
 11 12  1  0  0  0  0 
 11 13  2  0  0  0  0 
  6 13  1  0  0  0  0 
 13 14  1  0  0  0  0 
 14 15  2  0  0  0  0 
 14 16  1  0  0  0  0 
 16 17  1  0  0  0  0 
 16 18  1  0  0  0  0 
 10 19  1  0  0  0  0 
 19 20  2  0  0  0  0 
 20 21  1  0  0  0  0 
 20 22  1  0  0  0  0 
 22 23  1  0  0  0  0 
 22 24  2  0  0  0  0 
  9 24  1  0  0  0  0 
 19 25  1  0  0  0  0 
 25 26  1  0  0  0  0 
 26 27  2  0  0  0  0 
 27 28  1  0  0  0  0 
 27 29  1  0  0  0  0 
 29 30  1  0  0  0  0 
 29 31  2  0  0  0  0 
 31 32  1  0  0  0  0 
 32 33  2  0  0  0  0 
 26 33  1  0  0  0  0 
 33 34  1  0  0  0  0 
 32 35  1  0  0  0  0 
 31 36  1  0  0  0  0 
 36 37  1  0  0  0  0 
 37 38  2  0  0  0  0 
 37 39  1  0  0  0  0 
 39 40  1  0  0  0  0 
 39 41  1  0  0  0  0 
 41 42  1  0  0  0  0 
 41 43  1  0  0  0  0 
 43 44  1  0  0  0  0 
 43 45  1  0  0  0  0 
 43 46  1  0  0  0  0 
 41 46  1  0  0  0  0 
 46 47  1  0  0  0  0 
 46 48  1  0  0  0  0 
 36 49  1  0  0  0  0 
 49 50  1  0  0  0  0 
M  END
> <Rank>
25

> <Priority_score>
0.052

> <Reaction_type>
amine hydroxylation

> <Parent_ID>
45

> <Parent_InChI>
InChI=1S/C21H19ClN4O4/c1-29-19-10-17-13(9-14(19)20(23)27)18(6-7-24-17)30-12-4-5-16(15(22)8-12)26-21(28)25-11-2-3-11/h4-11H,2-3H2,1H3,(H2,23,27)(H2,25,26,28)

> <Parent_SMILES>
COc1cc2nccc(Oc3ccc(NC(=O)NC4CC4)c(Cl)c3)c2cc1C(N)=O

$$$$
Molecule 45_metabolite 28
  CDK     0516241031

 47 50  0  0  0  0  0  0  0  0999 V2000
   -5.1981   -0.7504    0.0000 C   0  0  0  0  0  0  0  0  0  0  0  0
   -6.4970   -1.5006    0.0000 H   0  0  0  0  0  0  0  0  0  0  0  0
   -4.2341    0.3988    0.0000 H   0  0  0  0  0  0  0  0  0  0  0  0
   -6.1624    0.3985    0.0000 H   0  0  0  0  0  0  0  0  0  0  0  0
   -3.8989   -1.5002    0.0000 O   0  0  0  0  0  0  0  0  0  0  0  0
   -2.6000   -0.7500    0.0000 C   0  0  0  0  0  0  0  0  0  0  0  0
   -1.3000   -1.5000    0.0000 C   0  0  0  0  0  0  0  0  0  0  0  0
   -1.3000   -3.0000    0.0000 H   0  0  0  0  0  0  0  0  0  0  0  0
   -0.0000   -0.7500    0.0000 C   0  0  0  0  0  0  0  0  0  0  0  0
   -0.0000    0.7500    0.0000 C   0  0  0  0  0  0  0  0  0  0  0  0
   -1.3000    1.5000    0.0000 C   0  0  0  0  0  0  0  0  0  0  0  0
   -1.3000    3.0000    0.0000 H   0  0  0  0  0  0  0  0  0  0  0  0
   -2.6000    0.7500    0.0000 C   0  0  0  0  0  0  0  0  0  0  0  0
   -3.8989    1.5002    0.0000 C   0  0  0  0  0  0  0  0  0  0  0  0
   -5.1981    0.7504    0.0000 O   0  0  0  0  0  0  0  0  0  0  0  0
   -3.8987    3.0002    0.0000 N   0  0  0  0  0  0  0  0  0  0  0  0
   -5.1976    3.7504    0.0000 H   0  0  0  0  0  0  0  0  0  0  0  0
   -2.5995    3.7500    0.0000 H   0  0  0  0  0  0  0  0  0  0  0  0
    1.3000    1.5000    0.0000 C   0  0  0  0  0  0  0  0  0  0  0  0
    2.6000    0.7500    0.0000 C   0  0  0  0  0  0  0  0  0  0  0  0
    3.8989    1.5002    0.0000 H   0  0  0  0  0  0  0  0  0  0  0  0
    2.6000   -0.7500    0.0000 C   0  0  0  0  0  0  0  0  0  0  0  0
    3.8989   -1.5002    0.0000 H   0  0  0  0  0  0  0  0  0  0  0  0
    1.3000   -1.5000    0.0000 N   0  0  0  0  0  0  0  0  0  0  0  0
    1.3000    3.0000    0.0000 O   0  0  0  0  0  0  0  0  0  0  0  0
    3.4304    4.2300    0.0000 C   0  0  0  0  0  0  0  0  0  0  0  0
    3.4307    5.7308    0.0000 C   0  0  0  0  0  0  0  0  0  0  0  0
    2.1315    6.4806    0.0000 H   0  0  0  0  0  0  0  0  0  0  0  0
    4.7301    6.4819    0.0000 C   0  0  0  0  0  0  0  0  0  0  0  0
    4.7296    7.9819    0.0000 H   0  0  0  0  0  0  0  0  0  0  0  0
    6.0292    5.7321    0.0000 C   0  0  0  0  0  0  0  0  0  0  0  0
    6.0290    4.2312    0.0000 C   0  0  0  0  0  0  0  0  0  0  0  0
    4.7296    3.4802    0.0000 C   0  0  0  0  0  0  0  0  0  0  0  0
    4.7301    1.9802    0.0000 H   0  0  0  0  0  0  0  0  0  0  0  0
    7.3281    3.4815    0.0000 Cl  0  0  0  0  0  0  0  0  0  0  0  0
    7.3283    6.4821    0.0000 N   0  0  0  0  0  0  0  0  0  0  0  0
    8.6273    5.7321    0.0000 H   0  0  0  0  0  0  0  0  0  0  0  0
    7.3283    7.9821    0.0000 C   0  0  0  0  0  0  0  0  0  0  0  0
    6.0292    8.7321    0.0000 O   0  0  0  0  0  0  0  0  0  0  0  0
    8.6273    8.7321    0.0000 N   0  0  0  0  0  0  0  0  0  0  0  0
    8.6273   10.2321    0.0000 C   0  0  0  0  0  0  0  0  0  0  0  0
    7.8767   11.5317    0.0000 C   0  0  0  0  0  0  0  0  0  0  0  0
    7.6166   13.0090    0.0000 H   0  0  0  0  0  0  0  0  0  0  0  0
    6.4671   11.0188    0.0000 H   0  0  0  0  0  0  0  0  0  0  0  0
    9.3775   11.5310    0.0000 C   0  0  0  0  0  0  0  0  0  0  0  0
   10.7869   11.0176    0.0000 H   0  0  0  0  0  0  0  0  0  0  0  0
    9.6385   13.0081    0.0000 H   0  0  0  0  0  0  0  0  0  0  0  0
  1  2  1  0  0  0  0 
  1  3  1  0  0  0  0 
  1  4  1  0  0  0  0 
  1  5  1  0  0  0  0 
  5  6  1  0  0  0  0 
  6  7  2  0  0  0  0 
  7  8  1  0  0  0  0 
  7  9  1  0  0  0  0 
  9 10  2  0  0  0  0 
 10 11  1  0  0  0  0 
 11 12  1  0  0  0  0 
 11 13  2  0  0  0  0 
  6 13  1  0  0  0  0 
 13 14  1  0  0  0  0 
 14 15  2  0  0  0  0 
 14 16  1  0  0  0  0 
 16 17  1  0  0  0  0 
 16 18  1  0  0  0  0 
 10 19  1  0  0  0  0 
 19 20  2  0  0  0  0 
 20 21  1  0  0  0  0 
 20 22  1  0  0  0  0 
 22 23  1  0  0  0  0 
 22 24  2  0  0  0  0 
  9 24  1  0  0  0  0 
 19 25  1  0  0  0  0 
 25 26  1  0  0  0  0 
 26 27  2  0  0  0  0 
 27 28  1  0  0  0  0 
 27 29  1  0  0  0  0 
 29 30  1  0  0  0  0 
 29 31  2  0  0  0  0 
 31 32  1  0  0  0  0 
 32 33  2  0  0  0  0 
 26 33  1  0  0  0  0 
 33 34  1  0  0  0  0 
 32 35  1  0  0  0  0 
 31 36  1  0  0  0  0 
 36 37  1  0  0  0  0 
 36 38  1  0  0  0  0 
 38 39  2  0  0  0  0 
 38 40  1  4  0  0  0 
 40 41  2  0  0  0  0 
 41 42  1  0  0  0  0 
 42 43  1  0  0  0  0 
 42 44  1  0  0  0  0 
 42 45  1  0  0  0  0 
 41 45  1  0  0  0  0 
 45 46  1  0  0  0  0 
 45 47  1  0  0  0  0 
M  END
> <Rank>
28

> <Priority_score>
0.027200000000000002

> <Reaction_type>
dehydration of N-C bond

> <Parent_ID>
45

> <Parent_InChI>
InChI=1S/C21H19ClN4O4/c1-29-19-10-17-13(9-14(19)20(23)27)18(6-7-24-17)30-12-4-5-16(15(22)8-12)26-21(28)25-11-2-3-11/h4-11H,2-3H2,1H3,(H2,23,27)(H2,25,26,28)

> <Parent_SMILES>
COc1cc2nccc(Oc3ccc(NC(=O)NC4CC4)c(Cl)c3)c2cc1C(N)=O

$$$$
Molecule 45_metabolite 29
  CDK     0516241031

 48 51  0  0  0  0  0  0  0  0999 V2000
   -5.1981   -0.7504    0.0000 C   0  0  0  0  0  0  0  0  0  0  0  0
   -6.4970   -1.5006    0.0000 H   0  0  0  0  0  0  0  0  0  0  0  0
   -4.2341    0.3988    0.0000 H   0  0  0  0  0  0  0  0  0  0  0  0
   -6.1624    0.3985    0.0000 H   0  0  0  0  0  0  0  0  0  0  0  0
   -3.8989   -1.5002    0.0000 O   0  0  0  0  0  0  0  0  0  0  0  0
   -2.6000   -0.7500    0.0000 C   0  0  0  0  0  0  0  0  0  0  0  0
   -1.3000   -1.5000    0.0000 C   0  0  0  0  0  0  0  0  0  0  0  0
   -1.3000   -3.0000    0.0000 H   0  0  0  0  0  0  0  0  0  0  0  0
   -0.0000   -0.7500    0.0000 C   0  0  0  0  0  0  0  0  0  0  0  0
   -0.0000    0.7500    0.0000 C   0  0  0  0  0  0  0  0  0  0  0  0
   -1.3000    1.5000    0.0000 C   0  0  0  0  0  0  0  0  0  0  0  0
   -1.3000    3.0000    0.0000 H   0  0  0  0  0  0  0  0  0  0  0  0
   -2.6000    0.7500    0.0000 C   0  0  0  0  0  0  0  0  0  0  0  0
   -3.8989    1.5002    0.0000 C   0  0  0  0  0  0  0  0  0  0  0  0
   -5.1981    0.7504    0.0000 O   0  0  0  0  0  0  0  0  0  0  0  0
   -3.8987    3.0002    0.0000 N   0  0  0  0  0  0  0  0  0  0  0  0
   -5.1976    3.7504    0.0000 H   0  0  0  0  0  0  0  0  0  0  0  0
   -2.5995    3.7500    0.0000 H   0  0  0  0  0  0  0  0  0  0  0  0
    1.3000    1.5000    0.0000 C   0  0  0  0  0  0  0  0  0  0  0  0
    2.6000    0.7500    0.0000 C   0  0  0  0  0  0  0  0  0  0  0  0
    3.8989    1.5002    0.0000 H   0  0  0  0  0  0  0  0  0  0  0  0
    2.6000   -0.7500    0.0000 C   0  0  0  0  0  0  0  0  0  0  0  0
    3.8989   -1.5002    0.0000 H   0  0  0  0  0  0  0  0  0  0  0  0
    1.3000   -1.5000    0.0000 N   0  0  0  0  0  0  0  0  0  0  0  0
    1.3000    3.0000    0.0000 O   0  0  0  0  0  0  0  0  0  0  0  0
    3.4304    4.2300    0.0000 C   0  0  0  0  0  0  0  0  0  0  0  0
    3.4307    5.7308    0.0000 C   0  0  0  0  0  0  0  0  0  0  0  0
    2.1315    6.4806    0.0000 H   0  0  0  0  0  0  0  0  0  0  0  0
    4.7301    6.4819    0.0000 C   0  0  0  0  0  0  0  0  0  0  0  0
    4.7296    7.9819    0.0000 H   0  0  0  0  0  0  0  0  0  0  0  0
    6.0292    5.7321    0.0000 C   0  0  0  0  0  0  0  0  0  0  0  0
    6.0290    4.2312    0.0000 C   0  0  0  0  0  0  0  0  0  0  0  0
    4.7296    3.4802    0.0000 C   0  0  0  0  0  0  0  0  0  0  0  0
    4.7301    1.9802    0.0000 H   0  0  0  0  0  0  0  0  0  0  0  0
    7.3281    3.4815    0.0000 Cl  0  0  0  0  0  0  0  0  0  0  0  0
    7.3283    6.4821    0.0000 N   0  0  0  0  0  0  0  0  0  0  0  0
    8.6273    5.7321    0.0000 H   0  0  0  0  0  0  0  0  0  0  0  0
    7.3283    7.9821    0.0000 C   0  0  0  0  0  0  0  0  0  0  0  0
    6.0292    8.7321    0.0000 O   0  0  0  0  0  0  0  0  0  0  0  0
    8.6273    8.7321    0.0000 N   0  0  0  0  0  0  0  0  0  0  0  0
    9.9263    7.9821    0.0000 H   0  0  0  0  0  0  0  0  0  0  0  0
    8.6273   10.2321    0.0000 C   0  0  0  0  0  0  0  0  0  0  0  0
    7.8767   11.5317    0.0000 C   0  0  0  0  0  0  0  0  0  0  0  0
    7.6166   13.0090    0.0000 H   0  0  0  0  0  0  0  0  0  0  0  0
    6.4671   11.0188    0.0000 H   0  0  0  0  0  0  0  0  0  0  0  0
    9.3775   11.5310    0.0000 C   0  0  0  0  0  0  0  0  0  0  0  0
   10.7869   11.0176    0.0000 H   0  0  0  0  0  0  0  0  0  0  0  0
    9.6385   13.0081    0.0000 H   0  0  0  0  0  0  0  0  0  0  0  0
  1  2  1  0  0  0  0 
  1  3  1  0  0  0  0 
  1  4  1  0  0  0  0 
  1  5  1  0  0  0  0 
  5  6  1  0  0  0  0 
  6  7  2  0  0  0  0 
  7  8  1  0  0  0  0 
  7  9  1  0  0  0  0 
  9 10  2  0  0  0  0 
 10 11  1  0  0  0  0 
 11 12  1  0  0  0  0 
 11 13  2  0  0  0  0 
  6 13  1  0  0  0  0 
 13 14  1  0  0  0  0 
 14 15  2  0  0  0  0 
 14 16  1  0  0  0  0 
 16 17  1  0  0  0  0 
 16 18  1  0  0  0  0 
 10 19  1  0  0  0  0 
 19 20  2  0  0  0  0 
 20 21  1  0  0  0  0 
 20 22  1  0  0  0  0 
 22 23  1  0  0  0  0 
 22 24  2  0  0  0  0 
  9 24  1  0  0  0  0 
 19 25  1  0  0  0  0 
 25 26  1  0  0  0  0 
 26 27  2  0  0  0  0 
 27 28  1  0  0  0  0 
 27 29  1  0  0  0  0 
 29 30  1  0  0  0  0 
 29 31  2  0  0  0  0 
 31 32  1  0  0  0  0 
 32 33  2  0  0  0  0 
 26 33  1  0  0  0  0 
 33 34  1  0  0  0  0 
 32 35  1  0  0  0  0 
 31 36  1  0  0  0  0 
 36 37  1  0  0  0  0 
 36 38  1  0  0  0  0 
 38 39  2  0  0  0  0 
 38 40  1  0  0  0  0 
 40 41  1  4  0  0  0 
 40 42  2  0  0  0  0 
 42 43  1  0  0  0  0 
 43 44  1  0  0  0  0 
 43 45  1  0  0  0  0 
 43 46  1  0  0  0  0 
 42 46  1  0  0  0  0 
 46 47  1  0  0  0  0 
 46 48  1  0  0  0  0 
M  CHG  1  40   1
M  END
> <Rank>
28

> <Priority_score>
0.027200000000000002

> <Reaction_type>
dehydration of N-C bond

> <Parent_ID>
45

> <Parent_InChI>
InChI=1S/C21H19ClN4O4/c1-29-19-10-17-13(9-14(19)20(23)27)18(6-7-24-17)30-12-4-5-16(15(22)8-12)26-21(28)25-11-2-3-11/h4-11H,2-3H2,1H3,(H2,23,27)(H2,25,26,28)

> <Parent_SMILES>
COc1cc2nccc(Oc3ccc(NC(=O)NC4CC4)c(Cl)c3)c2cc1C(N)=O

$$$$
Molecule 45_metabolite 30
  CDK     0516241031

 47 50  0  0  0  0  0  0  0  0999 V2000
   -5.1981   -0.7504    0.0000 C   0  0  0  0  0  0  0  0  0  0  0  0
   -6.4970   -1.5006    0.0000 H   0  0  0  0  0  0  0  0  0  0  0  0
   -4.2341    0.3988    0.0000 H   0  0  0  0  0  0  0  0  0  0  0  0
   -6.1624    0.3985    0.0000 H   0  0  0  0  0  0  0  0  0  0  0  0
   -3.8989   -1.5002    0.0000 O   0  0  0  0  0  0  0  0  0  0  0  0
   -2.6000   -0.7500    0.0000 C   0  0  0  0  0  0  0  0  0  0  0  0
   -1.3000   -1.5000    0.0000 C   0  0  0  0  0  0  0  0  0  0  0  0
   -1.3000   -3.0000    0.0000 H   0  0  0  0  0  0  0  0  0  0  0  0
   -0.0000   -0.7500    0.0000 C   0  0  0  0  0  0  0  0  0  0  0  0
   -0.0000    0.7500    0.0000 C   0  0  0  0  0  0  0  0  0  0  0  0
   -1.3000    1.5000    0.0000 C   0  0  0  0  0  0  0  0  0  0  0  0
   -1.3000    3.0000    0.0000 H   0  0  0  0  0  0  0  0  0  0  0  0
   -2.6000    0.7500    0.0000 C   0  0  0  0  0  0  0  0  0  0  0  0
   -3.8989    1.5002    0.0000 C   0  0  0  0  0  0  0  0  0  0  0  0
   -5.1981    0.7504    0.0000 O   0  0  0  0  0  0  0  0  0  0  0  0
   -3.8987    3.0002    0.0000 N   0  0  0  0  0  0  0  0  0  0  0  0
   -5.1976    3.7504    0.0000 H   0  0  0  0  0  0  0  0  0  0  0  0
   -2.5995    3.7500    0.0000 H   0  0  0  0  0  0  0  0  0  0  0  0
    1.3000    1.5000    0.0000 C   0  0  0  0  0  0  0  0  0  0  0  0
    2.6000    0.7500    0.0000 C   0  0  0  0  0  0  0  0  0  0  0  0
    3.8989    1.5002    0.0000 H   0  0  0  0  0  0  0  0  0  0  0  0
    2.6000   -0.7500    0.0000 C   0  0  0  0  0  0  0  0  0  0  0  0
    3.8989   -1.5002    0.0000 H   0  0  0  0  0  0  0  0  0  0  0  0
    1.3000   -1.5000    0.0000 N   0  0  0  0  0  0  0  0  0  0  0  0
    1.3000    3.0000    0.0000 O   0  0  0  0  0  0  0  0  0  0  0  0
    3.4304    4.2300    0.0000 C   0  0  0  0  0  0  0  0  0  0  0  0
    3.4307    5.7308    0.0000 C   0  0  0  0  0  0  0  0  0  0  0  0
    2.1315    6.4806    0.0000 H   0  0  0  0  0  0  0  0  0  0  0  0
    4.7301    6.4819    0.0000 C   0  0  0  0  0  0  0  0  0  0  0  0
    4.7296    7.9819    0.0000 H   0  0  0  0  0  0  0  0  0  0  0  0
    6.0292    5.7321    0.0000 C   0  0  0  0  0  0  0  0  0  0  0  0
    6.0290    4.2312    0.0000 C   0  0  0  0  0  0  0  0  0  0  0  0
    4.7296    3.4802    0.0000 C   0  0  0  0  0  0  0  0  0  0  0  0
    4.7301    1.9802    0.0000 H   0  0  0  0  0  0  0  0  0  0  0  0
    7.3281    3.4815    0.0000 Cl  0  0  0  0  0  0  0  0  0  0  0  0
    7.3283    6.4821    0.0000 N   0  0  0  0  0  0  0  0  0  0  0  0
    8.6273    5.7321    0.0000 H   0  0  0  0  0  0  0  0  0  0  0  0
    7.3283    7.9821    0.0000 C   0  0  0  0  0  0  0  0  0  0  0  0
    6.0292    8.7321    0.0000 O   0  0  0  0  0  0  0  0  0  0  0  0
    8.6273    8.7321    0.0000 N   0  0  0  0  0  0  0  0  0  0  0  0
    9.9263    7.9821    0.0000 H   0  0  0  0  0  0  0  0  0  0  0  0
    8.6273   10.2321    0.0000 C   0  0  0  0  0  0  0  0  0  0  0  0
    7.8767   11.5317    0.0000 C   0  0  0  0  0  0  0  0  0  0  0  0
    6.5778   12.2819    0.0000 H   0  0  0  0  0  0  0  0  0  0  0  0
    9.3775   11.5310    0.0000 C   0  0  0  0  0  0  0  0  0  0  0  0
   10.7869   11.0176    0.0000 H   0  0  0  0  0  0  0  0  0  0  0  0
    9.6385   13.0081    0.0000 H   0  0  0  0  0  0  0  0  0  0  0  0
  1  2  1  0  0  0  0 
  1  3  1  0  0  0  0 
  1  4  1  0  0  0  0 
  1  5  1  0  0  0  0 
  5  6  1  0  0  0  0 
  6  7  2  0  0  0  0 
  7  8  1  0  0  0  0 
  7  9  1  0  0  0  0 
  9 10  2  0  0  0  0 
 10 11  1  0  0  0  0 
 11 12  1  0  0  0  0 
 11 13  2  0  0  0  0 
  6 13  1  0  0  0  0 
 13 14  1  0  0  0  0 
 14 15  2  0  0  0  0 
 14 16  1  0  0  0  0 
 16 17  1  0  0  0  0 
 16 18  1  0  0  0  0 
 10 19  1  0  0  0  0 
 19 20  2  0  0  0  0 
 20 21  1  0  0  0  0 
 20 22  1  0  0  0  0 
 22 23  1  0  0  0  0 
 22 24  2  0  0  0  0 
  9 24  1  0  0  0  0 
 19 25  1  0  0  0  0 
 25 26  1  0  0  0  0 
 26 27  2  0  0  0  0 
 27 28  1  0  0  0  0 
 27 29  1  0  0  0  0 
 29 30  1  0  0  0  0 
 29 31  2  0  0  0  0 
 31 32  1  0  0  0  0 
 32 33  2  0  0  0  0 
 26 33  1  0  0  0  0 
 33 34  1  0  0  0  0 
 32 35  1  0  0  0  0 
 31 36  1  0  0  0  0 
 36 37  1  0  0  0  0 
 36 38  1  0  0  0  0 
 38 39  2  0  0  0  0 
 38 40  1  0  0  0  0 
 40 41  1  0  0  0  0 
 40 42  1  0  0  0  0 
 42 43  2  0  0  0  0 
 43 44  1  0  0  0  0 
 43 45  1  0  0  0  0 
 42 45  1  0  0  0  0 
 45 46  1  0  0  0  0 
 45 47  1  0  0  0  0 
M  END
> <Rank>
28

> <Priority_score>
0.027200000000000002

> <Reaction_type>
alkyl dehydrogenation

> <Parent_ID>
45

> <Parent_InChI>
InChI=1S/C21H19ClN4O4/c1-29-19-10-17-13(9-14(19)20(23)27)18(6-7-24-17)30-12-4-5-16(15(22)8-12)26-21(28)25-11-2-3-11/h4-11H,2-3H2,1H3,(H2,23,27)(H2,25,26,28)

> <Parent_SMILES>
COc1cc2nccc(Oc3ccc(NC(=O)NC4CC4)c(Cl)c3)c2cc1C(N)=O

$$$$
Molecule 45_metabolite 31
  CDK     0516241031

 47 50  0  0  0  0  0  0  0  0999 V2000
   -5.1981   -0.7504    0.0000 C   0  0  0  0  0  0  0  0  0  0  0  0
   -6.4970   -1.5006    0.0000 H   0  0  0  0  0  0  0  0  0  0  0  0
   -4.2341    0.3988    0.0000 H   0  0  0  0  0  0  0  0  0  0  0  0
   -6.1624    0.3985    0.0000 H   0  0  0  0  0  0  0  0  0  0  0  0
   -3.8989   -1.5002    0.0000 O   0  0  0  0  0  0  0  0  0  0  0  0
   -2.6000   -0.7500    0.0000 C   0  0  0  0  0  0  0  0  0  0  0  0
   -1.3000   -1.5000    0.0000 C   0  0  0  0  0  0  0  0  0  0  0  0
   -1.3000   -3.0000    0.0000 H   0  0  0  0  0  0  0  0  0  0  0  0
   -0.0000   -0.7500    0.0000 C   0  0  0  0  0  0  0  0  0  0  0  0
   -0.0000    0.7500    0.0000 C   0  0  0  0  0  0  0  0  0  0  0  0
   -1.3000    1.5000    0.0000 C   0  0  0  0  0  0  0  0  0  0  0  0
   -1.3000    3.0000    0.0000 H   0  0  0  0  0  0  0  0  0  0  0  0
   -2.6000    0.7500    0.0000 C   0  0  0  0  0  0  0  0  0  0  0  0
   -3.8989    1.5002    0.0000 C   0  0  0  0  0  0  0  0  0  0  0  0
   -5.1981    0.7504    0.0000 O   0  0  0  0  0  0  0  0  0  0  0  0
   -3.8987    3.0002    0.0000 N   0  0  0  0  0  0  0  0  0  0  0  0
   -5.1976    3.7504    0.0000 H   0  0  0  0  0  0  0  0  0  0  0  0
   -2.5995    3.7500    0.0000 H   0  0  0  0  0  0  0  0  0  0  0  0
    1.3000    1.5000    0.0000 C   0  0  0  0  0  0  0  0  0  0  0  0
    2.6000    0.7500    0.0000 C   0  0  0  0  0  0  0  0  0  0  0  0
    3.8989    1.5002    0.0000 H   0  0  0  0  0  0  0  0  0  0  0  0
    2.6000   -0.7500    0.0000 C   0  0  0  0  0  0  0  0  0  0  0  0
    3.8989   -1.5002    0.0000 H   0  0  0  0  0  0  0  0  0  0  0  0
    1.3000   -1.5000    0.0000 N   0  0  0  0  0  0  0  0  0  0  0  0
    1.3000    3.0000    0.0000 O   0  0  0  0  0  0  0  0  0  0  0  0
    3.4304    4.2300    0.0000 C   0  0  0  0  0  0  0  0  0  0  0  0
    3.4307    5.7308    0.0000 C   0  0  0  0  0  0  0  0  0  0  0  0
    2.1315    6.4806    0.0000 H   0  0  0  0  0  0  0  0  0  0  0  0
    4.7301    6.4819    0.0000 C   0  0  0  0  0  0  0  0  0  0  0  0
    4.7296    7.9819    0.0000 H   0  0  0  0  0  0  0  0  0  0  0  0
    6.0292    5.7321    0.0000 C   0  0  0  0  0  0  0  0  0  0  0  0
    6.0290    4.2312    0.0000 C   0  0  0  0  0  0  0  0  0  0  0  0
    4.7296    3.4802    0.0000 C   0  0  0  0  0  0  0  0  0  0  0  0
    4.7301    1.9802    0.0000 H   0  0  0  0  0  0  0  0  0  0  0  0
    7.3281    3.4815    0.0000 Cl  0  0  0  0  0  0  0  0  0  0  0  0
    7.3283    6.4821    0.0000 N   0  0  0  0  0  0  0  0  0  0  0  0
    8.6273    5.7321    0.0000 H   0  0  0  0  0  0  0  0  0  0  0  0
    7.3283    7.9821    0.0000 C   0  0  0  0  0  0  0  0  0  0  0  0
    6.0292    8.7321    0.0000 O   0  0  0  0  0  0  0  0  0  0  0  0
    8.6273    8.7321    0.0000 N   0  0  0  0  0  0  0  0  0  0  0  0
    9.9263    7.9821    0.0000 H   0  0  0  0  0  0  0  0  0  0  0  0
    8.6273   10.2321    0.0000 C   0  0  0  0  0  0  0  0  0  0  0  0
   10.1045   10.4924    0.0000 H   0  0  0  0  0  0  0  0  0  0  0  0
    7.1492   10.4925    0.0000 C   0  0  0  0  0  0  0  0  0  0  0  0
    5.7396    9.9798    0.0000 H   0  0  0  0  0  0  0  0  0  0  0  0
    8.1146   11.6417    0.0000 C   0  0  0  0  0  0  0  0  0  0  0  0
    8.3756   13.1188    0.0000 H   0  0  0  0  0  0  0  0  0  0  0  0
  1  2  1  0  0  0  0 
  1  3  1  0  0  0  0 
  1  4  1  0  0  0  0 
  1  5  1  0  0  0  0 
  5  6  1  0  0  0  0 
  6  7  2  0  0  0  0 
  7  8  1  0  0  0  0 
  7  9  1  0  0  0  0 
  9 10  2  0  0  0  0 
 10 11  1  0  0  0  0 
 11 12  1  0  0  0  0 
 11 13  2  0  0  0  0 
  6 13  1  0  0  0  0 
 13 14  1  0  0  0  0 
 14 15  2  0  0  0  0 
 14 16  1  0  0  0  0 
 16 17  1  0  0  0  0 
 16 18  1  0  0  0  0 
 10 19  1  0  0  0  0 
 19 20  2  0  0  0  0 
 20 21  1  0  0  0  0 
 20 22  1  0  0  0  0 
 22 23  1  0  0  0  0 
 22 24  2  0  0  0  0 
  9 24  1  0  0  0  0 
 19 25  1  0  0  0  0 
 25 26  1  0  0  0  0 
 26 27  2  0  0  0  0 
 27 28  1  0  0  0  0 
 27 29  1  0  0  0  0 
 29 30  1  0  0  0  0 
 29 31  2  0  0  0  0 
 31 32  1  0  0  0  0 
 32 33  2  0  0  0  0 
 26 33  1  0  0  0  0 
 33 34  1  0  0  0  0 
 32 35  1  0  0  0  0 
 31 36  1  0  0  0  0 
 36 37  1  0  0  0  0 
 36 38  1  0  0  0  0 
 38 39  2  0  0  0  0 
 38 40  1  0  0  0  0 
 40 41  1  0  0  0  0 
 40 42  1  0  0  0  0 
 42 43  1  0  0  0  0 
 42 44  1  0  0  0  0 
 44 45  1  0  0  0  0 
 44 46  2  0  0  0  0 
 42 46  1  0  0  0  0 
 46 47  1  0  0  0  0 
M  END
> <Rank>
31

> <Priority_score>
0.0128

> <Reaction_type>
alkyl dehydrogenation

> <Parent_ID>
45

> <Parent_InChI>
InChI=1S/C21H19ClN4O4/c1-29-19-10-17-13(9-14(19)20(23)27)18(6-7-24-17)30-12-4-5-16(15(22)8-12)26-21(28)25-11-2-3-11/h4-11H,2-3H2,1H3,(H2,23,27)(H2,25,26,28)

> <Parent_SMILES>
COc1cc2nccc(Oc3ccc(NC(=O)NC4CC4)c(Cl)c3)c2cc1C(N)=O

$$$$
Molecule 45_metabolite 32
  CDK     0516241031

 26 27  0  0  0  0  0  0  0  0999 V2000
    8.6180    0.8426    0.0000 C   0  0  0  0  0  0  0  0  0  0  0  0
   10.0952    1.1034    0.0000 H   0  0  0  0  0  0  0  0  0  0  0  0
    8.1049    2.2521    0.0000 H   0  0  0  0  0  0  0  0  0  0  0  0
    8.6185   -0.6582    0.0000 C   0  0  0  0  0  0  0  0  0  0  0  0
    8.1053   -2.0677    0.0000 H   0  0  0  0  0  0  0  0  0  0  0  0
   10.0958   -0.9185    0.0000 H   0  0  0  0  0  0  0  0  0  0  0  0
    7.3190    0.0926    0.0000 C   0  0  0  0  0  0  0  0  0  0  0  0
    6.3549    1.2418    0.0000 H   0  0  0  0  0  0  0  0  0  0  0  0
    6.3546   -1.0562    0.0000 N   0  0  0  0  0  0  0  0  0  0  0  0
    6.8673   -2.4659    0.0000 H   0  0  0  0  0  0  0  0  0  0  0  0
    4.8774   -0.7954    0.0000 C   0  0  0  0  0  0  0  0  0  0  0  0
    4.3647    0.6142    0.0000 O   0  0  0  0  0  0  0  0  0  0  0  0
    3.9130   -1.9443    0.0000 N   0  0  0  0  0  0  0  0  0  0  0  0
    4.4257   -3.3540    0.0000 H   0  0  0  0  0  0  0  0  0  0  0  0
    2.4358   -1.6835    0.0000 C   0  0  0  0  0  0  0  0  0  0  0  0
    2.9490   -0.2740    0.0000 H   0  0  0  0  0  0  0  0  0  0  0  0
    2.4354   -3.1844    0.0000 C   0  0  0  0  0  0  0  0  0  0  0  0
    3.7344   -3.9344    0.0000 H   0  0  0  0  0  0  0  0  0  0  0  0
    1.1358   -3.9352    0.0000 C   0  0  0  0  0  0  0  0  0  0  0  0
    1.1361   -5.4352    0.0000 H   0  0  0  0  0  0  0  0  0  0  0  0
   -0.1632   -3.1852    0.0000 C   0  0  0  0  0  0  0  0  0  0  0  0
   -1.4624   -3.9350    0.0000 O   0  0  0  0  0  0  0  0  0  0  0  0
   -0.1627   -1.6844    0.0000 C   0  0  0  0  0  0  0  0  0  0  0  0
   -1.4618   -0.9344    0.0000 H   0  0  0  0  0  0  0  0  0  0  0  0
    1.1368   -0.9335    0.0000 C   0  0  0  0  0  0  0  0  0  0  0  0
    1.1366    0.5665    0.0000 Cl  0  0  0  0  0  0  0  0  0  0  0  0
  1  2  1  0  0  0  0 
  1  3  1  0  0  0  0 
  1  4  1  0  0  0  0 
  4  5  1  0  0  0  0 
  4  6  1  0  0  0  0 
  4  7  1  0  0  0  0 
  1  7  1  0  0  0  0 
  7  8  1  0  0  0  0 
  7  9  1  0  0  0  0 
  9 10  1  0  0  0  0 
  9 11  1  0  0  0  0 
 11 12  2  0  0  0  0 
 11 13  1  0  0  0  0 
 13 14  1  0  0  0  0 
 13 15  1  0  0  0  0 
 15 16  1  0  0  0  0 
 15 17  1  0  0  0  0 
 17 18  1  0  0  0  0 
 17 19  2  0  0  0  0 
 19 20  1  0  0  0  0 
 19 21  1  0  0  0  0 
 21 22  2  0  0  0  0 
 21 23  1  0  0  0  0 
 23 24  1  0  0  0  0 
 23 25  2  0  0  0  0 
 15 25  1  0  0  0  0 
 25 26  1  0  0  0  0 
M  END
> <Rank>
32

> <Priority_score>
0.011200000000000002

> <Reaction_type>
O-dearylation

> <Parent_ID>
45

> <Parent_InChI>
InChI=1S/C21H19ClN4O4/c1-29-19-10-17-13(9-14(19)20(23)27)18(6-7-24-17)30-12-4-5-16(15(22)8-12)26-21(28)25-11-2-3-11/h4-11H,2-3H2,1H3,(H2,23,27)(H2,25,26,28)

> <Parent_SMILES>
COc1cc2nccc(Oc3ccc(NC(=O)NC4CC4)c(Cl)c3)c2cc1C(N)=O

$$$$
Molecule 45_metabolite 33
  CDK     0516241031

 26 27  0  0  0  0  0  0  0  0999 V2000
   -5.1981   -0.7504    0.0000 C   0  0  0  0  0  0  0  0  0  0  0  0
   -6.4970   -1.5006    0.0000 H   0  0  0  0  0  0  0  0  0  0  0  0
   -4.2341    0.3988    0.0000 H   0  0  0  0  0  0  0  0  0  0  0  0
   -6.1624    0.3985    0.0000 H   0  0  0  0  0  0  0  0  0  0  0  0
   -3.8989   -1.5002    0.0000 O   0  0  0  0  0  0  0  0  0  0  0  0
   -2.6000   -0.7500    0.0000 C   0  0  0  0  0  0  0  0  0  0  0  0
   -1.3000   -1.5000    0.0000 C   0  0  0  0  0  0  0  0  0  0  0  0
   -1.3000   -3.0000    0.0000 H   0  0  0  0  0  0  0  0  0  0  0  0
   -0.0000   -0.7500    0.0000 C   0  0  0  0  0  0  0  0  0  0  0  0
   -0.0000    0.7500    0.0000 C   0  0  0  0  0  0  0  0  0  0  0  0
   -1.3000    1.5000    0.0000 C   0  0  0  0  0  0  0  0  0  0  0  0
   -1.3000    3.0000    0.0000 H   0  0  0  0  0  0  0  0  0  0  0  0
   -2.6000    0.7500    0.0000 C   0  0  0  0  0  0  0  0  0  0  0  0
   -3.8989    1.5002    0.0000 C   0  0  0  0  0  0  0  0  0  0  0  0
   -5.1981    0.7504    0.0000 O   0  0  0  0  0  0  0  0  0  0  0  0
   -3.8987    3.0002    0.0000 N   0  0  0  0  0  0  0  0  0  0  0  0
   -5.1976    3.7504    0.0000 H   0  0  0  0  0  0  0  0  0  0  0  0
   -2.5995    3.7500    0.0000 H   0  0  0  0  0  0  0  0  0  0  0  0
    1.3000    1.5000    0.0000 C   0  0  0  0  0  0  0  0  0  0  0  0
    2.6000    0.7500    0.0000 C   0  0  0  0  0  0  0  0  0  0  0  0
    3.8989    1.5002    0.0000 H   0  0  0  0  0  0  0  0  0  0  0  0
    2.6000   -0.7500    0.0000 C   0  0  0  0  0  0  0  0  0  0  0  0
    3.8989   -1.5002    0.0000 H   0  0  0  0  0  0  0  0  0  0  0  0
    1.3000   -1.5000    0.0000 N   0  0  0  0  0  0  0  0  0  0  0  0
    1.3000    3.0000    0.0000 O   0  0  0  0  0  0  0  0  0  0  0  0
    2.5990    3.7500    0.0000 H   0  0  0  0  0  0  0  0  0  0  0  0
  1  2  1  0  0  0  0 
  1  3  1  0  0  0  0 
  1  4  1  0  0  0  0 
  1  5  1  0  0  0  0 
  5  6  1  0  0  0  0 
  6  7  2  0  0  0  0 
  7  8  1  0  0  0  0 
  7  9  1  0  0  0  0 
  9 10  2  0  0  0  0 
 10 11  1  0  0  0  0 
 11 12  1  0  0  0  0 
 11 13  2  0  0  0  0 
  6 13  1  0  0  0  0 
 13 14  1  0  0  0  0 
 14 15  2  0  0  0  0 
 14 16  1  0  0  0  0 
 16 17  1  0  0  0  0 
 16 18  1  0  0  0  0 
 10 19  1  0  0  0  0 
 19 20  2  0  0  0  0 
 20 21  1  0  0  0  0 
 20 22  1  0  0  0  0 
 22 23  1  0  0  0  0 
 22 24  2  0  0  0  0 
  9 24  1  0  0  0  0 
 19 25  1  0  0  0  0 
 25 26  1  0  0  0  0 
M  END
> <Rank>
32

> <Priority_score>
0.011200000000000002

> <Reaction_type>
O-dearylation

> <Parent_ID>
45

> <Parent_InChI>
InChI=1S/C21H19ClN4O4/c1-29-19-10-17-13(9-14(19)20(23)27)18(6-7-24-17)30-12-4-5-16(15(22)8-12)26-21(28)25-11-2-3-11/h4-11H,2-3H2,1H3,(H2,23,27)(H2,25,26,28)

> <Parent_SMILES>
COc1cc2nccc(Oc3ccc(NC(=O)NC4CC4)c(Cl)c3)c2cc1C(N)=O

$$$$
Molecule 45_metabolite 34
  CDK     0516241031

 40 42  0  0  0  0  0  0  0  0999 V2000
   -5.1981   -0.7504    0.0000 C   0  0  0  0  0  0  0  0  0  0  0  0
   -6.4970   -1.5006    0.0000 H   0  0  0  0  0  0  0  0  0  0  0  0
   -4.2341    0.3988    0.0000 H   0  0  0  0  0  0  0  0  0  0  0  0
   -6.1624    0.3985    0.0000 H   0  0  0  0  0  0  0  0  0  0  0  0
   -3.8989   -1.5002    0.0000 O   0  0  0  0  0  0  0  0  0  0  0  0
   -2.6000   -0.7500    0.0000 C   0  0  0  0  0  0  0  0  0  0  0  0
   -1.3000   -1.5000    0.0000 C   0  0  0  0  0  0  0  0  0  0  0  0
   -1.3000   -3.0000    0.0000 H   0  0  0  0  0  0  0  0  0  0  0  0
   -0.0000   -0.7500    0.0000 C   0  0  0  0  0  0  0  0  0  0  0  0
   -0.0000    0.7500    0.0000 C   0  0  0  0  0  0  0  0  0  0  0  0
   -1.3000    1.5000    0.0000 C   0  0  0  0  0  0  0  0  0  0  0  0
   -1.3000    3.0000    0.0000 H   0  0  0  0  0  0  0  0  0  0  0  0
   -2.6000    0.7500    0.0000 C   0  0  0  0  0  0  0  0  0  0  0  0
   -3.8989    1.5002    0.0000 C   0  0  0  0  0  0  0  0  0  0  0  0
   -5.1981    0.7504    0.0000 O   0  0  0  0  0  0  0  0  0  0  0  0
   -3.8987    3.0002    0.0000 N   0  0  0  0  0  0  0  0  0  0  0  0
   -5.1976    3.7504    0.0000 H   0  0  0  0  0  0  0  0  0  0  0  0
   -2.5995    3.7500    0.0000 H   0  0  0  0  0  0  0  0  0  0  0  0
    1.3000    1.5000    0.0000 C   0  0  0  0  0  0  0  0  0  0  0  0
    2.6000    0.7500    0.0000 C   0  0  0  0  0  0  0  0  0  0  0  0
    3.8989    1.5002    0.0000 H   0  0  0  0  0  0  0  0  0  0  0  0
    2.6000   -0.7500    0.0000 C   0  0  0  0  0  0  0  0  0  0  0  0
    3.8989   -1.5002    0.0000 H   0  0  0  0  0  0  0  0  0  0  0  0
    1.3000   -1.5000    0.0000 N   0  0  0  0  0  0  0  0  0  0  0  0
    1.3000    3.0000    0.0000 O   0  0  0  0  0  0  0  0  0  0  0  0
    3.4304    4.2300    0.0000 C   0  0  0  0  0  0  0  0  0  0  0  0
    3.4307    5.7308    0.0000 C   0  0  0  0  0  0  0  0  0  0  0  0
    2.1315    6.4806    0.0000 H   0  0  0  0  0  0  0  0  0  0  0  0
    4.7301    6.4819    0.0000 C   0  0  0  0  0  0  0  0  0  0  0  0
    4.7296    7.9819    0.0000 H   0  0  0  0  0  0  0  0  0  0  0  0
    6.0292    5.7321    0.0000 C   0  0  0  0  0  0  0  0  0  0  0  0
    6.0290    4.2312    0.0000 C   0  0  0  0  0  0  0  0  0  0  0  0
    4.7296    3.4802    0.0000 C   0  0  0  0  0  0  0  0  0  0  0  0
    4.7301    1.9802    0.0000 H   0  0  0  0  0  0  0  0  0  0  0  0
    7.3281    3.4815    0.0000 Cl  0  0  0  0  0  0  0  0  0  0  0  0
    7.3283    6.4821    0.0000 N   0  0  0  0  0  0  0  0  0  0  0  0
    8.6273    5.7321    0.0000 H   0  0  0  0  0  0  0  0  0  0  0  0
    7.3283    7.9821    0.0000 C   0  0  0  0  0  0  0  0  0  0  0  0
    8.6273    8.7321    0.0000 H   0  0  0  0  0  0  0  0  0  0  0  0
    6.0292    8.7321    0.0000 O   0  0  0  0  0  0  0  0  0  0  0  0
  1  2  1  0  0  0  0 
  1  3  1  0  0  0  0 
  1  4  1  0  0  0  0 
  1  5  1  0  0  0  0 
  5  6  1  0  0  0  0 
  6  7  2  0  0  0  0 
  7  8  1  0  0  0  0 
  7  9  1  0  0  0  0 
  9 10  2  0  0  0  0 
 10 11  1  0  0  0  0 
 11 12  1  0  0  0  0 
 11 13  2  0  0  0  0 
  6 13  1  0  0  0  0 
 13 14  1  0  0  0  0 
 14 15  2  0  0  0  0 
 14 16  1  0  0  0  0 
 16 17  1  0  0  0  0 
 16 18  1  0  0  0  0 
 10 19  1  0  0  0  0 
 19 20  2  0  0  0  0 
 20 21  1  0  0  0  0 
 20 22  1  0  0  0  0 
 22 23  1  0  0  0  0 
 22 24  2  0  0  0  0 
  9 24  1  0  0  0  0 
 19 25  1  0  0  0  0 
 25 26  1  0  0  0  0 
 26 27  2  0  0  0  0 
 27 28  1  0  0  0  0 
 27 29  1  0  0  0  0 
 29 30  1  0  0  0  0 
 29 31  2  0  0  0  0 
 31 32  1  0  0  0  0 
 32 33  2  0  0  0  0 
 26 33  1  0  0  0  0 
 33 34  1  0  0  0  0 
 32 35  1  0  0  0  0 
 31 36  1  0  0  0  0 
 36 37  1  0  0  0  0 
 36 38  1  0  0  0  0 
 38 39  1  0  0  0  0 
 38 40  2  0  0  0  0 
M  END
> <Rank>
34

> <Priority_score>
0.0104

> <Reaction_type>
carbamide cleavage

> <Parent_ID>
45

> <Parent_InChI>
InChI=1S/C21H19ClN4O4/c1-29-19-10-17-13(9-14(19)20(23)27)18(6-7-24-17)30-12-4-5-16(15(22)8-12)26-21(28)25-11-2-3-11/h4-11H,2-3H2,1H3,(H2,23,27)(H2,25,26,28)

> <Parent_SMILES>
COc1cc2nccc(Oc3ccc(NC(=O)NC4CC4)c(Cl)c3)c2cc1C(N)=O

$$$$
Molecule 45_metabolite 35
  CDK     0516241031

 13 13  0  0  0  0  0  0  0  0999 V2000
    1.1117    1.7669    0.0000 C   0  0  0  0  0  0  0  0  0  0  0  0
    1.6244    3.1765    0.0000 H   0  0  0  0  0  0  0  0  0  0  0  0
   -0.3656    2.0272    0.0000 H   0  0  0  0  0  0  0  0  0  0  0  0
    2.4117    1.0169    0.0000 C   0  0  0  0  0  0  0  0  0  0  0  0
    3.3757   -0.1323    0.0000 H   0  0  0  0  0  0  0  0  0  0  0  0
    3.3757    2.1660    0.0000 H   0  0  0  0  0  0  0  0  0  0  0  0
    1.1117    0.2669    0.0000 C   0  0  0  0  0  0  0  0  0  0  0  0
   -0.3656    0.0065    0.0000 H   0  0  0  0  0  0  0  0  0  0  0  0
    1.6244   -1.1428    0.0000 N   0  0  0  0  0  0  0  0  0  0  0  0
    3.1015   -1.4036    0.0000 H   0  0  0  0  0  0  0  0  0  0  0  0
    0.6600   -2.2917    0.0000 C   0  0  0  0  0  0  0  0  0  0  0  0
    1.1727   -3.7013    0.0000 H   0  0  0  0  0  0  0  0  0  0  0  0
   -0.8172   -2.0309    0.0000 O   0  0  0  0  0  0  0  0  0  0  0  0
  1  2  1  0  0  0  0 
  1  3  1  0  0  0  0 
  1  4  1  0  0  0  0 
  4  5  1  0  0  0  0 
  4  6  1  0  0  0  0 
  4  7  1  0  0  0  0 
  1  7  1  0  0  0  0 
  7  8  1  0  0  0  0 
  7  9  1  0  0  0  0 
  9 10  1  0  0  0  0 
  9 11  1  0  0  0  0 
 11 12  1  0  0  0  0 
 11 13  2  0  0  0  0 
M  END
> <Rank>
34

> <Priority_score>
0.0104

> <Reaction_type>
carbamide cleavage

> <Parent_ID>
45

> <Parent_InChI>
InChI=1S/C21H19ClN4O4/c1-29-19-10-17-13(9-14(19)20(23)27)18(6-7-24-17)30-12-4-5-16(15(22)8-12)26-21(28)25-11-2-3-11/h4-11H,2-3H2,1H3,(H2,23,27)(H2,25,26,28)

> <Parent_SMILES>
COc1cc2nccc(Oc3ccc(NC(=O)NC4CC4)c(Cl)c3)c2cc1C(N)=O

$$$$
Molecule 45_metabolite 36
  CDK     0516241031

 50 53  0  0  0  0  0  0  0  0999 V2000
   20.7899   -0.7504    0.0000 C   0  0  0  0  0  0  0  0  0  0  0  0
   22.0888   -1.5006    0.0000 H   0  0  0  0  0  0  0  0  0  0  0  0
   19.8259    0.3988    0.0000 H   0  0  0  0  0  0  0  0  0  0  0  0
   21.7543    0.3985    0.0000 H   0  0  0  0  0  0  0  0  0  0  0  0
   19.4907   -1.5002    0.0000 O   0  0  0  0  0  0  0  0  0  0  0  0
   18.1918   -0.7500    0.0000 C   0  0  0  0  0  0  0  0  0  0  0  0
   16.8918   -1.5000    0.0000 C   0  0  0  0  0  0  0  0  0  0  0  0
   16.8918   -3.0000    0.0000 H   0  0  0  0  0  0  0  0  0  0  0  0
   15.5918   -0.7500    0.0000 C   0  0  0  0  0  0  0  0  0  0  0  0
   15.5918    0.7500    0.0000 C   0  0  0  0  0  0  0  0  0  0  0  0
   16.8918    1.5000    0.0000 C   0  0  0  0  0  0  0  0  0  0  0  0
   16.8918    3.0000    0.0000 H   0  0  0  0  0  0  0  0  0  0  0  0
   18.1918    0.7500    0.0000 C   0  0  0  0  0  0  0  0  0  0  0  0
   19.4907    1.5002    0.0000 C   0  0  0  0  0  0  0  0  0  0  0  0
   20.7899    0.7504    0.0000 O   0  0  0  0  0  0  0  0  0  0  0  0
   19.4905    3.0002    0.0000 N   0  0  0  0  0  0  0  0  0  0  0  0
   20.7894    3.7504    0.0000 H   0  0  0  0  0  0  0  0  0  0  0  0
   18.1913    3.7500    0.0000 H   0  0  0  0  0  0  0  0  0  0  0  0
   14.2918    1.5000    0.0000 C   0  0  0  0  0  0  0  0  0  0  0  0
   12.9918    0.7500    0.0000 C   0  0  0  0  0  0  0  0  0  0  0  0
   11.6929    1.5002    0.0000 H   0  0  0  0  0  0  0  0  0  0  0  0
   12.9918   -0.7500    0.0000 C   0  0  0  0  0  0  0  0  0  0  0  0
   11.6929   -1.5002    0.0000 H   0  0  0  0  0  0  0  0  0  0  0  0
   14.2918   -1.5000    0.0000 N   0  0  0  0  0  0  0  0  0  0  0  0
   14.2918    3.0000    0.0000 O   0  0  0  0  0  0  0  0  0  0  0  0
   12.1614    4.2300    0.0000 C   0  0  0  0  0  0  0  0  0  0  0  0
   12.1612    5.7308    0.0000 C   0  0  0  0  0  0  0  0  0  0  0  0
   13.4603    6.4806    0.0000 H   0  0  0  0  0  0  0  0  0  0  0  0
   10.8618    6.4819    0.0000 C   0  0  0  0  0  0  0  0  0  0  0  0
   10.8622    7.9819    0.0000 H   0  0  0  0  0  0  0  0  0  0  0  0
    9.5626    5.7321    0.0000 C   0  0  0  0  0  0  0  0  0  0  0  0
    9.5628    4.2312    0.0000 C   0  0  0  0  0  0  0  0  0  0  0  0
   10.8622    3.4802    0.0000 C   0  0  0  0  0  0  0  0  0  0  0  0
   10.8618    1.9802    0.0000 H   0  0  0  0  0  0  0  0  0  0  0  0
    8.2637    3.4815    0.0000 O   0  0  0  0  0  0  0  0  0  0  0  0
    6.9648    4.2317    0.0000 H   0  0  0  0  0  0  0  0  0  0  0  0
    8.2636    6.4821    0.0000 N   0  0  0  0  0  0  0  0  0  0  0  0
    6.9645    5.7321    0.0000 H   0  0  0  0  0  0  0  0  0  0  0  0
    8.2636    7.9821    0.0000 C   0  0  0  0  0  0  0  0  0  0  0  0
    9.5626    8.7321    0.0000 O   0  0  0  0  0  0  0  0  0  0  0  0
    6.9645    8.7321    0.0000 N   0  0  0  0  0  0  0  0  0  0  0  0
    5.6655    7.9821    0.0000 H   0  0  0  0  0  0  0  0  0  0  0  0
    6.9645   10.2321    0.0000 C   0  0  0  0  0  0  0  0  0  0  0  0
    8.4418   10.4924    0.0000 H   0  0  0  0  0  0  0  0  0  0  0  0
    5.4865   10.4925    0.0000 C   0  0  0  0  0  0  0  0  0  0  0  0
    4.1877   11.2430    0.0000 H   0  0  0  0  0  0  0  0  0  0  0  0
    4.9733    9.0831    0.0000 H   0  0  0  0  0  0  0  0  0  0  0  0
    6.4518   11.6417    0.0000 C   0  0  0  0  0  0  0  0  0  0  0  0
    7.7511   12.3913    0.0000 H   0  0  0  0  0  0  0  0  0  0  0  0
    5.4881   12.7912    0.0000 H   0  0  0  0  0  0  0  0  0  0  0  0
  1  2  1  0  0  0  0 
  1  3  1  0  0  0  0 
  1  4  1  0  0  0  0 
  1  5  1  0  0  0  0 
  5  6  1  0  0  0  0 
  6  7  2  0  0  0  0 
  7  8  1  0  0  0  0 
  7  9  1  0  0  0  0 
  9 10  2  0  0  0  0 
 10 11  1  0  0  0  0 
 11 12  1  0  0  0  0 
 11 13  2  0  0  0  0 
  6 13  1  0  0  0  0 
 13 14  1  0  0  0  0 
 14 15  2  0  0  0  0 
 14 16  1  0  0  0  0 
 16 17  1  0  0  0  0 
 16 18  1  0  0  0  0 
 10 19  1  0  0  0  0 
 19 20  2  0  0  0  0 
 20 21  1  0  0  0  0 
 20 22  1  0  0  0  0 
 22 23  1  0  0  0  0 
 22 24  2  0  0  0  0 
  9 24  1  0  0  0  0 
 19 25  1  0  0  0  0 
 25 26  1  0  0  0  0 
 26 27  2  0  0  0  0 
 27 28  1  0  0  0  0 
 27 29  1  0  0  0  0 
 29 30  1  0  0  0  0 
 29 31  2  0  0  0  0 
 31 32  1  0  0  0  0 
 32 33  2  0  0  0  0 
 26 33  1  0  0  0  0 
 33 34  1  0  0  0  0 
 32 35  1  0  0  0  0 
 35 36  1  0  0  0  0 
 31 37  1  0  0  0  0 
 37 38  1  0  0  0  0 
 37 39  1  0  0  0  0 
 39 40  2  0  0  0  0 
 39 41  1  0  0  0  0 
 41 42  1  0  0  0  0 
 41 43  1  0  0  0  0 
 43 44  1  0  0  0  0 
 43 45  1  0  0  0  0 
 45 46  1  0  0  0  0 
 45 47  1  0  0  0  0 
 45 48  1  0  0  0  0 
 43 48  1  0  0  0  0 
 48 49  1  0  0  0  0 
 48 50  1  0  0  0  0 
M  END
> <Rank>
36

> <Priority_score>
0.0064

> <Reaction_type>
oxidative dehalogenation benzyl

> <Parent_ID>
45

> <Parent_InChI>
InChI=1S/C21H19ClN4O4/c1-29-19-10-17-13(9-14(19)20(23)27)18(6-7-24-17)30-12-4-5-16(15(22)8-12)26-21(28)25-11-2-3-11/h4-11H,2-3H2,1H3,(H2,23,27)(H2,25,26,28)

> <Parent_SMILES>
COc1cc2nccc(Oc3ccc(NC(=O)NC4CC4)c(Cl)c3)c2cc1C(N)=O

$$$$
Molecule 46
  CDK     0516241031

 25 26  0  0  0  0  0  0  0  0999 V2000
    1.3390    6.0026    0.0000 C   0  0  0  0  0  0  0  0  0  0  0  0
    1.3316    4.5026    0.0000 C   0  0  0  0  0  0  0  0  0  0  0  0
    0.0289    3.7590    0.0000 C   0  0  0  0  0  0  0  0  0  0  0  0
   -1.2664    4.5154    0.0000 C   0  0  0  0  0  0  0  0  0  0  0  0
   -2.5654    3.7654    0.0000 C   0  0  0  0  0  0  0  0  0  0  0  0
   -3.8500    4.4902    0.0000 C   0  0  0  0  0  0  0  0  0  0  0  0
   -3.8754    6.0343    0.0000 C   0  0  0  0  0  0  0  0  0  0  0  0
   -2.5764    6.7843    0.0000 C   0  0  0  0  0  0  0  0  0  0  0  0
   -1.2519    5.9902    0.0000 C   0  0  0  0  0  0  0  0  0  0  0  0
   -5.1806    6.7736    0.0000 O   0  0  0  0  0  0  0  0  0  0  0  0
   -6.4734    6.0129    0.0000 C   0  0  0  0  0  0  0  0  0  0  0  0
    2.6270    3.7462    0.0000 N   0  0  0  0  0  0  0  0  0  0  0  0
    3.9297    4.4898    0.0000 C   0  0  0  0  0  0  0  0  0  0  0  0
    5.2250    3.7334    0.0000 C   0  0  0  0  0  0  0  0  0  0  0  0
    6.5277    4.4770    0.0000 C   0  0  0  0  0  0  0  0  0  0  0  0
    6.5298    5.9692    0.0000 C   0  0  0  0  0  0  0  0  0  0  0  0
    7.8276    6.7213    0.0000 C   0  0  0  0  0  0  0  0  0  0  0  0
    9.1579    6.0014    0.0000 C   0  0  0  0  0  0  0  0  0  0  0  0
    9.1413    4.4545    0.0000 C   0  0  0  0  0  0  0  0  0  0  0  0
    7.8435    3.7024    0.0000 C   0  0  0  0  0  0  0  0  0  0  0  0
   10.4370    3.6986    0.0000 N   0  0  0  0  0  0  0  0  0  0  0  0
   11.7394    4.4428    0.0000 C   0  0  0  0  0  0  0  0  0  0  0  0
   13.0350    3.6869    0.0000 O   0  0  0  0  0  0  0  0  0  0  0  0
   10.4506    6.7623    0.0000 O   0  0  0  0  0  0  0  0  0  0  0  0
    5.2176    2.2334    0.0000 O   0  0  0  0  0  0  0  0  0  0  0  0
  1  2  1  0  0  0  0 
  2  3  1  0  0  0  0 
  3  4  1  0  0  0  0 
  4  5  2  0  0  0  0 
  5  6  1  0  0  0  0 
  6  7  2  0  0  0  0 
  7  8  1  0  0  0  0 
  8  9  2  0  0  0  0 
  4  9  1  0  0  0  0 
  7 10  1  0  0  0  0 
 10 11  1  0  0  0  0 
  2 12  1  0  0  0  0 
 12 13  1  0  0  0  0 
 13 14  1  0  0  0  0 
 14 15  1  0  0  0  0 
 15 16  2  0  0  0  0 
 16 17  1  0  0  0  0 
 17 18  2  0  0  0  0 
 18 19  1  0  0  0  0 
 19 20  2  0  0  0  0 
 15 20  1  0  0  0  0 
 19 21  1  0  0  0  0 
 21 22  1  0  0  0  0 
 22 23  2  0  0  0  0 
 18 24  1  0  0  0  0 
 14 25  1  0  0  0  0 
M  END
> <SMILES>
COc1ccc(CC(C)NCC(O)c2ccc(O)c(NC=O)c2)cc1

$$$$
Molecule 46_metabolite 1
  CDK     0516241031

 53 54  0  0  0  0  0  0  0  0999 V2000
    4.4307    4.3742    0.0000 C   0  0  0  0  0  0  0  0  0  0  0  0
    3.2864    5.3440    0.0000 H   0  0  0  0  0  0  0  0  0  0  0  0
    3.2769    3.4157    0.0000 H   0  0  0  0  0  0  0  0  0  0  0  0
    5.1743    3.0715    0.0000 H   0  0  0  0  0  0  0  0  0  0  0  0
    5.8428    4.8803    0.0000 C   0  0  0  0  0  0  0  0  0  0  0  0
    6.0960    3.4018    0.0000 H   0  0  0  0  0  0  0  0  0  0  0  0
    7.3427    4.8729    0.0000 C   0  0  0  0  0  0  0  0  0  0  0  0
    8.7548    5.3790    0.0000 H   0  0  0  0  0  0  0  0  0  0  0  0
    7.0895    6.3514    0.0000 H   0  0  0  0  0  0  0  0  0  0  0  0
    8.0863    3.5702    0.0000 C   0  0  0  0  0  0  0  0  0  0  0  0
    9.5863    3.5702    0.0000 C   0  0  0  0  0  0  0  0  0  0  0  0
   10.3299    4.8729    0.0000 H   0  0  0  0  0  0  0  0  0  0  0  0
   10.3363    2.3002    0.0000 C   0  0  0  0  0  0  0  0  0  0  0  0
   11.8362    2.3199    0.0000 H   0  0  0  0  0  0  0  0  0  0  0  0
    9.5863    0.9502    0.0000 C   0  0  0  0  0  0  0  0  0  0  0  0
    8.0863    0.9502    0.0000 C   0  0  0  0  0  0  0  0  0  0  0  0
    7.3256   -0.3426    0.0000 H   0  0  0  0  0  0  0  0  0  0  0  0
    7.3363    2.3002    0.0000 C   0  0  0  0  0  0  0  0  0  0  0  0
    5.8365    2.3199    0.0000 H   0  0  0  0  0  0  0  0  0  0  0  0
   10.3470   -0.3426    0.0000 O   0  0  0  0  0  0  0  0  0  0  0  0
   11.8470   -0.3302    0.0000 C   0  0  0  0  0  0  0  0  0  0  0  0
   12.6077   -1.6230    0.0000 H   0  0  0  0  0  0  0  0  0  0  0  0
   13.2522    0.1944    0.0000 H   0  0  0  0  0  0  0  0  0  0  0  0
   11.5743    1.1448    0.0000 H   0  0  0  0  0  0  0  0  0  0  0  0
    5.0992    6.1830    0.0000 N   0  0  0  0  0  0  0  0  0  0  0  0
    5.8555    7.4783    0.0000 H   0  0  0  0  0  0  0  0  0  0  0  0
    3.1192    6.1927    0.0000 C   0  0  0  0  0  0  0  0  0  0  0  0
    1.7071    5.6867    0.0000 H   0  0  0  0  0  0  0  0  0  0  0  0
    2.5992    4.7857    0.0000 H   0  0  0  0  0  0  0  0  0  0  0  0
    2.3756    7.4955    0.0000 C   0  0  0  0  0  0  0  0  0  0  0  0
    3.7876    8.0015    0.0000 H   0  0  0  0  0  0  0  0  0  0  0  0
    0.8756    7.5028    0.0000 C   0  0  0  0  0  0  0  0  0  0  0  0
    0.1278    6.2116    0.0000 C   0  0  0  0  0  0  0  0  0  0  0  0
    0.8779    4.9127    0.0000 H   0  0  0  0  0  0  0  0  0  0  0  0
   -1.3722    6.2091    0.0000 C   0  0  0  0  0  0  0  0  0  0  0  0
   -2.1032    4.8993    0.0000 H   0  0  0  0  0  0  0  0  0  0  0  0
   -2.1644    7.4978    0.0000 C   0  0  0  0  0  0  0  0  0  0  0  0
   -1.3766    8.8291    0.0000 C   0  0  0  0  0  0  0  0  0  0  0  0
    0.1234    8.8316    0.0000 C   0  0  0  0  0  0  0  0  0  0  0  0
    0.8778   10.1281    0.0000 H   0  0  0  0  0  0  0  0  0  0  0  0
   -2.1207   10.1315    0.0000 N   0  0  0  0  0  0  0  0  0  0  0  0
   -3.6207   10.1383    0.0000 H   0  0  0  0  0  0  0  0  0  0  0  0
   -1.3648   11.4272    0.0000 C   0  0  0  0  0  0  0  0  0  0  0  0
   -2.1089   12.7296    0.0000 H   0  0  0  0  0  0  0  0  0  0  0  0
    0.1352   11.4204    0.0000 O   0  0  0  0  0  0  0  0  0  0  0  0
   -3.6643    7.4852    0.0000 O   0  0  0  0  0  0  0  0  0  0  0  0
   -4.4252    8.7779    0.0000 S   0  0  0  0  0  0  0  0  0  0  0  0
   -3.0201    9.3027    0.0000 O   0  0  0  0  0  0  0  0  0  0  0  0
   -4.6981   10.2528    0.0000 O   0  0  0  0  0  0  0  0  0  0  0  0
   -5.9252    8.7652    0.0000 O   0  0  0  0  0  0  0  0  0  0  0  0
   -6.6861   10.0579    0.0000 H   0  0  0  0  0  0  0  0  0  0  0  0
    2.1224    8.9739    0.0000 O   0  0  0  0  0  0  0  0  0  0  0  0
    3.2762    9.9325    0.0000 H   0  0  0  0  0  0  0  0  0  0  0  0
  1  2  1  0  0  0  0 
  1  3  1  0  0  0  0 
  1  4  1  0  0  0  0 
  1  5  1  0  0  0  0 
  5  6  1  0  0  0  0 
  5  7  1  0  0  0  0 
  7  8  1  0  0  0  0 
  7  9  1  0  0  0  0 
  7 10  1  0  0  0  0 
 10 11  2  0  0  0  0 
 11 12  1  0  0  0  0 
 11 13  1  0  0  0  0 
 13 14  1  0  0  0  0 
 13 15  2  0  0  0  0 
 15 16  1  0  0  0  0 
 16 17  1  0  0  0  0 
 16 18  2  0  0  0  0 
 10 18  1  0  0  0  0 
 18 19  1  0  0  0  0 
 15 20  1  0  0  0  0 
 20 21  1  0  0  0  0 
 21 22  1  0  0  0  0 
 21 23  1  0  0  0  0 
 21 24  1  0  0  0  0 
  5 25  1  0  0  0  0 
 25 26  1  0  0  0  0 
 25 27  1  0  0  0  0 
 27 28  1  0  0  0  0 
 27 29  1  0  0  0  0 
 27 30  1  0  0  0  0 
 30 31  1  0  0  0  0 
 30 32  1  0  0  0  0 
 32 33  2  0  0  0  0 
 33 34  1  0  0  0  0 
 33 35  1  0  0  0  0 
 35 36  1  0  0  0  0 
 35 37  2  0  0  0  0 
 37 38  1  0  0  0  0 
 38 39  2  0  0  0  0 
 32 39  1  0  0  0  0 
 39 40  1  0  0  0  0 
 38 41  1  0  0  0  0 
 41 42  1  0  0  0  0 
 41 43  1  0  0  0  0 
 43 44  1  0  0  0  0 
 43 45  2  0  0  0  0 
 37 46  1  0  0  0  0 
 46 47  1  0  0  0  0 
 47 48  2  0  0  0  0 
 47 49  2  0  0  0  0 
 47 50  1  0  0  0  0 
 50 51  1  0  0  0  0 
 30 52  1  0  0  0  0 
 52 53  1  0  0  0  0 
M  END
> <Rank>
1

> <Priority_score>
0.952

> <Reaction_type>
sulfation_(aromatic_hydroxyl)

> <Parent_ID>
46

> <Parent_InChI>
InChI=1S/C19H24N2O4/c1-13(9-14-3-6-16(25-2)7-4-14)20-11-19(24)15-5-8-18(23)17(10-15)21-12-22/h3-8,10,12-13,19-20,23-24H,9,11H2,1-2H3,(H,21,22)

> <Parent_SMILES>
COc1ccc(CC(C)NCC(O)c2ccc(O)c(NC=O)c2)cc1

$$$$
Molecule 46_metabolite 2
  CDK     0516241031

 69 71  0  0  0  0  0  0  0  0999 V2000
    5.0871    1.1122    0.0000 C   0  0  0  0  0  0  0  0  0  0  0  0
    4.1356    2.2719    0.0000 H   0  0  0  0  0  0  0  0  0  0  0  0
    6.3778    0.3479    0.0000 H   0  0  0  0  0  0  0  0  0  0  0  0
    6.0639    2.2506    0.0000 H   0  0  0  0  0  0  0  0  0  0  0  0
    4.5585   -0.2916    0.0000 C   0  0  0  0  0  0  0  0  0  0  0  0
    3.2679    0.4727    0.0000 H   0  0  0  0  0  0  0  0  0  0  0  0
    3.5817   -1.4299    0.0000 C   0  0  0  0  0  0  0  0  0  0  0  0
    3.0532   -2.8337    0.0000 H   0  0  0  0  0  0  0  0  0  0  0  0
    4.8724   -2.1942    0.0000 H   0  0  0  0  0  0  0  0  0  0  0  0
    2.1075   -1.1532    0.0000 C   0  0  0  0  0  0  0  0  0  0  0  0
    1.1363   -2.2963    0.0000 C   0  0  0  0  0  0  0  0  0  0  0  0
    1.6476   -3.7065    0.0000 H   0  0  0  0  0  0  0  0  0  0  0  0
   -0.3172   -2.0456    0.0000 C   0  0  0  0  0  0  0  0  0  0  0  0
   -1.2732   -3.2015    0.0000 H   0  0  0  0  0  0  0  0  0  0  0  0
   -0.8604   -0.6000    0.0000 C   0  0  0  0  0  0  0  0  0  0  0  0
    0.1108    0.5432    0.0000 C   0  0  0  0  0  0  0  0  0  0  0  0
   -0.3820    1.9599    0.0000 H   0  0  0  0  0  0  0  0  0  0  0  0
    1.6252    0.2407    0.0000 C   0  0  0  0  0  0  0  0  0  0  0  0
    2.6114    1.3709    0.0000 H   0  0  0  0  0  0  0  0  0  0  0  0
   -2.3382   -0.3427    0.0000 O   0  0  0  0  0  0  0  0  0  0  0  0
   -3.2999   -1.4938    0.0000 C   0  0  0  0  0  0  0  0  0  0  0  0
   -4.7777   -1.2365    0.0000 H   0  0  0  0  0  0  0  0  0  0  0  0
   -3.8099   -2.9044    0.0000 H   0  0  0  0  0  0  0  0  0  0  0  0
   -1.9993   -2.2410    0.0000 H   0  0  0  0  0  0  0  0  0  0  0  0
    6.5045   -0.6569    0.0000 N   0  0  0  0  0  0  0  0  0  0  0  0
    7.0020   -2.0720    0.0000 H   0  0  0  0  0  0  0  0  0  0  0  0
    7.4813    0.4815    0.0000 C   0  0  0  0  0  0  0  0  0  0  0  0
    8.0099    1.8853    0.0000 H   0  0  0  0  0  0  0  0  0  0  0  0
    6.1907    1.2458    0.0000 H   0  0  0  0  0  0  0  0  0  0  0  0
    8.9556    0.2047    0.0000 C   0  0  0  0  0  0  0  0  0  0  0  0
    8.4270   -1.1991    0.0000 H   0  0  0  0  0  0  0  0  0  0  0  0
    9.9324    1.3431    0.0000 C   0  0  0  0  0  0  0  0  0  0  0  0
    9.4325    2.7490    0.0000 C   0  0  0  0  0  0  0  0  0  0  0  0
    7.9569    3.0183    0.0000 H   0  0  0  0  0  0  0  0  0  0  0  0
   10.4018    3.8938    0.0000 C   0  0  0  0  0  0  0  0  0  0  0  0
    9.8768    5.2989    0.0000 H   0  0  0  0  0  0  0  0  0  0  0  0
   11.8968    3.6631    0.0000 C   0  0  0  0  0  0  0  0  0  0  0  0
   12.4013    2.2008    0.0000 C   0  0  0  0  0  0  0  0  0  0  0  0
   11.4321    1.0560    0.0000 C   0  0  0  0  0  0  0  0  0  0  0  0
   11.9316   -0.3583    0.0000 H   0  0  0  0  0  0  0  0  0  0  0  0
   13.8757    1.9246    0.0000 N   0  0  0  0  0  0  0  0  0  0  0  0
   14.8521    3.0633    0.0000 H   0  0  0  0  0  0  0  0  0  0  0  0
   14.3737    0.5097    0.0000 C   0  0  0  0  0  0  0  0  0  0  0  0
   15.8481    0.2335    0.0000 H   0  0  0  0  0  0  0  0  0  0  0  0
   13.3973   -0.6291    0.0000 O   0  0  0  0  0  0  0  0  0  0  0  0
   12.8583    4.8144    0.0000 O   0  0  0  0  0  0  0  0  0  0  0  0
   14.3362    4.5573    0.0000 C   0  0  0  0  0  0  0  0  0  0  0  0
   13.8296    3.1454    0.0000 H   0  0  0  0  0  0  0  0  0  0  0  0
   14.3362    6.0473    0.0000 C   0  0  0  0  0  0  0  0  0  0  0  0
   13.8242    7.4573    0.0000 H   0  0  0  0  0  0  0  0  0  0  0  0
   15.6562    6.8073    0.0000 C   0  0  0  0  0  0  0  0  0  0  0  0
   16.6249    7.9525    0.0000 H   0  0  0  0  0  0  0  0  0  0  0  0
   16.9562    6.0473    0.0000 C   0  0  0  0  0  0  0  0  0  0  0  0
   18.4329    5.7842    0.0000 H   0  0  0  0  0  0  0  0  0  0  0  0
   16.9562    4.5573    0.0000 C   0  0  0  0  0  0  0  0  0  0  0  0
   17.4689    3.1477    0.0000 H   0  0  0  0  0  0  0  0  0  0  0  0
   18.9061    4.9009    0.0000 C   0  0  0  0  0  0  0  0  0  0  0  0
   19.8702    3.7518    0.0000 O   0  0  0  0  0  0  0  0  0  0  0  0
   19.4193    6.3104    0.0000 O   0  0  0  0  0  0  0  0  0  0  0  0
   20.8965    6.5707    0.0000 H   0  0  0  0  0  0  0  0  0  0  0  0
   15.6562    3.8073    0.0000 O   0  0  0  0  0  0  0  0  0  0  0  0
   17.4743    7.4550    0.0000 O   0  0  0  0  0  0  0  0  0  0  0  0
   18.9524    7.7101    0.0000 H   0  0  0  0  0  0  0  0  0  0  0  0
   14.6950    7.9589    0.0000 O   0  0  0  0  0  0  0  0  0  0  0  0
   15.2117    9.3671    0.0000 H   0  0  0  0  0  0  0  0  0  0  0  0
   12.8588    5.7874    0.0000 O   0  0  0  0  0  0  0  0  0  0  0  0
   11.8951    6.9369    0.0000 H   0  0  0  0  0  0  0  0  0  0  0  0
   10.2463   -0.5596    0.0000 O   0  0  0  0  0  0  0  0  0  0  0  0
   10.2297   -2.0595    0.0000 H   0  0  0  0  0  0  0  0  0  0  0  0
  1  2  1  0  0  0  0 
  1  3  1  0  0  0  0 
  1  4  1  0  0  0  0 
  1  5  1  0  0  0  0 
  5  6  1  0  0  0  0 
  5  7  1  0  0  0  0 
  7  8  1  0  0  0  0 
  7  9  1  0  0  0  0 
  7 10  1  0  0  0  0 
 10 11  2  0  0  0  0 
 11 12  1  0  0  0  0 
 11 13  1  0  0  0  0 
 13 14  1  0  0  0  0 
 13 15  2  0  0  0  0 
 15 16  1  0  0  0  0 
 16 17  1  0  0  0  0 
 16 18  2  0  0  0  0 
 10 18  1  0  0  0  0 
 18 19  1  0  0  0  0 
 15 20  1  0  0  0  0 
 20 21  1  0  0  0  0 
 21 22  1  0  0  0  0 
 21 23  1  0  0  0  0 
 21 24  1  0  0  0  0 
  5 25  1  0  0  0  0 
 25 26  1  0  0  0  0 
 25 27  1  0  0  0  0 
 27 28  1  0  0  0  0 
 27 29  1  0  0  0  0 
 27 30  1  0  0  0  0 
 30 31  1  0  0  0  0 
 30 32  1  0  0  0  0 
 32 33  2  0  0  0  0 
 33 34  1  0  0  0  0 
 33 35  1  0  0  0  0 
 35 36  1  0  0  0  0 
 35 37  2  0  0  0  0 
 37 38  1  0  0  0  0 
 38 39  2  0  0  0  0 
 32 39  1  0  0  0  0 
 39 40  1  0  0  0  0 
 38 41  1  0  0  0  0 
 41 42  1  0  0  0  0 
 41 43  1  0  0  0  0 
 43 44  1  0  0  0  0 
 43 45  2  0  0  0  0 
 37 46  1  0  0  0  0 
 46 47  1  0  0  0  0 
 47 48  1  0  0  0  0 
 47 49  1  0  0  0  0 
 49 50  1  0  0  0  0 
 49 51  1  0  0  0  0 
 51 52  1  0  0  0  0 
 51 53  1  0  0  0  0 
 53 54  1  0  0  0  0 
 53 55  1  0  0  0  0 
 55 56  1  0  0  0  0 
 55 57  1  0  0  0  0 
 57 58  2  0  0  0  0 
 57 59  1  0  0  0  0 
 59 60  1  0  0  0  0 
 55 61  1  0  0  0  0 
 47 61  1  0  0  0  0 
 53 62  1  0  0  0  0 
 62 63  1  0  0  0  0 
 51 64  1  0  0  0  0 
 64 65  1  0  0  0  0 
 49 66  1  0  0  0  0 
 66 67  1  0  0  0  0 
 30 68  1  0  0  0  0 
 68 69  1  0  0  0  0 
M  END
> <Rank>
2

> <Priority_score>
0.8917594493963669

> <Reaction_type>
O-glucuronidation_(aromatic_hydroxyl)

> <Parent_ID>
46

> <Parent_InChI>
InChI=1S/C19H24N2O4/c1-13(9-14-3-6-16(25-2)7-4-14)20-11-19(24)15-5-8-18(23)17(10-15)21-12-22/h3-8,10,12-13,19-20,23-24H,9,11H2,1-2H3,(H,21,22)

> <Parent_SMILES>
COc1ccc(CC(C)NCC(O)c2ccc(O)c(NC=O)c2)cc1

$$$$
Molecule 46_metabolite 3
  CDK     0516241031

 69 71  0  0  0  0  0  0  0  0999 V2000
    6.9365    0.8030    0.0000 C   0  0  0  0  0  0  0  0  0  0  0  0
    7.4463    2.2137    0.0000 H   0  0  0  0  0  0  0  0  0  0  0  0
    6.9400   -0.6970    0.0000 H   0  0  0  0  0  0  0  0  0  0  0  0
    8.4143    0.5459    0.0000 H   0  0  0  0  0  0  0  0  0  0  0  0
    5.4599    0.5391    0.0000 C   0  0  0  0  0  0  0  0  0  0  0  0
    5.4564    2.0391    0.0000 H   0  0  0  0  0  0  0  0  0  0  0  0
    3.9821    0.7962    0.0000 C   0  0  0  0  0  0  0  0  0  0  0  0
    2.5055    0.5323    0.0000 H   0  0  0  0  0  0  0  0  0  0  0  0
    3.9855   -0.7038    0.0000 H   0  0  0  0  0  0  0  0  0  0  0  0
    3.4658    2.2045    0.0000 C   0  0  0  0  0  0  0  0  0  0  0  0
    1.9868    2.4543    0.0000 C   0  0  0  0  0  0  0  0  0  0  0  0
    1.0366    1.2936    0.0000 H   0  0  0  0  0  0  0  0  0  0  0  0
    1.4587    3.8315    0.0000 C   0  0  0  0  0  0  0  0  0  0  0  0
   -0.0235    4.0618    0.0000 H   0  0  0  0  0  0  0  0  0  0  0  0
    2.4231    5.0377    0.0000 C   0  0  0  0  0  0  0  0  0  0  0  0
    3.9021    4.7879    0.0000 C   0  0  0  0  0  0  0  0  0  0  0  0
    4.8675    5.9360    0.0000 H   0  0  0  0  0  0  0  0  0  0  0  0
    4.4168    3.3319    0.0000 C   0  0  0  0  0  0  0  0  0  0  0  0
    5.8925    3.0626    0.0000 H   0  0  0  0  0  0  0  0  0  0  0  0
    1.8883    6.4392    0.0000 O   0  0  0  0  0  0  0  0  0  0  0  0
    0.4072    6.6767    0.0000 C   0  0  0  0  0  0  0  0  0  0  0  0
   -0.1275    8.0782    0.0000 H   0  0  0  0  0  0  0  0  0  0  0  0
   -1.0658    6.3935    0.0000 H   0  0  0  0  0  0  0  0  0  0  0  0
    0.4304    5.1769    0.0000 H   0  0  0  0  0  0  0  0  0  0  0  0
    6.1414   -1.3199    0.0000 N   0  0  0  0  0  0  0  0  0  0  0  0
    5.1798   -2.4712    0.0000 H   0  0  0  0  0  0  0  0  0  0  0  0
    7.6192   -1.5770    0.0000 C   0  0  0  0  0  0  0  0  0  0  0  0
    9.0958   -1.3131    0.0000 H   0  0  0  0  0  0  0  0  0  0  0  0
    7.6157   -0.0770    0.0000 H   0  0  0  0  0  0  0  0  0  0  0  0
    8.3007   -3.4360    0.0000 C   0  0  0  0  0  0  0  0  0  0  0  0
    6.8241   -3.6999    0.0000 H   0  0  0  0  0  0  0  0  0  0  0  0
    8.3041   -4.9360    0.0000 C   0  0  0  0  0  0  0  0  0  0  0  0
    9.6007   -5.6745    0.0000 C   0  0  0  0  0  0  0  0  0  0  0  0
   10.8942   -4.9150    0.0000 H   0  0  0  0  0  0  0  0  0  0  0  0
    9.6141   -7.1745    0.0000 C   0  0  0  0  0  0  0  0  0  0  0  0
   10.9292   -7.8959    0.0000 H   0  0  0  0  0  0  0  0  0  0  0  0
    8.3311   -7.9759    0.0000 C   0  0  0  0  0  0  0  0  0  0  0  0
    6.9942   -7.1978    0.0000 C   0  0  0  0  0  0  0  0  0  0  0  0
    6.9808   -5.6978    0.0000 C   0  0  0  0  0  0  0  0  0  0  0  0
    5.6789   -4.9528    0.0000 H   0  0  0  0  0  0  0  0  0  0  0  0
    5.6971   -7.9513    0.0000 N   0  0  0  0  0  0  0  0  0  0  0  0
    4.3961   -7.2048    0.0000 H   0  0  0  0  0  0  0  0  0  0  0  0
    5.7012   -9.4512    0.0000 C   0  0  0  0  0  0  0  0  0  0  0  0
    4.4042  -10.2047    0.0000 H   0  0  0  0  0  0  0  0  0  0  0  0
    7.0022  -10.1977    0.0000 O   0  0  0  0  0  0  0  0  0  0  0  0
    8.3546   -9.4757    0.0000 O   0  0  0  0  0  0  0  0  0  0  0  0
    9.6652  -10.2053    0.0000 H   0  0  0  0  0  0  0  0  0  0  0  0
   10.2514   -3.7754    0.0000 O   0  0  0  0  0  0  0  0  0  0  0  0
   11.5206   -2.2557    0.0000 C   0  0  0  0  0  0  0  0  0  0  0  0
   10.2216   -1.5057    0.0000 H   0  0  0  0  0  0  0  0  0  0  0  0
   12.4836   -3.3927    0.0000 C   0  0  0  0  0  0  0  0  0  0  0  0
   13.0042   -4.7994    0.0000 H   0  0  0  0  0  0  0  0  0  0  0  0
   13.9821   -3.1195    0.0000 C   0  0  0  0  0  0  0  0  0  0  0  0
   15.4615   -3.3672    0.0000 H   0  0  0  0  0  0  0  0  0  0  0  0
   14.4829   -1.6993    0.0000 C   0  0  0  0  0  0  0  0  0  0  0  0
   15.4397   -0.5441    0.0000 H   0  0  0  0  0  0  0  0  0  0  0  0
   13.5199   -0.5624    0.0000 C   0  0  0  0  0  0  0  0  0  0  0  0
   13.0001    0.8447    0.0000 H   0  0  0  0  0  0  0  0  0  0  0  0
   15.2299    0.4357    0.0000 C   0  0  0  0  0  0  0  0  0  0  0  0
   15.2228    1.9357    0.0000 O   0  0  0  0  0  0  0  0  0  0  0  0
   16.5325   -0.3082    0.0000 O   0  0  0  0  0  0  0  0  0  0  0  0
   17.8280    0.4479    0.0000 H   0  0  0  0  0  0  0  0  0  0  0  0
   12.0431   -0.8302    0.0000 O   0  0  0  0  0  0  0  0  0  0  0  0
   15.7880   -2.4386    0.0000 O   0  0  0  0  0  0  0  0  0  0  0  0
   17.0808   -1.6780    0.0000 H   0  0  0  0  0  0  0  0  0  0  0  0
   13.9929   -4.6194    0.0000 O   0  0  0  0  0  0  0  0  0  0  0  0
   15.2973   -5.3601    0.0000 H   0  0  0  0  0  0  0  0  0  0  0  0
   11.1883   -4.1491    0.0000 O   0  0  0  0  0  0  0  0  0  0  0  0
   11.1958   -5.6491    0.0000 H   0  0  0  0  0  0  0  0  0  0  0  0
  1  2  1  0  0  0  0 
  1  3  1  0  0  0  0 
  1  4  1  0  0  0  0 
  1  5  1  0  0  0  0 
  5  6  1  0  0  0  0 
  5  7  1  0  0  0  0 
  7  8  1  0  0  0  0 
  7  9  1  0  0  0  0 
  7 10  1  0  0  0  0 
 10 11  2  0  0  0  0 
 11 12  1  0  0  0  0 
 11 13  1  0  0  0  0 
 13 14  1  0  0  0  0 
 13 15  2  0  0  0  0 
 15 16  1  0  0  0  0 
 16 17  1  0  0  0  0 
 16 18  2  0  0  0  0 
 10 18  1  0  0  0  0 
 18 19  1  0  0  0  0 
 15 20  1  0  0  0  0 
 20 21  1  0  0  0  0 
 21 22  1  0  0  0  0 
 21 23  1  0  0  0  0 
 21 24  1  0  0  0  0 
  5 25  1  0  0  0  0 
 25 26  1  0  0  0  0 
 25 27  1  0  0  0  0 
 27 28  1  0  0  0  0 
 27 29  1  0  0  0  0 
 27 30  1  0  0  0  0 
 30 31  1  0  0  0  0 
 30 32  1  0  0  0  0 
 32 33  2  0  0  0  0 
 33 34  1  0  0  0  0 
 33 35  1  0  0  0  0 
 35 36  1  0  0  0  0 
 35 37  2  0  0  0  0 
 37 38  1  0  0  0  0 
 38 39  2  0  0  0  0 
 32 39  1  0  0  0  0 
 39 40  1  0  0  0  0 
 38 41  1  0  0  0  0 
 41 42  1  0  0  0  0 
 41 43  1  0  0  0  0 
 43 44  1  0  0  0  0 
 43 45  2  0  0  0  0 
 37 46  1  0  0  0  0 
 46 47  1  0  0  0  0 
 30 48  1  0  0  0  0 
 48 49  1  0  0  0  0 
 49 50  1  0  0  0  0 
 49 51  1  0  0  0  0 
 51 52  1  0  0  0  0 
 51 53  1  0  0  0  0 
 53 54  1  0  0  0  0 
 53 55  1  0  0  0  0 
 55 56  1  0  0  0  0 
 55 57  1  0  0  0  0 
 57 58  1  0  0  0  0 
 57 59  1  0  0  0  0 
 59 60  2  0  0  0  0 
 59 61  1  0  0  0  0 
 61 62  1  0  0  0  0 
 57 63  1  0  0  0  0 
 49 63  1  0  0  0  0 
 55 64  1  0  0  0  0 
 64 65  1  0  0  0  0 
 53 66  1  0  0  0  0 
 66 67  1  0  0  0  0 
 51 68  1  0  0  0  0 
 68 69  1  0  0  0  0 
M  END
> <Rank>
3

> <Priority_score>
0.808

> <Reaction_type>
O-glucuronidation_(aliphatic_hydroxyl)

> <Parent_ID>
46

> <Parent_InChI>
InChI=1S/C19H24N2O4/c1-13(9-14-3-6-16(25-2)7-4-14)20-11-19(24)15-5-8-18(23)17(10-15)21-12-22/h3-8,10,12-13,19-20,23-24H,9,11H2,1-2H3,(H,21,22)

> <Parent_SMILES>
COc1ccc(CC(C)NCC(O)c2ccc(O)c(NC=O)c2)cc1

$$$$
Molecule 46_metabolite 4
  CDK     0516241031

 46 47  0  0  0  0  0  0  0  0999 V2000
    4.6431    3.3062    0.0000 C   0  0  0  0  0  0  0  0  0  0  0  0
    3.4988    4.2760    0.0000 H   0  0  0  0  0  0  0  0  0  0  0  0
    3.4893    2.3477    0.0000 H   0  0  0  0  0  0  0  0  0  0  0  0
    5.3867    2.0035    0.0000 H   0  0  0  0  0  0  0  0  0  0  0  0
    6.0552    3.8123    0.0000 C   0  0  0  0  0  0  0  0  0  0  0  0
    6.3084    2.3338    0.0000 H   0  0  0  0  0  0  0  0  0  0  0  0
    7.5552    3.8049    0.0000 C   0  0  0  0  0  0  0  0  0  0  0  0
    8.9672    4.3110    0.0000 H   0  0  0  0  0  0  0  0  0  0  0  0
    7.3020    5.2834    0.0000 H   0  0  0  0  0  0  0  0  0  0  0  0
    8.2988    2.5022    0.0000 C   0  0  0  0  0  0  0  0  0  0  0  0
    9.7988    2.5022    0.0000 C   0  0  0  0  0  0  0  0  0  0  0  0
   10.5424    3.8049    0.0000 H   0  0  0  0  0  0  0  0  0  0  0  0
   10.5488    1.2322    0.0000 C   0  0  0  0  0  0  0  0  0  0  0  0
   12.0486    1.2519    0.0000 H   0  0  0  0  0  0  0  0  0  0  0  0
    9.7988   -0.1178    0.0000 C   0  0  0  0  0  0  0  0  0  0  0  0
    8.2988   -0.1178    0.0000 C   0  0  0  0  0  0  0  0  0  0  0  0
    7.5381   -1.4106    0.0000 H   0  0  0  0  0  0  0  0  0  0  0  0
    7.5488    1.2322    0.0000 C   0  0  0  0  0  0  0  0  0  0  0  0
    6.0489    1.2519    0.0000 H   0  0  0  0  0  0  0  0  0  0  0  0
   10.5594   -1.4106    0.0000 O   0  0  0  0  0  0  0  0  0  0  0  0
   12.0594   -1.3983    0.0000 H   0  0  0  0  0  0  0  0  0  0  0  0
    5.3116    5.1150    0.0000 N   0  0  0  0  0  0  0  0  0  0  0  0
    6.0680    6.4103    0.0000 H   0  0  0  0  0  0  0  0  0  0  0  0
    3.3316    5.1247    0.0000 C   0  0  0  0  0  0  0  0  0  0  0  0
    1.9196    4.6186    0.0000 H   0  0  0  0  0  0  0  0  0  0  0  0
    3.0639    3.6488    0.0000 H   0  0  0  0  0  0  0  0  0  0  0  0
    2.5880    6.4274    0.0000 C   0  0  0  0  0  0  0  0  0  0  0  0
    4.0001    6.9335    0.0000 H   0  0  0  0  0  0  0  0  0  0  0  0
    1.0880    6.4348    0.0000 C   0  0  0  0  0  0  0  0  0  0  0  0
    0.3402    5.1436    0.0000 C   0  0  0  0  0  0  0  0  0  0  0  0
    1.0904    3.8447    0.0000 H   0  0  0  0  0  0  0  0  0  0  0  0
   -1.1598    5.1411    0.0000 C   0  0  0  0  0  0  0  0  0  0  0  0
   -1.8908    3.8312    0.0000 H   0  0  0  0  0  0  0  0  0  0  0  0
   -1.9520    6.4298    0.0000 C   0  0  0  0  0  0  0  0  0  0  0  0
   -1.1642    7.7611    0.0000 C   0  0  0  0  0  0  0  0  0  0  0  0
    0.3358    7.7636    0.0000 C   0  0  0  0  0  0  0  0  0  0  0  0
    1.0902    9.0601    0.0000 H   0  0  0  0  0  0  0  0  0  0  0  0
   -1.9083    9.0635    0.0000 N   0  0  0  0  0  0  0  0  0  0  0  0
   -3.4083    9.0703    0.0000 H   0  0  0  0  0  0  0  0  0  0  0  0
   -1.1524   10.3591    0.0000 C   0  0  0  0  0  0  0  0  0  0  0  0
   -1.8965   11.6616    0.0000 H   0  0  0  0  0  0  0  0  0  0  0  0
    0.3476   10.3523    0.0000 O   0  0  0  0  0  0  0  0  0  0  0  0
   -3.4519    6.4172    0.0000 O   0  0  0  0  0  0  0  0  0  0  0  0
   -4.2128    7.7098    0.0000 H   0  0  0  0  0  0  0  0  0  0  0  0
    2.3348    7.9059    0.0000 O   0  0  0  0  0  0  0  0  0  0  0  0
    3.4886    8.8644    0.0000 H   0  0  0  0  0  0  0  0  0  0  0  0
  1  2  1  0  0  0  0 
  1  3  1  0  0  0  0 
  1  4  1  0  0  0  0 
  1  5  1  0  0  0  0 
  5  6  1  0  0  0  0 
  5  7  1  0  0  0  0 
  7  8  1  0  0  0  0 
  7  9  1  0  0  0  0 
  7 10  1  0  0  0  0 
 10 11  2  0  0  0  0 
 11 12  1  0  0  0  0 
 11 13  1  0  0  0  0 
 13 14  1  0  0  0  0 
 13 15  2  0  0  0  0 
 15 16  1  0  0  0  0 
 16 17  1  0  0  0  0 
 16 18  2  0  0  0  0 
 10 18  1  0  0  0  0 
 18 19  1  0  0  0  0 
 15 20  1  0  0  0  0 
 20 21  1  0  0  0  0 
  5 22  1  0  0  0  0 
 22 23  1  0  0  0  0 
 22 24  1  0  0  0  0 
 24 25  1  0  0  0  0 
 24 26  1  0  0  0  0 
 24 27  1  0  0  0  0 
 27 28  1  0  0  0  0 
 27 29  1  0  0  0  0 
 29 30  2  0  0  0  0 
 30 31  1  0  0  0  0 
 30 32  1  0  0  0  0 
 32 33  1  0  0  0  0 
 32 34  2  0  0  0  0 
 34 35  1  0  0  0  0 
 35 36  2  0  0  0  0 
 29 36  1  0  0  0  0 
 36 37  1  0  0  0  0 
 35 38  1  0  0  0  0 
 38 39  1  0  0  0  0 
 38 40  1  0  0  0  0 
 40 41  1  0  0  0  0 
 40 42  2  0  0  0  0 
 34 43  1  0  0  0  0 
 43 44  1  0  0  0  0 
 27 45  1  0  0  0  0 
 45 46  1  0  0  0  0 
M  END
> <Rank>
4

> <Priority_score>
0.516

> <Reaction_type>
O-demethylation

> <Parent_ID>
46

> <Parent_InChI>
InChI=1S/C19H24N2O4/c1-13(9-14-3-6-16(25-2)7-4-14)20-11-19(24)15-5-8-18(23)17(10-15)21-12-22/h3-8,10,12-13,19-20,23-24H,9,11H2,1-2H3,(H,21,22)

> <Parent_SMILES>
COc1ccc(CC(C)NCC(O)c2ccc(O)c(NC=O)c2)cc1

$$$$
Molecule 46_metabolite 5
  CDK     0516241031

 50 51  0  0  0  0  0  0  0  0999 V2000
    2.8726    2.8161    0.0000 C   0  0  0  0  0  0  0  0  0  0  0  0
    1.7283    3.7859    0.0000 H   0  0  0  0  0  0  0  0  0  0  0  0
    1.7188    1.8576    0.0000 H   0  0  0  0  0  0  0  0  0  0  0  0
    3.6162    1.5134    0.0000 H   0  0  0  0  0  0  0  0  0  0  0  0
    4.2846    3.3222    0.0000 C   0  0  0  0  0  0  0  0  0  0  0  0
    4.5378    1.8437    0.0000 H   0  0  0  0  0  0  0  0  0  0  0  0
    5.7846    3.3148    0.0000 C   0  0  0  0  0  0  0  0  0  0  0  0
    7.1967    3.8209    0.0000 H   0  0  0  0  0  0  0  0  0  0  0  0
    5.5314    4.7933    0.0000 H   0  0  0  0  0  0  0  0  0  0  0  0
    6.5282    2.0121    0.0000 C   0  0  0  0  0  0  0  0  0  0  0  0
    8.0282    2.0121    0.0000 C   0  0  0  0  0  0  0  0  0  0  0  0
    8.7718    3.3148    0.0000 H   0  0  0  0  0  0  0  0  0  0  0  0
    8.7782    0.7421    0.0000 C   0  0  0  0  0  0  0  0  0  0  0  0
   10.2781    0.7618    0.0000 H   0  0  0  0  0  0  0  0  0  0  0  0
    8.0282   -0.6079    0.0000 C   0  0  0  0  0  0  0  0  0  0  0  0
    6.5282   -0.6079    0.0000 C   0  0  0  0  0  0  0  0  0  0  0  0
    5.7675   -1.9007    0.0000 H   0  0  0  0  0  0  0  0  0  0  0  0
    5.7782    0.7421    0.0000 C   0  0  0  0  0  0  0  0  0  0  0  0
    4.2784    0.7618    0.0000 H   0  0  0  0  0  0  0  0  0  0  0  0
    8.7889   -1.9007    0.0000 O   0  0  0  0  0  0  0  0  0  0  0  0
   10.2889   -1.8884    0.0000 C   0  0  0  0  0  0  0  0  0  0  0  0
   11.6941   -1.3637    0.0000 H   0  0  0  0  0  0  0  0  0  0  0  0
   10.0162   -0.4133    0.0000 H   0  0  0  0  0  0  0  0  0  0  0  0
   11.0496   -3.1812    0.0000 O   0  0  0  0  0  0  0  0  0  0  0  0
   12.5495   -3.1688    0.0000 H   0  0  0  0  0  0  0  0  0  0  0  0
    3.5410    4.6249    0.0000 N   0  0  0  0  0  0  0  0  0  0  0  0
    4.2974    5.9202    0.0000 H   0  0  0  0  0  0  0  0  0  0  0  0
    1.5611    4.6346    0.0000 C   0  0  0  0  0  0  0  0  0  0  0  0
    0.1490    4.1285    0.0000 H   0  0  0  0  0  0  0  0  0  0  0  0
    1.0411    3.2276    0.0000 H   0  0  0  0  0  0  0  0  0  0  0  0
    0.8175    5.9373    0.0000 C   0  0  0  0  0  0  0  0  0  0  0  0
    2.2295    6.4434    0.0000 H   0  0  0  0  0  0  0  0  0  0  0  0
   -0.6825    5.9447    0.0000 C   0  0  0  0  0  0  0  0  0  0  0  0
   -1.4304    4.6535    0.0000 C   0  0  0  0  0  0  0  0  0  0  0  0
   -0.6802    3.3546    0.0000 H   0  0  0  0  0  0  0  0  0  0  0  0
   -2.9304    4.6510    0.0000 C   0  0  0  0  0  0  0  0  0  0  0  0
   -3.6613    3.3411    0.0000 H   0  0  0  0  0  0  0  0  0  0  0  0
   -3.7225    5.9397    0.0000 C   0  0  0  0  0  0  0  0  0  0  0  0
   -2.9347    7.2710    0.0000 C   0  0  0  0  0  0  0  0  0  0  0  0
   -1.4347    7.2735    0.0000 C   0  0  0  0  0  0  0  0  0  0  0  0
   -0.6803    8.5700    0.0000 H   0  0  0  0  0  0  0  0  0  0  0  0
   -3.6788    8.5734    0.0000 N   0  0  0  0  0  0  0  0  0  0  0  0
   -5.1788    8.5802    0.0000 H   0  0  0  0  0  0  0  0  0  0  0  0
   -2.9229    9.8690    0.0000 C   0  0  0  0  0  0  0  0  0  0  0  0
   -3.6670   11.1715    0.0000 H   0  0  0  0  0  0  0  0  0  0  0  0
   -1.4230    9.8622    0.0000 O   0  0  0  0  0  0  0  0  0  0  0  0
   -5.2225    5.9271    0.0000 O   0  0  0  0  0  0  0  0  0  0  0  0
   -5.9834    7.2197    0.0000 H   0  0  0  0  0  0  0  0  0  0  0  0
    0.5643    7.4158    0.0000 O   0  0  0  0  0  0  0  0  0  0  0  0
    1.7181    8.3743    0.0000 H   0  0  0  0  0  0  0  0  0  0  0  0
  1  2  1  0  0  0  0 
  1  3  1  0  0  0  0 
  1  4  1  0  0  0  0 
  1  5  1  0  0  0  0 
  5  6  1  0  0  0  0 
  5  7  1  0  0  0  0 
  7  8  1  0  0  0  0 
  7  9  1  0  0  0  0 
  7 10  1  0  0  0  0 
 10 11  2  0  0  0  0 
 11 12  1  0  0  0  0 
 11 13  1  0  0  0  0 
 13 14  1  0  0  0  0 
 13 15  2  0  0  0  0 
 15 16  1  0  0  0  0 
 16 17  1  0  0  0  0 
 16 18  2  0  0  0  0 
 10 18  1  0  0  0  0 
 18 19  1  0  0  0  0 
 15 20  1  0  0  0  0 
 20 21  1  0  0  0  0 
 21 22  1  0  0  0  0 
 21 23  1  0  0  0  0 
 21 24  1  0  0  0  0 
 24 25  1  0  0  0  0 
  5 26  1  0  0  0  0 
 26 27  1  0  0  0  0 
 26 28  1  0  0  0  0 
 28 29  1  0  0  0  0 
 28 30  1  0  0  0  0 
 28 31  1  0  0  0  0 
 31 32  1  0  0  0  0 
 31 33  1  0  0  0  0 
 33 34  2  0  0  0  0 
 34 35  1  0  0  0  0 
 34 36  1  0  0  0  0 
 36 37  1  0  0  0  0 
 36 38  2  0  0  0  0 
 38 39  1  0  0  0  0 
 39 40  2  0  0  0  0 
 33 40  1  0  0  0  0 
 40 41  1  0  0  0  0 
 39 42  1  0  0  0  0 
 42 43  1  0  0  0  0 
 42 44  1  0  0  0  0 
 44 45  1  0  0  0  0 
 44 46  2  0  0  0  0 
 38 47  1  0  0  0  0 
 47 48  1  0  0  0  0 
 31 49  1  0  0  0  0 
 49 50  1  0  0  0  0 
M  END
> <Rank>
4

> <Priority_score>
0.516

> <Reaction_type>
aliphatic hydroxylation

> <Parent_ID>
46

> <Parent_InChI>
InChI=1S/C19H24N2O4/c1-13(9-14-3-6-16(25-2)7-4-14)20-11-19(24)15-5-8-18(23)17(10-15)21-12-22/h3-8,10,12-13,19-20,23-24H,9,11H2,1-2H3,(H,21,22)

> <Parent_SMILES>
COc1ccc(CC(C)NCC(O)c2ccc(O)c(NC=O)c2)cc1

$$$$
Molecule 46_metabolite 6
  CDK     0516241031

 25 25  0  0  0  0  0  0  0  0999 V2000
    2.4780    0.7171    0.0000 C   0  0  0  0  0  0  0  0  0  0  0  0
    2.4803    2.2171    0.0000 H   0  0  0  0  0  0  0  0  0  0  0  0
    1.1835   -0.0251    0.0000 C   0  0  0  0  0  0  0  0  0  0  0  0
    1.1680   -1.5519    0.0000 C   0  0  0  0  0  0  0  0  0  0  0  0
   -0.1348   -2.2953    0.0000 H   0  0  0  0  0  0  0  0  0  0  0  0
    2.4671   -2.3019    0.0000 C   0  0  0  0  0  0  0  0  0  0  0  0
    3.8162   -1.5451    0.0000 C   0  0  0  0  0  0  0  0  0  0  0  0
    3.7771   -0.0329    0.0000 C   0  0  0  0  0  0  0  0  0  0  0  0
    5.0663    0.7338    0.0000 H   0  0  0  0  0  0  0  0  0  0  0  0
    5.1203   -2.2863    0.0000 O   0  0  0  0  0  0  0  0  0  0  0  0
    6.4143   -1.5276    0.0000 H   0  0  0  0  0  0  0  0  0  0  0  0
    2.4578   -3.8019    0.0000 N   0  0  0  0  0  0  0  0  0  0  0  0
    3.7522   -4.5599    0.0000 H   0  0  0  0  0  0  0  0  0  0  0  0
    1.1541   -4.5438    0.0000 C   0  0  0  0  0  0  0  0  0  0  0  0
    1.1448   -6.0438    0.0000 H   0  0  0  0  0  0  0  0  0  0  0  0
   -0.1402   -3.7858    0.0000 O   0  0  0  0  0  0  0  0  0  0  0  0
   -0.1106    0.7334    0.0000 C   0  0  0  0  0  0  0  0  0  0  0  0
   -1.5860    1.0036    0.0000 H   0  0  0  0  0  0  0  0  0  0  0  0
   -0.1007    2.2334    0.0000 C   0  0  0  0  0  0  0  0  0  0  0  0
    1.3748    1.9632    0.0000 H   0  0  0  0  0  0  0  0  0  0  0  0
    0.4216    3.6395    0.0000 H   0  0  0  0  0  0  0  0  0  0  0  0
   -1.3948    2.9919    0.0000 O   0  0  0  0  0  0  0  0  0  0  0  0
   -1.3849    4.4919    0.0000 H   0  0  0  0  0  0  0  0  0  0  0  0
   -0.6329   -0.6727    0.0000 O   0  0  0  0  0  0  0  0  0  0  0  0
   -2.1117   -0.9234    0.0000 H   0  0  0  0  0  0  0  0  0  0  0  0
  1  2  1  0  0  0  0 
  1  3  2  0  0  0  0 
  3  4  1  0  0  0  0 
  4  5  1  0  0  0  0 
  4  6  2  0  0  0  0 
  6  7  1  0  0  0  0 
  7  8  2  0  0  0  0 
  1  8  1  0  0  0  0 
  8  9  1  0  0  0  0 
  7 10  1  0  0  0  0 
 10 11  1  0  0  0  0 
  6 12  1  0  0  0  0 
 12 13  1  0  0  0  0 
 12 14  1  0  0  0  0 
 14 15  1  0  0  0  0 
 14 16  2  0  0  0  0 
  3 17  1  0  0  0  0 
 17 18  1  0  0  0  0 
 17 19  1  0  0  0  0 
 19 20  1  0  0  0  0 
 19 21  1  0  0  0  0 
 19 22  1  0  0  0  0 
 22 23  1  0  0  0  0 
 17 24  1  0  0  0  0 
 24 25  1  0  0  0  0 
M  END
> <Rank>
6

> <Priority_score>
0.356

> <Reaction_type>
N-dealkylation_(R-NHCH2-alkyl)

> <Parent_ID>
46

> <Parent_InChI>
InChI=1S/C19H24N2O4/c1-13(9-14-3-6-16(25-2)7-4-14)20-11-19(24)15-5-8-18(23)17(10-15)21-12-22/h3-8,10,12-13,19-20,23-24H,9,11H2,1-2H3,(H,21,22)

> <Parent_SMILES>
COc1ccc(CC(C)NCC(O)c2ccc(O)c(NC=O)c2)cc1

$$$$
Molecule 46_metabolite 7
  CDK     0516241031

 50 51  0  0  0  0  0  0  0  0999 V2000
    8.3713   -3.8905    0.0000 C   0  0  0  0  0  0  0  0  0  0  0  0
    7.4015   -5.0348    0.0000 H   0  0  0  0  0  0  0  0  0  0  0  0
    9.3298   -5.0443    0.0000 H   0  0  0  0  0  0  0  0  0  0  0  0
    9.6740   -3.1469    0.0000 H   0  0  0  0  0  0  0  0  0  0  0  0
    7.8652   -2.4784    0.0000 C   0  0  0  0  0  0  0  0  0  0  0  0
    9.3437   -2.2252    0.0000 H   0  0  0  0  0  0  0  0  0  0  0  0
    7.8726   -0.9784    0.0000 C   0  0  0  0  0  0  0  0  0  0  0  0
    7.3665    0.4336    0.0000 H   0  0  0  0  0  0  0  0  0  0  0  0
    6.3941   -1.2316    0.0000 H   0  0  0  0  0  0  0  0  0  0  0  0
    9.1753   -0.2348    0.0000 C   0  0  0  0  0  0  0  0  0  0  0  0
    9.1753    1.2652    0.0000 C   0  0  0  0  0  0  0  0  0  0  0  0
    7.8726    2.0088    0.0000 H   0  0  0  0  0  0  0  0  0  0  0  0
   10.4453    2.0152    0.0000 C   0  0  0  0  0  0  0  0  0  0  0  0
   10.4255    3.5150    0.0000 H   0  0  0  0  0  0  0  0  0  0  0  0
   11.7953    1.2652    0.0000 C   0  0  0  0  0  0  0  0  0  0  0  0
   11.7953   -0.2348    0.0000 C   0  0  0  0  0  0  0  0  0  0  0  0
   13.0881   -0.9955    0.0000 H   0  0  0  0  0  0  0  0  0  0  0  0
   10.4453   -0.9848    0.0000 C   0  0  0  0  0  0  0  0  0  0  0  0
   10.4255   -2.4847    0.0000 H   0  0  0  0  0  0  0  0  0  0  0  0
   13.0881    2.0258    0.0000 O   0  0  0  0  0  0  0  0  0  0  0  0
   13.0757    3.5258    0.0000 C   0  0  0  0  0  0  0  0  0  0  0  0
   14.3685    4.2865    0.0000 H   0  0  0  0  0  0  0  0  0  0  0  0
   12.5511    4.9311    0.0000 H   0  0  0  0  0  0  0  0  0  0  0  0
   11.6007    3.2531    0.0000 H   0  0  0  0  0  0  0  0  0  0  0  0
    6.1456   -3.4600    0.0000 N   0  0  0  0  0  0  0  0  0  0  0  0
    6.1382   -4.9600    0.0000 H   0  0  0  0  0  0  0  0  0  0  0  0
    4.4358   -2.4615    0.0000 C   0  0  0  0  0  0  0  0  0  0  0  0
    3.4773   -1.3077    0.0000 H   0  0  0  0  0  0  0  0  0  0  0  0
    3.1331   -3.2051    0.0000 C   0  0  0  0  0  0  0  0  0  0  0  0
    4.0916   -4.3589    0.0000 H   0  0  0  0  0  0  0  0  0  0  0  0
    1.8377   -2.4488    0.0000 C   0  0  0  0  0  0  0  0  0  0  0  0
    1.8504   -0.9566    0.0000 C   0  0  0  0  0  0  0  0  0  0  0  0
    3.1569   -0.2196    0.0000 H   0  0  0  0  0  0  0  0  0  0  0  0
    0.5601   -0.1917    0.0000 C   0  0  0  0  0  0  0  0  0  0  0  0
    0.5967    1.3078    0.0000 H   0  0  0  0  0  0  0  0  0  0  0  0
   -0.7773   -0.8986    0.0000 C   0  0  0  0  0  0  0  0  0  0  0  0
   -0.7760   -2.4455    0.0000 C   0  0  0  0  0  0  0  0  0  0  0  0
    0.5144   -3.2104    0.0000 C   0  0  0  0  0  0  0  0  0  0  0  0
    0.5047   -4.7104    0.0000 H   0  0  0  0  0  0  0  0  0  0  0  0
   -2.0790   -3.1886    0.0000 N   0  0  0  0  0  0  0  0  0  0  0  0
   -3.3740   -2.4317    0.0000 H   0  0  0  0  0  0  0  0  0  0  0  0
   -2.0869   -4.6886    0.0000 C   0  0  0  0  0  0  0  0  0  0  0  0
   -3.3899   -5.4317    0.0000 H   0  0  0  0  0  0  0  0  0  0  0  0
   -0.7919   -5.4455    0.0000 O   0  0  0  0  0  0  0  0  0  0  0  0
   -2.0624   -0.1250    0.0000 O   0  0  0  0  0  0  0  0  0  0  0  0
   -3.3750   -0.8511    0.0000 H   0  0  0  0  0  0  0  0  0  0  0  0
    2.1632   -4.3494    0.0000 O   0  0  0  0  0  0  0  0  0  0  0  0
    2.6693   -5.7615    0.0000 H   0  0  0  0  0  0  0  0  0  0  0  0
    5.4056   -1.3172    0.0000 O   0  0  0  0  0  0  0  0  0  0  0  0
    4.4137    1.4504    0.0000 H   0  0  0  0  0  0  0  0  0  0  0  0
  1  2  1  0  0  0  0 
  1  3  1  0  0  0  0 
  1  4  1  0  0  0  0 
  1  5  1  0  0  0  0 
  5  6  1  0  0  0  0 
  5  7  1  0  0  0  0 
  7  8  1  0  0  0  0 
  7  9  1  0  0  0  0 
  7 10  1  0  0  0  0 
 10 11  2  0  0  0  0 
 11 12  1  0  0  0  0 
 11 13  1  0  0  0  0 
 13 14  1  0  0  0  0 
 13 15  2  0  0  0  0 
 15 16  1  0  0  0  0 
 16 17  1  0  0  0  0 
 16 18  2  0  0  0  0 
 10 18  1  0  0  0  0 
 18 19  1  0  0  0  0 
 15 20  1  0  0  0  0 
 20 21  1  0  0  0  0 
 21 22  1  0  0  0  0 
 21 23  1  0  0  0  0 
 21 24  1  0  0  0  0 
  5 25  1  0  0  0  0 
 25 26  1  0  0  0  0 
 25 27  1  0  0  0  0 
 27 28  1  0  0  0  0 
 27 29  1  0  0  0  0 
 29 30  1  0  0  0  0 
 29 31  1  0  0  0  0 
 31 32  2  0  0  0  0 
 32 33  1  0  0  0  0 
 32 34  1  0  0  0  0 
 34 35  1  0  0  0  0 
 34 36  2  0  0  0  0 
 36 37  1  0  0  0  0 
 37 38  2  0  0  0  0 
 31 38  1  0  0  0  0 
 38 39  1  0  0  0  0 
 37 40  1  0  0  0  0 
 40 41  1  0  0  0  0 
 40 42  1  0  0  0  0 
 42 43  1  0  0  0  0 
 42 44  2  0  0  0  0 
 36 45  1  0  0  0  0 
 45 46  1  0  0  0  0 
 29 47  1  0  0  0  0 
 47 48  1  0  0  0  0 
 27 49  1  0  0  0  0 
 49 50  1  0  0  0  0 
M  END
> <Rank>
6

> <Priority_score>
0.356

> <Reaction_type>
aliphatic hydroxylation

> <Parent_ID>
46

> <Parent_InChI>
InChI=1S/C19H24N2O4/c1-13(9-14-3-6-16(25-2)7-4-14)20-11-19(24)15-5-8-18(23)17(10-15)21-12-22/h3-8,10,12-13,19-20,23-24H,9,11H2,1-2H3,(H,21,22)

> <Parent_SMILES>
COc1ccc(CC(C)NCC(O)c2ccc(O)c(NC=O)c2)cc1

$$$$
Molecule 46_metabolite 8
  CDK     0516241031

 50 51  0  0  0  0  0  0  0  0999 V2000
    3.3003    3.2438    0.0000 C   0  0  0  0  0  0  0  0  0  0  0  0
    2.1560    4.2136    0.0000 H   0  0  0  0  0  0  0  0  0  0  0  0
    2.1465    2.2853    0.0000 H   0  0  0  0  0  0  0  0  0  0  0  0
    4.0439    1.9411    0.0000 H   0  0  0  0  0  0  0  0  0  0  0  0
    4.7123    3.7499    0.0000 C   0  0  0  0  0  0  0  0  0  0  0  0
    4.9655    2.2714    0.0000 H   0  0  0  0  0  0  0  0  0  0  0  0
    6.2123    3.7425    0.0000 C   0  0  0  0  0  0  0  0  0  0  0  0
    7.6244    4.2486    0.0000 H   0  0  0  0  0  0  0  0  0  0  0  0
    5.9591    5.2210    0.0000 H   0  0  0  0  0  0  0  0  0  0  0  0
    6.9559    2.4398    0.0000 C   0  0  0  0  0  0  0  0  0  0  0  0
    8.4559    2.4398    0.0000 C   0  0  0  0  0  0  0  0  0  0  0  0
    9.1995    3.7425    0.0000 H   0  0  0  0  0  0  0  0  0  0  0  0
    9.2059    1.1698    0.0000 C   0  0  0  0  0  0  0  0  0  0  0  0
   10.7058    1.1895    0.0000 H   0  0  0  0  0  0  0  0  0  0  0  0
    8.4559   -0.1802    0.0000 C   0  0  0  0  0  0  0  0  0  0  0  0
    6.9559   -0.1802    0.0000 C   0  0  0  0  0  0  0  0  0  0  0  0
    6.1952   -1.4730    0.0000 H   0  0  0  0  0  0  0  0  0  0  0  0
    6.2059    1.1698    0.0000 C   0  0  0  0  0  0  0  0  0  0  0  0
    4.7060    1.1895    0.0000 H   0  0  0  0  0  0  0  0  0  0  0  0
    9.2166   -1.4730    0.0000 O   0  0  0  0  0  0  0  0  0  0  0  0
   10.7166   -1.4607    0.0000 C   0  0  0  0  0  0  0  0  0  0  0  0
   11.4772   -2.7535    0.0000 H   0  0  0  0  0  0  0  0  0  0  0  0
   12.1218   -0.9360    0.0000 H   0  0  0  0  0  0  0  0  0  0  0  0
   10.4439    0.0143    0.0000 H   0  0  0  0  0  0  0  0  0  0  0  0
    3.9687    5.0526    0.0000 N   0  0  0  0  0  0  0  0  0  0  0  0
    1.9888    5.0623    0.0000 C   0  0  0  0  0  0  0  0  0  0  0  0
    0.5767    4.5562    0.0000 H   0  0  0  0  0  0  0  0  0  0  0  0
    1.4688    3.6553    0.0000 H   0  0  0  0  0  0  0  0  0  0  0  0
    1.2452    6.3650    0.0000 C   0  0  0  0  0  0  0  0  0  0  0  0
    2.6572    6.8711    0.0000 H   0  0  0  0  0  0  0  0  0  0  0  0
   -0.2548    6.3724    0.0000 C   0  0  0  0  0  0  0  0  0  0  0  0
   -1.0027    5.0812    0.0000 C   0  0  0  0  0  0  0  0  0  0  0  0
   -0.2525    3.7822    0.0000 H   0  0  0  0  0  0  0  0  0  0  0  0
   -2.5027    5.0787    0.0000 C   0  0  0  0  0  0  0  0  0  0  0  0
   -3.2336    3.7688    0.0000 H   0  0  0  0  0  0  0  0  0  0  0  0
   -3.2948    6.3674    0.0000 C   0  0  0  0  0  0  0  0  0  0  0  0
   -2.5070    7.6987    0.0000 C   0  0  0  0  0  0  0  0  0  0  0  0
   -1.0070    7.7012    0.0000 C   0  0  0  0  0  0  0  0  0  0  0  0
   -0.2526    8.9976    0.0000 H   0  0  0  0  0  0  0  0  0  0  0  0
   -3.2511    9.0011    0.0000 N   0  0  0  0  0  0  0  0  0  0  0  0
   -4.7511    9.0079    0.0000 H   0  0  0  0  0  0  0  0  0  0  0  0
   -2.4953   10.2967    0.0000 C   0  0  0  0  0  0  0  0  0  0  0  0
   -3.2394   11.5992    0.0000 H   0  0  0  0  0  0  0  0  0  0  0  0
   -0.9953   10.2899    0.0000 O   0  0  0  0  0  0  0  0  0  0  0  0
   -4.7948    6.3547    0.0000 O   0  0  0  0  0  0  0  0  0  0  0  0
   -5.5557    7.6474    0.0000 H   0  0  0  0  0  0  0  0  0  0  0  0
    0.9920    7.8435    0.0000 O   0  0  0  0  0  0  0  0  0  0  0  0
    2.1458    8.8020    0.0000 H   0  0  0  0  0  0  0  0  0  0  0  0
    4.7251    6.3479    0.0000 O   0  0  0  0  0  0  0  0  0  0  0  0
    6.2251    6.3405    0.0000 H   0  0  0  0  0  0  0  0  0  0  0  0
  1  2  1  0  0  0  0 
  1  3  1  0  0  0  0 
  1  4  1  0  0  0  0 
  1  5  1  0  0  0  0 
  5  6  1  0  0  0  0 
  5  7  1  0  0  0  0 
  7  8  1  0  0  0  0 
  7  9  1  0  0  0  0 
  7 10  1  0  0  0  0 
 10 11  2  0  0  0  0 
 11 12  1  0  0  0  0 
 11 13  1  0  0  0  0 
 13 14  1  0  0  0  0 
 13 15  2  0  0  0  0 
 15 16  1  0  0  0  0 
 16 17  1  0  0  0  0 
 16 18  2  0  0  0  0 
 10 18  1  0  0  0  0 
 18 19  1  0  0  0  0 
 15 20  1  0  0  0  0 
 20 21  1  0  0  0  0 
 21 22  1  0  0  0  0 
 21 23  1  0  0  0  0 
 21 24  1  0  0  0  0 
  5 25  1  0  0  0  0 
 25 26  1  0  0  0  0 
 26 27  1  0  0  0  0 
 26 28  1  0  0  0  0 
 26 29  1  0  0  0  0 
 29 30  1  0  0  0  0 
 29 31  1  0  0  0  0 
 31 32  2  0  0  0  0 
 32 33  1  0  0  0  0 
 32 34  1  0  0  0  0 
 34 35  1  0  0  0  0 
 34 36  2  0  0  0  0 
 36 37  1  0  0  0  0 
 37 38  2  0  0  0  0 
 31 38  1  0  0  0  0 
 38 39  1  0  0  0  0 
 37 40  1  0  0  0  0 
 40 41  1  0  0  0  0 
 40 42  1  0  0  0  0 
 42 43  1  0  0  0  0 
 42 44  2  0  0  0  0 
 36 45  1  0  0  0  0 
 45 46  1  0  0  0  0 
 29 47  1  0  0  0  0 
 47 48  1  0  0  0  0 
 25 49  1  0  0  0  0 
 49 50  1  0  0  0  0 
M  END
> <Rank>
6

> <Priority_score>
0.356

> <Reaction_type>
amine hydroxylation

> <Parent_ID>
46

> <Parent_InChI>
InChI=1S/C19H24N2O4/c1-13(9-14-3-6-16(25-2)7-4-14)20-11-19(24)15-5-8-18(23)17(10-15)21-12-22/h3-8,10,12-13,19-20,23-24H,9,11H2,1-2H3,(H,21,22)

> <Parent_SMILES>
COc1ccc(CC(C)NCC(O)c2ccc(O)c(NC=O)c2)cc1

$$$$
Molecule 46_metabolite 9
  CDK     0516241031

 47 48  0  0  0  0  0  0  0  0999 V2000
    2.6786    5.4353    0.0000 C   0  0  0  0  0  0  0  0  0  0  0  0
    4.1545    5.1676    0.0000 H   0  0  0  0  0  0  0  0  0  0  0  0
    3.1986    6.8423    0.0000 H   0  0  0  0  0  0  0  0  0  0  0  0
    1.3833    6.1917    0.0000 H   0  0  0  0  0  0  0  0  0  0  0  0
    1.7088    4.2910    0.0000 C   0  0  0  0  0  0  0  0  0  0  0  0
    0.7503    5.4448    0.0000 H   0  0  0  0  0  0  0  0  0  0  0  0
    0.4061    3.5474    0.0000 C   0  0  0  0  0  0  0  0  0  0  0  0
   -0.5637    2.4031    0.0000 H   0  0  0  0  0  0  0  0  0  0  0  0
    1.3646    2.3936    0.0000 H   0  0  0  0  0  0  0  0  0  0  0  0
   -0.8892    4.3038    0.0000 C   0  0  0  0  0  0  0  0  0  0  0  0
   -2.1883    3.5538    0.0000 C   0  0  0  0  0  0  0  0  0  0  0  0
   -2.1809    2.0538    0.0000 H   0  0  0  0  0  0  0  0  0  0  0  0
   -3.4728    4.2787    0.0000 C   0  0  0  0  0  0  0  0  0  0  0  0
   -4.7618    3.5116    0.0000 H   0  0  0  0  0  0  0  0  0  0  0  0
   -3.4983    5.8228    0.0000 C   0  0  0  0  0  0  0  0  0  0  0  0
   -2.1992    6.5728    0.0000 C   0  0  0  0  0  0  0  0  0  0  0  0
   -2.1869    8.0727    0.0000 H   0  0  0  0  0  0  0  0  0  0  0  0
   -0.8747    5.7787    0.0000 C   0  0  0  0  0  0  0  0  0  0  0  0
    0.4341    6.5115    0.0000 H   0  0  0  0  0  0  0  0  0  0  0  0
   -4.8035    6.5621    0.0000 O   0  0  0  0  0  0  0  0  0  0  0  0
   -6.0963    5.8014    0.0000 C   0  0  0  0  0  0  0  0  0  0  0  0
   -7.4014    6.5406    0.0000 H   0  0  0  0  0  0  0  0  0  0  0  0
   -7.0509    4.6444    0.0000 H   0  0  0  0  0  0  0  0  0  0  0  0
   -5.1226    4.6603    0.0000 H   0  0  0  0  0  0  0  0  0  0  0  0
    3.0041    3.5346    0.0000 N   0  0  0  0  0  0  0  0  0  0  0  0
    2.9968    2.0347    0.0000 H   0  0  0  0  0  0  0  0  0  0  0  0
    4.7237    4.5162    0.0000 C   0  0  0  0  0  0  0  0  0  0  0  0
    5.6935    5.6605    0.0000 H   0  0  0  0  0  0  0  0  0  0  0  0
    4.2176    5.9282    0.0000 H   0  0  0  0  0  0  0  0  0  0  0  0
    6.0191    3.7598    0.0000 C   0  0  0  0  0  0  0  0  0  0  0  0
    6.0117    2.2598    0.0000 O   0  0  0  0  0  0  0  0  0  0  0  0
    7.3218    4.5034    0.0000 C   0  0  0  0  0  0  0  0  0  0  0  0
    7.3238    5.9956    0.0000 C   0  0  0  0  0  0  0  0  0  0  0  0
    6.0247    6.7454    0.0000 H   0  0  0  0  0  0  0  0  0  0  0  0
    8.6216    6.7477    0.0000 C   0  0  0  0  0  0  0  0  0  0  0  0
    8.5997    8.2476    0.0000 H   0  0  0  0  0  0  0  0  0  0  0  0
    9.9520    6.0278    0.0000 C   0  0  0  0  0  0  0  0  0  0  0  0
    9.9354    4.4809    0.0000 C   0  0  0  0  0  0  0  0  0  0  0  0
    8.6376    3.7288    0.0000 C   0  0  0  0  0  0  0  0  0  0  0  0
    8.6325    2.2288    0.0000 H   0  0  0  0  0  0  0  0  0  0  0  0
   11.2310    3.7250    0.0000 N   0  0  0  0  0  0  0  0  0  0  0  0
   12.5334    4.4692    0.0000 H   0  0  0  0  0  0  0  0  0  0  0  0
   11.2242    2.2251    0.0000 C   0  0  0  0  0  0  0  0  0  0  0  0
   12.5198    1.4692    0.0000 H   0  0  0  0  0  0  0  0  0  0  0  0
    9.9218    1.4810    0.0000 O   0  0  0  0  0  0  0  0  0  0  0  0
   11.2446    6.7887    0.0000 O   0  0  0  0  0  0  0  0  0  0  0  0
   12.5499    6.0496    0.0000 H   0  0  0  0  0  0  0  0  0  0  0  0
  1  2  1  0  0  0  0 
  1  3  1  0  0  0  0 
  1  4  1  0  0  0  0 
  1  5  1  0  0  0  0 
  5  6  1  0  0  0  0 
  5  7  1  0  0  0  0 
  7  8  1  0  0  0  0 
  7  9  1  0  0  0  0 
  7 10  1  0  0  0  0 
 10 11  2  0  0  0  0 
 11 12  1  0  0  0  0 
 11 13  1  0  0  0  0 
 13 14  1  0  0  0  0 
 13 15  2  0  0  0  0 
 15 16  1  0  0  0  0 
 16 17  1  0  0  0  0 
 16 18  2  0  0  0  0 
 10 18  1  0  0  0  0 
 18 19  1  0  0  0  0 
 15 20  1  0  0  0  0 
 20 21  1  0  0  0  0 
 21 22  1  0  0  0  0 
 21 23  1  0  0  0  0 
 21 24  1  0  0  0  0 
  5 25  1  0  0  0  0 
 25 26  1  0  0  0  0 
 25 27  1  0  0  0  0 
 27 28  1  0  0  0  0 
 27 29  1  0  0  0  0 
 27 30  1  0  0  0  0 
 30 31  2  0  0  0  0 
 30 32  1  0  0  0  0 
 32 33  2  0  0  0  0 
 33 34  1  0  0  0  0 
 33 35  1  0  0  0  0 
 35 36  1  0  0  0  0 
 35 37  2  0  0  0  0 
 37 38  1  0  0  0  0 
 38 39  2  0  0  0  0 
 32 39  1  0  0  0  0 
 39 40  1  0  0  0  0 
 38 41  1  0  0  0  0 
 41 42  1  0  0  0  0 
 41 43  1  0  0  0  0 
 43 44  1  0  0  0  0 
 43 45  2  0  0  0  0 
 37 46  1  0  0  0  0 
 46 47  1  0  0  0  0 
M  END
> <Rank>
6

> <Priority_score>
0.356

> <Reaction_type>
secondary_alcohol_oxidation_(benzylic)

> <Parent_ID>
46

> <Parent_InChI>
InChI=1S/C19H24N2O4/c1-13(9-14-3-6-16(25-2)7-4-14)20-11-19(24)15-5-8-18(23)17(10-15)21-12-22/h3-8,10,12-13,19-20,23-24H,9,11H2,1-2H3,(H,21,22)

> <Parent_SMILES>
COc1ccc(CC(C)NCC(O)c2ccc(O)c(NC=O)c2)cc1

$$$$
Molecule 46_metabolite 10
  CDK     0516241031

 46 47  0  0  0  0  0  0  0  0999 V2000
    2.1040    4.4056    0.0000 C   0  0  0  0  0  0  0  0  0  0  0  0
    3.0738    5.5499    0.0000 H   0  0  0  0  0  0  0  0  0  0  0  0
    1.1455    5.5594    0.0000 H   0  0  0  0  0  0  0  0  0  0  0  0
    0.8013    3.6620    0.0000 H   0  0  0  0  0  0  0  0  0  0  0  0
    2.6101    2.9936    0.0000 C   0  0  0  0  0  0  0  0  0  0  0  0
    1.1316    2.7404    0.0000 H   0  0  0  0  0  0  0  0  0  0  0  0
    2.6027    1.4936    0.0000 C   0  0  0  0  0  0  0  0  0  0  0  0
    3.1088    0.0816    0.0000 H   0  0  0  0  0  0  0  0  0  0  0  0
    4.0812    1.7468    0.0000 H   0  0  0  0  0  0  0  0  0  0  0  0
    1.3000    0.7500    0.0000 C   0  0  0  0  0  0  0  0  0  0  0  0
    1.3000   -0.7500    0.0000 C   0  0  0  0  0  0  0  0  0  0  0  0
    2.6027   -1.4936    0.0000 H   0  0  0  0  0  0  0  0  0  0  0  0
    0.0300   -1.5000    0.0000 C   0  0  0  0  0  0  0  0  0  0  0  0
    0.0498   -2.9999    0.0000 H   0  0  0  0  0  0  0  0  0  0  0  0
   -1.3200   -0.7500    0.0000 C   0  0  0  0  0  0  0  0  0  0  0  0
   -1.3200    0.7500    0.0000 C   0  0  0  0  0  0  0  0  0  0  0  0
   -2.6128    1.5107    0.0000 H   0  0  0  0  0  0  0  0  0  0  0  0
    0.0300    1.5000    0.0000 C   0  0  0  0  0  0  0  0  0  0  0  0
    0.0498    2.9999    0.0000 H   0  0  0  0  0  0  0  0  0  0  0  0
   -2.6128   -1.5107    0.0000 O   0  0  0  0  0  0  0  0  0  0  0  0
   -2.6004   -3.0106    0.0000 C   0  0  0  0  0  0  0  0  0  0  0  0
   -3.8932   -3.7713    0.0000 H   0  0  0  0  0  0  0  0  0  0  0  0
   -2.0758   -4.4159    0.0000 H   0  0  0  0  0  0  0  0  0  0  0  0
   -1.1254   -2.7380    0.0000 H   0  0  0  0  0  0  0  0  0  0  0  0
    3.9128    3.7372    0.0000 N   0  0  0  0  0  0  0  0  0  0  0  0
    3.9202    5.2372    0.0000 H   0  0  0  0  0  0  0  0  0  0  0  0
    5.2081    2.9808    0.0000 C   0  0  0  0  0  0  0  0  0  0  0  0
    5.2008    1.4808    0.0000 H   0  0  0  0  0  0  0  0  0  0  0  0
    6.5109    3.7244    0.0000 C   0  0  0  0  0  0  0  0  0  0  0  0
    6.5182    5.2244    0.0000 H   0  0  0  0  0  0  0  0  0  0  0  0
    7.8062    2.9680    0.0000 C   0  0  0  0  0  0  0  0  0  0  0  0
    7.7935    1.4759    0.0000 C   0  0  0  0  0  0  0  0  0  0  0  0
    6.4871    0.7389    0.0000 H   0  0  0  0  0  0  0  0  0  0  0  0
    9.0839    0.7110    0.0000 C   0  0  0  0  0  0  0  0  0  0  0  0
    9.0472   -0.7886    0.0000 H   0  0  0  0  0  0  0  0  0  0  0  0
   10.4212    1.4178    0.0000 C   0  0  0  0  0  0  0  0  0  0  0  0
   10.4199    2.9647    0.0000 C   0  0  0  0  0  0  0  0  0  0  0  0
    9.1296    3.7296    0.0000 C   0  0  0  0  0  0  0  0  0  0  0  0
    9.1392    5.2296    0.0000 H   0  0  0  0  0  0  0  0  0  0  0  0
   11.7229    3.7078    0.0000 N   0  0  0  0  0  0  0  0  0  0  0  0
   13.0179    2.9509    0.0000 H   0  0  0  0  0  0  0  0  0  0  0  0
   11.7309    5.2078    0.0000 C   0  0  0  0  0  0  0  0  0  0  0  0
   13.0339    5.9509    0.0000 H   0  0  0  0  0  0  0  0  0  0  0  0
   10.4358    5.9647    0.0000 O   0  0  0  0  0  0  0  0  0  0  0  0
   11.7064    0.6442    0.0000 O   0  0  0  0  0  0  0  0  0  0  0  0
   13.0189    1.3704    0.0000 H   0  0  0  0  0  0  0  0  0  0  0  0
  1  2  1  0  0  0  0 
  1  3  1  0  0  0  0 
  1  4  1  0  0  0  0 
  1  5  1  0  0  0  0 
  5  6  1  0  0  0  0 
  5  7  1  0  0  0  0 
  7  8  1  0  0  0  0 
  7  9  1  0  0  0  0 
  7 10  1  0  0  0  0 
 10 11  2  0  0  0  0 
 11 12  1  0  0  0  0 
 11 13  1  0  0  0  0 
 13 14  1  0  0  0  0 
 13 15  2  0  0  0  0 
 15 16  1  0  0  0  0 
 16 17  1  0  0  0  0 
 16 18  2  0  0  0  0 
 10 18  1  0  0  0  0 
 18 19  1  0  0  0  0 
 15 20  1  0  0  0  0 
 20 21  1  0  0  0  0 
 21 22  1  0  0  0  0 
 21 23  1  0  0  0  0 
 21 24  1  0  0  0  0 
  5 25  1  0  0  0  0 
 25 26  1  0  0  0  0 
 25 27  1  0  0  0  0 
 27 28  1  4  0  0  0 
 27 29  2  0  0  0  0 
 29 30  1  0  0  0  0 
 29 31  1  0  0  0  0 
 31 32  2  0  0  0  0 
 32 33  1  0  0  0  0 
 32 34  1  0  0  0  0 
 34 35  1  0  0  0  0 
 34 36  2  0  0  0  0 
 36 37  1  0  0  0  0 
 37 38  2  0  0  0  0 
 31 38  1  0  0  0  0 
 38 39  1  0  0  0  0 
 37 40  1  0  0  0  0 
 40 41  1  0  0  0  0 
 40 42  1  0  0  0  0 
 42 43  1  0  0  0  0 
 42 44  2  0  0  0  0 
 36 45  1  0  0  0  0 
 45 46  1  0  0  0  0 
M  END
> <Rank>
6

> <Priority_score>
0.356

> <Reaction_type>
dehydration_next_to_SP2_a

> <Parent_ID>
46

> <Parent_InChI>
InChI=1S/C19H24N2O4/c1-13(9-14-3-6-16(25-2)7-4-14)20-11-19(24)15-5-8-18(23)17(10-15)21-12-22/h3-8,10,12-13,19-20,23-24H,9,11H2,1-2H3,(H,21,22)

> <Parent_SMILES>
COc1ccc(CC(C)NCC(O)c2ccc(O)c(NC=O)c2)cc1

$$$$
Molecule 46_metabolite 11
  CDK     0516241031

 23 23  0  0  0  0  0  0  0  0999 V2000
    2.2956    1.3532    0.0000 C   0  0  0  0  0  0  0  0  0  0  0  0
    2.2979    2.8532    0.0000 H   0  0  0  0  0  0  0  0  0  0  0  0
    1.0011    0.6110    0.0000 C   0  0  0  0  0  0  0  0  0  0  0  0
    0.9856   -0.9158    0.0000 C   0  0  0  0  0  0  0  0  0  0  0  0
   -0.3172   -1.6592    0.0000 H   0  0  0  0  0  0  0  0  0  0  0  0
    2.2846   -1.6658    0.0000 C   0  0  0  0  0  0  0  0  0  0  0  0
    3.6338   -0.9090    0.0000 C   0  0  0  0  0  0  0  0  0  0  0  0
    3.5946    0.6032    0.0000 C   0  0  0  0  0  0  0  0  0  0  0  0
    4.8839    1.3699    0.0000 H   0  0  0  0  0  0  0  0  0  0  0  0
    4.9379   -1.6502    0.0000 O   0  0  0  0  0  0  0  0  0  0  0  0
    6.2318   -0.8915    0.0000 H   0  0  0  0  0  0  0  0  0  0  0  0
    2.2754   -3.1658    0.0000 N   0  0  0  0  0  0  0  0  0  0  0  0
    3.5697   -3.9238    0.0000 H   0  0  0  0  0  0  0  0  0  0  0  0
    0.9717   -3.9077    0.0000 C   0  0  0  0  0  0  0  0  0  0  0  0
    0.9624   -5.4077    0.0000 H   0  0  0  0  0  0  0  0  0  0  0  0
   -0.3227   -3.1497    0.0000 O   0  0  0  0  0  0  0  0  0  0  0  0
   -0.2930    1.3695    0.0000 C   0  0  0  0  0  0  0  0  0  0  0  0
   -1.7685    1.6397    0.0000 H   0  0  0  0  0  0  0  0  0  0  0  0
   -0.2831    2.8695    0.0000 C   0  0  0  0  0  0  0  0  0  0  0  0
   -1.5772    3.6280    0.0000 H   0  0  0  0  0  0  0  0  0  0  0  0
    1.0208    3.6109    0.0000 O   0  0  0  0  0  0  0  0  0  0  0  0
   -0.8153   -0.0366    0.0000 O   0  0  0  0  0  0  0  0  0  0  0  0
   -2.2942   -0.2873    0.0000 H   0  0  0  0  0  0  0  0  0  0  0  0
  1  2  1  0  0  0  0 
  1  3  2  0  0  0  0 
  3  4  1  0  0  0  0 
  4  5  1  0  0  0  0 
  4  6  2  0  0  0  0 
  6  7  1  0  0  0  0 
  7  8  2  0  0  0  0 
  1  8  1  0  0  0  0 
  8  9  1  0  0  0  0 
  7 10  1  0  0  0  0 
 10 11  1  0  0  0  0 
  6 12  1  0  0  0  0 
 12 13  1  0  0  0  0 
 12 14  1  0  0  0  0 
 14 15  1  0  0  0  0 
 14 16  2  0  0  0  0 
  3 17  1  0  0  0  0 
 17 18  1  0  0  0  0 
 17 19  1  0  0  0  0 
 19 20  1  0  0  0  0 
 19 21  2  0  0  0  0 
 17 22  1  0  0  0  0 
 22 23  1  0  0  0  0 
M  END
> <Rank>
6

> <Priority_score>
0.356

> <Reaction_type>
N-dealkylation

> <Parent_ID>
46

> <Parent_InChI>
InChI=1S/C19H24N2O4/c1-13(9-14-3-6-16(25-2)7-4-14)20-11-19(24)15-5-8-18(23)17(10-15)21-12-22/h3-8,10,12-13,19-20,23-24H,9,11H2,1-2H3,(H,21,22)

> <Parent_SMILES>
COc1ccc(CC(C)NCC(O)c2ccc(O)c(NC=O)c2)cc1

$$$$
Molecule 46_metabolite 12
  CDK     0516241031

 27 27  0  0  0  0  0  0  0  0999 V2000
    7.9773   -0.8072    0.0000 C   0  0  0  0  0  0  0  0  0  0  0  0
    9.2726   -1.5636    0.0000 H   0  0  0  0  0  0  0  0  0  0  0  0
    6.5014   -0.5394    0.0000 H   0  0  0  0  0  0  0  0  0  0  0  0
    7.4573   -2.2142    0.0000 H   0  0  0  0  0  0  0  0  0  0  0  0
    7.9847    0.6928    0.0000 C   0  0  0  0  0  0  0  0  0  0  0  0
    9.4606    0.4251    0.0000 H   0  0  0  0  0  0  0  0  0  0  0  0
    6.6893    1.4492    0.0000 C   0  0  0  0  0  0  0  0  0  0  0  0
    5.7308    2.6030    0.0000 H   0  0  0  0  0  0  0  0  0  0  0  0
    7.6592    2.5935    0.0000 H   0  0  0  0  0  0  0  0  0  0  0  0
    5.3866    0.7056    0.0000 C   0  0  0  0  0  0  0  0  0  0  0  0
    4.0950    1.4683    0.0000 C   0  0  0  0  0  0  0  0  0  0  0  0
    4.1172    2.9682    0.0000 H   0  0  0  0  0  0  0  0  0  0  0  0
    2.8034    0.7562    0.0000 C   0  0  0  0  0  0  0  0  0  0  0  0
    1.5220    1.5359    0.0000 H   0  0  0  0  0  0  0  0  0  0  0  0
    2.7628   -0.7876    0.0000 C   0  0  0  0  0  0  0  0  0  0  0  0
    4.0544   -1.5504    0.0000 C   0  0  0  0  0  0  0  0  0  0  0  0
    4.0520   -3.0504    0.0000 H   0  0  0  0  0  0  0  0  0  0  0  0
    5.3866   -0.7693    0.0000 C   0  0  0  0  0  0  0  0  0  0  0  0
    6.6882   -1.5150    0.0000 H   0  0  0  0  0  0  0  0  0  0  0  0
    1.4504   -1.5140    0.0000 O   0  0  0  0  0  0  0  0  0  0  0  0
    0.1651   -0.7406    0.0000 C   0  0  0  0  0  0  0  0  0  0  0  0
   -1.1473   -1.4670    0.0000 H   0  0  0  0  0  0  0  0  0  0  0  0
   -0.7781    0.4257    0.0000 H   0  0  0  0  0  0  0  0  0  0  0  0
    1.1499    0.3908    0.0000 H   0  0  0  0  0  0  0  0  0  0  0  0
    8.6710    2.5500    0.0000 N   0  0  0  0  0  0  0  0  0  0  0  0
   10.1495    2.8032    0.0000 H   0  0  0  0  0  0  0  0  0  0  0  0
    7.7125    3.7038    0.0000 H   0  0  0  0  0  0  0  0  0  0  0  0
  1  2  1  0  0  0  0 
  1  3  1  0  0  0  0 
  1  4  1  0  0  0  0 
  1  5  1  0  0  0  0 
  5  6  1  0  0  0  0 
  5  7  1  0  0  0  0 
  7  8  1  0  0  0  0 
  7  9  1  0  0  0  0 
  7 10  1  0  0  0  0 
 10 11  2  0  0  0  0 
 11 12  1  0  0  0  0 
 11 13  1  0  0  0  0 
 13 14  1  0  0  0  0 
 13 15  2  0  0  0  0 
 15 16  1  0  0  0  0 
 16 17  1  0  0  0  0 
 16 18  2  0  0  0  0 
 10 18  1  0  0  0  0 
 18 19  1  0  0  0  0 
 15 20  1  0  0  0  0 
 20 21  1  0  0  0  0 
 21 22  1  0  0  0  0 
 21 23  1  0  0  0  0 
 21 24  1  0  0  0  0 
  5 25  1  0  0  0  0 
 25 26  1  0  0  0  0 
 25 27  1  0  0  0  0 
M  END
> <Rank>
6

> <Priority_score>
0.356

> <Reaction_type>
N-dealkylation_(R-NHCH2-alkyl)

> <Parent_ID>
46

> <Parent_InChI>
InChI=1S/C19H24N2O4/c1-13(9-14-3-6-16(25-2)7-4-14)20-11-19(24)15-5-8-18(23)17(10-15)21-12-22/h3-8,10,12-13,19-20,23-24H,9,11H2,1-2H3,(H,21,22)

> <Parent_SMILES>
COc1ccc(CC(C)NCC(O)c2ccc(O)c(NC=O)c2)cc1

$$$$
Molecule 46_metabolite 13
  CDK     0516241031

 50 51  0  0  0  0  0  0  0  0999 V2000
    2.8901    3.9434    0.0000 C   0  0  0  0  0  0  0  0  0  0  0  0
    1.4142    4.2111    0.0000 H   0  0  0  0  0  0  0  0  0  0  0  0
    2.3701    2.5364    0.0000 H   0  0  0  0  0  0  0  0  0  0  0  0
    4.1854    3.1870    0.0000 H   0  0  0  0  0  0  0  0  0  0  0  0
    3.8599    5.0877    0.0000 C   0  0  0  0  0  0  0  0  0  0  0  0
    4.8184    3.9339    0.0000 H   0  0  0  0  0  0  0  0  0  0  0  0
    5.1626    5.8313    0.0000 C   0  0  0  0  0  0  0  0  0  0  0  0
    6.1325    6.9756    0.0000 H   0  0  0  0  0  0  0  0  0  0  0  0
    4.2041    6.9851    0.0000 H   0  0  0  0  0  0  0  0  0  0  0  0
    6.4580    5.0749    0.0000 C   0  0  0  0  0  0  0  0  0  0  0  0
    7.7570    5.8249    0.0000 C   0  0  0  0  0  0  0  0  0  0  0  0
    7.7496    7.3249    0.0000 H   0  0  0  0  0  0  0  0  0  0  0  0
    9.0415    5.1000    0.0000 C   0  0  0  0  0  0  0  0  0  0  0  0
   10.3306    5.8671    0.0000 H   0  0  0  0  0  0  0  0  0  0  0  0
    9.0670    3.5559    0.0000 C   0  0  0  0  0  0  0  0  0  0  0  0
    7.7680    2.8059    0.0000 C   0  0  0  0  0  0  0  0  0  0  0  0
    7.7556    1.3059    0.0000 H   0  0  0  0  0  0  0  0  0  0  0  0
    6.4435    3.6000    0.0000 C   0  0  0  0  0  0  0  0  0  0  0  0
    5.1347    2.8672    0.0000 H   0  0  0  0  0  0  0  0  0  0  0  0
   10.3722    2.8166    0.0000 O   0  0  0  0  0  0  0  0  0  0  0  0
   11.6650    3.5773    0.0000 C   0  0  0  0  0  0  0  0  0  0  0  0
   12.9702    2.8381    0.0000 H   0  0  0  0  0  0  0  0  0  0  0  0
   12.6197    4.7343    0.0000 H   0  0  0  0  0  0  0  0  0  0  0  0
   10.6914    4.7184    0.0000 H   0  0  0  0  0  0  0  0  0  0  0  0
    2.5646    5.8440    0.0000 N   0  0  0  0  0  0  0  0  0  0  0  0
    2.5720    7.3440    0.0000 H   0  0  0  0  0  0  0  0  0  0  0  0
    0.8450    4.8625    0.0000 C   0  0  0  0  0  0  0  0  0  0  0  0
   -0.1248    3.7182    0.0000 H   0  0  0  0  0  0  0  0  0  0  0  0
    1.0982    3.3840    0.0000 H   0  0  0  0  0  0  0  0  0  0  0  0
   -0.4503    5.6189    0.0000 C   0  0  0  0  0  0  0  0  0  0  0  0
    0.5195    6.7632    0.0000 H   0  0  0  0  0  0  0  0  0  0  0  0
   -1.7530    4.8753    0.0000 C   0  0  0  0  0  0  0  0  0  0  0  0
   -1.7607    3.3745    0.0000 C   0  0  0  0  0  0  0  0  0  0  0  0
   -0.4652    2.6183    0.0000 H   0  0  0  0  0  0  0  0  0  0  0  0
   -3.0637    2.6298    0.0000 C   0  0  0  0  0  0  0  0  0  0  0  0
   -3.0706    1.1299    0.0000 H   0  0  0  0  0  0  0  0  0  0  0  0
   -4.3592    3.3860    0.0000 C   0  0  0  0  0  0  0  0  0  0  0  0
   -4.3516    4.8868    0.0000 C   0  0  0  0  0  0  0  0  0  0  0  0
   -3.0485    5.6315    0.0000 C   0  0  0  0  0  0  0  0  0  0  0  0
   -3.0416    7.1314    0.0000 O   0  0  0  0  0  0  0  0  0  0  0  0
   -4.3371    7.8874    0.0000 H   0  0  0  0  0  0  0  0  0  0  0  0
   -5.6470    5.6430    0.0000 N   0  0  0  0  0  0  0  0  0  0  0  0
   -5.6399    7.1430    0.0000 H   0  0  0  0  0  0  0  0  0  0  0  0
   -6.9496    4.8992    0.0000 C   0  0  0  0  0  0  0  0  0  0  0  0
   -8.2451    5.6554    0.0000 H   0  0  0  0  0  0  0  0  0  0  0  0
   -6.9567    3.3992    0.0000 O   0  0  0  0  0  0  0  0  0  0  0  0
   -5.6619    2.6424    0.0000 O   0  0  0  0  0  0  0  0  0  0  0  0
   -5.6693    1.1424    0.0000 H   0  0  0  0  0  0  0  0  0  0  0  0
   -1.4088    6.7727    0.0000 O   0  0  0  0  0  0  0  0  0  0  0  0
   -0.8889    8.1797    0.0000 H   0  0  0  0  0  0  0  0  0  0  0  0
  1  2  1  0  0  0  0 
  1  3  1  0  0  0  0 
  1  4  1  0  0  0  0 
  1  5  1  0  0  0  0 
  5  6  1  0  0  0  0 
  5  7  1  0  0  0  0 
  7  8  1  0  0  0  0 
  7  9  1  0  0  0  0 
  7 10  1  0  0  0  0 
 10 11  2  0  0  0  0 
 11 12  1  0  0  0  0 
 11 13  1  0  0  0  0 
 13 14  1  0  0  0  0 
 13 15  2  0  0  0  0 
 15 16  1  0  0  0  0 
 16 17  1  0  0  0  0 
 16 18  2  0  0  0  0 
 10 18  1  0  0  0  0 
 18 19  1  0  0  0  0 
 15 20  1  0  0  0  0 
 20 21  1  0  0  0  0 
 21 22  1  0  0  0  0 
 21 23  1  0  0  0  0 
 21 24  1  0  0  0  0 
  5 25  1  0  0  0  0 
 25 26  1  0  0  0  0 
 25 27  1  0  0  0  0 
 27 28  1  0  0  0  0 
 27 29  1  0  0  0  0 
 27 30  1  0  0  0  0 
 30 31  1  0  0  0  0 
 30 32  1  0  0  0  0 
 32 33  2  0  0  0  0 
 33 34  1  0  0  0  0 
 33 35  1  0  0  0  0 
 35 36  1  0  0  0  0 
 35 37  2  0  0  0  0 
 37 38  1  0  0  0  0 
 38 39  2  0  0  0  0 
 32 39  1  0  0  0  0 
 39 40  1  0  0  0  0 
 40 41  1  0  0  0  0 
 38 42  1  0  0  0  0 
 42 43  1  0  0  0  0 
 42 44  1  0  0  0  0 
 44 45  1  0  0  0  0 
 44 46  2  0  0  0  0 
 37 47  1  0  0  0  0 
 47 48  1  0  0  0  0 
 30 49  1  0  0  0  0 
 49 50  1  0  0  0  0 
M  END
> <Rank>
13

> <Priority_score>
0.332

> <Reaction_type>
aromatic_hydroxylation_(ortho_to_2_substituents)

> <Parent_ID>
46

> <Parent_InChI>
InChI=1S/C19H24N2O4/c1-13(9-14-3-6-16(25-2)7-4-14)20-11-19(24)15-5-8-18(23)17(10-15)21-12-22/h3-8,10,12-13,19-20,23-24H,9,11H2,1-2H3,(H,21,22)

> <Parent_SMILES>
COc1ccc(CC(C)NCC(O)c2ccc(O)c(NC=O)c2)cc1

$$$$
Molecule 46_metabolite 14
  CDK     0516241031

 50 51  0  0  0  0  0  0  0  0999 V2000
    3.3003    3.2438    0.0000 C   0  0  0  0  0  0  0  0  0  0  0  0
    2.1560    4.2136    0.0000 H   0  0  0  0  0  0  0  0  0  0  0  0
    2.1465    2.2853    0.0000 H   0  0  0  0  0  0  0  0  0  0  0  0
    4.0439    1.9411    0.0000 H   0  0  0  0  0  0  0  0  0  0  0  0
    4.7123    3.7499    0.0000 C   0  0  0  0  0  0  0  0  0  0  0  0
    4.9655    2.2714    0.0000 H   0  0  0  0  0  0  0  0  0  0  0  0
    6.2123    3.7425    0.0000 C   0  0  0  0  0  0  0  0  0  0  0  0
    7.6244    4.2486    0.0000 H   0  0  0  0  0  0  0  0  0  0  0  0
    5.9591    5.2210    0.0000 H   0  0  0  0  0  0  0  0  0  0  0  0
    6.9559    2.4398    0.0000 C   0  0  0  0  0  0  0  0  0  0  0  0
    8.4559    2.4398    0.0000 C   0  0  0  0  0  0  0  0  0  0  0  0
    9.1995    3.7425    0.0000 H   0  0  0  0  0  0  0  0  0  0  0  0
    9.2059    1.1698    0.0000 C   0  0  0  0  0  0  0  0  0  0  0  0
   10.7058    1.1895    0.0000 H   0  0  0  0  0  0  0  0  0  0  0  0
    8.4559   -0.1802    0.0000 C   0  0  0  0  0  0  0  0  0  0  0  0
    6.9559   -0.1802    0.0000 C   0  0  0  0  0  0  0  0  0  0  0  0
    6.1952   -1.4730    0.0000 H   0  0  0  0  0  0  0  0  0  0  0  0
    6.2059    1.1698    0.0000 C   0  0  0  0  0  0  0  0  0  0  0  0
    4.7060    1.1895    0.0000 H   0  0  0  0  0  0  0  0  0  0  0  0
    9.2166   -1.4730    0.0000 O   0  0  0  0  0  0  0  0  0  0  0  0
   10.7166   -1.4607    0.0000 C   0  0  0  0  0  0  0  0  0  0  0  0
   11.4772   -2.7535    0.0000 H   0  0  0  0  0  0  0  0  0  0  0  0
   12.1218   -0.9360    0.0000 H   0  0  0  0  0  0  0  0  0  0  0  0
   10.4439    0.0143    0.0000 H   0  0  0  0  0  0  0  0  0  0  0  0
    3.9687    5.0526    0.0000 N   0  0  0  0  0  0  0  0  0  0  0  0
    4.7251    6.3479    0.0000 H   0  0  0  0  0  0  0  0  0  0  0  0
    1.9888    5.0623    0.0000 C   0  0  0  0  0  0  0  0  0  0  0  0
    0.5767    4.5562    0.0000 H   0  0  0  0  0  0  0  0  0  0  0  0
    1.4688    3.6553    0.0000 H   0  0  0  0  0  0  0  0  0  0  0  0
    1.2452    6.3650    0.0000 C   0  0  0  0  0  0  0  0  0  0  0  0
   -0.2548    6.3724    0.0000 C   0  0  0  0  0  0  0  0  0  0  0  0
   -1.0027    5.0812    0.0000 C   0  0  0  0  0  0  0  0  0  0  0  0
   -0.2525    3.7822    0.0000 H   0  0  0  0  0  0  0  0  0  0  0  0
   -2.5027    5.0787    0.0000 C   0  0  0  0  0  0  0  0  0  0  0  0
   -3.2336    3.7688    0.0000 H   0  0  0  0  0  0  0  0  0  0  0  0
   -3.2948    6.3674    0.0000 C   0  0  0  0  0  0  0  0  0  0  0  0
   -2.5070    7.6987    0.0000 C   0  0  0  0  0  0  0  0  0  0  0  0
   -1.0070    7.7012    0.0000 C   0  0  0  0  0  0  0  0  0  0  0  0
   -0.2526    8.9976    0.0000 H   0  0  0  0  0  0  0  0  0  0  0  0
   -3.2511    9.0011    0.0000 N   0  0  0  0  0  0  0  0  0  0  0  0
   -4.7511    9.0079    0.0000 H   0  0  0  0  0  0  0  0  0  0  0  0
   -2.4953   10.2967    0.0000 C   0  0  0  0  0  0  0  0  0  0  0  0
   -3.2394   11.5992    0.0000 H   0  0  0  0  0  0  0  0  0  0  0  0
   -0.9953   10.2899    0.0000 O   0  0  0  0  0  0  0  0  0  0  0  0
   -4.7948    6.3547    0.0000 O   0  0  0  0  0  0  0  0  0  0  0  0
   -5.5557    7.6474    0.0000 H   0  0  0  0  0  0  0  0  0  0  0  0
    2.6572    6.8711    0.0000 O   0  0  0  0  0  0  0  0  0  0  0  0
    2.9250    8.3470    0.0000 H   0  0  0  0  0  0  0  0  0  0  0  0
    0.9920    7.8435    0.0000 O   0  0  0  0  0  0  0  0  0  0  0  0
    2.1458    8.8020    0.0000 H   0  0  0  0  0  0  0  0  0  0  0  0
  1  2  1  0  0  0  0 
  1  3  1  0  0  0  0 
  1  4  1  0  0  0  0 
  1  5  1  0  0  0  0 
  5  6  1  0  0  0  0 
  5  7  1  0  0  0  0 
  7  8  1  0  0  0  0 
  7  9  1  0  0  0  0 
  7 10  1  0  0  0  0 
 10 11  2  0  0  0  0 
 11 12  1  0  0  0  0 
 11 13  1  0  0  0  0 
 13 14  1  0  0  0  0 
 13 15  2  0  0  0  0 
 15 16  1  0  0  0  0 
 16 17  1  0  0  0  0 
 16 18  2  0  0  0  0 
 10 18  1  0  0  0  0 
 18 19  1  0  0  0  0 
 15 20  1  0  0  0  0 
 20 21  1  0  0  0  0 
 21 22  1  0  0  0  0 
 21 23  1  0  0  0  0 
 21 24  1  0  0  0  0 
  5 25  1  0  0  0  0 
 25 26  1  0  0  0  0 
 25 27  1  0  0  0  0 
 27 28  1  0  0  0  0 
 27 29  1  0  0  0  0 
 27 30  1  0  0  0  0 
 30 31  1  0  0  0  0 
 31 32  2  0  0  0  0 
 32 33  1  0  0  0  0 
 32 34  1  0  0  0  0 
 34 35  1  0  0  0  0 
 34 36  2  0  0  0  0 
 36 37  1  0  0  0  0 
 37 38  2  0  0  0  0 
 31 38  1  0  0  0  0 
 38 39  1  0  0  0  0 
 37 40  1  0  0  0  0 
 40 41  1  0  0  0  0 
 40 42  1  0  0  0  0 
 42 43  1  0  0  0  0 
 42 44  2  0  0  0  0 
 36 45  1  0  0  0  0 
 45 46  1  0  0  0  0 
 30 47  1  0  0  0  0 
 47 48  1  0  0  0  0 
 30 49  1  0  0  0  0 
 49 50  1  0  0  0  0 
M  END
> <Rank>
13

> <Priority_score>
0.332

> <Reaction_type>
aliphatic hydroxylation

> <Parent_ID>
46

> <Parent_InChI>
InChI=1S/C19H24N2O4/c1-13(9-14-3-6-16(25-2)7-4-14)20-11-19(24)15-5-8-18(23)17(10-15)21-12-22/h3-8,10,12-13,19-20,23-24H,9,11H2,1-2H3,(H,21,22)

> <Parent_SMILES>
COc1ccc(CC(C)NCC(O)c2ccc(O)c(NC=O)c2)cc1

$$$$
Molecule 46_metabolite 15
  CDK     0516241031

 53 54  0  0  0  0  0  0  0  0999 V2000
    3.8677   -0.7991    0.0000 C   0  0  0  0  0  0  0  0  0  0  0  0
    2.3918   -0.5313    0.0000 H   0  0  0  0  0  0  0  0  0  0  0  0
    3.3477   -2.2061    0.0000 H   0  0  0  0  0  0  0  0  0  0  0  0
    5.1630   -1.5554    0.0000 H   0  0  0  0  0  0  0  0  0  0  0  0
    4.8375    0.3452    0.0000 C   0  0  0  0  0  0  0  0  0  0  0  0
    5.7961   -0.8086    0.0000 H   0  0  0  0  0  0  0  0  0  0  0  0
    6.1403    1.0888    0.0000 C   0  0  0  0  0  0  0  0  0  0  0  0
    7.1101    2.2332    0.0000 H   0  0  0  0  0  0  0  0  0  0  0  0
    5.1817    2.2426    0.0000 H   0  0  0  0  0  0  0  0  0  0  0  0
    7.4356    0.3325    0.0000 C   0  0  0  0  0  0  0  0  0  0  0  0
    8.7346    1.0825    0.0000 C   0  0  0  0  0  0  0  0  0  0  0  0
    8.7272    2.5824    0.0000 H   0  0  0  0  0  0  0  0  0  0  0  0
   10.0191    0.3576    0.0000 C   0  0  0  0  0  0  0  0  0  0  0  0
   11.3082    1.1247    0.0000 H   0  0  0  0  0  0  0  0  0  0  0  0
   10.0446   -1.1865    0.0000 C   0  0  0  0  0  0  0  0  0  0  0  0
    8.7456   -1.9365    0.0000 C   0  0  0  0  0  0  0  0  0  0  0  0
    8.7332   -3.4365    0.0000 H   0  0  0  0  0  0  0  0  0  0  0  0
    7.4211   -1.1424    0.0000 C   0  0  0  0  0  0  0  0  0  0  0  0
    6.1123   -1.8752    0.0000 H   0  0  0  0  0  0  0  0  0  0  0  0
   11.3498   -1.9258    0.0000 O   0  0  0  0  0  0  0  0  0  0  0  0
   12.6426   -1.1651    0.0000 C   0  0  0  0  0  0  0  0  0  0  0  0
   13.9478   -1.9044    0.0000 H   0  0  0  0  0  0  0  0  0  0  0  0
   13.5973   -0.0081    0.0000 H   0  0  0  0  0  0  0  0  0  0  0  0
   11.6690   -0.0240    0.0000 H   0  0  0  0  0  0  0  0  0  0  0  0
    3.5422    1.1016    0.0000 N   0  0  0  0  0  0  0  0  0  0  0  0
    3.5496    2.6016    0.0000 H   0  0  0  0  0  0  0  0  0  0  0  0
    1.8226    0.1201    0.0000 C   0  0  0  0  0  0  0  0  0  0  0  0
    0.8528   -1.0242    0.0000 H   0  0  0  0  0  0  0  0  0  0  0  0
    2.0758   -1.3584    0.0000 H   0  0  0  0  0  0  0  0  0  0  0  0
    0.5273    0.8765    0.0000 C   0  0  0  0  0  0  0  0  0  0  0  0
    1.4971    2.0208    0.0000 H   0  0  0  0  0  0  0  0  0  0  0  0
   -0.7379    2.3995    0.0000 C   0  0  0  0  0  0  0  0  0  0  0  0
   -2.2078    2.1424    0.0000 C   0  0  0  0  0  0  0  0  0  0  0  0
   -2.7206    0.7328    0.0000 H   0  0  0  0  0  0  0  0  0  0  0  0
   -3.1739    3.2898    0.0000 C   0  0  0  0  0  0  0  0  0  0  0  0
   -4.6471    3.0078    0.0000 H   0  0  0  0  0  0  0  0  0  0  0  0
   -2.6959    4.7250    0.0000 C   0  0  0  0  0  0  0  0  0  0  0  0
   -1.1697    4.9773    0.0000 C   0  0  0  0  0  0  0  0  0  0  0  0
   -0.2036    3.8298    0.0000 C   0  0  0  0  0  0  0  0  0  0  0  0
    1.2745    4.0852    0.0000 H   0  0  0  0  0  0  0  0  0  0  0  0
   -0.6503    6.3845    0.0000 N   0  0  0  0  0  0  0  0  0  0  0  0
    0.8281    6.6383    0.0000 H   0  0  0  0  0  0  0  0  0  0  0  0
   -1.6092    7.5379    0.0000 C   0  0  0  0  0  0  0  0  0  0  0  0
   -1.0898    8.9451    0.0000 H   0  0  0  0  0  0  0  0  0  0  0  0
   -3.0876    7.2841    0.0000 O   0  0  0  0  0  0  0  0  0  0  0  0
   -3.6697    5.8659    0.0000 O   0  0  0  0  0  0  0  0  0  0  0  0
   -5.1447    5.5930    0.0000 H   0  0  0  0  0  0  0  0  0  0  0  0
   -0.7754    0.1329    0.0000 O   0  0  0  0  0  0  0  0  0  0  0  0
   -0.7828   -1.3671    0.0000 S   0  0  0  0  0  0  0  0  0  0  0  0
   -2.0781   -0.6107    0.0000 O   0  0  0  0  0  0  0  0  0  0  0  0
   -1.3028   -2.7741    0.0000 O   0  0  0  0  0  0  0  0  0  0  0  0
    0.9270   -2.3655    0.0000 O   0  0  0  0  0  0  0  0  0  0  0  0
    0.9196   -3.8655    0.0000 H   0  0  0  0  0  0  0  0  0  0  0  0
  1  2  1  0  0  0  0 
  1  3  1  0  0  0  0 
  1  4  1  0  0  0  0 
  1  5  1  0  0  0  0 
  5  6  1  0  0  0  0 
  5  7  1  0  0  0  0 
  7  8  1  0  0  0  0 
  7  9  1  0  0  0  0 
  7 10  1  0  0  0  0 
 10 11  2  0  0  0  0 
 11 12  1  0  0  0  0 
 11 13  1  0  0  0  0 
 13 14  1  0  0  0  0 
 13 15  2  0  0  0  0 
 15 16  1  0  0  0  0 
 16 17  1  0  0  0  0 
 16 18  2  0  0  0  0 
 10 18  1  0  0  0  0 
 18 19  1  0  0  0  0 
 15 20  1  0  0  0  0 
 20 21  1  0  0  0  0 
 21 22  1  0  0  0  0 
 21 23  1  0  0  0  0 
 21 24  1  0  0  0  0 
  5 25  1  0  0  0  0 
 25 26  1  0  0  0  0 
 25 27  1  0  0  0  0 
 27 28  1  0  0  0  0 
 27 29  1  0  0  0  0 
 27 30  1  0  0  0  0 
 30 31  1  0  0  0  0 
 30 32  1  0  0  0  0 
 32 33  2  0  0  0  0 
 33 34  1  0  0  0  0 
 33 35  1  0  0  0  0 
 35 36  1  0  0  0  0 
 35 37  2  0  0  0  0 
 37 38  1  0  0  0  0 
 38 39  2  0  0  0  0 
 32 39  1  0  0  0  0 
 39 40  1  0  0  0  0 
 38 41  1  0  0  0  0 
 41 42  1  0  0  0  0 
 41 43  1  0  0  0  0 
 43 44  1  0  0  0  0 
 43 45  2  0  0  0  0 
 37 46  1  0  0  0  0 
 46 47  1  0  0  0  0 
 30 48  1  0  0  0  0 
 48 49  1  0  0  0  0 
 49 50  2  0  0  0  0 
 49 51  2  0  0  0  0 
 49 52  1  0  0  0  0 
 52 53  1  0  0  0  0 
M  END
> <Rank>
15

> <Priority_score>
0.268

> <Reaction_type>
sulfation_(aliphatic_hydroxyl)

> <Parent_ID>
46

> <Parent_InChI>
InChI=1S/C19H24N2O4/c1-13(9-14-3-6-16(25-2)7-4-14)20-11-19(24)15-5-8-18(23)17(10-15)21-12-22/h3-8,10,12-13,19-20,23-24H,9,11H2,1-2H3,(H,21,22)

> <Parent_SMILES>
COc1ccc(CC(C)NCC(O)c2ccc(O)c(NC=O)c2)cc1

$$$$
Molecule 46_metabolite 16
  CDK     0516241031

 50 51  0  0  0  0  0  0  0  0999 V2000
    4.8592    2.8493    0.0000 C   0  0  0  0  0  0  0  0  0  0  0  0
    3.3833    3.1171    0.0000 H   0  0  0  0  0  0  0  0  0  0  0  0
    4.3393    1.4423    0.0000 H   0  0  0  0  0  0  0  0  0  0  0  0
    6.1546    2.0929    0.0000 H   0  0  0  0  0  0  0  0  0  0  0  0
    5.8291    3.9936    0.0000 C   0  0  0  0  0  0  0  0  0  0  0  0
    6.7876    2.8398    0.0000 H   0  0  0  0  0  0  0  0  0  0  0  0
    7.1318    4.7372    0.0000 C   0  0  0  0  0  0  0  0  0  0  0  0
    8.1016    5.8815    0.0000 H   0  0  0  0  0  0  0  0  0  0  0  0
    6.1733    5.8910    0.0000 H   0  0  0  0  0  0  0  0  0  0  0  0
    8.4271    3.9808    0.0000 C   0  0  0  0  0  0  0  0  0  0  0  0
    9.7261    4.7308    0.0000 C   0  0  0  0  0  0  0  0  0  0  0  0
    9.7188    6.2308    0.0000 H   0  0  0  0  0  0  0  0  0  0  0  0
   11.0107    4.0060    0.0000 C   0  0  0  0  0  0  0  0  0  0  0  0
   12.2997    4.7730    0.0000 H   0  0  0  0  0  0  0  0  0  0  0  0
   11.0361    2.4619    0.0000 C   0  0  0  0  0  0  0  0  0  0  0  0
    9.7371    1.7119    0.0000 C   0  0  0  0  0  0  0  0  0  0  0  0
    9.7247    0.2119    0.0000 H   0  0  0  0  0  0  0  0  0  0  0  0
    8.4126    2.5060    0.0000 C   0  0  0  0  0  0  0  0  0  0  0  0
    7.1038    1.7732    0.0000 H   0  0  0  0  0  0  0  0  0  0  0  0
   12.3413    1.7226    0.0000 O   0  0  0  0  0  0  0  0  0  0  0  0
   13.6341    2.4833    0.0000 C   0  0  0  0  0  0  0  0  0  0  0  0
   14.9393    1.7440    0.0000 H   0  0  0  0  0  0  0  0  0  0  0  0
   14.5888    3.6403    0.0000 H   0  0  0  0  0  0  0  0  0  0  0  0
   12.6605    3.6244    0.0000 H   0  0  0  0  0  0  0  0  0  0  0  0
    4.5337    4.7500    0.0000 N   0  0  0  0  0  0  0  0  0  0  0  0
    4.5411    6.2500    0.0000 H   0  0  0  0  0  0  0  0  0  0  0  0
    2.8141    3.7685    0.0000 C   0  0  0  0  0  0  0  0  0  0  0  0
    1.8443    2.6242    0.0000 H   0  0  0  0  0  0  0  0  0  0  0  0
    3.0673    2.2900    0.0000 H   0  0  0  0  0  0  0  0  0  0  0  0
    1.5188    4.5249    0.0000 C   0  0  0  0  0  0  0  0  0  0  0  0
    2.4886    5.6692    0.0000 H   0  0  0  0  0  0  0  0  0  0  0  0
    0.2161    3.7813    0.0000 C   0  0  0  0  0  0  0  0  0  0  0  0
    0.2141    2.2891    0.0000 C   0  0  0  0  0  0  0  0  0  0  0  0
    1.5132    1.5393    0.0000 H   0  0  0  0  0  0  0  0  0  0  0  0
   -1.0837    1.5369    0.0000 C   0  0  0  0  0  0  0  0  0  0  0  0
   -1.0618    0.0371    0.0000 H   0  0  0  0  0  0  0  0  0  0  0  0
   -2.4141    2.2569    0.0000 C   0  0  0  0  0  0  0  0  0  0  0  0
   -2.3975    3.8037    0.0000 C   0  0  0  0  0  0  0  0  0  0  0  0
   -1.0997    4.5559    0.0000 C   0  0  0  0  0  0  0  0  0  0  0  0
   -1.0946    6.0559    0.0000 H   0  0  0  0  0  0  0  0  0  0  0  0
   -3.6931    4.5596    0.0000 N   0  0  0  0  0  0  0  0  0  0  0  0
   -4.9955    3.8155    0.0000 H   0  0  0  0  0  0  0  0  0  0  0  0
   -3.6863    6.0596    0.0000 C   0  0  0  0  0  0  0  0  0  0  0  0
   -2.3839    6.8037    0.0000 O   0  0  0  0  0  0  0  0  0  0  0  0
   -4.9820    6.8155    0.0000 O   0  0  0  0  0  0  0  0  0  0  0  0
   -4.9752    8.3155    0.0000 H   0  0  0  0  0  0  0  0  0  0  0  0
   -3.7068    1.4960    0.0000 O   0  0  0  0  0  0  0  0  0  0  0  0
   -5.0121    2.2350    0.0000 H   0  0  0  0  0  0  0  0  0  0  0  0
    0.5603    5.6787    0.0000 O   0  0  0  0  0  0  0  0  0  0  0  0
    1.0803    7.0856    0.0000 H   0  0  0  0  0  0  0  0  0  0  0  0
  1  2  1  0  0  0  0 
  1  3  1  0  0  0  0 
  1  4  1  0  0  0  0 
  1  5  1  0  0  0  0 
  5  6  1  0  0  0  0 
  5  7  1  0  0  0  0 
  7  8  1  0  0  0  0 
  7  9  1  0  0  0  0 
  7 10  1  0  0  0  0 
 10 11  2  0  0  0  0 
 11 12  1  0  0  0  0 
 11 13  1  0  0  0  0 
 13 14  1  0  0  0  0 
 13 15  2  0  0  0  0 
 15 16  1  0  0  0  0 
 16 17  1  0  0  0  0 
 16 18  2  0  0  0  0 
 10 18  1  0  0  0  0 
 18 19  1  0  0  0  0 
 15 20  1  0  0  0  0 
 20 21  1  0  0  0  0 
 21 22  1  0  0  0  0 
 21 23  1  0  0  0  0 
 21 24  1  0  0  0  0 
  5 25  1  0  0  0  0 
 25 26  1  0  0  0  0 
 25 27  1  0  0  0  0 
 27 28  1  0  0  0  0 
 27 29  1  0  0  0  0 
 27 30  1  0  0  0  0 
 30 31  1  0  0  0  0 
 30 32  1  0  0  0  0 
 32 33  2  0  0  0  0 
 33 34  1  0  0  0  0 
 33 35  1  0  0  0  0 
 35 36  1  0  0  0  0 
 35 37  2  0  0  0  0 
 37 38  1  0  0  0  0 
 38 39  2  0  0  0  0 
 32 39  1  0  0  0  0 
 39 40  1  0  0  0  0 
 38 41  1  0  0  0  0 
 41 42  1  0  0  0  0 
 41 43  1  0  0  0  0 
 43 44  2  0  0  0  0 
 43 45  1  0  0  0  0 
 45 46  1  0  0  0  0 
 37 47  1  0  0  0  0 
 47 48  1  0  0  0  0 
 30 49  1  0  0  0  0 
 49 50  1  0  0  0  0 
M  END
> <Rank>
16

> <Priority_score>
0.196

> <Reaction_type>
aldehyde oxidation

> <Parent_ID>
46

> <Parent_InChI>
InChI=1S/C19H24N2O4/c1-13(9-14-3-6-16(25-2)7-4-14)20-11-19(24)15-5-8-18(23)17(10-15)21-12-22/h3-8,10,12-13,19-20,23-24H,9,11H2,1-2H3,(H,21,22)

> <Parent_SMILES>
COc1ccc(CC(C)NCC(O)c2ccc(O)c(NC=O)c2)cc1

$$$$
Molecule 46_metabolite 17
  CDK     0516241031

  3  2  0  0  0  0  0  0  0  0999 V2000
    1.2990   -0.7500    0.0000 C   0  0  0  0  0  0  0  0  0  0  0  0
   -0.2010   -0.7500    0.0000 O   0  0  0  0  0  0  0  0  0  0  0  0
    2.7990   -0.7500    0.0000 O   0  0  0  0  0  0  0  0  0  0  0  0
  1  2  2  0  0  0  0 
  1  3  2  0  0  0  0 
M  END
> <Rank>
16

> <Priority_score>
0.196

> <Reaction_type>
N-dealkylation

> <Parent_ID>
46

> <Parent_InChI>
InChI=1S/C19H24N2O4/c1-13(9-14-3-6-16(25-2)7-4-14)20-11-19(24)15-5-8-18(23)17(10-15)21-12-22/h3-8,10,12-13,19-20,23-24H,9,11H2,1-2H3,(H,21,22)

> <Parent_SMILES>
COc1ccc(CC(C)NCC(O)c2ccc(O)c(NC=O)c2)cc1

$$$$
Molecule 46_metabolite 18
  CDK     0516241031

 47 48  0  0  0  0  0  0  0  0999 V2000
    2.6491    3.8950    0.0000 C   0  0  0  0  0  0  0  0  0  0  0  0
    1.5048    4.8648    0.0000 H   0  0  0  0  0  0  0  0  0  0  0  0
    1.4953    2.9365    0.0000 H   0  0  0  0  0  0  0  0  0  0  0  0
    3.3927    2.5923    0.0000 H   0  0  0  0  0  0  0  0  0  0  0  0
    4.0611    4.4011    0.0000 C   0  0  0  0  0  0  0  0  0  0  0  0
    4.3143    2.9226    0.0000 H   0  0  0  0  0  0  0  0  0  0  0  0
    5.5611    4.3937    0.0000 C   0  0  0  0  0  0  0  0  0  0  0  0
    6.9732    4.8998    0.0000 H   0  0  0  0  0  0  0  0  0  0  0  0
    5.3079    5.8722    0.0000 H   0  0  0  0  0  0  0  0  0  0  0  0
    6.3047    3.0910    0.0000 C   0  0  0  0  0  0  0  0  0  0  0  0
    7.8047    3.0910    0.0000 C   0  0  0  0  0  0  0  0  0  0  0  0
    8.5483    4.3937    0.0000 H   0  0  0  0  0  0  0  0  0  0  0  0
    8.5547    1.8210    0.0000 C   0  0  0  0  0  0  0  0  0  0  0  0
   10.0546    1.8407    0.0000 H   0  0  0  0  0  0  0  0  0  0  0  0
    7.8047    0.4710    0.0000 C   0  0  0  0  0  0  0  0  0  0  0  0
    6.3047    0.4710    0.0000 C   0  0  0  0  0  0  0  0  0  0  0  0
    5.5440   -0.8218    0.0000 H   0  0  0  0  0  0  0  0  0  0  0  0
    5.5547    1.8210    0.0000 C   0  0  0  0  0  0  0  0  0  0  0  0
    4.0548    1.8407    0.0000 H   0  0  0  0  0  0  0  0  0  0  0  0
    8.5654   -0.8218    0.0000 O   0  0  0  0  0  0  0  0  0  0  0  0
   10.0653   -0.8095    0.0000 C   0  0  0  0  0  0  0  0  0  0  0  0
   10.8260   -2.1023    0.0000 H   0  0  0  0  0  0  0  0  0  0  0  0
   11.4706   -0.2848    0.0000 H   0  0  0  0  0  0  0  0  0  0  0  0
    9.7927    0.6656    0.0000 H   0  0  0  0  0  0  0  0  0  0  0  0
    3.3175    5.7038    0.0000 N   0  0  0  0  0  0  0  0  0  0  0  0
    4.0739    6.9991    0.0000 H   0  0  0  0  0  0  0  0  0  0  0  0
    1.3375    5.7135    0.0000 C   0  0  0  0  0  0  0  0  0  0  0  0
   -0.0745    5.2074    0.0000 H   0  0  0  0  0  0  0  0  0  0  0  0
    1.0698    4.2376    0.0000 H   0  0  0  0  0  0  0  0  0  0  0  0
    0.5940    7.0162    0.0000 C   0  0  0  0  0  0  0  0  0  0  0  0
    2.0060    7.5223    0.0000 H   0  0  0  0  0  0  0  0  0  0  0  0
   -0.9060    7.0236    0.0000 C   0  0  0  0  0  0  0  0  0  0  0  0
   -1.6539    5.7324    0.0000 C   0  0  0  0  0  0  0  0  0  0  0  0
   -0.9037    4.4335    0.0000 H   0  0  0  0  0  0  0  0  0  0  0  0
   -3.1539    5.7299    0.0000 C   0  0  0  0  0  0  0  0  0  0  0  0
   -3.8848    4.4200    0.0000 H   0  0  0  0  0  0  0  0  0  0  0  0
   -3.9460    7.0186    0.0000 C   0  0  0  0  0  0  0  0  0  0  0  0
   -3.1582    8.3499    0.0000 C   0  0  0  0  0  0  0  0  0  0  0  0
   -1.6582    8.3524    0.0000 C   0  0  0  0  0  0  0  0  0  0  0  0
   -0.9038    9.6489    0.0000 H   0  0  0  0  0  0  0  0  0  0  0  0
   -3.9023    9.6523    0.0000 N   0  0  0  0  0  0  0  0  0  0  0  0
   -5.4023    9.6591    0.0000 H   0  0  0  0  0  0  0  0  0  0  0  0
   -3.1465   10.9479    0.0000 H   0  0  0  0  0  0  0  0  0  0  0  0
   -5.4460    7.0060    0.0000 O   0  0  0  0  0  0  0  0  0  0  0  0
   -6.2069    8.2986    0.0000 H   0  0  0  0  0  0  0  0  0  0  0  0
    0.3408    8.4947    0.0000 O   0  0  0  0  0  0  0  0  0  0  0  0
    1.4946    9.4532    0.0000 H   0  0  0  0  0  0  0  0  0  0  0  0
  1  2  1  0  0  0  0 
  1  3  1  0  0  0  0 
  1  4  1  0  0  0  0 
  1  5  1  0  0  0  0 
  5  6  1  0  0  0  0 
  5  7  1  0  0  0  0 
  7  8  1  0  0  0  0 
  7  9  1  0  0  0  0 
  7 10  1  0  0  0  0 
 10 11  2  0  0  0  0 
 11 12  1  0  0  0  0 
 11 13  1  0  0  0  0 
 13 14  1  0  0  0  0 
 13 15  2  0  0  0  0 
 15 16  1  0  0  0  0 
 16 17  1  0  0  0  0 
 16 18  2  0  0  0  0 
 10 18  1  0  0  0  0 
 18 19  1  0  0  0  0 
 15 20  1  0  0  0  0 
 20 21  1  0  0  0  0 
 21 22  1  0  0  0  0 
 21 23  1  0  0  0  0 
 21 24  1  0  0  0  0 
  5 25  1  0  0  0  0 
 25 26  1  0  0  0  0 
 25 27  1  0  0  0  0 
 27 28  1  0  0  0  0 
 27 29  1  0  0  0  0 
 27 30  1  0  0  0  0 
 30 31  1  0  0  0  0 
 30 32  1  0  0  0  0 
 32 33  2  0  0  0  0 
 33 34  1  0  0  0  0 
 33 35  1  0  0  0  0 
 35 36  1  0  0  0  0 
 35 37  2  0  0  0  0 
 37 38  1  0  0  0  0 
 38 39  2  0  0  0  0 
 32 39  1  0  0  0  0 
 39 40  1  0  0  0  0 
 38 41  1  0  0  0  0 
 41 42  1  0  0  0  0 
 41 43  1  0  0  0  0 
 37 44  1  0  0  0  0 
 44 45  1  0  0  0  0 
 30 46  1  0  0  0  0 
 46 47  1  0  0  0  0 
M  END
> <Rank>
16

> <Priority_score>
0.196

> <Reaction_type>
N-deformylation

> <Parent_ID>
46

> <Parent_InChI>
InChI=1S/C19H24N2O4/c1-13(9-14-3-6-16(25-2)7-4-14)20-11-19(24)15-5-8-18(23)17(10-15)21-12-22/h3-8,10,12-13,19-20,23-24H,9,11H2,1-2H3,(H,21,22)

> <Parent_SMILES>
COc1ccc(CC(C)NCC(O)c2ccc(O)c(NC=O)c2)cc1

$$$$
Molecule 46_metabolite 19
  CDK     0516241031

 50 51  0  0  0  0  0  0  0  0999 V2000
    3.8875    3.4103    0.0000 C   0  0  0  0  0  0  0  0  0  0  0  0
    2.4116    3.6781    0.0000 H   0  0  0  0  0  0  0  0  0  0  0  0
    3.3676    2.0034    0.0000 H   0  0  0  0  0  0  0  0  0  0  0  0
    5.1828    2.6540    0.0000 H   0  0  0  0  0  0  0  0  0  0  0  0
    4.8573    4.5547    0.0000 C   0  0  0  0  0  0  0  0  0  0  0  0
    5.8159    3.4009    0.0000 H   0  0  0  0  0  0  0  0  0  0  0  0
    6.1601    5.2983    0.0000 C   0  0  0  0  0  0  0  0  0  0  0  0
    7.1299    6.4426    0.0000 H   0  0  0  0  0  0  0  0  0  0  0  0
    5.2015    6.4520    0.0000 H   0  0  0  0  0  0  0  0  0  0  0  0
    7.4554    4.5419    0.0000 C   0  0  0  0  0  0  0  0  0  0  0  0
    8.7544    5.2919    0.0000 C   0  0  0  0  0  0  0  0  0  0  0  0
    8.7470    6.7918    0.0000 H   0  0  0  0  0  0  0  0  0  0  0  0
   10.0389    4.5670    0.0000 C   0  0  0  0  0  0  0  0  0  0  0  0
   11.3280    5.3341    0.0000 H   0  0  0  0  0  0  0  0  0  0  0  0
   10.0644    3.0229    0.0000 C   0  0  0  0  0  0  0  0  0  0  0  0
    8.7654    2.2729    0.0000 C   0  0  0  0  0  0  0  0  0  0  0  0
    8.7530    0.7729    0.0000 H   0  0  0  0  0  0  0  0  0  0  0  0
    7.4409    3.0670    0.0000 C   0  0  0  0  0  0  0  0  0  0  0  0
    6.1321    2.3342    0.0000 H   0  0  0  0  0  0  0  0  0  0  0  0
   11.3696    2.2836    0.0000 O   0  0  0  0  0  0  0  0  0  0  0  0
   12.6624    3.0443    0.0000 C   0  0  0  0  0  0  0  0  0  0  0  0
   13.9676    2.3051    0.0000 H   0  0  0  0  0  0  0  0  0  0  0  0
   13.6171    4.2013    0.0000 H   0  0  0  0  0  0  0  0  0  0  0  0
   11.6888    4.1854    0.0000 H   0  0  0  0  0  0  0  0  0  0  0  0
    3.5620    5.3110    0.0000 N   0  0  0  0  0  0  0  0  0  0  0  0
    3.5694    6.8110    0.0000 H   0  0  0  0  0  0  0  0  0  0  0  0
    1.8424    4.3295    0.0000 C   0  0  0  0  0  0  0  0  0  0  0  0
    0.8726    3.1852    0.0000 H   0  0  0  0  0  0  0  0  0  0  0  0
    2.0956    2.8510    0.0000 H   0  0  0  0  0  0  0  0  0  0  0  0
    0.5471    5.0859    0.0000 C   0  0  0  0  0  0  0  0  0  0  0  0
    1.5169    6.2302    0.0000 H   0  0  0  0  0  0  0  0  0  0  0  0
   -0.7556    4.3423    0.0000 C   0  0  0  0  0  0  0  0  0  0  0  0
   -0.7577    2.8501    0.0000 C   0  0  0  0  0  0  0  0  0  0  0  0
    0.5415    2.1003    0.0000 H   0  0  0  0  0  0  0  0  0  0  0  0
   -2.0554    2.0979    0.0000 C   0  0  0  0  0  0  0  0  0  0  0  0
   -2.0335    0.5981    0.0000 H   0  0  0  0  0  0  0  0  0  0  0  0
   -3.3858    2.8179    0.0000 C   0  0  0  0  0  0  0  0  0  0  0  0
   -3.3692    4.3647    0.0000 C   0  0  0  0  0  0  0  0  0  0  0  0
   -2.0714    5.1169    0.0000 C   0  0  0  0  0  0  0  0  0  0  0  0
   -2.0663    6.6169    0.0000 H   0  0  0  0  0  0  0  0  0  0  0  0
   -4.6648    5.1206    0.0000 N   0  0  0  0  0  0  0  0  0  0  0  0
   -4.6580    6.6206    0.0000 C   0  0  0  0  0  0  0  0  0  0  0  0
   -5.9537    7.3765    0.0000 H   0  0  0  0  0  0  0  0  0  0  0  0
   -3.3556    7.3647    0.0000 O   0  0  0  0  0  0  0  0  0  0  0  0
   -5.9673    4.3765    0.0000 O   0  0  0  0  0  0  0  0  0  0  0  0
   -7.2629    5.1324    0.0000 H   0  0  0  0  0  0  0  0  0  0  0  0
   -4.6785    2.0570    0.0000 O   0  0  0  0  0  0  0  0  0  0  0  0
   -5.9838    2.7960    0.0000 H   0  0  0  0  0  0  0  0  0  0  0  0
   -0.4114    6.2397    0.0000 O   0  0  0  0  0  0  0  0  0  0  0  0
    0.1085    7.6467    0.0000 H   0  0  0  0  0  0  0  0  0  0  0  0
  1  2  1  0  0  0  0 
  1  3  1  0  0  0  0 
  1  4  1  0  0  0  0 
  1  5  1  0  0  0  0 
  5  6  1  0  0  0  0 
  5  7  1  0  0  0  0 
  7  8  1  0  0  0  0 
  7  9  1  0  0  0  0 
  7 10  1  0  0  0  0 
 10 11  2  0  0  0  0 
 11 12  1  0  0  0  0 
 11 13  1  0  0  0  0 
 13 14  1  0  0  0  0 
 13 15  2  0  0  0  0 
 15 16  1  0  0  0  0 
 16 17  1  0  0  0  0 
 16 18  2  0  0  0  0 
 10 18  1  0  0  0  0 
 18 19  1  0  0  0  0 
 15 20  1  0  0  0  0 
 20 21  1  0  0  0  0 
 21 22  1  0  0  0  0 
 21 23  1  0  0  0  0 
 21 24  1  0  0  0  0 
  5 25  1  0  0  0  0 
 25 26  1  0  0  0  0 
 25 27  1  0  0  0  0 
 27 28  1  0  0  0  0 
 27 29  1  0  0  0  0 
 27 30  1  0  0  0  0 
 30 31  1  0  0  0  0 
 30 32  1  0  0  0  0 
 32 33  2  0  0  0  0 
 33 34  1  0  0  0  0 
 33 35  1  0  0  0  0 
 35 36  1  0  0  0  0 
 35 37  2  0  0  0  0 
 37 38  1  0  0  0  0 
 38 39  2  0  0  0  0 
 32 39  1  0  0  0  0 
 39 40  1  0  0  0  0 
 38 41  1  0  0  0  0 
 41 42  1  0  0  0  0 
 42 43  1  0  0  0  0 
 42 44  2  0  0  0  0 
 41 45  1  0  0  0  0 
 45 46  1  0  0  0  0 
 37 47  1  0  0  0  0 
 47 48  1  0  0  0  0 
 30 49  1  0  0  0  0 
 49 50  1  0  0  0  0 
M  END
> <Rank>
16

> <Priority_score>
0.196

> <Reaction_type>
amine hydroxylation

> <Parent_ID>
46

> <Parent_InChI>
InChI=1S/C19H24N2O4/c1-13(9-14-3-6-16(25-2)7-4-14)20-11-19(24)15-5-8-18(23)17(10-15)21-12-22/h3-8,10,12-13,19-20,23-24H,9,11H2,1-2H3,(H,21,22)

> <Parent_SMILES>
COc1ccc(CC(C)NCC(O)c2ccc(O)c(NC=O)c2)cc1

$$$$
Molecule 46_metabolite 20
  CDK     0516241031

 24 24  0  0  0  0  0  0  0  0999 V2000
   -2.5979   -3.2621    0.0000 C   0  0  0  0  0  0  0  0  0  0  0  0
   -3.8932   -2.5057    0.0000 H   0  0  0  0  0  0  0  0  0  0  0  0
   -1.6394   -4.4159    0.0000 H   0  0  0  0  0  0  0  0  0  0  0  0
   -3.5677   -4.4064    0.0000 H   0  0  0  0  0  0  0  0  0  0  0  0
   -1.2952   -2.5185    0.0000 C   0  0  0  0  0  0  0  0  0  0  0  0
    0.0001   -3.2749    0.0000 O   0  0  0  0  0  0  0  0  0  0  0  0
   -1.2878   -1.0185    0.0000 C   0  0  0  0  0  0  0  0  0  0  0  0
   -1.7939    0.3935    0.0000 H   0  0  0  0  0  0  0  0  0  0  0  0
   -2.7663   -1.2717    0.0000 H   0  0  0  0  0  0  0  0  0  0  0  0
    0.0149   -0.2749    0.0000 C   0  0  0  0  0  0  0  0  0  0  0  0
    0.0149    1.2251    0.0000 C   0  0  0  0  0  0  0  0  0  0  0  0
   -1.2878    1.9687    0.0000 H   0  0  0  0  0  0  0  0  0  0  0  0
    1.2849    1.9751    0.0000 C   0  0  0  0  0  0  0  0  0  0  0  0
    1.2651    3.4749    0.0000 H   0  0  0  0  0  0  0  0  0  0  0  0
    2.6349    1.2251    0.0000 C   0  0  0  0  0  0  0  0  0  0  0  0
    2.6349   -0.2749    0.0000 C   0  0  0  0  0  0  0  0  0  0  0  0
    3.9277   -1.0356    0.0000 H   0  0  0  0  0  0  0  0  0  0  0  0
    1.2849   -1.0249    0.0000 C   0  0  0  0  0  0  0  0  0  0  0  0
    1.2651   -2.5248    0.0000 H   0  0  0  0  0  0  0  0  0  0  0  0
    3.9277    1.9858    0.0000 O   0  0  0  0  0  0  0  0  0  0  0  0
    3.9153    3.4857    0.0000 C   0  0  0  0  0  0  0  0  0  0  0  0
    5.2081    4.2464    0.0000 H   0  0  0  0  0  0  0  0  0  0  0  0
    3.3907    4.8910    0.0000 H   0  0  0  0  0  0  0  0  0  0  0  0
    2.4403    3.2131    0.0000 H   0  0  0  0  0  0  0  0  0  0  0  0
  1  2  1  0  0  0  0 
  1  3  1  0  0  0  0 
  1  4  1  0  0  0  0 
  1  5  1  0  0  0  0 
  5  6  2  0  0  0  0 
  5  7  1  0  0  0  0 
  7  8  1  0  0  0  0 
  7  9  1  0  0  0  0 
  7 10  1  0  0  0  0 
 10 11  2  0  0  0  0 
 11 12  1  0  0  0  0 
 11 13  1  0  0  0  0 
 13 14  1  0  0  0  0 
 13 15  2  0  0  0  0 
 15 16  1  0  0  0  0 
 16 17  1  0  0  0  0 
 16 18  2  0  0  0  0 
 10 18  1  0  0  0  0 
 18 19  1  0  0  0  0 
 15 20  1  0  0  0  0 
 20 21  1  0  0  0  0 
 21 22  1  0  0  0  0 
 21 23  1  0  0  0  0 
 21 24  1  0  0  0  0 
M  END
> <Rank>
20

> <Priority_score>
0.176

> <Reaction_type>
N-dealkylation

> <Parent_ID>
46

> <Parent_InChI>
InChI=1S/C19H24N2O4/c1-13(9-14-3-6-16(25-2)7-4-14)20-11-19(24)15-5-8-18(23)17(10-15)21-12-22/h3-8,10,12-13,19-20,23-24H,9,11H2,1-2H3,(H,21,22)

> <Parent_SMILES>
COc1ccc(CC(C)NCC(O)c2ccc(O)c(NC=O)c2)cc1

$$$$
Molecule 46_metabolite 21
  CDK     0516241031

 26 26  0  0  0  0  0  0  0  0999 V2000
   -0.6465   -3.2830    0.0000 C   0  0  0  0  0  0  0  0  0  0  0  0
   -0.6487   -4.7830    0.0000 H   0  0  0  0  0  0  0  0  0  0  0  0
    0.6480   -2.5408    0.0000 C   0  0  0  0  0  0  0  0  0  0  0  0
    0.6635   -1.0140    0.0000 C   0  0  0  0  0  0  0  0  0  0  0  0
    1.9663   -0.2706    0.0000 H   0  0  0  0  0  0  0  0  0  0  0  0
   -0.6355   -0.2640    0.0000 C   0  0  0  0  0  0  0  0  0  0  0  0
   -1.9847   -1.0208    0.0000 C   0  0  0  0  0  0  0  0  0  0  0  0
   -1.9455   -2.5330    0.0000 C   0  0  0  0  0  0  0  0  0  0  0  0
   -3.2347   -3.2997    0.0000 H   0  0  0  0  0  0  0  0  0  0  0  0
   -3.2887   -0.2796    0.0000 O   0  0  0  0  0  0  0  0  0  0  0  0
   -4.5827   -1.0383    0.0000 H   0  0  0  0  0  0  0  0  0  0  0  0
   -0.6262    1.2360    0.0000 N   0  0  0  0  0  0  0  0  0  0  0  0
   -1.9206    1.9940    0.0000 H   0  0  0  0  0  0  0  0  0  0  0  0
    0.6774    1.9779    0.0000 C   0  0  0  0  0  0  0  0  0  0  0  0
    0.6867    3.4779    0.0000 H   0  0  0  0  0  0  0  0  0  0  0  0
    1.9718    1.2199    0.0000 O   0  0  0  0  0  0  0  0  0  0  0  0
    1.9421   -3.2993    0.0000 C   0  0  0  0  0  0  0  0  0  0  0  0
    3.4176   -3.5695    0.0000 H   0  0  0  0  0  0  0  0  0  0  0  0
    1.9322   -4.7993    0.0000 C   0  0  0  0  0  0  0  0  0  0  0  0
    0.4568   -4.5291    0.0000 H   0  0  0  0  0  0  0  0  0  0  0  0
    1.4099   -6.2054    0.0000 H   0  0  0  0  0  0  0  0  0  0  0  0
    3.2263   -5.5578    0.0000 N   0  0  0  0  0  0  0  0  0  0  0  0
    3.2164   -7.0578    0.0000 H   0  0  0  0  0  0  0  0  0  0  0  0
    4.5303   -4.8164    0.0000 H   0  0  0  0  0  0  0  0  0  0  0  0
    2.4644   -1.8932    0.0000 O   0  0  0  0  0  0  0  0  0  0  0  0
    3.9433   -1.6424    0.0000 H   0  0  0  0  0  0  0  0  0  0  0  0
  1  2  1  0  0  0  0 
  1  3  2  0  0  0  0 
  3  4  1  0  0  0  0 
  4  5  1  0  0  0  0 
  4  6  2  0  0  0  0 
  6  7  1  0  0  0  0 
  7  8  2  0  0  0  0 
  1  8  1  0  0  0  0 
  8  9  1  0  0  0  0 
  7 10  1  0  0  0  0 
 10 11  1  0  0  0  0 
  6 12  1  0  0  0  0 
 12 13  1  0  0  0  0 
 12 14  1  0  0  0  0 
 14 15  1  0  0  0  0 
 14 16  2  0  0  0  0 
  3 17  1  0  0  0  0 
 17 18  1  0  0  0  0 
 17 19  1  0  0  0  0 
 19 20  1  0  0  0  0 
 19 21  1  0  0  0  0 
 19 22  1  0  0  0  0 
 22 23  1  0  0  0  0 
 22 24  1  0  0  0  0 
 17 25  1  0  0  0  0 
 25 26  1  0  0  0  0 
M  END
> <Rank>
20

> <Priority_score>
0.176

> <Reaction_type>
N-dealkylation

> <Parent_ID>
46

> <Parent_InChI>
InChI=1S/C19H24N2O4/c1-13(9-14-3-6-16(25-2)7-4-14)20-11-19(24)15-5-8-18(23)17(10-15)21-12-22/h3-8,10,12-13,19-20,23-24H,9,11H2,1-2H3,(H,21,22)

> <Parent_SMILES>
COc1ccc(CC(C)NCC(O)c2ccc(O)c(NC=O)c2)cc1

$$$$
Molecule 46_metabolite 22
  CDK     0516241031

 50 51  0  0  0  0  0  0  0  0999 V2000
    2.9854    5.0661    0.0000 C   0  0  0  0  0  0  0  0  0  0  0  0
    4.4613    4.7984    0.0000 H   0  0  0  0  0  0  0  0  0  0  0  0
    3.5053    6.4731    0.0000 H   0  0  0  0  0  0  0  0  0  0  0  0
    1.6900    5.8225    0.0000 H   0  0  0  0  0  0  0  0  0  0  0  0
    2.0155    3.9218    0.0000 C   0  0  0  0  0  0  0  0  0  0  0  0
    0.7128    3.1782    0.0000 C   0  0  0  0  0  0  0  0  0  0  0  0
   -0.2570    2.0339    0.0000 H   0  0  0  0  0  0  0  0  0  0  0  0
    1.6713    2.0244    0.0000 H   0  0  0  0  0  0  0  0  0  0  0  0
   -0.5825    3.9346    0.0000 C   0  0  0  0  0  0  0  0  0  0  0  0
   -1.8815    3.1846    0.0000 C   0  0  0  0  0  0  0  0  0  0  0  0
   -1.8742    1.6846    0.0000 H   0  0  0  0  0  0  0  0  0  0  0  0
   -3.1661    3.9094    0.0000 C   0  0  0  0  0  0  0  0  0  0  0  0
   -4.4551    3.1424    0.0000 H   0  0  0  0  0  0  0  0  0  0  0  0
   -3.1915    5.4536    0.0000 C   0  0  0  0  0  0  0  0  0  0  0  0
   -1.8925    6.2036    0.0000 C   0  0  0  0  0  0  0  0  0  0  0  0
   -1.8801    7.7035    0.0000 H   0  0  0  0  0  0  0  0  0  0  0  0
   -0.5680    5.4094    0.0000 C   0  0  0  0  0  0  0  0  0  0  0  0
    0.7408    6.1423    0.0000 H   0  0  0  0  0  0  0  0  0  0  0  0
   -4.4967    6.1928    0.0000 O   0  0  0  0  0  0  0  0  0  0  0  0
   -5.7895    5.4321    0.0000 C   0  0  0  0  0  0  0  0  0  0  0  0
   -7.0947    6.1714    0.0000 H   0  0  0  0  0  0  0  0  0  0  0  0
   -6.7442    4.2752    0.0000 H   0  0  0  0  0  0  0  0  0  0  0  0
   -4.8159    4.2911    0.0000 H   0  0  0  0  0  0  0  0  0  0  0  0
    3.3109    3.1654    0.0000 N   0  0  0  0  0  0  0  0  0  0  0  0
    3.3035    1.6654    0.0000 H   0  0  0  0  0  0  0  0  0  0  0  0
    5.0304    4.1470    0.0000 C   0  0  0  0  0  0  0  0  0  0  0  0
    6.0003    5.2913    0.0000 H   0  0  0  0  0  0  0  0  0  0  0  0
    4.7772    5.6254    0.0000 H   0  0  0  0  0  0  0  0  0  0  0  0
    6.3258    3.3906    0.0000 C   0  0  0  0  0  0  0  0  0  0  0  0
    5.3560    2.2463    0.0000 H   0  0  0  0  0  0  0  0  0  0  0  0
    7.6285    4.1342    0.0000 C   0  0  0  0  0  0  0  0  0  0  0  0
    7.6305    5.6264    0.0000 C   0  0  0  0  0  0  0  0  0  0  0  0
    6.3314    6.3762    0.0000 H   0  0  0  0  0  0  0  0  0  0  0  0
    8.9283    6.3785    0.0000 C   0  0  0  0  0  0  0  0  0  0  0  0
    8.9064    7.8784    0.0000 H   0  0  0  0  0  0  0  0  0  0  0  0
   10.2587    5.6586    0.0000 C   0  0  0  0  0  0  0  0  0  0  0  0
   10.2421    4.1117    0.0000 C   0  0  0  0  0  0  0  0  0  0  0  0
    8.9443    3.3596    0.0000 C   0  0  0  0  0  0  0  0  0  0  0  0
    8.9392    1.8596    0.0000 H   0  0  0  0  0  0  0  0  0  0  0  0
   11.5377    3.3558    0.0000 N   0  0  0  0  0  0  0  0  0  0  0  0
   12.8401    4.0999    0.0000 H   0  0  0  0  0  0  0  0  0  0  0  0
   11.5309    1.8558    0.0000 C   0  0  0  0  0  0  0  0  0  0  0  0
   12.8265    1.1000    0.0000 H   0  0  0  0  0  0  0  0  0  0  0  0
   10.2285    1.1117    0.0000 O   0  0  0  0  0  0  0  0  0  0  0  0
   11.5514    6.4195    0.0000 O   0  0  0  0  0  0  0  0  0  0  0  0
   12.8567    5.6804    0.0000 H   0  0  0  0  0  0  0  0  0  0  0  0
    7.2843    2.2368    0.0000 O   0  0  0  0  0  0  0  0  0  0  0  0
    6.7643    0.8298    0.0000 H   0  0  0  0  0  0  0  0  0  0  0  0
    1.0570    5.0756    0.0000 O   0  0  0  0  0  0  0  0  0  0  0  0
    1.7434    6.9328    0.0000 H   0  0  0  0  0  0  0  0  0  0  0  0
  1  2  1  0  0  0  0 
  1  3  1  0  0  0  0 
  1  4  1  0  0  0  0 
  1  5  1  0  0  0  0 
  5  6  1  0  0  0  0 
  6  7  1  0  0  0  0 
  6  8  1  0  0  0  0 
  6  9  1  0  0  0  0 
  9 10  2  0  0  0  0 
 10 11  1  0  0  0  0 
 10 12  1  0  0  0  0 
 12 13  1  0  0  0  0 
 12 14  2  0  0  0  0 
 14 15  1  0  0  0  0 
 15 16  1  0  0  0  0 
 15 17  2  0  0  0  0 
  9 17  1  0  0  0  0 
 17 18  1  0  0  0  0 
 14 19  1  0  0  0  0 
 19 20  1  0  0  0  0 
 20 21  1  0  0  0  0 
 20 22  1  0  0  0  0 
 20 23  1  0  0  0  0 
  5 24  1  0  0  0  0 
 24 25  1  0  0  0  0 
 24 26  1  0  0  0  0 
 26 27  1  0  0  0  0 
 26 28  1  0  0  0  0 
 26 29  1  0  0  0  0 
 29 30  1  0  0  0  0 
 29 31  1  0  0  0  0 
 31 32  2  0  0  0  0 
 32 33  1  0  0  0  0 
 32 34  1  0  0  0  0 
 34 35  1  0  0  0  0 
 34 36  2  0  0  0  0 
 36 37  1  0  0  0  0 
 37 38  2  0  0  0  0 
 31 38  1  0  0  0  0 
 38 39  1  0  0  0  0 
 37 40  1  0  0  0  0 
 40 41  1  0  0  0  0 
 40 42  1  0  0  0  0 
 42 43  1  0  0  0  0 
 42 44  2  0  0  0  0 
 36 45  1  0  0  0  0 
 45 46  1  0  0  0  0 
 29 47  1  0  0  0  0 
 47 48  1  0  0  0  0 
  5 49  1  0  0  0  0 
 49 50  1  0  0  0  0 
M  END
> <Rank>
20

> <Priority_score>
0.176

> <Reaction_type>
aliphatic_hydroxylation_(tert_carbon_next_to_SP2)

> <Parent_ID>
46

> <Parent_InChI>
InChI=1S/C19H24N2O4/c1-13(9-14-3-6-16(25-2)7-4-14)20-11-19(24)15-5-8-18(23)17(10-15)21-12-22/h3-8,10,12-13,19-20,23-24H,9,11H2,1-2H3,(H,21,22)

> <Parent_SMILES>
COc1ccc(CC(C)NCC(O)c2ccc(O)c(NC=O)c2)cc1

$$$$
Molecule 46_metabolite 23
  CDK     0516241031

 50 51  0  0  0  0  0  0  0  0999 V2000
    2.6786    5.4353    0.0000 C   0  0  0  0  0  0  0  0  0  0  0  0
    4.1545    5.1676    0.0000 H   0  0  0  0  0  0  0  0  0  0  0  0
    3.1986    6.8423    0.0000 H   0  0  0  0  0  0  0  0  0  0  0  0
    1.3833    6.1917    0.0000 H   0  0  0  0  0  0  0  0  0  0  0  0
    1.7088    4.2910    0.0000 C   0  0  0  0  0  0  0  0  0  0  0  0
    0.7503    5.4448    0.0000 H   0  0  0  0  0  0  0  0  0  0  0  0
    0.4061    3.5474    0.0000 C   0  0  0  0  0  0  0  0  0  0  0  0
   -0.5637    2.4031    0.0000 H   0  0  0  0  0  0  0  0  0  0  0  0
   -0.8892    4.3038    0.0000 C   0  0  0  0  0  0  0  0  0  0  0  0
   -2.1883    3.5538    0.0000 C   0  0  0  0  0  0  0  0  0  0  0  0
   -2.1809    2.0538    0.0000 H   0  0  0  0  0  0  0  0  0  0  0  0
   -3.4728    4.2787    0.0000 C   0  0  0  0  0  0  0  0  0  0  0  0
   -4.7618    3.5116    0.0000 H   0  0  0  0  0  0  0  0  0  0  0  0
   -3.4983    5.8228    0.0000 C   0  0  0  0  0  0  0  0  0  0  0  0
   -2.1992    6.5728    0.0000 C   0  0  0  0  0  0  0  0  0  0  0  0
   -2.1869    8.0727    0.0000 H   0  0  0  0  0  0  0  0  0  0  0  0
   -0.8747    5.7787    0.0000 C   0  0  0  0  0  0  0  0  0  0  0  0
    0.4341    6.5115    0.0000 H   0  0  0  0  0  0  0  0  0  0  0  0
   -4.8035    6.5621    0.0000 O   0  0  0  0  0  0  0  0  0  0  0  0
   -6.0963    5.8014    0.0000 C   0  0  0  0  0  0  0  0  0  0  0  0
   -7.4014    6.5406    0.0000 H   0  0  0  0  0  0  0  0  0  0  0  0
   -7.0509    4.6444    0.0000 H   0  0  0  0  0  0  0  0  0  0  0  0
   -5.1226    4.6603    0.0000 H   0  0  0  0  0  0  0  0  0  0  0  0
    1.3646    2.3936    0.0000 O   0  0  0  0  0  0  0  0  0  0  0  0
    0.8446    0.9866    0.0000 H   0  0  0  0  0  0  0  0  0  0  0  0
    3.0041    3.5346    0.0000 N   0  0  0  0  0  0  0  0  0  0  0  0
    2.9968    2.0347    0.0000 H   0  0  0  0  0  0  0  0  0  0  0  0
    4.7237    4.5162    0.0000 C   0  0  0  0  0  0  0  0  0  0  0  0
    5.6935    5.6605    0.0000 H   0  0  0  0  0  0  0  0  0  0  0  0
    4.4705    5.9947    0.0000 H   0  0  0  0  0  0  0  0  0  0  0  0
    6.0191    3.7598    0.0000 C   0  0  0  0  0  0  0  0  0  0  0  0
    5.0492    2.6155    0.0000 H   0  0  0  0  0  0  0  0  0  0  0  0
    7.3218    4.5034    0.0000 C   0  0  0  0  0  0  0  0  0  0  0  0
    7.3238    5.9956    0.0000 C   0  0  0  0  0  0  0  0  0  0  0  0
    6.0247    6.7454    0.0000 H   0  0  0  0  0  0  0  0  0  0  0  0
    8.6216    6.7477    0.0000 C   0  0  0  0  0  0  0  0  0  0  0  0
    8.5997    8.2476    0.0000 H   0  0  0  0  0  0  0  0  0  0  0  0
    9.9520    6.0278    0.0000 C   0  0  0  0  0  0  0  0  0  0  0  0
    9.9354    4.4809    0.0000 C   0  0  0  0  0  0  0  0  0  0  0  0
    8.6376    3.7288    0.0000 C   0  0  0  0  0  0  0  0  0  0  0  0
    8.6325    2.2288    0.0000 H   0  0  0  0  0  0  0  0  0  0  0  0
   11.2310    3.7250    0.0000 N   0  0  0  0  0  0  0  0  0  0  0  0
   12.5334    4.4692    0.0000 H   0  0  0  0  0  0  0  0  0  0  0  0
   11.2242    2.2251    0.0000 C   0  0  0  0  0  0  0  0  0  0  0  0
   12.5198    1.4692    0.0000 H   0  0  0  0  0  0  0  0  0  0  0  0
    9.9218    1.4810    0.0000 O   0  0  0  0  0  0  0  0  0  0  0  0
   11.2446    6.7887    0.0000 O   0  0  0  0  0  0  0  0  0  0  0  0
   12.5499    6.0496    0.0000 H   0  0  0  0  0  0  0  0  0  0  0  0
    6.9776    2.6060    0.0000 O   0  0  0  0  0  0  0  0  0  0  0  0
    6.4576    1.1990    0.0000 H   0  0  0  0  0  0  0  0  0  0  0  0
  1  2  1  0  0  0  0 
  1  3  1  0  0  0  0 
  1  4  1  0  0  0  0 
  1  5  1  0  0  0  0 
  5  6  1  0  0  0  0 
  5  7  1  0  0  0  0 
  7  8  1  0  0  0  0 
  7  9  1  0  0  0  0 
  9 10  2  0  0  0  0 
 10 11  1  0  0  0  0 
 10 12  1  0  0  0  0 
 12 13  1  0  0  0  0 
 12 14  2  0  0  0  0 
 14 15  1  0  0  0  0 
 15 16  1  0  0  0  0 
 15 17  2  0  0  0  0 
  9 17  1  0  0  0  0 
 17 18  1  0  0  0  0 
 14 19  1  0  0  0  0 
 19 20  1  0  0  0  0 
 20 21  1  0  0  0  0 
 20 22  1  0  0  0  0 
 20 23  1  0  0  0  0 
  7 24  1  0  0  0  0 
 24 25  1  0  0  0  0 
  5 26  1  0  0  0  0 
 26 27  1  0  0  0  0 
 26 28  1  0  0  0  0 
 28 29  1  0  0  0  0 
 28 30  1  0  0  0  0 
 28 31  1  0  0  0  0 
 31 32  1  0  0  0  0 
 31 33  1  0  0  0  0 
 33 34  2  0  0  0  0 
 34 35  1  0  0  0  0 
 34 36  1  0  0  0  0 
 36 37  1  0  0  0  0 
 36 38  2  0  0  0  0 
 38 39  1  0  0  0  0 
 39 40  2  0  0  0  0 
 33 40  1  0  0  0  0 
 40 41  1  0  0  0  0 
 39 42  1  0  0  0  0 
 42 43  1  0  0  0  0 
 42 44  1  0  0  0  0 
 44 45  1  0  0  0  0 
 44 46  2  0  0  0  0 
 38 47  1  0  0  0  0 
 47 48  1  0  0  0  0 
 31 49  1  0  0  0  0 
 49 50  1  0  0  0  0 
M  END
> <Rank>
20

> <Priority_score>
0.176

> <Reaction_type>
benzylic_hydroxylation_(c-CH2-CR)

> <Parent_ID>
46

> <Parent_InChI>
InChI=1S/C19H24N2O4/c1-13(9-14-3-6-16(25-2)7-4-14)20-11-19(24)15-5-8-18(23)17(10-15)21-12-22/h3-8,10,12-13,19-20,23-24H,9,11H2,1-2H3,(H,21,22)

> <Parent_SMILES>
COc1ccc(CC(C)NCC(O)c2ccc(O)c(NC=O)c2)cc1

$$$$
Molecule 46_metabolite 24
  CDK     0516241031

 50 51  0  0  0  0  0  0  0  0999 V2000
    3.2641    3.2244    0.0000 C   0  0  0  0  0  0  0  0  0  0  0  0
    2.1197    4.1942    0.0000 H   0  0  0  0  0  0  0  0  0  0  0  0
    2.1103    2.2659    0.0000 H   0  0  0  0  0  0  0  0  0  0  0  0
    4.0077    1.9217    0.0000 H   0  0  0  0  0  0  0  0  0  0  0  0
    4.6761    3.7305    0.0000 C   0  0  0  0  0  0  0  0  0  0  0  0
    4.9293    2.2520    0.0000 H   0  0  0  0  0  0  0  0  0  0  0  0
    6.1761    3.7231    0.0000 C   0  0  0  0  0  0  0  0  0  0  0  0
    7.5881    4.2292    0.0000 H   0  0  0  0  0  0  0  0  0  0  0  0
    5.9229    5.2016    0.0000 H   0  0  0  0  0  0  0  0  0  0  0  0
    6.9197    2.4204    0.0000 C   0  0  0  0  0  0  0  0  0  0  0  0
    8.4197    2.4204    0.0000 C   0  0  0  0  0  0  0  0  0  0  0  0
    9.1633    3.7231    0.0000 H   0  0  0  0  0  0  0  0  0  0  0  0
    9.1697    1.1504    0.0000 C   0  0  0  0  0  0  0  0  0  0  0  0
   10.6696    1.1701    0.0000 H   0  0  0  0  0  0  0  0  0  0  0  0
    8.4197   -0.1996    0.0000 C   0  0  0  0  0  0  0  0  0  0  0  0
    6.9197   -0.1996    0.0000 C   0  0  0  0  0  0  0  0  0  0  0  0
    6.1590   -1.4924    0.0000 H   0  0  0  0  0  0  0  0  0  0  0  0
    6.1697    1.1504    0.0000 C   0  0  0  0  0  0  0  0  0  0  0  0
    4.6698    1.1701    0.0000 H   0  0  0  0  0  0  0  0  0  0  0  0
    9.1804   -1.4924    0.0000 O   0  0  0  0  0  0  0  0  0  0  0  0
   10.6803   -1.4801    0.0000 C   0  0  0  0  0  0  0  0  0  0  0  0
   11.4410   -2.7729    0.0000 H   0  0  0  0  0  0  0  0  0  0  0  0
   12.0856   -0.9554    0.0000 H   0  0  0  0  0  0  0  0  0  0  0  0
   10.4077   -0.0051    0.0000 H   0  0  0  0  0  0  0  0  0  0  0  0
    3.9325    5.0332    0.0000 N   0  0  0  0  0  0  0  0  0  0  0  0
    4.6889    6.3285    0.0000 H   0  0  0  0  0  0  0  0  0  0  0  0
    1.9525    5.0429    0.0000 C   0  0  0  0  0  0  0  0  0  0  0  0
    0.5405    4.5368    0.0000 H   0  0  0  0  0  0  0  0  0  0  0  0
    1.4326    3.6359    0.0000 H   0  0  0  0  0  0  0  0  0  0  0  0
    1.2089    6.3456    0.0000 C   0  0  0  0  0  0  0  0  0  0  0  0
    2.6210    6.8517    0.0000 H   0  0  0  0  0  0  0  0  0  0  0  0
   -0.2910    6.3530    0.0000 C   0  0  0  0  0  0  0  0  0  0  0  0
   -1.0481    5.0571    0.0000 C   0  0  0  0  0  0  0  0  0  0  0  0
   -2.5489    5.0638    0.0000 C   0  0  0  0  0  0  0  0  0  0  0  0
   -3.3048    3.7682    0.0000 H   0  0  0  0  0  0  0  0  0  0  0  0
   -3.2927    6.3663    0.0000 C   0  0  0  0  0  0  0  0  0  0  0  0
   -2.5357    7.6623    0.0000 C   0  0  0  0  0  0  0  0  0  0  0  0
   -1.0349    7.6556    0.0000 C   0  0  0  0  0  0  0  0  0  0  0  0
   -0.2789    8.9512    0.0000 H   0  0  0  0  0  0  0  0  0  0  0  0
   -3.2795    8.9649    0.0000 N   0  0  0  0  0  0  0  0  0  0  0  0
   -4.7795    8.9720    0.0000 H   0  0  0  0  0  0  0  0  0  0  0  0
   -2.5233   10.2603    0.0000 C   0  0  0  0  0  0  0  0  0  0  0  0
   -3.2671   11.5629    0.0000 H   0  0  0  0  0  0  0  0  0  0  0  0
   -1.0233   10.2532    0.0000 O   0  0  0  0  0  0  0  0  0  0  0  0
   -4.7927    6.3737    0.0000 O   0  0  0  0  0  0  0  0  0  0  0  0
   -5.5363    7.6764    0.0000 H   0  0  0  0  0  0  0  0  0  0  0  0
   -0.3043    3.7545    0.0000 O   0  0  0  0  0  0  0  0  0  0  0  0
   -1.0604    2.4590    0.0000 H   0  0  0  0  0  0  0  0  0  0  0  0
    0.9557    7.8241    0.0000 O   0  0  0  0  0  0  0  0  0  0  0  0
    2.1095    8.7826    0.0000 H   0  0  0  0  0  0  0  0  0  0  0  0
  1  2  1  0  0  0  0 
  1  3  1  0  0  0  0 
  1  4  1  0  0  0  0 
  1  5  1  0  0  0  0 
  5  6  1  0  0  0  0 
  5  7  1  0  0  0  0 
  7  8  1  0  0  0  0 
  7  9  1  0  0  0  0 
  7 10  1  0  0  0  0 
 10 11  2  0  0  0  0 
 11 12  1  0  0  0  0 
 11 13  1  0  0  0  0 
 13 14  1  0  0  0  0 
 13 15  2  0  0  0  0 
 15 16  1  0  0  0  0 
 16 17  1  0  0  0  0 
 16 18  2  0  0  0  0 
 10 18  1  0  0  0  0 
 18 19  1  0  0  0  0 
 15 20  1  0  0  0  0 
 20 21  1  0  0  0  0 
 21 22  1  0  0  0  0 
 21 23  1  0  0  0  0 
 21 24  1  0  0  0  0 
  5 25  1  0  0  0  0 
 25 26  1  0  0  0  0 
 25 27  1  0  0  0  0 
 27 28  1  0  0  0  0 
 27 29  1  0  0  0  0 
 27 30  1  0  0  0  0 
 30 31  1  0  0  0  0 
 30 32  1  0  0  0  0 
 32 33  2  0  0  0  0 
 33 34  1  0  0  0  0 
 34 35  1  0  0  0  0 
 34 36  2  0  0  0  0 
 36 37  1  0  0  0  0 
 37 38  2  0  0  0  0 
 32 38  1  0  0  0  0 
 38 39  1  0  0  0  0 
 37 40  1  0  0  0  0 
 40 41  1  0  0  0  0 
 40 42  1  0  0  0  0 
 42 43  1  0  0  0  0 
 42 44  2  0  0  0  0 
 36 45  1  0  0  0  0 
 45 46  1  0  0  0  0 
 33 47  1  0  0  0  0 
 47 48  1  0  0  0  0 
 30 49  1  0  0  0  0 
 49 50  1  0  0  0  0 
M  END
> <Rank>
24

> <Priority_score>
0.16

> <Reaction_type>
aromatic_hydroxylation_(para_to_nitrogen)

> <Parent_ID>
46

> <Parent_InChI>
InChI=1S/C19H24N2O4/c1-13(9-14-3-6-16(25-2)7-4-14)20-11-19(24)15-5-8-18(23)17(10-15)21-12-22/h3-8,10,12-13,19-20,23-24H,9,11H2,1-2H3,(H,21,22)

> <Parent_SMILES>
COc1ccc(CC(C)NCC(O)c2ccc(O)c(NC=O)c2)cc1

$$$$
Molecule 46_metabolite 25
  CDK     0516241031

 50 51  0  0  0  0  0  0  0  0999 V2000
    3.2653    3.2231    0.0000 C   0  0  0  0  0  0  0  0  0  0  0  0
    2.1210    4.1929    0.0000 H   0  0  0  0  0  0  0  0  0  0  0  0
    2.1115    2.2646    0.0000 H   0  0  0  0  0  0  0  0  0  0  0  0
    4.0089    1.9204    0.0000 H   0  0  0  0  0  0  0  0  0  0  0  0
    4.6774    3.7292    0.0000 C   0  0  0  0  0  0  0  0  0  0  0  0
    4.9306    2.2507    0.0000 H   0  0  0  0  0  0  0  0  0  0  0  0
    6.1773    3.7218    0.0000 C   0  0  0  0  0  0  0  0  0  0  0  0
    7.5894    4.2279    0.0000 H   0  0  0  0  0  0  0  0  0  0  0  0
    5.9241    5.2003    0.0000 H   0  0  0  0  0  0  0  0  0  0  0  0
    6.9209    2.4191    0.0000 C   0  0  0  0  0  0  0  0  0  0  0  0
    8.4209    2.4191    0.0000 C   0  0  0  0  0  0  0  0  0  0  0  0
    9.1645    3.7218    0.0000 H   0  0  0  0  0  0  0  0  0  0  0  0
    9.1709    1.1491    0.0000 C   0  0  0  0  0  0  0  0  0  0  0  0
   10.6708    1.1689    0.0000 H   0  0  0  0  0  0  0  0  0  0  0  0
    8.4209   -0.2009    0.0000 C   0  0  0  0  0  0  0  0  0  0  0  0
    6.9209   -0.2009    0.0000 C   0  0  0  0  0  0  0  0  0  0  0  0
    6.1602   -1.4937    0.0000 H   0  0  0  0  0  0  0  0  0  0  0  0
    6.1709    1.1491    0.0000 C   0  0  0  0  0  0  0  0  0  0  0  0
    4.6711    1.1689    0.0000 H   0  0  0  0  0  0  0  0  0  0  0  0
    9.1816   -1.4937    0.0000 O   0  0  0  0  0  0  0  0  0  0  0  0
   10.6816   -1.4813    0.0000 C   0  0  0  0  0  0  0  0  0  0  0  0
   11.4423   -2.7741    0.0000 H   0  0  0  0  0  0  0  0  0  0  0  0
   12.0868   -0.9567    0.0000 H   0  0  0  0  0  0  0  0  0  0  0  0
   10.4089   -0.0063    0.0000 H   0  0  0  0  0  0  0  0  0  0  0  0
    3.9338    5.0319    0.0000 N   0  0  0  0  0  0  0  0  0  0  0  0
    4.6901    6.3272    0.0000 H   0  0  0  0  0  0  0  0  0  0  0  0
    1.9538    5.0417    0.0000 C   0  0  0  0  0  0  0  0  0  0  0  0
    0.5417    4.5356    0.0000 H   0  0  0  0  0  0  0  0  0  0  0  0
    1.4338    3.6347    0.0000 H   0  0  0  0  0  0  0  0  0  0  0  0
    1.2102    6.3444    0.0000 C   0  0  0  0  0  0  0  0  0  0  0  0
    2.6222    6.8505    0.0000 H   0  0  0  0  0  0  0  0  0  0  0  0
   -0.2898    6.3518    0.0000 C   0  0  0  0  0  0  0  0  0  0  0  0
   -1.0464    5.0565    0.0000 C   0  0  0  0  0  0  0  0  0  0  0  0
   -0.3032    3.7536    0.0000 H   0  0  0  0  0  0  0  0  0  0  0  0
   -2.5472    5.0647    0.0000 C   0  0  0  0  0  0  0  0  0  0  0  0
   -3.2914    6.3680    0.0000 C   0  0  0  0  0  0  0  0  0  0  0  0
   -2.5348    7.6632    0.0000 C   0  0  0  0  0  0  0  0  0  0  0  0
   -1.0340    7.6551    0.0000 C   0  0  0  0  0  0  0  0  0  0  0  0
   -0.2774    8.9503    0.0000 H   0  0  0  0  0  0  0  0  0  0  0  0
   -3.2780    8.9661    0.0000 N   0  0  0  0  0  0  0  0  0  0  0  0
   -4.7780    8.9740    0.0000 H   0  0  0  0  0  0  0  0  0  0  0  0
   -2.5212   10.2612    0.0000 C   0  0  0  0  0  0  0  0  0  0  0  0
   -3.2644   11.5642    0.0000 H   0  0  0  0  0  0  0  0  0  0  0  0
   -1.0212   10.2534    0.0000 O   0  0  0  0  0  0  0  0  0  0  0  0
   -4.7914    6.3754    0.0000 O   0  0  0  0  0  0  0  0  0  0  0  0
   -5.5350    7.6781    0.0000 H   0  0  0  0  0  0  0  0  0  0  0  0
   -3.3038    3.7694    0.0000 O   0  0  0  0  0  0  0  0  0  0  0  0
   -4.8038    3.7771    0.0000 H   0  0  0  0  0  0  0  0  0  0  0  0
    0.9570    7.8228    0.0000 O   0  0  0  0  0  0  0  0  0  0  0  0
    2.1108    8.7814    0.0000 H   0  0  0  0  0  0  0  0  0  0  0  0
  1  2  1  0  0  0  0 
  1  3  1  0  0  0  0 
  1  4  1  0  0  0  0 
  1  5  1  0  0  0  0 
  5  6  1  0  0  0  0 
  5  7  1  0  0  0  0 
  7  8  1  0  0  0  0 
  7  9  1  0  0  0  0 
  7 10  1  0  0  0  0 
 10 11  2  0  0  0  0 
 11 12  1  0  0  0  0 
 11 13  1  0  0  0  0 
 13 14  1  0  0  0  0 
 13 15  2  0  0  0  0 
 15 16  1  0  0  0  0 
 16 17  1  0  0  0  0 
 16 18  2  0  0  0  0 
 10 18  1  0  0  0  0 
 18 19  1  0  0  0  0 
 15 20  1  0  0  0  0 
 20 21  1  0  0  0  0 
 21 22  1  0  0  0  0 
 21 23  1  0  0  0  0 
 21 24  1  0  0  0  0 
  5 25  1  0  0  0  0 
 25 26  1  0  0  0  0 
 25 27  1  0  0  0  0 
 27 28  1  0  0  0  0 
 27 29  1  0  0  0  0 
 27 30  1  0  0  0  0 
 30 31  1  0  0  0  0 
 30 32  1  0  0  0  0 
 32 33  2  0  0  0  0 
 33 34  1  0  0  0  0 
 33 35  1  0  0  0  0 
 35 36  2  0  0  0  0 
 36 37  1  0  0  0  0 
 37 38  2  0  0  0  0 
 32 38  1  0  0  0  0 
 38 39  1  0  0  0  0 
 37 40  1  0  0  0  0 
 40 41  1  0  0  0  0 
 40 42  1  0  0  0  0 
 42 43  1  0  0  0  0 
 42 44  2  0  0  0  0 
 36 45  1  0  0  0  0 
 45 46  1  0  0  0  0 
 35 47  1  0  0  0  0 
 47 48  1  0  0  0  0 
 30 49  1  0  0  0  0 
 49 50  1  0  0  0  0 
M  END
> <Rank>
25

> <Priority_score>
0.152

> <Reaction_type>
aromatic_hydroxylation_(ortho_to_oxygen)

> <Parent_ID>
46

> <Parent_InChI>
InChI=1S/C19H24N2O4/c1-13(9-14-3-6-16(25-2)7-4-14)20-11-19(24)15-5-8-18(23)17(10-15)21-12-22/h3-8,10,12-13,19-20,23-24H,9,11H2,1-2H3,(H,21,22)

> <Parent_SMILES>
COc1ccc(CC(C)NCC(O)c2ccc(O)c(NC=O)c2)cc1

$$$$
Molecule 46_metabolite 26
  CDK     0516241031

 52 53  0  0  0  0  0  0  0  0999 V2000
    4.0503    3.9937    0.0000 C   0  0  0  0  0  0  0  0  0  0  0  0
    2.9060    4.9636    0.0000 H   0  0  0  0  0  0  0  0  0  0  0  0
    2.8965    3.0352    0.0000 H   0  0  0  0  0  0  0  0  0  0  0  0
    4.7939    2.6910    0.0000 H   0  0  0  0  0  0  0  0  0  0  0  0
    5.4623    4.4998    0.0000 C   0  0  0  0  0  0  0  0  0  0  0  0
    5.7155    3.0214    0.0000 H   0  0  0  0  0  0  0  0  0  0  0  0
    6.9623    4.4925    0.0000 C   0  0  0  0  0  0  0  0  0  0  0  0
    8.3743    4.9985    0.0000 H   0  0  0  0  0  0  0  0  0  0  0  0
    6.7091    5.9709    0.0000 H   0  0  0  0  0  0  0  0  0  0  0  0
    7.7059    3.1897    0.0000 C   0  0  0  0  0  0  0  0  0  0  0  0
    9.2059    3.1897    0.0000 C   0  0  0  0  0  0  0  0  0  0  0  0
    9.9495    4.4925    0.0000 H   0  0  0  0  0  0  0  0  0  0  0  0
    9.9559    1.9197    0.0000 C   0  0  0  0  0  0  0  0  0  0  0  0
   11.4558    1.9395    0.0000 H   0  0  0  0  0  0  0  0  0  0  0  0
    9.2059    0.5697    0.0000 C   0  0  0  0  0  0  0  0  0  0  0  0
    7.7059    0.5697    0.0000 C   0  0  0  0  0  0  0  0  0  0  0  0
    6.9452   -0.7231    0.0000 H   0  0  0  0  0  0  0  0  0  0  0  0
    6.9559    1.9197    0.0000 C   0  0  0  0  0  0  0  0  0  0  0  0
    5.4560    1.9395    0.0000 H   0  0  0  0  0  0  0  0  0  0  0  0
    9.9666   -0.7231    0.0000 O   0  0  0  0  0  0  0  0  0  0  0  0
   11.4665   -0.7107    0.0000 C   0  0  0  0  0  0  0  0  0  0  0  0
   12.2272   -2.0035    0.0000 H   0  0  0  0  0  0  0  0  0  0  0  0
   12.8718   -0.1861    0.0000 H   0  0  0  0  0  0  0  0  0  0  0  0
   11.1939    0.7643    0.0000 H   0  0  0  0  0  0  0  0  0  0  0  0
    4.7187    5.8025    0.0000 N   0  0  0  0  0  0  0  0  0  0  0  0
    5.4751    7.0979    0.0000 H   0  0  0  0  0  0  0  0  0  0  0  0
    2.7387    5.8123    0.0000 C   0  0  0  0  0  0  0  0  0  0  0  0
    1.3267    5.3062    0.0000 H   0  0  0  0  0  0  0  0  0  0  0  0
    2.2188    4.4053    0.0000 H   0  0  0  0  0  0  0  0  0  0  0  0
    1.9951    7.1150    0.0000 C   0  0  0  0  0  0  0  0  0  0  0  0
    3.4072    7.6211    0.0000 H   0  0  0  0  0  0  0  0  0  0  0  0
    0.4952    7.1224    0.0000 C   0  0  0  0  0  0  0  0  0  0  0  0
   -0.2527    5.8311    0.0000 C   0  0  0  0  0  0  0  0  0  0  0  0
    0.4975    4.5322    0.0000 H   0  0  0  0  0  0  0  0  0  0  0  0
   -1.7527    5.8287    0.0000 C   0  0  0  0  0  0  0  0  0  0  0  0
   -2.4836    4.5188    0.0000 H   0  0  0  0  0  0  0  0  0  0  0  0
   -2.5448    7.1173    0.0000 C   0  0  0  0  0  0  0  0  0  0  0  0
   -1.7571    8.4487    0.0000 C   0  0  0  0  0  0  0  0  0  0  0  0
   -0.2571    8.4511    0.0000 C   0  0  0  0  0  0  0  0  0  0  0  0
    0.4974    9.7476    0.0000 H   0  0  0  0  0  0  0  0  0  0  0  0
   -2.5012    9.7511    0.0000 N   0  0  0  0  0  0  0  0  0  0  0  0
   -4.0011    9.7579    0.0000 H   0  0  0  0  0  0  0  0  0  0  0  0
   -1.7453   11.0467    0.0000 C   0  0  0  0  0  0  0  0  0  0  0  0
   -2.4894   12.3491    0.0000 H   0  0  0  0  0  0  0  0  0  0  0  0
   -0.2453   11.0399    0.0000 O   0  0  0  0  0  0  0  0  0  0  0  0
   -4.0448    7.1047    0.0000 O   0  0  0  0  0  0  0  0  0  0  0  0
   -4.8057    8.3974    0.0000 C   0  0  0  0  0  0  0  0  0  0  0  0
   -6.3056    8.3848    0.0000 H   0  0  0  0  0  0  0  0  0  0  0  0
   -3.4005    8.9223    0.0000 H   0  0  0  0  0  0  0  0  0  0  0  0
   -5.0786    9.8724    0.0000 H   0  0  0  0  0  0  0  0  0  0  0  0
    1.7419    8.5935    0.0000 O   0  0  0  0  0  0  0  0  0  0  0  0
    2.8957    9.5520    0.0000 H   0  0  0  0  0  0  0  0  0  0  0  0
  1  2  1  0  0  0  0 
  1  3  1  0  0  0  0 
  1  4  1  0  0  0  0 
  1  5  1  0  0  0  0 
  5  6  1  0  0  0  0 
  5  7  1  0  0  0  0 
  7  8  1  0  0  0  0 
  7  9  1  0  0  0  0 
  7 10  1  0  0  0  0 
 10 11  2  0  0  0  0 
 11 12  1  0  0  0  0 
 11 13  1  0  0  0  0 
 13 14  1  0  0  0  0 
 13 15  2  0  0  0  0 
 15 16  1  0  0  0  0 
 16 17  1  0  0  0  0 
 16 18  2  0  0  0  0 
 10 18  1  0  0  0  0 
 18 19  1  0  0  0  0 
 15 20  1  0  0  0  0 
 20 21  1  0  0  0  0 
 21 22  1  0  0  0  0 
 21 23  1  0  0  0  0 
 21 24  1  0  0  0  0 
  5 25  1  0  0  0  0 
 25 26  1  0  0  0  0 
 25 27  1  0  0  0  0 
 27 28  1  0  0  0  0 
 27 29  1  0  0  0  0 
 27 30  1  0  0  0  0 
 30 31  1  0  0  0  0 
 30 32  1  0  0  0  0 
 32 33  2  0  0  0  0 
 33 34  1  0  0  0  0 
 33 35  1  0  0  0  0 
 35 36  1  0  0  0  0 
 35 37  2  0  0  0  0 
 37 38  1  0  0  0  0 
 38 39  2  0  0  0  0 
 32 39  1  0  0  0  0 
 39 40  1  0  0  0  0 
 38 41  1  0  0  0  0 
 41 42  1  0  0  0  0 
 41 43  1  0  0  0  0 
 43 44  1  0  0  0  0 
 43 45  2  0  0  0  0 
 37 46  1  0  0  0  0 
 46 47  1  0  0  0  0 
 47 48  1  0  0  0  0 
 47 49  1  0  0  0  0 
 47 50  1  0  0  0  0 
 30 51  1  0  0  0  0 
 51 52  1  0  0  0  0 
M  END
> <Rank>
26

> <Priority_score>
0.10728552990995817

> <Reaction_type>
methylation_(aromatic_OH)

> <Parent_ID>
46

> <Parent_InChI>
InChI=1S/C19H24N2O4/c1-13(9-14-3-6-16(25-2)7-4-14)20-11-19(24)15-5-8-18(23)17(10-15)21-12-22/h3-8,10,12-13,19-20,23-24H,9,11H2,1-2H3,(H,21,22)

> <Parent_SMILES>
COc1ccc(CC(C)NCC(O)c2ccc(O)c(NC=O)c2)cc1

$$$$
Molecule 46_metabolite 27
  CDK     0516241031

 47 48  0  0  0  0  0  0  0  0999 V2000
   -4.5308    2.3408    0.0000 C   0  0  0  0  0  0  0  0  0  0  0  0
   -5.9402    2.8542    0.0000 H   0  0  0  0  0  0  0  0  0  0  0  0
   -5.2810    1.0420    0.0000 H   0  0  0  0  0  0  0  0  0  0  0  0
   -3.3819    1.3764    0.0000 H   0  0  0  0  0  0  0  0  0  0  0  0
   -3.3815    3.3048    0.0000 C   0  0  0  0  0  0  0  0  0  0  0  0
   -2.6318    2.0056    0.0000 H   0  0  0  0  0  0  0  0  0  0  0  0
   -1.5207    3.9816    0.0000 C   0  0  0  0  0  0  0  0  0  0  0  0
   -0.3715    4.9455    0.0000 H   0  0  0  0  0  0  0  0  0  0  0  0
   -2.2705    5.2808    0.0000 H   0  0  0  0  0  0  0  0  0  0  0  0
    0.7310    2.0913    0.0000 C   0  0  0  0  0  0  0  0  0  0  0  0
    1.4819    3.3908    0.0000 C   0  0  0  0  0  0  0  0  0  0  0  0
    0.7319    4.6899    0.0000 H   0  0  0  0  0  0  0  0  0  0  0  0
    2.9827    3.3913    0.0000 C   0  0  0  0  0  0  0  0  0  0  0  0
    3.7325    4.6905    0.0000 H   0  0  0  0  0  0  0  0  0  0  0  0
    3.7327    2.0923    0.0000 C   0  0  0  0  0  0  0  0  0  0  0  0
    5.2327    2.0920    0.0000 O   0  0  0  0  0  0  0  0  0  0  0  0
    2.9819    0.7927    0.0000 C   0  0  0  0  0  0  0  0  0  0  0  0
    3.7319   -0.5063    0.0000 H   0  0  0  0  0  0  0  0  0  0  0  0
    1.4810    0.7923    0.0000 C   0  0  0  0  0  0  0  0  0  0  0  0
    0.7312   -0.5069    0.0000 H   0  0  0  0  0  0  0  0  0  0  0  0
   -0.4182    1.1272    0.0000 O   0  0  0  0  0  0  0  0  0  0  0  0
   -0.1578   -0.3500    0.0000 H   0  0  0  0  0  0  0  0  0  0  0  0
   -4.5303    4.2692    0.0000 N   0  0  0  0  0  0  0  0  0  0  0  0
   -4.2696    5.7464    0.0000 H   0  0  0  0  0  0  0  0  0  0  0  0
   -6.3911    3.5924    0.0000 C   0  0  0  0  0  0  0  0  0  0  0  0
   -7.5404    2.6285    0.0000 H   0  0  0  0  0  0  0  0  0  0  0  0
   -6.3914    2.0924    0.0000 H   0  0  0  0  0  0  0  0  0  0  0  0
   -7.5399    4.5568    0.0000 C   0  0  0  0  0  0  0  0  0  0  0  0
   -6.3907    5.5208    0.0000 H   0  0  0  0  0  0  0  0  0  0  0  0
   -8.9496    4.0441    0.0000 C   0  0  0  0  0  0  0  0  0  0  0  0
   -9.2038    2.5737    0.0000 C   0  0  0  0  0  0  0  0  0  0  0  0
   -8.0501    1.6151    0.0000 H   0  0  0  0  0  0  0  0  0  0  0  0
  -10.6100    2.0517    0.0000 C   0  0  0  0  0  0  0  0  0  0  0  0
  -10.8419    0.5698    0.0000 H   0  0  0  0  0  0  0  0  0  0  0  0
  -11.7996    2.9862    0.0000 C   0  0  0  0  0  0  0  0  0  0  0  0
  -11.5218    4.5080    0.0000 C   0  0  0  0  0  0  0  0  0  0  0  0
  -10.1156    5.0300    0.0000 C   0  0  0  0  0  0  0  0  0  0  0  0
   -9.8570    6.5075    0.0000 H   0  0  0  0  0  0  0  0  0  0  0  0
  -12.6710    5.4719    0.0000 N   0  0  0  0  0  0  0  0  0  0  0  0
  -14.0805    4.9587    0.0000 H   0  0  0  0  0  0  0  0  0  0  0  0
  -12.4108    6.9492    0.0000 C   0  0  0  0  0  0  0  0  0  0  0  0
  -13.5601    7.9132    0.0000 H   0  0  0  0  0  0  0  0  0  0  0  0
  -11.0014    7.4625    0.0000 O   0  0  0  0  0  0  0  0  0  0  0  0
  -13.2023    2.4547    0.0000 O   0  0  0  0  0  0  0  0  0  0  0  0
  -14.3639    3.4037    0.0000 H   0  0  0  0  0  0  0  0  0  0  0  0
   -8.2897    5.8560    0.0000 O   0  0  0  0  0  0  0  0  0  0  0  0
   -7.5394    7.1549    0.0000 H   0  0  0  0  0  0  0  0  0  0  0  0
  1  2  1  0  0  0  0 
  1  3  1  0  0  0  0 
  1  4  1  0  0  0  0 
  1  5  1  0  0  0  0 
  5  6  1  0  0  0  0 
  5  7  1  0  0  0  0 
  7  8  1  0  0  0  0 
  7  9  1  0  0  0  0 
  7 10  1  0  0  0  0 
 10 11  1  0  0  0  0 
 11 12  1  0  0  0  0 
 11 13  2  0  0  0  0 
 13 14  1  0  0  0  0 
 13 15  1  0  0  0  0 
 15 16  2  0  0  0  0 
 15 17  1  0  0  0  0 
 17 18  1  0  0  0  0 
 17 19  2  0  0  0  0 
 10 19  1  0  0  0  0 
 19 20  1  0  0  0  0 
 10 21  1  0  0  0  0 
 21 22  1  0  0  0  0 
  5 23  1  0  0  0  0 
 23 24  1  0  0  0  0 
 23 25  1  0  0  0  0 
 25 26  1  0  0  0  0 
 25 27  1  0  0  0  0 
 25 28  1  0  0  0  0 
 28 29  1  0  0  0  0 
 28 30  1  0  0  0  0 
 30 31  2  0  0  0  0 
 31 32  1  0  0  0  0 
 31 33  1  0  0  0  0 
 33 34  1  0  0  0  0 
 33 35  2  0  0  0  0 
 35 36  1  0  0  0  0 
 36 37  2  0  0  0  0 
 30 37  1  0  0  0  0 
 37 38  1  0  0  0  0 
 36 39  1  0  0  0  0 
 39 40  1  0  0  0  0 
 39 41  1  0  0  0  0 
 41 42  1  0  0  0  0 
 41 43  2  0  0  0  0 
 35 44  1  0  0  0  0 
 44 45  1  0  0  0  0 
 28 46  1  0  0  0  0 
 46 47  1  0  0  0  0 
M  END
> <Rank>
27

> <Priority_score>
0.10320000000000001

> <Reaction_type>
oxidation of 4-substituted anisole to quinone (substituent not a leaving group)

> <Parent_ID>
46

> <Parent_InChI>
InChI=1S/C19H24N2O4/c1-13(9-14-3-6-16(25-2)7-4-14)20-11-19(24)15-5-8-18(23)17(10-15)21-12-22/h3-8,10,12-13,19-20,23-24H,9,11H2,1-2H3,(H,21,22)

> <Parent_SMILES>
COc1ccc(CC(C)NCC(O)c2ccc(O)c(NC=O)c2)cc1

$$$$
Molecule 46_metabolite 28
  CDK     0516241031

 50 51  0  0  0  0  0  0  0  0999 V2000
   -3.5690    5.1281    0.0000 C   0  0  0  0  0  0  0  0  0  0  0  0
   -2.0918    4.8676    0.0000 H   0  0  0  0  0  0  0  0  0  0  0  0
   -3.0560    6.5376    0.0000 H   0  0  0  0  0  0  0  0  0  0  0  0
   -4.8680    5.8781    0.0000 H   0  0  0  0  0  0  0  0  0  0  0  0
   -4.5332    3.9790    0.0000 C   0  0  0  0  0  0  0  0  0  0  0  0
   -5.4974    5.1281    0.0000 H   0  0  0  0  0  0  0  0  0  0  0  0
   -5.8322    3.2290    0.0000 C   0  0  0  0  0  0  0  0  0  0  0  0
   -6.7964    2.0799    0.0000 H   0  0  0  0  0  0  0  0  0  0  0  0
   -4.8680    2.0799    0.0000 H   0  0  0  0  0  0  0  0  0  0  0  0
   -7.1313    3.9790    0.0000 C   0  0  0  0  0  0  0  0  0  0  0  0
   -7.1308    5.4798    0.0000 C   0  0  0  0  0  0  0  0  0  0  0  0
   -5.8316    6.2296    0.0000 H   0  0  0  0  0  0  0  0  0  0  0  0
   -8.4298    6.2298    0.0000 C   0  0  0  0  0  0  0  0  0  0  0  0
   -8.4301    7.7298    0.0000 H   0  0  0  0  0  0  0  0  0  0  0  0
   -9.7293    5.4790    0.0000 C   0  0  0  0  0  0  0  0  0  0  0  0
   -9.7298    3.9782    0.0000 C   0  0  0  0  0  0  0  0  0  0  0  0
   -8.4308    3.2282    0.0000 C   0  0  0  0  0  0  0  0  0  0  0  0
   -8.4305    1.7282    0.0000 H   0  0  0  0  0  0  0  0  0  0  0  0
  -11.0290    3.2284    0.0000 O   0  0  0  0  0  0  0  0  0  0  0  0
  -12.3279    3.9786    0.0000 H   0  0  0  0  0  0  0  0  0  0  0  0
  -11.0284    6.2290    0.0000 O   0  0  0  0  0  0  0  0  0  0  0  0
  -12.3274    5.4790    0.0000 C   0  0  0  0  0  0  0  0  0  0  0  0
  -13.6265    6.2290    0.0000 H   0  0  0  0  0  0  0  0  0  0  0  0
  -13.2916    4.3299    0.0000 H   0  0  0  0  0  0  0  0  0  0  0  0
  -11.3632    4.3299    0.0000 H   0  0  0  0  0  0  0  0  0  0  0  0
   -3.2341    3.2290    0.0000 N   0  0  0  0  0  0  0  0  0  0  0  0
   -3.2341    1.7290    0.0000 H   0  0  0  0  0  0  0  0  0  0  0  0
   -1.5194    4.2190    0.0000 C   0  0  0  0  0  0  0  0  0  0  0  0
   -0.5552    5.3681    0.0000 H   0  0  0  0  0  0  0  0  0  0  0  0
   -1.7799    5.6962    0.0000 H   0  0  0  0  0  0  0  0  0  0  0  0
   -0.2204    3.4690    0.0000 C   0  0  0  0  0  0  0  0  0  0  0  0
   -1.1846    2.3199    0.0000 H   0  0  0  0  0  0  0  0  0  0  0  0
    1.0787    4.2190    0.0000 C   0  0  0  0  0  0  0  0  0  0  0  0
    1.0734    5.7112    0.0000 C   0  0  0  0  0  0  0  0  0  0  0  0
   -0.2295    6.4546    0.0000 H   0  0  0  0  0  0  0  0  0  0  0  0
    2.3674    6.4697    0.0000 C   0  0  0  0  0  0  0  0  0  0  0  0
    2.3381    7.9694    0.0000 H   0  0  0  0  0  0  0  0  0  0  0  0
    3.7013    5.7563    0.0000 C   0  0  0  0  0  0  0  0  0  0  0  0
    3.6923    4.2094    0.0000 C   0  0  0  0  0  0  0  0  0  0  0  0
    2.3983    3.4509    0.0000 C   0  0  0  0  0  0  0  0  0  0  0  0
    2.4005    1.9509    0.0000 H   0  0  0  0  0  0  0  0  0  0  0  0
    4.9917    3.4599    0.0000 N   0  0  0  0  0  0  0  0  0  0  0  0
    6.2904    4.2104    0.0000 H   0  0  0  0  0  0  0  0  0  0  0  0
    4.9923    1.9599    0.0000 C   0  0  0  0  0  0  0  0  0  0  0  0
    6.2916    1.2104    0.0000 H   0  0  0  0  0  0  0  0  0  0  0  0
    3.6935    1.2094    0.0000 O   0  0  0  0  0  0  0  0  0  0  0  0
    4.9902    6.5236    0.0000 O   0  0  0  0  0  0  0  0  0  0  0  0
    6.2992    5.7910    0.0000 H   0  0  0  0  0  0  0  0  0  0  0  0
    0.7438    2.3199    0.0000 O   0  0  0  0  0  0  0  0  0  0  0  0
    0.2308    0.9104    0.0000 H   0  0  0  0  0  0  0  0  0  0  0  0
  1  2  1  0  0  0  0 
  1  3  1  0  0  0  0 
  1  4  1  0  0  0  0 
  1  5  1  0  0  0  0 
  5  6  1  0  0  0  0 
  5  7  1  0  0  0  0 
  7  8  1  0  0  0  0 
  7  9  1  0  0  0  0 
  7 10  1  0  0  0  0 
 10 11  2  0  0  0  0 
 11 12  1  0  0  0  0 
 11 13  1  0  0  0  0 
 13 14  1  0  0  0  0 
 13 15  2  0  0  0  0 
 15 16  1  0  0  0  0 
 16 17  2  0  0  0  0 
 10 17  1  0  0  0  0 
 17 18  1  0  0  0  0 
 16 19  1  0  0  0  0 
 19 20  1  0  0  0  0 
 15 21  1  0  0  0  0 
 21 22  1  0  0  0  0 
 22 23  1  0  0  0  0 
 22 24  1  0  0  0  0 
 22 25  1  0  0  0  0 
  5 26  1  0  0  0  0 
 26 27  1  0  0  0  0 
 26 28  1  0  0  0  0 
 28 29  1  0  0  0  0 
 28 30  1  0  0  0  0 
 28 31  1  0  0  0  0 
 31 32  1  0  0  0  0 
 31 33  1  0  0  0  0 
 33 34  2  0  0  0  0 
 34 35  1  0  0  0  0 
 34 36  1  0  0  0  0 
 36 37  1  0  0  0  0 
 36 38  2  0  0  0  0 
 38 39  1  0  0  0  0 
 39 40  2  0  0  0  0 
 33 40  1  0  0  0  0 
 40 41  1  0  0  0  0 
 39 42  1  0  0  0  0 
 42 43  1  0  0  0  0 
 42 44  1  0  0  0  0 
 44 45  1  0  0  0  0 
 44 46  2  0  0  0  0 
 38 47  1  0  0  0  0 
 47 48  1  0  0  0  0 
 31 49  1  0  0  0  0 
 49 50  1  0  0  0  0 
M  END
> <Rank>
28

> <Priority_score>
0.088

> <Reaction_type>
aromatic_hydroxylation_(ortho_to_oxygen)

> <Parent_ID>
46

> <Parent_InChI>
InChI=1S/C19H24N2O4/c1-13(9-14-3-6-16(25-2)7-4-14)20-11-19(24)15-5-8-18(23)17(10-15)21-12-22/h3-8,10,12-13,19-20,23-24H,9,11H2,1-2H3,(H,21,22)

> <Parent_SMILES>
COc1ccc(CC(C)NCC(O)c2ccc(O)c(NC=O)c2)cc1

$$$$
Molecule 46_metabolite 29
  CDK     0516241031

 47 48  0  0  0  0  0  0  0  0999 V2000
    7.0366   -2.5408    0.0000 C   0  0  0  0  0  0  0  0  0  0  0  0
    6.0668   -3.6851    0.0000 H   0  0  0  0  0  0  0  0  0  0  0  0
    7.9951   -3.6946    0.0000 H   0  0  0  0  0  0  0  0  0  0  0  0
    8.3393   -1.7972    0.0000 H   0  0  0  0  0  0  0  0  0  0  0  0
    6.5305   -1.1287    0.0000 C   0  0  0  0  0  0  0  0  0  0  0  0
    8.0090   -0.8755    0.0000 H   0  0  0  0  0  0  0  0  0  0  0  0
    6.5379    0.3712    0.0000 C   0  0  0  0  0  0  0  0  0  0  0  0
    6.0318    1.7833    0.0000 H   0  0  0  0  0  0  0  0  0  0  0  0
    5.0594    0.1180    0.0000 H   0  0  0  0  0  0  0  0  0  0  0  0
    7.8406    1.1148    0.0000 C   0  0  0  0  0  0  0  0  0  0  0  0
    7.8406    2.6148    0.0000 C   0  0  0  0  0  0  0  0  0  0  0  0
    6.5379    3.3584    0.0000 H   0  0  0  0  0  0  0  0  0  0  0  0
    9.1106    3.3648    0.0000 C   0  0  0  0  0  0  0  0  0  0  0  0
    9.0909    4.8647    0.0000 H   0  0  0  0  0  0  0  0  0  0  0  0
   10.4606    2.6148    0.0000 C   0  0  0  0  0  0  0  0  0  0  0  0
   10.4606    1.1148    0.0000 C   0  0  0  0  0  0  0  0  0  0  0  0
   11.7534    0.3542    0.0000 H   0  0  0  0  0  0  0  0  0  0  0  0
    9.1106    0.3648    0.0000 C   0  0  0  0  0  0  0  0  0  0  0  0
    9.0909   -1.1350    0.0000 H   0  0  0  0  0  0  0  0  0  0  0  0
   11.7534    3.3755    0.0000 O   0  0  0  0  0  0  0  0  0  0  0  0
   11.7411    4.8755    0.0000 C   0  0  0  0  0  0  0  0  0  0  0  0
   13.0339    5.6362    0.0000 H   0  0  0  0  0  0  0  0  0  0  0  0
   11.2164    6.2807    0.0000 H   0  0  0  0  0  0  0  0  0  0  0  0
   10.2660    4.6028    0.0000 H   0  0  0  0  0  0  0  0  0  0  0  0
    5.2278   -1.8723    0.0000 N   0  0  0  0  0  0  0  0  0  0  0  0
    3.9325   -1.1159    0.0000 C   0  0  0  0  0  0  0  0  0  0  0  0
    3.9399    0.3840    0.0000 H   0  0  0  0  0  0  0  0  0  0  0  0
    2.6298   -1.8595    0.0000 C   0  0  0  0  0  0  0  0  0  0  0  0
    3.5883   -3.0133    0.0000 H   0  0  0  0  0  0  0  0  0  0  0  0
    1.3344   -1.1032    0.0000 C   0  0  0  0  0  0  0  0  0  0  0  0
    1.3471    0.3890    0.0000 C   0  0  0  0  0  0  0  0  0  0  0  0
    2.6535    1.1259    0.0000 H   0  0  0  0  0  0  0  0  0  0  0  0
    0.0568    1.1539    0.0000 C   0  0  0  0  0  0  0  0  0  0  0  0
    0.0934    2.6534    0.0000 H   0  0  0  0  0  0  0  0  0  0  0  0
   -1.2806    0.4470    0.0000 C   0  0  0  0  0  0  0  0  0  0  0  0
   -1.2793   -1.0999    0.0000 C   0  0  0  0  0  0  0  0  0  0  0  0
    0.0111   -1.8648    0.0000 C   0  0  0  0  0  0  0  0  0  0  0  0
    0.0014   -3.3648    0.0000 H   0  0  0  0  0  0  0  0  0  0  0  0
   -2.5823   -1.8430    0.0000 N   0  0  0  0  0  0  0  0  0  0  0  0
   -3.8773   -1.0861    0.0000 H   0  0  0  0  0  0  0  0  0  0  0  0
   -2.5902   -3.3430    0.0000 C   0  0  0  0  0  0  0  0  0  0  0  0
   -3.8932   -4.0861    0.0000 H   0  0  0  0  0  0  0  0  0  0  0  0
   -1.2952   -4.0999    0.0000 O   0  0  0  0  0  0  0  0  0  0  0  0
   -2.5658    1.2206    0.0000 O   0  0  0  0  0  0  0  0  0  0  0  0
   -3.8783    0.4945    0.0000 H   0  0  0  0  0  0  0  0  0  0  0  0
    1.6599   -3.0039    0.0000 O   0  0  0  0  0  0  0  0  0  0  0  0
    2.1660   -4.4159    0.0000 H   0  0  0  0  0  0  0  0  0  0  0  0
  1  2  1  0  0  0  0 
  1  3  1  0  0  0  0 
  1  4  1  0  0  0  0 
  1  5  1  0  0  0  0 
  5  6  1  0  0  0  0 
  5  7  1  0  0  0  0 
  7  8  1  0  0  0  0 
  7  9  1  0  0  0  0 
  7 10  1  0  0  0  0 
 10 11  2  0  0  0  0 
 11 12  1  0  0  0  0 
 11 13  1  0  0  0  0 
 13 14  1  0  0  0  0 
 13 15  2  0  0  0  0 
 15 16  1  0  0  0  0 
 16 17  1  0  0  0  0 
 16 18  2  0  0  0  0 
 10 18  1  0  0  0  0 
 18 19  1  0  0  0  0 
 15 20  1  0  0  0  0 
 20 21  1  0  0  0  0 
 21 22  1  0  0  0  0 
 21 23  1  0  0  0  0 
 21 24  1  0  0  0  0 
  5 25  1  0  0  0  0 
 25 26  2  0  0  0  0 
 26 27  1  4  0  0  0 
 26 28  1  0  0  0  0 
 28 29  1  0  0  0  0 
 28 30  1  0  0  0  0 
 30 31  2  0  0  0  0 
 31 32  1  0  0  0  0 
 31 33  1  0  0  0  0 
 33 34  1  0  0  0  0 
 33 35  2  0  0  0  0 
 35 36  1  0  0  0  0 
 36 37  2  0  0  0  0 
 30 37  1  0  0  0  0 
 37 38  1  0  0  0  0 
 36 39  1  0  0  0  0 
 39 40  1  0  0  0  0 
 39 41  1  0  0  0  0 
 41 42  1  0  0  0  0 
 41 43  2  0  0  0  0 
 35 44  1  0  0  0  0 
 44 45  1  0  0  0  0 
 28 46  1  0  0  0  0 
 46 47  1  0  0  0  0 
M  END
> <Rank>
29

> <Priority_score>
0.0712

> <Reaction_type>
dehydration of N-C bond

> <Parent_ID>
46

> <Parent_InChI>
InChI=1S/C19H24N2O4/c1-13(9-14-3-6-16(25-2)7-4-14)20-11-19(24)15-5-8-18(23)17(10-15)21-12-22/h3-8,10,12-13,19-20,23-24H,9,11H2,1-2H3,(H,21,22)

> <Parent_SMILES>
COc1ccc(CC(C)NCC(O)c2ccc(O)c(NC=O)c2)cc1

$$$$
Molecule 46_metabolite 30
  CDK     0516241031

 47 48  0  0  0  0  0  0  0  0999 V2000
    7.0366   -2.8536    0.0000 C   0  0  0  0  0  0  0  0  0  0  0  0
    6.0668   -3.9979    0.0000 H   0  0  0  0  0  0  0  0  0  0  0  0
    7.9951   -4.0074    0.0000 H   0  0  0  0  0  0  0  0  0  0  0  0
    8.3393   -2.1100    0.0000 H   0  0  0  0  0  0  0  0  0  0  0  0
    6.5305   -1.4415    0.0000 C   0  0  0  0  0  0  0  0  0  0  0  0
    8.0090   -1.1883    0.0000 H   0  0  0  0  0  0  0  0  0  0  0  0
    6.5379    0.0585    0.0000 C   0  0  0  0  0  0  0  0  0  0  0  0
    6.0318    1.4705    0.0000 H   0  0  0  0  0  0  0  0  0  0  0  0
    5.0594   -0.1947    0.0000 H   0  0  0  0  0  0  0  0  0  0  0  0
    7.8406    0.8021    0.0000 C   0  0  0  0  0  0  0  0  0  0  0  0
    7.8406    2.3021    0.0000 C   0  0  0  0  0  0  0  0  0  0  0  0
    6.5379    3.0457    0.0000 H   0  0  0  0  0  0  0  0  0  0  0  0
    9.1106    3.0521    0.0000 C   0  0  0  0  0  0  0  0  0  0  0  0
    9.0909    4.5519    0.0000 H   0  0  0  0  0  0  0  0  0  0  0  0
   10.4606    2.3021    0.0000 C   0  0  0  0  0  0  0  0  0  0  0  0
   10.4606    0.8021    0.0000 C   0  0  0  0  0  0  0  0  0  0  0  0
   11.7534    0.0414    0.0000 H   0  0  0  0  0  0  0  0  0  0  0  0
    9.1106    0.0521    0.0000 C   0  0  0  0  0  0  0  0  0  0  0  0
    9.0909   -1.4478    0.0000 H   0  0  0  0  0  0  0  0  0  0  0  0
   11.7534    3.0628    0.0000 O   0  0  0  0  0  0  0  0  0  0  0  0
   11.7411    4.5627    0.0000 C   0  0  0  0  0  0  0  0  0  0  0  0
   13.0339    5.3234    0.0000 H   0  0  0  0  0  0  0  0  0  0  0  0
   11.2164    5.9680    0.0000 H   0  0  0  0  0  0  0  0  0  0  0  0
   10.2660    4.2901    0.0000 H   0  0  0  0  0  0  0  0  0  0  0  0
    5.2278   -2.1851    0.0000 N   0  0  0  0  0  0  0  0  0  0  0  0
    5.2204   -3.6851    0.0000 H   0  0  0  0  0  0  0  0  0  0  0  0
    3.9325   -1.4287    0.0000 C   0  0  0  0  0  0  0  0  0  0  0  0
    3.9399    0.0713    0.0000 H   0  0  0  0  0  0  0  0  0  0  0  0
    2.6298   -2.1723    0.0000 C   0  0  0  0  0  0  0  0  0  0  0  0
    1.3344   -1.4159    0.0000 C   0  0  0  0  0  0  0  0  0  0  0  0
    1.3471    0.0762    0.0000 C   0  0  0  0  0  0  0  0  0  0  0  0
    2.6535    0.8132    0.0000 H   0  0  0  0  0  0  0  0  0  0  0  0
    0.0568    0.8411    0.0000 C   0  0  0  0  0  0  0  0  0  0  0  0
    0.0934    2.3406    0.0000 H   0  0  0  0  0  0  0  0  0  0  0  0
   -1.2806    0.1343    0.0000 C   0  0  0  0  0  0  0  0  0  0  0  0
   -1.2793   -1.4127    0.0000 C   0  0  0  0  0  0  0  0  0  0  0  0
    0.0111   -2.1776    0.0000 C   0  0  0  0  0  0  0  0  0  0  0  0
    0.0014   -3.6775    0.0000 H   0  0  0  0  0  0  0  0  0  0  0  0
   -2.5823   -2.1558    0.0000 N   0  0  0  0  0  0  0  0  0  0  0  0
   -3.8773   -1.3989    0.0000 H   0  0  0  0  0  0  0  0  0  0  0  0
   -2.5902   -3.6557    0.0000 C   0  0  0  0  0  0  0  0  0  0  0  0
   -3.8932   -4.3988    0.0000 H   0  0  0  0  0  0  0  0  0  0  0  0
   -1.2952   -4.4126    0.0000 O   0  0  0  0  0  0  0  0  0  0  0  0
   -2.5658    0.9078    0.0000 O   0  0  0  0  0  0  0  0  0  0  0  0
   -3.8783    0.1817    0.0000 H   0  0  0  0  0  0  0  0  0  0  0  0
    2.6224   -3.6723    0.0000 O   0  0  0  0  0  0  0  0  0  0  0  0
    1.3197   -4.4159    0.0000 H   0  0  0  0  0  0  0  0  0  0  0  0
  1  2  1  0  0  0  0 
  1  3  1  0  0  0  0 
  1  4  1  0  0  0  0 
  1  5  1  0  0  0  0 
  5  6  1  0  0  0  0 
  5  7  1  0  0  0  0 
  7  8  1  0  0  0  0 
  7  9  1  0  0  0  0 
  7 10  1  0  0  0  0 
 10 11  2  0  0  0  0 
 11 12  1  0  0  0  0 
 11 13  1  0  0  0  0 
 13 14  1  0  0  0  0 
 13 15  2  0  0  0  0 
 15 16  1  0  0  0  0 
 16 17  1  0  0  0  0 
 16 18  2  0  0  0  0 
 10 18  1  0  0  0  0 
 18 19  1  0  0  0  0 
 15 20  1  0  0  0  0 
 20 21  1  0  0  0  0 
 21 22  1  0  0  0  0 
 21 23  1  0  0  0  0 
 21 24  1  0  0  0  0 
  5 25  1  0  0  0  0 
 25 26  1  0  0  0  0 
 25 27  1  0  0  0  0 
 27 28  1  4  0  0  0 
 27 29  2  0  0  0  0 
 29 30  1  0  0  0  0 
 30 31  2  0  0  0  0 
 31 32  1  0  0  0  0 
 31 33  1  0  0  0  0 
 33 34  1  0  0  0  0 
 33 35  2  0  0  0  0 
 35 36  1  0  0  0  0 
 36 37  2  0  0  0  0 
 30 37  1  0  0  0  0 
 37 38  1  0  0  0  0 
 36 39  1  0  0  0  0 
 39 40  1  0  0  0  0 
 39 41  1  0  0  0  0 
 41 42  1  0  0  0  0 
 41 43  2  0  0  0  0 
 35 44  1  0  0  0  0 
 44 45  1  0  0  0  0 
 29 46  1  0  0  0  0 
 46 47  1  0  0  0  0 
M  END
> <Rank>
29

> <Priority_score>
0.0712

> <Reaction_type>
alkyl dehydrogenation

> <Parent_ID>
46

> <Parent_InChI>
InChI=1S/C19H24N2O4/c1-13(9-14-3-6-16(25-2)7-4-14)20-11-19(24)15-5-8-18(23)17(10-15)21-12-22/h3-8,10,12-13,19-20,23-24H,9,11H2,1-2H3,(H,21,22)

> <Parent_SMILES>
COc1ccc(CC(C)NCC(O)c2ccc(O)c(NC=O)c2)cc1

$$$$
Molecule 46_metabolite 31
  CDK     0516241031

 48 49  0  0  0  0  0  0  0  0999 V2000
    7.0366   -2.5408    0.0000 C   0  0  0  0  0  0  0  0  0  0  0  0
    6.0668   -3.6851    0.0000 H   0  0  0  0  0  0  0  0  0  0  0  0
    7.9951   -3.6946    0.0000 H   0  0  0  0  0  0  0  0  0  0  0  0
    8.3393   -1.7972    0.0000 H   0  0  0  0  0  0  0  0  0  0  0  0
    6.5305   -1.1287    0.0000 C   0  0  0  0  0  0  0  0  0  0  0  0
    8.0090   -0.8755    0.0000 H   0  0  0  0  0  0  0  0  0  0  0  0
    6.5379    0.3712    0.0000 C   0  0  0  0  0  0  0  0  0  0  0  0
    6.0318    1.7833    0.0000 H   0  0  0  0  0  0  0  0  0  0  0  0
    5.0594    0.1180    0.0000 H   0  0  0  0  0  0  0  0  0  0  0  0
    7.8406    1.1148    0.0000 C   0  0  0  0  0  0  0  0  0  0  0  0
    7.8406    2.6148    0.0000 C   0  0  0  0  0  0  0  0  0  0  0  0
    6.5379    3.3584    0.0000 H   0  0  0  0  0  0  0  0  0  0  0  0
    9.1106    3.3648    0.0000 C   0  0  0  0  0  0  0  0  0  0  0  0
    9.0909    4.8647    0.0000 H   0  0  0  0  0  0  0  0  0  0  0  0
   10.4606    2.6148    0.0000 C   0  0  0  0  0  0  0  0  0  0  0  0
   10.4606    1.1148    0.0000 C   0  0  0  0  0  0  0  0  0  0  0  0
   11.7534    0.3542    0.0000 H   0  0  0  0  0  0  0  0  0  0  0  0
    9.1106    0.3648    0.0000 C   0  0  0  0  0  0  0  0  0  0  0  0
    9.0909   -1.1350    0.0000 H   0  0  0  0  0  0  0  0  0  0  0  0
   11.7534    3.3755    0.0000 O   0  0  0  0  0  0  0  0  0  0  0  0
   11.7411    4.8755    0.0000 C   0  0  0  0  0  0  0  0  0  0  0  0
   13.0339    5.6362    0.0000 H   0  0  0  0  0  0  0  0  0  0  0  0
   11.2164    6.2807    0.0000 H   0  0  0  0  0  0  0  0  0  0  0  0
   10.2660    4.6028    0.0000 H   0  0  0  0  0  0  0  0  0  0  0  0
    5.2278   -1.8723    0.0000 N   0  0  0  0  0  0  0  0  0  0  0  0
    5.2204   -3.3723    0.0000 H   0  0  0  0  0  0  0  0  0  0  0  0
    3.9325   -1.1159    0.0000 C   0  0  0  0  0  0  0  0  0  0  0  0
    3.9399    0.3840    0.0000 H   0  0  0  0  0  0  0  0  0  0  0  0
    2.6298   -1.8595    0.0000 C   0  0  0  0  0  0  0  0  0  0  0  0
    3.5883   -3.0133    0.0000 H   0  0  0  0  0  0  0  0  0  0  0  0
    1.3344   -1.1032    0.0000 C   0  0  0  0  0  0  0  0  0  0  0  0
    1.3471    0.3890    0.0000 C   0  0  0  0  0  0  0  0  0  0  0  0
    2.6535    1.1259    0.0000 H   0  0  0  0  0  0  0  0  0  0  0  0
    0.0568    1.1539    0.0000 C   0  0  0  0  0  0  0  0  0  0  0  0
    0.0934    2.6534    0.0000 H   0  0  0  0  0  0  0  0  0  0  0  0
   -1.2806    0.4470    0.0000 C   0  0  0  0  0  0  0  0  0  0  0  0
   -1.2793   -1.0999    0.0000 C   0  0  0  0  0  0  0  0  0  0  0  0
    0.0111   -1.8648    0.0000 C   0  0  0  0  0  0  0  0  0  0  0  0
    0.0014   -3.3648    0.0000 H   0  0  0  0  0  0  0  0  0  0  0  0
   -2.5823   -1.8430    0.0000 N   0  0  0  0  0  0  0  0  0  0  0  0
   -3.8773   -1.0861    0.0000 H   0  0  0  0  0  0  0  0  0  0  0  0
   -2.5902   -3.3430    0.0000 C   0  0  0  0  0  0  0  0  0  0  0  0
   -3.8932   -4.0861    0.0000 H   0  0  0  0  0  0  0  0  0  0  0  0
   -1.2952   -4.0999    0.0000 O   0  0  0  0  0  0  0  0  0  0  0  0
   -2.5658    1.2206    0.0000 O   0  0  0  0  0  0  0  0  0  0  0  0
   -3.8783    0.4945    0.0000 H   0  0  0  0  0  0  0  0  0  0  0  0
    1.6599   -3.0039    0.0000 O   0  0  0  0  0  0  0  0  0  0  0  0
    2.1660   -4.4159    0.0000 H   0  0  0  0  0  0  0  0  0  0  0  0
  1  2  1  0  0  0  0 
  1  3  1  0  0  0  0 
  1  4  1  0  0  0  0 
  1  5  1  0  0  0  0 
  5  6  1  0  0  0  0 
  5  7  1  0  0  0  0 
  7  8  1  0  0  0  0 
  7  9  1  0  0  0  0 
  7 10  1  0  0  0  0 
 10 11  2  0  0  0  0 
 11 12  1  0  0  0  0 
 11 13  1  0  0  0  0 
 13 14  1  0  0  0  0 
 13 15  2  0  0  0  0 
 15 16  1  0  0  0  0 
 16 17  1  0  0  0  0 
 16 18  2  0  0  0  0 
 10 18  1  0  0  0  0 
 18 19  1  0  0  0  0 
 15 20  1  0  0  0  0 
 20 21  1  0  0  0  0 
 21 22  1  0  0  0  0 
 21 23  1  0  0  0  0 
 21 24  1  0  0  0  0 
  5 25  1  0  0  0  0 
 25 26  1  4  0  0  0 
 25 27  2  0  0  0  0 
 27 28  1  0  0  0  0 
 27 29  1  0  0  0  0 
 29 30  1  0  0  0  0 
 29 31  1  0  0  0  0 
 31 32  2  0  0  0  0 
 32 33  1  0  0  0  0 
 32 34  1  0  0  0  0 
 34 35  1  0  0  0  0 
 34 36  2  0  0  0  0 
 36 37  1  0  0  0  0 
 37 38  2  0  0  0  0 
 31 38  1  0  0  0  0 
 38 39  1  0  0  0  0 
 37 40  1  0  0  0  0 
 40 41  1  0  0  0  0 
 40 42  1  0  0  0  0 
 42 43  1  0  0  0  0 
 42 44  2  0  0  0  0 
 36 45  1  0  0  0  0 
 45 46  1  0  0  0  0 
 29 47  1  0  0  0  0 
 47 48  1  0  0  0  0 
M  CHG  1  25   1
M  END
> <Rank>
29

> <Priority_score>
0.0712

> <Reaction_type>
dehydration of N-C bond

> <Parent_ID>
46

> <Parent_InChI>
InChI=1S/C19H24N2O4/c1-13(9-14-3-6-16(25-2)7-4-14)20-11-19(24)15-5-8-18(23)17(10-15)21-12-22/h3-8,10,12-13,19-20,23-24H,9,11H2,1-2H3,(H,21,22)

> <Parent_SMILES>
COc1ccc(CC(C)NCC(O)c2ccc(O)c(NC=O)c2)cc1

$$$$
Molecule 46_metabolite 32
  CDK     0516241031

 50 51  0  0  0  0  0  0  0  0999 V2000
   10.3579    4.4444    0.0000 C   0  0  0  0  0  0  0  0  0  0  0  0
   11.5117    5.4029    0.0000 H   0  0  0  0  0  0  0  0  0  0  0  0
    9.6143    5.7471    0.0000 H   0  0  0  0  0  0  0  0  0  0  0  0
    8.9459    3.9383    0.0000 H   0  0  0  0  0  0  0  0  0  0  0  0
   10.6111    2.9659    0.0000 C   0  0  0  0  0  0  0  0  0  0  0  0
   12.0232    3.4720    0.0000 H   0  0  0  0  0  0  0  0  0  0  0  0
   11.3547    1.6632    0.0000 C   0  0  0  0  0  0  0  0  0  0  0  0
   11.6079    0.1847    0.0000 H   0  0  0  0  0  0  0  0  0  0  0  0
    9.9427    1.1571    0.0000 H   0  0  0  0  0  0  0  0  0  0  0  0
   12.8547    1.6558    0.0000 C   0  0  0  0  0  0  0  0  0  0  0  0
   13.5919    0.3494    0.0000 C   0  0  0  0  0  0  0  0  0  0  0  0
   12.8228   -0.9384    0.0000 H   0  0  0  0  0  0  0  0  0  0  0  0
   15.0665    0.3204    0.0000 C   0  0  0  0  0  0  0  0  0  0  0  0
   15.7864   -0.9956    0.0000 H   0  0  0  0  0  0  0  0  0  0  0  0
   15.8737    1.6370    0.0000 C   0  0  0  0  0  0  0  0  0  0  0  0
   15.1365    2.9434    0.0000 C   0  0  0  0  0  0  0  0  0  0  0  0
   15.8885    4.2412    0.0000 H   0  0  0  0  0  0  0  0  0  0  0  0
   13.5922    2.9331    0.0000 C   0  0  0  0  0  0  0  0  0  0  0  0
   12.8378    4.2296    0.0000 H   0  0  0  0  0  0  0  0  0  0  0  0
   17.3734    1.6099    0.0000 O   0  0  0  0  0  0  0  0  0  0  0  0
   18.0998    0.2975    0.0000 C   0  0  0  0  0  0  0  0  0  0  0  0
   19.5995    0.2704    0.0000 H   0  0  0  0  0  0  0  0  0  0  0  0
   18.3335   -1.1842    0.0000 H   0  0  0  0  0  0  0  0  0  0  0  0
   16.6812   -0.1899    0.0000 H   0  0  0  0  0  0  0  0  0  0  0  0
    8.6311    2.9756    0.0000 N   0  0  0  0  0  0  0  0  0  0  0  0
    7.8748    1.6803    0.0000 H   0  0  0  0  0  0  0  0  0  0  0  0
    7.8876    4.2783    0.0000 C   0  0  0  0  0  0  0  0  0  0  0  0
    7.6344    5.7568    0.0000 H   0  0  0  0  0  0  0  0  0  0  0  0
    9.2996    4.7844    0.0000 H   0  0  0  0  0  0  0  0  0  0  0  0
    5.9076    4.2881    0.0000 C   0  0  0  0  0  0  0  0  0  0  0  0
    6.1608    2.8096    0.0000 H   0  0  0  0  0  0  0  0  0  0  0  0
    4.6881    6.4245    0.0000 C   0  0  0  0  0  0  0  0  0  0  0  0
    3.5335    5.4656    0.0000 C   0  0  0  0  0  0  0  0  0  0  0  0
    3.7870    3.9872    0.0000 H   0  0  0  0  0  0  0  0  0  0  0  0
    2.1255    5.9851    0.0000 C   0  0  0  0  0  0  0  0  0  0  0  0
    0.9720    5.0262    0.0000 H   0  0  0  0  0  0  0  0  0  0  0  0
    1.8720    7.4635    0.0000 C   0  0  0  0  0  0  0  0  0  0  0  0
    0.4649    7.9834    0.0000 O   0  0  0  0  0  0  0  0  0  0  0  0
    3.0265    8.4225    0.0000 C   0  0  0  0  0  0  0  0  0  0  0  0
    4.4346    7.9030    0.0000 C   0  0  0  0  0  0  0  0  0  0  0  0
    5.5880    8.8619    0.0000 H   0  0  0  0  0  0  0  0  0  0  0  0
    2.7730    9.9009    0.0000 N   0  0  0  0  0  0  0  0  0  0  0  0
    1.3659   10.4205    0.0000 H   0  0  0  0  0  0  0  0  0  0  0  0
    3.9266   10.8596    0.0000 C   0  0  0  0  0  0  0  0  0  0  0  0
    3.6731   12.3381    0.0000 H   0  0  0  0  0  0  0  0  0  0  0  0
    5.3337   10.3400    0.0000 O   0  0  0  0  0  0  0  0  0  0  0  0
    6.1001    6.9308    0.0000 O   0  0  0  0  0  0  0  0  0  0  0  0
    6.3677    8.4067    0.0000 H   0  0  0  0  0  0  0  0  0  0  0  0
    3.1400    3.2962    0.0000 O   0  0  0  0  0  0  0  0  0  0  0  0
    2.8722    1.8203    0.0000 H   0  0  0  0  0  0  0  0  0  0  0  0
  1  2  1  0  0  0  0 
  1  3  1  0  0  0  0 
  1  4  1  0  0  0  0 
  1  5  1  0  0  0  0 
  5  6  1  0  0  0  0 
  5  7  1  0  0  0  0 
  7  8  1  0  0  0  0 
  7  9  1  0  0  0  0 
  7 10  1  0  0  0  0 
 10 11  2  0  0  0  0 
 11 12  1  0  0  0  0 
 11 13  1  0  0  0  0 
 13 14  1  0  0  0  0 
 13 15  2  0  0  0  0 
 15 16  1  0  0  0  0 
 16 17  1  0  0  0  0 
 16 18  2  0  0  0  0 
 10 18  1  0  0  0  0 
 18 19  1  0  0  0  0 
 15 20  1  0  0  0  0 
 20 21  1  0  0  0  0 
 21 22  1  0  0  0  0 
 21 23  1  0  0  0  0 
 21 24  1  0  0  0  0 
  5 25  1  0  0  0  0 
 25 26  1  0  0  0  0 
 25 27  1  0  0  0  0 
 27 28  1  0  0  0  0 
 27 29  1  0  0  0  0 
 27 30  1  0  0  0  0 
 30 31  1  0  0  0  0 
 30 32  1  0  0  0  0 
 32 33  1  0  0  0  0 
 33 34  1  0  0  0  0 
 33 35  2  0  0  0  0 
 35 36  1  0  0  0  0 
 35 37  1  0  0  0  0 
 37 38  2  0  0  0  0 
 37 39  1  0  0  0  0 
 39 40  2  0  0  0  0 
 32 40  1  0  0  0  0 
 40 41  1  0  0  0  0 
 39 42  1  0  0  0  0 
 42 43  1  0  0  0  0 
 42 44  1  0  0  0  0 
 44 45  1  0  0  0  0 
 44 46  2  0  0  0  0 
 32 47  1  0  0  0  0 
 47 48  1  0  0  0  0 
 30 49  1  0  0  0  0 
 49 50  1  0  0  0  0 
M  END
> <Rank>
32

> <Priority_score>
0.0664

> <Reaction_type>
oxidation of 4-substituted phenol to quinone (substituent not a leaving group)

> <Parent_ID>
46

> <Parent_InChI>
InChI=1S/C19H24N2O4/c1-13(9-14-3-6-16(25-2)7-4-14)20-11-19(24)15-5-8-18(23)17(10-15)21-12-22/h3-8,10,12-13,19-20,23-24H,9,11H2,1-2H3,(H,21,22)

> <Parent_SMILES>
COc1ccc(CC(C)NCC(O)c2ccc(O)c(NC=O)c2)cc1

$$$$
Molecule 46_metabolite 33
  CDK     0516241031

 69 71  0  0  0  0  0  0  0  0999 V2000
   10.3253   -3.9099    0.0000 C   0  0  0  0  0  0  0  0  0  0  0  0
   11.0750   -2.6107    0.0000 H   0  0  0  0  0  0  0  0  0  0  0  0
    9.1764   -4.8743    0.0000 H   0  0  0  0  0  0  0  0  0  0  0  0
    9.1760   -2.9459    0.0000 H   0  0  0  0  0  0  0  0  0  0  0  0
   11.0755   -5.2088    0.0000 C   0  0  0  0  0  0  0  0  0  0  0  0
   12.2244   -4.2444    0.0000 H   0  0  0  0  0  0  0  0  0  0  0  0
   12.2247   -6.1728    0.0000 C   0  0  0  0  0  0  0  0  0  0  0  0
   12.9750   -7.4717    0.0000 H   0  0  0  0  0  0  0  0  0  0  0  0
   11.0758   -7.1372    0.0000 H   0  0  0  0  0  0  0  0  0  0  0  0
   13.6342   -5.6595    0.0000 C   0  0  0  0  0  0  0  0  0  0  0  0
   14.7787   -6.6291    0.0000 C   0  0  0  0  0  0  0  0  0  0  0  0
   14.5039   -8.1038    0.0000 H   0  0  0  0  0  0  0  0  0  0  0  0
   16.1718   -6.1449    0.0000 C   0  0  0  0  0  0  0  0  0  0  0  0
   17.3035   -7.1296    0.0000 H   0  0  0  0  0  0  0  0  0  0  0  0
   16.4723   -4.6301    0.0000 C   0  0  0  0  0  0  0  0  0  0  0  0
   15.3278   -3.6605    0.0000 C   0  0  0  0  0  0  0  0  0  0  0  0
   15.5831   -2.1824    0.0000 H   0  0  0  0  0  0  0  0  0  0  0  0
   13.8829   -4.2057    0.0000 C   0  0  0  0  0  0  0  0  0  0  0  0
   12.7257   -3.2512    0.0000 H   0  0  0  0  0  0  0  0  0  0  0  0
   17.8884   -4.1354    0.0000 O   0  0  0  0  0  0  0  0  0  0  0  0
   19.0248   -5.1145    0.0000 C   0  0  0  0  0  0  0  0  0  0  0  0
   20.4409   -4.6198    0.0000 H   0  0  0  0  0  0  0  0  0  0  0  0
   19.7578   -6.4231    0.0000 H   0  0  0  0  0  0  0  0  0  0  0  0
   17.8633   -6.0636    0.0000 H   0  0  0  0  0  0  0  0  0  0  0  0
    9.2150   -5.8863    0.0000 N   0  0  0  0  0  0  0  0  0  0  0  0
    8.9548   -7.3636    0.0000 H   0  0  0  0  0  0  0  0  0  0  0  0
    8.0658   -4.9224    0.0000 C   0  0  0  0  0  0  0  0  0  0  0  0
    7.3156   -3.6235    0.0000 H   0  0  0  0  0  0  0  0  0  0  0  0
    9.2147   -3.9580    0.0000 H   0  0  0  0  0  0  0  0  0  0  0  0
    6.6563   -5.4356    0.0000 C   0  0  0  0  0  0  0  0  0  0  0  0
    7.4066   -6.7345    0.0000 H   0  0  0  0  0  0  0  0  0  0  0  0
    5.5071   -4.4717    0.0000 C   0  0  0  0  0  0  0  0  0  0  0  0
    5.7712   -3.0030    0.0000 C   0  0  0  0  0  0  0  0  0  0  0  0
    7.1832   -2.4969    0.0000 H   0  0  0  0  0  0  0  0  0  0  0  0
    4.6283   -2.0315    0.0000 C   0  0  0  0  0  0  0  0  0  0  0  0
    4.9173   -0.5596    0.0000 H   0  0  0  0  0  0  0  0  0  0  0  0
    3.1909   -2.5027    0.0000 C   0  0  0  0  0  0  0  0  0  0  0  0
    2.9314   -4.0277    0.0000 C   0  0  0  0  0  0  0  0  0  0  0  0
    4.0742   -4.9992    0.0000 C   0  0  0  0  0  0  0  0  0  0  0  0
    3.8118   -6.4761    0.0000 H   0  0  0  0  0  0  0  0  0  0  0  0
    1.5217   -4.5404    0.0000 N   0  0  0  0  0  0  0  0  0  0  0  0
    1.2609   -6.0176    0.0000 C   0  0  0  0  0  0  0  0  0  0  0  0
    2.4098   -6.9820    0.0000 H   0  0  0  0  0  0  0  0  0  0  0  0
   -0.1487   -6.5303    0.0000 O   0  0  0  0  0  0  0  0  0  0  0  0
    0.3729   -3.5760    0.0000 C   0  0  0  0  0  0  0  0  0  0  0  0
    1.5220   -2.6120    0.0000 H   0  0  0  0  0  0  0  0  0  0  0  0
   -0.3771   -2.2770    0.0000 C   0  0  0  0  0  0  0  0  0  0  0  0
    1.0324   -1.7638    0.0000 H   0  0  0  0  0  0  0  0  0  0  0  0
   -1.8780   -2.2775    0.0000 C   0  0  0  0  0  0  0  0  0  0  0  0
   -1.6176   -0.8002    0.0000 H   0  0  0  0  0  0  0  0  0  0  0  0
   -2.6288   -3.5770    0.0000 C   0  0  0  0  0  0  0  0  0  0  0  0
   -3.7777   -2.6126    0.0000 H   0  0  0  0  0  0  0  0  0  0  0  0
   -1.8788   -4.8760    0.0000 C   0  0  0  0  0  0  0  0  0  0  0  0
   -3.2883   -5.3892    0.0000 H   0  0  0  0  0  0  0  0  0  0  0  0
   -1.5346   -6.8259    0.0000 C   0  0  0  0  0  0  0  0  0  0  0  0
   -0.1249   -7.3386    0.0000 O   0  0  0  0  0  0  0  0  0  0  0  0
   -2.6834   -7.7903    0.0000 O   0  0  0  0  0  0  0  0  0  0  0  0
   -4.0931   -7.2776    0.0000 H   0  0  0  0  0  0  0  0  0  0  0  0
   -0.3780   -4.8755    0.0000 O   0  0  0  0  0  0  0  0  0  0  0  0
   -3.7780   -4.5410    0.0000 O   0  0  0  0  0  0  0  0  0  0  0  0
   -5.1874   -4.0279    0.0000 H   0  0  0  0  0  0  0  0  0  0  0  0
   -3.2874   -1.7643    0.0000 O   0  0  0  0  0  0  0  0  0  0  0  0
   -3.5478   -0.2870    0.0000 H   0  0  0  0  0  0  0  0  0  0  0  0
   -0.6379   -0.7998    0.0000 O   0  0  0  0  0  0  0  0  0  0  0  0
    0.5109    0.1646    0.0000 H   0  0  0  0  0  0  0  0  0  0  0  0
    2.0546   -1.5235    0.0000 O   0  0  0  0  0  0  0  0  0  0  0  0
    2.3345   -0.0498    0.0000 H   0  0  0  0  0  0  0  0  0  0  0  0
    5.5074   -6.4000    0.0000 O   0  0  0  0  0  0  0  0  0  0  0  0
    5.7682   -7.8772    0.0000 H   0  0  0  0  0  0  0  0  0  0  0  0
  1  2  1  0  0  0  0 
  1  3  1  0  0  0  0 
  1  4  1  0  0  0  0 
  1  5  1  0  0  0  0 
  5  6  1  0  0  0  0 
  5  7  1  0  0  0  0 
  7  8  1  0  0  0  0 
  7  9  1  0  0  0  0 
  7 10  1  0  0  0  0 
 10 11  2  0  0  0  0 
 11 12  1  0  0  0  0 
 11 13  1  0  0  0  0 
 13 14  1  0  0  0  0 
 13 15  2  0  0  0  0 
 15 16  1  0  0  0  0 
 16 17  1  0  0  0  0 
 16 18  2  0  0  0  0 
 10 18  1  0  0  0  0 
 18 19  1  0  0  0  0 
 15 20  1  0  0  0  0 
 20 21  1  0  0  0  0 
 21 22  1  0  0  0  0 
 21 23  1  0  0  0  0 
 21 24  1  0  0  0  0 
  5 25  1  0  0  0  0 
 25 26  1  0  0  0  0 
 25 27  1  0  0  0  0 
 27 28  1  0  0  0  0 
 27 29  1  0  0  0  0 
 27 30  1  0  0  0  0 
 30 31  1  0  0  0  0 
 30 32  1  0  0  0  0 
 32 33  2  0  0  0  0 
 33 34  1  0  0  0  0 
 33 35  1  0  0  0  0 
 35 36  1  0  0  0  0 
 35 37  2  0  0  0  0 
 37 38  1  0  0  0  0 
 38 39  2  0  0  0  0 
 32 39  1  0  0  0  0 
 39 40  1  0  0  0  0 
 38 41  1  0  0  0  0 
 41 42  1  0  0  0  0 
 42 43  1  0  0  0  0 
 42 44  2  0  0  0  0 
 41 45  1  0  0  0  0 
 45 46  1  0  0  0  0 
 45 47  1  0  0  0  0 
 47 48  1  0  0  0  0 
 47 49  1  0  0  0  0 
 49 50  1  0  0  0  0 
 49 51  1  0  0  0  0 
 51 52  1  0  0  0  0 
 51 53  1  0  0  0  0 
 53 54  1  0  0  0  0 
 53 55  1  0  0  0  0 
 55 56  2  0  0  0  0 
 55 57  1  0  0  0  0 
 57 58  1  0  0  0  0 
 53 59  1  0  0  0  0 
 45 59  1  0  0  0  0 
 51 60  1  0  0  0  0 
 60 61  1  0  0  0  0 
 49 62  1  0  0  0  0 
 62 63  1  0  0  0  0 
 47 64  1  0  0  0  0 
 64 65  1  0  0  0  0 
 37 66  1  0  0  0  0 
 66 67  1  0  0  0  0 
 30 68  1  0  0  0  0 
 68 69  1  0  0  0  0 
M  END
> <Rank>
33

> <Priority_score>
0.056

> <Reaction_type>
N-glucuronidation_(aniline_NH1-R)

> <Parent_ID>
46

> <Parent_InChI>
InChI=1S/C19H24N2O4/c1-13(9-14-3-6-16(25-2)7-4-14)20-11-19(24)15-5-8-18(23)17(10-15)21-12-22/h3-8,10,12-13,19-20,23-24H,9,11H2,1-2H3,(H,21,22)

> <Parent_SMILES>
COc1ccc(CC(C)NCC(O)c2ccc(O)c(NC=O)c2)cc1

$$$$
Molecule 46_metabolite 34
  CDK     0516241031

 47 48  0  0  0  0  0  0  0  0999 V2000
    2.3558    4.8837    0.0000 C   0  0  0  0  0  0  0  0  0  0  0  0
    1.2115    5.8535    0.0000 H   0  0  0  0  0  0  0  0  0  0  0  0
    1.2020    3.9252    0.0000 H   0  0  0  0  0  0  0  0  0  0  0  0
    3.0994    3.5810    0.0000 H   0  0  0  0  0  0  0  0  0  0  0  0
    3.7678    5.3898    0.0000 C   0  0  0  0  0  0  0  0  0  0  0  0
    4.0210    3.9113    0.0000 H   0  0  0  0  0  0  0  0  0  0  0  0
    5.2678    5.3824    0.0000 C   0  0  0  0  0  0  0  0  0  0  0  0
    6.6799    5.8885    0.0000 H   0  0  0  0  0  0  0  0  0  0  0  0
    5.0146    6.8609    0.0000 H   0  0  0  0  0  0  0  0  0  0  0  0
    6.0114    4.0797    0.0000 C   0  0  0  0  0  0  0  0  0  0  0  0
    7.5114    4.0797    0.0000 C   0  0  0  0  0  0  0  0  0  0  0  0
    8.2550    5.3824    0.0000 H   0  0  0  0  0  0  0  0  0  0  0  0
    8.2614    2.8097    0.0000 C   0  0  0  0  0  0  0  0  0  0  0  0
    9.7613    2.8295    0.0000 H   0  0  0  0  0  0  0  0  0  0  0  0
    7.5114    1.4597    0.0000 C   0  0  0  0  0  0  0  0  0  0  0  0
    6.0114    1.4597    0.0000 C   0  0  0  0  0  0  0  0  0  0  0  0
    5.2507    0.1669    0.0000 H   0  0  0  0  0  0  0  0  0  0  0  0
    5.2614    2.8097    0.0000 C   0  0  0  0  0  0  0  0  0  0  0  0
    3.7615    2.8295    0.0000 H   0  0  0  0  0  0  0  0  0  0  0  0
    8.2721    0.1669    0.0000 O   0  0  0  0  0  0  0  0  0  0  0  0
    9.7720    0.1793    0.0000 C   0  0  0  0  0  0  0  0  0  0  0  0
   10.5327   -1.1135    0.0000 H   0  0  0  0  0  0  0  0  0  0  0  0
   11.1773    0.7039    0.0000 H   0  0  0  0  0  0  0  0  0  0  0  0
    9.4994    1.6543    0.0000 H   0  0  0  0  0  0  0  0  0  0  0  0
    3.0242    6.6925    0.0000 N   0  0  0  0  0  0  0  0  0  0  0  0
    3.7806    7.9879    0.0000 H   0  0  0  0  0  0  0  0  0  0  0  0
    1.0443    6.7023    0.0000 C   0  0  0  0  0  0  0  0  0  0  0  0
   -0.3678    6.1962    0.0000 H   0  0  0  0  0  0  0  0  0  0  0  0
    0.7765    5.2264    0.0000 H   0  0  0  0  0  0  0  0  0  0  0  0
    0.3007    8.0050    0.0000 C   0  0  0  0  0  0  0  0  0  0  0  0
    1.7127    8.5111    0.0000 H   0  0  0  0  0  0  0  0  0  0  0  0
   -1.1993    8.0124    0.0000 C   0  0  0  0  0  0  0  0  0  0  0  0
   -1.9472    6.7211    0.0000 C   0  0  0  0  0  0  0  0  0  0  0  0
   -1.1970    5.4222    0.0000 H   0  0  0  0  0  0  0  0  0  0  0  0
   -3.4472    6.7186    0.0000 C   0  0  0  0  0  0  0  0  0  0  0  0
   -4.1781    5.4088    0.0000 H   0  0  0  0  0  0  0  0  0  0  0  0
   -4.2393    8.0073    0.0000 C   0  0  0  0  0  0  0  0  0  0  0  0
   -3.4515    9.3386    0.0000 C   0  0  0  0  0  0  0  0  0  0  0  0
   -1.9515    9.3411    0.0000 C   0  0  0  0  0  0  0  0  0  0  0  0
   -1.1971   10.6376    0.0000 H   0  0  0  0  0  0  0  0  0  0  0  0
   -4.1956   10.6410    0.0000 N   0  0  0  0  0  0  0  0  0  0  0  0
   -5.6956   10.6478    0.0000 C   0  0  0  0  0  0  0  0  0  0  0  0
   -7.1956   10.6546    0.0000 O   0  0  0  0  0  0  0  0  0  0  0  0
   -5.7393    7.9947    0.0000 O   0  0  0  0  0  0  0  0  0  0  0  0
   -6.5002    9.2874    0.0000 H   0  0  0  0  0  0  0  0  0  0  0  0
    0.0475    9.4835    0.0000 O   0  0  0  0  0  0  0  0  0  0  0  0
    1.2013   10.4420    0.0000 H   0  0  0  0  0  0  0  0  0  0  0  0
  1  2  1  0  0  0  0 
  1  3  1  0  0  0  0 
  1  4  1  0  0  0  0 
  1  5  1  0  0  0  0 
  5  6  1  0  0  0  0 
  5  7  1  0  0  0  0 
  7  8  1  0  0  0  0 
  7  9  1  0  0  0  0 
  7 10  1  0  0  0  0 
 10 11  2  0  0  0  0 
 11 12  1  0  0  0  0 
 11 13  1  0  0  0  0 
 13 14  1  0  0  0  0 
 13 15  2  0  0  0  0 
 15 16  1  0  0  0  0 
 16 17  1  0  0  0  0 
 16 18  2  0  0  0  0 
 10 18  1  0  0  0  0 
 18 19  1  0  0  0  0 
 15 20  1  0  0  0  0 
 20 21  1  0  0  0  0 
 21 22  1  0  0  0  0 
 21 23  1  0  0  0  0 
 21 24  1  0  0  0  0 
  5 25  1  0  0  0  0 
 25 26  1  0  0  0  0 
 25 27  1  0  0  0  0 
 27 28  1  0  0  0  0 
 27 29  1  0  0  0  0 
 27 30  1  0  0  0  0 
 30 31  1  0  0  0  0 
 30 32  1  0  0  0  0 
 32 33  2  0  0  0  0 
 33 34  1  0  0  0  0 
 33 35  1  0  0  0  0 
 35 36  1  0  0  0  0 
 35 37  2  0  0  0  0 
 37 38  1  0  0  0  0 
 38 39  2  0  0  0  0 
 32 39  1  0  0  0  0 
 39 40  1  0  0  0  0 
 38 41  1  0  0  0  0 
 41 42  2  0  0  0  0 
 42 43  2  0  0  0  0 
 37 44  1  0  0  0  0 
 44 45  1  0  0  0  0 
 30 46  1  0  0  0  0 
 46 47  1  0  0  0  0 
M  END
> <Rank>
34

> <Priority_score>
0.039200000000000006

> <Reaction_type>
dehydration of N-C bond

> <Parent_ID>
46

> <Parent_InChI>
InChI=1S/C19H24N2O4/c1-13(9-14-3-6-16(25-2)7-4-14)20-11-19(24)15-5-8-18(23)17(10-15)21-12-22/h3-8,10,12-13,19-20,23-24H,9,11H2,1-2H3,(H,21,22)

> <Parent_SMILES>
COc1ccc(CC(C)NCC(O)c2ccc(O)c(NC=O)c2)cc1

$$$$
Molecule 46_metabolite 35
  CDK     0516241031

 48 49  0  0  0  0  0  0  0  0999 V2000
    2.9968    4.2427    0.0000 C   0  0  0  0  0  0  0  0  0  0  0  0
    1.8525    5.2125    0.0000 H   0  0  0  0  0  0  0  0  0  0  0  0
    1.8430    3.2842    0.0000 H   0  0  0  0  0  0  0  0  0  0  0  0
    3.7404    2.9400    0.0000 H   0  0  0  0  0  0  0  0  0  0  0  0
    4.4088    4.7488    0.0000 C   0  0  0  0  0  0  0  0  0  0  0  0
    4.6620    3.2703    0.0000 H   0  0  0  0  0  0  0  0  0  0  0  0
    5.9088    4.7414    0.0000 C   0  0  0  0  0  0  0  0  0  0  0  0
    7.3209    5.2475    0.0000 H   0  0  0  0  0  0  0  0  0  0  0  0
    5.6556    6.2199    0.0000 H   0  0  0  0  0  0  0  0  0  0  0  0
    6.6524    3.4387    0.0000 C   0  0  0  0  0  0  0  0  0  0  0  0
    8.1524    3.4387    0.0000 C   0  0  0  0  0  0  0  0  0  0  0  0
    8.8960    4.7414    0.0000 H   0  0  0  0  0  0  0  0  0  0  0  0
    8.9024    2.1687    0.0000 C   0  0  0  0  0  0  0  0  0  0  0  0
   10.4023    2.1885    0.0000 H   0  0  0  0  0  0  0  0  0  0  0  0
    8.1524    0.8187    0.0000 C   0  0  0  0  0  0  0  0  0  0  0  0
    6.6524    0.8187    0.0000 C   0  0  0  0  0  0  0  0  0  0  0  0
    5.8917   -0.4741    0.0000 H   0  0  0  0  0  0  0  0  0  0  0  0
    5.9024    2.1687    0.0000 C   0  0  0  0  0  0  0  0  0  0  0  0
    4.4025    2.1885    0.0000 H   0  0  0  0  0  0  0  0  0  0  0  0
    8.9131   -0.4741    0.0000 O   0  0  0  0  0  0  0  0  0  0  0  0
   10.4131   -0.4617    0.0000 C   0  0  0  0  0  0  0  0  0  0  0  0
   11.1738   -1.7545    0.0000 H   0  0  0  0  0  0  0  0  0  0  0  0
   11.8183    0.0629    0.0000 H   0  0  0  0  0  0  0  0  0  0  0  0
   10.1404    1.0133    0.0000 H   0  0  0  0  0  0  0  0  0  0  0  0
    3.6652    6.0515    0.0000 N   0  0  0  0  0  0  0  0  0  0  0  0
    4.4216    7.3468    0.0000 H   0  0  0  0  0  0  0  0  0  0  0  0
    1.6853    6.0613    0.0000 C   0  0  0  0  0  0  0  0  0  0  0  0
    0.2732    5.5552    0.0000 H   0  0  0  0  0  0  0  0  0  0  0  0
    1.1653    4.6543    0.0000 H   0  0  0  0  0  0  0  0  0  0  0  0
    0.9417    7.3640    0.0000 C   0  0  0  0  0  0  0  0  0  0  0  0
    2.3537    7.8701    0.0000 H   0  0  0  0  0  0  0  0  0  0  0  0
   -0.5583    7.3713    0.0000 C   0  0  0  0  0  0  0  0  0  0  0  0
   -1.3062    6.0801    0.0000 C   0  0  0  0  0  0  0  0  0  0  0  0
   -0.5560    4.7812    0.0000 H   0  0  0  0  0  0  0  0  0  0  0  0
   -2.8062    6.0776    0.0000 C   0  0  0  0  0  0  0  0  0  0  0  0
   -3.5371    4.7678    0.0000 H   0  0  0  0  0  0  0  0  0  0  0  0
   -3.5983    7.3663    0.0000 C   0  0  0  0  0  0  0  0  0  0  0  0
   -2.8105    8.6976    0.0000 C   0  0  0  0  0  0  0  0  0  0  0  0
   -1.3105    8.7001    0.0000 C   0  0  0  0  0  0  0  0  0  0  0  0
   -0.5561    9.9966    0.0000 H   0  0  0  0  0  0  0  0  0  0  0  0
   -3.5546   10.0000    0.0000 N   0  0  0  0  0  0  0  0  0  0  0  0
   -2.7987   11.2957    0.0000 H   0  0  0  0  0  0  0  0  0  0  0  0
   -5.0546   10.0068    0.0000 C   0  0  0  0  0  0  0  0  0  0  0  0
   -6.5546   10.0136    0.0000 O   0  0  0  0  0  0  0  0  0  0  0  0
   -5.0983    7.3537    0.0000 O   0  0  0  0  0  0  0  0  0  0  0  0
   -5.8592    8.6464    0.0000 H   0  0  0  0  0  0  0  0  0  0  0  0
    0.6885    8.8424    0.0000 O   0  0  0  0  0  0  0  0  0  0  0  0
    1.8423    9.8010    0.0000 H   0  0  0  0  0  0  0  0  0  0  0  0
  1  2  1  0  0  0  0 
  1  3  1  0  0  0  0 
  1  4  1  0  0  0  0 
  1  5  1  0  0  0  0 
  5  6  1  0  0  0  0 
  5  7  1  0  0  0  0 
  7  8  1  0  0  0  0 
  7  9  1  0  0  0  0 
  7 10  1  0  0  0  0 
 10 11  2  0  0  0  0 
 11 12  1  0  0  0  0 
 11 13  1  0  0  0  0 
 13 14  1  0  0  0  0 
 13 15  2  0  0  0  0 
 15 16  1  0  0  0  0 
 16 17  1  0  0  0  0 
 16 18  2  0  0  0  0 
 10 18  1  0  0  0  0 
 18 19  1  0  0  0  0 
 15 20  1  0  0  0  0 
 20 21  1  0  0  0  0 
 21 22  1  0  0  0  0 
 21 23  1  0  0  0  0 
 21 24  1  0  0  0  0 
  5 25  1  0  0  0  0 
 25 26  1  0  0  0  0 
 25 27  1  0  0  0  0 
 27 28  1  0  0  0  0 
 27 29  1  0  0  0  0 
 27 30  1  0  0  0  0 
 30 31  1  0  0  0  0 
 30 32  1  0  0  0  0 
 32 33  2  0  0  0  0 
 33 34  1  0  0  0  0 
 33 35  1  0  0  0  0 
 35 36  1  0  0  0  0 
 35 37  2  0  0  0  0 
 37 38  1  0  0  0  0 
 38 39  2  0  0  0  0 
 32 39  1  0  0  0  0 
 39 40  1  0  0  0  0 
 38 41  1  0  0  0  0 
 41 42  1  0  0  0  0 
 41 43  2  0  0  0  0 
 43 44  2  0  0  0  0 
 37 45  1  0  0  0  0 
 45 46  1  0  0  0  0 
 30 47  1  0  0  0  0 
 47 48  1  0  0  0  0 
M  CHG  1  41   1
M  END
> <Rank>
34

> <Priority_score>
0.039200000000000006

> <Reaction_type>
dehydration of N-C bond

> <Parent_ID>
46

> <Parent_InChI>
InChI=1S/C19H24N2O4/c1-13(9-14-3-6-16(25-2)7-4-14)20-11-19(24)15-5-8-18(23)17(10-15)21-12-22/h3-8,10,12-13,19-20,23-24H,9,11H2,1-2H3,(H,21,22)

> <Parent_SMILES>
COc1ccc(CC(C)NCC(O)c2ccc(O)c(NC=O)c2)cc1

$$$$
Molecule 46_metabolite 36
  CDK     0516241031

 48 49  0  0  0  0  0  0  0  0999 V2000
   -0.8984   -6.4602    0.0000 C   0  0  0  0  0  0  0  0  0  0  0  0
   -2.2024   -7.2016    0.0000 H   0  0  0  0  0  0  0  0  0  0  0  0
    0.5804   -6.2094    0.0000 H   0  0  0  0  0  0  0  0  0  0  0  0
   -0.3947   -7.8731    0.0000 H   0  0  0  0  0  0  0  0  0  0  0  0
   -0.8886   -4.9602    0.0000 C   0  0  0  0  0  0  0  0  0  0  0  0
   -2.1826   -4.2017    0.0000 N   0  0  0  0  0  0  0  0  0  0  0  0
   -2.1728   -2.7017    0.0000 H   0  0  0  0  0  0  0  0  0  0  0  0
   -3.4866   -4.9431    0.0000 C   0  0  0  0  0  0  0  0  0  0  0  0
   -4.4583   -6.0858    0.0000 H   0  0  0  0  0  0  0  0  0  0  0  0
   -2.5300   -6.0985    0.0000 H   0  0  0  0  0  0  0  0  0  0  0  0
   -4.7807   -4.1846    0.0000 C   0  0  0  0  0  0  0  0  0  0  0  0
   -3.8089   -3.0419    0.0000 H   0  0  0  0  0  0  0  0  0  0  0  0
   -6.0846   -4.9260    0.0000 C   0  0  0  0  0  0  0  0  0  0  0  0
   -6.0891   -6.4182    0.0000 C   0  0  0  0  0  0  0  0  0  0  0  0
   -4.7912   -7.1701    0.0000 H   0  0  0  0  0  0  0  0  0  0  0  0
   -7.3882   -7.1682    0.0000 C   0  0  0  0  0  0  0  0  0  0  0  0
   -7.3688   -8.6681    0.0000 H   0  0  0  0  0  0  0  0  0  0  0  0
   -8.7173   -6.4460    0.0000 C   0  0  0  0  0  0  0  0  0  0  0  0
   -8.6982   -4.8992    0.0000 C   0  0  0  0  0  0  0  0  0  0  0  0
   -7.3991   -4.1492    0.0000 C   0  0  0  0  0  0  0  0  0  0  0  0
   -7.3915   -2.6492    0.0000 H   0  0  0  0  0  0  0  0  0  0  0  0
   -9.9925   -4.1412    0.0000 N   0  0  0  0  0  0  0  0  0  0  0  0
  -11.2962   -4.8831    0.0000 H   0  0  0  0  0  0  0  0  0  0  0  0
   -9.9832   -2.6412    0.0000 C   0  0  0  0  0  0  0  0  0  0  0  0
  -11.2776   -1.8832    0.0000 H   0  0  0  0  0  0  0  0  0  0  0  0
   -8.6796   -1.8993    0.0000 O   0  0  0  0  0  0  0  0  0  0  0  0
  -10.0113   -7.2048    0.0000 O   0  0  0  0  0  0  0  0  0  0  0  0
  -11.3153   -6.4636    0.0000 H   0  0  0  0  0  0  0  0  0  0  0  0
   -5.7373   -3.0292    0.0000 O   0  0  0  0  0  0  0  0  0  0  0  0
   -5.2150   -1.6231    0.0000 H   0  0  0  0  0  0  0  0  0  0  0  0
    0.4154   -4.2188    0.0000 C   0  0  0  0  0  0  0  0  0  0  0  0
    1.3871   -3.0761    0.0000 H   0  0  0  0  0  0  0  0  0  0  0  0
   -0.5412   -3.0634    0.0000 H   0  0  0  0  0  0  0  0  0  0  0  0
    1.7094   -4.9773    0.0000 C   0  0  0  0  0  0  0  0  0  0  0  0
    3.0097   -4.2295    0.0000 C   0  0  0  0  0  0  0  0  0  0  0  0
    3.0048   -2.7295    0.0000 H   0  0  0  0  0  0  0  0  0  0  0  0
    4.2930   -4.9565    0.0000 C   0  0  0  0  0  0  0  0  0  0  0  0
    5.5834   -4.1916    0.0000 H   0  0  0  0  0  0  0  0  0  0  0  0
    4.3160   -6.5006    0.0000 C   0  0  0  0  0  0  0  0  0  0  0  0
    3.0157   -7.2485    0.0000 C   0  0  0  0  0  0  0  0  0  0  0  0
    3.0008   -8.7484    0.0000 H   0  0  0  0  0  0  0  0  0  0  0  0
    1.6925   -6.4522    0.0000 C   0  0  0  0  0  0  0  0  0  0  0  0
    0.3825   -7.1828    0.0000 H   0  0  0  0  0  0  0  0  0  0  0  0
    5.6199   -7.2421    0.0000 O   0  0  0  0  0  0  0  0  0  0  0  0
    6.9140   -6.4835    0.0000 C   0  0  0  0  0  0  0  0  0  0  0  0
    8.2179   -7.2250    0.0000 H   0  0  0  0  0  0  0  0  0  0  0  0
    7.8706   -5.3281    0.0000 H   0  0  0  0  0  0  0  0  0  0  0  0
    5.9422   -5.3408    0.0000 H   0  0  0  0  0  0  0  0  0  0  0  0
  1  2  1  0  0  0  0 
  1  3  1  0  0  0  0 
  1  4  1  0  0  0  0 
  1  5  1  0  0  0  0 
  5  6  2  0  0  0  0 
  6  7  1  4  0  0  0 
  6  8  1  0  0  0  0 
  8  9  1  0  0  0  0 
  8 10  1  0  0  0  0 
  8 11  1  0  0  0  0 
 11 12  1  0  0  0  0 
 11 13  1  0  0  0  0 
 13 14  2  0  0  0  0 
 14 15  1  0  0  0  0 
 14 16  1  0  0  0  0 
 16 17  1  0  0  0  0 
 16 18  2  0  0  0  0 
 18 19  1  0  0  0  0 
 19 20  2  0  0  0  0 
 13 20  1  0  0  0  0 
 20 21  1  0  0  0  0 
 19 22  1  0  0  0  0 
 22 23  1  0  0  0  0 
 22 24  1  0  0  0  0 
 24 25  1  0  0  0  0 
 24 26  2  0  0  0  0 
 18 27  1  0  0  0  0 
 27 28  1  0  0  0  0 
 11 29  1  0  0  0  0 
 29 30  1  0  0  0  0 
  5 31  1  0  0  0  0 
 31 32  1  0  0  0  0 
 31 33  1  0  0  0  0 
 31 34  1  0  0  0  0 
 34 35  2  0  0  0  0 
 35 36  1  0  0  0  0 
 35 37  1  0  0  0  0 
 37 38  1  0  0  0  0 
 37 39  2  0  0  0  0 
 39 40  1  0  0  0  0 
 40 41  1  0  0  0  0 
 40 42  2  0  0  0  0 
 34 42  1  0  0  0  0 
 42 43  1  0  0  0  0 
 39 44  1  0  0  0  0 
 44 45  1  0  0  0  0 
 45 46  1  0  0  0  0 
 45 47  1  0  0  0  0 
 45 48  1  0  0  0  0 
M  CHG  1   6   1
M  END
> <Rank>
36

> <Priority_score>
0.0352

> <Reaction_type>
dehydration of N-C bond

> <Parent_ID>
46

> <Parent_InChI>
InChI=1S/C19H24N2O4/c1-13(9-14-3-6-16(25-2)7-4-14)20-11-19(24)15-5-8-18(23)17(10-15)21-12-22/h3-8,10,12-13,19-20,23-24H,9,11H2,1-2H3,(H,21,22)

> <Parent_SMILES>
COc1ccc(CC(C)NCC(O)c2ccc(O)c(NC=O)c2)cc1

$$$$
Molecule 46_metabolite 37
  CDK     0516241031

 47 48  0  0  0  0  0  0  0  0999 V2000
    3.2324    1.7381    0.0000 C   0  0  0  0  0  0  0  0  0  0  0  0
    1.7324    1.7455    0.0000 H   0  0  0  0  0  0  0  0  0  0  0  0
    3.9760    0.4354    0.0000 H   0  0  0  0  0  0  0  0  0  0  0  0
    3.9888    3.0334    0.0000 C   0  0  0  0  0  0  0  0  0  0  0  0
    6.4488    3.0213    0.0000 C   0  0  0  0  0  0  0  0  0  0  0  0
    7.8608    3.5274    0.0000 H   0  0  0  0  0  0  0  0  0  0  0  0
    6.1956    4.4998    0.0000 H   0  0  0  0  0  0  0  0  0  0  0  0
    7.1924    1.7186    0.0000 C   0  0  0  0  0  0  0  0  0  0  0  0
    8.6924    1.7186    0.0000 C   0  0  0  0  0  0  0  0  0  0  0  0
    9.4360    3.0213    0.0000 H   0  0  0  0  0  0  0  0  0  0  0  0
    9.4424    0.4486    0.0000 C   0  0  0  0  0  0  0  0  0  0  0  0
   10.9422    0.4684    0.0000 H   0  0  0  0  0  0  0  0  0  0  0  0
    8.6924   -0.9014    0.0000 C   0  0  0  0  0  0  0  0  0  0  0  0
    7.1924   -0.9014    0.0000 C   0  0  0  0  0  0  0  0  0  0  0  0
    6.4317   -2.1942    0.0000 H   0  0  0  0  0  0  0  0  0  0  0  0
    6.4424    0.4486    0.0000 C   0  0  0  0  0  0  0  0  0  0  0  0
    4.9425    0.4684    0.0000 H   0  0  0  0  0  0  0  0  0  0  0  0
    9.4531   -2.1942    0.0000 O   0  0  0  0  0  0  0  0  0  0  0  0
   10.9530   -2.1818    0.0000 C   0  0  0  0  0  0  0  0  0  0  0  0
   11.7137   -3.4746    0.0000 H   0  0  0  0  0  0  0  0  0  0  0  0
   12.3583   -1.6572    0.0000 H   0  0  0  0  0  0  0  0  0  0  0  0
   10.6804   -0.7068    0.0000 H   0  0  0  0  0  0  0  0  0  0  0  0
    3.2452    4.3361    0.0000 N   0  0  0  0  0  0  0  0  0  0  0  0
    4.0016    5.6315    0.0000 H   0  0  0  0  0  0  0  0  0  0  0  0
    1.7452    4.3435    0.0000 C   0  0  0  0  0  0  0  0  0  0  0  0
    0.3332    3.8374    0.0000 H   0  0  0  0  0  0  0  0  0  0  0  0
    1.9984    2.8650    0.0000 H   0  0  0  0  0  0  0  0  0  0  0  0
    1.0016    5.6462    0.0000 C   0  0  0  0  0  0  0  0  0  0  0  0
    2.4137    6.1523    0.0000 H   0  0  0  0  0  0  0  0  0  0  0  0
   -0.4984    5.6536    0.0000 C   0  0  0  0  0  0  0  0  0  0  0  0
   -1.2462    4.3624    0.0000 C   0  0  0  0  0  0  0  0  0  0  0  0
   -0.4960    3.0634    0.0000 H   0  0  0  0  0  0  0  0  0  0  0  0
   -2.7462    4.3599    0.0000 C   0  0  0  0  0  0  0  0  0  0  0  0
   -3.4772    3.0500    0.0000 H   0  0  0  0  0  0  0  0  0  0  0  0
   -3.5384    5.6486    0.0000 C   0  0  0  0  0  0  0  0  0  0  0  0
   -2.7506    6.9799    0.0000 C   0  0  0  0  0  0  0  0  0  0  0  0
   -1.2506    6.9824    0.0000 C   0  0  0  0  0  0  0  0  0  0  0  0
   -0.4961    8.2788    0.0000 H   0  0  0  0  0  0  0  0  0  0  0  0
   -3.4947    8.2823    0.0000 N   0  0  0  0  0  0  0  0  0  0  0  0
   -4.9947    8.2891    0.0000 H   0  0  0  0  0  0  0  0  0  0  0  0
   -2.7388    9.5779    0.0000 C   0  0  0  0  0  0  0  0  0  0  0  0
   -3.4829   10.8803    0.0000 H   0  0  0  0  0  0  0  0  0  0  0  0
   -1.2388    9.5711    0.0000 O   0  0  0  0  0  0  0  0  0  0  0  0
   -5.0383    5.6359    0.0000 O   0  0  0  0  0  0  0  0  0  0  0  0
   -5.7992    6.9286    0.0000 H   0  0  0  0  0  0  0  0  0  0  0  0
    0.7484    7.1247    0.0000 O   0  0  0  0  0  0  0  0  0  0  0  0
    1.9022    8.0832    0.0000 H   0  0  0  0  0  0  0  0  0  0  0  0
  1  2  1  0  0  0  0 
  1  3  1  0  0  0  0 
  1  4  2  0  0  0  0 
  4  5  1  0  0  0  0 
  5  6  1  0  0  0  0 
  5  7  1  0  0  0  0 
  5  8  1  0  0  0  0 
  8  9  2  0  0  0  0 
  9 10  1  0  0  0  0 
  9 11  1  0  0  0  0 
 11 12  1  0  0  0  0 
 11 13  2  0  0  0  0 
 13 14  1  0  0  0  0 
 14 15  1  0  0  0  0 
 14 16  2  0  0  0  0 
  8 16  1  0  0  0  0 
 16 17  1  0  0  0  0 
 13 18  1  0  0  0  0 
 18 19  1  0  0  0  0 
 19 20  1  0  0  0  0 
 19 21  1  0  0  0  0 
 19 22  1  0  0  0  0 
  4 23  1  0  0  0  0 
 23 24  1  0  0  0  0 
 23 25  1  0  0  0  0 
 25 26  1  0  0  0  0 
 25 27  1  0  0  0  0 
 25 28  1  0  0  0  0 
 28 29  1  0  0  0  0 
 28 30  1  0  0  0  0 
 30 31  2  0  0  0  0 
 31 32  1  0  0  0  0 
 31 33  1  0  0  0  0 
 33 34  1  0  0  0  0 
 33 35  2  0  0  0  0 
 35 36  1  0  0  0  0 
 36 37  2  0  0  0  0 
 30 37  1  0  0  0  0 
 37 38  1  0  0  0  0 
 36 39  1  0  0  0  0 
 39 40  1  0  0  0  0 
 39 41  1  0  0  0  0 
 41 42  1  0  0  0  0 
 41 43  2  0  0  0  0 
 35 44  1  0  0  0  0 
 44 45  1  0  0  0  0 
 28 46  1  0  0  0  0 
 46 47  1  0  0  0  0 
M  END
> <Rank>
36

> <Priority_score>
0.0352

> <Reaction_type>
alkyl dehydrogenation

> <Parent_ID>
46

> <Parent_InChI>
InChI=1S/C19H24N2O4/c1-13(9-14-3-6-16(25-2)7-4-14)20-11-19(24)15-5-8-18(23)17(10-15)21-12-22/h3-8,10,12-13,19-20,23-24H,9,11H2,1-2H3,(H,21,22)

> <Parent_SMILES>
COc1ccc(CC(C)NCC(O)c2ccc(O)c(NC=O)c2)cc1

$$$$
Molecule 46_metabolite 38
  CDK     0516241031

 47 48  0  0  0  0  0  0  0  0999 V2000
   -0.8984   -6.4602    0.0000 C   0  0  0  0  0  0  0  0  0  0  0  0
   -2.2024   -7.2016    0.0000 H   0  0  0  0  0  0  0  0  0  0  0  0
    0.5804   -6.2094    0.0000 H   0  0  0  0  0  0  0  0  0  0  0  0
   -0.3947   -7.8731    0.0000 H   0  0  0  0  0  0  0  0  0  0  0  0
   -0.8886   -4.9602    0.0000 C   0  0  0  0  0  0  0  0  0  0  0  0
   -2.1826   -4.2017    0.0000 N   0  0  0  0  0  0  0  0  0  0  0  0
   -3.4866   -4.9431    0.0000 C   0  0  0  0  0  0  0  0  0  0  0  0
   -4.4583   -6.0858    0.0000 H   0  0  0  0  0  0  0  0  0  0  0  0
   -2.5300   -6.0985    0.0000 H   0  0  0  0  0  0  0  0  0  0  0  0
   -4.7807   -4.1846    0.0000 C   0  0  0  0  0  0  0  0  0  0  0  0
   -3.8089   -3.0419    0.0000 H   0  0  0  0  0  0  0  0  0  0  0  0
   -6.0846   -4.9260    0.0000 C   0  0  0  0  0  0  0  0  0  0  0  0
   -6.0891   -6.4182    0.0000 C   0  0  0  0  0  0  0  0  0  0  0  0
   -4.7912   -7.1701    0.0000 H   0  0  0  0  0  0  0  0  0  0  0  0
   -7.3882   -7.1682    0.0000 C   0  0  0  0  0  0  0  0  0  0  0  0
   -7.3688   -8.6681    0.0000 H   0  0  0  0  0  0  0  0  0  0  0  0
   -8.7173   -6.4460    0.0000 C   0  0  0  0  0  0  0  0  0  0  0  0
   -8.6982   -4.8992    0.0000 C   0  0  0  0  0  0  0  0  0  0  0  0
   -7.3991   -4.1492    0.0000 C   0  0  0  0  0  0  0  0  0  0  0  0
   -7.3915   -2.6492    0.0000 H   0  0  0  0  0  0  0  0  0  0  0  0
   -9.9925   -4.1412    0.0000 N   0  0  0  0  0  0  0  0  0  0  0  0
  -11.2962   -4.8831    0.0000 H   0  0  0  0  0  0  0  0  0  0  0  0
   -9.9832   -2.6412    0.0000 C   0  0  0  0  0  0  0  0  0  0  0  0
  -11.2776   -1.8832    0.0000 H   0  0  0  0  0  0  0  0  0  0  0  0
   -8.6796   -1.8993    0.0000 O   0  0  0  0  0  0  0  0  0  0  0  0
  -10.0113   -7.2048    0.0000 O   0  0  0  0  0  0  0  0  0  0  0  0
  -11.3153   -6.4636    0.0000 H   0  0  0  0  0  0  0  0  0  0  0  0
   -5.7373   -3.0292    0.0000 O   0  0  0  0  0  0  0  0  0  0  0  0
   -5.2150   -1.6231    0.0000 H   0  0  0  0  0  0  0  0  0  0  0  0
    0.4154   -4.2188    0.0000 C   0  0  0  0  0  0  0  0  0  0  0  0
    1.3871   -3.0761    0.0000 H   0  0  0  0  0  0  0  0  0  0  0  0
   -0.5412   -3.0634    0.0000 H   0  0  0  0  0  0  0  0  0  0  0  0
    1.7094   -4.9773    0.0000 C   0  0  0  0  0  0  0  0  0  0  0  0
    3.0097   -4.2295    0.0000 C   0  0  0  0  0  0  0  0  0  0  0  0
    3.0048   -2.7295    0.0000 H   0  0  0  0  0  0  0  0  0  0  0  0
    4.2930   -4.9565    0.0000 C   0  0  0  0  0  0  0  0  0  0  0  0
    5.5834   -4.1916    0.0000 H   0  0  0  0  0  0  0  0  0  0  0  0
    4.3160   -6.5006    0.0000 C   0  0  0  0  0  0  0  0  0  0  0  0
    3.0157   -7.2485    0.0000 C   0  0  0  0  0  0  0  0  0  0  0  0
    3.0008   -8.7484    0.0000 H   0  0  0  0  0  0  0  0  0  0  0  0
    1.6925   -6.4522    0.0000 C   0  0  0  0  0  0  0  0  0  0  0  0
    0.3825   -7.1828    0.0000 H   0  0  0  0  0  0  0  0  0  0  0  0
    5.6199   -7.2421    0.0000 O   0  0  0  0  0  0  0  0  0  0  0  0
    6.9140   -6.4835    0.0000 C   0  0  0  0  0  0  0  0  0  0  0  0
    8.2179   -7.2250    0.0000 H   0  0  0  0  0  0  0  0  0  0  0  0
    7.8706   -5.3281    0.0000 H   0  0  0  0  0  0  0  0  0  0  0  0
    5.9422   -5.3408    0.0000 H   0  0  0  0  0  0  0  0  0  0  0  0
  1  2  1  0  0  0  0 
  1  3  1  0  0  0  0 
  1  4  1  0  0  0  0 
  1  5  1  4  0  0  0 
  5  6  2  0  0  0  0 
  6  7  1  0  0  0  0 
  7  8  1  0  0  0  0 
  7  9  1  0  0  0  0 
  7 10  1  0  0  0  0 
 10 11  1  0  0  0  0 
 10 12  1  0  0  0  0 
 12 13  2  0  0  0  0 
 13 14  1  0  0  0  0 
 13 15  1  0  0  0  0 
 15 16  1  0  0  0  0 
 15 17  2  0  0  0  0 
 17 18  1  0  0  0  0 
 18 19  2  0  0  0  0 
 12 19  1  0  0  0  0 
 19 20  1  0  0  0  0 
 18 21  1  0  0  0  0 
 21 22  1  0  0  0  0 
 21 23  1  0  0  0  0 
 23 24  1  0  0  0  0 
 23 25  2  0  0  0  0 
 17 26  1  0  0  0  0 
 26 27  1  0  0  0  0 
 10 28  1  0  0  0  0 
 28 29  1  0  0  0  0 
  5 30  1  0  0  0  0 
 30 31  1  0  0  0  0 
 30 32  1  0  0  0  0 
 30 33  1  0  0  0  0 
 33 34  2  0  0  0  0 
 34 35  1  0  0  0  0 
 34 36  1  0  0  0  0 
 36 37  1  0  0  0  0 
 36 38  2  0  0  0  0 
 38 39  1  0  0  0  0 
 39 40  1  0  0  0  0 
 39 41  2  0  0  0  0 
 33 41  1  0  0  0  0 
 41 42  1  0  0  0  0 
 38 43  1  0  0  0  0 
 43 44  1  0  0  0  0 
 44 45  1  0  0  0  0 
 44 46  1  0  0  0  0 
 44 47  1  0  0  0  0 
M  END
> <Rank>
36

> <Priority_score>
0.0352

> <Reaction_type>
dehydration of N-C bond

> <Parent_ID>
46

> <Parent_InChI>
InChI=1S/C19H24N2O4/c1-13(9-14-3-6-16(25-2)7-4-14)20-11-19(24)15-5-8-18(23)17(10-15)21-12-22/h3-8,10,12-13,19-20,23-24H,9,11H2,1-2H3,(H,21,22)

> <Parent_SMILES>
COc1ccc(CC(C)NCC(O)c2ccc(O)c(NC=O)c2)cc1

$$$$
Molecule 46_metabolite 39
  CDK     0516241031

 47 48  0  0  0  0  0  0  0  0999 V2000
    4.6403    2.6957    0.0000 C   0  0  0  0  0  0  0  0  0  0  0  0
    3.3376    1.9521    0.0000 H   0  0  0  0  0  0  0  0  0  0  0  0
    5.1464    1.2837    0.0000 H   0  0  0  0  0  0  0  0  0  0  0  0
    6.1188    2.9489    0.0000 H   0  0  0  0  0  0  0  0  0  0  0  0
    4.6477    4.1957    0.0000 C   0  0  0  0  0  0  0  0  0  0  0  0
    5.9504    4.9393    0.0000 C   0  0  0  0  0  0  0  0  0  0  0  0
    5.9578    6.4393    0.0000 H   0  0  0  0  0  0  0  0  0  0  0  0
    7.2458    4.1829    0.0000 C   0  0  0  0  0  0  0  0  0  0  0  0
    8.5448    4.9329    0.0000 C   0  0  0  0  0  0  0  0  0  0  0  0
    8.5374    6.4329    0.0000 H   0  0  0  0  0  0  0  0  0  0  0  0
    9.8293    4.2080    0.0000 C   0  0  0  0  0  0  0  0  0  0  0  0
   11.1184    4.9751    0.0000 H   0  0  0  0  0  0  0  0  0  0  0  0
    9.8548    2.6639    0.0000 C   0  0  0  0  0  0  0  0  0  0  0  0
    8.5558    1.9139    0.0000 C   0  0  0  0  0  0  0  0  0  0  0  0
    8.5434    0.4140    0.0000 H   0  0  0  0  0  0  0  0  0  0  0  0
    7.2312    2.7080    0.0000 C   0  0  0  0  0  0  0  0  0  0  0  0
    5.9224    1.9752    0.0000 H   0  0  0  0  0  0  0  0  0  0  0  0
   11.1600    1.9246    0.0000 O   0  0  0  0  0  0  0  0  0  0  0  0
   12.4528    2.6853    0.0000 C   0  0  0  0  0  0  0  0  0  0  0  0
   13.7580    1.9461    0.0000 H   0  0  0  0  0  0  0  0  0  0  0  0
   13.4075    3.8423    0.0000 H   0  0  0  0  0  0  0  0  0  0  0  0
   11.4792    3.8264    0.0000 H   0  0  0  0  0  0  0  0  0  0  0  0
    3.3524    4.9521    0.0000 N   0  0  0  0  0  0  0  0  0  0  0  0
    3.3598    6.4520    0.0000 H   0  0  0  0  0  0  0  0  0  0  0  0
    2.0497    4.2085    0.0000 C   0  0  0  0  0  0  0  0  0  0  0  0
    1.0799    3.0642    0.0000 H   0  0  0  0  0  0  0  0  0  0  0  0
    3.0082    3.0547    0.0000 H   0  0  0  0  0  0  0  0  0  0  0  0
    0.7543    4.9649    0.0000 C   0  0  0  0  0  0  0  0  0  0  0  0
    1.7242    6.1092    0.0000 H   0  0  0  0  0  0  0  0  0  0  0  0
   -0.5484    4.2213    0.0000 C   0  0  0  0  0  0  0  0  0  0  0  0
   -0.5504    2.7291    0.0000 C   0  0  0  0  0  0  0  0  0  0  0  0
    0.7487    1.9793    0.0000 H   0  0  0  0  0  0  0  0  0  0  0  0
   -1.8482    1.9769    0.0000 C   0  0  0  0  0  0  0  0  0  0  0  0
   -1.8263    0.4771    0.0000 H   0  0  0  0  0  0  0  0  0  0  0  0
   -3.1786    2.6969    0.0000 C   0  0  0  0  0  0  0  0  0  0  0  0
   -3.1620    4.2437    0.0000 C   0  0  0  0  0  0  0  0  0  0  0  0
   -1.8642    4.9959    0.0000 C   0  0  0  0  0  0  0  0  0  0  0  0
   -1.8591    6.4959    0.0000 H   0  0  0  0  0  0  0  0  0  0  0  0
   -4.4576    4.9996    0.0000 N   0  0  0  0  0  0  0  0  0  0  0  0
   -5.7600    4.2555    0.0000 H   0  0  0  0  0  0  0  0  0  0  0  0
   -4.4508    6.4996    0.0000 C   0  0  0  0  0  0  0  0  0  0  0  0
   -5.7464    7.2555    0.0000 H   0  0  0  0  0  0  0  0  0  0  0  0
   -3.1484    7.2437    0.0000 O   0  0  0  0  0  0  0  0  0  0  0  0
   -4.4712    1.9360    0.0000 O   0  0  0  0  0  0  0  0  0  0  0  0
   -5.7765    2.6750    0.0000 H   0  0  0  0  0  0  0  0  0  0  0  0
   -0.2042    6.1187    0.0000 O   0  0  0  0  0  0  0  0  0  0  0  0
    0.3158    7.5256    0.0000 H   0  0  0  0  0  0  0  0  0  0  0  0
  1  2  1  0  0  0  0 
  1  3  1  0  0  0  0 
  1  4  1  0  0  0  0 
  1  5  1  0  0  0  0 
  5  6  2  0  0  0  0 
  6  7  1  4  0  0  0 
  6  8  1  0  0  0  0 
  8  9  2  0  0  0  0 
  9 10  1  0  0  0  0 
  9 11  1  0  0  0  0 
 11 12  1  0  0  0  0 
 11 13  2  0  0  0  0 
 13 14  1  0  0  0  0 
 14 15  1  0  0  0  0 
 14 16  2  0  0  0  0 
  8 16  1  0  0  0  0 
 16 17  1  0  0  0  0 
 13 18  1  0  0  0  0 
 18 19  1  0  0  0  0 
 19 20  1  0  0  0  0 
 19 21  1  0  0  0  0 
 19 22  1  0  0  0  0 
  5 23  1  0  0  0  0 
 23 24  1  0  0  0  0 
 23 25  1  0  0  0  0 
 25 26  1  0  0  0  0 
 25 27  1  0  0  0  0 
 25 28  1  0  0  0  0 
 28 29  1  0  0  0  0 
 28 30  1  0  0  0  0 
 30 31  2  0  0  0  0 
 31 32  1  0  0  0  0 
 31 33  1  0  0  0  0 
 33 34  1  0  0  0  0 
 33 35  2  0  0  0  0 
 35 36  1  0  0  0  0 
 36 37  2  0  0  0  0 
 30 37  1  0  0  0  0 
 37 38  1  0  0  0  0 
 36 39  1  0  0  0  0 
 39 40  1  0  0  0  0 
 39 41  1  0  0  0  0 
 41 42  1  0  0  0  0 
 41 43  2  0  0  0  0 
 35 44  1  0  0  0  0 
 44 45  1  0  0  0  0 
 28 46  1  0  0  0  0 
 46 47  1  0  0  0  0 
M  END
> <Rank>
36

> <Priority_score>
0.0352

> <Reaction_type>
alkyl dehydrogenation

> <Parent_ID>
46

> <Parent_InChI>
InChI=1S/C19H24N2O4/c1-13(9-14-3-6-16(25-2)7-4-14)20-11-19(24)15-5-8-18(23)17(10-15)21-12-22/h3-8,10,12-13,19-20,23-24H,9,11H2,1-2H3,(H,21,22)

> <Parent_SMILES>
COc1ccc(CC(C)NCC(O)c2ccc(O)c(NC=O)c2)cc1

$$$$
Molecule 46_metabolite 40
  CDK     0516241031

 50 51  0  0  0  0  0  0  0  0999 V2000
   -4.6713    0.9794    0.0000 C   0  0  0  0  0  0  0  0  0  0  0  0
   -3.1941    0.7187    0.0000 H   0  0  0  0  0  0  0  0  0  0  0  0
   -4.1580    2.3888    0.0000 H   0  0  0  0  0  0  0  0  0  0  0  0
   -5.9702    1.7296    0.0000 H   0  0  0  0  0  0  0  0  0  0  0  0
   -5.6356   -0.1695    0.0000 C   0  0  0  0  0  0  0  0  0  0  0  0
   -6.5996    0.9797    0.0000 H   0  0  0  0  0  0  0  0  0  0  0  0
   -6.9348   -0.9193    0.0000 C   0  0  0  0  0  0  0  0  0  0  0  0
   -7.8992   -2.0682    0.0000 H   0  0  0  0  0  0  0  0  0  0  0  0
   -5.9708   -2.0685    0.0000 H   0  0  0  0  0  0  0  0  0  0  0  0
   -8.2337   -0.1691    0.0000 C   0  0  0  0  0  0  0  0  0  0  0  0
   -9.5337   -0.9191    0.0000 C   0  0  0  0  0  0  0  0  0  0  0  0
   -9.5337   -2.4191    0.0000 H   0  0  0  0  0  0  0  0  0  0  0  0
  -10.8337   -0.1691    0.0000 C   0  0  0  0  0  0  0  0  0  0  0  0
  -12.1326   -0.9193    0.0000 H   0  0  0  0  0  0  0  0  0  0  0  0
  -10.8337    1.3309    0.0000 C   0  0  0  0  0  0  0  0  0  0  0  0
   -9.5337    2.0809    0.0000 C   0  0  0  0  0  0  0  0  0  0  0  0
   -9.5337    3.5809    0.0000 H   0  0  0  0  0  0  0  0  0  0  0  0
   -8.2337    1.3309    0.0000 C   0  0  0  0  0  0  0  0  0  0  0  0
   -6.9348    2.0811    0.0000 O   0  0  0  0  0  0  0  0  0  0  0  0
   -6.9350    3.5811    0.0000 H   0  0  0  0  0  0  0  0  0  0  0  0
  -12.1326    2.0811    0.0000 O   0  0  0  0  0  0  0  0  0  0  0  0
  -13.4318    1.3313    0.0000 C   0  0  0  0  0  0  0  0  0  0  0  0
  -14.7307    2.0815    0.0000 H   0  0  0  0  0  0  0  0  0  0  0  0
  -14.3962    0.1824    0.0000 H   0  0  0  0  0  0  0  0  0  0  0  0
  -12.4678    0.1821    0.0000 H   0  0  0  0  0  0  0  0  0  0  0  0
   -4.3367   -0.9197    0.0000 N   0  0  0  0  0  0  0  0  0  0  0  0
   -4.3370   -2.4197    0.0000 H   0  0  0  0  0  0  0  0  0  0  0  0
   -2.6218    0.0700    0.0000 C   0  0  0  0  0  0  0  0  0  0  0  0
   -1.6575    1.2189    0.0000 H   0  0  0  0  0  0  0  0  0  0  0  0
   -2.8821    1.5472    0.0000 H   0  0  0  0  0  0  0  0  0  0  0  0
   -1.3229   -0.6802    0.0000 C   0  0  0  0  0  0  0  0  0  0  0  0
   -2.2873   -1.8291    0.0000 H   0  0  0  0  0  0  0  0  0  0  0  0
   -0.0238    0.0696    0.0000 C   0  0  0  0  0  0  0  0  0  0  0  0
   -0.0288    1.5617    0.0000 C   0  0  0  0  0  0  0  0  0  0  0  0
   -1.3315    2.3054    0.0000 H   0  0  0  0  0  0  0  0  0  0  0  0
    1.2654    2.3201    0.0000 C   0  0  0  0  0  0  0  0  0  0  0  0
    1.2363    3.8198    0.0000 H   0  0  0  0  0  0  0  0  0  0  0  0
    2.5991    1.6064    0.0000 C   0  0  0  0  0  0  0  0  0  0  0  0
    2.5899    0.0595    0.0000 C   0  0  0  0  0  0  0  0  0  0  0  0
    1.2957   -0.6988    0.0000 C   0  0  0  0  0  0  0  0  0  0  0  0
    1.2978   -2.1988    0.0000 H   0  0  0  0  0  0  0  0  0  0  0  0
    3.8891   -0.6902    0.0000 N   0  0  0  0  0  0  0  0  0  0  0  0
    5.1880    0.0601    0.0000 H   0  0  0  0  0  0  0  0  0  0  0  0
    3.8895   -2.1902    0.0000 C   0  0  0  0  0  0  0  0  0  0  0  0
    5.1887   -2.9399    0.0000 H   0  0  0  0  0  0  0  0  0  0  0  0
    2.5906   -2.9405    0.0000 O   0  0  0  0  0  0  0  0  0  0  0  0
    3.8882    2.3735    0.0000 O   0  0  0  0  0  0  0  0  0  0  0  0
    5.1970    1.6407    0.0000 H   0  0  0  0  0  0  0  0  0  0  0  0
   -0.3589   -1.8294    0.0000 O   0  0  0  0  0  0  0  0  0  0  0  0
   -0.8722   -3.2389    0.0000 H   0  0  0  0  0  0  0  0  0  0  0  0
  1  2  1  0  0  0  0 
  1  3  1  0  0  0  0 
  1  4  1  0  0  0  0 
  1  5  1  0  0  0  0 
  5  6  1  0  0  0  0 
  5  7  1  0  0  0  0 
  7  8  1  0  0  0  0 
  7  9  1  0  0  0  0 
  7 10  1  0  0  0  0 
 10 11  2  0  0  0  0 
 11 12  1  0  0  0  0 
 11 13  1  0  0  0  0 
 13 14  1  0  0  0  0 
 13 15  2  0  0  0  0 
 15 16  1  0  0  0  0 
 16 17  1  0  0  0  0 
 16 18  2  0  0  0  0 
 10 18  1  0  0  0  0 
 18 19  1  0  0  0  0 
 19 20  1  0  0  0  0 
 15 21  1  0  0  0  0 
 21 22  1  0  0  0  0 
 22 23  1  0  0  0  0 
 22 24  1  0  0  0  0 
 22 25  1  0  0  0  0 
  5 26  1  0  0  0  0 
 26 27  1  0  0  0  0 
 26 28  1  0  0  0  0 
 28 29  1  0  0  0  0 
 28 30  1  0  0  0  0 
 28 31  1  0  0  0  0 
 31 32  1  0  0  0  0 
 31 33  1  0  0  0  0 
 33 34  2  0  0  0  0 
 34 35  1  0  0  0  0 
 34 36  1  0  0  0  0 
 36 37  1  0  0  0  0 
 36 38  2  0  0  0  0 
 38 39  1  0  0  0  0 
 39 40  2  0  0  0  0 
 33 40  1  0  0  0  0 
 40 41  1  0  0  0  0 
 39 42  1  0  0  0  0 
 42 43  1  0  0  0  0 
 42 44  1  0  0  0  0 
 44 45  1  0  0  0  0 
 44 46  2  0  0  0  0 
 38 47  1  0  0  0  0 
 47 48  1  0  0  0  0 
 31 49  1  0  0  0  0 
 49 50  1  0  0  0  0 
M  END
> <Rank>
40

> <Priority_score>
0.016

> <Reaction_type>
aromatic hydroxylation

> <Parent_ID>
46

> <Parent_InChI>
InChI=1S/C19H24N2O4/c1-13(9-14-3-6-16(25-2)7-4-14)20-11-19(24)15-5-8-18(23)17(10-15)21-12-22/h3-8,10,12-13,19-20,23-24H,9,11H2,1-2H3,(H,21,22)

> <Parent_SMILES>
COc1ccc(CC(C)NCC(O)c2ccc(O)c(NC=O)c2)cc1

$$$$
Molecule 46_metabolite 41
  CDK     0516241031

 50 51  0  0  0  0  0  0  0  0999 V2000
   13.0346   -0.2807    0.0000 C   0  0  0  0  0  0  0  0  0  0  0  0
   14.3274    0.4800    0.0000 H   0  0  0  0  0  0  0  0  0  0  0  0
   12.0799   -1.4377    0.0000 H   0  0  0  0  0  0  0  0  0  0  0  0
   14.0082   -1.4218    0.0000 H   0  0  0  0  0  0  0  0  0  0  0  0
   11.7294    0.4586    0.0000 O   0  0  0  0  0  0  0  0  0  0  0  0
   10.4366   -0.3021    0.0000 C   0  0  0  0  0  0  0  0  0  0  0  0
    9.0866    0.4479    0.0000 C   0  0  0  0  0  0  0  0  0  0  0  0
    9.0668    1.9477    0.0000 H   0  0  0  0  0  0  0  0  0  0  0  0
    7.8166   -0.3021    0.0000 C   0  0  0  0  0  0  0  0  0  0  0  0
    6.5138    0.4415    0.0000 H   0  0  0  0  0  0  0  0  0  0  0  0
    7.8166   -1.8021    0.0000 C   0  0  0  0  0  0  0  0  0  0  0  0
    9.0866   -2.5521    0.0000 C   0  0  0  0  0  0  0  0  0  0  0  0
    9.0668   -4.0520    0.0000 H   0  0  0  0  0  0  0  0  0  0  0  0
   10.4366   -1.8021    0.0000 C   0  0  0  0  0  0  0  0  0  0  0  0
   11.7294   -2.5628    0.0000 H   0  0  0  0  0  0  0  0  0  0  0  0
    6.5138   -2.5457    0.0000 C   0  0  0  0  0  0  0  0  0  0  0  0
    5.5440   -3.6900    0.0000 H   0  0  0  0  0  0  0  0  0  0  0  0
    7.4724   -3.6995    0.0000 H   0  0  0  0  0  0  0  0  0  0  0  0
    5.2185   -1.7893    0.0000 C   0  0  0  0  0  0  0  0  0  0  0  0
    6.1883   -0.6450    0.0000 H   0  0  0  0  0  0  0  0  0  0  0  0
    4.2600   -0.6355    0.0000 C   0  0  0  0  0  0  0  0  0  0  0  0
    3.2902   -1.7798    0.0000 H   0  0  0  0  0  0  0  0  0  0  0  0
    2.9647    0.1208    0.0000 H   0  0  0  0  0  0  0  0  0  0  0  0
    4.7800    0.7715    0.0000 O   0  0  0  0  0  0  0  0  0  0  0  0
    3.8215    1.9253    0.0000 H   0  0  0  0  0  0  0  0  0  0  0  0
    3.4989   -2.7709    0.0000 N   0  0  0  0  0  0  0  0  0  0  0  0
    3.4916   -4.2709    0.0000 H   0  0  0  0  0  0  0  0  0  0  0  0
    2.2036   -2.0145    0.0000 C   0  0  0  0  0  0  0  0  0  0  0  0
    3.1734   -0.8702    0.0000 H   0  0  0  0  0  0  0  0  0  0  0  0
    1.2451   -0.8607    0.0000 H   0  0  0  0  0  0  0  0  0  0  0  0
    0.9009   -2.7581    0.0000 C   0  0  0  0  0  0  0  0  0  0  0  0
   -0.0689   -3.9024    0.0000 H   0  0  0  0  0  0  0  0  0  0  0  0
   -0.3944   -2.0017    0.0000 C   0  0  0  0  0  0  0  0  0  0  0  0
   -1.6877   -2.7460    0.0000 C   0  0  0  0  0  0  0  0  0  0  0  0
   -1.6875   -4.2460    0.0000 H   0  0  0  0  0  0  0  0  0  0  0  0
   -2.9880   -1.9982    0.0000 C   0  0  0  0  0  0  0  0  0  0  0  0
   -4.2759   -2.7671    0.0000 H   0  0  0  0  0  0  0  0  0  0  0  0
   -3.0297   -0.4861    0.0000 C   0  0  0  0  0  0  0  0  0  0  0  0
   -1.6818    0.2730    0.0000 C   0  0  0  0  0  0  0  0  0  0  0  0
   -0.3815   -0.4749    0.0000 C   0  0  0  0  0  0  0  0  0  0  0  0
    0.9201    0.2707    0.0000 H   0  0  0  0  0  0  0  0  0  0  0  0
   -1.6750    1.7730    0.0000 N   0  0  0  0  0  0  0  0  0  0  0  0
   -0.3726    2.5171    0.0000 H   0  0  0  0  0  0  0  0  0  0  0  0
   -2.9706    2.5288    0.0000 C   0  0  0  0  0  0  0  0  0  0  0  0
   -4.2730    1.7847    0.0000 H   0  0  0  0  0  0  0  0  0  0  0  0
   -2.9638    4.0288    0.0000 O   0  0  0  0  0  0  0  0  0  0  0  0
   -4.3350    0.2530    0.0000 O   0  0  0  0  0  0  0  0  0  0  0  0
   -5.6277   -0.5079    0.0000 H   0  0  0  0  0  0  0  0  0  0  0  0
    1.8594   -3.9119    0.0000 O   0  0  0  0  0  0  0  0  0  0  0  0
    1.3394   -5.3189    0.0000 H   0  0  0  0  0  0  0  0  0  0  0  0
  1  2  1  0  0  0  0 
  1  3  1  0  0  0  0 
  1  4  1  0  0  0  0 
  1  5  1  0  0  0  0 
  5  6  1  0  0  0  0 
  6  7  2  0  0  0  0 
  7  8  1  0  0  0  0 
  7  9  1  0  0  0  0 
  9 10  1  0  0  0  0 
  9 11  2  0  0  0  0 
 11 12  1  0  0  0  0 
 12 13  1  0  0  0  0 
 12 14  2  0  0  0  0 
  6 14  1  0  0  0  0 
 14 15  1  0  0  0  0 
 11 16  1  0  0  0  0 
 16 17  1  0  0  0  0 
 16 18  1  0  0  0  0 
 16 19  1  0  0  0  0 
 19 20  1  0  0  0  0 
 19 21  1  0  0  0  0 
 21 22  1  0  0  0  0 
 21 23  1  0  0  0  0 
 21 24  1  0  0  0  0 
 24 25  1  0  0  0  0 
 19 26  1  0  0  0  0 
 26 27  1  0  0  0  0 
 26 28  1  0  0  0  0 
 28 29  1  0  0  0  0 
 28 30  1  0  0  0  0 
 28 31  1  0  0  0  0 
 31 32  1  0  0  0  0 
 31 33  1  0  0  0  0 
 33 34  2  0  0  0  0 
 34 35  1  0  0  0  0 
 34 36  1  0  0  0  0 
 36 37  1  0  0  0  0 
 36 38  2  0  0  0  0 
 38 39  1  0  0  0  0 
 39 40  2  0  0  0  0 
 33 40  1  0  0  0  0 
 40 41  1  0  0  0  0 
 39 42  1  0  0  0  0 
 42 43  1  0  0  0  0 
 42 44  1  0  0  0  0 
 44 45  1  0  0  0  0 
 44 46  2  0  0  0  0 
 38 47  1  0  0  0  0 
 47 48  1  0  0  0  0 
 31 49  1  0  0  0  0 
 49 50  1  0  0  0  0 
M  END
> <Rank>
40

> <Priority_score>
0.016

> <Reaction_type>
aliphatic hydroxylation

> <Parent_ID>
46

> <Parent_InChI>
InChI=1S/C19H24N2O4/c1-13(9-14-3-6-16(25-2)7-4-14)20-11-19(24)15-5-8-18(23)17(10-15)21-12-22/h3-8,10,12-13,19-20,23-24H,9,11H2,1-2H3,(H,21,22)

> <Parent_SMILES>
COc1ccc(CC(C)NCC(O)c2ccc(O)c(NC=O)c2)cc1

$$$$
Molecule 47
  CDK     0516241031

 27 30  0  0  0  0  0  0  0  0999 V2000
    8.5190   -6.3939    0.0000 C   0  0  0  0  0  0  0  0  0  0  0  0
    7.0489   -6.0961    0.0000 O   0  0  0  0  0  0  0  0  0  0  0  0
    6.5717   -4.6740    0.0000 C   0  0  0  0  0  0  0  0  0  0  0  0
    5.1007   -4.3765    0.0000 C   0  0  0  0  0  0  0  0  0  0  0  0
    4.6235   -2.9545    0.0000 C   0  0  0  0  0  0  0  0  0  0  0  0
    5.6173   -1.8299    0.0000 C   0  0  0  0  0  0  0  0  0  0  0  0
    7.0884   -2.1273    0.0000 C   0  0  0  0  0  0  0  0  0  0  0  0
    7.5656   -3.5494    0.0000 C   0  0  0  0  0  0  0  0  0  0  0  0
    5.1401   -0.4078    0.0000 S   0  0  0  0  0  0  0  0  0  0  0  0
    5.1781    1.0917    0.0000 O   0  0  0  0  0  0  0  0  0  0  0  0
    6.6235   -0.1848    0.0000 O   0  0  0  0  0  0  0  0  0  0  0  0
    3.6700   -0.1100    0.0000 N   0  0  0  0  0  0  0  0  0  0  0  0
    2.7100   -1.2300    0.0000 C   0  0  0  0  0  0  0  0  0  0  0  0
    1.2700   -0.9500    0.0000 C   0  0  0  0  0  0  0  0  0  0  0  0
    0.7100    0.4700    0.0000 C   0  0  0  0  0  0  0  0  0  0  0  0
    1.7800    1.5600    0.0000 C   0  0  0  0  0  0  0  0  0  0  0  0
    3.2200    1.3000    0.0000 C   0  0  0  0  0  0  0  0  0  0  0  0
    4.2094    2.4275    0.0000 C   0  0  0  0  0  0  0  0  0  0  0  0
    5.6804    2.1344    0.0000 O   0  0  0  0  0  0  0  0  0  0  0  0
    3.7276    3.8480    0.0000 N   0  0  0  0  0  0  0  0  0  0  0  0
   -0.7100    0.4700    0.0000 C   0  0  0  0  0  0  0  0  0  0  0  0
   -1.1700   -1.0000    0.0000 C   0  0  0  0  0  0  0  0  0  0  0  0
   -2.7100   -1.3300    0.0000 C   0  0  0  0  0  0  0  0  0  0  0  0
   -3.7100   -0.2100    0.0000 C   0  0  0  0  0  0  0  0  0  0  0  0
   -3.2600    1.2600    0.0000 C   0  0  0  0  0  0  0  0  0  0  0  0
   -1.8000    1.5900    0.0000 C   0  0  0  0  0  0  0  0  0  0  0  0
    0.0000   -1.8100    0.0000 N   0  0  0  0  0  0  0  0  0  0  0  0
  1  2  1  0  0  0  0 
  2  3  1  0  0  0  0 
  3  4  2  0  0  0  0 
  4  5  1  0  0  0  0 
  5  6  2  0  0  0  0 
  6  7  1  0  0  0  0 
  7  8  2  0  0  0  0 
  3  8  1  0  0  0  0 
  6  9  1  0  0  0  0 
  9 10  2  0  0  0  0 
  9 11  2  0  0  0  0 
  9 12  1  0  0  0  0 
 12 13  1  0  0  0  0 
 13 14  1  0  0  0  0 
 14 15  2  0  0  0  0 
 15 16  1  0  0  0  0 
 16 17  1  0  0  0  0 
 12 17  1  0  0  0  0 
 17 18  1  0  0  0  0 
 18 19  2  0  0  0  0 
 18 20  1  0  0  0  0 
 15 21  1  0  0  0  0 
 21 22  2  0  0  0  0 
 22 23  1  0  0  0  0 
 23 24  2  0  0  0  0 
 24 25  1  0  0  0  0 
 25 26  2  0  0  0  0 
 21 26  1  0  0  0  0 
 22 27  1  0  0  0  0 
 14 27  1  0  0  0  0 
M  END
> <SMILES>
COc1ccc(S(=O)(=O)N2Cc3[nH]c4ccccc4c3CC2C(N)=O)cc1

$$$$
Molecule 47_metabolite 1
  CDK     0516241031

 47 50  0  0  0  0  0  0  0  0999 V2000
   -3.7382    0.8754    0.0000 C   0  0  0  0  0  0  0  0  0  0  0  0
   -4.7585    1.9749    0.0000 H   0  0  0  0  0  0  0  0  0  0  0  0
   -2.2782    1.2054    0.0000 C   0  0  0  0  0  0  0  0  0  0  0  0
   -1.8516    2.6434    0.0000 H   0  0  0  0  0  0  0  0  0  0  0  0
   -1.1882    0.0854    0.0000 C   0  0  0  0  0  0  0  0  0  0  0  0
   -1.6482   -1.3846    0.0000 C   0  0  0  0  0  0  0  0  0  0  0  0
   -3.1882   -1.7146    0.0000 C   0  0  0  0  0  0  0  0  0  0  0  0
   -3.6535   -3.1406    0.0000 H   0  0  0  0  0  0  0  0  0  0  0  0
   -4.1882   -0.5946    0.0000 C   0  0  0  0  0  0  0  0  0  0  0  0
   -5.6534   -0.9160    0.0000 H   0  0  0  0  0  0  0  0  0  0  0  0
   -0.4782   -2.1946    0.0000 N   0  0  0  0  0  0  0  0  0  0  0  0
   -0.4859   -3.6946    0.0000 H   0  0  0  0  0  0  0  0  0  0  0  0
    0.7918   -1.3346    0.0000 C   0  0  0  0  0  0  0  0  0  0  0  0
    0.2318    0.0854    0.0000 C   0  0  0  0  0  0  0  0  0  0  0  0
    1.3018    1.1754    0.0000 C   0  0  0  0  0  0  0  0  0  0  0  0
    1.8551    2.5696    0.0000 H   0  0  0  0  0  0  0  0  0  0  0  0
    0.0446    1.9936    0.0000 H   0  0  0  0  0  0  0  0  0  0  0  0
    2.7418    0.9154    0.0000 C   0  0  0  0  0  0  0  0  0  0  0  0
    4.2258    1.1342    0.0000 H   0  0  0  0  0  0  0  0  0  0  0  0
    2.7737    2.8951    0.0000 C   0  0  0  0  0  0  0  0  0  0  0  0
    1.4869    3.6659    0.0000 O   0  0  0  0  0  0  0  0  0  0  0  0
    4.0847    3.6241    0.0000 N   0  0  0  0  0  0  0  0  0  0  0  0
    4.1088    5.1239    0.0000 H   0  0  0  0  0  0  0  0  0  0  0  0
    5.3715    2.8532    0.0000 H   0  0  0  0  0  0  0  0  0  0  0  0
    3.1918   -0.4946    0.0000 N   0  0  0  0  0  0  0  0  0  0  0  0
    2.2318   -1.6146    0.0000 C   0  0  0  0  0  0  0  0  0  0  0  0
    1.6975   -3.0162    0.0000 H   0  0  0  0  0  0  0  0  0  0  0  0
    3.5211   -2.3813    0.0000 H   0  0  0  0  0  0  0  0  0  0  0  0
    5.1324   -0.8877    0.0000 S   0  0  0  0  0  0  0  0  0  0  0  0
    6.6157   -0.6647    0.0000 O   0  0  0  0  0  0  0  0  0  0  0  0
    5.1704    0.6118    0.0000 O   0  0  0  0  0  0  0  0  0  0  0  0
    5.6096   -2.3098    0.0000 C   0  0  0  0  0  0  0  0  0  0  0  0
    7.0807   -2.6073    0.0000 C   0  0  0  0  0  0  0  0  0  0  0  0
    8.0734   -1.4828    0.0000 H   0  0  0  0  0  0  0  0  0  0  0  0
    7.5578   -4.0293    0.0000 C   0  0  0  0  0  0  0  0  0  0  0  0
    9.0279   -4.3274    0.0000 H   0  0  0  0  0  0  0  0  0  0  0  0
    6.5640   -5.1539    0.0000 C   0  0  0  0  0  0  0  0  0  0  0  0
    5.0929   -4.8565    0.0000 C   0  0  0  0  0  0  0  0  0  0  0  0
    4.1001   -5.9809    0.0000 H   0  0  0  0  0  0  0  0  0  0  0  0
    4.6157   -3.4344    0.0000 C   0  0  0  0  0  0  0  0  0  0  0  0
    3.1456   -3.1364    0.0000 H   0  0  0  0  0  0  0  0  0  0  0  0
    7.0412   -6.5760    0.0000 O   0  0  0  0  0  0  0  0  0  0  0  0
    8.5113   -6.8738    0.0000 C   0  0  0  0  0  0  0  0  0  0  0  0
    9.9946   -6.6508    0.0000 H   0  0  0  0  0  0  0  0  0  0  0  0
    8.5493   -5.3743    0.0000 H   0  0  0  0  0  0  0  0  0  0  0  0
    8.9885   -8.2959    0.0000 O   0  0  0  0  0  0  0  0  0  0  0  0
   10.4586   -8.5936    0.0000 H   0  0  0  0  0  0  0  0  0  0  0  0
  1  2  1  0  0  0  0 
  1  3  2  0  0  0  0 
  3  4  1  0  0  0  0 
  3  5  1  0  0  0  0 
  5  6  2  0  0  0  0 
  6  7  1  0  0  0  0 
  7  8  1  0  0  0  0 
  7  9  2  0  0  0  0 
  1  9  1  0  0  0  0 
  9 10  1  0  0  0  0 
  6 11  1  0  0  0  0 
 11 12  1  0  0  0  0 
 11 13  1  0  0  0  0 
 13 14  2  0  0  0  0 
  5 14  1  0  0  0  0 
 14 15  1  0  0  0  0 
 15 16  1  0  0  0  0 
 15 17  1  0  0  0  0 
 15 18  1  0  0  0  0 
 18 19  1  0  0  0  0 
 18 20  1  0  0  0  0 
 20 21  2  0  0  0  0 
 20 22  1  0  0  0  0 
 22 23  1  0  0  0  0 
 22 24  1  0  0  0  0 
 18 25  1  0  0  0  0 
 25 26  1  0  0  0  0 
 13 26  1  0  0  0  0 
 26 27  1  0  0  0  0 
 26 28  1  0  0  0  0 
 25 29  1  0  0  0  0 
 29 30  2  0  0  0  0 
 29 31  2  0  0  0  0 
 29 32  1  0  0  0  0 
 32 33  2  0  0  0  0 
 33 34  1  0  0  0  0 
 33 35  1  0  0  0  0 
 35 36  1  0  0  0  0 
 35 37  2  0  0  0  0 
 37 38  1  0  0  0  0 
 38 39  1  0  0  0  0 
 38 40  2  0  0  0  0 
 32 40  1  0  0  0  0 
 40 41  1  0  0  0  0 
 37 42  1  0  0  0  0 
 42 43  1  0  0  0  0 
 43 44  1  0  0  0  0 
 43 45  1  0  0  0  0 
 43 46  1  0  0  0  0 
 46 47  1  0  0  0  0 
M  END
> <Rank>
1

> <Priority_score>
0.464

> <Reaction_type>
aliphatic hydroxylation

> <Parent_ID>
47

> <Parent_InChI>
InChI=1S/C19H19N3O4S/c1-26-12-6-8-13(9-7-12)27(24,25)22-11-17-15(10-18(22)19(20)23)14-4-2-3-5-16(14)21-17/h2-9,18,21H,10-11H2,1H3,(H2,20,23)

> <Parent_SMILES>
COc1ccc(S(=O)(=O)N2Cc3[nH]c4ccccc4c3CC2C(N)=O)cc1

$$$$
Molecule 47_metabolite 2
  CDK     0516241031

 43 46  0  0  0  0  0  0  0  0999 V2000
   -3.7382    0.8754    0.0000 C   0  0  0  0  0  0  0  0  0  0  0  0
   -4.7585    1.9749    0.0000 H   0  0  0  0  0  0  0  0  0  0  0  0
   -2.2782    1.2054    0.0000 C   0  0  0  0  0  0  0  0  0  0  0  0
   -1.8516    2.6434    0.0000 H   0  0  0  0  0  0  0  0  0  0  0  0
   -1.1882    0.0854    0.0000 C   0  0  0  0  0  0  0  0  0  0  0  0
   -1.6482   -1.3846    0.0000 C   0  0  0  0  0  0  0  0  0  0  0  0
   -3.1882   -1.7146    0.0000 C   0  0  0  0  0  0  0  0  0  0  0  0
   -3.6535   -3.1406    0.0000 H   0  0  0  0  0  0  0  0  0  0  0  0
   -4.1882   -0.5946    0.0000 C   0  0  0  0  0  0  0  0  0  0  0  0
   -5.6534   -0.9160    0.0000 H   0  0  0  0  0  0  0  0  0  0  0  0
   -0.4782   -2.1946    0.0000 N   0  0  0  0  0  0  0  0  0  0  0  0
   -0.4859   -3.6946    0.0000 H   0  0  0  0  0  0  0  0  0  0  0  0
    0.7918   -1.3346    0.0000 C   0  0  0  0  0  0  0  0  0  0  0  0
    0.2318    0.0854    0.0000 C   0  0  0  0  0  0  0  0  0  0  0  0
    1.3018    1.1754    0.0000 C   0  0  0  0  0  0  0  0  0  0  0  0
    1.8551    2.5696    0.0000 H   0  0  0  0  0  0  0  0  0  0  0  0
    0.0446    1.9936    0.0000 H   0  0  0  0  0  0  0  0  0  0  0  0
    2.7418    0.9154    0.0000 C   0  0  0  0  0  0  0  0  0  0  0  0
    4.2258    1.1342    0.0000 H   0  0  0  0  0  0  0  0  0  0  0  0
    2.7737    2.8951    0.0000 C   0  0  0  0  0  0  0  0  0  0  0  0
    1.4869    3.6659    0.0000 O   0  0  0  0  0  0  0  0  0  0  0  0
    4.0847    3.6241    0.0000 N   0  0  0  0  0  0  0  0  0  0  0  0
    4.1088    5.1239    0.0000 H   0  0  0  0  0  0  0  0  0  0  0  0
    5.3715    2.8532    0.0000 H   0  0  0  0  0  0  0  0  0  0  0  0
    3.1918   -0.4946    0.0000 N   0  0  0  0  0  0  0  0  0  0  0  0
    2.2318   -1.6146    0.0000 C   0  0  0  0  0  0  0  0  0  0  0  0
    1.6975   -3.0162    0.0000 H   0  0  0  0  0  0  0  0  0  0  0  0
    3.5211   -2.3813    0.0000 H   0  0  0  0  0  0  0  0  0  0  0  0
    5.1324   -0.8877    0.0000 S   0  0  0  0  0  0  0  0  0  0  0  0
    6.6157   -0.6647    0.0000 O   0  0  0  0  0  0  0  0  0  0  0  0
    5.1704    0.6118    0.0000 O   0  0  0  0  0  0  0  0  0  0  0  0
    5.6096   -2.3098    0.0000 C   0  0  0  0  0  0  0  0  0  0  0  0
    7.0807   -2.6073    0.0000 C   0  0  0  0  0  0  0  0  0  0  0  0
    8.0734   -1.4828    0.0000 H   0  0  0  0  0  0  0  0  0  0  0  0
    7.5578   -4.0293    0.0000 C   0  0  0  0  0  0  0  0  0  0  0  0
    9.0279   -4.3274    0.0000 H   0  0  0  0  0  0  0  0  0  0  0  0
    6.5640   -5.1539    0.0000 C   0  0  0  0  0  0  0  0  0  0  0  0
    5.0929   -4.8565    0.0000 C   0  0  0  0  0  0  0  0  0  0  0  0
    4.1001   -5.9809    0.0000 H   0  0  0  0  0  0  0  0  0  0  0  0
    4.6157   -3.4344    0.0000 C   0  0  0  0  0  0  0  0  0  0  0  0
    3.1456   -3.1364    0.0000 H   0  0  0  0  0  0  0  0  0  0  0  0
    7.0412   -6.5760    0.0000 O   0  0  0  0  0  0  0  0  0  0  0  0
    8.5113   -6.8738    0.0000 H   0  0  0  0  0  0  0  0  0  0  0  0
  1  2  1  0  0  0  0 
  1  3  2  0  0  0  0 
  3  4  1  0  0  0  0 
  3  5  1  0  0  0  0 
  5  6  2  0  0  0  0 
  6  7  1  0  0  0  0 
  7  8  1  0  0  0  0 
  7  9  2  0  0  0  0 
  1  9  1  0  0  0  0 
  9 10  1  0  0  0  0 
  6 11  1  0  0  0  0 
 11 12  1  0  0  0  0 
 11 13  1  0  0  0  0 
 13 14  2  0  0  0  0 
  5 14  1  0  0  0  0 
 14 15  1  0  0  0  0 
 15 16  1  0  0  0  0 
 15 17  1  0  0  0  0 
 15 18  1  0  0  0  0 
 18 19  1  0  0  0  0 
 18 20  1  0  0  0  0 
 20 21  2  0  0  0  0 
 20 22  1  0  0  0  0 
 22 23  1  0  0  0  0 
 22 24  1  0  0  0  0 
 18 25  1  0  0  0  0 
 25 26  1  0  0  0  0 
 13 26  1  0  0  0  0 
 26 27  1  0  0  0  0 
 26 28  1  0  0  0  0 
 25 29  1  0  0  0  0 
 29 30  2  0  0  0  0 
 29 31  2  0  0  0  0 
 29 32  1  0  0  0  0 
 32 33  2  0  0  0  0 
 33 34  1  0  0  0  0 
 33 35  1  0  0  0  0 
 35 36  1  0  0  0  0 
 35 37  2  0  0  0  0 
 37 38  1  0  0  0  0 
 38 39  1  0  0  0  0 
 38 40  2  0  0  0  0 
 32 40  1  0  0  0  0 
 40 41  1  0  0  0  0 
 37 42  1  0  0  0  0 
 42 43  1  0  0  0  0 
M  END
> <Rank>
1

> <Priority_score>
0.464

> <Reaction_type>
O-demethylation

> <Parent_ID>
47

> <Parent_InChI>
InChI=1S/C19H19N3O4S/c1-26-12-6-8-13(9-7-12)27(24,25)22-11-17-15(10-18(22)19(20)23)14-4-2-3-5-16(14)21-17/h2-9,18,21H,10-11H2,1H3,(H2,20,23)

> <Parent_SMILES>
COc1ccc(S(=O)(=O)N2Cc3[nH]c4ccccc4c3CC2C(N)=O)cc1

$$$$
Molecule 47_metabolite 3
  CDK     0516241031

 47 50  0  0  0  0  0  0  0  0999 V2000
    8.5113   -6.8738    0.0000 C   0  0  0  0  0  0  0  0  0  0  0  0
    8.9885   -8.2959    0.0000 H   0  0  0  0  0  0  0  0  0  0  0  0
    8.5493   -5.3743    0.0000 H   0  0  0  0  0  0  0  0  0  0  0  0
    9.9946   -6.6508    0.0000 H   0  0  0  0  0  0  0  0  0  0  0  0
    7.0412   -6.5760    0.0000 O   0  0  0  0  0  0  0  0  0  0  0  0
    6.5640   -5.1539    0.0000 C   0  0  0  0  0  0  0  0  0  0  0  0
    5.0929   -4.8565    0.0000 C   0  0  0  0  0  0  0  0  0  0  0  0
    4.1001   -5.9809    0.0000 H   0  0  0  0  0  0  0  0  0  0  0  0
    4.6157   -3.4344    0.0000 C   0  0  0  0  0  0  0  0  0  0  0  0
    3.1456   -3.1364    0.0000 H   0  0  0  0  0  0  0  0  0  0  0  0
    5.6096   -2.3098    0.0000 C   0  0  0  0  0  0  0  0  0  0  0  0
    7.0807   -2.6073    0.0000 C   0  0  0  0  0  0  0  0  0  0  0  0
    8.0734   -1.4828    0.0000 H   0  0  0  0  0  0  0  0  0  0  0  0
    7.5578   -4.0293    0.0000 C   0  0  0  0  0  0  0  0  0  0  0  0
    9.0279   -4.3274    0.0000 H   0  0  0  0  0  0  0  0  0  0  0  0
    5.1324   -0.8877    0.0000 S   0  0  0  0  0  0  0  0  0  0  0  0
    5.1704    0.6118    0.0000 O   0  0  0  0  0  0  0  0  0  0  0  0
    6.6157   -0.6647    0.0000 O   0  0  0  0  0  0  0  0  0  0  0  0
    3.1918   -0.4946    0.0000 N   0  0  0  0  0  0  0  0  0  0  0  0
    2.2318   -1.6146    0.0000 C   0  0  0  0  0  0  0  0  0  0  0  0
    1.6975   -3.0162    0.0000 H   0  0  0  0  0  0  0  0  0  0  0  0
    3.5211   -2.3813    0.0000 H   0  0  0  0  0  0  0  0  0  0  0  0
    0.7918   -1.3346    0.0000 C   0  0  0  0  0  0  0  0  0  0  0  0
    0.2318    0.0854    0.0000 C   0  0  0  0  0  0  0  0  0  0  0  0
    1.3018    1.1754    0.0000 C   0  0  0  0  0  0  0  0  0  0  0  0
    1.8551    2.5696    0.0000 H   0  0  0  0  0  0  0  0  0  0  0  0
    0.0446    1.9936    0.0000 H   0  0  0  0  0  0  0  0  0  0  0  0
    2.7418    0.9154    0.0000 C   0  0  0  0  0  0  0  0  0  0  0  0
    4.2258    1.1342    0.0000 H   0  0  0  0  0  0  0  0  0  0  0  0
    2.7737    2.8951    0.0000 C   0  0  0  0  0  0  0  0  0  0  0  0
    1.4869    3.6659    0.0000 O   0  0  0  0  0  0  0  0  0  0  0  0
    4.0847    3.6241    0.0000 N   0  0  0  0  0  0  0  0  0  0  0  0
    4.1088    5.1239    0.0000 H   0  0  0  0  0  0  0  0  0  0  0  0
    5.3715    2.8532    0.0000 H   0  0  0  0  0  0  0  0  0  0  0  0
   -1.1882    0.0854    0.0000 C   0  0  0  0  0  0  0  0  0  0  0  0
   -1.6482   -1.3846    0.0000 C   0  0  0  0  0  0  0  0  0  0  0  0
   -3.1882   -1.7146    0.0000 C   0  0  0  0  0  0  0  0  0  0  0  0
   -4.1882   -0.5946    0.0000 C   0  0  0  0  0  0  0  0  0  0  0  0
   -5.6534   -0.9160    0.0000 H   0  0  0  0  0  0  0  0  0  0  0  0
   -3.7382    0.8754    0.0000 C   0  0  0  0  0  0  0  0  0  0  0  0
   -4.7585    1.9749    0.0000 H   0  0  0  0  0  0  0  0  0  0  0  0
   -2.2782    1.2054    0.0000 C   0  0  0  0  0  0  0  0  0  0  0  0
   -1.8516    2.6434    0.0000 H   0  0  0  0  0  0  0  0  0  0  0  0
   -3.6535   -3.1406    0.0000 O   0  0  0  0  0  0  0  0  0  0  0  0
   -5.1211   -3.4507    0.0000 H   0  0  0  0  0  0  0  0  0  0  0  0
   -0.4782   -2.1946    0.0000 N   0  0  0  0  0  0  0  0  0  0  0  0
   -0.4859   -3.6946    0.0000 H   0  0  0  0  0  0  0  0  0  0  0  0
  1  2  1  0  0  0  0 
  1  3  1  0  0  0  0 
  1  4  1  0  0  0  0 
  1  5  1  0  0  0  0 
  5  6  1  0  0  0  0 
  6  7  2  0  0  0  0 
  7  8  1  0  0  0  0 
  7  9  1  0  0  0  0 
  9 10  1  0  0  0  0 
  9 11  2  0  0  0  0 
 11 12  1  0  0  0  0 
 12 13  1  0  0  0  0 
 12 14  2  0  0  0  0 
  6 14  1  0  0  0  0 
 14 15  1  0  0  0  0 
 11 16  1  0  0  0  0 
 16 17  2  0  0  0  0 
 16 18  2  0  0  0  0 
 16 19  1  0  0  0  0 
 19 20  1  0  0  0  0 
 20 21  1  0  0  0  0 
 20 22  1  0  0  0  0 
 20 23  1  0  0  0  0 
 23 24  2  0  0  0  0 
 24 25  1  0  0  0  0 
 25 26  1  0  0  0  0 
 25 27  1  0  0  0  0 
 25 28  1  0  0  0  0 
 19 28  1  0  0  0  0 
 28 29  1  0  0  0  0 
 28 30  1  0  0  0  0 
 30 31  2  0  0  0  0 
 30 32  1  0  0  0  0 
 32 33  1  0  0  0  0 
 32 34  1  0  0  0  0 
 24 35  1  0  0  0  0 
 35 36  2  0  0  0  0 
 36 37  1  0  0  0  0 
 37 38  2  0  0  0  0 
 38 39  1  0  0  0  0 
 38 40  1  0  0  0  0 
 40 41  1  0  0  0  0 
 40 42  2  0  0  0  0 
 35 42  1  0  0  0  0 
 42 43  1  0  0  0  0 
 37 44  1  0  0  0  0 
 44 45  1  0  0  0  0 
 36 46  1  0  0  0  0 
 23 46  1  0  0  0  0 
 46 47  1  0  0  0  0 
M  END
> <Rank>
3

> <Priority_score>
0.3498762801039066

> <Reaction_type>
aromatic_hydroxylation_(ortho_to_nitrogen)

> <Parent_ID>
47

> <Parent_InChI>
InChI=1S/C19H19N3O4S/c1-26-12-6-8-13(9-7-12)27(24,25)22-11-17-15(10-18(22)19(20)23)14-4-2-3-5-16(14)21-17/h2-9,18,21H,10-11H2,1H3,(H2,20,23)

> <Parent_SMILES>
COc1ccc(S(=O)(=O)N2Cc3[nH]c4ccccc4c3CC2C(N)=O)cc1

$$$$
Molecule 47_metabolite 4
  CDK     0516241031

 47 50  0  0  0  0  0  0  0  0999 V2000
    8.5113   -6.8738    0.0000 C   0  0  0  0  0  0  0  0  0  0  0  0
    8.9885   -8.2959    0.0000 H   0  0  0  0  0  0  0  0  0  0  0  0
    8.5493   -5.3743    0.0000 H   0  0  0  0  0  0  0  0  0  0  0  0
    9.9946   -6.6508    0.0000 H   0  0  0  0  0  0  0  0  0  0  0  0
    7.0412   -6.5760    0.0000 O   0  0  0  0  0  0  0  0  0  0  0  0
    6.5640   -5.1539    0.0000 C   0  0  0  0  0  0  0  0  0  0  0  0
    5.0929   -4.8565    0.0000 C   0  0  0  0  0  0  0  0  0  0  0  0
    4.1001   -5.9809    0.0000 H   0  0  0  0  0  0  0  0  0  0  0  0
    4.6157   -3.4344    0.0000 C   0  0  0  0  0  0  0  0  0  0  0  0
    3.1456   -3.1364    0.0000 H   0  0  0  0  0  0  0  0  0  0  0  0
    5.6096   -2.3098    0.0000 C   0  0  0  0  0  0  0  0  0  0  0  0
    7.0807   -2.6073    0.0000 C   0  0  0  0  0  0  0  0  0  0  0  0
    8.0734   -1.4828    0.0000 H   0  0  0  0  0  0  0  0  0  0  0  0
    7.5578   -4.0293    0.0000 C   0  0  0  0  0  0  0  0  0  0  0  0
    9.0279   -4.3274    0.0000 H   0  0  0  0  0  0  0  0  0  0  0  0
    5.1324   -0.8877    0.0000 S   0  0  0  0  0  0  0  0  0  0  0  0
    5.1704    0.6118    0.0000 O   0  0  0  0  0  0  0  0  0  0  0  0
    6.6157   -0.6647    0.0000 O   0  0  0  0  0  0  0  0  0  0  0  0
    3.1918   -0.4946    0.0000 N   0  0  0  0  0  0  0  0  0  0  0  0
    2.2318   -1.6146    0.0000 C   0  0  0  0  0  0  0  0  0  0  0  0
    1.6975   -3.0162    0.0000 H   0  0  0  0  0  0  0  0  0  0  0  0
    3.5211   -2.3813    0.0000 H   0  0  0  0  0  0  0  0  0  0  0  0
    0.7918   -1.3346    0.0000 C   0  0  0  0  0  0  0  0  0  0  0  0
    0.2318    0.0854    0.0000 C   0  0  0  0  0  0  0  0  0  0  0  0
    1.3018    1.1754    0.0000 C   0  0  0  0  0  0  0  0  0  0  0  0
    1.8551    2.5696    0.0000 H   0  0  0  0  0  0  0  0  0  0  0  0
    0.0446    1.9936    0.0000 H   0  0  0  0  0  0  0  0  0  0  0  0
    2.7418    0.9154    0.0000 C   0  0  0  0  0  0  0  0  0  0  0  0
    4.2258    1.1342    0.0000 H   0  0  0  0  0  0  0  0  0  0  0  0
    2.7737    2.8951    0.0000 C   0  0  0  0  0  0  0  0  0  0  0  0
    1.4869    3.6659    0.0000 O   0  0  0  0  0  0  0  0  0  0  0  0
    4.0847    3.6241    0.0000 N   0  0  0  0  0  0  0  0  0  0  0  0
    4.1088    5.1239    0.0000 H   0  0  0  0  0  0  0  0  0  0  0  0
    5.3715    2.8532    0.0000 H   0  0  0  0  0  0  0  0  0  0  0  0
   -1.1882    0.0854    0.0000 C   0  0  0  0  0  0  0  0  0  0  0  0
   -1.6482   -1.3846    0.0000 C   0  0  0  0  0  0  0  0  0  0  0  0
   -3.1882   -1.7146    0.0000 C   0  0  0  0  0  0  0  0  0  0  0  0
   -3.6535   -3.1406    0.0000 H   0  0  0  0  0  0  0  0  0  0  0  0
   -4.1882   -0.5946    0.0000 C   0  0  0  0  0  0  0  0  0  0  0  0
   -3.7382    0.8754    0.0000 C   0  0  0  0  0  0  0  0  0  0  0  0
   -4.7585    1.9749    0.0000 H   0  0  0  0  0  0  0  0  0  0  0  0
   -2.2782    1.2054    0.0000 C   0  0  0  0  0  0  0  0  0  0  0  0
   -1.8516    2.6434    0.0000 H   0  0  0  0  0  0  0  0  0  0  0  0
   -5.6534   -0.9160    0.0000 O   0  0  0  0  0  0  0  0  0  0  0  0
   -6.6642    0.1922    0.0000 H   0  0  0  0  0  0  0  0  0  0  0  0
   -0.4782   -2.1946    0.0000 N   0  0  0  0  0  0  0  0  0  0  0  0
   -0.4859   -3.6946    0.0000 H   0  0  0  0  0  0  0  0  0  0  0  0
  1  2  1  0  0  0  0 
  1  3  1  0  0  0  0 
  1  4  1  0  0  0  0 
  1  5  1  0  0  0  0 
  5  6  1  0  0  0  0 
  6  7  2  0  0  0  0 
  7  8  1  0  0  0  0 
  7  9  1  0  0  0  0 
  9 10  1  0  0  0  0 
  9 11  2  0  0  0  0 
 11 12  1  0  0  0  0 
 12 13  1  0  0  0  0 
 12 14  2  0  0  0  0 
  6 14  1  0  0  0  0 
 14 15  1  0  0  0  0 
 11 16  1  0  0  0  0 
 16 17  2  0  0  0  0 
 16 18  2  0  0  0  0 
 16 19  1  0  0  0  0 
 19 20  1  0  0  0  0 
 20 21  1  0  0  0  0 
 20 22  1  0  0  0  0 
 20 23  1  0  0  0  0 
 23 24  2  0  0  0  0 
 24 25  1  0  0  0  0 
 25 26  1  0  0  0  0 
 25 27  1  0  0  0  0 
 25 28  1  0  0  0  0 
 19 28  1  0  0  0  0 
 28 29  1  0  0  0  0 
 28 30  1  0  0  0  0 
 30 31  2  0  0  0  0 
 30 32  1  0  0  0  0 
 32 33  1  0  0  0  0 
 32 34  1  0  0  0  0 
 24 35  1  0  0  0  0 
 35 36  2  0  0  0  0 
 36 37  1  0  0  0  0 
 37 38  1  0  0  0  0 
 37 39  2  0  0  0  0 
 39 40  1  0  0  0  0 
 40 41  1  0  0  0  0 
 40 42  2  0  0  0  0 
 35 42  1  0  0  0  0 
 42 43  1  0  0  0  0 
 39 44  1  0  0  0  0 
 44 45  1  0  0  0  0 
 36 46  1  0  0  0  0 
 23 46  1  0  0  0  0 
 46 47  1  0  0  0  0 
M  END
> <Rank>
3

> <Priority_score>
0.3498762801039066

> <Reaction_type>
aromatic_hydroxylation_(para_to_carbon)

> <Parent_ID>
47

> <Parent_InChI>
InChI=1S/C19H19N3O4S/c1-26-12-6-8-13(9-7-12)27(24,25)22-11-17-15(10-18(22)19(20)23)14-4-2-3-5-16(14)21-17/h2-9,18,21H,10-11H2,1H3,(H2,20,23)

> <Parent_SMILES>
COc1ccc(S(=O)(=O)N2Cc3[nH]c4ccccc4c3CC2C(N)=O)cc1

$$$$
Molecule 47_metabolite 5
  CDK     0516241031

 47 50  0  0  0  0  0  0  0  0999 V2000
    8.5113   -6.8738    0.0000 C   0  0  0  0  0  0  0  0  0  0  0  0
    8.9885   -8.2959    0.0000 H   0  0  0  0  0  0  0  0  0  0  0  0
    8.5493   -5.3743    0.0000 H   0  0  0  0  0  0  0  0  0  0  0  0
    9.9946   -6.6508    0.0000 H   0  0  0  0  0  0  0  0  0  0  0  0
    7.0412   -6.5760    0.0000 O   0  0  0  0  0  0  0  0  0  0  0  0
    6.5640   -5.1539    0.0000 C   0  0  0  0  0  0  0  0  0  0  0  0
    5.0929   -4.8565    0.0000 C   0  0  0  0  0  0  0  0  0  0  0  0
    4.1001   -5.9809    0.0000 H   0  0  0  0  0  0  0  0  0  0  0  0
    4.6157   -3.4344    0.0000 C   0  0  0  0  0  0  0  0  0  0  0  0
    3.1456   -3.1364    0.0000 H   0  0  0  0  0  0  0  0  0  0  0  0
    5.6096   -2.3098    0.0000 C   0  0  0  0  0  0  0  0  0  0  0  0
    7.0807   -2.6073    0.0000 C   0  0  0  0  0  0  0  0  0  0  0  0
    8.0734   -1.4828    0.0000 H   0  0  0  0  0  0  0  0  0  0  0  0
    7.5578   -4.0293    0.0000 C   0  0  0  0  0  0  0  0  0  0  0  0
    9.0279   -4.3274    0.0000 H   0  0  0  0  0  0  0  0  0  0  0  0
    5.1324   -0.8877    0.0000 S   0  0  0  0  0  0  0  0  0  0  0  0
    5.1704    0.6118    0.0000 O   0  0  0  0  0  0  0  0  0  0  0  0
    6.6157   -0.6647    0.0000 O   0  0  0  0  0  0  0  0  0  0  0  0
    3.1918   -0.4946    0.0000 N   0  0  0  0  0  0  0  0  0  0  0  0
    2.2318   -1.6146    0.0000 C   0  0  0  0  0  0  0  0  0  0  0  0
    1.6975   -3.0162    0.0000 H   0  0  0  0  0  0  0  0  0  0  0  0
    3.5211   -2.3813    0.0000 H   0  0  0  0  0  0  0  0  0  0  0  0
    0.7918   -1.3346    0.0000 C   0  0  0  0  0  0  0  0  0  0  0  0
    0.2318    0.0854    0.0000 C   0  0  0  0  0  0  0  0  0  0  0  0
    1.3018    1.1754    0.0000 C   0  0  0  0  0  0  0  0  0  0  0  0
    1.8551    2.5696    0.0000 H   0  0  0  0  0  0  0  0  0  0  0  0
    0.0446    1.9936    0.0000 H   0  0  0  0  0  0  0  0  0  0  0  0
    2.7418    0.9154    0.0000 C   0  0  0  0  0  0  0  0  0  0  0  0
    4.2258    1.1342    0.0000 H   0  0  0  0  0  0  0  0  0  0  0  0
    2.7737    2.8951    0.0000 C   0  0  0  0  0  0  0  0  0  0  0  0
    1.4869    3.6659    0.0000 O   0  0  0  0  0  0  0  0  0  0  0  0
    4.0847    3.6241    0.0000 N   0  0  0  0  0  0  0  0  0  0  0  0
    4.1088    5.1239    0.0000 H   0  0  0  0  0  0  0  0  0  0  0  0
    5.3715    2.8532    0.0000 H   0  0  0  0  0  0  0  0  0  0  0  0
   -1.1882    0.0854    0.0000 C   0  0  0  0  0  0  0  0  0  0  0  0
   -1.6482   -1.3846    0.0000 C   0  0  0  0  0  0  0  0  0  0  0  0
   -3.1882   -1.7146    0.0000 C   0  0  0  0  0  0  0  0  0  0  0  0
   -3.6535   -3.1406    0.0000 H   0  0  0  0  0  0  0  0  0  0  0  0
   -4.1882   -0.5946    0.0000 C   0  0  0  0  0  0  0  0  0  0  0  0
   -5.6534   -0.9160    0.0000 H   0  0  0  0  0  0  0  0  0  0  0  0
   -3.7382    0.8754    0.0000 C   0  0  0  0  0  0  0  0  0  0  0  0
   -2.2782    1.2054    0.0000 C   0  0  0  0  0  0  0  0  0  0  0  0
   -1.8516    2.6434    0.0000 H   0  0  0  0  0  0  0  0  0  0  0  0
   -4.7585    1.9749    0.0000 O   0  0  0  0  0  0  0  0  0  0  0  0
   -6.2208    1.6411    0.0000 H   0  0  0  0  0  0  0  0  0  0  0  0
   -0.4782   -2.1946    0.0000 N   0  0  0  0  0  0  0  0  0  0  0  0
   -0.4859   -3.6946    0.0000 H   0  0  0  0  0  0  0  0  0  0  0  0
  1  2  1  0  0  0  0 
  1  3  1  0  0  0  0 
  1  4  1  0  0  0  0 
  1  5  1  0  0  0  0 
  5  6  1  0  0  0  0 
  6  7  2  0  0  0  0 
  7  8  1  0  0  0  0 
  7  9  1  0  0  0  0 
  9 10  1  0  0  0  0 
  9 11  2  0  0  0  0 
 11 12  1  0  0  0  0 
 12 13  1  0  0  0  0 
 12 14  2  0  0  0  0 
  6 14  1  0  0  0  0 
 14 15  1  0  0  0  0 
 11 16  1  0  0  0  0 
 16 17  2  0  0  0  0 
 16 18  2  0  0  0  0 
 16 19  1  0  0  0  0 
 19 20  1  0  0  0  0 
 20 21  1  0  0  0  0 
 20 22  1  0  0  0  0 
 20 23  1  0  0  0  0 
 23 24  2  0  0  0  0 
 24 25  1  0  0  0  0 
 25 26  1  0  0  0  0 
 25 27  1  0  0  0  0 
 25 28  1  0  0  0  0 
 19 28  1  0  0  0  0 
 28 29  1  0  0  0  0 
 28 30  1  0  0  0  0 
 30 31  2  0  0  0  0 
 30 32  1  0  0  0  0 
 32 33  1  0  0  0  0 
 32 34  1  0  0  0  0 
 24 35  1  0  0  0  0 
 35 36  2  0  0  0  0 
 36 37  1  0  0  0  0 
 37 38  1  0  0  0  0 
 37 39  2  0  0  0  0 
 39 40  1  0  0  0  0 
 39 41  1  0  0  0  0 
 41 42  2  0  0  0  0 
 35 42  1  0  0  0  0 
 42 43  1  0  0  0  0 
 41 44  1  0  0  0  0 
 44 45  1  0  0  0  0 
 36 46  1  0  0  0  0 
 23 46  1  0  0  0  0 
 46 47  1  0  0  0  0 
M  END
> <Rank>
3

> <Priority_score>
0.3498762801039066

> <Reaction_type>
aromatic_hydroxylation_(para_to_nitrogen)

> <Parent_ID>
47

> <Parent_InChI>
InChI=1S/C19H19N3O4S/c1-26-12-6-8-13(9-7-12)27(24,25)22-11-17-15(10-18(22)19(20)23)14-4-2-3-5-16(14)21-17/h2-9,18,21H,10-11H2,1H3,(H2,20,23)

> <Parent_SMILES>
COc1ccc(S(=O)(=O)N2Cc3[nH]c4ccccc4c3CC2C(N)=O)cc1

$$$$
Molecule 47_metabolite 6
  CDK     0516241031

 45 48  0  0  0  0  0  0  0  0999 V2000
    8.5113   -6.8738    0.0000 C   0  0  0  0  0  0  0  0  0  0  0  0
    8.9885   -8.2959    0.0000 H   0  0  0  0  0  0  0  0  0  0  0  0
    8.5493   -5.3743    0.0000 H   0  0  0  0  0  0  0  0  0  0  0  0
    9.9946   -6.6508    0.0000 H   0  0  0  0  0  0  0  0  0  0  0  0
    7.0412   -6.5760    0.0000 O   0  0  0  0  0  0  0  0  0  0  0  0
    6.5640   -5.1539    0.0000 C   0  0  0  0  0  0  0  0  0  0  0  0
    5.0929   -4.8565    0.0000 C   0  0  0  0  0  0  0  0  0  0  0  0
    4.1001   -5.9809    0.0000 H   0  0  0  0  0  0  0  0  0  0  0  0
    4.6157   -3.4344    0.0000 C   0  0  0  0  0  0  0  0  0  0  0  0
    3.1456   -3.1364    0.0000 H   0  0  0  0  0  0  0  0  0  0  0  0
    5.6096   -2.3098    0.0000 C   0  0  0  0  0  0  0  0  0  0  0  0
    7.0807   -2.6073    0.0000 C   0  0  0  0  0  0  0  0  0  0  0  0
    8.0734   -1.4828    0.0000 H   0  0  0  0  0  0  0  0  0  0  0  0
    7.5578   -4.0293    0.0000 C   0  0  0  0  0  0  0  0  0  0  0  0
    9.0279   -4.3274    0.0000 H   0  0  0  0  0  0  0  0  0  0  0  0
    5.1324   -0.8877    0.0000 S   0  0  0  0  0  0  0  0  0  0  0  0
    5.1704    0.6118    0.0000 O   0  0  0  0  0  0  0  0  0  0  0  0
    6.6157   -0.6647    0.0000 O   0  0  0  0  0  0  0  0  0  0  0  0
    3.1918   -0.4946    0.0000 N   0  0  0  0  0  0  0  0  0  0  0  0
    2.2318   -1.6146    0.0000 C   0  0  0  0  0  0  0  0  0  0  0  0
    1.6975   -3.0162    0.0000 H   0  0  0  0  0  0  0  0  0  0  0  0
    3.5211   -2.3813    0.0000 H   0  0  0  0  0  0  0  0  0  0  0  0
    0.7918   -1.3346    0.0000 C   0  0  0  0  0  0  0  0  0  0  0  0
    0.2318    0.0854    0.0000 C   0  0  0  0  0  0  0  0  0  0  0  0
    1.3018    1.1754    0.0000 C   0  0  0  0  0  0  0  0  0  0  0  0
    1.8551    2.5696    0.0000 H   0  0  0  0  0  0  0  0  0  0  0  0
    0.0446    1.9936    0.0000 H   0  0  0  0  0  0  0  0  0  0  0  0
    2.7418    0.9154    0.0000 C   0  0  0  0  0  0  0  0  0  0  0  0
    4.2258    1.1342    0.0000 H   0  0  0  0  0  0  0  0  0  0  0  0
    2.7737    2.8951    0.0000 C   0  0  0  0  0  0  0  0  0  0  0  0
    4.0847    3.6241    0.0000 O   0  0  0  0  0  0  0  0  0  0  0  0
    1.4869    3.6659    0.0000 O   0  0  0  0  0  0  0  0  0  0  0  0
    1.5111    5.1657    0.0000 H   0  0  0  0  0  0  0  0  0  0  0  0
   -1.1882    0.0854    0.0000 C   0  0  0  0  0  0  0  0  0  0  0  0
   -1.6482   -1.3846    0.0000 C   0  0  0  0  0  0  0  0  0  0  0  0
   -3.1882   -1.7146    0.0000 C   0  0  0  0  0  0  0  0  0  0  0  0
   -3.6535   -3.1406    0.0000 H   0  0  0  0  0  0  0  0  0  0  0  0
   -4.1882   -0.5946    0.0000 C   0  0  0  0  0  0  0  0  0  0  0  0
   -5.6534   -0.9160    0.0000 H   0  0  0  0  0  0  0  0  0  0  0  0
   -3.7382    0.8754    0.0000 C   0  0  0  0  0  0  0  0  0  0  0  0
   -4.7585    1.9749    0.0000 H   0  0  0  0  0  0  0  0  0  0  0  0
   -2.2782    1.2054    0.0000 C   0  0  0  0  0  0  0  0  0  0  0  0
   -1.8516    2.6434    0.0000 H   0  0  0  0  0  0  0  0  0  0  0  0
   -0.4782   -2.1946    0.0000 N   0  0  0  0  0  0  0  0  0  0  0  0
   -0.4859   -3.6946    0.0000 H   0  0  0  0  0  0  0  0  0  0  0  0
  1  2  1  0  0  0  0 
  1  3  1  0  0  0  0 
  1  4  1  0  0  0  0 
  1  5  1  0  0  0  0 
  5  6  1  0  0  0  0 
  6  7  2  0  0  0  0 
  7  8  1  0  0  0  0 
  7  9  1  0  0  0  0 
  9 10  1  0  0  0  0 
  9 11  2  0  0  0  0 
 11 12  1  0  0  0  0 
 12 13  1  0  0  0  0 
 12 14  2  0  0  0  0 
  6 14  1  0  0  0  0 
 14 15  1  0  0  0  0 
 11 16  1  0  0  0  0 
 16 17  2  0  0  0  0 
 16 18  2  0  0  0  0 
 16 19  1  0  0  0  0 
 19 20  1  0  0  0  0 
 20 21  1  0  0  0  0 
 20 22  1  0  0  0  0 
 20 23  1  0  0  0  0 
 23 24  2  0  0  0  0 
 24 25  1  0  0  0  0 
 25 26  1  0  0  0  0 
 25 27  1  0  0  0  0 
 25 28  1  0  0  0  0 
 19 28  1  0  0  0  0 
 28 29  1  0  0  0  0 
 28 30  1  0  0  0  0 
 30 31  2  0  0  0  0 
 30 32  1  0  0  0  0 
 32 33  1  0  0  0  0 
 24 34  1  0  0  0  0 
 34 35  2  0  0  0  0 
 35 36  1  0  0  0  0 
 36 37  1  0  0  0  0 
 36 38  2  0  0  0  0 
 38 39  1  0  0  0  0 
 38 40  1  0  0  0  0 
 40 41  1  0  0  0  0 
 40 42  2  0  0  0  0 
 34 42  1  0  0  0  0 
 42 43  1  0  0  0  0 
 35 44  1  0  0  0  0 
 23 44  1  0  0  0  0 
 44 45  1  0  0  0  0 
M  END
> <Rank>
6

> <Priority_score>
0.248

> <Reaction_type>
hydrolysis_(primary_amide)

> <Parent_ID>
47

> <Parent_InChI>
InChI=1S/C19H19N3O4S/c1-26-12-6-8-13(9-7-12)27(24,25)22-11-17-15(10-18(22)19(20)23)14-4-2-3-5-16(14)21-17/h2-9,18,21H,10-11H2,1H3,(H2,20,23)

> <Parent_SMILES>
COc1ccc(S(=O)(=O)N2Cc3[nH]c4ccccc4c3CC2C(N)=O)cc1

$$$$
Molecule 47_metabolite 7
  CDK     0516241031

 47 50  0  0  0  0  0  0  0  0999 V2000
    8.5113   -6.8738    0.0000 C   0  0  0  0  0  0  0  0  0  0  0  0
    8.9885   -8.2959    0.0000 H   0  0  0  0  0  0  0  0  0  0  0  0
    8.5493   -5.3743    0.0000 H   0  0  0  0  0  0  0  0  0  0  0  0
    9.9946   -6.6508    0.0000 H   0  0  0  0  0  0  0  0  0  0  0  0
    7.0412   -6.5760    0.0000 O   0  0  0  0  0  0  0  0  0  0  0  0
    6.5640   -5.1539    0.0000 C   0  0  0  0  0  0  0  0  0  0  0  0
    5.0929   -4.8565    0.0000 C   0  0  0  0  0  0  0  0  0  0  0  0
    4.1001   -5.9809    0.0000 H   0  0  0  0  0  0  0  0  0  0  0  0
    4.6157   -3.4344    0.0000 C   0  0  0  0  0  0  0  0  0  0  0  0
    3.1456   -3.1364    0.0000 H   0  0  0  0  0  0  0  0  0  0  0  0
    5.6096   -2.3098    0.0000 C   0  0  0  0  0  0  0  0  0  0  0  0
    7.0807   -2.6073    0.0000 C   0  0  0  0  0  0  0  0  0  0  0  0
    8.0734   -1.4828    0.0000 H   0  0  0  0  0  0  0  0  0  0  0  0
    7.5578   -4.0293    0.0000 C   0  0  0  0  0  0  0  0  0  0  0  0
    9.0279   -4.3274    0.0000 H   0  0  0  0  0  0  0  0  0  0  0  0
    5.1324   -0.8877    0.0000 S   0  0  0  0  0  0  0  0  0  0  0  0
    5.1704    0.6118    0.0000 O   0  0  0  0  0  0  0  0  0  0  0  0
    6.6157   -0.6647    0.0000 O   0  0  0  0  0  0  0  0  0  0  0  0
    3.1918   -0.4946    0.0000 N   0  0  0  0  0  0  0  0  0  0  0  0
    2.2318   -1.6146    0.0000 C   0  0  0  0  0  0  0  0  0  0  0  0
    1.6975   -3.0162    0.0000 H   0  0  0  0  0  0  0  0  0  0  0  0
    3.5211   -2.3813    0.0000 H   0  0  0  0  0  0  0  0  0  0  0  0
    0.7918   -1.3346    0.0000 C   0  0  0  0  0  0  0  0  0  0  0  0
    0.2318    0.0854    0.0000 C   0  0  0  0  0  0  0  0  0  0  0  0
    1.3018    1.1754    0.0000 C   0  0  0  0  0  0  0  0  0  0  0  0
    1.8551    2.5696    0.0000 H   0  0  0  0  0  0  0  0  0  0  0  0
    0.0446    1.9936    0.0000 H   0  0  0  0  0  0  0  0  0  0  0  0
    2.7418    0.9154    0.0000 C   0  0  0  0  0  0  0  0  0  0  0  0
    4.2258    1.1342    0.0000 H   0  0  0  0  0  0  0  0  0  0  0  0
    2.7737    2.8951    0.0000 C   0  0  0  0  0  0  0  0  0  0  0  0
    1.4869    3.6659    0.0000 O   0  0  0  0  0  0  0  0  0  0  0  0
    4.0847    3.6241    0.0000 N   0  0  0  0  0  0  0  0  0  0  0  0
    5.3715    2.8532    0.0000 H   0  0  0  0  0  0  0  0  0  0  0  0
    4.1088    5.1239    0.0000 O   0  0  0  0  0  0  0  0  0  0  0  0
    5.4198    5.8529    0.0000 H   0  0  0  0  0  0  0  0  0  0  0  0
   -1.1882    0.0854    0.0000 C   0  0  0  0  0  0  0  0  0  0  0  0
   -1.6482   -1.3846    0.0000 C   0  0  0  0  0  0  0  0  0  0  0  0
   -3.1882   -1.7146    0.0000 C   0  0  0  0  0  0  0  0  0  0  0  0
   -3.6535   -3.1406    0.0000 H   0  0  0  0  0  0  0  0  0  0  0  0
   -4.1882   -0.5946    0.0000 C   0  0  0  0  0  0  0  0  0  0  0  0
   -5.6534   -0.9160    0.0000 H   0  0  0  0  0  0  0  0  0  0  0  0
   -3.7382    0.8754    0.0000 C   0  0  0  0  0  0  0  0  0  0  0  0
   -4.7585    1.9749    0.0000 H   0  0  0  0  0  0  0  0  0  0  0  0
   -2.2782    1.2054    0.0000 C   0  0  0  0  0  0  0  0  0  0  0  0
   -1.8516    2.6434    0.0000 H   0  0  0  0  0  0  0  0  0  0  0  0
   -0.4782   -2.1946    0.0000 N   0  0  0  0  0  0  0  0  0  0  0  0
   -0.4859   -3.6946    0.0000 H   0  0  0  0  0  0  0  0  0  0  0  0
  1  2  1  0  0  0  0 
  1  3  1  0  0  0  0 
  1  4  1  0  0  0  0 
  1  5  1  0  0  0  0 
  5  6  1  0  0  0  0 
  6  7  2  0  0  0  0 
  7  8  1  0  0  0  0 
  7  9  1  0  0  0  0 
  9 10  1  0  0  0  0 
  9 11  2  0  0  0  0 
 11 12  1  0  0  0  0 
 12 13  1  0  0  0  0 
 12 14  2  0  0  0  0 
  6 14  1  0  0  0  0 
 14 15  1  0  0  0  0 
 11 16  1  0  0  0  0 
 16 17  2  0  0  0  0 
 16 18  2  0  0  0  0 
 16 19  1  0  0  0  0 
 19 20  1  0  0  0  0 
 20 21  1  0  0  0  0 
 20 22  1  0  0  0  0 
 20 23  1  0  0  0  0 
 23 24  2  0  0  0  0 
 24 25  1  0  0  0  0 
 25 26  1  0  0  0  0 
 25 27  1  0  0  0  0 
 25 28  1  0  0  0  0 
 19 28  1  0  0  0  0 
 28 29  1  0  0  0  0 
 28 30  1  0  0  0  0 
 30 31  2  0  0  0  0 
 30 32  1  0  0  0  0 
 32 33  1  0  0  0  0 
 32 34  1  0  0  0  0 
 34 35  1  0  0  0  0 
 24 36  1  0  0  0  0 
 36 37  2  0  0  0  0 
 37 38  1  0  0  0  0 
 38 39  1  0  0  0  0 
 38 40  2  0  0  0  0 
 40 41  1  0  0  0  0 
 40 42  1  0  0  0  0 
 42 43  1  0  0  0  0 
 42 44  2  0  0  0  0 
 36 44  1  0  0  0  0 
 44 45  1  0  0  0  0 
 37 46  1  0  0  0  0 
 23 46  1  0  0  0  0 
 46 47  1  0  0  0  0 
M  END
> <Rank>
6

> <Priority_score>
0.248

> <Reaction_type>
amine hydroxylation

> <Parent_ID>
47

> <Parent_InChI>
InChI=1S/C19H19N3O4S/c1-26-12-6-8-13(9-7-12)27(24,25)22-11-17-15(10-18(22)19(20)23)14-4-2-3-5-16(14)21-17/h2-9,18,21H,10-11H2,1H3,(H2,20,23)

> <Parent_SMILES>
COc1ccc(S(=O)(=O)N2Cc3[nH]c4ccccc4c3CC2C(N)=O)cc1

$$$$
Molecule 47_metabolite 8
  CDK     0516241031

 47 50  0  0  0  0  0  0  0  0999 V2000
    8.5113   -6.8738    0.0000 C   0  0  0  0  0  0  0  0  0  0  0  0
    8.9885   -8.2959    0.0000 H   0  0  0  0  0  0  0  0  0  0  0  0
    8.5493   -5.3743    0.0000 H   0  0  0  0  0  0  0  0  0  0  0  0
    9.9946   -6.6508    0.0000 H   0  0  0  0  0  0  0  0  0  0  0  0
    7.0412   -6.5760    0.0000 O   0  0  0  0  0  0  0  0  0  0  0  0
    6.5640   -5.1539    0.0000 C   0  0  0  0  0  0  0  0  0  0  0  0
    5.0929   -4.8565    0.0000 C   0  0  0  0  0  0  0  0  0  0  0  0
    4.1001   -5.9809    0.0000 H   0  0  0  0  0  0  0  0  0  0  0  0
    4.6157   -3.4344    0.0000 C   0  0  0  0  0  0  0  0  0  0  0  0
    3.1456   -3.1364    0.0000 H   0  0  0  0  0  0  0  0  0  0  0  0
    5.6096   -2.3098    0.0000 C   0  0  0  0  0  0  0  0  0  0  0  0
    7.0807   -2.6073    0.0000 C   0  0  0  0  0  0  0  0  0  0  0  0
    8.0734   -1.4828    0.0000 H   0  0  0  0  0  0  0  0  0  0  0  0
    7.5578   -4.0293    0.0000 C   0  0  0  0  0  0  0  0  0  0  0  0
    9.0279   -4.3274    0.0000 H   0  0  0  0  0  0  0  0  0  0  0  0
    5.1324   -0.8877    0.0000 S   0  0  0  0  0  0  0  0  0  0  0  0
    5.1704    0.6118    0.0000 O   0  0  0  0  0  0  0  0  0  0  0  0
    6.6157   -0.6647    0.0000 O   0  0  0  0  0  0  0  0  0  0  0  0
    3.1918   -0.4946    0.0000 N   0  0  0  0  0  0  0  0  0  0  0  0
    2.2318   -1.6146    0.0000 C   0  0  0  0  0  0  0  0  0  0  0  0
    1.6975   -3.0162    0.0000 H   0  0  0  0  0  0  0  0  0  0  0  0
    3.5211   -2.3813    0.0000 H   0  0  0  0  0  0  0  0  0  0  0  0
    0.7918   -1.3346    0.0000 C   0  0  0  0  0  0  0  0  0  0  0  0
    0.2318    0.0854    0.0000 C   0  0  0  0  0  0  0  0  0  0  0  0
    1.3018    1.1754    0.0000 C   0  0  0  0  0  0  0  0  0  0  0  0
    1.8551    2.5696    0.0000 H   0  0  0  0  0  0  0  0  0  0  0  0
    0.0446    1.9936    0.0000 H   0  0  0  0  0  0  0  0  0  0  0  0
    2.7418    0.9154    0.0000 C   0  0  0  0  0  0  0  0  0  0  0  0
    4.2258    1.1342    0.0000 C   0  0  0  0  0  0  0  0  0  0  0  0
    4.4446   -0.3498    0.0000 O   0  0  0  0  0  0  0  0  0  0  0  0
    4.7782    2.5287    0.0000 N   0  0  0  0  0  0  0  0  0  0  0  0
    6.2622    2.7476    0.0000 H   0  0  0  0  0  0  0  0  0  0  0  0
    3.8467    3.7045    0.0000 H   0  0  0  0  0  0  0  0  0  0  0  0
    2.7737    2.8951    0.0000 O   0  0  0  0  0  0  0  0  0  0  0  0
    1.4869    3.6659    0.0000 H   0  0  0  0  0  0  0  0  0  0  0  0
   -1.1882    0.0854    0.0000 C   0  0  0  0  0  0  0  0  0  0  0  0
   -1.6482   -1.3846    0.0000 C   0  0  0  0  0  0  0  0  0  0  0  0
   -3.1882   -1.7146    0.0000 C   0  0  0  0  0  0  0  0  0  0  0  0
   -3.6535   -3.1406    0.0000 H   0  0  0  0  0  0  0  0  0  0  0  0
   -4.1882   -0.5946    0.0000 C   0  0  0  0  0  0  0  0  0  0  0  0
   -5.6534   -0.9160    0.0000 H   0  0  0  0  0  0  0  0  0  0  0  0
   -3.7382    0.8754    0.0000 C   0  0  0  0  0  0  0  0  0  0  0  0
   -4.7585    1.9749    0.0000 H   0  0  0  0  0  0  0  0  0  0  0  0
   -2.2782    1.2054    0.0000 C   0  0  0  0  0  0  0  0  0  0  0  0
   -1.8516    2.6434    0.0000 H   0  0  0  0  0  0  0  0  0  0  0  0
   -0.4782   -2.1946    0.0000 N   0  0  0  0  0  0  0  0  0  0  0  0
   -0.4859   -3.6946    0.0000 H   0  0  0  0  0  0  0  0  0  0  0  0
  1  2  1  0  0  0  0 
  1  3  1  0  0  0  0 
  1  4  1  0  0  0  0 
  1  5  1  0  0  0  0 
  5  6  1  0  0  0  0 
  6  7  2  0  0  0  0 
  7  8  1  0  0  0  0 
  7  9  1  0  0  0  0 
  9 10  1  0  0  0  0 
  9 11  2  0  0  0  0 
 11 12  1  0  0  0  0 
 12 13  1  0  0  0  0 
 12 14  2  0  0  0  0 
  6 14  1  0  0  0  0 
 14 15  1  0  0  0  0 
 11 16  1  0  0  0  0 
 16 17  2  0  0  0  0 
 16 18  2  0  0  0  0 
 16 19  1  0  0  0  0 
 19 20  1  0  0  0  0 
 20 21  1  0  0  0  0 
 20 22  1  0  0  0  0 
 20 23  1  0  0  0  0 
 23 24  2  0  0  0  0 
 24 25  1  0  0  0  0 
 25 26  1  0  0  0  0 
 25 27  1  0  0  0  0 
 25 28  1  0  0  0  0 
 19 28  1  0  0  0  0 
 28 29  1  0  0  0  0 
 29 30  2  0  0  0  0 
 29 31  1  0  0  0  0 
 31 32  1  0  0  0  0 
 31 33  1  0  0  0  0 
 28 34  1  0  0  0  0 
 34 35  1  0  0  0  0 
 24 36  1  0  0  0  0 
 36 37  2  0  0  0  0 
 37 38  1  0  0  0  0 
 38 39  1  0  0  0  0 
 38 40  2  0  0  0  0 
 40 41  1  0  0  0  0 
 40 42  1  0  0  0  0 
 42 43  1  0  0  0  0 
 42 44  2  0  0  0  0 
 36 44  1  0  0  0  0 
 44 45  1  0  0  0  0 
 37 46  1  0  0  0  0 
 23 46  1  0  0  0  0 
 46 47  1  0  0  0  0 
M  END
> <Rank>
6

> <Priority_score>
0.248

> <Reaction_type>
aliphatic_hydroxylation_(tert_carbon_next_to_SP2)

> <Parent_ID>
47

> <Parent_InChI>
InChI=1S/C19H19N3O4S/c1-26-12-6-8-13(9-7-12)27(24,25)22-11-17-15(10-18(22)19(20)23)14-4-2-3-5-16(14)21-17/h2-9,18,21H,10-11H2,1H3,(H2,20,23)

> <Parent_SMILES>
COc1ccc(S(=O)(=O)N2Cc3[nH]c4ccccc4c3CC2C(N)=O)cc1

$$$$
Molecule 47_metabolite 9
  CDK     0516241031

 47 49  0  0  0  0  0  0  0  0999 V2000
    8.5881   11.2200    0.0000 C   0  0  0  0  0  0  0  0  0  0  0  0
    9.0534   12.6460    0.0000 H   0  0  0  0  0  0  0  0  0  0  0  0
    8.6386    9.7208    0.0000 H   0  0  0  0  0  0  0  0  0  0  0  0
   10.0733   11.0094    0.0000 H   0  0  0  0  0  0  0  0  0  0  0  0
    7.1205   10.9099    0.0000 O   0  0  0  0  0  0  0  0  0  0  0  0
    6.6552    9.4839    0.0000 C   0  0  0  0  0  0  0  0  0  0  0  0
    5.1867    9.1741    0.0000 C   0  0  0  0  0  0  0  0  0  0  0  0
    4.1846   10.2903    0.0000 H   0  0  0  0  0  0  0  0  0  0  0  0
    4.7214    7.7481    0.0000 C   0  0  0  0  0  0  0  0  0  0  0  0
    3.2539    7.4378    0.0000 H   0  0  0  0  0  0  0  0  0  0  0  0
    5.7247    6.6319    0.0000 C   0  0  0  0  0  0  0  0  0  0  0  0
    7.1932    6.9417    0.0000 C   0  0  0  0  0  0  0  0  0  0  0  0
    8.1953    5.8255    0.0000 H   0  0  0  0  0  0  0  0  0  0  0  0
    7.6585    8.3677    0.0000 C   0  0  0  0  0  0  0  0  0  0  0  0
    9.1260    8.6780    0.0000 H   0  0  0  0  0  0  0  0  0  0  0  0
    5.2594    5.2059    0.0000 S   0  0  0  0  0  0  0  0  0  0  0  0
    5.3099    3.7067    0.0000 O   0  0  0  0  0  0  0  0  0  0  0  0
    6.7445    4.9953    0.0000 O   0  0  0  0  0  0  0  0  0  0  0  0
    3.7918    4.8958    0.0000 N   0  0  0  0  0  0  0  0  0  0  0  0
    2.7895    6.0118    0.0000 H   0  0  0  0  0  0  0  0  0  0  0  0
    3.1776    3.0135    0.0000 C   0  0  0  0  0  0  0  0  0  0  0  0
    3.2281    1.5143    0.0000 H   0  0  0  0  0  0  0  0  0  0  0  0
    1.7100    2.7034    0.0000 C   0  0  0  0  0  0  0  0  0  0  0  0
    1.6595    4.2026    0.0000 H   0  0  0  0  0  0  0  0  0  0  0  0
    0.2249    2.9140    0.0000 H   0  0  0  0  0  0  0  0  0  0  0  0
    1.0959    0.8211    0.0000 C   0  0  0  0  0  0  0  0  0  0  0  0
    1.9759   -0.3889    0.0000 C   0  0  0  0  0  0  0  0  0  0  0  0
    3.4759   -0.3889    0.0000 C   0  0  0  0  0  0  0  0  0  0  0  0
    4.2259   -1.6880    0.0000 H   0  0  0  0  0  0  0  0  0  0  0  0
    4.2259    0.9101    0.0000 O   0  0  0  0  0  0  0  0  0  0  0  0
    1.0959   -1.5989    0.0000 N   0  0  0  0  0  0  0  0  0  0  0  0
    1.5611   -3.0250    0.0000 H   0  0  0  0  0  0  0  0  0  0  0  0
   -0.3341   -1.1389    0.0000 C   0  0  0  0  0  0  0  0  0  0  0  0
   -0.3341    0.3611    0.0000 C   0  0  0  0  0  0  0  0  0  0  0  0
   -1.6341    1.1111    0.0000 C   0  0  0  0  0  0  0  0  0  0  0  0
   -1.6341    2.6111    0.0000 H   0  0  0  0  0  0  0  0  0  0  0  0
   -2.9341    0.3611    0.0000 C   0  0  0  0  0  0  0  0  0  0  0  0
   -4.2331    1.1113    0.0000 H   0  0  0  0  0  0  0  0  0  0  0  0
   -2.9341   -1.1389    0.0000 C   0  0  0  0  0  0  0  0  0  0  0  0
   -4.2331   -1.8891    0.0000 H   0  0  0  0  0  0  0  0  0  0  0  0
   -1.6341   -1.8889    0.0000 C   0  0  0  0  0  0  0  0  0  0  0  0
   -1.6341   -3.3889    0.0000 H   0  0  0  0  0  0  0  0  0  0  0  0
    5.1380    2.7355    0.0000 C   0  0  0  0  0  0  0  0  0  0  0  0
    6.5295    3.2957    0.0000 O   0  0  0  0  0  0  0  0  0  0  0  0
    5.6982    1.3440    0.0000 N   0  0  0  0  0  0  0  0  0  0  0  0
    7.1834    1.1334    0.0000 H   0  0  0  0  0  0  0  0  0  0  0  0
    4.7733    0.1631    0.0000 H   0  0  0  0  0  0  0  0  0  0  0  0
  1  2  1  0  0  0  0 
  1  3  1  0  0  0  0 
  1  4  1  0  0  0  0 
  1  5  1  0  0  0  0 
  5  6  1  0  0  0  0 
  6  7  2  0  0  0  0 
  7  8  1  0  0  0  0 
  7  9  1  0  0  0  0 
  9 10  1  0  0  0  0 
  9 11  2  0  0  0  0 
 11 12  1  0  0  0  0 
 12 13  1  0  0  0  0 
 12 14  2  0  0  0  0 
  6 14  1  0  0  0  0 
 14 15  1  0  0  0  0 
 11 16  1  0  0  0  0 
 16 17  2  0  0  0  0 
 16 18  2  0  0  0  0 
 16 19  1  0  0  0  0 
 19 20  1  0  0  0  0 
 19 21  1  0  0  0  0 
 21 22  1  0  0  0  0 
 21 23  1  0  0  0  0 
 23 24  1  0  0  0  0 
 23 25  1  0  0  0  0 
 23 26  1  0  0  0  0 
 26 27  2  0  0  0  0 
 27 28  1  0  0  0  0 
 28 29  1  0  0  0  0 
 28 30  2  0  0  0  0 
 27 31  1  0  0  0  0 
 31 32  1  0  0  0  0 
 31 33  1  0  0  0  0 
 33 34  2  0  0  0  0 
 26 34  1  0  0  0  0 
 34 35  1  0  0  0  0 
 35 36  1  0  0  0  0 
 35 37  2  0  0  0  0 
 37 38  1  0  0  0  0 
 37 39  1  0  0  0  0 
 39 40  1  0  0  0  0 
 39 41  2  0  0  0  0 
 33 41  1  0  0  0  0 
 41 42  1  0  0  0  0 
 21 43  1  0  0  0  0 
 43 44  2  0  0  0  0 
 43 45  1  0  0  0  0 
 45 46  1  0  0  0  0 
 45 47  1  0  0  0  0 
M  END
> <Rank>
9

> <Priority_score>
0.20981044776982236

> <Reaction_type>
N-dealkylation

> <Parent_ID>
47

> <Parent_InChI>
InChI=1S/C19H19N3O4S/c1-26-12-6-8-13(9-7-12)27(24,25)22-11-17-15(10-18(22)19(20)23)14-4-2-3-5-16(14)21-17/h2-9,18,21H,10-11H2,1H3,(H2,20,23)

> <Parent_SMILES>
COc1ccc(S(=O)(=O)N2Cc3[nH]c4ccccc4c3CC2C(N)=O)cc1

$$$$
Molecule 47_metabolite 10
  CDK     0516241031

 47 50  0  0  0  0  0  0  0  0999 V2000
   10.5744    3.3117    0.0000 C   0  0  0  0  0  0  0  0  0  0  0  0
   11.5673    4.4360    0.0000 H   0  0  0  0  0  0  0  0  0  0  0  0
   10.0258    1.9156    0.0000 H   0  0  0  0  0  0  0  0  0  0  0  0
   11.8540    2.5290    0.0000 H   0  0  0  0  0  0  0  0  0  0  0  0
    9.1042    3.6095    0.0000 O   0  0  0  0  0  0  0  0  0  0  0  0
    8.1113    2.4852    0.0000 C   0  0  0  0  0  0  0  0  0  0  0  0
    6.6404    2.7836    0.0000 C   0  0  0  0  0  0  0  0  0  0  0  0
    6.1635    4.2057    0.0000 H   0  0  0  0  0  0  0  0  0  0  0  0
    5.6475    1.6593    0.0000 C   0  0  0  0  0  0  0  0  0  0  0  0
    4.1773    1.9568    0.0000 H   0  0  0  0  0  0  0  0  0  0  0  0
    6.1254    0.2366    0.0000 C   0  0  0  0  0  0  0  0  0  0  0  0
    7.5962   -0.0618    0.0000 C   0  0  0  0  0  0  0  0  0  0  0  0
    8.0732   -1.4840    0.0000 H   0  0  0  0  0  0  0  0  0  0  0  0
    8.5892    1.0625    0.0000 C   0  0  0  0  0  0  0  0  0  0  0  0
   10.0594    0.7649    0.0000 H   0  0  0  0  0  0  0  0  0  0  0  0
    5.1324   -0.8877    0.0000 S   0  0  0  0  0  0  0  0  0  0  0  0
    4.5839   -2.2838    0.0000 O   0  0  0  0  0  0  0  0  0  0  0  0
    6.4121   -1.6704    0.0000 O   0  0  0  0  0  0  0  0  0  0  0  0
    3.1918   -0.4946    0.0000 N   0  0  0  0  0  0  0  0  0  0  0  0
    2.7418    0.9154    0.0000 C   0  0  0  0  0  0  0  0  0  0  0  0
    4.2258    1.1342    0.0000 H   0  0  0  0  0  0  0  0  0  0  0  0
    1.3018    1.1754    0.0000 C   0  0  0  0  0  0  0  0  0  0  0  0
    1.8551    2.5696    0.0000 H   0  0  0  0  0  0  0  0  0  0  0  0
    0.0446    1.9936    0.0000 H   0  0  0  0  0  0  0  0  0  0  0  0
    0.2318    0.0854    0.0000 C   0  0  0  0  0  0  0  0  0  0  0  0
    0.7918   -1.3346    0.0000 C   0  0  0  0  0  0  0  0  0  0  0  0
    2.2318   -1.6146    0.0000 C   0  0  0  0  0  0  0  0  0  0  0  0
    1.6975   -3.0162    0.0000 H   0  0  0  0  0  0  0  0  0  0  0  0
    3.5211   -2.3813    0.0000 O   0  0  0  0  0  0  0  0  0  0  0  0
    3.5019   -3.8811    0.0000 H   0  0  0  0  0  0  0  0  0  0  0  0
   -0.4782   -2.1946    0.0000 N   0  0  0  0  0  0  0  0  0  0  0  0
   -0.4859   -3.6946    0.0000 H   0  0  0  0  0  0  0  0  0  0  0  0
   -1.6482   -1.3846    0.0000 C   0  0  0  0  0  0  0  0  0  0  0  0
   -1.1882    0.0854    0.0000 C   0  0  0  0  0  0  0  0  0  0  0  0
   -2.2782    1.2054    0.0000 C   0  0  0  0  0  0  0  0  0  0  0  0
   -1.8516    2.6434    0.0000 H   0  0  0  0  0  0  0  0  0  0  0  0
   -3.7382    0.8754    0.0000 C   0  0  0  0  0  0  0  0  0  0  0  0
   -4.7585    1.9749    0.0000 H   0  0  0  0  0  0  0  0  0  0  0  0
   -4.1882   -0.5946    0.0000 C   0  0  0  0  0  0  0  0  0  0  0  0
   -5.6534   -0.9160    0.0000 H   0  0  0  0  0  0  0  0  0  0  0  0
   -3.1882   -1.7146    0.0000 C   0  0  0  0  0  0  0  0  0  0  0  0
   -3.6535   -3.1406    0.0000 H   0  0  0  0  0  0  0  0  0  0  0  0
    2.7737    2.8951    0.0000 C   0  0  0  0  0  0  0  0  0  0  0  0
    4.0847    3.6241    0.0000 O   0  0  0  0  0  0  0  0  0  0  0  0
    1.4869    3.6659    0.0000 N   0  0  0  0  0  0  0  0  0  0  0  0
    1.5111    5.1657    0.0000 H   0  0  0  0  0  0  0  0  0  0  0  0
   -0.0129    3.6901    0.0000 H   0  0  0  0  0  0  0  0  0  0  0  0
  1  2  1  0  0  0  0 
  1  3  1  0  0  0  0 
  1  4  1  0  0  0  0 
  1  5  1  0  0  0  0 
  5  6  1  0  0  0  0 
  6  7  2  0  0  0  0 
  7  8  1  0  0  0  0 
  7  9  1  0  0  0  0 
  9 10  1  0  0  0  0 
  9 11  2  0  0  0  0 
 11 12  1  0  0  0  0 
 12 13  1  0  0  0  0 
 12 14  2  0  0  0  0 
  6 14  1  0  0  0  0 
 14 15  1  0  0  0  0 
 11 16  1  0  0  0  0 
 16 17  2  0  0  0  0 
 16 18  2  0  0  0  0 
 16 19  1  0  0  0  0 
 19 20  1  0  0  0  0 
 20 21  1  0  0  0  0 
 20 22  1  0  0  0  0 
 22 23  1  0  0  0  0 
 22 24  1  0  0  0  0 
 22 25  1  0  0  0  0 
 25 26  2  0  0  0  0 
 26 27  1  0  0  0  0 
 19 27  1  0  0  0  0 
 27 28  1  0  0  0  0 
 27 29  1  0  0  0  0 
 29 30  1  0  0  0  0 
 26 31  1  0  0  0  0 
 31 32  1  0  0  0  0 
 31 33  1  0  0  0  0 
 33 34  2  0  0  0  0 
 25 34  1  0  0  0  0 
 34 35  1  0  0  0  0 
 35 36  1  0  0  0  0 
 35 37  2  0  0  0  0 
 37 38  1  0  0  0  0 
 37 39  1  0  0  0  0 
 39 40  1  0  0  0  0 
 39 41  2  0  0  0  0 
 33 41  1  0  0  0  0 
 41 42  1  0  0  0  0 
 20 43  1  0  0  0  0 
 43 44  2  0  0  0  0 
 43 45  1  0  0  0  0 
 45 46  1  0  0  0  0 
 45 47  1  0  0  0  0 
M  END
> <Rank>
9

> <Priority_score>
0.20981044776982236

> <Reaction_type>
benzylic_hydroxylation_(c-CH2-N)

> <Parent_ID>
47

> <Parent_InChI>
InChI=1S/C19H19N3O4S/c1-26-12-6-8-13(9-7-12)27(24,25)22-11-17-15(10-18(22)19(20)23)14-4-2-3-5-16(14)21-17/h2-9,18,21H,10-11H2,1H3,(H2,20,23)

> <Parent_SMILES>
COc1ccc(S(=O)(=O)N2Cc3[nH]c4ccccc4c3CC2C(N)=O)cc1

$$$$
Molecule 47_metabolite 11
  CDK     0516241031

 47 50  0  0  0  0  0  0  0  0999 V2000
   10.4125   -1.0962    0.0000 C   0  0  0  0  0  0  0  0  0  0  0  0
   11.8947   -0.8659    0.0000 H   0  0  0  0  0  0  0  0  0  0  0  0
    9.0984   -1.8196    0.0000 H   0  0  0  0  0  0  0  0  0  0  0  0
   10.8967   -2.5159    0.0000 H   0  0  0  0  0  0  0  0  0  0  0  0
    9.4719    0.0722    0.0000 O   0  0  0  0  0  0  0  0  0  0  0  0
    7.9897   -0.1581    0.0000 C   0  0  0  0  0  0  0  0  0  0  0  0
    7.0490    1.0113    0.0000 C   0  0  0  0  0  0  0  0  0  0  0  0
    7.5908    2.4101    0.0000 H   0  0  0  0  0  0  0  0  0  0  0  0
    5.5667    0.7810    0.0000 C   0  0  0  0  0  0  0  0  0  0  0  0
    4.6260    1.9493    0.0000 H   0  0  0  0  0  0  0  0  0  0  0  0
    5.0252   -0.6187    0.0000 C   0  0  0  0  0  0  0  0  0  0  0  0
    5.9660   -1.7881    0.0000 C   0  0  0  0  0  0  0  0  0  0  0  0
    5.4241   -3.1868    0.0000 H   0  0  0  0  0  0  0  0  0  0  0  0
    7.4482   -1.5578    0.0000 C   0  0  0  0  0  0  0  0  0  0  0  0
    8.3889   -2.7261    0.0000 H   0  0  0  0  0  0  0  0  0  0  0  0
    3.5430   -0.8490    0.0000 S   0  0  0  0  0  0  0  0  0  0  0  0
    2.2290   -1.5724    0.0000 O   0  0  0  0  0  0  0  0  0  0  0  0
    4.0272   -2.2687    0.0000 O   0  0  0  0  0  0  0  0  0  0  0  0
    2.0005    1.0673    0.0000 N   0  0  0  0  0  0  0  0  0  0  0  0
    1.0405   -0.0527    0.0000 C   0  0  0  0  0  0  0  0  0  0  0  0
    0.5061   -1.4543    0.0000 H   0  0  0  0  0  0  0  0  0  0  0  0
    2.4777   -2.6175    0.0000 H   0  0  0  0  0  0  0  0  0  0  0  0
   -0.3995    0.2273    0.0000 C   0  0  0  0  0  0  0  0  0  0  0  0
   -0.9595    1.6473    0.0000 C   0  0  0  0  0  0  0  0  0  0  0  0
    0.1105    2.7373    0.0000 C   0  0  0  0  0  0  0  0  0  0  0  0
    0.6638    4.1315    0.0000 H   0  0  0  0  0  0  0  0  0  0  0  0
   -1.1467    3.5555    0.0000 H   0  0  0  0  0  0  0  0  0  0  0  0
    1.5505    2.4773    0.0000 C   0  0  0  0  0  0  0  0  0  0  0  0
    3.0345    2.6961    0.0000 H   0  0  0  0  0  0  0  0  0  0  0  0
    1.5824    4.4570    0.0000 C   0  0  0  0  0  0  0  0  0  0  0  0
    0.2956    5.2278    0.0000 O   0  0  0  0  0  0  0  0  0  0  0  0
    2.8934    5.1860    0.0000 N   0  0  0  0  0  0  0  0  0  0  0  0
    2.9175    6.6858    0.0000 H   0  0  0  0  0  0  0  0  0  0  0  0
    4.1801    4.4151    0.0000 H   0  0  0  0  0  0  0  0  0  0  0  0
   -2.3795    1.6473    0.0000 C   0  0  0  0  0  0  0  0  0  0  0  0
   -2.8395    0.1773    0.0000 C   0  0  0  0  0  0  0  0  0  0  0  0
   -4.3795   -0.1527    0.0000 C   0  0  0  0  0  0  0  0  0  0  0  0
   -4.8448   -1.5787    0.0000 H   0  0  0  0  0  0  0  0  0  0  0  0
   -5.3795    0.9673    0.0000 C   0  0  0  0  0  0  0  0  0  0  0  0
   -6.8447    0.6459    0.0000 H   0  0  0  0  0  0  0  0  0  0  0  0
   -4.9295    2.4373    0.0000 C   0  0  0  0  0  0  0  0  0  0  0  0
   -5.9498    3.5368    0.0000 H   0  0  0  0  0  0  0  0  0  0  0  0
   -3.4695    2.7673    0.0000 C   0  0  0  0  0  0  0  0  0  0  0  0
   -3.0430    4.2053    0.0000 H   0  0  0  0  0  0  0  0  0  0  0  0
   -1.6695   -0.6327    0.0000 N   0  0  0  0  0  0  0  0  0  0  0  0
   -1.6772   -2.1327    0.0000 H   0  0  0  0  0  0  0  0  0  0  0  0
    3.3216    1.7776    0.0000 O   0  0  0  0  0  0  0  0  0  0  0  0
  1  2  1  0  0  0  0 
  1  3  1  0  0  0  0 
  1  4  1  0  0  0  0 
  1  5  1  0  0  0  0 
  5  6  1  0  0  0  0 
  6  7  2  0  0  0  0 
  7  8  1  0  0  0  0 
  7  9  1  0  0  0  0 
  9 10  1  0  0  0  0 
  9 11  2  0  0  0  0 
 11 12  1  0  0  0  0 
 12 13  1  0  0  0  0 
 12 14  2  0  0  0  0 
  6 14  1  0  0  0  0 
 14 15  1  0  0  0  0 
 11 16  1  0  0  0  0 
 16 17  2  0  0  0  0 
 16 18  2  0  0  0  0 
 16 19  1  0  0  0  0 
 19 20  1  0  0  0  0 
 20 21  1  0  0  0  0 
 20 22  1  0  0  0  0 
 20 23  1  0  0  0  0 
 23 24  2  0  0  0  0 
 24 25  1  0  0  0  0 
 25 26  1  0  0  0  0 
 25 27  1  0  0  0  0 
 25 28  1  0  0  0  0 
 19 28  1  0  0  0  0 
 28 29  1  0  0  0  0 
 28 30  1  0  0  0  0 
 30 31  2  0  0  0  0 
 30 32  1  0  0  0  0 
 32 33  1  0  0  0  0 
 32 34  1  0  0  0  0 
 24 35  1  0  0  0  0 
 35 36  2  0  0  0  0 
 36 37  1  0  0  0  0 
 37 38  1  0  0  0  0 
 37 39  2  0  0  0  0 
 39 40  1  0  0  0  0 
 39 41  1  0  0  0  0 
 41 42  1  0  0  0  0 
 41 43  2  0  0  0  0 
 35 43  1  0  0  0  0 
 43 44  1  0  0  0  0 
 36 45  1  0  0  0  0 
 23 45  1  0  0  0  0 
 45 46  1  0  0  0  0 
 19 47  1  0  0  0  0 
M  CHG  1  19   1
M  CHG  1  47  -1
M  END
> <Rank>
9

> <Priority_score>
0.20981044776982236

> <Reaction_type>
N-oxidation

> <Parent_ID>
47

> <Parent_InChI>
InChI=1S/C19H19N3O4S/c1-26-12-6-8-13(9-7-12)27(24,25)22-11-17-15(10-18(22)19(20)23)14-4-2-3-5-16(14)21-17/h2-9,18,21H,10-11H2,1H3,(H2,20,23)

> <Parent_SMILES>
COc1ccc(S(=O)(=O)N2Cc3[nH]c4ccccc4c3CC2C(N)=O)cc1

$$$$
Molecule 47_metabolite 12
  CDK     0516241031

 66 70  0  0  0  0  0  0  0  0999 V2000
    8.5113   -6.8738    0.0000 C   0  0  0  0  0  0  0  0  0  0  0  0
    8.9885   -8.2959    0.0000 H   0  0  0  0  0  0  0  0  0  0  0  0
    8.5493   -5.3743    0.0000 H   0  0  0  0  0  0  0  0  0  0  0  0
    9.9946   -6.6508    0.0000 H   0  0  0  0  0  0  0  0  0  0  0  0
    7.0412   -6.5760    0.0000 O   0  0  0  0  0  0  0  0  0  0  0  0
    6.5640   -5.1539    0.0000 C   0  0  0  0  0  0  0  0  0  0  0  0
    5.0929   -4.8565    0.0000 C   0  0  0  0  0  0  0  0  0  0  0  0
    4.1001   -5.9809    0.0000 H   0  0  0  0  0  0  0  0  0  0  0  0
    4.6157   -3.4344    0.0000 C   0  0  0  0  0  0  0  0  0  0  0  0
    3.1456   -3.1364    0.0000 H   0  0  0  0  0  0  0  0  0  0  0  0
    5.6096   -2.3098    0.0000 C   0  0  0  0  0  0  0  0  0  0  0  0
    7.0807   -2.6073    0.0000 C   0  0  0  0  0  0  0  0  0  0  0  0
    8.0734   -1.4828    0.0000 H   0  0  0  0  0  0  0  0  0  0  0  0
    7.5578   -4.0293    0.0000 C   0  0  0  0  0  0  0  0  0  0  0  0
    9.0279   -4.3274    0.0000 H   0  0  0  0  0  0  0  0  0  0  0  0
    5.1324   -0.8877    0.0000 S   0  0  0  0  0  0  0  0  0  0  0  0
    5.1704    0.6118    0.0000 O   0  0  0  0  0  0  0  0  0  0  0  0
    6.6157   -0.6647    0.0000 O   0  0  0  0  0  0  0  0  0  0  0  0
    3.1918   -0.4946    0.0000 N   0  0  0  0  0  0  0  0  0  0  0  0
    2.2318   -1.6146    0.0000 C   0  0  0  0  0  0  0  0  0  0  0  0
    1.6975   -3.0162    0.0000 H   0  0  0  0  0  0  0  0  0  0  0  0
    3.5211   -2.3813    0.0000 H   0  0  0  0  0  0  0  0  0  0  0  0
    0.7918   -1.3346    0.0000 C   0  0  0  0  0  0  0  0  0  0  0  0
    0.2318    0.0854    0.0000 C   0  0  0  0  0  0  0  0  0  0  0  0
    1.3018    1.1754    0.0000 C   0  0  0  0  0  0  0  0  0  0  0  0
    1.8551    2.5696    0.0000 H   0  0  0  0  0  0  0  0  0  0  0  0
    0.0446    1.9936    0.0000 H   0  0  0  0  0  0  0  0  0  0  0  0
    2.7418    0.9154    0.0000 C   0  0  0  0  0  0  0  0  0  0  0  0
    4.2258    1.1342    0.0000 H   0  0  0  0  0  0  0  0  0  0  0  0
    2.7737    2.8951    0.0000 C   0  0  0  0  0  0  0  0  0  0  0  0
    1.4869    3.6659    0.0000 O   0  0  0  0  0  0  0  0  0  0  0  0
    4.0847    3.6241    0.0000 N   0  0  0  0  0  0  0  0  0  0  0  0
    5.3715    2.8532    0.0000 H   0  0  0  0  0  0  0  0  0  0  0  0
    4.1088    5.1239    0.0000 C   0  0  0  0  0  0  0  0  0  0  0  0
    2.6276    4.8874    0.0000 H   0  0  0  0  0  0  0  0  0  0  0  0
    3.6189    6.5416    0.0000 C   0  0  0  0  0  0  0  0  0  0  0  0
    2.3077    5.8130    0.0000 H   0  0  0  0  0  0  0  0  0  0  0  0
    4.6026    7.6751    0.0000 C   0  0  0  0  0  0  0  0  0  0  0  0
    3.3161    8.4463    0.0000 H   0  0  0  0  0  0  0  0  0  0  0  0
    6.0763    7.3909    0.0000 C   0  0  0  0  0  0  0  0  0  0  0  0
    6.1004    8.8907    0.0000 H   0  0  0  0  0  0  0  0  0  0  0  0
    6.5662    5.9731    0.0000 C   0  0  0  0  0  0  0  0  0  0  0  0
    7.8774    6.7017    0.0000 H   0  0  0  0  0  0  0  0  0  0  0  0
    7.5113    4.8083    0.0000 C   0  0  0  0  0  0  0  0  0  0  0  0
    6.9750    3.4074    0.0000 O   0  0  0  0  0  0  0  0  0  0  0  0
    8.9926    5.0443    0.0000 O   0  0  0  0  0  0  0  0  0  0  0  0
    9.5289    6.4451    0.0000 H   0  0  0  0  0  0  0  0  0  0  0  0
    5.5825    4.8396    0.0000 O   0  0  0  0  0  0  0  0  0  0  0  0
    7.5575    7.6273    0.0000 O   0  0  0  0  0  0  0  0  0  0  0  0
    8.0933    9.0284    0.0000 H   0  0  0  0  0  0  0  0  0  0  0  0
    5.1384    9.0761    0.0000 O   0  0  0  0  0  0  0  0  0  0  0  0
    4.1930   10.2407    0.0000 H   0  0  0  0  0  0  0  0  0  0  0  0
    2.6738    7.7065    0.0000 O   0  0  0  0  0  0  0  0  0  0  0  0
    1.1925    7.4704    0.0000 H   0  0  0  0  0  0  0  0  0  0  0  0
   -1.1882    0.0854    0.0000 C   0  0  0  0  0  0  0  0  0  0  0  0
   -1.6482   -1.3846    0.0000 C   0  0  0  0  0  0  0  0  0  0  0  0
   -3.1882   -1.7146    0.0000 C   0  0  0  0  0  0  0  0  0  0  0  0
   -3.6535   -3.1406    0.0000 H   0  0  0  0  0  0  0  0  0  0  0  0
   -4.1882   -0.5946    0.0000 C   0  0  0  0  0  0  0  0  0  0  0  0
   -5.6534   -0.9160    0.0000 H   0  0  0  0  0  0  0  0  0  0  0  0
   -3.7382    0.8754    0.0000 C   0  0  0  0  0  0  0  0  0  0  0  0
   -4.7585    1.9749    0.0000 H   0  0  0  0  0  0  0  0  0  0  0  0
   -2.2782    1.2054    0.0000 C   0  0  0  0  0  0  0  0  0  0  0  0
   -1.8516    2.6434    0.0000 H   0  0  0  0  0  0  0  0  0  0  0  0
   -0.4782   -2.1946    0.0000 N   0  0  0  0  0  0  0  0  0  0  0  0
   -0.4859   -3.6946    0.0000 H   0  0  0  0  0  0  0  0  0  0  0  0
  1  2  1  0  0  0  0 
  1  3  1  0  0  0  0 
  1  4  1  0  0  0  0 
  1  5  1  0  0  0  0 
  5  6  1  0  0  0  0 
  6  7  2  0  0  0  0 
  7  8  1  0  0  0  0 
  7  9  1  0  0  0  0 
  9 10  1  0  0  0  0 
  9 11  2  0  0  0  0 
 11 12  1  0  0  0  0 
 12 13  1  0  0  0  0 
 12 14  2  0  0  0  0 
  6 14  1  0  0  0  0 
 14 15  1  0  0  0  0 
 11 16  1  0  0  0  0 
 16 17  2  0  0  0  0 
 16 18  2  0  0  0  0 
 16 19  1  0  0  0  0 
 19 20  1  0  0  0  0 
 20 21  1  0  0  0  0 
 20 22  1  0  0  0  0 
 20 23  1  0  0  0  0 
 23 24  2  0  0  0  0 
 24 25  1  0  0  0  0 
 25 26  1  0  0  0  0 
 25 27  1  0  0  0  0 
 25 28  1  0  0  0  0 
 19 28  1  0  0  0  0 
 28 29  1  0  0  0  0 
 28 30  1  0  0  0  0 
 30 31  2  0  0  0  0 
 30 32  1  0  0  0  0 
 32 33  1  0  0  0  0 
 32 34  1  0  0  0  0 
 34 35  1  0  0  0  0 
 34 36  1  0  0  0  0 
 36 37  1  0  0  0  0 
 36 38  1  0  0  0  0 
 38 39  1  0  0  0  0 
 38 40  1  0  0  0  0 
 40 41  1  0  0  0  0 
 40 42  1  0  0  0  0 
 42 43  1  0  0  0  0 
 42 44  1  0  0  0  0 
 44 45  2  0  0  0  0 
 44 46  1  0  0  0  0 
 46 47  1  0  0  0  0 
 42 48  1  0  0  0  0 
 34 48  1  0  0  0  0 
 40 49  1  0  0  0  0 
 49 50  1  0  0  0  0 
 38 51  1  0  0  0  0 
 51 52  1  0  0  0  0 
 36 53  1  0  0  0  0 
 53 54  1  0  0  0  0 
 24 55  1  0  0  0  0 
 55 56  2  0  0  0  0 
 56 57  1  0  0  0  0 
 57 58  1  0  0  0  0 
 57 59  2  0  0  0  0 
 59 60  1  0  0  0  0 
 59 61  1  0  0  0  0 
 61 62  1  0  0  0  0 
 61 63  2  0  0  0  0 
 55 63  1  0  0  0  0 
 63 64  1  0  0  0  0 
 56 65  1  0  0  0  0 
 23 65  1  0  0  0  0 
 65 66  1  0  0  0  0 
M  END
> <Rank>
12

> <Priority_score>
0.168

> <Reaction_type>
N-glucuronidation_(aliphatic_NH2)

> <Parent_ID>
47

> <Parent_InChI>
InChI=1S/C19H19N3O4S/c1-26-12-6-8-13(9-7-12)27(24,25)22-11-17-15(10-18(22)19(20)23)14-4-2-3-5-16(14)21-17/h2-9,18,21H,10-11H2,1H3,(H2,20,23)

> <Parent_SMILES>
COc1ccc(S(=O)(=O)N2Cc3[nH]c4ccccc4c3CC2C(N)=O)cc1

$$$$
Molecule 47_metabolite 13
  CDK     0516241031

 47 50  0  0  0  0  0  0  0  0999 V2000
    8.5113   -6.8738    0.0000 C   0  0  0  0  0  0  0  0  0  0  0  0
    8.9885   -8.2959    0.0000 H   0  0  0  0  0  0  0  0  0  0  0  0
    8.5493   -5.3743    0.0000 H   0  0  0  0  0  0  0  0  0  0  0  0
    9.9946   -6.6508    0.0000 H   0  0  0  0  0  0  0  0  0  0  0  0
    7.0412   -6.5760    0.0000 O   0  0  0  0  0  0  0  0  0  0  0  0
    6.5640   -5.1539    0.0000 C   0  0  0  0  0  0  0  0  0  0  0  0
    5.0929   -4.8565    0.0000 C   0  0  0  0  0  0  0  0  0  0  0  0
    4.1001   -5.9809    0.0000 H   0  0  0  0  0  0  0  0  0  0  0  0
    4.6157   -3.4344    0.0000 C   0  0  0  0  0  0  0  0  0  0  0  0
    3.1456   -3.1364    0.0000 H   0  0  0  0  0  0  0  0  0  0  0  0
    5.6096   -2.3098    0.0000 C   0  0  0  0  0  0  0  0  0  0  0  0
    7.0807   -2.6073    0.0000 C   0  0  0  0  0  0  0  0  0  0  0  0
    8.0734   -1.4828    0.0000 H   0  0  0  0  0  0  0  0  0  0  0  0
    7.5578   -4.0293    0.0000 C   0  0  0  0  0  0  0  0  0  0  0  0
    9.0279   -4.3274    0.0000 H   0  0  0  0  0  0  0  0  0  0  0  0
    5.1324   -0.8877    0.0000 S   0  0  0  0  0  0  0  0  0  0  0  0
    5.1704    0.6118    0.0000 O   0  0  0  0  0  0  0  0  0  0  0  0
    6.6157   -0.6647    0.0000 O   0  0  0  0  0  0  0  0  0  0  0  0
    3.1918   -0.4946    0.0000 N   0  0  0  0  0  0  0  0  0  0  0  0
    2.2318   -1.6146    0.0000 C   0  0  0  0  0  0  0  0  0  0  0  0
    1.6975   -3.0162    0.0000 H   0  0  0  0  0  0  0  0  0  0  0  0
    3.5211   -2.3813    0.0000 H   0  0  0  0  0  0  0  0  0  0  0  0
    0.7918   -1.3346    0.0000 C   0  0  0  0  0  0  0  0  0  0  0  0
    0.2318    0.0854    0.0000 C   0  0  0  0  0  0  0  0  0  0  0  0
   -1.1882    0.0854    0.0000 C   0  0  0  0  0  0  0  0  0  0  0  0
   -1.6482   -1.3846    0.0000 C   0  0  0  0  0  0  0  0  0  0  0  0
   -3.1882   -1.7146    0.0000 C   0  0  0  0  0  0  0  0  0  0  0  0
   -3.6535   -3.1406    0.0000 H   0  0  0  0  0  0  0  0  0  0  0  0
   -4.1882   -0.5946    0.0000 C   0  0  0  0  0  0  0  0  0  0  0  0
   -5.6534   -0.9160    0.0000 H   0  0  0  0  0  0  0  0  0  0  0  0
   -3.7382    0.8754    0.0000 C   0  0  0  0  0  0  0  0  0  0  0  0
   -4.7585    1.9749    0.0000 H   0  0  0  0  0  0  0  0  0  0  0  0
   -2.2782    1.2054    0.0000 C   0  0  0  0  0  0  0  0  0  0  0  0
   -1.8516    2.6434    0.0000 H   0  0  0  0  0  0  0  0  0  0  0  0
   -0.4782   -2.1946    0.0000 N   0  0  0  0  0  0  0  0  0  0  0  0
   -0.4859   -3.6946    0.0000 H   0  0  0  0  0  0  0  0  0  0  0  0
    1.3018    1.1754    0.0000 C   0  0  0  0  0  0  0  0  0  0  0  0
    1.8551    2.5696    0.0000 H   0  0  0  0  0  0  0  0  0  0  0  0
    2.7418    0.9154    0.0000 C   0  0  0  0  0  0  0  0  0  0  0  0
    4.2258    1.1342    0.0000 H   0  0  0  0  0  0  0  0  0  0  0  0
    2.7737    2.8951    0.0000 C   0  0  0  0  0  0  0  0  0  0  0  0
    1.4869    3.6659    0.0000 O   0  0  0  0  0  0  0  0  0  0  0  0
    4.0847    3.6241    0.0000 N   0  0  0  0  0  0  0  0  0  0  0  0
    4.1088    5.1239    0.0000 H   0  0  0  0  0  0  0  0  0  0  0  0
    5.3715    2.8532    0.0000 H   0  0  0  0  0  0  0  0  0  0  0  0
    0.0446    1.9936    0.0000 O   0  0  0  0  0  0  0  0  0  0  0  0
   -1.2926    1.3139    0.0000 H   0  0  0  0  0  0  0  0  0  0  0  0
  1  2  1  0  0  0  0 
  1  3  1  0  0  0  0 
  1  4  1  0  0  0  0 
  1  5  1  0  0  0  0 
  5  6  1  0  0  0  0 
  6  7  2  0  0  0  0 
  7  8  1  0  0  0  0 
  7  9  1  0  0  0  0 
  9 10  1  0  0  0  0 
  9 11  2  0  0  0  0 
 11 12  1  0  0  0  0 
 12 13  1  0  0  0  0 
 12 14  2  0  0  0  0 
  6 14  1  0  0  0  0 
 14 15  1  0  0  0  0 
 11 16  1  0  0  0  0 
 16 17  2  0  0  0  0 
 16 18  2  0  0  0  0 
 16 19  1  0  0  0  0 
 19 20  1  0  0  0  0 
 20 21  1  0  0  0  0 
 20 22  1  0  0  0  0 
 20 23  1  0  0  0  0 
 23 24  2  0  0  0  0 
 24 25  1  0  0  0  0 
 25 26  2  0  0  0  0 
 26 27  1  0  0  0  0 
 27 28  1  0  0  0  0 
 27 29  2  0  0  0  0 
 29 30  1  0  0  0  0 
 29 31  1  0  0  0  0 
 31 32  1  0  0  0  0 
 31 33  2  0  0  0  0 
 25 33  1  0  0  0  0 
 33 34  1  0  0  0  0 
 26 35  1  0  0  0  0 
 23 35  1  0  0  0  0 
 35 36  1  0  0  0  0 
 24 37  1  0  0  0  0 
 37 38  1  0  0  0  0 
 37 39  1  0  0  0  0 
 19 39  1  0  0  0  0 
 39 40  1  0  0  0  0 
 39 41  1  0  0  0  0 
 41 42  2  0  0  0  0 
 41 43  1  0  0  0  0 
 43 44  1  0  0  0  0 
 43 45  1  0  0  0  0 
 37 46  1  0  0  0  0 
 46 47  1  0  0  0  0 
M  END
> <Rank>
13

> <Priority_score>
0.16355763604447046

> <Reaction_type>
benzylic_hydroxylation_(c-CH2-CR)

> <Parent_ID>
47

> <Parent_InChI>
InChI=1S/C19H19N3O4S/c1-26-12-6-8-13(9-7-12)27(24,25)22-11-17-15(10-18(22)19(20)23)14-4-2-3-5-16(14)21-17/h2-9,18,21H,10-11H2,1H3,(H2,20,23)

> <Parent_SMILES>
COc1ccc(S(=O)(=O)N2Cc3[nH]c4ccccc4c3CC2C(N)=O)cc1

$$$$
Molecule 47_metabolite 14
  CDK     0516241031

 47 49  0  0  0  0  0  0  0  0999 V2000
   10.8500    6.4952    0.0000 C   0  0  0  0  0  0  0  0  0  0  0  0
   11.6000    7.7942    0.0000 H   0  0  0  0  0  0  0  0  0  0  0  0
   10.5895    5.0180    0.0000 H   0  0  0  0  0  0  0  0  0  0  0  0
   12.2595    5.9822    0.0000 H   0  0  0  0  0  0  0  0  0  0  0  0
    9.3500    6.4952    0.0000 O   0  0  0  0  0  0  0  0  0  0  0  0
    8.6000    5.1962    0.0000 C   0  0  0  0  0  0  0  0  0  0  0  0
    7.0992    5.1966    0.0000 C   0  0  0  0  0  0  0  0  0  0  0  0
    6.3494    6.4958    0.0000 H   0  0  0  0  0  0  0  0  0  0  0  0
    6.3492    3.8976    0.0000 C   0  0  0  0  0  0  0  0  0  0  0  0
    4.8492    3.8974    0.0000 H   0  0  0  0  0  0  0  0  0  0  0  0
    7.1000    2.5981    0.0000 C   0  0  0  0  0  0  0  0  0  0  0  0
    8.6008    2.5976    0.0000 C   0  0  0  0  0  0  0  0  0  0  0  0
    9.3506    1.2984    0.0000 H   0  0  0  0  0  0  0  0  0  0  0  0
    9.3508    3.8966    0.0000 C   0  0  0  0  0  0  0  0  0  0  0  0
   10.8508    3.8969    0.0000 H   0  0  0  0  0  0  0  0  0  0  0  0
    6.3500    1.2990    0.0000 S   0  0  0  0  0  0  0  0  0  0  0  0
    6.0895   -0.1782    0.0000 O   0  0  0  0  0  0  0  0  0  0  0  0
    7.7595    0.7860    0.0000 O   0  0  0  0  0  0  0  0  0  0  0  0
    4.8500    1.2990    0.0000 N   0  0  0  0  0  0  0  0  0  0  0  0
    4.1000    2.5981    0.0000 H   0  0  0  0  0  0  0  0  0  0  0  0
    3.8600   -0.4157    0.0000 C   0  0  0  0  0  0  0  0  0  0  0  0
    3.5995   -1.8929    0.0000 H   0  0  0  0  0  0  0  0  0  0  0  0
    5.2695   -0.9287    0.0000 H   0  0  0  0  0  0  0  0  0  0  0  0
    2.3600   -0.4157    0.0000 C   0  0  0  0  0  0  0  0  0  0  0  0
    1.4800    0.7943    0.0000 C   0  0  0  0  0  0  0  0  0  0  0  0
    1.9453    2.2203    0.0000 C   0  0  0  0  0  0  0  0  0  0  0  0
    3.2688    1.5145    0.0000 H   0  0  0  0  0  0  0  0  0  0  0  0
    2.8702    3.4012    0.0000 H   0  0  0  0  0  0  0  0  0  0  0  0
    0.9430    3.3363    0.0000 C   0  0  0  0  0  0  0  0  0  0  0  0
   -0.5247    3.0262    0.0000 O   0  0  0  0  0  0  0  0  0  0  0  0
    1.4082    4.7623    0.0000 C   0  0  0  0  0  0  0  0  0  0  0  0
    2.8758    5.0724    0.0000 O   0  0  0  0  0  0  0  0  0  0  0  0
    0.4059    5.8782    0.0000 N   0  0  0  0  0  0  0  0  0  0  0  0
    0.8712    7.3042    0.0000 H   0  0  0  0  0  0  0  0  0  0  0  0
   -1.0617    5.5682    0.0000 H   0  0  0  0  0  0  0  0  0  0  0  0
    0.0500    0.3343    0.0000 C   0  0  0  0  0  0  0  0  0  0  0  0
    0.0500   -1.1657    0.0000 C   0  0  0  0  0  0  0  0  0  0  0  0
   -1.2500   -1.9157    0.0000 C   0  0  0  0  0  0  0  0  0  0  0  0
   -1.2500   -3.4157    0.0000 H   0  0  0  0  0  0  0  0  0  0  0  0
   -2.5500   -1.1657    0.0000 C   0  0  0  0  0  0  0  0  0  0  0  0
   -3.8489   -1.9159    0.0000 H   0  0  0  0  0  0  0  0  0  0  0  0
   -2.5500    0.3343    0.0000 C   0  0  0  0  0  0  0  0  0  0  0  0
   -3.8489    1.0845    0.0000 H   0  0  0  0  0  0  0  0  0  0  0  0
   -1.2500    1.0843    0.0000 C   0  0  0  0  0  0  0  0  0  0  0  0
   -1.2500    2.5843    0.0000 H   0  0  0  0  0  0  0  0  0  0  0  0
    1.4800   -1.6257    0.0000 N   0  0  0  0  0  0  0  0  0  0  0  0
    1.9453   -3.0517    0.0000 H   0  0  0  0  0  0  0  0  0  0  0  0
  1  2  1  0  0  0  0 
  1  3  1  0  0  0  0 
  1  4  1  0  0  0  0 
  1  5  1  0  0  0  0 
  5  6  1  0  0  0  0 
  6  7  2  0  0  0  0 
  7  8  1  0  0  0  0 
  7  9  1  0  0  0  0 
  9 10  1  0  0  0  0 
  9 11  2  0  0  0  0 
 11 12  1  0  0  0  0 
 12 13  1  0  0  0  0 
 12 14  2  0  0  0  0 
  6 14  1  0  0  0  0 
 14 15  1  0  0  0  0 
 11 16  1  0  0  0  0 
 16 17  2  0  0  0  0 
 16 18  2  0  0  0  0 
 16 19  1  0  0  0  0 
 19 20  1  0  0  0  0 
 19 21  1  0  0  0  0 
 21 22  1  0  0  0  0 
 21 23  1  0  0  0  0 
 21 24  1  0  0  0  0 
 24 25  2  0  0  0  0 
 25 26  1  0  0  0  0 
 26 27  1  0  0  0  0 
 26 28  1  0  0  0  0 
 26 29  1  0  0  0  0 
 29 30  2  0  0  0  0 
 29 31  1  0  0  0  0 
 31 32  2  0  0  0  0 
 31 33  1  0  0  0  0 
 33 34  1  0  0  0  0 
 33 35  1  0  0  0  0 
 25 36  1  0  0  0  0 
 36 37  2  0  0  0  0 
 37 38  1  0  0  0  0 
 38 39  1  0  0  0  0 
 38 40  2  0  0  0  0 
 40 41  1  0  0  0  0 
 40 42  1  0  0  0  0 
 42 43  1  0  0  0  0 
 42 44  2  0  0  0  0 
 36 44  1  0  0  0  0 
 44 45  1  0  0  0  0 
 37 46  1  0  0  0  0 
 24 46  1  0  0  0  0 
 46 47  1  0  0  0  0 
M  END
> <Rank>
14

> <Priority_score>
0.108

> <Reaction_type>
N-dealkylation

> <Parent_ID>
47

> <Parent_InChI>
InChI=1S/C19H19N3O4S/c1-26-12-6-8-13(9-7-12)27(24,25)22-11-17-15(10-18(22)19(20)23)14-4-2-3-5-16(14)21-17/h2-9,18,21H,10-11H2,1H3,(H2,20,23)

> <Parent_SMILES>
COc1ccc(S(=O)(=O)N2Cc3[nH]c4ccccc4c3CC2C(N)=O)cc1

$$$$
Molecule 47_metabolite 15
  CDK     0516241031

 66 70  0  0  0  0  0  0  0  0999 V2000
   10.5744    3.3117    0.0000 C   0  0  0  0  0  0  0  0  0  0  0  0
   11.5673    4.4360    0.0000 H   0  0  0  0  0  0  0  0  0  0  0  0
   10.0258    1.9156    0.0000 H   0  0  0  0  0  0  0  0  0  0  0  0
   11.8540    2.5290    0.0000 H   0  0  0  0  0  0  0  0  0  0  0  0
    9.1042    3.6095    0.0000 O   0  0  0  0  0  0  0  0  0  0  0  0
    8.1113    2.4852    0.0000 C   0  0  0  0  0  0  0  0  0  0  0  0
    6.6404    2.7836    0.0000 C   0  0  0  0  0  0  0  0  0  0  0  0
    6.1635    4.2057    0.0000 H   0  0  0  0  0  0  0  0  0  0  0  0
    5.6475    1.6593    0.0000 C   0  0  0  0  0  0  0  0  0  0  0  0
    4.1773    1.9568    0.0000 H   0  0  0  0  0  0  0  0  0  0  0  0
    6.1254    0.2366    0.0000 C   0  0  0  0  0  0  0  0  0  0  0  0
    7.5962   -0.0618    0.0000 C   0  0  0  0  0  0  0  0  0  0  0  0
    8.0732   -1.4840    0.0000 H   0  0  0  0  0  0  0  0  0  0  0  0
    8.5892    1.0625    0.0000 C   0  0  0  0  0  0  0  0  0  0  0  0
   10.0594    0.7649    0.0000 H   0  0  0  0  0  0  0  0  0  0  0  0
    5.1324   -0.8877    0.0000 S   0  0  0  0  0  0  0  0  0  0  0  0
    4.5839   -2.2838    0.0000 O   0  0  0  0  0  0  0  0  0  0  0  0
    6.4121   -1.6704    0.0000 O   0  0  0  0  0  0  0  0  0  0  0  0
    3.1918   -0.4946    0.0000 N   0  0  0  0  0  0  0  0  0  0  0  0
    2.2318   -1.6146    0.0000 C   0  0  0  0  0  0  0  0  0  0  0  0
    1.6975   -3.0162    0.0000 H   0  0  0  0  0  0  0  0  0  0  0  0
    3.5211   -2.3813    0.0000 H   0  0  0  0  0  0  0  0  0  0  0  0
    0.7918   -1.3346    0.0000 C   0  0  0  0  0  0  0  0  0  0  0  0
    0.2318    0.0854    0.0000 C   0  0  0  0  0  0  0  0  0  0  0  0
    1.3018    1.1754    0.0000 C   0  0  0  0  0  0  0  0  0  0  0  0
    1.8551    2.5696    0.0000 H   0  0  0  0  0  0  0  0  0  0  0  0
    0.0446    1.9936    0.0000 H   0  0  0  0  0  0  0  0  0  0  0  0
    2.7418    0.9154    0.0000 C   0  0  0  0  0  0  0  0  0  0  0  0
    4.2258    1.1342    0.0000 H   0  0  0  0  0  0  0  0  0  0  0  0
    2.7737    2.8951    0.0000 C   0  0  0  0  0  0  0  0  0  0  0  0
    4.0847    3.6241    0.0000 O   0  0  0  0  0  0  0  0  0  0  0  0
    1.4869    3.6659    0.0000 N   0  0  0  0  0  0  0  0  0  0  0  0
    1.5111    5.1657    0.0000 H   0  0  0  0  0  0  0  0  0  0  0  0
    0.1760    2.9369    0.0000 H   0  0  0  0  0  0  0  0  0  0  0  0
   -1.1882    0.0854    0.0000 C   0  0  0  0  0  0  0  0  0  0  0  0
   -1.6482   -1.3846    0.0000 C   0  0  0  0  0  0  0  0  0  0  0  0
   -3.1882   -1.7146    0.0000 C   0  0  0  0  0  0  0  0  0  0  0  0
   -3.6535   -3.1406    0.0000 H   0  0  0  0  0  0  0  0  0  0  0  0
   -4.1882   -0.5946    0.0000 C   0  0  0  0  0  0  0  0  0  0  0  0
   -5.6534   -0.9160    0.0000 H   0  0  0  0  0  0  0  0  0  0  0  0
   -3.7382    0.8754    0.0000 C   0  0  0  0  0  0  0  0  0  0  0  0
   -4.7585    1.9749    0.0000 H   0  0  0  0  0  0  0  0  0  0  0  0
   -2.2782    1.2054    0.0000 C   0  0  0  0  0  0  0  0  0  0  0  0
   -1.8516    2.6434    0.0000 H   0  0  0  0  0  0  0  0  0  0  0  0
   -0.4782   -2.1946    0.0000 N   0  0  0  0  0  0  0  0  0  0  0  0
   -0.4884   -4.1746    0.0000 C   0  0  0  0  0  0  0  0  0  0  0  0
   -1.9643   -3.9067    0.0000 H   0  0  0  0  0  0  0  0  0  0  0  0
   -1.0084   -5.5816    0.0000 C   0  0  0  0  0  0  0  0  0  0  0  0
   -2.3038   -4.8253    0.0000 H   0  0  0  0  0  0  0  0  0  0  0  0
   -0.0490   -6.7358    0.0000 C   0  0  0  0  0  0  0  0  0  0  0  0
   -1.3516   -7.4795    0.0000 H   0  0  0  0  0  0  0  0  0  0  0  0
    1.4304   -6.4829    0.0000 C   0  0  0  0  0  0  0  0  0  0  0  0
    1.4227   -7.9829    0.0000 H   0  0  0  0  0  0  0  0  0  0  0  0
    1.9504   -5.0759    0.0000 C   0  0  0  0  0  0  0  0  0  0  0  0
    3.2458   -5.8322    0.0000 H   0  0  0  0  0  0  0  0  0  0  0  0
    2.9200   -3.9314    0.0000 C   0  0  0  0  0  0  0  0  0  0  0  0
    2.4136   -2.5195    0.0000 O   0  0  0  0  0  0  0  0  0  0  0  0
    4.3960   -4.1989    0.0000 O   0  0  0  0  0  0  0  0  0  0  0  0
    4.9023   -5.6108    0.0000 H   0  0  0  0  0  0  0  0  0  0  0  0
    0.9910   -3.9218    0.0000 O   0  0  0  0  0  0  0  0  0  0  0  0
    2.9063   -6.7508    0.0000 O   0  0  0  0  0  0  0  0  0  0  0  0
    3.4122   -8.1630    0.0000 H   0  0  0  0  0  0  0  0  0  0  0  0
    0.4569   -8.1479    0.0000 O   0  0  0  0  0  0  0  0  0  0  0  0
   -0.5130   -9.2921    0.0000 H   0  0  0  0  0  0  0  0  0  0  0  0
   -1.9780   -6.7261    0.0000 O   0  0  0  0  0  0  0  0  0  0  0  0
   -3.4539   -6.4587    0.0000 H   0  0  0  0  0  0  0  0  0  0  0  0
  1  2  1  0  0  0  0 
  1  3  1  0  0  0  0 
  1  4  1  0  0  0  0 
  1  5  1  0  0  0  0 
  5  6  1  0  0  0  0 
  6  7  2  0  0  0  0 
  7  8  1  0  0  0  0 
  7  9  1  0  0  0  0 
  9 10  1  0  0  0  0 
  9 11  2  0  0  0  0 
 11 12  1  0  0  0  0 
 12 13  1  0  0  0  0 
 12 14  2  0  0  0  0 
  6 14  1  0  0  0  0 
 14 15  1  0  0  0  0 
 11 16  1  0  0  0  0 
 16 17  2  0  0  0  0 
 16 18  2  0  0  0  0 
 16 19  1  0  0  0  0 
 19 20  1  0  0  0  0 
 20 21  1  0  0  0  0 
 20 22  1  0  0  0  0 
 20 23  1  0  0  0  0 
 23 24  2  0  0  0  0 
 24 25  1  0  0  0  0 
 25 26  1  0  0  0  0 
 25 27  1  0  0  0  0 
 25 28  1  0  0  0  0 
 19 28  1  0  0  0  0 
 28 29  1  0  0  0  0 
 28 30  1  0  0  0  0 
 30 31  2  0  0  0  0 
 30 32  1  0  0  0  0 
 32 33  1  0  0  0  0 
 32 34  1  0  0  0  0 
 24 35  1  0  0  0  0 
 35 36  2  0  0  0  0 
 36 37  1  0  0  0  0 
 37 38  1  0  0  0  0 
 37 39  2  0  0  0  0 
 39 40  1  0  0  0  0 
 39 41  1  0  0  0  0 
 41 42  1  0  0  0  0 
 41 43  2  0  0  0  0 
 35 43  1  0  0  0  0 
 43 44  1  0  0  0  0 
 36 45  1  0  0  0  0 
 23 45  1  0  0  0  0 
 45 46  1  0  0  0  0 
 46 47  1  0  0  0  0 
 46 48  1  0  0  0  0 
 48 49  1  0  0  0  0 
 48 50  1  0  0  0  0 
 50 51  1  0  0  0  0 
 50 52  1  0  0  0  0 
 52 53  1  0  0  0  0 
 52 54  1  0  0  0  0 
 54 55  1  0  0  0  0 
 54 56  1  0  0  0  0 
 56 57  2  0  0  0  0 
 56 58  1  0  0  0  0 
 58 59  1  0  0  0  0 
 54 60  1  0  0  0  0 
 46 60  1  0  0  0  0 
 52 61  1  0  0  0  0 
 61 62  1  0  0  0  0 
 50 63  1  0  0  0  0 
 63 64  1  0  0  0  0 
 48 65  1  0  0  0  0 
 65 66  1  0  0  0  0 
M  END
> <Rank>
15

> <Priority_score>
0.1

> <Reaction_type>
N-glucuronidation_(aromatic_-nH-)

> <Parent_ID>
47

> <Parent_InChI>
InChI=1S/C19H19N3O4S/c1-26-12-6-8-13(9-7-12)27(24,25)22-11-17-15(10-18(22)19(20)23)14-4-2-3-5-16(14)21-17/h2-9,18,21H,10-11H2,1H3,(H2,20,23)

> <Parent_SMILES>
COc1ccc(S(=O)(=O)N2Cc3[nH]c4ccccc4c3CC2C(N)=O)cc1

$$$$
Molecule 47_metabolite 16
  CDK     0516241031

 31 33  0  0  0  0  0  0  0  0999 V2000
   -3.2677    0.7801    0.0000 C   0  0  0  0  0  0  0  0  0  0  0  0
   -4.2880    1.8796    0.0000 H   0  0  0  0  0  0  0  0  0  0  0  0
   -1.8077    1.1101    0.0000 C   0  0  0  0  0  0  0  0  0  0  0  0
   -1.3812    2.5481    0.0000 H   0  0  0  0  0  0  0  0  0  0  0  0
   -0.7177   -0.0099    0.0000 C   0  0  0  0  0  0  0  0  0  0  0  0
   -1.1777   -1.4799    0.0000 C   0  0  0  0  0  0  0  0  0  0  0  0
   -2.7177   -1.8099    0.0000 C   0  0  0  0  0  0  0  0  0  0  0  0
   -3.1831   -3.2359    0.0000 H   0  0  0  0  0  0  0  0  0  0  0  0
   -3.7177   -0.6899    0.0000 C   0  0  0  0  0  0  0  0  0  0  0  0
   -5.1829   -1.0113    0.0000 H   0  0  0  0  0  0  0  0  0  0  0  0
   -0.0077   -2.2899    0.0000 N   0  0  0  0  0  0  0  0  0  0  0  0
   -0.0155   -3.7899    0.0000 H   0  0  0  0  0  0  0  0  0  0  0  0
    1.2623   -1.4299    0.0000 C   0  0  0  0  0  0  0  0  0  0  0  0
    0.7023   -0.0099    0.0000 C   0  0  0  0  0  0  0  0  0  0  0  0
    1.7723    1.0801    0.0000 C   0  0  0  0  0  0  0  0  0  0  0  0
    2.3256    2.4743    0.0000 H   0  0  0  0  0  0  0  0  0  0  0  0
    0.5151    1.8983    0.0000 H   0  0  0  0  0  0  0  0  0  0  0  0
    3.2123    0.8201    0.0000 C   0  0  0  0  0  0  0  0  0  0  0  0
    4.6962    1.0389    0.0000 H   0  0  0  0  0  0  0  0  0  0  0  0
    3.2442    2.7998    0.0000 C   0  0  0  0  0  0  0  0  0  0  0  0
    1.9574    3.5706    0.0000 O   0  0  0  0  0  0  0  0  0  0  0  0
    4.5551    3.5288    0.0000 N   0  0  0  0  0  0  0  0  0  0  0  0
    4.5793    5.0286    0.0000 H   0  0  0  0  0  0  0  0  0  0  0  0
    5.8419    2.7580    0.0000 H   0  0  0  0  0  0  0  0  0  0  0  0
    3.6623   -0.5899    0.0000 N   0  0  0  0  0  0  0  0  0  0  0  0
    2.7023   -1.7099    0.0000 C   0  0  0  0  0  0  0  0  0  0  0  0
    2.1679   -3.1115    0.0000 H   0  0  0  0  0  0  0  0  0  0  0  0
    3.9916   -2.4765    0.0000 H   0  0  0  0  0  0  0  0  0  0  0  0
    5.1324   -0.8877    0.0000 S   0  0  0  0  0  5  0  0  0  0  0  0
    5.6096   -2.3098    0.0000 O   0  0  0  0  0  0  0  0  0  0  0  0
    6.1254    0.2366    0.0000 O   0  0  0  0  0  0  0  0  0  0  0  0
  1  2  1  0  0  0  0 
  1  3  2  0  0  0  0 
  3  4  1  0  0  0  0 
  3  5  1  0  0  0  0 
  5  6  2  0  0  0  0 
  6  7  1  0  0  0  0 
  7  8  1  0  0  0  0 
  7  9  2  0  0  0  0 
  1  9  1  0  0  0  0 
  9 10  1  0  0  0  0 
  6 11  1  0  0  0  0 
 11 12  1  0  0  0  0 
 11 13  1  0  0  0  0 
 13 14  2  0  0  0  0 
  5 14  1  0  0  0  0 
 14 15  1  0  0  0  0 
 15 16  1  0  0  0  0 
 15 17  1  0  0  0  0 
 15 18  1  0  0  0  0 
 18 19  1  0  0  0  0 
 18 20  1  0  0  0  0 
 20 21  2  0  0  0  0 
 20 22  1  0  0  0  0 
 22 23  1  0  0  0  0 
 22 24  1  0  0  0  0 
 18 25  1  0  0  0  0 
 25 26  1  0  0  0  0 
 13 26  1  0  0  0  0 
 26 27  1  0  0  0  0 
 26 28  1  0  0  0  0 
 25 29  1  0  0  0  0 
 29 30  2  0  0  0  0 
 29 31  2  0  0  0  0 
M  END
> <Rank>
16

> <Priority_score>
0.09280000000000001

> <Reaction_type>
oxidation of 4-substituted anisole to quinone

> <Parent_ID>
47

> <Parent_InChI>
InChI=1S/C19H19N3O4S/c1-26-12-6-8-13(9-7-12)27(24,25)22-11-17-15(10-18(22)19(20)23)14-4-2-3-5-16(14)21-17/h2-9,18,21H,10-11H2,1H3,(H2,20,23)

> <Parent_SMILES>
COc1ccc(S(=O)(=O)N2Cc3[nH]c4ccccc4c3CC2C(N)=O)cc1

$$$$
Molecule 47_metabolite 17
  CDK     0516241031

 12 12  0  0  0  0  0  0  0  0999 V2000
    1.3000    0.7500    0.0000 C   0  0  0  0  0  0  0  0  0  0  0  0
    2.5989    1.5002    0.0000 H   0  0  0  0  0  0  0  0  0  0  0  0
    1.3000   -0.7500    0.0000 C   0  0  0  0  0  0  0  0  0  0  0  0
    2.5989   -1.5002    0.0000 H   0  0  0  0  0  0  0  0  0  0  0  0
   -0.0000   -1.5000    0.0000 C   0  0  0  0  0  0  0  0  0  0  0  0
   -0.0000   -3.0000    0.0000 O   0  0  0  0  0  0  0  0  0  0  0  0
   -1.3000   -0.7500    0.0000 C   0  0  0  0  0  0  0  0  0  0  0  0
   -2.5989   -1.5002    0.0000 H   0  0  0  0  0  0  0  0  0  0  0  0
   -1.3000    0.7500    0.0000 C   0  0  0  0  0  0  0  0  0  0  0  0
   -2.5989    1.5002    0.0000 H   0  0  0  0  0  0  0  0  0  0  0  0
    0.0000    1.5000    0.0000 C   0  0  0  0  0  0  0  0  0  0  0  0
    0.0000    3.0000    0.0000 O   0  0  0  0  0  0  0  0  0  0  0  0
  1  2  1  0  0  0  0 
  1  3  2  0  0  0  0 
  3  4  1  0  0  0  0 
  3  5  1  0  0  0  0 
  5  6  2  0  0  0  0 
  5  7  1  0  0  0  0 
  7  8  1  0  0  0  0 
  7  9  2  0  0  0  0 
  9 10  1  0  0  0  0 
  9 11  1  0  0  0  0 
  1 11  1  0  0  0  0 
 11 12  2  0  0  0  0 
M  END
> <Rank>
16

> <Priority_score>
0.09280000000000001

> <Reaction_type>
oxidation of 4-substituted anisole to quinone

> <Parent_ID>
47

> <Parent_InChI>
InChI=1S/C19H19N3O4S/c1-26-12-6-8-13(9-7-12)27(24,25)22-11-17-15(10-18(22)19(20)23)14-4-2-3-5-16(14)21-17/h2-9,18,21H,10-11H2,1H3,(H2,20,23)

> <Parent_SMILES>
COc1ccc(S(=O)(=O)N2Cc3[nH]c4ccccc4c3CC2C(N)=O)cc1

$$$$
Molecule 47_metabolite 18
  CDK     0516241031

 47 50  0  0  0  0  0  0  0  0999 V2000
    8.5113   -6.8738    0.0000 C   0  0  0  0  0  0  0  0  0  0  0  0
    8.9885   -8.2959    0.0000 H   0  0  0  0  0  0  0  0  0  0  0  0
    8.5493   -5.3743    0.0000 H   0  0  0  0  0  0  0  0  0  0  0  0
    9.9946   -6.6508    0.0000 H   0  0  0  0  0  0  0  0  0  0  0  0
    7.0412   -6.5760    0.0000 O   0  0  0  0  0  0  0  0  0  0  0  0
    6.5640   -5.1539    0.0000 C   0  0  0  0  0  0  0  0  0  0  0  0
    7.5578   -4.0293    0.0000 C   0  0  0  0  0  0  0  0  0  0  0  0
    9.0279   -4.3274    0.0000 H   0  0  0  0  0  0  0  0  0  0  0  0
    7.0807   -2.6073    0.0000 C   0  0  0  0  0  0  0  0  0  0  0  0
    8.0734   -1.4828    0.0000 H   0  0  0  0  0  0  0  0  0  0  0  0
    5.6096   -2.3098    0.0000 C   0  0  0  0  0  0  0  0  0  0  0  0
    4.6157   -3.4344    0.0000 C   0  0  0  0  0  0  0  0  0  0  0  0
    3.1456   -3.1364    0.0000 H   0  0  0  0  0  0  0  0  0  0  0  0
    5.0929   -4.8565    0.0000 C   0  0  0  0  0  0  0  0  0  0  0  0
    4.1001   -5.9809    0.0000 O   0  0  0  0  0  0  0  0  0  0  0  0
    4.5776   -7.4029    0.0000 H   0  0  0  0  0  0  0  0  0  0  0  0
    5.1324   -0.8877    0.0000 S   0  0  0  0  0  0  0  0  0  0  0  0
    5.1704    0.6118    0.0000 O   0  0  0  0  0  0  0  0  0  0  0  0
    6.6157   -0.6647    0.0000 O   0  0  0  0  0  0  0  0  0  0  0  0
    3.1918   -0.4946    0.0000 N   0  0  0  0  0  0  0  0  0  0  0  0
    2.2318   -1.6146    0.0000 C   0  0  0  0  0  0  0  0  0  0  0  0
    1.6975   -3.0162    0.0000 H   0  0  0  0  0  0  0  0  0  0  0  0
    3.5211   -2.3813    0.0000 H   0  0  0  0  0  0  0  0  0  0  0  0
    0.7918   -1.3346    0.0000 C   0  0  0  0  0  0  0  0  0  0  0  0
    0.2318    0.0854    0.0000 C   0  0  0  0  0  0  0  0  0  0  0  0
    1.3018    1.1754    0.0000 C   0  0  0  0  0  0  0  0  0  0  0  0
    1.8551    2.5696    0.0000 H   0  0  0  0  0  0  0  0  0  0  0  0
    0.0446    1.9936    0.0000 H   0  0  0  0  0  0  0  0  0  0  0  0
    2.7418    0.9154    0.0000 C   0  0  0  0  0  0  0  0  0  0  0  0
    4.2258    1.1342    0.0000 H   0  0  0  0  0  0  0  0  0  0  0  0
    2.7737    2.8951    0.0000 C   0  0  0  0  0  0  0  0  0  0  0  0
    4.0847    3.6241    0.0000 O   0  0  0  0  0  0  0  0  0  0  0  0
    1.4869    3.6659    0.0000 N   0  0  0  0  0  0  0  0  0  0  0  0
    1.5111    5.1657    0.0000 H   0  0  0  0  0  0  0  0  0  0  0  0
   -0.0129    3.6901    0.0000 H   0  0  0  0  0  0  0  0  0  0  0  0
   -1.1882    0.0854    0.0000 C   0  0  0  0  0  0  0  0  0  0  0  0
   -1.6482   -1.3846    0.0000 C   0  0  0  0  0  0  0  0  0  0  0  0
   -3.1882   -1.7146    0.0000 C   0  0  0  0  0  0  0  0  0  0  0  0
   -3.6535   -3.1406    0.0000 H   0  0  0  0  0  0  0  0  0  0  0  0
   -4.1882   -0.5946    0.0000 C   0  0  0  0  0  0  0  0  0  0  0  0
   -5.6534   -0.9160    0.0000 H   0  0  0  0  0  0  0  0  0  0  0  0
   -3.7382    0.8754    0.0000 C   0  0  0  0  0  0  0  0  0  0  0  0
   -4.7585    1.9749    0.0000 H   0  0  0  0  0  0  0  0  0  0  0  0
   -2.2782    1.2054    0.0000 C   0  0  0  0  0  0  0  0  0  0  0  0
   -1.8516    2.6434    0.0000 H   0  0  0  0  0  0  0  0  0  0  0  0
   -0.4782   -2.1946    0.0000 N   0  0  0  0  0  0  0  0  0  0  0  0
   -0.4859   -3.6946    0.0000 H   0  0  0  0  0  0  0  0  0  0  0  0
  1  2  1  0  0  0  0 
  1  3  1  0  0  0  0 
  1  4  1  0  0  0  0 
  1  5  1  0  0  0  0 
  5  6  1  0  0  0  0 
  6  7  2  0  0  0  0 
  7  8  1  0  0  0  0 
  7  9  1  0  0  0  0 
  9 10  1  0  0  0  0 
  9 11  2  0  0  0  0 
 11 12  1  0  0  0  0 
 12 13  1  0  0  0  0 
 12 14  2  0  0  0  0 
  6 14  1  0  0  0  0 
 14 15  1  0  0  0  0 
 15 16  1  0  0  0  0 
 11 17  1  0  0  0  0 
 17 18  2  0  0  0  0 
 17 19  2  0  0  0  0 
 17 20  1  0  0  0  0 
 20 21  1  0  0  0  0 
 21 22  1  0  0  0  0 
 21 23  1  0  0  0  0 
 21 24  1  0  0  0  0 
 24 25  2  0  0  0  0 
 25 26  1  0  0  0  0 
 26 27  1  0  0  0  0 
 26 28  1  0  0  0  0 
 26 29  1  0  0  0  0 
 20 29  1  0  0  0  0 
 29 30  1  0  0  0  0 
 29 31  1  0  0  0  0 
 31 32  2  0  0  0  0 
 31 33  1  0  0  0  0 
 33 34  1  0  0  0  0 
 33 35  1  0  0  0  0 
 25 36  1  0  0  0  0 
 36 37  2  0  0  0  0 
 37 38  1  0  0  0  0 
 38 39  1  0  0  0  0 
 38 40  2  0  0  0  0 
 40 41  1  0  0  0  0 
 40 42  1  0  0  0  0 
 42 43  1  0  0  0  0 
 42 44  2  0  0  0  0 
 36 44  1  0  0  0  0 
 44 45  1  0  0  0  0 
 37 46  1  0  0  0  0 
 24 46  1  0  0  0  0 
 46 47  1  0  0  0  0 
M  END
> <Rank>
18

> <Priority_score>
0.072

> <Reaction_type>
aromatic_hydroxylation_(ortho_to_oxygen)

> <Parent_ID>
47

> <Parent_InChI>
InChI=1S/C19H19N3O4S/c1-26-12-6-8-13(9-7-12)27(24,25)22-11-17-15(10-18(22)19(20)23)14-4-2-3-5-16(14)21-17/h2-9,18,21H,10-11H2,1H3,(H2,20,23)

> <Parent_SMILES>
COc1ccc(S(=O)(=O)N2Cc3[nH]c4ccccc4c3CC2C(N)=O)cc1

$$$$
Molecule 47_metabolite 19
  CDK     0516241031

 47 50  0  0  0  0  0  0  0  0999 V2000
   11.7027    4.0462    0.0000 C   0  0  0  0  0  0  0  0  0  0  0  0
   12.6956    5.1704    0.0000 H   0  0  0  0  0  0  0  0  0  0  0  0
   11.1541    2.6500    0.0000 H   0  0  0  0  0  0  0  0  0  0  0  0
   12.9823    3.2635    0.0000 H   0  0  0  0  0  0  0  0  0  0  0  0
   10.2325    4.3439    0.0000 O   0  0  0  0  0  0  0  0  0  0  0  0
    9.2396    3.2196    0.0000 C   0  0  0  0  0  0  0  0  0  0  0  0
    7.7687    3.5181    0.0000 C   0  0  0  0  0  0  0  0  0  0  0  0
    7.2917    4.9402    0.0000 H   0  0  0  0  0  0  0  0  0  0  0  0
    6.7757    2.3938    0.0000 C   0  0  0  0  0  0  0  0  0  0  0  0
    5.3055    2.6913    0.0000 H   0  0  0  0  0  0  0  0  0  0  0  0
    7.2536    0.9711    0.0000 C   0  0  0  0  0  0  0  0  0  0  0  0
    8.7245    0.6726    0.0000 C   0  0  0  0  0  0  0  0  0  0  0  0
    9.2015   -0.7495    0.0000 H   0  0  0  0  0  0  0  0  0  0  0  0
    9.7175    1.7969    0.0000 C   0  0  0  0  0  0  0  0  0  0  0  0
   11.1877    1.4994    0.0000 H   0  0  0  0  0  0  0  0  0  0  0  0
    6.2607   -0.1532    0.0000 S   0  0  0  0  0  0  0  0  0  0  0  0
    5.2677   -1.2775    0.0000 O   0  0  0  0  0  0  0  0  0  0  0  0
    6.7379   -1.5753    0.0000 O   0  0  0  0  0  0  0  0  0  0  0  0
    7.7308   -0.4510    0.0000 O   0  0  0  0  0  0  0  0  0  0  0  0
    3.8496    0.3351    0.0000 N   0  0  0  0  0  0  0  0  0  0  0  0
    3.4011    1.7404    0.0000 C   0  0  0  0  0  0  0  0  0  0  0  0
    3.4543    3.2395    0.0000 H   0  0  0  0  0  0  0  0  0  0  0  0
    4.8871    1.9449    0.0000 H   0  0  0  0  0  0  0  0  0  0  0  0
    1.9657    2.0428    0.0000 C   0  0  0  0  0  0  0  0  0  0  0  0
    0.8972    0.9527    0.0000 C   0  0  0  0  0  0  0  0  0  0  0  0
    1.4587   -0.4678    0.0000 C   0  0  0  0  0  0  0  0  0  0  0  0
    1.4259   -1.9674    0.0000 H   0  0  0  0  0  0  0  0  0  0  0  0
   -0.0177   -0.7323    0.0000 H   0  0  0  0  0  0  0  0  0  0  0  0
    2.8864   -0.7886    0.0000 C   0  0  0  0  0  0  0  0  0  0  0  0
    4.1683   -1.5677    0.0000 H   0  0  0  0  0  0  0  0  0  0  0  0
    2.1454   -2.6247    0.0000 C   0  0  0  0  0  0  0  0  0  0  0  0
    3.0694   -3.8064    0.0000 O   0  0  0  0  0  0  0  0  0  0  0  0
    0.6601   -2.8341    0.0000 N   0  0  0  0  0  0  0  0  0  0  0  0
    0.0987   -4.2251    0.0000 H   0  0  0  0  0  0  0  0  0  0  0  0
   -0.2639   -1.6524    0.0000 H   0  0  0  0  0  0  0  0  0  0  0  0
   -0.4108    1.5053    0.0000 C   0  0  0  0  0  0  0  0  0  0  0  0
   -0.2625    3.0384    0.0000 C   0  0  0  0  0  0  0  0  0  0  0  0
   -1.5527    3.9417    0.0000 C   0  0  0  0  0  0  0  0  0  0  0  0
   -1.4265    5.4363    0.0000 H   0  0  0  0  0  0  0  0  0  0  0  0
   -2.9098    3.2991    0.0000 C   0  0  0  0  0  0  0  0  0  0  0  0
   -4.1344    4.1652    0.0000 H   0  0  0  0  0  0  0  0  0  0  0  0
   -3.0673    1.7698    0.0000 C   0  0  0  0  0  0  0  0  0  0  0  0
   -4.4350    1.1540    0.0000 H   0  0  0  0  0  0  0  0  0  0  0  0
   -1.8507    0.8977    0.0000 C   0  0  0  0  0  0  0  0  0  0  0  0
   -2.0174   -0.5930    0.0000 H   0  0  0  0  0  0  0  0  0  0  0  0
    1.1304    3.3293    0.0000 N   0  0  0  0  0  0  0  0  0  0  0  0
    1.7070    4.7140    0.0000 H   0  0  0  0  0  0  0  0  0  0  0  0
  1  2  1  0  0  0  0 
  1  3  1  0  0  0  0 
  1  4  1  0  0  0  0 
  1  5  1  0  0  0  0 
  5  6  1  0  0  0  0 
  6  7  2  0  0  0  0 
  7  8  1  0  0  0  0 
  7  9  1  0  0  0  0 
  9 10  1  0  0  0  0 
  9 11  2  0  0  0  0 
 11 12  1  0  0  0  0 
 12 13  1  0  0  0  0 
 12 14  2  0  0  0  0 
  6 14  1  0  0  0  0 
 14 15  1  0  0  0  0 
 11 16  1  0  0  0  0 
 16 17  2  0  0  0  0 
 16 18  2  0  0  0  0 
 16 19  2  0  0  0  0 
 16 20  1  0  0  0  0 
 20 21  1  0  0  0  0 
 21 22  1  0  0  0  0 
 21 23  1  0  0  0  0 
 21 24  1  0  0  0  0 
 24 25  2  0  0  0  0 
 25 26  1  0  0  0  0 
 26 27  1  0  0  0  0 
 26 28  1  0  0  0  0 
 26 29  1  0  0  0  0 
 20 29  1  0  0  0  0 
 29 30  1  0  0  0  0 
 29 31  1  0  0  0  0 
 31 32  2  0  0  0  0 
 31 33  1  0  0  0  0 
 33 34  1  0  0  0  0 
 33 35  1  0  0  0  0 
 25 36  1  0  0  0  0 
 36 37  2  0  0  0  0 
 37 38  1  0  0  0  0 
 38 39  1  0  0  0  0 
 38 40  2  0  0  0  0 
 40 41  1  0  0  0  0 
 40 42  1  0  0  0  0 
 42 43  1  0  0  0  0 
 42 44  2  0  0  0  0 
 36 44  1  0  0  0  0 
 44 45  1  0  0  0  0 
 37 46  1  0  0  0  0 
 24 46  1  0  0  0  0 
 46 47  1  0  0  0  0 
M  END
> <Rank>
19

> <Priority_score>
0.064

> <Reaction_type>
S-oxidation

> <Parent_ID>
47

> <Parent_InChI>
InChI=1S/C19H19N3O4S/c1-26-12-6-8-13(9-7-12)27(24,25)22-11-17-15(10-18(22)19(20)23)14-4-2-3-5-16(14)21-17/h2-9,18,21H,10-11H2,1H3,(H2,20,23)

> <Parent_SMILES>
COc1ccc(S(=O)(=O)N2Cc3[nH]c4ccccc4c3CC2C(N)=O)cc1

$$$$
Molecule 47_metabolite 20
  CDK     0516241031

 40 43  0  0  0  0  0  0  0  0999 V2000
    8.5190   -6.3939    0.0000 C   0  0  0  0  0  0  0  0  0  0  0  0
    8.9962   -7.8159    0.0000 H   0  0  0  0  0  0  0  0  0  0  0  0
    8.5570   -4.8943    0.0000 H   0  0  0  0  0  0  0  0  0  0  0  0
   10.0024   -6.1709    0.0000 H   0  0  0  0  0  0  0  0  0  0  0  0
    7.0489   -6.0961    0.0000 O   0  0  0  0  0  0  0  0  0  0  0  0
    6.5717   -4.6740    0.0000 C   0  0  0  0  0  0  0  0  0  0  0  0
    5.1007   -4.3765    0.0000 C   0  0  0  0  0  0  0  0  0  0  0  0
    4.1079   -5.5010    0.0000 H   0  0  0  0  0  0  0  0  0  0  0  0
    4.6235   -2.9545    0.0000 C   0  0  0  0  0  0  0  0  0  0  0  0
    3.1534   -2.6564    0.0000 H   0  0  0  0  0  0  0  0  0  0  0  0
    5.6173   -1.8299    0.0000 C   0  0  0  0  0  0  0  0  0  0  0  0
    7.0884   -2.1273    0.0000 C   0  0  0  0  0  0  0  0  0  0  0  0
    8.0812   -1.0029    0.0000 H   0  0  0  0  0  0  0  0  0  0  0  0
    7.5656   -3.5494    0.0000 C   0  0  0  0  0  0  0  0  0  0  0  0
    9.0357   -3.8474    0.0000 H   0  0  0  0  0  0  0  0  0  0  0  0
    5.1401   -0.4078    0.0000 S   0  0  0  0  0  0  0  0  0  0  0  0
    5.1781    1.0917    0.0000 O   0  0  0  0  0  0  0  0  0  0  0  0
    6.6235   -0.1848    0.0000 O   0  0  0  0  0  0  0  0  0  0  0  0
    3.6700   -0.1100    0.0000 N   0  0  0  0  0  0  0  0  0  0  0  0
    3.2200    1.3000    0.0000 C   0  0  0  0  0  0  0  0  0  0  0  0
    4.2094    2.4275    0.0000 H   0  0  0  0  0  0  0  0  0  0  0  0
    1.7800    1.5600    0.0000 C   0  0  0  0  0  0  0  0  0  0  0  0
    1.3253    2.9894    0.0000 H   0  0  0  0  0  0  0  0  0  0  0  0
    0.7100    0.4700    0.0000 C   0  0  0  0  0  0  0  0  0  0  0  0
    1.2700   -0.9500    0.0000 C   0  0  0  0  0  0  0  0  0  0  0  0
    2.7100   -1.2300    0.0000 C   0  0  0  0  0  0  0  0  0  0  0  0
    2.1756   -2.6316    0.0000 H   0  0  0  0  0  0  0  0  0  0  0  0
    3.9993   -1.9966    0.0000 H   0  0  0  0  0  0  0  0  0  0  0  0
    0.0000   -1.8100    0.0000 N   0  0  0  0  0  0  0  0  0  0  0  0
   -0.0077   -3.3100    0.0000 H   0  0  0  0  0  0  0  0  0  0  0  0
   -1.1700   -1.0000    0.0000 C   0  0  0  0  0  0  0  0  0  0  0  0
   -0.7100    0.4700    0.0000 C   0  0  0  0  0  0  0  0  0  0  0  0
   -1.8000    1.5900    0.0000 C   0  0  0  0  0  0  0  0  0  0  0  0
   -1.3735    3.0281    0.0000 H   0  0  0  0  0  0  0  0  0  0  0  0
   -3.2600    1.2600    0.0000 C   0  0  0  0  0  0  0  0  0  0  0  0
   -4.2803    2.3596    0.0000 H   0  0  0  0  0  0  0  0  0  0  0  0
   -3.7100   -0.2100    0.0000 C   0  0  0  0  0  0  0  0  0  0  0  0
   -5.1752   -0.5313    0.0000 H   0  0  0  0  0  0  0  0  0  0  0  0
   -2.7100   -1.3300    0.0000 C   0  0  0  0  0  0  0  0  0  0  0  0
   -3.1753   -2.7560    0.0000 H   0  0  0  0  0  0  0  0  0  0  0  0
  1  2  1  0  0  0  0 
  1  3  1  0  0  0  0 
  1  4  1  0  0  0  0 
  1  5  1  0  0  0  0 
  5  6  1  0  0  0  0 
  6  7  2  0  0  0  0 
  7  8  1  0  0  0  0 
  7  9  1  0  0  0  0 
  9 10  1  0  0  0  0 
  9 11  2  0  0  0  0 
 11 12  1  0  0  0  0 
 12 13  1  0  0  0  0 
 12 14  2  0  0  0  0 
  6 14  1  0  0  0  0 
 14 15  1  0  0  0  0 
 11 16  1  0  0  0  0 
 16 17  2  0  0  0  0 
 16 18  2  0  0  0  0 
 16 19  1  0  0  0  0 
 19 20  1  0  0  0  0 
 20 21  1  0  0  0  0 
 20 22  2  0  0  0  0 
 22 23  1  0  0  0  0 
 22 24  1  0  0  0  0 
 24 25  2  0  0  0  0 
 25 26  1  0  0  0  0 
 19 26  1  0  0  0  0 
 26 27  1  0  0  0  0 
 26 28  1  0  0  0  0 
 25 29  1  0  0  0  0 
 29 30  1  0  0  0  0 
 29 31  1  0  0  0  0 
 31 32  2  0  0  0  0 
 24 32  1  0  0  0  0 
 32 33  1  0  0  0  0 
 33 34  1  0  0  0  0 
 33 35  2  0  0  0  0 
 35 36  1  0  0  0  0 
 35 37  1  0  0  0  0 
 37 38  1  0  0  0  0 
 37 39  2  0  0  0  0 
 31 39  1  0  0  0  0 
 39 40  1  0  0  0  0 
M  END
> <Rank>
20

> <Priority_score>
0.049600000000000005

> <Reaction_type>
deformylation

> <Parent_ID>
47

> <Parent_InChI>
InChI=1S/C19H19N3O4S/c1-26-12-6-8-13(9-7-12)27(24,25)22-11-17-15(10-18(22)19(20)23)14-4-2-3-5-16(14)21-17/h2-9,18,21H,10-11H2,1H3,(H2,20,23)

> <Parent_SMILES>
COc1ccc(S(=O)(=O)N2Cc3[nH]c4ccccc4c3CC2C(N)=O)cc1

$$$$
Molecule 47_metabolite 21
  CDK     0516241031

  6  5  0  0  0  0  0  0  0  0999 V2000
    1.2990    0.0000    0.0000 C   0  0  0  0  0  0  0  0  0  0  0  0
    1.2990    1.5000    0.0000 H   0  0  0  0  0  0  0  0  0  0  0  0
   -0.0000   -0.7500    0.0000 O   0  0  0  0  0  0  0  0  0  0  0  0
    2.5981   -0.7500    0.0000 N   0  0  0  0  0  0  0  0  0  0  0  0
    2.5981   -2.2500    0.0000 H   0  0  0  0  0  0  0  0  0  0  0  0
    3.8971   -0.0000    0.0000 H   0  0  0  0  0  0  0  0  0  0  0  0
  1  2  1  0  0  0  0 
  1  3  2  0  0  0  0 
  1  4  1  0  0  0  0 
  4  5  1  0  0  0  0 
  4  6  1  0  0  0  0 
M  END
> <Rank>
20

> <Priority_score>
0.049600000000000005

> <Reaction_type>
deformylation

> <Parent_ID>
47

> <Parent_InChI>
InChI=1S/C19H19N3O4S/c1-26-12-6-8-13(9-7-12)27(24,25)22-11-17-15(10-18(22)19(20)23)14-4-2-3-5-16(14)21-17/h2-9,18,21H,10-11H2,1H3,(H2,20,23)

> <Parent_SMILES>
COc1ccc(S(=O)(=O)N2Cc3[nH]c4ccccc4c3CC2C(N)=O)cc1

$$$$
Molecule 47_metabolite 22
  CDK     0516241031

 44 48  0  0  0  0  0  0  0  0999 V2000
    3.5636   -3.9390    0.0000 C   0  0  0  0  0  0  0  0  0  0  0  0
    4.3136   -5.2380    0.0000 H   0  0  0  0  0  0  0  0  0  0  0  0
    4.9731   -3.4259    0.0000 H   0  0  0  0  0  0  0  0  0  0  0  0
    3.3031   -2.4618    0.0000 H   0  0  0  0  0  0  0  0  0  0  0  0
    2.0636   -3.9390    0.0000 O   0  0  0  0  0  0  0  0  0  0  0  0
    1.3136   -2.6399    0.0000 C   0  0  0  0  0  0  0  0  0  0  0  0
    2.0644   -1.3404    0.0000 C   0  0  0  0  0  0  0  0  0  0  0  0
    3.5644   -1.3407    0.0000 H   0  0  0  0  0  0  0  0  0  0  0  0
    1.3144   -0.0414    0.0000 C   0  0  0  0  0  0  0  0  0  0  0  0
    2.0642    1.2578    0.0000 H   0  0  0  0  0  0  0  0  0  0  0  0
   -0.1864   -0.0419    0.0000 C   0  0  0  0  0  0  0  0  0  0  0  0
   -0.9372   -1.3414    0.0000 C   0  0  0  0  0  0  0  0  0  0  0  0
   -2.4372   -1.3411    0.0000 H   0  0  0  0  0  0  0  0  0  0  0  0
   -0.1872   -2.6404    0.0000 C   0  0  0  0  0  0  0  0  0  0  0  0
   -0.9370   -3.9396    0.0000 H   0  0  0  0  0  0  0  0  0  0  0  0
   -1.1764    1.6729    0.0000 S   0  0  0  0  0  0  0  0  0  0  0  0
    0.2331    2.1859    0.0000 O   0  0  0  0  0  0  0  0  0  0  0  0
   -1.6036    4.0955    0.0000 O   0  0  0  0  0  0  0  0  0  0  0  0
   -3.6364    1.6729    0.0000 N   0  0  0  0  0  0  0  0  0  0  0  0
   -4.3864    0.3738    0.0000 C   0  0  0  0  0  0  0  0  0  0  0  0
   -3.6364   -0.9252    0.0000 H   0  0  0  0  0  0  0  0  0  0  0  0
   -5.8864    0.3738    0.0000 C   0  0  0  0  0  0  0  0  0  0  0  0
   -7.2959   -0.1392    0.0000 H   0  0  0  0  0  0  0  0  0  0  0  0
   -5.6259   -1.1034    0.0000 H   0  0  0  0  0  0  0  0  0  0  0  0
   -6.6364    1.6729    0.0000 C   0  0  0  0  0  0  0  0  0  0  0  0
   -5.8864    2.9719    0.0000 C   0  0  0  0  0  0  0  0  0  0  0  0
   -4.3864    2.9719    0.0000 C   0  0  0  0  0  0  0  0  0  0  0  0
   -3.6364    4.2709    0.0000 H   0  0  0  0  0  0  0  0  0  0  0  0
   -1.9826    2.5989    0.0000 N   0  0  0  0  0  0  0  0  0  0  0  0
   -0.1145    4.1995    0.0000 H   0  0  0  0  0  0  0  0  0  0  0  0
   -1.9826    0.7468    0.0000 C   0  0  0  0  0  0  0  0  0  0  0  0
    0.2500   -1.1660    0.0000 O   0  0  0  0  0  0  0  0  0  0  0  0
   -6.8901    4.0866    0.0000 N   0  0  0  0  0  0  0  0  0  0  0  0
   -6.5782    5.5538    0.0000 H   0  0  0  0  0  0  0  0  0  0  0  0
   -8.2604    3.4765    0.0000 C   0  0  0  0  0  0  0  0  0  0  0  0
   -8.1036    1.9847    0.0000 C   0  0  0  0  0  0  0  0  0  0  0  0
   -9.3172    1.1031    0.0000 C   0  0  0  0  0  0  0  0  0  0  0  0
   -9.1604   -0.3887    0.0000 H   0  0  0  0  0  0  0  0  0  0  0  0
  -10.6875    1.7132    0.0000 C   0  0  0  0  0  0  0  0  0  0  0  0
  -11.9010    0.8315    0.0000 H   0  0  0  0  0  0  0  0  0  0  0  0
  -10.8443    3.2049    0.0000 C   0  0  0  0  0  0  0  0  0  0  0  0
  -12.2146    3.8150    0.0000 H   0  0  0  0  0  0  0  0  0  0  0  0
   -9.6307    4.0866    0.0000 C   0  0  0  0  0  0  0  0  0  0  0  0
   -9.7875    5.5784    0.0000 H   0  0  0  0  0  0  0  0  0  0  0  0
  1  2  1  0  0  0  0 
  1  3  1  0  0  0  0 
  1  4  1  0  0  0  0 
  1  5  1  0  0  0  0 
  5  6  1  0  0  0  0 
  6  7  2  0  0  0  0 
  7  8  1  0  0  0  0 
  7  9  1  0  0  0  0 
  9 10  1  0  0  0  0 
  9 11  2  0  0  0  0 
 11 12  1  0  0  0  0 
 12 13  1  0  0  0  0 
 12 14  2  0  0  0  0 
  6 14  1  0  0  0  0 
 14 15  1  0  0  0  0 
 11 16  1  0  0  0  0 
 16 17  2  0  0  0  0 
 16 18  2  0  0  0  0 
 16 19  1  0  0  0  0 
 19 20  1  0  0  0  0 
 20 21  1  0  0  0  0 
 20 22  1  0  0  0  0 
 22 23  1  0  0  0  0 
 22 24  1  0  0  0  0 
 22 25  1  0  0  0  0 
 25 26  2  0  0  0  0 
 26 27  1  0  0  0  0 
 19 27  1  0  0  0  0 
 27 28  1  0  0  0  0 
 27 29  1  0  0  0  0 
 29 30  1  0  0  0  0 
 29 31  1  0  0  0  0 
 20 31  1  0  0  0  0 
 31 32  2  0  0  0  0 
 26 33  1  0  0  0  0 
 33 34  1  0  0  0  0 
 33 35  1  0  0  0  0 
 35 36  2  0  0  0  0 
 25 36  1  0  0  0  0 
 36 37  1  0  0  0  0 
 37 38  1  0  0  0  0 
 37 39  2  0  0  0  0 
 39 40  1  0  0  0  0 
 39 41  1  0  0  0  0 
 41 42  1  0  0  0  0 
 41 43  2  0  0  0  0 
 35 43  1  0  0  0  0 
 43 44  1  0  0  0  0 
M  END
> <Rank>
20

> <Priority_score>
0.049600000000000005

> <Reaction_type>
cyclization to 5-membered NCN ring

> <Parent_ID>
47

> <Parent_InChI>
InChI=1S/C19H19N3O4S/c1-26-12-6-8-13(9-7-12)27(24,25)22-11-17-15(10-18(22)19(20)23)14-4-2-3-5-16(14)21-17/h2-9,18,21H,10-11H2,1H3,(H2,20,23)

> <Parent_SMILES>
COc1ccc(S(=O)(=O)N2Cc3[nH]c4ccccc4c3CC2C(N)=O)cc1

$$$$
Molecule 47_metabolite 23
  CDK     0516241031

 45 48  0  0  0  0  0  0  0  0999 V2000
   10.5744    3.3117    0.0000 C   0  0  0  0  0  0  0  0  0  0  0  0
   11.5673    4.4360    0.0000 H   0  0  0  0  0  0  0  0  0  0  0  0
   10.0258    1.9156    0.0000 H   0  0  0  0  0  0  0  0  0  0  0  0
   11.8540    2.5290    0.0000 H   0  0  0  0  0  0  0  0  0  0  0  0
    9.1042    3.6095    0.0000 O   0  0  0  0  0  0  0  0  0  0  0  0
    8.1113    2.4852    0.0000 C   0  0  0  0  0  0  0  0  0  0  0  0
    6.6404    2.7836    0.0000 C   0  0  0  0  0  0  0  0  0  0  0  0
    6.1635    4.2057    0.0000 H   0  0  0  0  0  0  0  0  0  0  0  0
    5.6475    1.6593    0.0000 C   0  0  0  0  0  0  0  0  0  0  0  0
    4.1773    1.9568    0.0000 H   0  0  0  0  0  0  0  0  0  0  0  0
    6.1254    0.2366    0.0000 C   0  0  0  0  0  0  0  0  0  0  0  0
    7.5962   -0.0618    0.0000 C   0  0  0  0  0  0  0  0  0  0  0  0
    8.0732   -1.4840    0.0000 H   0  0  0  0  0  0  0  0  0  0  0  0
    8.5892    1.0625    0.0000 C   0  0  0  0  0  0  0  0  0  0  0  0
   10.0594    0.7649    0.0000 H   0  0  0  0  0  0  0  0  0  0  0  0
    5.1324   -0.8877    0.0000 S   0  0  0  0  0  0  0  0  0  0  0  0
    4.5839   -2.2838    0.0000 O   0  0  0  0  0  0  0  0  0  0  0  0
    6.4121   -1.6704    0.0000 O   0  0  0  0  0  0  0  0  0  0  0  0
    3.6623   -0.5899    0.0000 N   0  0  0  0  0  0  0  0  0  0  0  0
    2.7023   -1.7099    0.0000 C   0  0  0  0  0  0  0  0  0  0  0  0
    3.1955   -3.1265    0.0000 H   0  0  0  0  0  0  0  0  0  0  0  0
    1.2623   -1.4299    0.0000 C   0  0  0  0  0  0  0  0  0  0  0  0
    0.7023   -0.0099    0.0000 C   0  0  0  0  0  0  0  0  0  0  0  0
    1.7723    1.0801    0.0000 C   0  0  0  0  0  0  0  0  0  0  0  0
    2.3256    2.4743    0.0000 H   0  0  0  0  0  0  0  0  0  0  0  0
    0.5151    1.8983    0.0000 H   0  0  0  0  0  0  0  0  0  0  0  0
    3.2123    0.8201    0.0000 C   0  0  0  0  0  0  0  0  0  0  0  0
    4.6962    1.0389    0.0000 H   0  0  0  0  0  0  0  0  0  0  0  0
    3.2442    2.7998    0.0000 C   0  0  0  0  0  0  0  0  0  0  0  0
    4.5551    3.5288    0.0000 O   0  0  0  0  0  0  0  0  0  0  0  0
    1.9574    3.5706    0.0000 N   0  0  0  0  0  0  0  0  0  0  0  0
    1.9815    5.0704    0.0000 H   0  0  0  0  0  0  0  0  0  0  0  0
    0.4576    3.5948    0.0000 H   0  0  0  0  0  0  0  0  0  0  0  0
   -0.7177   -0.0099    0.0000 C   0  0  0  0  0  0  0  0  0  0  0  0
   -1.1777   -1.4799    0.0000 C   0  0  0  0  0  0  0  0  0  0  0  0
   -2.7177   -1.8099    0.0000 C   0  0  0  0  0  0  0  0  0  0  0  0
   -3.1831   -3.2359    0.0000 H   0  0  0  0  0  0  0  0  0  0  0  0
   -3.7177   -0.6899    0.0000 C   0  0  0  0  0  0  0  0  0  0  0  0
   -5.1829   -1.0113    0.0000 H   0  0  0  0  0  0  0  0  0  0  0  0
   -3.2677    0.7801    0.0000 C   0  0  0  0  0  0  0  0  0  0  0  0
   -4.2880    1.8796    0.0000 H   0  0  0  0  0  0  0  0  0  0  0  0
   -1.8077    1.1101    0.0000 C   0  0  0  0  0  0  0  0  0  0  0  0
   -1.3812    2.5481    0.0000 H   0  0  0  0  0  0  0  0  0  0  0  0
   -0.0077   -2.2899    0.0000 N   0  0  0  0  0  0  0  0  0  0  0  0
   -0.0155   -3.7899    0.0000 H   0  0  0  0  0  0  0  0  0  0  0  0
  1  2  1  0  0  0  0 
  1  3  1  0  0  0  0 
  1  4  1  0  0  0  0 
  1  5  1  0  0  0  0 
  5  6  1  0  0  0  0 
  6  7  2  0  0  0  0 
  7  8  1  0  0  0  0 
  7  9  1  0  0  0  0 
  9 10  1  0  0  0  0 
  9 11  2  0  0  0  0 
 11 12  1  0  0  0  0 
 12 13  1  0  0  0  0 
 12 14  2  0  0  0  0 
  6 14  1  0  0  0  0 
 14 15  1  0  0  0  0 
 11 16  1  0  0  0  0 
 16 17  2  0  0  0  0 
 16 18  2  0  0  0  0 
 16 19  1  0  0  0  0 
 19 20  2  0  0  0  0 
 20 21  1  0  0  0  0 
 20 22  1  0  0  0  0 
 22 23  2  0  0  0  0 
 23 24  1  0  0  0  0 
 24 25  1  0  0  0  0 
 24 26  1  0  0  0  0 
 24 27  1  0  0  0  0 
 19 27  1  0  0  0  0 
 27 28  1  0  0  0  0 
 27 29  1  0  0  0  0 
 29 30  2  0  0  0  0 
 29 31  1  0  0  0  0 
 31 32  1  0  0  0  0 
 31 33  1  0  0  0  0 
 23 34  1  0  0  0  0 
 34 35  2  0  0  0  0 
 35 36  1  0  0  0  0 
 36 37  1  0  0  0  0 
 36 38  2  0  0  0  0 
 38 39  1  0  0  0  0 
 38 40  1  0  0  0  0 
 40 41  1  0  0  0  0 
 40 42  2  0  0  0  0 
 34 42  1  0  0  0  0 
 42 43  1  0  0  0  0 
 35 44  1  0  0  0  0 
 22 44  1  0  0  0  0 
 44 45  1  0  0  0  0 
M  CHG  1  19   1
M  END
> <Rank>
23

> <Priority_score>
0.04196208955396447

> <Reaction_type>
dehydration of N-C bond

> <Parent_ID>
47

> <Parent_InChI>
InChI=1S/C19H19N3O4S/c1-26-12-6-8-13(9-7-12)27(24,25)22-11-17-15(10-18(22)19(20)23)14-4-2-3-5-16(14)21-17/h2-9,18,21H,10-11H2,1H3,(H2,20,23)

> <Parent_SMILES>
COc1ccc(S(=O)(=O)N2Cc3[nH]c4ccccc4c3CC2C(N)=O)cc1

$$$$
Molecule 47_metabolite 24
  CDK     0516241031

 44 47  0  0  0  0  0  0  0  0999 V2000
    8.5190   -6.3939    0.0000 C   0  0  0  0  0  0  0  0  0  0  0  0
    8.9962   -7.8159    0.0000 H   0  0  0  0  0  0  0  0  0  0  0  0
    8.5570   -4.8943    0.0000 H   0  0  0  0  0  0  0  0  0  0  0  0
   10.0024   -6.1709    0.0000 H   0  0  0  0  0  0  0  0  0  0  0  0
    7.0489   -6.0961    0.0000 O   0  0  0  0  0  0  0  0  0  0  0  0
    6.5717   -4.6740    0.0000 C   0  0  0  0  0  0  0  0  0  0  0  0
    5.1007   -4.3765    0.0000 C   0  0  0  0  0  0  0  0  0  0  0  0
    4.1079   -5.5010    0.0000 H   0  0  0  0  0  0  0  0  0  0  0  0
    4.6235   -2.9545    0.0000 C   0  0  0  0  0  0  0  0  0  0  0  0
    3.1534   -2.6564    0.0000 H   0  0  0  0  0  0  0  0  0  0  0  0
    5.6173   -1.8299    0.0000 C   0  0  0  0  0  0  0  0  0  0  0  0
    7.0884   -2.1273    0.0000 C   0  0  0  0  0  0  0  0  0  0  0  0
    8.0812   -1.0029    0.0000 H   0  0  0  0  0  0  0  0  0  0  0  0
    7.5656   -3.5494    0.0000 C   0  0  0  0  0  0  0  0  0  0  0  0
    9.0357   -3.8474    0.0000 H   0  0  0  0  0  0  0  0  0  0  0  0
    5.1401   -0.4078    0.0000 S   0  0  0  0  0  0  0  0  0  0  0  0
    5.1781    1.0917    0.0000 O   0  0  0  0  0  0  0  0  0  0  0  0
    6.6235   -0.1848    0.0000 O   0  0  0  0  0  0  0  0  0  0  0  0
    3.6700   -0.1100    0.0000 N   0  0  0  0  0  0  0  0  0  0  0  0
    2.7100   -1.2300    0.0000 C   0  0  0  0  0  0  0  0  0  0  0  0
    2.1756   -2.6316    0.0000 H   0  0  0  0  0  0  0  0  0  0  0  0
    3.9993   -1.9966    0.0000 H   0  0  0  0  0  0  0  0  0  0  0  0
    1.2700   -0.9500    0.0000 C   0  0  0  0  0  0  0  0  0  0  0  0
    0.7100    0.4700    0.0000 C   0  0  0  0  0  0  0  0  0  0  0  0
    1.7800    1.5600    0.0000 C   0  0  0  0  0  0  0  0  0  0  0  0
    1.3253    2.9894    0.0000 H   0  0  0  0  0  0  0  0  0  0  0  0
    3.2200    1.3000    0.0000 C   0  0  0  0  0  0  0  0  0  0  0  0
    4.2094    2.4275    0.0000 C   0  0  0  0  0  0  0  0  0  0  0  0
    5.6804    2.1344    0.0000 O   0  0  0  0  0  0  0  0  0  0  0  0
    3.7276    3.8480    0.0000 N   0  0  0  0  0  0  0  0  0  0  0  0
    4.7170    4.9755    0.0000 H   0  0  0  0  0  0  0  0  0  0  0  0
    2.2565    4.1411    0.0000 H   0  0  0  0  0  0  0  0  0  0  0  0
   -0.7100    0.4700    0.0000 C   0  0  0  0  0  0  0  0  0  0  0  0
   -1.1700   -1.0000    0.0000 C   0  0  0  0  0  0  0  0  0  0  0  0
   -2.7100   -1.3300    0.0000 C   0  0  0  0  0  0  0  0  0  0  0  0
   -3.1753   -2.7560    0.0000 H   0  0  0  0  0  0  0  0  0  0  0  0
   -3.7100   -0.2100    0.0000 C   0  0  0  0  0  0  0  0  0  0  0  0
   -5.1752   -0.5313    0.0000 H   0  0  0  0  0  0  0  0  0  0  0  0
   -3.2600    1.2600    0.0000 C   0  0  0  0  0  0  0  0  0  0  0  0
   -4.2803    2.3596    0.0000 H   0  0  0  0  0  0  0  0  0  0  0  0
   -1.8000    1.5900    0.0000 C   0  0  0  0  0  0  0  0  0  0  0  0
   -1.3735    3.0281    0.0000 H   0  0  0  0  0  0  0  0  0  0  0  0
    0.0000   -1.8100    0.0000 N   0  0  0  0  0  0  0  0  0  0  0  0
   -0.0077   -3.3100    0.0000 H   0  0  0  0  0  0  0  0  0  0  0  0
  1  2  1  0  0  0  0 
  1  3  1  0  0  0  0 
  1  4  1  0  0  0  0 
  1  5  1  0  0  0  0 
  5  6  1  0  0  0  0 
  6  7  2  0  0  0  0 
  7  8  1  0  0  0  0 
  7  9  1  0  0  0  0 
  9 10  1  0  0  0  0 
  9 11  2  0  0  0  0 
 11 12  1  0  0  0  0 
 12 13  1  0  0  0  0 
 12 14  2  0  0  0  0 
  6 14  1  0  0  0  0 
 14 15  1  0  0  0  0 
 11 16  1  0  0  0  0 
 16 17  2  0  0  0  0 
 16 18  2  0  0  0  0 
 16 19  1  0  0  0  0 
 19 20  1  0  0  0  0 
 20 21  1  0  0  0  0 
 20 22  1  0  0  0  0 
 20 23  1  0  0  0  0 
 23 24  2  0  0  0  0 
 24 25  1  0  0  0  0 
 25 26  1  0  0  0  0 
 25 27  2  0  0  0  0 
 19 27  1  0  0  0  0 
 27 28  1  0  0  0  0 
 28 29  2  0  0  0  0 
 28 30  1  0  0  0  0 
 30 31  1  0  0  0  0 
 30 32  1  0  0  0  0 
 24 33  1  0  0  0  0 
 33 34  2  0  0  0  0 
 34 35  1  0  0  0  0 
 35 36  1  0  0  0  0 
 35 37  2  0  0  0  0 
 37 38  1  0  0  0  0 
 37 39  1  0  0  0  0 
 39 40  1  0  0  0  0 
 39 41  2  0  0  0  0 
 33 41  1  0  0  0  0 
 41 42  1  0  0  0  0 
 34 43  1  0  0  0  0 
 23 43  1  0  0  0  0 
 43 44  1  0  0  0  0 
M  END
> <Rank>
24

> <Priority_score>
0.031200000000000002

> <Reaction_type>
alkyl dehydrogenation

> <Parent_ID>
47

> <Parent_InChI>
InChI=1S/C19H19N3O4S/c1-26-12-6-8-13(9-7-12)27(24,25)22-11-17-15(10-18(22)19(20)23)14-4-2-3-5-16(14)21-17/h2-9,18,21H,10-11H2,1H3,(H2,20,23)

> <Parent_SMILES>
COc1ccc(S(=O)(=O)N2Cc3[nH]c4ccccc4c3CC2C(N)=O)cc1

$$$$
Molecule 47_metabolite 25
  CDK     0516241031

 47 50  0  0  0  0  0  0  0  0999 V2000
    8.5113   -6.8738    0.0000 C   0  0  0  0  0  0  0  0  0  0  0  0
    8.9885   -8.2959    0.0000 H   0  0  0  0  0  0  0  0  0  0  0  0
    8.5493   -5.3743    0.0000 H   0  0  0  0  0  0  0  0  0  0  0  0
    9.9946   -6.6508    0.0000 H   0  0  0  0  0  0  0  0  0  0  0  0
    7.0412   -6.5760    0.0000 O   0  0  0  0  0  0  0  0  0  0  0  0
    6.5640   -5.1539    0.0000 C   0  0  0  0  0  0  0  0  0  0  0  0
    5.0929   -4.8565    0.0000 C   0  0  0  0  0  0  0  0  0  0  0  0
    4.1001   -5.9809    0.0000 H   0  0  0  0  0  0  0  0  0  0  0  0
    4.6157   -3.4344    0.0000 C   0  0  0  0  0  0  0  0  0  0  0  0
    3.1456   -3.1364    0.0000 H   0  0  0  0  0  0  0  0  0  0  0  0
    5.6096   -2.3098    0.0000 C   0  0  0  0  0  0  0  0  0  0  0  0
    7.0807   -2.6073    0.0000 C   0  0  0  0  0  0  0  0  0  0  0  0
    8.0734   -1.4828    0.0000 H   0  0  0  0  0  0  0  0  0  0  0  0
    7.5578   -4.0293    0.0000 C   0  0  0  0  0  0  0  0  0  0  0  0
    9.0279   -4.3274    0.0000 H   0  0  0  0  0  0  0  0  0  0  0  0
    5.1324   -0.8877    0.0000 S   0  0  0  0  0  0  0  0  0  0  0  0
    5.1704    0.6118    0.0000 O   0  0  0  0  0  0  0  0  0  0  0  0
    6.6157   -0.6647    0.0000 O   0  0  0  0  0  0  0  0  0  0  0  0
    3.1918   -0.4946    0.0000 N   0  0  0  0  0  0  0  0  0  0  0  0
    2.2318   -1.6146    0.0000 C   0  0  0  0  0  0  0  0  0  0  0  0
    1.6975   -3.0162    0.0000 H   0  0  0  0  0  0  0  0  0  0  0  0
    3.5211   -2.3813    0.0000 H   0  0  0  0  0  0  0  0  0  0  0  0
    0.7918   -1.3346    0.0000 C   0  0  0  0  0  0  0  0  0  0  0  0
    0.2318    0.0854    0.0000 C   0  0  0  0  0  0  0  0  0  0  0  0
    1.3018    1.1754    0.0000 C   0  0  0  0  0  0  0  0  0  0  0  0
    1.8551    2.5696    0.0000 H   0  0  0  0  0  0  0  0  0  0  0  0
    0.0446    1.9936    0.0000 H   0  0  0  0  0  0  0  0  0  0  0  0
    2.7418    0.9154    0.0000 C   0  0  0  0  0  0  0  0  0  0  0  0
    4.2258    1.1342    0.0000 H   0  0  0  0  0  0  0  0  0  0  0  0
    2.7737    2.8951    0.0000 C   0  0  0  0  0  0  0  0  0  0  0  0
    1.4869    3.6659    0.0000 O   0  0  0  0  0  0  0  0  0  0  0  0
    4.0847    3.6241    0.0000 N   0  0  0  0  0  0  0  0  0  0  0  0
    4.1088    5.1239    0.0000 H   0  0  0  0  0  0  0  0  0  0  0  0
    5.3715    2.8532    0.0000 H   0  0  0  0  0  0  0  0  0  0  0  0
   -1.1882    0.0854    0.0000 C   0  0  0  0  0  0  0  0  0  0  0  0
   -2.2782    1.2054    0.0000 C   0  0  0  0  0  0  0  0  0  0  0  0
   -3.7382    0.8754    0.0000 C   0  0  0  0  0  0  0  0  0  0  0  0
   -4.7585    1.9749    0.0000 H   0  0  0  0  0  0  0  0  0  0  0  0
   -4.1882   -0.5946    0.0000 C   0  0  0  0  0  0  0  0  0  0  0  0
   -5.6534   -0.9160    0.0000 H   0  0  0  0  0  0  0  0  0  0  0  0
   -3.1882   -1.7146    0.0000 C   0  0  0  0  0  0  0  0  0  0  0  0
   -3.6535   -3.1406    0.0000 H   0  0  0  0  0  0  0  0  0  0  0  0
   -1.6482   -1.3846    0.0000 C   0  0  0  0  0  0  0  0  0  0  0  0
   -0.4782   -2.1946    0.0000 N   0  0  0  0  0  0  0  0  0  0  0  0
   -0.4859   -3.6946    0.0000 H   0  0  0  0  0  0  0  0  0  0  0  0
   -1.8516    2.6434    0.0000 O   0  0  0  0  0  0  0  0  0  0  0  0
   -2.8838    3.7319    0.0000 H   0  0  0  0  0  0  0  0  0  0  0  0
  1  2  1  0  0  0  0 
  1  3  1  0  0  0  0 
  1  4  1  0  0  0  0 
  1  5  1  0  0  0  0 
  5  6  1  0  0  0  0 
  6  7  2  0  0  0  0 
  7  8  1  0  0  0  0 
  7  9  1  0  0  0  0 
  9 10  1  0  0  0  0 
  9 11  2  0  0  0  0 
 11 12  1  0  0  0  0 
 12 13  1  0  0  0  0 
 12 14  2  0  0  0  0 
  6 14  1  0  0  0  0 
 14 15  1  0  0  0  0 
 11 16  1  0  0  0  0 
 16 17  2  0  0  0  0 
 16 18  2  0  0  0  0 
 16 19  1  0  0  0  0 
 19 20  1  0  0  0  0 
 20 21  1  0  0  0  0 
 20 22  1  0  0  0  0 
 20 23  1  0  0  0  0 
 23 24  2  0  0  0  0 
 24 25  1  0  0  0  0 
 25 26  1  0  0  0  0 
 25 27  1  0  0  0  0 
 25 28  1  0  0  0  0 
 19 28  1  0  0  0  0 
 28 29  1  0  0  0  0 
 28 30  1  0  0  0  0 
 30 31  2  0  0  0  0 
 30 32  1  0  0  0  0 
 32 33  1  0  0  0  0 
 32 34  1  0  0  0  0 
 24 35  1  0  0  0  0 
 35 36  2  0  0  0  0 
 36 37  1  0  0  0  0 
 37 38  1  0  0  0  0 
 37 39  2  0  0  0  0 
 39 40  1  0  0  0  0 
 39 41  1  0  0  0  0 
 41 42  1  0  0  0  0 
 41 43  2  0  0  0  0 
 35 43  1  0  0  0  0 
 43 44  1  0  0  0  0 
 23 44  1  0  0  0  0 
 44 45  1  0  0  0  0 
 36 46  1  0  0  0  0 
 46 47  1  0  0  0  0 
M  END
> <Rank>
25

> <Priority_score>
0.028

> <Reaction_type>
aromatic hydroxylation

> <Parent_ID>
47

> <Parent_InChI>
InChI=1S/C19H19N3O4S/c1-26-12-6-8-13(9-7-12)27(24,25)22-11-17-15(10-18(22)19(20)23)14-4-2-3-5-16(14)21-17/h2-9,18,21H,10-11H2,1H3,(H2,20,23)

> <Parent_SMILES>
COc1ccc(S(=O)(=O)N2Cc3[nH]c4ccccc4c3CC2C(N)=O)cc1

$$$$
Molecule 47_metabolite 26
  CDK     0516241031

 45 48  0  0  0  0  0  0  0  0999 V2000
    8.5190   -6.3939    0.0000 C   0  0  0  0  0  0  0  0  0  0  0  0
    8.9962   -7.8159    0.0000 H   0  0  0  0  0  0  0  0  0  0  0  0
    8.5570   -4.8943    0.0000 H   0  0  0  0  0  0  0  0  0  0  0  0
   10.0024   -6.1709    0.0000 H   0  0  0  0  0  0  0  0  0  0  0  0
    7.0489   -6.0961    0.0000 O   0  0  0  0  0  0  0  0  0  0  0  0
    6.5717   -4.6740    0.0000 C   0  0  0  0  0  0  0  0  0  0  0  0
    5.1007   -4.3765    0.0000 C   0  0  0  0  0  0  0  0  0  0  0  0
    4.1079   -5.5010    0.0000 H   0  0  0  0  0  0  0  0  0  0  0  0
    4.6235   -2.9545    0.0000 C   0  0  0  0  0  0  0  0  0  0  0  0
    3.1534   -2.6564    0.0000 H   0  0  0  0  0  0  0  0  0  0  0  0
    5.6173   -1.8299    0.0000 C   0  0  0  0  0  0  0  0  0  0  0  0
    7.0884   -2.1273    0.0000 C   0  0  0  0  0  0  0  0  0  0  0  0
    8.0812   -1.0029    0.0000 H   0  0  0  0  0  0  0  0  0  0  0  0
    7.5656   -3.5494    0.0000 C   0  0  0  0  0  0  0  0  0  0  0  0
    9.0357   -3.8474    0.0000 H   0  0  0  0  0  0  0  0  0  0  0  0
    5.1401   -0.4078    0.0000 S   0  0  0  0  0  0  0  0  0  0  0  0
    5.1781    1.0917    0.0000 O   0  0  0  0  0  0  0  0  0  0  0  0
    6.6235   -0.1848    0.0000 O   0  0  0  0  0  0  0  0  0  0  0  0
    3.6700   -0.1100    0.0000 N   0  0  0  0  0  0  0  0  0  0  0  0
    3.2200    1.3000    0.0000 C   0  0  0  0  0  0  0  0  0  0  0  0
    1.7800    1.5600    0.0000 C   0  0  0  0  0  0  0  0  0  0  0  0
    2.3333    2.9542    0.0000 H   0  0  0  0  0  0  0  0  0  0  0  0
    0.5228    2.3782    0.0000 H   0  0  0  0  0  0  0  0  0  0  0  0
    0.7100    0.4700    0.0000 C   0  0  0  0  0  0  0  0  0  0  0  0
    1.2700   -0.9500    0.0000 C   0  0  0  0  0  0  0  0  0  0  0  0
    2.7100   -1.2300    0.0000 C   0  0  0  0  0  0  0  0  0  0  0  0
    2.1756   -2.6316    0.0000 H   0  0  0  0  0  0  0  0  0  0  0  0
    3.9993   -1.9966    0.0000 H   0  0  0  0  0  0  0  0  0  0  0  0
    0.0000   -1.8100    0.0000 N   0  0  0  0  0  0  0  0  0  0  0  0
   -0.0077   -3.3100    0.0000 H   0  0  0  0  0  0  0  0  0  0  0  0
   -1.1700   -1.0000    0.0000 C   0  0  0  0  0  0  0  0  0  0  0  0
   -0.7100    0.4700    0.0000 C   0  0  0  0  0  0  0  0  0  0  0  0
   -1.8000    1.5900    0.0000 C   0  0  0  0  0  0  0  0  0  0  0  0
   -1.3735    3.0281    0.0000 H   0  0  0  0  0  0  0  0  0  0  0  0
   -3.2600    1.2600    0.0000 C   0  0  0  0  0  0  0  0  0  0  0  0
   -4.2803    2.3596    0.0000 H   0  0  0  0  0  0  0  0  0  0  0  0
   -3.7100   -0.2100    0.0000 C   0  0  0  0  0  0  0  0  0  0  0  0
   -5.1752   -0.5313    0.0000 H   0  0  0  0  0  0  0  0  0  0  0  0
   -2.7100   -1.3300    0.0000 C   0  0  0  0  0  0  0  0  0  0  0  0
   -3.1753   -2.7560    0.0000 H   0  0  0  0  0  0  0  0  0  0  0  0
    4.2094    2.4275    0.0000 C   0  0  0  0  0  0  0  0  0  0  0  0
    5.6804    2.1344    0.0000 O   0  0  0  0  0  0  0  0  0  0  0  0
    3.7276    3.8480    0.0000 N   0  0  0  0  0  0  0  0  0  0  0  0
    4.7170    4.9755    0.0000 H   0  0  0  0  0  0  0  0  0  0  0  0
    2.2565    4.1411    0.0000 H   0  0  0  0  0  0  0  0  0  0  0  0
  1  2  1  0  0  0  0 
  1  3  1  0  0  0  0 
  1  4  1  0  0  0  0 
  1  5  1  0  0  0  0 
  5  6  1  0  0  0  0 
  6  7  2  0  0  0  0 
  7  8  1  0  0  0  0 
  7  9  1  0  0  0  0 
  9 10  1  0  0  0  0 
  9 11  2  0  0  0  0 
 11 12  1  0  0  0  0 
 12 13  1  0  0  0  0 
 12 14  2  0  0  0  0 
  6 14  1  0  0  0  0 
 14 15  1  0  0  0  0 
 11 16  1  0  0  0  0 
 16 17  2  0  0  0  0 
 16 18  2  0  0  0  0 
 16 19  1  0  0  0  0 
 19 20  2  0  0  0  0 
 20 21  1  0  0  0  0 
 21 22  1  0  0  0  0 
 21 23  1  0  0  0  0 
 21 24  1  0  0  0  0 
 24 25  2  0  0  0  0 
 25 26  1  0  0  0  0 
 19 26  1  0  0  0  0 
 26 27  1  0  0  0  0 
 26 28  1  0  0  0  0 
 25 29  1  0  0  0  0 
 29 30  1  0  0  0  0 
 29 31  1  0  0  0  0 
 31 32  2  0  0  0  0 
 24 32  1  0  0  0  0 
 32 33  1  0  0  0  0 
 33 34  1  0  0  0  0 
 33 35  2  0  0  0  0 
 35 36  1  0  0  0  0 
 35 37  1  0  0  0  0 
 37 38  1  0  0  0  0 
 37 39  2  0  0  0  0 
 31 39  1  0  0  0  0 
 39 40  1  0  0  0  0 
 20 41  1  0  0  0  0 
 41 42  2  0  0  0  0 
 41 43  1  0  0  0  0 
 43 44  1  0  0  0  0 
 43 45  1  0  0  0  0 
M  CHG  1  19   1
M  END
> <Rank>
26

> <Priority_score>
0.0216

> <Reaction_type>
dehydration of N-C bond

> <Parent_ID>
47

> <Parent_InChI>
InChI=1S/C19H19N3O4S/c1-26-12-6-8-13(9-7-12)27(24,25)22-11-17-15(10-18(22)19(20)23)14-4-2-3-5-16(14)21-17/h2-9,18,21H,10-11H2,1H3,(H2,20,23)

> <Parent_SMILES>
COc1ccc(S(=O)(=O)N2Cc3[nH]c4ccccc4c3CC2C(N)=O)cc1

$$$$
Molecule 47_metabolite 27
  CDK     0516241031

 47 50  0  0  0  0  0  0  0  0999 V2000
    6.0501   -7.7014    0.0000 C   0  0  0  0  0  0  0  0  0  0  0  0
    6.5273   -9.1235    0.0000 H   0  0  0  0  0  0  0  0  0  0  0  0
    5.1153   -6.5283    0.0000 H   0  0  0  0  0  0  0  0  0  0  0  0
    4.7325   -8.4183    0.0000 H   0  0  0  0  0  0  0  0  0  0  0  0
    7.0431   -6.5771    0.0000 O   0  0  0  0  0  0  0  0  0  0  0  0
    6.5659   -5.1551    0.0000 C   0  0  0  0  0  0  0  0  0  0  0  0
    5.0950   -4.8569    0.0000 C   0  0  0  0  0  0  0  0  0  0  0  0
    4.1022   -5.9813    0.0000 H   0  0  0  0  0  0  0  0  0  0  0  0
    4.6168   -3.4342    0.0000 C   0  0  0  0  0  0  0  0  0  0  0  0
    3.1466   -3.1369    0.0000 H   0  0  0  0  0  0  0  0  0  0  0  0
    5.6096   -2.3098    0.0000 C   0  0  0  0  0  0  0  0  0  0  0  0
    7.0805   -2.6080    0.0000 C   0  0  0  0  0  0  0  0  0  0  0  0
    7.5587   -4.0306    0.0000 C   0  0  0  0  0  0  0  0  0  0  0  0
    9.0289   -4.3279    0.0000 H   0  0  0  0  0  0  0  0  0  0  0  0
    8.0733   -1.4835    0.0000 O   0  0  0  0  0  0  0  0  0  0  0  0
    9.5435   -1.7811    0.0000 H   0  0  0  0  0  0  0  0  0  0  0  0
    5.1324   -0.8877    0.0000 S   0  0  0  0  0  0  0  0  0  0  0  0
    5.1704    0.6118    0.0000 O   0  0  0  0  0  0  0  0  0  0  0  0
    6.6157   -0.6647    0.0000 O   0  0  0  0  0  0  0  0  0  0  0  0
    3.1918   -0.4946    0.0000 N   0  0  0  0  0  0  0  0  0  0  0  0
    2.2318   -1.6146    0.0000 C   0  0  0  0  0  0  0  0  0  0  0  0
    1.6975   -3.0162    0.0000 H   0  0  0  0  0  0  0  0  0  0  0  0
    3.5211   -2.3813    0.0000 H   0  0  0  0  0  0  0  0  0  0  0  0
    0.7918   -1.3346    0.0000 C   0  0  0  0  0  0  0  0  0  0  0  0
    0.2318    0.0854    0.0000 C   0  0  0  0  0  0  0  0  0  0  0  0
    1.3018    1.1754    0.0000 C   0  0  0  0  0  0  0  0  0  0  0  0
    1.8551    2.5696    0.0000 H   0  0  0  0  0  0  0  0  0  0  0  0
    0.0446    1.9936    0.0000 H   0  0  0  0  0  0  0  0  0  0  0  0
    2.7418    0.9154    0.0000 C   0  0  0  0  0  0  0  0  0  0  0  0
    4.2258    1.1342    0.0000 H   0  0  0  0  0  0  0  0  0  0  0  0
    2.7737    2.8951    0.0000 C   0  0  0  0  0  0  0  0  0  0  0  0
    1.4869    3.6659    0.0000 O   0  0  0  0  0  0  0  0  0  0  0  0
    4.0847    3.6241    0.0000 N   0  0  0  0  0  0  0  0  0  0  0  0
    4.1088    5.1239    0.0000 H   0  0  0  0  0  0  0  0  0  0  0  0
    5.3715    2.8532    0.0000 H   0  0  0  0  0  0  0  0  0  0  0  0
   -1.1882    0.0854    0.0000 C   0  0  0  0  0  0  0  0  0  0  0  0
   -1.6482   -1.3846    0.0000 C   0  0  0  0  0  0  0  0  0  0  0  0
   -3.1882   -1.7146    0.0000 C   0  0  0  0  0  0  0  0  0  0  0  0
   -3.6535   -3.1406    0.0000 H   0  0  0  0  0  0  0  0  0  0  0  0
   -4.1882   -0.5946    0.0000 C   0  0  0  0  0  0  0  0  0  0  0  0
   -5.6534   -0.9160    0.0000 H   0  0  0  0  0  0  0  0  0  0  0  0
   -3.7382    0.8754    0.0000 C   0  0  0  0  0  0  0  0  0  0  0  0
   -4.7585    1.9749    0.0000 H   0  0  0  0  0  0  0  0  0  0  0  0
   -2.2782    1.2054    0.0000 C   0  0  0  0  0  0  0  0  0  0  0  0
   -1.8516    2.6434    0.0000 H   0  0  0  0  0  0  0  0  0  0  0  0
   -0.4782   -2.1946    0.0000 N   0  0  0  0  0  0  0  0  0  0  0  0
   -0.4859   -3.6946    0.0000 H   0  0  0  0  0  0  0  0  0  0  0  0
  1  2  1  0  0  0  0 
  1  3  1  0  0  0  0 
  1  4  1  0  0  0  0 
  1  5  1  0  0  0  0 
  5  6  1  0  0  0  0 
  6  7  2  0  0  0  0 
  7  8  1  0  0  0  0 
  7  9  1  0  0  0  0 
  9 10  1  0  0  0  0 
  9 11  2  0  0  0  0 
 11 12  1  0  0  0  0 
 12 13  2  0  0  0  0 
  6 13  1  0  0  0  0 
 13 14  1  0  0  0  0 
 12 15  1  0  0  0  0 
 15 16  1  0  0  0  0 
 11 17  1  0  0  0  0 
 17 18  2  0  0  0  0 
 17 19  2  0  0  0  0 
 17 20  1  0  0  0  0 
 20 21  1  0  0  0  0 
 21 22  1  0  0  0  0 
 21 23  1  0  0  0  0 
 21 24  1  0  0  0  0 
 24 25  2  0  0  0  0 
 25 26  1  0  0  0  0 
 26 27  1  0  0  0  0 
 26 28  1  0  0  0  0 
 26 29  1  0  0  0  0 
 20 29  1  0  0  0  0 
 29 30  1  0  0  0  0 
 29 31  1  0  0  0  0 
 31 32  2  0  0  0  0 
 31 33  1  0  0  0  0 
 33 34  1  0  0  0  0 
 33 35  1  0  0  0  0 
 25 36  1  0  0  0  0 
 36 37  2  0  0  0  0 
 37 38  1  0  0  0  0 
 38 39  1  0  0  0  0 
 38 40  2  0  0  0  0 
 40 41  1  0  0  0  0 
 40 42  1  0  0  0  0 
 42 43  1  0  0  0  0 
 42 44  2  0  0  0  0 
 36 44  1  0  0  0  0 
 44 45  1  0  0  0  0 
 37 46  1  0  0  0  0 
 24 46  1  0  0  0  0 
 46 47  1  0  0  0  0 
M  END
> <Rank>
27

> <Priority_score>
0.008

> <Reaction_type>
aromatic hydroxylation

> <Parent_ID>
47

> <Parent_InChI>
InChI=1S/C19H19N3O4S/c1-26-12-6-8-13(9-7-12)27(24,25)22-11-17-15(10-18(22)19(20)23)14-4-2-3-5-16(14)21-17/h2-9,18,21H,10-11H2,1H3,(H2,20,23)

> <Parent_SMILES>
COc1ccc(S(=O)(=O)N2Cc3[nH]c4ccccc4c3CC2C(N)=O)cc1

$$$$
Molecule 48
  CDK     0516241031

 18 19  0  0  0  0  0  0  0  0999 V2000
   -3.8981    6.0000    0.0000 C   0  0  0  0  0  0  0  0  0  0  0  0
   -2.5990    5.2500    0.0000 C   0  0  0  0  0  0  0  0  0  0  0  0
   -2.5990    3.7500    0.0000 C   0  0  0  0  0  0  0  0  0  0  0  0
   -1.3000    3.0000    0.0000 C   0  0  0  0  0  0  0  0  0  0  0  0
   -1.3000    1.5000    0.0000 C   0  0  0  0  0  0  0  0  0  0  0  0
   -2.6000    0.7500    0.0000 C   0  0  0  0  0  0  0  0  0  0  0  0
   -2.6000   -0.7500    0.0000 C   0  0  0  0  0  0  0  0  0  0  0  0
   -1.3000   -1.5000    0.0000 C   0  0  0  0  0  0  0  0  0  0  0  0
    0.0000   -0.7500    0.0000 C   0  0  0  0  0  0  0  0  0  0  0  0
    0.0000    0.7500    0.0000 C   0  0  0  0  0  0  0  0  0  0  0  0
    1.3000    1.5000    0.0000 O   0  0  0  0  0  0  0  0  0  0  0  0
    2.6000    0.7500    0.0000 C   0  0  0  0  0  0  0  0  0  0  0  0
    3.8989    1.5002    0.0000 O   0  0  0  0  0  0  0  0  0  0  0  0
    2.6000   -0.7500    0.0000 C   0  0  0  0  0  0  0  0  0  0  0  0
    1.3000   -1.5000    0.0000 C   0  0  0  0  0  0  0  0  0  0  0  0
   -3.8989    1.5002    0.0000 O   0  0  0  0  0  0  0  0  0  0  0  0
   -5.1981    0.7504    0.0000 C   0  0  0  0  0  0  0  0  0  0  0  0
   -1.3000    6.0000    0.0000 C   0  0  0  0  0  0  0  0  0  0  0  0
  1  2  1  0  0  0  0 
  2  3  2  0  0  0  0 
  3  4  1  0  0  0  0 
  4  5  1  0  0  0  0 
  5  6  2  0  0  0  0 
  6  7  1  0  0  0  0 
  7  8  2  0  0  0  0 
  8  9  1  0  0  0  0 
  9 10  2  0  0  0  0 
  5 10  1  0  0  0  0 
 10 11  1  0  0  0  0 
 11 12  1  0  0  0  0 
 12 13  2  0  0  0  0 
 12 14  1  0  0  0  0 
 14 15  2  0  0  0  0 
  9 15  1  0  0  0  0 
  6 16  1  0  0  0  0 
 16 17  1  0  0  0  0 
  2 18  1  0  0  0  0 
M  END
> <SMILES>
COc1ccc2ccc(=O)oc2c1CC=C(C)C

$$$$
Molecule 48_metabolite 1
  CDK     0516241031

 34 35  0  0  0  0  0  0  0  0999 V2000
   -1.3000    6.0000    0.0000 C   0  0  0  0  0  0  0  0  0  0  0  0
   -0.0010    5.2500    0.0000 H   0  0  0  0  0  0  0  0  0  0  0  0
   -2.2642    7.1491    0.0000 H   0  0  0  0  0  0  0  0  0  0  0  0
   -0.3358    7.1491    0.0000 H   0  0  0  0  0  0  0  0  0  0  0  0
   -2.5990    5.2500    0.0000 C   0  0  0  0  0  0  0  0  0  0  0  0
   -2.5990    3.7500    0.0000 C   0  0  0  0  0  0  0  0  0  0  0  0
   -3.8981    3.0000    0.0000 H   0  0  0  0  0  0  0  0  0  0  0  0
   -1.3000    3.0000    0.0000 C   0  0  0  0  0  0  0  0  0  0  0  0
    0.1772    2.7395    0.0000 H   0  0  0  0  0  0  0  0  0  0  0  0
   -0.7870    4.4095    0.0000 H   0  0  0  0  0  0  0  0  0  0  0  0
   -1.3000    1.5000    0.0000 C   0  0  0  0  0  0  0  0  0  0  0  0
   -2.6000    0.7500    0.0000 C   0  0  0  0  0  0  0  0  0  0  0  0
   -2.6000   -0.7500    0.0000 C   0  0  0  0  0  0  0  0  0  0  0  0
   -3.8989   -1.5002    0.0000 H   0  0  0  0  0  0  0  0  0  0  0  0
   -1.3000   -1.5000    0.0000 C   0  0  0  0  0  0  0  0  0  0  0  0
   -1.3000   -3.0000    0.0000 H   0  0  0  0  0  0  0  0  0  0  0  0
    0.0000   -0.7500    0.0000 C   0  0  0  0  0  0  0  0  0  0  0  0
    0.0000    0.7500    0.0000 C   0  0  0  0  0  0  0  0  0  0  0  0
    1.3000    1.5000    0.0000 O   0  0  0  0  0  0  0  0  0  0  0  0
    2.6000    0.7500    0.0000 C   0  0  0  0  0  0  0  0  0  0  0  0
    3.8989    1.5002    0.0000 O   0  0  0  0  0  0  0  0  0  0  0  0
    2.6000   -0.7500    0.0000 C   0  0  0  0  0  0  0  0  0  0  0  0
    3.8989   -1.5002    0.0000 H   0  0  0  0  0  0  0  0  0  0  0  0
    1.3000   -1.5000    0.0000 C   0  0  0  0  0  0  0  0  0  0  0  0
    1.3000   -3.0000    0.0000 H   0  0  0  0  0  0  0  0  0  0  0  0
   -3.8989    1.5002    0.0000 O   0  0  0  0  0  0  0  0  0  0  0  0
   -5.1981    0.7504    0.0000 C   0  0  0  0  0  0  0  0  0  0  0  0
   -6.4970    1.5006    0.0000 H   0  0  0  0  0  0  0  0  0  0  0  0
   -6.1624   -0.3985    0.0000 H   0  0  0  0  0  0  0  0  0  0  0  0
   -4.2341   -0.3988    0.0000 H   0  0  0  0  0  0  0  0  0  0  0  0
   -3.8981    6.0000    0.0000 C   0  0  0  0  0  0  0  0  0  0  0  0
   -5.1971    5.2500    0.0000 O   0  0  0  0  0  0  0  0  0  0  0  0
   -3.8981    7.5000    0.0000 O   0  0  0  0  0  0  0  0  0  0  0  0
   -5.1971    8.2500    0.0000 H   0  0  0  0  0  0  0  0  0  0  0  0
  1  2  1  0  0  0  0 
  1  3  1  0  0  0  0 
  1  4  1  0  0  0  0 
  1  5  1  0  0  0  0 
  5  6  2  0  0  0  0 
  6  7  1  4  0  0  0 
  6  8  1  0  0  0  0 
  8  9  1  0  0  0  0 
  8 10  1  0  0  0  0 
  8 11  1  0  0  0  0 
 11 12  2  0  0  0  0 
 12 13  1  0  0  0  0 
 13 14  1  0  0  0  0 
 13 15  2  0  0  0  0 
 15 16  1  0  0  0  0 
 15 17  1  0  0  0  0 
 17 18  2  0  0  0  0 
 11 18  1  0  0  0  0 
 18 19  1  0  0  0  0 
 19 20  1  0  0  0  0 
 20 21  2  0  0  0  0 
 20 22  1  0  0  0  0 
 22 23  1  0  0  0  0 
 22 24  2  0  0  0  0 
 17 24  1  0  0  0  0 
 24 25  1  0  0  0  0 
 12 26  1  0  0  0  0 
 26 27  1  0  0  0  0 
 27 28  1  0  0  0  0 
 27 29  1  0  0  0  0 
 27 30  1  0  0  0  0 
  5 31  1  0  0  0  0 
 31 32  2  0  0  0  0 
 31 33  1  0  0  0  0 
 33 34  1  0  0  0  0 
M  END
> <Rank>
1

> <Priority_score>
0.832

> <Reaction_type>
carboxylation_(primary_carbon_next_to_SP2)

> <Parent_ID>
48

> <Parent_InChI>
InChI=1S/C15H16O3/c1-10(2)4-7-12-13(17-3)8-5-11-6-9-14(16)18-15(11)12/h4-6,8-9H,7H2,1-3H3

> <Parent_SMILES>
COc1ccc2ccc(=O)oc2c1CC=C(C)C

$$$$
Molecule 48_metabolite 2
  CDK     0516241031

 35 36  0  0  0  0  0  0  0  0999 V2000
   -1.3000    6.0000    0.0000 C   0  0  0  0  0  0  0  0  0  0  0  0
   -0.0010    5.2500    0.0000 H   0  0  0  0  0  0  0  0  0  0  0  0
   -2.2642    7.1491    0.0000 H   0  0  0  0  0  0  0  0  0  0  0  0
   -0.3358    7.1491    0.0000 H   0  0  0  0  0  0  0  0  0  0  0  0
   -2.5990    5.2500    0.0000 C   0  0  0  0  0  0  0  0  0  0  0  0
   -2.5990    3.7500    0.0000 C   0  0  0  0  0  0  0  0  0  0  0  0
   -3.8981    3.0000    0.0000 H   0  0  0  0  0  0  0  0  0  0  0  0
   -1.3000    3.0000    0.0000 C   0  0  0  0  0  0  0  0  0  0  0  0
    0.1772    2.7395    0.0000 H   0  0  0  0  0  0  0  0  0  0  0  0
   -0.7870    4.4095    0.0000 H   0  0  0  0  0  0  0  0  0  0  0  0
   -1.3000    1.5000    0.0000 C   0  0  0  0  0  0  0  0  0  0  0  0
   -2.6000    0.7500    0.0000 C   0  0  0  0  0  0  0  0  0  0  0  0
   -2.6000   -0.7500    0.0000 C   0  0  0  0  0  0  0  0  0  0  0  0
   -3.8989   -1.5002    0.0000 H   0  0  0  0  0  0  0  0  0  0  0  0
   -1.3000   -1.5000    0.0000 C   0  0  0  0  0  0  0  0  0  0  0  0
   -1.3000   -3.0000    0.0000 H   0  0  0  0  0  0  0  0  0  0  0  0
    0.0000   -0.7500    0.0000 C   0  0  0  0  0  0  0  0  0  0  0  0
    0.0000    0.7500    0.0000 C   0  0  0  0  0  0  0  0  0  0  0  0
    1.3000    1.5000    0.0000 O   0  0  0  0  0  0  0  0  0  0  0  0
    2.6000    0.7500    0.0000 C   0  0  0  0  0  0  0  0  0  0  0  0
    3.8989    1.5002    0.0000 O   0  0  0  0  0  0  0  0  0  0  0  0
    2.6000   -0.7500    0.0000 C   0  0  0  0  0  0  0  0  0  0  0  0
    3.8989   -1.5002    0.0000 H   0  0  0  0  0  0  0  0  0  0  0  0
    1.3000   -1.5000    0.0000 C   0  0  0  0  0  0  0  0  0  0  0  0
    1.3000   -3.0000    0.0000 H   0  0  0  0  0  0  0  0  0  0  0  0
   -3.8989    1.5002    0.0000 O   0  0  0  0  0  0  0  0  0  0  0  0
   -5.1981    0.7504    0.0000 C   0  0  0  0  0  0  0  0  0  0  0  0
   -6.4970    1.5006    0.0000 H   0  0  0  0  0  0  0  0  0  0  0  0
   -6.1624   -0.3985    0.0000 H   0  0  0  0  0  0  0  0  0  0  0  0
   -4.2341   -0.3988    0.0000 H   0  0  0  0  0  0  0  0  0  0  0  0
   -3.8981    6.0000    0.0000 C   0  0  0  0  0  0  0  0  0  0  0  0
   -5.3753    6.2605    0.0000 H   0  0  0  0  0  0  0  0  0  0  0  0
   -4.4111    4.5905    0.0000 H   0  0  0  0  0  0  0  0  0  0  0  0
   -3.8981    7.5000    0.0000 O   0  0  0  0  0  0  0  0  0  0  0  0
   -5.1971    8.2500    0.0000 H   0  0  0  0  0  0  0  0  0  0  0  0
  1  2  1  0  0  0  0 
  1  3  1  0  0  0  0 
  1  4  1  0  0  0  0 
  1  5  1  0  0  0  0 
  5  6  2  0  0  0  0 
  6  7  1  4  0  0  0 
  6  8  1  0  0  0  0 
  8  9  1  0  0  0  0 
  8 10  1  0  0  0  0 
  8 11  1  0  0  0  0 
 11 12  2  0  0  0  0 
 12 13  1  0  0  0  0 
 13 14  1  0  0  0  0 
 13 15  2  0  0  0  0 
 15 16  1  0  0  0  0 
 15 17  1  0  0  0  0 
 17 18  2  0  0  0  0 
 11 18  1  0  0  0  0 
 18 19  1  0  0  0  0 
 19 20  1  0  0  0  0 
 20 21  2  0  0  0  0 
 20 22  1  0  0  0  0 
 22 23  1  0  0  0  0 
 22 24  2  0  0  0  0 
 17 24  1  0  0  0  0 
 24 25  1  0  0  0  0 
 12 26  1  0  0  0  0 
 26 27  1  0  0  0  0 
 27 28  1  0  0  0  0 
 27 29  1  0  0  0  0 
 27 30  1  0  0  0  0 
  5 31  1  0  0  0  0 
 31 32  1  0  0  0  0 
 31 33  1  0  0  0  0 
 31 34  1  0  0  0  0 
 34 35  1  0  0  0  0 
M  END
> <Rank>
1

> <Priority_score>
0.832

> <Reaction_type>
aliphatic_hydroxylation_(primary_carbon_next_to_SP2_or_SP1)

> <Parent_ID>
48

> <Parent_InChI>
InChI=1S/C15H16O3/c1-10(2)4-7-12-13(17-3)8-5-11-6-9-14(16)18-15(11)12/h4-6,8-9H,7H2,1-3H3

> <Parent_SMILES>
COc1ccc2ccc(=O)oc2c1CC=C(C)C

$$$$
Molecule 48_metabolite 3
  CDK     0516241031

 35 37  0  0  0  0  0  0  0  0999 V2000
   -1.0101    5.1271    0.0000 C   0  0  0  0  0  0  0  0  0  0  0  0
   -0.0407    6.2717    0.0000 H   0  0  0  0  0  0  0  0  0  0  0  0
   -1.5296    3.7199    0.0000 H   0  0  0  0  0  0  0  0  0  0  0  0
    0.2854    4.3711    0.0000 H   0  0  0  0  0  0  0  0  0  0  0  0
   -2.4861    5.3943    0.0000 C   0  0  0  0  0  0  0  0  0  0  0  0
   -2.4887    6.8943    0.0000 C   0  0  0  0  0  0  0  0  0  0  0  0
   -3.7891    7.6421    0.0000 H   0  0  0  0  0  0  0  0  0  0  0  0
   -1.0111    6.6364    0.0000 H   0  0  0  0  0  0  0  0  0  0  0  0
   -1.9782    8.3048    0.0000 H   0  0  0  0  0  0  0  0  0  0  0  0
   -3.0147    3.9900    0.0000 C   0  0  0  0  0  0  0  0  0  0  0  0
   -3.9663    2.8305    0.0000 H   0  0  0  0  0  0  0  0  0  0  0  0
   -1.3000    3.0000    0.0000 C   0  0  0  0  0  0  0  0  0  0  0  0
    0.1772    2.7395    0.0000 H   0  0  0  0  0  0  0  0  0  0  0  0
   -0.7870    4.4095    0.0000 H   0  0  0  0  0  0  0  0  0  0  0  0
   -1.3000    1.5000    0.0000 C   0  0  0  0  0  0  0  0  0  0  0  0
   -2.6000    0.7500    0.0000 C   0  0  0  0  0  0  0  0  0  0  0  0
   -2.6000   -0.7500    0.0000 C   0  0  0  0  0  0  0  0  0  0  0  0
   -3.8989   -1.5002    0.0000 H   0  0  0  0  0  0  0  0  0  0  0  0
   -1.3000   -1.5000    0.0000 C   0  0  0  0  0  0  0  0  0  0  0  0
   -1.3000   -3.0000    0.0000 H   0  0  0  0  0  0  0  0  0  0  0  0
    0.0000   -0.7500    0.0000 C   0  0  0  0  0  0  0  0  0  0  0  0
    0.0000    0.7500    0.0000 C   0  0  0  0  0  0  0  0  0  0  0  0
    1.3000    1.5000    0.0000 O   0  0  0  0  0  0  0  0  0  0  0  0
    2.6000    0.7500    0.0000 C   0  0  0  0  0  0  0  0  0  0  0  0
    3.8989    1.5002    0.0000 O   0  0  0  0  0  0  0  0  0  0  0  0
    2.6000   -0.7500    0.0000 C   0  0  0  0  0  0  0  0  0  0  0  0
    3.8989   -1.5002    0.0000 H   0  0  0  0  0  0  0  0  0  0  0  0
    1.3000   -1.5000    0.0000 C   0  0  0  0  0  0  0  0  0  0  0  0
    1.3000   -3.0000    0.0000 H   0  0  0  0  0  0  0  0  0  0  0  0
   -3.8989    1.5002    0.0000 O   0  0  0  0  0  0  0  0  0  0  0  0
   -5.1981    0.7504    0.0000 C   0  0  0  0  0  0  0  0  0  0  0  0
   -6.4970    1.5006    0.0000 H   0  0  0  0  0  0  0  0  0  0  0  0
   -6.1624   -0.3985    0.0000 H   0  0  0  0  0  0  0  0  0  0  0  0
   -4.2341   -0.3988    0.0000 H   0  0  0  0  0  0  0  0  0  0  0  0
   -4.0011    5.1146    0.0000 O   0  0  0  0  0  0  0  0  0  0  0  0
  1  2  1  0  0  0  0 
  1  3  1  0  0  0  0 
  1  4  1  0  0  0  0 
  1  5  1  0  0  0  0 
  5  6  1  0  0  0  0 
  6  7  1  0  0  0  0 
  6  8  1  0  0  0  0 
  6  9  1  0  0  0  0 
  5 10  1  0  0  0  0 
 10 11  1  0  0  0  0 
 10 12  1  0  0  0  0 
 12 13  1  0  0  0  0 
 12 14  1  0  0  0  0 
 12 15  1  0  0  0  0 
 15 16  2  0  0  0  0 
 16 17  1  0  0  0  0 
 17 18  1  0  0  0  0 
 17 19  2  0  0  0  0 
 19 20  1  0  0  0  0 
 19 21  1  0  0  0  0 
 21 22  2  0  0  0  0 
 15 22  1  0  0  0  0 
 22 23  1  0  0  0  0 
 23 24  1  0  0  0  0 
 24 25  2  0  0  0  0 
 24 26  1  0  0  0  0 
 26 27  1  0  0  0  0 
 26 28  2  0  0  0  0 
 21 28  1  0  0  0  0 
 28 29  1  0  0  0  0 
 16 30  1  0  0  0  0 
 30 31  1  0  0  0  0 
 31 32  1  0  0  0  0 
 31 33  1  0  0  0  0 
 31 34  1  0  0  0  0 
 10 35  1  0  0  0  0 
  5 35  1  0  0  0  0 
M  END
> <Rank>
3

> <Priority_score>
0.772

> <Reaction_type>
epoxidation

> <Parent_ID>
48

> <Parent_InChI>
InChI=1S/C15H16O3/c1-10(2)4-7-12-13(17-3)8-5-11-6-9-14(16)18-15(11)12/h4-6,8-9H,7H2,1-3H3

> <Parent_SMILES>
COc1ccc2ccc(=O)oc2c1CC=C(C)C

$$$$
Molecule 48_metabolite 4
  CDK     0516241031

 35 36  0  0  0  0  0  0  0  0999 V2000
   -3.8981    6.0000    0.0000 C   0  0  0  0  0  0  0  0  0  0  0  0
   -3.8981    7.5000    0.0000 H   0  0  0  0  0  0  0  0  0  0  0  0
   -5.3753    6.2605    0.0000 H   0  0  0  0  0  0  0  0  0  0  0  0
   -4.4111    4.5905    0.0000 H   0  0  0  0  0  0  0  0  0  0  0  0
   -2.5990    5.2500    0.0000 C   0  0  0  0  0  0  0  0  0  0  0  0
   -2.5990    3.7500    0.0000 C   0  0  0  0  0  0  0  0  0  0  0  0
   -3.8981    3.0000    0.0000 H   0  0  0  0  0  0  0  0  0  0  0  0
   -1.3000    3.0000    0.0000 C   0  0  0  0  0  0  0  0  0  0  0  0
    0.1772    2.7395    0.0000 H   0  0  0  0  0  0  0  0  0  0  0  0
   -1.3000    1.5000    0.0000 C   0  0  0  0  0  0  0  0  0  0  0  0
   -2.6000    0.7500    0.0000 C   0  0  0  0  0  0  0  0  0  0  0  0
   -2.6000   -0.7500    0.0000 C   0  0  0  0  0  0  0  0  0  0  0  0
   -3.8989   -1.5002    0.0000 H   0  0  0  0  0  0  0  0  0  0  0  0
   -1.3000   -1.5000    0.0000 C   0  0  0  0  0  0  0  0  0  0  0  0
   -1.3000   -3.0000    0.0000 H   0  0  0  0  0  0  0  0  0  0  0  0
    0.0000   -0.7500    0.0000 C   0  0  0  0  0  0  0  0  0  0  0  0
    0.0000    0.7500    0.0000 C   0  0  0  0  0  0  0  0  0  0  0  0
    1.3000    1.5000    0.0000 O   0  0  0  0  0  0  0  0  0  0  0  0
    2.6000    0.7500    0.0000 C   0  0  0  0  0  0  0  0  0  0  0  0
    3.8989    1.5002    0.0000 O   0  0  0  0  0  0  0  0  0  0  0  0
    2.6000   -0.7500    0.0000 C   0  0  0  0  0  0  0  0  0  0  0  0
    3.8989   -1.5002    0.0000 H   0  0  0  0  0  0  0  0  0  0  0  0
    1.3000   -1.5000    0.0000 C   0  0  0  0  0  0  0  0  0  0  0  0
    1.3000   -3.0000    0.0000 H   0  0  0  0  0  0  0  0  0  0  0  0
   -3.8989    1.5002    0.0000 O   0  0  0  0  0  0  0  0  0  0  0  0
   -5.1981    0.7504    0.0000 C   0  0  0  0  0  0  0  0  0  0  0  0
   -6.4970    1.5006    0.0000 H   0  0  0  0  0  0  0  0  0  0  0  0
   -6.1624   -0.3985    0.0000 H   0  0  0  0  0  0  0  0  0  0  0  0
   -4.2341   -0.3988    0.0000 H   0  0  0  0  0  0  0  0  0  0  0  0
   -0.7870    4.4095    0.0000 O   0  0  0  0  0  0  0  0  0  0  0  0
    0.6902    4.6700    0.0000 H   0  0  0  0  0  0  0  0  0  0  0  0
   -1.3000    6.0000    0.0000 C   0  0  0  0  0  0  0  0  0  0  0  0
   -0.0010    5.2500    0.0000 H   0  0  0  0  0  0  0  0  0  0  0  0
   -2.2642    7.1491    0.0000 H   0  0  0  0  0  0  0  0  0  0  0  0
   -0.3358    7.1491    0.0000 H   0  0  0  0  0  0  0  0  0  0  0  0
  1  2  1  0  0  0  0 
  1  3  1  0  0  0  0 
  1  4  1  0  0  0  0 
  1  5  1  0  0  0  0 
  5  6  2  0  0  0  0 
  6  7  1  0  0  0  0 
  6  8  1  0  0  0  0 
  8  9  1  0  0  0  0 
  8 10  1  0  0  0  0 
 10 11  2  0  0  0  0 
 11 12  1  0  0  0  0 
 12 13  1  0  0  0  0 
 12 14  2  0  0  0  0 
 14 15  1  0  0  0  0 
 14 16  1  0  0  0  0 
 16 17  2  0  0  0  0 
 10 17  1  0  0  0  0 
 17 18  1  0  0  0  0 
 18 19  1  0  0  0  0 
 19 20  2  0  0  0  0 
 19 21  1  0  0  0  0 
 21 22  1  0  0  0  0 
 21 23  2  0  0  0  0 
 16 23  1  0  0  0  0 
 23 24  1  0  0  0  0 
 11 25  1  0  0  0  0 
 25 26  1  0  0  0  0 
 26 27  1  0  0  0  0 
 26 28  1  0  0  0  0 
 26 29  1  0  0  0  0 
  8 30  1  0  0  0  0 
 30 31  1  0  0  0  0 
  5 32  1  0  0  0  0 
 32 33  1  0  0  0  0 
 32 34  1  0  0  0  0 
 32 35  1  0  0  0  0 
M  END
> <Rank>
4

> <Priority_score>
0.708

> <Reaction_type>
benzylic_hydroxylation_(c-CH2-CR)

> <Parent_ID>
48

> <Parent_InChI>
InChI=1S/C15H16O3/c1-10(2)4-7-12-13(17-3)8-5-11-6-9-14(16)18-15(11)12/h4-6,8-9H,7H2,1-3H3

> <Parent_SMILES>
COc1ccc2ccc(=O)oc2c1CC=C(C)C

$$$$
Molecule 48_metabolite 5
  CDK     0516241031

 35 36  0  0  0  0  0  0  0  0999 V2000
   -3.8981    6.0000    0.0000 C   0  0  0  0  0  0  0  0  0  0  0  0
   -3.8981    7.5000    0.0000 H   0  0  0  0  0  0  0  0  0  0  0  0
   -5.3753    6.2605    0.0000 H   0  0  0  0  0  0  0  0  0  0  0  0
   -4.4111    4.5905    0.0000 H   0  0  0  0  0  0  0  0  0  0  0  0
   -2.5990    5.2500    0.0000 C   0  0  0  0  0  0  0  0  0  0  0  0
   -2.5990    3.7500    0.0000 C   0  0  0  0  0  0  0  0  0  0  0  0
   -3.8981    3.0000    0.0000 H   0  0  0  0  0  0  0  0  0  0  0  0
   -1.3000    3.0000    0.0000 C   0  0  0  0  0  0  0  0  0  0  0  0
    0.1772    2.7395    0.0000 H   0  0  0  0  0  0  0  0  0  0  0  0
   -0.7870    4.4095    0.0000 H   0  0  0  0  0  0  0  0  0  0  0  0
   -1.3000    1.5000    0.0000 C   0  0  0  0  0  0  0  0  0  0  0  0
   -2.6000    0.7500    0.0000 C   0  0  0  0  0  0  0  0  0  0  0  0
   -2.6000   -0.7500    0.0000 C   0  0  0  0  0  0  0  0  0  0  0  0
   -3.8989   -1.5002    0.0000 H   0  0  0  0  0  0  0  0  0  0  0  0
   -1.3000   -1.5000    0.0000 C   0  0  0  0  0  0  0  0  0  0  0  0
   -1.3000   -3.0000    0.0000 H   0  0  0  0  0  0  0  0  0  0  0  0
    0.0000   -0.7500    0.0000 C   0  0  0  0  0  0  0  0  0  0  0  0
    0.0000    0.7500    0.0000 C   0  0  0  0  0  0  0  0  0  0  0  0
    1.3000    1.5000    0.0000 O   0  0  0  0  0  0  0  0  0  0  0  0
    2.6000    0.7500    0.0000 C   0  0  0  0  0  0  0  0  0  0  0  0
    3.8989    1.5002    0.0000 O   0  0  0  0  0  0  0  0  0  0  0  0
    2.6000   -0.7500    0.0000 C   0  0  0  0  0  0  0  0  0  0  0  0
    3.8989   -1.5002    0.0000 H   0  0  0  0  0  0  0  0  0  0  0  0
    1.3000   -1.5000    0.0000 C   0  0  0  0  0  0  0  0  0  0  0  0
    1.3000   -3.0000    0.0000 H   0  0  0  0  0  0  0  0  0  0  0  0
   -3.8989    1.5002    0.0000 O   0  0  0  0  0  0  0  0  0  0  0  0
   -5.1981    0.7504    0.0000 C   0  0  0  0  0  0  0  0  0  0  0  0
   -6.1624   -0.3985    0.0000 H   0  0  0  0  0  0  0  0  0  0  0  0
   -4.2341   -0.3988    0.0000 H   0  0  0  0  0  0  0  0  0  0  0  0
   -6.4970    1.5006    0.0000 O   0  0  0  0  0  0  0  0  0  0  0  0
   -7.7962    0.7508    0.0000 H   0  0  0  0  0  0  0  0  0  0  0  0
   -1.3000    6.0000    0.0000 C   0  0  0  0  0  0  0  0  0  0  0  0
   -0.0010    5.2500    0.0000 H   0  0  0  0  0  0  0  0  0  0  0  0
   -2.2642    7.1491    0.0000 H   0  0  0  0  0  0  0  0  0  0  0  0
   -0.3358    7.1491    0.0000 H   0  0  0  0  0  0  0  0  0  0  0  0
  1  2  1  0  0  0  0 
  1  3  1  0  0  0  0 
  1  4  1  0  0  0  0 
  1  5  1  0  0  0  0 
  5  6  2  0  0  0  0 
  6  7  1  0  0  0  0 
  6  8  1  0  0  0  0 
  8  9  1  0  0  0  0 
  8 10  1  0  0  0  0 
  8 11  1  0  0  0  0 
 11 12  2  0  0  0  0 
 12 13  1  0  0  0  0 
 13 14  1  0  0  0  0 
 13 15  2  0  0  0  0 
 15 16  1  0  0  0  0 
 15 17  1  0  0  0  0 
 17 18  2  0  0  0  0 
 11 18  1  0  0  0  0 
 18 19  1  0  0  0  0 
 19 20  1  0  0  0  0 
 20 21  2  0  0  0  0 
 20 22  1  0  0  0  0 
 22 23  1  0  0  0  0 
 22 24  2  0  0  0  0 
 17 24  1  0  0  0  0 
 24 25  1  0  0  0  0 
 12 26  1  0  0  0  0 
 26 27  1  0  0  0  0 
 27 28  1  0  0  0  0 
 27 29  1  0  0  0  0 
 27 30  1  0  0  0  0 
 30 31  1  0  0  0  0 
  5 32  1  0  0  0  0 
 32 33  1  0  0  0  0 
 32 34  1  0  0  0  0 
 32 35  1  0  0  0  0 
M  END
> <Rank>
5

> <Priority_score>
0.656

> <Reaction_type>
aliphatic hydroxylation

> <Parent_ID>
48

> <Parent_InChI>
InChI=1S/C15H16O3/c1-10(2)4-7-12-13(17-3)8-5-11-6-9-14(16)18-15(11)12/h4-6,8-9H,7H2,1-3H3

> <Parent_SMILES>
COc1ccc2ccc(=O)oc2c1CC=C(C)C

$$$$
Molecule 48_metabolite 6
  CDK     0516241031

 31 32  0  0  0  0  0  0  0  0999 V2000
   -3.8981    6.0000    0.0000 C   0  0  0  0  0  0  0  0  0  0  0  0
   -3.8981    7.5000    0.0000 H   0  0  0  0  0  0  0  0  0  0  0  0
   -5.3753    6.2605    0.0000 H   0  0  0  0  0  0  0  0  0  0  0  0
   -4.4111    4.5905    0.0000 H   0  0  0  0  0  0  0  0  0  0  0  0
   -2.5990    5.2500    0.0000 C   0  0  0  0  0  0  0  0  0  0  0  0
   -2.5990    3.7500    0.0000 C   0  0  0  0  0  0  0  0  0  0  0  0
   -3.8981    3.0000    0.0000 H   0  0  0  0  0  0  0  0  0  0  0  0
   -1.3000    3.0000    0.0000 C   0  0  0  0  0  0  0  0  0  0  0  0
    0.1772    2.7395    0.0000 H   0  0  0  0  0  0  0  0  0  0  0  0
   -0.7870    4.4095    0.0000 H   0  0  0  0  0  0  0  0  0  0  0  0
   -1.3000    1.5000    0.0000 C   0  0  0  0  0  0  0  0  0  0  0  0
   -2.6000    0.7500    0.0000 C   0  0  0  0  0  0  0  0  0  0  0  0
   -2.6000   -0.7500    0.0000 C   0  0  0  0  0  0  0  0  0  0  0  0
   -3.8989   -1.5002    0.0000 H   0  0  0  0  0  0  0  0  0  0  0  0
   -1.3000   -1.5000    0.0000 C   0  0  0  0  0  0  0  0  0  0  0  0
   -1.3000   -3.0000    0.0000 H   0  0  0  0  0  0  0  0  0  0  0  0
    0.0000   -0.7500    0.0000 C   0  0  0  0  0  0  0  0  0  0  0  0
    0.0000    0.7500    0.0000 C   0  0  0  0  0  0  0  0  0  0  0  0
    1.3000    1.5000    0.0000 O   0  0  0  0  0  0  0  0  0  0  0  0
    2.6000    0.7500    0.0000 C   0  0  0  0  0  0  0  0  0  0  0  0
    3.8989    1.5002    0.0000 O   0  0  0  0  0  0  0  0  0  0  0  0
    2.6000   -0.7500    0.0000 C   0  0  0  0  0  0  0  0  0  0  0  0
    3.8989   -1.5002    0.0000 H   0  0  0  0  0  0  0  0  0  0  0  0
    1.3000   -1.5000    0.0000 C   0  0  0  0  0  0  0  0  0  0  0  0
    1.3000   -3.0000    0.0000 H   0  0  0  0  0  0  0  0  0  0  0  0
   -3.8989    1.5002    0.0000 O   0  0  0  0  0  0  0  0  0  0  0  0
   -5.1981    0.7504    0.0000 H   0  0  0  0  0  0  0  0  0  0  0  0
   -1.3000    6.0000    0.0000 C   0  0  0  0  0  0  0  0  0  0  0  0
   -0.0010    5.2500    0.0000 H   0  0  0  0  0  0  0  0  0  0  0  0
   -2.2642    7.1491    0.0000 H   0  0  0  0  0  0  0  0  0  0  0  0
   -0.3358    7.1491    0.0000 H   0  0  0  0  0  0  0  0  0  0  0  0
  1  2  1  0  0  0  0 
  1  3  1  0  0  0  0 
  1  4  1  0  0  0  0 
  1  5  1  0  0  0  0 
  5  6  2  0  0  0  0 
  6  7  1  0  0  0  0 
  6  8  1  0  0  0  0 
  8  9  1  0  0  0  0 
  8 10  1  0  0  0  0 
  8 11  1  0  0  0  0 
 11 12  2  0  0  0  0 
 12 13  1  0  0  0  0 
 13 14  1  0  0  0  0 
 13 15  2  0  0  0  0 
 15 16  1  0  0  0  0 
 15 17  1  0  0  0  0 
 17 18  2  0  0  0  0 
 11 18  1  0  0  0  0 
 18 19  1  0  0  0  0 
 19 20  1  0  0  0  0 
 20 21  2  0  0  0  0 
 20 22  1  0  0  0  0 
 22 23  1  0  0  0  0 
 22 24  2  0  0  0  0 
 17 24  1  0  0  0  0 
 24 25  1  0  0  0  0 
 12 26  1  0  0  0  0 
 26 27  1  0  0  0  0 
  5 28  1  0  0  0  0 
 28 29  1  0  0  0  0 
 28 30  1  0  0  0  0 
 28 31  1  0  0  0  0 
M  END
> <Rank>
5

> <Priority_score>
0.656

> <Reaction_type>
O-demethylation

> <Parent_ID>
48

> <Parent_InChI>
InChI=1S/C15H16O3/c1-10(2)4-7-12-13(17-3)8-5-11-6-9-14(16)18-15(11)12/h4-6,8-9H,7H2,1-3H3

> <Parent_SMILES>
COc1ccc2ccc(=O)oc2c1CC=C(C)C

$$$$
Molecule 48_metabolite 7
  CDK     0516241031

 35 36  0  0  0  0  0  0  0  0999 V2000
   -3.8981    6.0000    0.0000 C   0  0  0  0  0  0  0  0  0  0  0  0
   -3.8981    7.5000    0.0000 H   0  0  0  0  0  0  0  0  0  0  0  0
   -5.3753    6.2605    0.0000 H   0  0  0  0  0  0  0  0  0  0  0  0
   -4.4111    4.5905    0.0000 H   0  0  0  0  0  0  0  0  0  0  0  0
   -2.5990    5.2500    0.0000 C   0  0  0  0  0  0  0  0  0  0  0  0
   -2.5990    3.7500    0.0000 C   0  0  0  0  0  0  0  0  0  0  0  0
   -3.8981    3.0000    0.0000 H   0  0  0  0  0  0  0  0  0  0  0  0
   -1.3000    3.0000    0.0000 C   0  0  0  0  0  0  0  0  0  0  0  0
    0.1772    2.7395    0.0000 H   0  0  0  0  0  0  0  0  0  0  0  0
   -0.7870    4.4095    0.0000 H   0  0  0  0  0  0  0  0  0  0  0  0
   -1.3000    1.5000    0.0000 C   0  0  0  0  0  0  0  0  0  0  0  0
   -2.6000    0.7500    0.0000 C   0  0  0  0  0  0  0  0  0  0  0  0
   -2.6000   -0.7500    0.0000 C   0  0  0  0  0  0  0  0  0  0  0  0
   -3.8989   -1.5002    0.0000 H   0  0  0  0  0  0  0  0  0  0  0  0
   -1.3000   -1.5000    0.0000 C   0  0  0  0  0  0  0  0  0  0  0  0
   -1.3000   -3.0000    0.0000 H   0  0  0  0  0  0  0  0  0  0  0  0
    0.0000   -0.7500    0.0000 C   0  0  0  0  0  0  0  0  0  0  0  0
    0.0000    0.7500    0.0000 C   0  0  0  0  0  0  0  0  0  0  0  0
    1.3000    1.5000    0.0000 O   0  0  0  0  0  0  0  0  0  0  0  0
    2.6000    0.7500    0.0000 C   0  0  0  0  0  0  0  0  0  0  0  0
    3.8989    1.5002    0.0000 O   0  0  0  0  0  0  0  0  0  0  0  0
    2.6000   -0.7500    0.0000 C   0  0  0  0  0  0  0  0  0  0  0  0
    1.3000   -1.5000    0.0000 C   0  0  0  0  0  0  0  0  0  0  0  0
    1.3000   -3.0000    0.0000 H   0  0  0  0  0  0  0  0  0  0  0  0
    3.8989   -1.5002    0.0000 O   0  0  0  0  0  0  0  0  0  0  0  0
    3.8987   -3.0002    0.0000 H   0  0  0  0  0  0  0  0  0  0  0  0
   -3.8989    1.5002    0.0000 O   0  0  0  0  0  0  0  0  0  0  0  0
   -5.1981    0.7504    0.0000 C   0  0  0  0  0  0  0  0  0  0  0  0
   -6.4970    1.5006    0.0000 H   0  0  0  0  0  0  0  0  0  0  0  0
   -6.1624   -0.3985    0.0000 H   0  0  0  0  0  0  0  0  0  0  0  0
   -4.2341   -0.3988    0.0000 H   0  0  0  0  0  0  0  0  0  0  0  0
   -1.3000    6.0000    0.0000 C   0  0  0  0  0  0  0  0  0  0  0  0
   -0.0010    5.2500    0.0000 H   0  0  0  0  0  0  0  0  0  0  0  0
   -2.2642    7.1491    0.0000 H   0  0  0  0  0  0  0  0  0  0  0  0
   -0.3358    7.1491    0.0000 H   0  0  0  0  0  0  0  0  0  0  0  0
  1  2  1  0  0  0  0 
  1  3  1  0  0  0  0 
  1  4  1  0  0  0  0 
  1  5  1  0  0  0  0 
  5  6  2  0  0  0  0 
  6  7  1  0  0  0  0 
  6  8  1  0  0  0  0 
  8  9  1  0  0  0  0 
  8 10  1  0  0  0  0 
  8 11  1  0  0  0  0 
 11 12  2  0  0  0  0 
 12 13  1  0  0  0  0 
 13 14  1  0  0  0  0 
 13 15  2  0  0  0  0 
 15 16  1  0  0  0  0 
 15 17  1  0  0  0  0 
 17 18  2  0  0  0  0 
 11 18  1  0  0  0  0 
 18 19  1  0  0  0  0 
 19 20  1  0  0  0  0 
 20 21  2  0  0  0  0 
 20 22  1  0  0  0  0 
 22 23  2  0  0  0  0 
 17 23  1  0  0  0  0 
 23 24  1  0  0  0  0 
 22 25  1  0  0  0  0 
 25 26  1  0  0  0  0 
 12 27  1  0  0  0  0 
 27 28  1  0  0  0  0 
 28 29  1  0  0  0  0 
 28 30  1  0  0  0  0 
 28 31  1  0  0  0  0 
  5 32  1  0  0  0  0 
 32 33  1  0  0  0  0 
 32 34  1  0  0  0  0 
 32 35  1  0  0  0  0 
M  END
> <Rank>
7

> <Priority_score>
0.18755763604447045

> <Reaction_type>
aromatic_hydroxylation_(para_to_carbon)

> <Parent_ID>
48

> <Parent_InChI>
InChI=1S/C15H16O3/c1-10(2)4-7-12-13(17-3)8-5-11-6-9-14(16)18-15(11)12/h4-6,8-9H,7H2,1-3H3

> <Parent_SMILES>
COc1ccc2ccc(=O)oc2c1CC=C(C)C

$$$$
Molecule 48_metabolite 8
  CDK     0516241031

 35 36  0  0  0  0  0  0  0  0999 V2000
   -1.3000    6.0000    0.0000 C   0  0  0  0  0  0  0  0  0  0  0  0
   -1.3000    7.5000    0.0000 H   0  0  0  0  0  0  0  0  0  0  0  0
   -0.0010    5.2500    0.0000 H   0  0  0  0  0  0  0  0  0  0  0  0
   -2.5990    5.2500    0.0000 C   0  0  0  0  0  0  0  0  0  0  0  0
   -3.8981    6.0000    0.0000 C   0  0  0  0  0  0  0  0  0  0  0  0
   -5.1971    5.2500    0.0000 H   0  0  0  0  0  0  0  0  0  0  0  0
   -4.8623    7.1491    0.0000 H   0  0  0  0  0  0  0  0  0  0  0  0
   -2.9339    7.1491    0.0000 H   0  0  0  0  0  0  0  0  0  0  0  0
   -2.5990    3.7500    0.0000 C   0  0  0  0  0  0  0  0  0  0  0  0
   -4.0762    4.0105    0.0000 H   0  0  0  0  0  0  0  0  0  0  0  0
   -1.3000    3.0000    0.0000 C   0  0  0  0  0  0  0  0  0  0  0  0
    0.1772    2.7395    0.0000 H   0  0  0  0  0  0  0  0  0  0  0  0
   -0.7870    4.4095    0.0000 H   0  0  0  0  0  0  0  0  0  0  0  0
   -1.3000    1.5000    0.0000 C   0  0  0  0  0  0  0  0  0  0  0  0
   -2.6000    0.7500    0.0000 C   0  0  0  0  0  0  0  0  0  0  0  0
   -2.6000   -0.7500    0.0000 C   0  0  0  0  0  0  0  0  0  0  0  0
   -3.8989   -1.5002    0.0000 H   0  0  0  0  0  0  0  0  0  0  0  0
   -1.3000   -1.5000    0.0000 C   0  0  0  0  0  0  0  0  0  0  0  0
   -1.3000   -3.0000    0.0000 H   0  0  0  0  0  0  0  0  0  0  0  0
    0.0000   -0.7500    0.0000 C   0  0  0  0  0  0  0  0  0  0  0  0
    0.0000    0.7500    0.0000 C   0  0  0  0  0  0  0  0  0  0  0  0
    1.3000    1.5000    0.0000 O   0  0  0  0  0  0  0  0  0  0  0  0
    2.6000    0.7500    0.0000 C   0  0  0  0  0  0  0  0  0  0  0  0
    3.8989    1.5002    0.0000 O   0  0  0  0  0  0  0  0  0  0  0  0
    2.6000   -0.7500    0.0000 C   0  0  0  0  0  0  0  0  0  0  0  0
    3.8989   -1.5002    0.0000 H   0  0  0  0  0  0  0  0  0  0  0  0
    1.3000   -1.5000    0.0000 C   0  0  0  0  0  0  0  0  0  0  0  0
    1.3000   -3.0000    0.0000 H   0  0  0  0  0  0  0  0  0  0  0  0
   -3.8989    1.5002    0.0000 O   0  0  0  0  0  0  0  0  0  0  0  0
   -5.1981    0.7504    0.0000 C   0  0  0  0  0  0  0  0  0  0  0  0
   -6.4970    1.5006    0.0000 H   0  0  0  0  0  0  0  0  0  0  0  0
   -6.1624   -0.3985    0.0000 H   0  0  0  0  0  0  0  0  0  0  0  0
   -4.2341   -0.3988    0.0000 H   0  0  0  0  0  0  0  0  0  0  0  0
   -3.1121    2.3405    0.0000 O   0  0  0  0  0  0  0  0  0  0  0  0
   -4.5893    2.0800    0.0000 H   0  0  0  0  0  0  0  0  0  0  0  0
  1  2  1  0  0  0  0 
  1  3  1  0  0  0  0 
  1  4  2  0  0  0  0 
  4  5  1  0  0  0  0 
  5  6  1  0  0  0  0 
  5  7  1  0  0  0  0 
  5  8  1  0  0  0  0 
  4  9  1  0  0  0  0 
  9 10  1  0  0  0  0 
  9 11  1  0  0  0  0 
 11 12  1  0  0  0  0 
 11 13  1  0  0  0  0 
 11 14  1  0  0  0  0 
 14 15  2  0  0  0  0 
 15 16  1  0  0  0  0 
 16 17  1  0  0  0  0 
 16 18  2  0  0  0  0 
 18 19  1  0  0  0  0 
 18 20  1  0  0  0  0 
 20 21  2  0  0  0  0 
 14 21  1  0  0  0  0 
 21 22  1  0  0  0  0 
 22 23  1  0  0  0  0 
 23 24  2  0  0  0  0 
 23 25  1  0  0  0  0 
 25 26  1  0  0  0  0 
 25 27  2  0  0  0  0 
 20 27  1  0  0  0  0 
 27 28  1  0  0  0  0 
 15 29  1  0  0  0  0 
 29 30  1  0  0  0  0 
 30 31  1  0  0  0  0 
 30 32  1  0  0  0  0 
 30 33  1  0  0  0  0 
  9 34  1  0  0  0  0 
 34 35  1  0  0  0  0 
M  END
> <Rank>
8

> <Priority_score>
0.1664

> <Reaction_type>
aliphatic hydroxylation with allylic rearrangement 1

> <Parent_ID>
48

> <Parent_InChI>
InChI=1S/C15H16O3/c1-10(2)4-7-12-13(17-3)8-5-11-6-9-14(16)18-15(11)12/h4-6,8-9H,7H2,1-3H3

> <Parent_SMILES>
COc1ccc2ccc(=O)oc2c1CC=C(C)C

$$$$
Molecule 48_metabolite 9
  CDK     0516241031

 35 36  0  0  0  0  0  0  0  0999 V2000
   -3.8981    6.0000    0.0000 C   0  0  0  0  0  0  0  0  0  0  0  0
   -3.8981    7.5000    0.0000 H   0  0  0  0  0  0  0  0  0  0  0  0
   -5.3753    6.2605    0.0000 H   0  0  0  0  0  0  0  0  0  0  0  0
   -4.4111    4.5905    0.0000 H   0  0  0  0  0  0  0  0  0  0  0  0
   -2.5990    5.2500    0.0000 C   0  0  0  0  0  0  0  0  0  0  0  0
   -1.1218    4.9895    0.0000 C   0  0  0  0  0  0  0  0  0  0  0  0
   -0.6088    3.5800    0.0000 H   0  0  0  0  0  0  0  0  0  0  0  0
   -1.1218    6.4895    0.0000 H   0  0  0  0  0  0  0  0  0  0  0  0
    0.3554    5.2500    0.0000 H   0  0  0  0  0  0  0  0  0  0  0  0
   -2.5990    3.7500    0.0000 C   0  0  0  0  0  0  0  0  0  0  0  0
   -1.3000    3.0000    0.0000 H   0  0  0  0  0  0  0  0  0  0  0  0
   -3.8981    3.0000    0.0000 C   0  0  0  0  0  0  0  0  0  0  0  0
   -5.1971    3.7500    0.0000 H   0  0  0  0  0  0  0  0  0  0  0  0
   -3.8981    1.5000    0.0000 C   0  0  0  0  0  0  0  0  0  0  0  0
   -2.5981    0.7500    0.0000 C   0  0  0  0  0  0  0  0  0  0  0  0
   -2.5981   -0.7500    0.0000 C   0  0  0  0  0  0  0  0  0  0  0  0
   -1.2992   -1.5002    0.0000 H   0  0  0  0  0  0  0  0  0  0  0  0
   -3.8981   -1.5000    0.0000 C   0  0  0  0  0  0  0  0  0  0  0  0
   -3.8981   -3.0000    0.0000 H   0  0  0  0  0  0  0  0  0  0  0  0
   -5.1981   -0.7500    0.0000 C   0  0  0  0  0  0  0  0  0  0  0  0
   -5.1981    0.7500    0.0000 C   0  0  0  0  0  0  0  0  0  0  0  0
   -6.4981    1.5000    0.0000 O   0  0  0  0  0  0  0  0  0  0  0  0
   -7.7981    0.7500    0.0000 C   0  0  0  0  0  0  0  0  0  0  0  0
   -9.0970    1.5002    0.0000 O   0  0  0  0  0  0  0  0  0  0  0  0
   -7.7981   -0.7500    0.0000 C   0  0  0  0  0  0  0  0  0  0  0  0
   -9.0970   -1.5002    0.0000 H   0  0  0  0  0  0  0  0  0  0  0  0
   -6.4981   -1.5000    0.0000 C   0  0  0  0  0  0  0  0  0  0  0  0
   -6.4981   -3.0000    0.0000 H   0  0  0  0  0  0  0  0  0  0  0  0
   -1.2992    1.5002    0.0000 O   0  0  0  0  0  0  0  0  0  0  0  0
   -0.0000    0.7504    0.0000 C   0  0  0  0  0  0  0  0  0  0  0  0
    1.2989    1.5006    0.0000 H   0  0  0  0  0  0  0  0  0  0  0  0
    0.9644   -0.3985    0.0000 H   0  0  0  0  0  0  0  0  0  0  0  0
   -0.9640   -0.3988    0.0000 H   0  0  0  0  0  0  0  0  0  0  0  0
   -2.0860    6.6595    0.0000 O   0  0  0  0  0  0  0  0  0  0  0  0
   -3.0502    7.8086    0.0000 H   0  0  0  0  0  0  0  0  0  0  0  0
  1  2  1  0  0  0  0 
  1  3  1  0  0  0  0 
  1  4  1  0  0  0  0 
  1  5  1  0  0  0  0 
  5  6  1  0  0  0  0 
  6  7  1  0  0  0  0 
  6  8  1  0  0  0  0 
  6  9  1  0  0  0  0 
  5 10  1  0  0  0  0 
 10 11  1  4  0  0  0 
 10 12  2  0  0  0  0 
 12 13  1  0  0  0  0 
 12 14  1  0  0  0  0 
 14 15  2  0  0  0  0 
 15 16  1  0  0  0  0 
 16 17  1  0  0  0  0 
 16 18  2  0  0  0  0 
 18 19  1  0  0  0  0 
 18 20  1  0  0  0  0 
 20 21  2  0  0  0  0 
 14 21  1  0  0  0  0 
 21 22  1  0  0  0  0 
 22 23  1  0  0  0  0 
 23 24  2  0  0  0  0 
 23 25  1  0  0  0  0 
 25 26  1  0  0  0  0 
 25 27  2  0  0  0  0 
 20 27  1  0  0  0  0 
 27 28  1  0  0  0  0 
 15 29  1  0  0  0  0 
 29 30  1  0  0  0  0 
 30 31  1  0  0  0  0 
 30 32  1  0  0  0  0 
 30 33  1  0  0  0  0 
  5 34  1  0  0  0  0 
 34 35  1  0  0  0  0 
M  END
> <Rank>
9

> <Priority_score>
0.1544

> <Reaction_type>
aliphatic hydroxylation with allylic rearrangement 1

> <Parent_ID>
48

> <Parent_InChI>
InChI=1S/C15H16O3/c1-10(2)4-7-12-13(17-3)8-5-11-6-9-14(16)18-15(11)12/h4-6,8-9H,7H2,1-3H3

> <Parent_SMILES>
COc1ccc2ccc(=O)oc2c1CC=C(C)C

$$$$
Molecule 48_metabolite 10
  CDK     0516241031

 35 36  0  0  0  0  0  0  0  0999 V2000
   -3.8981    6.0000    0.0000 C   0  0  0  0  0  0  0  0  0  0  0  0
   -3.8981    7.5000    0.0000 H   0  0  0  0  0  0  0  0  0  0  0  0
   -5.3753    6.2605    0.0000 H   0  0  0  0  0  0  0  0  0  0  0  0
   -4.4111    4.5905    0.0000 H   0  0  0  0  0  0  0  0  0  0  0  0
   -2.5990    5.2500    0.0000 C   0  0  0  0  0  0  0  0  0  0  0  0
   -2.5990    3.7500    0.0000 C   0  0  0  0  0  0  0  0  0  0  0  0
   -3.8981    3.0000    0.0000 H   0  0  0  0  0  0  0  0  0  0  0  0
   -1.3000    3.0000    0.0000 C   0  0  0  0  0  0  0  0  0  0  0  0
    0.1772    2.7395    0.0000 H   0  0  0  0  0  0  0  0  0  0  0  0
   -0.7870    4.4095    0.0000 H   0  0  0  0  0  0  0  0  0  0  0  0
   -1.3000    1.5000    0.0000 C   0  0  0  0  0  0  0  0  0  0  0  0
   -2.6000    0.7500    0.0000 C   0  0  0  0  0  0  0  0  0  0  0  0
   -2.6000   -0.7500    0.0000 C   0  0  0  0  0  0  0  0  0  0  0  0
   -3.8989   -1.5002    0.0000 H   0  0  0  0  0  0  0  0  0  0  0  0
   -1.3000   -1.5000    0.0000 C   0  0  0  0  0  0  0  0  0  0  0  0
   -1.3000   -3.0000    0.0000 H   0  0  0  0  0  0  0  0  0  0  0  0
    0.0000   -0.7500    0.0000 C   0  0  0  0  0  0  0  0  0  0  0  0
    0.0000    0.7500    0.0000 C   0  0  0  0  0  0  0  0  0  0  0  0
    1.3000    1.5000    0.0000 O   0  0  0  0  0  0  0  0  0  0  0  0
    2.6000    0.7500    0.0000 C   0  0  0  0  0  0  0  0  0  0  0  0
    3.8989    1.5002    0.0000 O   0  0  0  0  0  0  0  0  0  0  0  0
    2.6000   -0.7500    0.0000 C   0  0  0  0  0  0  0  0  0  0  0  0
    3.8989   -1.5002    0.0000 H   0  0  0  0  0  0  0  0  0  0  0  0
    1.3000   -1.5000    0.0000 C   0  0  0  0  0  0  0  0  0  0  0  0
    1.3000   -3.0000    0.0000 O   0  0  0  0  0  0  0  0  0  0  0  0
    2.5990   -3.7500    0.0000 H   0  0  0  0  0  0  0  0  0  0  0  0
   -3.8989    1.5002    0.0000 O   0  0  0  0  0  0  0  0  0  0  0  0
   -5.1981    0.7504    0.0000 C   0  0  0  0  0  0  0  0  0  0  0  0
   -6.4970    1.5006    0.0000 H   0  0  0  0  0  0  0  0  0  0  0  0
   -6.1624   -0.3985    0.0000 H   0  0  0  0  0  0  0  0  0  0  0  0
   -4.2341   -0.3988    0.0000 H   0  0  0  0  0  0  0  0  0  0  0  0
   -1.3000    6.0000    0.0000 C   0  0  0  0  0  0  0  0  0  0  0  0
   -0.0010    5.2500    0.0000 H   0  0  0  0  0  0  0  0  0  0  0  0
   -2.2642    7.1491    0.0000 H   0  0  0  0  0  0  0  0  0  0  0  0
   -0.3358    7.1491    0.0000 H   0  0  0  0  0  0  0  0  0  0  0  0
  1  2  1  0  0  0  0 
  1  3  1  0  0  0  0 
  1  4  1  0  0  0  0 
  1  5  1  0  0  0  0 
  5  6  2  0  0  0  0 
  6  7  1  0  0  0  0 
  6  8  1  0  0  0  0 
  8  9  1  0  0  0  0 
  8 10  1  0  0  0  0 
  8 11  1  0  0  0  0 
 11 12  2  0  0  0  0 
 12 13  1  0  0  0  0 
 13 14  1  0  0  0  0 
 13 15  2  0  0  0  0 
 15 16  1  0  0  0  0 
 15 17  1  0  0  0  0 
 17 18  2  0  0  0  0 
 11 18  1  0  0  0  0 
 18 19  1  0  0  0  0 
 19 20  1  0  0  0  0 
 20 21  2  0  0  0  0 
 20 22  1  0  0  0  0 
 22 23  1  0  0  0  0 
 22 24  2  0  0  0  0 
 17 24  1  0  0  0  0 
 24 25  1  0  0  0  0 
 25 26  1  0  0  0  0 
 12 27  1  0  0  0  0 
 27 28  1  0  0  0  0 
 28 29  1  0  0  0  0 
 28 30  1  0  0  0  0 
 28 31  1  0  0  0  0 
  5 32  1  0  0  0  0 
 32 33  1  0  0  0  0 
 32 34  1  0  0  0  0 
 32 35  1  0  0  0  0 
M  END
> <Rank>
10

> <Priority_score>
0.144

> <Reaction_type>
aromatic hydroxylation

> <Parent_ID>
48

> <Parent_InChI>
InChI=1S/C15H16O3/c1-10(2)4-7-12-13(17-3)8-5-11-6-9-14(16)18-15(11)12/h4-6,8-9H,7H2,1-3H3

> <Parent_SMILES>
COc1ccc2ccc(=O)oc2c1CC=C(C)C

$$$$
Molecule 48_metabolite 11
  CDK     0516241031

 32 33  0  0  0  0  0  0  0  0999 V2000
   -3.8981    6.0000    0.0000 C   0  0  0  0  0  0  0  0  0  0  0  0
   -5.1971    6.7500    0.0000 H   0  0  0  0  0  0  0  0  0  0  0  0
   -2.4209    5.7395    0.0000 H   0  0  0  0  0  0  0  0  0  0  0  0
   -3.3850    7.4095    0.0000 H   0  0  0  0  0  0  0  0  0  0  0  0
   -3.8981    4.5000    0.0000 C   0  0  0  0  0  0  0  0  0  0  0  0
   -2.5990    3.7500    0.0000 C   0  0  0  0  0  0  0  0  0  0  0  0
   -1.3000    3.0000    0.0000 C   0  0  0  0  0  0  0  0  0  0  0  0
   -0.0010    3.7500    0.0000 H   0  0  0  0  0  0  0  0  0  0  0  0
   -1.3000    1.5000    0.0000 C   0  0  0  0  0  0  0  0  0  0  0  0
   -2.6000    0.7500    0.0000 C   0  0  0  0  0  0  0  0  0  0  0  0
   -2.6000   -0.7500    0.0000 C   0  0  0  0  0  0  0  0  0  0  0  0
   -3.8989   -1.5002    0.0000 H   0  0  0  0  0  0  0  0  0  0  0  0
   -1.3000   -1.5000    0.0000 C   0  0  0  0  0  0  0  0  0  0  0  0
   -1.3000   -3.0000    0.0000 H   0  0  0  0  0  0  0  0  0  0  0  0
    0.0000   -0.7500    0.0000 C   0  0  0  0  0  0  0  0  0  0  0  0
    0.0000    0.7500    0.0000 C   0  0  0  0  0  0  0  0  0  0  0  0
    1.3000    1.5000    0.0000 O   0  0  0  0  0  0  0  0  0  0  0  0
    2.6000    0.7500    0.0000 C   0  0  0  0  0  0  0  0  0  0  0  0
    3.8989    1.5002    0.0000 O   0  0  0  0  0  0  0  0  0  0  0  0
    2.6000   -0.7500    0.0000 C   0  0  0  0  0  0  0  0  0  0  0  0
    3.8989   -1.5002    0.0000 H   0  0  0  0  0  0  0  0  0  0  0  0
    1.3000   -1.5000    0.0000 C   0  0  0  0  0  0  0  0  0  0  0  0
    1.3000   -3.0000    0.0000 H   0  0  0  0  0  0  0  0  0  0  0  0
   -3.8989    1.5002    0.0000 O   0  0  0  0  0  0  0  0  0  0  0  0
   -5.1981    0.7504    0.0000 C   0  0  0  0  0  0  0  0  0  0  0  0
   -6.4970    1.5006    0.0000 H   0  0  0  0  0  0  0  0  0  0  0  0
   -6.1624   -0.3985    0.0000 H   0  0  0  0  0  0  0  0  0  0  0  0
   -4.2341   -0.3988    0.0000 H   0  0  0  0  0  0  0  0  0  0  0  0
   -5.1971    3.7500    0.0000 C   0  0  0  0  0  0  0  0  0  0  0  0
   -6.4962    4.5000    0.0000 H   0  0  0  0  0  0  0  0  0  0  0  0
   -6.1613    2.6009    0.0000 H   0  0  0  0  0  0  0  0  0  0  0  0
   -4.2329    2.6009    0.0000 H   0  0  0  0  0  0  0  0  0  0  0  0
  1  2  1  0  0  0  0 
  1  3  1  0  0  0  0 
  1  4  1  0  0  0  0 
  1  5  1  0  0  0  0 
  5  6  2  0  0  0  0 
  6  7  2  0  0  0  0 
  7  8  1  0  0  0  0 
  7  9  1  0  0  0  0 
  9 10  2  0  0  0  0 
 10 11  1  0  0  0  0 
 11 12  1  0  0  0  0 
 11 13  2  0  0  0  0 
 13 14  1  0  0  0  0 
 13 15  1  0  0  0  0 
 15 16  2  0  0  0  0 
  9 16  1  0  0  0  0 
 16 17  1  0  0  0  0 
 17 18  1  0  0  0  0 
 18 19  2  0  0  0  0 
 18 20  1  0  0  0  0 
 20 21  1  0  0  0  0 
 20 22  2  0  0  0  0 
 15 22  1  0  0  0  0 
 22 23  1  0  0  0  0 
 10 24  1  0  0  0  0 
 24 25  1  0  0  0  0 
 25 26  1  0  0  0  0 
 25 27  1  0  0  0  0 
 25 28  1  0  0  0  0 
  5 29  1  0  0  0  0 
 29 30  1  0  0  0  0 
 29 31  1  0  0  0  0 
 29 32  1  0  0  0  0 
M  END
> <Rank>
11

> <Priority_score>
0.1416

> <Reaction_type>
alkyl dehydrogenation

> <Parent_ID>
48

> <Parent_InChI>
InChI=1S/C15H16O3/c1-10(2)4-7-12-13(17-3)8-5-11-6-9-14(16)18-15(11)12/h4-6,8-9H,7H2,1-3H3

> <Parent_SMILES>
COc1ccc2ccc(=O)oc2c1CC=C(C)C

$$$$
Molecule 48_metabolite 12
  CDK     0516241031

 32 32  0  0  0  0  0  0  0  0999 V2000
    2.7764    3.7492    0.0000 C   0  0  0  0  0  0  0  0  0  0  0  0
    4.0753    2.9990    0.0000 H   0  0  0  0  0  0  0  0  0  0  0  0
    2.7766    5.2492    0.0000 H   0  0  0  0  0  0  0  0  0  0  0  0
    1.4772    2.9994    0.0000 C   0  0  0  0  0  0  0  0  0  0  0  0
    1.4770    1.4994    0.0000 H   0  0  0  0  0  0  0  0  0  0  0  0
    0.1783    3.7496    0.0000 C   0  0  0  0  0  0  0  0  0  0  0  0
    0.1785    5.2496    0.0000 O   0  0  0  0  0  0  0  0  0  0  0  0
   -1.1209    2.9998    0.0000 O   0  0  0  0  0  0  0  0  0  0  0  0
   -2.4198    3.7500    0.0000 C   0  0  0  0  0  0  0  0  0  0  0  0
   -3.7198    3.0000    0.0000 C   0  0  0  0  0  0  0  0  0  0  0  0
   -3.7198    1.5000    0.0000 C   0  0  0  0  0  0  0  0  0  0  0  0
   -3.2068    0.0905    0.0000 H   0  0  0  0  0  0  0  0  0  0  0  0
   -2.2426    1.7605    0.0000 H   0  0  0  0  0  0  0  0  0  0  0  0
   -5.0188    0.7500    0.0000 C   0  0  0  0  0  0  0  0  0  0  0  0
   -6.3179    1.5000    0.0000 H   0  0  0  0  0  0  0  0  0  0  0  0
   -5.0188   -0.7500    0.0000 C   0  0  0  0  0  0  0  0  0  0  0  0
   -6.3179   -1.5000    0.0000 C   0  0  0  0  0  0  0  0  0  0  0  0
   -6.3179   -3.0000    0.0000 H   0  0  0  0  0  0  0  0  0  0  0  0
   -6.8309   -0.0905    0.0000 H   0  0  0  0  0  0  0  0  0  0  0  0
   -7.7951   -1.7605    0.0000 H   0  0  0  0  0  0  0  0  0  0  0  0
   -3.7198   -1.5000    0.0000 C   0  0  0  0  0  0  0  0  0  0  0  0
   -2.4207   -0.7500    0.0000 H   0  0  0  0  0  0  0  0  0  0  0  0
   -2.7556   -2.6491    0.0000 H   0  0  0  0  0  0  0  0  0  0  0  0
   -4.6840   -2.6491    0.0000 H   0  0  0  0  0  0  0  0  0  0  0  0
   -5.0198    3.7500    0.0000 C   0  0  0  0  0  0  0  0  0  0  0  0
   -6.3187    2.9998    0.0000 O   0  0  0  0  0  0  0  0  0  0  0  0
   -5.0198    5.2500    0.0000 C   0  0  0  0  0  0  0  0  0  0  0  0
   -6.3187    6.0002    0.0000 H   0  0  0  0  0  0  0  0  0  0  0  0
   -3.7198    6.0000    0.0000 C   0  0  0  0  0  0  0  0  0  0  0  0
   -3.7198    7.5000    0.0000 H   0  0  0  0  0  0  0  0  0  0  0  0
   -2.4198    5.2500    0.0000 C   0  0  0  0  0  0  0  0  0  0  0  0
   -1.1209    6.0002    0.0000 O   0  0  0  0  0  0  0  0  0  0  0  0
  1  2  1  0  0  0  0 
  1  3  1  0  0  0  0 
  1  4  2  0  0  0  0 
  4  5  1  0  0  0  0 
  4  6  1  0  0  0  0 
  6  7  2  0  0  0  0 
  6  8  1  0  0  0  0 
  8  9  1  0  0  0  0 
  9 10  2  0  0  0  0 
 10 11  1  0  0  0  0 
 11 12  1  0  0  0  0 
 11 13  1  0  0  0  0 
 11 14  1  0  0  0  0 
 14 15  1  0  0  0  0 
 14 16  2  0  0  0  0 
 16 17  1  0  0  0  0 
 17 18  1  0  0  0  0 
 17 19  1  0  0  0  0 
 17 20  1  0  0  0  0 
 16 21  1  0  0  0  0 
 21 22  1  0  0  0  0 
 21 23  1  0  0  0  0 
 21 24  1  0  0  0  0 
 10 25  1  0  0  0  0 
 25 26  2  0  0  0  0 
 25 27  1  0  0  0  0 
 27 28  1  0  0  0  0 
 27 29  2  0  0  0  0 
 29 30  1  0  0  0  0 
 29 31  1  0  0  0  0 
  9 31  1  0  0  0  0 
 31 32  2  0  0  0  0 
M  END
> <Rank>
12

> <Priority_score>
0.1312

> <Reaction_type>
oxidation of 4-substituted anisole to quinone

> <Parent_ID>
48

> <Parent_InChI>
InChI=1S/C15H16O3/c1-10(2)4-7-12-13(17-3)8-5-11-6-9-14(16)18-15(11)12/h4-6,8-9H,7H2,1-3H3

> <Parent_SMILES>
COc1ccc2ccc(=O)oc2c1CC=C(C)C

$$$$
Molecule 48_metabolite 13
  CDK     0516241031

 35 36  0  0  0  0  0  0  0  0999 V2000
   -3.8981    6.0000    0.0000 C   0  0  0  0  0  0  0  0  0  0  0  0
   -3.8981    7.5000    0.0000 H   0  0  0  0  0  0  0  0  0  0  0  0
   -5.3753    6.2605    0.0000 H   0  0  0  0  0  0  0  0  0  0  0  0
   -4.4111    4.5905    0.0000 H   0  0  0  0  0  0  0  0  0  0  0  0
   -2.5990    5.2500    0.0000 C   0  0  0  0  0  0  0  0  0  0  0  0
   -2.5990    3.7500    0.0000 C   0  0  0  0  0  0  0  0  0  0  0  0
   -3.8981    3.0000    0.0000 H   0  0  0  0  0  0  0  0  0  0  0  0
   -1.3000    3.0000    0.0000 C   0  0  0  0  0  0  0  0  0  0  0  0
    0.1772    2.7395    0.0000 H   0  0  0  0  0  0  0  0  0  0  0  0
   -0.7870    4.4095    0.0000 H   0  0  0  0  0  0  0  0  0  0  0  0
   -1.3000    1.5000    0.0000 C   0  0  0  0  0  0  0  0  0  0  0  0
   -2.6000    0.7500    0.0000 C   0  0  0  0  0  0  0  0  0  0  0  0
   -2.6000   -0.7500    0.0000 C   0  0  0  0  0  0  0  0  0  0  0  0
   -1.3000   -1.5000    0.0000 C   0  0  0  0  0  0  0  0  0  0  0  0
   -1.3000   -3.0000    0.0000 H   0  0  0  0  0  0  0  0  0  0  0  0
    0.0000   -0.7500    0.0000 C   0  0  0  0  0  0  0  0  0  0  0  0
    0.0000    0.7500    0.0000 C   0  0  0  0  0  0  0  0  0  0  0  0
    1.3000    1.5000    0.0000 O   0  0  0  0  0  0  0  0  0  0  0  0
    2.6000    0.7500    0.0000 C   0  0  0  0  0  0  0  0  0  0  0  0
    3.8989    1.5002    0.0000 O   0  0  0  0  0  0  0  0  0  0  0  0
    2.6000   -0.7500    0.0000 C   0  0  0  0  0  0  0  0  0  0  0  0
    3.8989   -1.5002    0.0000 H   0  0  0  0  0  0  0  0  0  0  0  0
    1.3000   -1.5000    0.0000 C   0  0  0  0  0  0  0  0  0  0  0  0
    1.3000   -3.0000    0.0000 H   0  0  0  0  0  0  0  0  0  0  0  0
   -3.8989   -1.5002    0.0000 O   0  0  0  0  0  0  0  0  0  0  0  0
   -3.8987   -3.0002    0.0000 H   0  0  0  0  0  0  0  0  0  0  0  0
   -3.8989    1.5002    0.0000 O   0  0  0  0  0  0  0  0  0  0  0  0
   -5.1981    0.7504    0.0000 C   0  0  0  0  0  0  0  0  0  0  0  0
   -6.4970    1.5006    0.0000 H   0  0  0  0  0  0  0  0  0  0  0  0
   -6.1624   -0.3985    0.0000 H   0  0  0  0  0  0  0  0  0  0  0  0
   -4.2341   -0.3988    0.0000 H   0  0  0  0  0  0  0  0  0  0  0  0
   -1.3000    6.0000    0.0000 C   0  0  0  0  0  0  0  0  0  0  0  0
   -0.0010    5.2500    0.0000 H   0  0  0  0  0  0  0  0  0  0  0  0
   -2.2642    7.1491    0.0000 H   0  0  0  0  0  0  0  0  0  0  0  0
   -0.3358    7.1491    0.0000 H   0  0  0  0  0  0  0  0  0  0  0  0
  1  2  1  0  0  0  0 
  1  3  1  0  0  0  0 
  1  4  1  0  0  0  0 
  1  5  1  0  0  0  0 
  5  6  2  0  0  0  0 
  6  7  1  0  0  0  0 
  6  8  1  0  0  0  0 
  8  9  1  0  0  0  0 
  8 10  1  0  0  0  0 
  8 11  1  0  0  0  0 
 11 12  2  0  0  0  0 
 12 13  1  0  0  0  0 
 13 14  2  0  0  0  0 
 14 15  1  0  0  0  0 
 14 16  1  0  0  0  0 
 16 17  2  0  0  0  0 
 11 17  1  0  0  0  0 
 17 18  1  0  0  0  0 
 18 19  1  0  0  0  0 
 19 20  2  0  0  0  0 
 19 21  1  0  0  0  0 
 21 22  1  0  0  0  0 
 21 23  2  0  0  0  0 
 16 23  1  0  0  0  0 
 23 24  1  0  0  0  0 
 13 25  1  0  0  0  0 
 25 26  1  0  0  0  0 
 12 27  1  0  0  0  0 
 27 28  1  0  0  0  0 
 28 29  1  0  0  0  0 
 28 30  1  0  0  0  0 
 28 31  1  0  0  0  0 
  5 32  1  0  0  0  0 
 32 33  1  0  0  0  0 
 32 34  1  0  0  0  0 
 32 35  1  0  0  0  0 
M  END
> <Rank>
13

> <Priority_score>
0.088

> <Reaction_type>
aromatic_hydroxylation_(para_to_oxygen)

> <Parent_ID>
48

> <Parent_InChI>
InChI=1S/C15H16O3/c1-10(2)4-7-12-13(17-3)8-5-11-6-9-14(16)18-15(11)12/h4-6,8-9H,7H2,1-3H3

> <Parent_SMILES>
COc1ccc2ccc(=O)oc2c1CC=C(C)C

$$$$
Molecule 48_metabolite 14
  CDK     0516241031

 35 36  0  0  0  0  0  0  0  0999 V2000
   -3.8981    6.0000    0.0000 C   0  0  0  0  0  0  0  0  0  0  0  0
   -3.8981    7.5000    0.0000 H   0  0  0  0  0  0  0  0  0  0  0  0
   -5.3753    6.2605    0.0000 H   0  0  0  0  0  0  0  0  0  0  0  0
   -4.4111    4.5905    0.0000 H   0  0  0  0  0  0  0  0  0  0  0  0
   -2.5990    5.2500    0.0000 C   0  0  0  0  0  0  0  0  0  0  0  0
   -2.5990    3.7500    0.0000 C   0  0  0  0  0  0  0  0  0  0  0  0
   -3.8981    3.0000    0.0000 H   0  0  0  0  0  0  0  0  0  0  0  0
   -1.3000    3.0000    0.0000 C   0  0  0  0  0  0  0  0  0  0  0  0
    0.1772    2.7395    0.0000 H   0  0  0  0  0  0  0  0  0  0  0  0
   -0.7870    4.4095    0.0000 H   0  0  0  0  0  0  0  0  0  0  0  0
   -1.3000    1.5000    0.0000 C   0  0  0  0  0  0  0  0  0  0  0  0
   -2.6000    0.7500    0.0000 C   0  0  0  0  0  0  0  0  0  0  0  0
   -2.6000   -0.7500    0.0000 C   0  0  0  0  0  0  0  0  0  0  0  0
   -3.8989   -1.5002    0.0000 H   0  0  0  0  0  0  0  0  0  0  0  0
   -1.3000   -1.5000    0.0000 C   0  0  0  0  0  0  0  0  0  0  0  0
    0.0000   -0.7500    0.0000 C   0  0  0  0  0  0  0  0  0  0  0  0
    0.0000    0.7500    0.0000 C   0  0  0  0  0  0  0  0  0  0  0  0
    1.3000    1.5000    0.0000 O   0  0  0  0  0  0  0  0  0  0  0  0
    2.6000    0.7500    0.0000 C   0  0  0  0  0  0  0  0  0  0  0  0
    3.8989    1.5002    0.0000 O   0  0  0  0  0  0  0  0  0  0  0  0
    2.6000   -0.7500    0.0000 C   0  0  0  0  0  0  0  0  0  0  0  0
    3.8989   -1.5002    0.0000 H   0  0  0  0  0  0  0  0  0  0  0  0
    1.3000   -1.5000    0.0000 C   0  0  0  0  0  0  0  0  0  0  0  0
    1.3000   -3.0000    0.0000 H   0  0  0  0  0  0  0  0  0  0  0  0
   -1.3000   -3.0000    0.0000 O   0  0  0  0  0  0  0  0  0  0  0  0
   -2.5990   -3.7500    0.0000 H   0  0  0  0  0  0  0  0  0  0  0  0
   -3.8989    1.5002    0.0000 O   0  0  0  0  0  0  0  0  0  0  0  0
   -5.1981    0.7504    0.0000 C   0  0  0  0  0  0  0  0  0  0  0  0
   -6.4970    1.5006    0.0000 H   0  0  0  0  0  0  0  0  0  0  0  0
   -6.1624   -0.3985    0.0000 H   0  0  0  0  0  0  0  0  0  0  0  0
   -4.2341   -0.3988    0.0000 H   0  0  0  0  0  0  0  0  0  0  0  0
   -1.3000    6.0000    0.0000 C   0  0  0  0  0  0  0  0  0  0  0  0
   -0.0010    5.2500    0.0000 H   0  0  0  0  0  0  0  0  0  0  0  0
   -2.2642    7.1491    0.0000 H   0  0  0  0  0  0  0  0  0  0  0  0
   -0.3358    7.1491    0.0000 H   0  0  0  0  0  0  0  0  0  0  0  0
  1  2  1  0  0  0  0 
  1  3  1  0  0  0  0 
  1  4  1  0  0  0  0 
  1  5  1  0  0  0  0 
  5  6  2  0  0  0  0 
  6  7  1  0  0  0  0 
  6  8  1  0  0  0  0 
  8  9  1  0  0  0  0 
  8 10  1  0  0  0  0 
  8 11  1  0  0  0  0 
 11 12  2  0  0  0  0 
 12 13  1  0  0  0  0 
 13 14  1  0  0  0  0 
 13 15  2  0  0  0  0 
 15 16  1  0  0  0  0 
 16 17  2  0  0  0  0 
 11 17  1  0  0  0  0 
 17 18  1  0  0  0  0 
 18 19  1  0  0  0  0 
 19 20  2  0  0  0  0 
 19 21  1  0  0  0  0 
 21 22  1  0  0  0  0 
 21 23  2  0  0  0  0 
 16 23  1  0  0  0  0 
 23 24  1  0  0  0  0 
 15 25  1  0  0  0  0 
 25 26  1  0  0  0  0 
 12 27  1  0  0  0  0 
 27 28  1  0  0  0  0 
 28 29  1  0  0  0  0 
 28 30  1  0  0  0  0 
 28 31  1  0  0  0  0 
  5 32  1  0  0  0  0 
 32 33  1  0  0  0  0 
 32 34  1  0  0  0  0 
 32 35  1  0  0  0  0 
M  END
> <Rank>
13

> <Priority_score>
0.088

> <Reaction_type>
aromatic_hydroxylation_(para_to_carbon)

> <Parent_ID>
48

> <Parent_InChI>
InChI=1S/C15H16O3/c1-10(2)4-7-12-13(17-3)8-5-11-6-9-14(16)18-15(11)12/h4-6,8-9H,7H2,1-3H3

> <Parent_SMILES>
COc1ccc2ccc(=O)oc2c1CC=C(C)C

$$$$
Molecule 49
  CDK     0516241031

 39 42  0  0  0  0  0  0  0  0999 V2000
    3.8972   -5.9955    0.0000 C   0  0  0  0  0  0  0  0  0  0  0  0
    2.5986   -6.7462    0.0000 C   0  0  0  0  0  0  0  0  0  0  0  0
    3.5633   -7.8948    0.0000 C   0  0  0  0  0  0  0  0  0  0  0  0
    1.6349   -7.8957    0.0000 C   0  0  0  0  0  0  0  0  0  0  0  0
    1.2992   -5.9968    0.0000 C   0  0  0  0  0  0  0  0  0  0  0  0
   -0.0004   -6.7476    0.0000 C   0  0  0  0  0  0  0  0  0  0  0  0
   -1.3008   -5.9985    0.0000 C   0  0  0  0  0  0  0  0  0  0  0  0
   -1.3018   -4.4985    0.0000 C   0  0  0  0  0  0  0  0  0  0  0  0
   -0.0023   -3.7476    0.0000 C   0  0  0  0  0  0  0  0  0  0  0  0
    1.2982   -4.4968    0.0000 C   0  0  0  0  0  0  0  0  0  0  0  0
   -2.6012   -3.7491    0.0000 S   0  0  0  0  0  0  0  0  0  0  0  0
   -3.5659   -2.6005    0.0000 O   0  0  0  0  0  0  0  0  0  0  0  0
   -1.6376   -2.5995    0.0000 O   0  0  0  0  0  0  0  0  0  0  0  0
   -3.8999   -4.4997    0.0000 N   0  0  0  0  0  0  0  0  0  0  0  0
   -5.1993   -3.7503    0.0000 C   0  0  0  0  0  0  0  0  0  0  0  0
   -5.2002   -2.2495    0.0000 N   0  0  0  0  0  0  0  0  0  0  0  0
   -6.5000   -1.4991    0.0000 C   0  0  0  0  0  0  0  0  0  0  0  0
   -7.7988   -2.2495    0.0000 N   0  0  0  0  0  0  0  0  0  0  0  0
   -7.7978   -3.7503    0.0000 C   0  0  0  0  0  0  0  0  0  0  0  0
   -6.4981   -4.5007    0.0000 C   0  0  0  0  0  0  0  0  0  0  0  0
   -6.4978   -6.0007    0.0000 O   0  0  0  0  0  0  0  0  0  0  0  0
   -5.1987   -6.7505    0.0000 C   0  0  0  0  0  0  0  0  0  0  0  0
   -5.1964   -8.2514    0.0000 C   0  0  0  0  0  0  0  0  0  0  0  0
   -3.8960   -8.9990    0.0000 C   0  0  0  0  0  0  0  0  0  0  0  0
   -2.5979   -8.2458    0.0000 C   0  0  0  0  0  0  0  0  0  0  0  0
   -2.6051   -6.7536    0.0000 C   0  0  0  0  0  0  0  0  0  0  0  0
   -3.9055   -6.0060    0.0000 C   0  0  0  0  0  0  0  0  0  0  0  0
   -6.4942   -9.0035    0.0000 O   0  0  0  0  0  0  0  0  0  0  0  0
   -6.4917  -10.5035    0.0000 C   0  0  0  0  0  0  0  0  0  0  0  0
   -9.0966   -4.5007    0.0000 O   0  0  0  0  0  0  0  0  0  0  0  0
  -10.3959   -3.7512    0.0000 C   0  0  0  0  0  0  0  0  0  0  0  0
  -11.6947   -4.5016    0.0000 C   0  0  0  0  0  0  0  0  0  0  0  0
  -12.9940   -3.7520    0.0000 O   0  0  0  0  0  0  0  0  0  0  0  0
   -6.5002    0.0009    0.0000 C   0  0  0  0  0  0  0  0  0  0  0  0
   -7.8000    0.7513    0.0000 N   0  0  0  0  0  0  0  0  0  0  0  0
   -7.8010    2.2522    0.0000 C   0  0  0  0  0  0  0  0  0  0  0  0
   -6.5022    3.0026    0.0000 C   0  0  0  0  0  0  0  0  0  0  0  0
   -5.2024    2.2522    0.0000 C   0  0  0  0  0  0  0  0  0  0  0  0
   -5.2014    0.7513    0.0000 N   0  0  0  0  0  0  0  0  0  0  0  0
  1  2  1  0  0  0  0 
  2  3  1  0  0  0  0 
  2  4  1  0  0  0  0 
  2  5  1  0  0  0  0 
  5  6  2  0  0  0  0 
  6  7  1  0  0  0  0 
  7  8  2  0  0  0  0 
  8  9  1  0  0  0  0 
  9 10  2  0  0  0  0 
  5 10  1  0  0  0  0 
  8 11  1  0  0  0  0 
 11 12  2  0  0  0  0 
 11 13  2  0  0  0  0 
 11 14  1  0  0  0  0 
 14 15  1  0  0  0  0 
 15 16  2  0  0  0  0 
 16 17  1  0  0  0  0 
 17 18  2  0  0  0  0 
 18 19  1  0  0  0  0 
 19 20  2  0  0  0  0 
 15 20  1  0  0  0  0 
 20 21  1  0  0  0  0 
 21 22  1  0  0  0  0 
 22 23  2  0  0  0  0 
 23 24  1  0  0  0  0 
 24 25  2  0  0  0  0 
 25 26  1  0  0  0  0 
 26 27  2  0  0  0  0 
 22 27  1  0  0  0  0 
 23 28  1  0  0  0  0 
 28 29  1  0  0  0  0 
 19 30  1  0  0  0  0 
 30 31  1  0  0  0  0 
 31 32  1  0  0  0  0 
 32 33  1  0  0  0  0 
 17 34  1  0  0  0  0 
 34 35  2  0  0  0  0 
 35 36  1  0  0  0  0 
 36 37  2  0  0  0  0 
 37 38  1  0  0  0  0 
 38 39  2  0  0  0  0 
 34 39  1  0  0  0  0 
M  END
> <SMILES>
COc1ccccc1Oc1c(NS(=O)(=O)c2ccc(C(C)(C)C)cc2)nc(-c2ncccn2)nc1OCCO

$$$$
Molecule 49_metabolite 1
  CDK     0516241031

 72 75  0  0  0  0  0  0  0  0999 V2000
  -13.9562    0.6236    0.0000 C   0  0  0  0  0  0  0  0  0  0  0  0
  -15.2556    1.3730    0.0000 H   0  0  0  0  0  0  0  0  0  0  0  0
  -12.9914   -0.5250    0.0000 H   0  0  0  0  0  0  0  0  0  0  0  0
  -14.9198   -0.5259    0.0000 H   0  0  0  0  0  0  0  0  0  0  0  0
  -12.6575    1.3742    0.0000 C   0  0  0  0  0  0  0  0  0  0  0  0
  -14.5484    3.6255    0.0000 C   0  0  0  0  0  0  0  0  0  0  0  0
  -16.0255    3.3643    0.0000 H   0  0  0  0  0  0  0  0  0  0  0  0
  -15.0621    5.0348    0.0000 H   0  0  0  0  0  0  0  0  0  0  0  0
  -13.2497    4.3761    0.0000 H   0  0  0  0  0  0  0  0  0  0  0  0
  -11.6939    2.5238    0.0000 C   0  0  0  0  0  0  0  0  0  0  0  0
  -10.2165    2.2640    0.0000 H   0  0  0  0  0  0  0  0  0  0  0  0
  -11.1815    3.9336    0.0000 H   0  0  0  0  0  0  0  0  0  0  0  0
  -12.9933    3.2731    0.0000 H   0  0  0  0  0  0  0  0  0  0  0  0
  -10.5265    0.1453    0.0000 C   0  0  0  0  0  0  0  0  0  0  0  0
   -9.2270    0.8961    0.0000 C   0  0  0  0  0  0  0  0  0  0  0  0
   -9.2279    2.3961    0.0000 H   0  0  0  0  0  0  0  0  0  0  0  0
   -7.9265    0.1469    0.0000 C   0  0  0  0  0  0  0  0  0  0  0  0
   -6.6280    0.8980    0.0000 H   0  0  0  0  0  0  0  0  0  0  0  0
   -7.9255   -1.3531    0.0000 C   0  0  0  0  0  0  0  0  0  0  0  0
   -9.2250   -2.1039    0.0000 C   0  0  0  0  0  0  0  0  0  0  0  0
   -9.2241   -3.6039    0.0000 H   0  0  0  0  0  0  0  0  0  0  0  0
  -10.5255   -1.3547    0.0000 C   0  0  0  0  0  0  0  0  0  0  0  0
  -11.8239   -2.1058    0.0000 H   0  0  0  0  0  0  0  0  0  0  0  0
   -6.6261   -2.1024    0.0000 S   0  0  0  0  0  0  0  0  0  0  0  0
   -5.6614   -3.2510    0.0000 O   0  0  0  0  0  0  0  0  0  0  0  0
   -7.5897   -3.2520    0.0000 O   0  0  0  0  0  0  0  0  0  0  0  0
   -5.3274   -1.3518    0.0000 N   0  0  0  0  0  0  0  0  0  0  0  0
   -5.3282    0.1482    0.0000 H   0  0  0  0  0  0  0  0  0  0  0  0
   -4.0280   -2.1012    0.0000 C   0  0  0  0  0  0  0  0  0  0  0  0
   -4.0271   -3.6020    0.0000 N   0  0  0  0  0  0  0  0  0  0  0  0
   -2.7273   -4.3524    0.0000 C   0  0  0  0  0  0  0  0  0  0  0  0
   -1.4285   -3.6020    0.0000 N   0  0  0  0  0  0  0  0  0  0  0  0
   -1.4295   -2.1012    0.0000 C   0  0  0  0  0  0  0  0  0  0  0  0
   -2.7292   -1.3508    0.0000 C   0  0  0  0  0  0  0  0  0  0  0  0
   -2.7296    1.1092    0.0000 O   0  0  0  0  0  0  0  0  0  0  0  0
   -1.4307    1.8594    0.0000 C   0  0  0  0  0  0  0  0  0  0  0  0
   -1.4289    3.3603    0.0000 C   0  0  0  0  0  0  0  0  0  0  0  0
   -0.1288    4.1083    0.0000 C   0  0  0  0  0  0  0  0  0  0  0  0
   -0.1262    5.6083    0.0000 H   0  0  0  0  0  0  0  0  0  0  0  0
    1.1696    3.3555    0.0000 C   0  0  0  0  0  0  0  0  0  0  0  0
    2.4711    4.1013    0.0000 H   0  0  0  0  0  0  0  0  0  0  0  0
    1.1628    1.8633    0.0000 C   0  0  0  0  0  0  0  0  0  0  0  0
    2.4596    1.1094    0.0000 H   0  0  0  0  0  0  0  0  0  0  0  0
   -0.1373    1.1153    0.0000 C   0  0  0  0  0  0  0  0  0  0  0  0
   -0.1373   -0.3847    0.0000 H   0  0  0  0  0  0  0  0  0  0  0  0
   -2.7269    4.1120    0.0000 O   0  0  0  0  0  0  0  0  0  0  0  0
   -2.7249    5.6120    0.0000 C   0  0  0  0  0  0  0  0  0  0  0  0
   -1.4249    6.3603    0.0000 H   0  0  0  0  0  0  0  0  0  0  0  0
   -3.2360    7.0223    0.0000 H   0  0  0  0  0  0  0  0  0  0  0  0
   -4.2025    5.3535    0.0000 H   0  0  0  0  0  0  0  0  0  0  0  0
   -0.1307   -1.3508    0.0000 O   0  0  0  0  0  0  0  0  0  0  0  0
    1.1686   -2.1004    0.0000 C   0  0  0  0  0  0  0  0  0  0  0  0
    2.1331   -3.2491    0.0000 H   0  0  0  0  0  0  0  0  0  0  0  0
    0.2048   -3.2497    0.0000 H   0  0  0  0  0  0  0  0  0  0  0  0
    2.4674   -1.3499    0.0000 C   0  0  0  0  0  0  0  0  0  0  0  0
    1.5028   -0.2012    0.0000 H   0  0  0  0  0  0  0  0  0  0  0  0
    3.4312   -0.2006    0.0000 H   0  0  0  0  0  0  0  0  0  0  0  0
    3.7667   -2.0995    0.0000 O   0  0  0  0  0  0  0  0  0  0  0  0
    5.0655   -1.3491    0.0000 S   0  0  0  0  0  0  0  0  0  0  0  0
    5.5790   -2.7585    0.0000 O   0  0  0  0  0  0  0  0  0  0  0  0
    6.5426   -1.0882    0.0000 O   0  0  0  0  0  0  0  0  0  0  0  0
    5.0650    0.1509    0.0000 O   0  0  0  0  0  0  0  0  0  0  0  0
    6.3638    0.9013    0.0000 H   0  0  0  0  0  0  0  0  0  0  0  0
   -2.7271   -5.8524    0.0000 C   0  0  0  0  0  0  0  0  0  0  0  0
   -1.4273   -6.6029    0.0000 N   0  0  0  0  0  0  0  0  0  0  0  0
   -1.4264   -8.1037    0.0000 C   0  0  0  0  0  0  0  0  0  0  0  0
   -0.1270   -8.8531    0.0000 H   0  0  0  0  0  0  0  0  0  0  0  0
   -2.7252   -8.8541    0.0000 C   0  0  0  0  0  0  0  0  0  0  0  0
   -2.7249  -10.3541    0.0000 H   0  0  0  0  0  0  0  0  0  0  0  0
   -4.0249   -8.1037    0.0000 C   0  0  0  0  0  0  0  0  0  0  0  0
   -5.3237   -8.8541    0.0000 H   0  0  0  0  0  0  0  0  0  0  0  0
   -4.0259   -6.6029    0.0000 N   0  0  0  0  0  0  0  0  0  0  0  0
  1  2  1  0  0  0  0 
  1  3  1  0  0  0  0 
  1  4  1  0  0  0  0 
  1  5  1  0  0  0  0 
  5  6  1  0  0  0  0 
  6  7  1  0  0  0  0 
  6  8  1  0  0  0  0 
  6  9  1  0  0  0  0 
  5 10  1  0  0  0  0 
 10 11  1  0  0  0  0 
 10 12  1  0  0  0  0 
 10 13  1  0  0  0  0 
  5 14  1  0  0  0  0 
 14 15  2  0  0  0  0 
 15 16  1  0  0  0  0 
 15 17  1  0  0  0  0 
 17 18  1  0  0  0  0 
 17 19  2  0  0  0  0 
 19 20  1  0  0  0  0 
 20 21  1  0  0  0  0 
 20 22  2  0  0  0  0 
 14 22  1  0  0  0  0 
 22 23  1  0  0  0  0 
 19 24  1  0  0  0  0 
 24 25  2  0  0  0  0 
 24 26  2  0  0  0  0 
 24 27  1  0  0  0  0 
 27 28  1  0  0  0  0 
 27 29  1  0  0  0  0 
 29 30  2  0  0  0  0 
 30 31  1  0  0  0  0 
 31 32  2  0  0  0  0 
 32 33  1  0  0  0  0 
 33 34  2  0  0  0  0 
 29 34  1  0  0  0  0 
 34 35  1  0  0  0  0 
 35 36  1  0  0  0  0 
 36 37  2  0  0  0  0 
 37 38  1  0  0  0  0 
 38 39  1  0  0  0  0 
 38 40  2  0  0  0  0 
 40 41  1  0  0  0  0 
 40 42  1  0  0  0  0 
 42 43  1  0  0  0  0 
 42 44  2  0  0  0  0 
 36 44  1  0  0  0  0 
 44 45  1  0  0  0  0 
 37 46  1  0  0  0  0 
 46 47  1  0  0  0  0 
 47 48  1  0  0  0  0 
 47 49  1  0  0  0  0 
 47 50  1  0  0  0  0 
 33 51  1  0  0  0  0 
 51 52  1  0  0  0  0 
 52 53  1  0  0  0  0 
 52 54  1  0  0  0  0 
 52 55  1  0  0  0  0 
 55 56  1  0  0  0  0 
 55 57  1  0  0  0  0 
 55 58  1  0  0  0  0 
 58 59  1  0  0  0  0 
 59 60  2  0  0  0  0 
 59 61  2  0  0  0  0 
 59 62  1  0  0  0  0 
 62 63  1  0  0  0  0 
 31 64  1  0  0  0  0 
 64 65  2  0  0  0  0 
 65 66  1  0  0  0  0 
 66 67  1  0  0  0  0 
 66 68  2  0  0  0  0 
 68 69  1  0  0  0  0 
 68 70  1  0  0  0  0 
 70 71  1  0  0  0  0 
 70 72  2  0  0  0  0 
 64 72  1  0  0  0  0 
M  END
> <Rank>
1

> <Priority_score>
0.956

> <Reaction_type>
sulfation_(aliphatic_hydroxyl)

> <Parent_ID>
49

> <Parent_InChI>
InChI=1S/C27H29N5O6S/c1-27(2,3)18-10-12-19(13-11-18)39(34,35)32-23-22(38-21-9-6-5-8-20(21)36-4)26(37-17-16-33)31-25(30-23)24-28-14-7-15-29-24/h5-15,33H,16-17H2,1-4H3,(H,30,31,32)

> <Parent_SMILES>
COc1ccccc1Oc1c(NS(=O)(=O)c2ccc(C(C)(C)C)cc2)nc(-c2ncccn2)nc1OCCO

$$$$
Molecule 49_metabolite 2
  CDK     0516241031

 69 72  0  0  0  0  0  0  0  0999 V2000
  -13.4171    5.5849    0.0000 C   0  0  0  0  0  0  0  0  0  0  0  0
  -14.8942    5.3237    0.0000 H   0  0  0  0  0  0  0  0  0  0  0  0
  -13.9308    6.9942    0.0000 H   0  0  0  0  0  0  0  0  0  0  0  0
  -12.1184    6.3355    0.0000 H   0  0  0  0  0  0  0  0  0  0  0  0
  -11.5262    3.3336    0.0000 C   0  0  0  0  0  0  0  0  0  0  0  0
  -10.5626    4.4832    0.0000 C   0  0  0  0  0  0  0  0  0  0  0  0
   -9.0853    4.2234    0.0000 H   0  0  0  0  0  0  0  0  0  0  0  0
  -10.0503    5.8929    0.0000 H   0  0  0  0  0  0  0  0  0  0  0  0
  -11.8620    5.2325    0.0000 H   0  0  0  0  0  0  0  0  0  0  0  0
  -12.8249    2.5830    0.0000 C   0  0  0  0  0  0  0  0  0  0  0  0
  -11.8602    1.4344    0.0000 H   0  0  0  0  0  0  0  0  0  0  0  0
  -13.7885    1.4335    0.0000 H   0  0  0  0  0  0  0  0  0  0  0  0
  -14.1243    3.3324    0.0000 O   0  0  0  0  0  0  0  0  0  0  0  0
  -15.4230    2.5818    0.0000 H   0  0  0  0  0  0  0  0  0  0  0  0
   -9.3952    2.1047    0.0000 C   0  0  0  0  0  0  0  0  0  0  0  0
   -8.0957    2.8555    0.0000 C   0  0  0  0  0  0  0  0  0  0  0  0
   -8.0967    4.3555    0.0000 H   0  0  0  0  0  0  0  0  0  0  0  0
   -6.7952    2.1063    0.0000 C   0  0  0  0  0  0  0  0  0  0  0  0
   -5.4968    2.8574    0.0000 H   0  0  0  0  0  0  0  0  0  0  0  0
   -6.7943    0.6063    0.0000 C   0  0  0  0  0  0  0  0  0  0  0  0
   -8.0938   -0.1445    0.0000 C   0  0  0  0  0  0  0  0  0  0  0  0
   -8.0928   -1.6445    0.0000 H   0  0  0  0  0  0  0  0  0  0  0  0
   -9.3943    0.6047    0.0000 C   0  0  0  0  0  0  0  0  0  0  0  0
  -10.6927   -0.1464    0.0000 H   0  0  0  0  0  0  0  0  0  0  0  0
   -5.4949   -0.1431    0.0000 S   0  0  0  0  0  0  0  0  0  0  0  0
   -4.5301   -1.2917    0.0000 O   0  0  0  0  0  0  0  0  0  0  0  0
   -6.4585   -1.2926    0.0000 O   0  0  0  0  0  0  0  0  0  0  0  0
   -4.1962    0.6076    0.0000 N   0  0  0  0  0  0  0  0  0  0  0  0
   -4.1969    2.1076    0.0000 H   0  0  0  0  0  0  0  0  0  0  0  0
   -2.8968   -0.1418    0.0000 C   0  0  0  0  0  0  0  0  0  0  0  0
   -2.8958   -1.6426    0.0000 N   0  0  0  0  0  0  0  0  0  0  0  0
   -1.5961   -2.3931    0.0000 C   0  0  0  0  0  0  0  0  0  0  0  0
   -0.2973   -1.6426    0.0000 N   0  0  0  0  0  0  0  0  0  0  0  0
   -0.2982   -0.1418    0.0000 C   0  0  0  0  0  0  0  0  0  0  0  0
   -1.5980    0.6086    0.0000 C   0  0  0  0  0  0  0  0  0  0  0  0
   -1.5984    3.0686    0.0000 O   0  0  0  0  0  0  0  0  0  0  0  0
   -0.2995    3.8188    0.0000 C   0  0  0  0  0  0  0  0  0  0  0  0
   -0.2977    5.3197    0.0000 C   0  0  0  0  0  0  0  0  0  0  0  0
    1.0025    6.0677    0.0000 C   0  0  0  0  0  0  0  0  0  0  0  0
    1.0050    7.5677    0.0000 H   0  0  0  0  0  0  0  0  0  0  0  0
    2.3009    5.3149    0.0000 C   0  0  0  0  0  0  0  0  0  0  0  0
    3.6023    6.0607    0.0000 H   0  0  0  0  0  0  0  0  0  0  0  0
    2.2941    3.8227    0.0000 C   0  0  0  0  0  0  0  0  0  0  0  0
    3.5909    3.0688    0.0000 H   0  0  0  0  0  0  0  0  0  0  0  0
    0.9939    3.0747    0.0000 C   0  0  0  0  0  0  0  0  0  0  0  0
    0.9939    1.5747    0.0000 H   0  0  0  0  0  0  0  0  0  0  0  0
   -1.5957    6.0714    0.0000 O   0  0  0  0  0  0  0  0  0  0  0  0
   -1.5937    7.5714    0.0000 C   0  0  0  0  0  0  0  0  0  0  0  0
   -0.2936    8.3196    0.0000 H   0  0  0  0  0  0  0  0  0  0  0  0
   -2.1048    8.9816    0.0000 H   0  0  0  0  0  0  0  0  0  0  0  0
   -3.0712    7.3129    0.0000 H   0  0  0  0  0  0  0  0  0  0  0  0
    1.0006    0.6086    0.0000 O   0  0  0  0  0  0  0  0  0  0  0  0
    2.2998   -0.1410    0.0000 C   0  0  0  0  0  0  0  0  0  0  0  0
    3.2644   -1.2897    0.0000 H   0  0  0  0  0  0  0  0  0  0  0  0
    1.3360   -1.2903    0.0000 H   0  0  0  0  0  0  0  0  0  0  0  0
    3.5986    0.6094    0.0000 C   0  0  0  0  0  0  0  0  0  0  0  0
    2.6341    1.7582    0.0000 H   0  0  0  0  0  0  0  0  0  0  0  0
    4.5625    1.7588    0.0000 H   0  0  0  0  0  0  0  0  0  0  0  0
    4.8979   -0.1401    0.0000 O   0  0  0  0  0  0  0  0  0  0  0  0
    6.1967    0.6103    0.0000 H   0  0  0  0  0  0  0  0  0  0  0  0
   -1.5958   -3.8931    0.0000 C   0  0  0  0  0  0  0  0  0  0  0  0
   -0.2961   -4.6435    0.0000 N   0  0  0  0  0  0  0  0  0  0  0  0
   -0.2951   -6.1443    0.0000 C   0  0  0  0  0  0  0  0  0  0  0  0
    1.0043   -6.8937    0.0000 H   0  0  0  0  0  0  0  0  0  0  0  0
   -1.5939   -6.8947    0.0000 C   0  0  0  0  0  0  0  0  0  0  0  0
   -1.5937   -8.3947    0.0000 H   0  0  0  0  0  0  0  0  0  0  0  0
   -2.8937   -6.1443    0.0000 C   0  0  0  0  0  0  0  0  0  0  0  0
   -4.1925   -6.8947    0.0000 H   0  0  0  0  0  0  0  0  0  0  0  0
   -2.8946   -4.6435    0.0000 N   0  0  0  0  0  0  0  0  0  0  0  0
  1  2  1  0  0  0  0 
  1  3  1  0  0  0  0 
  1  4  1  0  0  0  0 
  1  5  1  0  0  0  0 
  5  6  1  0  0  0  0 
  6  7  1  0  0  0  0 
  6  8  1  0  0  0  0 
  6  9  1  0  0  0  0 
  5 10  1  0  0  0  0 
 10 11  1  0  0  0  0 
 10 12  1  0  0  0  0 
 10 13  1  0  0  0  0 
 13 14  1  0  0  0  0 
  5 15  1  0  0  0  0 
 15 16  2  0  0  0  0 
 16 17  1  0  0  0  0 
 16 18  1  0  0  0  0 
 18 19  1  0  0  0  0 
 18 20  2  0  0  0  0 
 20 21  1  0  0  0  0 
 21 22  1  0  0  0  0 
 21 23  2  0  0  0  0 
 15 23  1  0  0  0  0 
 23 24  1  0  0  0  0 
 20 25  1  0  0  0  0 
 25 26  2  0  0  0  0 
 25 27  2  0  0  0  0 
 25 28  1  0  0  0  0 
 28 29  1  0  0  0  0 
 28 30  1  0  0  0  0 
 30 31  2  0  0  0  0 
 31 32  1  0  0  0  0 
 32 33  2  0  0  0  0 
 33 34  1  0  0  0  0 
 34 35  2  0  0  0  0 
 30 35  1  0  0  0  0 
 35 36  1  0  0  0  0 
 36 37  1  0  0  0  0 
 37 38  2  0  0  0  0 
 38 39  1  0  0  0  0 
 39 40  1  0  0  0  0 
 39 41  2  0  0  0  0 
 41 42  1  0  0  0  0 
 41 43  1  0  0  0  0 
 43 44  1  0  0  0  0 
 43 45  2  0  0  0  0 
 37 45  1  0  0  0  0 
 45 46  1  0  0  0  0 
 38 47  1  0  0  0  0 
 47 48  1  0  0  0  0 
 48 49  1  0  0  0  0 
 48 50  1  0  0  0  0 
 48 51  1  0  0  0  0 
 34 52  1  0  0  0  0 
 52 53  1  0  0  0  0 
 53 54  1  0  0  0  0 
 53 55  1  0  0  0  0 
 53 56  1  0  0  0  0 
 56 57  1  0  0  0  0 
 56 58  1  0  0  0  0 
 56 59  1  0  0  0  0 
 59 60  1  0  0  0  0 
 32 61  1  0  0  0  0 
 61 62  2  0  0  0  0 
 62 63  1  0  0  0  0 
 63 64  1  0  0  0  0 
 63 65  2  0  0  0  0 
 65 66  1  0  0  0  0 
 65 67  1  0  0  0  0 
 67 68  1  0  0  0  0 
 67 69  2  0  0  0  0 
 61 69  1  0  0  0  0 
M  END
> <Rank>
2

> <Priority_score>
0.888

> <Reaction_type>
aliphatic_hydroxylation_(primary_carbon_next_to_quart_carbon)

> <Parent_ID>
49

> <Parent_InChI>
InChI=1S/C27H29N5O6S/c1-27(2,3)18-10-12-19(13-11-18)39(34,35)32-23-22(38-21-9-6-5-8-20(21)36-4)26(37-17-16-33)31-25(30-23)24-28-14-7-15-29-24/h5-15,33H,16-17H2,1-4H3,(H,30,31,32)

> <Parent_SMILES>
COc1ccccc1Oc1c(NS(=O)(=O)c2ccc(C(C)(C)C)cc2)nc(-c2ncccn2)nc1OCCO

$$$$
Molecule 49_metabolite 3
  CDK     0516241031

 68 71  0  0  0  0  0  0  0  0999 V2000
  -13.4171    5.5849    0.0000 C   0  0  0  0  0  0  0  0  0  0  0  0
  -14.8942    5.3237    0.0000 H   0  0  0  0  0  0  0  0  0  0  0  0
  -13.9308    6.9942    0.0000 H   0  0  0  0  0  0  0  0  0  0  0  0
  -12.1184    6.3355    0.0000 H   0  0  0  0  0  0  0  0  0  0  0  0
  -11.5262    3.3336    0.0000 C   0  0  0  0  0  0  0  0  0  0  0  0
  -10.5626    4.4832    0.0000 C   0  0  0  0  0  0  0  0  0  0  0  0
   -9.0853    4.2234    0.0000 H   0  0  0  0  0  0  0  0  0  0  0  0
  -10.0503    5.8929    0.0000 H   0  0  0  0  0  0  0  0  0  0  0  0
  -11.8620    5.2325    0.0000 H   0  0  0  0  0  0  0  0  0  0  0  0
   -9.3952    2.1047    0.0000 C   0  0  0  0  0  0  0  0  0  0  0  0
   -8.0957    2.8555    0.0000 C   0  0  0  0  0  0  0  0  0  0  0  0
   -8.0967    4.3555    0.0000 H   0  0  0  0  0  0  0  0  0  0  0  0
   -6.7952    2.1063    0.0000 C   0  0  0  0  0  0  0  0  0  0  0  0
   -5.4968    2.8574    0.0000 H   0  0  0  0  0  0  0  0  0  0  0  0
   -6.7943    0.6063    0.0000 C   0  0  0  0  0  0  0  0  0  0  0  0
   -8.0938   -0.1445    0.0000 C   0  0  0  0  0  0  0  0  0  0  0  0
   -8.0928   -1.6445    0.0000 H   0  0  0  0  0  0  0  0  0  0  0  0
   -9.3943    0.6047    0.0000 C   0  0  0  0  0  0  0  0  0  0  0  0
  -10.6927   -0.1464    0.0000 H   0  0  0  0  0  0  0  0  0  0  0  0
   -5.4949   -0.1431    0.0000 S   0  0  0  0  0  0  0  0  0  0  0  0
   -4.5301   -1.2917    0.0000 O   0  0  0  0  0  0  0  0  0  0  0  0
   -6.4585   -1.2926    0.0000 O   0  0  0  0  0  0  0  0  0  0  0  0
   -4.1962    0.6076    0.0000 N   0  0  0  0  0  0  0  0  0  0  0  0
   -4.1969    2.1076    0.0000 H   0  0  0  0  0  0  0  0  0  0  0  0
   -2.8968   -0.1418    0.0000 C   0  0  0  0  0  0  0  0  0  0  0  0
   -2.8958   -1.6426    0.0000 N   0  0  0  0  0  0  0  0  0  0  0  0
   -1.5961   -2.3931    0.0000 C   0  0  0  0  0  0  0  0  0  0  0  0
   -0.2973   -1.6426    0.0000 N   0  0  0  0  0  0  0  0  0  0  0  0
   -0.2982   -0.1418    0.0000 C   0  0  0  0  0  0  0  0  0  0  0  0
   -1.5980    0.6086    0.0000 C   0  0  0  0  0  0  0  0  0  0  0  0
   -1.5984    3.0686    0.0000 O   0  0  0  0  0  0  0  0  0  0  0  0
   -0.2995    3.8188    0.0000 C   0  0  0  0  0  0  0  0  0  0  0  0
   -0.2977    5.3197    0.0000 C   0  0  0  0  0  0  0  0  0  0  0  0
    1.0025    6.0677    0.0000 C   0  0  0  0  0  0  0  0  0  0  0  0
    1.0050    7.5677    0.0000 H   0  0  0  0  0  0  0  0  0  0  0  0
    2.3009    5.3149    0.0000 C   0  0  0  0  0  0  0  0  0  0  0  0
    3.6023    6.0607    0.0000 H   0  0  0  0  0  0  0  0  0  0  0  0
    2.2941    3.8227    0.0000 C   0  0  0  0  0  0  0  0  0  0  0  0
    3.5909    3.0688    0.0000 H   0  0  0  0  0  0  0  0  0  0  0  0
    0.9939    3.0747    0.0000 C   0  0  0  0  0  0  0  0  0  0  0  0
    0.9939    1.5747    0.0000 H   0  0  0  0  0  0  0  0  0  0  0  0
   -1.5957    6.0714    0.0000 O   0  0  0  0  0  0  0  0  0  0  0  0
   -1.5937    7.5714    0.0000 C   0  0  0  0  0  0  0  0  0  0  0  0
   -0.2936    8.3196    0.0000 H   0  0  0  0  0  0  0  0  0  0  0  0
   -2.1048    8.9816    0.0000 H   0  0  0  0  0  0  0  0  0  0  0  0
   -3.0712    7.3129    0.0000 H   0  0  0  0  0  0  0  0  0  0  0  0
    1.0006    0.6086    0.0000 O   0  0  0  0  0  0  0  0  0  0  0  0
    2.2998   -0.1410    0.0000 C   0  0  0  0  0  0  0  0  0  0  0  0
    3.2644   -1.2897    0.0000 H   0  0  0  0  0  0  0  0  0  0  0  0
    1.3360   -1.2903    0.0000 H   0  0  0  0  0  0  0  0  0  0  0  0
    3.5986    0.6094    0.0000 C   0  0  0  0  0  0  0  0  0  0  0  0
    2.6341    1.7582    0.0000 H   0  0  0  0  0  0  0  0  0  0  0  0
    4.5625    1.7588    0.0000 H   0  0  0  0  0  0  0  0  0  0  0  0
    4.8979   -0.1401    0.0000 O   0  0  0  0  0  0  0  0  0  0  0  0
    6.1967    0.6103    0.0000 H   0  0  0  0  0  0  0  0  0  0  0  0
   -1.5958   -3.8931    0.0000 C   0  0  0  0  0  0  0  0  0  0  0  0
   -0.2961   -4.6435    0.0000 N   0  0  0  0  0  0  0  0  0  0  0  0
   -0.2951   -6.1443    0.0000 C   0  0  0  0  0  0  0  0  0  0  0  0
    1.0043   -6.8937    0.0000 H   0  0  0  0  0  0  0  0  0  0  0  0
   -1.5939   -6.8947    0.0000 C   0  0  0  0  0  0  0  0  0  0  0  0
   -1.5937   -8.3947    0.0000 H   0  0  0  0  0  0  0  0  0  0  0  0
   -2.8937   -6.1443    0.0000 C   0  0  0  0  0  0  0  0  0  0  0  0
   -4.1925   -6.8947    0.0000 H   0  0  0  0  0  0  0  0  0  0  0  0
   -2.8946   -4.6435    0.0000 N   0  0  0  0  0  0  0  0  0  0  0  0
  -12.8249    2.5830    0.0000 C   0  0  0  0  0  0  0  0  0  0  0  0
  -12.8242    1.0830    0.0000 O   0  0  0  0  0  0  0  0  0  0  0  0
  -14.1243    3.3324    0.0000 O   0  0  0  0  0  0  0  0  0  0  0  0
  -15.4230    2.5818    0.0000 H   0  0  0  0  0  0  0  0  0  0  0  0
  1  2  1  0  0  0  0 
  1  3  1  0  0  0  0 
  1  4  1  0  0  0  0 
  1  5  1  0  0  0  0 
  5  6  1  0  0  0  0 
  6  7  1  0  0  0  0 
  6  8  1  0  0  0  0 
  6  9  1  0  0  0  0 
  5 10  1  0  0  0  0 
 10 11  2  0  0  0  0 
 11 12  1  0  0  0  0 
 11 13  1  0  0  0  0 
 13 14  1  0  0  0  0 
 13 15  2  0  0  0  0 
 15 16  1  0  0  0  0 
 16 17  1  0  0  0  0 
 16 18  2  0  0  0  0 
 10 18  1  0  0  0  0 
 18 19  1  0  0  0  0 
 15 20  1  0  0  0  0 
 20 21  2  0  0  0  0 
 20 22  2  0  0  0  0 
 20 23  1  0  0  0  0 
 23 24  1  0  0  0  0 
 23 25  1  0  0  0  0 
 25 26  2  0  0  0  0 
 26 27  1  0  0  0  0 
 27 28  2  0  0  0  0 
 28 29  1  0  0  0  0 
 29 30  2  0  0  0  0 
 25 30  1  0  0  0  0 
 30 31  1  0  0  0  0 
 31 32  1  0  0  0  0 
 32 33  2  0  0  0  0 
 33 34  1  0  0  0  0 
 34 35  1  0  0  0  0 
 34 36  2  0  0  0  0 
 36 37  1  0  0  0  0 
 36 38  1  0  0  0  0 
 38 39  1  0  0  0  0 
 38 40  2  0  0  0  0 
 32 40  1  0  0  0  0 
 40 41  1  0  0  0  0 
 33 42  1  0  0  0  0 
 42 43  1  0  0  0  0 
 43 44  1  0  0  0  0 
 43 45  1  0  0  0  0 
 43 46  1  0  0  0  0 
 29 47  1  0  0  0  0 
 47 48  1  0  0  0  0 
 48 49  1  0  0  0  0 
 48 50  1  0  0  0  0 
 48 51  1  0  0  0  0 
 51 52  1  0  0  0  0 
 51 53  1  0  0  0  0 
 51 54  1  0  0  0  0 
 54 55  1  0  0  0  0 
 27 56  1  0  0  0  0 
 56 57  2  0  0  0  0 
 57 58  1  0  0  0  0 
 58 59  1  0  0  0  0 
 58 60  2  0  0  0  0 
 60 61  1  0  0  0  0 
 60 62  1  0  0  0  0 
 62 63  1  0  0  0  0 
 62 64  2  0  0  0  0 
 56 64  1  0  0  0  0 
  5 65  1  0  0  0  0 
 65 66  2  0  0  0  0 
 65 67  1  0  0  0  0 
 67 68  1  0  0  0  0 
M  END
> <Rank>
2

> <Priority_score>
0.888

> <Reaction_type>
carboxylation_(primary_carbon_next_to_quart_carbon)

> <Parent_ID>
49

> <Parent_InChI>
InChI=1S/C27H29N5O6S/c1-27(2,3)18-10-12-19(13-11-18)39(34,35)32-23-22(38-21-9-6-5-8-20(21)36-4)26(37-17-16-33)31-25(30-23)24-28-14-7-15-29-24/h5-15,33H,16-17H2,1-4H3,(H,30,31,32)

> <Parent_SMILES>
COc1ccccc1Oc1c(NS(=O)(=O)c2ccc(C(C)(C)C)cc2)nc(-c2ncccn2)nc1OCCO

$$$$
Molecule 49_metabolite 4
  CDK     0516241031

 88 92  0  0  0  0  0  0  0  0999 V2000
  -16.0896   -1.1122    0.0000 C   0  0  0  0  0  0  0  0  0  0  0  0
  -17.3890   -0.3629    0.0000 H   0  0  0  0  0  0  0  0  0  0  0  0
  -15.1249   -2.2608    0.0000 H   0  0  0  0  0  0  0  0  0  0  0  0
  -17.0532   -2.2618    0.0000 H   0  0  0  0  0  0  0  0  0  0  0  0
  -14.7909   -0.3616    0.0000 C   0  0  0  0  0  0  0  0  0  0  0  0
  -16.3731    1.5221    0.0000 C   0  0  0  0  0  0  0  0  0  0  0  0
  -17.8502    1.2609    0.0000 H   0  0  0  0  0  0  0  0  0  0  0  0
  -16.8868    2.9314    0.0000 H   0  0  0  0  0  0  0  0  0  0  0  0
  -15.0744    2.2727    0.0000 H   0  0  0  0  0  0  0  0  0  0  0  0
  -13.8273    0.7879    0.0000 C   0  0  0  0  0  0  0  0  0  0  0  0
  -14.3410    2.1972    0.0000 H   0  0  0  0  0  0  0  0  0  0  0  0
  -12.5286    1.5385    0.0000 H   0  0  0  0  0  0  0  0  0  0  0  0
  -12.8626   -0.3607    0.0000 H   0  0  0  0  0  0  0  0  0  0  0  0
  -13.0757   -1.3508    0.0000 C   0  0  0  0  0  0  0  0  0  0  0  0
  -11.7762   -0.6000    0.0000 C   0  0  0  0  0  0  0  0  0  0  0  0
  -11.7772    0.9000    0.0000 H   0  0  0  0  0  0  0  0  0  0  0  0
  -10.4757   -1.3491    0.0000 C   0  0  0  0  0  0  0  0  0  0  0  0
   -9.1773   -0.5981    0.0000 H   0  0  0  0  0  0  0  0  0  0  0  0
  -10.4748   -2.8491    0.0000 C   0  0  0  0  0  0  0  0  0  0  0  0
  -11.7743   -3.6000    0.0000 C   0  0  0  0  0  0  0  0  0  0  0  0
  -11.7733   -5.1000    0.0000 H   0  0  0  0  0  0  0  0  0  0  0  0
  -13.0748   -2.8508    0.0000 C   0  0  0  0  0  0  0  0  0  0  0  0
  -14.3732   -3.6018    0.0000 H   0  0  0  0  0  0  0  0  0  0  0  0
   -9.1754   -3.5985    0.0000 S   0  0  0  0  0  0  0  0  0  0  0  0
   -8.2106   -4.7471    0.0000 O   0  0  0  0  0  0  0  0  0  0  0  0
  -10.1390   -4.7480    0.0000 O   0  0  0  0  0  0  0  0  0  0  0  0
   -7.8767   -2.8479    0.0000 N   0  0  0  0  0  0  0  0  0  0  0  0
   -7.8774   -1.3479    0.0000 H   0  0  0  0  0  0  0  0  0  0  0  0
   -6.5773   -3.5973    0.0000 C   0  0  0  0  0  0  0  0  0  0  0  0
   -6.5763   -5.0981    0.0000 N   0  0  0  0  0  0  0  0  0  0  0  0
   -5.2766   -5.8485    0.0000 C   0  0  0  0  0  0  0  0  0  0  0  0
   -3.9778   -5.0981    0.0000 N   0  0  0  0  0  0  0  0  0  0  0  0
   -3.9787   -3.5973    0.0000 C   0  0  0  0  0  0  0  0  0  0  0  0
   -5.2785   -2.8468    0.0000 C   0  0  0  0  0  0  0  0  0  0  0  0
   -5.2789   -0.3868    0.0000 O   0  0  0  0  0  0  0  0  0  0  0  0
   -3.9800    0.3634    0.0000 C   0  0  0  0  0  0  0  0  0  0  0  0
   -3.9782    1.8642    0.0000 C   0  0  0  0  0  0  0  0  0  0  0  0
   -2.6780    2.6122    0.0000 C   0  0  0  0  0  0  0  0  0  0  0  0
   -2.6755    4.1122    0.0000 H   0  0  0  0  0  0  0  0  0  0  0  0
   -1.3796    1.8594    0.0000 C   0  0  0  0  0  0  0  0  0  0  0  0
   -0.0782    2.6053    0.0000 H   0  0  0  0  0  0  0  0  0  0  0  0
   -1.3864    0.3673    0.0000 C   0  0  0  0  0  0  0  0  0  0  0  0
   -0.0896   -0.3867    0.0000 H   0  0  0  0  0  0  0  0  0  0  0  0
   -2.6866   -0.3808    0.0000 C   0  0  0  0  0  0  0  0  0  0  0  0
   -2.6866   -1.8808    0.0000 H   0  0  0  0  0  0  0  0  0  0  0  0
   -5.2762    2.6160    0.0000 O   0  0  0  0  0  0  0  0  0  0  0  0
   -5.2742    4.1160    0.0000 C   0  0  0  0  0  0  0  0  0  0  0  0
   -3.9741    4.8642    0.0000 H   0  0  0  0  0  0  0  0  0  0  0  0
   -5.7853    5.5262    0.0000 H   0  0  0  0  0  0  0  0  0  0  0  0
   -6.7517    3.8575    0.0000 H   0  0  0  0  0  0  0  0  0  0  0  0
   -2.6799   -2.8468    0.0000 O   0  0  0  0  0  0  0  0  0  0  0  0
   -1.3806   -3.5964    0.0000 C   0  0  0  0  0  0  0  0  0  0  0  0
   -0.4161   -4.7452    0.0000 H   0  0  0  0  0  0  0  0  0  0  0  0
   -2.3445   -4.7458    0.0000 H   0  0  0  0  0  0  0  0  0  0  0  0
   -0.0818   -2.8460    0.0000 C   0  0  0  0  0  0  0  0  0  0  0  0
   -1.0464   -1.6972    0.0000 H   0  0  0  0  0  0  0  0  0  0  0  0
    0.8820   -1.6966    0.0000 H   0  0  0  0  0  0  0  0  0  0  0  0
    1.6332   -3.8355    0.0000 O   0  0  0  0  0  0  0  0  0  0  0  0
    2.9320   -3.0850    0.0000 C   0  0  0  0  0  0  0  0  0  0  0  0
    1.9701   -1.9341    0.0000 H   0  0  0  0  0  0  0  0  0  0  0  0
    3.4453   -4.4838    0.0000 C   0  0  0  0  0  0  0  0  0  0  0  0
    3.4504   -5.9838    0.0000 H   0  0  0  0  0  0  0  0  0  0  0  0
    4.9463   -4.7426    0.0000 C   0  0  0  0  0  0  0  0  0  0  0  0
    6.2503   -5.4840    0.0000 H   0  0  0  0  0  0  0  0  0  0  0  0
    5.9049   -3.5813    0.0000 C   0  0  0  0  0  0  0  0  0  0  0  0
    7.2006   -2.8255    0.0000 H   0  0  0  0  0  0  0  0  0  0  0  0
    5.3916   -2.1825    0.0000 C   0  0  0  0  0  0  0  0  0  0  0  0
    5.3874   -0.6825    0.0000 H   0  0  0  0  0  0  0  0  0  0  0  0
    7.3406   -1.8334    0.0000 C   0  0  0  0  0  0  0  0  0  0  0  0
    7.8498   -0.4224    0.0000 O   0  0  0  0  0  0  0  0  0  0  0  0
    8.3079   -2.9798    0.0000 O   0  0  0  0  0  0  0  0  0  0  0  0
    9.7844   -2.7153    0.0000 H   0  0  0  0  0  0  0  0  0  0  0  0
    3.9128   -1.9262    0.0000 O   0  0  0  0  0  0  0  0  0  0  0  0
    6.8763   -4.7243    0.0000 O   0  0  0  0  0  0  0  0  0  0  0  0
    8.3518   -4.4546    0.0000 H   0  0  0  0  0  0  0  0  0  0  0  0
    4.4406   -6.1548    0.0000 O   0  0  0  0  0  0  0  0  0  0  0  0
    5.4108   -7.2988    0.0000 H   0  0  0  0  0  0  0  0  0  0  0  0
    1.9689   -4.7488    0.0000 O   0  0  0  0  0  0  0  0  0  0  0  0
    1.4601   -6.1599    0.0000 H   0  0  0  0  0  0  0  0  0  0  0  0
   -5.2763   -7.3485    0.0000 C   0  0  0  0  0  0  0  0  0  0  0  0
   -3.9766   -8.0989    0.0000 N   0  0  0  0  0  0  0  0  0  0  0  0
   -3.9756   -9.5998    0.0000 C   0  0  0  0  0  0  0  0  0  0  0  0
   -2.6762  -10.3491    0.0000 H   0  0  0  0  0  0  0  0  0  0  0  0
   -5.2744  -10.3502    0.0000 C   0  0  0  0  0  0  0  0  0  0  0  0
   -5.2742  -11.8502    0.0000 H   0  0  0  0  0  0  0  0  0  0  0  0
   -6.5742   -9.5998    0.0000 C   0  0  0  0  0  0  0  0  0  0  0  0
   -7.8729  -10.3502    0.0000 H   0  0  0  0  0  0  0  0  0  0  0  0
   -6.5751   -8.0989    0.0000 N   0  0  0  0  0  0  0  0  0  0  0  0
  1  2  1  0  0  0  0 
  1  3  1  0  0  0  0 
  1  4  1  0  0  0  0 
  1  5  1  0  0  0  0 
  5  6  1  0  0  0  0 
  6  7  1  0  0  0  0 
  6  8  1  0  0  0  0 
  6  9  1  0  0  0  0 
  5 10  1  0  0  0  0 
 10 11  1  0  0  0  0 
 10 12  1  0  0  0  0 
 10 13  1  0  0  0  0 
  5 14  1  0  0  0  0 
 14 15  2  0  0  0  0 
 15 16  1  0  0  0  0 
 15 17  1  0  0  0  0 
 17 18  1  0  0  0  0 
 17 19  2  0  0  0  0 
 19 20  1  0  0  0  0 
 20 21  1  0  0  0  0 
 20 22  2  0  0  0  0 
 14 22  1  0  0  0  0 
 22 23  1  0  0  0  0 
 19 24  1  0  0  0  0 
 24 25  2  0  0  0  0 
 24 26  2  0  0  0  0 
 24 27  1  0  0  0  0 
 27 28  1  0  0  0  0 
 27 29  1  0  0  0  0 
 29 30  2  0  0  0  0 
 30 31  1  0  0  0  0 
 31 32  2  0  0  0  0 
 32 33  1  0  0  0  0 
 33 34  2  0  0  0  0 
 29 34  1  0  0  0  0 
 34 35  1  0  0  0  0 
 35 36  1  0  0  0  0 
 36 37  2  0  0  0  0 
 37 38  1  0  0  0  0 
 38 39  1  0  0  0  0 
 38 40  2  0  0  0  0 
 40 41  1  0  0  0  0 
 40 42  1  0  0  0  0 
 42 43  1  0  0  0  0 
 42 44  2  0  0  0  0 
 36 44  1  0  0  0  0 
 44 45  1  0  0  0  0 
 37 46  1  0  0  0  0 
 46 47  1  0  0  0  0 
 47 48  1  0  0  0  0 
 47 49  1  0  0  0  0 
 47 50  1  0  0  0  0 
 33 51  1  0  0  0  0 
 51 52  1  0  0  0  0 
 52 53  1  0  0  0  0 
 52 54  1  0  0  0  0 
 52 55  1  0  0  0  0 
 55 56  1  0  0  0  0 
 55 57  1  0  0  0  0 
 55 58  1  0  0  0  0 
 58 59  1  0  0  0  0 
 59 60  1  0  0  0  0 
 59 61  1  0  0  0  0 
 61 62  1  0  0  0  0 
 61 63  1  0  0  0  0 
 63 64  1  0  0  0  0 
 63 65  1  0  0  0  0 
 65 66  1  0  0  0  0 
 65 67  1  0  0  0  0 
 67 68  1  0  0  0  0 
 67 69  1  0  0  0  0 
 69 70  2  0  0  0  0 
 69 71  1  0  0  0  0 
 71 72  1  0  0  0  0 
 67 73  1  0  0  0  0 
 59 73  1  0  0  0  0 
 65 74  1  0  0  0  0 
 74 75  1  0  0  0  0 
 63 76  1  0  0  0  0 
 76 77  1  0  0  0  0 
 61 78  1  0  0  0  0 
 78 79  1  0  0  0  0 
 31 80  1  0  0  0  0 
 80 81  2  0  0  0  0 
 81 82  1  0  0  0  0 
 82 83  1  0  0  0  0 
 82 84  2  0  0  0  0 
 84 85  1  0  0  0  0 
 84 86  1  0  0  0  0 
 86 87  1  0  0  0  0 
 86 88  2  0  0  0  0 
 80 88  1  0  0  0  0 
M  END
> <Rank>
4

> <Priority_score>
0.756

> <Reaction_type>
O-glucuronidation_(aliphatic_hydroxyl)

> <Parent_ID>
49

> <Parent_InChI>
InChI=1S/C27H29N5O6S/c1-27(2,3)18-10-12-19(13-11-18)39(34,35)32-23-22(38-21-9-6-5-8-20(21)36-4)26(37-17-16-33)31-25(30-23)24-28-14-7-15-29-24/h5-15,33H,16-17H2,1-4H3,(H,30,31,32)

> <Parent_SMILES>
COc1ccccc1Oc1c(NS(=O)(=O)c2ccc(C(C)(C)C)cc2)nc(-c2ncccn2)nc1OCCO

$$$$
Molecule 49_metabolite 5
  CDK     0516241031

 69 72  0  0  0  0  0  0  0  0999 V2000
   -9.5737   -6.3416    0.0000 C   0  0  0  0  0  0  0  0  0  0  0  0
  -10.8723   -7.0923    0.0000 H   0  0  0  0  0  0  0  0  0  0  0  0
   -8.0966   -6.0805    0.0000 H   0  0  0  0  0  0  0  0  0  0  0  0
   -9.0600   -7.7509    0.0000 H   0  0  0  0  0  0  0  0  0  0  0  0
   -9.5744   -4.8416    0.0000 C   0  0  0  0  0  0  0  0  0  0  0  0
  -12.4695   -5.3536    0.0000 C   0  0  0  0  0  0  0  0  0  0  0  0
  -12.9818   -6.7633    0.0000 H   0  0  0  0  0  0  0  0  0  0  0  0
  -13.9468   -5.0938    0.0000 H   0  0  0  0  0  0  0  0  0  0  0  0
  -12.4702   -3.8536    0.0000 H   0  0  0  0  0  0  0  0  0  0  0  0
  -10.0881   -3.4323    0.0000 C   0  0  0  0  0  0  0  0  0  0  0  0
   -9.1245   -2.2828    0.0000 H   0  0  0  0  0  0  0  0  0  0  0  0
  -11.0528   -2.2837    0.0000 H   0  0  0  0  0  0  0  0  0  0  0  0
  -11.3868   -4.1830    0.0000 H   0  0  0  0  0  0  0  0  0  0  0  0
   -7.4446   -3.6106    0.0000 C   0  0  0  0  0  0  0  0  0  0  0  0
   -7.4450   -2.1098    0.0000 C   0  0  0  0  0  0  0  0  0  0  0  0
   -8.7446   -1.3606    0.0000 H   0  0  0  0  0  0  0  0  0  0  0  0
   -6.1460   -1.3581    0.0000 C   0  0  0  0  0  0  0  0  0  0  0  0
   -6.1472    0.1419    0.0000 H   0  0  0  0  0  0  0  0  0  0  0  0
   -4.8465   -2.1073    0.0000 C   0  0  0  0  0  0  0  0  0  0  0  0
   -4.8460   -3.6081    0.0000 C   0  0  0  0  0  0  0  0  0  0  0  0
   -3.5465   -4.3573    0.0000 H   0  0  0  0  0  0  0  0  0  0  0  0
   -6.1450   -4.3598    0.0000 C   0  0  0  0  0  0  0  0  0  0  0  0
   -6.1438   -5.8598    0.0000 H   0  0  0  0  0  0  0  0  0  0  0  0
   -3.5478   -1.3567    0.0000 S   0  0  0  0  0  0  0  0  0  0  0  0
   -2.0707   -1.0955    0.0000 O   0  0  0  0  0  0  0  0  0  0  0  0
   -3.0341   -2.7660    0.0000 O   0  0  0  0  0  0  0  0  0  0  0  0
   -3.5485    0.1433    0.0000 N   0  0  0  0  0  0  0  0  0  0  0  0
   -4.8479    0.8927    0.0000 H   0  0  0  0  0  0  0  0  0  0  0  0
   -2.2499    0.8940    0.0000 C   0  0  0  0  0  0  0  0  0  0  0  0
   -0.9496    0.1444    0.0000 N   0  0  0  0  0  0  0  0  0  0  0  0
    0.3501    0.8948    0.0000 C   0  0  0  0  0  0  0  0  0  0  0  0
    0.3497    2.3948    0.0000 N   0  0  0  0  0  0  0  0  0  0  0  0
   -0.9506    3.1444    0.0000 C   0  0  0  0  0  0  0  0  0  0  0  0
   -2.2503    2.3940    0.0000 C   0  0  0  0  0  0  0  0  0  0  0  0
   -4.3810    3.6236    0.0000 O   0  0  0  0  0  0  0  0  0  0  0  0
   -4.3812    5.1236    0.0000 C   0  0  0  0  0  0  0  0  0  0  0  0
   -5.6801    5.8756    0.0000 C   0  0  0  0  0  0  0  0  0  0  0  0
   -5.6778    7.3756    0.0000 C   0  0  0  0  0  0  0  0  0  0  0  0
   -6.9756    8.1278    0.0000 H   0  0  0  0  0  0  0  0  0  0  0  0
   -4.3766    8.1236    0.0000 C   0  0  0  0  0  0  0  0  0  0  0  0
   -4.3719    9.6236    0.0000 H   0  0  0  0  0  0  0  0  0  0  0  0
   -3.0878    7.3717    0.0000 C   0  0  0  0  0  0  0  0  0  0  0  0
   -1.7865    8.1177    0.0000 H   0  0  0  0  0  0  0  0  0  0  0  0
   -3.0901    5.8717    0.0000 C   0  0  0  0  0  0  0  0  0  0  0  0
   -1.7910    5.1217    0.0000 H   0  0  0  0  0  0  0  0  0  0  0  0
   -6.9801    5.1273    0.0000 O   0  0  0  0  0  0  0  0  0  0  0  0
   -8.2781    5.8791    0.0000 C   0  0  0  0  0  0  0  0  0  0  0  0
   -9.7550    6.1416    0.0000 H   0  0  0  0  0  0  0  0  0  0  0  0
   -8.7931    4.4703    0.0000 H   0  0  0  0  0  0  0  0  0  0  0  0
   -8.2761    7.3791    0.0000 O   0  0  0  0  0  0  0  0  0  0  0  0
   -9.5741    8.1309    0.0000 H   0  0  0  0  0  0  0  0  0  0  0  0
   -0.9511    4.6444    0.0000 O   0  0  0  0  0  0  0  0  0  0  0  0
    0.3477    5.3948    0.0000 C   0  0  0  0  0  0  0  0  0  0  0  0
    1.8249    5.6557    0.0000 H   0  0  0  0  0  0  0  0  0  0  0  0
    0.8612    3.9854    0.0000 H   0  0  0  0  0  0  0  0  0  0  0  0
    0.3473    6.8948    0.0000 C   0  0  0  0  0  0  0  0  0  0  0  0
   -1.1299    6.6339    0.0000 H   0  0  0  0  0  0  0  0  0  0  0  0
   -0.1662    8.3042    0.0000 H   0  0  0  0  0  0  0  0  0  0  0  0
    1.6461    7.6452    0.0000 O   0  0  0  0  0  0  0  0  0  0  0  0
    1.6456    9.1452    0.0000 H   0  0  0  0  0  0  0  0  0  0  0  0
    1.6493    0.1450    0.0000 C   0  0  0  0  0  0  0  0  0  0  0  0
    2.9491    0.8954    0.0000 N   0  0  0  0  0  0  0  0  0  0  0  0
    4.2493    0.1458    0.0000 C   0  0  0  0  0  0  0  0  0  0  0  0
    5.5480    0.8965    0.0000 H   0  0  0  0  0  0  0  0  0  0  0  0
    4.2498   -1.3542    0.0000 C   0  0  0  0  0  0  0  0  0  0  0  0
    5.5489   -2.1040    0.0000 H   0  0  0  0  0  0  0  0  0  0  0  0
    2.9500   -2.1046    0.0000 C   0  0  0  0  0  0  0  0  0  0  0  0
    2.9505   -3.6046    0.0000 H   0  0  0  0  0  0  0  0  0  0  0  0
    1.6498   -1.3550    0.0000 N   0  0  0  0  0  0  0  0  0  0  0  0
  1  2  1  0  0  0  0 
  1  3  1  0  0  0  0 
  1  4  1  0  0  0  0 
  1  5  1  0  0  0  0 
  5  6  1  0  0  0  0 
  6  7  1  0  0  0  0 
  6  8  1  0  0  0  0 
  6  9  1  0  0  0  0 
  5 10  1  0  0  0  0 
 10 11  1  0  0  0  0 
 10 12  1  0  0  0  0 
 10 13  1  0  0  0  0 
  5 14  1  0  0  0  0 
 14 15  2  0  0  0  0 
 15 16  1  0  0  0  0 
 15 17  1  0  0  0  0 
 17 18  1  0  0  0  0 
 17 19  2  0  0  0  0 
 19 20  1  0  0  0  0 
 20 21  1  0  0  0  0 
 20 22  2  0  0  0  0 
 14 22  1  0  0  0  0 
 22 23  1  0  0  0  0 
 19 24  1  0  0  0  0 
 24 25  2  0  0  0  0 
 24 26  2  0  0  0  0 
 24 27  1  0  0  0  0 
 27 28  1  0  0  0  0 
 27 29  1  0  0  0  0 
 29 30  2  0  0  0  0 
 30 31  1  0  0  0  0 
 31 32  2  0  0  0  0 
 32 33  1  0  0  0  0 
 33 34  2  0  0  0  0 
 29 34  1  0  0  0  0 
 34 35  1  0  0  0  0 
 35 36  1  0  0  0  0 
 36 37  2  0  0  0  0 
 37 38  1  0  0  0  0 
 38 39  1  0  0  0  0 
 38 40  2  0  0  0  0 
 40 41  1  0  0  0  0 
 40 42  1  0  0  0  0 
 42 43  1  0  0  0  0 
 42 44  2  0  0  0  0 
 36 44  1  0  0  0  0 
 44 45  1  0  0  0  0 
 37 46  1  0  0  0  0 
 46 47  1  0  0  0  0 
 47 48  1  0  0  0  0 
 47 49  1  0  0  0  0 
 47 50  1  0  0  0  0 
 50 51  1  0  0  0  0 
 33 52  1  0  0  0  0 
 52 53  1  0  0  0  0 
 53 54  1  0  0  0  0 
 53 55  1  0  0  0  0 
 53 56  1  0  0  0  0 
 56 57  1  0  0  0  0 
 56 58  1  0  0  0  0 
 56 59  1  0  0  0  0 
 59 60  1  0  0  0  0 
 31 61  1  0  0  0  0 
 61 62  2  0  0  0  0 
 62 63  1  0  0  0  0 
 63 64  1  0  0  0  0 
 63 65  2  0  0  0  0 
 65 66  1  0  0  0  0 
 65 67  1  0  0  0  0 
 67 68  1  0  0  0  0 
 67 69  2  0  0  0  0 
 61 69  1  0  0  0  0 
M  END
> <Rank>
5

> <Priority_score>
0.676

> <Reaction_type>
aliphatic hydroxylation

> <Parent_ID>
49

> <Parent_InChI>
InChI=1S/C27H29N5O6S/c1-27(2,3)18-10-12-19(13-11-18)39(34,35)32-23-22(38-21-9-6-5-8-20(21)36-4)26(37-17-16-33)31-25(30-23)24-28-14-7-15-29-24/h5-15,33H,16-17H2,1-4H3,(H,30,31,32)

> <Parent_SMILES>
COc1ccccc1Oc1c(NS(=O)(=O)c2ccc(C(C)(C)C)cc2)nc(-c2ncccn2)nc1OCCO

$$$$
Molecule 49_metabolite 6
  CDK     0516241031

 65 68  0  0  0  0  0  0  0  0999 V2000
    2.0138    8.6758    0.0000 C   0  0  0  0  0  0  0  0  0  0  0  0
    3.3125    9.4265    0.0000 H   0  0  0  0  0  0  0  0  0  0  0  0
    0.5368    8.4146    0.0000 H   0  0  0  0  0  0  0  0  0  0  0  0
    1.5001   10.0851    0.0000 H   0  0  0  0  0  0  0  0  0  0  0  0
    2.0146    7.1758    0.0000 C   0  0  0  0  0  0  0  0  0  0  0  0
    3.4916    7.4370    0.0000 C   0  0  0  0  0  0  0  0  0  0  0  0
    4.0040    8.8468    0.0000 H   0  0  0  0  0  0  0  0  0  0  0  0
    4.9690    7.1772    0.0000 H   0  0  0  0  0  0  0  0  0  0  0  0
    3.4924    5.9370    0.0000 H   0  0  0  0  0  0  0  0  0  0  0  0
    2.6927    5.3156    0.0000 C   0  0  0  0  0  0  0  0  0  0  0  0
    4.1700    5.0558    0.0000 H   0  0  0  0  0  0  0  0  0  0  0  0
    2.6934    3.8156    0.0000 H   0  0  0  0  0  0  0  0  0  0  0  0
    1.2156    5.0544    0.0000 H   0  0  0  0  0  0  0  0  0  0  0  0
    0.3003    6.1850    0.0000 C   0  0  0  0  0  0  0  0  0  0  0  0
    0.3008    4.6842    0.0000 C   0  0  0  0  0  0  0  0  0  0  0  0
    1.6003    3.9350    0.0000 H   0  0  0  0  0  0  0  0  0  0  0  0
   -0.9983    3.9325    0.0000 C   0  0  0  0  0  0  0  0  0  0  0  0
   -0.9971    2.4325    0.0000 H   0  0  0  0  0  0  0  0  0  0  0  0
   -2.2978    4.6817    0.0000 C   0  0  0  0  0  0  0  0  0  0  0  0
   -2.2983    6.1825    0.0000 C   0  0  0  0  0  0  0  0  0  0  0  0
   -3.5978    6.9317    0.0000 H   0  0  0  0  0  0  0  0  0  0  0  0
   -0.9992    6.9342    0.0000 C   0  0  0  0  0  0  0  0  0  0  0  0
   -1.0004    8.4342    0.0000 H   0  0  0  0  0  0  0  0  0  0  0  0
   -3.5964    3.9310    0.0000 S   0  0  0  0  0  0  0  0  0  0  0  0
   -5.0735    3.6699    0.0000 O   0  0  0  0  0  0  0  0  0  0  0  0
   -4.1102    5.3403    0.0000 O   0  0  0  0  0  0  0  0  0  0  0  0
   -3.5957    2.4310    0.0000 N   0  0  0  0  0  0  0  0  0  0  0  0
   -2.2963    1.6817    0.0000 H   0  0  0  0  0  0  0  0  0  0  0  0
   -4.8944    1.6804    0.0000 C   0  0  0  0  0  0  0  0  0  0  0  0
   -6.1946    2.4300    0.0000 N   0  0  0  0  0  0  0  0  0  0  0  0
   -7.4944    1.6796    0.0000 C   0  0  0  0  0  0  0  0  0  0  0  0
   -7.4939    0.1796    0.0000 N   0  0  0  0  0  0  0  0  0  0  0  0
   -6.1937   -0.5700    0.0000 C   0  0  0  0  0  0  0  0  0  0  0  0
   -4.8939    0.1804    0.0000 C   0  0  0  0  0  0  0  0  0  0  0  0
   -2.7633   -1.0492    0.0000 O   0  0  0  0  0  0  0  0  0  0  0  0
   -2.7631   -2.5492    0.0000 C   0  0  0  0  0  0  0  0  0  0  0  0
   -1.4642   -3.3012    0.0000 C   0  0  0  0  0  0  0  0  0  0  0  0
   -1.4665   -4.8012    0.0000 C   0  0  0  0  0  0  0  0  0  0  0  0
   -0.1687   -5.5534    0.0000 H   0  0  0  0  0  0  0  0  0  0  0  0
   -2.7676   -5.5492    0.0000 C   0  0  0  0  0  0  0  0  0  0  0  0
   -2.7724   -7.0492    0.0000 H   0  0  0  0  0  0  0  0  0  0  0  0
   -4.0565   -4.7973    0.0000 C   0  0  0  0  0  0  0  0  0  0  0  0
   -5.3578   -5.5433    0.0000 H   0  0  0  0  0  0  0  0  0  0  0  0
   -4.0542   -3.2973    0.0000 C   0  0  0  0  0  0  0  0  0  0  0  0
   -5.3532   -2.5473    0.0000 H   0  0  0  0  0  0  0  0  0  0  0  0
   -0.1641   -2.5530    0.0000 O   0  0  0  0  0  0  0  0  0  0  0  0
    1.1339   -3.3047    0.0000 H   0  0  0  0  0  0  0  0  0  0  0  0
   -6.1932   -2.0700    0.0000 O   0  0  0  0  0  0  0  0  0  0  0  0
   -7.4920   -2.8204    0.0000 C   0  0  0  0  0  0  0  0  0  0  0  0
   -8.9691   -3.0814    0.0000 H   0  0  0  0  0  0  0  0  0  0  0  0
   -8.0055   -1.4110    0.0000 H   0  0  0  0  0  0  0  0  0  0  0  0
   -7.4915   -4.3204    0.0000 C   0  0  0  0  0  0  0  0  0  0  0  0
   -6.0144   -4.0595    0.0000 H   0  0  0  0  0  0  0  0  0  0  0  0
   -6.9780   -5.7298    0.0000 H   0  0  0  0  0  0  0  0  0  0  0  0
   -8.7903   -5.0708    0.0000 O   0  0  0  0  0  0  0  0  0  0  0  0
   -8.7898   -6.5708    0.0000 H   0  0  0  0  0  0  0  0  0  0  0  0
   -8.7936    2.4294    0.0000 C   0  0  0  0  0  0  0  0  0  0  0  0
  -10.0933    1.6790    0.0000 N   0  0  0  0  0  0  0  0  0  0  0  0
  -11.3936    2.4285    0.0000 C   0  0  0  0  0  0  0  0  0  0  0  0
  -12.6922    1.6779    0.0000 H   0  0  0  0  0  0  0  0  0  0  0  0
  -11.3940    3.9285    0.0000 C   0  0  0  0  0  0  0  0  0  0  0  0
  -12.6932    4.6783    0.0000 H   0  0  0  0  0  0  0  0  0  0  0  0
  -10.0943    4.6790    0.0000 C   0  0  0  0  0  0  0  0  0  0  0  0
  -10.0948    6.1790    0.0000 H   0  0  0  0  0  0  0  0  0  0  0  0
   -8.7940    3.9294    0.0000 N   0  0  0  0  0  0  0  0  0  0  0  0
  1  2  1  0  0  0  0 
  1  3  1  0  0  0  0 
  1  4  1  0  0  0  0 
  1  5  1  0  0  0  0 
  5  6  1  0  0  0  0 
  6  7  1  0  0  0  0 
  6  8  1  0  0  0  0 
  6  9  1  0  0  0  0 
  5 10  1  0  0  0  0 
 10 11  1  0  0  0  0 
 10 12  1  0  0  0  0 
 10 13  1  0  0  0  0 
  5 14  1  0  0  0  0 
 14 15  2  0  0  0  0 
 15 16  1  0  0  0  0 
 15 17  1  0  0  0  0 
 17 18  1  0  0  0  0 
 17 19  2  0  0  0  0 
 19 20  1  0  0  0  0 
 20 21  1  0  0  0  0 
 20 22  2  0  0  0  0 
 14 22  1  0  0  0  0 
 22 23  1  0  0  0  0 
 19 24  1  0  0  0  0 
 24 25  2  0  0  0  0 
 24 26  2  0  0  0  0 
 24 27  1  0  0  0  0 
 27 28  1  0  0  0  0 
 27 29  1  0  0  0  0 
 29 30  2  0  0  0  0 
 30 31  1  0  0  0  0 
 31 32  2  0  0  0  0 
 32 33  1  0  0  0  0 
 33 34  2  0  0  0  0 
 29 34  1  0  0  0  0 
 34 35  1  0  0  0  0 
 35 36  1  0  0  0  0 
 36 37  2  0  0  0  0 
 37 38  1  0  0  0  0 
 38 39  1  0  0  0  0 
 38 40  2  0  0  0  0 
 40 41  1  0  0  0  0 
 40 42  1  0  0  0  0 
 42 43  1  0  0  0  0 
 42 44  2  0  0  0  0 
 36 44  1  0  0  0  0 
 44 45  1  0  0  0  0 
 37 46  1  0  0  0  0 
 46 47  1  0  0  0  0 
 33 48  1  0  0  0  0 
 48 49  1  0  0  0  0 
 49 50  1  0  0  0  0 
 49 51  1  0  0  0  0 
 49 52  1  0  0  0  0 
 52 53  1  0  0  0  0 
 52 54  1  0  0  0  0 
 52 55  1  0  0  0  0 
 55 56  1  0  0  0  0 
 31 57  1  0  0  0  0 
 57 58  2  0  0  0  0 
 58 59  1  0  0  0  0 
 59 60  1  0  0  0  0 
 59 61  2  0  0  0  0 
 61 62  1  0  0  0  0 
 61 63  1  0  0  0  0 
 63 64  1  0  0  0  0 
 63 65  2  0  0  0  0 
 57 65  1  0  0  0  0 
M  END
> <Rank>
5

> <Priority_score>
0.676

> <Reaction_type>
O-demethylation

> <Parent_ID>
49

> <Parent_InChI>
InChI=1S/C27H29N5O6S/c1-27(2,3)18-10-12-19(13-11-18)39(34,35)32-23-22(38-21-9-6-5-8-20(21)36-4)26(37-17-16-33)31-25(30-23)24-28-14-7-15-29-24/h5-15,33H,16-17H2,1-4H3,(H,30,31,32)

> <Parent_SMILES>
COc1ccccc1Oc1c(NS(=O)(=O)c2ccc(C(C)(C)C)cc2)nc(-c2ncccn2)nc1OCCO

$$$$
Molecule 49_metabolite 7
  CDK     0516241031

 88 92  0  0  0  0  0  0  0  0999 V2000
    5.3314    0.3521    0.0000 C   0  0  0  0  0  0  0  0  0  0  0  0
    6.6298   -0.3989    0.0000 H   0  0  0  0  0  0  0  0  0  0  0  0
    4.3681    1.5020    0.0000 H   0  0  0  0  0  0  0  0  0  0  0  0
    6.2965    1.5004    0.0000 H   0  0  0  0  0  0  0  0  0  0  0  0
    4.0318   -0.3968    0.0000 C   0  0  0  0  0  0  0  0  0  0  0  0
    5.6115   -2.2826    0.0000 C   0  0  0  0  0  0  0  0  0  0  0  0
    7.0889   -2.0233    0.0000 H   0  0  0  0  0  0  0  0  0  0  0  0
    6.1234   -3.6925    0.0000 H   0  0  0  0  0  0  0  0  0  0  0  0
    4.3119   -3.0315    0.0000 H   0  0  0  0  0  0  0  0  0  0  0  0
    3.0667   -1.5451    0.0000 C   0  0  0  0  0  0  0  0  0  0  0  0
    3.5786   -2.9551    0.0000 H   0  0  0  0  0  0  0  0  0  0  0  0
    1.7670   -2.2941    0.0000 H   0  0  0  0  0  0  0  0  0  0  0  0
    2.1034   -0.3953    0.0000 H   0  0  0  0  0  0  0  0  0  0  0  0
    2.3178    0.5946    0.0000 C   0  0  0  0  0  0  0  0  0  0  0  0
    1.0173   -0.1546    0.0000 C   0  0  0  0  0  0  0  0  0  0  0  0
    1.0164   -1.6546    0.0000 H   0  0  0  0  0  0  0  0  0  0  0  0
   -0.2822    0.5962    0.0000 C   0  0  0  0  0  0  0  0  0  0  0  0
   -1.5816   -0.1532    0.0000 H   0  0  0  0  0  0  0  0  0  0  0  0
   -0.2812    2.0962    0.0000 C   0  0  0  0  0  0  0  0  0  0  0  0
    1.0193    2.8454    0.0000 C   0  0  0  0  0  0  0  0  0  0  0  0
    1.0202    4.3454    0.0000 H   0  0  0  0  0  0  0  0  0  0  0  0
    2.3188    2.0946    0.0000 C   0  0  0  0  0  0  0  0  0  0  0  0
    3.6182    2.8439    0.0000 H   0  0  0  0  0  0  0  0  0  0  0  0
   -2.8261    3.5683    0.0000 S   0  0  0  0  0  0  0  0  0  0  0  0
   -3.7894    4.7181    0.0000 O   0  0  0  0  0  0  0  0  0  0  0  0
   -1.8610    4.7166    0.0000 O   0  0  0  0  0  0  0  0  0  0  0  0
   -4.1258    2.8193    0.0000 N   0  0  0  0  0  0  0  0  0  0  0  0
   -5.6415    4.0932    0.0000 C   0  0  0  0  0  0  0  0  0  0  0  0
   -7.0523    3.5813    0.0000 N   0  0  0  0  0  0  0  0  0  0  0  0
   -8.2017    4.5464    0.0000 C   0  0  0  0  0  0  0  0  0  0  0  0
   -7.9403    6.0234    0.0000 N   0  0  0  0  0  0  0  0  0  0  0  0
   -6.5295    6.5354    0.0000 C   0  0  0  0  0  0  0  0  0  0  0  0
   -5.3801    5.5703    0.0000 C   0  0  0  0  0  0  0  0  0  0  0  0
   -3.0681    6.4105    0.0000 O   0  0  0  0  0  0  0  0  0  0  0  0
   -2.8069    7.8876    0.0000 C   0  0  0  0  0  0  0  0  0  0  0  0
   -1.3970    8.4022    0.0000 C   0  0  0  0  0  0  0  0  0  0  0  0
   -1.1383    9.8797    0.0000 C   0  0  0  0  0  0  0  0  0  0  0  0
    0.2705   10.3946    0.0000 H   0  0  0  0  0  0  0  0  0  0  0  0
   -2.2895   10.8427    0.0000 C   0  0  0  0  0  0  0  0  0  0  0  0
   -2.0332   12.3206    0.0000 H   0  0  0  0  0  0  0  0  0  0  0  0
   -3.6895   10.3264    0.0000 C   0  0  0  0  0  0  0  0  0  0  0  0
   -4.8412   11.2875    0.0000 H   0  0  0  0  0  0  0  0  0  0  0  0
   -3.9482    8.8489    0.0000 C   0  0  0  0  0  0  0  0  0  0  0  0
   -5.3579    8.3363    0.0000 H   0  0  0  0  0  0  0  0  0  0  0  0
   -0.2469    7.4392    0.0000 O   0  0  0  0  0  0  0  0  0  0  0  0
    1.1621    7.9537    0.0000 C   0  0  0  0  0  0  0  0  0  0  0  0
    1.4210    9.4311    0.0000 H   0  0  0  0  0  0  0  0  0  0  0  0
    2.6621    7.9552    0.0000 H   0  0  0  0  0  0  0  0  0  0  0  0
    1.4241    6.4767    0.0000 H   0  0  0  0  0  0  0  0  0  0  0  0
   -6.2681    8.0124    0.0000 O   0  0  0  0  0  0  0  0  0  0  0  0
   -7.4165    8.9773    0.0000 C   0  0  0  0  0  0  0  0  0  0  0  0
   -8.8257    9.4913    0.0000 H   0  0  0  0  0  0  0  0  0  0  0  0
   -8.1674    7.6788    0.0000 H   0  0  0  0  0  0  0  0  0  0  0  0
   -7.1551   10.4544    0.0000 C   0  0  0  0  0  0  0  0  0  0  0  0
   -5.7459    9.9404    0.0000 H   0  0  0  0  0  0  0  0  0  0  0  0
   -6.4043   11.7529    0.0000 H   0  0  0  0  0  0  0  0  0  0  0  0
   -8.3036   11.4193    0.0000 O   0  0  0  0  0  0  0  0  0  0  0  0
   -8.0421   12.8963    0.0000 H   0  0  0  0  0  0  0  0  0  0  0  0
  -10.5138    3.7061    0.0000 C   0  0  0  0  0  0  0  0  0  0  0  0
  -11.6632    4.6712    0.0000 N   0  0  0  0  0  0  0  0  0  0  0  0
  -13.0740    4.1592    0.0000 C   0  0  0  0  0  0  0  0  0  0  0  0
  -14.2223    5.1243    0.0000 H   0  0  0  0  0  0  0  0  0  0  0  0
  -13.3354    2.6822    0.0000 C   0  0  0  0  0  0  0  0  0  0  0  0
  -14.7452    2.1698    0.0000 H   0  0  0  0  0  0  0  0  0  0  0  0
  -12.1860    1.7171    0.0000 C   0  0  0  0  0  0  0  0  0  0  0  0
  -12.4474    0.2401    0.0000 H   0  0  0  0  0  0  0  0  0  0  0  0
  -10.7752    2.2291    0.0000 N   0  0  0  0  0  0  0  0  0  0  0  0
   -4.1281   -0.1207    0.0000 C   0  0  0  0  0  0  0  0  0  0  0  0
   -2.6507    0.1384    0.0000 H   0  0  0  0  0  0  0  0  0  0  0  0
   -3.6165   -1.5308    0.0000 C   0  0  0  0  0  0  0  0  0  0  0  0
   -2.3167   -0.7822    0.0000 H   0  0  0  0  0  0  0  0  0  0  0  0
   -4.5828   -2.6792    0.0000 C   0  0  0  0  0  0  0  0  0  0  0  0
   -3.2846   -3.4306    0.0000 H   0  0  0  0  0  0  0  0  0  0  0  0
   -6.0606   -2.4175    0.0000 C   0  0  0  0  0  0  0  0  0  0  0  0
   -6.0618   -3.9175    0.0000 H   0  0  0  0  0  0  0  0  0  0  0  0
   -6.5722   -1.0075    0.0000 C   0  0  0  0  0  0  0  0  0  0  0  0
   -7.8721   -1.7560    0.0000 H   0  0  0  0  0  0  0  0  0  0  0  0
   -7.5350    0.1428    0.0000 C   0  0  0  0  0  0  0  0  0  0  0  0
   -6.5261    2.9042    0.0000 O   0  0  0  0  0  0  0  0  0  0  0  0
   -9.0125   -0.1159    0.0000 O   0  0  0  0  0  0  0  0  0  0  0  0
   -9.5273   -1.5248    0.0000 H   0  0  0  0  0  0  0  0  0  0  0  0
   -5.6060    0.1409    0.0000 O   0  0  0  0  0  0  0  0  0  0  0  0
   -7.5381   -2.6767    0.0000 O   0  0  0  0  0  0  0  0  0  0  0  0
   -8.0524   -4.0857    0.0000 H   0  0  0  0  0  0  0  0  0  0  0  0
   -5.0971   -4.0882    0.0000 O   0  0  0  0  0  0  0  0  0  0  0  0
   -4.1340   -5.2382    0.0000 H   0  0  0  0  0  0  0  0  0  0  0  0
   -2.0376   -3.4172    0.0000 O   0  0  0  0  0  0  0  0  0  0  0  0
   -2.5524   -4.8261    0.0000 H   0  0  0  0  0  0  0  0  0  0  0  0
  1  2  1  0  0  0  0 
  1  3  1  0  0  0  0 
  1  4  1  0  0  0  0 
  1  5  1  0  0  0  0 
  5  6  1  0  0  0  0 
  6  7  1  0  0  0  0 
  6  8  1  0  0  0  0 
  6  9  1  0  0  0  0 
  5 10  1  0  0  0  0 
 10 11  1  0  0  0  0 
 10 12  1  0  0  0  0 
 10 13  1  0  0  0  0 
  5 14  1  0  0  0  0 
 14 15  2  0  0  0  0 
 15 16  1  0  0  0  0 
 15 17  1  0  0  0  0 
 17 18  1  0  0  0  0 
 17 19  2  0  0  0  0 
 19 20  1  0  0  0  0 
 20 21  1  0  0  0  0 
 20 22  2  0  0  0  0 
 14 22  1  0  0  0  0 
 22 23  1  0  0  0  0 
 19 24  1  0  0  0  0 
 24 25  2  0  0  0  0 
 24 26  2  0  0  0  0 
 24 27  1  0  0  0  0 
 27 28  1  0  0  0  0 
 28 29  2  0  0  0  0 
 29 30  1  0  0  0  0 
 30 31  2  0  0  0  0 
 31 32  1  0  0  0  0 
 32 33  2  0  0  0  0 
 28 33  1  0  0  0  0 
 33 34  1  0  0  0  0 
 34 35  1  0  0  0  0 
 35 36  2  0  0  0  0 
 36 37  1  0  0  0  0 
 37 38  1  0  0  0  0 
 37 39  2  0  0  0  0 
 39 40  1  0  0  0  0 
 39 41  1  0  0  0  0 
 41 42  1  0  0  0  0 
 41 43  2  0  0  0  0 
 35 43  1  0  0  0  0 
 43 44  1  0  0  0  0 
 36 45  1  0  0  0  0 
 45 46  1  0  0  0  0 
 46 47  1  0  0  0  0 
 46 48  1  0  0  0  0 
 46 49  1  0  0  0  0 
 32 50  1  0  0  0  0 
 50 51  1  0  0  0  0 
 51 52  1  0  0  0  0 
 51 53  1  0  0  0  0 
 51 54  1  0  0  0  0 
 54 55  1  0  0  0  0 
 54 56  1  0  0  0  0 
 54 57  1  0  0  0  0 
 57 58  1  0  0  0  0 
 30 59  1  0  0  0  0 
 59 60  2  0  0  0  0 
 60 61  1  0  0  0  0 
 61 62  1  0  0  0  0 
 61 63  2  0  0  0  0 
 63 64  1  0  0  0  0 
 63 65  1  0  0  0  0 
 65 66  1  0  0  0  0 
 65 67  2  0  0  0  0 
 59 67  1  0  0  0  0 
 27 68  1  0  0  0  0 
 68 69  1  0  0  0  0 
 68 70  1  0  0  0  0 
 70 71  1  0  0  0  0 
 70 72  1  0  0  0  0 
 72 73  1  0  0  0  0 
 72 74  1  0  0  0  0 
 74 75  1  0  0  0  0 
 74 76  1  0  0  0  0 
 76 77  1  0  0  0  0 
 76 78  1  0  0  0  0 
 78 79  2  0  0  0  0 
 78 80  1  0  0  0  0 
 80 81  1  0  0  0  0 
 76 82  1  0  0  0  0 
 68 82  1  0  0  0  0 
 74 83  1  0  0  0  0 
 83 84  1  0  0  0  0 
 72 85  1  0  0  0  0 
 85 86  1  0  0  0  0 
 70 87  1  0  0  0  0 
 87 88  1  0  0  0  0 
M  END
> <Rank>
7

> <Priority_score>
0.292

> <Reaction_type>
N-glucuronidation_(aniline_NH1-R)

> <Parent_ID>
49

> <Parent_InChI>
InChI=1S/C27H29N5O6S/c1-27(2,3)18-10-12-19(13-11-18)39(34,35)32-23-22(38-21-9-6-5-8-20(21)36-4)26(37-17-16-33)31-25(30-23)24-28-14-7-15-29-24/h5-15,33H,16-17H2,1-4H3,(H,30,31,32)

> <Parent_SMILES>
COc1ccccc1Oc1c(NS(=O)(=O)c2ccc(C(C)(C)C)cc2)nc(-c2ncccn2)nc1OCCO

$$$$
Molecule 49_metabolite 8
  CDK     0516241031

 69 72  0  0  0  0  0  0  0  0999 V2000
    2.0138    8.6758    0.0000 C   0  0  0  0  0  0  0  0  0  0  0  0
    3.3125    9.4265    0.0000 H   0  0  0  0  0  0  0  0  0  0  0  0
    0.5368    8.4146    0.0000 H   0  0  0  0  0  0  0  0  0  0  0  0
    1.5001   10.0851    0.0000 H   0  0  0  0  0  0  0  0  0  0  0  0
    2.0146    7.1758    0.0000 C   0  0  0  0  0  0  0  0  0  0  0  0
    3.4916    7.4370    0.0000 C   0  0  0  0  0  0  0  0  0  0  0  0
    4.0040    8.8468    0.0000 H   0  0  0  0  0  0  0  0  0  0  0  0
    4.9690    7.1772    0.0000 H   0  0  0  0  0  0  0  0  0  0  0  0
    3.4924    5.9370    0.0000 H   0  0  0  0  0  0  0  0  0  0  0  0
    2.6927    5.3156    0.0000 C   0  0  0  0  0  0  0  0  0  0  0  0
    4.1700    5.0558    0.0000 H   0  0  0  0  0  0  0  0  0  0  0  0
    2.6934    3.8156    0.0000 H   0  0  0  0  0  0  0  0  0  0  0  0
    1.2156    5.0544    0.0000 H   0  0  0  0  0  0  0  0  0  0  0  0
    0.3003    6.1850    0.0000 C   0  0  0  0  0  0  0  0  0  0  0  0
    0.3008    4.6842    0.0000 C   0  0  0  0  0  0  0  0  0  0  0  0
    1.6003    3.9350    0.0000 H   0  0  0  0  0  0  0  0  0  0  0  0
   -0.9983    3.9325    0.0000 C   0  0  0  0  0  0  0  0  0  0  0  0
   -0.9971    2.4325    0.0000 H   0  0  0  0  0  0  0  0  0  0  0  0
   -2.2978    4.6817    0.0000 C   0  0  0  0  0  0  0  0  0  0  0  0
   -2.2983    6.1825    0.0000 C   0  0  0  0  0  0  0  0  0  0  0  0
   -3.5978    6.9317    0.0000 H   0  0  0  0  0  0  0  0  0  0  0  0
   -0.9992    6.9342    0.0000 C   0  0  0  0  0  0  0  0  0  0  0  0
   -1.0004    8.4342    0.0000 H   0  0  0  0  0  0  0  0  0  0  0  0
   -3.5964    3.9310    0.0000 S   0  0  0  0  0  0  0  0  0  0  0  0
   -5.0735    3.6699    0.0000 O   0  0  0  0  0  0  0  0  0  0  0  0
   -4.1102    5.3403    0.0000 O   0  0  0  0  0  0  0  0  0  0  0  0
   -3.5957    2.4310    0.0000 N   0  0  0  0  0  0  0  0  0  0  0  0
   -2.2963    1.6817    0.0000 H   0  0  0  0  0  0  0  0  0  0  0  0
   -4.8944    1.6804    0.0000 C   0  0  0  0  0  0  0  0  0  0  0  0
   -6.1946    2.4300    0.0000 N   0  0  0  0  0  0  0  0  0  0  0  0
   -7.4944    1.6796    0.0000 C   0  0  0  0  0  0  0  0  0  0  0  0
   -7.4939    0.1796    0.0000 N   0  0  0  0  0  0  0  0  0  0  0  0
   -6.1937   -0.5700    0.0000 C   0  0  0  0  0  0  0  0  0  0  0  0
   -4.8939    0.1804    0.0000 C   0  0  0  0  0  0  0  0  0  0  0  0
   -2.7633   -1.0492    0.0000 O   0  0  0  0  0  0  0  0  0  0  0  0
   -2.7631   -2.5492    0.0000 C   0  0  0  0  0  0  0  0  0  0  0  0
   -1.4642   -3.3012    0.0000 C   0  0  0  0  0  0  0  0  0  0  0  0
   -1.4665   -4.8012    0.0000 C   0  0  0  0  0  0  0  0  0  0  0  0
   -0.1687   -5.5534    0.0000 H   0  0  0  0  0  0  0  0  0  0  0  0
   -2.7676   -5.5492    0.0000 C   0  0  0  0  0  0  0  0  0  0  0  0
   -2.7724   -7.0492    0.0000 H   0  0  0  0  0  0  0  0  0  0  0  0
   -4.0565   -4.7973    0.0000 C   0  0  0  0  0  0  0  0  0  0  0  0
   -5.3578   -5.5433    0.0000 H   0  0  0  0  0  0  0  0  0  0  0  0
   -4.0542   -3.2973    0.0000 C   0  0  0  0  0  0  0  0  0  0  0  0
   -5.3532   -2.5473    0.0000 H   0  0  0  0  0  0  0  0  0  0  0  0
   -0.1641   -2.5530    0.0000 O   0  0  0  0  0  0  0  0  0  0  0  0
    1.1339   -3.3047    0.0000 C   0  0  0  0  0  0  0  0  0  0  0  0
    1.1318   -4.8047    0.0000 H   0  0  0  0  0  0  0  0  0  0  0  0
    2.6107   -3.5672    0.0000 H   0  0  0  0  0  0  0  0  0  0  0  0
    1.6488   -1.8959    0.0000 H   0  0  0  0  0  0  0  0  0  0  0  0
   -6.1932   -2.0700    0.0000 O   0  0  0  0  0  0  0  0  0  0  0  0
   -7.4920   -2.8204    0.0000 C   0  0  0  0  0  0  0  0  0  0  0  0
   -8.9691   -3.0814    0.0000 H   0  0  0  0  0  0  0  0  0  0  0  0
   -8.0055   -1.4110    0.0000 H   0  0  0  0  0  0  0  0  0  0  0  0
   -7.4915   -4.3204    0.0000 C   0  0  0  0  0  0  0  0  0  0  0  0
   -6.0144   -4.0595    0.0000 H   0  0  0  0  0  0  0  0  0  0  0  0
   -6.9780   -5.7298    0.0000 H   0  0  0  0  0  0  0  0  0  0  0  0
   -8.7903   -5.0708    0.0000 O   0  0  0  0  0  0  0  0  0  0  0  0
   -8.7898   -6.5708    0.0000 H   0  0  0  0  0  0  0  0  0  0  0  0
   -8.7936    2.4294    0.0000 C   0  0  0  0  0  0  0  0  0  0  0  0
  -10.0933    1.6790    0.0000 N   0  0  0  0  0  0  0  0  0  0  0  0
  -11.3936    2.4285    0.0000 C   0  0  0  0  0  0  0  0  0  0  0  0
  -11.3940    3.9285    0.0000 C   0  0  0  0  0  0  0  0  0  0  0  0
  -12.6932    4.6783    0.0000 H   0  0  0  0  0  0  0  0  0  0  0  0
  -10.0943    4.6790    0.0000 C   0  0  0  0  0  0  0  0  0  0  0  0
  -10.0948    6.1790    0.0000 H   0  0  0  0  0  0  0  0  0  0  0  0
   -8.7940    3.9294    0.0000 N   0  0  0  0  0  0  0  0  0  0  0  0
  -12.6922    1.6779    0.0000 O   0  0  0  0  0  0  0  0  0  0  0  0
  -13.9916    2.4273    0.0000 H   0  0  0  0  0  0  0  0  0  0  0  0
  1  2  1  0  0  0  0 
  1  3  1  0  0  0  0 
  1  4  1  0  0  0  0 
  1  5  1  0  0  0  0 
  5  6  1  0  0  0  0 
  6  7  1  0  0  0  0 
  6  8  1  0  0  0  0 
  6  9  1  0  0  0  0 
  5 10  1  0  0  0  0 
 10 11  1  0  0  0  0 
 10 12  1  0  0  0  0 
 10 13  1  0  0  0  0 
  5 14  1  0  0  0  0 
 14 15  2  0  0  0  0 
 15 16  1  0  0  0  0 
 15 17  1  0  0  0  0 
 17 18  1  0  0  0  0 
 17 19  2  0  0  0  0 
 19 20  1  0  0  0  0 
 20 21  1  0  0  0  0 
 20 22  2  0  0  0  0 
 14 22  1  0  0  0  0 
 22 23  1  0  0  0  0 
 19 24  1  0  0  0  0 
 24 25  2  0  0  0  0 
 24 26  2  0  0  0  0 
 24 27  1  0  0  0  0 
 27 28  1  0  0  0  0 
 27 29  1  0  0  0  0 
 29 30  2  0  0  0  0 
 30 31  1  0  0  0  0 
 31 32  2  0  0  0  0 
 32 33  1  0  0  0  0 
 33 34  2  0  0  0  0 
 29 34  1  0  0  0  0 
 34 35  1  0  0  0  0 
 35 36  1  0  0  0  0 
 36 37  2  0  0  0  0 
 37 38  1  0  0  0  0 
 38 39  1  0  0  0  0 
 38 40  2  0  0  0  0 
 40 41  1  0  0  0  0 
 40 42  1  0  0  0  0 
 42 43  1  0  0  0  0 
 42 44  2  0  0  0  0 
 36 44  1  0  0  0  0 
 44 45  1  0  0  0  0 
 37 46  1  0  0  0  0 
 46 47  1  0  0  0  0 
 47 48  1  0  0  0  0 
 47 49  1  0  0  0  0 
 47 50  1  0  0  0  0 
 33 51  1  0  0  0  0 
 51 52  1  0  0  0  0 
 52 53  1  0  0  0  0 
 52 54  1  0  0  0  0 
 52 55  1  0  0  0  0 
 55 56  1  0  0  0  0 
 55 57  1  0  0  0  0 
 55 58  1  0  0  0  0 
 58 59  1  0  0  0  0 
 31 60  1  0  0  0  0 
 60 61  2  0  0  0  0 
 61 62  1  0  0  0  0 
 62 63  2  0  0  0  0 
 63 64  1  0  0  0  0 
 63 65  1  0  0  0  0 
 65 66  1  0  0  0  0 
 65 67  2  0  0  0  0 
 60 67  1  0  0  0  0 
 62 68  1  0  0  0  0 
 68 69  1  0  0  0  0 
M  END
> <Rank>
8

> <Priority_score>
0.26

> <Reaction_type>
aromatic_hydroxylation_(meta_to_carbon)

> <Parent_ID>
49

> <Parent_InChI>
InChI=1S/C27H29N5O6S/c1-27(2,3)18-10-12-19(13-11-18)39(34,35)32-23-22(38-21-9-6-5-8-20(21)36-4)26(37-17-16-33)31-25(30-23)24-28-14-7-15-29-24/h5-15,33H,16-17H2,1-4H3,(H,30,31,32)

> <Parent_SMILES>
COc1ccccc1Oc1c(NS(=O)(=O)c2ccc(C(C)(C)C)cc2)nc(-c2ncccn2)nc1OCCO

$$$$
Molecule 49_metabolite 9
  CDK     0516241031

 69 72  0  0  0  0  0  0  0  0999 V2000
  -10.8726   -6.3416    0.0000 C   0  0  0  0  0  0  0  0  0  0  0  0
  -12.1713   -7.0923    0.0000 H   0  0  0  0  0  0  0  0  0  0  0  0
   -9.3955   -6.0805    0.0000 H   0  0  0  0  0  0  0  0  0  0  0  0
  -10.3589   -7.7509    0.0000 H   0  0  0  0  0  0  0  0  0  0  0  0
  -10.8733   -4.8416    0.0000 C   0  0  0  0  0  0  0  0  0  0  0  0
  -13.7684   -5.3536    0.0000 C   0  0  0  0  0  0  0  0  0  0  0  0
  -14.2808   -6.7633    0.0000 H   0  0  0  0  0  0  0  0  0  0  0  0
  -15.2457   -5.0938    0.0000 H   0  0  0  0  0  0  0  0  0  0  0  0
  -13.7691   -3.8536    0.0000 H   0  0  0  0  0  0  0  0  0  0  0  0
  -11.3870   -3.4323    0.0000 C   0  0  0  0  0  0  0  0  0  0  0  0
  -10.4234   -2.2828    0.0000 H   0  0  0  0  0  0  0  0  0  0  0  0
  -12.3518   -2.2837    0.0000 H   0  0  0  0  0  0  0  0  0  0  0  0
  -12.6857   -4.1830    0.0000 H   0  0  0  0  0  0  0  0  0  0  0  0
   -8.7435   -3.6106    0.0000 C   0  0  0  0  0  0  0  0  0  0  0  0
   -8.7440   -2.1098    0.0000 C   0  0  0  0  0  0  0  0  0  0  0  0
  -10.0435   -1.3606    0.0000 H   0  0  0  0  0  0  0  0  0  0  0  0
   -7.4449   -1.3581    0.0000 C   0  0  0  0  0  0  0  0  0  0  0  0
   -7.4461    0.1419    0.0000 H   0  0  0  0  0  0  0  0  0  0  0  0
   -6.1454   -2.1073    0.0000 C   0  0  0  0  0  0  0  0  0  0  0  0
   -6.1449   -3.6081    0.0000 C   0  0  0  0  0  0  0  0  0  0  0  0
   -4.8454   -4.3573    0.0000 H   0  0  0  0  0  0  0  0  0  0  0  0
   -7.4440   -4.3598    0.0000 C   0  0  0  0  0  0  0  0  0  0  0  0
   -7.4428   -5.8598    0.0000 H   0  0  0  0  0  0  0  0  0  0  0  0
   -4.8467   -1.3567    0.0000 S   0  0  0  0  0  0  0  0  0  0  0  0
   -3.3696   -1.0955    0.0000 O   0  0  0  0  0  0  0  0  0  0  0  0
   -4.3330   -2.7660    0.0000 O   0  0  0  0  0  0  0  0  0  0  0  0
   -4.8474    0.1433    0.0000 N   0  0  0  0  0  0  0  0  0  0  0  0
   -6.1468    0.8927    0.0000 H   0  0  0  0  0  0  0  0  0  0  0  0
   -3.5488    0.8940    0.0000 C   0  0  0  0  0  0  0  0  0  0  0  0
   -2.2485    0.1444    0.0000 N   0  0  0  0  0  0  0  0  0  0  0  0
   -0.9488    0.8948    0.0000 C   0  0  0  0  0  0  0  0  0  0  0  0
   -0.9493    2.3948    0.0000 N   0  0  0  0  0  0  0  0  0  0  0  0
   -2.2495    3.1444    0.0000 C   0  0  0  0  0  0  0  0  0  0  0  0
   -3.5493    2.3940    0.0000 C   0  0  0  0  0  0  0  0  0  0  0  0
   -5.6799    3.6236    0.0000 O   0  0  0  0  0  0  0  0  0  0  0  0
   -5.6801    5.1236    0.0000 C   0  0  0  0  0  0  0  0  0  0  0  0
   -6.9790    5.8756    0.0000 C   0  0  0  0  0  0  0  0  0  0  0  0
   -6.9767    7.3756    0.0000 C   0  0  0  0  0  0  0  0  0  0  0  0
   -8.2745    8.1278    0.0000 H   0  0  0  0  0  0  0  0  0  0  0  0
   -5.6756    8.1236    0.0000 C   0  0  0  0  0  0  0  0  0  0  0  0
   -5.6708    9.6236    0.0000 H   0  0  0  0  0  0  0  0  0  0  0  0
   -4.3867    7.3717    0.0000 C   0  0  0  0  0  0  0  0  0  0  0  0
   -3.0854    8.1177    0.0000 H   0  0  0  0  0  0  0  0  0  0  0  0
   -4.3890    5.8717    0.0000 C   0  0  0  0  0  0  0  0  0  0  0  0
   -3.0899    5.1217    0.0000 H   0  0  0  0  0  0  0  0  0  0  0  0
   -8.2790    5.1273    0.0000 O   0  0  0  0  0  0  0  0  0  0  0  0
   -9.5770    5.8791    0.0000 C   0  0  0  0  0  0  0  0  0  0  0  0
   -9.5750    7.3791    0.0000 H   0  0  0  0  0  0  0  0  0  0  0  0
  -11.0539    6.1416    0.0000 H   0  0  0  0  0  0  0  0  0  0  0  0
  -10.0920    4.4703    0.0000 H   0  0  0  0  0  0  0  0  0  0  0  0
   -2.2500    4.6444    0.0000 O   0  0  0  0  0  0  0  0  0  0  0  0
   -0.9512    5.3948    0.0000 C   0  0  0  0  0  0  0  0  0  0  0  0
    0.5260    5.6557    0.0000 H   0  0  0  0  0  0  0  0  0  0  0  0
   -0.4377    3.9854    0.0000 H   0  0  0  0  0  0  0  0  0  0  0  0
   -0.9517    6.8948    0.0000 C   0  0  0  0  0  0  0  0  0  0  0  0
   -2.4288    6.6339    0.0000 H   0  0  0  0  0  0  0  0  0  0  0  0
   -1.4651    8.3042    0.0000 H   0  0  0  0  0  0  0  0  0  0  0  0
    0.3471    7.6452    0.0000 O   0  0  0  0  0  0  0  0  0  0  0  0
    0.3467    9.1452    0.0000 H   0  0  0  0  0  0  0  0  0  0  0  0
    0.3504    0.1450    0.0000 C   0  0  0  0  0  0  0  0  0  0  0  0
    1.6501    0.8954    0.0000 N   0  0  0  0  0  0  0  0  0  0  0  0
    2.9504    0.1458    0.0000 C   0  0  0  0  0  0  0  0  0  0  0  0
    4.2491    0.8965    0.0000 H   0  0  0  0  0  0  0  0  0  0  0  0
    2.9509   -1.3542    0.0000 C   0  0  0  0  0  0  0  0  0  0  0  0
    1.6511   -2.1046    0.0000 C   0  0  0  0  0  0  0  0  0  0  0  0
    1.6516   -3.6046    0.0000 H   0  0  0  0  0  0  0  0  0  0  0  0
    0.3509   -1.3550    0.0000 N   0  0  0  0  0  0  0  0  0  0  0  0
    4.2500   -2.1040    0.0000 O   0  0  0  0  0  0  0  0  0  0  0  0
    5.5489   -1.3537    0.0000 H   0  0  0  0  0  0  0  0  0  0  0  0
  1  2  1  0  0  0  0 
  1  3  1  0  0  0  0 
  1  4  1  0  0  0  0 
  1  5  1  0  0  0  0 
  5  6  1  0  0  0  0 
  6  7  1  0  0  0  0 
  6  8  1  0  0  0  0 
  6  9  1  0  0  0  0 
  5 10  1  0  0  0  0 
 10 11  1  0  0  0  0 
 10 12  1  0  0  0  0 
 10 13  1  0  0  0  0 
  5 14  1  0  0  0  0 
 14 15  2  0  0  0  0 
 15 16  1  0  0  0  0 
 15 17  1  0  0  0  0 
 17 18  1  0  0  0  0 
 17 19  2  0  0  0  0 
 19 20  1  0  0  0  0 
 20 21  1  0  0  0  0 
 20 22  2  0  0  0  0 
 14 22  1  0  0  0  0 
 22 23  1  0  0  0  0 
 19 24  1  0  0  0  0 
 24 25  2  0  0  0  0 
 24 26  2  0  0  0  0 
 24 27  1  0  0  0  0 
 27 28  1  0  0  0  0 
 27 29  1  0  0  0  0 
 29 30  2  0  0  0  0 
 30 31  1  0  0  0  0 
 31 32  2  0  0  0  0 
 32 33  1  0  0  0  0 
 33 34  2  0  0  0  0 
 29 34  1  0  0  0  0 
 34 35  1  0  0  0  0 
 35 36  1  0  0  0  0 
 36 37  2  0  0  0  0 
 37 38  1  0  0  0  0 
 38 39  1  0  0  0  0 
 38 40  2  0  0  0  0 
 40 41  1  0  0  0  0 
 40 42  1  0  0  0  0 
 42 43  1  0  0  0  0 
 42 44  2  0  0  0  0 
 36 44  1  0  0  0  0 
 44 45  1  0  0  0  0 
 37 46  1  0  0  0  0 
 46 47  1  0  0  0  0 
 47 48  1  0  0  0  0 
 47 49  1  0  0  0  0 
 47 50  1  0  0  0  0 
 33 51  1  0  0  0  0 
 51 52  1  0  0  0  0 
 52 53  1  0  0  0  0 
 52 54  1  0  0  0  0 
 52 55  1  0  0  0  0 
 55 56  1  0  0  0  0 
 55 57  1  0  0  0  0 
 55 58  1  0  0  0  0 
 58 59  1  0  0  0  0 
 31 60  1  0  0  0  0 
 60 61  2  0  0  0  0 
 61 62  1  0  0  0  0 
 62 63  1  0  0  0  0 
 62 64  2  0  0  0  0 
 64 65  1  0  0  0  0 
 65 66  1  0  0  0  0 
 65 67  2  0  0  0  0 
 60 67  1  0  0  0  0 
 64 68  1  0  0  0  0 
 68 69  1  0  0  0  0 
M  END
> <Rank>
8

> <Priority_score>
0.26

> <Reaction_type>
aromatic_hydroxylation_(para_to_carbon)

> <Parent_ID>
49

> <Parent_InChI>
InChI=1S/C27H29N5O6S/c1-27(2,3)18-10-12-19(13-11-18)39(34,35)32-23-22(38-21-9-6-5-8-20(21)36-4)26(37-17-16-33)31-25(30-23)24-28-14-7-15-29-24/h5-15,33H,16-17H2,1-4H3,(H,30,31,32)

> <Parent_SMILES>
COc1ccccc1Oc1c(NS(=O)(=O)c2ccc(C(C)(C)C)cc2)nc(-c2ncccn2)nc1OCCO

$$$$
Molecule 49_metabolite 10
  CDK     0516241031

 69 72  0  0  0  0  0  0  0  0999 V2000
  -13.1892    1.9520    0.0000 C   0  0  0  0  0  0  0  0  0  0  0  0
  -14.4886    2.7014    0.0000 H   0  0  0  0  0  0  0  0  0  0  0  0
  -12.2245    0.8034    0.0000 H   0  0  0  0  0  0  0  0  0  0  0  0
  -14.1528    0.8025    0.0000 H   0  0  0  0  0  0  0  0  0  0  0  0
  -11.8905    2.7026    0.0000 C   0  0  0  0  0  0  0  0  0  0  0  0
  -13.7814    4.9539    0.0000 C   0  0  0  0  0  0  0  0  0  0  0  0
  -15.2585    4.6927    0.0000 H   0  0  0  0  0  0  0  0  0  0  0  0
  -14.2951    6.3632    0.0000 H   0  0  0  0  0  0  0  0  0  0  0  0
  -12.4827    5.7045    0.0000 H   0  0  0  0  0  0  0  0  0  0  0  0
  -10.9269    3.8522    0.0000 C   0  0  0  0  0  0  0  0  0  0  0  0
   -9.4496    3.5924    0.0000 H   0  0  0  0  0  0  0  0  0  0  0  0
  -10.4146    5.2619    0.0000 H   0  0  0  0  0  0  0  0  0  0  0  0
  -12.2263    4.6015    0.0000 H   0  0  0  0  0  0  0  0  0  0  0  0
   -9.7595    1.4737    0.0000 C   0  0  0  0  0  0  0  0  0  0  0  0
   -8.4600    2.2245    0.0000 C   0  0  0  0  0  0  0  0  0  0  0  0
   -8.4610    3.7245    0.0000 H   0  0  0  0  0  0  0  0  0  0  0  0
   -7.1595    1.4753    0.0000 C   0  0  0  0  0  0  0  0  0  0  0  0
   -5.8611    2.2264    0.0000 H   0  0  0  0  0  0  0  0  0  0  0  0
   -7.1586   -0.0247    0.0000 C   0  0  0  0  0  0  0  0  0  0  0  0
   -8.4581   -0.7755    0.0000 C   0  0  0  0  0  0  0  0  0  0  0  0
   -8.4571   -2.2755    0.0000 H   0  0  0  0  0  0  0  0  0  0  0  0
   -9.7586   -0.0263    0.0000 C   0  0  0  0  0  0  0  0  0  0  0  0
  -11.0570   -0.7774    0.0000 H   0  0  0  0  0  0  0  0  0  0  0  0
   -5.8592   -0.7741    0.0000 S   0  0  0  0  0  0  0  0  0  0  0  0
   -4.8944   -1.9227    0.0000 O   0  0  0  0  0  0  0  0  0  0  0  0
   -6.8228   -1.9236    0.0000 O   0  0  0  0  0  0  0  0  0  0  0  0
   -4.5605   -0.0234    0.0000 N   0  0  0  0  0  0  0  0  0  0  0  0
   -4.5612    1.4766    0.0000 H   0  0  0  0  0  0  0  0  0  0  0  0
   -3.2611   -0.7728    0.0000 C   0  0  0  0  0  0  0  0  0  0  0  0
   -3.2601   -2.2736    0.0000 N   0  0  0  0  0  0  0  0  0  0  0  0
   -1.9604   -3.0241    0.0000 C   0  0  0  0  0  0  0  0  0  0  0  0
   -0.6616   -2.2736    0.0000 N   0  0  0  0  0  0  0  0  0  0  0  0
   -0.6625   -0.7728    0.0000 C   0  0  0  0  0  0  0  0  0  0  0  0
   -1.9623   -0.0224    0.0000 C   0  0  0  0  0  0  0  0  0  0  0  0
   -1.9627    2.4376    0.0000 O   0  0  0  0  0  0  0  0  0  0  0  0
   -0.6638    3.1878    0.0000 C   0  0  0  0  0  0  0  0  0  0  0  0
   -0.6620    4.6887    0.0000 C   0  0  0  0  0  0  0  0  0  0  0  0
    0.6382    5.4367    0.0000 C   0  0  0  0  0  0  0  0  0  0  0  0
    0.6407    6.9367    0.0000 H   0  0  0  0  0  0  0  0  0  0  0  0
    1.9366    4.6839    0.0000 C   0  0  0  0  0  0  0  0  0  0  0  0
    3.2380    5.4297    0.0000 H   0  0  0  0  0  0  0  0  0  0  0  0
    1.9298    3.1917    0.0000 C   0  0  0  0  0  0  0  0  0  0  0  0
    3.2266    2.4378    0.0000 H   0  0  0  0  0  0  0  0  0  0  0  0
    0.6296    2.4437    0.0000 C   0  0  0  0  0  0  0  0  0  0  0  0
    0.6296    0.9437    0.0000 H   0  0  0  0  0  0  0  0  0  0  0  0
   -1.9600    5.4404    0.0000 O   0  0  0  0  0  0  0  0  0  0  0  0
   -1.9580    6.9404    0.0000 C   0  0  0  0  0  0  0  0  0  0  0  0
   -0.6579    7.6886    0.0000 H   0  0  0  0  0  0  0  0  0  0  0  0
   -2.4691    8.3506    0.0000 H   0  0  0  0  0  0  0  0  0  0  0  0
   -3.4355    6.6819    0.0000 H   0  0  0  0  0  0  0  0  0  0  0  0
    0.6363   -0.0224    0.0000 O   0  0  0  0  0  0  0  0  0  0  0  0
    1.9355   -0.7720    0.0000 C   0  0  0  0  0  0  0  0  0  0  0  0
    2.9001   -1.9207    0.0000 H   0  0  0  0  0  0  0  0  0  0  0  0
    0.9717   -1.9213    0.0000 H   0  0  0  0  0  0  0  0  0  0  0  0
    3.2343   -0.0216    0.0000 C   0  0  0  0  0  0  0  0  0  0  0  0
    2.2698    1.1272    0.0000 H   0  0  0  0  0  0  0  0  0  0  0  0
    4.5336   -0.7711    0.0000 O   0  0  0  0  0  0  0  0  0  0  0  0
    5.8324   -0.0207    0.0000 H   0  0  0  0  0  0  0  0  0  0  0  0
    4.1982    1.1278    0.0000 O   0  0  0  0  0  0  0  0  0  0  0  0
    5.6754    0.8678    0.0000 H   0  0  0  0  0  0  0  0  0  0  0  0
   -1.9601   -4.5241    0.0000 C   0  0  0  0  0  0  0  0  0  0  0  0
   -0.6604   -5.2745    0.0000 N   0  0  0  0  0  0  0  0  0  0  0  0
   -0.6594   -6.7753    0.0000 C   0  0  0  0  0  0  0  0  0  0  0  0
    0.6400   -7.5247    0.0000 H   0  0  0  0  0  0  0  0  0  0  0  0
   -1.9582   -7.5257    0.0000 C   0  0  0  0  0  0  0  0  0  0  0  0
   -1.9580   -9.0257    0.0000 H   0  0  0  0  0  0  0  0  0  0  0  0
   -3.2580   -6.7753    0.0000 C   0  0  0  0  0  0  0  0  0  0  0  0
   -4.5568   -7.5257    0.0000 H   0  0  0  0  0  0  0  0  0  0  0  0
   -3.2589   -5.2745    0.0000 N   0  0  0  0  0  0  0  0  0  0  0  0
  1  2  1  0  0  0  0 
  1  3  1  0  0  0  0 
  1  4  1  0  0  0  0 
  1  5  1  0  0  0  0 
  5  6  1  0  0  0  0 
  6  7  1  0  0  0  0 
  6  8  1  0  0  0  0 
  6  9  1  0  0  0  0 
  5 10  1  0  0  0  0 
 10 11  1  0  0  0  0 
 10 12  1  0  0  0  0 
 10 13  1  0  0  0  0 
  5 14  1  0  0  0  0 
 14 15  2  0  0  0  0 
 15 16  1  0  0  0  0 
 15 17  1  0  0  0  0 
 17 18  1  0  0  0  0 
 17 19  2  0  0  0  0 
 19 20  1  0  0  0  0 
 20 21  1  0  0  0  0 
 20 22  2  0  0  0  0 
 14 22  1  0  0  0  0 
 22 23  1  0  0  0  0 
 19 24  1  0  0  0  0 
 24 25  2  0  0  0  0 
 24 26  2  0  0  0  0 
 24 27  1  0  0  0  0 
 27 28  1  0  0  0  0 
 27 29  1  0  0  0  0 
 29 30  2  0  0  0  0 
 30 31  1  0  0  0  0 
 31 32  2  0  0  0  0 
 32 33  1  0  0  0  0 
 33 34  2  0  0  0  0 
 29 34  1  0  0  0  0 
 34 35  1  0  0  0  0 
 35 36  1  0  0  0  0 
 36 37  2  0  0  0  0 
 37 38  1  0  0  0  0 
 38 39  1  0  0  0  0 
 38 40  2  0  0  0  0 
 40 41  1  0  0  0  0 
 40 42  1  0  0  0  0 
 42 43  1  0  0  0  0 
 42 44  2  0  0  0  0 
 36 44  1  0  0  0  0 
 44 45  1  0  0  0  0 
 37 46  1  0  0  0  0 
 46 47  1  0  0  0  0 
 47 48  1  0  0  0  0 
 47 49  1  0  0  0  0 
 47 50  1  0  0  0  0 
 33 51  1  0  0  0  0 
 51 52  1  0  0  0  0 
 52 53  1  0  0  0  0 
 52 54  1  0  0  0  0 
 52 55  1  0  0  0  0 
 55 56  1  0  0  0  0 
 55 57  1  0  0  0  0 
 57 58  1  0  0  0  0 
 55 59  1  0  0  0  0 
 59 60  1  0  0  0  0 
 31 61  1  0  0  0  0 
 61 62  2  0  0  0  0 
 62 63  1  0  0  0  0 
 63 64  1  0  0  0  0 
 63 65  2  0  0  0  0 
 65 66  1  0  0  0  0 
 65 67  1  0  0  0  0 
 67 68  1  0  0  0  0 
 67 69  2  0  0  0  0 
 61 69  1  0  0  0  0 
M  END
> <Rank>
10

> <Priority_score>
0.228

> <Reaction_type>
aliphatic hydroxylation

> <Parent_ID>
49

> <Parent_InChI>
InChI=1S/C27H29N5O6S/c1-27(2,3)18-10-12-19(13-11-18)39(34,35)32-23-22(38-21-9-6-5-8-20(21)36-4)26(37-17-16-33)31-25(30-23)24-28-14-7-15-29-24/h5-15,33H,16-17H2,1-4H3,(H,30,31,32)

> <Parent_SMILES>
COc1ccccc1Oc1c(NS(=O)(=O)c2ccc(C(C)(C)C)cc2)nc(-c2ncccn2)nc1OCCO

$$$$
Molecule 49_metabolite 11
  CDK     0516241031

 67 70  0  0  0  0  0  0  0  0999 V2000
   -4.4249    0.7756    0.0000 C   0  0  0  0  0  0  0  0  0  0  0  0
   -5.7241    1.5254    0.0000 H   0  0  0  0  0  0  0  0  0  0  0  0
   -2.9477    0.5153    0.0000 H   0  0  0  0  0  0  0  0  0  0  0  0
   -3.9121    2.1852    0.0000 H   0  0  0  0  0  0  0  0  0  0  0  0
   -4.4247   -0.7244    0.0000 C   0  0  0  0  0  0  0  0  0  0  0  0
   -5.9019   -0.4642    0.0000 C   0  0  0  0  0  0  0  0  0  0  0  0
   -6.4152    0.9453    0.0000 H   0  0  0  0  0  0  0  0  0  0  0  0
   -7.3791   -0.7249    0.0000 H   0  0  0  0  0  0  0  0  0  0  0  0
   -5.9017   -1.9642    0.0000 H   0  0  0  0  0  0  0  0  0  0  0  0
   -5.1016   -2.5851    0.0000 C   0  0  0  0  0  0  0  0  0  0  0  0
   -6.5787   -2.8458    0.0000 H   0  0  0  0  0  0  0  0  0  0  0  0
   -5.1013   -4.0851    0.0000 H   0  0  0  0  0  0  0  0  0  0  0  0
   -3.6243   -2.8454    0.0000 H   0  0  0  0  0  0  0  0  0  0  0  0
   -2.7098   -1.7142    0.0000 C   0  0  0  0  0  0  0  0  0  0  0  0
   -2.7093   -3.2150    0.0000 C   0  0  0  0  0  0  0  0  0  0  0  0
   -4.0083   -3.9650    0.0000 H   0  0  0  0  0  0  0  0  0  0  0  0
   -1.4098   -3.9658    0.0000 C   0  0  0  0  0  0  0  0  0  0  0  0
   -1.4100   -5.4658    0.0000 H   0  0  0  0  0  0  0  0  0  0  0  0
   -0.1107   -3.2158    0.0000 C   0  0  0  0  0  0  0  0  0  0  0  0
   -0.1112   -1.7150    0.0000 C   0  0  0  0  0  0  0  0  0  0  0  0
    1.1878   -0.9650    0.0000 H   0  0  0  0  0  0  0  0  0  0  0  0
   -1.4107   -0.9642    0.0000 C   0  0  0  0  0  0  0  0  0  0  0  0
   -1.4105    0.5358    0.0000 H   0  0  0  0  0  0  0  0  0  0  0  0
    1.1884   -3.9656    0.0000 S   0  0  0  0  0  0  0  0  0  0  0  0
    2.6657   -4.2258    0.0000 O   0  0  0  0  0  0  0  0  0  0  0  0
    1.7012   -2.5560    0.0000 O   0  0  0  0  0  0  0  0  0  0  0  0
    1.1887   -5.4656    0.0000 N   0  0  0  0  0  0  0  0  0  0  0  0
   -0.1103   -6.2158    0.0000 H   0  0  0  0  0  0  0  0  0  0  0  0
    2.4878   -6.2154    0.0000 C   0  0  0  0  0  0  0  0  0  0  0  0
    3.7876   -5.4650    0.0000 N   0  0  0  0  0  0  0  0  0  0  0  0
    5.0878   -6.2146    0.0000 C   0  0  0  0  0  0  0  0  0  0  0  0
    5.0883   -7.7146    0.0000 N   0  0  0  0  0  0  0  0  0  0  0  0
    3.7885   -8.4650    0.0000 C   0  0  0  0  0  0  0  0  0  0  0  0
    2.4883   -7.7154    0.0000 C   0  0  0  0  0  0  0  0  0  0  0  0
    0.3585   -8.9464    0.0000 O   0  0  0  0  0  0  0  0  0  0  0  0
    0.3592  -10.4464    0.0000 C   0  0  0  0  0  0  0  0  0  0  0  0
   -0.9392  -11.1992    0.0000 C   0  0  0  0  0  0  0  0  0  0  0  0
   -0.9360  -12.6992    0.0000 C   0  0  0  0  0  0  0  0  0  0  0  0
   -2.2333  -13.4522    0.0000 H   0  0  0  0  0  0  0  0  0  0  0  0
    0.3657  -13.4464    0.0000 C   0  0  0  0  0  0  0  0  0  0  0  0
    0.3714  -14.9464    0.0000 H   0  0  0  0  0  0  0  0  0  0  0  0
    1.6540  -12.6936    0.0000 C   0  0  0  0  0  0  0  0  0  0  0  0
    2.9558  -13.4389    0.0000 H   0  0  0  0  0  0  0  0  0  0  0  0
    1.6508  -11.1936    0.0000 C   0  0  0  0  0  0  0  0  0  0  0  0
    2.9494  -10.4428    0.0000 H   0  0  0  0  0  0  0  0  0  0  0  0
   -2.2397  -10.4518    0.0000 O   0  0  0  0  0  0  0  0  0  0  0  0
   -3.5373  -11.2044    0.0000 C   0  0  0  0  0  0  0  0  0  0  0  0
   -3.5343  -12.7044    0.0000 H   0  0  0  0  0  0  0  0  0  0  0  0
   -5.0140  -11.4678    0.0000 H   0  0  0  0  0  0  0  0  0  0  0  0
   -4.0531   -9.7959    0.0000 H   0  0  0  0  0  0  0  0  0  0  0  0
    3.7890   -9.9650    0.0000 O   0  0  0  0  0  0  0  0  0  0  0  0
    5.0883  -10.7146    0.0000 C   0  0  0  0  0  0  0  0  0  0  0  0
    6.0528  -11.8633    0.0000 H   0  0  0  0  0  0  0  0  0  0  0  0
    4.1245  -11.8639    0.0000 H   0  0  0  0  0  0  0  0  0  0  0  0
    6.3871   -9.9642    0.0000 C   0  0  0  0  0  0  0  0  0  0  0  0
    6.3866   -8.4642    0.0000 O   0  0  0  0  0  0  0  0  0  0  0  0
    7.6864  -10.7137    0.0000 O   0  0  0  0  0  0  0  0  0  0  0  0
    8.9852   -9.9633    0.0000 H   0  0  0  0  0  0  0  0  0  0  0  0
    6.3865   -5.4639    0.0000 C   0  0  0  0  0  0  0  0  0  0  0  0
    7.6867   -6.2135    0.0000 N   0  0  0  0  0  0  0  0  0  0  0  0
    8.9865   -5.4631    0.0000 C   0  0  0  0  0  0  0  0  0  0  0  0
   10.2857   -6.2129    0.0000 H   0  0  0  0  0  0  0  0  0  0  0  0
    8.9860   -3.9631    0.0000 C   0  0  0  0  0  0  0  0  0  0  0  0
   10.2847   -3.2125    0.0000 H   0  0  0  0  0  0  0  0  0  0  0  0
    7.6858   -3.2135    0.0000 C   0  0  0  0  0  0  0  0  0  0  0  0
    7.6853   -1.7135    0.0000 H   0  0  0  0  0  0  0  0  0  0  0  0
    6.3860   -3.9639    0.0000 N   0  0  0  0  0  0  0  0  0  0  0  0
  1  2  1  0  0  0  0 
  1  3  1  0  0  0  0 
  1  4  1  0  0  0  0 
  1  5  1  0  0  0  0 
  5  6  1  0  0  0  0 
  6  7  1  0  0  0  0 
  6  8  1  0  0  0  0 
  6  9  1  0  0  0  0 
  5 10  1  0  0  0  0 
 10 11  1  0  0  0  0 
 10 12  1  0  0  0  0 
 10 13  1  0  0  0  0 
  5 14  1  0  0  0  0 
 14 15  2  0  0  0  0 
 15 16  1  0  0  0  0 
 15 17  1  0  0  0  0 
 17 18  1  0  0  0  0 
 17 19  2  0  0  0  0 
 19 20  1  0  0  0  0 
 20 21  1  0  0  0  0 
 20 22  2  0  0  0  0 
 14 22  1  0  0  0  0 
 22 23  1  0  0  0  0 
 19 24  1  0  0  0  0 
 24 25  2  0  0  0  0 
 24 26  2  0  0  0  0 
 24 27  1  0  0  0  0 
 27 28  1  0  0  0  0 
 27 29  1  0  0  0  0 
 29 30  2  0  0  0  0 
 30 31  1  0  0  0  0 
 31 32  2  0  0  0  0 
 32 33  1  0  0  0  0 
 33 34  2  0  0  0  0 
 29 34  1  0  0  0  0 
 34 35  1  0  0  0  0 
 35 36  1  0  0  0  0 
 36 37  2  0  0  0  0 
 37 38  1  0  0  0  0 
 38 39  1  0  0  0  0 
 38 40  2  0  0  0  0 
 40 41  1  0  0  0  0 
 40 42  1  0  0  0  0 
 42 43  1  0  0  0  0 
 42 44  2  0  0  0  0 
 36 44  1  0  0  0  0 
 44 45  1  0  0  0  0 
 37 46  1  0  0  0  0 
 46 47  1  0  0  0  0 
 47 48  1  0  0  0  0 
 47 49  1  0  0  0  0 
 47 50  1  0  0  0  0 
 33 51  1  0  0  0  0 
 51 52  1  0  0  0  0 
 52 53  1  0  0  0  0 
 52 54  1  0  0  0  0 
 52 55  1  0  0  0  0 
 55 56  2  0  0  0  0 
 55 57  1  0  0  0  0 
 57 58  1  0  0  0  0 
 31 59  1  0  0  0  0 
 59 60  2  0  0  0  0 
 60 61  1  0  0  0  0 
 61 62  1  0  0  0  0 
 61 63  2  0  0  0  0 
 63 64  1  0  0  0  0 
 63 65  1  0  0  0  0 
 65 66  1  0  0  0  0 
 65 67  2  0  0  0  0 
 59 67  1  0  0  0  0 
M  END
> <Rank>
10

> <Priority_score>
0.228

> <Reaction_type>
primary_alcohol_oxidation_(aliphatic)

> <Parent_ID>
49

> <Parent_InChI>
InChI=1S/C27H29N5O6S/c1-27(2,3)18-10-12-19(13-11-18)39(34,35)32-23-22(38-21-9-6-5-8-20(21)36-4)26(37-17-16-33)31-25(30-23)24-28-14-7-15-29-24/h5-15,33H,16-17H2,1-4H3,(H,30,31,32)

> <Parent_SMILES>
COc1ccccc1Oc1c(NS(=O)(=O)c2ccc(C(C)(C)C)cc2)nc(-c2ncccn2)nc1OCCO

$$$$
Molecule 49_metabolite 12
  CDK     0516241031

 66 69  0  0  0  0  0  0  0  0999 V2000
   -4.4249    0.7756    0.0000 C   0  0  0  0  0  0  0  0  0  0  0  0
   -5.7241    1.5254    0.0000 H   0  0  0  0  0  0  0  0  0  0  0  0
   -2.9477    0.5153    0.0000 H   0  0  0  0  0  0  0  0  0  0  0  0
   -3.9121    2.1852    0.0000 H   0  0  0  0  0  0  0  0  0  0  0  0
   -4.4247   -0.7244    0.0000 C   0  0  0  0  0  0  0  0  0  0  0  0
   -5.9019   -0.4642    0.0000 C   0  0  0  0  0  0  0  0  0  0  0  0
   -6.4152    0.9453    0.0000 H   0  0  0  0  0  0  0  0  0  0  0  0
   -7.3791   -0.7249    0.0000 H   0  0  0  0  0  0  0  0  0  0  0  0
   -5.9017   -1.9642    0.0000 H   0  0  0  0  0  0  0  0  0  0  0  0
   -5.1016   -2.5851    0.0000 C   0  0  0  0  0  0  0  0  0  0  0  0
   -6.5787   -2.8458    0.0000 H   0  0  0  0  0  0  0  0  0  0  0  0
   -5.1013   -4.0851    0.0000 H   0  0  0  0  0  0  0  0  0  0  0  0
   -3.6243   -2.8454    0.0000 H   0  0  0  0  0  0  0  0  0  0  0  0
   -2.7098   -1.7142    0.0000 C   0  0  0  0  0  0  0  0  0  0  0  0
   -2.7093   -3.2150    0.0000 C   0  0  0  0  0  0  0  0  0  0  0  0
   -4.0083   -3.9650    0.0000 H   0  0  0  0  0  0  0  0  0  0  0  0
   -1.4098   -3.9658    0.0000 C   0  0  0  0  0  0  0  0  0  0  0  0
   -1.4100   -5.4658    0.0000 H   0  0  0  0  0  0  0  0  0  0  0  0
   -0.1107   -3.2158    0.0000 C   0  0  0  0  0  0  0  0  0  0  0  0
   -0.1112   -1.7150    0.0000 C   0  0  0  0  0  0  0  0  0  0  0  0
    1.1878   -0.9650    0.0000 H   0  0  0  0  0  0  0  0  0  0  0  0
   -1.4107   -0.9642    0.0000 C   0  0  0  0  0  0  0  0  0  0  0  0
   -1.4105    0.5358    0.0000 H   0  0  0  0  0  0  0  0  0  0  0  0
    1.1884   -3.9656    0.0000 S   0  0  0  0  0  0  0  0  0  0  0  0
    2.6657   -4.2258    0.0000 O   0  0  0  0  0  0  0  0  0  0  0  0
    1.7012   -2.5560    0.0000 O   0  0  0  0  0  0  0  0  0  0  0  0
    1.1887   -5.4656    0.0000 N   0  0  0  0  0  0  0  0  0  0  0  0
   -0.1103   -6.2158    0.0000 H   0  0  0  0  0  0  0  0  0  0  0  0
    2.4878   -6.2154    0.0000 C   0  0  0  0  0  0  0  0  0  0  0  0
    3.7876   -5.4650    0.0000 N   0  0  0  0  0  0  0  0  0  0  0  0
    5.0878   -6.2146    0.0000 C   0  0  0  0  0  0  0  0  0  0  0  0
    5.0883   -7.7146    0.0000 N   0  0  0  0  0  0  0  0  0  0  0  0
    3.7885   -8.4650    0.0000 C   0  0  0  0  0  0  0  0  0  0  0  0
    2.4883   -7.7154    0.0000 C   0  0  0  0  0  0  0  0  0  0  0  0
    0.3585   -8.9464    0.0000 O   0  0  0  0  0  0  0  0  0  0  0  0
    0.3592  -10.4464    0.0000 C   0  0  0  0  0  0  0  0  0  0  0  0
   -0.9392  -11.1992    0.0000 C   0  0  0  0  0  0  0  0  0  0  0  0
   -0.9360  -12.6992    0.0000 C   0  0  0  0  0  0  0  0  0  0  0  0
   -2.2333  -13.4522    0.0000 H   0  0  0  0  0  0  0  0  0  0  0  0
    0.3657  -13.4464    0.0000 C   0  0  0  0  0  0  0  0  0  0  0  0
    0.3714  -14.9464    0.0000 H   0  0  0  0  0  0  0  0  0  0  0  0
    1.6540  -12.6936    0.0000 C   0  0  0  0  0  0  0  0  0  0  0  0
    2.9558  -13.4389    0.0000 H   0  0  0  0  0  0  0  0  0  0  0  0
    1.6508  -11.1936    0.0000 C   0  0  0  0  0  0  0  0  0  0  0  0
    2.9494  -10.4428    0.0000 H   0  0  0  0  0  0  0  0  0  0  0  0
   -2.2397  -10.4518    0.0000 O   0  0  0  0  0  0  0  0  0  0  0  0
   -3.5373  -11.2044    0.0000 C   0  0  0  0  0  0  0  0  0  0  0  0
   -3.5343  -12.7044    0.0000 H   0  0  0  0  0  0  0  0  0  0  0  0
   -5.0140  -11.4678    0.0000 H   0  0  0  0  0  0  0  0  0  0  0  0
   -4.0531   -9.7959    0.0000 H   0  0  0  0  0  0  0  0  0  0  0  0
    3.7890   -9.9650    0.0000 O   0  0  0  0  0  0  0  0  0  0  0  0
    5.0883  -10.7146    0.0000 C   0  0  0  0  0  0  0  0  0  0  0  0
    6.0528  -11.8633    0.0000 H   0  0  0  0  0  0  0  0  0  0  0  0
    4.1245  -11.8639    0.0000 H   0  0  0  0  0  0  0  0  0  0  0  0
    6.3871   -9.9642    0.0000 C   0  0  0  0  0  0  0  0  0  0  0  0
    7.6864  -10.7137    0.0000 H   0  0  0  0  0  0  0  0  0  0  0  0
    6.3866   -8.4642    0.0000 O   0  0  0  0  0  0  0  0  0  0  0  0
    6.3865   -5.4639    0.0000 C   0  0  0  0  0  0  0  0  0  0  0  0
    7.6867   -6.2135    0.0000 N   0  0  0  0  0  0  0  0  0  0  0  0
    8.9865   -5.4631    0.0000 C   0  0  0  0  0  0  0  0  0  0  0  0
   10.2857   -6.2129    0.0000 H   0  0  0  0  0  0  0  0  0  0  0  0
    8.9860   -3.9631    0.0000 C   0  0  0  0  0  0  0  0  0  0  0  0
   10.2847   -3.2125    0.0000 H   0  0  0  0  0  0  0  0  0  0  0  0
    7.6858   -3.2135    0.0000 C   0  0  0  0  0  0  0  0  0  0  0  0
    7.6853   -1.7135    0.0000 H   0  0  0  0  0  0  0  0  0  0  0  0
    6.3860   -3.9639    0.0000 N   0  0  0  0  0  0  0  0  0  0  0  0
  1  2  1  0  0  0  0 
  1  3  1  0  0  0  0 
  1  4  1  0  0  0  0 
  1  5  1  0  0  0  0 
  5  6  1  0  0  0  0 
  6  7  1  0  0  0  0 
  6  8  1  0  0  0  0 
  6  9  1  0  0  0  0 
  5 10  1  0  0  0  0 
 10 11  1  0  0  0  0 
 10 12  1  0  0  0  0 
 10 13  1  0  0  0  0 
  5 14  1  0  0  0  0 
 14 15  2  0  0  0  0 
 15 16  1  0  0  0  0 
 15 17  1  0  0  0  0 
 17 18  1  0  0  0  0 
 17 19  2  0  0  0  0 
 19 20  1  0  0  0  0 
 20 21  1  0  0  0  0 
 20 22  2  0  0  0  0 
 14 22  1  0  0  0  0 
 22 23  1  0  0  0  0 
 19 24  1  0  0  0  0 
 24 25  2  0  0  0  0 
 24 26  2  0  0  0  0 
 24 27  1  0  0  0  0 
 27 28  1  0  0  0  0 
 27 29  1  0  0  0  0 
 29 30  2  0  0  0  0 
 30 31  1  0  0  0  0 
 31 32  2  0  0  0  0 
 32 33  1  0  0  0  0 
 33 34  2  0  0  0  0 
 29 34  1  0  0  0  0 
 34 35  1  0  0  0  0 
 35 36  1  0  0  0  0 
 36 37  2  0  0  0  0 
 37 38  1  0  0  0  0 
 38 39  1  0  0  0  0 
 38 40  2  0  0  0  0 
 40 41  1  0  0  0  0 
 40 42  1  0  0  0  0 
 42 43  1  0  0  0  0 
 42 44  2  0  0  0  0 
 36 44  1  0  0  0  0 
 44 45  1  0  0  0  0 
 37 46  1  0  0  0  0 
 46 47  1  0  0  0  0 
 47 48  1  0  0  0  0 
 47 49  1  0  0  0  0 
 47 50  1  0  0  0  0 
 33 51  1  0  0  0  0 
 51 52  1  0  0  0  0 
 52 53  1  0  0  0  0 
 52 54  1  0  0  0  0 
 52 55  1  0  0  0  0 
 55 56  1  0  0  0  0 
 55 57  2  0  0  0  0 
 31 58  1  0  0  0  0 
 58 59  2  0  0  0  0 
 59 60  1  0  0  0  0 
 60 61  1  0  0  0  0 
 60 62  2  0  0  0  0 
 62 63  1  0  0  0  0 
 62 64  1  0  0  0  0 
 64 65  1  0  0  0  0 
 64 66  2  0  0  0  0 
 58 66  1  0  0  0  0 
M  END
> <Rank>
10

> <Priority_score>
0.228

> <Reaction_type>
alcohol oxidation

> <Parent_ID>
49

> <Parent_InChI>
InChI=1S/C27H29N5O6S/c1-27(2,3)18-10-12-19(13-11-18)39(34,35)32-23-22(38-21-9-6-5-8-20(21)36-4)26(37-17-16-33)31-25(30-23)24-28-14-7-15-29-24/h5-15,33H,16-17H2,1-4H3,(H,30,31,32)

> <Parent_SMILES>
COc1ccccc1Oc1c(NS(=O)(=O)c2ccc(C(C)(C)C)cc2)nc(-c2ncccn2)nc1OCCO

$$$$
Molecule 49_metabolite 13
  CDK     0516241031

 69 72  0  0  0  0  0  0  0  0999 V2000
    2.0138    8.6758    0.0000 C   0  0  0  0  0  0  0  0  0  0  0  0
    3.3125    9.4265    0.0000 H   0  0  0  0  0  0  0  0  0  0  0  0
    0.5368    8.4146    0.0000 H   0  0  0  0  0  0  0  0  0  0  0  0
    1.5001   10.0851    0.0000 H   0  0  0  0  0  0  0  0  0  0  0  0
    2.0146    7.1758    0.0000 C   0  0  0  0  0  0  0  0  0  0  0  0
    3.4916    7.4370    0.0000 C   0  0  0  0  0  0  0  0  0  0  0  0
    4.0040    8.8468    0.0000 H   0  0  0  0  0  0  0  0  0  0  0  0
    4.9690    7.1772    0.0000 H   0  0  0  0  0  0  0  0  0  0  0  0
    3.4924    5.9370    0.0000 H   0  0  0  0  0  0  0  0  0  0  0  0
    2.6927    5.3156    0.0000 C   0  0  0  0  0  0  0  0  0  0  0  0
    4.1700    5.0558    0.0000 H   0  0  0  0  0  0  0  0  0  0  0  0
    2.6934    3.8156    0.0000 H   0  0  0  0  0  0  0  0  0  0  0  0
    1.2156    5.0544    0.0000 H   0  0  0  0  0  0  0  0  0  0  0  0
    0.3003    6.1850    0.0000 C   0  0  0  0  0  0  0  0  0  0  0  0
    0.3008    4.6842    0.0000 C   0  0  0  0  0  0  0  0  0  0  0  0
    1.6003    3.9350    0.0000 H   0  0  0  0  0  0  0  0  0  0  0  0
   -0.9983    3.9325    0.0000 C   0  0  0  0  0  0  0  0  0  0  0  0
   -0.9971    2.4325    0.0000 H   0  0  0  0  0  0  0  0  0  0  0  0
   -2.2978    4.6817    0.0000 C   0  0  0  0  0  0  0  0  0  0  0  0
   -2.2983    6.1825    0.0000 C   0  0  0  0  0  0  0  0  0  0  0  0
   -3.5978    6.9317    0.0000 H   0  0  0  0  0  0  0  0  0  0  0  0
   -0.9992    6.9342    0.0000 C   0  0  0  0  0  0  0  0  0  0  0  0
   -1.0004    8.4342    0.0000 H   0  0  0  0  0  0  0  0  0  0  0  0
   -3.5964    3.9310    0.0000 S   0  0  0  0  0  0  0  0  0  0  0  0
   -5.0735    3.6699    0.0000 O   0  0  0  0  0  0  0  0  0  0  0  0
   -4.1102    5.3403    0.0000 O   0  0  0  0  0  0  0  0  0  0  0  0
   -3.5957    2.4310    0.0000 N   0  0  0  0  0  0  0  0  0  0  0  0
   -2.2963    1.6817    0.0000 H   0  0  0  0  0  0  0  0  0  0  0  0
   -4.8944    1.6804    0.0000 C   0  0  0  0  0  0  0  0  0  0  0  0
   -6.1946    2.4300    0.0000 N   0  0  0  0  0  0  0  0  0  0  0  0
   -7.4944    1.6796    0.0000 C   0  0  0  0  0  0  0  0  0  0  0  0
   -7.4939    0.1796    0.0000 N   0  0  0  0  0  0  0  0  0  0  0  0
   -6.1937   -0.5700    0.0000 C   0  0  0  0  0  0  0  0  0  0  0  0
   -4.8939    0.1804    0.0000 C   0  0  0  0  0  0  0  0  0  0  0  0
   -2.7633   -1.0492    0.0000 O   0  0  0  0  0  0  0  0  0  0  0  0
   -2.7631   -2.5492    0.0000 C   0  0  0  0  0  0  0  0  0  0  0  0
   -1.4642   -3.3012    0.0000 C   0  0  0  0  0  0  0  0  0  0  0  0
   -1.4665   -4.8012    0.0000 C   0  0  0  0  0  0  0  0  0  0  0  0
   -0.1687   -5.5534    0.0000 H   0  0  0  0  0  0  0  0  0  0  0  0
   -2.7676   -5.5492    0.0000 C   0  0  0  0  0  0  0  0  0  0  0  0
   -2.7724   -7.0492    0.0000 H   0  0  0  0  0  0  0  0  0  0  0  0
   -4.0565   -4.7973    0.0000 C   0  0  0  0  0  0  0  0  0  0  0  0
   -5.3578   -5.5433    0.0000 H   0  0  0  0  0  0  0  0  0  0  0  0
   -4.0542   -3.2973    0.0000 C   0  0  0  0  0  0  0  0  0  0  0  0
   -5.3532   -2.5473    0.0000 H   0  0  0  0  0  0  0  0  0  0  0  0
   -0.1641   -2.5530    0.0000 O   0  0  0  0  0  0  0  0  0  0  0  0
    1.1339   -3.3047    0.0000 C   0  0  0  0  0  0  0  0  0  0  0  0
    1.1318   -4.8047    0.0000 H   0  0  0  0  0  0  0  0  0  0  0  0
    2.6107   -3.5672    0.0000 H   0  0  0  0  0  0  0  0  0  0  0  0
    1.6488   -1.8959    0.0000 H   0  0  0  0  0  0  0  0  0  0  0  0
   -6.1932   -2.0700    0.0000 O   0  0  0  0  0  0  0  0  0  0  0  0
   -7.4920   -2.8204    0.0000 C   0  0  0  0  0  0  0  0  0  0  0  0
   -8.9691   -3.0814    0.0000 H   0  0  0  0  0  0  0  0  0  0  0  0
   -8.0055   -1.4110    0.0000 H   0  0  0  0  0  0  0  0  0  0  0  0
   -7.4915   -4.3204    0.0000 C   0  0  0  0  0  0  0  0  0  0  0  0
   -6.0144   -4.0595    0.0000 H   0  0  0  0  0  0  0  0  0  0  0  0
   -6.9780   -5.7298    0.0000 H   0  0  0  0  0  0  0  0  0  0  0  0
   -8.7903   -5.0708    0.0000 O   0  0  0  0  0  0  0  0  0  0  0  0
   -8.7898   -6.5708    0.0000 H   0  0  0  0  0  0  0  0  0  0  0  0
   -8.7936    2.4294    0.0000 C   0  0  0  0  0  0  0  0  0  0  0  0
  -10.0933    1.6790    0.0000 N   0  0  0  0  0  0  0  0  0  0  0  0
  -11.3936    2.4285    0.0000 C   0  0  0  0  0  0  0  0  0  0  0  0
  -12.6922    1.6779    0.0000 H   0  0  0  0  0  0  0  0  0  0  0  0
  -11.3940    3.9285    0.0000 C   0  0  0  0  0  0  0  0  0  0  0  0
  -12.6932    4.6783    0.0000 H   0  0  0  0  0  0  0  0  0  0  0  0
  -10.0943    4.6790    0.0000 C   0  0  0  0  0  0  0  0  0  0  0  0
  -10.0948    6.1790    0.0000 H   0  0  0  0  0  0  0  0  0  0  0  0
   -8.7940    3.9294    0.0000 N   0  0  0  0  0  0  0  0  0  0  0  0
  -10.0928    0.1790    0.0000 O   0  0  0  0  0  0  0  0  0  0  0  0
  1  2  1  0  0  0  0 
  1  3  1  0  0  0  0 
  1  4  1  0  0  0  0 
  1  5  1  0  0  0  0 
  5  6  1  0  0  0  0 
  6  7  1  0  0  0  0 
  6  8  1  0  0  0  0 
  6  9  1  0  0  0  0 
  5 10  1  0  0  0  0 
 10 11  1  0  0  0  0 
 10 12  1  0  0  0  0 
 10 13  1  0  0  0  0 
  5 14  1  0  0  0  0 
 14 15  2  0  0  0  0 
 15 16  1  0  0  0  0 
 15 17  1  0  0  0  0 
 17 18  1  0  0  0  0 
 17 19  2  0  0  0  0 
 19 20  1  0  0  0  0 
 20 21  1  0  0  0  0 
 20 22  2  0  0  0  0 
 14 22  1  0  0  0  0 
 22 23  1  0  0  0  0 
 19 24  1  0  0  0  0 
 24 25  2  0  0  0  0 
 24 26  2  0  0  0  0 
 24 27  1  0  0  0  0 
 27 28  1  0  0  0  0 
 27 29  1  0  0  0  0 
 29 30  2  0  0  0  0 
 30 31  1  0  0  0  0 
 31 32  2  0  0  0  0 
 32 33  1  0  0  0  0 
 33 34  2  0  0  0  0 
 29 34  1  0  0  0  0 
 34 35  1  0  0  0  0 
 35 36  1  0  0  0  0 
 36 37  2  0  0  0  0 
 37 38  1  0  0  0  0 
 38 39  1  0  0  0  0 
 38 40  2  0  0  0  0 
 40 41  1  0  0  0  0 
 40 42  1  0  0  0  0 
 42 43  1  0  0  0  0 
 42 44  2  0  0  0  0 
 36 44  1  0  0  0  0 
 44 45  1  0  0  0  0 
 37 46  1  0  0  0  0 
 46 47  1  0  0  0  0 
 47 48  1  0  0  0  0 
 47 49  1  0  0  0  0 
 47 50  1  0  0  0  0 
 33 51  1  0  0  0  0 
 51 52  1  0  0  0  0 
 52 53  1  0  0  0  0 
 52 54  1  0  0  0  0 
 52 55  1  0  0  0  0 
 55 56  1  0  0  0  0 
 55 57  1  0  0  0  0 
 55 58  1  0  0  0  0 
 58 59  1  0  0  0  0 
 31 60  1  0  0  0  0 
 60 61  2  0  0  0  0 
 61 62  1  0  0  0  0 
 62 63  1  0  0  0  0 
 62 64  2  0  0  0  0 
 64 65  1  0  0  0  0 
 64 66  1  0  0  0  0 
 66 67  1  0  0  0  0 
 66 68  2  0  0  0  0 
 60 68  1  0  0  0  0 
 61 69  1  0  0  0  0 
M  CHG  1  61   1
M  CHG  1  69  -1
M  END
> <Rank>
13

> <Priority_score>
0.196

> <Reaction_type>
N-oxidation_(-N=)

> <Parent_ID>
49

> <Parent_InChI>
InChI=1S/C27H29N5O6S/c1-27(2,3)18-10-12-19(13-11-18)39(34,35)32-23-22(38-21-9-6-5-8-20(21)36-4)26(37-17-16-33)31-25(30-23)24-28-14-7-15-29-24/h5-15,33H,16-17H2,1-4H3,(H,30,31,32)

> <Parent_SMILES>
COc1ccccc1Oc1c(NS(=O)(=O)c2ccc(C(C)(C)C)cc2)nc(-c2ncccn2)nc1OCCO

$$$$
Molecule 49_metabolite 14
  CDK     0516241031

 69 72  0  0  0  0  0  0  0  0999 V2000
    7.9895    1.9517    0.0000 C   0  0  0  0  0  0  0  0  0  0  0  0
    9.2887    2.7015    0.0000 H   0  0  0  0  0  0  0  0  0  0  0  0
    7.0252    0.8028    0.0000 H   0  0  0  0  0  0  0  0  0  0  0  0
    8.9535    0.8025    0.0000 H   0  0  0  0  0  0  0  0  0  0  0  0
    6.6906    2.7019    0.0000 C   0  0  0  0  0  0  0  0  0  0  0  0
    8.5808    4.9537    0.0000 C   0  0  0  0  0  0  0  0  0  0  0  0
   10.0579    4.6930    0.0000 H   0  0  0  0  0  0  0  0  0  0  0  0
    9.0940    6.3632    0.0000 H   0  0  0  0  0  0  0  0  0  0  0  0
    7.2818    5.7040    0.0000 H   0  0  0  0  0  0  0  0  0  0  0  0
    5.7266    3.8511    0.0000 C   0  0  0  0  0  0  0  0  0  0  0  0
    4.2494    3.5909    0.0000 H   0  0  0  0  0  0  0  0  0  0  0  0
    5.2138    5.2607    0.0000 H   0  0  0  0  0  0  0  0  0  0  0  0
    7.0258    4.6009    0.0000 H   0  0  0  0  0  0  0  0  0  0  0  0
    4.5600    1.4722    0.0000 C   0  0  0  0  0  0  0  0  0  0  0  0
    3.2602    2.2226    0.0000 C   0  0  0  0  0  0  0  0  0  0  0  0
    3.2607    3.7226    0.0000 H   0  0  0  0  0  0  0  0  0  0  0  0
    1.9600    1.4731    0.0000 C   0  0  0  0  0  0  0  0  0  0  0  0
    0.6613    2.2237    0.0000 H   0  0  0  0  0  0  0  0  0  0  0  0
    1.9595   -0.0269    0.0000 C   0  0  0  0  0  0  0  0  0  0  0  0
    3.2593   -0.7774    0.0000 C   0  0  0  0  0  0  0  0  0  0  0  0
    3.2588   -2.2774    0.0000 H   0  0  0  0  0  0  0  0  0  0  0  0
    4.5595   -0.0278    0.0000 C   0  0  0  0  0  0  0  0  0  0  0  0
    5.8582   -0.7784    0.0000 H   0  0  0  0  0  0  0  0  0  0  0  0
    0.6603   -0.7767    0.0000 S   0  0  0  0  0  0  0  0  0  0  0  0
   -0.3040   -1.9256    0.0000 O   0  0  0  0  0  0  0  0  0  0  0  0
    1.6243   -1.9260    0.0000 O   0  0  0  0  0  0  0  0  0  0  0  0
   -0.6386   -0.0265    0.0000 N   0  0  0  0  0  0  0  0  0  0  0  0
   -0.6383    1.4735    0.0000 H   0  0  0  0  0  0  0  0  0  0  0  0
   -1.9377   -0.7763    0.0000 C   0  0  0  0  0  0  0  0  0  0  0  0
   -1.9382   -2.2772    0.0000 N   0  0  0  0  0  0  0  0  0  0  0  0
   -3.2377   -3.0280    0.0000 C   0  0  0  0  0  0  0  0  0  0  0  0
   -4.5368   -2.2780    0.0000 N   0  0  0  0  0  0  0  0  0  0  0  0
   -4.5363   -0.7772    0.0000 C   0  0  0  0  0  0  0  0  0  0  0  0
   -3.2368   -0.0263    0.0000 C   0  0  0  0  0  0  0  0  0  0  0  0
   -3.2372    2.4337    0.0000 O   0  0  0  0  0  0  0  0  0  0  0  0
   -4.5363    3.1835    0.0000 C   0  0  0  0  0  0  0  0  0  0  0  0
   -4.5368    4.6843    0.0000 C   0  0  0  0  0  0  0  0  0  0  0  0
   -5.8363    5.4351    0.0000 C   0  0  0  0  0  0  0  0  0  0  0  0
   -7.1354    4.6851    0.0000 C   0  0  0  0  0  0  0  0  0  0  0  0
   -8.4345    5.4349    0.0000 H   0  0  0  0  0  0  0  0  0  0  0  0
   -7.1349    3.1843    0.0000 C   0  0  0  0  0  0  0  0  0  0  0  0
   -8.4339    2.4343    0.0000 H   0  0  0  0  0  0  0  0  0  0  0  0
   -5.8354    2.4335    0.0000 C   0  0  0  0  0  0  0  0  0  0  0  0
   -5.8356    0.9335    0.0000 H   0  0  0  0  0  0  0  0  0  0  0  0
   -5.8361    6.9351    0.0000 O   0  0  0  0  0  0  0  0  0  0  0  0
   -7.1350    7.6853    0.0000 H   0  0  0  0  0  0  0  0  0  0  0  0
   -3.2378    5.4343    0.0000 O   0  0  0  0  0  0  0  0  0  0  0  0
   -3.2378    6.9343    0.0000 C   0  0  0  0  0  0  0  0  0  0  0  0
   -4.5368    7.6843    0.0000 H   0  0  0  0  0  0  0  0  0  0  0  0
   -1.7606    6.6738    0.0000 H   0  0  0  0  0  0  0  0  0  0  0  0
   -2.7247    8.3438    0.0000 H   0  0  0  0  0  0  0  0  0  0  0  0
   -5.8353   -0.0272    0.0000 O   0  0  0  0  0  0  0  0  0  0  0  0
   -7.1344   -0.7772    0.0000 C   0  0  0  0  0  0  0  0  0  0  0  0
   -8.0985   -1.9262    0.0000 H   0  0  0  0  0  0  0  0  0  0  0  0
   -6.1702   -1.9262    0.0000 H   0  0  0  0  0  0  0  0  0  0  0  0
   -8.4334   -0.0272    0.0000 C   0  0  0  0  0  0  0  0  0  0  0  0
   -7.4692    1.1219    0.0000 H   0  0  0  0  0  0  0  0  0  0  0  0
   -9.3976    1.1219    0.0000 H   0  0  0  0  0  0  0  0  0  0  0  0
   -9.7324   -0.7772    0.0000 O   0  0  0  0  0  0  0  0  0  0  0  0
  -11.0315   -0.0272    0.0000 H   0  0  0  0  0  0  0  0  0  0  0  0
   -3.2375   -4.5280    0.0000 C   0  0  0  0  0  0  0  0  0  0  0  0
   -4.5370   -5.2788    0.0000 N   0  0  0  0  0  0  0  0  0  0  0  0
   -4.5375   -6.7797    0.0000 C   0  0  0  0  0  0  0  0  0  0  0  0
   -5.8366   -7.5294    0.0000 H   0  0  0  0  0  0  0  0  0  0  0  0
   -3.2385   -7.5297    0.0000 C   0  0  0  0  0  0  0  0  0  0  0  0
   -3.2382   -9.0297    0.0000 H   0  0  0  0  0  0  0  0  0  0  0  0
   -1.9389   -6.7788    0.0000 C   0  0  0  0  0  0  0  0  0  0  0  0
   -0.6399   -7.5288    0.0000 H   0  0  0  0  0  0  0  0  0  0  0  0
   -1.9385   -5.2780    0.0000 N   0  0  0  0  0  0  0  0  0  0  0  0
  1  2  1  0  0  0  0 
  1  3  1  0  0  0  0 
  1  4  1  0  0  0  0 
  1  5  1  0  0  0  0 
  5  6  1  0  0  0  0 
  6  7  1  0  0  0  0 
  6  8  1  0  0  0  0 
  6  9  1  0  0  0  0 
  5 10  1  0  0  0  0 
 10 11  1  0  0  0  0 
 10 12  1  0  0  0  0 
 10 13  1  0  0  0  0 
  5 14  1  0  0  0  0 
 14 15  2  0  0  0  0 
 15 16  1  0  0  0  0 
 15 17  1  0  0  0  0 
 17 18  1  0  0  0  0 
 17 19  2  0  0  0  0 
 19 20  1  0  0  0  0 
 20 21  1  0  0  0  0 
 20 22  2  0  0  0  0 
 14 22  1  0  0  0  0 
 22 23  1  0  0  0  0 
 19 24  1  0  0  0  0 
 24 25  2  0  0  0  0 
 24 26  2  0  0  0  0 
 24 27  1  0  0  0  0 
 27 28  1  0  0  0  0 
 27 29  1  0  0  0  0 
 29 30  2  0  0  0  0 
 30 31  1  0  0  0  0 
 31 32  2  0  0  0  0 
 32 33  1  0  0  0  0 
 33 34  2  0  0  0  0 
 29 34  1  0  0  0  0 
 34 35  1  0  0  0  0 
 35 36  1  0  0  0  0 
 36 37  2  0  0  0  0 
 37 38  1  0  0  0  0 
 38 39  2  0  0  0  0 
 39 40  1  0  0  0  0 
 39 41  1  0  0  0  0 
 41 42  1  0  0  0  0 
 41 43  2  0  0  0  0 
 36 43  1  0  0  0  0 
 43 44  1  0  0  0  0 
 38 45  1  0  0  0  0 
 45 46  1  0  0  0  0 
 37 47  1  0  0  0  0 
 47 48  1  0  0  0  0 
 48 49  1  0  0  0  0 
 48 50  1  0  0  0  0 
 48 51  1  0  0  0  0 
 33 52  1  0  0  0  0 
 52 53  1  0  0  0  0 
 53 54  1  0  0  0  0 
 53 55  1  0  0  0  0 
 53 56  1  0  0  0  0 
 56 57  1  0  0  0  0 
 56 58  1  0  0  0  0 
 56 59  1  0  0  0  0 
 59 60  1  0  0  0  0 
 31 61  1  0  0  0  0 
 61 62  2  0  0  0  0 
 62 63  1  0  0  0  0 
 63 64  1  0  0  0  0 
 63 65  2  0  0  0  0 
 65 66  1  0  0  0  0 
 65 67  1  0  0  0  0 
 67 68  1  0  0  0  0 
 67 69  2  0  0  0  0 
 61 69  1  0  0  0  0 
M  END
> <Rank>
14

> <Priority_score>
0.18355763604447045

> <Reaction_type>
aromatic_hydroxylation_(ortho_to_oxygen)

> <Parent_ID>
49

> <Parent_InChI>
InChI=1S/C27H29N5O6S/c1-27(2,3)18-10-12-19(13-11-18)39(34,35)32-23-22(38-21-9-6-5-8-20(21)36-4)26(37-17-16-33)31-25(30-23)24-28-14-7-15-29-24/h5-15,33H,16-17H2,1-4H3,(H,30,31,32)

> <Parent_SMILES>
COc1ccccc1Oc1c(NS(=O)(=O)c2ccc(C(C)(C)C)cc2)nc(-c2ncccn2)nc1OCCO

$$$$
Molecule 49_metabolite 15
  CDK     0516241031

 69 72  0  0  0  0  0  0  0  0999 V2000
  -10.6953    1.2133    0.0000 C   0  0  0  0  0  0  0  0  0  0  0  0
  -11.9947    1.9626    0.0000 H   0  0  0  0  0  0  0  0  0  0  0  0
   -9.2180    0.9535    0.0000 H   0  0  0  0  0  0  0  0  0  0  0  0
  -10.1830    2.6231    0.0000 H   0  0  0  0  0  0  0  0  0  0  0  0
  -10.6946   -0.2867    0.0000 C   0  0  0  0  0  0  0  0  0  0  0  0
  -13.5902    0.2224    0.0000 C   0  0  0  0  0  0  0  0  0  0  0  0
  -14.1039    1.6317    0.0000 H   0  0  0  0  0  0  0  0  0  0  0  0
  -15.0673   -0.0388    0.0000 H   0  0  0  0  0  0  0  0  0  0  0  0
  -13.5895   -1.2776    0.0000 H   0  0  0  0  0  0  0  0  0  0  0  0
  -11.2070   -1.6965    0.0000 C   0  0  0  0  0  0  0  0  0  0  0  0
  -10.2422   -2.8451    0.0000 H   0  0  0  0  0  0  0  0  0  0  0  0
  -12.1706   -2.8460    0.0000 H   0  0  0  0  0  0  0  0  0  0  0  0
  -12.5064   -0.9471    0.0000 H   0  0  0  0  0  0  0  0  0  0  0  0
   -8.5636   -1.5157    0.0000 C   0  0  0  0  0  0  0  0  0  0  0  0
   -7.2641   -0.7649    0.0000 C   0  0  0  0  0  0  0  0  0  0  0  0
   -7.2651    0.7351    0.0000 H   0  0  0  0  0  0  0  0  0  0  0  0
   -5.9636   -1.5140    0.0000 C   0  0  0  0  0  0  0  0  0  0  0  0
   -4.6652   -0.7630    0.0000 H   0  0  0  0  0  0  0  0  0  0  0  0
   -5.9626   -3.0140    0.0000 C   0  0  0  0  0  0  0  0  0  0  0  0
   -7.2622   -3.7649    0.0000 C   0  0  0  0  0  0  0  0  0  0  0  0
   -7.2612   -5.2649    0.0000 H   0  0  0  0  0  0  0  0  0  0  0  0
   -8.5626   -3.0157    0.0000 C   0  0  0  0  0  0  0  0  0  0  0  0
   -9.8611   -3.7667    0.0000 H   0  0  0  0  0  0  0  0  0  0  0  0
   -4.6632   -3.7634    0.0000 S   0  0  0  0  0  0  0  0  0  0  0  0
   -3.1859   -4.0232    0.0000 O   0  0  0  0  0  0  0  0  0  0  0  0
   -4.1509   -2.3536    0.0000 O   0  0  0  0  0  0  0  0  0  0  0  0
   -4.6625   -5.2634    0.0000 N   0  0  0  0  0  0  0  0  0  0  0  0
   -5.9612   -6.0140    0.0000 H   0  0  0  0  0  0  0  0  0  0  0  0
   -3.3631   -6.0128    0.0000 C   0  0  0  0  0  0  0  0  0  0  0  0
   -2.0636   -5.2620    0.0000 N   0  0  0  0  0  0  0  0  0  0  0  0
   -0.7631   -6.0111    0.0000 C   0  0  0  0  0  0  0  0  0  0  0  0
   -0.7622   -7.5111    0.0000 N   0  0  0  0  0  0  0  0  0  0  0  0
   -2.0617   -8.2620    0.0000 C   0  0  0  0  0  0  0  0  0  0  0  0
   -3.3622   -7.5128    0.0000 C   0  0  0  0  0  0  0  0  0  0  0  0
   -5.0761   -8.5042    0.0000 O   0  0  0  0  0  0  0  0  0  0  0  0
   -5.0749  -10.0042    0.0000 C   0  0  0  0  0  0  0  0  0  0  0  0
   -3.7546  -10.7536    0.0000 C   0  0  0  0  0  0  0  0  0  0  0  0
   -2.2775  -10.4923    0.0000 H   0  0  0  0  0  0  0  0  0  0  0  0
   -3.7640  -12.2636    0.0000 C   0  0  0  0  0  0  0  0  0  0  0  0
   -2.4792  -13.0378    0.0000 H   0  0  0  0  0  0  0  0  0  0  0  0
   -5.0137  -12.9341    0.0000 C   0  0  0  0  0  0  0  0  0  0  0  0
   -6.3540  -12.2447    0.0000 C   0  0  0  0  0  0  0  0  0  0  0  0
   -7.6291  -13.0347    0.0000 H   0  0  0  0  0  0  0  0  0  0  0  0
   -6.3746  -10.7447    0.0000 C   0  0  0  0  0  0  0  0  0  0  0  0
   -7.6766   -9.9999    0.0000 O   0  0  0  0  0  0  0  0  0  0  0  0
   -8.9727  -10.7551    0.0000 C   0  0  0  0  0  0  0  0  0  0  0  0
   -8.9666  -12.2551    0.0000 H   0  0  0  0  0  0  0  0  0  0  0  0
  -10.4488  -11.0215    0.0000 H   0  0  0  0  0  0  0  0  0  0  0  0
   -9.4913   -9.3477    0.0000 H   0  0  0  0  0  0  0  0  0  0  0  0
   -5.0007  -14.4341    0.0000 O   0  0  0  0  0  0  0  0  0  0  0  0
   -6.2932  -15.1953    0.0000 H   0  0  0  0  0  0  0  0  0  0  0  0
   -2.0607   -9.7620    0.0000 O   0  0  0  0  0  0  0  0  0  0  0  0
   -0.3454  -10.7509    0.0000 C   0  0  0  0  0  0  0  0  0  0  0  0
    1.1320  -11.0104    0.0000 H   0  0  0  0  0  0  0  0  0  0  0  0
    0.1668   -9.3410    0.0000 H   0  0  0  0  0  0  0  0  0  0  0  0
   -0.3444  -12.2509    0.0000 C   0  0  0  0  0  0  0  0  0  0  0  0
   -1.8218  -11.9913    0.0000 H   0  0  0  0  0  0  0  0  0  0  0  0
   -0.8565  -13.6607    0.0000 H   0  0  0  0  0  0  0  0  0  0  0  0
    0.9551  -13.0000    0.0000 O   0  0  0  0  0  0  0  0  0  0  0  0
    0.9561  -14.5000    0.0000 H   0  0  0  0  0  0  0  0  0  0  0  0
    0.5353   -5.2601    0.0000 C   0  0  0  0  0  0  0  0  0  0  0  0
    1.8358   -6.0092    0.0000 N   0  0  0  0  0  0  0  0  0  0  0  0
    3.1353   -5.2584    0.0000 C   0  0  0  0  0  0  0  0  0  0  0  0
    4.4347   -6.0078    0.0000 H   0  0  0  0  0  0  0  0  0  0  0  0
    3.1343   -3.7584    0.0000 C   0  0  0  0  0  0  0  0  0  0  0  0
    4.4328   -3.0074    0.0000 H   0  0  0  0  0  0  0  0  0  0  0  0
    1.8339   -3.0092    0.0000 C   0  0  0  0  0  0  0  0  0  0  0  0
    1.8329   -1.5092    0.0000 H   0  0  0  0  0  0  0  0  0  0  0  0
    0.5343   -3.7601    0.0000 N   0  0  0  0  0  0  0  0  0  0  0  0
  1  2  1  0  0  0  0 
  1  3  1  0  0  0  0 
  1  4  1  0  0  0  0 
  1  5  1  0  0  0  0 
  5  6  1  0  0  0  0 
  6  7  1  0  0  0  0 
  6  8  1  0  0  0  0 
  6  9  1  0  0  0  0 
  5 10  1  0  0  0  0 
 10 11  1  0  0  0  0 
 10 12  1  0  0  0  0 
 10 13  1  0  0  0  0 
  5 14  1  0  0  0  0 
 14 15  2  0  0  0  0 
 15 16  1  0  0  0  0 
 15 17  1  0  0  0  0 
 17 18  1  0  0  0  0 
 17 19  2  0  0  0  0 
 19 20  1  0  0  0  0 
 20 21  1  0  0  0  0 
 20 22  2  0  0  0  0 
 14 22  1  0  0  0  0 
 22 23  1  0  0  0  0 
 19 24  1  0  0  0  0 
 24 25  2  0  0  0  0 
 24 26  2  0  0  0  0 
 24 27  1  0  0  0  0 
 27 28  1  0  0  0  0 
 27 29  1  0  0  0  0 
 29 30  2  0  0  0  0 
 30 31  1  0  0  0  0 
 31 32  2  0  0  0  0 
 32 33  1  0  0  0  0 
 33 34  2  0  0  0  0 
 29 34  1  0  0  0  0 
 34 35  1  0  0  0  0 
 35 36  1  0  0  0  0 
 36 37  2  0  0  0  0 
 37 38  1  0  0  0  0 
 37 39  1  0  0  0  0 
 39 40  1  0  0  0  0 
 39 41  2  0  0  0  0 
 41 42  1  0  0  0  0 
 42 43  1  0  0  0  0 
 42 44  2  0  0  0  0 
 36 44  1  0  0  0  0 
 44 45  1  0  0  0  0 
 45 46  1  0  0  0  0 
 46 47  1  0  0  0  0 
 46 48  1  0  0  0  0 
 46 49  1  0  0  0  0 
 41 50  1  0  0  0  0 
 50 51  1  0  0  0  0 
 33 52  1  0  0  0  0 
 52 53  1  0  0  0  0 
 53 54  1  0  0  0  0 
 53 55  1  0  0  0  0 
 53 56  1  0  0  0  0 
 56 57  1  0  0  0  0 
 56 58  1  0  0  0  0 
 56 59  1  0  0  0  0 
 59 60  1  0  0  0  0 
 31 61  1  0  0  0  0 
 61 62  2  0  0  0  0 
 62 63  1  0  0  0  0 
 63 64  1  0  0  0  0 
 63 65  2  0  0  0  0 
 65 66  1  0  0  0  0 
 65 67  1  0  0  0  0 
 67 68  1  0  0  0  0 
 67 69  2  0  0  0  0 
 61 69  1  0  0  0  0 
M  END
> <Rank>
14

> <Priority_score>
0.18355763604447045

> <Reaction_type>
aromatic_hydroxylation_(para_to_oxygen)

> <Parent_ID>
49

> <Parent_InChI>
InChI=1S/C27H29N5O6S/c1-27(2,3)18-10-12-19(13-11-18)39(34,35)32-23-22(38-21-9-6-5-8-20(21)36-4)26(37-17-16-33)31-25(30-23)24-28-14-7-15-29-24/h5-15,33H,16-17H2,1-4H3,(H,30,31,32)

> <Parent_SMILES>
COc1ccccc1Oc1c(NS(=O)(=O)c2ccc(C(C)(C)C)cc2)nc(-c2ncccn2)nc1OCCO

$$$$
Molecule 49_metabolite 16
  CDK     0516241031

 69 72  0  0  0  0  0  0  0  0999 V2000
  -10.4724    1.1590    0.0000 C   0  0  0  0  0  0  0  0  0  0  0  0
  -11.7716    0.4092    0.0000 H   0  0  0  0  0  0  0  0  0  0  0  0
   -9.5080    2.3079    0.0000 H   0  0  0  0  0  0  0  0  0  0  0  0
  -11.4364    2.3082    0.0000 H   0  0  0  0  0  0  0  0  0  0  0  0
   -9.1735    0.4088    0.0000 C   0  0  0  0  0  0  0  0  0  0  0  0
  -10.1378   -0.7401    0.0000 C   0  0  0  0  0  0  0  0  0  0  0  0
  -11.6150   -0.4794    0.0000 H   0  0  0  0  0  0  0  0  0  0  0  0
  -10.6511   -2.1496    0.0000 H   0  0  0  0  0  0  0  0  0  0  0  0
   -8.8389   -1.4903    0.0000 H   0  0  0  0  0  0  0  0  0  0  0  0
   -7.9010   -1.1082    0.0000 C   0  0  0  0  0  0  0  0  0  0  0  0
   -8.4143   -2.5176    0.0000 H   0  0  0  0  0  0  0  0  0  0  0  0
   -6.6021   -1.8584    0.0000 H   0  0  0  0  0  0  0  0  0  0  0  0
   -6.9366    0.0408    0.0000 H   0  0  0  0  0  0  0  0  0  0  0  0
   -7.4586    1.3985    0.0000 C   0  0  0  0  0  0  0  0  0  0  0  0
   -6.1588    0.6481    0.0000 C   0  0  0  0  0  0  0  0  0  0  0  0
   -6.1593   -0.8519    0.0000 H   0  0  0  0  0  0  0  0  0  0  0  0
   -4.8586    1.3977    0.0000 C   0  0  0  0  0  0  0  0  0  0  0  0
   -3.5599    0.6471    0.0000 H   0  0  0  0  0  0  0  0  0  0  0  0
   -4.8581    2.8977    0.0000 C   0  0  0  0  0  0  0  0  0  0  0  0
   -6.1579    3.6481    0.0000 C   0  0  0  0  0  0  0  0  0  0  0  0
   -6.1574    5.1481    0.0000 H   0  0  0  0  0  0  0  0  0  0  0  0
   -7.4581    2.8985    0.0000 C   0  0  0  0  0  0  0  0  0  0  0  0
   -8.7568    3.6492    0.0000 H   0  0  0  0  0  0  0  0  0  0  0  0
   -3.5589    3.6475    0.0000 S   0  0  0  0  0  0  0  0  0  0  0  0
   -2.5946    4.7964    0.0000 O   0  0  0  0  0  0  0  0  0  0  0  0
   -4.5229    4.7967    0.0000 O   0  0  0  0  0  0  0  0  0  0  0  0
   -2.2600    2.8973    0.0000 N   0  0  0  0  0  0  0  0  0  0  0  0
   -2.2603    1.3973    0.0000 H   0  0  0  0  0  0  0  0  0  0  0  0
   -0.9609    3.6471    0.0000 C   0  0  0  0  0  0  0  0  0  0  0  0
   -0.9604    5.1479    0.0000 N   0  0  0  0  0  0  0  0  0  0  0  0
    0.3391    5.8988    0.0000 C   0  0  0  0  0  0  0  0  0  0  0  0
    1.6382    5.1488    0.0000 N   0  0  0  0  0  0  0  0  0  0  0  0
    1.6377    3.6479    0.0000 C   0  0  0  0  0  0  0  0  0  0  0  0
    0.3382    2.8971    0.0000 C   0  0  0  0  0  0  0  0  0  0  0  0
   -0.1719    0.0017    0.0000 O   0  0  0  0  0  0  0  0  0  0  0  0
    0.9773   -0.9623    0.0000 C   0  0  0  0  0  0  0  0  0  0  0  0
    0.7165   -2.4403    0.0000 C   0  0  0  0  0  0  0  0  0  0  0  0
    1.8657   -3.4043    0.0000 C   0  0  0  0  0  0  0  0  0  0  0  0
    1.6057   -4.8816    0.0000 H   0  0  0  0  0  0  0  0  0  0  0  0
    3.2758   -2.8903    0.0000 C   0  0  0  0  0  0  0  0  0  0  0  0
    4.4250   -3.8543    0.0000 H   0  0  0  0  0  0  0  0  0  0  0  0
    3.5366   -1.4123    0.0000 C   0  0  0  0  0  0  0  0  0  0  0  0
    4.9462   -0.8993    0.0000 H   0  0  0  0  0  0  0  0  0  0  0  0
    2.3874   -0.4483    0.0000 C   0  0  0  0  0  0  0  0  0  0  0  0
    2.6474    1.0290    0.0000 O   0  0  0  0  0  0  0  0  0  0  0  0
    4.1247    0.7690    0.0000 H   0  0  0  0  0  0  0  0  0  0  0  0
   -0.6931   -2.9533    0.0000 O   0  0  0  0  0  0  0  0  0  0  0  0
   -0.9535   -4.4306    0.0000 C   0  0  0  0  0  0  0  0  0  0  0  0
    0.1955   -5.3947    0.0000 H   0  0  0  0  0  0  0  0  0  0  0  0
   -2.3631   -3.9175    0.0000 H   0  0  0  0  0  0  0  0  0  0  0  0
   -1.7035   -5.7296    0.0000 H   0  0  0  0  0  0  0  0  0  0  0  0
    4.1838    2.1779    0.0000 O   0  0  0  0  0  0  0  0  0  0  0  0
    5.8985    3.1679    0.0000 C   0  0  0  0  0  0  0  0  0  0  0  0
    6.8627    4.3170    0.0000 H   0  0  0  0  0  0  0  0  0  0  0  0
    4.9344    4.3170    0.0000 H   0  0  0  0  0  0  0  0  0  0  0  0
    7.1976    2.4179    0.0000 C   0  0  0  0  0  0  0  0  0  0  0  0
    6.2334    1.2689    0.0000 H   0  0  0  0  0  0  0  0  0  0  0  0
    8.1618    1.2689    0.0000 H   0  0  0  0  0  0  0  0  0  0  0  0
    8.4966    3.1679    0.0000 O   0  0  0  0  0  0  0  0  0  0  0  0
    9.7956    2.4179    0.0000 H   0  0  0  0  0  0  0  0  0  0  0  0
    0.3389    7.3988    0.0000 C   0  0  0  0  0  0  0  0  0  0  0  0
    1.6384    8.1496    0.0000 N   0  0  0  0  0  0  0  0  0  0  0  0
    1.6389    9.6504    0.0000 C   0  0  0  0  0  0  0  0  0  0  0  0
    2.9380   10.4002    0.0000 H   0  0  0  0  0  0  0  0  0  0  0  0
    0.3399   10.4004    0.0000 C   0  0  0  0  0  0  0  0  0  0  0  0
    0.3396   11.9004    0.0000 H   0  0  0  0  0  0  0  0  0  0  0  0
   -0.9597    9.6496    0.0000 C   0  0  0  0  0  0  0  0  0  0  0  0
   -2.2587   10.3996    0.0000 H   0  0  0  0  0  0  0  0  0  0  0  0
   -0.9601    8.1488    0.0000 N   0  0  0  0  0  0  0  0  0  0  0  0
  1  2  1  0  0  0  0 
  1  3  1  0  0  0  0 
  1  4  1  0  0  0  0 
  1  5  1  0  0  0  0 
  5  6  1  0  0  0  0 
  6  7  1  0  0  0  0 
  6  8  1  0  0  0  0 
  6  9  1  0  0  0  0 
  5 10  1  0  0  0  0 
 10 11  1  0  0  0  0 
 10 12  1  0  0  0  0 
 10 13  1  0  0  0  0 
  5 14  1  0  0  0  0 
 14 15  2  0  0  0  0 
 15 16  1  0  0  0  0 
 15 17  1  0  0  0  0 
 17 18  1  0  0  0  0 
 17 19  2  0  0  0  0 
 19 20  1  0  0  0  0 
 20 21  1  0  0  0  0 
 20 22  2  0  0  0  0 
 14 22  1  0  0  0  0 
 22 23  1  0  0  0  0 
 19 24  1  0  0  0  0 
 24 25  2  0  0  0  0 
 24 26  2  0  0  0  0 
 24 27  1  0  0  0  0 
 27 28  1  0  0  0  0 
 27 29  1  0  0  0  0 
 29 30  2  0  0  0  0 
 30 31  1  0  0  0  0 
 31 32  2  0  0  0  0 
 32 33  1  0  0  0  0 
 33 34  2  0  0  0  0 
 29 34  1  0  0  0  0 
 34 35  1  0  0  0  0 
 35 36  1  0  0  0  0 
 36 37  2  0  0  0  0 
 37 38  1  0  0  0  0 
 38 39  1  0  0  0  0 
 38 40  2  0  0  0  0 
 40 41  1  0  0  0  0 
 40 42  1  0  0  0  0 
 42 43  1  0  0  0  0 
 42 44  2  0  0  0  0 
 36 44  1  0  0  0  0 
 44 45  1  0  0  0  0 
 45 46  1  0  0  0  0 
 37 47  1  0  0  0  0 
 47 48  1  0  0  0  0 
 48 49  1  0  0  0  0 
 48 50  1  0  0  0  0 
 48 51  1  0  0  0  0 
 33 52  1  0  0  0  0 
 52 53  1  0  0  0  0 
 53 54  1  0  0  0  0 
 53 55  1  0  0  0  0 
 53 56  1  0  0  0  0 
 56 57  1  0  0  0  0 
 56 58  1  0  0  0  0 
 56 59  1  0  0  0  0 
 59 60  1  0  0  0  0 
 31 61  1  0  0  0  0 
 61 62  2  0  0  0  0 
 62 63  1  0  0  0  0 
 63 64  1  0  0  0  0 
 63 65  2  0  0  0  0 
 65 66  1  0  0  0  0 
 65 67  1  0  0  0  0 
 67 68  1  0  0  0  0 
 67 69  2  0  0  0  0 
 61 69  1  0  0  0  0 
M  END
> <Rank>
14

> <Priority_score>
0.18355763604447045

> <Reaction_type>
aromatic_hydroxylation_(ortho_to_oxygen)

> <Parent_ID>
49

> <Parent_InChI>
InChI=1S/C27H29N5O6S/c1-27(2,3)18-10-12-19(13-11-18)39(34,35)32-23-22(38-21-9-6-5-8-20(21)36-4)26(37-17-16-33)31-25(30-23)24-28-14-7-15-29-24/h5-15,33H,16-17H2,1-4H3,(H,30,31,32)

> <Parent_SMILES>
COc1ccccc1Oc1c(NS(=O)(=O)c2ccc(C(C)(C)C)cc2)nc(-c2ncccn2)nc1OCCO

$$$$
Molecule 49_metabolite 17
  CDK     0516241031

 69 72  0  0  0  0  0  0  0  0999 V2000
    4.5387   -5.6637    0.0000 C   0  0  0  0  0  0  0  0  0  0  0  0
    5.8376   -6.4139    0.0000 H   0  0  0  0  0  0  0  0  0  0  0  0
    3.0616   -5.4030    0.0000 H   0  0  0  0  0  0  0  0  0  0  0  0
    4.0255   -7.0732    0.0000 H   0  0  0  0  0  0  0  0  0  0  0  0
    4.5390   -4.1637    0.0000 C   0  0  0  0  0  0  0  0  0  0  0  0
    6.0161   -4.4244    0.0000 C   0  0  0  0  0  0  0  0  0  0  0  0
    6.5289   -5.8341    0.0000 H   0  0  0  0  0  0  0  0  0  0  0  0
    7.4934   -4.1642    0.0000 H   0  0  0  0  0  0  0  0  0  0  0  0
    6.0164   -2.9244    0.0000 H   0  0  0  0  0  0  0  0  0  0  0  0
    5.2165   -2.3032    0.0000 C   0  0  0  0  0  0  0  0  0  0  0  0
    6.6937   -2.0430    0.0000 H   0  0  0  0  0  0  0  0  0  0  0  0
    5.2167   -0.8032    0.0000 H   0  0  0  0  0  0  0  0  0  0  0  0
    3.7393   -2.0425    0.0000 H   0  0  0  0  0  0  0  0  0  0  0  0
    2.8244   -3.1734    0.0000 C   0  0  0  0  0  0  0  0  0  0  0  0
    2.8244   -1.6726    0.0000 C   0  0  0  0  0  0  0  0  0  0  0  0
    4.1237   -0.9230    0.0000 H   0  0  0  0  0  0  0  0  0  0  0  0
    1.5251   -0.9214    0.0000 C   0  0  0  0  0  0  0  0  0  0  0  0
    1.5258    0.5786    0.0000 H   0  0  0  0  0  0  0  0  0  0  0  0
    0.2258   -1.6709    0.0000 C   0  0  0  0  0  0  0  0  0  0  0  0
    0.2258   -3.1718    0.0000 C   0  0  0  0  0  0  0  0  0  0  0  0
   -1.0734   -3.9214    0.0000 H   0  0  0  0  0  0  0  0  0  0  0  0
    1.5251   -3.9230    0.0000 C   0  0  0  0  0  0  0  0  0  0  0  0
    1.5244   -5.4230    0.0000 H   0  0  0  0  0  0  0  0  0  0  0  0
   -1.0731   -0.9207    0.0000 S   0  0  0  0  0  0  0  0  0  0  0  0
   -2.5503   -0.6600    0.0000 O   0  0  0  0  0  0  0  0  0  0  0  0
   -1.5863   -2.3302    0.0000 O   0  0  0  0  0  0  0  0  0  0  0  0
   -1.0728    0.5793    0.0000 N   0  0  0  0  0  0  0  0  0  0  0  0
    0.2263    1.3291    0.0000 H   0  0  0  0  0  0  0  0  0  0  0  0
   -2.3718    1.3295    0.0000 C   0  0  0  0  0  0  0  0  0  0  0  0
   -3.6718    0.5795    0.0000 N   0  0  0  0  0  0  0  0  0  0  0  0
   -4.9718    1.3295    0.0000 C   0  0  0  0  0  0  0  0  0  0  0  0
   -4.9718    2.8295    0.0000 N   0  0  0  0  0  0  0  0  0  0  0  0
   -3.6718    3.5795    0.0000 C   0  0  0  0  0  0  0  0  0  0  0  0
   -2.3718    2.8295    0.0000 C   0  0  0  0  0  0  0  0  0  0  0  0
   -0.2415    4.0598    0.0000 O   0  0  0  0  0  0  0  0  0  0  0  0
   -0.2418    5.5598    0.0000 C   0  0  0  0  0  0  0  0  0  0  0  0
   -1.5337    6.3223    0.0000 C   0  0  0  0  0  0  0  0  0  0  0  0
   -2.8525    5.6075    0.0000 H   0  0  0  0  0  0  0  0  0  0  0  0
   -1.4669    7.8280    0.0000 C   0  0  0  0  0  0  0  0  0  0  0  0
   -0.2645    8.5801    0.0000 C   0  0  0  0  0  0  0  0  0  0  0  0
   -0.2988   10.0797    0.0000 H   0  0  0  0  0  0  0  0  0  0  0  0
    1.0510    7.8387    0.0000 C   0  0  0  0  0  0  0  0  0  0  0  0
    2.3473    8.5934    0.0000 H   0  0  0  0  0  0  0  0  0  0  0  0
    1.0462    6.3205    0.0000 C   0  0  0  0  0  0  0  0  0  0  0  0
    2.3478    5.5749    0.0000 O   0  0  0  0  0  0  0  0  0  0  0  0
    3.6443    6.3293    0.0000 C   0  0  0  0  0  0  0  0  0  0  0  0
    3.6392    7.8293    0.0000 H   0  0  0  0  0  0  0  0  0  0  0  0
    4.1621    4.9215    0.0000 H   0  0  0  0  0  0  0  0  0  0  0  0
    5.1206    6.5947    0.0000 H   0  0  0  0  0  0  0  0  0  0  0  0
   -2.7626    8.5838    0.0000 O   0  0  0  0  0  0  0  0  0  0  0  0
   -2.7559   10.0838    0.0000 H   0  0  0  0  0  0  0  0  0  0  0  0
   -3.6718    5.0795    0.0000 O   0  0  0  0  0  0  0  0  0  0  0  0
   -4.9708    5.8295    0.0000 C   0  0  0  0  0  0  0  0  0  0  0  0
   -6.4480    6.0899    0.0000 H   0  0  0  0  0  0  0  0  0  0  0  0
   -5.4838    4.4199    0.0000 H   0  0  0  0  0  0  0  0  0  0  0  0
   -4.9708    7.3295    0.0000 C   0  0  0  0  0  0  0  0  0  0  0  0
   -3.4936    7.0690    0.0000 H   0  0  0  0  0  0  0  0  0  0  0  0
   -4.4578    8.7390    0.0000 H   0  0  0  0  0  0  0  0  0  0  0  0
   -6.2698    8.0795    0.0000 O   0  0  0  0  0  0  0  0  0  0  0  0
   -6.2698    9.5795    0.0000 H   0  0  0  0  0  0  0  0  0  0  0  0
   -6.2707    0.5793    0.0000 C   0  0  0  0  0  0  0  0  0  0  0  0
   -7.5707    1.3293    0.0000 N   0  0  0  0  0  0  0  0  0  0  0  0
   -8.8707    0.5793    0.0000 C   0  0  0  0  0  0  0  0  0  0  0  0
  -10.1696    1.3295    0.0000 H   0  0  0  0  0  0  0  0  0  0  0  0
   -8.8707   -0.9207    0.0000 C   0  0  0  0  0  0  0  0  0  0  0  0
  -10.1696   -1.6709    0.0000 H   0  0  0  0  0  0  0  0  0  0  0  0
   -7.5707   -1.6707    0.0000 C   0  0  0  0  0  0  0  0  0  0  0  0
   -7.5707   -3.1707    0.0000 H   0  0  0  0  0  0  0  0  0  0  0  0
   -6.2707   -0.9207    0.0000 N   0  0  0  0  0  0  0  0  0  0  0  0
  1  2  1  0  0  0  0 
  1  3  1  0  0  0  0 
  1  4  1  0  0  0  0 
  1  5  1  0  0  0  0 
  5  6  1  0  0  0  0 
  6  7  1  0  0  0  0 
  6  8  1  0  0  0  0 
  6  9  1  0  0  0  0 
  5 10  1  0  0  0  0 
 10 11  1  0  0  0  0 
 10 12  1  0  0  0  0 
 10 13  1  0  0  0  0 
  5 14  1  0  0  0  0 
 14 15  2  0  0  0  0 
 15 16  1  0  0  0  0 
 15 17  1  0  0  0  0 
 17 18  1  0  0  0  0 
 17 19  2  0  0  0  0 
 19 20  1  0  0  0  0 
 20 21  1  0  0  0  0 
 20 22  2  0  0  0  0 
 14 22  1  0  0  0  0 
 22 23  1  0  0  0  0 
 19 24  1  0  0  0  0 
 24 25  2  0  0  0  0 
 24 26  2  0  0  0  0 
 24 27  1  0  0  0  0 
 27 28  1  0  0  0  0 
 27 29  1  0  0  0  0 
 29 30  2  0  0  0  0 
 30 31  1  0  0  0  0 
 31 32  2  0  0  0  0 
 32 33  1  0  0  0  0 
 33 34  2  0  0  0  0 
 29 34  1  0  0  0  0 
 34 35  1  0  0  0  0 
 35 36  1  0  0  0  0 
 36 37  2  0  0  0  0 
 37 38  1  0  0  0  0 
 37 39  1  0  0  0  0 
 39 40  2  0  0  0  0 
 40 41  1  0  0  0  0 
 40 42  1  0  0  0  0 
 42 43  1  0  0  0  0 
 42 44  2  0  0  0  0 
 36 44  1  0  0  0  0 
 44 45  1  0  0  0  0 
 45 46  1  0  0  0  0 
 46 47  1  0  0  0  0 
 46 48  1  0  0  0  0 
 46 49  1  0  0  0  0 
 39 50  1  0  0  0  0 
 50 51  1  0  0  0  0 
 33 52  1  0  0  0  0 
 52 53  1  0  0  0  0 
 53 54  1  0  0  0  0 
 53 55  1  0  0  0  0 
 53 56  1  0  0  0  0 
 56 57  1  0  0  0  0 
 56 58  1  0  0  0  0 
 56 59  1  0  0  0  0 
 59 60  1  0  0  0  0 
 31 61  1  0  0  0  0 
 61 62  2  0  0  0  0 
 62 63  1  0  0  0  0 
 63 64  1  0  0  0  0 
 63 65  2  0  0  0  0 
 65 66  1  0  0  0  0 
 65 67  1  0  0  0  0 
 67 68  1  0  0  0  0 
 67 69  2  0  0  0  0 
 61 69  1  0  0  0  0 
M  END
> <Rank>
14

> <Priority_score>
0.18355763604447045

> <Reaction_type>
aromatic_hydroxylation_(para_to_oxygen)

> <Parent_ID>
49

> <Parent_InChI>
InChI=1S/C27H29N5O6S/c1-27(2,3)18-10-12-19(13-11-18)39(34,35)32-23-22(38-21-9-6-5-8-20(21)36-4)26(37-17-16-33)31-25(30-23)24-28-14-7-15-29-24/h5-15,33H,16-17H2,1-4H3,(H,30,31,32)

> <Parent_SMILES>
COc1ccccc1Oc1c(NS(=O)(=O)c2ccc(C(C)(C)C)cc2)nc(-c2ncccn2)nc1OCCO

$$$$
Molecule 49_metabolite 18
  CDK     0516241031

 64 67  0  0  0  0  0  0  0  0999 V2000
   -6.3767    8.2131    0.0000 C   0  0  0  0  0  0  0  0  0  0  0  0
   -7.6757    8.9633    0.0000 H   0  0  0  0  0  0  0  0  0  0  0  0
   -4.8996    7.9524    0.0000 H   0  0  0  0  0  0  0  0  0  0  0  0
   -5.8635    9.6226    0.0000 H   0  0  0  0  0  0  0  0  0  0  0  0
   -6.3770    6.7131    0.0000 C   0  0  0  0  0  0  0  0  0  0  0  0
   -9.2722    7.2241    0.0000 C   0  0  0  0  0  0  0  0  0  0  0  0
   -9.7850    8.6337    0.0000 H   0  0  0  0  0  0  0  0  0  0  0  0
  -10.7495    6.9639    0.0000 H   0  0  0  0  0  0  0  0  0  0  0  0
   -9.2725    5.7241    0.0000 H   0  0  0  0  0  0  0  0  0  0  0  0
   -6.8902    5.3037    0.0000 C   0  0  0  0  0  0  0  0  0  0  0  0
   -5.9262    4.1544    0.0000 H   0  0  0  0  0  0  0  0  0  0  0  0
   -7.8546    4.1547    0.0000 H   0  0  0  0  0  0  0  0  0  0  0  0
   -8.1892    6.0539    0.0000 H   0  0  0  0  0  0  0  0  0  0  0  0
   -4.2468    5.4828    0.0000 C   0  0  0  0  0  0  0  0  0  0  0  0
   -4.2468    3.9819    0.0000 C   0  0  0  0  0  0  0  0  0  0  0  0
   -5.5460    3.2324    0.0000 H   0  0  0  0  0  0  0  0  0  0  0  0
   -2.9475    3.2307    0.0000 C   0  0  0  0  0  0  0  0  0  0  0  0
   -2.9482    1.7307    0.0000 H   0  0  0  0  0  0  0  0  0  0  0  0
   -1.6482    3.9803    0.0000 C   0  0  0  0  0  0  0  0  0  0  0  0
   -1.6482    5.4811    0.0000 C   0  0  0  0  0  0  0  0  0  0  0  0
   -0.3489    6.2307    0.0000 H   0  0  0  0  0  0  0  0  0  0  0  0
   -2.9475    6.2324    0.0000 C   0  0  0  0  0  0  0  0  0  0  0  0
   -2.9468    7.7324    0.0000 H   0  0  0  0  0  0  0  0  0  0  0  0
   -0.3493    3.2301    0.0000 S   0  0  0  0  0  0  0  0  0  0  0  0
    1.1279    2.9694    0.0000 O   0  0  0  0  0  0  0  0  0  0  0  0
    0.1640    4.6395    0.0000 O   0  0  0  0  0  0  0  0  0  0  0  0
   -0.3495    1.7301    0.0000 N   0  0  0  0  0  0  0  0  0  0  0  0
   -1.6487    0.9803    0.0000 H   0  0  0  0  0  0  0  0  0  0  0  0
    0.9494    0.9799    0.0000 C   0  0  0  0  0  0  0  0  0  0  0  0
    2.2494    1.7299    0.0000 N   0  0  0  0  0  0  0  0  0  0  0  0
    3.5494    0.9799    0.0000 C   0  0  0  0  0  0  0  0  0  0  0  0
    3.5494   -0.5201    0.0000 N   0  0  0  0  0  0  0  0  0  0  0  0
    2.2494   -1.2701    0.0000 C   0  0  0  0  0  0  0  0  0  0  0  0
    0.9494   -0.5201    0.0000 C   0  0  0  0  0  0  0  0  0  0  0  0
   -1.1808   -1.7505    0.0000 O   0  0  0  0  0  0  0  0  0  0  0  0
   -1.1806   -3.2505    0.0000 C   0  0  0  0  0  0  0  0  0  0  0  0
    0.1113   -4.0129    0.0000 C   0  0  0  0  0  0  0  0  0  0  0  0
    1.4301   -3.2982    0.0000 H   0  0  0  0  0  0  0  0  0  0  0  0
    0.0446   -5.5187    0.0000 C   0  0  0  0  0  0  0  0  0  0  0  0
    1.3402   -6.2745    0.0000 O   0  0  0  0  0  0  0  0  0  0  0  0
   -1.1578   -6.2708    0.0000 C   0  0  0  0  0  0  0  0  0  0  0  0
   -1.1236   -7.7704    0.0000 H   0  0  0  0  0  0  0  0  0  0  0  0
   -2.4733   -5.5294    0.0000 C   0  0  0  0  0  0  0  0  0  0  0  0
   -3.7697   -6.2841    0.0000 H   0  0  0  0  0  0  0  0  0  0  0  0
   -2.4686   -4.0112    0.0000 C   0  0  0  0  0  0  0  0  0  0  0  0
   -3.7702   -3.2656    0.0000 O   0  0  0  0  0  0  0  0  0  0  0  0
    2.2494   -2.7701    0.0000 O   0  0  0  0  0  0  0  0  0  0  0  0
    3.5484   -3.5201    0.0000 C   0  0  0  0  0  0  0  0  0  0  0  0
    5.0256   -3.7806    0.0000 H   0  0  0  0  0  0  0  0  0  0  0  0
    4.0615   -2.1106    0.0000 H   0  0  0  0  0  0  0  0  0  0  0  0
    3.5484   -5.0201    0.0000 C   0  0  0  0  0  0  0  0  0  0  0  0
    2.0712   -4.7597    0.0000 H   0  0  0  0  0  0  0  0  0  0  0  0
    3.0354   -6.4297    0.0000 H   0  0  0  0  0  0  0  0  0  0  0  0
    4.8475   -5.7701    0.0000 O   0  0  0  0  0  0  0  0  0  0  0  0
    4.8475   -7.2701    0.0000 H   0  0  0  0  0  0  0  0  0  0  0  0
    4.8483    1.7301    0.0000 C   0  0  0  0  0  0  0  0  0  0  0  0
    6.1483    0.9801    0.0000 N   0  0  0  0  0  0  0  0  0  0  0  0
    7.4483    1.7301    0.0000 C   0  0  0  0  0  0  0  0  0  0  0  0
    8.7472    0.9799    0.0000 H   0  0  0  0  0  0  0  0  0  0  0  0
    7.4483    3.2301    0.0000 C   0  0  0  0  0  0  0  0  0  0  0  0
    8.7472    3.9803    0.0000 H   0  0  0  0  0  0  0  0  0  0  0  0
    6.1483    3.9801    0.0000 C   0  0  0  0  0  0  0  0  0  0  0  0
    6.1483    5.4801    0.0000 H   0  0  0  0  0  0  0  0  0  0  0  0
    4.8483    3.2301    0.0000 N   0  0  0  0  0  0  0  0  0  0  0  0
  1  2  1  0  0  0  0 
  1  3  1  0  0  0  0 
  1  4  1  0  0  0  0 
  1  5  1  0  0  0  0 
  5  6  1  0  0  0  0 
  6  7  1  0  0  0  0 
  6  8  1  0  0  0  0 
  6  9  1  0  0  0  0 
  5 10  1  0  0  0  0 
 10 11  1  0  0  0  0 
 10 12  1  0  0  0  0 
 10 13  1  0  0  0  0 
  5 14  1  0  0  0  0 
 14 15  2  0  0  0  0 
 15 16  1  0  0  0  0 
 15 17  1  0  0  0  0 
 17 18  1  0  0  0  0 
 17 19  2  0  0  0  0 
 19 20  1  0  0  0  0 
 20 21  1  0  0  0  0 
 20 22  2  0  0  0  0 
 14 22  1  0  0  0  0 
 22 23  1  0  0  0  0 
 19 24  1  0  0  0  0 
 24 25  2  0  0  0  0 
 24 26  2  0  0  0  0 
 24 27  1  0  0  0  0 
 27 28  1  0  0  0  0 
 27 29  1  0  0  0  0 
 29 30  2  0  0  0  0 
 30 31  1  0  0  0  0 
 31 32  2  0  0  0  0 
 32 33  1  0  0  0  0 
 33 34  2  0  0  0  0 
 29 34  1  0  0  0  0 
 34 35  1  0  0  0  0 
 35 36  1  0  0  0  0 
 36 37  2  0  0  0  0 
 37 38  1  0  0  0  0 
 37 39  1  0  0  0  0 
 39 40  2  0  0  0  0 
 39 41  1  0  0  0  0 
 41 42  1  0  0  0  0 
 41 43  2  0  0  0  0 
 43 44  1  0  0  0  0 
 43 45  1  0  0  0  0 
 36 45  1  0  0  0  0 
 45 46  2  0  0  0  0 
 33 47  1  0  0  0  0 
 47 48  1  0  0  0  0 
 48 49  1  0  0  0  0 
 48 50  1  0  0  0  0 
 48 51  1  0  0  0  0 
 51 52  1  0  0  0  0 
 51 53  1  0  0  0  0 
 51 54  1  0  0  0  0 
 54 55  1  0  0  0  0 
 31 56  1  0  0  0  0 
 56 57  2  0  0  0  0 
 57 58  1  0  0  0  0 
 58 59  1  0  0  0  0 
 58 60  2  0  0  0  0 
 60 61  1  0  0  0  0 
 60 62  1  0  0  0  0 
 62 63  1  0  0  0  0 
 62 64  2  0  0  0  0 
 56 64  1  0  0  0  0 
M  END
> <Rank>
18

> <Priority_score>
0.13520000000000001

> <Reaction_type>
oxidation of 4-substituted anisole to quinone

> <Parent_ID>
49

> <Parent_InChI>
InChI=1S/C27H29N5O6S/c1-27(2,3)18-10-12-19(13-11-18)39(34,35)32-23-22(38-21-9-6-5-8-20(21)36-4)26(37-17-16-33)31-25(30-23)24-28-14-7-15-29-24/h5-15,33H,16-17H2,1-4H3,(H,30,31,32)

> <Parent_SMILES>
COc1ccccc1Oc1c(NS(=O)(=O)c2ccc(C(C)(C)C)cc2)nc(-c2ncccn2)nc1OCCO

$$$$
Molecule 49_metabolite 19
  CDK     0516241031

 10  9  0  0  0  0  0  0  0  0999 V2000
    2.5981   -0.0000    0.0000 C   0  0  0  0  0  0  0  0  0  0  0  0
    3.5623    1.1491    0.0000 H   0  0  0  0  0  0  0  0  0  0  0  0
    1.6339    1.1491    0.0000 H   0  0  0  0  0  0  0  0  0  0  0  0
    3.8971   -0.7500    0.0000 C   0  0  0  0  0  0  0  0  0  0  0  0
    2.9329   -1.8991    0.0000 H   0  0  0  0  0  0  0  0  0  0  0  0
    4.8613   -1.8991    0.0000 H   0  0  0  0  0  0  0  0  0  0  0  0
    5.1962   -0.0000    0.0000 O   0  0  0  0  0  0  0  0  0  0  0  0
    6.4952   -0.7500    0.0000 H   0  0  0  0  0  0  0  0  0  0  0  0
    1.2990   -0.7500    0.0000 O   0  0  0  0  0  0  0  0  0  0  0  0
   -0.0000    0.0000    0.0000 H   0  0  0  0  0  0  0  0  0  0  0  0
  1  2  1  0  0  0  0 
  1  3  1  0  0  0  0 
  1  4  1  0  0  0  0 
  4  5  1  0  0  0  0 
  4  6  1  0  0  0  0 
  4  7  1  0  0  0  0 
  7  8  1  0  0  0  0 
  1  9  1  0  0  0  0 
  9 10  1  0  0  0  0 
M  END
> <Rank>
19

> <Priority_score>
0.116

> <Reaction_type>
O-dealkylation_(aromatic)

> <Parent_ID>
49

> <Parent_InChI>
InChI=1S/C27H29N5O6S/c1-27(2,3)18-10-12-19(13-11-18)39(34,35)32-23-22(38-21-9-6-5-8-20(21)36-4)26(37-17-16-33)31-25(30-23)24-28-14-7-15-29-24/h5-15,33H,16-17H2,1-4H3,(H,30,31,32)

> <Parent_SMILES>
COc1ccccc1Oc1c(NS(=O)(=O)c2ccc(C(C)(C)C)cc2)nc(-c2ncccn2)nc1OCCO

$$$$
Molecule 49_metabolite 20
  CDK     0516241031

  8  7  0  0  0  0  0  0  0  0999 V2000
    1.2990   -0.7500    0.0000 C   0  0  0  0  0  0  0  0  0  0  0  0
    0.0000    0.0000    0.0000 H   0  0  0  0  0  0  0  0  0  0  0  0
    1.2990   -2.2500    0.0000 O   0  0  0  0  0  0  0  0  0  0  0  0
    2.5981   -0.0000    0.0000 C   0  0  0  0  0  0  0  0  0  0  0  0
    3.5623    1.1491    0.0000 H   0  0  0  0  0  0  0  0  0  0  0  0
    1.6339    1.1491    0.0000 H   0  0  0  0  0  0  0  0  0  0  0  0
    3.8971   -0.7500    0.0000 O   0  0  0  0  0  0  0  0  0  0  0  0
    5.1962   -0.0000    0.0000 H   0  0  0  0  0  0  0  0  0  0  0  0
  1  2  1  0  0  0  0 
  1  3  2  0  0  0  0 
  1  4  1  0  0  0  0 
  4  5  1  0  0  0  0 
  4  6  1  0  0  0  0 
  4  7  1  0  0  0  0 
  7  8  1  0  0  0  0 
M  END
> <Rank>
19

> <Priority_score>
0.116

> <Reaction_type>
oxidative ether cleavage to one alcohol and one aldehyde/ketone

> <Parent_ID>
49

> <Parent_InChI>
InChI=1S/C27H29N5O6S/c1-27(2,3)18-10-12-19(13-11-18)39(34,35)32-23-22(38-21-9-6-5-8-20(21)36-4)26(37-17-16-33)31-25(30-23)24-28-14-7-15-29-24/h5-15,33H,16-17H2,1-4H3,(H,30,31,32)

> <Parent_SMILES>
COc1ccccc1Oc1c(NS(=O)(=O)c2ccc(C(C)(C)C)cc2)nc(-c2ncccn2)nc1OCCO

$$$$
Molecule 49_metabolite 21
  CDK     0516241031

 61 64  0  0  0  0  0  0  0  0999 V2000
    2.0138    8.6758    0.0000 C   0  0  0  0  0  0  0  0  0  0  0  0
    3.3125    9.4265    0.0000 H   0  0  0  0  0  0  0  0  0  0  0  0
    0.5368    8.4146    0.0000 H   0  0  0  0  0  0  0  0  0  0  0  0
    1.5001   10.0851    0.0000 H   0  0  0  0  0  0  0  0  0  0  0  0
    2.0146    7.1758    0.0000 C   0  0  0  0  0  0  0  0  0  0  0  0
    3.4916    7.4370    0.0000 C   0  0  0  0  0  0  0  0  0  0  0  0
    4.0040    8.8468    0.0000 H   0  0  0  0  0  0  0  0  0  0  0  0
    4.9690    7.1772    0.0000 H   0  0  0  0  0  0  0  0  0  0  0  0
    3.4924    5.9370    0.0000 H   0  0  0  0  0  0  0  0  0  0  0  0
    2.6927    5.3156    0.0000 C   0  0  0  0  0  0  0  0  0  0  0  0
    4.1700    5.0558    0.0000 H   0  0  0  0  0  0  0  0  0  0  0  0
    2.6934    3.8156    0.0000 H   0  0  0  0  0  0  0  0  0  0  0  0
    1.2156    5.0544    0.0000 H   0  0  0  0  0  0  0  0  0  0  0  0
    0.3003    6.1850    0.0000 C   0  0  0  0  0  0  0  0  0  0  0  0
    0.3008    4.6842    0.0000 C   0  0  0  0  0  0  0  0  0  0  0  0
    1.6003    3.9350    0.0000 H   0  0  0  0  0  0  0  0  0  0  0  0
   -0.9983    3.9325    0.0000 C   0  0  0  0  0  0  0  0  0  0  0  0
   -0.9971    2.4325    0.0000 H   0  0  0  0  0  0  0  0  0  0  0  0
   -2.2978    4.6817    0.0000 C   0  0  0  0  0  0  0  0  0  0  0  0
   -2.2983    6.1825    0.0000 C   0  0  0  0  0  0  0  0  0  0  0  0
   -3.5978    6.9317    0.0000 H   0  0  0  0  0  0  0  0  0  0  0  0
   -0.9992    6.9342    0.0000 C   0  0  0  0  0  0  0  0  0  0  0  0
   -1.0004    8.4342    0.0000 H   0  0  0  0  0  0  0  0  0  0  0  0
   -3.5964    3.9310    0.0000 S   0  0  0  0  0  0  0  0  0  0  0  0
   -5.0735    3.6699    0.0000 O   0  0  0  0  0  0  0  0  0  0  0  0
   -4.1102    5.3403    0.0000 O   0  0  0  0  0  0  0  0  0  0  0  0
   -3.5957    2.4310    0.0000 N   0  0  0  0  0  0  0  0  0  0  0  0
   -2.2963    1.6817    0.0000 H   0  0  0  0  0  0  0  0  0  0  0  0
   -4.8944    1.6804    0.0000 C   0  0  0  0  0  0  0  0  0  0  0  0
   -6.1946    2.4300    0.0000 N   0  0  0  0  0  0  0  0  0  0  0  0
   -7.4944    1.6796    0.0000 C   0  0  0  0  0  0  0  0  0  0  0  0
   -7.4939    0.1796    0.0000 N   0  0  0  0  0  0  0  0  0  0  0  0
   -6.1937   -0.5700    0.0000 C   0  0  0  0  0  0  0  0  0  0  0  0
   -4.8939    0.1804    0.0000 C   0  0  0  0  0  0  0  0  0  0  0  0
   -2.7633   -1.0492    0.0000 O   0  0  0  0  0  0  0  0  0  0  0  0
   -2.7631   -2.5492    0.0000 C   0  0  0  0  0  0  0  0  0  0  0  0
   -1.4642   -3.3012    0.0000 C   0  0  0  0  0  0  0  0  0  0  0  0
   -1.4665   -4.8012    0.0000 C   0  0  0  0  0  0  0  0  0  0  0  0
   -0.1687   -5.5534    0.0000 H   0  0  0  0  0  0  0  0  0  0  0  0
   -2.7676   -5.5492    0.0000 C   0  0  0  0  0  0  0  0  0  0  0  0
   -2.7724   -7.0492    0.0000 H   0  0  0  0  0  0  0  0  0  0  0  0
   -4.0565   -4.7973    0.0000 C   0  0  0  0  0  0  0  0  0  0  0  0
   -5.3578   -5.5433    0.0000 H   0  0  0  0  0  0  0  0  0  0  0  0
   -4.0542   -3.2973    0.0000 C   0  0  0  0  0  0  0  0  0  0  0  0
   -5.3532   -2.5473    0.0000 H   0  0  0  0  0  0  0  0  0  0  0  0
   -0.1641   -2.5530    0.0000 O   0  0  0  0  0  0  0  0  0  0  0  0
    1.1339   -3.3047    0.0000 C   0  0  0  0  0  0  0  0  0  0  0  0
    1.1318   -4.8047    0.0000 H   0  0  0  0  0  0  0  0  0  0  0  0
    2.6107   -3.5672    0.0000 H   0  0  0  0  0  0  0  0  0  0  0  0
    1.6488   -1.8959    0.0000 H   0  0  0  0  0  0  0  0  0  0  0  0
   -6.1932   -2.0700    0.0000 O   0  0  0  0  0  0  0  0  0  0  0  0
   -7.4920   -2.8204    0.0000 H   0  0  0  0  0  0  0  0  0  0  0  0
   -8.7936    2.4294    0.0000 C   0  0  0  0  0  0  0  0  0  0  0  0
  -10.0933    1.6790    0.0000 N   0  0  0  0  0  0  0  0  0  0  0  0
  -11.3936    2.4285    0.0000 C   0  0  0  0  0  0  0  0  0  0  0  0
  -12.6922    1.6779    0.0000 H   0  0  0  0  0  0  0  0  0  0  0  0
  -11.3940    3.9285    0.0000 C   0  0  0  0  0  0  0  0  0  0  0  0
  -12.6932    4.6783    0.0000 H   0  0  0  0  0  0  0  0  0  0  0  0
  -10.0943    4.6790    0.0000 C   0  0  0  0  0  0  0  0  0  0  0  0
  -10.0948    6.1790    0.0000 H   0  0  0  0  0  0  0  0  0  0  0  0
   -8.7940    3.9294    0.0000 N   0  0  0  0  0  0  0  0  0  0  0  0
  1  2  1  0  0  0  0 
  1  3  1  0  0  0  0 
  1  4  1  0  0  0  0 
  1  5  1  0  0  0  0 
  5  6  1  0  0  0  0 
  6  7  1  0  0  0  0 
  6  8  1  0  0  0  0 
  6  9  1  0  0  0  0 
  5 10  1  0  0  0  0 
 10 11  1  0  0  0  0 
 10 12  1  0  0  0  0 
 10 13  1  0  0  0  0 
  5 14  1  0  0  0  0 
 14 15  2  0  0  0  0 
 15 16  1  0  0  0  0 
 15 17  1  0  0  0  0 
 17 18  1  0  0  0  0 
 17 19  2  0  0  0  0 
 19 20  1  0  0  0  0 
 20 21  1  0  0  0  0 
 20 22  2  0  0  0  0 
 14 22  1  0  0  0  0 
 22 23  1  0  0  0  0 
 19 24  1  0  0  0  0 
 24 25  2  0  0  0  0 
 24 26  2  0  0  0  0 
 24 27  1  0  0  0  0 
 27 28  1  0  0  0  0 
 27 29  1  0  0  0  0 
 29 30  2  0  0  0  0 
 30 31  1  0  0  0  0 
 31 32  2  0  0  0  0 
 32 33  1  0  0  0  0 
 33 34  2  0  0  0  0 
 29 34  1  0  0  0  0 
 34 35  1  0  0  0  0 
 35 36  1  0  0  0  0 
 36 37  2  0  0  0  0 
 37 38  1  0  0  0  0 
 38 39  1  0  0  0  0 
 38 40  2  0  0  0  0 
 40 41  1  0  0  0  0 
 40 42  1  0  0  0  0 
 42 43  1  0  0  0  0 
 42 44  2  0  0  0  0 
 36 44  1  0  0  0  0 
 44 45  1  0  0  0  0 
 37 46  1  0  0  0  0 
 46 47  1  0  0  0  0 
 47 48  1  0  0  0  0 
 47 49  1  0  0  0  0 
 47 50  1  0  0  0  0 
 33 51  1  0  0  0  0 
 51 52  1  0  0  0  0 
 31 53  1  0  0  0  0 
 53 54  2  0  0  0  0 
 54 55  1  0  0  0  0 
 55 56  1  0  0  0  0 
 55 57  2  0  0  0  0 
 57 58  1  0  0  0  0 
 57 59  1  0  0  0  0 
 59 60  1  0  0  0  0 
 59 61  2  0  0  0  0 
 53 61  1  0  0  0  0 
M  END
> <Rank>
19

> <Priority_score>
0.116

> <Reaction_type>
O-dealkylation_(aromatic)

> <Parent_ID>
49

> <Parent_InChI>
InChI=1S/C27H29N5O6S/c1-27(2,3)18-10-12-19(13-11-18)39(34,35)32-23-22(38-21-9-6-5-8-20(21)36-4)26(37-17-16-33)31-25(30-23)24-28-14-7-15-29-24/h5-15,33H,16-17H2,1-4H3,(H,30,31,32)

> <Parent_SMILES>
COc1ccccc1Oc1c(NS(=O)(=O)c2ccc(C(C)(C)C)cc2)nc(-c2ncccn2)nc1OCCO

$$$$
Molecule 49_metabolite 22
  CDK     0516241031

 69 72  0  0  0  0  0  0  0  0999 V2000
   -9.5737   -6.3416    0.0000 C   0  0  0  0  0  0  0  0  0  0  0  0
  -10.8723   -7.0923    0.0000 H   0  0  0  0  0  0  0  0  0  0  0  0
   -8.0966   -6.0805    0.0000 H   0  0  0  0  0  0  0  0  0  0  0  0
   -9.0600   -7.7509    0.0000 H   0  0  0  0  0  0  0  0  0  0  0  0
   -9.5744   -4.8416    0.0000 C   0  0  0  0  0  0  0  0  0  0  0  0
  -12.4695   -5.3536    0.0000 C   0  0  0  0  0  0  0  0  0  0  0  0
  -12.9818   -6.7633    0.0000 H   0  0  0  0  0  0  0  0  0  0  0  0
  -13.9468   -5.0938    0.0000 H   0  0  0  0  0  0  0  0  0  0  0  0
  -12.4702   -3.8536    0.0000 H   0  0  0  0  0  0  0  0  0  0  0  0
  -10.0881   -3.4323    0.0000 C   0  0  0  0  0  0  0  0  0  0  0  0
   -9.1245   -2.2828    0.0000 H   0  0  0  0  0  0  0  0  0  0  0  0
  -11.0528   -2.2837    0.0000 H   0  0  0  0  0  0  0  0  0  0  0  0
  -11.3868   -4.1830    0.0000 H   0  0  0  0  0  0  0  0  0  0  0  0
   -7.4446   -3.6106    0.0000 C   0  0  0  0  0  0  0  0  0  0  0  0
   -7.4450   -2.1098    0.0000 C   0  0  0  0  0  0  0  0  0  0  0  0
   -8.7446   -1.3606    0.0000 H   0  0  0  0  0  0  0  0  0  0  0  0
   -6.1460   -1.3581    0.0000 C   0  0  0  0  0  0  0  0  0  0  0  0
   -6.1472    0.1419    0.0000 H   0  0  0  0  0  0  0  0  0  0  0  0
   -4.8465   -2.1073    0.0000 C   0  0  0  0  0  0  0  0  0  0  0  0
   -4.8460   -3.6081    0.0000 C   0  0  0  0  0  0  0  0  0  0  0  0
   -3.5465   -4.3573    0.0000 H   0  0  0  0  0  0  0  0  0  0  0  0
   -6.1450   -4.3598    0.0000 C   0  0  0  0  0  0  0  0  0  0  0  0
   -6.1438   -5.8598    0.0000 H   0  0  0  0  0  0  0  0  0  0  0  0
   -3.5478   -1.3567    0.0000 S   0  0  0  0  0  0  0  0  0  0  0  0
   -2.0707   -1.0955    0.0000 O   0  0  0  0  0  0  0  0  0  0  0  0
   -3.0341   -2.7660    0.0000 O   0  0  0  0  0  0  0  0  0  0  0  0
   -3.5485    0.1433    0.0000 N   0  0  0  0  0  0  0  0  0  0  0  0
   -4.8479    0.8927    0.0000 H   0  0  0  0  0  0  0  0  0  0  0  0
   -2.2499    0.8940    0.0000 C   0  0  0  0  0  0  0  0  0  0  0  0
   -0.9496    0.1444    0.0000 N   0  0  0  0  0  0  0  0  0  0  0  0
    0.3501    0.8948    0.0000 C   0  0  0  0  0  0  0  0  0  0  0  0
    0.3497    2.3948    0.0000 N   0  0  0  0  0  0  0  0  0  0  0  0
   -0.9506    3.1444    0.0000 C   0  0  0  0  0  0  0  0  0  0  0  0
   -2.2503    2.3940    0.0000 C   0  0  0  0  0  0  0  0  0  0  0  0
   -4.3810    3.6236    0.0000 O   0  0  0  0  0  0  0  0  0  0  0  0
   -4.3812    5.1236    0.0000 C   0  0  0  0  0  0  0  0  0  0  0  0
   -5.6801    5.8756    0.0000 C   0  0  0  0  0  0  0  0  0  0  0  0
   -5.6778    7.3756    0.0000 C   0  0  0  0  0  0  0  0  0  0  0  0
   -6.9756    8.1278    0.0000 H   0  0  0  0  0  0  0  0  0  0  0  0
   -4.3766    8.1236    0.0000 C   0  0  0  0  0  0  0  0  0  0  0  0
   -4.3719    9.6236    0.0000 H   0  0  0  0  0  0  0  0  0  0  0  0
   -3.0878    7.3717    0.0000 C   0  0  0  0  0  0  0  0  0  0  0  0
   -1.7865    8.1177    0.0000 H   0  0  0  0  0  0  0  0  0  0  0  0
   -3.0901    5.8717    0.0000 C   0  0  0  0  0  0  0  0  0  0  0  0
   -1.7910    5.1217    0.0000 H   0  0  0  0  0  0  0  0  0  0  0  0
   -6.9801    5.1273    0.0000 O   0  0  0  0  0  0  0  0  0  0  0  0
   -8.2781    5.8791    0.0000 C   0  0  0  0  0  0  0  0  0  0  0  0
   -8.2761    7.3791    0.0000 H   0  0  0  0  0  0  0  0  0  0  0  0
   -9.7550    6.1416    0.0000 H   0  0  0  0  0  0  0  0  0  0  0  0
   -8.7931    4.4703    0.0000 H   0  0  0  0  0  0  0  0  0  0  0  0
   -0.9511    4.6444    0.0000 O   0  0  0  0  0  0  0  0  0  0  0  0
    0.3477    5.3948    0.0000 C   0  0  0  0  0  0  0  0  0  0  0  0
    1.8249    5.6557    0.0000 H   0  0  0  0  0  0  0  0  0  0  0  0
    0.3473    6.8948    0.0000 C   0  0  0  0  0  0  0  0  0  0  0  0
   -1.1299    6.6339    0.0000 H   0  0  0  0  0  0  0  0  0  0  0  0
   -0.1662    8.3042    0.0000 H   0  0  0  0  0  0  0  0  0  0  0  0
    1.6461    7.6452    0.0000 O   0  0  0  0  0  0  0  0  0  0  0  0
    1.6456    9.1452    0.0000 H   0  0  0  0  0  0  0  0  0  0  0  0
    0.8612    3.9854    0.0000 O   0  0  0  0  0  0  0  0  0  0  0  0
    2.3385    3.7254    0.0000 H   0  0  0  0  0  0  0  0  0  0  0  0
    1.6493    0.1450    0.0000 C   0  0  0  0  0  0  0  0  0  0  0  0
    2.9491    0.8954    0.0000 N   0  0  0  0  0  0  0  0  0  0  0  0
    4.2493    0.1458    0.0000 C   0  0  0  0  0  0  0  0  0  0  0  0
    5.5480    0.8965    0.0000 H   0  0  0  0  0  0  0  0  0  0  0  0
    4.2498   -1.3542    0.0000 C   0  0  0  0  0  0  0  0  0  0  0  0
    5.5489   -2.1040    0.0000 H   0  0  0  0  0  0  0  0  0  0  0  0
    2.9500   -2.1046    0.0000 C   0  0  0  0  0  0  0  0  0  0  0  0
    2.9505   -3.6046    0.0000 H   0  0  0  0  0  0  0  0  0  0  0  0
    1.6498   -1.3550    0.0000 N   0  0  0  0  0  0  0  0  0  0  0  0
  1  2  1  0  0  0  0 
  1  3  1  0  0  0  0 
  1  4  1  0  0  0  0 
  1  5  1  0  0  0  0 
  5  6  1  0  0  0  0 
  6  7  1  0  0  0  0 
  6  8  1  0  0  0  0 
  6  9  1  0  0  0  0 
  5 10  1  0  0  0  0 
 10 11  1  0  0  0  0 
 10 12  1  0  0  0  0 
 10 13  1  0  0  0  0 
  5 14  1  0  0  0  0 
 14 15  2  0  0  0  0 
 15 16  1  0  0  0  0 
 15 17  1  0  0  0  0 
 17 18  1  0  0  0  0 
 17 19  2  0  0  0  0 
 19 20  1  0  0  0  0 
 20 21  1  0  0  0  0 
 20 22  2  0  0  0  0 
 14 22  1  0  0  0  0 
 22 23  1  0  0  0  0 
 19 24  1  0  0  0  0 
 24 25  2  0  0  0  0 
 24 26  2  0  0  0  0 
 24 27  1  0  0  0  0 
 27 28  1  0  0  0  0 
 27 29  1  0  0  0  0 
 29 30  2  0  0  0  0 
 30 31  1  0  0  0  0 
 31 32  2  0  0  0  0 
 32 33  1  0  0  0  0 
 33 34  2  0  0  0  0 
 29 34  1  0  0  0  0 
 34 35  1  0  0  0  0 
 35 36  1  0  0  0  0 
 36 37  2  0  0  0  0 
 37 38  1  0  0  0  0 
 38 39  1  0  0  0  0 
 38 40  2  0  0  0  0 
 40 41  1  0  0  0  0 
 40 42  1  0  0  0  0 
 42 43  1  0  0  0  0 
 42 44  2  0  0  0  0 
 36 44  1  0  0  0  0 
 44 45  1  0  0  0  0 
 37 46  1  0  0  0  0 
 46 47  1  0  0  0  0 
 47 48  1  0  0  0  0 
 47 49  1  0  0  0  0 
 47 50  1  0  0  0  0 
 33 51  1  0  0  0  0 
 51 52  1  0  0  0  0 
 52 53  1  0  0  0  0 
 52 54  1  0  0  0  0 
 54 55  1  0  0  0  0 
 54 56  1  0  0  0  0 
 54 57  1  0  0  0  0 
 57 58  1  0  0  0  0 
 52 59  1  0  0  0  0 
 59 60  1  0  0  0  0 
 31 61  1  0  0  0  0 
 61 62  2  0  0  0  0 
 62 63  1  0  0  0  0 
 63 64  1  0  0  0  0 
 63 65  2  0  0  0  0 
 65 66  1  0  0  0  0 
 65 67  1  0  0  0  0 
 67 68  1  0  0  0  0 
 67 69  2  0  0  0  0 
 61 69  1  0  0  0  0 
M  END
> <Rank>
19

> <Priority_score>
0.116

> <Reaction_type>
aliphatic hydroxylation

> <Parent_ID>
49

> <Parent_InChI>
InChI=1S/C27H29N5O6S/c1-27(2,3)18-10-12-19(13-11-18)39(34,35)32-23-22(38-21-9-6-5-8-20(21)36-4)26(37-17-16-33)31-25(30-23)24-28-14-7-15-29-24/h5-15,33H,16-17H2,1-4H3,(H,30,31,32)

> <Parent_SMILES>
COc1ccccc1Oc1c(NS(=O)(=O)c2ccc(C(C)(C)C)cc2)nc(-c2ncccn2)nc1OCCO

$$$$
Molecule 49_metabolite 23
  CDK     0516241031

 69 72  0  0  0  0  0  0  0  0999 V2000
    2.0138    8.6758    0.0000 C   0  0  0  0  0  0  0  0  0  0  0  0
    3.3125    9.4265    0.0000 H   0  0  0  0  0  0  0  0  0  0  0  0
    0.5368    8.4146    0.0000 H   0  0  0  0  0  0  0  0  0  0  0  0
    1.5001   10.0851    0.0000 H   0  0  0  0  0  0  0  0  0  0  0  0
    2.0146    7.1758    0.0000 C   0  0  0  0  0  0  0  0  0  0  0  0
    3.4916    7.4370    0.0000 C   0  0  0  0  0  0  0  0  0  0  0  0
    4.0040    8.8468    0.0000 H   0  0  0  0  0  0  0  0  0  0  0  0
    4.9690    7.1772    0.0000 H   0  0  0  0  0  0  0  0  0  0  0  0
    3.4924    5.9370    0.0000 H   0  0  0  0  0  0  0  0  0  0  0  0
    2.6927    5.3156    0.0000 C   0  0  0  0  0  0  0  0  0  0  0  0
    4.1700    5.0558    0.0000 H   0  0  0  0  0  0  0  0  0  0  0  0
    2.6934    3.8156    0.0000 H   0  0  0  0  0  0  0  0  0  0  0  0
    1.2156    5.0544    0.0000 H   0  0  0  0  0  0  0  0  0  0  0  0
    0.3003    6.1850    0.0000 C   0  0  0  0  0  0  0  0  0  0  0  0
    0.3008    4.6842    0.0000 C   0  0  0  0  0  0  0  0  0  0  0  0
    1.6003    3.9350    0.0000 H   0  0  0  0  0  0  0  0  0  0  0  0
   -0.9983    3.9325    0.0000 C   0  0  0  0  0  0  0  0  0  0  0  0
   -0.9971    2.4325    0.0000 H   0  0  0  0  0  0  0  0  0  0  0  0
   -2.2978    4.6817    0.0000 C   0  0  0  0  0  0  0  0  0  0  0  0
   -2.2983    6.1825    0.0000 C   0  0  0  0  0  0  0  0  0  0  0  0
   -3.5978    6.9317    0.0000 H   0  0  0  0  0  0  0  0  0  0  0  0
   -0.9992    6.9342    0.0000 C   0  0  0  0  0  0  0  0  0  0  0  0
   -1.0004    8.4342    0.0000 H   0  0  0  0  0  0  0  0  0  0  0  0
   -3.5964    3.9310    0.0000 S   0  0  0  0  0  0  0  0  0  0  0  0
   -5.0735    3.6699    0.0000 O   0  0  0  0  0  0  0  0  0  0  0  0
   -4.1102    5.3403    0.0000 O   0  0  0  0  0  0  0  0  0  0  0  0
   -3.5957    2.4310    0.0000 N   0  0  0  0  0  0  0  0  0  0  0  0
   -2.2963    1.6817    0.0000 H   0  0  0  0  0  0  0  0  0  0  0  0
   -4.8944    1.6804    0.0000 C   0  0  0  0  0  0  0  0  0  0  0  0
   -6.1946    2.4300    0.0000 N   0  0  0  0  0  0  0  0  0  0  0  0
   -7.4944    1.6796    0.0000 C   0  0  0  0  0  0  0  0  0  0  0  0
   -7.4939    0.1796    0.0000 N   0  0  0  0  0  0  0  0  0  0  0  0
   -6.1937   -0.5700    0.0000 C   0  0  0  0  0  0  0  0  0  0  0  0
   -4.8939    0.1804    0.0000 C   0  0  0  0  0  0  0  0  0  0  0  0
   -2.7633   -1.0492    0.0000 O   0  0  0  0  0  0  0  0  0  0  0  0
   -2.7631   -2.5492    0.0000 C   0  0  0  0  0  0  0  0  0  0  0  0
   -1.4642   -3.3012    0.0000 C   0  0  0  0  0  0  0  0  0  0  0  0
   -1.4665   -4.8012    0.0000 C   0  0  0  0  0  0  0  0  0  0  0  0
   -0.1687   -5.5534    0.0000 H   0  0  0  0  0  0  0  0  0  0  0  0
   -2.7676   -5.5492    0.0000 C   0  0  0  0  0  0  0  0  0  0  0  0
   -2.7724   -7.0492    0.0000 H   0  0  0  0  0  0  0  0  0  0  0  0
   -4.0565   -4.7973    0.0000 C   0  0  0  0  0  0  0  0  0  0  0  0
   -5.3578   -5.5433    0.0000 H   0  0  0  0  0  0  0  0  0  0  0  0
   -4.0542   -3.2973    0.0000 C   0  0  0  0  0  0  0  0  0  0  0  0
   -5.3532   -2.5473    0.0000 H   0  0  0  0  0  0  0  0  0  0  0  0
   -0.1641   -2.5530    0.0000 O   0  0  0  0  0  0  0  0  0  0  0  0
    1.1339   -3.3047    0.0000 C   0  0  0  0  0  0  0  0  0  0  0  0
    1.1318   -4.8047    0.0000 H   0  0  0  0  0  0  0  0  0  0  0  0
    2.6107   -3.5672    0.0000 H   0  0  0  0  0  0  0  0  0  0  0  0
    1.6488   -1.8959    0.0000 H   0  0  0  0  0  0  0  0  0  0  0  0
   -6.1932   -2.0700    0.0000 O   0  0  0  0  0  0  0  0  0  0  0  0
   -7.4920   -2.8204    0.0000 C   0  0  0  0  0  0  0  0  0  0  0  0
   -8.9691   -3.0814    0.0000 H   0  0  0  0  0  0  0  0  0  0  0  0
   -8.0055   -1.4110    0.0000 H   0  0  0  0  0  0  0  0  0  0  0  0
   -7.4915   -4.3204    0.0000 C   0  0  0  0  0  0  0  0  0  0  0  0
   -6.0144   -4.0595    0.0000 H   0  0  0  0  0  0  0  0  0  0  0  0
   -6.9780   -5.7298    0.0000 H   0  0  0  0  0  0  0  0  0  0  0  0
   -8.7903   -5.0708    0.0000 O   0  0  0  0  0  0  0  0  0  0  0  0
   -8.7898   -6.5708    0.0000 H   0  0  0  0  0  0  0  0  0  0  0  0
   -8.7926   -0.5710    0.0000 O   0  0  0  0  0  0  0  0  0  0  0  0
   -8.7936    2.4294    0.0000 C   0  0  0  0  0  0  0  0  0  0  0  0
  -10.0933    1.6790    0.0000 N   0  0  0  0  0  0  0  0  0  0  0  0
  -11.3936    2.4285    0.0000 C   0  0  0  0  0  0  0  0  0  0  0  0
  -12.6922    1.6779    0.0000 H   0  0  0  0  0  0  0  0  0  0  0  0
  -11.3940    3.9285    0.0000 C   0  0  0  0  0  0  0  0  0  0  0  0
  -12.6932    4.6783    0.0000 H   0  0  0  0  0  0  0  0  0  0  0  0
  -10.0943    4.6790    0.0000 C   0  0  0  0  0  0  0  0  0  0  0  0
  -10.0948    6.1790    0.0000 H   0  0  0  0  0  0  0  0  0  0  0  0
   -8.7940    3.9294    0.0000 N   0  0  0  0  0  0  0  0  0  0  0  0
  1  2  1  0  0  0  0 
  1  3  1  0  0  0  0 
  1  4  1  0  0  0  0 
  1  5  1  0  0  0  0 
  5  6  1  0  0  0  0 
  6  7  1  0  0  0  0 
  6  8  1  0  0  0  0 
  6  9  1  0  0  0  0 
  5 10  1  0  0  0  0 
 10 11  1  0  0  0  0 
 10 12  1  0  0  0  0 
 10 13  1  0  0  0  0 
  5 14  1  0  0  0  0 
 14 15  2  0  0  0  0 
 15 16  1  0  0  0  0 
 15 17  1  0  0  0  0 
 17 18  1  0  0  0  0 
 17 19  2  0  0  0  0 
 19 20  1  0  0  0  0 
 20 21  1  0  0  0  0 
 20 22  2  0  0  0  0 
 14 22  1  0  0  0  0 
 22 23  1  0  0  0  0 
 19 24  1  0  0  0  0 
 24 25  2  0  0  0  0 
 24 26  2  0  0  0  0 
 24 27  1  0  0  0  0 
 27 28  1  0  0  0  0 
 27 29  1  0  0  0  0 
 29 30  2  0  0  0  0 
 30 31  1  0  0  0  0 
 31 32  2  0  0  0  0 
 32 33  1  0  0  0  0 
 33 34  2  0  0  0  0 
 29 34  1  0  0  0  0 
 34 35  1  0  0  0  0 
 35 36  1  0  0  0  0 
 36 37  2  0  0  0  0 
 37 38  1  0  0  0  0 
 38 39  1  0  0  0  0 
 38 40  2  0  0  0  0 
 40 41  1  0  0  0  0 
 40 42  1  0  0  0  0 
 42 43  1  0  0  0  0 
 42 44  2  0  0  0  0 
 36 44  1  0  0  0  0 
 44 45  1  0  0  0  0 
 37 46  1  0  0  0  0 
 46 47  1  0  0  0  0 
 47 48  1  0  0  0  0 
 47 49  1  0  0  0  0 
 47 50  1  0  0  0  0 
 33 51  1  0  0  0  0 
 51 52  1  0  0  0  0 
 52 53  1  0  0  0  0 
 52 54  1  0  0  0  0 
 52 55  1  0  0  0  0 
 55 56  1  0  0  0  0 
 55 57  1  0  0  0  0 
 55 58  1  0  0  0  0 
 58 59  1  0  0  0  0 
 32 60  1  0  0  0  0 
 31 61  1  0  0  0  0 
 61 62  2  0  0  0  0 
 62 63  1  0  0  0  0 
 63 64  1  0  0  0  0 
 63 65  2  0  0  0  0 
 65 66  1  0  0  0  0 
 65 67  1  0  0  0  0 
 67 68  1  0  0  0  0 
 67 69  2  0  0  0  0 
 61 69  1  0  0  0  0 
M  CHG  1  32   1
M  CHG  1  60  -1
M  END
> <Rank>
23

> <Priority_score>
0.096

> <Reaction_type>
N-oxidation_(-N=)

> <Parent_ID>
49

> <Parent_InChI>
InChI=1S/C27H29N5O6S/c1-27(2,3)18-10-12-19(13-11-18)39(34,35)32-23-22(38-21-9-6-5-8-20(21)36-4)26(37-17-16-33)31-25(30-23)24-28-14-7-15-29-24/h5-15,33H,16-17H2,1-4H3,(H,30,31,32)

> <Parent_SMILES>
COc1ccccc1Oc1c(NS(=O)(=O)c2ccc(C(C)(C)C)cc2)nc(-c2ncccn2)nc1OCCO

$$$$
Molecule 49_metabolite 24
  CDK     0516241031

 29 29  0  0  0  0  0  0  0  0999 V2000
   -3.3496   -0.6818    0.0000 C   0  0  0  0  0  0  0  0  0  0  0  0
   -4.6486   -1.4321    0.0000 H   0  0  0  0  0  0  0  0  0  0  0  0
   -2.3857    0.4674    0.0000 H   0  0  0  0  0  0  0  0  0  0  0  0
   -4.3140    0.4671    0.0000 H   0  0  0  0  0  0  0  0  0  0  0  0
   -2.0505   -1.4316    0.0000 C   0  0  0  0  0  0  0  0  0  0  0  0
   -3.9399   -3.6841    0.0000 C   0  0  0  0  0  0  0  0  0  0  0  0
   -5.4172   -3.4239    0.0000 H   0  0  0  0  0  0  0  0  0  0  0  0
   -4.4527   -5.0937    0.0000 H   0  0  0  0  0  0  0  0  0  0  0  0
   -2.6408   -4.4339    0.0000 H   0  0  0  0  0  0  0  0  0  0  0  0
   -1.0861   -2.5806    0.0000 C   0  0  0  0  0  0  0  0  0  0  0  0
    0.3910   -2.3198    0.0000 H   0  0  0  0  0  0  0  0  0  0  0  0
   -0.5729   -3.9900    0.0000 H   0  0  0  0  0  0  0  0  0  0  0  0
   -3.0360   -2.9247    0.0000 H   0  0  0  0  0  0  0  0  0  0  0  0
    0.0797   -0.2013    0.0000 C   0  0  0  0  0  0  0  0  0  0  0  0
    1.3797   -0.9513    0.0000 C   0  0  0  0  0  0  0  0  0  0  0  0
    1.3797   -2.4513    0.0000 H   0  0  0  0  0  0  0  0  0  0  0  0
    2.6797   -0.2013    0.0000 C   0  0  0  0  0  0  0  0  0  0  0  0
    3.9787   -0.9515    0.0000 H   0  0  0  0  0  0  0  0  0  0  0  0
    2.6797    1.2987    0.0000 C   0  0  0  0  0  0  0  0  0  0  0  0
    1.3797    2.0487    0.0000 C   0  0  0  0  0  0  0  0  0  0  0  0
    1.3797    3.5487    0.0000 H   0  0  0  0  0  0  0  0  0  0  0  0
    0.0797    1.2987    0.0000 C   0  0  0  0  0  0  0  0  0  0  0  0
   -1.2192    2.0489    0.0000 H   0  0  0  0  0  0  0  0  0  0  0  0
    3.9787    2.0489    0.0000 S   0  0  0  0  0  0  0  0  0  0  0  0
    4.4919    0.6395    0.0000 O   0  0  0  0  0  0  0  0  0  0  0  0
    5.4558    2.3096    0.0000 O   0  0  0  0  0  0  0  0  0  0  0  0
    3.9784    3.5489    0.0000 N   0  0  0  0  0  0  0  0  0  0  0  0
    5.2773    4.2991    0.0000 H   0  0  0  0  0  0  0  0  0  0  0  0
    2.6793    4.2987    0.0000 H   0  0  0  0  0  0  0  0  0  0  0  0
  1  2  1  0  0  0  0 
  1  3  1  0  0  0  0 
  1  4  1  0  0  0  0 
  1  5  1  0  0  0  0 
  5  6  1  0  0  0  0 
  6  7  1  0  0  0  0 
  6  8  1  0  0  0  0 
  6  9  1  0  0  0  0 
  5 10  1  0  0  0  0 
 10 11  1  0  0  0  0 
 10 12  1  0  0  0  0 
 10 13  1  0  0  0  0 
  5 14  1  0  0  0  0 
 14 15  2  0  0  0  0 
 15 16  1  0  0  0  0 
 15 17  1  0  0  0  0 
 17 18  1  0  0  0  0 
 17 19  2  0  0  0  0 
 19 20  1  0  0  0  0 
 20 21  1  0  0  0  0 
 20 22  2  0  0  0  0 
 14 22  1  0  0  0  0 
 22 23  1  0  0  0  0 
 19 24  1  0  0  0  0 
 24 25  2  0  0  0  0 
 24 26  2  0  0  0  0 
 24 27  1  0  0  0  0 
 27 28  1  0  0  0  0 
 27 29  1  0  0  0  0 
M  END
> <Rank>
23

> <Priority_score>
0.096

> <Reaction_type>
oxidative_deamination_(aromatic)

> <Parent_ID>
49

> <Parent_InChI>
InChI=1S/C27H29N5O6S/c1-27(2,3)18-10-12-19(13-11-18)39(34,35)32-23-22(38-21-9-6-5-8-20(21)36-4)26(37-17-16-33)31-25(30-23)24-28-14-7-15-29-24/h5-15,33H,16-17H2,1-4H3,(H,30,31,32)

> <Parent_SMILES>
COc1ccccc1Oc1c(NS(=O)(=O)c2ccc(C(C)(C)C)cc2)nc(-c2ncccn2)nc1OCCO

$$$$
Molecule 49_metabolite 25
  CDK     0516241031

 42 44  0  0  0  0  0  0  0  0999 V2000
    2.5998    6.0044    0.0000 C   0  0  0  0  0  0  0  0  0  0  0  0
    2.6018    7.5043    0.0000 H   0  0  0  0  0  0  0  0  0  0  0  0
    2.0848    4.5955    0.0000 H   0  0  0  0  0  0  0  0  0  0  0  0
    1.1229    6.2668    0.0000 H   0  0  0  0  0  0  0  0  0  0  0  0
    3.8978    5.2526    0.0000 O   0  0  0  0  0  0  0  0  0  0  0  0
    5.1978    6.0008    0.0000 C   0  0  0  0  0  0  0  0  0  0  0  0
    6.4976    5.2504    0.0000 C   0  0  0  0  0  0  0  0  0  0  0  0
    7.7964    6.0008    0.0000 C   0  0  0  0  0  0  0  0  0  0  0  0
    9.0958    5.2515    0.0000 H   0  0  0  0  0  0  0  0  0  0  0  0
    7.7954    7.5017    0.0000 C   0  0  0  0  0  0  0  0  0  0  0  0
    9.0930    8.2543    0.0000 H   0  0  0  0  0  0  0  0  0  0  0  0
    6.5007    8.2434    0.0000 C   0  0  0  0  0  0  0  0  0  0  0  0
    6.4979    9.7434    0.0000 H   0  0  0  0  0  0  0  0  0  0  0  0
    5.2019    7.4930    0.0000 C   0  0  0  0  0  0  0  0  0  0  0  0
    3.9037    8.2446    0.0000 H   0  0  0  0  0  0  0  0  0  0  0  0
    6.4978    3.7504    0.0000 O   0  0  0  0  0  0  0  0  0  0  0  0
    8.6285    2.5208    0.0000 C   0  0  0  0  0  0  0  0  0  0  0  0
    8.6289    1.0208    0.0000 C   0  0  0  0  0  0  0  0  0  0  0  0
    9.9292    0.2712    0.0000 N   0  0  0  0  0  0  0  0  0  0  0  0
   11.2289    1.0216    0.0000 C   0  0  0  0  0  0  0  0  0  0  0  0
   12.5281    0.2718    0.0000 C   0  0  0  0  0  0  0  0  0  0  0  0
   13.8279    1.0222    0.0000 N   0  0  0  0  0  0  0  0  0  0  0  0
   15.1281    0.2726    0.0000 C   0  0  0  0  0  0  0  0  0  0  0  0
   16.4268    1.0233    0.0000 H   0  0  0  0  0  0  0  0  0  0  0  0
   15.1286   -1.2274    0.0000 C   0  0  0  0  0  0  0  0  0  0  0  0
   16.4277   -1.9772    0.0000 H   0  0  0  0  0  0  0  0  0  0  0  0
   13.8288   -1.9778    0.0000 C   0  0  0  0  0  0  0  0  0  0  0  0
   13.8293   -3.4778    0.0000 H   0  0  0  0  0  0  0  0  0  0  0  0
   12.5286   -1.2282    0.0000 N   0  0  0  0  0  0  0  0  0  0  0  0
   11.2285    2.5216    0.0000 N   0  0  0  0  0  0  0  0  0  0  0  0
   12.5271    3.2722    0.0000 H   0  0  0  0  0  0  0  0  0  0  0  0
    9.9282    3.2712    0.0000 C   0  0  0  0  0  0  0  0  0  0  0  0
    9.9277    4.7712    0.0000 O   0  0  0  0  0  0  0  0  0  0  0  0
    7.3303    0.2701    0.0000 O   0  0  0  0  0  0  0  0  0  0  0  0
    7.3310   -1.2299    0.0000 C   0  0  0  0  0  0  0  0  0  0  0  0
    7.8447   -2.6392    0.0000 H   0  0  0  0  0  0  0  0  0  0  0  0
    8.8081   -0.9687    0.0000 H   0  0  0  0  0  0  0  0  0  0  0  0
    6.0323   -1.9805    0.0000 C   0  0  0  0  0  0  0  0  0  0  0  0
    5.5186   -0.5712    0.0000 H   0  0  0  0  0  0  0  0  0  0  0  0
    4.5552   -2.2417    0.0000 H   0  0  0  0  0  0  0  0  0  0  0  0
    6.0330   -3.4805    0.0000 O   0  0  0  0  0  0  0  0  0  0  0  0
    4.7343   -4.2311    0.0000 H   0  0  0  0  0  0  0  0  0  0  0  0
  1  2  1  0  0  0  0 
  1  3  1  0  0  0  0 
  1  4  1  0  0  0  0 
  1  5  1  0  0  0  0 
  5  6  1  0  0  0  0 
  6  7  2  0  0  0  0 
  7  8  1  0  0  0  0 
  8  9  1  0  0  0  0 
  8 10  2  0  0  0  0 
 10 11  1  0  0  0  0 
 10 12  1  0  0  0  0 
 12 13  1  0  0  0  0 
 12 14  2  0  0  0  0 
  6 14  1  0  0  0  0 
 14 15  1  0  0  0  0 
  7 16  1  0  0  0  0 
 16 17  1  0  0  0  0 
 17 18  2  0  0  0  0 
 18 19  1  0  0  0  0 
 19 20  2  0  0  0  0 
 20 21  1  0  0  0  0 
 21 22  2  0  0  0  0 
 22 23  1  0  0  0  0 
 23 24  1  0  0  0  0 
 23 25  2  0  0  0  0 
 25 26  1  0  0  0  0 
 25 27  1  0  0  0  0 
 27 28  1  0  0  0  0 
 27 29  2  0  0  0  0 
 21 29  1  0  0  0  0 
 20 30  1  0  0  0  0 
 30 31  1  0  0  0  0 
 30 32  1  0  0  0  0 
 17 32  1  0  0  0  0 
 32 33  2  0  0  0  0 
 18 34  1  0  0  0  0 
 34 35  1  0  0  0  0 
 35 36  1  0  0  0  0 
 35 37  1  0  0  0  0 
 35 38  1  0  0  0  0 
 38 39  1  0  0  0  0 
 38 40  1  0  0  0  0 
 38 41  1  0  0  0  0 
 41 42  1  0  0  0  0 
M  END
> <Rank>
23

> <Priority_score>
0.096

> <Reaction_type>
oxidative_deamination_(aromatic)

> <Parent_ID>
49

> <Parent_InChI>
InChI=1S/C27H29N5O6S/c1-27(2,3)18-10-12-19(13-11-18)39(34,35)32-23-22(38-21-9-6-5-8-20(21)36-4)26(37-17-16-33)31-25(30-23)24-28-14-7-15-29-24/h5-15,33H,16-17H2,1-4H3,(H,30,31,32)

> <Parent_SMILES>
COc1ccccc1Oc1c(NS(=O)(=O)c2ccc(C(C)(C)C)cc2)nc(-c2ncccn2)nc1OCCO

$$$$
Molecule 49_metabolite 26
  CDK     0516241031

 89 93  0  0  0  0  0  0  0  0999 V2000
  -13.6532   -6.6258    0.0000 C   0  0  0  0  0  0  0  0  0  0  0  0
  -14.9519   -7.3764    0.0000 H   0  0  0  0  0  0  0  0  0  0  0  0
  -12.1761   -6.3646    0.0000 H   0  0  0  0  0  0  0  0  0  0  0  0
  -13.1395   -8.0351    0.0000 H   0  0  0  0  0  0  0  0  0  0  0  0
  -13.6540   -5.1258    0.0000 C   0  0  0  0  0  0  0  0  0  0  0  0
  -16.0764   -5.5541    0.0000 C   0  0  0  0  0  0  0  0  0  0  0  0
  -16.5887   -6.9639    0.0000 H   0  0  0  0  0  0  0  0  0  0  0  0
  -17.5537   -5.2944    0.0000 H   0  0  0  0  0  0  0  0  0  0  0  0
  -16.0771   -4.0541    0.0000 H   0  0  0  0  0  0  0  0  0  0  0  0
  -14.1677   -3.7165    0.0000 C   0  0  0  0  0  0  0  0  0  0  0  0
  -15.6450   -3.4567    0.0000 H   0  0  0  0  0  0  0  0  0  0  0  0
  -14.1684   -2.2165    0.0000 H   0  0  0  0  0  0  0  0  0  0  0  0
  -12.6906   -3.4553    0.0000 H   0  0  0  0  0  0  0  0  0  0  0  0
  -11.9397   -4.1350    0.0000 C   0  0  0  0  0  0  0  0  0  0  0  0
  -11.9402   -2.6341    0.0000 C   0  0  0  0  0  0  0  0  0  0  0  0
  -13.2397   -1.8850    0.0000 H   0  0  0  0  0  0  0  0  0  0  0  0
  -10.6411   -1.8825    0.0000 C   0  0  0  0  0  0  0  0  0  0  0  0
  -10.6423   -0.3825    0.0000 H   0  0  0  0  0  0  0  0  0  0  0  0
   -9.3416   -2.6316    0.0000 C   0  0  0  0  0  0  0  0  0  0  0  0
   -9.3411   -4.1325    0.0000 C   0  0  0  0  0  0  0  0  0  0  0  0
   -8.0416   -4.8816    0.0000 H   0  0  0  0  0  0  0  0  0  0  0  0
  -10.6402   -4.8841    0.0000 C   0  0  0  0  0  0  0  0  0  0  0  0
  -10.6390   -6.3841    0.0000 H   0  0  0  0  0  0  0  0  0  0  0  0
   -8.0429   -1.8810    0.0000 S   0  0  0  0  0  0  0  0  0  0  0  0
   -6.5659   -1.6198    0.0000 O   0  0  0  0  0  0  0  0  0  0  0  0
   -7.5292   -3.2903    0.0000 O   0  0  0  0  0  0  0  0  0  0  0  0
   -8.0437   -0.3810    0.0000 N   0  0  0  0  0  0  0  0  0  0  0  0
   -9.3431    0.3684    0.0000 H   0  0  0  0  0  0  0  0  0  0  0  0
   -6.7450    0.3696    0.0000 C   0  0  0  0  0  0  0  0  0  0  0  0
   -5.4448   -0.3800    0.0000 N   0  0  0  0  0  0  0  0  0  0  0  0
   -4.1450    0.3704    0.0000 C   0  0  0  0  0  0  0  0  0  0  0  0
   -4.1455    1.8704    0.0000 N   0  0  0  0  0  0  0  0  0  0  0  0
   -5.4457    2.6200    0.0000 C   0  0  0  0  0  0  0  0  0  0  0  0
   -6.7455    1.8696    0.0000 C   0  0  0  0  0  0  0  0  0  0  0  0
   -8.8761    3.0993    0.0000 O   0  0  0  0  0  0  0  0  0  0  0  0
   -8.8763    4.5993    0.0000 C   0  0  0  0  0  0  0  0  0  0  0  0
  -10.1752    5.3512    0.0000 C   0  0  0  0  0  0  0  0  0  0  0  0
  -10.1729    6.8512    0.0000 C   0  0  0  0  0  0  0  0  0  0  0  0
  -11.4707    7.6034    0.0000 H   0  0  0  0  0  0  0  0  0  0  0  0
   -8.8718    7.5993    0.0000 C   0  0  0  0  0  0  0  0  0  0  0  0
   -8.8670    9.0993    0.0000 H   0  0  0  0  0  0  0  0  0  0  0  0
   -7.5829    6.8473    0.0000 C   0  0  0  0  0  0  0  0  0  0  0  0
   -6.2816    7.5934    0.0000 H   0  0  0  0  0  0  0  0  0  0  0  0
   -7.5852    5.3473    0.0000 C   0  0  0  0  0  0  0  0  0  0  0  0
   -6.2862    4.5973    0.0000 H   0  0  0  0  0  0  0  0  0  0  0  0
  -11.4752    4.6030    0.0000 O   0  0  0  0  0  0  0  0  0  0  0  0
  -12.7733    5.3548    0.0000 C   0  0  0  0  0  0  0  0  0  0  0  0
  -12.7712    6.8548    0.0000 H   0  0  0  0  0  0  0  0  0  0  0  0
  -14.2501    5.6172    0.0000 H   0  0  0  0  0  0  0  0  0  0  0  0
  -13.2882    3.9459    0.0000 H   0  0  0  0  0  0  0  0  0  0  0  0
   -5.4462    4.1200    0.0000 O   0  0  0  0  0  0  0  0  0  0  0  0
   -4.1474    4.8704    0.0000 C   0  0  0  0  0  0  0  0  0  0  0  0
   -2.6703    5.1314    0.0000 H   0  0  0  0  0  0  0  0  0  0  0  0
   -3.6339    3.4611    0.0000 H   0  0  0  0  0  0  0  0  0  0  0  0
   -4.1479    6.3704    0.0000 C   0  0  0  0  0  0  0  0  0  0  0  0
   -5.6250    6.1095    0.0000 H   0  0  0  0  0  0  0  0  0  0  0  0
   -4.6614    7.7798    0.0000 H   0  0  0  0  0  0  0  0  0  0  0  0
   -2.8491    7.1209    0.0000 O   0  0  0  0  0  0  0  0  0  0  0  0
   -2.8496    8.6209    0.0000 H   0  0  0  0  0  0  0  0  0  0  0  0
   -2.0144   -0.8592    0.0000 C   0  0  0  0  0  0  0  0  0  0  0  0
   -0.7146   -0.1088    0.0000 N   0  0  0  0  0  0  0  0  0  0  0  0
    0.5856   -0.8584    0.0000 C   0  0  0  0  0  0  0  0  0  0  0  0
    1.8843   -0.1078    0.0000 H   0  0  0  0  0  0  0  0  0  0  0  0
    0.5861   -2.3584    0.0000 C   0  0  0  0  0  0  0  0  0  0  0  0
    1.8853   -3.1082    0.0000 H   0  0  0  0  0  0  0  0  0  0  0  0
   -0.7137   -3.1088    0.0000 C   0  0  0  0  0  0  0  0  0  0  0  0
   -0.7132   -4.6088    0.0000 H   0  0  0  0  0  0  0  0  0  0  0  0
   -2.0139   -2.3592    0.0000 N   0  0  0  0  0  0  0  0  0  0  0  0
   -0.7151    1.3912    0.0000 C   0  0  0  0  0  0  0  0  0  0  0  0
   -2.1923    1.1304    0.0000 H   0  0  0  0  0  0  0  0  0  0  0  0
   -1.2283    2.8007    0.0000 C   0  0  0  0  0  0  0  0  0  0  0  0
   -2.5273    2.0507    0.0000 H   0  0  0  0  0  0  0  0  0  0  0  0
   -0.2633    3.9502    0.0000 C   0  0  0  0  0  0  0  0  0  0  0  0
   -1.5624    4.7002    0.0000 H   0  0  0  0  0  0  0  0  0  0  0  0
    1.2148    3.6902    0.0000 C   0  0  0  0  0  0  0  0  0  0  0  0
    1.2143    5.1902    0.0000 H   0  0  0  0  0  0  0  0  0  0  0  0
    1.7280    2.2807    0.0000 C   0  0  0  0  0  0  0  0  0  0  0  0
    3.0270    3.0307    0.0000 H   0  0  0  0  0  0  0  0  0  0  0  0
    3.0006    0.7638    0.0000 C   0  0  0  0  0  0  0  0  0  0  0  0
    2.4874   -0.6457    0.0000 O   0  0  0  0  0  0  0  0  0  0  0  0
    4.4778    1.0241    0.0000 O   0  0  0  0  0  0  0  0  0  0  0  0
    5.4419   -0.1250    0.0000 H   0  0  0  0  0  0  0  0  0  0  0  0
    0.7630    1.1312    0.0000 O   0  0  0  0  0  0  0  0  0  0  0  0
    2.6920    3.9510    0.0000 O   0  0  0  0  0  0  0  0  0  0  0  0
    3.2047    5.3606    0.0000 H   0  0  0  0  0  0  0  0  0  0  0  0
    0.2494    5.3598    0.0000 O   0  0  0  0  0  0  0  0  0  0  0  0
   -0.7150    6.5087    0.0000 H   0  0  0  0  0  0  0  0  0  0  0  0
   -2.1923    3.9499    0.0000 O   0  0  0  0  0  0  0  0  0  0  0  0
   -1.6792    5.3593    0.0000 H   0  0  0  0  0  0  0  0  0  0  0  0
  1  2  1  0  0  0  0 
  1  3  1  0  0  0  0 
  1  4  1  0  0  0  0 
  1  5  1  0  0  0  0 
  5  6  1  0  0  0  0 
  6  7  1  0  0  0  0 
  6  8  1  0  0  0  0 
  6  9  1  0  0  0  0 
  5 10  1  0  0  0  0 
 10 11  1  0  0  0  0 
 10 12  1  0  0  0  0 
 10 13  1  0  0  0  0 
  5 14  1  0  0  0  0 
 14 15  2  0  0  0  0 
 15 16  1  0  0  0  0 
 15 17  1  0  0  0  0 
 17 18  1  0  0  0  0 
 17 19  2  0  0  0  0 
 19 20  1  0  0  0  0 
 20 21  1  0  0  0  0 
 20 22  2  0  0  0  0 
 14 22  1  0  0  0  0 
 22 23  1  0  0  0  0 
 19 24  1  0  0  0  0 
 24 25  2  0  0  0  0 
 24 26  2  0  0  0  0 
 24 27  1  0  0  0  0 
 27 28  1  0  0  0  0 
 27 29  1  0  0  0  0 
 29 30  2  0  0  0  0 
 30 31  1  0  0  0  0 
 31 32  2  0  0  0  0 
 32 33  1  0  0  0  0 
 33 34  2  0  0  0  0 
 29 34  1  0  0  0  0 
 34 35  1  0  0  0  0 
 35 36  1  0  0  0  0 
 36 37  2  0  0  0  0 
 37 38  1  0  0  0  0 
 38 39  1  0  0  0  0 
 38 40  2  0  0  0  0 
 40 41  1  0  0  0  0 
 40 42  1  0  0  0  0 
 42 43  1  0  0  0  0 
 42 44  2  0  0  0  0 
 36 44  1  0  0  0  0 
 44 45  1  0  0  0  0 
 37 46  1  0  0  0  0 
 46 47  1  0  0  0  0 
 47 48  1  0  0  0  0 
 47 49  1  0  0  0  0 
 47 50  1  0  0  0  0 
 33 51  1  0  0  0  0 
 51 52  1  0  0  0  0 
 52 53  1  0  0  0  0 
 52 54  1  0  0  0  0 
 52 55  1  0  0  0  0 
 55 56  1  0  0  0  0 
 55 57  1  0  0  0  0 
 55 58  1  0  0  0  0 
 58 59  1  0  0  0  0 
 31 60  1  0  0  0  0 
 60 61  2  0  0  0  0 
 61 62  1  0  0  0  0 
 62 63  1  0  0  0  0 
 62 64  2  0  0  0  0 
 64 65  1  0  0  0  0 
 64 66  1  0  0  0  0 
 66 67  1  0  0  0  0 
 66 68  2  0  0  0  0 
 60 68  1  0  0  0  0 
 61 69  1  0  0  0  0 
 69 70  1  0  0  0  0 
 69 71  1  0  0  0  0 
 71 72  1  0  0  0  0 
 71 73  1  0  0  0  0 
 73 74  1  0  0  0  0 
 73 75  1  0  0  0  0 
 75 76  1  0  0  0  0 
 75 77  1  0  0  0  0 
 77 78  1  0  0  0  0 
 77 79  1  0  0  0  0 
 79 80  2  0  0  0  0 
 79 81  1  0  0  0  0 
 81 82  1  0  0  0  0 
 77 83  1  0  0  0  0 
 69 83  1  0  0  0  0 
 75 84  1  0  0  0  0 
 84 85  1  0  0  0  0 
 73 86  1  0  0  0  0 
 86 87  1  0  0  0  0 
 71 88  1  0  0  0  0 
 88 89  1  0  0  0  0 
M  CHG  1  61   1
M  END
> <Rank>
26

> <Priority_score>
0.092

> <Reaction_type>
N-glucuronidation_(aromatic_=n-)

> <Parent_ID>
49

> <Parent_InChI>
InChI=1S/C27H29N5O6S/c1-27(2,3)18-10-12-19(13-11-18)39(34,35)32-23-22(38-21-9-6-5-8-20(21)36-4)26(37-17-16-33)31-25(30-23)24-28-14-7-15-29-24/h5-15,33H,16-17H2,1-4H3,(H,30,31,32)

> <Parent_SMILES>
COc1ccccc1Oc1c(NS(=O)(=O)c2ccc(C(C)(C)C)cc2)nc(-c2ncccn2)nc1OCCO

$$$$
Molecule 49_metabolite 27
  CDK     0516241031

 69 72  0  0  0  0  0  0  0  0999 V2000
    2.0138    8.6758    0.0000 C   0  0  0  0  0  0  0  0  0  0  0  0
    3.3125    9.4265    0.0000 H   0  0  0  0  0  0  0  0  0  0  0  0
    0.5368    8.4146    0.0000 H   0  0  0  0  0  0  0  0  0  0  0  0
    1.5001   10.0851    0.0000 H   0  0  0  0  0  0  0  0  0  0  0  0
    2.0146    7.1758    0.0000 C   0  0  0  0  0  0  0  0  0  0  0  0
    3.4916    7.4370    0.0000 C   0  0  0  0  0  0  0  0  0  0  0  0
    4.0040    8.8468    0.0000 H   0  0  0  0  0  0  0  0  0  0  0  0
    4.9690    7.1772    0.0000 H   0  0  0  0  0  0  0  0  0  0  0  0
    3.4924    5.9370    0.0000 H   0  0  0  0  0  0  0  0  0  0  0  0
    2.6927    5.3156    0.0000 C   0  0  0  0  0  0  0  0  0  0  0  0
    4.1700    5.0558    0.0000 H   0  0  0  0  0  0  0  0  0  0  0  0
    2.6934    3.8156    0.0000 H   0  0  0  0  0  0  0  0  0  0  0  0
    1.2156    5.0544    0.0000 H   0  0  0  0  0  0  0  0  0  0  0  0
    0.3003    6.1850    0.0000 C   0  0  0  0  0  0  0  0  0  0  0  0
    0.3008    4.6842    0.0000 C   0  0  0  0  0  0  0  0  0  0  0  0
    1.6003    3.9350    0.0000 H   0  0  0  0  0  0  0  0  0  0  0  0
   -0.9983    3.9325    0.0000 C   0  0  0  0  0  0  0  0  0  0  0  0
   -0.9971    2.4325    0.0000 H   0  0  0  0  0  0  0  0  0  0  0  0
   -2.2978    4.6817    0.0000 C   0  0  0  0  0  0  0  0  0  0  0  0
   -2.2983    6.1825    0.0000 C   0  0  0  0  0  0  0  0  0  0  0  0
   -3.5978    6.9317    0.0000 H   0  0  0  0  0  0  0  0  0  0  0  0
   -0.9992    6.9342    0.0000 C   0  0  0  0  0  0  0  0  0  0  0  0
   -1.0004    8.4342    0.0000 H   0  0  0  0  0  0  0  0  0  0  0  0
   -3.5964    3.9310    0.0000 S   0  0  0  0  0  0  0  0  0  0  0  0
   -4.8951    3.1804    0.0000 O   0  0  0  0  0  0  0  0  0  0  0  0
   -4.8958    4.6804    0.0000 O   0  0  0  0  0  0  0  0  0  0  0  0
   -3.5972    5.4310    0.0000 O   0  0  0  0  0  0  0  0  0  0  0  0
   -3.5957    2.4310    0.0000 N   0  0  0  0  0  0  0  0  0  0  0  0
   -2.2963    1.6817    0.0000 H   0  0  0  0  0  0  0  0  0  0  0  0
   -4.8944    1.6804    0.0000 C   0  0  0  0  0  0  0  0  0  0  0  0
   -6.1946    2.4300    0.0000 N   0  0  0  0  0  0  0  0  0  0  0  0
   -7.4944    1.6796    0.0000 C   0  0  0  0  0  0  0  0  0  0  0  0
   -7.4939    0.1796    0.0000 N   0  0  0  0  0  0  0  0  0  0  0  0
   -6.1937   -0.5700    0.0000 C   0  0  0  0  0  0  0  0  0  0  0  0
   -4.8939    0.1804    0.0000 C   0  0  0  0  0  0  0  0  0  0  0  0
   -2.7633   -1.0492    0.0000 O   0  0  0  0  0  0  0  0  0  0  0  0
   -2.7631   -2.5492    0.0000 C   0  0  0  0  0  0  0  0  0  0  0  0
   -1.4642   -3.3012    0.0000 C   0  0  0  0  0  0  0  0  0  0  0  0
   -1.4665   -4.8012    0.0000 C   0  0  0  0  0  0  0  0  0  0  0  0
   -0.1687   -5.5534    0.0000 H   0  0  0  0  0  0  0  0  0  0  0  0
   -2.7676   -5.5492    0.0000 C   0  0  0  0  0  0  0  0  0  0  0  0
   -2.7724   -7.0492    0.0000 H   0  0  0  0  0  0  0  0  0  0  0  0
   -4.0565   -4.7973    0.0000 C   0  0  0  0  0  0  0  0  0  0  0  0
   -5.3578   -5.5433    0.0000 H   0  0  0  0  0  0  0  0  0  0  0  0
   -4.0542   -3.2973    0.0000 C   0  0  0  0  0  0  0  0  0  0  0  0
   -5.3532   -2.5473    0.0000 H   0  0  0  0  0  0  0  0  0  0  0  0
   -0.1641   -2.5530    0.0000 O   0  0  0  0  0  0  0  0  0  0  0  0
    1.1339   -3.3047    0.0000 C   0  0  0  0  0  0  0  0  0  0  0  0
    1.1318   -4.8047    0.0000 H   0  0  0  0  0  0  0  0  0  0  0  0
    2.6107   -3.5672    0.0000 H   0  0  0  0  0  0  0  0  0  0  0  0
    1.6488   -1.8959    0.0000 H   0  0  0  0  0  0  0  0  0  0  0  0
   -6.1932   -2.0700    0.0000 O   0  0  0  0  0  0  0  0  0  0  0  0
   -7.4920   -2.8204    0.0000 C   0  0  0  0  0  0  0  0  0  0  0  0
   -8.9691   -3.0814    0.0000 H   0  0  0  0  0  0  0  0  0  0  0  0
   -8.0055   -1.4110    0.0000 H   0  0  0  0  0  0  0  0  0  0  0  0
   -7.4915   -4.3204    0.0000 C   0  0  0  0  0  0  0  0  0  0  0  0
   -6.0144   -4.0595    0.0000 H   0  0  0  0  0  0  0  0  0  0  0  0
   -6.9780   -5.7298    0.0000 H   0  0  0  0  0  0  0  0  0  0  0  0
   -8.7903   -5.0708    0.0000 O   0  0  0  0  0  0  0  0  0  0  0  0
   -8.7898   -6.5708    0.0000 H   0  0  0  0  0  0  0  0  0  0  0  0
   -8.7936    2.4294    0.0000 C   0  0  0  0  0  0  0  0  0  0  0  0
  -10.0933    1.6790    0.0000 N   0  0  0  0  0  0  0  0  0  0  0  0
  -11.3936    2.4285    0.0000 C   0  0  0  0  0  0  0  0  0  0  0  0
  -12.6922    1.6779    0.0000 H   0  0  0  0  0  0  0  0  0  0  0  0
  -11.3940    3.9285    0.0000 C   0  0  0  0  0  0  0  0  0  0  0  0
  -12.6932    4.6783    0.0000 H   0  0  0  0  0  0  0  0  0  0  0  0
  -10.0943    4.6790    0.0000 C   0  0  0  0  0  0  0  0  0  0  0  0
  -10.0948    6.1790    0.0000 H   0  0  0  0  0  0  0  0  0  0  0  0
   -8.7940    3.9294    0.0000 N   0  0  0  0  0  0  0  0  0  0  0  0
  1  2  1  0  0  0  0 
  1  3  1  0  0  0  0 
  1  4  1  0  0  0  0 
  1  5  1  0  0  0  0 
  5  6  1  0  0  0  0 
  6  7  1  0  0  0  0 
  6  8  1  0  0  0  0 
  6  9  1  0  0  0  0 
  5 10  1  0  0  0  0 
 10 11  1  0  0  0  0 
 10 12  1  0  0  0  0 
 10 13  1  0  0  0  0 
  5 14  1  0  0  0  0 
 14 15  2  0  0  0  0 
 15 16  1  0  0  0  0 
 15 17  1  0  0  0  0 
 17 18  1  0  0  0  0 
 17 19  2  0  0  0  0 
 19 20  1  0  0  0  0 
 20 21  1  0  0  0  0 
 20 22  2  0  0  0  0 
 14 22  1  0  0  0  0 
 22 23  1  0  0  0  0 
 19 24  1  0  0  0  0 
 24 25  2  0  0  0  0 
 24 26  2  0  0  0  0 
 24 27  2  0  0  0  0 
 24 28  1  0  0  0  0 
 28 29  1  0  0  0  0 
 28 30  1  0  0  0  0 
 30 31  2  0  0  0  0 
 31 32  1  0  0  0  0 
 32 33  2  0  0  0  0 
 33 34  1  0  0  0  0 
 34 35  2  0  0  0  0 
 30 35  1  0  0  0  0 
 35 36  1  0  0  0  0 
 36 37  1  0  0  0  0 
 37 38  2  0  0  0  0 
 38 39  1  0  0  0  0 
 39 40  1  0  0  0  0 
 39 41  2  0  0  0  0 
 41 42  1  0  0  0  0 
 41 43  1  0  0  0  0 
 43 44  1  0  0  0  0 
 43 45  2  0  0  0  0 
 37 45  1  0  0  0  0 
 45 46  1  0  0  0  0 
 38 47  1  0  0  0  0 
 47 48  1  0  0  0  0 
 48 49  1  0  0  0  0 
 48 50  1  0  0  0  0 
 48 51  1  0  0  0  0 
 34 52  1  0  0  0  0 
 52 53  1  0  0  0  0 
 53 54  1  0  0  0  0 
 53 55  1  0  0  0  0 
 53 56  1  0  0  0  0 
 56 57  1  0  0  0  0 
 56 58  1  0  0  0  0 
 56 59  1  0  0  0  0 
 59 60  1  0  0  0  0 
 32 61  1  0  0  0  0 
 61 62  2  0  0  0  0 
 62 63  1  0  0  0  0 
 63 64  1  0  0  0  0 
 63 65  2  0  0  0  0 
 65 66  1  0  0  0  0 
 65 67  1  0  0  0  0 
 67 68  1  0  0  0  0 
 67 69  2  0  0  0  0 
 61 69  1  0  0  0  0 
M  END
> <Rank>
27

> <Priority_score>
0.076

> <Reaction_type>
S-oxidation

> <Parent_ID>
49

> <Parent_InChI>
InChI=1S/C27H29N5O6S/c1-27(2,3)18-10-12-19(13-11-18)39(34,35)32-23-22(38-21-9-6-5-8-20(21)36-4)26(37-17-16-33)31-25(30-23)24-28-14-7-15-29-24/h5-15,33H,16-17H2,1-4H3,(H,30,31,32)

> <Parent_SMILES>
COc1ccccc1Oc1c(NS(=O)(=O)c2ccc(C(C)(C)C)cc2)nc(-c2ncccn2)nc1OCCO

$$$$
Molecule 49_metabolite 28
  CDK     0516241031

 69 72  0  0  0  0  0  0  0  0999 V2000
    8.2814   -2.8812    0.0000 C   0  0  0  0  0  0  0  0  0  0  0  0
    9.5804   -3.6312    0.0000 H   0  0  0  0  0  0  0  0  0  0  0  0
    9.2455   -1.7321    0.0000 H   0  0  0  0  0  0  0  0  0  0  0  0
    7.3172   -1.7321    0.0000 H   0  0  0  0  0  0  0  0  0  0  0  0
    6.9823   -3.6312    0.0000 C   0  0  0  0  0  0  0  0  0  0  0  0
    6.0181   -4.7802    0.0000 C   0  0  0  0  0  0  0  0  0  0  0  0
    4.5409   -4.5198    0.0000 H   0  0  0  0  0  0  0  0  0  0  0  0
    7.3172   -5.5302    0.0000 H   0  0  0  0  0  0  0  0  0  0  0  0
    5.5051   -6.1898    0.0000 H   0  0  0  0  0  0  0  0  0  0  0  0
    8.8721   -5.8833    0.0000 C   0  0  0  0  0  0  0  0  0  0  0  0
   10.3493   -5.6229    0.0000 H   0  0  0  0  0  0  0  0  0  0  0  0
    7.5731   -6.6333    0.0000 H   0  0  0  0  0  0  0  0  0  0  0  0
    9.3852   -7.2929    0.0000 H   0  0  0  0  0  0  0  0  0  0  0  0
    4.8519   -2.4012    0.0000 C   0  0  0  0  0  0  0  0  0  0  0  0
    4.8517   -0.9003    0.0000 C   0  0  0  0  0  0  0  0  0  0  0  0
    6.1508   -0.1506    0.0000 H   0  0  0  0  0  0  0  0  0  0  0  0
    3.5523   -0.1493    0.0000 C   0  0  0  0  0  0  0  0  0  0  0  0
    3.5527    1.3507    0.0000 H   0  0  0  0  0  0  0  0  0  0  0  0
    2.2531   -0.8991    0.0000 C   0  0  0  0  0  0  0  0  0  0  0  0
    2.2533   -2.3999    0.0000 C   0  0  0  0  0  0  0  0  0  0  0  0
    0.9542   -3.1497    0.0000 H   0  0  0  0  0  0  0  0  0  0  0  0
    3.5527   -3.1510    0.0000 C   0  0  0  0  0  0  0  0  0  0  0  0
    3.5523   -4.6510    0.0000 H   0  0  0  0  0  0  0  0  0  0  0  0
    0.9541   -0.1491    0.0000 S   0  0  0  0  0  0  0  0  0  0  0  0
    1.9183    1.0000    0.0000 O   0  0  0  0  0  0  0  0  0  0  0  0
   -0.0101    1.0000    0.0000 O   0  0  0  0  0  0  0  0  0  0  0  0
   -0.3450   -0.8991    0.0000 N   0  0  0  0  0  0  0  0  0  0  0  0
   -0.3450   -2.3991    0.0000 H   0  0  0  0  0  0  0  0  0  0  0  0
   -1.6440   -0.1491    0.0000 C   0  0  0  0  0  0  0  0  0  0  0  0
   -2.9435   -0.8999    0.0000 C   0  0  0  0  0  0  0  0  0  0  0  0
   -4.2426   -0.1499    0.0000 C   0  0  0  0  0  0  0  0  0  0  0  0
   -4.2421    1.3509    0.0000 N   0  0  0  0  0  0  0  0  0  0  0  0
   -2.9426    2.1017    0.0000 C   0  0  0  0  0  0  0  0  0  0  0  0
   -1.6435    1.3517    0.0000 N   0  0  0  0  0  0  0  0  0  0  0  0
   -0.3444    2.1015    0.0000 O   0  0  0  0  0  0  0  0  0  0  0  0
   -2.9428    3.6017    0.0000 C   0  0  0  0  0  0  0  0  0  0  0  0
   -1.6433    4.3526    0.0000 N   0  0  0  0  0  0  0  0  0  0  0  0
   -1.6428    5.8534    0.0000 C   0  0  0  0  0  0  0  0  0  0  0  0
   -0.3436    6.6032    0.0000 H   0  0  0  0  0  0  0  0  0  0  0  0
   -2.9418    6.6034    0.0000 C   0  0  0  0  0  0  0  0  0  0  0  0
   -2.9421    8.1034    0.0000 H   0  0  0  0  0  0  0  0  0  0  0  0
   -4.2414    5.8526    0.0000 C   0  0  0  0  0  0  0  0  0  0  0  0
   -5.5404    6.6026    0.0000 H   0  0  0  0  0  0  0  0  0  0  0  0
   -4.2418    4.3517    0.0000 N   0  0  0  0  0  0  0  0  0  0  0  0
   -5.5417   -0.8997    0.0000 O   0  0  0  0  0  0  0  0  0  0  0  0
   -6.8406   -0.1495    0.0000 C   0  0  0  0  0  0  0  0  0  0  0  0
   -5.8763    0.9994    0.0000 H   0  0  0  0  0  0  0  0  0  0  0  0
   -7.8046    0.9997    0.0000 H   0  0  0  0  0  0  0  0  0  0  0  0
   -8.1398   -0.8993    0.0000 C   0  0  0  0  0  0  0  0  0  0  0  0
   -9.1042   -2.0482    0.0000 H   0  0  0  0  0  0  0  0  0  0  0  0
   -7.1758   -2.0485    0.0000 H   0  0  0  0  0  0  0  0  0  0  0  0
   -9.4387   -0.1491    0.0000 O   0  0  0  0  0  0  0  0  0  0  0  0
  -10.7379   -0.8989    0.0000 H   0  0  0  0  0  0  0  0  0  0  0  0
   -2.9431   -3.3599    0.0000 O   0  0  0  0  0  0  0  0  0  0  0  0
   -4.2420   -4.1101    0.0000 C   0  0  0  0  0  0  0  0  0  0  0  0
   -4.2438   -5.6110    0.0000 C   0  0  0  0  0  0  0  0  0  0  0  0
   -5.5440   -6.3590    0.0000 C   0  0  0  0  0  0  0  0  0  0  0  0
   -5.5465   -7.8590    0.0000 H   0  0  0  0  0  0  0  0  0  0  0  0
   -6.8424   -5.6062    0.0000 C   0  0  0  0  0  0  0  0  0  0  0  0
   -8.1438   -6.3521    0.0000 H   0  0  0  0  0  0  0  0  0  0  0  0
   -6.8356   -4.1140    0.0000 C   0  0  0  0  0  0  0  0  0  0  0  0
   -8.1324   -3.3601    0.0000 H   0  0  0  0  0  0  0  0  0  0  0  0
   -5.5354   -3.3660    0.0000 C   0  0  0  0  0  0  0  0  0  0  0  0
   -5.5354   -1.8660    0.0000 H   0  0  0  0  0  0  0  0  0  0  0  0
   -2.9458   -6.3627    0.0000 O   0  0  0  0  0  0  0  0  0  0  0  0
   -2.9479   -7.8627    0.0000 C   0  0  0  0  0  0  0  0  0  0  0  0
   -4.2479   -8.6110    0.0000 H   0  0  0  0  0  0  0  0  0  0  0  0
   -2.4367   -9.2730    0.0000 H   0  0  0  0  0  0  0  0  0  0  0  0
   -1.4703   -7.6043    0.0000 H   0  0  0  0  0  0  0  0  0  0  0  0
  1  2  1  0  0  0  0 
  1  3  1  0  0  0  0 
  1  4  1  0  0  0  0 
  1  5  1  0  0  0  0 
  5  6  1  0  0  0  0 
  6  7  1  0  0  0  0 
  6  8  1  0  0  0  0 
  6  9  1  0  0  0  0 
  5 10  1  0  0  0  0 
 10 11  1  0  0  0  0 
 10 12  1  0  0  0  0 
 10 13  1  0  0  0  0 
  5 14  1  0  0  0  0 
 14 15  2  0  0  0  0 
 15 16  1  0  0  0  0 
 15 17  1  0  0  0  0 
 17 18  1  0  0  0  0 
 17 19  2  0  0  0  0 
 19 20  1  0  0  0  0 
 20 21  1  0  0  0  0 
 20 22  2  0  0  0  0 
 14 22  1  0  0  0  0 
 22 23  1  0  0  0  0 
 19 24  1  0  0  0  0 
 24 25  2  0  0  0  0 
 24 26  2  0  0  0  0 
 24 27  1  0  0  0  0 
 27 28  1  0  0  0  0 
 27 29  1  0  0  0  0 
 29 30  2  0  0  0  0 
 30 31  1  0  0  0  0 
 31 32  2  0  0  0  0 
 32 33  1  0  0  0  0 
 33 34  2  0  0  0  0 
 29 34  1  0  0  0  0 
 34 35  1  0  0  0  0 
 33 36  1  0  0  0  0 
 36 37  2  0  0  0  0 
 37 38  1  0  0  0  0 
 38 39  1  0  0  0  0 
 38 40  2  0  0  0  0 
 40 41  1  0  0  0  0 
 40 42  1  0  0  0  0 
 42 43  1  0  0  0  0 
 42 44  2  0  0  0  0 
 36 44  1  0  0  0  0 
 31 45  1  0  0  0  0 
 45 46  1  0  0  0  0 
 46 47  1  0  0  0  0 
 46 48  1  0  0  0  0 
 46 49  1  0  0  0  0 
 49 50  1  0  0  0  0 
 49 51  1  0  0  0  0 
 49 52  1  0  0  0  0 
 52 53  1  0  0  0  0 
 30 54  1  0  0  0  0 
 54 55  1  0  0  0  0 
 55 56  2  0  0  0  0 
 56 57  1  0  0  0  0 
 57 58  1  0  0  0  0 
 57 59  2  0  0  0  0 
 59 60  1  0  0  0  0 
 59 61  1  0  0  0  0 
 61 62  1  0  0  0  0 
 61 63  2  0  0  0  0 
 55 63  1  0  0  0  0 
 63 64  1  0  0  0  0 
 56 65  1  0  0  0  0 
 65 66  1  0  0  0  0 
 66 67  1  0  0  0  0 
 66 68  1  0  0  0  0 
 66 69  1  0  0  0  0 
M  CHG  1  34   1
M  CHG  1  35  -1
M  END
> <Rank>
28

> <Priority_score>
0.059765871786930935

> <Reaction_type>
N-oxidation_(-N=)

> <Parent_ID>
49

> <Parent_InChI>
InChI=1S/C27H29N5O6S/c1-27(2,3)18-10-12-19(13-11-18)39(34,35)32-23-22(38-21-9-6-5-8-20(21)36-4)26(37-17-16-33)31-25(30-23)24-28-14-7-15-29-24/h5-15,33H,16-17H2,1-4H3,(H,30,31,32)

> <Parent_SMILES>
COc1ccccc1Oc1c(NS(=O)(=O)c2ccc(C(C)(C)C)cc2)nc(-c2ncccn2)nc1OCCO

$$$$
Molecule 49_metabolite 29
  CDK     0516241031

 69 72  0  0  0  0  0  0  0  0999 V2000
  -13.1892    1.9520    0.0000 C   0  0  0  0  0  0  0  0  0  0  0  0
  -14.4886    2.7014    0.0000 H   0  0  0  0  0  0  0  0  0  0  0  0
  -12.2245    0.8034    0.0000 H   0  0  0  0  0  0  0  0  0  0  0  0
  -14.1528    0.8025    0.0000 H   0  0  0  0  0  0  0  0  0  0  0  0
  -11.8905    2.7026    0.0000 C   0  0  0  0  0  0  0  0  0  0  0  0
  -13.7814    4.9539    0.0000 C   0  0  0  0  0  0  0  0  0  0  0  0
  -15.2585    4.6927    0.0000 H   0  0  0  0  0  0  0  0  0  0  0  0
  -14.2951    6.3632    0.0000 H   0  0  0  0  0  0  0  0  0  0  0  0
  -12.4827    5.7045    0.0000 H   0  0  0  0  0  0  0  0  0  0  0  0
  -10.9269    3.8522    0.0000 C   0  0  0  0  0  0  0  0  0  0  0  0
   -9.4496    3.5924    0.0000 H   0  0  0  0  0  0  0  0  0  0  0  0
  -10.4146    5.2619    0.0000 H   0  0  0  0  0  0  0  0  0  0  0  0
  -12.2263    4.6015    0.0000 H   0  0  0  0  0  0  0  0  0  0  0  0
   -9.7595    1.4737    0.0000 C   0  0  0  0  0  0  0  0  0  0  0  0
   -8.4600    2.2245    0.0000 C   0  0  0  0  0  0  0  0  0  0  0  0
   -8.4610    3.7245    0.0000 H   0  0  0  0  0  0  0  0  0  0  0  0
   -7.1595    1.4753    0.0000 C   0  0  0  0  0  0  0  0  0  0  0  0
   -5.8611    2.2264    0.0000 H   0  0  0  0  0  0  0  0  0  0  0  0
   -7.1586   -0.0247    0.0000 C   0  0  0  0  0  0  0  0  0  0  0  0
   -8.4581   -0.7755    0.0000 C   0  0  0  0  0  0  0  0  0  0  0  0
   -8.4571   -2.2755    0.0000 H   0  0  0  0  0  0  0  0  0  0  0  0
   -9.7586   -0.0263    0.0000 C   0  0  0  0  0  0  0  0  0  0  0  0
  -11.0570   -0.7774    0.0000 H   0  0  0  0  0  0  0  0  0  0  0  0
   -5.8592   -0.7741    0.0000 S   0  0  0  0  0  0  0  0  0  0  0  0
   -4.8944   -1.9227    0.0000 O   0  0  0  0  0  0  0  0  0  0  0  0
   -6.8228   -1.9236    0.0000 O   0  0  0  0  0  0  0  0  0  0  0  0
   -4.5605   -0.0234    0.0000 N   0  0  0  0  0  0  0  0  0  0  0  0
   -3.2611   -0.7728    0.0000 C   0  0  0  0  0  0  0  0  0  0  0  0
   -3.2601   -2.2736    0.0000 N   0  0  0  0  0  0  0  0  0  0  0  0
   -1.9604   -3.0241    0.0000 C   0  0  0  0  0  0  0  0  0  0  0  0
   -0.6616   -2.2736    0.0000 N   0  0  0  0  0  0  0  0  0  0  0  0
   -0.6625   -0.7728    0.0000 C   0  0  0  0  0  0  0  0  0  0  0  0
   -1.9623   -0.0224    0.0000 C   0  0  0  0  0  0  0  0  0  0  0  0
   -1.9627    2.4376    0.0000 O   0  0  0  0  0  0  0  0  0  0  0  0
   -0.6638    3.1878    0.0000 C   0  0  0  0  0  0  0  0  0  0  0  0
   -0.6620    4.6887    0.0000 C   0  0  0  0  0  0  0  0  0  0  0  0
    0.6382    5.4367    0.0000 C   0  0  0  0  0  0  0  0  0  0  0  0
    0.6407    6.9367    0.0000 H   0  0  0  0  0  0  0  0  0  0  0  0
    1.9366    4.6839    0.0000 C   0  0  0  0  0  0  0  0  0  0  0  0
    3.2380    5.4297    0.0000 H   0  0  0  0  0  0  0  0  0  0  0  0
    1.9298    3.1917    0.0000 C   0  0  0  0  0  0  0  0  0  0  0  0
    3.2266    2.4378    0.0000 H   0  0  0  0  0  0  0  0  0  0  0  0
    0.6296    2.4437    0.0000 C   0  0  0  0  0  0  0  0  0  0  0  0
    0.6296    0.9437    0.0000 H   0  0  0  0  0  0  0  0  0  0  0  0
   -1.9600    5.4404    0.0000 O   0  0  0  0  0  0  0  0  0  0  0  0
   -1.9580    6.9404    0.0000 C   0  0  0  0  0  0  0  0  0  0  0  0
   -0.6579    7.6886    0.0000 H   0  0  0  0  0  0  0  0  0  0  0  0
   -2.4691    8.3506    0.0000 H   0  0  0  0  0  0  0  0  0  0  0  0
   -3.4355    6.6819    0.0000 H   0  0  0  0  0  0  0  0  0  0  0  0
    0.6363   -0.0224    0.0000 O   0  0  0  0  0  0  0  0  0  0  0  0
    1.9355   -0.7720    0.0000 C   0  0  0  0  0  0  0  0  0  0  0  0
    2.9001   -1.9207    0.0000 H   0  0  0  0  0  0  0  0  0  0  0  0
    0.9717   -1.9213    0.0000 H   0  0  0  0  0  0  0  0  0  0  0  0
    3.2343   -0.0216    0.0000 C   0  0  0  0  0  0  0  0  0  0  0  0
    2.2698    1.1272    0.0000 H   0  0  0  0  0  0  0  0  0  0  0  0
    4.1982    1.1278    0.0000 H   0  0  0  0  0  0  0  0  0  0  0  0
    4.5336   -0.7711    0.0000 O   0  0  0  0  0  0  0  0  0  0  0  0
    5.8324   -0.0207    0.0000 H   0  0  0  0  0  0  0  0  0  0  0  0
   -1.9601   -4.5241    0.0000 C   0  0  0  0  0  0  0  0  0  0  0  0
   -0.6604   -5.2745    0.0000 N   0  0  0  0  0  0  0  0  0  0  0  0
   -0.6594   -6.7753    0.0000 C   0  0  0  0  0  0  0  0  0  0  0  0
    0.6400   -7.5247    0.0000 H   0  0  0  0  0  0  0  0  0  0  0  0
   -1.9582   -7.5257    0.0000 C   0  0  0  0  0  0  0  0  0  0  0  0
   -1.9580   -9.0257    0.0000 H   0  0  0  0  0  0  0  0  0  0  0  0
   -3.2580   -6.7753    0.0000 C   0  0  0  0  0  0  0  0  0  0  0  0
   -4.5568   -7.5257    0.0000 H   0  0  0  0  0  0  0  0  0  0  0  0
   -3.2589   -5.2745    0.0000 N   0  0  0  0  0  0  0  0  0  0  0  0
   -4.5612    1.4766    0.0000 O   0  0  0  0  0  0  0  0  0  0  0  0
   -3.2625    2.2272    0.0000 H   0  0  0  0  0  0  0  0  0  0  0  0
  1  2  1  0  0  0  0 
  1  3  1  0  0  0  0 
  1  4  1  0  0  0  0 
  1  5  1  0  0  0  0 
  5  6  1  0  0  0  0 
  6  7  1  0  0  0  0 
  6  8  1  0  0  0  0 
  6  9  1  0  0  0  0 
  5 10  1  0  0  0  0 
 10 11  1  0  0  0  0 
 10 12  1  0  0  0  0 
 10 13  1  0  0  0  0 
  5 14  1  0  0  0  0 
 14 15  2  0  0  0  0 
 15 16  1  0  0  0  0 
 15 17  1  0  0  0  0 
 17 18  1  0  0  0  0 
 17 19  2  0  0  0  0 
 19 20  1  0  0  0  0 
 20 21  1  0  0  0  0 
 20 22  2  0  0  0  0 
 14 22  1  0  0  0  0 
 22 23  1  0  0  0  0 
 19 24  1  0  0  0  0 
 24 25  2  0  0  0  0 
 24 26  2  0  0  0  0 
 24 27  1  0  0  0  0 
 27 28  1  0  0  0  0 
 28 29  2  0  0  0  0 
 29 30  1  0  0  0  0 
 30 31  2  0  0  0  0 
 31 32  1  0  0  0  0 
 32 33  2  0  0  0  0 
 28 33  1  0  0  0  0 
 33 34  1  0  0  0  0 
 34 35  1  0  0  0  0 
 35 36  2  0  0  0  0 
 36 37  1  0  0  0  0 
 37 38  1  0  0  0  0 
 37 39  2  0  0  0  0 
 39 40  1  0  0  0  0 
 39 41  1  0  0  0  0 
 41 42  1  0  0  0  0 
 41 43  2  0  0  0  0 
 35 43  1  0  0  0  0 
 43 44  1  0  0  0  0 
 36 45  1  0  0  0  0 
 45 46  1  0  0  0  0 
 46 47  1  0  0  0  0 
 46 48  1  0  0  0  0 
 46 49  1  0  0  0  0 
 32 50  1  0  0  0  0 
 50 51  1  0  0  0  0 
 51 52  1  0  0  0  0 
 51 53  1  0  0  0  0 
 51 54  1  0  0  0  0 
 54 55  1  0  0  0  0 
 54 56  1  0  0  0  0 
 54 57  1  0  0  0  0 
 57 58  1  0  0  0  0 
 30 59  1  0  0  0  0 
 59 60  2  0  0  0  0 
 60 61  1  0  0  0  0 
 61 62  1  0  0  0  0 
 61 63  2  0  0  0  0 
 63 64  1  0  0  0  0 
 63 65  1  0  0  0  0 
 65 66  1  0  0  0  0 
 65 67  2  0  0  0  0 
 59 67  1  0  0  0  0 
 27 68  1  0  0  0  0 
 68 69  1  0  0  0  0 
M  END
> <Rank>
29

> <Priority_score>
0.056

> <Reaction_type>
amine hydroxylation

> <Parent_ID>
49

> <Parent_InChI>
InChI=1S/C27H29N5O6S/c1-27(2,3)18-10-12-19(13-11-18)39(34,35)32-23-22(38-21-9-6-5-8-20(21)36-4)26(37-17-16-33)31-25(30-23)24-28-14-7-15-29-24/h5-15,33H,16-17H2,1-4H3,(H,30,31,32)

> <Parent_SMILES>
COc1ccccc1Oc1c(NS(=O)(=O)c2ccc(C(C)(C)C)cc2)nc(-c2ncccn2)nc1OCCO

$$$$
Molecule 49_metabolite 30
  CDK     0516241031

 66 69  0  0  0  0  0  0  0  0999 V2000
    2.0138    8.6758    0.0000 C   0  0  0  0  0  0  0  0  0  0  0  0
    3.3125    9.4265    0.0000 H   0  0  0  0  0  0  0  0  0  0  0  0
    0.5368    8.4146    0.0000 H   0  0  0  0  0  0  0  0  0  0  0  0
    1.5001   10.0851    0.0000 H   0  0  0  0  0  0  0  0  0  0  0  0
    2.0146    7.1758    0.0000 C   0  0  0  0  0  0  0  0  0  0  0  0
    3.4916    7.4370    0.0000 C   0  0  0  0  0  0  0  0  0  0  0  0
    4.0040    8.8468    0.0000 H   0  0  0  0  0  0  0  0  0  0  0  0
    4.9690    7.1772    0.0000 H   0  0  0  0  0  0  0  0  0  0  0  0
    3.4924    5.9370    0.0000 H   0  0  0  0  0  0  0  0  0  0  0  0
    2.6927    5.3156    0.0000 C   0  0  0  0  0  0  0  0  0  0  0  0
    4.1700    5.0558    0.0000 H   0  0  0  0  0  0  0  0  0  0  0  0
    2.6934    3.8156    0.0000 H   0  0  0  0  0  0  0  0  0  0  0  0
    1.2156    5.0544    0.0000 H   0  0  0  0  0  0  0  0  0  0  0  0
    0.3003    6.1850    0.0000 C   0  0  0  0  0  0  0  0  0  0  0  0
    0.3008    4.6842    0.0000 C   0  0  0  0  0  0  0  0  0  0  0  0
    1.6003    3.9350    0.0000 H   0  0  0  0  0  0  0  0  0  0  0  0
   -0.9983    3.9325    0.0000 C   0  0  0  0  0  0  0  0  0  0  0  0
   -0.9971    2.4325    0.0000 H   0  0  0  0  0  0  0  0  0  0  0  0
   -2.2978    4.6817    0.0000 C   0  0  0  0  0  0  0  0  0  0  0  0
   -2.2983    6.1825    0.0000 C   0  0  0  0  0  0  0  0  0  0  0  0
   -3.5978    6.9317    0.0000 H   0  0  0  0  0  0  0  0  0  0  0  0
   -0.9992    6.9342    0.0000 C   0  0  0  0  0  0  0  0  0  0  0  0
   -1.0004    8.4342    0.0000 H   0  0  0  0  0  0  0  0  0  0  0  0
   -3.5964    3.9310    0.0000 S   0  0  0  0  0  0  0  0  0  0  0  0
   -5.0735    3.6699    0.0000 O   0  0  0  0  0  0  0  0  0  0  0  0
   -4.1102    5.3403    0.0000 O   0  0  0  0  0  0  0  0  0  0  0  0
   -3.5957    2.4310    0.0000 N   0  0  0  0  0  0  0  0  0  0  0  0
   -2.2963    1.6817    0.0000 H   0  0  0  0  0  0  0  0  0  0  0  0
   -4.8944    1.6804    0.0000 C   0  0  0  0  0  0  0  0  0  0  0  0
   -6.1946    2.4300    0.0000 N   0  0  0  0  0  0  0  0  0  0  0  0
   -7.4944    1.6796    0.0000 C   0  0  0  0  0  0  0  0  0  0  0  0
   -7.4939    0.1796    0.0000 N   0  0  0  0  0  0  0  0  0  0  0  0
   -6.1937   -0.5700    0.0000 C   0  0  0  0  0  0  0  0  0  0  0  0
   -4.8939    0.1804    0.0000 C   0  0  0  0  0  0  0  0  0  0  0  0
   -2.7633   -1.0492    0.0000 O   0  0  0  0  0  0  0  0  0  0  0  0
   -2.7631   -2.5492    0.0000 C   0  0  0  0  0  0  0  0  0  0  0  0
   -1.4642   -3.3012    0.0000 C   0  0  0  0  0  0  0  0  0  0  0  0
   -1.4665   -4.8012    0.0000 C   0  0  0  0  0  0  0  0  0  0  0  0
   -0.1687   -5.5534    0.0000 H   0  0  0  0  0  0  0  0  0  0  0  0
   -2.7676   -5.5492    0.0000 C   0  0  0  0  0  0  0  0  0  0  0  0
   -2.7724   -7.0492    0.0000 H   0  0  0  0  0  0  0  0  0  0  0  0
   -4.0565   -4.7973    0.0000 C   0  0  0  0  0  0  0  0  0  0  0  0
   -5.3578   -5.5433    0.0000 H   0  0  0  0  0  0  0  0  0  0  0  0
   -4.0542   -3.2973    0.0000 C   0  0  0  0  0  0  0  0  0  0  0  0
   -5.3532   -2.5473    0.0000 H   0  0  0  0  0  0  0  0  0  0  0  0
   -0.1641   -2.5530    0.0000 O   0  0  0  0  0  0  0  0  0  0  0  0
    1.1339   -3.3047    0.0000 C   0  0  0  0  0  0  0  0  0  0  0  0
    1.1318   -4.8047    0.0000 H   0  0  0  0  0  0  0  0  0  0  0  0
    2.6107   -3.5672    0.0000 H   0  0  0  0  0  0  0  0  0  0  0  0
    1.6488   -1.8959    0.0000 H   0  0  0  0  0  0  0  0  0  0  0  0
   -6.1932   -2.0700    0.0000 O   0  0  0  0  0  0  0  0  0  0  0  0
   -7.4920   -2.8204    0.0000 C   0  0  0  0  0  0  0  0  0  0  0  0
   -7.4915   -4.3204    0.0000 H   0  0  0  0  0  0  0  0  0  0  0  0
   -8.7913   -2.0708    0.0000 C   0  0  0  0  0  0  0  0  0  0  0  0
   -8.7918   -0.5708    0.0000 H   0  0  0  0  0  0  0  0  0  0  0  0
  -10.0901   -2.8212    0.0000 O   0  0  0  0  0  0  0  0  0  0  0  0
  -11.3894   -2.0717    0.0000 H   0  0  0  0  0  0  0  0  0  0  0  0
   -8.7936    2.4294    0.0000 C   0  0  0  0  0  0  0  0  0  0  0  0
  -10.0933    1.6790    0.0000 N   0  0  0  0  0  0  0  0  0  0  0  0
  -11.3936    2.4285    0.0000 C   0  0  0  0  0  0  0  0  0  0  0  0
  -12.6922    1.6779    0.0000 H   0  0  0  0  0  0  0  0  0  0  0  0
  -11.3940    3.9285    0.0000 C   0  0  0  0  0  0  0  0  0  0  0  0
  -12.6932    4.6783    0.0000 H   0  0  0  0  0  0  0  0  0  0  0  0
  -10.0943    4.6790    0.0000 C   0  0  0  0  0  0  0  0  0  0  0  0
  -10.0948    6.1790    0.0000 H   0  0  0  0  0  0  0  0  0  0  0  0
   -8.7940    3.9294    0.0000 N   0  0  0  0  0  0  0  0  0  0  0  0
  1  2  1  0  0  0  0 
  1  3  1  0  0  0  0 
  1  4  1  0  0  0  0 
  1  5  1  0  0  0  0 
  5  6  1  0  0  0  0 
  6  7  1  0  0  0  0 
  6  8  1  0  0  0  0 
  6  9  1  0  0  0  0 
  5 10  1  0  0  0  0 
 10 11  1  0  0  0  0 
 10 12  1  0  0  0  0 
 10 13  1  0  0  0  0 
  5 14  1  0  0  0  0 
 14 15  2  0  0  0  0 
 15 16  1  0  0  0  0 
 15 17  1  0  0  0  0 
 17 18  1  0  0  0  0 
 17 19  2  0  0  0  0 
 19 20  1  0  0  0  0 
 20 21  1  0  0  0  0 
 20 22  2  0  0  0  0 
 14 22  1  0  0  0  0 
 22 23  1  0  0  0  0 
 19 24  1  0  0  0  0 
 24 25  2  0  0  0  0 
 24 26  2  0  0  0  0 
 24 27  1  0  0  0  0 
 27 28  1  0  0  0  0 
 27 29  1  0  0  0  0 
 29 30  2  0  0  0  0 
 30 31  1  0  0  0  0 
 31 32  2  0  0  0  0 
 32 33  1  0  0  0  0 
 33 34  2  0  0  0  0 
 29 34  1  0  0  0  0 
 34 35  1  0  0  0  0 
 35 36  1  0  0  0  0 
 36 37  2  0  0  0  0 
 37 38  1  0  0  0  0 
 38 39  1  0  0  0  0 
 38 40  2  0  0  0  0 
 40 41  1  0  0  0  0 
 40 42  1  0  0  0  0 
 42 43  1  0  0  0  0 
 42 44  2  0  0  0  0 
 36 44  1  0  0  0  0 
 44 45  1  0  0  0  0 
 37 46  1  0  0  0  0 
 46 47  1  0  0  0  0 
 47 48  1  0  0  0  0 
 47 49  1  0  0  0  0 
 47 50  1  0  0  0  0 
 33 51  1  0  0  0  0 
 51 52  1  0  0  0  0 
 52 53  1  4  0  0  0 
 52 54  2  0  0  0  0 
 54 55  1  0  0  0  0 
 54 56  1  0  0  0  0 
 56 57  1  0  0  0  0 
 31 58  1  0  0  0  0 
 58 59  2  0  0  0  0 
 59 60  1  0  0  0  0 
 60 61  1  0  0  0  0 
 60 62  2  0  0  0  0 
 62 63  1  0  0  0  0 
 62 64  1  0  0  0  0 
 64 65  1  0  0  0  0 
 64 66  2  0  0  0  0 
 58 66  1  0  0  0  0 
M  END
> <Rank>
30

> <Priority_score>
0.0456

> <Reaction_type>
alkyl dehydrogenation

> <Parent_ID>
49

> <Parent_InChI>
InChI=1S/C27H29N5O6S/c1-27(2,3)18-10-12-19(13-11-18)39(34,35)32-23-22(38-21-9-6-5-8-20(21)36-4)26(37-17-16-33)31-25(30-23)24-28-14-7-15-29-24/h5-15,33H,16-17H2,1-4H3,(H,30,31,32)

> <Parent_SMILES>
COc1ccccc1Oc1c(NS(=O)(=O)c2ccc(C(C)(C)C)cc2)nc(-c2ncccn2)nc1OCCO

$$$$
Molecule 49_metabolite 31
  CDK     0516241031

 89 93  0  0  0  0  0  0  0  0999 V2000
    5.4988   -4.5355    0.0000 C   0  0  0  0  0  0  0  0  0  0  0  0
    6.7978   -3.7855    0.0000 H   0  0  0  0  0  0  0  0  0  0  0  0
    6.4630   -5.6846    0.0000 H   0  0  0  0  0  0  0  0  0  0  0  0
    4.5346   -5.6846    0.0000 H   0  0  0  0  0  0  0  0  0  0  0  0
    4.1998   -3.7855    0.0000 C   0  0  0  0  0  0  0  0  0  0  0  0
    2.3100   -1.5334    0.0000 C   0  0  0  0  0  0  0  0  0  0  0  0
    0.8328   -1.7938    0.0000 H   0  0  0  0  0  0  0  0  0  0  0  0
    3.6090   -0.7834    0.0000 H   0  0  0  0  0  0  0  0  0  0  0  0
    1.7969   -0.1238    0.0000 H   0  0  0  0  0  0  0  0  0  0  0  0
    5.7810   -1.9011    0.0000 C   0  0  0  0  0  0  0  0  0  0  0  0
    7.2582   -2.1615    0.0000 H   0  0  0  0  0  0  0  0  0  0  0  0
    4.4820   -1.1511    0.0000 H   0  0  0  0  0  0  0  0  0  0  0  0
    6.2940   -0.4915    0.0000 H   0  0  0  0  0  0  0  0  0  0  0  0
    2.0693   -5.0155    0.0000 C   0  0  0  0  0  0  0  0  0  0  0  0
    2.0691   -6.5164    0.0000 C   0  0  0  0  0  0  0  0  0  0  0  0
    3.3683   -7.2662    0.0000 H   0  0  0  0  0  0  0  0  0  0  0  0
    0.7697   -7.2674    0.0000 C   0  0  0  0  0  0  0  0  0  0  0  0
    0.7702   -8.7674    0.0000 H   0  0  0  0  0  0  0  0  0  0  0  0
   -0.5295   -6.5176    0.0000 C   0  0  0  0  0  0  0  0  0  0  0  0
   -0.5292   -5.0168    0.0000 C   0  0  0  0  0  0  0  0  0  0  0  0
   -1.8284   -4.2670    0.0000 H   0  0  0  0  0  0  0  0  0  0  0  0
    0.7702   -4.2657    0.0000 C   0  0  0  0  0  0  0  0  0  0  0  0
    0.7697   -2.7657    0.0000 H   0  0  0  0  0  0  0  0  0  0  0  0
   -1.8285   -7.2676    0.0000 S   0  0  0  0  0  0  0  0  0  0  0  0
   -0.8643   -8.4167    0.0000 O   0  0  0  0  0  0  0  0  0  0  0  0
   -2.7927   -8.4167    0.0000 O   0  0  0  0  0  0  0  0  0  0  0  0
   -3.1275   -6.5176    0.0000 N   0  0  0  0  0  0  0  0  0  0  0  0
   -3.1275   -5.0176    0.0000 H   0  0  0  0  0  0  0  0  0  0  0  0
   -4.4266   -7.2676    0.0000 C   0  0  0  0  0  0  0  0  0  0  0  0
   -4.4261   -8.7684    0.0000 C   0  0  0  0  0  0  0  0  0  0  0  0
   -5.7251   -9.5184    0.0000 C   0  0  0  0  0  0  0  0  0  0  0  0
   -7.0246   -8.7676    0.0000 N   0  0  0  0  0  0  0  0  0  0  0  0
   -7.0251   -7.2668    0.0000 C   0  0  0  0  0  0  0  0  0  0  0  0
   -5.7261   -6.5168    0.0000 N   0  0  0  0  0  0  0  0  0  0  0  0
   -5.7256   -3.5768    0.0000 C   0  0  0  0  0  0  0  0  0  0  0  0
   -4.2484   -3.8373    0.0000 H   0  0  0  0  0  0  0  0  0  0  0  0
   -5.2127   -2.1672    0.0000 C   0  0  0  0  0  0  0  0  0  0  0  0
   -3.9135   -2.9170    0.0000 H   0  0  0  0  0  0  0  0  0  0  0  0
   -6.1778   -1.0179    0.0000 C   0  0  0  0  0  0  0  0  0  0  0  0
   -4.8789   -0.2677    0.0000 H   0  0  0  0  0  0  0  0  0  0  0  0
   -7.6559   -1.2781    0.0000 C   0  0  0  0  0  0  0  0  0  0  0  0
   -7.6557    0.2219    0.0000 H   0  0  0  0  0  0  0  0  0  0  0  0
   -8.1689   -2.6877    0.0000 C   0  0  0  0  0  0  0  0  0  0  0  0
  -10.7152   -1.2181    0.0000 H   0  0  0  0  0  0  0  0  0  0  0  0
  -11.0641   -3.1990    0.0000 C   0  0  0  0  0  0  0  0  0  0  0  0
  -12.0286   -2.0501    0.0000 O   0  0  0  0  0  0  0  0  0  0  0  0
  -12.9481   -4.7807    0.0000 O   0  0  0  0  0  0  0  0  0  0  0  0
  -14.3578   -4.2681    0.0000 H   0  0  0  0  0  0  0  0  0  0  0  0
   -7.2037   -3.8370    0.0000 O   0  0  0  0  0  0  0  0  0  0  0  0
   -9.1331   -1.0175    0.0000 O   0  0  0  0  0  0  0  0  0  0  0  0
   -9.6461    0.3920    0.0000 H   0  0  0  0  0  0  0  0  0  0  0  0
   -6.6908    0.3917    0.0000 O   0  0  0  0  0  0  0  0  0  0  0  0
   -5.7265    1.5407    0.0000 H   0  0  0  0  0  0  0  0  0  0  0  0
   -4.2488   -1.0179    0.0000 O   0  0  0  0  0  0  0  0  0  0  0  0
   -2.7715   -1.2780    0.0000 H   0  0  0  0  0  0  0  0  0  0  0  0
   -8.3243   -6.5170    0.0000 C   0  0  0  0  0  0  0  0  0  0  0  0
   -8.3248   -5.0162    0.0000 N   0  0  0  0  0  0  0  0  0  0  0  0
   -9.6243   -4.2653    0.0000 C   0  0  0  0  0  0  0  0  0  0  0  0
   -9.6240   -2.7653    0.0000 H   0  0  0  0  0  0  0  0  0  0  0  0
  -10.9233   -5.0153    0.0000 C   0  0  0  0  0  0  0  0  0  0  0  0
  -12.2225   -4.2655    0.0000 H   0  0  0  0  0  0  0  0  0  0  0  0
  -10.9228   -6.5162    0.0000 C   0  0  0  0  0  0  0  0  0  0  0  0
  -12.2219   -7.2662    0.0000 H   0  0  0  0  0  0  0  0  0  0  0  0
   -9.6233   -7.2670    0.0000 N   0  0  0  0  0  0  0  0  0  0  0  0
   -5.7254  -11.0184    0.0000 O   0  0  0  0  0  0  0  0  0  0  0  0
   -7.0245  -11.7682    0.0000 C   0  0  0  0  0  0  0  0  0  0  0  0
   -7.5373  -10.3586    0.0000 H   0  0  0  0  0  0  0  0  0  0  0  0
   -8.5018  -12.0285    0.0000 H   0  0  0  0  0  0  0  0  0  0  0  0
   -7.0248  -13.2682    0.0000 C   0  0  0  0  0  0  0  0  0  0  0  0
   -6.5120  -14.6779    0.0000 H   0  0  0  0  0  0  0  0  0  0  0  0
   -5.5475  -13.0080    0.0000 H   0  0  0  0  0  0  0  0  0  0  0  0
   -8.3239  -14.0180    0.0000 O   0  0  0  0  0  0  0  0  0  0  0  0
   -8.3242  -15.5180    0.0000 H   0  0  0  0  0  0  0  0  0  0  0  0
   -2.2955   -9.9981    0.0000 O   0  0  0  0  0  0  0  0  0  0  0  0
   -2.2952  -11.4981    0.0000 C   0  0  0  0  0  0  0  0  0  0  0  0
   -0.9964  -12.2501    0.0000 C   0  0  0  0  0  0  0  0  0  0  0  0
   -0.9986  -13.7501    0.0000 C   0  0  0  0  0  0  0  0  0  0  0  0
    0.2991  -14.5022    0.0000 H   0  0  0  0  0  0  0  0  0  0  0  0
   -2.2998  -14.4981    0.0000 C   0  0  0  0  0  0  0  0  0  0  0  0
   -2.3046  -15.9981    0.0000 H   0  0  0  0  0  0  0  0  0  0  0  0
   -3.5886  -13.7462    0.0000 C   0  0  0  0  0  0  0  0  0  0  0  0
   -4.8899  -14.4922    0.0000 H   0  0  0  0  0  0  0  0  0  0  0  0
   -3.5864  -12.2462    0.0000 C   0  0  0  0  0  0  0  0  0  0  0  0
   -4.8854  -11.4962    0.0000 H   0  0  0  0  0  0  0  0  0  0  0  0
    0.3037  -11.5018    0.0000 O   0  0  0  0  0  0  0  0  0  0  0  0
    1.6017  -12.2536    0.0000 C   0  0  0  0  0  0  0  0  0  0  0  0
    1.5997  -13.7536    0.0000 H   0  0  0  0  0  0  0  0  0  0  0  0
    3.0786  -12.5161    0.0000 H   0  0  0  0  0  0  0  0  0  0  0  0
    2.1166  -10.8447    0.0000 H   0  0  0  0  0  0  0  0  0  0  0  0
  1  2  1  0  0  0  0 
  1  3  1  0  0  0  0 
  1  4  1  0  0  0  0 
  1  5  1  0  0  0  0 
  5  6  1  0  0  0  0 
  6  7  1  0  0  0  0 
  6  8  1  0  0  0  0 
  6  9  1  0  0  0  0 
  5 10  1  0  0  0  0 
 10 11  1  0  0  0  0 
 10 12  1  0  0  0  0 
 10 13  1  0  0  0  0 
  5 14  1  0  0  0  0 
 14 15  2  0  0  0  0 
 15 16  1  0  0  0  0 
 15 17  1  0  0  0  0 
 17 18  1  0  0  0  0 
 17 19  2  0  0  0  0 
 19 20  1  0  0  0  0 
 20 21  1  0  0  0  0 
 20 22  2  0  0  0  0 
 14 22  1  0  0  0  0 
 22 23  1  0  0  0  0 
 19 24  1  0  0  0  0 
 24 25  2  0  0  0  0 
 24 26  2  0  0  0  0 
 24 27  1  0  0  0  0 
 27 28  1  0  0  0  0 
 27 29  1  0  0  0  0 
 29 30  2  0  0  0  0 
 30 31  1  0  0  0  0 
 31 32  2  0  0  0  0 
 32 33  1  0  0  0  0 
 33 34  2  0  0  0  0 
 29 34  1  0  0  0  0 
 34 35  1  0  0  0  0 
 35 36  1  0  0  0  0 
 35 37  1  0  0  0  0 
 37 38  1  0  0  0  0 
 37 39  1  0  0  0  0 
 39 40  1  0  0  0  0 
 39 41  1  0  0  0  0 
 41 42  1  0  0  0  0 
 41 43  1  0  0  0  0 
 43 44  1  0  0  0  0 
 43 45  1  0  0  0  0 
 45 46  2  0  0  0  0 
 45 47  1  0  0  0  0 
 47 48  1  0  0  0  0 
 43 49  1  0  0  0  0 
 35 49  1  0  0  0  0 
 41 50  1  0  0  0  0 
 50 51  1  0  0  0  0 
 39 52  1  0  0  0  0 
 52 53  1  0  0  0  0 
 37 54  1  0  0  0  0 
 54 55  1  0  0  0  0 
 33 56  1  0  0  0  0 
 56 57  2  0  0  0  0 
 57 58  1  0  0  0  0 
 58 59  1  0  0  0  0 
 58 60  2  0  0  0  0 
 60 61  1  0  0  0  0 
 60 62  1  0  0  0  0 
 62 63  1  0  0  0  0 
 62 64  2  0  0  0  0 
 56 64  1  0  0  0  0 
 31 65  1  0  0  0  0 
 65 66  1  0  0  0  0 
 66 67  1  0  0  0  0 
 66 68  1  0  0  0  0 
 66 69  1  0  0  0  0 
 69 70  1  0  0  0  0 
 69 71  1  0  0  0  0 
 69 72  1  0  0  0  0 
 72 73  1  0  0  0  0 
 30 74  1  0  0  0  0 
 74 75  1  0  0  0  0 
 75 76  2  0  0  0  0 
 76 77  1  0  0  0  0 
 77 78  1  0  0  0  0 
 77 79  2  0  0  0  0 
 79 80  1  0  0  0  0 
 79 81  1  0  0  0  0 
 81 82  1  0  0  0  0 
 81 83  2  0  0  0  0 
 75 83  1  0  0  0  0 
 83 84  1  0  0  0  0 
 76 85  1  0  0  0  0 
 85 86  1  0  0  0  0 
 86 87  1  0  0  0  0 
 86 88  1  0  0  0  0 
 86 89  1  0  0  0  0 
M  CHG  1  34   1
M  END
> <Rank>
31

> <Priority_score>
0.044

> <Reaction_type>
N-glucuronidation_(aromatic_=n-)

> <Parent_ID>
49

> <Parent_InChI>
InChI=1S/C27H29N5O6S/c1-27(2,3)18-10-12-19(13-11-18)39(34,35)32-23-22(38-21-9-6-5-8-20(21)36-4)26(37-17-16-33)31-25(30-23)24-28-14-7-15-29-24/h5-15,33H,16-17H2,1-4H3,(H,30,31,32)

> <Parent_SMILES>
COc1ccccc1Oc1c(NS(=O)(=O)c2ccc(C(C)(C)C)cc2)nc(-c2ncccn2)nc1OCCO

$$$$
Molecule 49_metabolite 32
  CDK     0516241031

 69 72  0  0  0  0  0  0  0  0999 V2000
    6.9936    2.6761    0.0000 C   0  0  0  0  0  0  0  0  0  0  0  0
    8.4936    2.6749    0.0000 H   0  0  0  0  0  0  0  0  0  0  0  0
    5.5845    3.1902    0.0000 H   0  0  0  0  0  0  0  0  0  0  0  0
    7.2553    4.1531    0.0000 H   0  0  0  0  0  0  0  0  0  0  0  0
    6.2426    1.3776    0.0000 C   0  0  0  0  0  0  0  0  0  0  0  0
    7.6517    0.8635    0.0000 C   0  0  0  0  0  0  0  0  0  0  0  0
    8.8015    1.8267    0.0000 H   0  0  0  0  0  0  0  0  0  0  0  0
    8.8000   -0.1016    0.0000 H   0  0  0  0  0  0  0  0  0  0  0  0
    6.9007   -0.4350    0.0000 H   0  0  0  0  0  0  0  0  0  0  0  0
    5.8972   -0.5720    0.0000 C   0  0  0  0  0  0  0  0  0  0  0  0
    7.0455   -1.5371    0.0000 H   0  0  0  0  0  0  0  0  0  0  0  0
    5.1461   -1.8705    0.0000 H   0  0  0  0  0  0  0  0  0  0  0  0
    4.4881   -0.0579    0.0000 H   0  0  0  0  0  0  0  0  0  0  0  0
    4.2626    1.3792    0.0000 C   0  0  0  0  0  0  0  0  0  0  0  0
    3.5109    0.0802    0.0000 C   0  0  0  0  0  0  0  0  0  0  0  0
    4.2601   -1.2193    0.0000 H   0  0  0  0  0  0  0  0  0  0  0  0
    2.0101    0.0807    0.0000 C   0  0  0  0  0  0  0  0  0  0  0  0
    1.2594   -1.2180    0.0000 H   0  0  0  0  0  0  0  0  0  0  0  0
    1.2609    1.3802    0.0000 C   0  0  0  0  0  0  0  0  0  0  0  0
    2.0126    2.6792    0.0000 C   0  0  0  0  0  0  0  0  0  0  0  0
    1.2634    3.9787    0.0000 H   0  0  0  0  0  0  0  0  0  0  0  0
    3.5134    2.6787    0.0000 C   0  0  0  0  0  0  0  0  0  0  0  0
    4.2640    3.9774    0.0000 O   0  0  0  0  0  0  0  0  0  0  0  0
    3.5146    5.2768    0.0000 H   0  0  0  0  0  0  0  0  0  0  0  0
   -0.2391    1.3814    0.0000 S   0  0  0  0  0  0  0  0  0  0  0  0
   -1.6490    0.8695    0.0000 O   0  0  0  0  0  0  0  0  0  0  0  0
    0.0202   -0.0960    0.0000 O   0  0  0  0  0  0  0  0  0  0  0  0
   -0.9881    2.6810    0.0000 N   0  0  0  0  0  0  0  0  0  0  0  0
   -0.2370    3.9795    0.0000 H   0  0  0  0  0  0  0  0  0  0  0  0
   -2.4881    2.6822    0.0000 C   0  0  0  0  0  0  0  0  0  0  0  0
   -3.2397    1.3832    0.0000 N   0  0  0  0  0  0  0  0  0  0  0  0
   -4.7406    1.3837    0.0000 C   0  0  0  0  0  0  0  0  0  0  0  0
   -5.4897    2.6832    0.0000 N   0  0  0  0  0  0  0  0  0  0  0  0
   -4.7381    3.9822    0.0000 C   0  0  0  0  0  0  0  0  0  0  0  0
   -3.2372    3.9817    0.0000 C   0  0  0  0  0  0  0  0  0  0  0  0
   -2.0062    6.1116    0.0000 O   0  0  0  0  0  0  0  0  0  0  0  0
   -2.7556    7.4110    0.0000 C   0  0  0  0  0  0  0  0  0  0  0  0
   -2.0063    8.7114    0.0000 C   0  0  0  0  0  0  0  0  0  0  0  0
   -2.7578   10.0095    0.0000 C   0  0  0  0  0  0  0  0  0  0  0  0
   -2.0096   11.3096    0.0000 H   0  0  0  0  0  0  0  0  0  0  0  0
   -4.2587   10.0073    0.0000 C   0  0  0  0  0  0  0  0  0  0  0  0
   -5.0124   11.3041    0.0000 H   0  0  0  0  0  0  0  0  0  0  0  0
   -4.9993    8.7118    0.0000 C   0  0  0  0  0  0  0  0  0  0  0  0
   -6.4993    8.7078    0.0000 H   0  0  0  0  0  0  0  0  0  0  0  0
   -4.2478    7.4137    0.0000 C   0  0  0  0  0  0  0  0  0  0  0  0
   -4.9982    6.1149    0.0000 H   0  0  0  0  0  0  0  0  0  0  0  0
   -0.5063    8.7129    0.0000 O   0  0  0  0  0  0  0  0  0  0  0  0
    0.2424   10.0127    0.0000 C   0  0  0  0  0  0  0  0  0  0  0  0
   -0.5090   11.3110    0.0000 H   0  0  0  0  0  0  0  0  0  0  0  0
    1.3904   10.9781    0.0000 H   0  0  0  0  0  0  0  0  0  0  0  0
    1.3924    9.0498    0.0000 H   0  0  0  0  0  0  0  0  0  0  0  0
   -5.4872    5.2817    0.0000 O   0  0  0  0  0  0  0  0  0  0  0  0
   -6.9872    5.2827    0.0000 C   0  0  0  0  0  0  0  0  0  0  0  0
   -8.3971    4.7706    0.0000 H   0  0  0  0  0  0  0  0  0  0  0  0
   -6.7277    3.8053    0.0000 H   0  0  0  0  0  0  0  0  0  0  0  0
   -7.7364    6.5822    0.0000 C   0  0  0  0  0  0  0  0  0  0  0  0
   -6.3265    7.0943    0.0000 H   0  0  0  0  0  0  0  0  0  0  0  0
   -7.9959    8.0596    0.0000 H   0  0  0  0  0  0  0  0  0  0  0  0
   -9.2364    6.5832    0.0000 O   0  0  0  0  0  0  0  0  0  0  0  0
   -9.9856    7.8827    0.0000 H   0  0  0  0  0  0  0  0  0  0  0  0
   -5.4912    0.0850    0.0000 C   0  0  0  0  0  0  0  0  0  0  0  0
   -6.9920    0.0855    0.0000 N   0  0  0  0  0  0  0  0  0  0  0  0
   -7.7437   -1.2136    0.0000 C   0  0  0  0  0  0  0  0  0  0  0  0
   -9.2437   -1.2124    0.0000 H   0  0  0  0  0  0  0  0  0  0  0  0
   -6.9945   -2.5131    0.0000 C   0  0  0  0  0  0  0  0  0  0  0  0
   -7.7451   -3.8118    0.0000 H   0  0  0  0  0  0  0  0  0  0  0  0
   -5.4937   -2.5136    0.0000 C   0  0  0  0  0  0  0  0  0  0  0  0
   -4.7445   -3.8131    0.0000 H   0  0  0  0  0  0  0  0  0  0  0  0
   -4.7420   -1.2145    0.0000 N   0  0  0  0  0  0  0  0  0  0  0  0
  1  2  1  0  0  0  0 
  1  3  1  0  0  0  0 
  1  4  1  0  0  0  0 
  1  5  1  0  0  0  0 
  5  6  1  0  0  0  0 
  6  7  1  0  0  0  0 
  6  8  1  0  0  0  0 
  6  9  1  0  0  0  0 
  5 10  1  0  0  0  0 
 10 11  1  0  0  0  0 
 10 12  1  0  0  0  0 
 10 13  1  0  0  0  0 
  5 14  1  0  0  0  0 
 14 15  2  0  0  0  0 
 15 16  1  0  0  0  0 
 15 17  1  0  0  0  0 
 17 18  1  0  0  0  0 
 17 19  2  0  0  0  0 
 19 20  1  0  0  0  0 
 20 21  1  0  0  0  0 
 20 22  2  0  0  0  0 
 14 22  1  0  0  0  0 
 22 23  1  0  0  0  0 
 23 24  1  0  0  0  0 
 19 25  1  0  0  0  0 
 25 26  2  0  0  0  0 
 25 27  2  0  0  0  0 
 25 28  1  0  0  0  0 
 28 29  1  0  0  0  0 
 28 30  1  0  0  0  0 
 30 31  2  0  0  0  0 
 31 32  1  0  0  0  0 
 32 33  2  0  0  0  0 
 33 34  1  0  0  0  0 
 34 35  2  0  0  0  0 
 30 35  1  0  0  0  0 
 35 36  1  0  0  0  0 
 36 37  1  0  0  0  0 
 37 38  2  0  0  0  0 
 38 39  1  0  0  0  0 
 39 40  1  0  0  0  0 
 39 41  2  0  0  0  0 
 41 42  1  0  0  0  0 
 41 43  1  0  0  0  0 
 43 44  1  0  0  0  0 
 43 45  2  0  0  0  0 
 37 45  1  0  0  0  0 
 45 46  1  0  0  0  0 
 38 47  1  0  0  0  0 
 47 48  1  0  0  0  0 
 48 49  1  0  0  0  0 
 48 50  1  0  0  0  0 
 48 51  1  0  0  0  0 
 34 52  1  0  0  0  0 
 52 53  1  0  0  0  0 
 53 54  1  0  0  0  0 
 53 55  1  0  0  0  0 
 53 56  1  0  0  0  0 
 56 57  1  0  0  0  0 
 56 58  1  0  0  0  0 
 56 59  1  0  0  0  0 
 59 60  1  0  0  0  0 
 32 61  1  0  0  0  0 
 61 62  2  0  0  0  0 
 62 63  1  0  0  0  0 
 63 64  1  0  0  0  0 
 63 65  2  0  0  0  0 
 65 66  1  0  0  0  0 
 65 67  1  0  0  0  0 
 67 68  1  0  0  0  0 
 67 69  2  0  0  0  0 
 61 69  1  0  0  0  0 
M  END
> <Rank>
32

> <Priority_score>
0.04

> <Reaction_type>
aromatic hydroxylation

> <Parent_ID>
49

> <Parent_InChI>
InChI=1S/C27H29N5O6S/c1-27(2,3)18-10-12-19(13-11-18)39(34,35)32-23-22(38-21-9-6-5-8-20(21)36-4)26(37-17-16-33)31-25(30-23)24-28-14-7-15-29-24/h5-15,33H,16-17H2,1-4H3,(H,30,31,32)

> <Parent_SMILES>
COc1ccccc1Oc1c(NS(=O)(=O)c2ccc(C(C)(C)C)cc2)nc(-c2ncccn2)nc1OCCO

$$$$
Molecule 49_metabolite 33
  CDK     0516241031

 69 72  0  0  0  0  0  0  0  0999 V2000
   -9.5737   -6.3416    0.0000 C   0  0  0  0  0  0  0  0  0  0  0  0
  -10.8723   -7.0923    0.0000 H   0  0  0  0  0  0  0  0  0  0  0  0
   -8.0966   -6.0805    0.0000 H   0  0  0  0  0  0  0  0  0  0  0  0
   -9.0600   -7.7509    0.0000 H   0  0  0  0  0  0  0  0  0  0  0  0
   -9.5744   -4.8416    0.0000 C   0  0  0  0  0  0  0  0  0  0  0  0
  -12.4695   -5.3536    0.0000 C   0  0  0  0  0  0  0  0  0  0  0  0
  -12.9818   -6.7633    0.0000 H   0  0  0  0  0  0  0  0  0  0  0  0
  -13.9468   -5.0938    0.0000 H   0  0  0  0  0  0  0  0  0  0  0  0
  -12.4702   -3.8536    0.0000 H   0  0  0  0  0  0  0  0  0  0  0  0
  -10.0881   -3.4323    0.0000 C   0  0  0  0  0  0  0  0  0  0  0  0
   -9.1245   -2.2828    0.0000 H   0  0  0  0  0  0  0  0  0  0  0  0
  -11.0528   -2.2837    0.0000 H   0  0  0  0  0  0  0  0  0  0  0  0
  -11.3868   -4.1830    0.0000 H   0  0  0  0  0  0  0  0  0  0  0  0
   -7.4446   -3.6106    0.0000 C   0  0  0  0  0  0  0  0  0  0  0  0
   -6.1443   -4.3602    0.0000 C   0  0  0  0  0  0  0  0  0  0  0  0
   -6.1438   -5.8602    0.0000 H   0  0  0  0  0  0  0  0  0  0  0  0
   -4.8446   -3.6098    0.0000 C   0  0  0  0  0  0  0  0  0  0  0  0
   -3.5454   -4.3596    0.0000 H   0  0  0  0  0  0  0  0  0  0  0  0
   -4.8450   -2.1098    0.0000 C   0  0  0  0  0  0  0  0  0  0  0  0
   -6.1453   -1.3602    0.0000 C   0  0  0  0  0  0  0  0  0  0  0  0
   -7.4450   -2.1106    0.0000 C   0  0  0  0  0  0  0  0  0  0  0  0
   -8.7442   -1.3608    0.0000 H   0  0  0  0  0  0  0  0  0  0  0  0
   -6.1458    0.1398    0.0000 O   0  0  0  0  0  0  0  0  0  0  0  0
   -7.4450    0.8894    0.0000 H   0  0  0  0  0  0  0  0  0  0  0  0
   -3.5464   -1.3592    0.0000 S   0  0  0  0  0  0  0  0  0  0  0  0
   -2.0693   -1.0980    0.0000 O   0  0  0  0  0  0  0  0  0  0  0  0
   -3.0327   -2.7685    0.0000 O   0  0  0  0  0  0  0  0  0  0  0  0
   -3.5471    0.1408    0.0000 N   0  0  0  0  0  0  0  0  0  0  0  0
   -4.8465    0.8902    0.0000 H   0  0  0  0  0  0  0  0  0  0  0  0
   -2.2484    0.8915    0.0000 C   0  0  0  0  0  0  0  0  0  0  0  0
   -0.9482    0.1419    0.0000 N   0  0  0  0  0  0  0  0  0  0  0  0
    0.3516    0.8923    0.0000 C   0  0  0  0  0  0  0  0  0  0  0  0
    0.3511    2.3923    0.0000 N   0  0  0  0  0  0  0  0  0  0  0  0
   -0.9491    3.1419    0.0000 C   0  0  0  0  0  0  0  0  0  0  0  0
   -2.2489    2.3915    0.0000 C   0  0  0  0  0  0  0  0  0  0  0  0
   -4.3795    3.6211    0.0000 O   0  0  0  0  0  0  0  0  0  0  0  0
   -4.3797    5.1211    0.0000 C   0  0  0  0  0  0  0  0  0  0  0  0
   -5.6786    5.8731    0.0000 C   0  0  0  0  0  0  0  0  0  0  0  0
   -5.6763    7.3731    0.0000 C   0  0  0  0  0  0  0  0  0  0  0  0
   -6.9741    8.1253    0.0000 H   0  0  0  0  0  0  0  0  0  0  0  0
   -4.3752    8.1211    0.0000 C   0  0  0  0  0  0  0  0  0  0  0  0
   -4.3704    9.6211    0.0000 H   0  0  0  0  0  0  0  0  0  0  0  0
   -3.0863    7.3692    0.0000 C   0  0  0  0  0  0  0  0  0  0  0  0
   -1.7850    8.1152    0.0000 H   0  0  0  0  0  0  0  0  0  0  0  0
   -3.0886    5.8692    0.0000 C   0  0  0  0  0  0  0  0  0  0  0  0
   -1.7896    5.1192    0.0000 H   0  0  0  0  0  0  0  0  0  0  0  0
   -6.9787    5.1249    0.0000 O   0  0  0  0  0  0  0  0  0  0  0  0
   -8.2767    5.8766    0.0000 C   0  0  0  0  0  0  0  0  0  0  0  0
   -8.2747    7.3766    0.0000 H   0  0  0  0  0  0  0  0  0  0  0  0
   -9.7535    6.1391    0.0000 H   0  0  0  0  0  0  0  0  0  0  0  0
   -8.7916    4.4678    0.0000 H   0  0  0  0  0  0  0  0  0  0  0  0
   -0.9496    4.6419    0.0000 O   0  0  0  0  0  0  0  0  0  0  0  0
    0.3492    5.3923    0.0000 C   0  0  0  0  0  0  0  0  0  0  0  0
    1.8263    5.6532    0.0000 H   0  0  0  0  0  0  0  0  0  0  0  0
    0.8627    3.9829    0.0000 H   0  0  0  0  0  0  0  0  0  0  0  0
    0.3487    6.8923    0.0000 C   0  0  0  0  0  0  0  0  0  0  0  0
   -1.1284    6.6314    0.0000 H   0  0  0  0  0  0  0  0  0  0  0  0
   -0.1648    8.3017    0.0000 H   0  0  0  0  0  0  0  0  0  0  0  0
    1.6475    7.6427    0.0000 O   0  0  0  0  0  0  0  0  0  0  0  0
    1.6470    9.1427    0.0000 H   0  0  0  0  0  0  0  0  0  0  0  0
    1.6508    0.1425    0.0000 C   0  0  0  0  0  0  0  0  0  0  0  0
    2.9505    0.8929    0.0000 N   0  0  0  0  0  0  0  0  0  0  0  0
    4.2508    0.1433    0.0000 C   0  0  0  0  0  0  0  0  0  0  0  0
    5.5494    0.8940    0.0000 H   0  0  0  0  0  0  0  0  0  0  0  0
    4.2512   -1.3567    0.0000 C   0  0  0  0  0  0  0  0  0  0  0  0
    5.5504   -2.1065    0.0000 H   0  0  0  0  0  0  0  0  0  0  0  0
    2.9515   -2.1071    0.0000 C   0  0  0  0  0  0  0  0  0  0  0  0
    2.9520   -3.6071    0.0000 H   0  0  0  0  0  0  0  0  0  0  0  0
    1.6512   -1.3575    0.0000 N   0  0  0  0  0  0  0  0  0  0  0  0
  1  2  1  0  0  0  0 
  1  3  1  0  0  0  0 
  1  4  1  0  0  0  0 
  1  5  1  0  0  0  0 
  5  6  1  0  0  0  0 
  6  7  1  0  0  0  0 
  6  8  1  0  0  0  0 
  6  9  1  0  0  0  0 
  5 10  1  0  0  0  0 
 10 11  1  0  0  0  0 
 10 12  1  0  0  0  0 
 10 13  1  0  0  0  0 
  5 14  1  0  0  0  0 
 14 15  2  0  0  0  0 
 15 16  1  0  0  0  0 
 15 17  1  0  0  0  0 
 17 18  1  0  0  0  0 
 17 19  2  0  0  0  0 
 19 20  1  0  0  0  0 
 20 21  2  0  0  0  0 
 14 21  1  0  0  0  0 
 21 22  1  0  0  0  0 
 20 23  1  0  0  0  0 
 23 24  1  0  0  0  0 
 19 25  1  0  0  0  0 
 25 26  2  0  0  0  0 
 25 27  2  0  0  0  0 
 25 28  1  0  0  0  0 
 28 29  1  0  0  0  0 
 28 30  1  0  0  0  0 
 30 31  2  0  0  0  0 
 31 32  1  0  0  0  0 
 32 33  2  0  0  0  0 
 33 34  1  0  0  0  0 
 34 35  2  0  0  0  0 
 30 35  1  0  0  0  0 
 35 36  1  0  0  0  0 
 36 37  1  0  0  0  0 
 37 38  2  0  0  0  0 
 38 39  1  0  0  0  0 
 39 40  1  0  0  0  0 
 39 41  2  0  0  0  0 
 41 42  1  0  0  0  0 
 41 43  1  0  0  0  0 
 43 44  1  0  0  0  0 
 43 45  2  0  0  0  0 
 37 45  1  0  0  0  0 
 45 46  1  0  0  0  0 
 38 47  1  0  0  0  0 
 47 48  1  0  0  0  0 
 48 49  1  0  0  0  0 
 48 50  1  0  0  0  0 
 48 51  1  0  0  0  0 
 34 52  1  0  0  0  0 
 52 53  1  0  0  0  0 
 53 54  1  0  0  0  0 
 53 55  1  0  0  0  0 
 53 56  1  0  0  0  0 
 56 57  1  0  0  0  0 
 56 58  1  0  0  0  0 
 56 59  1  0  0  0  0 
 59 60  1  0  0  0  0 
 32 61  1  0  0  0  0 
 61 62  2  0  0  0  0 
 62 63  1  0  0  0  0 
 63 64  1  0  0  0  0 
 63 65  2  0  0  0  0 
 65 66  1  0  0  0  0 
 65 67  1  0  0  0  0 
 67 68  1  0  0  0  0 
 67 69  2  0  0  0  0 
 61 69  1  0  0  0  0 
M  END
> <Rank>
32

> <Priority_score>
0.04

> <Reaction_type>
aromatic_hydroxylation_(meta_to_carbon)

> <Parent_ID>
49

> <Parent_InChI>
InChI=1S/C27H29N5O6S/c1-27(2,3)18-10-12-19(13-11-18)39(34,35)32-23-22(38-21-9-6-5-8-20(21)36-4)26(37-17-16-33)31-25(30-23)24-28-14-7-15-29-24/h5-15,33H,16-17H2,1-4H3,(H,30,31,32)

> <Parent_SMILES>
COc1ccccc1Oc1c(NS(=O)(=O)c2ccc(C(C)(C)C)cc2)nc(-c2ncccn2)nc1OCCO

$$$$
Molecule 49_metabolite 34
  CDK     0516241031

 89 93  0  0  0  0  0  0  0  0999 V2000
    6.4070    2.3477    0.0000 C   0  0  0  0  0  0  0  0  0  0  0  0
    7.8843    2.0879    0.0000 H   0  0  0  0  0  0  0  0  0  0  0  0
    5.1076    3.0971    0.0000 H   0  0  0  0  0  0  0  0  0  0  0  0
    6.9193    3.7575    0.0000 H   0  0  0  0  0  0  0  0  0  0  0  0
    5.4433    1.1981    0.0000 C   0  0  0  0  0  0  0  0  0  0  0  0
    7.5744   -0.0308    0.0000 C   0  0  0  0  0  0  0  0  0  0  0  0
    8.8730    0.7198    0.0000 H   0  0  0  0  0  0  0  0  0  0  0  0
    8.5391   -1.1794    0.0000 H   0  0  0  0  0  0  0  0  0  0  0  0
    6.6107   -1.1804    0.0000 H   0  0  0  0  0  0  0  0  0  0  0  0
    4.9310   -0.2116    0.0000 C   0  0  0  0  0  0  0  0  0  0  0  0
    5.8957   -1.3602    0.0000 H   0  0  0  0  0  0  0  0  0  0  0  0
    3.9674   -1.3612    0.0000 H   0  0  0  0  0  0  0  0  0  0  0  0
    3.6316    0.5377    0.0000 H   0  0  0  0  0  0  0  0  0  0  0  0
    3.0205    1.6242    0.0000 C   0  0  0  0  0  0  0  0  0  0  0  0
    2.0562    0.4741    0.0000 C   0  0  0  0  0  0  0  0  0  0  0  0
    2.5701   -0.9351    0.0000 H   0  0  0  0  0  0  0  0  0  0  0  0
    0.5779    0.7333    0.0000 C   0  0  0  0  0  0  0  0  0  0  0  0
   -0.3854   -0.4165    0.0000 H   0  0  0  0  0  0  0  0  0  0  0  0
    0.0639    2.1426    0.0000 C   0  0  0  0  0  0  0  0  0  0  0  0
    1.0283    3.2926    0.0000 C   0  0  0  0  0  0  0  0  0  0  0  0
    0.5144    4.7018    0.0000 H   0  0  0  0  0  0  0  0  0  0  0  0
    2.5066    3.0334    0.0000 C   0  0  0  0  0  0  0  0  0  0  0  0
    3.4698    4.1832    0.0000 H   0  0  0  0  0  0  0  0  0  0  0  0
   -1.4134    2.4023    0.0000 S   0  0  0  0  0  0  0  0  0  0  0  0
   -2.7128    3.1517    0.0000 O   0  0  0  0  0  0  0  0  0  0  0  0
   -0.9010    3.8121    0.0000 O   0  0  0  0  0  0  0  0  0  0  0  0
   -2.3770    1.2528    0.0000 N   0  0  0  0  0  0  0  0  0  0  0  0
   -1.8633   -0.1565    0.0000 H   0  0  0  0  0  0  0  0  0  0  0  0
   -3.8544    1.5125    0.0000 C   0  0  0  0  0  0  0  0  0  0  0  0
   -4.3686    2.9225    0.0000 N   0  0  0  0  0  0  0  0  0  0  0  0
   -5.8466    3.1832    0.0000 C   0  0  0  0  0  0  0  0  0  0  0  0
   -6.8104    2.0338    0.0000 N   0  0  0  0  0  0  0  0  0  0  0  0
   -8.7605    2.3767    0.0000 C   0  0  0  0  0  0  0  0  0  0  0  0
   -8.3324   -0.0458    0.0000 H   0  0  0  0  0  0  0  0  0  0  0  0
  -10.1699    1.8633    0.0000 C   0  0  0  0  0  0  0  0  0  0  0  0
   -9.4197    0.5643    0.0000 H   0  0  0  0  0  0  0  0  0  0  0  0
  -11.3196    2.8280    0.0000 C   0  0  0  0  0  0  0  0  0  0  0  0
  -12.0694    1.5289    0.0000 H   0  0  0  0  0  0  0  0  0  0  0  0
  -11.0598    4.3062    0.0000 C   0  0  0  0  0  0  0  0  0  0  0  0
  -12.5598    4.3055    0.0000 H   0  0  0  0  0  0  0  0  0  0  0  0
   -9.6504    4.8196    0.0000 C   0  0  0  0  0  0  0  0  0  0  0  0
  -10.4006    6.1185    0.0000 H   0  0  0  0  0  0  0  0  0  0  0  0
   -8.6863    5.9687    0.0000 C   0  0  0  0  0  0  0  0  0  0  0  0
   -7.2091    5.7084    0.0000 O   0  0  0  0  0  0  0  0  0  0  0  0
   -9.1994    7.3783    0.0000 O   0  0  0  0  0  0  0  0  0  0  0  0
  -10.6766    7.6387    0.0000 H   0  0  0  0  0  0  0  0  0  0  0  0
   -8.5008    3.8549    0.0000 O   0  0  0  0  0  0  0  0  0  0  0  0
  -11.3208    5.7833    0.0000 O   0  0  0  0  0  0  0  0  0  0  0  0
  -12.7306    6.2958    0.0000 H   0  0  0  0  0  0  0  0  0  0  0  0
  -12.7293    3.3405    0.0000 O   0  0  0  0  0  0  0  0  0  0  0  0
  -13.8780    2.3759    0.0000 H   0  0  0  0  0  0  0  0  0  0  0  0
  -12.0543    0.2819    0.0000 O   0  0  0  0  0  0  0  0  0  0  0  0
  -13.4639    0.7949    0.0000 H   0  0  0  0  0  0  0  0  0  0  0  0
   -6.2962    0.6238    0.0000 C   0  0  0  0  0  0  0  0  0  0  0  0
   -4.8182    0.3632    0.0000 C   0  0  0  0  0  0  0  0  0  0  0  0
   -3.9764   -1.9483    0.0000 O   0  0  0  0  0  0  0  0  0  0  0  0
   -4.9404   -3.0976    0.0000 C   0  0  0  0  0  0  0  0  0  0  0  0
   -4.4288   -4.5085    0.0000 C   0  0  0  0  0  0  0  0  0  0  0  0
   -5.3947   -5.6561    0.0000 C   0  0  0  0  0  0  0  0  0  0  0  0
   -4.8840   -7.0665    0.0000 H   0  0  0  0  0  0  0  0  0  0  0  0
   -6.8723   -5.3928    0.0000 C   0  0  0  0  0  0  0  0  0  0  0  0
   -7.8401   -6.5388    0.0000 H   0  0  0  0  0  0  0  0  0  0  0  0
   -7.3763   -3.9883    0.0000 C   0  0  0  0  0  0  0  0  0  0  0  0
   -8.8527   -3.7233    0.0000 H   0  0  0  0  0  0  0  0  0  0  0  0
   -6.4103   -2.8407    0.0000 C   0  0  0  0  0  0  0  0  0  0  0  0
   -6.9234   -1.4311    0.0000 H   0  0  0  0  0  0  0  0  0  0  0  0
   -2.9519   -4.7710    0.0000 O   0  0  0  0  0  0  0  0  0  0  0  0
   -2.4408   -6.1812    0.0000 C   0  0  0  0  0  0  0  0  0  0  0  0
   -3.4066   -7.3290    0.0000 H   0  0  0  0  0  0  0  0  0  0  0  0
   -1.4782   -7.3316    0.0000 H   0  0  0  0  0  0  0  0  0  0  0  0
   -1.1408   -5.4330    0.0000 H   0  0  0  0  0  0  0  0  0  0  0  0
   -7.5684   -0.8934    0.0000 O   0  0  0  0  0  0  0  0  0  0  0  0
   -9.5185   -0.5502    0.0000 C   0  0  0  0  0  0  0  0  0  0  0  0
  -10.8177    0.1994    0.0000 H   0  0  0  0  0  0  0  0  0  0  0  0
   -8.8419    1.3106    0.0000 H   0  0  0  0  0  0  0  0  0  0  0  0
  -10.4823   -1.6996    0.0000 C   0  0  0  0  0  0  0  0  0  0  0  0
   -9.1830   -2.4491    0.0000 H   0  0  0  0  0  0  0  0  0  0  0  0
  -10.9949   -3.1093    0.0000 H   0  0  0  0  0  0  0  0  0  0  0  0
  -11.9596   -1.4396    0.0000 O   0  0  0  0  0  0  0  0  0  0  0  0
  -12.9234   -2.5889    0.0000 H   0  0  0  0  0  0  0  0  0  0  0  0
   -5.8471    6.1232    0.0000 C   0  0  0  0  0  0  0  0  0  0  0  0
   -7.1468    6.8736    0.0000 N   0  0  0  0  0  0  0  0  0  0  0  0
   -7.1478    8.3744    0.0000 C   0  0  0  0  0  0  0  0  0  0  0  0
   -8.4472    9.1238    0.0000 H   0  0  0  0  0  0  0  0  0  0  0  0
   -5.8490    9.1248    0.0000 C   0  0  0  0  0  0  0  0  0  0  0  0
   -5.8492   10.6248    0.0000 H   0  0  0  0  0  0  0  0  0  0  0  0
   -4.5492    8.3744    0.0000 C   0  0  0  0  0  0  0  0  0  0  0  0
   -3.2504    9.1248    0.0000 H   0  0  0  0  0  0  0  0  0  0  0  0
   -4.5483    6.8736    0.0000 N   0  0  0  0  0  0  0  0  0  0  0  0
  1  2  1  0  0  0  0 
  1  3  1  0  0  0  0 
  1  4  1  0  0  0  0 
  1  5  1  0  0  0  0 
  5  6  1  0  0  0  0 
  6  7  1  0  0  0  0 
  6  8  1  0  0  0  0 
  6  9  1  0  0  0  0 
  5 10  1  0  0  0  0 
 10 11  1  0  0  0  0 
 10 12  1  0  0  0  0 
 10 13  1  0  0  0  0 
  5 14  1  0  0  0  0 
 14 15  2  0  0  0  0 
 15 16  1  0  0  0  0 
 15 17  1  0  0  0  0 
 17 18  1  0  0  0  0 
 17 19  2  0  0  0  0 
 19 20  1  0  0  0  0 
 20 21  1  0  0  0  0 
 20 22  2  0  0  0  0 
 14 22  1  0  0  0  0 
 22 23  1  0  0  0  0 
 19 24  1  0  0  0  0 
 24 25  2  0  0  0  0 
 24 26  2  0  0  0  0 
 24 27  1  0  0  0  0 
 27 28  1  0  0  0  0 
 27 29  1  0  0  0  0 
 29 30  2  0  0  0  0 
 30 31  1  0  0  0  0 
 31 32  2  0  0  0  0 
 32 33  1  0  0  0  0 
 33 34  1  0  0  0  0 
 33 35  1  0  0  0  0 
 35 36  1  0  0  0  0 
 35 37  1  0  0  0  0 
 37 38  1  0  0  0  0 
 37 39  1  0  0  0  0 
 39 40  1  0  0  0  0 
 39 41  1  0  0  0  0 
 41 42  1  0  0  0  0 
 41 43  1  0  0  0  0 
 43 44  2  0  0  0  0 
 43 45  1  0  0  0  0 
 45 46  1  0  0  0  0 
 41 47  1  0  0  0  0 
 33 47  1  0  0  0  0 
 39 48  1  0  0  0  0 
 48 49  1  0  0  0  0 
 37 50  1  0  0  0  0 
 50 51  1  0  0  0  0 
 35 52  1  0  0  0  0 
 52 53  1  0  0  0  0 
 32 54  1  0  0  0  0 
 54 55  2  0  0  0  0 
 29 55  1  0  0  0  0 
 55 56  1  0  0  0  0 
 56 57  1  0  0  0  0 
 57 58  2  0  0  0  0 
 58 59  1  0  0  0  0 
 59 60  1  0  0  0  0 
 59 61  2  0  0  0  0 
 61 62  1  0  0  0  0 
 61 63  1  0  0  0  0 
 63 64  1  0  0  0  0 
 63 65  2  0  0  0  0 
 57 65  1  0  0  0  0 
 65 66  1  0  0  0  0 
 58 67  1  0  0  0  0 
 67 68  1  0  0  0  0 
 68 69  1  0  0  0  0 
 68 70  1  0  0  0  0 
 68 71  1  0  0  0  0 
 54 72  1  0  0  0  0 
 72 73  1  0  0  0  0 
 73 74  1  0  0  0  0 
 73 75  1  0  0  0  0 
 73 76  1  0  0  0  0 
 76 77  1  0  0  0  0 
 76 78  1  0  0  0  0 
 76 79  1  0  0  0  0 
 79 80  1  0  0  0  0 
 31 81  1  0  0  0  0 
 81 82  2  0  0  0  0 
 82 83  1  0  0  0  0 
 83 84  1  0  0  0  0 
 83 85  2  0  0  0  0 
 85 86  1  0  0  0  0 
 85 87  1  0  0  0  0 
 87 88  1  0  0  0  0 
 87 89  2  0  0  0  0 
 81 89  1  0  0  0  0 
M  CHG  1  32   1
M  END
> <Rank>
32

> <Priority_score>
0.04

> <Reaction_type>
N-glucuronidation_(aromatic_=n-)

> <Parent_ID>
49

> <Parent_InChI>
InChI=1S/C27H29N5O6S/c1-27(2,3)18-10-12-19(13-11-18)39(34,35)32-23-22(38-21-9-6-5-8-20(21)36-4)26(37-17-16-33)31-25(30-23)24-28-14-7-15-29-24/h5-15,33H,16-17H2,1-4H3,(H,30,31,32)

> <Parent_SMILES>
COc1ccccc1Oc1c(NS(=O)(=O)c2ccc(C(C)(C)C)cc2)nc(-c2ncccn2)nc1OCCO

$$$$
Molecule 49_metabolite 35
  CDK     0516241031

 54 56  0  0  0  0  0  0  0  0999 V2000
    6.9495    1.8330    0.0000 C   0  0  0  0  0  0  0  0  0  0  0  0
    8.2487    2.5828    0.0000 H   0  0  0  0  0  0  0  0  0  0  0  0
    5.9851    0.6841    0.0000 H   0  0  0  0  0  0  0  0  0  0  0  0
    7.9135    0.6838    0.0000 H   0  0  0  0  0  0  0  0  0  0  0  0
    5.6506    2.5833    0.0000 C   0  0  0  0  0  0  0  0  0  0  0  0
    7.5407    4.8351    0.0000 C   0  0  0  0  0  0  0  0  0  0  0  0
    9.0179    4.5744    0.0000 H   0  0  0  0  0  0  0  0  0  0  0  0
    8.0540    6.2446    0.0000 H   0  0  0  0  0  0  0  0  0  0  0  0
    6.2418    5.5853    0.0000 H   0  0  0  0  0  0  0  0  0  0  0  0
    4.6866    3.7325    0.0000 C   0  0  0  0  0  0  0  0  0  0  0  0
    3.2093    3.4722    0.0000 H   0  0  0  0  0  0  0  0  0  0  0  0
    4.1738    5.1421    0.0000 H   0  0  0  0  0  0  0  0  0  0  0  0
    5.9857    4.4823    0.0000 H   0  0  0  0  0  0  0  0  0  0  0  0
    3.5200    1.3536    0.0000 C   0  0  0  0  0  0  0  0  0  0  0  0
    2.2202    2.1040    0.0000 C   0  0  0  0  0  0  0  0  0  0  0  0
    2.2207    3.6040    0.0000 H   0  0  0  0  0  0  0  0  0  0  0  0
    0.9200    1.3544    0.0000 C   0  0  0  0  0  0  0  0  0  0  0  0
   -0.3787    2.1051    0.0000 H   0  0  0  0  0  0  0  0  0  0  0  0
    0.9195   -0.1456    0.0000 C   0  0  0  0  0  0  0  0  0  0  0  0
    2.2192   -0.8960    0.0000 C   0  0  0  0  0  0  0  0  0  0  0  0
    2.2188   -2.3960    0.0000 H   0  0  0  0  0  0  0  0  0  0  0  0
    3.5195   -0.1464    0.0000 C   0  0  0  0  0  0  0  0  0  0  0  0
    4.8182   -0.8970    0.0000 H   0  0  0  0  0  0  0  0  0  0  0  0
   -0.3797   -0.8954    0.0000 S   0  0  0  0  0  0  0  0  0  0  0  0
   -1.3440   -2.0443    0.0000 O   0  0  0  0  0  0  0  0  0  0  0  0
    0.5843   -2.0446    0.0000 O   0  0  0  0  0  0  0  0  0  0  0  0
   -1.6786   -0.1452    0.0000 N   0  0  0  0  0  0  0  0  0  0  0  0
   -1.6784    1.3548    0.0000 H   0  0  0  0  0  0  0  0  0  0  0  0
   -2.9778   -0.8949    0.0000 C   0  0  0  0  0  0  0  0  0  0  0  0
   -2.9782   -2.3958    0.0000 N   0  0  0  0  0  0  0  0  0  0  0  0
   -4.2778   -3.1466    0.0000 C   0  0  0  0  0  0  0  0  0  0  0  0
   -5.5768   -2.3966    0.0000 N   0  0  0  0  0  0  0  0  0  0  0  0
   -5.5763   -0.8958    0.0000 C   0  0  0  0  0  0  0  0  0  0  0  0
   -4.2768   -0.1449    0.0000 C   0  0  0  0  0  0  0  0  0  0  0  0
   -4.2770    1.3551    0.0000 O   0  0  0  0  0  0  0  0  0  0  0  0
   -5.5762    2.1048    0.0000 H   0  0  0  0  0  0  0  0  0  0  0  0
   -6.8753   -0.1458    0.0000 O   0  0  0  0  0  0  0  0  0  0  0  0
   -8.1744   -0.8958    0.0000 C   0  0  0  0  0  0  0  0  0  0  0  0
   -9.1386   -2.0448    0.0000 H   0  0  0  0  0  0  0  0  0  0  0  0
   -7.2102   -2.0448    0.0000 H   0  0  0  0  0  0  0  0  0  0  0  0
   -9.4734   -0.1458    0.0000 C   0  0  0  0  0  0  0  0  0  0  0  0
   -8.5092    1.0033    0.0000 H   0  0  0  0  0  0  0  0  0  0  0  0
  -10.4376    1.0033    0.0000 H   0  0  0  0  0  0  0  0  0  0  0  0
  -10.7725   -0.8958    0.0000 O   0  0  0  0  0  0  0  0  0  0  0  0
  -12.0715   -0.1458    0.0000 H   0  0  0  0  0  0  0  0  0  0  0  0
   -4.2775   -4.6466    0.0000 C   0  0  0  0  0  0  0  0  0  0  0  0
   -5.5770   -5.3974    0.0000 N   0  0  0  0  0  0  0  0  0  0  0  0
   -5.5775   -6.8983    0.0000 C   0  0  0  0  0  0  0  0  0  0  0  0
   -6.8767   -7.6481    0.0000 H   0  0  0  0  0  0  0  0  0  0  0  0
   -4.2785   -7.6483    0.0000 C   0  0  0  0  0  0  0  0  0  0  0  0
   -4.2782   -9.1483    0.0000 H   0  0  0  0  0  0  0  0  0  0  0  0
   -2.9790   -6.8974    0.0000 C   0  0  0  0  0  0  0  0  0  0  0  0
   -1.6799   -7.6474    0.0000 H   0  0  0  0  0  0  0  0  0  0  0  0
   -2.9785   -5.3966    0.0000 N   0  0  0  0  0  0  0  0  0  0  0  0
  1  2  1  0  0  0  0 
  1  3  1  0  0  0  0 
  1  4  1  0  0  0  0 
  1  5  1  0  0  0  0 
  5  6  1  0  0  0  0 
  6  7  1  0  0  0  0 
  6  8  1  0  0  0  0 
  6  9  1  0  0  0  0 
  5 10  1  0  0  0  0 
 10 11  1  0  0  0  0 
 10 12  1  0  0  0  0 
 10 13  1  0  0  0  0 
  5 14  1  0  0  0  0 
 14 15  2  0  0  0  0 
 15 16  1  0  0  0  0 
 15 17  1  0  0  0  0 
 17 18  1  0  0  0  0 
 17 19  2  0  0  0  0 
 19 20  1  0  0  0  0 
 20 21  1  0  0  0  0 
 20 22  2  0  0  0  0 
 14 22  1  0  0  0  0 
 22 23  1  0  0  0  0 
 19 24  1  0  0  0  0 
 24 25  2  0  0  0  0 
 24 26  2  0  0  0  0 
 24 27  1  0  0  0  0 
 27 28  1  0  0  0  0 
 27 29  1  0  0  0  0 
 29 30  2  0  0  0  0 
 30 31  1  0  0  0  0 
 31 32  2  0  0  0  0 
 32 33  1  0  0  0  0 
 33 34  2  0  0  0  0 
 29 34  1  0  0  0  0 
 34 35  1  0  0  0  0 
 35 36  1  0  0  0  0 
 33 37  1  0  0  0  0 
 37 38  1  0  0  0  0 
 38 39  1  0  0  0  0 
 38 40  1  0  0  0  0 
 38 41  1  0  0  0  0 
 41 42  1  0  0  0  0 
 41 43  1  0  0  0  0 
 41 44  1  0  0  0  0 
 44 45  1  0  0  0  0 
 31 46  1  0  0  0  0 
 46 47  2  0  0  0  0 
 47 48  1  0  0  0  0 
 48 49  1  0  0  0  0 
 48 50  2  0  0  0  0 
 50 51  1  0  0  0  0 
 50 52  1  0  0  0  0 
 52 53  1  0  0  0  0 
 52 54  2  0  0  0  0 
 46 54  1  0  0  0  0 
M  END
> <Rank>
35

> <Priority_score>
0.03671152720889409

> <Reaction_type>
O-dearylation

> <Parent_ID>
49

> <Parent_InChI>
InChI=1S/C27H29N5O6S/c1-27(2,3)18-10-12-19(13-11-18)39(34,35)32-23-22(38-21-9-6-5-8-20(21)36-4)26(37-17-16-33)31-25(30-23)24-28-14-7-15-29-24/h5-15,33H,16-17H2,1-4H3,(H,30,31,32)

> <Parent_SMILES>
COc1ccccc1Oc1c(NS(=O)(=O)c2ccc(C(C)(C)C)cc2)nc(-c2ncccn2)nc1OCCO

$$$$
Molecule 49_metabolite 36
  CDK     0516241031

 17 17  0  0  0  0  0  0  0  0999 V2000
    2.5932    0.7596    0.0000 C   0  0  0  0  0  0  0  0  0  0  0  0
    3.8909    1.5118    0.0000 H   0  0  0  0  0  0  0  0  0  0  0  0
    1.6309   -0.3911    0.0000 H   0  0  0  0  0  0  0  0  0  0  0  0
    3.5593   -0.3879    0.0000 H   0  0  0  0  0  0  0  0  0  0  0  0
    1.2929    1.5074    0.0000 O   0  0  0  0  0  0  0  0  0  0  0  0
   -0.0049    0.7552    0.0000 C   0  0  0  0  0  0  0  0  0  0  0  0
   -1.2994    1.4974    0.0000 C   0  0  0  0  0  0  0  0  0  0  0  0
   -1.3017    2.9974    0.0000 H   0  0  0  0  0  0  0  0  0  0  0  0
   -2.5985    0.7474    0.0000 C   0  0  0  0  0  0  0  0  0  0  0  0
   -3.1101    2.1575    0.0000 H   0  0  0  0  0  0  0  0  0  0  0  0
   -4.0762    0.4899    0.0000 H   0  0  0  0  0  0  0  0  0  0  0  0
   -2.6030   -0.7448    0.0000 C   0  0  0  0  0  0  0  0  0  0  0  0
   -3.9033   -1.4926    0.0000 H   0  0  0  0  0  0  0  0  0  0  0  0
   -1.3035   -1.4956    0.0000 C   0  0  0  0  0  0  0  0  0  0  0  0
   -1.3037   -2.9956    0.0000 H   0  0  0  0  0  0  0  0  0  0  0  0
   -0.0044   -0.7456    0.0000 C   0  0  0  0  0  0  0  0  0  0  0  0
    1.2947   -1.4954    0.0000 O   0  0  0  0  0  0  0  0  0  0  0  0
  1  2  1  0  0  0  0 
  1  3  1  0  0  0  0 
  1  4  1  0  0  0  0 
  1  5  1  0  0  0  0 
  5  6  1  0  0  0  0 
  6  7  2  0  0  0  0 
  7  8  1  0  0  0  0 
  7  9  1  0  0  0  0 
  9 10  1  0  0  0  0 
  9 11  1  0  0  0  0 
  9 12  1  0  0  0  0 
 12 13  1  0  0  0  0 
 12 14  2  0  0  0  0 
 14 15  1  0  0  0  0 
 14 16  1  0  0  0  0 
  6 16  1  0  0  0  0 
 16 17  2  0  0  0  0 
M  END
> <Rank>
35

> <Priority_score>
0.03671152720889409

> <Reaction_type>
O-dearylation

> <Parent_ID>
49

> <Parent_InChI>
InChI=1S/C27H29N5O6S/c1-27(2,3)18-10-12-19(13-11-18)39(34,35)32-23-22(38-21-9-6-5-8-20(21)36-4)26(37-17-16-33)31-25(30-23)24-28-14-7-15-29-24/h5-15,33H,16-17H2,1-4H3,(H,30,31,32)

> <Parent_SMILES>
COc1ccccc1Oc1c(NS(=O)(=O)c2ccc(C(C)(C)C)cc2)nc(-c2ncccn2)nc1OCCO

$$$$
Molecule 50
  CDK     0516241031

 40 44  0  0  0  0  0  0  0  0999 V2000
  -11.8094   -7.8987    0.0000 C   0  0  0  0  0  0  0  0  0  0  0  0
  -10.3180   -7.7380    0.0000 S   0  0  0  0  0  0  0  0  0  0  0  0
  -10.4187   -9.2346    0.0000 O   0  0  0  0  0  0  0  0  0  0  0  0
   -8.8616   -8.0971    0.0000 O   0  0  0  0  0  0  0  0  0  0  0  0
   -9.7115   -6.3661    0.0000 C   0  0  0  0  0  0  0  0  0  0  0  0
   -8.2201   -6.2054    0.0000 C   0  0  0  0  0  0  0  0  0  0  0  0
   -7.6136   -4.8335    0.0000 N   0  0  0  0  0  0  0  0  0  0  0  0
   -6.1222   -4.6728    0.0000 C   0  0  0  0  0  0  0  0  0  0  0  0
   -5.5157   -3.3009    0.0000 C   0  0  0  0  0  0  0  0  0  0  0  0
   -6.2724   -2.0032    0.0000 C   0  0  0  0  0  0  0  0  0  0  0  0
   -5.2703   -0.8871    0.0000 C   0  0  0  0  0  0  0  0  0  0  0  0
   -3.8989   -1.5002    0.0000 C   0  0  0  0  0  0  0  0  0  0  0  0
   -2.6000   -0.7500    0.0000 C   0  0  0  0  0  0  0  0  0  0  0  0
   -1.3000   -1.5000    0.0000 C   0  0  0  0  0  0  0  0  0  0  0  0
    0.0000   -0.7500    0.0000 C   0  0  0  0  0  0  0  0  0  0  0  0
    1.3000   -1.5000    0.0000 C   0  0  0  0  0  0  0  0  0  0  0  0
    2.6000   -0.7500    0.0000 N   0  0  0  0  0  0  0  0  0  0  0  0
    2.6000    0.7500    0.0000 C   0  0  0  0  0  0  0  0  0  0  0  0
    1.3000    1.5000    0.0000 N   0  0  0  0  0  0  0  0  0  0  0  0
    0.0000    0.7500    0.0000 C   0  0  0  0  0  0  0  0  0  0  0  0
   -1.3000    1.5000    0.0000 C   0  0  0  0  0  0  0  0  0  0  0  0
   -2.6000    0.7500    0.0000 C   0  0  0  0  0  0  0  0  0  0  0  0
    1.3000   -3.0000    0.0000 N   0  0  0  0  0  0  0  0  0  0  0  0
    2.5990   -3.7500    0.0000 C   0  0  0  0  0  0  0  0  0  0  0  0
    3.8989   -2.9998    0.0000 C   0  0  0  0  0  0  0  0  0  0  0  0
    5.1990   -3.7496    0.0000 C   0  0  0  0  0  0  0  0  0  0  0  0
    5.1993   -5.2496    0.0000 C   0  0  0  0  0  0  0  0  0  0  0  0
    3.8994   -5.9998    0.0000 C   0  0  0  0  0  0  0  0  0  0  0  0
    2.5993   -5.2500    0.0000 C   0  0  0  0  0  0  0  0  0  0  0  0
    3.8996   -7.4998    0.0000 Cl  0  0  0  0  0  0  0  0  0  0  0  0
    6.4983   -5.9996    0.0000 O   0  0  0  0  0  0  0  0  0  0  0  0
    7.7974   -5.2496    0.0000 C   0  0  0  0  0  0  0  0  0  0  0  0
    9.0964   -5.9996    0.0000 C   0  0  0  0  0  0  0  0  0  0  0  0
    9.0984   -7.4918    0.0000 C   0  0  0  0  0  0  0  0  0  0  0  0
   10.3962   -8.2439    0.0000 C   0  0  0  0  0  0  0  0  0  0  0  0
   11.6920   -7.5039    0.0000 C   0  0  0  0  0  0  0  0  0  0  0  0
   11.6949   -6.0031    0.0000 C   0  0  0  0  0  0  0  0  0  0  0  0
   10.3972   -5.2509    0.0000 C   0  0  0  0  0  0  0  0  0  0  0  0
   12.9954   -5.2555    0.0000 F   0  0  0  0  0  0  0  0  0  0  0  0
   -4.0525   -2.9885    0.0000 O   0  0  0  0  0  0  0  0  0  0  0  0
  1  2  1  0  0  0  0 
  2  3  2  0  0  0  0 
  2  4  2  0  0  0  0 
  2  5  1  0  0  0  0 
  5  6  1  0  0  0  0 
  6  7  1  0  0  0  0 
  7  8  1  0  0  0  0 
  8  9  1  0  0  0  0 
  9 10  2  0  0  0  0 
 10 11  1  0  0  0  0 
 11 12  2  0  0  0  0 
 12 13  1  0  0  0  0 
 13 14  2  0  0  0  0 
 14 15  1  0  0  0  0 
 15 16  2  0  0  0  0 
 16 17  1  0  0  0  0 
 17 18  2  0  0  0  0 
 18 19  1  0  0  0  0 
 19 20  2  0  0  0  0 
 15 20  1  0  0  0  0 
 20 21  1  0  0  0  0 
 21 22  2  0  0  0  0 
 13 22  1  0  0  0  0 
 16 23  1  0  0  0  0 
 23 24  1  0  0  0  0 
 24 25  2  0  0  0  0 
 25 26  1  0  0  0  0 
 26 27  2  0  0  0  0 
 27 28  1  0  0  0  0 
 28 29  2  0  0  0  0 
 24 29  1  0  0  0  0 
 28 30  1  0  0  0  0 
 27 31  1  0  0  0  0 
 31 32  1  0  0  0  0 
 32 33  1  0  0  0  0 
 33 34  2  0  0  0  0 
 34 35  1  0  0  0  0 
 35 36  2  0  0  0  0 
 36 37  1  0  0  0  0 
 37 38  2  0  0  0  0 
 33 38  1  0  0  0  0 
 37 39  1  0  0  0  0 
 12 40  1  0  0  0  0 
  9 40  1  0  0  0  0 
M  END
> <SMILES>
CS(=O)(=O)CCNCc1ccc(-c2ccc3ncnc(Nc4ccc(OCc5cccc(F)c5)c(Cl)c4)c3c2)o1

$$$$
Molecule 50_metabolite 1
  CDK     0516241031

 67 71  0  0  0  0  0  0  0  0999 V2000
  -12.2866   -7.9501    0.0000 C   0  0  0  0  0  0  0  0  0  0  0  0
  -13.1715   -6.7389    0.0000 H   0  0  0  0  0  0  0  0  0  0  0  0
  -11.8694   -9.3909    0.0000 H   0  0  0  0  0  0  0  0  0  0  0  0
  -13.6331   -8.6112    0.0000 H   0  0  0  0  0  0  0  0  0  0  0  0
  -10.7952   -7.7894    0.0000 S   0  0  0  0  0  0  0  0  0  0  0  0
  -10.8960   -9.2860    0.0000 O   0  0  0  0  0  0  0  0  0  0  0  0
   -9.3388   -8.1485    0.0000 O   0  0  0  0  0  0  0  0  0  0  0  0
  -10.1887   -6.4175    0.0000 C   0  0  0  0  0  0  0  0  0  0  0  0
  -10.0880   -4.9209    0.0000 H   0  0  0  0  0  0  0  0  0  0  0  0
  -11.6451   -6.0584    0.0000 H   0  0  0  0  0  0  0  0  0  0  0  0
   -8.2201   -6.2054    0.0000 C   0  0  0  0  0  0  0  0  0  0  0  0
   -8.3208   -7.7020    0.0000 H   0  0  0  0  0  0  0  0  0  0  0  0
   -6.7637   -6.5645    0.0000 H   0  0  0  0  0  0  0  0  0  0  0  0
   -7.6136   -4.8335    0.0000 N   0  0  0  0  0  0  0  0  0  0  0  0
   -8.4985   -3.6223    0.0000 H   0  0  0  0  0  0  0  0  0  0  0  0
   -5.6450   -4.6214    0.0000 C   0  0  0  0  0  0  0  0  0  0  0  0
   -5.7457   -6.1180    0.0000 H   0  0  0  0  0  0  0  0  0  0  0  0
   -4.1886   -4.9804    0.0000 H   0  0  0  0  0  0  0  0  0  0  0  0
   -5.0385   -3.2494    0.0000 C   0  0  0  0  0  0  0  0  0  0  0  0
   -5.7952   -1.9518    0.0000 C   0  0  0  0  0  0  0  0  0  0  0  0
   -7.2874   -1.7993    0.0000 H   0  0  0  0  0  0  0  0  0  0  0  0
   -4.7930   -0.8357    0.0000 C   0  0  0  0  0  0  0  0  0  0  0  0
   -5.1048    0.6316    0.0000 H   0  0  0  0  0  0  0  0  0  0  0  0
   -3.4217   -1.4488    0.0000 C   0  0  0  0  0  0  0  0  0  0  0  0
   -2.1228   -0.6986    0.0000 C   0  0  0  0  0  0  0  0  0  0  0  0
   -0.8228   -1.4486    0.0000 C   0  0  0  0  0  0  0  0  0  0  0  0
   -0.8228   -2.9486    0.0000 H   0  0  0  0  0  0  0  0  0  0  0  0
    0.4772   -0.6986    0.0000 C   0  0  0  0  0  0  0  0  0  0  0  0
    1.7772   -1.4486    0.0000 C   0  0  0  0  0  0  0  0  0  0  0  0
    3.0772   -0.6986    0.0000 N   0  0  0  0  0  0  0  0  0  0  0  0
    3.0772    0.8014    0.0000 C   0  0  0  0  0  0  0  0  0  0  0  0
    4.3762    1.5516    0.0000 H   0  0  0  0  0  0  0  0  0  0  0  0
    1.7772    1.5514    0.0000 N   0  0  0  0  0  0  0  0  0  0  0  0
    0.4772    0.8014    0.0000 C   0  0  0  0  0  0  0  0  0  0  0  0
   -0.8228    1.5514    0.0000 C   0  0  0  0  0  0  0  0  0  0  0  0
   -0.8228    3.0514    0.0000 H   0  0  0  0  0  0  0  0  0  0  0  0
   -2.1228    0.8014    0.0000 C   0  0  0  0  0  0  0  0  0  0  0  0
   -3.4217    1.5516    0.0000 H   0  0  0  0  0  0  0  0  0  0  0  0
    1.7772   -2.9486    0.0000 N   0  0  0  0  0  0  0  0  0  0  0  0
    0.4782   -3.6986    0.0000 H   0  0  0  0  0  0  0  0  0  0  0  0
    3.0763   -3.6986    0.0000 C   0  0  0  0  0  0  0  0  0  0  0  0
    4.3762   -2.9484    0.0000 C   0  0  0  0  0  0  0  0  0  0  0  0
    4.3759   -1.4484    0.0000 H   0  0  0  0  0  0  0  0  0  0  0  0
    5.6763   -3.6982    0.0000 C   0  0  0  0  0  0  0  0  0  0  0  0
    6.9751   -2.9477    0.0000 H   0  0  0  0  0  0  0  0  0  0  0  0
    5.6765   -5.1982    0.0000 C   0  0  0  0  0  0  0  0  0  0  0  0
    4.3766   -5.9484    0.0000 C   0  0  0  0  0  0  0  0  0  0  0  0
    3.0765   -5.1986    0.0000 C   0  0  0  0  0  0  0  0  0  0  0  0
    1.7777   -5.9490    0.0000 H   0  0  0  0  0  0  0  0  0  0  0  0
    4.3769   -7.4484    0.0000 Cl  0  0  0  0  0  0  0  0  0  0  0  0
    6.9756   -5.9482    0.0000 O   0  0  0  0  0  0  0  0  0  0  0  0
    8.2746   -5.1982    0.0000 C   0  0  0  0  0  0  0  0  0  0  0  0
    9.2388   -4.0491    0.0000 H   0  0  0  0  0  0  0  0  0  0  0  0
    9.5736   -5.9482    0.0000 C   0  0  0  0  0  0  0  0  0  0  0  0
    9.5757   -7.4403    0.0000 C   0  0  0  0  0  0  0  0  0  0  0  0
    8.2765   -8.1901    0.0000 H   0  0  0  0  0  0  0  0  0  0  0  0
   10.8734   -8.1925    0.0000 C   0  0  0  0  0  0  0  0  0  0  0  0
   10.8686   -9.6925    0.0000 H   0  0  0  0  0  0  0  0  0  0  0  0
   12.1692   -7.4525    0.0000 C   0  0  0  0  0  0  0  0  0  0  0  0
   13.4657   -8.2069    0.0000 H   0  0  0  0  0  0  0  0  0  0  0  0
   12.1722   -5.9517    0.0000 C   0  0  0  0  0  0  0  0  0  0  0  0
   10.8744   -5.1995    0.0000 C   0  0  0  0  0  0  0  0  0  0  0  0
   10.8767   -3.6995    0.0000 H   0  0  0  0  0  0  0  0  0  0  0  0
   13.4726   -5.2041    0.0000 F   0  0  0  0  0  0  0  0  0  0  0  0
    7.3104   -4.0491    0.0000 O   0  0  0  0  0  0  0  0  0  0  0  0
    7.8234   -2.6396    0.0000 H   0  0  0  0  0  0  0  0  0  0  0  0
   -3.5753   -2.9370    0.0000 O   0  0  0  0  0  0  0  0  0  0  0  0
  1  2  1  0  0  0  0 
  1  3  1  0  0  0  0 
  1  4  1  0  0  0  0 
  1  5  1  0  0  0  0 
  5  6  2  0  0  0  0 
  5  7  2  0  0  0  0 
  5  8  1  0  0  0  0 
  8  9  1  0  0  0  0 
  8 10  1  0  0  0  0 
  8 11  1  0  0  0  0 
 11 12  1  0  0  0  0 
 11 13  1  0  0  0  0 
 11 14  1  0  0  0  0 
 14 15  1  0  0  0  0 
 14 16  1  0  0  0  0 
 16 17  1  0  0  0  0 
 16 18  1  0  0  0  0 
 16 19  1  0  0  0  0 
 19 20  2  0  0  0  0 
 20 21  1  0  0  0  0 
 20 22  1  0  0  0  0 
 22 23  1  0  0  0  0 
 22 24  2  0  0  0  0 
 24 25  1  0  0  0  0 
 25 26  2  0  0  0  0 
 26 27  1  0  0  0  0 
 26 28  1  0  0  0  0 
 28 29  2  0  0  0  0 
 29 30  1  0  0  0  0 
 30 31  2  0  0  0  0 
 31 32  1  0  0  0  0 
 31 33  1  0  0  0  0 
 33 34  2  0  0  0  0 
 28 34  1  0  0  0  0 
 34 35  1  0  0  0  0 
 35 36  1  0  0  0  0 
 35 37  2  0  0  0  0 
 25 37  1  0  0  0  0 
 37 38  1  0  0  0  0 
 29 39  1  0  0  0  0 
 39 40  1  0  0  0  0 
 39 41  1  0  0  0  0 
 41 42  2  0  0  0  0 
 42 43  1  0  0  0  0 
 42 44  1  0  0  0  0 
 44 45  1  0  0  0  0 
 44 46  2  0  0  0  0 
 46 47  1  0  0  0  0 
 47 48  2  0  0  0  0 
 41 48  1  0  0  0  0 
 48 49  1  0  0  0  0 
 47 50  1  0  0  0  0 
 46 51  1  0  0  0  0 
 51 52  1  0  0  0  0 
 52 53  1  0  0  0  0 
 52 54  1  0  0  0  0 
 54 55  2  0  0  0  0 
 55 56  1  0  0  0  0 
 55 57  1  0  0  0  0 
 57 58  1  0  0  0  0 
 57 59  2  0  0  0  0 
 59 60  1  0  0  0  0 
 59 61  1  0  0  0  0 
 61 62  2  0  0  0  0 
 54 62  1  0  0  0  0 
 62 63  1  0  0  0  0 
 61 64  1  0  0  0  0 
 52 65  1  0  0  0  0 
 65 66  1  0  0  0  0 
 24 67  1  0  0  0  0 
 19 67  1  0  0  0  0 
M  END
> <Rank>
1

> <Priority_score>
0.732

> <Reaction_type>
aliphatic hydroxylation

> <Parent_ID>
50

> <Parent_InChI>
InChI=1S/C29H26ClFN4O4S/c1-40(36,37)12-11-32-16-23-7-10-27(39-23)20-5-8-26-24(14-20)29(34-18-33-26)35-22-6-9-28(25(30)15-22)38-17-19-3-2-4-21(31)13-19/h2-10,13-15,18,32H,11-12,16-17H2,1H3,(H,33,34,35)

> <Parent_SMILES>
CS(=O)(=O)CCNCc1ccc(-c2ccc3ncnc(Nc4ccc(OCc5cccc(F)c5)c(Cl)c4)c3c2)o1

$$$$
Molecule 50_metabolite 2
  CDK     0516241031

 53 56  0  0  0  0  0  0  0  0999 V2000
  -12.2866   -7.9501    0.0000 C   0  0  0  0  0  0  0  0  0  0  0  0
  -13.1715   -6.7389    0.0000 H   0  0  0  0  0  0  0  0  0  0  0  0
  -11.8694   -9.3909    0.0000 H   0  0  0  0  0  0  0  0  0  0  0  0
  -13.6331   -8.6112    0.0000 H   0  0  0  0  0  0  0  0  0  0  0  0
  -10.7952   -7.7894    0.0000 S   0  0  0  0  0  0  0  0  0  0  0  0
  -10.8960   -9.2860    0.0000 O   0  0  0  0  0  0  0  0  0  0  0  0
   -9.3388   -8.1485    0.0000 O   0  0  0  0  0  0  0  0  0  0  0  0
  -10.1887   -6.4175    0.0000 C   0  0  0  0  0  0  0  0  0  0  0  0
  -10.0880   -4.9209    0.0000 H   0  0  0  0  0  0  0  0  0  0  0  0
  -11.6451   -6.0584    0.0000 H   0  0  0  0  0  0  0  0  0  0  0  0
   -8.2201   -6.2054    0.0000 C   0  0  0  0  0  0  0  0  0  0  0  0
   -8.3208   -7.7020    0.0000 H   0  0  0  0  0  0  0  0  0  0  0  0
   -6.7637   -6.5645    0.0000 H   0  0  0  0  0  0  0  0  0  0  0  0
   -7.6136   -4.8335    0.0000 N   0  0  0  0  0  0  0  0  0  0  0  0
   -8.4985   -3.6223    0.0000 H   0  0  0  0  0  0  0  0  0  0  0  0
   -5.6450   -4.6214    0.0000 C   0  0  0  0  0  0  0  0  0  0  0  0
   -5.7457   -6.1180    0.0000 H   0  0  0  0  0  0  0  0  0  0  0  0
   -4.1886   -4.9804    0.0000 H   0  0  0  0  0  0  0  0  0  0  0  0
   -5.0385   -3.2494    0.0000 C   0  0  0  0  0  0  0  0  0  0  0  0
   -5.7952   -1.9518    0.0000 C   0  0  0  0  0  0  0  0  0  0  0  0
   -7.2874   -1.7993    0.0000 H   0  0  0  0  0  0  0  0  0  0  0  0
   -4.7930   -0.8357    0.0000 C   0  0  0  0  0  0  0  0  0  0  0  0
   -5.1048    0.6316    0.0000 H   0  0  0  0  0  0  0  0  0  0  0  0
   -3.4217   -1.4488    0.0000 C   0  0  0  0  0  0  0  0  0  0  0  0
   -2.1228   -0.6986    0.0000 C   0  0  0  0  0  0  0  0  0  0  0  0
   -0.8228   -1.4486    0.0000 C   0  0  0  0  0  0  0  0  0  0  0  0
   -0.8228   -2.9486    0.0000 H   0  0  0  0  0  0  0  0  0  0  0  0
    0.4772   -0.6986    0.0000 C   0  0  0  0  0  0  0  0  0  0  0  0
    1.7772   -1.4486    0.0000 C   0  0  0  0  0  0  0  0  0  0  0  0
    3.0772   -0.6986    0.0000 N   0  0  0  0  0  0  0  0  0  0  0  0
    3.0772    0.8014    0.0000 C   0  0  0  0  0  0  0  0  0  0  0  0
    4.3762    1.5516    0.0000 H   0  0  0  0  0  0  0  0  0  0  0  0
    1.7772    1.5514    0.0000 N   0  0  0  0  0  0  0  0  0  0  0  0
    0.4772    0.8014    0.0000 C   0  0  0  0  0  0  0  0  0  0  0  0
   -0.8228    1.5514    0.0000 C   0  0  0  0  0  0  0  0  0  0  0  0
   -0.8228    3.0514    0.0000 H   0  0  0  0  0  0  0  0  0  0  0  0
   -2.1228    0.8014    0.0000 C   0  0  0  0  0  0  0  0  0  0  0  0
   -3.4217    1.5516    0.0000 H   0  0  0  0  0  0  0  0  0  0  0  0
    1.7772   -2.9486    0.0000 N   0  0  0  0  0  0  0  0  0  0  0  0
    0.4782   -3.6986    0.0000 H   0  0  0  0  0  0  0  0  0  0  0  0
    3.0763   -3.6986    0.0000 C   0  0  0  0  0  0  0  0  0  0  0  0
    4.3762   -2.9484    0.0000 C   0  0  0  0  0  0  0  0  0  0  0  0
    4.3759   -1.4484    0.0000 H   0  0  0  0  0  0  0  0  0  0  0  0
    5.6763   -3.6982    0.0000 C   0  0  0  0  0  0  0  0  0  0  0  0
    6.9751   -2.9477    0.0000 H   0  0  0  0  0  0  0  0  0  0  0  0
    5.6765   -5.1982    0.0000 C   0  0  0  0  0  0  0  0  0  0  0  0
    4.3766   -5.9484    0.0000 C   0  0  0  0  0  0  0  0  0  0  0  0
    3.0765   -5.1986    0.0000 C   0  0  0  0  0  0  0  0  0  0  0  0
    1.7777   -5.9490    0.0000 H   0  0  0  0  0  0  0  0  0  0  0  0
    4.3769   -7.4484    0.0000 Cl  0  0  0  0  0  0  0  0  0  0  0  0
    6.9756   -5.9482    0.0000 O   0  0  0  0  0  0  0  0  0  0  0  0
    8.2746   -5.1982    0.0000 H   0  0  0  0  0  0  0  0  0  0  0  0
   -3.5753   -2.9370    0.0000 O   0  0  0  0  0  0  0  0  0  0  0  0
  1  2  1  0  0  0  0 
  1  3  1  0  0  0  0 
  1  4  1  0  0  0  0 
  1  5  1  0  0  0  0 
  5  6  2  0  0  0  0 
  5  7  2  0  0  0  0 
  5  8  1  0  0  0  0 
  8  9  1  0  0  0  0 
  8 10  1  0  0  0  0 
  8 11  1  0  0  0  0 
 11 12  1  0  0  0  0 
 11 13  1  0  0  0  0 
 11 14  1  0  0  0  0 
 14 15  1  0  0  0  0 
 14 16  1  0  0  0  0 
 16 17  1  0  0  0  0 
 16 18  1  0  0  0  0 
 16 19  1  0  0  0  0 
 19 20  2  0  0  0  0 
 20 21  1  0  0  0  0 
 20 22  1  0  0  0  0 
 22 23  1  0  0  0  0 
 22 24  2  0  0  0  0 
 24 25  1  0  0  0  0 
 25 26  2  0  0  0  0 
 26 27  1  0  0  0  0 
 26 28  1  0  0  0  0 
 28 29  2  0  0  0  0 
 29 30  1  0  0  0  0 
 30 31  2  0  0  0  0 
 31 32  1  0  0  0  0 
 31 33  1  0  0  0  0 
 33 34  2  0  0  0  0 
 28 34  1  0  0  0  0 
 34 35  1  0  0  0  0 
 35 36  1  0  0  0  0 
 35 37  2  0  0  0  0 
 25 37  1  0  0  0  0 
 37 38  1  0  0  0  0 
 29 39  1  0  0  0  0 
 39 40  1  0  0  0  0 
 39 41  1  0  0  0  0 
 41 42  2  0  0  0  0 
 42 43  1  0  0  0  0 
 42 44  1  0  0  0  0 
 44 45  1  0  0  0  0 
 44 46  2  0  0  0  0 
 46 47  1  0  0  0  0 
 47 48  2  0  0  0  0 
 41 48  1  0  0  0  0 
 48 49  1  0  0  0  0 
 47 50  1  0  0  0  0 
 46 51  1  0  0  0  0 
 51 52  1  0  0  0  0 
 24 53  1  0  0  0  0 
 19 53  1  0  0  0  0 
M  END
> <Rank>
1

> <Priority_score>
0.732

> <Reaction_type>
O-dealkylation_(aromatic)

> <Parent_ID>
50

> <Parent_InChI>
InChI=1S/C29H26ClFN4O4S/c1-40(36,37)12-11-32-16-23-7-10-27(39-23)20-5-8-26-24(14-20)29(34-18-33-26)35-22-6-9-28(25(30)15-22)38-17-19-3-2-4-21(31)13-19/h2-10,13-15,18,32H,11-12,16-17H2,1H3,(H,33,34,35)

> <Parent_SMILES>
CS(=O)(=O)CCNCc1ccc(-c2ccc3ncnc(Nc4ccc(OCc5cccc(F)c5)c(Cl)c4)c3c2)o1

$$$$
Molecule 50_metabolite 3
  CDK     0516241031

 14 14  0  0  0  0  0  0  0  0999 V2000
    0.9687    1.3122    0.0000 C   0  0  0  0  0  0  0  0  0  0  0  0
    2.2689    2.0602    0.0000 H   0  0  0  0  0  0  0  0  0  0  0  0
   -0.3213    2.0622    0.0000 C   0  0  0  0  0  0  0  0  0  0  0  0
   -0.3187    3.5622    0.0000 H   0  0  0  0  0  0  0  0  0  0  0  0
   -1.6213    1.3122    0.0000 C   0  0  0  0  0  0  0  0  0  0  0  0
   -1.6213   -0.1878    0.0000 C   0  0  0  0  0  0  0  0  0  0  0  0
   -2.9202   -0.9380    0.0000 H   0  0  0  0  0  0  0  0  0  0  0  0
   -0.3213   -0.9378    0.0000 C   0  0  0  0  0  0  0  0  0  0  0  0
    0.9687   -0.1878    0.0000 C   0  0  0  0  0  0  0  0  0  0  0  0
    2.2689   -0.9359    0.0000 H   0  0  0  0  0  0  0  0  0  0  0  0
   -0.3187   -2.4378    0.0000 C   0  0  0  0  0  0  0  0  0  0  0  0
    0.9815   -3.1856    0.0000 H   0  0  0  0  0  0  0  0  0  0  0  0
   -1.6165   -3.1900    0.0000 O   0  0  0  0  0  0  0  0  0  0  0  0
   -2.9202    2.0624    0.0000 F   0  0  0  0  0  0  0  0  0  0  0  0
  1  2  1  0  0  0  0 
  1  3  2  0  0  0  0 
  3  4  1  0  0  0  0 
  3  5  1  0  0  0  0 
  5  6  2  0  0  0  0 
  6  7  1  0  0  0  0 
  6  8  1  0  0  0  0 
  8  9  2  0  0  0  0 
  1  9  1  0  0  0  0 
  9 10  1  0  0  0  0 
  8 11  1  0  0  0  0 
 11 12  1  0  0  0  0 
 11 13  2  0  0  0  0 
  5 14  1  0  0  0  0 
M  END
> <Rank>
1

> <Priority_score>
0.732

> <Reaction_type>
oxidative ether cleavage to one alcohol and one aldehyde/ketone

> <Parent_ID>
50

> <Parent_InChI>
InChI=1S/C29H26ClFN4O4S/c1-40(36,37)12-11-32-16-23-7-10-27(39-23)20-5-8-26-24(14-20)29(34-18-33-26)35-22-6-9-28(25(30)15-22)38-17-19-3-2-4-21(31)13-19/h2-10,13-15,18,32H,11-12,16-17H2,1H3,(H,33,34,35)

> <Parent_SMILES>
CS(=O)(=O)CCNCc1ccc(-c2ccc3ncnc(Nc4ccc(OCc5cccc(F)c5)c(Cl)c4)c3c2)o1

$$$$
Molecule 50_metabolite 4
  CDK     0516241031

 67 71  0  0  0  0  0  0  0  0999 V2000
  -12.2866   -7.9501    0.0000 C   0  0  0  0  0  0  0  0  0  0  0  0
  -13.1715   -6.7389    0.0000 H   0  0  0  0  0  0  0  0  0  0  0  0
  -11.8694   -9.3909    0.0000 H   0  0  0  0  0  0  0  0  0  0  0  0
  -13.6331   -8.6112    0.0000 H   0  0  0  0  0  0  0  0  0  0  0  0
  -10.7952   -7.7894    0.0000 S   0  0  0  0  0  0  0  0  0  0  0  0
  -10.8960   -9.2860    0.0000 O   0  0  0  0  0  0  0  0  0  0  0  0
   -9.3388   -8.1485    0.0000 O   0  0  0  0  0  0  0  0  0  0  0  0
  -10.1887   -6.4175    0.0000 C   0  0  0  0  0  0  0  0  0  0  0  0
  -10.0880   -4.9209    0.0000 H   0  0  0  0  0  0  0  0  0  0  0  0
  -11.6451   -6.0584    0.0000 H   0  0  0  0  0  0  0  0  0  0  0  0
   -8.2201   -6.2054    0.0000 C   0  0  0  0  0  0  0  0  0  0  0  0
   -8.3208   -7.7020    0.0000 H   0  0  0  0  0  0  0  0  0  0  0  0
   -6.7637   -6.5645    0.0000 H   0  0  0  0  0  0  0  0  0  0  0  0
   -7.6136   -4.8335    0.0000 N   0  0  0  0  0  0  0  0  0  0  0  0
   -8.4985   -3.6223    0.0000 H   0  0  0  0  0  0  0  0  0  0  0  0
   -5.6450   -4.6214    0.0000 C   0  0  0  0  0  0  0  0  0  0  0  0
   -5.7457   -6.1180    0.0000 H   0  0  0  0  0  0  0  0  0  0  0  0
   -4.1886   -4.9804    0.0000 H   0  0  0  0  0  0  0  0  0  0  0  0
   -5.0385   -3.2494    0.0000 C   0  0  0  0  0  0  0  0  0  0  0  0
   -5.7952   -1.9518    0.0000 C   0  0  0  0  0  0  0  0  0  0  0  0
   -7.2874   -1.7993    0.0000 H   0  0  0  0  0  0  0  0  0  0  0  0
   -4.7930   -0.8357    0.0000 C   0  0  0  0  0  0  0  0  0  0  0  0
   -5.1048    0.6316    0.0000 H   0  0  0  0  0  0  0  0  0  0  0  0
   -3.4217   -1.4488    0.0000 C   0  0  0  0  0  0  0  0  0  0  0  0
   -2.1228   -0.6986    0.0000 C   0  0  0  0  0  0  0  0  0  0  0  0
   -0.8228   -1.4486    0.0000 C   0  0  0  0  0  0  0  0  0  0  0  0
   -0.8228   -2.9486    0.0000 H   0  0  0  0  0  0  0  0  0  0  0  0
    0.4772   -0.6986    0.0000 C   0  0  0  0  0  0  0  0  0  0  0  0
    1.7772   -1.4486    0.0000 C   0  0  0  0  0  0  0  0  0  0  0  0
    3.0772   -0.6986    0.0000 N   0  0  0  0  0  0  0  0  0  0  0  0
    3.0772    0.8014    0.0000 C   0  0  0  0  0  0  0  0  0  0  0  0
    4.3762    1.5516    0.0000 H   0  0  0  0  0  0  0  0  0  0  0  0
    1.7772    1.5514    0.0000 N   0  0  0  0  0  0  0  0  0  0  0  0
    0.4772    0.8014    0.0000 C   0  0  0  0  0  0  0  0  0  0  0  0
   -0.8228    1.5514    0.0000 C   0  0  0  0  0  0  0  0  0  0  0  0
   -0.8228    3.0514    0.0000 H   0  0  0  0  0  0  0  0  0  0  0  0
   -2.1228    0.8014    0.0000 C   0  0  0  0  0  0  0  0  0  0  0  0
   -3.4217    1.5516    0.0000 H   0  0  0  0  0  0  0  0  0  0  0  0
    1.7772   -2.9486    0.0000 N   0  0  0  0  0  0  0  0  0  0  0  0
    0.4782   -3.6986    0.0000 H   0  0  0  0  0  0  0  0  0  0  0  0
    3.0763   -3.6986    0.0000 C   0  0  0  0  0  0  0  0  0  0  0  0
    4.3762   -2.9484    0.0000 C   0  0  0  0  0  0  0  0  0  0  0  0
    4.3759   -1.4484    0.0000 H   0  0  0  0  0  0  0  0  0  0  0  0
    5.6763   -3.6982    0.0000 C   0  0  0  0  0  0  0  0  0  0  0  0
    6.9751   -2.9477    0.0000 H   0  0  0  0  0  0  0  0  0  0  0  0
    5.6765   -5.1982    0.0000 C   0  0  0  0  0  0  0  0  0  0  0  0
    4.3766   -5.9484    0.0000 C   0  0  0  0  0  0  0  0  0  0  0  0
    3.0765   -5.1986    0.0000 C   0  0  0  0  0  0  0  0  0  0  0  0
    1.7777   -5.9490    0.0000 H   0  0  0  0  0  0  0  0  0  0  0  0
    4.3769   -7.4484    0.0000 Cl  0  0  0  0  0  0  0  0  0  0  0  0
    6.9756   -5.9482    0.0000 O   0  0  0  0  0  0  0  0  0  0  0  0
    8.2746   -5.1982    0.0000 C   0  0  0  0  0  0  0  0  0  0  0  0
    9.2388   -4.0491    0.0000 H   0  0  0  0  0  0  0  0  0  0  0  0
    7.3104   -4.0491    0.0000 H   0  0  0  0  0  0  0  0  0  0  0  0
    9.5736   -5.9482    0.0000 C   0  0  0  0  0  0  0  0  0  0  0  0
   10.8735   -5.1980    0.0000 C   0  0  0  0  0  0  0  0  0  0  0  0
   10.8733   -3.6980    0.0000 H   0  0  0  0  0  0  0  0  0  0  0  0
   12.1736   -5.9477    0.0000 C   0  0  0  0  0  0  0  0  0  0  0  0
   12.1739   -7.4477    0.0000 C   0  0  0  0  0  0  0  0  0  0  0  0
   13.4729   -8.1977    0.0000 H   0  0  0  0  0  0  0  0  0  0  0  0
   10.8740   -8.1980    0.0000 C   0  0  0  0  0  0  0  0  0  0  0  0
    9.5739   -7.4482    0.0000 C   0  0  0  0  0  0  0  0  0  0  0  0
    8.2751   -8.1986    0.0000 H   0  0  0  0  0  0  0  0  0  0  0  0
   10.8742   -9.6980    0.0000 F   0  0  0  0  0  0  0  0  0  0  0  0
   13.4724   -5.1973    0.0000 O   0  0  0  0  0  0  0  0  0  0  0  0
   14.7717   -5.9469    0.0000 H   0  0  0  0  0  0  0  0  0  0  0  0
   -3.5753   -2.9370    0.0000 O   0  0  0  0  0  0  0  0  0  0  0  0
  1  2  1  0  0  0  0 
  1  3  1  0  0  0  0 
  1  4  1  0  0  0  0 
  1  5  1  0  0  0  0 
  5  6  2  0  0  0  0 
  5  7  2  0  0  0  0 
  5  8  1  0  0  0  0 
  8  9  1  0  0  0  0 
  8 10  1  0  0  0  0 
  8 11  1  0  0  0  0 
 11 12  1  0  0  0  0 
 11 13  1  0  0  0  0 
 11 14  1  0  0  0  0 
 14 15  1  0  0  0  0 
 14 16  1  0  0  0  0 
 16 17  1  0  0  0  0 
 16 18  1  0  0  0  0 
 16 19  1  0  0  0  0 
 19 20  2  0  0  0  0 
 20 21  1  0  0  0  0 
 20 22  1  0  0  0  0 
 22 23  1  0  0  0  0 
 22 24  2  0  0  0  0 
 24 25  1  0  0  0  0 
 25 26  2  0  0  0  0 
 26 27  1  0  0  0  0 
 26 28  1  0  0  0  0 
 28 29  2  0  0  0  0 
 29 30  1  0  0  0  0 
 30 31  2  0  0  0  0 
 31 32  1  0  0  0  0 
 31 33  1  0  0  0  0 
 33 34  2  0  0  0  0 
 28 34  1  0  0  0  0 
 34 35  1  0  0  0  0 
 35 36  1  0  0  0  0 
 35 37  2  0  0  0  0 
 25 37  1  0  0  0  0 
 37 38  1  0  0  0  0 
 29 39  1  0  0  0  0 
 39 40  1  0  0  0  0 
 39 41  1  0  0  0  0 
 41 42  2  0  0  0  0 
 42 43  1  0  0  0  0 
 42 44  1  0  0  0  0 
 44 45  1  0  0  0  0 
 44 46  2  0  0  0  0 
 46 47  1  0  0  0  0 
 47 48  2  0  0  0  0 
 41 48  1  0  0  0  0 
 48 49  1  0  0  0  0 
 47 50  1  0  0  0  0 
 46 51  1  0  0  0  0 
 51 52  1  0  0  0  0 
 52 53  1  0  0  0  0 
 52 54  1  0  0  0  0 
 52 55  1  0  0  0  0 
 55 56  2  0  0  0  0 
 56 57  1  0  0  0  0 
 56 58  1  0  0  0  0 
 58 59  2  0  0  0  0 
 59 60  1  0  0  0  0 
 59 61  1  0  0  0  0 
 61 62  2  0  0  0  0 
 55 62  1  0  0  0  0 
 62 63  1  0  0  0  0 
 61 64  1  0  0  0  0 
 58 65  1  0  0  0  0 
 65 66  1  0  0  0  0 
 24 67  1  0  0  0  0 
 19 67  1  0  0  0  0 
M  END
> <Rank>
1

> <Priority_score>
0.732

> <Reaction_type>
aromatic_hydroxylation_(meta_to_carbon)

> <Parent_ID>
50

> <Parent_InChI>
InChI=1S/C29H26ClFN4O4S/c1-40(36,37)12-11-32-16-23-7-10-27(39-23)20-5-8-26-24(14-20)29(34-18-33-26)35-22-6-9-28(25(30)15-22)38-17-19-3-2-4-21(31)13-19/h2-10,13-15,18,32H,11-12,16-17H2,1H3,(H,33,34,35)

> <Parent_SMILES>
CS(=O)(=O)CCNCc1ccc(-c2ccc3ncnc(Nc4ccc(OCc5cccc(F)c5)c(Cl)c4)c3c2)o1

$$$$
Molecule 50_metabolite 5
  CDK     0516241031

 67 71  0  0  0  0  0  0  0  0999 V2000
  -12.2866   -7.9501    0.0000 C   0  0  0  0  0  0  0  0  0  0  0  0
  -13.1715   -6.7389    0.0000 H   0  0  0  0  0  0  0  0  0  0  0  0
  -11.8694   -9.3909    0.0000 H   0  0  0  0  0  0  0  0  0  0  0  0
  -13.6331   -8.6112    0.0000 H   0  0  0  0  0  0  0  0  0  0  0  0
  -10.7952   -7.7894    0.0000 S   0  0  0  0  0  0  0  0  0  0  0  0
  -10.8960   -9.2860    0.0000 O   0  0  0  0  0  0  0  0  0  0  0  0
   -9.3388   -8.1485    0.0000 O   0  0  0  0  0  0  0  0  0  0  0  0
  -10.1887   -6.4175    0.0000 C   0  0  0  0  0  0  0  0  0  0  0  0
  -10.0880   -4.9209    0.0000 H   0  0  0  0  0  0  0  0  0  0  0  0
  -11.6451   -6.0584    0.0000 H   0  0  0  0  0  0  0  0  0  0  0  0
   -8.2201   -6.2054    0.0000 C   0  0  0  0  0  0  0  0  0  0  0  0
   -8.3208   -7.7020    0.0000 H   0  0  0  0  0  0  0  0  0  0  0  0
   -6.7637   -6.5645    0.0000 H   0  0  0  0  0  0  0  0  0  0  0  0
   -7.6136   -4.8335    0.0000 N   0  0  0  0  0  0  0  0  0  0  0  0
   -8.4985   -3.6223    0.0000 H   0  0  0  0  0  0  0  0  0  0  0  0
   -5.6450   -4.6214    0.0000 C   0  0  0  0  0  0  0  0  0  0  0  0
   -5.7457   -6.1180    0.0000 H   0  0  0  0  0  0  0  0  0  0  0  0
   -4.1886   -4.9804    0.0000 H   0  0  0  0  0  0  0  0  0  0  0  0
   -5.0385   -3.2494    0.0000 C   0  0  0  0  0  0  0  0  0  0  0  0
   -5.7952   -1.9518    0.0000 C   0  0  0  0  0  0  0  0  0  0  0  0
   -7.2874   -1.7993    0.0000 H   0  0  0  0  0  0  0  0  0  0  0  0
   -4.7930   -0.8357    0.0000 C   0  0  0  0  0  0  0  0  0  0  0  0
   -5.1048    0.6316    0.0000 H   0  0  0  0  0  0  0  0  0  0  0  0
   -3.4217   -1.4488    0.0000 C   0  0  0  0  0  0  0  0  0  0  0  0
   -2.1228   -0.6986    0.0000 C   0  0  0  0  0  0  0  0  0  0  0  0
   -0.8228   -1.4486    0.0000 C   0  0  0  0  0  0  0  0  0  0  0  0
   -0.8228   -2.9486    0.0000 H   0  0  0  0  0  0  0  0  0  0  0  0
    0.4772   -0.6986    0.0000 C   0  0  0  0  0  0  0  0  0  0  0  0
    1.7772   -1.4486    0.0000 C   0  0  0  0  0  0  0  0  0  0  0  0
    3.0772   -0.6986    0.0000 N   0  0  0  0  0  0  0  0  0  0  0  0
    3.0772    0.8014    0.0000 C   0  0  0  0  0  0  0  0  0  0  0  0
    4.3762    1.5516    0.0000 H   0  0  0  0  0  0  0  0  0  0  0  0
    1.7772    1.5514    0.0000 N   0  0  0  0  0  0  0  0  0  0  0  0
    0.4772    0.8014    0.0000 C   0  0  0  0  0  0  0  0  0  0  0  0
   -0.8228    1.5514    0.0000 C   0  0  0  0  0  0  0  0  0  0  0  0
   -0.8228    3.0514    0.0000 H   0  0  0  0  0  0  0  0  0  0  0  0
   -2.1228    0.8014    0.0000 C   0  0  0  0  0  0  0  0  0  0  0  0
   -3.4217    1.5516    0.0000 H   0  0  0  0  0  0  0  0  0  0  0  0
    1.7772   -2.9486    0.0000 N   0  0  0  0  0  0  0  0  0  0  0  0
    0.4782   -3.6986    0.0000 H   0  0  0  0  0  0  0  0  0  0  0  0
    3.0763   -3.6986    0.0000 C   0  0  0  0  0  0  0  0  0  0  0  0
    4.3762   -2.9484    0.0000 C   0  0  0  0  0  0  0  0  0  0  0  0
    4.3759   -1.4484    0.0000 H   0  0  0  0  0  0  0  0  0  0  0  0
    5.6763   -3.6982    0.0000 C   0  0  0  0  0  0  0  0  0  0  0  0
    6.9751   -2.9477    0.0000 H   0  0  0  0  0  0  0  0  0  0  0  0
    5.6765   -5.1982    0.0000 C   0  0  0  0  0  0  0  0  0  0  0  0
    4.3766   -5.9484    0.0000 C   0  0  0  0  0  0  0  0  0  0  0  0
    3.0765   -5.1986    0.0000 C   0  0  0  0  0  0  0  0  0  0  0  0
    1.7777   -5.9490    0.0000 H   0  0  0  0  0  0  0  0  0  0  0  0
    4.3769   -7.4484    0.0000 Cl  0  0  0  0  0  0  0  0  0  0  0  0
    6.9756   -5.9482    0.0000 O   0  0  0  0  0  0  0  0  0  0  0  0
    8.2746   -5.1982    0.0000 C   0  0  0  0  0  0  0  0  0  0  0  0
    9.2388   -4.0491    0.0000 H   0  0  0  0  0  0  0  0  0  0  0  0
    7.3104   -4.0491    0.0000 H   0  0  0  0  0  0  0  0  0  0  0  0
    9.5736   -5.9482    0.0000 C   0  0  0  0  0  0  0  0  0  0  0  0
   10.8728   -5.1984    0.0000 C   0  0  0  0  0  0  0  0  0  0  0  0
   10.8733   -3.6984    0.0000 H   0  0  0  0  0  0  0  0  0  0  0  0
   12.1722   -5.9494    0.0000 C   0  0  0  0  0  0  0  0  0  0  0  0
   13.4713   -5.1996    0.0000 H   0  0  0  0  0  0  0  0  0  0  0  0
   12.1724   -7.4502    0.0000 C   0  0  0  0  0  0  0  0  0  0  0  0
   10.8733   -8.2000    0.0000 C   0  0  0  0  0  0  0  0  0  0  0  0
    9.5739   -7.4490    0.0000 C   0  0  0  0  0  0  0  0  0  0  0  0
    8.2747   -8.1988    0.0000 H   0  0  0  0  0  0  0  0  0  0  0  0
   10.8728   -9.7000    0.0000 F   0  0  0  0  0  0  0  0  0  0  0  0
   13.4715   -8.2002    0.0000 O   0  0  0  0  0  0  0  0  0  0  0  0
   14.7705   -7.4502    0.0000 H   0  0  0  0  0  0  0  0  0  0  0  0
   -3.5753   -2.9370    0.0000 O   0  0  0  0  0  0  0  0  0  0  0  0
  1  2  1  0  0  0  0 
  1  3  1  0  0  0  0 
  1  4  1  0  0  0  0 
  1  5  1  0  0  0  0 
  5  6  2  0  0  0  0 
  5  7  2  0  0  0  0 
  5  8  1  0  0  0  0 
  8  9  1  0  0  0  0 
  8 10  1  0  0  0  0 
  8 11  1  0  0  0  0 
 11 12  1  0  0  0  0 
 11 13  1  0  0  0  0 
 11 14  1  0  0  0  0 
 14 15  1  0  0  0  0 
 14 16  1  0  0  0  0 
 16 17  1  0  0  0  0 
 16 18  1  0  0  0  0 
 16 19  1  0  0  0  0 
 19 20  2  0  0  0  0 
 20 21  1  0  0  0  0 
 20 22  1  0  0  0  0 
 22 23  1  0  0  0  0 
 22 24  2  0  0  0  0 
 24 25  1  0  0  0  0 
 25 26  2  0  0  0  0 
 26 27  1  0  0  0  0 
 26 28  1  0  0  0  0 
 28 29  2  0  0  0  0 
 29 30  1  0  0  0  0 
 30 31  2  0  0  0  0 
 31 32  1  0  0  0  0 
 31 33  1  0  0  0  0 
 33 34  2  0  0  0  0 
 28 34  1  0  0  0  0 
 34 35  1  0  0  0  0 
 35 36  1  0  0  0  0 
 35 37  2  0  0  0  0 
 25 37  1  0  0  0  0 
 37 38  1  0  0  0  0 
 29 39  1  0  0  0  0 
 39 40  1  0  0  0  0 
 39 41  1  0  0  0  0 
 41 42  2  0  0  0  0 
 42 43  1  0  0  0  0 
 42 44  1  0  0  0  0 
 44 45  1  0  0  0  0 
 44 46  2  0  0  0  0 
 46 47  1  0  0  0  0 
 47 48  2  0  0  0  0 
 41 48  1  0  0  0  0 
 48 49  1  0  0  0  0 
 47 50  1  0  0  0  0 
 46 51  1  0  0  0  0 
 51 52  1  0  0  0  0 
 52 53  1  0  0  0  0 
 52 54  1  0  0  0  0 
 52 55  1  0  0  0  0 
 55 56  2  0  0  0  0 
 56 57  1  0  0  0  0 
 56 58  1  0  0  0  0 
 58 59  1  0  0  0  0 
 58 60  2  0  0  0  0 
 60 61  1  0  0  0  0 
 61 62  2  0  0  0  0 
 55 62  1  0  0  0  0 
 62 63  1  0  0  0  0 
 61 64  1  0  0  0  0 
 60 65  1  0  0  0  0 
 65 66  1  0  0  0  0 
 24 67  1  0  0  0  0 
 19 67  1  0  0  0  0 
M  END
> <Rank>
1

> <Priority_score>
0.732

> <Reaction_type>
aromatic_hydroxylation_(para_to_carbon)

> <Parent_ID>
50

> <Parent_InChI>
InChI=1S/C29H26ClFN4O4S/c1-40(36,37)12-11-32-16-23-7-10-27(39-23)20-5-8-26-24(14-20)29(34-18-33-26)35-22-6-9-28(25(30)15-22)38-17-19-3-2-4-21(31)13-19/h2-10,13-15,18,32H,11-12,16-17H2,1H3,(H,33,34,35)

> <Parent_SMILES>
CS(=O)(=O)CCNCc1ccc(-c2ccc3ncnc(Nc4ccc(OCc5cccc(F)c5)c(Cl)c4)c3c2)o1

$$$$
Molecule 50_metabolite 6
  CDK     0516241031

 16 16  0  0  0  0  0  0  0  0999 V2000
   -1.3013    2.9918    0.0000 C   0  0  0  0  0  0  0  0  0  0  0  0
   -1.2990    4.4918    0.0000 H   0  0  0  0  0  0  0  0  0  0  0  0
   -2.5958    2.2497    0.0000 C   0  0  0  0  0  0  0  0  0  0  0  0
   -3.8936    3.0018    0.0000 H   0  0  0  0  0  0  0  0  0  0  0  0
   -2.5963    0.7488    0.0000 C   0  0  0  0  0  0  0  0  0  0  0  0
   -1.2973   -0.0012    0.0000 C   0  0  0  0  0  0  0  0  0  0  0  0
   -1.2970   -1.5012    0.0000 H   0  0  0  0  0  0  0  0  0  0  0  0
    0.0023    0.7497    0.0000 C   0  0  0  0  0  0  0  0  0  0  0  0
   -0.0023    2.2418    0.0000 C   0  0  0  0  0  0  0  0  0  0  0  0
    1.2956    2.9938    0.0000 H   0  0  0  0  0  0  0  0  0  0  0  0
    1.3026    0.0018    0.0000 C   0  0  0  0  0  0  0  0  0  0  0  0
    0.3403   -1.1489    0.0000 H   0  0  0  0  0  0  0  0  0  0  0  0
    2.2687   -1.1456    0.0000 H   0  0  0  0  0  0  0  0  0  0  0  0
    2.6003    0.7540    0.0000 O   0  0  0  0  0  0  0  0  0  0  0  0
    3.9006    0.0062    0.0000 H   0  0  0  0  0  0  0  0  0  0  0  0
   -3.8955   -0.0010    0.0000 F   0  0  0  0  0  0  0  0  0  0  0  0
  1  2  1  0  0  0  0 
  1  3  2  0  0  0  0 
  3  4  1  0  0  0  0 
  3  5  1  0  0  0  0 
  5  6  2  0  0  0  0 
  6  7  1  0  0  0  0 
  6  8  1  0  0  0  0 
  8  9  2  0  0  0  0 
  1  9  1  0  0  0  0 
  9 10  1  0  0  0  0 
  8 11  1  0  0  0  0 
 11 12  1  0  0  0  0 
 11 13  1  0  0  0  0 
 11 14  1  0  0  0  0 
 14 15  1  0  0  0  0 
  5 16  1  0  0  0  0 
M  END
> <Rank>
1

> <Priority_score>
0.732

> <Reaction_type>
O-dealkylation_(aromatic)

> <Parent_ID>
50

> <Parent_InChI>
InChI=1S/C29H26ClFN4O4S/c1-40(36,37)12-11-32-16-23-7-10-27(39-23)20-5-8-26-24(14-20)29(34-18-33-26)35-22-6-9-28(25(30)15-22)38-17-19-3-2-4-21(31)13-19/h2-10,13-15,18,32H,11-12,16-17H2,1H3,(H,33,34,35)

> <Parent_SMILES>
CS(=O)(=O)CCNCc1ccc(-c2ccc3ncnc(Nc4ccc(OCc5cccc(F)c5)c(Cl)c4)c3c2)o1

$$$$
Molecule 50_metabolite 7
  CDK     0516241031

 13 12  0  0  0  0  0  0  0  0999 V2000
    3.7635    1.4228    0.0000 C   0  0  0  0  0  0  0  0  0  0  0  0
    2.4644    2.1728    0.0000 H   0  0  0  0  0  0  0  0  0  0  0  0
    4.2765    2.8324    0.0000 H   0  0  0  0  0  0  0  0  0  0  0  0
    5.2407    1.1624    0.0000 H   0  0  0  0  0  0  0  0  0  0  0  0
    3.7635   -0.0772    0.0000 S   0  0  0  0  0  0  0  0  0  0  0  0
    4.2765   -1.4867    0.0000 O   0  0  0  0  0  0  0  0  0  0  0  0
    5.2407    0.1833    0.0000 O   0  0  0  0  0  0  0  0  0  0  0  0
    2.4644   -0.8272    0.0000 C   0  0  0  0  0  0  0  0  0  0  0  0
    1.9514    0.5824    0.0000 H   0  0  0  0  0  0  0  0  0  0  0  0
    0.9872   -1.0876    0.0000 H   0  0  0  0  0  0  0  0  0  0  0  0
    2.4644   -2.3272    0.0000 C   0  0  0  0  0  0  0  0  0  0  0  0
    1.1654   -3.0772    0.0000 H   0  0  0  0  0  0  0  0  0  0  0  0
    3.7635   -3.0772    0.0000 O   0  0  0  0  0  0  0  0  0  0  0  0
  1  2  1  0  0  0  0 
  1  3  1  0  0  0  0 
  1  4  1  0  0  0  0 
  1  5  1  0  0  0  0 
  5  6  2  0  0  0  0 
  5  7  2  0  0  0  0 
  5  8  1  0  0  0  0 
  8  9  1  0  0  0  0 
  8 10  1  0  0  0  0 
  8 11  1  0  0  0  0 
 11 12  1  0  0  0  0 
 11 13  2  0  0  0  0 
M  END
> <Rank>
7

> <Priority_score>
0.552

> <Reaction_type>
N-dealkylation

> <Parent_ID>
50

> <Parent_InChI>
InChI=1S/C29H26ClFN4O4S/c1-40(36,37)12-11-32-16-23-7-10-27(39-23)20-5-8-26-24(14-20)29(34-18-33-26)35-22-6-9-28(25(30)15-22)38-17-19-3-2-4-21(31)13-19/h2-10,13-15,18,32H,11-12,16-17H2,1H3,(H,33,34,35)

> <Parent_SMILES>
CS(=O)(=O)CCNCc1ccc(-c2ccc3ncnc(Nc4ccc(OCc5cccc(F)c5)c(Cl)c4)c3c2)o1

$$$$
Molecule 50_metabolite 8
  CDK     0516241031

 54 58  0  0  0  0  0  0  0  0999 V2000
    9.0972  -10.4939    0.0000 C   0  0  0  0  0  0  0  0  0  0  0  0
    9.0924  -11.9939    0.0000 H   0  0  0  0  0  0  0  0  0  0  0  0
   10.3929   -9.7539    0.0000 C   0  0  0  0  0  0  0  0  0  0  0  0
   11.6894  -10.5083    0.0000 H   0  0  0  0  0  0  0  0  0  0  0  0
   10.3959   -8.2531    0.0000 C   0  0  0  0  0  0  0  0  0  0  0  0
    9.0981   -7.5009    0.0000 C   0  0  0  0  0  0  0  0  0  0  0  0
    9.1004   -6.0009    0.0000 H   0  0  0  0  0  0  0  0  0  0  0  0
    7.7974   -8.2496    0.0000 C   0  0  0  0  0  0  0  0  0  0  0  0
    7.7994   -9.7418    0.0000 C   0  0  0  0  0  0  0  0  0  0  0  0
    6.5002  -10.4916    0.0000 H   0  0  0  0  0  0  0  0  0  0  0  0
    6.4983   -7.4996    0.0000 C   0  0  0  0  0  0  0  0  0  0  0  0
    5.0211   -7.2391    0.0000 H   0  0  0  0  0  0  0  0  0  0  0  0
    5.9853   -8.9091    0.0000 H   0  0  0  0  0  0  0  0  0  0  0  0
    6.4983   -5.9996    0.0000 O   0  0  0  0  0  0  0  0  0  0  0  0
    5.1993   -5.2496    0.0000 C   0  0  0  0  0  0  0  0  0  0  0  0
    3.8994   -5.9998    0.0000 C   0  0  0  0  0  0  0  0  0  0  0  0
    3.8996   -7.4998    0.0000 H   0  0  0  0  0  0  0  0  0  0  0  0
    2.5993   -5.2500    0.0000 C   0  0  0  0  0  0  0  0  0  0  0  0
    1.3005   -6.0004    0.0000 H   0  0  0  0  0  0  0  0  0  0  0  0
    2.5990   -3.7500    0.0000 C   0  0  0  0  0  0  0  0  0  0  0  0
    3.8989   -2.9998    0.0000 C   0  0  0  0  0  0  0  0  0  0  0  0
    3.8987   -1.4998    0.0000 H   0  0  0  0  0  0  0  0  0  0  0  0
    5.1990   -3.7496    0.0000 C   0  0  0  0  0  0  0  0  0  0  0  0
    6.4978   -2.9992    0.0000 Cl  0  0  0  0  0  0  0  0  0  0  0  0
    1.3000   -3.0000    0.0000 N   0  0  0  0  0  0  0  0  0  0  0  0
    0.0010   -3.7500    0.0000 H   0  0  0  0  0  0  0  0  0  0  0  0
    1.3000   -1.5000    0.0000 C   0  0  0  0  0  0  0  0  0  0  0  0
    0.0000   -0.7500    0.0000 C   0  0  0  0  0  0  0  0  0  0  0  0
   -1.3000   -1.5000    0.0000 C   0  0  0  0  0  0  0  0  0  0  0  0
   -1.3000   -3.0000    0.0000 H   0  0  0  0  0  0  0  0  0  0  0  0
   -2.6000   -0.7500    0.0000 C   0  0  0  0  0  0  0  0  0  0  0  0
   -2.6000    0.7500    0.0000 C   0  0  0  0  0  0  0  0  0  0  0  0
   -3.8989    1.5002    0.0000 H   0  0  0  0  0  0  0  0  0  0  0  0
   -1.3000    1.5000    0.0000 C   0  0  0  0  0  0  0  0  0  0  0  0
   -1.3000    3.0000    0.0000 H   0  0  0  0  0  0  0  0  0  0  0  0
    0.0000    0.7500    0.0000 C   0  0  0  0  0  0  0  0  0  0  0  0
    1.3000    1.5000    0.0000 N   0  0  0  0  0  0  0  0  0  0  0  0
    2.6000    0.7500    0.0000 C   0  0  0  0  0  0  0  0  0  0  0  0
    3.8989    1.5002    0.0000 H   0  0  0  0  0  0  0  0  0  0  0  0
    2.6000   -0.7500    0.0000 N   0  0  0  0  0  0  0  0  0  0  0  0
   -3.8989   -1.5002    0.0000 C   0  0  0  0  0  0  0  0  0  0  0  0
   -4.0531   -2.9944    0.0000 C   0  0  0  0  0  0  0  0  0  0  0  0
   -2.9380   -3.9977    0.0000 H   0  0  0  0  0  0  0  0  0  0  0  0
   -5.5207   -3.3047    0.0000 C   0  0  0  0  0  0  0  0  0  0  0  0
   -6.1343   -4.6735    0.0000 H   0  0  0  0  0  0  0  0  0  0  0  0
   -6.2666   -2.0008    0.0000 C   0  0  0  0  0  0  0  0  0  0  0  0
   -7.7580   -1.8406    0.0000 C   0  0  0  0  0  0  0  0  0  0  0  0
   -9.2143   -2.2001    0.0000 H   0  0  0  0  0  0  0  0  0  0  0  0
   -7.6568   -3.3372    0.0000 H   0  0  0  0  0  0  0  0  0  0  0  0
   -8.3649   -0.4689    0.0000 N   0  0  0  0  0  0  0  0  0  0  0  0
   -9.8564   -0.3087    0.0000 H   0  0  0  0  0  0  0  0  0  0  0  0
   -7.4805    0.7426    0.0000 H   0  0  0  0  0  0  0  0  0  0  0  0
   -5.2648   -0.8896    0.0000 O   0  0  0  0  0  0  0  0  0  0  0  0
   11.6963   -7.5055    0.0000 F   0  0  0  0  0  0  0  0  0  0  0  0
  1  2  1  0  0  0  0 
  1  3  2  0  0  0  0 
  3  4  1  0  0  0  0 
  3  5  1  0  0  0  0 
  5  6  2  0  0  0  0 
  6  7  1  0  0  0  0 
  6  8  1  0  0  0  0 
  8  9  2  0  0  0  0 
  1  9  1  0  0  0  0 
  9 10  1  0  0  0  0 
  8 11  1  0  0  0  0 
 11 12  1  0  0  0  0 
 11 13  1  0  0  0  0 
 11 14  1  0  0  0  0 
 14 15  1  0  0  0  0 
 15 16  2  0  0  0  0 
 16 17  1  0  0  0  0 
 16 18  1  0  0  0  0 
 18 19  1  0  0  0  0 
 18 20  2  0  0  0  0 
 20 21  1  0  0  0  0 
 21 22  1  0  0  0  0 
 21 23  2  0  0  0  0 
 15 23  1  0  0  0  0 
 23 24  1  0  0  0  0 
 20 25  1  0  0  0  0 
 25 26  1  0  0  0  0 
 25 27  1  0  0  0  0 
 27 28  2  0  0  0  0 
 28 29  1  0  0  0  0 
 29 30  1  0  0  0  0 
 29 31  2  0  0  0  0 
 31 32  1  0  0  0  0 
 32 33  1  0  0  0  0 
 32 34  2  0  0  0  0 
 34 35  1  0  0  0  0 
 34 36  1  0  0  0  0 
 28 36  1  0  0  0  0 
 36 37  2  0  0  0  0 
 37 38  1  0  0  0  0 
 38 39  1  0  0  0  0 
 38 40  2  0  0  0  0 
 27 40  1  0  0  0  0 
 31 41  1  0  0  0  0 
 41 42  2  0  0  0  0 
 42 43  1  0  0  0  0 
 42 44  1  0  0  0  0 
 44 45  1  0  0  0  0 
 44 46  2  0  0  0  0 
 46 47  1  0  0  0  0 
 47 48  1  0  0  0  0 
 47 49  1  0  0  0  0 
 47 50  1  0  0  0  0 
 50 51  1  0  0  0  0 
 50 52  1  0  0  0  0 
 46 53  1  0  0  0  0 
 41 53  1  0  0  0  0 
  5 54  1  0  0  0  0 
M  END
> <Rank>
7

> <Priority_score>
0.552

> <Reaction_type>
N-dealkylation_(R-NHCH2-alkyl)

> <Parent_ID>
50

> <Parent_InChI>
InChI=1S/C29H26ClFN4O4S/c1-40(36,37)12-11-32-16-23-7-10-27(39-23)20-5-8-26-24(14-20)29(34-18-33-26)35-22-6-9-28(25(30)15-22)38-17-19-3-2-4-21(31)13-19/h2-10,13-15,18,32H,11-12,16-17H2,1H3,(H,33,34,35)

> <Parent_SMILES>
CS(=O)(=O)CCNCc1ccc(-c2ccc3ncnc(Nc4ccc(OCc5cccc(F)c5)c(Cl)c4)c3c2)o1

$$$$
Molecule 50_metabolite 9
  CDK     0516241031

 15 14  0  0  0  0  0  0  0  0999 V2000
    5.1962    0.7500    0.0000 C   0  0  0  0  0  0  0  0  0  0  0  0
    5.1962    2.2500    0.0000 H   0  0  0  0  0  0  0  0  0  0  0  0
    6.6734    1.0105    0.0000 H   0  0  0  0  0  0  0  0  0  0  0  0
    5.7092   -0.6595    0.0000 H   0  0  0  0  0  0  0  0  0  0  0  0
    3.8971   -0.0000    0.0000 S   0  0  0  0  0  0  0  0  0  0  0  0
    2.9329   -1.1491    0.0000 O   0  0  0  0  0  0  0  0  0  0  0  0
    4.8613   -1.1491    0.0000 O   0  0  0  0  0  0  0  0  0  0  0  0
    2.5981    0.7500    0.0000 C   0  0  0  0  0  0  0  0  0  0  0  0
    3.5623    1.8991    0.0000 H   0  0  0  0  0  0  0  0  0  0  0  0
    1.6339    1.8991    0.0000 H   0  0  0  0  0  0  0  0  0  0  0  0
    1.2990    0.0000    0.0000 C   0  0  0  0  0  0  0  0  0  0  0  0
   -0.1782   -0.2605    0.0000 H   0  0  0  0  0  0  0  0  0  0  0  0
    0.7860    1.4095    0.0000 H   0  0  0  0  0  0  0  0  0  0  0  0
    1.2990   -1.5000    0.0000 O   0  0  0  0  0  0  0  0  0  0  0  0
   -0.0000   -2.2500    0.0000 H   0  0  0  0  0  0  0  0  0  0  0  0
  1  2  1  0  0  0  0 
  1  3  1  0  0  0  0 
  1  4  1  0  0  0  0 
  1  5  1  0  0  0  0 
  5  6  2  0  0  0  0 
  5  7  2  0  0  0  0 
  5  8  1  0  0  0  0 
  8  9  1  0  0  0  0 
  8 10  1  0  0  0  0 
  8 11  1  0  0  0  0 
 11 12  1  0  0  0  0 
 11 13  1  0  0  0  0 
 11 14  1  0  0  0  0 
 14 15  1  0  0  0  0 
M  END
> <Rank>
7

> <Priority_score>
0.552

> <Reaction_type>
N-dealkylation_(R-NHCH2-alkyl)

> <Parent_ID>
50

> <Parent_InChI>
InChI=1S/C29H26ClFN4O4S/c1-40(36,37)12-11-32-16-23-7-10-27(39-23)20-5-8-26-24(14-20)29(34-18-33-26)35-22-6-9-28(25(30)15-22)38-17-19-3-2-4-21(31)13-19/h2-10,13-15,18,32H,11-12,16-17H2,1H3,(H,33,34,35)

> <Parent_SMILES>
CS(=O)(=O)CCNCc1ccc(-c2ccc3ncnc(Nc4ccc(OCc5cccc(F)c5)c(Cl)c4)c3c2)o1

$$$$
Molecule 50_metabolite 10
  CDK     0516241031

 67 71  0  0  0  0  0  0  0  0999 V2000
  -12.4807   -8.3891    0.0000 C   0  0  0  0  0  0  0  0  0  0  0  0
  -13.3655   -7.1779    0.0000 H   0  0  0  0  0  0  0  0  0  0  0  0
  -12.0635   -9.8299    0.0000 H   0  0  0  0  0  0  0  0  0  0  0  0
  -13.8272   -9.0502    0.0000 H   0  0  0  0  0  0  0  0  0  0  0  0
  -10.9893   -8.2284    0.0000 S   0  0  0  0  0  0  0  0  0  0  0  0
  -11.0900   -9.7250    0.0000 O   0  0  0  0  0  0  0  0  0  0  0  0
   -9.5329   -8.5875    0.0000 O   0  0  0  0  0  0  0  0  0  0  0  0
  -10.3828   -6.8565    0.0000 C   0  0  0  0  0  0  0  0  0  0  0  0
  -10.2821   -5.3599    0.0000 H   0  0  0  0  0  0  0  0  0  0  0  0
  -11.8392   -6.4974    0.0000 H   0  0  0  0  0  0  0  0  0  0  0  0
   -8.4142   -6.6444    0.0000 C   0  0  0  0  0  0  0  0  0  0  0  0
   -8.5149   -8.1410    0.0000 H   0  0  0  0  0  0  0  0  0  0  0  0
   -7.6136   -4.8335    0.0000 N   0  0  0  0  0  0  0  0  0  0  0  0
   -8.4985   -3.6223    0.0000 H   0  0  0  0  0  0  0  0  0  0  0  0
   -6.1222   -4.6728    0.0000 C   0  0  0  0  0  0  0  0  0  0  0  0
   -6.2229   -6.1694    0.0000 H   0  0  0  0  0  0  0  0  0  0  0  0
   -4.6658   -5.0318    0.0000 H   0  0  0  0  0  0  0  0  0  0  0  0
   -5.5157   -3.3009    0.0000 C   0  0  0  0  0  0  0  0  0  0  0  0
   -6.2724   -2.0032    0.0000 C   0  0  0  0  0  0  0  0  0  0  0  0
   -7.7646   -1.8507    0.0000 H   0  0  0  0  0  0  0  0  0  0  0  0
   -5.2703   -0.8871    0.0000 C   0  0  0  0  0  0  0  0  0  0  0  0
   -5.5820    0.5801    0.0000 H   0  0  0  0  0  0  0  0  0  0  0  0
   -3.8989   -1.5002    0.0000 C   0  0  0  0  0  0  0  0  0  0  0  0
   -2.6000   -0.7500    0.0000 C   0  0  0  0  0  0  0  0  0  0  0  0
   -1.3000   -1.5000    0.0000 C   0  0  0  0  0  0  0  0  0  0  0  0
   -1.3000   -3.0000    0.0000 H   0  0  0  0  0  0  0  0  0  0  0  0
    0.0000   -0.7500    0.0000 C   0  0  0  0  0  0  0  0  0  0  0  0
    1.3000   -1.5000    0.0000 C   0  0  0  0  0  0  0  0  0  0  0  0
    2.6000   -0.7500    0.0000 N   0  0  0  0  0  0  0  0  0  0  0  0
    2.6000    0.7500    0.0000 C   0  0  0  0  0  0  0  0  0  0  0  0
    3.8989    1.5002    0.0000 H   0  0  0  0  0  0  0  0  0  0  0  0
    1.3000    1.5000    0.0000 N   0  0  0  0  0  0  0  0  0  0  0  0
    0.0000    0.7500    0.0000 C   0  0  0  0  0  0  0  0  0  0  0  0
   -1.3000    1.5000    0.0000 C   0  0  0  0  0  0  0  0  0  0  0  0
   -1.3000    3.0000    0.0000 H   0  0  0  0  0  0  0  0  0  0  0  0
   -2.6000    0.7500    0.0000 C   0  0  0  0  0  0  0  0  0  0  0  0
   -3.8989    1.5002    0.0000 H   0  0  0  0  0  0  0  0  0  0  0  0
    1.3000   -3.0000    0.0000 N   0  0  0  0  0  0  0  0  0  0  0  0
    0.0010   -3.7500    0.0000 H   0  0  0  0  0  0  0  0  0  0  0  0
    2.5990   -3.7500    0.0000 C   0  0  0  0  0  0  0  0  0  0  0  0
    3.8989   -2.9998    0.0000 C   0  0  0  0  0  0  0  0  0  0  0  0
    3.8987   -1.4998    0.0000 H   0  0  0  0  0  0  0  0  0  0  0  0
    5.1990   -3.7496    0.0000 C   0  0  0  0  0  0  0  0  0  0  0  0
    6.4978   -2.9992    0.0000 H   0  0  0  0  0  0  0  0  0  0  0  0
    5.1993   -5.2496    0.0000 C   0  0  0  0  0  0  0  0  0  0  0  0
    3.8994   -5.9998    0.0000 C   0  0  0  0  0  0  0  0  0  0  0  0
    2.5993   -5.2500    0.0000 C   0  0  0  0  0  0  0  0  0  0  0  0
    1.3005   -6.0004    0.0000 H   0  0  0  0  0  0  0  0  0  0  0  0
    3.8996   -7.4998    0.0000 Cl  0  0  0  0  0  0  0  0  0  0  0  0
    6.4983   -5.9996    0.0000 O   0  0  0  0  0  0  0  0  0  0  0  0
    7.7974   -5.2496    0.0000 C   0  0  0  0  0  0  0  0  0  0  0  0
    8.7615   -4.1005    0.0000 H   0  0  0  0  0  0  0  0  0  0  0  0
    6.8332   -4.1005    0.0000 H   0  0  0  0  0  0  0  0  0  0  0  0
    9.0964   -5.9996    0.0000 C   0  0  0  0  0  0  0  0  0  0  0  0
    9.0984   -7.4918    0.0000 C   0  0  0  0  0  0  0  0  0  0  0  0
    7.7993   -8.2416    0.0000 H   0  0  0  0  0  0  0  0  0  0  0  0
   10.3962   -8.2439    0.0000 C   0  0  0  0  0  0  0  0  0  0  0  0
   10.3914   -9.7439    0.0000 H   0  0  0  0  0  0  0  0  0  0  0  0
   11.6920   -7.5039    0.0000 C   0  0  0  0  0  0  0  0  0  0  0  0
   12.9885   -8.2583    0.0000 H   0  0  0  0  0  0  0  0  0  0  0  0
   11.6949   -6.0031    0.0000 C   0  0  0  0  0  0  0  0  0  0  0  0
   10.3972   -5.2509    0.0000 C   0  0  0  0  0  0  0  0  0  0  0  0
   10.3994   -3.7509    0.0000 H   0  0  0  0  0  0  0  0  0  0  0  0
   12.9954   -5.2555    0.0000 F   0  0  0  0  0  0  0  0  0  0  0  0
   -4.0525   -2.9885    0.0000 O   0  0  0  0  0  0  0  0  0  0  0  0
   -6.9578   -7.0035    0.0000 O   0  0  0  0  0  0  0  0  0  0  0  0
   -6.5406   -8.4443    0.0000 H   0  0  0  0  0  0  0  0  0  0  0  0
  1  2  1  0  0  0  0 
  1  3  1  0  0  0  0 
  1  4  1  0  0  0  0 
  1  5  1  0  0  0  0 
  5  6  2  0  0  0  0 
  5  7  2  0  0  0  0 
  5  8  1  0  0  0  0 
  8  9  1  0  0  0  0 
  8 10  1  0  0  0  0 
  8 11  1  0  0  0  0 
 11 12  1  0  0  0  0 
 11 13  1  0  0  0  0 
 13 14  1  0  0  0  0 
 13 15  1  0  0  0  0 
 15 16  1  0  0  0  0 
 15 17  1  0  0  0  0 
 15 18  1  0  0  0  0 
 18 19  2  0  0  0  0 
 19 20  1  0  0  0  0 
 19 21  1  0  0  0  0 
 21 22  1  0  0  0  0 
 21 23  2  0  0  0  0 
 23 24  1  0  0  0  0 
 24 25  2  0  0  0  0 
 25 26  1  0  0  0  0 
 25 27  1  0  0  0  0 
 27 28  2  0  0  0  0 
 28 29  1  0  0  0  0 
 29 30  2  0  0  0  0 
 30 31  1  0  0  0  0 
 30 32  1  0  0  0  0 
 32 33  2  0  0  0  0 
 27 33  1  0  0  0  0 
 33 34  1  0  0  0  0 
 34 35  1  0  0  0  0 
 34 36  2  0  0  0  0 
 24 36  1  0  0  0  0 
 36 37  1  0  0  0  0 
 28 38  1  0  0  0  0 
 38 39  1  0  0  0  0 
 38 40  1  0  0  0  0 
 40 41  2  0  0  0  0 
 41 42  1  0  0  0  0 
 41 43  1  0  0  0  0 
 43 44  1  0  0  0  0 
 43 45  2  0  0  0  0 
 45 46  1  0  0  0  0 
 46 47  2  0  0  0  0 
 40 47  1  0  0  0  0 
 47 48  1  0  0  0  0 
 46 49  1  0  0  0  0 
 45 50  1  0  0  0  0 
 50 51  1  0  0  0  0 
 51 52  1  0  0  0  0 
 51 53  1  0  0  0  0 
 51 54  1  0  0  0  0 
 54 55  2  0  0  0  0 
 55 56  1  0  0  0  0 
 55 57  1  0  0  0  0 
 57 58  1  0  0  0  0 
 57 59  2  0  0  0  0 
 59 60  1  0  0  0  0 
 59 61  1  0  0  0  0 
 61 62  2  0  0  0  0 
 54 62  1  0  0  0  0 
 62 63  1  0  0  0  0 
 61 64  1  0  0  0  0 
 23 65  1  0  0  0  0 
 18 65  1  0  0  0  0 
 11 66  1  0  0  0  0 
 66 67  1  0  0  0  0 
M  END
> <Rank>
7

> <Priority_score>
0.552

> <Reaction_type>
aliphatic hydroxylation

> <Parent_ID>
50

> <Parent_InChI>
InChI=1S/C29H26ClFN4O4S/c1-40(36,37)12-11-32-16-23-7-10-27(39-23)20-5-8-26-24(14-20)29(34-18-33-26)35-22-6-9-28(25(30)15-22)38-17-19-3-2-4-21(31)13-19/h2-10,13-15,18,32H,11-12,16-17H2,1H3,(H,33,34,35)

> <Parent_SMILES>
CS(=O)(=O)CCNCc1ccc(-c2ccc3ncnc(Nc4ccc(OCc5cccc(F)c5)c(Cl)c4)c3c2)o1

$$$$
Molecule 50_metabolite 11
  CDK     0516241031

 16 15  0  0  0  0  0  0  0  0999 V2000
    5.3054    1.7221    0.0000 C   0  0  0  0  0  0  0  0  0  0  0  0
    4.0064    2.4721    0.0000 H   0  0  0  0  0  0  0  0  0  0  0  0
    5.8184    3.1317    0.0000 H   0  0  0  0  0  0  0  0  0  0  0  0
    6.7826    1.4617    0.0000 H   0  0  0  0  0  0  0  0  0  0  0  0
    5.3054    0.2221    0.0000 S   0  0  0  0  0  0  0  0  0  0  0  0
    5.8184   -1.1874    0.0000 O   0  0  0  0  0  0  0  0  0  0  0  0
    6.7826    0.4826    0.0000 O   0  0  0  0  0  0  0  0  0  0  0  0
    3.5907   -0.7679    0.0000 C   0  0  0  0  0  0  0  0  0  0  0  0
    3.0777    0.6417    0.0000 H   0  0  0  0  0  0  0  0  0  0  0  0
    2.1135   -1.0283    0.0000 H   0  0  0  0  0  0  0  0  0  0  0  0
    3.5907   -2.2679    0.0000 C   0  0  0  0  0  0  0  0  0  0  0  0
    4.1037   -3.6774    0.0000 H   0  0  0  0  0  0  0  0  0  0  0  0
    5.0679   -2.0074    0.0000 H   0  0  0  0  0  0  0  0  0  0  0  0
    2.2916   -3.0179    0.0000 N   0  0  0  0  0  0  0  0  0  0  0  0
    2.2916   -4.5179    0.0000 H   0  0  0  0  0  0  0  0  0  0  0  0
    0.9926   -2.2679    0.0000 H   0  0  0  0  0  0  0  0  0  0  0  0
  1  2  1  0  0  0  0 
  1  3  1  0  0  0  0 
  1  4  1  0  0  0  0 
  1  5  1  0  0  0  0 
  5  6  2  0  0  0  0 
  5  7  2  0  0  0  0 
  5  8  1  0  0  0  0 
  8  9  1  0  0  0  0 
  8 10  1  0  0  0  0 
  8 11  1  0  0  0  0 
 11 12  1  0  0  0  0 
 11 13  1  0  0  0  0 
 11 14  1  0  0  0  0 
 14 15  1  0  0  0  0 
 14 16  1  0  0  0  0 
M  END
> <Rank>
7

> <Priority_score>
0.552

> <Reaction_type>
N-dealkylation_(R-NHCH2-alkyl)

> <Parent_ID>
50

> <Parent_InChI>
InChI=1S/C29H26ClFN4O4S/c1-40(36,37)12-11-32-16-23-7-10-27(39-23)20-5-8-26-24(14-20)29(34-18-33-26)35-22-6-9-28(25(30)15-22)38-17-19-3-2-4-21(31)13-19/h2-10,13-15,18,32H,11-12,16-17H2,1H3,(H,33,34,35)

> <Parent_SMILES>
CS(=O)(=O)CCNCc1ccc(-c2ccc3ncnc(Nc4ccc(OCc5cccc(F)c5)c(Cl)c4)c3c2)o1

$$$$
Molecule 50_metabolite 12
  CDK     0516241031

 67 71  0  0  0  0  0  0  0  0999 V2000
  -12.2866   -7.9501    0.0000 C   0  0  0  0  0  0  0  0  0  0  0  0
  -12.8931   -9.3220    0.0000 H   0  0  0  0  0  0  0  0  0  0  0  0
  -12.1859   -6.4535    0.0000 H   0  0  0  0  0  0  0  0  0  0  0  0
  -13.7430   -7.5910    0.0000 H   0  0  0  0  0  0  0  0  0  0  0  0
  -10.3180   -7.7380    0.0000 S   0  0  0  0  0  0  0  0  0  0  0  0
  -10.4187   -9.2346    0.0000 O   0  0  0  0  0  0  0  0  0  0  0  0
   -8.8616   -8.0971    0.0000 O   0  0  0  0  0  0  0  0  0  0  0  0
   -9.7115   -6.3661    0.0000 C   0  0  0  0  0  0  0  0  0  0  0  0
   -9.6108   -4.8695    0.0000 H   0  0  0  0  0  0  0  0  0  0  0  0
   -7.7429   -6.1540    0.0000 C   0  0  0  0  0  0  0  0  0  0  0  0
   -7.8436   -7.6506    0.0000 H   0  0  0  0  0  0  0  0  0  0  0  0
   -6.2865   -6.5130    0.0000 H   0  0  0  0  0  0  0  0  0  0  0  0
   -7.1364   -4.7820    0.0000 N   0  0  0  0  0  0  0  0  0  0  0  0
   -8.0212   -3.5708    0.0000 H   0  0  0  0  0  0  0  0  0  0  0  0
   -5.1678   -4.5699    0.0000 C   0  0  0  0  0  0  0  0  0  0  0  0
   -5.2685   -6.0665    0.0000 H   0  0  0  0  0  0  0  0  0  0  0  0
   -3.7114   -4.9290    0.0000 H   0  0  0  0  0  0  0  0  0  0  0  0
   -4.5612   -3.1980    0.0000 C   0  0  0  0  0  0  0  0  0  0  0  0
   -5.3179   -1.9004    0.0000 C   0  0  0  0  0  0  0  0  0  0  0  0
   -6.8102   -1.7478    0.0000 H   0  0  0  0  0  0  0  0  0  0  0  0
   -4.3158   -0.7843    0.0000 C   0  0  0  0  0  0  0  0  0  0  0  0
   -4.6275    0.6830    0.0000 H   0  0  0  0  0  0  0  0  0  0  0  0
   -2.9444   -1.3974    0.0000 C   0  0  0  0  0  0  0  0  0  0  0  0
   -1.6455   -0.6472    0.0000 C   0  0  0  0  0  0  0  0  0  0  0  0
   -0.3455   -1.3972    0.0000 C   0  0  0  0  0  0  0  0  0  0  0  0
   -0.3455   -2.8972    0.0000 H   0  0  0  0  0  0  0  0  0  0  0  0
    0.9545   -0.6472    0.0000 C   0  0  0  0  0  0  0  0  0  0  0  0
    2.2545   -1.3972    0.0000 C   0  0  0  0  0  0  0  0  0  0  0  0
    3.5545   -0.6472    0.0000 N   0  0  0  0  0  0  0  0  0  0  0  0
    3.5545    0.8528    0.0000 C   0  0  0  0  0  0  0  0  0  0  0  0
    4.8534    1.6031    0.0000 H   0  0  0  0  0  0  0  0  0  0  0  0
    2.2545    1.6028    0.0000 N   0  0  0  0  0  0  0  0  0  0  0  0
    0.9545    0.8528    0.0000 C   0  0  0  0  0  0  0  0  0  0  0  0
   -0.3455    1.6028    0.0000 C   0  0  0  0  0  0  0  0  0  0  0  0
   -0.3455    3.1028    0.0000 H   0  0  0  0  0  0  0  0  0  0  0  0
   -1.6455    0.8528    0.0000 C   0  0  0  0  0  0  0  0  0  0  0  0
   -2.9444    1.6031    0.0000 H   0  0  0  0  0  0  0  0  0  0  0  0
    2.2545   -2.8972    0.0000 N   0  0  0  0  0  0  0  0  0  0  0  0
    0.9554   -3.6472    0.0000 H   0  0  0  0  0  0  0  0  0  0  0  0
    3.5535   -3.6472    0.0000 C   0  0  0  0  0  0  0  0  0  0  0  0
    4.8534   -2.8969    0.0000 C   0  0  0  0  0  0  0  0  0  0  0  0
    4.8532   -1.3969    0.0000 H   0  0  0  0  0  0  0  0  0  0  0  0
    6.1535   -3.6467    0.0000 C   0  0  0  0  0  0  0  0  0  0  0  0
    7.4523   -2.8963    0.0000 H   0  0  0  0  0  0  0  0  0  0  0  0
    6.1538   -5.1467    0.0000 C   0  0  0  0  0  0  0  0  0  0  0  0
    4.8539   -5.8969    0.0000 C   0  0  0  0  0  0  0  0  0  0  0  0
    3.5538   -5.1472    0.0000 C   0  0  0  0  0  0  0  0  0  0  0  0
    2.2550   -5.8976    0.0000 H   0  0  0  0  0  0  0  0  0  0  0  0
    4.8541   -7.3969    0.0000 Cl  0  0  0  0  0  0  0  0  0  0  0  0
    7.4528   -5.8967    0.0000 O   0  0  0  0  0  0  0  0  0  0  0  0
    8.7518   -5.1467    0.0000 C   0  0  0  0  0  0  0  0  0  0  0  0
    9.7160   -3.9977    0.0000 H   0  0  0  0  0  0  0  0  0  0  0  0
    7.7876   -3.9977    0.0000 H   0  0  0  0  0  0  0  0  0  0  0  0
   10.0509   -5.8967    0.0000 C   0  0  0  0  0  0  0  0  0  0  0  0
   10.0529   -7.3889    0.0000 C   0  0  0  0  0  0  0  0  0  0  0  0
    8.7537   -8.1387    0.0000 H   0  0  0  0  0  0  0  0  0  0  0  0
   11.3507   -8.1411    0.0000 C   0  0  0  0  0  0  0  0  0  0  0  0
   11.3459   -9.6411    0.0000 H   0  0  0  0  0  0  0  0  0  0  0  0
   12.6464   -7.4011    0.0000 C   0  0  0  0  0  0  0  0  0  0  0  0
   13.9429   -8.1554    0.0000 H   0  0  0  0  0  0  0  0  0  0  0  0
   12.6494   -5.9003    0.0000 C   0  0  0  0  0  0  0  0  0  0  0  0
   11.3516   -5.1481    0.0000 C   0  0  0  0  0  0  0  0  0  0  0  0
   11.3539   -3.6481    0.0000 H   0  0  0  0  0  0  0  0  0  0  0  0
   13.9498   -5.1526    0.0000 F   0  0  0  0  0  0  0  0  0  0  0  0
   -3.0981   -2.8856    0.0000 O   0  0  0  0  0  0  0  0  0  0  0  0
  -11.1679   -6.0070    0.0000 O   0  0  0  0  0  0  0  0  0  0  0  0
  -11.5851   -4.5662    0.0000 H   0  0  0  0  0  0  0  0  0  0  0  0
  1  2  1  0  0  0  0 
  1  3  1  0  0  0  0 
  1  4  1  0  0  0  0 
  1  5  1  0  0  0  0 
  5  6  2  0  0  0  0 
  5  7  2  0  0  0  0 
  5  8  1  0  0  0  0 
  8  9  1  0  0  0  0 
  8 10  1  0  0  0  0 
 10 11  1  0  0  0  0 
 10 12  1  0  0  0  0 
 10 13  1  0  0  0  0 
 13 14  1  0  0  0  0 
 13 15  1  0  0  0  0 
 15 16  1  0  0  0  0 
 15 17  1  0  0  0  0 
 15 18  1  0  0  0  0 
 18 19  2  0  0  0  0 
 19 20  1  0  0  0  0 
 19 21  1  0  0  0  0 
 21 22  1  0  0  0  0 
 21 23  2  0  0  0  0 
 23 24  1  0  0  0  0 
 24 25  2  0  0  0  0 
 25 26  1  0  0  0  0 
 25 27  1  0  0  0  0 
 27 28  2  0  0  0  0 
 28 29  1  0  0  0  0 
 29 30  2  0  0  0  0 
 30 31  1  0  0  0  0 
 30 32  1  0  0  0  0 
 32 33  2  0  0  0  0 
 27 33  1  0  0  0  0 
 33 34  1  0  0  0  0 
 34 35  1  0  0  0  0 
 34 36  2  0  0  0  0 
 24 36  1  0  0  0  0 
 36 37  1  0  0  0  0 
 28 38  1  0  0  0  0 
 38 39  1  0  0  0  0 
 38 40  1  0  0  0  0 
 40 41  2  0  0  0  0 
 41 42  1  0  0  0  0 
 41 43  1  0  0  0  0 
 43 44  1  0  0  0  0 
 43 45  2  0  0  0  0 
 45 46  1  0  0  0  0 
 46 47  2  0  0  0  0 
 40 47  1  0  0  0  0 
 47 48  1  0  0  0  0 
 46 49  1  0  0  0  0 
 45 50  1  0  0  0  0 
 50 51  1  0  0  0  0 
 51 52  1  0  0  0  0 
 51 53  1  0  0  0  0 
 51 54  1  0  0  0  0 
 54 55  2  0  0  0  0 
 55 56  1  0  0  0  0 
 55 57  1  0  0  0  0 
 57 58  1  0  0  0  0 
 57 59  2  0  0  0  0 
 59 60  1  0  0  0  0 
 59 61  1  0  0  0  0 
 61 62  2  0  0  0  0 
 54 62  1  0  0  0  0 
 62 63  1  0  0  0  0 
 61 64  1  0  0  0  0 
 23 65  1  0  0  0  0 
 18 65  1  0  0  0  0 
  8 66  1  0  0  0  0 
 66 67  1  0  0  0  0 
M  END
> <Rank>
7

> <Priority_score>
0.552

> <Reaction_type>
aliphatic_hydroxylation_(sec_carbon_next_to_SP2,not_in_a_ring)

> <Parent_ID>
50

> <Parent_InChI>
InChI=1S/C29H26ClFN4O4S/c1-40(36,37)12-11-32-16-23-7-10-27(39-23)20-5-8-26-24(14-20)29(34-18-33-26)35-22-6-9-28(25(30)15-22)38-17-19-3-2-4-21(31)13-19/h2-10,13-15,18,32H,11-12,16-17H2,1H3,(H,33,34,35)

> <Parent_SMILES>
CS(=O)(=O)CCNCc1ccc(-c2ccc3ncnc(Nc4ccc(OCc5cccc(F)c5)c(Cl)c4)c3c2)o1

$$$$
Molecule 50_metabolite 13
  CDK     0516241031

 67 71  0  0  0  0  0  0  0  0999 V2000
  -12.4807   -8.3891    0.0000 C   0  0  0  0  0  0  0  0  0  0  0  0
  -13.3655   -7.1779    0.0000 H   0  0  0  0  0  0  0  0  0  0  0  0
  -12.0635   -9.8299    0.0000 H   0  0  0  0  0  0  0  0  0  0  0  0
  -13.8272   -9.0502    0.0000 H   0  0  0  0  0  0  0  0  0  0  0  0
  -10.9893   -8.2284    0.0000 S   0  0  0  0  0  0  0  0  0  0  0  0
  -11.0900   -9.7250    0.0000 O   0  0  0  0  0  0  0  0  0  0  0  0
   -9.5329   -8.5875    0.0000 O   0  0  0  0  0  0  0  0  0  0  0  0
  -10.3828   -6.8565    0.0000 C   0  0  0  0  0  0  0  0  0  0  0  0
  -10.2821   -5.3599    0.0000 H   0  0  0  0  0  0  0  0  0  0  0  0
  -11.8392   -6.4974    0.0000 H   0  0  0  0  0  0  0  0  0  0  0  0
   -8.4142   -6.6444    0.0000 C   0  0  0  0  0  0  0  0  0  0  0  0
   -8.5149   -8.1410    0.0000 H   0  0  0  0  0  0  0  0  0  0  0  0
   -6.9578   -7.0035    0.0000 H   0  0  0  0  0  0  0  0  0  0  0  0
   -7.6136   -4.8335    0.0000 N   0  0  0  0  0  0  0  0  0  0  0  0
   -6.1222   -4.6728    0.0000 C   0  0  0  0  0  0  0  0  0  0  0  0
   -6.2229   -6.1694    0.0000 H   0  0  0  0  0  0  0  0  0  0  0  0
   -4.6658   -5.0318    0.0000 H   0  0  0  0  0  0  0  0  0  0  0  0
   -5.5157   -3.3009    0.0000 C   0  0  0  0  0  0  0  0  0  0  0  0
   -6.2724   -2.0032    0.0000 C   0  0  0  0  0  0  0  0  0  0  0  0
   -7.7646   -1.8507    0.0000 H   0  0  0  0  0  0  0  0  0  0  0  0
   -5.2703   -0.8871    0.0000 C   0  0  0  0  0  0  0  0  0  0  0  0
   -5.5820    0.5801    0.0000 H   0  0  0  0  0  0  0  0  0  0  0  0
   -3.8989   -1.5002    0.0000 C   0  0  0  0  0  0  0  0  0  0  0  0
   -2.6000   -0.7500    0.0000 C   0  0  0  0  0  0  0  0  0  0  0  0
   -1.3000   -1.5000    0.0000 C   0  0  0  0  0  0  0  0  0  0  0  0
   -1.3000   -3.0000    0.0000 H   0  0  0  0  0  0  0  0  0  0  0  0
    0.0000   -0.7500    0.0000 C   0  0  0  0  0  0  0  0  0  0  0  0
    1.3000   -1.5000    0.0000 C   0  0  0  0  0  0  0  0  0  0  0  0
    2.6000   -0.7500    0.0000 N   0  0  0  0  0  0  0  0  0  0  0  0
    2.6000    0.7500    0.0000 C   0  0  0  0  0  0  0  0  0  0  0  0
    3.8989    1.5002    0.0000 H   0  0  0  0  0  0  0  0  0  0  0  0
    1.3000    1.5000    0.0000 N   0  0  0  0  0  0  0  0  0  0  0  0
    0.0000    0.7500    0.0000 C   0  0  0  0  0  0  0  0  0  0  0  0
   -1.3000    1.5000    0.0000 C   0  0  0  0  0  0  0  0  0  0  0  0
   -1.3000    3.0000    0.0000 H   0  0  0  0  0  0  0  0  0  0  0  0
   -2.6000    0.7500    0.0000 C   0  0  0  0  0  0  0  0  0  0  0  0
   -3.8989    1.5002    0.0000 H   0  0  0  0  0  0  0  0  0  0  0  0
    1.3000   -3.0000    0.0000 N   0  0  0  0  0  0  0  0  0  0  0  0
    0.0010   -3.7500    0.0000 H   0  0  0  0  0  0  0  0  0  0  0  0
    2.5990   -3.7500    0.0000 C   0  0  0  0  0  0  0  0  0  0  0  0
    3.8989   -2.9998    0.0000 C   0  0  0  0  0  0  0  0  0  0  0  0
    3.8987   -1.4998    0.0000 H   0  0  0  0  0  0  0  0  0  0  0  0
    5.1990   -3.7496    0.0000 C   0  0  0  0  0  0  0  0  0  0  0  0
    6.4978   -2.9992    0.0000 H   0  0  0  0  0  0  0  0  0  0  0  0
    5.1993   -5.2496    0.0000 C   0  0  0  0  0  0  0  0  0  0  0  0
    3.8994   -5.9998    0.0000 C   0  0  0  0  0  0  0  0  0  0  0  0
    2.5993   -5.2500    0.0000 C   0  0  0  0  0  0  0  0  0  0  0  0
    1.3005   -6.0004    0.0000 H   0  0  0  0  0  0  0  0  0  0  0  0
    3.8996   -7.4998    0.0000 Cl  0  0  0  0  0  0  0  0  0  0  0  0
    6.4983   -5.9996    0.0000 O   0  0  0  0  0  0  0  0  0  0  0  0
    7.7974   -5.2496    0.0000 C   0  0  0  0  0  0  0  0  0  0  0  0
    8.7615   -4.1005    0.0000 H   0  0  0  0  0  0  0  0  0  0  0  0
    6.8332   -4.1005    0.0000 H   0  0  0  0  0  0  0  0  0  0  0  0
    9.0964   -5.9996    0.0000 C   0  0  0  0  0  0  0  0  0  0  0  0
    9.0984   -7.4918    0.0000 C   0  0  0  0  0  0  0  0  0  0  0  0
    7.7993   -8.2416    0.0000 H   0  0  0  0  0  0  0  0  0  0  0  0
   10.3962   -8.2439    0.0000 C   0  0  0  0  0  0  0  0  0  0  0  0
   10.3914   -9.7439    0.0000 H   0  0  0  0  0  0  0  0  0  0  0  0
   11.6920   -7.5039    0.0000 C   0  0  0  0  0  0  0  0  0  0  0  0
   12.9885   -8.2583    0.0000 H   0  0  0  0  0  0  0  0  0  0  0  0
   11.6949   -6.0031    0.0000 C   0  0  0  0  0  0  0  0  0  0  0  0
   10.3972   -5.2509    0.0000 C   0  0  0  0  0  0  0  0  0  0  0  0
   10.3994   -3.7509    0.0000 H   0  0  0  0  0  0  0  0  0  0  0  0
   12.9954   -5.2555    0.0000 F   0  0  0  0  0  0  0  0  0  0  0  0
   -4.0525   -2.9885    0.0000 O   0  0  0  0  0  0  0  0  0  0  0  0
   -8.4985   -3.6223    0.0000 O   0  0  0  0  0  0  0  0  0  0  0  0
   -9.9898   -3.7830    0.0000 H   0  0  0  0  0  0  0  0  0  0  0  0
  1  2  1  0  0  0  0 
  1  3  1  0  0  0  0 
  1  4  1  0  0  0  0 
  1  5  1  0  0  0  0 
  5  6  2  0  0  0  0 
  5  7  2  0  0  0  0 
  5  8  1  0  0  0  0 
  8  9  1  0  0  0  0 
  8 10  1  0  0  0  0 
  8 11  1  0  0  0  0 
 11 12  1  0  0  0  0 
 11 13  1  0  0  0  0 
 11 14  1  0  0  0  0 
 14 15  1  0  0  0  0 
 15 16  1  0  0  0  0 
 15 17  1  0  0  0  0 
 15 18  1  0  0  0  0 
 18 19  2  0  0  0  0 
 19 20  1  0  0  0  0 
 19 21  1  0  0  0  0 
 21 22  1  0  0  0  0 
 21 23  2  0  0  0  0 
 23 24  1  0  0  0  0 
 24 25  2  0  0  0  0 
 25 26  1  0  0  0  0 
 25 27  1  0  0  0  0 
 27 28  2  0  0  0  0 
 28 29  1  0  0  0  0 
 29 30  2  0  0  0  0 
 30 31  1  0  0  0  0 
 30 32  1  0  0  0  0 
 32 33  2  0  0  0  0 
 27 33  1  0  0  0  0 
 33 34  1  0  0  0  0 
 34 35  1  0  0  0  0 
 34 36  2  0  0  0  0 
 24 36  1  0  0  0  0 
 36 37  1  0  0  0  0 
 28 38  1  0  0  0  0 
 38 39  1  0  0  0  0 
 38 40  1  0  0  0  0 
 40 41  2  0  0  0  0 
 41 42  1  0  0  0  0 
 41 43  1  0  0  0  0 
 43 44  1  0  0  0  0 
 43 45  2  0  0  0  0 
 45 46  1  0  0  0  0 
 46 47  2  0  0  0  0 
 40 47  1  0  0  0  0 
 47 48  1  0  0  0  0 
 46 49  1  0  0  0  0 
 45 50  1  0  0  0  0 
 50 51  1  0  0  0  0 
 51 52  1  0  0  0  0 
 51 53  1  0  0  0  0 
 51 54  1  0  0  0  0 
 54 55  2  0  0  0  0 
 55 56  1  0  0  0  0 
 55 57  1  0  0  0  0 
 57 58  1  0  0  0  0 
 57 59  2  0  0  0  0 
 59 60  1  0  0  0  0 
 59 61  1  0  0  0  0 
 61 62  2  0  0  0  0 
 54 62  1  0  0  0  0 
 62 63  1  0  0  0  0 
 61 64  1  0  0  0  0 
 23 65  1  0  0  0  0 
 18 65  1  0  0  0  0 
 14 66  1  0  0  0  0 
 66 67  1  0  0  0  0 
M  END
> <Rank>
7

> <Priority_score>
0.552

> <Reaction_type>
amine hydroxylation

> <Parent_ID>
50

> <Parent_InChI>
InChI=1S/C29H26ClFN4O4S/c1-40(36,37)12-11-32-16-23-7-10-27(39-23)20-5-8-26-24(14-20)29(34-18-33-26)35-22-6-9-28(25(30)15-22)38-17-19-3-2-4-21(31)13-19/h2-10,13-15,18,32H,11-12,16-17H2,1H3,(H,33,34,35)

> <Parent_SMILES>
CS(=O)(=O)CCNCc1ccc(-c2ccc3ncnc(Nc4ccc(OCc5cccc(F)c5)c(Cl)c4)c3c2)o1

$$$$
Molecule 50_metabolite 14
  CDK     0516241031

 53 57  0  0  0  0  0  0  0  0999 V2000
    9.0972  -10.4939    0.0000 C   0  0  0  0  0  0  0  0  0  0  0  0
    9.0924  -11.9939    0.0000 H   0  0  0  0  0  0  0  0  0  0  0  0
   10.3929   -9.7539    0.0000 C   0  0  0  0  0  0  0  0  0  0  0  0
   11.6894  -10.5083    0.0000 H   0  0  0  0  0  0  0  0  0  0  0  0
   10.3959   -8.2531    0.0000 C   0  0  0  0  0  0  0  0  0  0  0  0
    9.0981   -7.5009    0.0000 C   0  0  0  0  0  0  0  0  0  0  0  0
    9.1004   -6.0009    0.0000 H   0  0  0  0  0  0  0  0  0  0  0  0
    7.7974   -8.2496    0.0000 C   0  0  0  0  0  0  0  0  0  0  0  0
    7.7994   -9.7418    0.0000 C   0  0  0  0  0  0  0  0  0  0  0  0
    6.5002  -10.4916    0.0000 H   0  0  0  0  0  0  0  0  0  0  0  0
    6.4983   -7.4996    0.0000 C   0  0  0  0  0  0  0  0  0  0  0  0
    5.0211   -7.2391    0.0000 H   0  0  0  0  0  0  0  0  0  0  0  0
    5.9853   -8.9091    0.0000 H   0  0  0  0  0  0  0  0  0  0  0  0
    6.4983   -5.9996    0.0000 O   0  0  0  0  0  0  0  0  0  0  0  0
    5.1993   -5.2496    0.0000 C   0  0  0  0  0  0  0  0  0  0  0  0
    3.8994   -5.9998    0.0000 C   0  0  0  0  0  0  0  0  0  0  0  0
    3.8996   -7.4998    0.0000 H   0  0  0  0  0  0  0  0  0  0  0  0
    2.5993   -5.2500    0.0000 C   0  0  0  0  0  0  0  0  0  0  0  0
    1.3005   -6.0004    0.0000 H   0  0  0  0  0  0  0  0  0  0  0  0
    2.5990   -3.7500    0.0000 C   0  0  0  0  0  0  0  0  0  0  0  0
    3.8989   -2.9998    0.0000 C   0  0  0  0  0  0  0  0  0  0  0  0
    3.8987   -1.4998    0.0000 H   0  0  0  0  0  0  0  0  0  0  0  0
    5.1990   -3.7496    0.0000 C   0  0  0  0  0  0  0  0  0  0  0  0
    6.4978   -2.9992    0.0000 Cl  0  0  0  0  0  0  0  0  0  0  0  0
    1.3000   -3.0000    0.0000 N   0  0  0  0  0  0  0  0  0  0  0  0
    0.0010   -3.7500    0.0000 H   0  0  0  0  0  0  0  0  0  0  0  0
    1.3000   -1.5000    0.0000 C   0  0  0  0  0  0  0  0  0  0  0  0
    0.0000   -0.7500    0.0000 C   0  0  0  0  0  0  0  0  0  0  0  0
   -1.3000   -1.5000    0.0000 C   0  0  0  0  0  0  0  0  0  0  0  0
   -1.3000   -3.0000    0.0000 H   0  0  0  0  0  0  0  0  0  0  0  0
   -2.6000   -0.7500    0.0000 C   0  0  0  0  0  0  0  0  0  0  0  0
   -2.6000    0.7500    0.0000 C   0  0  0  0  0  0  0  0  0  0  0  0
   -3.8989    1.5002    0.0000 H   0  0  0  0  0  0  0  0  0  0  0  0
   -1.3000    1.5000    0.0000 C   0  0  0  0  0  0  0  0  0  0  0  0
   -1.3000    3.0000    0.0000 H   0  0  0  0  0  0  0  0  0  0  0  0
    0.0000    0.7500    0.0000 C   0  0  0  0  0  0  0  0  0  0  0  0
    1.3000    1.5000    0.0000 N   0  0  0  0  0  0  0  0  0  0  0  0
    2.6000    0.7500    0.0000 C   0  0  0  0  0  0  0  0  0  0  0  0
    3.8989    1.5002    0.0000 H   0  0  0  0  0  0  0  0  0  0  0  0
    2.6000   -0.7500    0.0000 N   0  0  0  0  0  0  0  0  0  0  0  0
   -3.8989   -1.5002    0.0000 C   0  0  0  0  0  0  0  0  0  0  0  0
   -4.0531   -2.9944    0.0000 C   0  0  0  0  0  0  0  0  0  0  0  0
   -2.9380   -3.9977    0.0000 H   0  0  0  0  0  0  0  0  0  0  0  0
   -5.5207   -3.3047    0.0000 C   0  0  0  0  0  0  0  0  0  0  0  0
   -6.1343   -4.6735    0.0000 H   0  0  0  0  0  0  0  0  0  0  0  0
   -6.2666   -2.0008    0.0000 C   0  0  0  0  0  0  0  0  0  0  0  0
   -7.7580   -1.8406    0.0000 C   0  0  0  0  0  0  0  0  0  0  0  0
   -9.2143   -2.2001    0.0000 H   0  0  0  0  0  0  0  0  0  0  0  0
   -7.6568   -3.3372    0.0000 H   0  0  0  0  0  0  0  0  0  0  0  0
   -8.3649   -0.4689    0.0000 O   0  0  0  0  0  0  0  0  0  0  0  0
   -9.8564   -0.3087    0.0000 H   0  0  0  0  0  0  0  0  0  0  0  0
   -5.2648   -0.8896    0.0000 O   0  0  0  0  0  0  0  0  0  0  0  0
   11.6963   -7.5055    0.0000 F   0  0  0  0  0  0  0  0  0  0  0  0
  1  2  1  0  0  0  0 
  1  3  2  0  0  0  0 
  3  4  1  0  0  0  0 
  3  5  1  0  0  0  0 
  5  6  2  0  0  0  0 
  6  7  1  0  0  0  0 
  6  8  1  0  0  0  0 
  8  9  2  0  0  0  0 
  1  9  1  0  0  0  0 
  9 10  1  0  0  0  0 
  8 11  1  0  0  0  0 
 11 12  1  0  0  0  0 
 11 13  1  0  0  0  0 
 11 14  1  0  0  0  0 
 14 15  1  0  0  0  0 
 15 16  2  0  0  0  0 
 16 17  1  0  0  0  0 
 16 18  1  0  0  0  0 
 18 19  1  0  0  0  0 
 18 20  2  0  0  0  0 
 20 21  1  0  0  0  0 
 21 22  1  0  0  0  0 
 21 23  2  0  0  0  0 
 15 23  1  0  0  0  0 
 23 24  1  0  0  0  0 
 20 25  1  0  0  0  0 
 25 26  1  0  0  0  0 
 25 27  1  0  0  0  0 
 27 28  2  0  0  0  0 
 28 29  1  0  0  0  0 
 29 30  1  0  0  0  0 
 29 31  2  0  0  0  0 
 31 32  1  0  0  0  0 
 32 33  1  0  0  0  0 
 32 34  2  0  0  0  0 
 34 35  1  0  0  0  0 
 34 36  1  0  0  0  0 
 28 36  1  0  0  0  0 
 36 37  2  0  0  0  0 
 37 38  1  0  0  0  0 
 38 39  1  0  0  0  0 
 38 40  2  0  0  0  0 
 27 40  1  0  0  0  0 
 31 41  1  0  0  0  0 
 41 42  2  0  0  0  0 
 42 43  1  0  0  0  0 
 42 44  1  0  0  0  0 
 44 45  1  0  0  0  0 
 44 46  2  0  0  0  0 
 46 47  1  0  0  0  0 
 47 48  1  0  0  0  0 
 47 49  1  0  0  0  0 
 47 50  1  0  0  0  0 
 50 51  1  0  0  0  0 
 46 52  1  0  0  0  0 
 41 52  1  0  0  0  0 
  5 53  1  0  0  0  0 
M  END
> <Rank>
7

> <Priority_score>
0.552

> <Reaction_type>
N-dealkylation_(R-NHCH2-alkyl)

> <Parent_ID>
50

> <Parent_InChI>
InChI=1S/C29H26ClFN4O4S/c1-40(36,37)12-11-32-16-23-7-10-27(39-23)20-5-8-26-24(14-20)29(34-18-33-26)35-22-6-9-28(25(30)15-22)38-17-19-3-2-4-21(31)13-19/h2-10,13-15,18,32H,11-12,16-17H2,1H3,(H,33,34,35)

> <Parent_SMILES>
CS(=O)(=O)CCNCc1ccc(-c2ccc3ncnc(Nc4ccc(OCc5cccc(F)c5)c(Cl)c4)c3c2)o1

$$$$
Molecule 50_metabolite 15
  CDK     0516241031

 51 55  0  0  0  0  0  0  0  0999 V2000
    9.0972  -10.4939    0.0000 C   0  0  0  0  0  0  0  0  0  0  0  0
    9.0924  -11.9939    0.0000 H   0  0  0  0  0  0  0  0  0  0  0  0
   10.3929   -9.7539    0.0000 C   0  0  0  0  0  0  0  0  0  0  0  0
   11.6894  -10.5083    0.0000 H   0  0  0  0  0  0  0  0  0  0  0  0
   10.3959   -8.2531    0.0000 C   0  0  0  0  0  0  0  0  0  0  0  0
    9.0981   -7.5009    0.0000 C   0  0  0  0  0  0  0  0  0  0  0  0
    9.1004   -6.0009    0.0000 H   0  0  0  0  0  0  0  0  0  0  0  0
    7.7974   -8.2496    0.0000 C   0  0  0  0  0  0  0  0  0  0  0  0
    7.7994   -9.7418    0.0000 C   0  0  0  0  0  0  0  0  0  0  0  0
    6.5002  -10.4916    0.0000 H   0  0  0  0  0  0  0  0  0  0  0  0
    6.4983   -7.4996    0.0000 C   0  0  0  0  0  0  0  0  0  0  0  0
    5.0211   -7.2391    0.0000 H   0  0  0  0  0  0  0  0  0  0  0  0
    5.9853   -8.9091    0.0000 H   0  0  0  0  0  0  0  0  0  0  0  0
    6.4983   -5.9996    0.0000 O   0  0  0  0  0  0  0  0  0  0  0  0
    5.1993   -5.2496    0.0000 C   0  0  0  0  0  0  0  0  0  0  0  0
    3.8994   -5.9998    0.0000 C   0  0  0  0  0  0  0  0  0  0  0  0
    3.8996   -7.4998    0.0000 H   0  0  0  0  0  0  0  0  0  0  0  0
    2.5993   -5.2500    0.0000 C   0  0  0  0  0  0  0  0  0  0  0  0
    1.3005   -6.0004    0.0000 H   0  0  0  0  0  0  0  0  0  0  0  0
    2.5990   -3.7500    0.0000 C   0  0  0  0  0  0  0  0  0  0  0  0
    3.8989   -2.9998    0.0000 C   0  0  0  0  0  0  0  0  0  0  0  0
    3.8987   -1.4998    0.0000 H   0  0  0  0  0  0  0  0  0  0  0  0
    5.1990   -3.7496    0.0000 C   0  0  0  0  0  0  0  0  0  0  0  0
    6.4978   -2.9992    0.0000 Cl  0  0  0  0  0  0  0  0  0  0  0  0
    1.3000   -3.0000    0.0000 N   0  0  0  0  0  0  0  0  0  0  0  0
    0.0010   -3.7500    0.0000 H   0  0  0  0  0  0  0  0  0  0  0  0
    1.3000   -1.5000    0.0000 C   0  0  0  0  0  0  0  0  0  0  0  0
    0.0000   -0.7500    0.0000 C   0  0  0  0  0  0  0  0  0  0  0  0
   -1.3000   -1.5000    0.0000 C   0  0  0  0  0  0  0  0  0  0  0  0
   -1.3000   -3.0000    0.0000 H   0  0  0  0  0  0  0  0  0  0  0  0
   -2.6000   -0.7500    0.0000 C   0  0  0  0  0  0  0  0  0  0  0  0
   -2.6000    0.7500    0.0000 C   0  0  0  0  0  0  0  0  0  0  0  0
   -3.8989    1.5002    0.0000 H   0  0  0  0  0  0  0  0  0  0  0  0
   -1.3000    1.5000    0.0000 C   0  0  0  0  0  0  0  0  0  0  0  0
   -1.3000    3.0000    0.0000 H   0  0  0  0  0  0  0  0  0  0  0  0
    0.0000    0.7500    0.0000 C   0  0  0  0  0  0  0  0  0  0  0  0
    1.3000    1.5000    0.0000 N   0  0  0  0  0  0  0  0  0  0  0  0
    2.6000    0.7500    0.0000 C   0  0  0  0  0  0  0  0  0  0  0  0
    3.8989    1.5002    0.0000 H   0  0  0  0  0  0  0  0  0  0  0  0
    2.6000   -0.7500    0.0000 N   0  0  0  0  0  0  0  0  0  0  0  0
   -3.8989   -1.5002    0.0000 C   0  0  0  0  0  0  0  0  0  0  0  0
   -4.0531   -2.9944    0.0000 C   0  0  0  0  0  0  0  0  0  0  0  0
   -2.9380   -3.9977    0.0000 H   0  0  0  0  0  0  0  0  0  0  0  0
   -5.5207   -3.3047    0.0000 C   0  0  0  0  0  0  0  0  0  0  0  0
   -6.1343   -4.6735    0.0000 H   0  0  0  0  0  0  0  0  0  0  0  0
   -6.2666   -2.0008    0.0000 C   0  0  0  0  0  0  0  0  0  0  0  0
   -7.7580   -1.8406    0.0000 C   0  0  0  0  0  0  0  0  0  0  0  0
   -8.3649   -0.4689    0.0000 H   0  0  0  0  0  0  0  0  0  0  0  0
   -8.6425   -3.0521    0.0000 O   0  0  0  0  0  0  0  0  0  0  0  0
   -5.2648   -0.8896    0.0000 O   0  0  0  0  0  0  0  0  0  0  0  0
   11.6963   -7.5055    0.0000 F   0  0  0  0  0  0  0  0  0  0  0  0
  1  2  1  0  0  0  0 
  1  3  2  0  0  0  0 
  3  4  1  0  0  0  0 
  3  5  1  0  0  0  0 
  5  6  2  0  0  0  0 
  6  7  1  0  0  0  0 
  6  8  1  0  0  0  0 
  8  9  2  0  0  0  0 
  1  9  1  0  0  0  0 
  9 10  1  0  0  0  0 
  8 11  1  0  0  0  0 
 11 12  1  0  0  0  0 
 11 13  1  0  0  0  0 
 11 14  1  0  0  0  0 
 14 15  1  0  0  0  0 
 15 16  2  0  0  0  0 
 16 17  1  0  0  0  0 
 16 18  1  0  0  0  0 
 18 19  1  0  0  0  0 
 18 20  2  0  0  0  0 
 20 21  1  0  0  0  0 
 21 22  1  0  0  0  0 
 21 23  2  0  0  0  0 
 15 23  1  0  0  0  0 
 23 24  1  0  0  0  0 
 20 25  1  0  0  0  0 
 25 26  1  0  0  0  0 
 25 27  1  0  0  0  0 
 27 28  2  0  0  0  0 
 28 29  1  0  0  0  0 
 29 30  1  0  0  0  0 
 29 31  2  0  0  0  0 
 31 32  1  0  0  0  0 
 32 33  1  0  0  0  0 
 32 34  2  0  0  0  0 
 34 35  1  0  0  0  0 
 34 36  1  0  0  0  0 
 28 36  1  0  0  0  0 
 36 37  2  0  0  0  0 
 37 38  1  0  0  0  0 
 38 39  1  0  0  0  0 
 38 40  2  0  0  0  0 
 27 40  1  0  0  0  0 
 31 41  1  0  0  0  0 
 41 42  2  0  0  0  0 
 42 43  1  0  0  0  0 
 42 44  1  0  0  0  0 
 44 45  1  0  0  0  0 
 44 46  2  0  0  0  0 
 46 47  1  0  0  0  0 
 47 48  1  0  0  0  0 
 47 49  2  0  0  0  0 
 46 50  1  0  0  0  0 
 41 50  1  0  0  0  0 
  5 51  1  0  0  0  0 
M  END
> <Rank>
15

> <Priority_score>
0.532

> <Reaction_type>
N-dealkylation

> <Parent_ID>
50

> <Parent_InChI>
InChI=1S/C29H26ClFN4O4S/c1-40(36,37)12-11-32-16-23-7-10-27(39-23)20-5-8-26-24(14-20)29(34-18-33-26)35-22-6-9-28(25(30)15-22)38-17-19-3-2-4-21(31)13-19/h2-10,13-15,18,32H,11-12,16-17H2,1H3,(H,33,34,35)

> <Parent_SMILES>
CS(=O)(=O)CCNCc1ccc(-c2ccc3ncnc(Nc4ccc(OCc5cccc(F)c5)c(Cl)c4)c3c2)o1

$$$$
Molecule 50_metabolite 16
  CDK     0516241031

 67 71  0  0  0  0  0  0  0  0999 V2000
  -12.2866   -7.9501    0.0000 C   0  0  0  0  0  0  0  0  0  0  0  0
  -13.1715   -6.7389    0.0000 H   0  0  0  0  0  0  0  0  0  0  0  0
  -11.8694   -9.3909    0.0000 H   0  0  0  0  0  0  0  0  0  0  0  0
  -13.6331   -8.6112    0.0000 H   0  0  0  0  0  0  0  0  0  0  0  0
  -10.7952   -7.7894    0.0000 S   0  0  0  0  0  0  0  0  0  0  0  0
  -10.8960   -9.2860    0.0000 O   0  0  0  0  0  0  0  0  0  0  0  0
   -9.3388   -8.1485    0.0000 O   0  0  0  0  0  0  0  0  0  0  0  0
  -10.1887   -6.4175    0.0000 C   0  0  0  0  0  0  0  0  0  0  0  0
  -10.0880   -4.9209    0.0000 H   0  0  0  0  0  0  0  0  0  0  0  0
  -11.6451   -6.0584    0.0000 H   0  0  0  0  0  0  0  0  0  0  0  0
   -8.2201   -6.2054    0.0000 C   0  0  0  0  0  0  0  0  0  0  0  0
   -8.3208   -7.7020    0.0000 H   0  0  0  0  0  0  0  0  0  0  0  0
   -6.7637   -6.5645    0.0000 H   0  0  0  0  0  0  0  0  0  0  0  0
   -7.6136   -4.8335    0.0000 N   0  0  0  0  0  0  0  0  0  0  0  0
   -8.4985   -3.6223    0.0000 H   0  0  0  0  0  0  0  0  0  0  0  0
   -5.6450   -4.6214    0.0000 C   0  0  0  0  0  0  0  0  0  0  0  0
   -5.7457   -6.1180    0.0000 H   0  0  0  0  0  0  0  0  0  0  0  0
   -5.0385   -3.2494    0.0000 C   0  0  0  0  0  0  0  0  0  0  0  0
   -5.7952   -1.9518    0.0000 C   0  0  0  0  0  0  0  0  0  0  0  0
   -7.2874   -1.7993    0.0000 H   0  0  0  0  0  0  0  0  0  0  0  0
   -4.7930   -0.8357    0.0000 C   0  0  0  0  0  0  0  0  0  0  0  0
   -5.1048    0.6316    0.0000 H   0  0  0  0  0  0  0  0  0  0  0  0
   -3.4217   -1.4488    0.0000 C   0  0  0  0  0  0  0  0  0  0  0  0
   -2.1228   -0.6986    0.0000 C   0  0  0  0  0  0  0  0  0  0  0  0
   -0.8228   -1.4486    0.0000 C   0  0  0  0  0  0  0  0  0  0  0  0
   -0.8228   -2.9486    0.0000 H   0  0  0  0  0  0  0  0  0  0  0  0
    0.4772   -0.6986    0.0000 C   0  0  0  0  0  0  0  0  0  0  0  0
    1.7772   -1.4486    0.0000 C   0  0  0  0  0  0  0  0  0  0  0  0
    3.0772   -0.6986    0.0000 N   0  0  0  0  0  0  0  0  0  0  0  0
    3.0772    0.8014    0.0000 C   0  0  0  0  0  0  0  0  0  0  0  0
    4.3762    1.5516    0.0000 H   0  0  0  0  0  0  0  0  0  0  0  0
    1.7772    1.5514    0.0000 N   0  0  0  0  0  0  0  0  0  0  0  0
    0.4772    0.8014    0.0000 C   0  0  0  0  0  0  0  0  0  0  0  0
   -0.8228    1.5514    0.0000 C   0  0  0  0  0  0  0  0  0  0  0  0
   -0.8228    3.0514    0.0000 H   0  0  0  0  0  0  0  0  0  0  0  0
   -2.1228    0.8014    0.0000 C   0  0  0  0  0  0  0  0  0  0  0  0
   -3.4217    1.5516    0.0000 H   0  0  0  0  0  0  0  0  0  0  0  0
    1.7772   -2.9486    0.0000 N   0  0  0  0  0  0  0  0  0  0  0  0
    0.4782   -3.6986    0.0000 H   0  0  0  0  0  0  0  0  0  0  0  0
    3.0763   -3.6986    0.0000 C   0  0  0  0  0  0  0  0  0  0  0  0
    4.3762   -2.9484    0.0000 C   0  0  0  0  0  0  0  0  0  0  0  0
    4.3759   -1.4484    0.0000 H   0  0  0  0  0  0  0  0  0  0  0  0
    5.6763   -3.6982    0.0000 C   0  0  0  0  0  0  0  0  0  0  0  0
    6.9751   -2.9477    0.0000 H   0  0  0  0  0  0  0  0  0  0  0  0
    5.6765   -5.1982    0.0000 C   0  0  0  0  0  0  0  0  0  0  0  0
    4.3766   -5.9484    0.0000 C   0  0  0  0  0  0  0  0  0  0  0  0
    3.0765   -5.1986    0.0000 C   0  0  0  0  0  0  0  0  0  0  0  0
    1.7777   -5.9490    0.0000 H   0  0  0  0  0  0  0  0  0  0  0  0
    4.3769   -7.4484    0.0000 Cl  0  0  0  0  0  0  0  0  0  0  0  0
    6.9756   -5.9482    0.0000 O   0  0  0  0  0  0  0  0  0  0  0  0
    8.2746   -5.1982    0.0000 C   0  0  0  0  0  0  0  0  0  0  0  0
    9.2388   -4.0491    0.0000 H   0  0  0  0  0  0  0  0  0  0  0  0
    7.3104   -4.0491    0.0000 H   0  0  0  0  0  0  0  0  0  0  0  0
    9.5736   -5.9482    0.0000 C   0  0  0  0  0  0  0  0  0  0  0  0
    9.5757   -7.4403    0.0000 C   0  0  0  0  0  0  0  0  0  0  0  0
    8.2765   -8.1901    0.0000 H   0  0  0  0  0  0  0  0  0  0  0  0
   10.8734   -8.1925    0.0000 C   0  0  0  0  0  0  0  0  0  0  0  0
   10.8686   -9.6925    0.0000 H   0  0  0  0  0  0  0  0  0  0  0  0
   12.1692   -7.4525    0.0000 C   0  0  0  0  0  0  0  0  0  0  0  0
   13.4657   -8.2069    0.0000 H   0  0  0  0  0  0  0  0  0  0  0  0
   12.1722   -5.9517    0.0000 C   0  0  0  0  0  0  0  0  0  0  0  0
   10.8744   -5.1995    0.0000 C   0  0  0  0  0  0  0  0  0  0  0  0
   10.8767   -3.6995    0.0000 H   0  0  0  0  0  0  0  0  0  0  0  0
   13.4726   -5.2041    0.0000 F   0  0  0  0  0  0  0  0  0  0  0  0
   -3.5753   -2.9370    0.0000 O   0  0  0  0  0  0  0  0  0  0  0  0
   -4.1886   -4.9804    0.0000 O   0  0  0  0  0  0  0  0  0  0  0  0
   -3.7714   -6.4212    0.0000 H   0  0  0  0  0  0  0  0  0  0  0  0
  1  2  1  0  0  0  0 
  1  3  1  0  0  0  0 
  1  4  1  0  0  0  0 
  1  5  1  0  0  0  0 
  5  6  2  0  0  0  0 
  5  7  2  0  0  0  0 
  5  8  1  0  0  0  0 
  8  9  1  0  0  0  0 
  8 10  1  0  0  0  0 
  8 11  1  0  0  0  0 
 11 12  1  0  0  0  0 
 11 13  1  0  0  0  0 
 11 14  1  0  0  0  0 
 14 15  1  0  0  0  0 
 14 16  1  0  0  0  0 
 16 17  1  0  0  0  0 
 16 18  1  0  0  0  0 
 18 19  2  0  0  0  0 
 19 20  1  0  0  0  0 
 19 21  1  0  0  0  0 
 21 22  1  0  0  0  0 
 21 23  2  0  0  0  0 
 23 24  1  0  0  0  0 
 24 25  2  0  0  0  0 
 25 26  1  0  0  0  0 
 25 27  1  0  0  0  0 
 27 28  2  0  0  0  0 
 28 29  1  0  0  0  0 
 29 30  2  0  0  0  0 
 30 31  1  0  0  0  0 
 30 32  1  0  0  0  0 
 32 33  2  0  0  0  0 
 27 33  1  0  0  0  0 
 33 34  1  0  0  0  0 
 34 35  1  0  0  0  0 
 34 36  2  0  0  0  0 
 24 36  1  0  0  0  0 
 36 37  1  0  0  0  0 
 28 38  1  0  0  0  0 
 38 39  1  0  0  0  0 
 38 40  1  0  0  0  0 
 40 41  2  0  0  0  0 
 41 42  1  0  0  0  0 
 41 43  1  0  0  0  0 
 43 44  1  0  0  0  0 
 43 45  2  0  0  0  0 
 45 46  1  0  0  0  0 
 46 47  2  0  0  0  0 
 40 47  1  0  0  0  0 
 47 48  1  0  0  0  0 
 46 49  1  0  0  0  0 
 45 50  1  0  0  0  0 
 50 51  1  0  0  0  0 
 51 52  1  0  0  0  0 
 51 53  1  0  0  0  0 
 51 54  1  0  0  0  0 
 54 55  2  0  0  0  0 
 55 56  1  0  0  0  0 
 55 57  1  0  0  0  0 
 57 58  1  0  0  0  0 
 57 59  2  0  0  0  0 
 59 60  1  0  0  0  0 
 59 61  1  0  0  0  0 
 61 62  2  0  0  0  0 
 54 62  1  0  0  0  0 
 62 63  1  0  0  0  0 
 61 64  1  0  0  0  0 
 23 65  1  0  0  0  0 
 18 65  1  0  0  0  0 
 16 66  1  0  0  0  0 
 66 67  1  0  0  0  0 
M  END
> <Rank>
15

> <Priority_score>
0.532

> <Reaction_type>
aliphatic hydroxylation

> <Parent_ID>
50

> <Parent_InChI>
InChI=1S/C29H26ClFN4O4S/c1-40(36,37)12-11-32-16-23-7-10-27(39-23)20-5-8-26-24(14-20)29(34-18-33-26)35-22-6-9-28(25(30)15-22)38-17-19-3-2-4-21(31)13-19/h2-10,13-15,18,32H,11-12,16-17H2,1H3,(H,33,34,35)

> <Parent_SMILES>
CS(=O)(=O)CCNCc1ccc(-c2ccc3ncnc(Nc4ccc(OCc5cccc(F)c5)c(Cl)c4)c3c2)o1

$$$$
Molecule 50_metabolite 17
  CDK     0516241031

 67 71  0  0  0  0  0  0  0  0999 V2000
  -12.2866   -7.9501    0.0000 C   0  0  0  0  0  0  0  0  0  0  0  0
  -13.1715   -6.7389    0.0000 H   0  0  0  0  0  0  0  0  0  0  0  0
  -11.8694   -9.3909    0.0000 H   0  0  0  0  0  0  0  0  0  0  0  0
  -13.6331   -8.6112    0.0000 H   0  0  0  0  0  0  0  0  0  0  0  0
  -10.7952   -7.7894    0.0000 S   0  0  0  0  0  0  0  0  0  0  0  0
  -10.8960   -9.2860    0.0000 O   0  0  0  0  0  0  0  0  0  0  0  0
   -9.3388   -8.1485    0.0000 O   0  0  0  0  0  0  0  0  0  0  0  0
  -10.1887   -6.4175    0.0000 C   0  0  0  0  0  0  0  0  0  0  0  0
  -10.0880   -4.9209    0.0000 H   0  0  0  0  0  0  0  0  0  0  0  0
  -11.6451   -6.0584    0.0000 H   0  0  0  0  0  0  0  0  0  0  0  0
   -8.2201   -6.2054    0.0000 C   0  0  0  0  0  0  0  0  0  0  0  0
   -8.3208   -7.7020    0.0000 H   0  0  0  0  0  0  0  0  0  0  0  0
   -6.7637   -6.5645    0.0000 H   0  0  0  0  0  0  0  0  0  0  0  0
   -7.6136   -4.8335    0.0000 N   0  0  0  0  0  0  0  0  0  0  0  0
   -8.4985   -3.6223    0.0000 H   0  0  0  0  0  0  0  0  0  0  0  0
   -5.6450   -4.6214    0.0000 C   0  0  0  0  0  0  0  0  0  0  0  0
   -5.7457   -6.1180    0.0000 H   0  0  0  0  0  0  0  0  0  0  0  0
   -4.1886   -4.9804    0.0000 H   0  0  0  0  0  0  0  0  0  0  0  0
   -5.0385   -3.2494    0.0000 C   0  0  0  0  0  0  0  0  0  0  0  0
   -5.7952   -1.9518    0.0000 C   0  0  0  0  0  0  0  0  0  0  0  0
   -7.2874   -1.7993    0.0000 H   0  0  0  0  0  0  0  0  0  0  0  0
   -4.7930   -0.8357    0.0000 C   0  0  0  0  0  0  0  0  0  0  0  0
   -5.1048    0.6316    0.0000 H   0  0  0  0  0  0  0  0  0  0  0  0
   -3.4217   -1.4488    0.0000 C   0  0  0  0  0  0  0  0  0  0  0  0
   -2.1228   -0.6986    0.0000 C   0  0  0  0  0  0  0  0  0  0  0  0
   -0.8228   -1.4486    0.0000 C   0  0  0  0  0  0  0  0  0  0  0  0
    0.4772   -0.6986    0.0000 C   0  0  0  0  0  0  0  0  0  0  0  0
    1.7772   -1.4486    0.0000 C   0  0  0  0  0  0  0  0  0  0  0  0
    3.0772   -0.6986    0.0000 N   0  0  0  0  0  0  0  0  0  0  0  0
    3.0772    0.8014    0.0000 C   0  0  0  0  0  0  0  0  0  0  0  0
    4.3762    1.5516    0.0000 H   0  0  0  0  0  0  0  0  0  0  0  0
    1.7772    1.5514    0.0000 N   0  0  0  0  0  0  0  0  0  0  0  0
    0.4772    0.8014    0.0000 C   0  0  0  0  0  0  0  0  0  0  0  0
   -0.8228    1.5514    0.0000 C   0  0  0  0  0  0  0  0  0  0  0  0
   -0.8228    3.0514    0.0000 H   0  0  0  0  0  0  0  0  0  0  0  0
   -2.1228    0.8014    0.0000 C   0  0  0  0  0  0  0  0  0  0  0  0
   -3.4217    1.5516    0.0000 H   0  0  0  0  0  0  0  0  0  0  0  0
    1.7772   -2.9486    0.0000 N   0  0  0  0  0  0  0  0  0  0  0  0
    0.4782   -3.6986    0.0000 H   0  0  0  0  0  0  0  0  0  0  0  0
    3.0763   -3.6986    0.0000 C   0  0  0  0  0  0  0  0  0  0  0  0
    4.3762   -2.9484    0.0000 C   0  0  0  0  0  0  0  0  0  0  0  0
    4.3759   -1.4484    0.0000 H   0  0  0  0  0  0  0  0  0  0  0  0
    5.6763   -3.6982    0.0000 C   0  0  0  0  0  0  0  0  0  0  0  0
    6.9751   -2.9477    0.0000 H   0  0  0  0  0  0  0  0  0  0  0  0
    5.6765   -5.1982    0.0000 C   0  0  0  0  0  0  0  0  0  0  0  0
    4.3766   -5.9484    0.0000 C   0  0  0  0  0  0  0  0  0  0  0  0
    3.0765   -5.1986    0.0000 C   0  0  0  0  0  0  0  0  0  0  0  0
    1.7777   -5.9490    0.0000 H   0  0  0  0  0  0  0  0  0  0  0  0
    4.3769   -7.4484    0.0000 Cl  0  0  0  0  0  0  0  0  0  0  0  0
    6.9756   -5.9482    0.0000 O   0  0  0  0  0  0  0  0  0  0  0  0
    8.2746   -5.1982    0.0000 C   0  0  0  0  0  0  0  0  0  0  0  0
    9.2388   -4.0491    0.0000 H   0  0  0  0  0  0  0  0  0  0  0  0
    7.3104   -4.0491    0.0000 H   0  0  0  0  0  0  0  0  0  0  0  0
    9.5736   -5.9482    0.0000 C   0  0  0  0  0  0  0  0  0  0  0  0
    9.5757   -7.4403    0.0000 C   0  0  0  0  0  0  0  0  0  0  0  0
    8.2765   -8.1901    0.0000 H   0  0  0  0  0  0  0  0  0  0  0  0
   10.8734   -8.1925    0.0000 C   0  0  0  0  0  0  0  0  0  0  0  0
   10.8686   -9.6925    0.0000 H   0  0  0  0  0  0  0  0  0  0  0  0
   12.1692   -7.4525    0.0000 C   0  0  0  0  0  0  0  0  0  0  0  0
   13.4657   -8.2069    0.0000 H   0  0  0  0  0  0  0  0  0  0  0  0
   12.1722   -5.9517    0.0000 C   0  0  0  0  0  0  0  0  0  0  0  0
   10.8744   -5.1995    0.0000 C   0  0  0  0  0  0  0  0  0  0  0  0
   10.8767   -3.6995    0.0000 H   0  0  0  0  0  0  0  0  0  0  0  0
   13.4726   -5.2041    0.0000 F   0  0  0  0  0  0  0  0  0  0  0  0
   -0.8228   -2.9486    0.0000 O   0  0  0  0  0  0  0  0  0  0  0  0
   -2.1218   -3.6986    0.0000 H   0  0  0  0  0  0  0  0  0  0  0  0
   -3.5753   -2.9370    0.0000 O   0  0  0  0  0  0  0  0  0  0  0  0
  1  2  1  0  0  0  0 
  1  3  1  0  0  0  0 
  1  4  1  0  0  0  0 
  1  5  1  0  0  0  0 
  5  6  2  0  0  0  0 
  5  7  2  0  0  0  0 
  5  8  1  0  0  0  0 
  8  9  1  0  0  0  0 
  8 10  1  0  0  0  0 
  8 11  1  0  0  0  0 
 11 12  1  0  0  0  0 
 11 13  1  0  0  0  0 
 11 14  1  0  0  0  0 
 14 15  1  0  0  0  0 
 14 16  1  0  0  0  0 
 16 17  1  0  0  0  0 
 16 18  1  0  0  0  0 
 16 19  1  0  0  0  0 
 19 20  2  0  0  0  0 
 20 21  1  0  0  0  0 
 20 22  1  0  0  0  0 
 22 23  1  0  0  0  0 
 22 24  2  0  0  0  0 
 24 25  1  0  0  0  0 
 25 26  2  0  0  0  0 
 26 27  1  0  0  0  0 
 27 28  2  0  0  0  0 
 28 29  1  0  0  0  0 
 29 30  2  0  0  0  0 
 30 31  1  0  0  0  0 
 30 32  1  0  0  0  0 
 32 33  2  0  0  0  0 
 27 33  1  0  0  0  0 
 33 34  1  0  0  0  0 
 34 35  1  0  0  0  0 
 34 36  2  0  0  0  0 
 25 36  1  0  0  0  0 
 36 37  1  0  0  0  0 
 28 38  1  0  0  0  0 
 38 39  1  0  0  0  0 
 38 40  1  0  0  0  0 
 40 41  2  0  0  0  0 
 41 42  1  0  0  0  0 
 41 43  1  0  0  0  0 
 43 44  1  0  0  0  0 
 43 45  2  0  0  0  0 
 45 46  1  0  0  0  0 
 46 47  2  0  0  0  0 
 40 47  1  0  0  0  0 
 47 48  1  0  0  0  0 
 46 49  1  0  0  0  0 
 45 50  1  0  0  0  0 
 50 51  1  0  0  0  0 
 51 52  1  0  0  0  0 
 51 53  1  0  0  0  0 
 51 54  1  0  0  0  0 
 54 55  2  0  0  0  0 
 55 56  1  0  0  0  0 
 55 57  1  0  0  0  0 
 57 58  1  0  0  0  0 
 57 59  2  0  0  0  0 
 59 60  1  0  0  0  0 
 59 61  1  0  0  0  0 
 61 62  2  0  0  0  0 
 54 62  1  0  0  0  0 
 62 63  1  0  0  0  0 
 61 64  1  0  0  0  0 
 26 65  1  0  0  0  0 
 65 66  1  0  0  0  0 
 24 67  1  0  0  0  0 
 19 67  1  0  0  0  0 
M  END
> <Rank>
17

> <Priority_score>
0.312

> <Reaction_type>
aromatic_hydroxylation_(ortho_to_2_substituents)

> <Parent_ID>
50

> <Parent_InChI>
InChI=1S/C29H26ClFN4O4S/c1-40(36,37)12-11-32-16-23-7-10-27(39-23)20-5-8-26-24(14-20)29(34-18-33-26)35-22-6-9-28(25(30)15-22)38-17-19-3-2-4-21(31)13-19/h2-10,13-15,18,32H,11-12,16-17H2,1H3,(H,33,34,35)

> <Parent_SMILES>
CS(=O)(=O)CCNCc1ccc(-c2ccc3ncnc(Nc4ccc(OCc5cccc(F)c5)c(Cl)c4)c3c2)o1

$$$$
Molecule 50_metabolite 18
  CDK     0516241031

 67 71  0  0  0  0  0  0  0  0999 V2000
  -14.1264   -5.5584    0.0000 C   0  0  0  0  0  0  0  0  0  0  0  0
  -13.5093   -6.9256    0.0000 H   0  0  0  0  0  0  0  0  0  0  0  0
  -15.3657   -6.4036    0.0000 H   0  0  0  0  0  0  0  0  0  0  0  0
  -15.1740   -4.4848    0.0000 H   0  0  0  0  0  0  0  0  0  0  0  0
  -13.2510   -4.3404    0.0000 S   0  0  0  0  0  0  0  0  0  0  0  0
  -12.8450   -2.8964    0.0000 O   0  0  0  0  0  0  0  0  0  0  0  0
  -14.6026   -3.6898    0.0000 O   0  0  0  0  0  0  0  0  0  0  0  0
  -11.7585   -4.4895    0.0000 C   0  0  0  0  0  0  0  0  0  0  0  0
  -12.1645   -5.9335    0.0000 H   0  0  0  0  0  0  0  0  0  0  0  0
  -10.4069   -5.1401    0.0000 H   0  0  0  0  0  0  0  0  0  0  0  0
  -10.6029   -2.8817    0.0000 C   0  0  0  0  0  0  0  0  0  0  0  0
  -10.1968   -1.4377    0.0000 H   0  0  0  0  0  0  0  0  0  0  0  0
  -11.9544   -2.2311    0.0000 H   0  0  0  0  0  0  0  0  0  0  0  0
   -8.6327   -3.0785    0.0000 N   0  0  0  0  0  0  0  0  0  0  0  0
   -8.0156   -4.4457    0.0000 H   0  0  0  0  0  0  0  0  0  0  0  0
   -7.7573   -1.8605    0.0000 C   0  0  0  0  0  0  0  0  0  0  0  0
   -7.3512   -0.4165    0.0000 H   0  0  0  0  0  0  0  0  0  0  0  0
   -9.1088   -1.2099    0.0000 H   0  0  0  0  0  0  0  0  0  0  0  0
   -6.2647   -2.0096    0.0000 C   0  0  0  0  0  0  0  0  0  0  0  0
   -5.5161   -3.3010    0.0000 C   0  0  0  0  0  0  0  0  0  0  0  0
   -6.1232   -4.6726    0.0000 H   0  0  0  0  0  0  0  0  0  0  0  0
   -4.0497   -2.9852    0.0000 C   0  0  0  0  0  0  0  0  0  0  0  0
   -3.8989   -1.5002    0.0000 C   0  0  0  0  0  0  0  0  0  0  0  0
   -2.6000   -0.7500    0.0000 C   0  0  0  0  0  0  0  0  0  0  0  0
   -1.3000   -1.5000    0.0000 C   0  0  0  0  0  0  0  0  0  0  0  0
   -1.3000   -3.0000    0.0000 H   0  0  0  0  0  0  0  0  0  0  0  0
    0.0000   -0.7500    0.0000 C   0  0  0  0  0  0  0  0  0  0  0  0
    1.3000   -1.5000    0.0000 C   0  0  0  0  0  0  0  0  0  0  0  0
    2.6000   -0.7500    0.0000 N   0  0  0  0  0  0  0  0  0  0  0  0
    2.6000    0.7500    0.0000 C   0  0  0  0  0  0  0  0  0  0  0  0
    3.8989    1.5002    0.0000 H   0  0  0  0  0  0  0  0  0  0  0  0
    1.3000    1.5000    0.0000 N   0  0  0  0  0  0  0  0  0  0  0  0
    0.0000    0.7500    0.0000 C   0  0  0  0  0  0  0  0  0  0  0  0
   -1.3000    1.5000    0.0000 C   0  0  0  0  0  0  0  0  0  0  0  0
   -1.3000    3.0000    0.0000 H   0  0  0  0  0  0  0  0  0  0  0  0
   -2.6000    0.7500    0.0000 C   0  0  0  0  0  0  0  0  0  0  0  0
   -3.8989    1.5002    0.0000 H   0  0  0  0  0  0  0  0  0  0  0  0
    1.3000   -3.0000    0.0000 N   0  0  0  0  0  0  0  0  0  0  0  0
    0.0010   -3.7500    0.0000 H   0  0  0  0  0  0  0  0  0  0  0  0
    2.5990   -3.7500    0.0000 C   0  0  0  0  0  0  0  0  0  0  0  0
    3.8989   -2.9998    0.0000 C   0  0  0  0  0  0  0  0  0  0  0  0
    3.8987   -1.4998    0.0000 H   0  0  0  0  0  0  0  0  0  0  0  0
    5.1990   -3.7496    0.0000 C   0  0  0  0  0  0  0  0  0  0  0  0
    6.4978   -2.9992    0.0000 H   0  0  0  0  0  0  0  0  0  0  0  0
    5.1993   -5.2496    0.0000 C   0  0  0  0  0  0  0  0  0  0  0  0
    3.8994   -5.9998    0.0000 C   0  0  0  0  0  0  0  0  0  0  0  0
    2.5993   -5.2500    0.0000 C   0  0  0  0  0  0  0  0  0  0  0  0
    1.3005   -6.0004    0.0000 H   0  0  0  0  0  0  0  0  0  0  0  0
    3.8996   -7.4998    0.0000 Cl  0  0  0  0  0  0  0  0  0  0  0  0
    6.4983   -5.9996    0.0000 O   0  0  0  0  0  0  0  0  0  0  0  0
    7.7974   -5.2496    0.0000 C   0  0  0  0  0  0  0  0  0  0  0  0
    8.7615   -4.1005    0.0000 H   0  0  0  0  0  0  0  0  0  0  0  0
    6.8332   -4.1005    0.0000 H   0  0  0  0  0  0  0  0  0  0  0  0
    9.0964   -5.9996    0.0000 C   0  0  0  0  0  0  0  0  0  0  0  0
    9.0984   -7.4918    0.0000 C   0  0  0  0  0  0  0  0  0  0  0  0
    7.7993   -8.2416    0.0000 H   0  0  0  0  0  0  0  0  0  0  0  0
   10.3962   -8.2439    0.0000 C   0  0  0  0  0  0  0  0  0  0  0  0
   10.3914   -9.7439    0.0000 H   0  0  0  0  0  0  0  0  0  0  0  0
   11.6920   -7.5039    0.0000 C   0  0  0  0  0  0  0  0  0  0  0  0
   12.9885   -8.2583    0.0000 H   0  0  0  0  0  0  0  0  0  0  0  0
   11.6949   -6.0031    0.0000 C   0  0  0  0  0  0  0  0  0  0  0  0
   10.3972   -5.2509    0.0000 C   0  0  0  0  0  0  0  0  0  0  0  0
   10.3994   -3.7509    0.0000 H   0  0  0  0  0  0  0  0  0  0  0  0
   12.9954   -5.2555    0.0000 F   0  0  0  0  0  0  0  0  0  0  0  0
   -5.2692   -0.8849    0.0000 O   0  0  0  0  0  0  0  0  0  0  0  0
   -2.9319   -3.9855    0.0000 O   0  0  0  0  0  0  0  0  0  0  0  0
   -3.2392   -5.4536    0.0000 H   0  0  0  0  0  0  0  0  0  0  0  0
  1  2  1  0  0  0  0 
  1  3  1  0  0  0  0 
  1  4  1  0  0  0  0 
  1  5  1  0  0  0  0 
  5  6  2  0  0  0  0 
  5  7  2  0  0  0  0 
  5  8  1  0  0  0  0 
  8  9  1  0  0  0  0 
  8 10  1  0  0  0  0 
  8 11  1  0  0  0  0 
 11 12  1  0  0  0  0 
 11 13  1  0  0  0  0 
 11 14  1  0  0  0  0 
 14 15  1  0  0  0  0 
 14 16  1  0  0  0  0 
 16 17  1  0  0  0  0 
 16 18  1  0  0  0  0 
 16 19  1  0  0  0  0 
 19 20  2  0  0  0  0 
 20 21  1  0  0  0  0 
 20 22  1  0  0  0  0 
 22 23  2  0  0  0  0 
 23 24  1  0  0  0  0 
 24 25  2  0  0  0  0 
 25 26  1  0  0  0  0 
 25 27  1  0  0  0  0 
 27 28  2  0  0  0  0 
 28 29  1  0  0  0  0 
 29 30  2  0  0  0  0 
 30 31  1  0  0  0  0 
 30 32  1  0  0  0  0 
 32 33  2  0  0  0  0 
 27 33  1  0  0  0  0 
 33 34  1  0  0  0  0 
 34 35  1  0  0  0  0 
 34 36  2  0  0  0  0 
 24 36  1  0  0  0  0 
 36 37  1  0  0  0  0 
 28 38  1  0  0  0  0 
 38 39  1  0  0  0  0 
 38 40  1  0  0  0  0 
 40 41  2  0  0  0  0 
 41 42  1  0  0  0  0 
 41 43  1  0  0  0  0 
 43 44  1  0  0  0  0 
 43 45  2  0  0  0  0 
 45 46  1  0  0  0  0 
 46 47  2  0  0  0  0 
 40 47  1  0  0  0  0 
 47 48  1  0  0  0  0 
 46 49  1  0  0  0  0 
 45 50  1  0  0  0  0 
 50 51  1  0  0  0  0 
 51 52  1  0  0  0  0 
 51 53  1  0  0  0  0 
 51 54  1  0  0  0  0 
 54 55  2  0  0  0  0 
 55 56  1  0  0  0  0 
 55 57  1  0  0  0  0 
 57 58  1  0  0  0  0 
 57 59  2  0  0  0  0 
 59 60  1  0  0  0  0 
 59 61  1  0  0  0  0 
 61 62  2  0  0  0  0 
 54 62  1  0  0  0  0 
 62 63  1  0  0  0  0 
 61 64  1  0  0  0  0 
 23 65  1  0  0  0  0 
 19 65  1  0  0  0  0 
 22 66  1  0  0  0  0 
 66 67  1  0  0  0  0 
M  END
> <Rank>
18

> <Priority_score>
0.252

> <Reaction_type>
aromatic hydroxylation

> <Parent_ID>
50

> <Parent_InChI>
InChI=1S/C29H26ClFN4O4S/c1-40(36,37)12-11-32-16-23-7-10-27(39-23)20-5-8-26-24(14-20)29(34-18-33-26)35-22-6-9-28(25(30)15-22)38-17-19-3-2-4-21(31)13-19/h2-10,13-15,18,32H,11-12,16-17H2,1H3,(H,33,34,35)

> <Parent_SMILES>
CS(=O)(=O)CCNCc1ccc(-c2ccc3ncnc(Nc4ccc(OCc5cccc(F)c5)c(Cl)c4)c3c2)o1

$$$$
Molecule 50_metabolite 19
  CDK     0516241031

 12 12  0  0  0  0  0  0  0  0999 V2000
    1.3000   -0.7500    0.0000 C   0  0  0  0  0  0  0  0  0  0  0  0
    2.5989   -1.5002    0.0000 H   0  0  0  0  0  0  0  0  0  0  0  0
   -0.0000   -1.5000    0.0000 C   0  0  0  0  0  0  0  0  0  0  0  0
   -0.0000   -3.0000    0.0000 H   0  0  0  0  0  0  0  0  0  0  0  0
   -1.3000   -0.7500    0.0000 C   0  0  0  0  0  0  0  0  0  0  0  0
   -2.5989   -1.5002    0.0000 O   0  0  0  0  0  0  0  0  0  0  0  0
   -1.3000    0.7500    0.0000 C   0  0  0  0  0  0  0  0  0  0  0  0
    0.0000    1.5000    0.0000 C   0  0  0  0  0  0  0  0  0  0  0  0
    0.0000    3.0000    0.0000 H   0  0  0  0  0  0  0  0  0  0  0  0
    1.3000    0.7500    0.0000 C   0  0  0  0  0  0  0  0  0  0  0  0
    2.5989    1.5002    0.0000 O   0  0  0  0  0  0  0  0  0  0  0  0
   -2.5989    1.5002    0.0000 Cl  0  0  0  0  0  0  0  0  0  0  0  0
  1  2  1  0  0  0  0 
  1  3  2  0  0  0  0 
  3  4  1  0  0  0  0 
  3  5  1  0  0  0  0 
  5  6  2  0  0  0  0 
  5  7  1  0  0  0  0 
  7  8  2  0  0  0  0 
  8  9  1  0  0  0  0 
  8 10  1  0  0  0  0 
  1 10  1  0  0  0  0 
 10 11  2  0  0  0  0 
  7 12  1  0  0  0  0 
M  END
> <Rank>
19

> <Priority_score>
0.1464

> <Reaction_type>
oxidation of 4-substituted anisole to quinone

> <Parent_ID>
50

> <Parent_InChI>
InChI=1S/C29H26ClFN4O4S/c1-40(36,37)12-11-32-16-23-7-10-27(39-23)20-5-8-26-24(14-20)29(34-18-33-26)35-22-6-9-28(25(30)15-22)38-17-19-3-2-4-21(31)13-19/h2-10,13-15,18,32H,11-12,16-17H2,1H3,(H,33,34,35)

> <Parent_SMILES>
CS(=O)(=O)CCNCc1ccc(-c2ccc3ncnc(Nc4ccc(OCc5cccc(F)c5)c(Cl)c4)c3c2)o1

$$$$
Molecule 50_metabolite 20
  CDK     0516241031

 42 44  0  0  0  0  0  0  0  0999 V2000
  -12.2866   -7.9501    0.0000 C   0  0  0  0  0  0  0  0  0  0  0  0
  -13.1715   -6.7389    0.0000 H   0  0  0  0  0  0  0  0  0  0  0  0
  -11.8694   -9.3909    0.0000 H   0  0  0  0  0  0  0  0  0  0  0  0
  -13.6331   -8.6112    0.0000 H   0  0  0  0  0  0  0  0  0  0  0  0
  -10.7952   -7.7894    0.0000 S   0  0  0  0  0  0  0  0  0  0  0  0
  -10.8960   -9.2860    0.0000 O   0  0  0  0  0  0  0  0  0  0  0  0
   -9.3388   -8.1485    0.0000 O   0  0  0  0  0  0  0  0  0  0  0  0
  -10.1887   -6.4175    0.0000 C   0  0  0  0  0  0  0  0  0  0  0  0
  -10.0880   -4.9209    0.0000 H   0  0  0  0  0  0  0  0  0  0  0  0
  -11.6451   -6.0584    0.0000 H   0  0  0  0  0  0  0  0  0  0  0  0
   -8.2201   -6.2054    0.0000 C   0  0  0  0  0  0  0  0  0  0  0  0
   -8.3208   -7.7020    0.0000 H   0  0  0  0  0  0  0  0  0  0  0  0
   -6.7637   -6.5645    0.0000 H   0  0  0  0  0  0  0  0  0  0  0  0
   -7.6136   -4.8335    0.0000 N   0  0  0  0  0  0  0  0  0  0  0  0
   -8.4985   -3.6223    0.0000 H   0  0  0  0  0  0  0  0  0  0  0  0
   -5.6450   -4.6214    0.0000 C   0  0  0  0  0  0  0  0  0  0  0  0
   -5.7457   -6.1180    0.0000 H   0  0  0  0  0  0  0  0  0  0  0  0
   -4.1886   -4.9804    0.0000 H   0  0  0  0  0  0  0  0  0  0  0  0
   -5.0385   -3.2494    0.0000 C   0  0  0  0  0  0  0  0  0  0  0  0
   -5.7952   -1.9518    0.0000 C   0  0  0  0  0  0  0  0  0  0  0  0
   -7.2874   -1.7993    0.0000 H   0  0  0  0  0  0  0  0  0  0  0  0
   -4.7930   -0.8357    0.0000 C   0  0  0  0  0  0  0  0  0  0  0  0
   -5.1048    0.6316    0.0000 H   0  0  0  0  0  0  0  0  0  0  0  0
   -3.4217   -1.4488    0.0000 C   0  0  0  0  0  0  0  0  0  0  0  0
   -2.1228   -0.6986    0.0000 C   0  0  0  0  0  0  0  0  0  0  0  0
   -0.8228   -1.4486    0.0000 C   0  0  0  0  0  0  0  0  0  0  0  0
   -0.8228   -2.9486    0.0000 H   0  0  0  0  0  0  0  0  0  0  0  0
    0.4772   -0.6986    0.0000 C   0  0  0  0  0  0  0  0  0  0  0  0
    1.7772   -1.4486    0.0000 C   0  0  0  0  0  0  0  0  0  0  0  0
    1.7772   -2.9486    0.0000 N   0  0  0  0  0  0  0  0  0  0  0  0
    3.0763   -3.6986    0.0000 H   0  0  0  0  0  0  0  0  0  0  0  0
    0.4782   -3.6986    0.0000 H   0  0  0  0  0  0  0  0  0  0  0  0
    3.0772   -0.6986    0.0000 N   0  0  0  0  0  0  0  0  0  0  0  0
    3.0772    0.8014    0.0000 C   0  0  0  0  0  0  0  0  0  0  0  0
    4.3762    1.5516    0.0000 H   0  0  0  0  0  0  0  0  0  0  0  0
    1.7772    1.5514    0.0000 N   0  0  0  0  0  0  0  0  0  0  0  0
    0.4772    0.8014    0.0000 C   0  0  0  0  0  0  0  0  0  0  0  0
   -0.8228    1.5514    0.0000 C   0  0  0  0  0  0  0  0  0  0  0  0
   -0.8228    3.0514    0.0000 H   0  0  0  0  0  0  0  0  0  0  0  0
   -2.1228    0.8014    0.0000 C   0  0  0  0  0  0  0  0  0  0  0  0
   -3.4217    1.5516    0.0000 H   0  0  0  0  0  0  0  0  0  0  0  0
   -3.5753   -2.9370    0.0000 O   0  0  0  0  0  0  0  0  0  0  0  0
  1  2  1  0  0  0  0 
  1  3  1  0  0  0  0 
  1  4  1  0  0  0  0 
  1  5  1  0  0  0  0 
  5  6  2  0  0  0  0 
  5  7  2  0  0  0  0 
  5  8  1  0  0  0  0 
  8  9  1  0  0  0  0 
  8 10  1  0  0  0  0 
  8 11  1  0  0  0  0 
 11 12  1  0  0  0  0 
 11 13  1  0  0  0  0 
 11 14  1  0  0  0  0 
 14 15  1  0  0  0  0 
 14 16  1  0  0  0  0 
 16 17  1  0  0  0  0 
 16 18  1  0  0  0  0 
 16 19  1  0  0  0  0 
 19 20  2  0  0  0  0 
 20 21  1  0  0  0  0 
 20 22  1  0  0  0  0 
 22 23  1  0  0  0  0 
 22 24  2  0  0  0  0 
 24 25  1  0  0  0  0 
 25 26  2  0  0  0  0 
 26 27  1  0  0  0  0 
 26 28  1  0  0  0  0 
 28 29  2  0  0  0  0 
 29 30  1  0  0  0  0 
 30 31  1  0  0  0  0 
 30 32  1  0  0  0  0 
 29 33  1  0  0  0  0 
 33 34  2  0  0  0  0 
 34 35  1  0  0  0  0 
 34 36  1  0  0  0  0 
 36 37  2  0  0  0  0 
 28 37  1  0  0  0  0 
 37 38  1  0  0  0  0 
 38 39  1  0  0  0  0 
 38 40  2  0  0  0  0 
 25 40  1  0  0  0  0 
 40 41  1  0  0  0  0 
 24 42  1  0  0  0  0 
 19 42  1  0  0  0  0 
M  END
> <Rank>
19

> <Priority_score>
0.1464

> <Reaction_type>
oxidation of 4-substituted anisole to quinone

> <Parent_ID>
50

> <Parent_InChI>
InChI=1S/C29H26ClFN4O4S/c1-40(36,37)12-11-32-16-23-7-10-27(39-23)20-5-8-26-24(14-20)29(34-18-33-26)35-22-6-9-28(25(30)15-22)38-17-19-3-2-4-21(31)13-19/h2-10,13-15,18,32H,11-12,16-17H2,1H3,(H,33,34,35)

> <Parent_SMILES>
CS(=O)(=O)CCNCc1ccc(-c2ccc3ncnc(Nc4ccc(OCc5cccc(F)c5)c(Cl)c4)c3c2)o1

$$$$
Molecule 50_metabolite 21
  CDK     0516241031

 15 15  0  0  0  0  0  0  0  0999 V2000
   -0.3187   -1.7796    0.0000 C   0  0  0  0  0  0  0  0  0  0  0  0
    0.9815   -2.5274    0.0000 H   0  0  0  0  0  0  0  0  0  0  0  0
   -1.7964   -1.5216    0.0000 H   0  0  0  0  0  0  0  0  0  0  0  0
   -0.8294   -3.1900    0.0000 H   0  0  0  0  0  0  0  0  0  0  0  0
   -0.3213   -0.2796    0.0000 C   0  0  0  0  0  0  0  0  0  0  0  0
    0.9687    0.4704    0.0000 C   0  0  0  0  0  0  0  0  0  0  0  0
    2.2689   -0.2776    0.0000 H   0  0  0  0  0  0  0  0  0  0  0  0
    0.9687    1.9704    0.0000 C   0  0  0  0  0  0  0  0  0  0  0  0
    2.2689    2.7184    0.0000 H   0  0  0  0  0  0  0  0  0  0  0  0
   -0.3213    2.7204    0.0000 C   0  0  0  0  0  0  0  0  0  0  0  0
   -0.3187    4.2204    0.0000 H   0  0  0  0  0  0  0  0  0  0  0  0
   -1.6213    1.9704    0.0000 C   0  0  0  0  0  0  0  0  0  0  0  0
   -1.6213    0.4704    0.0000 C   0  0  0  0  0  0  0  0  0  0  0  0
   -2.9202   -0.2798    0.0000 H   0  0  0  0  0  0  0  0  0  0  0  0
   -2.9202    2.7206    0.0000 F   0  0  0  0  0  0  0  0  0  0  0  0
  1  2  1  0  0  0  0 
  1  3  1  0  0  0  0 
  1  4  1  0  0  0  0 
  1  5  1  0  0  0  0 
  5  6  2  0  0  0  0 
  6  7  1  0  0  0  0 
  6  8  1  0  0  0  0 
  8  9  1  0  0  0  0 
  8 10  2  0  0  0  0 
 10 11  1  0  0  0  0 
 10 12  1  0  0  0  0 
 12 13  2  0  0  0  0 
  5 13  1  0  0  0  0 
 13 14  1  0  0  0  0 
 12 15  1  0  0  0  0 
M  END
> <Rank>
19

> <Priority_score>
0.1464

> <Reaction_type>
oxidation of 4-substituted anisole to quinone

> <Parent_ID>
50

> <Parent_InChI>
InChI=1S/C29H26ClFN4O4S/c1-40(36,37)12-11-32-16-23-7-10-27(39-23)20-5-8-26-24(14-20)29(34-18-33-26)35-22-6-9-28(25(30)15-22)38-17-19-3-2-4-21(31)13-19/h2-10,13-15,18,32H,11-12,16-17H2,1H3,(H,33,34,35)

> <Parent_SMILES>
CS(=O)(=O)CCNCc1ccc(-c2ccc3ncnc(Nc4ccc(OCc5cccc(F)c5)c(Cl)c4)c3c2)o1

$$$$
Molecule 50_metabolite 22
  CDK     0516241031

 41 43  0  0  0  0  0  0  0  0999 V2000
  -12.4807   -8.3891    0.0000 C   0  0  0  0  0  0  0  0  0  0  0  0
  -13.3655   -7.1779    0.0000 H   0  0  0  0  0  0  0  0  0  0  0  0
  -12.0635   -9.8299    0.0000 H   0  0  0  0  0  0  0  0  0  0  0  0
  -13.8272   -9.0502    0.0000 H   0  0  0  0  0  0  0  0  0  0  0  0
  -10.9893   -8.2284    0.0000 S   0  0  0  0  0  0  0  0  0  0  0  0
  -11.0900   -9.7250    0.0000 O   0  0  0  0  0  0  0  0  0  0  0  0
   -9.5329   -8.5875    0.0000 O   0  0  0  0  0  0  0  0  0  0  0  0
  -10.3828   -6.8565    0.0000 C   0  0  0  0  0  0  0  0  0  0  0  0
  -10.2821   -5.3599    0.0000 H   0  0  0  0  0  0  0  0  0  0  0  0
  -11.8392   -6.4974    0.0000 H   0  0  0  0  0  0  0  0  0  0  0  0
   -8.4142   -6.6444    0.0000 C   0  0  0  0  0  0  0  0  0  0  0  0
   -8.5149   -8.1410    0.0000 H   0  0  0  0  0  0  0  0  0  0  0  0
   -6.9578   -7.0035    0.0000 H   0  0  0  0  0  0  0  0  0  0  0  0
   -7.6136   -4.8335    0.0000 N   0  0  0  0  0  0  0  0  0  0  0  0
   -8.4985   -3.6223    0.0000 H   0  0  0  0  0  0  0  0  0  0  0  0
   -6.1222   -4.6728    0.0000 C   0  0  0  0  0  0  0  0  0  0  0  0
   -6.2229   -6.1694    0.0000 H   0  0  0  0  0  0  0  0  0  0  0  0
   -4.6658   -5.0318    0.0000 H   0  0  0  0  0  0  0  0  0  0  0  0
   -5.5157   -3.3009    0.0000 C   0  0  0  0  0  0  0  0  0  0  0  0
   -6.2724   -2.0032    0.0000 C   0  0  0  0  0  0  0  0  0  0  0  0
   -7.7646   -1.8507    0.0000 H   0  0  0  0  0  0  0  0  0  0  0  0
   -5.2703   -0.8871    0.0000 C   0  0  0  0  0  0  0  0  0  0  0  0
   -5.5820    0.5801    0.0000 H   0  0  0  0  0  0  0  0  0  0  0  0
   -3.8989   -1.5002    0.0000 C   0  0  0  0  0  0  0  0  0  0  0  0
   -2.6000   -0.7500    0.0000 C   0  0  0  0  0  0  0  0  0  0  0  0
   -1.3000   -1.5000    0.0000 C   0  0  0  0  0  0  0  0  0  0  0  0
   -1.3000   -3.0000    0.0000 H   0  0  0  0  0  0  0  0  0  0  0  0
    0.0000   -0.7500    0.0000 C   0  0  0  0  0  0  0  0  0  0  0  0
    0.0000    0.7500    0.0000 C   0  0  0  0  0  0  0  0  0  0  0  0
   -1.3000    1.5000    0.0000 C   0  0  0  0  0  0  0  0  0  0  0  0
   -1.3000    3.0000    0.0000 H   0  0  0  0  0  0  0  0  0  0  0  0
   -2.6000    0.7500    0.0000 C   0  0  0  0  0  0  0  0  0  0  0  0
   -3.8989    1.5002    0.0000 H   0  0  0  0  0  0  0  0  0  0  0  0
    1.3000    1.5000    0.0000 N   0  0  0  0  0  0  0  0  0  0  0  0
    2.6000    0.7500    0.0000 C   0  0  0  0  0  0  0  0  0  0  0  0
    3.8989    1.5002    0.0000 H   0  0  0  0  0  0  0  0  0  0  0  0
    2.6000   -0.7500    0.0000 N   0  0  0  0  0  0  0  0  0  0  0  0
    3.8989   -1.5002    0.0000 H   0  0  0  0  0  0  0  0  0  0  0  0
    1.3000   -1.5000    0.0000 C   0  0  0  0  0  0  0  0  0  0  0  0
    1.3000   -3.0000    0.0000 O   0  0  0  0  0  0  0  0  0  0  0  0
   -4.0525   -2.9885    0.0000 O   0  0  0  0  0  0  0  0  0  0  0  0
  1  2  1  0  0  0  0 
  1  3  1  0  0  0  0 
  1  4  1  0  0  0  0 
  1  5  1  0  0  0  0 
  5  6  2  0  0  0  0 
  5  7  2  0  0  0  0 
  5  8  1  0  0  0  0 
  8  9  1  0  0  0  0 
  8 10  1  0  0  0  0 
  8 11  1  0  0  0  0 
 11 12  1  0  0  0  0 
 11 13  1  0  0  0  0 
 11 14  1  0  0  0  0 
 14 15  1  0  0  0  0 
 14 16  1  0  0  0  0 
 16 17  1  0  0  0  0 
 16 18  1  0  0  0  0 
 16 19  1  0  0  0  0 
 19 20  2  0  0  0  0 
 20 21  1  0  0  0  0 
 20 22  1  0  0  0  0 
 22 23  1  0  0  0  0 
 22 24  2  0  0  0  0 
 24 25  1  0  0  0  0 
 25 26  2  0  0  0  0 
 26 27  1  0  0  0  0 
 26 28  1  0  0  0  0 
 28 29  2  0  0  0  0 
 29 30  1  0  0  0  0 
 30 31  1  0  0  0  0 
 30 32  2  0  0  0  0 
 25 32  1  0  0  0  0 
 32 33  1  0  0  0  0 
 29 34  1  0  0  0  0 
 34 35  2  0  0  0  0 
 35 36  1  0  0  0  0 
 35 37  1  0  0  0  0 
 37 38  1  0  0  0  0 
 37 39  1  0  0  0  0 
 28 39  1  0  0  0  0 
 39 40  2  0  0  0  0 
 24 41  1  0  0  0  0 
 19 41  1  0  0  0  0 
M  END
> <Rank>
22

> <Priority_score>
0.124

> <Reaction_type>
oxidative_deamination_(aromatic)

> <Parent_ID>
50

> <Parent_InChI>
InChI=1S/C29H26ClFN4O4S/c1-40(36,37)12-11-32-16-23-7-10-27(39-23)20-5-8-26-24(14-20)29(34-18-33-26)35-22-6-9-28(25(30)15-22)38-17-19-3-2-4-21(31)13-19/h2-10,13-15,18,32H,11-12,16-17H2,1H3,(H,33,34,35)

> <Parent_SMILES>
CS(=O)(=O)CCNCc1ccc(-c2ccc3ncnc(Nc4ccc(OCc5cccc(F)c5)c(Cl)c4)c3c2)o1

$$$$
Molecule 50_metabolite 23
  CDK     0516241031

 28 29  0  0  0  0  0  0  0  0999 V2000
    0.7154   -0.6542    0.0000 C   0  0  0  0  0  0  0  0  0  0  0  0
   -0.0365   -1.9521    0.0000 H   0  0  0  0  0  0  0  0  0  0  0  0
    2.2076   -0.6588    0.0000 C   0  0  0  0  0  0  0  0  0  0  0  0
    2.9554   -1.9591    0.0000 H   0  0  0  0  0  0  0  0  0  0  0  0
    2.9584    0.6408    0.0000 C   0  0  0  0  0  0  0  0  0  0  0  0
    2.2084    1.9398    0.0000 C   0  0  0  0  0  0  0  0  0  0  0  0
    2.9582    3.2390    0.0000 H   0  0  0  0  0  0  0  0  0  0  0  0
    0.7076    1.9393    0.0000 C   0  0  0  0  0  0  0  0  0  0  0  0
   -0.0346    0.6448    0.0000 C   0  0  0  0  0  0  0  0  0  0  0  0
   -1.5346    0.6425    0.0000 H   0  0  0  0  0  0  0  0  0  0  0  0
   -0.0446    3.2371    0.0000 C   0  0  0  0  0  0  0  0  0  0  0  0
    1.3641    3.7525    0.0000 H   0  0  0  0  0  0  0  0  0  0  0  0
   -0.3075    4.7139    0.0000 H   0  0  0  0  0  0  0  0  0  0  0  0
   -1.5446    3.2346    0.0000 O   0  0  0  0  0  0  0  0  0  0  0  0
   -2.2968    4.5324    0.0000 C   0  0  0  0  0  0  0  0  0  0  0  0
   -3.7976    4.5301    0.0000 C   0  0  0  0  0  0  0  0  0  0  0  0
   -4.5452    3.2297    0.0000 H   0  0  0  0  0  0  0  0  0  0  0  0
   -4.5508    5.8282    0.0000 C   0  0  0  0  0  0  0  0  0  0  0  0
   -6.0508    5.8252    0.0000 H   0  0  0  0  0  0  0  0  0  0  0  0
   -3.8032    7.1286    0.0000 C   0  0  0  0  0  0  0  0  0  0  0  0
   -2.3024    7.1309    0.0000 C   0  0  0  0  0  0  0  0  0  0  0  0
   -1.5547    8.4313    0.0000 H   0  0  0  0  0  0  0  0  0  0  0  0
   -1.5491    5.8328    0.0000 C   0  0  0  0  0  0  0  0  0  0  0  0
   -0.0491    5.8358    0.0000 Cl  0  0  0  0  0  0  0  0  0  0  0  0
   -4.5554    8.4264    0.0000 N   0  0  0  0  0  0  0  0  0  0  0  0
   -6.0554    8.4239    0.0000 H   0  0  0  0  0  0  0  0  0  0  0  0
   -3.8075    9.7267    0.0000 H   0  0  0  0  0  0  0  0  0  0  0  0
    4.4584    0.6405    0.0000 F   0  0  0  0  0  0  0  0  0  0  0  0
  1  2  1  0  0  0  0 
  1  3  2  0  0  0  0 
  3  4  1  0  0  0  0 
  3  5  1  0  0  0  0 
  5  6  2  0  0  0  0 
  6  7  1  0  0  0  0 
  6  8  1  0  0  0  0 
  8  9  2  0  0  0  0 
  1  9  1  0  0  0  0 
  9 10  1  0  0  0  0 
  8 11  1  0  0  0  0 
 11 12  1  0  0  0  0 
 11 13  1  0  0  0  0 
 11 14  1  0  0  0  0 
 14 15  1  0  0  0  0 
 15 16  2  0  0  0  0 
 16 17  1  0  0  0  0 
 16 18  1  0  0  0  0 
 18 19  1  0  0  0  0 
 18 20  2  0  0  0  0 
 20 21  1  0  0  0  0 
 21 22  1  0  0  0  0 
 21 23  2  0  0  0  0 
 15 23  1  0  0  0  0 
 23 24  1  0  0  0  0 
 20 25  1  0  0  0  0 
 25 26  1  0  0  0  0 
 25 27  1  0  0  0  0 
  5 28  1  0  0  0  0 
M  END
> <Rank>
22

> <Priority_score>
0.124

> <Reaction_type>
oxidative_deamination_(aromatic)

> <Parent_ID>
50

> <Parent_InChI>
InChI=1S/C29H26ClFN4O4S/c1-40(36,37)12-11-32-16-23-7-10-27(39-23)20-5-8-26-24(14-20)29(34-18-33-26)35-22-6-9-28(25(30)15-22)38-17-19-3-2-4-21(31)13-19/h2-10,13-15,18,32H,11-12,16-17H2,1H3,(H,33,34,35)

> <Parent_SMILES>
CS(=O)(=O)CCNCc1ccc(-c2ccc3ncnc(Nc4ccc(OCc5cccc(F)c5)c(Cl)c4)c3c2)o1

$$$$
Molecule 50_metabolite 24
  CDK     0516241031

 67 71  0  0  0  0  0  0  0  0999 V2000
  -12.2866   -7.9501    0.0000 C   0  0  0  0  0  0  0  0  0  0  0  0
  -13.1715   -6.7389    0.0000 H   0  0  0  0  0  0  0  0  0  0  0  0
  -11.8694   -9.3909    0.0000 H   0  0  0  0  0  0  0  0  0  0  0  0
  -13.6331   -8.6112    0.0000 H   0  0  0  0  0  0  0  0  0  0  0  0
  -10.7952   -7.7894    0.0000 S   0  0  0  0  0  0  0  0  0  0  0  0
  -10.8960   -9.2860    0.0000 O   0  0  0  0  0  0  0  0  0  0  0  0
   -9.3388   -8.1485    0.0000 O   0  0  0  0  0  0  0  0  0  0  0  0
  -10.1887   -6.4175    0.0000 C   0  0  0  0  0  0  0  0  0  0  0  0
  -10.0880   -4.9209    0.0000 H   0  0  0  0  0  0  0  0  0  0  0  0
  -11.6451   -6.0584    0.0000 H   0  0  0  0  0  0  0  0  0  0  0  0
   -8.2201   -6.2054    0.0000 C   0  0  0  0  0  0  0  0  0  0  0  0
   -8.3208   -7.7020    0.0000 H   0  0  0  0  0  0  0  0  0  0  0  0
   -6.7637   -6.5645    0.0000 H   0  0  0  0  0  0  0  0  0  0  0  0
   -7.6136   -4.8335    0.0000 N   0  0  0  0  0  0  0  0  0  0  0  0
   -8.4985   -3.6223    0.0000 H   0  0  0  0  0  0  0  0  0  0  0  0
   -5.6450   -4.6214    0.0000 C   0  0  0  0  0  0  0  0  0  0  0  0
   -5.7457   -6.1180    0.0000 H   0  0  0  0  0  0  0  0  0  0  0  0
   -4.1886   -4.9804    0.0000 H   0  0  0  0  0  0  0  0  0  0  0  0
   -5.0385   -3.2494    0.0000 C   0  0  0  0  0  0  0  0  0  0  0  0
   -5.7952   -1.9518    0.0000 C   0  0  0  0  0  0  0  0  0  0  0  0
   -7.2874   -1.7993    0.0000 H   0  0  0  0  0  0  0  0  0  0  0  0
   -4.7930   -0.8357    0.0000 C   0  0  0  0  0  0  0  0  0  0  0  0
   -5.1048    0.6316    0.0000 H   0  0  0  0  0  0  0  0  0  0  0  0
   -3.4217   -1.4488    0.0000 C   0  0  0  0  0  0  0  0  0  0  0  0
   -2.1228   -0.6986    0.0000 C   0  0  0  0  0  0  0  0  0  0  0  0
   -0.8228   -1.4486    0.0000 C   0  0  0  0  0  0  0  0  0  0  0  0
   -0.8228   -2.9486    0.0000 H   0  0  0  0  0  0  0  0  0  0  0  0
    0.4772   -0.6986    0.0000 C   0  0  0  0  0  0  0  0  0  0  0  0
    1.7772   -1.4486    0.0000 C   0  0  0  0  0  0  0  0  0  0  0  0
    3.0772   -0.6986    0.0000 N   0  0  0  0  0  0  0  0  0  0  0  0
    3.0772    0.8014    0.0000 C   0  0  0  0  0  0  0  0  0  0  0  0
    4.3762    1.5516    0.0000 H   0  0  0  0  0  0  0  0  0  0  0  0
    1.7772    1.5514    0.0000 N   0  0  0  0  0  0  0  0  0  0  0  0
    0.4772    0.8014    0.0000 C   0  0  0  0  0  0  0  0  0  0  0  0
   -0.8228    1.5514    0.0000 C   0  0  0  0  0  0  0  0  0  0  0  0
   -0.8228    3.0514    0.0000 H   0  0  0  0  0  0  0  0  0  0  0  0
   -2.1228    0.8014    0.0000 C   0  0  0  0  0  0  0  0  0  0  0  0
   -3.4217    1.5516    0.0000 H   0  0  0  0  0  0  0  0  0  0  0  0
    1.7772    3.0514    0.0000 O   0  0  0  0  0  0  0  0  0  0  0  0
    1.7772   -2.9486    0.0000 N   0  0  0  0  0  0  0  0  0  0  0  0
    0.4782   -3.6986    0.0000 H   0  0  0  0  0  0  0  0  0  0  0  0
    3.0763   -3.6986    0.0000 C   0  0  0  0  0  0  0  0  0  0  0  0
    4.3762   -2.9484    0.0000 C   0  0  0  0  0  0  0  0  0  0  0  0
    4.3759   -1.4484    0.0000 H   0  0  0  0  0  0  0  0  0  0  0  0
    5.6763   -3.6982    0.0000 C   0  0  0  0  0  0  0  0  0  0  0  0
    6.9751   -2.9477    0.0000 H   0  0  0  0  0  0  0  0  0  0  0  0
    5.6765   -5.1982    0.0000 C   0  0  0  0  0  0  0  0  0  0  0  0
    4.3766   -5.9484    0.0000 C   0  0  0  0  0  0  0  0  0  0  0  0
    3.0765   -5.1986    0.0000 C   0  0  0  0  0  0  0  0  0  0  0  0
    1.7777   -5.9490    0.0000 H   0  0  0  0  0  0  0  0  0  0  0  0
    4.3769   -7.4484    0.0000 Cl  0  0  0  0  0  0  0  0  0  0  0  0
    6.9756   -5.9482    0.0000 O   0  0  0  0  0  0  0  0  0  0  0  0
    8.2746   -5.1982    0.0000 C   0  0  0  0  0  0  0  0  0  0  0  0
    9.2388   -4.0491    0.0000 H   0  0  0  0  0  0  0  0  0  0  0  0
    7.3104   -4.0491    0.0000 H   0  0  0  0  0  0  0  0  0  0  0  0
    9.5736   -5.9482    0.0000 C   0  0  0  0  0  0  0  0  0  0  0  0
    9.5757   -7.4403    0.0000 C   0  0  0  0  0  0  0  0  0  0  0  0
    8.2765   -8.1901    0.0000 H   0  0  0  0  0  0  0  0  0  0  0  0
   10.8734   -8.1925    0.0000 C   0  0  0  0  0  0  0  0  0  0  0  0
   10.8686   -9.6925    0.0000 H   0  0  0  0  0  0  0  0  0  0  0  0
   12.1692   -7.4525    0.0000 C   0  0  0  0  0  0  0  0  0  0  0  0
   13.4657   -8.2069    0.0000 H   0  0  0  0  0  0  0  0  0  0  0  0
   12.1722   -5.9517    0.0000 C   0  0  0  0  0  0  0  0  0  0  0  0
   10.8744   -5.1995    0.0000 C   0  0  0  0  0  0  0  0  0  0  0  0
   10.8767   -3.6995    0.0000 H   0  0  0  0  0  0  0  0  0  0  0  0
   13.4726   -5.2041    0.0000 F   0  0  0  0  0  0  0  0  0  0  0  0
   -3.5753   -2.9370    0.0000 O   0  0  0  0  0  0  0  0  0  0  0  0
  1  2  1  0  0  0  0 
  1  3  1  0  0  0  0 
  1  4  1  0  0  0  0 
  1  5  1  0  0  0  0 
  5  6  2  0  0  0  0 
  5  7  2  0  0  0  0 
  5  8  1  0  0  0  0 
  8  9  1  0  0  0  0 
  8 10  1  0  0  0  0 
  8 11  1  0  0  0  0 
 11 12  1  0  0  0  0 
 11 13  1  0  0  0  0 
 11 14  1  0  0  0  0 
 14 15  1  0  0  0  0 
 14 16  1  0  0  0  0 
 16 17  1  0  0  0  0 
 16 18  1  0  0  0  0 
 16 19  1  0  0  0  0 
 19 20  2  0  0  0  0 
 20 21  1  0  0  0  0 
 20 22  1  0  0  0  0 
 22 23  1  0  0  0  0 
 22 24  2  0  0  0  0 
 24 25  1  0  0  0  0 
 25 26  2  0  0  0  0 
 26 27  1  0  0  0  0 
 26 28  1  0  0  0  0 
 28 29  2  0  0  0  0 
 29 30  1  0  0  0  0 
 30 31  2  0  0  0  0 
 31 32  1  0  0  0  0 
 31 33  1  0  0  0  0 
 33 34  2  0  0  0  0 
 28 34  1  0  0  0  0 
 34 35  1  0  0  0  0 
 35 36  1  0  0  0  0 
 35 37  2  0  0  0  0 
 25 37  1  0  0  0  0 
 37 38  1  0  0  0  0 
 33 39  1  0  0  0  0 
 29 40  1  0  0  0  0 
 40 41  1  0  0  0  0 
 40 42  1  0  0  0  0 
 42 43  2  0  0  0  0 
 43 44  1  0  0  0  0 
 43 45  1  0  0  0  0 
 45 46  1  0  0  0  0 
 45 47  2  0  0  0  0 
 47 48  1  0  0  0  0 
 48 49  2  0  0  0  0 
 42 49  1  0  0  0  0 
 49 50  1  0  0  0  0 
 48 51  1  0  0  0  0 
 47 52  1  0  0  0  0 
 52 53  1  0  0  0  0 
 53 54  1  0  0  0  0 
 53 55  1  0  0  0  0 
 53 56  1  0  0  0  0 
 56 57  2  0  0  0  0 
 57 58  1  0  0  0  0 
 57 59  1  0  0  0  0 
 59 60  1  0  0  0  0 
 59 61  2  0  0  0  0 
 61 62  1  0  0  0  0 
 61 63  1  0  0  0  0 
 63 64  2  0  0  0  0 
 56 64  1  0  0  0  0 
 64 65  1  0  0  0  0 
 63 66  1  0  0  0  0 
 24 67  1  0  0  0  0 
 19 67  1  0  0  0  0 
M  CHG  1  33   1
M  CHG  1  39  -1
M  END
> <Rank>
22

> <Priority_score>
0.124

> <Reaction_type>
N-oxidation_(-N=)

> <Parent_ID>
50

> <Parent_InChI>
InChI=1S/C29H26ClFN4O4S/c1-40(36,37)12-11-32-16-23-7-10-27(39-23)20-5-8-26-24(14-20)29(34-18-33-26)35-22-6-9-28(25(30)15-22)38-17-19-3-2-4-21(31)13-19/h2-10,13-15,18,32H,11-12,16-17H2,1H3,(H,33,34,35)

> <Parent_SMILES>
CS(=O)(=O)CCNCc1ccc(-c2ccc3ncnc(Nc4ccc(OCc5cccc(F)c5)c(Cl)c4)c3c2)o1

$$$$
Molecule 50_metabolite 25
  CDK     0516241031

 67 71  0  0  0  0  0  0  0  0999 V2000
  -12.2866   -7.9501    0.0000 C   0  0  0  0  0  0  0  0  0  0  0  0
  -13.1715   -6.7389    0.0000 H   0  0  0  0  0  0  0  0  0  0  0  0
  -11.8694   -9.3909    0.0000 H   0  0  0  0  0  0  0  0  0  0  0  0
  -13.6331   -8.6112    0.0000 H   0  0  0  0  0  0  0  0  0  0  0  0
  -10.7952   -7.7894    0.0000 S   0  0  0  0  0  0  0  0  0  0  0  0
  -10.8960   -9.2860    0.0000 O   0  0  0  0  0  0  0  0  0  0  0  0
   -9.3388   -8.1485    0.0000 O   0  0  0  0  0  0  0  0  0  0  0  0
  -10.1887   -6.4175    0.0000 C   0  0  0  0  0  0  0  0  0  0  0  0
  -10.0880   -4.9209    0.0000 H   0  0  0  0  0  0  0  0  0  0  0  0
  -11.6451   -6.0584    0.0000 H   0  0  0  0  0  0  0  0  0  0  0  0
   -8.2201   -6.2054    0.0000 C   0  0  0  0  0  0  0  0  0  0  0  0
   -8.3208   -7.7020    0.0000 H   0  0  0  0  0  0  0  0  0  0  0  0
   -6.7637   -6.5645    0.0000 H   0  0  0  0  0  0  0  0  0  0  0  0
   -7.6136   -4.8335    0.0000 N   0  0  0  0  0  0  0  0  0  0  0  0
   -8.4985   -3.6223    0.0000 H   0  0  0  0  0  0  0  0  0  0  0  0
   -5.6450   -4.6214    0.0000 C   0  0  0  0  0  0  0  0  0  0  0  0
   -5.7457   -6.1180    0.0000 H   0  0  0  0  0  0  0  0  0  0  0  0
   -4.1886   -4.9804    0.0000 H   0  0  0  0  0  0  0  0  0  0  0  0
   -5.0385   -3.2494    0.0000 C   0  0  0  0  0  0  0  0  0  0  0  0
   -5.7952   -1.9518    0.0000 C   0  0  0  0  0  0  0  0  0  0  0  0
   -7.2874   -1.7993    0.0000 H   0  0  0  0  0  0  0  0  0  0  0  0
   -4.7930   -0.8357    0.0000 C   0  0  0  0  0  0  0  0  0  0  0  0
   -5.1048    0.6316    0.0000 H   0  0  0  0  0  0  0  0  0  0  0  0
   -3.4217   -1.4488    0.0000 C   0  0  0  0  0  0  0  0  0  0  0  0
   -2.1228   -0.6986    0.0000 C   0  0  0  0  0  0  0  0  0  0  0  0
   -2.1228    0.8014    0.0000 C   0  0  0  0  0  0  0  0  0  0  0  0
   -3.4217    1.5516    0.0000 H   0  0  0  0  0  0  0  0  0  0  0  0
   -0.8228    1.5514    0.0000 C   0  0  0  0  0  0  0  0  0  0  0  0
    0.4772    0.8014    0.0000 C   0  0  0  0  0  0  0  0  0  0  0  0
    0.4772   -0.6986    0.0000 C   0  0  0  0  0  0  0  0  0  0  0  0
   -0.8228   -1.4486    0.0000 C   0  0  0  0  0  0  0  0  0  0  0  0
   -0.8228   -2.9486    0.0000 H   0  0  0  0  0  0  0  0  0  0  0  0
    1.7772   -1.4486    0.0000 C   0  0  0  0  0  0  0  0  0  0  0  0
    3.0772   -0.6986    0.0000 N   0  0  0  0  0  0  0  0  0  0  0  0
    3.0772    0.8014    0.0000 C   0  0  0  0  0  0  0  0  0  0  0  0
    4.3762    1.5516    0.0000 H   0  0  0  0  0  0  0  0  0  0  0  0
    1.7772    1.5514    0.0000 N   0  0  0  0  0  0  0  0  0  0  0  0
    1.7772   -2.9486    0.0000 N   0  0  0  0  0  0  0  0  0  0  0  0
    0.4782   -3.6986    0.0000 H   0  0  0  0  0  0  0  0  0  0  0  0
    3.0763   -3.6986    0.0000 C   0  0  0  0  0  0  0  0  0  0  0  0
    4.3762   -2.9484    0.0000 C   0  0  0  0  0  0  0  0  0  0  0  0
    4.3759   -1.4484    0.0000 H   0  0  0  0  0  0  0  0  0  0  0  0
    5.6763   -3.6982    0.0000 C   0  0  0  0  0  0  0  0  0  0  0  0
    6.9751   -2.9477    0.0000 H   0  0  0  0  0  0  0  0  0  0  0  0
    5.6765   -5.1982    0.0000 C   0  0  0  0  0  0  0  0  0  0  0  0
    4.3766   -5.9484    0.0000 C   0  0  0  0  0  0  0  0  0  0  0  0
    3.0765   -5.1986    0.0000 C   0  0  0  0  0  0  0  0  0  0  0  0
    1.7777   -5.9490    0.0000 H   0  0  0  0  0  0  0  0  0  0  0  0
    4.3769   -7.4484    0.0000 Cl  0  0  0  0  0  0  0  0  0  0  0  0
    6.9756   -5.9482    0.0000 O   0  0  0  0  0  0  0  0  0  0  0  0
    8.2746   -5.1982    0.0000 C   0  0  0  0  0  0  0  0  0  0  0  0
    9.2388   -4.0491    0.0000 H   0  0  0  0  0  0  0  0  0  0  0  0
    7.3104   -4.0491    0.0000 H   0  0  0  0  0  0  0  0  0  0  0  0
    9.5736   -5.9482    0.0000 C   0  0  0  0  0  0  0  0  0  0  0  0
    9.5757   -7.4403    0.0000 C   0  0  0  0  0  0  0  0  0  0  0  0
    8.2765   -8.1901    0.0000 H   0  0  0  0  0  0  0  0  0  0  0  0
   10.8734   -8.1925    0.0000 C   0  0  0  0  0  0  0  0  0  0  0  0
   10.8686   -9.6925    0.0000 H   0  0  0  0  0  0  0  0  0  0  0  0
   12.1692   -7.4525    0.0000 C   0  0  0  0  0  0  0  0  0  0  0  0
   13.4657   -8.2069    0.0000 H   0  0  0  0  0  0  0  0  0  0  0  0
   12.1722   -5.9517    0.0000 C   0  0  0  0  0  0  0  0  0  0  0  0
   10.8744   -5.1995    0.0000 C   0  0  0  0  0  0  0  0  0  0  0  0
   10.8767   -3.6995    0.0000 H   0  0  0  0  0  0  0  0  0  0  0  0
   13.4726   -5.2041    0.0000 F   0  0  0  0  0  0  0  0  0  0  0  0
   -0.8228    3.0514    0.0000 O   0  0  0  0  0  0  0  0  0  0  0  0
   -2.1218    3.8014    0.0000 H   0  0  0  0  0  0  0  0  0  0  0  0
   -3.5753   -2.9370    0.0000 O   0  0  0  0  0  0  0  0  0  0  0  0
  1  2  1  0  0  0  0 
  1  3  1  0  0  0  0 
  1  4  1  0  0  0  0 
  1  5  1  0  0  0  0 
  5  6  2  0  0  0  0 
  5  7  2  0  0  0  0 
  5  8  1  0  0  0  0 
  8  9  1  0  0  0  0 
  8 10  1  0  0  0  0 
  8 11  1  0  0  0  0 
 11 12  1  0  0  0  0 
 11 13  1  0  0  0  0 
 11 14  1  0  0  0  0 
 14 15  1  0  0  0  0 
 14 16  1  0  0  0  0 
 16 17  1  0  0  0  0 
 16 18  1  0  0  0  0 
 16 19  1  0  0  0  0 
 19 20  2  0  0  0  0 
 20 21  1  0  0  0  0 
 20 22  1  0  0  0  0 
 22 23  1  0  0  0  0 
 22 24  2  0  0  0  0 
 24 25  1  0  0  0  0 
 25 26  2  0  0  0  0 
 26 27  1  0  0  0  0 
 26 28  1  0  0  0  0 
 28 29  2  0  0  0  0 
 29 30  1  0  0  0  0 
 30 31  2  0  0  0  0 
 25 31  1  0  0  0  0 
 31 32  1  0  0  0  0 
 30 33  1  0  0  0  0 
 33 34  2  0  0  0  0 
 34 35  1  0  0  0  0 
 35 36  1  0  0  0  0 
 35 37  2  0  0  0  0 
 29 37  1  0  0  0  0 
 33 38  1  0  0  0  0 
 38 39  1  0  0  0  0 
 38 40  1  0  0  0  0 
 40 41  2  0  0  0  0 
 41 42  1  0  0  0  0 
 41 43  1  0  0  0  0 
 43 44  1  0  0  0  0 
 43 45  2  0  0  0  0 
 45 46  1  0  0  0  0 
 46 47  2  0  0  0  0 
 40 47  1  0  0  0  0 
 47 48  1  0  0  0  0 
 46 49  1  0  0  0  0 
 45 50  1  0  0  0  0 
 50 51  1  0  0  0  0 
 51 52  1  0  0  0  0 
 51 53  1  0  0  0  0 
 51 54  1  0  0  0  0 
 54 55  2  0  0  0  0 
 55 56  1  0  0  0  0 
 55 57  1  0  0  0  0 
 57 58  1  0  0  0  0 
 57 59  2  0  0  0  0 
 59 60  1  0  0  0  0 
 59 61  1  0  0  0  0 
 61 62  2  0  0  0  0 
 54 62  1  0  0  0  0 
 62 63  1  0  0  0  0 
 61 64  1  0  0  0  0 
 28 65  1  0  0  0  0 
 65 66  1  0  0  0  0 
 24 67  1  0  0  0  0 
 19 67  1  0  0  0  0 
M  END
> <Rank>
22

> <Priority_score>
0.124

> <Reaction_type>
aromatic_hydroxylation_(ortho_to_nitrogen)

> <Parent_ID>
50

> <Parent_InChI>
InChI=1S/C29H26ClFN4O4S/c1-40(36,37)12-11-32-16-23-7-10-27(39-23)20-5-8-26-24(14-20)29(34-18-33-26)35-22-6-9-28(25(30)15-22)38-17-19-3-2-4-21(31)13-19/h2-10,13-15,18,32H,11-12,16-17H2,1H3,(H,33,34,35)

> <Parent_SMILES>
CS(=O)(=O)CCNCc1ccc(-c2ccc3ncnc(Nc4ccc(OCc5cccc(F)c5)c(Cl)c4)c3c2)o1

$$$$
Molecule 50_metabolite 26
  CDK     0516241031

 67 71  0  0  0  0  0  0  0  0999 V2000
  -12.2866   -7.9501    0.0000 C   0  0  0  0  0  0  0  0  0  0  0  0
  -13.1715   -6.7389    0.0000 H   0  0  0  0  0  0  0  0  0  0  0  0
  -11.8694   -9.3909    0.0000 H   0  0  0  0  0  0  0  0  0  0  0  0
  -13.6331   -8.6112    0.0000 H   0  0  0  0  0  0  0  0  0  0  0  0
  -10.7952   -7.7894    0.0000 S   0  0  0  0  0  0  0  0  0  0  0  0
  -10.8960   -9.2860    0.0000 O   0  0  0  0  0  0  0  0  0  0  0  0
   -9.3388   -8.1485    0.0000 O   0  0  0  0  0  0  0  0  0  0  0  0
  -10.1887   -6.4175    0.0000 C   0  0  0  0  0  0  0  0  0  0  0  0
  -10.0880   -4.9209    0.0000 H   0  0  0  0  0  0  0  0  0  0  0  0
  -11.6451   -6.0584    0.0000 H   0  0  0  0  0  0  0  0  0  0  0  0
   -8.2201   -6.2054    0.0000 C   0  0  0  0  0  0  0  0  0  0  0  0
   -8.3208   -7.7020    0.0000 H   0  0  0  0  0  0  0  0  0  0  0  0
   -6.7637   -6.5645    0.0000 H   0  0  0  0  0  0  0  0  0  0  0  0
   -7.6136   -4.8335    0.0000 N   0  0  0  0  0  0  0  0  0  0  0  0
   -8.4985   -3.6223    0.0000 H   0  0  0  0  0  0  0  0  0  0  0  0
   -5.6450   -4.6214    0.0000 C   0  0  0  0  0  0  0  0  0  0  0  0
   -5.7457   -6.1180    0.0000 H   0  0  0  0  0  0  0  0  0  0  0  0
   -4.1886   -4.9804    0.0000 H   0  0  0  0  0  0  0  0  0  0  0  0
   -5.0385   -3.2494    0.0000 C   0  0  0  0  0  0  0  0  0  0  0  0
   -5.7952   -1.9518    0.0000 C   0  0  0  0  0  0  0  0  0  0  0  0
   -7.2874   -1.7993    0.0000 H   0  0  0  0  0  0  0  0  0  0  0  0
   -4.7930   -0.8357    0.0000 C   0  0  0  0  0  0  0  0  0  0  0  0
   -5.1048    0.6316    0.0000 H   0  0  0  0  0  0  0  0  0  0  0  0
   -3.4217   -1.4488    0.0000 C   0  0  0  0  0  0  0  0  0  0  0  0
   -2.1228   -0.6986    0.0000 C   0  0  0  0  0  0  0  0  0  0  0  0
   -0.8228   -1.4486    0.0000 C   0  0  0  0  0  0  0  0  0  0  0  0
   -0.8228   -2.9486    0.0000 H   0  0  0  0  0  0  0  0  0  0  0  0
    0.4772   -0.6986    0.0000 C   0  0  0  0  0  0  0  0  0  0  0  0
    1.7772   -1.4486    0.0000 C   0  0  0  0  0  0  0  0  0  0  0  0
    1.7772   -2.9486    0.0000 N   0  0  0  0  0  0  0  0  0  0  0  0
    0.4782   -3.6986    0.0000 H   0  0  0  0  0  0  0  0  0  0  0  0
    3.0763   -3.6986    0.0000 C   0  0  0  0  0  0  0  0  0  0  0  0
    4.3762   -2.9484    0.0000 C   0  0  0  0  0  0  0  0  0  0  0  0
    4.3759   -1.4484    0.0000 H   0  0  0  0  0  0  0  0  0  0  0  0
    5.6763   -3.6982    0.0000 C   0  0  0  0  0  0  0  0  0  0  0  0
    6.9751   -2.9477    0.0000 H   0  0  0  0  0  0  0  0  0  0  0  0
    5.6765   -5.1982    0.0000 C   0  0  0  0  0  0  0  0  0  0  0  0
    4.3766   -5.9484    0.0000 C   0  0  0  0  0  0  0  0  0  0  0  0
    3.0765   -5.1986    0.0000 C   0  0  0  0  0  0  0  0  0  0  0  0
    1.7777   -5.9490    0.0000 H   0  0  0  0  0  0  0  0  0  0  0  0
    4.3769   -7.4484    0.0000 Cl  0  0  0  0  0  0  0  0  0  0  0  0
    6.9756   -5.9482    0.0000 O   0  0  0  0  0  0  0  0  0  0  0  0
    8.2746   -5.1982    0.0000 C   0  0  0  0  0  0  0  0  0  0  0  0
    9.2388   -4.0491    0.0000 H   0  0  0  0  0  0  0  0  0  0  0  0
    7.3104   -4.0491    0.0000 H   0  0  0  0  0  0  0  0  0  0  0  0
    9.5736   -5.9482    0.0000 C   0  0  0  0  0  0  0  0  0  0  0  0
    9.5757   -7.4403    0.0000 C   0  0  0  0  0  0  0  0  0  0  0  0
    8.2765   -8.1901    0.0000 H   0  0  0  0  0  0  0  0  0  0  0  0
   10.8734   -8.1925    0.0000 C   0  0  0  0  0  0  0  0  0  0  0  0
   10.8686   -9.6925    0.0000 H   0  0  0  0  0  0  0  0  0  0  0  0
   12.1692   -7.4525    0.0000 C   0  0  0  0  0  0  0  0  0  0  0  0
   13.4657   -8.2069    0.0000 H   0  0  0  0  0  0  0  0  0  0  0  0
   12.1722   -5.9517    0.0000 C   0  0  0  0  0  0  0  0  0  0  0  0
   10.8744   -5.1995    0.0000 C   0  0  0  0  0  0  0  0  0  0  0  0
   10.8767   -3.6995    0.0000 H   0  0  0  0  0  0  0  0  0  0  0  0
   13.4726   -5.2041    0.0000 F   0  0  0  0  0  0  0  0  0  0  0  0
    3.0772   -0.6986    0.0000 N   0  0  0  0  0  0  0  0  0  0  0  0
    3.0772    0.8014    0.0000 C   0  0  0  0  0  0  0  0  0  0  0  0
    1.7772    1.5514    0.0000 N   0  0  0  0  0  0  0  0  0  0  0  0
    0.4772    0.8014    0.0000 C   0  0  0  0  0  0  0  0  0  0  0  0
   -0.8228    1.5514    0.0000 C   0  0  0  0  0  0  0  0  0  0  0  0
   -0.8228    3.0514    0.0000 H   0  0  0  0  0  0  0  0  0  0  0  0
   -2.1228    0.8014    0.0000 C   0  0  0  0  0  0  0  0  0  0  0  0
   -3.4217    1.5516    0.0000 H   0  0  0  0  0  0  0  0  0  0  0  0
    4.3762    1.5516    0.0000 O   0  0  0  0  0  0  0  0  0  0  0  0
    4.3759    3.0516    0.0000 H   0  0  0  0  0  0  0  0  0  0  0  0
   -3.5753   -2.9370    0.0000 O   0  0  0  0  0  0  0  0  0  0  0  0
  1  2  1  0  0  0  0 
  1  3  1  0  0  0  0 
  1  4  1  0  0  0  0 
  1  5  1  0  0  0  0 
  5  6  2  0  0  0  0 
  5  7  2  0  0  0  0 
  5  8  1  0  0  0  0 
  8  9  1  0  0  0  0 
  8 10  1  0  0  0  0 
  8 11  1  0  0  0  0 
 11 12  1  0  0  0  0 
 11 13  1  0  0  0  0 
 11 14  1  0  0  0  0 
 14 15  1  0  0  0  0 
 14 16  1  0  0  0  0 
 16 17  1  0  0  0  0 
 16 18  1  0  0  0  0 
 16 19  1  0  0  0  0 
 19 20  2  0  0  0  0 
 20 21  1  0  0  0  0 
 20 22  1  0  0  0  0 
 22 23  1  0  0  0  0 
 22 24  2  0  0  0  0 
 24 25  1  0  0  0  0 
 25 26  2  0  0  0  0 
 26 27  1  0  0  0  0 
 26 28  1  0  0  0  0 
 28 29  2  0  0  0  0 
 29 30  1  0  0  0  0 
 30 31  1  0  0  0  0 
 30 32  1  0  0  0  0 
 32 33  2  0  0  0  0 
 33 34  1  0  0  0  0 
 33 35  1  0  0  0  0 
 35 36  1  0  0  0  0 
 35 37  2  0  0  0  0 
 37 38  1  0  0  0  0 
 38 39  2  0  0  0  0 
 32 39  1  0  0  0  0 
 39 40  1  0  0  0  0 
 38 41  1  0  0  0  0 
 37 42  1  0  0  0  0 
 42 43  1  0  0  0  0 
 43 44  1  0  0  0  0 
 43 45  1  0  0  0  0 
 43 46  1  0  0  0  0 
 46 47  2  0  0  0  0 
 47 48  1  0  0  0  0 
 47 49  1  0  0  0  0 
 49 50  1  0  0  0  0 
 49 51  2  0  0  0  0 
 51 52  1  0  0  0  0 
 51 53  1  0  0  0  0 
 53 54  2  0  0  0  0 
 46 54  1  0  0  0  0 
 54 55  1  0  0  0  0 
 53 56  1  0  0  0  0 
 29 57  1  0  0  0  0 
 57 58  2  0  0  0  0 
 58 59  1  0  0  0  0 
 59 60  2  0  0  0  0 
 28 60  1  0  0  0  0 
 60 61  1  0  0  0  0 
 61 62  1  0  0  0  0 
 61 63  2  0  0  0  0 
 25 63  1  0  0  0  0 
 63 64  1  0  0  0  0 
 58 65  1  0  0  0  0 
 65 66  1  0  0  0  0 
 24 67  1  0  0  0  0 
 19 67  1  0  0  0  0 
M  END
> <Rank>
22

> <Priority_score>
0.124

> <Reaction_type>
aromatic_hydroxylation_(para_to_carbon)

> <Parent_ID>
50

> <Parent_InChI>
InChI=1S/C29H26ClFN4O4S/c1-40(36,37)12-11-32-16-23-7-10-27(39-23)20-5-8-26-24(14-20)29(34-18-33-26)35-22-6-9-28(25(30)15-22)38-17-19-3-2-4-21(31)13-19/h2-10,13-15,18,32H,11-12,16-17H2,1H3,(H,33,34,35)

> <Parent_SMILES>
CS(=O)(=O)CCNCc1ccc(-c2ccc3ncnc(Nc4ccc(OCc5cccc(F)c5)c(Cl)c4)c3c2)o1

$$$$
Molecule 50_metabolite 27
  CDK     0516241031

 86 91  0  0  0  0  0  0  0  0999 V2000
   -6.7116   20.6105    0.0000 C   0  0  0  0  0  0  0  0  0  0  0  0
   -8.2030   20.7712    0.0000 H   0  0  0  0  0  0  0  0  0  0  0  0
   -5.2552   20.9696    0.0000 H   0  0  0  0  0  0  0  0  0  0  0  0
   -6.8124   22.1071    0.0000 H   0  0  0  0  0  0  0  0  0  0  0  0
   -6.1051   19.2386    0.0000 S   0  0  0  0  0  0  0  0  0  0  0  0
   -4.8594   20.0741    0.0000 O   0  0  0  0  0  0  0  0  0  0  0  0
   -5.0660   18.1568    0.0000 O   0  0  0  0  0  0  0  0  0  0  0  0
   -6.9900   18.0274    0.0000 C   0  0  0  0  0  0  0  0  0  0  0  0
   -8.2357   17.1918    0.0000 H   0  0  0  0  0  0  0  0  0  0  0  0
   -8.0291   19.1091    0.0000 H   0  0  0  0  0  0  0  0  0  0  0  0
   -6.1894   16.2164    0.0000 C   0  0  0  0  0  0  0  0  0  0  0  0
   -4.9436   17.0520    0.0000 H   0  0  0  0  0  0  0  0  0  0  0  0
   -5.1502   15.1347    0.0000 H   0  0  0  0  0  0  0  0  0  0  0  0
   -7.0742   15.0052    0.0000 N   0  0  0  0  0  0  0  0  0  0  0  0
   -8.5656   15.1659    0.0000 H   0  0  0  0  0  0  0  0  0  0  0  0
   -6.2736   13.1943    0.0000 C   0  0  0  0  0  0  0  0  0  0  0  0
   -5.0279   14.0298    0.0000 H   0  0  0  0  0  0  0  0  0  0  0  0
   -5.2345   12.1126    0.0000 H   0  0  0  0  0  0  0  0  0  0  0  0
   -7.1585   11.9831    0.0000 C   0  0  0  0  0  0  0  0  0  0  0  0
   -8.6606   11.9896    0.0000 C   0  0  0  0  0  0  0  0  0  0  0  0
   -9.5388   13.2056    0.0000 H   0  0  0  0  0  0  0  0  0  0  0  0
   -9.1261   10.5636    0.0000 C   0  0  0  0  0  0  0  0  0  0  0  0
  -10.5527   10.1000    0.0000 H   0  0  0  0  0  0  0  0  0  0  0  0
   -7.9095    9.6826    0.0000 C   0  0  0  0  0  0  0  0  0  0  0  0
   -7.9097    8.1826    0.0000 C   0  0  0  0  0  0  0  0  0  0  0  0
   -6.6102    7.4317    0.0000 C   0  0  0  0  0  0  0  0  0  0  0  0
   -5.3112    8.1817    0.0000 H   0  0  0  0  0  0  0  0  0  0  0  0
   -6.6097    5.9309    0.0000 C   0  0  0  0  0  0  0  0  0  0  0  0
   -5.3102    5.1801    0.0000 C   0  0  0  0  0  0  0  0  0  0  0  0
   -5.3097    3.6792    0.0000 N   0  0  0  0  0  0  0  0  0  0  0  0
   -6.6088    2.9292    0.0000 C   0  0  0  0  0  0  0  0  0  0  0  0
   -6.6090    1.4292    0.0000 H   0  0  0  0  0  0  0  0  0  0  0  0
   -7.9083    3.6801    0.0000 N   0  0  0  0  0  0  0  0  0  0  0  0
   -7.9088    5.1809    0.0000 C   0  0  0  0  0  0  0  0  0  0  0  0
   -9.2083    5.9317    0.0000 C   0  0  0  0  0  0  0  0  0  0  0  0
  -10.5073    5.1817    0.0000 H   0  0  0  0  0  0  0  0  0  0  0  0
   -9.2088    7.4326    0.0000 C   0  0  0  0  0  0  0  0  0  0  0  0
  -10.5079    8.1824    0.0000 H   0  0  0  0  0  0  0  0  0  0  0  0
   -2.7641    6.6501    0.0000 N   0  0  0  0  0  0  0  0  0  0  0  0
   -1.6150    5.6859    0.0000 C   0  0  0  0  0  0  0  0  0  0  0  0
   -1.8754    4.2078    0.0000 C   0  0  0  0  0  0  0  0  0  0  0  0
   -3.2850    3.6950    0.0000 H   0  0  0  0  0  0  0  0  0  0  0  0
   -0.7262    3.2425    0.0000 C   0  0  0  0  0  0  0  0  0  0  0  0
   -0.9871    1.7654    0.0000 H   0  0  0  0  0  0  0  0  0  0  0  0
    0.6835    3.7554    0.0000 C   0  0  0  0  0  0  0  0  0  0  0  0
    0.9438    5.2334    0.0000 C   0  0  0  0  0  0  0  0  0  0  0  0
   -0.2054    6.1987    0.0000 C   0  0  0  0  0  0  0  0  0  0  0  0
    0.0555    7.6758    0.0000 H   0  0  0  0  0  0  0  0  0  0  0  0
    2.3535    5.7462    0.0000 Cl  0  0  0  0  0  0  0  0  0  0  0  0
    1.8325    2.7912    0.0000 O   0  0  0  0  0  0  0  0  0  0  0  0
    1.5721    1.3140    0.0000 C   0  0  0  0  0  0  0  0  0  0  0  0
    0.1625    1.8270    0.0000 H   0  0  0  0  0  0  0  0  0  0  0  0
    0.8221    0.0149    0.0000 H   0  0  0  0  0  0  0  0  0  0  0  0
    2.7211    0.3498    0.0000 C   0  0  0  0  0  0  0  0  0  0  0  0
    2.4640   -1.1201    0.0000 C   0  0  0  0  0  0  0  0  0  0  0  0
    1.0544   -1.6329    0.0000 H   0  0  0  0  0  0  0  0  0  0  0  0
    3.6114   -2.0862    0.0000 C   0  0  0  0  0  0  0  0  0  0  0  0
    3.3463   -3.5626    0.0000 H   0  0  0  0  0  0  0  0  0  0  0  0
    5.0160   -1.5824    0.0000 C   0  0  0  0  0  0  0  0  0  0  0  0
    6.1618   -2.5505    0.0000 H   0  0  0  0  0  0  0  0  0  0  0  0
    5.2796   -0.1049    0.0000 C   0  0  0  0  0  0  0  0  0  0  0  0
    4.1321    0.8612    0.0000 C   0  0  0  0  0  0  0  0  0  0  0  0
    4.3948    2.3380    0.0000 H   0  0  0  0  0  0  0  0  0  0  0  0
    6.6901    0.4055    0.0000 F   0  0  0  0  0  0  0  0  0  0  0  0
   -2.7641    8.6301    0.0000 C   0  0  0  0  0  0  0  0  0  0  0  0
   -4.2413    8.3698    0.0000 H   0  0  0  0  0  0  0  0  0  0  0  0
   -3.2768   10.0397    0.0000 C   0  0  0  0  0  0  0  0  0  0  0  0
   -4.5761    9.2901    0.0000 H   0  0  0  0  0  0  0  0  0  0  0  0
   -2.3115   11.1889    0.0000 C   0  0  0  0  0  0  0  0  0  0  0  0
   -3.6103   11.9393    0.0000 H   0  0  0  0  0  0  0  0  0  0  0  0
   -0.8334   10.9284    0.0000 C   0  0  0  0  0  0  0  0  0  0  0  0
   -0.8334   12.4284    0.0000 H   0  0  0  0  0  0  0  0  0  0  0  0
   -0.3207    9.5188    0.0000 C   0  0  0  0  0  0  0  0  0  0  0  0
    0.9786   10.2684    0.0000 H   0  0  0  0  0  0  0  0  0  0  0  0
    0.9514    8.0015    0.0000 C   0  0  0  0  0  0  0  0  0  0  0  0
    0.4377    6.5922    0.0000 O   0  0  0  0  0  0  0  0  0  0  0  0
    2.4287    8.2613    0.0000 O   0  0  0  0  0  0  0  0  0  0  0  0
    2.9423    9.6707    0.0000 H   0  0  0  0  0  0  0  0  0  0  0  0
   -1.2860    8.3696    0.0000 O   0  0  0  0  0  0  0  0  0  0  0  0
    0.6438   11.1888    0.0000 O   0  0  0  0  0  0  0  0  0  0  0  0
    1.1570   12.5982    0.0000 H   0  0  0  0  0  0  0  0  0  0  0  0
   -1.7983   12.5984    0.0000 O   0  0  0  0  0  0  0  0  0  0  0  0
   -2.7624   13.7476    0.0000 H   0  0  0  0  0  0  0  0  0  0  0  0
   -4.2405   11.1892    0.0000 O   0  0  0  0  0  0  0  0  0  0  0  0
   -5.7178   10.9294    0.0000 H   0  0  0  0  0  0  0  0  0  0  0  0
   -6.6974   10.5597    0.0000 O   0  0  0  0  0  0  0  0  0  0  0  0
  1  2  1  0  0  0  0 
  1  3  1  0  0  0  0 
  1  4  1  0  0  0  0 
  1  5  1  0  0  0  0 
  5  6  2  0  0  0  0 
  5  7  2  0  0  0  0 
  5  8  1  0  0  0  0 
  8  9  1  0  0  0  0 
  8 10  1  0  0  0  0 
  8 11  1  0  0  0  0 
 11 12  1  0  0  0  0 
 11 13  1  0  0  0  0 
 11 14  1  0  0  0  0 
 14 15  1  0  0  0  0 
 14 16  1  0  0  0  0 
 16 17  1  0  0  0  0 
 16 18  1  0  0  0  0 
 16 19  1  0  0  0  0 
 19 20  2  0  0  0  0 
 20 21  1  0  0  0  0 
 20 22  1  0  0  0  0 
 22 23  1  0  0  0  0 
 22 24  2  0  0  0  0 
 24 25  1  0  0  0  0 
 25 26  2  0  0  0  0 
 26 27  1  0  0  0  0 
 26 28  1  0  0  0  0 
 28 29  2  0  0  0  0 
 29 30  1  0  0  0  0 
 30 31  2  0  0  0  0 
 31 32  1  0  0  0  0 
 31 33  1  0  0  0  0 
 33 34  2  0  0  0  0 
 28 34  1  0  0  0  0 
 34 35  1  0  0  0  0 
 35 36  1  0  0  0  0 
 35 37  2  0  0  0  0 
 25 37  1  0  0  0  0 
 37 38  1  0  0  0  0 
 29 39  1  0  0  0  0 
 39 40  1  0  0  0  0 
 40 41  2  0  0  0  0 
 41 42  1  0  0  0  0 
 41 43  1  0  0  0  0 
 43 44  1  0  0  0  0 
 43 45  2  0  0  0  0 
 45 46  1  0  0  0  0 
 46 47  2  0  0  0  0 
 40 47  1  0  0  0  0 
 47 48  1  0  0  0  0 
 46 49  1  0  0  0  0 
 45 50  1  0  0  0  0 
 50 51  1  0  0  0  0 
 51 52  1  0  0  0  0 
 51 53  1  0  0  0  0 
 51 54  1  0  0  0  0 
 54 55  2  0  0  0  0 
 55 56  1  0  0  0  0 
 55 57  1  0  0  0  0 
 57 58  1  0  0  0  0 
 57 59  2  0  0  0  0 
 59 60  1  0  0  0  0 
 59 61  1  0  0  0  0 
 61 62  2  0  0  0  0 
 54 62  1  0  0  0  0 
 62 63  1  0  0  0  0 
 61 64  1  0  0  0  0 
 39 65  1  0  0  0  0 
 65 66  1  0  0  0  0 
 65 67  1  0  0  0  0 
 67 68  1  0  0  0  0 
 67 69  1  0  0  0  0 
 69 70  1  0  0  0  0 
 69 71  1  0  0  0  0 
 71 72  1  0  0  0  0 
 71 73  1  0  0  0  0 
 73 74  1  0  0  0  0 
 73 75  1  0  0  0  0 
 75 76  2  0  0  0  0 
 75 77  1  0  0  0  0 
 77 78  1  0  0  0  0 
 73 79  1  0  0  0  0 
 65 79  1  0  0  0  0 
 71 80  1  0  0  0  0 
 80 81  1  0  0  0  0 
 69 82  1  0  0  0  0 
 82 83  1  0  0  0  0 
 67 84  1  0  0  0  0 
 84 85  1  0  0  0  0 
 24 86  1  0  0  0  0 
 19 86  1  0  0  0  0 
M  END
> <Rank>
27

> <Priority_score>
0.112

> <Reaction_type>
N-glucuronidation_(aniline_NH1-R)

> <Parent_ID>
50

> <Parent_InChI>
InChI=1S/C29H26ClFN4O4S/c1-40(36,37)12-11-32-16-23-7-10-27(39-23)20-5-8-26-24(14-20)29(34-18-33-26)35-22-6-9-28(25(30)15-22)38-17-19-3-2-4-21(31)13-19/h2-10,13-15,18,32H,11-12,16-17H2,1H3,(H,33,34,35)

> <Parent_SMILES>
CS(=O)(=O)CCNCc1ccc(-c2ccc3ncnc(Nc4ccc(OCc5cccc(F)c5)c(Cl)c4)c3c2)o1

$$$$
Molecule 50_metabolite 28
  CDK     0516241031

 64 68  0  0  0  0  0  0  0  0999 V2000
  -11.8094   -7.8987    0.0000 C   0  0  0  0  0  0  0  0  0  0  0  0
  -12.6942   -6.6875    0.0000 H   0  0  0  0  0  0  0  0  0  0  0  0
  -11.3921   -9.3395    0.0000 H   0  0  0  0  0  0  0  0  0  0  0  0
  -13.1558   -8.5598    0.0000 H   0  0  0  0  0  0  0  0  0  0  0  0
  -10.3180   -7.7380    0.0000 S   0  0  0  0  0  0  0  0  0  0  0  0
  -10.4187   -9.2346    0.0000 O   0  0  0  0  0  0  0  0  0  0  0  0
   -8.8616   -8.0971    0.0000 O   0  0  0  0  0  0  0  0  0  0  0  0
   -9.7115   -6.3661    0.0000 C   0  0  0  0  0  0  0  0  0  0  0  0
   -9.6108   -4.8695    0.0000 H   0  0  0  0  0  0  0  0  0  0  0  0
  -11.1679   -6.0070    0.0000 H   0  0  0  0  0  0  0  0  0  0  0  0
   -8.2201   -6.2054    0.0000 C   0  0  0  0  0  0  0  0  0  0  0  0
   -7.3353   -7.4166    0.0000 H   0  0  0  0  0  0  0  0  0  0  0  0
   -7.6136   -4.8335    0.0000 N   0  0  0  0  0  0  0  0  0  0  0  0
   -6.1222   -4.6728    0.0000 C   0  0  0  0  0  0  0  0  0  0  0  0
   -6.2229   -6.1694    0.0000 H   0  0  0  0  0  0  0  0  0  0  0  0
   -4.6658   -5.0318    0.0000 H   0  0  0  0  0  0  0  0  0  0  0  0
   -5.5157   -3.3009    0.0000 C   0  0  0  0  0  0  0  0  0  0  0  0
   -6.2724   -2.0032    0.0000 C   0  0  0  0  0  0  0  0  0  0  0  0
   -7.7646   -1.8507    0.0000 H   0  0  0  0  0  0  0  0  0  0  0  0
   -5.2703   -0.8871    0.0000 C   0  0  0  0  0  0  0  0  0  0  0  0
   -5.5820    0.5801    0.0000 H   0  0  0  0  0  0  0  0  0  0  0  0
   -3.8989   -1.5002    0.0000 C   0  0  0  0  0  0  0  0  0  0  0  0
   -2.6000   -0.7500    0.0000 C   0  0  0  0  0  0  0  0  0  0  0  0
   -1.3000   -1.5000    0.0000 C   0  0  0  0  0  0  0  0  0  0  0  0
   -1.3000   -3.0000    0.0000 H   0  0  0  0  0  0  0  0  0  0  0  0
    0.0000   -0.7500    0.0000 C   0  0  0  0  0  0  0  0  0  0  0  0
    1.3000   -1.5000    0.0000 C   0  0  0  0  0  0  0  0  0  0  0  0
    2.6000   -0.7500    0.0000 N   0  0  0  0  0  0  0  0  0  0  0  0
    2.6000    0.7500    0.0000 C   0  0  0  0  0  0  0  0  0  0  0  0
    3.8989    1.5002    0.0000 H   0  0  0  0  0  0  0  0  0  0  0  0
    1.3000    1.5000    0.0000 N   0  0  0  0  0  0  0  0  0  0  0  0
    0.0000    0.7500    0.0000 C   0  0  0  0  0  0  0  0  0  0  0  0
   -1.3000    1.5000    0.0000 C   0  0  0  0  0  0  0  0  0  0  0  0
   -1.3000    3.0000    0.0000 H   0  0  0  0  0  0  0  0  0  0  0  0
   -2.6000    0.7500    0.0000 C   0  0  0  0  0  0  0  0  0  0  0  0
   -3.8989    1.5002    0.0000 H   0  0  0  0  0  0  0  0  0  0  0  0
    1.3000   -3.0000    0.0000 N   0  0  0  0  0  0  0  0  0  0  0  0
    0.0010   -3.7500    0.0000 H   0  0  0  0  0  0  0  0  0  0  0  0
    2.5990   -3.7500    0.0000 C   0  0  0  0  0  0  0  0  0  0  0  0
    3.8989   -2.9998    0.0000 C   0  0  0  0  0  0  0  0  0  0  0  0
    3.8987   -1.4998    0.0000 H   0  0  0  0  0  0  0  0  0  0  0  0
    5.1990   -3.7496    0.0000 C   0  0  0  0  0  0  0  0  0  0  0  0
    6.4978   -2.9992    0.0000 H   0  0  0  0  0  0  0  0  0  0  0  0
    5.1993   -5.2496    0.0000 C   0  0  0  0  0  0  0  0  0  0  0  0
    3.8994   -5.9998    0.0000 C   0  0  0  0  0  0  0  0  0  0  0  0
    2.5993   -5.2500    0.0000 C   0  0  0  0  0  0  0  0  0  0  0  0
    1.3005   -6.0004    0.0000 H   0  0  0  0  0  0  0  0  0  0  0  0
    3.8996   -7.4998    0.0000 Cl  0  0  0  0  0  0  0  0  0  0  0  0
    6.4983   -5.9996    0.0000 O   0  0  0  0  0  0  0  0  0  0  0  0
    7.7974   -5.2496    0.0000 C   0  0  0  0  0  0  0  0  0  0  0  0
    8.7615   -4.1005    0.0000 H   0  0  0  0  0  0  0  0  0  0  0  0
    6.8332   -4.1005    0.0000 H   0  0  0  0  0  0  0  0  0  0  0  0
    9.0964   -5.9996    0.0000 C   0  0  0  0  0  0  0  0  0  0  0  0
    9.0984   -7.4918    0.0000 C   0  0  0  0  0  0  0  0  0  0  0  0
    7.7993   -8.2416    0.0000 H   0  0  0  0  0  0  0  0  0  0  0  0
   10.3962   -8.2439    0.0000 C   0  0  0  0  0  0  0  0  0  0  0  0
   10.3914   -9.7439    0.0000 H   0  0  0  0  0  0  0  0  0  0  0  0
   11.6920   -7.5039    0.0000 C   0  0  0  0  0  0  0  0  0  0  0  0
   12.9885   -8.2583    0.0000 H   0  0  0  0  0  0  0  0  0  0  0  0
   11.6949   -6.0031    0.0000 C   0  0  0  0  0  0  0  0  0  0  0  0
   10.3972   -5.2509    0.0000 C   0  0  0  0  0  0  0  0  0  0  0  0
   10.3994   -3.7509    0.0000 H   0  0  0  0  0  0  0  0  0  0  0  0
   12.9954   -5.2555    0.0000 F   0  0  0  0  0  0  0  0  0  0  0  0
   -4.0525   -2.9885    0.0000 O   0  0  0  0  0  0  0  0  0  0  0  0
  1  2  1  0  0  0  0 
  1  3  1  0  0  0  0 
  1  4  1  0  0  0  0 
  1  5  1  0  0  0  0 
  5  6  2  0  0  0  0 
  5  7  2  0  0  0  0 
  5  8  1  0  0  0  0 
  8  9  1  0  0  0  0 
  8 10  1  0  0  0  0 
  8 11  1  0  0  0  0 
 11 12  1  4  0  0  0 
 11 13  2  0  0  0  0 
 13 14  1  0  0  0  0 
 14 15  1  0  0  0  0 
 14 16  1  0  0  0  0 
 14 17  1  0  0  0  0 
 17 18  2  0  0  0  0 
 18 19  1  0  0  0  0 
 18 20  1  0  0  0  0 
 20 21  1  0  0  0  0 
 20 22  2  0  0  0  0 
 22 23  1  0  0  0  0 
 23 24  2  0  0  0  0 
 24 25  1  0  0  0  0 
 24 26  1  0  0  0  0 
 26 27  2  0  0  0  0 
 27 28  1  0  0  0  0 
 28 29  2  0  0  0  0 
 29 30  1  0  0  0  0 
 29 31  1  0  0  0  0 
 31 32  2  0  0  0  0 
 26 32  1  0  0  0  0 
 32 33  1  0  0  0  0 
 33 34  1  0  0  0  0 
 33 35  2  0  0  0  0 
 23 35  1  0  0  0  0 
 35 36  1  0  0  0  0 
 27 37  1  0  0  0  0 
 37 38  1  0  0  0  0 
 37 39  1  0  0  0  0 
 39 40  2  0  0  0  0 
 40 41  1  0  0  0  0 
 40 42  1  0  0  0  0 
 42 43  1  0  0  0  0 
 42 44  2  0  0  0  0 
 44 45  1  0  0  0  0 
 45 46  2  0  0  0  0 
 39 46  1  0  0  0  0 
 46 47  1  0  0  0  0 
 45 48  1  0  0  0  0 
 44 49  1  0  0  0  0 
 49 50  1  0  0  0  0 
 50 51  1  0  0  0  0 
 50 52  1  0  0  0  0 
 50 53  1  0  0  0  0 
 53 54  2  0  0  0  0 
 54 55  1  0  0  0  0 
 54 56  1  0  0  0  0 
 56 57  1  0  0  0  0 
 56 58  2  0  0  0  0 
 58 59  1  0  0  0  0 
 58 60  1  0  0  0  0 
 60 61  2  0  0  0  0 
 53 61  1  0  0  0  0 
 61 62  1  0  0  0  0 
 60 63  1  0  0  0  0 
 22 64  1  0  0  0  0 
 17 64  1  0  0  0  0 
M  END
> <Rank>
28

> <Priority_score>
0.11040000000000001

> <Reaction_type>
dehydration of N-C bond

> <Parent_ID>
50

> <Parent_InChI>
InChI=1S/C29H26ClFN4O4S/c1-40(36,37)12-11-32-16-23-7-10-27(39-23)20-5-8-26-24(14-20)29(34-18-33-26)35-22-6-9-28(25(30)15-22)38-17-19-3-2-4-21(31)13-19/h2-10,13-15,18,32H,11-12,16-17H2,1H3,(H,33,34,35)

> <Parent_SMILES>
CS(=O)(=O)CCNCc1ccc(-c2ccc3ncnc(Nc4ccc(OCc5cccc(F)c5)c(Cl)c4)c3c2)o1

$$$$
Molecule 50_metabolite 29
  CDK     0516241031

 65 69  0  0  0  0  0  0  0  0999 V2000
  -11.8094   -7.8987    0.0000 C   0  0  0  0  0  0  0  0  0  0  0  0
  -12.6942   -6.6875    0.0000 H   0  0  0  0  0  0  0  0  0  0  0  0
  -11.3921   -9.3395    0.0000 H   0  0  0  0  0  0  0  0  0  0  0  0
  -13.1558   -8.5598    0.0000 H   0  0  0  0  0  0  0  0  0  0  0  0
  -10.3180   -7.7380    0.0000 S   0  0  0  0  0  0  0  0  0  0  0  0
  -10.4187   -9.2346    0.0000 O   0  0  0  0  0  0  0  0  0  0  0  0
   -8.8616   -8.0971    0.0000 O   0  0  0  0  0  0  0  0  0  0  0  0
   -9.7115   -6.3661    0.0000 C   0  0  0  0  0  0  0  0  0  0  0  0
   -9.6108   -4.8695    0.0000 H   0  0  0  0  0  0  0  0  0  0  0  0
  -11.1679   -6.0070    0.0000 H   0  0  0  0  0  0  0  0  0  0  0  0
   -8.2201   -6.2054    0.0000 C   0  0  0  0  0  0  0  0  0  0  0  0
   -7.3353   -7.4166    0.0000 H   0  0  0  0  0  0  0  0  0  0  0  0
   -7.6136   -4.8335    0.0000 N   0  0  0  0  0  0  0  0  0  0  0  0
   -8.4985   -3.6223    0.0000 H   0  0  0  0  0  0  0  0  0  0  0  0
   -6.1222   -4.6728    0.0000 C   0  0  0  0  0  0  0  0  0  0  0  0
   -6.2229   -6.1694    0.0000 H   0  0  0  0  0  0  0  0  0  0  0  0
   -4.6658   -5.0318    0.0000 H   0  0  0  0  0  0  0  0  0  0  0  0
   -5.5157   -3.3009    0.0000 C   0  0  0  0  0  0  0  0  0  0  0  0
   -6.2724   -2.0032    0.0000 C   0  0  0  0  0  0  0  0  0  0  0  0
   -7.7646   -1.8507    0.0000 H   0  0  0  0  0  0  0  0  0  0  0  0
   -5.2703   -0.8871    0.0000 C   0  0  0  0  0  0  0  0  0  0  0  0
   -5.5820    0.5801    0.0000 H   0  0  0  0  0  0  0  0  0  0  0  0
   -3.8989   -1.5002    0.0000 C   0  0  0  0  0  0  0  0  0  0  0  0
   -2.6000   -0.7500    0.0000 C   0  0  0  0  0  0  0  0  0  0  0  0
   -1.3000   -1.5000    0.0000 C   0  0  0  0  0  0  0  0  0  0  0  0
   -1.3000   -3.0000    0.0000 H   0  0  0  0  0  0  0  0  0  0  0  0
    0.0000   -0.7500    0.0000 C   0  0  0  0  0  0  0  0  0  0  0  0
    1.3000   -1.5000    0.0000 C   0  0  0  0  0  0  0  0  0  0  0  0
    2.6000   -0.7500    0.0000 N   0  0  0  0  0  0  0  0  0  0  0  0
    2.6000    0.7500    0.0000 C   0  0  0  0  0  0  0  0  0  0  0  0
    3.8989    1.5002    0.0000 H   0  0  0  0  0  0  0  0  0  0  0  0
    1.3000    1.5000    0.0000 N   0  0  0  0  0  0  0  0  0  0  0  0
    0.0000    0.7500    0.0000 C   0  0  0  0  0  0  0  0  0  0  0  0
   -1.3000    1.5000    0.0000 C   0  0  0  0  0  0  0  0  0  0  0  0
   -1.3000    3.0000    0.0000 H   0  0  0  0  0  0  0  0  0  0  0  0
   -2.6000    0.7500    0.0000 C   0  0  0  0  0  0  0  0  0  0  0  0
   -3.8989    1.5002    0.0000 H   0  0  0  0  0  0  0  0  0  0  0  0
    1.3000   -3.0000    0.0000 N   0  0  0  0  0  0  0  0  0  0  0  0
    0.0010   -3.7500    0.0000 H   0  0  0  0  0  0  0  0  0  0  0  0
    2.5990   -3.7500    0.0000 C   0  0  0  0  0  0  0  0  0  0  0  0
    3.8989   -2.9998    0.0000 C   0  0  0  0  0  0  0  0  0  0  0  0
    3.8987   -1.4998    0.0000 H   0  0  0  0  0  0  0  0  0  0  0  0
    5.1990   -3.7496    0.0000 C   0  0  0  0  0  0  0  0  0  0  0  0
    6.4978   -2.9992    0.0000 H   0  0  0  0  0  0  0  0  0  0  0  0
    5.1993   -5.2496    0.0000 C   0  0  0  0  0  0  0  0  0  0  0  0
    3.8994   -5.9998    0.0000 C   0  0  0  0  0  0  0  0  0  0  0  0
    2.5993   -5.2500    0.0000 C   0  0  0  0  0  0  0  0  0  0  0  0
    1.3005   -6.0004    0.0000 H   0  0  0  0  0  0  0  0  0  0  0  0
    3.8996   -7.4998    0.0000 Cl  0  0  0  0  0  0  0  0  0  0  0  0
    6.4983   -5.9996    0.0000 O   0  0  0  0  0  0  0  0  0  0  0  0
    7.7974   -5.2496    0.0000 C   0  0  0  0  0  0  0  0  0  0  0  0
    8.7615   -4.1005    0.0000 H   0  0  0  0  0  0  0  0  0  0  0  0
    6.8332   -4.1005    0.0000 H   0  0  0  0  0  0  0  0  0  0  0  0
    9.0964   -5.9996    0.0000 C   0  0  0  0  0  0  0  0  0  0  0  0
    9.0984   -7.4918    0.0000 C   0  0  0  0  0  0  0  0  0  0  0  0
    7.7993   -8.2416    0.0000 H   0  0  0  0  0  0  0  0  0  0  0  0
   10.3962   -8.2439    0.0000 C   0  0  0  0  0  0  0  0  0  0  0  0
   10.3914   -9.7439    0.0000 H   0  0  0  0  0  0  0  0  0  0  0  0
   11.6920   -7.5039    0.0000 C   0  0  0  0  0  0  0  0  0  0  0  0
   12.9885   -8.2583    0.0000 H   0  0  0  0  0  0  0  0  0  0  0  0
   11.6949   -6.0031    0.0000 C   0  0  0  0  0  0  0  0  0  0  0  0
   10.3972   -5.2509    0.0000 C   0  0  0  0  0  0  0  0  0  0  0  0
   10.3994   -3.7509    0.0000 H   0  0  0  0  0  0  0  0  0  0  0  0
   12.9954   -5.2555    0.0000 F   0  0  0  0  0  0  0  0  0  0  0  0
   -4.0525   -2.9885    0.0000 O   0  0  0  0  0  0  0  0  0  0  0  0
  1  2  1  0  0  0  0 
  1  3  1  0  0  0  0 
  1  4  1  0  0  0  0 
  1  5  1  0  0  0  0 
  5  6  2  0  0  0  0 
  5  7  2  0  0  0  0 
  5  8  1  0  0  0  0 
  8  9  1  0  0  0  0 
  8 10  1  0  0  0  0 
  8 11  1  0  0  0  0 
 11 12  1  4  0  0  0 
 11 13  2  0  0  0  0 
 13 14  1  0  0  0  0 
 13 15  1  0  0  0  0 
 15 16  1  0  0  0  0 
 15 17  1  0  0  0  0 
 15 18  1  0  0  0  0 
 18 19  2  0  0  0  0 
 19 20  1  0  0  0  0 
 19 21  1  0  0  0  0 
 21 22  1  0  0  0  0 
 21 23  2  0  0  0  0 
 23 24  1  0  0  0  0 
 24 25  2  0  0  0  0 
 25 26  1  0  0  0  0 
 25 27  1  0  0  0  0 
 27 28  2  0  0  0  0 
 28 29  1  0  0  0  0 
 29 30  2  0  0  0  0 
 30 31  1  0  0  0  0 
 30 32  1  0  0  0  0 
 32 33  2  0  0  0  0 
 27 33  1  0  0  0  0 
 33 34  1  0  0  0  0 
 34 35  1  0  0  0  0 
 34 36  2  0  0  0  0 
 24 36  1  0  0  0  0 
 36 37  1  0  0  0  0 
 28 38  1  0  0  0  0 
 38 39  1  0  0  0  0 
 38 40  1  0  0  0  0 
 40 41  2  0  0  0  0 
 41 42  1  0  0  0  0 
 41 43  1  0  0  0  0 
 43 44  1  0  0  0  0 
 43 45  2  0  0  0  0 
 45 46  1  0  0  0  0 
 46 47  2  0  0  0  0 
 40 47  1  0  0  0  0 
 47 48  1  0  0  0  0 
 46 49  1  0  0  0  0 
 45 50  1  0  0  0  0 
 50 51  1  0  0  0  0 
 51 52  1  0  0  0  0 
 51 53  1  0  0  0  0 
 51 54  1  0  0  0  0 
 54 55  2  0  0  0  0 
 55 56  1  0  0  0  0 
 55 57  1  0  0  0  0 
 57 58  1  0  0  0  0 
 57 59  2  0  0  0  0 
 59 60  1  0  0  0  0 
 59 61  1  0  0  0  0 
 61 62  2  0  0  0  0 
 54 62  1  0  0  0  0 
 62 63  1  0  0  0  0 
 61 64  1  0  0  0  0 
 23 65  1  0  0  0  0 
 18 65  1  0  0  0  0 
M  CHG  1  13   1
M  END
> <Rank>
28

> <Priority_score>
0.11040000000000001

> <Reaction_type>
dehydration of N-C bond

> <Parent_ID>
50

> <Parent_InChI>
InChI=1S/C29H26ClFN4O4S/c1-40(36,37)12-11-32-16-23-7-10-27(39-23)20-5-8-26-24(14-20)29(34-18-33-26)35-22-6-9-28(25(30)15-22)38-17-19-3-2-4-21(31)13-19/h2-10,13-15,18,32H,11-12,16-17H2,1H3,(H,33,34,35)

> <Parent_SMILES>
CS(=O)(=O)CCNCc1ccc(-c2ccc3ncnc(Nc4ccc(OCc5cccc(F)c5)c(Cl)c4)c3c2)o1

$$$$
Molecule 50_metabolite 30
  CDK     0516241031

 64 68  0  0  0  0  0  0  0  0999 V2000
  -11.8094   -7.8987    0.0000 C   0  0  0  0  0  0  0  0  0  0  0  0
  -12.4159   -9.2706    0.0000 H   0  0  0  0  0  0  0  0  0  0  0  0
  -11.7086   -6.4021    0.0000 H   0  0  0  0  0  0  0  0  0  0  0  0
  -13.2658   -7.5396    0.0000 H   0  0  0  0  0  0  0  0  0  0  0  0
  -10.3180   -7.7380    0.0000 S   0  0  0  0  0  0  0  0  0  0  0  0
  -10.4187   -9.2346    0.0000 O   0  0  0  0  0  0  0  0  0  0  0  0
   -8.8616   -8.0971    0.0000 O   0  0  0  0  0  0  0  0  0  0  0  0
   -9.7115   -6.3661    0.0000 C   0  0  0  0  0  0  0  0  0  0  0  0
  -10.5963   -5.1549    0.0000 H   0  0  0  0  0  0  0  0  0  0  0  0
   -8.2201   -6.2054    0.0000 C   0  0  0  0  0  0  0  0  0  0  0  0
   -7.3353   -7.4166    0.0000 H   0  0  0  0  0  0  0  0  0  0  0  0
   -7.6136   -4.8335    0.0000 N   0  0  0  0  0  0  0  0  0  0  0  0
   -8.4985   -3.6223    0.0000 H   0  0  0  0  0  0  0  0  0  0  0  0
   -6.1222   -4.6728    0.0000 C   0  0  0  0  0  0  0  0  0  0  0  0
   -6.2229   -6.1694    0.0000 H   0  0  0  0  0  0  0  0  0  0  0  0
   -4.6658   -5.0318    0.0000 H   0  0  0  0  0  0  0  0  0  0  0  0
   -5.5157   -3.3009    0.0000 C   0  0  0  0  0  0  0  0  0  0  0  0
   -6.2724   -2.0032    0.0000 C   0  0  0  0  0  0  0  0  0  0  0  0
   -7.7646   -1.8507    0.0000 H   0  0  0  0  0  0  0  0  0  0  0  0
   -5.2703   -0.8871    0.0000 C   0  0  0  0  0  0  0  0  0  0  0  0
   -5.5820    0.5801    0.0000 H   0  0  0  0  0  0  0  0  0  0  0  0
   -3.8989   -1.5002    0.0000 C   0  0  0  0  0  0  0  0  0  0  0  0
   -2.6000   -0.7500    0.0000 C   0  0  0  0  0  0  0  0  0  0  0  0
   -1.3000   -1.5000    0.0000 C   0  0  0  0  0  0  0  0  0  0  0  0
   -1.3000   -3.0000    0.0000 H   0  0  0  0  0  0  0  0  0  0  0  0
    0.0000   -0.7500    0.0000 C   0  0  0  0  0  0  0  0  0  0  0  0
    1.3000   -1.5000    0.0000 C   0  0  0  0  0  0  0  0  0  0  0  0
    2.6000   -0.7500    0.0000 N   0  0  0  0  0  0  0  0  0  0  0  0
    2.6000    0.7500    0.0000 C   0  0  0  0  0  0  0  0  0  0  0  0
    3.8989    1.5002    0.0000 H   0  0  0  0  0  0  0  0  0  0  0  0
    1.3000    1.5000    0.0000 N   0  0  0  0  0  0  0  0  0  0  0  0
    0.0000    0.7500    0.0000 C   0  0  0  0  0  0  0  0  0  0  0  0
   -1.3000    1.5000    0.0000 C   0  0  0  0  0  0  0  0  0  0  0  0
   -1.3000    3.0000    0.0000 H   0  0  0  0  0  0  0  0  0  0  0  0
   -2.6000    0.7500    0.0000 C   0  0  0  0  0  0  0  0  0  0  0  0
   -3.8989    1.5002    0.0000 H   0  0  0  0  0  0  0  0  0  0  0  0
    1.3000   -3.0000    0.0000 N   0  0  0  0  0  0  0  0  0  0  0  0
    0.0010   -3.7500    0.0000 H   0  0  0  0  0  0  0  0  0  0  0  0
    2.5990   -3.7500    0.0000 C   0  0  0  0  0  0  0  0  0  0  0  0
    3.8989   -2.9998    0.0000 C   0  0  0  0  0  0  0  0  0  0  0  0
    3.8987   -1.4998    0.0000 H   0  0  0  0  0  0  0  0  0  0  0  0
    5.1990   -3.7496    0.0000 C   0  0  0  0  0  0  0  0  0  0  0  0
    6.4978   -2.9992    0.0000 H   0  0  0  0  0  0  0  0  0  0  0  0
    5.1993   -5.2496    0.0000 C   0  0  0  0  0  0  0  0  0  0  0  0
    3.8994   -5.9998    0.0000 C   0  0  0  0  0  0  0  0  0  0  0  0
    2.5993   -5.2500    0.0000 C   0  0  0  0  0  0  0  0  0  0  0  0
    1.3005   -6.0004    0.0000 H   0  0  0  0  0  0  0  0  0  0  0  0
    3.8996   -7.4998    0.0000 Cl  0  0  0  0  0  0  0  0  0  0  0  0
    6.4983   -5.9996    0.0000 O   0  0  0  0  0  0  0  0  0  0  0  0
    7.7974   -5.2496    0.0000 C   0  0  0  0  0  0  0  0  0  0  0  0
    8.7615   -4.1005    0.0000 H   0  0  0  0  0  0  0  0  0  0  0  0
    6.8332   -4.1005    0.0000 H   0  0  0  0  0  0  0  0  0  0  0  0
    9.0964   -5.9996    0.0000 C   0  0  0  0  0  0  0  0  0  0  0  0
    9.0984   -7.4918    0.0000 C   0  0  0  0  0  0  0  0  0  0  0  0
    7.7993   -8.2416    0.0000 H   0  0  0  0  0  0  0  0  0  0  0  0
   10.3962   -8.2439    0.0000 C   0  0  0  0  0  0  0  0  0  0  0  0
   10.3914   -9.7439    0.0000 H   0  0  0  0  0  0  0  0  0  0  0  0
   11.6920   -7.5039    0.0000 C   0  0  0  0  0  0  0  0  0  0  0  0
   12.9885   -8.2583    0.0000 H   0  0  0  0  0  0  0  0  0  0  0  0
   11.6949   -6.0031    0.0000 C   0  0  0  0  0  0  0  0  0  0  0  0
   10.3972   -5.2509    0.0000 C   0  0  0  0  0  0  0  0  0  0  0  0
   10.3994   -3.7509    0.0000 H   0  0  0  0  0  0  0  0  0  0  0  0
   12.9954   -5.2555    0.0000 F   0  0  0  0  0  0  0  0  0  0  0  0
   -4.0525   -2.9885    0.0000 O   0  0  0  0  0  0  0  0  0  0  0  0
  1  2  1  0  0  0  0 
  1  3  1  0  0  0  0 
  1  4  1  0  0  0  0 
  1  5  1  0  0  0  0 
  5  6  2  0  0  0  0 
  5  7  2  0  0  0  0 
  5  8  1  0  0  0  0 
  8  9  1  4  0  0  0 
  8 10  2  0  0  0  0 
 10 11  1  0  0  0  0 
 10 12  1  0  0  0  0 
 12 13  1  0  0  0  0 
 12 14  1  0  0  0  0 
 14 15  1  0  0  0  0 
 14 16  1  0  0  0  0 
 14 17  1  0  0  0  0 
 17 18  2  0  0  0  0 
 18 19  1  0  0  0  0 
 18 20  1  0  0  0  0 
 20 21  1  0  0  0  0 
 20 22  2  0  0  0  0 
 22 23  1  0  0  0  0 
 23 24  2  0  0  0  0 
 24 25  1  0  0  0  0 
 24 26  1  0  0  0  0 
 26 27  2  0  0  0  0 
 27 28  1  0  0  0  0 
 28 29  2  0  0  0  0 
 29 30  1  0  0  0  0 
 29 31  1  0  0  0  0 
 31 32  2  0  0  0  0 
 26 32  1  0  0  0  0 
 32 33  1  0  0  0  0 
 33 34  1  0  0  0  0 
 33 35  2  0  0  0  0 
 23 35  1  0  0  0  0 
 35 36  1  0  0  0  0 
 27 37  1  0  0  0  0 
 37 38  1  0  0  0  0 
 37 39  1  0  0  0  0 
 39 40  2  0  0  0  0 
 40 41  1  0  0  0  0 
 40 42  1  0  0  0  0 
 42 43  1  0  0  0  0 
 42 44  2  0  0  0  0 
 44 45  1  0  0  0  0 
 45 46  2  0  0  0  0 
 39 46  1  0  0  0  0 
 46 47  1  0  0  0  0 
 45 48  1  0  0  0  0 
 44 49  1  0  0  0  0 
 49 50  1  0  0  0  0 
 50 51  1  0  0  0  0 
 50 52  1  0  0  0  0 
 50 53  1  0  0  0  0 
 53 54  2  0  0  0  0 
 54 55  1  0  0  0  0 
 54 56  1  0  0  0  0 
 56 57  1  0  0  0  0 
 56 58  2  0  0  0  0 
 58 59  1  0  0  0  0 
 58 60  1  0  0  0  0 
 60 61  2  0  0  0  0 
 53 61  1  0  0  0  0 
 61 62  1  0  0  0  0 
 60 63  1  0  0  0  0 
 22 64  1  0  0  0  0 
 17 64  1  0  0  0  0 
M  END
> <Rank>
28

> <Priority_score>
0.11040000000000001

> <Reaction_type>
alkyl dehydrogenation

> <Parent_ID>
50

> <Parent_InChI>
InChI=1S/C29H26ClFN4O4S/c1-40(36,37)12-11-32-16-23-7-10-27(39-23)20-5-8-26-24(14-20)29(34-18-33-26)35-22-6-9-28(25(30)15-22)38-17-19-3-2-4-21(31)13-19/h2-10,13-15,18,32H,11-12,16-17H2,1H3,(H,33,34,35)

> <Parent_SMILES>
CS(=O)(=O)CCNCc1ccc(-c2ccc3ncnc(Nc4ccc(OCc5cccc(F)c5)c(Cl)c4)c3c2)o1

$$$$
Molecule 50_metabolite 31
  CDK     0516241031

 65 69  0  0  0  0  0  0  0  0999 V2000
  -12.2866   -7.9501    0.0000 C   0  0  0  0  0  0  0  0  0  0  0  0
  -13.1715   -6.7389    0.0000 H   0  0  0  0  0  0  0  0  0  0  0  0
  -11.8694   -9.3909    0.0000 H   0  0  0  0  0  0  0  0  0  0  0  0
  -13.6331   -8.6112    0.0000 H   0  0  0  0  0  0  0  0  0  0  0  0
  -10.7952   -7.7894    0.0000 S   0  0  0  0  0  0  0  0  0  0  0  0
  -10.8960   -9.2860    0.0000 O   0  0  0  0  0  0  0  0  0  0  0  0
   -9.3388   -8.1485    0.0000 O   0  0  0  0  0  0  0  0  0  0  0  0
  -10.1887   -6.4175    0.0000 C   0  0  0  0  0  0  0  0  0  0  0  0
  -10.0880   -4.9209    0.0000 H   0  0  0  0  0  0  0  0  0  0  0  0
  -11.6451   -6.0584    0.0000 H   0  0  0  0  0  0  0  0  0  0  0  0
   -8.2201   -6.2054    0.0000 C   0  0  0  0  0  0  0  0  0  0  0  0
   -8.3208   -7.7020    0.0000 H   0  0  0  0  0  0  0  0  0  0  0  0
   -6.7637   -6.5645    0.0000 H   0  0  0  0  0  0  0  0  0  0  0  0
   -7.6136   -4.8335    0.0000 N   0  0  0  0  0  0  0  0  0  0  0  0
   -8.4985   -3.6223    0.0000 H   0  0  0  0  0  0  0  0  0  0  0  0
   -6.1222   -4.6728    0.0000 C   0  0  0  0  0  0  0  0  0  0  0  0
   -5.2374   -5.8840    0.0000 H   0  0  0  0  0  0  0  0  0  0  0  0
   -5.5157   -3.3009    0.0000 C   0  0  0  0  0  0  0  0  0  0  0  0
   -6.2724   -2.0032    0.0000 C   0  0  0  0  0  0  0  0  0  0  0  0
   -7.7646   -1.8507    0.0000 H   0  0  0  0  0  0  0  0  0  0  0  0
   -5.2703   -0.8871    0.0000 C   0  0  0  0  0  0  0  0  0  0  0  0
   -5.5820    0.5801    0.0000 H   0  0  0  0  0  0  0  0  0  0  0  0
   -3.8989   -1.5002    0.0000 C   0  0  0  0  0  0  0  0  0  0  0  0
   -2.6000   -0.7500    0.0000 C   0  0  0  0  0  0  0  0  0  0  0  0
   -1.3000   -1.5000    0.0000 C   0  0  0  0  0  0  0  0  0  0  0  0
   -1.3000   -3.0000    0.0000 H   0  0  0  0  0  0  0  0  0  0  0  0
    0.0000   -0.7500    0.0000 C   0  0  0  0  0  0  0  0  0  0  0  0
    1.3000   -1.5000    0.0000 C   0  0  0  0  0  0  0  0  0  0  0  0
    2.6000   -0.7500    0.0000 N   0  0  0  0  0  0  0  0  0  0  0  0
    2.6000    0.7500    0.0000 C   0  0  0  0  0  0  0  0  0  0  0  0
    3.8989    1.5002    0.0000 H   0  0  0  0  0  0  0  0  0  0  0  0
    1.3000    1.5000    0.0000 N   0  0  0  0  0  0  0  0  0  0  0  0
    0.0000    0.7500    0.0000 C   0  0  0  0  0  0  0  0  0  0  0  0
   -1.3000    1.5000    0.0000 C   0  0  0  0  0  0  0  0  0  0  0  0
   -1.3000    3.0000    0.0000 H   0  0  0  0  0  0  0  0  0  0  0  0
   -2.6000    0.7500    0.0000 C   0  0  0  0  0  0  0  0  0  0  0  0
   -3.8989    1.5002    0.0000 H   0  0  0  0  0  0  0  0  0  0  0  0
    1.3000   -3.0000    0.0000 N   0  0  0  0  0  0  0  0  0  0  0  0
    0.0010   -3.7500    0.0000 H   0  0  0  0  0  0  0  0  0  0  0  0
    2.5990   -3.7500    0.0000 C   0  0  0  0  0  0  0  0  0  0  0  0
    3.8989   -2.9998    0.0000 C   0  0  0  0  0  0  0  0  0  0  0  0
    3.8987   -1.4998    0.0000 H   0  0  0  0  0  0  0  0  0  0  0  0
    5.1990   -3.7496    0.0000 C   0  0  0  0  0  0  0  0  0  0  0  0
    6.4978   -2.9992    0.0000 H   0  0  0  0  0  0  0  0  0  0  0  0
    5.1993   -5.2496    0.0000 C   0  0  0  0  0  0  0  0  0  0  0  0
    3.8994   -5.9998    0.0000 C   0  0  0  0  0  0  0  0  0  0  0  0
    2.5993   -5.2500    0.0000 C   0  0  0  0  0  0  0  0  0  0  0  0
    1.3005   -6.0004    0.0000 H   0  0  0  0  0  0  0  0  0  0  0  0
    3.8996   -7.4998    0.0000 Cl  0  0  0  0  0  0  0  0  0  0  0  0
    6.4983   -5.9996    0.0000 O   0  0  0  0  0  0  0  0  0  0  0  0
    7.7974   -5.2496    0.0000 C   0  0  0  0  0  0  0  0  0  0  0  0
    8.7615   -4.1005    0.0000 H   0  0  0  0  0  0  0  0  0  0  0  0
    6.8332   -4.1005    0.0000 H   0  0  0  0  0  0  0  0  0  0  0  0
    9.0964   -5.9996    0.0000 C   0  0  0  0  0  0  0  0  0  0  0  0
    9.0984   -7.4918    0.0000 C   0  0  0  0  0  0  0  0  0  0  0  0
    7.7993   -8.2416    0.0000 H   0  0  0  0  0  0  0  0  0  0  0  0
   10.3962   -8.2439    0.0000 C   0  0  0  0  0  0  0  0  0  0  0  0
   10.3914   -9.7439    0.0000 H   0  0  0  0  0  0  0  0  0  0  0  0
   11.6920   -7.5039    0.0000 C   0  0  0  0  0  0  0  0  0  0  0  0
   12.9885   -8.2583    0.0000 H   0  0  0  0  0  0  0  0  0  0  0  0
   11.6949   -6.0031    0.0000 C   0  0  0  0  0  0  0  0  0  0  0  0
   10.3972   -5.2509    0.0000 C   0  0  0  0  0  0  0  0  0  0  0  0
   10.3994   -3.7509    0.0000 H   0  0  0  0  0  0  0  0  0  0  0  0
   12.9954   -5.2555    0.0000 F   0  0  0  0  0  0  0  0  0  0  0  0
   -4.0525   -2.9885    0.0000 O   0  0  0  0  0  0  0  0  0  0  0  0
  1  2  1  0  0  0  0 
  1  3  1  0  0  0  0 
  1  4  1  0  0  0  0 
  1  5  1  0  0  0  0 
  5  6  2  0  0  0  0 
  5  7  2  0  0  0  0 
  5  8  1  0  0  0  0 
  8  9  1  0  0  0  0 
  8 10  1  0  0  0  0 
  8 11  1  0  0  0  0 
 11 12  1  0  0  0  0 
 11 13  1  0  0  0  0 
 11 14  1  0  0  0  0 
 14 15  1  4  0  0  0 
 14 16  2  0  0  0  0 
 16 17  1  0  0  0  0 
 16 18  1  0  0  0  0 
 18 19  2  0  0  0  0 
 19 20  1  0  0  0  0 
 19 21  1  0  0  0  0 
 21 22  1  0  0  0  0 
 21 23  2  0  0  0  0 
 23 24  1  0  0  0  0 
 24 25  2  0  0  0  0 
 25 26  1  0  0  0  0 
 25 27  1  0  0  0  0 
 27 28  2  0  0  0  0 
 28 29  1  0  0  0  0 
 29 30  2  0  0  0  0 
 30 31  1  0  0  0  0 
 30 32  1  0  0  0  0 
 32 33  2  0  0  0  0 
 27 33  1  0  0  0  0 
 33 34  1  0  0  0  0 
 34 35  1  0  0  0  0 
 34 36  2  0  0  0  0 
 24 36  1  0  0  0  0 
 36 37  1  0  0  0  0 
 28 38  1  0  0  0  0 
 38 39  1  0  0  0  0 
 38 40  1  0  0  0  0 
 40 41  2  0  0  0  0 
 41 42  1  0  0  0  0 
 41 43  1  0  0  0  0 
 43 44  1  0  0  0  0 
 43 45  2  0  0  0  0 
 45 46  1  0  0  0  0 
 46 47  2  0  0  0  0 
 40 47  1  0  0  0  0 
 47 48  1  0  0  0  0 
 46 49  1  0  0  0  0 
 45 50  1  0  0  0  0 
 50 51  1  0  0  0  0 
 51 52  1  0  0  0  0 
 51 53  1  0  0  0  0 
 51 54  1  0  0  0  0 
 54 55  2  0  0  0  0 
 55 56  1  0  0  0  0 
 55 57  1  0  0  0  0 
 57 58  1  0  0  0  0 
 57 59  2  0  0  0  0 
 59 60  1  0  0  0  0 
 59 61  1  0  0  0  0 
 61 62  2  0  0  0  0 
 54 62  1  0  0  0  0 
 62 63  1  0  0  0  0 
 61 64  1  0  0  0  0 
 23 65  1  0  0  0  0 
 18 65  1  0  0  0  0 
M  CHG  1  14   1
M  END
> <Rank>
31

> <Priority_score>
0.10640000000000001

> <Reaction_type>
dehydration of N-C bond

> <Parent_ID>
50

> <Parent_InChI>
InChI=1S/C29H26ClFN4O4S/c1-40(36,37)12-11-32-16-23-7-10-27(39-23)20-5-8-26-24(14-20)29(34-18-33-26)35-22-6-9-28(25(30)15-22)38-17-19-3-2-4-21(31)13-19/h2-10,13-15,18,32H,11-12,16-17H2,1H3,(H,33,34,35)

> <Parent_SMILES>
CS(=O)(=O)CCNCc1ccc(-c2ccc3ncnc(Nc4ccc(OCc5cccc(F)c5)c(Cl)c4)c3c2)o1

$$$$
Molecule 50_metabolite 32
  CDK     0516241031

 64 68  0  0  0  0  0  0  0  0999 V2000
  -11.8094   -7.8987    0.0000 C   0  0  0  0  0  0  0  0  0  0  0  0
  -12.6942   -6.6875    0.0000 H   0  0  0  0  0  0  0  0  0  0  0  0
  -11.3921   -9.3395    0.0000 H   0  0  0  0  0  0  0  0  0  0  0  0
  -13.1558   -8.5598    0.0000 H   0  0  0  0  0  0  0  0  0  0  0  0
  -10.3180   -7.7380    0.0000 S   0  0  0  0  0  0  0  0  0  0  0  0
  -10.4187   -9.2346    0.0000 O   0  0  0  0  0  0  0  0  0  0  0  0
   -8.8616   -8.0971    0.0000 O   0  0  0  0  0  0  0  0  0  0  0  0
   -9.5174   -5.9271    0.0000 C   0  0  0  0  0  0  0  0  0  0  0  0
   -9.4167   -4.4305    0.0000 H   0  0  0  0  0  0  0  0  0  0  0  0
  -10.9738   -5.5680    0.0000 H   0  0  0  0  0  0  0  0  0  0  0  0
   -8.0260   -5.7664    0.0000 C   0  0  0  0  0  0  0  0  0  0  0  0
   -8.1267   -7.2630    0.0000 H   0  0  0  0  0  0  0  0  0  0  0  0
   -6.5696   -6.1254    0.0000 H   0  0  0  0  0  0  0  0  0  0  0  0
   -7.4195   -4.3945    0.0000 N   0  0  0  0  0  0  0  0  0  0  0  0
   -5.9281   -4.2338    0.0000 C   0  0  0  0  0  0  0  0  0  0  0  0
   -5.0433   -5.4450    0.0000 H   0  0  0  0  0  0  0  0  0  0  0  0
   -5.3216   -2.8619    0.0000 C   0  0  0  0  0  0  0  0  0  0  0  0
   -6.0783   -1.5642    0.0000 C   0  0  0  0  0  0  0  0  0  0  0  0
   -7.5706   -1.4117    0.0000 H   0  0  0  0  0  0  0  0  0  0  0  0
   -5.0762   -0.4481    0.0000 C   0  0  0  0  0  0  0  0  0  0  0  0
   -5.3879    1.0192    0.0000 H   0  0  0  0  0  0  0  0  0  0  0  0
   -3.7048   -1.0612    0.0000 C   0  0  0  0  0  0  0  0  0  0  0  0
   -2.4059   -0.3110    0.0000 C   0  0  0  0  0  0  0  0  0  0  0  0
   -1.1059   -1.0610    0.0000 C   0  0  0  0  0  0  0  0  0  0  0  0
   -1.1059   -2.5610    0.0000 H   0  0  0  0  0  0  0  0  0  0  0  0
    0.1941   -0.3110    0.0000 C   0  0  0  0  0  0  0  0  0  0  0  0
    1.4941   -1.0610    0.0000 C   0  0  0  0  0  0  0  0  0  0  0  0
    2.7941   -0.3110    0.0000 N   0  0  0  0  0  0  0  0  0  0  0  0
    2.7941    1.1890    0.0000 C   0  0  0  0  0  0  0  0  0  0  0  0
    4.0930    1.9392    0.0000 H   0  0  0  0  0  0  0  0  0  0  0  0
    1.4941    1.9390    0.0000 N   0  0  0  0  0  0  0  0  0  0  0  0
    0.1941    1.1890    0.0000 C   0  0  0  0  0  0  0  0  0  0  0  0
   -1.1059    1.9390    0.0000 C   0  0  0  0  0  0  0  0  0  0  0  0
   -1.1059    3.4390    0.0000 H   0  0  0  0  0  0  0  0  0  0  0  0
   -2.4059    1.1890    0.0000 C   0  0  0  0  0  0  0  0  0  0  0  0
   -3.7048    1.9392    0.0000 H   0  0  0  0  0  0  0  0  0  0  0  0
    1.4941   -2.5610    0.0000 N   0  0  0  0  0  0  0  0  0  0  0  0
    0.1950   -3.3110    0.0000 H   0  0  0  0  0  0  0  0  0  0  0  0
    2.7931   -3.3110    0.0000 C   0  0  0  0  0  0  0  0  0  0  0  0
    4.0930   -2.5608    0.0000 C   0  0  0  0  0  0  0  0  0  0  0  0
    4.0928   -1.0608    0.0000 H   0  0  0  0  0  0  0  0  0  0  0  0
    5.3931   -3.3106    0.0000 C   0  0  0  0  0  0  0  0  0  0  0  0
    6.6919   -2.5602    0.0000 H   0  0  0  0  0  0  0  0  0  0  0  0
    5.3934   -4.8106    0.0000 C   0  0  0  0  0  0  0  0  0  0  0  0
    4.0935   -5.5608    0.0000 C   0  0  0  0  0  0  0  0  0  0  0  0
    2.7934   -4.8110    0.0000 C   0  0  0  0  0  0  0  0  0  0  0  0
    1.4946   -5.5614    0.0000 H   0  0  0  0  0  0  0  0  0  0  0  0
    4.0937   -7.0608    0.0000 Cl  0  0  0  0  0  0  0  0  0  0  0  0
    6.6924   -5.5606    0.0000 O   0  0  0  0  0  0  0  0  0  0  0  0
    7.9914   -4.8106    0.0000 C   0  0  0  0  0  0  0  0  0  0  0  0
    8.9556   -3.6615    0.0000 H   0  0  0  0  0  0  0  0  0  0  0  0
    7.0273   -3.6615    0.0000 H   0  0  0  0  0  0  0  0  0  0  0  0
    9.2905   -5.5606    0.0000 C   0  0  0  0  0  0  0  0  0  0  0  0
    9.2925   -7.0528    0.0000 C   0  0  0  0  0  0  0  0  0  0  0  0
    7.9933   -7.8025    0.0000 H   0  0  0  0  0  0  0  0  0  0  0  0
   10.5903   -7.8049    0.0000 C   0  0  0  0  0  0  0  0  0  0  0  0
   10.5855   -9.3049    0.0000 H   0  0  0  0  0  0  0  0  0  0  0  0
   11.8860   -7.0649    0.0000 C   0  0  0  0  0  0  0  0  0  0  0  0
   13.1826   -7.8193    0.0000 H   0  0  0  0  0  0  0  0  0  0  0  0
   11.8890   -5.5641    0.0000 C   0  0  0  0  0  0  0  0  0  0  0  0
   10.5913   -4.8119    0.0000 C   0  0  0  0  0  0  0  0  0  0  0  0
   10.5935   -3.3119    0.0000 H   0  0  0  0  0  0  0  0  0  0  0  0
   13.1894   -4.8165    0.0000 F   0  0  0  0  0  0  0  0  0  0  0  0
   -3.8584   -2.5495    0.0000 O   0  0  0  0  0  0  0  0  0  0  0  0
  1  2  1  0  0  0  0 
  1  3  1  0  0  0  0 
  1  4  1  0  0  0  0 
  1  5  1  0  0  0  0 
  5  6  2  0  0  0  0 
  5  7  2  0  0  0  0 
  5  8  1  0  0  0  0 
  8  9  1  0  0  0  0 
  8 10  1  0  0  0  0 
  8 11  1  0  0  0  0 
 11 12  1  0  0  0  0 
 11 13  1  0  0  0  0 
 11 14  1  0  0  0  0 
 14 15  2  0  0  0  0 
 15 16  1  4  0  0  0 
 15 17  1  0  0  0  0 
 17 18  2  0  0  0  0 
 18 19  1  0  0  0  0 
 18 20  1  0  0  0  0 
 20 21  1  0  0  0  0 
 20 22  2  0  0  0  0 
 22 23  1  0  0  0  0 
 23 24  2  0  0  0  0 
 24 25  1  0  0  0  0 
 24 26  1  0  0  0  0 
 26 27  2  0  0  0  0 
 27 28  1  0  0  0  0 
 28 29  2  0  0  0  0 
 29 30  1  0  0  0  0 
 29 31  1  0  0  0  0 
 31 32  2  0  0  0  0 
 26 32  1  0  0  0  0 
 32 33  1  0  0  0  0 
 33 34  1  0  0  0  0 
 33 35  2  0  0  0  0 
 23 35  1  0  0  0  0 
 35 36  1  0  0  0  0 
 27 37  1  0  0  0  0 
 37 38  1  0  0  0  0 
 37 39  1  0  0  0  0 
 39 40  2  0  0  0  0 
 40 41  1  0  0  0  0 
 40 42  1  0  0  0  0 
 42 43  1  0  0  0  0 
 42 44  2  0  0  0  0 
 44 45  1  0  0  0  0 
 45 46  2  0  0  0  0 
 39 46  1  0  0  0  0 
 46 47  1  0  0  0  0 
 45 48  1  0  0  0  0 
 44 49  1  0  0  0  0 
 49 50  1  0  0  0  0 
 50 51  1  0  0  0  0 
 50 52  1  0  0  0  0 
 50 53  1  0  0  0  0 
 53 54  2  0  0  0  0 
 54 55  1  0  0  0  0 
 54 56  1  0  0  0  0 
 56 57  1  0  0  0  0 
 56 58  2  0  0  0  0 
 58 59  1  0  0  0  0 
 58 60  1  0  0  0  0 
 60 61  2  0  0  0  0 
 53 61  1  0  0  0  0 
 61 62  1  0  0  0  0 
 60 63  1  0  0  0  0 
 22 64  1  0  0  0  0 
 17 64  1  0  0  0  0 
M  END
> <Rank>
31

> <Priority_score>
0.10640000000000001

> <Reaction_type>
dehydration of N-C bond

> <Parent_ID>
50

> <Parent_InChI>
InChI=1S/C29H26ClFN4O4S/c1-40(36,37)12-11-32-16-23-7-10-27(39-23)20-5-8-26-24(14-20)29(34-18-33-26)35-22-6-9-28(25(30)15-22)38-17-19-3-2-4-21(31)13-19/h2-10,13-15,18,32H,11-12,16-17H2,1H3,(H,33,34,35)

> <Parent_SMILES>
CS(=O)(=O)CCNCc1ccc(-c2ccc3ncnc(Nc4ccc(OCc5cccc(F)c5)c(Cl)c4)c3c2)o1

$$$$
Molecule 50_metabolite 33
  CDK     0516241031

 67 71  0  0  0  0  0  0  0  0999 V2000
  -12.2866   -7.9501    0.0000 C   0  0  0  0  0  0  0  0  0  0  0  0
  -13.1715   -6.7389    0.0000 H   0  0  0  0  0  0  0  0  0  0  0  0
  -11.8694   -9.3909    0.0000 H   0  0  0  0  0  0  0  0  0  0  0  0
  -13.6331   -8.6112    0.0000 H   0  0  0  0  0  0  0  0  0  0  0  0
  -10.7952   -7.7894    0.0000 S   0  0  0  0  0  0  0  0  0  0  0  0
  -10.8960   -9.2860    0.0000 O   0  0  0  0  0  0  0  0  0  0  0  0
   -9.3388   -8.1485    0.0000 O   0  0  0  0  0  0  0  0  0  0  0  0
  -10.1887   -6.4175    0.0000 C   0  0  0  0  0  0  0  0  0  0  0  0
  -10.0880   -4.9209    0.0000 H   0  0  0  0  0  0  0  0  0  0  0  0
  -11.6451   -6.0584    0.0000 H   0  0  0  0  0  0  0  0  0  0  0  0
   -8.2201   -6.2054    0.0000 C   0  0  0  0  0  0  0  0  0  0  0  0
   -8.3208   -7.7020    0.0000 H   0  0  0  0  0  0  0  0  0  0  0  0
   -6.7637   -6.5645    0.0000 H   0  0  0  0  0  0  0  0  0  0  0  0
   -7.6136   -4.8335    0.0000 N   0  0  0  0  0  0  0  0  0  0  0  0
   -8.4985   -3.6223    0.0000 H   0  0  0  0  0  0  0  0  0  0  0  0
   -5.6450   -4.6214    0.0000 C   0  0  0  0  0  0  0  0  0  0  0  0
   -5.7457   -6.1180    0.0000 H   0  0  0  0  0  0  0  0  0  0  0  0
   -4.1886   -4.9804    0.0000 H   0  0  0  0  0  0  0  0  0  0  0  0
   -5.0385   -3.2494    0.0000 C   0  0  0  0  0  0  0  0  0  0  0  0
   -5.7952   -1.9518    0.0000 C   0  0  0  0  0  0  0  0  0  0  0  0
   -7.2874   -1.7993    0.0000 H   0  0  0  0  0  0  0  0  0  0  0  0
   -4.7930   -0.8357    0.0000 C   0  0  0  0  0  0  0  0  0  0  0  0
   -5.1048    0.6316    0.0000 H   0  0  0  0  0  0  0  0  0  0  0  0
   -3.4217   -1.4488    0.0000 C   0  0  0  0  0  0  0  0  0  0  0  0
   -2.1228   -0.6986    0.0000 C   0  0  0  0  0  0  0  0  0  0  0  0
   -0.8228   -1.4486    0.0000 C   0  0  0  0  0  0  0  0  0  0  0  0
   -0.8228   -2.9486    0.0000 H   0  0  0  0  0  0  0  0  0  0  0  0
    0.4772   -0.6986    0.0000 C   0  0  0  0  0  0  0  0  0  0  0  0
    1.7772   -1.4486    0.0000 C   0  0  0  0  0  0  0  0  0  0  0  0
    3.0772   -0.6986    0.0000 N   0  0  0  0  0  0  0  0  0  0  0  0
    3.0772    0.8014    0.0000 C   0  0  0  0  0  0  0  0  0  0  0  0
    4.3762    1.5516    0.0000 H   0  0  0  0  0  0  0  0  0  0  0  0
    1.7772    1.5514    0.0000 N   0  0  0  0  0  0  0  0  0  0  0  0
    0.4772    0.8014    0.0000 C   0  0  0  0  0  0  0  0  0  0  0  0
   -0.8228    1.5514    0.0000 C   0  0  0  0  0  0  0  0  0  0  0  0
   -0.8228    3.0514    0.0000 H   0  0  0  0  0  0  0  0  0  0  0  0
   -2.1228    0.8014    0.0000 C   0  0  0  0  0  0  0  0  0  0  0  0
   -3.4217    1.5516    0.0000 H   0  0  0  0  0  0  0  0  0  0  0  0
    1.7772   -2.9486    0.0000 N   0  0  0  0  0  0  0  0  0  0  0  0
    0.4782   -3.6986    0.0000 H   0  0  0  0  0  0  0  0  0  0  0  0
    3.0763   -3.6986    0.0000 C   0  0  0  0  0  0  0  0  0  0  0  0
    4.3762   -2.9484    0.0000 C   0  0  0  0  0  0  0  0  0  0  0  0
    4.3759   -1.4484    0.0000 H   0  0  0  0  0  0  0  0  0  0  0  0
    5.6763   -3.6982    0.0000 C   0  0  0  0  0  0  0  0  0  0  0  0
    6.9751   -2.9477    0.0000 H   0  0  0  0  0  0  0  0  0  0  0  0
    5.6765   -5.1982    0.0000 C   0  0  0  0  0  0  0  0  0  0  0  0
    4.3766   -5.9484    0.0000 C   0  0  0  0  0  0  0  0  0  0  0  0
    3.0765   -5.1986    0.0000 C   0  0  0  0  0  0  0  0  0  0  0  0
    1.7777   -5.9490    0.0000 O   0  0  0  0  0  0  0  0  0  0  0  0
    1.7782   -7.4490    0.0000 H   0  0  0  0  0  0  0  0  0  0  0  0
    4.3769   -7.4484    0.0000 Cl  0  0  0  0  0  0  0  0  0  0  0  0
    6.9756   -5.9482    0.0000 O   0  0  0  0  0  0  0  0  0  0  0  0
    8.2746   -5.1982    0.0000 C   0  0  0  0  0  0  0  0  0  0  0  0
    9.2388   -4.0491    0.0000 H   0  0  0  0  0  0  0  0  0  0  0  0
    7.3104   -4.0491    0.0000 H   0  0  0  0  0  0  0  0  0  0  0  0
    9.5736   -5.9482    0.0000 C   0  0  0  0  0  0  0  0  0  0  0  0
    9.5757   -7.4403    0.0000 C   0  0  0  0  0  0  0  0  0  0  0  0
    8.2765   -8.1901    0.0000 H   0  0  0  0  0  0  0  0  0  0  0  0
   10.8734   -8.1925    0.0000 C   0  0  0  0  0  0  0  0  0  0  0  0
   10.8686   -9.6925    0.0000 H   0  0  0  0  0  0  0  0  0  0  0  0
   12.1692   -7.4525    0.0000 C   0  0  0  0  0  0  0  0  0  0  0  0
   13.4657   -8.2069    0.0000 H   0  0  0  0  0  0  0  0  0  0  0  0
   12.1722   -5.9517    0.0000 C   0  0  0  0  0  0  0  0  0  0  0  0
   10.8744   -5.1995    0.0000 C   0  0  0  0  0  0  0  0  0  0  0  0
   10.8767   -3.6995    0.0000 H   0  0  0  0  0  0  0  0  0  0  0  0
   13.4726   -5.2041    0.0000 F   0  0  0  0  0  0  0  0  0  0  0  0
   -3.5753   -2.9370    0.0000 O   0  0  0  0  0  0  0  0  0  0  0  0
  1  2  1  0  0  0  0 
  1  3  1  0  0  0  0 
  1  4  1  0  0  0  0 
  1  5  1  0  0  0  0 
  5  6  2  0  0  0  0 
  5  7  2  0  0  0  0 
  5  8  1  0  0  0  0 
  8  9  1  0  0  0  0 
  8 10  1  0  0  0  0 
  8 11  1  0  0  0  0 
 11 12  1  0  0  0  0 
 11 13  1  0  0  0  0 
 11 14  1  0  0  0  0 
 14 15  1  0  0  0  0 
 14 16  1  0  0  0  0 
 16 17  1  0  0  0  0 
 16 18  1  0  0  0  0 
 16 19  1  0  0  0  0 
 19 20  2  0  0  0  0 
 20 21  1  0  0  0  0 
 20 22  1  0  0  0  0 
 22 23  1  0  0  0  0 
 22 24  2  0  0  0  0 
 24 25  1  0  0  0  0 
 25 26  2  0  0  0  0 
 26 27  1  0  0  0  0 
 26 28  1  0  0  0  0 
 28 29  2  0  0  0  0 
 29 30  1  0  0  0  0 
 30 31  2  0  0  0  0 
 31 32  1  0  0  0  0 
 31 33  1  0  0  0  0 
 33 34  2  0  0  0  0 
 28 34  1  0  0  0  0 
 34 35  1  0  0  0  0 
 35 36  1  0  0  0  0 
 35 37  2  0  0  0  0 
 25 37  1  0  0  0  0 
 37 38  1  0  0  0  0 
 29 39  1  0  0  0  0 
 39 40  1  0  0  0  0 
 39 41  1  0  0  0  0 
 41 42  2  0  0  0  0 
 42 43  1  0  0  0  0 
 42 44  1  0  0  0  0 
 44 45  1  0  0  0  0 
 44 46  2  0  0  0  0 
 46 47  1  0  0  0  0 
 47 48  2  0  0  0  0 
 41 48  1  0  0  0  0 
 48 49  1  0  0  0  0 
 49 50  1  0  0  0  0 
 47 51  1  0  0  0  0 
 46 52  1  0  0  0  0 
 52 53  1  0  0  0  0 
 53 54  1  0  0  0  0 
 53 55  1  0  0  0  0 
 53 56  1  0  0  0  0 
 56 57  2  0  0  0  0 
 57 58  1  0  0  0  0 
 57 59  1  0  0  0  0 
 59 60  1  0  0  0  0 
 59 61  2  0  0  0  0 
 61 62  1  0  0  0  0 
 61 63  1  0  0  0  0 
 63 64  2  0  0  0  0 
 56 64  1  0  0  0  0 
 64 65  1  0  0  0  0 
 63 66  1  0  0  0  0 
 24 67  1  0  0  0  0 
 19 67  1  0  0  0  0 
M  END
> <Rank>
33

> <Priority_score>
0.104

> <Reaction_type>
aromatic_hydroxylation_(ortho_to_nitrogen)

> <Parent_ID>
50

> <Parent_InChI>
InChI=1S/C29H26ClFN4O4S/c1-40(36,37)12-11-32-16-23-7-10-27(39-23)20-5-8-26-24(14-20)29(34-18-33-26)35-22-6-9-28(25(30)15-22)38-17-19-3-2-4-21(31)13-19/h2-10,13-15,18,32H,11-12,16-17H2,1H3,(H,33,34,35)

> <Parent_SMILES>
CS(=O)(=O)CCNCc1ccc(-c2ccc3ncnc(Nc4ccc(OCc5cccc(F)c5)c(Cl)c4)c3c2)o1

$$$$
Molecule 50_metabolite 34
  CDK     0516241031

 67 71  0  0  0  0  0  0  0  0999 V2000
  -12.2866   -7.9501    0.0000 C   0  0  0  0  0  0  0  0  0  0  0  0
  -13.1715   -6.7389    0.0000 H   0  0  0  0  0  0  0  0  0  0  0  0
  -11.8694   -9.3909    0.0000 H   0  0  0  0  0  0  0  0  0  0  0  0
  -13.6331   -8.6112    0.0000 H   0  0  0  0  0  0  0  0  0  0  0  0
  -10.7952   -7.7894    0.0000 S   0  0  0  0  0  0  0  0  0  0  0  0
  -10.8960   -9.2860    0.0000 O   0  0  0  0  0  0  0  0  0  0  0  0
   -9.3388   -8.1485    0.0000 O   0  0  0  0  0  0  0  0  0  0  0  0
  -10.1887   -6.4175    0.0000 C   0  0  0  0  0  0  0  0  0  0  0  0
  -10.0880   -4.9209    0.0000 H   0  0  0  0  0  0  0  0  0  0  0  0
  -11.6451   -6.0584    0.0000 H   0  0  0  0  0  0  0  0  0  0  0  0
   -8.2201   -6.2054    0.0000 C   0  0  0  0  0  0  0  0  0  0  0  0
   -8.3208   -7.7020    0.0000 H   0  0  0  0  0  0  0  0  0  0  0  0
   -6.7637   -6.5645    0.0000 H   0  0  0  0  0  0  0  0  0  0  0  0
   -7.6136   -4.8335    0.0000 N   0  0  0  0  0  0  0  0  0  0  0  0
   -8.4985   -3.6223    0.0000 H   0  0  0  0  0  0  0  0  0  0  0  0
   -5.6450   -4.6214    0.0000 C   0  0  0  0  0  0  0  0  0  0  0  0
   -5.7457   -6.1180    0.0000 H   0  0  0  0  0  0  0  0  0  0  0  0
   -4.1886   -4.9804    0.0000 H   0  0  0  0  0  0  0  0  0  0  0  0
   -5.0385   -3.2494    0.0000 C   0  0  0  0  0  0  0  0  0  0  0  0
   -5.7952   -1.9518    0.0000 C   0  0  0  0  0  0  0  0  0  0  0  0
   -7.2874   -1.7993    0.0000 H   0  0  0  0  0  0  0  0  0  0  0  0
   -4.7930   -0.8357    0.0000 C   0  0  0  0  0  0  0  0  0  0  0  0
   -5.1048    0.6316    0.0000 H   0  0  0  0  0  0  0  0  0  0  0  0
   -3.4217   -1.4488    0.0000 C   0  0  0  0  0  0  0  0  0  0  0  0
   -2.1228   -0.6986    0.0000 C   0  0  0  0  0  0  0  0  0  0  0  0
   -0.8228   -1.4486    0.0000 C   0  0  0  0  0  0  0  0  0  0  0  0
   -0.8228   -2.9486    0.0000 H   0  0  0  0  0  0  0  0  0  0  0  0
    0.4772   -0.6986    0.0000 C   0  0  0  0  0  0  0  0  0  0  0  0
    1.7772   -1.4486    0.0000 C   0  0  0  0  0  0  0  0  0  0  0  0
    3.0772   -0.6986    0.0000 N   0  0  0  0  0  0  0  0  0  0  0  0
    3.0772    0.8014    0.0000 C   0  0  0  0  0  0  0  0  0  0  0  0
    4.3762    1.5516    0.0000 H   0  0  0  0  0  0  0  0  0  0  0  0
    1.7772    1.5514    0.0000 N   0  0  0  0  0  0  0  0  0  0  0  0
    0.4772    0.8014    0.0000 C   0  0  0  0  0  0  0  0  0  0  0  0
   -0.8228    1.5514    0.0000 C   0  0  0  0  0  0  0  0  0  0  0  0
   -0.8228    3.0514    0.0000 H   0  0  0  0  0  0  0  0  0  0  0  0
   -2.1228    0.8014    0.0000 C   0  0  0  0  0  0  0  0  0  0  0  0
   -3.4217    1.5516    0.0000 H   0  0  0  0  0  0  0  0  0  0  0  0
    1.7772   -2.9486    0.0000 N   0  0  0  0  0  0  0  0  0  0  0  0
    0.4782   -3.6986    0.0000 H   0  0  0  0  0  0  0  0  0  0  0  0
    3.0763   -3.6986    0.0000 C   0  0  0  0  0  0  0  0  0  0  0  0
    4.3762   -2.9484    0.0000 C   0  0  0  0  0  0  0  0  0  0  0  0
    4.3759   -1.4484    0.0000 H   0  0  0  0  0  0  0  0  0  0  0  0
    5.6763   -3.6982    0.0000 C   0  0  0  0  0  0  0  0  0  0  0  0
    5.6765   -5.1982    0.0000 C   0  0  0  0  0  0  0  0  0  0  0  0
    4.3766   -5.9484    0.0000 C   0  0  0  0  0  0  0  0  0  0  0  0
    4.3769   -7.4484    0.0000 H   0  0  0  0  0  0  0  0  0  0  0  0
    3.0765   -5.1986    0.0000 C   0  0  0  0  0  0  0  0  0  0  0  0
    1.7777   -5.9490    0.0000 O   0  0  0  0  0  0  0  0  0  0  0  0
    1.7782   -7.4490    0.0000 H   0  0  0  0  0  0  0  0  0  0  0  0
    6.9756   -5.9482    0.0000 O   0  0  0  0  0  0  0  0  0  0  0  0
    8.2746   -5.1982    0.0000 C   0  0  0  0  0  0  0  0  0  0  0  0
    9.2388   -4.0491    0.0000 H   0  0  0  0  0  0  0  0  0  0  0  0
    7.3104   -4.0491    0.0000 H   0  0  0  0  0  0  0  0  0  0  0  0
    9.5736   -5.9482    0.0000 C   0  0  0  0  0  0  0  0  0  0  0  0
    9.5757   -7.4403    0.0000 C   0  0  0  0  0  0  0  0  0  0  0  0
    8.2765   -8.1901    0.0000 H   0  0  0  0  0  0  0  0  0  0  0  0
   10.8734   -8.1925    0.0000 C   0  0  0  0  0  0  0  0  0  0  0  0
   10.8686   -9.6925    0.0000 H   0  0  0  0  0  0  0  0  0  0  0  0
   12.1692   -7.4525    0.0000 C   0  0  0  0  0  0  0  0  0  0  0  0
   13.4657   -8.2069    0.0000 H   0  0  0  0  0  0  0  0  0  0  0  0
   12.1722   -5.9517    0.0000 C   0  0  0  0  0  0  0  0  0  0  0  0
   10.8744   -5.1995    0.0000 C   0  0  0  0  0  0  0  0  0  0  0  0
   10.8767   -3.6995    0.0000 H   0  0  0  0  0  0  0  0  0  0  0  0
   13.4726   -5.2041    0.0000 F   0  0  0  0  0  0  0  0  0  0  0  0
    6.9751   -2.9477    0.0000 Cl  0  0  0  0  0  0  0  0  0  0  0  0
   -3.5753   -2.9370    0.0000 O   0  0  0  0  0  0  0  0  0  0  0  0
  1  2  1  0  0  0  0 
  1  3  1  0  0  0  0 
  1  4  1  0  0  0  0 
  1  5  1  0  0  0  0 
  5  6  2  0  0  0  0 
  5  7  2  0  0  0  0 
  5  8  1  0  0  0  0 
  8  9  1  0  0  0  0 
  8 10  1  0  0  0  0 
  8 11  1  0  0  0  0 
 11 12  1  0  0  0  0 
 11 13  1  0  0  0  0 
 11 14  1  0  0  0  0 
 14 15  1  0  0  0  0 
 14 16  1  0  0  0  0 
 16 17  1  0  0  0  0 
 16 18  1  0  0  0  0 
 16 19  1  0  0  0  0 
 19 20  2  0  0  0  0 
 20 21  1  0  0  0  0 
 20 22  1  0  0  0  0 
 22 23  1  0  0  0  0 
 22 24  2  0  0  0  0 
 24 25  1  0  0  0  0 
 25 26  2  0  0  0  0 
 26 27  1  0  0  0  0 
 26 28  1  0  0  0  0 
 28 29  2  0  0  0  0 
 29 30  1  0  0  0  0 
 30 31  2  0  0  0  0 
 31 32  1  0  0  0  0 
 31 33  1  0  0  0  0 
 33 34  2  0  0  0  0 
 28 34  1  0  0  0  0 
 34 35  1  0  0  0  0 
 35 36  1  0  0  0  0 
 35 37  2  0  0  0  0 
 25 37  1  0  0  0  0 
 37 38  1  0  0  0  0 
 29 39  1  0  0  0  0 
 39 40  1  0  0  0  0 
 39 41  1  0  0  0  0 
 41 42  2  0  0  0  0 
 42 43  1  0  0  0  0 
 42 44  1  0  0  0  0 
 44 45  2  0  0  0  0 
 45 46  1  0  0  0  0 
 46 47  1  0  0  0  0 
 46 48  2  0  0  0  0 
 41 48  1  0  0  0  0 
 48 49  1  0  0  0  0 
 49 50  1  0  0  0  0 
 45 51  1  0  0  0  0 
 51 52  1  0  0  0  0 
 52 53  1  0  0  0  0 
 52 54  1  0  0  0  0 
 52 55  1  0  0  0  0 
 55 56  2  0  0  0  0 
 56 57  1  0  0  0  0 
 56 58  1  0  0  0  0 
 58 59  1  0  0  0  0 
 58 60  2  0  0  0  0 
 60 61  1  0  0  0  0 
 60 62  1  0  0  0  0 
 62 63  2  0  0  0  0 
 55 63  1  0  0  0  0 
 63 64  1  0  0  0  0 
 62 65  1  0  0  0  0 
 44 66  1  0  0  0  0 
 24 67  1  0  0  0  0 
 19 67  1  0  0  0  0 
M  END
> <Rank>
33

> <Priority_score>
0.104

> <Reaction_type>
aromatic_hydroxylation_(ortho_to_nitrogen)

> <Parent_ID>
50

> <Parent_InChI>
InChI=1S/C29H26ClFN4O4S/c1-40(36,37)12-11-32-16-23-7-10-27(39-23)20-5-8-26-24(14-20)29(34-18-33-26)35-22-6-9-28(25(30)15-22)38-17-19-3-2-4-21(31)13-19/h2-10,13-15,18,32H,11-12,16-17H2,1H3,(H,33,34,35)

> <Parent_SMILES>
CS(=O)(=O)CCNCc1ccc(-c2ccc3ncnc(Nc4ccc(OCc5cccc(F)c5)c(Cl)c4)c3c2)o1

$$$$
Molecule 50_metabolite 35
  CDK     0516241031

 67 71  0  0  0  0  0  0  0  0999 V2000
  -12.2866   -7.9501    0.0000 C   0  0  0  0  0  0  0  0  0  0  0  0
  -13.1715   -6.7389    0.0000 H   0  0  0  0  0  0  0  0  0  0  0  0
  -11.8694   -9.3909    0.0000 H   0  0  0  0  0  0  0  0  0  0  0  0
  -13.6331   -8.6112    0.0000 H   0  0  0  0  0  0  0  0  0  0  0  0
  -10.7952   -7.7894    0.0000 S   0  0  0  0  0  0  0  0  0  0  0  0
  -10.8960   -9.2860    0.0000 O   0  0  0  0  0  0  0  0  0  0  0  0
   -9.3388   -8.1485    0.0000 O   0  0  0  0  0  0  0  0  0  0  0  0
  -10.1887   -6.4175    0.0000 C   0  0  0  0  0  0  0  0  0  0  0  0
  -10.0880   -4.9209    0.0000 H   0  0  0  0  0  0  0  0  0  0  0  0
  -11.6451   -6.0584    0.0000 H   0  0  0  0  0  0  0  0  0  0  0  0
   -8.2201   -6.2054    0.0000 C   0  0  0  0  0  0  0  0  0  0  0  0
   -8.3208   -7.7020    0.0000 H   0  0  0  0  0  0  0  0  0  0  0  0
   -6.7637   -6.5645    0.0000 H   0  0  0  0  0  0  0  0  0  0  0  0
   -7.6136   -4.8335    0.0000 N   0  0  0  0  0  0  0  0  0  0  0  0
   -8.4985   -3.6223    0.0000 H   0  0  0  0  0  0  0  0  0  0  0  0
   -5.6450   -4.6214    0.0000 C   0  0  0  0  0  0  0  0  0  0  0  0
   -5.7457   -6.1180    0.0000 H   0  0  0  0  0  0  0  0  0  0  0  0
   -4.1886   -4.9804    0.0000 H   0  0  0  0  0  0  0  0  0  0  0  0
   -5.0385   -3.2494    0.0000 C   0  0  0  0  0  0  0  0  0  0  0  0
   -5.7952   -1.9518    0.0000 C   0  0  0  0  0  0  0  0  0  0  0  0
   -7.2874   -1.7993    0.0000 H   0  0  0  0  0  0  0  0  0  0  0  0
   -4.7930   -0.8357    0.0000 C   0  0  0  0  0  0  0  0  0  0  0  0
   -5.1048    0.6316    0.0000 H   0  0  0  0  0  0  0  0  0  0  0  0
   -3.4217   -1.4488    0.0000 C   0  0  0  0  0  0  0  0  0  0  0  0
   -2.1228   -0.6986    0.0000 C   0  0  0  0  0  0  0  0  0  0  0  0
   -0.8228   -1.4486    0.0000 C   0  0  0  0  0  0  0  0  0  0  0  0
   -0.8228   -2.9486    0.0000 H   0  0  0  0  0  0  0  0  0  0  0  0
    0.4772   -0.6986    0.0000 C   0  0  0  0  0  0  0  0  0  0  0  0
    1.7772   -1.4486    0.0000 C   0  0  0  0  0  0  0  0  0  0  0  0
    3.0772   -0.6986    0.0000 N   0  0  0  0  0  0  0  0  0  0  0  0
    3.0772    0.8014    0.0000 C   0  0  0  0  0  0  0  0  0  0  0  0
    4.3762    1.5516    0.0000 H   0  0  0  0  0  0  0  0  0  0  0  0
    1.7772    1.5514    0.0000 N   0  0  0  0  0  0  0  0  0  0  0  0
    0.4772    0.8014    0.0000 C   0  0  0  0  0  0  0  0  0  0  0  0
   -0.8228    1.5514    0.0000 C   0  0  0  0  0  0  0  0  0  0  0  0
   -0.8228    3.0514    0.0000 H   0  0  0  0  0  0  0  0  0  0  0  0
   -2.1228    0.8014    0.0000 C   0  0  0  0  0  0  0  0  0  0  0  0
   -3.4217    1.5516    0.0000 H   0  0  0  0  0  0  0  0  0  0  0  0
    1.7772   -2.9486    0.0000 N   0  0  0  0  0  0  0  0  0  0  0  0
    3.0763   -3.6986    0.0000 C   0  0  0  0  0  0  0  0  0  0  0  0
    4.3762   -2.9484    0.0000 C   0  0  0  0  0  0  0  0  0  0  0  0
    4.3759   -1.4484    0.0000 H   0  0  0  0  0  0  0  0  0  0  0  0
    5.6763   -3.6982    0.0000 C   0  0  0  0  0  0  0  0  0  0  0  0
    6.9751   -2.9477    0.0000 H   0  0  0  0  0  0  0  0  0  0  0  0
    5.6765   -5.1982    0.0000 C   0  0  0  0  0  0  0  0  0  0  0  0
    4.3766   -5.9484    0.0000 C   0  0  0  0  0  0  0  0  0  0  0  0
    3.0765   -5.1986    0.0000 C   0  0  0  0  0  0  0  0  0  0  0  0
    1.7777   -5.9490    0.0000 H   0  0  0  0  0  0  0  0  0  0  0  0
    4.3769   -7.4484    0.0000 Cl  0  0  0  0  0  0  0  0  0  0  0  0
    6.9756   -5.9482    0.0000 O   0  0  0  0  0  0  0  0  0  0  0  0
    8.2746   -5.1982    0.0000 C   0  0  0  0  0  0  0  0  0  0  0  0
    9.2388   -4.0491    0.0000 H   0  0  0  0  0  0  0  0  0  0  0  0
    7.3104   -4.0491    0.0000 H   0  0  0  0  0  0  0  0  0  0  0  0
    9.5736   -5.9482    0.0000 C   0  0  0  0  0  0  0  0  0  0  0  0
    9.5757   -7.4403    0.0000 C   0  0  0  0  0  0  0  0  0  0  0  0
    8.2765   -8.1901    0.0000 H   0  0  0  0  0  0  0  0  0  0  0  0
   10.8734   -8.1925    0.0000 C   0  0  0  0  0  0  0  0  0  0  0  0
   10.8686   -9.6925    0.0000 H   0  0  0  0  0  0  0  0  0  0  0  0
   12.1692   -7.4525    0.0000 C   0  0  0  0  0  0  0  0  0  0  0  0
   13.4657   -8.2069    0.0000 H   0  0  0  0  0  0  0  0  0  0  0  0
   12.1722   -5.9517    0.0000 C   0  0  0  0  0  0  0  0  0  0  0  0
   10.8744   -5.1995    0.0000 C   0  0  0  0  0  0  0  0  0  0  0  0
   10.8767   -3.6995    0.0000 H   0  0  0  0  0  0  0  0  0  0  0  0
   13.4726   -5.2041    0.0000 F   0  0  0  0  0  0  0  0  0  0  0  0
    0.4782   -3.6986    0.0000 O   0  0  0  0  0  0  0  0  0  0  0  0
    0.4782   -5.1986    0.0000 H   0  0  0  0  0  0  0  0  0  0  0  0
   -3.5753   -2.9370    0.0000 O   0  0  0  0  0  0  0  0  0  0  0  0
  1  2  1  0  0  0  0 
  1  3  1  0  0  0  0 
  1  4  1  0  0  0  0 
  1  5  1  0  0  0  0 
  5  6  2  0  0  0  0 
  5  7  2  0  0  0  0 
  5  8  1  0  0  0  0 
  8  9  1  0  0  0  0 
  8 10  1  0  0  0  0 
  8 11  1  0  0  0  0 
 11 12  1  0  0  0  0 
 11 13  1  0  0  0  0 
 11 14  1  0  0  0  0 
 14 15  1  0  0  0  0 
 14 16  1  0  0  0  0 
 16 17  1  0  0  0  0 
 16 18  1  0  0  0  0 
 16 19  1  0  0  0  0 
 19 20  2  0  0  0  0 
 20 21  1  0  0  0  0 
 20 22  1  0  0  0  0 
 22 23  1  0  0  0  0 
 22 24  2  0  0  0  0 
 24 25  1  0  0  0  0 
 25 26  2  0  0  0  0 
 26 27  1  0  0  0  0 
 26 28  1  0  0  0  0 
 28 29  2  0  0  0  0 
 29 30  1  0  0  0  0 
 30 31  2  0  0  0  0 
 31 32  1  0  0  0  0 
 31 33  1  0  0  0  0 
 33 34  2  0  0  0  0 
 28 34  1  0  0  0  0 
 34 35  1  0  0  0  0 
 35 36  1  0  0  0  0 
 35 37  2  0  0  0  0 
 25 37  1  0  0  0  0 
 37 38  1  0  0  0  0 
 29 39  1  0  0  0  0 
 39 40  1  0  0  0  0 
 40 41  2  0  0  0  0 
 41 42  1  0  0  0  0 
 41 43  1  0  0  0  0 
 43 44  1  0  0  0  0 
 43 45  2  0  0  0  0 
 45 46  1  0  0  0  0 
 46 47  2  0  0  0  0 
 40 47  1  0  0  0  0 
 47 48  1  0  0  0  0 
 46 49  1  0  0  0  0 
 45 50  1  0  0  0  0 
 50 51  1  0  0  0  0 
 51 52  1  0  0  0  0 
 51 53  1  0  0  0  0 
 51 54  1  0  0  0  0 
 54 55  2  0  0  0  0 
 55 56  1  0  0  0  0 
 55 57  1  0  0  0  0 
 57 58  1  0  0  0  0 
 57 59  2  0  0  0  0 
 59 60  1  0  0  0  0 
 59 61  1  0  0  0  0 
 61 62  2  0  0  0  0 
 54 62  1  0  0  0  0 
 62 63  1  0  0  0  0 
 61 64  1  0  0  0  0 
 39 65  1  0  0  0  0 
 65 66  1  0  0  0  0 
 24 67  1  0  0  0  0 
 19 67  1  0  0  0  0 
M  END
> <Rank>
33

> <Priority_score>
0.104

> <Reaction_type>
amine hydroxylation

> <Parent_ID>
50

> <Parent_InChI>
InChI=1S/C29H26ClFN4O4S/c1-40(36,37)12-11-32-16-23-7-10-27(39-23)20-5-8-26-24(14-20)29(34-18-33-26)35-22-6-9-28(25(30)15-22)38-17-19-3-2-4-21(31)13-19/h2-10,13-15,18,32H,11-12,16-17H2,1H3,(H,33,34,35)

> <Parent_SMILES>
CS(=O)(=O)CCNCc1ccc(-c2ccc3ncnc(Nc4ccc(OCc5cccc(F)c5)c(Cl)c4)c3c2)o1

$$$$
Molecule 50_metabolite 36
  CDK     0516241031

  8  7  0  0  0  0  0  0  0  0999 V2000
    1.1986   -0.3750    0.0000 C   0  0  0  0  0  0  0  0  0  0  0  0
    0.4486    0.9240    0.0000 H   0  0  0  0  0  0  0  0  0  0  0  0
   -0.2110   -0.8880    0.0000 H   0  0  0  0  0  0  0  0  0  0  0  0
    1.4590   -1.8522    0.0000 H   0  0  0  0  0  0  0  0  0  0  0  0
    2.6986   -0.3750    0.0000 S   0  0  0  0  0  0  0  0  0  0  0  0
    3.4486   -1.6740    0.0000 H   0  0  0  0  0  0  0  0  0  0  0  0
    4.1081    0.1380    0.0000 O   0  0  0  0  0  0  0  0  0  0  0  0
    2.4381    1.1022    0.0000 O   0  0  0  0  0  0  0  0  0  0  0  0
  1  2  1  0  0  0  0 
  1  3  1  0  0  0  0 
  1  4  1  0  0  0  0 
  1  5  1  0  0  0  0 
  5  6  1  0  0  0  0 
  5  7  2  0  0  0  0 
  5  8  2  0  0  0  0 
M  END
> <Rank>
36

> <Priority_score>
0.088

> <Reaction_type>
S-dealkylation

> <Parent_ID>
50

> <Parent_InChI>
InChI=1S/C29H26ClFN4O4S/c1-40(36,37)12-11-32-16-23-7-10-27(39-23)20-5-8-26-24(14-20)29(34-18-33-26)35-22-6-9-28(25(30)15-22)38-17-19-3-2-4-21(31)13-19/h2-10,13-15,18,32H,11-12,16-17H2,1H3,(H,33,34,35)

> <Parent_SMILES>
CS(=O)(=O)CCNCc1ccc(-c2ccc3ncnc(Nc4ccc(OCc5cccc(F)c5)c(Cl)c4)c3c2)o1

$$$$
Molecule 50_metabolite 37
  CDK     0516241031

 63 67  0  0  0  0  0  0  0  0999 V2000
    9.0972  -10.4939    0.0000 C   0  0  0  0  0  0  0  0  0  0  0  0
    9.0924  -11.9939    0.0000 H   0  0  0  0  0  0  0  0  0  0  0  0
   10.3929   -9.7539    0.0000 C   0  0  0  0  0  0  0  0  0  0  0  0
   11.6894  -10.5083    0.0000 H   0  0  0  0  0  0  0  0  0  0  0  0
   10.3959   -8.2531    0.0000 C   0  0  0  0  0  0  0  0  0  0  0  0
    9.0981   -7.5009    0.0000 C   0  0  0  0  0  0  0  0  0  0  0  0
    9.1004   -6.0009    0.0000 H   0  0  0  0  0  0  0  0  0  0  0  0
    7.7974   -8.2496    0.0000 C   0  0  0  0  0  0  0  0  0  0  0  0
    7.7994   -9.7418    0.0000 C   0  0  0  0  0  0  0  0  0  0  0  0
    6.5002  -10.4916    0.0000 H   0  0  0  0  0  0  0  0  0  0  0  0
    6.4983   -7.4996    0.0000 C   0  0  0  0  0  0  0  0  0  0  0  0
    5.0211   -7.2391    0.0000 H   0  0  0  0  0  0  0  0  0  0  0  0
    5.9853   -8.9091    0.0000 H   0  0  0  0  0  0  0  0  0  0  0  0
    6.4983   -5.9996    0.0000 O   0  0  0  0  0  0  0  0  0  0  0  0
    5.1993   -5.2496    0.0000 C   0  0  0  0  0  0  0  0  0  0  0  0
    3.8994   -5.9998    0.0000 C   0  0  0  0  0  0  0  0  0  0  0  0
    3.8996   -7.4998    0.0000 H   0  0  0  0  0  0  0  0  0  0  0  0
    2.5993   -5.2500    0.0000 C   0  0  0  0  0  0  0  0  0  0  0  0
    1.3005   -6.0004    0.0000 H   0  0  0  0  0  0  0  0  0  0  0  0
    2.5990   -3.7500    0.0000 C   0  0  0  0  0  0  0  0  0  0  0  0
    3.8989   -2.9998    0.0000 C   0  0  0  0  0  0  0  0  0  0  0  0
    3.8987   -1.4998    0.0000 H   0  0  0  0  0  0  0  0  0  0  0  0
    5.1990   -3.7496    0.0000 C   0  0  0  0  0  0  0  0  0  0  0  0
    6.4978   -2.9992    0.0000 Cl  0  0  0  0  0  0  0  0  0  0  0  0
    1.3000   -3.0000    0.0000 N   0  0  0  0  0  0  0  0  0  0  0  0
    0.0010   -3.7500    0.0000 H   0  0  0  0  0  0  0  0  0  0  0  0
    1.3000   -1.5000    0.0000 C   0  0  0  0  0  0  0  0  0  0  0  0
    0.0000   -0.7500    0.0000 C   0  0  0  0  0  0  0  0  0  0  0  0
   -1.3000   -1.5000    0.0000 C   0  0  0  0  0  0  0  0  0  0  0  0
   -1.3000   -3.0000    0.0000 H   0  0  0  0  0  0  0  0  0  0  0  0
   -2.6000   -0.7500    0.0000 C   0  0  0  0  0  0  0  0  0  0  0  0
   -2.6000    0.7500    0.0000 C   0  0  0  0  0  0  0  0  0  0  0  0
   -3.8989    1.5002    0.0000 H   0  0  0  0  0  0  0  0  0  0  0  0
   -1.3000    1.5000    0.0000 C   0  0  0  0  0  0  0  0  0  0  0  0
   -1.3000    3.0000    0.0000 H   0  0  0  0  0  0  0  0  0  0  0  0
    0.0000    0.7500    0.0000 C   0  0  0  0  0  0  0  0  0  0  0  0
    1.3000    1.5000    0.0000 N   0  0  0  0  0  0  0  0  0  0  0  0
    2.6000    0.7500    0.0000 C   0  0  0  0  0  0  0  0  0  0  0  0
    3.8989    1.5002    0.0000 H   0  0  0  0  0  0  0  0  0  0  0  0
    2.6000   -0.7500    0.0000 N   0  0  0  0  0  0  0  0  0  0  0  0
   -3.8989   -1.5002    0.0000 C   0  0  0  0  0  0  0  0  0  0  0  0
   -4.0531   -2.9944    0.0000 C   0  0  0  0  0  0  0  0  0  0  0  0
   -2.9380   -3.9977    0.0000 H   0  0  0  0  0  0  0  0  0  0  0  0
   -5.5207   -3.3047    0.0000 C   0  0  0  0  0  0  0  0  0  0  0  0
   -6.1343   -4.6735    0.0000 H   0  0  0  0  0  0  0  0  0  0  0  0
   -6.2666   -2.0008    0.0000 C   0  0  0  0  0  0  0  0  0  0  0  0
   -7.7580   -1.8406    0.0000 C   0  0  0  0  0  0  0  0  0  0  0  0
   -9.2143   -2.2001    0.0000 H   0  0  0  0  0  0  0  0  0  0  0  0
   -7.6568   -3.3372    0.0000 H   0  0  0  0  0  0  0  0  0  0  0  0
   -8.3649   -0.4689    0.0000 N   0  0  0  0  0  0  0  0  0  0  0  0
   -7.4805    0.7426    0.0000 H   0  0  0  0  0  0  0  0  0  0  0  0
  -10.3336   -0.2574    0.0000 C   0  0  0  0  0  0  0  0  0  0  0  0
  -11.7899   -0.6169    0.0000 H   0  0  0  0  0  0  0  0  0  0  0  0
  -10.2324   -1.7540    0.0000 H   0  0  0  0  0  0  0  0  0  0  0  0
  -10.9406    1.1143    0.0000 C   0  0  0  0  0  0  0  0  0  0  0  0
   -9.4843    1.4739    0.0000 H   0  0  0  0  0  0  0  0  0  0  0  0
  -11.0418    2.6109    0.0000 H   0  0  0  0  0  0  0  0  0  0  0  0
  -12.4320    1.2745    0.0000 S   0  0  0  0  0  0  0  0  0  0  0  0
  -13.3165    0.0630    0.0000 H   0  0  0  0  0  0  0  0  0  0  0  0
  -13.7787    1.9352    0.0000 O   0  0  0  0  0  0  0  0  0  0  0  0
  -12.0152    2.7155    0.0000 O   0  0  0  0  0  0  0  0  0  0  0  0
   -5.2648   -0.8896    0.0000 O   0  0  0  0  0  0  0  0  0  0  0  0
   11.6963   -7.5055    0.0000 F   0  0  0  0  0  0  0  0  0  0  0  0
  1  2  1  0  0  0  0 
  1  3  2  0  0  0  0 
  3  4  1  0  0  0  0 
  3  5  1  0  0  0  0 
  5  6  2  0  0  0  0 
  6  7  1  0  0  0  0 
  6  8  1  0  0  0  0 
  8  9  2  0  0  0  0 
  1  9  1  0  0  0  0 
  9 10  1  0  0  0  0 
  8 11  1  0  0  0  0 
 11 12  1  0  0  0  0 
 11 13  1  0  0  0  0 
 11 14  1  0  0  0  0 
 14 15  1  0  0  0  0 
 15 16  2  0  0  0  0 
 16 17  1  0  0  0  0 
 16 18  1  0  0  0  0 
 18 19  1  0  0  0  0 
 18 20  2  0  0  0  0 
 20 21  1  0  0  0  0 
 21 22  1  0  0  0  0 
 21 23  2  0  0  0  0 
 15 23  1  0  0  0  0 
 23 24  1  0  0  0  0 
 20 25  1  0  0  0  0 
 25 26  1  0  0  0  0 
 25 27  1  0  0  0  0 
 27 28  2  0  0  0  0 
 28 29  1  0  0  0  0 
 29 30  1  0  0  0  0 
 29 31  2  0  0  0  0 
 31 32  1  0  0  0  0 
 32 33  1  0  0  0  0 
 32 34  2  0  0  0  0 
 34 35  1  0  0  0  0 
 34 36  1  0  0  0  0 
 28 36  1  0  0  0  0 
 36 37  2  0  0  0  0 
 37 38  1  0  0  0  0 
 38 39  1  0  0  0  0 
 38 40  2  0  0  0  0 
 27 40  1  0  0  0  0 
 31 41  1  0  0  0  0 
 41 42  2  0  0  0  0 
 42 43  1  0  0  0  0 
 42 44  1  0  0  0  0 
 44 45  1  0  0  0  0 
 44 46  2  0  0  0  0 
 46 47  1  0  0  0  0 
 47 48  1  0  0  0  0 
 47 49  1  0  0  0  0 
 47 50  1  0  0  0  0 
 50 51  1  0  0  0  0 
 50 52  1  0  0  0  0 
 52 53  1  0  0  0  0 
 52 54  1  0  0  0  0 
 52 55  1  0  0  0  0 
 55 56  1  0  0  0  0 
 55 57  1  0  0  0  0 
 55 58  1  0  0  0  0 
 58 59  1  0  0  0  0 
 58 60  2  0  0  0  0 
 58 61  2  0  0  0  0 
 46 62  1  0  0  0  0 
 41 62  1  0  0  0  0 
  5 63  1  0  0  0  0 
M  END
> <Rank>
36

> <Priority_score>
0.088

> <Reaction_type>
S-dealkylation

> <Parent_ID>
50

> <Parent_InChI>
InChI=1S/C29H26ClFN4O4S/c1-40(36,37)12-11-32-16-23-7-10-27(39-23)20-5-8-26-24(14-20)29(34-18-33-26)35-22-6-9-28(25(30)15-22)38-17-19-3-2-4-21(31)13-19/h2-10,13-15,18,32H,11-12,16-17H2,1H3,(H,33,34,35)

> <Parent_SMILES>
CS(=O)(=O)CCNCc1ccc(-c2ccc3ncnc(Nc4ccc(OCc5cccc(F)c5)c(Cl)c4)c3c2)o1

$$$$
Molecule 50_metabolite 38
  CDK     0516241031

 59 63  0  0  0  0  0  0  0  0999 V2000
    9.0972  -10.4939    0.0000 C   0  0  0  0  0  0  0  0  0  0  0  0
    9.0924  -11.9939    0.0000 H   0  0  0  0  0  0  0  0  0  0  0  0
   10.3929   -9.7539    0.0000 C   0  0  0  0  0  0  0  0  0  0  0  0
   11.6894  -10.5083    0.0000 H   0  0  0  0  0  0  0  0  0  0  0  0
   10.3959   -8.2531    0.0000 C   0  0  0  0  0  0  0  0  0  0  0  0
    9.0981   -7.5009    0.0000 C   0  0  0  0  0  0  0  0  0  0  0  0
    9.1004   -6.0009    0.0000 H   0  0  0  0  0  0  0  0  0  0  0  0
    7.7974   -8.2496    0.0000 C   0  0  0  0  0  0  0  0  0  0  0  0
    7.7994   -9.7418    0.0000 C   0  0  0  0  0  0  0  0  0  0  0  0
    6.5002  -10.4916    0.0000 H   0  0  0  0  0  0  0  0  0  0  0  0
    6.4983   -7.4996    0.0000 C   0  0  0  0  0  0  0  0  0  0  0  0
    5.0211   -7.2391    0.0000 H   0  0  0  0  0  0  0  0  0  0  0  0
    5.9853   -8.9091    0.0000 H   0  0  0  0  0  0  0  0  0  0  0  0
    6.4983   -5.9996    0.0000 O   0  0  0  0  0  0  0  0  0  0  0  0
    5.1993   -5.2496    0.0000 C   0  0  0  0  0  0  0  0  0  0  0  0
    3.8994   -5.9998    0.0000 C   0  0  0  0  0  0  0  0  0  0  0  0
    3.8996   -7.4998    0.0000 H   0  0  0  0  0  0  0  0  0  0  0  0
    2.5993   -5.2500    0.0000 C   0  0  0  0  0  0  0  0  0  0  0  0
    1.3005   -6.0004    0.0000 H   0  0  0  0  0  0  0  0  0  0  0  0
    2.5990   -3.7500    0.0000 C   0  0  0  0  0  0  0  0  0  0  0  0
    3.8989   -2.9998    0.0000 C   0  0  0  0  0  0  0  0  0  0  0  0
    3.8987   -1.4998    0.0000 H   0  0  0  0  0  0  0  0  0  0  0  0
    5.1990   -3.7496    0.0000 C   0  0  0  0  0  0  0  0  0  0  0  0
    6.4978   -2.9992    0.0000 Cl  0  0  0  0  0  0  0  0  0  0  0  0
    1.3000   -3.0000    0.0000 N   0  0  0  0  0  0  0  0  0  0  0  0
    0.0010   -3.7500    0.0000 H   0  0  0  0  0  0  0  0  0  0  0  0
    1.3000   -1.5000    0.0000 C   0  0  0  0  0  0  0  0  0  0  0  0
    0.0000   -0.7500    0.0000 C   0  0  0  0  0  0  0  0  0  0  0  0
   -1.3000   -1.5000    0.0000 C   0  0  0  0  0  0  0  0  0  0  0  0
   -1.3000   -3.0000    0.0000 H   0  0  0  0  0  0  0  0  0  0  0  0
   -2.6000   -0.7500    0.0000 C   0  0  0  0  0  0  0  0  0  0  0  0
   -2.6000    0.7500    0.0000 C   0  0  0  0  0  0  0  0  0  0  0  0
   -3.8989    1.5002    0.0000 H   0  0  0  0  0  0  0  0  0  0  0  0
   -1.3000    1.5000    0.0000 C   0  0  0  0  0  0  0  0  0  0  0  0
   -1.3000    3.0000    0.0000 H   0  0  0  0  0  0  0  0  0  0  0  0
    0.0000    0.7500    0.0000 C   0  0  0  0  0  0  0  0  0  0  0  0
    1.3000    1.5000    0.0000 N   0  0  0  0  0  0  0  0  0  0  0  0
    2.6000    0.7500    0.0000 C   0  0  0  0  0  0  0  0  0  0  0  0
    3.8989    1.5002    0.0000 H   0  0  0  0  0  0  0  0  0  0  0  0
    2.6000   -0.7500    0.0000 N   0  0  0  0  0  0  0  0  0  0  0  0
   -3.8989   -1.5002    0.0000 C   0  0  0  0  0  0  0  0  0  0  0  0
   -4.0531   -2.9944    0.0000 C   0  0  0  0  0  0  0  0  0  0  0  0
   -2.9380   -3.9977    0.0000 H   0  0  0  0  0  0  0  0  0  0  0  0
   -5.5207   -3.3047    0.0000 C   0  0  0  0  0  0  0  0  0  0  0  0
   -6.1343   -4.6735    0.0000 H   0  0  0  0  0  0  0  0  0  0  0  0
   -6.2666   -2.0008    0.0000 C   0  0  0  0  0  0  0  0  0  0  0  0
   -7.7580   -1.8406    0.0000 C   0  0  0  0  0  0  0  0  0  0  0  0
   -9.2143   -2.2001    0.0000 H   0  0  0  0  0  0  0  0  0  0  0  0
   -7.6568   -3.3372    0.0000 H   0  0  0  0  0  0  0  0  0  0  0  0
   -8.3649   -0.4689    0.0000 N   0  0  0  0  0  0  0  0  0  0  0  0
   -7.4805    0.7426    0.0000 H   0  0  0  0  0  0  0  0  0  0  0  0
   -9.8564   -0.3087    0.0000 C   0  0  0  0  0  0  0  0  0  0  0  0
  -11.2030    0.3520    0.0000 H   0  0  0  0  0  0  0  0  0  0  0  0
   -9.4396    1.1323    0.0000 H   0  0  0  0  0  0  0  0  0  0  0  0
  -10.7408   -1.5202    0.0000 C   0  0  0  0  0  0  0  0  0  0  0  0
  -12.2322   -1.3600    0.0000 H   0  0  0  0  0  0  0  0  0  0  0  0
  -10.1339   -2.8919    0.0000 O   0  0  0  0  0  0  0  0  0  0  0  0
   -5.2648   -0.8896    0.0000 O   0  0  0  0  0  0  0  0  0  0  0  0
   11.6963   -7.5055    0.0000 F   0  0  0  0  0  0  0  0  0  0  0  0
  1  2  1  0  0  0  0 
  1  3  2  0  0  0  0 
  3  4  1  0  0  0  0 
  3  5  1  0  0  0  0 
  5  6  2  0  0  0  0 
  6  7  1  0  0  0  0 
  6  8  1  0  0  0  0 
  8  9  2  0  0  0  0 
  1  9  1  0  0  0  0 
  9 10  1  0  0  0  0 
  8 11  1  0  0  0  0 
 11 12  1  0  0  0  0 
 11 13  1  0  0  0  0 
 11 14  1  0  0  0  0 
 14 15  1  0  0  0  0 
 15 16  2  0  0  0  0 
 16 17  1  0  0  0  0 
 16 18  1  0  0  0  0 
 18 19  1  0  0  0  0 
 18 20  2  0  0  0  0 
 20 21  1  0  0  0  0 
 21 22  1  0  0  0  0 
 21 23  2  0  0  0  0 
 15 23  1  0  0  0  0 
 23 24  1  0  0  0  0 
 20 25  1  0  0  0  0 
 25 26  1  0  0  0  0 
 25 27  1  0  0  0  0 
 27 28  2  0  0  0  0 
 28 29  1  0  0  0  0 
 29 30  1  0  0  0  0 
 29 31  2  0  0  0  0 
 31 32  1  0  0  0  0 
 32 33  1  0  0  0  0 
 32 34  2  0  0  0  0 
 34 35  1  0  0  0  0 
 34 36  1  0  0  0  0 
 28 36  1  0  0  0  0 
 36 37  2  0  0  0  0 
 37 38  1  0  0  0  0 
 38 39  1  0  0  0  0 
 38 40  2  0  0  0  0 
 27 40  1  0  0  0  0 
 31 41  1  0  0  0  0 
 41 42  2  0  0  0  0 
 42 43  1  0  0  0  0 
 42 44  1  0  0  0  0 
 44 45  1  0  0  0  0 
 44 46  2  0  0  0  0 
 46 47  1  0  0  0  0 
 47 48  1  0  0  0  0 
 47 49  1  0  0  0  0 
 47 50  1  0  0  0  0 
 50 51  1  0  0  0  0 
 50 52  1  0  0  0  0 
 52 53  1  0  0  0  0 
 52 54  1  0  0  0  0 
 52 55  1  0  0  0  0 
 55 56  1  0  0  0  0 
 55 57  2  0  0  0  0 
 46 58  1  0  0  0  0 
 41 58  1  0  0  0  0 
  5 59  1  0  0  0  0 
M  END
> <Rank>
36

> <Priority_score>
0.088

> <Reaction_type>
S-dealkylation

> <Parent_ID>
50

> <Parent_InChI>
InChI=1S/C29H26ClFN4O4S/c1-40(36,37)12-11-32-16-23-7-10-27(39-23)20-5-8-26-24(14-20)29(34-18-33-26)35-22-6-9-28(25(30)15-22)38-17-19-3-2-4-21(31)13-19/h2-10,13-15,18,32H,11-12,16-17H2,1H3,(H,33,34,35)

> <Parent_SMILES>
CS(=O)(=O)CCNCc1ccc(-c2ccc3ncnc(Nc4ccc(OCc5cccc(F)c5)c(Cl)c4)c3c2)o1

$$$$
Molecule 50_metabolite 39
  CDK     0516241031

 67 71  0  0  0  0  0  0  0  0999 V2000
  -12.2866   -7.9501    0.0000 C   0  0  0  0  0  0  0  0  0  0  0  0
  -12.8931   -9.3220    0.0000 H   0  0  0  0  0  0  0  0  0  0  0  0
  -12.1859   -6.4535    0.0000 H   0  0  0  0  0  0  0  0  0  0  0  0
  -13.7430   -7.5910    0.0000 H   0  0  0  0  0  0  0  0  0  0  0  0
  -10.7952   -7.7894    0.0000 S   0  0  0  0  0  0  0  0  0  0  0  0
  -11.4018   -9.1613    0.0000 O   0  0  0  0  0  0  0  0  0  0  0  0
   -9.9104   -9.0006    0.0000 O   0  0  0  0  0  0  0  0  0  0  0  0
   -9.3039   -7.6287    0.0000 O   0  0  0  0  0  0  0  0  0  0  0  0
   -9.9946   -5.9785    0.0000 C   0  0  0  0  0  0  0  0  0  0  0  0
   -9.8939   -4.4819    0.0000 H   0  0  0  0  0  0  0  0  0  0  0  0
  -11.4510   -5.6194    0.0000 H   0  0  0  0  0  0  0  0  0  0  0  0
   -8.5033   -5.8178    0.0000 C   0  0  0  0  0  0  0  0  0  0  0  0
   -8.9205   -4.3770    0.0000 H   0  0  0  0  0  0  0  0  0  0  0  0
   -7.1568   -5.1567    0.0000 H   0  0  0  0  0  0  0  0  0  0  0  0
   -7.3353   -7.4166    0.0000 N   0  0  0  0  0  0  0  0  0  0  0  0
   -7.9418   -8.7885    0.0000 H   0  0  0  0  0  0  0  0  0  0  0  0
   -5.8439   -7.2559    0.0000 C   0  0  0  0  0  0  0  0  0  0  0  0
   -6.2611   -5.8151    0.0000 H   0  0  0  0  0  0  0  0  0  0  0  0
   -4.4974   -6.5948    0.0000 H   0  0  0  0  0  0  0  0  0  0  0  0
   -4.9590   -8.4671    0.0000 C   0  0  0  0  0  0  0  0  0  0  0  0
   -5.4219   -9.8962    0.0000 C   0  0  0  0  0  0  0  0  0  0  0  0
   -6.8474  -10.3631    0.0000 H   0  0  0  0  0  0  0  0  0  0  0  0
   -4.2050  -10.7732    0.0000 C   0  0  0  0  0  0  0  0  0  0  0  0
   -4.1971  -12.2732    0.0000 H   0  0  0  0  0  0  0  0  0  0  0  0
   -2.9958   -9.8820    0.0000 C   0  0  0  0  0  0  0  0  0  0  0  0
   -1.5669  -10.3383    0.0000 C   0  0  0  0  0  0  0  0  0  0  0  0
   -0.4565   -9.3286    0.0000 C   0  0  0  0  0  0  0  0  0  0  0  0
   -0.7760   -7.8630    0.0000 H   0  0  0  0  0  0  0  0  0  0  0  0
    0.9735   -9.7844    0.0000 C   0  0  0  0  0  0  0  0  0  0  0  0
    2.0839   -8.7747    0.0000 C   0  0  0  0  0  0  0  0  0  0  0  0
    3.5138   -9.2305    0.0000 N   0  0  0  0  0  0  0  0  0  0  0  0
    3.8333  -10.6961    0.0000 C   0  0  0  0  0  0  0  0  0  0  0  0
    5.2622  -11.1524    0.0000 H   0  0  0  0  0  0  0  0  0  0  0  0
    2.7229  -11.7058    0.0000 N   0  0  0  0  0  0  0  0  0  0  0  0
    1.2930  -11.2500    0.0000 C   0  0  0  0  0  0  0  0  0  0  0  0
    0.1826  -12.2597    0.0000 C   0  0  0  0  0  0  0  0  0  0  0  0
    0.5022  -13.7253    0.0000 H   0  0  0  0  0  0  0  0  0  0  0  0
   -1.2473  -11.8039    0.0000 C   0  0  0  0  0  0  0  0  0  0  0  0
   -2.3566  -12.8136    0.0000 H   0  0  0  0  0  0  0  0  0  0  0  0
    1.7643   -7.3091    0.0000 N   0  0  0  0  0  0  0  0  0  0  0  0
    0.3353   -6.8531    0.0000 H   0  0  0  0  0  0  0  0  0  0  0  0
    2.8738   -6.2996    0.0000 C   0  0  0  0  0  0  0  0  0  0  0  0
    4.3036   -6.7557    0.0000 C   0  0  0  0  0  0  0  0  0  0  0  0
    4.6229   -8.2213    0.0000 H   0  0  0  0  0  0  0  0  0  0  0  0
    5.4142   -5.7461    0.0000 C   0  0  0  0  0  0  0  0  0  0  0  0
    6.8430   -6.2027    0.0000 H   0  0  0  0  0  0  0  0  0  0  0  0
    5.0949   -4.2805    0.0000 C   0  0  0  0  0  0  0  0  0  0  0  0
    3.6650   -3.8244    0.0000 C   0  0  0  0  0  0  0  0  0  0  0  0
    2.5545   -4.8340    0.0000 C   0  0  0  0  0  0  0  0  0  0  0  0
    1.1256   -4.3775    0.0000 H   0  0  0  0  0  0  0  0  0  0  0  0
    3.3457   -2.3588    0.0000 Cl  0  0  0  0  0  0  0  0  0  0  0  0
    6.2043   -3.2710    0.0000 O   0  0  0  0  0  0  0  0  0  0  0  0
    7.6333   -3.7271    0.0000 C   0  0  0  0  0  0  0  0  0  0  0  0
    8.8201   -4.6444    0.0000 H   0  0  0  0  0  0  0  0  0  0  0  0
    6.9360   -5.0552    0.0000 H   0  0  0  0  0  0  0  0  0  0  0  0
    8.7428   -2.7175    0.0000 C   0  0  0  0  0  0  0  0  0  0  0  0
    8.4268   -1.2592    0.0000 C   0  0  0  0  0  0  0  0  0  0  0  0
    6.9978   -0.8034    0.0000 H   0  0  0  0  0  0  0  0  0  0  0  0
    9.5346   -0.2478    0.0000 C   0  0  0  0  0  0  0  0  0  0  0  0
    9.2104    1.2167    0.0000 H   0  0  0  0  0  0  0  0  0  0  0  0
   10.9583   -0.6948    0.0000 C   0  0  0  0  0  0  0  0  0  0  0  0
   12.0643    0.3184    0.0000 H   0  0  0  0  0  0  0  0  0  0  0  0
   11.2809   -2.1605    0.0000 C   0  0  0  0  0  0  0  0  0  0  0  0
   10.1732   -3.1719    0.0000 C   0  0  0  0  0  0  0  0  0  0  0  0
   10.4949   -4.6370    0.0000 H   0  0  0  0  0  0  0  0  0  0  0  0
   12.7107   -2.6140    0.0000 F   0  0  0  0  0  0  0  0  0  0  0  0
   -3.4629   -8.4606    0.0000 O   0  0  0  0  0  0  0  0  0  0  0  0
  1  2  1  0  0  0  0 
  1  3  1  0  0  0  0 
  1  4  1  0  0  0  0 
  1  5  1  0  0  0  0 
  5  6  2  0  0  0  0 
  5  7  2  0  0  0  0 
  5  8  2  0  0  0  0 
  5  9  1  0  0  0  0 
  9 10  1  0  0  0  0 
  9 11  1  0  0  0  0 
  9 12  1  0  0  0  0 
 12 13  1  0  0  0  0 
 12 14  1  0  0  0  0 
 12 15  1  0  0  0  0 
 15 16  1  0  0  0  0 
 15 17  1  0  0  0  0 
 17 18  1  0  0  0  0 
 17 19  1  0  0  0  0 
 17 20  1  0  0  0  0 
 20 21  2  0  0  0  0 
 21 22  1  0  0  0  0 
 21 23  1  0  0  0  0 
 23 24  1  0  0  0  0 
 23 25  2  0  0  0  0 
 25 26  1  0  0  0  0 
 26 27  2  0  0  0  0 
 27 28  1  0  0  0  0 
 27 29  1  0  0  0  0 
 29 30  2  0  0  0  0 
 30 31  1  0  0  0  0 
 31 32  2  0  0  0  0 
 32 33  1  0  0  0  0 
 32 34  1  0  0  0  0 
 34 35  2  0  0  0  0 
 29 35  1  0  0  0  0 
 35 36  1  0  0  0  0 
 36 37  1  0  0  0  0 
 36 38  2  0  0  0  0 
 26 38  1  0  0  0  0 
 38 39  1  0  0  0  0 
 30 40  1  0  0  0  0 
 40 41  1  0  0  0  0 
 40 42  1  0  0  0  0 
 42 43  2  0  0  0  0 
 43 44  1  0  0  0  0 
 43 45  1  0  0  0  0 
 45 46  1  0  0  0  0 
 45 47  2  0  0  0  0 
 47 48  1  0  0  0  0 
 48 49  2  0  0  0  0 
 42 49  1  0  0  0  0 
 49 50  1  0  0  0  0 
 48 51  1  0  0  0  0 
 47 52  1  0  0  0  0 
 52 53  1  0  0  0  0 
 53 54  1  0  0  0  0 
 53 55  1  0  0  0  0 
 53 56  1  0  0  0  0 
 56 57  2  0  0  0  0 
 57 58  1  0  0  0  0 
 57 59  1  0  0  0  0 
 59 60  1  0  0  0  0 
 59 61  2  0  0  0  0 
 61 62  1  0  0  0  0 
 61 63  1  0  0  0  0 
 63 64  2  0  0  0  0 
 56 64  1  0  0  0  0 
 64 65  1  0  0  0  0 
 63 66  1  0  0  0  0 
 25 67  1  0  0  0  0 
 20 67  1  0  0  0  0 
M  END
> <Rank>
36

> <Priority_score>
0.088

> <Reaction_type>
S-oxidation

> <Parent_ID>
50

> <Parent_InChI>
InChI=1S/C29H26ClFN4O4S/c1-40(36,37)12-11-32-16-23-7-10-27(39-23)20-5-8-26-24(14-20)29(34-18-33-26)35-22-6-9-28(25(30)15-22)38-17-19-3-2-4-21(31)13-19/h2-10,13-15,18,32H,11-12,16-17H2,1H3,(H,33,34,35)

> <Parent_SMILES>
CS(=O)(=O)CCNCc1ccc(-c2ccc3ncnc(Nc4ccc(OCc5cccc(F)c5)c(Cl)c4)c3c2)o1

$$$$
Molecule 50_metabolite 40
  CDK     0516241031

 67 71  0  0  0  0  0  0  0  0999 V2000
  -12.7023   -7.7101    0.0000 C   0  0  0  0  0  0  0  0  0  0  0  0
  -13.5871   -6.4989    0.0000 H   0  0  0  0  0  0  0  0  0  0  0  0
  -12.2851   -9.1509    0.0000 H   0  0  0  0  0  0  0  0  0  0  0  0
  -14.0488   -8.3712    0.0000 H   0  0  0  0  0  0  0  0  0  0  0  0
  -11.2109   -7.5494    0.0000 S   0  0  0  0  0  0  0  0  0  0  0  0
  -11.3116   -9.0460    0.0000 O   0  0  0  0  0  0  0  0  0  0  0  0
   -9.7545   -7.9085    0.0000 O   0  0  0  0  0  0  0  0  0  0  0  0
  -10.6044   -6.1775    0.0000 C   0  0  0  0  0  0  0  0  0  0  0  0
  -10.5037   -4.6809    0.0000 H   0  0  0  0  0  0  0  0  0  0  0  0
  -12.0608   -5.8184    0.0000 H   0  0  0  0  0  0  0  0  0  0  0  0
   -8.6358   -5.9654    0.0000 C   0  0  0  0  0  0  0  0  0  0  0  0
   -8.7365   -7.4620    0.0000 H   0  0  0  0  0  0  0  0  0  0  0  0
   -7.1794   -6.3245    0.0000 H   0  0  0  0  0  0  0  0  0  0  0  0
   -8.0293   -4.5935    0.0000 N   0  0  0  0  0  0  0  0  0  0  0  0
   -8.9141   -3.3823    0.0000 H   0  0  0  0  0  0  0  0  0  0  0  0
   -6.0607   -4.3814    0.0000 C   0  0  0  0  0  0  0  0  0  0  0  0
   -6.1614   -5.8780    0.0000 H   0  0  0  0  0  0  0  0  0  0  0  0
   -4.6043   -4.7404    0.0000 H   0  0  0  0  0  0  0  0  0  0  0  0
   -5.4542   -3.0094    0.0000 C   0  0  0  0  0  0  0  0  0  0  0  0
   -6.2109   -1.7118    0.0000 C   0  0  0  0  0  0  0  0  0  0  0  0
   -7.7031   -1.5593    0.0000 H   0  0  0  0  0  0  0  0  0  0  0  0
   -5.2087   -0.5957    0.0000 C   0  0  0  0  0  0  0  0  0  0  0  0
   -5.5205    0.8716    0.0000 H   0  0  0  0  0  0  0  0  0  0  0  0
   -3.8374   -1.2088    0.0000 C   0  0  0  0  0  0  0  0  0  0  0  0
   -2.5385   -0.4586    0.0000 C   0  0  0  0  0  0  0  0  0  0  0  0
   -1.2385   -1.2086    0.0000 C   0  0  0  0  0  0  0  0  0  0  0  0
   -1.2385   -2.7086    0.0000 H   0  0  0  0  0  0  0  0  0  0  0  0
    0.0615   -0.4586    0.0000 C   0  0  0  0  0  0  0  0  0  0  0  0
    1.3615   -1.2086    0.0000 C   0  0  0  0  0  0  0  0  0  0  0  0
    1.3615   -2.7086    0.0000 N   0  0  0  0  0  0  0  0  0  0  0  0
    0.0625   -3.4586    0.0000 H   0  0  0  0  0  0  0  0  0  0  0  0
    3.0763   -3.6986    0.0000 C   0  0  0  0  0  0  0  0  0  0  0  0
    4.3762   -2.9484    0.0000 C   0  0  0  0  0  0  0  0  0  0  0  0
    4.3759   -1.4484    0.0000 H   0  0  0  0  0  0  0  0  0  0  0  0
    5.6763   -3.6982    0.0000 C   0  0  0  0  0  0  0  0  0  0  0  0
    6.9751   -2.9477    0.0000 H   0  0  0  0  0  0  0  0  0  0  0  0
    5.6765   -5.1982    0.0000 C   0  0  0  0  0  0  0  0  0  0  0  0
    4.3766   -5.9484    0.0000 C   0  0  0  0  0  0  0  0  0  0  0  0
    3.0765   -5.1986    0.0000 C   0  0  0  0  0  0  0  0  0  0  0  0
    1.7777   -5.9490    0.0000 H   0  0  0  0  0  0  0  0  0  0  0  0
    4.3769   -7.4484    0.0000 Cl  0  0  0  0  0  0  0  0  0  0  0  0
    6.9756   -5.9482    0.0000 O   0  0  0  0  0  0  0  0  0  0  0  0
    8.2746   -5.1982    0.0000 C   0  0  0  0  0  0  0  0  0  0  0  0
    9.2388   -4.0491    0.0000 H   0  0  0  0  0  0  0  0  0  0  0  0
    7.3104   -4.0491    0.0000 H   0  0  0  0  0  0  0  0  0  0  0  0
    9.5736   -5.9482    0.0000 C   0  0  0  0  0  0  0  0  0  0  0  0
    9.5757   -7.4403    0.0000 C   0  0  0  0  0  0  0  0  0  0  0  0
    8.2765   -8.1901    0.0000 H   0  0  0  0  0  0  0  0  0  0  0  0
   10.8734   -8.1925    0.0000 C   0  0  0  0  0  0  0  0  0  0  0  0
   10.8686   -9.6925    0.0000 H   0  0  0  0  0  0  0  0  0  0  0  0
   12.1692   -7.4525    0.0000 C   0  0  0  0  0  0  0  0  0  0  0  0
   13.4657   -8.2069    0.0000 H   0  0  0  0  0  0  0  0  0  0  0  0
   12.1722   -5.9517    0.0000 C   0  0  0  0  0  0  0  0  0  0  0  0
   10.8744   -5.1995    0.0000 C   0  0  0  0  0  0  0  0  0  0  0  0
   10.8767   -3.6995    0.0000 H   0  0  0  0  0  0  0  0  0  0  0  0
   13.4726   -5.2041    0.0000 F   0  0  0  0  0  0  0  0  0  0  0  0
    2.6615   -0.4586    0.0000 N   0  0  0  0  0  0  0  0  0  0  0  0
    2.6615    1.0414    0.0000 C   0  0  0  0  0  0  0  0  0  0  0  0
    3.9605    1.7916    0.0000 H   0  0  0  0  0  0  0  0  0  0  0  0
    1.3615    1.7914    0.0000 N   0  0  0  0  0  0  0  0  0  0  0  0
    0.0615    1.0414    0.0000 C   0  0  0  0  0  0  0  0  0  0  0  0
   -1.2385    1.7914    0.0000 C   0  0  0  0  0  0  0  0  0  0  0  0
   -1.2385    3.2914    0.0000 H   0  0  0  0  0  0  0  0  0  0  0  0
   -2.5385    1.0414    0.0000 C   0  0  0  0  0  0  0  0  0  0  0  0
   -3.8374    1.7916    0.0000 H   0  0  0  0  0  0  0  0  0  0  0  0
    3.6255   -1.6078    0.0000 O   0  0  0  0  0  0  0  0  0  0  0  0
   -3.9910   -2.6970    0.0000 O   0  0  0  0  0  0  0  0  0  0  0  0
  1  2  1  0  0  0  0 
  1  3  1  0  0  0  0 
  1  4  1  0  0  0  0 
  1  5  1  0  0  0  0 
  5  6  2  0  0  0  0 
  5  7  2  0  0  0  0 
  5  8  1  0  0  0  0 
  8  9  1  0  0  0  0 
  8 10  1  0  0  0  0 
  8 11  1  0  0  0  0 
 11 12  1  0  0  0  0 
 11 13  1  0  0  0  0 
 11 14  1  0  0  0  0 
 14 15  1  0  0  0  0 
 14 16  1  0  0  0  0 
 16 17  1  0  0  0  0 
 16 18  1  0  0  0  0 
 16 19  1  0  0  0  0 
 19 20  2  0  0  0  0 
 20 21  1  0  0  0  0 
 20 22  1  0  0  0  0 
 22 23  1  0  0  0  0 
 22 24  2  0  0  0  0 
 24 25  1  0  0  0  0 
 25 26  2  0  0  0  0 
 26 27  1  0  0  0  0 
 26 28  1  0  0  0  0 
 28 29  2  0  0  0  0 
 29 30  1  0  0  0  0 
 30 31  1  0  0  0  0 
 30 32  1  0  0  0  0 
 32 33  2  0  0  0  0 
 33 34  1  0  0  0  0 
 33 35  1  0  0  0  0 
 35 36  1  0  0  0  0 
 35 37  2  0  0  0  0 
 37 38  1  0  0  0  0 
 38 39  2  0  0  0  0 
 32 39  1  0  0  0  0 
 39 40  1  0  0  0  0 
 38 41  1  0  0  0  0 
 37 42  1  0  0  0  0 
 42 43  1  0  0  0  0 
 43 44  1  0  0  0  0 
 43 45  1  0  0  0  0 
 43 46  1  0  0  0  0 
 46 47  2  0  0  0  0 
 47 48  1  0  0  0  0 
 47 49  1  0  0  0  0 
 49 50  1  0  0  0  0 
 49 51  2  0  0  0  0 
 51 52  1  0  0  0  0 
 51 53  1  0  0  0  0 
 53 54  2  0  0  0  0 
 46 54  1  0  0  0  0 
 54 55  1  0  0  0  0 
 53 56  1  0  0  0  0 
 29 57  1  0  0  0  0 
 57 58  2  0  0  0  0 
 58 59  1  0  0  0  0 
 58 60  1  0  0  0  0 
 60 61  2  0  0  0  0 
 28 61  1  0  0  0  0 
 61 62  1  0  0  0  0 
 62 63  1  0  0  0  0 
 62 64  2  0  0  0  0 
 25 64  1  0  0  0  0 
 64 65  1  0  0  0  0 
 57 66  1  0  0  0  0 
 24 67  1  0  0  0  0 
 19 67  1  0  0  0  0 
M  CHG  1  57   1
M  CHG  1  66  -1
M  END
> <Rank>
40

> <Priority_score>
0.076

> <Reaction_type>
N-oxidation_(-N=)

> <Parent_ID>
50

> <Parent_InChI>
InChI=1S/C29H26ClFN4O4S/c1-40(36,37)12-11-32-16-23-7-10-27(39-23)20-5-8-26-24(14-20)29(34-18-33-26)35-22-6-9-28(25(30)15-22)38-17-19-3-2-4-21(31)13-19/h2-10,13-15,18,32H,11-12,16-17H2,1H3,(H,33,34,35)

> <Parent_SMILES>
CS(=O)(=O)CCNCc1ccc(-c2ccc3ncnc(Nc4ccc(OCc5cccc(F)c5)c(Cl)c4)c3c2)o1

$$$$
Molecule 50_metabolite 41
  CDK     0516241031

 67 71  0  0  0  0  0  0  0  0999 V2000
  -14.1264   -5.5584    0.0000 C   0  0  0  0  0  0  0  0  0  0  0  0
  -13.5093   -6.9256    0.0000 H   0  0  0  0  0  0  0  0  0  0  0  0
  -15.3657   -6.4036    0.0000 H   0  0  0  0  0  0  0  0  0  0  0  0
  -15.1740   -4.4848    0.0000 H   0  0  0  0  0  0  0  0  0  0  0  0
  -13.2510   -4.3404    0.0000 S   0  0  0  0  0  0  0  0  0  0  0  0
  -12.8450   -2.8964    0.0000 O   0  0  0  0  0  0  0  0  0  0  0  0
  -14.6026   -3.6898    0.0000 O   0  0  0  0  0  0  0  0  0  0  0  0
  -11.7585   -4.4895    0.0000 C   0  0  0  0  0  0  0  0  0  0  0  0
  -12.1645   -5.9335    0.0000 H   0  0  0  0  0  0  0  0  0  0  0  0
  -10.4069   -5.1401    0.0000 H   0  0  0  0  0  0  0  0  0  0  0  0
  -10.6029   -2.8817    0.0000 C   0  0  0  0  0  0  0  0  0  0  0  0
  -10.1968   -1.4377    0.0000 H   0  0  0  0  0  0  0  0  0  0  0  0
  -11.9544   -2.2311    0.0000 H   0  0  0  0  0  0  0  0  0  0  0  0
   -8.6327   -3.0785    0.0000 N   0  0  0  0  0  0  0  0  0  0  0  0
   -8.0156   -4.4457    0.0000 H   0  0  0  0  0  0  0  0  0  0  0  0
   -7.7573   -1.8605    0.0000 C   0  0  0  0  0  0  0  0  0  0  0  0
   -7.3512   -0.4165    0.0000 H   0  0  0  0  0  0  0  0  0  0  0  0
   -9.1088   -1.2099    0.0000 H   0  0  0  0  0  0  0  0  0  0  0  0
   -6.2647   -2.0096    0.0000 C   0  0  0  0  0  0  0  0  0  0  0  0
   -5.2754   -0.8919    0.0000 C   0  0  0  0  0  0  0  0  0  0  0  0
   -3.9005   -1.4915    0.0000 C   0  0  0  0  0  0  0  0  0  0  0  0
   -2.6068   -0.7322    0.0000 H   0  0  0  0  0  0  0  0  0  0  0  0
   -4.0465   -2.9770    0.0000 C   0  0  0  0  0  0  0  0  0  0  0  0
   -2.9217   -3.9694    0.0000 C   0  0  0  0  0  0  0  0  0  0  0  0
   -1.4990   -3.4914    0.0000 C   0  0  0  0  0  0  0  0  0  0  0  0
   -1.2022   -2.0211    0.0000 H   0  0  0  0  0  0  0  0  0  0  0  0
   -0.3730   -4.4838    0.0000 C   0  0  0  0  0  0  0  0  0  0  0  0
    1.0496   -4.0058    0.0000 C   0  0  0  0  0  0  0  0  0  0  0  0
    2.1756   -4.9982    0.0000 N   0  0  0  0  0  0  0  0  0  0  0  0
    1.8788   -6.4686    0.0000 C   0  0  0  0  0  0  0  0  0  0  0  0
    3.0036   -7.4609    0.0000 H   0  0  0  0  0  0  0  0  0  0  0  0
    0.4561   -6.9465    0.0000 N   0  0  0  0  0  0  0  0  0  0  0  0
   -0.6698   -5.9542    0.0000 C   0  0  0  0  0  0  0  0  0  0  0  0
   -2.0925   -6.4321    0.0000 C   0  0  0  0  0  0  0  0  0  0  0  0
   -2.3893   -7.9025    0.0000 H   0  0  0  0  0  0  0  0  0  0  0  0
   -3.2184   -5.4397    0.0000 C   0  0  0  0  0  0  0  0  0  0  0  0
   -4.6401   -5.9181    0.0000 H   0  0  0  0  0  0  0  0  0  0  0  0
    1.3464   -2.5355    0.0000 N   0  0  0  0  0  0  0  0  0  0  0  0
    0.2214   -1.5433    0.0000 H   0  0  0  0  0  0  0  0  0  0  0  0
    2.7682   -2.0573    0.0000 C   0  0  0  0  0  0  0  0  0  0  0  0
    3.8939   -3.0499    0.0000 C   0  0  0  0  0  0  0  0  0  0  0  0
    3.5969   -4.5202    0.0000 H   0  0  0  0  0  0  0  0  0  0  0  0
    5.3167   -2.5721    0.0000 C   0  0  0  0  0  0  0  0  0  0  0  0
    6.4413   -3.5647    0.0000 H   0  0  0  0  0  0  0  0  0  0  0  0
    5.6137   -1.1018    0.0000 C   0  0  0  0  0  0  0  0  0  0  0  0
    4.4879   -0.1093    0.0000 C   0  0  0  0  0  0  0  0  0  0  0  0
    3.0652   -0.5870    0.0000 C   0  0  0  0  0  0  0  0  0  0  0  0
    1.9405    0.4055    0.0000 H   0  0  0  0  0  0  0  0  0  0  0  0
    4.7849    1.3610    0.0000 Cl  0  0  0  0  0  0  0  0  0  0  0  0
    7.0354   -0.6237    0.0000 O   0  0  0  0  0  0  0  0  0  0  0  0
    8.1604   -1.6158    0.0000 C   0  0  0  0  0  0  0  0  0  0  0  0
    8.8782   -2.9330    0.0000 H   0  0  0  0  0  0  0  0  0  0  0  0
    6.9879   -2.5514    0.0000 H   0  0  0  0  0  0  0  0  0  0  0  0
    9.5822   -1.1377    0.0000 C   0  0  0  0  0  0  0  0  0  0  0  0
    9.8794    0.3246    0.0000 C   0  0  0  0  0  0  0  0  0  0  0  0
    8.7542    1.3166    0.0000 H   0  0  0  0  0  0  0  0  0  0  0  0
   11.3003    0.8051    0.0000 C   0  0  0  0  0  0  0  0  0  0  0  0
   11.5924    2.2764    0.0000 H   0  0  0  0  0  0  0  0  0  0  0  0
   12.4240   -0.1766    0.0000 C   0  0  0  0  0  0  0  0  0  0  0  0
   13.8442    0.3063    0.0000 H   0  0  0  0  0  0  0  0  0  0  0  0
   12.1300   -1.6484    0.0000 C   0  0  0  0  0  0  0  0  0  0  0  0
   10.7091   -2.1289    0.0000 C   0  0  0  0  0  0  0  0  0  0  0  0
   10.4145   -3.5997    0.0000 H   0  0  0  0  0  0  0  0  0  0  0  0
   13.2568   -2.6385    0.0000 F   0  0  0  0  0  0  0  0  0  0  0  0
   -5.5114   -3.3091    0.0000 O   0  0  0  0  0  0  0  0  0  0  0  0
   -5.5991    0.5727    0.0000 O   0  0  0  0  0  0  0  0  0  0  0  0
   -7.0294    1.0247    0.0000 H   0  0  0  0  0  0  0  0  0  0  0  0
  1  2  1  0  0  0  0 
  1  3  1  0  0  0  0 
  1  4  1  0  0  0  0 
  1  5  1  0  0  0  0 
  5  6  2  0  0  0  0 
  5  7  2  0  0  0  0 
  5  8  1  0  0  0  0 
  8  9  1  0  0  0  0 
  8 10  1  0  0  0  0 
  8 11  1  0  0  0  0 
 11 12  1  0  0  0  0 
 11 13  1  0  0  0  0 
 11 14  1  0  0  0  0 
 14 15  1  0  0  0  0 
 14 16  1  0  0  0  0 
 16 17  1  0  0  0  0 
 16 18  1  0  0  0  0 
 16 19  1  0  0  0  0 
 19 20  2  0  0  0  0 
 20 21  1  0  0  0  0 
 21 22  1  0  0  0  0 
 21 23  2  0  0  0  0 
 23 24  1  0  0  0  0 
 24 25  2  0  0  0  0 
 25 26  1  0  0  0  0 
 25 27  1  0  0  0  0 
 27 28  2  0  0  0  0 
 28 29  1  0  0  0  0 
 29 30  2  0  0  0  0 
 30 31  1  0  0  0  0 
 30 32  1  0  0  0  0 
 32 33  2  0  0  0  0 
 27 33  1  0  0  0  0 
 33 34  1  0  0  0  0 
 34 35  1  0  0  0  0 
 34 36  2  0  0  0  0 
 24 36  1  0  0  0  0 
 36 37  1  0  0  0  0 
 28 38  1  0  0  0  0 
 38 39  1  0  0  0  0 
 38 40  1  0  0  0  0 
 40 41  2  0  0  0  0 
 41 42  1  0  0  0  0 
 41 43  1  0  0  0  0 
 43 44  1  0  0  0  0 
 43 45  2  0  0  0  0 
 45 46  1  0  0  0  0 
 46 47  2  0  0  0  0 
 40 47  1  0  0  0  0 
 47 48  1  0  0  0  0 
 46 49  1  0  0  0  0 
 45 50  1  0  0  0  0 
 50 51  1  0  0  0  0 
 51 52  1  0  0  0  0 
 51 53  1  0  0  0  0 
 51 54  1  0  0  0  0 
 54 55  2  0  0  0  0 
 55 56  1  0  0  0  0 
 55 57  1  0  0  0  0 
 57 58  1  0  0  0  0 
 57 59  2  0  0  0  0 
 59 60  1  0  0  0  0 
 59 61  1  0  0  0  0 
 61 62  2  0  0  0  0 
 54 62  1  0  0  0  0 
 62 63  1  0  0  0  0 
 61 64  1  0  0  0  0 
 23 65  1  0  0  0  0 
 19 65  1  0  0  0  0 
 20 66  1  0  0  0  0 
 66 67  1  0  0  0  0 
M  END
> <Rank>
41

> <Priority_score>
0.072

> <Reaction_type>
aromatic hydroxylation

> <Parent_ID>
50

> <Parent_InChI>
InChI=1S/C29H26ClFN4O4S/c1-40(36,37)12-11-32-16-23-7-10-27(39-23)20-5-8-26-24(14-20)29(34-18-33-26)35-22-6-9-28(25(30)15-22)38-17-19-3-2-4-21(31)13-19/h2-10,13-15,18,32H,11-12,16-17H2,1H3,(H,33,34,35)

> <Parent_SMILES>
CS(=O)(=O)CCNCc1ccc(-c2ccc3ncnc(Nc4ccc(OCc5cccc(F)c5)c(Cl)c4)c3c2)o1

$$$$
Molecule 50_metabolite 42
  CDK     0516241031

 87 92  0  0  0  0  0  0  0  0999 V2000
   15.1950   -7.5823    0.0000 C   0  0  0  0  0  0  0  0  0  0  0  0
   16.0798   -6.3711    0.0000 H   0  0  0  0  0  0  0  0  0  0  0  0
   14.7778   -9.0231    0.0000 H   0  0  0  0  0  0  0  0  0  0  0  0
   16.5415   -8.2434    0.0000 H   0  0  0  0  0  0  0  0  0  0  0  0
   13.7036   -7.4216    0.0000 S   0  0  0  0  0  0  0  0  0  0  0  0
   13.8043   -8.9182    0.0000 O   0  0  0  0  0  0  0  0  0  0  0  0
   12.2472   -7.7807    0.0000 O   0  0  0  0  0  0  0  0  0  0  0  0
   13.0971   -6.0497    0.0000 C   0  0  0  0  0  0  0  0  0  0  0  0
   12.9964   -4.5531    0.0000 H   0  0  0  0  0  0  0  0  0  0  0  0
   14.5535   -5.6906    0.0000 H   0  0  0  0  0  0  0  0  0  0  0  0
   11.1285   -5.8375    0.0000 C   0  0  0  0  0  0  0  0  0  0  0  0
   11.2292   -7.3342    0.0000 H   0  0  0  0  0  0  0  0  0  0  0  0
    9.6721   -6.1966    0.0000 H   0  0  0  0  0  0  0  0  0  0  0  0
   10.5220   -4.4656    0.0000 N   0  0  0  0  0  0  0  0  0  0  0  0
   11.4068   -3.2544    0.0000 H   0  0  0  0  0  0  0  0  0  0  0  0
    8.5534   -4.2535    0.0000 C   0  0  0  0  0  0  0  0  0  0  0  0
    8.6541   -5.7501    0.0000 H   0  0  0  0  0  0  0  0  0  0  0  0
    7.0970   -4.6126    0.0000 H   0  0  0  0  0  0  0  0  0  0  0  0
    7.9469   -2.8816    0.0000 C   0  0  0  0  0  0  0  0  0  0  0  0
    8.7036   -1.5840    0.0000 C   0  0  0  0  0  0  0  0  0  0  0  0
   10.1958   -1.4314    0.0000 H   0  0  0  0  0  0  0  0  0  0  0  0
    7.7014   -0.4678    0.0000 C   0  0  0  0  0  0  0  0  0  0  0  0
    8.0132    0.9994    0.0000 H   0  0  0  0  0  0  0  0  0  0  0  0
    6.3301   -1.0810    0.0000 C   0  0  0  0  0  0  0  0  0  0  0  0
    5.0311   -0.3307    0.0000 C   0  0  0  0  0  0  0  0  0  0  0  0
    3.7311   -1.0807    0.0000 C   0  0  0  0  0  0  0  0  0  0  0  0
    3.7311   -2.5807    0.0000 H   0  0  0  0  0  0  0  0  0  0  0  0
    2.4311   -0.3307    0.0000 C   0  0  0  0  0  0  0  0  0  0  0  0
    1.1311   -1.0807    0.0000 C   0  0  0  0  0  0  0  0  0  0  0  0
   -0.1689   -0.3307    0.0000 N   0  0  0  0  0  0  0  0  0  0  0  0
   -0.1689    1.1693    0.0000 C   0  0  0  0  0  0  0  0  0  0  0  0
   -1.4678    1.9195    0.0000 H   0  0  0  0  0  0  0  0  0  0  0  0
    1.1311    1.9193    0.0000 N   0  0  0  0  0  0  0  0  0  0  0  0
    2.4311    1.1693    0.0000 C   0  0  0  0  0  0  0  0  0  0  0  0
    3.7311    1.9193    0.0000 C   0  0  0  0  0  0  0  0  0  0  0  0
    3.7311    3.4193    0.0000 H   0  0  0  0  0  0  0  0  0  0  0  0
    5.0311    1.1693    0.0000 C   0  0  0  0  0  0  0  0  0  0  0  0
    6.3301    1.9195    0.0000 H   0  0  0  0  0  0  0  0  0  0  0  0
    1.1311    3.4193    0.0000 C   0  0  0  0  0  0  0  0  0  0  0  0
    2.6084    3.1589    0.0000 H   0  0  0  0  0  0  0  0  0  0  0  0
    1.6439    4.8289    0.0000 C   0  0  0  0  0  0  0  0  0  0  0  0
    2.9432    4.0793    0.0000 H   0  0  0  0  0  0  0  0  0  0  0  0
    0.6785    5.9781    0.0000 C   0  0  0  0  0  0  0  0  0  0  0  0
    1.9773    6.7285    0.0000 H   0  0  0  0  0  0  0  0  0  0  0  0
   -0.7995    5.7176    0.0000 C   0  0  0  0  0  0  0  0  0  0  0  0
   -0.7995    7.2176    0.0000 H   0  0  0  0  0  0  0  0  0  0  0  0
   -1.3122    4.3080    0.0000 C   0  0  0  0  0  0  0  0  0  0  0  0
   -2.6115    5.0576    0.0000 H   0  0  0  0  0  0  0  0  0  0  0  0
   -2.5843    2.7907    0.0000 C   0  0  0  0  0  0  0  0  0  0  0  0
   -2.0707    1.3814    0.0000 O   0  0  0  0  0  0  0  0  0  0  0  0
   -4.0616    3.0505    0.0000 O   0  0  0  0  0  0  0  0  0  0  0  0
   -4.5753    4.4598    0.0000 H   0  0  0  0  0  0  0  0  0  0  0  0
   -0.3469    3.1588    0.0000 O   0  0  0  0  0  0  0  0  0  0  0  0
   -2.2768    5.9779    0.0000 O   0  0  0  0  0  0  0  0  0  0  0  0
   -2.7899    7.3874    0.0000 H   0  0  0  0  0  0  0  0  0  0  0  0
    0.1654    7.3876    0.0000 O   0  0  0  0  0  0  0  0  0  0  0  0
    1.1294    8.5367    0.0000 H   0  0  0  0  0  0  0  0  0  0  0  0
    2.6076    5.9784    0.0000 O   0  0  0  0  0  0  0  0  0  0  0  0
    4.0849    5.7185    0.0000 H   0  0  0  0  0  0  0  0  0  0  0  0
    1.1311   -2.5807    0.0000 N   0  0  0  0  0  0  0  0  0  0  0  0
    2.4302   -3.3307    0.0000 H   0  0  0  0  0  0  0  0  0  0  0  0
   -0.1679   -3.3307    0.0000 C   0  0  0  0  0  0  0  0  0  0  0  0
   -1.4678   -2.5805    0.0000 C   0  0  0  0  0  0  0  0  0  0  0  0
   -1.4675   -1.0805    0.0000 H   0  0  0  0  0  0  0  0  0  0  0  0
   -2.7679   -3.3303    0.0000 C   0  0  0  0  0  0  0  0  0  0  0  0
   -4.0667   -2.5799    0.0000 H   0  0  0  0  0  0  0  0  0  0  0  0
   -2.7681   -4.8303    0.0000 C   0  0  0  0  0  0  0  0  0  0  0  0
   -1.4683   -5.5805    0.0000 C   0  0  0  0  0  0  0  0  0  0  0  0
   -0.1681   -4.8307    0.0000 C   0  0  0  0  0  0  0  0  0  0  0  0
    1.1307   -5.5812    0.0000 H   0  0  0  0  0  0  0  0  0  0  0  0
   -1.4685   -7.0805    0.0000 Cl  0  0  0  0  0  0  0  0  0  0  0  0
   -4.0672   -5.5803    0.0000 O   0  0  0  0  0  0  0  0  0  0  0  0
   -5.3662   -4.8303    0.0000 C   0  0  0  0  0  0  0  0  0  0  0  0
   -6.3304   -3.6813    0.0000 H   0  0  0  0  0  0  0  0  0  0  0  0
   -4.4020   -3.6813    0.0000 H   0  0  0  0  0  0  0  0  0  0  0  0
   -6.6652   -5.5803    0.0000 C   0  0  0  0  0  0  0  0  0  0  0  0
   -6.6673   -7.0725    0.0000 C   0  0  0  0  0  0  0  0  0  0  0  0
   -5.3681   -7.8223    0.0000 H   0  0  0  0  0  0  0  0  0  0  0  0
   -7.9651   -7.8247    0.0000 C   0  0  0  0  0  0  0  0  0  0  0  0
   -7.9603   -9.3247    0.0000 H   0  0  0  0  0  0  0  0  0  0  0  0
   -9.2608   -7.0847    0.0000 C   0  0  0  0  0  0  0  0  0  0  0  0
  -10.5573   -7.8390    0.0000 H   0  0  0  0  0  0  0  0  0  0  0  0
   -9.2638   -5.5838    0.0000 C   0  0  0  0  0  0  0  0  0  0  0  0
   -7.9660   -4.8317    0.0000 C   0  0  0  0  0  0  0  0  0  0  0  0
   -7.9683   -3.3317    0.0000 H   0  0  0  0  0  0  0  0  0  0  0  0
  -10.5642   -4.8362    0.0000 F   0  0  0  0  0  0  0  0  0  0  0  0
    6.4837   -2.5692    0.0000 O   0  0  0  0  0  0  0  0  0  0  0  0
  1  2  1  0  0  0  0 
  1  3  1  0  0  0  0 
  1  4  1  0  0  0  0 
  1  5  1  0  0  0  0 
  5  6  2  0  0  0  0 
  5  7  2  0  0  0  0 
  5  8  1  0  0  0  0 
  8  9  1  0  0  0  0 
  8 10  1  0  0  0  0 
  8 11  1  0  0  0  0 
 11 12  1  0  0  0  0 
 11 13  1  0  0  0  0 
 11 14  1  0  0  0  0 
 14 15  1  0  0  0  0 
 14 16  1  0  0  0  0 
 16 17  1  0  0  0  0 
 16 18  1  0  0  0  0 
 16 19  1  0  0  0  0 
 19 20  2  0  0  0  0 
 20 21  1  0  0  0  0 
 20 22  1  0  0  0  0 
 22 23  1  0  0  0  0 
 22 24  2  0  0  0  0 
 24 25  1  0  0  0  0 
 25 26  2  0  0  0  0 
 26 27  1  0  0  0  0 
 26 28  1  0  0  0  0 
 28 29  2  0  0  0  0 
 29 30  1  0  0  0  0 
 30 31  2  0  0  0  0 
 31 32  1  0  0  0  0 
 31 33  1  0  0  0  0 
 33 34  2  0  0  0  0 
 28 34  1  0  0  0  0 
 34 35  1  0  0  0  0 
 35 36  1  0  0  0  0 
 35 37  2  0  0  0  0 
 25 37  1  0  0  0  0 
 37 38  1  0  0  0  0 
 33 39  1  0  0  0  0 
 39 40  1  0  0  0  0 
 39 41  1  0  0  0  0 
 41 42  1  0  0  0  0 
 41 43  1  0  0  0  0 
 43 44  1  0  0  0  0 
 43 45  1  0  0  0  0 
 45 46  1  0  0  0  0 
 45 47  1  0  0  0  0 
 47 48  1  0  0  0  0 
 47 49  1  0  0  0  0 
 49 50  2  0  0  0  0 
 49 51  1  0  0  0  0 
 51 52  1  0  0  0  0 
 47 53  1  0  0  0  0 
 39 53  1  0  0  0  0 
 45 54  1  0  0  0  0 
 54 55  1  0  0  0  0 
 43 56  1  0  0  0  0 
 56 57  1  0  0  0  0 
 41 58  1  0  0  0  0 
 58 59  1  0  0  0  0 
 29 60  1  0  0  0  0 
 60 61  1  0  0  0  0 
 60 62  1  0  0  0  0 
 62 63  2  0  0  0  0 
 63 64  1  0  0  0  0 
 63 65  1  0  0  0  0 
 65 66  1  0  0  0  0 
 65 67  2  0  0  0  0 
 67 68  1  0  0  0  0 
 68 69  2  0  0  0  0 
 62 69  1  0  0  0  0 
 69 70  1  0  0  0  0 
 68 71  1  0  0  0  0 
 67 72  1  0  0  0  0 
 72 73  1  0  0  0  0 
 73 74  1  0  0  0  0 
 73 75  1  0  0  0  0 
 73 76  1  0  0  0  0 
 76 77  2  0  0  0  0 
 77 78  1  0  0  0  0 
 77 79  1  0  0  0  0 
 79 80  1  0  0  0  0 
 79 81  2  0  0  0  0 
 81 82  1  0  0  0  0 
 81 83  1  0  0  0  0 
 83 84  2  0  0  0  0 
 76 84  1  0  0  0  0 
 84 85  1  0  0  0  0 
 83 86  1  0  0  0  0 
 24 87  1  0  0  0  0 
 19 87  1  0  0  0  0 
M  CHG  1  33   1
M  END
> <Rank>
42

> <Priority_score>
0.068

> <Reaction_type>
N-glucuronidation_(aromatic_=n-)

> <Parent_ID>
50

> <Parent_InChI>
InChI=1S/C29H26ClFN4O4S/c1-40(36,37)12-11-32-16-23-7-10-27(39-23)20-5-8-26-24(14-20)29(34-18-33-26)35-22-6-9-28(25(30)15-22)38-17-19-3-2-4-21(31)13-19/h2-10,13-15,18,32H,11-12,16-17H2,1H3,(H,33,34,35)

> <Parent_SMILES>
CS(=O)(=O)CCNCc1ccc(-c2ccc3ncnc(Nc4ccc(OCc5cccc(F)c5)c(Cl)c4)c3c2)o1

$$$$
Molecule 50_metabolite 43
  CDK     0516241031

 67 71  0  0  0  0  0  0  0  0999 V2000
    9.5744  -10.5452    0.0000 C   0  0  0  0  0  0  0  0  0  0  0  0
    9.5696  -12.0452    0.0000 H   0  0  0  0  0  0  0  0  0  0  0  0
   10.8702   -9.8052    0.0000 C   0  0  0  0  0  0  0  0  0  0  0  0
   12.1667  -10.5595    0.0000 H   0  0  0  0  0  0  0  0  0  0  0  0
   10.8732   -8.3044    0.0000 C   0  0  0  0  0  0  0  0  0  0  0  0
    9.5754   -7.5522    0.0000 C   0  0  0  0  0  0  0  0  0  0  0  0
    9.5777   -6.0522    0.0000 H   0  0  0  0  0  0  0  0  0  0  0  0
    8.2746   -8.3009    0.0000 C   0  0  0  0  0  0  0  0  0  0  0  0
    8.2766   -9.7930    0.0000 C   0  0  0  0  0  0  0  0  0  0  0  0
    6.9775  -10.5428    0.0000 H   0  0  0  0  0  0  0  0  0  0  0  0
    6.9756   -7.5509    0.0000 C   0  0  0  0  0  0  0  0  0  0  0  0
    5.4984   -7.2904    0.0000 H   0  0  0  0  0  0  0  0  0  0  0  0
    6.4625   -8.9604    0.0000 H   0  0  0  0  0  0  0  0  0  0  0  0
    6.9756   -6.0509    0.0000 O   0  0  0  0  0  0  0  0  0  0  0  0
    5.6765   -5.3009    0.0000 C   0  0  0  0  0  0  0  0  0  0  0  0
    4.3767   -6.0511    0.0000 C   0  0  0  0  0  0  0  0  0  0  0  0
    4.3769   -7.5511    0.0000 H   0  0  0  0  0  0  0  0  0  0  0  0
    3.0765   -5.3013    0.0000 C   0  0  0  0  0  0  0  0  0  0  0  0
    1.7777   -6.0517    0.0000 H   0  0  0  0  0  0  0  0  0  0  0  0
    3.0763   -3.8013    0.0000 C   0  0  0  0  0  0  0  0  0  0  0  0
    4.3762   -3.0511    0.0000 C   0  0  0  0  0  0  0  0  0  0  0  0
    4.3759   -1.5511    0.0000 H   0  0  0  0  0  0  0  0  0  0  0  0
    5.6763   -3.8009    0.0000 C   0  0  0  0  0  0  0  0  0  0  0  0
    6.9751   -3.0504    0.0000 Cl  0  0  0  0  0  0  0  0  0  0  0  0
    1.7773   -3.0513    0.0000 N   0  0  0  0  0  0  0  0  0  0  0  0
    0.4782   -3.8013    0.0000 H   0  0  0  0  0  0  0  0  0  0  0  0
    1.7773   -1.5513    0.0000 C   0  0  0  0  0  0  0  0  0  0  0  0
    0.4773   -0.8013    0.0000 C   0  0  0  0  0  0  0  0  0  0  0  0
   -0.8227   -1.5513    0.0000 C   0  0  0  0  0  0  0  0  0  0  0  0
   -0.8227   -3.0513    0.0000 H   0  0  0  0  0  0  0  0  0  0  0  0
   -2.1227   -0.8013    0.0000 C   0  0  0  0  0  0  0  0  0  0  0  0
   -2.1227    0.6987    0.0000 C   0  0  0  0  0  0  0  0  0  0  0  0
   -3.4217    1.4489    0.0000 H   0  0  0  0  0  0  0  0  0  0  0  0
   -0.8227    1.4487    0.0000 C   0  0  0  0  0  0  0  0  0  0  0  0
   -0.8227    2.9487    0.0000 H   0  0  0  0  0  0  0  0  0  0  0  0
    0.4773    0.6987    0.0000 C   0  0  0  0  0  0  0  0  0  0  0  0
    1.7773    1.4487    0.0000 N   0  0  0  0  0  0  0  0  0  0  0  0
    3.0773    0.6987    0.0000 C   0  0  0  0  0  0  0  0  0  0  0  0
    4.3762    1.4489    0.0000 H   0  0  0  0  0  0  0  0  0  0  0  0
    3.0773   -0.8013    0.0000 N   0  0  0  0  0  0  0  0  0  0  0  0
   -3.4217   -1.5515    0.0000 C   0  0  0  0  0  0  0  0  0  0  0  0
   -3.5759   -3.0457    0.0000 C   0  0  0  0  0  0  0  0  0  0  0  0
   -2.4608   -4.0490    0.0000 H   0  0  0  0  0  0  0  0  0  0  0  0
   -5.0434   -3.3560    0.0000 C   0  0  0  0  0  0  0  0  0  0  0  0
   -5.6570   -4.7248    0.0000 H   0  0  0  0  0  0  0  0  0  0  0  0
   -5.7893   -2.0521    0.0000 C   0  0  0  0  0  0  0  0  0  0  0  0
   -7.2807   -1.8919    0.0000 C   0  0  0  0  0  0  0  0  0  0  0  0
   -8.7370   -2.2514    0.0000 H   0  0  0  0  0  0  0  0  0  0  0  0
   -7.1795   -3.3885    0.0000 H   0  0  0  0  0  0  0  0  0  0  0  0
   -7.8877   -0.5202    0.0000 N   0  0  0  0  0  0  0  0  0  0  0  0
   -7.0032    0.6913    0.0000 H   0  0  0  0  0  0  0  0  0  0  0  0
   -9.8564   -0.3087    0.0000 C   0  0  0  0  0  0  0  0  0  0  0  0
  -11.3126   -0.6682    0.0000 H   0  0  0  0  0  0  0  0  0  0  0  0
   -9.7552   -1.8053    0.0000 H   0  0  0  0  0  0  0  0  0  0  0  0
  -10.4633    1.0630    0.0000 C   0  0  0  0  0  0  0  0  0  0  0  0
   -9.0070    1.4226    0.0000 H   0  0  0  0  0  0  0  0  0  0  0  0
  -10.5645    2.5596    0.0000 H   0  0  0  0  0  0  0  0  0  0  0  0
  -12.4320    1.2745    0.0000 S   0  0  0  0  0  0  0  0  0  0  0  0
  -13.8883    0.9150    0.0000 O   0  0  0  0  0  0  0  0  0  0  0  0
  -12.3308   -0.2221    0.0000 O   0  0  0  0  0  0  0  0  0  0  0  0
  -13.0389    2.6462    0.0000 C   0  0  0  0  0  0  0  0  0  0  0  0
  -14.2844    1.8103    0.0000 H   0  0  0  0  0  0  0  0  0  0  0  0
  -14.0785    3.7276    0.0000 H   0  0  0  0  0  0  0  0  0  0  0  0
  -12.1545    3.8577    0.0000 O   0  0  0  0  0  0  0  0  0  0  0  0
  -12.7614    5.2295    0.0000 H   0  0  0  0  0  0  0  0  0  0  0  0
   -4.7875   -0.9408    0.0000 O   0  0  0  0  0  0  0  0  0  0  0  0
   12.1736   -7.5568    0.0000 F   0  0  0  0  0  0  0  0  0  0  0  0
  1  2  1  0  0  0  0 
  1  3  2  0  0  0  0 
  3  4  1  0  0  0  0 
  3  5  1  0  0  0  0 
  5  6  2  0  0  0  0 
  6  7  1  0  0  0  0 
  6  8  1  0  0  0  0 
  8  9  2  0  0  0  0 
  1  9  1  0  0  0  0 
  9 10  1  0  0  0  0 
  8 11  1  0  0  0  0 
 11 12  1  0  0  0  0 
 11 13  1  0  0  0  0 
 11 14  1  0  0  0  0 
 14 15  1  0  0  0  0 
 15 16  2  0  0  0  0 
 16 17  1  0  0  0  0 
 16 18  1  0  0  0  0 
 18 19  1  0  0  0  0 
 18 20  2  0  0  0  0 
 20 21  1  0  0  0  0 
 21 22  1  0  0  0  0 
 21 23  2  0  0  0  0 
 15 23  1  0  0  0  0 
 23 24  1  0  0  0  0 
 20 25  1  0  0  0  0 
 25 26  1  0  0  0  0 
 25 27  1  0  0  0  0 
 27 28  2  0  0  0  0 
 28 29  1  0  0  0  0 
 29 30  1  0  0  0  0 
 29 31  2  0  0  0  0 
 31 32  1  0  0  0  0 
 32 33  1  0  0  0  0 
 32 34  2  0  0  0  0 
 34 35  1  0  0  0  0 
 34 36  1  0  0  0  0 
 28 36  1  0  0  0  0 
 36 37  2  0  0  0  0 
 37 38  1  0  0  0  0 
 38 39  1  0  0  0  0 
 38 40  2  0  0  0  0 
 27 40  1  0  0  0  0 
 31 41  1  0  0  0  0 
 41 42  2  0  0  0  0 
 42 43  1  0  0  0  0 
 42 44  1  0  0  0  0 
 44 45  1  0  0  0  0 
 44 46  2  0  0  0  0 
 46 47  1  0  0  0  0 
 47 48  1  0  0  0  0 
 47 49  1  0  0  0  0 
 47 50  1  0  0  0  0 
 50 51  1  0  0  0  0 
 50 52  1  0  0  0  0 
 52 53  1  0  0  0  0 
 52 54  1  0  0  0  0 
 52 55  1  0  0  0  0 
 55 56  1  0  0  0  0 
 55 57  1  0  0  0  0 
 55 58  1  0  0  0  0 
 58 59  2  0  0  0  0 
 58 60  2  0  0  0  0 
 58 61  1  0  0  0  0 
 61 62  1  0  0  0  0 
 61 63  1  0  0  0  0 
 61 64  1  0  0  0  0 
 64 65  1  0  0  0  0 
 46 66  1  0  0  0  0 
 41 66  1  0  0  0  0 
  5 67  1  0  0  0  0 
M  END
> <Rank>
43

> <Priority_score>
0.06355763604447046

> <Reaction_type>
aliphatic hydroxylation

> <Parent_ID>
50

> <Parent_InChI>
InChI=1S/C29H26ClFN4O4S/c1-40(36,37)12-11-32-16-23-7-10-27(39-23)20-5-8-26-24(14-20)29(34-18-33-26)35-22-6-9-28(25(30)15-22)38-17-19-3-2-4-21(31)13-19/h2-10,13-15,18,32H,11-12,16-17H2,1H3,(H,33,34,35)

> <Parent_SMILES>
CS(=O)(=O)CCNCc1ccc(-c2ccc3ncnc(Nc4ccc(OCc5cccc(F)c5)c(Cl)c4)c3c2)o1

$$$$
Molecule 50_metabolite 44
  CDK     0516241031

 87 92  0  0  0  0  0  0  0  0999 V2000
    6.7328   12.1696    0.0000 C   0  0  0  0  0  0  0  0  0  0  0  0
    5.5216   13.0545    0.0000 H   0  0  0  0  0  0  0  0  0  0  0  0
    8.1736   11.7524    0.0000 H   0  0  0  0  0  0  0  0  0  0  0  0
    7.3939   13.5161    0.0000 H   0  0  0  0  0  0  0  0  0  0  0  0
    6.5721   10.6782    0.0000 S   0  0  0  0  0  0  0  0  0  0  0  0
    8.0687   10.7789    0.0000 O   0  0  0  0  0  0  0  0  0  0  0  0
    6.9312    9.2218    0.0000 O   0  0  0  0  0  0  0  0  0  0  0  0
    5.2002   10.0717    0.0000 C   0  0  0  0  0  0  0  0  0  0  0  0
    3.7036    9.9710    0.0000 H   0  0  0  0  0  0  0  0  0  0  0  0
    4.8411   11.5281    0.0000 H   0  0  0  0  0  0  0  0  0  0  0  0
    4.9367    7.6259    0.0000 C   0  0  0  0  0  0  0  0  0  0  0  0
    6.4333    7.7266    0.0000 H   0  0  0  0  0  0  0  0  0  0  0  0
    5.2957    6.1695    0.0000 H   0  0  0  0  0  0  0  0  0  0  0  0
    3.5648    7.0194    0.0000 N   0  0  0  0  0  0  0  0  0  0  0  0
    2.3535    7.9042    0.0000 H   0  0  0  0  0  0  0  0  0  0  0  0
    3.3012    4.5735    0.0000 C   0  0  0  0  0  0  0  0  0  0  0  0
    4.7978    4.6742    0.0000 H   0  0  0  0  0  0  0  0  0  0  0  0
    3.6603    3.1171    0.0000 H   0  0  0  0  0  0  0  0  0  0  0  0
    1.9293    3.9670    0.0000 C   0  0  0  0  0  0  0  0  0  0  0  0
    0.6317    4.7237    0.0000 C   0  0  0  0  0  0  0  0  0  0  0  0
    0.4791    6.2159    0.0000 H   0  0  0  0  0  0  0  0  0  0  0  0
   -0.4845    3.7215    0.0000 C   0  0  0  0  0  0  0  0  0  0  0  0
   -1.9517    4.0333    0.0000 H   0  0  0  0  0  0  0  0  0  0  0  0
    0.1286    2.3502    0.0000 C   0  0  0  0  0  0  0  0  0  0  0  0
   -0.6216    1.0513    0.0000 C   0  0  0  0  0  0  0  0  0  0  0  0
    0.1284   -0.2487    0.0000 C   0  0  0  0  0  0  0  0  0  0  0  0
    1.6284   -0.2487    0.0000 H   0  0  0  0  0  0  0  0  0  0  0  0
   -0.6216   -1.5487    0.0000 C   0  0  0  0  0  0  0  0  0  0  0  0
    0.1284   -2.8487    0.0000 C   0  0  0  0  0  0  0  0  0  0  0  0
    3.0684   -2.8487    0.0000 N   0  0  0  0  0  0  0  0  0  0  0  0
    3.8184   -4.1478    0.0000 H   0  0  0  0  0  0  0  0  0  0  0  0
    3.8184   -1.5497    0.0000 C   0  0  0  0  0  0  0  0  0  0  0  0
    5.1183   -2.2999    0.0000 C   0  0  0  0  0  0  0  0  0  0  0  0
    5.1181   -3.7999    0.0000 H   0  0  0  0  0  0  0  0  0  0  0  0
    6.4184   -1.5501    0.0000 C   0  0  0  0  0  0  0  0  0  0  0  0
    7.7172   -2.3005    0.0000 H   0  0  0  0  0  0  0  0  0  0  0  0
    6.4187   -0.0501    0.0000 C   0  0  0  0  0  0  0  0  0  0  0  0
    5.1188    0.7001    0.0000 C   0  0  0  0  0  0  0  0  0  0  0  0
    3.8187   -0.0497    0.0000 C   0  0  0  0  0  0  0  0  0  0  0  0
    1.5073    0.7924    0.0000 H   0  0  0  0  0  0  0  0  0  0  0  0
    4.8586    2.1774    0.0000 Cl  0  0  0  0  0  0  0  0  0  0  0  0
    7.7177    0.6999    0.0000 O   0  0  0  0  0  0  0  0  0  0  0  0
    9.0168   -0.0501    0.0000 C   0  0  0  0  0  0  0  0  0  0  0  0
    9.9809   -1.1992    0.0000 H   0  0  0  0  0  0  0  0  0  0  0  0
    8.0526   -1.1992    0.0000 H   0  0  0  0  0  0  0  0  0  0  0  0
   10.3158    0.6999    0.0000 C   0  0  0  0  0  0  0  0  0  0  0  0
   10.3178    2.1921    0.0000 C   0  0  0  0  0  0  0  0  0  0  0  0
    9.0187    2.9419    0.0000 H   0  0  0  0  0  0  0  0  0  0  0  0
   11.6156    2.9443    0.0000 C   0  0  0  0  0  0  0  0  0  0  0  0
   11.6108    4.4442    0.0000 H   0  0  0  0  0  0  0  0  0  0  0  0
   12.9114    2.2043    0.0000 C   0  0  0  0  0  0  0  0  0  0  0  0
   14.2079    2.9586    0.0000 H   0  0  0  0  0  0  0  0  0  0  0  0
   12.9143    0.7034    0.0000 C   0  0  0  0  0  0  0  0  0  0  0  0
   11.6166   -0.0488    0.0000 C   0  0  0  0  0  0  0  0  0  0  0  0
   11.6188   -1.5488    0.0000 H   0  0  0  0  0  0  0  0  0  0  0  0
   14.2148   -0.0442    0.0000 F   0  0  0  0  0  0  0  0  0  0  0  0
   -0.6216   -4.1487    0.0000 N   0  0  0  0  0  0  0  0  0  0  0  0
   -2.1216   -4.1487    0.0000 C   0  0  0  0  0  0  0  0  0  0  0  0
   -2.8718   -5.4476    0.0000 H   0  0  0  0  0  0  0  0  0  0  0  0
   -2.8716   -2.8487    0.0000 N   0  0  0  0  0  0  0  0  0  0  0  0
   -2.1216   -1.5487    0.0000 C   0  0  0  0  0  0  0  0  0  0  0  0
   -2.8716   -0.2487    0.0000 C   0  0  0  0  0  0  0  0  0  0  0  0
   -4.3716   -0.2487    0.0000 H   0  0  0  0  0  0  0  0  0  0  0  0
   -2.1216    1.0513    0.0000 C   0  0  0  0  0  0  0  0  0  0  0  0
   -2.8718    2.3502    0.0000 H   0  0  0  0  0  0  0  0  0  0  0  0
    0.8488   -6.6946    0.0000 C   0  0  0  0  0  0  0  0  0  0  0  0
    1.9979   -5.7304    0.0000 H   0  0  0  0  0  0  0  0  0  0  0  0
    1.9979   -7.6588    0.0000 C   0  0  0  0  0  0  0  0  0  0  0  0
    2.7481   -6.3599    0.0000 H   0  0  0  0  0  0  0  0  0  0  0  0
    1.7367   -9.1368    0.0000 C   0  0  0  0  0  0  0  0  0  0  0  0
    3.2367   -9.1370    0.0000 H   0  0  0  0  0  0  0  0  0  0  0  0
    0.3265   -9.6505    0.0000 C   0  0  0  0  0  0  0  0  0  0  0  0
    1.0767  -10.9494    0.0000 H   0  0  0  0  0  0  0  0  0  0  0  0
   -0.8225   -8.6862    0.0000 C   0  0  0  0  0  0  0  0  0  0  0  0
   -1.5727   -9.9851    0.0000 H   0  0  0  0  0  0  0  0  0  0  0  0
   -2.6829   -8.0085    0.0000 C   0  0  0  0  0  0  0  0  0  0  0  0
   -2.9430   -6.5312    0.0000 O   0  0  0  0  0  0  0  0  0  0  0  0
   -3.8322   -8.9724    0.0000 O   0  0  0  0  0  0  0  0  0  0  0  0
   -3.5722  -10.4497    0.0000 H   0  0  0  0  0  0  0  0  0  0  0  0
   -0.5613   -7.2083    0.0000 O   0  0  0  0  0  0  0  0  0  0  0  0
   -0.8225  -10.6147    0.0000 O   0  0  0  0  0  0  0  0  0  0  0  0
   -0.5620  -12.0919    0.0000 H   0  0  0  0  0  0  0  0  0  0  0  0
    1.9972  -10.6140    0.0000 O   0  0  0  0  0  0  0  0  0  0  0  0
    3.4068  -11.1269    0.0000 H   0  0  0  0  0  0  0  0  0  0  0  0
    3.8583   -8.3365    0.0000 O   0  0  0  0  0  0  0  0  0  0  0  0
    4.1184   -9.8138    0.0000 H   0  0  0  0  0  0  0  0  0  0  0  0
    1.6169    2.5038    0.0000 O   0  0  0  0  0  0  0  0  0  0  0  0
  1  2  1  0  0  0  0 
  1  3  1  0  0  0  0 
  1  4  1  0  0  0  0 
  1  5  1  0  0  0  0 
  5  6  2  0  0  0  0 
  5  7  2  0  0  0  0 
  5  8  1  0  0  0  0 
  8  9  1  0  0  0  0 
  8 10  1  0  0  0  0 
  8 11  1  0  0  0  0 
 11 12  1  0  0  0  0 
 11 13  1  0  0  0  0 
 11 14  1  0  0  0  0 
 14 15  1  0  0  0  0 
 14 16  1  0  0  0  0 
 16 17  1  0  0  0  0 
 16 18  1  0  0  0  0 
 16 19  1  0  0  0  0 
 19 20  2  0  0  0  0 
 20 21  1  0  0  0  0 
 20 22  1  0  0  0  0 
 22 23  1  0  0  0  0 
 22 24  2  0  0  0  0 
 24 25  1  0  0  0  0 
 25 26  2  0  0  0  0 
 26 27  1  0  0  0  0 
 26 28  1  0  0  0  0 
 28 29  2  0  0  0  0 
 29 30  1  0  0  0  0 
 30 31  1  0  0  0  0 
 30 32  1  0  0  0  0 
 32 33  2  0  0  0  0 
 33 34  1  0  0  0  0 
 33 35  1  0  0  0  0 
 35 36  1  0  0  0  0 
 35 37  2  0  0  0  0 
 37 38  1  0  0  0  0 
 38 39  2  0  0  0  0 
 32 39  1  0  0  0  0 
 39 40  1  0  0  0  0 
 38 41  1  0  0  0  0 
 37 42  1  0  0  0  0 
 42 43  1  0  0  0  0 
 43 44  1  0  0  0  0 
 43 45  1  0  0  0  0 
 43 46  1  0  0  0  0 
 46 47  2  0  0  0  0 
 47 48  1  0  0  0  0 
 47 49  1  0  0  0  0 
 49 50  1  0  0  0  0 
 49 51  2  0  0  0  0 
 51 52  1  0  0  0  0 
 51 53  1  0  0  0  0 
 53 54  2  0  0  0  0 
 46 54  1  0  0  0  0 
 54 55  1  0  0  0  0 
 53 56  1  0  0  0  0 
 29 57  1  0  0  0  0 
 57 58  2  0  0  0  0 
 58 59  1  0  0  0  0 
 58 60  1  0  0  0  0 
 60 61  2  0  0  0  0 
 28 61  1  0  0  0  0 
 61 62  1  0  0  0  0 
 62 63  1  0  0  0  0 
 62 64  2  0  0  0  0 
 25 64  1  0  0  0  0 
 64 65  1  0  0  0  0 
 57 66  1  0  0  0  0 
 66 67  1  0  0  0  0 
 66 68  1  0  0  0  0 
 68 69  1  0  0  0  0 
 68 70  1  0  0  0  0 
 70 71  1  0  0  0  0 
 70 72  1  0  0  0  0 
 72 73  1  0  0  0  0 
 72 74  1  0  0  0  0 
 74 75  1  0  0  0  0 
 74 76  1  0  0  0  0 
 76 77  2  0  0  0  0 
 76 78  1  0  0  0  0 
 78 79  1  0  0  0  0 
 74 80  1  0  0  0  0 
 66 80  1  0  0  0  0 
 72 81  1  0  0  0  0 
 81 82  1  0  0  0  0 
 70 83  1  0  0  0  0 
 83 84  1  0  0  0  0 
 68 85  1  0  0  0  0 
 85 86  1  0  0  0  0 
 24 87  1  0  0  0  0 
 19 87  1  0  0  0  0 
M  CHG  1  57   1
M  END
> <Rank>
44

> <Priority_score>
0.044

> <Reaction_type>
N-glucuronidation_(aromatic_=n-)

> <Parent_ID>
50

> <Parent_InChI>
InChI=1S/C29H26ClFN4O4S/c1-40(36,37)12-11-32-16-23-7-10-27(39-23)20-5-8-26-24(14-20)29(34-18-33-26)35-22-6-9-28(25(30)15-22)38-17-19-3-2-4-21(31)13-19/h2-10,13-15,18,32H,11-12,16-17H2,1H3,(H,33,34,35)

> <Parent_SMILES>
CS(=O)(=O)CCNCc1ccc(-c2ccc3ncnc(Nc4ccc(OCc5cccc(F)c5)c(Cl)c4)c3c2)o1

$$$$
Molecule 50_metabolite 45
  CDK     0516241031

 67 71  0  0  0  0  0  0  0  0999 V2000
  -12.2866   -7.9501    0.0000 C   0  0  0  0  0  0  0  0  0  0  0  0
  -13.1715   -6.7389    0.0000 H   0  0  0  0  0  0  0  0  0  0  0  0
  -11.8694   -9.3909    0.0000 H   0  0  0  0  0  0  0  0  0  0  0  0
  -13.6331   -8.6112    0.0000 H   0  0  0  0  0  0  0  0  0  0  0  0
  -10.7952   -7.7894    0.0000 S   0  0  0  0  0  0  0  0  0  0  0  0
  -10.8960   -9.2860    0.0000 O   0  0  0  0  0  0  0  0  0  0  0  0
   -9.3388   -8.1485    0.0000 O   0  0  0  0  0  0  0  0  0  0  0  0
  -10.1887   -6.4175    0.0000 C   0  0  0  0  0  0  0  0  0  0  0  0
  -10.0880   -4.9209    0.0000 H   0  0  0  0  0  0  0  0  0  0  0  0
  -11.6451   -6.0584    0.0000 H   0  0  0  0  0  0  0  0  0  0  0  0
   -8.2201   -6.2054    0.0000 C   0  0  0  0  0  0  0  0  0  0  0  0
   -8.3208   -7.7020    0.0000 H   0  0  0  0  0  0  0  0  0  0  0  0
   -6.7637   -6.5645    0.0000 H   0  0  0  0  0  0  0  0  0  0  0  0
   -7.6136   -4.8335    0.0000 N   0  0  0  0  0  0  0  0  0  0  0  0
   -8.4985   -3.6223    0.0000 H   0  0  0  0  0  0  0  0  0  0  0  0
   -5.6450   -4.6214    0.0000 C   0  0  0  0  0  0  0  0  0  0  0  0
   -5.7457   -6.1180    0.0000 H   0  0  0  0  0  0  0  0  0  0  0  0
   -4.1886   -4.9804    0.0000 H   0  0  0  0  0  0  0  0  0  0  0  0
   -5.0385   -3.2494    0.0000 C   0  0  0  0  0  0  0  0  0  0  0  0
   -5.7952   -1.9518    0.0000 C   0  0  0  0  0  0  0  0  0  0  0  0
   -7.2874   -1.7993    0.0000 H   0  0  0  0  0  0  0  0  0  0  0  0
   -4.7930   -0.8357    0.0000 C   0  0  0  0  0  0  0  0  0  0  0  0
   -5.1048    0.6316    0.0000 H   0  0  0  0  0  0  0  0  0  0  0  0
   -3.4217   -1.4488    0.0000 C   0  0  0  0  0  0  0  0  0  0  0  0
   -2.1228   -0.6986    0.0000 C   0  0  0  0  0  0  0  0  0  0  0  0
   -2.1228    0.8014    0.0000 C   0  0  0  0  0  0  0  0  0  0  0  0
   -0.8228    1.5514    0.0000 C   0  0  0  0  0  0  0  0  0  0  0  0
   -0.8228    3.0514    0.0000 H   0  0  0  0  0  0  0  0  0  0  0  0
    0.4772    0.8014    0.0000 C   0  0  0  0  0  0  0  0  0  0  0  0
    0.4772   -0.6986    0.0000 C   0  0  0  0  0  0  0  0  0  0  0  0
   -0.8228   -1.4486    0.0000 C   0  0  0  0  0  0  0  0  0  0  0  0
   -0.8228   -2.9486    0.0000 H   0  0  0  0  0  0  0  0  0  0  0  0
    1.7772   -1.4486    0.0000 C   0  0  0  0  0  0  0  0  0  0  0  0
    3.0772   -0.6986    0.0000 N   0  0  0  0  0  0  0  0  0  0  0  0
    3.0772    0.8014    0.0000 C   0  0  0  0  0  0  0  0  0  0  0  0
    4.3762    1.5516    0.0000 H   0  0  0  0  0  0  0  0  0  0  0  0
    1.7772    1.5514    0.0000 N   0  0  0  0  0  0  0  0  0  0  0  0
    1.7772   -2.9486    0.0000 N   0  0  0  0  0  0  0  0  0  0  0  0
    0.4782   -3.6986    0.0000 H   0  0  0  0  0  0  0  0  0  0  0  0
    3.0763   -3.6986    0.0000 C   0  0  0  0  0  0  0  0  0  0  0  0
    4.3762   -2.9484    0.0000 C   0  0  0  0  0  0  0  0  0  0  0  0
    4.3759   -1.4484    0.0000 H   0  0  0  0  0  0  0  0  0  0  0  0
    5.6763   -3.6982    0.0000 C   0  0  0  0  0  0  0  0  0  0  0  0
    6.9751   -2.9477    0.0000 H   0  0  0  0  0  0  0  0  0  0  0  0
    5.6765   -5.1982    0.0000 C   0  0  0  0  0  0  0  0  0  0  0  0
    4.3766   -5.9484    0.0000 C   0  0  0  0  0  0  0  0  0  0  0  0
    3.0765   -5.1986    0.0000 C   0  0  0  0  0  0  0  0  0  0  0  0
    1.7777   -5.9490    0.0000 H   0  0  0  0  0  0  0  0  0  0  0  0
    4.3769   -7.4484    0.0000 Cl  0  0  0  0  0  0  0  0  0  0  0  0
    6.9756   -5.9482    0.0000 O   0  0  0  0  0  0  0  0  0  0  0  0
    8.2746   -5.1982    0.0000 C   0  0  0  0  0  0  0  0  0  0  0  0
    9.2388   -4.0491    0.0000 H   0  0  0  0  0  0  0  0  0  0  0  0
    7.3104   -4.0491    0.0000 H   0  0  0  0  0  0  0  0  0  0  0  0
    9.5736   -5.9482    0.0000 C   0  0  0  0  0  0  0  0  0  0  0  0
    9.5757   -7.4403    0.0000 C   0  0  0  0  0  0  0  0  0  0  0  0
    8.2765   -8.1901    0.0000 H   0  0  0  0  0  0  0  0  0  0  0  0
   10.8734   -8.1925    0.0000 C   0  0  0  0  0  0  0  0  0  0  0  0
   10.8686   -9.6925    0.0000 H   0  0  0  0  0  0  0  0  0  0  0  0
   12.1692   -7.4525    0.0000 C   0  0  0  0  0  0  0  0  0  0  0  0
   13.4657   -8.2069    0.0000 H   0  0  0  0  0  0  0  0  0  0  0  0
   12.1722   -5.9517    0.0000 C   0  0  0  0  0  0  0  0  0  0  0  0
   10.8744   -5.1995    0.0000 C   0  0  0  0  0  0  0  0  0  0  0  0
   10.8767   -3.6995    0.0000 H   0  0  0  0  0  0  0  0  0  0  0  0
   13.4726   -5.2041    0.0000 F   0  0  0  0  0  0  0  0  0  0  0  0
   -3.4217    1.5516    0.0000 O   0  0  0  0  0  0  0  0  0  0  0  0
   -3.4214    3.0516    0.0000 H   0  0  0  0  0  0  0  0  0  0  0  0
   -3.5753   -2.9370    0.0000 O   0  0  0  0  0  0  0  0  0  0  0  0
  1  2  1  0  0  0  0 
  1  3  1  0  0  0  0 
  1  4  1  0  0  0  0 
  1  5  1  0  0  0  0 
  5  6  2  0  0  0  0 
  5  7  2  0  0  0  0 
  5  8  1  0  0  0  0 
  8  9  1  0  0  0  0 
  8 10  1  0  0  0  0 
  8 11  1  0  0  0  0 
 11 12  1  0  0  0  0 
 11 13  1  0  0  0  0 
 11 14  1  0  0  0  0 
 14 15  1  0  0  0  0 
 14 16  1  0  0  0  0 
 16 17  1  0  0  0  0 
 16 18  1  0  0  0  0 
 16 19  1  0  0  0  0 
 19 20  2  0  0  0  0 
 20 21  1  0  0  0  0 
 20 22  1  0  0  0  0 
 22 23  1  0  0  0  0 
 22 24  2  0  0  0  0 
 24 25  1  0  0  0  0 
 25 26  2  0  0  0  0 
 26 27  1  0  0  0  0 
 27 28  1  0  0  0  0 
 27 29  2  0  0  0  0 
 29 30  1  0  0  0  0 
 30 31  2  0  0  0  0 
 25 31  1  0  0  0  0 
 31 32  1  0  0  0  0 
 30 33  1  0  0  0  0 
 33 34  2  0  0  0  0 
 34 35  1  0  0  0  0 
 35 36  1  0  0  0  0 
 35 37  2  0  0  0  0 
 29 37  1  0  0  0  0 
 33 38  1  0  0  0  0 
 38 39  1  0  0  0  0 
 38 40  1  0  0  0  0 
 40 41  2  0  0  0  0 
 41 42  1  0  0  0  0 
 41 43  1  0  0  0  0 
 43 44  1  0  0  0  0 
 43 45  2  0  0  0  0 
 45 46  1  0  0  0  0 
 46 47  2  0  0  0  0 
 40 47  1  0  0  0  0 
 47 48  1  0  0  0  0 
 46 49  1  0  0  0  0 
 45 50  1  0  0  0  0 
 50 51  1  0  0  0  0 
 51 52  1  0  0  0  0 
 51 53  1  0  0  0  0 
 51 54  1  0  0  0  0 
 54 55  2  0  0  0  0 
 55 56  1  0  0  0  0 
 55 57  1  0  0  0  0 
 57 58  1  0  0  0  0 
 57 59  2  0  0  0  0 
 59 60  1  0  0  0  0 
 59 61  1  0  0  0  0 
 61 62  2  0  0  0  0 
 54 62  1  0  0  0  0 
 62 63  1  0  0  0  0 
 61 64  1  0  0  0  0 
 26 65  1  0  0  0  0 
 65 66  1  0  0  0  0 
 24 67  1  0  0  0  0 
 19 67  1  0  0  0  0 
M  END
> <Rank>
45

> <Priority_score>
0.036

> <Reaction_type>
aromatic_hydroxylation_(para_to_carbon)

> <Parent_ID>
50

> <Parent_InChI>
InChI=1S/C29H26ClFN4O4S/c1-40(36,37)12-11-32-16-23-7-10-27(39-23)20-5-8-26-24(14-20)29(34-18-33-26)35-22-6-9-28(25(30)15-22)38-17-19-3-2-4-21(31)13-19/h2-10,13-15,18,32H,11-12,16-17H2,1H3,(H,33,34,35)

> <Parent_SMILES>
CS(=O)(=O)CCNCc1ccc(-c2ccc3ncnc(Nc4ccc(OCc5cccc(F)c5)c(Cl)c4)c3c2)o1

$$$$
Molecule 50_metabolite 46
  CDK     0516241031

 67 71  0  0  0  0  0  0  0  0999 V2000
  -12.2866   -7.9501    0.0000 C   0  0  0  0  0  0  0  0  0  0  0  0
  -13.1715   -6.7389    0.0000 H   0  0  0  0  0  0  0  0  0  0  0  0
  -11.8694   -9.3909    0.0000 H   0  0  0  0  0  0  0  0  0  0  0  0
  -13.6331   -8.6112    0.0000 H   0  0  0  0  0  0  0  0  0  0  0  0
  -10.7952   -7.7894    0.0000 S   0  0  0  0  0  0  0  0  0  0  0  0
  -10.8960   -9.2860    0.0000 O   0  0  0  0  0  0  0  0  0  0  0  0
   -9.3388   -8.1485    0.0000 O   0  0  0  0  0  0  0  0  0  0  0  0
  -10.1887   -6.4175    0.0000 C   0  0  0  0  0  0  0  0  0  0  0  0
  -10.0880   -4.9209    0.0000 H   0  0  0  0  0  0  0  0  0  0  0  0
  -11.6451   -6.0584    0.0000 H   0  0  0  0  0  0  0  0  0  0  0  0
   -8.2201   -6.2054    0.0000 C   0  0  0  0  0  0  0  0  0  0  0  0
   -8.3208   -7.7020    0.0000 H   0  0  0  0  0  0  0  0  0  0  0  0
   -6.7637   -6.5645    0.0000 H   0  0  0  0  0  0  0  0  0  0  0  0
   -7.6136   -4.8335    0.0000 N   0  0  0  0  0  0  0  0  0  0  0  0
   -8.4985   -3.6223    0.0000 H   0  0  0  0  0  0  0  0  0  0  0  0
   -5.6450   -4.6214    0.0000 C   0  0  0  0  0  0  0  0  0  0  0  0
   -5.7457   -6.1180    0.0000 H   0  0  0  0  0  0  0  0  0  0  0  0
   -4.1886   -4.9804    0.0000 H   0  0  0  0  0  0  0  0  0  0  0  0
   -5.0385   -3.2494    0.0000 C   0  0  0  0  0  0  0  0  0  0  0  0
   -5.7952   -1.9518    0.0000 C   0  0  0  0  0  0  0  0  0  0  0  0
   -7.2874   -1.7993    0.0000 H   0  0  0  0  0  0  0  0  0  0  0  0
   -4.7930   -0.8357    0.0000 C   0  0  0  0  0  0  0  0  0  0  0  0
   -5.1048    0.6316    0.0000 H   0  0  0  0  0  0  0  0  0  0  0  0
   -3.4217   -1.4488    0.0000 C   0  0  0  0  0  0  0  0  0  0  0  0
   -2.1228   -0.6986    0.0000 C   0  0  0  0  0  0  0  0  0  0  0  0
   -0.8228   -1.4486    0.0000 C   0  0  0  0  0  0  0  0  0  0  0  0
   -0.8228   -2.9486    0.0000 H   0  0  0  0  0  0  0  0  0  0  0  0
    0.4772   -0.6986    0.0000 C   0  0  0  0  0  0  0  0  0  0  0  0
    1.7772   -1.4486    0.0000 C   0  0  0  0  0  0  0  0  0  0  0  0
    3.0772   -0.6986    0.0000 N   0  0  0  0  0  0  0  0  0  0  0  0
    3.0772    0.8014    0.0000 C   0  0  0  0  0  0  0  0  0  0  0  0
    4.3762    1.5516    0.0000 H   0  0  0  0  0  0  0  0  0  0  0  0
    1.7772    1.5514    0.0000 N   0  0  0  0  0  0  0  0  0  0  0  0
    0.4772    0.8014    0.0000 C   0  0  0  0  0  0  0  0  0  0  0  0
   -0.8228    1.5514    0.0000 C   0  0  0  0  0  0  0  0  0  0  0  0
   -0.8228    3.0514    0.0000 H   0  0  0  0  0  0  0  0  0  0  0  0
   -2.1228    0.8014    0.0000 C   0  0  0  0  0  0  0  0  0  0  0  0
   -3.4217    1.5516    0.0000 H   0  0  0  0  0  0  0  0  0  0  0  0
    1.7772   -2.9486    0.0000 N   0  0  0  0  0  0  0  0  0  0  0  0
    0.4782   -3.6986    0.0000 H   0  0  0  0  0  0  0  0  0  0  0  0
    3.0763   -3.6986    0.0000 C   0  0  0  0  0  0  0  0  0  0  0  0
    4.3762   -2.9484    0.0000 C   0  0  0  0  0  0  0  0  0  0  0  0
    4.3759   -1.4484    0.0000 H   0  0  0  0  0  0  0  0  0  0  0  0
    5.6763   -3.6982    0.0000 C   0  0  0  0  0  0  0  0  0  0  0  0
    6.9751   -2.9477    0.0000 H   0  0  0  0  0  0  0  0  0  0  0  0
    5.6765   -5.1982    0.0000 C   0  0  0  0  0  0  0  0  0  0  0  0
    4.3766   -5.9484    0.0000 C   0  0  0  0  0  0  0  0  0  0  0  0
    3.0765   -5.1986    0.0000 C   0  0  0  0  0  0  0  0  0  0  0  0
    1.7777   -5.9490    0.0000 H   0  0  0  0  0  0  0  0  0  0  0  0
    4.3769   -7.4484    0.0000 Cl  0  0  0  0  0  0  0  0  0  0  0  0
    6.9756   -5.9482    0.0000 O   0  0  0  0  0  0  0  0  0  0  0  0
    8.2746   -5.1982    0.0000 C   0  0  0  0  0  0  0  0  0  0  0  0
    9.2388   -4.0491    0.0000 H   0  0  0  0  0  0  0  0  0  0  0  0
    7.3104   -4.0491    0.0000 H   0  0  0  0  0  0  0  0  0  0  0  0
    9.5736   -5.9482    0.0000 C   0  0  0  0  0  0  0  0  0  0  0  0
   10.8735   -5.1980    0.0000 C   0  0  0  0  0  0  0  0  0  0  0  0
   10.8733   -3.6980    0.0000 H   0  0  0  0  0  0  0  0  0  0  0  0
   12.1736   -5.9477    0.0000 C   0  0  0  0  0  0  0  0  0  0  0  0
   13.4724   -5.1973    0.0000 H   0  0  0  0  0  0  0  0  0  0  0  0
   12.1739   -7.4477    0.0000 C   0  0  0  0  0  0  0  0  0  0  0  0
   13.4729   -8.1977    0.0000 H   0  0  0  0  0  0  0  0  0  0  0  0
   10.8740   -8.1980    0.0000 C   0  0  0  0  0  0  0  0  0  0  0  0
    9.5739   -7.4482    0.0000 C   0  0  0  0  0  0  0  0  0  0  0  0
    8.2751   -8.1986    0.0000 O   0  0  0  0  0  0  0  0  0  0  0  0
    8.2756   -9.6986    0.0000 H   0  0  0  0  0  0  0  0  0  0  0  0
   10.8742   -9.6980    0.0000 F   0  0  0  0  0  0  0  0  0  0  0  0
   -3.5753   -2.9370    0.0000 O   0  0  0  0  0  0  0  0  0  0  0  0
  1  2  1  0  0  0  0 
  1  3  1  0  0  0  0 
  1  4  1  0  0  0  0 
  1  5  1  0  0  0  0 
  5  6  2  0  0  0  0 
  5  7  2  0  0  0  0 
  5  8  1  0  0  0  0 
  8  9  1  0  0  0  0 
  8 10  1  0  0  0  0 
  8 11  1  0  0  0  0 
 11 12  1  0  0  0  0 
 11 13  1  0  0  0  0 
 11 14  1  0  0  0  0 
 14 15  1  0  0  0  0 
 14 16  1  0  0  0  0 
 16 17  1  0  0  0  0 
 16 18  1  0  0  0  0 
 16 19  1  0  0  0  0 
 19 20  2  0  0  0  0 
 20 21  1  0  0  0  0 
 20 22  1  0  0  0  0 
 22 23  1  0  0  0  0 
 22 24  2  0  0  0  0 
 24 25  1  0  0  0  0 
 25 26  2  0  0  0  0 
 26 27  1  0  0  0  0 
 26 28  1  0  0  0  0 
 28 29  2  0  0  0  0 
 29 30  1  0  0  0  0 
 30 31  2  0  0  0  0 
 31 32  1  0  0  0  0 
 31 33  1  0  0  0  0 
 33 34  2  0  0  0  0 
 28 34  1  0  0  0  0 
 34 35  1  0  0  0  0 
 35 36  1  0  0  0  0 
 35 37  2  0  0  0  0 
 25 37  1  0  0  0  0 
 37 38  1  0  0  0  0 
 29 39  1  0  0  0  0 
 39 40  1  0  0  0  0 
 39 41  1  0  0  0  0 
 41 42  2  0  0  0  0 
 42 43  1  0  0  0  0 
 42 44  1  0  0  0  0 
 44 45  1  0  0  0  0 
 44 46  2  0  0  0  0 
 46 47  1  0  0  0  0 
 47 48  2  0  0  0  0 
 41 48  1  0  0  0  0 
 48 49  1  0  0  0  0 
 47 50  1  0  0  0  0 
 46 51  1  0  0  0  0 
 51 52  1  0  0  0  0 
 52 53  1  0  0  0  0 
 52 54  1  0  0  0  0 
 52 55  1  0  0  0  0 
 55 56  2  0  0  0  0 
 56 57  1  0  0  0  0 
 56 58  1  0  0  0  0 
 58 59  1  0  0  0  0 
 58 60  2  0  0  0  0 
 60 61  1  0  0  0  0 
 60 62  1  0  0  0  0 
 62 63  2  0  0  0  0 
 55 63  1  0  0  0  0 
 63 64  1  0  0  0  0 
 64 65  1  0  0  0  0 
 62 66  1  0  0  0  0 
 24 67  1  0  0  0  0 
 19 67  1  0  0  0  0 
M  END
> <Rank>
46

> <Priority_score>
0.024

> <Reaction_type>
aromatic hydroxylation

> <Parent_ID>
50

> <Parent_InChI>
InChI=1S/C29H26ClFN4O4S/c1-40(36,37)12-11-32-16-23-7-10-27(39-23)20-5-8-26-24(14-20)29(34-18-33-26)35-22-6-9-28(25(30)15-22)38-17-19-3-2-4-21(31)13-19/h2-10,13-15,18,32H,11-12,16-17H2,1H3,(H,33,34,35)

> <Parent_SMILES>
CS(=O)(=O)CCNCc1ccc(-c2ccc3ncnc(Nc4ccc(OCc5cccc(F)c5)c(Cl)c4)c3c2)o1

$$$$
Molecule 50_metabolite 47
  CDK     0516241031

 27 28  0  0  0  0  0  0  0  0999 V2000
    0.4258   -0.3788    0.0000 C   0  0  0  0  0  0  0  0  0  0  0  0
   -0.3261   -1.6767    0.0000 H   0  0  0  0  0  0  0  0  0  0  0  0
    1.9180   -0.3833    0.0000 C   0  0  0  0  0  0  0  0  0  0  0  0
    2.6658   -1.6836    0.0000 H   0  0  0  0  0  0  0  0  0  0  0  0
    2.6688    0.9162    0.0000 C   0  0  0  0  0  0  0  0  0  0  0  0
    1.9188    2.2153    0.0000 C   0  0  0  0  0  0  0  0  0  0  0  0
    2.6686    3.5144    0.0000 H   0  0  0  0  0  0  0  0  0  0  0  0
    0.4180    2.2148    0.0000 C   0  0  0  0  0  0  0  0  0  0  0  0
   -0.3242    0.9203    0.0000 C   0  0  0  0  0  0  0  0  0  0  0  0
   -1.8242    0.9180    0.0000 H   0  0  0  0  0  0  0  0  0  0  0  0
   -0.3342    3.5126    0.0000 C   0  0  0  0  0  0  0  0  0  0  0  0
    1.0745    4.0280    0.0000 H   0  0  0  0  0  0  0  0  0  0  0  0
   -0.5971    4.9894    0.0000 H   0  0  0  0  0  0  0  0  0  0  0  0
   -1.8342    3.5101    0.0000 O   0  0  0  0  0  0  0  0  0  0  0  0
   -2.8270    5.2231    0.0000 C   0  0  0  0  0  0  0  0  0  0  0  0
   -1.4184    5.7387    0.0000 H   0  0  0  0  0  0  0  0  0  0  0  0
   -3.9752    4.2566    0.0000 C   0  0  0  0  0  0  0  0  0  0  0  0
   -3.7120    2.7799    0.0000 H   0  0  0  0  0  0  0  0  0  0  0  0
   -5.3867    4.7668    0.0000 C   0  0  0  0  0  0  0  0  0  0  0  0
   -6.5338    3.8003    0.0000 H   0  0  0  0  0  0  0  0  0  0  0  0
   -5.6499    6.2435    0.0000 C   0  0  0  0  0  0  0  0  0  0  0  0
   -7.0604    6.7541    0.0000 O   0  0  0  0  0  0  0  0  0  0  0  0
   -4.5017    7.2101    0.0000 C   0  0  0  0  0  0  0  0  0  0  0  0
   -4.7650    8.6868    0.0000 H   0  0  0  0  0  0  0  0  0  0  0  0
   -3.0903    6.6999    0.0000 C   0  0  0  0  0  0  0  0  0  0  0  0
   -1.9432    7.6664    0.0000 Cl  0  0  0  0  0  0  0  0  0  0  0  0
    4.1688    0.9160    0.0000 F   0  0  0  0  0  0  0  0  0  0  0  0
  1  2  1  0  0  0  0 
  1  3  2  0  0  0  0 
  3  4  1  0  0  0  0 
  3  5  1  0  0  0  0 
  5  6  2  0  0  0  0 
  6  7  1  0  0  0  0 
  6  8  1  0  0  0  0 
  8  9  2  0  0  0  0 
  1  9  1  0  0  0  0 
  9 10  1  0  0  0  0 
  8 11  1  0  0  0  0 
 11 12  1  0  0  0  0 
 11 13  1  0  0  0  0 
 11 14  1  0  0  0  0 
 14 15  1  0  0  0  0 
 15 16  1  0  0  0  0 
 15 17  1  0  0  0  0 
 17 18  1  0  0  0  0 
 17 19  2  0  0  0  0 
 19 20  1  0  0  0  0 
 19 21  1  0  0  0  0 
 21 22  2  0  0  0  0 
 21 23  1  0  0  0  0 
 23 24  1  0  0  0  0 
 23 25  2  0  0  0  0 
 15 25  1  0  0  0  0 
 25 26  1  0  0  0  0 
  5 27  1  0  0  0  0 
M  END
> <Rank>
47

> <Priority_score>
0.0208

> <Reaction_type>
N-dearylation

> <Parent_ID>
50

> <Parent_InChI>
InChI=1S/C29H26ClFN4O4S/c1-40(36,37)12-11-32-16-23-7-10-27(39-23)20-5-8-26-24(14-20)29(34-18-33-26)35-22-6-9-28(25(30)15-22)38-17-19-3-2-4-21(31)13-19/h2-10,13-15,18,32H,11-12,16-17H2,1H3,(H,33,34,35)

> <Parent_SMILES>
CS(=O)(=O)CCNCc1ccc(-c2ccc3ncnc(Nc4ccc(OCc5cccc(F)c5)c(Cl)c4)c3c2)o1

$$$$
Molecule 50_metabolite 48
  CDK     0516241031

 67 71  0  0  0  0  0  0  0  0999 V2000
  -12.2866   -7.9501    0.0000 C   0  0  0  0  0  0  0  0  0  0  0  0
  -13.1715   -6.7389    0.0000 H   0  0  0  0  0  0  0  0  0  0  0  0
  -11.8694   -9.3909    0.0000 H   0  0  0  0  0  0  0  0  0  0  0  0
  -13.6331   -8.6112    0.0000 H   0  0  0  0  0  0  0  0  0  0  0  0
  -10.7952   -7.7894    0.0000 S   0  0  0  0  0  0  0  0  0  0  0  0
  -10.8960   -9.2860    0.0000 O   0  0  0  0  0  0  0  0  0  0  0  0
   -9.3388   -8.1485    0.0000 O   0  0  0  0  0  0  0  0  0  0  0  0
  -10.1887   -6.4175    0.0000 C   0  0  0  0  0  0  0  0  0  0  0  0
  -10.0880   -4.9209    0.0000 H   0  0  0  0  0  0  0  0  0  0  0  0
  -11.6451   -6.0584    0.0000 H   0  0  0  0  0  0  0  0  0  0  0  0
   -8.2201   -6.2054    0.0000 C   0  0  0  0  0  0  0  0  0  0  0  0
   -8.3208   -7.7020    0.0000 H   0  0  0  0  0  0  0  0  0  0  0  0
   -6.7637   -6.5645    0.0000 H   0  0  0  0  0  0  0  0  0  0  0  0
   -7.6136   -4.8335    0.0000 N   0  0  0  0  0  0  0  0  0  0  0  0
   -8.4985   -3.6223    0.0000 H   0  0  0  0  0  0  0  0  0  0  0  0
   -5.6450   -4.6214    0.0000 C   0  0  0  0  0  0  0  0  0  0  0  0
   -5.7457   -6.1180    0.0000 H   0  0  0  0  0  0  0  0  0  0  0  0
   -4.1886   -4.9804    0.0000 H   0  0  0  0  0  0  0  0  0  0  0  0
   -5.0385   -3.2494    0.0000 C   0  0  0  0  0  0  0  0  0  0  0  0
   -5.7952   -1.9518    0.0000 C   0  0  0  0  0  0  0  0  0  0  0  0
   -7.2874   -1.7993    0.0000 H   0  0  0  0  0  0  0  0  0  0  0  0
   -4.7930   -0.8357    0.0000 C   0  0  0  0  0  0  0  0  0  0  0  0
   -5.1048    0.6316    0.0000 H   0  0  0  0  0  0  0  0  0  0  0  0
   -3.4217   -1.4488    0.0000 C   0  0  0  0  0  0  0  0  0  0  0  0
   -2.1228   -0.6986    0.0000 C   0  0  0  0  0  0  0  0  0  0  0  0
   -0.8228   -1.4486    0.0000 C   0  0  0  0  0  0  0  0  0  0  0  0
   -0.8228   -2.9486    0.0000 H   0  0  0  0  0  0  0  0  0  0  0  0
    0.4772   -0.6986    0.0000 C   0  0  0  0  0  0  0  0  0  0  0  0
    1.7772   -1.4486    0.0000 C   0  0  0  0  0  0  0  0  0  0  0  0
    3.0772   -0.6986    0.0000 N   0  0  0  0  0  0  0  0  0  0  0  0
    3.0772    0.8014    0.0000 C   0  0  0  0  0  0  0  0  0  0  0  0
    4.3762    1.5516    0.0000 H   0  0  0  0  0  0  0  0  0  0  0  0
    1.7772    1.5514    0.0000 N   0  0  0  0  0  0  0  0  0  0  0  0
    0.4772    0.8014    0.0000 C   0  0  0  0  0  0  0  0  0  0  0  0
   -0.8228    1.5514    0.0000 C   0  0  0  0  0  0  0  0  0  0  0  0
   -0.8228    3.0514    0.0000 H   0  0  0  0  0  0  0  0  0  0  0  0
   -2.1228    0.8014    0.0000 C   0  0  0  0  0  0  0  0  0  0  0  0
   -3.4217    1.5516    0.0000 H   0  0  0  0  0  0  0  0  0  0  0  0
    1.7772   -2.9486    0.0000 N   0  0  0  0  0  0  0  0  0  0  0  0
    0.4782   -3.6986    0.0000 H   0  0  0  0  0  0  0  0  0  0  0  0
    3.0763   -3.6986    0.0000 C   0  0  0  0  0  0  0  0  0  0  0  0
    4.3762   -2.9484    0.0000 C   0  0  0  0  0  0  0  0  0  0  0  0
    4.3759   -1.4484    0.0000 H   0  0  0  0  0  0  0  0  0  0  0  0
    5.6763   -3.6982    0.0000 C   0  0  0  0  0  0  0  0  0  0  0  0
    5.6765   -5.1982    0.0000 C   0  0  0  0  0  0  0  0  0  0  0  0
    4.3766   -5.9484    0.0000 C   0  0  0  0  0  0  0  0  0  0  0  0
    3.0765   -5.1986    0.0000 C   0  0  0  0  0  0  0  0  0  0  0  0
    1.7777   -5.9490    0.0000 H   0  0  0  0  0  0  0  0  0  0  0  0
    4.3769   -7.4484    0.0000 Cl  0  0  0  0  0  0  0  0  0  0  0  0
    6.9756   -5.9482    0.0000 O   0  0  0  0  0  0  0  0  0  0  0  0
    8.2746   -5.1982    0.0000 C   0  0  0  0  0  0  0  0  0  0  0  0
    9.2388   -4.0491    0.0000 H   0  0  0  0  0  0  0  0  0  0  0  0
    7.3104   -4.0491    0.0000 H   0  0  0  0  0  0  0  0  0  0  0  0
    9.5736   -5.9482    0.0000 C   0  0  0  0  0  0  0  0  0  0  0  0
    9.5757   -7.4403    0.0000 C   0  0  0  0  0  0  0  0  0  0  0  0
    8.2765   -8.1901    0.0000 H   0  0  0  0  0  0  0  0  0  0  0  0
   10.8734   -8.1925    0.0000 C   0  0  0  0  0  0  0  0  0  0  0  0
   10.8686   -9.6925    0.0000 H   0  0  0  0  0  0  0  0  0  0  0  0
   12.1692   -7.4525    0.0000 C   0  0  0  0  0  0  0  0  0  0  0  0
   13.4657   -8.2069    0.0000 H   0  0  0  0  0  0  0  0  0  0  0  0
   12.1722   -5.9517    0.0000 C   0  0  0  0  0  0  0  0  0  0  0  0
   10.8744   -5.1995    0.0000 C   0  0  0  0  0  0  0  0  0  0  0  0
   10.8767   -3.6995    0.0000 H   0  0  0  0  0  0  0  0  0  0  0  0
   13.4726   -5.2041    0.0000 F   0  0  0  0  0  0  0  0  0  0  0  0
    6.9751   -2.9477    0.0000 O   0  0  0  0  0  0  0  0  0  0  0  0
    8.2744   -3.6973    0.0000 H   0  0  0  0  0  0  0  0  0  0  0  0
   -3.5753   -2.9370    0.0000 O   0  0  0  0  0  0  0  0  0  0  0  0
  1  2  1  0  0  0  0 
  1  3  1  0  0  0  0 
  1  4  1  0  0  0  0 
  1  5  1  0  0  0  0 
  5  6  2  0  0  0  0 
  5  7  2  0  0  0  0 
  5  8  1  0  0  0  0 
  8  9  1  0  0  0  0 
  8 10  1  0  0  0  0 
  8 11  1  0  0  0  0 
 11 12  1  0  0  0  0 
 11 13  1  0  0  0  0 
 11 14  1  0  0  0  0 
 14 15  1  0  0  0  0 
 14 16  1  0  0  0  0 
 16 17  1  0  0  0  0 
 16 18  1  0  0  0  0 
 16 19  1  0  0  0  0 
 19 20  2  0  0  0  0 
 20 21  1  0  0  0  0 
 20 22  1  0  0  0  0 
 22 23  1  0  0  0  0 
 22 24  2  0  0  0  0 
 24 25  1  0  0  0  0 
 25 26  2  0  0  0  0 
 26 27  1  0  0  0  0 
 26 28  1  0  0  0  0 
 28 29  2  0  0  0  0 
 29 30  1  0  0  0  0 
 30 31  2  0  0  0  0 
 31 32  1  0  0  0  0 
 31 33  1  0  0  0  0 
 33 34  2  0  0  0  0 
 28 34  1  0  0  0  0 
 34 35  1  0  0  0  0 
 35 36  1  0  0  0  0 
 35 37  2  0  0  0  0 
 25 37  1  0  0  0  0 
 37 38  1  0  0  0  0 
 29 39  1  0  0  0  0 
 39 40  1  0  0  0  0 
 39 41  1  0  0  0  0 
 41 42  2  0  0  0  0 
 42 43  1  0  0  0  0 
 42 44  1  0  0  0  0 
 44 45  2  0  0  0  0 
 45 46  1  0  0  0  0 
 46 47  2  0  0  0  0 
 41 47  1  0  0  0  0 
 47 48  1  0  0  0  0 
 46 49  1  0  0  0  0 
 45 50  1  0  0  0  0 
 50 51  1  0  0  0  0 
 51 52  1  0  0  0  0 
 51 53  1  0  0  0  0 
 51 54  1  0  0  0  0 
 54 55  2  0  0  0  0 
 55 56  1  0  0  0  0 
 55 57  1  0  0  0  0 
 57 58  1  0  0  0  0 
 57 59  2  0  0  0  0 
 59 60  1  0  0  0  0 
 59 61  1  0  0  0  0 
 61 62  2  0  0  0  0 
 54 62  1  0  0  0  0 
 62 63  1  0  0  0  0 
 61 64  1  0  0  0  0 
 44 65  1  0  0  0  0 
 65 66  1  0  0  0  0 
 24 67  1  0  0  0  0 
 19 67  1  0  0  0  0 
M  END
> <Rank>
48

> <Priority_score>
0.02

> <Reaction_type>
aromatic_hydroxylation_(ortho_to_oxygen)

> <Parent_ID>
50

> <Parent_InChI>
InChI=1S/C29H26ClFN4O4S/c1-40(36,37)12-11-32-16-23-7-10-27(39-23)20-5-8-26-24(14-20)29(34-18-33-26)35-22-6-9-28(25(30)15-22)38-17-19-3-2-4-21(31)13-19/h2-10,13-15,18,32H,11-12,16-17H2,1H3,(H,33,34,35)

> <Parent_SMILES>
CS(=O)(=O)CCNCc1ccc(-c2ccc3ncnc(Nc4ccc(OCc5cccc(F)c5)c(Cl)c4)c3c2)o1

$$$$
Molecule 50_metabolite 49
  CDK     0516241031

 67 71  0  0  0  0  0  0  0  0999 V2000
  -12.2866   -7.9501    0.0000 C   0  0  0  0  0  0  0  0  0  0  0  0
  -13.1715   -6.7389    0.0000 H   0  0  0  0  0  0  0  0  0  0  0  0
  -11.8694   -9.3909    0.0000 H   0  0  0  0  0  0  0  0  0  0  0  0
  -13.6331   -8.6112    0.0000 H   0  0  0  0  0  0  0  0  0  0  0  0
  -10.7952   -7.7894    0.0000 S   0  0  0  0  0  0  0  0  0  0  0  0
  -10.8960   -9.2860    0.0000 O   0  0  0  0  0  0  0  0  0  0  0  0
   -9.3388   -8.1485    0.0000 O   0  0  0  0  0  0  0  0  0  0  0  0
  -10.1887   -6.4175    0.0000 C   0  0  0  0  0  0  0  0  0  0  0  0
  -10.0880   -4.9209    0.0000 H   0  0  0  0  0  0  0  0  0  0  0  0
  -11.6451   -6.0584    0.0000 H   0  0  0  0  0  0  0  0  0  0  0  0
   -8.2201   -6.2054    0.0000 C   0  0  0  0  0  0  0  0  0  0  0  0
   -8.3208   -7.7020    0.0000 H   0  0  0  0  0  0  0  0  0  0  0  0
   -6.7637   -6.5645    0.0000 H   0  0  0  0  0  0  0  0  0  0  0  0
   -7.6136   -4.8335    0.0000 N   0  0  0  0  0  0  0  0  0  0  0  0
   -8.4985   -3.6223    0.0000 H   0  0  0  0  0  0  0  0  0  0  0  0
   -5.6450   -4.6214    0.0000 C   0  0  0  0  0  0  0  0  0  0  0  0
   -5.7457   -6.1180    0.0000 H   0  0  0  0  0  0  0  0  0  0  0  0
   -4.1886   -4.9804    0.0000 H   0  0  0  0  0  0  0  0  0  0  0  0
   -5.0385   -3.2494    0.0000 C   0  0  0  0  0  0  0  0  0  0  0  0
   -5.7952   -1.9518    0.0000 C   0  0  0  0  0  0  0  0  0  0  0  0
   -7.2874   -1.7993    0.0000 H   0  0  0  0  0  0  0  0  0  0  0  0
   -4.7930   -0.8357    0.0000 C   0  0  0  0  0  0  0  0  0  0  0  0
   -5.1048    0.6316    0.0000 H   0  0  0  0  0  0  0  0  0  0  0  0
   -3.4217   -1.4488    0.0000 C   0  0  0  0  0  0  0  0  0  0  0  0
   -2.1228   -0.6986    0.0000 C   0  0  0  0  0  0  0  0  0  0  0  0
   -0.8228   -1.4486    0.0000 C   0  0  0  0  0  0  0  0  0  0  0  0
   -0.8228   -2.9486    0.0000 H   0  0  0  0  0  0  0  0  0  0  0  0
    0.4772   -0.6986    0.0000 C   0  0  0  0  0  0  0  0  0  0  0  0
    1.7772   -1.4486    0.0000 C   0  0  0  0  0  0  0  0  0  0  0  0
    3.0772   -0.6986    0.0000 N   0  0  0  0  0  0  0  0  0  0  0  0
    3.0772    0.8014    0.0000 C   0  0  0  0  0  0  0  0  0  0  0  0
    4.3762    1.5516    0.0000 H   0  0  0  0  0  0  0  0  0  0  0  0
    1.7772    1.5514    0.0000 N   0  0  0  0  0  0  0  0  0  0  0  0
    0.4772    0.8014    0.0000 C   0  0  0  0  0  0  0  0  0  0  0  0
   -0.8228    1.5514    0.0000 C   0  0  0  0  0  0  0  0  0  0  0  0
   -0.8228    3.0514    0.0000 H   0  0  0  0  0  0  0  0  0  0  0  0
   -2.1228    0.8014    0.0000 C   0  0  0  0  0  0  0  0  0  0  0  0
   -3.4217    1.5516    0.0000 H   0  0  0  0  0  0  0  0  0  0  0  0
    1.7772   -2.9486    0.0000 N   0  0  0  0  0  0  0  0  0  0  0  0
    0.4782   -3.6986    0.0000 H   0  0  0  0  0  0  0  0  0  0  0  0
    3.0763   -3.6986    0.0000 C   0  0  0  0  0  0  0  0  0  0  0  0
    4.3762   -2.9484    0.0000 C   0  0  0  0  0  0  0  0  0  0  0  0
    4.3759   -1.4484    0.0000 H   0  0  0  0  0  0  0  0  0  0  0  0
    5.6763   -3.6982    0.0000 C   0  0  0  0  0  0  0  0  0  0  0  0
    6.9751   -2.9477    0.0000 H   0  0  0  0  0  0  0  0  0  0  0  0
    5.6765   -5.1982    0.0000 C   0  0  0  0  0  0  0  0  0  0  0  0
    4.3766   -5.9484    0.0000 C   0  0  0  0  0  0  0  0  0  0  0  0
    3.0765   -5.1986    0.0000 C   0  0  0  0  0  0  0  0  0  0  0  0
    1.7777   -5.9490    0.0000 H   0  0  0  0  0  0  0  0  0  0  0  0
    4.3769   -7.4484    0.0000 Cl  0  0  0  0  0  0  0  0  0  0  0  0
    6.9756   -5.9482    0.0000 O   0  0  0  0  0  0  0  0  0  0  0  0
    8.2746   -5.1982    0.0000 C   0  0  0  0  0  0  0  0  0  0  0  0
    9.2388   -4.0491    0.0000 H   0  0  0  0  0  0  0  0  0  0  0  0
    7.3104   -4.0491    0.0000 H   0  0  0  0  0  0  0  0  0  0  0  0
    9.5736   -5.9482    0.0000 C   0  0  0  0  0  0  0  0  0  0  0  0
   10.8735   -5.1980    0.0000 C   0  0  0  0  0  0  0  0  0  0  0  0
   10.8733   -3.6980    0.0000 H   0  0  0  0  0  0  0  0  0  0  0  0
   12.1736   -5.9477    0.0000 C   0  0  0  0  0  0  0  0  0  0  0  0
   12.1739   -7.4477    0.0000 C   0  0  0  0  0  0  0  0  0  0  0  0
   13.4729   -8.1977    0.0000 H   0  0  0  0  0  0  0  0  0  0  0  0
   10.8740   -8.1980    0.0000 C   0  0  0  0  0  0  0  0  0  0  0  0
   10.8742   -9.6980    0.0000 H   0  0  0  0  0  0  0  0  0  0  0  0
    9.5739   -7.4482    0.0000 C   0  0  0  0  0  0  0  0  0  0  0  0
    8.2751   -8.1986    0.0000 O   0  0  0  0  0  0  0  0  0  0  0  0
    8.2756   -9.6986    0.0000 H   0  0  0  0  0  0  0  0  0  0  0  0
   13.4724   -5.1973    0.0000 F   0  0  0  0  0  0  0  0  0  0  0  0
   -3.5753   -2.9370    0.0000 O   0  0  0  0  0  0  0  0  0  0  0  0
  1  2  1  0  0  0  0 
  1  3  1  0  0  0  0 
  1  4  1  0  0  0  0 
  1  5  1  0  0  0  0 
  5  6  2  0  0  0  0 
  5  7  2  0  0  0  0 
  5  8  1  0  0  0  0 
  8  9  1  0  0  0  0 
  8 10  1  0  0  0  0 
  8 11  1  0  0  0  0 
 11 12  1  0  0  0  0 
 11 13  1  0  0  0  0 
 11 14  1  0  0  0  0 
 14 15  1  0  0  0  0 
 14 16  1  0  0  0  0 
 16 17  1  0  0  0  0 
 16 18  1  0  0  0  0 
 16 19  1  0  0  0  0 
 19 20  2  0  0  0  0 
 20 21  1  0  0  0  0 
 20 22  1  0  0  0  0 
 22 23  1  0  0  0  0 
 22 24  2  0  0  0  0 
 24 25  1  0  0  0  0 
 25 26  2  0  0  0  0 
 26 27  1  0  0  0  0 
 26 28  1  0  0  0  0 
 28 29  2  0  0  0  0 
 29 30  1  0  0  0  0 
 30 31  2  0  0  0  0 
 31 32  1  0  0  0  0 
 31 33  1  0  0  0  0 
 33 34  2  0  0  0  0 
 28 34  1  0  0  0  0 
 34 35  1  0  0  0  0 
 35 36  1  0  0  0  0 
 35 37  2  0  0  0  0 
 25 37  1  0  0  0  0 
 37 38  1  0  0  0  0 
 29 39  1  0  0  0  0 
 39 40  1  0  0  0  0 
 39 41  1  0  0  0  0 
 41 42  2  0  0  0  0 
 42 43  1  0  0  0  0 
 42 44  1  0  0  0  0 
 44 45  1  0  0  0  0 
 44 46  2  0  0  0  0 
 46 47  1  0  0  0  0 
 47 48  2  0  0  0  0 
 41 48  1  0  0  0  0 
 48 49  1  0  0  0  0 
 47 50  1  0  0  0  0 
 46 51  1  0  0  0  0 
 51 52  1  0  0  0  0 
 52 53  1  0  0  0  0 
 52 54  1  0  0  0  0 
 52 55  1  0  0  0  0 
 55 56  2  0  0  0  0 
 56 57  1  0  0  0  0 
 56 58  1  0  0  0  0 
 58 59  2  0  0  0  0 
 59 60  1  0  0  0  0 
 59 61  1  0  0  0  0 
 61 62  1  0  0  0  0 
 61 63  2  0  0  0  0 
 55 63  1  0  0  0  0 
 63 64  1  0  0  0  0 
 64 65  1  0  0  0  0 
 58 66  1  0  0  0  0 
 24 67  1  0  0  0  0 
 19 67  1  0  0  0  0 
M  END
> <Rank>
49

> <Priority_score>
0.016

> <Reaction_type>
aromatic hydroxylation

> <Parent_ID>
50

> <Parent_InChI>
InChI=1S/C29H26ClFN4O4S/c1-40(36,37)12-11-32-16-23-7-10-27(39-23)20-5-8-26-24(14-20)29(34-18-33-26)35-22-6-9-28(25(30)15-22)38-17-19-3-2-4-21(31)13-19/h2-10,13-15,18,32H,11-12,16-17H2,1H3,(H,33,34,35)

> <Parent_SMILES>
CS(=O)(=O)CCNCc1ccc(-c2ccc3ncnc(Nc4ccc(OCc5cccc(F)c5)c(Cl)c4)c3c2)o1

$$$$
Molecule 50_metabolite 50
  CDK     0516241031

101105  0  0  0  0  0  0  0  0999 V2000
   -3.6138    6.3016    0.0000 C   0  0  0  0  0  0  0  0  0  0  0  0
   -2.7294    7.5131    0.0000 H   0  0  0  0  0  0  0  0  0  0  0  0
   -4.8593    5.4657    0.0000 H   0  0  0  0  0  0  0  0  0  0  0  0
   -4.6533    7.3830    0.0000 H   0  0  0  0  0  0  0  0  0  0  0  0
   -3.0069    4.9299    0.0000 S   0  0  0  0  0  0  0  0  0  0  0  0
   -4.4632    4.5704    0.0000 O   0  0  0  0  0  0  0  0  0  0  0  0
   -2.9057    3.4333    0.0000 O   0  0  0  0  0  0  0  0  0  0  0  0
   -1.5155    4.7697    0.0000 C   0  0  0  0  0  0  0  0  0  0  0  0
   -0.0592    5.1293    0.0000 H   0  0  0  0  0  0  0  0  0  0  0  0
   -1.6167    6.2663    0.0000 H   0  0  0  0  0  0  0  0  0  0  0  0
   -0.9085    3.3980    0.0000 C   0  0  0  0  0  0  0  0  0  0  0  0
    0.3370    4.2339    0.0000 H   0  0  0  0  0  0  0  0  0  0  0  0
    0.1310    2.3166    0.0000 H   0  0  0  0  0  0  0  0  0  0  0  0
   -1.7930    2.1865    0.0000 N   0  0  0  0  0  0  0  0  0  0  0  0
   -3.2844    2.3467    0.0000 H   0  0  0  0  0  0  0  0  0  0  0  0
   -1.1860    0.8148    0.0000 C   0  0  0  0  0  0  0  0  0  0  0  0
   -2.6423    0.4552    0.0000 H   0  0  0  0  0  0  0  0  0  0  0  0
   -1.0848   -0.6818    0.0000 H   0  0  0  0  0  0  0  0  0  0  0  0
    0.3054    0.6546    0.0000 C   0  0  0  0  0  0  0  0  0  0  0  0
    1.3112    1.7703    0.0000 C   0  0  0  0  0  0  0  0  0  0  0  0
    1.0024    3.2382    0.0000 H   0  0  0  0  0  0  0  0  0  0  0  0
    2.6794    1.1554    0.0000 C   0  0  0  0  0  0  0  0  0  0  0  0
    3.9821    1.8989    0.0000 H   0  0  0  0  0  0  0  0  0  0  0  0
    2.5127   -0.3375    0.0000 C   0  0  0  0  0  0  0  0  0  0  0  0
    3.6226   -1.3465    0.0000 C   0  0  0  0  0  0  0  0  0  0  0  0
    3.3039   -2.8131    0.0000 C   0  0  0  0  0  0  0  0  0  0  0  0
    1.8750   -3.2696    0.0000 H   0  0  0  0  0  0  0  0  0  0  0  0
    4.4139   -3.8232    0.0000 C   0  0  0  0  0  0  0  0  0  0  0  0
    4.0951   -5.2898    0.0000 C   0  0  0  0  0  0  0  0  0  0  0  0
    5.2052   -6.2998    0.0000 N   0  0  0  0  0  0  0  0  0  0  0  0
    6.6341   -5.8433    0.0000 C   0  0  0  0  0  0  0  0  0  0  0  0
    7.7440   -6.8523    0.0000 H   0  0  0  0  0  0  0  0  0  0  0  0
    6.9528   -4.3767    0.0000 N   0  0  0  0  0  0  0  0  0  0  0  0
    5.8428   -3.3667    0.0000 C   0  0  0  0  0  0  0  0  0  0  0  0
    6.1615   -1.9001    0.0000 C   0  0  0  0  0  0  0  0  0  0  0  0
    7.5904   -1.4436    0.0000 H   0  0  0  0  0  0  0  0  0  0  0  0
    5.0515   -0.8900    0.0000 C   0  0  0  0  0  0  0  0  0  0  0  0
    5.3708    0.5756    0.0000 H   0  0  0  0  0  0  0  0  0  0  0  0
    2.6663   -5.7463    0.0000 N   0  0  0  0  0  0  0  0  0  0  0  0
    1.5565   -4.7371    0.0000 H   0  0  0  0  0  0  0  0  0  0  0  0
    2.3472   -7.2119    0.0000 C   0  0  0  0  0  0  0  0  0  0  0  0
    3.4574   -8.2218    0.0000 C   0  0  0  0  0  0  0  0  0  0  0  0
    4.8862   -7.7651    0.0000 H   0  0  0  0  0  0  0  0  0  0  0  0
    3.1389   -9.6885    0.0000 C   0  0  0  0  0  0  0  0  0  0  0  0
    4.2490  -10.6973    0.0000 H   0  0  0  0  0  0  0  0  0  0  0  0
    1.7101  -10.1452    0.0000 C   0  0  0  0  0  0  0  0  0  0  0  0
    0.5999   -9.1353    0.0000 C   0  0  0  0  0  0  0  0  0  0  0  0
    0.9185   -7.6687    0.0000 C   0  0  0  0  0  0  0  0  0  0  0  0
   -0.1916   -6.6599    0.0000 H   0  0  0  0  0  0  0  0  0  0  0  0
   -0.8289   -9.5921    0.0000 S   0  0  0  0  0  0  0  0  0  0  0  0
   -1.9388   -8.5831    0.0000 C   0  0  0  0  0  0  0  0  0  0  0  0
   -0.7524   -7.6652    0.0000 H   0  0  0  0  0  0  0  0  0  0  0  0
   -2.6367   -7.2553    0.0000 H   0  0  0  0  0  0  0  0  0  0  0  0
   -3.3676   -9.0398    0.0000 C   0  0  0  0  0  0  0  0  0  0  0  0
   -4.5540   -9.9577    0.0000 H   0  0  0  0  0  0  0  0  0  0  0  0
   -2.6697  -10.3676    0.0000 C   0  0  0  0  0  0  0  0  0  0  0  0
   -1.1708  -10.4270    0.0000 O   0  0  0  0  0  0  0  0  0  0  0  0
   -3.4706  -11.6358    0.0000 N   0  0  0  0  0  0  0  0  0  0  0  0
   -2.7727  -12.9636    0.0000 H   0  0  0  0  0  0  0  0  0  0  0  0
   -4.9694  -11.5764    0.0000 C   0  0  0  0  0  0  0  0  0  0  0  0
   -6.3982  -12.0331    0.0000 H   0  0  0  0  0  0  0  0  0  0  0  0
   -4.7677  -13.0628    0.0000 H   0  0  0  0  0  0  0  0  0  0  0  0
   -5.6673  -10.2486    0.0000 C   0  0  0  0  0  0  0  0  0  0  0  0
   -4.8664   -8.9803    0.0000 O   0  0  0  0  0  0  0  0  0  0  0  0
   -7.1661  -10.1891    0.0000 O   0  0  0  0  0  0  0  0  0  0  0  0
   -7.8640   -8.8614    0.0000 H   0  0  0  0  0  0  0  0  0  0  0  0
   -4.4775   -8.0308    0.0000 N   0  0  0  0  0  0  0  0  0  0  0  0
   -5.9063   -8.4876    0.0000 H   0  0  0  0  0  0  0  0  0  0  0  0
   -4.1587   -6.5651    0.0000 C   0  0  0  0  0  0  0  0  0  0  0  0
   -2.7299   -6.1084    0.0000 O   0  0  0  0  0  0  0  0  0  0  0  0
   -5.2686   -5.5561    0.0000 C   0  0  0  0  0  0  0  0  0  0  0  0
   -6.0695   -6.8244    0.0000 H   0  0  0  0  0  0  0  0  0  0  0  0
   -6.6567   -4.9876    0.0000 H   0  0  0  0  0  0  0  0  0  0  0  0
   -4.9498   -4.0904    0.0000 C   0  0  0  0  0  0  0  0  0  0  0  0
   -4.1488   -2.8221    0.0000 H   0  0  0  0  0  0  0  0  0  0  0  0
   -3.5617   -4.6589    0.0000 H   0  0  0  0  0  0  0  0  0  0  0  0
   -6.0597   -3.0814    0.0000 C   0  0  0  0  0  0  0  0  0  0  0  0
   -4.8733   -2.1636    0.0000 H   0  0  0  0  0  0  0  0  0  0  0  0
   -7.4885   -3.5382    0.0000 C   0  0  0  0  0  0  0  0  0  0  0  0
   -7.8073   -5.0039    0.0000 O   0  0  0  0  0  0  0  0  0  0  0  0
   -8.5984   -2.5292    0.0000 O   0  0  0  0  0  0  0  0  0  0  0  0
  -10.0272   -2.9859    0.0000 H   0  0  0  0  0  0  0  0  0  0  0  0
   -6.7576   -1.7537    0.0000 N   0  0  0  0  0  0  0  0  0  0  0  0
   -8.2564   -1.6942    0.0000 H   0  0  0  0  0  0  0  0  0  0  0  0
   -5.9567   -0.4854    0.0000 H   0  0  0  0  0  0  0  0  0  0  0  0
    1.3911  -11.6109    0.0000 O   0  0  0  0  0  0  0  0  0  0  0  0
    2.5008  -12.6201    0.0000 C   0  0  0  0  0  0  0  0  0  0  0  0
    3.8888  -13.1888    0.0000 H   0  0  0  0  0  0  0  0  0  0  0  0
    3.3020  -11.3519    0.0000 H   0  0  0  0  0  0  0  0  0  0  0  0
    2.1818  -14.0857    0.0000 C   0  0  0  0  0  0  0  0  0  0  0  0
    0.7610  -14.5418    0.0000 C   0  0  0  0  0  0  0  0  0  0  0  0
   -0.3486  -13.5324    0.0000 H   0  0  0  0  0  0  0  0  0  0  0  0
    0.4395  -16.0069    0.0000 C   0  0  0  0  0  0  0  0  0  0  0  0
   -0.9908  -16.4589    0.0000 H   0  0  0  0  0  0  0  0  0  0  0  0
    1.5387  -17.0160    0.0000 C   0  0  0  0  0  0  0  0  0  0  0  0
    1.2147  -18.4806    0.0000 H   0  0  0  0  0  0  0  0  0  0  0  0
    2.9693  -16.5621    0.0000 C   0  0  0  0  0  0  0  0  0  0  0  0
    3.2908  -15.0969    0.0000 C   0  0  0  0  0  0  0  0  0  0  0  0
    4.7203  -14.6426    0.0000 H   0  0  0  0  0  0  0  0  0  0  0  0
    4.0772  -17.5733    0.0000 F   0  0  0  0  0  0  0  0  0  0  0  0
    1.0483   -0.6441    0.0000 O   0  0  0  0  0  0  0  0  0  0  0  0
  1  2  1  0  0  0  0 
  1  3  1  0  0  0  0 
  1  4  1  0  0  0  0 
  1  5  1  0  0  0  0 
  5  6  2  0  0  0  0 
  5  7  2  0  0  0  0 
  5  8  1  0  0  0  0 
  8  9  1  0  0  0  0 
  8 10  1  0  0  0  0 
  8 11  1  0  0  0  0 
 11 12  1  0  0  0  0 
 11 13  1  0  0  0  0 
 11 14  1  0  0  0  0 
 14 15  1  0  0  0  0 
 14 16  1  0  0  0  0 
 16 17  1  0  0  0  0 
 16 18  1  0  0  0  0 
 16 19  1  0  0  0  0 
 19 20  2  0  0  0  0 
 20 21  1  0  0  0  0 
 20 22  1  0  0  0  0 
 22 23  1  0  0  0  0 
 22 24  2  0  0  0  0 
 24 25  1  0  0  0  0 
 25 26  2  0  0  0  0 
 26 27  1  0  0  0  0 
 26 28  1  0  0  0  0 
 28 29  2  0  0  0  0 
 29 30  1  0  0  0  0 
 30 31  2  0  0  0  0 
 31 32  1  0  0  0  0 
 31 33  1  0  0  0  0 
 33 34  2  0  0  0  0 
 28 34  1  0  0  0  0 
 34 35  1  0  0  0  0 
 35 36  1  0  0  0  0 
 35 37  2  0  0  0  0 
 25 37  1  0  0  0  0 
 37 38  1  0  0  0  0 
 29 39  1  0  0  0  0 
 39 40  1  0  0  0  0 
 39 41  1  0  0  0  0 
 41 42  2  0  0  0  0 
 42 43  1  0  0  0  0 
 42 44  1  0  0  0  0 
 44 45  1  0  0  0  0 
 44 46  2  0  0  0  0 
 46 47  1  0  0  0  0 
 47 48  2  0  0  0  0 
 41 48  1  0  0  0  0 
 48 49  1  0  0  0  0 
 47 50  1  0  0  0  0 
 50 51  1  0  0  0  0 
 51 52  1  0  0  0  0 
 51 53  1  0  0  0  0 
 51 54  1  0  0  0  0 
 54 55  1  0  0  0  0 
 54 56  1  0  0  0  0 
 56 57  2  0  0  0  0 
 56 58  1  0  0  0  0 
 58 59  1  0  0  0  0 
 58 60  1  0  0  0  0 
 60 61  1  0  0  0  0 
 60 62  1  0  0  0  0 
 60 63  1  0  0  0  0 
 63 64  2  0  0  0  0 
 63 65  1  0  0  0  0 
 65 66  1  0  0  0  0 
 54 67  1  0  0  0  0 
 67 68  1  0  0  0  0 
 67 69  1  0  0  0  0 
 69 70  2  0  0  0  0 
 69 71  1  0  0  0  0 
 71 72  1  0  0  0  0 
 71 73  1  0  0  0  0 
 71 74  1  0  0  0  0 
 74 75  1  0  0  0  0 
 74 76  1  0  0  0  0 
 74 77  1  0  0  0  0 
 77 78  1  0  0  0  0 
 77 79  1  0  0  0  0 
 79 80  2  0  0  0  0 
 79 81  1  0  0  0  0 
 81 82  1  0  0  0  0 
 77 83  1  0  0  0  0 
 83 84  1  0  0  0  0 
 83 85  1  0  0  0  0 
 46 86  1  0  0  0  0 
 86 87  1  0  0  0  0 
 87 88  1  0  0  0  0 
 87 89  1  0  0  0  0 
 87 90  1  0  0  0  0 
 90 91  2  0  0  0  0 
 91 92  1  0  0  0  0 
 91 93  1  0  0  0  0 
 93 94  1  0  0  0  0 
 93 95  2  0  0  0  0 
 95 96  1  0  0  0  0 
 95 97  1  0  0  0  0 
 97 98  2  0  0  0  0 
 90 98  1  0  0  0  0 
 98 99  1  0  0  0  0 
 97100  1  0  0  0  0 
 24101  1  0  0  0  0 
 19101  1  0  0  0  0 
M  END
> <Rank>
50

> <Priority_score>
0.012

> <Reaction_type>
glutathione_conjugation_(aromatic_nucleophilic_substitution)

> <Parent_ID>
50

> <Parent_InChI>
InChI=1S/C29H26ClFN4O4S/c1-40(36,37)12-11-32-16-23-7-10-27(39-23)20-5-8-26-24(14-20)29(34-18-33-26)35-22-6-9-28(25(30)15-22)38-17-19-3-2-4-21(31)13-19/h2-10,13-15,18,32H,11-12,16-17H2,1H3,(H,33,34,35)

> <Parent_SMILES>
CS(=O)(=O)CCNCc1ccc(-c2ccc3ncnc(Nc4ccc(OCc5cccc(F)c5)c(Cl)c4)c3c2)o1

$$$$
Molecule 50_metabolite 51
  CDK     0516241031

 67 71  0  0  0  0  0  0  0  0999 V2000
  -12.2866   -7.9501    0.0000 C   0  0  0  0  0  0  0  0  0  0  0  0
  -13.1715   -6.7389    0.0000 H   0  0  0  0  0  0  0  0  0  0  0  0
  -11.8694   -9.3909    0.0000 H   0  0  0  0  0  0  0  0  0  0  0  0
  -13.6331   -8.6112    0.0000 H   0  0  0  0  0  0  0  0  0  0  0  0
  -10.7952   -7.7894    0.0000 S   0  0  0  0  0  0  0  0  0  0  0  0
  -10.8960   -9.2860    0.0000 O   0  0  0  0  0  0  0  0  0  0  0  0
   -9.3388   -8.1485    0.0000 O   0  0  0  0  0  0  0  0  0  0  0  0
  -10.1887   -6.4175    0.0000 C   0  0  0  0  0  0  0  0  0  0  0  0
  -10.0880   -4.9209    0.0000 H   0  0  0  0  0  0  0  0  0  0  0  0
  -11.6451   -6.0584    0.0000 H   0  0  0  0  0  0  0  0  0  0  0  0
   -8.2201   -6.2054    0.0000 C   0  0  0  0  0  0  0  0  0  0  0  0
   -8.3208   -7.7020    0.0000 H   0  0  0  0  0  0  0  0  0  0  0  0
   -6.7637   -6.5645    0.0000 H   0  0  0  0  0  0  0  0  0  0  0  0
   -7.6136   -4.8335    0.0000 N   0  0  0  0  0  0  0  0  0  0  0  0
   -8.4985   -3.6223    0.0000 H   0  0  0  0  0  0  0  0  0  0  0  0
   -5.6450   -4.6214    0.0000 C   0  0  0  0  0  0  0  0  0  0  0  0
   -5.7457   -6.1180    0.0000 H   0  0  0  0  0  0  0  0  0  0  0  0
   -4.1886   -4.9804    0.0000 H   0  0  0  0  0  0  0  0  0  0  0  0
   -5.0385   -3.2494    0.0000 C   0  0  0  0  0  0  0  0  0  0  0  0
   -5.7952   -1.9518    0.0000 C   0  0  0  0  0  0  0  0  0  0  0  0
   -7.2874   -1.7993    0.0000 H   0  0  0  0  0  0  0  0  0  0  0  0
   -4.7930   -0.8357    0.0000 C   0  0  0  0  0  0  0  0  0  0  0  0
   -5.1048    0.6316    0.0000 H   0  0  0  0  0  0  0  0  0  0  0  0
   -3.4217   -1.4488    0.0000 C   0  0  0  0  0  0  0  0  0  0  0  0
   -2.1228   -0.6986    0.0000 C   0  0  0  0  0  0  0  0  0  0  0  0
   -0.8228   -1.4486    0.0000 C   0  0  0  0  0  0  0  0  0  0  0  0
   -0.8228   -2.9486    0.0000 H   0  0  0  0  0  0  0  0  0  0  0  0
    0.4772   -0.6986    0.0000 C   0  0  0  0  0  0  0  0  0  0  0  0
    1.7772   -1.4486    0.0000 C   0  0  0  0  0  0  0  0  0  0  0  0
    3.0772   -0.6986    0.0000 N   0  0  0  0  0  0  0  0  0  0  0  0
    3.0772    0.8014    0.0000 C   0  0  0  0  0  0  0  0  0  0  0  0
    4.3762    1.5516    0.0000 H   0  0  0  0  0  0  0  0  0  0  0  0
    1.7772    1.5514    0.0000 N   0  0  0  0  0  0  0  0  0  0  0  0
    0.4772    0.8014    0.0000 C   0  0  0  0  0  0  0  0  0  0  0  0
   -0.8228    1.5514    0.0000 C   0  0  0  0  0  0  0  0  0  0  0  0
   -0.8228    3.0514    0.0000 H   0  0  0  0  0  0  0  0  0  0  0  0
   -2.1228    0.8014    0.0000 C   0  0  0  0  0  0  0  0  0  0  0  0
   -3.4217    1.5516    0.0000 H   0  0  0  0  0  0  0  0  0  0  0  0
    1.7772   -2.9486    0.0000 N   0  0  0  0  0  0  0  0  0  0  0  0
    0.4782   -3.6986    0.0000 H   0  0  0  0  0  0  0  0  0  0  0  0
    3.0763   -3.6986    0.0000 C   0  0  0  0  0  0  0  0  0  0  0  0
    4.3762   -2.9484    0.0000 C   0  0  0  0  0  0  0  0  0  0  0  0
    4.3759   -1.4484    0.0000 H   0  0  0  0  0  0  0  0  0  0  0  0
    5.6763   -3.6982    0.0000 C   0  0  0  0  0  0  0  0  0  0  0  0
    6.9751   -2.9477    0.0000 H   0  0  0  0  0  0  0  0  0  0  0  0
    5.6765   -5.1982    0.0000 C   0  0  0  0  0  0  0  0  0  0  0  0
    4.3766   -5.9484    0.0000 C   0  0  0  0  0  0  0  0  0  0  0  0
    3.0765   -5.1986    0.0000 C   0  0  0  0  0  0  0  0  0  0  0  0
    1.7777   -5.9490    0.0000 H   0  0  0  0  0  0  0  0  0  0  0  0
    4.3769   -7.4484    0.0000 Cl  0  0  0  0  0  0  0  0  0  0  0  0
    6.9756   -5.9482    0.0000 O   0  0  0  0  0  0  0  0  0  0  0  0
    8.2746   -5.1982    0.0000 C   0  0  0  0  0  0  0  0  0  0  0  0
    9.2388   -4.0491    0.0000 H   0  0  0  0  0  0  0  0  0  0  0  0
    7.3104   -4.0491    0.0000 H   0  0  0  0  0  0  0  0  0  0  0  0
    9.5736   -5.9482    0.0000 C   0  0  0  0  0  0  0  0  0  0  0  0
   10.8735   -5.1980    0.0000 C   0  0  0  0  0  0  0  0  0  0  0  0
   10.8758   -3.6980    0.0000 H   0  0  0  0  0  0  0  0  0  0  0  0
   12.1636   -5.9477    0.0000 C   0  0  0  0  0  0  0  0  0  0  0  0
   13.4637   -5.1995    0.0000 H   0  0  0  0  0  0  0  0  0  0  0  0
   12.1639   -7.4477    0.0000 C   0  0  0  0  0  0  0  0  0  0  0  0
   13.4642   -8.1956    0.0000 H   0  0  0  0  0  0  0  0  0  0  0  0
   10.8740   -8.1980    0.0000 C   0  0  0  0  0  0  0  0  0  0  0  0
    9.5739   -7.4482    0.0000 C   0  0  0  0  0  0  0  0  0  0  0  0
    8.2751   -8.1986    0.0000 H   0  0  0  0  0  0  0  0  0  0  0  0
   10.8767   -9.6979    0.0000 O   0  0  0  0  0  0  0  0  0  0  0  0
   12.1772  -10.4456    0.0000 H   0  0  0  0  0  0  0  0  0  0  0  0
   -3.5753   -2.9370    0.0000 O   0  0  0  0  0  0  0  0  0  0  0  0
  1  2  1  0  0  0  0 
  1  3  1  0  0  0  0 
  1  4  1  0  0  0  0 
  1  5  1  0  0  0  0 
  5  6  2  0  0  0  0 
  5  7  2  0  0  0  0 
  5  8  1  0  0  0  0 
  8  9  1  0  0  0  0 
  8 10  1  0  0  0  0 
  8 11  1  0  0  0  0 
 11 12  1  0  0  0  0 
 11 13  1  0  0  0  0 
 11 14  1  0  0  0  0 
 14 15  1  0  0  0  0 
 14 16  1  0  0  0  0 
 16 17  1  0  0  0  0 
 16 18  1  0  0  0  0 
 16 19  1  0  0  0  0 
 19 20  2  0  0  0  0 
 20 21  1  0  0  0  0 
 20 22  1  0  0  0  0 
 22 23  1  0  0  0  0 
 22 24  2  0  0  0  0 
 24 25  1  0  0  0  0 
 25 26  2  0  0  0  0 
 26 27  1  0  0  0  0 
 26 28  1  0  0  0  0 
 28 29  2  0  0  0  0 
 29 30  1  0  0  0  0 
 30 31  2  0  0  0  0 
 31 32  1  0  0  0  0 
 31 33  1  0  0  0  0 
 33 34  2  0  0  0  0 
 28 34  1  0  0  0  0 
 34 35  1  0  0  0  0 
 35 36  1  0  0  0  0 
 35 37  2  0  0  0  0 
 25 37  1  0  0  0  0 
 37 38  1  0  0  0  0 
 29 39  1  0  0  0  0 
 39 40  1  0  0  0  0 
 39 41  1  0  0  0  0 
 41 42  2  0  0  0  0 
 42 43  1  0  0  0  0 
 42 44  1  0  0  0  0 
 44 45  1  0  0  0  0 
 44 46  2  0  0  0  0 
 46 47  1  0  0  0  0 
 47 48  2  0  0  0  0 
 41 48  1  0  0  0  0 
 48 49  1  0  0  0  0 
 47 50  1  0  0  0  0 
 46 51  1  0  0  0  0 
 51 52  1  0  0  0  0 
 52 53  1  0  0  0  0 
 52 54  1  0  0  0  0 
 52 55  1  0  0  0  0 
 55 56  2  0  0  0  0 
 56 57  1  0  0  0  0 
 56 58  1  0  0  0  0 
 58 59  1  0  0  0  0 
 58 60  2  0  0  0  0 
 60 61  1  0  0  0  0 
 60 62  1  0  0  0  0 
 62 63  2  0  0  0  0 
 55 63  1  0  0  0  0 
 63 64  1  0  0  0  0 
 62 65  1  0  0  0  0 
 65 66  1  0  0  0  0 
 24 67  1  0  0  0  0 
 19 67  1  0  0  0  0 
M  END
> <Rank>
51

> <Priority_score>
0.004

> <Reaction_type>
oxidative dehalogenation benzyl

> <Parent_ID>
50

> <Parent_InChI>
InChI=1S/C29H26ClFN4O4S/c1-40(36,37)12-11-32-16-23-7-10-27(39-23)20-5-8-26-24(14-20)29(34-18-33-26)35-22-6-9-28(25(30)15-22)38-17-19-3-2-4-21(31)13-19/h2-10,13-15,18,32H,11-12,16-17H2,1H3,(H,33,34,35)

> <Parent_SMILES>
CS(=O)(=O)CCNCc1ccc(-c2ccc3ncnc(Nc4ccc(OCc5cccc(F)c5)c(Cl)c4)c3c2)o1

$$$$
Molecule 50_metabolite 52
  CDK     0516241031

 67 71  0  0  0  0  0  0  0  0999 V2000
  -12.2866   -7.9501    0.0000 C   0  0  0  0  0  0  0  0  0  0  0  0
  -13.1715   -6.7389    0.0000 H   0  0  0  0  0  0  0  0  0  0  0  0
  -11.8694   -9.3909    0.0000 H   0  0  0  0  0  0  0  0  0  0  0  0
  -13.6331   -8.6112    0.0000 H   0  0  0  0  0  0  0  0  0  0  0  0
  -10.7952   -7.7894    0.0000 S   0  0  0  0  0  0  0  0  0  0  0  0
  -10.8960   -9.2860    0.0000 O   0  0  0  0  0  0  0  0  0  0  0  0
   -9.3388   -8.1485    0.0000 O   0  0  0  0  0  0  0  0  0  0  0  0
  -10.1887   -6.4175    0.0000 C   0  0  0  0  0  0  0  0  0  0  0  0
  -10.0880   -4.9209    0.0000 H   0  0  0  0  0  0  0  0  0  0  0  0
  -11.6451   -6.0584    0.0000 H   0  0  0  0  0  0  0  0  0  0  0  0
   -8.2201   -6.2054    0.0000 C   0  0  0  0  0  0  0  0  0  0  0  0
   -8.3208   -7.7020    0.0000 H   0  0  0  0  0  0  0  0  0  0  0  0
   -6.7637   -6.5645    0.0000 H   0  0  0  0  0  0  0  0  0  0  0  0
   -7.6136   -4.8335    0.0000 N   0  0  0  0  0  0  0  0  0  0  0  0
   -8.4985   -3.6223    0.0000 H   0  0  0  0  0  0  0  0  0  0  0  0
   -5.6450   -4.6214    0.0000 C   0  0  0  0  0  0  0  0  0  0  0  0
   -5.7457   -6.1180    0.0000 H   0  0  0  0  0  0  0  0  0  0  0  0
   -4.1886   -4.9804    0.0000 H   0  0  0  0  0  0  0  0  0  0  0  0
   -5.0385   -3.2494    0.0000 C   0  0  0  0  0  0  0  0  0  0  0  0
   -5.7952   -1.9518    0.0000 C   0  0  0  0  0  0  0  0  0  0  0  0
   -7.2874   -1.7993    0.0000 H   0  0  0  0  0  0  0  0  0  0  0  0
   -4.7930   -0.8357    0.0000 C   0  0  0  0  0  0  0  0  0  0  0  0
   -5.1048    0.6316    0.0000 H   0  0  0  0  0  0  0  0  0  0  0  0
   -3.4217   -1.4488    0.0000 C   0  0  0  0  0  0  0  0  0  0  0  0
   -2.1228   -0.6986    0.0000 C   0  0  0  0  0  0  0  0  0  0  0  0
   -0.8228   -1.4486    0.0000 C   0  0  0  0  0  0  0  0  0  0  0  0
   -0.8228   -2.9486    0.0000 H   0  0  0  0  0  0  0  0  0  0  0  0
    0.4772   -0.6986    0.0000 C   0  0  0  0  0  0  0  0  0  0  0  0
    1.7772   -1.4486    0.0000 C   0  0  0  0  0  0  0  0  0  0  0  0
    3.0772   -0.6986    0.0000 N   0  0  0  0  0  0  0  0  0  0  0  0
    3.0772    0.8014    0.0000 C   0  0  0  0  0  0  0  0  0  0  0  0
    4.3762    1.5516    0.0000 H   0  0  0  0  0  0  0  0  0  0  0  0
    1.7772    1.5514    0.0000 N   0  0  0  0  0  0  0  0  0  0  0  0
    0.4772    0.8014    0.0000 C   0  0  0  0  0  0  0  0  0  0  0  0
   -0.8228    1.5514    0.0000 C   0  0  0  0  0  0  0  0  0  0  0  0
   -0.8228    3.0514    0.0000 H   0  0  0  0  0  0  0  0  0  0  0  0
   -2.1228    0.8014    0.0000 C   0  0  0  0  0  0  0  0  0  0  0  0
   -3.4217    1.5516    0.0000 H   0  0  0  0  0  0  0  0  0  0  0  0
    1.7772   -2.9486    0.0000 N   0  0  0  0  0  0  0  0  0  0  0  0
    0.4782   -3.6986    0.0000 H   0  0  0  0  0  0  0  0  0  0  0  0
    3.0763   -3.6986    0.0000 C   0  0  0  0  0  0  0  0  0  0  0  0
    4.3762   -2.9484    0.0000 C   0  0  0  0  0  0  0  0  0  0  0  0
    4.3759   -1.4484    0.0000 H   0  0  0  0  0  0  0  0  0  0  0  0
    5.6763   -3.6982    0.0000 C   0  0  0  0  0  0  0  0  0  0  0  0
    6.9751   -2.9477    0.0000 H   0  0  0  0  0  0  0  0  0  0  0  0
    5.6765   -5.1982    0.0000 C   0  0  0  0  0  0  0  0  0  0  0  0
    4.3766   -5.9484    0.0000 C   0  0  0  0  0  0  0  0  0  0  0  0
    3.0765   -5.1986    0.0000 C   0  0  0  0  0  0  0  0  0  0  0  0
    1.7777   -5.9490    0.0000 H   0  0  0  0  0  0  0  0  0  0  0  0
    4.3769   -7.4484    0.0000 O   0  0  0  0  0  0  0  0  0  0  0  0
    5.6760   -8.1982    0.0000 H   0  0  0  0  0  0  0  0  0  0  0  0
    6.9756   -5.9482    0.0000 O   0  0  0  0  0  0  0  0  0  0  0  0
    8.2746   -5.1982    0.0000 C   0  0  0  0  0  0  0  0  0  0  0  0
    9.2388   -4.0491    0.0000 H   0  0  0  0  0  0  0  0  0  0  0  0
    7.3104   -4.0491    0.0000 H   0  0  0  0  0  0  0  0  0  0  0  0
    9.5736   -5.9482    0.0000 C   0  0  0  0  0  0  0  0  0  0  0  0
    9.5757   -7.4403    0.0000 C   0  0  0  0  0  0  0  0  0  0  0  0
    8.2765   -8.1901    0.0000 H   0  0  0  0  0  0  0  0  0  0  0  0
   10.8734   -8.1925    0.0000 C   0  0  0  0  0  0  0  0  0  0  0  0
   10.8686   -9.6925    0.0000 H   0  0  0  0  0  0  0  0  0  0  0  0
   12.1692   -7.4525    0.0000 C   0  0  0  0  0  0  0  0  0  0  0  0
   13.4657   -8.2069    0.0000 H   0  0  0  0  0  0  0  0  0  0  0  0
   12.1722   -5.9517    0.0000 C   0  0  0  0  0  0  0  0  0  0  0  0
   10.8744   -5.1995    0.0000 C   0  0  0  0  0  0  0  0  0  0  0  0
   10.8767   -3.6995    0.0000 H   0  0  0  0  0  0  0  0  0  0  0  0
   13.4726   -5.2041    0.0000 F   0  0  0  0  0  0  0  0  0  0  0  0
   -3.5753   -2.9370    0.0000 O   0  0  0  0  0  0  0  0  0  0  0  0
  1  2  1  0  0  0  0 
  1  3  1  0  0  0  0 
  1  4  1  0  0  0  0 
  1  5  1  0  0  0  0 
  5  6  2  0  0  0  0 
  5  7  2  0  0  0  0 
  5  8  1  0  0  0  0 
  8  9  1  0  0  0  0 
  8 10  1  0  0  0  0 
  8 11  1  0  0  0  0 
 11 12  1  0  0  0  0 
 11 13  1  0  0  0  0 
 11 14  1  0  0  0  0 
 14 15  1  0  0  0  0 
 14 16  1  0  0  0  0 
 16 17  1  0  0  0  0 
 16 18  1  0  0  0  0 
 16 19  1  0  0  0  0 
 19 20  2  0  0  0  0 
 20 21  1  0  0  0  0 
 20 22  1  0  0  0  0 
 22 23  1  0  0  0  0 
 22 24  2  0  0  0  0 
 24 25  1  0  0  0  0 
 25 26  2  0  0  0  0 
 26 27  1  0  0  0  0 
 26 28  1  0  0  0  0 
 28 29  2  0  0  0  0 
 29 30  1  0  0  0  0 
 30 31  2  0  0  0  0 
 31 32  1  0  0  0  0 
 31 33  1  0  0  0  0 
 33 34  2  0  0  0  0 
 28 34  1  0  0  0  0 
 34 35  1  0  0  0  0 
 35 36  1  0  0  0  0 
 35 37  2  0  0  0  0 
 25 37  1  0  0  0  0 
 37 38  1  0  0  0  0 
 29 39  1  0  0  0  0 
 39 40  1  0  0  0  0 
 39 41  1  0  0  0  0 
 41 42  2  0  0  0  0 
 42 43  1  0  0  0  0 
 42 44  1  0  0  0  0 
 44 45  1  0  0  0  0 
 44 46  2  0  0  0  0 
 46 47  1  0  0  0  0 
 47 48  2  0  0  0  0 
 41 48  1  0  0  0  0 
 48 49  1  0  0  0  0 
 47 50  1  0  0  0  0 
 50 51  1  0  0  0  0 
 46 52  1  0  0  0  0 
 52 53  1  0  0  0  0 
 53 54  1  0  0  0  0 
 53 55  1  0  0  0  0 
 53 56  1  0  0  0  0 
 56 57  2  0  0  0  0 
 57 58  1  0  0  0  0 
 57 59  1  0  0  0  0 
 59 60  1  0  0  0  0 
 59 61  2  0  0  0  0 
 61 62  1  0  0  0  0 
 61 63  1  0  0  0  0 
 63 64  2  0  0  0  0 
 56 64  1  0  0  0  0 
 64 65  1  0  0  0  0 
 63 66  1  0  0  0  0 
 24 67  1  0  0  0  0 
 19 67  1  0  0  0  0 
M  END
> <Rank>
51

> <Priority_score>
0.004

> <Reaction_type>
oxidative dehalogenation benzyl

> <Parent_ID>
50

> <Parent_InChI>
InChI=1S/C29H26ClFN4O4S/c1-40(36,37)12-11-32-16-23-7-10-27(39-23)20-5-8-26-24(14-20)29(34-18-33-26)35-22-6-9-28(25(30)15-22)38-17-19-3-2-4-21(31)13-19/h2-10,13-15,18,32H,11-12,16-17H2,1H3,(H,33,34,35)

> <Parent_SMILES>
CS(=O)(=O)CCNCc1ccc(-c2ccc3ncnc(Nc4ccc(OCc5cccc(F)c5)c(Cl)c4)c3c2)o1

$$$$
Molecule 51
  CDK     0516241031

 30 33  0  0  0  0  0  0  0  0999 V2000
    6.0953   -5.7443    0.0000 C   0  0  0  0  0  0  0  0  0  0  0  0
    5.2135   -6.9577    0.0000 C   0  0  2  0  0  0  0  0  0  0  0  0
    5.8234   -8.3281    0.0000 C   0  0  0  0  0  0  0  0  0  0  0  0
    7.3160   -8.4854    0.0000 C   0  0  0  0  0  0  0  0  0  0  0  0
    7.9269   -9.8563    0.0000 C   0  0  0  0  0  0  0  0  0  0  0  0
    7.0453  -11.0698    0.0000 C   0  0  0  0  0  0  0  0  0  0  0  0
    5.5527  -10.9125    0.0000 C   0  0  0  0  0  0  0  0  0  0  0  0
    4.9418   -9.5417    0.0000 C   0  0  0  0  0  0  0  0  0  0  0  0
    3.4500   -9.3852    0.0000 Cl  0  0  0  0  0  0  0  0  0  0  0  0
    9.4187  -10.0128    0.0000 F   0  0  0  0  0  0  0  0  0  0  0  0
    8.1976   -7.2719    0.0000 Cl  0  0  0  0  0  0  0  0  0  0  0  0
    3.7217   -6.8008    0.0000 O   0  0  0  0  0  0  0  0  0  0  0  0
    3.1118   -5.4304    0.0000 C   0  0  0  0  0  0  0  0  0  0  0  0
    1.6192   -5.2731    0.0000 C   0  0  0  0  0  0  0  0  0  0  0  0
    1.0083   -3.9022    0.0000 C   0  0  0  0  0  0  0  0  0  0  0  0
    1.8899   -2.6887    0.0000 C   0  0  0  0  0  0  0  0  0  0  0  0
    3.3825   -2.8460    0.0000 N   0  0  0  0  0  0  0  0  0  0  0  0
    3.9934   -4.2168    0.0000 C   0  0  0  0  0  0  0  0  0  0  0  0
    5.4852   -4.3733    0.0000 N   0  0  0  0  0  0  0  0  0  0  0  0
   -0.4836   -3.7457    0.0000 C   0  0  0  0  0  0  0  0  0  0  0  0
   -1.2307   -2.4535    0.0000 C   0  0  0  0  0  0  0  0  0  0  0  0
   -2.7018   -2.7568    0.0000 N   0  0  0  0  0  0  0  0  0  0  0  0
   -3.8163   -1.7529    0.0000 C   0  0  0  0  0  0  0  0  0  0  0  0
   -5.2436   -2.2168    0.0000 C   0  0  0  0  0  0  0  0  0  0  0  0
   -6.3581   -1.2128    0.0000 C   0  0  0  0  0  0  0  0  0  0  0  0
   -6.0452    0.2551    0.0000 N   0  0  0  0  0  0  0  0  0  0  0  0
   -4.6179    0.7189    0.0000 C   0  0  0  0  0  0  0  0  0  0  0  0
   -3.5034   -0.2850    0.0000 C   0  0  0  0  0  0  0  0  0  0  0  0
   -2.8504   -4.2515    0.0000 N   0  0  0  0  0  0  0  0  0  0  0  0
   -1.4875   -4.8602    0.0000 C   0  0  0  0  0  0  0  0  0  0  0  0
  2  1  1  6  0  0  0 
  2  3  1  0  0  0  0 
  3  4  2  0  0  0  0 
  4  5  1  0  0  0  0 
  5  6  2  0  0  0  0 
  6  7  1  0  0  0  0 
  7  8  2  0  0  0  0 
  3  8  1  0  0  0  0 
  8  9  1  0  0  0  0 
  5 10  1  0  0  0  0 
  4 11  1  0  0  0  0 
  2 12  1  0  0  0  0 
 12 13  1  0  0  0  0 
 13 14  2  0  0  0  0 
 14 15  1  0  0  0  0 
 15 16  2  0  0  0  0 
 16 17  1  0  0  0  0 
 17 18  2  0  0  0  0 
 13 18  1  0  0  0  0 
 18 19  1  0  0  0  0 
 15 20  1  0  0  0  0 
 20 21  2  0  0  0  0 
 21 22  1  0  0  0  0 
 22 23  1  0  0  0  0 
 23 24  1  0  0  0  0 
 24 25  1  0  0  0  0 
 25 26  1  0  0  0  0 
 26 27  1  0  0  0  0 
 27 28  1  0  0  0  0 
 23 28  1  0  0  0  0 
 22 29  1  0  0  0  0 
 29 30  2  0  0  0  0 
 20 30  1  0  0  0  0 
M  END
> <SMILES>
C[C@@H](Oc1cc(-c2cnn(C3CCNCC3)c2)cnc1N)c1c(Cl)ccc(F)c1Cl

$$$$
Molecule 51_metabolite 1
  CDK     0516241031

 57 60  0  0  0  0  0  0  0  0999 V2000
   -4.8907  -11.2289    0.0000 C   0  0  0  0  0  0  0  0  0  0  0  0
   -4.7337   -9.7371    0.0000 H   0  0  0  0  0  0  0  0  0  0  0  0
   -3.3943  -11.1244    0.0000 H   0  0  0  0  0  0  0  0  0  0  0  0
   -4.5280  -12.6844    0.0000 H   0  0  0  0  0  0  0  0  0  0  0  0
   -6.2611  -11.8388    0.0000 C   0  0  2  0  0  0  0  0  0  0  0  0
   -7.7574  -11.9433    0.0000 H   0  0  0  0  0  0  0  0  0  0  0  0
   -6.8559   -9.4518    0.0000 C   0  0  0  0  0  0  0  0  0  0  0  0
   -5.7764   -8.4092    0.0000 C   0  0  0  0  0  0  0  0  0  0  0  0
   -6.1386   -6.9527    0.0000 C   0  0  0  0  0  0  0  0  0  0  0  0
   -7.5803   -6.5389    0.0000 C   0  0  0  0  0  0  0  0  0  0  0  0
   -7.9431   -5.0834    0.0000 H   0  0  0  0  0  0  0  0  0  0  0  0
   -8.6599   -7.5815    0.0000 C   0  0  0  0  0  0  0  0  0  0  0  0
  -10.1017   -7.1676    0.0000 H   0  0  0  0  0  0  0  0  0  0  0  0
   -8.2977   -9.0380    0.0000 C   0  0  0  0  0  0  0  0  0  0  0  0
   -9.3772  -10.0795    0.0000 Cl  0  0  0  0  0  0  0  0  0  0  0  0
   -5.0591   -5.9112    0.0000 F   0  0  0  0  0  0  0  0  0  0  0  0
   -4.3346   -8.8231    0.0000 Cl  0  0  0  0  0  0  0  0  0  0  0  0
   -6.4181  -13.3306    0.0000 O   0  0  0  0  0  0  0  0  0  0  0  0
   -5.2046  -14.2124    0.0000 C   0  0  0  0  0  0  0  0  0  0  0  0
   -3.8334  -13.6024    0.0000 C   0  0  0  0  0  0  0  0  0  0  0  0
   -3.6767  -12.1106    0.0000 H   0  0  0  0  0  0  0  0  0  0  0  0
   -2.6189  -14.4841    0.0000 C   0  0  0  0  0  0  0  0  0  0  0  0
   -2.7756  -15.9759    0.0000 C   0  0  0  0  0  0  0  0  0  0  0  0
   -1.5622  -16.8577    0.0000 H   0  0  0  0  0  0  0  0  0  0  0  0
   -4.1469  -16.5859    0.0000 N   0  0  0  0  0  0  0  0  0  0  0  0
   -5.3614  -15.7042    0.0000 C   0  0  0  0  0  0  0  0  0  0  0  0
   -6.7316  -16.3146    0.0000 N   0  0  0  0  0  0  0  0  0  0  0  0
   -6.8881  -17.8064    0.0000 H   0  0  0  0  0  0  0  0  0  0  0  0
   -7.9453  -15.4331    0.0000 H   0  0  0  0  0  0  0  0  0  0  0  0
   -1.2487  -13.8737    0.0000 C   0  0  0  0  0  0  0  0  0  0  0  0
    0.0445  -14.6192    0.0000 C   0  0  0  0  0  0  0  0  0  0  0  0
    0.1972  -16.1114    0.0000 H   0  0  0  0  0  0  0  0  0  0  0  0
    1.1668  -13.6210    0.0000 N   0  0  0  0  0  0  0  0  0  0  0  0
    2.6340  -13.9332    0.0000 C   0  0  0  0  0  0  0  0  0  0  0  0
    2.6864  -12.4341    0.0000 H   0  0  0  0  0  0  0  0  0  0  0  0
    4.1202  -13.7240    0.0000 C   0  0  0  0  0  0  0  0  0  0  0  0
    3.6565  -12.2975    0.0000 H   0  0  0  0  0  0  0  0  0  0  0  0
    5.4446  -13.0199    0.0000 H   0  0  0  0  0  0  0  0  0  0  0  0
    5.0435  -14.9062    0.0000 C   0  0  0  0  0  0  0  0  0  0  0  0
    6.0475  -13.7917    0.0000 H   0  0  0  0  0  0  0  0  0  0  0  0
    6.3153  -15.7015    0.0000 H   0  0  0  0  0  0  0  0  0  0  0  0
    4.4806  -16.2975    0.0000 N   0  0  0  0  0  0  0  0  0  0  0  0
    2.9945  -16.5066    0.0000 C   0  0  0  0  0  0  0  0  0  0  0  0
    3.4581  -17.9332    0.0000 H   0  0  0  0  0  0  0  0  0  0  0  0
    1.6700  -17.2108    0.0000 H   0  0  0  0  0  0  0  0  0  0  0  0
    2.0711  -15.3245    0.0000 C   0  0  0  0  0  0  0  0  0  0  0  0
    1.0672  -16.4389    0.0000 H   0  0  0  0  0  0  0  0  0  0  0  0
    0.7993  -14.5292    0.0000 H   0  0  0  0  0  0  0  0  0  0  0  0
    5.4040  -17.4796    0.0000 C   0  0  0  0  0  0  0  0  0  0  0  0
    4.8419  -18.8703    0.0000 O   0  0  0  0  0  0  0  0  0  0  0  0
    6.8894  -17.2710    0.0000 C   0  0  0  0  0  0  0  0  0  0  0  0
    7.4515  -15.8803    0.0000 H   0  0  0  0  0  0  0  0  0  0  0  0
    6.8369  -18.7701    0.0000 H   0  0  0  0  0  0  0  0  0  0  0  0
    8.3566  -17.5831    0.0000 H   0  0  0  0  0  0  0  0  0  0  0  0
    0.5482  -12.2522    0.0000 N   0  0  0  0  0  0  0  0  0  0  0  0
   -0.9365  -12.4066    0.0000 C   0  0  0  0  0  0  0  0  0  0  0  0
   -1.9394  -11.2912    0.0000 H   0  0  0  0  0  0  0  0  0  0  0  0
  1  2  1  0  0  0  0 
  1  3  1  0  0  0  0 
  1  4  1  0  0  0  0 
  1  5  1  0  0  0  0 
  5  6  1  6  0  0  0 
  5  7  1  0  0  0  0 
  7  8  2  0  0  0  0 
  8  9  1  0  0  0  0 
  9 10  2  0  0  0  0 
 10 11  1  0  0  0  0 
 10 12  1  0  0  0  0 
 12 13  1  0  0  0  0 
 12 14  2  0  0  0  0 
  7 14  1  0  0  0  0 
 14 15  1  0  0  0  0 
  9 16  1  0  0  0  0 
  8 17  1  0  0  0  0 
  5 18  1  1  0  0  0 
 18 19  1  0  0  0  0 
 19 20  2  0  0  0  0 
 20 21  1  0  0  0  0 
 20 22  1  0  0  0  0 
 22 23  2  0  0  0  0 
 23 24  1  0  0  0  0 
 23 25  1  0  0  0  0 
 25 26  2  0  0  0  0 
 19 26  1  0  0  0  0 
 26 27  1  0  0  0  0 
 27 28  1  0  0  0  0 
 27 29  1  0  0  0  0 
 22 30  1  0  0  0  0 
 30 31  2  0  0  0  0 
 31 32  1  0  0  0  0 
 31 33  1  0  0  0  0 
 33 34  1  0  0  0  0 
 34 35  1  0  0  0  0 
 34 36  1  0  0  0  0 
 36 37  1  0  0  0  0 
 36 38  1  0  0  0  0 
 36 39  1  0  0  0  0 
 39 40  1  0  0  0  0 
 39 41  1  0  0  0  0 
 39 42  1  0  0  0  0 
 42 43  1  0  0  0  0 
 43 44  1  0  0  0  0 
 43 45  1  0  0  0  0 
 43 46  1  0  0  0  0 
 34 46  1  0  0  0  0 
 46 47  1  0  0  0  0 
 46 48  1  0  0  0  0 
 42 49  1  0  0  0  0 
 49 50  2  0  0  0  0 
 49 51  1  0  0  0  0 
 51 52  1  0  0  0  0 
 51 53  1  0  0  0  0 
 51 54  1  0  0  0  0 
 33 55  1  0  0  0  0 
 55 56  2  0  0  0  0 
 30 56  1  0  0  0  0 
 56 57  1  0  0  0  0 
M  END
> <Rank>
1

> <Priority_score>
0.896

> <Reaction_type>
N-acetylation_(NH1)

> <Parent_ID>
51

> <Parent_InChI>
InChI=1S/C21H22Cl2FN5O/c1-12(19-16(22)2-3-17(24)20(19)23)30-18-8-13(9-27-21(18)25)14-10-28-29(11-14)15-4-6-26-7-5-15/h2-3,8-12,15,26H,4-7H2,1H3,(H2,25,27)

> <Parent_SMILES>
C[C@@H](Oc1cc(-c2cnn(C3CCNCC3)c2)cnc1N)c1c(Cl)ccc(F)c1Cl

$$$$
Molecule 51_metabolite 2
  CDK     0516241031

 57 60  0  0  0  0  0  0  0  0999 V2000
    1.2044   -8.9938    0.0000 C   0  0  0  0  0  0  0  0  0  0  0  0
    2.4178   -9.8757    0.0000 H   0  0  0  0  0  0  0  0  0  0  0  0
    0.5467  -10.3420    0.0000 H   0  0  0  0  0  0  0  0  0  0  0  0
   -0.2374   -8.5802    0.0000 H   0  0  0  0  0  0  0  0  0  0  0  0
    1.3614   -7.5021    0.0000 C   0  0  2  0  0  0  0  0  0  0  0  0
    2.0191   -6.1540    0.0000 H   0  0  0  0  0  0  0  0  0  0  0  0
    3.7260   -8.1804    0.0000 C   0  0  0  0  0  0  0  0  0  0  0  0
    4.0891   -9.6367    0.0000 C   0  0  0  0  0  0  0  0  0  0  0  0
    5.5316  -10.0512    0.0000 C   0  0  0  0  0  0  0  0  0  0  0  0
    6.6109   -9.0095    0.0000 C   0  0  0  0  0  0  0  0  0  0  0  0
    8.0527   -9.4232    0.0000 H   0  0  0  0  0  0  0  0  0  0  0  0
    6.2477   -7.5533    0.0000 C   0  0  0  0  0  0  0  0  0  0  0  0
    7.3271   -6.5116    0.0000 H   0  0  0  0  0  0  0  0  0  0  0  0
    4.8053   -7.1388    0.0000 C   0  0  0  0  0  0  0  0  0  0  0  0
    4.4431   -5.6832    0.0000 Cl  0  0  0  0  0  0  0  0  0  0  0  0
    5.8938  -11.5068    0.0000 F   0  0  0  0  0  0  0  0  0  0  0  0
    3.0098  -10.6784    0.0000 Cl  0  0  0  0  0  0  0  0  0  0  0  0
    0.1480   -6.6203    0.0000 O   0  0  0  0  0  0  0  0  0  0  0  0
   -1.2224   -7.2302    0.0000 C   0  0  0  0  0  0  0  0  0  0  0  0
   -1.3797   -8.7228    0.0000 C   0  0  0  0  0  0  0  0  0  0  0  0
   -0.1662   -9.6044    0.0000 H   0  0  0  0  0  0  0  0  0  0  0  0
   -2.7506   -9.3337    0.0000 C   0  0  0  0  0  0  0  0  0  0  0  0
   -3.9642   -8.4521    0.0000 C   0  0  0  0  0  0  0  0  0  0  0  0
   -5.3345   -9.0620    0.0000 H   0  0  0  0  0  0  0  0  0  0  0  0
   -3.8069   -6.9595    0.0000 N   0  0  0  0  0  0  0  0  0  0  0  0
   -2.4360   -6.3486    0.0000 C   0  0  0  0  0  0  0  0  0  0  0  0
   -2.2795   -4.8568    0.0000 N   0  0  0  0  0  0  0  0  0  0  0  0
   -0.9093   -4.2464    0.0000 H   0  0  0  0  0  0  0  0  0  0  0  0
   -3.4932   -3.9753    0.0000 C   0  0  0  0  0  0  0  0  0  0  0  0
   -4.8634   -4.5857    0.0000 O   0  0  0  0  0  0  0  0  0  0  0  0
   -3.3367   -2.4835    0.0000 C   0  0  0  0  0  0  0  0  0  0  0  0
   -4.5504   -1.6021    0.0000 H   0  0  0  0  0  0  0  0  0  0  0  0
   -2.6794   -1.1352    0.0000 H   0  0  0  0  0  0  0  0  0  0  0  0
   -1.8947   -2.8967    0.0000 H   0  0  0  0  0  0  0  0  0  0  0  0
   -2.9071  -10.8255    0.0000 C   0  0  0  0  0  0  0  0  0  0  0  0
   -4.1993  -11.5727    0.0000 C   0  0  0  0  0  0  0  0  0  0  0  0
   -5.5679  -10.9588    0.0000 H   0  0  0  0  0  0  0  0  0  0  0  0
   -3.8960  -13.0438    0.0000 N   0  0  0  0  0  0  0  0  0  0  0  0
   -4.8999  -14.1583    0.0000 C   0  0  0  0  0  0  0  0  0  0  0  0
   -3.6279  -14.9532    0.0000 H   0  0  0  0  0  0  0  0  0  0  0  0
   -5.4619  -15.5499    0.0000 C   0  0  0  0  0  0  0  0  0  0  0  0
   -3.9946  -15.8617    0.0000 H   0  0  0  0  0  0  0  0  0  0  0  0
   -5.5143  -17.0490    0.0000 H   0  0  0  0  0  0  0  0  0  0  0  0
   -6.9473  -15.7585    0.0000 C   0  0  0  0  0  0  0  0  0  0  0  0
   -6.4841  -17.1852    0.0000 H   0  0  0  0  0  0  0  0  0  0  0  0
   -8.2720  -16.4622    0.0000 H   0  0  0  0  0  0  0  0  0  0  0  0
   -7.8708  -14.5754    0.0000 N   0  0  0  0  0  0  0  0  0  0  0  0
   -9.3562  -14.7839    0.0000 H   0  0  0  0  0  0  0  0  0  0  0  0
   -7.3088  -13.1837    0.0000 C   0  0  0  0  0  0  0  0  0  0  0  0
   -8.7761  -12.8720    0.0000 H   0  0  0  0  0  0  0  0  0  0  0  0
   -7.2564  -11.6846    0.0000 H   0  0  0  0  0  0  0  0  0  0  0  0
   -5.8234  -12.9752    0.0000 C   0  0  0  0  0  0  0  0  0  0  0  0
   -6.2866  -11.5485    0.0000 H   0  0  0  0  0  0  0  0  0  0  0  0
   -4.4987  -12.2714    0.0000 H   0  0  0  0  0  0  0  0  0  0  0  0
   -2.4013  -13.1924    0.0000 N   0  0  0  0  0  0  0  0  0  0  0  0
   -1.7926  -11.8295    0.0000 C   0  0  0  0  0  0  0  0  0  0  0  0
   -0.3252  -11.5186    0.0000 H   0  0  0  0  0  0  0  0  0  0  0  0
  1  2  1  0  0  0  0 
  1  3  1  0  0  0  0 
  1  4  1  0  0  0  0 
  1  5  1  0  0  0  0 
  5  6  1  6  0  0  0 
  5  7  1  0  0  0  0 
  7  8  2  0  0  0  0 
  8  9  1  0  0  0  0 
  9 10  2  0  0  0  0 
 10 11  1  0  0  0  0 
 10 12  1  0  0  0  0 
 12 13  1  0  0  0  0 
 12 14  2  0  0  0  0 
  7 14  1  0  0  0  0 
 14 15  1  0  0  0  0 
  9 16  1  0  0  0  0 
  8 17  1  0  0  0  0 
  5 18  1  1  0  0  0 
 18 19  1  0  0  0  0 
 19 20  2  0  0  0  0 
 20 21  1  0  0  0  0 
 20 22  1  0  0  0  0 
 22 23  2  0  0  0  0 
 23 24  1  0  0  0  0 
 23 25  1  0  0  0  0 
 25 26  2  0  0  0  0 
 19 26  1  0  0  0  0 
 26 27  1  0  0  0  0 
 27 28  1  0  0  0  0 
 27 29  1  0  0  0  0 
 29 30  2  0  0  0  0 
 29 31  1  0  0  0  0 
 31 32  1  0  0  0  0 
 31 33  1  0  0  0  0 
 31 34  1  0  0  0  0 
 22 35  1  0  0  0  0 
 35 36  2  0  0  0  0 
 36 37  1  0  0  0  0 
 36 38  1  0  0  0  0 
 38 39  1  0  0  0  0 
 39 40  1  0  0  0  0 
 39 41  1  0  0  0  0 
 41 42  1  0  0  0  0 
 41 43  1  0  0  0  0 
 41 44  1  0  0  0  0 
 44 45  1  0  0  0  0 
 44 46  1  0  0  0  0 
 44 47  1  0  0  0  0 
 47 48  1  0  0  0  0 
 47 49  1  0  0  0  0 
 49 50  1  0  0  0  0 
 49 51  1  0  0  0  0 
 49 52  1  0  0  0  0 
 39 52  1  0  0  0  0 
 52 53  1  0  0  0  0 
 52 54  1  0  0  0  0 
 38 55  1  0  0  0  0 
 55 56  2  0  0  0  0 
 35 56  1  0  0  0  0 
 56 57  1  0  0  0  0 
M  END
> <Rank>
2

> <Priority_score>
0.62

> <Reaction_type>
N-acetylation_(aniline)

> <Parent_ID>
51

> <Parent_InChI>
InChI=1S/C21H22Cl2FN5O/c1-12(19-16(22)2-3-17(24)20(19)23)30-18-8-13(9-27-21(18)25)14-10-28-29(11-14)15-4-6-26-7-5-15/h2-3,8-12,15,26H,4-7H2,1H3,(H2,25,27)

> <Parent_SMILES>
C[C@@H](Oc1cc(-c2cnn(C3CCNCC3)c2)cnc1N)c1c(Cl)ccc(F)c1Cl

$$$$
Molecule 51_metabolite 3
  CDK     0516241031

 36 38  0  0  0  0  0  0  0  0999 V2000
    2.7006   -1.0652    0.0000 C   0  0  0  0  0  0  0  0  0  0  0  0
    1.2234   -1.3255    0.0000 H   0  0  0  0  0  0  0  0  0  0  0  0
    2.7006   -2.5652    0.0000 H   0  0  0  0  0  0  0  0  0  0  0  0
    4.1779   -1.3255    0.0000 C   0  0  0  0  0  0  0  0  0  0  0  0
    3.6652   -2.7352    0.0000 H   0  0  0  0  0  0  0  0  0  0  0  0
    5.4772   -2.0751    0.0000 H   0  0  0  0  0  0  0  0  0  0  0  0
    5.1421   -0.1754    0.0000 N   0  0  0  0  0  0  0  0  0  0  0  0
    6.6193   -0.4357    0.0000 H   0  0  0  0  0  0  0  0  0  0  0  0
    4.6291    1.2350    0.0000 C   0  0  0  0  0  0  0  0  0  0  0  0
    6.1063    1.4953    0.0000 H   0  0  0  0  0  0  0  0  0  0  0  0
    4.6291    2.7350    0.0000 H   0  0  0  0  0  0  0  0  0  0  0  0
    3.1519    1.4953    0.0000 C   0  0  0  0  0  0  0  0  0  0  0  0
    3.6646    2.9050    0.0000 H   0  0  0  0  0  0  0  0  0  0  0  0
    1.8526    2.2449    0.0000 H   0  0  0  0  0  0  0  0  0  0  0  0
    2.1876    0.3452    0.0000 C   0  0  0  0  0  0  0  0  0  0  0  0
    1.2232    1.4941    0.0000 H   0  0  0  0  0  0  0  0  0  0  0  0
    0.8886   -0.4048    0.0000 N   0  0  0  0  0  0  0  0  0  0  0  0
   -0.4872    0.1981    0.0000 C   0  0  0  0  0  0  0  0  0  0  0  0
   -0.8027    1.6645    0.0000 H   0  0  0  0  0  0  0  0  0  0  0  0
   -1.4869   -0.9103    0.0000 C   0  0  0  0  0  0  0  0  0  0  0  0
   -0.7369   -2.2093    0.0000 C   0  0  0  0  0  0  0  0  0  0  0  0
   -1.3464   -3.5799    0.0000 H   0  0  0  0  0  0  0  0  0  0  0  0
    0.7228   -1.8977    0.0000 N   0  0  0  0  0  0  0  0  0  0  0  0
   -2.9786   -0.7528    0.0000 C   0  0  0  0  0  0  0  0  0  0  0  0
   -3.5884    0.6177    0.0000 C   0  0  0  0  0  0  0  0  0  0  0  0
   -2.7065    1.8311    0.0000 H   0  0  0  0  0  0  0  0  0  0  0  0
   -5.0810    0.7745    0.0000 N   0  0  0  0  0  0  0  0  0  0  0  0
   -5.9639   -0.4392    0.0000 C   0  0  0  0  0  0  0  0  0  0  0  0
   -5.3542   -1.8097    0.0000 C   0  0  0  0  0  0  0  0  0  0  0  0
   -3.8615   -1.9665    0.0000 C   0  0  0  0  0  0  0  0  0  0  0  0
   -3.2518   -3.3370    0.0000 H   0  0  0  0  0  0  0  0  0  0  0  0
   -6.2360   -3.0231    0.0000 O   0  0  0  0  0  0  0  0  0  0  0  0
   -7.7277   -2.8661    0.0000 H   0  0  0  0  0  0  0  0  0  0  0  0
   -7.4556   -0.2817    0.0000 N   0  0  0  0  0  0  0  0  0  0  0  0
   -8.3378   -1.4949    0.0000 H   0  0  0  0  0  0  0  0  0  0  0  0
   -8.0651    1.0889    0.0000 H   0  0  0  0  0  0  0  0  0  0  0  0
  1  2  1  0  0  0  0 
  1  3  1  0  0  0  0 
  1  4  1  0  0  0  0 
  4  5  1  0  0  0  0 
  4  6  1  0  0  0  0 
  4  7  1  0  0  0  0 
  7  8  1  0  0  0  0 
  7  9  1  0  0  0  0 
  9 10  1  0  0  0  0 
  9 11  1  0  0  0  0 
  9 12  1  0  0  0  0 
 12 13  1  0  0  0  0 
 12 14  1  0  0  0  0 
 12 15  1  0  0  0  0 
  1 15  1  0  0  0  0 
 15 16  1  0  0  0  0 
 15 17  1  0  0  0  0 
 17 18  1  0  0  0  0 
 18 19  1  0  0  0  0 
 18 20  2  0  0  0  0 
 20 21  1  0  0  0  0 
 21 22  1  0  0  0  0 
 21 23  2  0  0  0  0 
 17 23  1  0  0  0  0 
 20 24  1  0  0  0  0 
 24 25  2  0  0  0  0 
 25 26  1  0  0  0  0 
 25 27  1  0  0  0  0 
 27 28  2  0  0  0  0 
 28 29  1  0  0  0  0 
 29 30  2  0  0  0  0 
 24 30  1  0  0  0  0 
 30 31  1  0  0  0  0 
 29 32  1  0  0  0  0 
 32 33  1  0  0  0  0 
 28 34  1  0  0  0  0 
 34 35  1  0  0  0  0 
 34 36  1  0  0  0  0 
M  END
> <Rank>
3

> <Priority_score>
0.552

> <Reaction_type>
O-dealkylation_(aromatic)

> <Parent_ID>
51

> <Parent_InChI>
InChI=1S/C21H22Cl2FN5O/c1-12(19-16(22)2-3-17(24)20(19)23)30-18-8-13(9-27-21(18)25)14-10-28-29(11-14)15-4-6-26-7-5-15/h2-3,8-12,15,26H,4-7H2,1H3,(H2,25,27)

> <Parent_SMILES>
C[C@@H](Oc1cc(-c2cnn(C3CCNCC3)c2)cnc1N)c1c(Cl)ccc(F)c1Cl

$$$$
Molecule 51_metabolite 4
  CDK     0516241031

 53 56  0  0  0  0  0  0  0  0999 V2000
   -1.5590  -13.5694    0.0000 C   0  0  0  0  0  0  0  0  0  0  0  0
   -2.7724  -12.6875    0.0000 H   0  0  0  0  0  0  0  0  0  0  0  0
   -0.9013  -12.2213    0.0000 H   0  0  0  0  0  0  0  0  0  0  0  0
   -0.1171  -13.9830    0.0000 H   0  0  0  0  0  0  0  0  0  0  0  0
   -1.7160  -15.0611    0.0000 C   0  0  2  0  0  0  0  0  0  0  0  0
   -2.3737  -16.4092    0.0000 H   0  0  0  0  0  0  0  0  0  0  0  0
   -4.0806  -14.3828    0.0000 C   0  0  0  0  0  0  0  0  0  0  0  0
   -4.4437  -12.9265    0.0000 C   0  0  0  0  0  0  0  0  0  0  0  0
   -5.8862  -12.5120    0.0000 C   0  0  0  0  0  0  0  0  0  0  0  0
   -6.9655  -13.5537    0.0000 C   0  0  0  0  0  0  0  0  0  0  0  0
   -8.4073  -13.1400    0.0000 H   0  0  0  0  0  0  0  0  0  0  0  0
   -6.6023  -15.0099    0.0000 C   0  0  0  0  0  0  0  0  0  0  0  0
   -5.1599  -15.4245    0.0000 C   0  0  0  0  0  0  0  0  0  0  0  0
   -4.7976  -16.8801    0.0000 Cl  0  0  0  0  0  0  0  0  0  0  0  0
   -7.6816  -16.0516    0.0000 F   0  0  0  0  0  0  0  0  0  0  0  0
   -6.2484  -11.0564    0.0000 O   0  0  0  0  0  0  0  0  0  0  0  0
   -7.6901  -10.6423    0.0000 H   0  0  0  0  0  0  0  0  0  0  0  0
   -3.3644  -11.8849    0.0000 Cl  0  0  0  0  0  0  0  0  0  0  0  0
   -0.5025  -15.9430    0.0000 O   0  0  0  0  0  0  0  0  0  0  0  0
    0.8679  -15.3330    0.0000 C   0  0  0  0  0  0  0  0  0  0  0  0
    1.0252  -13.8404    0.0000 C   0  0  0  0  0  0  0  0  0  0  0  0
   -0.1884  -12.9588    0.0000 H   0  0  0  0  0  0  0  0  0  0  0  0
    2.3960  -13.2295    0.0000 C   0  0  0  0  0  0  0  0  0  0  0  0
    3.6096  -14.1111    0.0000 C   0  0  0  0  0  0  0  0  0  0  0  0
    4.9800  -13.5012    0.0000 H   0  0  0  0  0  0  0  0  0  0  0  0
    3.4523  -15.6037    0.0000 N   0  0  0  0  0  0  0  0  0  0  0  0
    2.0814  -16.2146    0.0000 C   0  0  0  0  0  0  0  0  0  0  0  0
    1.9249  -17.7065    0.0000 N   0  0  0  0  0  0  0  0  0  0  0  0
    3.1386  -18.5879    0.0000 H   0  0  0  0  0  0  0  0  0  0  0  0
    0.5547  -18.3168    0.0000 H   0  0  0  0  0  0  0  0  0  0  0  0
    2.5525  -11.7377    0.0000 C   0  0  0  0  0  0  0  0  0  0  0  0
    3.8447  -10.9905    0.0000 C   0  0  0  0  0  0  0  0  0  0  0  0
    5.2134  -11.6044    0.0000 H   0  0  0  0  0  0  0  0  0  0  0  0
    3.5414   -9.5194    0.0000 N   0  0  0  0  0  0  0  0  0  0  0  0
    4.5453   -8.4049    0.0000 C   0  0  0  0  0  0  0  0  0  0  0  0
    3.2733   -7.6100    0.0000 H   0  0  0  0  0  0  0  0  0  0  0  0
    5.1073   -7.0133    0.0000 C   0  0  0  0  0  0  0  0  0  0  0  0
    3.6401   -6.7015    0.0000 H   0  0  0  0  0  0  0  0  0  0  0  0
    5.1597   -5.5142    0.0000 H   0  0  0  0  0  0  0  0  0  0  0  0
    6.5927   -6.8047    0.0000 C   0  0  0  0  0  0  0  0  0  0  0  0
    6.1296   -5.3780    0.0000 H   0  0  0  0  0  0  0  0  0  0  0  0
    7.9174   -6.1010    0.0000 H   0  0  0  0  0  0  0  0  0  0  0  0
    7.5162   -7.9878    0.0000 N   0  0  0  0  0  0  0  0  0  0  0  0
    9.0016   -7.7793    0.0000 H   0  0  0  0  0  0  0  0  0  0  0  0
    6.9542   -9.3795    0.0000 C   0  0  0  0  0  0  0  0  0  0  0  0
    8.4215   -9.6912    0.0000 H   0  0  0  0  0  0  0  0  0  0  0  0
    6.9019  -10.8786    0.0000 H   0  0  0  0  0  0  0  0  0  0  0  0
    5.4688   -9.5880    0.0000 C   0  0  0  0  0  0  0  0  0  0  0  0
    5.9320  -11.0147    0.0000 H   0  0  0  0  0  0  0  0  0  0  0  0
    4.1441  -10.2918    0.0000 H   0  0  0  0  0  0  0  0  0  0  0  0
    2.0467   -9.3708    0.0000 N   0  0  0  0  0  0  0  0  0  0  0  0
    1.4380  -10.7337    0.0000 C   0  0  0  0  0  0  0  0  0  0  0  0
   -0.0294  -11.0446    0.0000 H   0  0  0  0  0  0  0  0  0  0  0  0
  1  2  1  0  0  0  0 
  1  3  1  0  0  0  0 
  1  4  1  0  0  0  0 
  1  5  1  0  0  0  0 
  5  6  1  6  0  0  0 
  5  7  1  0  0  0  0 
  7  8  2  0  0  0  0 
  8  9  1  0  0  0  0 
  9 10  2  0  0  0  0 
 10 11  1  0  0  0  0 
 10 12  1  0  0  0  0 
 12 13  2  0  0  0  0 
  7 13  1  0  0  0  0 
 13 14  1  0  0  0  0 
 12 15  1  0  0  0  0 
  9 16  1  0  0  0  0 
 16 17  1  0  0  0  0 
  8 18  1  0  0  0  0 
  5 19  1  1  0  0  0 
 19 20  1  0  0  0  0 
 20 21  2  0  0  0  0 
 21 22  1  0  0  0  0 
 21 23  1  0  0  0  0 
 23 24  2  0  0  0  0 
 24 25  1  0  0  0  0 
 24 26  1  0  0  0  0 
 26 27  2  0  0  0  0 
 20 27  1  0  0  0  0 
 27 28  1  0  0  0  0 
 28 29  1  0  0  0  0 
 28 30  1  0  0  0  0 
 23 31  1  0  0  0  0 
 31 32  2  0  0  0  0 
 32 33  1  0  0  0  0 
 32 34  1  0  0  0  0 
 34 35  1  0  0  0  0 
 35 36  1  0  0  0  0 
 35 37  1  0  0  0  0 
 37 38  1  0  0  0  0 
 37 39  1  0  0  0  0 
 37 40  1  0  0  0  0 
 40 41  1  0  0  0  0 
 40 42  1  0  0  0  0 
 40 43  1  0  0  0  0 
 43 44  1  0  0  0  0 
 43 45  1  0  0  0  0 
 45 46  1  0  0  0  0 
 45 47  1  0  0  0  0 
 45 48  1  0  0  0  0 
 35 48  1  0  0  0  0 
 48 49  1  0  0  0  0 
 48 50  1  0  0  0  0 
 34 51  1  0  0  0  0 
 51 52  2  0  0  0  0 
 31 52  1  0  0  0  0 
 52 53  1  0  0  0  0 
M  END
> <Rank>
3

> <Priority_score>
0.552

> <Reaction_type>
aromatic_hydroxylation_(meta_to_carbon)

> <Parent_ID>
51

> <Parent_InChI>
InChI=1S/C21H22Cl2FN5O/c1-12(19-16(22)2-3-17(24)20(19)23)30-18-8-13(9-27-21(18)25)14-10-28-29(11-14)15-4-6-26-7-5-15/h2-3,8-12,15,26H,4-7H2,1H3,(H2,25,27)

> <Parent_SMILES>
C[C@@H](Oc1cc(-c2cnn(C3CCNCC3)c2)cnc1N)c1c(Cl)ccc(F)c1Cl

$$$$
Molecule 51_metabolite 5
  CDK     0516241031

 53 56  0  0  0  0  0  0  0  0999 V2000
   -3.5258   -7.2424    0.0000 C   0  0  0  0  0  0  0  0  0  0  0  0
   -3.3688   -5.7507    0.0000 H   0  0  0  0  0  0  0  0  0  0  0  0
   -2.0295   -7.1380    0.0000 H   0  0  0  0  0  0  0  0  0  0  0  0
   -3.1631   -8.6979    0.0000 H   0  0  0  0  0  0  0  0  0  0  0  0
   -4.8962   -7.8524    0.0000 C   0  0  1  0  0  0  0  0  0  0  0  0
   -6.3926   -7.9568    0.0000 C   0  0  0  0  0  0  0  0  0  0  0  0
   -7.0509   -9.3056    0.0000 C   0  0  0  0  0  0  0  0  0  0  0  0
   -8.5480   -9.4108    0.0000 C   0  0  0  0  0  0  0  0  0  0  0  0
   -9.3868   -8.1673    0.0000 C   0  0  0  0  0  0  0  0  0  0  0  0
  -10.8832   -8.2717    0.0000 H   0  0  0  0  0  0  0  0  0  0  0  0
   -8.7285   -6.8185    0.0000 C   0  0  0  0  0  0  0  0  0  0  0  0
   -9.5674   -5.5750    0.0000 H   0  0  0  0  0  0  0  0  0  0  0  0
   -7.2314   -6.7133    0.0000 C   0  0  0  0  0  0  0  0  0  0  0  0
   -6.5741   -5.3650    0.0000 Cl  0  0  0  0  0  0  0  0  0  0  0  0
   -9.2053  -10.7591    0.0000 F   0  0  0  0  0  0  0  0  0  0  0  0
   -6.2120  -10.5491    0.0000 Cl  0  0  0  0  0  0  0  0  0  0  0  0
   -5.2589   -6.3969    0.0000 O   0  0  0  0  0  0  0  0  0  0  0  0
   -4.1798   -5.3550    0.0000 H   0  0  0  0  0  0  0  0  0  0  0  0
   -5.0532   -9.3441    0.0000 O   0  0  0  0  0  0  0  0  0  0  0  0
   -3.8398  -10.2260    0.0000 C   0  0  0  0  0  0  0  0  0  0  0  0
   -2.4685   -9.6159    0.0000 C   0  0  0  0  0  0  0  0  0  0  0  0
   -2.3118   -8.1241    0.0000 H   0  0  0  0  0  0  0  0  0  0  0  0
   -1.2540  -10.4976    0.0000 C   0  0  0  0  0  0  0  0  0  0  0  0
   -1.4107  -11.9894    0.0000 C   0  0  0  0  0  0  0  0  0  0  0  0
   -0.1973  -12.8713    0.0000 H   0  0  0  0  0  0  0  0  0  0  0  0
   -2.7820  -12.5995    0.0000 N   0  0  0  0  0  0  0  0  0  0  0  0
   -3.9965  -11.7178    0.0000 C   0  0  0  0  0  0  0  0  0  0  0  0
   -5.3667  -12.3281    0.0000 N   0  0  0  0  0  0  0  0  0  0  0  0
   -5.5232  -13.8200    0.0000 H   0  0  0  0  0  0  0  0  0  0  0  0
   -6.5804  -11.4467    0.0000 H   0  0  0  0  0  0  0  0  0  0  0  0
    0.1162   -9.8873    0.0000 C   0  0  0  0  0  0  0  0  0  0  0  0
    1.4094  -10.6328    0.0000 C   0  0  0  0  0  0  0  0  0  0  0  0
    1.5621  -12.1250    0.0000 H   0  0  0  0  0  0  0  0  0  0  0  0
    2.5317   -9.6345    0.0000 N   0  0  0  0  0  0  0  0  0  0  0  0
    3.9989   -9.9467    0.0000 C   0  0  0  0  0  0  0  0  0  0  0  0
    4.0513   -8.4477    0.0000 H   0  0  0  0  0  0  0  0  0  0  0  0
    5.4851   -9.7376    0.0000 C   0  0  0  0  0  0  0  0  0  0  0  0
    5.0214   -8.3110    0.0000 H   0  0  0  0  0  0  0  0  0  0  0  0
    6.8095   -9.0334    0.0000 H   0  0  0  0  0  0  0  0  0  0  0  0
    6.4084  -10.9197    0.0000 C   0  0  0  0  0  0  0  0  0  0  0  0
    7.4124   -9.8053    0.0000 H   0  0  0  0  0  0  0  0  0  0  0  0
    7.6802  -11.7150    0.0000 H   0  0  0  0  0  0  0  0  0  0  0  0
    5.8455  -12.3110    0.0000 N   0  0  0  0  0  0  0  0  0  0  0  0
    6.7689  -13.4932    0.0000 H   0  0  0  0  0  0  0  0  0  0  0  0
    4.3593  -12.5202    0.0000 C   0  0  0  0  0  0  0  0  0  0  0  0
    4.8230  -13.9467    0.0000 H   0  0  0  0  0  0  0  0  0  0  0  0
    3.0349  -13.2243    0.0000 H   0  0  0  0  0  0  0  0  0  0  0  0
    3.4360  -11.3380    0.0000 C   0  0  0  0  0  0  0  0  0  0  0  0
    2.4320  -12.4525    0.0000 H   0  0  0  0  0  0  0  0  0  0  0  0
    2.1642  -10.5427    0.0000 H   0  0  0  0  0  0  0  0  0  0  0  0
    1.9131   -8.2658    0.0000 N   0  0  0  0  0  0  0  0  0  0  0  0
    0.4284   -8.4201    0.0000 C   0  0  0  0  0  0  0  0  0  0  0  0
   -0.5745   -7.3047    0.0000 H   0  0  0  0  0  0  0  0  0  0  0  0
  1  2  1  0  0  0  0 
  1  3  1  0  0  0  0 
  1  4  1  0  0  0  0 
  1  5  1  0  0  0  0 
  5  6  1  1  0  0  0 
  6  7  2  0  0  0  0 
  7  8  1  0  0  0  0 
  8  9  2  0  0  0  0 
  9 10  1  0  0  0  0 
  9 11  1  0  0  0  0 
 11 12  1  0  0  0  0 
 11 13  2  0  0  0  0 
  6 13  1  0  0  0  0 
 13 14  1  0  0  0  0 
  8 15  1  0  0  0  0 
  7 16  1  0  0  0  0 
  5 17  1  6  0  0  0 
 17 18  1  0  0  0  0 
  5 19  1  0  0  0  0 
 19 20  1  0  0  0  0 
 20 21  2  0  0  0  0 
 21 22  1  0  0  0  0 
 21 23  1  0  0  0  0 
 23 24  2  0  0  0  0 
 24 25  1  0  0  0  0 
 24 26  1  0  0  0  0 
 26 27  2  0  0  0  0 
 20 27  1  0  0  0  0 
 27 28  1  0  0  0  0 
 28 29  1  0  0  0  0 
 28 30  1  0  0  0  0 
 23 31  1  0  0  0  0 
 31 32  2  0  0  0  0 
 32 33  1  0  0  0  0 
 32 34  1  0  0  0  0 
 34 35  1  0  0  0  0 
 35 36  1  0  0  0  0 
 35 37  1  0  0  0  0 
 37 38  1  0  0  0  0 
 37 39  1  0  0  0  0 
 37 40  1  0  0  0  0 
 40 41  1  0  0  0  0 
 40 42  1  0  0  0  0 
 40 43  1  0  0  0  0 
 43 44  1  0  0  0  0 
 43 45  1  0  0  0  0 
 45 46  1  0  0  0  0 
 45 47  1  0  0  0  0 
 45 48  1  0  0  0  0 
 35 48  1  0  0  0  0 
 48 49  1  0  0  0  0 
 48 50  1  0  0  0  0 
 34 51  1  0  0  0  0 
 51 52  2  0  0  0  0 
 31 52  1  0  0  0  0 
 52 53  1  0  0  0  0 
M  END
> <Rank>
3

> <Priority_score>
0.552

> <Reaction_type>
aliphatic hydroxylation

> <Parent_ID>
51

> <Parent_InChI>
InChI=1S/C21H22Cl2FN5O/c1-12(19-16(22)2-3-17(24)20(19)23)30-18-8-13(9-27-21(18)25)14-10-28-29(11-14)15-4-6-26-7-5-15/h2-3,8-12,15,26H,4-7H2,1H3,(H2,25,27)

> <Parent_SMILES>
C[C@@H](Oc1cc(-c2cnn(C3CCNCC3)c2)cnc1N)c1c(Cl)ccc(F)c1Cl

$$$$
Molecule 51_metabolite 6
  CDK     0516241031

 17 17  0  0  0  0  0  0  0  0999 V2000
    1.3000   -0.7502    0.0000 C   0  0  0  0  0  0  0  0  0  0  0  0
    2.5989   -1.5004    0.0000 H   0  0  0  0  0  0  0  0  0  0  0  0
    2.2644    0.3987    0.0000 H   0  0  0  0  0  0  0  0  0  0  0  0
    0.3360    0.3990    0.0000 H   0  0  0  0  0  0  0  0  0  0  0  0
    0.0008   -1.5000    0.0000 C   0  0  0  0  0  0  0  0  0  0  0  0
    0.0006   -3.0000    0.0000 O   0  0  0  0  0  0  0  0  0  0  0  0
   -1.2981   -0.7498    0.0000 C   0  0  0  0  0  0  0  0  0  0  0  0
   -2.5981   -1.4998    0.0000 C   0  0  0  0  0  0  0  0  0  0  0  0
   -3.8981   -0.7498    0.0000 C   0  0  0  0  0  0  0  0  0  0  0  0
   -3.8981    0.7502    0.0000 C   0  0  0  0  0  0  0  0  0  0  0  0
   -5.1970    1.5004    0.0000 H   0  0  0  0  0  0  0  0  0  0  0  0
   -2.5981    1.5002    0.0000 C   0  0  0  0  0  0  0  0  0  0  0  0
   -2.5981    3.0002    0.0000 H   0  0  0  0  0  0  0  0  0  0  0  0
   -1.2981    0.7502    0.0000 C   0  0  0  0  0  0  0  0  0  0  0  0
    0.0008    1.5004    0.0000 Cl  0  0  0  0  0  0  0  0  0  0  0  0
   -5.1970   -1.5000    0.0000 F   0  0  0  0  0  0  0  0  0  0  0  0
   -2.5981   -2.9998    0.0000 Cl  0  0  0  0  0  0  0  0  0  0  0  0
  1  2  1  0  0  0  0 
  1  3  1  0  0  0  0 
  1  4  1  0  0  0  0 
  1  5  1  0  0  0  0 
  5  6  2  0  0  0  0 
  5  7  1  0  0  0  0 
  7  8  2  0  0  0  0 
  8  9  1  0  0  0  0 
  9 10  2  0  0  0  0 
 10 11  1  0  0  0  0 
 10 12  1  0  0  0  0 
 12 13  1  0  0  0  0 
 12 14  2  0  0  0  0 
  7 14  1  0  0  0  0 
 14 15  1  0  0  0  0 
  9 16  1  0  0  0  0 
  8 17  1  0  0  0  0 
M  END
> <Rank>
3

> <Priority_score>
0.552

> <Reaction_type>
oxidative ether cleavage to one alcohol and one aldehyde/ketone

> <Parent_ID>
51

> <Parent_InChI>
InChI=1S/C21H22Cl2FN5O/c1-12(19-16(22)2-3-17(24)20(19)23)30-18-8-13(9-27-21(18)25)14-10-28-29(11-14)15-4-6-26-7-5-15/h2-3,8-12,15,26H,4-7H2,1H3,(H2,25,27)

> <Parent_SMILES>
C[C@@H](Oc1cc(-c2cnn(C3CCNCC3)c2)cnc1N)c1c(Cl)ccc(F)c1Cl

$$$$
Molecule 51_metabolite 7
  CDK     0516241031

 53 56  0  0  0  0  0  0  0  0999 V2000
   -1.1726  -13.6729    0.0000 C   0  0  0  0  0  0  0  0  0  0  0  0
   -2.3860  -12.7911    0.0000 H   0  0  0  0  0  0  0  0  0  0  0  0
   -0.5149  -12.3248    0.0000 H   0  0  0  0  0  0  0  0  0  0  0  0
    0.2692  -14.0865    0.0000 H   0  0  0  0  0  0  0  0  0  0  0  0
   -1.3296  -15.1647    0.0000 C   0  0  2  0  0  0  0  0  0  0  0  0
   -1.9873  -16.5128    0.0000 H   0  0  0  0  0  0  0  0  0  0  0  0
   -3.6942  -14.4863    0.0000 C   0  0  0  0  0  0  0  0  0  0  0  0
   -4.0574  -13.0301    0.0000 C   0  0  0  0  0  0  0  0  0  0  0  0
   -5.4998  -12.6155    0.0000 C   0  0  0  0  0  0  0  0  0  0  0  0
   -5.8620  -11.1599    0.0000 H   0  0  0  0  0  0  0  0  0  0  0  0
   -6.5791  -13.6572    0.0000 C   0  0  0  0  0  0  0  0  0  0  0  0
   -6.2160  -15.1134    0.0000 C   0  0  0  0  0  0  0  0  0  0  0  0
   -4.7735  -15.5280    0.0000 C   0  0  0  0  0  0  0  0  0  0  0  0
   -4.4113  -16.9836    0.0000 Cl  0  0  0  0  0  0  0  0  0  0  0  0
   -7.2953  -16.1551    0.0000 F   0  0  0  0  0  0  0  0  0  0  0  0
   -8.0210  -13.2436    0.0000 O   0  0  0  0  0  0  0  0  0  0  0  0
   -8.3837  -11.7881    0.0000 H   0  0  0  0  0  0  0  0  0  0  0  0
   -2.9781  -11.9884    0.0000 Cl  0  0  0  0  0  0  0  0  0  0  0  0
   -0.1162  -16.0465    0.0000 O   0  0  0  0  0  0  0  0  0  0  0  0
    1.2542  -15.4365    0.0000 C   0  0  0  0  0  0  0  0  0  0  0  0
    1.4115  -13.9440    0.0000 C   0  0  0  0  0  0  0  0  0  0  0  0
    0.1980  -13.0623    0.0000 H   0  0  0  0  0  0  0  0  0  0  0  0
    2.7824  -13.3330    0.0000 C   0  0  0  0  0  0  0  0  0  0  0  0
    3.9959  -14.2147    0.0000 C   0  0  0  0  0  0  0  0  0  0  0  0
    5.3663  -13.6047    0.0000 H   0  0  0  0  0  0  0  0  0  0  0  0
    3.8386  -15.7072    0.0000 N   0  0  0  0  0  0  0  0  0  0  0  0
    2.4678  -16.3182    0.0000 C   0  0  0  0  0  0  0  0  0  0  0  0
    2.3113  -17.8100    0.0000 N   0  0  0  0  0  0  0  0  0  0  0  0
    3.5250  -18.6914    0.0000 H   0  0  0  0  0  0  0  0  0  0  0  0
    0.9411  -18.4204    0.0000 H   0  0  0  0  0  0  0  0  0  0  0  0
    2.9389  -11.8412    0.0000 C   0  0  0  0  0  0  0  0  0  0  0  0
    4.2311  -11.0941    0.0000 C   0  0  0  0  0  0  0  0  0  0  0  0
    5.5997  -11.7079    0.0000 H   0  0  0  0  0  0  0  0  0  0  0  0
    3.9277   -9.6229    0.0000 N   0  0  0  0  0  0  0  0  0  0  0  0
    4.9317   -8.5085    0.0000 C   0  0  0  0  0  0  0  0  0  0  0  0
    3.6597   -7.7136    0.0000 H   0  0  0  0  0  0  0  0  0  0  0  0
    5.4937   -7.1168    0.0000 C   0  0  0  0  0  0  0  0  0  0  0  0
    4.0264   -6.8051    0.0000 H   0  0  0  0  0  0  0  0  0  0  0  0
    5.5461   -5.6177    0.0000 H   0  0  0  0  0  0  0  0  0  0  0  0
    6.9791   -6.9083    0.0000 C   0  0  0  0  0  0  0  0  0  0  0  0
    6.5159   -5.4816    0.0000 H   0  0  0  0  0  0  0  0  0  0  0  0
    8.3038   -6.2045    0.0000 H   0  0  0  0  0  0  0  0  0  0  0  0
    7.9026   -8.0914    0.0000 N   0  0  0  0  0  0  0  0  0  0  0  0
    9.3880   -7.8828    0.0000 H   0  0  0  0  0  0  0  0  0  0  0  0
    7.3406   -9.4830    0.0000 C   0  0  0  0  0  0  0  0  0  0  0  0
    8.8078   -9.7948    0.0000 H   0  0  0  0  0  0  0  0  0  0  0  0
    7.2882  -10.9821    0.0000 H   0  0  0  0  0  0  0  0  0  0  0  0
    5.8552   -9.6916    0.0000 C   0  0  0  0  0  0  0  0  0  0  0  0
    6.3183  -11.1183    0.0000 H   0  0  0  0  0  0  0  0  0  0  0  0
    4.5305  -10.3953    0.0000 H   0  0  0  0  0  0  0  0  0  0  0  0
    2.4330   -9.4743    0.0000 N   0  0  0  0  0  0  0  0  0  0  0  0
    1.8244  -10.8373    0.0000 C   0  0  0  0  0  0  0  0  0  0  0  0
    0.3570  -11.1481    0.0000 H   0  0  0  0  0  0  0  0  0  0  0  0
  1  2  1  0  0  0  0 
  1  3  1  0  0  0  0 
  1  4  1  0  0  0  0 
  1  5  1  0  0  0  0 
  5  6  1  6  0  0  0 
  5  7  1  0  0  0  0 
  7  8  2  0  0  0  0 
  8  9  1  0  0  0  0 
  9 10  1  0  0  0  0 
  9 11  2  0  0  0  0 
 11 12  1  0  0  0  0 
 12 13  2  0  0  0  0 
  7 13  1  0  0  0  0 
 13 14  1  0  0  0  0 
 12 15  1  0  0  0  0 
 11 16  1  0  0  0  0 
 16 17  1  0  0  0  0 
  8 18  1  0  0  0  0 
  5 19  1  1  0  0  0 
 19 20  1  0  0  0  0 
 20 21  2  0  0  0  0 
 21 22  1  0  0  0  0 
 21 23  1  0  0  0  0 
 23 24  2  0  0  0  0 
 24 25  1  0  0  0  0 
 24 26  1  0  0  0  0 
 26 27  2  0  0  0  0 
 20 27  1  0  0  0  0 
 27 28  1  0  0  0  0 
 28 29  1  0  0  0  0 
 28 30  1  0  0  0  0 
 23 31  1  0  0  0  0 
 31 32  2  0  0  0  0 
 32 33  1  0  0  0  0 
 32 34  1  0  0  0  0 
 34 35  1  0  0  0  0 
 35 36  1  0  0  0  0 
 35 37  1  0  0  0  0 
 37 38  1  0  0  0  0 
 37 39  1  0  0  0  0 
 37 40  1  0  0  0  0 
 40 41  1  0  0  0  0 
 40 42  1  0  0  0  0 
 40 43  1  0  0  0  0 
 43 44  1  0  0  0  0 
 43 45  1  0  0  0  0 
 45 46  1  0  0  0  0 
 45 47  1  0  0  0  0 
 45 48  1  0  0  0  0 
 35 48  1  0  0  0  0 
 48 49  1  0  0  0  0 
 48 50  1  0  0  0  0 
 34 51  1  0  0  0  0 
 51 52  2  0  0  0  0 
 31 52  1  0  0  0  0 
 52 53  1  0  0  0  0 
M  END
> <Rank>
3

> <Priority_score>
0.552

> <Reaction_type>
aromatic_hydroxylation_(para_to_carbon)

> <Parent_ID>
51

> <Parent_InChI>
InChI=1S/C21H22Cl2FN5O/c1-12(19-16(22)2-3-17(24)20(19)23)30-18-8-13(9-27-21(18)25)14-10-28-29(11-14)15-4-6-26-7-5-15/h2-3,8-12,15,26H,4-7H2,1H3,(H2,25,27)

> <Parent_SMILES>
C[C@@H](Oc1cc(-c2cnn(C3CCNCC3)c2)cnc1N)c1c(Cl)ccc(F)c1Cl

$$$$
Molecule 51_metabolite 8
  CDK     0516241031

 19 19  0  0  0  0  0  0  0  0999 V2000
    1.3000   -0.7504    0.0000 C   0  0  0  0  0  0  0  0  0  0  0  0
    2.5989   -1.5006    0.0000 H   0  0  0  0  0  0  0  0  0  0  0  0
    2.2644    0.3985    0.0000 H   0  0  0  0  0  0  0  0  0  0  0  0
    0.3360    0.3988    0.0000 H   0  0  0  0  0  0  0  0  0  0  0  0
    0.0008   -1.5002    0.0000 C   0  0  2  0  0  0  0  0  0  0  0  0
   -0.9635   -2.6491    0.0000 H   0  0  0  0  0  0  0  0  0  0  0  0
   -1.2981   -0.7500    0.0000 C   0  0  0  0  0  0  0  0  0  0  0  0
   -2.5981   -1.5000    0.0000 C   0  0  0  0  0  0  0  0  0  0  0  0
   -3.8981   -0.7500    0.0000 C   0  0  0  0  0  0  0  0  0  0  0  0
   -3.8981    0.7500    0.0000 C   0  0  0  0  0  0  0  0  0  0  0  0
   -5.1970    1.5002    0.0000 H   0  0  0  0  0  0  0  0  0  0  0  0
   -2.5981    1.5000    0.0000 C   0  0  0  0  0  0  0  0  0  0  0  0
   -2.5981    3.0000    0.0000 H   0  0  0  0  0  0  0  0  0  0  0  0
   -1.2981    0.7500    0.0000 C   0  0  0  0  0  0  0  0  0  0  0  0
    0.0008    1.5002    0.0000 Cl  0  0  0  0  0  0  0  0  0  0  0  0
   -5.1970   -1.5002    0.0000 F   0  0  0  0  0  0  0  0  0  0  0  0
   -2.5981   -3.0000    0.0000 Cl  0  0  0  0  0  0  0  0  0  0  0  0
    0.9648   -2.6494    0.0000 O   0  0  0  0  0  0  0  0  0  0  0  0
    2.4421   -2.3892    0.0000 H   0  0  0  0  0  0  0  0  0  0  0  0
  1  2  1  0  0  0  0 
  1  3  1  0  0  0  0 
  1  4  1  0  0  0  0 
  1  5  1  0  0  0  0 
  5  6  1  6  0  0  0 
  5  7  1  0  0  0  0 
  7  8  2  0  0  0  0 
  8  9  1  0  0  0  0 
  9 10  2  0  0  0  0 
 10 11  1  0  0  0  0 
 10 12  1  0  0  0  0 
 12 13  1  0  0  0  0 
 12 14  2  0  0  0  0 
  7 14  1  0  0  0  0 
 14 15  1  0  0  0  0 
  9 16  1  0  0  0  0 
  8 17  1  0  0  0  0 
  5 18  1  1  0  0  0 
 18 19  1  0  0  0  0 
M  END
> <Rank>
3

> <Priority_score>
0.552

> <Reaction_type>
O-dealkylation_(aromatic)

> <Parent_ID>
51

> <Parent_InChI>
InChI=1S/C21H22Cl2FN5O/c1-12(19-16(22)2-3-17(24)20(19)23)30-18-8-13(9-27-21(18)25)14-10-28-29(11-14)15-4-6-26-7-5-15/h2-3,8-12,15,26H,4-7H2,1H3,(H2,25,27)

> <Parent_SMILES>
C[C@@H](Oc1cc(-c2cnn(C3CCNCC3)c2)cnc1N)c1c(Cl)ccc(F)c1Cl

$$$$
Molecule 51_metabolite 9
  CDK     0516241031

 72 76  0  0  0  0  0  0  0  0999 V2000
   -4.7318   -7.0446    0.0000 C   0  0  0  0  0  0  0  0  0  0  0  0
   -4.5749   -5.5528    0.0000 H   0  0  0  0  0  0  0  0  0  0  0  0
   -3.2355   -6.9401    0.0000 H   0  0  0  0  0  0  0  0  0  0  0  0
   -4.3691   -8.5000    0.0000 H   0  0  0  0  0  0  0  0  0  0  0  0
   -6.1022   -7.6545    0.0000 C   0  0  2  0  0  0  0  0  0  0  0  0
   -7.5986   -7.7589    0.0000 H   0  0  0  0  0  0  0  0  0  0  0  0
   -6.6971   -5.2675    0.0000 C   0  0  0  0  0  0  0  0  0  0  0  0
   -5.6175   -4.2249    0.0000 C   0  0  0  0  0  0  0  0  0  0  0  0
   -5.9797   -2.7684    0.0000 C   0  0  0  0  0  0  0  0  0  0  0  0
   -7.4215   -2.3546    0.0000 C   0  0  0  0  0  0  0  0  0  0  0  0
   -7.7842   -0.8991    0.0000 H   0  0  0  0  0  0  0  0  0  0  0  0
   -8.5011   -3.3972    0.0000 C   0  0  0  0  0  0  0  0  0  0  0  0
   -9.9428   -2.9833    0.0000 H   0  0  0  0  0  0  0  0  0  0  0  0
   -8.1388   -4.8536    0.0000 C   0  0  0  0  0  0  0  0  0  0  0  0
   -9.2183   -5.8951    0.0000 Cl  0  0  0  0  0  0  0  0  0  0  0  0
   -4.9002   -1.7269    0.0000 F   0  0  0  0  0  0  0  0  0  0  0  0
   -4.1757   -4.6387    0.0000 Cl  0  0  0  0  0  0  0  0  0  0  0  0
   -6.2592   -9.1463    0.0000 O   0  0  0  0  0  0  0  0  0  0  0  0
   -5.0458  -10.0281    0.0000 C   0  0  0  0  0  0  0  0  0  0  0  0
   -3.6745   -9.4180    0.0000 C   0  0  0  0  0  0  0  0  0  0  0  0
   -3.5178   -7.9262    0.0000 H   0  0  0  0  0  0  0  0  0  0  0  0
   -2.4600  -10.2998    0.0000 C   0  0  0  0  0  0  0  0  0  0  0  0
   -2.6168  -11.7915    0.0000 C   0  0  0  0  0  0  0  0  0  0  0  0
   -1.4033  -12.6734    0.0000 H   0  0  0  0  0  0  0  0  0  0  0  0
   -3.9880  -12.4016    0.0000 N   0  0  0  0  0  0  0  0  0  0  0  0
   -5.2025  -11.5199    0.0000 C   0  0  0  0  0  0  0  0  0  0  0  0
   -6.5727  -12.1303    0.0000 N   0  0  0  0  0  0  0  0  0  0  0  0
   -7.7864  -11.2488    0.0000 H   0  0  0  0  0  0  0  0  0  0  0  0
   -6.7292  -13.6221    0.0000 C   0  0  0  0  0  0  0  0  0  0  0  0
   -5.2329  -13.5173    0.0000 H   0  0  0  0  0  0  0  0  0  0  0  0
   -6.3664  -15.0775    0.0000 C   0  0  0  0  0  0  0  0  0  0  0  0
   -4.9960  -14.4676    0.0000 H   0  0  0  0  0  0  0  0  0  0  0  0
   -7.4463  -16.1197    0.0000 C   0  0  0  0  0  0  0  0  0  0  0  0
   -6.2329  -17.0015    0.0000 H   0  0  0  0  0  0  0  0  0  0  0  0
   -8.8891  -15.7065    0.0000 C   0  0  0  0  0  0  0  0  0  0  0  0
   -9.0456  -17.1983    0.0000 H   0  0  0  0  0  0  0  0  0  0  0  0
   -9.2520  -14.2510    0.0000 C   0  0  0  0  0  0  0  0  0  0  0  0
  -10.6224  -14.8610    0.0000 H   0  0  0  0  0  0  0  0  0  0  0  0
  -10.0905  -13.0073    0.0000 C   0  0  0  0  0  0  0  0  0  0  0  0
   -9.4326  -11.6592    0.0000 O   0  0  0  0  0  0  0  0  0  0  0  0
  -11.5869  -13.1116    0.0000 O   0  0  0  0  0  0  0  0  0  0  0  0
  -12.2447  -14.4596    0.0000 H   0  0  0  0  0  0  0  0  0  0  0  0
   -8.1720  -13.2088    0.0000 O   0  0  0  0  0  0  0  0  0  0  0  0
  -10.3855  -15.8112    0.0000 O   0  0  0  0  0  0  0  0  0  0  0  0
  -11.0429  -17.1595    0.0000 H   0  0  0  0  0  0  0  0  0  0  0  0
   -8.1037  -17.4680    0.0000 O   0  0  0  0  0  0  0  0  0  0  0  0
   -7.2648  -18.7114    0.0000 H   0  0  0  0  0  0  0  0  0  0  0  0
   -5.5278  -16.3213    0.0000 O   0  0  0  0  0  0  0  0  0  0  0  0
   -4.0315  -16.2170    0.0000 H   0  0  0  0  0  0  0  0  0  0  0  0
   -1.0898   -9.6894    0.0000 C   0  0  0  0  0  0  0  0  0  0  0  0
    0.2033  -10.4349    0.0000 C   0  0  0  0  0  0  0  0  0  0  0  0
    0.3560  -11.9271    0.0000 H   0  0  0  0  0  0  0  0  0  0  0  0
    1.3257   -9.4366    0.0000 N   0  0  0  0  0  0  0  0  0  0  0  0
    2.7928   -9.7489    0.0000 C   0  0  0  0  0  0  0  0  0  0  0  0
    2.8452   -8.2498    0.0000 H   0  0  0  0  0  0  0  0  0  0  0  0
    4.2790   -9.5397    0.0000 C   0  0  0  0  0  0  0  0  0  0  0  0
    3.8154   -8.1132    0.0000 H   0  0  0  0  0  0  0  0  0  0  0  0
    5.6035   -8.8355    0.0000 H   0  0  0  0  0  0  0  0  0  0  0  0
    5.2024  -10.7218    0.0000 C   0  0  0  0  0  0  0  0  0  0  0  0
    6.2063   -9.6074    0.0000 H   0  0  0  0  0  0  0  0  0  0  0  0
    6.4742  -11.5172    0.0000 H   0  0  0  0  0  0  0  0  0  0  0  0
    4.6395  -12.1131    0.0000 N   0  0  0  0  0  0  0  0  0  0  0  0
    5.5628  -13.2953    0.0000 H   0  0  0  0  0  0  0  0  0  0  0  0
    3.1533  -12.3223    0.0000 C   0  0  0  0  0  0  0  0  0  0  0  0
    3.6170  -13.7488    0.0000 H   0  0  0  0  0  0  0  0  0  0  0  0
    1.8289  -13.0265    0.0000 H   0  0  0  0  0  0  0  0  0  0  0  0
    2.2300  -11.1401    0.0000 C   0  0  0  0  0  0  0  0  0  0  0  0
    1.2260  -12.2546    0.0000 H   0  0  0  0  0  0  0  0  0  0  0  0
    0.9582  -10.3448    0.0000 H   0  0  0  0  0  0  0  0  0  0  0  0
    0.7070   -8.0679    0.0000 N   0  0  0  0  0  0  0  0  0  0  0  0
   -0.7776   -8.2222    0.0000 C   0  0  0  0  0  0  0  0  0  0  0  0
   -1.7805   -7.1068    0.0000 H   0  0  0  0  0  0  0  0  0  0  0  0
  1  2  1  0  0  0  0 
  1  3  1  0  0  0  0 
  1  4  1  0  0  0  0 
  1  5  1  0  0  0  0 
  5  6  1  6  0  0  0 
  5  7  1  0  0  0  0 
  7  8  2  0  0  0  0 
  8  9  1  0  0  0  0 
  9 10  2  0  0  0  0 
 10 11  1  0  0  0  0 
 10 12  1  0  0  0  0 
 12 13  1  0  0  0  0 
 12 14  2  0  0  0  0 
  7 14  1  0  0  0  0 
 14 15  1  0  0  0  0 
  9 16  1  0  0  0  0 
  8 17  1  0  0  0  0 
  5 18  1  1  0  0  0 
 18 19  1  0  0  0  0 
 19 20  2  0  0  0  0 
 20 21  1  0  0  0  0 
 20 22  1  0  0  0  0 
 22 23  2  0  0  0  0 
 23 24  1  0  0  0  0 
 23 25  1  0  0  0  0 
 25 26  2  0  0  0  0 
 19 26  1  0  0  0  0 
 26 27  1  0  0  0  0 
 27 28  1  0  0  0  0 
 27 29  1  0  0  0  0 
 29 30  1  0  0  0  0 
 29 31  1  0  0  0  0 
 31 32  1  0  0  0  0 
 31 33  1  0  0  0  0 
 33 34  1  0  0  0  0 
 33 35  1  0  0  0  0 
 35 36  1  0  0  0  0 
 35 37  1  0  0  0  0 
 37 38  1  0  0  0  0 
 37 39  1  0  0  0  0 
 39 40  2  0  0  0  0 
 39 41  1  0  0  0  0 
 41 42  1  0  0  0  0 
 37 43  1  0  0  0  0 
 29 43  1  0  0  0  0 
 35 44  1  0  0  0  0 
 44 45  1  0  0  0  0 
 33 46  1  0  0  0  0 
 46 47  1  0  0  0  0 
 31 48  1  0  0  0  0 
 48 49  1  0  0  0  0 
 22 50  1  0  0  0  0 
 50 51  2  0  0  0  0 
 51 52  1  0  0  0  0 
 51 53  1  0  0  0  0 
 53 54  1  0  0  0  0 
 54 55  1  0  0  0  0 
 54 56  1  0  0  0  0 
 56 57  1  0  0  0  0 
 56 58  1  0  0  0  0 
 56 59  1  0  0  0  0 
 59 60  1  0  0  0  0 
 59 61  1  0  0  0  0 
 59 62  1  0  0  0  0 
 62 63  1  0  0  0  0 
 62 64  1  0  0  0  0 
 64 65  1  0  0  0  0 
 64 66  1  0  0  0  0 
 64 67  1  0  0  0  0 
 54 67  1  0  0  0  0 
 67 68  1  0  0  0  0 
 67 69  1  0  0  0  0 
 53 70  1  0  0  0  0 
 70 71  2  0  0  0  0 
 50 71  1  0  0  0  0 
 71 72  1  0  0  0  0 
M  END
> <Rank>
9

> <Priority_score>
0.52

> <Reaction_type>
N-glucuronidation_(aniline)

> <Parent_ID>
51

> <Parent_InChI>
InChI=1S/C21H22Cl2FN5O/c1-12(19-16(22)2-3-17(24)20(19)23)30-18-8-13(9-27-21(18)25)14-10-28-29(11-14)15-4-6-26-7-5-15/h2-3,8-12,15,26H,4-7H2,1H3,(H2,25,27)

> <Parent_SMILES>
C[C@@H](Oc1cc(-c2cnn(C3CCNCC3)c2)cnc1N)c1c(Cl)ccc(F)c1Cl

$$$$
Molecule 51_metabolite 10
  CDK     0516241031

 53 56  0  0  0  0  0  0  0  0999 V2000
    1.4803   -8.5385    0.0000 C   0  0  0  0  0  0  0  0  0  0  0  0
    2.6937   -9.4203    0.0000 H   0  0  0  0  0  0  0  0  0  0  0  0
    0.8225   -9.8866    0.0000 H   0  0  0  0  0  0  0  0  0  0  0  0
    0.0384   -8.1248    0.0000 H   0  0  0  0  0  0  0  0  0  0  0  0
    1.6372   -7.0467    0.0000 C   0  0  2  0  0  0  0  0  0  0  0  0
    2.2950   -5.6986    0.0000 H   0  0  0  0  0  0  0  0  0  0  0  0
    4.0019   -7.7250    0.0000 C   0  0  0  0  0  0  0  0  0  0  0  0
    4.3650   -9.1813    0.0000 C   0  0  0  0  0  0  0  0  0  0  0  0
    5.8074   -9.5958    0.0000 C   0  0  0  0  0  0  0  0  0  0  0  0
    6.8867   -8.5541    0.0000 C   0  0  0  0  0  0  0  0  0  0  0  0
    8.3286   -8.9678    0.0000 H   0  0  0  0  0  0  0  0  0  0  0  0
    6.5236   -7.0979    0.0000 C   0  0  0  0  0  0  0  0  0  0  0  0
    7.6029   -6.0562    0.0000 H   0  0  0  0  0  0  0  0  0  0  0  0
    5.0812   -6.6834    0.0000 C   0  0  0  0  0  0  0  0  0  0  0  0
    4.7189   -5.2278    0.0000 Cl  0  0  0  0  0  0  0  0  0  0  0  0
    6.1697  -11.0514    0.0000 F   0  0  0  0  0  0  0  0  0  0  0  0
    3.2857  -10.2230    0.0000 Cl  0  0  0  0  0  0  0  0  0  0  0  0
    0.4238   -6.1649    0.0000 O   0  0  0  0  0  0  0  0  0  0  0  0
   -0.9466   -6.7748    0.0000 C   0  0  0  0  0  0  0  0  0  0  0  0
   -1.1039   -8.2674    0.0000 C   0  0  0  0  0  0  0  0  0  0  0  0
    0.1097   -9.1490    0.0000 H   0  0  0  0  0  0  0  0  0  0  0  0
   -2.4747   -8.8783    0.0000 C   0  0  0  0  0  0  0  0  0  0  0  0
   -3.6883   -7.9967    0.0000 C   0  0  0  0  0  0  0  0  0  0  0  0
   -5.0587   -8.6066    0.0000 H   0  0  0  0  0  0  0  0  0  0  0  0
   -3.5310   -6.5041    0.0000 N   0  0  0  0  0  0  0  0  0  0  0  0
   -2.1601   -5.8932    0.0000 C   0  0  0  0  0  0  0  0  0  0  0  0
   -2.0036   -4.4014    0.0000 N   0  0  0  0  0  0  0  0  0  0  0  0
   -3.2173   -3.5199    0.0000 H   0  0  0  0  0  0  0  0  0  0  0  0
   -0.6334   -3.7910    0.0000 H   0  0  0  0  0  0  0  0  0  0  0  0
   -2.6312  -10.3701    0.0000 C   0  0  0  0  0  0  0  0  0  0  0  0
   -3.9234  -11.1173    0.0000 C   0  0  0  0  0  0  0  0  0  0  0  0
   -5.2921  -10.5034    0.0000 H   0  0  0  0  0  0  0  0  0  0  0  0
   -3.6201  -12.5884    0.0000 N   0  0  0  0  0  0  0  0  0  0  0  0
   -4.6241  -13.7029    0.0000 C   0  0  0  0  0  0  0  0  0  0  0  0
   -3.3520  -14.4978    0.0000 H   0  0  0  0  0  0  0  0  0  0  0  0
   -5.1860  -15.0945    0.0000 C   0  0  0  0  0  0  0  0  0  0  0  0
   -3.7188  -15.4063    0.0000 H   0  0  0  0  0  0  0  0  0  0  0  0
   -5.2384  -16.5936    0.0000 H   0  0  0  0  0  0  0  0  0  0  0  0
   -6.6715  -15.3031    0.0000 C   0  0  0  0  0  0  0  0  0  0  0  0
   -6.2083  -16.7298    0.0000 H   0  0  0  0  0  0  0  0  0  0  0  0
   -7.9961  -16.0068    0.0000 H   0  0  0  0  0  0  0  0  0  0  0  0
   -7.5949  -14.1200    0.0000 N   0  0  0  0  0  0  0  0  0  0  0  0
   -7.0330  -12.7283    0.0000 C   0  0  0  0  0  0  0  0  0  0  0  0
   -8.5002  -12.4166    0.0000 H   0  0  0  0  0  0  0  0  0  0  0  0
   -6.9806  -11.2292    0.0000 H   0  0  0  0  0  0  0  0  0  0  0  0
   -5.5475  -12.5198    0.0000 C   0  0  0  0  0  0  0  0  0  0  0  0
   -6.0107  -11.0931    0.0000 H   0  0  0  0  0  0  0  0  0  0  0  0
   -4.2229  -11.8160    0.0000 H   0  0  0  0  0  0  0  0  0  0  0  0
   -9.0804  -14.3285    0.0000 O   0  0  0  0  0  0  0  0  0  0  0  0
   -9.6425  -15.7192    0.0000 H   0  0  0  0  0  0  0  0  0  0  0  0
   -2.1254  -12.7370    0.0000 N   0  0  0  0  0  0  0  0  0  0  0  0
   -1.5168  -11.3741    0.0000 C   0  0  0  0  0  0  0  0  0  0  0  0
   -0.0493  -11.0632    0.0000 H   0  0  0  0  0  0  0  0  0  0  0  0
  1  2  1  0  0  0  0 
  1  3  1  0  0  0  0 
  1  4  1  0  0  0  0 
  1  5  1  0  0  0  0 
  5  6  1  6  0  0  0 
  5  7  1  0  0  0  0 
  7  8  2  0  0  0  0 
  8  9  1  0  0  0  0 
  9 10  2  0  0  0  0 
 10 11  1  0  0  0  0 
 10 12  1  0  0  0  0 
 12 13  1  0  0  0  0 
 12 14  2  0  0  0  0 
  7 14  1  0  0  0  0 
 14 15  1  0  0  0  0 
  9 16  1  0  0  0  0 
  8 17  1  0  0  0  0 
  5 18  1  1  0  0  0 
 18 19  1  0  0  0  0 
 19 20  2  0  0  0  0 
 20 21  1  0  0  0  0 
 20 22  1  0  0  0  0 
 22 23  2  0  0  0  0 
 23 24  1  0  0  0  0 
 23 25  1  0  0  0  0 
 25 26  2  0  0  0  0 
 19 26  1  0  0  0  0 
 26 27  1  0  0  0  0 
 27 28  1  0  0  0  0 
 27 29  1  0  0  0  0 
 22 30  1  0  0  0  0 
 30 31  2  0  0  0  0 
 31 32  1  0  0  0  0 
 31 33  1  0  0  0  0 
 33 34  1  0  0  0  0 
 34 35  1  0  0  0  0 
 34 36  1  0  0  0  0 
 36 37  1  0  0  0  0 
 36 38  1  0  0  0  0 
 36 39  1  0  0  0  0 
 39 40  1  0  0  0  0 
 39 41  1  0  0  0  0 
 39 42  1  0  0  0  0 
 42 43  1  0  0  0  0 
 43 44  1  0  0  0  0 
 43 45  1  0  0  0  0 
 43 46  1  0  0  0  0 
 34 46  1  0  0  0  0 
 46 47  1  0  0  0  0 
 46 48  1  0  0  0  0 
 42 49  1  0  0  0  0 
 49 50  1  0  0  0  0 
 33 51  1  0  0  0  0 
 51 52  2  0  0  0  0 
 30 52  1  0  0  0  0 
 52 53  1  0  0  0  0 
M  END
> <Rank>
10

> <Priority_score>
0.468

> <Reaction_type>
amine hydroxylation

> <Parent_ID>
51

> <Parent_InChI>
InChI=1S/C21H22Cl2FN5O/c1-12(19-16(22)2-3-17(24)20(19)23)30-18-8-13(9-27-21(18)25)14-10-28-29(11-14)15-4-6-26-7-5-15/h2-3,8-12,15,26H,4-7H2,1H3,(H2,25,27)

> <Parent_SMILES>
C[C@@H](Oc1cc(-c2cnn(C3CCNCC3)c2)cnc1N)c1c(Cl)ccc(F)c1Cl

$$$$
Molecule 51_metabolite 11
  CDK     0516241031

 53 55  0  0  0  0  0  0  0  0999 V2000
   -4.5310  -11.1649    0.0000 C   0  0  0  0  0  0  0  0  0  0  0  0
   -4.3740   -9.6731    0.0000 H   0  0  0  0  0  0  0  0  0  0  0  0
   -3.0346  -11.0604    0.0000 H   0  0  0  0  0  0  0  0  0  0  0  0
   -4.1683  -12.6204    0.0000 H   0  0  0  0  0  0  0  0  0  0  0  0
   -5.9014  -11.7748    0.0000 C   0  0  2  0  0  0  0  0  0  0  0  0
   -7.3977  -11.8793    0.0000 H   0  0  0  0  0  0  0  0  0  0  0  0
   -6.4962   -9.3878    0.0000 C   0  0  0  0  0  0  0  0  0  0  0  0
   -5.4166   -8.3452    0.0000 C   0  0  0  0  0  0  0  0  0  0  0  0
   -5.7788   -6.8887    0.0000 C   0  0  0  0  0  0  0  0  0  0  0  0
   -7.2206   -6.4749    0.0000 C   0  0  0  0  0  0  0  0  0  0  0  0
   -7.5833   -5.0194    0.0000 H   0  0  0  0  0  0  0  0  0  0  0  0
   -8.3002   -7.5175    0.0000 C   0  0  0  0  0  0  0  0  0  0  0  0
   -9.7420   -7.1036    0.0000 H   0  0  0  0  0  0  0  0  0  0  0  0
   -7.9380   -8.9739    0.0000 C   0  0  0  0  0  0  0  0  0  0  0  0
   -9.0174  -10.0155    0.0000 Cl  0  0  0  0  0  0  0  0  0  0  0  0
   -4.6994   -5.8472    0.0000 F   0  0  0  0  0  0  0  0  0  0  0  0
   -3.9749   -8.7591    0.0000 Cl  0  0  0  0  0  0  0  0  0  0  0  0
   -6.0583  -13.2666    0.0000 O   0  0  0  0  0  0  0  0  0  0  0  0
   -4.8449  -14.1484    0.0000 C   0  0  0  0  0  0  0  0  0  0  0  0
   -3.4737  -13.5383    0.0000 C   0  0  0  0  0  0  0  0  0  0  0  0
   -3.3169  -12.0465    0.0000 H   0  0  0  0  0  0  0  0  0  0  0  0
   -2.2591  -14.4201    0.0000 C   0  0  0  0  0  0  0  0  0  0  0  0
   -2.4159  -15.9119    0.0000 C   0  0  0  0  0  0  0  0  0  0  0  0
   -1.2025  -16.7937    0.0000 H   0  0  0  0  0  0  0  0  0  0  0  0
   -3.7871  -16.5219    0.0000 N   0  0  0  0  0  0  0  0  0  0  0  0
   -5.0017  -15.6402    0.0000 C   0  0  0  0  0  0  0  0  0  0  0  0
   -6.3718  -16.2506    0.0000 N   0  0  0  0  0  0  0  0  0  0  0  0
   -6.5283  -17.7424    0.0000 H   0  0  0  0  0  0  0  0  0  0  0  0
   -7.5855  -15.3691    0.0000 H   0  0  0  0  0  0  0  0  0  0  0  0
   -0.8890  -13.8097    0.0000 C   0  0  0  0  0  0  0  0  0  0  0  0
    0.4042  -14.5552    0.0000 C   0  0  0  0  0  0  0  0  0  0  0  0
    0.5569  -16.0474    0.0000 H   0  0  0  0  0  0  0  0  0  0  0  0
    1.5266  -13.5569    0.0000 N   0  0  0  0  0  0  0  0  0  0  0  0
    2.9937  -13.8692    0.0000 C   0  0  0  0  0  0  0  0  0  0  0  0
    4.2656  -14.6643    0.0000 H   0  0  0  0  0  0  0  0  0  0  0  0
    4.3189  -12.3981    0.0000 C   0  0  0  0  0  0  0  0  0  0  0  0
    3.0471  -11.6029    0.0000 H   0  0  0  0  0  0  0  0  0  0  0  0
    4.8812  -11.0074    0.0000 H   0  0  0  0  0  0  0  0  0  0  0  0
    5.7861  -12.7103    0.0000 C   0  0  0  0  0  0  0  0  0  0  0  0
    7.0580  -13.5055    0.0000 H   0  0  0  0  0  0  0  0  0  0  0  0
    5.2238  -14.1009    0.0000 H   0  0  0  0  0  0  0  0  0  0  0  0
    6.7901  -11.5958    0.0000 N   0  0  0  0  0  0  0  0  0  0  0  0
    8.2572  -11.9080    0.0000 H   0  0  0  0  0  0  0  0  0  0  0  0
    6.3269  -10.1691    0.0000 H   0  0  0  0  0  0  0  0  0  0  0  0
    2.4315  -15.2598    0.0000 C   0  0  0  0  0  0  0  0  0  0  0  0
    1.4275  -16.3743    0.0000 H   0  0  0  0  0  0  0  0  0  0  0  0
    1.1596  -14.4646    0.0000 H   0  0  0  0  0  0  0  0  0  0  0  0
    3.3547  -16.4420    0.0000 C   0  0  0  0  0  0  0  0  0  0  0  0
    4.8401  -16.2336    0.0000 H   0  0  0  0  0  0  0  0  0  0  0  0
    2.7924  -17.8327    0.0000 O   0  0  0  0  0  0  0  0  0  0  0  0
    0.9079  -12.1882    0.0000 N   0  0  0  0  0  0  0  0  0  0  0  0
   -0.5767  -12.3425    0.0000 C   0  0  0  0  0  0  0  0  0  0  0  0
   -1.5797  -11.2271    0.0000 H   0  0  0  0  0  0  0  0  0  0  0  0
  1  2  1  0  0  0  0 
  1  3  1  0  0  0  0 
  1  4  1  0  0  0  0 
  1  5  1  0  0  0  0 
  5  6  1  6  0  0  0 
  5  7  1  0  0  0  0 
  7  8  2  0  0  0  0 
  8  9  1  0  0  0  0 
  9 10  2  0  0  0  0 
 10 11  1  0  0  0  0 
 10 12  1  0  0  0  0 
 12 13  1  0  0  0  0 
 12 14  2  0  0  0  0 
  7 14  1  0  0  0  0 
 14 15  1  0  0  0  0 
  9 16  1  0  0  0  0 
  8 17  1  0  0  0  0 
  5 18  1  1  0  0  0 
 18 19  1  0  0  0  0 
 19 20  2  0  0  0  0 
 20 21  1  0  0  0  0 
 20 22  1  0  0  0  0 
 22 23  2  0  0  0  0 
 23 24  1  0  0  0  0 
 23 25  1  0  0  0  0 
 25 26  2  0  0  0  0 
 19 26  1  0  0  0  0 
 26 27  1  0  0  0  0 
 27 28  1  0  0  0  0 
 27 29  1  0  0  0  0 
 22 30  1  0  0  0  0 
 30 31  2  0  0  0  0 
 31 32  1  0  0  0  0 
 31 33  1  0  0  0  0 
 33 34  1  0  0  0  0 
 34 35  1  0  0  0  0 
 34 36  1  0  0  0  0 
 36 37  1  0  0  0  0 
 36 38  1  0  0  0  0 
 36 39  1  0  0  0  0 
 39 40  1  0  0  0  0 
 39 41  1  0  0  0  0 
 39 42  1  0  0  0  0 
 42 43  1  0  0  0  0 
 42 44  1  0  0  0  0 
 34 45  1  0  0  0  0 
 45 46  1  0  0  0  0 
 45 47  1  0  0  0  0 
 45 48  1  0  0  0  0 
 48 49  1  0  0  0  0 
 48 50  2  0  0  0  0 
 33 51  1  0  0  0  0 
 51 52  2  0  0  0  0 
 30 52  1  0  0  0  0 
 52 53  1  0  0  0  0 
M  END
> <Rank>
10

> <Priority_score>
0.468

> <Reaction_type>
N-dealkylation

> <Parent_ID>
51

> <Parent_InChI>
InChI=1S/C21H22Cl2FN5O/c1-12(19-16(22)2-3-17(24)20(19)23)30-18-8-13(9-27-21(18)25)14-10-28-29(11-14)15-4-6-26-7-5-15/h2-3,8-12,15,26H,4-7H2,1H3,(H2,25,27)

> <Parent_SMILES>
C[C@@H](Oc1cc(-c2cnn(C3CCNCC3)c2)cnc1N)c1c(Cl)ccc(F)c1Cl

$$$$
Molecule 51_metabolite 12
  CDK     0516241031

 51 54  0  0  0  0  0  0  0  0999 V2000
   -3.3836  -10.6947    0.0000 C   0  0  0  0  0  0  0  0  0  0  0  0
   -3.2266   -9.2029    0.0000 H   0  0  0  0  0  0  0  0  0  0  0  0
   -1.8872  -10.5902    0.0000 H   0  0  0  0  0  0  0  0  0  0  0  0
   -3.0209  -12.1502    0.0000 H   0  0  0  0  0  0  0  0  0  0  0  0
   -4.7540  -11.3046    0.0000 C   0  0  2  0  0  0  0  0  0  0  0  0
   -6.2504  -11.4091    0.0000 H   0  0  0  0  0  0  0  0  0  0  0  0
   -5.3488   -8.9176    0.0000 C   0  0  0  0  0  0  0  0  0  0  0  0
   -4.2693   -7.8750    0.0000 C   0  0  0  0  0  0  0  0  0  0  0  0
   -4.6315   -6.4186    0.0000 C   0  0  0  0  0  0  0  0  0  0  0  0
   -6.0732   -6.0047    0.0000 C   0  0  0  0  0  0  0  0  0  0  0  0
   -6.4360   -4.5492    0.0000 H   0  0  0  0  0  0  0  0  0  0  0  0
   -7.1528   -7.0473    0.0000 C   0  0  0  0  0  0  0  0  0  0  0  0
   -8.5946   -6.6334    0.0000 H   0  0  0  0  0  0  0  0  0  0  0  0
   -6.7906   -8.5038    0.0000 C   0  0  0  0  0  0  0  0  0  0  0  0
   -7.8701   -9.5453    0.0000 Cl  0  0  0  0  0  0  0  0  0  0  0  0
   -3.5520   -5.3770    0.0000 F   0  0  0  0  0  0  0  0  0  0  0  0
   -2.8275   -8.2889    0.0000 Cl  0  0  0  0  0  0  0  0  0  0  0  0
   -4.9110  -12.7964    0.0000 O   0  0  0  0  0  0  0  0  0  0  0  0
   -3.6975  -13.6782    0.0000 C   0  0  0  0  0  0  0  0  0  0  0  0
   -2.3263  -13.0682    0.0000 C   0  0  0  0  0  0  0  0  0  0  0  0
   -2.1696  -11.5764    0.0000 H   0  0  0  0  0  0  0  0  0  0  0  0
   -1.1118  -13.9499    0.0000 C   0  0  0  0  0  0  0  0  0  0  0  0
   -1.2685  -15.4417    0.0000 C   0  0  0  0  0  0  0  0  0  0  0  0
   -0.0551  -16.3235    0.0000 H   0  0  0  0  0  0  0  0  0  0  0  0
   -2.6398  -16.0517    0.0000 N   0  0  0  0  0  0  0  0  0  0  0  0
   -3.8543  -15.1700    0.0000 C   0  0  0  0  0  0  0  0  0  0  0  0
   -5.2245  -15.7804    0.0000 N   0  0  0  0  0  0  0  0  0  0  0  0
   -5.3810  -17.2722    0.0000 H   0  0  0  0  0  0  0  0  0  0  0  0
   -6.4382  -14.8990    0.0000 H   0  0  0  0  0  0  0  0  0  0  0  0
    0.2584  -13.3395    0.0000 C   0  0  0  0  0  0  0  0  0  0  0  0
    1.5516  -14.0850    0.0000 C   0  0  0  0  0  0  0  0  0  0  0  0
    1.7043  -15.5772    0.0000 H   0  0  0  0  0  0  0  0  0  0  0  0
    2.6739  -13.0868    0.0000 N   0  0  0  0  0  0  0  0  0  0  0  0
    4.1411  -13.3990    0.0000 C   0  0  0  0  0  0  0  0  0  0  0  0
    4.1935  -11.8999    0.0000 H   0  0  0  0  0  0  0  0  0  0  0  0
    5.6273  -13.1898    0.0000 C   0  0  0  0  0  0  0  0  0  0  0  0
    5.1636  -11.7633    0.0000 H   0  0  0  0  0  0  0  0  0  0  0  0
    6.9517  -12.4857    0.0000 H   0  0  0  0  0  0  0  0  0  0  0  0
    6.5506  -14.3720    0.0000 C   0  0  0  0  0  0  0  0  0  0  0  0
    7.5546  -13.2575    0.0000 H   0  0  0  0  0  0  0  0  0  0  0  0
    7.8224  -15.1673    0.0000 H   0  0  0  0  0  0  0  0  0  0  0  0
    5.9877  -15.7633    0.0000 N   0  0  0  0  0  0  0  0  0  0  0  0
    6.9111  -16.9454    0.0000 H   0  0  0  0  0  0  0  0  0  0  0  0
    4.5016  -15.9724    0.0000 C   0  0  0  0  0  0  0  0  0  0  0  0
    3.9397  -17.3632    0.0000 O   0  0  0  0  0  0  0  0  0  0  0  0
    3.5782  -14.7903    0.0000 C   0  0  0  0  0  0  0  0  0  0  0  0
    2.5743  -15.9048    0.0000 H   0  0  0  0  0  0  0  0  0  0  0  0
    2.3064  -13.9950    0.0000 H   0  0  0  0  0  0  0  0  0  0  0  0
    2.0553  -11.7180    0.0000 N   0  0  0  0  0  0  0  0  0  0  0  0
    0.5706  -11.8724    0.0000 C   0  0  0  0  0  0  0  0  0  0  0  0
   -0.4323  -10.7570    0.0000 H   0  0  0  0  0  0  0  0  0  0  0  0
  1  2  1  0  0  0  0 
  1  3  1  0  0  0  0 
  1  4  1  0  0  0  0 
  1  5  1  0  0  0  0 
  5  6  1  6  0  0  0 
  5  7  1  0  0  0  0 
  7  8  2  0  0  0  0 
  8  9  1  0  0  0  0 
  9 10  2  0  0  0  0 
 10 11  1  0  0  0  0 
 10 12  1  0  0  0  0 
 12 13  1  0  0  0  0 
 12 14  2  0  0  0  0 
  7 14  1  0  0  0  0 
 14 15  1  0  0  0  0 
  9 16  1  0  0  0  0 
  8 17  1  0  0  0  0 
  5 18  1  1  0  0  0 
 18 19  1  0  0  0  0 
 19 20  2  0  0  0  0 
 20 21  1  0  0  0  0 
 20 22  1  0  0  0  0 
 22 23  2  0  0  0  0 
 23 24  1  0  0  0  0 
 23 25  1  0  0  0  0 
 25 26  2  0  0  0  0 
 19 26  1  0  0  0  0 
 26 27  1  0  0  0  0 
 27 28  1  0  0  0  0 
 27 29  1  0  0  0  0 
 22 30  1  0  0  0  0 
 30 31  2  0  0  0  0 
 31 32  1  0  0  0  0 
 31 33  1  0  0  0  0 
 33 34  1  0  0  0  0 
 34 35  1  0  0  0  0 
 34 36  1  0  0  0  0 
 36 37  1  0  0  0  0 
 36 38  1  0  0  0  0 
 36 39  1  0  0  0  0 
 39 40  1  0  0  0  0 
 39 41  1  0  0  0  0 
 39 42  1  0  0  0  0 
 42 43  1  0  0  0  0 
 42 44  1  0  0  0  0 
 44 45  2  0  0  0  0 
 44 46  1  0  0  0  0 
 34 46  1  0  0  0  0 
 46 47  1  0  0  0  0 
 46 48  1  0  0  0  0 
 33 49  1  0  0  0  0 
 49 50  2  0  0  0  0 
 30 50  1  0  0  0  0 
 50 51  1  0  0  0  0 
M  END
> <Rank>
10

> <Priority_score>
0.468

> <Reaction_type>
oxidation_(amine_in_a_ring)

> <Parent_ID>
51

> <Parent_InChI>
InChI=1S/C21H22Cl2FN5O/c1-12(19-16(22)2-3-17(24)20(19)23)30-18-8-13(9-27-21(18)25)14-10-28-29(11-14)15-4-6-26-7-5-15/h2-3,8-12,15,26H,4-7H2,1H3,(H2,25,27)

> <Parent_SMILES>
C[C@@H](Oc1cc(-c2cnn(C3CCNCC3)c2)cnc1N)c1c(Cl)ccc(F)c1Cl

$$$$
Molecule 51_metabolite 13
  CDK     0516241031

 53 56  0  0  0  0  0  0  0  0999 V2000
   -3.7221  -11.8767    0.0000 C   0  0  0  0  0  0  0  0  0  0  0  0
   -4.3321  -10.5063    0.0000 H   0  0  0  0  0  0  0  0  0  0  0  0
   -2.4785  -11.0380    0.0000 H   0  0  0  0  0  0  0  0  0  0  0  0
   -2.6803  -12.9558    0.0000 H   0  0  0  0  0  0  0  0  0  0  0  0
   -4.6039  -13.0901    0.0000 C   0  0  2  0  0  0  0  0  0  0  0  0
   -5.8476  -13.9287    0.0000 H   0  0  0  0  0  0  0  0  0  0  0  0
   -6.3126  -11.3203    0.0000 C   0  0  0  0  0  0  0  0  0  0  0  0
   -5.8990   -9.8776    0.0000 C   0  0  0  0  0  0  0  0  0  0  0  0
   -6.9409   -8.7974    0.0000 C   0  0  0  0  0  0  0  0  0  0  0  0
   -8.3964   -9.1598    0.0000 C   0  0  0  0  0  0  0  0  0  0  0  0
   -9.4383   -8.0807    0.0000 H   0  0  0  0  0  0  0  0  0  0  0  0
   -8.8101  -10.6025    0.0000 C   0  0  0  0  0  0  0  0  0  0  0  0
  -10.2656  -10.9650    0.0000 H   0  0  0  0  0  0  0  0  0  0  0  0
   -7.7681  -11.6828    0.0000 C   0  0  0  0  0  0  0  0  0  0  0  0
   -8.1822  -13.1245    0.0000 Cl  0  0  0  0  0  0  0  0  0  0  0  0
   -6.5268   -7.3557    0.0000 F   0  0  0  0  0  0  0  0  0  0  0  0
   -4.4434   -9.5151    0.0000 Cl  0  0  0  0  0  0  0  0  0  0  0  0
   -3.9940  -14.4605    0.0000 O   0  0  0  0  0  0  0  0  0  0  0  0
   -2.5022  -14.6175    0.0000 C   0  0  0  0  0  0  0  0  0  0  0  0
   -1.6197  -13.4035    0.0000 C   0  0  0  0  0  0  0  0  0  0  0  0
   -2.2299  -12.0332    0.0000 H   0  0  0  0  0  0  0  0  0  0  0  0
   -0.1271  -13.5598    0.0000 C   0  0  0  0  0  0  0  0  0  0  0  0
    0.4831  -14.9301    0.0000 C   0  0  0  0  0  0  0  0  0  0  0  0
    1.9749  -15.0871    0.0000 H   0  0  0  0  0  0  0  0  0  0  0  0
   -0.3994  -16.1441    0.0000 N   0  0  0  0  0  0  0  0  0  0  0  0
   -1.8921  -15.9878    0.0000 C   0  0  0  0  0  0  0  0  0  0  0  0
   -2.7735  -17.2015    0.0000 N   0  0  0  0  0  0  0  0  0  0  0  0
   -2.1631  -18.5716    0.0000 H   0  0  0  0  0  0  0  0  0  0  0  0
   -4.2653  -17.0450    0.0000 H   0  0  0  0  0  0  0  0  0  0  0  0
    0.7544  -12.3461    0.0000 C   0  0  0  0  0  0  0  0  0  0  0  0
    2.2470  -12.3452    0.0000 C   0  0  0  0  0  0  0  0  0  0  0  0
    3.1254  -13.5611    0.0000 H   0  0  0  0  0  0  0  0  0  0  0  0
    2.7199  -10.9195    0.0000 N   0  0  0  0  0  0  0  0  0  0  0  0
    4.1466  -10.4563    0.0000 C   0  0  0  0  0  0  0  0  0  0  0  0
    3.4424   -9.1319    0.0000 H   0  0  0  0  0  0  0  0  0  0  0  0
    5.3291   -9.5321    0.0000 C   0  0  0  0  0  0  0  0  0  0  0  0
    4.2143   -8.5285    0.0000 H   0  0  0  0  0  0  0  0  0  0  0  0
    6.1240   -8.2600    0.0000 H   0  0  0  0  0  0  0  0  0  0  0  0
    6.7198  -10.0942    0.0000 C   0  0  0  0  0  0  0  0  0  0  0  0
    7.0320   -8.6270    0.0000 H   0  0  0  0  0  0  0  0  0  0  0  0
    8.2189  -10.1471    0.0000 H   0  0  0  0  0  0  0  0  0  0  0  0
    6.9280  -11.5805    0.0000 N   0  0  0  0  0  0  0  0  0  0  0  0
    8.3187  -12.1426    0.0000 H   0  0  0  0  0  0  0  0  0  0  0  0
    5.7455  -12.5047    0.0000 C   0  0  0  0  0  0  0  0  0  0  0  0
    6.8603  -13.5084    0.0000 H   0  0  0  0  0  0  0  0  0  0  0  0
    4.3548  -11.9426    0.0000 C   0  0  0  0  0  0  0  0  0  0  0  0
    4.0426  -13.4098    0.0000 H   0  0  0  0  0  0  0  0  0  0  0  0
    2.8557  -11.8898    0.0000 H   0  0  0  0  0  0  0  0  0  0  0  0
    4.9506  -13.7768    0.0000 O   0  0  0  0  0  0  0  0  0  0  0  0
    5.6547  -15.1012    0.0000 H   0  0  0  0  0  0  0  0  0  0  0  0
    1.4998  -10.0435    0.0000 N   0  0  0  0  0  0  0  0  0  0  0  0
    0.2912  -10.9194    0.0000 C   0  0  0  0  0  0  0  0  0  0  0  0
   -1.1351  -10.4549    0.0000 H   0  0  0  0  0  0  0  0  0  0  0  0
  1  2  1  0  0  0  0 
  1  3  1  0  0  0  0 
  1  4  1  0  0  0  0 
  1  5  1  0  0  0  0 
  5  6  1  6  0  0  0 
  5  7  1  0  0  0  0 
  7  8  2  0  0  0  0 
  8  9  1  0  0  0  0 
  9 10  2  0  0  0  0 
 10 11  1  0  0  0  0 
 10 12  1  0  0  0  0 
 12 13  1  0  0  0  0 
 12 14  2  0  0  0  0 
  7 14  1  0  0  0  0 
 14 15  1  0  0  0  0 
  9 16  1  0  0  0  0 
  8 17  1  0  0  0  0 
  5 18  1  1  0  0  0 
 18 19  1  0  0  0  0 
 19 20  2  0  0  0  0 
 20 21  1  0  0  0  0 
 20 22  1  0  0  0  0 
 22 23  2  0  0  0  0 
 23 24  1  0  0  0  0 
 23 25  1  0  0  0  0 
 25 26  2  0  0  0  0 
 19 26  1  0  0  0  0 
 26 27  1  0  0  0  0 
 27 28  1  0  0  0  0 
 27 29  1  0  0  0  0 
 22 30  1  0  0  0  0 
 30 31  2  0  0  0  0 
 31 32  1  0  0  0  0 
 31 33  1  0  0  0  0 
 33 34  1  0  0  0  0 
 34 35  1  0  0  0  0 
 34 36  1  0  0  0  0 
 36 37  1  0  0  0  0 
 36 38  1  0  0  0  0 
 36 39  1  0  0  0  0 
 39 40  1  0  0  0  0 
 39 41  1  0  0  0  0 
 39 42  1  0  0  0  0 
 42 43  1  0  0  0  0 
 42 44  1  0  0  0  0 
 44 45  1  0  0  0  0 
 44 46  1  0  0  0  0 
 34 46  1  0  0  0  0 
 46 47  1  0  0  0  0 
 46 48  1  0  0  0  0 
 44 49  1  0  0  0  0 
 49 50  1  0  0  0  0 
 33 51  1  0  0  0  0 
 51 52  2  0  0  0  0 
 30 52  1  0  0  0  0 
 52 53  1  0  0  0  0 
M  END
> <Rank>
10

> <Priority_score>
0.468

> <Reaction_type>
aliphatic_hydroxylation_(sec_carbon_next_to_SP2,in_a_ring)

> <Parent_ID>
51

> <Parent_InChI>
InChI=1S/C21H22Cl2FN5O/c1-12(19-16(22)2-3-17(24)20(19)23)30-18-8-13(9-27-21(18)25)14-10-28-29(11-14)15-4-6-26-7-5-15/h2-3,8-12,15,26H,4-7H2,1H3,(H2,25,27)

> <Parent_SMILES>
C[C@@H](Oc1cc(-c2cnn(C3CCNCC3)c2)cnc1N)c1c(Cl)ccc(F)c1Cl

$$$$
Molecule 51_metabolite 14
  CDK     0516241031

 53 56  0  0  0  0  0  0  0  0999 V2000
    2.1267  -13.8183    0.0000 C   0  0  0  0  0  0  0  0  0  0  0  0
    3.3401  -12.9365    0.0000 H   0  0  0  0  0  0  0  0  0  0  0  0
    1.4690  -12.4702    0.0000 H   0  0  0  0  0  0  0  0  0  0  0  0
    0.6848  -14.2319    0.0000 H   0  0  0  0  0  0  0  0  0  0  0  0
    2.2836  -15.3100    0.0000 C   0  0  2  0  0  0  0  0  0  0  0  0
    2.9414  -16.6582    0.0000 H   0  0  0  0  0  0  0  0  0  0  0  0
    4.6483  -14.6317    0.0000 C   0  0  0  0  0  0  0  0  0  0  0  0
    5.0114  -13.1755    0.0000 C   0  0  0  0  0  0  0  0  0  0  0  0
    6.4539  -12.7609    0.0000 C   0  0  0  0  0  0  0  0  0  0  0  0
    7.5332  -13.8026    0.0000 C   0  0  0  0  0  0  0  0  0  0  0  0
    8.9750  -13.3890    0.0000 H   0  0  0  0  0  0  0  0  0  0  0  0
    7.1700  -15.2588    0.0000 C   0  0  0  0  0  0  0  0  0  0  0  0
    8.2493  -16.3005    0.0000 H   0  0  0  0  0  0  0  0  0  0  0  0
    5.7276  -15.6734    0.0000 C   0  0  0  0  0  0  0  0  0  0  0  0
    5.3653  -17.1290    0.0000 Cl  0  0  0  0  0  0  0  0  0  0  0  0
    6.8161  -11.3053    0.0000 F   0  0  0  0  0  0  0  0  0  0  0  0
    3.9321  -12.1338    0.0000 Cl  0  0  0  0  0  0  0  0  0  0  0  0
    1.0702  -16.1919    0.0000 O   0  0  0  0  0  0  0  0  0  0  0  0
   -0.3002  -15.5819    0.0000 C   0  0  0  0  0  0  0  0  0  0  0  0
   -0.4575  -14.0894    0.0000 C   0  0  0  0  0  0  0  0  0  0  0  0
    0.7561  -13.2077    0.0000 H   0  0  0  0  0  0  0  0  0  0  0  0
   -1.8283  -13.4784    0.0000 C   0  0  0  0  0  0  0  0  0  0  0  0
   -3.0419  -14.3601    0.0000 C   0  0  0  0  0  0  0  0  0  0  0  0
   -4.4123  -13.7501    0.0000 H   0  0  0  0  0  0  0  0  0  0  0  0
   -2.8846  -15.8526    0.0000 N   0  0  0  0  0  0  0  0  0  0  0  0
   -1.5137  -16.4636    0.0000 C   0  0  0  0  0  0  0  0  0  0  0  0
   -1.3572  -17.9554    0.0000 N   0  0  0  0  0  0  0  0  0  0  0  0
   -2.5709  -18.8368    0.0000 H   0  0  0  0  0  0  0  0  0  0  0  0
    0.0130  -18.5658    0.0000 H   0  0  0  0  0  0  0  0  0  0  0  0
   -1.9848  -11.9866    0.0000 C   0  0  0  0  0  0  0  0  0  0  0  0
   -3.2770  -11.2395    0.0000 C   0  0  0  0  0  0  0  0  0  0  0  0
   -4.6457  -11.8533    0.0000 H   0  0  0  0  0  0  0  0  0  0  0  0
   -2.9737   -9.7683    0.0000 N   0  0  0  0  0  0  0  0  0  0  0  0
   -3.9777   -8.6539    0.0000 C   0  0  0  0  0  0  0  0  0  0  0  0
   -4.9006   -9.8363    0.0000 H   0  0  0  0  0  0  0  0  0  0  0  0
   -5.3033   -7.9502    0.0000 C   0  0  0  0  0  0  0  0  0  0  0  0
   -5.7660   -9.3770    0.0000 H   0  0  0  0  0  0  0  0  0  0  0  0
   -6.7888   -7.7421    0.0000 H   0  0  0  0  0  0  0  0  0  0  0  0
   -5.3562   -6.4511    0.0000 C   0  0  0  0  0  0  0  0  0  0  0  0
   -6.8233   -6.7633    0.0000 H   0  0  0  0  0  0  0  0  0  0  0  0
   -5.9183   -5.0604    0.0000 H   0  0  0  0  0  0  0  0  0  0  0  0
   -4.0834   -5.6557    0.0000 N   0  0  0  0  0  0  0  0  0  0  0  0
   -4.1363   -4.1567    0.0000 H   0  0  0  0  0  0  0  0  0  0  0  0
   -2.7578   -6.3594    0.0000 C   0  0  0  0  0  0  0  0  0  0  0  0
   -2.2950   -4.9326    0.0000 H   0  0  0  0  0  0  0  0  0  0  0  0
   -1.2723   -6.5675    0.0000 H   0  0  0  0  0  0  0  0  0  0  0  0
   -2.7049   -7.8585    0.0000 C   0  0  0  0  0  0  0  0  0  0  0  0
   -1.2378   -7.5463    0.0000 H   0  0  0  0  0  0  0  0  0  0  0  0
   -2.1428   -9.2492    0.0000 O   0  0  0  0  0  0  0  0  0  0  0  0
   -0.6574   -9.4578    0.0000 H   0  0  0  0  0  0  0  0  0  0  0  0
   -1.4790   -9.6197    0.0000 N   0  0  0  0  0  0  0  0  0  0  0  0
   -0.8703  -10.9826    0.0000 C   0  0  0  0  0  0  0  0  0  0  0  0
    0.5971  -11.2935    0.0000 H   0  0  0  0  0  0  0  0  0  0  0  0
  1  2  1  0  0  0  0 
  1  3  1  0  0  0  0 
  1  4  1  0  0  0  0 
  1  5  1  0  0  0  0 
  5  6  1  1  0  0  0 
  5  7  1  0  0  0  0 
  7  8  2  0  0  0  0 
  8  9  1  0  0  0  0 
  9 10  2  0  0  0  0 
 10 11  1  0  0  0  0 
 10 12  1  0  0  0  0 
 12 13  1  0  0  0  0 
 12 14  2  0  0  0  0 
  7 14  1  0  0  0  0 
 14 15  1  0  0  0  0 
  9 16  1  0  0  0  0 
  8 17  1  0  0  0  0 
  5 18  1  6  0  0  0 
 18 19  1  0  0  0  0 
 19 20  2  0  0  0  0 
 20 21  1  0  0  0  0 
 20 22  1  0  0  0  0 
 22 23  2  0  0  0  0 
 23 24  1  0  0  0  0 
 23 25  1  0  0  0  0 
 25 26  2  0  0  0  0 
 19 26  1  0  0  0  0 
 26 27  1  0  0  0  0 
 27 28  1  0  0  0  0 
 27 29  1  0  0  0  0 
 22 30  1  0  0  0  0 
 30 31  2  0  0  0  0 
 31 32  1  0  0  0  0 
 31 33  1  0  0  0  0 
 33 34  1  0  0  0  0 
 34 35  1  0  0  0  0 
 34 36  1  0  0  0  0 
 36 37  1  0  0  0  0 
 36 38  1  0  0  0  0 
 36 39  1  0  0  0  0 
 39 40  1  0  0  0  0 
 39 41  1  0  0  0  0 
 39 42  1  0  0  0  0 
 42 43  1  0  0  0  0 
 42 44  1  0  0  0  0 
 44 45  1  0  0  0  0 
 44 46  1  0  0  0  0 
 44 47  1  0  0  0  0 
 34 47  1  0  0  0  0 
 47 48  1  0  0  0  0 
 47 49  1  0  0  0  0 
 49 50  1  0  0  0  0 
 33 51  1  0  0  0  0 
 51 52  2  0  0  0  0 
 30 52  1  0  0  0  0 
 52 53  1  0  0  0  0 
M  END
> <Rank>
10

> <Priority_score>
0.468

> <Reaction_type>
aliphatic_hydroxylation_(sec_carbon_in_a_ringB)

> <Parent_ID>
51

> <Parent_InChI>
InChI=1S/C21H22Cl2FN5O/c1-12(19-16(22)2-3-17(24)20(19)23)30-18-8-13(9-27-21(18)25)14-10-28-29(11-14)15-4-6-26-7-5-15/h2-3,8-12,15,26H,4-7H2,1H3,(H2,25,27)

> <Parent_SMILES>
C[C@@H](Oc1cc(-c2cnn(C3CCNCC3)c2)cnc1N)c1c(Cl)ccc(F)c1Cl

$$$$
Molecule 51_metabolite 15
  CDK     0516241031

 56 59  0  0  0  0  0  0  0  0999 V2000
   -4.6212  -11.3576    0.0000 C   0  0  0  0  0  0  0  0  0  0  0  0
   -5.2311   -9.9872    0.0000 H   0  0  0  0  0  0  0  0  0  0  0  0
   -3.3775  -10.5190    0.0000 H   0  0  0  0  0  0  0  0  0  0  0  0
   -3.5793  -12.4367    0.0000 H   0  0  0  0  0  0  0  0  0  0  0  0
   -5.5030  -12.5710    0.0000 C   0  0  2  0  0  0  0  0  0  0  0  0
   -6.7466  -13.4097    0.0000 H   0  0  0  0  0  0  0  0  0  0  0  0
   -7.2116  -10.8012    0.0000 C   0  0  0  0  0  0  0  0  0  0  0  0
   -6.7980   -9.3585    0.0000 C   0  0  0  0  0  0  0  0  0  0  0  0
   -7.8399   -8.2783    0.0000 C   0  0  0  0  0  0  0  0  0  0  0  0
   -9.2955   -8.6408    0.0000 C   0  0  0  0  0  0  0  0  0  0  0  0
  -10.3373   -7.5616    0.0000 H   0  0  0  0  0  0  0  0  0  0  0  0
   -9.7091  -10.0835    0.0000 C   0  0  0  0  0  0  0  0  0  0  0  0
  -11.1646  -10.4460    0.0000 H   0  0  0  0  0  0  0  0  0  0  0  0
   -8.6672  -11.1637    0.0000 C   0  0  0  0  0  0  0  0  0  0  0  0
   -9.0813  -12.6054    0.0000 Cl  0  0  0  0  0  0  0  0  0  0  0  0
   -7.4258   -6.8366    0.0000 F   0  0  0  0  0  0  0  0  0  0  0  0
   -5.3425   -8.9961    0.0000 Cl  0  0  0  0  0  0  0  0  0  0  0  0
   -4.8930  -13.9414    0.0000 O   0  0  0  0  0  0  0  0  0  0  0  0
   -3.4013  -14.0984    0.0000 C   0  0  0  0  0  0  0  0  0  0  0  0
   -2.5188  -12.8844    0.0000 C   0  0  0  0  0  0  0  0  0  0  0  0
   -3.1289  -11.5142    0.0000 H   0  0  0  0  0  0  0  0  0  0  0  0
   -1.0261  -13.0408    0.0000 C   0  0  0  0  0  0  0  0  0  0  0  0
   -0.4159  -14.4111    0.0000 C   0  0  0  0  0  0  0  0  0  0  0  0
    1.0758  -14.5681    0.0000 H   0  0  0  0  0  0  0  0  0  0  0  0
   -1.2985  -15.6250    0.0000 N   0  0  0  0  0  0  0  0  0  0  0  0
   -2.7911  -15.4687    0.0000 C   0  0  0  0  0  0  0  0  0  0  0  0
   -3.6726  -16.6824    0.0000 N   0  0  0  0  0  0  0  0  0  0  0  0
   -5.1644  -16.5259    0.0000 H   0  0  0  0  0  0  0  0  0  0  0  0
   -3.0622  -18.0526    0.0000 S   0  0  0  0  0  0  0  0  0  0  0  0
   -1.8188  -17.2136    0.0000 O   0  0  0  0  0  0  0  0  0  0  0  0
   -2.0200  -19.1314    0.0000 O   0  0  0  0  0  0  0  0  0  0  0  0
   -3.9436  -19.2663    0.0000 O   0  0  0  0  0  0  0  0  0  0  0  0
   -3.3332  -20.6365    0.0000 H   0  0  0  0  0  0  0  0  0  0  0  0
   -0.1447  -11.8271    0.0000 C   0  0  0  0  0  0  0  0  0  0  0  0
    1.3480  -11.8261    0.0000 C   0  0  0  0  0  0  0  0  0  0  0  0
    2.2263  -13.0421    0.0000 H   0  0  0  0  0  0  0  0  0  0  0  0
    1.8209  -10.4004    0.0000 N   0  0  0  0  0  0  0  0  0  0  0  0
    3.2476   -9.9373    0.0000 C   0  0  0  0  0  0  0  0  0  0  0  0
    2.5434   -8.6128    0.0000 H   0  0  0  0  0  0  0  0  0  0  0  0
    4.4301   -9.0130    0.0000 C   0  0  0  0  0  0  0  0  0  0  0  0
    3.3153   -8.0094    0.0000 H   0  0  0  0  0  0  0  0  0  0  0  0
    5.2250   -7.7410    0.0000 H   0  0  0  0  0  0  0  0  0  0  0  0
    5.8208   -9.5751    0.0000 C   0  0  0  0  0  0  0  0  0  0  0  0
    6.1330   -8.1080    0.0000 H   0  0  0  0  0  0  0  0  0  0  0  0
    7.3198   -9.6280    0.0000 H   0  0  0  0  0  0  0  0  0  0  0  0
    6.0290  -11.0615    0.0000 N   0  0  0  0  0  0  0  0  0  0  0  0
    7.4197  -11.6236    0.0000 H   0  0  0  0  0  0  0  0  0  0  0  0
    4.8465  -11.9857    0.0000 C   0  0  0  0  0  0  0  0  0  0  0  0
    5.9612  -12.9893    0.0000 H   0  0  0  0  0  0  0  0  0  0  0  0
    4.0515  -13.2577    0.0000 H   0  0  0  0  0  0  0  0  0  0  0  0
    3.4558  -11.4236    0.0000 C   0  0  0  0  0  0  0  0  0  0  0  0
    3.1435  -12.8907    0.0000 H   0  0  0  0  0  0  0  0  0  0  0  0
    1.9567  -11.3707    0.0000 H   0  0  0  0  0  0  0  0  0  0  0  0
    0.6007   -9.5244    0.0000 N   0  0  0  0  0  0  0  0  0  0  0  0
   -0.6078  -10.4004    0.0000 C   0  0  0  0  0  0  0  0  0  0  0  0
   -2.0341   -9.9359    0.0000 H   0  0  0  0  0  0  0  0  0  0  0  0
  1  2  1  0  0  0  0 
  1  3  1  0  0  0  0 
  1  4  1  0  0  0  0 
  1  5  1  0  0  0  0 
  5  6  1  6  0  0  0 
  5  7  1  0  0  0  0 
  7  8  2  0  0  0  0 
  8  9  1  0  0  0  0 
  9 10  2  0  0  0  0 
 10 11  1  0  0  0  0 
 10 12  1  0  0  0  0 
 12 13  1  0  0  0  0 
 12 14  2  0  0  0  0 
  7 14  1  0  0  0  0 
 14 15  1  0  0  0  0 
  9 16  1  0  0  0  0 
  8 17  1  0  0  0  0 
  5 18  1  1  0  0  0 
 18 19  1  0  0  0  0 
 19 20  2  0  0  0  0 
 20 21  1  0  0  0  0 
 20 22  1  0  0  0  0 
 22 23  2  0  0  0  0 
 23 24  1  0  0  0  0 
 23 25  1  0  0  0  0 
 25 26  2  0  0  0  0 
 19 26  1  0  0  0  0 
 26 27  1  0  0  0  0 
 27 28  1  0  0  0  0 
 27 29  1  0  0  0  0 
 29 30  2  0  0  0  0 
 29 31  2  0  0  0  0 
 29 32  1  0  0  0  0 
 32 33  1  0  0  0  0 
 22 34  1  0  0  0  0 
 34 35  2  0  0  0  0 
 35 36  1  0  0  0  0 
 35 37  1  0  0  0  0 
 37 38  1  0  0  0  0 
 38 39  1  0  0  0  0 
 38 40  1  0  0  0  0 
 40 41  1  0  0  0  0 
 40 42  1  0  0  0  0 
 40 43  1  0  0  0  0 
 43 44  1  0  0  0  0 
 43 45  1  0  0  0  0 
 43 46  1  0  0  0  0 
 46 47  1  0  0  0  0 
 46 48  1  0  0  0  0 
 48 49  1  0  0  0  0 
 48 50  1  0  0  0  0 
 48 51  1  0  0  0  0 
 38 51  1  0  0  0  0 
 51 52  1  0  0  0  0 
 51 53  1  0  0  0  0 
 37 54  1  0  0  0  0 
 54 55  2  0  0  0  0 
 34 55  1  0  0  0  0 
 55 56  1  0  0  0  0 
M  END
> <Rank>
15

> <Priority_score>
0.4

> <Reaction_type>
sulfation_(aniline)

> <Parent_ID>
51

> <Parent_InChI>
InChI=1S/C21H22Cl2FN5O/c1-12(19-16(22)2-3-17(24)20(19)23)30-18-8-13(9-27-21(18)25)14-10-28-29(11-14)15-4-6-26-7-5-15/h2-3,8-12,15,26H,4-7H2,1H3,(H2,25,27)

> <Parent_SMILES>
C[C@@H](Oc1cc(-c2cnn(C3CCNCC3)c2)cnc1N)c1c(Cl)ccc(F)c1Cl

$$$$
Molecule 51_metabolite 16
  CDK     0516241031

 72 76  0  0  0  0  0  0  0  0999 V2000
   21.9131    3.9349    0.0000 C   0  0  0  0  0  0  0  0  0  0  0  0
   22.0179    5.4313    0.0000 H   0  0  0  0  0  0  0  0  0  0  0  0
   20.4577    4.2979    0.0000 H   0  0  0  0  0  0  0  0  0  0  0  0
   21.3029    2.5647    0.0000 H   0  0  0  0  0  0  0  0  0  0  0  0
   23.1566    3.0960    0.0000 C   0  0  2  0  0  0  0  0  0  0  0  0
   24.6120    2.7330    0.0000 H   0  0  0  0  0  0  0  0  0  0  0  0
   24.1574    5.3432    0.0000 C   0  0  0  0  0  0  0  0  0  0  0  0
   23.2755    6.5577    0.0000 C   0  0  0  0  0  0  0  0  0  0  0  0
   23.8854    7.9290    0.0000 C   0  0  0  0  0  0  0  0  0  0  0  0
   25.3772    8.0859    0.0000 C   0  0  0  0  0  0  0  0  0  0  0  0
   25.9874    9.4561    0.0000 H   0  0  0  0  0  0  0  0  0  0  0  0
   26.2590    6.8715    0.0000 C   0  0  0  0  0  0  0  0  0  0  0  0
   27.7508    7.0283    0.0000 H   0  0  0  0  0  0  0  0  0  0  0  0
   25.6491    5.5001    0.0000 C   0  0  0  0  0  0  0  0  0  0  0  0
   26.5311    4.2868    0.0000 Cl  0  0  0  0  0  0  0  0  0  0  0  0
   23.0035    9.1423    0.0000 F   0  0  0  0  0  0  0  0  0  0  0  0
   21.7837    6.4008    0.0000 Cl  0  0  0  0  0  0  0  0  0  0  0  0
   23.0518    1.5997    0.0000 O   0  0  0  0  0  0  0  0  0  0  0  0
   21.7036    0.9422    0.0000 C   0  0  0  0  0  0  0  0  0  0  0  0
   20.4593    1.7814    0.0000 C   0  0  0  0  0  0  0  0  0  0  0  0
   20.5643    3.2777    0.0000 H   0  0  0  0  0  0  0  0  0  0  0  0
   19.1099    1.1243    0.0000 C   0  0  0  0  0  0  0  0  0  0  0  0
   19.0049   -0.3721    0.0000 C   0  0  0  0  0  0  0  0  0  0  0  0
   17.6567   -1.0295    0.0000 H   0  0  0  0  0  0  0  0  0  0  0  0
   20.2492   -1.2112    0.0000 N   0  0  0  0  0  0  0  0  0  0  0  0
   21.5985   -0.5541    0.0000 C   0  0  0  0  0  0  0  0  0  0  0  0
   22.8418   -1.3934    0.0000 N   0  0  0  0  0  0  0  0  0  0  0  0
   22.7365   -2.8897    0.0000 H   0  0  0  0  0  0  0  0  0  0  0  0
   24.1902   -0.7364    0.0000 H   0  0  0  0  0  0  0  0  0  0  0  0
   17.8667    1.9636    0.0000 C   0  0  0  0  0  0  0  0  0  0  0  0
   16.4637    1.4543    0.0000 C   0  0  0  0  0  0  0  0  0  0  0  0
   16.0538    0.0113    0.0000 H   0  0  0  0  0  0  0  0  0  0  0  0
   15.5319    2.6324    0.0000 N   0  0  0  0  0  0  0  0  0  0  0  0
   14.0329    2.5800    0.0000 C   0  0  0  0  0  0  0  0  0  0  0  0
   14.2419    4.0654    0.0000 H   0  0  0  0  0  0  0  0  0  0  0  0
   12.6057    3.0444    0.0000 C   0  0  0  0  0  0  0  0  0  0  0  0
   13.3103    4.3686    0.0000 H   0  0  0  0  0  0  0  0  0  0  0  0
   11.4238    3.9681    0.0000 H   0  0  0  0  0  0  0  0  0  0  0  0
   11.4909    2.0408    0.0000 C   0  0  0  0  0  0  0  0  0  0  0  0
   10.6960    3.3128    0.0000 H   0  0  0  0  0  0  0  0  0  0  0  0
   10.1002    1.4787    0.0000 H   0  0  0  0  0  0  0  0  0  0  0  0
   11.8033    0.5728    0.0000 N   0  0  0  0  0  0  0  0  0  0  0  0
   13.2305    0.1085    0.0000 C   0  0  0  0  0  0  0  0  0  0  0  0
   12.5259   -1.2157    0.0000 H   0  0  0  0  0  0  0  0  0  0  0  0
   14.4123   -0.8152    0.0000 H   0  0  0  0  0  0  0  0  0  0  0  0
   14.3453    1.1121    0.0000 C   0  0  0  0  0  0  0  0  0  0  0  0
   15.1402   -0.1600    0.0000 H   0  0  0  0  0  0  0  0  0  0  0  0
   15.7360    1.6742    0.0000 H   0  0  0  0  0  0  0  0  0  0  0  0
   10.3317   -0.7519    0.0000 C   0  0  0  0  0  0  0  0  0  0  0  0
   11.5136   -1.6757    0.0000 H   0  0  0  0  0  0  0  0  0  0  0  0
    9.6271   -2.0762    0.0000 C   0  0  0  0  0  0  0  0  0  0  0  0
   11.0535   -2.5403    0.0000 H   0  0  0  0  0  0  0  0  0  0  0  0
    8.1272   -2.1276    0.0000 C   0  0  0  0  0  0  0  0  0  0  0  0
    8.4385   -3.5950    0.0000 H   0  0  0  0  0  0  0  0  0  0  0  0
    7.3318   -0.8549    0.0000 C   0  0  0  0  0  0  0  0  0  0  0  0
    6.2170   -1.8585    0.0000 H   0  0  0  0  0  0  0  0  0  0  0  0
    8.0364    0.4694    0.0000 C   0  0  0  0  0  0  0  0  0  0  0  0
    6.6100    0.9334    0.0000 H   0  0  0  0  0  0  0  0  0  0  0  0
    8.2459    1.9546    0.0000 C   0  0  0  0  0  0  0  0  0  0  0  0
    9.6370    2.5159    0.0000 O   0  0  0  0  0  0  0  0  0  0  0  0
    7.0644    2.8787    0.0000 O   0  0  0  0  0  0  0  0  0  0  0  0
    5.6733    2.3175    0.0000 H   0  0  0  0  0  0  0  0  0  0  0  0
    9.5364    0.5208    0.0000 O   0  0  0  0  0  0  0  0  0  0  0  0
    6.1500    0.0688    0.0000 O   0  0  0  0  0  0  0  0  0  0  0  0
    4.7591   -0.4928    0.0000 H   0  0  0  0  0  0  0  0  0  0  0  0
    6.7363   -2.6893    0.0000 O   0  0  0  0  0  0  0  0  0  0  0  0
    6.5273   -4.1746    0.0000 H   0  0  0  0  0  0  0  0  0  0  0  0
    9.4176   -3.5615    0.0000 O   0  0  0  0  0  0  0  0  0  0  0  0
   10.5992   -4.4855    0.0000 H   0  0  0  0  0  0  0  0  0  0  0  0
   16.3791    3.8728    0.0000 N   0  0  0  0  0  0  0  0  0  0  0  0
   17.8143    3.4627    0.0000 C   0  0  0  0  0  0  0  0  0  0  0  0
   18.9959    4.3867    0.0000 H   0  0  0  0  0  0  0  0  0  0  0  0
  1  2  1  0  0  0  0 
  1  3  1  0  0  0  0 
  1  4  1  0  0  0  0 
  1  5  1  0  0  0  0 
  5  6  1  1  0  0  0 
  5  7  1  0  0  0  0 
  7  8  2  0  0  0  0 
  8  9  1  0  0  0  0 
  9 10  2  0  0  0  0 
 10 11  1  0  0  0  0 
 10 12  1  0  0  0  0 
 12 13  1  0  0  0  0 
 12 14  2  0  0  0  0 
  7 14  1  0  0  0  0 
 14 15  1  0  0  0  0 
  9 16  1  0  0  0  0 
  8 17  1  0  0  0  0 
  5 18  1  6  0  0  0 
 18 19  1  0  0  0  0 
 19 20  2  0  0  0  0 
 20 21  1  0  0  0  0 
 20 22  1  0  0  0  0 
 22 23  2  0  0  0  0 
 23 24  1  0  0  0  0 
 23 25  1  0  0  0  0 
 25 26  2  0  0  0  0 
 19 26  1  0  0  0  0 
 26 27  1  0  0  0  0 
 27 28  1  0  0  0  0 
 27 29  1  0  0  0  0 
 22 30  1  0  0  0  0 
 30 31  2  0  0  0  0 
 31 32  1  0  0  0  0 
 31 33  1  0  0  0  0 
 33 34  1  0  0  0  0 
 34 35  1  0  0  0  0 
 34 36  1  0  0  0  0 
 36 37  1  0  0  0  0 
 36 38  1  0  0  0  0 
 36 39  1  0  0  0  0 
 39 40  1  0  0  0  0 
 39 41  1  0  0  0  0 
 39 42  1  0  0  0  0 
 42 43  1  0  0  0  0 
 43 44  1  0  0  0  0 
 43 45  1  0  0  0  0 
 43 46  1  0  0  0  0 
 34 46  1  0  0  0  0 
 46 47  1  0  0  0  0 
 46 48  1  0  0  0  0 
 42 49  1  0  0  0  0 
 49 50  1  0  0  0  0 
 49 51  1  0  0  0  0 
 51 52  1  0  0  0  0 
 51 53  1  0  0  0  0 
 53 54  1  0  0  0  0 
 53 55  1  0  0  0  0 
 55 56  1  0  0  0  0 
 55 57  1  0  0  0  0 
 57 58  1  0  0  0  0 
 57 59  1  0  0  0  0 
 59 60  2  0  0  0  0 
 59 61  1  0  0  0  0 
 61 62  1  0  0  0  0 
 57 63  1  0  0  0  0 
 49 63  1  0  0  0  0 
 55 64  1  0  0  0  0 
 64 65  1  0  0  0  0 
 53 66  1  0  0  0  0 
 66 67  1  0  0  0  0 
 51 68  1  0  0  0  0 
 68 69  1  0  0  0  0 
 33 70  1  0  0  0  0 
 70 71  2  0  0  0  0 
 30 71  1  0  0  0  0 
 71 72  1  0  0  0  0 
M  END
> <Rank>
16

> <Priority_score>
0.344

> <Reaction_type>
N-glucuronidation_(NH_in_a_ring)

> <Parent_ID>
51

> <Parent_InChI>
InChI=1S/C21H22Cl2FN5O/c1-12(19-16(22)2-3-17(24)20(19)23)30-18-8-13(9-27-21(18)25)14-10-28-29(11-14)15-4-6-26-7-5-15/h2-3,8-12,15,26H,4-7H2,1H3,(H2,25,27)

> <Parent_SMILES>
C[C@@H](Oc1cc(-c2cnn(C3CCNCC3)c2)cnc1N)c1c(Cl)ccc(F)c1Cl

$$$$
Molecule 51_metabolite 17
  CDK     0516241031

 53 56  0  0  0  0  0  0  0  0999 V2000
   -8.4409   -9.5180    0.0000 C   0  0  0  0  0  0  0  0  0  0  0  0
   -9.0981  -10.8663    0.0000 H   0  0  0  0  0  0  0  0  0  0  0  0
   -6.9437   -9.4127    0.0000 C   0  0  0  0  0  0  0  0  0  0  0  0
   -6.2854   -8.0640    0.0000 C   0  0  0  0  0  0  0  0  0  0  0  0
   -7.1243   -6.8205    0.0000 C   0  0  0  0  0  0  0  0  0  0  0  0
   -8.6214   -6.9257    0.0000 C   0  0  0  0  0  0  0  0  0  0  0  0
   -9.2797   -8.2744    0.0000 C   0  0  0  0  0  0  0  0  0  0  0  0
  -10.7761   -8.3789    0.0000 H   0  0  0  0  0  0  0  0  0  0  0  0
   -9.4602   -5.6822    0.0000 F   0  0  0  0  0  0  0  0  0  0  0  0
   -6.4670   -5.4721    0.0000 Cl  0  0  0  0  0  0  0  0  0  0  0  0
   -4.7891   -7.9595    0.0000 C   0  0  1  0  0  0  0  0  0  0  0  0
   -5.1518   -6.5040    0.0000 H   0  0  0  0  0  0  0  0  0  0  0  0
   -3.4187   -7.3496    0.0000 C   0  0  0  0  0  0  0  0  0  0  0  0
   -1.9223   -7.2451    0.0000 H   0  0  0  0  0  0  0  0  0  0  0  0
   -3.0560   -8.8051    0.0000 H   0  0  0  0  0  0  0  0  0  0  0  0
   -3.2617   -5.8578    0.0000 O   0  0  0  0  0  0  0  0  0  0  0  0
   -1.8913   -5.2479    0.0000 H   0  0  0  0  0  0  0  0  0  0  0  0
   -4.9460   -9.4513    0.0000 O   0  0  0  0  0  0  0  0  0  0  0  0
   -3.7326  -10.3331    0.0000 C   0  0  0  0  0  0  0  0  0  0  0  0
   -2.3614   -9.7231    0.0000 C   0  0  0  0  0  0  0  0  0  0  0  0
   -2.2046   -8.2313    0.0000 H   0  0  0  0  0  0  0  0  0  0  0  0
   -1.1468  -10.6048    0.0000 C   0  0  0  0  0  0  0  0  0  0  0  0
   -1.3036  -12.0966    0.0000 C   0  0  0  0  0  0  0  0  0  0  0  0
   -0.0902  -12.9784    0.0000 H   0  0  0  0  0  0  0  0  0  0  0  0
   -2.6748  -12.7066    0.0000 N   0  0  0  0  0  0  0  0  0  0  0  0
   -3.8893  -11.8249    0.0000 C   0  0  0  0  0  0  0  0  0  0  0  0
   -5.2595  -12.4353    0.0000 N   0  0  0  0  0  0  0  0  0  0  0  0
   -5.4160  -13.9271    0.0000 H   0  0  0  0  0  0  0  0  0  0  0  0
   -6.4732  -11.5538    0.0000 H   0  0  0  0  0  0  0  0  0  0  0  0
    0.2234   -9.9944    0.0000 C   0  0  0  0  0  0  0  0  0  0  0  0
    1.5165  -10.7399    0.0000 C   0  0  0  0  0  0  0  0  0  0  0  0
    1.6692  -12.2321    0.0000 H   0  0  0  0  0  0  0  0  0  0  0  0
    2.6389   -9.7417    0.0000 N   0  0  0  0  0  0  0  0  0  0  0  0
    4.1060  -10.0539    0.0000 C   0  0  0  0  0  0  0  0  0  0  0  0
    4.1584   -8.5548    0.0000 H   0  0  0  0  0  0  0  0  0  0  0  0
    5.5922   -9.8447    0.0000 C   0  0  0  0  0  0  0  0  0  0  0  0
    5.1286   -8.4182    0.0000 H   0  0  0  0  0  0  0  0  0  0  0  0
    6.9166   -9.1406    0.0000 H   0  0  0  0  0  0  0  0  0  0  0  0
    6.5155  -11.0269    0.0000 C   0  0  0  0  0  0  0  0  0  0  0  0
    7.5195   -9.9124    0.0000 H   0  0  0  0  0  0  0  0  0  0  0  0
    7.7873  -11.8222    0.0000 H   0  0  0  0  0  0  0  0  0  0  0  0
    5.9527  -12.4182    0.0000 N   0  0  0  0  0  0  0  0  0  0  0  0
    6.8760  -13.6003    0.0000 H   0  0  0  0  0  0  0  0  0  0  0  0
    4.4665  -12.6273    0.0000 C   0  0  0  0  0  0  0  0  0  0  0  0
    4.9301  -14.0539    0.0000 H   0  0  0  0  0  0  0  0  0  0  0  0
    3.1421  -13.3315    0.0000 H   0  0  0  0  0  0  0  0  0  0  0  0
    3.5432  -11.4452    0.0000 C   0  0  0  0  0  0  0  0  0  0  0  0
    2.5392  -12.5597    0.0000 H   0  0  0  0  0  0  0  0  0  0  0  0
    2.2714  -10.6499    0.0000 H   0  0  0  0  0  0  0  0  0  0  0  0
    2.0202   -8.3729    0.0000 N   0  0  0  0  0  0  0  0  0  0  0  0
    0.5356   -8.5273    0.0000 C   0  0  0  0  0  0  0  0  0  0  0  0
   -0.4674   -7.4119    0.0000 H   0  0  0  0  0  0  0  0  0  0  0  0
   -6.1049  -10.6563    0.0000 Cl  0  0  0  0  0  0  0  0  0  0  0  0
  1  2  1  0  0  0  0 
  1  3  2  0  0  0  0 
  3  4  1  0  0  0  0 
  4  5  2  0  0  0  0 
  5  6  1  0  0  0  0 
  6  7  2  0  0  0  0 
  1  7  1  0  0  0  0 
  7  8  1  0  0  0  0 
  6  9  1  0  0  0  0 
  5 10  1  0  0  0  0 
 11  4  1  1  0  0  0 
 11 12  1  6  0  0  0 
 11 13  1  0  0  0  0 
 13 14  1  0  0  0  0 
 13 15  1  0  0  0  0 
 13 16  1  0  0  0  0 
 16 17  1  0  0  0  0 
 11 18  1  0  0  0  0 
 18 19  1  0  0  0  0 
 19 20  2  0  0  0  0 
 20 21  1  0  0  0  0 
 20 22  1  0  0  0  0 
 22 23  2  0  0  0  0 
 23 24  1  0  0  0  0 
 23 25  1  0  0  0  0 
 25 26  2  0  0  0  0 
 19 26  1  0  0  0  0 
 26 27  1  0  0  0  0 
 27 28  1  0  0  0  0 
 27 29  1  0  0  0  0 
 22 30  1  0  0  0  0 
 30 31  2  0  0  0  0 
 31 32  1  0  0  0  0 
 31 33  1  0  0  0  0 
 33 34  1  0  0  0  0 
 34 35  1  0  0  0  0 
 34 36  1  0  0  0  0 
 36 37  1  0  0  0  0 
 36 38  1  0  0  0  0 
 36 39  1  0  0  0  0 
 39 40  1  0  0  0  0 
 39 41  1  0  0  0  0 
 39 42  1  0  0  0  0 
 42 43  1  0  0  0  0 
 42 44  1  0  0  0  0 
 44 45  1  0  0  0  0 
 44 46  1  0  0  0  0 
 44 47  1  0  0  0  0 
 34 47  1  0  0  0  0 
 47 48  1  0  0  0  0 
 47 49  1  0  0  0  0 
 33 50  1  0  0  0  0 
 50 51  2  0  0  0  0 
 30 51  1  0  0  0  0 
 51 52  1  0  0  0  0 
  3 53  1  0  0  0  0 
M  END
> <Rank>
17

> <Priority_score>
0.168

> <Reaction_type>
aliphatic hydroxylation

> <Parent_ID>
51

> <Parent_InChI>
InChI=1S/C21H22Cl2FN5O/c1-12(19-16(22)2-3-17(24)20(19)23)30-18-8-13(9-27-21(18)25)14-10-28-29(11-14)15-4-6-26-7-5-15/h2-3,8-12,15,26H,4-7H2,1H3,(H2,25,27)

> <Parent_SMILES>
C[C@@H](Oc1cc(-c2cnn(C3CCNCC3)c2)cnc1N)c1c(Cl)ccc(F)c1Cl

$$$$
Molecule 51_metabolite 18
  CDK     0516241031

 37 39  0  0  0  0  0  0  0  0999 V2000
    0.4249   -8.2217    0.0000 C   0  0  0  0  0  0  0  0  0  0  0  0
    1.6383   -9.1035    0.0000 H   0  0  0  0  0  0  0  0  0  0  0  0
   -0.2328   -9.5698    0.0000 H   0  0  0  0  0  0  0  0  0  0  0  0
   -1.0169   -7.8081    0.0000 H   0  0  0  0  0  0  0  0  0  0  0  0
    0.5819   -6.7299    0.0000 C   0  0  2  0  0  0  0  0  0  0  0  0
    1.2396   -5.3818    0.0000 H   0  0  0  0  0  0  0  0  0  0  0  0
    2.9465   -7.4083    0.0000 C   0  0  0  0  0  0  0  0  0  0  0  0
    3.3096   -8.8645    0.0000 C   0  0  0  0  0  0  0  0  0  0  0  0
    4.7521   -9.2791    0.0000 C   0  0  0  0  0  0  0  0  0  0  0  0
    5.8314   -8.2374    0.0000 C   0  0  0  0  0  0  0  0  0  0  0  0
    7.2732   -8.6510    0.0000 H   0  0  0  0  0  0  0  0  0  0  0  0
    5.4682   -6.7812    0.0000 C   0  0  0  0  0  0  0  0  0  0  0  0
    6.5475   -5.7395    0.0000 H   0  0  0  0  0  0  0  0  0  0  0  0
    4.0258   -6.3666    0.0000 C   0  0  0  0  0  0  0  0  0  0  0  0
    3.6636   -4.9110    0.0000 Cl  0  0  0  0  0  0  0  0  0  0  0  0
    5.1143  -10.7347    0.0000 F   0  0  0  0  0  0  0  0  0  0  0  0
    2.2303   -9.9062    0.0000 Cl  0  0  0  0  0  0  0  0  0  0  0  0
   -0.6315   -5.8481    0.0000 O   0  0  0  0  0  0  0  0  0  0  0  0
   -2.0019   -6.4580    0.0000 C   0  0  0  0  0  0  0  0  0  0  0  0
   -2.1592   -7.9506    0.0000 C   0  0  0  0  0  0  0  0  0  0  0  0
   -0.9457   -8.8322    0.0000 H   0  0  0  0  0  0  0  0  0  0  0  0
   -3.5301   -8.5616    0.0000 C   0  0  0  0  0  0  0  0  0  0  0  0
   -4.7437   -7.6799    0.0000 C   0  0  0  0  0  0  0  0  0  0  0  0
   -6.1141   -8.2899    0.0000 H   0  0  0  0  0  0  0  0  0  0  0  0
   -4.5864   -6.1874    0.0000 N   0  0  0  0  0  0  0  0  0  0  0  0
   -3.2155   -5.5764    0.0000 C   0  0  0  0  0  0  0  0  0  0  0  0
   -3.0590   -4.0846    0.0000 N   0  0  0  0  0  0  0  0  0  0  0  0
   -4.2727   -3.2032    0.0000 H   0  0  0  0  0  0  0  0  0  0  0  0
   -1.6888   -3.4742    0.0000 H   0  0  0  0  0  0  0  0  0  0  0  0
   -3.6866  -10.0534    0.0000 C   0  0  0  0  0  0  0  0  0  0  0  0
   -4.9788  -10.8005    0.0000 C   0  0  0  0  0  0  0  0  0  0  0  0
   -6.3474  -10.1867    0.0000 H   0  0  0  0  0  0  0  0  0  0  0  0
   -4.6755  -12.2716    0.0000 N   0  0  0  0  0  0  0  0  0  0  0  0
   -5.6794  -13.3861    0.0000 H   0  0  0  0  0  0  0  0  0  0  0  0
   -3.1808  -12.4203    0.0000 N   0  0  0  0  0  0  0  0  0  0  0  0
   -2.5721  -11.0573    0.0000 C   0  0  0  0  0  0  0  0  0  0  0  0
   -1.1047  -10.7465    0.0000 H   0  0  0  0  0  0  0  0  0  0  0  0
  1  2  1  0  0  0  0 
  1  3  1  0  0  0  0 
  1  4  1  0  0  0  0 
  1  5  1  0  0  0  0 
  5  6  1  6  0  0  0 
  5  7  1  0  0  0  0 
  7  8  2  0  0  0  0 
  8  9  1  0  0  0  0 
  9 10  2  0  0  0  0 
 10 11  1  0  0  0  0 
 10 12  1  0  0  0  0 
 12 13  1  0  0  0  0 
 12 14  2  0  0  0  0 
  7 14  1  0  0  0  0 
 14 15  1  0  0  0  0 
  9 16  1  0  0  0  0 
  8 17  1  0  0  0  0 
  5 18  1  1  0  0  0 
 18 19  1  0  0  0  0 
 19 20  2  0  0  0  0 
 20 21  1  0  0  0  0 
 20 22  1  0  0  0  0 
 22 23  2  0  0  0  0 
 23 24  1  0  0  0  0 
 23 25  1  0  0  0  0 
 25 26  2  0  0  0  0 
 19 26  1  0  0  0  0 
 26 27  1  0  0  0  0 
 27 28  1  0  0  0  0 
 27 29  1  0  0  0  0 
 22 30  1  0  0  0  0 
 30 31  2  0  0  0  0 
 31 32  1  0  0  0  0 
 31 33  1  0  0  0  0 
 33 34  1  0  0  0  0 
 33 35  1  0  0  0  0 
 35 36  2  0  0  0  0 
 30 36  1  0  0  0  0 
 36 37  1  0  0  0  0 
M  END
> <Rank>
18

> <Priority_score>
0.11984080859128238

> <Reaction_type>
N-dealkylation

> <Parent_ID>
51

> <Parent_InChI>
InChI=1S/C21H22Cl2FN5O/c1-12(19-16(22)2-3-17(24)20(19)23)30-18-8-13(9-27-21(18)25)14-10-28-29(11-14)15-4-6-26-7-5-15/h2-3,8-12,15,26H,4-7H2,1H3,(H2,25,27)

> <Parent_SMILES>
C[C@@H](Oc1cc(-c2cnn(C3CCNCC3)c2)cnc1N)c1c(Cl)ccc(F)c1Cl

$$$$
Molecule 51_metabolite 19
  CDK     0516241031

 53 56  0  0  0  0  0  0  0  0999 V2000
    1.9836   -8.2538    0.0000 C   0  0  0  0  0  0  0  0  0  0  0  0
    3.1970   -9.1357    0.0000 H   0  0  0  0  0  0  0  0  0  0  0  0
    1.3259   -9.6020    0.0000 H   0  0  0  0  0  0  0  0  0  0  0  0
    0.5417   -7.8402    0.0000 H   0  0  0  0  0  0  0  0  0  0  0  0
    2.1406   -6.7621    0.0000 C   0  0  2  0  0  0  0  0  0  0  0  0
    2.7983   -5.4140    0.0000 H   0  0  0  0  0  0  0  0  0  0  0  0
    4.5052   -7.4404    0.0000 C   0  0  0  0  0  0  0  0  0  0  0  0
    4.8683   -8.8967    0.0000 C   0  0  0  0  0  0  0  0  0  0  0  0
    6.3108   -9.3112    0.0000 C   0  0  0  0  0  0  0  0  0  0  0  0
    7.3901   -8.2695    0.0000 C   0  0  0  0  0  0  0  0  0  0  0  0
    8.8319   -8.6832    0.0000 H   0  0  0  0  0  0  0  0  0  0  0  0
    7.0269   -6.8133    0.0000 C   0  0  0  0  0  0  0  0  0  0  0  0
    8.1062   -5.7716    0.0000 H   0  0  0  0  0  0  0  0  0  0  0  0
    5.5845   -6.3988    0.0000 C   0  0  0  0  0  0  0  0  0  0  0  0
    5.2222   -4.9431    0.0000 Cl  0  0  0  0  0  0  0  0  0  0  0  0
    6.6730  -10.7668    0.0000 F   0  0  0  0  0  0  0  0  0  0  0  0
    3.7890   -9.9384    0.0000 Cl  0  0  0  0  0  0  0  0  0  0  0  0
    0.9271   -5.8803    0.0000 O   0  0  0  0  0  0  0  0  0  0  0  0
   -0.4433   -6.4902    0.0000 C   0  0  0  0  0  0  0  0  0  0  0  0
   -0.6006   -7.9828    0.0000 C   0  0  0  0  0  0  0  0  0  0  0  0
    0.6130   -8.8644    0.0000 H   0  0  0  0  0  0  0  0  0  0  0  0
   -1.9714   -8.5937    0.0000 C   0  0  0  0  0  0  0  0  0  0  0  0
   -3.1850   -7.7121    0.0000 C   0  0  0  0  0  0  0  0  0  0  0  0
   -4.5554   -8.3220    0.0000 H   0  0  0  0  0  0  0  0  0  0  0  0
   -3.0277   -6.2195    0.0000 N   0  0  0  0  0  0  0  0  0  0  0  0
   -1.6568   -5.6086    0.0000 C   0  0  0  0  0  0  0  0  0  0  0  0
   -1.5003   -4.1168    0.0000 N   0  0  0  0  0  0  0  0  0  0  0  0
   -2.7140   -3.2353    0.0000 H   0  0  0  0  0  0  0  0  0  0  0  0
   -0.1301   -3.5064    0.0000 H   0  0  0  0  0  0  0  0  0  0  0  0
   -2.1279  -10.0855    0.0000 C   0  0  0  0  0  0  0  0  0  0  0  0
   -3.4201  -10.8327    0.0000 C   0  0  0  0  0  0  0  0  0  0  0  0
   -4.7888  -10.2188    0.0000 H   0  0  0  0  0  0  0  0  0  0  0  0
   -3.1168  -12.3038    0.0000 N   0  0  0  0  0  0  0  0  0  0  0  0
   -3.1134  -14.2838    0.0000 C   0  0  0  0  0  0  0  0  0  0  0  0
   -1.6367  -14.0205    0.0000 H   0  0  0  0  0  0  0  0  0  0  0  0
   -2.5971  -15.6930    0.0000 C   0  0  0  0  0  0  0  0  0  0  0  0
   -1.2996  -14.9404    0.0000 H   0  0  0  0  0  0  0  0  0  0  0  0
   -1.6307  -16.8402    0.0000 H   0  0  0  0  0  0  0  0  0  0  0  0
   -3.5592  -16.8438    0.0000 C   0  0  0  0  0  0  0  0  0  0  0  0
   -2.2588  -17.5916    0.0000 H   0  0  0  0  0  0  0  0  0  0  0  0
   -4.0699  -18.2542    0.0000 H   0  0  0  0  0  0  0  0  0  0  0  0
   -5.0376  -16.5854    0.0000 N   0  0  0  0  0  0  0  0  0  0  0  0
   -5.9997  -17.7362    0.0000 H   0  0  0  0  0  0  0  0  0  0  0  0
   -5.5539  -15.1762    0.0000 C   0  0  0  0  0  0  0  0  0  0  0  0
   -6.8514  -15.9288    0.0000 H   0  0  0  0  0  0  0  0  0  0  0  0
   -6.5203  -14.0290    0.0000 H   0  0  0  0  0  0  0  0  0  0  0  0
   -4.5918  -14.0254    0.0000 C   0  0  0  0  0  0  0  0  0  0  0  0
   -5.8921  -13.2776    0.0000 H   0  0  0  0  0  0  0  0  0  0  0  0
   -4.0810  -12.6150    0.0000 H   0  0  0  0  0  0  0  0  0  0  0  0
   -1.6221  -12.4524    0.0000 N   0  0  0  0  0  0  0  0  0  0  0  0
   -1.0134  -11.0895    0.0000 C   0  0  0  0  0  0  0  0  0  0  0  0
    0.4540  -10.7786    0.0000 H   0  0  0  0  0  0  0  0  0  0  0  0
   -5.0864  -12.5064    0.0000 O   0  0  0  0  0  0  0  0  0  0  0  0
  1  2  1  0  0  0  0 
  1  3  1  0  0  0  0 
  1  4  1  0  0  0  0 
  1  5  1  0  0  0  0 
  5  6  1  6  0  0  0 
  5  7  1  0  0  0  0 
  7  8  2  0  0  0  0 
  8  9  1  0  0  0  0 
  9 10  2  0  0  0  0 
 10 11  1  0  0  0  0 
 10 12  1  0  0  0  0 
 12 13  1  0  0  0  0 
 12 14  2  0  0  0  0 
  7 14  1  0  0  0  0 
 14 15  1  0  0  0  0 
  9 16  1  0  0  0  0 
  8 17  1  0  0  0  0 
  5 18  1  1  0  0  0 
 18 19  1  0  0  0  0 
 19 20  2  0  0  0  0 
 20 21  1  0  0  0  0 
 20 22  1  0  0  0  0 
 22 23  2  0  0  0  0 
 23 24  1  0  0  0  0 
 23 25  1  0  0  0  0 
 25 26  2  0  0  0  0 
 19 26  1  0  0  0  0 
 26 27  1  0  0  0  0 
 27 28  1  0  0  0  0 
 27 29  1  0  0  0  0 
 22 30  1  0  0  0  0 
 30 31  2  0  0  0  0 
 31 32  1  0  0  0  0 
 31 33  1  0  0  0  0 
 33 34  1  0  0  0  0 
 34 35  1  0  0  0  0 
 34 36  1  0  0  0  0 
 36 37  1  0  0  0  0 
 36 38  1  0  0  0  0 
 36 39  1  0  0  0  0 
 39 40  1  0  0  0  0 
 39 41  1  0  0  0  0 
 39 42  1  0  0  0  0 
 42 43  1  0  0  0  0 
 42 44  1  0  0  0  0 
 44 45  1  0  0  0  0 
 44 46  1  0  0  0  0 
 44 47  1  0  0  0  0 
 34 47  1  0  0  0  0 
 47 48  1  0  0  0  0 
 47 49  1  0  0  0  0 
 33 50  1  0  0  0  0 
 50 51  2  0  0  0  0 
 30 51  1  0  0  0  0 
 51 52  1  0  0  0  0 
 33 53  1  0  0  0  0 
M  CHG  1  33   1
M  CHG  1  53  -1
M  END
> <Rank>
18

> <Priority_score>
0.11984080859128238

> <Reaction_type>
N-oxidation

> <Parent_ID>
51

> <Parent_InChI>
InChI=1S/C21H22Cl2FN5O/c1-12(19-16(22)2-3-17(24)20(19)23)30-18-8-13(9-27-21(18)25)14-10-28-29(11-14)15-4-6-26-7-5-15/h2-3,8-12,15,26H,4-7H2,1H3,(H2,25,27)

> <Parent_SMILES>
C[C@@H](Oc1cc(-c2cnn(C3CCNCC3)c2)cnc1N)c1c(Cl)ccc(F)c1Cl

$$$$
Molecule 51_metabolite 20
  CDK     0516241031

 53 56  0  0  0  0  0  0  0  0999 V2000
    1.3367   -8.5000    0.0000 C   0  0  0  0  0  0  0  0  0  0  0  0
    2.5502   -9.3818    0.0000 H   0  0  0  0  0  0  0  0  0  0  0  0
    0.6790   -9.8481    0.0000 H   0  0  0  0  0  0  0  0  0  0  0  0
   -0.1051   -8.0864    0.0000 H   0  0  0  0  0  0  0  0  0  0  0  0
    1.4937   -7.0082    0.0000 C   0  0  2  0  0  0  0  0  0  0  0  0
    2.1514   -5.6601    0.0000 H   0  0  0  0  0  0  0  0  0  0  0  0
    3.8583   -7.6866    0.0000 C   0  0  0  0  0  0  0  0  0  0  0  0
    4.2215   -9.1428    0.0000 C   0  0  0  0  0  0  0  0  0  0  0  0
    5.6639   -9.5574    0.0000 C   0  0  0  0  0  0  0  0  0  0  0  0
    6.7432   -8.5157    0.0000 C   0  0  0  0  0  0  0  0  0  0  0  0
    8.1851   -8.9293    0.0000 H   0  0  0  0  0  0  0  0  0  0  0  0
    6.3801   -7.0595    0.0000 C   0  0  0  0  0  0  0  0  0  0  0  0
    7.4594   -6.0178    0.0000 H   0  0  0  0  0  0  0  0  0  0  0  0
    4.9376   -6.6449    0.0000 C   0  0  0  0  0  0  0  0  0  0  0  0
    4.5754   -5.1893    0.0000 Cl  0  0  0  0  0  0  0  0  0  0  0  0
    6.0262  -11.0130    0.0000 F   0  0  0  0  0  0  0  0  0  0  0  0
    3.1422  -10.1845    0.0000 Cl  0  0  0  0  0  0  0  0  0  0  0  0
    0.2803   -6.1264    0.0000 O   0  0  0  0  0  0  0  0  0  0  0  0
   -1.0901   -6.7363    0.0000 C   0  0  0  0  0  0  0  0  0  0  0  0
   -1.2474   -8.2289    0.0000 C   0  0  0  0  0  0  0  0  0  0  0  0
   -0.0338   -9.1105    0.0000 H   0  0  0  0  0  0  0  0  0  0  0  0
   -2.6183   -8.8398    0.0000 C   0  0  0  0  0  0  0  0  0  0  0  0
   -3.8318   -7.9582    0.0000 C   0  0  0  0  0  0  0  0  0  0  0  0
   -5.2022   -8.5682    0.0000 H   0  0  0  0  0  0  0  0  0  0  0  0
   -3.6745   -6.4656    0.0000 N   0  0  0  0  0  0  0  0  0  0  0  0
   -2.3037   -5.8547    0.0000 C   0  0  0  0  0  0  0  0  0  0  0  0
   -2.1472   -4.3629    0.0000 N   0  0  0  0  0  0  0  0  0  0  0  0
   -3.3609   -3.4815    0.0000 H   0  0  0  0  0  0  0  0  0  0  0  0
   -0.7770   -3.7525    0.0000 H   0  0  0  0  0  0  0  0  0  0  0  0
   -2.7748  -10.3317    0.0000 C   0  0  0  0  0  0  0  0  0  0  0  0
   -4.0670  -11.0788    0.0000 C   0  0  0  0  0  0  0  0  0  0  0  0
   -5.4356  -10.4650    0.0000 H   0  0  0  0  0  0  0  0  0  0  0  0
   -3.7636  -12.5499    0.0000 N   0  0  0  0  0  0  0  0  0  0  0  0
   -4.7676  -13.6644    0.0000 C   0  0  0  0  0  0  0  0  0  0  0  0
   -5.3296  -15.0561    0.0000 C   0  0  0  0  0  0  0  0  0  0  0  0
   -3.8623  -15.3678    0.0000 H   0  0  0  0  0  0  0  0  0  0  0  0
   -5.3820  -16.5551    0.0000 H   0  0  0  0  0  0  0  0  0  0  0  0
   -6.8150  -15.2646    0.0000 C   0  0  0  0  0  0  0  0  0  0  0  0
   -6.3518  -16.6913    0.0000 H   0  0  0  0  0  0  0  0  0  0  0  0
   -8.1397  -15.9684    0.0000 H   0  0  0  0  0  0  0  0  0  0  0  0
   -7.7385  -14.0815    0.0000 N   0  0  0  0  0  0  0  0  0  0  0  0
   -9.2239  -14.2901    0.0000 H   0  0  0  0  0  0  0  0  0  0  0  0
   -7.1765  -12.6899    0.0000 C   0  0  0  0  0  0  0  0  0  0  0  0
   -8.6437  -12.3781    0.0000 H   0  0  0  0  0  0  0  0  0  0  0  0
   -7.1241  -11.1908    0.0000 H   0  0  0  0  0  0  0  0  0  0  0  0
   -5.6911  -12.4813    0.0000 C   0  0  0  0  0  0  0  0  0  0  0  0
   -6.1542  -11.0546    0.0000 H   0  0  0  0  0  0  0  0  0  0  0  0
   -4.3664  -11.7776    0.0000 H   0  0  0  0  0  0  0  0  0  0  0  0
   -3.4955  -14.4593    0.0000 O   0  0  0  0  0  0  0  0  0  0  0  0
   -2.1711  -13.7552    0.0000 H   0  0  0  0  0  0  0  0  0  0  0  0
   -2.2689  -12.6985    0.0000 N   0  0  0  0  0  0  0  0  0  0  0  0
   -1.6603  -11.3356    0.0000 C   0  0  0  0  0  0  0  0  0  0  0  0
   -0.1928  -11.0248    0.0000 H   0  0  0  0  0  0  0  0  0  0  0  0
  1  2  1  0  0  0  0 
  1  3  1  0  0  0  0 
  1  4  1  0  0  0  0 
  1  5  1  0  0  0  0 
  5  6  1  6  0  0  0 
  5  7  1  0  0  0  0 
  7  8  2  0  0  0  0 
  8  9  1  0  0  0  0 
  9 10  2  0  0  0  0 
 10 11  1  0  0  0  0 
 10 12  1  0  0  0  0 
 12 13  1  0  0  0  0 
 12 14  2  0  0  0  0 
  7 14  1  0  0  0  0 
 14 15  1  0  0  0  0 
  9 16  1  0  0  0  0 
  8 17  1  0  0  0  0 
  5 18  1  1  0  0  0 
 18 19  1  0  0  0  0 
 19 20  2  0  0  0  0 
 20 21  1  0  0  0  0 
 20 22  1  0  0  0  0 
 22 23  2  0  0  0  0 
 23 24  1  0  0  0  0 
 23 25  1  0  0  0  0 
 25 26  2  0  0  0  0 
 19 26  1  0  0  0  0 
 26 27  1  0  0  0  0 
 27 28  1  0  0  0  0 
 27 29  1  0  0  0  0 
 22 30  1  0  0  0  0 
 30 31  2  0  0  0  0 
 31 32  1  0  0  0  0 
 31 33  1  0  0  0  0 
 33 34  1  0  0  0  0 
 34 35  1  0  0  0  0 
 35 36  1  0  0  0  0 
 35 37  1  0  0  0  0 
 35 38  1  0  0  0  0 
 38 39  1  0  0  0  0 
 38 40  1  0  0  0  0 
 38 41  1  0  0  0  0 
 41 42  1  0  0  0  0 
 41 43  1  0  0  0  0 
 43 44  1  0  0  0  0 
 43 45  1  0  0  0  0 
 43 46  1  0  0  0  0 
 34 46  1  0  0  0  0 
 46 47  1  0  0  0  0 
 46 48  1  0  0  0  0 
 34 49  1  0  0  0  0 
 49 50  1  0  0  0  0 
 33 51  1  0  0  0  0 
 51 52  2  0  0  0  0 
 30 52  1  0  0  0  0 
 52 53  1  0  0  0  0 
M  END
> <Rank>
18

> <Priority_score>
0.11984080859128238

> <Reaction_type>
aliphatic hydroxylation

> <Parent_ID>
51

> <Parent_InChI>
InChI=1S/C21H22Cl2FN5O/c1-12(19-16(22)2-3-17(24)20(19)23)30-18-8-13(9-27-21(18)25)14-10-28-29(11-14)15-4-6-26-7-5-15/h2-3,8-12,15,26H,4-7H2,1H3,(H2,25,27)

> <Parent_SMILES>
C[C@@H](Oc1cc(-c2cnn(C3CCNCC3)c2)cnc1N)c1c(Cl)ccc(F)c1Cl

$$$$
Molecule 51_metabolite 21
  CDK     0516241031

 16 16  0  0  0  0  0  0  0  0999 V2000
   -0.7500   -1.3000    0.0000 C   0  0  0  0  0  0  0  0  0  0  0  0
   -2.1596   -1.8127    0.0000 H   0  0  0  0  0  0  0  0  0  0  0  0
   -0.4897   -2.7772    0.0000 H   0  0  0  0  0  0  0  0  0  0  0  0
    0.7500   -1.3000    0.0000 C   0  0  0  0  0  0  0  0  0  0  0  0
    0.4897   -2.7772    0.0000 H   0  0  0  0  0  0  0  0  0  0  0  0
    2.1596   -1.8127    0.0000 H   0  0  0  0  0  0  0  0  0  0  0  0
    1.5000   -0.0000    0.0000 N   0  0  0  0  0  0  0  0  0  0  0  0
    3.0000   -0.0000    0.0000 H   0  0  0  0  0  0  0  0  0  0  0  0
    0.7500    1.3000    0.0000 C   0  0  0  0  0  0  0  0  0  0  0  0
    2.1596    1.8127    0.0000 H   0  0  0  0  0  0  0  0  0  0  0  0
    0.4897    2.7772    0.0000 H   0  0  0  0  0  0  0  0  0  0  0  0
   -0.7500    1.3000    0.0000 C   0  0  0  0  0  0  0  0  0  0  0  0
   -0.4897    2.7772    0.0000 H   0  0  0  0  0  0  0  0  0  0  0  0
   -2.1596    1.8127    0.0000 H   0  0  0  0  0  0  0  0  0  0  0  0
   -1.5000    0.0000    0.0000 C   0  0  0  0  0  0  0  0  0  0  0  0
   -3.0000    0.0000    0.0000 O   0  0  0  0  0  0  0  0  0  0  0  0
  1  2  1  0  0  0  0 
  1  3  1  0  0  0  0 
  1  4  1  0  0  0  0 
  4  5  1  0  0  0  0 
  4  6  1  0  0  0  0 
  4  7  1  0  0  0  0 
  7  8  1  0  0  0  0 
  7  9  1  0  0  0  0 
  9 10  1  0  0  0  0 
  9 11  1  0  0  0  0 
  9 12  1  0  0  0  0 
 12 13  1  0  0  0  0 
 12 14  1  0  0  0  0 
 12 15  1  0  0  0  0 
  1 15  1  0  0  0  0 
 15 16  2  0  0  0  0 
M  END
> <Rank>
18

> <Priority_score>
0.11984080859128238

> <Reaction_type>
N-dealkylation

> <Parent_ID>
51

> <Parent_InChI>
InChI=1S/C21H22Cl2FN5O/c1-12(19-16(22)2-3-17(24)20(19)23)30-18-8-13(9-27-21(18)25)14-10-28-29(11-14)15-4-6-26-7-5-15/h2-3,8-12,15,26H,4-7H2,1H3,(H2,25,27)

> <Parent_SMILES>
C[C@@H](Oc1cc(-c2cnn(C3CCNCC3)c2)cnc1N)c1c(Cl)ccc(F)c1Cl

$$$$
Molecule 51_metabolite 22
  CDK     0516241031

 50 53  0  0  0  0  0  0  0  0999 V2000
    5.5304   -5.1387    0.0000 C   0  0  0  0  0  0  0  0  0  0  0  0
    6.7439   -6.0205    0.0000 H   0  0  0  0  0  0  0  0  0  0  0  0
    4.1600   -5.7487    0.0000 H   0  0  0  0  0  0  0  0  0  0  0  0
    5.6874   -3.6470    0.0000 C   0  0  0  0  0  0  0  0  0  0  0  0
    7.0578   -3.0370    0.0000 C   0  0  0  0  0  0  0  0  0  0  0  0
    8.2720   -3.9191    0.0000 C   0  0  0  0  0  0  0  0  0  0  0  0
    9.6435   -3.3095    0.0000 C   0  0  0  0  0  0  0  0  0  0  0  0
    9.8007   -1.8178    0.0000 C   0  0  0  0  0  0  0  0  0  0  0  0
   11.1711   -1.2078    0.0000 H   0  0  0  0  0  0  0  0  0  0  0  0
    8.5865   -0.9357    0.0000 C   0  0  0  0  0  0  0  0  0  0  0  0
    8.7437    0.5561    0.0000 H   0  0  0  0  0  0  0  0  0  0  0  0
    7.2150   -1.5453    0.0000 C   0  0  0  0  0  0  0  0  0  0  0  0
    6.0019   -0.6631    0.0000 Cl  0  0  0  0  0  0  0  0  0  0  0  0
   10.8566   -4.1917    0.0000 F   0  0  0  0  0  0  0  0  0  0  0  0
    8.1148   -5.4109    0.0000 Cl  0  0  0  0  0  0  0  0  0  0  0  0
    4.4740   -2.7651    0.0000 O   0  0  0  0  0  0  0  0  0  0  0  0
    2.2265   -3.7654    0.0000 C   0  0  0  0  0  0  0  0  0  0  0  0
    2.0692   -5.2580    0.0000 C   0  0  0  0  0  0  0  0  0  0  0  0
    3.2828   -6.1396    0.0000 H   0  0  0  0  0  0  0  0  0  0  0  0
    0.6984   -5.8689    0.0000 C   0  0  0  0  0  0  0  0  0  0  0  0
   -0.5152   -4.9873    0.0000 C   0  0  0  0  0  0  0  0  0  0  0  0
   -1.8856   -5.5972    0.0000 H   0  0  0  0  0  0  0  0  0  0  0  0
   -0.3579   -3.4947    0.0000 N   0  0  0  0  0  0  0  0  0  0  0  0
    1.0130   -2.8838    0.0000 C   0  0  0  0  0  0  0  0  0  0  0  0
    1.1695   -1.3920    0.0000 N   0  0  0  0  0  0  0  0  0  0  0  0
   -0.0442   -0.5105    0.0000 H   0  0  0  0  0  0  0  0  0  0  0  0
    2.5397   -0.7816    0.0000 H   0  0  0  0  0  0  0  0  0  0  0  0
    0.5419   -7.3607    0.0000 C   0  0  0  0  0  0  0  0  0  0  0  0
   -0.7503   -8.1079    0.0000 C   0  0  0  0  0  0  0  0  0  0  0  0
   -2.1189   -7.4941    0.0000 H   0  0  0  0  0  0  0  0  0  0  0  0
   -0.4470   -9.5790    0.0000 N   0  0  0  0  0  0  0  0  0  0  0  0
   -1.4509  -10.6935    0.0000 C   0  0  0  0  0  0  0  0  0  0  0  0
   -0.1789  -11.4884    0.0000 H   0  0  0  0  0  0  0  0  0  0  0  0
   -2.0129  -12.0851    0.0000 C   0  0  0  0  0  0  0  0  0  0  0  0
   -0.5457  -12.3969    0.0000 H   0  0  0  0  0  0  0  0  0  0  0  0
   -2.0653  -13.5842    0.0000 H   0  0  0  0  0  0  0  0  0  0  0  0
   -3.4983  -12.2937    0.0000 C   0  0  0  0  0  0  0  0  0  0  0  0
   -3.0352  -13.7204    0.0000 H   0  0  0  0  0  0  0  0  0  0  0  0
   -4.8230  -12.9974    0.0000 H   0  0  0  0  0  0  0  0  0  0  0  0
   -4.4218  -11.1106    0.0000 N   0  0  0  0  0  0  0  0  0  0  0  0
   -5.9072  -11.3192    0.0000 H   0  0  0  0  0  0  0  0  0  0  0  0
   -3.8598   -9.7190    0.0000 C   0  0  0  0  0  0  0  0  0  0  0  0
   -5.3271   -9.4072    0.0000 H   0  0  0  0  0  0  0  0  0  0  0  0
   -3.8074   -8.2199    0.0000 H   0  0  0  0  0  0  0  0  0  0  0  0
   -2.3744   -9.5104    0.0000 C   0  0  0  0  0  0  0  0  0  0  0  0
   -2.8376   -8.0837    0.0000 H   0  0  0  0  0  0  0  0  0  0  0  0
   -1.0497   -8.8067    0.0000 H   0  0  0  0  0  0  0  0  0  0  0  0
    1.0477   -9.7276    0.0000 N   0  0  0  0  0  0  0  0  0  0  0  0
    1.6564   -8.3647    0.0000 C   0  0  0  0  0  0  0  0  0  0  0  0
    3.1238   -8.0538    0.0000 H   0  0  0  0  0  0  0  0  0  0  0  0
  1  2  1  0  0  0  0 
  1  3  1  0  0  0  0 
  1  4  2  0  0  0  0 
  4  5  1  0  0  0  0 
  5  6  2  0  0  0  0 
  6  7  1  0  0  0  0 
  7  8  2  0  0  0  0 
  8  9  1  0  0  0  0 
  8 10  1  0  0  0  0 
 10 11  1  0  0  0  0 
 10 12  2  0  0  0  0 
  5 12  1  0  0  0  0 
 12 13  1  0  0  0  0 
  7 14  1  0  0  0  0 
  6 15  1  0  0  0  0 
  4 16  1  0  0  0  0 
 16 17  1  0  0  0  0 
 17 18  2  0  0  0  0 
 18 19  1  0  0  0  0 
 18 20  1  0  0  0  0 
 20 21  2  0  0  0  0 
 21 22  1  0  0  0  0 
 21 23  1  0  0  0  0 
 23 24  2  0  0  0  0 
 17 24  1  0  0  0  0 
 24 25  1  0  0  0  0 
 25 26  1  0  0  0  0 
 25 27  1  0  0  0  0 
 20 28  1  0  0  0  0 
 28 29  2  0  0  0  0 
 29 30  1  0  0  0  0 
 29 31  1  0  0  0  0 
 31 32  1  0  0  0  0 
 32 33  1  0  0  0  0 
 32 34  1  0  0  0  0 
 34 35  1  0  0  0  0 
 34 36  1  0  0  0  0 
 34 37  1  0  0  0  0 
 37 38  1  0  0  0  0 
 37 39  1  0  0  0  0 
 37 40  1  0  0  0  0 
 40 41  1  0  0  0  0 
 40 42  1  0  0  0  0 
 42 43  1  0  0  0  0 
 42 44  1  0  0  0  0 
 42 45  1  0  0  0  0 
 32 45  1  0  0  0  0 
 45 46  1  0  0  0  0 
 45 47  1  0  0  0  0 
 31 48  1  0  0  0  0 
 48 49  2  0  0  0  0 
 28 49  1  0  0  0  0 
 49 50  1  0  0  0  0 
M  END
> <Rank>
22

> <Priority_score>
0.11040000000000001

> <Reaction_type>
alkyl dehydrogenation

> <Parent_ID>
51

> <Parent_InChI>
InChI=1S/C21H22Cl2FN5O/c1-12(19-16(22)2-3-17(24)20(19)23)30-18-8-13(9-27-21(18)25)14-10-28-29(11-14)15-4-6-26-7-5-15/h2-3,8-12,15,26H,4-7H2,1H3,(H2,25,27)

> <Parent_SMILES>
C[C@@H](Oc1cc(-c2cnn(C3CCNCC3)c2)cnc1N)c1c(Cl)ccc(F)c1Cl

$$$$
Molecule 51_metabolite 23
  CDK     0516241031

 50 53  0  0  0  0  0  0  0  0999 V2000
    1.3902   -8.5143    0.0000 C   0  0  0  0  0  0  0  0  0  0  0  0
    2.6036   -9.3961    0.0000 H   0  0  0  0  0  0  0  0  0  0  0  0
    0.7324   -9.8624    0.0000 H   0  0  0  0  0  0  0  0  0  0  0  0
   -0.0517   -8.1007    0.0000 H   0  0  0  0  0  0  0  0  0  0  0  0
    1.5471   -7.0225    0.0000 C   0  0  2  0  0  0  0  0  0  0  0  0
    2.2048   -5.6744    0.0000 H   0  0  0  0  0  0  0  0  0  0  0  0
    3.9117   -7.7009    0.0000 C   0  0  0  0  0  0  0  0  0  0  0  0
    4.2749   -9.1571    0.0000 C   0  0  0  0  0  0  0  0  0  0  0  0
    5.7173   -9.5717    0.0000 C   0  0  0  0  0  0  0  0  0  0  0  0
    6.7966   -8.5300    0.0000 C   0  0  0  0  0  0  0  0  0  0  0  0
    8.2385   -8.9436    0.0000 H   0  0  0  0  0  0  0  0  0  0  0  0
    6.4335   -7.0738    0.0000 C   0  0  0  0  0  0  0  0  0  0  0  0
    7.5128   -6.0321    0.0000 H   0  0  0  0  0  0  0  0  0  0  0  0
    4.9910   -6.6592    0.0000 C   0  0  0  0  0  0  0  0  0  0  0  0
    4.6288   -5.2036    0.0000 Cl  0  0  0  0  0  0  0  0  0  0  0  0
    6.0796  -11.0273    0.0000 F   0  0  0  0  0  0  0  0  0  0  0  0
    3.1956  -10.1988    0.0000 Cl  0  0  0  0  0  0  0  0  0  0  0  0
    0.3337   -6.1407    0.0000 O   0  0  0  0  0  0  0  0  0  0  0  0
   -1.0367   -6.7507    0.0000 C   0  0  0  0  0  0  0  0  0  0  0  0
   -1.1940   -8.2432    0.0000 C   0  0  0  0  0  0  0  0  0  0  0  0
    0.0196   -9.1249    0.0000 H   0  0  0  0  0  0  0  0  0  0  0  0
   -2.5648   -8.8542    0.0000 C   0  0  0  0  0  0  0  0  0  0  0  0
   -3.7784   -7.9725    0.0000 C   0  0  0  0  0  0  0  0  0  0  0  0
   -5.1488   -8.5825    0.0000 H   0  0  0  0  0  0  0  0  0  0  0  0
   -3.6211   -6.4800    0.0000 N   0  0  0  0  0  0  0  0  0  0  0  0
   -2.2502   -5.8690    0.0000 C   0  0  0  0  0  0  0  0  0  0  0  0
   -2.0938   -4.3772    0.0000 N   0  0  0  0  0  0  0  0  0  0  0  0
   -3.3075   -3.4958    0.0000 H   0  0  0  0  0  0  0  0  0  0  0  0
   -0.7236   -3.7668    0.0000 H   0  0  0  0  0  0  0  0  0  0  0  0
   -2.7213  -10.3460    0.0000 C   0  0  0  0  0  0  0  0  0  0  0  0
   -4.0135  -11.0931    0.0000 C   0  0  0  0  0  0  0  0  0  0  0  0
   -5.3822  -10.4793    0.0000 H   0  0  0  0  0  0  0  0  0  0  0  0
   -3.7102  -12.5642    0.0000 N   0  0  0  0  0  0  0  0  0  0  0  0
   -4.7142  -13.6787    0.0000 C   0  0  0  0  0  0  0  0  0  0  0  0
   -3.4421  -14.4736    0.0000 H   0  0  0  0  0  0  0  0  0  0  0  0
   -5.2761  -15.0704    0.0000 C   0  0  0  0  0  0  0  0  0  0  0  0
   -4.3526  -16.2524    0.0000 H   0  0  0  0  0  0  0  0  0  0  0  0
   -6.7616  -15.2789    0.0000 C   0  0  0  0  0  0  0  0  0  0  0  0
   -7.3239  -16.6695    0.0000 H   0  0  0  0  0  0  0  0  0  0  0  0
   -7.6850  -14.0958    0.0000 N   0  0  0  0  0  0  0  0  0  0  0  0
   -9.1705  -14.3044    0.0000 H   0  0  0  0  0  0  0  0  0  0  0  0
   -7.1231  -12.7042    0.0000 C   0  0  0  0  0  0  0  0  0  0  0  0
   -8.5903  -12.3924    0.0000 H   0  0  0  0  0  0  0  0  0  0  0  0
   -7.0707  -11.2051    0.0000 H   0  0  0  0  0  0  0  0  0  0  0  0
   -5.6376  -12.4956    0.0000 C   0  0  0  0  0  0  0  0  0  0  0  0
   -6.1008  -11.0689    0.0000 H   0  0  0  0  0  0  0  0  0  0  0  0
   -4.3130  -11.7919    0.0000 H   0  0  0  0  0  0  0  0  0  0  0  0
   -2.2155  -12.7129    0.0000 N   0  0  0  0  0  0  0  0  0  0  0  0
   -1.6069  -11.3499    0.0000 C   0  0  0  0  0  0  0  0  0  0  0  0
   -0.1394  -11.0391    0.0000 H   0  0  0  0  0  0  0  0  0  0  0  0
  1  2  1  0  0  0  0 
  1  3  1  0  0  0  0 
  1  4  1  0  0  0  0 
  1  5  1  0  0  0  0 
  5  6  1  6  0  0  0 
  5  7  1  0  0  0  0 
  7  8  2  0  0  0  0 
  8  9  1  0  0  0  0 
  9 10  2  0  0  0  0 
 10 11  1  0  0  0  0 
 10 12  1  0  0  0  0 
 12 13  1  0  0  0  0 
 12 14  2  0  0  0  0 
  7 14  1  0  0  0  0 
 14 15  1  0  0  0  0 
  9 16  1  0  0  0  0 
  8 17  1  0  0  0  0 
  5 18  1  1  0  0  0 
 18 19  1  0  0  0  0 
 19 20  2  0  0  0  0 
 20 21  1  0  0  0  0 
 20 22  1  0  0  0  0 
 22 23  2  0  0  0  0 
 23 24  1  0  0  0  0 
 23 25  1  0  0  0  0 
 25 26  2  0  0  0  0 
 19 26  1  0  0  0  0 
 26 27  1  0  0  0  0 
 27 28  1  0  0  0  0 
 27 29  1  0  0  0  0 
 22 30  1  0  0  0  0 
 30 31  2  0  0  0  0 
 31 32  1  0  0  0  0 
 31 33  1  0  0  0  0 
 33 34  1  0  0  0  0 
 34 35  1  0  0  0  0 
 34 36  1  0  0  0  0 
 36 37  1  0  0  0  0 
 36 38  2  0  0  0  0 
 38 39  1  0  0  0  0 
 38 40  1  0  0  0  0 
 40 41  1  0  0  0  0 
 40 42  1  0  0  0  0 
 42 43  1  0  0  0  0 
 42 44  1  0  0  0  0 
 42 45  1  0  0  0  0 
 34 45  1  0  0  0  0 
 45 46  1  0  0  0  0 
 45 47  1  0  0  0  0 
 33 48  1  0  0  0  0 
 48 49  2  0  0  0  0 
 30 49  1  0  0  0  0 
 49 50  1  0  0  0  0 
M  END
> <Rank>
23

> <Priority_score>
0.09360000000000002

> <Reaction_type>
alkyl dehydrogenation

> <Parent_ID>
51

> <Parent_InChI>
InChI=1S/C21H22Cl2FN5O/c1-12(19-16(22)2-3-17(24)20(19)23)30-18-8-13(9-27-21(18)25)14-10-28-29(11-14)15-4-6-26-7-5-15/h2-3,8-12,15,26H,4-7H2,1H3,(H2,25,27)

> <Parent_SMILES>
C[C@@H](Oc1cc(-c2cnn(C3CCNCC3)c2)cnc1N)c1c(Cl)ccc(F)c1Cl

$$$$
Molecule 51_metabolite 24
  CDK     0516241031

 51 54  0  0  0  0  0  0  0  0999 V2000
   -3.5083  -10.7836    0.0000 C   0  0  0  0  0  0  0  0  0  0  0  0
   -3.3513   -9.2919    0.0000 H   0  0  0  0  0  0  0  0  0  0  0  0
   -2.0120  -10.6792    0.0000 H   0  0  0  0  0  0  0  0  0  0  0  0
   -3.1456  -12.2391    0.0000 H   0  0  0  0  0  0  0  0  0  0  0  0
   -4.8787  -11.3936    0.0000 C   0  0  2  0  0  0  0  0  0  0  0  0
   -6.3751  -11.4980    0.0000 H   0  0  0  0  0  0  0  0  0  0  0  0
   -5.4735   -9.0066    0.0000 C   0  0  0  0  0  0  0  0  0  0  0  0
   -4.3940   -7.9640    0.0000 C   0  0  0  0  0  0  0  0  0  0  0  0
   -4.7562   -6.5075    0.0000 C   0  0  0  0  0  0  0  0  0  0  0  0
   -6.1980   -6.0936    0.0000 C   0  0  0  0  0  0  0  0  0  0  0  0
   -6.5607   -4.6382    0.0000 H   0  0  0  0  0  0  0  0  0  0  0  0
   -7.2775   -7.1363    0.0000 C   0  0  0  0  0  0  0  0  0  0  0  0
   -8.7193   -6.7224    0.0000 H   0  0  0  0  0  0  0  0  0  0  0  0
   -6.9153   -8.5927    0.0000 C   0  0  0  0  0  0  0  0  0  0  0  0
   -7.9948   -9.6342    0.0000 Cl  0  0  0  0  0  0  0  0  0  0  0  0
   -3.6767   -5.4660    0.0000 F   0  0  0  0  0  0  0  0  0  0  0  0
   -2.9522   -8.3778    0.0000 Cl  0  0  0  0  0  0  0  0  0  0  0  0
   -5.0357  -12.8854    0.0000 O   0  0  0  0  0  0  0  0  0  0  0  0
   -3.8223  -13.7672    0.0000 C   0  0  0  0  0  0  0  0  0  0  0  0
   -2.4510  -13.1571    0.0000 C   0  0  0  0  0  0  0  0  0  0  0  0
   -2.2943  -11.6653    0.0000 H   0  0  0  0  0  0  0  0  0  0  0  0
   -1.2365  -14.0388    0.0000 C   0  0  0  0  0  0  0  0  0  0  0  0
   -1.3932  -15.5306    0.0000 C   0  0  0  0  0  0  0  0  0  0  0  0
   -0.1798  -16.4125    0.0000 H   0  0  0  0  0  0  0  0  0  0  0  0
   -2.7645  -16.1407    0.0000 N   0  0  0  0  0  0  0  0  0  0  0  0
   -3.9790  -15.2590    0.0000 C   0  0  0  0  0  0  0  0  0  0  0  0
   -5.3492  -15.8693    0.0000 N   0  0  0  0  0  0  0  0  0  0  0  0
   -5.5057  -17.3612    0.0000 H   0  0  0  0  0  0  0  0  0  0  0  0
   -6.5629  -14.9879    0.0000 H   0  0  0  0  0  0  0  0  0  0  0  0
    0.1337  -13.4285    0.0000 C   0  0  0  0  0  0  0  0  0  0  0  0
    1.4269  -14.1740    0.0000 C   0  0  0  0  0  0  0  0  0  0  0  0
    1.5796  -15.6662    0.0000 H   0  0  0  0  0  0  0  0  0  0  0  0
    2.5492  -13.1757    0.0000 N   0  0  0  0  0  0  0  0  0  0  0  0
    4.0164  -13.4879    0.0000 C   0  0  0  0  0  0  0  0  0  0  0  0
    4.0688  -11.9889    0.0000 H   0  0  0  0  0  0  0  0  0  0  0  0
    5.5026  -13.2788    0.0000 C   0  0  0  0  0  0  0  0  0  0  0  0
    5.0389  -11.8522    0.0000 H   0  0  0  0  0  0  0  0  0  0  0  0
    6.8270  -12.5746    0.0000 H   0  0  0  0  0  0  0  0  0  0  0  0
    6.4259  -14.4609    0.0000 C   0  0  0  0  0  0  0  0  0  0  0  0
    7.9113  -14.2526    0.0000 H   0  0  0  0  0  0  0  0  0  0  0  0
    5.8630  -15.8522    0.0000 N   0  0  0  0  0  0  0  0  0  0  0  0
    6.7864  -17.0344    0.0000 H   0  0  0  0  0  0  0  0  0  0  0  0
    4.3768  -16.0614    0.0000 C   0  0  0  0  0  0  0  0  0  0  0  0
    4.8405  -17.4879    0.0000 H   0  0  0  0  0  0  0  0  0  0  0  0
    3.0524  -16.7655    0.0000 H   0  0  0  0  0  0  0  0  0  0  0  0
    3.4535  -14.8792    0.0000 C   0  0  0  0  0  0  0  0  0  0  0  0
    2.4495  -15.9937    0.0000 H   0  0  0  0  0  0  0  0  0  0  0  0
    2.1817  -14.0839    0.0000 H   0  0  0  0  0  0  0  0  0  0  0  0
    1.9306  -11.8070    0.0000 N   0  0  0  0  0  0  0  0  0  0  0  0
    0.4459  -11.9613    0.0000 C   0  0  0  0  0  0  0  0  0  0  0  0
   -0.5570  -10.8459    0.0000 H   0  0  0  0  0  0  0  0  0  0  0  0
  1  2  1  0  0  0  0 
  1  3  1  0  0  0  0 
  1  4  1  0  0  0  0 
  1  5  1  0  0  0  0 
  5  6  1  6  0  0  0 
  5  7  1  0  0  0  0 
  7  8  2  0  0  0  0 
  8  9  1  0  0  0  0 
  9 10  2  0  0  0  0 
 10 11  1  0  0  0  0 
 10 12  1  0  0  0  0 
 12 13  1  0  0  0  0 
 12 14  2  0  0  0  0 
  7 14  1  0  0  0  0 
 14 15  1  0  0  0  0 
  9 16  1  0  0  0  0 
  8 17  1  0  0  0  0 
  5 18  1  1  0  0  0 
 18 19  1  0  0  0  0 
 19 20  2  0  0  0  0 
 20 21  1  0  0  0  0 
 20 22  1  0  0  0  0 
 22 23  2  0  0  0  0 
 23 24  1  0  0  0  0 
 23 25  1  0  0  0  0 
 25 26  2  0  0  0  0 
 19 26  1  0  0  0  0 
 26 27  1  0  0  0  0 
 27 28  1  0  0  0  0 
 27 29  1  0  0  0  0 
 22 30  1  0  0  0  0 
 30 31  2  0  0  0  0 
 31 32  1  0  0  0  0 
 31 33  1  0  0  0  0 
 33 34  1  0  0  0  0 
 34 35  1  0  0  0  0 
 34 36  1  0  0  0  0 
 36 37  1  0  0  0  0 
 36 38  1  0  0  0  0 
 36 39  1  0  0  0  0 
 39 40  1  0  0  0  0 
 39 41  2  0  0  0  0 
 41 42  1  0  0  0  0 
 41 43  1  0  0  0  0 
 43 44  1  0  0  0  0 
 43 45  1  0  0  0  0 
 43 46  1  0  0  0  0 
 34 46  1  0  0  0  0 
 46 47  1  0  0  0  0 
 46 48  1  0  0  0  0 
 33 49  1  0  0  0  0 
 49 50  2  0  0  0  0 
 30 50  1  0  0  0  0 
 50 51  1  0  0  0  0 
M  CHG  1  41   1
M  END
> <Rank>
23

> <Priority_score>
0.09360000000000002

> <Reaction_type>
dehydration of N-C bond

> <Parent_ID>
51

> <Parent_InChI>
InChI=1S/C21H22Cl2FN5O/c1-12(19-16(22)2-3-17(24)20(19)23)30-18-8-13(9-27-21(18)25)14-10-28-29(11-14)15-4-6-26-7-5-15/h2-3,8-12,15,26H,4-7H2,1H3,(H2,25,27)

> <Parent_SMILES>
C[C@@H](Oc1cc(-c2cnn(C3CCNCC3)c2)cnc1N)c1c(Cl)ccc(F)c1Cl

$$$$
Molecule 51_metabolite 25
  CDK     0516241031

 50 53  0  0  0  0  0  0  0  0999 V2000
   -2.1981  -13.6118    0.0000 C   0  0  0  0  0  0  0  0  0  0  0  0
   -3.4115  -12.7300    0.0000 H   0  0  0  0  0  0  0  0  0  0  0  0
   -1.5404  -12.2637    0.0000 H   0  0  0  0  0  0  0  0  0  0  0  0
   -0.7563  -14.0254    0.0000 H   0  0  0  0  0  0  0  0  0  0  0  0
   -2.3551  -15.1035    0.0000 C   0  0  2  0  0  0  0  0  0  0  0  0
   -3.0128  -16.4517    0.0000 H   0  0  0  0  0  0  0  0  0  0  0  0
   -4.7197  -14.4252    0.0000 C   0  0  0  0  0  0  0  0  0  0  0  0
   -5.0828  -12.9690    0.0000 C   0  0  0  0  0  0  0  0  0  0  0  0
   -6.5253  -12.5544    0.0000 C   0  0  0  0  0  0  0  0  0  0  0  0
   -7.6046  -13.5961    0.0000 C   0  0  0  0  0  0  0  0  0  0  0  0
   -9.0464  -13.1825    0.0000 H   0  0  0  0  0  0  0  0  0  0  0  0
   -7.2415  -15.0523    0.0000 C   0  0  0  0  0  0  0  0  0  0  0  0
   -8.3208  -16.0940    0.0000 H   0  0  0  0  0  0  0  0  0  0  0  0
   -5.7990  -15.4669    0.0000 C   0  0  0  0  0  0  0  0  0  0  0  0
   -5.4368  -16.9225    0.0000 Cl  0  0  0  0  0  0  0  0  0  0  0  0
   -6.8875  -11.0988    0.0000 F   0  0  0  0  0  0  0  0  0  0  0  0
   -4.0035  -11.9273    0.0000 Cl  0  0  0  0  0  0  0  0  0  0  0  0
   -1.1417  -15.9854    0.0000 O   0  0  0  0  0  0  0  0  0  0  0  0
    0.2287  -15.3754    0.0000 C   0  0  0  0  0  0  0  0  0  0  0  0
    0.3860  -13.8829    0.0000 C   0  0  0  0  0  0  0  0  0  0  0  0
   -0.8275  -13.0012    0.0000 H   0  0  0  0  0  0  0  0  0  0  0  0
    1.7569  -13.2719    0.0000 C   0  0  0  0  0  0  0  0  0  0  0  0
    2.9704  -14.1536    0.0000 C   0  0  0  0  0  0  0  0  0  0  0  0
    4.3408  -13.5436    0.0000 H   0  0  0  0  0  0  0  0  0  0  0  0
    2.8131  -15.6461    0.0000 N   0  0  0  0  0  0  0  0  0  0  0  0
    1.4423  -16.2571    0.0000 C   0  0  0  0  0  0  0  0  0  0  0  0
    1.2858  -17.7489    0.0000 N   0  0  0  0  0  0  0  0  0  0  0  0
    2.4995  -18.6303    0.0000 H   0  0  0  0  0  0  0  0  0  0  0  0
   -0.0844  -18.3593    0.0000 H   0  0  0  0  0  0  0  0  0  0  0  0
    1.9134  -11.7801    0.0000 C   0  0  0  0  0  0  0  0  0  0  0  0
    3.2056  -11.0330    0.0000 C   0  0  0  0  0  0  0  0  0  0  0  0
    4.5742  -11.6468    0.0000 H   0  0  0  0  0  0  0  0  0  0  0  0
    2.9023   -9.5618    0.0000 N   0  0  0  0  0  0  0  0  0  0  0  0
    3.9062   -8.4474    0.0000 C   0  0  0  0  0  0  0  0  0  0  0  0
    2.6342   -7.6524    0.0000 H   0  0  0  0  0  0  0  0  0  0  0  0
    4.4682   -7.0557    0.0000 C   0  0  0  0  0  0  0  0  0  0  0  0
    3.0009   -6.7440    0.0000 H   0  0  0  0  0  0  0  0  0  0  0  0
    4.5206   -5.5566    0.0000 H   0  0  0  0  0  0  0  0  0  0  0  0
    5.9536   -6.8472    0.0000 C   0  0  0  0  0  0  0  0  0  0  0  0
    6.5159   -5.4565    0.0000 H   0  0  0  0  0  0  0  0  0  0  0  0
    6.8771   -8.0302    0.0000 N   0  0  0  0  0  0  0  0  0  0  0  0
    6.3151   -9.4219    0.0000 C   0  0  0  0  0  0  0  0  0  0  0  0
    7.7824   -9.7337    0.0000 H   0  0  0  0  0  0  0  0  0  0  0  0
    6.2627  -10.9210    0.0000 H   0  0  0  0  0  0  0  0  0  0  0  0
    4.8297   -9.6305    0.0000 C   0  0  0  0  0  0  0  0  0  0  0  0
    5.2929  -11.0572    0.0000 H   0  0  0  0  0  0  0  0  0  0  0  0
    3.5050  -10.3342    0.0000 H   0  0  0  0  0  0  0  0  0  0  0  0
    1.4076   -9.4132    0.0000 N   0  0  0  0  0  0  0  0  0  0  0  0
    0.7989  -10.7761    0.0000 C   0  0  0  0  0  0  0  0  0  0  0  0
   -0.6685  -11.0870    0.0000 H   0  0  0  0  0  0  0  0  0  0  0  0
  1  2  1  0  0  0  0 
  1  3  1  0  0  0  0 
  1  4  1  0  0  0  0 
  1  5  1  0  0  0  0 
  5  6  1  6  0  0  0 
  5  7  1  0  0  0  0 
  7  8  2  0  0  0  0 
  8  9  1  0  0  0  0 
  9 10  2  0  0  0  0 
 10 11  1  0  0  0  0 
 10 12  1  0  0  0  0 
 12 13  1  0  0  0  0 
 12 14  2  0  0  0  0 
  7 14  1  0  0  0  0 
 14 15  1  0  0  0  0 
  9 16  1  0  0  0  0 
  8 17  1  0  0  0  0 
  5 18  1  1  0  0  0 
 18 19  1  0  0  0  0 
 19 20  2  0  0  0  0 
 20 21  1  0  0  0  0 
 20 22  1  0  0  0  0 
 22 23  2  0  0  0  0 
 23 24  1  0  0  0  0 
 23 25  1  0  0  0  0 
 25 26  2  0  0  0  0 
 19 26  1  0  0  0  0 
 26 27  1  0  0  0  0 
 27 28  1  0  0  0  0 
 27 29  1  0  0  0  0 
 22 30  1  0  0  0  0 
 30 31  2  0  0  0  0 
 31 32  1  0  0  0  0 
 31 33  1  0  0  0  0 
 33 34  1  0  0  0  0 
 34 35  1  0  0  0  0 
 34 36  1  0  0  0  0 
 36 37  1  0  0  0  0 
 36 38  1  0  0  0  0 
 36 39  1  0  0  0  0 
 39 40  1  0  0  0  0 
 39 41  2  0  0  0  0 
 41 42  1  0  0  0  0 
 42 43  1  0  0  0  0 
 42 44  1  0  0  0  0 
 42 45  1  0  0  0  0 
 34 45  1  0  0  0  0 
 45 46  1  0  0  0  0 
 45 47  1  0  0  0  0 
 33 48  1  0  0  0  0 
 48 49  2  0  0  0  0 
 30 49  1  0  0  0  0 
 49 50  1  0  0  0  0 
M  END
> <Rank>
23

> <Priority_score>
0.09360000000000002

> <Reaction_type>
dehydration of N-C bond

> <Parent_ID>
51

> <Parent_InChI>
InChI=1S/C21H22Cl2FN5O/c1-12(19-16(22)2-3-17(24)20(19)23)30-18-8-13(9-27-21(18)25)14-10-28-29(11-14)15-4-6-26-7-5-15/h2-3,8-12,15,26H,4-7H2,1H3,(H2,25,27)

> <Parent_SMILES>
C[C@@H](Oc1cc(-c2cnn(C3CCNCC3)c2)cnc1N)c1c(Cl)ccc(F)c1Cl

$$$$
Molecule 51_metabolite 26
  CDK     0516241031

 53 56  0  0  0  0  0  0  0  0999 V2000
    1.3043   -8.6209    0.0000 C   0  0  0  0  0  0  0  0  0  0  0  0
    2.5178   -9.5027    0.0000 H   0  0  0  0  0  0  0  0  0  0  0  0
    0.6466   -9.9690    0.0000 H   0  0  0  0  0  0  0  0  0  0  0  0
   -0.1375   -8.2073    0.0000 H   0  0  0  0  0  0  0  0  0  0  0  0
    1.4613   -7.1291    0.0000 C   0  0  2  0  0  0  0  0  0  0  0  0
    2.1190   -5.7810    0.0000 H   0  0  0  0  0  0  0  0  0  0  0  0
    3.8259   -7.8075    0.0000 C   0  0  0  0  0  0  0  0  0  0  0  0
    4.1891   -9.2637    0.0000 C   0  0  0  0  0  0  0  0  0  0  0  0
    5.6315   -9.6783    0.0000 C   0  0  0  0  0  0  0  0  0  0  0  0
    6.7108   -8.6366    0.0000 C   0  0  0  0  0  0  0  0  0  0  0  0
    8.1527   -9.0502    0.0000 H   0  0  0  0  0  0  0  0  0  0  0  0
    6.3477   -7.1804    0.0000 C   0  0  0  0  0  0  0  0  0  0  0  0
    7.4270   -6.1387    0.0000 H   0  0  0  0  0  0  0  0  0  0  0  0
    4.9052   -6.7658    0.0000 C   0  0  0  0  0  0  0  0  0  0  0  0
    4.5430   -5.3102    0.0000 Cl  0  0  0  0  0  0  0  0  0  0  0  0
    5.9938  -11.1339    0.0000 F   0  0  0  0  0  0  0  0  0  0  0  0
    3.1098  -10.3054    0.0000 Cl  0  0  0  0  0  0  0  0  0  0  0  0
    0.2479   -6.2473    0.0000 O   0  0  0  0  0  0  0  0  0  0  0  0
   -1.1225   -6.8572    0.0000 C   0  0  0  0  0  0  0  0  0  0  0  0
   -1.2798   -8.3498    0.0000 C   0  0  0  0  0  0  0  0  0  0  0  0
   -0.0662   -9.2314    0.0000 H   0  0  0  0  0  0  0  0  0  0  0  0
   -2.6507   -8.9607    0.0000 C   0  0  0  0  0  0  0  0  0  0  0  0
   -3.8642   -8.0791    0.0000 C   0  0  0  0  0  0  0  0  0  0  0  0
   -5.2346   -8.6891    0.0000 H   0  0  0  0  0  0  0  0  0  0  0  0
   -3.7069   -6.5866    0.0000 N   0  0  0  0  0  0  0  0  0  0  0  0
   -2.3361   -5.9756    0.0000 C   0  0  0  0  0  0  0  0  0  0  0  0
   -2.1796   -4.4838    0.0000 N   0  0  0  0  0  0  0  0  0  0  0  0
   -0.8094   -3.8734    0.0000 H   0  0  0  0  0  0  0  0  0  0  0  0
   -3.3933   -3.6024    0.0000 O   0  0  0  0  0  0  0  0  0  0  0  0
   -3.2368   -2.1106    0.0000 H   0  0  0  0  0  0  0  0  0  0  0  0
   -2.8072  -10.4526    0.0000 C   0  0  0  0  0  0  0  0  0  0  0  0
   -4.0993  -11.1997    0.0000 C   0  0  0  0  0  0  0  0  0  0  0  0
   -5.4680  -10.5859    0.0000 H   0  0  0  0  0  0  0  0  0  0  0  0
   -3.7960  -12.6708    0.0000 N   0  0  0  0  0  0  0  0  0  0  0  0
   -4.8000  -13.7853    0.0000 C   0  0  0  0  0  0  0  0  0  0  0  0
   -3.5279  -14.5802    0.0000 H   0  0  0  0  0  0  0  0  0  0  0  0
   -5.3620  -15.1770    0.0000 C   0  0  0  0  0  0  0  0  0  0  0  0
   -3.8947  -15.4887    0.0000 H   0  0  0  0  0  0  0  0  0  0  0  0
   -5.4143  -16.6760    0.0000 H   0  0  0  0  0  0  0  0  0  0  0  0
   -6.8474  -15.3855    0.0000 C   0  0  0  0  0  0  0  0  0  0  0  0
   -6.3842  -16.8122    0.0000 H   0  0  0  0  0  0  0  0  0  0  0  0
   -8.1721  -16.0893    0.0000 H   0  0  0  0  0  0  0  0  0  0  0  0
   -7.7709  -14.2024    0.0000 N   0  0  0  0  0  0  0  0  0  0  0  0
   -9.2563  -14.4110    0.0000 H   0  0  0  0  0  0  0  0  0  0  0  0
   -7.2089  -12.8108    0.0000 C   0  0  0  0  0  0  0  0  0  0  0  0
   -8.6761  -12.4990    0.0000 H   0  0  0  0  0  0  0  0  0  0  0  0
   -7.1565  -11.3117    0.0000 H   0  0  0  0  0  0  0  0  0  0  0  0
   -5.7235  -12.6022    0.0000 C   0  0  0  0  0  0  0  0  0  0  0  0
   -6.1866  -11.1755    0.0000 H   0  0  0  0  0  0  0  0  0  0  0  0
   -4.3988  -11.8985    0.0000 H   0  0  0  0  0  0  0  0  0  0  0  0
   -2.3013  -12.8194    0.0000 N   0  0  0  0  0  0  0  0  0  0  0  0
   -1.6927  -11.4565    0.0000 C   0  0  0  0  0  0  0  0  0  0  0  0
   -0.2252  -11.1457    0.0000 H   0  0  0  0  0  0  0  0  0  0  0  0
  1  2  1  0  0  0  0 
  1  3  1  0  0  0  0 
  1  4  1  0  0  0  0 
  1  5  1  0  0  0  0 
  5  6  1  6  0  0  0 
  5  7  1  0  0  0  0 
  7  8  2  0  0  0  0 
  8  9  1  0  0  0  0 
  9 10  2  0  0  0  0 
 10 11  1  0  0  0  0 
 10 12  1  0  0  0  0 
 12 13  1  0  0  0  0 
 12 14  2  0  0  0  0 
  7 14  1  0  0  0  0 
 14 15  1  0  0  0  0 
  9 16  1  0  0  0  0 
  8 17  1  0  0  0  0 
  5 18  1  1  0  0  0 
 18 19  1  0  0  0  0 
 19 20  2  0  0  0  0 
 20 21  1  0  0  0  0 
 20 22  1  0  0  0  0 
 22 23  2  0  0  0  0 
 23 24  1  0  0  0  0 
 23 25  1  0  0  0  0 
 25 26  2  0  0  0  0 
 19 26  1  0  0  0  0 
 26 27  1  0  0  0  0 
 27 28  1  0  0  0  0 
 27 29  1  0  0  0  0 
 29 30  1  0  0  0  0 
 22 31  1  0  0  0  0 
 31 32  2  0  0  0  0 
 32 33  1  0  0  0  0 
 32 34  1  0  0  0  0 
 34 35  1  0  0  0  0 
 35 36  1  0  0  0  0 
 35 37  1  0  0  0  0 
 37 38  1  0  0  0  0 
 37 39  1  0  0  0  0 
 37 40  1  0  0  0  0 
 40 41  1  0  0  0  0 
 40 42  1  0  0  0  0 
 40 43  1  0  0  0  0 
 43 44  1  0  0  0  0 
 43 45  1  0  0  0  0 
 45 46  1  0  0  0  0 
 45 47  1  0  0  0  0 
 45 48  1  0  0  0  0 
 35 48  1  0  0  0  0 
 48 49  1  0  0  0  0 
 48 50  1  0  0  0  0 
 34 51  1  0  0  0  0 
 51 52  2  0  0  0  0 
 31 52  1  0  0  0  0 
 52 53  1  0  0  0  0 
M  END
> <Rank>
26

> <Priority_score>
0.08

> <Reaction_type>
N-oxidation_(aniline)

> <Parent_ID>
51

> <Parent_InChI>
InChI=1S/C21H22Cl2FN5O/c1-12(19-16(22)2-3-17(24)20(19)23)30-18-8-13(9-27-21(18)25)14-10-28-29(11-14)15-4-6-26-7-5-15/h2-3,8-12,15,26H,4-7H2,1H3,(H2,25,27)

> <Parent_SMILES>
C[C@@H](Oc1cc(-c2cnn(C3CCNCC3)c2)cnc1N)c1c(Cl)ccc(F)c1Cl

$$$$
Molecule 51_metabolite 27
  CDK     0516241031

 53 56  0  0  0  0  0  0  0  0999 V2000
   -9.0874    5.5156    0.0000 C   0  0  0  0  0  0  0  0  0  0  0  0
   -9.6964    6.8864    0.0000 H   0  0  0  0  0  0  0  0  0  0  0  0
   -8.0462    4.4358    0.0000 H   0  0  0  0  0  0  0  0  0  0  0  0
   -7.8432    6.3534    0.0000 H   0  0  0  0  0  0  0  0  0  0  0  0
   -9.9700    4.3027    0.0000 C   0  0  2  0  0  0  0  0  0  0  0  0
  -11.0112    5.3825    0.0000 H   0  0  0  0  0  0  0  0  0  0  0  0
  -11.2142    3.4649    0.0000 C   0  0  0  0  0  0  0  0  0  0  0  0
  -11.1109    1.9676    0.0000 C   0  0  0  0  0  0  0  0  0  0  0  0
  -12.3554    1.1287    0.0000 C   0  0  0  0  0  0  0  0  0  0  0  0
  -13.7031    1.7871    0.0000 C   0  0  0  0  0  0  0  0  0  0  0  0
  -14.9473    0.9492    0.0000 H   0  0  0  0  0  0  0  0  0  0  0  0
  -13.8065    3.2843    0.0000 C   0  0  0  0  0  0  0  0  0  0  0  0
  -15.1543    3.9427    0.0000 H   0  0  0  0  0  0  0  0  0  0  0  0
  -12.5620    4.1232    0.0000 C   0  0  0  0  0  0  0  0  0  0  0  0
  -12.6660    5.6196    0.0000 Cl  0  0  0  0  0  0  0  0  0  0  0  0
  -12.2514   -0.3677    0.0000 F   0  0  0  0  0  0  0  0  0  0  0  0
   -9.7631    1.3092    0.0000 Cl  0  0  0  0  0  0  0  0  0  0  0  0
   -9.3609    2.9319    0.0000 O   0  0  0  0  0  0  0  0  0  0  0  0
   -6.9146    2.6729    0.0000 C   0  0  0  0  0  0  0  0  0  0  0  0
   -6.0318    3.8856    0.0000 C   0  0  0  0  0  0  0  0  0  0  0  0
   -6.6404    5.2566    0.0000 N   0  0  0  0  0  0  0  0  0  0  0  0
   -5.7574    6.4692    0.0000 H   0  0  0  0  0  0  0  0  0  0  0  0
   -8.1320    5.4150    0.0000 H   0  0  0  0  0  0  0  0  0  0  0  0
   -4.5394    3.7269    0.0000 N   0  0  0  0  0  0  0  0  0  0  0  0
   -3.9298    2.3555    0.0000 C   0  0  0  0  0  0  0  0  0  0  0  0
   -2.4381    2.1975    0.0000 H   0  0  0  0  0  0  0  0  0  0  0  0
   -4.8126    1.1428    0.0000 C   0  0  0  0  0  0  0  0  0  0  0  0
   -6.3050    1.3015    0.0000 C   0  0  0  0  0  0  0  0  0  0  0  0
   -7.1878    0.0888    0.0000 O   0  0  0  0  0  0  0  0  0  0  0  0
   -8.6794    0.2469    0.0000 H   0  0  0  0  0  0  0  0  0  0  0  0
   -4.2039   -0.2282    0.0000 C   0  0  0  0  0  0  0  0  0  0  0  0
   -2.7444   -0.5408    0.0000 C   0  0  0  0  0  0  0  0  0  0  0  0
   -1.6315    0.4650    0.0000 H   0  0  0  0  0  0  0  0  0  0  0  0
   -2.5796   -2.0338    0.0000 N   0  0  0  0  0  0  0  0  0  0  0  0
   -1.2810   -2.7846    0.0000 C   0  0  0  0  0  0  0  0  0  0  0  0
   -2.2462   -3.9329    0.0000 H   0  0  0  0  0  0  0  0  0  0  0  0
   -0.3175   -3.9354    0.0000 C   0  0  0  0  0  0  0  0  0  0  0  0
   -1.6173   -4.6841    0.0000 H   0  0  0  0  0  0  0  0  0  0  0  0
    0.1943   -5.3453    0.0000 H   0  0  0  0  0  0  0  0  0  0  0  0
    1.1599   -3.6760    0.0000 C   0  0  0  0  0  0  0  0  0  0  0  0
    1.1589   -5.1760    0.0000 H   0  0  0  0  0  0  0  0  0  0  0  0
    2.6369   -3.9372    0.0000 H   0  0  0  0  0  0  0  0  0  0  0  0
    1.6738   -2.2659    0.0000 N   0  0  0  0  0  0  0  0  0  0  0  0
    3.1512   -2.0065    0.0000 H   0  0  0  0  0  0  0  0  0  0  0  0
    0.7103   -1.1151    0.0000 C   0  0  0  0  0  0  0  0  0  0  0  0
    2.0101   -0.3664    0.0000 H   0  0  0  0  0  0  0  0  0  0  0  0
    0.1985    0.2948    0.0000 H   0  0  0  0  0  0  0  0  0  0  0  0
   -0.7671   -1.3745    0.0000 C   0  0  0  0  0  0  0  0  0  0  0  0
   -0.7661    0.1255    0.0000 H   0  0  0  0  0  0  0  0  0  0  0  0
   -2.2442   -1.1133    0.0000 H   0  0  0  0  0  0  0  0  0  0  0  0
   -3.9557   -2.6358    0.0000 N   0  0  0  0  0  0  0  0  0  0  0  0
   -4.9548   -1.5268    0.0000 C   0  0  0  0  0  0  0  0  0  0  0  0
   -6.4466   -1.6833    0.0000 H   0  0  0  0  0  0  0  0  0  0  0  0
  1  2  1  0  0  0  0 
  1  3  1  0  0  0  0 
  1  4  1  0  0  0  0 
  1  5  1  0  0  0  0 
  5  6  1  6  0  0  0 
  5  7  1  1  0  0  0 
  7  8  2  0  0  0  0 
  8  9  1  0  0  0  0 
  9 10  2  0  0  0  0 
 10 11  1  0  0  0  0 
 10 12  1  0  0  0  0 
 12 13  1  0  0  0  0 
 12 14  2  0  0  0  0 
  7 14  1  0  0  0  0 
 14 15  1  0  0  0  0 
  9 16  1  0  0  0  0 
  8 17  1  0  0  0  0 
  5 18  1  0  0  0  0 
 18 19  1  0  0  0  0 
 19 20  2  0  0  0  0 
 20 21  1  0  0  0  0 
 21 22  1  0  0  0  0 
 21 23  1  0  0  0  0 
 20 24  1  0  0  0  0 
 24 25  2  0  0  0  0 
 25 26  1  0  0  0  0 
 25 27  1  0  0  0  0 
 27 28  2  0  0  0  0 
 19 28  1  0  0  0  0 
 28 29  1  0  0  0  0 
 29 30  1  0  0  0  0 
 27 31  1  0  0  0  0 
 31 32  2  0  0  0  0 
 32 33  1  0  0  0  0 
 32 34  1  0  0  0  0 
 34 35  1  0  0  0  0 
 35 36  1  0  0  0  0 
 35 37  1  0  0  0  0 
 37 38  1  0  0  0  0 
 37 39  1  0  0  0  0 
 37 40  1  0  0  0  0 
 40 41  1  0  0  0  0 
 40 42  1  0  0  0  0 
 40 43  1  0  0  0  0 
 43 44  1  0  0  0  0 
 43 45  1  0  0  0  0 
 45 46  1  0  0  0  0 
 45 47  1  0  0  0  0 
 45 48  1  0  0  0  0 
 35 48  1  0  0  0  0 
 48 49  1  0  0  0  0 
 48 50  1  0  0  0  0 
 34 51  1  0  0  0  0 
 51 52  2  0  0  0  0 
 31 52  1  0  0  0  0 
 52 53  1  0  0  0  0 
M  END
> <Rank>
26

> <Priority_score>
0.08

> <Reaction_type>
aromatic_hydroxylation_(ortho_to_2_substituents)

> <Parent_ID>
51

> <Parent_InChI>
InChI=1S/C21H22Cl2FN5O/c1-12(19-16(22)2-3-17(24)20(19)23)30-18-8-13(9-27-21(18)25)14-10-28-29(11-14)15-4-6-26-7-5-15/h2-3,8-12,15,26H,4-7H2,1H3,(H2,25,27)

> <Parent_SMILES>
C[C@@H](Oc1cc(-c2cnn(C3CCNCC3)c2)cnc1N)c1c(Cl)ccc(F)c1Cl

$$$$
Molecule 51_metabolite 28
  CDK     0516241031

 53 56  0  0  0  0  0  0  0  0999 V2000
   -3.6096  -10.4687    0.0000 C   0  0  0  0  0  0  0  0  0  0  0  0
   -3.4527   -8.9769    0.0000 H   0  0  0  0  0  0  0  0  0  0  0  0
   -2.1133  -10.3642    0.0000 H   0  0  0  0  0  0  0  0  0  0  0  0
   -3.2469  -11.9242    0.0000 H   0  0  0  0  0  0  0  0  0  0  0  0
   -4.9800  -11.0786    0.0000 C   0  0  2  0  0  0  0  0  0  0  0  0
   -6.4764  -11.1831    0.0000 H   0  0  0  0  0  0  0  0  0  0  0  0
   -5.5749   -8.6916    0.0000 C   0  0  0  0  0  0  0  0  0  0  0  0
   -4.4953   -7.6490    0.0000 C   0  0  0  0  0  0  0  0  0  0  0  0
   -4.8575   -6.1925    0.0000 C   0  0  0  0  0  0  0  0  0  0  0  0
   -6.2993   -5.7787    0.0000 C   0  0  0  0  0  0  0  0  0  0  0  0
   -6.6620   -4.3232    0.0000 H   0  0  0  0  0  0  0  0  0  0  0  0
   -7.3788   -6.8213    0.0000 C   0  0  0  0  0  0  0  0  0  0  0  0
   -8.8206   -6.4074    0.0000 H   0  0  0  0  0  0  0  0  0  0  0  0
   -7.0166   -8.2777    0.0000 C   0  0  0  0  0  0  0  0  0  0  0  0
   -8.0961   -9.3193    0.0000 Cl  0  0  0  0  0  0  0  0  0  0  0  0
   -3.7780   -5.1510    0.0000 F   0  0  0  0  0  0  0  0  0  0  0  0
   -3.0535   -8.0629    0.0000 Cl  0  0  0  0  0  0  0  0  0  0  0  0
   -5.1370  -12.5704    0.0000 O   0  0  0  0  0  0  0  0  0  0  0  0
   -3.9236  -13.4522    0.0000 C   0  0  0  0  0  0  0  0  0  0  0  0
   -2.5523  -12.8421    0.0000 C   0  0  0  0  0  0  0  0  0  0  0  0
   -2.3956  -11.3503    0.0000 H   0  0  0  0  0  0  0  0  0  0  0  0
   -1.3378  -13.7239    0.0000 C   0  0  0  0  0  0  0  0  0  0  0  0
   -1.4945  -15.2157    0.0000 C   0  0  0  0  0  0  0  0  0  0  0  0
   -2.8658  -15.8257    0.0000 N   0  0  0  0  0  0  0  0  0  0  0  0
   -4.0803  -14.9440    0.0000 C   0  0  0  0  0  0  0  0  0  0  0  0
   -5.4505  -15.5544    0.0000 N   0  0  0  0  0  0  0  0  0  0  0  0
   -5.6070  -17.0462    0.0000 H   0  0  0  0  0  0  0  0  0  0  0  0
   -6.6642  -14.6729    0.0000 H   0  0  0  0  0  0  0  0  0  0  0  0
   -0.2811  -16.0975    0.0000 O   0  0  0  0  0  0  0  0  0  0  0  0
   -0.4381  -17.5892    0.0000 H   0  0  0  0  0  0  0  0  0  0  0  0
    0.0324  -13.1135    0.0000 C   0  0  0  0  0  0  0  0  0  0  0  0
    1.3255  -13.8590    0.0000 C   0  0  0  0  0  0  0  0  0  0  0  0
    1.4783  -15.3512    0.0000 H   0  0  0  0  0  0  0  0  0  0  0  0
    2.4479  -12.8607    0.0000 N   0  0  0  0  0  0  0  0  0  0  0  0
    3.9150  -13.1730    0.0000 C   0  0  0  0  0  0  0  0  0  0  0  0
    3.9674  -11.6739    0.0000 H   0  0  0  0  0  0  0  0  0  0  0  0
    5.4012  -12.9638    0.0000 C   0  0  0  0  0  0  0  0  0  0  0  0
    4.9376  -11.5373    0.0000 H   0  0  0  0  0  0  0  0  0  0  0  0
    6.7257  -12.2596    0.0000 H   0  0  0  0  0  0  0  0  0  0  0  0
    6.3246  -14.1459    0.0000 C   0  0  0  0  0  0  0  0  0  0  0  0
    7.3285  -13.0315    0.0000 H   0  0  0  0  0  0  0  0  0  0  0  0
    7.5964  -14.9413    0.0000 H   0  0  0  0  0  0  0  0  0  0  0  0
    5.7617  -15.5372    0.0000 N   0  0  0  0  0  0  0  0  0  0  0  0
    6.6850  -16.7194    0.0000 H   0  0  0  0  0  0  0  0  0  0  0  0
    4.2755  -15.7464    0.0000 C   0  0  0  0  0  0  0  0  0  0  0  0
    4.7392  -17.1729    0.0000 H   0  0  0  0  0  0  0  0  0  0  0  0
    2.9511  -16.4506    0.0000 H   0  0  0  0  0  0  0  0  0  0  0  0
    3.3522  -14.5642    0.0000 C   0  0  0  0  0  0  0  0  0  0  0  0
    2.3482  -15.6787    0.0000 H   0  0  0  0  0  0  0  0  0  0  0  0
    2.0804  -13.7689    0.0000 H   0  0  0  0  0  0  0  0  0  0  0  0
    1.8293  -11.4920    0.0000 N   0  0  0  0  0  0  0  0  0  0  0  0
    0.3446  -11.6463    0.0000 C   0  0  0  0  0  0  0  0  0  0  0  0
   -0.6583  -10.5309    0.0000 H   0  0  0  0  0  0  0  0  0  0  0  0
  1  2  1  0  0  0  0 
  1  3  1  0  0  0  0 
  1  4  1  0  0  0  0 
  1  5  1  0  0  0  0 
  5  6  1  6  0  0  0 
  5  7  1  0  0  0  0 
  7  8  2  0  0  0  0 
  8  9  1  0  0  0  0 
  9 10  2  0  0  0  0 
 10 11  1  0  0  0  0 
 10 12  1  0  0  0  0 
 12 13  1  0  0  0  0 
 12 14  2  0  0  0  0 
  7 14  1  0  0  0  0 
 14 15  1  0  0  0  0 
  9 16  1  0  0  0  0 
  8 17  1  0  0  0  0 
  5 18  1  1  0  0  0 
 18 19  1  0  0  0  0 
 19 20  2  0  0  0  0 
 20 21  1  0  0  0  0 
 20 22  1  0  0  0  0 
 22 23  2  0  0  0  0 
 23 24  1  0  0  0  0 
 24 25  2  0  0  0  0 
 19 25  1  0  0  0  0 
 25 26  1  0  0  0  0 
 26 27  1  0  0  0  0 
 26 28  1  0  0  0  0 
 23 29  1  0  0  0  0 
 29 30  1  0  0  0  0 
 22 31  1  0  0  0  0 
 31 32  2  0  0  0  0 
 32 33  1  0  0  0  0 
 32 34  1  0  0  0  0 
 34 35  1  0  0  0  0 
 35 36  1  0  0  0  0 
 35 37  1  0  0  0  0 
 37 38  1  0  0  0  0 
 37 39  1  0  0  0  0 
 37 40  1  0  0  0  0 
 40 41  1  0  0  0  0 
 40 42  1  0  0  0  0 
 40 43  1  0  0  0  0 
 43 44  1  0  0  0  0 
 43 45  1  0  0  0  0 
 45 46  1  0  0  0  0 
 45 47  1  0  0  0  0 
 45 48  1  0  0  0  0 
 35 48  1  0  0  0  0 
 48 49  1  0  0  0  0 
 48 50  1  0  0  0  0 
 34 51  1  0  0  0  0 
 51 52  2  0  0  0  0 
 31 52  1  0  0  0  0 
 52 53  1  0  0  0  0 
M  END
> <Rank>
26

> <Priority_score>
0.08

> <Reaction_type>
aromatic_hydroxylation_(para_to_oxygen)

> <Parent_ID>
51

> <Parent_InChI>
InChI=1S/C21H22Cl2FN5O/c1-12(19-16(22)2-3-17(24)20(19)23)30-18-8-13(9-27-21(18)25)14-10-28-29(11-14)15-4-6-26-7-5-15/h2-3,8-12,15,26H,4-7H2,1H3,(H2,25,27)

> <Parent_SMILES>
C[C@@H](Oc1cc(-c2cnn(C3CCNCC3)c2)cnc1N)c1c(Cl)ccc(F)c1Cl

$$$$
Molecule 51_metabolite 29
  CDK     0516241031

 51 54  0  0  0  0  0  0  0  0999 V2000
    1.9824    1.6948    0.0000 C   0  0  0  0  0  0  0  0  0  0  0  0
    3.4742    1.5379    0.0000 H   0  0  0  0  0  0  0  0  0  0  0  0
    2.3961    3.1367    0.0000 H   0  0  0  0  0  0  0  0  0  0  0  0
    0.6343    2.3525    0.0000 H   0  0  0  0  0  0  0  0  0  0  0  0
    1.1006    0.4814    0.0000 C   0  0  2  0  0  0  0  0  0  0  0  0
    0.6870   -0.9604    0.0000 H   0  0  0  0  0  0  0  0  0  0  0  0
    3.3115   -0.5973    0.0000 C   0  0  0  0  0  0  0  0  0  0  0  0
    4.5560    0.2417    0.0000 C   0  0  0  0  0  0  0  0  0  0  0  0
    5.9052   -0.4158    0.0000 C   0  0  0  0  0  0  0  0  0  0  0  0
    6.0099   -1.9121    0.0000 C   0  0  0  0  0  0  0  0  0  0  0  0
    7.3580   -2.5698    0.0000 H   0  0  0  0  0  0  0  0  0  0  0  0
    4.7654   -2.7510    0.0000 C   0  0  0  0  0  0  0  0  0  0  0  0
    4.8701   -4.2474    0.0000 H   0  0  0  0  0  0  0  0  0  0  0  0
    3.4162   -2.0936    0.0000 C   0  0  0  0  0  0  0  0  0  0  0  0
    2.1728   -2.9326    0.0000 Cl  0  0  0  0  0  0  0  0  0  0  0  0
    7.1486    0.4233    0.0000 F   0  0  0  0  0  0  0  0  0  0  0  0
    4.4513    1.7380    0.0000 Cl  0  0  0  0  0  0  0  0  0  0  0  0
   -0.8685    0.6886    0.0000 O   0  0  0  0  0  0  0  0  0  0  0  0
   -1.7504   -0.5248    0.0000 C   0  0  0  0  0  0  0  0  0  0  0  0
   -3.2430   -0.3680    0.0000 C   0  0  0  0  0  0  0  0  0  0  0  0
   -3.8527    1.0025    0.0000 H   0  0  0  0  0  0  0  0  0  0  0  0
   -4.1259   -1.5817    0.0000 C   0  0  0  0  0  0  0  0  0  0  0  0
   -3.5161   -2.9521    0.0000 C   0  0  0  0  0  0  0  0  0  0  0  0
   -4.3980   -4.1656    0.0000 H   0  0  0  0  0  0  0  0  0  0  0  0
   -2.0235   -3.1090    0.0000 N   0  0  0  0  0  0  0  0  0  0  0  0
   -1.4138   -4.4795    0.0000 H   0  0  0  0  0  0  0  0  0  0  0  0
   -1.1406   -1.8953    0.0000 C   0  0  0  0  0  0  0  0  0  0  0  0
    0.3511   -2.0527    0.0000 O   0  0  0  0  0  0  0  0  0  0  0  0
   -5.6176   -1.4242    0.0000 C   0  0  0  0  0  0  0  0  0  0  0  0
   -6.6173   -2.5326    0.0000 C   0  0  0  0  0  0  0  0  0  0  0  0
   -6.3018   -3.9990    0.0000 H   0  0  0  0  0  0  0  0  0  0  0  0
   -7.9931   -1.9297    0.0000 N   0  0  0  0  0  0  0  0  0  0  0  0
   -9.2921   -2.6797    0.0000 C   0  0  0  0  0  0  0  0  0  0  0  0
   -9.8049   -1.2700    0.0000 H   0  0  0  0  0  0  0  0  0  0  0  0
  -10.7703   -2.9397    0.0000 C   0  0  0  0  0  0  0  0  0  0  0  0
  -10.7698   -1.4397    0.0000 H   0  0  0  0  0  0  0  0  0  0  0  0
  -12.2474   -2.6789    0.0000 H   0  0  0  0  0  0  0  0  0  0  0  0
  -11.2835   -4.3492    0.0000 C   0  0  0  0  0  0  0  0  0  0  0  0
  -12.5825   -3.5992    0.0000 H   0  0  0  0  0  0  0  0  0  0  0  0
  -12.2475   -5.4983    0.0000 H   0  0  0  0  0  0  0  0  0  0  0  0
  -10.3185   -5.4987    0.0000 N   0  0  0  0  0  0  0  0  0  0  0  0
  -10.8317   -6.9081    0.0000 H   0  0  0  0  0  0  0  0  0  0  0  0
   -8.8404   -5.2387    0.0000 C   0  0  0  0  0  0  0  0  0  0  0  0
   -8.8408   -6.7387    0.0000 H   0  0  0  0  0  0  0  0  0  0  0  0
   -7.3632   -5.4995    0.0000 H   0  0  0  0  0  0  0  0  0  0  0  0
   -8.3272   -3.8292    0.0000 C   0  0  0  0  0  0  0  0  0  0  0  0
   -7.0281   -4.5792    0.0000 H   0  0  0  0  0  0  0  0  0  0  0  0
   -7.3631   -2.6800    0.0000 H   0  0  0  0  0  0  0  0  0  0  0  0
   -7.8273   -0.4368    0.0000 N   0  0  0  0  0  0  0  0  0  0  0  0
   -6.3676   -0.1252    0.0000 C   0  0  0  0  0  0  0  0  0  0  0  0
   -5.7581    1.2454    0.0000 H   0  0  0  0  0  0  0  0  0  0  0  0
  1  2  1  0  0  0  0 
  1  3  1  0  0  0  0 
  1  4  1  0  0  0  0 
  1  5  1  0  0  0  0 
  5  6  1  1  0  0  0 
  5  7  1  0  0  0  0 
  7  8  2  0  0  0  0 
  8  9  1  0  0  0  0 
  9 10  2  0  0  0  0 
 10 11  1  0  0  0  0 
 10 12  1  0  0  0  0 
 12 13  1  0  0  0  0 
 12 14  2  0  0  0  0 
  7 14  1  0  0  0  0 
 14 15  1  0  0  0  0 
  9 16  1  0  0  0  0 
  8 17  1  0  0  0  0 
  5 18  1  6  0  0  0 
 18 19  1  0  0  0  0 
 19 20  2  0  0  0  0 
 20 21  1  0  0  0  0 
 20 22  1  0  0  0  0 
 22 23  2  0  0  0  0 
 23 24  1  0  0  0  0 
 23 25  1  0  0  0  0 
 25 26  1  0  0  0  0 
 25 27  1  0  0  0  0 
 19 27  1  0  0  0  0 
 27 28  2  0  0  0  0 
 22 29  1  0  0  0  0 
 29 30  2  0  0  0  0 
 30 31  1  0  0  0  0 
 30 32  1  0  0  0  0 
 32 33  1  0  0  0  0 
 33 34  1  0  0  0  0 
 33 35  1  0  0  0  0 
 35 36  1  0  0  0  0 
 35 37  1  0  0  0  0 
 35 38  1  0  0  0  0 
 38 39  1  0  0  0  0 
 38 40  1  0  0  0  0 
 38 41  1  0  0  0  0 
 41 42  1  0  0  0  0 
 41 43  1  0  0  0  0 
 43 44  1  0  0  0  0 
 43 45  1  0  0  0  0 
 43 46  1  0  0  0  0 
 33 46  1  0  0  0  0 
 46 47  1  0  0  0  0 
 46 48  1  0  0  0  0 
 32 49  1  0  0  0  0 
 49 50  2  0  0  0  0 
 29 50  1  0  0  0  0 
 50 51  1  0  0  0  0 
M  END
> <Rank>
26

> <Priority_score>
0.08

> <Reaction_type>
oxidative_deamination_(aromatic)

> <Parent_ID>
51

> <Parent_InChI>
InChI=1S/C21H22Cl2FN5O/c1-12(19-16(22)2-3-17(24)20(19)23)30-18-8-13(9-27-21(18)25)14-10-28-29(11-14)15-4-6-26-7-5-15/h2-3,8-12,15,26H,4-7H2,1H3,(H2,25,27)

> <Parent_SMILES>
C[C@@H](Oc1cc(-c2cnn(C3CCNCC3)c2)cnc1N)c1c(Cl)ccc(F)c1Cl

$$$$
Molecule 51_metabolite 30
  CDK     0516241031

 53 56  0  0  0  0  0  0  0  0999 V2000
   -3.4738  -10.6045    0.0000 C   0  0  0  0  0  0  0  0  0  0  0  0
   -3.3168   -9.1128    0.0000 H   0  0  0  0  0  0  0  0  0  0  0  0
   -1.9774  -10.5001    0.0000 H   0  0  0  0  0  0  0  0  0  0  0  0
   -3.1111  -12.0600    0.0000 H   0  0  0  0  0  0  0  0  0  0  0  0
   -4.8442  -11.2145    0.0000 C   0  0  2  0  0  0  0  0  0  0  0  0
   -6.3405  -11.3189    0.0000 H   0  0  0  0  0  0  0  0  0  0  0  0
   -5.4390   -8.8275    0.0000 C   0  0  0  0  0  0  0  0  0  0  0  0
   -4.3594   -7.7849    0.0000 C   0  0  0  0  0  0  0  0  0  0  0  0
   -4.7216   -6.3284    0.0000 C   0  0  0  0  0  0  0  0  0  0  0  0
   -6.1634   -5.9145    0.0000 C   0  0  0  0  0  0  0  0  0  0  0  0
   -6.5261   -4.4590    0.0000 H   0  0  0  0  0  0  0  0  0  0  0  0
   -7.2430   -6.9571    0.0000 C   0  0  0  0  0  0  0  0  0  0  0  0
   -8.6848   -6.5433    0.0000 H   0  0  0  0  0  0  0  0  0  0  0  0
   -6.8808   -8.4136    0.0000 C   0  0  0  0  0  0  0  0  0  0  0  0
   -7.9602   -9.4551    0.0000 Cl  0  0  0  0  0  0  0  0  0  0  0  0
   -3.6422   -5.2869    0.0000 F   0  0  0  0  0  0  0  0  0  0  0  0
   -2.9176   -8.1987    0.0000 Cl  0  0  0  0  0  0  0  0  0  0  0  0
   -5.0011  -12.7062    0.0000 O   0  0  0  0  0  0  0  0  0  0  0  0
   -3.7877  -13.5881    0.0000 C   0  0  0  0  0  0  0  0  0  0  0  0
   -2.4165  -12.9780    0.0000 C   0  0  0  0  0  0  0  0  0  0  0  0
   -2.2597  -11.4862    0.0000 H   0  0  0  0  0  0  0  0  0  0  0  0
   -1.2019  -13.8597    0.0000 C   0  0  0  0  0  0  0  0  0  0  0  0
   -1.3587  -15.3515    0.0000 C   0  0  0  0  0  0  0  0  0  0  0  0
   -0.1453  -16.2333    0.0000 H   0  0  0  0  0  0  0  0  0  0  0  0
   -2.7299  -15.9616    0.0000 N   0  0  0  0  0  0  0  0  0  0  0  0
   -3.9444  -15.0799    0.0000 C   0  0  0  0  0  0  0  0  0  0  0  0
   -5.3146  -15.6902    0.0000 N   0  0  0  0  0  0  0  0  0  0  0  0
   -5.4711  -17.1820    0.0000 H   0  0  0  0  0  0  0  0  0  0  0  0
   -6.5283  -14.8088    0.0000 H   0  0  0  0  0  0  0  0  0  0  0  0
   -2.8867  -17.4534    0.0000 O   0  0  0  0  0  0  0  0  0  0  0  0
    0.1683  -13.2494    0.0000 C   0  0  0  0  0  0  0  0  0  0  0  0
    1.4614  -13.9949    0.0000 C   0  0  0  0  0  0  0  0  0  0  0  0
    1.6141  -15.4871    0.0000 H   0  0  0  0  0  0  0  0  0  0  0  0
    2.5838  -12.9966    0.0000 N   0  0  0  0  0  0  0  0  0  0  0  0
    4.0509  -13.3088    0.0000 C   0  0  0  0  0  0  0  0  0  0  0  0
    4.1033  -11.8097    0.0000 H   0  0  0  0  0  0  0  0  0  0  0  0
    5.5371  -13.0997    0.0000 C   0  0  0  0  0  0  0  0  0  0  0  0
    5.0735  -11.6731    0.0000 H   0  0  0  0  0  0  0  0  0  0  0  0
    6.8615  -12.3955    0.0000 H   0  0  0  0  0  0  0  0  0  0  0  0
    6.4604  -14.2818    0.0000 C   0  0  0  0  0  0  0  0  0  0  0  0
    7.4644  -13.1673    0.0000 H   0  0  0  0  0  0  0  0  0  0  0  0
    7.7322  -15.0771    0.0000 H   0  0  0  0  0  0  0  0  0  0  0  0
    5.8976  -15.6731    0.0000 N   0  0  0  0  0  0  0  0  0  0  0  0
    6.8209  -16.8553    0.0000 H   0  0  0  0  0  0  0  0  0  0  0  0
    4.4114  -15.8823    0.0000 C   0  0  0  0  0  0  0  0  0  0  0  0
    4.8750  -17.3088    0.0000 H   0  0  0  0  0  0  0  0  0  0  0  0
    3.0870  -16.5864    0.0000 H   0  0  0  0  0  0  0  0  0  0  0  0
    3.4881  -14.7001    0.0000 C   0  0  0  0  0  0  0  0  0  0  0  0
    2.4841  -15.8146    0.0000 H   0  0  0  0  0  0  0  0  0  0  0  0
    2.2163  -13.9048    0.0000 H   0  0  0  0  0  0  0  0  0  0  0  0
    1.9651  -11.6279    0.0000 N   0  0  0  0  0  0  0  0  0  0  0  0
    0.4805  -11.7822    0.0000 C   0  0  0  0  0  0  0  0  0  0  0  0
   -0.5225  -10.6668    0.0000 H   0  0  0  0  0  0  0  0  0  0  0  0
  1  2  1  0  0  0  0 
  1  3  1  0  0  0  0 
  1  4  1  0  0  0  0 
  1  5  1  0  0  0  0 
  5  6  1  6  0  0  0 
  5  7  1  0  0  0  0 
  7  8  2  0  0  0  0 
  8  9  1  0  0  0  0 
  9 10  2  0  0  0  0 
 10 11  1  0  0  0  0 
 10 12  1  0  0  0  0 
 12 13  1  0  0  0  0 
 12 14  2  0  0  0  0 
  7 14  1  0  0  0  0 
 14 15  1  0  0  0  0 
  9 16  1  0  0  0  0 
  8 17  1  0  0  0  0 
  5 18  1  1  0  0  0 
 18 19  1  0  0  0  0 
 19 20  2  0  0  0  0 
 20 21  1  0  0  0  0 
 20 22  1  0  0  0  0 
 22 23  2  0  0  0  0 
 23 24  1  0  0  0  0 
 23 25  1  0  0  0  0 
 25 26  2  0  0  0  0 
 19 26  1  0  0  0  0 
 26 27  1  0  0  0  0 
 27 28  1  0  0  0  0 
 27 29  1  0  0  0  0 
 25 30  1  0  0  0  0 
 22 31  1  0  0  0  0 
 31 32  2  0  0  0  0 
 32 33  1  0  0  0  0 
 32 34  1  0  0  0  0 
 34 35  1  0  0  0  0 
 35 36  1  0  0  0  0 
 35 37  1  0  0  0  0 
 37 38  1  0  0  0  0 
 37 39  1  0  0  0  0 
 37 40  1  0  0  0  0 
 40 41  1  0  0  0  0 
 40 42  1  0  0  0  0 
 40 43  1  0  0  0  0 
 43 44  1  0  0  0  0 
 43 45  1  0  0  0  0 
 45 46  1  0  0  0  0 
 45 47  1  0  0  0  0 
 45 48  1  0  0  0  0 
 35 48  1  0  0  0  0 
 48 49  1  0  0  0  0 
 48 50  1  0  0  0  0 
 34 51  1  0  0  0  0 
 51 52  2  0  0  0  0 
 31 52  1  0  0  0  0 
 52 53  1  0  0  0  0 
M  CHG  1  25   1
M  CHG  1  30  -1
M  END
> <Rank>
26

> <Priority_score>
0.08

> <Reaction_type>
N-oxidation_(-N=)

> <Parent_ID>
51

> <Parent_InChI>
InChI=1S/C21H22Cl2FN5O/c1-12(19-16(22)2-3-17(24)20(19)23)30-18-8-13(9-27-21(18)25)14-10-28-29(11-14)15-4-6-26-7-5-15/h2-3,8-12,15,26H,4-7H2,1H3,(H2,25,27)

> <Parent_SMILES>
C[C@@H](Oc1cc(-c2cnn(C3CCNCC3)c2)cnc1N)c1c(Cl)ccc(F)c1Cl

$$$$
Molecule 51_metabolite 31
  CDK     0516241031

 73 77  0  0  0  0  0  0  0  0999 V2000
    2.8559   -6.6555    0.0000 C   0  0  0  0  0  0  0  0  0  0  0  0
    4.2802   -7.1259    0.0000 H   0  0  0  0  0  0  0  0  0  0  0  0
    2.6399   -8.1399    0.0000 H   0  0  0  0  0  0  0  0  0  0  0  0
    1.3565   -6.7006    0.0000 H   0  0  0  0  0  0  0  0  0  0  0  0
    2.2586   -3.7768    0.0000 C   0  0  2  0  0  0  0  0  0  0  0  0
    2.4745   -2.2924    0.0000 H   0  0  0  0  0  0  0  0  0  0  0  0
    4.2377   -3.7173    0.0000 C   0  0  0  0  0  0  0  0  0  0  0  0
    5.0270   -4.9938    0.0000 C   0  0  0  0  0  0  0  0  0  0  0  0
    6.5272   -4.9494    0.0000 C   0  0  0  0  0  0  0  0  0  0  0  0
    7.2380   -3.6286    0.0000 C   0  0  0  0  0  0  0  0  0  0  0  0
    8.7374   -3.5835    0.0000 H   0  0  0  0  0  0  0  0  0  0  0  0
    6.4487   -2.3521    0.0000 C   0  0  0  0  0  0  0  0  0  0  0  0
    7.1595   -1.0312    0.0000 H   0  0  0  0  0  0  0  0  0  0  0  0
    4.9485   -2.3964    0.0000 C   0  0  0  0  0  0  0  0  0  0  0  0
    4.1602   -1.1203    0.0000 Cl  0  0  0  0  0  0  0  0  0  0  0  0
    7.3155   -6.2256    0.0000 F   0  0  0  0  0  0  0  0  0  0  0  0
    4.3162   -6.3147    0.0000 Cl  0  0  0  0  0  0  0  0  0  0  0  0
    0.8343   -3.3064    0.0000 O   0  0  0  0  0  0  0  0  0  0  0  0
    0.5295   -1.8376    0.0000 C   0  0  0  0  0  0  0  0  0  0  0  0
   -0.8955   -1.3667    0.0000 C   0  0  0  0  0  0  0  0  0  0  0  0
   -2.0149   -2.3651    0.0000 H   0  0  0  0  0  0  0  0  0  0  0  0
   -1.2011    0.1027    0.0000 C   0  0  0  0  0  0  0  0  0  0  0  0
   -0.0817    1.1011    0.0000 C   0  0  0  0  0  0  0  0  0  0  0  0
   -0.3864    2.5699    0.0000 H   0  0  0  0  0  0  0  0  0  0  0  0
    1.3433    0.6302    0.0000 N   0  0  0  0  0  0  0  0  0  0  0  0
    1.6489   -0.8392    0.0000 C   0  0  0  0  0  0  0  0  0  0  0  0
    3.0734   -1.3092    0.0000 N   0  0  0  0  0  0  0  0  0  0  0  0
    4.1927   -0.3106    0.0000 H   0  0  0  0  0  0  0  0  0  0  0  0
    3.3786   -2.7778    0.0000 H   0  0  0  0  0  0  0  0  0  0  0  0
   -2.6256    0.5727    0.0000 C   0  0  0  0  0  0  0  0  0  0  0  0
   -3.0810    1.9942    0.0000 C   0  0  0  0  0  0  0  0  0  0  0  0
   -2.1903    3.2011    0.0000 H   0  0  0  0  0  0  0  0  0  0  0  0
   -4.5830    2.0104    0.0000 N   0  0  0  0  0  0  0  0  0  0  0  0
   -5.4586    3.2283    0.0000 C   0  0  0  0  0  0  0  0  0  0  0  0
   -6.5057    2.1543    0.0000 H   0  0  0  0  0  0  0  0  0  0  0  0
   -6.6990    4.0733    0.0000 C   0  0  0  0  0  0  0  0  0  0  0  0
   -7.3155    2.7058    0.0000 H   0  0  0  0  0  0  0  0  0  0  0  0
   -8.1527    4.4431    0.0000 H   0  0  0  0  0  0  0  0  0  0  0  0
   -6.5871    5.5691    0.0000 C   0  0  0  0  0  0  0  0  0  0  0  0
   -8.0797    5.4197    0.0000 H   0  0  0  0  0  0  0  0  0  0  0  0
   -6.9932    7.0130    0.0000 H   0  0  0  0  0  0  0  0  0  0  0  0
   -5.2348    6.2200    0.0000 N   0  0  0  0  0  0  0  0  0  0  0  0
   -5.1229    7.7158    0.0000 H   0  0  0  0  0  0  0  0  0  0  0  0
   -3.9944    5.3751    0.0000 C   0  0  0  0  0  0  0  0  0  0  0  0
   -3.3779    6.7425    0.0000 H   0  0  0  0  0  0  0  0  0  0  0  0
   -2.5407    5.0053    0.0000 H   0  0  0  0  0  0  0  0  0  0  0  0
   -4.1063    3.8792    0.0000 C   0  0  0  0  0  0  0  0  0  0  0  0
   -2.6137    4.0286    0.0000 H   0  0  0  0  0  0  0  0  0  0  0  0
   -3.7002    2.4353    0.0000 H   0  0  0  0  0  0  0  0  0  0  0  0
   -5.0459    0.5815    0.0000 N   0  0  0  0  0  0  0  0  0  0  0  0
   -3.8435   -0.3029    0.0000 C   0  0  0  0  0  0  0  0  0  0  0  0
   -3.8516   -1.8029    0.0000 H   0  0  0  0  0  0  0  0  0  0  0  0
   -6.9305   -0.0257    0.0000 C   0  0  0  0  0  0  0  0  0  0  0  0
   -7.1357    1.4602    0.0000 H   0  0  0  0  0  0  0  0  0  0  0  0
   -8.4295    0.0301    0.0000 C   0  0  0  0  0  0  0  0  0  0  0  0
   -8.1144    1.4966    0.0000 H   0  0  0  0  0  0  0  0  0  0  0  0
   -9.2273   -1.2411    0.0000 C   0  0  0  0  0  0  0  0  0  0  0  0
  -10.3398   -0.2350    0.0000 H   0  0  0  0  0  0  0  0  0  0  0  0
   -8.5261   -2.5681    0.0000 C   0  0  0  0  0  0  0  0  0  0  0  0
   -9.9539   -3.0281    0.0000 H   0  0  0  0  0  0  0  0  0  0  0  0
   -7.0272   -2.6239    0.0000 C   0  0  0  0  0  0  0  0  0  0  0  0
   -7.3422   -4.0904    0.0000 H   0  0  0  0  0  0  0  0  0  0  0  0
   -5.6376   -3.1887    0.0000 C   0  0  0  0  0  0  0  0  0  0  0  0
   -4.4536   -2.2676    0.0000 O   0  0  0  0  0  0  0  0  0  0  0  0
   -5.4319   -4.6745    0.0000 O   0  0  0  0  0  0  0  0  0  0  0  0
   -6.6158   -5.5955    0.0000 H   0  0  0  0  0  0  0  0  0  0  0  0
   -6.2294   -1.3527    0.0000 O   0  0  0  0  0  0  0  0  0  0  0  0
   -8.3209   -4.0540    0.0000 O   0  0  0  0  0  0  0  0  0  0  0  0
   -9.5051   -4.9747    0.0000 H   0  0  0  0  0  0  0  0  0  0  0  0
  -10.4115   -2.1618    0.0000 O   0  0  0  0  0  0  0  0  0  0  0  0
  -11.8009   -1.5966    0.0000 H   0  0  0  0  0  0  0  0  0  0  0  0
   -9.8191    0.5949    0.0000 O   0  0  0  0  0  0  0  0  0  0  0  0
  -10.0248    2.0807    0.0000 H   0  0  0  0  0  0  0  0  0  0  0  0
  1  2  1  0  0  0  0 
  1  3  1  0  0  0  0 
  1  4  1  0  0  0  0 
  1  5  1  0  0  0  0 
  5  6  1  6  0  0  0 
  5  7  1  0  0  0  0 
  7  8  2  0  0  0  0 
  8  9  1  0  0  0  0 
  9 10  2  0  0  0  0 
 10 11  1  0  0  0  0 
 10 12  1  0  0  0  0 
 12 13  1  0  0  0  0 
 12 14  2  0  0  0  0 
  7 14  1  0  0  0  0 
 14 15  1  0  0  0  0 
  9 16  1  0  0  0  0 
  8 17  1  0  0  0  0 
  5 18  1  1  0  0  0 
 18 19  1  0  0  0  0 
 19 20  2  0  0  0  0 
 20 21  1  0  0  0  0 
 20 22  1  0  0  0  0 
 22 23  2  0  0  0  0 
 23 24  1  0  0  0  0 
 23 25  1  0  0  0  0 
 25 26  2  0  0  0  0 
 19 26  1  0  0  0  0 
 26 27  1  0  0  0  0 
 27 28  1  0  0  0  0 
 27 29  1  0  0  0  0 
 22 30  1  0  0  0  0 
 30 31  2  0  0  0  0 
 31 32  1  0  0  0  0 
 31 33  1  0  0  0  0 
 33 34  1  0  0  0  0 
 34 35  1  0  0  0  0 
 34 36  1  0  0  0  0 
 36 37  1  0  0  0  0 
 36 38  1  0  0  0  0 
 36 39  1  0  0  0  0 
 39 40  1  0  0  0  0 
 39 41  1  0  0  0  0 
 39 42  1  0  0  0  0 
 42 43  1  0  0  0  0 
 42 44  1  0  0  0  0 
 44 45  1  0  0  0  0 
 44 46  1  0  0  0  0 
 44 47  1  0  0  0  0 
 34 47  1  0  0  0  0 
 47 48  1  0  0  0  0 
 47 49  1  0  0  0  0 
 33 50  1  0  0  0  0 
 50 51  2  0  0  0  0 
 30 51  1  0  0  0  0 
 51 52  1  0  0  0  0 
 50 53  1  0  0  0  0 
 53 54  1  0  0  0  0 
 53 55  1  0  0  0  0 
 55 56  1  0  0  0  0 
 55 57  1  0  0  0  0 
 57 58  1  0  0  0  0 
 57 59  1  0  0  0  0 
 59 60  1  0  0  0  0 
 59 61  1  0  0  0  0 
 61 62  1  0  0  0  0 
 61 63  1  0  0  0  0 
 63 64  2  0  0  0  0 
 63 65  1  0  0  0  0 
 65 66  1  0  0  0  0 
 61 67  1  0  0  0  0 
 53 67  1  0  0  0  0 
 59 68  1  0  0  0  0 
 68 69  1  0  0  0  0 
 57 70  1  0  0  0  0 
 70 71  1  0  0  0  0 
 55 72  1  0  0  0  0 
 72 73  1  0  0  0  0 
M  CHG  1  50   1
M  END
> <Rank>
31

> <Priority_score>
0.076

> <Reaction_type>
N-glucuronidation_(aromatic_=n-)

> <Parent_ID>
51

> <Parent_InChI>
InChI=1S/C21H22Cl2FN5O/c1-12(19-16(22)2-3-17(24)20(19)23)30-18-8-13(9-27-21(18)25)14-10-28-29(11-14)15-4-6-26-7-5-15/h2-3,8-12,15,26H,4-7H2,1H3,(H2,25,27)

> <Parent_SMILES>
C[C@@H](Oc1cc(-c2cnn(C3CCNCC3)c2)cnc1N)c1c(Cl)ccc(F)c1Cl

$$$$
Molecule 51_metabolite 32
  CDK     0516241031

 53 56  0  0  0  0  0  0  0  0999 V2000
    3.1987   -1.3622    0.0000 C   0  0  0  0  0  0  0  0  0  0  0  0
    4.4122   -2.2440    0.0000 H   0  0  0  0  0  0  0  0  0  0  0  0
    4.2779   -0.3204    0.0000 H   0  0  0  0  0  0  0  0  0  0  0  0
    2.3601   -0.1186    0.0000 H   0  0  0  0  0  0  0  0  0  0  0  0
    1.8283   -1.9721    0.0000 C   0  0  2  0  0  0  0  0  0  0  0  0
    0.7492   -3.0140    0.0000 H   0  0  0  0  0  0  0  0  0  0  0  0
    2.9353   -3.6138    0.0000 C   0  0  0  0  0  0  0  0  0  0  0  0
    4.4326   -3.5095    0.0000 C   0  0  0  0  0  0  0  0  0  0  0  0
    5.2723   -4.7534    0.0000 C   0  0  0  0  0  0  0  0  0  0  0  0
    4.6148   -6.1017    0.0000 C   0  0  0  0  0  0  0  0  0  0  0  0
    5.4534   -7.3453    0.0000 H   0  0  0  0  0  0  0  0  0  0  0  0
    3.1175   -6.2059    0.0000 C   0  0  0  0  0  0  0  0  0  0  0  0
    2.4600   -7.5542    0.0000 H   0  0  0  0  0  0  0  0  0  0  0  0
    2.2778   -4.9620    0.0000 C   0  0  0  0  0  0  0  0  0  0  0  0
    0.7815   -5.0669    0.0000 Cl  0  0  0  0  0  0  0  0  0  0  0  0
    6.7686   -4.6485    0.0000 F   0  0  0  0  0  0  0  0  0  0  0  0
    5.5109   -1.2984    0.0000 Cl  0  0  0  0  0  0  0  0  0  0  0  0
    0.6149   -1.0903    0.0000 O   0  0  0  0  0  0  0  0  0  0  0  0
   -0.7555   -1.7003    0.0000 C   0  0  0  0  0  0  0  0  0  0  0  0
   -1.9697   -0.8181    0.0000 C   0  0  0  0  0  0  0  0  0  0  0  0
   -1.8125    0.6736    0.0000 H   0  0  0  0  0  0  0  0  0  0  0  0
   -3.3411   -1.4278    0.0000 C   0  0  0  0  0  0  0  0  0  0  0  0
   -3.4984   -2.9195    0.0000 C   0  0  0  0  0  0  0  0  0  0  0  0
   -4.8688   -3.5294    0.0000 H   0  0  0  0  0  0  0  0  0  0  0  0
   -2.2841   -3.8016    0.0000 N   0  0  0  0  0  0  0  0  0  0  0  0
   -0.9127   -3.1920    0.0000 C   0  0  0  0  0  0  0  0  0  0  0  0
    0.3005   -4.0742    0.0000 N   0  0  0  0  0  0  0  0  0  0  0  0
    0.1430   -5.5659    0.0000 H   0  0  0  0  0  0  0  0  0  0  0  0
    1.6710   -3.4647    0.0000 H   0  0  0  0  0  0  0  0  0  0  0  0
   -4.5543   -0.5455    0.0000 C   0  0  0  0  0  0  0  0  0  0  0  0
   -5.9743   -1.0055    0.0000 C   0  0  0  0  0  0  0  0  0  0  0  0
   -6.4343   -2.4333    0.0000 H   0  0  0  0  0  0  0  0  0  0  0  0
   -6.8643    0.2045    0.0000 N   0  0  0  0  0  0  0  0  0  0  0  0
   -8.3643    0.2045    0.0000 C   0  0  0  0  0  0  0  0  0  0  0  0
   -8.1035    1.6816    0.0000 H   0  0  0  0  0  0  0  0  0  0  0  0
   -9.7744    0.7184    0.0000 C   0  0  0  0  0  0  0  0  0  0  0  0
   -9.0240    2.0172    0.0000 H   0  0  0  0  0  0  0  0  0  0  0  0
  -10.9232    1.6828    0.0000 H   0  0  0  0  0  0  0  0  0  0  0  0
  -10.9236   -0.2457    0.0000 C   0  0  0  0  0  0  0  0  0  0  0  0
  -11.6736    1.0534    0.0000 H   0  0  0  0  0  0  0  0  0  0  0  0
  -12.3330   -0.7589    0.0000 H   0  0  0  0  0  0  0  0  0  0  0  0
  -10.6626   -1.7237    0.0000 N   0  0  0  0  0  0  0  0  0  0  0  0
  -11.8118   -2.6877    0.0000 H   0  0  0  0  0  0  0  0  0  0  0  0
   -9.2525   -2.2376    0.0000 C   0  0  0  0  0  0  0  0  0  0  0  0
  -10.0029   -3.5364    0.0000 H   0  0  0  0  0  0  0  0  0  0  0  0
   -8.1037   -3.2020    0.0000 H   0  0  0  0  0  0  0  0  0  0  0  0
   -8.1034   -1.2735    0.0000 C   0  0  0  0  0  0  0  0  0  0  0  0
   -7.3534   -2.5726    0.0000 H   0  0  0  0  0  0  0  0  0  0  0  0
   -6.6939   -0.7603    0.0000 H   0  0  0  0  0  0  0  0  0  0  0  0
   -5.9743    1.4145    0.0000 N   0  0  0  0  0  0  0  0  0  0  0  0
   -4.5543    0.9545    0.0000 C   0  0  0  0  0  0  0  0  0  0  0  0
   -3.3411    1.8367    0.0000 O   0  0  0  0  0  0  0  0  0  0  0  0
   -3.4986    3.3284    0.0000 H   0  0  0  0  0  0  0  0  0  0  0  0
  1  2  1  0  0  0  0 
  1  3  1  0  0  0  0 
  1  4  1  0  0  0  0 
  1  5  1  0  0  0  0 
  5  6  1  1  0  0  0 
  5  7  1  0  0  0  0 
  7  8  2  0  0  0  0 
  8  9  1  0  0  0  0 
  9 10  2  0  0  0  0 
 10 11  1  0  0  0  0 
 10 12  1  0  0  0  0 
 12 13  1  0  0  0  0 
 12 14  2  0  0  0  0 
  7 14  1  0  0  0  0 
 14 15  1  0  0  0  0 
  9 16  1  0  0  0  0 
  8 17  1  0  0  0  0 
  5 18  1  6  0  0  0 
 18 19  1  0  0  0  0 
 19 20  2  0  0  0  0 
 20 21  1  0  0  0  0 
 20 22  1  0  0  0  0 
 22 23  2  0  0  0  0 
 23 24  1  0  0  0  0 
 23 25  1  0  0  0  0 
 25 26  2  0  0  0  0 
 19 26  1  0  0  0  0 
 26 27  1  0  0  0  0 
 27 28  1  0  0  0  0 
 27 29  1  0  0  0  0 
 22 30  1  0  0  0  0 
 30 31  2  0  0  0  0 
 31 32  1  0  0  0  0 
 31 33  1  0  0  0  0 
 33 34  1  0  0  0  0 
 34 35  1  0  0  0  0 
 34 36  1  0  0  0  0 
 36 37  1  0  0  0  0 
 36 38  1  0  0  0  0 
 36 39  1  0  0  0  0 
 39 40  1  0  0  0  0 
 39 41  1  0  0  0  0 
 39 42  1  0  0  0  0 
 42 43  1  0  0  0  0 
 42 44  1  0  0  0  0 
 44 45  1  0  0  0  0 
 44 46  1  0  0  0  0 
 44 47  1  0  0  0  0 
 34 47  1  0  0  0  0 
 47 48  1  0  0  0  0 
 47 49  1  0  0  0  0 
 33 50  1  0  0  0  0 
 50 51  2  0  0  0  0 
 30 51  1  0  0  0  0 
 51 52  1  0  0  0  0 
 52 53  1  0  0  0  0 
M  END
> <Rank>
32

> <Priority_score>
0.068

> <Reaction_type>
aromatic hydroxylation

> <Parent_ID>
51

> <Parent_InChI>
InChI=1S/C21H22Cl2FN5O/c1-12(19-16(22)2-3-17(24)20(19)23)30-18-8-13(9-27-21(18)25)14-10-28-29(11-14)15-4-6-26-7-5-15/h2-3,8-12,15,26H,4-7H2,1H3,(H2,25,27)

> <Parent_SMILES>
C[C@@H](Oc1cc(-c2cnn(C3CCNCC3)c2)cnc1N)c1c(Cl)ccc(F)c1Cl

$$$$
Molecule 51_metabolite 33
  CDK     0516241031

 73 77  0  0  0  0  0  0  0  0999 V2000
   -0.1528   -8.9916    0.0000 C   0  0  0  0  0  0  0  0  0  0  0  0
    1.2890   -9.4053    0.0000 H   0  0  0  0  0  0  0  0  0  0  0  0
   -0.3098  -10.4834    0.0000 H   0  0  0  0  0  0  0  0  0  0  0  0
   -1.6492   -9.0961    0.0000 H   0  0  0  0  0  0  0  0  0  0  0  0
   -0.5155   -7.5361    0.0000 C   0  0  2  0  0  0  0  0  0  0  0  0
   -0.3586   -6.0444    0.0000 H   0  0  0  0  0  0  0  0  0  0  0  0
    1.9385   -7.3648    0.0000 C   0  0  0  0  0  0  0  0  0  0  0  0
    2.7778   -8.6091    0.0000 C   0  0  0  0  0  0  0  0  0  0  0  0
    4.2750   -8.5053    0.0000 C   0  0  0  0  0  0  0  0  0  0  0  0
    4.9330   -7.1573    0.0000 C   0  0  0  0  0  0  0  0  0  0  0  0
    6.4293   -7.0528    0.0000 H   0  0  0  0  0  0  0  0  0  0  0  0
    4.0937   -5.9130    0.0000 C   0  0  0  0  0  0  0  0  0  0  0  0
    4.7516   -4.5650    0.0000 H   0  0  0  0  0  0  0  0  0  0  0  0
    2.5964   -6.0168    0.0000 C   0  0  0  0  0  0  0  0  0  0  0  0
    1.7582   -4.7729    0.0000 Cl  0  0  0  0  0  0  0  0  0  0  0  0
    5.1133   -9.7492    0.0000 F   0  0  0  0  0  0  0  0  0  0  0  0
    2.1198   -9.9571    0.0000 Cl  0  0  0  0  0  0  0  0  0  0  0  0
   -1.9574   -7.1225    0.0000 O   0  0  0  0  0  0  0  0  0  0  0  0
   -3.0365   -8.1644    0.0000 C   0  0  0  0  0  0  0  0  0  0  0  0
   -2.6739   -9.6207    0.0000 C   0  0  0  0  0  0  0  0  0  0  0  0
   -1.2319  -10.0341    0.0000 H   0  0  0  0  0  0  0  0  0  0  0  0
   -3.7531  -10.6637    0.0000 C   0  0  0  0  0  0  0  0  0  0  0  0
   -5.1950  -10.2503    0.0000 C   0  0  0  0  0  0  0  0  0  0  0  0
   -6.2741  -11.2921    0.0000 H   0  0  0  0  0  0  0  0  0  0  0  0
   -5.5577   -8.7939    0.0000 N   0  0  0  0  0  0  0  0  0  0  0  0
   -4.4784   -7.7510    0.0000 C   0  0  0  0  0  0  0  0  0  0  0  0
   -4.8416   -6.2956    0.0000 N   0  0  0  0  0  0  0  0  0  0  0  0
   -6.2836   -5.8824    0.0000 H   0  0  0  0  0  0  0  0  0  0  0  0
   -3.7628   -5.2534    0.0000 H   0  0  0  0  0  0  0  0  0  0  0  0
   -7.4610   -8.2482    0.0000 C   0  0  0  0  0  0  0  0  0  0  0  0
   -7.3565   -9.7446    0.0000 H   0  0  0  0  0  0  0  0  0  0  0  0
   -8.9165   -8.6109    0.0000 C   0  0  0  0  0  0  0  0  0  0  0  0
   -8.3068   -9.9814    0.0000 H   0  0  0  0  0  0  0  0  0  0  0  0
   -9.9585   -7.5307    0.0000 C   0  0  0  0  0  0  0  0  0  0  0  0
  -10.8405   -8.7440    0.0000 H   0  0  0  0  0  0  0  0  0  0  0  0
   -9.5451   -6.0880    0.0000 C   0  0  0  0  0  0  0  0  0  0  0  0
  -11.0368   -5.9313    0.0000 H   0  0  0  0  0  0  0  0  0  0  0  0
   -8.0895   -5.7254    0.0000 C   0  0  0  0  0  0  0  0  0  0  0  0
   -8.6993   -4.3549    0.0000 H   0  0  0  0  0  0  0  0  0  0  0  0
   -6.8457   -4.8871    0.0000 C   0  0  0  0  0  0  0  0  0  0  0  0
   -5.4977   -5.5451    0.0000 O   0  0  0  0  0  0  0  0  0  0  0  0
   -6.9497   -3.3907    0.0000 O   0  0  0  0  0  0  0  0  0  0  0  0
   -8.2977   -2.7326    0.0000 H   0  0  0  0  0  0  0  0  0  0  0  0
   -7.0475   -6.8055    0.0000 O   0  0  0  0  0  0  0  0  0  0  0  0
   -9.6496   -4.5916    0.0000 O   0  0  0  0  0  0  0  0  0  0  0  0
  -10.9977   -3.9340    0.0000 H   0  0  0  0  0  0  0  0  0  0  0  0
  -11.3067   -6.8731    0.0000 O   0  0  0  0  0  0  0  0  0  0  0  0
  -12.5503   -7.7118    0.0000 H   0  0  0  0  0  0  0  0  0  0  0  0
  -10.1604   -9.4492    0.0000 O   0  0  0  0  0  0  0  0  0  0  0  0
  -10.0563  -10.9456    0.0000 H   0  0  0  0  0  0  0  0  0  0  0  0
   -3.3899  -12.1191    0.0000 C   0  0  0  0  0  0  0  0  0  0  0  0
   -4.3486  -13.2631    0.0000 C   0  0  0  0  0  0  0  0  0  0  0  0
   -5.8447  -13.1544    0.0000 H   0  0  0  0  0  0  0  0  0  0  0  0
   -3.5605  -14.5418    0.0000 N   0  0  0  0  0  0  0  0  0  0  0  0
   -4.1227  -15.9324    0.0000 C   0  0  0  0  0  0  0  0  0  0  0  0
   -2.6555  -16.2443    0.0000 H   0  0  0  0  0  0  0  0  0  0  0  0
   -4.1748  -17.4323    0.0000 C   0  0  0  0  0  0  0  0  0  0  0  0
   -2.6894  -17.2234    0.0000 H   0  0  0  0  0  0  0  0  0  0  0  0
   -3.7113  -18.8589    0.0000 H   0  0  0  0  0  0  0  0  0  0  0  0
   -5.4993  -18.1364    0.0000 C   0  0  0  0  0  0  0  0  0  0  0  0
   -4.5761  -19.3186    0.0000 H   0  0  0  0  0  0  0  0  0  0  0  0
   -6.5034  -19.2507    0.0000 H   0  0  0  0  0  0  0  0  0  0  0  0
   -6.7717  -17.3405    0.0000 N   0  0  0  0  0  0  0  0  0  0  0  0
   -8.0963  -18.0445    0.0000 H   0  0  0  0  0  0  0  0  0  0  0  0
   -6.7196  -15.8405    0.0000 C   0  0  0  0  0  0  0  0  0  0  0  0
   -8.2050  -16.0494    0.0000 H   0  0  0  0  0  0  0  0  0  0  0  0
   -7.1831  -14.4139    0.0000 H   0  0  0  0  0  0  0  0  0  0  0  0
   -5.3951  -15.1365    0.0000 C   0  0  0  0  0  0  0  0  0  0  0  0
   -6.3183  -13.9543    0.0000 H   0  0  0  0  0  0  0  0  0  0  0  0
   -4.3910  -14.0221    0.0000 H   0  0  0  0  0  0  0  0  0  0  0  0
   -2.1051  -14.1702    0.0000 N   0  0  0  0  0  0  0  0  0  0  0  0
   -1.9993  -12.6813    0.0000 C   0  0  0  0  0  0  0  0  0  0  0  0
   -0.7267  -11.8873    0.0000 H   0  0  0  0  0  0  0  0  0  0  0  0
  1  2  1  0  0  0  0 
  1  3  1  0  0  0  0 
  1  4  1  0  0  0  0 
  1  5  1  0  0  0  0 
  5  6  1  6  0  0  0 
  5  7  1  0  0  0  0 
  7  8  2  0  0  0  0 
  8  9  1  0  0  0  0 
  9 10  2  0  0  0  0 
 10 11  1  0  0  0  0 
 10 12  1  0  0  0  0 
 12 13  1  0  0  0  0 
 12 14  2  0  0  0  0 
  7 14  1  0  0  0  0 
 14 15  1  0  0  0  0 
  9 16  1  0  0  0  0 
  8 17  1  0  0  0  0 
  5 18  1  1  0  0  0 
 18 19  1  0  0  0  0 
 19 20  2  0  0  0  0 
 20 21  1  0  0  0  0 
 20 22  1  0  0  0  0 
 22 23  2  0  0  0  0 
 23 24  1  0  0  0  0 
 23 25  1  0  0  0  0 
 25 26  2  0  0  0  0 
 19 26  1  0  0  0  0 
 26 27  1  0  0  0  0 
 27 28  1  0  0  0  0 
 27 29  1  0  0  0  0 
 25 30  1  0  0  0  0 
 30 31  1  0  0  0  0 
 30 32  1  0  0  0  0 
 32 33  1  0  0  0  0 
 32 34  1  0  0  0  0 
 34 35  1  0  0  0  0 
 34 36  1  0  0  0  0 
 36 37  1  0  0  0  0 
 36 38  1  0  0  0  0 
 38 39  1  0  0  0  0 
 38 40  1  0  0  0  0 
 40 41  2  0  0  0  0 
 40 42  1  0  0  0  0 
 42 43  1  0  0  0  0 
 38 44  1  0  0  0  0 
 30 44  1  0  0  0  0 
 36 45  1  0  0  0  0 
 45 46  1  0  0  0  0 
 34 47  1  0  0  0  0 
 47 48  1  0  0  0  0 
 32 49  1  0  0  0  0 
 49 50  1  0  0  0  0 
 22 51  1  0  0  0  0 
 51 52  2  0  0  0  0 
 52 53  1  0  0  0  0 
 52 54  1  0  0  0  0 
 54 55  1  0  0  0  0 
 55 56  1  0  0  0  0 
 55 57  1  0  0  0  0 
 57 58  1  0  0  0  0 
 57 59  1  0  0  0  0 
 57 60  1  0  0  0  0 
 60 61  1  0  0  0  0 
 60 62  1  0  0  0  0 
 60 63  1  0  0  0  0 
 63 64  1  0  0  0  0 
 63 65  1  0  0  0  0 
 65 66  1  0  0  0  0 
 65 67  1  0  0  0  0 
 65 68  1  0  0  0  0 
 55 68  1  0  0  0  0 
 68 69  1  0  0  0  0 
 68 70  1  0  0  0  0 
 54 71  1  0  0  0  0 
 71 72  2  0  0  0  0 
 51 72  1  0  0  0  0 
 72 73  1  0  0  0  0 
M  CHG  1  25   1
M  END
> <Rank>
32

> <Priority_score>
0.068

> <Reaction_type>
N-glucuronidation_(aromatic_=n-)

> <Parent_ID>
51

> <Parent_InChI>
InChI=1S/C21H22Cl2FN5O/c1-12(19-16(22)2-3-17(24)20(19)23)30-18-8-13(9-27-21(18)25)14-10-28-29(11-14)15-4-6-26-7-5-15/h2-3,8-12,15,26H,4-7H2,1H3,(H2,25,27)

> <Parent_SMILES>
C[C@@H](Oc1cc(-c2cnn(C3CCNCC3)c2)cnc1N)c1c(Cl)ccc(F)c1Cl

$$$$
Molecule 51_metabolite 34
  CDK     0516241031

 53 56  0  0  0  0  0  0  0  0999 V2000
   -1.4455   -8.4952    0.0000 C   0  0  0  0  0  0  0  0  0  0  0  0
   -2.6589   -9.3770    0.0000 H   0  0  0  0  0  0  0  0  0  0  0  0
   -0.7878   -9.8433    0.0000 H   0  0  0  0  0  0  0  0  0  0  0  0
   -0.0036   -8.0815    0.0000 H   0  0  0  0  0  0  0  0  0  0  0  0
   -1.6025   -7.0034    0.0000 C   0  0  2  0  0  0  0  0  0  0  0  0
   -2.2602   -5.6553    0.0000 H   0  0  0  0  0  0  0  0  0  0  0  0
   -3.9671   -7.6818    0.0000 C   0  0  0  0  0  0  0  0  0  0  0  0
   -4.3302   -9.1380    0.0000 C   0  0  0  0  0  0  0  0  0  0  0  0
   -5.7727   -9.5525    0.0000 C   0  0  0  0  0  0  0  0  0  0  0  0
   -6.8520   -8.5109    0.0000 C   0  0  0  0  0  0  0  0  0  0  0  0
   -8.2938   -8.9245    0.0000 H   0  0  0  0  0  0  0  0  0  0  0  0
   -6.4888   -7.0546    0.0000 C   0  0  0  0  0  0  0  0  0  0  0  0
   -7.5681   -6.0129    0.0000 H   0  0  0  0  0  0  0  0  0  0  0  0
   -5.0464   -6.6401    0.0000 C   0  0  0  0  0  0  0  0  0  0  0  0
   -4.6841   -5.1845    0.0000 Cl  0  0  0  0  0  0  0  0  0  0  0  0
   -6.1349  -11.0082    0.0000 F   0  0  0  0  0  0  0  0  0  0  0  0
   -3.2509  -10.1797    0.0000 Cl  0  0  0  0  0  0  0  0  0  0  0  0
   -0.3890   -6.1216    0.0000 O   0  0  0  0  0  0  0  0  0  0  0  0
    0.9814   -6.7315    0.0000 C   0  0  0  0  0  0  0  0  0  0  0  0
    1.1387   -8.2241    0.0000 C   0  0  0  0  0  0  0  0  0  0  0  0
   -0.0749   -9.1057    0.0000 H   0  0  0  0  0  0  0  0  0  0  0  0
    2.5095   -8.8350    0.0000 C   0  0  0  0  0  0  0  0  0  0  0  0
    3.7231   -7.9534    0.0000 C   0  0  0  0  0  0  0  0  0  0  0  0
    5.0935   -8.5633    0.0000 H   0  0  0  0  0  0  0  0  0  0  0  0
    3.5658   -6.4608    0.0000 N   0  0  0  0  0  0  0  0  0  0  0  0
    2.1949   -5.8499    0.0000 C   0  0  0  0  0  0  0  0  0  0  0  0
    2.0384   -4.3581    0.0000 N   0  0  0  0  0  0  0  0  0  0  0  0
    3.2521   -3.4766    0.0000 H   0  0  0  0  0  0  0  0  0  0  0  0
    0.6682   -3.7477    0.0000 H   0  0  0  0  0  0  0  0  0  0  0  0
    2.6660  -10.3268    0.0000 C   0  0  0  0  0  0  0  0  0  0  0  0
    3.9582  -11.0740    0.0000 C   0  0  0  0  0  0  0  0  0  0  0  0
    3.6549  -12.5451    0.0000 N   0  0  0  0  0  0  0  0  0  0  0  0
    4.6588  -13.6596    0.0000 C   0  0  0  0  0  0  0  0  0  0  0  0
    5.5818  -12.4771    0.0000 H   0  0  0  0  0  0  0  0  0  0  0  0
    5.9845  -14.3633    0.0000 C   0  0  0  0  0  0  0  0  0  0  0  0
    6.4472  -12.9364    0.0000 H   0  0  0  0  0  0  0  0  0  0  0  0
    7.4700  -14.5714    0.0000 H   0  0  0  0  0  0  0  0  0  0  0  0
    6.0373  -15.8624    0.0000 C   0  0  0  0  0  0  0  0  0  0  0  0
    7.5045  -15.5501    0.0000 H   0  0  0  0  0  0  0  0  0  0  0  0
    6.5994  -17.2531    0.0000 H   0  0  0  0  0  0  0  0  0  0  0  0
    4.7646  -16.6577    0.0000 N   0  0  0  0  0  0  0  0  0  0  0  0
    4.8175  -18.1568    0.0000 H   0  0  0  0  0  0  0  0  0  0  0  0
    3.4390  -15.9540    0.0000 C   0  0  0  0  0  0  0  0  0  0  0  0
    2.9762  -17.3808    0.0000 H   0  0  0  0  0  0  0  0  0  0  0  0
    1.9535  -15.7459    0.0000 H   0  0  0  0  0  0  0  0  0  0  0  0
    3.3861  -14.4549    0.0000 C   0  0  0  0  0  0  0  0  0  0  0  0
    1.9189  -14.7672    0.0000 H   0  0  0  0  0  0  0  0  0  0  0  0
    2.8240  -13.0642    0.0000 H   0  0  0  0  0  0  0  0  0  0  0  0
    2.1602  -12.6937    0.0000 N   0  0  0  0  0  0  0  0  0  0  0  0
    1.5515  -11.3308    0.0000 C   0  0  0  0  0  0  0  0  0  0  0  0
    0.0841  -11.0199    0.0000 H   0  0  0  0  0  0  0  0  0  0  0  0
    5.3268  -10.4601    0.0000 O   0  0  0  0  0  0  0  0  0  0  0  0
    6.5428  -11.3385    0.0000 H   0  0  0  0  0  0  0  0  0  0  0  0
  1  2  1  0  0  0  0 
  1  3  1  0  0  0  0 
  1  4  1  0  0  0  0 
  1  5  1  0  0  0  0 
  5  6  1  1  0  0  0 
  5  7  1  0  0  0  0 
  7  8  2  0  0  0  0 
  8  9  1  0  0  0  0 
  9 10  2  0  0  0  0 
 10 11  1  0  0  0  0 
 10 12  1  0  0  0  0 
 12 13  1  0  0  0  0 
 12 14  2  0  0  0  0 
  7 14  1  0  0  0  0 
 14 15  1  0  0  0  0 
  9 16  1  0  0  0  0 
  8 17  1  0  0  0  0 
  5 18  1  6  0  0  0 
 18 19  1  0  0  0  0 
 19 20  2  0  0  0  0 
 20 21  1  0  0  0  0 
 20 22  1  0  0  0  0 
 22 23  2  0  0  0  0 
 23 24  1  0  0  0  0 
 23 25  1  0  0  0  0 
 25 26  2  0  0  0  0 
 19 26  1  0  0  0  0 
 26 27  1  0  0  0  0 
 27 28  1  0  0  0  0 
 27 29  1  0  0  0  0 
 22 30  1  0  0  0  0 
 30 31  2  0  0  0  0 
 31 32  1  0  0  0  0 
 32 33  1  0  0  0  0 
 33 34  1  0  0  0  0 
 33 35  1  0  0  0  0 
 35 36  1  0  0  0  0 
 35 37  1  0  0  0  0 
 35 38  1  0  0  0  0 
 38 39  1  0  0  0  0 
 38 40  1  0  0  0  0 
 38 41  1  0  0  0  0 
 41 42  1  0  0  0  0 
 41 43  1  0  0  0  0 
 43 44  1  0  0  0  0 
 43 45  1  0  0  0  0 
 43 46  1  0  0  0  0 
 33 46  1  0  0  0  0 
 46 47  1  0  0  0  0 
 46 48  1  0  0  0  0 
 32 49  1  0  0  0  0 
 49 50  2  0  0  0  0 
 30 50  1  0  0  0  0 
 50 51  1  0  0  0  0 
 31 52  1  0  0  0  0 
 52 53  1  0  0  0  0 
M  END
> <Rank>
32

> <Priority_score>
0.068

> <Reaction_type>
aromatic hydroxylation

> <Parent_ID>
51

> <Parent_InChI>
InChI=1S/C21H22Cl2FN5O/c1-12(19-16(22)2-3-17(24)20(19)23)30-18-8-13(9-27-21(18)25)14-10-28-29(11-14)15-4-6-26-7-5-15/h2-3,8-12,15,26H,4-7H2,1H3,(H2,25,27)

> <Parent_SMILES>
C[C@@H](Oc1cc(-c2cnn(C3CCNCC3)c2)cnc1N)c1c(Cl)ccc(F)c1Cl

$$$$
Molecule 51_metabolite 35
  CDK     0516241031

 53 56  0  0  0  0  0  0  0  0999 V2000
   -3.4015  -10.6768    0.0000 C   0  0  0  0  0  0  0  0  0  0  0  0
   -3.2445   -9.1851    0.0000 H   0  0  0  0  0  0  0  0  0  0  0  0
   -1.9051  -10.5724    0.0000 H   0  0  0  0  0  0  0  0  0  0  0  0
   -3.0388  -12.1323    0.0000 H   0  0  0  0  0  0  0  0  0  0  0  0
   -4.7719  -11.2868    0.0000 C   0  0  2  0  0  0  0  0  0  0  0  0
   -6.2682  -11.3912    0.0000 H   0  0  0  0  0  0  0  0  0  0  0  0
   -5.3667   -8.8998    0.0000 C   0  0  0  0  0  0  0  0  0  0  0  0
   -4.2871   -7.8571    0.0000 C   0  0  0  0  0  0  0  0  0  0  0  0
   -4.6494   -6.4007    0.0000 C   0  0  0  0  0  0  0  0  0  0  0  0
   -6.0911   -5.9868    0.0000 C   0  0  0  0  0  0  0  0  0  0  0  0
   -6.4538   -4.5313    0.0000 H   0  0  0  0  0  0  0  0  0  0  0  0
   -7.1707   -7.0294    0.0000 C   0  0  0  0  0  0  0  0  0  0  0  0
   -8.6125   -6.6156    0.0000 H   0  0  0  0  0  0  0  0  0  0  0  0
   -6.8085   -8.4859    0.0000 C   0  0  0  0  0  0  0  0  0  0  0  0
   -7.8880   -9.5274    0.0000 Cl  0  0  0  0  0  0  0  0  0  0  0  0
   -3.5699   -5.3592    0.0000 F   0  0  0  0  0  0  0  0  0  0  0  0
   -2.8454   -8.2710    0.0000 Cl  0  0  0  0  0  0  0  0  0  0  0  0
   -4.9288  -12.7785    0.0000 O   0  0  0  0  0  0  0  0  0  0  0  0
   -3.7154  -13.6603    0.0000 C   0  0  0  0  0  0  0  0  0  0  0  0
   -2.3442  -13.0503    0.0000 C   0  0  0  0  0  0  0  0  0  0  0  0
   -2.1874  -11.5585    0.0000 H   0  0  0  0  0  0  0  0  0  0  0  0
   -1.1297  -13.9320    0.0000 C   0  0  0  0  0  0  0  0  0  0  0  0
   -1.2864  -15.4238    0.0000 C   0  0  0  0  0  0  0  0  0  0  0  0
   -0.0730  -16.3056    0.0000 H   0  0  0  0  0  0  0  0  0  0  0  0
   -2.6576  -16.0339    0.0000 N   0  0  0  0  0  0  0  0  0  0  0  0
   -3.8722  -15.1521    0.0000 C   0  0  0  0  0  0  0  0  0  0  0  0
   -5.2424  -15.7625    0.0000 N   0  0  0  0  0  0  0  0  0  0  0  0
   -5.3989  -17.2543    0.0000 H   0  0  0  0  0  0  0  0  0  0  0  0
   -6.4561  -14.8811    0.0000 H   0  0  0  0  0  0  0  0  0  0  0  0
    0.2405  -13.3216    0.0000 C   0  0  0  0  0  0  0  0  0  0  0  0
    1.5337  -14.0671    0.0000 C   0  0  0  0  0  0  0  0  0  0  0  0
    1.6864  -15.5593    0.0000 H   0  0  0  0  0  0  0  0  0  0  0  0
    2.6561  -13.0689    0.0000 N   0  0  0  0  0  0  0  0  0  0  0  0
    4.1232  -13.3811    0.0000 C   0  0  0  0  0  0  0  0  0  0  0  0
    4.1756  -11.8820    0.0000 H   0  0  0  0  0  0  0  0  0  0  0  0
    5.6094  -13.1720    0.0000 C   0  0  0  0  0  0  0  0  0  0  0  0
    5.1457  -11.7454    0.0000 H   0  0  0  0  0  0  0  0  0  0  0  0
    6.9338  -12.4678    0.0000 H   0  0  0  0  0  0  0  0  0  0  0  0
    6.5327  -14.3541    0.0000 C   0  0  0  0  0  0  0  0  0  0  0  0
    7.5367  -13.2396    0.0000 H   0  0  0  0  0  0  0  0  0  0  0  0
    7.8045  -15.1494    0.0000 H   0  0  0  0  0  0  0  0  0  0  0  0
    5.9699  -15.7454    0.0000 N   0  0  0  0  0  0  0  0  0  0  0  0
    6.8932  -16.9275    0.0000 H   0  0  0  0  0  0  0  0  0  0  0  0
    4.4837  -15.9545    0.0000 C   0  0  0  0  0  0  0  0  0  0  0  0
    4.9473  -17.3811    0.0000 H   0  0  0  0  0  0  0  0  0  0  0  0
    3.1592  -16.6587    0.0000 H   0  0  0  0  0  0  0  0  0  0  0  0
    3.5603  -14.7724    0.0000 C   0  0  0  0  0  0  0  0  0  0  0  0
    2.5564  -15.8869    0.0000 H   0  0  0  0  0  0  0  0  0  0  0  0
    2.2885  -13.9771    0.0000 H   0  0  0  0  0  0  0  0  0  0  0  0
    2.0374  -11.7001    0.0000 N   0  0  0  0  0  0  0  0  0  0  0  0
    0.5528  -11.8545    0.0000 C   0  0  0  0  0  0  0  0  0  0  0  0
   -0.4502  -10.7391    0.0000 H   0  0  0  0  0  0  0  0  0  0  0  0
    2.7845  -10.3994    0.0000 O   0  0  0  0  0  0  0  0  0  0  0  0
  1  2  1  0  0  0  0 
  1  3  1  0  0  0  0 
  1  4  1  0  0  0  0 
  1  5  1  0  0  0  0 
  5  6  1  6  0  0  0 
  5  7  1  0  0  0  0 
  7  8  2  0  0  0  0 
  8  9  1  0  0  0  0 
  9 10  2  0  0  0  0 
 10 11  1  0  0  0  0 
 10 12  1  0  0  0  0 
 12 13  1  0  0  0  0 
 12 14  2  0  0  0  0 
  7 14  1  0  0  0  0 
 14 15  1  0  0  0  0 
  9 16  1  0  0  0  0 
  8 17  1  0  0  0  0 
  5 18  1  1  0  0  0 
 18 19  1  0  0  0  0 
 19 20  2  0  0  0  0 
 20 21  1  0  0  0  0 
 20 22  1  0  0  0  0 
 22 23  2  0  0  0  0 
 23 24  1  0  0  0  0 
 23 25  1  0  0  0  0 
 25 26  2  0  0  0  0 
 19 26  1  0  0  0  0 
 26 27  1  0  0  0  0 
 27 28  1  0  0  0  0 
 27 29  1  0  0  0  0 
 22 30  1  0  0  0  0 
 30 31  2  0  0  0  0 
 31 32  1  0  0  0  0 
 31 33  1  0  0  0  0 
 33 34  1  0  0  0  0 
 34 35  1  0  0  0  0 
 34 36  1  0  0  0  0 
 36 37  1  0  0  0  0 
 36 38  1  0  0  0  0 
 36 39  1  0  0  0  0 
 39 40  1  0  0  0  0 
 39 41  1  0  0  0  0 
 39 42  1  0  0  0  0 
 42 43  1  0  0  0  0 
 42 44  1  0  0  0  0 
 44 45  1  0  0  0  0 
 44 46  1  0  0  0  0 
 44 47  1  0  0  0  0 
 34 47  1  0  0  0  0 
 47 48  1  0  0  0  0 
 47 49  1  0  0  0  0 
 33 50  1  0  0  0  0 
 50 51  2  0  0  0  0 
 30 51  1  0  0  0  0 
 51 52  1  0  0  0  0 
 50 53  1  0  0  0  0 
M  CHG  1  50   1
M  CHG  1  53  -1
M  END
> <Rank>
32

> <Priority_score>
0.068

> <Reaction_type>
N-oxidation

> <Parent_ID>
51

> <Parent_InChI>
InChI=1S/C21H22Cl2FN5O/c1-12(19-16(22)2-3-17(24)20(19)23)30-18-8-13(9-27-21(18)25)14-10-28-29(11-14)15-4-6-26-7-5-15/h2-3,8-12,15,26H,4-7H2,1H3,(H2,25,27)

> <Parent_SMILES>
C[C@@H](Oc1cc(-c2cnn(C3CCNCC3)c2)cnc1N)c1c(Cl)ccc(F)c1Cl

$$$$
Molecule 51_metabolite 36
  CDK     0516241031

 87 90  0  0  0  0  0  0  0  0999 V2000
   -4.9417  -16.8647    0.0000 C   0  0  0  0  0  0  0  0  0  0  0  0
   -4.5785  -18.3201    0.0000 H   0  0  0  0  0  0  0  0  0  0  0  0
   -3.4454  -16.7598    0.0000 H   0  0  0  0  0  0  0  0  0  0  0  0
   -4.7852  -15.3729    0.0000 H   0  0  0  0  0  0  0  0  0  0  0  0
   -6.3837  -16.4516    0.0000 C   0  0  2  0  0  0  0  0  0  0  0  0
   -7.8800  -16.5565    0.0000 H   0  0  0  0  0  0  0  0  0  0  0  0
   -6.5402  -17.9434    0.0000 C   0  0  0  0  0  0  0  0  0  0  0  0
   -5.3259  -18.8255    0.0000 C   0  0  0  0  0  0  0  0  0  0  0  0
   -5.4818  -20.3182    0.0000 C   0  0  0  0  0  0  0  0  0  0  0  0
   -6.8519  -20.9288    0.0000 C   0  0  0  0  0  0  0  0  0  0  0  0
   -7.0084  -22.4206    0.0000 H   0  0  0  0  0  0  0  0  0  0  0  0
   -8.0661  -20.0467    0.0000 C   0  0  0  0  0  0  0  0  0  0  0  0
   -9.4362  -20.6573    0.0000 H   0  0  0  0  0  0  0  0  0  0  0  0
   -7.9103  -18.5540    0.0000 C   0  0  0  0  0  0  0  0  0  0  0  0
   -9.1243  -17.6729    0.0000 Cl  0  0  0  0  0  0  0  0  0  0  0  0
   -4.2678  -21.1993    0.0000 F   0  0  0  0  0  0  0  0  0  0  0  0
   -3.5174  -18.0195    0.0000 S   0  0  0  0  0  0  0  0  0  0  0  0
   -2.3036  -18.9008    0.0000 C   0  0  0  0  0  0  0  0  0  0  0  0
   -3.3822  -19.9431    0.0000 H   0  0  0  0  0  0  0  0  0  0  0  0
   -1.4643  -20.1440    0.0000 H   0  0  0  0  0  0  0  0  0  0  0  0
   -0.9335  -18.2902    0.0000 C   0  0  0  0  0  0  0  0  0  0  0  0
    0.5628  -18.1850    0.0000 H   0  0  0  0  0  0  0  0  0  0  0  0
   -0.4538  -20.2112    0.0000 C   0  0  0  0  0  0  0  0  0  0  0  0
   -1.5324  -21.2536    0.0000 O   0  0  0  0  0  0  0  0  0  0  0  0
    0.9883  -20.6241    0.0000 N   0  0  0  0  0  0  0  0  0  0  0  0
    2.0669  -19.5817    0.0000 H   0  0  0  0  0  0  0  0  0  0  0  0
    1.3517  -22.0794    0.0000 C   0  0  0  0  0  0  0  0  0  0  0  0
   -0.1446  -22.1846    0.0000 H   0  0  0  0  0  0  0  0  0  0  0  0
    1.1954  -23.5713    0.0000 H   0  0  0  0  0  0  0  0  0  0  0  0
    2.7937  -22.4924    0.0000 C   0  0  0  0  0  0  0  0  0  0  0  0
    3.8724  -21.4500    0.0000 O   0  0  0  0  0  0  0  0  0  0  0  0
    3.1571  -23.9477    0.0000 O   0  0  0  0  0  0  0  0  0  0  0  0
    4.5992  -24.3606    0.0000 H   0  0  0  0  0  0  0  0  0  0  0  0
   -0.7772  -16.7983    0.0000 N   0  0  0  0  0  0  0  0  0  0  0  0
   -1.9911  -15.9171    0.0000 H   0  0  0  0  0  0  0  0  0  0  0  0
    0.5929  -16.1877    0.0000 C   0  0  0  0  0  0  0  0  0  0  0  0
    1.8067  -17.0690    0.0000 O   0  0  0  0  0  0  0  0  0  0  0  0
    0.7491  -14.6959    0.0000 C   0  0  0  0  0  0  0  0  0  0  0  0
   -0.7472  -14.8011    0.0000 H   0  0  0  0  0  0  0  0  0  0  0  0
    0.3857  -13.2406    0.0000 H   0  0  0  0  0  0  0  0  0  0  0  0
    2.5577  -13.8899    0.0000 C   0  0  0  0  0  0  0  0  0  0  0  0
    4.0540  -13.7847    0.0000 H   0  0  0  0  0  0  0  0  0  0  0  0
    2.9211  -15.3452    0.0000 H   0  0  0  0  0  0  0  0  0  0  0  0
    2.7139  -12.3981    0.0000 C   0  0  0  0  0  0  0  0  0  0  0  0
    1.2176  -12.5032    0.0000 H   0  0  0  0  0  0  0  0  0  0  0  0
    4.0840  -11.7875    0.0000 C   0  0  0  0  0  0  0  0  0  0  0  0
    5.2979  -12.6687    0.0000 O   0  0  0  0  0  0  0  0  0  0  0  0
    4.2403  -10.2956    0.0000 O   0  0  0  0  0  0  0  0  0  0  0  0
    5.6104   -9.6850    0.0000 H   0  0  0  0  0  0  0  0  0  0  0  0
    2.3505  -10.9427    0.0000 N   0  0  0  0  0  0  0  0  0  0  0  0
    3.4292   -9.9004    0.0000 H   0  0  0  0  0  0  0  0  0  0  0  0
    0.9085  -10.5298    0.0000 H   0  0  0  0  0  0  0  0  0  0  0  0
   -6.7468  -14.9962    0.0000 O   0  0  0  0  0  0  0  0  0  0  0  0
   -8.6503  -14.4508    0.0000 C   0  0  0  0  0  0  0  0  0  0  0  0
   -9.7298  -15.4934    0.0000 C   0  0  0  0  0  0  0  0  0  0  0  0
   -9.3664  -16.9487    0.0000 H   0  0  0  0  0  0  0  0  0  0  0  0
  -11.1728  -15.0807    0.0000 C   0  0  0  0  0  0  0  0  0  0  0  0
  -11.5362  -13.6254    0.0000 C   0  0  0  0  0  0  0  0  0  0  0  0
  -12.9782  -13.2122    0.0000 H   0  0  0  0  0  0  0  0  0  0  0  0
  -10.4566  -12.5828    0.0000 N   0  0  0  0  0  0  0  0  0  0  0  0
   -9.0137  -12.9955    0.0000 C   0  0  0  0  0  0  0  0  0  0  0  0
   -7.9352  -11.9530    0.0000 N   0  0  0  0  0  0  0  0  0  0  0  0
   -8.2988  -10.4977    0.0000 H   0  0  0  0  0  0  0  0  0  0  0  0
   -6.4931  -12.3657    0.0000 H   0  0  0  0  0  0  0  0  0  0  0  0
  -12.2513  -16.1233    0.0000 C   0  0  0  0  0  0  0  0  0  0  0  0
  -13.7215  -15.8655    0.0000 C   0  0  0  0  0  0  0  0  0  0  0  0
  -14.3758  -14.5157    0.0000 H   0  0  0  0  0  0  0  0  0  0  0  0
  -14.4343  -17.1876    0.0000 N   0  0  0  0  0  0  0  0  0  0  0  0
  -15.9197  -17.3965    0.0000 C   0  0  0  0  0  0  0  0  0  0  0  0
  -15.4558  -18.8230    0.0000 H   0  0  0  0  0  0  0  0  0  0  0  0
  -17.2445  -18.1018    0.0000 C   0  0  0  0  0  0  0  0  0  0  0  0
  -16.3205  -19.2834    0.0000 H   0  0  0  0  0  0  0  0  0  0  0  0
  -18.2479  -19.2168    0.0000 H   0  0  0  0  0  0  0  0  0  0  0  0
  -18.5167  -17.3071    0.0000 C   0  0  0  0  0  0  0  0  0  0  0  0
  -19.0785  -18.6980    0.0000 H   0  0  0  0  0  0  0  0  0  0  0  0
  -19.9839  -16.9952    0.0000 H   0  0  0  0  0  0  0  0  0  0  0  0
  -18.4641  -15.8072    0.0000 N   0  0  0  0  0  0  0  0  0  0  0  0
  -19.7364  -15.0126    0.0000 H   0  0  0  0  0  0  0  0  0  0  0  0
  -17.1393  -15.1020    0.0000 C   0  0  0  0  0  0  0  0  0  0  0  0
  -18.0633  -13.9203    0.0000 H   0  0  0  0  0  0  0  0  0  0  0  0
  -16.1360  -13.9869    0.0000 H   0  0  0  0  0  0  0  0  0  0  0  0
  -15.8671  -15.8966    0.0000 C   0  0  0  0  0  0  0  0  0  0  0  0
  -15.3053  -14.5058    0.0000 H   0  0  0  0  0  0  0  0  0  0  0  0
  -14.3999  -16.2085    0.0000 H   0  0  0  0  0  0  0  0  0  0  0  0
  -13.3845  -18.2619    0.0000 N   0  0  0  0  0  0  0  0  0  0  0  0
  -12.0424  -17.6087    0.0000 C   0  0  0  0  0  0  0  0  0  0  0  0
  -10.7182  -18.3134    0.0000 H   0  0  0  0  0  0  0  0  0  0  0  0
  1  2  1  0  0  0  0 
  1  3  1  0  0  0  0 
  1  4  1  0  0  0  0 
  1  5  1  0  0  0  0 
  5  6  1  1  0  0  0 
  5  7  1  0  0  0  0 
  7  8  2  0  0  0  0 
  8  9  1  0  0  0  0 
  9 10  2  0  0  0  0 
 10 11  1  0  0  0  0 
 10 12  1  0  0  0  0 
 12 13  1  0  0  0  0 
 12 14  2  0  0  0  0 
  7 14  1  0  0  0  0 
 14 15  1  0  0  0  0 
  9 16  1  0  0  0  0 
  8 17  1  0  0  0  0 
 17 18  1  0  0  0  0 
 18 19  1  0  0  0  0 
 18 20  1  0  0  0  0 
 18 21  1  0  0  0  0 
 21 22  1  0  0  0  0 
 21 23  1  0  0  0  0 
 23 24  2  0  0  0  0 
 23 25  1  0  0  0  0 
 25 26  1  0  0  0  0 
 25 27  1  0  0  0  0 
 27 28  1  0  0  0  0 
 27 29  1  0  0  0  0 
 27 30  1  0  0  0  0 
 30 31  2  0  0  0  0 
 30 32  1  0  0  0  0 
 32 33  1  0  0  0  0 
 21 34  1  0  0  0  0 
 34 35  1  0  0  0  0 
 34 36  1  0  0  0  0 
 36 37  2  0  0  0  0 
 36 38  1  0  0  0  0 
 38 39  1  0  0  0  0 
 38 40  1  0  0  0  0 
 38 41  1  0  0  0  0 
 41 42  1  0  0  0  0 
 41 43  1  0  0  0  0 
 41 44  1  0  0  0  0 
 44 45  1  0  0  0  0 
 44 46  1  0  0  0  0 
 46 47  2  0  0  0  0 
 46 48  1  0  0  0  0 
 48 49  1  0  0  0  0 
 44 50  1  0  0  0  0 
 50 51  1  0  0  0  0 
 50 52  1  0  0  0  0 
  5 53  1  6  0  0  0 
 53 54  1  0  0  0  0 
 54 55  2  0  0  0  0 
 55 56  1  0  0  0  0 
 55 57  1  0  0  0  0 
 57 58  2  0  0  0  0 
 58 59  1  0  0  0  0 
 58 60  1  0  0  0  0 
 60 61  2  0  0  0  0 
 54 61  1  0  0  0  0 
 61 62  1  0  0  0  0 
 62 63  1  0  0  0  0 
 62 64  1  0  0  0  0 
 57 65  1  0  0  0  0 
 65 66  2  0  0  0  0 
 66 67  1  0  0  0  0 
 66 68  1  0  0  0  0 
 68 69  1  0  0  0  0 
 69 70  1  0  0  0  0 
 69 71  1  0  0  0  0 
 71 72  1  0  0  0  0 
 71 73  1  0  0  0  0 
 71 74  1  0  0  0  0 
 74 75  1  0  0  0  0 
 74 76  1  0  0  0  0 
 74 77  1  0  0  0  0 
 77 78  1  0  0  0  0 
 77 79  1  0  0  0  0 
 79 80  1  0  0  0  0 
 79 81  1  0  0  0  0 
 79 82  1  0  0  0  0 
 69 82  1  0  0  0  0 
 82 83  1  0  0  0  0 
 82 84  1  0  0  0  0 
 68 85  1  0  0  0  0 
 85 86  2  0  0  0  0 
 65 86  1  0  0  0  0 
 86 87  1  0  0  0  0 
M  END
> <Rank>
36

> <Priority_score>
0.028

> <Reaction_type>
glutathione_conjugation_(aromatic_nucleophilic_substitution)

> <Parent_ID>
51

> <Parent_InChI>
InChI=1S/C21H22Cl2FN5O/c1-12(19-16(22)2-3-17(24)20(19)23)30-18-8-13(9-27-21(18)25)14-10-28-29(11-14)15-4-6-26-7-5-15/h2-3,8-12,15,26H,4-7H2,1H3,(H2,25,27)

> <Parent_SMILES>
C[C@@H](Oc1cc(-c2cnn(C3CCNCC3)c2)cnc1N)c1c(Cl)ccc(F)c1Cl

$$$$
Molecule 51_metabolite 37
  CDK     0516241031

 87 90  0  0  0  0  0  0  0  0999 V2000
   -0.2997   -6.9436    0.0000 C   0  0  0  0  0  0  0  0  0  0  0  0
    0.9428   -6.1033    0.0000 H   0  0  0  0  0  0  0  0  0  0  0  0
    0.7435   -8.0214    0.0000 H   0  0  0  0  0  0  0  0  0  0  0  0
   -1.1800   -8.1581    0.0000 H   0  0  0  0  0  0  0  0  0  0  0  0
   -1.6487   -6.2876    0.0000 C   0  0  2  0  0  0  0  0  0  0  0  0
   -2.6919   -5.2098    0.0000 H   0  0  0  0  0  0  0  0  0  0  0  0
   -0.2050   -4.2957    0.0000 C   0  0  0  0  0  0  0  0  0  0  0  0
   -0.8169   -2.9253    0.0000 C   0  0  0  0  0  0  0  0  0  0  0  0
    0.0633   -1.7096    0.0000 C   0  0  0  0  0  0  0  0  0  0  0  0
    1.5553   -1.8644    0.0000 C   0  0  0  0  0  0  0  0  0  0  0  0
    2.4356   -0.6499    0.0000 H   0  0  0  0  0  0  0  0  0  0  0  0
    2.1671   -3.2349    0.0000 C   0  0  0  0  0  0  0  0  0  0  0  0
    3.6591   -3.3897    0.0000 H   0  0  0  0  0  0  0  0  0  0  0  0
    1.2869   -4.4505    0.0000 C   0  0  0  0  0  0  0  0  0  0  0  0
    1.8991   -5.8200    0.0000 S   0  0  0  0  0  0  0  0  0  0  0  0
    3.3911   -5.9745    0.0000 C   0  0  0  0  0  0  0  0  0  0  0  0
    3.2842   -4.4784    0.0000 H   0  0  0  0  0  0  0  0  0  0  0  0
    4.8460   -5.6095    0.0000 H   0  0  0  0  0  0  0  0  0  0  0  0
    4.1991   -7.7822    0.0000 C   0  0  0  0  0  0  0  0  0  0  0  0
    4.3060   -9.2784    0.0000 H   0  0  0  0  0  0  0  0  0  0  0  0
    2.7442   -8.1472    0.0000 C   0  0  0  0  0  0  0  0  0  0  0  0
    1.7006   -7.0697    0.0000 O   0  0  0  0  0  0  0  0  0  0  0  0
    2.3329   -9.5897    0.0000 N   0  0  0  0  0  0  0  0  0  0  0  0
    0.8780   -9.9548    0.0000 H   0  0  0  0  0  0  0  0  0  0  0  0
    3.3765  -10.6672    0.0000 C   0  0  0  0  0  0  0  0  0  0  0  0
    2.1342  -11.5078    0.0000 H   0  0  0  0  0  0  0  0  0  0  0  0
    3.9886  -12.0366    0.0000 H   0  0  0  0  0  0  0  0  0  0  0  0
    4.8314  -10.3021    0.0000 C   0  0  0  0  0  0  0  0  0  0  0  0
    5.2427   -8.8596    0.0000 O   0  0  0  0  0  0  0  0  0  0  0  0
    5.8750  -11.3796    0.0000 O   0  0  0  0  0  0  0  0  0  0  0  0
    7.3299  -11.0146    0.0000 H   0  0  0  0  0  0  0  0  0  0  0  0
    5.6911   -7.9368    0.0000 N   0  0  0  0  0  0  0  0  0  0  0  0
    6.3033   -9.3062    0.0000 H   0  0  0  0  0  0  0  0  0  0  0  0
    6.5710   -6.7219    0.0000 C   0  0  0  0  0  0  0  0  0  0  0  0
    5.9589   -5.3525    0.0000 O   0  0  0  0  0  0  0  0  0  0  0  0
    8.0630   -6.8765    0.0000 C   0  0  0  0  0  0  0  0  0  0  0  0
    7.6517   -8.3190    0.0000 H   0  0  0  0  0  0  0  0  0  0  0  0
    9.4122   -7.5321    0.0000 H   0  0  0  0  0  0  0  0  0  0  0  0
    9.2245   -5.2729    0.0000 C   0  0  0  0  0  0  0  0  0  0  0  0
    9.6358   -3.8304    0.0000 H   0  0  0  0  0  0  0  0  0  0  0  0
    7.8753   -4.6174    0.0000 H   0  0  0  0  0  0  0  0  0  0  0  0
   10.7165   -5.4275    0.0000 C   0  0  0  0  0  0  0  0  0  0  0  0
   10.3051   -6.8700    0.0000 H   0  0  0  0  0  0  0  0  0  0  0  0
   11.5963   -4.2127    0.0000 C   0  0  0  0  0  0  0  0  0  0  0  0
   10.9842   -2.8433    0.0000 O   0  0  0  0  0  0  0  0  0  0  0  0
   13.0884   -4.3673    0.0000 O   0  0  0  0  0  0  0  0  0  0  0  0
   13.9682   -3.1524    0.0000 H   0  0  0  0  0  0  0  0  0  0  0  0
   12.0656   -6.0831    0.0000 N   0  0  0  0  0  0  0  0  0  0  0  0
   13.3079   -5.2424    0.0000 H   0  0  0  0  0  0  0  0  0  0  0  0
   12.1725   -7.5793    0.0000 H   0  0  0  0  0  0  0  0  0  0  0  0
   -0.5488   -0.3402    0.0000 F   0  0  0  0  0  0  0  0  0  0  0  0
   -2.3089   -2.7704    0.0000 Cl  0  0  0  0  0  0  0  0  0  0  0  0
   -2.8913   -7.1278    0.0000 O   0  0  0  0  0  0  0  0  0  0  0  0
   -4.6719   -6.2619    0.0000 C   0  0  0  0  0  0  0  0  0  0  0  0
   -4.7786   -4.7649    0.0000 C   0  0  0  0  0  0  0  0  0  0  0  0
   -3.5358   -3.9248    0.0000 H   0  0  0  0  0  0  0  0  0  0  0  0
   -6.1279   -4.1079    0.0000 C   0  0  0  0  0  0  0  0  0  0  0  0
   -7.3707   -4.9479    0.0000 C   0  0  0  0  0  0  0  0  0  0  0  0
   -8.7196   -4.2919    0.0000 H   0  0  0  0  0  0  0  0  0  0  0  0
   -7.2640   -6.4449    0.0000 N   0  0  0  0  0  0  0  0  0  0  0  0
   -5.9146   -7.1019    0.0000 C   0  0  0  0  0  0  0  0  0  0  0  0
   -5.8087   -8.5982    0.0000 N   0  0  0  0  0  0  0  0  0  0  0  0
   -4.4600   -9.2546    0.0000 H   0  0  0  0  0  0  0  0  0  0  0  0
   -7.0516   -9.4380    0.0000 H   0  0  0  0  0  0  0  0  0  0  0  0
   -6.2338   -2.6116    0.0000 C   0  0  0  0  0  0  0  0  0  0  0  0
   -7.5000   -1.8211    0.0000 C   0  0  0  0  0  0  0  0  0  0  0  0
   -8.8886   -2.3883    0.0000 H   0  0  0  0  0  0  0  0  0  0  0  0
   -7.1470   -0.3611    0.0000 N   0  0  0  0  0  0  0  0  0  0  0  0
   -8.1127    0.7867    0.0000 C   0  0  0  0  0  0  0  0  0  0  0  0
   -6.8144    1.5381    0.0000 H   0  0  0  0  0  0  0  0  0  0  0  0
   -8.6272    2.1966    0.0000 C   0  0  0  0  0  0  0  0  0  0  0  0
   -7.1502    2.4585    0.0000 H   0  0  0  0  0  0  0  0  0  0  0  0
   -8.6288    3.6966    0.0000 H   0  0  0  0  0  0  0  0  0  0  0  0
  -10.1047    2.4553    0.0000 C   0  0  0  0  0  0  0  0  0  0  0  0
   -9.5935    3.8655    0.0000 H   0  0  0  0  0  0  0  0  0  0  0  0
  -11.4048    3.2035    0.0000 H   0  0  0  0  0  0  0  0  0  0  0  0
  -11.0677    1.3042    0.0000 N   0  0  0  0  0  0  0  0  0  0  0  0
  -12.5452    1.5629    0.0000 H   0  0  0  0  0  0  0  0  0  0  0  0
  -10.5532   -0.1057    0.0000 C   0  0  0  0  0  0  0  0  0  0  0  0
  -12.0302   -0.3676    0.0000 H   0  0  0  0  0  0  0  0  0  0  0  0
  -10.5516   -1.6057    0.0000 H   0  0  0  0  0  0  0  0  0  0  0  0
   -9.0757   -0.3644    0.0000 C   0  0  0  0  0  0  0  0  0  0  0  0
   -9.5869   -1.7746    0.0000 H   0  0  0  0  0  0  0  0  0  0  0  0
   -7.7756   -1.1126    0.0000 H   0  0  0  0  0  0  0  0  0  0  0  0
   -5.6482   -0.2632    0.0000 N   0  0  0  0  0  0  0  0  0  0  0  0
   -5.0860   -1.6460    0.0000 C   0  0  0  0  0  0  0  0  0  0  0  0
   -3.6299   -2.0063    0.0000 H   0  0  0  0  0  0  0  0  0  0  0  0
  1  2  1  0  0  0  0 
  1  3  1  0  0  0  0 
  1  4  1  0  0  0  0 
  1  5  1  0  0  0  0 
  5  6  1  6  0  0  0 
  5  7  1  0  0  0  0 
  7  8  2  0  0  0  0 
  8  9  1  0  0  0  0 
  9 10  2  0  0  0  0 
 10 11  1  0  0  0  0 
 10 12  1  0  0  0  0 
 12 13  1  0  0  0  0 
 12 14  2  0  0  0  0 
  7 14  1  0  0  0  0 
 14 15  1  0  0  0  0 
 15 16  1  0  0  0  0 
 16 17  1  0  0  0  0 
 16 18  1  0  0  0  0 
 16 19  1  0  0  0  0 
 19 20  1  0  0  0  0 
 19 21  1  0  0  0  0 
 21 22  2  0  0  0  0 
 21 23  1  0  0  0  0 
 23 24  1  0  0  0  0 
 23 25  1  0  0  0  0 
 25 26  1  0  0  0  0 
 25 27  1  0  0  0  0 
 25 28  1  0  0  0  0 
 28 29  2  0  0  0  0 
 28 30  1  0  0  0  0 
 30 31  1  0  0  0  0 
 19 32  1  0  0  0  0 
 32 33  1  0  0  0  0 
 32 34  1  0  0  0  0 
 34 35  2  0  0  0  0 
 34 36  1  0  0  0  0 
 36 37  1  0  0  0  0 
 36 38  1  0  0  0  0 
 36 39  1  0  0  0  0 
 39 40  1  0  0  0  0 
 39 41  1  0  0  0  0 
 39 42  1  0  0  0  0 
 42 43  1  0  0  0  0 
 42 44  1  0  0  0  0 
 44 45  2  0  0  0  0 
 44 46  1  0  0  0  0 
 46 47  1  0  0  0  0 
 42 48  1  0  0  0  0 
 48 49  1  0  0  0  0 
 48 50  1  0  0  0  0 
  9 51  1  0  0  0  0 
  8 52  1  0  0  0  0 
  5 53  1  1  0  0  0 
 53 54  1  0  0  0  0 
 54 55  2  0  0  0  0 
 55 56  1  0  0  0  0 
 55 57  1  0  0  0  0 
 57 58  2  0  0  0  0 
 58 59  1  0  0  0  0 
 58 60  1  0  0  0  0 
 60 61  2  0  0  0  0 
 54 61  1  0  0  0  0 
 61 62  1  0  0  0  0 
 62 63  1  0  0  0  0 
 62 64  1  0  0  0  0 
 57 65  1  0  0  0  0 
 65 66  2  0  0  0  0 
 66 67  1  0  0  0  0 
 66 68  1  0  0  0  0 
 68 69  1  0  0  0  0 
 69 70  1  0  0  0  0 
 69 71  1  0  0  0  0 
 71 72  1  0  0  0  0 
 71 73  1  0  0  0  0 
 71 74  1  0  0  0  0 
 74 75  1  0  0  0  0 
 74 76  1  0  0  0  0 
 74 77  1  0  0  0  0 
 77 78  1  0  0  0  0 
 77 79  1  0  0  0  0 
 79 80  1  0  0  0  0 
 79 81  1  0  0  0  0 
 79 82  1  0  0  0  0 
 69 82  1  0  0  0  0 
 82 83  1  0  0  0  0 
 82 84  1  0  0  0  0 
 68 85  1  0  0  0  0 
 85 86  2  0  0  0  0 
 65 86  1  0  0  0  0 
 86 87  1  0  0  0  0 
M  END
> <Rank>
36

> <Priority_score>
0.028

> <Reaction_type>
glutathione_conjugation_(aromatic_nucleophilic_substitution)

> <Parent_ID>
51

> <Parent_InChI>
InChI=1S/C21H22Cl2FN5O/c1-12(19-16(22)2-3-17(24)20(19)23)30-18-8-13(9-27-21(18)25)14-10-28-29(11-14)15-4-6-26-7-5-15/h2-3,8-12,15,26H,4-7H2,1H3,(H2,25,27)

> <Parent_SMILES>
C[C@@H](Oc1cc(-c2cnn(C3CCNCC3)c2)cnc1N)c1c(Cl)ccc(F)c1Cl

$$$$
Molecule 51_metabolite 38
  CDK     0516241031

 50 53  0  0  0  0  0  0  0  0999 V2000
   -3.6982  -11.1003    0.0000 C   0  0  0  0  0  0  0  0  0  0  0  0
   -3.5412   -9.6085    0.0000 H   0  0  0  0  0  0  0  0  0  0  0  0
   -2.2018  -10.9958    0.0000 H   0  0  0  0  0  0  0  0  0  0  0  0
   -3.3355  -12.5557    0.0000 H   0  0  0  0  0  0  0  0  0  0  0  0
   -5.0686  -11.7102    0.0000 C   0  0  2  0  0  0  0  0  0  0  0  0
   -6.5649  -11.8147    0.0000 H   0  0  0  0  0  0  0  0  0  0  0  0
   -5.6634   -9.3232    0.0000 C   0  0  0  0  0  0  0  0  0  0  0  0
   -4.5838   -8.2806    0.0000 C   0  0  0  0  0  0  0  0  0  0  0  0
   -4.9460   -6.8241    0.0000 C   0  0  0  0  0  0  0  0  0  0  0  0
   -6.3878   -6.4103    0.0000 C   0  0  0  0  0  0  0  0  0  0  0  0
   -6.7505   -4.9548    0.0000 H   0  0  0  0  0  0  0  0  0  0  0  0
   -7.4674   -7.4529    0.0000 C   0  0  0  0  0  0  0  0  0  0  0  0
   -8.9091   -7.0390    0.0000 H   0  0  0  0  0  0  0  0  0  0  0  0
   -7.1052   -8.9093    0.0000 C   0  0  0  0  0  0  0  0  0  0  0  0
   -8.1846   -9.9508    0.0000 Cl  0  0  0  0  0  0  0  0  0  0  0  0
   -3.8666   -5.7826    0.0000 F   0  0  0  0  0  0  0  0  0  0  0  0
   -3.1420   -8.6945    0.0000 Cl  0  0  0  0  0  0  0  0  0  0  0  0
   -5.2255  -13.2020    0.0000 O   0  0  0  0  0  0  0  0  0  0  0  0
   -4.0121  -14.0838    0.0000 C   0  0  0  0  0  0  0  0  0  0  0  0
   -2.6409  -13.4737    0.0000 C   0  0  0  0  0  0  0  0  0  0  0  0
   -2.4841  -11.9819    0.0000 H   0  0  0  0  0  0  0  0  0  0  0  0
   -1.4263  -14.3555    0.0000 C   0  0  0  0  0  0  0  0  0  0  0  0
   -1.5831  -15.8472    0.0000 C   0  0  0  0  0  0  0  0  0  0  0  0
   -0.3697  -16.7291    0.0000 H   0  0  0  0  0  0  0  0  0  0  0  0
   -2.9543  -16.4573    0.0000 N   0  0  0  0  0  0  0  0  0  0  0  0
   -4.1688  -15.5756    0.0000 C   0  0  0  0  0  0  0  0  0  0  0  0
   -5.5390  -16.1860    0.0000 N   0  0  0  0  0  0  0  0  0  0  0  0
   -5.6955  -17.6778    0.0000 H   0  0  0  0  0  0  0  0  0  0  0  0
   -6.7527  -15.3045    0.0000 H   0  0  0  0  0  0  0  0  0  0  0  0
   -0.0561  -13.7451    0.0000 C   0  0  0  0  0  0  0  0  0  0  0  0
    1.2370  -14.4906    0.0000 C   0  0  0  0  0  0  0  0  0  0  0  0
    1.3897  -15.9828    0.0000 H   0  0  0  0  0  0  0  0  0  0  0  0
    2.3594  -13.4923    0.0000 N   0  0  0  0  0  0  0  0  0  0  0  0
    3.8265  -13.8046    0.0000 C   0  0  0  0  0  0  0  0  0  0  0  0
    4.8307  -12.6891    0.0000 C   0  0  0  0  0  0  0  0  0  0  0  0
    4.3673  -11.2625    0.0000 H   0  0  0  0  0  0  0  0  0  0  0  0
    6.2978  -13.0014    0.0000 C   0  0  0  0  0  0  0  0  0  0  0  0
    6.3507  -11.5023    0.0000 H   0  0  0  0  0  0  0  0  0  0  0  0
    7.7833  -12.7933    0.0000 H   0  0  0  0  0  0  0  0  0  0  0  0
    6.7608  -14.4290    0.0000 N   0  0  0  0  0  0  0  0  0  0  0  0
    8.2280  -14.7412    0.0000 H   0  0  0  0  0  0  0  0  0  0  0  0
    5.7566  -15.5444    0.0000 C   0  0  0  0  0  0  0  0  0  0  0  0
    7.0287  -16.3393    0.0000 H   0  0  0  0  0  0  0  0  0  0  0  0
    5.1945  -16.9351    0.0000 H   0  0  0  0  0  0  0  0  0  0  0  0
    4.2895  -15.2322    0.0000 C   0  0  0  0  0  0  0  0  0  0  0  0
    4.2366  -16.7313    0.0000 H   0  0  0  0  0  0  0  0  0  0  0  0
    2.8040  -15.4403    0.0000 H   0  0  0  0  0  0  0  0  0  0  0  0
    1.7407  -12.1236    0.0000 N   0  0  0  0  0  0  0  0  0  0  0  0
    0.2561  -12.2779    0.0000 C   0  0  0  0  0  0  0  0  0  0  0  0
   -0.7469  -11.1625    0.0000 H   0  0  0  0  0  0  0  0  0  0  0  0
  1  2  1  0  0  0  0 
  1  3  1  0  0  0  0 
  1  4  1  0  0  0  0 
  1  5  1  0  0  0  0 
  5  6  1  6  0  0  0 
  5  7  1  0  0  0  0 
  7  8  2  0  0  0  0 
  8  9  1  0  0  0  0 
  9 10  2  0  0  0  0 
 10 11  1  0  0  0  0 
 10 12  1  0  0  0  0 
 12 13  1  0  0  0  0 
 12 14  2  0  0  0  0 
  7 14  1  0  0  0  0 
 14 15  1  0  0  0  0 
  9 16  1  0  0  0  0 
  8 17  1  0  0  0  0 
  5 18  1  1  0  0  0 
 18 19  1  0  0  0  0 
 19 20  2  0  0  0  0 
 20 21  1  0  0  0  0 
 20 22  1  0  0  0  0 
 22 23  2  0  0  0  0 
 23 24  1  0  0  0  0 
 23 25  1  0  0  0  0 
 25 26  2  0  0  0  0 
 19 26  1  0  0  0  0 
 26 27  1  0  0  0  0 
 27 28  1  0  0  0  0 
 27 29  1  0  0  0  0 
 22 30  1  0  0  0  0 
 30 31  2  0  0  0  0 
 31 32  1  0  0  0  0 
 31 33  1  0  0  0  0 
 33 34  1  0  0  0  0 
 34 35  2  0  0  0  0 
 35 36  1  0  0  0  0 
 35 37  1  0  0  0  0 
 37 38  1  0  0  0  0 
 37 39  1  0  0  0  0 
 37 40  1  0  0  0  0 
 40 41  1  0  0  0  0 
 40 42  1  0  0  0  0 
 42 43  1  0  0  0  0 
 42 44  1  0  0  0  0 
 42 45  1  0  0  0  0 
 34 45  1  0  0  0  0 
 45 46  1  0  0  0  0 
 45 47  1  0  0  0  0 
 33 48  1  0  0  0  0 
 48 49  2  0  0  0  0 
 30 49  1  0  0  0  0 
 49 50  1  0  0  0  0 
M  END
> <Rank>
38

> <Priority_score>
0.023968161718256477

> <Reaction_type>
alkyl dehydrogenation

> <Parent_ID>
51

> <Parent_InChI>
InChI=1S/C21H22Cl2FN5O/c1-12(19-16(22)2-3-17(24)20(19)23)30-18-8-13(9-27-21(18)25)14-10-28-29(11-14)15-4-6-26-7-5-15/h2-3,8-12,15,26H,4-7H2,1H3,(H2,25,27)

> <Parent_SMILES>
C[C@@H](Oc1cc(-c2cnn(C3CCNCC3)c2)cnc1N)c1c(Cl)ccc(F)c1Cl

$$$$
Molecule 51_metabolite 39
  CDK     0516241031

 53 56  0  0  0  0  0  0  0  0999 V2000
   -1.5590  -13.5694    0.0000 C   0  0  0  0  0  0  0  0  0  0  0  0
   -2.7724  -12.6875    0.0000 H   0  0  0  0  0  0  0  0  0  0  0  0
   -0.9013  -12.2213    0.0000 H   0  0  0  0  0  0  0  0  0  0  0  0
   -0.1171  -13.9830    0.0000 H   0  0  0  0  0  0  0  0  0  0  0  0
   -1.7160  -15.0611    0.0000 C   0  0  2  0  0  0  0  0  0  0  0  0
   -2.3737  -16.4092    0.0000 H   0  0  0  0  0  0  0  0  0  0  0  0
   -4.0806  -14.3828    0.0000 C   0  0  0  0  0  0  0  0  0  0  0  0
   -4.4437  -12.9265    0.0000 C   0  0  0  0  0  0  0  0  0  0  0  0
   -5.8862  -12.5120    0.0000 C   0  0  0  0  0  0  0  0  0  0  0  0
   -6.9655  -13.5537    0.0000 C   0  0  0  0  0  0  0  0  0  0  0  0
   -8.4073  -13.1400    0.0000 H   0  0  0  0  0  0  0  0  0  0  0  0
   -6.6023  -15.0099    0.0000 C   0  0  0  0  0  0  0  0  0  0  0  0
   -7.6816  -16.0516    0.0000 H   0  0  0  0  0  0  0  0  0  0  0  0
   -5.1599  -15.4245    0.0000 C   0  0  0  0  0  0  0  0  0  0  0  0
   -4.7976  -16.8801    0.0000 Cl  0  0  0  0  0  0  0  0  0  0  0  0
   -6.2484  -11.0564    0.0000 O   0  0  0  0  0  0  0  0  0  0  0  0
   -7.6901  -10.6423    0.0000 H   0  0  0  0  0  0  0  0  0  0  0  0
   -3.3644  -11.8849    0.0000 Cl  0  0  0  0  0  0  0  0  0  0  0  0
   -0.5025  -15.9430    0.0000 O   0  0  0  0  0  0  0  0  0  0  0  0
    0.8679  -15.3330    0.0000 C   0  0  0  0  0  0  0  0  0  0  0  0
    1.0252  -13.8404    0.0000 C   0  0  0  0  0  0  0  0  0  0  0  0
   -0.1884  -12.9588    0.0000 H   0  0  0  0  0  0  0  0  0  0  0  0
    2.3960  -13.2295    0.0000 C   0  0  0  0  0  0  0  0  0  0  0  0
    3.6096  -14.1111    0.0000 C   0  0  0  0  0  0  0  0  0  0  0  0
    4.9800  -13.5012    0.0000 H   0  0  0  0  0  0  0  0  0  0  0  0
    3.4523  -15.6037    0.0000 N   0  0  0  0  0  0  0  0  0  0  0  0
    2.0814  -16.2146    0.0000 C   0  0  0  0  0  0  0  0  0  0  0  0
    1.9249  -17.7065    0.0000 N   0  0  0  0  0  0  0  0  0  0  0  0
    3.1386  -18.5879    0.0000 H   0  0  0  0  0  0  0  0  0  0  0  0
    0.5547  -18.3168    0.0000 H   0  0  0  0  0  0  0  0  0  0  0  0
    2.5525  -11.7377    0.0000 C   0  0  0  0  0  0  0  0  0  0  0  0
    3.8447  -10.9905    0.0000 C   0  0  0  0  0  0  0  0  0  0  0  0
    5.2134  -11.6044    0.0000 H   0  0  0  0  0  0  0  0  0  0  0  0
    3.5414   -9.5194    0.0000 N   0  0  0  0  0  0  0  0  0  0  0  0
    4.5453   -8.4049    0.0000 C   0  0  0  0  0  0  0  0  0  0  0  0
    3.2733   -7.6100    0.0000 H   0  0  0  0  0  0  0  0  0  0  0  0
    5.1073   -7.0133    0.0000 C   0  0  0  0  0  0  0  0  0  0  0  0
    3.6401   -6.7015    0.0000 H   0  0  0  0  0  0  0  0  0  0  0  0
    5.1597   -5.5142    0.0000 H   0  0  0  0  0  0  0  0  0  0  0  0
    6.5927   -6.8047    0.0000 C   0  0  0  0  0  0  0  0  0  0  0  0
    6.1296   -5.3780    0.0000 H   0  0  0  0  0  0  0  0  0  0  0  0
    7.9174   -6.1010    0.0000 H   0  0  0  0  0  0  0  0  0  0  0  0
    7.5162   -7.9878    0.0000 N   0  0  0  0  0  0  0  0  0  0  0  0
    9.0016   -7.7793    0.0000 H   0  0  0  0  0  0  0  0  0  0  0  0
    6.9542   -9.3795    0.0000 C   0  0  0  0  0  0  0  0  0  0  0  0
    8.4215   -9.6912    0.0000 H   0  0  0  0  0  0  0  0  0  0  0  0
    6.9019  -10.8786    0.0000 H   0  0  0  0  0  0  0  0  0  0  0  0
    5.4688   -9.5880    0.0000 C   0  0  0  0  0  0  0  0  0  0  0  0
    5.9320  -11.0147    0.0000 H   0  0  0  0  0  0  0  0  0  0  0  0
    4.1441  -10.2918    0.0000 H   0  0  0  0  0  0  0  0  0  0  0  0
    2.0467   -9.3708    0.0000 N   0  0  0  0  0  0  0  0  0  0  0  0
    1.4380  -10.7337    0.0000 C   0  0  0  0  0  0  0  0  0  0  0  0
   -0.0294  -11.0446    0.0000 H   0  0  0  0  0  0  0  0  0  0  0  0
  1  2  1  0  0  0  0 
  1  3  1  0  0  0  0 
  1  4  1  0  0  0  0 
  1  5  1  0  0  0  0 
  5  6  1  6  0  0  0 
  5  7  1  0  0  0  0 
  7  8  2  0  0  0  0 
  8  9  1  0  0  0  0 
  9 10  2  0  0  0  0 
 10 11  1  0  0  0  0 
 10 12  1  0  0  0  0 
 12 13  1  0  0  0  0 
 12 14  2  0  0  0  0 
  7 14  1  0  0  0  0 
 14 15  1  0  0  0  0 
  9 16  1  0  0  0  0 
 16 17  1  0  0  0  0 
  8 18  1  0  0  0  0 
  5 19  1  1  0  0  0 
 19 20  1  0  0  0  0 
 20 21  2  0  0  0  0 
 21 22  1  0  0  0  0 
 21 23  1  0  0  0  0 
 23 24  2  0  0  0  0 
 24 25  1  0  0  0  0 
 24 26  1  0  0  0  0 
 26 27  2  0  0  0  0 
 20 27  1  0  0  0  0 
 27 28  1  0  0  0  0 
 28 29  1  0  0  0  0 
 28 30  1  0  0  0  0 
 23 31  1  0  0  0  0 
 31 32  2  0  0  0  0 
 32 33  1  0  0  0  0 
 32 34  1  0  0  0  0 
 34 35  1  0  0  0  0 
 35 36  1  0  0  0  0 
 35 37  1  0  0  0  0 
 37 38  1  0  0  0  0 
 37 39  1  0  0  0  0 
 37 40  1  0  0  0  0 
 40 41  1  0  0  0  0 
 40 42  1  0  0  0  0 
 40 43  1  0  0  0  0 
 43 44  1  0  0  0  0 
 43 45  1  0  0  0  0 
 45 46  1  0  0  0  0 
 45 47  1  0  0  0  0 
 45 48  1  0  0  0  0 
 35 48  1  0  0  0  0 
 48 49  1  0  0  0  0 
 48 50  1  0  0  0  0 
 34 51  1  0  0  0  0 
 51 52  2  0  0  0  0 
 31 52  1  0  0  0  0 
 52 53  1  0  0  0  0 
M  END
> <Rank>
39

> <Priority_score>
0.016800000000000002

> <Reaction_type>
oxidative dehalogenation benzyl

> <Parent_ID>
51

> <Parent_InChI>
InChI=1S/C21H22Cl2FN5O/c1-12(19-16(22)2-3-17(24)20(19)23)30-18-8-13(9-27-21(18)25)14-10-28-29(11-14)15-4-6-26-7-5-15/h2-3,8-12,15,26H,4-7H2,1H3,(H2,25,27)

> <Parent_SMILES>
C[C@@H](Oc1cc(-c2cnn(C3CCNCC3)c2)cnc1N)c1c(Cl)ccc(F)c1Cl

$$$$
Molecule 51_metabolite 40
  CDK     0516241031

 53 56  0  0  0  0  0  0  0  0999 V2000
    1.3367   -8.5000    0.0000 C   0  0  0  0  0  0  0  0  0  0  0  0
    2.5502   -9.3818    0.0000 H   0  0  0  0  0  0  0  0  0  0  0  0
    0.6790   -9.8481    0.0000 H   0  0  0  0  0  0  0  0  0  0  0  0
   -0.1051   -8.0864    0.0000 H   0  0  0  0  0  0  0  0  0  0  0  0
    1.4937   -7.0082    0.0000 C   0  0  2  0  0  0  0  0  0  0  0  0
    2.1514   -5.6601    0.0000 H   0  0  0  0  0  0  0  0  0  0  0  0
    3.8583   -7.6866    0.0000 C   0  0  0  0  0  0  0  0  0  0  0  0
    4.2215   -9.1428    0.0000 C   0  0  0  0  0  0  0  0  0  0  0  0
    5.6639   -9.5574    0.0000 C   0  0  0  0  0  0  0  0  0  0  0  0
    6.7432   -8.5157    0.0000 C   0  0  0  0  0  0  0  0  0  0  0  0
    8.1851   -8.9293    0.0000 H   0  0  0  0  0  0  0  0  0  0  0  0
    6.3801   -7.0595    0.0000 C   0  0  0  0  0  0  0  0  0  0  0  0
    7.4594   -6.0178    0.0000 H   0  0  0  0  0  0  0  0  0  0  0  0
    4.9376   -6.6449    0.0000 C   0  0  0  0  0  0  0  0  0  0  0  0
    4.5754   -5.1893    0.0000 Cl  0  0  0  0  0  0  0  0  0  0  0  0
    6.0262  -11.0130    0.0000 F   0  0  0  0  0  0  0  0  0  0  0  0
    3.1422  -10.1845    0.0000 O   0  0  0  0  0  0  0  0  0  0  0  0
    3.5046  -11.6400    0.0000 H   0  0  0  0  0  0  0  0  0  0  0  0
    0.2803   -6.1264    0.0000 O   0  0  0  0  0  0  0  0  0  0  0  0
   -1.0901   -6.7363    0.0000 C   0  0  0  0  0  0  0  0  0  0  0  0
   -1.2474   -8.2289    0.0000 C   0  0  0  0  0  0  0  0  0  0  0  0
   -0.0338   -9.1105    0.0000 H   0  0  0  0  0  0  0  0  0  0  0  0
   -2.6183   -8.8398    0.0000 C   0  0  0  0  0  0  0  0  0  0  0  0
   -3.8318   -7.9582    0.0000 C   0  0  0  0  0  0  0  0  0  0  0  0
   -5.2022   -8.5682    0.0000 H   0  0  0  0  0  0  0  0  0  0  0  0
   -3.6745   -6.4656    0.0000 N   0  0  0  0  0  0  0  0  0  0  0  0
   -2.3037   -5.8547    0.0000 C   0  0  0  0  0  0  0  0  0  0  0  0
   -2.1472   -4.3629    0.0000 N   0  0  0  0  0  0  0  0  0  0  0  0
   -3.3609   -3.4815    0.0000 H   0  0  0  0  0  0  0  0  0  0  0  0
   -0.7770   -3.7525    0.0000 H   0  0  0  0  0  0  0  0  0  0  0  0
   -2.7748  -10.3317    0.0000 C   0  0  0  0  0  0  0  0  0  0  0  0
   -4.0670  -11.0788    0.0000 C   0  0  0  0  0  0  0  0  0  0  0  0
   -5.4356  -10.4650    0.0000 H   0  0  0  0  0  0  0  0  0  0  0  0
   -3.7636  -12.5499    0.0000 N   0  0  0  0  0  0  0  0  0  0  0  0
   -4.7676  -13.6644    0.0000 C   0  0  0  0  0  0  0  0  0  0  0  0
   -3.4955  -14.4593    0.0000 H   0  0  0  0  0  0  0  0  0  0  0  0
   -5.3296  -15.0561    0.0000 C   0  0  0  0  0  0  0  0  0  0  0  0
   -3.8623  -15.3678    0.0000 H   0  0  0  0  0  0  0  0  0  0  0  0
   -5.3820  -16.5551    0.0000 H   0  0  0  0  0  0  0  0  0  0  0  0
   -6.8150  -15.2646    0.0000 C   0  0  0  0  0  0  0  0  0  0  0  0
   -6.3518  -16.6913    0.0000 H   0  0  0  0  0  0  0  0  0  0  0  0
   -8.1397  -15.9684    0.0000 H   0  0  0  0  0  0  0  0  0  0  0  0
   -7.7385  -14.0815    0.0000 N   0  0  0  0  0  0  0  0  0  0  0  0
   -9.2239  -14.2901    0.0000 H   0  0  0  0  0  0  0  0  0  0  0  0
   -7.1765  -12.6899    0.0000 C   0  0  0  0  0  0  0  0  0  0  0  0
   -8.6437  -12.3781    0.0000 H   0  0  0  0  0  0  0  0  0  0  0  0
   -7.1241  -11.1908    0.0000 H   0  0  0  0  0  0  0  0  0  0  0  0
   -5.6911  -12.4813    0.0000 C   0  0  0  0  0  0  0  0  0  0  0  0
   -6.1542  -11.0546    0.0000 H   0  0  0  0  0  0  0  0  0  0  0  0
   -4.3664  -11.7776    0.0000 H   0  0  0  0  0  0  0  0  0  0  0  0
   -2.2689  -12.6985    0.0000 N   0  0  0  0  0  0  0  0  0  0  0  0
   -1.6603  -11.3356    0.0000 C   0  0  0  0  0  0  0  0  0  0  0  0
   -0.1928  -11.0248    0.0000 H   0  0  0  0  0  0  0  0  0  0  0  0
  1  2  1  0  0  0  0 
  1  3  1  0  0  0  0 
  1  4  1  0  0  0  0 
  1  5  1  0  0  0  0 
  5  6  1  6  0  0  0 
  5  7  1  0  0  0  0 
  7  8  2  0  0  0  0 
  8  9  1  0  0  0  0 
  9 10  2  0  0  0  0 
 10 11  1  0  0  0  0 
 10 12  1  0  0  0  0 
 12 13  1  0  0  0  0 
 12 14  2  0  0  0  0 
  7 14  1  0  0  0  0 
 14 15  1  0  0  0  0 
  9 16  1  0  0  0  0 
  8 17  1  0  0  0  0 
 17 18  1  0  0  0  0 
  5 19  1  1  0  0  0 
 19 20  1  0  0  0  0 
 20 21  2  0  0  0  0 
 21 22  1  0  0  0  0 
 21 23  1  0  0  0  0 
 23 24  2  0  0  0  0 
 24 25  1  0  0  0  0 
 24 26  1  0  0  0  0 
 26 27  2  0  0  0  0 
 20 27  1  0  0  0  0 
 27 28  1  0  0  0  0 
 28 29  1  0  0  0  0 
 28 30  1  0  0  0  0 
 23 31  1  0  0  0  0 
 31 32  2  0  0  0  0 
 32 33  1  0  0  0  0 
 32 34  1  0  0  0  0 
 34 35  1  0  0  0  0 
 35 36  1  0  0  0  0 
 35 37  1  0  0  0  0 
 37 38  1  0  0  0  0 
 37 39  1  0  0  0  0 
 37 40  1  0  0  0  0 
 40 41  1  0  0  0  0 
 40 42  1  0  0  0  0 
 40 43  1  0  0  0  0 
 43 44  1  0  0  0  0 
 43 45  1  0  0  0  0 
 45 46  1  0  0  0  0 
 45 47  1  0  0  0  0 
 45 48  1  0  0  0  0 
 35 48  1  0  0  0  0 
 48 49  1  0  0  0  0 
 48 50  1  0  0  0  0 
 34 51  1  0  0  0  0 
 51 52  2  0  0  0  0 
 31 52  1  0  0  0  0 
 52 53  1  0  0  0  0 
M  END
> <Rank>
40

> <Priority_score>
0.009600000000000001

> <Reaction_type>
oxidative dehalogenation benzyl

> <Parent_ID>
51

> <Parent_InChI>
InChI=1S/C21H22Cl2FN5O/c1-12(19-16(22)2-3-17(24)20(19)23)30-18-8-13(9-27-21(18)25)14-10-28-29(11-14)15-4-6-26-7-5-15/h2-3,8-12,15,26H,4-7H2,1H3,(H2,25,27)

> <Parent_SMILES>
C[C@@H](Oc1cc(-c2cnn(C3CCNCC3)c2)cnc1N)c1c(Cl)ccc(F)c1Cl

$$$$
Molecule 51_metabolite 41
  CDK     0516241031

 53 56  0  0  0  0  0  0  0  0999 V2000
    1.3361   -8.5000    0.0000 C   0  0  0  0  0  0  0  0  0  0  0  0
    2.5495   -9.3818    0.0000 H   0  0  0  0  0  0  0  0  0  0  0  0
    0.6784   -9.8481    0.0000 H   0  0  0  0  0  0  0  0  0  0  0  0
   -0.1058   -8.0864    0.0000 H   0  0  0  0  0  0  0  0  0  0  0  0
    1.4931   -7.0082    0.0000 C   0  0  2  0  0  0  0  0  0  0  0  0
    2.1508   -5.6601    0.0000 H   0  0  0  0  0  0  0  0  0  0  0  0
    3.8577   -7.6866    0.0000 C   0  0  0  0  0  0  0  0  0  0  0  0
    4.9376   -6.6443    0.0000 C   0  0  0  0  0  0  0  0  0  0  0  0
    6.3804   -7.0575    0.0000 C   0  0  0  0  0  0  0  0  0  0  0  0
    6.7434   -8.5129    0.0000 C   0  0  0  0  0  0  0  0  0  0  0  0
    8.1852   -8.9266    0.0000 H   0  0  0  0  0  0  0  0  0  0  0  0
    5.6635   -9.5552    0.0000 C   0  0  0  0  0  0  0  0  0  0  0  0
    6.0264  -11.0106    0.0000 H   0  0  0  0  0  0  0  0  0  0  0  0
    4.2206   -9.1420    0.0000 C   0  0  0  0  0  0  0  0  0  0  0  0
    3.1418  -10.1842    0.0000 O   0  0  0  0  0  0  0  0  0  0  0  0
    3.5050  -11.6396    0.0000 H   0  0  0  0  0  0  0  0  0  0  0  0
    7.4592   -6.0153    0.0000 F   0  0  0  0  0  0  0  0  0  0  0  0
    4.5746   -5.1889    0.0000 Cl  0  0  0  0  0  0  0  0  0  0  0  0
    0.2796   -6.1264    0.0000 O   0  0  0  0  0  0  0  0  0  0  0  0
   -1.0908   -6.7364    0.0000 C   0  0  0  0  0  0  0  0  0  0  0  0
   -1.2480   -8.2289    0.0000 C   0  0  0  0  0  0  0  0  0  0  0  0
   -0.0345   -9.1106    0.0000 H   0  0  0  0  0  0  0  0  0  0  0  0
   -2.6189   -8.8399    0.0000 C   0  0  0  0  0  0  0  0  0  0  0  0
   -3.8325   -7.9582    0.0000 C   0  0  0  0  0  0  0  0  0  0  0  0
   -5.2029   -8.5682    0.0000 H   0  0  0  0  0  0  0  0  0  0  0  0
   -3.6752   -6.4657    0.0000 N   0  0  0  0  0  0  0  0  0  0  0  0
   -2.3043   -5.8547    0.0000 C   0  0  0  0  0  0  0  0  0  0  0  0
   -2.1478   -4.3629    0.0000 N   0  0  0  0  0  0  0  0  0  0  0  0
   -3.3615   -3.4815    0.0000 H   0  0  0  0  0  0  0  0  0  0  0  0
   -0.7776   -3.7525    0.0000 H   0  0  0  0  0  0  0  0  0  0  0  0
   -2.7754  -10.3317    0.0000 C   0  0  0  0  0  0  0  0  0  0  0  0
   -4.0676  -11.0788    0.0000 C   0  0  0  0  0  0  0  0  0  0  0  0
   -5.4362  -10.4650    0.0000 H   0  0  0  0  0  0  0  0  0  0  0  0
   -3.7643  -12.5499    0.0000 N   0  0  0  0  0  0  0  0  0  0  0  0
   -4.7682  -13.6644    0.0000 C   0  0  0  0  0  0  0  0  0  0  0  0
   -3.4962  -14.4593    0.0000 H   0  0  0  0  0  0  0  0  0  0  0  0
   -5.3302  -15.0561    0.0000 C   0  0  0  0  0  0  0  0  0  0  0  0
   -3.8630  -15.3678    0.0000 H   0  0  0  0  0  0  0  0  0  0  0  0
   -5.3826  -16.5552    0.0000 H   0  0  0  0  0  0  0  0  0  0  0  0
   -6.8156  -15.2646    0.0000 C   0  0  0  0  0  0  0  0  0  0  0  0
   -6.3525  -16.6913    0.0000 H   0  0  0  0  0  0  0  0  0  0  0  0
   -8.1403  -15.9684    0.0000 H   0  0  0  0  0  0  0  0  0  0  0  0
   -7.7391  -14.0815    0.0000 N   0  0  0  0  0  0  0  0  0  0  0  0
   -9.2245  -14.2901    0.0000 H   0  0  0  0  0  0  0  0  0  0  0  0
   -7.1771  -12.6899    0.0000 C   0  0  0  0  0  0  0  0  0  0  0  0
   -8.6444  -12.3781    0.0000 H   0  0  0  0  0  0  0  0  0  0  0  0
   -7.1247  -11.1908    0.0000 H   0  0  0  0  0  0  0  0  0  0  0  0
   -5.6917  -12.4813    0.0000 C   0  0  0  0  0  0  0  0  0  0  0  0
   -6.1549  -11.0546    0.0000 H   0  0  0  0  0  0  0  0  0  0  0  0
   -4.3670  -11.7776    0.0000 H   0  0  0  0  0  0  0  0  0  0  0  0
   -2.2696  -12.6986    0.0000 N   0  0  0  0  0  0  0  0  0  0  0  0
   -1.6609  -11.3356    0.0000 C   0  0  0  0  0  0  0  0  0  0  0  0
   -0.1935  -11.0248    0.0000 H   0  0  0  0  0  0  0  0  0  0  0  0
  1  2  1  0  0  0  0 
  1  3  1  0  0  0  0 
  1  4  1  0  0  0  0 
  1  5  1  0  0  0  0 
  5  6  1  6  0  0  0 
  5  7  1  0  0  0  0 
  7  8  2  0  0  0  0 
  8  9  1  0  0  0  0 
  9 10  2  0  0  0  0 
 10 11  1  0  0  0  0 
 10 12  1  0  0  0  0 
 12 13  1  0  0  0  0 
 12 14  2  0  0  0  0 
  7 14  1  0  0  0  0 
 14 15  1  0  0  0  0 
 15 16  1  0  0  0  0 
  9 17  1  0  0  0  0 
  8 18  1  0  0  0  0 
  5 19  1  1  0  0  0 
 19 20  1  0  0  0  0 
 20 21  2  0  0  0  0 
 21 22  1  0  0  0  0 
 21 23  1  0  0  0  0 
 23 24  2  0  0  0  0 
 24 25  1  0  0  0  0 
 24 26  1  0  0  0  0 
 26 27  2  0  0  0  0 
 20 27  1  0  0  0  0 
 27 28  1  0  0  0  0 
 28 29  1  0  0  0  0 
 28 30  1  0  0  0  0 
 23 31  1  0  0  0  0 
 31 32  2  0  0  0  0 
 32 33  1  0  0  0  0 
 32 34  1  0  0  0  0 
 34 35  1  0  0  0  0 
 35 36  1  0  0  0  0 
 35 37  1  0  0  0  0 
 37 38  1  0  0  0  0 
 37 39  1  0  0  0  0 
 37 40  1  0  0  0  0 
 40 41  1  0  0  0  0 
 40 42  1  0  0  0  0 
 40 43  1  0  0  0  0 
 43 44  1  0  0  0  0 
 43 45  1  0  0  0  0 
 45 46  1  0  0  0  0 
 45 47  1  0  0  0  0 
 45 48  1  0  0  0  0 
 35 48  1  0  0  0  0 
 48 49  1  0  0  0  0 
 48 50  1  0  0  0  0 
 34 51  1  0  0  0  0 
 51 52  2  0  0  0  0 
 31 52  1  0  0  0  0 
 52 53  1  0  0  0  0 
M  END
> <Rank>
41

> <Priority_score>
0.0088

> <Reaction_type>
oxidative dehalogenation benzyl

> <Parent_ID>
51

> <Parent_InChI>
InChI=1S/C21H22Cl2FN5O/c1-12(19-16(22)2-3-17(24)20(19)23)30-18-8-13(9-27-21(18)25)14-10-28-29(11-14)15-4-6-26-7-5-15/h2-3,8-12,15,26H,4-7H2,1H3,(H2,25,27)

> <Parent_SMILES>
C[C@@H](Oc1cc(-c2cnn(C3CCNCC3)c2)cnc1N)c1c(Cl)ccc(F)c1Cl

$$$$
Molecule 52
  CDK     0516241031

 27 30  0  0  0  0  0  0  0  0999 V2000
    1.6063    3.6494    0.0000 C   0  0  0  0  0  0  0  0  0  0  0  0
    1.6500    2.1500    0.0000 C   0  0  2  0  0  0  0  0  0  0  0  0
    2.9200    1.4000    0.0000 C   0  0  0  0  0  0  0  0  0  0  0  0
    2.9200   -0.0900    0.0000 C   0  0  0  0  0  0  0  0  0  0  0  0
    1.7600   -1.0000    0.0000 C   0  0  1  0  0  0  0  0  0  0  0  0
    1.7600   -2.5000    0.0000 C   0  0  1  0  0  0  0  0  0  0  0  0
    3.0589   -3.2502    0.0000 C   0  0  0  0  0  0  0  0  0  0  0  0
    0.4600   -3.2500    0.0000 C   0  0  2  0  0  0  0  0  0  0  0  0
    0.4575   -4.7500    0.0000 O   0  0  0  0  0  0  0  0  0  0  0  0
    1.7553   -5.5022    0.0000 C   0  0  0  0  0  0  0  0  0  0  0  0
    3.0556   -4.7543    0.0000 O   0  0  0  0  0  0  0  0  0  0  0  0
    1.7528   -7.0022    0.0000 C   0  0  0  0  0  0  0  0  0  0  0  0
    3.0505   -7.7543    0.0000 C   0  0  0  0  0  0  0  0  0  0  0  0
    3.0480   -9.2543    0.0000 C   0  0  0  0  0  0  0  0  0  0  0  0
    1.7477  -10.0022    0.0000 O   0  0  0  0  0  0  0  0  0  0  0  0
    4.3458  -10.0065    0.0000 O   0  0  0  0  0  0  0  0  0  0  0  0
   -0.8300   -2.5000    0.0000 O   0  0  0  0  0  0  0  0  0  0  0  0
   -0.8300   -1.0000    0.0000 C   0  0  1  0  0  0  0  0  0  0  0  0
    0.4600   -0.2400    0.0000 C   0  0  1  0  0  0  0  0  0  0  0  0
    0.4000    1.3100    0.0000 C   0  0  1  0  0  0  0  0  0  0  0  0
   -0.8000    2.3700    0.0000 C   0  0  0  0  0  0  0  0  0  0  0  0
   -2.2700    2.0600    0.0000 C   0  0  0  0  0  0  0  0  0  0  0  0
   -2.9300    0.7000    0.0000 C   0  0  2  0  0  0  0  0  0  0  0  0
   -4.4300    0.7090    0.0000 C   0  0  0  0  0  0  0  0  0  0  0  0
   -2.2900   -0.6600    0.0000 O   0  0  0  0  0  0  0  0  0  0  0  0
   -1.5100    1.1600    0.0000 O   0  0  0  0  0  0  0  0  0  0  0  0
   -0.8700    0.0900    0.0000 O   0  0  0  0  0  0  0  0  0  0  0  0
  2  1  1  6  0  0  0 
  2  3  1  0  0  0  0 
  3  4  1  0  0  0  0 
  5  4  1  1  0  0  0 
  5  6  1  0  0  0  0 
  6  7  1  1  0  0  0 
  6  8  1  0  0  0  0 
  8  9  1  6  0  0  0 
  9 10  1  0  0  0  0 
 10 11  2  0  0  0  0 
 10 12  1  0  0  0  0 
 12 13  1  0  0  0  0 
 13 14  1  0  0  0  0 
 14 15  2  0  0  0  0 
 14 16  1  0  0  0  0 
  8 17  1  0  0  0  0 
 18 17  1  6  0  0  0 
 19 18  1  1  0  0  0 
  5 19  1  0  0  0  0 
 19 20  1  0  0  0  0 
  2 20  1  0  0  0  0 
 20 21  1  1  0  0  0 
 21 22  1  0  0  0  0 
 22 23  1  0  0  0  0 
 23 24  1  6  0  0  0 
 23 25  1  0  0  0  0 
 18 25  1  0  0  0  0 
 23 26  1  0  0  0  0 
 26 27  1  0  0  0  0 
 19 27  1  6  0  0  0 
M  END
> <SMILES>
C[C@@H]1CC[C@H]2[C@@H](C)[C@H](OC(=O)CCC(=O)O)O[C@@H]3O[C@@]4(C)CC[C@@H]1[C@@]23OO4

$$$$
Molecule 52_metabolite 1
  CDK     0516241031

 75 79  0  0  0  0  0  0  0  0999 V2000
  -12.8539   -7.8148    0.0000 C   0  0  0  0  0  0  0  0  0  0  0  0
  -14.1388   -7.0408    0.0000 H   0  0  0  0  0  0  0  0  0  0  0  0
  -11.9113   -8.9816    0.0000 H   0  0  0  0  0  0  0  0  0  0  0  0
  -13.8393   -8.9458    0.0000 H   0  0  0  0  0  0  0  0  0  0  0  0
  -10.7010   -6.6246    0.0000 C   0  0  2  0  0  0  0  0  0  0  0  0
  -11.6131   -5.4337    0.0000 H   0  0  0  0  0  0  0  0  0  0  0  0
  -10.1863   -8.0068    0.0000 C   0  0  0  0  0  0  0  0  0  0  0  0
  -10.1851   -9.5068    0.0000 H   0  0  0  0  0  0  0  0  0  0  0  0
  -11.6625   -8.2734    0.0000 H   0  0  0  0  0  0  0  0  0  0  0  0
   -8.7196   -8.2691    0.0000 C   0  0  0  0  0  0  0  0  0  0  0  0
   -9.4478   -6.9577    0.0000 H   0  0  0  0  0  0  0  0  0  0  0  0
   -9.3020   -9.6515    0.0000 H   0  0  0  0  0  0  0  0  0  0  0  0
   -7.6196   -7.2875    0.0000 C   0  0  1  0  0  0  0  0  0  0  0  0
   -7.2111   -8.7308    0.0000 H   0  0  0  0  0  0  0  0  0  0  0  0
   -6.1430   -7.5516    0.0000 C   0  0  1  0  0  0  0  0  0  0  0  0
   -4.8457   -8.3045    0.0000 H   0  0  0  0  0  0  0  0  0  0  0  0
   -6.9898   -9.8612    0.0000 C   0  0  0  0  0  0  0  0  0  0  0  0
   -6.0283  -11.0125    0.0000 H   0  0  0  0  0  0  0  0  0  0  0  0
   -7.9567  -11.0080    0.0000 H   0  0  0  0  0  0  0  0  0  0  0  0
   -8.2871   -9.1082    0.0000 H   0  0  0  0  0  0  0  0  0  0  0  0
   -5.1759   -6.4039    0.0000 C   0  0  2  0  0  0  0  0  0  0  0  0
   -3.8766   -5.6543    0.0000 H   0  0  0  0  0  0  0  0  0  0  0  0
   -4.2131   -7.5542    0.0000 O   0  0  0  0  0  0  0  0  0  0  0  0
   -2.7356   -7.2955    0.0000 C   0  0  0  0  0  0  0  0  0  0  0  0
   -2.2208   -5.8866    0.0000 O   0  0  0  0  0  0  0  0  0  0  0  0
   -1.7728   -8.4457    0.0000 C   0  0  0  0  0  0  0  0  0  0  0  0
   -1.2615   -9.8559    0.0000 H   0  0  0  0  0  0  0  0  0  0  0  0
   -3.0728   -9.1941    0.0000 H   0  0  0  0  0  0  0  0  0  0  0  0
   -0.2953   -8.1871    0.0000 C   0  0  0  0  0  0  0  0  0  0  0  0
   -0.8066   -6.7769    0.0000 H   0  0  0  0  0  0  0  0  0  0  0  0
    1.0047   -7.4387    0.0000 H   0  0  0  0  0  0  0  0  0  0  0  0
    0.6675   -9.3373    0.0000 C   0  0  0  0  0  0  0  0  0  0  0  0
    0.1528  -10.7462    0.0000 O   0  0  0  0  0  0  0  0  0  0  0  0
    2.1450   -9.0786    0.0000 O   0  0  0  0  0  0  0  0  0  0  0  0
    3.1078  -10.2289    0.0000 C   0  0  0  0  0  0  0  0  0  0  0  0
    1.8096  -10.9803    0.0000 H   0  0  0  0  0  0  0  0  0  0  0  0
    4.0696   -9.0909    0.0000 C   0  0  0  0  0  0  0  0  0  0  0  0
    4.5887   -7.6836    0.0000 H   0  0  0  0  0  0  0  0  0  0  0  0
    5.5683   -9.3624    0.0000 C   0  0  0  0  0  0  0  0  0  0  0  0
    7.0475   -9.1131    0.0000 H   0  0  0  0  0  0  0  0  0  0  0  0
    6.0707  -10.7820    0.0000 C   0  0  0  0  0  0  0  0  0  0  0  0
    7.0287  -11.9362    0.0000 H   0  0  0  0  0  0  0  0  0  0  0  0
    5.1089  -11.9201    0.0000 C   0  0  0  0  0  0  0  0  0  0  0  0
    4.5906  -13.3277    0.0000 H   0  0  0  0  0  0  0  0  0  0  0  0
    7.2348  -13.1578    0.0000 C   0  0  0  0  0  0  0  0  0  0  0  0
    8.5366  -12.4125    0.0000 O   0  0  0  0  0  0  0  0  0  0  0  0
    7.2294  -14.6578    0.0000 O   0  0  0  0  0  0  0  0  0  0  0  0
    8.5257  -15.4125    0.0000 H   0  0  0  0  0  0  0  0  0  0  0  0
    3.6319  -11.6538    0.0000 O   0  0  0  0  0  0  0  0  0  0  0  0
    7.3750  -10.0413    0.0000 O   0  0  0  0  0  0  0  0  0  0  0  0
    8.6687  -10.8006    0.0000 H   0  0  0  0  0  0  0  0  0  0  0  0
    5.5775   -7.8625    0.0000 O   0  0  0  0  0  0  0  0  0  0  0  0
    6.8811   -7.1204    0.0000 H   0  0  0  0  0  0  0  0  0  0  0  0
    2.7735   -8.3358    0.0000 O   0  0  0  0  0  0  0  0  0  0  0  0
    2.7794   -6.8358    0.0000 H   0  0  0  0  0  0  0  0  0  0  0  0
   -5.6870   -5.0020    0.0000 O   0  0  0  0  0  0  0  0  0  0  0  0
   -7.1636   -4.7379    0.0000 C   0  0  1  0  0  0  0  0  0  0  0  0
   -6.0387   -3.7457    0.0000 H   0  0  0  0  0  0  0  0  0  0  0  0
   -8.1389   -5.8740    0.0000 C   0  0  1  0  0  0  0  0  0  0  0  0
   -9.6541   -5.5420    0.0000 C   0  0  1  0  0  0  0  0  0  0  0  0
   -9.1164   -4.1417    0.0000 H   0  0  0  0  0  0  0  0  0  0  0  0
  -10.4863   -4.1741    0.0000 C   0  0  0  0  0  0  0  0  0  0  0  0
  -11.8616   -4.7729    0.0000 H   0  0  0  0  0  0  0  0  0  0  0  0
  -11.7260   -3.3297    0.0000 H   0  0  0  0  0  0  0  0  0  0  0  0
   -9.9223   -2.7817    0.0000 C   0  0  0  0  0  0  0  0  0  0  0  0
  -11.4019   -2.5354    0.0000 H   0  0  0  0  0  0  0  0  0  0  0  0
  -10.0047   -1.2840    0.0000 H   0  0  0  0  0  0  0  0  0  0  0  0
   -8.4673   -2.3714    0.0000 C   0  0  2  0  0  0  0  0  0  0  0  0
   -8.2121   -0.8933    0.0000 C   0  0  0  0  0  0  0  0  0  0  0  0
   -9.3646    0.0668    0.0000 H   0  0  0  0  0  0  0  0  0  0  0  0
   -7.4667    0.4084    0.0000 H   0  0  0  0  0  0  0  0  0  0  0  0
   -6.8008   -1.4013    0.0000 H   0  0  0  0  0  0  0  0  0  0  0  0
   -7.2413   -3.2409    0.0000 O   0  0  0  0  0  0  0  0  0  0  0  0
   -9.1702   -3.6883    0.0000 O   0  0  0  0  0  0  0  0  0  0  0  0
   -8.2296   -4.5067    0.0000 O   0  0  0  0  0  0  0  0  0  0  0  0
  1  2  1  0  0  0  0 
  1  3  1  0  0  0  0 
  1  4  1  0  0  0  0 
  5  1  1  1  0  0  0 
  5  6  1  6  0  0  0 
  5  7  1  0  0  0  0 
  7  8  1  0  0  0  0 
  7  9  1  0  0  0  0 
  7 10  1  0  0  0  0 
 10 11  1  0  0  0  0 
 10 12  1  0  0  0  0 
 10 13  1  0  0  0  0 
 13 14  1  1  0  0  0 
 13 15  1  0  0  0  0 
 15 16  1  1  0  0  0 
 15 17  1  6  0  0  0 
 17 18  1  0  0  0  0 
 17 19  1  0  0  0  0 
 17 20  1  0  0  0  0 
 15 21  1  0  0  0  0 
 21 22  1  6  0  0  0 
 21 23  1  1  0  0  0 
 23 24  1  0  0  0  0 
 24 25  2  0  0  0  0 
 24 26  1  0  0  0  0 
 26 27  1  0  0  0  0 
 26 28  1  0  0  0  0 
 26 29  1  0  0  0  0 
 29 30  1  0  0  0  0 
 29 31  1  0  0  0  0 
 29 32  1  0  0  0  0 
 32 33  2  0  0  0  0 
 32 34  1  0  0  0  0 
 34 35  1  0  0  0  0 
 35 36  1  0  0  0  0 
 35 37  1  0  0  0  0 
 37 38  1  0  0  0  0 
 37 39  1  0  0  0  0 
 39 40  1  0  0  0  0 
 39 41  1  0  0  0  0 
 41 42  1  0  0  0  0 
 41 43  1  0  0  0  0 
 43 44  1  0  0  0  0 
 43 45  1  0  0  0  0 
 45 46  2  0  0  0  0 
 45 47  1  0  0  0  0 
 47 48  1  0  0  0  0 
 43 49  1  0  0  0  0 
 35 49  1  0  0  0  0 
 41 50  1  0  0  0  0 
 50 51  1  0  0  0  0 
 39 52  1  0  0  0  0 
 52 53  1  0  0  0  0 
 37 54  1  0  0  0  0 
 54 55  1  0  0  0  0 
 21 56  1  0  0  0  0 
 56 57  1  0  0  0  0 
 57 58  1  6  0  0  0 
 59 57  1  6  0  0  0 
 13 59  1  0  0  0  0 
 59 60  1  0  0  0  0 
  5 60  1  0  0  0  0 
 60 61  1  1  0  0  0 
 60 62  1  0  0  0  0 
 62 63  1  0  0  0  0 
 62 64  1  0  0  0  0 
 62 65  1  0  0  0  0 
 65 66  1  0  0  0  0 
 65 67  1  0  0  0  0 
 65 68  1  0  0  0  0 
 68 69  1  0  0  0  0 
 69 70  1  0  0  0  0 
 69 71  1  0  0  0  0 
 69 72  1  0  0  0  0 
 68 73  1  6  0  0  0 
 57 73  1  0  0  0  0 
 68 74  1  0  0  0  0 
 74 75  1  0  0  0  0 
 59 75  1  1  0  0  0 
M  END
> <Rank>
1

> <Priority_score>
0.8027148440807602

> <Reaction_type>
O-glucuronidation_(aliphatic_carboxyl)

> <Parent_ID>
52

> <Parent_InChI>
InChI=1S/C19H28O8/c1-10-4-5-13-11(2)16(23-15(22)7-6-14(20)21)24-17-19(13)12(10)8-9-18(3,25-17)26-27-19/h10-13,16-17H,4-9H2,1-3H3,(H,20,21)

> <Parent_SMILES>
C[C@@H]1CC[C@H]2[C@@H](C)[C@H](OC(=O)CCC(=O)O)O[C@@H]3O[C@@]4(C)CC[C@@H]1[C@@]23OO4

$$$$
Molecule 52_metabolite 2
  CDK     0516241031

 53 56  0  0  0  0  0  0  0  0999 V2000
    2.4888    2.3437    0.0000 C   0  0  0  0  0  0  0  0  0  0  0  0
    1.9531    3.7448    0.0000 H   0  0  0  0  0  0  0  0  0  0  0  0
    3.4714    1.2103    0.0000 H   0  0  0  0  0  0  0  0  0  0  0  0
    3.7756    3.1145    0.0000 H   0  0  0  0  0  0  0  0  0  0  0  0
    0.9382    0.4340    0.0000 C   0  0  2  0  0  0  0  0  0  0  0  0
    0.0002    2.7081    0.0000 H   0  0  0  0  0  0  0  0  0  0  0  0
    2.2082   -0.3160    0.0000 C   0  0  0  0  0  0  0  0  0  0  0  0
    3.6845   -0.5814    0.0000 H   0  0  0  0  0  0  0  0  0  0  0  0
    2.7304    1.0901    0.0000 H   0  0  0  0  0  0  0  0  0  0  0  0
    2.2082   -1.8060    0.0000 C   0  0  0  0  0  0  0  0  0  0  0  0
    1.0455   -0.8584    0.0000 H   0  0  0  0  0  0  0  0  0  0  0  0
    3.6715   -1.4762    0.0000 H   0  0  0  0  0  0  0  0  0  0  0  0
    1.0482   -2.7160    0.0000 C   0  0  1  0  0  0  0  0  0  0  0  0
    2.3970   -3.3723    0.0000 H   0  0  0  0  0  0  0  0  0  0  0  0
    1.0482   -4.2160    0.0000 C   0  0  1  0  0  0  0  0  0  0  0  0
    1.5609   -5.6257    0.0000 H   0  0  0  0  0  0  0  0  0  0  0  0
    2.9981   -3.8724    0.0000 C   0  0  0  0  0  0  0  0  0  0  0  0
    3.5113   -2.4629    0.0000 H   0  0  0  0  0  0  0  0  0  0  0  0
    4.4753   -4.1331    0.0000 H   0  0  0  0  0  0  0  0  0  0  0  0
    2.9980   -5.3724    0.0000 H   0  0  0  0  0  0  0  0  0  0  0  0
   -0.2518   -4.9660    0.0000 C   0  0  2  0  0  0  0  0  0  0  0  0
   -1.2184   -6.1131    0.0000 H   0  0  0  0  0  0  0  0  0  0  0  0
    0.7110   -6.1163    0.0000 O   0  0  0  0  0  0  0  0  0  0  0  0
    0.1962   -7.5252    0.0000 C   0  0  0  0  0  0  0  0  0  0  0  0
   -1.2813   -7.7839    0.0000 O   0  0  0  0  0  0  0  0  0  0  0  0
    1.1590   -8.6754    0.0000 C   0  0  0  0  0  0  0  0  0  0  0  0
    2.6365   -8.4168    0.0000 H   0  0  0  0  0  0  0  0  0  0  0  0
    0.6442  -10.0844    0.0000 C   0  0  0  0  0  0  0  0  0  0  0  0
   -0.8333  -10.3430    0.0000 H   0  0  0  0  0  0  0  0  0  0  0  0
    1.6070  -11.2346    0.0000 C   0  0  0  0  0  0  0  0  0  0  0  0
    3.0845  -10.9759    0.0000 O   0  0  0  0  0  0  0  0  0  0  0  0
    1.0922  -12.6435    0.0000 O   0  0  0  0  0  0  0  0  0  0  0  0
    2.0550  -13.7938    0.0000 H   0  0  0  0  0  0  0  0  0  0  0  0
   -1.5418   -4.2160    0.0000 O   0  0  0  0  0  0  0  0  0  0  0  0
   -1.5418   -2.7160    0.0000 C   0  0  1  0  0  0  0  0  0  0  0  0
   -2.7166   -3.6487    0.0000 H   0  0  0  0  0  0  0  0  0  0  0  0
   -0.2518   -1.9560    0.0000 C   0  0  1  0  0  0  0  0  0  0  0  0
   -0.3118   -0.4060    0.0000 C   0  0  1  0  0  0  0  0  0  0  0  0
   -1.7290    0.0856    0.0000 H   0  0  0  0  0  0  0  0  0  0  0  0
   -1.5118    0.6540    0.0000 C   0  0  0  0  0  0  0  0  0  0  0  0
   -0.3034    1.5427    0.0000 H   0  0  0  0  0  0  0  0  0  0  0  0
   -2.1248    2.0230    0.0000 H   0  0  0  0  0  0  0  0  0  0  0  0
   -2.9818    0.3440    0.0000 C   0  0  0  0  0  0  0  0  0  0  0  0
   -2.9638    1.8438    0.0000 H   0  0  0  0  0  0  0  0  0  0  0  0
   -4.4417    0.6887    0.0000 H   0  0  0  0  0  0  0  0  0  0  0  0
   -3.6418   -1.0160    0.0000 C   0  0  2  0  0  0  0  0  0  0  0  0
   -5.1418   -1.0071    0.0000 C   0  0  0  0  0  0  0  0  0  0  0  0
   -5.8840    0.2964    0.0000 H   0  0  0  0  0  0  0  0  0  0  0  0
   -6.5544   -1.5117    0.0000 H   0  0  0  0  0  0  0  0  0  0  0  0
   -4.8902   -2.4858    0.0000 H   0  0  0  0  0  0  0  0  0  0  0  0
   -3.0018   -2.3760    0.0000 O   0  0  0  0  0  0  0  0  0  0  0  0
   -2.2218   -0.5560    0.0000 O   0  0  0  0  0  0  0  0  0  0  0  0
   -1.5818   -1.6260    0.0000 O   0  0  0  0  0  0  0  0  0  0  0  0
  1  2  1  0  0  0  0 
  1  3  1  0  0  0  0 
  1  4  1  0  0  0  0 
  5  1  1  6  0  0  0 
  5  6  1  1  0  0  0 
  5  7  1  0  0  0  0 
  7  8  1  0  0  0  0 
  7  9  1  0  0  0  0 
  7 10  1  0  0  0  0 
 10 11  1  0  0  0  0 
 10 12  1  0  0  0  0 
 10 13  1  0  0  0  0 
 13 14  1  6  0  0  0 
 13 15  1  0  0  0  0 
 15 16  1  6  0  0  0 
 15 17  1  1  0  0  0 
 17 18  1  0  0  0  0 
 17 19  1  0  0  0  0 
 17 20  1  0  0  0  0 
 15 21  1  0  0  0  0 
 21 22  1  1  0  0  0 
 21 23  1  6  0  0  0 
 23 24  1  0  0  0  0 
 24 25  2  0  0  0  0 
 24 26  1  0  0  0  0 
 26 27  1  4  0  0  0 
 26 28  2  0  0  0  0 
 28 29  1  0  0  0  0 
 28 30  1  0  0  0  0 
 30 31  2  0  0  0  0 
 30 32  1  0  0  0  0 
 32 33  1  0  0  0  0 
 21 34  1  0  0  0  0 
 34 35  1  0  0  0  0 
 35 36  1  1  0  0  0 
 37 35  1  1  0  0  0 
 13 37  1  0  0  0  0 
 37 38  1  0  0  0  0 
  5 38  1  0  0  0  0 
 38 39  1  6  0  0  0 
 38 40  1  0  0  0  0 
 40 41  1  0  0  0  0 
 40 42  1  0  0  0  0 
 40 43  1  0  0  0  0 
 43 44  1  0  0  0  0 
 43 45  1  0  0  0  0 
 43 46  1  0  0  0  0 
 46 47  1  0  0  0  0 
 47 48  1  0  0  0  0 
 47 49  1  0  0  0  0 
 47 50  1  0  0  0  0 
 46 51  1  1  0  0  0 
 35 51  1  0  0  0  0 
 46 52  1  0  0  0  0 
 52 53  1  0  0  0  0 
 37 53  1  6  0  0  0 
M  END
> <Rank>
2

> <Priority_score>
0.324

> <Reaction_type>
dehydrogenation_(alpha,beta_to_SP2_both_sides)

> <Parent_ID>
52

> <Parent_InChI>
InChI=1S/C19H28O8/c1-10-4-5-13-11(2)16(23-15(22)7-6-14(20)21)24-17-19(13)12(10)8-9-18(3,25-17)26-27-19/h10-13,16-17H,4-9H2,1-3H3,(H,20,21)

> <Parent_SMILES>
C[C@@H]1CC[C@H]2[C@@H](C)[C@H](OC(=O)CCC(=O)O)O[C@@H]3O[C@@]4(C)CC[C@@H]1[C@@]23OO4

$$$$
Molecule 52_metabolite 3
  CDK     0516241031

 49 52  0  0  0  0  0  0  0  0999 V2000
    2.4888    2.3437    0.0000 C   0  0  0  0  0  0  0  0  0  0  0  0
    1.9531    3.7448    0.0000 H   0  0  0  0  0  0  0  0  0  0  0  0
    3.4714    1.2103    0.0000 H   0  0  0  0  0  0  0  0  0  0  0  0
    3.7756    3.1145    0.0000 H   0  0  0  0  0  0  0  0  0  0  0  0
    0.9382    0.4340    0.0000 C   0  0  2  0  0  0  0  0  0  0  0  0
    0.0002    2.7081    0.0000 H   0  0  0  0  0  0  0  0  0  0  0  0
    2.2082   -0.3160    0.0000 C   0  0  0  0  0  0  0  0  0  0  0  0
    3.6845   -0.5814    0.0000 H   0  0  0  0  0  0  0  0  0  0  0  0
    2.7304    1.0901    0.0000 H   0  0  0  0  0  0  0  0  0  0  0  0
    2.2082   -1.8060    0.0000 C   0  0  0  0  0  0  0  0  0  0  0  0
    1.0455   -0.8584    0.0000 H   0  0  0  0  0  0  0  0  0  0  0  0
    3.6715   -1.4762    0.0000 H   0  0  0  0  0  0  0  0  0  0  0  0
    1.0482   -2.7160    0.0000 C   0  0  1  0  0  0  0  0  0  0  0  0
    2.3970   -3.3723    0.0000 H   0  0  0  0  0  0  0  0  0  0  0  0
    1.0482   -4.2160    0.0000 C   0  0  1  0  0  0  0  0  0  0  0  0
    1.5609   -5.6257    0.0000 H   0  0  0  0  0  0  0  0  0  0  0  0
    2.9981   -3.8724    0.0000 C   0  0  0  0  0  0  0  0  0  0  0  0
    3.5113   -2.4629    0.0000 H   0  0  0  0  0  0  0  0  0  0  0  0
    4.4753   -4.1331    0.0000 H   0  0  0  0  0  0  0  0  0  0  0  0
    2.9980   -5.3724    0.0000 H   0  0  0  0  0  0  0  0  0  0  0  0
   -0.2518   -4.9660    0.0000 C   0  0  2  0  0  0  0  0  0  0  0  0
   -1.2184   -6.1131    0.0000 H   0  0  0  0  0  0  0  0  0  0  0  0
    0.7110   -6.1163    0.0000 O   0  0  0  0  0  0  0  0  0  0  0  0
    0.1962   -7.5252    0.0000 C   0  0  0  0  0  0  0  0  0  0  0  0
   -1.2813   -7.7839    0.0000 O   0  0  0  0  0  0  0  0  0  0  0  0
    1.1590   -8.6754    0.0000 C   0  0  0  0  0  0  0  0  0  0  0  0
    2.6365   -8.4168    0.0000 O   0  0  0  0  0  0  0  0  0  0  0  0
    0.6442  -10.0844    0.0000 O   0  0  0  0  0  0  0  0  0  0  0  0
    1.6070  -11.2346    0.0000 H   0  0  0  0  0  0  0  0  0  0  0  0
   -1.5418   -4.2160    0.0000 O   0  0  0  0  0  0  0  0  0  0  0  0
   -1.5418   -2.7160    0.0000 C   0  0  1  0  0  0  0  0  0  0  0  0
   -2.7166   -3.6487    0.0000 H   0  0  0  0  0  0  0  0  0  0  0  0
   -0.2518   -1.9560    0.0000 C   0  0  1  0  0  0  0  0  0  0  0  0
   -0.3118   -0.4060    0.0000 C   0  0  1  0  0  0  0  0  0  0  0  0
   -1.7290    0.0856    0.0000 H   0  0  0  0  0  0  0  0  0  0  0  0
   -1.5118    0.6540    0.0000 C   0  0  0  0  0  0  0  0  0  0  0  0
   -0.3034    1.5427    0.0000 H   0  0  0  0  0  0  0  0  0  0  0  0
   -2.1248    2.0230    0.0000 H   0  0  0  0  0  0  0  0  0  0  0  0
   -2.9818    0.3440    0.0000 C   0  0  0  0  0  0  0  0  0  0  0  0
   -2.9638    1.8438    0.0000 H   0  0  0  0  0  0  0  0  0  0  0  0
   -4.4417    0.6887    0.0000 H   0  0  0  0  0  0  0  0  0  0  0  0
   -3.6418   -1.0160    0.0000 C   0  0  2  0  0  0  0  0  0  0  0  0
   -5.1418   -1.0071    0.0000 C   0  0  0  0  0  0  0  0  0  0  0  0
   -5.8840    0.2964    0.0000 H   0  0  0  0  0  0  0  0  0  0  0  0
   -6.5544   -1.5117    0.0000 H   0  0  0  0  0  0  0  0  0  0  0  0
   -4.8902   -2.4858    0.0000 H   0  0  0  0  0  0  0  0  0  0  0  0
   -3.0018   -2.3760    0.0000 O   0  0  0  0  0  0  0  0  0  0  0  0
   -2.2218   -0.5560    0.0000 O   0  0  0  0  0  0  0  0  0  0  0  0
   -1.5818   -1.6260    0.0000 O   0  0  0  0  0  0  0  0  0  0  0  0
  1  2  1  0  0  0  0 
  1  3  1  0  0  0  0 
  1  4  1  0  0  0  0 
  5  1  1  6  0  0  0 
  5  6  1  1  0  0  0 
  5  7  1  0  0  0  0 
  7  8  1  0  0  0  0 
  7  9  1  0  0  0  0 
  7 10  1  0  0  0  0 
 10 11  1  0  0  0  0 
 10 12  1  0  0  0  0 
 10 13  1  0  0  0  0 
 13 14  1  6  0  0  0 
 13 15  1  0  0  0  0 
 15 16  1  6  0  0  0 
 15 17  1  1  0  0  0 
 17 18  1  0  0  0  0 
 17 19  1  0  0  0  0 
 17 20  1  0  0  0  0 
 15 21  1  0  0  0  0 
 21 22  1  1  0  0  0 
 21 23  1  6  0  0  0 
 23 24  1  0  0  0  0 
 24 25  2  0  0  0  0 
 24 26  1  0  0  0  0 
 26 27  2  0  0  0  0 
 26 28  1  0  0  0  0 
 28 29  1  0  0  0  0 
 21 30  1  0  0  0  0 
 30 31  1  0  0  0  0 
 31 32  1  1  0  0  0 
 33 31  1  1  0  0  0 
 13 33  1  0  0  0  0 
 33 34  1  0  0  0  0 
  5 34  1  0  0  0  0 
 34 35  1  6  0  0  0 
 34 36  1  0  0  0  0 
 36 37  1  0  0  0  0 
 36 38  1  0  0  0  0 
 36 39  1  0  0  0  0 
 39 40  1  0  0  0  0 
 39 41  1  0  0  0  0 
 39 42  1  0  0  0  0 
 42 43  1  0  0  0  0 
 43 44  1  0  0  0  0 
 43 45  1  0  0  0  0 
 43 46  1  0  0  0  0 
 42 47  1  1  0  0  0 
 31 47  1  0  0  0  0 
 42 48  1  0  0  0  0 
 48 49  1  0  0  0  0 
 33 49  1  6  0  0  0 
M  END
> <Rank>
2

> <Priority_score>
0.324

> <Reaction_type>
beta-oxidation

> <Parent_ID>
52

> <Parent_InChI>
InChI=1S/C19H28O8/c1-10-4-5-13-11(2)16(23-15(22)7-6-14(20)21)24-17-19(13)12(10)8-9-18(3,25-17)26-27-19/h10-13,16-17H,4-9H2,1-3H3,(H,20,21)

> <Parent_SMILES>
C[C@@H]1CC[C@H]2[C@@H](C)[C@H](OC(=O)CCC(=O)O)O[C@@H]3O[C@@]4(C)CC[C@@H]1[C@@]23OO4

$$$$
Molecule 52_metabolite 4
  CDK     0516241031

 56 59  0  0  0  0  0  0  0  0999 V2000
    2.6718    1.8999    0.0000 C   0  0  0  0  0  0  0  0  0  0  0  0
    2.1361    3.3010    0.0000 H   0  0  0  0  0  0  0  0  0  0  0  0
    3.6544    0.7666    0.0000 H   0  0  0  0  0  0  0  0  0  0  0  0
    3.9586    2.6708    0.0000 H   0  0  0  0  0  0  0  0  0  0  0  0
    1.1212   -0.0098    0.0000 C   0  0  2  0  0  0  0  0  0  0  0  0
    0.0002    2.7081    0.0000 H   0  0  0  0  0  0  0  0  0  0  0  0
    2.3912   -0.7598    0.0000 C   0  0  0  0  0  0  0  0  0  0  0  0
    3.8675   -1.0251    0.0000 H   0  0  0  0  0  0  0  0  0  0  0  0
    2.9135    0.6464    0.0000 H   0  0  0  0  0  0  0  0  0  0  0  0
    2.3912   -2.2498    0.0000 C   0  0  0  0  0  0  0  0  0  0  0  0
    1.2285   -1.3021    0.0000 H   0  0  0  0  0  0  0  0  0  0  0  0
    3.8545   -1.9199    0.0000 H   0  0  0  0  0  0  0  0  0  0  0  0
    1.2312   -3.1598    0.0000 C   0  0  1  0  0  0  0  0  0  0  0  0
    2.5800   -3.8160    0.0000 H   0  0  0  0  0  0  0  0  0  0  0  0
    1.2312   -4.6598    0.0000 C   0  0  1  0  0  0  0  0  0  0  0  0
    1.7439   -6.0694    0.0000 H   0  0  0  0  0  0  0  0  0  0  0  0
    3.1811   -4.3162    0.0000 C   0  0  0  0  0  0  0  0  0  0  0  0
    3.6943   -2.9067    0.0000 H   0  0  0  0  0  0  0  0  0  0  0  0
    4.6583   -4.5768    0.0000 H   0  0  0  0  0  0  0  0  0  0  0  0
    3.1810   -5.8162    0.0000 H   0  0  0  0  0  0  0  0  0  0  0  0
   -0.0688   -5.4098    0.0000 C   0  0  2  0  0  0  0  0  0  0  0  0
   -1.0354   -6.5568    0.0000 H   0  0  0  0  0  0  0  0  0  0  0  0
    0.8940   -6.5600    0.0000 O   0  0  0  0  0  0  0  0  0  0  0  0
    0.3792   -7.9689    0.0000 C   0  0  0  0  0  0  0  0  0  0  0  0
   -1.0983   -8.2276    0.0000 O   0  0  0  0  0  0  0  0  0  0  0  0
    1.3420   -9.1192    0.0000 C   0  0  0  0  0  0  0  0  0  0  0  0
    2.6401   -9.8708    0.0000 H   0  0  0  0  0  0  0  0  0  0  0  0
    2.3076   -7.9713    0.0000 H   0  0  0  0  0  0  0  0  0  0  0  0
    0.8272  -10.5281    0.0000 C   0  0  0  0  0  0  0  0  0  0  0  0
   -0.4709   -9.7765    0.0000 H   0  0  0  0  0  0  0  0  0  0  0  0
    1.7900  -11.6783    0.0000 C   0  0  0  0  0  0  0  0  0  0  0  0
    3.2675  -11.4197    0.0000 O   0  0  0  0  0  0  0  0  0  0  0  0
    1.2753  -13.0873    0.0000 O   0  0  0  0  0  0  0  0  0  0  0  0
    2.2380  -14.2375    0.0000 H   0  0  0  0  0  0  0  0  0  0  0  0
   -0.1384  -11.6760    0.0000 O   0  0  0  0  0  0  0  0  0  0  0  0
    0.3730  -13.0861    0.0000 H   0  0  0  0  0  0  0  0  0  0  0  0
   -1.3588   -4.6598    0.0000 O   0  0  0  0  0  0  0  0  0  0  0  0
   -1.3588   -3.1598    0.0000 C   0  0  1  0  0  0  0  0  0  0  0  0
   -2.5336   -4.0924    0.0000 H   0  0  0  0  0  0  0  0  0  0  0  0
   -0.0688   -2.3998    0.0000 C   0  0  1  0  0  0  0  0  0  0  0  0
   -0.1288   -0.8498    0.0000 C   0  0  1  0  0  0  0  0  0  0  0  0
   -1.6019   -1.1326    0.0000 H   0  0  0  0  0  0  0  0  0  0  0  0
   -1.3288    0.2102    0.0000 C   0  0  0  0  0  0  0  0  0  0  0  0
   -0.1204    1.0989    0.0000 H   0  0  0  0  0  0  0  0  0  0  0  0
   -1.9418    1.5792    0.0000 H   0  0  0  0  0  0  0  0  0  0  0  0
   -2.7988   -0.0998    0.0000 C   0  0  0  0  0  0  0  0  0  0  0  0
   -2.7807    1.4001    0.0000 H   0  0  0  0  0  0  0  0  0  0  0  0
   -4.2586    0.2450    0.0000 H   0  0  0  0  0  0  0  0  0  0  0  0
   -3.4588   -1.4598    0.0000 C   0  0  2  0  0  0  0  0  0  0  0  0
   -4.9588   -1.4508    0.0000 C   0  0  0  0  0  0  0  0  0  0  0  0
   -5.7010   -0.1473    0.0000 H   0  0  0  0  0  0  0  0  0  0  0  0
   -6.3714   -1.9554    0.0000 H   0  0  0  0  0  0  0  0  0  0  0  0
   -4.7072   -2.9296    0.0000 H   0  0  0  0  0  0  0  0  0  0  0  0
   -2.8188   -2.8198    0.0000 O   0  0  0  0  0  0  0  0  0  0  0  0
   -2.0388   -0.9998    0.0000 O   0  0  0  0  0  0  0  0  0  0  0  0
   -1.3988   -2.0698    0.0000 O   0  0  0  0  0  0  0  0  0  0  0  0
  1  2  1  0  0  0  0 
  1  3  1  0  0  0  0 
  1  4  1  0  0  0  0 
  5  1  1  6  0  0  0 
  5  6  1  1  0  0  0 
  5  7  1  0  0  0  0 
  7  8  1  0  0  0  0 
  7  9  1  0  0  0  0 
  7 10  1  0  0  0  0 
 10 11  1  0  0  0  0 
 10 12  1  0  0  0  0 
 10 13  1  0  0  0  0 
 13 14  1  6  0  0  0 
 13 15  1  0  0  0  0 
 15 16  1  6  0  0  0 
 15 17  1  1  0  0  0 
 17 18  1  0  0  0  0 
 17 19  1  0  0  0  0 
 17 20  1  0  0  0  0 
 15 21  1  0  0  0  0 
 21 22  1  1  0  0  0 
 21 23  1  6  0  0  0 
 23 24  1  0  0  0  0 
 24 25  2  0  0  0  0 
 24 26  1  0  0  0  0 
 26 27  1  0  0  0  0 
 26 28  1  0  0  0  0 
 26 29  1  0  0  0  0 
 29 30  1  0  0  0  0 
 29 31  1  0  0  0  0 
 31 32  2  0  0  0  0 
 31 33  1  0  0  0  0 
 33 34  1  0  0  0  0 
 29 35  1  0  0  0  0 
 35 36  1  0  0  0  0 
 21 37  1  0  0  0  0 
 37 38  1  0  0  0  0 
 38 39  1  1  0  0  0 
 40 38  1  1  0  0  0 
 13 40  1  0  0  0  0 
 40 41  1  0  0  0  0 
  5 41  1  0  0  0  0 
 41 42  1  6  0  0  0 
 41 43  1  0  0  0  0 
 43 44  1  0  0  0  0 
 43 45  1  0  0  0  0 
 43 46  1  0  0  0  0 
 46 47  1  0  0  0  0 
 46 48  1  0  0  0  0 
 46 49  1  0  0  0  0 
 49 50  1  0  0  0  0 
 50 51  1  0  0  0  0 
 50 52  1  0  0  0  0 
 50 53  1  0  0  0  0 
 49 54  1  1  0  0  0 
 38 54  1  0  0  0  0 
 49 55  1  0  0  0  0 
 55 56  1  0  0  0  0 
 40 56  1  6  0  0  0 
M  END
> <Rank>
2

> <Priority_score>
0.324

> <Reaction_type>
aliphatic_hydroxylation_(sec_carbon_next_to_SP2,not_in_a_ring)

> <Parent_ID>
52

> <Parent_InChI>
InChI=1S/C19H28O8/c1-10-4-5-13-11(2)16(23-15(22)7-6-14(20)21)24-17-19(13)12(10)8-9-18(3,25-17)26-27-19/h10-13,16-17H,4-9H2,1-3H3,(H,20,21)

> <Parent_SMILES>
C[C@@H]1CC[C@H]2[C@@H](C)[C@H](OC(=O)CCC(=O)O)O[C@@H]3O[C@@]4(C)CC[C@@H]1[C@@]23OO4

$$$$
Molecule 52_metabolite 5
  CDK     0516241031

 56 59  0  0  0  0  0  0  0  0999 V2000
    2.6718    1.8999    0.0000 C   0  0  0  0  0  0  0  0  0  0  0  0
    2.1361    3.3010    0.0000 H   0  0  0  0  0  0  0  0  0  0  0  0
    3.6544    0.7666    0.0000 H   0  0  0  0  0  0  0  0  0  0  0  0
    3.9586    2.6708    0.0000 H   0  0  0  0  0  0  0  0  0  0  0  0
    1.1212   -0.0098    0.0000 C   0  0  2  0  0  0  0  0  0  0  0  0
    0.0002    2.7081    0.0000 H   0  0  0  0  0  0  0  0  0  0  0  0
    2.3912   -0.7598    0.0000 C   0  0  0  0  0  0  0  0  0  0  0  0
    3.8675   -1.0251    0.0000 H   0  0  0  0  0  0  0  0  0  0  0  0
    2.9135    0.6464    0.0000 H   0  0  0  0  0  0  0  0  0  0  0  0
    2.3912   -2.2498    0.0000 C   0  0  0  0  0  0  0  0  0  0  0  0
    1.2285   -1.3021    0.0000 H   0  0  0  0  0  0  0  0  0  0  0  0
    3.8545   -1.9199    0.0000 H   0  0  0  0  0  0  0  0  0  0  0  0
    1.2312   -3.1598    0.0000 C   0  0  1  0  0  0  0  0  0  0  0  0
    2.5800   -3.8160    0.0000 H   0  0  0  0  0  0  0  0  0  0  0  0
    1.2312   -4.6598    0.0000 C   0  0  1  0  0  0  0  0  0  0  0  0
    1.7439   -6.0694    0.0000 H   0  0  0  0  0  0  0  0  0  0  0  0
    3.1811   -4.3162    0.0000 C   0  0  0  0  0  0  0  0  0  0  0  0
    3.6943   -2.9067    0.0000 H   0  0  0  0  0  0  0  0  0  0  0  0
    4.6583   -4.5768    0.0000 H   0  0  0  0  0  0  0  0  0  0  0  0
    3.1810   -5.8162    0.0000 H   0  0  0  0  0  0  0  0  0  0  0  0
   -0.0688   -5.4098    0.0000 C   0  0  2  0  0  0  0  0  0  0  0  0
   -1.0354   -6.5568    0.0000 H   0  0  0  0  0  0  0  0  0  0  0  0
    0.8940   -6.5600    0.0000 O   0  0  0  0  0  0  0  0  0  0  0  0
    0.3792   -7.9689    0.0000 C   0  0  0  0  0  0  0  0  0  0  0  0
   -1.0983   -8.2276    0.0000 O   0  0  0  0  0  0  0  0  0  0  0  0
    1.3420   -9.1192    0.0000 C   0  0  0  0  0  0  0  0  0  0  0  0
    2.6401   -9.8708    0.0000 H   0  0  0  0  0  0  0  0  0  0  0  0
    2.3076   -7.9713    0.0000 H   0  0  0  0  0  0  0  0  0  0  0  0
    0.8272  -10.5281    0.0000 C   0  0  0  0  0  0  0  0  0  0  0  0
   -0.4709   -9.7765    0.0000 H   0  0  0  0  0  0  0  0  0  0  0  0
   -0.1384  -11.6760    0.0000 H   0  0  0  0  0  0  0  0  0  0  0  0
    1.7900  -11.6783    0.0000 C   0  0  0  0  0  0  0  0  0  0  0  0
    3.2675  -11.4197    0.0000 O   0  0  0  0  0  0  0  0  0  0  0  0
    1.2753  -13.0873    0.0000 O   0  0  0  0  0  0  0  0  0  0  0  0
    2.2380  -14.2375    0.0000 H   0  0  0  0  0  0  0  0  0  0  0  0
   -1.3588   -4.6598    0.0000 O   0  0  0  0  0  0  0  0  0  0  0  0
   -1.3588   -3.1598    0.0000 C   0  0  1  0  0  0  0  0  0  0  0  0
   -2.5336   -4.0924    0.0000 H   0  0  0  0  0  0  0  0  0  0  0  0
   -0.0688   -2.3998    0.0000 C   0  0  1  0  0  0  0  0  0  0  0  0
   -0.1288   -0.8498    0.0000 C   0  0  1  0  0  0  0  0  0  0  0  0
   -1.6019   -1.1326    0.0000 H   0  0  0  0  0  0  0  0  0  0  0  0
   -1.3288    0.2102    0.0000 C   0  0  0  0  0  0  0  0  0  0  0  0
   -0.1204    1.0989    0.0000 H   0  0  0  0  0  0  0  0  0  0  0  0
   -1.9418    1.5792    0.0000 H   0  0  0  0  0  0  0  0  0  0  0  0
   -2.7988   -0.0998    0.0000 C   0  0  0  0  0  0  0  0  0  0  0  0
   -2.7807    1.4001    0.0000 H   0  0  0  0  0  0  0  0  0  0  0  0
   -3.4588   -1.4598    0.0000 C   0  0  2  0  0  0  0  0  0  0  0  0
   -4.9588   -1.4508    0.0000 C   0  0  0  0  0  0  0  0  0  0  0  0
   -5.7010   -0.1473    0.0000 H   0  0  0  0  0  0  0  0  0  0  0  0
   -6.3714   -1.9554    0.0000 H   0  0  0  0  0  0  0  0  0  0  0  0
   -4.7072   -2.9296    0.0000 H   0  0  0  0  0  0  0  0  0  0  0  0
   -2.8188   -2.8198    0.0000 O   0  0  0  0  0  0  0  0  0  0  0  0
   -2.0388   -0.9998    0.0000 O   0  0  0  0  0  0  0  0  0  0  0  0
   -1.3988   -2.0698    0.0000 O   0  0  0  0  0  0  0  0  0  0  0  0
   -4.2586    0.2450    0.0000 O   0  0  0  0  0  0  0  0  0  0  0  0
   -4.6900    1.6816    0.0000 H   0  0  0  0  0  0  0  0  0  0  0  0
  1  2  1  0  0  0  0 
  1  3  1  0  0  0  0 
  1  4  1  0  0  0  0 
  5  1  1  6  0  0  0 
  5  6  1  1  0  0  0 
  5  7  1  0  0  0  0 
  7  8  1  0  0  0  0 
  7  9  1  0  0  0  0 
  7 10  1  0  0  0  0 
 10 11  1  0  0  0  0 
 10 12  1  0  0  0  0 
 10 13  1  0  0  0  0 
 13 14  1  6  0  0  0 
 13 15  1  0  0  0  0 
 15 16  1  6  0  0  0 
 15 17  1  1  0  0  0 
 17 18  1  0  0  0  0 
 17 19  1  0  0  0  0 
 17 20  1  0  0  0  0 
 15 21  1  0  0  0  0 
 21 22  1  1  0  0  0 
 21 23  1  6  0  0  0 
 23 24  1  0  0  0  0 
 24 25  2  0  0  0  0 
 24 26  1  0  0  0  0 
 26 27  1  0  0  0  0 
 26 28  1  0  0  0  0 
 26 29  1  0  0  0  0 
 29 30  1  0  0  0  0 
 29 31  1  0  0  0  0 
 29 32  1  0  0  0  0 
 32 33  2  0  0  0  0 
 32 34  1  0  0  0  0 
 34 35  1  0  0  0  0 
 21 36  1  0  0  0  0 
 36 37  1  0  0  0  0 
 37 38  1  1  0  0  0 
 39 37  1  1  0  0  0 
 13 39  1  0  0  0  0 
 39 40  1  0  0  0  0 
  5 40  1  0  0  0  0 
 40 41  1  6  0  0  0 
 40 42  1  0  0  0  0 
 42 43  1  0  0  0  0 
 42 44  1  0  0  0  0 
 42 45  1  0  0  0  0 
 45 46  1  0  0  0  0 
 45 47  1  0  0  0  0 
 47 48  1  0  0  0  0 
 48 49  1  0  0  0  0 
 48 50  1  0  0  0  0 
 48 51  1  0  0  0  0 
 47 52  1  1  0  0  0 
 37 52  1  0  0  0  0 
 47 53  1  0  0  0  0 
 53 54  1  0  0  0  0 
 39 54  1  6  0  0  0 
 45 55  1  0  0  0  0 
 55 56  1  0  0  0  0 
M  END
> <Rank>
5

> <Priority_score>
0.168

> <Reaction_type>
aliphatic_hydroxylation_(sec_carbon_in_a_ringB)

> <Parent_ID>
52

> <Parent_InChI>
InChI=1S/C19H28O8/c1-10-4-5-13-11(2)16(23-15(22)7-6-14(20)21)24-17-19(13)12(10)8-9-18(3,25-17)26-27-19/h10-13,16-17H,4-9H2,1-3H3,(H,20,21)

> <Parent_SMILES>
C[C@@H]1CC[C@H]2[C@@H](C)[C@H](OC(=O)CCC(=O)O)O[C@@H]3O[C@@]4(C)CC[C@@H]1[C@@]23OO4

$$$$
Molecule 52_metabolite 6
  CDK     0516241031

 62 65  0  0  0  0  0  0  0  0999 V2000
    2.6718    1.8999    0.0000 C   0  0  0  0  0  0  0  0  0  0  0  0
    2.1361    3.3010    0.0000 H   0  0  0  0  0  0  0  0  0  0  0  0
    3.6544    0.7666    0.0000 H   0  0  0  0  0  0  0  0  0  0  0  0
    3.9586    2.6708    0.0000 H   0  0  0  0  0  0  0  0  0  0  0  0
    1.1212   -0.0098    0.0000 C   0  0  2  0  0  0  0  0  0  0  0  0
    0.0002    2.7081    0.0000 H   0  0  0  0  0  0  0  0  0  0  0  0
    2.3912   -0.7598    0.0000 C   0  0  0  0  0  0  0  0  0  0  0  0
    3.8675   -1.0251    0.0000 H   0  0  0  0  0  0  0  0  0  0  0  0
    2.9135    0.6464    0.0000 H   0  0  0  0  0  0  0  0  0  0  0  0
    2.3912   -2.2498    0.0000 C   0  0  0  0  0  0  0  0  0  0  0  0
    1.2285   -1.3021    0.0000 H   0  0  0  0  0  0  0  0  0  0  0  0
    3.8545   -1.9199    0.0000 H   0  0  0  0  0  0  0  0  0  0  0  0
    1.2312   -3.1598    0.0000 C   0  0  1  0  0  0  0  0  0  0  0  0
    2.5800   -3.8160    0.0000 H   0  0  0  0  0  0  0  0  0  0  0  0
    1.2312   -4.6598    0.0000 C   0  0  1  0  0  0  0  0  0  0  0  0
    1.7439   -6.0694    0.0000 H   0  0  0  0  0  0  0  0  0  0  0  0
    3.1811   -4.3162    0.0000 C   0  0  0  0  0  0  0  0  0  0  0  0
    3.6943   -2.9067    0.0000 H   0  0  0  0  0  0  0  0  0  0  0  0
    4.6583   -4.5768    0.0000 H   0  0  0  0  0  0  0  0  0  0  0  0
    3.1810   -5.8162    0.0000 H   0  0  0  0  0  0  0  0  0  0  0  0
   -0.0688   -5.4098    0.0000 C   0  0  2  0  0  0  0  0  0  0  0  0
   -1.0354   -6.5568    0.0000 H   0  0  0  0  0  0  0  0  0  0  0  0
    0.8940   -6.5600    0.0000 O   0  0  0  0  0  0  0  0  0  0  0  0
    0.3792   -7.9689    0.0000 C   0  0  0  0  0  0  0  0  0  0  0  0
   -1.0983   -8.2276    0.0000 O   0  0  0  0  0  0  0  0  0  0  0  0
    1.3420   -9.1192    0.0000 C   0  0  0  0  0  0  0  0  0  0  0  0
    2.6401   -9.8708    0.0000 H   0  0  0  0  0  0  0  0  0  0  0  0
    2.3076   -7.9713    0.0000 H   0  0  0  0  0  0  0  0  0  0  0  0
    0.8272  -10.5281    0.0000 C   0  0  0  0  0  0  0  0  0  0  0  0
   -0.4709   -9.7765    0.0000 H   0  0  0  0  0  0  0  0  0  0  0  0
   -0.1384  -11.6760    0.0000 H   0  0  0  0  0  0  0  0  0  0  0  0
    1.7900  -11.6783    0.0000 C   0  0  0  0  0  0  0  0  0  0  0  0
    3.2675  -11.4197    0.0000 O   0  0  0  0  0  0  0  0  0  0  0  0
    1.2753  -13.0873    0.0000 N   0  0  0  0  0  0  0  0  0  0  0  0
   -0.2023  -13.3459    0.0000 H   0  0  0  0  0  0  0  0  0  0  0  0
    2.2380  -14.2375    0.0000 C   0  0  0  0  0  0  0  0  0  0  0  0
    3.5361  -14.9891    0.0000 H   0  0  0  0  0  0  0  0  0  0  0  0
    3.2036  -13.0896    0.0000 H   0  0  0  0  0  0  0  0  0  0  0  0
    1.7233  -15.6464    0.0000 C   0  0  0  0  0  0  0  0  0  0  0  0
    0.2457  -15.9051    0.0000 O   0  0  0  0  0  0  0  0  0  0  0  0
    2.6860  -16.7967    0.0000 O   0  0  0  0  0  0  0  0  0  0  0  0
    2.1713  -18.2056    0.0000 H   0  0  0  0  0  0  0  0  0  0  0  0
   -1.3588   -4.6598    0.0000 O   0  0  0  0  0  0  0  0  0  0  0  0
   -1.3588   -3.1598    0.0000 C   0  0  1  0  0  0  0  0  0  0  0  0
   -2.5336   -4.0924    0.0000 H   0  0  0  0  0  0  0  0  0  0  0  0
   -0.0688   -2.3998    0.0000 C   0  0  1  0  0  0  0  0  0  0  0  0
   -0.1288   -0.8498    0.0000 C   0  0  1  0  0  0  0  0  0  0  0  0
   -1.6019   -1.1326    0.0000 H   0  0  0  0  0  0  0  0  0  0  0  0
   -1.3288    0.2102    0.0000 C   0  0  0  0  0  0  0  0  0  0  0  0
   -0.1204    1.0989    0.0000 H   0  0  0  0  0  0  0  0  0  0  0  0
   -1.9418    1.5792    0.0000 H   0  0  0  0  0  0  0  0  0  0  0  0
   -2.7988   -0.0998    0.0000 C   0  0  0  0  0  0  0  0  0  0  0  0
   -2.7807    1.4001    0.0000 H   0  0  0  0  0  0  0  0  0  0  0  0
   -4.2586    0.2450    0.0000 H   0  0  0  0  0  0  0  0  0  0  0  0
   -3.4588   -1.4598    0.0000 C   0  0  2  0  0  0  0  0  0  0  0  0
   -4.9588   -1.4508    0.0000 C   0  0  0  0  0  0  0  0  0  0  0  0
   -5.7010   -0.1473    0.0000 H   0  0  0  0  0  0  0  0  0  0  0  0
   -6.3714   -1.9554    0.0000 H   0  0  0  0  0  0  0  0  0  0  0  0
   -4.7072   -2.9296    0.0000 H   0  0  0  0  0  0  0  0  0  0  0  0
   -2.8188   -2.8198    0.0000 O   0  0  0  0  0  0  0  0  0  0  0  0
   -2.0388   -0.9998    0.0000 O   0  0  0  0  0  0  0  0  0  0  0  0
   -1.3988   -2.0698    0.0000 O   0  0  0  0  0  0  0  0  0  0  0  0
  1  2  1  0  0  0  0 
  1  3  1  0  0  0  0 
  1  4  1  0  0  0  0 
  5  1  1  6  0  0  0 
  5  6  1  1  0  0  0 
  5  7  1  0  0  0  0 
  7  8  1  0  0  0  0 
  7  9  1  0  0  0  0 
  7 10  1  0  0  0  0 
 10 11  1  0  0  0  0 
 10 12  1  0  0  0  0 
 10 13  1  0  0  0  0 
 13 14  1  6  0  0  0 
 13 15  1  0  0  0  0 
 15 16  1  6  0  0  0 
 15 17  1  1  0  0  0 
 17 18  1  0  0  0  0 
 17 19  1  0  0  0  0 
 17 20  1  0  0  0  0 
 15 21  1  0  0  0  0 
 21 22  1  1  0  0  0 
 21 23  1  6  0  0  0 
 23 24  1  0  0  0  0 
 24 25  2  0  0  0  0 
 24 26  1  0  0  0  0 
 26 27  1  0  0  0  0 
 26 28  1  0  0  0  0 
 26 29  1  0  0  0  0 
 29 30  1  0  0  0  0 
 29 31  1  0  0  0  0 
 29 32  1  0  0  0  0 
 32 33  2  0  0  0  0 
 32 34  1  0  0  0  0 
 34 35  1  0  0  0  0 
 34 36  1  0  0  0  0 
 36 37  1  0  0  0  0 
 36 38  1  0  0  0  0 
 36 39  1  0  0  0  0 
 39 40  2  0  0  0  0 
 39 41  1  0  0  0  0 
 41 42  1  0  0  0  0 
 21 43  1  0  0  0  0 
 43 44  1  0  0  0  0 
 44 45  1  1  0  0  0 
 46 44  1  1  0  0  0 
 13 46  1  0  0  0  0 
 46 47  1  0  0  0  0 
  5 47  1  0  0  0  0 
 47 48  1  6  0  0  0 
 47 49  1  0  0  0  0 
 49 50  1  0  0  0  0 
 49 51  1  0  0  0  0 
 49 52  1  0  0  0  0 
 52 53  1  0  0  0  0 
 52 54  1  0  0  0  0 
 52 55  1  0  0  0  0 
 55 56  1  0  0  0  0 
 56 57  1  0  0  0  0 
 56 58  1  0  0  0  0 
 56 59  1  0  0  0  0 
 55 60  1  1  0  0  0 
 44 60  1  0  0  0  0 
 55 61  1  0  0  0  0 
 61 62  1  0  0  0  0 
 46 62  1  6  0  0  0 
M  END
> <Rank>
6

> <Priority_score>
0.12847707642612471

> <Reaction_type>
glycination_(aliphatic_carboxyl)

> <Parent_ID>
52

> <Parent_InChI>
InChI=1S/C19H28O8/c1-10-4-5-13-11(2)16(23-15(22)7-6-14(20)21)24-17-19(13)12(10)8-9-18(3,25-17)26-27-19/h10-13,16-17H,4-9H2,1-3H3,(H,20,21)

> <Parent_SMILES>
C[C@@H]1CC[C@H]2[C@@H](C)[C@H](OC(=O)CCC(=O)O)O[C@@H]3O[C@@]4(C)CC[C@@H]1[C@@]23OO4

$$$$
Molecule 52_metabolite 7
  CDK     0516241031

 56 59  0  0  0  0  0  0  0  0999 V2000
    2.6718    1.8999    0.0000 C   0  0  0  0  0  0  0  0  0  0  0  0
    2.1361    3.3010    0.0000 H   0  0  0  0  0  0  0  0  0  0  0  0
    3.6544    0.7666    0.0000 H   0  0  0  0  0  0  0  0  0  0  0  0
    3.9586    2.6708    0.0000 H   0  0  0  0  0  0  0  0  0  0  0  0
    1.1212   -0.0098    0.0000 C   0  0  2  0  0  0  0  0  0  0  0  0
    0.0002    2.7081    0.0000 H   0  0  0  0  0  0  0  0  0  0  0  0
    2.3912   -0.7598    0.0000 C   0  0  0  0  0  0  0  0  0  0  0  0
    3.8675   -1.0251    0.0000 H   0  0  0  0  0  0  0  0  0  0  0  0
    2.9135    0.6464    0.0000 H   0  0  0  0  0  0  0  0  0  0  0  0
    2.3912   -2.2498    0.0000 C   0  0  0  0  0  0  0  0  0  0  0  0
    1.2285   -1.3021    0.0000 H   0  0  0  0  0  0  0  0  0  0  0  0
    3.8545   -1.9199    0.0000 H   0  0  0  0  0  0  0  0  0  0  0  0
    1.2312   -3.1598    0.0000 C   0  0  1  0  0  0  0  0  0  0  0  0
    2.5800   -3.8160    0.0000 H   0  0  0  0  0  0  0  0  0  0  0  0
    1.2312   -4.6598    0.0000 C   0  0  1  0  0  0  0  0  0  0  0  0
    1.7439   -6.0694    0.0000 H   0  0  0  0  0  0  0  0  0  0  0  0
    3.1811   -4.3162    0.0000 C   0  0  0  0  0  0  0  0  0  0  0  0
    3.6943   -2.9067    0.0000 H   0  0  0  0  0  0  0  0  0  0  0  0
    4.6583   -4.5768    0.0000 H   0  0  0  0  0  0  0  0  0  0  0  0
    3.1810   -5.8162    0.0000 H   0  0  0  0  0  0  0  0  0  0  0  0
   -0.0688   -5.4098    0.0000 C   0  0  2  0  0  0  0  0  0  0  0  0
   -1.0354   -6.5568    0.0000 H   0  0  0  0  0  0  0  0  0  0  0  0
    0.8940   -6.5600    0.0000 O   0  0  0  0  0  0  0  0  0  0  0  0
    0.3792   -7.9689    0.0000 C   0  0  0  0  0  0  0  0  0  0  0  0
   -1.0983   -8.2276    0.0000 O   0  0  0  0  0  0  0  0  0  0  0  0
    1.3420   -9.1192    0.0000 C   0  0  0  0  0  0  0  0  0  0  0  0
    2.6401   -9.8708    0.0000 H   0  0  0  0  0  0  0  0  0  0  0  0
    0.8272  -10.5281    0.0000 C   0  0  0  0  0  0  0  0  0  0  0  0
   -0.4709   -9.7765    0.0000 H   0  0  0  0  0  0  0  0  0  0  0  0
   -0.1384  -11.6760    0.0000 H   0  0  0  0  0  0  0  0  0  0  0  0
    1.7900  -11.6783    0.0000 C   0  0  0  0  0  0  0  0  0  0  0  0
    3.2675  -11.4197    0.0000 O   0  0  0  0  0  0  0  0  0  0  0  0
    1.2753  -13.0873    0.0000 O   0  0  0  0  0  0  0  0  0  0  0  0
    2.2380  -14.2375    0.0000 H   0  0  0  0  0  0  0  0  0  0  0  0
    2.3076   -7.9713    0.0000 O   0  0  0  0  0  0  0  0  0  0  0  0
    3.7845   -8.2336    0.0000 H   0  0  0  0  0  0  0  0  0  0  0  0
   -1.3588   -4.6598    0.0000 O   0  0  0  0  0  0  0  0  0  0  0  0
   -1.3588   -3.1598    0.0000 C   0  0  1  0  0  0  0  0  0  0  0  0
   -2.5336   -4.0924    0.0000 H   0  0  0  0  0  0  0  0  0  0  0  0
   -0.0688   -2.3998    0.0000 C   0  0  1  0  0  0  0  0  0  0  0  0
   -0.1288   -0.8498    0.0000 C   0  0  1  0  0  0  0  0  0  0  0  0
   -1.6019   -1.1326    0.0000 H   0  0  0  0  0  0  0  0  0  0  0  0
   -1.3288    0.2102    0.0000 C   0  0  0  0  0  0  0  0  0  0  0  0
   -0.1204    1.0989    0.0000 H   0  0  0  0  0  0  0  0  0  0  0  0
   -1.9418    1.5792    0.0000 H   0  0  0  0  0  0  0  0  0  0  0  0
   -2.7988   -0.0998    0.0000 C   0  0  0  0  0  0  0  0  0  0  0  0
   -2.7807    1.4001    0.0000 H   0  0  0  0  0  0  0  0  0  0  0  0
   -4.2586    0.2450    0.0000 H   0  0  0  0  0  0  0  0  0  0  0  0
   -3.4588   -1.4598    0.0000 C   0  0  2  0  0  0  0  0  0  0  0  0
   -4.9588   -1.4508    0.0000 C   0  0  0  0  0  0  0  0  0  0  0  0
   -5.7010   -0.1473    0.0000 H   0  0  0  0  0  0  0  0  0  0  0  0
   -6.3714   -1.9554    0.0000 H   0  0  0  0  0  0  0  0  0  0  0  0
   -4.7072   -2.9296    0.0000 H   0  0  0  0  0  0  0  0  0  0  0  0
   -2.8188   -2.8198    0.0000 O   0  0  0  0  0  0  0  0  0  0  0  0
   -2.0388   -0.9998    0.0000 O   0  0  0  0  0  0  0  0  0  0  0  0
   -1.3988   -2.0698    0.0000 O   0  0  0  0  0  0  0  0  0  0  0  0
  1  2  1  0  0  0  0 
  1  3  1  0  0  0  0 
  1  4  1  0  0  0  0 
  5  1  1  6  0  0  0 
  5  6  1  1  0  0  0 
  5  7  1  0  0  0  0 
  7  8  1  0  0  0  0 
  7  9  1  0  0  0  0 
  7 10  1  0  0  0  0 
 10 11  1  0  0  0  0 
 10 12  1  0  0  0  0 
 10 13  1  0  0  0  0 
 13 14  1  6  0  0  0 
 13 15  1  0  0  0  0 
 15 16  1  6  0  0  0 
 15 17  1  1  0  0  0 
 17 18  1  0  0  0  0 
 17 19  1  0  0  0  0 
 17 20  1  0  0  0  0 
 15 21  1  0  0  0  0 
 21 22  1  1  0  0  0 
 21 23  1  6  0  0  0 
 23 24  1  0  0  0  0 
 24 25  2  0  0  0  0 
 24 26  1  0  0  0  0 
 26 27  1  0  0  0  0 
 26 28  1  0  0  0  0 
 28 29  1  0  0  0  0 
 28 30  1  0  0  0  0 
 28 31  1  0  0  0  0 
 31 32  2  0  0  0  0 
 31 33  1  0  0  0  0 
 33 34  1  0  0  0  0 
 26 35  1  0  0  0  0 
 35 36  1  0  0  0  0 
 21 37  1  0  0  0  0 
 37 38  1  0  0  0  0 
 38 39  1  1  0  0  0 
 40 38  1  1  0  0  0 
 13 40  1  0  0  0  0 
 40 41  1  0  0  0  0 
  5 41  1  0  0  0  0 
 41 42  1  6  0  0  0 
 41 43  1  0  0  0  0 
 43 44  1  0  0  0  0 
 43 45  1  0  0  0  0 
 43 46  1  0  0  0  0 
 46 47  1  0  0  0  0 
 46 48  1  0  0  0  0 
 46 49  1  0  0  0  0 
 49 50  1  0  0  0  0 
 50 51  1  0  0  0  0 
 50 52  1  0  0  0  0 
 50 53  1  0  0  0  0 
 49 54  1  1  0  0  0 
 38 54  1  0  0  0  0 
 49 55  1  0  0  0  0 
 55 56  1  0  0  0  0 
 40 56  1  6  0  0  0 
M  END
> <Rank>
7

> <Priority_score>
0.108

> <Reaction_type>
aliphatic_hydroxylation_(sec_carbon_next_to_SP2,not_in_a_ring)

> <Parent_ID>
52

> <Parent_InChI>
InChI=1S/C19H28O8/c1-10-4-5-13-11(2)16(23-15(22)7-6-14(20)21)24-17-19(13)12(10)8-9-18(3,25-17)26-27-19/h10-13,16-17H,4-9H2,1-3H3,(H,20,21)

> <Parent_SMILES>
C[C@@H]1CC[C@H]2[C@@H](C)[C@H](OC(=O)CCC(=O)O)O[C@@H]3O[C@@]4(C)CC[C@@H]1[C@@]23OO4

$$$$
Molecule 52_metabolite 8
  CDK     0516241031

 44 47  0  0  0  0  0  0  0  0999 V2000
    3.4316    2.5247    0.0000 C   0  0  0  0  0  0  0  0  0  0  0  0
    2.8959    3.9257    0.0000 H   0  0  0  0  0  0  0  0  0  0  0  0
    4.4142    1.3913    0.0000 H   0  0  0  0  0  0  0  0  0  0  0  0
    4.7184    3.2955    0.0000 H   0  0  0  0  0  0  0  0  0  0  0  0
    1.8810    0.6149    0.0000 C   0  0  2  0  0  0  0  0  0  0  0  0
    0.9430    2.8891    0.0000 H   0  0  0  0  0  0  0  0  0  0  0  0
    3.1510   -0.1351    0.0000 C   0  0  0  0  0  0  0  0  0  0  0  0
    4.6273   -0.4004    0.0000 H   0  0  0  0  0  0  0  0  0  0  0  0
    3.6732    1.2711    0.0000 H   0  0  0  0  0  0  0  0  0  0  0  0
    3.1510   -1.6251    0.0000 C   0  0  0  0  0  0  0  0  0  0  0  0
    1.9882   -0.6774    0.0000 H   0  0  0  0  0  0  0  0  0  0  0  0
    4.6142   -1.2952    0.0000 H   0  0  0  0  0  0  0  0  0  0  0  0
    1.9910   -2.5351    0.0000 C   0  0  1  0  0  0  0  0  0  0  0  0
    3.3398   -3.1913    0.0000 H   0  0  0  0  0  0  0  0  0  0  0  0
    1.9910   -4.0351    0.0000 C   0  0  1  0  0  0  0  0  0  0  0  0
    2.5037   -5.4447    0.0000 H   0  0  0  0  0  0  0  0  0  0  0  0
    3.9409   -3.6914    0.0000 C   0  0  0  0  0  0  0  0  0  0  0  0
    4.4541   -2.2820    0.0000 H   0  0  0  0  0  0  0  0  0  0  0  0
    5.4181   -3.9521    0.0000 H   0  0  0  0  0  0  0  0  0  0  0  0
    3.9408   -5.1914    0.0000 H   0  0  0  0  0  0  0  0  0  0  0  0
    0.6910   -4.7851    0.0000 C   0  0  2  0  0  0  0  0  0  0  0  0
   -0.2757   -5.9321    0.0000 H   0  0  0  0  0  0  0  0  0  0  0  0
    1.6537   -5.9353    0.0000 O   0  0  0  0  0  0  0  0  0  0  0  0
    1.1390   -7.3442    0.0000 H   0  0  0  0  0  0  0  0  0  0  0  0
   -0.5990   -4.0351    0.0000 O   0  0  0  0  0  0  0  0  0  0  0  0
   -0.5990   -2.5351    0.0000 C   0  0  1  0  0  0  0  0  0  0  0  0
   -1.7738   -3.4677    0.0000 H   0  0  0  0  0  0  0  0  0  0  0  0
    0.6910   -1.7751    0.0000 C   0  0  1  0  0  0  0  0  0  0  0  0
    0.6310   -0.2251    0.0000 C   0  0  1  0  0  0  0  0  0  0  0  0
   -1.7849   -0.6888    0.0000 H   0  0  0  0  0  0  0  0  0  0  0  0
   -0.5690    0.8349    0.0000 C   0  0  0  0  0  0  0  0  0  0  0  0
    0.6393    1.7236    0.0000 H   0  0  0  0  0  0  0  0  0  0  0  0
   -1.1820    2.2040    0.0000 H   0  0  0  0  0  0  0  0  0  0  0  0
   -2.0390    0.5249    0.0000 C   0  0  0  0  0  0  0  0  0  0  0  0
   -2.0210    2.0248    0.0000 H   0  0  0  0  0  0  0  0  0  0  0  0
   -3.4989    0.8697    0.0000 H   0  0  0  0  0  0  0  0  0  0  0  0
   -2.6990   -0.8351    0.0000 C   0  0  2  0  0  0  0  0  0  0  0  0
   -4.1990   -0.8261    0.0000 C   0  0  0  0  0  0  0  0  0  0  0  0
   -4.9412    0.4774    0.0000 H   0  0  0  0  0  0  0  0  0  0  0  0
   -5.6116   -1.3307    0.0000 H   0  0  0  0  0  0  0  0  0  0  0  0
   -3.9474   -2.3048    0.0000 H   0  0  0  0  0  0  0  0  0  0  0  0
   -2.0590   -2.1951    0.0000 O   0  0  0  0  0  0  0  0  0  0  0  0
   -1.2790   -0.3751    0.0000 O   0  0  0  0  0  0  0  0  0  0  0  0
   -0.6390   -1.4451    0.0000 O   0  0  0  0  0  0  0  0  0  0  0  0
  1  2  1  0  0  0  0 
  1  3  1  0  0  0  0 
  1  4  1  0  0  0  0 
  5  1  1  6  0  0  0 
  5  6  1  1  0  0  0 
  5  7  1  0  0  0  0 
  7  8  1  0  0  0  0 
  7  9  1  0  0  0  0 
  7 10  1  0  0  0  0 
 10 11  1  0  0  0  0 
 10 12  1  0  0  0  0 
 10 13  1  0  0  0  0 
 13 14  1  6  0  0  0 
 13 15  1  0  0  0  0 
 15 16  1  6  0  0  0 
 15 17  1  1  0  0  0 
 17 18  1  0  0  0  0 
 17 19  1  0  0  0  0 
 17 20  1  0  0  0  0 
 15 21  1  0  0  0  0 
 21 22  1  1  0  0  0 
 21 23  1  6  0  0  0 
 23 24  1  0  0  0  0 
 21 25  1  0  0  0  0 
 25 26  1  0  0  0  0 
 26 27  1  1  0  0  0 
 28 26  1  1  0  0  0 
 13 28  1  0  0  0  0 
 28 29  1  0  0  0  0 
  5 29  1  0  0  0  0 
 29 30  1  6  0  0  0 
 29 31  1  0  0  0  0 
 31 32  1  0  0  0  0 
 31 33  1  0  0  0  0 
 31 34  1  0  0  0  0 
 34 35  1  0  0  0  0 
 34 36  1  0  0  0  0 
 34 37  1  0  0  0  0 
 37 38  1  0  0  0  0 
 38 39  1  0  0  0  0 
 38 40  1  0  0  0  0 
 38 41  1  0  0  0  0 
 37 42  1  1  0  0  0 
 26 42  1  0  0  0  0 
 37 43  1  0  0  0  0 
 43 44  1  0  0  0  0 
 28 44  1  6  0  0  0 
M  END
> <Rank>
7

> <Priority_score>
0.108

> <Reaction_type>
hydrolysis_(ester)

> <Parent_ID>
52

> <Parent_InChI>
InChI=1S/C19H28O8/c1-10-4-5-13-11(2)16(23-15(22)7-6-14(20)21)24-17-19(13)12(10)8-9-18(3,25-17)26-27-19/h10-13,16-17H,4-9H2,1-3H3,(H,20,21)

> <Parent_SMILES>
C[C@@H]1CC[C@H]2[C@@H](C)[C@H](OC(=O)CCC(=O)O)O[C@@H]3O[C@@]4(C)CC[C@@H]1[C@@]23OO4

$$$$
Molecule 52_metabolite 9
  CDK     0516241031

 14 13  0  0  0  0  0  0  0  0999 V2000
    5.1962   -0.0000    0.0000 C   0  0  0  0  0  0  0  0  0  0  0  0
    6.1603    1.1491    0.0000 H   0  0  0  0  0  0  0  0  0  0  0  0
    4.2320    1.1491    0.0000 H   0  0  0  0  0  0  0  0  0  0  0  0
    3.8971   -0.7500    0.0000 C   0  0  0  0  0  0  0  0  0  0  0  0
    2.9329   -1.8991    0.0000 H   0  0  0  0  0  0  0  0  0  0  0  0
    4.8613   -1.8991    0.0000 H   0  0  0  0  0  0  0  0  0  0  0  0
    2.5981   -0.0000    0.0000 C   0  0  0  0  0  0  0  0  0  0  0  0
    2.5981    1.5000    0.0000 O   0  0  0  0  0  0  0  0  0  0  0  0
    1.2990   -0.7500    0.0000 O   0  0  0  0  0  0  0  0  0  0  0  0
    0.0000    0.0000    0.0000 H   0  0  0  0  0  0  0  0  0  0  0  0
    6.4952   -0.7500    0.0000 C   0  0  0  0  0  0  0  0  0  0  0  0
    6.4952   -2.2500    0.0000 O   0  0  0  0  0  0  0  0  0  0  0  0
    7.7942   -0.0000    0.0000 O   0  0  0  0  0  0  0  0  0  0  0  0
    9.0933   -0.7500    0.0000 H   0  0  0  0  0  0  0  0  0  0  0  0
  1  2  1  0  0  0  0 
  1  3  1  0  0  0  0 
  1  4  1  0  0  0  0 
  4  5  1  0  0  0  0 
  4  6  1  0  0  0  0 
  4  7  1  0  0  0  0 
  7  8  2  0  0  0  0 
  7  9  1  0  0  0  0 
  9 10  1  0  0  0  0 
  1 11  1  0  0  0  0 
 11 12  2  0  0  0  0 
 11 13  1  0  0  0  0 
 13 14  1  0  0  0  0 
M  END
> <Rank>
7

> <Priority_score>
0.108

> <Reaction_type>
hydrolysis_(ester)

> <Parent_ID>
52

> <Parent_InChI>
InChI=1S/C19H28O8/c1-10-4-5-13-11(2)16(23-15(22)7-6-14(20)21)24-17-19(13)12(10)8-9-18(3,25-17)26-27-19/h10-13,16-17H,4-9H2,1-3H3,(H,20,21)

> <Parent_SMILES>
C[C@@H]1CC[C@H]2[C@@H](C)[C@H](OC(=O)CCC(=O)O)O[C@@H]3O[C@@]4(C)CC[C@@H]1[C@@]23OO4

$$$$
Molecule 52_metabolite 10
  CDK     0516241031

 42 45  0  0  0  0  0  0  0  0999 V2000
    3.4316    2.5247    0.0000 C   0  0  0  0  0  0  0  0  0  0  0  0
    2.8959    3.9257    0.0000 H   0  0  0  0  0  0  0  0  0  0  0  0
    4.4142    1.3913    0.0000 H   0  0  0  0  0  0  0  0  0  0  0  0
    4.7184    3.2955    0.0000 H   0  0  0  0  0  0  0  0  0  0  0  0
    1.8810    0.6149    0.0000 C   0  0  2  0  0  0  0  0  0  0  0  0
    0.9430    2.8891    0.0000 H   0  0  0  0  0  0  0  0  0  0  0  0
    3.1510   -0.1351    0.0000 C   0  0  0  0  0  0  0  0  0  0  0  0
    4.6273   -0.4004    0.0000 H   0  0  0  0  0  0  0  0  0  0  0  0
    3.6732    1.2711    0.0000 H   0  0  0  0  0  0  0  0  0  0  0  0
    3.1510   -1.6251    0.0000 C   0  0  0  0  0  0  0  0  0  0  0  0
    1.9882   -0.6774    0.0000 H   0  0  0  0  0  0  0  0  0  0  0  0
    4.6142   -1.2952    0.0000 H   0  0  0  0  0  0  0  0  0  0  0  0
    1.9910   -2.5351    0.0000 C   0  0  1  0  0  0  0  0  0  0  0  0
    3.3398   -3.1913    0.0000 H   0  0  0  0  0  0  0  0  0  0  0  0
    1.9910   -4.0351    0.0000 C   0  0  1  0  0  0  0  0  0  0  0  0
    2.5037   -5.4447    0.0000 H   0  0  0  0  0  0  0  0  0  0  0  0
    3.9409   -3.6914    0.0000 C   0  0  0  0  0  0  0  0  0  0  0  0
    4.4541   -2.2820    0.0000 H   0  0  0  0  0  0  0  0  0  0  0  0
    5.4181   -3.9521    0.0000 H   0  0  0  0  0  0  0  0  0  0  0  0
    3.9408   -5.1914    0.0000 H   0  0  0  0  0  0  0  0  0  0  0  0
    0.6910   -4.7851    0.0000 C   0  0  0  0  0  0  0  0  0  0  0  0
    0.6885   -6.2851    0.0000 O   0  0  0  0  0  0  0  0  0  0  0  0
   -0.5990   -4.0351    0.0000 O   0  0  0  0  0  0  0  0  0  0  0  0
   -0.5990   -2.5351    0.0000 C   0  0  1  0  0  0  0  0  0  0  0  0
   -1.7738   -3.4677    0.0000 H   0  0  0  0  0  0  0  0  0  0  0  0
    0.6910   -1.7751    0.0000 C   0  0  1  0  0  0  0  0  0  0  0  0
    0.6310   -0.2251    0.0000 C   0  0  1  0  0  0  0  0  0  0  0  0
   -1.7849   -0.6888    0.0000 H   0  0  0  0  0  0  0  0  0  0  0  0
   -0.5690    0.8349    0.0000 C   0  0  0  0  0  0  0  0  0  0  0  0
    0.6393    1.7236    0.0000 H   0  0  0  0  0  0  0  0  0  0  0  0
   -1.1820    2.2040    0.0000 H   0  0  0  0  0  0  0  0  0  0  0  0
   -2.0390    0.5249    0.0000 C   0  0  0  0  0  0  0  0  0  0  0  0
   -2.0210    2.0248    0.0000 H   0  0  0  0  0  0  0  0  0  0  0  0
   -3.4989    0.8697    0.0000 H   0  0  0  0  0  0  0  0  0  0  0  0
   -2.6990   -0.8351    0.0000 C   0  0  2  0  0  0  0  0  0  0  0  0
   -4.1990   -0.8261    0.0000 C   0  0  0  0  0  0  0  0  0  0  0  0
   -4.9412    0.4774    0.0000 H   0  0  0  0  0  0  0  0  0  0  0  0
   -5.6116   -1.3307    0.0000 H   0  0  0  0  0  0  0  0  0  0  0  0
   -3.9474   -2.3048    0.0000 H   0  0  0  0  0  0  0  0  0  0  0  0
   -2.0590   -2.1951    0.0000 O   0  0  0  0  0  0  0  0  0  0  0  0
   -1.2790   -0.3751    0.0000 O   0  0  0  0  0  0  0  0  0  0  0  0
   -0.6390   -1.4451    0.0000 O   0  0  0  0  0  0  0  0  0  0  0  0
  1  2  1  0  0  0  0 
  1  3  1  0  0  0  0 
  1  4  1  0  0  0  0 
  5  1  1  6  0  0  0 
  5  6  1  1  0  0  0 
  5  7  1  0  0  0  0 
  7  8  1  0  0  0  0 
  7  9  1  0  0  0  0 
  7 10  1  0  0  0  0 
 10 11  1  0  0  0  0 
 10 12  1  0  0  0  0 
 10 13  1  0  0  0  0 
 13 14  1  6  0  0  0 
 13 15  1  0  0  0  0 
 15 16  1  6  0  0  0 
 15 17  1  0  0  0  0 
 17 18  1  0  0  0  0 
 17 19  1  0  0  0  0 
 17 20  1  0  0  0  0 
 15 21  1  1  0  0  0 
 21 22  2  0  0  0  0 
 21 23  1  0  0  0  0 
 23 24  1  0  0  0  0 
 24 25  1  1  0  0  0 
 26 24  1  1  0  0  0 
 13 26  1  0  0  0  0 
 26 27  1  0  0  0  0 
  5 27  1  0  0  0  0 
 27 28  1  6  0  0  0 
 27 29  1  0  0  0  0 
 29 30  1  0  0  0  0 
 29 31  1  0  0  0  0 
 29 32  1  0  0  0  0 
 32 33  1  0  0  0  0 
 32 34  1  0  0  0  0 
 32 35  1  0  0  0  0 
 35 36  1  0  0  0  0 
 36 37  1  0  0  0  0 
 36 38  1  0  0  0  0 
 36 39  1  0  0  0  0 
 35 40  1  1  0  0  0 
 24 40  1  0  0  0  0 
 35 41  1  0  0  0  0 
 41 42  1  0  0  0  0 
 26 42  1  6  0  0  0 
M  END
> <Rank>
7

> <Priority_score>
0.108

> <Reaction_type>
oxidative ether cleavage to one alcohol and one aldehyde/ketone

> <Parent_ID>
52

> <Parent_InChI>
InChI=1S/C19H28O8/c1-10-4-5-13-11(2)16(23-15(22)7-6-14(20)21)24-17-19(13)12(10)8-9-18(3,25-17)26-27-19/h10-13,16-17H,4-9H2,1-3H3,(H,20,21)

> <Parent_SMILES>
C[C@@H]1CC[C@H]2[C@@H](C)[C@H](OC(=O)CCC(=O)O)O[C@@H]3O[C@@]4(C)CC[C@@H]1[C@@]23OO4

$$$$
Molecule 52_metabolite 11
  CDK     0516241031

 56 59  0  0  0  0  0  0  0  0999 V2000
    2.2013    3.0713    0.0000 C   0  0  0  0  0  0  0  0  0  0  0  0
    1.6656    4.4724    0.0000 H   0  0  0  0  0  0  0  0  0  0  0  0
    4.1271    0.8499    0.0000 H   0  0  0  0  0  0  0  0  0  0  0  0
    3.4880    3.8421    0.0000 H   0  0  0  0  0  0  0  0  0  0  0  0
    0.6506    1.1615    0.0000 C   0  0  1  0  0  0  0  0  0  0  0  0
   -0.4703    3.8795    0.0000 H   0  0  0  0  0  0  0  0  0  0  0  0
   -0.5994    0.3215    0.0000 C   0  0  2  0  0  0  0  0  0  0  0  0
   -2.0725    0.0388    0.0000 H   0  0  0  0  0  0  0  0  0  0  0  0
   -1.7994    1.3815    0.0000 C   0  0  0  0  0  0  0  0  0  0  0  0
   -0.5910    2.2702    0.0000 H   0  0  0  0  0  0  0  0  0  0  0  0
   -2.4124    2.7506    0.0000 H   0  0  0  0  0  0  0  0  0  0  0  0
   -3.2694    1.0715    0.0000 C   0  0  0  0  0  0  0  0  0  0  0  0
   -3.2513    2.5714    0.0000 H   0  0  0  0  0  0  0  0  0  0  0  0
   -4.7292    1.4163    0.0000 H   0  0  0  0  0  0  0  0  0  0  0  0
   -3.9294   -0.2885    0.0000 C   0  0  2  0  0  0  0  0  0  0  0  0
   -5.4294   -0.2795    0.0000 C   0  0  0  0  0  0  0  0  0  0  0  0
   -6.1716    1.0240    0.0000 H   0  0  0  0  0  0  0  0  0  0  0  0
   -6.8419   -0.7841    0.0000 H   0  0  0  0  0  0  0  0  0  0  0  0
   -5.1777   -1.7582    0.0000 H   0  0  0  0  0  0  0  0  0  0  0  0
   -3.2894   -1.6485    0.0000 O   0  0  0  0  0  0  0  0  0  0  0  0
   -1.8294   -1.9885    0.0000 C   0  0  2  0  0  0  0  0  0  0  0  0
   -3.0042   -2.9211    0.0000 H   0  0  0  0  0  0  0  0  0  0  0  0
   -0.5394   -1.2285    0.0000 C   0  0  2  0  0  0  0  0  0  0  0  0
    0.7606   -1.9885    0.0000 C   0  0  1  0  0  0  0  0  0  0  0  0
    0.4444   -0.5222    0.0000 H   0  0  0  0  0  0  0  0  0  0  0  0
    1.9206   -1.0785    0.0000 C   0  0  0  0  0  0  0  0  0  0  0  0
    2.5642   -2.4334    0.0000 H   0  0  0  0  0  0  0  0  0  0  0  0
    3.3839   -0.7486    0.0000 H   0  0  0  0  0  0  0  0  0  0  0  0
    1.9206    0.4115    0.0000 C   0  0  0  0  0  0  0  0  0  0  0  0
    3.3970    0.1462    0.0000 H   0  0  0  0  0  0  0  0  0  0  0  0
    2.4429    1.8177    0.0000 O   0  0  0  0  0  0  0  0  0  0  0  0
    3.9218    2.0685    0.0000 H   0  0  0  0  0  0  0  0  0  0  0  0
    0.7606   -3.4885    0.0000 C   0  0  1  0  0  0  0  0  0  0  0  0
    1.2733   -4.8981    0.0000 H   0  0  0  0  0  0  0  0  0  0  0  0
    2.2379   -3.2281    0.0000 C   0  0  0  0  0  0  0  0  0  0  0  0
    3.2019   -4.3773    0.0000 H   0  0  0  0  0  0  0  0  0  0  0  0
    3.5370   -2.4783    0.0000 H   0  0  0  0  0  0  0  0  0  0  0  0
    1.7250   -1.8185    0.0000 H   0  0  0  0  0  0  0  0  0  0  0  0
   -0.5394   -4.2385    0.0000 C   0  0  2  0  0  0  0  0  0  0  0  0
   -1.5060   -5.3855    0.0000 H   0  0  0  0  0  0  0  0  0  0  0  0
    0.4234   -5.3887    0.0000 O   0  0  0  0  0  0  0  0  0  0  0  0
   -0.0914   -6.7976    0.0000 C   0  0  0  0  0  0  0  0  0  0  0  0
   -1.5689   -7.0563    0.0000 O   0  0  0  0  0  0  0  0  0  0  0  0
    0.8714   -7.9479    0.0000 C   0  0  0  0  0  0  0  0  0  0  0  0
    2.1695   -8.6994    0.0000 H   0  0  0  0  0  0  0  0  0  0  0  0
    1.8370   -6.8000    0.0000 H   0  0  0  0  0  0  0  0  0  0  0  0
    0.3567   -9.3568    0.0000 C   0  0  0  0  0  0  0  0  0  0  0  0
   -0.9415   -8.6052    0.0000 H   0  0  0  0  0  0  0  0  0  0  0  0
   -0.6089  -10.5047    0.0000 H   0  0  0  0  0  0  0  0  0  0  0  0
    1.3194  -10.5070    0.0000 C   0  0  0  0  0  0  0  0  0  0  0  0
    2.7970  -10.2483    0.0000 O   0  0  0  0  0  0  0  0  0  0  0  0
    0.8047  -11.9159    0.0000 O   0  0  0  0  0  0  0  0  0  0  0  0
    1.7675  -13.0662    0.0000 H   0  0  0  0  0  0  0  0  0  0  0  0
   -1.8294   -3.4885    0.0000 O   0  0  0  0  0  0  0  0  0  0  0  0
   -1.8694   -0.8985    0.0000 O   0  0  0  0  0  0  0  0  0  0  0  0
   -2.5094    0.1715    0.0000 O   0  0  0  0  0  0  0  0  0  0  0  0
  1  2  1  0  0  0  0 
  1  3  1  0  0  0  0 
  1  4  1  0  0  0  0 
  5  1  1  6  0  0  0 
  5  6  1  1  0  0  0 
  5  7  1  0  0  0  0 
  7  8  1  6  0  0  0 
  7  9  1  0  0  0  0 
  9 10  1  0  0  0  0 
  9 11  1  0  0  0  0 
  9 12  1  0  0  0  0 
 12 13  1  0  0  0  0 
 12 14  1  0  0  0  0 
 12 15  1  0  0  0  0 
 15 16  1  0  0  0  0 
 16 17  1  0  0  0  0 
 16 18  1  0  0  0  0 
 16 19  1  0  0  0  0 
 15 20  1  1  0  0  0 
 20 21  1  0  0  0  0 
 21 22  1  1  0  0  0 
 21 23  1  0  0  0  0 
 23  7  1  1  0  0  0 
 23 24  1  0  0  0  0 
 24 25  1  6  0  0  0 
 24 26  1  0  0  0  0 
 26 27  1  0  0  0  0 
 26 28  1  0  0  0  0 
 26 29  1  0  0  0  0 
  5 29  1  0  0  0  0 
 29 30  1  0  0  0  0 
 29 31  1  0  0  0  0 
 31 32  1  0  0  0  0 
 24 33  1  0  0  0  0 
 33 34  1  6  0  0  0 
 33 35  1  1  0  0  0 
 35 36  1  0  0  0  0 
 35 37  1  0  0  0  0 
 35 38  1  0  0  0  0 
 33 39  1  0  0  0  0 
 39 40  1  1  0  0  0 
 39 41  1  6  0  0  0 
 41 42  1  0  0  0  0 
 42 43  2  0  0  0  0 
 42 44  1  0  0  0  0 
 44 45  1  0  0  0  0 
 44 46  1  0  0  0  0 
 44 47  1  0  0  0  0 
 47 48  1  0  0  0  0 
 47 49  1  0  0  0  0 
 47 50  1  0  0  0  0 
 50 51  2  0  0  0  0 
 50 52  1  0  0  0  0 
 52 53  1  0  0  0  0 
 39 54  1  0  0  0  0 
 21 54  1  0  0  0  0 
 23 55  1  6  0  0  0 
 55 56  1  0  0  0  0 
 15 56  1  0  0  0  0 
M  END
> <Rank>
11

> <Priority_score>
0.104

> <Reaction_type>
aliphatic_hydroxylation_(sec_carbon_in_a_ringB)

> <Parent_ID>
52

> <Parent_InChI>
InChI=1S/C19H28O8/c1-10-4-5-13-11(2)16(23-15(22)7-6-14(20)21)24-17-19(13)12(10)8-9-18(3,25-17)26-27-19/h10-13,16-17H,4-9H2,1-3H3,(H,20,21)

> <Parent_SMILES>
C[C@@H]1CC[C@H]2[C@@H](C)[C@H](OC(=O)CCC(=O)O)O[C@@H]3O[C@@]4(C)CC[C@@H]1[C@@]23OO4

$$$$
Molecule 52_metabolite 12
  CDK     0516241031

 55 58  0  0  0  0  0  0  0  0999 V2000
    2.1477   -3.9853    0.0000 C   0  0  0  0  0  0  0  0  0  0  0  0
    3.6248   -4.2461    0.0000 H   0  0  0  0  0  0  0  0  0  0  0  0
    0.6704   -4.2455    0.0000 H   0  0  0  0  0  0  0  0  0  0  0  0
    2.1473   -5.4853    0.0000 H   0  0  0  0  0  0  0  0  0  0  0  0
    1.6349   -2.5757    0.0000 C   0  0  2  0  0  0  0  0  0  0  0  0
    3.1122   -2.3153    0.0000 H   0  0  0  0  0  0  0  0  0  0  0  0
    1.6349   -1.0757    0.0000 C   0  0  2  0  0  0  0  0  0  0  0  0
    1.3187    0.3906    0.0000 H   0  0  0  0  0  0  0  0  0  0  0  0
    2.7949   -0.1657    0.0000 C   0  0  0  0  0  0  0  0  0  0  0  0
    3.4385   -1.5206    0.0000 H   0  0  0  0  0  0  0  0  0  0  0  0
    4.2582    0.1642    0.0000 H   0  0  0  0  0  0  0  0  0  0  0  0
    2.7949    1.3243    0.0000 C   0  0  0  0  0  0  0  0  0  0  0  0
    4.2713    1.0590    0.0000 H   0  0  0  0  0  0  0  0  0  0  0  0
    3.3172    2.7305    0.0000 H   0  0  0  0  0  0  0  0  0  0  0  0
    1.5249    2.0743    0.0000 C   0  0  2  0  0  0  0  0  0  0  0  0
    2.4704    3.2388    0.0000 H   0  0  0  0  0  0  0  0  0  0  0  0
    0.2749    1.2343    0.0000 C   0  0  2  0  0  0  0  0  0  0  0  0
   -1.1982    0.9516    0.0000 H   0  0  0  0  0  0  0  0  0  0  0  0
   -0.9251    2.2943    0.0000 C   0  0  0  0  0  0  0  0  0  0  0  0
    0.2833    3.1830    0.0000 H   0  0  0  0  0  0  0  0  0  0  0  0
   -1.5381    3.6634    0.0000 H   0  0  0  0  0  0  0  0  0  0  0  0
   -2.3951    1.9843    0.0000 C   0  0  0  0  0  0  0  0  0  0  0  0
   -2.3770    3.4842    0.0000 H   0  0  0  0  0  0  0  0  0  0  0  0
   -3.8549    2.3291    0.0000 H   0  0  0  0  0  0  0  0  0  0  0  0
   -3.0551    0.6243    0.0000 C   0  0  2  0  0  0  0  0  0  0  0  0
   -4.5550    0.6333    0.0000 C   0  0  0  0  0  0  0  0  0  0  0  0
   -5.2973    1.9368    0.0000 H   0  0  0  0  0  0  0  0  0  0  0  0
   -5.9676    0.1287    0.0000 H   0  0  0  0  0  0  0  0  0  0  0  0
   -4.3034   -0.8454    0.0000 H   0  0  0  0  0  0  0  0  0  0  0  0
   -2.4151   -0.7357    0.0000 O   0  0  0  0  0  0  0  0  0  0  0  0
   -0.9551   -1.0757    0.0000 C   0  0  2  0  0  0  0  0  0  0  0  0
   -2.1299   -2.0083    0.0000 H   0  0  0  0  0  0  0  0  0  0  0  0
    0.3349   -0.3157    0.0000 C   0  0  2  0  0  0  0  0  0  0  0  0
   -0.9951    0.0143    0.0000 O   0  0  0  0  0  0  0  0  0  0  0  0
   -1.6351    1.0843    0.0000 O   0  0  0  0  0  0  0  0  0  0  0  0
   -0.9551   -2.5757    0.0000 O   0  0  0  0  0  0  0  0  0  0  0  0
    0.3349   -3.3257    0.0000 C   0  0  1  0  0  0  0  0  0  0  0  0
   -0.6317   -4.4727    0.0000 H   0  0  0  0  0  0  0  0  0  0  0  0
    0.6764   -5.2760    0.0000 O   0  0  0  0  0  0  0  0  0  0  0  0
   -1.2100   -6.8550    0.0000 C   0  0  0  0  0  0  0  0  0  0  0  0
   -2.6189   -6.3402    0.0000 O   0  0  0  0  0  0  0  0  0  0  0  0
   -0.9514   -8.3325    0.0000 C   0  0  0  0  0  0  0  0  0  0  0  0
   -0.2030   -9.6324    0.0000 H   0  0  0  0  0  0  0  0  0  0  0  0
    0.4588   -7.8212    0.0000 H   0  0  0  0  0  0  0  0  0  0  0  0
   -2.1016   -9.2953    0.0000 C   0  0  0  0  0  0  0  0  0  0  0  0
   -2.8500   -7.9953    0.0000 H   0  0  0  0  0  0  0  0  0  0  0  0
   -3.5118   -9.8066    0.0000 H   0  0  0  0  0  0  0  0  0  0  0  0
   -1.8430  -10.7728    0.0000 C   0  0  0  0  0  0  0  0  0  0  0  0
   -0.4340  -11.2875    0.0000 O   0  0  0  0  0  0  0  0  0  0  0  0
   -2.9932  -11.7356    0.0000 O   0  0  0  0  0  0  0  0  0  0  0  0
   -2.7345  -13.2131    0.0000 H   0  0  0  0  0  0  0  0  0  0  0  0
    0.7700    3.9048    0.0000 C   0  0  0  0  0  0  0  0  0  0  0  0
   -0.7169    4.1028    0.0000 O   0  0  0  0  0  0  0  0  0  0  0  0
    1.6850    5.0934    0.0000 O   0  0  0  0  0  0  0  0  0  0  0  0
    1.1130    6.4801    0.0000 H   0  0  0  0  0  0  0  0  0  0  0  0
  1  2  1  0  0  0  0 
  1  3  1  0  0  0  0 
  1  4  1  0  0  0  0 
  5  1  1  1  0  0  0 
  5  6  1  6  0  0  0 
  5  7  1  0  0  0  0 
  7  8  1  6  0  0  0 
  7  9  1  0  0  0  0 
  9 10  1  0  0  0  0 
  9 11  1  0  0  0  0 
  9 12  1  0  0  0  0 
 12 13  1  0  0  0  0 
 12 14  1  0  0  0  0 
 12 15  1  0  0  0  0 
 15 16  1  1  0  0  0 
 15 17  1  0  0  0  0 
 17 18  1  6  0  0  0 
 17 19  1  0  0  0  0 
 19 20  1  0  0  0  0 
 19 21  1  0  0  0  0 
 19 22  1  0  0  0  0 
 22 23  1  0  0  0  0 
 22 24  1  0  0  0  0 
 22 25  1  0  0  0  0 
 25 26  1  0  0  0  0 
 26 27  1  0  0  0  0 
 26 28  1  0  0  0  0 
 26 29  1  0  0  0  0 
 25 30  1  1  0  0  0 
 30 31  1  0  0  0  0 
 31 32  1  1  0  0  0 
 31 33  1  0  0  0  0 
  7 33  1  0  0  0  0 
 33 17  1  1  0  0  0 
 33 34  1  6  0  0  0 
 34 35  1  0  0  0  0 
 25 35  1  0  0  0  0 
 31 36  1  0  0  0  0 
 36 37  1  0  0  0  0 
  5 37  1  0  0  0  0 
 37 38  1  1  0  0  0 
 37 39  1  6  0  0  0 
 39 40  1  0  0  0  0 
 40 41  2  0  0  0  0 
 40 42  1  0  0  0  0 
 42 43  1  0  0  0  0 
 42 44  1  0  0  0  0 
 42 45  1  0  0  0  0 
 45 46  1  0  0  0  0 
 45 47  1  0  0  0  0 
 45 48  1  0  0  0  0 
 48 49  2  0  0  0  0 
 48 50  1  0  0  0  0 
 50 51  1  0  0  0  0 
 15 52  1  6  0  0  0 
 52 53  2  0  0  0  0 
 52 54  1  0  0  0  0 
 54 55  1  0  0  0  0 
M  END
> <Rank>
11

> <Priority_score>
0.104

> <Reaction_type>
carboxylation_(primary_carbon_next_to_tert_carbon)

> <Parent_ID>
52

> <Parent_InChI>
InChI=1S/C19H28O8/c1-10-4-5-13-11(2)16(23-15(22)7-6-14(20)21)24-17-19(13)12(10)8-9-18(3,25-17)26-27-19/h10-13,16-17H,4-9H2,1-3H3,(H,20,21)

> <Parent_SMILES>
C[C@@H]1CC[C@H]2[C@@H](C)[C@H](OC(=O)CCC(=O)O)O[C@@H]3O[C@@]4(C)CC[C@@H]1[C@@]23OO4

$$$$
Molecule 52_metabolite 13
  CDK     0516241031

 56 59  0  0  0  0  0  0  0  0999 V2000
    2.1477   -3.9853    0.0000 C   0  0  0  0  0  0  0  0  0  0  0  0
    3.6248   -4.2461    0.0000 H   0  0  0  0  0  0  0  0  0  0  0  0
    0.6704   -4.2455    0.0000 H   0  0  0  0  0  0  0  0  0  0  0  0
    2.1473   -5.4853    0.0000 H   0  0  0  0  0  0  0  0  0  0  0  0
    1.6349   -2.5757    0.0000 C   0  0  2  0  0  0  0  0  0  0  0  0
    3.1122   -2.3153    0.0000 H   0  0  0  0  0  0  0  0  0  0  0  0
    1.6349   -1.0757    0.0000 C   0  0  2  0  0  0  0  0  0  0  0  0
    1.3187    0.3906    0.0000 H   0  0  0  0  0  0  0  0  0  0  0  0
    2.7949   -0.1657    0.0000 C   0  0  0  0  0  0  0  0  0  0  0  0
    3.4385   -1.5206    0.0000 H   0  0  0  0  0  0  0  0  0  0  0  0
    4.2582    0.1642    0.0000 H   0  0  0  0  0  0  0  0  0  0  0  0
    2.7949    1.3243    0.0000 C   0  0  0  0  0  0  0  0  0  0  0  0
    4.2713    1.0590    0.0000 H   0  0  0  0  0  0  0  0  0  0  0  0
    3.3172    2.7305    0.0000 H   0  0  0  0  0  0  0  0  0  0  0  0
    1.5249    2.0743    0.0000 C   0  0  1  0  0  0  0  0  0  0  0  0
    2.4704    3.2388    0.0000 H   0  0  0  0  0  0  0  0  0  0  0  0
    0.7700    3.9048    0.0000 C   0  0  0  0  0  0  0  0  0  0  0  0
   -0.2417    5.0122    0.0000 H   0  0  0  0  0  0  0  0  0  0  0  0
   -0.4963    3.1007    0.0000 H   0  0  0  0  0  0  0  0  0  0  0  0
    1.6850    5.0934    0.0000 O   0  0  0  0  0  0  0  0  0  0  0  0
    1.1130    6.4801    0.0000 H   0  0  0  0  0  0  0  0  0  0  0  0
    0.2749    1.2343    0.0000 C   0  0  2  0  0  0  0  0  0  0  0  0
   -1.1982    0.9516    0.0000 H   0  0  0  0  0  0  0  0  0  0  0  0
   -0.9251    2.2943    0.0000 C   0  0  0  0  0  0  0  0  0  0  0  0
    0.2833    3.1830    0.0000 H   0  0  0  0  0  0  0  0  0  0  0  0
   -1.5381    3.6634    0.0000 H   0  0  0  0  0  0  0  0  0  0  0  0
   -2.3951    1.9843    0.0000 C   0  0  0  0  0  0  0  0  0  0  0  0
   -2.3770    3.4842    0.0000 H   0  0  0  0  0  0  0  0  0  0  0  0
   -3.8549    2.3291    0.0000 H   0  0  0  0  0  0  0  0  0  0  0  0
   -3.0551    0.6243    0.0000 C   0  0  2  0  0  0  0  0  0  0  0  0
   -4.5550    0.6333    0.0000 C   0  0  0  0  0  0  0  0  0  0  0  0
   -5.2973    1.9368    0.0000 H   0  0  0  0  0  0  0  0  0  0  0  0
   -5.9676    0.1287    0.0000 H   0  0  0  0  0  0  0  0  0  0  0  0
   -4.3034   -0.8454    0.0000 H   0  0  0  0  0  0  0  0  0  0  0  0
   -2.4151   -0.7357    0.0000 O   0  0  0  0  0  0  0  0  0  0  0  0
   -0.9551   -1.0757    0.0000 C   0  0  2  0  0  0  0  0  0  0  0  0
   -2.1299   -2.0083    0.0000 H   0  0  0  0  0  0  0  0  0  0  0  0
    0.3349   -0.3157    0.0000 C   0  0  2  0  0  0  0  0  0  0  0  0
   -0.9951    0.0143    0.0000 O   0  0  0  0  0  0  0  0  0  0  0  0
   -1.6351    1.0843    0.0000 O   0  0  0  0  0  0  0  0  0  0  0  0
   -0.9551   -2.5757    0.0000 O   0  0  0  0  0  0  0  0  0  0  0  0
    0.3349   -3.3257    0.0000 C   0  0  1  0  0  0  0  0  0  0  0  0
   -0.6317   -4.4727    0.0000 H   0  0  0  0  0  0  0  0  0  0  0  0
    0.6764   -5.2760    0.0000 O   0  0  0  0  0  0  0  0  0  0  0  0
   -1.2100   -6.8550    0.0000 C   0  0  0  0  0  0  0  0  0  0  0  0
   -2.6189   -6.3402    0.0000 O   0  0  0  0  0  0  0  0  0  0  0  0
   -0.9514   -8.3325    0.0000 C   0  0  0  0  0  0  0  0  0  0  0  0
   -0.2030   -9.6324    0.0000 H   0  0  0  0  0  0  0  0  0  0  0  0
    0.4588   -7.8212    0.0000 H   0  0  0  0  0  0  0  0  0  0  0  0
   -2.1016   -9.2953    0.0000 C   0  0  0  0  0  0  0  0  0  0  0  0
   -2.8500   -7.9953    0.0000 H   0  0  0  0  0  0  0  0  0  0  0  0
   -3.5118   -9.8066    0.0000 H   0  0  0  0  0  0  0  0  0  0  0  0
   -1.8430  -10.7728    0.0000 C   0  0  0  0  0  0  0  0  0  0  0  0
   -0.4340  -11.2875    0.0000 O   0  0  0  0  0  0  0  0  0  0  0  0
   -2.9932  -11.7356    0.0000 O   0  0  0  0  0  0  0  0  0  0  0  0
   -2.7345  -13.2131    0.0000 H   0  0  0  0  0  0  0  0  0  0  0  0
  1  2  1  0  0  0  0 
  1  3  1  0  0  0  0 
  1  4  1  0  0  0  0 
  5  1  1  1  0  0  0 
  5  6  1  6  0  0  0 
  5  7  1  0  0  0  0 
  7  8  1  6  0  0  0 
  7  9  1  0  0  0  0 
  9 10  1  0  0  0  0 
  9 11  1  0  0  0  0 
  9 12  1  0  0  0  0 
 12 13  1  0  0  0  0 
 12 14  1  0  0  0  0 
 12 15  1  0  0  0  0 
 15 16  1  1  0  0  0 
 15 17  1  6  0  0  0 
 17 18  1  0  0  0  0 
 17 19  1  0  0  0  0 
 17 20  1  0  0  0  0 
 20 21  1  0  0  0  0 
 15 22  1  0  0  0  0 
 22 23  1  6  0  0  0 
 22 24  1  0  0  0  0 
 24 25  1  0  0  0  0 
 24 26  1  0  0  0  0 
 24 27  1  0  0  0  0 
 27 28  1  0  0  0  0 
 27 29  1  0  0  0  0 
 27 30  1  0  0  0  0 
 30 31  1  0  0  0  0 
 31 32  1  0  0  0  0 
 31 33  1  0  0  0  0 
 31 34  1  0  0  0  0 
 30 35  1  1  0  0  0 
 35 36  1  0  0  0  0 
 36 37  1  1  0  0  0 
 36 38  1  0  0  0  0 
  7 38  1  0  0  0  0 
 38 22  1  1  0  0  0 
 38 39  1  6  0  0  0 
 39 40  1  0  0  0  0 
 30 40  1  0  0  0  0 
 36 41  1  0  0  0  0 
 41 42  1  0  0  0  0 
  5 42  1  0  0  0  0 
 42 43  1  1  0  0  0 
 42 44  1  6  0  0  0 
 44 45  1  0  0  0  0 
 45 46  2  0  0  0  0 
 45 47  1  0  0  0  0 
 47 48  1  0  0  0  0 
 47 49  1  0  0  0  0 
 47 50  1  0  0  0  0 
 50 51  1  0  0  0  0 
 50 52  1  0  0  0  0 
 50 53  1  0  0  0  0 
 53 54  2  0  0  0  0 
 53 55  1  0  0  0  0 
 55 56  1  0  0  0  0 
M  END
> <Rank>
11

> <Priority_score>
0.104

> <Reaction_type>
aliphatic_hydroxylation_(primary_carbon_next_to_tert_carbon)

> <Parent_ID>
52

> <Parent_InChI>
InChI=1S/C19H28O8/c1-10-4-5-13-11(2)16(23-15(22)7-6-14(20)21)24-17-19(13)12(10)8-9-18(3,25-17)26-27-19/h10-13,16-17H,4-9H2,1-3H3,(H,20,21)

> <Parent_SMILES>
C[C@@H]1CC[C@H]2[C@@H](C)[C@H](OC(=O)CCC(=O)O)O[C@@H]3O[C@@]4(C)CC[C@@H]1[C@@]23OO4

$$$$
Molecule 52_metabolite 14
  CDK     0516241031

 56 59  0  0  0  0  0  0  0  0999 V2000
    2.6718    1.8999    0.0000 C   0  0  0  0  0  0  0  0  0  0  0  0
    2.1361    3.3010    0.0000 H   0  0  0  0  0  0  0  0  0  0  0  0
    3.6544    0.7666    0.0000 H   0  0  0  0  0  0  0  0  0  0  0  0
    3.9586    2.6708    0.0000 H   0  0  0  0  0  0  0  0  0  0  0  0
    1.1212   -0.0098    0.0000 C   0  0  2  0  0  0  0  0  0  0  0  0
    0.0002    2.7081    0.0000 H   0  0  0  0  0  0  0  0  0  0  0  0
    2.3912   -0.7598    0.0000 C   0  0  0  0  0  0  0  0  0  0  0  0
    3.8675   -1.0251    0.0000 H   0  0  0  0  0  0  0  0  0  0  0  0
    2.9135    0.6464    0.0000 H   0  0  0  0  0  0  0  0  0  0  0  0
    2.3912   -2.2498    0.0000 C   0  0  0  0  0  0  0  0  0  0  0  0
    1.2285   -1.3021    0.0000 H   0  0  0  0  0  0  0  0  0  0  0  0
    3.8545   -1.9199    0.0000 H   0  0  0  0  0  0  0  0  0  0  0  0
    1.2312   -3.1598    0.0000 C   0  0  1  0  0  0  0  0  0  0  0  0
    2.5800   -3.8160    0.0000 H   0  0  0  0  0  0  0  0  0  0  0  0
    1.2312   -4.6598    0.0000 C   0  0  1  0  0  0  0  0  0  0  0  0
    1.7439   -6.0694    0.0000 H   0  0  0  0  0  0  0  0  0  0  0  0
    3.1811   -4.3162    0.0000 C   0  0  0  0  0  0  0  0  0  0  0  0
    3.6943   -2.9067    0.0000 H   0  0  0  0  0  0  0  0  0  0  0  0
    4.6583   -4.5768    0.0000 H   0  0  0  0  0  0  0  0  0  0  0  0
    3.1810   -5.8162    0.0000 H   0  0  0  0  0  0  0  0  0  0  0  0
   -0.0688   -5.4098    0.0000 C   0  0  2  0  0  0  0  0  0  0  0  0
   -1.0354   -6.5568    0.0000 H   0  0  0  0  0  0  0  0  0  0  0  0
    0.8940   -6.5600    0.0000 O   0  0  0  0  0  0  0  0  0  0  0  0
    0.3792   -7.9689    0.0000 C   0  0  0  0  0  0  0  0  0  0  0  0
   -1.0983   -8.2276    0.0000 O   0  0  0  0  0  0  0  0  0  0  0  0
    1.3420   -9.1192    0.0000 C   0  0  0  0  0  0  0  0  0  0  0  0
    2.6401   -9.8708    0.0000 H   0  0  0  0  0  0  0  0  0  0  0  0
    2.3076   -7.9713    0.0000 H   0  0  0  0  0  0  0  0  0  0  0  0
    0.8272  -10.5281    0.0000 C   0  0  0  0  0  0  0  0  0  0  0  0
   -0.4709   -9.7765    0.0000 H   0  0  0  0  0  0  0  0  0  0  0  0
   -0.1384  -11.6760    0.0000 H   0  0  0  0  0  0  0  0  0  0  0  0
    1.7900  -11.6783    0.0000 C   0  0  0  0  0  0  0  0  0  0  0  0
    3.2675  -11.4197    0.0000 O   0  0  0  0  0  0  0  0  0  0  0  0
    1.2753  -13.0873    0.0000 O   0  0  0  0  0  0  0  0  0  0  0  0
    2.2380  -14.2375    0.0000 H   0  0  0  0  0  0  0  0  0  0  0  0
   -1.3588   -4.6598    0.0000 O   0  0  0  0  0  0  0  0  0  0  0  0
   -1.3588   -3.1598    0.0000 C   0  0  1  0  0  0  0  0  0  0  0  0
   -0.0688   -2.3998    0.0000 C   0  0  1  0  0  0  0  0  0  0  0  0
   -0.1288   -0.8498    0.0000 C   0  0  1  0  0  0  0  0  0  0  0  0
   -1.6019   -1.1326    0.0000 H   0  0  0  0  0  0  0  0  0  0  0  0
   -1.3288    0.2102    0.0000 C   0  0  0  0  0  0  0  0  0  0  0  0
   -0.1204    1.0989    0.0000 H   0  0  0  0  0  0  0  0  0  0  0  0
   -1.9418    1.5792    0.0000 H   0  0  0  0  0  0  0  0  0  0  0  0
   -2.7988   -0.0998    0.0000 C   0  0  0  0  0  0  0  0  0  0  0  0
   -2.7807    1.4001    0.0000 H   0  0  0  0  0  0  0  0  0  0  0  0
   -4.2586    0.2450    0.0000 H   0  0  0  0  0  0  0  0  0  0  0  0
   -3.4588   -1.4598    0.0000 C   0  0  2  0  0  0  0  0  0  0  0  0
   -4.9588   -1.4508    0.0000 C   0  0  0  0  0  0  0  0  0  0  0  0
   -5.7010   -0.1473    0.0000 H   0  0  0  0  0  0  0  0  0  0  0  0
   -6.3714   -1.9554    0.0000 H   0  0  0  0  0  0  0  0  0  0  0  0
   -4.7072   -2.9296    0.0000 H   0  0  0  0  0  0  0  0  0  0  0  0
   -2.8188   -2.8198    0.0000 O   0  0  0  0  0  0  0  0  0  0  0  0
   -2.0388   -0.9998    0.0000 O   0  0  0  0  0  0  0  0  0  0  0  0
   -1.3988   -2.0698    0.0000 O   0  0  0  0  0  0  0  0  0  0  0  0
   -2.5336   -4.0924    0.0000 O   0  0  0  0  0  0  0  0  0  0  0  0
   -3.9287   -3.5414    0.0000 H   0  0  0  0  0  0  0  0  0  0  0  0
  1  2  1  0  0  0  0 
  1  3  1  0  0  0  0 
  1  4  1  0  0  0  0 
  5  1  1  6  0  0  0 
  5  6  1  1  0  0  0 
  5  7  1  0  0  0  0 
  7  8  1  0  0  0  0 
  7  9  1  0  0  0  0 
  7 10  1  0  0  0  0 
 10 11  1  0  0  0  0 
 10 12  1  0  0  0  0 
 10 13  1  0  0  0  0 
 13 14  1  6  0  0  0 
 13 15  1  0  0  0  0 
 15 16  1  6  0  0  0 
 15 17  1  1  0  0  0 
 17 18  1  0  0  0  0 
 17 19  1  0  0  0  0 
 17 20  1  0  0  0  0 
 15 21  1  0  0  0  0 
 21 22  1  1  0  0  0 
 21 23  1  6  0  0  0 
 23 24  1  0  0  0  0 
 24 25  2  0  0  0  0 
 24 26  1  0  0  0  0 
 26 27  1  0  0  0  0 
 26 28  1  0  0  0  0 
 26 29  1  0  0  0  0 
 29 30  1  0  0  0  0 
 29 31  1  0  0  0  0 
 29 32  1  0  0  0  0 
 32 33  2  0  0  0  0 
 32 34  1  0  0  0  0 
 34 35  1  0  0  0  0 
 21 36  1  0  0  0  0 
 36 37  1  0  0  0  0 
 38 37  1  1  0  0  0 
 13 38  1  0  0  0  0 
 38 39  1  0  0  0  0 
  5 39  1  0  0  0  0 
 39 40  1  6  0  0  0 
 39 41  1  0  0  0  0 
 41 42  1  0  0  0  0 
 41 43  1  0  0  0  0 
 41 44  1  0  0  0  0 
 44 45  1  0  0  0  0 
 44 46  1  0  0  0  0 
 44 47  1  0  0  0  0 
 47 48  1  0  0  0  0 
 48 49  1  0  0  0  0 
 48 50  1  0  0  0  0 
 48 51  1  0  0  0  0 
 47 52  1  1  0  0  0 
 37 52  1  0  0  0  0 
 47 53  1  0  0  0  0 
 53 54  1  0  0  0  0 
 38 54  1  6  0  0  0 
 37 55  1  1  0  0  0 
 55 56  1  0  0  0  0 
M  END
> <Rank>
14

> <Priority_score>
0.088

> <Reaction_type>
aliphatic hydroxylation

> <Parent_ID>
52

> <Parent_InChI>
InChI=1S/C19H28O8/c1-10-4-5-13-11(2)16(23-15(22)7-6-14(20)21)24-17-19(13)12(10)8-9-18(3,25-17)26-27-19/h10-13,16-17H,4-9H2,1-3H3,(H,20,21)

> <Parent_SMILES>
C[C@@H]1CC[C@H]2[C@@H](C)[C@H](OC(=O)CCC(=O)O)O[C@@H]3O[C@@]4(C)CC[C@@H]1[C@@]23OO4

$$$$
Molecule 52_metabolite 15
  CDK     0516241031

 56 58  0  0  0  0  0  0  0  0999 V2000
   -7.7623   -1.4610    0.0000 C   0  0  0  0  0  0  0  0  0  0  0  0
   -6.7982   -0.3119    0.0000 H   0  0  0  0  0  0  0  0  0  0  0  0
   -9.0614   -2.2110    0.0000 H   0  0  0  0  0  0  0  0  0  0  0  0
   -8.7265   -0.3119    0.0000 H   0  0  0  0  0  0  0  0  0  0  0  0
   -6.7568   -4.2237    0.0000 C   0  0  2  0  0  0  0  0  0  0  0  0
   -8.2340   -4.4842    0.0000 H   0  0  0  0  0  0  0  0  0  0  0  0
   -6.7568   -5.7237    0.0000 C   0  0  0  0  0  0  0  0  0  0  0  0
   -8.2340   -5.4632    0.0000 H   0  0  0  0  0  0  0  0  0  0  0  0
   -7.2698   -7.1332    0.0000 H   0  0  0  0  0  0  0  0  0  0  0  0
   -5.4578   -6.4737    0.0000 C   0  0  0  0  0  0  0  0  0  0  0  0
   -6.4219   -7.6227    0.0000 H   0  0  0  0  0  0  0  0  0  0  0  0
   -4.4936   -7.6227    0.0000 H   0  0  0  0  0  0  0  0  0  0  0  0
   -4.1587   -5.7237    0.0000 C   0  0  1  0  0  0  0  0  0  0  0  0
   -2.8597   -4.9737    0.0000 H   0  0  0  0  0  0  0  0  0  0  0  0
   -2.8597   -6.4737    0.0000 C   0  0  1  0  0  0  0  0  0  0  0  0
   -3.8239   -7.6227    0.0000 H   0  0  0  0  0  0  0  0  0  0  0  0
   -2.0183   -8.7853    0.0000 C   0  0  0  0  0  0  0  0  0  0  0  0
   -2.9825   -9.9344    0.0000 H   0  0  0  0  0  0  0  0  0  0  0  0
   -1.0541   -9.9344    0.0000 H   0  0  0  0  0  0  0  0  0  0  0  0
   -0.7193   -8.0353    0.0000 H   0  0  0  0  0  0  0  0  0  0  0  0
   -1.5606   -5.7237    0.0000 C   0  0  2  0  0  0  0  0  0  0  0  0
   -1.0476   -7.1332    0.0000 H   0  0  0  0  0  0  0  0  0  0  0  0
   -0.0834   -5.4632    0.0000 O   0  0  0  0  0  0  0  0  0  0  0  0
    0.8807   -6.6123    0.0000 C   0  0  0  0  0  0  0  0  0  0  0  0
    0.3677   -8.0218    0.0000 O   0  0  0  0  0  0  0  0  0  0  0  0
    2.3580   -6.3518    0.0000 C   0  0  0  0  0  0  0  0  0  0  0  0
    3.6570   -5.6018    0.0000 H   0  0  0  0  0  0  0  0  0  0  0  0
    1.8449   -4.9423    0.0000 H   0  0  0  0  0  0  0  0  0  0  0  0
    3.3221   -7.5009    0.0000 C   0  0  0  0  0  0  0  0  0  0  0  0
    2.0231   -8.2509    0.0000 H   0  0  0  0  0  0  0  0  0  0  0  0
    3.8352   -8.9104    0.0000 H   0  0  0  0  0  0  0  0  0  0  0  0
    4.7993   -7.2404    0.0000 C   0  0  0  0  0  0  0  0  0  0  0  0
    5.3124   -5.8309    0.0000 O   0  0  0  0  0  0  0  0  0  0  0  0
    5.7635   -8.3895    0.0000 O   0  0  0  0  0  0  0  0  0  0  0  0
    7.2407   -8.1290    0.0000 H   0  0  0  0  0  0  0  0  0  0  0  0
   -1.5606   -4.2237    0.0000 O   0  0  0  0  0  0  0  0  0  0  0  0
   -2.8597   -3.4737    0.0000 C   0  0  0  0  0  0  0  0  0  0  0  0
   -2.8597   -1.9737    0.0000 O   0  0  0  0  0  0  0  0  0  0  0  0
   -4.1587   -4.2237    0.0000 C   0  0  1  0  0  0  0  0  0  0  0  0
   -5.4578   -3.4737    0.0000 C   0  0  1  0  0  0  0  0  0  0  0  0
   -4.3582   -2.4534    0.0000 H   0  0  0  0  0  0  0  0  0  0  0  0
   -5.6813   -1.9904    0.0000 C   0  0  0  0  0  0  0  0  0  0  0  0
   -7.3375    0.4387    0.0000 H   0  0  0  0  0  0  0  0  0  0  0  0
   -7.0776   -2.5384    0.0000 H   0  0  0  0  0  0  0  0  0  0  0  0
   -4.6611   -0.8909    0.0000 C   0  0  0  0  0  0  0  0  0  0  0  0
   -4.2189    0.5425    0.0000 H   0  0  0  0  0  0  0  0  0  0  0  0
   -5.9601   -0.1409    0.0000 H   0  0  0  0  0  0  0  0  0  0  0  0
   -3.1653   -1.0030    0.0000 C   0  0  2  0  0  0  0  0  0  0  0  0
   -1.7690   -0.4549    0.0000 C   0  0  0  0  0  0  0  0  0  0  0  0
   -1.5454    1.0283    0.0000 H   0  0  0  0  0  0  0  0  0  0  0  0
   -1.4717   -1.9252    0.0000 H   0  0  0  0  0  0  0  0  0  0  0  0
   -0.2694   -0.4175    0.0000 H   0  0  0  0  0  0  0  0  0  0  0  0
   -3.5319    1.4296    0.0000 O   0  0  0  0  0  0  0  0  0  0  0  0
   -4.9282    1.9776    0.0000 H   0  0  0  0  0  0  0  0  0  0  0  0
   -2.3203   -2.2423    0.0000 O   0  0  0  0  0  0  0  0  0  0  0  0
   -2.7624   -3.6757    0.0000 O   0  0  0  0  0  0  0  0  0  0  0  0
  1  2  1  0  0  0  0 
  1  3  1  0  0  0  0 
  1  4  1  0  0  0  0 
  5  1  1  1  0  0  0 
  5  6  1  6  0  0  0 
  5  7  1  0  0  0  0 
  7  8  1  0  0  0  0 
  7  9  1  0  0  0  0 
  7 10  1  0  0  0  0 
 10 11  1  0  0  0  0 
 10 12  1  0  0  0  0 
 10 13  1  0  0  0  0 
 13 14  1  1  0  0  0 
 13 15  1  0  0  0  0 
 15 16  1  1  0  0  0 
 15 17  1  6  0  0  0 
 17 18  1  0  0  0  0 
 17 19  1  0  0  0  0 
 17 20  1  0  0  0  0 
 15 21  1  0  0  0  0 
 21 22  1  6  0  0  0 
 21 23  1  1  0  0  0 
 23 24  1  0  0  0  0 
 24 25  2  0  0  0  0 
 24 26  1  0  0  0  0 
 26 27  1  0  0  0  0 
 26 28  1  0  0  0  0 
 26 29  1  0  0  0  0 
 29 30  1  0  0  0  0 
 29 31  1  0  0  0  0 
 29 32  1  0  0  0  0 
 32 33  2  0  0  0  0 
 32 34  1  0  0  0  0 
 34 35  1  0  0  0  0 
 21 36  1  0  0  0  0 
 36 37  1  0  0  0  0 
 37 38  2  0  0  0  0 
 39 37  1  6  0  0  0 
 13 39  1  0  0  0  0 
 39 40  1  0  0  0  0 
  5 40  1  0  0  0  0 
 40 41  1  1  0  0  0 
 40 42  1  0  0  0  0 
 42 43  1  0  0  0  0 
 42 44  1  0  0  0  0 
 42 45  1  0  0  0  0 
 45 46  1  0  0  0  0 
 45 47  1  0  0  0  0 
 45 48  1  0  0  0  0 
 48 49  1  1  0  0  0 
 49 50  1  0  0  0  0 
 49 51  1  0  0  0  0 
 49 52  1  0  0  0  0 
 48 53  1  6  0  0  0 
 53 54  1  0  0  0  0 
 48 55  1  0  0  0  0 
 55 56  1  0  0  0  0 
 39 56  1  1  0  0  0 
M  END
> <Rank>
14

> <Priority_score>
0.088

> <Reaction_type>
oxidative ether cleavage to one alcohol and one aldehyde/ketone

> <Parent_ID>
52

> <Parent_InChI>
InChI=1S/C19H28O8/c1-10-4-5-13-11(2)16(23-15(22)7-6-14(20)21)24-17-19(13)12(10)8-9-18(3,25-17)26-27-19/h10-13,16-17H,4-9H2,1-3H3,(H,20,21)

> <Parent_SMILES>
C[C@@H]1CC[C@H]2[C@@H](C)[C@H](OC(=O)CCC(=O)O)O[C@@H]3O[C@@]4(C)CC[C@@H]1[C@@]23OO4

$$$$
Molecule 52_metabolite 16
  CDK     0516241031

 56 58  0  0  0  0  0  0  0  0999 V2000
   11.2254   -3.2934    0.0000 C   0  0  0  0  0  0  0  0  0  0  0  0
   10.4433   -4.5733    0.0000 H   0  0  0  0  0  0  0  0  0  0  0  0
   12.3982   -2.3581    0.0000 H   0  0  0  0  0  0  0  0  0  0  0  0
   12.3501   -4.2859    0.0000 H   0  0  0  0  0  0  0  0  0  0  0  0
    9.8193   -0.7114    0.0000 C   0  0  2  0  0  0  0  0  0  0  0  0
   11.2412   -0.2337    0.0000 H   0  0  0  0  0  0  0  0  0  0  0  0
    9.5958    0.7719    0.0000 C   0  0  0  0  0  0  0  0  0  0  0  0
   11.0953    0.7345    0.0000 H   0  0  0  0  0  0  0  0  0  0  0  0
    9.8930    2.2421    0.0000 H   0  0  0  0  0  0  0  0  0  0  0  0
    8.1995    1.3199    0.0000 C   0  0  0  0  0  0  0  0  0  0  0  0
    8.9816    2.5998    0.0000 H   0  0  0  0  0  0  0  0  0  0  0  0
    7.0748    2.3124    0.0000 H   0  0  0  0  0  0  0  0  0  0  0  0
    7.0267    0.3846    0.0000 C   0  0  1  0  0  0  0  0  0  0  0  0
    6.3093    1.7020    0.0000 H   0  0  0  0  0  0  0  0  0  0  0  0
    5.5435    0.1611    0.0000 C   0  0  1  0  0  0  0  0  0  0  0  0
    4.1216   -0.3167    0.0000 H   0  0  0  0  0  0  0  0  0  0  0  0
    5.5061   -1.3385    0.0000 C   0  0  0  0  0  0  0  0  0  0  0  0
    6.7860   -2.1206    0.0000 H   0  0  0  0  0  0  0  0  0  0  0  0
    4.9581   -2.7348    0.0000 H   0  0  0  0  0  0  0  0  0  0  0  0
    2.6244   -0.7559    0.0000 H   0  0  0  0  0  0  0  0  0  0  0  0
    4.3090    1.7091    0.0000 C   0  0  1  0  0  0  0  0  0  0  0  0
    5.6263    2.4265    0.0000 H   0  0  0  0  0  0  0  0  0  0  0  0
    3.8312    3.1310    0.0000 O   0  0  0  0  0  0  0  0  0  0  0  0
    4.8238    4.2557    0.0000 H   0  0  0  0  0  0  0  0  0  0  0  0
    2.8257    1.4855    0.0000 O   0  0  0  0  0  0  0  0  0  0  0  0
    1.8905    2.6583    0.0000 C   0  0  0  0  0  0  0  0  0  0  0  0
    2.4385    4.0546    0.0000 O   0  0  0  0  0  0  0  0  0  0  0  0
    0.4072    2.4347    0.0000 C   0  0  0  0  0  0  0  0  0  0  0  0
   -0.9101    1.7173    0.0000 H   0  0  0  0  0  0  0  0  0  0  0  0
    0.8850    1.0128    0.0000 H   0  0  0  0  0  0  0  0  0  0  0  0
   -0.5280    3.6075    0.0000 C   0  0  0  0  0  0  0  0  0  0  0  0
    0.7893    4.3249    0.0000 H   0  0  0  0  0  0  0  0  0  0  0  0
   -1.0057    5.0294    0.0000 H   0  0  0  0  0  0  0  0  0  0  0  0
   -2.0112    3.3839    0.0000 C   0  0  0  0  0  0  0  0  0  0  0  0
   -2.5593    1.9876    0.0000 O   0  0  0  0  0  0  0  0  0  0  0  0
   -2.9465    4.5567    0.0000 O   0  0  0  0  0  0  0  0  0  0  0  0
   -4.4297    4.3331    0.0000 H   0  0  0  0  0  0  0  0  0  0  0  0
    7.2503   -1.0986    0.0000 C   0  0  2  0  0  0  0  0  0  0  0  0
    8.6466   -1.6466    0.0000 C   0  0  1  0  0  0  0  0  0  0  0  0
    7.7114   -2.8194    0.0000 H   0  0  0  0  0  0  0  0  0  0  0  0
    9.0887   -3.0800    0.0000 C   0  0  0  0  0  0  0  0  0  0  0  0
   11.0884   -5.2351    0.0000 H   0  0  0  0  0  0  0  0  0  0  0  0
   10.3878   -2.3300    0.0000 H   0  0  0  0  0  0  0  0  0  0  0  0
    8.2437   -4.3193    0.0000 C   0  0  0  0  0  0  0  0  0  0  0  0
    8.0202   -5.8026    0.0000 H   0  0  0  0  0  0  0  0  0  0  0  0
    9.6401   -4.8673    0.0000 H   0  0  0  0  0  0  0  0  0  0  0  0
    6.7479   -4.4314    0.0000 C   0  0  2  0  0  0  0  0  0  0  0  0
    6.1999   -5.8277    0.0000 C   0  0  0  0  0  0  0  0  0  0  0  0
    7.1352   -7.0005    0.0000 H   0  0  0  0  0  0  0  0  0  0  0  0
    4.9200   -5.0456    0.0000 H   0  0  0  0  0  0  0  0  0  0  0  0
    5.2074   -6.9524    0.0000 H   0  0  0  0  0  0  0  0  0  0  0  0
    5.7277   -3.3319    0.0000 O   0  0  0  0  0  0  0  0  0  0  0  0
    5.9512   -1.8486    0.0000 C   0  0  0  0  0  0  0  0  0  0  0  0
    4.8774   -0.8013    0.0000 O   0  0  0  0  0  0  0  0  0  0  0  0
    3.7614   -3.3869    0.0000 O   0  0  0  0  0  0  0  0  0  0  0  0
    4.0885   -1.2165    0.0000 O   0  0  0  0  0  0  0  0  0  0  0  0
  1  2  1  0  0  0  0 
  1  3  1  0  0  0  0 
  1  4  1  0  0  0  0 
  5  1  1  1  0  0  0 
  5  6  1  6  0  0  0 
  5  7  1  0  0  0  0 
  7  8  1  0  0  0  0 
  7  9  1  0  0  0  0 
  7 10  1  0  0  0  0 
 10 11  1  0  0  0  0 
 10 12  1  0  0  0  0 
 13 10  1  6  0  0  0 
 13 14  1  1  0  0  0 
 13 15  1  0  0  0  0 
 15 16  1  6  0  0  0 
 15 17  1  1  0  0  0 
 17 18  1  0  0  0  0 
 17 19  1  0  0  0  0 
 17 20  1  0  0  0  0 
 15 21  1  0  0  0  0 
 21 22  1  1  0  0  0 
 21 23  1  6  0  0  0 
 23 24  1  0  0  0  0 
 21 25  1  0  0  0  0 
 25 26  1  0  0  0  0 
 26 27  2  0  0  0  0 
 26 28  1  0  0  0  0 
 28 29  1  0  0  0  0 
 28 30  1  0  0  0  0 
 28 31  1  0  0  0  0 
 31 32  1  0  0  0  0 
 31 33  1  0  0  0  0 
 31 34  1  0  0  0  0 
 34 35  2  0  0  0  0 
 34 36  1  0  0  0  0 
 36 37  1  0  0  0  0 
 13 38  1  0  0  0  0 
 38 39  1  0  0  0  0 
  5 39  1  0  0  0  0 
 39 40  1  1  0  0  0 
 39 41  1  0  0  0  0 
 41 42  1  0  0  0  0 
 41 43  1  0  0  0  0 
 41 44  1  0  0  0  0 
 44 45  1  0  0  0  0 
 44 46  1  0  0  0  0 
 44 47  1  0  0  0  0 
 47 48  1  0  0  0  0 
 48 49  1  0  0  0  0 
 48 50  1  0  0  0  0 
 48 51  1  0  0  0  0 
 47 52  1  6  0  0  0 
 52 53  1  0  0  0  0 
 38 53  1  6  0  0  0 
 53 54  2  0  0  0  0 
 47 55  1  0  0  0  0 
 55 56  1  0  0  0  0 
 38 56  1  1  0  0  0 
M  END
> <Rank>
14

> <Priority_score>
0.088

> <Reaction_type>
oxidative ether cleavage to one alcohol and one aldehyde/ketone

> <Parent_ID>
52

> <Parent_InChI>
InChI=1S/C19H28O8/c1-10-4-5-13-11(2)16(23-15(22)7-6-14(20)21)24-17-19(13)12(10)8-9-18(3,25-17)26-27-19/h10-13,16-17H,4-9H2,1-3H3,(H,20,21)

> <Parent_SMILES>
C[C@@H]1CC[C@H]2[C@@H](C)[C@H](OC(=O)CCC(=O)O)O[C@@H]3O[C@@]4(C)CC[C@@H]1[C@@]23OO4

$$$$
Molecule 52_metabolite 17
  CDK     0516241031

 56 58  0  0  0  0  0  0  0  0999 V2000
    9.4174   -2.8250    0.0000 C   0  0  0  0  0  0  0  0  0  0  0  0
    8.6352   -4.1050    0.0000 H   0  0  0  0  0  0  0  0  0  0  0  0
   10.5901   -1.8898    0.0000 H   0  0  0  0  0  0  0  0  0  0  0  0
   10.5420   -3.8176    0.0000 H   0  0  0  0  0  0  0  0  0  0  0  0
    8.0113   -0.2431    0.0000 C   0  0  2  0  0  0  0  0  0  0  0  0
    9.4332    0.2347    0.0000 H   0  0  0  0  0  0  0  0  0  0  0  0
    7.7877    1.2402    0.0000 C   0  0  0  0  0  0  0  0  0  0  0  0
    9.2873    1.2028    0.0000 H   0  0  0  0  0  0  0  0  0  0  0  0
    8.0850    2.7105    0.0000 H   0  0  0  0  0  0  0  0  0  0  0  0
    6.3914    1.7882    0.0000 C   0  0  0  0  0  0  0  0  0  0  0  0
    7.1736    3.0681    0.0000 H   0  0  0  0  0  0  0  0  0  0  0  0
    5.2668    2.7807    0.0000 H   0  0  0  0  0  0  0  0  0  0  0  0
    5.2187    0.8530    0.0000 C   0  0  1  0  0  0  0  0  0  0  0  0
    4.5013    2.1703    0.0000 H   0  0  0  0  0  0  0  0  0  0  0  0
    3.2608    0.5579    0.0000 C   0  0  1  0  0  0  0  0  0  0  0  0
    0.6788   -0.8482    0.0000 H   0  0  0  0  0  0  0  0  0  0  0  0
    3.7385   -0.8640    0.0000 C   0  0  0  0  0  0  0  0  0  0  0  0
    2.7460   -1.9887    0.0000 H   0  0  0  0  0  0  0  0  0  0  0  0
    4.6738   -2.0368    0.0000 H   0  0  0  0  0  0  0  0  0  0  0  0
    5.8990    0.3125    0.0000 H   0  0  0  0  0  0  0  0  0  0  0  0
    2.3256    1.7306    0.0000 C   0  0  0  0  0  0  0  0  0  0  0  0
    2.8736    3.1269    0.0000 O   0  0  0  0  0  0  0  0  0  0  0  0
    0.8423    1.5071    0.0000 O   0  0  0  0  0  0  0  0  0  0  0  0
   -0.0929    2.6798    0.0000 C   0  0  0  0  0  0  0  0  0  0  0  0
    0.4551    4.0761    0.0000 O   0  0  0  0  0  0  0  0  0  0  0  0
   -1.5762    2.4562    0.0000 C   0  0  0  0  0  0  0  0  0  0  0  0
   -2.8935    1.7389    0.0000 H   0  0  0  0  0  0  0  0  0  0  0  0
   -1.0984    1.0343    0.0000 H   0  0  0  0  0  0  0  0  0  0  0  0
   -2.5114    3.6290    0.0000 C   0  0  0  0  0  0  0  0  0  0  0  0
   -1.1941    4.3464    0.0000 H   0  0  0  0  0  0  0  0  0  0  0  0
   -2.9891    5.0509    0.0000 H   0  0  0  0  0  0  0  0  0  0  0  0
   -3.9946    3.4054    0.0000 C   0  0  0  0  0  0  0  0  0  0  0  0
   -4.5427    2.0091    0.0000 O   0  0  0  0  0  0  0  0  0  0  0  0
   -4.9299    4.5782    0.0000 O   0  0  0  0  0  0  0  0  0  0  0  0
   -6.4131    4.3546    0.0000 H   0  0  0  0  0  0  0  0  0  0  0  0
    5.4423   -0.6303    0.0000 C   0  0  2  0  0  0  0  0  0  0  0  0
    6.8386   -1.1783    0.0000 C   0  0  1  0  0  0  0  0  0  0  0  0
    5.9033   -2.3510    0.0000 H   0  0  0  0  0  0  0  0  0  0  0  0
    7.2807   -2.6116    0.0000 C   0  0  0  0  0  0  0  0  0  0  0  0
    9.2804   -4.7668    0.0000 H   0  0  0  0  0  0  0  0  0  0  0  0
    8.5797   -1.8616    0.0000 H   0  0  0  0  0  0  0  0  0  0  0  0
    6.4357   -3.8510    0.0000 C   0  0  0  0  0  0  0  0  0  0  0  0
    6.2122   -5.3343    0.0000 H   0  0  0  0  0  0  0  0  0  0  0  0
    7.8320   -4.3990    0.0000 H   0  0  0  0  0  0  0  0  0  0  0  0
    4.9399   -3.9631    0.0000 C   0  0  2  0  0  0  0  0  0  0  0  0
    4.3919   -5.3594    0.0000 C   0  0  0  0  0  0  0  0  0  0  0  0
    5.3271   -6.5322    0.0000 H   0  0  0  0  0  0  0  0  0  0  0  0
    3.1120   -4.5773    0.0000 H   0  0  0  0  0  0  0  0  0  0  0  0
    3.3994   -6.4841    0.0000 H   0  0  0  0  0  0  0  0  0  0  0  0
    3.9197   -2.8635    0.0000 O   0  0  0  0  0  0  0  0  0  0  0  0
    4.1432   -1.3803    0.0000 C   0  0  1  0  0  0  0  0  0  0  0  0
    3.2766    1.4291    0.0000 H   0  0  0  0  0  0  0  0  0  0  0  0
    1.6901   -1.5641    0.0000 O   0  0  0  0  0  0  0  0  0  0  0  0
    0.8310   -3.3480    0.0000 H   0  0  0  0  0  0  0  0  0  0  0  0
    1.9533   -2.9185    0.0000 O   0  0  0  0  0  0  0  0  0  0  0  0
    2.2805   -0.7481    0.0000 O   0  0  0  0  0  0  0  0  0  0  0  0
  1  2  1  0  0  0  0 
  1  3  1  0  0  0  0 
  1  4  1  0  0  0  0 
  5  1  1  1  0  0  0 
  5  6  1  6  0  0  0 
  5  7  1  0  0  0  0 
  7  8  1  0  0  0  0 
  7  9  1  0  0  0  0 
  7 10  1  0  0  0  0 
 10 11  1  0  0  0  0 
 10 12  1  0  0  0  0 
 13 10  1  6  0  0  0 
 13 14  1  1  0  0  0 
 13 15  1  0  0  0  0 
 15 16  1  6  0  0  0 
 15 17  1  0  0  0  0 
 17 18  1  0  0  0  0 
 17 19  1  0  0  0  0 
 17 20  1  0  0  0  0 
 15 21  1  1  0  0  0 
 21 22  2  0  0  0  0 
 21 23  1  0  0  0  0 
 23 24  1  0  0  0  0 
 24 25  2  0  0  0  0 
 24 26  1  0  0  0  0 
 26 27  1  0  0  0  0 
 26 28  1  0  0  0  0 
 26 29  1  0  0  0  0 
 29 30  1  0  0  0  0 
 29 31  1  0  0  0  0 
 29 32  1  0  0  0  0 
 32 33  2  0  0  0  0 
 32 34  1  0  0  0  0 
 34 35  1  0  0  0  0 
 36 13  1  6  0  0  0 
 36 37  1  0  0  0  0 
  5 37  1  0  0  0  0 
 37 38  1  1  0  0  0 
 37 39  1  0  0  0  0 
 39 40  1  0  0  0  0 
 39 41  1  0  0  0  0 
 39 42  1  0  0  0  0 
 42 43  1  0  0  0  0 
 42 44  1  0  0  0  0 
 42 45  1  0  0  0  0 
 45 46  1  0  0  0  0 
 46 47  1  0  0  0  0 
 46 48  1  0  0  0  0 
 46 49  1  0  0  0  0 
 45 50  1  6  0  0  0 
 50 51  1  0  0  0  0 
 36 51  1  0  0  0  0 
 51 52  1  6  0  0  0 
 51 53  1  1  0  0  0 
 53 54  1  0  0  0  0 
 45 55  1  0  0  0  0 
 55 56  1  0  0  0  0 
 36 56  1  1  0  0  0 
M  END
> <Rank>
14

> <Priority_score>
0.088

> <Reaction_type>
oxidative ether cleavage to one alcohol and one aldehyde/ketone

> <Parent_ID>
52

> <Parent_InChI>
InChI=1S/C19H28O8/c1-10-4-5-13-11(2)16(23-15(22)7-6-14(20)21)24-17-19(13)12(10)8-9-18(3,25-17)26-27-19/h10-13,16-17H,4-9H2,1-3H3,(H,20,21)

> <Parent_SMILES>
C[C@@H]1CC[C@H]2[C@@H](C)[C@H](OC(=O)CCC(=O)O)O[C@@H]3O[C@@]4(C)CC[C@@H]1[C@@]23OO4

$$$$
Molecule 52_metabolite 18
  CDK     0516241031

 58 60  0  0  0  0  0  0  0  0999 V2000
   -8.2287   -1.3887    0.0000 C   0  0  0  0  0  0  0  0  0  0  0  0
   -7.2645   -0.2396    0.0000 H   0  0  0  0  0  0  0  0  0  0  0  0
   -9.5277   -2.1387    0.0000 H   0  0  0  0  0  0  0  0  0  0  0  0
   -9.1928   -0.2396    0.0000 H   0  0  0  0  0  0  0  0  0  0  0  0
   -7.2231   -4.1514    0.0000 C   0  0  2  0  0  0  0  0  0  0  0  0
   -8.7003   -4.4119    0.0000 H   0  0  0  0  0  0  0  0  0  0  0  0
   -7.2231   -5.6514    0.0000 C   0  0  0  0  0  0  0  0  0  0  0  0
   -8.7003   -5.3909    0.0000 H   0  0  0  0  0  0  0  0  0  0  0  0
   -7.7361   -7.0609    0.0000 H   0  0  0  0  0  0  0  0  0  0  0  0
   -5.9241   -6.4014    0.0000 C   0  0  0  0  0  0  0  0  0  0  0  0
   -6.8883   -7.5505    0.0000 H   0  0  0  0  0  0  0  0  0  0  0  0
   -4.9599   -7.5505    0.0000 H   0  0  0  0  0  0  0  0  0  0  0  0
   -4.6250   -5.6514    0.0000 C   0  0  1  0  0  0  0  0  0  0  0  0
   -3.3260   -4.9014    0.0000 H   0  0  0  0  0  0  0  0  0  0  0  0
   -3.3260   -6.4014    0.0000 C   0  0  1  0  0  0  0  0  0  0  0  0
   -4.2902   -7.5505    0.0000 H   0  0  0  0  0  0  0  0  0  0  0  0
   -2.4846   -8.7131    0.0000 C   0  0  0  0  0  0  0  0  0  0  0  0
   -3.4488   -9.8621    0.0000 H   0  0  0  0  0  0  0  0  0  0  0  0
   -1.5204   -9.8621    0.0000 H   0  0  0  0  0  0  0  0  0  0  0  0
   -1.1856   -7.9631    0.0000 H   0  0  0  0  0  0  0  0  0  0  0  0
   -2.0270   -5.6514    0.0000 C   0  0  2  0  0  0  0  0  0  0  0  0
   -1.5139   -7.0609    0.0000 H   0  0  0  0  0  0  0  0  0  0  0  0
   -0.5498   -5.3909    0.0000 O   0  0  0  0  0  0  0  0  0  0  0  0
    0.4144   -6.5400    0.0000 C   0  0  0  0  0  0  0  0  0  0  0  0
   -0.0986   -7.9495    0.0000 O   0  0  0  0  0  0  0  0  0  0  0  0
    1.8916   -6.2795    0.0000 C   0  0  0  0  0  0  0  0  0  0  0  0
    3.1907   -5.5295    0.0000 H   0  0  0  0  0  0  0  0  0  0  0  0
    1.3786   -4.8700    0.0000 H   0  0  0  0  0  0  0  0  0  0  0  0
    2.8558   -7.4286    0.0000 C   0  0  0  0  0  0  0  0  0  0  0  0
    1.5568   -8.1786    0.0000 H   0  0  0  0  0  0  0  0  0  0  0  0
    3.3689   -8.8381    0.0000 H   0  0  0  0  0  0  0  0  0  0  0  0
    4.3330   -7.1681    0.0000 C   0  0  0  0  0  0  0  0  0  0  0  0
    4.8461   -5.7586    0.0000 O   0  0  0  0  0  0  0  0  0  0  0  0
    5.2972   -8.3172    0.0000 O   0  0  0  0  0  0  0  0  0  0  0  0
    6.7744   -8.0567    0.0000 H   0  0  0  0  0  0  0  0  0  0  0  0
   -2.0270   -4.1514    0.0000 O   0  0  0  0  0  0  0  0  0  0  0  0
   -3.3260   -3.4014    0.0000 C   0  0  1  0  0  0  0  0  0  0  0  0
   -2.0533   -1.8846    0.0000 H   0  0  0  0  0  0  0  0  0  0  0  0
   -4.6250   -4.1514    0.0000 C   0  0  1  0  0  0  0  0  0  0  0  0
   -5.9241   -3.4014    0.0000 C   0  0  1  0  0  0  0  0  0  0  0  0
   -4.8245   -2.3811    0.0000 H   0  0  0  0  0  0  0  0  0  0  0  0
   -6.1476   -1.9182    0.0000 C   0  0  0  0  0  0  0  0  0  0  0  0
   -7.8038    0.5110    0.0000 H   0  0  0  0  0  0  0  0  0  0  0  0
   -7.5440   -2.4662    0.0000 H   0  0  0  0  0  0  0  0  0  0  0  0
   -5.1274   -0.8186    0.0000 C   0  0  0  0  0  0  0  0  0  0  0  0
   -4.6852    0.6148    0.0000 H   0  0  0  0  0  0  0  0  0  0  0  0
   -6.4264   -0.0686    0.0000 H   0  0  0  0  0  0  0  0  0  0  0  0
   -3.6316   -0.9307    0.0000 C   0  0  2  0  0  0  0  0  0  0  0  0
   -2.2353   -0.3827    0.0000 C   0  0  0  0  0  0  0  0  0  0  0  0
   -1.0625   -1.3179    0.0000 H   0  0  0  0  0  0  0  0  0  0  0  0
   -3.0174    0.8973    0.0000 H   0  0  0  0  0  0  0  0  0  0  0  0
   -1.1106    0.6099    0.0000 H   0  0  0  0  0  0  0  0  0  0  0  0
   -3.9982    1.5018    0.0000 O   0  0  0  0  0  0  0  0  0  0  0  0
   -5.3945    2.0499    0.0000 H   0  0  0  0  0  0  0  0  0  0  0  0
   -2.7866   -2.1700    0.0000 O   0  0  0  0  0  0  0  0  0  0  0  0
   -3.2287   -3.6034    0.0000 O   0  0  0  0  0  0  0  0  0  0  0  0
   -4.2902   -2.2523    0.0000 O   0  0  0  0  0  0  0  0  0  0  0  0
   -5.7674   -2.5128    0.0000 H   0  0  0  0  0  0  0  0  0  0  0  0
  1  2  1  0  0  0  0 
  1  3  1  0  0  0  0 
  1  4  1  0  0  0  0 
  5  1  1  1  0  0  0 
  5  6  1  6  0  0  0 
  5  7  1  0  0  0  0 
  7  8  1  0  0  0  0 
  7  9  1  0  0  0  0 
  7 10  1  0  0  0  0 
 10 11  1  0  0  0  0 
 10 12  1  0  0  0  0 
 10 13  1  0  0  0  0 
 13 14  1  1  0  0  0 
 13 15  1  0  0  0  0 
 15 16  1  1  0  0  0 
 15 17  1  6  0  0  0 
 17 18  1  0  0  0  0 
 17 19  1  0  0  0  0 
 17 20  1  0  0  0  0 
 15 21  1  0  0  0  0 
 21 22  1  6  0  0  0 
 21 23  1  1  0  0  0 
 23 24  1  0  0  0  0 
 24 25  2  0  0  0  0 
 24 26  1  0  0  0  0 
 26 27  1  0  0  0  0 
 26 28  1  0  0  0  0 
 26 29  1  0  0  0  0 
 29 30  1  0  0  0  0 
 29 31  1  0  0  0  0 
 29 32  1  0  0  0  0 
 32 33  2  0  0  0  0 
 32 34  1  0  0  0  0 
 34 35  1  0  0  0  0 
 21 36  1  0  0  0  0 
 36 37  1  0  0  0  0 
 37 38  1  6  0  0  0 
 37 39  1  0  0  0  0 
 39 13  1  6  0  0  0 
 39 40  1  0  0  0  0 
  5 40  1  0  0  0  0 
 40 41  1  1  0  0  0 
 40 42  1  0  0  0  0 
 42 43  1  0  0  0  0 
 42 44  1  0  0  0  0 
 42 45  1  0  0  0  0 
 45 46  1  0  0  0  0 
 45 47  1  0  0  0  0 
 45 48  1  0  0  0  0 
 48 49  1  1  0  0  0 
 49 50  1  0  0  0  0 
 49 51  1  0  0  0  0 
 49 52  1  0  0  0  0 
 48 53  1  6  0  0  0 
 53 54  1  0  0  0  0 
 48 55  1  0  0  0  0 
 55 56  1  0  0  0  0 
 39 56  1  1  0  0  0 
 37 57  1  1  0  0  0 
 57 58  1  0  0  0  0 
M  END
> <Rank>
14

> <Priority_score>
0.088

> <Reaction_type>
O-deglycosidation

> <Parent_ID>
52

> <Parent_InChI>
InChI=1S/C19H28O8/c1-10-4-5-13-11(2)16(23-15(22)7-6-14(20)21)24-17-19(13)12(10)8-9-18(3,25-17)26-27-19/h10-13,16-17H,4-9H2,1-3H3,(H,20,21)

> <Parent_SMILES>
C[C@@H]1CC[C@H]2[C@@H](C)[C@H](OC(=O)CCC(=O)O)O[C@@H]3O[C@@]4(C)CC[C@@H]1[C@@]23OO4

$$$$
Molecule 52_metabolite 19
  CDK     0516241031

 55 58  0  0  0  0  0  0  0  0999 V2000
    2.6718    1.8999    0.0000 C   0  0  0  0  0  0  0  0  0  0  0  0
    2.1361    3.3010    0.0000 H   0  0  0  0  0  0  0  0  0  0  0  0
    3.6544    0.7666    0.0000 H   0  0  0  0  0  0  0  0  0  0  0  0
    3.9586    2.6708    0.0000 H   0  0  0  0  0  0  0  0  0  0  0  0
    1.1212   -0.0098    0.0000 C   0  0  2  0  0  0  0  0  0  0  0  0
    0.0002    2.7081    0.0000 H   0  0  0  0  0  0  0  0  0  0  0  0
    2.3912   -0.7598    0.0000 C   0  0  0  0  0  0  0  0  0  0  0  0
    3.8675   -1.0251    0.0000 H   0  0  0  0  0  0  0  0  0  0  0  0
    2.9135    0.6464    0.0000 H   0  0  0  0  0  0  0  0  0  0  0  0
    2.3912   -2.2498    0.0000 C   0  0  0  0  0  0  0  0  0  0  0  0
    1.2285   -1.3021    0.0000 H   0  0  0  0  0  0  0  0  0  0  0  0
    3.8545   -1.9199    0.0000 H   0  0  0  0  0  0  0  0  0  0  0  0
    1.2312   -3.1598    0.0000 C   0  0  1  0  0  0  0  0  0  0  0  0
    2.5800   -3.8160    0.0000 H   0  0  0  0  0  0  0  0  0  0  0  0
    1.2312   -4.6598    0.0000 C   0  0  1  0  0  0  0  0  0  0  0  0
    1.7439   -6.0694    0.0000 H   0  0  0  0  0  0  0  0  0  0  0  0
    3.1811   -4.3162    0.0000 C   0  0  0  0  0  0  0  0  0  0  0  0
    3.6943   -2.9067    0.0000 H   0  0  0  0  0  0  0  0  0  0  0  0
    4.6583   -4.5768    0.0000 H   0  0  0  0  0  0  0  0  0  0  0  0
    3.1810   -5.8162    0.0000 H   0  0  0  0  0  0  0  0  0  0  0  0
   -0.0688   -5.4098    0.0000 C   0  0  2  0  0  0  0  0  0  0  0  0
   -1.0354   -6.5568    0.0000 H   0  0  0  0  0  0  0  0  0  0  0  0
    0.8940   -6.5600    0.0000 O   0  0  0  0  0  0  0  0  0  0  0  0
    0.3792   -7.9689    0.0000 C   0  0  0  0  0  0  0  0  0  0  0  0
   -1.0983   -8.2276    0.0000 O   0  0  0  0  0  0  0  0  0  0  0  0
    1.3420   -9.1192    0.0000 C   0  0  0  0  0  0  0  0  0  0  0  0
    2.6401   -9.8708    0.0000 H   0  0  0  0  0  0  0  0  0  0  0  0
    2.3076   -7.9713    0.0000 H   0  0  0  0  0  0  0  0  0  0  0  0
    0.8272  -10.5281    0.0000 C   0  0  0  0  0  0  0  0  0  0  0  0
   -0.4709   -9.7765    0.0000 H   0  0  0  0  0  0  0  0  0  0  0  0
   -0.1384  -11.6760    0.0000 H   0  0  0  0  0  0  0  0  0  0  0  0
    1.7900  -11.6783    0.0000 C   0  0  0  0  0  0  0  0  0  0  0  0
    3.2675  -11.4197    0.0000 O   0  0  0  0  0  0  0  0  0  0  0  0
    1.2753  -13.0873    0.0000 O   0  0  0  0  0  0  0  0  0  0  0  0
    2.2380  -14.2375    0.0000 H   0  0  0  0  0  0  0  0  0  0  0  0
   -1.3588   -4.6598    0.0000 O   0  0  0  0  0  0  0  0  0  0  0  0
   -1.3588   -3.1598    0.0000 C   0  0  1  0  0  0  0  0  0  0  0  0
   -2.5336   -4.0924    0.0000 H   0  0  0  0  0  0  0  0  0  0  0  0
   -0.0688   -2.3998    0.0000 C   0  0  1  0  0  0  0  0  0  0  0  0
   -0.1288   -0.8498    0.0000 C   0  0  1  0  0  0  0  0  0  0  0  0
   -1.6019   -1.1326    0.0000 H   0  0  0  0  0  0  0  0  0  0  0  0
   -1.3288    0.2102    0.0000 C   0  0  0  0  0  0  0  0  0  0  0  0
   -0.1204    1.0989    0.0000 H   0  0  0  0  0  0  0  0  0  0  0  0
   -1.9418    1.5792    0.0000 H   0  0  0  0  0  0  0  0  0  0  0  0
   -2.7988   -0.0998    0.0000 C   0  0  0  0  0  0  0  0  0  0  0  0
   -2.7807    1.4001    0.0000 H   0  0  0  0  0  0  0  0  0  0  0  0
   -4.2586    0.2450    0.0000 H   0  0  0  0  0  0  0  0  0  0  0  0
   -3.4588   -1.4598    0.0000 C   0  0  2  0  0  0  0  0  0  0  0  0
   -4.9588   -1.4508    0.0000 C   0  0  0  0  0  0  0  0  0  0  0  0
   -5.7165   -2.7453    0.0000 O   0  0  0  0  0  0  0  0  0  0  0  0
   -5.7010   -0.1473    0.0000 O   0  0  0  0  0  0  0  0  0  0  0  0
   -7.2010   -0.1383    0.0000 H   0  0  0  0  0  0  0  0  0  0  0  0
   -2.8188   -2.8198    0.0000 O   0  0  0  0  0  0  0  0  0  0  0  0
   -2.0388   -0.9998    0.0000 O   0  0  0  0  0  0  0  0  0  0  0  0
   -1.3988   -2.0698    0.0000 O   0  0  0  0  0  0  0  0  0  0  0  0
  1  2  1  0  0  0  0 
  1  3  1  0  0  0  0 
  1  4  1  0  0  0  0 
  5  1  1  6  0  0  0 
  5  6  1  1  0  0  0 
  5  7  1  0  0  0  0 
  7  8  1  0  0  0  0 
  7  9  1  0  0  0  0 
  7 10  1  0  0  0  0 
 10 11  1  0  0  0  0 
 10 12  1  0  0  0  0 
 10 13  1  0  0  0  0 
 13 14  1  6  0  0  0 
 13 15  1  0  0  0  0 
 15 16  1  6  0  0  0 
 15 17  1  1  0  0  0 
 17 18  1  0  0  0  0 
 17 19  1  0  0  0  0 
 17 20  1  0  0  0  0 
 15 21  1  0  0  0  0 
 21 22  1  1  0  0  0 
 21 23  1  6  0  0  0 
 23 24  1  0  0  0  0 
 24 25  2  0  0  0  0 
 24 26  1  0  0  0  0 
 26 27  1  0  0  0  0 
 26 28  1  0  0  0  0 
 26 29  1  0  0  0  0 
 29 30  1  0  0  0  0 
 29 31  1  0  0  0  0 
 29 32  1  0  0  0  0 
 32 33  2  0  0  0  0 
 32 34  1  0  0  0  0 
 34 35  1  0  0  0  0 
 21 36  1  0  0  0  0 
 36 37  1  0  0  0  0 
 37 38  1  1  0  0  0 
 39 37  1  1  0  0  0 
 13 39  1  0  0  0  0 
 39 40  1  0  0  0  0 
  5 40  1  0  0  0  0 
 40 41  1  6  0  0  0 
 40 42  1  0  0  0  0 
 42 43  1  0  0  0  0 
 42 44  1  0  0  0  0 
 42 45  1  0  0  0  0 
 45 46  1  0  0  0  0 
 45 47  1  0  0  0  0 
 45 48  1  0  0  0  0 
 48 49  1  6  0  0  0 
 49 50  2  0  0  0  0 
 49 51  1  0  0  0  0 
 51 52  1  0  0  0  0 
 48 53  1  0  0  0  0 
 37 53  1  0  0  0  0 
 48 54  1  0  0  0  0 
 54 55  1  0  0  0  0 
 39 55  1  6  0  0  0 
M  END
> <Rank>
19

> <Priority_score>
0.08

> <Reaction_type>
carboxylation_(primary_carbon_next_to_quart_carbon)

> <Parent_ID>
52

> <Parent_InChI>
InChI=1S/C19H28O8/c1-10-4-5-13-11(2)16(23-15(22)7-6-14(20)21)24-17-19(13)12(10)8-9-18(3,25-17)26-27-19/h10-13,16-17H,4-9H2,1-3H3,(H,20,21)

> <Parent_SMILES>
C[C@@H]1CC[C@H]2[C@@H](C)[C@H](OC(=O)CCC(=O)O)O[C@@H]3O[C@@]4(C)CC[C@@H]1[C@@]23OO4

$$$$
Molecule 52_metabolite 20
  CDK     0516241031

 56 59  0  0  0  0  0  0  0  0999 V2000
    2.6718    1.8999    0.0000 C   0  0  0  0  0  0  0  0  0  0  0  0
    2.1361    3.3010    0.0000 H   0  0  0  0  0  0  0  0  0  0  0  0
    3.6544    0.7666    0.0000 H   0  0  0  0  0  0  0  0  0  0  0  0
    3.9586    2.6708    0.0000 H   0  0  0  0  0  0  0  0  0  0  0  0
    1.1212   -0.0098    0.0000 C   0  0  2  0  0  0  0  0  0  0  0  0
    0.0002    2.7081    0.0000 H   0  0  0  0  0  0  0  0  0  0  0  0
    2.3912   -0.7598    0.0000 C   0  0  0  0  0  0  0  0  0  0  0  0
    3.8675   -1.0251    0.0000 H   0  0  0  0  0  0  0  0  0  0  0  0
    2.9135    0.6464    0.0000 H   0  0  0  0  0  0  0  0  0  0  0  0
    2.3912   -2.2498    0.0000 C   0  0  0  0  0  0  0  0  0  0  0  0
    1.2285   -1.3021    0.0000 H   0  0  0  0  0  0  0  0  0  0  0  0
    3.8545   -1.9199    0.0000 H   0  0  0  0  0  0  0  0  0  0  0  0
    1.2312   -3.1598    0.0000 C   0  0  1  0  0  0  0  0  0  0  0  0
    2.5800   -3.8160    0.0000 H   0  0  0  0  0  0  0  0  0  0  0  0
    1.2312   -4.6598    0.0000 C   0  0  1  0  0  0  0  0  0  0  0  0
    1.7439   -6.0694    0.0000 H   0  0  0  0  0  0  0  0  0  0  0  0
    3.1811   -4.3162    0.0000 C   0  0  0  0  0  0  0  0  0  0  0  0
    3.6943   -2.9067    0.0000 H   0  0  0  0  0  0  0  0  0  0  0  0
    4.6583   -4.5768    0.0000 H   0  0  0  0  0  0  0  0  0  0  0  0
    3.1810   -5.8162    0.0000 H   0  0  0  0  0  0  0  0  0  0  0  0
   -0.0688   -5.4098    0.0000 C   0  0  2  0  0  0  0  0  0  0  0  0
   -1.0354   -6.5568    0.0000 H   0  0  0  0  0  0  0  0  0  0  0  0
    0.8940   -6.5600    0.0000 O   0  0  0  0  0  0  0  0  0  0  0  0
    0.3792   -7.9689    0.0000 C   0  0  0  0  0  0  0  0  0  0  0  0
   -1.0983   -8.2276    0.0000 O   0  0  0  0  0  0  0  0  0  0  0  0
    1.3420   -9.1192    0.0000 C   0  0  0  0  0  0  0  0  0  0  0  0
    2.6401   -9.8708    0.0000 H   0  0  0  0  0  0  0  0  0  0  0  0
    2.3076   -7.9713    0.0000 H   0  0  0  0  0  0  0  0  0  0  0  0
    0.8272  -10.5281    0.0000 C   0  0  0  0  0  0  0  0  0  0  0  0
   -0.4709   -9.7765    0.0000 H   0  0  0  0  0  0  0  0  0  0  0  0
   -0.1384  -11.6760    0.0000 H   0  0  0  0  0  0  0  0  0  0  0  0
    1.7900  -11.6783    0.0000 C   0  0  0  0  0  0  0  0  0  0  0  0
    3.2675  -11.4197    0.0000 O   0  0  0  0  0  0  0  0  0  0  0  0
    1.2753  -13.0873    0.0000 O   0  0  0  0  0  0  0  0  0  0  0  0
    2.2380  -14.2375    0.0000 H   0  0  0  0  0  0  0  0  0  0  0  0
   -1.3588   -4.6598    0.0000 O   0  0  0  0  0  0  0  0  0  0  0  0
   -1.3588   -3.1598    0.0000 C   0  0  1  0  0  0  0  0  0  0  0  0
   -2.5336   -4.0924    0.0000 H   0  0  0  0  0  0  0  0  0  0  0  0
   -0.0688   -2.3998    0.0000 C   0  0  1  0  0  0  0  0  0  0  0  0
   -0.1288   -0.8498    0.0000 C   0  0  1  0  0  0  0  0  0  0  0  0
   -1.6019   -1.1326    0.0000 H   0  0  0  0  0  0  0  0  0  0  0  0
   -1.3288    0.2102    0.0000 C   0  0  0  0  0  0  0  0  0  0  0  0
   -0.1204    1.0989    0.0000 H   0  0  0  0  0  0  0  0  0  0  0  0
   -1.9418    1.5792    0.0000 H   0  0  0  0  0  0  0  0  0  0  0  0
   -2.7988   -0.0998    0.0000 C   0  0  0  0  0  0  0  0  0  0  0  0
   -2.7807    1.4001    0.0000 H   0  0  0  0  0  0  0  0  0  0  0  0
   -4.2586    0.2450    0.0000 H   0  0  0  0  0  0  0  0  0  0  0  0
   -3.4588   -1.4598    0.0000 C   0  0  2  0  0  0  0  0  0  0  0  0
   -4.9588   -1.4508    0.0000 C   0  0  0  0  0  0  0  0  0  0  0  0
   -6.3714   -1.9554    0.0000 H   0  0  0  0  0  0  0  0  0  0  0  0
   -4.7072   -2.9296    0.0000 H   0  0  0  0  0  0  0  0  0  0  0  0
   -5.7010   -0.1473    0.0000 O   0  0  0  0  0  0  0  0  0  0  0  0
   -7.2010   -0.1383    0.0000 H   0  0  0  0  0  0  0  0  0  0  0  0
   -2.8188   -2.8198    0.0000 O   0  0  0  0  0  0  0  0  0  0  0  0
   -2.0388   -0.9998    0.0000 O   0  0  0  0  0  0  0  0  0  0  0  0
   -1.3988   -2.0698    0.0000 O   0  0  0  0  0  0  0  0  0  0  0  0
  1  2  1  0  0  0  0 
  1  3  1  0  0  0  0 
  1  4  1  0  0  0  0 
  5  1  1  6  0  0  0 
  5  6  1  1  0  0  0 
  5  7  1  0  0  0  0 
  7  8  1  0  0  0  0 
  7  9  1  0  0  0  0 
  7 10  1  0  0  0  0 
 10 11  1  0  0  0  0 
 10 12  1  0  0  0  0 
 10 13  1  0  0  0  0 
 13 14  1  6  0  0  0 
 13 15  1  0  0  0  0 
 15 16  1  6  0  0  0 
 15 17  1  1  0  0  0 
 17 18  1  0  0  0  0 
 17 19  1  0  0  0  0 
 17 20  1  0  0  0  0 
 15 21  1  0  0  0  0 
 21 22  1  1  0  0  0 
 21 23  1  6  0  0  0 
 23 24  1  0  0  0  0 
 24 25  2  0  0  0  0 
 24 26  1  0  0  0  0 
 26 27  1  0  0  0  0 
 26 28  1  0  0  0  0 
 26 29  1  0  0  0  0 
 29 30  1  0  0  0  0 
 29 31  1  0  0  0  0 
 29 32  1  0  0  0  0 
 32 33  2  0  0  0  0 
 32 34  1  0  0  0  0 
 34 35  1  0  0  0  0 
 21 36  1  0  0  0  0 
 36 37  1  0  0  0  0 
 37 38  1  1  0  0  0 
 39 37  1  1  0  0  0 
 13 39  1  0  0  0  0 
 39 40  1  0  0  0  0 
  5 40  1  0  0  0  0 
 40 41  1  6  0  0  0 
 40 42  1  0  0  0  0 
 42 43  1  0  0  0  0 
 42 44  1  0  0  0  0 
 42 45  1  0  0  0  0 
 45 46  1  0  0  0  0 
 45 47  1  0  0  0  0 
 45 48  1  0  0  0  0 
 48 49  1  0  0  0  0 
 49 50  1  0  0  0  0 
 49 51  1  0  0  0  0 
 49 52  1  0  0  0  0 
 52 53  1  0  0  0  0 
 48 54  1  1  0  0  0 
 37 54  1  0  0  0  0 
 48 55  1  0  0  0  0 
 55 56  1  0  0  0  0 
 39 56  1  6  0  0  0 
M  END
> <Rank>
19

> <Priority_score>
0.08

> <Reaction_type>
aliphatic_hydroxylation_(primary_carbon_next_to_quart_carbon)

> <Parent_ID>
52

> <Parent_InChI>
InChI=1S/C19H28O8/c1-10-4-5-13-11(2)16(23-15(22)7-6-14(20)21)24-17-19(13)12(10)8-9-18(3,25-17)26-27-19/h10-13,16-17H,4-9H2,1-3H3,(H,20,21)

> <Parent_SMILES>
C[C@@H]1CC[C@H]2[C@@H](C)[C@H](OC(=O)CCC(=O)O)O[C@@H]3O[C@@]4(C)CC[C@@H]1[C@@]23OO4

$$$$
Molecule 52_metabolite 21
  CDK     0516241031

 56 59  0  0  0  0  0  0  0  0999 V2000
    1.8741   -5.0973    0.0000 C   0  0  0  0  0  0  0  0  0  0  0  0
    3.3512   -5.3581    0.0000 H   0  0  0  0  0  0  0  0  0  0  0  0
    0.3968   -5.3574    0.0000 H   0  0  0  0  0  0  0  0  0  0  0  0
    1.8738   -6.5973    0.0000 H   0  0  0  0  0  0  0  0  0  0  0  0
    1.3614   -3.6876    0.0000 C   0  0  2  0  0  0  0  0  0  0  0  0
    2.8386   -3.4273    0.0000 H   0  0  0  0  0  0  0  0  0  0  0  0
    1.3614   -2.1876    0.0000 C   0  0  2  0  0  0  0  0  0  0  0  0
    1.0451   -0.7213    0.0000 H   0  0  0  0  0  0  0  0  0  0  0  0
    2.5214   -1.2776    0.0000 C   0  0  0  0  0  0  0  0  0  0  0  0
    3.1650   -2.6325    0.0000 H   0  0  0  0  0  0  0  0  0  0  0  0
    3.9846   -0.9477    0.0000 H   0  0  0  0  0  0  0  0  0  0  0  0
    2.5214    0.2124    0.0000 C   0  0  0  0  0  0  0  0  0  0  0  0
    3.9977   -0.0529    0.0000 H   0  0  0  0  0  0  0  0  0  0  0  0
    3.0436    1.6185    0.0000 H   0  0  0  0  0  0  0  0  0  0  0  0
    1.2514    0.9624    0.0000 C   0  0  1  0  0  0  0  0  0  0  0  0
    2.8020    2.8721    0.0000 C   0  0  0  0  0  0  0  0  0  0  0  0
    2.2663    4.2732    0.0000 H   0  0  0  0  0  0  0  0  0  0  0  0
    3.7846    1.7387    0.0000 H   0  0  0  0  0  0  0  0  0  0  0  0
    4.0888    3.6430    0.0000 H   0  0  0  0  0  0  0  0  0  0  0  0
    0.0014    0.1224    0.0000 C   0  0  2  0  0  0  0  0  0  0  0  0
   -1.4717   -0.1604    0.0000 H   0  0  0  0  0  0  0  0  0  0  0  0
   -1.1986    1.1824    0.0000 C   0  0  0  0  0  0  0  0  0  0  0  0
    0.0097    2.0711    0.0000 H   0  0  0  0  0  0  0  0  0  0  0  0
   -1.8116    2.5514    0.0000 H   0  0  0  0  0  0  0  0  0  0  0  0
   -2.6686    0.8724    0.0000 C   0  0  0  0  0  0  0  0  0  0  0  0
   -2.6506    2.3723    0.0000 H   0  0  0  0  0  0  0  0  0  0  0  0
   -4.1285    1.2172    0.0000 H   0  0  0  0  0  0  0  0  0  0  0  0
   -3.3286   -0.4876    0.0000 C   0  0  2  0  0  0  0  0  0  0  0  0
   -4.8286   -0.4786    0.0000 C   0  0  0  0  0  0  0  0  0  0  0  0
   -5.5708    0.8249    0.0000 H   0  0  0  0  0  0  0  0  0  0  0  0
   -6.2412   -0.9832    0.0000 H   0  0  0  0  0  0  0  0  0  0  0  0
   -4.5770   -1.9574    0.0000 H   0  0  0  0  0  0  0  0  0  0  0  0
   -2.6886   -1.8476    0.0000 O   0  0  0  0  0  0  0  0  0  0  0  0
   -1.2286   -2.1876    0.0000 C   0  0  2  0  0  0  0  0  0  0  0  0
   -2.4034   -3.1203    0.0000 H   0  0  0  0  0  0  0  0  0  0  0  0
    0.0614   -1.4276    0.0000 C   0  0  2  0  0  0  0  0  0  0  0  0
   -1.2686   -1.0976    0.0000 O   0  0  0  0  0  0  0  0  0  0  0  0
   -1.9086   -0.0276    0.0000 O   0  0  0  0  0  0  0  0  0  0  0  0
   -1.2286   -3.6876    0.0000 O   0  0  0  0  0  0  0  0  0  0  0  0
    0.0614   -4.4376    0.0000 C   0  0  1  0  0  0  0  0  0  0  0  0
   -0.9053   -5.5846    0.0000 H   0  0  0  0  0  0  0  0  0  0  0  0
    0.4028   -6.3880    0.0000 O   0  0  0  0  0  0  0  0  0  0  0  0
   -1.4836   -7.9669    0.0000 C   0  0  0  0  0  0  0  0  0  0  0  0
   -2.8925   -7.4522    0.0000 O   0  0  0  0  0  0  0  0  0  0  0  0
   -1.2249   -9.4444    0.0000 C   0  0  0  0  0  0  0  0  0  0  0  0
   -0.4765  -10.7444    0.0000 H   0  0  0  0  0  0  0  0  0  0  0  0
    0.1852   -8.9331    0.0000 H   0  0  0  0  0  0  0  0  0  0  0  0
   -2.3752  -10.4072    0.0000 C   0  0  0  0  0  0  0  0  0  0  0  0
   -3.1236   -9.1073    0.0000 H   0  0  0  0  0  0  0  0  0  0  0  0
   -3.7854  -10.9185    0.0000 H   0  0  0  0  0  0  0  0  0  0  0  0
   -2.1165  -11.8847    0.0000 C   0  0  0  0  0  0  0  0  0  0  0  0
   -0.7076  -12.3995    0.0000 O   0  0  0  0  0  0  0  0  0  0  0  0
   -3.2668  -12.8475    0.0000 O   0  0  0  0  0  0  0  0  0  0  0  0
   -3.0081  -14.3251    0.0000 H   0  0  0  0  0  0  0  0  0  0  0  0
   -0.0672    3.0391    0.0000 O   0  0  0  0  0  0  0  0  0  0  0  0
    0.6274    4.3686    0.0000 H   0  0  0  0  0  0  0  0  0  0  0  0
  1  2  1  0  0  0  0 
  1  3  1  0  0  0  0 
  1  4  1  0  0  0  0 
  5  1  1  1  0  0  0 
  5  6  1  6  0  0  0 
  5  7  1  0  0  0  0 
  7  8  1  6  0  0  0 
  7  9  1  0  0  0  0 
  9 10  1  0  0  0  0 
  9 11  1  0  0  0  0 
  9 12  1  0  0  0  0 
 12 13  1  0  0  0  0 
 12 14  1  0  0  0  0 
 12 15  1  0  0  0  0 
 15 16  1  6  0  0  0 
 16 17  1  0  0  0  0 
 16 18  1  0  0  0  0 
 16 19  1  0  0  0  0 
 15 20  1  0  0  0  0 
 20 21  1  6  0  0  0 
 20 22  1  0  0  0  0 
 22 23  1  0  0  0  0 
 22 24  1  0  0  0  0 
 22 25  1  0  0  0  0 
 25 26  1  0  0  0  0 
 25 27  1  0  0  0  0 
 25 28  1  0  0  0  0 
 28 29  1  0  0  0  0 
 29 30  1  0  0  0  0 
 29 31  1  0  0  0  0 
 29 32  1  0  0  0  0 
 28 33  1  1  0  0  0 
 33 34  1  0  0  0  0 
 34 35  1  1  0  0  0 
 34 36  1  0  0  0  0 
  7 36  1  0  0  0  0 
 36 20  1  1  0  0  0 
 36 37  1  6  0  0  0 
 37 38  1  0  0  0  0 
 28 38  1  0  0  0  0 
 34 39  1  0  0  0  0 
 39 40  1  0  0  0  0 
  5 40  1  0  0  0  0 
 40 41  1  1  0  0  0 
 40 42  1  6  0  0  0 
 42 43  1  0  0  0  0 
 43 44  2  0  0  0  0 
 43 45  1  0  0  0  0 
 45 46  1  0  0  0  0 
 45 47  1  0  0  0  0 
 45 48  1  0  0  0  0 
 48 49  1  0  0  0  0 
 48 50  1  0  0  0  0 
 48 51  1  0  0  0  0 
 51 52  2  0  0  0  0 
 51 53  1  0  0  0  0 
 53 54  1  0  0  0  0 
 15 55  1  1  0  0  0 
 55 56  1  0  0  0  0 
M  END
> <Rank>
19

> <Priority_score>
0.08

> <Reaction_type>
aliphatic hydroxylation

> <Parent_ID>
52

> <Parent_InChI>
InChI=1S/C19H28O8/c1-10-4-5-13-11(2)16(23-15(22)7-6-14(20)21)24-17-19(13)12(10)8-9-18(3,25-17)26-27-19/h10-13,16-17H,4-9H2,1-3H3,(H,20,21)

> <Parent_SMILES>
C[C@@H]1CC[C@H]2[C@@H](C)[C@H](OC(=O)CCC(=O)O)O[C@@H]3O[C@@]4(C)CC[C@@H]1[C@@]23OO4

$$$$
Molecule 52_metabolite 22
  CDK     0516241031

  5  4  0  0  0  0  0  0  0  0999 V2000
    1.2990   -0.7500    0.0000 C   0  0  0  0  0  0  0  0  0  0  0  0
    0.0000    0.0000    0.0000 H   0  0  0  0  0  0  0  0  0  0  0  0
    1.2990   -2.2500    0.0000 O   0  0  0  0  0  0  0  0  0  0  0  0
    2.5981   -0.0000    0.0000 O   0  0  0  0  0  0  0  0  0  0  0  0
    3.8971   -0.7500    0.0000 H   0  0  0  0  0  0  0  0  0  0  0  0
  1  2  1  0  0  0  0 
  1  3  2  0  0  0  0 
  1  4  1  0  0  0  0 
  4  5  1  0  0  0  0 
M  END
> <Rank>
22

> <Priority_score>
0.06480000000000001

> <Reaction_type>
deformylation

> <Parent_ID>
52

> <Parent_InChI>
InChI=1S/C19H28O8/c1-10-4-5-13-11(2)16(23-15(22)7-6-14(20)21)24-17-19(13)12(10)8-9-18(3,25-17)26-27-19/h10-13,16-17H,4-9H2,1-3H3,(H,20,21)

> <Parent_SMILES>
C[C@@H]1CC[C@H]2[C@@H](C)[C@H](OC(=O)CCC(=O)O)O[C@@H]3O[C@@]4(C)CC[C@@H]1[C@@]23OO4

$$$$
Molecule 52_metabolite 23
  CDK     0516241031

 50 53  0  0  0  0  0  0  0  0999 V2000
    0.0614   -9.1757    0.0000 C   0  0  0  0  0  0  0  0  0  0  0  0
   -0.9052  -10.3227    0.0000 H   0  0  0  0  0  0  0  0  0  0  0  0
    1.5380   -9.4393    0.0000 H   0  0  0  0  0  0  0  0  0  0  0  0
   -0.4486   -7.7651    0.0000 C   0  0  0  0  0  0  0  0  0  0  0  0
   -1.9253   -7.5015    0.0000 H   0  0  0  0  0  0  0  0  0  0  0  0
    0.5180   -6.6181    0.0000 C   0  0  0  0  0  0  0  0  0  0  0  0
    1.9946   -6.8817    0.0000 O   0  0  0  0  0  0  0  0  0  0  0  0
    0.0080   -5.2075    0.0000 O   0  0  0  0  0  0  0  0  0  0  0  0
    0.9746   -4.0604    0.0000 C   0  0  1  0  0  0  0  0  0  0  0  0
    1.9373   -5.2107    0.0000 H   0  0  0  0  0  0  0  0  0  0  0  0
    2.2746   -3.3104    0.0000 C   0  0  2  0  0  0  0  0  0  0  0  0
    2.7873   -4.7201    0.0000 H   0  0  0  0  0  0  0  0  0  0  0  0
    3.7518   -3.0501    0.0000 C   0  0  0  0  0  0  0  0  0  0  0  0
    4.7159   -4.1993    0.0000 H   0  0  0  0  0  0  0  0  0  0  0  0
    5.0509   -2.3003    0.0000 H   0  0  0  0  0  0  0  0  0  0  0  0
    3.2389   -1.6405    0.0000 H   0  0  0  0  0  0  0  0  0  0  0  0
    2.2746   -1.8104    0.0000 C   0  0  2  0  0  0  0  0  0  0  0  0
    1.9583   -0.3442    0.0000 H   0  0  0  0  0  0  0  0  0  0  0  0
    3.4346   -0.9004    0.0000 C   0  0  0  0  0  0  0  0  0  0  0  0
    4.0782   -2.2553    0.0000 H   0  0  0  0  0  0  0  0  0  0  0  0
    4.8978   -0.5706    0.0000 H   0  0  0  0  0  0  0  0  0  0  0  0
    3.4346    0.5896    0.0000 C   0  0  0  0  0  0  0  0  0  0  0  0
    4.9109    0.3242    0.0000 H   0  0  0  0  0  0  0  0  0  0  0  0
    3.9568    1.9957    0.0000 H   0  0  0  0  0  0  0  0  0  0  0  0
    2.1646    1.3396    0.0000 C   0  0  1  0  0  0  0  0  0  0  0  0
    3.1101    2.5040    0.0000 H   0  0  0  0  0  0  0  0  0  0  0  0
    1.2266    3.6137    0.0000 C   0  0  0  0  0  0  0  0  0  0  0  0
   -0.2602    3.8118    0.0000 H   0  0  0  0  0  0  0  0  0  0  0  0
    1.1635    5.1124    0.0000 H   0  0  0  0  0  0  0  0  0  0  0  0
    2.6916    3.9362    0.0000 H   0  0  0  0  0  0  0  0  0  0  0  0
    0.9146    0.4996    0.0000 C   0  0  2  0  0  0  0  0  0  0  0  0
   -0.5585    0.2168    0.0000 H   0  0  0  0  0  0  0  0  0  0  0  0
   -0.2854    1.5596    0.0000 C   0  0  0  0  0  0  0  0  0  0  0  0
    1.1540    1.9814    0.0000 H   0  0  0  0  0  0  0  0  0  0  0  0
   -0.8984    2.9286    0.0000 H   0  0  0  0  0  0  0  0  0  0  0  0
   -1.7554    1.2496    0.0000 C   0  0  0  0  0  0  0  0  0  0  0  0
   -1.7374    2.7495    0.0000 H   0  0  0  0  0  0  0  0  0  0  0  0
   -3.2153    1.5943    0.0000 H   0  0  0  0  0  0  0  0  0  0  0  0
   -2.4154   -0.1104    0.0000 C   0  0  2  0  0  0  0  0  0  0  0  0
   -3.9154   -0.1015    0.0000 C   0  0  0  0  0  0  0  0  0  0  0  0
   -4.6576    1.2020    0.0000 H   0  0  0  0  0  0  0  0  0  0  0  0
   -5.3280   -0.6060    0.0000 H   0  0  0  0  0  0  0  0  0  0  0  0
   -3.6638   -1.5802    0.0000 H   0  0  0  0  0  0  0  0  0  0  0  0
   -1.7754   -1.4704    0.0000 O   0  0  0  0  0  0  0  0  0  0  0  0
   -0.3154   -1.8104    0.0000 C   0  0  2  0  0  0  0  0  0  0  0  0
   -1.4902   -2.7431    0.0000 H   0  0  0  0  0  0  0  0  0  0  0  0
    0.9746   -1.0504    0.0000 C   0  0  2  0  0  0  0  0  0  0  0  0
   -0.3554   -0.7204    0.0000 O   0  0  0  0  0  0  0  0  0  0  0  0
   -0.9954    0.3496    0.0000 O   0  0  0  0  0  0  0  0  0  0  0  0
   -0.3154   -3.3104    0.0000 O   0  0  0  0  0  0  0  0  0  0  0  0
  1  2  1  0  0  0  0 
  1  3  1  0  0  0  0 
  1  4  2  0  0  0  0 
  4  5  1  0  0  0  0 
  4  6  1  0  0  0  0 
  6  7  2  0  0  0  0 
  6  8  1  0  0  0  0 
  9  8  1  6  0  0  0 
  9 10  1  1  0  0  0 
  9 11  1  0  0  0  0 
 11 12  1  6  0  0  0 
 11 13  1  1  0  0  0 
 13 14  1  0  0  0  0 
 13 15  1  0  0  0  0 
 13 16  1  0  0  0  0 
 11 17  1  0  0  0  0 
 17 18  1  6  0  0  0 
 17 19  1  0  0  0  0 
 19 20  1  0  0  0  0 
 19 21  1  0  0  0  0 
 19 22  1  0  0  0  0 
 22 23  1  0  0  0  0 
 22 24  1  0  0  0  0 
 22 25  1  0  0  0  0 
 25 26  1  1  0  0  0 
 25 27  1  6  0  0  0 
 27 28  1  0  0  0  0 
 27 29  1  0  0  0  0 
 27 30  1  0  0  0  0 
 25 31  1  0  0  0  0 
 31 32  1  6  0  0  0 
 31 33  1  0  0  0  0 
 33 34  1  0  0  0  0 
 33 35  1  0  0  0  0 
 33 36  1  0  0  0  0 
 36 37  1  0  0  0  0 
 36 38  1  0  0  0  0 
 36 39  1  0  0  0  0 
 39 40  1  0  0  0  0 
 40 41  1  0  0  0  0 
 40 42  1  0  0  0  0 
 40 43  1  0  0  0  0 
 39 44  1  1  0  0  0 
 44 45  1  0  0  0  0 
 45 46  1  1  0  0  0 
 45 47  1  0  0  0  0 
 47 31  1  1  0  0  0 
 17 47  1  0  0  0  0 
 47 48  1  6  0  0  0 
 48 49  1  0  0  0  0 
 39 49  1  0  0  0  0 
 45 50  1  0  0  0  0 
  9 50  1  0  0  0  0 
M  END
> <Rank>
22

> <Priority_score>
0.06480000000000001

> <Reaction_type>
deformylation

> <Parent_ID>
52

> <Parent_InChI>
InChI=1S/C19H28O8/c1-10-4-5-13-11(2)16(23-15(22)7-6-14(20)21)24-17-19(13)12(10)8-9-18(3,25-17)26-27-19/h10-13,16-17H,4-9H2,1-3H3,(H,20,21)

> <Parent_SMILES>
C[C@@H]1CC[C@H]2[C@@H](C)[C@H](OC(=O)CCC(=O)O)O[C@@H]3O[C@@]4(C)CC[C@@H]1[C@@]23OO4

$$$$
Molecule 52_metabolite 24
  CDK     0516241031

 56 59  0  0  0  0  0  0  0  0999 V2000
    2.1228    3.2312    0.0000 C   0  0  0  0  0  0  0  0  0  0  0  0
    1.5871    4.6323    0.0000 H   0  0  0  0  0  0  0  0  0  0  0  0
    3.1054    2.0978    0.0000 H   0  0  0  0  0  0  0  0  0  0  0  0
    3.4096    4.0020    0.0000 H   0  0  0  0  0  0  0  0  0  0  0  0
    0.5722    1.3214    0.0000 C   0  0  2  0  0  0  0  0  0  0  0  0
    0.0002    2.7081    0.0000 H   0  0  0  0  0  0  0  0  0  0  0  0
    1.8422    0.5714    0.0000 C   0  0  0  0  0  0  0  0  0  0  0  0
    3.3185    0.3061    0.0000 H   0  0  0  0  0  0  0  0  0  0  0  0
    2.3644    1.9776    0.0000 H   0  0  0  0  0  0  0  0  0  0  0  0
    1.8422   -0.9186    0.0000 C   0  0  0  0  0  0  0  0  0  0  0  0
    0.6794    0.0291    0.0000 H   0  0  0  0  0  0  0  0  0  0  0  0
    3.3054   -0.5887    0.0000 H   0  0  0  0  0  0  0  0  0  0  0  0
    0.6822   -1.8286    0.0000 C   0  0  1  0  0  0  0  0  0  0  0  0
    2.0310   -2.4848    0.0000 H   0  0  0  0  0  0  0  0  0  0  0  0
    0.6822   -3.3286    0.0000 C   0  0  1  0  0  0  0  0  0  0  0  0
    1.1949   -4.7382    0.0000 H   0  0  0  0  0  0  0  0  0  0  0  0
    2.6321   -2.9849    0.0000 C   0  0  0  0  0  0  0  0  0  0  0  0
    3.1453   -1.5755    0.0000 H   0  0  0  0  0  0  0  0  0  0  0  0
    4.1093   -3.2456    0.0000 H   0  0  0  0  0  0  0  0  0  0  0  0
    2.6319   -4.4849    0.0000 H   0  0  0  0  0  0  0  0  0  0  0  0
   -0.6178   -4.0786    0.0000 C   0  0  2  0  0  0  0  0  0  0  0  0
   -1.5845   -5.2256    0.0000 H   0  0  0  0  0  0  0  0  0  0  0  0
    0.3449   -5.2288    0.0000 O   0  0  0  0  0  0  0  0  0  0  0  0
   -0.1698   -6.6377    0.0000 C   0  0  0  0  0  0  0  0  0  0  0  0
   -1.6474   -6.8964    0.0000 O   0  0  0  0  0  0  0  0  0  0  0  0
    0.7929   -7.7880    0.0000 C   0  0  0  0  0  0  0  0  0  0  0  0
    2.0911   -8.5396    0.0000 H   0  0  0  0  0  0  0  0  0  0  0  0
    1.7585   -6.6401    0.0000 H   0  0  0  0  0  0  0  0  0  0  0  0
    0.2782   -9.1969    0.0000 C   0  0  0  0  0  0  0  0  0  0  0  0
   -1.0199   -8.4453    0.0000 H   0  0  0  0  0  0  0  0  0  0  0  0
   -0.6874  -10.3448    0.0000 H   0  0  0  0  0  0  0  0  0  0  0  0
    1.2410  -10.3471    0.0000 C   0  0  0  0  0  0  0  0  0  0  0  0
    2.7185  -10.0885    0.0000 O   0  0  0  0  0  0  0  0  0  0  0  0
    0.7262  -11.7560    0.0000 O   0  0  0  0  0  0  0  0  0  0  0  0
    1.6890  -12.9063    0.0000 H   0  0  0  0  0  0  0  0  0  0  0  0
   -1.9078   -3.3286    0.0000 O   0  0  0  0  0  0  0  0  0  0  0  0
   -1.9078   -1.8286    0.0000 C   0  0  1  0  0  0  0  0  0  0  0  0
   -3.0827   -2.7612    0.0000 H   0  0  0  0  0  0  0  0  0  0  0  0
   -0.6178   -1.0686    0.0000 C   0  0  1  0  0  0  0  0  0  0  0  0
   -0.6778    0.4814    0.0000 C   0  0  1  0  0  0  0  0  0  0  0  0
   -2.1510    0.1987    0.0000 H   0  0  0  0  0  0  0  0  0  0  0  0
   -1.8778    1.5414    0.0000 C   0  0  0  0  0  0  0  0  0  0  0  0
   -0.6695    2.4301    0.0000 H   0  0  0  0  0  0  0  0  0  0  0  0
   -3.3478    1.2314    0.0000 C   0  0  0  0  0  0  0  0  0  0  0  0
   -3.3298    2.7313    0.0000 H   0  0  0  0  0  0  0  0  0  0  0  0
   -4.8077    1.5762    0.0000 H   0  0  0  0  0  0  0  0  0  0  0  0
   -4.0078   -0.1286    0.0000 C   0  0  2  0  0  0  0  0  0  0  0  0
   -5.5078   -0.1196    0.0000 C   0  0  0  0  0  0  0  0  0  0  0  0
   -6.2500    1.1839    0.0000 H   0  0  0  0  0  0  0  0  0  0  0  0
   -6.9204   -0.6242    0.0000 H   0  0  0  0  0  0  0  0  0  0  0  0
   -5.2562   -1.5983    0.0000 H   0  0  0  0  0  0  0  0  0  0  0  0
   -3.3678   -1.4886    0.0000 O   0  0  0  0  0  0  0  0  0  0  0  0
   -2.5878    0.3314    0.0000 O   0  0  0  0  0  0  0  0  0  0  0  0
   -1.9478   -0.7386    0.0000 O   0  0  0  0  0  0  0  0  0  0  0  0
   -2.4908    2.9105    0.0000 O   0  0  0  0  0  0  0  0  0  0  0  0
   -1.6117    4.1258    0.0000 H   0  0  0  0  0  0  0  0  0  0  0  0
  1  2  1  0  0  0  0 
  1  3  1  0  0  0  0 
  1  4  1  0  0  0  0 
  5  1  1  6  0  0  0 
  5  6  1  1  0  0  0 
  5  7  1  0  0  0  0 
  7  8  1  0  0  0  0 
  7  9  1  0  0  0  0 
  7 10  1  0  0  0  0 
 10 11  1  0  0  0  0 
 10 12  1  0  0  0  0 
 10 13  1  0  0  0  0 
 13 14  1  6  0  0  0 
 13 15  1  0  0  0  0 
 15 16  1  6  0  0  0 
 15 17  1  1  0  0  0 
 17 18  1  0  0  0  0 
 17 19  1  0  0  0  0 
 17 20  1  0  0  0  0 
 15 21  1  0  0  0  0 
 21 22  1  1  0  0  0 
 21 23  1  6  0  0  0 
 23 24  1  0  0  0  0 
 24 25  2  0  0  0  0 
 24 26  1  0  0  0  0 
 26 27  1  0  0  0  0 
 26 28  1  0  0  0  0 
 26 29  1  0  0  0  0 
 29 30  1  0  0  0  0 
 29 31  1  0  0  0  0 
 29 32  1  0  0  0  0 
 32 33  2  0  0  0  0 
 32 34  1  0  0  0  0 
 34 35  1  0  0  0  0 
 21 36  1  0  0  0  0 
 36 37  1  0  0  0  0 
 37 38  1  1  0  0  0 
 39 37  1  1  0  0  0 
 13 39  1  0  0  0  0 
 39 40  1  0  0  0  0 
  5 40  1  0  0  0  0 
 40 41  1  6  0  0  0 
 40 42  1  0  0  0  0 
 42 43  1  0  0  0  0 
 42 44  1  0  0  0  0 
 44 45  1  0  0  0  0 
 44 46  1  0  0  0  0 
 44 47  1  0  0  0  0 
 47 48  1  0  0  0  0 
 48 49  1  0  0  0  0 
 48 50  1  0  0  0  0 
 48 51  1  0  0  0  0 
 47 52  1  1  0  0  0 
 37 52  1  0  0  0  0 
 47 53  1  0  0  0  0 
 53 54  1  0  0  0  0 
 39 54  1  6  0  0  0 
 42 55  1  0  0  0  0 
 55 56  1  0  0  0  0 
M  END
> <Rank>
24

> <Priority_score>
0.052

> <Reaction_type>
aliphatic hydroxylation

> <Parent_ID>
52

> <Parent_InChI>
InChI=1S/C19H28O8/c1-10-4-5-13-11(2)16(23-15(22)7-6-14(20)21)24-17-19(13)12(10)8-9-18(3,25-17)26-27-19/h10-13,16-17H,4-9H2,1-3H3,(H,20,21)

> <Parent_SMILES>
C[C@@H]1CC[C@H]2[C@@H](C)[C@H](OC(=O)CCC(=O)O)O[C@@H]3O[C@@]4(C)CC[C@@H]1[C@@]23OO4

$$$$
Molecule 52_metabolite 25
  CDK     0516241031

 56 59  0  0  0  0  0  0  0  0999 V2000
    2.6718    1.8999    0.0000 C   0  0  0  0  0  0  0  0  0  0  0  0
    2.1361    3.3010    0.0000 H   0  0  0  0  0  0  0  0  0  0  0  0
    3.6544    0.7666    0.0000 H   0  0  0  0  0  0  0  0  0  0  0  0
    3.9586    2.6708    0.0000 H   0  0  0  0  0  0  0  0  0  0  0  0
    1.1212   -0.0098    0.0000 C   0  0  2  0  0  0  0  0  0  0  0  0
    0.0002    2.7081    0.0000 H   0  0  0  0  0  0  0  0  0  0  0  0
    2.3912   -0.7598    0.0000 C   0  0  0  0  0  0  0  0  0  0  0  0
    3.8675   -1.0251    0.0000 H   0  0  0  0  0  0  0  0  0  0  0  0
    2.9135    0.6464    0.0000 H   0  0  0  0  0  0  0  0  0  0  0  0
    2.3912   -2.2498    0.0000 C   0  0  0  0  0  0  0  0  0  0  0  0
    1.2285   -1.3021    0.0000 H   0  0  0  0  0  0  0  0  0  0  0  0
    3.8545   -1.9199    0.0000 H   0  0  0  0  0  0  0  0  0  0  0  0
    1.2312   -3.1598    0.0000 C   0  0  1  0  0  0  0  0  0  0  0  0
    2.5800   -3.8160    0.0000 H   0  0  0  0  0  0  0  0  0  0  0  0
    1.2312   -4.6598    0.0000 C   0  0  1  0  0  0  0  0  0  0  0  0
    1.7439   -6.0694    0.0000 H   0  0  0  0  0  0  0  0  0  0  0  0
    3.1811   -4.3162    0.0000 C   0  0  0  0  0  0  0  0  0  0  0  0
    3.6943   -2.9067    0.0000 H   0  0  0  0  0  0  0  0  0  0  0  0
    4.6583   -4.5768    0.0000 H   0  0  0  0  0  0  0  0  0  0  0  0
    3.1810   -5.8162    0.0000 H   0  0  0  0  0  0  0  0  0  0  0  0
   -0.0688   -5.4098    0.0000 C   0  0  2  0  0  0  0  0  0  0  0  0
   -1.0354   -6.5568    0.0000 O   0  0  0  0  0  0  0  0  0  0  0  0
   -2.5121   -6.2932    0.0000 H   0  0  0  0  0  0  0  0  0  0  0  0
    0.8940   -6.5600    0.0000 O   0  0  0  0  0  0  0  0  0  0  0  0
    0.3792   -7.9689    0.0000 C   0  0  0  0  0  0  0  0  0  0  0  0
   -1.0983   -8.2276    0.0000 O   0  0  0  0  0  0  0  0  0  0  0  0
    1.3420   -9.1192    0.0000 C   0  0  0  0  0  0  0  0  0  0  0  0
    2.6401   -9.8708    0.0000 H   0  0  0  0  0  0  0  0  0  0  0  0
    2.3076   -7.9713    0.0000 H   0  0  0  0  0  0  0  0  0  0  0  0
    0.8272  -10.5281    0.0000 C   0  0  0  0  0  0  0  0  0  0  0  0
   -0.4709   -9.7765    0.0000 H   0  0  0  0  0  0  0  0  0  0  0  0
   -0.1384  -11.6760    0.0000 H   0  0  0  0  0  0  0  0  0  0  0  0
    1.7900  -11.6783    0.0000 C   0  0  0  0  0  0  0  0  0  0  0  0
    3.2675  -11.4197    0.0000 O   0  0  0  0  0  0  0  0  0  0  0  0
    1.2753  -13.0873    0.0000 O   0  0  0  0  0  0  0  0  0  0  0  0
    2.2380  -14.2375    0.0000 H   0  0  0  0  0  0  0  0  0  0  0  0
   -1.3588   -4.6598    0.0000 O   0  0  0  0  0  0  0  0  0  0  0  0
   -1.3588   -3.1598    0.0000 C   0  0  1  0  0  0  0  0  0  0  0  0
   -2.5336   -4.0924    0.0000 H   0  0  0  0  0  0  0  0  0  0  0  0
   -0.0688   -2.3998    0.0000 C   0  0  1  0  0  0  0  0  0  0  0  0
   -0.1288   -0.8498    0.0000 C   0  0  1  0  0  0  0  0  0  0  0  0
   -1.6019   -1.1326    0.0000 H   0  0  0  0  0  0  0  0  0  0  0  0
   -1.3288    0.2102    0.0000 C   0  0  0  0  0  0  0  0  0  0  0  0
   -0.1204    1.0989    0.0000 H   0  0  0  0  0  0  0  0  0  0  0  0
   -1.9418    1.5792    0.0000 H   0  0  0  0  0  0  0  0  0  0  0  0
   -2.7988   -0.0998    0.0000 C   0  0  0  0  0  0  0  0  0  0  0  0
   -2.7807    1.4001    0.0000 H   0  0  0  0  0  0  0  0  0  0  0  0
   -4.2586    0.2450    0.0000 H   0  0  0  0  0  0  0  0  0  0  0  0
   -3.4588   -1.4598    0.0000 C   0  0  2  0  0  0  0  0  0  0  0  0
   -4.9588   -1.4508    0.0000 C   0  0  0  0  0  0  0  0  0  0  0  0
   -5.7010   -0.1473    0.0000 H   0  0  0  0  0  0  0  0  0  0  0  0
   -6.3714   -1.9554    0.0000 H   0  0  0  0  0  0  0  0  0  0  0  0
   -4.7072   -2.9296    0.0000 H   0  0  0  0  0  0  0  0  0  0  0  0
   -2.8188   -2.8198    0.0000 O   0  0  0  0  0  0  0  0  0  0  0  0
   -2.0388   -0.9998    0.0000 O   0  0  0  0  0  0  0  0  0  0  0  0
   -1.3988   -2.0698    0.0000 O   0  0  0  0  0  0  0  0  0  0  0  0
  1  2  1  0  0  0  0 
  1  3  1  0  0  0  0 
  1  4  1  0  0  0  0 
  5  1  1  6  0  0  0 
  5  6  1  1  0  0  0 
  5  7  1  0  0  0  0 
  7  8  1  0  0  0  0 
  7  9  1  0  0  0  0 
  7 10  1  0  0  0  0 
 10 11  1  0  0  0  0 
 10 12  1  0  0  0  0 
 10 13  1  0  0  0  0 
 13 14  1  6  0  0  0 
 13 15  1  0  0  0  0 
 15 16  1  6  0  0  0 
 15 17  1  1  0  0  0 
 17 18  1  0  0  0  0 
 17 19  1  0  0  0  0 
 17 20  1  0  0  0  0 
 15 21  1  0  0  0  0 
 21 22  1  1  0  0  0 
 22 23  1  0  0  0  0 
 21 24  1  6  0  0  0 
 24 25  1  0  0  0  0 
 25 26  2  0  0  0  0 
 25 27  1  0  0  0  0 
 27 28  1  0  0  0  0 
 27 29  1  0  0  0  0 
 27 30  1  0  0  0  0 
 30 31  1  0  0  0  0 
 30 32  1  0  0  0  0 
 30 33  1  0  0  0  0 
 33 34  2  0  0  0  0 
 33 35  1  0  0  0  0 
 35 36  1  0  0  0  0 
 21 37  1  0  0  0  0 
 37 38  1  0  0  0  0 
 38 39  1  1  0  0  0 
 40 38  1  1  0  0  0 
 13 40  1  0  0  0  0 
 40 41  1  0  0  0  0 
  5 41  1  0  0  0  0 
 41 42  1  6  0  0  0 
 41 43  1  0  0  0  0 
 43 44  1  0  0  0  0 
 43 45  1  0  0  0  0 
 43 46  1  0  0  0  0 
 46 47  1  0  0  0  0 
 46 48  1  0  0  0  0 
 46 49  1  0  0  0  0 
 49 50  1  0  0  0  0 
 50 51  1  0  0  0  0 
 50 52  1  0  0  0  0 
 50 53  1  0  0  0  0 
 49 54  1  1  0  0  0 
 38 54  1  0  0  0  0 
 49 55  1  0  0  0  0 
 55 56  1  0  0  0  0 
 40 56  1  6  0  0  0 
M  END
> <Rank>
25

> <Priority_score>
0.03555763604447045

> <Reaction_type>
aliphatic hydroxylation

> <Parent_ID>
52

> <Parent_InChI>
InChI=1S/C19H28O8/c1-10-4-5-13-11(2)16(23-15(22)7-6-14(20)21)24-17-19(13)12(10)8-9-18(3,25-17)26-27-19/h10-13,16-17H,4-9H2,1-3H3,(H,20,21)

> <Parent_SMILES>
C[C@@H]1CC[C@H]2[C@@H](C)[C@H](OC(=O)CCC(=O)O)O[C@@H]3O[C@@]4(C)CC[C@@H]1[C@@]23OO4

$$$$
Molecule 52_metabolite 26
  CDK     0516241031

 56 59  0  0  0  0  0  0  0  0999 V2000
    1.2602    0.0650    0.0000 C   0  0  0  0  0  0  0  0  0  0  0  0
    0.7245    1.4660    0.0000 H   0  0  0  0  0  0  0  0  0  0  0  0
    2.2428   -1.0684    0.0000 H   0  0  0  0  0  0  0  0  0  0  0  0
    2.5470    0.8358    0.0000 H   0  0  0  0  0  0  0  0  0  0  0  0
   -0.2904   -1.8448    0.0000 C   0  0  2  0  0  0  0  0  0  0  0  0
   -1.0945   -0.5785    0.0000 H   0  0  0  0  0  0  0  0  0  0  0  0
    0.9796   -2.5948    0.0000 C   0  0  0  0  0  0  0  0  0  0  0  0
    2.4559   -2.8601    0.0000 H   0  0  0  0  0  0  0  0  0  0  0  0
    1.5018   -1.1886    0.0000 H   0  0  0  0  0  0  0  0  0  0  0  0
    0.9796   -4.0848    0.0000 C   0  0  0  0  0  0  0  0  0  0  0  0
   -0.1832   -3.1371    0.0000 H   0  0  0  0  0  0  0  0  0  0  0  0
    2.4428   -3.7549    0.0000 H   0  0  0  0  0  0  0  0  0  0  0  0
   -0.1804   -4.9948    0.0000 C   0  0  1  0  0  0  0  0  0  0  0  0
    1.1684   -5.6510    0.0000 H   0  0  0  0  0  0  0  0  0  0  0  0
   -0.1804   -6.4948    0.0000 C   0  0  1  0  0  0  0  0  0  0  0  0
    0.3323   -7.9044    0.0000 H   0  0  0  0  0  0  0  0  0  0  0  0
    1.7695   -6.1512    0.0000 C   0  0  0  0  0  0  0  0  0  0  0  0
    2.2827   -4.7417    0.0000 H   0  0  0  0  0  0  0  0  0  0  0  0
    3.2467   -6.4118    0.0000 H   0  0  0  0  0  0  0  0  0  0  0  0
    1.7693   -7.6512    0.0000 H   0  0  0  0  0  0  0  0  0  0  0  0
   -1.4804   -7.2448    0.0000 C   0  0  2  0  0  0  0  0  0  0  0  0
   -2.4471   -8.3918    0.0000 H   0  0  0  0  0  0  0  0  0  0  0  0
   -0.5177   -8.3950    0.0000 O   0  0  0  0  0  0  0  0  0  0  0  0
   -1.0324   -9.8039    0.0000 C   0  0  0  0  0  0  0  0  0  0  0  0
   -2.5100  -10.0626    0.0000 O   0  0  0  0  0  0  0  0  0  0  0  0
   -0.0697  -10.9542    0.0000 C   0  0  0  0  0  0  0  0  0  0  0  0
    1.2285  -11.7058    0.0000 H   0  0  0  0  0  0  0  0  0  0  0  0
    0.8959   -9.8063    0.0000 H   0  0  0  0  0  0  0  0  0  0  0  0
   -0.5844  -12.3631    0.0000 C   0  0  0  0  0  0  0  0  0  0  0  0
   -1.8825  -11.6115    0.0000 H   0  0  0  0  0  0  0  0  0  0  0  0
   -1.5500  -13.5110    0.0000 H   0  0  0  0  0  0  0  0  0  0  0  0
    0.3784  -13.5133    0.0000 C   0  0  0  0  0  0  0  0  0  0  0  0
    1.8559  -13.2547    0.0000 O   0  0  0  0  0  0  0  0  0  0  0  0
   -0.1364  -14.9222    0.0000 O   0  0  0  0  0  0  0  0  0  0  0  0
    0.8264  -16.0725    0.0000 H   0  0  0  0  0  0  0  0  0  0  0  0
   -2.7704   -6.4948    0.0000 O   0  0  0  0  0  0  0  0  0  0  0  0
   -2.7704   -4.9948    0.0000 C   0  0  1  0  0  0  0  0  0  0  0  0
   -3.9453   -5.9274    0.0000 H   0  0  0  0  0  0  0  0  0  0  0  0
   -1.4804   -4.2348    0.0000 C   0  0  1  0  0  0  0  0  0  0  0  0
   -1.5404   -2.6848    0.0000 C   0  0  1  0  0  0  0  0  0  0  0  0
   -2.7404   -1.6248    0.0000 C   0  0  0  0  0  0  0  0  0  0  0  0
   -0.3720    0.1171    0.0000 H   0  0  0  0  0  0  0  0  0  0  0  0
   -3.7457    0.6204    0.0000 H   0  0  0  0  0  0  0  0  0  0  0  0
   -4.2104   -1.9348    0.0000 C   0  0  0  0  0  0  0  0  0  0  0  0
   -4.1924   -0.4349    0.0000 H   0  0  0  0  0  0  0  0  0  0  0  0
   -5.6703   -1.5900    0.0000 H   0  0  0  0  0  0  0  0  0  0  0  0
   -4.8704   -3.2948    0.0000 C   0  0  2  0  0  0  0  0  0  0  0  0
   -6.3704   -3.2858    0.0000 C   0  0  0  0  0  0  0  0  0  0  0  0
   -7.1126   -1.9823    0.0000 H   0  0  0  0  0  0  0  0  0  0  0  0
   -7.7830   -3.7904    0.0000 H   0  0  0  0  0  0  0  0  0  0  0  0
   -6.1188   -4.7645    0.0000 H   0  0  0  0  0  0  0  0  0  0  0  0
   -4.2304   -4.6548    0.0000 O   0  0  0  0  0  0  0  0  0  0  0  0
   -3.4504   -2.8348    0.0000 O   0  0  0  0  0  0  0  0  0  0  0  0
   -2.8104   -3.9048    0.0000 O   0  0  0  0  0  0  0  0  0  0  0  0
   -1.3468    0.2488    0.0000 O   0  0  0  0  0  0  0  0  0  0  0  0
   -2.5936    1.0828    0.0000 H   0  0  0  0  0  0  0  0  0  0  0  0
  1  2  1  0  0  0  0 
  1  3  1  0  0  0  0 
  1  4  1  0  0  0  0 
  5  1  1  6  0  0  0 
  5  6  1  1  0  0  0 
  5  7  1  0  0  0  0 
  7  8  1  0  0  0  0 
  7  9  1  0  0  0  0 
  7 10  1  0  0  0  0 
 10 11  1  0  0  0  0 
 10 12  1  0  0  0  0 
 10 13  1  0  0  0  0 
 13 14  1  6  0  0  0 
 13 15  1  0  0  0  0 
 15 16  1  6  0  0  0 
 15 17  1  1  0  0  0 
 17 18  1  0  0  0  0 
 17 19  1  0  0  0  0 
 17 20  1  0  0  0  0 
 15 21  1  0  0  0  0 
 21 22  1  1  0  0  0 
 21 23  1  6  0  0  0 
 23 24  1  0  0  0  0 
 24 25  2  0  0  0  0 
 24 26  1  0  0  0  0 
 26 27  1  0  0  0  0 
 26 28  1  0  0  0  0 
 26 29  1  0  0  0  0 
 29 30  1  0  0  0  0 
 29 31  1  0  0  0  0 
 29 32  1  0  0  0  0 
 32 33  2  0  0  0  0 
 32 34  1  0  0  0  0 
 34 35  1  0  0  0  0 
 21 36  1  0  0  0  0 
 36 37  1  0  0  0  0 
 37 38  1  1  0  0  0 
 39 37  1  1  0  0  0 
 13 39  1  0  0  0  0 
 39 40  1  0  0  0  0 
  5 40  1  0  0  0  0 
 40 41  1  0  0  0  0 
 41 42  1  0  0  0  0 
 41 43  1  0  0  0  0 
 41 44  1  0  0  0  0 
 44 45  1  0  0  0  0 
 44 46  1  0  0  0  0 
 44 47  1  0  0  0  0 
 47 48  1  0  0  0  0 
 48 49  1  0  0  0  0 
 48 50  1  0  0  0  0 
 48 51  1  0  0  0  0 
 47 52  1  1  0  0  0 
 37 52  1  0  0  0  0 
 47 53  1  0  0  0  0 
 53 54  1  0  0  0  0 
 39 54  1  6  0  0  0 
 40 55  1  6  0  0  0 
 55 56  1  0  0  0  0 
M  END
> <Rank>
26

> <Priority_score>
0.024

> <Reaction_type>
aliphatic hydroxylation

> <Parent_ID>
52

> <Parent_InChI>
InChI=1S/C19H28O8/c1-10-4-5-13-11(2)16(23-15(22)7-6-14(20)21)24-17-19(13)12(10)8-9-18(3,25-17)26-27-19/h10-13,16-17H,4-9H2,1-3H3,(H,20,21)

> <Parent_SMILES>
C[C@@H]1CC[C@H]2[C@@H](C)[C@H](OC(=O)CCC(=O)O)O[C@@H]3O[C@@]4(C)CC[C@@H]1[C@@]23OO4

$$$$
Molecule 52_metabolite 27
  CDK     0516241031

 46 49  0  0  0  0  0  0  0  0999 V2000
    3.4316    2.5247    0.0000 C   0  0  0  0  0  0  0  0  0  0  0  0
    2.8959    3.9257    0.0000 H   0  0  0  0  0  0  0  0  0  0  0  0
    4.4142    1.3913    0.0000 H   0  0  0  0  0  0  0  0  0  0  0  0
    4.7184    3.2955    0.0000 H   0  0  0  0  0  0  0  0  0  0  0  0
    1.8810    0.6149    0.0000 C   0  0  2  0  0  0  0  0  0  0  0  0
    0.9430    2.8891    0.0000 H   0  0  0  0  0  0  0  0  0  0  0  0
    3.1510   -0.1351    0.0000 C   0  0  0  0  0  0  0  0  0  0  0  0
    4.6273   -0.4004    0.0000 H   0  0  0  0  0  0  0  0  0  0  0  0
    3.6732    1.2711    0.0000 H   0  0  0  0  0  0  0  0  0  0  0  0
    3.1510   -1.6251    0.0000 C   0  0  0  0  0  0  0  0  0  0  0  0
    1.9882   -0.6774    0.0000 H   0  0  0  0  0  0  0  0  0  0  0  0
    4.6142   -1.2952    0.0000 H   0  0  0  0  0  0  0  0  0  0  0  0
    1.9910   -2.5351    0.0000 C   0  0  1  0  0  0  0  0  0  0  0  0
    3.3398   -3.1913    0.0000 H   0  0  0  0  0  0  0  0  0  0  0  0
    1.9910   -4.0351    0.0000 C   0  0  1  0  0  0  0  0  0  0  0  0
    2.5037   -5.4447    0.0000 H   0  0  0  0  0  0  0  0  0  0  0  0
    3.9409   -3.6914    0.0000 C   0  0  0  0  0  0  0  0  0  0  0  0
    4.4541   -2.2820    0.0000 H   0  0  0  0  0  0  0  0  0  0  0  0
    5.4181   -3.9521    0.0000 H   0  0  0  0  0  0  0  0  0  0  0  0
    3.9408   -5.1914    0.0000 H   0  0  0  0  0  0  0  0  0  0  0  0
    0.6910   -4.7851    0.0000 C   0  0  2  0  0  0  0  0  0  0  0  0
   -0.2757   -5.9321    0.0000 H   0  0  0  0  0  0  0  0  0  0  0  0
    1.6537   -5.9353    0.0000 O   0  0  0  0  0  0  0  0  0  0  0  0
    1.1390   -7.3442    0.0000 C   0  0  0  0  0  0  0  0  0  0  0  0
    2.1018   -8.4945    0.0000 H   0  0  0  0  0  0  0  0  0  0  0  0
   -0.3385   -7.6029    0.0000 O   0  0  0  0  0  0  0  0  0  0  0  0
   -0.5990   -4.0351    0.0000 O   0  0  0  0  0  0  0  0  0  0  0  0
   -0.5990   -2.5351    0.0000 C   0  0  1  0  0  0  0  0  0  0  0  0
   -1.7738   -3.4677    0.0000 H   0  0  0  0  0  0  0  0  0  0  0  0
    0.6910   -1.7751    0.0000 C   0  0  1  0  0  0  0  0  0  0  0  0
    0.6310   -0.2251    0.0000 C   0  0  1  0  0  0  0  0  0  0  0  0
   -1.7849   -0.6888    0.0000 H   0  0  0  0  0  0  0  0  0  0  0  0
   -0.5690    0.8349    0.0000 C   0  0  0  0  0  0  0  0  0  0  0  0
    0.6393    1.7236    0.0000 H   0  0  0  0  0  0  0  0  0  0  0  0
   -1.1820    2.2040    0.0000 H   0  0  0  0  0  0  0  0  0  0  0  0
   -2.0390    0.5249    0.0000 C   0  0  0  0  0  0  0  0  0  0  0  0
   -2.0210    2.0248    0.0000 H   0  0  0  0  0  0  0  0  0  0  0  0
   -3.4989    0.8697    0.0000 H   0  0  0  0  0  0  0  0  0  0  0  0
   -2.6990   -0.8351    0.0000 C   0  0  2  0  0  0  0  0  0  0  0  0
   -4.1990   -0.8261    0.0000 C   0  0  0  0  0  0  0  0  0  0  0  0
   -4.9412    0.4774    0.0000 H   0  0  0  0  0  0  0  0  0  0  0  0
   -5.6116   -1.3307    0.0000 H   0  0  0  0  0  0  0  0  0  0  0  0
   -3.9474   -2.3048    0.0000 H   0  0  0  0  0  0  0  0  0  0  0  0
   -2.0590   -2.1951    0.0000 O   0  0  0  0  0  0  0  0  0  0  0  0
   -1.2790   -0.3751    0.0000 O   0  0  0  0  0  0  0  0  0  0  0  0
   -0.6390   -1.4451    0.0000 O   0  0  0  0  0  0  0  0  0  0  0  0
  1  2  1  0  0  0  0 
  1  3  1  0  0  0  0 
  1  4  1  0  0  0  0 
  5  1  1  6  0  0  0 
  5  6  1  1  0  0  0 
  5  7  1  0  0  0  0 
  7  8  1  0  0  0  0 
  7  9  1  0  0  0  0 
  7 10  1  0  0  0  0 
 10 11  1  0  0  0  0 
 10 12  1  0  0  0  0 
 10 13  1  0  0  0  0 
 13 14  1  6  0  0  0 
 13 15  1  0  0  0  0 
 15 16  1  6  0  0  0 
 15 17  1  1  0  0  0 
 17 18  1  0  0  0  0 
 17 19  1  0  0  0  0 
 17 20  1  0  0  0  0 
 15 21  1  0  0  0  0 
 21 22  1  1  0  0  0 
 21 23  1  6  0  0  0 
 23 24  1  0  0  0  0 
 24 25  1  0  0  0  0 
 24 26  2  0  0  0  0 
 21 27  1  0  0  0  0 
 27 28  1  0  0  0  0 
 28 29  1  1  0  0  0 
 30 28  1  1  0  0  0 
 13 30  1  0  0  0  0 
 30 31  1  0  0  0  0 
  5 31  1  0  0  0  0 
 31 32  1  6  0  0  0 
 31 33  1  0  0  0  0 
 33 34  1  0  0  0  0 
 33 35  1  0  0  0  0 
 33 36  1  0  0  0  0 
 36 37  1  0  0  0  0 
 36 38  1  0  0  0  0 
 36 39  1  0  0  0  0 
 39 40  1  0  0  0  0 
 40 41  1  0  0  0  0 
 40 42  1  0  0  0  0 
 40 43  1  0  0  0  0 
 39 44  1  1  0  0  0 
 28 44  1  0  0  0  0 
 39 45  1  0  0  0  0 
 45 46  1  0  0  0  0 
 30 46  1  6  0  0  0 
M  END
> <Rank>
27

> <Priority_score>
0.0216

> <Reaction_type>
deformylation

> <Parent_ID>
52

> <Parent_InChI>
InChI=1S/C19H28O8/c1-10-4-5-13-11(2)16(23-15(22)7-6-14(20)21)24-17-19(13)12(10)8-9-18(3,25-17)26-27-19/h10-13,16-17H,4-9H2,1-3H3,(H,20,21)

> <Parent_SMILES>
C[C@@H]1CC[C@H]2[C@@H](C)[C@H](OC(=O)CCC(=O)O)O[C@@H]3O[C@@]4(C)CC[C@@H]1[C@@]23OO4

$$$$
Molecule 52_metabolite 28
  CDK     0516241031

  9  8  0  0  0  0  0  0  0  0999 V2000
    5.1962   -0.0000    0.0000 C   0  0  0  0  0  0  0  0  0  0  0  0
    6.4952   -0.7500    0.0000 H   0  0  0  0  0  0  0  0  0  0  0  0
    5.1962    1.5000    0.0000 H   0  0  0  0  0  0  0  0  0  0  0  0
    3.8971   -0.7500    0.0000 C   0  0  0  0  0  0  0  0  0  0  0  0
    3.8971   -2.2500    0.0000 H   0  0  0  0  0  0  0  0  0  0  0  0
    2.5981   -0.0000    0.0000 C   0  0  0  0  0  0  0  0  0  0  0  0
    2.5981    1.5000    0.0000 O   0  0  0  0  0  0  0  0  0  0  0  0
    1.2990   -0.7500    0.0000 O   0  0  0  0  0  0  0  0  0  0  0  0
   -0.0000    0.0000    0.0000 H   0  0  0  0  0  0  0  0  0  0  0  0
  1  2  1  0  0  0  0 
  1  3  1  0  0  0  0 
  1  4  2  0  0  0  0 
  4  5  1  0  0  0  0 
  4  6  1  0  0  0  0 
  6  7  2  0  0  0  0 
  6  8  1  0  0  0  0 
  8  9  1  0  0  0  0 
M  END
> <Rank>
27

> <Priority_score>
0.0216

> <Reaction_type>
deformylation

> <Parent_ID>
52

> <Parent_InChI>
InChI=1S/C19H28O8/c1-10-4-5-13-11(2)16(23-15(22)7-6-14(20)21)24-17-19(13)12(10)8-9-18(3,25-17)26-27-19/h10-13,16-17H,4-9H2,1-3H3,(H,20,21)

> <Parent_SMILES>
C[C@@H]1CC[C@H]2[C@@H](C)[C@H](OC(=O)CCC(=O)O)O[C@@H]3O[C@@]4(C)CC[C@@H]1[C@@]23OO4

$$$$
Molecule 52_metabolite 29
  CDK     0516241031

 53 56  0  0  0  0  0  0  0  0999 V2000
    1.1336    3.5661    0.0000 C   0  0  0  0  0  0  0  0  0  0  0  0
    2.4103    4.3536    0.0000 H   0  0  0  0  0  0  0  0  0  0  0  0
   -0.1867    4.2779    0.0000 H   0  0  0  0  0  0  0  0  0  0  0  0
    1.1773    2.0667    0.0000 C   0  0  0  0  0  0  0  0  0  0  0  0
    2.4473    1.3167    0.0000 C   0  0  0  0  0  0  0  0  0  0  0  0
    3.9236    1.0514    0.0000 H   0  0  0  0  0  0  0  0  0  0  0  0
    2.9696    2.7228    0.0000 H   0  0  0  0  0  0  0  0  0  0  0  0
    2.4473   -0.1733    0.0000 C   0  0  0  0  0  0  0  0  0  0  0  0
    1.2846    0.7744    0.0000 H   0  0  0  0  0  0  0  0  0  0  0  0
    3.9106    0.1566    0.0000 H   0  0  0  0  0  0  0  0  0  0  0  0
    1.2873   -1.0833    0.0000 C   0  0  1  0  0  0  0  0  0  0  0  0
    2.6361   -1.7395    0.0000 H   0  0  0  0  0  0  0  0  0  0  0  0
    1.2873   -2.5833    0.0000 C   0  0  1  0  0  0  0  0  0  0  0  0
    1.8000   -3.9929    0.0000 H   0  0  0  0  0  0  0  0  0  0  0  0
    3.2372   -2.2397    0.0000 C   0  0  0  0  0  0  0  0  0  0  0  0
    3.7504   -0.8302    0.0000 H   0  0  0  0  0  0  0  0  0  0  0  0
    4.7144   -2.5003    0.0000 H   0  0  0  0  0  0  0  0  0  0  0  0
    3.2371   -3.7397    0.0000 H   0  0  0  0  0  0  0  0  0  0  0  0
   -0.0127   -3.3333    0.0000 C   0  0  2  0  0  0  0  0  0  0  0  0
   -0.9793   -4.4803    0.0000 H   0  0  0  0  0  0  0  0  0  0  0  0
    0.9501   -4.4835    0.0000 O   0  0  0  0  0  0  0  0  0  0  0  0
    0.4353   -5.8925    0.0000 C   0  0  0  0  0  0  0  0  0  0  0  0
   -1.0422   -6.1511    0.0000 O   0  0  0  0  0  0  0  0  0  0  0  0
    1.3981   -7.0427    0.0000 C   0  0  0  0  0  0  0  0  0  0  0  0
    2.6962   -7.7943    0.0000 H   0  0  0  0  0  0  0  0  0  0  0  0
    2.3637   -5.8948    0.0000 H   0  0  0  0  0  0  0  0  0  0  0  0
    0.8833   -8.4516    0.0000 C   0  0  0  0  0  0  0  0  0  0  0  0
   -0.4148   -7.7000    0.0000 H   0  0  0  0  0  0  0  0  0  0  0  0
   -0.0823   -9.5995    0.0000 H   0  0  0  0  0  0  0  0  0  0  0  0
    1.8461   -9.6019    0.0000 C   0  0  0  0  0  0  0  0  0  0  0  0
    3.3236   -9.3432    0.0000 O   0  0  0  0  0  0  0  0  0  0  0  0
    1.3313  -11.0108    0.0000 O   0  0  0  0  0  0  0  0  0  0  0  0
    2.2941  -12.1610    0.0000 H   0  0  0  0  0  0  0  0  0  0  0  0
   -1.3027   -2.5833    0.0000 O   0  0  0  0  0  0  0  0  0  0  0  0
   -1.3027   -1.0833    0.0000 C   0  0  1  0  0  0  0  0  0  0  0  0
   -2.4775   -2.0160    0.0000 H   0  0  0  0  0  0  0  0  0  0  0  0
   -0.0127   -0.3233    0.0000 C   0  0  1  0  0  0  0  0  0  0  0  0
   -0.0727    1.2267    0.0000 C   0  0  1  0  0  0  0  0  0  0  0  0
   -1.4899    1.7184    0.0000 H   0  0  0  0  0  0  0  0  0  0  0  0
   -1.2727    2.2867    0.0000 C   0  0  0  0  0  0  0  0  0  0  0  0
   -0.0643    3.1754    0.0000 H   0  0  0  0  0  0  0  0  0  0  0  0
   -1.8857    3.6557    0.0000 H   0  0  0  0  0  0  0  0  0  0  0  0
   -2.7427    1.9767    0.0000 C   0  0  0  0  0  0  0  0  0  0  0  0
   -2.7246    3.4766    0.0000 H   0  0  0  0  0  0  0  0  0  0  0  0
   -4.2026    2.3215    0.0000 H   0  0  0  0  0  0  0  0  0  0  0  0
   -3.4027    0.6167    0.0000 C   0  0  2  0  0  0  0  0  0  0  0  0
   -4.9027    0.6257    0.0000 C   0  0  0  0  0  0  0  0  0  0  0  0
   -5.6449    1.9292    0.0000 H   0  0  0  0  0  0  0  0  0  0  0  0
   -6.3153    0.1211    0.0000 H   0  0  0  0  0  0  0  0  0  0  0  0
   -4.6511   -0.8531    0.0000 H   0  0  0  0  0  0  0  0  0  0  0  0
   -2.7627   -0.7433    0.0000 O   0  0  0  0  0  0  0  0  0  0  0  0
   -1.9827    1.0767    0.0000 O   0  0  0  0  0  0  0  0  0  0  0  0
   -1.3427    0.0067    0.0000 O   0  0  0  0  0  0  0  0  0  0  0  0
  1  2  1  0  0  0  0 
  1  3  1  0  0  0  0 
  1  4  2  0  0  0  0 
  4  5  1  0  0  0  0 
  5  6  1  0  0  0  0 
  5  7  1  0  0  0  0 
  5  8  1  0  0  0  0 
  8  9  1  0  0  0  0 
  8 10  1  0  0  0  0 
  8 11  1  0  0  0  0 
 11 12  1  6  0  0  0 
 11 13  1  0  0  0  0 
 13 14  1  6  0  0  0 
 13 15  1  1  0  0  0 
 15 16  1  0  0  0  0 
 15 17  1  0  0  0  0 
 15 18  1  0  0  0  0 
 13 19  1  0  0  0  0 
 19 20  1  1  0  0  0 
 19 21  1  6  0  0  0 
 21 22  1  0  0  0  0 
 22 23  2  0  0  0  0 
 22 24  1  0  0  0  0 
 24 25  1  0  0  0  0 
 24 26  1  0  0  0  0 
 24 27  1  0  0  0  0 
 27 28  1  0  0  0  0 
 27 29  1  0  0  0  0 
 27 30  1  0  0  0  0 
 30 31  2  0  0  0  0 
 30 32  1  0  0  0  0 
 32 33  1  0  0  0  0 
 19 34  1  0  0  0  0 
 34 35  1  0  0  0  0 
 35 36  1  1  0  0  0 
 37 35  1  1  0  0  0 
 11 37  1  0  0  0  0 
 37 38  1  0  0  0  0 
  4 38  1  0  0  0  0 
 38 39  1  6  0  0  0 
 38 40  1  0  0  0  0 
 40 41  1  0  0  0  0 
 40 42  1  0  0  0  0 
 40 43  1  0  0  0  0 
 43 44  1  0  0  0  0 
 43 45  1  0  0  0  0 
 43 46  1  0  0  0  0 
 46 47  1  0  0  0  0 
 47 48  1  0  0  0  0 
 47 49  1  0  0  0  0 
 47 50  1  0  0  0  0 
 46 51  1  1  0  0  0 
 35 51  1  0  0  0  0 
 46 52  1  0  0  0  0 
 52 53  1  0  0  0  0 
 37 53  1  6  0  0  0 
M  END
> <Rank>
29

> <Priority_score>
0.0208

> <Reaction_type>
alkyl dehydrogenation

> <Parent_ID>
52

> <Parent_InChI>
InChI=1S/C19H28O8/c1-10-4-5-13-11(2)16(23-15(22)7-6-14(20)21)24-17-19(13)12(10)8-9-18(3,25-17)26-27-19/h10-13,16-17H,4-9H2,1-3H3,(H,20,21)

> <Parent_SMILES>
C[C@@H]1CC[C@H]2[C@@H](C)[C@H](OC(=O)CCC(=O)O)O[C@@H]3O[C@@]4(C)CC[C@@H]1[C@@]23OO4

$$$$
Molecule 52_metabolite 30
  CDK     0516241031

 56 59  0  0  0  0  0  0  0  0999 V2000
    0.5595    4.3653    0.0000 C   0  0  0  0  0  0  0  0  0  0  0  0
    2.0407    4.1287    0.0000 H   0  0  0  0  0  0  0  0  0  0  0  0
   -0.7515    5.0942    0.0000 H   0  0  0  0  0  0  0  0  0  0  0  0
    1.0497    5.7829    0.0000 H   0  0  0  0  0  0  0  0  0  0  0  0
   -0.6886    2.8282    0.0000 C   0  0  2  0  0  0  0  0  0  0  0  0
   -0.0454    1.4731    0.0000 H   0  0  0  0  0  0  0  0  0  0  0  0
    0.5814    2.0782    0.0000 C   0  0  0  0  0  0  0  0  0  0  0  0
    2.0578    1.8129    0.0000 H   0  0  0  0  0  0  0  0  0  0  0  0
    1.1037    3.4843    0.0000 H   0  0  0  0  0  0  0  0  0  0  0  0
    0.5814    0.5882    0.0000 C   0  0  0  0  0  0  0  0  0  0  0  0
    1.8429   -2.0674    0.0000 H   0  0  0  0  0  0  0  0  0  0  0  0
    2.0447    0.9181    0.0000 H   0  0  0  0  0  0  0  0  0  0  0  0
   -0.5786   -0.3218    0.0000 C   0  0  1  0  0  0  0  0  0  0  0  0
   -0.5786   -1.8218    0.0000 C   0  0  1  0  0  0  0  0  0  0  0  0
   -0.0659   -3.2315    0.0000 H   0  0  0  0  0  0  0  0  0  0  0  0
    2.3168   -1.3116    0.0000 C   0  0  0  0  0  0  0  0  0  0  0  0
    3.2809   -2.4608    0.0000 H   0  0  0  0  0  0  0  0  0  0  0  0
    3.6159   -0.5617    0.0000 H   0  0  0  0  0  0  0  0  0  0  0  0
    1.8039    0.0980    0.0000 H   0  0  0  0  0  0  0  0  0  0  0  0
   -1.8786   -2.5718    0.0000 C   0  0  2  0  0  0  0  0  0  0  0  0
   -2.8452   -3.7188    0.0000 H   0  0  0  0  0  0  0  0  0  0  0  0
   -0.9158   -3.7221    0.0000 O   0  0  0  0  0  0  0  0  0  0  0  0
   -1.4306   -5.1310    0.0000 C   0  0  0  0  0  0  0  0  0  0  0  0
   -2.9081   -5.3896    0.0000 O   0  0  0  0  0  0  0  0  0  0  0  0
   -0.4678   -6.2812    0.0000 C   0  0  0  0  0  0  0  0  0  0  0  0
    0.8303   -7.0328    0.0000 H   0  0  0  0  0  0  0  0  0  0  0  0
    0.4978   -5.1333    0.0000 H   0  0  0  0  0  0  0  0  0  0  0  0
   -0.9825   -7.6901    0.0000 C   0  0  0  0  0  0  0  0  0  0  0  0
   -2.2807   -6.9385    0.0000 H   0  0  0  0  0  0  0  0  0  0  0  0
   -1.9481   -8.8380    0.0000 H   0  0  0  0  0  0  0  0  0  0  0  0
   -0.0198   -8.8404    0.0000 C   0  0  0  0  0  0  0  0  0  0  0  0
    1.4578   -8.5817    0.0000 O   0  0  0  0  0  0  0  0  0  0  0  0
   -0.5345  -10.2493    0.0000 O   0  0  0  0  0  0  0  0  0  0  0  0
    0.4283  -11.3995    0.0000 H   0  0  0  0  0  0  0  0  0  0  0  0
   -3.1686   -1.8218    0.0000 O   0  0  0  0  0  0  0  0  0  0  0  0
   -3.1686   -0.3218    0.0000 C   0  0  1  0  0  0  0  0  0  0  0  0
   -4.3434   -1.2545    0.0000 H   0  0  0  0  0  0  0  0  0  0  0  0
   -1.8786    0.4382    0.0000 C   0  0  1  0  0  0  0  0  0  0  0  0
   -1.9386    1.9882    0.0000 C   0  0  1  0  0  0  0  0  0  0  0  0
   -3.4117    1.7054    0.0000 H   0  0  0  0  0  0  0  0  0  0  0  0
   -3.1386    3.0482    0.0000 C   0  0  0  0  0  0  0  0  0  0  0  0
   -1.9302    3.9369    0.0000 H   0  0  0  0  0  0  0  0  0  0  0  0
   -3.7516    4.4172    0.0000 H   0  0  0  0  0  0  0  0  0  0  0  0
   -4.6086    2.7382    0.0000 C   0  0  0  0  0  0  0  0  0  0  0  0
   -4.5905    4.2381    0.0000 H   0  0  0  0  0  0  0  0  0  0  0  0
   -6.0684    3.0830    0.0000 H   0  0  0  0  0  0  0  0  0  0  0  0
   -5.2686    1.3782    0.0000 C   0  0  2  0  0  0  0  0  0  0  0  0
   -6.7686    1.3872    0.0000 C   0  0  0  0  0  0  0  0  0  0  0  0
   -7.5108    2.6907    0.0000 H   0  0  0  0  0  0  0  0  0  0  0  0
   -8.1811    0.8826    0.0000 H   0  0  0  0  0  0  0  0  0  0  0  0
   -6.5169   -0.0916    0.0000 H   0  0  0  0  0  0  0  0  0  0  0  0
   -4.6286    0.0182    0.0000 O   0  0  0  0  0  0  0  0  0  0  0  0
   -3.8486    1.8382    0.0000 O   0  0  0  0  0  0  0  0  0  0  0  0
   -3.2086    0.7682    0.0000 O   0  0  0  0  0  0  0  0  0  0  0  0
    0.7703   -0.9780    0.0000 O   0  0  0  0  0  0  0  0  0  0  0  0
    0.8764   -2.4743    0.0000 H   0  0  0  0  0  0  0  0  0  0  0  0
  1  2  1  0  0  0  0 
  1  3  1  0  0  0  0 
  1  4  1  0  0  0  0 
  1  5  1  0  0  0  0 
  5  6  1  1  0  0  0 
  5  7  1  6  0  0  0 
  7  8  1  0  0  0  0 
  7  9  1  0  0  0  0 
  7 10  1  0  0  0  0 
 10 11  1  0  0  0  0 
 10 12  1  0  0  0  0 
 10 13  1  0  0  0  0 
 13 14  1  0  0  0  0 
 14 15  1  6  0  0  0 
 14 16  1  1  0  0  0 
 16 17  1  0  0  0  0 
 16 18  1  0  0  0  0 
 16 19  1  0  0  0  0 
 14 20  1  0  0  0  0 
 20 21  1  1  0  0  0 
 20 22  1  6  0  0  0 
 22 23  1  0  0  0  0 
 23 24  2  0  0  0  0 
 23 25  1  0  0  0  0 
 25 26  1  0  0  0  0 
 25 27  1  0  0  0  0 
 25 28  1  0  0  0  0 
 28 29  1  0  0  0  0 
 28 30  1  0  0  0  0 
 28 31  1  0  0  0  0 
 31 32  2  0  0  0  0 
 31 33  1  0  0  0  0 
 33 34  1  0  0  0  0 
 20 35  1  0  0  0  0 
 35 36  1  0  0  0  0 
 36 37  1  1  0  0  0 
 38 36  1  1  0  0  0 
 13 38  1  0  0  0  0 
 38 39  1  0  0  0  0 
  5 39  1  0  0  0  0 
 39 40  1  6  0  0  0 
 39 41  1  0  0  0  0 
 41 42  1  0  0  0  0 
 41 43  1  0  0  0  0 
 41 44  1  0  0  0  0 
 44 45  1  0  0  0  0 
 44 46  1  0  0  0  0 
 44 47  1  0  0  0  0 
 47 48  1  0  0  0  0 
 48 49  1  0  0  0  0 
 48 50  1  0  0  0  0 
 48 51  1  0  0  0  0 
 47 52  1  1  0  0  0 
 36 52  1  0  0  0  0 
 47 53  1  0  0  0  0 
 53 54  1  0  0  0  0 
 38 54  1  6  0  0  0 
 13 55  1  6  0  0  0 
 55 56  1  0  0  0  0 
M  END
> <Rank>
30

> <Priority_score>
0.02

> <Reaction_type>
aliphatic hydroxylation

> <Parent_ID>
52

> <Parent_InChI>
InChI=1S/C19H28O8/c1-10-4-5-13-11(2)16(23-15(22)7-6-14(20)21)24-17-19(13)12(10)8-9-18(3,25-17)26-27-19/h10-13,16-17H,4-9H2,1-3H3,(H,20,21)

> <Parent_SMILES>
C[C@@H]1CC[C@H]2[C@@H](C)[C@H](OC(=O)CCC(=O)O)O[C@@H]3O[C@@]4(C)CC[C@@H]1[C@@]23OO4

$$$$
Molecule 52_metabolite 31
  CDK     0516241031

 56 59  0  0  0  0  0  0  0  0999 V2000
    0.8408    1.3628    0.0000 C   0  0  0  0  0  0  0  0  0  0  0  0
    0.3051    2.7639    0.0000 H   0  0  0  0  0  0  0  0  0  0  0  0
    1.8234    0.2294    0.0000 H   0  0  0  0  0  0  0  0  0  0  0  0
    2.1276    2.1337    0.0000 H   0  0  0  0  0  0  0  0  0  0  0  0
   -0.7099   -0.5469    0.0000 C   0  0  2  0  0  0  0  0  0  0  0  0
   -1.8308    2.1710    0.0000 H   0  0  0  0  0  0  0  0  0  0  0  0
    0.5601   -1.2969    0.0000 C   0  0  0  0  0  0  0  0  0  0  0  0
    2.0365   -1.5622    0.0000 H   0  0  0  0  0  0  0  0  0  0  0  0
    1.0824    0.1092    0.0000 H   0  0  0  0  0  0  0  0  0  0  0  0
    0.5601   -2.7869    0.0000 C   0  0  0  0  0  0  0  0  0  0  0  0
   -0.6026   -1.8393    0.0000 H   0  0  0  0  0  0  0  0  0  0  0  0
   -0.5999   -3.6969    0.0000 C   0  0  1  0  0  0  0  0  0  0  0  0
    0.7490   -4.3531    0.0000 H   0  0  0  0  0  0  0  0  0  0  0  0
   -0.5999   -5.1969    0.0000 C   0  0  1  0  0  0  0  0  0  0  0  0
   -0.0871   -6.6066    0.0000 H   0  0  0  0  0  0  0  0  0  0  0  0
    2.3401   -5.1972    0.0000 C   0  0  0  0  0  0  0  0  0  0  0  0
    3.0900   -6.4964    0.0000 H   0  0  0  0  0  0  0  0  0  0  0  0
    3.7497   -4.6844    0.0000 H   0  0  0  0  0  0  0  0  0  0  0  0
    2.0798   -3.7200    0.0000 H   0  0  0  0  0  0  0  0  0  0  0  0
   -1.8999   -5.9469    0.0000 C   0  0  2  0  0  0  0  0  0  0  0  0
   -2.8665   -7.0939    0.0000 H   0  0  0  0  0  0  0  0  0  0  0  0
   -0.9371   -7.0972    0.0000 O   0  0  0  0  0  0  0  0  0  0  0  0
   -1.4518   -8.5061    0.0000 C   0  0  0  0  0  0  0  0  0  0  0  0
   -2.9294   -8.7647    0.0000 O   0  0  0  0  0  0  0  0  0  0  0  0
   -0.4891   -9.6563    0.0000 C   0  0  0  0  0  0  0  0  0  0  0  0
    0.8091  -10.4079    0.0000 H   0  0  0  0  0  0  0  0  0  0  0  0
    0.4765   -8.5084    0.0000 H   0  0  0  0  0  0  0  0  0  0  0  0
   -1.0038  -11.0652    0.0000 C   0  0  0  0  0  0  0  0  0  0  0  0
   -2.3019  -10.3137    0.0000 H   0  0  0  0  0  0  0  0  0  0  0  0
   -1.9694  -12.2131    0.0000 H   0  0  0  0  0  0  0  0  0  0  0  0
   -0.0410  -12.2155    0.0000 C   0  0  0  0  0  0  0  0  0  0  0  0
    1.4365  -11.9568    0.0000 O   0  0  0  0  0  0  0  0  0  0  0  0
   -0.5558  -13.6244    0.0000 O   0  0  0  0  0  0  0  0  0  0  0  0
    0.4070  -14.7746    0.0000 H   0  0  0  0  0  0  0  0  0  0  0  0
   -3.1899   -5.1969    0.0000 O   0  0  0  0  0  0  0  0  0  0  0  0
   -3.1899   -3.6969    0.0000 C   0  0  1  0  0  0  0  0  0  0  0  0
   -4.3647   -4.6296    0.0000 H   0  0  0  0  0  0  0  0  0  0  0  0
   -1.8999   -2.9369    0.0000 C   0  0  1  0  0  0  0  0  0  0  0  0
   -1.9599   -1.3869    0.0000 C   0  0  1  0  0  0  0  0  0  0  0  0
   -3.3770   -0.8953    0.0000 H   0  0  0  0  0  0  0  0  0  0  0  0
   -3.1599   -0.3269    0.0000 C   0  0  0  0  0  0  0  0  0  0  0  0
   -1.9515    0.5618    0.0000 H   0  0  0  0  0  0  0  0  0  0  0  0
   -3.7728    1.0421    0.0000 H   0  0  0  0  0  0  0  0  0  0  0  0
   -4.6299   -0.6369    0.0000 C   0  0  0  0  0  0  0  0  0  0  0  0
   -4.6118    0.8630    0.0000 H   0  0  0  0  0  0  0  0  0  0  0  0
   -6.0897   -0.2921    0.0000 H   0  0  0  0  0  0  0  0  0  0  0  0
   -5.2899   -1.9969    0.0000 C   0  0  2  0  0  0  0  0  0  0  0  0
   -6.7898   -1.9879    0.0000 C   0  0  0  0  0  0  0  0  0  0  0  0
   -7.5320   -0.6844    0.0000 H   0  0  0  0  0  0  0  0  0  0  0  0
   -8.2024   -2.4925    0.0000 H   0  0  0  0  0  0  0  0  0  0  0  0
   -6.5382   -3.4667    0.0000 H   0  0  0  0  0  0  0  0  0  0  0  0
   -4.6499   -3.3569    0.0000 O   0  0  0  0  0  0  0  0  0  0  0  0
   -3.8699   -1.5369    0.0000 O   0  0  0  0  0  0  0  0  0  0  0  0
   -3.2299   -2.6069    0.0000 O   0  0  0  0  0  0  0  0  0  0  0  0
    2.8295   -1.8374    0.0000 O   0  0  0  0  0  0  0  0  0  0  0  0
    4.0228   -2.7463    0.0000 H   0  0  0  0  0  0  0  0  0  0  0  0
  1  2  1  0  0  0  0 
  1  3  1  0  0  0  0 
  1  4  1  0  0  0  0 
  5  1  1  6  0  0  0 
  5  6  1  1  0  0  0 
  5  7  1  0  0  0  0 
  7  8  1  0  0  0  0 
  7  9  1  0  0  0  0 
  7 10  1  0  0  0  0 
 10 11  1  0  0  0  0 
 10 12  1  0  0  0  0 
 12 13  1  6  0  0  0 
 12 14  1  0  0  0  0 
 14 15  1  6  0  0  0 
 14 16  1  1  0  0  0 
 16 17  1  0  0  0  0 
 16 18  1  0  0  0  0 
 16 19  1  0  0  0  0 
 14 20  1  0  0  0  0 
 20 21  1  1  0  0  0 
 20 22  1  6  0  0  0 
 22 23  1  0  0  0  0 
 23 24  2  0  0  0  0 
 23 25  1  0  0  0  0 
 25 26  1  0  0  0  0 
 25 27  1  0  0  0  0 
 25 28  1  0  0  0  0 
 28 29  1  0  0  0  0 
 28 30  1  0  0  0  0 
 28 31  1  0  0  0  0 
 31 32  2  0  0  0  0 
 31 33  1  0  0  0  0 
 33 34  1  0  0  0  0 
 20 35  1  0  0  0  0 
 35 36  1  0  0  0  0 
 36 37  1  1  0  0  0 
 38 36  1  1  0  0  0 
 12 38  1  0  0  0  0 
 38 39  1  0  0  0  0 
  5 39  1  0  0  0  0 
 39 40  1  6  0  0  0 
 39 41  1  0  0  0  0 
 41 42  1  0  0  0  0 
 41 43  1  0  0  0  0 
 41 44  1  0  0  0  0 
 44 45  1  0  0  0  0 
 44 46  1  0  0  0  0 
 44 47  1  0  0  0  0 
 47 48  1  0  0  0  0 
 48 49  1  0  0  0  0 
 48 50  1  0  0  0  0 
 48 51  1  0  0  0  0 
 47 52  1  1  0  0  0 
 36 52  1  0  0  0  0 
 47 53  1  0  0  0  0 
 53 54  1  0  0  0  0 
 38 54  1  6  0  0  0 
 10 55  1  0  0  0  0 
 55 56  1  0  0  0  0 
M  END
> <Rank>
31

> <Priority_score>
0.016

> <Reaction_type>
aliphatic hydroxylation

> <Parent_ID>
52

> <Parent_InChI>
InChI=1S/C19H28O8/c1-10-4-5-13-11(2)16(23-15(22)7-6-14(20)21)24-17-19(13)12(10)8-9-18(3,25-17)26-27-19/h10-13,16-17H,4-9H2,1-3H3,(H,20,21)

> <Parent_SMILES>
C[C@@H]1CC[C@H]2[C@@H](C)[C@H](OC(=O)CCC(=O)O)O[C@@H]3O[C@@]4(C)CC[C@@H]1[C@@]23OO4

$$$$
Molecule 52_metabolite 32
  CDK     0516241031

 53 56  0  0  0  0  0  0  0  0999 V2000
    1.6063    3.6494    0.0000 C   0  0  0  0  0  0  0  0  0  0  0  0
    0.2860    4.3612    0.0000 H   0  0  0  0  0  0  0  0  0  0  0  0
    2.0781    5.0732    0.0000 H   0  0  0  0  0  0  0  0  0  0  0  0
    3.0905    3.4320    0.0000 H   0  0  0  0  0  0  0  0  0  0  0  0
    1.6640    1.6702    0.0000 C   0  0  0  0  0  0  0  0  0  0  0  0
    0.4140    0.8302    0.0000 C   0  0  0  0  0  0  0  0  0  0  0  0
   -0.7860    1.8902    0.0000 C   0  0  0  0  0  0  0  0  0  0  0  0
    0.4224    2.7789    0.0000 H   0  0  0  0  0  0  0  0  0  0  0  0
   -1.3990    3.2592    0.0000 H   0  0  0  0  0  0  0  0  0  0  0  0
   -2.2560    1.5802    0.0000 C   0  0  0  0  0  0  0  0  0  0  0  0
   -2.2380    3.0801    0.0000 H   0  0  0  0  0  0  0  0  0  0  0  0
   -3.7159    1.9250    0.0000 H   0  0  0  0  0  0  0  0  0  0  0  0
   -2.9160    0.2202    0.0000 C   0  0  2  0  0  0  0  0  0  0  0  0
   -4.4160    0.2292    0.0000 C   0  0  0  0  0  0  0  0  0  0  0  0
   -5.1582    1.5327    0.0000 H   0  0  0  0  0  0  0  0  0  0  0  0
   -5.8286   -0.2754    0.0000 H   0  0  0  0  0  0  0  0  0  0  0  0
   -4.1644   -1.2496    0.0000 H   0  0  0  0  0  0  0  0  0  0  0  0
   -2.2760   -1.1398    0.0000 O   0  0  0  0  0  0  0  0  0  0  0  0
   -0.8160   -1.4798    0.0000 C   0  0  2  0  0  0  0  0  0  0  0  0
   -1.9908   -2.4124    0.0000 H   0  0  0  0  0  0  0  0  0  0  0  0
    0.4740   -0.7198    0.0000 C   0  0  2  0  0  0  0  0  0  0  0  0
    1.7740   -1.4798    0.0000 C   0  0  1  0  0  0  0  0  0  0  0  0
    1.4577   -0.0135    0.0000 H   0  0  0  0  0  0  0  0  0  0  0  0
    2.9340   -0.5698    0.0000 C   0  0  0  0  0  0  0  0  0  0  0  0
    3.5776   -1.9247    0.0000 H   0  0  0  0  0  0  0  0  0  0  0  0
    4.3973   -0.2399    0.0000 H   0  0  0  0  0  0  0  0  0  0  0  0
    2.9340    0.9202    0.0000 C   0  0  0  0  0  0  0  0  0  0  0  0
    4.4103    0.6549    0.0000 H   0  0  0  0  0  0  0  0  0  0  0  0
    3.4562    2.3263    0.0000 H   0  0  0  0  0  0  0  0  0  0  0  0
    1.7740   -2.9798    0.0000 C   0  0  1  0  0  0  0  0  0  0  0  0
    2.2867   -4.3894    0.0000 H   0  0  0  0  0  0  0  0  0  0  0  0
    3.2512   -2.7195    0.0000 C   0  0  0  0  0  0  0  0  0  0  0  0
    4.2153   -3.8687    0.0000 H   0  0  0  0  0  0  0  0  0  0  0  0
    4.5503   -1.9696    0.0000 H   0  0  0  0  0  0  0  0  0  0  0  0
    2.7383   -1.3099    0.0000 H   0  0  0  0  0  0  0  0  0  0  0  0
    0.4740   -3.7298    0.0000 C   0  0  2  0  0  0  0  0  0  0  0  0
   -0.4926   -4.8768    0.0000 H   0  0  0  0  0  0  0  0  0  0  0  0
    1.4368   -4.8800    0.0000 O   0  0  0  0  0  0  0  0  0  0  0  0
    0.9220   -6.2890    0.0000 C   0  0  0  0  0  0  0  0  0  0  0  0
   -0.5555   -6.5476    0.0000 O   0  0  0  0  0  0  0  0  0  0  0  0
    1.8848   -7.4392    0.0000 C   0  0  0  0  0  0  0  0  0  0  0  0
    3.1829   -8.1908    0.0000 H   0  0  0  0  0  0  0  0  0  0  0  0
    2.8504   -6.2913    0.0000 H   0  0  0  0  0  0  0  0  0  0  0  0
    1.3700   -8.8481    0.0000 C   0  0  0  0  0  0  0  0  0  0  0  0
    0.0719   -8.0965    0.0000 H   0  0  0  0  0  0  0  0  0  0  0  0
    0.4044   -9.9960    0.0000 H   0  0  0  0  0  0  0  0  0  0  0  0
    2.3328   -9.9984    0.0000 C   0  0  0  0  0  0  0  0  0  0  0  0
    3.8103   -9.7397    0.0000 O   0  0  0  0  0  0  0  0  0  0  0  0
    1.8180  -11.4073    0.0000 O   0  0  0  0  0  0  0  0  0  0  0  0
    2.7808  -12.5575    0.0000 H   0  0  0  0  0  0  0  0  0  0  0  0
   -0.8160   -2.9798    0.0000 O   0  0  0  0  0  0  0  0  0  0  0  0
   -0.8560   -0.3898    0.0000 O   0  0  0  0  0  0  0  0  0  0  0  0
   -1.4960    0.6802    0.0000 O   0  0  0  0  0  0  0  0  0  0  0  0
  1  2  1  0  0  0  0 
  1  3  1  0  0  0  0 
  1  4  1  0  0  0  0 
  1  5  1  0  0  0  0 
  5  6  2  0  0  0  0 
  6  7  1  0  0  0  0 
  7  8  1  0  0  0  0 
  7  9  1  0  0  0  0 
  7 10  1  0  0  0  0 
 10 11  1  0  0  0  0 
 10 12  1  0  0  0  0 
 10 13  1  0  0  0  0 
 13 14  1  0  0  0  0 
 14 15  1  0  0  0  0 
 14 16  1  0  0  0  0 
 14 17  1  0  0  0  0 
 13 18  1  1  0  0  0 
 18 19  1  0  0  0  0 
 19 20  1  1  0  0  0 
 19 21  1  0  0  0  0 
 21  6  1  1  0  0  0 
 21 22  1  0  0  0  0 
 22 23  1  6  0  0  0 
 22 24  1  0  0  0  0 
 24 25  1  0  0  0  0 
 24 26  1  0  0  0  0 
 24 27  1  0  0  0  0 
  5 27  1  0  0  0  0 
 27 28  1  0  0  0  0 
 27 29  1  0  0  0  0 
 22 30  1  0  0  0  0 
 30 31  1  6  0  0  0 
 30 32  1  1  0  0  0 
 32 33  1  0  0  0  0 
 32 34  1  0  0  0  0 
 32 35  1  0  0  0  0 
 30 36  1  0  0  0  0 
 36 37  1  1  0  0  0 
 36 38  1  6  0  0  0 
 38 39  1  0  0  0  0 
 39 40  2  0  0  0  0 
 39 41  1  0  0  0  0 
 41 42  1  0  0  0  0 
 41 43  1  0  0  0  0 
 41 44  1  0  0  0  0 
 44 45  1  0  0  0  0 
 44 46  1  0  0  0  0 
 44 47  1  0  0  0  0 
 47 48  2  0  0  0  0 
 47 49  1  0  0  0  0 
 49 50  1  0  0  0  0 
 36 51  1  0  0  0  0 
 19 51  1  0  0  0  0 
 21 52  1  6  0  0  0 
 52 53  1  0  0  0  0 
 13 53  1  0  0  0  0 
M  END
> <Rank>
31

> <Priority_score>
0.016

> <Reaction_type>
alkyl dehydrogenation

> <Parent_ID>
52

> <Parent_InChI>
InChI=1S/C19H28O8/c1-10-4-5-13-11(2)16(23-15(22)7-6-14(20)21)24-17-19(13)12(10)8-9-18(3,25-17)26-27-19/h10-13,16-17H,4-9H2,1-3H3,(H,20,21)

> <Parent_SMILES>
C[C@@H]1CC[C@H]2[C@@H](C)[C@H](OC(=O)CCC(=O)O)O[C@@H]3O[C@@]4(C)CC[C@@H]1[C@@]23OO4

$$$$
Molecule 52_metabolite 33
  CDK     0516241031

 55 58  0  0  0  0  0  0  0  0999 V2000
    2.6718    1.8999    0.0000 C   0  0  0  0  0  0  0  0  0  0  0  0
    2.1361    3.3010    0.0000 H   0  0  0  0  0  0  0  0  0  0  0  0
    3.6544    0.7666    0.0000 H   0  0  0  0  0  0  0  0  0  0  0  0
    3.9586    2.6708    0.0000 H   0  0  0  0  0  0  0  0  0  0  0  0
    1.1212   -0.0098    0.0000 C   0  0  2  0  0  0  0  0  0  0  0  0
    0.0002    2.7081    0.0000 H   0  0  0  0  0  0  0  0  0  0  0  0
    2.3912   -0.7598    0.0000 C   0  0  0  0  0  0  0  0  0  0  0  0
    3.8675   -1.0251    0.0000 H   0  0  0  0  0  0  0  0  0  0  0  0
    2.9135    0.6464    0.0000 H   0  0  0  0  0  0  0  0  0  0  0  0
    2.3912   -2.2498    0.0000 C   0  0  0  0  0  0  0  0  0  0  0  0
    1.2285   -1.3021    0.0000 H   0  0  0  0  0  0  0  0  0  0  0  0
    3.8545   -1.9199    0.0000 H   0  0  0  0  0  0  0  0  0  0  0  0
    1.2312   -3.1598    0.0000 C   0  0  1  0  0  0  0  0  0  0  0  0
    2.5800   -3.8160    0.0000 H   0  0  0  0  0  0  0  0  0  0  0  0
    1.2312   -4.6598    0.0000 C   0  0  1  0  0  0  0  0  0  0  0  0
    1.7439   -6.0694    0.0000 H   0  0  0  0  0  0  0  0  0  0  0  0
    3.1811   -4.3162    0.0000 C   0  0  0  0  0  0  0  0  0  0  0  0
    3.6943   -2.9067    0.0000 O   0  0  0  0  0  0  0  0  0  0  0  0
    4.1452   -5.4653    0.0000 O   0  0  0  0  0  0  0  0  0  0  0  0
    5.6224   -5.2050    0.0000 H   0  0  0  0  0  0  0  0  0  0  0  0
   -0.0688   -5.4098    0.0000 C   0  0  2  0  0  0  0  0  0  0  0  0
   -1.0354   -6.5568    0.0000 H   0  0  0  0  0  0  0  0  0  0  0  0
    0.8940   -6.5600    0.0000 O   0  0  0  0  0  0  0  0  0  0  0  0
    0.3792   -7.9689    0.0000 C   0  0  0  0  0  0  0  0  0  0  0  0
   -1.0983   -8.2276    0.0000 O   0  0  0  0  0  0  0  0  0  0  0  0
    1.3420   -9.1192    0.0000 C   0  0  0  0  0  0  0  0  0  0  0  0
    2.6401   -9.8708    0.0000 H   0  0  0  0  0  0  0  0  0  0  0  0
    2.3076   -7.9713    0.0000 H   0  0  0  0  0  0  0  0  0  0  0  0
    0.8272  -10.5281    0.0000 C   0  0  0  0  0  0  0  0  0  0  0  0
   -0.4709   -9.7765    0.0000 H   0  0  0  0  0  0  0  0  0  0  0  0
   -0.1384  -11.6760    0.0000 H   0  0  0  0  0  0  0  0  0  0  0  0
    1.7900  -11.6783    0.0000 C   0  0  0  0  0  0  0  0  0  0  0  0
    3.2675  -11.4197    0.0000 O   0  0  0  0  0  0  0  0  0  0  0  0
    1.2753  -13.0873    0.0000 O   0  0  0  0  0  0  0  0  0  0  0  0
    2.2380  -14.2375    0.0000 H   0  0  0  0  0  0  0  0  0  0  0  0
   -1.3588   -4.6598    0.0000 O   0  0  0  0  0  0  0  0  0  0  0  0
   -1.3588   -3.1598    0.0000 C   0  0  1  0  0  0  0  0  0  0  0  0
   -2.5336   -4.0924    0.0000 H   0  0  0  0  0  0  0  0  0  0  0  0
   -0.0688   -2.3998    0.0000 C   0  0  1  0  0  0  0  0  0  0  0  0
   -0.1288   -0.8498    0.0000 C   0  0  1  0  0  0  0  0  0  0  0  0
   -1.5459   -0.3581    0.0000 H   0  0  0  0  0  0  0  0  0  0  0  0
   -1.3288    0.2102    0.0000 C   0  0  0  0  0  0  0  0  0  0  0  0
   -0.1204    1.0989    0.0000 H   0  0  0  0  0  0  0  0  0  0  0  0
   -1.9418    1.5792    0.0000 H   0  0  0  0  0  0  0  0  0  0  0  0
   -2.7988   -0.0998    0.0000 C   0  0  0  0  0  0  0  0  0  0  0  0
   -2.7807    1.4001    0.0000 H   0  0  0  0  0  0  0  0  0  0  0  0
   -4.2586    0.2450    0.0000 H   0  0  0  0  0  0  0  0  0  0  0  0
   -3.4588   -1.4598    0.0000 C   0  0  2  0  0  0  0  0  0  0  0  0
   -4.9588   -1.4508    0.0000 C   0  0  0  0  0  0  0  0  0  0  0  0
   -5.7010   -0.1473    0.0000 H   0  0  0  0  0  0  0  0  0  0  0  0
   -6.3714   -1.9554    0.0000 H   0  0  0  0  0  0  0  0  0  0  0  0
   -4.7072   -2.9296    0.0000 H   0  0  0  0  0  0  0  0  0  0  0  0
   -2.8188   -2.8198    0.0000 O   0  0  0  0  0  0  0  0  0  0  0  0
   -2.0388   -0.9998    0.0000 O   0  0  0  0  0  0  0  0  0  0  0  0
   -1.3988   -2.0698    0.0000 O   0  0  0  0  0  0  0  0  0  0  0  0
  1  2  1  0  0  0  0 
  1  3  1  0  0  0  0 
  1  4  1  0  0  0  0 
  5  1  1  6  0  0  0 
  5  6  1  1  0  0  0 
  5  7  1  0  0  0  0 
  7  8  1  0  0  0  0 
  7  9  1  0  0  0  0 
  7 10  1  0  0  0  0 
 10 11  1  0  0  0  0 
 10 12  1  0  0  0  0 
 10 13  1  0  0  0  0 
 13 14  1  6  0  0  0 
 13 15  1  0  0  0  0 
 15 16  1  6  0  0  0 
 15 17  1  1  0  0  0 
 17 18  2  0  0  0  0 
 17 19  1  0  0  0  0 
 19 20  1  0  0  0  0 
 15 21  1  0  0  0  0 
 21 22  1  1  0  0  0 
 21 23  1  6  0  0  0 
 23 24  1  0  0  0  0 
 24 25  2  0  0  0  0 
 24 26  1  0  0  0  0 
 26 27  1  0  0  0  0 
 26 28  1  0  0  0  0 
 26 29  1  0  0  0  0 
 29 30  1  0  0  0  0 
 29 31  1  0  0  0  0 
 29 32  1  0  0  0  0 
 32 33  2  0  0  0  0 
 32 34  1  0  0  0  0 
 34 35  1  0  0  0  0 
 21 36  1  0  0  0  0 
 36 37  1  0  0  0  0 
 37 38  1  1  0  0  0 
 39 37  1  1  0  0  0 
 13 39  1  0  0  0  0 
 39 40  1  0  0  0  0 
  5 40  1  0  0  0  0 
 40 41  1  6  0  0  0 
 40 42  1  0  0  0  0 
 42 43  1  0  0  0  0 
 42 44  1  0  0  0  0 
 42 45  1  0  0  0  0 
 45 46  1  0  0  0  0 
 45 47  1  0  0  0  0 
 45 48  1  0  0  0  0 
 48 49  1  0  0  0  0 
 49 50  1  0  0  0  0 
 49 51  1  0  0  0  0 
 49 52  1  0  0  0  0 
 48 53  1  1  0  0  0 
 37 53  1  0  0  0  0 
 48 54  1  0  0  0  0 
 54 55  1  0  0  0  0 
 39 55  1  6  0  0  0 
M  END
> <Rank>
31

> <Priority_score>
0.016

> <Reaction_type>
carboxylation_(primary_carbon_next_to_tert_carbon)

> <Parent_ID>
52

> <Parent_InChI>
InChI=1S/C19H28O8/c1-10-4-5-13-11(2)16(23-15(22)7-6-14(20)21)24-17-19(13)12(10)8-9-18(3,25-17)26-27-19/h10-13,16-17H,4-9H2,1-3H3,(H,20,21)

> <Parent_SMILES>
C[C@@H]1CC[C@H]2[C@@H](C)[C@H](OC(=O)CCC(=O)O)O[C@@H]3O[C@@]4(C)CC[C@@H]1[C@@]23OO4

$$$$
Molecule 52_metabolite 34
  CDK     0516241031

 56 59  0  0  0  0  0  0  0  0999 V2000
    2.6718    1.8999    0.0000 C   0  0  0  0  0  0  0  0  0  0  0  0
    2.1361    3.3010    0.0000 H   0  0  0  0  0  0  0  0  0  0  0  0
    3.6544    0.7666    0.0000 H   0  0  0  0  0  0  0  0  0  0  0  0
    3.9586    2.6708    0.0000 H   0  0  0  0  0  0  0  0  0  0  0  0
    1.1212   -0.0098    0.0000 C   0  0  2  0  0  0  0  0  0  0  0  0
    0.0002    2.7081    0.0000 H   0  0  0  0  0  0  0  0  0  0  0  0
    2.3912   -0.7598    0.0000 C   0  0  0  0  0  0  0  0  0  0  0  0
    3.8675   -1.0251    0.0000 H   0  0  0  0  0  0  0  0  0  0  0  0
    2.9135    0.6464    0.0000 H   0  0  0  0  0  0  0  0  0  0  0  0
    2.3912   -2.2498    0.0000 C   0  0  0  0  0  0  0  0  0  0  0  0
    1.2285   -1.3021    0.0000 H   0  0  0  0  0  0  0  0  0  0  0  0
    3.8545   -1.9199    0.0000 H   0  0  0  0  0  0  0  0  0  0  0  0
    1.2312   -3.1598    0.0000 C   0  0  1  0  0  0  0  0  0  0  0  0
    2.5800   -3.8160    0.0000 H   0  0  0  0  0  0  0  0  0  0  0  0
    1.2312   -4.6598    0.0000 C   0  0  1  0  0  0  0  0  0  0  0  0
    1.7439   -6.0694    0.0000 H   0  0  0  0  0  0  0  0  0  0  0  0
    3.1811   -4.3162    0.0000 C   0  0  0  0  0  0  0  0  0  0  0  0
    4.6583   -4.5768    0.0000 H   0  0  0  0  0  0  0  0  0  0  0  0
    3.1810   -5.8162    0.0000 H   0  0  0  0  0  0  0  0  0  0  0  0
    3.6943   -2.9067    0.0000 O   0  0  0  0  0  0  0  0  0  0  0  0
    5.1716   -2.6464    0.0000 H   0  0  0  0  0  0  0  0  0  0  0  0
   -0.0688   -5.4098    0.0000 C   0  0  2  0  0  0  0  0  0  0  0  0
   -1.0354   -6.5568    0.0000 H   0  0  0  0  0  0  0  0  0  0  0  0
    0.8940   -6.5600    0.0000 O   0  0  0  0  0  0  0  0  0  0  0  0
    0.3792   -7.9689    0.0000 C   0  0  0  0  0  0  0  0  0  0  0  0
   -1.0983   -8.2276    0.0000 O   0  0  0  0  0  0  0  0  0  0  0  0
    1.3420   -9.1192    0.0000 C   0  0  0  0  0  0  0  0  0  0  0  0
    2.6401   -9.8708    0.0000 H   0  0  0  0  0  0  0  0  0  0  0  0
    2.3076   -7.9713    0.0000 H   0  0  0  0  0  0  0  0  0  0  0  0
    0.8272  -10.5281    0.0000 C   0  0  0  0  0  0  0  0  0  0  0  0
   -0.4709   -9.7765    0.0000 H   0  0  0  0  0  0  0  0  0  0  0  0
   -0.1384  -11.6760    0.0000 H   0  0  0  0  0  0  0  0  0  0  0  0
    1.7900  -11.6783    0.0000 C   0  0  0  0  0  0  0  0  0  0  0  0
    3.2675  -11.4197    0.0000 O   0  0  0  0  0  0  0  0  0  0  0  0
    1.2753  -13.0873    0.0000 O   0  0  0  0  0  0  0  0  0  0  0  0
    2.2380  -14.2375    0.0000 H   0  0  0  0  0  0  0  0  0  0  0  0
   -1.3588   -4.6598    0.0000 O   0  0  0  0  0  0  0  0  0  0  0  0
   -1.3588   -3.1598    0.0000 C   0  0  1  0  0  0  0  0  0  0  0  0
   -2.5336   -4.0924    0.0000 H   0  0  0  0  0  0  0  0  0  0  0  0
   -0.0688   -2.3998    0.0000 C   0  0  1  0  0  0  0  0  0  0  0  0
   -0.1288   -0.8498    0.0000 C   0  0  1  0  0  0  0  0  0  0  0  0
   -1.6019   -1.1326    0.0000 H   0  0  0  0  0  0  0  0  0  0  0  0
   -1.3288    0.2102    0.0000 C   0  0  0  0  0  0  0  0  0  0  0  0
   -0.1204    1.0989    0.0000 H   0  0  0  0  0  0  0  0  0  0  0  0
   -1.9418    1.5792    0.0000 H   0  0  0  0  0  0  0  0  0  0  0  0
   -2.7988   -0.0998    0.0000 C   0  0  0  0  0  0  0  0  0  0  0  0
   -2.7807    1.4001    0.0000 H   0  0  0  0  0  0  0  0  0  0  0  0
   -4.2586    0.2450    0.0000 H   0  0  0  0  0  0  0  0  0  0  0  0
   -3.4588   -1.4598    0.0000 C   0  0  2  0  0  0  0  0  0  0  0  0
   -4.9588   -1.4508    0.0000 C   0  0  0  0  0  0  0  0  0  0  0  0
   -5.7010   -0.1473    0.0000 H   0  0  0  0  0  0  0  0  0  0  0  0
   -6.3714   -1.9554    0.0000 H   0  0  0  0  0  0  0  0  0  0  0  0
   -4.7072   -2.9296    0.0000 H   0  0  0  0  0  0  0  0  0  0  0  0
   -2.8188   -2.8198    0.0000 O   0  0  0  0  0  0  0  0  0  0  0  0
   -2.0388   -0.9998    0.0000 O   0  0  0  0  0  0  0  0  0  0  0  0
   -1.3988   -2.0698    0.0000 O   0  0  0  0  0  0  0  0  0  0  0  0
  1  2  1  0  0  0  0 
  1  3  1  0  0  0  0 
  1  4  1  0  0  0  0 
  5  1  1  6  0  0  0 
  5  6  1  1  0  0  0 
  5  7  1  0  0  0  0 
  7  8  1  0  0  0  0 
  7  9  1  0  0  0  0 
  7 10  1  0  0  0  0 
 10 11  1  0  0  0  0 
 10 12  1  0  0  0  0 
 10 13  1  0  0  0  0 
 13 14  1  6  0  0  0 
 13 15  1  0  0  0  0 
 15 16  1  6  0  0  0 
 15 17  1  1  0  0  0 
 17 18  1  0  0  0  0 
 17 19  1  0  0  0  0 
 17 20  1  0  0  0  0 
 20 21  1  0  0  0  0 
 15 22  1  0  0  0  0 
 22 23  1  1  0  0  0 
 22 24  1  6  0  0  0 
 24 25  1  0  0  0  0 
 25 26  2  0  0  0  0 
 25 27  1  0  0  0  0 
 27 28  1  0  0  0  0 
 27 29  1  0  0  0  0 
 27 30  1  0  0  0  0 
 30 31  1  0  0  0  0 
 30 32  1  0  0  0  0 
 30 33  1  0  0  0  0 
 33 34  2  0  0  0  0 
 33 35  1  0  0  0  0 
 35 36  1  0  0  0  0 
 22 37  1  0  0  0  0 
 37 38  1  0  0  0  0 
 38 39  1  1  0  0  0 
 40 38  1  1  0  0  0 
 13 40  1  0  0  0  0 
 40 41  1  0  0  0  0 
  5 41  1  0  0  0  0 
 41 42  1  6  0  0  0 
 41 43  1  0  0  0  0 
 43 44  1  0  0  0  0 
 43 45  1  0  0  0  0 
 43 46  1  0  0  0  0 
 46 47  1  0  0  0  0 
 46 48  1  0  0  0  0 
 46 49  1  0  0  0  0 
 49 50  1  0  0  0  0 
 50 51  1  0  0  0  0 
 50 52  1  0  0  0  0 
 50 53  1  0  0  0  0 
 49 54  1  1  0  0  0 
 38 54  1  0  0  0  0 
 49 55  1  0  0  0  0 
 55 56  1  0  0  0  0 
 40 56  1  6  0  0  0 
M  END
> <Rank>
31

> <Priority_score>
0.016

> <Reaction_type>
aliphatic_hydroxylation_(primary_carbon_next_to_tert_carbon)

> <Parent_ID>
52

> <Parent_InChI>
InChI=1S/C19H28O8/c1-10-4-5-13-11(2)16(23-15(22)7-6-14(20)21)24-17-19(13)12(10)8-9-18(3,25-17)26-27-19/h10-13,16-17H,4-9H2,1-3H3,(H,20,21)

> <Parent_SMILES>
C[C@@H]1CC[C@H]2[C@@H](C)[C@H](OC(=O)CCC(=O)O)O[C@@H]3O[C@@]4(C)CC[C@@H]1[C@@]23OO4

$$$$
Molecule 52_metabolite 35
  CDK     0516241031

 53 56  0  0  0  0  0  0  0  0999 V2000
    1.1336    3.5661    0.0000 C   0  0  0  0  0  0  0  0  0  0  0  0
   -0.1867    4.2779    0.0000 H   0  0  0  0  0  0  0  0  0  0  0  0
    1.6054    4.9899    0.0000 H   0  0  0  0  0  0  0  0  0  0  0  0
    2.6178    3.3487    0.0000 H   0  0  0  0  0  0  0  0  0  0  0  0
    1.1773    2.0667    0.0000 C   0  0  0  0  0  0  0  0  0  0  0  0
    2.4473    1.3167    0.0000 C   0  0  0  0  0  0  0  0  0  0  0  0
    3.7500    2.0603    0.0000 H   0  0  0  0  0  0  0  0  0  0  0  0
    2.4473   -0.1733    0.0000 C   0  0  0  0  0  0  0  0  0  0  0  0
    1.2846    0.7744    0.0000 H   0  0  0  0  0  0  0  0  0  0  0  0
    3.9106    0.1566    0.0000 H   0  0  0  0  0  0  0  0  0  0  0  0
    1.2873   -1.0833    0.0000 C   0  0  1  0  0  0  0  0  0  0  0  0
    2.6361   -1.7395    0.0000 H   0  0  0  0  0  0  0  0  0  0  0  0
    1.2873   -2.5833    0.0000 C   0  0  1  0  0  0  0  0  0  0  0  0
    1.8000   -3.9929    0.0000 H   0  0  0  0  0  0  0  0  0  0  0  0
    3.2372   -2.2397    0.0000 C   0  0  0  0  0  0  0  0  0  0  0  0
    3.7504   -0.8302    0.0000 H   0  0  0  0  0  0  0  0  0  0  0  0
    4.7144   -2.5003    0.0000 H   0  0  0  0  0  0  0  0  0  0  0  0
    3.2371   -3.7397    0.0000 H   0  0  0  0  0  0  0  0  0  0  0  0
   -0.0127   -3.3333    0.0000 C   0  0  2  0  0  0  0  0  0  0  0  0
   -0.9793   -4.4803    0.0000 H   0  0  0  0  0  0  0  0  0  0  0  0
    0.9501   -4.4835    0.0000 O   0  0  0  0  0  0  0  0  0  0  0  0
    0.4353   -5.8925    0.0000 C   0  0  0  0  0  0  0  0  0  0  0  0
   -1.0422   -6.1511    0.0000 O   0  0  0  0  0  0  0  0  0  0  0  0
    1.3981   -7.0427    0.0000 C   0  0  0  0  0  0  0  0  0  0  0  0
    2.6962   -7.7943    0.0000 H   0  0  0  0  0  0  0  0  0  0  0  0
    2.3637   -5.8948    0.0000 H   0  0  0  0  0  0  0  0  0  0  0  0
    0.8833   -8.4516    0.0000 C   0  0  0  0  0  0  0  0  0  0  0  0
   -0.4148   -7.7000    0.0000 H   0  0  0  0  0  0  0  0  0  0  0  0
   -0.0823   -9.5995    0.0000 H   0  0  0  0  0  0  0  0  0  0  0  0
    1.8461   -9.6019    0.0000 C   0  0  0  0  0  0  0  0  0  0  0  0
    3.3236   -9.3432    0.0000 O   0  0  0  0  0  0  0  0  0  0  0  0
    1.3313  -11.0108    0.0000 O   0  0  0  0  0  0  0  0  0  0  0  0
    2.2941  -12.1610    0.0000 H   0  0  0  0  0  0  0  0  0  0  0  0
   -1.3027   -2.5833    0.0000 O   0  0  0  0  0  0  0  0  0  0  0  0
   -1.3027   -1.0833    0.0000 C   0  0  1  0  0  0  0  0  0  0  0  0
   -2.4775   -2.0160    0.0000 H   0  0  0  0  0  0  0  0  0  0  0  0
   -0.0127   -0.3233    0.0000 C   0  0  1  0  0  0  0  0  0  0  0  0
   -0.0727    1.2267    0.0000 C   0  0  1  0  0  0  0  0  0  0  0  0
   -1.4899    1.7184    0.0000 H   0  0  0  0  0  0  0  0  0  0  0  0
   -1.2727    2.2867    0.0000 C   0  0  0  0  0  0  0  0  0  0  0  0
   -0.0643    3.1754    0.0000 H   0  0  0  0  0  0  0  0  0  0  0  0
   -1.8857    3.6557    0.0000 H   0  0  0  0  0  0  0  0  0  0  0  0
   -2.7427    1.9767    0.0000 C   0  0  0  0  0  0  0  0  0  0  0  0
   -2.7246    3.4766    0.0000 H   0  0  0  0  0  0  0  0  0  0  0  0
   -4.2026    2.3215    0.0000 H   0  0  0  0  0  0  0  0  0  0  0  0
   -3.4027    0.6167    0.0000 C   0  0  2  0  0  0  0  0  0  0  0  0
   -4.9027    0.6257    0.0000 C   0  0  0  0  0  0  0  0  0  0  0  0
   -5.6449    1.9292    0.0000 H   0  0  0  0  0  0  0  0  0  0  0  0
   -6.3153    0.1211    0.0000 H   0  0  0  0  0  0  0  0  0  0  0  0
   -4.6511   -0.8531    0.0000 H   0  0  0  0  0  0  0  0  0  0  0  0
   -2.7627   -0.7433    0.0000 O   0  0  0  0  0  0  0  0  0  0  0  0
   -1.9827    1.0767    0.0000 O   0  0  0  0  0  0  0  0  0  0  0  0
   -1.3427    0.0067    0.0000 O   0  0  0  0  0  0  0  0  0  0  0  0
  1  2  1  0  0  0  0 
  1  3  1  0  0  0  0 
  1  4  1  0  0  0  0 
  1  5  1  0  0  0  0 
  5  6  2  0  0  0  0 
  6  7  1  0  0  0  0 
  6  8  1  0  0  0  0 
  8  9  1  0  0  0  0 
  8 10  1  0  0  0  0 
  8 11  1  0  0  0  0 
 11 12  1  6  0  0  0 
 11 13  1  0  0  0  0 
 13 14  1  6  0  0  0 
 13 15  1  1  0  0  0 
 15 16  1  0  0  0  0 
 15 17  1  0  0  0  0 
 15 18  1  0  0  0  0 
 13 19  1  0  0  0  0 
 19 20  1  1  0  0  0 
 19 21  1  6  0  0  0 
 21 22  1  0  0  0  0 
 22 23  2  0  0  0  0 
 22 24  1  0  0  0  0 
 24 25  1  0  0  0  0 
 24 26  1  0  0  0  0 
 24 27  1  0  0  0  0 
 27 28  1  0  0  0  0 
 27 29  1  0  0  0  0 
 27 30  1  0  0  0  0 
 30 31  2  0  0  0  0 
 30 32  1  0  0  0  0 
 32 33  1  0  0  0  0 
 19 34  1  0  0  0  0 
 34 35  1  0  0  0  0 
 35 36  1  1  0  0  0 
 37 35  1  1  0  0  0 
 11 37  1  0  0  0  0 
 37 38  1  0  0  0  0 
  5 38  1  0  0  0  0 
 38 39  1  6  0  0  0 
 38 40  1  0  0  0  0 
 40 41  1  0  0  0  0 
 40 42  1  0  0  0  0 
 40 43  1  0  0  0  0 
 43 44  1  0  0  0  0 
 43 45  1  0  0  0  0 
 43 46  1  0  0  0  0 
 46 47  1  0  0  0  0 
 47 48  1  0  0  0  0 
 47 49  1  0  0  0  0 
 47 50  1  0  0  0  0 
 46 51  1  1  0  0  0 
 35 51  1  0  0  0  0 
 46 52  1  0  0  0  0 
 52 53  1  0  0  0  0 
 37 53  1  6  0  0  0 
M  END
> <Rank>
31

> <Priority_score>
0.016

> <Reaction_type>
alkyl dehydrogenation

> <Parent_ID>
52

> <Parent_InChI>
InChI=1S/C19H28O8/c1-10-4-5-13-11(2)16(23-15(22)7-6-14(20)21)24-17-19(13)12(10)8-9-18(3,25-17)26-27-19/h10-13,16-17H,4-9H2,1-3H3,(H,20,21)

> <Parent_SMILES>
C[C@@H]1CC[C@H]2[C@@H](C)[C@H](OC(=O)CCC(=O)O)O[C@@H]3O[C@@]4(C)CC[C@@H]1[C@@]23OO4

$$$$
Molecule 52_metabolite 36
  CDK     0516241031

 53 56  0  0  0  0  0  0  0  0999 V2000
    2.1228    3.2312    0.0000 C   0  0  0  0  0  0  0  0  0  0  0  0
    3.6040    2.9946    0.0000 H   0  0  0  0  0  0  0  0  0  0  0  0
    0.8118    3.9601    0.0000 H   0  0  0  0  0  0  0  0  0  0  0  0
    2.6130    4.6488    0.0000 H   0  0  0  0  0  0  0  0  0  0  0  0
    0.8747    1.6941    0.0000 C   0  0  2  0  0  0  0  0  0  0  0  0
    1.5179    0.3389    0.0000 H   0  0  0  0  0  0  0  0  0  0  0  0
    2.1447    0.9441    0.0000 C   0  0  0  0  0  0  0  0  0  0  0  0
    3.6211    0.6788    0.0000 H   0  0  0  0  0  0  0  0  0  0  0  0
    2.6670    2.3502    0.0000 H   0  0  0  0  0  0  0  0  0  0  0  0
    2.1447   -0.5459    0.0000 C   0  0  0  0  0  0  0  0  0  0  0  0
    0.9820    0.4017    0.0000 H   0  0  0  0  0  0  0  0  0  0  0  0
    3.6080   -0.2160    0.0000 H   0  0  0  0  0  0  0  0  0  0  0  0
    0.9847   -1.4559    0.0000 C   0  0  1  0  0  0  0  0  0  0  0  0
    2.3336   -2.1122    0.0000 H   0  0  0  0  0  0  0  0  0  0  0  0
    0.9847   -2.9559    0.0000 C   0  0  1  0  0  0  0  0  0  0  0  0
    1.4974   -4.3656    0.0000 H   0  0  0  0  0  0  0  0  0  0  0  0
    2.9347   -2.6123    0.0000 C   0  0  0  0  0  0  0  0  0  0  0  0
    3.4479   -1.2028    0.0000 H   0  0  0  0  0  0  0  0  0  0  0  0
    4.4119   -2.8729    0.0000 H   0  0  0  0  0  0  0  0  0  0  0  0
    2.9345   -4.1123    0.0000 H   0  0  0  0  0  0  0  0  0  0  0  0
   -0.3153   -3.7059    0.0000 C   0  0  2  0  0  0  0  0  0  0  0  0
   -1.2819   -4.8529    0.0000 H   0  0  0  0  0  0  0  0  0  0  0  0
    0.6475   -4.8562    0.0000 O   0  0  0  0  0  0  0  0  0  0  0  0
    0.1327   -6.2651    0.0000 C   0  0  0  0  0  0  0  0  0  0  0  0
   -1.3448   -6.5238    0.0000 O   0  0  0  0  0  0  0  0  0  0  0  0
    1.0955   -7.4153    0.0000 C   0  0  0  0  0  0  0  0  0  0  0  0
    2.3936   -8.1669    0.0000 H   0  0  0  0  0  0  0  0  0  0  0  0
    2.0611   -6.2674    0.0000 H   0  0  0  0  0  0  0  0  0  0  0  0
    0.5808   -8.8242    0.0000 C   0  0  0  0  0  0  0  0  0  0  0  0
   -0.7174   -8.0727    0.0000 H   0  0  0  0  0  0  0  0  0  0  0  0
   -0.3848   -9.9721    0.0000 H   0  0  0  0  0  0  0  0  0  0  0  0
    1.5435   -9.9745    0.0000 C   0  0  0  0  0  0  0  0  0  0  0  0
    3.0211   -9.7158    0.0000 O   0  0  0  0  0  0  0  0  0  0  0  0
    1.0288  -11.3834    0.0000 O   0  0  0  0  0  0  0  0  0  0  0  0
    1.9916  -12.5336    0.0000 H   0  0  0  0  0  0  0  0  0  0  0  0
   -1.6053   -2.9559    0.0000 O   0  0  0  0  0  0  0  0  0  0  0  0
   -1.6053   -1.4559    0.0000 C   0  0  1  0  0  0  0  0  0  0  0  0
   -2.7801   -2.3886    0.0000 H   0  0  0  0  0  0  0  0  0  0  0  0
   -0.3153   -0.6959    0.0000 C   0  0  1  0  0  0  0  0  0  0  0  0
   -0.3753    0.8541    0.0000 C   0  0  1  0  0  0  0  0  0  0  0  0
   -0.2765    2.3508    0.0000 H   0  0  0  0  0  0  0  0  0  0  0  0
   -1.5753    1.9141    0.0000 C   0  0  0  0  0  0  0  0  0  0  0  0
   -1.1928    3.3645    0.0000 H   0  0  0  0  0  0  0  0  0  0  0  0
   -3.0453    1.6041    0.0000 C   0  0  0  0  0  0  0  0  0  0  0  0
   -3.9690    2.7859    0.0000 H   0  0  0  0  0  0  0  0  0  0  0  0
   -3.7053    0.2441    0.0000 C   0  0  2  0  0  0  0  0  0  0  0  0
   -5.2053    0.2530    0.0000 C   0  0  0  0  0  0  0  0  0  0  0  0
   -5.9475    1.5566    0.0000 H   0  0  0  0  0  0  0  0  0  0  0  0
   -6.6178   -0.2515    0.0000 H   0  0  0  0  0  0  0  0  0  0  0  0
   -4.9536   -1.2257    0.0000 H   0  0  0  0  0  0  0  0  0  0  0  0
   -3.0653   -1.1159    0.0000 O   0  0  0  0  0  0  0  0  0  0  0  0
   -2.2853    0.7041    0.0000 O   0  0  0  0  0  0  0  0  0  0  0  0
   -1.6453   -0.3659    0.0000 O   0  0  0  0  0  0  0  0  0  0  0  0
  1  2  1  0  0  0  0 
  1  3  1  0  0  0  0 
  1  4  1  0  0  0  0 
  1  5  1  0  0  0  0 
  5  6  1  1  0  0  0 
  5  7  1  6  0  0  0 
  7  8  1  0  0  0  0 
  7  9  1  0  0  0  0 
  7 10  1  0  0  0  0 
 10 11  1  0  0  0  0 
 10 12  1  0  0  0  0 
 10 13  1  0  0  0  0 
 13 14  1  6  0  0  0 
 13 15  1  0  0  0  0 
 15 16  1  6  0  0  0 
 15 17  1  1  0  0  0 
 17 18  1  0  0  0  0 
 17 19  1  0  0  0  0 
 17 20  1  0  0  0  0 
 15 21  1  0  0  0  0 
 21 22  1  1  0  0  0 
 21 23  1  6  0  0  0 
 23 24  1  0  0  0  0 
 24 25  2  0  0  0  0 
 24 26  1  0  0  0  0 
 26 27  1  0  0  0  0 
 26 28  1  0  0  0  0 
 26 29  1  0  0  0  0 
 29 30  1  0  0  0  0 
 29 31  1  0  0  0  0 
 29 32  1  0  0  0  0 
 32 33  2  0  0  0  0 
 32 34  1  0  0  0  0 
 34 35  1  0  0  0  0 
 21 36  1  0  0  0  0 
 36 37  1  0  0  0  0 
 37 38  1  1  0  0  0 
 39 37  1  1  0  0  0 
 13 39  1  0  0  0  0 
 39 40  1  0  0  0  0 
  5 40  1  0  0  0  0 
 40 41  1  6  0  0  0 
 40 42  1  0  0  0  0 
 42 43  1  0  0  0  0 
 42 44  2  0  0  0  0 
 44 45  1  0  0  0  0 
 44 46  1  0  0  0  0 
 46 47  1  0  0  0  0 
 47 48  1  0  0  0  0 
 47 49  1  0  0  0  0 
 47 50  1  0  0  0  0 
 46 51  1  1  0  0  0 
 37 51  1  0  0  0  0 
 46 52  1  0  0  0  0 
 52 53  1  0  0  0  0 
 39 53  1  6  0  0  0 
M  END
> <Rank>
36

> <Priority_score>
0.0144

> <Reaction_type>
alkyl dehydrogenation

> <Parent_ID>
52

> <Parent_InChI>
InChI=1S/C19H28O8/c1-10-4-5-13-11(2)16(23-15(22)7-6-14(20)21)24-17-19(13)12(10)8-9-18(3,25-17)26-27-19/h10-13,16-17H,4-9H2,1-3H3,(H,20,21)

> <Parent_SMILES>
C[C@@H]1CC[C@H]2[C@@H](C)[C@H](OC(=O)CCC(=O)O)O[C@@H]3O[C@@]4(C)CC[C@@H]1[C@@]23OO4

$$$$
Molecule 52_metabolite 37
  CDK     0516241031

 53 56  0  0  0  0  0  0  0  0999 V2000
    2.1228    3.2312    0.0000 C   0  0  0  0  0  0  0  0  0  0  0  0
    3.6040    2.9946    0.0000 H   0  0  0  0  0  0  0  0  0  0  0  0
    0.8118    3.9601    0.0000 H   0  0  0  0  0  0  0  0  0  0  0  0
    2.6130    4.6488    0.0000 H   0  0  0  0  0  0  0  0  0  0  0  0
    0.8747    1.6941    0.0000 C   0  0  2  0  0  0  0  0  0  0  0  0
   -0.1370    2.8015    0.0000 H   0  0  0  0  0  0  0  0  0  0  0  0
    2.1447    0.9441    0.0000 C   0  0  0  0  0  0  0  0  0  0  0  0
    3.6211    0.6788    0.0000 H   0  0  0  0  0  0  0  0  0  0  0  0
    2.6670    2.3502    0.0000 H   0  0  0  0  0  0  0  0  0  0  0  0
    2.1447   -0.5459    0.0000 C   0  0  0  0  0  0  0  0  0  0  0  0
    0.9820    0.4017    0.0000 H   0  0  0  0  0  0  0  0  0  0  0  0
    3.6080   -0.2160    0.0000 H   0  0  0  0  0  0  0  0  0  0  0  0
    0.9847   -1.4559    0.0000 C   0  0  1  0  0  0  0  0  0  0  0  0
    2.3336   -2.1122    0.0000 H   0  0  0  0  0  0  0  0  0  0  0  0
    0.9847   -2.9559    0.0000 C   0  0  1  0  0  0  0  0  0  0  0  0
    1.4974   -4.3656    0.0000 H   0  0  0  0  0  0  0  0  0  0  0  0
    2.9347   -2.6123    0.0000 C   0  0  0  0  0  0  0  0  0  0  0  0
    3.4479   -1.2028    0.0000 H   0  0  0  0  0  0  0  0  0  0  0  0
    4.4119   -2.8729    0.0000 H   0  0  0  0  0  0  0  0  0  0  0  0
    2.9345   -4.1123    0.0000 H   0  0  0  0  0  0  0  0  0  0  0  0
   -0.3153   -3.7059    0.0000 C   0  0  2  0  0  0  0  0  0  0  0  0
   -1.2819   -4.8529    0.0000 H   0  0  0  0  0  0  0  0  0  0  0  0
    0.6475   -4.8562    0.0000 O   0  0  0  0  0  0  0  0  0  0  0  0
    0.1327   -6.2651    0.0000 C   0  0  0  0  0  0  0  0  0  0  0  0
   -1.3448   -6.5238    0.0000 O   0  0  0  0  0  0  0  0  0  0  0  0
    1.0955   -7.4153    0.0000 C   0  0  0  0  0  0  0  0  0  0  0  0
    2.3936   -8.1669    0.0000 H   0  0  0  0  0  0  0  0  0  0  0  0
    2.0611   -6.2674    0.0000 H   0  0  0  0  0  0  0  0  0  0  0  0
    0.5808   -8.8242    0.0000 C   0  0  0  0  0  0  0  0  0  0  0  0
   -0.7174   -8.0727    0.0000 H   0  0  0  0  0  0  0  0  0  0  0  0
   -0.3848   -9.9721    0.0000 H   0  0  0  0  0  0  0  0  0  0  0  0
    1.5435   -9.9745    0.0000 C   0  0  0  0  0  0  0  0  0  0  0  0
    3.0211   -9.7158    0.0000 O   0  0  0  0  0  0  0  0  0  0  0  0
    1.0288  -11.3834    0.0000 O   0  0  0  0  0  0  0  0  0  0  0  0
    1.9916  -12.5336    0.0000 H   0  0  0  0  0  0  0  0  0  0  0  0
   -1.6053   -2.9559    0.0000 O   0  0  0  0  0  0  0  0  0  0  0  0
   -1.6053   -1.4559    0.0000 C   0  0  1  0  0  0  0  0  0  0  0  0
   -2.7801   -2.3886    0.0000 H   0  0  0  0  0  0  0  0  0  0  0  0
   -0.3153   -0.6959    0.0000 C   0  0  1  0  0  0  0  0  0  0  0  0
   -0.3753    0.8541    0.0000 C   0  0  0  0  0  0  0  0  0  0  0  0
   -1.5753    1.9141    0.0000 C   0  0  0  0  0  0  0  0  0  0  0  0
   -1.1928    3.3645    0.0000 H   0  0  0  0  0  0  0  0  0  0  0  0
   -3.0453    1.6041    0.0000 C   0  0  0  0  0  0  0  0  0  0  0  0
   -3.0272    3.1040    0.0000 H   0  0  0  0  0  0  0  0  0  0  0  0
   -4.5051    1.9489    0.0000 H   0  0  0  0  0  0  0  0  0  0  0  0
   -3.7053    0.2441    0.0000 C   0  0  2  0  0  0  0  0  0  0  0  0
   -5.2053    0.2530    0.0000 C   0  0  0  0  0  0  0  0  0  0  0  0
   -5.9475    1.5566    0.0000 H   0  0  0  0  0  0  0  0  0  0  0  0
   -6.6178   -0.2515    0.0000 H   0  0  0  0  0  0  0  0  0  0  0  0
   -4.9536   -1.2257    0.0000 H   0  0  0  0  0  0  0  0  0  0  0  0
   -3.0653   -1.1159    0.0000 O   0  0  0  0  0  0  0  0  0  0  0  0
   -2.2853    0.7041    0.0000 O   0  0  0  0  0  0  0  0  0  0  0  0
   -1.6453   -0.3659    0.0000 O   0  0  0  0  0  0  0  0  0  0  0  0
  1  2  1  0  0  0  0 
  1  3  1  0  0  0  0 
  1  4  1  0  0  0  0 
  1  5  1  0  0  0  0 
  5  6  1  1  0  0  0 
  5  7  1  0  0  0  0 
  7  8  1  0  0  0  0 
  7  9  1  0  0  0  0 
  7 10  1  0  0  0  0 
 10 11  1  0  0  0  0 
 10 12  1  0  0  0  0 
 10 13  1  0  0  0  0 
 13 14  1  6  0  0  0 
 13 15  1  0  0  0  0 
 15 16  1  6  0  0  0 
 15 17  1  1  0  0  0 
 17 18  1  0  0  0  0 
 17 19  1  0  0  0  0 
 17 20  1  0  0  0  0 
 15 21  1  0  0  0  0 
 21 22  1  1  0  0  0 
 21 23  1  6  0  0  0 
 23 24  1  0  0  0  0 
 24 25  2  0  0  0  0 
 24 26  1  0  0  0  0 
 26 27  1  0  0  0  0 
 26 28  1  0  0  0  0 
 26 29  1  0  0  0  0 
 29 30  1  0  0  0  0 
 29 31  1  0  0  0  0 
 29 32  1  0  0  0  0 
 32 33  2  0  0  0  0 
 32 34  1  0  0  0  0 
 34 35  1  0  0  0  0 
 21 36  1  0  0  0  0 
 36 37  1  0  0  0  0 
 37 38  1  1  0  0  0 
 37 39  1  0  0  0  0 
 13 39  1  0  0  0  0 
 39 40  1  1  0  0  0 
  5 40  1  6  0  0  0 
 40 41  2  0  0  0  0 
 41 42  1  0  0  0  0 
 41 43  1  0  0  0  0 
 43 44  1  0  0  0  0 
 43 45  1  0  0  0  0 
 43 46  1  0  0  0  0 
 46 47  1  0  0  0  0 
 47 48  1  0  0  0  0 
 47 49  1  0  0  0  0 
 47 50  1  0  0  0  0 
 46 51  1  1  0  0  0 
 37 51  1  0  0  0  0 
 46 52  1  0  0  0  0 
 52 53  1  0  0  0  0 
 39 53  1  6  0  0  0 
M  END
> <Rank>
37

> <Priority_score>
0.0104

> <Reaction_type>
alkyl dehydrogenation

> <Parent_ID>
52

> <Parent_InChI>
InChI=1S/C19H28O8/c1-10-4-5-13-11(2)16(23-15(22)7-6-14(20)21)24-17-19(13)12(10)8-9-18(3,25-17)26-27-19/h10-13,16-17H,4-9H2,1-3H3,(H,20,21)

> <Parent_SMILES>
C[C@@H]1CC[C@H]2[C@@H](C)[C@H](OC(=O)CCC(=O)O)O[C@@H]3O[C@@]4(C)CC[C@@H]1[C@@]23OO4

$$$$
Molecule 52_metabolite 38
  CDK     0516241031

 53 56  0  0  0  0  0  0  0  0999 V2000
    2.1991    1.8166    0.0000 C   0  0  0  0  0  0  0  0  0  0  0  0
    1.6634    3.2177    0.0000 H   0  0  0  0  0  0  0  0  0  0  0  0
    3.1817    0.6833    0.0000 H   0  0  0  0  0  0  0  0  0  0  0  0
    3.4859    2.5875    0.0000 H   0  0  0  0  0  0  0  0  0  0  0  0
    0.6485   -0.0931    0.0000 C   0  0  2  0  0  0  0  0  0  0  0  0
   -0.4725    2.6248    0.0000 H   0  0  0  0  0  0  0  0  0  0  0  0
    1.9185   -0.8431    0.0000 C   0  0  0  0  0  0  0  0  0  0  0  0
    3.2212   -0.0995    0.0000 H   0  0  0  0  0  0  0  0  0  0  0  0
    1.9185   -2.3331    0.0000 C   0  0  0  0  0  0  0  0  0  0  0  0
    3.2673   -2.9893    0.0000 H   0  0  0  0  0  0  0  0  0  0  0  0
    0.7585   -3.2431    0.0000 C   0  0  1  0  0  0  0  0  0  0  0  0
    2.1073   -3.8993    0.0000 H   0  0  0  0  0  0  0  0  0  0  0  0
    0.7585   -4.7431    0.0000 C   0  0  1  0  0  0  0  0  0  0  0  0
    1.2712   -6.1527    0.0000 H   0  0  0  0  0  0  0  0  0  0  0  0
    3.1811   -5.1705    0.0000 C   0  0  0  0  0  0  0  0  0  0  0  0
    4.1454   -4.0216    0.0000 H   0  0  0  0  0  0  0  0  0  0  0  0
    4.4800   -5.9207    0.0000 H   0  0  0  0  0  0  0  0  0  0  0  0
    2.6679   -6.5800    0.0000 H   0  0  0  0  0  0  0  0  0  0  0  0
   -0.5415   -5.4931    0.0000 C   0  0  2  0  0  0  0  0  0  0  0  0
   -1.5082   -6.6401    0.0000 H   0  0  0  0  0  0  0  0  0  0  0  0
    0.4212   -6.6433    0.0000 O   0  0  0  0  0  0  0  0  0  0  0  0
   -0.0935   -8.0522    0.0000 C   0  0  0  0  0  0  0  0  0  0  0  0
   -1.5710   -8.3109    0.0000 O   0  0  0  0  0  0  0  0  0  0  0  0
    0.8693   -9.2025    0.0000 C   0  0  0  0  0  0  0  0  0  0  0  0
    2.1674   -9.9541    0.0000 H   0  0  0  0  0  0  0  0  0  0  0  0
    1.8349   -8.0546    0.0000 H   0  0  0  0  0  0  0  0  0  0  0  0
    0.3545  -10.6114    0.0000 C   0  0  0  0  0  0  0  0  0  0  0  0
   -0.9436   -9.8598    0.0000 H   0  0  0  0  0  0  0  0  0  0  0  0
   -0.6111  -11.7593    0.0000 H   0  0  0  0  0  0  0  0  0  0  0  0
    1.3173  -11.7616    0.0000 C   0  0  0  0  0  0  0  0  0  0  0  0
    2.7948  -11.5030    0.0000 O   0  0  0  0  0  0  0  0  0  0  0  0
    0.8025  -13.1706    0.0000 O   0  0  0  0  0  0  0  0  0  0  0  0
    1.7653  -14.3208    0.0000 H   0  0  0  0  0  0  0  0  0  0  0  0
   -1.8315   -4.7431    0.0000 O   0  0  0  0  0  0  0  0  0  0  0  0
   -1.8315   -3.2431    0.0000 C   0  0  1  0  0  0  0  0  0  0  0  0
   -3.0063   -4.1757    0.0000 H   0  0  0  0  0  0  0  0  0  0  0  0
   -0.5415   -2.4831    0.0000 C   0  0  1  0  0  0  0  0  0  0  0  0
   -0.6015   -0.9331    0.0000 C   0  0  1  0  0  0  0  0  0  0  0  0
   -2.0187   -0.4414    0.0000 H   0  0  0  0  0  0  0  0  0  0  0  0
   -1.8015    0.1269    0.0000 C   0  0  0  0  0  0  0  0  0  0  0  0
   -0.5931    1.0156    0.0000 H   0  0  0  0  0  0  0  0  0  0  0  0
   -2.4145    1.4959    0.0000 H   0  0  0  0  0  0  0  0  0  0  0  0
   -3.2715   -0.1831    0.0000 C   0  0  0  0  0  0  0  0  0  0  0  0
   -3.2535    1.3168    0.0000 H   0  0  0  0  0  0  0  0  0  0  0  0
   -4.7314    0.1617    0.0000 H   0  0  0  0  0  0  0  0  0  0  0  0
   -3.9315   -1.5431    0.0000 C   0  0  2  0  0  0  0  0  0  0  0  0
   -5.4315   -1.5341    0.0000 C   0  0  0  0  0  0  0  0  0  0  0  0
   -6.1737   -0.2306    0.0000 H   0  0  0  0  0  0  0  0  0  0  0  0
   -6.8441   -2.0387    0.0000 H   0  0  0  0  0  0  0  0  0  0  0  0
   -5.1799   -3.0129    0.0000 H   0  0  0  0  0  0  0  0  0  0  0  0
   -3.2915   -2.9031    0.0000 O   0  0  0  0  0  0  0  0  0  0  0  0
   -2.5115   -1.0831    0.0000 O   0  0  0  0  0  0  0  0  0  0  0  0
   -1.8715   -2.1531    0.0000 O   0  0  0  0  0  0  0  0  0  0  0  0
  1  2  1  0  0  0  0 
  1  3  1  0  0  0  0 
  1  4  1  0  0  0  0 
  5  1  1  6  0  0  0 
  5  6  1  1  0  0  0 
  5  7  1  0  0  0  0 
  7  8  1  0  0  0  0 
  7  9  2  0  0  0  0 
  9 10  1  0  0  0  0 
  9 11  1  0  0  0  0 
 11 12  1  6  0  0  0 
 11 13  1  0  0  0  0 
 13 14  1  6  0  0  0 
 13 15  1  1  0  0  0 
 15 16  1  0  0  0  0 
 15 17  1  0  0  0  0 
 15 18  1  0  0  0  0 
 13 19  1  0  0  0  0 
 19 20  1  1  0  0  0 
 19 21  1  6  0  0  0 
 21 22  1  0  0  0  0 
 22 23  2  0  0  0  0 
 22 24  1  0  0  0  0 
 24 25  1  0  0  0  0 
 24 26  1  0  0  0  0 
 24 27  1  0  0  0  0 
 27 28  1  0  0  0  0 
 27 29  1  0  0  0  0 
 27 30  1  0  0  0  0 
 30 31  2  0  0  0  0 
 30 32  1  0  0  0  0 
 32 33  1  0  0  0  0 
 19 34  1  0  0  0  0 
 34 35  1  0  0  0  0 
 35 36  1  1  0  0  0 
 37 35  1  1  0  0  0 
 11 37  1  0  0  0  0 
 37 38  1  0  0  0  0 
  5 38  1  0  0  0  0 
 38 39  1  6  0  0  0 
 38 40  1  0  0  0  0 
 40 41  1  0  0  0  0 
 40 42  1  0  0  0  0 
 40 43  1  0  0  0  0 
 43 44  1  0  0  0  0 
 43 45  1  0  0  0  0 
 43 46  1  0  0  0  0 
 46 47  1  0  0  0  0 
 47 48  1  0  0  0  0 
 47 49  1  0  0  0  0 
 47 50  1  0  0  0  0 
 46 51  1  1  0  0  0 
 35 51  1  0  0  0  0 
 46 52  1  0  0  0  0 
 52 53  1  0  0  0  0 
 37 53  1  6  0  0  0 
M  END
> <Rank>
38

> <Priority_score>
0.008

> <Reaction_type>
alkyl dehydrogenation

> <Parent_ID>
52

> <Parent_InChI>
InChI=1S/C19H28O8/c1-10-4-5-13-11(2)16(23-15(22)7-6-14(20)21)24-17-19(13)12(10)8-9-18(3,25-17)26-27-19/h10-13,16-17H,4-9H2,1-3H3,(H,20,21)

> <Parent_SMILES>
C[C@@H]1CC[C@H]2[C@@H](C)[C@H](OC(=O)CCC(=O)O)O[C@@H]3O[C@@]4(C)CC[C@@H]1[C@@]23OO4

$$$$
Molecule 52_metabolite 39
  CDK     0516241031

 56 59  0  0  0  0  0  0  0  0999 V2000
    1.7476    3.0042    0.0000 C   0  0  0  0  0  0  0  0  0  0  0  0
    1.2119    4.4053    0.0000 H   0  0  0  0  0  0  0  0  0  0  0  0
    2.7302    1.8708    0.0000 H   0  0  0  0  0  0  0  0  0  0  0  0
    3.0343    3.7750    0.0000 H   0  0  0  0  0  0  0  0  0  0  0  0
    0.1969    1.0944    0.0000 C   0  0  2  0  0  0  0  0  0  0  0  0
   -0.9240    3.8124    0.0000 H   0  0  0  0  0  0  0  0  0  0  0  0
    1.4669    0.3444    0.0000 C   0  0  0  0  0  0  0  0  0  0  0  0
    2.9433    0.0791    0.0000 H   0  0  0  0  0  0  0  0  0  0  0  0
    1.9892    1.7506    0.0000 H   0  0  0  0  0  0  0  0  0  0  0  0
    1.4669   -1.1456    0.0000 C   0  0  0  0  0  0  0  0  0  0  0  0
    0.3042   -0.1979    0.0000 H   0  0  0  0  0  0  0  0  0  0  0  0
    2.9302   -0.8157    0.0000 H   0  0  0  0  0  0  0  0  0  0  0  0
    0.3069   -2.0556    0.0000 C   0  0  1  0  0  0  0  0  0  0  0  0
    1.6558   -2.7118    0.0000 H   0  0  0  0  0  0  0  0  0  0  0  0
    0.3069   -3.5556    0.0000 C   0  0  1  0  0  0  0  0  0  0  0  0
    0.8197   -4.9652    0.0000 C   0  0  0  0  0  0  0  0  0  0  0  0
   -0.1448   -6.1141    0.0000 H   0  0  0  0  0  0  0  0  0  0  0  0
    1.7836   -6.1145    0.0000 H   0  0  0  0  0  0  0  0  0  0  0  0
    2.1189   -4.2155    0.0000 H   0  0  0  0  0  0  0  0  0  0  0  0
   -0.9931   -4.3056    0.0000 C   0  0  2  0  0  0  0  0  0  0  0  0
   -1.9597   -5.4526    0.0000 H   0  0  0  0  0  0  0  0  0  0  0  0
   -0.4861   -7.2015    0.0000 O   0  0  0  0  0  0  0  0  0  0  0  0
   -1.6363   -8.1643    0.0000 C   0  0  0  0  0  0  0  0  0  0  0  0
   -3.0452   -7.6495    0.0000 O   0  0  0  0  0  0  0  0  0  0  0  0
   -1.3777   -9.6418    0.0000 C   0  0  0  0  0  0  0  0  0  0  0  0
   -0.6293  -10.9418    0.0000 H   0  0  0  0  0  0  0  0  0  0  0  0
    0.0325   -9.1305    0.0000 H   0  0  0  0  0  0  0  0  0  0  0  0
   -2.5279  -10.6046    0.0000 C   0  0  0  0  0  0  0  0  0  0  0  0
   -3.2763   -9.3046    0.0000 H   0  0  0  0  0  0  0  0  0  0  0  0
   -3.9381  -11.1159    0.0000 H   0  0  0  0  0  0  0  0  0  0  0  0
   -2.2693  -12.0821    0.0000 C   0  0  0  0  0  0  0  0  0  0  0  0
   -0.8603  -12.5969    0.0000 O   0  0  0  0  0  0  0  0  0  0  0  0
   -3.4195  -13.0449    0.0000 O   0  0  0  0  0  0  0  0  0  0  0  0
   -3.1608  -14.5224    0.0000 H   0  0  0  0  0  0  0  0  0  0  0  0
   -2.2831   -3.5556    0.0000 O   0  0  0  0  0  0  0  0  0  0  0  0
   -2.2831   -2.0556    0.0000 C   0  0  1  0  0  0  0  0  0  0  0  0
   -3.4579   -2.9882    0.0000 H   0  0  0  0  0  0  0  0  0  0  0  0
   -0.9931   -1.2956    0.0000 C   0  0  1  0  0  0  0  0  0  0  0  0
   -1.0531    0.2544    0.0000 C   0  0  1  0  0  0  0  0  0  0  0  0
   -2.4702    0.7461    0.0000 H   0  0  0  0  0  0  0  0  0  0  0  0
   -2.2531    1.3144    0.0000 C   0  0  0  0  0  0  0  0  0  0  0  0
   -1.0447    2.2032    0.0000 H   0  0  0  0  0  0  0  0  0  0  0  0
   -2.8661    2.6835    0.0000 H   0  0  0  0  0  0  0  0  0  0  0  0
   -3.7231    1.0044    0.0000 C   0  0  0  0  0  0  0  0  0  0  0  0
   -3.7050    2.5043    0.0000 H   0  0  0  0  0  0  0  0  0  0  0  0
   -5.1829    1.3492    0.0000 H   0  0  0  0  0  0  0  0  0  0  0  0
   -4.3831   -0.3556    0.0000 C   0  0  2  0  0  0  0  0  0  0  0  0
   -5.8830   -0.3466    0.0000 C   0  0  0  0  0  0  0  0  0  0  0  0
   -6.6253    0.9569    0.0000 H   0  0  0  0  0  0  0  0  0  0  0  0
   -7.2956   -0.8512    0.0000 H   0  0  0  0  0  0  0  0  0  0  0  0
   -5.6314   -1.8253    0.0000 H   0  0  0  0  0  0  0  0  0  0  0  0
   -3.7431   -1.7156    0.0000 O   0  0  0  0  0  0  0  0  0  0  0  0
   -2.9631    0.1044    0.0000 O   0  0  0  0  0  0  0  0  0  0  0  0
   -2.3231   -0.9656    0.0000 O   0  0  0  0  0  0  0  0  0  0  0  0
    2.2569   -3.2119    0.0000 O   0  0  0  0  0  0  0  0  0  0  0  0
    3.2209   -4.3611    0.0000 H   0  0  0  0  0  0  0  0  0  0  0  0
  1  2  1  0  0  0  0 
  1  3  1  0  0  0  0 
  1  4  1  0  0  0  0 
  5  1  1  6  0  0  0 
  5  6  1  1  0  0  0 
  5  7  1  0  0  0  0 
  7  8  1  0  0  0  0 
  7  9  1  0  0  0  0 
  7 10  1  0  0  0  0 
 10 11  1  0  0  0  0 
 10 12  1  0  0  0  0 
 10 13  1  0  0  0  0 
 13 14  1  6  0  0  0 
 13 15  1  0  0  0  0 
 15 16  1  1  0  0  0 
 16 17  1  0  0  0  0 
 16 18  1  0  0  0  0 
 16 19  1  0  0  0  0 
 15 20  1  0  0  0  0 
 20 21  1  1  0  0  0 
 20 22  1  6  0  0  0 
 22 23  1  0  0  0  0 
 23 24  2  0  0  0  0 
 23 25  1  0  0  0  0 
 25 26  1  0  0  0  0 
 25 27  1  0  0  0  0 
 25 28  1  0  0  0  0 
 28 29  1  0  0  0  0 
 28 30  1  0  0  0  0 
 28 31  1  0  0  0  0 
 31 32  2  0  0  0  0 
 31 33  1  0  0  0  0 
 33 34  1  0  0  0  0 
 20 35  1  0  0  0  0 
 35 36  1  0  0  0  0 
 36 37  1  1  0  0  0 
 38 36  1  1  0  0  0 
 13 38  1  0  0  0  0 
 38 39  1  0  0  0  0 
  5 39  1  0  0  0  0 
 39 40  1  6  0  0  0 
 39 41  1  0  0  0  0 
 41 42  1  0  0  0  0 
 41 43  1  0  0  0  0 
 41 44  1  0  0  0  0 
 44 45  1  0  0  0  0 
 44 46  1  0  0  0  0 
 44 47  1  0  0  0  0 
 47 48  1  0  0  0  0 
 48 49  1  0  0  0  0 
 48 50  1  0  0  0  0 
 48 51  1  0  0  0  0 
 47 52  1  1  0  0  0 
 36 52  1  0  0  0  0 
 47 53  1  0  0  0  0 
 53 54  1  0  0  0  0 
 38 54  1  6  0  0  0 
 15 55  1  6  0  0  0 
 55 56  1  0  0  0  0 
M  END
> <Rank>
38

> <Priority_score>
0.008

> <Reaction_type>
aliphatic hydroxylation

> <Parent_ID>
52

> <Parent_InChI>
InChI=1S/C19H28O8/c1-10-4-5-13-11(2)16(23-15(22)7-6-14(20)21)24-17-19(13)12(10)8-9-18(3,25-17)26-27-19/h10-13,16-17H,4-9H2,1-3H3,(H,20,21)

> <Parent_SMILES>
C[C@@H]1CC[C@H]2[C@@H](C)[C@H](OC(=O)CCC(=O)O)O[C@@H]3O[C@@]4(C)CC[C@@H]1[C@@]23OO4

$$$$
Molecule 52_metabolite 40
  CDK     0516241031

 53 56  0  0  0  0  0  0  0  0999 V2000
    2.9615    2.4270    0.0000 C   0  0  0  0  0  0  0  0  0  0  0  0
    2.4258    3.8281    0.0000 H   0  0  0  0  0  0  0  0  0  0  0  0
    3.9441    1.2936    0.0000 H   0  0  0  0  0  0  0  0  0  0  0  0
    4.2483    3.1978    0.0000 H   0  0  0  0  0  0  0  0  0  0  0  0
    1.4109    0.5173    0.0000 C   0  0  2  0  0  0  0  0  0  0  0  0
    0.4730    2.7914    0.0000 H   0  0  0  0  0  0  0  0  0  0  0  0
    2.6809   -0.2327    0.0000 C   0  0  0  0  0  0  0  0  0  0  0  0
    4.1572   -0.4981    0.0000 H   0  0  0  0  0  0  0  0  0  0  0  0
    3.2032    1.1734    0.0000 H   0  0  0  0  0  0  0  0  0  0  0  0
    2.6809   -1.7227    0.0000 C   0  0  0  0  0  0  0  0  0  0  0  0
    1.5182   -0.7751    0.0000 H   0  0  0  0  0  0  0  0  0  0  0  0
    4.1442   -1.3929    0.0000 H   0  0  0  0  0  0  0  0  0  0  0  0
    1.5209   -2.6327    0.0000 C   0  0  1  0  0  0  0  0  0  0  0  0
    2.8697   -3.2890    0.0000 H   0  0  0  0  0  0  0  0  0  0  0  0
    1.5209   -4.1327    0.0000 C   0  0  0  0  0  0  0  0  0  0  0  0
    0.2209   -4.8827    0.0000 C   0  0  0  0  0  0  0  0  0  0  0  0
    0.2184   -6.3827    0.0000 O   0  0  0  0  0  0  0  0  0  0  0  0
   -1.0819   -7.1306    0.0000 C   0  0  0  0  0  0  0  0  0  0  0  0
   -2.3797   -6.3784    0.0000 O   0  0  0  0  0  0  0  0  0  0  0  0
   -1.0844   -8.6306    0.0000 C   0  0  0  0  0  0  0  0  0  0  0  0
   -0.5738  -10.0410    0.0000 H   0  0  0  0  0  0  0  0  0  0  0  0
    0.3932   -8.3726    0.0000 H   0  0  0  0  0  0  0  0  0  0  0  0
   -2.3847   -9.3784    0.0000 C   0  0  0  0  0  0  0  0  0  0  0  0
   -2.8954   -7.9680    0.0000 H   0  0  0  0  0  0  0  0  0  0  0  0
   -3.8624   -9.6364    0.0000 H   0  0  0  0  0  0  0  0  0  0  0  0
   -2.3872  -10.8784    0.0000 C   0  0  0  0  0  0  0  0  0  0  0  0
   -1.0894  -11.6306    0.0000 O   0  0  0  0  0  0  0  0  0  0  0  0
   -3.6875  -11.6262    0.0000 O   0  0  0  0  0  0  0  0  0  0  0  0
   -3.6900  -13.1262    0.0000 H   0  0  0  0  0  0  0  0  0  0  0  0
   -1.0691   -4.1327    0.0000 O   0  0  0  0  0  0  0  0  0  0  0  0
   -1.0691   -2.6327    0.0000 C   0  0  1  0  0  0  0  0  0  0  0  0
   -2.2439   -3.5654    0.0000 H   0  0  0  0  0  0  0  0  0  0  0  0
    0.2209   -1.8727    0.0000 C   0  0  1  0  0  0  0  0  0  0  0  0
    0.1609   -0.3227    0.0000 C   0  0  1  0  0  0  0  0  0  0  0  0
   -1.2562    0.1689    0.0000 H   0  0  0  0  0  0  0  0  0  0  0  0
   -1.0391    0.7373    0.0000 C   0  0  0  0  0  0  0  0  0  0  0  0
    0.1693    1.6260    0.0000 H   0  0  0  0  0  0  0  0  0  0  0  0
   -1.6521    2.1063    0.0000 H   0  0  0  0  0  0  0  0  0  0  0  0
   -2.5091    0.4273    0.0000 C   0  0  0  0  0  0  0  0  0  0  0  0
   -2.4910    1.9271    0.0000 H   0  0  0  0  0  0  0  0  0  0  0  0
   -3.9689    0.7720    0.0000 H   0  0  0  0  0  0  0  0  0  0  0  0
   -3.1691   -0.9327    0.0000 C   0  0  2  0  0  0  0  0  0  0  0  0
   -4.6691   -0.9238    0.0000 C   0  0  0  0  0  0  0  0  0  0  0  0
   -5.4113    0.3797    0.0000 H   0  0  0  0  0  0  0  0  0  0  0  0
   -6.0817   -1.4284    0.0000 H   0  0  0  0  0  0  0  0  0  0  0  0
   -4.4175   -2.4025    0.0000 H   0  0  0  0  0  0  0  0  0  0  0  0
   -2.5291   -2.2927    0.0000 O   0  0  0  0  0  0  0  0  0  0  0  0
   -1.7491   -0.4727    0.0000 O   0  0  0  0  0  0  0  0  0  0  0  0
   -1.1091   -1.5427    0.0000 O   0  0  0  0  0  0  0  0  0  0  0  0
    2.8198   -4.8830    0.0000 C   0  0  0  0  0  0  0  0  0  0  0  0
    4.1190   -4.1332    0.0000 H   0  0  0  0  0  0  0  0  0  0  0  0
    1.8554   -6.0319    0.0000 H   0  0  0  0  0  0  0  0  0  0  0  0
    3.7838   -6.0322    0.0000 H   0  0  0  0  0  0  0  0  0  0  0  0
  1  2  1  0  0  0  0 
  1  3  1  0  0  0  0 
  1  4  1  0  0  0  0 
  5  1  1  6  0  0  0 
  5  6  1  1  0  0  0 
  5  7  1  0  0  0  0 
  7  8  1  0  0  0  0 
  7  9  1  0  0  0  0 
  7 10  1  0  0  0  0 
 10 11  1  0  0  0  0 
 10 12  1  0  0  0  0 
 10 13  1  0  0  0  0 
 13 14  1  6  0  0  0 
 13 15  1  0  0  0  0 
 15 16  2  0  0  0  0 
 16 17  1  0  0  0  0 
 17 18  1  0  0  0  0 
 18 19  2  0  0  0  0 
 18 20  1  0  0  0  0 
 20 21  1  0  0  0  0 
 20 22  1  0  0  0  0 
 20 23  1  0  0  0  0 
 23 24  1  0  0  0  0 
 23 25  1  0  0  0  0 
 23 26  1  0  0  0  0 
 26 27  2  0  0  0  0 
 26 28  1  0  0  0  0 
 28 29  1  0  0  0  0 
 16 30  1  0  0  0  0 
 30 31  1  0  0  0  0 
 31 32  1  1  0  0  0 
 33 31  1  1  0  0  0 
 13 33  1  0  0  0  0 
 33 34  1  0  0  0  0 
  5 34  1  0  0  0  0 
 34 35  1  6  0  0  0 
 34 36  1  0  0  0  0 
 36 37  1  0  0  0  0 
 36 38  1  0  0  0  0 
 36 39  1  0  0  0  0 
 39 40  1  0  0  0  0 
 39 41  1  0  0  0  0 
 39 42  1  0  0  0  0 
 42 43  1  0  0  0  0 
 43 44  1  0  0  0  0 
 43 45  1  0  0  0  0 
 43 46  1  0  0  0  0 
 42 47  1  1  0  0  0 
 31 47  1  0  0  0  0 
 42 48  1  0  0  0  0 
 48 49  1  0  0  0  0 
 33 49  1  6  0  0  0 
 15 50  1  0  0  0  0 
 50 51  1  0  0  0  0 
 50 52  1  0  0  0  0 
 50 53  1  0  0  0  0 
M  END
> <Rank>
40

> <Priority_score>
0.007111527208894091

> <Reaction_type>
alkyl dehydrogenation

> <Parent_ID>
52

> <Parent_InChI>
InChI=1S/C19H28O8/c1-10-4-5-13-11(2)16(23-15(22)7-6-14(20)21)24-17-19(13)12(10)8-9-18(3,25-17)26-27-19/h10-13,16-17H,4-9H2,1-3H3,(H,20,21)

> <Parent_SMILES>
C[C@@H]1CC[C@H]2[C@@H](C)[C@H](OC(=O)CCC(=O)O)O[C@@H]3O[C@@]4(C)CC[C@@H]1[C@@]23OO4

$$$$
Molecule 52_metabolite 41
  CDK     0516241031

 53 56  0  0  0  0  0  0  0  0999 V2000
    2.5459    2.6671    0.0000 C   0  0  0  0  0  0  0  0  0  0  0  0
    2.0102    4.0681    0.0000 H   0  0  0  0  0  0  0  0  0  0  0  0
    3.5285    1.5337    0.0000 H   0  0  0  0  0  0  0  0  0  0  0  0
    3.8327    3.4379    0.0000 H   0  0  0  0  0  0  0  0  0  0  0  0
    0.9952    0.7573    0.0000 C   0  0  2  0  0  0  0  0  0  0  0  0
    0.0573    3.0315    0.0000 H   0  0  0  0  0  0  0  0  0  0  0  0
    2.2652    0.0073    0.0000 C   0  0  0  0  0  0  0  0  0  0  0  0
    3.7416   -0.2580    0.0000 H   0  0  0  0  0  0  0  0  0  0  0  0
    2.7875    1.4135    0.0000 H   0  0  0  0  0  0  0  0  0  0  0  0
    2.2652   -1.4827    0.0000 C   0  0  0  0  0  0  0  0  0  0  0  0
    2.9089   -2.8376    0.0000 H   0  0  0  0  0  0  0  0  0  0  0  0
    3.7285   -1.1528    0.0000 H   0  0  0  0  0  0  0  0  0  0  0  0
    1.1052   -2.3927    0.0000 C   0  0  0  0  0  0  0  0  0  0  0  0
    1.1052   -3.8927    0.0000 C   0  0  0  0  0  0  0  0  0  0  0  0
    2.8198   -4.8830    0.0000 C   0  0  0  0  0  0  0  0  0  0  0  0
    4.1190   -4.1332    0.0000 H   0  0  0  0  0  0  0  0  0  0  0  0
    3.7838   -6.0322    0.0000 H   0  0  0  0  0  0  0  0  0  0  0  0
    1.8554   -6.0319    0.0000 H   0  0  0  0  0  0  0  0  0  0  0  0
   -0.1948   -4.6427    0.0000 C   0  0  2  0  0  0  0  0  0  0  0  0
   -1.1614   -5.7897    0.0000 H   0  0  0  0  0  0  0  0  0  0  0  0
    0.7680   -5.7929    0.0000 O   0  0  0  0  0  0  0  0  0  0  0  0
    0.2533   -7.2018    0.0000 C   0  0  0  0  0  0  0  0  0  0  0  0
   -1.2243   -7.4605    0.0000 O   0  0  0  0  0  0  0  0  0  0  0  0
    1.2160   -8.3521    0.0000 C   0  0  0  0  0  0  0  0  0  0  0  0
    2.5142   -9.1037    0.0000 H   0  0  0  0  0  0  0  0  0  0  0  0
    2.1816   -7.2042    0.0000 H   0  0  0  0  0  0  0  0  0  0  0  0
    0.7013   -9.7610    0.0000 C   0  0  0  0  0  0  0  0  0  0  0  0
   -0.5968   -9.0094    0.0000 H   0  0  0  0  0  0  0  0  0  0  0  0
   -0.2643  -10.9089    0.0000 H   0  0  0  0  0  0  0  0  0  0  0  0
    1.6641  -10.9112    0.0000 C   0  0  0  0  0  0  0  0  0  0  0  0
    3.1416  -10.6526    0.0000 O   0  0  0  0  0  0  0  0  0  0  0  0
    1.1493  -12.3201    0.0000 O   0  0  0  0  0  0  0  0  0  0  0  0
    2.1121  -13.4704    0.0000 H   0  0  0  0  0  0  0  0  0  0  0  0
   -1.4848   -3.8927    0.0000 O   0  0  0  0  0  0  0  0  0  0  0  0
   -1.4848   -2.3927    0.0000 C   0  0  1  0  0  0  0  0  0  0  0  0
   -2.6596   -3.3253    0.0000 H   0  0  0  0  0  0  0  0  0  0  0  0
   -0.1948   -1.6327    0.0000 C   0  0  1  0  0  0  0  0  0  0  0  0
   -0.2548   -0.0827    0.0000 C   0  0  1  0  0  0  0  0  0  0  0  0
   -1.6719    0.4090    0.0000 H   0  0  0  0  0  0  0  0  0  0  0  0
   -1.4548    0.9773    0.0000 C   0  0  0  0  0  0  0  0  0  0  0  0
   -0.2464    1.8660    0.0000 H   0  0  0  0  0  0  0  0  0  0  0  0
   -2.0677    2.3464    0.0000 H   0  0  0  0  0  0  0  0  0  0  0  0
   -2.9248    0.6673    0.0000 C   0  0  0  0  0  0  0  0  0  0  0  0
   -2.9067    2.1672    0.0000 H   0  0  0  0  0  0  0  0  0  0  0  0
   -4.3846    1.0121    0.0000 H   0  0  0  0  0  0  0  0  0  0  0  0
   -3.5848   -0.6927    0.0000 C   0  0  2  0  0  0  0  0  0  0  0  0
   -5.0847   -0.6837    0.0000 C   0  0  0  0  0  0  0  0  0  0  0  0
   -5.8269    0.6198    0.0000 H   0  0  0  0  0  0  0  0  0  0  0  0
   -6.4973   -1.1883    0.0000 H   0  0  0  0  0  0  0  0  0  0  0  0
   -4.8331   -2.1624    0.0000 H   0  0  0  0  0  0  0  0  0  0  0  0
   -2.9448   -2.0527    0.0000 O   0  0  0  0  0  0  0  0  0  0  0  0
   -2.1648   -0.2327    0.0000 O   0  0  0  0  0  0  0  0  0  0  0  0
   -1.5248   -1.3027    0.0000 O   0  0  0  0  0  0  0  0  0  0  0  0
  1  2  1  0  0  0  0 
  1  3  1  0  0  0  0 
  1  4  1  0  0  0  0 
  5  1  1  6  0  0  0 
  5  6  1  1  0  0  0 
  5  7  1  0  0  0  0 
  7  8  1  0  0  0  0 
  7  9  1  0  0  0  0 
  7 10  1  0  0  0  0 
 10 11  1  0  0  0  0 
 10 12  1  0  0  0  0 
 10 13  1  0  0  0  0 
 13 14  2  0  0  0  0 
 14 15  1  0  0  0  0 
 15 16  1  0  0  0  0 
 15 17  1  0  0  0  0 
 15 18  1  0  0  0  0 
 14 19  1  0  0  0  0 
 19 20  1  1  0  0  0 
 19 21  1  6  0  0  0 
 21 22  1  0  0  0  0 
 22 23  2  0  0  0  0 
 22 24  1  0  0  0  0 
 24 25  1  0  0  0  0 
 24 26  1  0  0  0  0 
 24 27  1  0  0  0  0 
 27 28  1  0  0  0  0 
 27 29  1  0  0  0  0 
 27 30  1  0  0  0  0 
 30 31  2  0  0  0  0 
 30 32  1  0  0  0  0 
 32 33  1  0  0  0  0 
 19 34  1  0  0  0  0 
 34 35  1  0  0  0  0 
 35 36  1  1  0  0  0 
 37 35  1  1  0  0  0 
 13 37  1  0  0  0  0 
 37 38  1  0  0  0  0 
  5 38  1  0  0  0  0 
 38 39  1  6  0  0  0 
 38 40  1  0  0  0  0 
 40 41  1  0  0  0  0 
 40 42  1  0  0  0  0 
 40 43  1  0  0  0  0 
 43 44  1  0  0  0  0 
 43 45  1  0  0  0  0 
 43 46  1  0  0  0  0 
 46 47  1  0  0  0  0 
 47 48  1  0  0  0  0 
 47 49  1  0  0  0  0 
 47 50  1  0  0  0  0 
 46 51  1  1  0  0  0 
 35 51  1  0  0  0  0 
 46 52  1  0  0  0  0 
 52 53  1  0  0  0  0 
 37 53  1  6  0  0  0 
M  END
> <Rank>
41

> <Priority_score>
0.004

> <Reaction_type>
alkyl dehydrogenation

> <Parent_ID>
52

> <Parent_InChI>
InChI=1S/C19H28O8/c1-10-4-5-13-11(2)16(23-15(22)7-6-14(20)21)24-17-19(13)12(10)8-9-18(3,25-17)26-27-19/h10-13,16-17H,4-9H2,1-3H3,(H,20,21)

> <Parent_SMILES>
C[C@@H]1CC[C@H]2[C@@H](C)[C@H](OC(=O)CCC(=O)O)O[C@@H]3O[C@@]4(C)CC[C@@H]1[C@@]23OO4

$$$$
Molecule 52_metabolite 42
  CDK     0516241031

 53 56  0  0  0  0  0  0  0  0999 V2000
    2.9615    2.4270    0.0000 C   0  0  0  0  0  0  0  0  0  0  0  0
    2.4258    3.8281    0.0000 H   0  0  0  0  0  0  0  0  0  0  0  0
    3.9441    1.2936    0.0000 H   0  0  0  0  0  0  0  0  0  0  0  0
    4.2483    3.1978    0.0000 H   0  0  0  0  0  0  0  0  0  0  0  0
    1.4109    0.5173    0.0000 C   0  0  2  0  0  0  0  0  0  0  0  0
    0.4730    2.7914    0.0000 H   0  0  0  0  0  0  0  0  0  0  0  0
    2.6809   -0.2327    0.0000 C   0  0  0  0  0  0  0  0  0  0  0  0
    4.1572   -0.4981    0.0000 H   0  0  0  0  0  0  0  0  0  0  0  0
    3.2032    1.1734    0.0000 H   0  0  0  0  0  0  0  0  0  0  0  0
    2.6809   -1.7227    0.0000 C   0  0  0  0  0  0  0  0  0  0  0  0
    4.0297   -2.3790    0.0000 H   0  0  0  0  0  0  0  0  0  0  0  0
    1.5209   -2.6327    0.0000 C   0  0  0  0  0  0  0  0  0  0  0  0
    1.5209   -4.1327    0.0000 C   0  0  1  0  0  0  0  0  0  0  0  0
    2.0336   -5.5424    0.0000 H   0  0  0  0  0  0  0  0  0  0  0  0
    2.9981   -3.8724    0.0000 C   0  0  0  0  0  0  0  0  0  0  0  0
    3.9622   -5.0216    0.0000 H   0  0  0  0  0  0  0  0  0  0  0  0
    4.2973   -3.1226    0.0000 H   0  0  0  0  0  0  0  0  0  0  0  0
    2.4853   -2.4628    0.0000 H   0  0  0  0  0  0  0  0  0  0  0  0
    0.2209   -4.8827    0.0000 C   0  0  2  0  0  0  0  0  0  0  0  0
   -0.7457   -6.0298    0.0000 H   0  0  0  0  0  0  0  0  0  0  0  0
    1.1837   -6.0330    0.0000 O   0  0  0  0  0  0  0  0  0  0  0  0
    0.6689   -7.4419    0.0000 C   0  0  0  0  0  0  0  0  0  0  0  0
   -0.8086   -7.7006    0.0000 O   0  0  0  0  0  0  0  0  0  0  0  0
    1.6317   -8.5921    0.0000 C   0  0  0  0  0  0  0  0  0  0  0  0
    2.9298   -9.3437    0.0000 H   0  0  0  0  0  0  0  0  0  0  0  0
    2.5973   -7.4443    0.0000 H   0  0  0  0  0  0  0  0  0  0  0  0
    1.1169  -10.0011    0.0000 C   0  0  0  0  0  0  0  0  0  0  0  0
   -0.1812   -9.2495    0.0000 H   0  0  0  0  0  0  0  0  0  0  0  0
    0.1513  -11.1489    0.0000 H   0  0  0  0  0  0  0  0  0  0  0  0
    2.0797  -11.1513    0.0000 C   0  0  0  0  0  0  0  0  0  0  0  0
    3.5572  -10.8926    0.0000 O   0  0  0  0  0  0  0  0  0  0  0  0
    1.5650  -12.5602    0.0000 O   0  0  0  0  0  0  0  0  0  0  0  0
    2.5277  -13.7105    0.0000 H   0  0  0  0  0  0  0  0  0  0  0  0
   -1.0691   -4.1327    0.0000 O   0  0  0  0  0  0  0  0  0  0  0  0
   -1.0691   -2.6327    0.0000 C   0  0  1  0  0  0  0  0  0  0  0  0
   -2.2439   -3.5654    0.0000 H   0  0  0  0  0  0  0  0  0  0  0  0
    0.2209   -1.8727    0.0000 C   0  0  1  0  0  0  0  0  0  0  0  0
    0.1609   -0.3227    0.0000 C   0  0  1  0  0  0  0  0  0  0  0  0
   -1.2562    0.1689    0.0000 H   0  0  0  0  0  0  0  0  0  0  0  0
   -1.0391    0.7373    0.0000 C   0  0  0  0  0  0  0  0  0  0  0  0
    0.1693    1.6260    0.0000 H   0  0  0  0  0  0  0  0  0  0  0  0
   -1.6521    2.1063    0.0000 H   0  0  0  0  0  0  0  0  0  0  0  0
   -2.5091    0.4273    0.0000 C   0  0  0  0  0  0  0  0  0  0  0  0
   -2.4910    1.9271    0.0000 H   0  0  0  0  0  0  0  0  0  0  0  0
   -3.9689    0.7720    0.0000 H   0  0  0  0  0  0  0  0  0  0  0  0
   -3.1691   -0.9327    0.0000 C   0  0  2  0  0  0  0  0  0  0  0  0
   -4.6691   -0.9238    0.0000 C   0  0  0  0  0  0  0  0  0  0  0  0
   -5.4113    0.3797    0.0000 H   0  0  0  0  0  0  0  0  0  0  0  0
   -6.0817   -1.4284    0.0000 H   0  0  0  0  0  0  0  0  0  0  0  0
   -4.4175   -2.4025    0.0000 H   0  0  0  0  0  0  0  0  0  0  0  0
   -2.5291   -2.2927    0.0000 O   0  0  0  0  0  0  0  0  0  0  0  0
   -1.7491   -0.4727    0.0000 O   0  0  0  0  0  0  0  0  0  0  0  0
   -1.1091   -1.5427    0.0000 O   0  0  0  0  0  0  0  0  0  0  0  0
  1  2  1  0  0  0  0 
  1  3  1  0  0  0  0 
  1  4  1  0  0  0  0 
  5  1  1  6  0  0  0 
  5  6  1  1  0  0  0 
  5  7  1  0  0  0  0 
  7  8  1  0  0  0  0 
  7  9  1  0  0  0  0 
  7 10  1  0  0  0  0 
 10 11  1  0  0  0  0 
 10 12  2  0  0  0  0 
 12 13  1  0  0  0  0 
 13 14  1  6  0  0  0 
 13 15  1  1  0  0  0 
 15 16  1  0  0  0  0 
 15 17  1  0  0  0  0 
 15 18  1  0  0  0  0 
 13 19  1  0  0  0  0 
 19 20  1  1  0  0  0 
 19 21  1  6  0  0  0 
 21 22  1  0  0  0  0 
 22 23  2  0  0  0  0 
 22 24  1  0  0  0  0 
 24 25  1  0  0  0  0 
 24 26  1  0  0  0  0 
 24 27  1  0  0  0  0 
 27 28  1  0  0  0  0 
 27 29  1  0  0  0  0 
 27 30  1  0  0  0  0 
 30 31  2  0  0  0  0 
 30 32  1  0  0  0  0 
 32 33  1  0  0  0  0 
 19 34  1  0  0  0  0 
 34 35  1  0  0  0  0 
 35 36  1  1  0  0  0 
 37 35  1  1  0  0  0 
 12 37  1  0  0  0  0 
 37 38  1  0  0  0  0 
  5 38  1  0  0  0  0 
 38 39  1  6  0  0  0 
 38 40  1  0  0  0  0 
 40 41  1  0  0  0  0 
 40 42  1  0  0  0  0 
 40 43  1  0  0  0  0 
 43 44  1  0  0  0  0 
 43 45  1  0  0  0  0 
 43 46  1  0  0  0  0 
 46 47  1  0  0  0  0 
 47 48  1  0  0  0  0 
 47 49  1  0  0  0  0 
 47 50  1  0  0  0  0 
 46 51  1  1  0  0  0 
 35 51  1  0  0  0  0 
 46 52  1  0  0  0  0 
 52 53  1  0  0  0  0 
 37 53  1  6  0  0  0 
M  END
> <Rank>
41

> <Priority_score>
0.004

> <Reaction_type>
alkyl dehydrogenation

> <Parent_ID>
52

> <Parent_InChI>
InChI=1S/C19H28O8/c1-10-4-5-13-11(2)16(23-15(22)7-6-14(20)21)24-17-19(13)12(10)8-9-18(3,25-17)26-27-19/h10-13,16-17H,4-9H2,1-3H3,(H,20,21)

> <Parent_SMILES>
C[C@@H]1CC[C@H]2[C@@H](C)[C@H](OC(=O)CCC(=O)O)O[C@@H]3O[C@@]4(C)CC[C@@H]1[C@@]23OO4

$$$$
Molecule 52_metabolite 43
  CDK     0516241031

 53 56  0  0  0  0  0  0  0  0999 V2000
    2.9615    2.4270    0.0000 C   0  0  0  0  0  0  0  0  0  0  0  0
    2.4258    3.8281    0.0000 H   0  0  0  0  0  0  0  0  0  0  0  0
    3.9441    1.2936    0.0000 H   0  0  0  0  0  0  0  0  0  0  0  0
    4.2483    3.1978    0.0000 H   0  0  0  0  0  0  0  0  0  0  0  0
    1.4109    0.5173    0.0000 C   0  0  2  0  0  0  0  0  0  0  0  0
    0.4730    2.7914    0.0000 H   0  0  0  0  0  0  0  0  0  0  0  0
    2.6809   -0.2327    0.0000 C   0  0  0  0  0  0  0  0  0  0  0  0
    4.1572   -0.4981    0.0000 H   0  0  0  0  0  0  0  0  0  0  0  0
    3.2032    1.1734    0.0000 H   0  0  0  0  0  0  0  0  0  0  0  0
    2.6809   -1.7227    0.0000 C   0  0  0  0  0  0  0  0  0  0  0  0
    1.5182   -0.7751    0.0000 H   0  0  0  0  0  0  0  0  0  0  0  0
    4.1442   -1.3929    0.0000 H   0  0  0  0  0  0  0  0  0  0  0  0
    1.5209   -2.6327    0.0000 C   0  0  1  0  0  0  0  0  0  0  0  0
    2.8697   -3.2890    0.0000 H   0  0  0  0  0  0  0  0  0  0  0  0
    1.5209   -4.1327    0.0000 C   0  0  0  0  0  0  0  0  0  0  0  0
    2.8198   -4.8830    0.0000 C   0  0  0  0  0  0  0  0  0  0  0  0
    2.8196   -6.3830    0.0000 H   0  0  0  0  0  0  0  0  0  0  0  0
    4.1190   -4.1332    0.0000 H   0  0  0  0  0  0  0  0  0  0  0  0
    0.2209   -4.8827    0.0000 C   0  0  2  0  0  0  0  0  0  0  0  0
   -0.7457   -6.0298    0.0000 H   0  0  0  0  0  0  0  0  0  0  0  0
    1.1837   -6.0330    0.0000 O   0  0  0  0  0  0  0  0  0  0  0  0
    0.6689   -7.4419    0.0000 C   0  0  0  0  0  0  0  0  0  0  0  0
   -0.8086   -7.7006    0.0000 O   0  0  0  0  0  0  0  0  0  0  0  0
    1.6317   -8.5921    0.0000 C   0  0  0  0  0  0  0  0  0  0  0  0
    2.9298   -9.3437    0.0000 H   0  0  0  0  0  0  0  0  0  0  0  0
    2.5973   -7.4443    0.0000 H   0  0  0  0  0  0  0  0  0  0  0  0
    1.1169  -10.0011    0.0000 C   0  0  0  0  0  0  0  0  0  0  0  0
   -0.1812   -9.2495    0.0000 H   0  0  0  0  0  0  0  0  0  0  0  0
    0.1513  -11.1489    0.0000 H   0  0  0  0  0  0  0  0  0  0  0  0
    2.0797  -11.1513    0.0000 C   0  0  0  0  0  0  0  0  0  0  0  0
    3.5572  -10.8926    0.0000 O   0  0  0  0  0  0  0  0  0  0  0  0
    1.5650  -12.5602    0.0000 O   0  0  0  0  0  0  0  0  0  0  0  0
    2.5277  -13.7105    0.0000 H   0  0  0  0  0  0  0  0  0  0  0  0
   -1.0691   -4.1327    0.0000 O   0  0  0  0  0  0  0  0  0  0  0  0
   -1.0691   -2.6327    0.0000 C   0  0  1  0  0  0  0  0  0  0  0  0
   -2.2439   -3.5654    0.0000 H   0  0  0  0  0  0  0  0  0  0  0  0
    0.2209   -1.8727    0.0000 C   0  0  1  0  0  0  0  0  0  0  0  0
    0.1609   -0.3227    0.0000 C   0  0  1  0  0  0  0  0  0  0  0  0
   -1.2562    0.1689    0.0000 H   0  0  0  0  0  0  0  0  0  0  0  0
   -1.0391    0.7373    0.0000 C   0  0  0  0  0  0  0  0  0  0  0  0
    0.1693    1.6260    0.0000 H   0  0  0  0  0  0  0  0  0  0  0  0
   -1.6521    2.1063    0.0000 H   0  0  0  0  0  0  0  0  0  0  0  0
   -2.5091    0.4273    0.0000 C   0  0  0  0  0  0  0  0  0  0  0  0
   -2.4910    1.9271    0.0000 H   0  0  0  0  0  0  0  0  0  0  0  0
   -3.9689    0.7720    0.0000 H   0  0  0  0  0  0  0  0  0  0  0  0
   -3.1691   -0.9327    0.0000 C   0  0  2  0  0  0  0  0  0  0  0  0
   -4.6691   -0.9238    0.0000 C   0  0  0  0  0  0  0  0  0  0  0  0
   -5.4113    0.3797    0.0000 H   0  0  0  0  0  0  0  0  0  0  0  0
   -6.0817   -1.4284    0.0000 H   0  0  0  0  0  0  0  0  0  0  0  0
   -4.4175   -2.4025    0.0000 H   0  0  0  0  0  0  0  0  0  0  0  0
   -2.5291   -2.2927    0.0000 O   0  0  0  0  0  0  0  0  0  0  0  0
   -1.7491   -0.4727    0.0000 O   0  0  0  0  0  0  0  0  0  0  0  0
   -1.1091   -1.5427    0.0000 O   0  0  0  0  0  0  0  0  0  0  0  0
  1  2  1  0  0  0  0 
  1  3  1  0  0  0  0 
  1  4  1  0  0  0  0 
  5  1  1  6  0  0  0 
  5  6  1  1  0  0  0 
  5  7  1  0  0  0  0 
  7  8  1  0  0  0  0 
  7  9  1  0  0  0  0 
  7 10  1  0  0  0  0 
 10 11  1  0  0  0  0 
 10 12  1  0  0  0  0 
 10 13  1  0  0  0  0 
 13 14  1  6  0  0  0 
 13 15  1  0  0  0  0 
 15 16  2  0  0  0  0 
 16 17  1  0  0  0  0 
 16 18  1  0  0  0  0 
 15 19  1  0  0  0  0 
 19 20  1  1  0  0  0 
 19 21  1  6  0  0  0 
 21 22  1  0  0  0  0 
 22 23  2  0  0  0  0 
 22 24  1  0  0  0  0 
 24 25  1  0  0  0  0 
 24 26  1  0  0  0  0 
 24 27  1  0  0  0  0 
 27 28  1  0  0  0  0 
 27 29  1  0  0  0  0 
 27 30  1  0  0  0  0 
 30 31  2  0  0  0  0 
 30 32  1  0  0  0  0 
 32 33  1  0  0  0  0 
 19 34  1  0  0  0  0 
 34 35  1  0  0  0  0 
 35 36  1  1  0  0  0 
 37 35  1  1  0  0  0 
 13 37  1  0  0  0  0 
 37 38  1  0  0  0  0 
  5 38  1  0  0  0  0 
 38 39  1  6  0  0  0 
 38 40  1  0  0  0  0 
 40 41  1  0  0  0  0 
 40 42  1  0  0  0  0 
 40 43  1  0  0  0  0 
 43 44  1  0  0  0  0 
 43 45  1  0  0  0  0 
 43 46  1  0  0  0  0 
 46 47  1  0  0  0  0 
 47 48  1  0  0  0  0 
 47 49  1  0  0  0  0 
 47 50  1  0  0  0  0 
 46 51  1  1  0  0  0 
 35 51  1  0  0  0  0 
 46 52  1  0  0  0  0 
 52 53  1  0  0  0  0 
 37 53  1  6  0  0  0 
M  END
> <Rank>
43

> <Priority_score>
0.0032

> <Reaction_type>
alkyl dehydrogenation

> <Parent_ID>
52

> <Parent_InChI>
InChI=1S/C19H28O8/c1-10-4-5-13-11(2)16(23-15(22)7-6-14(20)21)24-17-19(13)12(10)8-9-18(3,25-17)26-27-19/h10-13,16-17H,4-9H2,1-3H3,(H,20,21)

> <Parent_SMILES>
C[C@@H]1CC[C@H]2[C@@H](C)[C@H](OC(=O)CCC(=O)O)O[C@@H]3O[C@@]4(C)CC[C@@H]1[C@@]23OO4

$$$$
Molecule 53
  CDK     0516241031

 16 16  0  0  0  0  0  0  0  0999 V2000
    1.2935    1.8660    0.0000 C   0  0  0  0  0  0  0  0  0  0  0  0
    1.2981    0.3660    0.0000 C   0  0  1  0  0  0  0  0  0  0  0  0
    2.5994   -0.3800    0.0000 C   0  0  0  0  0  0  0  0  0  0  0  0
    2.6040   -1.8800    0.0000 O   0  0  0  0  0  0  0  0  0  0  0  0
    3.8961    0.3740    0.0000 C   0  0  0  0  0  0  0  0  0  0  0  0
    3.8961    1.8740    0.0000 C   0  0  0  0  0  0  0  0  0  0  0  0
    5.1961    2.6340    0.0000 C   0  0  0  0  0  0  0  0  0  0  0  0
    6.4961    1.8740    0.0000 C   0  0  0  0  0  0  0  0  0  0  0  0
    6.4961    0.3740    0.0000 C   0  0  0  0  0  0  0  0  0  0  0  0
    5.1961   -0.3660    0.0000 C   0  0  0  0  0  0  0  0  0  0  0  0
    7.7929   -0.3800    0.0000 Cl  0  0  0  0  0  0  0  0  0  0  0  0
    0.0013   -0.3879    0.0000 N   0  0  0  0  0  0  0  0  0  0  0  0
   -1.3000    0.3581    0.0000 C   0  0  0  0  0  0  0  0  0  0  0  0
   -2.5967   -0.3959    0.0000 C   0  0  0  0  0  0  0  0  0  0  0  0
   -0.3393    1.5101    0.0000 C   0  0  0  0  0  0  0  0  0  0  0  0
   -2.2677    1.5042    0.0000 C   0  0  0  0  0  0  0  0  0  0  0  0
  2  1  1  1  0  0  0 
  2  3  1  0  0  0  0 
  3  4  2  0  0  0  0 
  3  5  1  0  0  0  0 
  5  6  2  0  0  0  0 
  6  7  1  0  0  0  0 
  7  8  2  0  0  0  0 
  8  9  1  0  0  0  0 
  9 10  2  0  0  0  0 
  5 10  1  0  0  0  0 
  9 11  1  0  0  0  0 
  2 12  1  0  0  0  0 
 12 13  1  0  0  0  0 
 13 14  1  0  0  0  0 
 13 15  1  0  0  0  0 
 13 16  1  0  0  0  0 
M  END
> <SMILES>
C[C@H](NC(C)(C)C)C(=O)c1cccc(Cl)c1

$$$$
Molecule 53_metabolite 1
  CDK     0516241031

 35 35  0  0  0  0  0  0  0  0999 V2000
    3.9195    7.2391    0.0000 C   0  0  0  0  0  0  0  0  0  0  0  0
    2.4401    7.4869    0.0000 H   0  0  0  0  0  0  0  0  0  0  0  0
    5.3944    7.5122    0.0000 H   0  0  0  0  0  0  0  0  0  0  0  0
    3.8943   10.1790    0.0000 H   0  0  0  0  0  0  0  0  0  0  0  0
    4.4446    5.8340    0.0000 C   0  0  1  0  0  0  0  0  0  0  0  0
    2.9696    5.5609    0.0000 H   0  0  0  0  0  0  0  0  0  0  0  0
    6.1508    6.8387    0.0000 C   0  0  0  0  0  0  0  0  0  0  0  0
    6.1379    8.3386    0.0000 O   0  0  0  0  0  0  0  0  0  0  0  0
    7.8739    5.8634    0.0000 C   0  0  0  0  0  0  0  0  0  0  0  0
    7.8999    4.3436    0.0000 C   0  0  0  0  0  0  0  0  0  0  0  0
    6.6206    3.5605    0.0000 H   0  0  0  0  0  0  0  0  0  0  0  0
    9.2827    3.6072    0.0000 C   0  0  0  0  0  0  0  0  0  0  0  0
    9.3279    2.1079    0.0000 H   0  0  0  0  0  0  0  0  0  0  0  0
   10.5595    4.3892    0.0000 C   0  0  0  0  0  0  0  0  0  0  0  0
   10.5335    5.9089    0.0000 C   0  0  0  0  0  0  0  0  0  0  0  0
    9.2307    6.6467    0.0000 C   0  0  0  0  0  0  0  0  0  0  0  0
    9.2245    8.1467    0.0000 H   0  0  0  0  0  0  0  0  0  0  0  0
   11.8229    6.6754    0.0000 Cl  0  0  0  0  0  0  0  0  0  0  0  0
   11.8744    3.6673    0.0000 O   0  0  0  0  0  0  0  0  0  0  0  0
   13.1570    4.4451    0.0000 H   0  0  0  0  0  0  0  0  0  0  0  0
    4.4574    4.3341    0.0000 N   0  0  0  0  0  0  0  0  0  0  0  0
    5.7628    3.5952    0.0000 H   0  0  0  0  0  0  0  0  0  0  0  0
    2.7512    3.3294    0.0000 C   0  0  0  0  0  0  0  0  0  0  0  0
    2.7641    1.8295    0.0000 C   0  0  0  0  0  0  0  0  0  0  0  0
    1.4715    1.0684    0.0000 H   0  0  0  0  0  0  0  0  0  0  0  0
    3.2891    0.4244    0.0000 H   0  0  0  0  0  0  0  0  0  0  0  0
    4.2390    2.1026    0.0000 H   0  0  0  0  0  0  0  0  0  0  0  0
    2.2261    4.7345    0.0000 C   0  0  0  0  0  0  0  0  0  0  0  0
    0.2733    5.0617    0.0000 H   0  0  0  0  0  0  0  0  0  0  0  0
    3.7011    5.0077    0.0000 H   0  0  0  0  0  0  0  0  0  0  0  0
    2.2133    6.2345    0.0000 H   0  0  0  0  0  0  0  0  0  0  0  0
    1.2763    3.0563    0.0000 C   0  0  0  0  0  0  0  0  0  0  0  0
    0.7753    1.6425    0.0000 H   0  0  0  0  0  0  0  0  0  0  0  0
    1.2634    4.5563    0.0000 H   0  0  0  0  0  0  0  0  0  0  0  0
   -0.2031    3.3042    0.0000 H   0  0  0  0  0  0  0  0  0  0  0  0
  1  2  1  0  0  0  0 
  1  3  1  0  0  0  0 
  1  4  1  0  0  0  0 
  1  5  1  0  0  0  0 
  5  6  1  6  0  0  0 
  5  7  1  0  0  0  0 
  7  8  2  0  0  0  0 
  7  9  1  0  0  0  0 
  9 10  2  0  0  0  0 
 10 11  1  0  0  0  0 
 10 12  1  0  0  0  0 
 12 13  1  0  0  0  0 
 12 14  2  0  0  0  0 
 14 15  1  0  0  0  0 
 15 16  2  0  0  0  0 
  9 16  1  0  0  0  0 
 16 17  1  0  0  0  0 
 15 18  1  0  0  0  0 
 14 19  1  0  0  0  0 
 19 20  1  0  0  0  0 
  5 21  1  1  0  0  0 
 21 22  1  0  0  0  0 
 21 23  1  0  0  0  0 
 23 24  1  0  0  0  0 
 24 25  1  0  0  0  0 
 24 26  1  0  0  0  0 
 24 27  1  0  0  0  0 
 23 28  1  0  0  0  0 
 28 29  1  0  0  0  0 
 28 30  1  0  0  0  0 
 28 31  1  0  0  0  0 
 23 32  1  0  0  0  0 
 32 33  1  0  0  0  0 
 32 34  1  0  0  0  0 
 32 35  1  0  0  0  0 
M  END
> <Rank>
1

> <Priority_score>
0.824

> <Reaction_type>
aromatic_hydroxylation_(para_to_carbon)

> <Parent_ID>
53

> <Parent_InChI>
InChI=1S/C13H18ClNO/c1-9(15-13(2,3)4)12(16)10-6-5-7-11(14)8-10/h5-9,15H,1-4H3

> <Parent_SMILES>
C[C@H](NC(C)(C)C)C(=O)c1cccc(Cl)c1

$$$$
Molecule 53_metabolite 2
  CDK     0516241031

 36 36  0  0  0  0  0  0  0  0999 V2000
    2.8288    0.1897    0.0000 C   0  0  0  0  0  0  0  0  0  0  0  0
    2.5729   -1.2883    0.0000 H   0  0  0  0  0  0  0  0  0  0  0  0
    2.5638    1.6662    0.0000 H   0  0  0  0  0  0  0  0  0  0  0  0
    1.3288    0.1852    0.0000 H   0  0  0  0  0  0  0  0  0  0  0  0
    4.2368    0.7071    0.0000 C   0  0  1  0  0  0  0  0  0  0  0  0
    4.5018   -0.7693    0.0000 H   0  0  0  0  0  0  0  0  0  0  0  0
    3.4828    2.0038    0.0000 C   0  0  0  0  0  0  0  0  0  0  0  0
    4.8908    2.5212    0.0000 H   0  0  0  0  0  0  0  0  0  0  0  0
    1.5028    1.9978    0.0000 C   0  0  0  0  0  0  0  0  0  0  0  0
    0.7528    0.6987    0.0000 C   0  0  0  0  0  0  0  0  0  0  0  0
    1.0173   -0.7778    0.0000 H   0  0  0  0  0  0  0  0  0  0  0  0
   -0.7530    0.6906    0.0000 C   0  0  0  0  0  0  0  0  0  0  0  0
   -1.5030   -0.6085    0.0000 H   0  0  0  0  0  0  0  0  0  0  0  0
   -1.4988    1.9987    0.0000 C   0  0  0  0  0  0  0  0  0  0  0  0
   -2.9988    2.0028    0.0000 H   0  0  0  0  0  0  0  0  0  0  0  0
   -0.7488    3.2978    0.0000 C   0  0  0  0  0  0  0  0  0  0  0  0
    0.7470    3.2886    0.0000 C   0  0  0  0  0  0  0  0  0  0  0  0
    1.4970    4.5877    0.0000 H   0  0  0  0  0  0  0  0  0  0  0  0
   -1.4949    4.5991    0.0000 Cl  0  0  0  0  0  0  0  0  0  0  0  0
    3.2178    3.4802    0.0000 O   0  0  0  0  0  0  0  0  0  0  0  0
    4.3639    4.4479    0.0000 H   0  0  0  0  0  0  0  0  0  0  0  0
    5.7368    0.7117    0.0000 N   0  0  0  0  0  0  0  0  0  0  0  0
    6.4828    2.0130    0.0000 H   0  0  0  0  0  0  0  0  0  0  0  0
    6.7320   -1.0000    0.0000 C   0  0  0  0  0  0  0  0  0  0  0  0
    8.2320   -0.9955    0.0000 C   0  0  0  0  0  0  0  0  0  0  0  0
    8.9860   -2.2922    0.0000 H   0  0  0  0  0  0  0  0  0  0  0  0
    9.6400   -0.4781    0.0000 H   0  0  0  0  0  0  0  0  0  0  0  0
    7.9670    0.4810    0.0000 H   0  0  0  0  0  0  0  0  0  0  0  0
    5.3240   -1.5174    0.0000 C   0  0  0  0  0  0  0  0  0  0  0  0
    4.9862   -3.4683    0.0000 H   0  0  0  0  0  0  0  0  0  0  0  0
    5.0591   -0.0410    0.0000 H   0  0  0  0  0  0  0  0  0  0  0  0
    3.8240   -1.5220    0.0000 H   0  0  0  0  0  0  0  0  0  0  0  0
    6.9970   -2.4764    0.0000 C   0  0  0  0  0  0  0  0  0  0  0  0
    8.4081   -2.9852    0.0000 H   0  0  0  0  0  0  0  0  0  0  0  0
    5.4970   -2.4810    0.0000 H   0  0  0  0  0  0  0  0  0  0  0  0
    6.7410   -3.9544    0.0000 H   0  0  0  0  0  0  0  0  0  0  0  0
  1  2  1  0  0  0  0 
  1  3  1  0  0  0  0 
  1  4  1  0  0  0  0 
  1  5  1  0  0  0  0 
  5  6  1  6  0  0  0 
  5  7  1  0  0  0  0 
  7  8  1  0  0  0  0 
  7  9  1  0  0  0  0 
  9 10  2  0  0  0  0 
 10 11  1  0  0  0  0 
 10 12  1  0  0  0  0 
 12 13  1  0  0  0  0 
 12 14  2  0  0  0  0 
 14 15  1  0  0  0  0 
 14 16  1  0  0  0  0 
 16 17  2  0  0  0  0 
  9 17  1  0  0  0  0 
 17 18  1  0  0  0  0 
 16 19  1  0  0  0  0 
  7 20  1  0  0  0  0 
 20 21  1  0  0  0  0 
  5 22  1  1  0  0  0 
 22 23  1  0  0  0  0 
 22 24  1  0  0  0  0 
 24 25  1  0  0  0  0 
 25 26  1  0  0  0  0 
 25 27  1  0  0  0  0 
 25 28  1  0  0  0  0 
 24 29  1  0  0  0  0 
 29 30  1  0  0  0  0 
 29 31  1  0  0  0  0 
 29 32  1  0  0  0  0 
 24 33  1  0  0  0  0 
 33 34  1  0  0  0  0 
 33 35  1  0  0  0  0 
 33 36  1  0  0  0  0 
M  END
> <Rank>
1

> <Priority_score>
0.824

> <Reaction_type>
carbonyl_reduction_(next_to_aromatic_carbon)

> <Parent_ID>
53

> <Parent_InChI>
InChI=1S/C13H18ClNO/c1-9(15-13(2,3)4)12(16)10-6-5-7-11(14)8-10/h5-9,15H,1-4H3

> <Parent_SMILES>
C[C@H](NC(C)(C)C)C(=O)c1cccc(Cl)c1

$$$$
Molecule 53_metabolite 3
  CDK     0516241031

 35 35  0  0  0  0  0  0  0  0999 V2000
   -5.5322   -0.8784    0.0000 C   0  0  0  0  0  0  0  0  0  0  0  0
   -4.0550   -0.6182    0.0000 H   0  0  0  0  0  0  0  0  0  0  0  0
   -5.0194   -2.2880    0.0000 H   0  0  0  0  0  0  0  0  0  0  0  0
   -6.8314   -1.6282    0.0000 H   0  0  0  0  0  0  0  0  0  0  0  0
   -6.4962    0.2708    0.0000 C   0  0  1  0  0  0  0  0  0  0  0  0
   -7.4606   -0.8781    0.0000 H   0  0  0  0  0  0  0  0  0  0  0  0
   -7.7951    1.0210    0.0000 C   0  0  0  0  0  0  0  0  0  0  0  0
   -7.7949    2.5210    0.0000 O   0  0  0  0  0  0  0  0  0  0  0  0
   -9.0943    0.2712    0.0000 C   0  0  0  0  0  0  0  0  0  0  0  0
  -10.3941    1.0217    0.0000 C   0  0  0  0  0  0  0  0  0  0  0  0
  -10.3936    2.5217    0.0000 H   0  0  0  0  0  0  0  0  0  0  0  0
  -11.6943    0.2721    0.0000 C   0  0  0  0  0  0  0  0  0  0  0  0
  -11.6948   -1.2279    0.0000 C   0  0  0  0  0  0  0  0  0  0  0  0
  -12.9939   -1.9777    0.0000 H   0  0  0  0  0  0  0  0  0  0  0  0
  -10.3950   -1.9783    0.0000 C   0  0  0  0  0  0  0  0  0  0  0  0
   -9.0948   -1.2288    0.0000 C   0  0  0  0  0  0  0  0  0  0  0  0
   -7.7961   -1.9794    0.0000 H   0  0  0  0  0  0  0  0  0  0  0  0
  -10.3955   -3.4783    0.0000 Cl  0  0  0  0  0  0  0  0  0  0  0  0
  -12.9930    1.0227    0.0000 O   0  0  0  0  0  0  0  0  0  0  0  0
  -14.2924    0.2733    0.0000 H   0  0  0  0  0  0  0  0  0  0  0  0
   -5.1971    1.0206    0.0000 N   0  0  0  0  0  0  0  0  0  0  0  0
   -3.8982    0.2704    0.0000 H   0  0  0  0  0  0  0  0  0  0  0  0
   -5.1968    3.0006    0.0000 C   0  0  0  0  0  0  0  0  0  0  0  0
   -6.4957    3.7508    0.0000 C   0  0  0  0  0  0  0  0  0  0  0  0
   -6.4954    5.7308    0.0000 H   0  0  0  0  0  0  0  0  0  0  0  0
   -7.0089    2.3414    0.0000 H   0  0  0  0  0  0  0  0  0  0  0  0
   -7.9728    4.0115    0.0000 H   0  0  0  0  0  0  0  0  0  0  0  0
   -4.6835    4.4101    0.0000 C   0  0  0  0  0  0  0  0  0  0  0  0
   -3.2062    4.6703    0.0000 H   0  0  0  0  0  0  0  0  0  0  0  0
   -4.6833    5.9101    0.0000 H   0  0  0  0  0  0  0  0  0  0  0  0
   -6.1607    4.6708    0.0000 H   0  0  0  0  0  0  0  0  0  0  0  0
   -3.7196    2.7399    0.0000 C   0  0  0  0  0  0  0  0  0  0  0  0
   -2.7552    3.8888    0.0000 H   0  0  0  0  0  0  0  0  0  0  0  0
   -2.4207    1.9897    0.0000 H   0  0  0  0  0  0  0  0  0  0  0  0
   -4.2328    1.3305    0.0000 H   0  0  0  0  0  0  0  0  0  0  0  0
  1  2  1  0  0  0  0 
  1  3  1  0  0  0  0 
  1  4  1  0  0  0  0 
  1  5  1  0  0  0  0 
  5  6  1  6  0  0  0 
  5  7  1  1  0  0  0 
  7  8  2  0  0  0  0 
  7  9  1  0  0  0  0 
  9 10  2  0  0  0  0 
 10 11  1  0  0  0  0 
 10 12  1  0  0  0  0 
 12 13  2  0  0  0  0 
 13 14  1  0  0  0  0 
 13 15  1  0  0  0  0 
 15 16  2  0  0  0  0 
  9 16  1  0  0  0  0 
 16 17  1  0  0  0  0 
 15 18  1  0  0  0  0 
 12 19  1  0  0  0  0 
 19 20  1  0  0  0  0 
  5 21  1  0  0  0  0 
 21 22  1  0  0  0  0 
 21 23  1  0  0  0  0 
 23 24  1  0  0  0  0 
 24 25  1  0  0  0  0 
 24 26  1  0  0  0  0 
 24 27  1  0  0  0  0 
 23 28  1  0  0  0  0 
 28 29  1  0  0  0  0 
 28 30  1  0  0  0  0 
 28 31  1  0  0  0  0 
 23 32  1  0  0  0  0 
 32 33  1  0  0  0  0 
 32 34  1  0  0  0  0 
 32 35  1  0  0  0  0 
M  END
> <Rank>
1

> <Priority_score>
0.824

> <Reaction_type>
aromatic_hydroxylation_(meta_to_carbon)

> <Parent_ID>
53

> <Parent_InChI>
InChI=1S/C13H18ClNO/c1-9(15-13(2,3)4)12(16)10-6-5-7-11(14)8-10/h5-9,15H,1-4H3

> <Parent_SMILES>
C[C@H](NC(C)(C)C)C(=O)c1cccc(Cl)c1

$$$$
Molecule 53_metabolite 4
  CDK     0516241031

 35 35  0  0  0  0  0  0  0  0999 V2000
    5.5325    1.0445    0.0000 C   0  0  0  0  0  0  0  0  0  0  0  0
    5.5371   -0.4554    0.0000 H   0  0  0  0  0  0  0  0  0  0  0  0
    4.0561    0.7796    0.0000 H   0  0  0  0  0  0  0  0  0  0  0  0
    5.0152    2.4525    0.0000 H   0  0  0  0  0  0  0  0  0  0  0  0
    6.8293    1.7985    0.0000 C   0  0  0  0  0  0  0  0  0  0  0  0
    8.3057    2.0635    0.0000 C   0  0  0  0  0  0  0  0  0  0  0  0
    9.5830    0.5506    0.0000 H   0  0  0  0  0  0  0  0  0  0  0  0
    7.7883    3.4715    0.0000 H   0  0  0  0  0  0  0  0  0  0  0  0
    9.6024    2.8175    0.0000 H   0  0  0  0  0  0  0  0  0  0  0  0
    7.3466    0.3905    0.0000 C   0  0  0  0  0  0  0  0  0  0  0  0
    6.3859   -0.7615    0.0000 H   0  0  0  0  0  0  0  0  0  0  0  0
    8.6433    1.1445    0.0000 H   0  0  0  0  0  0  0  0  0  0  0  0
    8.3143   -0.7556    0.0000 H   0  0  0  0  0  0  0  0  0  0  0  0
    6.8232    3.7785    0.0000 N   0  0  0  0  0  0  0  0  0  0  0  0
    8.1199    4.5325    0.0000 H   0  0  0  0  0  0  0  0  0  0  0  0
    5.5219    4.5245    0.0000 C   0  0  1  0  0  0  0  0  0  0  0  0
    4.5542    5.6706    0.0000 C   0  0  0  0  0  0  0  0  0  0  0  0
    5.0629    7.0817    0.0000 H   0  0  0  0  0  0  0  0  0  0  0  0
    3.2529    6.4167    0.0000 H   0  0  0  0  0  0  0  0  0  0  0  0
    3.5935    4.5186    0.0000 H   0  0  0  0  0  0  0  0  0  0  0  0
    4.2251    3.7706    0.0000 C   0  0  0  0  0  0  0  0  0  0  0  0
    4.2297    2.2706    0.0000 O   0  0  0  0  0  0  0  0  0  0  0  0
    2.5074    4.7553    0.0000 C   0  0  0  0  0  0  0  0  0  0  0  0
    2.4982    6.2553    0.0000 C   0  0  0  0  0  0  0  0  0  0  0  0
    3.7947    7.0097    0.0000 H   0  0  0  0  0  0  0  0  0  0  0  0
    1.1936    7.0073    0.0000 C   0  0  0  0  0  0  0  0  0  0  0  0
    1.1844    8.5073    0.0000 H   0  0  0  0  0  0  0  0  0  0  0  0
   -0.1017    6.2394    0.0000 C   0  0  0  0  0  0  0  0  0  0  0  0
   -1.4073    6.9779    0.0000 H   0  0  0  0  0  0  0  0  0  0  0  0
   -0.0926    4.7394    0.0000 C   0  0  0  0  0  0  0  0  0  0  0  0
    1.2119    4.0074    0.0000 C   0  0  0  0  0  0  0  0  0  0  0  0
    1.2211    2.5074    0.0000 H   0  0  0  0  0  0  0  0  0  0  0  0
   -1.3847    3.9776    0.0000 Cl  0  0  0  0  0  0  0  0  0  0  0  0
    6.4825    5.6765    0.0000 O   0  0  0  0  0  0  0  0  0  0  0  0
    7.9605    5.4206    0.0000 H   0  0  0  0  0  0  0  0  0  0  0  0
  1  2  1  0  0  0  0 
  1  3  1  0  0  0  0 
  1  4  1  0  0  0  0 
  1  5  1  0  0  0  0 
  5  6  1  0  0  0  0 
  6  7  1  0  0  0  0 
  6  8  1  0  0  0  0 
  6  9  1  0  0  0  0 
  5 10  1  0  0  0  0 
 10 11  1  0  0  0  0 
 10 12  1  0  0  0  0 
 10 13  1  0  0  0  0 
  5 14  1  0  0  0  0 
 14 15  1  0  0  0  0 
 16 14  1  6  0  0  0 
 16 17  1  0  0  0  0 
 17 18  1  0  0  0  0 
 17 19  1  0  0  0  0 
 17 20  1  0  0  0  0 
 16 21  1  0  0  0  0 
 21 22  2  0  0  0  0 
 21 23  1  0  0  0  0 
 23 24  2  0  0  0  0 
 24 25  1  0  0  0  0 
 24 26  1  0  0  0  0 
 26 27  1  0  0  0  0 
 26 28  2  0  0  0  0 
 28 29  1  0  0  0  0 
 28 30  1  0  0  0  0 
 30 31  2  0  0  0  0 
 23 31  1  0  0  0  0 
 31 32  1  0  0  0  0 
 30 33  1  0  0  0  0 
 16 34  1  1  0  0  0 
 34 35  1  0  0  0  0 
M  END
> <Rank>
1

> <Priority_score>
0.824

> <Reaction_type>
aliphatic_hydroxylation_(tert_carbon_next_to_SP2)

> <Parent_ID>
53

> <Parent_InChI>
InChI=1S/C13H18ClNO/c1-9(15-13(2,3)4)12(16)10-6-5-7-11(14)8-10/h5-9,15H,1-4H3

> <Parent_SMILES>
C[C@H](NC(C)(C)C)C(=O)c1cccc(Cl)c1

$$$$
Molecule 53_metabolite 5
  CDK     0516241031

 34 34  0  0  0  0  0  0  0  0999 V2000
    5.2340    2.4998    0.0000 C   0  0  0  0  0  0  0  0  0  0  0  0
    3.7576    2.2348    0.0000 H   0  0  0  0  0  0  0  0  0  0  0  0
    6.5308    3.2537    0.0000 H   0  0  0  0  0  0  0  0  0  0  0  0
    4.2201    5.2594    0.0000 H   0  0  0  0  0  0  0  0  0  0  0  0
    6.2017    1.3537    0.0000 C   0  0  1  0  0  0  0  0  0  0  0  0
    7.1624    2.5057    0.0000 H   0  0  0  0  0  0  0  0  0  0  0  0
    4.9050    0.5997    0.0000 C   0  0  0  0  0  0  0  0  0  0  0  0
    4.9096   -0.9003    0.0000 O   0  0  0  0  0  0  0  0  0  0  0  0
    3.1872    1.5845    0.0000 C   0  0  0  0  0  0  0  0  0  0  0  0
    3.1781    3.0844    0.0000 C   0  0  0  0  0  0  0  0  0  0  0  0
    4.4746    3.8388    0.0000 H   0  0  0  0  0  0  0  0  0  0  0  0
    1.8734    3.8365    0.0000 C   0  0  0  0  0  0  0  0  0  0  0  0
    1.8643    5.3364    0.0000 H   0  0  0  0  0  0  0  0  0  0  0  0
    0.5781    3.0685    0.0000 C   0  0  0  0  0  0  0  0  0  0  0  0
   -0.7275    3.8070    0.0000 H   0  0  0  0  0  0  0  0  0  0  0  0
    0.5873    1.5686    0.0000 C   0  0  0  0  0  0  0  0  0  0  0  0
    1.8918    0.8365    0.0000 C   0  0  0  0  0  0  0  0  0  0  0  0
    1.9009   -0.6635    0.0000 H   0  0  0  0  0  0  0  0  0  0  0  0
   -0.7048    0.8067    0.0000 Cl  0  0  0  0  0  0  0  0  0  0  0  0
    7.5030    0.6076    0.0000 N   0  0  0  0  0  0  0  0  0  0  0  0
    7.5076   -0.8924    0.0000 H   0  0  0  0  0  0  0  0  0  0  0  0
    9.2147    1.6029    0.0000 C   0  0  0  0  0  0  0  0  0  0  0  0
    9.7321    0.1949    0.0000 C   0  0  0  0  0  0  0  0  0  0  0  0
   11.6830   -0.1430    0.0000 H   0  0  0  0  0  0  0  0  0  0  0  0
    8.2557   -0.0701    0.0000 H   0  0  0  0  0  0  0  0  0  0  0  0
    9.7367   -1.3051    0.0000 H   0  0  0  0  0  0  0  0  0  0  0  0
   10.6912    1.8679    0.0000 C   0  0  0  0  0  0  0  0  0  0  0  0
   11.1999    3.2790    0.0000 H   0  0  0  0  0  0  0  0  0  0  0  0
   10.6957    0.3679    0.0000 H   0  0  0  0  0  0  0  0  0  0  0  0
   12.1692    1.6119    0.0000 H   0  0  0  0  0  0  0  0  0  0  0  0
    9.2102    3.1029    0.0000 C   0  0  0  0  0  0  0  0  0  0  0  0
    7.9088    3.8489    0.0000 O   0  0  0  0  0  0  0  0  0  0  0  0
   10.5069    3.8568    0.0000 O   0  0  0  0  0  0  0  0  0  0  0  0
   10.5023    5.3568    0.0000 H   0  0  0  0  0  0  0  0  0  0  0  0
  1  2  1  0  0  0  0 
  1  3  1  0  0  0  0 
  1  4  1  0  0  0  0 
  1  5  1  0  0  0  0 
  5  6  1  1  0  0  0 
  5  7  1  0  0  0  0 
  7  8  2  0  0  0  0 
  7  9  1  0  0  0  0 
  9 10  2  0  0  0  0 
 10 11  1  0  0  0  0 
 10 12  1  0  0  0  0 
 12 13  1  0  0  0  0 
 12 14  2  0  0  0  0 
 14 15  1  0  0  0  0 
 14 16  1  0  0  0  0 
 16 17  2  0  0  0  0 
  9 17  1  0  0  0  0 
 17 18  1  0  0  0  0 
 16 19  1  0  0  0  0 
  5 20  1  6  0  0  0 
 20 21  1  0  0  0  0 
 20 22  1  0  0  0  0 
 22 23  1  0  0  0  0 
 23 24  1  0  0  0  0 
 23 25  1  0  0  0  0 
 23 26  1  0  0  0  0 
 22 27  1  0  0  0  0 
 27 28  1  0  0  0  0 
 27 29  1  0  0  0  0 
 27 30  1  0  0  0  0 
 22 31  1  0  0  0  0 
 31 32  2  0  0  0  0 
 31 33  1  0  0  0  0 
 33 34  1  0  0  0  0 
M  END
> <Rank>
5

> <Priority_score>
0.688

> <Reaction_type>
carboxylation_(primary_carbon_next_to_quart_carbon)

> <Parent_ID>
53

> <Parent_InChI>
InChI=1S/C13H18ClNO/c1-9(15-13(2,3)4)12(16)10-6-5-7-11(14)8-10/h5-9,15H,1-4H3

> <Parent_SMILES>
C[C@H](NC(C)(C)C)C(=O)c1cccc(Cl)c1

$$$$
Molecule 53_metabolite 6
  CDK     0516241031

 35 35  0  0  0  0  0  0  0  0999 V2000
    4.4331    0.1716    0.0000 C   0  0  0  0  0  0  0  0  0  0  0  0
    4.9505   -1.2364    0.0000 H   0  0  0  0  0  0  0  0  0  0  0  0
    3.4655    1.3177    0.0000 H   0  0  0  0  0  0  0  0  0  0  0  0
    1.8915   -1.3062    0.0000 H   0  0  0  0  0  0  0  0  0  0  0  0
    5.3938    1.3236    0.0000 C   0  0  1  0  0  0  0  0  0  0  0  0
    6.3615    0.1775    0.0000 H   0  0  0  0  0  0  0  0  0  0  0  0
    3.6761    2.3083    0.0000 C   0  0  0  0  0  0  0  0  0  0  0  0
    2.3793    1.5544    0.0000 O   0  0  0  0  0  0  0  0  0  0  0  0
    3.6700    4.2883    0.0000 C   0  0  0  0  0  0  0  0  0  0  0  0
    4.9644    5.0462    0.0000 C   0  0  0  0  0  0  0  0  0  0  0  0
    6.2660    4.3007    0.0000 H   0  0  0  0  0  0  0  0  0  0  0  0
    4.9634    6.5521    0.0000 C   0  0  0  0  0  0  0  0  0  0  0  0
    6.2579    7.3100    0.0000 H   0  0  0  0  0  0  0  0  0  0  0  0
    3.6507    7.2899    0.0000 C   0  0  0  0  0  0  0  0  0  0  0  0
    3.6375    8.7899    0.0000 H   0  0  0  0  0  0  0  0  0  0  0  0
    2.3563    6.5320    0.0000 C   0  0  0  0  0  0  0  0  0  0  0  0
    2.3746    5.0362    0.0000 C   0  0  0  0  0  0  0  0  0  0  0  0
    1.0801    4.2783    0.0000 H   0  0  0  0  0  0  0  0  0  0  0  0
    1.0504    7.2701    0.0000 Cl  0  0  0  0  0  0  0  0  0  0  0  0
    6.6906    2.0775    0.0000 N   0  0  0  0  0  0  0  0  0  0  0  0
    6.6860    3.5775    0.0000 H   0  0  0  0  0  0  0  0  0  0  0  0
    8.4083    1.0928    0.0000 C   0  0  0  0  0  0  0  0  0  0  0  0
    7.4476   -0.0592    0.0000 C   0  0  0  0  0  0  0  0  0  0  0  0
    8.1305   -1.9177    0.0000 H   0  0  0  0  0  0  0  0  0  0  0  0
    6.4799    1.0869    0.0000 H   0  0  0  0  0  0  0  0  0  0  0  0
    6.1509   -0.8132    0.0000 H   0  0  0  0  0  0  0  0  0  0  0  0
    9.3760   -0.0533    0.0000 C   0  0  0  0  0  0  0  0  0  0  0  0
   10.8524    0.2116    0.0000 H   0  0  0  0  0  0  0  0  0  0  0  0
    8.0792   -0.8073    0.0000 H   0  0  0  0  0  0  0  0  0  0  0  0
    9.8933   -1.4613    0.0000 H   0  0  0  0  0  0  0  0  0  0  0  0
    9.7050    1.8467    0.0000 C   0  0  0  0  0  0  0  0  0  0  0  0
   10.6657    2.9987    0.0000 H   0  0  0  0  0  0  0  0  0  0  0  0
    8.7374    2.9929    0.0000 H   0  0  0  0  0  0  0  0  0  0  0  0
   11.0064    1.1007    0.0000 O   0  0  0  0  0  0  0  0  0  0  0  0
   12.3031    1.8547    0.0000 H   0  0  0  0  0  0  0  0  0  0  0  0
  1  2  1  0  0  0  0 
  1  3  1  0  0  0  0 
  1  4  1  0  0  0  0 
  1  5  1  0  0  0  0 
  5  6  1  6  0  0  0 
  5  7  1  0  0  0  0 
  7  8  2  0  0  0  0 
  7  9  1  0  0  0  0 
  9 10  2  0  0  0  0 
 10 11  1  0  0  0  0 
 10 12  1  0  0  0  0 
 12 13  1  0  0  0  0 
 12 14  2  0  0  0  0 
 14 15  1  0  0  0  0 
 14 16  1  0  0  0  0 
 16 17  2  0  0  0  0 
  9 17  1  0  0  0  0 
 17 18  1  0  0  0  0 
 16 19  1  0  0  0  0 
  5 20  1  1  0  0  0 
 20 21  1  0  0  0  0 
 20 22  1  0  0  0  0 
 22 23  1  0  0  0  0 
 23 24  1  0  0  0  0 
 23 25  1  0  0  0  0 
 23 26  1  0  0  0  0 
 22 27  1  0  0  0  0 
 27 28  1  0  0  0  0 
 27 29  1  0  0  0  0 
 27 30  1  0  0  0  0 
 22 31  1  0  0  0  0 
 31 32  1  0  0  0  0 
 31 33  1  0  0  0  0 
 31 34  1  0  0  0  0 
 34 35  1  0  0  0  0 
M  END
> <Rank>
5

> <Priority_score>
0.688

> <Reaction_type>
aliphatic_hydroxylation_(primary_carbon_next_to_quart_carbon)

> <Parent_ID>
53

> <Parent_InChI>
InChI=1S/C13H18ClNO/c1-9(15-13(2,3)4)12(16)10-6-5-7-11(14)8-10/h5-9,15H,1-4H3

> <Parent_SMILES>
C[C@H](NC(C)(C)C)C(=O)c1cccc(Cl)c1

$$$$
Molecule 53_metabolite 7
  CDK     0516241031

 35 35  0  0  0  0  0  0  0  0999 V2000
   10.4388   -0.9326    0.0000 C   0  0  0  0  0  0  0  0  0  0  0  0
   11.1928   -2.2293    0.0000 H   0  0  0  0  0  0  0  0  0  0  0  0
    9.2927   -1.9003    0.0000 H   0  0  0  0  0  0  0  0  0  0  0  0
    9.2868    0.0281    0.0000 H   0  0  0  0  0  0  0  0  0  0  0  0
   11.1849    0.3687    0.0000 C   0  0  0  0  0  0  0  0  0  0  0  0
   12.3310    1.3364    0.0000 C   0  0  0  0  0  0  0  0  0  0  0  0
   14.1936    0.6649    0.0000 H   0  0  0  0  0  0  0  0  0  0  0  0
   11.1790    2.2971    0.0000 H   0  0  0  0  0  0  0  0  0  0  0  0
   13.0770    2.6377    0.0000 H   0  0  0  0  0  0  0  0  0  0  0  0
   12.3369   -0.5919    0.0000 C   0  0  0  0  0  0  0  0  0  0  0  0
   12.0809   -2.0699    0.0000 H   0  0  0  0  0  0  0  0  0  0  0  0
   13.0829    0.7094    0.0000 H   0  0  0  0  0  0  0  0  0  0  0  0
   13.7480   -1.1007    0.0000 H   0  0  0  0  0  0  0  0  0  0  0  0
   10.1896    2.0804    0.0000 N   0  0  0  0  0  0  0  0  0  0  0  0
   10.9357    3.3817    0.0000 H   0  0  0  0  0  0  0  0  0  0  0  0
    8.6896    2.0758    0.0000 C   0  0  1  0  0  0  0  0  0  0  0  0
    7.2785    2.5846    0.0000 H   0  0  0  0  0  0  0  0  0  0  0  0
    8.9456    3.5538    0.0000 C   0  0  0  0  0  0  0  0  0  0  0  0
    7.4456    3.5493    0.0000 H   0  0  0  0  0  0  0  0  0  0  0  0
    8.6806    5.0302    0.0000 H   0  0  0  0  0  0  0  0  0  0  0  0
   10.3536    4.0712    0.0000 O   0  0  0  0  0  0  0  0  0  0  0  0
   10.6095    5.5492    0.0000 H   0  0  0  0  0  0  0  0  0  0  0  0
    7.9436    0.7745    0.0000 C   0  0  0  0  0  0  0  0  0  0  0  0
    8.6976   -0.5222    0.0000 O   0  0  0  0  0  0  0  0  0  0  0  0
    6.4436    0.7699    0.0000 C   0  0  0  0  0  0  0  0  0  0  0  0
    5.6857    2.0644    0.0000 C   0  0  0  0  0  0  0  0  0  0  0  0
    6.4313    3.3659    0.0000 H   0  0  0  0  0  0  0  0  0  0  0  0
    4.1798    2.0633    0.0000 C   0  0  0  0  0  0  0  0  0  0  0  0
    3.4219    3.3578    0.0000 H   0  0  0  0  0  0  0  0  0  0  0  0
    3.4420    0.7506    0.0000 C   0  0  0  0  0  0  0  0  0  0  0  0
    1.9421    0.7374    0.0000 H   0  0  0  0  0  0  0  0  0  0  0  0
    4.1999   -0.5438    0.0000 C   0  0  0  0  0  0  0  0  0  0  0  0
    5.6957   -0.5255    0.0000 C   0  0  0  0  0  0  0  0  0  0  0  0
    6.4536   -1.8200    0.0000 H   0  0  0  0  0  0  0  0  0  0  0  0
    3.4619   -1.8497    0.0000 Cl  0  0  0  0  0  0  0  0  0  0  0  0
  1  2  1  0  0  0  0 
  1  3  1  0  0  0  0 
  1  4  1  0  0  0  0 
  1  5  1  0  0  0  0 
  5  6  1  0  0  0  0 
  6  7  1  0  0  0  0 
  6  8  1  0  0  0  0 
  6  9  1  0  0  0  0 
  5 10  1  0  0  0  0 
 10 11  1  0  0  0  0 
 10 12  1  0  0  0  0 
 10 13  1  0  0  0  0 
  5 14  1  0  0  0  0 
 14 15  1  0  0  0  0 
 14 16  1  0  0  0  0 
 16 17  1  1  0  0  0 
 16 18  1  0  0  0  0 
 18 19  1  0  0  0  0 
 18 20  1  0  0  0  0 
 18 21  1  0  0  0  0 
 21 22  1  0  0  0  0 
 16 23  1  6  0  0  0 
 23 24  2  0  0  0  0 
 23 25  1  0  0  0  0 
 25 26  2  0  0  0  0 
 26 27  1  0  0  0  0 
 26 28  1  0  0  0  0 
 28 29  1  0  0  0  0 
 28 30  2  0  0  0  0 
 30 31  1  0  0  0  0 
 30 32  1  0  0  0  0 
 32 33  2  0  0  0  0 
 25 33  1  0  0  0  0 
 33 34  1  0  0  0  0 
 32 35  1  0  0  0  0 
M  END
> <Rank>
7

> <Priority_score>
0.39710940239926945

> <Reaction_type>
aliphatic hydroxylation

> <Parent_ID>
53

> <Parent_InChI>
InChI=1S/C13H18ClNO/c1-9(15-13(2,3)4)12(16)10-6-5-7-11(14)8-10/h5-9,15H,1-4H3

> <Parent_SMILES>
C[C@H](NC(C)(C)C)C(=O)c1cccc(Cl)c1

$$$$
Molecule 53_metabolite 8
  CDK     0516241031

 69 69  0  0  0  0  0  0  0  0999 V2000
  -15.3811    1.5740    0.0000 C   0  0  0  0  0  0  0  0  0  0  0  0
  -16.3451    2.7232    0.0000 H   0  0  0  0  0  0  0  0  0  0  0  0
  -14.4167    2.7229    0.0000 H   0  0  0  0  0  0  0  0  0  0  0  0
  -14.0822    0.8238    0.0000 H   0  0  0  0  0  0  0  0  0  0  0  0
  -15.8943    0.1645    0.0000 C   0  0  1  0  0  0  0  0  0  0  0  0
  -14.4172   -0.0962    0.0000 H   0  0  0  0  0  0  0  0  0  0  0  0
  -15.8946   -1.3355    0.0000 C   0  0  0  0  0  0  0  0  0  0  0  0
  -17.1937   -2.0852    0.0000 O   0  0  0  0  0  0  0  0  0  0  0  0
  -14.5957   -2.0857    0.0000 C   0  0  0  0  0  0  0  0  0  0  0  0
  -14.5957   -3.5865    0.0000 C   0  0  0  0  0  0  0  0  0  0  0  0
  -15.8949   -4.3361    0.0000 H   0  0  0  0  0  0  0  0  0  0  0  0
  -13.2964   -4.3377    0.0000 C   0  0  0  0  0  0  0  0  0  0  0  0
  -13.2971   -5.8377    0.0000 H   0  0  0  0  0  0  0  0  0  0  0  0
  -11.9971   -3.5882    0.0000 C   0  0  0  0  0  0  0  0  0  0  0  0
  -10.6982   -4.3384    0.0000 H   0  0  0  0  0  0  0  0  0  0  0  0
  -11.9971   -2.0873    0.0000 C   0  0  0  0  0  0  0  0  0  0  0  0
  -13.2964   -1.3361    0.0000 C   0  0  0  0  0  0  0  0  0  0  0  0
  -13.2957    0.1639    0.0000 H   0  0  0  0  0  0  0  0  0  0  0  0
  -10.6978   -1.3377    0.0000 S   0  0  0  0  0  0  0  0  0  0  0  0
   -9.3990   -2.0882    0.0000 C   0  0  0  0  0  0  0  0  0  0  0  0
   -8.4352   -3.2375    0.0000 H   0  0  0  0  0  0  0  0  0  0  0  0
  -10.3636   -3.2369    0.0000 H   0  0  0  0  0  0  0  0  0  0  0  0
   -8.0997   -1.3386    0.0000 C   0  0  0  0  0  0  0  0  0  0  0  0
   -9.0636   -0.1892    0.0000 H   0  0  0  0  0  0  0  0  0  0  0  0
   -7.1352   -0.1898    0.0000 C   0  0  0  0  0  0  0  0  0  0  0  0
   -5.6581   -0.4508    0.0000 O   0  0  0  0  0  0  0  0  0  0  0  0
   -7.6478    1.2199    0.0000 N   0  0  0  0  0  0  0  0  0  0  0  0
   -9.1249    1.4808    0.0000 H   0  0  0  0  0  0  0  0  0  0  0  0
   -6.6832    2.3686    0.0000 C   0  0  0  0  0  0  0  0  0  0  0  0
   -5.7194    1.2193    0.0000 H   0  0  0  0  0  0  0  0  0  0  0  0
   -5.3839    3.1182    0.0000 H   0  0  0  0  0  0  0  0  0  0  0  0
   -7.1958    3.7783    0.0000 C   0  0  0  0  0  0  0  0  0  0  0  0
   -8.6729    4.0393    0.0000 O   0  0  0  0  0  0  0  0  0  0  0  0
   -6.2313    4.9271    0.0000 O   0  0  0  0  0  0  0  0  0  0  0  0
   -6.7438    6.3368    0.0000 H   0  0  0  0  0  0  0  0  0  0  0  0
   -6.8009   -2.0890    0.0000 N   0  0  0  0  0  0  0  0  0  0  0  0
   -5.5017   -1.3394    0.0000 H   0  0  0  0  0  0  0  0  0  0  0  0
   -6.8014   -3.5890    0.0000 C   0  0  0  0  0  0  0  0  0  0  0  0
   -8.1007   -4.3386    0.0000 O   0  0  0  0  0  0  0  0  0  0  0  0
   -5.5026   -4.3394    0.0000 C   0  0  0  0  0  0  0  0  0  0  0  0
   -4.0255   -4.6004    0.0000 H   0  0  0  0  0  0  0  0  0  0  0  0
   -4.9892   -2.9300    0.0000 H   0  0  0  0  0  0  0  0  0  0  0  0
   -5.5031   -5.8394    0.0000 C   0  0  0  0  0  0  0  0  0  0  0  0
   -6.9802   -5.5785    0.0000 H   0  0  0  0  0  0  0  0  0  0  0  0
   -6.0166   -7.2488    0.0000 H   0  0  0  0  0  0  0  0  0  0  0  0
   -4.2043   -6.5898    0.0000 C   0  0  0  0  0  0  0  0  0  0  0  0
   -3.2405   -7.7392    0.0000 H   0  0  0  0  0  0  0  0  0  0  0  0
   -2.9050   -5.8402    0.0000 C   0  0  0  0  0  0  0  0  0  0  0  0
   -2.9046   -4.3402    0.0000 O   0  0  0  0  0  0  0  0  0  0  0  0
   -1.6062   -6.5907    0.0000 O   0  0  0  0  0  0  0  0  0  0  0  0
   -0.3070   -5.8411    0.0000 H   0  0  0  0  0  0  0  0  0  0  0  0
   -5.4775   -8.1062    0.0000 N   0  0  0  0  0  0  0  0  0  0  0  0
   -4.9649   -9.5159    0.0000 H   0  0  0  0  0  0  0  0  0  0  0  0
   -6.9546   -7.8452    0.0000 H   0  0  0  0  0  0  0  0  0  0  0  0
  -17.1933    0.9148    0.0000 N   0  0  0  0  0  0  0  0  0  0  0  0
  -17.1930    2.4148    0.0000 H   0  0  0  0  0  0  0  0  0  0  0  0
  -18.9081   -0.0750    0.0000 C   0  0  0  0  0  0  0  0  0  0  0  0
  -18.9084   -1.5750    0.0000 C   0  0  0  0  0  0  0  0  0  0  0  0
  -20.2075   -2.3248    0.0000 H   0  0  0  0  0  0  0  0  0  0  0  0
  -17.4311   -1.3147    0.0000 H   0  0  0  0  0  0  0  0  0  0  0  0
  -18.3956   -2.9846    0.0000 H   0  0  0  0  0  0  0  0  0  0  0  0
  -21.8036   -0.5850    0.0000 C   0  0  0  0  0  0  0  0  0  0  0  0
  -22.7676    0.5642    0.0000 H   0  0  0  0  0  0  0  0  0  0  0  0
  -23.1027   -1.3348    0.0000 H   0  0  0  0  0  0  0  0  0  0  0  0
  -21.2908   -1.9947    0.0000 H   0  0  0  0  0  0  0  0  0  0  0  0
  -19.4209    1.3347    0.0000 C   0  0  0  0  0  0  0  0  0  0  0  0
  -20.8981    1.5954    0.0000 H   0  0  0  0  0  0  0  0  0  0  0  0
  -19.4207    2.8347    0.0000 H   0  0  0  0  0  0  0  0  0  0  0  0
  -17.9437    1.5949    0.0000 H   0  0  0  0  0  0  0  0  0  0  0  0
  1  2  1  0  0  0  0 
  1  3  1  0  0  0  0 
  1  4  1  0  0  0  0 
  1  5  1  0  0  0  0 
  5  6  1  6  0  0  0 
  5  7  1  1  0  0  0 
  7  8  2  0  0  0  0 
  7  9  1  0  0  0  0 
  9 10  2  0  0  0  0 
 10 11  1  0  0  0  0 
 10 12  1  0  0  0  0 
 12 13  1  0  0  0  0 
 12 14  2  0  0  0  0 
 14 15  1  0  0  0  0 
 14 16  1  0  0  0  0 
 16 17  2  0  0  0  0 
  9 17  1  0  0  0  0 
 17 18  1  0  0  0  0 
 16 19  1  0  0  0  0 
 19 20  1  0  0  0  0 
 20 21  1  0  0  0  0 
 20 22  1  0  0  0  0 
 20 23  1  0  0  0  0 
 23 24  1  0  0  0  0 
 23 25  1  0  0  0  0 
 25 26  2  0  0  0  0 
 25 27  1  0  0  0  0 
 27 28  1  0  0  0  0 
 27 29  1  0  0  0  0 
 29 30  1  0  0  0  0 
 29 31  1  0  0  0  0 
 29 32  1  0  0  0  0 
 32 33  2  0  0  0  0 
 32 34  1  0  0  0  0 
 34 35  1  0  0  0  0 
 23 36  1  0  0  0  0 
 36 37  1  0  0  0  0 
 36 38  1  0  0  0  0 
 38 39  2  0  0  0  0 
 38 40  1  0  0  0  0 
 40 41  1  0  0  0  0 
 40 42  1  0  0  0  0 
 40 43  1  0  0  0  0 
 43 44  1  0  0  0  0 
 43 45  1  0  0  0  0 
 43 46  1  0  0  0  0 
 46 47  1  0  0  0  0 
 46 48  1  0  0  0  0 
 48 49  2  0  0  0  0 
 48 50  1  0  0  0  0 
 50 51  1  0  0  0  0 
 46 52  1  0  0  0  0 
 52 53  1  0  0  0  0 
 52 54  1  0  0  0  0 
  5 55  1  0  0  0  0 
 55 56  1  0  0  0  0 
 55 57  1  0  0  0  0 
 57 58  1  0  0  0  0 
 58 59  1  0  0  0  0 
 58 60  1  0  0  0  0 
 58 61  1  0  0  0  0 
 57 62  1  0  0  0  0 
 62 63  1  0  0  0  0 
 62 64  1  0  0  0  0 
 62 65  1  0  0  0  0 
 57 66  1  0  0  0  0 
 66 67  1  0  0  0  0 
 66 68  1  0  0  0  0 
 66 69  1  0  0  0  0 
M  END
> <Rank>
8

> <Priority_score>
0.208

> <Reaction_type>
glutathione_conjugation_(aromatic_nucleophilic_substitution)

> <Parent_ID>
53

> <Parent_InChI>
InChI=1S/C13H18ClNO/c1-9(15-13(2,3)4)12(16)10-6-5-7-11(14)8-10/h5-9,15H,1-4H3

> <Parent_SMILES>
C[C@H](NC(C)(C)C)C(=O)c1cccc(Cl)c1

$$$$
Molecule 53_metabolite 9
  CDK     0516241031

 19 19  0  0  0  0  0  0  0  0999 V2000
   -1.2997   -1.8879    0.0000 C   0  0  0  0  0  0  0  0  0  0  0  0
   -2.6011   -1.1419    0.0000 H   0  0  0  0  0  0  0  0  0  0  0  0
   -2.2604   -3.0400    0.0000 H   0  0  0  0  0  0  0  0  0  0  0  0
   -0.3321   -3.0341    0.0000 H   0  0  0  0  0  0  0  0  0  0  0  0
   -0.0030   -1.1340    0.0000 C   0  0  0  0  0  0  0  0  0  0  0  0
   -0.0076    0.3660    0.0000 O   0  0  0  0  0  0  0  0  0  0  0  0
    1.2983   -1.8800    0.0000 C   0  0  0  0  0  0  0  0  0  0  0  0
    1.3029   -3.3800    0.0000 O   0  0  0  0  0  0  0  0  0  0  0  0
    2.5951   -1.1260    0.0000 C   0  0  0  0  0  0  0  0  0  0  0  0
    2.5951    0.3740    0.0000 C   0  0  0  0  0  0  0  0  0  0  0  0
    1.2940    1.1204    0.0000 H   0  0  0  0  0  0  0  0  0  0  0  0
    3.8951    1.1340    0.0000 C   0  0  0  0  0  0  0  0  0  0  0  0
    3.8951    2.6340    0.0000 H   0  0  0  0  0  0  0  0  0  0  0  0
    5.1951    0.3740    0.0000 C   0  0  0  0  0  0  0  0  0  0  0  0
    6.4961    1.1204    0.0000 H   0  0  0  0  0  0  0  0  0  0  0  0
    5.1951   -1.1260    0.0000 C   0  0  0  0  0  0  0  0  0  0  0  0
    3.8951   -1.8660    0.0000 C   0  0  0  0  0  0  0  0  0  0  0  0
    3.8951   -3.3660    0.0000 H   0  0  0  0  0  0  0  0  0  0  0  0
    6.4918   -1.8800    0.0000 Cl  0  0  0  0  0  0  0  0  0  0  0  0
  1  2  1  0  0  0  0 
  1  3  1  0  0  0  0 
  1  4  1  0  0  0  0 
  1  5  1  0  0  0  0 
  5  6  2  0  0  0  0 
  5  7  1  0  0  0  0 
  7  8  2  0  0  0  0 
  7  9  1  0  0  0  0 
  9 10  2  0  0  0  0 
 10 11  1  0  0  0  0 
 10 12  1  0  0  0  0 
 12 13  1  0  0  0  0 
 12 14  2  0  0  0  0 
 14 15  1  0  0  0  0 
 14 16  1  0  0  0  0 
 16 17  2  0  0  0  0 
  9 17  1  0  0  0  0 
 17 18  1  0  0  0  0 
 16 19  1  0  0  0  0 
M  END
> <Rank>
9

> <Priority_score>
0.184

> <Reaction_type>
N-dealkylation

> <Parent_ID>
53

> <Parent_InChI>
InChI=1S/C13H18ClNO/c1-9(15-13(2,3)4)12(16)10-6-5-7-11(14)8-10/h5-9,15H,1-4H3

> <Parent_SMILES>
C[C@H](NC(C)(C)C)C(=O)c1cccc(Cl)c1

$$$$
Molecule 53_metabolite 10
  CDK     0516241031

 16 15  0  0  0  0  0  0  0  0999 V2000
    2.8149    2.0098    0.0000 C   0  0  0  0  0  0  0  0  0  0  0  0
    4.3149    2.0098    0.0000 H   0  0  0  0  0  0  0  0  0  0  0  0
    3.0754    3.4870    0.0000 H   0  0  0  0  0  0  0  0  0  0  0  0
    1.4053    2.5228    0.0000 H   0  0  0  0  0  0  0  0  0  0  0  0
    2.0649    0.7107    0.0000 C   0  0  0  0  0  0  0  0  0  0  0  0
    0.0849    0.7107    0.0000 C   0  0  0  0  0  0  0  0  0  0  0  0
   -0.6651   -0.5883    0.0000 H   0  0  0  0  0  0  0  0  0  0  0  0
    0.3454    2.1879    0.0000 H   0  0  0  0  0  0  0  0  0  0  0  0
   -1.3247    1.2238    0.0000 H   0  0  0  0  0  0  0  0  0  0  0  0
    1.7211   -1.2392    0.0000 C   0  0  0  0  0  0  0  0  0  0  0  0
    2.8701   -2.2034    0.0000 H   0  0  0  0  0  0  0  0  0  0  0  0
    0.3115   -0.7262    0.0000 H   0  0  0  0  0  0  0  0  0  0  0  0
    0.9711   -2.5382    0.0000 H   0  0  0  0  0  0  0  0  0  0  0  0
    3.4744    0.1977    0.0000 N   0  0  0  0  0  0  0  0  0  0  0  0
    4.6235    1.1619    0.0000 H   0  0  0  0  0  0  0  0  0  0  0  0
    3.7349   -1.2795    0.0000 H   0  0  0  0  0  0  0  0  0  0  0  0
  1  2  1  0  0  0  0 
  1  3  1  0  0  0  0 
  1  4  1  0  0  0  0 
  1  5  1  0  0  0  0 
  5  6  1  0  0  0  0 
  6  7  1  0  0  0  0 
  6  8  1  0  0  0  0 
  6  9  1  0  0  0  0 
  5 10  1  0  0  0  0 
 10 11  1  0  0  0  0 
 10 12  1  0  0  0  0 
 10 13  1  0  0  0  0 
  5 14  1  0  0  0  0 
 14 15  1  0  0  0  0 
 14 16  1  0  0  0  0 
M  END
> <Rank>
9

> <Priority_score>
0.184

> <Reaction_type>
N-dealkylation

> <Parent_ID>
53

> <Parent_InChI>
InChI=1S/C13H18ClNO/c1-9(15-13(2,3)4)12(16)10-6-5-7-11(14)8-10/h5-9,15H,1-4H3

> <Parent_SMILES>
C[C@H](NC(C)(C)C)C(=O)c1cccc(Cl)c1

$$$$
Molecule 53_metabolite 11
  CDK     0516241031

 35 35  0  0  0  0  0  0  0  0999 V2000
    4.6365    1.7130    0.0000 C   0  0  0  0  0  0  0  0  0  0  0  0
    4.1192    3.1210    0.0000 H   0  0  0  0  0  0  0  0  0  0  0  0
    5.6042    0.5669    0.0000 H   0  0  0  0  0  0  0  0  0  0  0  0
    7.1781    3.1908    0.0000 H   0  0  0  0  0  0  0  0  0  0  0  0
    3.6758    0.5610    0.0000 C   0  0  1  0  0  0  0  0  0  0  0  0
    2.7082    1.7071    0.0000 H   0  0  0  0  0  0  0  0  0  0  0  0
    5.8100   -0.6625    0.0000 C   0  0  0  0  0  0  0  0  0  0  0  0
    5.8146   -2.1625    0.0000 O   0  0  0  0  0  0  0  0  0  0  0  0
    7.5217    0.3328    0.0000 C   0  0  0  0  0  0  0  0  0  0  0  0
    7.5217    1.8328    0.0000 C   0  0  0  0  0  0  0  0  0  0  0  0
    6.2206    2.5792    0.0000 H   0  0  0  0  0  0  0  0  0  0  0  0
    8.8217    2.5928    0.0000 C   0  0  0  0  0  0  0  0  0  0  0  0
    8.8217    4.0928    0.0000 H   0  0  0  0  0  0  0  0  0  0  0  0
   10.1217    1.8328    0.0000 C   0  0  0  0  0  0  0  0  0  0  0  0
   11.4228    2.5792    0.0000 H   0  0  0  0  0  0  0  0  0  0  0  0
   10.1217    0.3328    0.0000 C   0  0  0  0  0  0  0  0  0  0  0  0
    8.8217   -0.4072    0.0000 C   0  0  0  0  0  0  0  0  0  0  0  0
    8.8217   -1.9072    0.0000 H   0  0  0  0  0  0  0  0  0  0  0  0
   11.4185   -0.4212    0.0000 Cl  0  0  0  0  0  0  0  0  0  0  0  0
    2.3791   -0.1930    0.0000 N   0  0  0  0  0  0  0  0  0  0  0  0
    0.6614    0.7918    0.0000 C   0  0  0  0  0  0  0  0  0  0  0  0
   -0.6354    0.0378    0.0000 C   0  0  0  0  0  0  0  0  0  0  0  0
   -1.9367    0.7839    0.0000 H   0  0  0  0  0  0  0  0  0  0  0  0
   -1.5960   -1.1142    0.0000 H   0  0  0  0  0  0  0  0  0  0  0  0
    0.3323   -1.1083    0.0000 H   0  0  0  0  0  0  0  0  0  0  0  0
    1.6220    1.9438    0.0000 C   0  0  0  0  0  0  0  0  0  0  0  0
    0.9391    3.8023    0.0000 H   0  0  0  0  0  0  0  0  0  0  0  0
    2.5897    0.7977    0.0000 H   0  0  0  0  0  0  0  0  0  0  0  0
    2.9188    2.6978    0.0000 H   0  0  0  0  0  0  0  0  0  0  0  0
   -0.3063    1.9379    0.0000 C   0  0  0  0  0  0  0  0  0  0  0  0
   -1.7827    1.6729    0.0000 H   0  0  0  0  0  0  0  0  0  0  0  0
    0.9904    2.6919    0.0000 H   0  0  0  0  0  0  0  0  0  0  0  0
   -0.8237    3.3459    0.0000 H   0  0  0  0  0  0  0  0  0  0  0  0
    2.3837   -1.6929    0.0000 O   0  0  0  0  0  0  0  0  0  0  0  0
    1.0870   -2.4469    0.0000 H   0  0  0  0  0  0  0  0  0  0  0  0
  1  2  1  0  0  0  0 
  1  3  1  0  0  0  0 
  1  4  1  0  0  0  0 
  1  5  1  0  0  0  0 
  5  6  1  6  0  0  0 
  5  7  1  0  0  0  0 
  7  8  2  0  0  0  0 
  7  9  1  0  0  0  0 
  9 10  2  0  0  0  0 
 10 11  1  0  0  0  0 
 10 12  1  0  0  0  0 
 12 13  1  0  0  0  0 
 12 14  2  0  0  0  0 
 14 15  1  0  0  0  0 
 14 16  1  0  0  0  0 
 16 17  2  0  0  0  0 
  9 17  1  0  0  0  0 
 17 18  1  0  0  0  0 
 16 19  1  0  0  0  0 
  5 20  1  1  0  0  0 
 20 21  1  0  0  0  0 
 21 22  1  0  0  0  0 
 22 23  1  0  0  0  0 
 22 24  1  0  0  0  0 
 22 25  1  0  0  0  0 
 21 26  1  0  0  0  0 
 26 27  1  0  0  0  0 
 26 28  1  0  0  0  0 
 26 29  1  0  0  0  0 
 21 30  1  0  0  0  0 
 30 31  1  0  0  0  0 
 30 32  1  0  0  0  0 
 30 33  1  0  0  0  0 
 20 34  1  0  0  0  0 
 34 35  1  0  0  0  0 
M  END
> <Rank>
9

> <Priority_score>
0.184

> <Reaction_type>
amine hydroxylation

> <Parent_ID>
53

> <Parent_InChI>
InChI=1S/C13H18ClNO/c1-9(15-13(2,3)4)12(16)10-6-5-7-11(14)8-10/h5-9,15H,1-4H3

> <Parent_SMILES>
C[C@H](NC(C)(C)C)C(=O)c1cccc(Cl)c1

$$$$
Molecule 53_metabolite 12
  CDK     0516241031

 20 19  0  0  0  0  0  0  0  0999 V2000
    7.7252   -1.7563    0.0000 C   0  0  0  0  0  0  0  0  0  0  0  0
    9.0242   -1.0063    0.0000 H   0  0  0  0  0  0  0  0  0  0  0  0
    7.7252   -3.2563    0.0000 H   0  0  0  0  0  0  0  0  0  0  0  0
    6.4261   -1.0063    0.0000 C   0  0  0  0  0  0  0  0  0  0  0  0
    6.4261    0.4937    0.0000 H   0  0  0  0  0  0  0  0  0  0  0  0
    5.1271   -1.7563    0.0000 N   0  0  0  0  0  0  0  0  0  0  0  0
    5.1271   -3.2563    0.0000 H   0  0  0  0  0  0  0  0  0  0  0  0
    3.4124   -0.7663    0.0000 C   0  0  0  0  0  0  0  0  0  0  0  0
    3.4124    0.7337    0.0000 C   0  0  0  0  0  0  0  0  0  0  0  0
    2.1133    1.4837    0.0000 H   0  0  0  0  0  0  0  0  0  0  0  0
    4.8896    0.4732    0.0000 H   0  0  0  0  0  0  0  0  0  0  0  0
    3.9254    2.1432    0.0000 H   0  0  0  0  0  0  0  0  0  0  0  0
    1.9352   -0.5058    0.0000 C   0  0  0  0  0  0  0  0  0  0  0  0
    1.4221    0.9037    0.0000 H   0  0  0  0  0  0  0  0  0  0  0  0
    0.4579   -0.7663    0.0000 H   0  0  0  0  0  0  0  0  0  0  0  0
    1.9352   -2.0058    0.0000 H   0  0  0  0  0  0  0  0  0  0  0  0
    2.8993   -2.1758    0.0000 C   0  0  0  0  0  0  0  0  0  0  0  0
    0.9494   -2.5197    0.0000 H   0  0  0  0  0  0  0  0  0  0  0  0
    2.8993   -3.6758    0.0000 H   0  0  0  0  0  0  0  0  0  0  0  0
    4.3765   -2.4363    0.0000 H   0  0  0  0  0  0  0  0  0  0  0  0
  1  2  1  0  0  0  0 
  1  3  1  0  0  0  0 
  1  4  2  0  0  0  0 
  4  5  1  0  0  0  0 
  4  6  1  0  0  0  0 
  6  7  1  0  0  0  0 
  6  8  1  0  0  0  0 
  8  9  1  0  0  0  0 
  9 10  1  0  0  0  0 
  9 11  1  0  0  0  0 
  9 12  1  0  0  0  0 
  8 13  1  0  0  0  0 
 13 14  1  0  0  0  0 
 13 15  1  0  0  0  0 
 13 16  1  0  0  0  0 
  8 17  1  0  0  0  0 
 17 18  1  0  0  0  0 
 17 19  1  0  0  0  0 
 17 20  1  0  0  0  0 
M  END
> <Rank>
12

> <Priority_score>
0.1648

> <Reaction_type>
deformylation

> <Parent_ID>
53

> <Parent_InChI>
InChI=1S/C13H18ClNO/c1-9(15-13(2,3)4)12(16)10-6-5-7-11(14)8-10/h5-9,15H,1-4H3

> <Parent_SMILES>
C[C@H](NC(C)(C)C)C(=O)c1cccc(Cl)c1

$$$$
Molecule 53_metabolite 13
  CDK     0516241031

 14 14  0  0  0  0  0  0  0  0999 V2000
   -0.9808   -0.5649    0.0000 C   0  0  0  0  0  0  0  0  0  0  0  0
   -2.2799   -1.3149    0.0000 H   0  0  0  0  0  0  0  0  0  0  0  0
   -0.9727    0.9409    0.0000 C   0  0  0  0  0  0  0  0  0  0  0  0
   -2.2697    1.6945    0.0000 H   0  0  0  0  0  0  0  0  0  0  0  0
    0.3264    1.6909    0.0000 C   0  0  0  0  0  0  0  0  0  0  0  0
    1.6172    0.9351    0.0000 C   0  0  0  0  0  0  0  0  0  0  0  0
    2.9163    1.6851    0.0000 H   0  0  0  0  0  0  0  0  0  0  0  0
    1.6264   -0.5607    0.0000 C   0  0  0  0  0  0  0  0  0  0  0  0
    0.3273   -1.3107    0.0000 C   0  0  0  0  0  0  0  0  0  0  0  0
    0.3314   -2.8107    0.0000 H   0  0  0  0  0  0  0  0  0  0  0  0
    2.9277   -1.3068    0.0000 C   0  0  0  0  0  0  0  0  0  0  0  0
    2.9323   -2.8067    0.0000 H   0  0  0  0  0  0  0  0  0  0  0  0
    4.2244   -0.5528    0.0000 O   0  0  0  0  0  0  0  0  0  0  0  0
    0.3310    3.1909    0.0000 Cl  0  0  0  0  0  0  0  0  0  0  0  0
  1  2  1  0  0  0  0 
  1  3  2  0  0  0  0 
  3  4  1  0  0  0  0 
  3  5  1  0  0  0  0 
  5  6  2  0  0  0  0 
  6  7  1  0  0  0  0 
  6  8  1  0  0  0  0 
  8  9  2  0  0  0  0 
  1  9  1  0  0  0  0 
  9 10  1  0  0  0  0 
  8 11  1  0  0  0  0 
 11 12  1  0  0  0  0 
 11 13  2  0  0  0  0 
  5 14  1  0  0  0  0 
M  END
> <Rank>
12

> <Priority_score>
0.1648

> <Reaction_type>
deformylation

> <Parent_ID>
53

> <Parent_InChI>
InChI=1S/C13H18ClNO/c1-9(15-13(2,3)4)12(16)10-6-5-7-11(14)8-10/h5-9,15H,1-4H3

> <Parent_SMILES>
C[C@H](NC(C)(C)C)C(=O)c1cccc(Cl)c1

$$$$
Molecule 53_metabolite 14
  CDK     0516241031

 32 32  0  0  0  0  0  0  0  0999 V2000
    2.9902    2.2247    0.0000 C   0  0  0  0  0  0  0  0  0  0  0  0
    4.2915    1.4787    0.0000 H   0  0  0  0  0  0  0  0  0  0  0  0
    1.6934    1.4708    0.0000 H   0  0  0  0  0  0  0  0  0  0  0  0
    2.9856    3.7247    0.0000 C   0  0  0  0  0  0  0  0  0  0  0  0
    0.8514    4.9482    0.0000 C   0  0  0  0  0  0  0  0  0  0  0  0
    0.8468    6.4482    0.0000 O   0  0  0  0  0  0  0  0  0  0  0  0
   -0.4453    4.1942    0.0000 C   0  0  0  0  0  0  0  0  0  0  0  0
   -1.7489    4.9363    0.0000 C   0  0  0  0  0  0  0  0  0  0  0  0
   -1.7540    6.4363    0.0000 H   0  0  0  0  0  0  0  0  0  0  0  0
   -3.0525    4.1825    0.0000 C   0  0  0  0  0  0  0  0  0  0  0  0
   -4.3561    4.9245    0.0000 H   0  0  0  0  0  0  0  0  0  0  0  0
   -3.0352    2.6767    0.0000 C   0  0  0  0  0  0  0  0  0  0  0  0
   -4.3275    1.9153    0.0000 H   0  0  0  0  0  0  0  0  0  0  0  0
   -1.7316    1.9347    0.0000 C   0  0  0  0  0  0  0  0  0  0  0  0
   -0.4453    2.6984    0.0000 C   0  0  0  0  0  0  0  0  0  0  0  0
    0.8583    1.9563    0.0000 H   0  0  0  0  0  0  0  0  0  0  0  0
   -1.7178    0.4347    0.0000 Cl  0  0  0  0  0  0  0  0  0  0  0  0
    4.2823    4.4787    0.0000 N   0  0  0  0  0  0  0  0  0  0  0  0
    4.2777    5.9787    0.0000 H   0  0  0  0  0  0  0  0  0  0  0  0
    6.0001    3.4939    0.0000 C   0  0  0  0  0  0  0  0  0  0  0  0
    6.0046    1.9939    0.0000 C   0  0  0  0  0  0  0  0  0  0  0  0
    7.3060    1.2479    0.0000 H   0  0  0  0  0  0  0  0  0  0  0  0
    5.4959    0.5828    0.0000 H   0  0  0  0  0  0  0  0  0  0  0  0
    4.5266    2.2499    0.0000 H   0  0  0  0  0  0  0  0  0  0  0  0
    6.5088    4.9050    0.0000 C   0  0  0  0  0  0  0  0  0  0  0  0
    8.4576    5.2548    0.0000 H   0  0  0  0  0  0  0  0  0  0  0  0
    5.0308    5.1610    0.0000 H   0  0  0  0  0  0  0  0  0  0  0  0
    6.5042    6.4050    0.0000 H   0  0  0  0  0  0  0  0  0  0  0  0
    7.4781    3.2380    0.0000 C   0  0  0  0  0  0  0  0  0  0  0  0
    7.9954    1.8300    0.0000 H   0  0  0  0  0  0  0  0  0  0  0  0
    7.4735    4.7380    0.0000 H   0  0  0  0  0  0  0  0  0  0  0  0
    8.9545    3.5030    0.0000 H   0  0  0  0  0  0  0  0  0  0  0  0
  1  2  1  0  0  0  0 
  1  3  1  0  0  0  0 
  1  4  2  0  0  0  0 
  4  5  1  0  0  0  0 
  5  6  2  0  0  0  0 
  5  7  1  0  0  0  0 
  7  8  2  0  0  0  0 
  8  9  1  0  0  0  0 
  8 10  1  0  0  0  0 
 10 11  1  0  0  0  0 
 10 12  2  0  0  0  0 
 12 13  1  0  0  0  0 
 12 14  1  0  0  0  0 
 14 15  2  0  0  0  0 
  7 15  1  0  0  0  0 
 15 16  1  0  0  0  0 
 14 17  1  0  0  0  0 
  4 18  1  0  0  0  0 
 18 19  1  0  0  0  0 
 18 20  1  0  0  0  0 
 20 21  1  0  0  0  0 
 21 22  1  0  0  0  0 
 21 23  1  0  0  0  0 
 21 24  1  0  0  0  0 
 20 25  1  0  0  0  0 
 25 26  1  0  0  0  0 
 25 27  1  0  0  0  0 
 25 28  1  0  0  0  0 
 20 29  1  0  0  0  0 
 29 30  1  0  0  0  0 
 29 31  1  0  0  0  0 
 29 32  1  0  0  0  0 
M  END
> <Rank>
14

> <Priority_score>
0.07942188047985389

> <Reaction_type>
alkyl dehydrogenation

> <Parent_ID>
53

> <Parent_InChI>
InChI=1S/C13H18ClNO/c1-9(15-13(2,3)4)12(16)10-6-5-7-11(14)8-10/h5-9,15H,1-4H3

> <Parent_SMILES>
C[C@H](NC(C)(C)C)C(=O)c1cccc(Cl)c1

$$$$
Molecule 53_metabolite 15
  CDK     0516241031

 32 32  0  0  0  0  0  0  0  0999 V2000
    6.6355    4.4226    0.0000 C   0  0  0  0  0  0  0  0  0  0  0  0
    8.1354    4.4272    0.0000 H   0  0  0  0  0  0  0  0  0  0  0  0
    5.2244    4.9313    0.0000 H   0  0  0  0  0  0  0  0  0  0  0  0
    6.8914    5.9006    0.0000 H   0  0  0  0  0  0  0  0  0  0  0  0
    5.8894    3.1213    0.0000 C   0  0  0  0  0  0  0  0  0  0  0  0
    6.6434    1.8245    0.0000 N   0  0  0  0  0  0  0  0  0  0  0  0
    8.1434    1.8291    0.0000 C   0  0  0  0  0  0  0  0  0  0  0  0
    8.8894    3.1305    0.0000 C   0  0  0  0  0  0  0  0  0  0  0  0
   10.3894    3.1350    0.0000 H   0  0  0  0  0  0  0  0  0  0  0  0
    9.1454    4.6085    0.0000 H   0  0  0  0  0  0  0  0  0  0  0  0
    7.4783    3.6392    0.0000 H   0  0  0  0  0  0  0  0  0  0  0  0
    7.8055   -0.1218    0.0000 C   0  0  0  0  0  0  0  0  0  0  0  0
    8.9575   -1.0825    0.0000 H   0  0  0  0  0  0  0  0  0  0  0  0
    6.3944    0.3869    0.0000 H   0  0  0  0  0  0  0  0  0  0  0  0
    7.0595   -1.4232    0.0000 H   0  0  0  0  0  0  0  0  0  0  0  0
    9.5545    1.3204    0.0000 C   0  0  0  0  0  0  0  0  0  0  0  0
   10.7006    2.2881    0.0000 H   0  0  0  0  0  0  0  0  0  0  0  0
    8.8085    0.0191    0.0000 H   0  0  0  0  0  0  0  0  0  0  0  0
   10.7065    0.3597    0.0000 H   0  0  0  0  0  0  0  0  0  0  0  0
    4.3894    3.1167    0.0000 C   0  0  0  0  0  0  0  0  0  0  0  0
    3.6434    1.8154    0.0000 O   0  0  0  0  0  0  0  0  0  0  0  0
    3.6355    4.4134    0.0000 C   0  0  0  0  0  0  0  0  0  0  0  0
    4.3775    5.7170    0.0000 C   0  0  0  0  0  0  0  0  0  0  0  0
    5.8775    5.7221    0.0000 H   0  0  0  0  0  0  0  0  0  0  0  0
    3.6237    7.0206    0.0000 C   0  0  0  0  0  0  0  0  0  0  0  0
    4.3657    8.3242    0.0000 H   0  0  0  0  0  0  0  0  0  0  0  0
    2.1179    7.0033    0.0000 C   0  0  0  0  0  0  0  0  0  0  0  0
    1.3565    8.2956    0.0000 H   0  0  0  0  0  0  0  0  0  0  0  0
    1.3759    5.6997    0.0000 C   0  0  0  0  0  0  0  0  0  0  0  0
    2.1396    4.4134    0.0000 C   0  0  0  0  0  0  0  0  0  0  0  0
    1.3976    3.1098    0.0000 H   0  0  0  0  0  0  0  0  0  0  0  0
   -0.1240    5.6859    0.0000 Cl  0  0  0  0  0  0  0  0  0  0  0  0
  1  2  1  0  0  0  0 
  1  3  1  0  0  0  0 
  1  4  1  0  0  0  0 
  1  5  1  0  0  0  0 
  5  6  2  0  0  0  0 
  6  7  1  0  0  0  0 
  7  8  1  0  0  0  0 
  8  9  1  0  0  0  0 
  8 10  1  0  0  0  0 
  8 11  1  0  0  0  0 
  7 12  1  0  0  0  0 
 12 13  1  0  0  0  0 
 12 14  1  0  0  0  0 
 12 15  1  0  0  0  0 
  7 16  1  0  0  0  0 
 16 17  1  0  0  0  0 
 16 18  1  0  0  0  0 
 16 19  1  0  0  0  0 
  5 20  1  4  0  0  0 
 20 21  2  0  0  0  0 
 20 22  1  0  0  0  0 
 22 23  2  0  0  0  0 
 23 24  1  0  0  0  0 
 23 25  1  0  0  0  0 
 25 26  1  0  0  0  0 
 25 27  2  0  0  0  0 
 27 28  1  0  0  0  0 
 27 29  1  0  0  0  0 
 29 30  2  0  0  0  0 
 22 30  1  0  0  0  0 
 30 31  1  0  0  0  0 
 29 32  1  0  0  0  0 
M  END
> <Rank>
15

> <Priority_score>
0.0368

> <Reaction_type>
dehydration of N-C bond

> <Parent_ID>
53

> <Parent_InChI>
InChI=1S/C13H18ClNO/c1-9(15-13(2,3)4)12(16)10-6-5-7-11(14)8-10/h5-9,15H,1-4H3

> <Parent_SMILES>
C[C@H](NC(C)(C)C)C(=O)c1cccc(Cl)c1

$$$$
Molecule 53_metabolite 16
  CDK     0516241031

 33 33  0  0  0  0  0  0  0  0999 V2000
    4.7832    2.7027    0.0000 C   0  0  0  0  0  0  0  0  0  0  0  0
    3.4864    1.9487    0.0000 H   0  0  0  0  0  0  0  0  0  0  0  0
    6.2596    2.9677    0.0000 H   0  0  0  0  0  0  0  0  0  0  0  0
    5.3005    1.2947    0.0000 H   0  0  0  0  0  0  0  0  0  0  0  0
    4.7786    4.2027    0.0000 C   0  0  0  0  0  0  0  0  0  0  0  0
    3.4773    4.9487    0.0000 N   0  0  0  0  0  0  0  0  0  0  0  0
    3.4727    6.4487    0.0000 H   0  0  0  0  0  0  0  0  0  0  0  0
    1.7656    3.9535    0.0000 C   0  0  0  0  0  0  0  0  0  0  0  0
    1.7701    2.4535    0.0000 C   0  0  0  0  0  0  0  0  0  0  0  0
    0.4734    1.6995    0.0000 H   0  0  0  0  0  0  0  0  0  0  0  0
    2.2875    1.0455    0.0000 H   0  0  0  0  0  0  0  0  0  0  0  0
    3.2466    2.7184    0.0000 H   0  0  0  0  0  0  0  0  0  0  0  0
    1.2482    5.3614    0.0000 C   0  0  0  0  0  0  0  0  0  0  0  0
   -0.7027    5.6993    0.0000 H   0  0  0  0  0  0  0  0  0  0  0  0
    2.7246    5.6264    0.0000 H   0  0  0  0  0  0  0  0  0  0  0  0
    1.2436    6.8614    0.0000 H   0  0  0  0  0  0  0  0  0  0  0  0
    0.2892    3.6885    0.0000 C   0  0  0  0  0  0  0  0  0  0  0  0
   -0.2196    2.2774    0.0000 H   0  0  0  0  0  0  0  0  0  0  0  0
    0.2846    5.1885    0.0000 H   0  0  0  0  0  0  0  0  0  0  0  0
   -1.1888    3.9444    0.0000 H   0  0  0  0  0  0  0  0  0  0  0  0
    6.0753    4.9566    0.0000 C   0  0  0  0  0  0  0  0  0  0  0  0
    6.0707    6.4566    0.0000 O   0  0  0  0  0  0  0  0  0  0  0  0
    7.3766    4.2106    0.0000 C   0  0  0  0  0  0  0  0  0  0  0  0
    7.3858    2.7106    0.0000 C   0  0  0  0  0  0  0  0  0  0  0  0
    6.0893    1.9562    0.0000 H   0  0  0  0  0  0  0  0  0  0  0  0
    8.6904    1.9586    0.0000 C   0  0  0  0  0  0  0  0  0  0  0  0
    8.6996    0.4586    0.0000 H   0  0  0  0  0  0  0  0  0  0  0  0
    9.9858    2.7265    0.0000 C   0  0  0  0  0  0  0  0  0  0  0  0
   11.2914    1.9880    0.0000 H   0  0  0  0  0  0  0  0  0  0  0  0
    9.9766    4.2265    0.0000 C   0  0  0  0  0  0  0  0  0  0  0  0
    8.6721    4.9585    0.0000 C   0  0  0  0  0  0  0  0  0  0  0  0
    8.6629    6.4585    0.0000 H   0  0  0  0  0  0  0  0  0  0  0  0
   11.2687    4.9884    0.0000 Cl  0  0  0  0  0  0  0  0  0  0  0  0
  1  2  1  0  0  0  0 
  1  3  1  0  0  0  0 
  1  4  1  0  0  0  0 
  1  5  1  0  0  0  0 
  5  6  2  0  0  0  0 
  6  7  1  4  0  0  0 
  6  8  1  0  0  0  0 
  8  9  1  0  0  0  0 
  9 10  1  0  0  0  0 
  9 11  1  0  0  0  0 
  9 12  1  0  0  0  0 
  8 13  1  0  0  0  0 
 13 14  1  0  0  0  0 
 13 15  1  0  0  0  0 
 13 16  1  0  0  0  0 
  8 17  1  0  0  0  0 
 17 18  1  0  0  0  0 
 17 19  1  0  0  0  0 
 17 20  1  0  0  0  0 
  5 21  1  0  0  0  0 
 21 22  2  0  0  0  0 
 21 23  1  0  0  0  0 
 23 24  2  0  0  0  0 
 24 25  1  0  0  0  0 
 24 26  1  0  0  0  0 
 26 27  1  0  0  0  0 
 26 28  2  0  0  0  0 
 28 29  1  0  0  0  0 
 28 30  1  0  0  0  0 
 30 31  2  0  0  0  0 
 23 31  1  0  0  0  0 
 31 32  1  0  0  0  0 
 30 33  1  0  0  0  0 
M  CHG  1   6   1
M  END
> <Rank>
15

> <Priority_score>
0.0368

> <Reaction_type>
dehydration of N-C bond

> <Parent_ID>
53

> <Parent_InChI>
InChI=1S/C13H18ClNO/c1-9(15-13(2,3)4)12(16)10-6-5-7-11(14)8-10/h5-9,15H,1-4H3

> <Parent_SMILES>
C[C@H](NC(C)(C)C)C(=O)c1cccc(Cl)c1

$$$$
Molecule 53_metabolite 17
  CDK     0516241031

 35 35  0  0  0  0  0  0  0  0999 V2000
   -9.8824    3.3091    0.0000 C   0  0  0  0  0  0  0  0  0  0  0  0
  -11.3596    3.0489    0.0000 H   0  0  0  0  0  0  0  0  0  0  0  0
  -10.3952    4.7187    0.0000 H   0  0  0  0  0  0  0  0  0  0  0  0
   -8.5832    4.0589    0.0000 H   0  0  0  0  0  0  0  0  0  0  0  0
   -8.9184    2.1599    0.0000 C   0  0  1  0  0  0  0  0  0  0  0  0
   -7.9540    3.3088    0.0000 H   0  0  0  0  0  0  0  0  0  0  0  0
   -7.6195    1.4097    0.0000 C   0  0  0  0  0  0  0  0  0  0  0  0
   -7.6197   -0.0903    0.0000 O   0  0  0  0  0  0  0  0  0  0  0  0
   -6.3203    2.1595    0.0000 C   0  0  0  0  0  0  0  0  0  0  0  0
   -5.0205    1.4090    0.0000 C   0  0  0  0  0  0  0  0  0  0  0  0
   -5.0210   -0.0910    0.0000 H   0  0  0  0  0  0  0  0  0  0  0  0
   -3.7203    2.1586    0.0000 C   0  0  0  0  0  0  0  0  0  0  0  0
   -2.4216    1.4080    0.0000 H   0  0  0  0  0  0  0  0  0  0  0  0
   -3.7198    3.6586    0.0000 C   0  0  0  0  0  0  0  0  0  0  0  0
   -2.4207    4.4084    0.0000 H   0  0  0  0  0  0  0  0  0  0  0  0
   -5.0196    4.4090    0.0000 C   0  0  0  0  0  0  0  0  0  0  0  0
   -6.3198    3.6595    0.0000 C   0  0  0  0  0  0  0  0  0  0  0  0
   -7.6185    4.4101    0.0000 O   0  0  0  0  0  0  0  0  0  0  0  0
   -7.6178    5.9101    0.0000 H   0  0  0  0  0  0  0  0  0  0  0  0
   -5.0191    5.9090    0.0000 Cl  0  0  0  0  0  0  0  0  0  0  0  0
  -10.2175    1.4101    0.0000 N   0  0  0  0  0  0  0  0  0  0  0  0
  -11.5165    2.1603    0.0000 H   0  0  0  0  0  0  0  0  0  0  0  0
  -10.2179   -0.5699    0.0000 C   0  0  0  0  0  0  0  0  0  0  0  0
   -8.9189   -1.3201    0.0000 C   0  0  0  0  0  0  0  0  0  0  0  0
   -8.9193   -3.3001    0.0000 H   0  0  0  0  0  0  0  0  0  0  0  0
   -8.4057    0.0893    0.0000 H   0  0  0  0  0  0  0  0  0  0  0  0
   -7.4418   -1.5808    0.0000 H   0  0  0  0  0  0  0  0  0  0  0  0
  -10.7311   -1.9794    0.0000 C   0  0  0  0  0  0  0  0  0  0  0  0
  -12.2084   -2.2396    0.0000 H   0  0  0  0  0  0  0  0  0  0  0  0
  -10.7314   -3.4794    0.0000 H   0  0  0  0  0  0  0  0  0  0  0  0
   -9.2539   -2.2401    0.0000 H   0  0  0  0  0  0  0  0  0  0  0  0
  -11.6950   -0.3092    0.0000 C   0  0  0  0  0  0  0  0  0  0  0  0
  -12.6594   -1.4581    0.0000 H   0  0  0  0  0  0  0  0  0  0  0  0
  -12.9939    0.4410    0.0000 H   0  0  0  0  0  0  0  0  0  0  0  0
  -11.1818    1.1002    0.0000 H   0  0  0  0  0  0  0  0  0  0  0  0
  1  2  1  0  0  0  0 
  1  3  1  0  0  0  0 
  1  4  1  0  0  0  0 
  1  5  1  0  0  0  0 
  5  6  1  6  0  0  0 
  5  7  1  1  0  0  0 
  7  8  2  0  0  0  0 
  7  9  1  0  0  0  0 
  9 10  2  0  0  0  0 
 10 11  1  0  0  0  0 
 10 12  1  0  0  0  0 
 12 13  1  0  0  0  0 
 12 14  2  0  0  0  0 
 14 15  1  0  0  0  0 
 14 16  1  0  0  0  0 
 16 17  2  0  0  0  0 
  9 17  1  0  0  0  0 
 17 18  1  0  0  0  0 
 18 19  1  0  0  0  0 
 16 20  1  0  0  0  0 
  5 21  1  0  0  0  0 
 21 22  1  0  0  0  0 
 21 23  1  0  0  0  0 
 23 24  1  0  0  0  0 
 24 25  1  0  0  0  0 
 24 26  1  0  0  0  0 
 24 27  1  0  0  0  0 
 23 28  1  0  0  0  0 
 28 29  1  0  0  0  0 
 28 30  1  0  0  0  0 
 28 31  1  0  0  0  0 
 23 32  1  0  0  0  0 
 32 33  1  0  0  0  0 
 32 34  1  0  0  0  0 
 32 35  1  0  0  0  0 
M  END
> <Rank>
17

> <Priority_score>
0.004

> <Reaction_type>
aromatic hydroxylation

> <Parent_ID>
53

> <Parent_InChI>
InChI=1S/C13H18ClNO/c1-9(15-13(2,3)4)12(16)10-6-5-7-11(14)8-10/h5-9,15H,1-4H3

> <Parent_SMILES>
C[C@H](NC(C)(C)C)C(=O)c1cccc(Cl)c1

$$$$
Molecule 53_metabolite 18
  CDK     0516241031

 35 35  0  0  0  0  0  0  0  0999 V2000
    1.9662   -2.8842    0.0000 C   0  0  0  0  0  0  0  0  0  0  0  0
    2.4790   -4.2939    0.0000 H   0  0  0  0  0  0  0  0  0  0  0  0
    1.0022   -1.7350    0.0000 H   0  0  0  0  0  0  0  0  0  0  0  0
    0.6671   -3.6340    0.0000 H   0  0  0  0  0  0  0  0  0  0  0  0
    2.9306   -1.7353    0.0000 C   0  0  1  0  0  0  0  0  0  0  0  0
    3.8946   -2.8845    0.0000 H   0  0  0  0  0  0  0  0  0  0  0  0
    1.6317   -0.9851    0.0000 C   0  0  0  0  0  0  0  0  0  0  0  0
    1.6319    0.5149    0.0000 O   0  0  0  0  0  0  0  0  0  0  0  0
   -0.0832   -1.9748    0.0000 C   0  0  0  0  0  0  0  0  0  0  0  0
   -0.0837   -3.4757    0.0000 C   0  0  0  0  0  0  0  0  0  0  0  0
    0.8786   -4.6264    0.0000 H   0  0  0  0  0  0  0  0  0  0  0  0
   -1.3782   -4.2178    0.0000 C   0  0  0  0  0  0  0  0  0  0  0  0
   -1.3805   -5.7178    0.0000 H   0  0  0  0  0  0  0  0  0  0  0  0
   -2.6772   -3.4678    0.0000 C   0  0  0  0  0  0  0  0  0  0  0  0
   -3.9751   -4.2198    0.0000 H   0  0  0  0  0  0  0  0  0  0  0  0
   -2.6818   -1.9757    0.0000 C   0  0  0  0  0  0  0  0  0  0  0  0
   -1.3822   -1.2248    0.0000 C   0  0  0  0  0  0  0  0  0  0  0  0
   -1.3825    0.2752    0.0000 H   0  0  0  0  0  0  0  0  0  0  0  0
   -3.9821   -1.2279    0.0000 O   0  0  0  0  0  0  0  0  0  0  0  0
   -5.2798   -1.9800    0.0000 H   0  0  0  0  0  0  0  0  0  0  0  0
    4.2298   -0.9855    0.0000 N   0  0  0  0  0  0  0  0  0  0  0  0
    4.2300    0.5145    0.0000 H   0  0  0  0  0  0  0  0  0  0  0  0
    5.9443   -1.9758    0.0000 C   0  0  0  0  0  0  0  0  0  0  0  0
    7.2435   -1.2260    0.0000 C   0  0  0  0  0  0  0  0  0  0  0  0
    8.5424   -1.9762    0.0000 H   0  0  0  0  0  0  0  0  0  0  0  0
    8.2079   -0.0771    0.0000 H   0  0  0  0  0  0  0  0  0  0  0  0
    6.2795   -0.0768    0.0000 H   0  0  0  0  0  0  0  0  0  0  0  0
    4.9800   -3.1247    0.0000 C   0  0  0  0  0  0  0  0  0  0  0  0
    5.6569   -4.9854    0.0000 H   0  0  0  0  0  0  0  0  0  0  0  0
    4.0160   -1.9755    0.0000 H   0  0  0  0  0  0  0  0  0  0  0  0
    3.6808   -3.8745    0.0000 H   0  0  0  0  0  0  0  0  0  0  0  0
    6.9083   -3.1250    0.0000 C   0  0  0  0  0  0  0  0  0  0  0  0
    8.3856   -2.8648    0.0000 H   0  0  0  0  0  0  0  0  0  0  0  0
    5.6092   -3.8748    0.0000 H   0  0  0  0  0  0  0  0  0  0  0  0
    7.4211   -4.5346    0.0000 H   0  0  0  0  0  0  0  0  0  0  0  0
  1  2  1  0  0  0  0 
  1  3  1  0  0  0  0 
  1  4  1  0  0  0  0 
  1  5  1  0  0  0  0 
  5  6  1  6  0  0  0 
  5  7  1  0  0  0  0 
  7  8  2  0  0  0  0 
  7  9  1  0  0  0  0 
  9 10  2  0  0  0  0 
 10 11  1  0  0  0  0 
 10 12  1  0  0  0  0 
 12 13  1  0  0  0  0 
 12 14  2  0  0  0  0 
 14 15  1  0  0  0  0 
 14 16  1  0  0  0  0 
 16 17  2  0  0  0  0 
  9 17  1  0  0  0  0 
 17 18  1  0  0  0  0 
 16 19  1  0  0  0  0 
 19 20  1  0  0  0  0 
  5 21  1  1  0  0  0 
 21 22  1  0  0  0  0 
 21 23  1  0  0  0  0 
 23 24  1  0  0  0  0 
 24 25  1  0  0  0  0 
 24 26  1  0  0  0  0 
 24 27  1  0  0  0  0 
 23 28  1  0  0  0  0 
 28 29  1  0  0  0  0 
 28 30  1  0  0  0  0 
 28 31  1  0  0  0  0 
 23 32  1  0  0  0  0 
 32 33  1  0  0  0  0 
 32 34  1  0  0  0  0 
 32 35  1  0  0  0  0 
M  END
> <Rank>
18

> <Priority_score>
0.0031115272088940906

> <Reaction_type>
oxidative dehalogenation benzyl

> <Parent_ID>
53

> <Parent_InChI>
InChI=1S/C13H18ClNO/c1-9(15-13(2,3)4)12(16)10-6-5-7-11(14)8-10/h5-9,15H,1-4H3

> <Parent_SMILES>
C[C@H](NC(C)(C)C)C(=O)c1cccc(Cl)c1

$$$$
Molecule 53_metabolite 19
  CDK     0516241031

 35 35  0  0  0  0  0  0  0  0999 V2000
   -9.8824    3.3091    0.0000 C   0  0  0  0  0  0  0  0  0  0  0  0
  -11.3596    3.0489    0.0000 H   0  0  0  0  0  0  0  0  0  0  0  0
  -10.3952    4.7187    0.0000 H   0  0  0  0  0  0  0  0  0  0  0  0
   -8.5832    4.0589    0.0000 H   0  0  0  0  0  0  0  0  0  0  0  0
   -8.9184    2.1599    0.0000 C   0  0  1  0  0  0  0  0  0  0  0  0
   -7.9540    3.3088    0.0000 H   0  0  0  0  0  0  0  0  0  0  0  0
   -7.6195    1.4097    0.0000 C   0  0  0  0  0  0  0  0  0  0  0  0
   -7.6197   -0.0903    0.0000 O   0  0  0  0  0  0  0  0  0  0  0  0
   -6.3203    2.1595    0.0000 C   0  0  0  0  0  0  0  0  0  0  0  0
   -5.0205    1.4090    0.0000 C   0  0  0  0  0  0  0  0  0  0  0  0
   -5.0210   -0.0910    0.0000 H   0  0  0  0  0  0  0  0  0  0  0  0
   -3.7203    2.1586    0.0000 C   0  0  0  0  0  0  0  0  0  0  0  0
   -3.7198    3.6586    0.0000 C   0  0  0  0  0  0  0  0  0  0  0  0
   -2.4207    4.4084    0.0000 H   0  0  0  0  0  0  0  0  0  0  0  0
   -5.0196    4.4090    0.0000 C   0  0  0  0  0  0  0  0  0  0  0  0
   -5.0191    5.9090    0.0000 H   0  0  0  0  0  0  0  0  0  0  0  0
   -6.3198    3.6595    0.0000 C   0  0  0  0  0  0  0  0  0  0  0  0
   -7.6185    4.4101    0.0000 O   0  0  0  0  0  0  0  0  0  0  0  0
   -7.6178    5.9101    0.0000 H   0  0  0  0  0  0  0  0  0  0  0  0
   -2.4216    1.4080    0.0000 Cl  0  0  0  0  0  0  0  0  0  0  0  0
  -10.2175    1.4101    0.0000 N   0  0  0  0  0  0  0  0  0  0  0  0
  -11.5165    2.1603    0.0000 H   0  0  0  0  0  0  0  0  0  0  0  0
  -10.2179   -0.5699    0.0000 C   0  0  0  0  0  0  0  0  0  0  0  0
   -8.9189   -1.3201    0.0000 C   0  0  0  0  0  0  0  0  0  0  0  0
   -8.9193   -3.3001    0.0000 H   0  0  0  0  0  0  0  0  0  0  0  0
   -8.4057    0.0893    0.0000 H   0  0  0  0  0  0  0  0  0  0  0  0
   -7.4418   -1.5808    0.0000 H   0  0  0  0  0  0  0  0  0  0  0  0
  -10.7311   -1.9794    0.0000 C   0  0  0  0  0  0  0  0  0  0  0  0
  -12.2084   -2.2396    0.0000 H   0  0  0  0  0  0  0  0  0  0  0  0
  -10.7314   -3.4794    0.0000 H   0  0  0  0  0  0  0  0  0  0  0  0
   -9.2539   -2.2401    0.0000 H   0  0  0  0  0  0  0  0  0  0  0  0
  -11.6950   -0.3092    0.0000 C   0  0  0  0  0  0  0  0  0  0  0  0
  -12.6594   -1.4581    0.0000 H   0  0  0  0  0  0  0  0  0  0  0  0
  -12.9939    0.4410    0.0000 H   0  0  0  0  0  0  0  0  0  0  0  0
  -11.1818    1.1002    0.0000 H   0  0  0  0  0  0  0  0  0  0  0  0
  1  2  1  0  0  0  0 
  1  3  1  0  0  0  0 
  1  4  1  0  0  0  0 
  1  5  1  0  0  0  0 
  5  6  1  6  0  0  0 
  5  7  1  1  0  0  0 
  7  8  2  0  0  0  0 
  7  9  1  0  0  0  0 
  9 10  2  0  0  0  0 
 10 11  1  0  0  0  0 
 10 12  1  0  0  0  0 
 12 13  2  0  0  0  0 
 13 14  1  0  0  0  0 
 13 15  1  0  0  0  0 
 15 16  1  0  0  0  0 
 15 17  2  0  0  0  0 
  9 17  1  0  0  0  0 
 17 18  1  0  0  0  0 
 18 19  1  0  0  0  0 
 12 20  1  0  0  0  0 
  5 21  1  0  0  0  0 
 21 22  1  0  0  0  0 
 21 23  1  0  0  0  0 
 23 24  1  0  0  0  0 
 24 25  1  0  0  0  0 
 24 26  1  0  0  0  0 
 24 27  1  0  0  0  0 
 23 28  1  0  0  0  0 
 28 29  1  0  0  0  0 
 28 30  1  0  0  0  0 
 28 31  1  0  0  0  0 
 23 32  1  0  0  0  0 
 32 33  1  0  0  0  0 
 32 34  1  0  0  0  0 
 32 35  1  0  0  0  0 
M  END
> <Rank>
19

> <Priority_score>
0.0

> <Reaction_type>
aromatic hydroxylation

> <Parent_ID>
53

> <Parent_InChI>
InChI=1S/C13H18ClNO/c1-9(15-13(2,3)4)12(16)10-6-5-7-11(14)8-10/h5-9,15H,1-4H3

> <Parent_SMILES>
C[C@H](NC(C)(C)C)C(=O)c1cccc(Cl)c1

$$$$
Molecule 54
  CDK     0516241031

 22 24  0  0  0  0  0  0  0  0999 V2000
   -1.0906    5.7938    0.0000 C   0  0  0  0  0  0  0  0  0  0  0  0
   -2.4869    5.2458    0.0000 C   0  0  1  0  0  0  0  0  0  0  0  0
   -3.5865    6.2661    0.0000 C   0  0  0  0  0  0  0  0  0  0  0  0
   -5.0698    6.0425    0.0000 N   0  0  0  0  0  0  0  0  0  0  0  0
   -5.8198    4.7435    0.0000 C   0  0  0  0  0  0  0  0  0  0  0  0
   -5.2718    3.3472    0.0000 C   0  0  0  0  0  0  0  0  0  0  0  0
   -3.8384    2.9050    0.0000 C   0  0  0  0  0  0  0  0  0  0  0  0
   -2.5990    3.7500    0.0000 N   0  0  0  0  0  0  0  0  0  0  0  0
   -1.3000    3.0000    0.0000 S   0  0  0  0  0  0  0  0  0  0  0  0
    0.1772    2.7395    0.0000 O   0  0  0  0  0  0  0  0  0  0  0  0
   -0.7870    4.4095    0.0000 O   0  0  0  0  0  0  0  0  0  0  0  0
   -1.3000    1.5000    0.0000 C   0  0  0  0  0  0  0  0  0  0  0  0
    0.0000    0.7500    0.0000 C   0  0  0  0  0  0  0  0  0  0  0  0
    0.0000   -0.7500    0.0000 C   0  0  0  0  0  0  0  0  0  0  0  0
   -1.3000   -1.5000    0.0000 C   0  0  0  0  0  0  0  0  0  0  0  0
   -2.6000   -0.7500    0.0000 C   0  0  0  0  0  0  0  0  0  0  0  0
   -2.6000    0.7500    0.0000 C   0  0  0  0  0  0  0  0  0  0  0  0
    1.3000   -1.5000    0.0000 C   0  0  0  0  0  0  0  0  0  0  0  0
    2.6000   -0.7500    0.0000 N   0  0  0  0  0  0  0  0  0  0  0  0
    2.6000    0.7500    0.0000 C   0  0  0  0  0  0  0  0  0  0  0  0
    1.3000    1.5000    0.0000 C   0  0  0  0  0  0  0  0  0  0  0  0
    1.3000    3.0000    0.0000 F   0  0  0  0  0  0  0  0  0  0  0  0
  2  1  1  6  0  0  0 
  2  3  1  0  0  0  0 
  3  4  1  0  0  0  0 
  4  5  1  0  0  0  0 
  5  6  1  0  0  0  0 
  6  7  1  0  0  0  0 
  7  8  1  0  0  0  0 
  2  8  1  0  0  0  0 
  8  9  1  0  0  0  0 
  9 10  2  0  0  0  0 
  9 11  2  0  0  0  0 
  9 12  1  0  0  0  0 
 12 13  2  0  0  0  0 
 13 14  1  0  0  0  0 
 14 15  2  0  0  0  0 
 15 16  1  0  0  0  0 
 16 17  2  0  0  0  0 
 12 17  1  0  0  0  0 
 14 18  1  0  0  0  0 
 18 19  2  0  0  0  0 
 19 20  1  0  0  0  0 
 20 21  2  0  0  0  0 
 13 21  1  0  0  0  0 
 21 22  1  0  0  0  0 
M  END
> <SMILES>
C[C@H]1CNCCCN1S(=O)(=O)c1cccc2cncc(F)c12

$$$$
Molecule 54_metabolite 1
  CDK     0516241031

 45 47  0  0  0  0  0  0  0  0999 V2000
   -2.2133    4.3816    0.0000 C   0  0  0  0  0  0  0  0  0  0  0  0
   -1.1137    5.4018    0.0000 H   0  0  0  0  0  0  0  0  0  0  0  0
   -2.8976    3.0468    0.0000 H   0  0  0  0  0  0  0  0  0  0  0  0
   -1.0176    3.4759    0.0000 H   0  0  0  0  0  0  0  0  0  0  0  0
   -3.6467    4.8237    0.0000 C   0  0  1  0  0  0  0  0  0  0  0  0
   -2.8967    6.1227    0.0000 H   0  0  0  0  0  0  0  0  0  0  0  0
   -4.7462    5.8440    0.0000 C   0  0  0  0  0  0  0  0  0  0  0  0
   -3.5069    6.6889    0.0000 H   0  0  0  0  0  0  0  0  0  0  0  0
   -5.2943    7.2403    0.0000 H   0  0  0  0  0  0  0  0  0  0  0  0
   -6.2295    5.6204    0.0000 N   0  0  0  0  0  0  0  0  0  0  0  0
   -6.9795    4.3214    0.0000 C   0  0  0  0  0  0  0  0  0  0  0  0
   -8.0791    5.3416    0.0000 H   0  0  0  0  0  0  0  0  0  0  0  0
   -8.2188    3.4764    0.0000 H   0  0  0  0  0  0  0  0  0  0  0  0
   -6.4315    2.9250    0.0000 C   0  0  0  0  0  0  0  0  0  0  0  0
   -7.9147    2.7015    0.0000 H   0  0  0  0  0  0  0  0  0  0  0  0
   -6.5436    1.4292    0.0000 H   0  0  0  0  0  0  0  0  0  0  0  0
   -4.9981    2.4829    0.0000 C   0  0  0  0  0  0  0  0  0  0  0  0
   -5.7481    1.1839    0.0000 H   0  0  0  0  0  0  0  0  0  0  0  0
   -3.8985    1.4627    0.0000 H   0  0  0  0  0  0  0  0  0  0  0  0
   -3.7588    3.3279    0.0000 N   0  0  0  0  0  0  0  0  0  0  0  0
   -1.6283    2.0979    0.0000 S   0  0  0  0  0  0  0  0  0  0  0  0
   -0.1511    1.8374    0.0000 O   0  0  0  0  0  0  0  0  0  0  0  0
    0.2561    3.6792    0.0000 O   0  0  0  0  0  0  0  0  0  0  0  0
   -1.6283    0.5979    0.0000 C   0  0  0  0  0  0  0  0  0  0  0  0
   -0.3283   -0.1521    0.0000 C   0  0  0  0  0  0  0  0  0  0  0  0
   -0.3283   -1.6521    0.0000 C   0  0  0  0  0  0  0  0  0  0  0  0
   -1.6283   -2.4021    0.0000 C   0  0  0  0  0  0  0  0  0  0  0  0
   -1.6283   -3.9021    0.0000 H   0  0  0  0  0  0  0  0  0  0  0  0
   -2.9283   -1.6521    0.0000 C   0  0  0  0  0  0  0  0  0  0  0  0
   -4.2273   -2.4023    0.0000 H   0  0  0  0  0  0  0  0  0  0  0  0
   -2.9283   -0.1521    0.0000 C   0  0  0  0  0  0  0  0  0  0  0  0
   -4.2273    0.5981    0.0000 H   0  0  0  0  0  0  0  0  0  0  0  0
    0.9717   -2.4021    0.0000 C   0  0  0  0  0  0  0  0  0  0  0  0
    0.9717   -3.9021    0.0000 H   0  0  0  0  0  0  0  0  0  0  0  0
    2.2717   -1.6521    0.0000 N   0  0  0  0  0  0  0  0  0  0  0  0
    2.2717   -0.1521    0.0000 C   0  0  0  0  0  0  0  0  0  0  0  0
    3.5706    0.5981    0.0000 H   0  0  0  0  0  0  0  0  0  0  0  0
    0.9717    0.5979    0.0000 C   0  0  0  0  0  0  0  0  0  0  0  0
    0.9717    2.0979    0.0000 F   0  0  0  0  0  0  0  0  0  0  0  0
   -7.0745    6.8598    0.0000 C   0  0  0  0  0  0  0  0  0  0  0  0
   -6.4236    8.2112    0.0000 O   0  0  0  0  0  0  0  0  0  0  0  0
   -8.5703    6.7477    0.0000 C   0  0  0  0  0  0  0  0  0  0  0  0
   -9.2211    5.3962    0.0000 H   0  0  0  0  0  0  0  0  0  0  0  0
  -10.0142    7.1539    0.0000 H   0  0  0  0  0  0  0  0  0  0  0  0
   -8.4209    8.2402    0.0000 H   0  0  0  0  0  0  0  0  0  0  0  0
  1  2  1  0  0  0  0 
  1  3  1  0  0  0  0 
  1  4  1  0  0  0  0 
  5  1  1  6  0  0  0 
  5  6  1  1  0  0  0 
  5  7  1  0  0  0  0 
  7  8  1  0  0  0  0 
  7  9  1  0  0  0  0 
  7 10  1  0  0  0  0 
 10 11  1  0  0  0  0 
 11 12  1  0  0  0  0 
 11 13  1  0  0  0  0 
 11 14  1  0  0  0  0 
 14 15  1  0  0  0  0 
 14 16  1  0  0  0  0 
 14 17  1  0  0  0  0 
 17 18  1  0  0  0  0 
 17 19  1  0  0  0  0 
 17 20  1  0  0  0  0 
  5 20  1  0  0  0  0 
 20 21  1  0  0  0  0 
 21 22  2  0  0  0  0 
 21 23  2  0  0  0  0 
 21 24  1  0  0  0  0 
 24 25  2  0  0  0  0 
 25 26  1  0  0  0  0 
 26 27  2  0  0  0  0 
 27 28  1  0  0  0  0 
 27 29  1  0  0  0  0 
 29 30  1  0  0  0  0 
 29 31  2  0  0  0  0 
 24 31  1  0  0  0  0 
 31 32  1  0  0  0  0 
 26 33  1  0  0  0  0 
 33 34  1  0  0  0  0 
 33 35  2  0  0  0  0 
 35 36  1  0  0  0  0 
 36 37  1  0  0  0  0 
 36 38  2  0  0  0  0 
 25 38  1  0  0  0  0 
 38 39  1  0  0  0  0 
 10 40  1  0  0  0  0 
 40 41  2  0  0  0  0 
 40 42  1  0  0  0  0 
 42 43  1  0  0  0  0 
 42 44  1  0  0  0  0 
 42 45  1  0  0  0  0 
M  END
> <Rank>
1

> <Priority_score>
0.768

> <Reaction_type>
N-acetylation_(NH1)

> <Parent_ID>
54

> <Parent_InChI>
InChI=1S/C15H18FN3O2S/c1-11-8-17-6-3-7-19(11)22(20,21)14-5-2-4-12-9-18-10-13(16)15(12)14/h2,4-5,9-11,17H,3,6-8H2,1H3

> <Parent_SMILES>
C[C@H]1CNCCCN1S(=O)(=O)c1cccc2cncc(F)c12

$$$$
Molecule 54_metabolite 2
  CDK     0516241031

 60 63  0  0  0  0  0  0  0  0999 V2000
   -2.3007    5.5237    0.0000 C   0  0  0  0  0  0  0  0  0  0  0  0
   -1.9669    4.0613    0.0000 H   0  0  0  0  0  0  0  0  0  0  0  0
   -2.1141    7.0120    0.0000 H   0  0  0  0  0  0  0  0  0  0  0  0
   -0.8025    5.5984    0.0000 H   0  0  0  0  0  0  0  0  0  0  0  0
   -3.7340    5.9658    0.0000 C   0  0  1  0  0  0  0  0  0  0  0  0
   -2.9840    7.2648    0.0000 H   0  0  0  0  0  0  0  0  0  0  0  0
   -4.8336    6.9861    0.0000 C   0  0  0  0  0  0  0  0  0  0  0  0
   -3.5942    7.8310    0.0000 H   0  0  0  0  0  0  0  0  0  0  0  0
   -5.3816    8.3824    0.0000 H   0  0  0  0  0  0  0  0  0  0  0  0
   -6.3168    6.7625    0.0000 N   0  0  0  0  0  0  0  0  0  0  0  0
   -7.0668    5.4635    0.0000 C   0  0  0  0  0  0  0  0  0  0  0  0
   -8.1664    6.4837    0.0000 H   0  0  0  0  0  0  0  0  0  0  0  0
   -8.3062    4.6185    0.0000 H   0  0  0  0  0  0  0  0  0  0  0  0
   -6.5188    4.0672    0.0000 C   0  0  0  0  0  0  0  0  0  0  0  0
   -8.0021    3.8436    0.0000 H   0  0  0  0  0  0  0  0  0  0  0  0
   -6.6309    2.5713    0.0000 H   0  0  0  0  0  0  0  0  0  0  0  0
   -5.0855    3.6250    0.0000 C   0  0  0  0  0  0  0  0  0  0  0  0
   -5.8355    2.3260    0.0000 H   0  0  0  0  0  0  0  0  0  0  0  0
   -3.9859    2.6048    0.0000 H   0  0  0  0  0  0  0  0  0  0  0  0
   -3.8461    4.4700    0.0000 N   0  0  0  0  0  0  0  0  0  0  0  0
   -1.3000    3.0000    0.0000 S   0  0  0  0  0  0  0  0  0  0  0  0
    0.1772    2.7395    0.0000 O   0  0  0  0  0  0  0  0  0  0  0  0
   -0.7870    4.4095    0.0000 O   0  0  0  0  0  0  0  0  0  0  0  0
   -1.3000    1.5000    0.0000 C   0  0  0  0  0  0  0  0  0  0  0  0
    0.0000    0.7500    0.0000 C   0  0  0  0  0  0  0  0  0  0  0  0
    0.0000   -0.7500    0.0000 C   0  0  0  0  0  0  0  0  0  0  0  0
   -1.3000   -1.5000    0.0000 C   0  0  0  0  0  0  0  0  0  0  0  0
   -1.3000   -3.0000    0.0000 H   0  0  0  0  0  0  0  0  0  0  0  0
   -2.6000   -0.7500    0.0000 C   0  0  0  0  0  0  0  0  0  0  0  0
   -3.8989   -1.5002    0.0000 H   0  0  0  0  0  0  0  0  0  0  0  0
   -2.6000    0.7500    0.0000 C   0  0  0  0  0  0  0  0  0  0  0  0
   -3.8989    1.5002    0.0000 H   0  0  0  0  0  0  0  0  0  0  0  0
    1.3000   -1.5000    0.0000 C   0  0  0  0  0  0  0  0  0  0  0  0
    1.3000   -3.0000    0.0000 H   0  0  0  0  0  0  0  0  0  0  0  0
    2.6000   -0.7500    0.0000 N   0  0  0  0  0  0  0  0  0  0  0  0
    2.6000    0.7500    0.0000 C   0  0  0  0  0  0  0  0  0  0  0  0
    3.8989    1.5002    0.0000 H   0  0  0  0  0  0  0  0  0  0  0  0
    1.3000    1.5000    0.0000 C   0  0  0  0  0  0  0  0  0  0  0  0
    1.3000    3.0000    0.0000 F   0  0  0  0  0  0  0  0  0  0  0  0
   -7.4322    8.3985    0.0000 C   0  0  0  0  0  0  0  0  0  0  0  0
   -6.0650    9.0155    0.0000 H   0  0  0  0  0  0  0  0  0  0  0  0
   -7.8027    9.8520    0.0000 C   0  0  0  0  0  0  0  0  0  0  0  0
   -6.3069    9.9646    0.0000 H   0  0  0  0  0  0  0  0  0  0  0  0
   -9.2476   10.2577    0.0000 C   0  0  0  0  0  0  0  0  0  0  0  0
   -8.5972   11.6094    0.0000 H   0  0  0  0  0  0  0  0  0  0  0  0
  -10.3221    9.2099    0.0000 C   0  0  0  0  0  0  0  0  0  0  0  0
  -11.1671   10.4492    0.0000 H   0  0  0  0  0  0  0  0  0  0  0  0
   -9.9517    7.7563    0.0000 C   0  0  0  0  0  0  0  0  0  0  0  0
  -11.4475    7.6438    0.0000 H   0  0  0  0  0  0  0  0  0  0  0  0
  -10.1004    6.2637    0.0000 C   0  0  0  0  0  0  0  0  0  0  0  0
   -8.8821    5.3886    0.0000 O   0  0  0  0  0  0  0  0  0  0  0  0
  -11.4674    5.6462    0.0000 O   0  0  0  0  0  0  0  0  0  0  0  0
  -12.6857    6.5213    0.0000 H   0  0  0  0  0  0  0  0  0  0  0  0
   -8.5067    7.3506    0.0000 O   0  0  0  0  0  0  0  0  0  0  0  0
  -11.6893    8.5928    0.0000 O   0  0  0  0  0  0  0  0  0  0  0  0
  -12.9073    9.4683    0.0000 H   0  0  0  0  0  0  0  0  0  0  0  0
  -10.4656   11.1332    0.0000 O   0  0  0  0  0  0  0  0  0  0  0  0
  -10.3164   12.6258    0.0000 H   0  0  0  0  0  0  0  0  0  0  0  0
   -7.6539   11.3446    0.0000 O   0  0  0  0  0  0  0  0  0  0  0  0
   -6.2870   11.9621    0.0000 H   0  0  0  0  0  0  0  0  0  0  0  0
  1  2  1  0  0  0  0 
  1  3  1  0  0  0  0 
  1  4  1  0  0  0  0 
  5  1  1  6  0  0  0 
  5  6  1  1  0  0  0 
  5  7  1  0  0  0  0 
  7  8  1  0  0  0  0 
  7  9  1  0  0  0  0 
  7 10  1  0  0  0  0 
 10 11  1  0  0  0  0 
 11 12  1  0  0  0  0 
 11 13  1  0  0  0  0 
 11 14  1  0  0  0  0 
 14 15  1  0  0  0  0 
 14 16  1  0  0  0  0 
 14 17  1  0  0  0  0 
 17 18  1  0  0  0  0 
 17 19  1  0  0  0  0 
 17 20  1  0  0  0  0 
  5 20  1  0  0  0  0 
 20 21  1  0  0  0  0 
 21 22  2  0  0  0  0 
 21 23  2  0  0  0  0 
 21 24  1  0  0  0  0 
 24 25  2  0  0  0  0 
 25 26  1  0  0  0  0 
 26 27  2  0  0  0  0 
 27 28  1  0  0  0  0 
 27 29  1  0  0  0  0 
 29 30  1  0  0  0  0 
 29 31  2  0  0  0  0 
 24 31  1  0  0  0  0 
 31 32  1  0  0  0  0 
 26 33  1  0  0  0  0 
 33 34  1  0  0  0  0 
 33 35  2  0  0  0  0 
 35 36  1  0  0  0  0 
 36 37  1  0  0  0  0 
 36 38  2  0  0  0  0 
 25 38  1  0  0  0  0 
 38 39  1  0  0  0  0 
 10 40  1  0  0  0  0 
 40 41  1  0  0  0  0 
 40 42  1  0  0  0  0 
 42 43  1  0  0  0  0 
 42 44  1  0  0  0  0 
 44 45  1  0  0  0  0 
 44 46  1  0  0  0  0 
 46 47  1  0  0  0  0 
 46 48  1  0  0  0  0 
 48 49  1  0  0  0  0 
 48 50  1  0  0  0  0 
 50 51  2  0  0  0  0 
 50 52  1  0  0  0  0 
 52 53  1  0  0  0  0 
 48 54  1  0  0  0  0 
 40 54  1  0  0  0  0 
 46 55  1  0  0  0  0 
 55 56  1  0  0  0  0 
 44 57  1  0  0  0  0 
 57 58  1  0  0  0  0 
 42 59  1  0  0  0  0 
 59 60  1  0  0  0  0 
M  END
> <Rank>
2

> <Priority_score>
0.528

> <Reaction_type>
N-glucuronidation_(NH_in_a_ring)

> <Parent_ID>
54

> <Parent_InChI>
InChI=1S/C15H18FN3O2S/c1-11-8-17-6-3-7-19(11)22(20,21)14-5-2-4-12-9-18-10-13(16)15(12)14/h2,4-5,9-11,17H,3,6-8H2,1H3

> <Parent_SMILES>
C[C@H]1CNCCCN1S(=O)(=O)c1cccc2cncc(F)c12

$$$$
Molecule 54_metabolite 3
  CDK     0516241031

 41 43  0  0  0  0  0  0  0  0999 V2000
   -2.6290    4.6216    0.0000 C   0  0  0  0  0  0  0  0  0  0  0  0
   -1.5294    5.6418    0.0000 H   0  0  0  0  0  0  0  0  0  0  0  0
   -3.3133    3.2868    0.0000 H   0  0  0  0  0  0  0  0  0  0  0  0
   -1.4333    3.7159    0.0000 H   0  0  0  0  0  0  0  0  0  0  0  0
   -4.0624    5.0637    0.0000 C   0  0  1  0  0  0  0  0  0  0  0  0
   -3.3124    6.3627    0.0000 H   0  0  0  0  0  0  0  0  0  0  0  0
   -5.1619    6.0840    0.0000 C   0  0  0  0  0  0  0  0  0  0  0  0
   -3.9226    6.9289    0.0000 H   0  0  0  0  0  0  0  0  0  0  0  0
   -5.7099    7.4803    0.0000 H   0  0  0  0  0  0  0  0  0  0  0  0
   -6.6452    5.8604    0.0000 N   0  0  0  0  0  0  0  0  0  0  0  0
   -7.4902    7.0998    0.0000 H   0  0  0  0  0  0  0  0  0  0  0  0
   -7.3952    4.5614    0.0000 C   0  0  0  0  0  0  0  0  0  0  0  0
   -8.4948    5.5816    0.0000 H   0  0  0  0  0  0  0  0  0  0  0  0
   -8.6345    3.7164    0.0000 H   0  0  0  0  0  0  0  0  0  0  0  0
   -6.8472    3.1650    0.0000 C   0  0  0  0  0  0  0  0  0  0  0  0
   -8.3304    2.9415    0.0000 H   0  0  0  0  0  0  0  0  0  0  0  0
   -5.4138    2.7229    0.0000 C   0  0  0  0  0  0  0  0  0  0  0  0
   -6.1638    1.4239    0.0000 H   0  0  0  0  0  0  0  0  0  0  0  0
   -4.3142    1.7027    0.0000 H   0  0  0  0  0  0  0  0  0  0  0  0
   -4.1745    3.5679    0.0000 N   0  0  0  0  0  0  0  0  0  0  0  0
   -1.6283    2.0979    0.0000 S   0  0  0  0  0  0  0  0  0  0  0  0
   -0.1511    1.8374    0.0000 O   0  0  0  0  0  0  0  0  0  0  0  0
   -0.0471    3.9824    0.0000 O   0  0  0  0  0  0  0  0  0  0  0  0
   -1.6283    0.5979    0.0000 C   0  0  0  0  0  0  0  0  0  0  0  0
   -0.3283   -0.1521    0.0000 C   0  0  0  0  0  0  0  0  0  0  0  0
   -0.3283   -1.6521    0.0000 C   0  0  0  0  0  0  0  0  0  0  0  0
   -1.6283   -2.4021    0.0000 C   0  0  0  0  0  0  0  0  0  0  0  0
   -1.6283   -3.9021    0.0000 H   0  0  0  0  0  0  0  0  0  0  0  0
   -2.9283   -1.6521    0.0000 C   0  0  0  0  0  0  0  0  0  0  0  0
   -4.2273   -2.4023    0.0000 H   0  0  0  0  0  0  0  0  0  0  0  0
   -2.9283   -0.1521    0.0000 C   0  0  0  0  0  0  0  0  0  0  0  0
   -4.2273    0.5981    0.0000 H   0  0  0  0  0  0  0  0  0  0  0  0
    0.9717   -2.4021    0.0000 C   0  0  0  0  0  0  0  0  0  0  0  0
    0.9717   -3.9021    0.0000 H   0  0  0  0  0  0  0  0  0  0  0  0
    2.2717   -1.6521    0.0000 N   0  0  0  0  0  0  0  0  0  0  0  0
    2.2717   -0.1521    0.0000 C   0  0  0  0  0  0  0  0  0  0  0  0
    3.5706    0.5981    0.0000 H   0  0  0  0  0  0  0  0  0  0  0  0
    0.9717    0.5979    0.0000 C   0  0  0  0  0  0  0  0  0  0  0  0
    0.9717    2.0979    0.0000 F   0  0  0  0  0  0  0  0  0  0  0  0
   -6.9593    1.6692    0.0000 O   0  0  0  0  0  0  0  0  0  0  0  0
   -8.3107    1.0184    0.0000 H   0  0  0  0  0  0  0  0  0  0  0  0
  1  2  1  0  0  0  0 
  1  3  1  0  0  0  0 
  1  4  1  0  0  0  0 
  5  1  1  6  0  0  0 
  5  6  1  1  0  0  0 
  5  7  1  0  0  0  0 
  7  8  1  0  0  0  0 
  7  9  1  0  0  0  0 
  7 10  1  0  0  0  0 
 10 11  1  0  0  0  0 
 10 12  1  0  0  0  0 
 12 13  1  0  0  0  0 
 12 14  1  0  0  0  0 
 12 15  1  0  0  0  0 
 15 16  1  0  0  0  0 
 15 17  1  0  0  0  0 
 17 18  1  0  0  0  0 
 17 19  1  0  0  0  0 
 17 20  1  0  0  0  0 
  5 20  1  0  0  0  0 
 20 21  1  0  0  0  0 
 21 22  2  0  0  0  0 
 21 23  2  0  0  0  0 
 21 24  1  0  0  0  0 
 24 25  2  0  0  0  0 
 25 26  1  0  0  0  0 
 26 27  2  0  0  0  0 
 27 28  1  0  0  0  0 
 27 29  1  0  0  0  0 
 29 30  1  0  0  0  0 
 29 31  2  0  0  0  0 
 24 31  1  0  0  0  0 
 31 32  1  0  0  0  0 
 26 33  1  0  0  0  0 
 33 34  1  0  0  0  0 
 33 35  2  0  0  0  0 
 35 36  1  0  0  0  0 
 36 37  1  0  0  0  0 
 36 38  2  0  0  0  0 
 25 38  1  0  0  0  0 
 38 39  1  0  0  0  0 
 15 40  1  0  0  0  0 
 40 41  1  0  0  0  0 
M  END
> <Rank>
3

> <Priority_score>
0.424

> <Reaction_type>
aliphatic_hydroxylation_(sec_carbon_in_a_ringA)

> <Parent_ID>
54

> <Parent_InChI>
InChI=1S/C15H18FN3O2S/c1-11-8-17-6-3-7-19(11)22(20,21)14-5-2-4-12-9-18-10-13(16)15(12)14/h2,4-5,9-11,17H,3,6-8H2,1H3

> <Parent_SMILES>
C[C@H]1CNCCCN1S(=O)(=O)c1cccc2cncc(F)c12

$$$$
Molecule 54_metabolite 4
  CDK     0516241031

 41 43  0  0  0  0  0  0  0  0999 V2000
   -2.6290    4.6216    0.0000 C   0  0  0  0  0  0  0  0  0  0  0  0
   -1.5294    5.6418    0.0000 H   0  0  0  0  0  0  0  0  0  0  0  0
   -3.3133    3.2868    0.0000 H   0  0  0  0  0  0  0  0  0  0  0  0
   -1.4333    3.7159    0.0000 H   0  0  0  0  0  0  0  0  0  0  0  0
   -4.0624    5.0637    0.0000 C   0  0  1  0  0  0  0  0  0  0  0  0
   -3.3124    6.3627    0.0000 H   0  0  0  0  0  0  0  0  0  0  0  0
   -5.1619    6.0840    0.0000 C   0  0  0  0  0  0  0  0  0  0  0  0
   -3.9226    6.9289    0.0000 H   0  0  0  0  0  0  0  0  0  0  0  0
   -5.7099    7.4803    0.0000 H   0  0  0  0  0  0  0  0  0  0  0  0
   -6.6452    5.8604    0.0000 N   0  0  0  0  0  0  0  0  0  0  0  0
   -7.4902    7.0998    0.0000 H   0  0  0  0  0  0  0  0  0  0  0  0
   -7.3952    4.5614    0.0000 C   0  0  0  0  0  0  0  0  0  0  0  0
   -8.4948    5.5816    0.0000 H   0  0  0  0  0  0  0  0  0  0  0  0
   -6.8472    3.1650    0.0000 C   0  0  0  0  0  0  0  0  0  0  0  0
   -8.3304    2.9415    0.0000 H   0  0  0  0  0  0  0  0  0  0  0  0
   -6.9593    1.6692    0.0000 H   0  0  0  0  0  0  0  0  0  0  0  0
   -5.4138    2.7229    0.0000 C   0  0  0  0  0  0  0  0  0  0  0  0
   -6.1638    1.4239    0.0000 H   0  0  0  0  0  0  0  0  0  0  0  0
   -4.3142    1.7027    0.0000 H   0  0  0  0  0  0  0  0  0  0  0  0
   -4.1745    3.5679    0.0000 N   0  0  0  0  0  0  0  0  0  0  0  0
   -1.6283    2.0979    0.0000 S   0  0  0  0  0  0  0  0  0  0  0  0
   -0.1511    1.8374    0.0000 O   0  0  0  0  0  0  0  0  0  0  0  0
   -0.0471    3.9824    0.0000 O   0  0  0  0  0  0  0  0  0  0  0  0
   -1.6283    0.5979    0.0000 C   0  0  0  0  0  0  0  0  0  0  0  0
   -0.3283   -0.1521    0.0000 C   0  0  0  0  0  0  0  0  0  0  0  0
   -0.3283   -1.6521    0.0000 C   0  0  0  0  0  0  0  0  0  0  0  0
   -1.6283   -2.4021    0.0000 C   0  0  0  0  0  0  0  0  0  0  0  0
   -1.6283   -3.9021    0.0000 H   0  0  0  0  0  0  0  0  0  0  0  0
   -2.9283   -1.6521    0.0000 C   0  0  0  0  0  0  0  0  0  0  0  0
   -4.2273   -2.4023    0.0000 H   0  0  0  0  0  0  0  0  0  0  0  0
   -2.9283   -0.1521    0.0000 C   0  0  0  0  0  0  0  0  0  0  0  0
   -4.2273    0.5981    0.0000 H   0  0  0  0  0  0  0  0  0  0  0  0
    0.9717   -2.4021    0.0000 C   0  0  0  0  0  0  0  0  0  0  0  0
    0.9717   -3.9021    0.0000 H   0  0  0  0  0  0  0  0  0  0  0  0
    2.2717   -1.6521    0.0000 N   0  0  0  0  0  0  0  0  0  0  0  0
    2.2717   -0.1521    0.0000 C   0  0  0  0  0  0  0  0  0  0  0  0
    3.5706    0.5981    0.0000 H   0  0  0  0  0  0  0  0  0  0  0  0
    0.9717    0.5979    0.0000 C   0  0  0  0  0  0  0  0  0  0  0  0
    0.9717    2.0979    0.0000 F   0  0  0  0  0  0  0  0  0  0  0  0
   -8.6345    3.7164    0.0000 O   0  0  0  0  0  0  0  0  0  0  0  0
   -9.9860    4.3672    0.0000 H   0  0  0  0  0  0  0  0  0  0  0  0
  1  2  1  0  0  0  0 
  1  3  1  0  0  0  0 
  1  4  1  0  0  0  0 
  5  1  1  6  0  0  0 
  5  6  1  1  0  0  0 
  5  7  1  0  0  0  0 
  7  8  1  0  0  0  0 
  7  9  1  0  0  0  0 
  7 10  1  0  0  0  0 
 10 11  1  0  0  0  0 
 10 12  1  0  0  0  0 
 12 13  1  0  0  0  0 
 12 14  1  0  0  0  0 
 14 15  1  0  0  0  0 
 14 16  1  0  0  0  0 
 14 17  1  0  0  0  0 
 17 18  1  0  0  0  0 
 17 19  1  0  0  0  0 
 17 20  1  0  0  0  0 
  5 20  1  0  0  0  0 
 20 21  1  0  0  0  0 
 21 22  2  0  0  0  0 
 21 23  2  0  0  0  0 
 21 24  1  0  0  0  0 
 24 25  2  0  0  0  0 
 25 26  1  0  0  0  0 
 26 27  2  0  0  0  0 
 27 28  1  0  0  0  0 
 27 29  1  0  0  0  0 
 29 30  1  0  0  0  0 
 29 31  2  0  0  0  0 
 24 31  1  0  0  0  0 
 31 32  1  0  0  0  0 
 26 33  1  0  0  0  0 
 33 34  1  0  0  0  0 
 33 35  2  0  0  0  0 
 35 36  1  0  0  0  0 
 36 37  1  0  0  0  0 
 36 38  2  0  0  0  0 
 25 38  1  0  0  0  0 
 38 39  1  0  0  0  0 
 12 40  1  0  0  0  0 
 40 41  1  0  0  0  0 
M  END
> <Rank>
3

> <Priority_score>
0.424

> <Reaction_type>
aliphatic_hydroxylation_(sec_carbon_next_to_SP2,in_a_ring)

> <Parent_ID>
54

> <Parent_InChI>
InChI=1S/C15H18FN3O2S/c1-11-8-17-6-3-7-19(11)22(20,21)14-5-2-4-12-9-18-10-13(16)15(12)14/h2,4-5,9-11,17H,3,6-8H2,1H3

> <Parent_SMILES>
C[C@H]1CNCCCN1S(=O)(=O)c1cccc2cncc(F)c12

$$$$
Molecule 54_metabolite 5
  CDK     0516241031

 39 41  0  0  0  0  0  0  0  0999 V2000
   -2.6290    4.6216    0.0000 C   0  0  0  0  0  0  0  0  0  0  0  0
   -1.5294    5.6418    0.0000 H   0  0  0  0  0  0  0  0  0  0  0  0
   -3.3133    3.2868    0.0000 H   0  0  0  0  0  0  0  0  0  0  0  0
   -1.4333    3.7159    0.0000 H   0  0  0  0  0  0  0  0  0  0  0  0
   -4.0624    5.0637    0.0000 C   0  0  1  0  0  0  0  0  0  0  0  0
   -3.3124    6.3627    0.0000 H   0  0  0  0  0  0  0  0  0  0  0  0
   -5.1619    6.0840    0.0000 C   0  0  0  0  0  0  0  0  0  0  0  0
   -3.9226    6.9289    0.0000 H   0  0  0  0  0  0  0  0  0  0  0  0
   -5.7099    7.4803    0.0000 H   0  0  0  0  0  0  0  0  0  0  0  0
   -6.6452    5.8604    0.0000 N   0  0  0  0  0  0  0  0  0  0  0  0
   -7.4902    7.0998    0.0000 H   0  0  0  0  0  0  0  0  0  0  0  0
   -7.3952    4.5614    0.0000 C   0  0  0  0  0  0  0  0  0  0  0  0
   -8.8910    4.6735    0.0000 O   0  0  0  0  0  0  0  0  0  0  0  0
   -6.8472    3.1650    0.0000 C   0  0  0  0  0  0  0  0  0  0  0  0
   -8.3304    2.9415    0.0000 H   0  0  0  0  0  0  0  0  0  0  0  0
   -6.9593    1.6692    0.0000 H   0  0  0  0  0  0  0  0  0  0  0  0
   -5.4138    2.7229    0.0000 C   0  0  0  0  0  0  0  0  0  0  0  0
   -6.1638    1.4239    0.0000 H   0  0  0  0  0  0  0  0  0  0  0  0
   -4.3142    1.7027    0.0000 H   0  0  0  0  0  0  0  0  0  0  0  0
   -4.1745    3.5679    0.0000 N   0  0  0  0  0  0  0  0  0  0  0  0
   -1.6283    2.0979    0.0000 S   0  0  0  0  0  0  0  0  0  0  0  0
   -0.1511    1.8374    0.0000 O   0  0  0  0  0  0  0  0  0  0  0  0
   -0.0471    3.9824    0.0000 O   0  0  0  0  0  0  0  0  0  0  0  0
   -1.6283    0.5979    0.0000 C   0  0  0  0  0  0  0  0  0  0  0  0
   -0.3283   -0.1521    0.0000 C   0  0  0  0  0  0  0  0  0  0  0  0
   -0.3283   -1.6521    0.0000 C   0  0  0  0  0  0  0  0  0  0  0  0
   -1.6283   -2.4021    0.0000 C   0  0  0  0  0  0  0  0  0  0  0  0
   -1.6283   -3.9021    0.0000 H   0  0  0  0  0  0  0  0  0  0  0  0
   -2.9283   -1.6521    0.0000 C   0  0  0  0  0  0  0  0  0  0  0  0
   -4.2273   -2.4023    0.0000 H   0  0  0  0  0  0  0  0  0  0  0  0
   -2.9283   -0.1521    0.0000 C   0  0  0  0  0  0  0  0  0  0  0  0
   -4.2273    0.5981    0.0000 H   0  0  0  0  0  0  0  0  0  0  0  0
    0.9717   -2.4021    0.0000 C   0  0  0  0  0  0  0  0  0  0  0  0
    0.9717   -3.9021    0.0000 H   0  0  0  0  0  0  0  0  0  0  0  0
    2.2717   -1.6521    0.0000 N   0  0  0  0  0  0  0  0  0  0  0  0
    2.2717   -0.1521    0.0000 C   0  0  0  0  0  0  0  0  0  0  0  0
    3.5706    0.5981    0.0000 H   0  0  0  0  0  0  0  0  0  0  0  0
    0.9717    0.5979    0.0000 C   0  0  0  0  0  0  0  0  0  0  0  0
    0.9717    2.0979    0.0000 F   0  0  0  0  0  0  0  0  0  0  0  0
  1  2  1  0  0  0  0 
  1  3  1  0  0  0  0 
  1  4  1  0  0  0  0 
  5  1  1  6  0  0  0 
  5  6  1  1  0  0  0 
  5  7  1  0  0  0  0 
  7  8  1  0  0  0  0 
  7  9  1  0  0  0  0 
  7 10  1  0  0  0  0 
 10 11  1  0  0  0  0 
 10 12  1  0  0  0  0 
 12 13  2  0  0  0  0 
 12 14  1  0  0  0  0 
 14 15  1  0  0  0  0 
 14 16  1  0  0  0  0 
 14 17  1  0  0  0  0 
 17 18  1  0  0  0  0 
 17 19  1  0  0  0  0 
 17 20  1  0  0  0  0 
  5 20  1  0  0  0  0 
 20 21  1  0  0  0  0 
 21 22  2  0  0  0  0 
 21 23  2  0  0  0  0 
 21 24  1  0  0  0  0 
 24 25  2  0  0  0  0 
 25 26  1  0  0  0  0 
 26 27  2  0  0  0  0 
 27 28  1  0  0  0  0 
 27 29  1  0  0  0  0 
 29 30  1  0  0  0  0 
 29 31  2  0  0  0  0 
 24 31  1  0  0  0  0 
 31 32  1  0  0  0  0 
 26 33  1  0  0  0  0 
 33 34  1  0  0  0  0 
 33 35  2  0  0  0  0 
 35 36  1  0  0  0  0 
 36 37  1  0  0  0  0 
 36 38  2  0  0  0  0 
 25 38  1  0  0  0  0 
 38 39  1  0  0  0  0 
M  END
> <Rank>
3

> <Priority_score>
0.424

> <Reaction_type>
oxidation_(amine_in_a_ring)

> <Parent_ID>
54

> <Parent_InChI>
InChI=1S/C15H18FN3O2S/c1-11-8-17-6-3-7-19(11)22(20,21)14-5-2-4-12-9-18-10-13(16)15(12)14/h2,4-5,9-11,17H,3,6-8H2,1H3

> <Parent_SMILES>
C[C@H]1CNCCCN1S(=O)(=O)c1cccc2cncc(F)c12

$$$$
Molecule 54_metabolite 6
  CDK     0516241031

 41 43  0  0  0  0  0  0  0  0999 V2000
   -2.6290    4.6216    0.0000 C   0  0  0  0  0  0  0  0  0  0  0  0
   -1.5294    5.6418    0.0000 H   0  0  0  0  0  0  0  0  0  0  0  0
   -3.3133    3.2868    0.0000 H   0  0  0  0  0  0  0  0  0  0  0  0
   -1.4333    3.7159    0.0000 H   0  0  0  0  0  0  0  0  0  0  0  0
   -4.0624    5.0637    0.0000 C   0  0  1  0  0  0  0  0  0  0  0  0
   -3.3124    6.3627    0.0000 H   0  0  0  0  0  0  0  0  0  0  0  0
   -5.1619    6.0840    0.0000 C   0  0  0  0  0  0  0  0  0  0  0  0
   -3.9226    6.9289    0.0000 H   0  0  0  0  0  0  0  0  0  0  0  0
   -5.7099    7.4803    0.0000 H   0  0  0  0  0  0  0  0  0  0  0  0
   -6.6452    5.8604    0.0000 N   0  0  0  0  0  0  0  0  0  0  0  0
   -7.3952    4.5614    0.0000 C   0  0  0  0  0  0  0  0  0  0  0  0
   -8.4948    5.5816    0.0000 H   0  0  0  0  0  0  0  0  0  0  0  0
   -8.6345    3.7164    0.0000 H   0  0  0  0  0  0  0  0  0  0  0  0
   -6.8472    3.1650    0.0000 C   0  0  0  0  0  0  0  0  0  0  0  0
   -8.3304    2.9415    0.0000 H   0  0  0  0  0  0  0  0  0  0  0  0
   -6.9593    1.6692    0.0000 H   0  0  0  0  0  0  0  0  0  0  0  0
   -5.4138    2.7229    0.0000 C   0  0  0  0  0  0  0  0  0  0  0  0
   -6.1638    1.4239    0.0000 H   0  0  0  0  0  0  0  0  0  0  0  0
   -4.3142    1.7027    0.0000 H   0  0  0  0  0  0  0  0  0  0  0  0
   -4.1745    3.5679    0.0000 N   0  0  0  0  0  0  0  0  0  0  0  0
   -1.6283    2.0979    0.0000 S   0  0  0  0  0  0  0  0  0  0  0  0
   -0.1511    1.8374    0.0000 O   0  0  0  0  0  0  0  0  0  0  0  0
   -0.0471    3.9824    0.0000 O   0  0  0  0  0  0  0  0  0  0  0  0
   -1.6283    0.5979    0.0000 C   0  0  0  0  0  0  0  0  0  0  0  0
   -0.3283   -0.1521    0.0000 C   0  0  0  0  0  0  0  0  0  0  0  0
   -0.3283   -1.6521    0.0000 C   0  0  0  0  0  0  0  0  0  0  0  0
   -1.6283   -2.4021    0.0000 C   0  0  0  0  0  0  0  0  0  0  0  0
   -1.6283   -3.9021    0.0000 H   0  0  0  0  0  0  0  0  0  0  0  0
   -2.9283   -1.6521    0.0000 C   0  0  0  0  0  0  0  0  0  0  0  0
   -4.2273   -2.4023    0.0000 H   0  0  0  0  0  0  0  0  0  0  0  0
   -2.9283   -0.1521    0.0000 C   0  0  0  0  0  0  0  0  0  0  0  0
   -4.2273    0.5981    0.0000 H   0  0  0  0  0  0  0  0  0  0  0  0
    0.9717   -2.4021    0.0000 C   0  0  0  0  0  0  0  0  0  0  0  0
    0.9717   -3.9021    0.0000 H   0  0  0  0  0  0  0  0  0  0  0  0
    2.2717   -1.6521    0.0000 N   0  0  0  0  0  0  0  0  0  0  0  0
    2.2717   -0.1521    0.0000 C   0  0  0  0  0  0  0  0  0  0  0  0
    3.5706    0.5981    0.0000 H   0  0  0  0  0  0  0  0  0  0  0  0
    0.9717    0.5979    0.0000 C   0  0  0  0  0  0  0  0  0  0  0  0
    0.9717    2.0979    0.0000 F   0  0  0  0  0  0  0  0  0  0  0  0
   -7.4902    7.0998    0.0000 O   0  0  0  0  0  0  0  0  0  0  0  0
   -8.9860    6.9877    0.0000 H   0  0  0  0  0  0  0  0  0  0  0  0
  1  2  1  0  0  0  0 
  1  3  1  0  0  0  0 
  1  4  1  0  0  0  0 
  5  1  1  6  0  0  0 
  5  6  1  1  0  0  0 
  5  7  1  0  0  0  0 
  7  8  1  0  0  0  0 
  7  9  1  0  0  0  0 
  7 10  1  0  0  0  0 
 10 11  1  0  0  0  0 
 11 12  1  0  0  0  0 
 11 13  1  0  0  0  0 
 11 14  1  0  0  0  0 
 14 15  1  0  0  0  0 
 14 16  1  0  0  0  0 
 14 17  1  0  0  0  0 
 17 18  1  0  0  0  0 
 17 19  1  0  0  0  0 
 17 20  1  0  0  0  0 
  5 20  1  0  0  0  0 
 20 21  1  0  0  0  0 
 21 22  2  0  0  0  0 
 21 23  2  0  0  0  0 
 21 24  1  0  0  0  0 
 24 25  2  0  0  0  0 
 25 26  1  0  0  0  0 
 26 27  2  0  0  0  0 
 27 28  1  0  0  0  0 
 27 29  1  0  0  0  0 
 29 30  1  0  0  0  0 
 29 31  2  0  0  0  0 
 24 31  1  0  0  0  0 
 31 32  1  0  0  0  0 
 26 33  1  0  0  0  0 
 33 34  1  0  0  0  0 
 33 35  2  0  0  0  0 
 35 36  1  0  0  0  0 
 36 37  1  0  0  0  0 
 36 38  2  0  0  0  0 
 25 38  1  0  0  0  0 
 38 39  1  0  0  0  0 
 10 40  1  0  0  0  0 
 40 41  1  0  0  0  0 
M  END
> <Rank>
3

> <Priority_score>
0.424

> <Reaction_type>
amine hydroxylation

> <Parent_ID>
54

> <Parent_InChI>
InChI=1S/C15H18FN3O2S/c1-11-8-17-6-3-7-19(11)22(20,21)14-5-2-4-12-9-18-10-13(16)15(12)14/h2,4-5,9-11,17H,3,6-8H2,1H3

> <Parent_SMILES>
C[C@H]1CNCCCN1S(=O)(=O)c1cccc2cncc(F)c12

$$$$
Molecule 54_metabolite 7
  CDK     0516241031

 41 42  0  0  0  0  0  0  0  0999 V2000
   -0.7541    4.6810    0.0000 C   0  0  0  0  0  0  0  0  0  0  0  0
   -0.2411    3.2715    0.0000 H   0  0  0  0  0  0  0  0  0  0  0  0
   -0.7541    6.1810    0.0000 H   0  0  0  0  0  0  0  0  0  0  0  0
    0.7231    4.9415    0.0000 H   0  0  0  0  0  0  0  0  0  0  0  0
   -2.7040    5.0248    0.0000 C   0  0  1  0  0  0  0  0  0  0  0  0
   -2.1910    6.4344    0.0000 H   0  0  0  0  0  0  0  0  0  0  0  0
   -4.0031    5.7748    0.0000 C   0  0  0  0  0  0  0  0  0  0  0  0
   -5.4803    6.0353    0.0000 H   0  0  0  0  0  0  0  0  0  0  0  0
   -4.5161    4.3653    0.0000 H   0  0  0  0  0  0  0  0  0  0  0  0
   -4.0031    7.2748    0.0000 N   0  0  0  0  0  0  0  0  0  0  0  0
   -5.3021    8.0248    0.0000 H   0  0  0  0  0  0  0  0  0  0  0  0
   -2.7040    8.0248    0.0000 H   0  0  0  0  0  0  0  0  0  0  0  0
   -2.9645    3.5476    0.0000 N   0  0  0  0  0  0  0  0  0  0  0  0
   -4.3741    3.0346    0.0000 C   0  0  0  0  0  0  0  0  0  0  0  0
   -5.5231    2.0704    0.0000 H   0  0  0  0  0  0  0  0  0  0  0  0
   -3.6241    1.7355    0.0000 H   0  0  0  0  0  0  0  0  0  0  0  0
   -5.8908    4.3073    0.0000 C   0  0  0  0  0  0  0  0  0  0  0  0
   -4.7418    5.2715    0.0000 H   0  0  0  0  0  0  0  0  0  0  0  0
   -6.6408    5.6063    0.0000 H   0  0  0  0  0  0  0  0  0  0  0  0
   -7.3004    3.7943    0.0000 C   0  0  0  0  0  0  0  0  0  0  0  0
   -8.4494    4.7584    0.0000 H   0  0  0  0  0  0  0  0  0  0  0  0
   -7.5608    2.3170    0.0000 O   0  0  0  0  0  0  0  0  0  0  0  0
   -1.8155    2.5834    0.0000 S   0  0  0  0  0  0  0  0  0  0  0  0
   -0.4059    2.0704    0.0000 O   0  0  0  0  0  0  0  0  0  0  0  0
   -1.0655    3.8825    0.0000 O   0  0  0  0  0  0  0  0  0  0  0  0
   -2.0759    1.1062    0.0000 C   0  0  0  0  0  0  0  0  0  0  0  0
   -0.9259    0.1419    0.0000 C   0  0  0  0  0  0  0  0  0  0  0  0
   -1.1864   -1.3354    0.0000 C   0  0  0  0  0  0  0  0  0  0  0  0
   -2.5969   -1.8482    0.0000 C   0  0  0  0  0  0  0  0  0  0  0  0
   -2.8573   -3.3254    0.0000 H   0  0  0  0  0  0  0  0  0  0  0  0
   -3.7469   -0.8839    0.0000 C   0  0  0  0  0  0  0  0  0  0  0  0
   -5.1563   -1.3971    0.0000 H   0  0  0  0  0  0  0  0  0  0  0  0
   -3.4864    0.5933    0.0000 C   0  0  0  0  0  0  0  0  0  0  0  0
   -4.6353    1.5577    0.0000 H   0  0  0  0  0  0  0  0  0  0  0  0
   -0.0364   -2.2997    0.0000 C   0  0  0  0  0  0  0  0  0  0  0  0
   -0.2968   -3.7769    0.0000 H   0  0  0  0  0  0  0  0  0  0  0  0
    1.3741   -1.7868    0.0000 N   0  0  0  0  0  0  0  0  0  0  0  0
    1.6346   -0.3096    0.0000 C   0  0  0  0  0  0  0  0  0  0  0  0
    3.0440    0.2036    0.0000 H   0  0  0  0  0  0  0  0  0  0  0  0
    0.4846    0.6547    0.0000 C   0  0  0  0  0  0  0  0  0  0  0  0
    0.7451    2.1319    0.0000 F   0  0  0  0  0  0  0  0  0  0  0  0
  1  2  1  0  0  0  0 
  1  3  1  0  0  0  0 
  1  4  1  0  0  0  0 
  5  1  1  6  0  0  0 
  5  6  1  1  0  0  0 
  5  7  1  0  0  0  0 
  7  8  1  0  0  0  0 
  7  9  1  0  0  0  0 
  7 10  1  0  0  0  0 
 10 11  1  0  0  0  0 
 10 12  1  0  0  0  0 
  5 13  1  0  0  0  0 
 13 14  1  0  0  0  0 
 14 15  1  0  0  0  0 
 14 16  1  0  0  0  0 
 14 17  1  0  0  0  0 
 17 18  1  0  0  0  0 
 17 19  1  0  0  0  0 
 17 20  1  0  0  0  0 
 20 21  1  0  0  0  0 
 20 22  2  0  0  0  0 
 13 23  1  0  0  0  0 
 23 24  2  0  0  0  0 
 23 25  2  0  0  0  0 
 23 26  1  0  0  0  0 
 26 27  2  0  0  0  0 
 27 28  1  0  0  0  0 
 28 29  2  0  0  0  0 
 29 30  1  0  0  0  0 
 29 31  1  0  0  0  0 
 31 32  1  0  0  0  0 
 31 33  2  0  0  0  0 
 26 33  1  0  0  0  0 
 33 34  1  0  0  0  0 
 28 35  1  0  0  0  0 
 35 36  1  0  0  0  0 
 35 37  2  0  0  0  0 
 37 38  1  0  0  0  0 
 38 39  1  0  0  0  0 
 38 40  2  0  0  0  0 
 27 40  1  0  0  0  0 
 40 41  1  0  0  0  0 
M  END
> <Rank>
3

> <Priority_score>
0.424

> <Reaction_type>
N-dealkylation

> <Parent_ID>
54

> <Parent_InChI>
InChI=1S/C15H18FN3O2S/c1-11-8-17-6-3-7-19(11)22(20,21)14-5-2-4-12-9-18-10-13(16)15(12)14/h2,4-5,9-11,17H,3,6-8H2,1H3

> <Parent_SMILES>
C[C@H]1CNCCCN1S(=O)(=O)c1cccc2cncc(F)c12

$$$$
Molecule 54_metabolite 8
  CDK     0516241031

 41 42  0  0  0  0  0  0  0  0999 V2000
   -1.1218    4.5095    0.0000 C   0  0  0  0  0  0  0  0  0  0  0  0
   -0.6088    3.1000    0.0000 H   0  0  0  0  0  0  0  0  0  0  0  0
   -1.1218    6.0095    0.0000 H   0  0  0  0  0  0  0  0  0  0  0  0
    0.3554    4.7700    0.0000 H   0  0  0  0  0  0  0  0  0  0  0  0
   -2.5990    4.7700    0.0000 C   0  0  1  0  0  0  0  0  0  0  0  0
   -2.0860    6.1795    0.0000 H   0  0  0  0  0  0  0  0  0  0  0  0
   -3.8981    5.5200    0.0000 C   0  0  0  0  0  0  0  0  0  0  0  0
   -5.3753    5.7805    0.0000 H   0  0  0  0  0  0  0  0  0  0  0  0
   -4.4111    4.1105    0.0000 H   0  0  0  0  0  0  0  0  0  0  0  0
   -3.8981    7.5000    0.0000 N   0  0  0  0  0  0  0  0  0  0  0  0
   -2.5990    8.2500    0.0000 H   0  0  0  0  0  0  0  0  0  0  0  0
   -5.1971    8.2500    0.0000 C   0  0  0  0  0  0  0  0  0  0  0  0
   -6.6743    8.5105    0.0000 H   0  0  0  0  0  0  0  0  0  0  0  0
   -5.7101    6.8405    0.0000 H   0  0  0  0  0  0  0  0  0  0  0  0
   -5.1971    9.7500    0.0000 C   0  0  0  0  0  0  0  0  0  0  0  0
   -3.7199    9.4895    0.0000 H   0  0  0  0  0  0  0  0  0  0  0  0
   -4.6841   11.1595    0.0000 H   0  0  0  0  0  0  0  0  0  0  0  0
   -6.4962   10.5000    0.0000 C   0  0  0  0  0  0  0  0  0  0  0  0
   -6.4962   12.0000    0.0000 H   0  0  0  0  0  0  0  0  0  0  0  0
   -7.7952    9.7500    0.0000 O   0  0  0  0  0  0  0  0  0  0  0  0
   -2.5990    3.2700    0.0000 N   0  0  0  0  0  0  0  0  0  0  0  0
   -3.8981    2.5200    0.0000 H   0  0  0  0  0  0  0  0  0  0  0  0
   -0.8843    2.2800    0.0000 S   0  0  0  0  0  0  0  0  0  0  0  0
    0.5929    2.0195    0.0000 O   0  0  0  0  0  0  0  0  0  0  0  0
    0.0799    3.4291    0.0000 O   0  0  0  0  0  0  0  0  0  0  0  0
   -0.8843    0.7800    0.0000 C   0  0  0  0  0  0  0  0  0  0  0  0
    0.4157    0.0300    0.0000 C   0  0  0  0  0  0  0  0  0  0  0  0
    0.4157   -1.4700    0.0000 C   0  0  0  0  0  0  0  0  0  0  0  0
   -0.8843   -2.2200    0.0000 C   0  0  0  0  0  0  0  0  0  0  0  0
   -0.8843   -3.7200    0.0000 H   0  0  0  0  0  0  0  0  0  0  0  0
   -2.1843   -1.4700    0.0000 C   0  0  0  0  0  0  0  0  0  0  0  0
   -3.4832   -2.2202    0.0000 H   0  0  0  0  0  0  0  0  0  0  0  0
   -2.1843    0.0300    0.0000 C   0  0  0  0  0  0  0  0  0  0  0  0
   -3.4832    0.7802    0.0000 H   0  0  0  0  0  0  0  0  0  0  0  0
    1.7157   -2.2200    0.0000 C   0  0  0  0  0  0  0  0  0  0  0  0
    1.7157   -3.7200    0.0000 H   0  0  0  0  0  0  0  0  0  0  0  0
    3.0157   -1.4700    0.0000 N   0  0  0  0  0  0  0  0  0  0  0  0
    3.0157    0.0300    0.0000 C   0  0  0  0  0  0  0  0  0  0  0  0
    4.3146    0.7802    0.0000 H   0  0  0  0  0  0  0  0  0  0  0  0
    1.7157    0.7800    0.0000 C   0  0  0  0  0  0  0  0  0  0  0  0
    1.7157    2.2800    0.0000 F   0  0  0  0  0  0  0  0  0  0  0  0
  1  2  1  0  0  0  0 
  1  3  1  0  0  0  0 
  1  4  1  0  0  0  0 
  5  1  1  6  0  0  0 
  5  6  1  1  0  0  0 
  5  7  1  0  0  0  0 
  7  8  1  0  0  0  0 
  7  9  1  0  0  0  0 
  7 10  1  0  0  0  0 
 10 11  1  0  0  0  0 
 10 12  1  0  0  0  0 
 12 13  1  0  0  0  0 
 12 14  1  0  0  0  0 
 12 15  1  0  0  0  0 
 15 16  1  0  0  0  0 
 15 17  1  0  0  0  0 
 15 18  1  0  0  0  0 
 18 19  1  0  0  0  0 
 18 20  2  0  0  0  0 
  5 21  1  0  0  0  0 
 21 22  1  0  0  0  0 
 21 23  1  0  0  0  0 
 23 24  2  0  0  0  0 
 23 25  2  0  0  0  0 
 23 26  1  0  0  0  0 
 26 27  2  0  0  0  0 
 27 28  1  0  0  0  0 
 28 29  2  0  0  0  0 
 29 30  1  0  0  0  0 
 29 31  1  0  0  0  0 
 31 32  1  0  0  0  0 
 31 33  2  0  0  0  0 
 26 33  1  0  0  0  0 
 33 34  1  0  0  0  0 
 28 35  1  0  0  0  0 
 35 36  1  0  0  0  0 
 35 37  2  0  0  0  0 
 37 38  1  0  0  0  0 
 38 39  1  0  0  0  0 
 38 40  2  0  0  0  0 
 27 40  1  0  0  0  0 
 40 41  1  0  0  0  0 
M  END
> <Rank>
8

> <Priority_score>
0.34

> <Reaction_type>
N-dealkylation

> <Parent_ID>
54

> <Parent_InChI>
InChI=1S/C15H18FN3O2S/c1-11-8-17-6-3-7-19(11)22(20,21)14-5-2-4-12-9-18-10-13(16)15(12)14/h2,4-5,9-11,17H,3,6-8H2,1H3

> <Parent_SMILES>
C[C@H]1CNCCCN1S(=O)(=O)c1cccc2cncc(F)c12

$$$$
Molecule 54_metabolite 9
  CDK     0516241031

 39 41  0  0  0  0  0  0  0  0999 V2000
   -2.7933    4.9549    0.0000 C   0  0  0  0  0  0  0  0  0  0  0  0
   -1.6938    5.9752    0.0000 H   0  0  0  0  0  0  0  0  0  0  0  0
   -3.4777    3.6201    0.0000 H   0  0  0  0  0  0  0  0  0  0  0  0
   -1.5976    4.0492    0.0000 H   0  0  0  0  0  0  0  0  0  0  0  0
   -5.1440    5.6800    0.0000 C   0  0  1  0  0  0  0  0  0  0  0  0
   -4.3940    6.9791    0.0000 H   0  0  0  0  0  0  0  0  0  0  0  0
   -6.2436    6.7003    0.0000 C   0  0  0  0  0  0  0  0  0  0  0  0
   -5.0043    7.5453    0.0000 H   0  0  0  0  0  0  0  0  0  0  0  0
   -6.7916    8.0966    0.0000 H   0  0  0  0  0  0  0  0  0  0  0  0
   -7.7269    6.4767    0.0000 N   0  0  0  0  0  0  0  0  0  0  0  0
   -8.5718    7.7161    0.0000 H   0  0  0  0  0  0  0  0  0  0  0  0
   -8.4769    5.1777    0.0000 C   0  0  0  0  0  0  0  0  0  0  0  0
   -9.5764    6.1979    0.0000 H   0  0  0  0  0  0  0  0  0  0  0  0
   -9.7162    4.3327    0.0000 H   0  0  0  0  0  0  0  0  0  0  0  0
   -7.9289    3.7814    0.0000 C   0  0  0  0  0  0  0  0  0  0  0  0
   -9.4121    3.5578    0.0000 H   0  0  0  0  0  0  0  0  0  0  0  0
   -8.0410    2.2856    0.0000 H   0  0  0  0  0  0  0  0  0  0  0  0
   -6.4955    3.3392    0.0000 C   0  0  0  0  0  0  0  0  0  0  0  0
   -6.2719    1.8560    0.0000 O   0  0  0  0  0  0  0  0  0  0  0  0
   -5.2561    4.1842    0.0000 N   0  0  0  0  0  0  0  0  0  0  0  0
   -3.0040    2.2944    0.0000 S   0  0  0  0  0  0  0  0  0  0  0  0
   -1.5944    1.7814    0.0000 O   0  0  0  0  0  0  0  0  0  0  0  0
   -0.7518    4.1842    0.0000 O   0  0  0  0  0  0  0  0  0  0  0  0
   -3.3478    0.3445    0.0000 C   0  0  0  0  0  0  0  0  0  0  0  0
   -2.1978   -0.6199    0.0000 C   0  0  0  0  0  0  0  0  0  0  0  0
   -2.4583   -2.0971    0.0000 C   0  0  0  0  0  0  0  0  0  0  0  0
   -3.8687   -2.6099    0.0000 C   0  0  0  0  0  0  0  0  0  0  0  0
   -4.1292   -4.0871    0.0000 H   0  0  0  0  0  0  0  0  0  0  0  0
   -5.0188   -1.6456    0.0000 C   0  0  0  0  0  0  0  0  0  0  0  0
   -6.4282   -2.1588    0.0000 H   0  0  0  0  0  0  0  0  0  0  0  0
   -4.7583   -0.1684    0.0000 C   0  0  0  0  0  0  0  0  0  0  0  0
   -5.9072    0.7960    0.0000 H   0  0  0  0  0  0  0  0  0  0  0  0
   -1.3082   -3.0614    0.0000 C   0  0  0  0  0  0  0  0  0  0  0  0
   -1.5687   -4.5386    0.0000 H   0  0  0  0  0  0  0  0  0  0  0  0
    0.1022   -2.5485    0.0000 N   0  0  0  0  0  0  0  0  0  0  0  0
    0.3627   -1.0713    0.0000 C   0  0  0  0  0  0  0  0  0  0  0  0
    1.7722   -0.5581    0.0000 H   0  0  0  0  0  0  0  0  0  0  0  0
   -0.7873   -0.1070    0.0000 C   0  0  0  0  0  0  0  0  0  0  0  0
   -0.5268    1.3702    0.0000 F   0  0  0  0  0  0  0  0  0  0  0  0
  1  2  1  0  0  0  0 
  1  3  1  0  0  0  0 
  1  4  1  0  0  0  0 
  5  1  1  6  0  0  0 
  5  6  1  1  0  0  0 
  5  7  1  0  0  0  0 
  7  8  1  0  0  0  0 
  7  9  1  0  0  0  0 
  7 10  1  0  0  0  0 
 10 11  1  0  0  0  0 
 10 12  1  0  0  0  0 
 12 13  1  0  0  0  0 
 12 14  1  0  0  0  0 
 12 15  1  0  0  0  0 
 15 16  1  0  0  0  0 
 15 17  1  0  0  0  0 
 15 18  1  0  0  0  0 
 18 19  2  0  0  0  0 
 18 20  1  0  0  0  0 
  5 20  1  0  0  0  0 
 20 21  1  0  0  0  0 
 21 22  2  0  0  0  0 
 21 23  2  0  0  0  0 
 21 24  1  0  0  0  0 
 24 25  2  0  0  0  0 
 25 26  1  0  0  0  0 
 26 27  2  0  0  0  0 
 27 28  1  0  0  0  0 
 27 29  1  0  0  0  0 
 29 30  1  0  0  0  0 
 29 31  2  0  0  0  0 
 24 31  1  0  0  0  0 
 31 32  1  0  0  0  0 
 26 33  1  0  0  0  0 
 33 34  1  0  0  0  0 
 33 35  2  0  0  0  0 
 35 36  1  0  0  0  0 
 36 37  1  0  0  0  0 
 36 38  2  0  0  0  0 
 25 38  1  0  0  0  0 
 38 39  1  0  0  0  0 
M  END
> <Rank>
8

> <Priority_score>
0.34

> <Reaction_type>
oxidation_(amine_in_a_ring)

> <Parent_ID>
54

> <Parent_InChI>
InChI=1S/C15H18FN3O2S/c1-11-8-17-6-3-7-19(11)22(20,21)14-5-2-4-12-9-18-10-13(16)15(12)14/h2,4-5,9-11,17H,3,6-8H2,1H3

> <Parent_SMILES>
C[C@H]1CNCCCN1S(=O)(=O)c1cccc2cncc(F)c12

$$$$
Molecule 54_metabolite 10
  CDK     0516241031

 41 43  0  0  0  0  0  0  0  0999 V2000
   -4.1686    3.6484    0.0000 C   0  0  0  0  0  0  0  0  0  0  0  0
   -1.2368    3.8681    0.0000 H   0  0  0  0  0  0  0  0  0  0  0  0
   -5.5358    3.0314    0.0000 H   0  0  0  0  0  0  0  0  0  0  0  0
   -3.7984    2.1948    0.0000 H   0  0  0  0  0  0  0  0  0  0  0  0
   -5.0135    4.8877    0.0000 C   0  0  1  0  0  0  0  0  0  0  0  0
   -3.6172    5.4357    0.0000 H   0  0  0  0  0  0  0  0  0  0  0  0
   -5.2371    6.3710    0.0000 C   0  0  0  0  0  0  0  0  0  0  0  0
   -3.7413    6.2589    0.0000 H   0  0  0  0  0  0  0  0  0  0  0  0
   -4.7950    7.8043    0.0000 H   0  0  0  0  0  0  0  0  0  0  0  0
   -6.5361    7.1210    0.0000 N   0  0  0  0  0  0  0  0  0  0  0  0
   -6.4241    8.6168    0.0000 H   0  0  0  0  0  0  0  0  0  0  0  0
   -7.9325    6.5730    0.0000 C   0  0  0  0  0  0  0  0  0  0  0  0
   -8.1560    8.0562    0.0000 H   0  0  0  0  0  0  0  0  0  0  0  0
   -9.4283    6.6851    0.0000 H   0  0  0  0  0  0  0  0  0  0  0  0
   -8.3746    5.1396    0.0000 C   0  0  0  0  0  0  0  0  0  0  0  0
   -9.6736    5.8896    0.0000 H   0  0  0  0  0  0  0  0  0  0  0  0
   -9.3949    4.0400    0.0000 H   0  0  0  0  0  0  0  0  0  0  0  0
   -7.5296    3.9003    0.0000 C   0  0  0  0  0  0  0  0  0  0  0  0
   -8.9259    3.3522    0.0000 H   0  0  0  0  0  0  0  0  0  0  0  0
   -7.3060    2.4170    0.0000 H   0  0  0  0  0  0  0  0  0  0  0  0
   -6.0338    3.7882    0.0000 N   0  0  0  0  0  0  0  0  0  0  0  0
   -6.4759    2.3548    0.0000 O   0  0  0  0  0  0  0  0  0  0  0  0
   -4.5638    1.2420    0.0000 S   0  0  0  0  0  0  0  0  0  0  0  0
   -3.4147    0.2779    0.0000 O   0  0  0  0  0  0  0  0  0  0  0  0
   -2.3116    3.1318    0.0000 O   0  0  0  0  0  0  0  0  0  0  0  0
   -5.3138   -0.0570    0.0000 C   0  0  0  0  0  0  0  0  0  0  0  0
   -4.5630   -1.3565    0.0000 C   0  0  0  0  0  0  0  0  0  0  0  0
   -5.3130   -2.6556    0.0000 C   0  0  0  0  0  0  0  0  0  0  0  0
   -6.8138   -2.6551    0.0000 C   0  0  0  0  0  0  0  0  0  0  0  0
   -7.5638   -3.9541    0.0000 H   0  0  0  0  0  0  0  0  0  0  0  0
   -7.5646   -1.3556    0.0000 C   0  0  0  0  0  0  0  0  0  0  0  0
   -9.0646   -1.3558    0.0000 H   0  0  0  0  0  0  0  0  0  0  0  0
   -6.8146   -0.0565    0.0000 C   0  0  0  0  0  0  0  0  0  0  0  0
   -7.5644    1.2426    0.0000 H   0  0  0  0  0  0  0  0  0  0  0  0
   -4.5621   -3.9551    0.0000 C   0  0  0  0  0  0  0  0  0  0  0  0
   -5.3121   -5.2541    0.0000 H   0  0  0  0  0  0  0  0  0  0  0  0
   -3.0613   -3.9556    0.0000 N   0  0  0  0  0  0  0  0  0  0  0  0
   -2.3113   -2.6565    0.0000 C   0  0  0  0  0  0  0  0  0  0  0  0
   -0.8113   -2.6563    0.0000 H   0  0  0  0  0  0  0  0  0  0  0  0
   -3.0621   -1.3570    0.0000 C   0  0  0  0  0  0  0  0  0  0  0  0
   -2.3121   -0.0580    0.0000 F   0  0  0  0  0  0  0  0  0  0  0  0
  1  2  1  0  0  0  0 
  1  3  1  0  0  0  0 
  1  4  1  0  0  0  0 
  5  1  1  6  0  0  0 
  5  6  1  1  0  0  0 
  5  7  1  0  0  0  0 
  7  8  1  0  0  0  0 
  7  9  1  0  0  0  0 
  7 10  1  0  0  0  0 
 10 11  1  0  0  0  0 
 10 12  1  0  0  0  0 
 12 13  1  0  0  0  0 
 12 14  1  0  0  0  0 
 12 15  1  0  0  0  0 
 15 16  1  0  0  0  0 
 15 17  1  0  0  0  0 
 15 18  1  0  0  0  0 
 18 19  1  0  0  0  0 
 18 20  1  0  0  0  0 
 18 21  1  0  0  0  0 
  5 21  1  0  0  0  0 
 21 22  1  0  0  0  0 
 21 23  1  0  0  0  0 
 23 24  2  0  0  0  0 
 23 25  2  0  0  0  0 
 23 26  1  0  0  0  0 
 26 27  2  0  0  0  0 
 27 28  1  0  0  0  0 
 28 29  2  0  0  0  0 
 29 30  1  0  0  0  0 
 29 31  1  0  0  0  0 
 31 32  1  0  0  0  0 
 31 33  2  0  0  0  0 
 26 33  1  0  0  0  0 
 33 34  1  0  0  0  0 
 28 35  1  0  0  0  0 
 35 36  1  0  0  0  0 
 35 37  2  0  0  0  0 
 37 38  1  0  0  0  0 
 38 39  1  0  0  0  0 
 38 40  2  0  0  0  0 
 27 40  1  0  0  0  0 
 40 41  1  0  0  0  0 
M  CHG  1  21   1
M  CHG  1  22  -1
M  END
> <Rank>
8

> <Priority_score>
0.34

> <Reaction_type>
N-oxidation

> <Parent_ID>
54

> <Parent_InChI>
InChI=1S/C15H18FN3O2S/c1-11-8-17-6-3-7-19(11)22(20,21)14-5-2-4-12-9-18-10-13(16)15(12)14/h2,4-5,9-11,17H,3,6-8H2,1H3

> <Parent_SMILES>
C[C@H]1CNCCCN1S(=O)(=O)c1cccc2cncc(F)c12

$$$$
Molecule 54_metabolite 11
  CDK     0516241031

 41 43  0  0  0  0  0  0  0  0999 V2000
   -1.9354    7.8289    0.0000 C   0  0  0  0  0  0  0  0  0  0  0  0
   -0.8358    8.8491    0.0000 H   0  0  0  0  0  0  0  0  0  0  0  0
   -2.6197    6.4941    0.0000 H   0  0  0  0  0  0  0  0  0  0  0  0
   -0.7397    6.9232    0.0000 H   0  0  0  0  0  0  0  0  0  0  0  0
   -3.3687    8.2710    0.0000 C   0  0  1  0  0  0  0  0  0  0  0  0
   -2.6187    9.5701    0.0000 H   0  0  0  0  0  0  0  0  0  0  0  0
   -4.4683    9.2913    0.0000 C   0  0  0  0  0  0  0  0  0  0  0  0
   -3.2290   10.1363    0.0000 H   0  0  0  0  0  0  0  0  0  0  0  0
   -5.0163   10.6876    0.0000 H   0  0  0  0  0  0  0  0  0  0  0  0
   -5.9516    9.0677    0.0000 N   0  0  0  0  0  0  0  0  0  0  0  0
   -6.7965   10.3071    0.0000 H   0  0  0  0  0  0  0  0  0  0  0  0
   -6.7016    7.7687    0.0000 C   0  0  0  0  0  0  0  0  0  0  0  0
   -7.8011    8.7889    0.0000 H   0  0  0  0  0  0  0  0  0  0  0  0
   -7.9409    6.9237    0.0000 H   0  0  0  0  0  0  0  0  0  0  0  0
   -6.1536    6.3724    0.0000 C   0  0  0  0  0  0  0  0  0  0  0  0
   -7.6368    6.1488    0.0000 H   0  0  0  0  0  0  0  0  0  0  0  0
   -6.2656    4.8766    0.0000 H   0  0  0  0  0  0  0  0  0  0  0  0
   -4.7202    5.9302    0.0000 C   0  0  0  0  0  0  0  0  0  0  0  0
   -5.9502    3.7998    0.0000 H   0  0  0  0  0  0  0  0  0  0  0  0
   -3.4808    6.7752    0.0000 N   0  0  0  0  0  0  0  0  0  0  0  0
   -0.9347    5.3052    0.0000 S   0  0  0  0  0  0  0  0  0  0  0  0
    0.5425    5.0447    0.0000 O   0  0  0  0  0  0  0  0  0  0  0  0
    0.6465    7.1897    0.0000 O   0  0  0  0  0  0  0  0  0  0  0  0
   -0.9347    2.3652    0.0000 C   0  0  0  0  0  0  0  0  0  0  0  0
    0.3653    1.6152    0.0000 C   0  0  0  0  0  0  0  0  0  0  0  0
    0.3653    0.1152    0.0000 C   0  0  0  0  0  0  0  0  0  0  0  0
   -0.9347   -0.6348    0.0000 C   0  0  0  0  0  0  0  0  0  0  0  0
   -0.9347   -2.1348    0.0000 H   0  0  0  0  0  0  0  0  0  0  0  0
   -2.2347    0.1152    0.0000 C   0  0  0  0  0  0  0  0  0  0  0  0
   -3.5336   -0.6350    0.0000 H   0  0  0  0  0  0  0  0  0  0  0  0
   -2.2347    1.6152    0.0000 C   0  0  0  0  0  0  0  0  0  0  0  0
   -3.5336    2.3654    0.0000 H   0  0  0  0  0  0  0  0  0  0  0  0
    1.6653   -0.6348    0.0000 C   0  0  0  0  0  0  0  0  0  0  0  0
    1.6653   -2.1348    0.0000 H   0  0  0  0  0  0  0  0  0  0  0  0
    2.9653    0.1152    0.0000 N   0  0  0  0  0  0  0  0  0  0  0  0
    2.9653    1.6152    0.0000 C   0  0  0  0  0  0  0  0  0  0  0  0
    4.2642    2.3654    0.0000 H   0  0  0  0  0  0  0  0  0  0  0  0
    1.6653    2.3652    0.0000 C   0  0  0  0  0  0  0  0  0  0  0  0
    1.6653    3.8652    0.0000 F   0  0  0  0  0  0  0  0  0  0  0  0
   -3.6206    4.9100    0.0000 O   0  0  0  0  0  0  0  0  0  0  0  0
   -4.5762    2.6431    0.0000 H   0  0  0  0  0  0  0  0  0  0  0  0
  1  2  1  0  0  0  0 
  1  3  1  0  0  0  0 
  1  4  1  0  0  0  0 
  5  1  1  6  0  0  0 
  5  6  1  1  0  0  0 
  5  7  1  0  0  0  0 
  7  8  1  0  0  0  0 
  7  9  1  0  0  0  0 
  7 10  1  0  0  0  0 
 10 11  1  0  0  0  0 
 10 12  1  0  0  0  0 
 12 13  1  0  0  0  0 
 12 14  1  0  0  0  0 
 12 15  1  0  0  0  0 
 15 16  1  0  0  0  0 
 15 17  1  0  0  0  0 
 15 18  1  0  0  0  0 
 18 19  1  0  0  0  0 
 18 20  1  0  0  0  0 
  5 20  1  0  0  0  0 
 20 21  1  0  0  0  0 
 21 22  2  0  0  0  0 
 21 23  2  0  0  0  0 
 21 24  1  0  0  0  0 
 24 25  2  0  0  0  0 
 25 26  1  0  0  0  0 
 26 27  2  0  0  0  0 
 27 28  1  0  0  0  0 
 27 29  1  0  0  0  0 
 29 30  1  0  0  0  0 
 29 31  2  0  0  0  0 
 24 31  1  0  0  0  0 
 31 32  1  0  0  0  0 
 26 33  1  0  0  0  0 
 33 34  1  0  0  0  0 
 33 35  2  0  0  0  0 
 35 36  1  0  0  0  0 
 36 37  1  0  0  0  0 
 36 38  2  0  0  0  0 
 25 38  1  0  0  0  0 
 38 39  1  0  0  0  0 
 18 40  1  0  0  0  0 
 40 41  1  0  0  0  0 
M  END
> <Rank>
8

> <Priority_score>
0.34

> <Reaction_type>
aliphatic_hydroxylation_(sec_carbon_next_to_SP2,in_a_ring)

> <Parent_ID>
54

> <Parent_InChI>
InChI=1S/C15H18FN3O2S/c1-11-8-17-6-3-7-19(11)22(20,21)14-5-2-4-12-9-18-10-13(16)15(12)14/h2,4-5,9-11,17H,3,6-8H2,1H3

> <Parent_SMILES>
C[C@H]1CNCCCN1S(=O)(=O)c1cccc2cncc(F)c12

$$$$
Molecule 54_metabolite 12
  CDK     0516241031

 41 43  0  0  0  0  0  0  0  0999 V2000
   -2.6290    4.6216    0.0000 C   0  0  0  0  0  0  0  0  0  0  0  0
   -1.5294    5.6418    0.0000 H   0  0  0  0  0  0  0  0  0  0  0  0
   -3.3133    3.2868    0.0000 H   0  0  0  0  0  0  0  0  0  0  0  0
   -1.4333    3.7159    0.0000 H   0  0  0  0  0  0  0  0  0  0  0  0
   -4.0624    5.0637    0.0000 C   0  0  1  0  0  0  0  0  0  0  0  0
   -3.3124    6.3627    0.0000 H   0  0  0  0  0  0  0  0  0  0  0  0
   -5.1619    6.0840    0.0000 C   0  0  0  0  0  0  0  0  0  0  0  0
   -3.9226    6.9289    0.0000 H   0  0  0  0  0  0  0  0  0  0  0  0
   -5.7099    7.4803    0.0000 H   0  0  0  0  0  0  0  0  0  0  0  0
   -6.6452    5.8604    0.0000 N   0  0  0  0  0  0  0  0  0  0  0  0
   -7.4902    7.0998    0.0000 H   0  0  0  0  0  0  0  0  0  0  0  0
   -7.3952    4.5614    0.0000 C   0  0  0  0  0  0  0  0  0  0  0  0
   -8.4948    5.5816    0.0000 H   0  0  0  0  0  0  0  0  0  0  0  0
   -8.6345    3.7164    0.0000 H   0  0  0  0  0  0  0  0  0  0  0  0
   -6.8472    3.1650    0.0000 C   0  0  0  0  0  0  0  0  0  0  0  0
   -8.3304    2.9415    0.0000 H   0  0  0  0  0  0  0  0  0  0  0  0
   -6.9593    1.6692    0.0000 H   0  0  0  0  0  0  0  0  0  0  0  0
   -5.4138    2.7229    0.0000 C   0  0  0  0  0  0  0  0  0  0  0  0
   -6.1638    1.4239    0.0000 H   0  0  0  0  0  0  0  0  0  0  0  0
   -4.3142    1.7027    0.0000 H   0  0  0  0  0  0  0  0  0  0  0  0
   -4.1745    3.5679    0.0000 N   0  0  0  0  0  0  0  0  0  0  0  0
   -1.6283    2.0979    0.0000 S   0  0  0  0  0  0  0  0  0  0  0  0
   -0.1511    1.8374    0.0000 O   0  0  0  0  0  0  0  0  0  0  0  0
   -0.0471    3.9824    0.0000 O   0  0  0  0  0  0  0  0  0  0  0  0
   -1.6283    0.5979    0.0000 C   0  0  0  0  0  0  0  0  0  0  0  0
   -0.3283   -0.1521    0.0000 C   0  0  0  0  0  0  0  0  0  0  0  0
   -0.3283   -1.6521    0.0000 C   0  0  0  0  0  0  0  0  0  0  0  0
   -1.6283   -2.4021    0.0000 C   0  0  0  0  0  0  0  0  0  0  0  0
   -1.6283   -3.9021    0.0000 H   0  0  0  0  0  0  0  0  0  0  0  0
   -2.9283   -1.6521    0.0000 C   0  0  0  0  0  0  0  0  0  0  0  0
   -4.2273   -2.4023    0.0000 H   0  0  0  0  0  0  0  0  0  0  0  0
   -2.9283   -0.1521    0.0000 C   0  0  0  0  0  0  0  0  0  0  0  0
   -4.2273    0.5981    0.0000 H   0  0  0  0  0  0  0  0  0  0  0  0
    0.9717   -2.4021    0.0000 C   0  0  0  0  0  0  0  0  0  0  0  0
    0.9717   -3.9021    0.0000 H   0  0  0  0  0  0  0  0  0  0  0  0
    2.2717   -1.6521    0.0000 N   0  0  0  0  0  0  0  0  0  0  0  0
    2.2717   -0.1521    0.0000 C   0  0  0  0  0  0  0  0  0  0  0  0
    3.5706    0.5981    0.0000 H   0  0  0  0  0  0  0  0  0  0  0  0
    0.9717    0.5979    0.0000 C   0  0  0  0  0  0  0  0  0  0  0  0
    0.9717    2.0979    0.0000 F   0  0  0  0  0  0  0  0  0  0  0  0
    3.5706   -2.4023    0.0000 O   0  0  0  0  0  0  0  0  0  0  0  0
  1  2  1  0  0  0  0 
  1  3  1  0  0  0  0 
  1  4  1  0  0  0  0 
  5  1  1  6  0  0  0 
  5  6  1  1  0  0  0 
  5  7  1  0  0  0  0 
  7  8  1  0  0  0  0 
  7  9  1  0  0  0  0 
  7 10  1  0  0  0  0 
 10 11  1  0  0  0  0 
 10 12  1  0  0  0  0 
 12 13  1  0  0  0  0 
 12 14  1  0  0  0  0 
 12 15  1  0  0  0  0 
 15 16  1  0  0  0  0 
 15 17  1  0  0  0  0 
 15 18  1  0  0  0  0 
 18 19  1  0  0  0  0 
 18 20  1  0  0  0  0 
 18 21  1  0  0  0  0 
  5 21  1  0  0  0  0 
 21 22  1  0  0  0  0 
 22 23  2  0  0  0  0 
 22 24  2  0  0  0  0 
 22 25  1  0  0  0  0 
 25 26  2  0  0  0  0 
 26 27  1  0  0  0  0 
 27 28  2  0  0  0  0 
 28 29  1  0  0  0  0 
 28 30  1  0  0  0  0 
 30 31  1  0  0  0  0 
 30 32  2  0  0  0  0 
 25 32  1  0  0  0  0 
 32 33  1  0  0  0  0 
 27 34  1  0  0  0  0 
 34 35  1  0  0  0  0 
 34 36  2  0  0  0  0 
 36 37  1  0  0  0  0 
 37 38  1  0  0  0  0 
 37 39  2  0  0  0  0 
 26 39  1  0  0  0  0 
 39 40  1  0  0  0  0 
 36 41  1  0  0  0  0 
M  CHG  1  36   1
M  CHG  1  41  -1
M  END
> <Rank>
12

> <Priority_score>
0.3073681148612165

> <Reaction_type>
N-oxidation_(-N=)

> <Parent_ID>
54

> <Parent_InChI>
InChI=1S/C15H18FN3O2S/c1-11-8-17-6-3-7-19(11)22(20,21)14-5-2-4-12-9-18-10-13(16)15(12)14/h2,4-5,9-11,17H,3,6-8H2,1H3

> <Parent_SMILES>
C[C@H]1CNCCCN1S(=O)(=O)c1cccc2cncc(F)c12

$$$$
Molecule 54_metabolite 13
  CDK     0516241031

 41 43  0  0  0  0  0  0  0  0999 V2000
   -2.6290    4.6216    0.0000 C   0  0  0  0  0  0  0  0  0  0  0  0
   -1.5294    5.6418    0.0000 H   0  0  0  0  0  0  0  0  0  0  0  0
   -3.3133    3.2868    0.0000 H   0  0  0  0  0  0  0  0  0  0  0  0
   -1.4333    3.7159    0.0000 H   0  0  0  0  0  0  0  0  0  0  0  0
   -4.0624    5.0637    0.0000 C   0  0  1  0  0  0  0  0  0  0  0  0
   -3.3124    6.3627    0.0000 H   0  0  0  0  0  0  0  0  0  0  0  0
   -5.1619    6.0840    0.0000 C   0  0  0  0  0  0  0  0  0  0  0  0
   -3.9226    6.9289    0.0000 H   0  0  0  0  0  0  0  0  0  0  0  0
   -5.7099    7.4803    0.0000 H   0  0  0  0  0  0  0  0  0  0  0  0
   -6.6452    5.8604    0.0000 N   0  0  0  0  0  0  0  0  0  0  0  0
   -7.4902    7.0998    0.0000 H   0  0  0  0  0  0  0  0  0  0  0  0
   -7.3952    4.5614    0.0000 C   0  0  0  0  0  0  0  0  0  0  0  0
   -8.4948    5.5816    0.0000 H   0  0  0  0  0  0  0  0  0  0  0  0
   -8.6345    3.7164    0.0000 H   0  0  0  0  0  0  0  0  0  0  0  0
   -6.8472    3.1650    0.0000 C   0  0  0  0  0  0  0  0  0  0  0  0
   -8.3304    2.9415    0.0000 H   0  0  0  0  0  0  0  0  0  0  0  0
   -6.9593    1.6692    0.0000 H   0  0  0  0  0  0  0  0  0  0  0  0
   -5.4138    2.7229    0.0000 C   0  0  0  0  0  0  0  0  0  0  0  0
   -6.1638    1.4239    0.0000 H   0  0  0  0  0  0  0  0  0  0  0  0
   -4.3142    1.7027    0.0000 H   0  0  0  0  0  0  0  0  0  0  0  0
   -4.1745    3.5679    0.0000 N   0  0  0  0  0  0  0  0  0  0  0  0
   -1.6283    2.0979    0.0000 S   0  0  0  0  0  0  0  0  0  0  0  0
   -0.1511    1.8374    0.0000 O   0  0  0  0  0  0  0  0  0  0  0  0
   -0.0471    3.9824    0.0000 O   0  0  0  0  0  0  0  0  0  0  0  0
   -1.6283    0.5979    0.0000 C   0  0  0  0  0  0  0  0  0  0  0  0
   -0.3283   -0.1521    0.0000 C   0  0  0  0  0  0  0  0  0  0  0  0
   -0.3283   -1.6521    0.0000 C   0  0  0  0  0  0  0  0  0  0  0  0
   -1.6283   -2.4021    0.0000 C   0  0  0  0  0  0  0  0  0  0  0  0
   -1.6283   -3.9021    0.0000 H   0  0  0  0  0  0  0  0  0  0  0  0
   -2.9283   -1.6521    0.0000 C   0  0  0  0  0  0  0  0  0  0  0  0
   -4.2273   -2.4023    0.0000 H   0  0  0  0  0  0  0  0  0  0  0  0
   -2.9283   -0.1521    0.0000 C   0  0  0  0  0  0  0  0  0  0  0  0
   -4.2273    0.5981    0.0000 H   0  0  0  0  0  0  0  0  0  0  0  0
    0.9717   -2.4021    0.0000 C   0  0  0  0  0  0  0  0  0  0  0  0
    0.9717   -3.9021    0.0000 H   0  0  0  0  0  0  0  0  0  0  0  0
    2.2717   -1.6521    0.0000 N   0  0  0  0  0  0  0  0  0  0  0  0
    2.2717   -0.1521    0.0000 C   0  0  0  0  0  0  0  0  0  0  0  0
    0.9717    0.5979    0.0000 C   0  0  0  0  0  0  0  0  0  0  0  0
    0.9717    2.0979    0.0000 F   0  0  0  0  0  0  0  0  0  0  0  0
    3.5706    0.5981    0.0000 O   0  0  0  0  0  0  0  0  0  0  0  0
    4.8697   -0.1517    0.0000 H   0  0  0  0  0  0  0  0  0  0  0  0
  1  2  1  0  0  0  0 
  1  3  1  0  0  0  0 
  1  4  1  0  0  0  0 
  5  1  1  6  0  0  0 
  5  6  1  1  0  0  0 
  5  7  1  0  0  0  0 
  7  8  1  0  0  0  0 
  7  9  1  0  0  0  0 
  7 10  1  0  0  0  0 
 10 11  1  0  0  0  0 
 10 12  1  0  0  0  0 
 12 13  1  0  0  0  0 
 12 14  1  0  0  0  0 
 12 15  1  0  0  0  0 
 15 16  1  0  0  0  0 
 15 17  1  0  0  0  0 
 15 18  1  0  0  0  0 
 18 19  1  0  0  0  0 
 18 20  1  0  0  0  0 
 18 21  1  0  0  0  0 
  5 21  1  0  0  0  0 
 21 22  1  0  0  0  0 
 22 23  2  0  0  0  0 
 22 24  2  0  0  0  0 
 22 25  1  0  0  0  0 
 25 26  2  0  0  0  0 
 26 27  1  0  0  0  0 
 27 28  2  0  0  0  0 
 28 29  1  0  0  0  0 
 28 30  1  0  0  0  0 
 30 31  1  0  0  0  0 
 30 32  2  0  0  0  0 
 25 32  1  0  0  0  0 
 32 33  1  0  0  0  0 
 27 34  1  0  0  0  0 
 34 35  1  0  0  0  0 
 34 36  2  0  0  0  0 
 36 37  1  0  0  0  0 
 37 38  2  0  0  0  0 
 26 38  1  0  0  0  0 
 38 39  1  0  0  0  0 
 37 40  1  0  0  0  0 
 40 41  1  0  0  0  0 
M  END
> <Rank>
12

> <Priority_score>
0.3073681148612165

> <Reaction_type>
aromatic_hydroxylation_(para_to_carbon)

> <Parent_ID>
54

> <Parent_InChI>
InChI=1S/C15H18FN3O2S/c1-11-8-17-6-3-7-19(11)22(20,21)14-5-2-4-12-9-18-10-13(16)15(12)14/h2,4-5,9-11,17H,3,6-8H2,1H3

> <Parent_SMILES>
C[C@H]1CNCCCN1S(=O)(=O)c1cccc2cncc(F)c12

$$$$
Molecule 54_metabolite 14
  CDK     0516241031

 41 42  0  0  0  0  0  0  0  0999 V2000
   -5.3043    3.8777    0.0000 C   0  0  0  0  0  0  0  0  0  0  0  0
   -5.3043    5.3777    0.0000 H   0  0  0  0  0  0  0  0  0  0  0  0
   -5.8173    2.4682    0.0000 H   0  0  0  0  0  0  0  0  0  0  0  0
   -6.7815    4.1382    0.0000 H   0  0  0  0  0  0  0  0  0  0  0  0
   -4.0052    3.1277    0.0000 C   0  0  1  0  0  0  0  0  0  0  0  0
   -4.9694    1.9786    0.0000 H   0  0  0  0  0  0  0  0  0  0  0  0
   -3.0410    1.9786    0.0000 C   0  0  0  0  0  0  0  0  0  0  0  0
   -3.5541    0.5691    0.0000 H   0  0  0  0  0  0  0  0  0  0  0  0
   -1.5638    2.2391    0.0000 O   0  0  0  0  0  0  0  0  0  0  0  0
   -2.7062    3.8777    0.0000 N   0  0  0  0  0  0  0  0  0  0  0  0
   -2.7062    5.3777    0.0000 C   0  0  0  0  0  0  0  0  0  0  0  0
   -1.2290    5.1172    0.0000 H   0  0  0  0  0  0  0  0  0  0  0  0
   -2.1932    6.7872    0.0000 H   0  0  0  0  0  0  0  0  0  0  0  0
   -4.0052    6.1277    0.0000 C   0  0  0  0  0  0  0  0  0  0  0  0
   -5.4824    6.3882    0.0000 H   0  0  0  0  0  0  0  0  0  0  0  0
   -4.5183    4.7182    0.0000 H   0  0  0  0  0  0  0  0  0  0  0  0
   -4.0052    8.1077    0.0000 C   0  0  0  0  0  0  0  0  0  0  0  0
   -2.5280    7.8472    0.0000 H   0  0  0  0  0  0  0  0  0  0  0  0
   -3.4922    9.5172    0.0000 H   0  0  0  0  0  0  0  0  0  0  0  0
   -5.3043    8.8577    0.0000 N   0  0  0  0  0  0  0  0  0  0  0  0
   -5.3043   10.3577    0.0000 H   0  0  0  0  0  0  0  0  0  0  0  0
   -6.6033    8.1077    0.0000 H   0  0  0  0  0  0  0  0  0  0  0  0
   -0.9915    2.8877    0.0000 S   0  0  0  0  0  0  0  0  0  0  0  0
   -0.0273    1.7386    0.0000 O   0  0  0  0  0  0  0  0  0  0  0  0
   -2.2642    1.3709    0.0000 O   0  0  0  0  0  0  0  0  0  0  0  0
    0.3076    3.6377    0.0000 C   0  0  0  0  0  0  0  0  0  0  0  0
    1.6071    2.8869    0.0000 C   0  0  0  0  0  0  0  0  0  0  0  0
    2.9061    3.6369    0.0000 C   0  0  0  0  0  0  0  0  0  0  0  0
    2.9057    5.1377    0.0000 C   0  0  0  0  0  0  0  0  0  0  0  0
    4.2047    5.8877    0.0000 H   0  0  0  0  0  0  0  0  0  0  0  0
    1.6061    5.8885    0.0000 C   0  0  0  0  0  0  0  0  0  0  0  0
    1.6064    7.3885    0.0000 H   0  0  0  0  0  0  0  0  0  0  0  0
    0.3071    5.1385    0.0000 C   0  0  0  0  0  0  0  0  0  0  0  0
   -0.9921    5.8883    0.0000 H   0  0  0  0  0  0  0  0  0  0  0  0
    4.2057    2.8860    0.0000 C   0  0  0  0  0  0  0  0  0  0  0  0
    5.5047    3.6360    0.0000 H   0  0  0  0  0  0  0  0  0  0  0  0
    4.2061    1.3852    0.0000 N   0  0  0  0  0  0  0  0  0  0  0  0
    2.9071    0.6352    0.0000 C   0  0  0  0  0  0  0  0  0  0  0  0
    2.9069   -0.8648    0.0000 H   0  0  0  0  0  0  0  0  0  0  0  0
    1.6076    1.3860    0.0000 C   0  0  0  0  0  0  0  0  0  0  0  0
    0.3085    0.6360    0.0000 F   0  0  0  0  0  0  0  0  0  0  0  0
  1  2  1  0  0  0  0 
  1  3  1  0  0  0  0 
  1  4  1  0  0  0  0 
  1  5  1  0  0  0  0 
  5  6  1  1  0  0  0 
  5  7  1  6  0  0  0 
  7  8  1  0  0  0  0 
  7  9  2  0  0  0  0 
  5 10  1  0  0  0  0 
 10 11  1  0  0  0  0 
 11 12  1  0  0  0  0 
 11 13  1  0  0  0  0 
 11 14  1  0  0  0  0 
 14 15  1  0  0  0  0 
 14 16  1  0  0  0  0 
 14 17  1  0  0  0  0 
 17 18  1  0  0  0  0 
 17 19  1  0  0  0  0 
 17 20  1  0  0  0  0 
 20 21  1  0  0  0  0 
 20 22  1  0  0  0  0 
 10 23  1  0  0  0  0 
 23 24  2  0  0  0  0 
 23 25  2  0  0  0  0 
 23 26  1  0  0  0  0 
 26 27  2  0  0  0  0 
 27 28  1  0  0  0  0 
 28 29  2  0  0  0  0 
 29 30  1  0  0  0  0 
 29 31  1  0  0  0  0 
 31 32  1  0  0  0  0 
 31 33  2  0  0  0  0 
 26 33  1  0  0  0  0 
 33 34  1  0  0  0  0 
 28 35  1  0  0  0  0 
 35 36  1  0  0  0  0 
 35 37  2  0  0  0  0 
 37 38  1  0  0  0  0 
 38 39  1  0  0  0  0 
 38 40  2  0  0  0  0 
 27 40  1  0  0  0  0 
 40 41  1  0  0  0  0 
M  END
> <Rank>
14

> <Priority_score>
0.304

> <Reaction_type>
N-dealkylation

> <Parent_ID>
54

> <Parent_InChI>
InChI=1S/C15H18FN3O2S/c1-11-8-17-6-3-7-19(11)22(20,21)14-5-2-4-12-9-18-10-13(16)15(12)14/h2,4-5,9-11,17H,3,6-8H2,1H3

> <Parent_SMILES>
C[C@H]1CNCCCN1S(=O)(=O)c1cccc2cncc(F)c12

$$$$
Molecule 54_metabolite 15
  CDK     0516241031

 41 43  0  0  0  0  0  0  0  0999 V2000
   -2.6290    4.6216    0.0000 C   0  0  0  0  0  0  0  0  0  0  0  0
   -1.5294    5.6418    0.0000 H   0  0  0  0  0  0  0  0  0  0  0  0
   -3.3133    3.2868    0.0000 H   0  0  0  0  0  0  0  0  0  0  0  0
   -1.4333    3.7159    0.0000 H   0  0  0  0  0  0  0  0  0  0  0  0
   -4.0624    5.0637    0.0000 C   0  0  1  0  0  0  0  0  0  0  0  0
   -3.3124    6.3627    0.0000 H   0  0  0  0  0  0  0  0  0  0  0  0
   -5.1619    6.0840    0.0000 C   0  0  0  0  0  0  0  0  0  0  0  0
   -3.9226    6.9289    0.0000 H   0  0  0  0  0  0  0  0  0  0  0  0
   -6.6452    5.8604    0.0000 N   0  0  0  0  0  0  0  0  0  0  0  0
   -7.4902    7.0998    0.0000 H   0  0  0  0  0  0  0  0  0  0  0  0
   -7.3952    4.5614    0.0000 C   0  0  0  0  0  0  0  0  0  0  0  0
   -8.4948    5.5816    0.0000 H   0  0  0  0  0  0  0  0  0  0  0  0
   -8.6345    3.7164    0.0000 H   0  0  0  0  0  0  0  0  0  0  0  0
   -6.8472    3.1650    0.0000 C   0  0  0  0  0  0  0  0  0  0  0  0
   -8.3304    2.9415    0.0000 H   0  0  0  0  0  0  0  0  0  0  0  0
   -6.9593    1.6692    0.0000 H   0  0  0  0  0  0  0  0  0  0  0  0
   -5.4138    2.7229    0.0000 C   0  0  0  0  0  0  0  0  0  0  0  0
   -6.1638    1.4239    0.0000 H   0  0  0  0  0  0  0  0  0  0  0  0
   -4.3142    1.7027    0.0000 H   0  0  0  0  0  0  0  0  0  0  0  0
   -4.1745    3.5679    0.0000 N   0  0  0  0  0  0  0  0  0  0  0  0
   -1.6283    2.0979    0.0000 S   0  0  0  0  0  0  0  0  0  0  0  0
   -0.1511    1.8374    0.0000 O   0  0  0  0  0  0  0  0  0  0  0  0
   -0.0471    3.9824    0.0000 O   0  0  0  0  0  0  0  0  0  0  0  0
   -1.6283    0.5979    0.0000 C   0  0  0  0  0  0  0  0  0  0  0  0
   -0.3283   -0.1521    0.0000 C   0  0  0  0  0  0  0  0  0  0  0  0
   -0.3283   -1.6521    0.0000 C   0  0  0  0  0  0  0  0  0  0  0  0
   -1.6283   -2.4021    0.0000 C   0  0  0  0  0  0  0  0  0  0  0  0
   -1.6283   -3.9021    0.0000 H   0  0  0  0  0  0  0  0  0  0  0  0
   -2.9283   -1.6521    0.0000 C   0  0  0  0  0  0  0  0  0  0  0  0
   -4.2273   -2.4023    0.0000 H   0  0  0  0  0  0  0  0  0  0  0  0
   -2.9283   -0.1521    0.0000 C   0  0  0  0  0  0  0  0  0  0  0  0
   -4.2273    0.5981    0.0000 H   0  0  0  0  0  0  0  0  0  0  0  0
    0.9717   -2.4021    0.0000 C   0  0  0  0  0  0  0  0  0  0  0  0
    0.9717   -3.9021    0.0000 H   0  0  0  0  0  0  0  0  0  0  0  0
    2.2717   -1.6521    0.0000 N   0  0  0  0  0  0  0  0  0  0  0  0
    2.2717   -0.1521    0.0000 C   0  0  0  0  0  0  0  0  0  0  0  0
    3.5706    0.5981    0.0000 H   0  0  0  0  0  0  0  0  0  0  0  0
    0.9717    0.5979    0.0000 C   0  0  0  0  0  0  0  0  0  0  0  0
    0.9717    2.0979    0.0000 F   0  0  0  0  0  0  0  0  0  0  0  0
   -5.7099    7.4803    0.0000 O   0  0  0  0  0  0  0  0  0  0  0  0
   -4.7747    8.6530    0.0000 H   0  0  0  0  0  0  0  0  0  0  0  0
  1  2  1  0  0  0  0 
  1  3  1  0  0  0  0 
  1  4  1  0  0  0  0 
  5  1  1  6  0  0  0 
  5  6  1  1  0  0  0 
  5  7  1  0  0  0  0 
  7  8  1  0  0  0  0 
  7  9  1  0  0  0  0 
  9 10  1  0  0  0  0 
  9 11  1  0  0  0  0 
 11 12  1  0  0  0  0 
 11 13  1  0  0  0  0 
 11 14  1  0  0  0  0 
 14 15  1  0  0  0  0 
 14 16  1  0  0  0  0 
 14 17  1  0  0  0  0 
 17 18  1  0  0  0  0 
 17 19  1  0  0  0  0 
 17 20  1  0  0  0  0 
  5 20  1  0  0  0  0 
 20 21  1  0  0  0  0 
 21 22  2  0  0  0  0 
 21 23  2  0  0  0  0 
 21 24  1  0  0  0  0 
 24 25  2  0  0  0  0 
 25 26  1  0  0  0  0 
 26 27  2  0  0  0  0 
 27 28  1  0  0  0  0 
 27 29  1  0  0  0  0 
 29 30  1  0  0  0  0 
 29 31  2  0  0  0  0 
 24 31  1  0  0  0  0 
 31 32  1  0  0  0  0 
 26 33  1  0  0  0  0 
 33 34  1  0  0  0  0 
 33 35  2  0  0  0  0 
 35 36  1  0  0  0  0 
 36 37  1  0  0  0  0 
 36 38  2  0  0  0  0 
 25 38  1  0  0  0  0 
 38 39  1  0  0  0  0 
  7 40  1  0  0  0  0 
 40 41  1  0  0  0  0 
M  END
> <Rank>
14

> <Priority_score>
0.304

> <Reaction_type>
aliphatic_hydroxylation_(sec_carbon_next_to_SP2,in_a_ring)

> <Parent_ID>
54

> <Parent_InChI>
InChI=1S/C15H18FN3O2S/c1-11-8-17-6-3-7-19(11)22(20,21)14-5-2-4-12-9-18-10-13(16)15(12)14/h2,4-5,9-11,17H,3,6-8H2,1H3

> <Parent_SMILES>
C[C@H]1CNCCCN1S(=O)(=O)c1cccc2cncc(F)c12

$$$$
Molecule 54_metabolite 16
  CDK     0516241031

 41 43  0  0  0  0  0  0  0  0999 V2000
   -2.8690    4.2059    0.0000 C   0  0  0  0  0  0  0  0  0  0  0  0
   -1.7694    5.2261    0.0000 H   0  0  0  0  0  0  0  0  0  0  0  0
   -3.5533    2.8711    0.0000 H   0  0  0  0  0  0  0  0  0  0  0  0
   -1.6733    3.3002    0.0000 H   0  0  0  0  0  0  0  0  0  0  0  0
   -4.3024    4.6480    0.0000 C   0  0  1  0  0  0  0  0  0  0  0  0
   -5.4019    5.6683    0.0000 C   0  0  0  0  0  0  0  0  0  0  0  0
   -4.1626    6.5132    0.0000 H   0  0  0  0  0  0  0  0  0  0  0  0
   -5.9499    7.0646    0.0000 H   0  0  0  0  0  0  0  0  0  0  0  0
   -6.8852    5.4447    0.0000 N   0  0  0  0  0  0  0  0  0  0  0  0
   -7.7302    6.6841    0.0000 H   0  0  0  0  0  0  0  0  0  0  0  0
   -7.6352    4.1457    0.0000 C   0  0  0  0  0  0  0  0  0  0  0  0
   -8.7348    5.1659    0.0000 H   0  0  0  0  0  0  0  0  0  0  0  0
   -8.8745    3.3007    0.0000 H   0  0  0  0  0  0  0  0  0  0  0  0
   -7.0872    2.7494    0.0000 C   0  0  0  0  0  0  0  0  0  0  0  0
   -8.5704    2.5258    0.0000 H   0  0  0  0  0  0  0  0  0  0  0  0
   -7.1993    1.2535    0.0000 H   0  0  0  0  0  0  0  0  0  0  0  0
   -5.6538    2.3072    0.0000 C   0  0  0  0  0  0  0  0  0  0  0  0
   -6.4038    1.0082    0.0000 H   0  0  0  0  0  0  0  0  0  0  0  0
   -4.5542    1.2870    0.0000 H   0  0  0  0  0  0  0  0  0  0  0  0
   -4.4145    3.1522    0.0000 N   0  0  0  0  0  0  0  0  0  0  0  0
   -1.8683    1.6822    0.0000 S   0  0  0  0  0  0  0  0  0  0  0  0
   -0.3911    1.4217    0.0000 O   0  0  0  0  0  0  0  0  0  0  0  0
   -0.2871    3.5667    0.0000 O   0  0  0  0  0  0  0  0  0  0  0  0
   -1.8683    0.1822    0.0000 C   0  0  0  0  0  0  0  0  0  0  0  0
   -0.5683   -0.5678    0.0000 C   0  0  0  0  0  0  0  0  0  0  0  0
   -0.5683   -2.0678    0.0000 C   0  0  0  0  0  0  0  0  0  0  0  0
   -1.8683   -2.8178    0.0000 C   0  0  0  0  0  0  0  0  0  0  0  0
   -1.8683   -4.3178    0.0000 H   0  0  0  0  0  0  0  0  0  0  0  0
   -3.1683   -2.0678    0.0000 C   0  0  0  0  0  0  0  0  0  0  0  0
   -4.4673   -2.8180    0.0000 H   0  0  0  0  0  0  0  0  0  0  0  0
   -3.1683   -0.5678    0.0000 C   0  0  0  0  0  0  0  0  0  0  0  0
   -4.4673    0.1824    0.0000 H   0  0  0  0  0  0  0  0  0  0  0  0
    0.7317   -2.8178    0.0000 C   0  0  0  0  0  0  0  0  0  0  0  0
    0.7317   -4.3178    0.0000 H   0  0  0  0  0  0  0  0  0  0  0  0
    2.0317   -2.0678    0.0000 N   0  0  0  0  0  0  0  0  0  0  0  0
    2.0317   -0.5678    0.0000 C   0  0  0  0  0  0  0  0  0  0  0  0
    3.3306    0.1824    0.0000 H   0  0  0  0  0  0  0  0  0  0  0  0
    0.7317    0.1822    0.0000 C   0  0  0  0  0  0  0  0  0  0  0  0
    0.7317    1.6822    0.0000 F   0  0  0  0  0  0  0  0  0  0  0  0
   -3.3124    6.3627    0.0000 O   0  0  0  0  0  0  0  0  0  0  0  0
   -4.0624    7.6618    0.0000 H   0  0  0  0  0  0  0  0  0  0  0  0
  1  2  1  0  0  0  0 
  1  3  1  0  0  0  0 
  1  4  1  0  0  0  0 
  5  1  1  6  0  0  0 
  5  6  1  0  0  0  0 
  6  7  1  0  0  0  0 
  6  8  1  0  0  0  0 
  6  9  1  0  0  0  0 
  9 10  1  0  0  0  0 
  9 11  1  0  0  0  0 
 11 12  1  0  0  0  0 
 11 13  1  0  0  0  0 
 11 14  1  0  0  0  0 
 14 15  1  0  0  0  0 
 14 16  1  0  0  0  0 
 14 17  1  0  0  0  0 
 17 18  1  0  0  0  0 
 17 19  1  0  0  0  0 
 17 20  1  0  0  0  0 
  5 20  1  0  0  0  0 
 20 21  1  0  0  0  0 
 21 22  2  0  0  0  0 
 21 23  2  0  0  0  0 
 21 24  1  0  0  0  0 
 24 25  2  0  0  0  0 
 25 26  1  0  0  0  0 
 26 27  2  0  0  0  0 
 27 28  1  0  0  0  0 
 27 29  1  0  0  0  0 
 29 30  1  0  0  0  0 
 29 31  2  0  0  0  0 
 24 31  1  0  0  0  0 
 31 32  1  0  0  0  0 
 26 33  1  0  0  0  0 
 33 34  1  0  0  0  0 
 33 35  2  0  0  0  0 
 35 36  1  0  0  0  0 
 36 37  1  0  0  0  0 
 36 38  2  0  0  0  0 
 25 38  1  0  0  0  0 
 38 39  1  0  0  0  0 
  5 40  1  1  0  0  0 
 40 41  1  0  0  0  0 
M  END
> <Rank>
16

> <Priority_score>
0.232

> <Reaction_type>
aliphatic_hydroxylation_(tert_carbon_next_to_SP2)

> <Parent_ID>
54

> <Parent_InChI>
InChI=1S/C15H18FN3O2S/c1-11-8-17-6-3-7-19(11)22(20,21)14-5-2-4-12-9-18-10-13(16)15(12)14/h2,4-5,9-11,17H,3,6-8H2,1H3

> <Parent_SMILES>
C[C@H]1CNCCCN1S(=O)(=O)c1cccc2cncc(F)c12

$$$$
Molecule 54_metabolite 17
  CDK     0516241031

 61 64  0  0  0  0  0  0  0  0999 V2000
   -2.1364    5.0727    0.0000 C   0  0  0  0  0  0  0  0  0  0  0  0
   -1.8026    3.6103    0.0000 H   0  0  0  0  0  0  0  0  0  0  0  0
   -1.9499    6.5610    0.0000 H   0  0  0  0  0  0  0  0  0  0  0  0
   -0.6382    5.1474    0.0000 H   0  0  0  0  0  0  0  0  0  0  0  0
   -3.5697    5.5148    0.0000 C   0  0  1  0  0  0  0  0  0  0  0  0
   -2.8197    6.8138    0.0000 H   0  0  0  0  0  0  0  0  0  0  0  0
   -4.6693    6.5351    0.0000 C   0  0  0  0  0  0  0  0  0  0  0  0
   -3.4299    7.3800    0.0000 H   0  0  0  0  0  0  0  0  0  0  0  0
   -5.2173    7.9314    0.0000 H   0  0  0  0  0  0  0  0  0  0  0  0
   -6.1526    6.3115    0.0000 N   0  0  0  0  0  0  0  0  0  0  0  0
   -6.9975    7.5509    0.0000 H   0  0  0  0  0  0  0  0  0  0  0  0
   -6.9026    5.0125    0.0000 C   0  0  0  0  0  0  0  0  0  0  0  0
   -8.0021    6.0327    0.0000 H   0  0  0  0  0  0  0  0  0  0  0  0
   -8.1419    4.1675    0.0000 H   0  0  0  0  0  0  0  0  0  0  0  0
   -6.3545    3.6161    0.0000 C   0  0  0  0  0  0  0  0  0  0  0  0
   -7.8378    3.3926    0.0000 H   0  0  0  0  0  0  0  0  0  0  0  0
   -6.4666    2.1203    0.0000 H   0  0  0  0  0  0  0  0  0  0  0  0
   -4.9212    3.1740    0.0000 C   0  0  0  0  0  0  0  0  0  0  0  0
   -5.6712    1.8750    0.0000 H   0  0  0  0  0  0  0  0  0  0  0  0
   -3.8216    2.1538    0.0000 H   0  0  0  0  0  0  0  0  0  0  0  0
   -3.6818    4.0190    0.0000 N   0  0  0  0  0  0  0  0  0  0  0  0
   -1.1357    2.5490    0.0000 S   0  0  0  0  0  0  0  0  0  0  0  0
    0.3415    2.2885    0.0000 O   0  0  0  0  0  0  0  0  0  0  0  0
   -0.6227    3.9585    0.0000 O   0  0  0  0  0  0  0  0  0  0  0  0
   -1.1357    1.0490    0.0000 C   0  0  0  0  0  0  0  0  0  0  0  0
    0.1643    0.2990    0.0000 C   0  0  0  0  0  0  0  0  0  0  0  0
    0.1643   -1.2010    0.0000 C   0  0  0  0  0  0  0  0  0  0  0  0
   -1.1357   -1.9510    0.0000 C   0  0  0  0  0  0  0  0  0  0  0  0
   -1.1357   -3.4510    0.0000 H   0  0  0  0  0  0  0  0  0  0  0  0
   -2.4357   -1.2010    0.0000 C   0  0  0  0  0  0  0  0  0  0  0  0
   -3.7346   -1.9512    0.0000 H   0  0  0  0  0  0  0  0  0  0  0  0
   -2.4357    0.2990    0.0000 C   0  0  0  0  0  0  0  0  0  0  0  0
   -3.7346    1.0492    0.0000 H   0  0  0  0  0  0  0  0  0  0  0  0
    1.4643   -1.9510    0.0000 C   0  0  0  0  0  0  0  0  0  0  0  0
    1.4643   -3.4510    0.0000 H   0  0  0  0  0  0  0  0  0  0  0  0
    2.7643   -1.2010    0.0000 N   0  0  0  0  0  0  0  0  0  0  0  0
    2.7643    0.2990    0.0000 C   0  0  0  0  0  0  0  0  0  0  0  0
    4.0632    1.0492    0.0000 H   0  0  0  0  0  0  0  0  0  0  0  0
    1.4643    1.0490    0.0000 C   0  0  0  0  0  0  0  0  0  0  0  0
    1.4643    2.5490    0.0000 F   0  0  0  0  0  0  0  0  0  0  0  0
    4.0632   -1.9512    0.0000 C   0  0  0  0  0  0  0  0  0  0  0  0
    3.0990   -3.1002    0.0000 H   0  0  0  0  0  0  0  0  0  0  0  0
    5.0275   -3.1002    0.0000 C   0  0  0  0  0  0  0  0  0  0  0  0
    3.7285   -3.8504    0.0000 H   0  0  0  0  0  0  0  0  0  0  0  0
    6.5054   -2.8391    0.0000 C   0  0  0  0  0  0  0  0  0  0  0  0
    6.5056   -4.3391    0.0000 H   0  0  0  0  0  0  0  0  0  0  0  0
    7.0191   -1.4289    0.0000 C   0  0  0  0  0  0  0  0  0  0  0  0
    8.3180   -2.1791    0.0000 H   0  0  0  0  0  0  0  0  0  0  0  0
    6.0548   -0.2799    0.0000 C   0  0  0  0  0  0  0  0  0  0  0  0
    7.3538    0.4703    0.0000 H   0  0  0  0  0  0  0  0  0  0  0  0
    5.3771    1.5805    0.0000 C   0  0  0  0  0  0  0  0  0  0  0  0
    3.8999    1.8406    0.0000 O   0  0  0  0  0  0  0  0  0  0  0  0
    6.3410    2.7299    0.0000 O   0  0  0  0  0  0  0  0  0  0  0  0
    7.8183    2.4698    0.0000 H   0  0  0  0  0  0  0  0  0  0  0  0
    4.5769   -0.5410    0.0000 O   0  0  0  0  0  0  0  0  0  0  0  0
    7.9833   -0.2799    0.0000 O   0  0  0  0  0  0  0  0  0  0  0  0
    9.4605   -0.5404    0.0000 H   0  0  0  0  0  0  0  0  0  0  0  0
    7.9826   -3.0996    0.0000 O   0  0  0  0  0  0  0  0  0  0  0  0
    8.4955   -4.5092    0.0000 H   0  0  0  0  0  0  0  0  0  0  0  0
    5.5409   -4.5096    0.0000 O   0  0  0  0  0  0  0  0  0  0  0  0
    4.5770   -5.6590    0.0000 H   0  0  0  0  0  0  0  0  0  0  0  0
  1  2  1  0  0  0  0 
  1  3  1  0  0  0  0 
  1  4  1  0  0  0  0 
  5  1  1  6  0  0  0 
  5  6  1  1  0  0  0 
  5  7  1  0  0  0  0 
  7  8  1  0  0  0  0 
  7  9  1  0  0  0  0 
  7 10  1  0  0  0  0 
 10 11  1  0  0  0  0 
 10 12  1  0  0  0  0 
 12 13  1  0  0  0  0 
 12 14  1  0  0  0  0 
 12 15  1  0  0  0  0 
 15 16  1  0  0  0  0 
 15 17  1  0  0  0  0 
 15 18  1  0  0  0  0 
 18 19  1  0  0  0  0 
 18 20  1  0  0  0  0 
 18 21  1  0  0  0  0 
  5 21  1  0  0  0  0 
 21 22  1  0  0  0  0 
 22 23  2  0  0  0  0 
 22 24  2  0  0  0  0 
 22 25  1  0  0  0  0 
 25 26  2  0  0  0  0 
 26 27  1  0  0  0  0 
 27 28  2  0  0  0  0 
 28 29  1  0  0  0  0 
 28 30  1  0  0  0  0 
 30 31  1  0  0  0  0 
 30 32  2  0  0  0  0 
 25 32  1  0  0  0  0 
 32 33  1  0  0  0  0 
 27 34  1  0  0  0  0 
 34 35  1  0  0  0  0 
 34 36  2  0  0  0  0 
 36 37  1  0  0  0  0 
 37 38  1  0  0  0  0 
 37 39  2  0  0  0  0 
 26 39  1  0  0  0  0 
 39 40  1  0  0  0  0 
 36 41  1  0  0  0  0 
 41 42  1  0  0  0  0 
 41 43  1  0  0  0  0 
 43 44  1  0  0  0  0 
 43 45  1  0  0  0  0 
 45 46  1  0  0  0  0 
 45 47  1  0  0  0  0 
 47 48  1  0  0  0  0 
 47 49  1  0  0  0  0 
 49 50  1  0  0  0  0 
 49 51  1  0  0  0  0 
 51 52  2  0  0  0  0 
 51 53  1  0  0  0  0 
 53 54  1  0  0  0  0 
 49 55  1  0  0  0  0 
 41 55  1  0  0  0  0 
 47 56  1  0  0  0  0 
 56 57  1  0  0  0  0 
 45 58  1  0  0  0  0 
 58 59  1  0  0  0  0 
 43 60  1  0  0  0  0 
 60 61  1  0  0  0  0 
M  CHG  1  36   1
M  END
> <Rank>
17

> <Priority_score>
0.228

> <Reaction_type>
N-glucuronidation_(aromatic_=n-)

> <Parent_ID>
54

> <Parent_InChI>
InChI=1S/C15H18FN3O2S/c1-11-8-17-6-3-7-19(11)22(20,21)14-5-2-4-12-9-18-10-13(16)15(12)14/h2,4-5,9-11,17H,3,6-8H2,1H3

> <Parent_SMILES>
C[C@H]1CNCCCN1S(=O)(=O)c1cccc2cncc(F)c12

$$$$
Molecule 54_metabolite 18
  CDK     0516241031

 41 43  0  0  0  0  0  0  0  0999 V2000
    1.2976    6.0008    0.0000 C   0  0  0  0  0  0  0  0  0  0  0  0
    1.2978    7.5008    0.0000 H   0  0  0  0  0  0  0  0  0  0  0  0
   -0.0014    5.2508    0.0000 C   0  0  0  0  0  0  0  0  0  0  0  0
   -1.3006    6.0006    0.0000 H   0  0  0  0  0  0  0  0  0  0  0  0
   -0.0010    3.7500    0.0000 C   0  0  0  0  0  0  0  0  0  0  0  0
    1.2986    2.9992    0.0000 C   0  0  0  0  0  0  0  0  0  0  0  0
    2.5976    3.7492    0.0000 C   0  0  0  0  0  0  0  0  0  0  0  0
    2.5971    5.2500    0.0000 C   0  0  0  0  0  0  0  0  0  0  0  0
    3.8962    6.0000    0.0000 H   0  0  0  0  0  0  0  0  0  0  0  0
    3.8971    2.9983    0.0000 C   0  0  0  0  0  0  0  0  0  0  0  0
    5.1962    3.7483    0.0000 H   0  0  0  0  0  0  0  0  0  0  0  0
    3.8976    1.4975    0.0000 N   0  0  0  0  0  0  0  0  0  0  0  0
    2.5986    0.7475    0.0000 C   0  0  0  0  0  0  0  0  0  0  0  0
    2.5983   -0.7525    0.0000 H   0  0  0  0  0  0  0  0  0  0  0  0
    1.2990    1.4983    0.0000 C   0  0  0  0  0  0  0  0  0  0  0  0
   -0.0000    0.7483    0.0000 F   0  0  0  0  0  0  0  0  0  0  0  0
   -1.7157    2.7600    0.0000 S   0  0  0  0  0  0  0  0  0  0  0  0
   -0.7515    1.6109    0.0000 O   0  0  0  0  0  0  0  0  0  0  0  0
   -2.6799    1.6109    0.0000 O   0  0  0  0  0  0  0  0  0  0  0  0
   -4.2618    4.2300    0.0000 N   0  0  0  0  0  0  0  0  0  0  0  0
   -4.1497    5.7258    0.0000 C   0  0  0  0  0  0  0  0  0  0  0  0
   -2.7164    5.2837    0.0000 H   0  0  0  0  0  0  0  0  0  0  0  0
   -3.3997    7.0248    0.0000 H   0  0  0  0  0  0  0  0  0  0  0  0
   -5.2493    6.7461    0.0000 C   0  0  0  0  0  0  0  0  0  0  0  0
   -4.0099    7.5910    0.0000 H   0  0  0  0  0  0  0  0  0  0  0  0
   -5.7973    8.1424    0.0000 H   0  0  0  0  0  0  0  0  0  0  0  0
   -6.7325    6.5225    0.0000 C   0  0  0  0  0  0  0  0  0  0  0  0
   -6.6204    8.0183    0.0000 H   0  0  0  0  0  0  0  0  0  0  0  0
   -8.1659    6.9646    0.0000 H   0  0  0  0  0  0  0  0  0  0  0  0
   -7.4825    5.2235    0.0000 N   0  0  0  0  0  0  0  0  0  0  0  0
   -8.9783    5.3356    0.0000 H   0  0  0  0  0  0  0  0  0  0  0  0
   -6.9345    3.8272    0.0000 C   0  0  0  0  0  0  0  0  0  0  0  0
   -8.4178    3.6036    0.0000 H   0  0  0  0  0  0  0  0  0  0  0  0
   -7.0466    2.3313    0.0000 H   0  0  0  0  0  0  0  0  0  0  0  0
   -5.5012    3.3850    0.0000 C   0  0  2  0  0  0  0  0  0  0  0  0
   -6.2512    2.0860    0.0000 H   0  0  0  0  0  0  0  0  0  0  0  0
   -4.8168    2.0502    0.0000 C   0  0  0  0  0  0  0  0  0  0  0  0
   -3.7173    1.0300    0.0000 H   0  0  0  0  0  0  0  0  0  0  0  0
   -3.6212    2.9559    0.0000 H   0  0  0  0  0  0  0  0  0  0  0  0
   -5.6307    0.7902    0.0000 O   0  0  0  0  0  0  0  0  0  0  0  0
   -7.1288    0.8649    0.0000 H   0  0  0  0  0  0  0  0  0  0  0  0
  1  2  1  0  0  0  0 
  1  3  2  0  0  0  0 
  3  4  1  0  0  0  0 
  3  5  1  0  0  0  0 
  5  6  2  0  0  0  0 
  6  7  1  0  0  0  0 
  7  8  2  0  0  0  0 
  1  8  1  0  0  0  0 
  8  9  1  0  0  0  0 
  7 10  1  0  0  0  0 
 10 11  1  0  0  0  0 
 10 12  2  0  0  0  0 
 12 13  1  0  0  0  0 
 13 14  1  0  0  0  0 
 13 15  2  0  0  0  0 
  6 15  1  0  0  0  0 
 15 16  1  0  0  0  0 
  5 17  1  0  0  0  0 
 17 18  2  0  0  0  0 
 17 19  2  0  0  0  0 
 17 20  1  0  0  0  0 
 20 21  1  0  0  0  0 
 21 22  1  0  0  0  0 
 21 23  1  0  0  0  0 
 21 24  1  0  0  0  0 
 24 25  1  0  0  0  0 
 24 26  1  0  0  0  0 
 24 27  1  0  0  0  0 
 27 28  1  0  0  0  0 
 27 29  1  0  0  0  0 
 27 30  1  0  0  0  0 
 30 31  1  0  0  0  0 
 30 32  1  0  0  0  0 
 32 33  1  0  0  0  0 
 32 34  1  0  0  0  0 
 32 35  1  0  0  0  0 
 20 35  1  0  0  0  0 
 35 36  1  6  0  0  0 
 35 37  1  1  0  0  0 
 37 38  1  0  0  0  0 
 37 39  1  0  0  0  0 
 37 40  1  0  0  0  0 
 40 41  1  0  0  0  0 
M  END
> <Rank>
18

> <Priority_score>
0.216

> <Reaction_type>
aliphatic hydroxylation

> <Parent_ID>
54

> <Parent_InChI>
InChI=1S/C15H18FN3O2S/c1-11-8-17-6-3-7-19(11)22(20,21)14-5-2-4-12-9-18-10-13(16)15(12)14/h2,4-5,9-11,17H,3,6-8H2,1H3

> <Parent_SMILES>
C[C@H]1CNCCCN1S(=O)(=O)c1cccc2cncc(F)c12

$$$$
Molecule 54_metabolite 19
  CDK     0516241031

 41 43  0  0  0  0  0  0  0  0999 V2000
   -2.6290    4.6216    0.0000 C   0  0  0  0  0  0  0  0  0  0  0  0
   -1.5294    5.6418    0.0000 H   0  0  0  0  0  0  0  0  0  0  0  0
   -3.3133    3.2868    0.0000 H   0  0  0  0  0  0  0  0  0  0  0  0
   -1.4333    3.7159    0.0000 H   0  0  0  0  0  0  0  0  0  0  0  0
   -4.0624    5.0637    0.0000 C   0  0  1  0  0  0  0  0  0  0  0  0
   -3.3124    6.3627    0.0000 H   0  0  0  0  0  0  0  0  0  0  0  0
   -5.1619    6.0840    0.0000 C   0  0  0  0  0  0  0  0  0  0  0  0
   -3.9226    6.9289    0.0000 H   0  0  0  0  0  0  0  0  0  0  0  0
   -5.7099    7.4803    0.0000 H   0  0  0  0  0  0  0  0  0  0  0  0
   -6.6452    5.8604    0.0000 N   0  0  0  0  0  0  0  0  0  0  0  0
   -7.4902    7.0998    0.0000 H   0  0  0  0  0  0  0  0  0  0  0  0
   -7.3952    4.5614    0.0000 C   0  0  0  0  0  0  0  0  0  0  0  0
   -8.4948    5.5816    0.0000 H   0  0  0  0  0  0  0  0  0  0  0  0
   -8.6345    3.7164    0.0000 H   0  0  0  0  0  0  0  0  0  0  0  0
   -6.8472    3.1650    0.0000 C   0  0  0  0  0  0  0  0  0  0  0  0
   -8.3304    2.9415    0.0000 H   0  0  0  0  0  0  0  0  0  0  0  0
   -6.9593    1.6692    0.0000 H   0  0  0  0  0  0  0  0  0  0  0  0
   -5.4138    2.7229    0.0000 C   0  0  0  0  0  0  0  0  0  0  0  0
   -6.1638    1.4239    0.0000 H   0  0  0  0  0  0  0  0  0  0  0  0
   -4.3142    1.7027    0.0000 H   0  0  0  0  0  0  0  0  0  0  0  0
   -4.1745    3.5679    0.0000 N   0  0  0  0  0  0  0  0  0  0  0  0
   -1.6283    2.0979    0.0000 S   0  0  0  0  0  0  0  0  0  0  0  0
   -0.1511    1.8374    0.0000 O   0  0  0  0  0  0  0  0  0  0  0  0
   -0.0471    3.9824    0.0000 O   0  0  0  0  0  0  0  0  0  0  0  0
   -1.6283    0.5979    0.0000 C   0  0  0  0  0  0  0  0  0  0  0  0
   -0.3283   -0.1521    0.0000 C   0  0  0  0  0  0  0  0  0  0  0  0
   -0.3283   -1.6521    0.0000 C   0  0  0  0  0  0  0  0  0  0  0  0
   -1.6283   -2.4021    0.0000 C   0  0  0  0  0  0  0  0  0  0  0  0
   -1.6283   -3.9021    0.0000 H   0  0  0  0  0  0  0  0  0  0  0  0
   -2.9283   -1.6521    0.0000 C   0  0  0  0  0  0  0  0  0  0  0  0
   -4.2273   -2.4023    0.0000 H   0  0  0  0  0  0  0  0  0  0  0  0
   -2.9283   -0.1521    0.0000 C   0  0  0  0  0  0  0  0  0  0  0  0
   -4.2273    0.5981    0.0000 H   0  0  0  0  0  0  0  0  0  0  0  0
    0.9717   -2.4021    0.0000 C   0  0  0  0  0  0  0  0  0  0  0  0
    2.2717   -1.6521    0.0000 N   0  0  0  0  0  0  0  0  0  0  0  0
    2.2717   -0.1521    0.0000 C   0  0  0  0  0  0  0  0  0  0  0  0
    3.5706    0.5981    0.0000 H   0  0  0  0  0  0  0  0  0  0  0  0
    0.9717    0.5979    0.0000 C   0  0  0  0  0  0  0  0  0  0  0  0
    0.9717    2.0979    0.0000 F   0  0  0  0  0  0  0  0  0  0  0  0
    0.9717   -3.9021    0.0000 O   0  0  0  0  0  0  0  0  0  0  0  0
    2.2707   -4.6521    0.0000 H   0  0  0  0  0  0  0  0  0  0  0  0
  1  2  1  0  0  0  0 
  1  3  1  0  0  0  0 
  1  4  1  0  0  0  0 
  5  1  1  6  0  0  0 
  5  6  1  1  0  0  0 
  5  7  1  0  0  0  0 
  7  8  1  0  0  0  0 
  7  9  1  0  0  0  0 
  7 10  1  0  0  0  0 
 10 11  1  0  0  0  0 
 10 12  1  0  0  0  0 
 12 13  1  0  0  0  0 
 12 14  1  0  0  0  0 
 12 15  1  0  0  0  0 
 15 16  1  0  0  0  0 
 15 17  1  0  0  0  0 
 15 18  1  0  0  0  0 
 18 19  1  0  0  0  0 
 18 20  1  0  0  0  0 
 18 21  1  0  0  0  0 
  5 21  1  0  0  0  0 
 21 22  1  0  0  0  0 
 22 23  2  0  0  0  0 
 22 24  2  0  0  0  0 
 22 25  1  0  0  0  0 
 25 26  2  0  0  0  0 
 26 27  1  0  0  0  0 
 27 28  2  0  0  0  0 
 28 29  1  0  0  0  0 
 28 30  1  0  0  0  0 
 30 31  1  0  0  0  0 
 30 32  2  0  0  0  0 
 25 32  1  0  0  0  0 
 32 33  1  0  0  0  0 
 27 34  1  0  0  0  0 
 34 35  2  0  0  0  0 
 35 36  1  0  0  0  0 
 36 37  1  0  0  0  0 
 36 38  2  0  0  0  0 
 26 38  1  0  0  0  0 
 38 39  1  0  0  0  0 
 34 40  1  0  0  0  0 
 40 41  1  0  0  0  0 
M  END
> <Rank>
19

> <Priority_score>
0.164

> <Reaction_type>
aromatic hydroxylation

> <Parent_ID>
54

> <Parent_InChI>
InChI=1S/C15H18FN3O2S/c1-11-8-17-6-3-7-19(11)22(20,21)14-5-2-4-12-9-18-10-13(16)15(12)14/h2,4-5,9-11,17H,3,6-8H2,1H3

> <Parent_SMILES>
C[C@H]1CNCCCN1S(=O)(=O)c1cccc2cncc(F)c12

$$$$
Molecule 54_metabolite 20
  CDK     0516241031

 41 43  0  0  0  0  0  0  0  0999 V2000
   -2.6290    4.6216    0.0000 C   0  0  0  0  0  0  0  0  0  0  0  0
   -1.5294    5.6418    0.0000 H   0  0  0  0  0  0  0  0  0  0  0  0
   -3.3133    3.2868    0.0000 H   0  0  0  0  0  0  0  0  0  0  0  0
   -1.4333    3.7159    0.0000 H   0  0  0  0  0  0  0  0  0  0  0  0
   -4.0624    5.0637    0.0000 C   0  0  1  0  0  0  0  0  0  0  0  0
   -3.3124    6.3627    0.0000 H   0  0  0  0  0  0  0  0  0  0  0  0
   -5.1619    6.0840    0.0000 C   0  0  0  0  0  0  0  0  0  0  0  0
   -3.9226    6.9289    0.0000 H   0  0  0  0  0  0  0  0  0  0  0  0
   -5.7099    7.4803    0.0000 H   0  0  0  0  0  0  0  0  0  0  0  0
   -6.6452    5.8604    0.0000 N   0  0  0  0  0  0  0  0  0  0  0  0
   -7.4902    7.0998    0.0000 H   0  0  0  0  0  0  0  0  0  0  0  0
   -7.3952    4.5614    0.0000 C   0  0  0  0  0  0  0  0  0  0  0  0
   -8.4948    5.5816    0.0000 H   0  0  0  0  0  0  0  0  0  0  0  0
   -8.6345    3.7164    0.0000 H   0  0  0  0  0  0  0  0  0  0  0  0
   -6.8472    3.1650    0.0000 C   0  0  0  0  0  0  0  0  0  0  0  0
   -8.3304    2.9415    0.0000 H   0  0  0  0  0  0  0  0  0  0  0  0
   -6.9593    1.6692    0.0000 H   0  0  0  0  0  0  0  0  0  0  0  0
   -5.4138    2.7229    0.0000 C   0  0  0  0  0  0  0  0  0  0  0  0
   -6.1638    1.4239    0.0000 H   0  0  0  0  0  0  0  0  0  0  0  0
   -4.3142    1.7027    0.0000 H   0  0  0  0  0  0  0  0  0  0  0  0
   -4.1745    3.5679    0.0000 N   0  0  0  0  0  0  0  0  0  0  0  0
   -1.6283    2.0979    0.0000 S   0  0  0  0  0  0  0  0  0  0  0  0
   -0.1511    1.8374    0.0000 O   0  0  0  0  0  0  0  0  0  0  0  0
    0.2561    3.6792    0.0000 O   0  0  0  0  0  0  0  0  0  0  0  0
   -1.6283    0.5979    0.0000 C   0  0  0  0  0  0  0  0  0  0  0  0
   -0.3283   -0.1521    0.0000 C   0  0  0  0  0  0  0  0  0  0  0  0
   -0.3283   -1.6521    0.0000 C   0  0  0  0  0  0  0  0  0  0  0  0
   -1.6283   -2.4021    0.0000 C   0  0  0  0  0  0  0  0  0  0  0  0
   -1.6283   -3.9021    0.0000 H   0  0  0  0  0  0  0  0  0  0  0  0
   -2.9283   -1.6521    0.0000 C   0  0  0  0  0  0  0  0  0  0  0  0
   -4.2273   -2.4023    0.0000 H   0  0  0  0  0  0  0  0  0  0  0  0
   -2.9283   -0.1521    0.0000 C   0  0  0  0  0  0  0  0  0  0  0  0
   -4.2273    0.5981    0.0000 O   0  0  0  0  0  0  0  0  0  0  0  0
   -5.5264   -0.1517    0.0000 H   0  0  0  0  0  0  0  0  0  0  0  0
    0.9717   -2.4021    0.0000 C   0  0  0  0  0  0  0  0  0  0  0  0
    0.9717   -3.9021    0.0000 H   0  0  0  0  0  0  0  0  0  0  0  0
    2.2717   -1.6521    0.0000 N   0  0  0  0  0  0  0  0  0  0  0  0
    2.2717   -0.1521    0.0000 C   0  0  0  0  0  0  0  0  0  0  0  0
    3.5706    0.5981    0.0000 H   0  0  0  0  0  0  0  0  0  0  0  0
    0.9717    0.5979    0.0000 C   0  0  0  0  0  0  0  0  0  0  0  0
    0.9717    2.0979    0.0000 F   0  0  0  0  0  0  0  0  0  0  0  0
  1  2  1  0  0  0  0 
  1  3  1  0  0  0  0 
  1  4  1  0  0  0  0 
  5  1  1  6  0  0  0 
  5  6  1  1  0  0  0 
  5  7  1  0  0  0  0 
  7  8  1  0  0  0  0 
  7  9  1  0  0  0  0 
  7 10  1  0  0  0  0 
 10 11  1  0  0  0  0 
 10 12  1  0  0  0  0 
 12 13  1  0  0  0  0 
 12 14  1  0  0  0  0 
 12 15  1  0  0  0  0 
 15 16  1  0  0  0  0 
 15 17  1  0  0  0  0 
 15 18  1  0  0  0  0 
 18 19  1  0  0  0  0 
 18 20  1  0  0  0  0 
 18 21  1  0  0  0  0 
  5 21  1  0  0  0  0 
 21 22  1  0  0  0  0 
 22 23  2  0  0  0  0 
 22 24  2  0  0  0  0 
 22 25  1  0  0  0  0 
 25 26  2  0  0  0  0 
 26 27  1  0  0  0  0 
 27 28  2  0  0  0  0 
 28 29  1  0  0  0  0 
 28 30  1  0  0  0  0 
 30 31  1  0  0  0  0 
 30 32  2  0  0  0  0 
 25 32  1  0  0  0  0 
 32 33  1  0  0  0  0 
 33 34  1  0  0  0  0 
 27 35  1  0  0  0  0 
 35 36  1  0  0  0  0 
 35 37  2  0  0  0  0 
 37 38  1  0  0  0  0 
 38 39  1  0  0  0  0 
 38 40  2  0  0  0  0 
 26 40  1  0  0  0  0 
 40 41  1  0  0  0  0 
M  END
> <Rank>
19

> <Priority_score>
0.164

> <Reaction_type>
aromatic_hydroxylation_(para_to_carbon)

> <Parent_ID>
54

> <Parent_InChI>
InChI=1S/C15H18FN3O2S/c1-11-8-17-6-3-7-19(11)22(20,21)14-5-2-4-12-9-18-10-13(16)15(12)14/h2,4-5,9-11,17H,3,6-8H2,1H3

> <Parent_SMILES>
C[C@H]1CNCCCN1S(=O)(=O)c1cccc2cncc(F)c12

$$$$
Molecule 54_metabolite 21
  CDK     0516241031

 41 42  0  0  0  0  0  0  0  0999 V2000
   -6.9118   12.7200    0.0000 C   0  0  0  0  0  0  0  0  0  0  0  0
   -5.6128   13.4700    0.0000 H   0  0  0  0  0  0  0  0  0  0  0  0
   -8.3891   12.4595    0.0000 H   0  0  0  0  0  0  0  0  0  0  0  0
   -7.4249   14.1295    0.0000 H   0  0  0  0  0  0  0  0  0  0  0  0
   -6.9118   11.2200    0.0000 C   0  0  0  0  0  0  0  0  0  0  0  0
   -8.2109   10.4700    0.0000 O   0  0  0  0  0  0  0  0  0  0  0  0
   -5.6128   10.4700    0.0000 C   0  0  0  0  0  0  0  0  0  0  0  0
   -4.1356   10.2095    0.0000 H   0  0  0  0  0  0  0  0  0  0  0  0
   -5.0998   11.8795    0.0000 H   0  0  0  0  0  0  0  0  0  0  0  0
   -5.6128    8.9700    0.0000 N   0  0  0  0  0  0  0  0  0  0  0  0
   -6.9118    8.2200    0.0000 H   0  0  0  0  0  0  0  0  0  0  0  0
   -3.8981    7.9800    0.0000 C   0  0  0  0  0  0  0  0  0  0  0  0
   -2.4209    7.7195    0.0000 H   0  0  0  0  0  0  0  0  0  0  0  0
   -3.3850    9.3895    0.0000 H   0  0  0  0  0  0  0  0  0  0  0  0
   -3.8981    6.4800    0.0000 C   0  0  0  0  0  0  0  0  0  0  0  0
   -5.3753    6.7405    0.0000 H   0  0  0  0  0  0  0  0  0  0  0  0
   -4.4111    5.0705    0.0000 H   0  0  0  0  0  0  0  0  0  0  0  0
   -2.1833    5.4900    0.0000 C   0  0  0  0  0  0  0  0  0  0  0  0
   -0.7061    5.2295    0.0000 H   0  0  0  0  0  0  0  0  0  0  0  0
   -1.6703    6.8995    0.0000 H   0  0  0  0  0  0  0  0  0  0  0  0
   -2.1833    3.5100    0.0000 N   0  0  0  0  0  0  0  0  0  0  0  0
   -3.4824    2.7600    0.0000 H   0  0  0  0  0  0  0  0  0  0  0  0
   -0.8843    2.7600    0.0000 S   0  0  0  0  0  0  0  0  0  0  0  0
    0.5929    2.4995    0.0000 O   0  0  0  0  0  0  0  0  0  0  0  0
   -0.3713    4.1695    0.0000 O   0  0  0  0  0  0  0  0  0  0  0  0
   -0.8843    1.2600    0.0000 C   0  0  0  0  0  0  0  0  0  0  0  0
    0.4157    0.5100    0.0000 C   0  0  0  0  0  0  0  0  0  0  0  0
    0.4157   -0.9900    0.0000 C   0  0  0  0  0  0  0  0  0  0  0  0
   -0.8843   -1.7400    0.0000 C   0  0  0  0  0  0  0  0  0  0  0  0
   -0.8843   -3.2400    0.0000 H   0  0  0  0  0  0  0  0  0  0  0  0
   -2.1843   -0.9900    0.0000 C   0  0  0  0  0  0  0  0  0  0  0  0
   -3.4832   -1.7402    0.0000 H   0  0  0  0  0  0  0  0  0  0  0  0
   -2.1843    0.5100    0.0000 C   0  0  0  0  0  0  0  0  0  0  0  0
   -3.4832    1.2602    0.0000 H   0  0  0  0  0  0  0  0  0  0  0  0
    1.7157   -1.7400    0.0000 C   0  0  0  0  0  0  0  0  0  0  0  0
    1.7157   -3.2400    0.0000 H   0  0  0  0  0  0  0  0  0  0  0  0
    3.0157   -0.9900    0.0000 N   0  0  0  0  0  0  0  0  0  0  0  0
    3.0157    0.5100    0.0000 C   0  0  0  0  0  0  0  0  0  0  0  0
    4.3146    1.2602    0.0000 H   0  0  0  0  0  0  0  0  0  0  0  0
    1.7157    1.2600    0.0000 C   0  0  0  0  0  0  0  0  0  0  0  0
    1.7157    2.7600    0.0000 F   0  0  0  0  0  0  0  0  0  0  0  0
  1  2  1  0  0  0  0 
  1  3  1  0  0  0  0 
  1  4  1  0  0  0  0 
  1  5  1  0  0  0  0 
  5  6  2  0  0  0  0 
  5  7  1  0  0  0  0 
  7  8  1  0  0  0  0 
  7  9  1  0  0  0  0 
  7 10  1  0  0  0  0 
 10 11  1  0  0  0  0 
 10 12  1  0  0  0  0 
 12 13  1  0  0  0  0 
 12 14  1  0  0  0  0 
 12 15  1  0  0  0  0 
 15 16  1  0  0  0  0 
 15 17  1  0  0  0  0 
 15 18  1  0  0  0  0 
 18 19  1  0  0  0  0 
 18 20  1  0  0  0  0 
 18 21  1  0  0  0  0 
 21 22  1  0  0  0  0 
 21 23  1  0  0  0  0 
 23 24  2  0  0  0  0 
 23 25  2  0  0  0  0 
 23 26  1  0  0  0  0 
 26 27  2  0  0  0  0 
 27 28  1  0  0  0  0 
 28 29  2  0  0  0  0 
 29 30  1  0  0  0  0 
 29 31  1  0  0  0  0 
 31 32  1  0  0  0  0 
 31 33  2  0  0  0  0 
 26 33  1  0  0  0  0 
 33 34  1  0  0  0  0 
 28 35  1  0  0  0  0 
 35 36  1  0  0  0  0 
 35 37  2  0  0  0  0 
 37 38  1  0  0  0  0 
 38 39  1  0  0  0  0 
 38 40  2  0  0  0  0 
 27 40  1  0  0  0  0 
 40 41  1  0  0  0  0 
M  END
> <Rank>
21

> <Priority_score>
0.16355763604447046

> <Reaction_type>
N-dealkylation

> <Parent_ID>
54

> <Parent_InChI>
InChI=1S/C15H18FN3O2S/c1-11-8-17-6-3-7-19(11)22(20,21)14-5-2-4-12-9-18-10-13(16)15(12)14/h2,4-5,9-11,17H,3,6-8H2,1H3

> <Parent_SMILES>
C[C@H]1CNCCCN1S(=O)(=O)c1cccc2cncc(F)c12

$$$$
Molecule 54_metabolite 22
  CDK     0516241031

 41 43  0  0  0  0  0  0  0  0999 V2000
   -2.6290    4.6216    0.0000 C   0  0  0  0  0  0  0  0  0  0  0  0
   -1.5294    5.6418    0.0000 H   0  0  0  0  0  0  0  0  0  0  0  0
   -3.3133    3.2868    0.0000 H   0  0  0  0  0  0  0  0  0  0  0  0
   -1.4333    3.7159    0.0000 H   0  0  0  0  0  0  0  0  0  0  0  0
   -4.0624    5.0637    0.0000 C   0  0  1  0  0  0  0  0  0  0  0  0
   -3.3124    6.3627    0.0000 H   0  0  0  0  0  0  0  0  0  0  0  0
   -5.1619    6.0840    0.0000 C   0  0  0  0  0  0  0  0  0  0  0  0
   -3.9226    6.9289    0.0000 H   0  0  0  0  0  0  0  0  0  0  0  0
   -5.7099    7.4803    0.0000 H   0  0  0  0  0  0  0  0  0  0  0  0
   -6.6452    5.8604    0.0000 N   0  0  0  0  0  0  0  0  0  0  0  0
   -7.4902    7.0998    0.0000 H   0  0  0  0  0  0  0  0  0  0  0  0
   -7.3952    4.5614    0.0000 C   0  0  0  0  0  0  0  0  0  0  0  0
   -8.4948    5.5816    0.0000 H   0  0  0  0  0  0  0  0  0  0  0  0
   -8.6345    3.7164    0.0000 H   0  0  0  0  0  0  0  0  0  0  0  0
   -6.8472    3.1650    0.0000 C   0  0  0  0  0  0  0  0  0  0  0  0
   -8.3304    2.9415    0.0000 H   0  0  0  0  0  0  0  0  0  0  0  0
   -6.9593    1.6692    0.0000 H   0  0  0  0  0  0  0  0  0  0  0  0
   -5.4138    2.7229    0.0000 C   0  0  0  0  0  0  0  0  0  0  0  0
   -6.1638    1.4239    0.0000 H   0  0  0  0  0  0  0  0  0  0  0  0
   -4.3142    1.7027    0.0000 H   0  0  0  0  0  0  0  0  0  0  0  0
   -4.1745    3.5679    0.0000 N   0  0  0  0  0  0  0  0  0  0  0  0
   -1.6283    2.0979    0.0000 S   0  0  0  0  0  0  0  0  0  0  0  0
   -0.1511    1.8374    0.0000 O   0  0  0  0  0  0  0  0  0  0  0  0
   -0.0471    3.9824    0.0000 O   0  0  0  0  0  0  0  0  0  0  0  0
   -1.6283    0.5979    0.0000 C   0  0  0  0  0  0  0  0  0  0  0  0
   -2.9283   -0.1521    0.0000 C   0  0  0  0  0  0  0  0  0  0  0  0
   -4.2273    0.5981    0.0000 H   0  0  0  0  0  0  0  0  0  0  0  0
   -2.9283   -1.6521    0.0000 C   0  0  0  0  0  0  0  0  0  0  0  0
   -1.6283   -2.4021    0.0000 C   0  0  0  0  0  0  0  0  0  0  0  0
   -1.6283   -3.9021    0.0000 H   0  0  0  0  0  0  0  0  0  0  0  0
   -0.3283   -1.6521    0.0000 C   0  0  0  0  0  0  0  0  0  0  0  0
    0.9717   -2.4021    0.0000 C   0  0  0  0  0  0  0  0  0  0  0  0
    0.9717   -3.9021    0.0000 H   0  0  0  0  0  0  0  0  0  0  0  0
    2.2717   -1.6521    0.0000 N   0  0  0  0  0  0  0  0  0  0  0  0
    2.2717   -0.1521    0.0000 C   0  0  0  0  0  0  0  0  0  0  0  0
    3.5706    0.5981    0.0000 H   0  0  0  0  0  0  0  0  0  0  0  0
    0.9717    0.5979    0.0000 C   0  0  0  0  0  0  0  0  0  0  0  0
   -0.3283   -0.1521    0.0000 C   0  0  0  0  0  0  0  0  0  0  0  0
    0.9717    2.0979    0.0000 F   0  0  0  0  0  0  0  0  0  0  0  0
   -4.2273   -2.4023    0.0000 O   0  0  0  0  0  0  0  0  0  0  0  0
   -4.2270   -3.9023    0.0000 H   0  0  0  0  0  0  0  0  0  0  0  0
  1  2  1  0  0  0  0 
  1  3  1  0  0  0  0 
  1  4  1  0  0  0  0 
  5  1  1  6  0  0  0 
  5  6  1  1  0  0  0 
  5  7  1  0  0  0  0 
  7  8  1  0  0  0  0 
  7  9  1  0  0  0  0 
  7 10  1  0  0  0  0 
 10 11  1  0  0  0  0 
 10 12  1  0  0  0  0 
 12 13  1  0  0  0  0 
 12 14  1  0  0  0  0 
 12 15  1  0  0  0  0 
 15 16  1  0  0  0  0 
 15 17  1  0  0  0  0 
 15 18  1  0  0  0  0 
 18 19  1  0  0  0  0 
 18 20  1  0  0  0  0 
 18 21  1  0  0  0  0 
  5 21  1  0  0  0  0 
 21 22  1  0  0  0  0 
 22 23  2  0  0  0  0 
 22 24  2  0  0  0  0 
 22 25  1  0  0  0  0 
 25 26  2  0  0  0  0 
 26 27  1  0  0  0  0 
 26 28  1  0  0  0  0 
 28 29  2  0  0  0  0 
 29 30  1  0  0  0  0 
 29 31  1  0  0  0  0 
 31 32  2  0  0  0  0 
 32 33  1  0  0  0  0 
 32 34  1  0  0  0  0 
 34 35  2  0  0  0  0 
 35 36  1  0  0  0  0 
 35 37  1  0  0  0  0 
 37 38  2  0  0  0  0 
 31 38  1  0  0  0  0 
 25 38  1  0  0  0  0 
 37 39  1  0  0  0  0 
 28 40  1  0  0  0  0 
 40 41  1  0  0  0  0 
M  END
> <Rank>
22

> <Priority_score>
0.132

> <Reaction_type>
aromatic_hydroxylation_(para_to_carbon)

> <Parent_ID>
54

> <Parent_InChI>
InChI=1S/C15H18FN3O2S/c1-11-8-17-6-3-7-19(11)22(20,21)14-5-2-4-12-9-18-10-13(16)15(12)14/h2,4-5,9-11,17H,3,6-8H2,1H3

> <Parent_SMILES>
C[C@H]1CNCCCN1S(=O)(=O)c1cccc2cncc(F)c12

$$$$
Molecule 54_metabolite 23
  CDK     0516241031

 41 43  0  0  0  0  0  0  0  0999 V2000
   -2.6290    4.6216    0.0000 C   0  0  0  0  0  0  0  0  0  0  0  0
   -1.5294    5.6418    0.0000 H   0  0  0  0  0  0  0  0  0  0  0  0
   -3.3133    3.2868    0.0000 H   0  0  0  0  0  0  0  0  0  0  0  0
   -1.4333    3.7159    0.0000 H   0  0  0  0  0  0  0  0  0  0  0  0
   -4.0624    5.0637    0.0000 C   0  0  1  0  0  0  0  0  0  0  0  0
   -3.3124    6.3627    0.0000 H   0  0  0  0  0  0  0  0  0  0  0  0
   -5.1619    6.0840    0.0000 C   0  0  0  0  0  0  0  0  0  0  0  0
   -3.9226    6.9289    0.0000 H   0  0  0  0  0  0  0  0  0  0  0  0
   -5.7099    7.4803    0.0000 H   0  0  0  0  0  0  0  0  0  0  0  0
   -6.6452    5.8604    0.0000 N   0  0  0  0  0  0  0  0  0  0  0  0
   -7.4902    7.0998    0.0000 H   0  0  0  0  0  0  0  0  0  0  0  0
   -7.3952    4.5614    0.0000 C   0  0  0  0  0  0  0  0  0  0  0  0
   -8.4948    5.5816    0.0000 H   0  0  0  0  0  0  0  0  0  0  0  0
   -8.6345    3.7164    0.0000 H   0  0  0  0  0  0  0  0  0  0  0  0
   -6.8472    3.1650    0.0000 C   0  0  0  0  0  0  0  0  0  0  0  0
   -8.3304    2.9415    0.0000 H   0  0  0  0  0  0  0  0  0  0  0  0
   -6.9593    1.6692    0.0000 H   0  0  0  0  0  0  0  0  0  0  0  0
   -5.4138    2.7229    0.0000 C   0  0  0  0  0  0  0  0  0  0  0  0
   -6.1638    1.4239    0.0000 H   0  0  0  0  0  0  0  0  0  0  0  0
   -4.3142    1.7027    0.0000 H   0  0  0  0  0  0  0  0  0  0  0  0
   -4.1745    3.5679    0.0000 N   0  0  0  0  0  0  0  0  0  0  0  0
   -1.6283    2.0979    0.0000 S   0  0  0  0  0  0  0  0  0  0  0  0
   -0.1511    1.8374    0.0000 O   0  0  0  0  0  0  0  0  0  0  0  0
   -0.0471    3.9824    0.0000 O   0  0  0  0  0  0  0  0  0  0  0  0
   -1.6283    0.5979    0.0000 C   0  0  0  0  0  0  0  0  0  0  0  0
   -2.9283   -0.1521    0.0000 C   0  0  0  0  0  0  0  0  0  0  0  0
   -4.2273    0.5981    0.0000 H   0  0  0  0  0  0  0  0  0  0  0  0
   -2.9283   -1.6521    0.0000 C   0  0  0  0  0  0  0  0  0  0  0  0
   -4.2273   -2.4023    0.0000 H   0  0  0  0  0  0  0  0  0  0  0  0
   -1.6283   -2.4021    0.0000 C   0  0  0  0  0  0  0  0  0  0  0  0
   -0.3283   -1.6521    0.0000 C   0  0  0  0  0  0  0  0  0  0  0  0
   -0.3283   -0.1521    0.0000 C   0  0  0  0  0  0  0  0  0  0  0  0
    0.9717    0.5979    0.0000 C   0  0  0  0  0  0  0  0  0  0  0  0
    2.2717   -0.1521    0.0000 C   0  0  0  0  0  0  0  0  0  0  0  0
    3.5706    0.5981    0.0000 H   0  0  0  0  0  0  0  0  0  0  0  0
    2.2717   -1.6521    0.0000 N   0  0  0  0  0  0  0  0  0  0  0  0
    0.9717   -2.4021    0.0000 C   0  0  0  0  0  0  0  0  0  0  0  0
    0.9717   -3.9021    0.0000 H   0  0  0  0  0  0  0  0  0  0  0  0
    0.9717    2.0979    0.0000 F   0  0  0  0  0  0  0  0  0  0  0  0
   -1.6283   -3.9021    0.0000 O   0  0  0  0  0  0  0  0  0  0  0  0
   -0.3293   -4.6521    0.0000 H   0  0  0  0  0  0  0  0  0  0  0  0
  1  2  1  0  0  0  0 
  1  3  1  0  0  0  0 
  1  4  1  0  0  0  0 
  5  1  1  6  0  0  0 
  5  6  1  1  0  0  0 
  5  7  1  0  0  0  0 
  7  8  1  0  0  0  0 
  7  9  1  0  0  0  0 
  7 10  1  0  0  0  0 
 10 11  1  0  0  0  0 
 10 12  1  0  0  0  0 
 12 13  1  0  0  0  0 
 12 14  1  0  0  0  0 
 12 15  1  0  0  0  0 
 15 16  1  0  0  0  0 
 15 17  1  0  0  0  0 
 15 18  1  0  0  0  0 
 18 19  1  0  0  0  0 
 18 20  1  0  0  0  0 
 18 21  1  0  0  0  0 
  5 21  1  0  0  0  0 
 21 22  1  0  0  0  0 
 22 23  2  0  0  0  0 
 22 24  2  0  0  0  0 
 22 25  1  0  0  0  0 
 25 26  2  0  0  0  0 
 26 27  1  0  0  0  0 
 26 28  1  0  0  0  0 
 28 29  1  0  0  0  0 
 28 30  2  0  0  0  0 
 30 31  1  0  0  0  0 
 31 32  2  0  0  0  0 
 25 32  1  0  0  0  0 
 32 33  1  0  0  0  0 
 33 34  2  0  0  0  0 
 34 35  1  0  0  0  0 
 34 36  1  0  0  0  0 
 36 37  2  0  0  0  0 
 31 37  1  0  0  0  0 
 37 38  1  0  0  0  0 
 33 39  1  0  0  0  0 
 30 40  1  0  0  0  0 
 40 41  1  0  0  0  0 
M  END
> <Rank>
22

> <Priority_score>
0.132

> <Reaction_type>
aromatic hydroxylation

> <Parent_ID>
54

> <Parent_InChI>
InChI=1S/C15H18FN3O2S/c1-11-8-17-6-3-7-19(11)22(20,21)14-5-2-4-12-9-18-10-13(16)15(12)14/h2,4-5,9-11,17H,3,6-8H2,1H3

> <Parent_SMILES>
C[C@H]1CNCCCN1S(=O)(=O)c1cccc2cncc(F)c12

$$$$
Molecule 54_metabolite 24
  CDK     0516241031

 41 43  0  0  0  0  0  0  0  0999 V2000
   -1.4693    4.5637    0.0000 C   0  0  0  0  0  0  0  0  0  0  0  0
   -1.1355    3.1013    0.0000 H   0  0  0  0  0  0  0  0  0  0  0  0
   -1.2828    6.0520    0.0000 H   0  0  0  0  0  0  0  0  0  0  0  0
    0.0289    4.6384    0.0000 H   0  0  0  0  0  0  0  0  0  0  0  0
   -3.8200    5.2888    0.0000 C   0  0  1  0  0  0  0  0  0  0  0  0
   -3.0700    6.5878    0.0000 H   0  0  0  0  0  0  0  0  0  0  0  0
   -4.9196    6.3090    0.0000 C   0  0  0  0  0  0  0  0  0  0  0  0
   -3.6802    7.1540    0.0000 H   0  0  0  0  0  0  0  0  0  0  0  0
   -5.4676    7.7053    0.0000 H   0  0  0  0  0  0  0  0  0  0  0  0
   -6.4028    6.0855    0.0000 N   0  0  0  0  0  0  0  0  0  0  0  0
   -7.2478    7.3248    0.0000 H   0  0  0  0  0  0  0  0  0  0  0  0
   -7.1528    4.7864    0.0000 C   0  0  0  0  0  0  0  0  0  0  0  0
   -8.2524    5.8067    0.0000 H   0  0  0  0  0  0  0  0  0  0  0  0
   -8.3922    3.9414    0.0000 H   0  0  0  0  0  0  0  0  0  0  0  0
   -6.6048    3.3901    0.0000 C   0  0  0  0  0  0  0  0  0  0  0  0
   -8.0880    3.1666    0.0000 H   0  0  0  0  0  0  0  0  0  0  0  0
   -6.7169    1.8943    0.0000 H   0  0  0  0  0  0  0  0  0  0  0  0
   -5.1714    2.9480    0.0000 C   0  0  0  0  0  0  0  0  0  0  0  0
   -5.9214    1.6489    0.0000 H   0  0  0  0  0  0  0  0  0  0  0  0
   -4.0719    1.9277    0.0000 H   0  0  0  0  0  0  0  0  0  0  0  0
   -3.9321    3.7930    0.0000 N   0  0  0  0  0  0  0  0  0  0  0  0
   -1.3860    2.3230    0.0000 S   0  0  0  0  0  0  0  0  0  0  0  0
   -0.0869    1.5730    0.0000 O   0  0  0  0  0  0  0  0  0  0  0  0
    0.3288    3.3130    0.0000 O   0  0  0  0  0  0  0  0  0  0  0  0
   -1.3860    3.8230    0.0000 O   0  0  0  0  0  0  0  0  0  0  0  0
   -1.3860    0.8230    0.0000 C   0  0  0  0  0  0  0  0  0  0  0  0
   -0.0860    0.0730    0.0000 C   0  0  0  0  0  0  0  0  0  0  0  0
   -0.0860   -1.4270    0.0000 C   0  0  0  0  0  0  0  0  0  0  0  0
   -1.3860   -2.1770    0.0000 C   0  0  0  0  0  0  0  0  0  0  0  0
   -1.3860   -3.6770    0.0000 H   0  0  0  0  0  0  0  0  0  0  0  0
   -2.6860   -1.4270    0.0000 C   0  0  0  0  0  0  0  0  0  0  0  0
   -3.9849   -2.1772    0.0000 H   0  0  0  0  0  0  0  0  0  0  0  0
   -2.6860    0.0730    0.0000 C   0  0  0  0  0  0  0  0  0  0  0  0
   -3.9849    0.8232    0.0000 H   0  0  0  0  0  0  0  0  0  0  0  0
    1.2140   -2.1770    0.0000 C   0  0  0  0  0  0  0  0  0  0  0  0
    1.2140   -3.6770    0.0000 H   0  0  0  0  0  0  0  0  0  0  0  0
    2.5140   -1.4270    0.0000 N   0  0  0  0  0  0  0  0  0  0  0  0
    2.5140    0.0730    0.0000 C   0  0  0  0  0  0  0  0  0  0  0  0
    3.8130    0.8232    0.0000 H   0  0  0  0  0  0  0  0  0  0  0  0
    1.2140    0.8230    0.0000 C   0  0  0  0  0  0  0  0  0  0  0  0
    1.2140    2.3230    0.0000 F   0  0  0  0  0  0  0  0  0  0  0  0
  1  2  1  0  0  0  0 
  1  3  1  0  0  0  0 
  1  4  1  0  0  0  0 
  5  1  1  6  0  0  0 
  5  6  1  1  0  0  0 
  5  7  1  0  0  0  0 
  7  8  1  0  0  0  0 
  7  9  1  0  0  0  0 
  7 10  1  0  0  0  0 
 10 11  1  0  0  0  0 
 10 12  1  0  0  0  0 
 12 13  1  0  0  0  0 
 12 14  1  0  0  0  0 
 12 15  1  0  0  0  0 
 15 16  1  0  0  0  0 
 15 17  1  0  0  0  0 
 15 18  1  0  0  0  0 
 18 19  1  0  0  0  0 
 18 20  1  0  0  0  0 
 18 21  1  0  0  0  0 
  5 21  1  0  0  0  0 
 21 22  1  0  0  0  0 
 22 23  2  0  0  0  0 
 22 24  2  0  0  0  0 
 22 25  2  0  0  0  0 
 22 26  1  0  0  0  0 
 26 27  2  0  0  0  0 
 27 28  1  0  0  0  0 
 28 29  2  0  0  0  0 
 29 30  1  0  0  0  0 
 29 31  1  0  0  0  0 
 31 32  1  0  0  0  0 
 31 33  2  0  0  0  0 
 26 33  1  0  0  0  0 
 33 34  1  0  0  0  0 
 28 35  1  0  0  0  0 
 35 36  1  0  0  0  0 
 35 37  2  0  0  0  0 
 37 38  1  0  0  0  0 
 38 39  1  0  0  0  0 
 38 40  2  0  0  0  0 
 27 40  1  0  0  0  0 
 40 41  1  0  0  0  0 
M  END
> <Rank>
24

> <Priority_score>
0.088

> <Reaction_type>
S-oxidation

> <Parent_ID>
54

> <Parent_InChI>
InChI=1S/C15H18FN3O2S/c1-11-8-17-6-3-7-19(11)22(20,21)14-5-2-4-12-9-18-10-13(16)15(12)14/h2,4-5,9-11,17H,3,6-8H2,1H3

> <Parent_SMILES>
C[C@H]1CNCCCN1S(=O)(=O)c1cccc2cncc(F)c12

$$$$
Molecule 54_metabolite 25
  CDK     0516241031

 39 41  0  0  0  0  0  0  0  0999 V2000
   -2.6290    4.6216    0.0000 C   0  0  0  0  0  0  0  0  0  0  0  0
   -1.5294    5.6418    0.0000 H   0  0  0  0  0  0  0  0  0  0  0  0
   -3.3133    3.2868    0.0000 H   0  0  0  0  0  0  0  0  0  0  0  0
   -1.4333    3.7159    0.0000 H   0  0  0  0  0  0  0  0  0  0  0  0
   -4.0624    5.0637    0.0000 C   0  0  1  0  0  0  0  0  0  0  0  0
   -3.3124    6.3627    0.0000 H   0  0  0  0  0  0  0  0  0  0  0  0
   -5.1619    6.0840    0.0000 C   0  0  0  0  0  0  0  0  0  0  0  0
   -3.9226    6.9289    0.0000 H   0  0  0  0  0  0  0  0  0  0  0  0
   -5.7099    7.4803    0.0000 H   0  0  0  0  0  0  0  0  0  0  0  0
   -6.6452    5.8604    0.0000 N   0  0  0  0  0  0  0  0  0  0  0  0
   -7.4902    7.0998    0.0000 H   0  0  0  0  0  0  0  0  0  0  0  0
   -7.3952    4.5614    0.0000 C   0  0  0  0  0  0  0  0  0  0  0  0
   -8.8910    4.6735    0.0000 H   0  0  0  0  0  0  0  0  0  0  0  0
   -6.8472    3.1650    0.0000 C   0  0  0  0  0  0  0  0  0  0  0  0
   -8.3304    2.9415    0.0000 H   0  0  0  0  0  0  0  0  0  0  0  0
   -6.9593    1.6692    0.0000 H   0  0  0  0  0  0  0  0  0  0  0  0
   -5.4138    2.7229    0.0000 C   0  0  0  0  0  0  0  0  0  0  0  0
   -6.1638    1.4239    0.0000 H   0  0  0  0  0  0  0  0  0  0  0  0
   -4.3142    1.7027    0.0000 H   0  0  0  0  0  0  0  0  0  0  0  0
   -4.1745    3.5679    0.0000 N   0  0  0  0  0  0  0  0  0  0  0  0
   -1.6283    2.0979    0.0000 S   0  0  0  0  0  0  0  0  0  0  0  0
   -0.1511    1.8374    0.0000 O   0  0  0  0  0  0  0  0  0  0  0  0
   -0.0471    3.9824    0.0000 O   0  0  0  0  0  0  0  0  0  0  0  0
   -1.6283    0.5979    0.0000 C   0  0  0  0  0  0  0  0  0  0  0  0
   -0.3283   -0.1521    0.0000 C   0  0  0  0  0  0  0  0  0  0  0  0
   -0.3283   -1.6521    0.0000 C   0  0  0  0  0  0  0  0  0  0  0  0
   -1.6283   -2.4021    0.0000 C   0  0  0  0  0  0  0  0  0  0  0  0
   -1.6283   -3.9021    0.0000 H   0  0  0  0  0  0  0  0  0  0  0  0
   -2.9283   -1.6521    0.0000 C   0  0  0  0  0  0  0  0  0  0  0  0
   -4.2273   -2.4023    0.0000 H   0  0  0  0  0  0  0  0  0  0  0  0
   -2.9283   -0.1521    0.0000 C   0  0  0  0  0  0  0  0  0  0  0  0
   -4.2273    0.5981    0.0000 H   0  0  0  0  0  0  0  0  0  0  0  0
    0.9717   -2.4021    0.0000 C   0  0  0  0  0  0  0  0  0  0  0  0
    0.9717   -3.9021    0.0000 H   0  0  0  0  0  0  0  0  0  0  0  0
    2.2717   -1.6521    0.0000 N   0  0  0  0  0  0  0  0  0  0  0  0
    2.2717   -0.1521    0.0000 C   0  0  0  0  0  0  0  0  0  0  0  0
    3.5706    0.5981    0.0000 H   0  0  0  0  0  0  0  0  0  0  0  0
    0.9717    0.5979    0.0000 C   0  0  0  0  0  0  0  0  0  0  0  0
    0.9717    2.0979    0.0000 F   0  0  0  0  0  0  0  0  0  0  0  0
  1  2  1  0  0  0  0 
  1  3  1  0  0  0  0 
  1  4  1  0  0  0  0 
  5  1  1  6  0  0  0 
  5  6  1  1  0  0  0 
  5  7  1  0  0  0  0 
  7  8  1  0  0  0  0 
  7  9  1  0  0  0  0 
  7 10  1  0  0  0  0 
 10 11  1  0  0  0  0 
 10 12  2  0  0  0  0 
 12 13  1  0  0  0  0 
 12 14  1  0  0  0  0 
 14 15  1  0  0  0  0 
 14 16  1  0  0  0  0 
 14 17  1  0  0  0  0 
 17 18  1  0  0  0  0 
 17 19  1  0  0  0  0 
 17 20  1  0  0  0  0 
  5 20  1  0  0  0  0 
 20 21  1  0  0  0  0 
 21 22  2  0  0  0  0 
 21 23  2  0  0  0  0 
 21 24  1  0  0  0  0 
 24 25  2  0  0  0  0 
 25 26  1  0  0  0  0 
 26 27  2  0  0  0  0 
 27 28  1  0  0  0  0 
 27 29  1  0  0  0  0 
 29 30  1  0  0  0  0 
 29 31  2  0  0  0  0 
 24 31  1  0  0  0  0 
 31 32  1  0  0  0  0 
 26 33  1  0  0  0  0 
 33 34  1  0  0  0  0 
 33 35  2  0  0  0  0 
 35 36  1  0  0  0  0 
 36 37  1  0  0  0  0 
 36 38  2  0  0  0  0 
 25 38  1  0  0  0  0 
 38 39  1  0  0  0  0 
M  CHG  1  10   1
M  END
> <Rank>
25

> <Priority_score>
0.0848

> <Reaction_type>
dehydration of N-C bond

> <Parent_ID>
54

> <Parent_InChI>
InChI=1S/C15H18FN3O2S/c1-11-8-17-6-3-7-19(11)22(20,21)14-5-2-4-12-9-18-10-13(16)15(12)14/h2,4-5,9-11,17H,3,6-8H2,1H3

> <Parent_SMILES>
C[C@H]1CNCCCN1S(=O)(=O)c1cccc2cncc(F)c12

$$$$
Molecule 54_metabolite 26
  CDK     0516241031

 38 40  0  0  0  0  0  0  0  0999 V2000
   -2.6290    4.6216    0.0000 C   0  0  0  0  0  0  0  0  0  0  0  0
   -1.5294    5.6418    0.0000 H   0  0  0  0  0  0  0  0  0  0  0  0
   -3.3133    3.2868    0.0000 H   0  0  0  0  0  0  0  0  0  0  0  0
   -1.4333    3.7159    0.0000 H   0  0  0  0  0  0  0  0  0  0  0  0
   -4.0624    5.0637    0.0000 C   0  0  1  0  0  0  0  0  0  0  0  0
   -3.3124    6.3627    0.0000 H   0  0  0  0  0  0  0  0  0  0  0  0
   -5.1619    6.0840    0.0000 C   0  0  0  0  0  0  0  0  0  0  0  0
   -3.9226    6.9289    0.0000 H   0  0  0  0  0  0  0  0  0  0  0  0
   -5.7099    7.4803    0.0000 H   0  0  0  0  0  0  0  0  0  0  0  0
   -6.6452    5.8604    0.0000 N   0  0  0  0  0  0  0  0  0  0  0  0
   -7.3952    4.5614    0.0000 C   0  0  0  0  0  0  0  0  0  0  0  0
   -8.8910    4.6735    0.0000 H   0  0  0  0  0  0  0  0  0  0  0  0
   -6.8472    3.1650    0.0000 C   0  0  0  0  0  0  0  0  0  0  0  0
   -8.3304    2.9415    0.0000 H   0  0  0  0  0  0  0  0  0  0  0  0
   -6.9593    1.6692    0.0000 H   0  0  0  0  0  0  0  0  0  0  0  0
   -5.4138    2.7229    0.0000 C   0  0  0  0  0  0  0  0  0  0  0  0
   -6.1638    1.4239    0.0000 H   0  0  0  0  0  0  0  0  0  0  0  0
   -4.3142    1.7027    0.0000 H   0  0  0  0  0  0  0  0  0  0  0  0
   -4.1745    3.5679    0.0000 N   0  0  0  0  0  0  0  0  0  0  0  0
   -1.6283    2.0979    0.0000 S   0  0  0  0  0  0  0  0  0  0  0  0
   -0.1511    1.8374    0.0000 O   0  0  0  0  0  0  0  0  0  0  0  0
   -0.0471    3.9824    0.0000 O   0  0  0  0  0  0  0  0  0  0  0  0
   -1.6283    0.5979    0.0000 C   0  0  0  0  0  0  0  0  0  0  0  0
   -0.3283   -0.1521    0.0000 C   0  0  0  0  0  0  0  0  0  0  0  0
   -0.3283   -1.6521    0.0000 C   0  0  0  0  0  0  0  0  0  0  0  0
   -1.6283   -2.4021    0.0000 C   0  0  0  0  0  0  0  0  0  0  0  0
   -1.6283   -3.9021    0.0000 H   0  0  0  0  0  0  0  0  0  0  0  0
   -2.9283   -1.6521    0.0000 C   0  0  0  0  0  0  0  0  0  0  0  0
   -4.2273   -2.4023    0.0000 H   0  0  0  0  0  0  0  0  0  0  0  0
   -2.9283   -0.1521    0.0000 C   0  0  0  0  0  0  0  0  0  0  0  0
   -4.2273    0.5981    0.0000 H   0  0  0  0  0  0  0  0  0  0  0  0
    0.9717   -2.4021    0.0000 C   0  0  0  0  0  0  0  0  0  0  0  0
    0.9717   -3.9021    0.0000 H   0  0  0  0  0  0  0  0  0  0  0  0
    2.2717   -1.6521    0.0000 N   0  0  0  0  0  0  0  0  0  0  0  0
    2.2717   -0.1521    0.0000 C   0  0  0  0  0  0  0  0  0  0  0  0
    3.5706    0.5981    0.0000 H   0  0  0  0  0  0  0  0  0  0  0  0
    0.9717    0.5979    0.0000 C   0  0  0  0  0  0  0  0  0  0  0  0
    0.9717    2.0979    0.0000 F   0  0  0  0  0  0  0  0  0  0  0  0
  1  2  1  0  0  0  0 
  1  3  1  0  0  0  0 
  1  4  1  0  0  0  0 
  5  1  1  6  0  0  0 
  5  6  1  1  0  0  0 
  5  7  1  0  0  0  0 
  7  8  1  0  0  0  0 
  7  9  1  0  0  0  0 
  7 10  1  0  0  0  0 
 10 11  2  0  0  0  0 
 11 12  1  0  0  0  0 
 11 13  1  0  0  0  0 
 13 14  1  0  0  0  0 
 13 15  1  0  0  0  0 
 13 16  1  0  0  0  0 
 16 17  1  0  0  0  0 
 16 18  1  0  0  0  0 
 16 19  1  0  0  0  0 
  5 19  1  0  0  0  0 
 19 20  1  0  0  0  0 
 20 21  2  0  0  0  0 
 20 22  2  0  0  0  0 
 20 23  1  0  0  0  0 
 23 24  2  0  0  0  0 
 24 25  1  0  0  0  0 
 25 26  2  0  0  0  0 
 26 27  1  0  0  0  0 
 26 28  1  0  0  0  0 
 28 29  1  0  0  0  0 
 28 30  2  0  0  0  0 
 23 30  1  0  0  0  0 
 30 31  1  0  0  0  0 
 25 32  1  0  0  0  0 
 32 33  1  0  0  0  0 
 32 34  2  0  0  0  0 
 34 35  1  0  0  0  0 
 35 36  1  0  0  0  0 
 35 37  2  0  0  0  0 
 24 37  1  0  0  0  0 
 37 38  1  0  0  0  0 
M  END
> <Rank>
25

> <Priority_score>
0.0848

> <Reaction_type>
dehydration of N-C bond

> <Parent_ID>
54

> <Parent_InChI>
InChI=1S/C15H18FN3O2S/c1-11-8-17-6-3-7-19(11)22(20,21)14-5-2-4-12-9-18-10-13(16)15(12)14/h2,4-5,9-11,17H,3,6-8H2,1H3

> <Parent_SMILES>
C[C@H]1CNCCCN1S(=O)(=O)c1cccc2cncc(F)c12

$$$$
Molecule 54_metabolite 27
  CDK     0516241031

 38 40  0  0  0  0  0  0  0  0999 V2000
   -2.6290    4.6216    0.0000 C   0  0  0  0  0  0  0  0  0  0  0  0
   -1.5294    5.6418    0.0000 H   0  0  0  0  0  0  0  0  0  0  0  0
   -3.3133    3.2868    0.0000 H   0  0  0  0  0  0  0  0  0  0  0  0
   -1.4333    3.7159    0.0000 H   0  0  0  0  0  0  0  0  0  0  0  0
   -4.0624    5.0637    0.0000 C   0  0  1  0  0  0  0  0  0  0  0  0
   -3.3124    6.3627    0.0000 H   0  0  0  0  0  0  0  0  0  0  0  0
   -5.1619    6.0840    0.0000 C   0  0  0  0  0  0  0  0  0  0  0  0
   -3.9226    6.9289    0.0000 H   0  0  0  0  0  0  0  0  0  0  0  0
   -5.7099    7.4803    0.0000 H   0  0  0  0  0  0  0  0  0  0  0  0
   -6.6452    5.8604    0.0000 N   0  0  0  0  0  0  0  0  0  0  0  0
   -7.4902    7.0998    0.0000 H   0  0  0  0  0  0  0  0  0  0  0  0
   -7.3952    4.5614    0.0000 C   0  0  0  0  0  0  0  0  0  0  0  0
   -8.8910    4.6735    0.0000 H   0  0  0  0  0  0  0  0  0  0  0  0
   -6.8472    3.1650    0.0000 C   0  0  0  0  0  0  0  0  0  0  0  0
   -7.8674    2.0655    0.0000 H   0  0  0  0  0  0  0  0  0  0  0  0
   -5.4138    2.7229    0.0000 C   0  0  0  0  0  0  0  0  0  0  0  0
   -6.1638    1.4239    0.0000 H   0  0  0  0  0  0  0  0  0  0  0  0
   -4.3142    1.7027    0.0000 H   0  0  0  0  0  0  0  0  0  0  0  0
   -4.1745    3.5679    0.0000 N   0  0  0  0  0  0  0  0  0  0  0  0
   -1.6283    2.0979    0.0000 S   0  0  0  0  0  0  0  0  0  0  0  0
   -0.1511    1.8374    0.0000 O   0  0  0  0  0  0  0  0  0  0  0  0
   -0.0471    3.9824    0.0000 O   0  0  0  0  0  0  0  0  0  0  0  0
   -1.6283    0.5979    0.0000 C   0  0  0  0  0  0  0  0  0  0  0  0
   -0.3283   -0.1521    0.0000 C   0  0  0  0  0  0  0  0  0  0  0  0
   -0.3283   -1.6521    0.0000 C   0  0  0  0  0  0  0  0  0  0  0  0
   -1.6283   -2.4021    0.0000 C   0  0  0  0  0  0  0  0  0  0  0  0
   -1.6283   -3.9021    0.0000 H   0  0  0  0  0  0  0  0  0  0  0  0
   -2.9283   -1.6521    0.0000 C   0  0  0  0  0  0  0  0  0  0  0  0
   -4.2273   -2.4023    0.0000 H   0  0  0  0  0  0  0  0  0  0  0  0
   -2.9283   -0.1521    0.0000 C   0  0  0  0  0  0  0  0  0  0  0  0
   -4.2273    0.5981    0.0000 H   0  0  0  0  0  0  0  0  0  0  0  0
    0.9717   -2.4021    0.0000 C   0  0  0  0  0  0  0  0  0  0  0  0
    0.9717   -3.9021    0.0000 H   0  0  0  0  0  0  0  0  0  0  0  0
    2.2717   -1.6521    0.0000 N   0  0  0  0  0  0  0  0  0  0  0  0
    2.2717   -0.1521    0.0000 C   0  0  0  0  0  0  0  0  0  0  0  0
    3.5706    0.5981    0.0000 H   0  0  0  0  0  0  0  0  0  0  0  0
    0.9717    0.5979    0.0000 C   0  0  0  0  0  0  0  0  0  0  0  0
    0.9717    2.0979    0.0000 F   0  0  0  0  0  0  0  0  0  0  0  0
  1  2  1  0  0  0  0 
  1  3  1  0  0  0  0 
  1  4  1  0  0  0  0 
  5  1  1  6  0  0  0 
  5  6  1  1  0  0  0 
  5  7  1  0  0  0  0 
  7  8  1  0  0  0  0 
  7  9  1  0  0  0  0 
  7 10  1  0  0  0  0 
 10 11  1  0  0  0  0 
 10 12  1  0  0  0  0 
 12 13  1  0  0  0  0 
 12 14  2  0  0  0  0 
 14 15  1  0  0  0  0 
 14 16  1  0  0  0  0 
 16 17  1  0  0  0  0 
 16 18  1  0  0  0  0 
 16 19  1  0  0  0  0 
  5 19  1  0  0  0  0 
 19 20  1  0  0  0  0 
 20 21  2  0  0  0  0 
 20 22  2  0  0  0  0 
 20 23  1  0  0  0  0 
 23 24  2  0  0  0  0 
 24 25  1  0  0  0  0 
 25 26  2  0  0  0  0 
 26 27  1  0  0  0  0 
 26 28  1  0  0  0  0 
 28 29  1  0  0  0  0 
 28 30  2  0  0  0  0 
 23 30  1  0  0  0  0 
 30 31  1  0  0  0  0 
 25 32  1  0  0  0  0 
 32 33  1  0  0  0  0 
 32 34  2  0  0  0  0 
 34 35  1  0  0  0  0 
 35 36  1  0  0  0  0 
 35 37  2  0  0  0  0 
 24 37  1  0  0  0  0 
 37 38  1  0  0  0  0 
M  END
> <Rank>
25

> <Priority_score>
0.0848

> <Reaction_type>
alkyl dehydrogenation

> <Parent_ID>
54

> <Parent_InChI>
InChI=1S/C15H18FN3O2S/c1-11-8-17-6-3-7-19(11)22(20,21)14-5-2-4-12-9-18-10-13(16)15(12)14/h2,4-5,9-11,17H,3,6-8H2,1H3

> <Parent_SMILES>
C[C@H]1CNCCCN1S(=O)(=O)c1cccc2cncc(F)c12

$$$$
Molecule 54_metabolite 28
  CDK     0516241031

 38 41  0  0  0  0  0  0  0  0999 V2000
   -1.6796   -2.0493    0.0000 C   0  0  0  0  0  0  0  0  0  0  0  0
   -3.1796   -2.0498    0.0000 H   0  0  0  0  0  0  0  0  0  0  0  0
   -1.9396   -3.5266    0.0000 H   0  0  0  0  0  0  0  0  0  0  0  0
   -0.2699   -2.5619    0.0000 H   0  0  0  0  0  0  0  0  0  0  0  0
   -0.9300   -0.7500    0.0000 C   0  0  2  0  0  0  0  0  0  0  0  0
   -2.2300    0.0000    0.0000 C   0  0  0  0  0  0  0  0  0  0  0  0
   -3.1941    1.1492    0.0000 H   0  0  0  0  0  0  0  0  0  0  0  0
   -3.1941   -1.1492    0.0000 H   0  0  0  0  0  0  0  0  0  0  0  0
   -0.9300    0.7500    0.0000 N   0  0  0  0  0  0  0  0  0  0  0  0
    0.3700    1.5000    0.0000 C   0  0  0  0  0  0  0  0  0  0  0  0
    1.3341    2.6492    0.0000 H   0  0  0  0  0  0  0  0  0  0  0  0
   -0.5941    2.6492    0.0000 H   0  0  0  0  0  0  0  0  0  0  0  0
    1.6700    0.7500    0.0000 C   0  0  0  0  0  0  0  0  0  0  0  0
    3.1472    0.4897    0.0000 H   0  0  0  0  0  0  0  0  0  0  0  0
    2.1827    2.1596    0.0000 H   0  0  0  0  0  0  0  0  0  0  0  0
    1.6700   -0.7500    0.0000 C   0  0  0  0  0  0  0  0  0  0  0  0
    2.1827   -2.1596    0.0000 H   0  0  0  0  0  0  0  0  0  0  0  0
    3.1472   -0.4897    0.0000 H   0  0  0  0  0  0  0  0  0  0  0  0
    0.3700   -1.5000    0.0000 N   0  0  0  0  0  0  0  0  0  0  0  0
    0.3700   -3.0000    0.0000 S   0  0  0  0  0  0  0  0  0  0  0  0
   -1.1072   -2.7395    0.0000 O   0  0  0  0  0  0  0  0  0  0  0  0
   -0.1430   -4.4095    0.0000 O   0  0  0  0  0  0  0  0  0  0  0  0
    1.6690   -3.7500    0.0000 C   0  0  0  0  0  0  0  0  0  0  0  0
    1.6686   -5.2508    0.0000 C   0  0  0  0  0  0  0  0  0  0  0  0
    2.9676   -6.0008    0.0000 C   0  0  0  0  0  0  0  0  0  0  0  0
    4.2671   -5.2500    0.0000 C   0  0  0  0  0  0  0  0  0  0  0  0
    5.5662   -6.0000    0.0000 H   0  0  0  0  0  0  0  0  0  0  0  0
    4.2676   -3.7492    0.0000 C   0  0  0  0  0  0  0  0  0  0  0  0
    5.5668   -2.9994    0.0000 H   0  0  0  0  0  0  0  0  0  0  0  0
    2.9686   -2.9992    0.0000 C   0  0  0  0  0  0  0  0  0  0  0  0
    2.9683   -1.4992    0.0000 H   0  0  0  0  0  0  0  0  0  0  0  0
    2.9671   -7.5017    0.0000 C   0  0  0  0  0  0  0  0  0  0  0  0
    4.2662   -8.2517    0.0000 H   0  0  0  0  0  0  0  0  0  0  0  0
    1.6676   -8.2525    0.0000 N   0  0  0  0  0  0  0  0  0  0  0  0
    0.3686   -7.5025    0.0000 C   0  0  0  0  0  0  0  0  0  0  0  0
   -0.9306   -8.2523    0.0000 H   0  0  0  0  0  0  0  0  0  0  0  0
    0.3690   -6.0017    0.0000 C   0  0  0  0  0  0  0  0  0  0  0  0
   -0.9300   -5.2517    0.0000 F   0  0  0  0  0  0  0  0  0  0  0  0
  1  2  1  0  0  0  0 
  1  3  1  0  0  0  0 
  1  4  1  0  0  0  0 
  1  5  1  0  0  0  0 
  5  6  1  0  0  0  0 
  6  7  1  0  0  0  0 
  6  8  1  0  0  0  0 
  6  9  1  0  0  0  0 
  5  9  1  6  0  0  0 
  9 10  1  0  0  0  0 
 10 11  1  0  0  0  0 
 10 12  1  0  0  0  0 
 10 13  1  0  0  0  0 
 13 14  1  0  0  0  0 
 13 15  1  0  0  0  0 
 13 16  1  0  0  0  0 
 16 17  1  0  0  0  0 
 16 18  1  0  0  0  0 
 16 19  1  0  0  0  0 
  5 19  1  0  0  0  0 
 19 20  1  0  0  0  0 
 20 21  2  0  0  0  0 
 20 22  2  0  0  0  0 
 20 23  1  0  0  0  0 
 23 24  2  0  0  0  0 
 24 25  1  0  0  0  0 
 25 26  2  0  0  0  0 
 26 27  1  0  0  0  0 
 26 28  1  0  0  0  0 
 28 29  1  0  0  0  0 
 28 30  2  0  0  0  0 
 23 30  1  0  0  0  0 
 30 31  1  0  0  0  0 
 25 32  1  0  0  0  0 
 32 33  1  0  0  0  0 
 32 34  2  0  0  0  0 
 34 35  1  0  0  0  0 
 35 36  1  0  0  0  0 
 35 37  2  0  0  0  0 
 24 37  1  0  0  0  0 
 37 38  1  0  0  0  0 
M  END
> <Rank>
25

> <Priority_score>
0.0848

> <Reaction_type>
cyclization to 6-membered NCN ring

> <Parent_ID>
54

> <Parent_InChI>
InChI=1S/C15H18FN3O2S/c1-11-8-17-6-3-7-19(11)22(20,21)14-5-2-4-12-9-18-10-13(16)15(12)14/h2,4-5,9-11,17H,3,6-8H2,1H3

> <Parent_SMILES>
C[C@H]1CNCCCN1S(=O)(=O)c1cccc2cncc(F)c12

$$$$
Molecule 54_metabolite 29
  CDK     0516241031

 39 41  0  0  0  0  0  0  0  0999 V2000
   -2.7933    4.9549    0.0000 C   0  0  0  0  0  0  0  0  0  0  0  0
   -1.6938    5.9752    0.0000 H   0  0  0  0  0  0  0  0  0  0  0  0
   -3.4777    3.6201    0.0000 H   0  0  0  0  0  0  0  0  0  0  0  0
   -1.5976    4.0492    0.0000 H   0  0  0  0  0  0  0  0  0  0  0  0
   -5.1440    5.6800    0.0000 C   0  0  1  0  0  0  0  0  0  0  0  0
   -4.3940    6.9791    0.0000 H   0  0  0  0  0  0  0  0  0  0  0  0
   -6.2436    6.7003    0.0000 C   0  0  0  0  0  0  0  0  0  0  0  0
   -5.0043    7.5453    0.0000 H   0  0  0  0  0  0  0  0  0  0  0  0
   -6.7916    8.0966    0.0000 H   0  0  0  0  0  0  0  0  0  0  0  0
   -7.7269    6.4767    0.0000 N   0  0  0  0  0  0  0  0  0  0  0  0
   -8.5718    7.7161    0.0000 H   0  0  0  0  0  0  0  0  0  0  0  0
   -8.4769    5.1777    0.0000 C   0  0  0  0  0  0  0  0  0  0  0  0
   -9.5764    6.1979    0.0000 H   0  0  0  0  0  0  0  0  0  0  0  0
   -9.7162    4.3327    0.0000 H   0  0  0  0  0  0  0  0  0  0  0  0
   -7.9289    3.7814    0.0000 C   0  0  0  0  0  0  0  0  0  0  0  0
   -9.4121    3.5578    0.0000 H   0  0  0  0  0  0  0  0  0  0  0  0
   -8.0410    2.2856    0.0000 H   0  0  0  0  0  0  0  0  0  0  0  0
   -6.4955    3.3392    0.0000 C   0  0  0  0  0  0  0  0  0  0  0  0
   -6.2719    1.8560    0.0000 H   0  0  0  0  0  0  0  0  0  0  0  0
   -5.2561    4.1842    0.0000 N   0  0  0  0  0  0  0  0  0  0  0  0
   -3.0040    2.2944    0.0000 S   0  0  0  0  0  0  0  0  0  0  0  0
   -1.5944    1.7814    0.0000 O   0  0  0  0  0  0  0  0  0  0  0  0
   -0.7518    4.1842    0.0000 O   0  0  0  0  0  0  0  0  0  0  0  0
   -3.3478    0.3445    0.0000 C   0  0  0  0  0  0  0  0  0  0  0  0
   -2.1978   -0.6199    0.0000 C   0  0  0  0  0  0  0  0  0  0  0  0
   -2.4583   -2.0971    0.0000 C   0  0  0  0  0  0  0  0  0  0  0  0
   -3.8687   -2.6099    0.0000 C   0  0  0  0  0  0  0  0  0  0  0  0
   -4.1292   -4.0871    0.0000 H   0  0  0  0  0  0  0  0  0  0  0  0
   -5.0188   -1.6456    0.0000 C   0  0  0  0  0  0  0  0  0  0  0  0
   -6.4282   -2.1588    0.0000 H   0  0  0  0  0  0  0  0  0  0  0  0
   -4.7583   -0.1684    0.0000 C   0  0  0  0  0  0  0  0  0  0  0  0
   -5.9072    0.7960    0.0000 H   0  0  0  0  0  0  0  0  0  0  0  0
   -1.3082   -3.0614    0.0000 C   0  0  0  0  0  0  0  0  0  0  0  0
   -1.5687   -4.5386    0.0000 H   0  0  0  0  0  0  0  0  0  0  0  0
    0.1022   -2.5485    0.0000 N   0  0  0  0  0  0  0  0  0  0  0  0
    0.3627   -1.0713    0.0000 C   0  0  0  0  0  0  0  0  0  0  0  0
    1.7722   -0.5581    0.0000 H   0  0  0  0  0  0  0  0  0  0  0  0
   -0.7873   -0.1070    0.0000 C   0  0  0  0  0  0  0  0  0  0  0  0
   -0.5268    1.3702    0.0000 F   0  0  0  0  0  0  0  0  0  0  0  0
  1  2  1  0  0  0  0 
  1  3  1  0  0  0  0 
  1  4  1  0  0  0  0 
  5  1  1  6  0  0  0 
  5  6  1  1  0  0  0 
  5  7  1  0  0  0  0 
  7  8  1  0  0  0  0 
  7  9  1  0  0  0  0 
  7 10  1  0  0  0  0 
 10 11  1  0  0  0  0 
 10 12  1  0  0  0  0 
 12 13  1  0  0  0  0 
 12 14  1  0  0  0  0 
 12 15  1  0  0  0  0 
 15 16  1  0  0  0  0 
 15 17  1  0  0  0  0 
 15 18  1  0  0  0  0 
 18 19  1  0  0  0  0 
 18 20  2  0  0  0  0 
  5 20  1  0  0  0  0 
 20 21  1  0  0  0  0 
 21 22  2  0  0  0  0 
 21 23  2  0  0  0  0 
 21 24  1  0  0  0  0 
 24 25  2  0  0  0  0 
 25 26  1  0  0  0  0 
 26 27  2  0  0  0  0 
 27 28  1  0  0  0  0 
 27 29  1  0  0  0  0 
 29 30  1  0  0  0  0 
 29 31  2  0  0  0  0 
 24 31  1  0  0  0  0 
 31 32  1  0  0  0  0 
 26 33  1  0  0  0  0 
 33 34  1  0  0  0  0 
 33 35  2  0  0  0  0 
 35 36  1  0  0  0  0 
 36 37  1  0  0  0  0 
 36 38  2  0  0  0  0 
 25 38  1  0  0  0  0 
 38 39  1  0  0  0  0 
M  CHG  1  20   1
M  END
> <Rank>
29

> <Priority_score>
0.068

> <Reaction_type>
dehydration of N-C bond

> <Parent_ID>
54

> <Parent_InChI>
InChI=1S/C15H18FN3O2S/c1-11-8-17-6-3-7-19(11)22(20,21)14-5-2-4-12-9-18-10-13(16)15(12)14/h2,4-5,9-11,17H,3,6-8H2,1H3

> <Parent_SMILES>
C[C@H]1CNCCCN1S(=O)(=O)c1cccc2cncc(F)c12

$$$$
Molecule 54_metabolite 30
  CDK     0516241031

 38 41  0  0  0  0  0  0  0  0999 V2000
    3.4928   -0.7084    0.0000 C   0  0  0  0  0  0  0  0  0  0  0  0
    4.9195   -0.2451    0.0000 H   0  0  0  0  0  0  0  0  0  0  0  0
    1.9324   -1.9272    0.0000 H   0  0  0  0  0  0  0  0  0  0  0  0
    4.1968   -2.0329    0.0000 H   0  0  0  0  0  0  0  0  0  0  0  0
    2.0216    0.6167    0.0000 C   0  0  1  0  0  0  0  0  0  0  0  0
    3.1362    1.6206    0.0000 H   0  0  0  0  0  0  0  0  0  0  0  0
    1.1416   -0.5933    0.0000 C   0  0  0  0  0  0  0  0  0  0  0  0
    0.5340   -1.9647    0.0000 H   0  0  0  0  0  0  0  0  0  0  0  0
    2.4412   -1.3424    0.0000 H   0  0  0  0  0  0  0  0  0  0  0  0
   -0.2884   -0.1333    0.0000 N   0  0  0  0  0  0  0  0  0  0  0  0
   -1.7884   -0.1333    0.0000 C   0  0  0  0  0  0  0  0  0  0  0  0
   -3.2884   -0.1333    0.0000 H   0  0  0  0  0  0  0  0  0  0  0  0
   -1.7884   -1.6333    0.0000 H   0  0  0  0  0  0  0  0  0  0  0  0
   -1.7884    1.3667    0.0000 C   0  0  0  0  0  0  0  0  0  0  0  0
   -1.7884    2.8667    0.0000 H   0  0  0  0  0  0  0  0  0  0  0  0
   -3.2884    1.3667    0.0000 H   0  0  0  0  0  0  0  0  0  0  0  0
   -0.2884    1.3667    0.0000 C   0  0  0  0  0  0  0  0  0  0  0  0
   -0.5208    2.8486    0.0000 H   0  0  0  0  0  0  0  0  0  0  0  0
    1.1416    1.8267    0.0000 N   0  0  0  0  0  0  0  0  0  0  0  0
    1.6069    3.2527    0.0000 S   0  0  0  0  0  0  0  0  0  0  0  0
    1.5564    4.7519    0.0000 O   0  0  0  0  0  0  0  0  0  0  0  0
    0.1218    3.4633    0.0000 O   0  0  0  0  0  0  0  0  0  0  0  0
    3.0745    3.5628    0.0000 C   0  0  0  0  0  0  0  0  0  0  0  0
    3.5396    4.9897    0.0000 C   0  0  0  0  0  0  0  0  0  0  0  0
    5.0072    5.2998    0.0000 C   0  0  0  0  0  0  0  0  0  0  0  0
    6.0097    4.1829    0.0000 C   0  0  0  0  0  0  0  0  0  0  0  0
    7.4773    4.4930    0.0000 H   0  0  0  0  0  0  0  0  0  0  0  0
    5.5446    2.7560    0.0000 C   0  0  0  0  0  0  0  0  0  0  0  0
    6.5471    1.6402    0.0000 H   0  0  0  0  0  0  0  0  0  0  0  0
    4.0770    2.4459    0.0000 C   0  0  0  0  0  0  0  0  0  0  0  0
    3.6115    1.0199    0.0000 H   0  0  0  0  0  0  0  0  0  0  0  0
    5.4723    6.7268    0.0000 C   0  0  0  0  0  0  0  0  0  0  0  0
    6.9399    7.0368    0.0000 H   0  0  0  0  0  0  0  0  0  0  0  0
    4.4698    7.8436    0.0000 N   0  0  0  0  0  0  0  0  0  0  0  0
    3.0021    7.5336    0.0000 C   0  0  0  0  0  0  0  0  0  0  0  0
    1.9996    8.6494    0.0000 H   0  0  0  0  0  0  0  0  0  0  0  0
    2.5371    6.1066    0.0000 C   0  0  0  0  0  0  0  0  0  0  0  0
    1.0695    5.7966    0.0000 F   0  0  0  0  0  0  0  0  0  0  0  0
  1  2  1  0  0  0  0 
  1  3  1  0  0  0  0 
  1  4  1  0  0  0  0 
  1  5  1  0  0  0  0 
  5  6  1  6  0  0  0 
  5  7  1  0  0  0  0 
  7  8  1  0  0  0  0 
  7  9  1  0  0  0  0 
  7 10  1  0  0  0  0 
 10 11  1  0  0  0  0 
 11 12  1  0  0  0  0 
 11 13  1  0  0  0  0 
 11 14  1  0  0  0  0 
 14 15  1  0  0  0  0 
 14 16  1  0  0  0  0 
 14 17  1  0  0  0  0 
 10 17  1  0  0  0  0 
 17 18  1  0  0  0  0 
 17 19  1  0  0  0  0 
  5 19  1  1  0  0  0 
 19 20  1  0  0  0  0 
 20 21  2  0  0  0  0 
 20 22  2  0  0  0  0 
 20 23  1  0  0  0  0 
 23 24  2  0  0  0  0 
 24 25  1  0  0  0  0 
 25 26  2  0  0  0  0 
 26 27  1  0  0  0  0 
 26 28  1  0  0  0  0 
 28 29  1  0  0  0  0 
 28 30  2  0  0  0  0 
 23 30  1  0  0  0  0 
 30 31  1  0  0  0  0 
 25 32  1  0  0  0  0 
 32 33  1  0  0  0  0 
 32 34  2  0  0  0  0 
 34 35  1  0  0  0  0 
 35 36  1  0  0  0  0 
 35 37  2  0  0  0  0 
 24 37  1  0  0  0  0 
 37 38  1  0  0  0  0 
M  END
> <Rank>
29

> <Priority_score>
0.068

> <Reaction_type>
cyclization to 5-membered NCN ring

> <Parent_ID>
54

> <Parent_InChI>
InChI=1S/C15H18FN3O2S/c1-11-8-17-6-3-7-19(11)22(20,21)14-5-2-4-12-9-18-10-13(16)15(12)14/h2,4-5,9-11,17H,3,6-8H2,1H3

> <Parent_SMILES>
C[C@H]1CNCCCN1S(=O)(=O)c1cccc2cncc(F)c12

$$$$
Molecule 54_metabolite 31
  CDK     0516241031

 38 40  0  0  0  0  0  0  0  0999 V2000
   -2.7933    4.9549    0.0000 C   0  0  0  0  0  0  0  0  0  0  0  0
   -1.6938    5.9752    0.0000 H   0  0  0  0  0  0  0  0  0  0  0  0
   -3.4777    3.6201    0.0000 H   0  0  0  0  0  0  0  0  0  0  0  0
   -1.5976    4.0492    0.0000 H   0  0  0  0  0  0  0  0  0  0  0  0
   -5.1440    5.6800    0.0000 C   0  0  1  0  0  0  0  0  0  0  0  0
   -4.3940    6.9791    0.0000 H   0  0  0  0  0  0  0  0  0  0  0  0
   -6.2436    6.7003    0.0000 C   0  0  0  0  0  0  0  0  0  0  0  0
   -5.0043    7.5453    0.0000 H   0  0  0  0  0  0  0  0  0  0  0  0
   -6.7916    8.0966    0.0000 H   0  0  0  0  0  0  0  0  0  0  0  0
   -7.7269    6.4767    0.0000 N   0  0  0  0  0  0  0  0  0  0  0  0
   -8.5718    7.7161    0.0000 H   0  0  0  0  0  0  0  0  0  0  0  0
   -8.4769    5.1777    0.0000 C   0  0  0  0  0  0  0  0  0  0  0  0
   -9.5764    6.1979    0.0000 H   0  0  0  0  0  0  0  0  0  0  0  0
   -9.7162    4.3327    0.0000 H   0  0  0  0  0  0  0  0  0  0  0  0
   -7.9289    3.7814    0.0000 C   0  0  0  0  0  0  0  0  0  0  0  0
   -8.9491    2.6818    0.0000 H   0  0  0  0  0  0  0  0  0  0  0  0
   -6.4955    3.3392    0.0000 C   0  0  0  0  0  0  0  0  0  0  0  0
   -6.2719    1.8560    0.0000 H   0  0  0  0  0  0  0  0  0  0  0  0
   -5.2561    4.1842    0.0000 N   0  0  0  0  0  0  0  0  0  0  0  0
   -3.0040    2.2944    0.0000 S   0  0  0  0  0  0  0  0  0  0  0  0
   -1.5944    1.7814    0.0000 O   0  0  0  0  0  0  0  0  0  0  0  0
   -0.7518    4.1842    0.0000 O   0  0  0  0  0  0  0  0  0  0  0  0
   -3.3478    0.3445    0.0000 C   0  0  0  0  0  0  0  0  0  0  0  0
   -2.1978   -0.6199    0.0000 C   0  0  0  0  0  0  0  0  0  0  0  0
   -2.4583   -2.0971    0.0000 C   0  0  0  0  0  0  0  0  0  0  0  0
   -3.8687   -2.6099    0.0000 C   0  0  0  0  0  0  0  0  0  0  0  0
   -4.1292   -4.0871    0.0000 H   0  0  0  0  0  0  0  0  0  0  0  0
   -5.0188   -1.6456    0.0000 C   0  0  0  0  0  0  0  0  0  0  0  0
   -6.4282   -2.1588    0.0000 H   0  0  0  0  0  0  0  0  0  0  0  0
   -4.7583   -0.1684    0.0000 C   0  0  0  0  0  0  0  0  0  0  0  0
   -5.9072    0.7960    0.0000 H   0  0  0  0  0  0  0  0  0  0  0  0
   -1.3082   -3.0614    0.0000 C   0  0  0  0  0  0  0  0  0  0  0  0
   -1.5687   -4.5386    0.0000 H   0  0  0  0  0  0  0  0  0  0  0  0
    0.1022   -2.5485    0.0000 N   0  0  0  0  0  0  0  0  0  0  0  0
    0.3627   -1.0713    0.0000 C   0  0  0  0  0  0  0  0  0  0  0  0
    1.7722   -0.5581    0.0000 H   0  0  0  0  0  0  0  0  0  0  0  0
   -0.7873   -0.1070    0.0000 C   0  0  0  0  0  0  0  0  0  0  0  0
   -0.5268    1.3702    0.0000 F   0  0  0  0  0  0  0  0  0  0  0  0
  1  2  1  0  0  0  0 
  1  3  1  0  0  0  0 
  1  4  1  0  0  0  0 
  5  1  1  6  0  0  0 
  5  6  1  1  0  0  0 
  5  7  1  0  0  0  0 
  7  8  1  0  0  0  0 
  7  9  1  0  0  0  0 
  7 10  1  0  0  0  0 
 10 11  1  0  0  0  0 
 10 12  1  0  0  0  0 
 12 13  1  0  0  0  0 
 12 14  1  0  0  0  0 
 12 15  1  0  0  0  0 
 15 16  1  0  0  0  0 
 15 17  2  0  0  0  0 
 17 18  1  0  0  0  0 
 17 19  1  0  0  0  0 
  5 19  1  0  0  0  0 
 19 20  1  0  0  0  0 
 20 21  2  0  0  0  0 
 20 22  2  0  0  0  0 
 20 23  1  0  0  0  0 
 23 24  2  0  0  0  0 
 24 25  1  0  0  0  0 
 25 26  2  0  0  0  0 
 26 27  1  0  0  0  0 
 26 28  1  0  0  0  0 
 28 29  1  0  0  0  0 
 28 30  2  0  0  0  0 
 23 30  1  0  0  0  0 
 30 31  1  0  0  0  0 
 25 32  1  0  0  0  0 
 32 33  1  0  0  0  0 
 32 34  2  0  0  0  0 
 34 35  1  0  0  0  0 
 35 36  1  0  0  0  0 
 35 37  2  0  0  0  0 
 24 37  1  0  0  0  0 
 37 38  1  0  0  0  0 
M  END
> <Rank>
29

> <Priority_score>
0.068

> <Reaction_type>
alkyl dehydrogenation

> <Parent_ID>
54

> <Parent_InChI>
InChI=1S/C15H18FN3O2S/c1-11-8-17-6-3-7-19(11)22(20,21)14-5-2-4-12-9-18-10-13(16)15(12)14/h2,4-5,9-11,17H,3,6-8H2,1H3

> <Parent_SMILES>
C[C@H]1CNCCCN1S(=O)(=O)c1cccc2cncc(F)c12

$$$$
Molecule 54_metabolite 32
  CDK     0516241031

 39 41  0  0  0  0  0  0  0  0999 V2000
   -1.8850    5.7637    0.0000 C   0  0  0  0  0  0  0  0  0  0  0  0
   -1.5512    4.3013    0.0000 H   0  0  0  0  0  0  0  0  0  0  0  0
   -1.6985    7.2520    0.0000 H   0  0  0  0  0  0  0  0  0  0  0  0
   -0.3868    5.8384    0.0000 H   0  0  0  0  0  0  0  0  0  0  0  0
   -3.3183    6.2058    0.0000 C   0  0  1  0  0  0  0  0  0  0  0  0
   -2.5683    7.5048    0.0000 H   0  0  0  0  0  0  0  0  0  0  0  0
   -4.4179    7.2261    0.0000 C   0  0  0  0  0  0  0  0  0  0  0  0
   -3.9758    8.6594    0.0000 H   0  0  0  0  0  0  0  0  0  0  0  0
   -5.9012    7.0025    0.0000 N   0  0  0  0  0  0  0  0  0  0  0  0
   -6.7461    8.2419    0.0000 H   0  0  0  0  0  0  0  0  0  0  0  0
   -6.6512    5.7035    0.0000 C   0  0  0  0  0  0  0  0  0  0  0  0
   -7.7507    6.7237    0.0000 H   0  0  0  0  0  0  0  0  0  0  0  0
   -7.8905    4.8585    0.0000 H   0  0  0  0  0  0  0  0  0  0  0  0
   -6.1031    4.3072    0.0000 C   0  0  0  0  0  0  0  0  0  0  0  0
   -7.5864    4.0836    0.0000 H   0  0  0  0  0  0  0  0  0  0  0  0
   -6.2152    2.8113    0.0000 H   0  0  0  0  0  0  0  0  0  0  0  0
   -4.6698    3.8650    0.0000 C   0  0  0  0  0  0  0  0  0  0  0  0
   -5.4198    2.5660    0.0000 H   0  0  0  0  0  0  0  0  0  0  0  0
   -3.5702    2.8448    0.0000 H   0  0  0  0  0  0  0  0  0  0  0  0
   -3.4304    4.7100    0.0000 N   0  0  0  0  0  0  0  0  0  0  0  0
   -1.3000    3.4800    0.0000 S   0  0  0  0  0  0  0  0  0  0  0  0
    0.1772    3.2195    0.0000 O   0  0  0  0  0  0  0  0  0  0  0  0
   -0.7870    4.8895    0.0000 O   0  0  0  0  0  0  0  0  0  0  0  0
   -1.3000    1.5000    0.0000 C   0  0  0  0  0  0  0  0  0  0  0  0
    0.0000    0.7500    0.0000 C   0  0  0  0  0  0  0  0  0  0  0  0
    0.0000   -0.7500    0.0000 C   0  0  0  0  0  0  0  0  0  0  0  0
   -1.3000   -1.5000    0.0000 C   0  0  0  0  0  0  0  0  0  0  0  0
   -1.3000   -3.0000    0.0000 H   0  0  0  0  0  0  0  0  0  0  0  0
   -2.6000   -0.7500    0.0000 C   0  0  0  0  0  0  0  0  0  0  0  0
   -3.8989   -1.5002    0.0000 H   0  0  0  0  0  0  0  0  0  0  0  0
   -2.6000    0.7500    0.0000 C   0  0  0  0  0  0  0  0  0  0  0  0
   -3.8989    1.5002    0.0000 H   0  0  0  0  0  0  0  0  0  0  0  0
    1.3000   -1.5000    0.0000 C   0  0  0  0  0  0  0  0  0  0  0  0
    1.3000   -3.0000    0.0000 H   0  0  0  0  0  0  0  0  0  0  0  0
    2.6000   -0.7500    0.0000 N   0  0  0  0  0  0  0  0  0  0  0  0
    2.6000    0.7500    0.0000 C   0  0  0  0  0  0  0  0  0  0  0  0
    3.8989    1.5002    0.0000 H   0  0  0  0  0  0  0  0  0  0  0  0
    1.3000    1.5000    0.0000 C   0  0  0  0  0  0  0  0  0  0  0  0
    1.3000    3.0000    0.0000 F   0  0  0  0  0  0  0  0  0  0  0  0
  1  2  1  0  0  0  0 
  1  3  1  0  0  0  0 
  1  4  1  0  0  0  0 
  1  5  1  0  0  0  0 
  5  6  1  1  0  0  0 
  5  7  1  6  0  0  0 
  7  8  1  0  0  0  0 
  7  9  2  0  0  0  0 
  9 10  1  0  0  0  0 
  9 11  1  0  0  0  0 
 11 12  1  0  0  0  0 
 11 13  1  0  0  0  0 
 11 14  1  0  0  0  0 
 14 15  1  0  0  0  0 
 14 16  1  0  0  0  0 
 14 17  1  0  0  0  0 
 17 18  1  0  0  0  0 
 17 19  1  0  0  0  0 
 17 20  1  0  0  0  0 
  5 20  1  0  0  0  0 
 20 21  1  0  0  0  0 
 21 22  2  0  0  0  0 
 21 23  2  0  0  0  0 
 21 24  1  0  0  0  0 
 24 25  2  0  0  0  0 
 25 26  1  0  0  0  0 
 26 27  2  0  0  0  0 
 27 28  1  0  0  0  0 
 27 29  1  0  0  0  0 
 29 30  1  0  0  0  0 
 29 31  2  0  0  0  0 
 24 31  1  0  0  0  0 
 31 32  1  0  0  0  0 
 26 33  1  0  0  0  0 
 33 34  1  0  0  0  0 
 33 35  2  0  0  0  0 
 35 36  1  0  0  0  0 
 36 37  1  0  0  0  0 
 36 38  2  0  0  0  0 
 25 38  1  0  0  0  0 
 38 39  1  0  0  0  0 
M  CHG  1   9   1
M  END
> <Rank>
32

> <Priority_score>
0.0608

> <Reaction_type>
dehydration of N-C bond

> <Parent_ID>
54

> <Parent_InChI>
InChI=1S/C15H18FN3O2S/c1-11-8-17-6-3-7-19(11)22(20,21)14-5-2-4-12-9-18-10-13(16)15(12)14/h2,4-5,9-11,17H,3,6-8H2,1H3

> <Parent_SMILES>
C[C@H]1CNCCCN1S(=O)(=O)c1cccc2cncc(F)c12

$$$$
Molecule 54_metabolite 33
  CDK     0516241031

 38 40  0  0  0  0  0  0  0  0999 V2000
   -1.8850    5.7637    0.0000 C   0  0  0  0  0  0  0  0  0  0  0  0
   -1.5512    4.3013    0.0000 H   0  0  0  0  0  0  0  0  0  0  0  0
   -1.6985    7.2520    0.0000 H   0  0  0  0  0  0  0  0  0  0  0  0
   -0.3868    5.8384    0.0000 H   0  0  0  0  0  0  0  0  0  0  0  0
   -3.3183    6.2058    0.0000 C   0  0  1  0  0  0  0  0  0  0  0  0
   -2.5683    7.5048    0.0000 H   0  0  0  0  0  0  0  0  0  0  0  0
   -4.4179    7.2261    0.0000 C   0  0  0  0  0  0  0  0  0  0  0  0
   -3.9758    8.6594    0.0000 H   0  0  0  0  0  0  0  0  0  0  0  0
   -5.9012    7.0025    0.0000 N   0  0  0  0  0  0  0  0  0  0  0  0
   -6.6512    5.7035    0.0000 C   0  0  0  0  0  0  0  0  0  0  0  0
   -7.7507    6.7237    0.0000 H   0  0  0  0  0  0  0  0  0  0  0  0
   -7.8905    4.8585    0.0000 H   0  0  0  0  0  0  0  0  0  0  0  0
   -6.1031    4.3072    0.0000 C   0  0  0  0  0  0  0  0  0  0  0  0
   -7.5864    4.0836    0.0000 H   0  0  0  0  0  0  0  0  0  0  0  0
   -6.2152    2.8113    0.0000 H   0  0  0  0  0  0  0  0  0  0  0  0
   -4.6698    3.8650    0.0000 C   0  0  0  0  0  0  0  0  0  0  0  0
   -5.4198    2.5660    0.0000 H   0  0  0  0  0  0  0  0  0  0  0  0
   -3.5702    2.8448    0.0000 H   0  0  0  0  0  0  0  0  0  0  0  0
   -3.4304    4.7100    0.0000 N   0  0  0  0  0  0  0  0  0  0  0  0
   -1.3000    3.4800    0.0000 S   0  0  0  0  0  0  0  0  0  0  0  0
    0.1772    3.2195    0.0000 O   0  0  0  0  0  0  0  0  0  0  0  0
   -0.7870    4.8895    0.0000 O   0  0  0  0  0  0  0  0  0  0  0  0
   -1.3000    1.5000    0.0000 C   0  0  0  0  0  0  0  0  0  0  0  0
    0.0000    0.7500    0.0000 C   0  0  0  0  0  0  0  0  0  0  0  0
    0.0000   -0.7500    0.0000 C   0  0  0  0  0  0  0  0  0  0  0  0
   -1.3000   -1.5000    0.0000 C   0  0  0  0  0  0  0  0  0  0  0  0
   -1.3000   -3.0000    0.0000 H   0  0  0  0  0  0  0  0  0  0  0  0
   -2.6000   -0.7500    0.0000 C   0  0  0  0  0  0  0  0  0  0  0  0
   -3.8989   -1.5002    0.0000 H   0  0  0  0  0  0  0  0  0  0  0  0
   -2.6000    0.7500    0.0000 C   0  0  0  0  0  0  0  0  0  0  0  0
   -3.8989    1.5002    0.0000 H   0  0  0  0  0  0  0  0  0  0  0  0
    1.3000   -1.5000    0.0000 C   0  0  0  0  0  0  0  0  0  0  0  0
    1.3000   -3.0000    0.0000 H   0  0  0  0  0  0  0  0  0  0  0  0
    2.6000   -0.7500    0.0000 N   0  0  0  0  0  0  0  0  0  0  0  0
    2.6000    0.7500    0.0000 C   0  0  0  0  0  0  0  0  0  0  0  0
    3.8989    1.5002    0.0000 H   0  0  0  0  0  0  0  0  0  0  0  0
    1.3000    1.5000    0.0000 C   0  0  0  0  0  0  0  0  0  0  0  0
    1.3000    3.0000    0.0000 F   0  0  0  0  0  0  0  0  0  0  0  0
  1  2  1  0  0  0  0 
  1  3  1  0  0  0  0 
  1  4  1  0  0  0  0 
  1  5  1  0  0  0  0 
  5  6  1  1  0  0  0 
  5  7  1  6  0  0  0 
  7  8  1  0  0  0  0 
  7  9  2  0  0  0  0 
  9 10  1  0  0  0  0 
 10 11  1  0  0  0  0 
 10 12  1  0  0  0  0 
 10 13  1  0  0  0  0 
 13 14  1  0  0  0  0 
 13 15  1  0  0  0  0 
 13 16  1  0  0  0  0 
 16 17  1  0  0  0  0 
 16 18  1  0  0  0  0 
 16 19  1  0  0  0  0 
  5 19  1  0  0  0  0 
 19 20  1  0  0  0  0 
 20 21  2  0  0  0  0 
 20 22  2  0  0  0  0 
 20 23  1  0  0  0  0 
 23 24  2  0  0  0  0 
 24 25  1  0  0  0  0 
 25 26  2  0  0  0  0 
 26 27  1  0  0  0  0 
 26 28  1  0  0  0  0 
 28 29  1  0  0  0  0 
 28 30  2  0  0  0  0 
 23 30  1  0  0  0  0 
 30 31  1  0  0  0  0 
 25 32  1  0  0  0  0 
 32 33  1  0  0  0  0 
 32 34  2  0  0  0  0 
 34 35  1  0  0  0  0 
 35 36  1  0  0  0  0 
 35 37  2  0  0  0  0 
 24 37  1  0  0  0  0 
 37 38  1  0  0  0  0 
M  END
> <Rank>
32

> <Priority_score>
0.0608

> <Reaction_type>
dehydration of N-C bond

> <Parent_ID>
54

> <Parent_InChI>
InChI=1S/C15H18FN3O2S/c1-11-8-17-6-3-7-19(11)22(20,21)14-5-2-4-12-9-18-10-13(16)15(12)14/h2,4-5,9-11,17H,3,6-8H2,1H3

> <Parent_SMILES>
C[C@H]1CNCCCN1S(=O)(=O)c1cccc2cncc(F)c12

$$$$
Molecule 54_metabolite 34
  CDK     0516241031

 38 40  0  0  0  0  0  0  0  0999 V2000
   -1.0906    6.2738    0.0000 C   0  0  0  0  0  0  0  0  0  0  0  0
    0.0821    5.3386    0.0000 H   0  0  0  0  0  0  0  0  0  0  0  0
   -1.8728    7.5538    0.0000 H   0  0  0  0  0  0  0  0  0  0  0  0
    0.0340    7.2663    0.0000 H   0  0  0  0  0  0  0  0  0  0  0  0
   -2.4869    5.7258    0.0000 C   0  0  0  0  0  0  0  0  0  0  0  0
   -3.5865    6.7461    0.0000 C   0  0  0  0  0  0  0  0  0  0  0  0
   -3.1444    8.1794    0.0000 H   0  0  0  0  0  0  0  0  0  0  0  0
   -5.0698    6.5225    0.0000 N   0  0  0  0  0  0  0  0  0  0  0  0
   -5.9147    7.7619    0.0000 H   0  0  0  0  0  0  0  0  0  0  0  0
   -5.8198    5.2235    0.0000 C   0  0  0  0  0  0  0  0  0  0  0  0
   -6.9193    6.2437    0.0000 H   0  0  0  0  0  0  0  0  0  0  0  0
   -7.0591    4.3785    0.0000 H   0  0  0  0  0  0  0  0  0  0  0  0
   -5.2718    3.8272    0.0000 C   0  0  0  0  0  0  0  0  0  0  0  0
   -6.7550    3.6036    0.0000 H   0  0  0  0  0  0  0  0  0  0  0  0
   -5.3839    2.3313    0.0000 H   0  0  0  0  0  0  0  0  0  0  0  0
   -3.8384    3.3850    0.0000 C   0  0  0  0  0  0  0  0  0  0  0  0
   -4.5884    2.0860    0.0000 H   0  0  0  0  0  0  0  0  0  0  0  0
   -2.7388    2.3648    0.0000 H   0  0  0  0  0  0  0  0  0  0  0  0
   -2.5990    4.2300    0.0000 N   0  0  0  0  0  0  0  0  0  0  0  0
   -1.3000    3.4800    0.0000 S   0  0  0  0  0  0  0  0  0  0  0  0
    0.1772    3.2195    0.0000 O   0  0  0  0  0  0  0  0  0  0  0  0
   -0.7870    4.8895    0.0000 O   0  0  0  0  0  0  0  0  0  0  0  0
   -1.3000    1.5000    0.0000 C   0  0  0  0  0  0  0  0  0  0  0  0
    0.0000    0.7500    0.0000 C   0  0  0  0  0  0  0  0  0  0  0  0
    0.0000   -0.7500    0.0000 C   0  0  0  0  0  0  0  0  0  0  0  0
   -1.3000   -1.5000    0.0000 C   0  0  0  0  0  0  0  0  0  0  0  0
   -1.3000   -3.0000    0.0000 H   0  0  0  0  0  0  0  0  0  0  0  0
   -2.6000   -0.7500    0.0000 C   0  0  0  0  0  0  0  0  0  0  0  0
   -3.8989   -1.5002    0.0000 H   0  0  0  0  0  0  0  0  0  0  0  0
   -2.6000    0.7500    0.0000 C   0  0  0  0  0  0  0  0  0  0  0  0
   -3.8989    1.5002    0.0000 H   0  0  0  0  0  0  0  0  0  0  0  0
    1.3000   -1.5000    0.0000 C   0  0  0  0  0  0  0  0  0  0  0  0
    1.3000   -3.0000    0.0000 H   0  0  0  0  0  0  0  0  0  0  0  0
    2.6000   -0.7500    0.0000 N   0  0  0  0  0  0  0  0  0  0  0  0
    2.6000    0.7500    0.0000 C   0  0  0  0  0  0  0  0  0  0  0  0
    3.8989    1.5002    0.0000 H   0  0  0  0  0  0  0  0  0  0  0  0
    1.3000    1.5000    0.0000 C   0  0  0  0  0  0  0  0  0  0  0  0
    1.3000    3.0000    0.0000 F   0  0  0  0  0  0  0  0  0  0  0  0
  1  2  1  0  0  0  0 
  1  3  1  0  0  0  0 
  1  4  1  0  0  0  0 
  1  5  1  0  0  0  0 
  5  6  2  0  0  0  0 
  6  7  1  0  0  0  0 
  6  8  1  0  0  0  0 
  8  9  1  0  0  0  0 
  8 10  1  0  0  0  0 
 10 11  1  0  0  0  0 
 10 12  1  0  0  0  0 
 10 13  1  0  0  0  0 
 13 14  1  0  0  0  0 
 13 15  1  0  0  0  0 
 13 16  1  0  0  0  0 
 16 17  1  0  0  0  0 
 16 18  1  0  0  0  0 
 16 19  1  0  0  0  0 
  5 19  1  0  0  0  0 
 19 20  1  0  0  0  0 
 20 21  2  0  0  0  0 
 20 22  2  0  0  0  0 
 20 23  1  0  0  0  0 
 23 24  2  0  0  0  0 
 24 25  1  0  0  0  0 
 25 26  2  0  0  0  0 
 26 27  1  0  0  0  0 
 26 28  1  0  0  0  0 
 28 29  1  0  0  0  0 
 28 30  2  0  0  0  0 
 23 30  1  0  0  0  0 
 30 31  1  0  0  0  0 
 25 32  1  0  0  0  0 
 32 33  1  0  0  0  0 
 32 34  2  0  0  0  0 
 34 35  1  0  0  0  0 
 35 36  1  0  0  0  0 
 35 37  2  0  0  0  0 
 24 37  1  0  0  0  0 
 37 38  1  0  0  0  0 
M  END
> <Rank>
34

> <Priority_score>
0.046400000000000004

> <Reaction_type>
alkyl dehydrogenation

> <Parent_ID>
54

> <Parent_InChI>
InChI=1S/C15H18FN3O2S/c1-11-8-17-6-3-7-19(11)22(20,21)14-5-2-4-12-9-18-10-13(16)15(12)14/h2,4-5,9-11,17H,3,6-8H2,1H3

> <Parent_SMILES>
C[C@H]1CNCCCN1S(=O)(=O)c1cccc2cncc(F)c12

$$$$
Molecule 54_metabolite 35
  CDK     0516241031

 38 40  0  0  0  0  0  0  0  0999 V2000
   -1.0906    6.2738    0.0000 C   0  0  0  0  0  0  0  0  0  0  0  0
   -0.8671    7.7571    0.0000 H   0  0  0  0  0  0  0  0  0  0  0  0
    0.0821    5.3386    0.0000 H   0  0  0  0  0  0  0  0  0  0  0  0
   -2.4869    5.7258    0.0000 C   0  0  0  0  0  0  0  0  0  0  0  0
   -3.5865    6.7461    0.0000 C   0  0  0  0  0  0  0  0  0  0  0  0
   -2.3472    7.5910    0.0000 H   0  0  0  0  0  0  0  0  0  0  0  0
   -4.1345    8.1424    0.0000 H   0  0  0  0  0  0  0  0  0  0  0  0
   -5.0698    6.5225    0.0000 N   0  0  0  0  0  0  0  0  0  0  0  0
   -5.9147    7.7619    0.0000 H   0  0  0  0  0  0  0  0  0  0  0  0
   -5.8198    5.2235    0.0000 C   0  0  0  0  0  0  0  0  0  0  0  0
   -6.9193    6.2437    0.0000 H   0  0  0  0  0  0  0  0  0  0  0  0
   -7.0591    4.3785    0.0000 H   0  0  0  0  0  0  0  0  0  0  0  0
   -5.2718    3.8272    0.0000 C   0  0  0  0  0  0  0  0  0  0  0  0
   -6.7550    3.6036    0.0000 H   0  0  0  0  0  0  0  0  0  0  0  0
   -5.3839    2.3313    0.0000 H   0  0  0  0  0  0  0  0  0  0  0  0
   -3.8384    3.3850    0.0000 C   0  0  0  0  0  0  0  0  0  0  0  0
   -4.5884    2.0860    0.0000 H   0  0  0  0  0  0  0  0  0  0  0  0
   -2.7388    2.3648    0.0000 H   0  0  0  0  0  0  0  0  0  0  0  0
   -2.5990    4.2300    0.0000 N   0  0  0  0  0  0  0  0  0  0  0  0
   -1.3000    3.4800    0.0000 S   0  0  0  0  0  0  0  0  0  0  0  0
    0.1772    3.2195    0.0000 O   0  0  0  0  0  0  0  0  0  0  0  0
   -0.7870    4.8895    0.0000 O   0  0  0  0  0  0  0  0  0  0  0  0
   -1.3000    1.5000    0.0000 C   0  0  0  0  0  0  0  0  0  0  0  0
    0.0000    0.7500    0.0000 C   0  0  0  0  0  0  0  0  0  0  0  0
    0.0000   -0.7500    0.0000 C   0  0  0  0  0  0  0  0  0  0  0  0
   -1.3000   -1.5000    0.0000 C   0  0  0  0  0  0  0  0  0  0  0  0
   -1.3000   -3.0000    0.0000 H   0  0  0  0  0  0  0  0  0  0  0  0
   -2.6000   -0.7500    0.0000 C   0  0  0  0  0  0  0  0  0  0  0  0
   -3.8989   -1.5002    0.0000 H   0  0  0  0  0  0  0  0  0  0  0  0
   -2.6000    0.7500    0.0000 C   0  0  0  0  0  0  0  0  0  0  0  0
   -3.8989    1.5002    0.0000 H   0  0  0  0  0  0  0  0  0  0  0  0
    1.3000   -1.5000    0.0000 C   0  0  0  0  0  0  0  0  0  0  0  0
    1.3000   -3.0000    0.0000 H   0  0  0  0  0  0  0  0  0  0  0  0
    2.6000   -0.7500    0.0000 N   0  0  0  0  0  0  0  0  0  0  0  0
    2.6000    0.7500    0.0000 C   0  0  0  0  0  0  0  0  0  0  0  0
    3.8989    1.5002    0.0000 H   0  0  0  0  0  0  0  0  0  0  0  0
    1.3000    1.5000    0.0000 C   0  0  0  0  0  0  0  0  0  0  0  0
    1.3000    3.0000    0.0000 F   0  0  0  0  0  0  0  0  0  0  0  0
  1  2  1  0  0  0  0 
  1  3  1  0  0  0  0 
  1  4  2  0  0  0  0 
  4  5  1  0  0  0  0 
  5  6  1  0  0  0  0 
  5  7  1  0  0  0  0 
  5  8  1  0  0  0  0 
  8  9  1  0  0  0  0 
  8 10  1  0  0  0  0 
 10 11  1  0  0  0  0 
 10 12  1  0  0  0  0 
 10 13  1  0  0  0  0 
 13 14  1  0  0  0  0 
 13 15  1  0  0  0  0 
 13 16  1  0  0  0  0 
 16 17  1  0  0  0  0 
 16 18  1  0  0  0  0 
 16 19  1  0  0  0  0 
  4 19  1  0  0  0  0 
 19 20  1  0  0  0  0 
 20 21  2  0  0  0  0 
 20 22  2  0  0  0  0 
 20 23  1  0  0  0  0 
 23 24  2  0  0  0  0 
 24 25  1  0  0  0  0 
 25 26  2  0  0  0  0 
 26 27  1  0  0  0  0 
 26 28  1  0  0  0  0 
 28 29  1  0  0  0  0 
 28 30  2  0  0  0  0 
 23 30  1  0  0  0  0 
 30 31  1  0  0  0  0 
 25 32  1  0  0  0  0 
 32 33  1  0  0  0  0 
 32 34  2  0  0  0  0 
 34 35  1  0  0  0  0 
 35 36  1  0  0  0  0 
 35 37  2  0  0  0  0 
 24 37  1  0  0  0  0 
 37 38  1  0  0  0  0 
M  END
> <Rank>
35

> <Priority_score>
0.0432

> <Reaction_type>
alkyl dehydrogenation

> <Parent_ID>
54

> <Parent_InChI>
InChI=1S/C15H18FN3O2S/c1-11-8-17-6-3-7-19(11)22(20,21)14-5-2-4-12-9-18-10-13(16)15(12)14/h2,4-5,9-11,17H,3,6-8H2,1H3

> <Parent_SMILES>
C[C@H]1CNCCCN1S(=O)(=O)c1cccc2cncc(F)c12

$$$$
Molecule 54_metabolite 36
  CDK     0516241031

 39 41  0  0  0  0  0  0  0  0999 V2000
   -5.5294    1.6349    0.0000 C   0  0  0  0  0  0  0  0  0  0  0  0
   -6.7021    0.6996    0.0000 H   0  0  0  0  0  0  0  0  0  0  0  0
   -4.3529   -0.5256    0.0000 H   0  0  0  0  0  0  0  0  0  0  0  0
   -4.1075    2.1126    0.0000 H   0  0  0  0  0  0  0  0  0  0  0  0
   -5.7529    3.1181    0.0000 C   0  0  0  0  0  0  0  0  0  0  0  0
   -4.5136    3.9631    0.0000 N   0  0  0  0  0  0  0  0  0  0  0  0
   -4.4015    5.4589    0.0000 C   0  0  0  0  0  0  0  0  0  0  0  0
   -2.9681    5.0168    0.0000 H   0  0  0  0  0  0  0  0  0  0  0  0
   -3.6515    6.7579    0.0000 H   0  0  0  0  0  0  0  0  0  0  0  0
   -5.5010    6.4792    0.0000 C   0  0  0  0  0  0  0  0  0  0  0  0
   -4.2617    7.3241    0.0000 H   0  0  0  0  0  0  0  0  0  0  0  0
   -6.0491    7.8755    0.0000 H   0  0  0  0  0  0  0  0  0  0  0  0
   -6.9843    6.2556    0.0000 C   0  0  0  0  0  0  0  0  0  0  0  0
   -6.8722    7.7514    0.0000 H   0  0  0  0  0  0  0  0  0  0  0  0
   -8.4177    6.6977    0.0000 H   0  0  0  0  0  0  0  0  0  0  0  0
   -7.7343    4.9566    0.0000 N   0  0  0  0  0  0  0  0  0  0  0  0
   -9.2301    5.0687    0.0000 H   0  0  0  0  0  0  0  0  0  0  0  0
   -7.1863    3.5602    0.0000 C   0  0  0  0  0  0  0  0  0  0  0  0
   -8.6695    3.3367    0.0000 H   0  0  0  0  0  0  0  0  0  0  0  0
   -7.2984    2.0644    0.0000 H   0  0  0  0  0  0  0  0  0  0  0  0
   -2.6291    2.3818    0.0000 S   0  0  0  0  0  0  0  0  0  0  0  0
   -1.8791    1.0828    0.0000 O   0  0  0  0  0  0  0  0  0  0  0  0
   -4.8813    0.4920    0.0000 O   0  0  0  0  0  0  0  0  0  0  0  0
   -1.2196    2.8949    0.0000 C   0  0  0  0  0  0  0  0  0  0  0  0
   -0.0702    1.9298    0.0000 C   0  0  0  0  0  0  0  0  0  0  0  0
    1.3394    2.4428    0.0000 C   0  0  0  0  0  0  0  0  0  0  0  0
    1.5995    3.9209    0.0000 C   0  0  0  0  0  0  0  0  0  0  0  0
    3.0091    4.4340    0.0000 H   0  0  0  0  0  0  0  0  0  0  0  0
    0.4501    4.8860    0.0000 C   0  0  0  0  0  0  0  0  0  0  0  0
    0.7108    6.3632    0.0000 H   0  0  0  0  0  0  0  0  0  0  0  0
   -0.9594    4.3730    0.0000 C   0  0  0  0  0  0  0  0  0  0  0  0
   -2.1086    5.3370    0.0000 H   0  0  0  0  0  0  0  0  0  0  0  0
    2.4888    1.4777    0.0000 C   0  0  0  0  0  0  0  0  0  0  0  0
    3.8983    1.9908    0.0000 H   0  0  0  0  0  0  0  0  0  0  0  0
    2.2286   -0.0004    0.0000 N   0  0  0  0  0  0  0  0  0  0  0  0
    0.8191   -0.5134    0.0000 C   0  0  0  0  0  0  0  0  0  0  0  0
    0.5584   -1.9906    0.0000 H   0  0  0  0  0  0  0  0  0  0  0  0
   -0.3303    0.4517    0.0000 C   0  0  0  0  0  0  0  0  0  0  0  0
   -1.7398   -0.0614    0.0000 F   0  0  0  0  0  0  0  0  0  0  0  0
  1  2  1  0  0  0  0 
  1  3  1  0  0  0  0 
  1  4  1  0  0  0  0 
  1  5  1  0  0  0  0 
  5  6  2  0  0  0  0 
  6  7  1  0  0  0  0 
  7  8  1  0  0  0  0 
  7  9  1  0  0  0  0 
  7 10  1  0  0  0  0 
 10 11  1  0  0  0  0 
 10 12  1  0  0  0  0 
 10 13  1  0  0  0  0 
 13 14  1  0  0  0  0 
 13 15  1  0  0  0  0 
 13 16  1  0  0  0  0 
 16 17  1  0  0  0  0 
 16 18  1  0  0  0  0 
  5 18  1  0  0  0  0 
 18 19  1  0  0  0  0 
 18 20  1  0  0  0  0 
  6 21  1  0  0  0  0 
 21 22  2  0  0  0  0 
 21 23  2  0  0  0  0 
 21 24  1  0  0  0  0 
 24 25  2  0  0  0  0 
 25 26  1  0  0  0  0 
 26 27  2  0  0  0  0 
 27 28  1  0  0  0  0 
 27 29  1  0  0  0  0 
 29 30  1  0  0  0  0 
 29 31  2  0  0  0  0 
 24 31  1  0  0  0  0 
 31 32  1  0  0  0  0 
 26 33  1  0  0  0  0 
 33 34  1  0  0  0  0 
 33 35  2  0  0  0  0 
 35 36  1  0  0  0  0 
 36 37  1  0  0  0  0 
 36 38  2  0  0  0  0 
 25 38  1  0  0  0  0 
 38 39  1  0  0  0  0 
M  CHG  1   6   1
M  END
> <Rank>
36

> <Priority_score>
0.032711527208894094

> <Reaction_type>
dehydration of N-C bond

> <Parent_ID>
54

> <Parent_InChI>
InChI=1S/C15H18FN3O2S/c1-11-8-17-6-3-7-19(11)22(20,21)14-5-2-4-12-9-18-10-13(16)15(12)14/h2,4-5,9-11,17H,3,6-8H2,1H3

> <Parent_SMILES>
C[C@H]1CNCCCN1S(=O)(=O)c1cccc2cncc(F)c12

$$$$
Molecule 55
  CDK     0516241031

 26 29  0  0  0  0  0  0  0  0999 V2000
   -3.8989    0.7502    0.0000 C   0  0  0  0  0  0  0  0  0  0  0  0
   -2.6000    0.0000    0.0000 C   0  0  1  0  0  0  0  0  0  0  0  0
   -2.6000   -1.5000    0.0000 C   0  0  0  0  0  0  0  0  0  0  0  0
   -1.3000   -2.2500    0.0000 O   0  0  0  0  0  0  0  0  0  0  0  0
   -0.0000   -1.5000    0.0000 C   0  0  0  0  0  0  0  0  0  0  0  0
    1.3000   -2.2500    0.0000 C   0  0  0  0  0  0  0  0  0  0  0  0
    2.6000   -1.5000    0.0000 C   0  0  0  0  0  0  0  0  0  0  0  0
    2.6000    0.0000    0.0000 C   0  0  0  0  0  0  0  0  0  0  0  0
    1.3000    0.7500    0.0000 C   0  0  0  0  0  0  0  0  0  0  0  0
   -0.0000    0.0000    0.0000 C   0  0  0  0  0  0  0  0  0  0  0  0
   -1.3000    0.7500    0.0000 N   0  0  0  0  0  0  0  0  0  0  0  0
   -1.3000    2.2500    0.0000 C   0  0  0  0  0  0  0  0  0  0  0  0
   -0.0000    3.0000    0.0000 C   0  0  0  0  0  0  0  0  0  0  0  0
    1.3000    2.2500    0.0000 C   0  0  0  0  0  0  0  0  0  0  0  0
    2.5989    3.0002    0.0000 O   0  0  0  0  0  0  0  0  0  0  0  0
    0.0000    4.5000    0.0000 C   0  0  0  0  0  0  0  0  0  0  0  0
    1.2990    5.2500    0.0000 O   0  0  0  0  0  0  0  0  0  0  0  0
   -1.2990    5.2500    0.0000 O   0  0  0  0  0  0  0  0  0  0  0  0
    3.8989   -2.2502    0.0000 F   0  0  0  0  0  0  0  0  0  0  0  0
    1.3000   -3.7500    0.0000 N   0  0  0  0  0  0  0  0  0  0  0  0
    0.0004   -4.5006    0.0000 C   0  0  0  0  0  0  0  0  0  0  0  0
   -0.0004   -6.0015    0.0000 C   0  0  0  0  0  0  0  0  0  0  0  0
    1.2986   -6.7517    0.0000 N   0  0  0  0  0  0  0  0  0  0  0  0
    1.2986   -8.2517    0.0000 C   0  0  0  0  0  0  0  0  0  0  0  0
    2.5982   -6.0010    0.0000 C   0  0  0  0  0  0  0  0  0  0  0  0
    2.5989   -4.5002    0.0000 C   0  0  0  0  0  0  0  0  0  0  0  0
  2  1  1  6  0  0  0 
  2  3  1  0  0  0  0 
  3  4  1  0  0  0  0 
  4  5  1  0  0  0  0 
  5  6  2  0  0  0  0 
  6  7  1  0  0  0  0 
  7  8  2  0  0  0  0 
  8  9  1  0  0  0  0 
  9 10  2  0  0  0  0 
  5 10  1  0  0  0  0 
 10 11  1  0  0  0  0 
  2 11  1  0  0  0  0 
 11 12  1  0  0  0  0 
 12 13  2  0  0  0  0 
 13 14  1  0  0  0  0 
  9 14  1  0  0  0  0 
 14 15  2  0  0  0  0 
 13 16  1  0  0  0  0 
 16 17  2  0  0  0  0 
 16 18  1  0  0  0  0 
  7 19  1  0  0  0  0 
  6 20  1  0  0  0  0 
 20 21  1  0  0  0  0 
 21 22  1  0  0  0  0 
 22 23  1  0  0  0  0 
 23 24  1  0  0  0  0 
 23 25  1  0  0  0  0 
 25 26  1  0  0  0  0 
 20 26  1  0  0  0  0 
M  END
> <SMILES>
C[C@H]1COc2c(N3CCN(C)CC3)c(F)cc3c(=O)c(C(=O)O)cn1c23

$$$$
Molecule 55_metabolite 1
  CDK     0516241031

 66 70  0  0  0  0  0  0  0  0999 V2000
    5.0426    0.9581    0.0000 C   0  0  0  0  0  0  0  0  0  0  0  0
    4.0782    2.1069    0.0000 H   0  0  0  0  0  0  0  0  0  0  0  0
    6.3418    0.2083    0.0000 H   0  0  0  0  0  0  0  0  0  0  0  0
    6.0065    2.1073    0.0000 H   0  0  0  0  0  0  0  0  0  0  0  0
    4.5299   -0.4516    0.0000 C   0  0  1  0  0  0  0  0  0  0  0  0
    6.0071   -0.7119    0.0000 H   0  0  0  0  0  0  0  0  0  0  0  0
    4.5299   -1.9516    0.0000 C   0  0  0  0  0  0  0  0  0  0  0  0
    6.0071   -1.6913    0.0000 H   0  0  0  0  0  0  0  0  0  0  0  0
    5.0426   -3.3612    0.0000 H   0  0  0  0  0  0  0  0  0  0  0  0
    3.2299   -2.7016    0.0000 O   0  0  0  0  0  0  0  0  0  0  0  0
    1.9299   -1.9516    0.0000 C   0  0  0  0  0  0  0  0  0  0  0  0
    0.6299   -2.7016    0.0000 C   0  0  0  0  0  0  0  0  0  0  0  0
   -0.6701   -1.9516    0.0000 C   0  0  0  0  0  0  0  0  0  0  0  0
   -0.6701   -0.4516    0.0000 C   0  0  0  0  0  0  0  0  0  0  0  0
   -1.9691    0.2986    0.0000 H   0  0  0  0  0  0  0  0  0  0  0  0
    0.6299    0.2984    0.0000 C   0  0  0  0  0  0  0  0  0  0  0  0
    1.9299   -0.4516    0.0000 C   0  0  0  0  0  0  0  0  0  0  0  0
    3.2299    0.2984    0.0000 N   0  0  0  0  0  0  0  0  0  0  0  0
    3.2299    1.7984    0.0000 C   0  0  0  0  0  0  0  0  0  0  0  0
    5.3601    3.0288    0.0000 H   0  0  0  0  0  0  0  0  0  0  0  0
    1.9299    2.5484    0.0000 C   0  0  0  0  0  0  0  0  0  0  0  0
    0.6299    1.7984    0.0000 C   0  0  0  0  0  0  0  0  0  0  0  0
   -0.6691    2.5486    0.0000 O   0  0  0  0  0  0  0  0  0  0  0  0
    1.9299    4.0484    0.0000 C   0  0  0  0  0  0  0  0  0  0  0  0
    3.2289    4.7984    0.0000 O   0  0  0  0  0  0  0  0  0  0  0  0
    0.6308    4.7984    0.0000 O   0  0  0  0  0  0  0  0  0  0  0  0
    0.6308    6.2984    0.0000 C   0  0  0  0  0  0  0  0  0  0  0  0
    2.1086    6.0413    0.0000 H   0  0  0  0  0  0  0  0  0  0  0  0
   -0.8371    6.0431    0.0000 C   0  0  0  0  0  0  0  0  0  0  0  0
   -2.1385    5.2971    0.0000 H   0  0  0  0  0  0  0  0  0  0  0  0
   -1.8121    7.2133    0.0000 C   0  0  0  0  0  0  0  0  0  0  0  0
   -3.1064    7.9715    0.0000 H   0  0  0  0  0  0  0  0  0  0  0  0
   -1.2862    8.6243    0.0000 C   0  0  0  0  0  0  0  0  0  0  0  0
   -1.2800   10.1243    0.0000 H   0  0  0  0  0  0  0  0  0  0  0  0
    0.1818    8.8797    0.0000 C   0  0  0  0  0  0  0  0  0  0  0  0
    1.4827    9.6264    0.0000 H   0  0  0  0  0  0  0  0  0  0  0  0
   -0.4909   10.7419    0.0000 C   0  0  0  0  0  0  0  0  0  0  0  0
   -1.9675   11.0059    0.0000 O   0  0  0  0  0  0  0  0  0  0  0  0
    0.4760   11.8886    0.0000 O   0  0  0  0  0  0  0  0  0  0  0  0
   -0.0336   13.2994    0.0000 H   0  0  0  0  0  0  0  0  0  0  0  0
    1.1435    7.7274    0.0000 O   0  0  0  0  0  0  0  0  0  0  0  0
   -2.7618    8.8935    0.0000 O   0  0  0  0  0  0  0  0  0  0  0  0
   -3.2665   10.3061    0.0000 H   0  0  0  0  0  0  0  0  0  0  0  0
   -2.7819    6.0690    0.0000 O   0  0  0  0  0  0  0  0  0  0  0  0
   -4.2578    6.3367    0.0000 H   0  0  0  0  0  0  0  0  0  0  0  0
   -0.3279    4.6321    0.0000 O   0  0  0  0  0  0  0  0  0  0  0  0
   -1.2952    3.4857    0.0000 H   0  0  0  0  0  0  0  0  0  0  0  0
   -1.9691   -2.7018    0.0000 F   0  0  0  0  0  0  0  0  0  0  0  0
    0.6299   -4.2016    0.0000 N   0  0  0  0  0  0  0  0  0  0  0  0
    1.9295   -4.9522    0.0000 C   0  0  0  0  0  0  0  0  0  0  0  0
    2.4424   -3.5426    0.0000 H   0  0  0  0  0  0  0  0  0  0  0  0
    3.4068   -5.2123    0.0000 H   0  0  0  0  0  0  0  0  0  0  0  0
    1.9302   -6.4530    0.0000 C   0  0  0  0  0  0  0  0  0  0  0  0
    3.4073   -6.1920    0.0000 H   0  0  0  0  0  0  0  0  0  0  0  0
    2.4436   -7.8624    0.0000 H   0  0  0  0  0  0  0  0  0  0  0  0
    0.6313   -7.2032    0.0000 N   0  0  0  0  0  0  0  0  0  0  0  0
    0.6313   -9.1832    0.0000 C   0  0  0  0  0  0  0  0  0  0  0  0
   -0.6677   -9.9332    0.0000 H   0  0  0  0  0  0  0  0  0  0  0  0
    2.1085   -8.9228    0.0000 H   0  0  0  0  0  0  0  0  0  0  0  0
    1.1443  -10.5928    0.0000 H   0  0  0  0  0  0  0  0  0  0  0  0
   -0.6683   -6.4526    0.0000 C   0  0  0  0  0  0  0  0  0  0  0  0
   -1.1813   -7.8622    0.0000 H   0  0  0  0  0  0  0  0  0  0  0  0
   -2.1456   -6.1925    0.0000 H   0  0  0  0  0  0  0  0  0  0  0  0
   -0.6691   -4.9518    0.0000 C   0  0  0  0  0  0  0  0  0  0  0  0
   -2.1462   -5.2128    0.0000 H   0  0  0  0  0  0  0  0  0  0  0  0
   -1.1825   -3.5424    0.0000 H   0  0  0  0  0  0  0  0  0  0  0  0
  1  2  1  0  0  0  0 
  1  3  1  0  0  0  0 
  1  4  1  0  0  0  0 
  5  1  1  1  0  0  0 
  5  6  1  6  0  0  0 
  5  7  1  0  0  0  0 
  7  8  1  0  0  0  0 
  7  9  1  0  0  0  0 
  7 10  1  0  0  0  0 
 10 11  1  0  0  0  0 
 11 12  2  0  0  0  0 
 12 13  1  0  0  0  0 
 13 14  2  0  0  0  0 
 14 15  1  0  0  0  0 
 14 16  1  0  0  0  0 
 16 17  2  0  0  0  0 
 11 17  1  0  0  0  0 
 17 18  1  0  0  0  0 
  5 18  1  0  0  0  0 
 18 19  1  0  0  0  0 
 19 20  1  0  0  0  0 
 19 21  2  0  0  0  0 
 21 22  1  0  0  0  0 
 16 22  1  0  0  0  0 
 22 23  2  0  0  0  0 
 21 24  1  0  0  0  0 
 24 25  2  0  0  0  0 
 24 26  1  0  0  0  0 
 26 27  1  0  0  0  0 
 27 28  1  0  0  0  0 
 27 29  1  0  0  0  0 
 29 30  1  0  0  0  0 
 29 31  1  0  0  0  0 
 31 32  1  0  0  0  0 
 31 33  1  0  0  0  0 
 33 34  1  0  0  0  0 
 33 35  1  0  0  0  0 
 35 36  1  0  0  0  0 
 35 37  1  0  0  0  0 
 37 38  2  0  0  0  0 
 37 39  1  0  0  0  0 
 39 40  1  0  0  0  0 
 35 41  1  0  0  0  0 
 27 41  1  0  0  0  0 
 33 42  1  0  0  0  0 
 42 43  1  0  0  0  0 
 31 44  1  0  0  0  0 
 44 45  1  0  0  0  0 
 29 46  1  0  0  0  0 
 46 47  1  0  0  0  0 
 13 48  1  0  0  0  0 
 12 49  1  0  0  0  0 
 49 50  1  0  0  0  0 
 50 51  1  0  0  0  0 
 50 52  1  0  0  0  0 
 50 53  1  0  0  0  0 
 53 54  1  0  0  0  0 
 53 55  1  0  0  0  0 
 53 56  1  0  0  0  0 
 56 57  1  0  0  0  0 
 57 58  1  0  0  0  0 
 57 59  1  0  0  0  0 
 57 60  1  0  0  0  0 
 56 61  1  0  0  0  0 
 61 62  1  0  0  0  0 
 61 63  1  0  0  0  0 
 61 64  1  0  0  0  0 
 49 64  1  0  0  0  0 
 64 65  1  0  0  0  0 
 64 66  1  0  0  0  0 
M  END
> <Rank>
1

> <Priority_score>
0.972

> <Reaction_type>
O-glucuronidation_(aromatic_carboxyl)

> <Parent_ID>
55

> <Parent_InChI>
InChI=1S/C18H20FN3O4/c1-10-9-26-17-14-11(16(23)12(18(24)25)8-22(10)14)7-13(19)15(17)21-5-3-20(2)4-6-21/h7-8,10H,3-6,9H2,1-2H3,(H,24,25)

> <Parent_SMILES>
C[C@H]1COc2c(N3CCN(C)CC3)c(F)cc3c(=O)c(C(=O)O)cn1c23

$$$$
Molecule 55_metabolite 2
  CDK     0516241031

 43 46  0  0  0  0  0  0  0  0999 V2000
   -2.6971    1.1696    0.0000 C   0  0  0  0  0  0  0  0  0  0  0  0
   -1.7326    2.3184    0.0000 H   0  0  0  0  0  0  0  0  0  0  0  0
   -3.9963    0.4199    0.0000 H   0  0  0  0  0  0  0  0  0  0  0  0
   -3.6610    2.3189    0.0000 H   0  0  0  0  0  0  0  0  0  0  0  0
   -2.1843   -0.2401    0.0000 C   0  0  1  0  0  0  0  0  0  0  0  0
   -3.6616   -0.5004    0.0000 H   0  0  0  0  0  0  0  0  0  0  0  0
   -2.1843   -1.7401    0.0000 C   0  0  0  0  0  0  0  0  0  0  0  0
   -3.6616   -1.4798    0.0000 H   0  0  0  0  0  0  0  0  0  0  0  0
   -2.6971   -3.1497    0.0000 H   0  0  0  0  0  0  0  0  0  0  0  0
   -0.8843   -2.4901    0.0000 O   0  0  0  0  0  0  0  0  0  0  0  0
    0.4157   -1.7401    0.0000 C   0  0  0  0  0  0  0  0  0  0  0  0
    1.7157   -2.4901    0.0000 C   0  0  0  0  0  0  0  0  0  0  0  0
    3.0157   -1.7401    0.0000 C   0  0  0  0  0  0  0  0  0  0  0  0
    3.0157   -0.2401    0.0000 C   0  0  0  0  0  0  0  0  0  0  0  0
    4.3146    0.5101    0.0000 H   0  0  0  0  0  0  0  0  0  0  0  0
    1.7157    0.5099    0.0000 C   0  0  0  0  0  0  0  0  0  0  0  0
    0.4157   -0.2401    0.0000 C   0  0  0  0  0  0  0  0  0  0  0  0
   -0.8843    0.5099    0.0000 N   0  0  0  0  0  0  0  0  0  0  0  0
   -0.8843    2.0099    0.0000 C   0  0  0  0  0  0  0  0  0  0  0  0
   -2.5989    3.0002    0.0000 H   0  0  0  0  0  0  0  0  0  0  0  0
    0.4157    2.7599    0.0000 C   0  0  0  0  0  0  0  0  0  0  0  0
    1.7157    2.0099    0.0000 C   0  0  0  0  0  0  0  0  0  0  0  0
    3.0146    2.7601    0.0000 O   0  0  0  0  0  0  0  0  0  0  0  0
    0.4157    4.2599    0.0000 C   0  0  0  0  0  0  0  0  0  0  0  0
   -0.8834    5.0099    0.0000 O   0  0  0  0  0  0  0  0  0  0  0  0
    1.7147    5.0099    0.0000 O   0  0  0  0  0  0  0  0  0  0  0  0
    1.7147    6.5099    0.0000 H   0  0  0  0  0  0  0  0  0  0  0  0
    4.3146   -2.4903    0.0000 F   0  0  0  0  0  0  0  0  0  0  0  0
    1.7157   -3.9901    0.0000 N   0  0  0  0  0  0  0  0  0  0  0  0
    3.0157   -4.7401    0.0000 C   0  0  0  0  0  0  0  0  0  0  0  0
    4.4929   -5.0004    0.0000 H   0  0  0  0  0  0  0  0  0  0  0  0
    3.5284   -3.3304    0.0000 H   0  0  0  0  0  0  0  0  0  0  0  0
    3.0157   -6.2401    0.0000 C   0  0  0  0  0  0  0  0  0  0  0  0
    3.5284   -7.6497    0.0000 H   0  0  0  0  0  0  0  0  0  0  0  0
    4.4929   -5.9798    0.0000 H   0  0  0  0  0  0  0  0  0  0  0  0
    1.7157   -6.9901    0.0000 N   0  0  0  0  0  0  0  0  0  0  0  0
    1.7157   -8.4901    0.0000 H   0  0  0  0  0  0  0  0  0  0  0  0
    0.4157   -6.2401    0.0000 C   0  0  0  0  0  0  0  0  0  0  0  0
   -1.0616   -5.9798    0.0000 H   0  0  0  0  0  0  0  0  0  0  0  0
   -0.0971   -7.6497    0.0000 H   0  0  0  0  0  0  0  0  0  0  0  0
    0.4157   -4.7401    0.0000 C   0  0  0  0  0  0  0  0  0  0  0  0
   -0.0971   -3.3304    0.0000 H   0  0  0  0  0  0  0  0  0  0  0  0
   -1.0616   -5.0004    0.0000 H   0  0  0  0  0  0  0  0  0  0  0  0
  1  2  1  0  0  0  0 
  1  3  1  0  0  0  0 
  1  4  1  0  0  0  0 
  5  1  1  6  0  0  0 
  5  6  1  1  0  0  0 
  5  7  1  0  0  0  0 
  7  8  1  0  0  0  0 
  7  9  1  0  0  0  0 
  7 10  1  0  0  0  0 
 10 11  1  0  0  0  0 
 11 12  2  0  0  0  0 
 12 13  1  0  0  0  0 
 13 14  2  0  0  0  0 
 14 15  1  0  0  0  0 
 14 16  1  0  0  0  0 
 16 17  2  0  0  0  0 
 11 17  1  0  0  0  0 
 17 18  1  0  0  0  0 
  5 18  1  0  0  0  0 
 18 19  1  0  0  0  0 
 19 20  1  0  0  0  0 
 19 21  2  0  0  0  0 
 21 22  1  0  0  0  0 
 16 22  1  0  0  0  0 
 22 23  2  0  0  0  0 
 21 24  1  0  0  0  0 
 24 25  2  0  0  0  0 
 24 26  1  0  0  0  0 
 26 27  1  0  0  0  0 
 13 28  1  0  0  0  0 
 12 29  1  0  0  0  0 
 29 30  1  0  0  0  0 
 30 31  1  0  0  0  0 
 30 32  1  0  0  0  0 
 30 33  1  0  0  0  0 
 33 34  1  0  0  0  0 
 33 35  1  0  0  0  0 
 33 36  1  0  0  0  0 
 36 37  1  0  0  0  0 
 36 38  1  0  0  0  0 
 38 39  1  0  0  0  0 
 38 40  1  0  0  0  0 
 38 41  1  0  0  0  0 
 29 41  1  0  0  0  0 
 41 42  1  0  0  0  0 
 41 43  1  0  0  0  0 
M  END
> <Rank>
2

> <Priority_score>
0.94

> <Reaction_type>
N-demethylation_(R-N(CR)CH3)

> <Parent_ID>
55

> <Parent_InChI>
InChI=1S/C18H20FN3O4/c1-10-9-26-17-14-11(16(23)12(18(24)25)8-22(10)14)7-13(19)15(17)21-5-3-20(2)4-6-21/h7-8,10H,3-6,9H2,1-2H3,(H,24,25)

> <Parent_SMILES>
C[C@H]1COc2c(N3CCN(C)CC3)c(F)cc3c(=O)c(C(=O)O)cn1c23

$$$$
Molecule 55_metabolite 3
  CDK     0516241031

 42 44  0  0  0  0  0  0  0  0999 V2000
   -2.6971    1.1696    0.0000 C   0  0  0  0  0  0  0  0  0  0  0  0
   -1.7326    2.3184    0.0000 H   0  0  0  0  0  0  0  0  0  0  0  0
   -3.9963    0.4199    0.0000 H   0  0  0  0  0  0  0  0  0  0  0  0
   -3.6610    2.3189    0.0000 H   0  0  0  0  0  0  0  0  0  0  0  0
   -2.1843   -0.2401    0.0000 C   0  0  1  0  0  0  0  0  0  0  0  0
   -3.6616   -0.5004    0.0000 H   0  0  0  0  0  0  0  0  0  0  0  0
   -2.1843   -1.7401    0.0000 C   0  0  0  0  0  0  0  0  0  0  0  0
   -3.6616   -1.4798    0.0000 H   0  0  0  0  0  0  0  0  0  0  0  0
   -2.6971   -3.1497    0.0000 H   0  0  0  0  0  0  0  0  0  0  0  0
   -0.8843   -2.4901    0.0000 O   0  0  0  0  0  0  0  0  0  0  0  0
    0.4157   -1.7401    0.0000 C   0  0  0  0  0  0  0  0  0  0  0  0
    1.7157   -2.4901    0.0000 C   0  0  0  0  0  0  0  0  0  0  0  0
    3.0157   -1.7401    0.0000 C   0  0  0  0  0  0  0  0  0  0  0  0
    3.0157   -0.2401    0.0000 C   0  0  0  0  0  0  0  0  0  0  0  0
    4.3146    0.5101    0.0000 H   0  0  0  0  0  0  0  0  0  0  0  0
    1.7157    0.5099    0.0000 C   0  0  0  0  0  0  0  0  0  0  0  0
    0.4157   -0.2401    0.0000 C   0  0  0  0  0  0  0  0  0  0  0  0
   -0.8843    0.5099    0.0000 N   0  0  0  0  0  0  0  0  0  0  0  0
   -0.8843    2.0099    0.0000 C   0  0  0  0  0  0  0  0  0  0  0  0
   -2.5989    3.0002    0.0000 H   0  0  0  0  0  0  0  0  0  0  0  0
    0.4157    2.7599    0.0000 C   0  0  0  0  0  0  0  0  0  0  0  0
    1.7157    2.0099    0.0000 C   0  0  0  0  0  0  0  0  0  0  0  0
    3.0146    2.7601    0.0000 O   0  0  0  0  0  0  0  0  0  0  0  0
    0.4157    4.2599    0.0000 C   0  0  0  0  0  0  0  0  0  0  0  0
   -0.8834    5.0099    0.0000 O   0  0  0  0  0  0  0  0  0  0  0  0
    1.7147    5.0099    0.0000 O   0  0  0  0  0  0  0  0  0  0  0  0
    1.7147    6.5099    0.0000 H   0  0  0  0  0  0  0  0  0  0  0  0
    4.3146   -2.4903    0.0000 F   0  0  0  0  0  0  0  0  0  0  0  0
    1.7157   -3.9901    0.0000 N   0  0  0  0  0  0  0  0  0  0  0  0
    0.4166   -4.7401    0.0000 H   0  0  0  0  0  0  0  0  0  0  0  0
    3.0147   -4.7401    0.0000 C   0  0  0  0  0  0  0  0  0  0  0  0
    4.4919   -5.0005    0.0000 H   0  0  0  0  0  0  0  0  0  0  0  0
    3.5277   -3.3305    0.0000 H   0  0  0  0  0  0  0  0  0  0  0  0
    3.0147   -6.2401    0.0000 C   0  0  0  0  0  0  0  0  0  0  0  0
    1.5375   -5.9796    0.0000 H   0  0  0  0  0  0  0  0  0  0  0  0
    2.5017   -7.6496    0.0000 H   0  0  0  0  0  0  0  0  0  0  0  0
    4.3137   -6.9901    0.0000 N   0  0  0  0  0  0  0  0  0  0  0  0
    5.6128   -6.2401    0.0000 H   0  0  0  0  0  0  0  0  0  0  0  0
    4.3137   -8.4901    0.0000 C   0  0  0  0  0  0  0  0  0  0  0  0
    3.0147   -9.2401    0.0000 H   0  0  0  0  0  0  0  0  0  0  0  0
    5.7909   -8.2296    0.0000 H   0  0  0  0  0  0  0  0  0  0  0  0
    4.8268   -9.8996    0.0000 H   0  0  0  0  0  0  0  0  0  0  0  0
  1  2  1  0  0  0  0 
  1  3  1  0  0  0  0 
  1  4  1  0  0  0  0 
  5  1  1  6  0  0  0 
  5  6  1  1  0  0  0 
  5  7  1  0  0  0  0 
  7  8  1  0  0  0  0 
  7  9  1  0  0  0  0 
  7 10  1  0  0  0  0 
 10 11  1  0  0  0  0 
 11 12  2  0  0  0  0 
 12 13  1  0  0  0  0 
 13 14  2  0  0  0  0 
 14 15  1  0  0  0  0 
 14 16  1  0  0  0  0 
 16 17  2  0  0  0  0 
 11 17  1  0  0  0  0 
 17 18  1  0  0  0  0 
  5 18  1  0  0  0  0 
 18 19  1  0  0  0  0 
 19 20  1  0  0  0  0 
 19 21  2  0  0  0  0 
 21 22  1  0  0  0  0 
 16 22  1  0  0  0  0 
 22 23  2  0  0  0  0 
 21 24  1  0  0  0  0 
 24 25  2  0  0  0  0 
 24 26  1  0  0  0  0 
 26 27  1  0  0  0  0 
 13 28  1  0  0  0  0 
 12 29  1  0  0  0  0 
 29 30  1  0  0  0  0 
 29 31  1  0  0  0  0 
 31 32  1  0  0  0  0 
 31 33  1  0  0  0  0 
 31 34  1  0  0  0  0 
 34 35  1  0  0  0  0 
 34 36  1  0  0  0  0 
 34 37  1  0  0  0  0 
 37 38  1  0  0  0  0 
 37 39  1  0  0  0  0 
 39 40  1  0  0  0  0 
 39 41  1  0  0  0  0 
 39 42  1  0  0  0  0 
M  END
> <Rank>
2

> <Priority_score>
0.94

> <Reaction_type>
N-dealkylation of piperazine

> <Parent_ID>
55

> <Parent_InChI>
InChI=1S/C18H20FN3O4/c1-10-9-26-17-14-11(16(23)12(18(24)25)8-22(10)14)7-13(19)15(17)21-5-3-20(2)4-6-21/h7-8,10H,3-6,9H2,1-2H3,(H,24,25)

> <Parent_SMILES>
C[C@H]1COc2c(N3CCN(C)CC3)c(F)cc3c(=O)c(C(=O)O)cn1c23

$$$$
Molecule 55_metabolite 4
  CDK     0516241031

 47 50  0  0  0  0  0  0  0  0999 V2000
   -2.0801    1.9051    0.0000 C   0  0  0  0  0  0  0  0  0  0  0  0
   -1.1157    3.0539    0.0000 H   0  0  0  0  0  0  0  0  0  0  0  0
   -3.3793    1.1553    0.0000 H   0  0  0  0  0  0  0  0  0  0  0  0
   -3.0440    3.0543    0.0000 H   0  0  0  0  0  0  0  0  0  0  0  0
   -1.5673    0.4954    0.0000 C   0  0  1  0  0  0  0  0  0  0  0  0
   -3.0446    0.2351    0.0000 H   0  0  0  0  0  0  0  0  0  0  0  0
   -1.5673   -1.0046    0.0000 C   0  0  0  0  0  0  0  0  0  0  0  0
   -3.0446   -0.7443    0.0000 H   0  0  0  0  0  0  0  0  0  0  0  0
   -2.0801   -2.4142    0.0000 H   0  0  0  0  0  0  0  0  0  0  0  0
   -0.2673   -1.7546    0.0000 O   0  0  0  0  0  0  0  0  0  0  0  0
    1.0327   -1.0046    0.0000 C   0  0  0  0  0  0  0  0  0  0  0  0
    2.3327   -1.7546    0.0000 C   0  0  0  0  0  0  0  0  0  0  0  0
    3.6327   -1.0046    0.0000 C   0  0  0  0  0  0  0  0  0  0  0  0
    3.6327    0.4954    0.0000 C   0  0  0  0  0  0  0  0  0  0  0  0
    4.9316    1.2456    0.0000 H   0  0  0  0  0  0  0  0  0  0  0  0
    2.3327    1.2454    0.0000 C   0  0  0  0  0  0  0  0  0  0  0  0
    1.0327    0.4954    0.0000 C   0  0  0  0  0  0  0  0  0  0  0  0
   -0.2673    1.2454    0.0000 N   0  0  0  0  0  0  0  0  0  0  0  0
   -0.2673    2.7454    0.0000 C   0  0  0  0  0  0  0  0  0  0  0  0
   -1.9819    3.7357    0.0000 H   0  0  0  0  0  0  0  0  0  0  0  0
    1.0327    3.4954    0.0000 C   0  0  0  0  0  0  0  0  0  0  0  0
    2.3327    2.7454    0.0000 C   0  0  0  0  0  0  0  0  0  0  0  0
    3.6316    3.4956    0.0000 O   0  0  0  0  0  0  0  0  0  0  0  0
    1.0327    4.9954    0.0000 C   0  0  0  0  0  0  0  0  0  0  0  0
   -0.2664    5.7454    0.0000 O   0  0  0  0  0  0  0  0  0  0  0  0
    2.3317    5.7454    0.0000 O   0  0  0  0  0  0  0  0  0  0  0  0
    2.3317    7.2454    0.0000 H   0  0  0  0  0  0  0  0  0  0  0  0
    4.9316   -1.7548    0.0000 F   0  0  0  0  0  0  0  0  0  0  0  0
    2.3327   -3.2546    0.0000 N   0  0  0  0  0  0  0  0  0  0  0  0
    3.6327   -4.0046    0.0000 C   0  0  0  0  0  0  0  0  0  0  0  0
    5.1099   -4.2649    0.0000 H   0  0  0  0  0  0  0  0  0  0  0  0
    4.1454   -2.5949    0.0000 H   0  0  0  0  0  0  0  0  0  0  0  0
    3.6327   -5.5046    0.0000 C   0  0  0  0  0  0  0  0  0  0  0  0
    4.1454   -6.9142    0.0000 H   0  0  0  0  0  0  0  0  0  0  0  0
    5.1099   -5.2443    0.0000 H   0  0  0  0  0  0  0  0  0  0  0  0
    2.3327   -6.2546    0.0000 N   0  0  0  0  0  0  0  0  0  0  0  0
    0.7516   -8.1392    0.0000 C   0  0  0  0  0  0  0  0  0  0  0  0
   -0.7256   -7.8789    0.0000 H   0  0  0  0  0  0  0  0  0  0  0  0
    2.0507   -8.8891    0.0000 H   0  0  0  0  0  0  0  0  0  0  0  0
    0.2387   -9.5488    0.0000 H   0  0  0  0  0  0  0  0  0  0  0  0
    1.0327   -5.5046    0.0000 C   0  0  0  0  0  0  0  0  0  0  0  0
   -0.4446   -5.2443    0.0000 H   0  0  0  0  0  0  0  0  0  0  0  0
    0.5199   -6.9142    0.0000 H   0  0  0  0  0  0  0  0  0  0  0  0
    1.0327   -4.0046    0.0000 C   0  0  0  0  0  0  0  0  0  0  0  0
    0.5199   -2.5949    0.0000 H   0  0  0  0  0  0  0  0  0  0  0  0
   -0.4446   -4.2649    0.0000 H   0  0  0  0  0  0  0  0  0  0  0  0
    3.2967   -7.4038    0.0000 O   0  0  0  0  0  0  0  0  0  0  0  0
  1  2  1  0  0  0  0 
  1  3  1  0  0  0  0 
  1  4  1  0  0  0  0 
  5  1  1  6  0  0  0 
  5  6  1  1  0  0  0 
  5  7  1  0  0  0  0 
  7  8  1  0  0  0  0 
  7  9  1  0  0  0  0 
  7 10  1  0  0  0  0 
 10 11  1  0  0  0  0 
 11 12  2  0  0  0  0 
 12 13  1  0  0  0  0 
 13 14  2  0  0  0  0 
 14 15  1  0  0  0  0 
 14 16  1  0  0  0  0 
 16 17  2  0  0  0  0 
 11 17  1  0  0  0  0 
 17 18  1  0  0  0  0 
  5 18  1  0  0  0  0 
 18 19  1  0  0  0  0 
 19 20  1  0  0  0  0 
 19 21  2  0  0  0  0 
 21 22  1  0  0  0  0 
 16 22  1  0  0  0  0 
 22 23  2  0  0  0  0 
 21 24  1  0  0  0  0 
 24 25  2  0  0  0  0 
 24 26  1  0  0  0  0 
 26 27  1  0  0  0  0 
 13 28  1  0  0  0  0 
 12 29  1  0  0  0  0 
 29 30  1  0  0  0  0 
 30 31  1  0  0  0  0 
 30 32  1  0  0  0  0 
 30 33  1  0  0  0  0 
 33 34  1  0  0  0  0 
 33 35  1  0  0  0  0 
 33 36  1  0  0  0  0 
 36 37  1  0  0  0  0 
 37 38  1  0  0  0  0 
 37 39  1  0  0  0  0 
 37 40  1  0  0  0  0 
 36 41  1  0  0  0  0 
 41 42  1  0  0  0  0 
 41 43  1  0  0  0  0 
 41 44  1  0  0  0  0 
 29 44  1  0  0  0  0 
 44 45  1  0  0  0  0 
 44 46  1  0  0  0  0 
 36 47  1  0  0  0  0 
M  CHG  1  36   1
M  CHG  1  47  -1
M  END
> <Rank>
2

> <Priority_score>
0.94

> <Reaction_type>
N-oxidation_(tertiary_NCH3)

> <Parent_ID>
55

> <Parent_InChI>
InChI=1S/C18H20FN3O4/c1-10-9-26-17-14-11(16(23)12(18(24)25)8-22(10)14)7-13(19)15(17)21-5-3-20(2)4-6-21/h7-8,10H,3-6,9H2,1-2H3,(H,24,25)

> <Parent_SMILES>
C[C@H]1COc2c(N3CCN(C)CC3)c(F)cc3c(=O)c(C(=O)O)cn1c23

$$$$
Molecule 55_metabolite 5
  CDK     0516241031

 47 50  0  0  0  0  0  0  0  0999 V2000
   -2.6971    1.6496    0.0000 C   0  0  0  0  0  0  0  0  0  0  0  0
   -1.7326    2.7984    0.0000 H   0  0  0  0  0  0  0  0  0  0  0  0
   -3.9963    0.8999    0.0000 H   0  0  0  0  0  0  0  0  0  0  0  0
   -3.6610    2.7989    0.0000 H   0  0  0  0  0  0  0  0  0  0  0  0
   -2.1843    0.2399    0.0000 C   0  0  1  0  0  0  0  0  0  0  0  0
   -3.6616   -0.0204    0.0000 H   0  0  0  0  0  0  0  0  0  0  0  0
   -2.1843   -1.2601    0.0000 C   0  0  0  0  0  0  0  0  0  0  0  0
   -3.6616   -0.9998    0.0000 H   0  0  0  0  0  0  0  0  0  0  0  0
   -2.6971   -2.6697    0.0000 H   0  0  0  0  0  0  0  0  0  0  0  0
   -0.8843   -2.0101    0.0000 O   0  0  0  0  0  0  0  0  0  0  0  0
    0.4157   -1.2601    0.0000 C   0  0  0  0  0  0  0  0  0  0  0  0
    1.7157   -2.0101    0.0000 C   0  0  0  0  0  0  0  0  0  0  0  0
    3.0157   -1.2601    0.0000 C   0  0  0  0  0  0  0  0  0  0  0  0
    3.0157    0.2399    0.0000 C   0  0  0  0  0  0  0  0  0  0  0  0
    4.3146    0.9901    0.0000 H   0  0  0  0  0  0  0  0  0  0  0  0
    1.7157    0.9899    0.0000 C   0  0  0  0  0  0  0  0  0  0  0  0
    0.4157    0.2399    0.0000 C   0  0  0  0  0  0  0  0  0  0  0  0
   -0.8843    0.9899    0.0000 N   0  0  0  0  0  0  0  0  0  0  0  0
   -0.8843    2.4899    0.0000 C   0  0  0  0  0  0  0  0  0  0  0  0
   -2.5989    3.4802    0.0000 H   0  0  0  0  0  0  0  0  0  0  0  0
    0.4157    3.2399    0.0000 C   0  0  0  0  0  0  0  0  0  0  0  0
    1.7157    2.4899    0.0000 C   0  0  0  0  0  0  0  0  0  0  0  0
    3.0146    3.2401    0.0000 O   0  0  0  0  0  0  0  0  0  0  0  0
    0.4157    4.7399    0.0000 C   0  0  0  0  0  0  0  0  0  0  0  0
   -0.8834    5.4899    0.0000 O   0  0  0  0  0  0  0  0  0  0  0  0
    1.7147    5.4899    0.0000 O   0  0  0  0  0  0  0  0  0  0  0  0
    1.7147    6.9899    0.0000 H   0  0  0  0  0  0  0  0  0  0  0  0
    4.3146   -2.0103    0.0000 F   0  0  0  0  0  0  0  0  0  0  0  0
    1.7157   -3.5101    0.0000 N   0  0  0  0  0  0  0  0  0  0  0  0
    0.4160   -4.2607    0.0000 C   0  0  0  0  0  0  0  0  0  0  0  0
   -0.0969   -2.8511    0.0000 H   0  0  0  0  0  0  0  0  0  0  0  0
   -1.0613   -4.5208    0.0000 H   0  0  0  0  0  0  0  0  0  0  0  0
    0.4153   -5.7615    0.0000 C   0  0  0  0  0  0  0  0  0  0  0  0
   -1.0618   -5.5005    0.0000 H   0  0  0  0  0  0  0  0  0  0  0  0
   -0.0981   -7.1709    0.0000 H   0  0  0  0  0  0  0  0  0  0  0  0
    1.7142   -6.5117    0.0000 N   0  0  0  0  0  0  0  0  0  0  0  0
    3.0139   -5.7611    0.0000 C   0  0  0  0  0  0  0  0  0  0  0  0
    3.5268   -7.1707    0.0000 H   0  0  0  0  0  0  0  0  0  0  0  0
    4.4911   -5.5010    0.0000 H   0  0  0  0  0  0  0  0  0  0  0  0
    3.0146   -4.2603    0.0000 C   0  0  0  0  0  0  0  0  0  0  0  0
    4.4917   -4.5213    0.0000 H   0  0  0  0  0  0  0  0  0  0  0  0
    3.5280   -2.8509    0.0000 H   0  0  0  0  0  0  0  0  0  0  0  0
    1.7142   -8.4917    0.0000 C   0  0  0  0  0  0  0  0  0  0  0  0
    0.2370   -8.2313    0.0000 H   0  0  0  0  0  0  0  0  0  0  0  0
    1.2012   -9.9013    0.0000 H   0  0  0  0  0  0  0  0  0  0  0  0
    3.0132   -9.2417    0.0000 O   0  0  0  0  0  0  0  0  0  0  0  0
    3.0132  -10.7417    0.0000 H   0  0  0  0  0  0  0  0  0  0  0  0
  1  2  1  0  0  0  0 
  1  3  1  0  0  0  0 
  1  4  1  0  0  0  0 
  5  1  1  6  0  0  0 
  5  6  1  1  0  0  0 
  5  7  1  0  0  0  0 
  7  8  1  0  0  0  0 
  7  9  1  0  0  0  0 
  7 10  1  0  0  0  0 
 10 11  1  0  0  0  0 
 11 12  2  0  0  0  0 
 12 13  1  0  0  0  0 
 13 14  2  0  0  0  0 
 14 15  1  0  0  0  0 
 14 16  1  0  0  0  0 
 16 17  2  0  0  0  0 
 11 17  1  0  0  0  0 
 17 18  1  0  0  0  0 
  5 18  1  0  0  0  0 
 18 19  1  0  0  0  0 
 19 20  1  0  0  0  0 
 19 21  2  0  0  0  0 
 21 22  1  0  0  0  0 
 16 22  1  0  0  0  0 
 22 23  2  0  0  0  0 
 21 24  1  0  0  0  0 
 24 25  2  0  0  0  0 
 24 26  1  0  0  0  0 
 26 27  1  0  0  0  0 
 13 28  1  0  0  0  0 
 12 29  1  0  0  0  0 
 29 30  1  0  0  0  0 
 30 31  1  0  0  0  0 
 30 32  1  0  0  0  0 
 30 33  1  0  0  0  0 
 33 34  1  0  0  0  0 
 33 35  1  0  0  0  0 
 33 36  1  0  0  0  0 
 36 37  1  0  0  0  0 
 37 38  1  0  0  0  0 
 37 39  1  0  0  0  0 
 37 40  1  0  0  0  0 
 29 40  1  0  0  0  0 
 40 41  1  0  0  0  0 
 40 42  1  0  0  0  0 
 36 43  1  0  0  0  0 
 43 44  1  0  0  0  0 
 43 45  1  0  0  0  0 
 43 46  1  0  0  0  0 
 46 47  1  0  0  0  0 
M  END
> <Rank>
2

> <Priority_score>
0.94

> <Reaction_type>
aliphatic hydroxylation

> <Parent_ID>
55

> <Parent_InChI>
InChI=1S/C18H20FN3O4/c1-10-9-26-17-14-11(16(23)12(18(24)25)8-22(10)14)7-13(19)15(17)21-5-3-20(2)4-6-21/h7-8,10H,3-6,9H2,1-2H3,(H,24,25)

> <Parent_SMILES>
C[C@H]1COc2c(N3CCN(C)CC3)c(F)cc3c(=O)c(C(=O)O)cn1c23

$$$$
Molecule 55_metabolite 6
  CDK     0516241031

 47 49  0  0  0  0  0  0  0  0999 V2000
   -2.6971    1.1696    0.0000 C   0  0  0  0  0  0  0  0  0  0  0  0
   -1.7326    2.3184    0.0000 H   0  0  0  0  0  0  0  0  0  0  0  0
   -3.9963    0.4199    0.0000 H   0  0  0  0  0  0  0  0  0  0  0  0
   -3.6610    2.3189    0.0000 H   0  0  0  0  0  0  0  0  0  0  0  0
   -2.1843   -0.2401    0.0000 C   0  0  1  0  0  0  0  0  0  0  0  0
   -3.6616   -0.5004    0.0000 H   0  0  0  0  0  0  0  0  0  0  0  0
   -2.1843   -1.7401    0.0000 C   0  0  0  0  0  0  0  0  0  0  0  0
   -3.6616   -1.4798    0.0000 H   0  0  0  0  0  0  0  0  0  0  0  0
   -2.6971   -3.1497    0.0000 H   0  0  0  0  0  0  0  0  0  0  0  0
   -0.8843   -2.4901    0.0000 O   0  0  0  0  0  0  0  0  0  0  0  0
    0.4157   -1.7401    0.0000 C   0  0  0  0  0  0  0  0  0  0  0  0
    1.7157   -2.4901    0.0000 C   0  0  0  0  0  0  0  0  0  0  0  0
    3.0157   -1.7401    0.0000 C   0  0  0  0  0  0  0  0  0  0  0  0
    3.0157   -0.2401    0.0000 C   0  0  0  0  0  0  0  0  0  0  0  0
    4.3146    0.5101    0.0000 H   0  0  0  0  0  0  0  0  0  0  0  0
    1.7157    0.5099    0.0000 C   0  0  0  0  0  0  0  0  0  0  0  0
    0.4157   -0.2401    0.0000 C   0  0  0  0  0  0  0  0  0  0  0  0
   -0.8843    0.5099    0.0000 N   0  0  0  0  0  0  0  0  0  0  0  0
   -0.8843    2.0099    0.0000 C   0  0  0  0  0  0  0  0  0  0  0  0
   -2.5989    3.0002    0.0000 H   0  0  0  0  0  0  0  0  0  0  0  0
    0.4157    2.7599    0.0000 C   0  0  0  0  0  0  0  0  0  0  0  0
    1.7157    2.0099    0.0000 C   0  0  0  0  0  0  0  0  0  0  0  0
    3.0146    2.7601    0.0000 O   0  0  0  0  0  0  0  0  0  0  0  0
    0.4157    4.2599    0.0000 C   0  0  0  0  0  0  0  0  0  0  0  0
   -0.8834    5.0099    0.0000 O   0  0  0  0  0  0  0  0  0  0  0  0
    1.7147    5.0099    0.0000 O   0  0  0  0  0  0  0  0  0  0  0  0
    1.7147    6.5099    0.0000 H   0  0  0  0  0  0  0  0  0  0  0  0
    4.3146   -2.4903    0.0000 F   0  0  0  0  0  0  0  0  0  0  0  0
    1.7157   -3.9901    0.0000 N   0  0  0  0  0  0  0  0  0  0  0  0
    3.0147   -4.7401    0.0000 C   0  0  0  0  0  0  0  0  0  0  0  0
    4.4919   -5.0005    0.0000 H   0  0  0  0  0  0  0  0  0  0  0  0
    3.5277   -3.3305    0.0000 H   0  0  0  0  0  0  0  0  0  0  0  0
    3.0147   -6.2401    0.0000 C   0  0  0  0  0  0  0  0  0  0  0  0
    1.5375   -5.9796    0.0000 H   0  0  0  0  0  0  0  0  0  0  0  0
    2.5017   -7.6496    0.0000 H   0  0  0  0  0  0  0  0  0  0  0  0
    4.3137   -6.9901    0.0000 N   0  0  0  0  0  0  0  0  0  0  0  0
    5.6128   -6.2401    0.0000 H   0  0  0  0  0  0  0  0  0  0  0  0
    4.3137   -8.4901    0.0000 C   0  0  0  0  0  0  0  0  0  0  0  0
    3.0147   -9.2401    0.0000 H   0  0  0  0  0  0  0  0  0  0  0  0
    5.7909   -8.2296    0.0000 H   0  0  0  0  0  0  0  0  0  0  0  0
    4.8268   -9.8996    0.0000 H   0  0  0  0  0  0  0  0  0  0  0  0
    0.4166   -4.7401    0.0000 C   0  0  0  0  0  0  0  0  0  0  0  0
   -0.0964   -3.3305    0.0000 H   0  0  0  0  0  0  0  0  0  0  0  0
   -1.0606   -5.0005    0.0000 H   0  0  0  0  0  0  0  0  0  0  0  0
    0.4166   -6.2401    0.0000 C   0  0  0  0  0  0  0  0  0  0  0  0
   -0.8824   -6.9901    0.0000 H   0  0  0  0  0  0  0  0  0  0  0  0
    1.7157   -6.9901    0.0000 O   0  0  0  0  0  0  0  0  0  0  0  0
  1  2  1  0  0  0  0 
  1  3  1  0  0  0  0 
  1  4  1  0  0  0  0 
  5  1  1  6  0  0  0 
  5  6  1  1  0  0  0 
  5  7  1  0  0  0  0 
  7  8  1  0  0  0  0 
  7  9  1  0  0  0  0 
  7 10  1  0  0  0  0 
 10 11  1  0  0  0  0 
 11 12  2  0  0  0  0 
 12 13  1  0  0  0  0 
 13 14  2  0  0  0  0 
 14 15  1  0  0  0  0 
 14 16  1  0  0  0  0 
 16 17  2  0  0  0  0 
 11 17  1  0  0  0  0 
 17 18  1  0  0  0  0 
  5 18  1  0  0  0  0 
 18 19  1  0  0  0  0 
 19 20  1  0  0  0  0 
 19 21  2  0  0  0  0 
 21 22  1  0  0  0  0 
 16 22  1  0  0  0  0 
 22 23  2  0  0  0  0 
 21 24  1  0  0  0  0 
 24 25  2  0  0  0  0 
 24 26  1  0  0  0  0 
 26 27  1  0  0  0  0 
 13 28  1  0  0  0  0 
 12 29  1  0  0  0  0 
 29 30  1  0  0  0  0 
 30 31  1  0  0  0  0 
 30 32  1  0  0  0  0 
 30 33  1  0  0  0  0 
 33 34  1  0  0  0  0 
 33 35  1  0  0  0  0 
 33 36  1  0  0  0  0 
 36 37  1  0  0  0  0 
 36 38  1  0  0  0  0 
 38 39  1  0  0  0  0 
 38 40  1  0  0  0  0 
 38 41  1  0  0  0  0 
 29 42  1  0  0  0  0 
 42 43  1  0  0  0  0 
 42 44  1  0  0  0  0 
 42 45  1  0  0  0  0 
 45 46  1  0  0  0  0 
 45 47  2  0  0  0  0 
M  END
> <Rank>
6

> <Priority_score>
0.804

> <Reaction_type>
N-dealkylation

> <Parent_ID>
55

> <Parent_InChI>
InChI=1S/C18H20FN3O4/c1-10-9-26-17-14-11(16(23)12(18(24)25)8-22(10)14)7-13(19)15(17)21-5-3-20(2)4-6-21/h7-8,10H,3-6,9H2,1-2H3,(H,24,25)

> <Parent_SMILES>
C[C@H]1COc2c(N3CCN(C)CC3)c(F)cc3c(=O)c(C(=O)O)cn1c23

$$$$
Molecule 55_metabolite 7
  CDK     0516241031

 45 48  0  0  0  0  0  0  0  0999 V2000
   -2.6971    1.1696    0.0000 C   0  0  0  0  0  0  0  0  0  0  0  0
   -1.7326    2.3184    0.0000 H   0  0  0  0  0  0  0  0  0  0  0  0
   -3.9963    0.4199    0.0000 H   0  0  0  0  0  0  0  0  0  0  0  0
   -3.6610    2.3189    0.0000 H   0  0  0  0  0  0  0  0  0  0  0  0
   -2.1843   -0.2401    0.0000 C   0  0  1  0  0  0  0  0  0  0  0  0
   -3.6616   -0.5004    0.0000 H   0  0  0  0  0  0  0  0  0  0  0  0
   -2.1843   -1.7401    0.0000 C   0  0  0  0  0  0  0  0  0  0  0  0
   -3.6616   -1.4798    0.0000 H   0  0  0  0  0  0  0  0  0  0  0  0
   -2.6971   -3.1497    0.0000 H   0  0  0  0  0  0  0  0  0  0  0  0
   -0.8843   -2.4901    0.0000 O   0  0  0  0  0  0  0  0  0  0  0  0
    0.4157   -1.7401    0.0000 C   0  0  0  0  0  0  0  0  0  0  0  0
    1.7157   -2.4901    0.0000 C   0  0  0  0  0  0  0  0  0  0  0  0
    3.0157   -1.7401    0.0000 C   0  0  0  0  0  0  0  0  0  0  0  0
    3.0157   -0.2401    0.0000 C   0  0  0  0  0  0  0  0  0  0  0  0
    4.3146    0.5101    0.0000 H   0  0  0  0  0  0  0  0  0  0  0  0
    1.7157    0.5099    0.0000 C   0  0  0  0  0  0  0  0  0  0  0  0
    0.4157   -0.2401    0.0000 C   0  0  0  0  0  0  0  0  0  0  0  0
   -0.8843    0.5099    0.0000 N   0  0  0  0  0  0  0  0  0  0  0  0
   -0.8843    2.0099    0.0000 C   0  0  0  0  0  0  0  0  0  0  0  0
   -2.5989    3.0002    0.0000 H   0  0  0  0  0  0  0  0  0  0  0  0
    0.4157    2.7599    0.0000 C   0  0  0  0  0  0  0  0  0  0  0  0
    1.7157    2.0099    0.0000 C   0  0  0  0  0  0  0  0  0  0  0  0
    3.0146    2.7601    0.0000 O   0  0  0  0  0  0  0  0  0  0  0  0
    0.4157    4.2599    0.0000 C   0  0  0  0  0  0  0  0  0  0  0  0
   -0.8834    5.0099    0.0000 O   0  0  0  0  0  0  0  0  0  0  0  0
    1.7147    5.0099    0.0000 O   0  0  0  0  0  0  0  0  0  0  0  0
    1.7147    6.5099    0.0000 H   0  0  0  0  0  0  0  0  0  0  0  0
    4.3146   -2.4903    0.0000 F   0  0  0  0  0  0  0  0  0  0  0  0
    1.7157   -3.9901    0.0000 N   0  0  0  0  0  0  0  0  0  0  0  0
    3.0157   -4.7401    0.0000 C   0  0  0  0  0  0  0  0  0  0  0  0
    4.4929   -5.0004    0.0000 H   0  0  0  0  0  0  0  0  0  0  0  0
    3.5284   -3.3304    0.0000 H   0  0  0  0  0  0  0  0  0  0  0  0
    3.0157   -6.2401    0.0000 C   0  0  0  0  0  0  0  0  0  0  0  0
    3.5284   -7.6497    0.0000 H   0  0  0  0  0  0  0  0  0  0  0  0
    4.4929   -5.9798    0.0000 H   0  0  0  0  0  0  0  0  0  0  0  0
    1.7157   -6.9901    0.0000 N   0  0  0  0  0  0  0  0  0  0  0  0
    1.7157   -8.4901    0.0000 C   0  0  0  0  0  0  0  0  0  0  0  0
    3.0147   -9.2401    0.0000 H   0  0  0  0  0  0  0  0  0  0  0  0
    0.2384   -8.2296    0.0000 H   0  0  0  0  0  0  0  0  0  0  0  0
    1.2026   -9.8996    0.0000 H   0  0  0  0  0  0  0  0  0  0  0  0
    0.4157   -6.2401    0.0000 C   0  0  0  0  0  0  0  0  0  0  0  0
   -0.8833   -6.9903    0.0000 O   0  0  0  0  0  0  0  0  0  0  0  0
    0.4157   -4.7401    0.0000 C   0  0  0  0  0  0  0  0  0  0  0  0
   -0.0971   -3.3304    0.0000 H   0  0  0  0  0  0  0  0  0  0  0  0
   -1.0616   -5.0004    0.0000 H   0  0  0  0  0  0  0  0  0  0  0  0
  1  2  1  0  0  0  0 
  1  3  1  0  0  0  0 
  1  4  1  0  0  0  0 
  5  1  1  6  0  0  0 
  5  6  1  1  0  0  0 
  5  7  1  0  0  0  0 
  7  8  1  0  0  0  0 
  7  9  1  0  0  0  0 
  7 10  1  0  0  0  0 
 10 11  1  0  0  0  0 
 11 12  2  0  0  0  0 
 12 13  1  0  0  0  0 
 13 14  2  0  0  0  0 
 14 15  1  0  0  0  0 
 14 16  1  0  0  0  0 
 16 17  2  0  0  0  0 
 11 17  1  0  0  0  0 
 17 18  1  0  0  0  0 
  5 18  1  0  0  0  0 
 18 19  1  0  0  0  0 
 19 20  1  0  0  0  0 
 19 21  2  0  0  0  0 
 21 22  1  0  0  0  0 
 16 22  1  0  0  0  0 
 22 23  2  0  0  0  0 
 21 24  1  0  0  0  0 
 24 25  2  0  0  0  0 
 24 26  1  0  0  0  0 
 26 27  1  0  0  0  0 
 13 28  1  0  0  0  0 
 12 29  1  0  0  0  0 
 29 30  1  0  0  0  0 
 30 31  1  0  0  0  0 
 30 32  1  0  0  0  0 
 30 33  1  0  0  0  0 
 33 34  1  0  0  0  0 
 33 35  1  0  0  0  0 
 33 36  1  0  0  0  0 
 36 37  1  0  0  0  0 
 37 38  1  0  0  0  0 
 37 39  1  0  0  0  0 
 37 40  1  0  0  0  0 
 36 41  1  0  0  0  0 
 41 42  2  0  0  0  0 
 41 43  1  0  0  0  0 
 29 43  1  0  0  0  0 
 43 44  1  0  0  0  0 
 43 45  1  0  0  0  0 
M  END
> <Rank>
6

> <Priority_score>
0.804

> <Reaction_type>
oxidation_(amine_in_a_ring)

> <Parent_ID>
55

> <Parent_InChI>
InChI=1S/C18H20FN3O4/c1-10-9-26-17-14-11(16(23)12(18(24)25)8-22(10)14)7-13(19)15(17)21-5-3-20(2)4-6-21/h7-8,10H,3-6,9H2,1-2H3,(H,24,25)

> <Parent_SMILES>
C[C@H]1COc2c(N3CCN(C)CC3)c(F)cc3c(=O)c(C(=O)O)cn1c23

$$$$
Molecule 55_metabolite 8
  CDK     0516241031

 47 50  0  0  0  0  0  0  0  0999 V2000
   -2.6971    1.6496    0.0000 C   0  0  0  0  0  0  0  0  0  0  0  0
   -1.7326    2.7984    0.0000 H   0  0  0  0  0  0  0  0  0  0  0  0
   -3.9963    0.8999    0.0000 H   0  0  0  0  0  0  0  0  0  0  0  0
   -3.6610    2.7989    0.0000 H   0  0  0  0  0  0  0  0  0  0  0  0
   -2.1843    0.2399    0.0000 C   0  0  1  0  0  0  0  0  0  0  0  0
   -3.6616   -0.0204    0.0000 H   0  0  0  0  0  0  0  0  0  0  0  0
   -2.1843   -1.2601    0.0000 C   0  0  0  0  0  0  0  0  0  0  0  0
   -3.6616   -0.9998    0.0000 H   0  0  0  0  0  0  0  0  0  0  0  0
   -2.6971   -2.6697    0.0000 H   0  0  0  0  0  0  0  0  0  0  0  0
   -0.8843   -2.0101    0.0000 O   0  0  0  0  0  0  0  0  0  0  0  0
    0.4157   -1.2601    0.0000 C   0  0  0  0  0  0  0  0  0  0  0  0
    1.7157   -2.0101    0.0000 C   0  0  0  0  0  0  0  0  0  0  0  0
    3.0157   -1.2601    0.0000 C   0  0  0  0  0  0  0  0  0  0  0  0
    3.0157    0.2399    0.0000 C   0  0  0  0  0  0  0  0  0  0  0  0
    4.3146    0.9901    0.0000 H   0  0  0  0  0  0  0  0  0  0  0  0
    1.7157    0.9899    0.0000 C   0  0  0  0  0  0  0  0  0  0  0  0
    0.4157    0.2399    0.0000 C   0  0  0  0  0  0  0  0  0  0  0  0
   -0.8843    0.9899    0.0000 N   0  0  0  0  0  0  0  0  0  0  0  0
   -0.8843    2.4899    0.0000 C   0  0  0  0  0  0  0  0  0  0  0  0
   -2.5989    3.4802    0.0000 H   0  0  0  0  0  0  0  0  0  0  0  0
    0.4157    3.2399    0.0000 C   0  0  0  0  0  0  0  0  0  0  0  0
    1.7157    2.4899    0.0000 C   0  0  0  0  0  0  0  0  0  0  0  0
    3.0146    3.2401    0.0000 O   0  0  0  0  0  0  0  0  0  0  0  0
    0.4157    4.7399    0.0000 C   0  0  0  0  0  0  0  0  0  0  0  0
   -0.8834    5.4899    0.0000 O   0  0  0  0  0  0  0  0  0  0  0  0
    1.7147    5.4899    0.0000 O   0  0  0  0  0  0  0  0  0  0  0  0
    1.7147    6.9899    0.0000 H   0  0  0  0  0  0  0  0  0  0  0  0
    4.3146   -2.0103    0.0000 F   0  0  0  0  0  0  0  0  0  0  0  0
    1.7157   -3.5101    0.0000 N   0  0  0  0  0  0  0  0  0  0  0  0
    3.0157   -4.2601    0.0000 C   0  0  0  0  0  0  0  0  0  0  0  0
    4.4929   -4.5204    0.0000 H   0  0  0  0  0  0  0  0  0  0  0  0
    3.5284   -2.8504    0.0000 H   0  0  0  0  0  0  0  0  0  0  0  0
    3.0157   -5.7601    0.0000 C   0  0  0  0  0  0  0  0  0  0  0  0
    3.5284   -7.1697    0.0000 H   0  0  0  0  0  0  0  0  0  0  0  0
    4.4929   -5.4998    0.0000 H   0  0  0  0  0  0  0  0  0  0  0  0
    1.7157   -6.5101    0.0000 N   0  0  0  0  0  0  0  0  0  0  0  0
    1.7157   -8.4901    0.0000 C   0  0  0  0  0  0  0  0  0  0  0  0
    3.0147   -9.2401    0.0000 H   0  0  0  0  0  0  0  0  0  0  0  0
    0.2384   -8.2296    0.0000 H   0  0  0  0  0  0  0  0  0  0  0  0
    1.2026   -9.8996    0.0000 H   0  0  0  0  0  0  0  0  0  0  0  0
    0.4157   -5.7601    0.0000 C   0  0  0  0  0  0  0  0  0  0  0  0
   -1.0616   -5.4998    0.0000 H   0  0  0  0  0  0  0  0  0  0  0  0
    0.4157   -4.2601    0.0000 C   0  0  0  0  0  0  0  0  0  0  0  0
   -0.0971   -2.8504    0.0000 H   0  0  0  0  0  0  0  0  0  0  0  0
   -1.0616   -4.5204    0.0000 H   0  0  0  0  0  0  0  0  0  0  0  0
   -0.0971   -7.1697    0.0000 O   0  0  0  0  0  0  0  0  0  0  0  0
   -1.5742   -7.4305    0.0000 H   0  0  0  0  0  0  0  0  0  0  0  0
  1  2  1  0  0  0  0 
  1  3  1  0  0  0  0 
  1  4  1  0  0  0  0 
  5  1  1  6  0  0  0 
  5  6  1  1  0  0  0 
  5  7  1  0  0  0  0 
  7  8  1  0  0  0  0 
  7  9  1  0  0  0  0 
  7 10  1  0  0  0  0 
 10 11  1  0  0  0  0 
 11 12  2  0  0  0  0 
 12 13  1  0  0  0  0 
 13 14  2  0  0  0  0 
 14 15  1  0  0  0  0 
 14 16  1  0  0  0  0 
 16 17  2  0  0  0  0 
 11 17  1  0  0  0  0 
 17 18  1  0  0  0  0 
  5 18  1  0  0  0  0 
 18 19  1  0  0  0  0 
 19 20  1  0  0  0  0 
 19 21  2  0  0  0  0 
 21 22  1  0  0  0  0 
 16 22  1  0  0  0  0 
 22 23  2  0  0  0  0 
 21 24  1  0  0  0  0 
 24 25  2  0  0  0  0 
 24 26  1  0  0  0  0 
 26 27  1  0  0  0  0 
 13 28  1  0  0  0  0 
 12 29  1  0  0  0  0 
 29 30  1  0  0  0  0 
 30 31  1  0  0  0  0 
 30 32  1  0  0  0  0 
 30 33  1  0  0  0  0 
 33 34  1  0  0  0  0 
 33 35  1  0  0  0  0 
 33 36  1  0  0  0  0 
 36 37  1  0  0  0  0 
 37 38  1  0  0  0  0 
 37 39  1  0  0  0  0 
 37 40  1  0  0  0  0 
 36 41  1  0  0  0  0 
 41 42  1  0  0  0  0 
 41 43  1  0  0  0  0 
 29 43  1  0  0  0  0 
 43 44  1  0  0  0  0 
 43 45  1  0  0  0  0 
 41 46  1  0  0  0  0 
 46 47  1  0  0  0  0 
M  END
> <Rank>
6

> <Priority_score>
0.804

> <Reaction_type>
aliphatic_hydroxylation_(sec_carbon_next_to_SP2,in_a_ring)

> <Parent_ID>
55

> <Parent_InChI>
InChI=1S/C18H20FN3O4/c1-10-9-26-17-14-11(16(23)12(18(24)25)8-22(10)14)7-13(19)15(17)21-5-3-20(2)4-6-21/h7-8,10H,3-6,9H2,1-2H3,(H,24,25)

> <Parent_SMILES>
C[C@H]1COc2c(N3CCN(C)CC3)c(F)cc3c(=O)c(C(=O)O)cn1c23

$$$$
Molecule 55_metabolite 9
  CDK     0516241031

 43 46  0  0  0  0  0  0  0  0999 V2000
   -2.6971    1.6496    0.0000 C   0  0  0  0  0  0  0  0  0  0  0  0
   -1.7326    2.7984    0.0000 H   0  0  0  0  0  0  0  0  0  0  0  0
   -3.9963    0.8999    0.0000 H   0  0  0  0  0  0  0  0  0  0  0  0
   -3.6610    2.7989    0.0000 H   0  0  0  0  0  0  0  0  0  0  0  0
   -2.1843    0.2399    0.0000 C   0  0  1  0  0  0  0  0  0  0  0  0
   -3.6616   -0.0204    0.0000 H   0  0  0  0  0  0  0  0  0  0  0  0
   -2.1843   -1.2601    0.0000 C   0  0  0  0  0  0  0  0  0  0  0  0
   -3.6616   -0.9998    0.0000 H   0  0  0  0  0  0  0  0  0  0  0  0
   -2.6971   -2.6697    0.0000 H   0  0  0  0  0  0  0  0  0  0  0  0
   -0.8843   -2.0101    0.0000 O   0  0  0  0  0  0  0  0  0  0  0  0
    0.4157   -1.2601    0.0000 C   0  0  0  0  0  0  0  0  0  0  0  0
    1.7157   -2.0101    0.0000 C   0  0  0  0  0  0  0  0  0  0  0  0
    3.0157   -1.2601    0.0000 C   0  0  0  0  0  0  0  0  0  0  0  0
    3.0157    0.2399    0.0000 C   0  0  0  0  0  0  0  0  0  0  0  0
    4.3146    0.9901    0.0000 H   0  0  0  0  0  0  0  0  0  0  0  0
    1.7157    0.9899    0.0000 C   0  0  0  0  0  0  0  0  0  0  0  0
    0.4157    0.2399    0.0000 C   0  0  0  0  0  0  0  0  0  0  0  0
   -0.8843    0.9899    0.0000 N   0  0  0  0  0  0  0  0  0  0  0  0
   -0.8843    2.4899    0.0000 C   0  0  0  0  0  0  0  0  0  0  0  0
   -2.5989    3.4802    0.0000 H   0  0  0  0  0  0  0  0  0  0  0  0
    0.4157    3.2399    0.0000 C   0  0  0  0  0  0  0  0  0  0  0  0
    0.4157    4.7399    0.0000 H   0  0  0  0  0  0  0  0  0  0  0  0
    1.7157    2.4899    0.0000 C   0  0  0  0  0  0  0  0  0  0  0  0
    3.0146    3.2401    0.0000 O   0  0  0  0  0  0  0  0  0  0  0  0
    4.3146   -2.0103    0.0000 F   0  0  0  0  0  0  0  0  0  0  0  0
    1.7157   -3.5101    0.0000 N   0  0  0  0  0  0  0  0  0  0  0  0
    0.4160   -4.2607    0.0000 C   0  0  0  0  0  0  0  0  0  0  0  0
   -0.0969   -2.8511    0.0000 H   0  0  0  0  0  0  0  0  0  0  0  0
   -1.0613   -4.5208    0.0000 H   0  0  0  0  0  0  0  0  0  0  0  0
    0.4153   -5.7615    0.0000 C   0  0  0  0  0  0  0  0  0  0  0  0
   -1.0618   -5.5005    0.0000 H   0  0  0  0  0  0  0  0  0  0  0  0
   -0.0981   -7.1709    0.0000 H   0  0  0  0  0  0  0  0  0  0  0  0
    1.7142   -6.5117    0.0000 N   0  0  0  0  0  0  0  0  0  0  0  0
    1.7142   -8.4917    0.0000 C   0  0  0  0  0  0  0  0  0  0  0  0
    3.0132   -9.2417    0.0000 H   0  0  0  0  0  0  0  0  0  0  0  0
    0.2370   -8.2313    0.0000 H   0  0  0  0  0  0  0  0  0  0  0  0
    1.2012   -9.9013    0.0000 H   0  0  0  0  0  0  0  0  0  0  0  0
    3.0139   -5.7611    0.0000 C   0  0  0  0  0  0  0  0  0  0  0  0
    3.5268   -7.1707    0.0000 H   0  0  0  0  0  0  0  0  0  0  0  0
    4.4911   -5.5010    0.0000 H   0  0  0  0  0  0  0  0  0  0  0  0
    3.0146   -4.2603    0.0000 C   0  0  0  0  0  0  0  0  0  0  0  0
    4.4917   -4.5213    0.0000 H   0  0  0  0  0  0  0  0  0  0  0  0
    3.5280   -2.8509    0.0000 H   0  0  0  0  0  0  0  0  0  0  0  0
  1  2  1  0  0  0  0 
  1  3  1  0  0  0  0 
  1  4  1  0  0  0  0 
  5  1  1  6  0  0  0 
  5  6  1  1  0  0  0 
  5  7  1  0  0  0  0 
  7  8  1  0  0  0  0 
  7  9  1  0  0  0  0 
  7 10  1  0  0  0  0 
 10 11  1  0  0  0  0 
 11 12  2  0  0  0  0 
 12 13  1  0  0  0  0 
 13 14  2  0  0  0  0 
 14 15  1  0  0  0  0 
 14 16  1  0  0  0  0 
 16 17  2  0  0  0  0 
 11 17  1  0  0  0  0 
 17 18  1  0  0  0  0 
  5 18  1  0  0  0  0 
 18 19  1  0  0  0  0 
 19 20  1  0  0  0  0 
 19 21  2  0  0  0  0 
 21 22  1  0  0  0  0 
 21 23  1  0  0  0  0 
 16 23  1  0  0  0  0 
 23 24  2  0  0  0  0 
 13 25  1  0  0  0  0 
 12 26  1  0  0  0  0 
 26 27  1  0  0  0  0 
 27 28  1  0  0  0  0 
 27 29  1  0  0  0  0 
 27 30  1  0  0  0  0 
 30 31  1  0  0  0  0 
 30 32  1  0  0  0  0 
 30 33  1  0  0  0  0 
 33 34  1  0  0  0  0 
 34 35  1  0  0  0  0 
 34 36  1  0  0  0  0 
 34 37  1  0  0  0  0 
 33 38  1  0  0  0  0 
 38 39  1  0  0  0  0 
 38 40  1  0  0  0  0 
 38 41  1  0  0  0  0 
 26 41  1  0  0  0  0 
 41 42  1  0  0  0  0 
 41 43  1  0  0  0  0 
M  END
> <Rank>
9

> <Priority_score>
0.216

> <Reaction_type>
decarboxylation

> <Parent_ID>
55

> <Parent_InChI>
InChI=1S/C18H20FN3O4/c1-10-9-26-17-14-11(16(23)12(18(24)25)8-22(10)14)7-13(19)15(17)21-5-3-20(2)4-6-21/h7-8,10H,3-6,9H2,1-2H3,(H,24,25)

> <Parent_SMILES>
C[C@H]1COc2c(N3CCN(C)CC3)c(F)cc3c(=O)c(C(=O)O)cn1c23

$$$$
Molecule 55_metabolite 10
  CDK     0516241031

 45 48  0  0  0  0  0  0  0  0999 V2000
   -2.6971    1.1696    0.0000 C   0  0  0  0  0  0  0  0  0  0  0  0
   -1.7326    2.3184    0.0000 H   0  0  0  0  0  0  0  0  0  0  0  0
   -3.9963    0.4199    0.0000 H   0  0  0  0  0  0  0  0  0  0  0  0
   -3.6610    2.3189    0.0000 H   0  0  0  0  0  0  0  0  0  0  0  0
   -2.1843   -0.2401    0.0000 C   0  0  1  0  0  0  0  0  0  0  0  0
   -3.6616   -0.5004    0.0000 H   0  0  0  0  0  0  0  0  0  0  0  0
   -2.1843   -1.7401    0.0000 C   0  0  0  0  0  0  0  0  0  0  0  0
   -3.6616   -1.4798    0.0000 H   0  0  0  0  0  0  0  0  0  0  0  0
   -2.6971   -3.1497    0.0000 H   0  0  0  0  0  0  0  0  0  0  0  0
   -0.8843   -2.4901    0.0000 O   0  0  0  0  0  0  0  0  0  0  0  0
    0.4157   -1.7401    0.0000 C   0  0  0  0  0  0  0  0  0  0  0  0
    1.7157   -2.4901    0.0000 C   0  0  0  0  0  0  0  0  0  0  0  0
    3.0157   -1.7401    0.0000 C   0  0  0  0  0  0  0  0  0  0  0  0
    3.0157   -0.2401    0.0000 C   0  0  0  0  0  0  0  0  0  0  0  0
    4.3146    0.5101    0.0000 H   0  0  0  0  0  0  0  0  0  0  0  0
    1.7157    0.5099    0.0000 C   0  0  0  0  0  0  0  0  0  0  0  0
    0.4157   -0.2401    0.0000 C   0  0  0  0  0  0  0  0  0  0  0  0
   -0.8843    0.5099    0.0000 N   0  0  0  0  0  0  0  0  0  0  0  0
   -0.8843    2.0099    0.0000 C   0  0  0  0  0  0  0  0  0  0  0  0
   -2.5989    3.0002    0.0000 H   0  0  0  0  0  0  0  0  0  0  0  0
    0.4157    2.7599    0.0000 C   0  0  0  0  0  0  0  0  0  0  0  0
    1.7157    2.0099    0.0000 C   0  0  0  0  0  0  0  0  0  0  0  0
    3.0146    2.7601    0.0000 O   0  0  0  0  0  0  0  0  0  0  0  0
    0.4157    4.2599    0.0000 C   0  0  0  0  0  0  0  0  0  0  0  0
   -0.8834    5.0099    0.0000 O   0  0  0  0  0  0  0  0  0  0  0  0
    1.7147    5.0099    0.0000 O   0  0  0  0  0  0  0  0  0  0  0  0
    1.7147    6.5099    0.0000 H   0  0  0  0  0  0  0  0  0  0  0  0
    4.3146   -2.4903    0.0000 F   0  0  0  0  0  0  0  0  0  0  0  0
    1.7157   -3.9901    0.0000 N   0  0  0  0  0  0  0  0  0  0  0  0
    0.4160   -4.7407    0.0000 C   0  0  0  0  0  0  0  0  0  0  0  0
   -0.0969   -3.3311    0.0000 H   0  0  0  0  0  0  0  0  0  0  0  0
   -1.0613   -5.0008    0.0000 H   0  0  0  0  0  0  0  0  0  0  0  0
    0.4153   -6.2415    0.0000 C   0  0  0  0  0  0  0  0  0  0  0  0
   -1.0618   -5.9805    0.0000 H   0  0  0  0  0  0  0  0  0  0  0  0
   -0.0981   -7.6509    0.0000 H   0  0  0  0  0  0  0  0  0  0  0  0
    1.7142   -6.9917    0.0000 N   0  0  0  0  0  0  0  0  0  0  0  0
    1.7142   -8.4917    0.0000 C   0  0  0  0  0  0  0  0  0  0  0  0
    3.0132   -9.2417    0.0000 H   0  0  0  0  0  0  0  0  0  0  0  0
    0.4152   -9.2417    0.0000 H   0  0  0  0  0  0  0  0  0  0  0  0
    3.0139   -6.2411    0.0000 C   0  0  0  0  0  0  0  0  0  0  0  0
    3.5268   -7.6507    0.0000 H   0  0  0  0  0  0  0  0  0  0  0  0
    4.4911   -5.9810    0.0000 H   0  0  0  0  0  0  0  0  0  0  0  0
    3.0146   -4.7403    0.0000 C   0  0  0  0  0  0  0  0  0  0  0  0
    4.4917   -5.0013    0.0000 H   0  0  0  0  0  0  0  0  0  0  0  0
    3.5280   -3.3309    0.0000 H   0  0  0  0  0  0  0  0  0  0  0  0
  1  2  1  0  0  0  0 
  1  3  1  0  0  0  0 
  1  4  1  0  0  0  0 
  5  1  1  6  0  0  0 
  5  6  1  1  0  0  0 
  5  7  1  0  0  0  0 
  7  8  1  0  0  0  0 
  7  9  1  0  0  0  0 
  7 10  1  0  0  0  0 
 10 11  1  0  0  0  0 
 11 12  2  0  0  0  0 
 12 13  1  0  0  0  0 
 13 14  2  0  0  0  0 
 14 15  1  0  0  0  0 
 14 16  1  0  0  0  0 
 16 17  2  0  0  0  0 
 11 17  1  0  0  0  0 
 17 18  1  0  0  0  0 
  5 18  1  0  0  0  0 
 18 19  1  0  0  0  0 
 19 20  1  0  0  0  0 
 19 21  2  0  0  0  0 
 21 22  1  0  0  0  0 
 16 22  1  0  0  0  0 
 22 23  2  0  0  0  0 
 21 24  1  0  0  0  0 
 24 25  2  0  0  0  0 
 24 26  1  0  0  0  0 
 26 27  1  0  0  0  0 
 13 28  1  0  0  0  0 
 12 29  1  0  0  0  0 
 29 30  1  0  0  0  0 
 30 31  1  0  0  0  0 
 30 32  1  0  0  0  0 
 30 33  1  0  0  0  0 
 33 34  1  0  0  0  0 
 33 35  1  0  0  0  0 
 33 36  1  0  0  0  0 
 36 37  2  0  0  0  0 
 37 38  1  0  0  0  0 
 37 39  1  0  0  0  0 
 36 40  1  0  0  0  0 
 40 41  1  0  0  0  0 
 40 42  1  0  0  0  0 
 40 43  1  0  0  0  0 
 29 43  1  0  0  0  0 
 43 44  1  0  0  0  0 
 43 45  1  0  0  0  0 
M  CHG  1  36   1
M  END
> <Rank>
10

> <Priority_score>
0.188

> <Reaction_type>
dehydration of N-C bond

> <Parent_ID>
55

> <Parent_InChI>
InChI=1S/C18H20FN3O4/c1-10-9-26-17-14-11(16(23)12(18(24)25)8-22(10)14)7-13(19)15(17)21-5-3-20(2)4-6-21/h7-8,10H,3-6,9H2,1-2H3,(H,24,25)

> <Parent_SMILES>
C[C@H]1COc2c(N3CCN(C)CC3)c(F)cc3c(=O)c(C(=O)O)cn1c23

$$$$
Molecule 55_metabolite 11
  CDK     0516241031

 67 71  0  0  0  0  0  0  0  0999 V2000
   -2.4562    1.8112    0.0000 C   0  0  0  0  0  0  0  0  0  0  0  0
   -1.4918    2.9600    0.0000 H   0  0  0  0  0  0  0  0  0  0  0  0
   -3.7554    1.0615    0.0000 H   0  0  0  0  0  0  0  0  0  0  0  0
   -3.4201    2.9605    0.0000 H   0  0  0  0  0  0  0  0  0  0  0  0
   -1.9435    0.4015    0.0000 C   0  0  1  0  0  0  0  0  0  0  0  0
   -3.4207    0.1412    0.0000 H   0  0  0  0  0  0  0  0  0  0  0  0
   -1.9435   -1.0985    0.0000 C   0  0  0  0  0  0  0  0  0  0  0  0
   -3.4207   -0.8381    0.0000 H   0  0  0  0  0  0  0  0  0  0  0  0
   -2.4562   -2.5081    0.0000 H   0  0  0  0  0  0  0  0  0  0  0  0
   -0.6435   -1.8485    0.0000 O   0  0  0  0  0  0  0  0  0  0  0  0
    0.6565   -1.0985    0.0000 C   0  0  0  0  0  0  0  0  0  0  0  0
    1.9565   -1.8485    0.0000 C   0  0  0  0  0  0  0  0  0  0  0  0
    3.2565   -1.0985    0.0000 C   0  0  0  0  0  0  0  0  0  0  0  0
    3.2565    0.4015    0.0000 C   0  0  0  0  0  0  0  0  0  0  0  0
    4.5554    1.1517    0.0000 H   0  0  0  0  0  0  0  0  0  0  0  0
    1.9565    1.1515    0.0000 C   0  0  0  0  0  0  0  0  0  0  0  0
    0.6565    0.4015    0.0000 C   0  0  0  0  0  0  0  0  0  0  0  0
   -0.6435    1.1515    0.0000 N   0  0  0  0  0  0  0  0  0  0  0  0
   -0.6435    2.6515    0.0000 C   0  0  0  0  0  0  0  0  0  0  0  0
   -2.7737    3.8819    0.0000 H   0  0  0  0  0  0  0  0  0  0  0  0
    0.6565    3.4015    0.0000 C   0  0  0  0  0  0  0  0  0  0  0  0
    1.9565    2.6515    0.0000 C   0  0  0  0  0  0  0  0  0  0  0  0
    3.2554    3.4017    0.0000 O   0  0  0  0  0  0  0  0  0  0  0  0
    0.6565    4.9015    0.0000 C   0  0  0  0  0  0  0  0  0  0  0  0
   -0.6425    5.6515    0.0000 O   0  0  0  0  0  0  0  0  0  0  0  0
    1.9556    5.6515    0.0000 O   0  0  0  0  0  0  0  0  0  0  0  0
    1.9556    7.1515    0.0000 H   0  0  0  0  0  0  0  0  0  0  0  0
    4.5554   -1.8487    0.0000 F   0  0  0  0  0  0  0  0  0  0  0  0
    1.9565   -3.3485    0.0000 N   0  0  0  0  0  0  0  0  0  0  0  0
    3.2565   -4.0985    0.0000 C   0  0  0  0  0  0  0  0  0  0  0  0
    4.7338   -4.3588    0.0000 H   0  0  0  0  0  0  0  0  0  0  0  0
    3.7692   -2.6888    0.0000 H   0  0  0  0  0  0  0  0  0  0  0  0
    3.2565   -5.5985    0.0000 C   0  0  0  0  0  0  0  0  0  0  0  0
    3.7692   -7.0081    0.0000 H   0  0  0  0  0  0  0  0  0  0  0  0
    4.7338   -5.3381    0.0000 H   0  0  0  0  0  0  0  0  0  0  0  0
    1.9565   -6.3485    0.0000 N   0  0  0  0  0  0  0  0  0  0  0  0
    0.9925   -7.4976    0.0000 C   0  0  0  0  0  0  0  0  0  0  0  0
   -1.4302   -7.0707    0.0000 H   0  0  0  0  0  0  0  0  0  0  0  0
    3.1230   -8.7274    0.0000 H   0  0  0  0  0  0  0  0  0  0  0  0
    0.4796   -8.9072    0.0000 H   0  0  0  0  0  0  0  0  0  0  0  0
    0.6565   -5.5985    0.0000 C   0  0  0  0  0  0  0  0  0  0  0  0
   -0.8207   -5.3381    0.0000 H   0  0  0  0  0  0  0  0  0  0  0  0
    0.1438   -7.0081    0.0000 H   0  0  0  0  0  0  0  0  0  0  0  0
    0.6565   -4.0985    0.0000 C   0  0  0  0  0  0  0  0  0  0  0  0
    0.1438   -2.6888    0.0000 H   0  0  0  0  0  0  0  0  0  0  0  0
   -0.8207   -4.3588    0.0000 H   0  0  0  0  0  0  0  0  0  0  0  0
    3.8461   -8.6008    0.0000 C   0  0  0  0  0  0  0  0  0  0  0  0
    5.1191   -7.0843    0.0000 H   0  0  0  0  0  0  0  0  0  0  0  0
    5.1449   -9.3513    0.0000 C   0  0  0  0  0  0  0  0  0  0  0  0
    5.6585   -7.9419    0.0000 H   0  0  0  0  0  0  0  0  0  0  0  0
    5.1439  -10.8521    0.0000 C   0  0  0  0  0  0  0  0  0  0  0  0
    6.6212  -10.5922    0.0000 H   0  0  0  0  0  0  0  0  0  0  0  0
    3.8441  -11.6025    0.0000 C   0  0  0  0  0  0  0  0  0  0  0  0
    4.8082  -12.7517    0.0000 H   0  0  0  0  0  0  0  0  0  0  0  0
    2.5454  -10.8521    0.0000 C   0  0  0  0  0  0  0  0  0  0  0  0
    2.0317  -12.2614    0.0000 H   0  0  0  0  0  0  0  0  0  0  0  0
    0.1230  -10.4236    0.0000 C   0  0  0  0  0  0  0  0  0  0  0  0
   -0.3893   -9.0138    0.0000 O   0  0  0  0  0  0  0  0  0  0  0  0
   -0.8418  -11.5722    0.0000 O   0  0  0  0  0  0  0  0  0  0  0  0
   -0.3296  -12.9820    0.0000 H   0  0  0  0  0  0  0  0  0  0  0  0
    2.5463   -9.3513    0.0000 O   0  0  0  0  0  0  0  0  0  0  0  0
    2.8797  -12.7514    0.0000 O   0  0  0  0  0  0  0  0  0  0  0  0
    3.3925  -14.1610    0.0000 H   0  0  0  0  0  0  0  0  0  0  0  0
    5.6566  -12.2617    0.0000 O   0  0  0  0  0  0  0  0  0  0  0  0
    7.1338  -12.5225    0.0000 H   0  0  0  0  0  0  0  0  0  0  0  0
    6.6219   -9.6125    0.0000 O   0  0  0  0  0  0  0  0  0  0  0  0
    7.5867   -8.4640    0.0000 H   0  0  0  0  0  0  0  0  0  0  0  0
  1  2  1  0  0  0  0 
  1  3  1  0  0  0  0 
  1  4  1  0  0  0  0 
  5  1  1  6  0  0  0 
  5  6  1  1  0  0  0 
  5  7  1  0  0  0  0 
  7  8  1  0  0  0  0 
  7  9  1  0  0  0  0 
  7 10  1  0  0  0  0 
 10 11  1  0  0  0  0 
 11 12  2  0  0  0  0 
 12 13  1  0  0  0  0 
 13 14  2  0  0  0  0 
 14 15  1  0  0  0  0 
 14 16  1  0  0  0  0 
 16 17  2  0  0  0  0 
 11 17  1  0  0  0  0 
 17 18  1  0  0  0  0 
  5 18  1  0  0  0  0 
 18 19  1  0  0  0  0 
 19 20  1  0  0  0  0 
 19 21  2  0  0  0  0 
 21 22  1  0  0  0  0 
 16 22  1  0  0  0  0 
 22 23  2  0  0  0  0 
 21 24  1  0  0  0  0 
 24 25  2  0  0  0  0 
 24 26  1  0  0  0  0 
 26 27  1  0  0  0  0 
 13 28  1  0  0  0  0 
 12 29  1  0  0  0  0 
 29 30  1  0  0  0  0 
 30 31  1  0  0  0  0 
 30 32  1  0  0  0  0 
 30 33  1  0  0  0  0 
 33 34  1  0  0  0  0 
 33 35  1  0  0  0  0 
 33 36  1  0  0  0  0 
 36 37  1  0  0  0  0 
 37 38  1  0  0  0  0 
 37 39  1  0  0  0  0 
 37 40  1  0  0  0  0 
 36 41  1  0  0  0  0 
 41 42  1  0  0  0  0 
 41 43  1  0  0  0  0 
 41 44  1  0  0  0  0 
 29 44  1  0  0  0  0 
 44 45  1  0  0  0  0 
 44 46  1  0  0  0  0 
 36 47  1  0  0  0  0 
 47 48  1  0  0  0  0 
 47 49  1  0  0  0  0 
 49 50  1  0  0  0  0 
 49 51  1  0  0  0  0 
 51 52  1  0  0  0  0 
 51 53  1  0  0  0  0 
 53 54  1  0  0  0  0 
 53 55  1  0  0  0  0 
 55 56  1  0  0  0  0 
 55 57  1  0  0  0  0 
 57 58  2  0  0  0  0 
 57 59  1  0  0  0  0 
 59 60  1  0  0  0  0 
 55 61  1  0  0  0  0 
 47 61  1  0  0  0  0 
 53 62  1  0  0  0  0 
 62 63  1  0  0  0  0 
 51 64  1  0  0  0  0 
 64 65  1  0  0  0  0 
 49 66  1  0  0  0  0 
 66 67  1  0  0  0  0 
M  CHG  1  36   1
M  END
> <Rank>
11

> <Priority_score>
0.18

> <Reaction_type>
N-glucuronidation_(NCH3_in_a_ring)

> <Parent_ID>
55

> <Parent_InChI>
InChI=1S/C18H20FN3O4/c1-10-9-26-17-14-11(16(23)12(18(24)25)8-22(10)14)7-13(19)15(17)21-5-3-20(2)4-6-21/h7-8,10H,3-6,9H2,1-2H3,(H,24,25)

> <Parent_SMILES>
C[C@H]1COc2c(N3CCN(C)CC3)c(F)cc3c(=O)c(C(=O)O)cn1c23

$$$$
Molecule 55_metabolite 12
  CDK     0516241031

 45 48  0  0  0  0  0  0  0  0999 V2000
   -2.6971    1.1696    0.0000 C   0  0  0  0  0  0  0  0  0  0  0  0
   -1.7326    2.3184    0.0000 H   0  0  0  0  0  0  0  0  0  0  0  0
   -3.9963    0.4199    0.0000 H   0  0  0  0  0  0  0  0  0  0  0  0
   -3.6610    2.3189    0.0000 H   0  0  0  0  0  0  0  0  0  0  0  0
   -2.1843   -0.2401    0.0000 C   0  0  1  0  0  0  0  0  0  0  0  0
   -3.6616   -0.5004    0.0000 H   0  0  0  0  0  0  0  0  0  0  0  0
   -2.1843   -1.7401    0.0000 C   0  0  0  0  0  0  0  0  0  0  0  0
   -3.6616   -1.4798    0.0000 H   0  0  0  0  0  0  0  0  0  0  0  0
   -2.6971   -3.1497    0.0000 H   0  0  0  0  0  0  0  0  0  0  0  0
   -0.8843   -2.4901    0.0000 O   0  0  0  0  0  0  0  0  0  0  0  0
    0.4157   -1.7401    0.0000 C   0  0  0  0  0  0  0  0  0  0  0  0
    1.7157   -2.4901    0.0000 C   0  0  0  0  0  0  0  0  0  0  0  0
    3.0157   -1.7401    0.0000 C   0  0  0  0  0  0  0  0  0  0  0  0
    3.0157   -0.2401    0.0000 C   0  0  0  0  0  0  0  0  0  0  0  0
    4.3146    0.5101    0.0000 H   0  0  0  0  0  0  0  0  0  0  0  0
    1.7157    0.5099    0.0000 C   0  0  0  0  0  0  0  0  0  0  0  0
    0.4157   -0.2401    0.0000 C   0  0  0  0  0  0  0  0  0  0  0  0
   -0.8843    0.5099    0.0000 N   0  0  0  0  0  0  0  0  0  0  0  0
   -0.8843    2.0099    0.0000 C   0  0  0  0  0  0  0  0  0  0  0  0
   -2.5989    3.0002    0.0000 H   0  0  0  0  0  0  0  0  0  0  0  0
    0.4157    2.7599    0.0000 C   0  0  0  0  0  0  0  0  0  0  0  0
    1.7157    2.0099    0.0000 C   0  0  0  0  0  0  0  0  0  0  0  0
    3.0146    2.7601    0.0000 O   0  0  0  0  0  0  0  0  0  0  0  0
    0.4157    4.2599    0.0000 C   0  0  0  0  0  0  0  0  0  0  0  0
   -0.8834    5.0099    0.0000 O   0  0  0  0  0  0  0  0  0  0  0  0
    1.7147    5.0099    0.0000 O   0  0  0  0  0  0  0  0  0  0  0  0
    1.7147    6.5099    0.0000 H   0  0  0  0  0  0  0  0  0  0  0  0
    4.3146   -2.4903    0.0000 F   0  0  0  0  0  0  0  0  0  0  0  0
    1.7157   -3.9901    0.0000 N   0  0  0  0  0  0  0  0  0  0  0  0
    0.4160   -4.7407    0.0000 C   0  0  0  0  0  0  0  0  0  0  0  0
   -0.0969   -3.3311    0.0000 H   0  0  0  0  0  0  0  0  0  0  0  0
   -1.0613   -5.0008    0.0000 H   0  0  0  0  0  0  0  0  0  0  0  0
    0.4153   -6.2415    0.0000 C   0  0  0  0  0  0  0  0  0  0  0  0
   -0.8840   -6.9911    0.0000 H   0  0  0  0  0  0  0  0  0  0  0  0
    1.7142   -6.9917    0.0000 N   0  0  0  0  0  0  0  0  0  0  0  0
    1.7142   -8.4917    0.0000 C   0  0  0  0  0  0  0  0  0  0  0  0
    3.0132   -9.2417    0.0000 H   0  0  0  0  0  0  0  0  0  0  0  0
    0.2370   -8.2313    0.0000 H   0  0  0  0  0  0  0  0  0  0  0  0
    1.2012   -9.9013    0.0000 H   0  0  0  0  0  0  0  0  0  0  0  0
    3.0139   -6.2411    0.0000 C   0  0  0  0  0  0  0  0  0  0  0  0
    3.5268   -7.6507    0.0000 H   0  0  0  0  0  0  0  0  0  0  0  0
    4.4911   -5.9810    0.0000 H   0  0  0  0  0  0  0  0  0  0  0  0
    3.0146   -4.7403    0.0000 C   0  0  0  0  0  0  0  0  0  0  0  0
    4.4917   -5.0013    0.0000 H   0  0  0  0  0  0  0  0  0  0  0  0
    3.5280   -3.3309    0.0000 H   0  0  0  0  0  0  0  0  0  0  0  0
  1  2  1  0  0  0  0 
  1  3  1  0  0  0  0 
  1  4  1  0  0  0  0 
  5  1  1  6  0  0  0 
  5  6  1  1  0  0  0 
  5  7  1  0  0  0  0 
  7  8  1  0  0  0  0 
  7  9  1  0  0  0  0 
  7 10  1  0  0  0  0 
 10 11  1  0  0  0  0 
 11 12  2  0  0  0  0 
 12 13  1  0  0  0  0 
 13 14  2  0  0  0  0 
 14 15  1  0  0  0  0 
 14 16  1  0  0  0  0 
 16 17  2  0  0  0  0 
 11 17  1  0  0  0  0 
 17 18  1  0  0  0  0 
  5 18  1  0  0  0  0 
 18 19  1  0  0  0  0 
 19 20  1  0  0  0  0 
 19 21  2  0  0  0  0 
 21 22  1  0  0  0  0 
 16 22  1  0  0  0  0 
 22 23  2  0  0  0  0 
 21 24  1  0  0  0  0 
 24 25  2  0  0  0  0 
 24 26  1  0  0  0  0 
 26 27  1  0  0  0  0 
 13 28  1  0  0  0  0 
 12 29  1  0  0  0  0 
 29 30  1  0  0  0  0 
 30 31  1  0  0  0  0 
 30 32  1  0  0  0  0 
 30 33  1  0  0  0  0 
 33 34  1  0  0  0  0 
 33 35  2  0  0  0  0 
 35 36  1  0  0  0  0 
 36 37  1  0  0  0  0 
 36 38  1  0  0  0  0 
 36 39  1  0  0  0  0 
 35 40  1  0  0  0  0 
 40 41  1  0  0  0  0 
 40 42  1  0  0  0  0 
 40 43  1  0  0  0  0 
 29 43  1  0  0  0  0 
 43 44  1  0  0  0  0 
 43 45  1  0  0  0  0 
M  CHG  1  35   1
M  END
> <Rank>
12

> <Priority_score>
0.16080000000000003

> <Reaction_type>
dehydration of N-C bond

> <Parent_ID>
55

> <Parent_InChI>
InChI=1S/C18H20FN3O4/c1-10-9-26-17-14-11(16(23)12(18(24)25)8-22(10)14)7-13(19)15(17)21-5-3-20(2)4-6-21/h7-8,10H,3-6,9H2,1-2H3,(H,24,25)

> <Parent_SMILES>
C[C@H]1COc2c(N3CCN(C)CC3)c(F)cc3c(=O)c(C(=O)O)cn1c23

$$$$
Molecule 55_metabolite 13
  CDK     0516241031

 53 56  0  0  0  0  0  0  0  0999 V2000
   -2.6971    1.6496    0.0000 C   0  0  0  0  0  0  0  0  0  0  0  0
   -1.7326    2.7984    0.0000 H   0  0  0  0  0  0  0  0  0  0  0  0
   -3.9963    0.8999    0.0000 H   0  0  0  0  0  0  0  0  0  0  0  0
   -3.6610    2.7989    0.0000 H   0  0  0  0  0  0  0  0  0  0  0  0
   -2.1843    0.2399    0.0000 C   0  0  1  0  0  0  0  0  0  0  0  0
   -3.6616   -0.0204    0.0000 H   0  0  0  0  0  0  0  0  0  0  0  0
   -2.1843   -1.2601    0.0000 C   0  0  0  0  0  0  0  0  0  0  0  0
   -3.6616   -0.9998    0.0000 H   0  0  0  0  0  0  0  0  0  0  0  0
   -2.6971   -2.6697    0.0000 H   0  0  0  0  0  0  0  0  0  0  0  0
   -0.8843   -2.0101    0.0000 O   0  0  0  0  0  0  0  0  0  0  0  0
    0.4157   -1.2601    0.0000 C   0  0  0  0  0  0  0  0  0  0  0  0
    1.7157   -2.0101    0.0000 C   0  0  0  0  0  0  0  0  0  0  0  0
    3.0157   -1.2601    0.0000 C   0  0  0  0  0  0  0  0  0  0  0  0
    3.0157    0.2399    0.0000 C   0  0  0  0  0  0  0  0  0  0  0  0
    4.3146    0.9901    0.0000 H   0  0  0  0  0  0  0  0  0  0  0  0
    1.7157    0.9899    0.0000 C   0  0  0  0  0  0  0  0  0  0  0  0
    0.4157    0.2399    0.0000 C   0  0  0  0  0  0  0  0  0  0  0  0
   -0.8843    0.9899    0.0000 N   0  0  0  0  0  0  0  0  0  0  0  0
   -0.8843    2.4899    0.0000 C   0  0  0  0  0  0  0  0  0  0  0  0
   -2.5989    3.4802    0.0000 H   0  0  0  0  0  0  0  0  0  0  0  0
    0.4157    3.2399    0.0000 C   0  0  0  0  0  0  0  0  0  0  0  0
    1.7157    2.4899    0.0000 C   0  0  0  0  0  0  0  0  0  0  0  0
    3.0146    3.2401    0.0000 O   0  0  0  0  0  0  0  0  0  0  0  0
    0.4157    4.7399    0.0000 C   0  0  0  0  0  0  0  0  0  0  0  0
   -0.8834    5.4899    0.0000 O   0  0  0  0  0  0  0  0  0  0  0  0
    1.7147    5.4899    0.0000 N   0  0  0  0  0  0  0  0  0  0  0  0
    3.0137    4.7399    0.0000 H   0  0  0  0  0  0  0  0  0  0  0  0
    1.7147    6.9899    0.0000 C   0  0  0  0  0  0  0  0  0  0  0  0
    1.2017    8.3995    0.0000 H   0  0  0  0  0  0  0  0  0  0  0  0
    0.2375    6.7295    0.0000 H   0  0  0  0  0  0  0  0  0  0  0  0
    3.0137    7.7399    0.0000 C   0  0  0  0  0  0  0  0  0  0  0  0
    4.3128    6.9899    0.0000 O   0  0  0  0  0  0  0  0  0  0  0  0
    3.0137    9.2399    0.0000 O   0  0  0  0  0  0  0  0  0  0  0  0
    4.3128    9.9899    0.0000 H   0  0  0  0  0  0  0  0  0  0  0  0
    4.3146   -2.0103    0.0000 F   0  0  0  0  0  0  0  0  0  0  0  0
    1.7157   -3.5101    0.0000 N   0  0  0  0  0  0  0  0  0  0  0  0
    0.4160   -4.2607    0.0000 C   0  0  0  0  0  0  0  0  0  0  0  0
   -0.0969   -2.8511    0.0000 H   0  0  0  0  0  0  0  0  0  0  0  0
   -1.0613   -4.5208    0.0000 H   0  0  0  0  0  0  0  0  0  0  0  0
    0.4153   -5.7615    0.0000 C   0  0  0  0  0  0  0  0  0  0  0  0
   -1.0618   -5.5005    0.0000 H   0  0  0  0  0  0  0  0  0  0  0  0
   -0.0981   -7.1709    0.0000 H   0  0  0  0  0  0  0  0  0  0  0  0
    1.7142   -6.5117    0.0000 N   0  0  0  0  0  0  0  0  0  0  0  0
    1.7142   -8.4917    0.0000 C   0  0  0  0  0  0  0  0  0  0  0  0
    3.0132   -9.2417    0.0000 H   0  0  0  0  0  0  0  0  0  0  0  0
    0.2370   -8.2313    0.0000 H   0  0  0  0  0  0  0  0  0  0  0  0
    1.2012   -9.9013    0.0000 H   0  0  0  0  0  0  0  0  0  0  0  0
    3.0139   -5.7611    0.0000 C   0  0  0  0  0  0  0  0  0  0  0  0
    3.5268   -7.1707    0.0000 H   0  0  0  0  0  0  0  0  0  0  0  0
    4.4911   -5.5010    0.0000 H   0  0  0  0  0  0  0  0  0  0  0  0
    3.0146   -4.2603    0.0000 C   0  0  0  0  0  0  0  0  0  0  0  0
    4.4917   -4.5213    0.0000 H   0  0  0  0  0  0  0  0  0  0  0  0
    3.5280   -2.8509    0.0000 H   0  0  0  0  0  0  0  0  0  0  0  0
  1  2  1  0  0  0  0 
  1  3  1  0  0  0  0 
  1  4  1  0  0  0  0 
  5  1  1  6  0  0  0 
  5  6  1  1  0  0  0 
  5  7  1  0  0  0  0 
  7  8  1  0  0  0  0 
  7  9  1  0  0  0  0 
  7 10  1  0  0  0  0 
 10 11  1  0  0  0  0 
 11 12  2  0  0  0  0 
 12 13  1  0  0  0  0 
 13 14  2  0  0  0  0 
 14 15  1  0  0  0  0 
 14 16  1  0  0  0  0 
 16 17  2  0  0  0  0 
 11 17  1  0  0  0  0 
 17 18  1  0  0  0  0 
  5 18  1  0  0  0  0 
 18 19  1  0  0  0  0 
 19 20  1  0  0  0  0 
 19 21  2  0  0  0  0 
 21 22  1  0  0  0  0 
 16 22  1  0  0  0  0 
 22 23  2  0  0  0  0 
 21 24  1  0  0  0  0 
 24 25  2  0  0  0  0 
 24 26  1  0  0  0  0 
 26 27  1  0  0  0  0 
 26 28  1  0  0  0  0 
 28 29  1  0  0  0  0 
 28 30  1  0  0  0  0 
 28 31  1  0  0  0  0 
 31 32  2  0  0  0  0 
 31 33  1  0  0  0  0 
 33 34  1  0  0  0  0 
 13 35  1  0  0  0  0 
 12 36  1  0  0  0  0 
 36 37  1  0  0  0  0 
 37 38  1  0  0  0  0 
 37 39  1  0  0  0  0 
 37 40  1  0  0  0  0 
 40 41  1  0  0  0  0 
 40 42  1  0  0  0  0 
 40 43  1  0  0  0  0 
 43 44  1  0  0  0  0 
 44 45  1  0  0  0  0 
 44 46  1  0  0  0  0 
 44 47  1  0  0  0  0 
 43 48  1  0  0  0  0 
 48 49  1  0  0  0  0 
 48 50  1  0  0  0  0 
 48 51  1  0  0  0  0 
 36 51  1  0  0  0  0 
 51 52  1  0  0  0  0 
 51 53  1  0  0  0  0 
M  END
> <Rank>
13

> <Priority_score>
0.1487003012048193

> <Reaction_type>
glycination_(aromatic_carboxyl)

> <Parent_ID>
55

> <Parent_InChI>
InChI=1S/C18H20FN3O4/c1-10-9-26-17-14-11(16(23)12(18(24)25)8-22(10)14)7-13(19)15(17)21-5-3-20(2)4-6-21/h7-8,10H,3-6,9H2,1-2H3,(H,24,25)

> <Parent_SMILES>
C[C@H]1COc2c(N3CCN(C)CC3)c(F)cc3c(=O)c(C(=O)O)cn1c23

$$$$
Molecule 55_metabolite 14
  CDK     0516241031

 47 50  0  0  0  0  0  0  0  0999 V2000
   -3.4213    1.5220    0.0000 C   0  0  0  0  0  0  0  0  0  0  0  0
   -2.1483    3.0385    0.0000 H   0  0  0  0  0  0  0  0  0  0  0  0
   -4.7205    0.7723    0.0000 H   0  0  0  0  0  0  0  0  0  0  0  0
   -4.3853    2.6713    0.0000 H   0  0  0  0  0  0  0  0  0  0  0  0
   -2.5805   -0.7898    0.0000 C   0  0  1  0  0  0  0  0  0  0  0  0
   -4.0577   -1.0501    0.0000 H   0  0  0  0  0  0  0  0  0  0  0  0
   -2.5805   -2.2898    0.0000 C   0  0  0  0  0  0  0  0  0  0  0  0
   -4.0577   -2.0295    0.0000 H   0  0  0  0  0  0  0  0  0  0  0  0
   -3.0932   -3.6995    0.0000 H   0  0  0  0  0  0  0  0  0  0  0  0
   -1.2805   -3.0398    0.0000 O   0  0  0  0  0  0  0  0  0  0  0  0
    0.0195   -2.2898    0.0000 C   0  0  0  0  0  0  0  0  0  0  0  0
    1.3195   -3.0398    0.0000 C   0  0  0  0  0  0  0  0  0  0  0  0
    2.6195   -2.2898    0.0000 C   0  0  0  0  0  0  0  0  0  0  0  0
    2.6195   -0.7898    0.0000 C   0  0  0  0  0  0  0  0  0  0  0  0
    3.9184   -0.0396    0.0000 H   0  0  0  0  0  0  0  0  0  0  0  0
    1.3195   -0.0398    0.0000 C   0  0  0  0  0  0  0  0  0  0  0  0
    0.0195   -0.7898    0.0000 C   0  0  0  0  0  0  0  0  0  0  0  0
   -1.2805   -0.0398    0.0000 N   0  0  0  0  0  0  0  0  0  0  0  0
   -1.2805    1.4602    0.0000 C   0  0  0  0  0  0  0  0  0  0  0  0
   -2.5794    2.2104    0.0000 H   0  0  0  0  0  0  0  0  0  0  0  0
    0.0195    2.2102    0.0000 C   0  0  0  0  0  0  0  0  0  0  0  0
    1.3195    1.4602    0.0000 C   0  0  0  0  0  0  0  0  0  0  0  0
    2.6184    2.2104    0.0000 O   0  0  0  0  0  0  0  0  0  0  0  0
    0.0195    3.7102    0.0000 C   0  0  0  0  0  0  0  0  0  0  0  0
   -1.2795    4.4602    0.0000 O   0  0  0  0  0  0  0  0  0  0  0  0
    1.3186    4.4602    0.0000 O   0  0  0  0  0  0  0  0  0  0  0  0
    1.3186    5.9602    0.0000 H   0  0  0  0  0  0  0  0  0  0  0  0
   -2.5794    0.7104    0.0000 O   0  0  0  0  0  0  0  0  0  0  0  0
    3.9184   -3.0400    0.0000 F   0  0  0  0  0  0  0  0  0  0  0  0
    1.3195   -4.5398    0.0000 N   0  0  0  0  0  0  0  0  0  0  0  0
    0.0199   -5.2904    0.0000 C   0  0  0  0  0  0  0  0  0  0  0  0
   -0.4931   -3.8809    0.0000 H   0  0  0  0  0  0  0  0  0  0  0  0
   -1.4574   -5.5505    0.0000 H   0  0  0  0  0  0  0  0  0  0  0  0
    0.0192   -6.7913    0.0000 C   0  0  0  0  0  0  0  0  0  0  0  0
   -1.4579   -6.5302    0.0000 H   0  0  0  0  0  0  0  0  0  0  0  0
   -0.4942   -8.2007    0.0000 H   0  0  0  0  0  0  0  0  0  0  0  0
    1.3181   -7.5415    0.0000 N   0  0  0  0  0  0  0  0  0  0  0  0
    1.3181   -9.5215    0.0000 C   0  0  0  0  0  0  0  0  0  0  0  0
    2.6171  -10.2715    0.0000 H   0  0  0  0  0  0  0  0  0  0  0  0
   -0.1591   -9.2610    0.0000 H   0  0  0  0  0  0  0  0  0  0  0  0
    0.8051  -10.9310    0.0000 H   0  0  0  0  0  0  0  0  0  0  0  0
    2.6177   -6.7909    0.0000 C   0  0  0  0  0  0  0  0  0  0  0  0
    3.1307   -8.2004    0.0000 H   0  0  0  0  0  0  0  0  0  0  0  0
    4.0950   -6.5308    0.0000 H   0  0  0  0  0  0  0  0  0  0  0  0
    2.6184   -5.2900    0.0000 C   0  0  0  0  0  0  0  0  0  0  0  0
    4.0956   -5.5510    0.0000 H   0  0  0  0  0  0  0  0  0  0  0  0
    3.1319   -3.8806    0.0000 H   0  0  0  0  0  0  0  0  0  0  0  0
  1  2  1  0  0  0  0 
  1  3  1  0  0  0  0 
  1  4  1  0  0  0  0 
  5  1  1  6  0  0  0 
  5  6  1  1  0  0  0 
  5  7  1  0  0  0  0 
  7  8  1  0  0  0  0 
  7  9  1  0  0  0  0 
  7 10  1  0  0  0  0 
 10 11  1  0  0  0  0 
 11 12  2  0  0  0  0 
 12 13  1  0  0  0  0 
 13 14  2  0  0  0  0 
 14 15  1  0  0  0  0 
 14 16  1  0  0  0  0 
 16 17  2  0  0  0  0 
 11 17  1  0  0  0  0 
 17 18  1  0  0  0  0 
  5 18  1  0  0  0  0 
 18 19  1  0  0  0  0 
 19 20  1  0  0  0  0 
 19 21  2  0  0  0  0 
 21 22  1  0  0  0  0 
 16 22  1  0  0  0  0 
 22 23  2  0  0  0  0 
 21 24  1  0  0  0  0 
 24 25  2  0  0  0  0 
 24 26  1  0  0  0  0 
 26 27  1  0  0  0  0 
 18 28  1  0  0  0  0 
 13 29  1  0  0  0  0 
 12 30  1  0  0  0  0 
 30 31  1  0  0  0  0 
 31 32  1  0  0  0  0 
 31 33  1  0  0  0  0 
 31 34  1  0  0  0  0 
 34 35  1  0  0  0  0 
 34 36  1  0  0  0  0 
 34 37  1  0  0  0  0 
 37 38  1  0  0  0  0 
 38 39  1  0  0  0  0 
 38 40  1  0  0  0  0 
 38 41  1  0  0  0  0 
 37 42  1  0  0  0  0 
 42 43  1  0  0  0  0 
 42 44  1  0  0  0  0 
 42 45  1  0  0  0  0 
 30 45  1  0  0  0  0 
 45 46  1  0  0  0  0 
 45 47  1  0  0  0  0 
M  CHG  1  18   1
M  CHG  1  28  -1
M  END
> <Rank>
14

> <Priority_score>
0.116

> <Reaction_type>
N-oxidation

> <Parent_ID>
55

> <Parent_InChI>
InChI=1S/C18H20FN3O4/c1-10-9-26-17-14-11(16(23)12(18(24)25)8-22(10)14)7-13(19)15(17)21-5-3-20(2)4-6-21/h7-8,10H,3-6,9H2,1-2H3,(H,24,25)

> <Parent_SMILES>
C[C@H]1COc2c(N3CCN(C)CC3)c(F)cc3c(=O)c(C(=O)O)cn1c23

$$$$
Molecule 55_metabolite 15
  CDK     0516241031

 48 51  0  0  0  0  0  0  0  0999 V2000
   -0.7692    1.0363    0.0000 C   0  0  0  0  0  0  0  0  0  0  0  0
    0.1953    2.1851    0.0000 H   0  0  0  0  0  0  0  0  0  0  0  0
   -2.0684    0.2866    0.0000 H   0  0  0  0  0  0  0  0  0  0  0  0
   -2.3500    2.9211    0.0000 H   0  0  0  0  0  0  0  0  0  0  0  0
   -0.2564   -0.3734    0.0000 C   0  0  1  0  0  0  0  0  0  0  0  0
   -1.7337   -0.6337    0.0000 H   0  0  0  0  0  0  0  0  0  0  0  0
   -0.2564   -1.8734    0.0000 C   0  0  0  0  0  0  0  0  0  0  0  0
   -1.7337   -1.6131    0.0000 H   0  0  0  0  0  0  0  0  0  0  0  0
   -0.7692   -3.2830    0.0000 H   0  0  0  0  0  0  0  0  0  0  0  0
    1.0436   -2.6234    0.0000 O   0  0  0  0  0  0  0  0  0  0  0  0
    2.3436   -1.8734    0.0000 C   0  0  0  0  0  0  0  0  0  0  0  0
    3.6436   -2.6234    0.0000 C   0  0  0  0  0  0  0  0  0  0  0  0
    4.9436   -1.8734    0.0000 C   0  0  0  0  0  0  0  0  0  0  0  0
    4.9436   -0.3734    0.0000 C   0  0  0  0  0  0  0  0  0  0  0  0
    6.2425    0.3768    0.0000 H   0  0  0  0  0  0  0  0  0  0  0  0
    3.6436    0.3766    0.0000 C   0  0  0  0  0  0  0  0  0  0  0  0
    2.3436   -0.3734    0.0000 C   0  0  0  0  0  0  0  0  0  0  0  0
    1.0436    0.3766    0.0000 N   0  0  0  0  0  0  0  0  0  0  0  0
    1.0436    1.8766    0.0000 C   0  0  0  0  0  0  0  0  0  0  0  0
    0.5308    3.2863    0.0000 H   0  0  0  0  0  0  0  0  0  0  0  0
   -1.8518    1.3664    0.0000 H   0  0  0  0  0  0  0  0  0  0  0  0
    2.3436    2.6266    0.0000 C   0  0  0  0  0  0  0  0  0  0  0  0
    3.3076    3.7758    0.0000 H   0  0  0  0  0  0  0  0  0  0  0  0
    3.6436    1.8766    0.0000 C   0  0  0  0  0  0  0  0  0  0  0  0
    4.9425    2.6268    0.0000 O   0  0  0  0  0  0  0  0  0  0  0  0
    1.0710    4.1435    0.0000 C   0  0  0  0  0  0  0  0  0  0  0  0
   -0.4062    3.8832    0.0000 O   0  0  0  0  0  0  0  0  0  0  0  0
    1.5842    5.5530    0.0000 O   0  0  0  0  0  0  0  0  0  0  0  0
    0.6201    6.7022    0.0000 H   0  0  0  0  0  0  0  0  0  0  0  0
    6.2425   -2.6236    0.0000 F   0  0  0  0  0  0  0  0  0  0  0  0
    3.6436   -4.1234    0.0000 N   0  0  0  0  0  0  0  0  0  0  0  0
    2.3439   -4.8740    0.0000 C   0  0  0  0  0  0  0  0  0  0  0  0
    1.8310   -3.4644    0.0000 H   0  0  0  0  0  0  0  0  0  0  0  0
    0.8666   -5.1341    0.0000 H   0  0  0  0  0  0  0  0  0  0  0  0
    2.3432   -6.3748    0.0000 C   0  0  0  0  0  0  0  0  0  0  0  0
    0.8661   -6.1138    0.0000 H   0  0  0  0  0  0  0  0  0  0  0  0
    1.8298   -7.7842    0.0000 H   0  0  0  0  0  0  0  0  0  0  0  0
    3.6421   -7.1250    0.0000 N   0  0  0  0  0  0  0  0  0  0  0  0
    3.6421   -9.1050    0.0000 C   0  0  0  0  0  0  0  0  0  0  0  0
    4.9412   -9.8550    0.0000 H   0  0  0  0  0  0  0  0  0  0  0  0
    2.1649   -8.8446    0.0000 H   0  0  0  0  0  0  0  0  0  0  0  0
    3.1291  -10.5146    0.0000 H   0  0  0  0  0  0  0  0  0  0  0  0
    4.9418   -6.3744    0.0000 C   0  0  0  0  0  0  0  0  0  0  0  0
    5.4547   -7.7840    0.0000 H   0  0  0  0  0  0  0  0  0  0  0  0
    6.4190   -6.1143    0.0000 H   0  0  0  0  0  0  0  0  0  0  0  0
    4.9425   -4.8736    0.0000 C   0  0  0  0  0  0  0  0  0  0  0  0
    6.4196   -5.1346    0.0000 H   0  0  0  0  0  0  0  0  0  0  0  0
    5.4559   -3.4642    0.0000 H   0  0  0  0  0  0  0  0  0  0  0  0
  1  2  1  0  0  0  0 
  1  3  1  0  0  0  0 
  1  4  1  0  0  0  0 
  5  1  1  6  0  0  0 
  5  6  1  1  0  0  0 
  5  7  1  0  0  0  0 
  7  8  1  0  0  0  0 
  7  9  1  0  0  0  0 
  7 10  1  0  0  0  0 
 10 11  1  0  0  0  0 
 11 12  2  0  0  0  0 
 12 13  1  0  0  0  0 
 13 14  2  0  0  0  0 
 14 15  1  0  0  0  0 
 14 16  1  0  0  0  0 
 16 17  2  0  0  0  0 
 11 17  1  0  0  0  0 
 17 18  1  0  0  0  0 
  5 18  1  0  0  0  0 
 18 19  1  0  0  0  0 
 19 20  1  0  0  0  0 
 19 21  1  0  0  0  0 
 19 22  1  0  0  0  0 
 22 23  1  0  0  0  0 
 22 24  1  0  0  0  0 
 16 24  1  0  0  0  0 
 24 25  2  0  0  0  0 
 22 26  1  0  0  0  0 
 26 27  2  0  0  0  0 
 26 28  1  0  0  0  0 
 28 29  1  0  0  0  0 
 13 30  1  0  0  0  0 
 12 31  1  0  0  0  0 
 31 32  1  0  0  0  0 
 32 33  1  0  0  0  0 
 32 34  1  0  0  0  0 
 32 35  1  0  0  0  0 
 35 36  1  0  0  0  0 
 35 37  1  0  0  0  0 
 35 38  1  0  0  0  0 
 38 39  1  0  0  0  0 
 39 40  1  0  0  0  0 
 39 41  1  0  0  0  0 
 39 42  1  0  0  0  0 
 38 43  1  0  0  0  0 
 43 44  1  0  0  0  0 
 43 45  1  0  0  0  0 
 43 46  1  0  0  0  0 
 31 46  1  0  0  0  0 
 46 47  1  0  0  0  0 
 46 48  1  0  0  0  0 
M  END
> <Rank>
14

> <Priority_score>
0.116

> <Reaction_type>
double_bond_reduction_(aromatic)

> <Parent_ID>
55

> <Parent_InChI>
InChI=1S/C18H20FN3O4/c1-10-9-26-17-14-11(16(23)12(18(24)25)8-22(10)14)7-13(19)15(17)21-5-3-20(2)4-6-21/h7-8,10H,3-6,9H2,1-2H3,(H,24,25)

> <Parent_SMILES>
C[C@H]1COc2c(N3CCN(C)CC3)c(F)cc3c(=O)c(C(=O)O)cn1c23

$$$$
Molecule 55_metabolite 16
  CDK     0516241031

 47 50  0  0  0  0  0  0  0  0999 V2000
   -2.6971    1.6496    0.0000 C   0  0  0  0  0  0  0  0  0  0  0  0
   -1.7326    2.7984    0.0000 H   0  0  0  0  0  0  0  0  0  0  0  0
   -3.9963    0.8999    0.0000 H   0  0  0  0  0  0  0  0  0  0  0  0
   -3.6610    2.7989    0.0000 H   0  0  0  0  0  0  0  0  0  0  0  0
   -2.1843    0.2399    0.0000 C   0  0  1  0  0  0  0  0  0  0  0  0
   -3.6616   -0.0204    0.0000 H   0  0  0  0  0  0  0  0  0  0  0  0
   -2.1843   -1.2601    0.0000 C   0  0  0  0  0  0  0  0  0  0  0  0
   -3.6616   -0.9998    0.0000 H   0  0  0  0  0  0  0  0  0  0  0  0
   -2.6971   -2.6697    0.0000 H   0  0  0  0  0  0  0  0  0  0  0  0
   -0.8843   -2.0101    0.0000 O   0  0  0  0  0  0  0  0  0  0  0  0
    0.4157   -1.2601    0.0000 C   0  0  0  0  0  0  0  0  0  0  0  0
    1.7157   -2.0101    0.0000 C   0  0  0  0  0  0  0  0  0  0  0  0
    3.0157   -1.2601    0.0000 C   0  0  0  0  0  0  0  0  0  0  0  0
    3.0157    0.2399    0.0000 C   0  0  0  0  0  0  0  0  0  0  0  0
    4.3146    0.9901    0.0000 H   0  0  0  0  0  0  0  0  0  0  0  0
    1.7157    0.9899    0.0000 C   0  0  0  0  0  0  0  0  0  0  0  0
    0.4157    0.2399    0.0000 C   0  0  0  0  0  0  0  0  0  0  0  0
   -0.8843    0.9899    0.0000 N   0  0  0  0  0  0  0  0  0  0  0  0
   -0.8843    2.4899    0.0000 C   0  0  0  0  0  0  0  0  0  0  0  0
    0.4157    3.2399    0.0000 C   0  0  0  0  0  0  0  0  0  0  0  0
    1.7157    2.4899    0.0000 C   0  0  0  0  0  0  0  0  0  0  0  0
    3.0146    3.2401    0.0000 O   0  0  0  0  0  0  0  0  0  0  0  0
    0.4157    4.7399    0.0000 C   0  0  0  0  0  0  0  0  0  0  0  0
   -0.8834    5.4899    0.0000 O   0  0  0  0  0  0  0  0  0  0  0  0
    1.7147    5.4899    0.0000 O   0  0  0  0  0  0  0  0  0  0  0  0
    1.7147    6.9899    0.0000 H   0  0  0  0  0  0  0  0  0  0  0  0
   -2.5989    3.4802    0.0000 O   0  0  0  0  0  0  0  0  0  0  0  0
   -2.5987    4.9802    0.0000 H   0  0  0  0  0  0  0  0  0  0  0  0
    4.3146   -2.0103    0.0000 F   0  0  0  0  0  0  0  0  0  0  0  0
    1.7157   -3.5101    0.0000 N   0  0  0  0  0  0  0  0  0  0  0  0
    0.4160   -4.2607    0.0000 C   0  0  0  0  0  0  0  0  0  0  0  0
   -0.0969   -2.8511    0.0000 H   0  0  0  0  0  0  0  0  0  0  0  0
   -1.0613   -4.5208    0.0000 H   0  0  0  0  0  0  0  0  0  0  0  0
    0.4153   -5.7615    0.0000 C   0  0  0  0  0  0  0  0  0  0  0  0
   -1.0618   -5.5005    0.0000 H   0  0  0  0  0  0  0  0  0  0  0  0
   -0.0981   -7.1709    0.0000 H   0  0  0  0  0  0  0  0  0  0  0  0
    1.7142   -6.5117    0.0000 N   0  0  0  0  0  0  0  0  0  0  0  0
    1.7142   -8.4917    0.0000 C   0  0  0  0  0  0  0  0  0  0  0  0
    3.0132   -9.2417    0.0000 H   0  0  0  0  0  0  0  0  0  0  0  0
    0.2370   -8.2313    0.0000 H   0  0  0  0  0  0  0  0  0  0  0  0
    1.2012   -9.9013    0.0000 H   0  0  0  0  0  0  0  0  0  0  0  0
    3.0139   -5.7611    0.0000 C   0  0  0  0  0  0  0  0  0  0  0  0
    3.5268   -7.1707    0.0000 H   0  0  0  0  0  0  0  0  0  0  0  0
    4.4911   -5.5010    0.0000 H   0  0  0  0  0  0  0  0  0  0  0  0
    3.0146   -4.2603    0.0000 C   0  0  0  0  0  0  0  0  0  0  0  0
    4.4917   -4.5213    0.0000 H   0  0  0  0  0  0  0  0  0  0  0  0
    3.5280   -2.8509    0.0000 H   0  0  0  0  0  0  0  0  0  0  0  0
  1  2  1  0  0  0  0 
  1  3  1  0  0  0  0 
  1  4  1  0  0  0  0 
  5  1  1  6  0  0  0 
  5  6  1  1  0  0  0 
  5  7  1  0  0  0  0 
  7  8  1  0  0  0  0 
  7  9  1  0  0  0  0 
  7 10  1  0  0  0  0 
 10 11  1  0  0  0  0 
 11 12  2  0  0  0  0 
 12 13  1  0  0  0  0 
 13 14  2  0  0  0  0 
 14 15  1  0  0  0  0 
 14 16  1  0  0  0  0 
 16 17  2  0  0  0  0 
 11 17  1  0  0  0  0 
 17 18  1  0  0  0  0 
  5 18  1  0  0  0  0 
 18 19  1  0  0  0  0 
 19 20  2  0  0  0  0 
 20 21  1  0  0  0  0 
 16 21  1  0  0  0  0 
 21 22  2  0  0  0  0 
 20 23  1  0  0  0  0 
 23 24  2  0  0  0  0 
 23 25  1  0  0  0  0 
 25 26  1  0  0  0  0 
 19 27  1  0  0  0  0 
 27 28  1  0  0  0  0 
 13 29  1  0  0  0  0 
 12 30  1  0  0  0  0 
 30 31  1  0  0  0  0 
 31 32  1  0  0  0  0 
 31 33  1  0  0  0  0 
 31 34  1  0  0  0  0 
 34 35  1  0  0  0  0 
 34 36  1  0  0  0  0 
 34 37  1  0  0  0  0 
 37 38  1  0  0  0  0 
 38 39  1  0  0  0  0 
 38 40  1  0  0  0  0 
 38 41  1  0  0  0  0 
 37 42  1  0  0  0  0 
 42 43  1  0  0  0  0 
 42 44  1  0  0  0  0 
 42 45  1  0  0  0  0 
 30 45  1  0  0  0  0 
 45 46  1  0  0  0  0 
 45 47  1  0  0  0  0 
M  END
> <Rank>
14

> <Priority_score>
0.116

> <Reaction_type>
aromatic_hydroxylation_(para_to_carbon)

> <Parent_ID>
55

> <Parent_InChI>
InChI=1S/C18H20FN3O4/c1-10-9-26-17-14-11(16(23)12(18(24)25)8-22(10)14)7-13(19)15(17)21-5-3-20(2)4-6-21/h7-8,10H,3-6,9H2,1-2H3,(H,24,25)

> <Parent_SMILES>
C[C@H]1COc2c(N3CCN(C)CC3)c(F)cc3c(=O)c(C(=O)O)cn1c23

$$$$
Molecule 55_metabolite 17
  CDK     0516241031

 47 50  0  0  0  0  0  0  0  0999 V2000
   -3.0056    1.5373    0.0000 C   0  0  0  0  0  0  0  0  0  0  0  0
   -2.0411    2.6862    0.0000 H   0  0  0  0  0  0  0  0  0  0  0  0
   -4.3048    0.7876    0.0000 H   0  0  0  0  0  0  0  0  0  0  0  0
   -3.9695    2.6866    0.0000 H   0  0  0  0  0  0  0  0  0  0  0  0
   -2.4928    0.1277    0.0000 C   0  0  1  0  0  0  0  0  0  0  0  0
   -3.9701   -0.1326    0.0000 H   0  0  0  0  0  0  0  0  0  0  0  0
   -2.4928   -1.3723    0.0000 C   0  0  0  0  0  0  0  0  0  0  0  0
   -3.9701   -1.1120    0.0000 H   0  0  0  0  0  0  0  0  0  0  0  0
   -3.0056   -2.7820    0.0000 H   0  0  0  0  0  0  0  0  0  0  0  0
   -1.1928   -2.1223    0.0000 O   0  0  0  0  0  0  0  0  0  0  0  0
    0.1072   -1.3723    0.0000 C   0  0  0  0  0  0  0  0  0  0  0  0
    1.4072   -2.1223    0.0000 C   0  0  0  0  0  0  0  0  0  0  0  0
    2.7072   -1.3723    0.0000 C   0  0  0  0  0  0  0  0  0  0  0  0
    2.7072    0.1277    0.0000 C   0  0  0  0  0  0  0  0  0  0  0  0
    4.0061    0.8779    0.0000 H   0  0  0  0  0  0  0  0  0  0  0  0
    1.4072    0.8777    0.0000 C   0  0  0  0  0  0  0  0  0  0  0  0
    0.1072    0.1277    0.0000 C   0  0  0  0  0  0  0  0  0  0  0  0
   -1.1928    0.8777    0.0000 N   0  0  0  0  0  0  0  0  0  0  0  0
   -1.1928    2.3777    0.0000 C   0  0  0  0  0  0  0  0  0  0  0  0
   -2.9074    3.3679    0.0000 H   0  0  0  0  0  0  0  0  0  0  0  0
    0.1072    3.1277    0.0000 C   0  0  0  0  0  0  0  0  0  0  0  0
    1.4072    2.3777    0.0000 C   0  0  0  0  0  0  0  0  0  0  0  0
    2.7061    3.1279    0.0000 O   0  0  0  0  0  0  0  0  0  0  0  0
    0.1072    4.6277    0.0000 C   0  0  0  0  0  0  0  0  0  0  0  0
   -1.1919    5.3777    0.0000 O   0  0  0  0  0  0  0  0  0  0  0  0
    1.4062    5.3777    0.0000 O   0  0  0  0  0  0  0  0  0  0  0  0
    1.4062    6.8777    0.0000 H   0  0  0  0  0  0  0  0  0  0  0  0
    4.0061   -2.1225    0.0000 F   0  0  0  0  0  0  0  0  0  0  0  0
    1.4072   -4.1023    0.0000 N   0  0  0  0  0  0  0  0  0  0  0  0
    2.8851   -3.8414    0.0000 C   0  0  0  0  0  0  0  0  0  0  0  0
    4.1842   -3.0914    0.0000 H   0  0  0  0  0  0  0  0  0  0  0  0
    2.3720   -2.4319    0.0000 H   0  0  0  0  0  0  0  0  0  0  0  0
    3.8492   -4.9906    0.0000 C   0  0  0  0  0  0  0  0  0  0  0  0
    5.1480   -5.7410    0.0000 H   0  0  0  0  0  0  0  0  0  0  0  0
    4.8136   -3.8417    0.0000 H   0  0  0  0  0  0  0  0  0  0  0  0
    3.3353   -6.4007    0.0000 N   0  0  0  0  0  0  0  0  0  0  0  0
    4.6078   -7.9176    0.0000 C   0  0  0  0  0  0  0  0  0  0  0  0
    4.0946   -9.3271    0.0000 H   0  0  0  0  0  0  0  0  0  0  0  0
    5.9068   -8.6677    0.0000 H   0  0  0  0  0  0  0  0  0  0  0  0
    5.5721   -6.7686    0.0000 H   0  0  0  0  0  0  0  0  0  0  0  0
    1.8573   -6.6616    0.0000 C   0  0  0  0  0  0  0  0  0  0  0  0
    0.5583   -7.4116    0.0000 H   0  0  0  0  0  0  0  0  0  0  0  0
    2.3705   -8.0711    0.0000 H   0  0  0  0  0  0  0  0  0  0  0  0
    0.8932   -5.5124    0.0000 C   0  0  0  0  0  0  0  0  0  0  0  0
   -0.4056   -4.7620    0.0000 H   0  0  0  0  0  0  0  0  0  0  0  0
   -0.0712   -6.6613    0.0000 H   0  0  0  0  0  0  0  0  0  0  0  0
   -0.0700   -3.8415    0.0000 O   0  0  0  0  0  0  0  0  0  0  0  0
  1  2  1  0  0  0  0 
  1  3  1  0  0  0  0 
  1  4  1  0  0  0  0 
  5  1  1  6  0  0  0 
  5  6  1  1  0  0  0 
  5  7  1  0  0  0  0 
  7  8  1  0  0  0  0 
  7  9  1  0  0  0  0 
  7 10  1  0  0  0  0 
 10 11  1  0  0  0  0 
 11 12  2  0  0  0  0 
 12 13  1  0  0  0  0 
 13 14  2  0  0  0  0 
 14 15  1  0  0  0  0 
 14 16  1  0  0  0  0 
 16 17  2  0  0  0  0 
 11 17  1  0  0  0  0 
 17 18  1  0  0  0  0 
  5 18  1  0  0  0  0 
 18 19  1  0  0  0  0 
 19 20  1  0  0  0  0 
 19 21  2  0  0  0  0 
 21 22  1  0  0  0  0 
 16 22  1  0  0  0  0 
 22 23  2  0  0  0  0 
 21 24  1  0  0  0  0 
 24 25  2  0  0  0  0 
 24 26  1  0  0  0  0 
 26 27  1  0  0  0  0 
 13 28  1  0  0  0  0 
 12 29  1  0  0  0  0 
 29 30  1  0  0  0  0 
 30 31  1  0  0  0  0 
 30 32  1  0  0  0  0 
 30 33  1  0  0  0  0 
 33 34  1  0  0  0  0 
 33 35  1  0  0  0  0 
 33 36  1  0  0  0  0 
 36 37  1  0  0  0  0 
 37 38  1  0  0  0  0 
 37 39  1  0  0  0  0 
 37 40  1  0  0  0  0 
 36 41  1  0  0  0  0 
 41 42  1  0  0  0  0 
 41 43  1  0  0  0  0 
 41 44  1  0  0  0  0 
 29 44  1  0  0  0  0 
 44 45  1  0  0  0  0 
 44 46  1  0  0  0  0 
 29 47  1  0  0  0  0 
M  CHG  1  29   1
M  CHG  1  47  -1
M  END
> <Rank>
17

> <Priority_score>
0.088

> <Reaction_type>
N-oxidation

> <Parent_ID>
55

> <Parent_InChI>
InChI=1S/C18H20FN3O4/c1-10-9-26-17-14-11(16(23)12(18(24)25)8-22(10)14)7-13(19)15(17)21-5-3-20(2)4-6-21/h7-8,10H,3-6,9H2,1-2H3,(H,24,25)

> <Parent_SMILES>
C[C@H]1COc2c(N3CCN(C)CC3)c(F)cc3c(=O)c(C(=O)O)cn1c23

$$$$
Molecule 55_metabolite 18
  CDK     0516241031

 47 49  0  0  0  0  0  0  0  0999 V2000
   -0.8843   -5.7599    0.0000 C   0  0  0  0  0  0  0  0  0  0  0  0
   -0.8843   -7.2599    0.0000 H   0  0  0  0  0  0  0  0  0  0  0  0
   -1.3974   -4.3504    0.0000 H   0  0  0  0  0  0  0  0  0  0  0  0
   -2.3616   -6.0204    0.0000 H   0  0  0  0  0  0  0  0  0  0  0  0
    0.4147   -5.0099    0.0000 C   0  0  0  0  0  0  0  0  0  0  0  0
    1.7137   -5.7599    0.0000 O   0  0  0  0  0  0  0  0  0  0  0  0
    0.4147   -3.5099    0.0000 C   0  0  0  0  0  0  0  0  0  0  0  0
    0.9277   -2.1004    0.0000 H   0  0  0  0  0  0  0  0  0  0  0  0
    1.8919   -3.7704    0.0000 H   0  0  0  0  0  0  0  0  0  0  0  0
   -0.8843   -2.7599    0.0000 O   0  0  0  0  0  0  0  0  0  0  0  0
   -0.8843   -1.2599    0.0000 C   0  0  0  0  0  0  0  0  0  0  0  0
   -2.1843   -0.5099    0.0000 C   0  0  0  0  0  0  0  0  0  0  0  0
   -2.1843    0.9901    0.0000 C   0  0  0  0  0  0  0  0  0  0  0  0
   -0.8843    1.7401    0.0000 C   0  0  0  0  0  0  0  0  0  0  0  0
   -0.8843    3.2401    0.0000 H   0  0  0  0  0  0  0  0  0  0  0  0
    0.4157    0.9901    0.0000 C   0  0  0  0  0  0  0  0  0  0  0  0
    0.4157   -0.5099    0.0000 C   0  0  0  0  0  0  0  0  0  0  0  0
    1.7157   -1.2599    0.0000 N   0  0  0  0  0  0  0  0  0  0  0  0
    1.7157   -2.7599    0.0000 H   0  0  0  0  0  0  0  0  0  0  0  0
    3.0157   -0.5099    0.0000 C   0  0  0  0  0  0  0  0  0  0  0  0
    4.3146   -1.2601    0.0000 H   0  0  0  0  0  0  0  0  0  0  0  0
    3.0157    0.9901    0.0000 C   0  0  0  0  0  0  0  0  0  0  0  0
    1.7157    1.7401    0.0000 C   0  0  0  0  0  0  0  0  0  0  0  0
    1.7157    3.2401    0.0000 O   0  0  0  0  0  0  0  0  0  0  0  0
    4.3146    1.7403    0.0000 C   0  0  0  0  0  0  0  0  0  0  0  0
    5.6137    0.9905    0.0000 O   0  0  0  0  0  0  0  0  0  0  0  0
    4.3143    3.2403    0.0000 O   0  0  0  0  0  0  0  0  0  0  0  0
    5.6132    3.9905    0.0000 H   0  0  0  0  0  0  0  0  0  0  0  0
   -3.4833    1.7403    0.0000 F   0  0  0  0  0  0  0  0  0  0  0  0
   -3.4833   -1.2601    0.0000 N   0  0  0  0  0  0  0  0  0  0  0  0
   -4.7833   -0.5101    0.0000 C   0  0  0  0  0  0  0  0  0  0  0  0
   -3.8192    0.6390    0.0000 H   0  0  0  0  0  0  0  0  0  0  0  0
   -5.7473    0.6390    0.0000 H   0  0  0  0  0  0  0  0  0  0  0  0
   -6.0833   -1.2601    0.0000 C   0  0  0  0  0  0  0  0  0  0  0  0
   -6.5960    0.1495    0.0000 H   0  0  0  0  0  0  0  0  0  0  0  0
   -7.5605   -1.5205    0.0000 H   0  0  0  0  0  0  0  0  0  0  0  0
   -6.0833   -2.7601    0.0000 N   0  0  0  0  0  0  0  0  0  0  0  0
   -7.7978   -3.7504    0.0000 C   0  0  0  0  0  0  0  0  0  0  0  0
   -9.0970   -3.0006    0.0000 H   0  0  0  0  0  0  0  0  0  0  0  0
   -8.7618   -4.8996    0.0000 H   0  0  0  0  0  0  0  0  0  0  0  0
   -6.8335   -4.8993    0.0000 H   0  0  0  0  0  0  0  0  0  0  0  0
   -4.7833   -3.5101    0.0000 C   0  0  0  0  0  0  0  0  0  0  0  0
   -5.7473   -4.6593    0.0000 H   0  0  0  0  0  0  0  0  0  0  0  0
   -3.8192   -4.6593    0.0000 H   0  0  0  0  0  0  0  0  0  0  0  0
   -3.4833   -2.7601    0.0000 C   0  0  0  0  0  0  0  0  0  0  0  0
   -2.9705   -4.1698    0.0000 H   0  0  0  0  0  0  0  0  0  0  0  0
   -2.0060   -2.4998    0.0000 H   0  0  0  0  0  0  0  0  0  0  0  0
  1  2  1  0  0  0  0 
  1  3  1  0  0  0  0 
  1  4  1  0  0  0  0 
  1  5  1  0  0  0  0 
  5  6  2  0  0  0  0 
  5  7  1  0  0  0  0 
  7  8  1  0  0  0  0 
  7  9  1  0  0  0  0 
  7 10  1  0  0  0  0 
 10 11  1  0  0  0  0 
 11 12  2  0  0  0  0 
 12 13  1  0  0  0  0 
 13 14  2  0  0  0  0 
 14 15  1  0  0  0  0 
 14 16  1  0  0  0  0 
 16 17  2  0  0  0  0 
 11 17  1  0  0  0  0 
 17 18  1  0  0  0  0 
 18 19  1  0  0  0  0 
 18 20  1  0  0  0  0 
 20 21  1  0  0  0  0 
 20 22  2  0  0  0  0 
 22 23  1  0  0  0  0 
 16 23  1  0  0  0  0 
 23 24  2  0  0  0  0 
 22 25  1  0  0  0  0 
 25 26  2  0  0  0  0 
 25 27  1  0  0  0  0 
 27 28  1  0  0  0  0 
 13 29  1  0  0  0  0 
 12 30  1  0  0  0  0 
 30 31  1  0  0  0  0 
 31 32  1  0  0  0  0 
 31 33  1  0  0  0  0 
 31 34  1  0  0  0  0 
 34 35  1  0  0  0  0 
 34 36  1  0  0  0  0 
 34 37  1  0  0  0  0 
 37 38  1  0  0  0  0 
 38 39  1  0  0  0  0 
 38 40  1  0  0  0  0 
 38 41  1  0  0  0  0 
 37 42  1  0  0  0  0 
 42 43  1  0  0  0  0 
 42 44  1  0  0  0  0 
 42 45  1  0  0  0  0 
 30 45  1  0  0  0  0 
 45 46  1  0  0  0  0 
 45 47  1  0  0  0  0 
M  END
> <Rank>
17

> <Priority_score>
0.088

> <Reaction_type>
N-dealkylation

> <Parent_ID>
55

> <Parent_InChI>
InChI=1S/C18H20FN3O4/c1-10-9-26-17-14-11(16(23)12(18(24)25)8-22(10)14)7-13(19)15(17)21-5-3-20(2)4-6-21/h7-8,10H,3-6,9H2,1-2H3,(H,24,25)

> <Parent_SMILES>
C[C@H]1COc2c(N3CCN(C)CC3)c(F)cc3c(=O)c(C(=O)O)cn1c23

$$$$
Molecule 55_metabolite 19
  CDK     0516241031

 45 48  0  0  0  0  0  0  0  0999 V2000
   -2.6971    1.6496    0.0000 C   0  0  0  0  0  0  0  0  0  0  0  0
   -1.7326    2.7984    0.0000 H   0  0  0  0  0  0  0  0  0  0  0  0
   -3.9963    0.8999    0.0000 H   0  0  0  0  0  0  0  0  0  0  0  0
   -3.6610    2.7989    0.0000 H   0  0  0  0  0  0  0  0  0  0  0  0
   -2.1843    0.2399    0.0000 C   0  0  1  0  0  0  0  0  0  0  0  0
   -3.6616   -0.0204    0.0000 H   0  0  0  0  0  0  0  0  0  0  0  0
   -2.1843   -1.2601    0.0000 C   0  0  0  0  0  0  0  0  0  0  0  0
   -3.6616   -0.9998    0.0000 H   0  0  0  0  0  0  0  0  0  0  0  0
   -2.6971   -2.6697    0.0000 H   0  0  0  0  0  0  0  0  0  0  0  0
   -0.8843   -2.0101    0.0000 O   0  0  0  0  0  0  0  0  0  0  0  0
    0.4157   -1.2601    0.0000 C   0  0  0  0  0  0  0  0  0  0  0  0
    1.7157   -2.0101    0.0000 C   0  0  0  0  0  0  0  0  0  0  0  0
    3.0157   -1.2601    0.0000 C   0  0  0  0  0  0  0  0  0  0  0  0
    3.0157    0.2399    0.0000 C   0  0  0  0  0  0  0  0  0  0  0  0
    4.3146    0.9901    0.0000 H   0  0  0  0  0  0  0  0  0  0  0  0
    1.7157    0.9899    0.0000 C   0  0  0  0  0  0  0  0  0  0  0  0
    0.4157    0.2399    0.0000 C   0  0  0  0  0  0  0  0  0  0  0  0
   -0.8843    0.9899    0.0000 N   0  0  0  0  0  0  0  0  0  0  0  0
   -0.8843    2.4899    0.0000 C   0  0  0  0  0  0  0  0  0  0  0  0
   -2.5989    3.4802    0.0000 H   0  0  0  0  0  0  0  0  0  0  0  0
    0.4157    3.2399    0.0000 C   0  0  0  0  0  0  0  0  0  0  0  0
    1.7157    2.4899    0.0000 C   0  0  0  0  0  0  0  0  0  0  0  0
    3.0146    3.2401    0.0000 O   0  0  0  0  0  0  0  0  0  0  0  0
    0.4157    4.7399    0.0000 C   0  0  0  0  0  0  0  0  0  0  0  0
   -0.8834    5.4899    0.0000 O   0  0  0  0  0  0  0  0  0  0  0  0
    1.7147    5.4899    0.0000 O   0  0  0  0  0  0  0  0  0  0  0  0
    1.7147    6.9899    0.0000 H   0  0  0  0  0  0  0  0  0  0  0  0
    4.3146   -2.0103    0.0000 F   0  0  0  0  0  0  0  0  0  0  0  0
    1.7157   -3.5101    0.0000 N   0  0  0  0  0  0  0  0  0  0  0  0
    3.0157   -4.2601    0.0000 C   0  0  0  0  0  0  0  0  0  0  0  0
    4.4929   -4.5204    0.0000 H   0  0  0  0  0  0  0  0  0  0  0  0
    3.5284   -2.8504    0.0000 H   0  0  0  0  0  0  0  0  0  0  0  0
    3.0157   -5.7601    0.0000 C   0  0  0  0  0  0  0  0  0  0  0  0
    3.5284   -7.1697    0.0000 H   0  0  0  0  0  0  0  0  0  0  0  0
    4.4929   -5.4998    0.0000 H   0  0  0  0  0  0  0  0  0  0  0  0
    1.7157   -6.5101    0.0000 N   0  0  0  0  0  0  0  0  0  0  0  0
    1.7157   -8.4901    0.0000 C   0  0  0  0  0  0  0  0  0  0  0  0
    3.0147   -9.2401    0.0000 H   0  0  0  0  0  0  0  0  0  0  0  0
    0.2384   -8.2296    0.0000 H   0  0  0  0  0  0  0  0  0  0  0  0
    1.2026   -9.8996    0.0000 H   0  0  0  0  0  0  0  0  0  0  0  0
    0.4157   -5.7601    0.0000 C   0  0  0  0  0  0  0  0  0  0  0  0
   -1.0616   -5.4998    0.0000 H   0  0  0  0  0  0  0  0  0  0  0  0
   -0.0971   -7.1697    0.0000 H   0  0  0  0  0  0  0  0  0  0  0  0
    0.4157   -4.2601    0.0000 C   0  0  0  0  0  0  0  0  0  0  0  0
   -0.8833   -3.5099    0.0000 O   0  0  0  0  0  0  0  0  0  0  0  0
  1  2  1  0  0  0  0 
  1  3  1  0  0  0  0 
  1  4  1  0  0  0  0 
  5  1  1  6  0  0  0 
  5  6  1  1  0  0  0 
  5  7  1  0  0  0  0 
  7  8  1  0  0  0  0 
  7  9  1  0  0  0  0 
  7 10  1  0  0  0  0 
 10 11  1  0  0  0  0 
 11 12  2  0  0  0  0 
 12 13  1  0  0  0  0 
 13 14  2  0  0  0  0 
 14 15  1  0  0  0  0 
 14 16  1  0  0  0  0 
 16 17  2  0  0  0  0 
 11 17  1  0  0  0  0 
 17 18  1  0  0  0  0 
  5 18  1  0  0  0  0 
 18 19  1  0  0  0  0 
 19 20  1  0  0  0  0 
 19 21  2  0  0  0  0 
 21 22  1  0  0  0  0 
 16 22  1  0  0  0  0 
 22 23  2  0  0  0  0 
 21 24  1  0  0  0  0 
 24 25  2  0  0  0  0 
 24 26  1  0  0  0  0 
 26 27  1  0  0  0  0 
 13 28  1  0  0  0  0 
 12 29  1  0  0  0  0 
 29 30  1  0  0  0  0 
 30 31  1  0  0  0  0 
 30 32  1  0  0  0  0 
 30 33  1  0  0  0  0 
 33 34  1  0  0  0  0 
 33 35  1  0  0  0  0 
 33 36  1  0  0  0  0 
 36 37  1  0  0  0  0 
 37 38  1  0  0  0  0 
 37 39  1  0  0  0  0 
 37 40  1  0  0  0  0 
 36 41  1  0  0  0  0 
 41 42  1  0  0  0  0 
 41 43  1  0  0  0  0 
 41 44  1  0  0  0  0 
 29 44  1  0  0  0  0 
 44 45  2  0  0  0  0 
M  END
> <Rank>
17

> <Priority_score>
0.088

> <Reaction_type>
oxidation_(amine_in_a_ring)

> <Parent_ID>
55

> <Parent_InChI>
InChI=1S/C18H20FN3O4/c1-10-9-26-17-14-11(16(23)12(18(24)25)8-22(10)14)7-13(19)15(17)21-5-3-20(2)4-6-21/h7-8,10H,3-6,9H2,1-2H3,(H,24,25)

> <Parent_SMILES>
C[C@H]1COc2c(N3CCN(C)CC3)c(F)cc3c(=O)c(C(=O)O)cn1c23

$$$$
Molecule 55_metabolite 20
  CDK     0516241031

 47 49  0  0  0  0  0  0  0  0999 V2000
   -3.1128    1.4096    0.0000 C   0  0  0  0  0  0  0  0  0  0  0  0
   -2.1483    2.5584    0.0000 H   0  0  0  0  0  0  0  0  0  0  0  0
   -4.4120    0.6599    0.0000 H   0  0  0  0  0  0  0  0  0  0  0  0
   -4.0767    2.5589    0.0000 H   0  0  0  0  0  0  0  0  0  0  0  0
   -2.6000   -0.0001    0.0000 C   0  0  1  0  0  0  0  0  0  0  0  0
   -4.0773   -0.2604    0.0000 H   0  0  0  0  0  0  0  0  0  0  0  0
   -2.6000   -1.5001    0.0000 C   0  0  0  0  0  0  0  0  0  0  0  0
   -4.0773   -1.2398    0.0000 H   0  0  0  0  0  0  0  0  0  0  0  0
   -3.1128   -2.9097    0.0000 H   0  0  0  0  0  0  0  0  0  0  0  0
   -1.3000   -2.2501    0.0000 O   0  0  0  0  0  0  0  0  0  0  0  0
   -0.0000   -1.5001    0.0000 C   0  0  0  0  0  0  0  0  0  0  0  0
    1.3000   -2.2501    0.0000 C   0  0  0  0  0  0  0  0  0  0  0  0
    2.6000   -1.5001    0.0000 C   0  0  0  0  0  0  0  0  0  0  0  0
    2.6000   -0.0001    0.0000 C   0  0  0  0  0  0  0  0  0  0  0  0
    3.8989    0.7501    0.0000 H   0  0  0  0  0  0  0  0  0  0  0  0
    1.3000    0.7499    0.0000 C   0  0  0  0  0  0  0  0  0  0  0  0
   -0.0000   -0.0001    0.0000 C   0  0  0  0  0  0  0  0  0  0  0  0
   -1.3000    0.7499    0.0000 N   0  0  0  0  0  0  0  0  0  0  0  0
   -1.3000    2.2499    0.0000 C   0  0  0  0  0  0  0  0  0  0  0  0
   -3.0146    3.2402    0.0000 H   0  0  0  0  0  0  0  0  0  0  0  0
   -0.0000    2.9999    0.0000 C   0  0  0  0  0  0  0  0  0  0  0  0
    1.3000    2.2499    0.0000 C   0  0  0  0  0  0  0  0  0  0  0  0
    2.5989    3.0001    0.0000 O   0  0  0  0  0  0  0  0  0  0  0  0
   -0.0000    4.4999    0.0000 C   0  0  0  0  0  0  0  0  0  0  0  0
   -1.2991    5.2499    0.0000 O   0  0  0  0  0  0  0  0  0  0  0  0
    1.2990    5.2499    0.0000 O   0  0  0  0  0  0  0  0  0  0  0  0
    1.2990    6.7499    0.0000 H   0  0  0  0  0  0  0  0  0  0  0  0
    3.8989   -2.2503    0.0000 F   0  0  0  0  0  0  0  0  0  0  0  0
    1.3000   -3.7501    0.0000 N   0  0  0  0  0  0  0  0  0  0  0  0
    0.0009   -4.5001    0.0000 H   0  0  0  0  0  0  0  0  0  0  0  0
    2.5990   -4.5001    0.0000 C   0  0  0  0  0  0  0  0  0  0  0  0
    4.0762   -4.7605    0.0000 H   0  0  0  0  0  0  0  0  0  0  0  0
    3.1120   -3.0905    0.0000 H   0  0  0  0  0  0  0  0  0  0  0  0
    2.5990   -6.0001    0.0000 C   0  0  0  0  0  0  0  0  0  0  0  0
    1.1218   -5.7396    0.0000 H   0  0  0  0  0  0  0  0  0  0  0  0
    2.0860   -7.4096    0.0000 H   0  0  0  0  0  0  0  0  0  0  0  0
    4.3137   -6.9901    0.0000 N   0  0  0  0  0  0  0  0  0  0  0  0
    5.6128   -6.2401    0.0000 C   0  0  0  0  0  0  0  0  0  0  0  0
    5.6128   -4.7401    0.0000 H   0  0  0  0  0  0  0  0  0  0  0  0
    7.0900   -5.9796    0.0000 H   0  0  0  0  0  0  0  0  0  0  0  0
    6.1258   -7.6496    0.0000 H   0  0  0  0  0  0  0  0  0  0  0  0
    4.3137   -8.4901    0.0000 C   0  0  0  0  0  0  0  0  0  0  0  0
    2.8365   -8.2296    0.0000 H   0  0  0  0  0  0  0  0  0  0  0  0
    3.8007   -9.8996    0.0000 H   0  0  0  0  0  0  0  0  0  0  0  0
    5.6128   -9.2401    0.0000 C   0  0  0  0  0  0  0  0  0  0  0  0
    5.6128  -10.7401    0.0000 H   0  0  0  0  0  0  0  0  0  0  0  0
    6.9118   -8.4901    0.0000 O   0  0  0  0  0  0  0  0  0  0  0  0
  1  2  1  0  0  0  0 
  1  3  1  0  0  0  0 
  1  4  1  0  0  0  0 
  5  1  1  6  0  0  0 
  5  6  1  1  0  0  0 
  5  7  1  0  0  0  0 
  7  8  1  0  0  0  0 
  7  9  1  0  0  0  0 
  7 10  1  0  0  0  0 
 10 11  1  0  0  0  0 
 11 12  2  0  0  0  0 
 12 13  1  0  0  0  0 
 13 14  2  0  0  0  0 
 14 15  1  0  0  0  0 
 14 16  1  0  0  0  0 
 16 17  2  0  0  0  0 
 11 17  1  0  0  0  0 
 17 18  1  0  0  0  0 
  5 18  1  0  0  0  0 
 18 19  1  0  0  0  0 
 19 20  1  0  0  0  0 
 19 21  2  0  0  0  0 
 21 22  1  0  0  0  0 
 16 22  1  0  0  0  0 
 22 23  2  0  0  0  0 
 21 24  1  0  0  0  0 
 24 25  2  0  0  0  0 
 24 26  1  0  0  0  0 
 26 27  1  0  0  0  0 
 13 28  1  0  0  0  0 
 12 29  1  0  0  0  0 
 29 30  1  0  0  0  0 
 29 31  1  0  0  0  0 
 31 32  1  0  0  0  0 
 31 33  1  0  0  0  0 
 31 34  1  0  0  0  0 
 34 35  1  0  0  0  0 
 34 36  1  0  0  0  0 
 34 37  1  0  0  0  0 
 37 38  1  0  0  0  0 
 38 39  1  0  0  0  0 
 38 40  1  0  0  0  0 
 38 41  1  0  0  0  0 
 37 42  1  0  0  0  0 
 42 43  1  0  0  0  0 
 42 44  1  0  0  0  0 
 42 45  1  0  0  0  0 
 45 46  1  0  0  0  0 
 45 47  2  0  0  0  0 
M  END
> <Rank>
17

> <Priority_score>
0.088

> <Reaction_type>
N-dealkylation

> <Parent_ID>
55

> <Parent_InChI>
InChI=1S/C18H20FN3O4/c1-10-9-26-17-14-11(16(23)12(18(24)25)8-22(10)14)7-13(19)15(17)21-5-3-20(2)4-6-21/h7-8,10H,3-6,9H2,1-2H3,(H,24,25)

> <Parent_SMILES>
C[C@H]1COc2c(N3CCN(C)CC3)c(F)cc3c(=O)c(C(=O)O)cn1c23

$$$$
Molecule 55_metabolite 21
  CDK     0516241031

 47 50  0  0  0  0  0  0  0  0999 V2000
   -2.2244    1.7329    0.0000 C   0  0  0  0  0  0  0  0  0  0  0  0
   -1.2599    2.8817    0.0000 H   0  0  0  0  0  0  0  0  0  0  0  0
   -3.5236    0.9832    0.0000 H   0  0  0  0  0  0  0  0  0  0  0  0
   -3.1883    2.8822    0.0000 H   0  0  0  0  0  0  0  0  0  0  0  0
   -1.7116    0.3232    0.0000 C   0  0  1  0  0  0  0  0  0  0  0  0
   -3.1889    0.0629    0.0000 H   0  0  0  0  0  0  0  0  0  0  0  0
   -1.7116   -1.1768    0.0000 C   0  0  0  0  0  0  0  0  0  0  0  0
   -3.1889   -0.9165    0.0000 H   0  0  0  0  0  0  0  0  0  0  0  0
   -2.2244   -2.5864    0.0000 H   0  0  0  0  0  0  0  0  0  0  0  0
   -0.4116   -1.9268    0.0000 O   0  0  0  0  0  0  0  0  0  0  0  0
    0.8884   -1.1768    0.0000 C   0  0  0  0  0  0  0  0  0  0  0  0
    2.1884   -1.9268    0.0000 C   0  0  0  0  0  0  0  0  0  0  0  0
    3.4884   -1.1768    0.0000 C   0  0  0  0  0  0  0  0  0  0  0  0
    3.4884    0.3232    0.0000 C   0  0  0  0  0  0  0  0  0  0  0  0
    4.7873    1.0734    0.0000 H   0  0  0  0  0  0  0  0  0  0  0  0
    2.1884    1.0732    0.0000 C   0  0  0  0  0  0  0  0  0  0  0  0
    0.8884    0.3232    0.0000 C   0  0  0  0  0  0  0  0  0  0  0  0
   -0.4116    1.0732    0.0000 N   0  0  0  0  0  0  0  0  0  0  0  0
   -0.4116    2.5732    0.0000 C   0  0  0  0  0  0  0  0  0  0  0  0
   -2.1262    3.5635    0.0000 H   0  0  0  0  0  0  0  0  0  0  0  0
    0.8884    3.3232    0.0000 C   0  0  0  0  0  0  0  0  0  0  0  0
    2.1884    2.5732    0.0000 C   0  0  0  0  0  0  0  0  0  0  0  0
    3.4873    3.3234    0.0000 O   0  0  0  0  0  0  0  0  0  0  0  0
    0.8884    4.8232    0.0000 C   0  0  0  0  0  0  0  0  0  0  0  0
   -0.4107    5.5732    0.0000 O   0  0  0  0  0  0  0  0  0  0  0  0
    2.1874    5.5732    0.0000 O   0  0  0  0  0  0  0  0  0  0  0  0
    2.1874    7.0732    0.0000 H   0  0  0  0  0  0  0  0  0  0  0  0
    4.7873   -1.9270    0.0000 F   0  0  0  0  0  0  0  0  0  0  0  0
    2.1884   -3.4268    0.0000 N   0  0  0  0  0  0  0  0  0  0  0  0
    3.4884   -4.1768    0.0000 C   0  0  0  0  0  0  0  0  0  0  0  0
    4.9656   -4.4371    0.0000 H   0  0  0  0  0  0  0  0  0  0  0  0
    4.0011   -2.7671    0.0000 H   0  0  0  0  0  0  0  0  0  0  0  0
    3.4884   -5.6768    0.0000 C   0  0  0  0  0  0  0  0  0  0  0  0
    4.0011   -7.0864    0.0000 H   0  0  0  0  0  0  0  0  0  0  0  0
    4.9656   -5.4165    0.0000 H   0  0  0  0  0  0  0  0  0  0  0  0
    2.1884   -6.4268    0.0000 N   0  0  0  0  0  0  0  0  0  0  0  0
    2.1884   -8.4068    0.0000 C   0  0  0  0  0  0  0  0  0  0  0  0
    3.4874   -9.1568    0.0000 H   0  0  0  0  0  0  0  0  0  0  0  0
    0.7112   -8.1463    0.0000 H   0  0  0  0  0  0  0  0  0  0  0  0
    1.6753   -9.8163    0.0000 H   0  0  0  0  0  0  0  0  0  0  0  0
    0.8884   -5.6768    0.0000 C   0  0  0  0  0  0  0  0  0  0  0  0
   -0.5889   -5.4165    0.0000 H   0  0  0  0  0  0  0  0  0  0  0  0
    0.3756   -7.0864    0.0000 H   0  0  0  0  0  0  0  0  0  0  0  0
    0.8884   -4.1768    0.0000 C   0  0  0  0  0  0  0  0  0  0  0  0
    0.3756   -2.7671    0.0000 H   0  0  0  0  0  0  0  0  0  0  0  0
   -1.0616   -4.5204    0.0000 O   0  0  0  0  0  0  0  0  0  0  0  0
   -1.5748   -5.9299    0.0000 H   0  0  0  0  0  0  0  0  0  0  0  0
  1  2  1  0  0  0  0 
  1  3  1  0  0  0  0 
  1  4  1  0  0  0  0 
  5  1  1  6  0  0  0 
  5  6  1  1  0  0  0 
  5  7  1  0  0  0  0 
  7  8  1  0  0  0  0 
  7  9  1  0  0  0  0 
  7 10  1  0  0  0  0 
 10 11  1  0  0  0  0 
 11 12  2  0  0  0  0 
 12 13  1  0  0  0  0 
 13 14  2  0  0  0  0 
 14 15  1  0  0  0  0 
 14 16  1  0  0  0  0 
 16 17  2  0  0  0  0 
 11 17  1  0  0  0  0 
 17 18  1  0  0  0  0 
  5 18  1  0  0  0  0 
 18 19  1  0  0  0  0 
 19 20  1  0  0  0  0 
 19 21  2  0  0  0  0 
 21 22  1  0  0  0  0 
 16 22  1  0  0  0  0 
 22 23  2  0  0  0  0 
 21 24  1  0  0  0  0 
 24 25  2  0  0  0  0 
 24 26  1  0  0  0  0 
 26 27  1  0  0  0  0 
 13 28  1  0  0  0  0 
 12 29  1  0  0  0  0 
 29 30  1  0  0  0  0 
 30 31  1  0  0  0  0 
 30 32  1  0  0  0  0 
 30 33  1  0  0  0  0 
 33 34  1  0  0  0  0 
 33 35  1  0  0  0  0 
 33 36  1  0  0  0  0 
 36 37  1  0  0  0  0 
 37 38  1  0  0  0  0 
 37 39  1  0  0  0  0 
 37 40  1  0  0  0  0 
 36 41  1  0  0  0  0 
 41 42  1  0  0  0  0 
 41 43  1  0  0  0  0 
 41 44  1  0  0  0  0 
 29 44  1  0  0  0  0 
 44 45  1  0  0  0  0 
 44 46  1  0  0  0  0 
 46 47  1  0  0  0  0 
M  END
> <Rank>
17

> <Priority_score>
0.088

> <Reaction_type>
aliphatic_hydroxylation_(sec_carbon_next_to_SP2,in_a_ring)

> <Parent_ID>
55

> <Parent_InChI>
InChI=1S/C18H20FN3O4/c1-10-9-26-17-14-11(16(23)12(18(24)25)8-22(10)14)7-13(19)15(17)21-5-3-20(2)4-6-21/h7-8,10H,3-6,9H2,1-2H3,(H,24,25)

> <Parent_SMILES>
C[C@H]1COc2c(N3CCN(C)CC3)c(F)cc3c(=O)c(C(=O)O)cn1c23

$$$$
Molecule 55_metabolite 22
  CDK     0516241031

 47 50  0  0  0  0  0  0  0  0999 V2000
   -2.2244    1.7329    0.0000 C   0  0  0  0  0  0  0  0  0  0  0  0
   -1.2599    2.8817    0.0000 H   0  0  0  0  0  0  0  0  0  0  0  0
   -3.5236    0.9832    0.0000 H   0  0  0  0  0  0  0  0  0  0  0  0
   -3.1883    2.8822    0.0000 H   0  0  0  0  0  0  0  0  0  0  0  0
   -1.7116    0.3232    0.0000 C   0  0  1  0  0  0  0  0  0  0  0  0
   -1.7116   -1.1768    0.0000 C   0  0  0  0  0  0  0  0  0  0  0  0
   -3.1889   -0.9165    0.0000 H   0  0  0  0  0  0  0  0  0  0  0  0
   -2.2244   -2.5864    0.0000 H   0  0  0  0  0  0  0  0  0  0  0  0
   -0.4116   -1.9268    0.0000 O   0  0  0  0  0  0  0  0  0  0  0  0
    0.8884   -1.1768    0.0000 C   0  0  0  0  0  0  0  0  0  0  0  0
    2.1884   -1.9268    0.0000 C   0  0  0  0  0  0  0  0  0  0  0  0
    3.4884   -1.1768    0.0000 C   0  0  0  0  0  0  0  0  0  0  0  0
    3.4884    0.3232    0.0000 C   0  0  0  0  0  0  0  0  0  0  0  0
    4.7873    1.0734    0.0000 H   0  0  0  0  0  0  0  0  0  0  0  0
    2.1884    1.0732    0.0000 C   0  0  0  0  0  0  0  0  0  0  0  0
    0.8884    0.3232    0.0000 C   0  0  0  0  0  0  0  0  0  0  0  0
   -0.4116    1.0732    0.0000 N   0  0  0  0  0  0  0  0  0  0  0  0
   -0.4116    2.5732    0.0000 C   0  0  0  0  0  0  0  0  0  0  0  0
   -2.1262    3.5635    0.0000 H   0  0  0  0  0  0  0  0  0  0  0  0
    0.8884    3.3232    0.0000 C   0  0  0  0  0  0  0  0  0  0  0  0
    2.1884    2.5732    0.0000 C   0  0  0  0  0  0  0  0  0  0  0  0
    3.4873    3.3234    0.0000 O   0  0  0  0  0  0  0  0  0  0  0  0
    0.8884    4.8232    0.0000 C   0  0  0  0  0  0  0  0  0  0  0  0
   -0.4107    5.5732    0.0000 O   0  0  0  0  0  0  0  0  0  0  0  0
    2.1874    5.5732    0.0000 O   0  0  0  0  0  0  0  0  0  0  0  0
    2.1874    7.0732    0.0000 H   0  0  0  0  0  0  0  0  0  0  0  0
    4.7873   -1.9270    0.0000 F   0  0  0  0  0  0  0  0  0  0  0  0
    2.1884   -3.4268    0.0000 N   0  0  0  0  0  0  0  0  0  0  0  0
    0.8887   -4.1774    0.0000 C   0  0  0  0  0  0  0  0  0  0  0  0
    0.3758   -2.7678    0.0000 H   0  0  0  0  0  0  0  0  0  0  0  0
   -0.5886   -4.4375    0.0000 H   0  0  0  0  0  0  0  0  0  0  0  0
    0.8880   -5.6782    0.0000 C   0  0  0  0  0  0  0  0  0  0  0  0
   -0.5891   -5.4172    0.0000 H   0  0  0  0  0  0  0  0  0  0  0  0
    0.3746   -7.0876    0.0000 H   0  0  0  0  0  0  0  0  0  0  0  0
    2.1869   -6.4284    0.0000 N   0  0  0  0  0  0  0  0  0  0  0  0
    2.1869   -8.4084    0.0000 C   0  0  0  0  0  0  0  0  0  0  0  0
    3.4860   -9.1584    0.0000 H   0  0  0  0  0  0  0  0  0  0  0  0
    0.7097   -8.1480    0.0000 H   0  0  0  0  0  0  0  0  0  0  0  0
    1.6739   -9.8180    0.0000 H   0  0  0  0  0  0  0  0  0  0  0  0
    3.4866   -5.6778    0.0000 C   0  0  0  0  0  0  0  0  0  0  0  0
    3.9995   -7.0874    0.0000 H   0  0  0  0  0  0  0  0  0  0  0  0
    4.9638   -5.4177    0.0000 H   0  0  0  0  0  0  0  0  0  0  0  0
    3.4873   -4.1770    0.0000 C   0  0  0  0  0  0  0  0  0  0  0  0
    4.9644   -4.4380    0.0000 H   0  0  0  0  0  0  0  0  0  0  0  0
    4.0007   -2.7676    0.0000 H   0  0  0  0  0  0  0  0  0  0  0  0
   -3.6616   -0.0204    0.0000 O   0  0  0  0  0  0  0  0  0  0  0  0
   -4.6256    1.1288    0.0000 H   0  0  0  0  0  0  0  0  0  0  0  0
  1  2  1  0  0  0  0 
  1  3  1  0  0  0  0 
  1  4  1  0  0  0  0 
  5  1  1  6  0  0  0 
  5  6  1  0  0  0  0 
  6  7  1  0  0  0  0 
  6  8  1  0  0  0  0 
  6  9  1  0  0  0  0 
  9 10  1  0  0  0  0 
 10 11  2  0  0  0  0 
 11 12  1  0  0  0  0 
 12 13  2  0  0  0  0 
 13 14  1  0  0  0  0 
 13 15  1  0  0  0  0 
 15 16  2  0  0  0  0 
 10 16  1  0  0  0  0 
 16 17  1  0  0  0  0 
  5 17  1  0  0  0  0 
 17 18  1  0  0  0  0 
 18 19  1  0  0  0  0 
 18 20  2  0  0  0  0 
 20 21  1  0  0  0  0 
 15 21  1  0  0  0  0 
 21 22  2  0  0  0  0 
 20 23  1  0  0  0  0 
 23 24  2  0  0  0  0 
 23 25  1  0  0  0  0 
 25 26  1  0  0  0  0 
 12 27  1  0  0  0  0 
 11 28  1  0  0  0  0 
 28 29  1  0  0  0  0 
 29 30  1  0  0  0  0 
 29 31  1  0  0  0  0 
 29 32  1  0  0  0  0 
 32 33  1  0  0  0  0 
 32 34  1  0  0  0  0 
 32 35  1  0  0  0  0 
 35 36  1  0  0  0  0 
 36 37  1  0  0  0  0 
 36 38  1  0  0  0  0 
 36 39  1  0  0  0  0 
 35 40  1  0  0  0  0 
 40 41  1  0  0  0  0 
 40 42  1  0  0  0  0 
 40 43  1  0  0  0  0 
 28 43  1  0  0  0  0 
 43 44  1  0  0  0  0 
 43 45  1  0  0  0  0 
  5 46  1  1  0  0  0 
 46 47  1  0  0  0  0 
M  END
> <Rank>
17

> <Priority_score>
0.088

> <Reaction_type>
aliphatic hydroxylation

> <Parent_ID>
55

> <Parent_InChI>
InChI=1S/C18H20FN3O4/c1-10-9-26-17-14-11(16(23)12(18(24)25)8-22(10)14)7-13(19)15(17)21-5-3-20(2)4-6-21/h7-8,10H,3-6,9H2,1-2H3,(H,24,25)

> <Parent_SMILES>
C[C@H]1COc2c(N3CCN(C)CC3)c(F)cc3c(=O)c(C(=O)O)cn1c23

$$$$
Molecule 55_metabolite 23
  CDK     0516241031

 47 50  0  0  0  0  0  0  0  0999 V2000
   -2.6971    1.6496    0.0000 C   0  0  0  0  0  0  0  0  0  0  0  0
   -1.7326    2.7984    0.0000 H   0  0  0  0  0  0  0  0  0  0  0  0
   -3.9963    0.8999    0.0000 H   0  0  0  0  0  0  0  0  0  0  0  0
   -3.6610    2.7989    0.0000 H   0  0  0  0  0  0  0  0  0  0  0  0
   -2.1843    0.2399    0.0000 C   0  0  1  0  0  0  0  0  0  0  0  0
   -3.6616   -0.0204    0.0000 H   0  0  0  0  0  0  0  0  0  0  0  0
   -2.1843   -1.2601    0.0000 C   0  0  0  0  0  0  0  0  0  0  0  0
   -3.6616   -0.9998    0.0000 H   0  0  0  0  0  0  0  0  0  0  0  0
   -2.6971   -2.6697    0.0000 O   0  0  0  0  0  0  0  0  0  0  0  0
   -4.1742   -2.9305    0.0000 H   0  0  0  0  0  0  0  0  0  0  0  0
   -0.8843   -2.0101    0.0000 O   0  0  0  0  0  0  0  0  0  0  0  0
    0.4157   -1.2601    0.0000 C   0  0  0  0  0  0  0  0  0  0  0  0
    1.7157   -2.0101    0.0000 C   0  0  0  0  0  0  0  0  0  0  0  0
    3.0157   -1.2601    0.0000 C   0  0  0  0  0  0  0  0  0  0  0  0
    3.0157    0.2399    0.0000 C   0  0  0  0  0  0  0  0  0  0  0  0
    4.3146    0.9901    0.0000 H   0  0  0  0  0  0  0  0  0  0  0  0
    1.7157    0.9899    0.0000 C   0  0  0  0  0  0  0  0  0  0  0  0
    0.4157    0.2399    0.0000 C   0  0  0  0  0  0  0  0  0  0  0  0
   -0.8843    0.9899    0.0000 N   0  0  0  0  0  0  0  0  0  0  0  0
   -0.8843    2.4899    0.0000 C   0  0  0  0  0  0  0  0  0  0  0  0
   -2.5989    3.4802    0.0000 H   0  0  0  0  0  0  0  0  0  0  0  0
    0.4157    3.2399    0.0000 C   0  0  0  0  0  0  0  0  0  0  0  0
    1.7157    2.4899    0.0000 C   0  0  0  0  0  0  0  0  0  0  0  0
    3.0146    3.2401    0.0000 O   0  0  0  0  0  0  0  0  0  0  0  0
    0.4157    4.7399    0.0000 C   0  0  0  0  0  0  0  0  0  0  0  0
   -0.8834    5.4899    0.0000 O   0  0  0  0  0  0  0  0  0  0  0  0
    1.7147    5.4899    0.0000 O   0  0  0  0  0  0  0  0  0  0  0  0
    1.7147    6.9899    0.0000 H   0  0  0  0  0  0  0  0  0  0  0  0
    4.3146   -2.0103    0.0000 F   0  0  0  0  0  0  0  0  0  0  0  0
    1.7157   -3.5101    0.0000 N   0  0  0  0  0  0  0  0  0  0  0  0
    0.4160   -4.2607    0.0000 C   0  0  0  0  0  0  0  0  0  0  0  0
   -0.0969   -2.8511    0.0000 H   0  0  0  0  0  0  0  0  0  0  0  0
   -1.0613   -4.5208    0.0000 H   0  0  0  0  0  0  0  0  0  0  0  0
    0.4153   -5.7615    0.0000 C   0  0  0  0  0  0  0  0  0  0  0  0
   -1.0618   -5.5005    0.0000 H   0  0  0  0  0  0  0  0  0  0  0  0
   -0.0981   -7.1709    0.0000 H   0  0  0  0  0  0  0  0  0  0  0  0
    1.7142   -6.5117    0.0000 N   0  0  0  0  0  0  0  0  0  0  0  0
    1.7142   -8.4917    0.0000 C   0  0  0  0  0  0  0  0  0  0  0  0
    3.0132   -9.2417    0.0000 H   0  0  0  0  0  0  0  0  0  0  0  0
    0.2370   -8.2313    0.0000 H   0  0  0  0  0  0  0  0  0  0  0  0
    1.2012   -9.9013    0.0000 H   0  0  0  0  0  0  0  0  0  0  0  0
    3.0139   -5.7611    0.0000 C   0  0  0  0  0  0  0  0  0  0  0  0
    3.5268   -7.1707    0.0000 H   0  0  0  0  0  0  0  0  0  0  0  0
    4.4911   -5.5010    0.0000 H   0  0  0  0  0  0  0  0  0  0  0  0
    3.0146   -4.2603    0.0000 C   0  0  0  0  0  0  0  0  0  0  0  0
    4.4917   -4.5213    0.0000 H   0  0  0  0  0  0  0  0  0  0  0  0
    3.5280   -2.8509    0.0000 H   0  0  0  0  0  0  0  0  0  0  0  0
  1  2  1  0  0  0  0 
  1  3  1  0  0  0  0 
  1  4  1  0  0  0  0 
  5  1  1  6  0  0  0 
  5  6  1  1  0  0  0 
  5  7  1  0  0  0  0 
  7  8  1  0  0  0  0 
  7  9  1  0  0  0  0 
  9 10  1  0  0  0  0 
  7 11  1  0  0  0  0 
 11 12  1  0  0  0  0 
 12 13  2  0  0  0  0 
 13 14  1  0  0  0  0 
 14 15  2  0  0  0  0 
 15 16  1  0  0  0  0 
 15 17  1  0  0  0  0 
 17 18  2  0  0  0  0 
 12 18  1  0  0  0  0 
 18 19  1  0  0  0  0 
  5 19  1  0  0  0  0 
 19 20  1  0  0  0  0 
 20 21  1  0  0  0  0 
 20 22  2  0  0  0  0 
 22 23  1  0  0  0  0 
 17 23  1  0  0  0  0 
 23 24  2  0  0  0  0 
 22 25  1  0  0  0  0 
 25 26  2  0  0  0  0 
 25 27  1  0  0  0  0 
 27 28  1  0  0  0  0 
 14 29  1  0  0  0  0 
 13 30  1  0  0  0  0 
 30 31  1  0  0  0  0 
 31 32  1  0  0  0  0 
 31 33  1  0  0  0  0 
 31 34  1  0  0  0  0 
 34 35  1  0  0  0  0 
 34 36  1  0  0  0  0 
 34 37  1  0  0  0  0 
 37 38  1  0  0  0  0 
 38 39  1  0  0  0  0 
 38 40  1  0  0  0  0 
 38 41  1  0  0  0  0 
 37 42  1  0  0  0  0 
 42 43  1  0  0  0  0 
 42 44  1  0  0  0  0 
 42 45  1  0  0  0  0 
 30 45  1  0  0  0  0 
 45 46  1  0  0  0  0 
 45 47  1  0  0  0  0 
M  END
> <Rank>
23

> <Priority_score>
0.07091327264015333

> <Reaction_type>
aliphatic hydroxylation

> <Parent_ID>
55

> <Parent_InChI>
InChI=1S/C18H20FN3O4/c1-10-9-26-17-14-11(16(23)12(18(24)25)8-22(10)14)7-13(19)15(17)21-5-3-20(2)4-6-21/h7-8,10H,3-6,9H2,1-2H3,(H,24,25)

> <Parent_SMILES>
C[C@H]1COc2c(N3CCN(C)CC3)c(F)cc3c(=O)c(C(=O)O)cn1c23

$$$$
Molecule 55_metabolite 24
  CDK     0516241031

 47 49  0  0  0  0  0  0  0  0999 V2000
    3.0147   -3.5099    0.0000 C   0  0  0  0  0  0  0  0  0  0  0  0
    3.0147   -5.0099    0.0000 H   0  0  0  0  0  0  0  0  0  0  0  0
    4.4919   -3.7704    0.0000 H   0  0  0  0  0  0  0  0  0  0  0  0
    3.5277   -2.1004    0.0000 H   0  0  0  0  0  0  0  0  0  0  0  0
    1.7157   -2.7599    0.0000 C   0  0  1  0  0  0  0  0  0  0  0  0
    0.2384   -2.4995    0.0000 H   0  0  0  0  0  0  0  0  0  0  0  0
    1.2026   -4.1695    0.0000 C   0  0  0  0  0  0  0  0  0  0  0  0
    2.1668   -5.3185    0.0000 H   0  0  0  0  0  0  0  0  0  0  0  0
   -0.2746   -4.4299    0.0000 O   0  0  0  0  0  0  0  0  0  0  0  0
    1.7157   -1.2599    0.0000 N   0  0  0  0  0  0  0  0  0  0  0  0
    3.0157   -0.5099    0.0000 C   0  0  0  0  0  0  0  0  0  0  0  0
    4.3146   -1.2601    0.0000 H   0  0  0  0  0  0  0  0  0  0  0  0
    3.0157    0.9901    0.0000 C   0  0  0  0  0  0  0  0  0  0  0  0
    1.7157    1.7401    0.0000 C   0  0  0  0  0  0  0  0  0  0  0  0
    1.7157    3.2401    0.0000 O   0  0  0  0  0  0  0  0  0  0  0  0
    0.4157    0.9901    0.0000 C   0  0  0  0  0  0  0  0  0  0  0  0
    0.4157   -0.5099    0.0000 C   0  0  0  0  0  0  0  0  0  0  0  0
   -0.8843   -1.2599    0.0000 C   0  0  0  0  0  0  0  0  0  0  0  0
   -2.1843   -0.5099    0.0000 C   0  0  0  0  0  0  0  0  0  0  0  0
   -2.1843    0.9901    0.0000 C   0  0  0  0  0  0  0  0  0  0  0  0
   -0.8843    1.7401    0.0000 C   0  0  0  0  0  0  0  0  0  0  0  0
   -0.8843    3.2401    0.0000 H   0  0  0  0  0  0  0  0  0  0  0  0
   -3.4833    1.7403    0.0000 F   0  0  0  0  0  0  0  0  0  0  0  0
   -3.4833   -1.2601    0.0000 N   0  0  0  0  0  0  0  0  0  0  0  0
   -4.7833   -0.5101    0.0000 C   0  0  0  0  0  0  0  0  0  0  0  0
   -3.8192    0.6390    0.0000 H   0  0  0  0  0  0  0  0  0  0  0  0
   -5.7473    0.6390    0.0000 H   0  0  0  0  0  0  0  0  0  0  0  0
   -6.0833   -1.2601    0.0000 C   0  0  0  0  0  0  0  0  0  0  0  0
   -6.5960    0.1495    0.0000 H   0  0  0  0  0  0  0  0  0  0  0  0
   -7.5605   -1.5205    0.0000 H   0  0  0  0  0  0  0  0  0  0  0  0
   -6.0833   -2.7601    0.0000 N   0  0  0  0  0  0  0  0  0  0  0  0
   -7.7978   -3.7504    0.0000 C   0  0  0  0  0  0  0  0  0  0  0  0
   -9.0970   -3.0006    0.0000 H   0  0  0  0  0  0  0  0  0  0  0  0
   -8.7618   -4.8996    0.0000 H   0  0  0  0  0  0  0  0  0  0  0  0
   -6.8335   -4.8993    0.0000 H   0  0  0  0  0  0  0  0  0  0  0  0
   -4.7833   -3.5101    0.0000 C   0  0  0  0  0  0  0  0  0  0  0  0
   -5.7473   -4.6593    0.0000 H   0  0  0  0  0  0  0  0  0  0  0  0
   -3.8192   -4.6593    0.0000 H   0  0  0  0  0  0  0  0  0  0  0  0
   -3.4833   -2.7601    0.0000 C   0  0  0  0  0  0  0  0  0  0  0  0
   -2.9705   -4.1698    0.0000 H   0  0  0  0  0  0  0  0  0  0  0  0
   -2.0060   -2.4998    0.0000 H   0  0  0  0  0  0  0  0  0  0  0  0
   -0.8843   -2.7599    0.0000 O   0  0  0  0  0  0  0  0  0  0  0  0
    0.4147   -3.5099    0.0000 H   0  0  0  0  0  0  0  0  0  0  0  0
    4.3146    1.7403    0.0000 C   0  0  0  0  0  0  0  0  0  0  0  0
    4.3143    3.2403    0.0000 O   0  0  0  0  0  0  0  0  0  0  0  0
    5.6137    0.9905    0.0000 O   0  0  0  0  0  0  0  0  0  0  0  0
    6.9126    1.7407    0.0000 H   0  0  0  0  0  0  0  0  0  0  0  0
  1  2  1  0  0  0  0 
  1  3  1  0  0  0  0 
  1  4  1  0  0  0  0 
  1  5  1  0  0  0  0 
  5  6  1  6  0  0  0 
  5  7  1  0  0  0  0 
  7  8  1  0  0  0  0 
  7  9  2  0  0  0  0 
  5 10  1  1  0  0  0 
 10 11  1  0  0  0  0 
 11 12  1  0  0  0  0 
 11 13  2  0  0  0  0 
 13 14  1  0  0  0  0 
 14 15  2  0  0  0  0 
 14 16  1  0  0  0  0 
 16 17  2  0  0  0  0 
 10 17  1  0  0  0  0 
 17 18  1  0  0  0  0 
 18 19  2  0  0  0  0 
 19 20  1  0  0  0  0 
 20 21  2  0  0  0  0 
 16 21  1  0  0  0  0 
 21 22  1  0  0  0  0 
 20 23  1  0  0  0  0 
 19 24  1  0  0  0  0 
 24 25  1  0  0  0  0 
 25 26  1  0  0  0  0 
 25 27  1  0  0  0  0 
 25 28  1  0  0  0  0 
 28 29  1  0  0  0  0 
 28 30  1  0  0  0  0 
 28 31  1  0  0  0  0 
 31 32  1  0  0  0  0 
 32 33  1  0  0  0  0 
 32 34  1  0  0  0  0 
 32 35  1  0  0  0  0 
 31 36  1  0  0  0  0 
 36 37  1  0  0  0  0 
 36 38  1  0  0  0  0 
 36 39  1  0  0  0  0 
 24 39  1  0  0  0  0 
 39 40  1  0  0  0  0 
 39 41  1  0  0  0  0 
 18 42  1  0  0  0  0 
 42 43  1  0  0  0  0 
 13 44  1  0  0  0  0 
 44 45  2  0  0  0  0 
 44 46  1  0  0  0  0 
 46 47  1  0  0  0  0 
M  END
> <Rank>
23

> <Priority_score>
0.07091327264015333

> <Reaction_type>
oxidative ether cleavage to one alcohol and one aldehyde/ketone

> <Parent_ID>
55

> <Parent_InChI>
InChI=1S/C18H20FN3O4/c1-10-9-26-17-14-11(16(23)12(18(24)25)8-22(10)14)7-13(19)15(17)21-5-3-20(2)4-6-21/h7-8,10H,3-6,9H2,1-2H3,(H,24,25)

> <Parent_SMILES>
C[C@H]1COc2c(N3CCN(C)CC3)c(F)cc3c(=O)c(C(=O)O)cn1c23

$$$$
Molecule 55_metabolite 25
  CDK     0516241031

 49 51  0  0  0  0  0  0  0  0999 V2000
    0.6541   -3.2195    0.0000 C   0  0  0  0  0  0  0  0  0  0  0  0
   -0.3100   -4.3685    0.0000 H   0  0  0  0  0  0  0  0  0  0  0  0
    1.1672   -1.8099    0.0000 H   0  0  0  0  0  0  0  0  0  0  0  0
   -1.4763   -1.9895    0.0000 H   0  0  0  0  0  0  0  0  0  0  0  0
    2.1313   -3.4799    0.0000 C   0  0  1  0  0  0  0  0  0  0  0  0
    1.6183   -4.8895    0.0000 H   0  0  0  0  0  0  0  0  0  0  0  0
    3.4304   -4.2299    0.0000 C   0  0  0  0  0  0  0  0  0  0  0  0
    4.9076   -4.4904    0.0000 H   0  0  0  0  0  0  0  0  0  0  0  0
    3.9434   -2.8204    0.0000 H   0  0  0  0  0  0  0  0  0  0  0  0
    3.4304   -5.7299    0.0000 O   0  0  0  0  0  0  0  0  0  0  0  0
    4.7294   -6.4799    0.0000 H   0  0  0  0  0  0  0  0  0  0  0  0
    2.1313   -1.4999    0.0000 N   0  0  0  0  0  0  0  0  0  0  0  0
    3.4313   -0.7499    0.0000 C   0  0  0  0  0  0  0  0  0  0  0  0
    4.7303   -1.5001    0.0000 H   0  0  0  0  0  0  0  0  0  0  0  0
    3.4313    0.7501    0.0000 C   0  0  0  0  0  0  0  0  0  0  0  0
    2.1313    1.5001    0.0000 C   0  0  0  0  0  0  0  0  0  0  0  0
    2.1313    3.0001    0.0000 O   0  0  0  0  0  0  0  0  0  0  0  0
    0.8313    0.7501    0.0000 C   0  0  0  0  0  0  0  0  0  0  0  0
    0.8313   -0.7499    0.0000 C   0  0  0  0  0  0  0  0  0  0  0  0
   -0.4687   -1.4999    0.0000 C   0  0  0  0  0  0  0  0  0  0  0  0
   -1.7687   -0.7499    0.0000 C   0  0  0  0  0  0  0  0  0  0  0  0
   -1.7687    0.7501    0.0000 C   0  0  0  0  0  0  0  0  0  0  0  0
   -0.4687    1.5001    0.0000 C   0  0  0  0  0  0  0  0  0  0  0  0
   -0.4687    3.0001    0.0000 H   0  0  0  0  0  0  0  0  0  0  0  0
   -3.0676    1.5003    0.0000 F   0  0  0  0  0  0  0  0  0  0  0  0
   -3.0676   -1.5001    0.0000 N   0  0  0  0  0  0  0  0  0  0  0  0
   -4.3676   -0.7501    0.0000 C   0  0  0  0  0  0  0  0  0  0  0  0
   -3.4035    0.3990    0.0000 H   0  0  0  0  0  0  0  0  0  0  0  0
   -5.3316    0.3990    0.0000 H   0  0  0  0  0  0  0  0  0  0  0  0
   -5.6676   -1.5001    0.0000 C   0  0  0  0  0  0  0  0  0  0  0  0
   -6.1803   -0.0905    0.0000 H   0  0  0  0  0  0  0  0  0  0  0  0
   -7.1448   -1.7605    0.0000 H   0  0  0  0  0  0  0  0  0  0  0  0
   -5.6676   -3.0001    0.0000 N   0  0  0  0  0  0  0  0  0  0  0  0
   -7.3821   -3.9904    0.0000 C   0  0  0  0  0  0  0  0  0  0  0  0
   -8.6813   -3.2406    0.0000 H   0  0  0  0  0  0  0  0  0  0  0  0
   -8.3461   -5.1396    0.0000 H   0  0  0  0  0  0  0  0  0  0  0  0
   -6.4178   -5.1393    0.0000 H   0  0  0  0  0  0  0  0  0  0  0  0
   -4.3676   -3.7501    0.0000 C   0  0  0  0  0  0  0  0  0  0  0  0
   -5.3316   -4.8993    0.0000 H   0  0  0  0  0  0  0  0  0  0  0  0
   -3.4035   -4.8993    0.0000 H   0  0  0  0  0  0  0  0  0  0  0  0
   -3.0676   -3.0001    0.0000 C   0  0  0  0  0  0  0  0  0  0  0  0
   -2.5548   -4.4098    0.0000 H   0  0  0  0  0  0  0  0  0  0  0  0
   -1.5903   -2.7398    0.0000 H   0  0  0  0  0  0  0  0  0  0  0  0
   -0.4687   -2.9999    0.0000 O   0  0  0  0  0  0  0  0  0  0  0  0
    1.2461   -3.9899    0.0000 H   0  0  0  0  0  0  0  0  0  0  0  0
    4.7303    1.5003    0.0000 C   0  0  0  0  0  0  0  0  0  0  0  0
    6.0294    0.7505    0.0000 O   0  0  0  0  0  0  0  0  0  0  0  0
    4.7300    3.0003    0.0000 O   0  0  0  0  0  0  0  0  0  0  0  0
    6.0289    3.7505    0.0000 H   0  0  0  0  0  0  0  0  0  0  0  0
  1  2  1  0  0  0  0 
  1  3  1  0  0  0  0 
  1  4  1  0  0  0  0 
  5  1  1  6  0  0  0 
  5  6  1  1  0  0  0 
  5  7  1  0  0  0  0 
  7  8  1  0  0  0  0 
  7  9  1  0  0  0  0 
  7 10  1  0  0  0  0 
 10 11  1  0  0  0  0 
  5 12  1  0  0  0  0 
 12 13  1  0  0  0  0 
 13 14  1  0  0  0  0 
 13 15  2  0  0  0  0 
 15 16  1  0  0  0  0 
 16 17  2  0  0  0  0 
 16 18  1  0  0  0  0 
 18 19  2  0  0  0  0 
 12 19  1  0  0  0  0 
 19 20  1  0  0  0  0 
 20 21  2  0  0  0  0 
 21 22  1  0  0  0  0 
 22 23  2  0  0  0  0 
 18 23  1  0  0  0  0 
 23 24  1  0  0  0  0 
 22 25  1  0  0  0  0 
 21 26  1  0  0  0  0 
 26 27  1  0  0  0  0 
 27 28  1  0  0  0  0 
 27 29  1  0  0  0  0 
 27 30  1  0  0  0  0 
 30 31  1  0  0  0  0 
 30 32  1  0  0  0  0 
 30 33  1  0  0  0  0 
 33 34  1  0  0  0  0 
 34 35  1  0  0  0  0 
 34 36  1  0  0  0  0 
 34 37  1  0  0  0  0 
 33 38  1  0  0  0  0 
 38 39  1  0  0  0  0 
 38 40  1  0  0  0  0 
 38 41  1  0  0  0  0 
 26 41  1  0  0  0  0 
 41 42  1  0  0  0  0 
 41 43  1  0  0  0  0 
 20 44  1  0  0  0  0 
 44 45  1  0  0  0  0 
 15 46  1  0  0  0  0 
 46 47  2  0  0  0  0 
 46 48  1  0  0  0  0 
 48 49  1  0  0  0  0 
M  END
> <Rank>
23

> <Priority_score>
0.07091327264015333

> <Reaction_type>
O-dealkylation_(aromatic)

> <Parent_ID>
55

> <Parent_InChI>
InChI=1S/C18H20FN3O4/c1-10-9-26-17-14-11(16(23)12(18(24)25)8-22(10)14)7-13(19)15(17)21-5-3-20(2)4-6-21/h7-8,10H,3-6,9H2,1-2H3,(H,24,25)

> <Parent_SMILES>
C[C@H]1COc2c(N3CCN(C)CC3)c(F)cc3c(=O)c(C(=O)O)cn1c23

$$$$
Molecule 55_metabolite 26
  CDK     0516241031

 47 50  0  0  0  0  0  0  0  0999 V2000
    7.7978    3.0004    0.0000 C   0  0  0  0  0  0  0  0  0  0  0  0
    9.0970    2.2506    0.0000 H   0  0  0  0  0  0  0  0  0  0  0  0
    8.7618    4.1496    0.0000 H   0  0  0  0  0  0  0  0  0  0  0  0
    6.8335    4.1493    0.0000 H   0  0  0  0  0  0  0  0  0  0  0  0
    6.0833    2.0101    0.0000 N   0  0  0  0  0  0  0  0  0  0  0  0
    4.7833    2.7601    0.0000 C   0  0  0  0  0  0  0  0  0  0  0  0
    5.7473    3.9093    0.0000 H   0  0  0  0  0  0  0  0  0  0  0  0
    3.8192    3.9093    0.0000 H   0  0  0  0  0  0  0  0  0  0  0  0
    3.4833    2.0101    0.0000 C   0  0  0  0  0  0  0  0  0  0  0  0
    2.9705    3.4198    0.0000 H   0  0  0  0  0  0  0  0  0  0  0  0
    2.0060    1.7498    0.0000 H   0  0  0  0  0  0  0  0  0  0  0  0
    3.4833    0.5101    0.0000 N   0  0  0  0  0  0  0  0  0  0  0  0
    4.7833   -0.2399    0.0000 C   0  0  0  0  0  0  0  0  0  0  0  0
    3.8192   -1.3890    0.0000 H   0  0  0  0  0  0  0  0  0  0  0  0
    5.7473   -1.3890    0.0000 H   0  0  0  0  0  0  0  0  0  0  0  0
    6.0833    0.5101    0.0000 C   0  0  0  0  0  0  0  0  0  0  0  0
    6.5960   -0.8995    0.0000 H   0  0  0  0  0  0  0  0  0  0  0  0
    7.5605    0.7705    0.0000 H   0  0  0  0  0  0  0  0  0  0  0  0
    2.1843   -0.2401    0.0000 C   0  0  0  0  0  0  0  0  0  0  0  0
    0.8843    0.5099    0.0000 C   0  0  0  0  0  0  0  0  0  0  0  0
   -0.4157   -0.2401    0.0000 C   0  0  0  0  0  0  0  0  0  0  0  0
   -0.4157   -1.7401    0.0000 C   0  0  0  0  0  0  0  0  0  0  0  0
    0.8843   -2.4901    0.0000 C   0  0  0  0  0  0  0  0  0  0  0  0
    0.8843   -3.9901    0.0000 H   0  0  0  0  0  0  0  0  0  0  0  0
    2.1843   -1.7401    0.0000 C   0  0  0  0  0  0  0  0  0  0  0  0
    3.4833   -2.4903    0.0000 F   0  0  0  0  0  0  0  0  0  0  0  0
   -1.7157   -2.4901    0.0000 C   0  0  0  0  0  0  0  0  0  0  0  0
   -1.7157   -3.9901    0.0000 O   0  0  0  0  0  0  0  0  0  0  0  0
   -3.0157   -1.7401    0.0000 C   0  0  0  0  0  0  0  0  0  0  0  0
   -3.0157   -0.2401    0.0000 C   0  0  0  0  0  0  0  0  0  0  0  0
   -4.3146    0.5101    0.0000 H   0  0  0  0  0  0  0  0  0  0  0  0
   -1.7157    0.5099    0.0000 N   0  0  0  0  0  0  0  0  0  0  0  0
   -1.7157    2.0099    0.0000 C   0  0  1  0  0  0  0  0  0  0  0  0
   -2.2284    3.4196    0.0000 H   0  0  0  0  0  0  0  0  0  0  0  0
   -3.2157    2.0101    0.0000 C   0  0  0  0  0  0  0  0  0  0  0  0
   -4.6252    1.4972    0.0000 H   0  0  0  0  0  0  0  0  0  0  0  0
   -2.9553    0.5329    0.0000 H   0  0  0  0  0  0  0  0  0  0  0  0
   -3.9655    3.3092    0.0000 O   0  0  0  0  0  0  0  0  0  0  0  0
   -5.4655    3.3094    0.0000 H   0  0  0  0  0  0  0  0  0  0  0  0
   -0.4157    2.7599    0.0000 C   0  0  0  0  0  0  0  0  0  0  0  0
    0.5484    3.9091    0.0000 H   0  0  0  0  0  0  0  0  0  0  0  0
   -1.3797    3.9091    0.0000 H   0  0  0  0  0  0  0  0  0  0  0  0
    0.8843    2.0099    0.0000 O   0  0  0  0  0  0  0  0  0  0  0  0
   -4.3146   -2.4903    0.0000 C   0  0  0  0  0  0  0  0  0  0  0  0
   -4.3143   -3.9903    0.0000 O   0  0  0  0  0  0  0  0  0  0  0  0
   -5.6137   -1.7405    0.0000 O   0  0  0  0  0  0  0  0  0  0  0  0
   -6.9126   -2.4907    0.0000 H   0  0  0  0  0  0  0  0  0  0  0  0
  1  2  1  0  0  0  0 
  1  3  1  0  0  0  0 
  1  4  1  0  0  0  0 
  1  5  1  0  0  0  0 
  5  6  1  0  0  0  0 
  6  7  1  0  0  0  0 
  6  8  1  0  0  0  0 
  6  9  1  0  0  0  0 
  9 10  1  0  0  0  0 
  9 11  1  0  0  0  0 
  9 12  1  0  0  0  0 
 12 13  1  0  0  0  0 
 13 14  1  0  0  0  0 
 13 15  1  0  0  0  0 
 13 16  1  0  0  0  0 
  5 16  1  0  0  0  0 
 16 17  1  0  0  0  0 
 16 18  1  0  0  0  0 
 12 19  1  0  0  0  0 
 19 20  2  0  0  0  0 
 20 21  1  0  0  0  0 
 21 22  2  0  0  0  0 
 22 23  1  0  0  0  0 
 23 24  1  0  0  0  0 
 23 25  2  0  0  0  0 
 19 25  1  0  0  0  0 
 25 26  1  0  0  0  0 
 22 27  1  0  0  0  0 
 27 28  2  0  0  0  0 
 27 29  1  0  0  0  0 
 29 30  2  0  0  0  0 
 30 31  1  0  0  0  0 
 30 32  1  0  0  0  0 
 21 32  1  0  0  0  0 
 32 33  1  0  0  0  0 
 33 34  1  6  0  0  0 
 33 35  1  1  0  0  0 
 35 36  1  0  0  0  0 
 35 37  1  0  0  0  0 
 35 38  1  0  0  0  0 
 38 39  1  0  0  0  0 
 33 40  1  0  0  0  0 
 40 41  1  0  0  0  0 
 40 42  1  0  0  0  0 
 40 43  1  0  0  0  0 
 20 43  1  0  0  0  0 
 29 44  1  0  0  0  0 
 44 45  2  0  0  0  0 
 44 46  1  0  0  0  0 
 46 47  1  0  0  0  0 
M  END
> <Rank>
26

> <Priority_score>
0.036

> <Reaction_type>
aliphatic hydroxylation

> <Parent_ID>
55

> <Parent_InChI>
InChI=1S/C18H20FN3O4/c1-10-9-26-17-14-11(16(23)12(18(24)25)8-22(10)14)7-13(19)15(17)21-5-3-20(2)4-6-21/h7-8,10H,3-6,9H2,1-2H3,(H,24,25)

> <Parent_SMILES>
C[C@H]1COc2c(N3CCN(C)CC3)c(F)cc3c(=O)c(C(=O)O)cn1c23

$$$$
Molecule 55_metabolite 27
  CDK     0516241031

 47 50  0  0  0  0  0  0  0  0999 V2000
   -2.2284    3.4196    0.0000 C   0  0  0  0  0  0  0  0  0  0  0  0
   -1.2640    4.5684    0.0000 H   0  0  0  0  0  0  0  0  0  0  0  0
   -3.5276    2.6699    0.0000 H   0  0  0  0  0  0  0  0  0  0  0  0
   -3.1923    4.5689    0.0000 H   0  0  0  0  0  0  0  0  0  0  0  0
   -1.3875    1.1078    0.0000 C   0  0  1  0  0  0  0  0  0  0  0  0
   -2.8647    0.8474    0.0000 H   0  0  0  0  0  0  0  0  0  0  0  0
   -0.0875    1.8578    0.0000 C   0  0  0  0  0  0  0  0  0  0  0  0
    0.8766    3.0069    0.0000 H   0  0  0  0  0  0  0  0  0  0  0  0
   -1.0516    3.0069    0.0000 H   0  0  0  0  0  0  0  0  0  0  0  0
    1.2125    1.1078    0.0000 O   0  0  0  0  0  0  0  0  0  0  0  0
    1.2125   -0.3922    0.0000 C   0  0  0  0  0  0  0  0  0  0  0  0
   -0.0875   -1.1422    0.0000 C   0  0  0  0  0  0  0  0  0  0  0  0
   -0.0875   -2.6422    0.0000 C   0  0  0  0  0  0  0  0  0  0  0  0
    1.2125   -3.3922    0.0000 C   0  0  0  0  0  0  0  0  0  0  0  0
    2.5125   -2.6422    0.0000 C   0  0  0  0  0  0  0  0  0  0  0  0
    2.5125   -1.1422    0.0000 C   0  0  0  0  0  0  0  0  0  0  0  0
    3.8114   -0.3920    0.0000 N   0  0  0  0  0  0  0  0  0  0  0  0
    5.1114   -1.1420    0.0000 C   0  0  0  0  0  0  0  0  0  0  0  0
    4.1474   -2.2912    0.0000 H   0  0  0  0  0  0  0  0  0  0  0  0
    6.0755   -2.2912    0.0000 H   0  0  0  0  0  0  0  0  0  0  0  0
    6.4114   -0.3920    0.0000 C   0  0  0  0  0  0  0  0  0  0  0  0
    6.9241   -1.8017    0.0000 H   0  0  0  0  0  0  0  0  0  0  0  0
    7.8887   -0.1317    0.0000 H   0  0  0  0  0  0  0  0  0  0  0  0
    6.4114    1.1080    0.0000 N   0  0  0  0  0  0  0  0  0  0  0  0
    8.1260    2.0982    0.0000 C   0  0  0  0  0  0  0  0  0  0  0  0
    9.4251    1.3484    0.0000 H   0  0  0  0  0  0  0  0  0  0  0  0
    9.0900    3.2475    0.0000 H   0  0  0  0  0  0  0  0  0  0  0  0
    7.1616    3.2472    0.0000 H   0  0  0  0  0  0  0  0  0  0  0  0
    5.1114    1.8580    0.0000 C   0  0  0  0  0  0  0  0  0  0  0  0
    6.0755    3.0071    0.0000 H   0  0  0  0  0  0  0  0  0  0  0  0
    4.1474    3.0071    0.0000 H   0  0  0  0  0  0  0  0  0  0  0  0
    3.8114    1.1080    0.0000 C   0  0  0  0  0  0  0  0  0  0  0  0
    3.2987    2.5176    0.0000 H   0  0  0  0  0  0  0  0  0  0  0  0
    2.3342    0.8477    0.0000 H   0  0  0  0  0  0  0  0  0  0  0  0
    3.8114   -3.3924    0.0000 F   0  0  0  0  0  0  0  0  0  0  0  0
    1.2125   -4.8922    0.0000 O   0  0  0  0  0  0  0  0  0  0  0  0
   -0.0865   -5.6422    0.0000 H   0  0  0  0  0  0  0  0  0  0  0  0
   -1.3875   -3.3922    0.0000 C   0  0  0  0  0  0  0  0  0  0  0  0
   -1.3875   -4.8922    0.0000 O   0  0  0  0  0  0  0  0  0  0  0  0
   -2.6875   -2.6422    0.0000 C   0  0  0  0  0  0  0  0  0  0  0  0
   -2.6875   -1.1422    0.0000 C   0  0  0  0  0  0  0  0  0  0  0  0
   -3.9864   -0.3920    0.0000 H   0  0  0  0  0  0  0  0  0  0  0  0
   -1.3875   -0.3922    0.0000 N   0  0  0  0  0  0  0  0  0  0  0  0
   -3.9864   -3.3924    0.0000 C   0  0  0  0  0  0  0  0  0  0  0  0
   -3.9862   -4.8924    0.0000 O   0  0  0  0  0  0  0  0  0  0  0  0
   -5.2856   -2.6427    0.0000 O   0  0  0  0  0  0  0  0  0  0  0  0
   -6.5845   -3.3929    0.0000 H   0  0  0  0  0  0  0  0  0  0  0  0
  1  2  1  0  0  0  0 
  1  3  1  0  0  0  0 
  1  4  1  0  0  0  0 
  1  5  1  0  0  0  0 
  5  6  1  6  0  0  0 
  5  7  1  0  0  0  0 
  7  8  1  0  0  0  0 
  7  9  1  0  0  0  0 
  7 10  1  0  0  0  0 
 10 11  1  0  0  0  0 
 11 12  2  0  0  0  0 
 12 13  1  0  0  0  0 
 13 14  2  0  0  0  0 
 14 15  1  0  0  0  0 
 15 16  2  0  0  0  0 
 11 16  1  0  0  0  0 
 16 17  1  0  0  0  0 
 17 18  1  0  0  0  0 
 18 19  1  0  0  0  0 
 18 20  1  0  0  0  0 
 18 21  1  0  0  0  0 
 21 22  1  0  0  0  0 
 21 23  1  0  0  0  0 
 21 24  1  0  0  0  0 
 24 25  1  0  0  0  0 
 25 26  1  0  0  0  0 
 25 27  1  0  0  0  0 
 25 28  1  0  0  0  0 
 24 29  1  0  0  0  0 
 29 30  1  0  0  0  0 
 29 31  1  0  0  0  0 
 29 32  1  0  0  0  0 
 17 32  1  0  0  0  0 
 32 33  1  0  0  0  0 
 32 34  1  0  0  0  0 
 15 35  1  0  0  0  0 
 14 36  1  0  0  0  0 
 36 37  1  0  0  0  0 
 13 38  1  0  0  0  0 
 38 39  2  0  0  0  0 
 38 40  1  0  0  0  0 
 40 41  2  0  0  0  0 
 41 42  1  0  0  0  0 
 41 43  1  0  0  0  0 
  5 43  1  1  0  0  0 
 12 43  1  0  0  0  0 
 40 44  1  0  0  0  0 
 44 45  2  0  0  0  0 
 44 46  1  0  0  0  0 
 46 47  1  0  0  0  0 
M  END
> <Rank>
27

> <Priority_score>
0.024

> <Reaction_type>
aromatic_hydroxylation_(para_to_oxygen)

> <Parent_ID>
55

> <Parent_InChI>
InChI=1S/C18H20FN3O4/c1-10-9-26-17-14-11(16(23)12(18(24)25)8-22(10)14)7-13(19)15(17)21-5-3-20(2)4-6-21/h7-8,10H,3-6,9H2,1-2H3,(H,24,25)

> <Parent_SMILES>
C[C@H]1COc2c(N3CCN(C)CC3)c(F)cc3c(=O)c(C(=O)O)cn1c23

$$$$
Molecule 55_metabolite 28
  CDK     0516241031

 45 48  0  0  0  0  0  0  0  0999 V2000
   -2.6971    1.6496    0.0000 C   0  0  0  0  0  0  0  0  0  0  0  0
   -1.7326    2.7984    0.0000 H   0  0  0  0  0  0  0  0  0  0  0  0
   -3.9963    0.8999    0.0000 H   0  0  0  0  0  0  0  0  0  0  0  0
   -3.6610    2.7989    0.0000 H   0  0  0  0  0  0  0  0  0  0  0  0
   -2.1843    0.2399    0.0000 C   0  0  1  0  0  0  0  0  0  0  0  0
   -3.6616   -0.0204    0.0000 H   0  0  0  0  0  0  0  0  0  0  0  0
   -2.1843   -1.2601    0.0000 C   0  0  0  0  0  0  0  0  0  0  0  0
   -3.6616   -0.9998    0.0000 H   0  0  0  0  0  0  0  0  0  0  0  0
   -2.6971   -2.6697    0.0000 H   0  0  0  0  0  0  0  0  0  0  0  0
   -0.8843   -2.0101    0.0000 O   0  0  0  0  0  0  0  0  0  0  0  0
    0.4157   -1.2601    0.0000 C   0  0  0  0  0  0  0  0  0  0  0  0
    1.7157   -2.0101    0.0000 C   0  0  0  0  0  0  0  0  0  0  0  0
    3.0157   -1.2601    0.0000 C   0  0  0  0  0  0  0  0  0  0  0  0
    3.0157    0.2399    0.0000 C   0  0  0  0  0  0  0  0  0  0  0  0
    4.3146    0.9901    0.0000 H   0  0  0  0  0  0  0  0  0  0  0  0
    1.7157    0.9899    0.0000 C   0  0  0  0  0  0  0  0  0  0  0  0
    0.4157    0.2399    0.0000 C   0  0  0  0  0  0  0  0  0  0  0  0
   -0.8843    0.9899    0.0000 N   0  0  0  0  0  0  0  0  0  0  0  0
   -0.8843    2.4899    0.0000 C   0  0  0  0  0  0  0  0  0  0  0  0
   -2.5989    3.4802    0.0000 H   0  0  0  0  0  0  0  0  0  0  0  0
    0.4157    3.2399    0.0000 C   0  0  0  0  0  0  0  0  0  0  0  0
    1.7157    2.4899    0.0000 C   0  0  0  0  0  0  0  0  0  0  0  0
    3.0146    3.2401    0.0000 O   0  0  0  0  0  0  0  0  0  0  0  0
    0.4157    4.7399    0.0000 C   0  0  0  0  0  0  0  0  0  0  0  0
   -0.8834    5.4899    0.0000 O   0  0  0  0  0  0  0  0  0  0  0  0
    1.7147    5.4899    0.0000 O   0  0  0  0  0  0  0  0  0  0  0  0
    1.7147    6.9899    0.0000 H   0  0  0  0  0  0  0  0  0  0  0  0
    4.3146   -2.0103    0.0000 F   0  0  0  0  0  0  0  0  0  0  0  0
    1.7157   -3.5101    0.0000 N   0  0  0  0  0  0  0  0  0  0  0  0
    0.4160   -4.2607    0.0000 C   0  0  0  0  0  0  0  0  0  0  0  0
   -0.8829   -3.5105    0.0000 H   0  0  0  0  0  0  0  0  0  0  0  0
    0.4153   -5.7615    0.0000 C   0  0  0  0  0  0  0  0  0  0  0  0
   -1.0618   -5.5005    0.0000 H   0  0  0  0  0  0  0  0  0  0  0  0
   -0.0981   -7.1709    0.0000 H   0  0  0  0  0  0  0  0  0  0  0  0
    1.7142   -6.5117    0.0000 N   0  0  0  0  0  0  0  0  0  0  0  0
    1.7142   -8.4917    0.0000 C   0  0  0  0  0  0  0  0  0  0  0  0
    3.0132   -9.2417    0.0000 H   0  0  0  0  0  0  0  0  0  0  0  0
    0.2370   -8.2313    0.0000 H   0  0  0  0  0  0  0  0  0  0  0  0
    1.2012   -9.9013    0.0000 H   0  0  0  0  0  0  0  0  0  0  0  0
    3.0139   -5.7611    0.0000 C   0  0  0  0  0  0  0  0  0  0  0  0
    3.5268   -7.1707    0.0000 H   0  0  0  0  0  0  0  0  0  0  0  0
    4.4911   -5.5010    0.0000 H   0  0  0  0  0  0  0  0  0  0  0  0
    3.0146   -4.2603    0.0000 C   0  0  0  0  0  0  0  0  0  0  0  0
    4.4917   -4.5213    0.0000 H   0  0  0  0  0  0  0  0  0  0  0  0
    3.5280   -2.8509    0.0000 H   0  0  0  0  0  0  0  0  0  0  0  0
  1  2  1  0  0  0  0 
  1  3  1  0  0  0  0 
  1  4  1  0  0  0  0 
  5  1  1  6  0  0  0 
  5  6  1  1  0  0  0 
  5  7  1  0  0  0  0 
  7  8  1  0  0  0  0 
  7  9  1  0  0  0  0 
  7 10  1  0  0  0  0 
 10 11  1  0  0  0  0 
 11 12  2  0  0  0  0 
 12 13  1  0  0  0  0 
 13 14  2  0  0  0  0 
 14 15  1  0  0  0  0 
 14 16  1  0  0  0  0 
 16 17  2  0  0  0  0 
 11 17  1  0  0  0  0 
 17 18  1  0  0  0  0 
  5 18  1  0  0  0  0 
 18 19  1  0  0  0  0 
 19 20  1  0  0  0  0 
 19 21  2  0  0  0  0 
 21 22  1  0  0  0  0 
 16 22  1  0  0  0  0 
 22 23  2  0  0  0  0 
 21 24  1  0  0  0  0 
 24 25  2  0  0  0  0 
 24 26  1  0  0  0  0 
 26 27  1  0  0  0  0 
 13 28  1  0  0  0  0 
 12 29  1  0  0  0  0 
 29 30  2  0  0  0  0 
 30 31  1  0  0  0  0 
 30 32  1  0  0  0  0 
 32 33  1  0  0  0  0 
 32 34  1  0  0  0  0 
 32 35  1  0  0  0  0 
 35 36  1  0  0  0  0 
 36 37  1  0  0  0  0 
 36 38  1  0  0  0  0 
 36 39  1  0  0  0  0 
 35 40  1  0  0  0  0 
 40 41  1  0  0  0  0 
 40 42  1  0  0  0  0 
 40 43  1  0  0  0  0 
 29 43  1  0  0  0  0 
 43 44  1  0  0  0  0 
 43 45  1  0  0  0  0 
M  CHG  1  29   1
M  END
> <Rank>
28

> <Priority_score>
0.0176

> <Reaction_type>
dehydration of N-C bond

> <Parent_ID>
55

> <Parent_InChI>
InChI=1S/C18H20FN3O4/c1-10-9-26-17-14-11(16(23)12(18(24)25)8-22(10)14)7-13(19)15(17)21-5-3-20(2)4-6-21/h7-8,10H,3-6,9H2,1-2H3,(H,24,25)

> <Parent_SMILES>
C[C@H]1COc2c(N3CCN(C)CC3)c(F)cc3c(=O)c(C(=O)O)cn1c23

$$$$
Molecule 55_metabolite 29
  CDK     0516241031

 44 47  0  0  0  0  0  0  0  0999 V2000
   -3.8989    1.2302    0.0000 C   0  0  0  0  0  0  0  0  0  0  0  0
   -5.1981    0.4804    0.0000 H   0  0  0  0  0  0  0  0  0  0  0  0
   -3.8987    2.7302    0.0000 H   0  0  0  0  0  0  0  0  0  0  0  0
   -2.6000    0.4800    0.0000 C   0  0  0  0  0  0  0  0  0  0  0  0
   -2.6000   -1.0200    0.0000 C   0  0  0  0  0  0  0  0  0  0  0  0
   -4.0772   -0.7597    0.0000 H   0  0  0  0  0  0  0  0  0  0  0  0
   -3.1127   -2.4296    0.0000 H   0  0  0  0  0  0  0  0  0  0  0  0
   -1.3000   -1.7700    0.0000 O   0  0  0  0  0  0  0  0  0  0  0  0
    0.0000   -1.0200    0.0000 C   0  0  0  0  0  0  0  0  0  0  0  0
    1.3000   -1.7700    0.0000 C   0  0  0  0  0  0  0  0  0  0  0  0
    2.6000   -1.0200    0.0000 C   0  0  0  0  0  0  0  0  0  0  0  0
    2.6000    0.4800    0.0000 C   0  0  0  0  0  0  0  0  0  0  0  0
    3.8989    1.2302    0.0000 H   0  0  0  0  0  0  0  0  0  0  0  0
    1.3000    1.2300    0.0000 C   0  0  0  0  0  0  0  0  0  0  0  0
    0.0000    0.4800    0.0000 C   0  0  0  0  0  0  0  0  0  0  0  0
   -1.3000    1.2300    0.0000 N   0  0  0  0  0  0  0  0  0  0  0  0
   -1.3000    2.7300    0.0000 C   0  0  0  0  0  0  0  0  0  0  0  0
   -2.5989    3.4802    0.0000 H   0  0  0  0  0  0  0  0  0  0  0  0
    0.0000    3.4800    0.0000 C   0  0  0  0  0  0  0  0  0  0  0  0
    1.3000    2.7300    0.0000 C   0  0  0  0  0  0  0  0  0  0  0  0
    2.5989    3.4802    0.0000 O   0  0  0  0  0  0  0  0  0  0  0  0
    0.0000    4.9800    0.0000 C   0  0  0  0  0  0  0  0  0  0  0  0
   -1.2990    5.7300    0.0000 O   0  0  0  0  0  0  0  0  0  0  0  0
    1.2990    5.7300    0.0000 O   0  0  0  0  0  0  0  0  0  0  0  0
    1.2990    7.2300    0.0000 H   0  0  0  0  0  0  0  0  0  0  0  0
    3.8989   -1.7702    0.0000 F   0  0  0  0  0  0  0  0  0  0  0  0
    1.3000   -3.2700    0.0000 N   0  0  0  0  0  0  0  0  0  0  0  0
    0.0004   -4.0206    0.0000 C   0  0  0  0  0  0  0  0  0  0  0  0
   -0.5126   -2.6111    0.0000 H   0  0  0  0  0  0  0  0  0  0  0  0
   -1.4769   -4.2807    0.0000 H   0  0  0  0  0  0  0  0  0  0  0  0
   -0.0004   -5.5215    0.0000 C   0  0  0  0  0  0  0  0  0  0  0  0
   -1.4775   -5.2604    0.0000 H   0  0  0  0  0  0  0  0  0  0  0  0
   -0.5138   -6.9309    0.0000 H   0  0  0  0  0  0  0  0  0  0  0  0
    1.2986   -6.2717    0.0000 N   0  0  0  0  0  0  0  0  0  0  0  0
    1.2986   -8.2517    0.0000 C   0  0  0  0  0  0  0  0  0  0  0  0
    2.5976   -9.0017    0.0000 H   0  0  0  0  0  0  0  0  0  0  0  0
   -0.1787   -7.9912    0.0000 H   0  0  0  0  0  0  0  0  0  0  0  0
    0.7855   -9.6612    0.0000 H   0  0  0  0  0  0  0  0  0  0  0  0
    2.5982   -5.5210    0.0000 C   0  0  0  0  0  0  0  0  0  0  0  0
    3.1112   -6.9306    0.0000 H   0  0  0  0  0  0  0  0  0  0  0  0
    4.0755   -5.2610    0.0000 H   0  0  0  0  0  0  0  0  0  0  0  0
    2.5989   -4.0202    0.0000 C   0  0  0  0  0  0  0  0  0  0  0  0
    4.0760   -4.2812    0.0000 H   0  0  0  0  0  0  0  0  0  0  0  0
    3.1123   -2.6108    0.0000 H   0  0  0  0  0  0  0  0  0  0  0  0
  1  2  1  0  0  0  0 
  1  3  1  0  0  0  0 
  1  4  2  0  0  0  0 
  4  5  1  0  0  0  0 
  5  6  1  0  0  0  0 
  5  7  1  0  0  0  0 
  5  8  1  0  0  0  0 
  8  9  1  0  0  0  0 
  9 10  2  0  0  0  0 
 10 11  1  0  0  0  0 
 11 12  2  0  0  0  0 
 12 13  1  0  0  0  0 
 12 14  1  0  0  0  0 
 14 15  2  0  0  0  0 
  9 15  1  0  0  0  0 
 15 16  1  0  0  0  0 
  4 16  1  0  0  0  0 
 16 17  1  0  0  0  0 
 17 18  1  0  0  0  0 
 17 19  2  0  0  0  0 
 19 20  1  0  0  0  0 
 14 20  1  0  0  0  0 
 20 21  2  0  0  0  0 
 19 22  1  0  0  0  0 
 22 23  2  0  0  0  0 
 22 24  1  0  0  0  0 
 24 25  1  0  0  0  0 
 11 26  1  0  0  0  0 
 10 27  1  0  0  0  0 
 27 28  1  0  0  0  0 
 28 29  1  0  0  0  0 
 28 30  1  0  0  0  0 
 28 31  1  0  0  0  0 
 31 32  1  0  0  0  0 
 31 33  1  0  0  0  0 
 31 34  1  0  0  0  0 
 34 35  1  0  0  0  0 
 35 36  1  0  0  0  0 
 35 37  1  0  0  0  0 
 35 38  1  0  0  0  0 
 34 39  1  0  0  0  0 
 39 40  1  0  0  0  0 
 39 41  1  0  0  0  0 
 39 42  1  0  0  0  0 
 27 42  1  0  0  0  0 
 42 43  1  0  0  0  0 
 42 44  1  0  0  0  0 
M  END
> <Rank>
28

> <Priority_score>
0.0176

> <Reaction_type>
alkyl dehydrogenation

> <Parent_ID>
55

> <Parent_InChI>
InChI=1S/C18H20FN3O4/c1-10-9-26-17-14-11(16(23)12(18(24)25)8-22(10)14)7-13(19)15(17)21-5-3-20(2)4-6-21/h7-8,10H,3-6,9H2,1-2H3,(H,24,25)

> <Parent_SMILES>
C[C@H]1COc2c(N3CCN(C)CC3)c(F)cc3c(=O)c(C(=O)O)cn1c23

$$$$
Molecule 55_metabolite 30
  CDK     0516241031

 44 47  0  0  0  0  0  0  0  0999 V2000
   -3.8989    1.2302    0.0000 C   0  0  0  0  0  0  0  0  0  0  0  0
   -5.1981    0.4804    0.0000 H   0  0  0  0  0  0  0  0  0  0  0  0
   -2.9346    2.3791    0.0000 H   0  0  0  0  0  0  0  0  0  0  0  0
   -4.8629    2.3794    0.0000 H   0  0  0  0  0  0  0  0  0  0  0  0
   -2.6000    0.4800    0.0000 C   0  0  0  0  0  0  0  0  0  0  0  0
   -2.6000   -1.0200    0.0000 C   0  0  0  0  0  0  0  0  0  0  0  0
   -3.8989   -1.7702    0.0000 H   0  0  0  0  0  0  0  0  0  0  0  0
   -1.3000   -1.7700    0.0000 O   0  0  0  0  0  0  0  0  0  0  0  0
    0.0000   -1.0200    0.0000 C   0  0  0  0  0  0  0  0  0  0  0  0
    1.3000   -1.7700    0.0000 C   0  0  0  0  0  0  0  0  0  0  0  0
    2.6000   -1.0200    0.0000 C   0  0  0  0  0  0  0  0  0  0  0  0
    2.6000    0.4800    0.0000 C   0  0  0  0  0  0  0  0  0  0  0  0
    3.8989    1.2302    0.0000 H   0  0  0  0  0  0  0  0  0  0  0  0
    1.3000    1.2300    0.0000 C   0  0  0  0  0  0  0  0  0  0  0  0
    0.0000    0.4800    0.0000 C   0  0  0  0  0  0  0  0  0  0  0  0
   -1.3000    1.2300    0.0000 N   0  0  0  0  0  0  0  0  0  0  0  0
   -1.3000    2.7300    0.0000 C   0  0  0  0  0  0  0  0  0  0  0  0
   -2.5989    3.4802    0.0000 H   0  0  0  0  0  0  0  0  0  0  0  0
    0.0000    3.4800    0.0000 C   0  0  0  0  0  0  0  0  0  0  0  0
    1.3000    2.7300    0.0000 C   0  0  0  0  0  0  0  0  0  0  0  0
    2.5989    3.4802    0.0000 O   0  0  0  0  0  0  0  0  0  0  0  0
    0.0000    4.9800    0.0000 C   0  0  0  0  0  0  0  0  0  0  0  0
   -1.2990    5.7300    0.0000 O   0  0  0  0  0  0  0  0  0  0  0  0
    1.2990    5.7300    0.0000 O   0  0  0  0  0  0  0  0  0  0  0  0
    1.2990    7.2300    0.0000 H   0  0  0  0  0  0  0  0  0  0  0  0
    3.8989   -1.7702    0.0000 F   0  0  0  0  0  0  0  0  0  0  0  0
    1.3000   -3.2700    0.0000 N   0  0  0  0  0  0  0  0  0  0  0  0
    0.0004   -4.0206    0.0000 C   0  0  0  0  0  0  0  0  0  0  0  0
   -0.5126   -2.6111    0.0000 H   0  0  0  0  0  0  0  0  0  0  0  0
   -1.4769   -4.2807    0.0000 H   0  0  0  0  0  0  0  0  0  0  0  0
   -0.0004   -5.5215    0.0000 C   0  0  0  0  0  0  0  0  0  0  0  0
   -1.4775   -5.2604    0.0000 H   0  0  0  0  0  0  0  0  0  0  0  0
   -0.5138   -6.9309    0.0000 H   0  0  0  0  0  0  0  0  0  0  0  0
    1.2986   -6.2717    0.0000 N   0  0  0  0  0  0  0  0  0  0  0  0
    1.2986   -8.2517    0.0000 C   0  0  0  0  0  0  0  0  0  0  0  0
    2.5976   -9.0017    0.0000 H   0  0  0  0  0  0  0  0  0  0  0  0
   -0.1787   -7.9912    0.0000 H   0  0  0  0  0  0  0  0  0  0  0  0
    0.7855   -9.6612    0.0000 H   0  0  0  0  0  0  0  0  0  0  0  0
    2.5982   -5.5210    0.0000 C   0  0  0  0  0  0  0  0  0  0  0  0
    3.1112   -6.9306    0.0000 H   0  0  0  0  0  0  0  0  0  0  0  0
    4.0755   -5.2610    0.0000 H   0  0  0  0  0  0  0  0  0  0  0  0
    2.5989   -4.0202    0.0000 C   0  0  0  0  0  0  0  0  0  0  0  0
    4.0760   -4.2812    0.0000 H   0  0  0  0  0  0  0  0  0  0  0  0
    3.1123   -2.6108    0.0000 H   0  0  0  0  0  0  0  0  0  0  0  0
  1  2  1  0  0  0  0 
  1  3  1  0  0  0  0 
  1  4  1  0  0  0  0 
  1  5  1  0  0  0  0 
  5  6  2  0  0  0  0 
  6  7  1  0  0  0  0 
  6  8  1  0  0  0  0 
  8  9  1  0  0  0  0 
  9 10  2  0  0  0  0 
 10 11  1  0  0  0  0 
 11 12  2  0  0  0  0 
 12 13  1  0  0  0  0 
 12 14  1  0  0  0  0 
 14 15  2  0  0  0  0 
  9 15  1  0  0  0  0 
 15 16  1  0  0  0  0 
  5 16  1  0  0  0  0 
 16 17  1  0  0  0  0 
 17 18  1  0  0  0  0 
 17 19  2  0  0  0  0 
 19 20  1  0  0  0  0 
 14 20  1  0  0  0  0 
 20 21  2  0  0  0  0 
 19 22  1  0  0  0  0 
 22 23  2  0  0  0  0 
 22 24  1  0  0  0  0 
 24 25  1  0  0  0  0 
 11 26  1  0  0  0  0 
 10 27  1  0  0  0  0 
 27 28  1  0  0  0  0 
 28 29  1  0  0  0  0 
 28 30  1  0  0  0  0 
 28 31  1  0  0  0  0 
 31 32  1  0  0  0  0 
 31 33  1  0  0  0  0 
 31 34  1  0  0  0  0 
 34 35  1  0  0  0  0 
 35 36  1  0  0  0  0 
 35 37  1  0  0  0  0 
 35 38  1  0  0  0  0 
 34 39  1  0  0  0  0 
 39 40  1  0  0  0  0 
 39 41  1  0  0  0  0 
 39 42  1  0  0  0  0 
 27 42  1  0  0  0  0 
 42 43  1  0  0  0  0 
 42 44  1  0  0  0  0 
M  END
> <Rank>
28

> <Priority_score>
0.0176

> <Reaction_type>
alkyl dehydrogenation

> <Parent_ID>
55

> <Parent_InChI>
InChI=1S/C18H20FN3O4/c1-10-9-26-17-14-11(16(23)12(18(24)25)8-22(10)14)7-13(19)15(17)21-5-3-20(2)4-6-21/h7-8,10H,3-6,9H2,1-2H3,(H,24,25)

> <Parent_SMILES>
C[C@H]1COc2c(N3CCN(C)CC3)c(F)cc3c(=O)c(C(=O)O)cn1c23

$$$$
Molecule 55_metabolite 31
  CDK     0516241031

 44 47  0  0  0  0  0  0  0  0999 V2000
   -2.6971    1.1696    0.0000 C   0  0  0  0  0  0  0  0  0  0  0  0
   -1.7326    2.3184    0.0000 H   0  0  0  0  0  0  0  0  0  0  0  0
   -3.9963    0.4199    0.0000 H   0  0  0  0  0  0  0  0  0  0  0  0
   -3.6610    2.3189    0.0000 H   0  0  0  0  0  0  0  0  0  0  0  0
   -2.1843   -0.2401    0.0000 C   0  0  1  0  0  0  0  0  0  0  0  0
   -3.6616   -0.5004    0.0000 H   0  0  0  0  0  0  0  0  0  0  0  0
   -2.1843   -1.7401    0.0000 C   0  0  0  0  0  0  0  0  0  0  0  0
   -3.6616   -1.4798    0.0000 H   0  0  0  0  0  0  0  0  0  0  0  0
   -2.6971   -3.1497    0.0000 H   0  0  0  0  0  0  0  0  0  0  0  0
   -0.8843   -2.4901    0.0000 O   0  0  0  0  0  0  0  0  0  0  0  0
    0.4157   -1.7401    0.0000 C   0  0  0  0  0  0  0  0  0  0  0  0
    1.7157   -2.4901    0.0000 C   0  0  0  0  0  0  0  0  0  0  0  0
    3.0157   -1.7401    0.0000 C   0  0  0  0  0  0  0  0  0  0  0  0
    3.0157   -0.2401    0.0000 C   0  0  0  0  0  0  0  0  0  0  0  0
    4.3146    0.5101    0.0000 H   0  0  0  0  0  0  0  0  0  0  0  0
    1.7157    0.5099    0.0000 C   0  0  0  0  0  0  0  0  0  0  0  0
    0.4157   -0.2401    0.0000 C   0  0  0  0  0  0  0  0  0  0  0  0
   -0.8843    0.5099    0.0000 N   0  0  0  0  0  0  0  0  0  0  0  0
   -0.8843    2.0099    0.0000 C   0  0  0  0  0  0  0  0  0  0  0  0
   -2.5989    3.0002    0.0000 H   0  0  0  0  0  0  0  0  0  0  0  0
    0.4157    2.7599    0.0000 C   0  0  0  0  0  0  0  0  0  0  0  0
    1.7157    2.0099    0.0000 C   0  0  0  0  0  0  0  0  0  0  0  0
    3.0146    2.7601    0.0000 O   0  0  0  0  0  0  0  0  0  0  0  0
    0.4157    4.2599    0.0000 C   0  0  0  0  0  0  0  0  0  0  0  0
   -0.8834    5.0099    0.0000 O   0  0  0  0  0  0  0  0  0  0  0  0
    1.7147    5.0099    0.0000 O   0  0  0  0  0  0  0  0  0  0  0  0
    1.7147    6.5099    0.0000 H   0  0  0  0  0  0  0  0  0  0  0  0
    4.3146   -2.4903    0.0000 F   0  0  0  0  0  0  0  0  0  0  0  0
    1.7157   -3.9901    0.0000 N   0  0  0  0  0  0  0  0  0  0  0  0
    0.4160   -4.7407    0.0000 C   0  0  0  0  0  0  0  0  0  0  0  0
   -0.8829   -3.9905    0.0000 H   0  0  0  0  0  0  0  0  0  0  0  0
    0.4153   -6.2415    0.0000 C   0  0  0  0  0  0  0  0  0  0  0  0
   -0.8840   -6.9911    0.0000 H   0  0  0  0  0  0  0  0  0  0  0  0
    1.7142   -6.9917    0.0000 N   0  0  0  0  0  0  0  0  0  0  0  0
    1.7142   -8.4917    0.0000 C   0  0  0  0  0  0  0  0  0  0  0  0
    3.0132   -9.2417    0.0000 H   0  0  0  0  0  0  0  0  0  0  0  0
    0.2370   -8.2313    0.0000 H   0  0  0  0  0  0  0  0  0  0  0  0
    1.2012   -9.9013    0.0000 H   0  0  0  0  0  0  0  0  0  0  0  0
    3.0139   -6.2411    0.0000 C   0  0  0  0  0  0  0  0  0  0  0  0
    3.5268   -7.6507    0.0000 H   0  0  0  0  0  0  0  0  0  0  0  0
    4.4911   -5.9810    0.0000 H   0  0  0  0  0  0  0  0  0  0  0  0
    3.0146   -4.7403    0.0000 C   0  0  0  0  0  0  0  0  0  0  0  0
    4.4917   -5.0013    0.0000 H   0  0  0  0  0  0  0  0  0  0  0  0
    3.5280   -3.3309    0.0000 H   0  0  0  0  0  0  0  0  0  0  0  0
  1  2  1  0  0  0  0 
  1  3  1  0  0  0  0 
  1  4  1  0  0  0  0 
  5  1  1  6  0  0  0 
  5  6  1  1  0  0  0 
  5  7  1  0  0  0  0 
  7  8  1  0  0  0  0 
  7  9  1  0  0  0  0 
  7 10  1  0  0  0  0 
 10 11  1  0  0  0  0 
 11 12  2  0  0  0  0 
 12 13  1  0  0  0  0 
 13 14  2  0  0  0  0 
 14 15  1  0  0  0  0 
 14 16  1  0  0  0  0 
 16 17  2  0  0  0  0 
 11 17  1  0  0  0  0 
 17 18  1  0  0  0  0 
  5 18  1  0  0  0  0 
 18 19  1  0  0  0  0 
 19 20  1  0  0  0  0 
 19 21  2  0  0  0  0 
 21 22  1  0  0  0  0 
 16 22  1  0  0  0  0 
 22 23  2  0  0  0  0 
 21 24  1  0  0  0  0 
 24 25  2  0  0  0  0 
 24 26  1  0  0  0  0 
 26 27  1  0  0  0  0 
 13 28  1  0  0  0  0 
 12 29  1  0  0  0  0 
 29 30  1  0  0  0  0 
 30 31  1  0  0  0  0 
 30 32  2  0  0  0  0 
 32 33  1  0  0  0  0 
 32 34  1  0  0  0  0 
 34 35  1  0  0  0  0 
 35 36  1  0  0  0  0 
 35 37  1  0  0  0  0 
 35 38  1  0  0  0  0 
 34 39  1  0  0  0  0 
 39 40  1  0  0  0  0 
 39 41  1  0  0  0  0 
 39 42  1  0  0  0  0 
 29 42  1  0  0  0  0 
 42 43  1  0  0  0  0 
 42 44  1  0  0  0  0 
M  END
> <Rank>
28

> <Priority_score>
0.0176

> <Reaction_type>
alkyl dehydrogenation

> <Parent_ID>
55

> <Parent_InChI>
InChI=1S/C18H20FN3O4/c1-10-9-26-17-14-11(16(23)12(18(24)25)8-22(10)14)7-13(19)15(17)21-5-3-20(2)4-6-21/h7-8,10H,3-6,9H2,1-2H3,(H,24,25)

> <Parent_SMILES>
C[C@H]1COc2c(N3CCN(C)CC3)c(F)cc3c(=O)c(C(=O)O)cn1c23

$$$$
Molecule 55_metabolite 32
  CDK     0516241031

 47 49  0  0  0  0  0  0  0  0999 V2000
    3.0147   -3.5099    0.0000 C   0  0  0  0  0  0  0  0  0  0  0  0
    3.0147   -5.0099    0.0000 H   0  0  0  0  0  0  0  0  0  0  0  0
    4.4919   -3.7704    0.0000 H   0  0  0  0  0  0  0  0  0  0  0  0
    3.5277   -2.1004    0.0000 H   0  0  0  0  0  0  0  0  0  0  0  0
    1.7157   -2.7599    0.0000 C   0  0  1  0  0  0  0  0  0  0  0  0
    0.2384   -2.4995    0.0000 H   0  0  0  0  0  0  0  0  0  0  0  0
    1.2026   -4.1695    0.0000 C   0  0  0  0  0  0  0  0  0  0  0  0
    2.1668   -5.3185    0.0000 H   0  0  0  0  0  0  0  0  0  0  0  0
   -0.0964   -3.4195    0.0000 H   0  0  0  0  0  0  0  0  0  0  0  0
    0.2384   -5.3185    0.0000 H   0  0  0  0  0  0  0  0  0  0  0  0
    1.7157   -1.2599    0.0000 N   0  0  0  0  0  0  0  0  0  0  0  0
    3.0157   -0.5099    0.0000 C   0  0  0  0  0  0  0  0  0  0  0  0
    4.3146   -1.2601    0.0000 H   0  0  0  0  0  0  0  0  0  0  0  0
    3.0157    0.9901    0.0000 C   0  0  0  0  0  0  0  0  0  0  0  0
    1.7157    1.7401    0.0000 C   0  0  0  0  0  0  0  0  0  0  0  0
    1.7157    3.2401    0.0000 O   0  0  0  0  0  0  0  0  0  0  0  0
    0.4157    0.9901    0.0000 C   0  0  0  0  0  0  0  0  0  0  0  0
    0.4157   -0.5099    0.0000 C   0  0  0  0  0  0  0  0  0  0  0  0
   -0.8843   -1.2599    0.0000 C   0  0  0  0  0  0  0  0  0  0  0  0
   -0.8843   -2.7599    0.0000 O   0  0  0  0  0  0  0  0  0  0  0  0
   -2.1843   -0.5099    0.0000 C   0  0  0  0  0  0  0  0  0  0  0  0
   -2.1843    0.9901    0.0000 C   0  0  0  0  0  0  0  0  0  0  0  0
   -0.8843    1.7401    0.0000 C   0  0  0  0  0  0  0  0  0  0  0  0
   -0.8843    3.2401    0.0000 O   0  0  0  0  0  0  0  0  0  0  0  0
   -3.4833    1.7403    0.0000 F   0  0  0  0  0  0  0  0  0  0  0  0
   -3.4833   -1.2601    0.0000 N   0  0  0  0  0  0  0  0  0  0  0  0
   -4.7833   -0.5101    0.0000 C   0  0  0  0  0  0  0  0  0  0  0  0
   -3.8192    0.6390    0.0000 H   0  0  0  0  0  0  0  0  0  0  0  0
   -5.7473    0.6390    0.0000 H   0  0  0  0  0  0  0  0  0  0  0  0
   -6.0833   -1.2601    0.0000 C   0  0  0  0  0  0  0  0  0  0  0  0
   -6.5960    0.1495    0.0000 H   0  0  0  0  0  0  0  0  0  0  0  0
   -7.5605   -1.5205    0.0000 H   0  0  0  0  0  0  0  0  0  0  0  0
   -6.0833   -2.7601    0.0000 N   0  0  0  0  0  0  0  0  0  0  0  0
   -7.7978   -3.7504    0.0000 C   0  0  0  0  0  0  0  0  0  0  0  0
   -9.0970   -3.0006    0.0000 H   0  0  0  0  0  0  0  0  0  0  0  0
   -8.7618   -4.8996    0.0000 H   0  0  0  0  0  0  0  0  0  0  0  0
   -6.8335   -4.8993    0.0000 H   0  0  0  0  0  0  0  0  0  0  0  0
   -4.7833   -3.5101    0.0000 C   0  0  0  0  0  0  0  0  0  0  0  0
   -5.7473   -4.6593    0.0000 H   0  0  0  0  0  0  0  0  0  0  0  0
   -3.8192   -4.6593    0.0000 H   0  0  0  0  0  0  0  0  0  0  0  0
   -3.4833   -2.7601    0.0000 C   0  0  0  0  0  0  0  0  0  0  0  0
   -2.9705   -4.1698    0.0000 H   0  0  0  0  0  0  0  0  0  0  0  0
   -2.0060   -2.4998    0.0000 H   0  0  0  0  0  0  0  0  0  0  0  0
    4.3146    1.7403    0.0000 C   0  0  0  0  0  0  0  0  0  0  0  0
    5.6137    0.9905    0.0000 O   0  0  0  0  0  0  0  0  0  0  0  0
    4.3143    3.2403    0.0000 O   0  0  0  0  0  0  0  0  0  0  0  0
    5.6132    3.9905    0.0000 H   0  0  0  0  0  0  0  0  0  0  0  0
  1  2  1  0  0  0  0 
  1  3  1  0  0  0  0 
  1  4  1  0  0  0  0 
  1  5  1  0  0  0  0 
  5  6  1  6  0  0  0 
  5  7  1  0  0  0  0 
  7  8  1  0  0  0  0 
  7  9  1  0  0  0  0 
  7 10  1  0  0  0  0 
  5 11  1  1  0  0  0 
 11 12  1  0  0  0  0 
 12 13  1  0  0  0  0 
 12 14  2  0  0  0  0 
 14 15  1  0  0  0  0 
 15 16  2  0  0  0  0 
 15 17  1  0  0  0  0 
 17 18  2  0  0  0  0 
 11 18  1  0  0  0  0 
 18 19  1  0  0  0  0 
 19 20  2  0  0  0  0 
 19 21  1  0  0  0  0 
 21 22  2  0  0  0  0 
 22 23  1  0  0  0  0 
 17 23  1  0  0  0  0 
 23 24  2  0  0  0  0 
 22 25  1  0  0  0  0 
 21 26  1  0  0  0  0 
 26 27  1  0  0  0  0 
 27 28  1  0  0  0  0 
 27 29  1  0  0  0  0 
 27 30  1  0  0  0  0 
 30 31  1  0  0  0  0 
 30 32  1  0  0  0  0 
 30 33  1  0  0  0  0 
 33 34  1  0  0  0  0 
 34 35  1  0  0  0  0 
 34 36  1  0  0  0  0 
 34 37  1  0  0  0  0 
 33 38  1  0  0  0  0 
 38 39  1  0  0  0  0 
 38 40  1  0  0  0  0 
 38 41  1  0  0  0  0 
 26 41  1  0  0  0  0 
 41 42  1  0  0  0  0 
 41 43  1  0  0  0  0 
 14 44  1  0  0  0  0 
 44 45  2  0  0  0  0 
 44 46  1  0  0  0  0 
 46 47  1  0  0  0  0 
M  END
> <Rank>
32

> <Priority_score>
0.014182654528030667

> <Reaction_type>
oxidation of 4-substituted anisole to quinone

> <Parent_ID>
55

> <Parent_InChI>
InChI=1S/C18H20FN3O4/c1-10-9-26-17-14-11(16(23)12(18(24)25)8-22(10)14)7-13(19)15(17)21-5-3-20(2)4-6-21/h7-8,10H,3-6,9H2,1-2H3,(H,24,25)

> <Parent_SMILES>
C[C@H]1COc2c(N3CCN(C)CC3)c(F)cc3c(=O)c(C(=O)O)cn1c23

$$$$
Molecule 55_metabolite 33
  CDK     0516241031

 47 50  0  0  0  0  0  0  0  0999 V2000
   -2.6971    1.6496    0.0000 C   0  0  0  0  0  0  0  0  0  0  0  0
   -1.7326    2.7984    0.0000 H   0  0  0  0  0  0  0  0  0  0  0  0
   -3.9963    0.8999    0.0000 H   0  0  0  0  0  0  0  0  0  0  0  0
   -3.6610    2.7989    0.0000 H   0  0  0  0  0  0  0  0  0  0  0  0
   -2.1843    0.2399    0.0000 C   0  0  1  0  0  0  0  0  0  0  0  0
   -3.6616   -0.0204    0.0000 H   0  0  0  0  0  0  0  0  0  0  0  0
   -2.1843   -1.2601    0.0000 C   0  0  0  0  0  0  0  0  0  0  0  0
   -3.6616   -0.9998    0.0000 H   0  0  0  0  0  0  0  0  0  0  0  0
   -2.6971   -2.6697    0.0000 H   0  0  0  0  0  0  0  0  0  0  0  0
   -0.8843   -2.0101    0.0000 O   0  0  0  0  0  0  0  0  0  0  0  0
    0.4157   -1.2601    0.0000 C   0  0  0  0  0  0  0  0  0  0  0  0
    1.7157   -2.0101    0.0000 C   0  0  0  0  0  0  0  0  0  0  0  0
    3.0157   -1.2601    0.0000 C   0  0  0  0  0  0  0  0  0  0  0  0
    3.0157    0.2399    0.0000 C   0  0  0  0  0  0  0  0  0  0  0  0
    4.3146    0.9901    0.0000 H   0  0  0  0  0  0  0  0  0  0  0  0
    1.7157    0.9899    0.0000 C   0  0  0  0  0  0  0  0  0  0  0  0
    0.4157    0.2399    0.0000 C   0  0  0  0  0  0  0  0  0  0  0  0
   -0.8843    0.9899    0.0000 N   0  0  0  0  0  0  0  0  0  0  0  0
   -0.8843    2.4899    0.0000 C   0  0  0  0  0  0  0  0  0  0  0  0
   -2.5989    3.4802    0.0000 H   0  0  0  0  0  0  0  0  0  0  0  0
    0.4157    3.2399    0.0000 C   0  0  0  0  0  0  0  0  0  0  0  0
    1.7157    2.4899    0.0000 C   0  0  0  0  0  0  0  0  0  0  0  0
    3.0146    3.2401    0.0000 O   0  0  0  0  0  0  0  0  0  0  0  0
    0.4157    4.7399    0.0000 C   0  0  0  0  0  0  0  0  0  0  0  0
   -0.8834    5.4899    0.0000 O   0  0  0  0  0  0  0  0  0  0  0  0
    1.7147    5.4899    0.0000 O   0  0  0  0  0  0  0  0  0  0  0  0
    1.7147    6.9899    0.0000 H   0  0  0  0  0  0  0  0  0  0  0  0
    4.3146   -2.0103    0.0000 O   0  0  0  0  0  0  0  0  0  0  0  0
    4.3143   -3.5103    0.0000 H   0  0  0  0  0  0  0  0  0  0  0  0
    1.7157   -3.5101    0.0000 N   0  0  0  0  0  0  0  0  0  0  0  0
    0.4160   -4.2607    0.0000 C   0  0  0  0  0  0  0  0  0  0  0  0
   -0.0969   -2.8511    0.0000 H   0  0  0  0  0  0  0  0  0  0  0  0
   -1.0613   -4.5208    0.0000 H   0  0  0  0  0  0  0  0  0  0  0  0
    0.4153   -5.7615    0.0000 C   0  0  0  0  0  0  0  0  0  0  0  0
   -1.0618   -5.5005    0.0000 H   0  0  0  0  0  0  0  0  0  0  0  0
   -0.0981   -7.1709    0.0000 H   0  0  0  0  0  0  0  0  0  0  0  0
    1.7142   -6.5117    0.0000 N   0  0  0  0  0  0  0  0  0  0  0  0
    1.7142   -8.4917    0.0000 C   0  0  0  0  0  0  0  0  0  0  0  0
    3.0132   -9.2417    0.0000 H   0  0  0  0  0  0  0  0  0  0  0  0
    0.2370   -8.2313    0.0000 H   0  0  0  0  0  0  0  0  0  0  0  0
    1.2012   -9.9013    0.0000 H   0  0  0  0  0  0  0  0  0  0  0  0
    3.0139   -5.7611    0.0000 C   0  0  0  0  0  0  0  0  0  0  0  0
    3.5268   -7.1707    0.0000 H   0  0  0  0  0  0  0  0  0  0  0  0
    4.4911   -5.5010    0.0000 H   0  0  0  0  0  0  0  0  0  0  0  0
    3.0146   -4.2603    0.0000 C   0  0  0  0  0  0  0  0  0  0  0  0
    4.4917   -4.5213    0.0000 H   0  0  0  0  0  0  0  0  0  0  0  0
    3.5280   -2.8509    0.0000 H   0  0  0  0  0  0  0  0  0  0  0  0
  1  2  1  0  0  0  0 
  1  3  1  0  0  0  0 
  1  4  1  0  0  0  0 
  5  1  1  6  0  0  0 
  5  6  1  1  0  0  0 
  5  7  1  0  0  0  0 
  7  8  1  0  0  0  0 
  7  9  1  0  0  0  0 
  7 10  1  0  0  0  0 
 10 11  1  0  0  0  0 
 11 12  2  0  0  0  0 
 12 13  1  0  0  0  0 
 13 14  2  0  0  0  0 
 14 15  1  0  0  0  0 
 14 16  1  0  0  0  0 
 16 17  2  0  0  0  0 
 11 17  1  0  0  0  0 
 17 18  1  0  0  0  0 
  5 18  1  0  0  0  0 
 18 19  1  0  0  0  0 
 19 20  1  0  0  0  0 
 19 21  2  0  0  0  0 
 21 22  1  0  0  0  0 
 16 22  1  0  0  0  0 
 22 23  2  0  0  0  0 
 21 24  1  0  0  0  0 
 24 25  2  0  0  0  0 
 24 26  1  0  0  0  0 
 26 27  1  0  0  0  0 
 13 28  1  0  0  0  0 
 28 29  1  0  0  0  0 
 12 30  1  0  0  0  0 
 30 31  1  0  0  0  0 
 31 32  1  0  0  0  0 
 31 33  1  0  0  0  0 
 31 34  1  0  0  0  0 
 34 35  1  0  0  0  0 
 34 36  1  0  0  0  0 
 34 37  1  0  0  0  0 
 37 38  1  0  0  0  0 
 38 39  1  0  0  0  0 
 38 40  1  0  0  0  0 
 38 41  1  0  0  0  0 
 37 42  1  0  0  0  0 
 42 43  1  0  0  0  0 
 42 44  1  0  0  0  0 
 42 45  1  0  0  0  0 
 30 45  1  0  0  0  0 
 45 46  1  0  0  0  0 
 45 47  1  0  0  0  0 
M  END
> <Rank>
33

> <Priority_score>
8.0E-4

> <Reaction_type>
oxidative dehalogenation benzyl

> <Parent_ID>
55

> <Parent_InChI>
InChI=1S/C18H20FN3O4/c1-10-9-26-17-14-11(16(23)12(18(24)25)8-22(10)14)7-13(19)15(17)21-5-3-20(2)4-6-21/h7-8,10H,3-6,9H2,1-2H3,(H,24,25)

> <Parent_SMILES>
C[C@H]1COc2c(N3CCN(C)CC3)c(F)cc3c(=O)c(C(=O)O)cn1c23

$$$$
Molecule 56
  CDK     0516241031

 32 35  0  0  0  0  0  0  0  0999 V2000
    5.7100    0.7112    0.0000 C   0  0  0  0  0  0  0  0  0  0  0  0
    4.2100    0.7200    0.0000 C   0  0  1  0  0  0  0  0  0  0  0  0
    3.3600   -0.4700    0.0000 C   0  0  0  0  0  0  0  0  0  0  0  0
    1.9300   -0.0000    0.0000 C   0  0  1  0  0  0  0  0  0  0  0  0
    0.6600   -0.7200    0.0000 C   0  0  2  0  0  0  0  0  0  0  0  0
    0.6600   -2.2500    0.0000 C   0  0  0  0  0  0  0  0  0  0  0  0
   -0.6700   -3.0000    0.0000 C   0  0  0  0  0  0  0  0  0  0  0  0
   -1.9700   -2.2500    0.0000 C   0  0  0  0  0  0  0  0  0  0  0  0
   -3.2400   -3.0000    0.0000 C   0  0  0  0  0  0  0  0  0  0  0  0
   -4.5500   -2.2500    0.0000 C   0  0  0  0  0  0  0  0  0  0  0  0
   -5.8477   -3.0024    0.0000 O   0  0  0  0  0  0  0  0  0  0  0  0
   -4.5500   -0.7200    0.0000 C   0  0  0  0  0  0  0  0  0  0  0  0
   -3.2400   -0.0000    0.0000 C   0  0  0  0  0  0  0  0  0  0  0  0
   -1.9700   -0.7200    0.0000 C   0  0  1  0  0  0  0  0  0  0  0  0
   -1.9625    0.7800    0.0000 C   0  0  0  0  0  0  0  0  0  0  0  0
   -0.6700   -0.0000    0.0000 C   0  0  1  0  0  0  0  0  0  0  0  0
   -0.6700    1.4700    0.0000 C   0  0  2  0  0  0  0  0  0  0  0  0
    0.6600    2.2300    0.0000 C   0  0  0  0  0  0  0  0  0  0  0  0
    1.9300    1.4700    0.0000 C   0  0  1  0  0  0  0  0  0  0  0  0
    2.0959    2.9608    0.0000 C   0  0  0  0  0  0  0  0  0  0  0  0
    3.3600    1.9400    0.0000 C   0  0  1  0  0  0  0  0  0  0  0  0
    4.6680    2.6743    0.0000 C   0  0  0  0  0  0  0  0  0  0  0  0
    4.6861    4.1742    0.0000 O   0  0  0  0  0  0  0  0  0  0  0  0
    5.9579    1.9086    0.0000 C   0  0  0  0  0  0  0  0  0  0  0  0
    7.2659    2.6429    0.0000 O   0  0  0  0  0  0  0  0  0  0  0  0
    8.5558    1.8773    0.0000 P   0  0  0  0  0  0  0  0  0  0  0  0
    7.5778    0.7399    0.0000 O   0  0  0  0  0  0  0  0  0  0  0  0
    9.8638    2.6116    0.0000 O   0  0  0  0  0  0  0  0  0  0  0  0
    9.5060    0.7167    0.0000 O   0  0  0  0  0  0  0  0  0  0  0  0
    3.4290    0.4416    0.0000 O   0  0  0  0  0  0  0  0  0  0  0  0
   -1.9674    2.2229    0.0000 O   0  0  0  0  0  0  0  0  0  0  0  0
   -0.7101   -1.4995    0.0000 F   0  0  0  0  0  0  0  0  0  0  0  0
  2  1  1  1  0  0  0 
  2  3  1  0  0  0  0 
  4  3  1  1  0  0  0 
  4  5  1  0  0  0  0 
  5  6  1  6  0  0  0 
  6  7  1  0  0  0  0 
  7  8  1  0  0  0  0 
  8  9  2  0  0  0  0 
  9 10  1  0  0  0  0 
 10 11  2  0  0  0  0 
 10 12  1  0  0  0  0 
 12 13  2  0  0  0  0 
 13 14  1  0  0  0  0 
  8 14  1  0  0  0  0 
 14 15  1  1  0  0  0 
 14 16  1  0  0  0  0 
  5 16  1  0  0  0  0 
 16 17  1  0  0  0  0 
 17 18  1  0  0  0  0 
 18 19  1  0  0  0  0 
  4 19  1  0  0  0  0 
 19 20  1  1  0  0  0 
 19 21  1  0  0  0  0 
 21  2  1  1  0  0  0 
 21 22  1  0  0  0  0 
 22 23  2  0  0  0  0 
 22 24  1  0  0  0  0 
 24 25  1  0  0  0  0 
 25 26  1  0  0  0  0 
 26 27  2  0  0  0  0 
 26 28  1  0  0  0  0 
 26 29  1  0  0  0  0 
 21 30  1  6  0  0  0 
 17 31  1  1  0  0  0 
 16 32  1  6  0  0  0 
M  END
> <SMILES>
C[C@H]1C[C@H]2[C@@H]3CCC4=CC(=O)C=C[C@]4(C)[C@@]3(F)[C@@H](O)C[C@]2(C)[C@@]1(O)C(=O)COP(=O)(O)O

$$$$
Molecule 56_metabolite 1
  CDK     0516241031

 99102  0  0  0  0  0  0  0  0999 V2000
    7.5319   -2.5463    0.0000 C   0  0  0  0  0  0  0  0  0  0  0  0
    7.2198   -4.0134    0.0000 H   0  0  0  0  0  0  0  0  0  0  0  0
    8.3270   -1.2743    0.0000 H   0  0  0  0  0  0  0  0  0  0  0  0
    8.9226   -3.1084    0.0000 H   0  0  0  0  0  0  0  0  0  0  0  0
    5.7040   -0.8999    0.0000 C   0  0  1  0  0  0  0  0  0  0  0  0
    6.8186    0.1039    0.0000 H   0  0  0  0  0  0  0  0  0  0  0  0
    4.8240   -2.1099    0.0000 C   0  0  0  0  0  0  0  0  0  0  0  0
    5.1299   -0.6414    0.0000 H   0  0  0  0  0  0  0  0  0  0  0  0
    6.1236   -2.8591    0.0000 H   0  0  0  0  0  0  0  0  0  0  0  0
    3.3940   -1.6499    0.0000 C   0  0  1  0  0  0  0  0  0  0  0  0
    2.1822   -0.7659    0.0000 H   0  0  0  0  0  0  0  0  0  0  0  0
    2.0940   -2.3999    0.0000 C   0  0  2  0  0  0  0  0  0  0  0  0
    0.7951   -3.1501    0.0000 H   0  0  0  0  0  0  0  0  0  0  0  0
    2.0940   -3.8999    0.0000 C   0  0  0  0  0  0  0  0  0  0  0  0
    2.6068   -5.3096    0.0000 H   0  0  0  0  0  0  0  0  0  0  0  0
    3.5713   -3.6396    0.0000 H   0  0  0  0  0  0  0  0  0  0  0  0
    0.7940   -4.6499    0.0000 C   0  0  0  0  0  0  0  0  0  0  0  0
   -0.1700   -5.7991    0.0000 H   0  0  0  0  0  0  0  0  0  0  0  0
    1.7581   -5.7991    0.0000 H   0  0  0  0  0  0  0  0  0  0  0  0
   -0.5060   -3.8999    0.0000 C   0  0  0  0  0  0  0  0  0  0  0  0
   -1.8060   -4.6499    0.0000 C   0  0  0  0  0  0  0  0  0  0  0  0
   -1.8060   -6.1499    0.0000 H   0  0  0  0  0  0  0  0  0  0  0  0
   -3.1060   -3.8999    0.0000 C   0  0  0  0  0  0  0  0  0  0  0  0
   -4.4049   -4.6501    0.0000 O   0  0  0  0  0  0  0  0  0  0  0  0
   -3.1060   -2.3999    0.0000 C   0  0  0  0  0  0  0  0  0  0  0  0
   -3.6187   -0.9903    0.0000 H   0  0  0  0  0  0  0  0  0  0  0  0
   -4.5832   -2.6602    0.0000 H   0  0  0  0  0  0  0  0  0  0  0  0
   -1.8060   -1.6499    0.0000 C   0  0  0  0  0  0  0  0  0  0  0  0
   -0.8419   -0.5008    0.0000 H   0  0  0  0  0  0  0  0  0  0  0  0
   -0.5060   -2.3999    0.0000 C   0  0  1  0  0  0  0  0  0  0  0  0
   -0.2455   -0.9227    0.0000 C   0  0  0  0  0  0  0  0  0  0  0  0
   -2.1300    0.6585    0.0000 H   0  0  0  0  0  0  0  0  0  0  0  0
    1.1640   -1.4357    0.0000 H   0  0  0  0  0  0  0  0  0  0  0  0
    0.5045    0.3763    0.0000 H   0  0  0  0  0  0  0  0  0  0  0  0
    0.7940   -1.6499    0.0000 C   0  0  1  0  0  0  0  0  0  0  0  0
    0.7940   -0.1499    0.0000 C   0  0  2  0  0  0  0  0  0  0  0  0
    0.2813    1.2597    0.0000 H   0  0  0  0  0  0  0  0  0  0  0  0
    2.0940    0.6001    0.0000 C   0  0  0  0  0  0  0  0  0  0  0  0
    3.0581    1.7492    0.0000 H   0  0  0  0  0  0  0  0  0  0  0  0
    1.1300    1.7492    0.0000 H   0  0  0  0  0  0  0  0  0  0  0  0
    3.3940   -0.1499    0.0000 C   0  0  1  0  0  0  0  0  0  0  0  0
    3.6544    2.2963    0.0000 C   0  0  0  0  0  0  0  0  0  0  0  0
    2.4420    3.1795    0.0000 H   0  0  0  0  0  0  0  0  0  0  0  0
    4.3137    3.6436    0.0000 H   0  0  0  0  0  0  0  0  0  0  0  0
    5.0957    1.8809    0.0000 H   0  0  0  0  0  0  0  0  0  0  0  0
    4.8240    0.3101    0.0000 C   0  0  1  0  0  0  0  0  0  0  0  0
    6.9553    1.5387    0.0000 C   0  0  0  0  0  0  0  0  0  0  0  0
    8.2538    0.7878    0.0000 O   0  0  0  0  0  0  0  0  0  0  0  0
    6.9563    3.0387    0.0000 C   0  0  0  0  0  0  0  0  0  0  0  0
    7.4702    4.4479    0.0000 H   0  0  0  0  0  0  0  0  0  0  0  0
    8.4333    2.7772    0.0000 H   0  0  0  0  0  0  0  0  0  0  0  0
    5.6577    3.7895    0.0000 O   0  0  0  0  0  0  0  0  0  0  0  0
    5.6587    5.2895    0.0000 P   0  0  0  0  0  0  0  0  0  0  0  0
    5.1466    6.6994    0.0000 O   0  0  0  0  0  0  0  0  0  0  0  0
    6.9582    6.0387    0.0000 O   0  0  0  0  0  0  0  0  0  0  0  0
    6.9592    7.5387    0.0000 H   0  0  0  0  0  0  0  0  0  0  0  0
    4.1813    5.0300    0.0000 O   0  0  0  0  0  0  0  0  0  0  0  0
    3.2179    6.1797    0.0000 H   0  0  0  0  0  0  0  0  0  0  0  0
    4.2164    1.6815    0.0000 O   0  0  0  0  0  0  0  0  0  0  0  0
    5.1002    2.8934    0.0000 H   0  0  0  0  0  0  0  0  0  0  0  0
   -0.6832    0.1107    0.0000 O   0  0  0  0  0  0  0  0  0  0  0  0
   -1.1960    1.5203    0.0000 H   0  0  0  0  0  0  0  0  0  0  0  0
   -1.3362   -0.4196    0.0000 F   0  0  0  0  0  0  0  0  0  0  0  0
   -3.0785   -0.1330    0.0000 S   0  0  0  0  0  0  0  0  0  0  0  0
   -4.5558   -0.3933    0.0000 C   0  0  0  0  0  0  0  0  0  0  0  0
   -5.8549   -1.1432    0.0000 H   0  0  0  0  0  0  0  0  0  0  0  0
   -4.0429   -1.8029    0.0000 H   0  0  0  0  0  0  0  0  0  0  0  0
   -5.5198    0.7558    0.0000 C   0  0  0  0  0  0  0  0  0  0  0  0
   -4.2207    1.5057    0.0000 H   0  0  0  0  0  0  0  0  0  0  0  0
   -6.0327    2.1654    0.0000 C   0  0  0  0  0  0  0  0  0  0  0  0
   -7.5099    2.4261    0.0000 O   0  0  0  0  0  0  0  0  0  0  0  0
   -5.0684    3.3144    0.0000 N   0  0  0  0  0  0  0  0  0  0  0  0
   -3.5912    3.0538    0.0000 H   0  0  0  0  0  0  0  0  0  0  0  0
   -5.5813    4.7240    0.0000 C   0  0  0  0  0  0  0  0  0  0  0  0
   -6.8804    3.9741    0.0000 H   0  0  0  0  0  0  0  0  0  0  0  0
   -6.5453    5.8732    0.0000 H   0  0  0  0  0  0  0  0  0  0  0  0
   -4.6170    5.8730    0.0000 C   0  0  0  0  0  0  0  0  0  0  0  0
   -3.1398    5.6123    0.0000 O   0  0  0  0  0  0  0  0  0  0  0  0
   -5.1299    7.2825    0.0000 O   0  0  0  0  0  0  0  0  0  0  0  0
   -4.1656    8.4315    0.0000 H   0  0  0  0  0  0  0  0  0  0  0  0
   -6.9971    0.4955    0.0000 N   0  0  0  0  0  0  0  0  0  0  0  0
   -7.9611    1.6447    0.0000 H   0  0  0  0  0  0  0  0  0  0  0  0
   -7.5102   -0.9140    0.0000 C   0  0  0  0  0  0  0  0  0  0  0  0
   -6.5462   -2.0631    0.0000 O   0  0  0  0  0  0  0  0  0  0  0  0
   -8.9875   -1.1743    0.0000 C   0  0  0  0  0  0  0  0  0  0  0  0
  -10.4647   -0.9136    0.0000 H   0  0  0  0  0  0  0  0  0  0  0  0
   -8.9873    0.3257    0.0000 H   0  0  0  0  0  0  0  0  0  0  0  0
   -9.5007   -2.5838    0.0000 C   0  0  0  0  0  0  0  0  0  0  0  0
   -8.0235   -2.8444    0.0000 H   0  0  0  0  0  0  0  0  0  0  0  0
   -9.5008   -4.0838    0.0000 H   0  0  0  0  0  0  0  0  0  0  0  0
  -11.9233   -3.0107    0.0000 C   0  0  0  0  0  0  0  0  0  0  0  0
  -13.2225   -3.7605    0.0000 H   0  0  0  0  0  0  0  0  0  0  0  0
  -12.8874   -1.8615    0.0000 C   0  0  0  0  0  0  0  0  0  0  0  0
  -12.3742   -0.4520    0.0000 O   0  0  0  0  0  0  0  0  0  0  0  0
  -14.3646   -2.1218    0.0000 O   0  0  0  0  0  0  0  0  0  0  0  0
  -15.3287   -0.9727    0.0000 H   0  0  0  0  0  0  0  0  0  0  0  0
  -11.4105   -4.4203    0.0000 N   0  0  0  0  0  0  0  0  0  0  0  0
  -12.3748   -5.5692    0.0000 H   0  0  0  0  0  0  0  0  0  0  0  0
   -9.9333   -4.6809    0.0000 H   0  0  0  0  0  0  0  0  0  0  0  0
  1  2  1  0  0  0  0 
  1  3  1  0  0  0  0 
  1  4  1  0  0  0  0 
  5  1  1  1  0  0  0 
  5  6  1  6  0  0  0 
  5  7  1  0  0  0  0 
  7  8  1  0  0  0  0 
  7  9  1  0  0  0  0 
  7 10  1  0  0  0  0 
 10 11  1  6  0  0  0 
 10 12  1  0  0  0  0 
 12 13  1  1  0  0  0 
 12 14  1  0  0  0  0 
 14 15  1  0  0  0  0 
 14 16  1  0  0  0  0 
 14 17  1  0  0  0  0 
 17 18  1  0  0  0  0 
 17 19  1  0  0  0  0 
 17 20  1  0  0  0  0 
 20 21  2  0  0  0  0 
 21 22  1  0  0  0  0 
 21 23  1  0  0  0  0 
 23 24  2  0  0  0  0 
 23 25  1  0  0  0  0 
 25 26  1  0  0  0  0 
 25 27  1  0  0  0  0 
 25 28  1  0  0  0  0 
 28 29  1  0  0  0  0 
 28 30  1  0  0  0  0 
 30 20  1  1  0  0  0 
 30 31  1  0  0  0  0 
 31 32  1  0  0  0  0 
 31 33  1  0  0  0  0 
 31 34  1  0  0  0  0 
 30 35  1  0  0  0  0 
 12 35  1  0  0  0  0 
 35 36  1  0  0  0  0 
 36 37  1  6  0  0  0 
 36 38  1  0  0  0  0 
 38 39  1  0  0  0  0 
 38 40  1  0  0  0  0 
 38 41  1  0  0  0  0 
 10 41  1  0  0  0  0 
 41 42  1  1  0  0  0 
 42 43  1  0  0  0  0 
 42 44  1  0  0  0  0 
 42 45  1  0  0  0  0 
 41 46  1  0  0  0  0 
  5 46  1  0  0  0  0 
 46 47  1  1  0  0  0 
 47 48  2  0  0  0  0 
 47 49  1  0  0  0  0 
 49 50  1  0  0  0  0 
 49 51  1  0  0  0  0 
 49 52  1  0  0  0  0 
 52 53  1  0  0  0  0 
 53 54  2  0  0  0  0 
 53 55  1  0  0  0  0 
 55 56  1  0  0  0  0 
 53 57  1  0  0  0  0 
 57 58  1  0  0  0  0 
 46 59  1  6  0  0  0 
 59 60  1  0  0  0  0 
 36 61  1  1  0  0  0 
 61 62  1  0  0  0  0 
 35 63  1  6  0  0  0 
 28 64  1  0  0  0  0 
 64 65  1  0  0  0  0 
 65 66  1  0  0  0  0 
 65 67  1  0  0  0  0 
 65 68  1  0  0  0  0 
 68 69  1  0  0  0  0 
 68 70  1  0  0  0  0 
 70 71  2  0  0  0  0 
 70 72  1  0  0  0  0 
 72 73  1  0  0  0  0 
 72 74  1  0  0  0  0 
 74 75  1  0  0  0  0 
 74 76  1  0  0  0  0 
 74 77  1  0  0  0  0 
 77 78  2  0  0  0  0 
 77 79  1  0  0  0  0 
 79 80  1  0  0  0  0 
 68 81  1  0  0  0  0 
 81 82  1  0  0  0  0 
 81 83  1  0  0  0  0 
 83 84  2  0  0  0  0 
 83 85  1  0  0  0  0 
 85 86  1  0  0  0  0 
 85 87  1  0  0  0  0 
 85 88  1  0  0  0  0 
 88 89  1  0  0  0  0 
 88 90  1  0  0  0  0 
 88 91  1  0  0  0  0 
 91 92  1  0  0  0  0 
 91 93  1  0  0  0  0 
 93 94  2  0  0  0  0 
 93 95  1  0  0  0  0 
 95 96  1  0  0  0  0 
 91 97  1  0  0  0  0 
 97 98  1  0  0  0  0 
 97 99  1  0  0  0  0 
M  END
> <Rank>
1

> <Priority_score>
0.444

> <Reaction_type>
glutathione_conjugation_(alpha,beta-unsaturated_carbonyl)

> <Parent_ID>
56

> <Parent_InChI>
InChI=1S/C22H30FO8P/c1-12-8-16-15-5-4-13-9-14(24)6-7-19(13,2)21(15,23)17(25)10-20(16,3)22(12,27)18(26)11-31-32(28,29)30/h6-7,9,12,15-17,25,27H,4-5,8,10-11H2,1-3H3,(H2,28,29,30)

> <Parent_SMILES>
C[C@H]1C[C@H]2[C@@H]3CCC4=CC(=O)C=C[C@]4(C)[C@@]3(F)[C@@H](O)C[C@]2(C)[C@@]1(O)C(=O)COP(=O)(O)O

$$$$
Molecule 56_metabolite 2
  CDK     0516241031

 63 66  0  0  0  0  0  0  0  0999 V2000
   13.3693    9.4451    0.0000 C   0  0  0  0  0  0  0  0  0  0  0  0
   14.4852   10.4475    0.0000 H   0  0  0  0  0  0  0  0  0  0  0  0
   12.6636    8.1215    0.0000 H   0  0  0  0  0  0  0  0  0  0  0  0
   14.5502    8.5202    0.0000 H   0  0  0  0  0  0  0  0  0  0  0  0
   11.0306   10.2080    0.0000 C   0  0  1  0  0  0  0  0  0  0  0  0
   10.7165    8.7412    0.0000 H   0  0  0  0  0  0  0  0  0  0  0  0
   11.6403   11.5743    0.0000 C   0  0  0  0  0  0  0  0  0  0  0  0
   12.5257   12.7851    0.0000 H   0  0  0  0  0  0  0  0  0  0  0  0
   12.9378   10.8217    0.0000 H   0  0  0  0  0  0  0  0  0  0  0  0
   10.5282   12.5842    0.0000 C   0  0  1  0  0  0  0  0  0  0  0  0
    9.1575   13.1934    0.0000 H   0  0  0  0  0  0  0  0  0  0  0  0
   10.5297   14.0850    0.0000 C   0  0  2  0  0  0  0  0  0  0  0  0
   10.5320   15.5850    0.0000 H   0  0  0  0  0  0  0  0  0  0  0  0
   11.8298   14.8333    0.0000 C   0  0  0  0  0  0  0  0  0  0  0  0
   13.3073   15.0921    0.0000 H   0  0  0  0  0  0  0  0  0  0  0  0
   12.3411   13.4231    0.0000 H   0  0  0  0  0  0  0  0  0  0  0  0
   11.8313   16.3341    0.0000 C   0  0  0  0  0  0  0  0  0  0  0  0
   12.3463   17.7429    0.0000 H   0  0  0  0  0  0  0  0  0  0  0  0
   10.5327   17.0867    0.0000 C   0  0  0  0  0  0  0  0  0  0  0  0
   10.5342   18.5875    0.0000 C   0  0  0  0  0  0  0  0  0  0  0  0
   11.8343   19.3358    0.0000 H   0  0  0  0  0  0  0  0  0  0  0  0
    9.2357   19.3401    0.0000 C   0  0  0  0  0  0  0  0  0  0  0  0
    9.2379   20.8401    0.0000 O   0  0  0  0  0  0  0  0  0  0  0  0
    7.9357   18.5918    0.0000 C   0  0  0  0  0  0  0  0  0  0  0  0
    6.6375   19.3433    0.0000 H   0  0  0  0  0  0  0  0  0  0  0  0
    7.9342   17.0909    0.0000 C   0  0  0  0  0  0  0  0  0  0  0  0
    6.6342   16.3427    0.0000 H   0  0  0  0  0  0  0  0  0  0  0  0
    9.2327   16.3384    0.0000 C   0  0  1  0  0  0  0  0  0  0  0  0
    6.3381   16.8527    0.0000 C   0  0  0  0  0  0  0  0  0  0  0  0
    5.0633   15.3377    0.0000 H   0  0  0  0  0  0  0  0  0  0  0  0
    6.8529   18.2616    0.0000 H   0  0  0  0  0  0  0  0  0  0  0  0
    5.0400   17.6045    0.0000 H   0  0  0  0  0  0  0  0  0  0  0  0
    9.2312   14.8376    0.0000 C   0  0  1  0  0  0  0  0  0  0  0  0
    7.9312   14.0893    0.0000 C   0  0  2  0  0  0  0  0  0  0  0  0
    6.4537   13.8304    0.0000 H   0  0  0  0  0  0  0  0  0  0  0  0
    7.9297   12.5884    0.0000 C   0  0  0  0  0  0  0  0  0  0  0  0
    7.4146   11.1796    0.0000 H   0  0  0  0  0  0  0  0  0  0  0  0
    6.4528   12.8507    0.0000 H   0  0  0  0  0  0  0  0  0  0  0  0
    9.2282   11.8359    0.0000 C   0  0  1  0  0  0  0  0  0  0  0  0
    6.8497   10.1078    0.0000 C   0  0  0  0  0  0  0  0  0  0  0  0
    7.1068    7.6613    0.0000 H   0  0  0  0  0  0  0  0  0  0  0  0
    5.4078    9.6944    0.0000 H   0  0  0  0  0  0  0  0  0  0  0  0
    6.1921   11.4560    0.0000 H   0  0  0  0  0  0  0  0  0  0  0  0
    9.5429   10.3671    0.0000 C   0  0  1  0  0  0  0  0  0  0  0  0
    9.5410    7.4271    0.0000 C   0  0  0  0  0  0  0  0  0  0  0  0
    8.2414    6.6779    0.0000 O   0  0  0  0  0  0  0  0  0  0  0  0
   10.8395    6.6762    0.0000 C   0  0  0  0  0  0  0  0  0  0  0  0
   12.3165    6.4148    0.0000 H   0  0  0  0  0  0  0  0  0  0  0  0
   11.3535    8.0854    0.0000 H   0  0  0  0  0  0  0  0  0  0  0  0
   10.8385    5.1762    0.0000 O   0  0  0  0  0  0  0  0  0  0  0  0
   12.1371    4.4254    0.0000 P   0  0  0  0  0  0  0  0  0  0  0  0
   13.1005    3.2757    0.0000 O   0  0  0  0  0  0  0  0  0  0  0  0
   13.4366    5.1745    0.0000 O   0  0  0  0  0  0  0  0  0  0  0  0
   14.7351    4.4236    0.0000 H   0  0  0  0  0  0  0  0  0  0  0  0
   11.1721    3.2769    0.0000 O   0  0  0  0  0  0  0  0  0  0  0  0
   11.6842    1.8670    0.0000 H   0  0  0  0  0  0  0  0  0  0  0  0
    8.0512   10.2096    0.0000 O   0  0  0  0  0  0  0  0  0  0  0  0
    7.4417    8.8390    0.0000 H   0  0  0  0  0  0  0  0  0  0  0  0
    7.4199   15.4994    0.0000 O   0  0  0  0  0  0  0  0  0  0  0  0
    4.5252   16.0135    0.0000 H   0  0  0  0  0  0  0  0  0  0  0  0
    8.2684   15.9877    0.0000 F   0  0  0  0  0  0  0  0  0  0  0  0
   13.3082   16.0719    0.0000 O   0  0  0  0  0  0  0  0  0  0  0  0
   14.2737   17.2198    0.0000 H   0  0  0  0  0  0  0  0  0  0  0  0
  1  2  1  0  0  0  0 
  1  3  1  0  0  0  0 
  1  4  1  0  0  0  0 
  5  1  1  6  0  0  0 
  5  6  1  1  0  0  0 
  5  7  1  0  0  0  0 
  7  8  1  0  0  0  0 
  7  9  1  0  0  0  0 
  7 10  1  0  0  0  0 
 10 11  1  1  0  0  0 
 10 12  1  0  0  0  0 
 12 13  1  6  0  0  0 
 12 14  1  0  0  0  0 
 14 15  1  0  0  0  0 
 14 16  1  0  0  0  0 
 14 17  1  0  0  0  0 
 17 18  1  0  0  0  0 
 17 19  1  0  0  0  0 
 19 20  2  0  0  0  0 
 20 21  1  0  0  0  0 
 20 22  1  0  0  0  0 
 22 23  2  0  0  0  0 
 22 24  1  0  0  0  0 
 24 25  1  0  0  0  0 
 24 26  2  0  0  0  0 
 26 27  1  0  0  0  0 
 26 28  1  0  0  0  0 
 28 19  1  6  0  0  0 
 28 29  1  0  0  0  0 
 29 30  1  0  0  0  0 
 29 31  1  0  0  0  0 
 29 32  1  0  0  0  0 
 28 33  1  0  0  0  0 
 12 33  1  0  0  0  0 
 33 34  1  0  0  0  0 
 34 35  1  1  0  0  0 
 34 36  1  0  0  0  0 
 36 37  1  0  0  0  0 
 36 38  1  0  0  0  0 
 36 39  1  0  0  0  0 
 10 39  1  0  0  0  0 
 39 40  1  6  0  0  0 
 40 41  1  0  0  0  0 
 40 42  1  0  0  0  0 
 40 43  1  0  0  0  0 
 39 44  1  0  0  0  0 
  5 44  1  0  0  0  0 
 44 45  1  6  0  0  0 
 45 46  2  0  0  0  0 
 45 47  1  0  0  0  0 
 47 48  1  0  0  0  0 
 47 49  1  0  0  0  0 
 47 50  1  0  0  0  0 
 50 51  1  0  0  0  0 
 51 52  2  0  0  0  0 
 51 53  1  0  0  0  0 
 53 54  1  0  0  0  0 
 51 55  1  0  0  0  0 
 55 56  1  0  0  0  0 
 44 57  1  1  0  0  0 
 57 58  1  0  0  0  0 
 34 59  1  6  0  0  0 
 59 60  1  0  0  0  0 
 33 61  1  1  0  0  0 
 17 62  1  0  0  0  0 
 62 63  1  0  0  0  0 
M  END
> <Rank>
2

> <Priority_score>
0.22

> <Reaction_type>
aliphatic_hydroxylation_(sec_carbon_next_to_SP2,in_a_ring)

> <Parent_ID>
56

> <Parent_InChI>
InChI=1S/C22H30FO8P/c1-12-8-16-15-5-4-13-9-14(24)6-7-19(13,2)21(15,23)17(25)10-20(16,3)22(12,27)18(26)11-31-32(28,29)30/h6-7,9,12,15-17,25,27H,4-5,8,10-11H2,1-3H3,(H2,28,29,30)

> <Parent_SMILES>
C[C@H]1C[C@H]2[C@@H]3CCC4=CC(=O)C=C[C@]4(C)[C@@]3(F)[C@@H](O)C[C@]2(C)[C@@]1(O)C(=O)COP(=O)(O)O

$$$$
Molecule 56_metabolite 3
  CDK     0516241031

 66 69  0  0  0  0  0  0  0  0999 V2000
    6.0490   -5.4649    0.0000 C   0  0  0  0  0  0  0  0  0  0  0  0
    5.7353   -6.9317    0.0000 H   0  0  0  0  0  0  0  0  0  0  0  0
    6.8454   -4.1938    0.0000 H   0  0  0  0  0  0  0  0  0  0  0  0
    7.4391   -6.0285    0.0000 H   0  0  0  0  0  0  0  0  0  0  0  0
    3.8665   -3.4950    0.0000 C   0  0  1  0  0  0  0  0  0  0  0  0
    4.9917   -2.5030    0.0000 H   0  0  0  0  0  0  0  0  0  0  0  0
    3.0165   -4.6850    0.0000 C   0  0  0  0  0  0  0  0  0  0  0  0
    2.4070   -6.0556    0.0000 H   0  0  0  0  0  0  0  0  0  0  0  0
    4.3188   -5.4294    0.0000 H   0  0  0  0  0  0  0  0  0  0  0  0
    1.5865   -4.2150    0.0000 C   0  0  1  0  0  0  0  0  0  0  0  0
    0.3820   -3.3211    0.0000 H   0  0  0  0  0  0  0  0  0  0  0  0
    0.3165   -4.9350    0.0000 C   0  0  2  0  0  0  0  0  0  0  0  0
   -0.9795   -5.6901    0.0000 H   0  0  0  0  0  0  0  0  0  0  0  0
    0.3165   -6.4650    0.0000 C   0  0  0  0  0  0  0  0  0  0  0  0
    0.8200   -7.8779    0.0000 H   0  0  0  0  0  0  0  0  0  0  0  0
    1.7946   -6.2095    0.0000 H   0  0  0  0  0  0  0  0  0  0  0  0
   -1.0135   -7.2150    0.0000 C   0  0  0  0  0  0  0  0  0  0  0  0
   -1.9813   -8.3610    0.0000 H   0  0  0  0  0  0  0  0  0  0  0  0
   -0.0569   -8.3704    0.0000 H   0  0  0  0  0  0  0  0  0  0  0  0
   -2.3135   -6.4650    0.0000 C   0  0  0  0  0  0  0  0  0  0  0  0
   -3.5835   -7.2150    0.0000 C   0  0  0  0  0  0  0  0  0  0  0  0
   -3.5734   -8.7149    0.0000 H   0  0  0  0  0  0  0  0  0  0  0  0
   -4.8935   -6.4650    0.0000 C   0  0  0  0  0  0  0  0  0  0  0  0
   -6.1911   -7.2173    0.0000 O   0  0  0  0  0  0  0  0  0  0  0  0
   -4.8935   -4.9350    0.0000 C   0  0  0  0  0  0  0  0  0  0  0  0
   -6.1845   -4.1713    0.0000 H   0  0  0  0  0  0  0  0  0  0  0  0
   -3.5835   -4.2150    0.0000 C   0  0  0  0  0  0  0  0  0  0  0  0
   -3.5736   -2.7150    0.0000 H   0  0  0  0  0  0  0  0  0  0  0  0
   -2.3135   -4.9350    0.0000 C   0  0  1  0  0  0  0  0  0  0  0  0
   -2.0456   -3.4591    0.0000 C   0  0  0  0  0  0  0  0  0  0  0  0
   -0.5457   -3.4665    0.0000 H   0  0  0  0  0  0  0  0  0  0  0  0
   -4.5056   -3.4468    0.0000 H   0  0  0  0  0  0  0  0  0  0  0  0
   -2.2988   -1.9806    0.0000 H   0  0  0  0  0  0  0  0  0  0  0  0
   -1.0135   -4.2150    0.0000 C   0  0  1  0  0  0  0  0  0  0  0  0
   -1.0135   -2.7450    0.0000 C   0  0  2  0  0  0  0  0  0  0  0  0
   -2.0108    0.0207    0.0000 H   0  0  0  0  0  0  0  0  0  0  0  0
    0.3165   -1.9850    0.0000 C   0  0  0  0  0  0  0  0  0  0  0  0
    1.2944   -0.8475    0.0000 H   0  0  0  0  0  0  0  0  0  0  0  0
   -0.6382   -0.8281    0.0000 H   0  0  0  0  0  0  0  0  0  0  0  0
    1.5865   -2.7450    0.0000 C   0  0  1  0  0  0  0  0  0  0  0  0
    1.9118    0.1770    0.0000 C   0  0  0  0  0  0  0  0  0  0  0  0
    3.7255    0.9712    0.0000 H   0  0  0  0  0  0  0  0  0  0  0  0
    1.5578    1.6346    0.0000 H   0  0  0  0  0  0  0  0  0  0  0  0
    0.4148    0.0815    0.0000 H   0  0  0  0  0  0  0  0  0  0  0  0
    3.0165   -2.2750    0.0000 C   0  0  1  0  0  0  0  0  0  0  0  0
    5.5802   -0.8358    0.0000 C   0  0  0  0  0  0  0  0  0  0  0  0
    5.5983    0.6641    0.0000 O   0  0  0  0  0  0  0  0  0  0  0  0
    6.8701   -1.6014    0.0000 C   0  0  0  0  0  0  0  0  0  0  0  0
    7.8203   -2.7620    0.0000 H   0  0  0  0  0  0  0  0  0  0  0  0
    5.8921   -2.7388    0.0000 H   0  0  0  0  0  0  0  0  0  0  0  0
    8.1781   -0.8672    0.0000 O   0  0  0  0  0  0  0  0  0  0  0  0
    9.4680   -1.6328    0.0000 P   0  0  0  0  0  0  0  0  0  0  0  0
   10.9419   -1.9111    0.0000 O   0  0  0  0  0  0  0  0  0  0  0  0
    9.4499   -3.1327    0.0000 O   0  0  0  0  0  0  0  0  0  0  0  0
   10.7398   -3.8983    0.0000 H   0  0  0  0  0  0  0  0  0  0  0  0
    9.9980   -0.2295    0.0000 O   0  0  0  0  0  0  0  0  0  0  0  0
   11.4782    0.0131    0.0000 H   0  0  0  0  0  0  0  0  0  0  0  0
    2.4124   -0.9020    0.0000 O   0  0  0  0  0  0  0  0  0  0  0  0
    3.2993    0.3077    0.0000 H   0  0  0  0  0  0  0  0  0  0  0  0
   -2.5135   -2.7427    0.0000 O   0  0  0  0  0  0  0  0  0  0  0  0
   -3.9797   -0.1945    0.0000 S   0  0  0  0  0  0  0  0  0  0  0  0
   -5.1302   -1.1569    0.0000 O   0  0  0  0  0  0  0  0  0  0  0  0
   -5.1273    0.7714    0.0000 O   0  0  0  0  0  0  0  0  0  0  0  0
   -3.2277    1.1035    0.0000 O   0  0  0  0  0  0  0  0  0  0  0  0
   -3.9758    2.4036    0.0000 H   0  0  0  0  0  0  0  0  0  0  0  0
   -2.7193   -3.2097    0.0000 F   0  0  0  0  0  0  0  0  0  0  0  0
  1  2  1  0  0  0  0 
  1  3  1  0  0  0  0 
  1  4  1  0  0  0  0 
  5  1  1  1  0  0  0 
  5  6  1  6  0  0  0 
  5  7  1  0  0  0  0 
  7  8  1  0  0  0  0 
  7  9  1  0  0  0  0 
  7 10  1  0  0  0  0 
 10 11  1  6  0  0  0 
 10 12  1  0  0  0  0 
 12 13  1  1  0  0  0 
 12 14  1  0  0  0  0 
 14 15  1  0  0  0  0 
 14 16  1  0  0  0  0 
 14 17  1  0  0  0  0 
 17 18  1  0  0  0  0 
 17 19  1  0  0  0  0 
 17 20  1  0  0  0  0 
 20 21  2  0  0  0  0 
 21 22  1  0  0  0  0 
 21 23  1  0  0  0  0 
 23 24  2  0  0  0  0 
 23 25  1  0  0  0  0 
 25 26  1  0  0  0  0 
 25 27  2  0  0  0  0 
 27 28  1  0  0  0  0 
 27 29  1  0  0  0  0 
 29 20  1  1  0  0  0 
 29 30  1  0  0  0  0 
 30 31  1  0  0  0  0 
 30 32  1  0  0  0  0 
 30 33  1  0  0  0  0 
 29 34  1  0  0  0  0 
 12 34  1  0  0  0  0 
 34 35  1  0  0  0  0 
 35 36  1  6  0  0  0 
 35 37  1  0  0  0  0 
 37 38  1  0  0  0  0 
 37 39  1  0  0  0  0 
 37 40  1  0  0  0  0 
 10 40  1  0  0  0  0 
 40 41  1  1  0  0  0 
 41 42  1  0  0  0  0 
 41 43  1  0  0  0  0 
 41 44  1  0  0  0  0 
 40 45  1  0  0  0  0 
  5 45  1  0  0  0  0 
 45 46  1  1  0  0  0 
 46 47  2  0  0  0  0 
 46 48  1  0  0  0  0 
 48 49  1  0  0  0  0 
 48 50  1  0  0  0  0 
 48 51  1  0  0  0  0 
 51 52  1  0  0  0  0 
 52 53  2  0  0  0  0 
 52 54  1  0  0  0  0 
 54 55  1  0  0  0  0 
 52 56  1  0  0  0  0 
 56 57  1  0  0  0  0 
 45 58  1  6  0  0  0 
 58 59  1  0  0  0  0 
 35 60  1  1  0  0  0 
 60 61  1  0  0  0  0 
 61 62  2  0  0  0  0 
 61 63  2  0  0  0  0 
 61 64  1  0  0  0  0 
 64 65  1  0  0  0  0 
 34 66  1  6  0  0  0 
M  END
> <Rank>
3

> <Priority_score>
0.184

> <Reaction_type>
sulfation_(aliphatic_hydroxyl)

> <Parent_ID>
56

> <Parent_InChI>
InChI=1S/C22H30FO8P/c1-12-8-16-15-5-4-13-9-14(24)6-7-19(13,2)21(15,23)17(25)10-20(16,3)22(12,27)18(26)11-31-32(28,29)30/h6-7,9,12,15-17,25,27H,4-5,8,10-11H2,1-3H3,(H2,28,29,30)

> <Parent_SMILES>
C[C@H]1C[C@H]2[C@@H]3CCC4=CC(=O)C=C[C@]4(C)[C@@]3(F)[C@@H](O)C[C@]2(C)[C@@]1(O)C(=O)COP(=O)(O)O

$$$$
Molecule 56_metabolite 4
  CDK     0516241031

 82 86  0  0  0  0  0  0  0  0999 V2000
    9.3809   -5.7619    0.0000 C   0  0  0  0  0  0  0  0  0  0  0  0
    9.0672   -7.2288    0.0000 H   0  0  0  0  0  0  0  0  0  0  0  0
   10.1773   -4.4908    0.0000 H   0  0  0  0  0  0  0  0  0  0  0  0
   10.7710   -6.3255    0.0000 H   0  0  0  0  0  0  0  0  0  0  0  0
    7.1984   -3.7920    0.0000 C   0  0  1  0  0  0  0  0  0  0  0  0
    8.3236   -2.8001    0.0000 H   0  0  0  0  0  0  0  0  0  0  0  0
    6.3484   -4.9820    0.0000 C   0  0  0  0  0  0  0  0  0  0  0  0
    5.7389   -6.3526    0.0000 H   0  0  0  0  0  0  0  0  0  0  0  0
    7.6506   -5.7265    0.0000 H   0  0  0  0  0  0  0  0  0  0  0  0
    4.9184   -4.5120    0.0000 C   0  0  1  0  0  0  0  0  0  0  0  0
    3.7139   -3.6182    0.0000 H   0  0  0  0  0  0  0  0  0  0  0  0
    3.6484   -5.2320    0.0000 C   0  0  2  0  0  0  0  0  0  0  0  0
    2.3523   -5.9871    0.0000 H   0  0  0  0  0  0  0  0  0  0  0  0
    3.6484   -6.7620    0.0000 C   0  0  0  0  0  0  0  0  0  0  0  0
    4.1519   -8.1750    0.0000 H   0  0  0  0  0  0  0  0  0  0  0  0
    5.1265   -6.5065    0.0000 H   0  0  0  0  0  0  0  0  0  0  0  0
    2.3184   -7.5120    0.0000 C   0  0  0  0  0  0  0  0  0  0  0  0
    1.3506   -8.6580    0.0000 H   0  0  0  0  0  0  0  0  0  0  0  0
    3.2749   -8.6675    0.0000 H   0  0  0  0  0  0  0  0  0  0  0  0
    1.0184   -6.7620    0.0000 C   0  0  0  0  0  0  0  0  0  0  0  0
   -0.2516   -7.5120    0.0000 C   0  0  0  0  0  0  0  0  0  0  0  0
   -0.2415   -9.0120    0.0000 H   0  0  0  0  0  0  0  0  0  0  0  0
   -1.5616   -6.7620    0.0000 C   0  0  0  0  0  0  0  0  0  0  0  0
   -2.8592   -7.5144    0.0000 O   0  0  0  0  0  0  0  0  0  0  0  0
   -1.5616   -5.2320    0.0000 C   0  0  0  0  0  0  0  0  0  0  0  0
   -3.2658   -4.2240    0.0000 H   0  0  0  0  0  0  0  0  0  0  0  0
   -0.2516   -4.5120    0.0000 C   0  0  0  0  0  0  0  0  0  0  0  0
   -0.2353   -2.0521    0.0000 H   0  0  0  0  0  0  0  0  0  0  0  0
    1.0184   -5.2320    0.0000 C   0  0  1  0  0  0  0  0  0  0  0  0
    1.5385   -3.8251    0.0000 C   0  0  0  0  0  0  0  0  0  0  0  0
    3.0170   -3.5719    0.0000 H   0  0  0  0  0  0  0  0  0  0  0  0
   -1.3543   -3.3001    0.0000 H   0  0  0  0  0  0  0  0  0  0  0  0
    1.5459   -2.3251    0.0000 H   0  0  0  0  0  0  0  0  0  0  0  0
    2.3184   -4.5120    0.0000 C   0  0  1  0  0  0  0  0  0  0  0  0
    2.3184   -3.0420    0.0000 C   0  0  2  0  0  0  0  0  0  0  0  0
    1.3211   -0.2764    0.0000 H   0  0  0  0  0  0  0  0  0  0  0  0
    3.6484   -2.2820    0.0000 C   0  0  0  0  0  0  0  0  0  0  0  0
    4.6262   -1.1445    0.0000 H   0  0  0  0  0  0  0  0  0  0  0  0
    2.6937   -1.1251    0.0000 H   0  0  0  0  0  0  0  0  0  0  0  0
    4.9184   -3.0420    0.0000 C   0  0  1  0  0  0  0  0  0  0  0  0
    5.2437   -0.1201    0.0000 C   0  0  0  0  0  0  0  0  0  0  0  0
    4.0356    0.7690    0.0000 H   0  0  0  0  0  0  0  0  0  0  0  0
    5.9095    1.2241    0.0000 H   0  0  0  0  0  0  0  0  0  0  0  0
    6.6830   -0.5424    0.0000 H   0  0  0  0  0  0  0  0  0  0  0  0
    6.3484   -2.5720    0.0000 C   0  0  1  0  0  0  0  0  0  0  0  0
    8.9121   -1.1329    0.0000 C   0  0  0  0  0  0  0  0  0  0  0  0
    8.9302    0.3670    0.0000 O   0  0  0  0  0  0  0  0  0  0  0  0
   10.2020   -1.8985    0.0000 C   0  0  0  0  0  0  0  0  0  0  0  0
   11.1522   -3.0591    0.0000 H   0  0  0  0  0  0  0  0  0  0  0  0
    9.2240   -3.0358    0.0000 H   0  0  0  0  0  0  0  0  0  0  0  0
   11.5100   -1.1642    0.0000 O   0  0  0  0  0  0  0  0  0  0  0  0
   12.7999   -1.9298    0.0000 P   0  0  0  0  0  0  0  0  0  0  0  0
   14.2738   -2.2081    0.0000 O   0  0  0  0  0  0  0  0  0  0  0  0
   12.7818   -3.4297    0.0000 O   0  0  0  0  0  0  0  0  0  0  0  0
   14.0717   -4.1953    0.0000 H   0  0  0  0  0  0  0  0  0  0  0  0
   13.3299   -0.5266    0.0000 O   0  0  0  0  0  0  0  0  0  0  0  0
   14.8101   -0.2840    0.0000 H   0  0  0  0  0  0  0  0  0  0  0  0
    5.7443   -1.1991    0.0000 O   0  0  0  0  0  0  0  0  0  0  0  0
    7.4827    1.1719    0.0000 H   0  0  0  0  0  0  0  0  0  0  0  0
    0.0691   -1.1489    0.0000 O   0  0  0  0  0  0  0  0  0  0  0  0
    0.4998    1.2731    0.0000 C   0  0  0  0  0  0  0  0  0  0  0  0
    1.9098    0.7612    0.0000 H   0  0  0  0  0  0  0  0  0  0  0  0
   -0.9902    1.2787    0.0000 C   0  0  0  0  0  0  0  0  0  0  0  0
   -3.7574    0.2859    0.0000 H   0  0  0  0  0  0  0  0  0  0  0  0
   -1.7452    2.6016    0.0000 C   0  0  0  0  0  0  0  0  0  0  0  0
   -2.8867    3.5747    0.0000 H   0  0  0  0  0  0  0  0  0  0  0  0
   -0.9802    3.8987    0.0000 C   0  0  0  0  0  0  0  0  0  0  0  0
   -0.7115    5.3745    0.0000 H   0  0  0  0  0  0  0  0  0  0  0  0
    0.5098    3.8931    0.0000 C   0  0  0  0  0  0  0  0  0  0  0  0
    1.9213    4.4005    0.0000 H   0  0  0  0  0  0  0  0  0  0  0  0
    0.0105    6.7904    0.0000 C   0  0  0  0  0  0  0  0  0  0  0  0
    1.1633    7.7501    0.0000 O   0  0  0  0  0  0  0  0  0  0  0  0
   -1.3970    7.3089    0.0000 O   0  0  0  0  0  0  0  0  0  0  0  0
   -1.6518    8.7871    0.0000 H   0  0  0  0  0  0  0  0  0  0  0  0
    1.2548    2.5903    0.0000 O   0  0  0  0  0  0  0  0  0  0  0  0
   -2.3859    4.4222    0.0000 O   0  0  0  0  0  0  0  0  0  0  0  0
   -2.6355    5.9013    0.0000 H   0  0  0  0  0  0  0  0  0  0  0  0
   -2.9004    1.6448    0.0000 O   0  0  0  0  0  0  0  0  0  0  0  0
   -4.3066    2.1668    0.0000 H   0  0  0  0  0  0  0  0  0  0  0  0
   -0.7359   -0.1995    0.0000 O   0  0  0  0  0  0  0  0  0  0  0  0
   -1.8890   -1.1589    0.0000 H   0  0  0  0  0  0  0  0  0  0  0  0
    0.1990   -3.2631    0.0000 F   0  0  0  0  0  0  0  0  0  0  0  0
  1  2  1  0  0  0  0 
  1  3  1  0  0  0  0 
  1  4  1  0  0  0  0 
  5  1  1  1  0  0  0 
  5  6  1  6  0  0  0 
  5  7  1  0  0  0  0 
  7  8  1  0  0  0  0 
  7  9  1  0  0  0  0 
  7 10  1  0  0  0  0 
 10 11  1  6  0  0  0 
 10 12  1  0  0  0  0 
 12 13  1  1  0  0  0 
 12 14  1  0  0  0  0 
 14 15  1  0  0  0  0 
 14 16  1  0  0  0  0 
 14 17  1  0  0  0  0 
 17 18  1  0  0  0  0 
 17 19  1  0  0  0  0 
 17 20  1  0  0  0  0 
 20 21  2  0  0  0  0 
 21 22  1  0  0  0  0 
 21 23  1  0  0  0  0 
 23 24  2  0  0  0  0 
 23 25  1  0  0  0  0 
 25 26  1  0  0  0  0 
 25 27  2  0  0  0  0 
 27 28  1  0  0  0  0 
 27 29  1  0  0  0  0 
 29 20  1  1  0  0  0 
 29 30  1  0  0  0  0 
 30 31  1  0  0  0  0 
 30 32  1  0  0  0  0 
 30 33  1  0  0  0  0 
 29 34  1  0  0  0  0 
 12 34  1  0  0  0  0 
 34 35  1  0  0  0  0 
 35 36  1  6  0  0  0 
 35 37  1  0  0  0  0 
 37 38  1  0  0  0  0 
 37 39  1  0  0  0  0 
 37 40  1  0  0  0  0 
 10 40  1  0  0  0  0 
 40 41  1  1  0  0  0 
 41 42  1  0  0  0  0 
 41 43  1  0  0  0  0 
 41 44  1  0  0  0  0 
 40 45  1  0  0  0  0 
  5 45  1  0  0  0  0 
 45 46  1  1  0  0  0 
 46 47  2  0  0  0  0 
 46 48  1  0  0  0  0 
 48 49  1  0  0  0  0 
 48 50  1  0  0  0  0 
 48 51  1  0  0  0  0 
 51 52  1  0  0  0  0 
 52 53  2  0  0  0  0 
 52 54  1  0  0  0  0 
 54 55  1  0  0  0  0 
 52 56  1  0  0  0  0 
 56 57  1  0  0  0  0 
 45 58  1  6  0  0  0 
 58 59  1  0  0  0  0 
 35 60  1  1  0  0  0 
 60 61  1  0  0  0  0 
 61 62  1  0  0  0  0 
 61 63  1  0  0  0  0 
 63 64  1  0  0  0  0 
 63 65  1  0  0  0  0 
 65 66  1  0  0  0  0 
 65 67  1  0  0  0  0 
 67 68  1  0  0  0  0 
 67 69  1  0  0  0  0 
 69 70  1  0  0  0  0 
 69 71  1  0  0  0  0 
 71 72  2  0  0  0  0 
 71 73  1  0  0  0  0 
 73 74  1  0  0  0  0 
 69 75  1  0  0  0  0 
 61 75  1  0  0  0  0 
 67 76  1  0  0  0  0 
 76 77  1  0  0  0  0 
 65 78  1  0  0  0  0 
 78 79  1  0  0  0  0 
 63 80  1  0  0  0  0 
 80 81  1  0  0  0  0 
 34 82  1  6  0  0  0 
M  END
> <Rank>
3

> <Priority_score>
0.184

> <Reaction_type>
O-glucuronidation_(aliphatic_hydroxyl)

> <Parent_ID>
56

> <Parent_InChI>
InChI=1S/C22H30FO8P/c1-12-8-16-15-5-4-13-9-14(24)6-7-19(13,2)21(15,23)17(25)10-20(16,3)22(12,27)18(26)11-31-32(28,29)30/h6-7,9,12,15-17,25,27H,4-5,8,10-11H2,1-3H3,(H2,28,29,30)

> <Parent_SMILES>
C[C@H]1C[C@H]2[C@@H]3CCC4=CC(=O)C=C[C@]4(C)[C@@]3(F)[C@@H](O)C[C@]2(C)[C@@]1(O)C(=O)COP(=O)(O)O

$$$$
Molecule 56_metabolite 5
  CDK     0516241031

 57 60  0  0  0  0  0  0  0  0999 V2000
    4.7020   -6.7633    0.0000 C   0  0  0  0  0  0  0  0  0  0  0  0
    4.3884   -8.2302    0.0000 H   0  0  0  0  0  0  0  0  0  0  0  0
    5.4985   -5.4922    0.0000 H   0  0  0  0  0  0  0  0  0  0  0  0
    6.0921   -7.3269    0.0000 H   0  0  0  0  0  0  0  0  0  0  0  0
    2.8759   -5.1150    0.0000 C   0  0  1  0  0  0  0  0  0  0  0  0
    4.0011   -4.1231    0.0000 H   0  0  0  0  0  0  0  0  0  0  0  0
    2.0259   -6.3050    0.0000 C   0  0  0  0  0  0  0  0  0  0  0  0
    1.4164   -7.6756    0.0000 H   0  0  0  0  0  0  0  0  0  0  0  0
    3.3281   -7.0495    0.0000 H   0  0  0  0  0  0  0  0  0  0  0  0
    0.5959   -5.8350    0.0000 C   0  0  1  0  0  0  0  0  0  0  0  0
   -0.6087   -4.9412    0.0000 H   0  0  0  0  0  0  0  0  0  0  0  0
   -0.6741   -6.5550    0.0000 C   0  0  2  0  0  0  0  0  0  0  0  0
   -1.9702   -7.3101    0.0000 H   0  0  0  0  0  0  0  0  0  0  0  0
   -0.6741   -8.0850    0.0000 C   0  0  0  0  0  0  0  0  0  0  0  0
   -0.1706   -9.4980    0.0000 H   0  0  0  0  0  0  0  0  0  0  0  0
    0.8040   -7.8296    0.0000 H   0  0  0  0  0  0  0  0  0  0  0  0
   -2.0041   -8.8350    0.0000 C   0  0  0  0  0  0  0  0  0  0  0  0
   -2.9719   -9.9811    0.0000 H   0  0  0  0  0  0  0  0  0  0  0  0
   -1.0476   -9.9905    0.0000 H   0  0  0  0  0  0  0  0  0  0  0  0
   -3.3041   -8.0850    0.0000 C   0  0  0  0  0  0  0  0  0  0  0  0
   -4.5741   -8.8350    0.0000 C   0  0  0  0  0  0  0  0  0  0  0  0
   -4.5640  -10.3350    0.0000 H   0  0  0  0  0  0  0  0  0  0  0  0
   -5.8841   -8.0850    0.0000 C   0  0  0  0  0  0  0  0  0  0  0  0
   -7.1818   -8.8374    0.0000 O   0  0  0  0  0  0  0  0  0  0  0  0
   -5.8841   -6.5550    0.0000 C   0  0  0  0  0  0  0  0  0  0  0  0
   -7.1752   -5.7914    0.0000 H   0  0  0  0  0  0  0  0  0  0  0  0
   -4.5741   -5.8350    0.0000 C   0  0  0  0  0  0  0  0  0  0  0  0
   -4.5642   -4.3351    0.0000 H   0  0  0  0  0  0  0  0  0  0  0  0
   -3.3041   -6.5550    0.0000 C   0  0  1  0  0  0  0  0  0  0  0  0
   -2.7792   -3.6623    0.0000 C   0  0  0  0  0  0  0  0  0  0  0  0
   -0.9152   -2.9944    0.0000 H   0  0  0  0  0  0  0  0  0  0  0  0
   -5.2391   -3.6500    0.0000 H   0  0  0  0  0  0  0  0  0  0  0  0
   -3.2753   -0.7644    0.0000 H   0  0  0  0  0  0  0  0  0  0  0  0
   -2.0041   -5.8350    0.0000 C   0  0  1  0  0  0  0  0  0  0  0  0
   -2.0041   -4.3650    0.0000 C   0  0  2  0  0  0  0  0  0  0  0  0
   -2.8386   -2.0509    0.0000 H   0  0  0  0  0  0  0  0  0  0  0  0
   -0.6741   -3.6050    0.0000 C   0  0  0  0  0  0  0  0  0  0  0  0
    0.3037   -2.4676    0.0000 H   0  0  0  0  0  0  0  0  0  0  0  0
   -1.6288   -2.4481    0.0000 H   0  0  0  0  0  0  0  0  0  0  0  0
    0.5959   -4.3650    0.0000 C   0  0  1  0  0  0  0  0  0  0  0  0
    0.9211   -1.4431    0.0000 C   0  0  0  0  0  0  0  0  0  0  0  0
    2.7349   -0.6489    0.0000 H   0  0  0  0  0  0  0  0  0  0  0  0
    0.5672    0.0146    0.0000 H   0  0  0  0  0  0  0  0  0  0  0  0
   -0.5758   -1.5385    0.0000 H   0  0  0  0  0  0  0  0  0  0  0  0
    2.0259   -3.8950    0.0000 C   0  0  1  0  0  0  0  0  0  0  0  0
    4.5896   -2.4559    0.0000 C   0  0  0  0  0  0  0  0  0  0  0  0
    4.6077   -0.9560    0.0000 O   0  0  0  0  0  0  0  0  0  0  0  0
    5.8795   -3.2215    0.0000 C   0  0  0  0  0  0  0  0  0  0  0  0
    6.8297   -4.3821    0.0000 H   0  0  0  0  0  0  0  0  0  0  0  0
    4.9015   -4.3588    0.0000 H   0  0  0  0  0  0  0  0  0  0  0  0
    7.1875   -2.4872    0.0000 O   0  0  0  0  0  0  0  0  0  0  0  0
    8.4773   -3.2528    0.0000 H   0  0  0  0  0  0  0  0  0  0  0  0
    1.4217   -2.5221    0.0000 O   0  0  0  0  0  0  0  0  0  0  0  0
    2.3087   -1.3124    0.0000 H   0  0  0  0  0  0  0  0  0  0  0  0
   -3.5041   -4.3628    0.0000 O   0  0  0  0  0  0  0  0  0  0  0  0
   -4.2522   -3.0627    0.0000 H   0  0  0  0  0  0  0  0  0  0  0  0
   -3.7100   -4.8298    0.0000 F   0  0  0  0  0  0  0  0  0  0  0  0
  1  2  1  0  0  0  0 
  1  3  1  0  0  0  0 
  1  4  1  0  0  0  0 
  5  1  1  1  0  0  0 
  5  6  1  6  0  0  0 
  5  7  1  0  0  0  0 
  7  8  1  0  0  0  0 
  7  9  1  0  0  0  0 
  7 10  1  0  0  0  0 
 10 11  1  6  0  0  0 
 10 12  1  0  0  0  0 
 12 13  1  1  0  0  0 
 12 14  1  0  0  0  0 
 14 15  1  0  0  0  0 
 14 16  1  0  0  0  0 
 14 17  1  0  0  0  0 
 17 18  1  0  0  0  0 
 17 19  1  0  0  0  0 
 17 20  1  0  0  0  0 
 20 21  2  0  0  0  0 
 21 22  1  0  0  0  0 
 21 23  1  0  0  0  0 
 23 24  2  0  0  0  0 
 23 25  1  0  0  0  0 
 25 26  1  0  0  0  0 
 25 27  2  0  0  0  0 
 27 28  1  0  0  0  0 
 27 29  1  0  0  0  0 
 29 20  1  1  0  0  0 
 29 30  1  0  0  0  0 
 30 31  1  0  0  0  0 
 30 32  1  0  0  0  0 
 30 33  1  0  0  0  0 
 29 34  1  0  0  0  0 
 12 34  1  0  0  0  0 
 34 35  1  0  0  0  0 
 35 36  1  6  0  0  0 
 35 37  1  0  0  0  0 
 37 38  1  0  0  0  0 
 37 39  1  0  0  0  0 
 37 40  1  0  0  0  0 
 10 40  1  0  0  0  0 
 40 41  1  1  0  0  0 
 41 42  1  0  0  0  0 
 41 43  1  0  0  0  0 
 41 44  1  0  0  0  0 
 40 45  1  0  0  0  0 
  5 45  1  0  0  0  0 
 45 46  1  1  0  0  0 
 46 47  2  0  0  0  0 
 46 48  1  0  0  0  0 
 48 49  1  0  0  0  0 
 48 50  1  0  0  0  0 
 48 51  1  0  0  0  0 
 51 52  1  0  0  0  0 
 45 53  1  6  0  0  0 
 53 54  1  0  0  0  0 
 35 55  1  1  0  0  0 
 55 56  1  0  0  0  0 
 34 57  1  6  0  0  0 
M  END
> <Rank>
5

> <Priority_score>
0.1816

> <Reaction_type>
phosphoester cleavage

> <Parent_ID>
56

> <Parent_InChI>
InChI=1S/C22H30FO8P/c1-12-8-16-15-5-4-13-9-14(24)6-7-19(13,2)21(15,23)17(25)10-20(16,3)22(12,27)18(26)11-31-32(28,29)30/h6-7,9,12,15-17,25,27H,4-5,8,10-11H2,1-3H3,(H2,28,29,30)

> <Parent_SMILES>
C[C@H]1C[C@H]2[C@@H]3CCC4=CC(=O)C=C[C@]4(C)[C@@]3(F)[C@@H](O)C[C@]2(C)[C@@]1(O)C(=O)COP(=O)(O)O

$$$$
Molecule 56_metabolite 6
  CDK     0516241031

  8  7  0  0  0  0  0  0  0  0999 V2000
    1.2990   -0.7500    0.0000 O   0  0  0  0  0  0  0  0  0  0  0  0
    0.0000    0.0000    0.0000 H   0  0  0  0  0  0  0  0  0  0  0  0
    2.5981   -0.0000    0.0000 P   0  0  0  0  0  0  0  0  0  0  0  0
    3.5623    1.1491    0.0000 O   0  0  0  0  0  0  0  0  0  0  0  0
    3.8971   -0.7500    0.0000 O   0  0  0  0  0  0  0  0  0  0  0  0
    5.1962   -0.0000    0.0000 H   0  0  0  0  0  0  0  0  0  0  0  0
    1.6339    1.1491    0.0000 O   0  0  0  0  0  0  0  0  0  0  0  0
    0.1567    0.8886    0.0000 H   0  0  0  0  0  0  0  0  0  0  0  0
  1  2  1  0  0  0  0 
  1  3  1  0  0  0  0 
  3  4  2  0  0  0  0 
  3  5  1  0  0  0  0 
  5  6  1  0  0  0  0 
  3  7  1  0  0  0  0 
  7  8  1  0  0  0  0 
M  END
> <Rank>
5

> <Priority_score>
0.1816

> <Reaction_type>
phosphoester cleavage

> <Parent_ID>
56

> <Parent_InChI>
InChI=1S/C22H30FO8P/c1-12-8-16-15-5-4-13-9-14(24)6-7-19(13,2)21(15,23)17(25)10-20(16,3)22(12,27)18(26)11-31-32(28,29)30/h6-7,9,12,15-17,25,27H,4-5,8,10-11H2,1-3H3,(H2,28,29,30)

> <Parent_SMILES>
C[C@H]1C[C@H]2[C@@H]3CCC4=CC(=O)C=C[C@]4(C)[C@@]3(F)[C@@H](O)C[C@]2(C)[C@@]1(O)C(=O)COP(=O)(O)O

$$$$
Molecule 56_metabolite 7
  CDK     0516241031

 66 69  0  0  0  0  0  0  0  0999 V2000
   13.8522    6.9207    0.0000 C   0  0  0  0  0  0  0  0  0  0  0  0
   14.9897    7.8986    0.0000 H   0  0  0  0  0  0  0  0  0  0  0  0
   13.1179    5.6128    0.0000 H   0  0  0  0  0  0  0  0  0  0  0  0
   15.0128    5.9704    0.0000 H   0  0  0  0  0  0  0  0  0  0  0  0
   11.9837    7.5756    0.0000 C   0  0  1  0  0  0  0  0  0  0  0  0
   11.6518    6.1127    0.0000 H   0  0  0  0  0  0  0  0  0  0  0  0
   12.6212    8.8917    0.0000 C   0  0  0  0  0  0  0  0  0  0  0  0
   13.5324   10.0832    0.0000 H   0  0  0  0  0  0  0  0  0  0  0  0
   13.8984    8.1051    0.0000 H   0  0  0  0  0  0  0  0  0  0  0  0
   11.5237    9.9219    0.0000 C   0  0  1  0  0  0  0  0  0  0  0  0
   10.1621   10.5512    0.0000 H   0  0  0  0  0  0  0  0  0  0  0  0
   11.5475   11.3816    0.0000 C   0  0  2  0  0  0  0  0  0  0  0  0
   11.5895   12.8810    0.0000 H   0  0  0  0  0  0  0  0  0  0  0  0
   12.8905   12.1144    0.0000 C   0  0  0  0  0  0  0  0  0  0  0  0
   14.3721   12.3491    0.0000 H   0  0  0  0  0  0  0  0  0  0  0  0
   13.3742   10.6945    0.0000 H   0  0  0  0  0  0  0  0  0  0  0  0
   12.9119   13.6411    0.0000 C   0  0  0  0  0  0  0  0  0  0  0  0
   13.4544   15.0396    0.0000 H   0  0  0  0  0  0  0  0  0  0  0  0
   14.3844   13.3549    0.0000 H   0  0  0  0  0  0  0  0  0  0  0  0
   11.6309   14.4231    0.0000 C   0  0  0  0  0  0  0  0  0  0  0  0
   11.6810   15.8972    0.0000 C   0  0  0  0  0  0  0  0  0  0  0  0
   13.0026   16.6067    0.0000 H   0  0  0  0  0  0  0  0  0  0  0  0
   10.3952   16.6879    0.0000 C   0  0  0  0  0  0  0  0  0  0  0  0
   10.4341   18.1874    0.0000 O   0  0  0  0  0  0  0  0  0  0  0  0
    9.0521   15.9551    0.0000 C   0  0  0  0  0  0  0  0  0  0  0  0
    7.7634   16.7227    0.0000 H   0  0  0  0  0  0  0  0  0  0  0  0
    9.0475   14.4603    0.0000 C   0  0  0  0  0  0  0  0  0  0  0  0
    7.5659   14.2258    0.0000 H   0  0  0  0  0  0  0  0  0  0  0  0
   10.2878   13.6903    0.0000 C   0  0  1  0  0  0  0  0  0  0  0  0
    7.3832   13.2353    0.0000 C   0  0  0  0  0  0  0  0  0  0  0  0
    6.8433   11.8359    0.0000 H   0  0  0  0  0  0  0  0  0  0  0  0
    7.4211   15.2150    0.0000 H   0  0  0  0  0  0  0  0  0  0  0  0
    4.9692   13.7088    0.0000 H   0  0  0  0  0  0  0  0  0  0  0  0
   10.2784   12.2043    0.0000 C   0  0  1  0  0  0  0  0  0  0  0  0
    8.9880   11.5002    0.0000 C   0  0  2  0  0  0  0  0  0  0  0  0
    7.5056   11.2710    0.0000 H   0  0  0  0  0  0  0  0  0  0  0  0
    8.9578    9.9687    0.0000 C   0  0  0  0  0  0  0  0  0  0  0  0
    8.4276    8.5655    0.0000 H   0  0  0  0  0  0  0  0  0  0  0  0
    7.4850   10.2527    0.0000 H   0  0  0  0  0  0  0  0  0  0  0  0
   10.2333    9.2178    0.0000 C   0  0  1  0  0  0  0  0  0  0  0  0
    8.2174    7.8079    0.0000 C   0  0  0  0  0  0  0  0  0  0  0  0
    6.8583    8.4426    0.0000 H   0  0  0  0  0  0  0  0  0  0  0  0
    7.3563    6.5797    0.0000 H   0  0  0  0  0  0  0  0  0  0  0  0
    9.2775    6.7467    0.0000 H   0  0  0  0  0  0  0  0  0  0  0  0
   10.5056    7.7374    0.0000 C   0  0  1  0  0  0  0  0  0  0  0  0
   10.4759    5.2776    0.0000 C   0  0  0  0  0  0  0  0  0  0  0  0
    9.1679    4.5433    0.0000 O   0  0  0  0  0  0  0  0  0  0  0  0
   11.4261    4.1170    0.0000 C   0  0  0  0  0  0  0  0  0  0  0  0
   12.7160    3.3513    0.0000 H   0  0  0  0  0  0  0  0  0  0  0  0
   12.4041    5.2543    0.0000 H   0  0  0  0  0  0  0  0  0  0  0  0
   10.8961    2.7137    0.0000 O   0  0  0  0  0  0  0  0  0  0  0  0
   11.8464    1.5531    0.0000 P   0  0  0  0  0  0  0  0  0  0  0  0
   12.3424    0.1375    0.0000 O   0  0  0  0  0  0  0  0  0  0  0  0
   13.3266    1.7957    0.0000 O   0  0  0  0  0  0  0  0  0  0  0  0
   14.2769    0.6351    0.0000 H   0  0  0  0  0  0  0  0  0  0  0  0
   10.5384    0.8188    0.0000 O   0  0  0  0  0  0  0  0  0  0  0  0
   10.5203   -0.6811    0.0000 H   0  0  0  0  0  0  0  0  0  0  0  0
    7.5762    7.4880    0.0000 O   0  0  0  0  0  0  0  0  0  0  0  0
    6.7352    5.6955    0.0000 S   0  0  0  0  0  0  0  0  0  0  0  0
    8.1832    5.3039    0.0000 O   0  0  0  0  0  0  0  0  0  0  0  0
    6.6010    4.2015    0.0000 O   0  0  0  0  0  0  0  0  0  0  0  0
    5.2406    5.5683    0.0000 O   0  0  0  0  0  0  0  0  0  0  0  0
    4.6035    4.2103    0.0000 H   0  0  0  0  0  0  0  0  0  0  0  0
    8.0371   13.2369    0.0000 O   0  0  0  0  0  0  0  0  0  0  0  0
    6.5375   13.2709    0.0000 H   0  0  0  0  0  0  0  0  0  0  0  0
    9.3318   13.3679    0.0000 F   0  0  0  0  0  0  0  0  0  0  0  0
  1  2  1  0  0  0  0 
  1  3  1  0  0  0  0 
  1  4  1  0  0  0  0 
  5  1  1  6  0  0  0 
  5  6  1  1  0  0  0 
  5  7  1  0  0  0  0 
  7  8  1  0  0  0  0 
  7  9  1  0  0  0  0 
  7 10  1  0  0  0  0 
 10 11  1  1  0  0  0 
 10 12  1  0  0  0  0 
 12 13  1  6  0  0  0 
 12 14  1  0  0  0  0 
 14 15  1  0  0  0  0 
 14 16  1  0  0  0  0 
 14 17  1  0  0  0  0 
 17 18  1  0  0  0  0 
 17 19  1  0  0  0  0 
 17 20  1  0  0  0  0 
 20 21  2  0  0  0  0 
 21 22  1  0  0  0  0 
 21 23  1  0  0  0  0 
 23 24  2  0  0  0  0 
 23 25  1  0  0  0  0 
 25 26  1  0  0  0  0 
 25 27  2  0  0  0  0 
 27 28  1  0  0  0  0 
 27 29  1  0  0  0  0 
 29 20  1  6  0  0  0 
 29 30  1  0  0  0  0 
 30 31  1  0  0  0  0 
 30 32  1  0  0  0  0 
 30 33  1  0  0  0  0 
 29 34  1  0  0  0  0 
 12 34  1  0  0  0  0 
 34 35  1  0  0  0  0 
 35 36  1  1  0  0  0 
 35 37  1  0  0  0  0 
 37 38  1  0  0  0  0 
 37 39  1  0  0  0  0 
 37 40  1  0  0  0  0 
 10 40  1  0  0  0  0 
 40 41  1  6  0  0  0 
 41 42  1  0  0  0  0 
 41 43  1  0  0  0  0 
 41 44  1  0  0  0  0 
 40 45  1  0  0  0  0 
  5 45  1  0  0  0  0 
 45 46  1  6  0  0  0 
 46 47  2  0  0  0  0 
 46 48  1  0  0  0  0 
 48 49  1  0  0  0  0 
 48 50  1  0  0  0  0 
 48 51  1  0  0  0  0 
 51 52  1  0  0  0  0 
 52 53  2  0  0  0  0 
 52 54  1  0  0  0  0 
 54 55  1  0  0  0  0 
 52 56  1  0  0  0  0 
 56 57  1  0  0  0  0 
 45 58  1  1  0  0  0 
 58 59  1  0  0  0  0 
 59 60  2  0  0  0  0 
 59 61  2  0  0  0  0 
 59 62  1  0  0  0  0 
 62 63  1  0  0  0  0 
 35 64  1  6  0  0  0 
 64 65  1  0  0  0  0 
 34 66  1  1  0  0  0 
M  END
> <Rank>
7

> <Priority_score>
0.172

> <Reaction_type>
sulfation_(aliphatic_hydroxyl)

> <Parent_ID>
56

> <Parent_InChI>
InChI=1S/C22H30FO8P/c1-12-8-16-15-5-4-13-9-14(24)6-7-19(13,2)21(15,23)17(25)10-20(16,3)22(12,27)18(26)11-31-32(28,29)30/h6-7,9,12,15-17,25,27H,4-5,8,10-11H2,1-3H3,(H2,28,29,30)

> <Parent_SMILES>
C[C@H]1C[C@H]2[C@@H]3CCC4=CC(=O)C=C[C@]4(C)[C@@]3(F)[C@@H](O)C[C@]2(C)[C@@]1(O)C(=O)COP(=O)(O)O

$$$$
Molecule 56_metabolite 8
  CDK     0516241031

 82 86  0  0  0  0  0  0  0  0999 V2000
    6.4115   -7.1625    0.0000 C   0  0  0  0  0  0  0  0  0  0  0  0
    6.0979   -8.6293    0.0000 H   0  0  0  0  0  0  0  0  0  0  0  0
    7.2080   -5.8914    0.0000 H   0  0  0  0  0  0  0  0  0  0  0  0
    7.8016   -7.7261    0.0000 H   0  0  0  0  0  0  0  0  0  0  0  0
    4.2291   -5.1926    0.0000 C   0  0  1  0  0  0  0  0  0  0  0  0
    5.3543   -4.2006    0.0000 H   0  0  0  0  0  0  0  0  0  0  0  0
    3.3791   -6.3826    0.0000 C   0  0  0  0  0  0  0  0  0  0  0  0
    2.7696   -7.7532    0.0000 H   0  0  0  0  0  0  0  0  0  0  0  0
    4.6813   -7.1270    0.0000 H   0  0  0  0  0  0  0  0  0  0  0  0
    1.9491   -5.9126    0.0000 C   0  0  1  0  0  0  0  0  0  0  0  0
    0.7445   -5.0187    0.0000 H   0  0  0  0  0  0  0  0  0  0  0  0
    0.6791   -6.6326    0.0000 C   0  0  2  0  0  0  0  0  0  0  0  0
   -0.6170   -7.3877    0.0000 H   0  0  0  0  0  0  0  0  0  0  0  0
    0.6791   -8.1626    0.0000 C   0  0  0  0  0  0  0  0  0  0  0  0
    1.1826   -9.5755    0.0000 H   0  0  0  0  0  0  0  0  0  0  0  0
    2.1572   -7.9071    0.0000 H   0  0  0  0  0  0  0  0  0  0  0  0
   -0.6509   -8.9126    0.0000 C   0  0  0  0  0  0  0  0  0  0  0  0
   -1.6187  -10.0586    0.0000 H   0  0  0  0  0  0  0  0  0  0  0  0
    0.3056  -10.0680    0.0000 H   0  0  0  0  0  0  0  0  0  0  0  0
   -1.9509   -8.1626    0.0000 C   0  0  0  0  0  0  0  0  0  0  0  0
   -3.2209   -8.9126    0.0000 C   0  0  0  0  0  0  0  0  0  0  0  0
   -3.2108  -10.4125    0.0000 H   0  0  0  0  0  0  0  0  0  0  0  0
   -4.5309   -8.1626    0.0000 C   0  0  0  0  0  0  0  0  0  0  0  0
   -5.8286   -8.9149    0.0000 O   0  0  0  0  0  0  0  0  0  0  0  0
   -4.5309   -6.6326    0.0000 C   0  0  0  0  0  0  0  0  0  0  0  0
   -5.8220   -5.8689    0.0000 H   0  0  0  0  0  0  0  0  0  0  0  0
   -3.2209   -5.9126    0.0000 C   0  0  0  0  0  0  0  0  0  0  0  0
   -3.2110   -4.4126    0.0000 H   0  0  0  0  0  0  0  0  0  0  0  0
   -1.9509   -6.6326    0.0000 C   0  0  1  0  0  0  0  0  0  0  0  0
   -1.4260   -3.7398    0.0000 C   0  0  0  0  0  0  0  0  0  0  0  0
   -0.0139   -3.2338    0.0000 H   0  0  0  0  0  0  0  0  0  0  0  0
   -3.8859   -3.7276    0.0000 H   0  0  0  0  0  0  0  0  0  0  0  0
   -1.6791   -2.2613    0.0000 H   0  0  0  0  0  0  0  0  0  0  0  0
   -0.6509   -5.9126    0.0000 C   0  0  1  0  0  0  0  0  0  0  0  0
   -0.6509   -4.4426    0.0000 C   0  0  2  0  0  0  0  0  0  0  0  0
   -1.1597   -3.0315    0.0000 H   0  0  0  0  0  0  0  0  0  0  0  0
    0.6791   -3.6826    0.0000 C   0  0  0  0  0  0  0  0  0  0  0  0
    1.6569   -2.5451    0.0000 H   0  0  0  0  0  0  0  0  0  0  0  0
   -0.2756   -2.5256    0.0000 H   0  0  0  0  0  0  0  0  0  0  0  0
    1.9491   -4.4426    0.0000 C   0  0  1  0  0  0  0  0  0  0  0  0
    2.2212   -1.9977    0.0000 C   0  0  0  0  0  0  0  0  0  0  0  0
   -0.1466   -0.2550    0.0000 H   0  0  0  0  0  0  0  0  0  0  0  0
    2.8871   -0.6535    0.0000 H   0  0  0  0  0  0  0  0  0  0  0  0
    3.6606   -2.4200    0.0000 H   0  0  0  0  0  0  0  0  0  0  0  0
    3.3791   -3.9726    0.0000 C   0  0  1  0  0  0  0  0  0  0  0  0
    5.9428   -2.5334    0.0000 C   0  0  0  0  0  0  0  0  0  0  0  0
    5.9609   -1.0335    0.0000 O   0  0  0  0  0  0  0  0  0  0  0  0
    7.2327   -3.2990    0.0000 C   0  0  0  0  0  0  0  0  0  0  0  0
    8.1829   -4.4596    0.0000 H   0  0  0  0  0  0  0  0  0  0  0  0
    6.2547   -4.4364    0.0000 H   0  0  0  0  0  0  0  0  0  0  0  0
    8.5406   -2.5648    0.0000 O   0  0  0  0  0  0  0  0  0  0  0  0
    9.8305   -3.3304    0.0000 P   0  0  0  0  0  0  0  0  0  0  0  0
   11.3045   -3.6087    0.0000 O   0  0  0  0  0  0  0  0  0  0  0  0
    9.8124   -4.8303    0.0000 O   0  0  0  0  0  0  0  0  0  0  0  0
   11.1023   -5.5959    0.0000 H   0  0  0  0  0  0  0  0  0  0  0  0
   10.3605   -1.9271    0.0000 O   0  0  0  0  0  0  0  0  0  0  0  0
   11.8408   -1.6845    0.0000 H   0  0  0  0  0  0  0  0  0  0  0  0
    2.1950   -1.2816    0.0000 O   0  0  0  0  0  0  0  0  0  0  0  0
    3.9333    1.0894    0.0000 C   0  0  0  0  0  0  0  0  0  0  0  0
    4.9731    0.0083    0.0000 H   0  0  0  0  0  0  0  0  0  0  0  0
    2.5985    1.7515    0.0000 C   0  0  0  0  0  0  0  0  0  0  0  0
    1.1079    1.9193    0.0000 H   0  0  0  0  0  0  0  0  0  0  0  0
    2.5042    3.2717    0.0000 C   0  0  0  0  0  0  0  0  0  0  0  0
    1.9087    4.6484    0.0000 H   0  0  0  0  0  0  0  0  0  0  0  0
    3.7627    4.0986    0.0000 C   0  0  0  0  0  0  0  0  0  0  0  0
    4.6546    5.3047    0.0000 H   0  0  0  0  0  0  0  0  0  0  0  0
    5.0975    3.4366    0.0000 C   0  0  0  0  0  0  0  0  0  0  0  0
    6.5882    3.2696    0.0000 H   0  0  0  0  0  0  0  0  0  0  0  0
    5.9269    6.2571    0.0000 C   0  0  0  0  0  0  0  0  0  0  0  0
    4.8922    7.3432    0.0000 O   0  0  0  0  0  0  0  0  0  0  0  0
    7.3848    6.6102    0.0000 O   0  0  0  0  0  0  0  0  0  0  0  0
    7.8079    8.0493    0.0000 H   0  0  0  0  0  0  0  0  0  0  0  0
    5.1918    1.9387    0.0000 O   0  0  0  0  0  0  0  0  0  0  0  0
    2.7318    5.1883    0.0000 O   0  0  0  0  0  0  0  0  0  0  0  0
    3.1600    6.6258    0.0000 H   0  0  0  0  0  0  0  0  0  0  0  0
    1.0454    2.9223    0.0000 O   0  0  0  0  0  0  0  0  0  0  0  0
    0.0135    4.0109    0.0000 H   0  0  0  0  0  0  0  0  0  0  0  0
    2.1749    0.3125    0.0000 O   0  0  0  0  0  0  0  0  0  0  0  0
    0.7170   -0.0401    0.0000 H   0  0  0  0  0  0  0  0  0  0  0  0
   -2.1509   -4.4403    0.0000 O   0  0  0  0  0  0  0  0  0  0  0  0
   -2.8990   -3.1402    0.0000 H   0  0  0  0  0  0  0  0  0  0  0  0
   -2.3568   -4.9073    0.0000 F   0  0  0  0  0  0  0  0  0  0  0  0
  1  2  1  0  0  0  0 
  1  3  1  0  0  0  0 
  1  4  1  0  0  0  0 
  5  1  1  1  0  0  0 
  5  6  1  6  0  0  0 
  5  7  1  0  0  0  0 
  7  8  1  0  0  0  0 
  7  9  1  0  0  0  0 
  7 10  1  0  0  0  0 
 10 11  1  6  0  0  0 
 10 12  1  0  0  0  0 
 12 13  1  1  0  0  0 
 12 14  1  0  0  0  0 
 14 15  1  0  0  0  0 
 14 16  1  0  0  0  0 
 14 17  1  0  0  0  0 
 17 18  1  0  0  0  0 
 17 19  1  0  0  0  0 
 17 20  1  0  0  0  0 
 20 21  2  0  0  0  0 
 21 22  1  0  0  0  0 
 21 23  1  0  0  0  0 
 23 24  2  0  0  0  0 
 23 25  1  0  0  0  0 
 25 26  1  0  0  0  0 
 25 27  2  0  0  0  0 
 27 28  1  0  0  0  0 
 27 29  1  0  0  0  0 
 29 20  1  1  0  0  0 
 29 30  1  0  0  0  0 
 30 31  1  0  0  0  0 
 30 32  1  0  0  0  0 
 30 33  1  0  0  0  0 
 29 34  1  0  0  0  0 
 12 34  1  0  0  0  0 
 34 35  1  0  0  0  0 
 35 36  1  6  0  0  0 
 35 37  1  0  0  0  0 
 37 38  1  0  0  0  0 
 37 39  1  0  0  0  0 
 37 40  1  0  0  0  0 
 10 40  1  0  0  0  0 
 40 41  1  1  0  0  0 
 41 42  1  0  0  0  0 
 41 43  1  0  0  0  0 
 41 44  1  0  0  0  0 
 40 45  1  0  0  0  0 
  5 45  1  0  0  0  0 
 45 46  1  1  0  0  0 
 46 47  2  0  0  0  0 
 46 48  1  0  0  0  0 
 48 49  1  0  0  0  0 
 48 50  1  0  0  0  0 
 48 51  1  0  0  0  0 
 51 52  1  0  0  0  0 
 52 53  2  0  0  0  0 
 52 54  1  0  0  0  0 
 54 55  1  0  0  0  0 
 52 56  1  0  0  0  0 
 56 57  1  0  0  0  0 
 45 58  1  6  0  0  0 
 58 59  1  0  0  0  0 
 59 60  1  0  0  0  0 
 59 61  1  0  0  0  0 
 61 62  1  0  0  0  0 
 61 63  1  0  0  0  0 
 63 64  1  0  0  0  0 
 63 65  1  0  0  0  0 
 65 66  1  0  0  0  0 
 65 67  1  0  0  0  0 
 67 68  1  0  0  0  0 
 67 69  1  0  0  0  0 
 69 70  2  0  0  0  0 
 69 71  1  0  0  0  0 
 71 72  1  0  0  0  0 
 67 73  1  0  0  0  0 
 59 73  1  0  0  0  0 
 65 74  1  0  0  0  0 
 74 75  1  0  0  0  0 
 63 76  1  0  0  0  0 
 76 77  1  0  0  0  0 
 61 78  1  0  0  0  0 
 78 79  1  0  0  0  0 
 35 80  1  1  0  0  0 
 80 81  1  0  0  0  0 
 34 82  1  6  0  0  0 
M  END
> <Rank>
7

> <Priority_score>
0.172

> <Reaction_type>
O-glucuronidation_(aliphatic_hydroxyl)

> <Parent_ID>
56

> <Parent_InChI>
InChI=1S/C22H30FO8P/c1-12-8-16-15-5-4-13-9-14(24)6-7-19(13,2)21(15,23)17(25)10-20(16,3)22(12,27)18(26)11-31-32(28,29)30/h6-7,9,12,15-17,25,27H,4-5,8,10-11H2,1-3H3,(H2,28,29,30)

> <Parent_SMILES>
C[C@H]1C[C@H]2[C@@H]3CCC4=CC(=O)C=C[C@]4(C)[C@@]3(F)[C@@H](O)C[C@]2(C)[C@@]1(O)C(=O)COP(=O)(O)O

$$$$
Molecule 56_metabolite 9
  CDK     0516241031

 99102  0  0  0  0  0  0  0  0999 V2000
  -18.8953    7.5507    0.0000 C   0  0  0  0  0  0  0  0  0  0  0  0
  -20.0112    8.5531    0.0000 H   0  0  0  0  0  0  0  0  0  0  0  0
  -18.1896    6.2270    0.0000 H   0  0  0  0  0  0  0  0  0  0  0  0
  -20.0763    6.6258    0.0000 H   0  0  0  0  0  0  0  0  0  0  0  0
  -16.1003    8.4624    0.0000 C   0  0  1  0  0  0  0  0  0  0  0  0
  -15.7863    6.9956    0.0000 H   0  0  0  0  0  0  0  0  0  0  0  0
  -16.7100    9.8287    0.0000 C   0  0  0  0  0  0  0  0  0  0  0  0
  -17.5954   11.0395    0.0000 H   0  0  0  0  0  0  0  0  0  0  0  0
  -18.0075    9.0761    0.0000 H   0  0  0  0  0  0  0  0  0  0  0  0
  -15.5979   10.8386    0.0000 C   0  0  1  0  0  0  0  0  0  0  0  0
  -14.2272   11.4478    0.0000 H   0  0  0  0  0  0  0  0  0  0  0  0
  -15.5994   12.3394    0.0000 C   0  0  2  0  0  0  0  0  0  0  0  0
  -15.6017   13.8394    0.0000 H   0  0  0  0  0  0  0  0  0  0  0  0
  -16.8995   13.0877    0.0000 C   0  0  0  0  0  0  0  0  0  0  0  0
  -18.3770   13.3465    0.0000 H   0  0  0  0  0  0  0  0  0  0  0  0
  -17.4108   11.6775    0.0000 H   0  0  0  0  0  0  0  0  0  0  0  0
  -16.9010   14.5885    0.0000 C   0  0  0  0  0  0  0  0  0  0  0  0
  -17.4160   15.9973    0.0000 H   0  0  0  0  0  0  0  0  0  0  0  0
  -18.3779   14.3263    0.0000 H   0  0  0  0  0  0  0  0  0  0  0  0
  -15.6024   15.3411    0.0000 C   0  0  0  0  0  0  0  0  0  0  0  0
  -15.6039   16.8419    0.0000 C   0  0  0  0  0  0  0  0  0  0  0  0
  -16.1190   18.2507    0.0000 H   0  0  0  0  0  0  0  0  0  0  0  0
  -17.0808   16.5797    0.0000 H   0  0  0  0  0  0  0  0  0  0  0  0
  -14.3054   17.5945    0.0000 C   0  0  0  0  0  0  0  0  0  0  0  0
  -14.3076   19.0945    0.0000 O   0  0  0  0  0  0  0  0  0  0  0  0
  -13.0054   16.8462    0.0000 C   0  0  0  0  0  0  0  0  0  0  0  0
  -11.7072   17.5977    0.0000 H   0  0  0  0  0  0  0  0  0  0  0  0
  -13.0039   15.3453    0.0000 C   0  0  0  0  0  0  0  0  0  0  0  0
  -11.7039   14.5971    0.0000 H   0  0  0  0  0  0  0  0  0  0  0  0
  -14.3024   14.5928    0.0000 C   0  0  1  0  0  0  0  0  0  0  0  0
  -12.7840   13.3221    0.0000 C   0  0  0  0  0  0  0  0  0  0  0  0
  -11.3751   13.8370    0.0000 H   0  0  0  0  0  0  0  0  0  0  0  0
  -13.9318   12.3564    0.0000 H   0  0  0  0  0  0  0  0  0  0  0  0
  -12.0323   12.0240    0.0000 H   0  0  0  0  0  0  0  0  0  0  0  0
  -14.3009   13.0920    0.0000 C   0  0  1  0  0  0  0  0  0  0  0  0
  -13.0009   12.3437    0.0000 C   0  0  2  0  0  0  0  0  0  0  0  0
  -10.5778   11.9192    0.0000 H   0  0  0  0  0  0  0  0  0  0  0  0
  -12.9994   10.8429    0.0000 C   0  0  0  0  0  0  0  0  0  0  0  0
  -12.4844    9.4340    0.0000 H   0  0  0  0  0  0  0  0  0  0  0  0
  -11.5225   11.1051    0.0000 H   0  0  0  0  0  0  0  0  0  0  0  0
  -14.2979   10.0903    0.0000 C   0  0  1  0  0  0  0  0  0  0  0  0
  -11.9194    8.3622    0.0000 C   0  0  0  0  0  0  0  0  0  0  0  0
  -12.0762    6.8705    0.0000 H   0  0  0  0  0  0  0  0  0  0  0  0
  -10.4775    7.9488    0.0000 H   0  0  0  0  0  0  0  0  0  0  0  0
  -11.2618    9.7104    0.0000 H   0  0  0  0  0  0  0  0  0  0  0  0
  -14.6126    8.6215    0.0000 C   0  0  1  0  0  0  0  0  0  0  0  0
  -14.6107    5.6815    0.0000 C   0  0  0  0  0  0  0  0  0  0  0  0
  -13.3111    4.9323    0.0000 O   0  0  0  0  0  0  0  0  0  0  0  0
  -15.9092    4.9306    0.0000 C   0  0  0  0  0  0  0  0  0  0  0  0
  -17.3863    4.6692    0.0000 H   0  0  0  0  0  0  0  0  0  0  0  0
  -16.4232    6.3398    0.0000 H   0  0  0  0  0  0  0  0  0  0  0  0
  -15.9082    3.4306    0.0000 O   0  0  0  0  0  0  0  0  0  0  0  0
  -17.2068    2.6798    0.0000 P   0  0  0  0  0  0  0  0  0  0  0  0
  -18.1702    1.5301    0.0000 O   0  0  0  0  0  0  0  0  0  0  0  0
  -18.5063    3.4289    0.0000 O   0  0  0  0  0  0  0  0  0  0  0  0
  -19.8048    2.6780    0.0000 H   0  0  0  0  0  0  0  0  0  0  0  0
  -16.2418    1.5313    0.0000 O   0  0  0  0  0  0  0  0  0  0  0  0
  -16.7539    0.1215    0.0000 H   0  0  0  0  0  0  0  0  0  0  0  0
  -13.1209    8.4640    0.0000 O   0  0  0  0  0  0  0  0  0  0  0  0
  -11.9264    5.7776    0.0000 H   0  0  0  0  0  0  0  0  0  0  0  0
  -10.2394   13.3526    0.0000 O   0  0  0  0  0  0  0  0  0  0  0  0
   -9.0892   12.3898    0.0000 H   0  0  0  0  0  0  0  0  0  0  0  0
  -12.5873   14.0840    0.0000 F   0  0  0  0  0  0  0  0  0  0  0  0
  -18.1505   16.8077    0.0000 S   0  0  0  0  0  0  0  0  0  0  0  0
  -18.1537   19.2677    0.0000 C   0  0  0  0  0  0  0  0  0  0  0  0
  -16.6762   19.0092    0.0000 H   0  0  0  0  0  0  0  0  0  0  0  0
  -17.6426   20.6779    0.0000 H   0  0  0  0  0  0  0  0  0  0  0  0
  -20.2858   20.4949    0.0000 C   0  0  0  0  0  0  0  0  0  0  0  0
  -21.2515   21.6427    0.0000 H   0  0  0  0  0  0  0  0  0  0  0  0
  -18.7070   22.3815    0.0000 C   0  0  0  0  0  0  0  0  0  0  0  0
  -17.2295   22.1229    0.0000 O   0  0  0  0  0  0  0  0  0  0  0  0
  -19.2219   23.7903    0.0000 N   0  0  0  0  0  0  0  0  0  0  0  0
  -20.6995   24.0488    0.0000 H   0  0  0  0  0  0  0  0  0  0  0  0
  -18.2592   24.9407    0.0000 C   0  0  0  0  0  0  0  0  0  0  0  0
  -17.2935   23.7929    0.0000 H   0  0  0  0  0  0  0  0  0  0  0  0
  -16.9612   25.6924    0.0000 H   0  0  0  0  0  0  0  0  0  0  0  0
  -18.7741   26.3495    0.0000 C   0  0  0  0  0  0  0  0  0  0  0  0
  -20.2517   26.6080    0.0000 O   0  0  0  0  0  0  0  0  0  0  0  0
  -17.8115   27.4999    0.0000 O   0  0  0  0  0  0  0  0  0  0  0  0
  -18.3264   28.9087    0.0000 H   0  0  0  0  0  0  0  0  0  0  0  0
  -21.5838   19.7432    0.0000 N   0  0  0  0  0  0  0  0  0  0  0  0
  -21.5819   18.2432    0.0000 H   0  0  0  0  0  0  0  0  0  0  0  0
  -22.8839   20.4915    0.0000 C   0  0  0  0  0  0  0  0  0  0  0  0
  -22.8858   21.9915    0.0000 O   0  0  0  0  0  0  0  0  0  0  0  0
  -24.1819   19.7398    0.0000 C   0  0  0  0  0  0  0  0  0  0  0  0
  -23.2162   18.5920    0.0000 H   0  0  0  0  0  0  0  0  0  0  0  0
  -25.1446   18.5894    0.0000 H   0  0  0  0  0  0  0  0  0  0  0  0
  -26.3139   20.9670    0.0000 C   0  0  0  0  0  0  0  0  0  0  0  0
  -27.2796   22.1148    0.0000 H   0  0  0  0  0  0  0  0  0  0  0  0
  -25.3513   22.1173    0.0000 H   0  0  0  0  0  0  0  0  0  0  0  0
  -27.6120   20.2152    0.0000 C   0  0  0  0  0  0  0  0  0  0  0  0
  -26.6463   19.0675    0.0000 H   0  0  0  0  0  0  0  0  0  0  0  0
  -28.9120   20.9635    0.0000 C   0  0  0  0  0  0  0  0  0  0  0  0
  -28.9140   22.4635    0.0000 O   0  0  0  0  0  0  0  0  0  0  0  0
  -30.2101   20.2118    0.0000 O   0  0  0  0  0  0  0  0  0  0  0  0
  -31.5101   20.9601    0.0000 H   0  0  0  0  0  0  0  0  0  0  0  0
  -28.5747   19.0649    0.0000 N   0  0  0  0  0  0  0  0  0  0  0  0
  -30.0522   19.3234    0.0000 H   0  0  0  0  0  0  0  0  0  0  0  0
  -28.0598   17.6560    0.0000 H   0  0  0  0  0  0  0  0  0  0  0  0
  1  2  1  0  0  0  0 
  1  3  1  0  0  0  0 
  1  4  1  0  0  0  0 
  5  1  1  1  0  0  0 
  5  6  1  6  0  0  0 
  5  7  1  0  0  0  0 
  7  8  1  0  0  0  0 
  7  9  1  0  0  0  0 
  7 10  1  0  0  0  0 
 10 11  1  6  0  0  0 
 10 12  1  0  0  0  0 
 12 13  1  1  0  0  0 
 12 14  1  0  0  0  0 
 14 15  1  0  0  0  0 
 14 16  1  0  0  0  0 
 14 17  1  0  0  0  0 
 17 18  1  0  0  0  0 
 17 19  1  0  0  0  0 
 17 20  1  0  0  0  0 
 20 21  1  0  0  0  0 
 21 22  1  0  0  0  0 
 21 23  1  0  0  0  0 
 21 24  1  0  0  0  0 
 24 25  2  0  0  0  0 
 24 26  1  0  0  0  0 
 26 27  1  0  0  0  0 
 26 28  2  0  0  0  0 
 28 29  1  0  0  0  0 
 30 28  1  6  0  0  0 
 20 30  1  0  0  0  0 
 30 31  1  0  0  0  0 
 31 32  1  0  0  0  0 
 31 33  1  0  0  0  0 
 31 34  1  0  0  0  0 
 30 35  1  0  0  0  0 
 12 35  1  0  0  0  0 
 35 36  1  0  0  0  0 
 36 37  1  6  0  0  0 
 36 38  1  0  0  0  0 
 38 39  1  0  0  0  0 
 38 40  1  0  0  0  0 
 38 41  1  0  0  0  0 
 10 41  1  0  0  0  0 
 41 42  1  1  0  0  0 
 42 43  1  0  0  0  0 
 42 44  1  0  0  0  0 
 42 45  1  0  0  0  0 
 41 46  1  0  0  0  0 
  5 46  1  0  0  0  0 
 46 47  1  1  0  0  0 
 47 48  2  0  0  0  0 
 47 49  1  0  0  0  0 
 49 50  1  0  0  0  0 
 49 51  1  0  0  0  0 
 49 52  1  0  0  0  0 
 52 53  1  0  0  0  0 
 53 54  2  0  0  0  0 
 53 55  1  0  0  0  0 
 55 56  1  0  0  0  0 
 53 57  1  0  0  0  0 
 57 58  1  0  0  0  0 
 46 59  1  6  0  0  0 
 59 60  1  0  0  0  0 
 36 61  1  1  0  0  0 
 61 62  1  0  0  0  0 
 35 63  1  6  0  0  0 
 20 64  1  0  0  0  0 
 64 65  1  0  0  0  0 
 65 66  1  0  0  0  0 
 65 67  1  0  0  0  0 
 65 68  1  0  0  0  0 
 68 69  1  0  0  0  0 
 68 70  1  0  0  0  0 
 70 71  2  0  0  0  0 
 70 72  1  0  0  0  0 
 72 73  1  0  0  0  0 
 72 74  1  0  0  0  0 
 74 75  1  0  0  0  0 
 74 76  1  0  0  0  0 
 74 77  1  0  0  0  0 
 77 78  2  0  0  0  0 
 77 79  1  0  0  0  0 
 79 80  1  0  0  0  0 
 68 81  1  0  0  0  0 
 81 82  1  0  0  0  0 
 81 83  1  0  0  0  0 
 83 84  2  0  0  0  0 
 83 85  1  0  0  0  0 
 85 86  1  0  0  0  0 
 85 87  1  0  0  0  0 
 85 88  1  0  0  0  0 
 88 89  1  0  0  0  0 
 88 90  1  0  0  0  0 
 88 91  1  0  0  0  0 
 91 92  1  0  0  0  0 
 91 93  1  0  0  0  0 
 93 94  2  0  0  0  0 
 93 95  1  0  0  0  0 
 95 96  1  0  0  0  0 
 91 97  1  0  0  0  0 
 97 98  1  0  0  0  0 
 97 99  1  0  0  0  0 
M  END
> <Rank>
9

> <Priority_score>
0.16

> <Reaction_type>
glutathione_conjugation_(alpha,beta-unsaturated_carbonyl)

> <Parent_ID>
56

> <Parent_InChI>
InChI=1S/C22H30FO8P/c1-12-8-16-15-5-4-13-9-14(24)6-7-19(13,2)21(15,23)17(25)10-20(16,3)22(12,27)18(26)11-31-32(28,29)30/h6-7,9,12,15-17,25,27H,4-5,8,10-11H2,1-3H3,(H2,28,29,30)

> <Parent_SMILES>
C[C@H]1C[C@H]2[C@@H]3CCC4=CC(=O)C=C[C@]4(C)[C@@]3(F)[C@@H](O)C[C@]2(C)[C@@]1(O)C(=O)COP(=O)(O)O

$$$$
Molecule 56_metabolite 10
  CDK     0516241031

 13 12  0  0  0  0  0  0  0  0999 V2000
    6.4952    1.0586    0.0000 C   0  0  0  0  0  0  0  0  0  0  0  0
    6.4952    2.5586    0.0000 H   0  0  0  0  0  0  0  0  0  0  0  0
    7.7942    0.3086    0.0000 O   0  0  0  0  0  0  0  0  0  0  0  0
    5.1962    0.3086    0.0000 C   0  0  0  0  0  0  0  0  0  0  0  0
    3.7189    0.0481    0.0000 H   0  0  0  0  0  0  0  0  0  0  0  0
    4.6831    1.7181    0.0000 H   0  0  0  0  0  0  0  0  0  0  0  0
    5.1962   -1.1914    0.0000 O   0  0  0  0  0  0  0  0  0  0  0  0
    3.8971   -1.9414    0.0000 P   0  0  0  0  0  0  0  0  0  0  0  0
    2.9329   -3.0905    0.0000 O   0  0  0  0  0  0  0  0  0  0  0  0
    2.5981   -1.1914    0.0000 O   0  0  0  0  0  0  0  0  0  0  0  0
    1.2990   -1.9414    0.0000 H   0  0  0  0  0  0  0  0  0  0  0  0
    4.8613   -3.0905    0.0000 O   0  0  0  0  0  0  0  0  0  0  0  0
    4.3483   -4.5000    0.0000 H   0  0  0  0  0  0  0  0  0  0  0  0
  1  2  1  0  0  0  0 
  1  3  2  0  0  0  0 
  1  4  1  0  0  0  0 
  4  5  1  0  0  0  0 
  4  6  1  0  0  0  0 
  4  7  1  0  0  0  0 
  7  8  1  0  0  0  0 
  8  9  2  0  0  0  0 
  8 10  1  0  0  0  0 
 10 11  1  0  0  0  0 
  8 12  1  0  0  0  0 
 12 13  1  0  0  0  0 
M  END
> <Rank>
10

> <Priority_score>
0.124

> <Reaction_type>
steroid_17hydroxy_to_keto

> <Parent_ID>
56

> <Parent_InChI>
InChI=1S/C22H30FO8P/c1-12-8-16-15-5-4-13-9-14(24)6-7-19(13,2)21(15,23)17(25)10-20(16,3)22(12,27)18(26)11-31-32(28,29)30/h6-7,9,12,15-17,25,27H,4-5,8,10-11H2,1-3H3,(H2,28,29,30)

> <Parent_SMILES>
C[C@H]1C[C@H]2[C@@H]3CCC4=CC(=O)C=C[C@]4(C)[C@@]3(F)[C@@H](O)C[C@]2(C)[C@@]1(O)C(=O)COP(=O)(O)O

$$$$
Molecule 56_metabolite 11
  CDK     0516241031

 49 52  0  0  0  0  0  0  0  0999 V2000
    6.3650   -4.3420    0.0000 C   0  0  0  0  0  0  0  0  0  0  0  0
    6.0529   -5.8092    0.0000 H   0  0  0  0  0  0  0  0  0  0  0  0
    7.1601   -3.0701    0.0000 H   0  0  0  0  0  0  0  0  0  0  0  0
    7.7557   -4.9041    0.0000 H   0  0  0  0  0  0  0  0  0  0  0  0
    4.8938   -3.0169    0.0000 C   0  0  1  0  0  0  0  0  0  0  0  0
    6.0084   -2.0130    0.0000 H   0  0  0  0  0  0  0  0  0  0  0  0
    4.0138   -4.2269    0.0000 C   0  0  0  0  0  0  0  0  0  0  0  0
    3.4062   -5.5983    0.0000 H   0  0  0  0  0  0  0  0  0  0  0  0
    5.3133   -4.9760    0.0000 H   0  0  0  0  0  0  0  0  0  0  0  0
    2.5838   -3.7669    0.0000 C   0  0  1  0  0  0  0  0  0  0  0  0
    1.3720   -2.8829    0.0000 H   0  0  0  0  0  0  0  0  0  0  0  0
    1.2838   -4.5169    0.0000 C   0  0  2  0  0  0  0  0  0  0  0  0
   -0.0151   -5.2671    0.0000 H   0  0  0  0  0  0  0  0  0  0  0  0
    1.2838   -6.0169    0.0000 C   0  0  0  0  0  0  0  0  0  0  0  0
    1.7965   -7.4265    0.0000 H   0  0  0  0  0  0  0  0  0  0  0  0
    2.7610   -5.7566    0.0000 H   0  0  0  0  0  0  0  0  0  0  0  0
   -0.0162   -6.7669    0.0000 C   0  0  0  0  0  0  0  0  0  0  0  0
   -0.9802   -7.9161    0.0000 H   0  0  0  0  0  0  0  0  0  0  0  0
    0.9479   -7.9161    0.0000 H   0  0  0  0  0  0  0  0  0  0  0  0
   -1.3162   -6.0169    0.0000 C   0  0  0  0  0  0  0  0  0  0  0  0
   -2.6162   -6.7669    0.0000 C   0  0  0  0  0  0  0  0  0  0  0  0
   -2.6162   -8.2669    0.0000 H   0  0  0  0  0  0  0  0  0  0  0  0
   -3.9162   -6.0169    0.0000 C   0  0  0  0  0  0  0  0  0  0  0  0
   -5.2151   -6.7671    0.0000 O   0  0  0  0  0  0  0  0  0  0  0  0
   -3.9162   -4.5169    0.0000 C   0  0  0  0  0  0  0  0  0  0  0  0
   -5.2151   -3.7667    0.0000 H   0  0  0  0  0  0  0  0  0  0  0  0
   -2.6162   -3.7669    0.0000 C   0  0  0  0  0  0  0  0  0  0  0  0
   -2.6162   -2.2669    0.0000 H   0  0  0  0  0  0  0  0  0  0  0  0
   -1.3162   -4.5169    0.0000 C   0  0  1  0  0  0  0  0  0  0  0  0
   -1.3162   -1.5769    0.0000 C   0  0  0  0  0  0  0  0  0  0  0  0
   -3.5684    0.3129    0.0000 H   0  0  0  0  0  0  0  0  0  0  0  0
    0.6337   -1.9207    0.0000 H   0  0  0  0  0  0  0  0  0  0  0  0
   -0.6390    0.2837    0.0000 H   0  0  0  0  0  0  0  0  0  0  0  0
   -0.0162   -3.7669    0.0000 C   0  0  1  0  0  0  0  0  0  0  0  0
   -0.0162   -2.2669    0.0000 C   0  0  2  0  0  0  0  0  0  0  0  0
   -0.5289   -0.8572    0.0000 H   0  0  0  0  0  0  0  0  0  0  0  0
    1.2838   -1.5169    0.0000 C   0  0  0  0  0  0  0  0  0  0  0  0
    2.2479   -0.3677    0.0000 H   0  0  0  0  0  0  0  0  0  0  0  0
    0.3198   -0.3677    0.0000 H   0  0  0  0  0  0  0  0  0  0  0  0
    2.5838   -2.2669    0.0000 C   0  0  1  0  0  0  0  0  0  0  0  0
    2.8949    0.6566    0.0000 C   0  0  0  0  0  0  0  0  0  0  0  0
    4.2661    1.2649    0.0000 H   0  0  0  0  0  0  0  0  0  0  0  0
    2.5340    2.1125    0.0000 H   0  0  0  0  0  0  0  0  0  0  0  0
    1.3985    0.5539    0.0000 H   0  0  0  0  0  0  0  0  0  0  0  0
    4.0138   -1.8069    0.0000 C   0  0  0  0  0  0  0  0  0  0  0  0
    4.4791   -0.3809    0.0000 O   0  0  0  0  0  0  0  0  0  0  0  0
   -1.9661   -1.9229    0.0000 O   0  0  0  0  0  0  0  0  0  0  0  0
   -2.4790   -0.5133    0.0000 H   0  0  0  0  0  0  0  0  0  0  0  0
   -1.7308   -2.7766    0.0000 F   0  0  0  0  0  0  0  0  0  0  0  0
  1  2  1  0  0  0  0 
  1  3  1  0  0  0  0 
  1  4  1  0  0  0  0 
  1  5  1  0  0  0  0 
  5  6  1  6  0  0  0 
  5  7  1  0  0  0  0 
  7  8  1  0  0  0  0 
  7  9  1  0  0  0  0 
  7 10  1  0  0  0  0 
 10 11  1  6  0  0  0 
 10 12  1  0  0  0  0 
 12 13  1  1  0  0  0 
 12 14  1  0  0  0  0 
 14 15  1  0  0  0  0 
 14 16  1  0  0  0  0 
 14 17  1  0  0  0  0 
 17 18  1  0  0  0  0 
 17 19  1  0  0  0  0 
 17 20  1  0  0  0  0 
 20 21  2  0  0  0  0 
 21 22  1  0  0  0  0 
 21 23  1  0  0  0  0 
 23 24  2  0  0  0  0 
 23 25  1  0  0  0  0 
 25 26  1  0  0  0  0 
 25 27  2  0  0  0  0 
 27 28  1  0  0  0  0 
 27 29  1  0  0  0  0 
 29 20  1  1  0  0  0 
 29 30  1  0  0  0  0 
 30 31  1  0  0  0  0 
 30 32  1  0  0  0  0 
 30 33  1  0  0  0  0 
 29 34  1  0  0  0  0 
 12 34  1  0  0  0  0 
 34 35  1  0  0  0  0 
 35 36  1  6  0  0  0 
 35 37  1  0  0  0  0 
 37 38  1  0  0  0  0 
 37 39  1  0  0  0  0 
 37 40  1  0  0  0  0 
 10 40  1  0  0  0  0 
 40 41  1  0  0  0  0 
 41 42  1  0  0  0  0 
 41 43  1  0  0  0  0 
 41 44  1  0  0  0  0 
 40 45  1  6  0  0  0 
  5 45  1  1  0  0  0 
 45 46  2  0  0  0  0 
 35 47  1  1  0  0  0 
 47 48  1  0  0  0  0 
 34 49  1  6  0  0  0 
M  END
> <Rank>
10

> <Priority_score>
0.124

> <Reaction_type>
steroid_17hydroxy_to_keto

> <Parent_ID>
56

> <Parent_InChI>
InChI=1S/C22H30FO8P/c1-12-8-16-15-5-4-13-9-14(24)6-7-19(13,2)21(15,23)17(25)10-20(16,3)22(12,27)18(26)11-31-32(28,29)30/h6-7,9,12,15-17,25,27H,4-5,8,10-11H2,1-3H3,(H2,28,29,30)

> <Parent_SMILES>
C[C@H]1C[C@H]2[C@@H]3CCC4=CC(=O)C=C[C@]4(C)[C@@]3(F)[C@@H](O)C[C@]2(C)[C@@]1(O)C(=O)COP(=O)(O)O

$$$$
Molecule 56_metabolite 12
  CDK     0516241031

 64 67  0  0  0  0  0  0  0  0999 V2000
    7.5524   -5.3632    0.0000 C   0  0  0  0  0  0  0  0  0  0  0  0
    7.2388   -6.8300    0.0000 H   0  0  0  0  0  0  0  0  0  0  0  0
    8.3488   -4.0921    0.0000 H   0  0  0  0  0  0  0  0  0  0  0  0
    8.9425   -5.9268    0.0000 H   0  0  0  0  0  0  0  0  0  0  0  0
    6.0826   -4.0365    0.0000 C   0  0  1  0  0  0  0  0  0  0  0  0
    7.2078   -3.0446    0.0000 H   0  0  0  0  0  0  0  0  0  0  0  0
    5.2326   -5.2265    0.0000 C   0  0  0  0  0  0  0  0  0  0  0  0
    4.6231   -6.5971    0.0000 H   0  0  0  0  0  0  0  0  0  0  0  0
    6.5348   -5.9710    0.0000 H   0  0  0  0  0  0  0  0  0  0  0  0
    3.8026   -4.7565    0.0000 C   0  0  1  0  0  0  0  0  0  0  0  0
    2.5980   -3.8627    0.0000 H   0  0  0  0  0  0  0  0  0  0  0  0
    2.5326   -5.4765    0.0000 C   0  0  2  0  0  0  0  0  0  0  0  0
    1.2365   -6.2316    0.0000 H   0  0  0  0  0  0  0  0  0  0  0  0
    2.5326   -7.0065    0.0000 C   0  0  0  0  0  0  0  0  0  0  0  0
    3.0361   -8.4195    0.0000 H   0  0  0  0  0  0  0  0  0  0  0  0
    4.0107   -6.7510    0.0000 H   0  0  0  0  0  0  0  0  0  0  0  0
    1.2026   -7.7565    0.0000 C   0  0  0  0  0  0  0  0  0  0  0  0
    0.2348   -8.9025    0.0000 H   0  0  0  0  0  0  0  0  0  0  0  0
    2.1591   -8.9120    0.0000 H   0  0  0  0  0  0  0  0  0  0  0  0
   -0.0974   -7.0065    0.0000 C   0  0  0  0  0  0  0  0  0  0  0  0
   -1.3674   -7.7565    0.0000 C   0  0  0  0  0  0  0  0  0  0  0  0
   -1.3573   -9.2565    0.0000 H   0  0  0  0  0  0  0  0  0  0  0  0
   -2.6774   -7.0065    0.0000 C   0  0  0  0  0  0  0  0  0  0  0  0
   -3.9751   -7.7589    0.0000 O   0  0  0  0  0  0  0  0  0  0  0  0
   -2.6774   -5.4765    0.0000 C   0  0  0  0  0  0  0  0  0  0  0  0
   -3.9685   -4.7129    0.0000 H   0  0  0  0  0  0  0  0  0  0  0  0
   -1.3674   -4.7565    0.0000 C   0  0  0  0  0  0  0  0  0  0  0  0
   -1.3575   -3.2566    0.0000 H   0  0  0  0  0  0  0  0  0  0  0  0
   -0.0974   -5.4765    0.0000 C   0  0  1  0  0  0  0  0  0  0  0  0
    0.4226   -4.0696    0.0000 C   0  0  0  0  0  0  0  0  0  0  0  0
    1.9011   -3.8164    0.0000 H   0  0  0  0  0  0  0  0  0  0  0  0
   -2.4701   -3.5446    0.0000 H   0  0  0  0  0  0  0  0  0  0  0  0
    0.4301   -2.5696    0.0000 H   0  0  0  0  0  0  0  0  0  0  0  0
    1.2026   -4.7565    0.0000 C   0  0  1  0  0  0  0  0  0  0  0  0
    1.2026   -3.2865    0.0000 C   0  0  2  0  0  0  0  0  0  0  0  0
    0.2053   -0.5209    0.0000 H   0  0  0  0  0  0  0  0  0  0  0  0
    2.5326   -2.5265    0.0000 C   0  0  0  0  0  0  0  0  0  0  0  0
    3.5104   -1.3890    0.0000 H   0  0  0  0  0  0  0  0  0  0  0  0
    1.5779   -1.3696    0.0000 H   0  0  0  0  0  0  0  0  0  0  0  0
    3.8026   -3.2865    0.0000 C   0  0  1  0  0  0  0  0  0  0  0  0
    4.0747   -0.8416    0.0000 C   0  0  0  0  0  0  0  0  0  0  0  0
    2.8667    0.0475    0.0000 H   0  0  0  0  0  0  0  0  0  0  0  0
    4.7406    0.5025    0.0000 H   0  0  0  0  0  0  0  0  0  0  0  0
    5.5141   -1.2639    0.0000 H   0  0  0  0  0  0  0  0  0  0  0  0
    5.2326   -2.8165    0.0000 C   0  0  1  0  0  0  0  0  0  0  0  0
    7.7963   -1.3774    0.0000 C   0  0  0  0  0  0  0  0  0  0  0  0
    8.2923   -2.7930    0.0000 H   0  0  0  0  0  0  0  0  0  0  0  0
    7.8317    1.5624    0.0000 C   0  0  0  0  0  0  0  0  0  0  0  0
    8.3617    2.9657    0.0000 H   0  0  0  0  0  0  0  0  0  0  0  0
    9.3057    1.2841    0.0000 H   0  0  0  0  0  0  0  0  0  0  0  0
    6.5419    2.3280    0.0000 O   0  0  0  0  0  0  0  0  0  0  0  0
    6.5600    3.8279    0.0000 P   0  0  0  0  0  0  0  0  0  0  0  0
    6.0640    5.2436    0.0000 O   0  0  0  0  0  0  0  0  0  0  0  0
    7.8679    4.5622    0.0000 O   0  0  0  0  0  0  0  0  0  0  0  0
    7.8860    6.0621    0.0000 H   0  0  0  0  0  0  0  0  0  0  0  0
    5.0797    3.5853    0.0000 O   0  0  0  0  0  0  0  0  0  0  0  0
    4.1295    4.7459    0.0000 H   0  0  0  0  0  0  0  0  0  0  0  0
    9.2765   -1.1347    0.0000 O   0  0  0  0  0  0  0  0  0  0  0  0
    9.8065    0.2685    0.0000 H   0  0  0  0  0  0  0  0  0  0  0  0
    4.6284   -1.4436    0.0000 O   0  0  0  0  0  0  0  0  0  0  0  0
    5.5154   -0.2339    0.0000 H   0  0  0  0  0  0  0  0  0  0  0  0
   -1.5586   -2.2769    0.0000 O   0  0  0  0  0  0  0  0  0  0  0  0
   -1.8169   -0.7993    0.0000 H   0  0  0  0  0  0  0  0  0  0  0  0
   -0.0566   -3.2285    0.0000 F   0  0  0  0  0  0  0  0  0  0  0  0
  1  2  1  0  0  0  0 
  1  3  1  0  0  0  0 
  1  4  1  0  0  0  0 
  5  1  1  1  0  0  0 
  5  6  1  6  0  0  0 
  5  7  1  0  0  0  0 
  7  8  1  0  0  0  0 
  7  9  1  0  0  0  0 
  7 10  1  0  0  0  0 
 10 11  1  6  0  0  0 
 10 12  1  0  0  0  0 
 12 13  1  1  0  0  0 
 12 14  1  0  0  0  0 
 14 15  1  0  0  0  0 
 14 16  1  0  0  0  0 
 14 17  1  0  0  0  0 
 17 18  1  0  0  0  0 
 17 19  1  0  0  0  0 
 17 20  1  0  0  0  0 
 20 21  2  0  0  0  0 
 21 22  1  0  0  0  0 
 21 23  1  0  0  0  0 
 23 24  2  0  0  0  0 
 23 25  1  0  0  0  0 
 25 26  1  0  0  0  0 
 25 27  2  0  0  0  0 
 27 28  1  0  0  0  0 
 27 29  1  0  0  0  0 
 29 20  1  1  0  0  0 
 29 30  1  0  0  0  0 
 30 31  1  0  0  0  0 
 30 32  1  0  0  0  0 
 30 33  1  0  0  0  0 
 29 34  1  0  0  0  0 
 12 34  1  0  0  0  0 
 34 35  1  0  0  0  0 
 35 36  1  6  0  0  0 
 35 37  1  0  0  0  0 
 37 38  1  0  0  0  0 
 37 39  1  0  0  0  0 
 37 40  1  0  0  0  0 
 10 40  1  0  0  0  0 
 40 41  1  1  0  0  0 
 41 42  1  0  0  0  0 
 41 43  1  0  0  0  0 
 41 44  1  0  0  0  0 
 40 45  1  0  0  0  0 
  5 45  1  0  0  0  0 
 45 46  1  1  0  0  0 
 46 47  1  0  0  0  0 
 46 48  1  0  0  0  0 
 48 49  1  0  0  0  0 
 48 50  1  0  0  0  0 
 48 51  1  0  0  0  0 
 51 52  1  0  0  0  0 
 52 53  2  0  0  0  0 
 52 54  1  0  0  0  0 
 54 55  1  0  0  0  0 
 52 56  1  0  0  0  0 
 56 57  1  0  0  0  0 
 46 58  1  0  0  0  0 
 58 59  1  0  0  0  0 
 45 60  1  6  0  0  0 
 60 61  1  0  0  0  0 
 35 62  1  1  0  0  0 
 62 63  1  0  0  0  0 
 34 64  1  6  0  0  0 
M  END
> <Rank>
10

> <Priority_score>
0.124

> <Reaction_type>
carbonyl_reduction_(aliphatic)

> <Parent_ID>
56

> <Parent_InChI>
InChI=1S/C22H30FO8P/c1-12-8-16-15-5-4-13-9-14(24)6-7-19(13,2)21(15,23)17(25)10-20(16,3)22(12,27)18(26)11-31-32(28,29)30/h6-7,9,12,15-17,25,27H,4-5,8,10-11H2,1-3H3,(H2,28,29,30)

> <Parent_SMILES>
C[C@H]1C[C@H]2[C@@H]3CCC4=CC(=O)C=C[C@]4(C)[C@@]3(F)[C@@H](O)C[C@]2(C)[C@@]1(O)C(=O)COP(=O)(O)O

$$$$
Molecule 56_metabolite 13
  CDK     0516241031

 63 66  0  0  0  0  0  0  0  0999 V2000
   12.8784   10.7989    0.0000 C   0  0  0  0  0  0  0  0  0  0  0  0
   13.9943   11.8013    0.0000 H   0  0  0  0  0  0  0  0  0  0  0  0
   12.1727    9.4753    0.0000 H   0  0  0  0  0  0  0  0  0  0  0  0
   14.0594    9.8740    0.0000 H   0  0  0  0  0  0  0  0  0  0  0  0
   10.5397   11.5618    0.0000 C   0  0  1  0  0  0  0  0  0  0  0  0
   10.2257   10.0950    0.0000 H   0  0  0  0  0  0  0  0  0  0  0  0
   11.1494   12.9281    0.0000 C   0  0  0  0  0  0  0  0  0  0  0  0
   12.0349   14.1388    0.0000 H   0  0  0  0  0  0  0  0  0  0  0  0
   12.4470   12.1755    0.0000 H   0  0  0  0  0  0  0  0  0  0  0  0
   10.0374   13.9379    0.0000 C   0  0  1  0  0  0  0  0  0  0  0  0
    8.6667   14.5472    0.0000 H   0  0  0  0  0  0  0  0  0  0  0  0
   10.0389   15.4388    0.0000 C   0  0  2  0  0  0  0  0  0  0  0  0
   11.3370   14.6873    0.0000 H   0  0  0  0  0  0  0  0  0  0  0  0
   11.3389   16.1871    0.0000 C   0  0  0  0  0  0  0  0  0  0  0  0
   12.8164   16.4459    0.0000 H   0  0  0  0  0  0  0  0  0  0  0  0
   11.3404   17.6879    0.0000 C   0  0  0  0  0  0  0  0  0  0  0  0
   11.8554   19.0967    0.0000 H   0  0  0  0  0  0  0  0  0  0  0  0
   12.8173   17.4256    0.0000 H   0  0  0  0  0  0  0  0  0  0  0  0
   10.0419   18.4404    0.0000 C   0  0  0  0  0  0  0  0  0  0  0  0
   10.0434   19.9413    0.0000 C   0  0  0  0  0  0  0  0  0  0  0  0
   11.3434   20.6896    0.0000 H   0  0  0  0  0  0  0  0  0  0  0  0
    8.7448   20.6938    0.0000 C   0  0  0  0  0  0  0  0  0  0  0  0
    8.7471   22.1938    0.0000 O   0  0  0  0  0  0  0  0  0  0  0  0
    7.4448   19.9455    0.0000 C   0  0  0  0  0  0  0  0  0  0  0  0
    6.1466   20.6970    0.0000 H   0  0  0  0  0  0  0  0  0  0  0  0
    7.4433   18.4447    0.0000 C   0  0  0  0  0  0  0  0  0  0  0  0
    6.1433   17.6964    0.0000 H   0  0  0  0  0  0  0  0  0  0  0  0
    8.7418   17.6922    0.0000 C   0  0  1  0  0  0  0  0  0  0  0  0
    5.8472   18.2065    0.0000 C   0  0  0  0  0  0  0  0  0  0  0  0
    4.5725   16.6914    0.0000 H   0  0  0  0  0  0  0  0  0  0  0  0
    6.3621   19.6154    0.0000 H   0  0  0  0  0  0  0  0  0  0  0  0
    4.5491   18.9582    0.0000 H   0  0  0  0  0  0  0  0  0  0  0  0
    8.7403   16.1913    0.0000 C   0  0  1  0  0  0  0  0  0  0  0  0
    7.4403   15.4430    0.0000 C   0  0  2  0  0  0  0  0  0  0  0  0
    5.9628   15.1842    0.0000 H   0  0  0  0  0  0  0  0  0  0  0  0
    7.4388   13.9422    0.0000 C   0  0  0  0  0  0  0  0  0  0  0  0
    6.9238   12.5334    0.0000 H   0  0  0  0  0  0  0  0  0  0  0  0
    5.9619   14.2045    0.0000 H   0  0  0  0  0  0  0  0  0  0  0  0
    8.7373   13.1897    0.0000 C   0  0  1  0  0  0  0  0  0  0  0  0
    6.3588   11.4616    0.0000 C   0  0  0  0  0  0  0  0  0  0  0  0
    6.6159    9.0151    0.0000 H   0  0  0  0  0  0  0  0  0  0  0  0
    4.9169   11.0482    0.0000 H   0  0  0  0  0  0  0  0  0  0  0  0
    5.7013   12.8098    0.0000 H   0  0  0  0  0  0  0  0  0  0  0  0
    9.0520   11.7208    0.0000 C   0  0  1  0  0  0  0  0  0  0  0  0
    9.0501    8.7808    0.0000 C   0  0  0  0  0  0  0  0  0  0  0  0
    7.7506    8.0317    0.0000 O   0  0  0  0  0  0  0  0  0  0  0  0
   10.3486    8.0300    0.0000 C   0  0  0  0  0  0  0  0  0  0  0  0
   11.8257    7.7685    0.0000 H   0  0  0  0  0  0  0  0  0  0  0  0
   10.8626    9.4392    0.0000 H   0  0  0  0  0  0  0  0  0  0  0  0
   10.3476    6.5300    0.0000 O   0  0  0  0  0  0  0  0  0  0  0  0
   11.6462    5.7791    0.0000 P   0  0  0  0  0  0  0  0  0  0  0  0
   12.6096    4.6294    0.0000 O   0  0  0  0  0  0  0  0  0  0  0  0
   12.9457    6.5282    0.0000 O   0  0  0  0  0  0  0  0  0  0  0  0
   14.2443    5.7774    0.0000 H   0  0  0  0  0  0  0  0  0  0  0  0
   10.6813    4.6307    0.0000 O   0  0  0  0  0  0  0  0  0  0  0  0
   11.1934    3.2208    0.0000 H   0  0  0  0  0  0  0  0  0  0  0  0
    7.5603   11.5633    0.0000 O   0  0  0  0  0  0  0  0  0  0  0  0
    6.9509   10.1927    0.0000 H   0  0  0  0  0  0  0  0  0  0  0  0
    6.9290   16.8532    0.0000 O   0  0  0  0  0  0  0  0  0  0  0  0
    4.0343   17.3672    0.0000 H   0  0  0  0  0  0  0  0  0  0  0  0
    7.7775   17.3415    0.0000 F   0  0  0  0  0  0  0  0  0  0  0  0
   12.3411   13.4231    0.0000 O   0  0  0  0  0  0  0  0  0  0  0  0
   13.8180   13.1609    0.0000 H   0  0  0  0  0  0  0  0  0  0  0  0
  1  2  1  0  0  0  0 
  1  3  1  0  0  0  0 
  1  4  1  0  0  0  0 
  5  1  1  6  0  0  0 
  5  6  1  1  0  0  0 
  5  7  1  0  0  0  0 
  7  8  1  0  0  0  0 
  7  9  1  0  0  0  0 
  7 10  1  0  0  0  0 
 10 11  1  1  0  0  0 
 10 12  1  0  0  0  0 
 12 13  1  6  0  0  0 
 12 14  1  0  0  0  0 
 14 15  1  0  0  0  0 
 14 16  1  0  0  0  0 
 16 17  1  0  0  0  0 
 16 18  1  0  0  0  0 
 16 19  1  0  0  0  0 
 19 20  2  0  0  0  0 
 20 21  1  0  0  0  0 
 20 22  1  0  0  0  0 
 22 23  2  0  0  0  0 
 22 24  1  0  0  0  0 
 24 25  1  0  0  0  0 
 24 26  2  0  0  0  0 
 26 27  1  0  0  0  0 
 26 28  1  0  0  0  0 
 28 19  1  6  0  0  0 
 28 29  1  0  0  0  0 
 29 30  1  0  0  0  0 
 29 31  1  0  0  0  0 
 29 32  1  0  0  0  0 
 28 33  1  0  0  0  0 
 12 33  1  0  0  0  0 
 33 34  1  0  0  0  0 
 34 35  1  1  0  0  0 
 34 36  1  0  0  0  0 
 36 37  1  0  0  0  0 
 36 38  1  0  0  0  0 
 36 39  1  0  0  0  0 
 10 39  1  0  0  0  0 
 39 40  1  6  0  0  0 
 40 41  1  0  0  0  0 
 40 42  1  0  0  0  0 
 40 43  1  0  0  0  0 
 39 44  1  0  0  0  0 
  5 44  1  0  0  0  0 
 44 45  1  6  0  0  0 
 45 46  2  0  0  0  0 
 45 47  1  0  0  0  0 
 47 48  1  0  0  0  0 
 47 49  1  0  0  0  0 
 47 50  1  0  0  0  0 
 50 51  1  0  0  0  0 
 51 52  2  0  0  0  0 
 51 53  1  0  0  0  0 
 53 54  1  0  0  0  0 
 51 55  1  0  0  0  0 
 55 56  1  0  0  0  0 
 44 57  1  1  0  0  0 
 57 58  1  0  0  0  0 
 34 59  1  6  0  0  0 
 59 60  1  0  0  0  0 
 33 61  1  1  0  0  0 
 14 62  1  0  0  0  0 
 62 63  1  0  0  0  0 
M  END
> <Rank>
13

> <Priority_score>
0.052

> <Reaction_type>
aliphatic hydroxylation

> <Parent_ID>
56

> <Parent_InChI>
InChI=1S/C22H30FO8P/c1-12-8-16-15-5-4-13-9-14(24)6-7-19(13,2)21(15,23)17(25)10-20(16,3)22(12,27)18(26)11-31-32(28,29)30/h6-7,9,12,15-17,25,27H,4-5,8,10-11H2,1-3H3,(H2,28,29,30)

> <Parent_SMILES>
C[C@H]1C[C@H]2[C@@H]3CCC4=CC(=O)C=C[C@]4(C)[C@@]3(F)[C@@H](O)C[C@]2(C)[C@@]1(O)C(=O)COP(=O)(O)O

$$$$
Molecule 56_metabolite 14
  CDK     0516241031

 60 64  0  0  0  0  0  0  0  0999 V2000
   14.6092    1.0163    0.0000 C   0  0  0  0  0  0  0  0  0  0  0  0
   13.1826    1.4799    0.0000 H   0  0  0  0  0  0  0  0  0  0  0  0
   16.1083    1.0687    0.0000 H   0  0  0  0  0  0  0  0  0  0  0  0
   14.8179    2.5017    0.0000 H   0  0  0  0  0  0  0  0  0  0  0  0
   15.1206   -1.3899    0.0000 C   0  0  1  0  0  0  0  0  0  0  0  0
   16.5472   -0.9264    0.0000 H   0  0  0  0  0  0  0  0  0  0  0  0
   13.6288   -1.5467    0.0000 C   0  0  0  0  0  0  0  0  0  0  0  0
   12.1371   -1.3899    0.0000 H   0  0  0  0  0  0  0  0  0  0  0  0
   13.6288   -0.0467    0.0000 H   0  0  0  0  0  0  0  0  0  0  0  0
   13.3170   -3.0139    0.0000 C   0  0  1  0  0  0  0  0  0  0  0  0
   13.4738   -4.5057    0.0000 H   0  0  0  0  0  0  0  0  0  0  0  0
   12.0179   -3.7639    0.0000 C   0  0  2  0  0  0  0  0  0  0  0  0
   10.7189   -4.5139    0.0000 H   0  0  0  0  0  0  0  0  0  0  0  0
   10.7189   -3.0139    0.0000 C   0  0  0  0  0  0  0  0  0  0  0  0
    9.7547   -1.8649    0.0000 H   0  0  0  0  0  0  0  0  0  0  0  0
   11.6831   -1.8649    0.0000 H   0  0  0  0  0  0  0  0  0  0  0  0
    9.4199   -3.7639    0.0000 C   0  0  0  0  0  0  0  0  0  0  0  0
    9.4199   -5.2639    0.0000 C   0  0  0  0  0  0  0  0  0  0  0  0
    8.1208   -6.0139    0.0000 C   0  0  0  0  0  0  0  0  0  0  0  0
    6.8218   -5.2639    0.0000 H   0  0  0  0  0  0  0  0  0  0  0  0
    8.1208   -7.5139    0.0000 C   0  0  0  0  0  0  0  0  0  0  0  0
    9.4199   -8.2639    0.0000 C   0  0  0  0  0  0  0  0  0  0  0  0
    9.4199   -9.7639    0.0000 H   0  0  0  0  0  0  0  0  0  0  0  0
   10.7189   -7.5139    0.0000 C   0  0  0  0  0  0  0  0  0  0  0  0
   13.2650   -8.9839    0.0000 H   0  0  0  0  0  0  0  0  0  0  0  0
   10.7189   -6.0139    0.0000 C   0  0  1  0  0  0  0  0  0  0  0  0
   12.9711   -7.9037    0.0000 C   0  0  0  0  0  0  0  0  0  0  0  0
   12.5439  -10.3263    0.0000 H   0  0  0  0  0  0  0  0  0  0  0  0
   13.7211   -6.6047    0.0000 H   0  0  0  0  0  0  0  0  0  0  0  0
   14.3806   -8.4167    0.0000 H   0  0  0  0  0  0  0  0  0  0  0  0
   12.0179   -5.2639    0.0000 C   0  0  1  0  0  0  0  0  0  0  0  0
   13.3170   -6.0139    0.0000 C   0  0  2  0  0  0  0  0  0  0  0  0
   14.2812   -7.1630    0.0000 H   0  0  0  0  0  0  0  0  0  0  0  0
   14.6160   -5.2639    0.0000 C   0  0  0  0  0  0  0  0  0  0  0  0
   16.0932   -5.0034    0.0000 H   0  0  0  0  0  0  0  0  0  0  0  0
   15.1290   -6.6735    0.0000 H   0  0  0  0  0  0  0  0  0  0  0  0
   14.6160   -3.7639    0.0000 C   0  0  1  0  0  0  0  0  0  0  0  0
   17.3018   -4.9597    0.0000 C   0  0  0  0  0  0  0  0  0  0  0  0
   18.9037   -3.7959    0.0000 H   0  0  0  0  0  0  0  0  0  0  0  0
   18.3809   -6.0017    0.0000 H   0  0  0  0  0  0  0  0  0  0  0  0
   16.4631   -6.2033    0.0000 H   0  0  0  0  0  0  0  0  0  0  0  0
   15.7307   -2.7602    0.0000 C   0  0  1  0  0  0  0  0  0  0  0  0
   18.2769   -1.2902    0.0000 C   0  0  0  0  0  0  0  0  0  0  0  0
   19.5759   -2.0402    0.0000 O   0  0  0  0  0  0  0  0  0  0  0  0
   18.2769    0.2098    0.0000 C   0  0  0  0  0  0  0  0  0  0  0  0
   17.7638    1.6193    0.0000 H   0  0  0  0  0  0  0  0  0  0  0  0
   16.7996   -0.0507    0.0000 H   0  0  0  0  0  0  0  0  0  0  0  0
   19.5759    0.9598    0.0000 O   0  0  0  0  0  0  0  0  0  0  0  0
   19.5759    2.4598    0.0000 P   0  0  0  0  0  0  0  0  0  0  0  0
   20.0889    3.8693    0.0000 O   0  0  0  0  0  0  0  0  0  0  0  0
   18.2769    3.2098    0.0000 O   0  0  0  0  0  0  0  0  0  0  0  0
   18.2769    4.7098    0.0000 H   0  0  0  0  0  0  0  0  0  0  0  0
   21.0531    2.1993    0.0000 O   0  0  0  0  0  0  0  0  0  0  0  0
   22.0173    3.3484    0.0000 H   0  0  0  0  0  0  0  0  0  0  0  0
   16.6124   -3.9738    0.0000 O   0  0  0  0  0  0  0  0  0  0  0  0
   18.1042   -3.8170    0.0000 H   0  0  0  0  0  0  0  0  0  0  0  0
   11.4325   -7.5952    0.0000 O   0  0  0  0  0  0  0  0  0  0  0  0
   11.6930   -9.0724    0.0000 H   0  0  0  0  0  0  0  0  0  0  0  0
   11.5049   -6.6735    0.0000 F   0  0  0  0  0  0  0  0  0  0  0  0
    7.9933   -3.3004    0.0000 O   0  0  0  0  0  0  0  0  0  0  0  0
  1  2  1  0  0  0  0 
  1  3  1  0  0  0  0 
  1  4  1  0  0  0  0 
  5  1  1  6  0  0  0 
  5  6  1  1  0  0  0 
  5  7  1  0  0  0  0 
  7  8  1  0  0  0  0 
  7  9  1  0  0  0  0 
  7 10  1  0  0  0  0 
 10 11  1  1  0  0  0 
 10 12  1  0  0  0  0 
 12 13  1  6  0  0  0 
 12 14  1  0  0  0  0 
 14 15  1  0  0  0  0 
 14 16  1  0  0  0  0 
 14 17  1  0  0  0  0 
 17 18  2  0  0  0  0 
 18 19  1  0  0  0  0 
 19 20  1  0  0  0  0 
 19 21  2  0  0  0  0 
 21 22  1  0  0  0  0 
 22 23  1  0  0  0  0 
 22 24  2  0  0  0  0 
 24 25  1  0  0  0  0 
 24 26  1  0  0  0  0 
 26 18  1  6  0  0  0 
 26 27  1  0  0  0  0 
 27 28  1  0  0  0  0 
 27 29  1  0  0  0  0 
 27 30  1  0  0  0  0 
 26 31  1  0  0  0  0 
 12 31  1  0  0  0  0 
 31 32  1  0  0  0  0 
 32 33  1  1  0  0  0 
 32 34  1  0  0  0  0 
 34 35  1  0  0  0  0 
 34 36  1  0  0  0  0 
 34 37  1  0  0  0  0 
 10 37  1  0  0  0  0 
 37 38  1  6  0  0  0 
 38 39  1  0  0  0  0 
 38 40  1  0  0  0  0 
 38 41  1  0  0  0  0 
 37 42  1  0  0  0  0 
  5 42  1  0  0  0  0 
 42 43  1  6  0  0  0 
 43 44  2  0  0  0  0 
 43 45  1  0  0  0  0 
 45 46  1  0  0  0  0 
 45 47  1  0  0  0  0 
 45 48  1  0  0  0  0 
 48 49  1  0  0  0  0 
 49 50  2  0  0  0  0 
 49 51  1  0  0  0  0 
 51 52  1  0  0  0  0 
 49 53  1  0  0  0  0 
 53 54  1  0  0  0  0 
 42 55  1  1  0  0  0 
 55 56  1  0  0  0  0 
 32 57  1  6  0  0  0 
 57 58  1  0  0  0  0 
 31 59  1  1  0  0  0 
 21 60  1  0  0  0  0 
 17 60  1  0  0  0  0 
M  END
> <Rank>
14

> <Priority_score>
0.044000000000000004

> <Reaction_type>
cyclization to furan

> <Parent_ID>
56

> <Parent_InChI>
InChI=1S/C22H30FO8P/c1-12-8-16-15-5-4-13-9-14(24)6-7-19(13,2)21(15,23)17(25)10-20(16,3)22(12,27)18(26)11-31-32(28,29)30/h6-7,9,12,15-17,25,27H,4-5,8,10-11H2,1-3H3,(H2,28,29,30)

> <Parent_SMILES>
C[C@H]1C[C@H]2[C@@H]3CCC4=CC(=O)C=C[C@]4(C)[C@@]3(F)[C@@H](O)C[C@]2(C)[C@@]1(O)C(=O)COP(=O)(O)O

$$$$
Molecule 56_metabolite 15
  CDK     0516241031

 60 63  0  0  0  0  0  0  0  0999 V2000
    5.3176   -3.3205    0.0000 C   0  0  0  0  0  0  0  0  0  0  0  0
    5.0039   -4.7873    0.0000 H   0  0  0  0  0  0  0  0  0  0  0  0
    6.1140   -2.0494    0.0000 H   0  0  0  0  0  0  0  0  0  0  0  0
    6.7077   -3.8841    0.0000 H   0  0  0  0  0  0  0  0  0  0  0  0
    3.8478   -1.9938    0.0000 C   0  0  1  0  0  0  0  0  0  0  0  0
    4.9730   -1.0019    0.0000 H   0  0  0  0  0  0  0  0  0  0  0  0
    2.9978   -3.1838    0.0000 C   0  0  0  0  0  0  0  0  0  0  0  0
    2.3883   -4.5544    0.0000 H   0  0  0  0  0  0  0  0  0  0  0  0
    4.3000   -3.9283    0.0000 H   0  0  0  0  0  0  0  0  0  0  0  0
    1.5678   -2.7138    0.0000 C   0  0  1  0  0  0  0  0  0  0  0  0
    0.3632   -1.8199    0.0000 H   0  0  0  0  0  0  0  0  0  0  0  0
    0.2978   -3.4338    0.0000 C   0  0  2  0  0  0  0  0  0  0  0  0
    1.5939   -4.1889    0.0000 H   0  0  0  0  0  0  0  0  0  0  0  0
    0.2978   -4.9638    0.0000 C   0  0  0  0  0  0  0  0  0  0  0  0
    1.5930   -5.7204    0.0000 H   0  0  0  0  0  0  0  0  0  0  0  0
   -1.0322   -5.7138    0.0000 C   0  0  0  0  0  0  0  0  0  0  0  0
   -1.0396   -7.2138    0.0000 H   0  0  0  0  0  0  0  0  0  0  0  0
   -2.3322   -4.9638    0.0000 C   0  0  0  0  0  0  0  0  0  0  0  0
   -3.6022   -5.7138    0.0000 C   0  0  0  0  0  0  0  0  0  0  0  0
   -3.5921   -7.2138    0.0000 H   0  0  0  0  0  0  0  0  0  0  0  0
   -4.9122   -4.9638    0.0000 C   0  0  0  0  0  0  0  0  0  0  0  0
   -6.2099   -5.7162    0.0000 O   0  0  0  0  0  0  0  0  0  0  0  0
   -4.9122   -3.4338    0.0000 C   0  0  0  0  0  0  0  0  0  0  0  0
   -6.2033   -2.6702    0.0000 H   0  0  0  0  0  0  0  0  0  0  0  0
   -3.6022   -2.7138    0.0000 C   0  0  0  0  0  0  0  0  0  0  0  0
   -3.5923   -1.2138    0.0000 H   0  0  0  0  0  0  0  0  0  0  0  0
   -2.3322   -3.4338    0.0000 C   0  0  1  0  0  0  0  0  0  0  0  0
   -1.8122   -2.0268    0.0000 C   0  0  0  0  0  0  0  0  0  0  0  0
   -0.3337   -1.7737    0.0000 H   0  0  0  0  0  0  0  0  0  0  0  0
   -4.2327   -1.5876    0.0000 H   0  0  0  0  0  0  0  0  0  0  0  0
   -1.7976    0.9131    0.0000 H   0  0  0  0  0  0  0  0  0  0  0  0
   -1.0322   -2.7138    0.0000 C   0  0  1  0  0  0  0  0  0  0  0  0
   -1.0322   -1.2438    0.0000 C   0  0  2  0  0  0  0  0  0  0  0  0
   -1.5411    0.1672    0.0000 H   0  0  0  0  0  0  0  0  0  0  0  0
    0.2978   -0.4838    0.0000 C   0  0  0  0  0  0  0  0  0  0  0  0
    1.2756    0.6537    0.0000 H   0  0  0  0  0  0  0  0  0  0  0  0
   -0.6570    0.6731    0.0000 H   0  0  0  0  0  0  0  0  0  0  0  0
    1.5678   -1.2438    0.0000 C   0  0  1  0  0  0  0  0  0  0  0  0
    1.8399    1.2011    0.0000 C   0  0  0  0  0  0  0  0  0  0  0  0
    0.6318    2.0902    0.0000 H   0  0  0  0  0  0  0  0  0  0  0  0
    2.5057    2.5452    0.0000 H   0  0  0  0  0  0  0  0  0  0  0  0
    3.2792    0.7788    0.0000 H   0  0  0  0  0  0  0  0  0  0  0  0
    2.9978   -0.7738    0.0000 C   0  0  1  0  0  0  0  0  0  0  0  0
    5.1429    0.4304    0.0000 C   0  0  0  0  0  0  0  0  0  0  0  0
    6.4328   -0.3352    0.0000 O   0  0  0  0  0  0  0  0  0  0  0  0
    5.1610    1.9303    0.0000 C   0  0  0  0  0  0  0  0  0  0  0  0
    5.6910    3.3335    0.0000 H   0  0  0  0  0  0  0  0  0  0  0  0
    6.6349    1.6520    0.0000 H   0  0  0  0  0  0  0  0  0  0  0  0
    3.8711    2.6959    0.0000 O   0  0  0  0  0  0  0  0  0  0  0  0
    3.8892    4.1958    0.0000 P   0  0  0  0  0  0  0  0  0  0  0  0
    3.3932    5.6114    0.0000 O   0  0  0  0  0  0  0  0  0  0  0  0
    5.1972    4.9301    0.0000 O   0  0  0  0  0  0  0  0  0  0  0  0
    5.2153    6.4300    0.0000 H   0  0  0  0  0  0  0  0  0  0  0  0
    2.4089    3.9532    0.0000 O   0  0  0  0  0  0  0  0  0  0  0  0
    1.4587    5.1138    0.0000 H   0  0  0  0  0  0  0  0  0  0  0  0
    2.3936    0.5991    0.0000 O   0  0  0  0  0  0  0  0  0  0  0  0
    3.2805    1.8088    0.0000 H   0  0  0  0  0  0  0  0  0  0  0  0
   -2.5322   -1.2416    0.0000 O   0  0  0  0  0  0  0  0  0  0  0  0
   -3.2803    0.0586    0.0000 H   0  0  0  0  0  0  0  0  0  0  0  0
   -2.3245   -1.9523    0.0000 F   0  0  0  0  0  0  0  0  0  0  0  0
  1  2  1  0  0  0  0 
  1  3  1  0  0  0  0 
  1  4  1  0  0  0  0 
  5  1  1  1  0  0  0 
  5  6  1  6  0  0  0 
  5  7  1  0  0  0  0 
  7  8  1  0  0  0  0 
  7  9  1  0  0  0  0 
  7 10  1  0  0  0  0 
 10 11  1  6  0  0  0 
 10 12  1  0  0  0  0 
 12 13  1  1  0  0  0 
 12 14  1  0  0  0  0 
 14 15  1  0  0  0  0 
 14 16  2  0  0  0  0 
 16 17  1  0  0  0  0 
 16 18  1  0  0  0  0 
 18 19  2  0  0  0  0 
 19 20  1  0  0  0  0 
 19 21  1  0  0  0  0 
 21 22  2  0  0  0  0 
 21 23  1  0  0  0  0 
 23 24  1  0  0  0  0 
 23 25  2  0  0  0  0 
 25 26  1  0  0  0  0 
 25 27  1  0  0  0  0 
 27 18  1  1  0  0  0 
 27 28  1  0  0  0  0 
 28 29  1  0  0  0  0 
 28 30  1  0  0  0  0 
 28 31  1  0  0  0  0 
 27 32  1  0  0  0  0 
 12 32  1  0  0  0  0 
 32 33  1  0  0  0  0 
 33 34  1  6  0  0  0 
 33 35  1  0  0  0  0 
 35 36  1  0  0  0  0 
 35 37  1  0  0  0  0 
 35 38  1  0  0  0  0 
 10 38  1  0  0  0  0 
 38 39  1  1  0  0  0 
 39 40  1  0  0  0  0 
 39 41  1  0  0  0  0 
 39 42  1  0  0  0  0 
 38 43  1  0  0  0  0 
  5 43  1  0  0  0  0 
 43 44  1  1  0  0  0 
 44 45  2  0  0  0  0 
 44 46  1  0  0  0  0 
 46 47  1  0  0  0  0 
 46 48  1  0  0  0  0 
 46 49  1  0  0  0  0 
 49 50  1  0  0  0  0 
 50 51  2  0  0  0  0 
 50 52  1  0  0  0  0 
 52 53  1  0  0  0  0 
 50 54  1  0  0  0  0 
 54 55  1  0  0  0  0 
 43 56  1  6  0  0  0 
 56 57  1  0  0  0  0 
 33 58  1  1  0  0  0 
 58 59  1  0  0  0  0 
 32 60  1  6  0  0  0 
M  END
> <Rank>
14

> <Priority_score>
0.044000000000000004

> <Reaction_type>
alkyl dehydrogenation

> <Parent_ID>
56

> <Parent_InChI>
InChI=1S/C22H30FO8P/c1-12-8-16-15-5-4-13-9-14(24)6-7-19(13,2)21(15,23)17(25)10-20(16,3)22(12,27)18(26)11-31-32(28,29)30/h6-7,9,12,15-17,25,27H,4-5,8,10-11H2,1-3H3,(H2,28,29,30)

> <Parent_SMILES>
C[C@H]1C[C@H]2[C@@H]3CCC4=CC(=O)C=C[C@]4(C)[C@@]3(F)[C@@H](O)C[C@]2(C)[C@@]1(O)C(=O)COP(=O)(O)O

$$$$
Molecule 56_metabolite 16
  CDK     0516241031

 63 66  0  0  0  0  0  0  0  0999 V2000
    8.8417   -4.1179    0.0000 C   0  0  0  0  0  0  0  0  0  0  0  0
    8.5281   -5.5847    0.0000 H   0  0  0  0  0  0  0  0  0  0  0  0
    9.6382   -2.8468    0.0000 H   0  0  0  0  0  0  0  0  0  0  0  0
   10.2318   -4.6815    0.0000 H   0  0  0  0  0  0  0  0  0  0  0  0
    7.3719   -2.7912    0.0000 C   0  0  1  0  0  0  0  0  0  0  0  0
    8.4971   -1.7993    0.0000 H   0  0  0  0  0  0  0  0  0  0  0  0
    6.5219   -3.9812    0.0000 C   0  0  0  0  0  0  0  0  0  0  0  0
    5.9124   -5.3518    0.0000 H   0  0  0  0  0  0  0  0  0  0  0  0
    7.8241   -4.7257    0.0000 H   0  0  0  0  0  0  0  0  0  0  0  0
    5.0919   -3.5112    0.0000 C   0  0  1  0  0  0  0  0  0  0  0  0
    3.8873   -2.6173    0.0000 H   0  0  0  0  0  0  0  0  0  0  0  0
    3.8219   -4.2312    0.0000 C   0  0  2  0  0  0  0  0  0  0  0  0
    2.5258   -4.9863    0.0000 H   0  0  0  0  0  0  0  0  0  0  0  0
    3.8219   -5.7612    0.0000 C   0  0  0  0  0  0  0  0  0  0  0  0
    4.3254   -7.1742    0.0000 H   0  0  0  0  0  0  0  0  0  0  0  0
    5.3000   -5.5057    0.0000 H   0  0  0  0  0  0  0  0  0  0  0  0
    2.4919   -6.5112    0.0000 C   0  0  0  0  0  0  0  0  0  0  0  0
    1.5241   -7.6572    0.0000 H   0  0  0  0  0  0  0  0  0  0  0  0
    3.4484   -7.6667    0.0000 H   0  0  0  0  0  0  0  0  0  0  0  0
    1.1919   -5.7612    0.0000 C   0  0  0  0  0  0  0  0  0  0  0  0
   -0.0781   -6.5112    0.0000 C   0  0  0  0  0  0  0  0  0  0  0  0
   -0.0680   -8.0112    0.0000 H   0  0  0  0  0  0  0  0  0  0  0  0
   -1.3881   -5.7612    0.0000 C   0  0  0  0  0  0  0  0  0  0  0  0
   -2.6858   -6.5136    0.0000 O   0  0  0  0  0  0  0  0  0  0  0  0
   -1.3881   -4.2312    0.0000 C   0  0  0  0  0  0  0  0  0  0  0  0
   -2.6792   -3.4676    0.0000 H   0  0  0  0  0  0  0  0  0  0  0  0
   -0.0781   -3.5112    0.0000 C   0  0  0  0  0  0  0  0  0  0  0  0
   -0.0682   -2.0112    0.0000 H   0  0  0  0  0  0  0  0  0  0  0  0
    1.1919   -4.2312    0.0000 C   0  0  1  0  0  0  0  0  0  0  0  0
    1.6311   -1.8107    0.0000 C   0  0  0  0  0  0  0  0  0  0  0  0
    3.0432   -1.3047    0.0000 H   0  0  0  0  0  0  0  0  0  0  0  0
   -0.8288   -1.7985    0.0000 H   0  0  0  0  0  0  0  0  0  0  0  0
    1.1350    1.0871    0.0000 H   0  0  0  0  0  0  0  0  0  0  0  0
    2.4919   -3.5112    0.0000 C   0  0  1  0  0  0  0  0  0  0  0  0
    2.4919   -2.0412    0.0000 C   0  0  2  0  0  0  0  0  0  0  0  0
    1.9831   -0.6301    0.0000 H   0  0  0  0  0  0  0  0  0  0  0  0
    3.8219   -1.2812    0.0000 C   0  0  0  0  0  0  0  0  0  0  0  0
    4.7997   -0.1437    0.0000 H   0  0  0  0  0  0  0  0  0  0  0  0
    2.8672   -0.1243    0.0000 H   0  0  0  0  0  0  0  0  0  0  0  0
    5.0919   -2.0412    0.0000 C   0  0  1  0  0  0  0  0  0  0  0  0
    5.3641    0.4037    0.0000 C   0  0  0  0  0  0  0  0  0  0  0  0
    4.1560    1.2928    0.0000 H   0  0  0  0  0  0  0  0  0  0  0  0
    6.0299    1.7478    0.0000 H   0  0  0  0  0  0  0  0  0  0  0  0
    6.8034   -0.0186    0.0000 H   0  0  0  0  0  0  0  0  0  0  0  0
    6.5219   -1.5712    0.0000 C   0  0  1  0  0  0  0  0  0  0  0  0
    8.2485   -0.6020    0.0000 C   0  0  0  0  0  0  0  0  0  0  0  0
    9.5384   -1.3676    0.0000 O   0  0  0  0  0  0  0  0  0  0  0  0
    8.2724    1.3779    0.0000 C   0  0  0  0  0  0  0  0  0  0  0  0
    8.8024    2.7811    0.0000 H   0  0  0  0  0  0  0  0  0  0  0  0
    9.7463    1.0996    0.0000 O   0  0  0  0  0  0  0  0  0  0  0  0
   10.7243    2.2370    0.0000 H   0  0  0  0  0  0  0  0  0  0  0  0
    6.9825    2.1435    0.0000 O   0  0  0  0  0  0  0  0  0  0  0  0
    7.0006    3.6434    0.0000 P   0  0  0  0  0  0  0  0  0  0  0  0
    6.5046    5.0590    0.0000 O   0  0  0  0  0  0  0  0  0  0  0  0
    8.3086    4.3777    0.0000 O   0  0  0  0  0  0  0  0  0  0  0  0
    8.3267    5.8776    0.0000 H   0  0  0  0  0  0  0  0  0  0  0  0
    5.5203    3.4008    0.0000 O   0  0  0  0  0  0  0  0  0  0  0  0
    4.5701    4.5614    0.0000 H   0  0  0  0  0  0  0  0  0  0  0  0
    5.9178   -0.1983    0.0000 O   0  0  0  0  0  0  0  0  0  0  0  0
    6.8047    1.0114    0.0000 H   0  0  0  0  0  0  0  0  0  0  0  0
    0.9919   -2.0390    0.0000 O   0  0  0  0  0  0  0  0  0  0  0  0
    0.2438   -0.7388    0.0000 H   0  0  0  0  0  0  0  0  0  0  0  0
    0.7861   -2.5060    0.0000 F   0  0  0  0  0  0  0  0  0  0  0  0
  1  2  1  0  0  0  0 
  1  3  1  0  0  0  0 
  1  4  1  0  0  0  0 
  5  1  1  1  0  0  0 
  5  6  1  6  0  0  0 
  5  7  1  0  0  0  0 
  7  8  1  0  0  0  0 
  7  9  1  0  0  0  0 
  7 10  1  0  0  0  0 
 10 11  1  6  0  0  0 
 10 12  1  0  0  0  0 
 12 13  1  1  0  0  0 
 12 14  1  0  0  0  0 
 14 15  1  0  0  0  0 
 14 16  1  0  0  0  0 
 14 17  1  0  0  0  0 
 17 18  1  0  0  0  0 
 17 19  1  0  0  0  0 
 17 20  1  0  0  0  0 
 20 21  2  0  0  0  0 
 21 22  1  0  0  0  0 
 21 23  1  0  0  0  0 
 23 24  2  0  0  0  0 
 23 25  1  0  0  0  0 
 25 26  1  0  0  0  0 
 25 27  2  0  0  0  0 
 27 28  1  0  0  0  0 
 27 29  1  0  0  0  0 
 29 20  1  1  0  0  0 
 29 30  1  0  0  0  0 
 30 31  1  0  0  0  0 
 30 32  1  0  0  0  0 
 30 33  1  0  0  0  0 
 29 34  1  0  0  0  0 
 12 34  1  0  0  0  0 
 34 35  1  0  0  0  0 
 35 36  1  6  0  0  0 
 35 37  1  0  0  0  0 
 37 38  1  0  0  0  0 
 37 39  1  0  0  0  0 
 37 40  1  0  0  0  0 
 10 40  1  0  0  0  0 
 40 41  1  1  0  0  0 
 41 42  1  0  0  0  0 
 41 43  1  0  0  0  0 
 41 44  1  0  0  0  0 
 40 45  1  0  0  0  0 
  5 45  1  0  0  0  0 
 45 46  1  1  0  0  0 
 46 47  2  0  0  0  0 
 46 48  1  0  0  0  0 
 48 49  1  0  0  0  0 
 48 50  1  0  0  0  0 
 50 51  1  0  0  0  0 
 48 52  1  0  0  0  0 
 52 53  1  0  0  0  0 
 53 54  2  0  0  0  0 
 53 55  1  0  0  0  0 
 55 56  1  0  0  0  0 
 53 57  1  0  0  0  0 
 57 58  1  0  0  0  0 
 45 59  1  6  0  0  0 
 59 60  1  0  0  0  0 
 35 61  1  1  0  0  0 
 61 62  1  0  0  0  0 
 34 63  1  6  0  0  0 
M  END
> <Rank>
16

> <Priority_score>
0.032

> <Reaction_type>
aliphatic hydroxylation

> <Parent_ID>
56

> <Parent_InChI>
InChI=1S/C22H30FO8P/c1-12-8-16-15-5-4-13-9-14(24)6-7-19(13,2)21(15,23)17(25)10-20(16,3)22(12,27)18(26)11-31-32(28,29)30/h6-7,9,12,15-17,25,27H,4-5,8,10-11H2,1-3H3,(H2,28,29,30)

> <Parent_SMILES>
C[C@H]1C[C@H]2[C@@H]3CCC4=CC(=O)C=C[C@]4(C)[C@@]3(F)[C@@H](O)C[C@]2(C)[C@@]1(O)C(=O)COP(=O)(O)O

$$$$
Molecule 56_metabolite 17
  CDK     0516241031

 64 67  0  0  0  0  0  0  0  0999 V2000
   12.5576    7.1175    0.0000 C   0  0  0  0  0  0  0  0  0  0  0  0
   13.6951    8.0954    0.0000 H   0  0  0  0  0  0  0  0  0  0  0  0
   11.8233    5.8095    0.0000 H   0  0  0  0  0  0  0  0  0  0  0  0
   13.7182    6.1671    0.0000 H   0  0  0  0  0  0  0  0  0  0  0  0
    9.7831    8.0898    0.0000 C   0  0  1  0  0  0  0  0  0  0  0  0
    9.4513    6.6270    0.0000 H   0  0  0  0  0  0  0  0  0  0  0  0
   10.4206    9.4059    0.0000 C   0  0  0  0  0  0  0  0  0  0  0  0
   11.3318   10.5974    0.0000 H   0  0  0  0  0  0  0  0  0  0  0  0
   11.6978    8.6194    0.0000 H   0  0  0  0  0  0  0  0  0  0  0  0
    9.3231   10.4361    0.0000 C   0  0  1  0  0  0  0  0  0  0  0  0
    7.9615   11.0654    0.0000 H   0  0  0  0  0  0  0  0  0  0  0  0
    9.3469   11.8958    0.0000 C   0  0  2  0  0  0  0  0  0  0  0  0
    9.4024   13.8751    0.0000 H   0  0  0  0  0  0  0  0  0  0  0  0
   10.6900   12.6286    0.0000 C   0  0  0  0  0  0  0  0  0  0  0  0
   12.1715   12.8634    0.0000 H   0  0  0  0  0  0  0  0  0  0  0  0
   11.1736   11.2088    0.0000 H   0  0  0  0  0  0  0  0  0  0  0  0
   10.7114   14.1554    0.0000 C   0  0  0  0  0  0  0  0  0  0  0  0
    9.7154   13.0337    0.0000 H   0  0  0  0  0  0  0  0  0  0  0  0
   12.1838   13.8691    0.0000 H   0  0  0  0  0  0  0  0  0  0  0  0
    9.4303   14.9374    0.0000 C   0  0  0  0  0  0  0  0  0  0  0  0
    8.1613   15.7371    0.0000 H   0  0  0  0  0  0  0  0  0  0  0  0
    9.4804   16.4114    0.0000 C   0  0  0  0  0  0  0  0  0  0  0  0
   10.0353   17.8050    0.0000 H   0  0  0  0  0  0  0  0  0  0  0  0
   10.9486   16.1040    0.0000 H   0  0  0  0  0  0  0  0  0  0  0  0
    8.1946   17.2022    0.0000 C   0  0  0  0  0  0  0  0  0  0  0  0
    8.2336   18.7017    0.0000 O   0  0  0  0  0  0  0  0  0  0  0  0
    6.8515   16.4694    0.0000 C   0  0  0  0  0  0  0  0  0  0  0  0
    5.5628   17.2370    0.0000 H   0  0  0  0  0  0  0  0  0  0  0  0
    6.8469   14.9746    0.0000 C   0  0  0  0  0  0  0  0  0  0  0  0
    5.3654   14.7400    0.0000 H   0  0  0  0  0  0  0  0  0  0  0  0
    8.0872   14.2046    0.0000 C   0  0  1  0  0  0  0  0  0  0  0  0
    5.1827   13.7496    0.0000 C   0  0  0  0  0  0  0  0  0  0  0  0
    4.6427   12.3501    0.0000 H   0  0  0  0  0  0  0  0  0  0  0  0
    5.2206   15.7292    0.0000 H   0  0  0  0  0  0  0  0  0  0  0  0
    2.7687   14.2231    0.0000 H   0  0  0  0  0  0  0  0  0  0  0  0
    8.0778   12.7185    0.0000 C   0  0  1  0  0  0  0  0  0  0  0  0
    6.7874   12.0145    0.0000 C   0  0  2  0  0  0  0  0  0  0  0  0
    5.3050   11.7853    0.0000 H   0  0  0  0  0  0  0  0  0  0  0  0
    6.7573   10.4829    0.0000 C   0  0  0  0  0  0  0  0  0  0  0  0
    6.2271    9.0797    0.0000 H   0  0  0  0  0  0  0  0  0  0  0  0
    5.2844   10.7669    0.0000 H   0  0  0  0  0  0  0  0  0  0  0  0
    8.0327    9.7321    0.0000 C   0  0  1  0  0  0  0  0  0  0  0  0
    5.6235    8.0471    0.0000 C   0  0  0  0  0  0  0  0  0  0  0  0
    5.7950    6.0745    0.0000 H   0  0  0  0  0  0  0  0  0  0  0  0
    4.1744    7.6596    0.0000 H   0  0  0  0  0  0  0  0  0  0  0  0
    4.9903    9.4069    0.0000 H   0  0  0  0  0  0  0  0  0  0  0  0
    8.3050    8.2516    0.0000 C   0  0  1  0  0  0  0  0  0  0  0  0
    8.2695    5.3119    0.0000 C   0  0  0  0  0  0  0  0  0  0  0  0
    6.9615    4.5776    0.0000 O   0  0  0  0  0  0  0  0  0  0  0  0
    9.5594    4.5462    0.0000 C   0  0  0  0  0  0  0  0  0  0  0  0
   11.0334    4.2680    0.0000 H   0  0  0  0  0  0  0  0  0  0  0  0
   10.0894    5.9495    0.0000 H   0  0  0  0  0  0  0  0  0  0  0  0
    9.5413    3.0463    0.0000 O   0  0  0  0  0  0  0  0  0  0  0  0
   10.8312    2.2807    0.0000 P   0  0  0  0  0  0  0  0  0  0  0  0
   11.7815    1.1201    0.0000 O   0  0  0  0  0  0  0  0  0  0  0  0
   12.1392    3.0150    0.0000 O   0  0  0  0  0  0  0  0  0  0  0  0
   13.4291    2.2494    0.0000 H   0  0  0  0  0  0  0  0  0  0  0  0
    9.8532    1.1434    0.0000 O   0  0  0  0  0  0  0  0  0  0  0  0
   10.3492   -0.2722    0.0000 H   0  0  0  0  0  0  0  0  0  0  0  0
    6.8104    8.1244    0.0000 O   0  0  0  0  0  0  0  0  0  0  0  0
    6.1733    6.7664    0.0000 H   0  0  0  0  0  0  0  0  0  0  0  0
    5.8365   13.7512    0.0000 O   0  0  0  0  0  0  0  0  0  0  0  0
    4.3369   13.7851    0.0000 H   0  0  0  0  0  0  0  0  0  0  0  0
    7.1313   13.8821    0.0000 F   0  0  0  0  0  0  0  0  0  0  0  0
  1  2  1  0  0  0  0 
  1  3  1  0  0  0  0 
  1  4  1  0  0  0  0 
  5  1  1  6  0  0  0 
  5  6  1  1  0  0  0 
  5  7  1  0  0  0  0 
  7  8  1  0  0  0  0 
  7  9  1  0  0  0  0 
  7 10  1  0  0  0  0 
 10 11  1  1  0  0  0 
 10 12  1  0  0  0  0 
 12 13  1  6  0  0  0 
 12 14  1  0  0  0  0 
 14 15  1  0  0  0  0 
 14 16  1  0  0  0  0 
 14 17  1  0  0  0  0 
 17 18  1  0  0  0  0 
 17 19  1  0  0  0  0 
 17 20  1  0  0  0  0 
 20 21  1  0  0  0  0 
 20 22  1  0  0  0  0 
 22 23  1  0  0  0  0 
 22 24  1  0  0  0  0 
 22 25  1  0  0  0  0 
 25 26  2  0  0  0  0 
 25 27  1  0  0  0  0 
 27 28  1  0  0  0  0 
 27 29  2  0  0  0  0 
 29 30  1  0  0  0  0 
 31 29  1  1  0  0  0 
 20 31  1  0  0  0  0 
 31 32  1  0  0  0  0 
 32 33  1  0  0  0  0 
 32 34  1  0  0  0  0 
 32 35  1  0  0  0  0 
 31 36  1  0  0  0  0 
 12 36  1  0  0  0  0 
 36 37  1  0  0  0  0 
 37 38  1  1  0  0  0 
 37 39  1  0  0  0  0 
 39 40  1  0  0  0  0 
 39 41  1  0  0  0  0 
 39 42  1  0  0  0  0 
 10 42  1  0  0  0  0 
 42 43  1  6  0  0  0 
 43 44  1  0  0  0  0 
 43 45  1  0  0  0  0 
 43 46  1  0  0  0  0 
 42 47  1  0  0  0  0 
  5 47  1  0  0  0  0 
 47 48  1  6  0  0  0 
 48 49  2  0  0  0  0 
 48 50  1  0  0  0  0 
 50 51  1  0  0  0  0 
 50 52  1  0  0  0  0 
 50 53  1  0  0  0  0 
 53 54  1  0  0  0  0 
 54 55  2  0  0  0  0 
 54 56  1  0  0  0  0 
 56 57  1  0  0  0  0 
 54 58  1  0  0  0  0 
 58 59  1  0  0  0  0 
 47 60  1  1  0  0  0 
 60 61  1  0  0  0  0 
 37 62  1  6  0  0  0 
 62 63  1  0  0  0  0 
 36 64  1  1  0  0  0 
M  END
> <Rank>
17

> <Priority_score>
0.028

> <Reaction_type>
double_bond_reduction

> <Parent_ID>
56

> <Parent_InChI>
InChI=1S/C22H30FO8P/c1-12-8-16-15-5-4-13-9-14(24)6-7-19(13,2)21(15,23)17(25)10-20(16,3)22(12,27)18(26)11-31-32(28,29)30/h6-7,9,12,15-17,25,27H,4-5,8,10-11H2,1-3H3,(H2,28,29,30)

> <Parent_SMILES>
C[C@H]1C[C@H]2[C@@H]3CCC4=CC(=O)C=C[C@]4(C)[C@@]3(F)[C@@H](O)C[C@]2(C)[C@@]1(O)C(=O)COP(=O)(O)O

$$$$
Molecule 56_metabolite 18
  CDK     0516241031

 64 67  0  0  0  0  0  0  0  0999 V2000
   14.9067    9.0573    0.0000 C   0  0  0  0  0  0  0  0  0  0  0  0
   16.0441   10.0352    0.0000 H   0  0  0  0  0  0  0  0  0  0  0  0
   14.1723    7.7494    0.0000 H   0  0  0  0  0  0  0  0  0  0  0  0
   16.0672    8.1070    0.0000 H   0  0  0  0  0  0  0  0  0  0  0  0
   12.1321   10.0296    0.0000 C   0  0  1  0  0  0  0  0  0  0  0  0
   11.8003    8.5668    0.0000 H   0  0  0  0  0  0  0  0  0  0  0  0
   12.7697   11.3458    0.0000 C   0  0  0  0  0  0  0  0  0  0  0  0
   13.6809   12.5373    0.0000 H   0  0  0  0  0  0  0  0  0  0  0  0
   14.0469   10.5592    0.0000 H   0  0  0  0  0  0  0  0  0  0  0  0
   11.6722   12.3760    0.0000 C   0  0  1  0  0  0  0  0  0  0  0  0
   10.3106   13.0053    0.0000 H   0  0  0  0  0  0  0  0  0  0  0  0
   11.6959   13.8357    0.0000 C   0  0  2  0  0  0  0  0  0  0  0  0
   11.7380   15.3351    0.0000 H   0  0  0  0  0  0  0  0  0  0  0  0
   13.0390   14.5685    0.0000 C   0  0  0  0  0  0  0  0  0  0  0  0
   14.5205   14.8032    0.0000 H   0  0  0  0  0  0  0  0  0  0  0  0
   13.5227   13.1486    0.0000 H   0  0  0  0  0  0  0  0  0  0  0  0
   13.0604   16.0952    0.0000 C   0  0  0  0  0  0  0  0  0  0  0  0
   13.6029   17.4937    0.0000 H   0  0  0  0  0  0  0  0  0  0  0  0
   14.5328   15.8089    0.0000 H   0  0  0  0  0  0  0  0  0  0  0  0
   11.7794   16.8772    0.0000 C   0  0  0  0  0  0  0  0  0  0  0  0
   11.8295   18.3512    0.0000 C   0  0  0  0  0  0  0  0  0  0  0  0
   13.1511   19.0608    0.0000 H   0  0  0  0  0  0  0  0  0  0  0  0
   10.5437   19.1420    0.0000 C   0  0  0  0  0  0  0  0  0  0  0  0
   10.5826   20.6415    0.0000 O   0  0  0  0  0  0  0  0  0  0  0  0
    9.2006   18.4092    0.0000 C   0  0  0  0  0  0  0  0  0  0  0  0
    7.7208   18.1637    0.0000 H   0  0  0  0  0  0  0  0  0  0  0  0
    8.7118   19.8273    0.0000 H   0  0  0  0  0  0  0  0  0  0  0  0
    9.1960   16.9144    0.0000 C   0  0  0  0  0  0  0  0  0  0  0  0
    8.4774   15.0694    0.0000 H   0  0  0  0  0  0  0  0  0  0  0  0
    7.7222   17.1936    0.0000 H   0  0  0  0  0  0  0  0  0  0  0  0
   10.4363   16.1444    0.0000 C   0  0  1  0  0  0  0  0  0  0  0  0
    7.6548   15.1919    0.0000 C   0  0  0  0  0  0  0  0  0  0  0  0
    5.4393   17.1245    0.0000 H   0  0  0  0  0  0  0  0  0  0  0  0
    8.3798   13.8788    0.0000 H   0  0  0  0  0  0  0  0  0  0  0  0
    5.3669   13.3456    0.0000 H   0  0  0  0  0  0  0  0  0  0  0  0
   10.4269   14.6583    0.0000 C   0  0  1  0  0  0  0  0  0  0  0  0
    9.1365   13.9543    0.0000 C   0  0  2  0  0  0  0  0  0  0  0  0
    6.7053   13.5785    0.0000 H   0  0  0  0  0  0  0  0  0  0  0  0
    9.1063   12.4227    0.0000 C   0  0  0  0  0  0  0  0  0  0  0  0
    8.5761   11.0196    0.0000 H   0  0  0  0  0  0  0  0  0  0  0  0
    7.6334   12.7067    0.0000 H   0  0  0  0  0  0  0  0  0  0  0  0
   10.3817   11.6719    0.0000 C   0  0  1  0  0  0  0  0  0  0  0  0
    7.9725    9.9869    0.0000 C   0  0  0  0  0  0  0  0  0  0  0  0
    8.1440    8.0143    0.0000 H   0  0  0  0  0  0  0  0  0  0  0  0
    6.5234    9.5995    0.0000 H   0  0  0  0  0  0  0  0  0  0  0  0
    7.3393   11.3467    0.0000 H   0  0  0  0  0  0  0  0  0  0  0  0
   10.6541   10.1915    0.0000 C   0  0  1  0  0  0  0  0  0  0  0  0
   10.6186    7.2517    0.0000 C   0  0  0  0  0  0  0  0  0  0  0  0
    9.3106    6.5174    0.0000 O   0  0  0  0  0  0  0  0  0  0  0  0
   11.9085    6.4861    0.0000 C   0  0  0  0  0  0  0  0  0  0  0  0
   13.3824    6.2078    0.0000 H   0  0  0  0  0  0  0  0  0  0  0  0
   12.4385    7.8893    0.0000 H   0  0  0  0  0  0  0  0  0  0  0  0
   11.8904    4.9862    0.0000 O   0  0  0  0  0  0  0  0  0  0  0  0
   13.1803    4.2206    0.0000 P   0  0  0  0  0  0  0  0  0  0  0  0
   14.1305    3.0599    0.0000 O   0  0  0  0  0  0  0  0  0  0  0  0
   14.4883    4.9548    0.0000 O   0  0  0  0  0  0  0  0  0  0  0  0
   15.7782    4.1892    0.0000 H   0  0  0  0  0  0  0  0  0  0  0  0
   12.2023    3.0832    0.0000 O   0  0  0  0  0  0  0  0  0  0  0  0
   12.6983    1.6676    0.0000 H   0  0  0  0  0  0  0  0  0  0  0  0
    9.1595   10.0642    0.0000 O   0  0  0  0  0  0  0  0  0  0  0  0
    8.5224    8.7063    0.0000 H   0  0  0  0  0  0  0  0  0  0  0  0
    8.5016   15.8297    0.0000 O   0  0  0  0  0  0  0  0  0  0  0  0
    7.0306   16.1236    0.0000 H   0  0  0  0  0  0  0  0  0  0  0  0
    9.4803   15.8220    0.0000 F   0  0  0  0  0  0  0  0  0  0  0  0
  1  2  1  0  0  0  0 
  1  3  1  0  0  0  0 
  1  4  1  0  0  0  0 
  5  1  1  6  0  0  0 
  5  6  1  1  0  0  0 
  5  7  1  0  0  0  0 
  7  8  1  0  0  0  0 
  7  9  1  0  0  0  0 
  7 10  1  0  0  0  0 
 10 11  1  1  0  0  0 
 10 12  1  0  0  0  0 
 12 13  1  6  0  0  0 
 12 14  1  0  0  0  0 
 14 15  1  0  0  0  0 
 14 16  1  0  0  0  0 
 14 17  1  0  0  0  0 
 17 18  1  0  0  0  0 
 17 19  1  0  0  0  0 
 17 20  1  0  0  0  0 
 20 21  2  0  0  0  0 
 21 22  1  0  0  0  0 
 21 23  1  0  0  0  0 
 23 24  2  0  0  0  0 
 23 25  1  0  0  0  0 
 25 26  1  0  0  0  0 
 25 27  1  0  0  0  0 
 25 28  1  0  0  0  0 
 28 29  1  0  0  0  0 
 28 30  1  0  0  0  0 
 28 31  1  0  0  0  0 
 31 20  1  6  0  0  0 
 31 32  1  0  0  0  0 
 32 33  1  0  0  0  0 
 32 34  1  0  0  0  0 
 32 35  1  0  0  0  0 
 31 36  1  0  0  0  0 
 12 36  1  0  0  0  0 
 36 37  1  0  0  0  0 
 37 38  1  1  0  0  0 
 37 39  1  0  0  0  0 
 39 40  1  0  0  0  0 
 39 41  1  0  0  0  0 
 39 42  1  0  0  0  0 
 10 42  1  0  0  0  0 
 42 43  1  6  0  0  0 
 43 44  1  0  0  0  0 
 43 45  1  0  0  0  0 
 43 46  1  0  0  0  0 
 42 47  1  0  0  0  0 
  5 47  1  0  0  0  0 
 47 48  1  6  0  0  0 
 48 49  2  0  0  0  0 
 48 50  1  0  0  0  0 
 50 51  1  0  0  0  0 
 50 52  1  0  0  0  0 
 50 53  1  0  0  0  0 
 53 54  1  0  0  0  0 
 54 55  2  0  0  0  0 
 54 56  1  0  0  0  0 
 56 57  1  0  0  0  0 
 54 58  1  0  0  0  0 
 58 59  1  0  0  0  0 
 47 60  1  1  0  0  0 
 60 61  1  0  0  0  0 
 37 62  1  6  0  0  0 
 62 63  1  0  0  0  0 
 36 64  1  1  0  0  0 
M  END
> <Rank>
17

> <Priority_score>
0.028

> <Reaction_type>
double_bond_reduction

> <Parent_ID>
56

> <Parent_InChI>
InChI=1S/C22H30FO8P/c1-12-8-16-15-5-4-13-9-14(24)6-7-19(13,2)21(15,23)17(25)10-20(16,3)22(12,27)18(26)11-31-32(28,29)30/h6-7,9,12,15-17,25,27H,4-5,8,10-11H2,1-3H3,(H2,28,29,30)

> <Parent_SMILES>
C[C@H]1C[C@H]2[C@@H]3CCC4=CC(=O)C=C[C@]4(C)[C@@]3(F)[C@@H](O)C[C@]2(C)[C@@]1(O)C(=O)COP(=O)(O)O

$$$$
Molecule 56_metabolite 19
  CDK     0516241031

 62 65  0  0  0  0  0  0  0  0999 V2000
   14.9118   -3.0809    0.0000 C   0  0  0  0  0  0  0  0  0  0  0  0
   14.6796   -1.5990    0.0000 H   0  0  0  0  0  0  0  0  0  0  0  0
   16.3327   -5.6547    0.0000 H   0  0  0  0  0  0  0  0  0  0  0  0
   17.3713   -3.1280    0.0000 H   0  0  0  0  0  0  0  0  0  0  0  0
   12.6238   -4.9272    0.0000 C   0  0  2  0  0  0  0  0  0  0  0  0
   13.9108   -4.2381    0.0000 C   0  0  0  0  0  0  0  0  0  0  0  0
   13.9371   -2.7383    0.0000 H   0  0  0  0  0  0  0  0  0  0  0  0
   15.2030   -4.9895    0.0000 C   0  0  0  0  0  0  0  0  0  0  0  0
   16.5122   -4.2572    0.0000 H   0  0  0  0  0  0  0  0  0  0  0  0
   15.1661   -6.5190    0.0000 C   0  0  0  0  0  0  0  0  0  0  0  0
   16.4453   -7.3025    0.0000 O   0  0  0  0  0  0  0  0  0  0  0  0
   13.8384   -7.2372    0.0000 C   0  0  0  0  0  0  0  0  0  0  0  0
   13.7921   -8.7365    0.0000 H   0  0  0  0  0  0  0  0  0  0  0  0
   12.5869   -6.4568    0.0000 C   0  0  0  0  0  0  0  0  0  0  0  0
   11.2692   -7.1752    0.0000 C   0  0  0  0  0  0  0  0  0  0  0  0
   12.2090   -8.3442    0.0000 H   0  0  0  0  0  0  0  0  0  0  0  0
   10.2850   -8.3072    0.0000 H   0  0  0  0  0  0  0  0  0  0  0  0
    9.9576   -6.3933    0.0000 C   0  0  0  0  0  0  0  0  0  0  0  0
    9.4202   -7.7937    0.0000 H   0  0  0  0  0  0  0  0  0  0  0  0
   11.4415   -6.1736    0.0000 H   0  0  0  0  0  0  0  0  0  0  0  0
    9.9946   -4.8638    0.0000 C   0  0  1  0  0  0  0  0  0  0  0  0
   10.0131   -3.3639    0.0000 H   0  0  0  0  0  0  0  0  0  0  0  0
    8.7423   -4.1133    0.0000 C   0  0  2  0  0  0  0  0  0  0  0  0
    8.5579   -5.6019    0.0000 H   0  0  0  0  0  0  0  0  0  0  0  0
    7.3014   -4.5487    0.0000 C   0  0  0  0  0  0  0  0  0  0  0  0
    7.8776   -5.9336    0.0000 H   0  0  0  0  0  0  0  0  0  0  0  0
    5.9816   -5.2615    0.0000 H   0  0  0  0  0  0  0  0  0  0  0  0
    6.4804   -3.3385    0.0000 C   0  0  2  0  0  0  0  0  0  0  0  0
    5.3429   -4.3164    0.0000 H   0  0  0  0  0  0  0  0  0  0  0  0
    5.3794   -2.3197    0.0000 C   0  0  0  0  0  0  0  0  0  0  0  0
    6.1916   -1.0586    0.0000 O   0  0  0  0  0  0  0  0  0  0  0  0
    3.9466   -2.7638    0.0000 O   0  0  0  0  0  0  0  0  0  0  0  0
    2.8457   -1.7450    0.0000 H   0  0  0  0  0  0  0  0  0  0  0  0
    7.3595   -2.1394    0.0000 C   0  0  2  0  0  0  0  0  0  0  0  0
    4.8314   -0.6388    0.0000 C   0  0  0  0  0  0  0  0  0  0  0  0
    3.5234   -1.3730    0.0000 O   0  0  0  0  0  0  0  0  0  0  0  0
    4.8553    1.3411    0.0000 C   0  0  0  0  0  0  0  0  0  0  0  0
    4.3593    2.7567    0.0000 H   0  0  0  0  0  0  0  0  0  0  0  0
    3.3750    1.0985    0.0000 H   0  0  0  0  0  0  0  0  0  0  0  0
    6.1632    2.0754    0.0000 O   0  0  0  0  0  0  0  0  0  0  0  0
    6.1813    3.5753    0.0000 P   0  0  0  0  0  0  0  0  0  0  0  0
    6.7113    4.9785    0.0000 O   0  0  0  0  0  0  0  0  0  0  0  0
    4.8915    4.3409    0.0000 O   0  0  0  0  0  0  0  0  0  0  0  0
    4.9096    5.8408    0.0000 H   0  0  0  0  0  0  0  0  0  0  0  0
    7.6553    3.2970    0.0000 O   0  0  0  0  0  0  0  0  0  0  0  0
    8.6333    4.4343    0.0000 H   0  0  0  0  0  0  0  0  0  0  0  0
    8.7778   -2.6437    0.0000 C   0  0  2  0  0  0  0  0  0  0  0  0
    8.5231    0.2852    0.0000 C   0  0  0  0  0  0  0  0  0  0  0  0
    7.4631    1.3464    0.0000 H   0  0  0  0  0  0  0  0  0  0  0  0
    8.9122    1.7339    0.0000 H   0  0  0  0  0  0  0  0  0  0  0  0
   10.0174    0.1537    0.0000 H   0  0  0  0  0  0  0  0  0  0  0  0
   10.0658   -1.9146    0.0000 C   0  0  0  0  0  0  0  0  0  0  0  0
    9.1157   -0.7539    0.0000 H   0  0  0  0  0  0  0  0  0  0  0  0
   11.0481   -0.7811    0.0000 H   0  0  0  0  0  0  0  0  0  0  0  0
   11.3770   -2.7065    0.0000 C   0  0  1  0  0  0  0  0  0  0  0  0
   11.9198   -1.3081    0.0000 H   0  0  0  0  0  0  0  0  0  0  0  0
   11.3416   -4.1761    0.0000 C   0  0  2  0  0  0  0  0  0  0  0  0
   12.6519   -3.4459    0.0000 F   0  0  0  0  0  0  0  0  0  0  0  0
   12.8766   -2.7405    0.0000 O   0  0  0  0  0  0  0  0  0  0  0  0
   14.1546   -0.6385    0.0000 H   0  0  0  0  0  0  0  0  0  0  0  0
    7.9967   -0.7814    0.0000 O   0  0  0  0  0  0  0  0  0  0  0  0
    7.1392    0.4493    0.0000 H   0  0  0  0  0  0  0  0  0  0  0  0
  1  2  1  0  0  0  0 
  1  3  1  0  0  0  0 
  1  4  1  0  0  0  0 
  1  5  1  0  0  0  0 
  5  6  1  1  0  0  0 
  6  7  1  0  0  0  0 
  6  8  2  0  0  0  0 
  8  9  1  0  0  0  0 
  8 10  1  0  0  0  0 
 10 11  2  0  0  0  0 
 10 12  1  0  0  0  0 
 12 13  1  0  0  0  0 
 12 14  2  0  0  0  0 
  5 14  1  0  0  0  0 
 14 15  1  0  0  0  0 
 15 16  1  0  0  0  0 
 15 17  1  0  0  0  0 
 15 18  1  0  0  0  0 
 18 19  1  0  0  0  0 
 18 20  1  0  0  0  0 
 18 21  1  0  0  0  0 
 21 22  1  6  0  0  0 
 21 23  1  0  0  0  0 
 23 24  1  1  0  0  0 
 23 25  1  0  0  0  0 
 25 26  1  0  0  0  0 
 25 27  1  0  0  0  0 
 25 28  1  0  0  0  0 
 28 29  1  1  0  0  0 
 28 30  1  6  0  0  0 
 30 31  2  0  0  0  0 
 30 32  1  0  0  0  0 
 32 33  1  0  0  0  0 
 28 34  1  0  0  0  0 
 34 35  1  6  0  0  0 
 35 36  2  0  0  0  0 
 35 37  1  0  0  0  0 
 37 38  1  0  0  0  0 
 37 39  1  0  0  0  0 
 37 40  1  0  0  0  0 
 40 41  1  0  0  0  0 
 41 42  2  0  0  0  0 
 41 43  1  0  0  0  0 
 43 44  1  0  0  0  0 
 41 45  1  0  0  0  0 
 45 46  1  0  0  0  0 
 34 47  1  0  0  0  0 
 23 47  1  0  0  0  0 
 47 48  1  6  0  0  0 
 48 49  1  0  0  0  0 
 48 50  1  0  0  0  0 
 48 51  1  0  0  0  0 
 47 52  1  0  0  0  0 
 52 53  1  0  0  0  0 
 52 54  1  0  0  0  0 
 52 55  1  0  0  0  0 
 55 56  1  1  0  0  0 
 55 57  1  0  0  0  0 
 21 57  1  0  0  0  0 
  5 57  1  0  0  0  0 
 57 58  1  1  0  0  0 
 55 59  1  6  0  0  0 
 59 60  1  0  0  0  0 
 34 61  1  1  0  0  0 
 61 62  1  0  0  0  0 
M  END
> <Rank>
19

> <Priority_score>
0.016

> <Reaction_type>
carboxylation_(primary_carbon_next_to_tert_carbon)

> <Parent_ID>
56

> <Parent_InChI>
InChI=1S/C22H30FO8P/c1-12-8-16-15-5-4-13-9-14(24)6-7-19(13,2)21(15,23)17(25)10-20(16,3)22(12,27)18(26)11-31-32(28,29)30/h6-7,9,12,15-17,25,27H,4-5,8,10-11H2,1-3H3,(H2,28,29,30)

> <Parent_SMILES>
C[C@H]1C[C@H]2[C@@H]3CCC4=CC(=O)C=C[C@]4(C)[C@@]3(F)[C@@H](O)C[C@]2(C)[C@@]1(O)C(=O)COP(=O)(O)O

$$$$
Molecule 56_metabolite 20
  CDK     0516241031

 63 66  0  0  0  0  0  0  0  0999 V2000
   14.6038   -5.5909    0.0000 C   0  0  0  0  0  0  0  0  0  0  0  0
   13.6618   -4.4235    0.0000 H   0  0  0  0  0  0  0  0  0  0  0  0
   15.8883   -6.3656    0.0000 H   0  0  0  0  0  0  0  0  0  0  0  0
   15.5898   -4.4605    0.0000 H   0  0  0  0  0  0  0  0  0  0  0  0
   13.8911   -7.4381    0.0000 C   0  0  2  0  0  0  0  0  0  0  0  0
   15.1781   -6.7490    0.0000 C   0  0  0  0  0  0  0  0  0  0  0  0
   15.9508   -5.4633    0.0000 H   0  0  0  0  0  0  0  0  0  0  0  0
   16.4704   -7.5004    0.0000 C   0  0  0  0  0  0  0  0  0  0  0  0
   17.7795   -6.7681    0.0000 H   0  0  0  0  0  0  0  0  0  0  0  0
   16.4334   -9.0299    0.0000 C   0  0  0  0  0  0  0  0  0  0  0  0
   17.7126   -9.8134    0.0000 O   0  0  0  0  0  0  0  0  0  0  0  0
   15.1057   -9.7481    0.0000 C   0  0  0  0  0  0  0  0  0  0  0  0
   15.0594  -11.2474    0.0000 H   0  0  0  0  0  0  0  0  0  0  0  0
   13.8542   -8.9677    0.0000 C   0  0  0  0  0  0  0  0  0  0  0  0
   12.5365   -9.6861    0.0000 C   0  0  0  0  0  0  0  0  0  0  0  0
   13.4763  -10.8551    0.0000 H   0  0  0  0  0  0  0  0  0  0  0  0
   11.5523  -10.8181    0.0000 H   0  0  0  0  0  0  0  0  0  0  0  0
   11.2250   -8.9042    0.0000 C   0  0  0  0  0  0  0  0  0  0  0  0
   10.6875  -10.3046    0.0000 H   0  0  0  0  0  0  0  0  0  0  0  0
   12.7088   -8.6845    0.0000 H   0  0  0  0  0  0  0  0  0  0  0  0
   11.2619   -7.3747    0.0000 C   0  0  1  0  0  0  0  0  0  0  0  0
   11.2804   -5.8748    0.0000 H   0  0  0  0  0  0  0  0  0  0  0  0
   10.0096   -6.6242    0.0000 C   0  0  2  0  0  0  0  0  0  0  0  0
    9.8252   -8.1128    0.0000 H   0  0  0  0  0  0  0  0  0  0  0  0
    8.5687   -7.0596    0.0000 C   0  0  0  0  0  0  0  0  0  0  0  0
    9.1450   -8.4445    0.0000 H   0  0  0  0  0  0  0  0  0  0  0  0
    7.2489   -7.7724    0.0000 H   0  0  0  0  0  0  0  0  0  0  0  0
    7.7477   -5.8494    0.0000 C   0  0  2  0  0  0  0  0  0  0  0  0
    6.6102   -6.8273    0.0000 H   0  0  0  0  0  0  0  0  0  0  0  0
    6.6467   -4.8306    0.0000 C   0  0  0  0  0  0  0  0  0  0  0  0
    5.5215   -2.6430    0.0000 H   0  0  0  0  0  0  0  0  0  0  0  0
    7.8412   -3.9233    0.0000 H   0  0  0  0  0  0  0  0  0  0  0  0
    5.2140   -5.2747    0.0000 O   0  0  0  0  0  0  0  0  0  0  0  0
    4.1130   -4.2559    0.0000 H   0  0  0  0  0  0  0  0  0  0  0  0
    8.6269   -4.6503    0.0000 C   0  0  2  0  0  0  0  0  0  0  0  0
    6.5114   -3.3947    0.0000 C   0  0  0  0  0  0  0  0  0  0  0  0
    5.2034   -4.1289    0.0000 O   0  0  0  0  0  0  0  0  0  0  0  0
    6.5411   -0.9348    0.0000 C   0  0  0  0  0  0  0  0  0  0  0  0
    6.0451    0.4808    0.0000 H   0  0  0  0  0  0  0  0  0  0  0  0
    5.0609   -1.1775    0.0000 H   0  0  0  0  0  0  0  0  0  0  0  0
    9.1048    0.5043    0.0000 O   0  0  0  0  0  0  0  0  0  0  0  0
    9.1229    2.0042    0.0000 P   0  0  0  0  0  0  0  0  0  0  0  0
    9.6529    3.4075    0.0000 O   0  0  0  0  0  0  0  0  0  0  0  0
    7.8330    2.7698    0.0000 O   0  0  0  0  0  0  0  0  0  0  0  0
    7.8511    4.2697    0.0000 H   0  0  0  0  0  0  0  0  0  0  0  0
   10.5969    1.7259    0.0000 O   0  0  0  0  0  0  0  0  0  0  0  0
   11.5748    2.8633    0.0000 H   0  0  0  0  0  0  0  0  0  0  0  0
   10.0451   -5.1546    0.0000 C   0  0  2  0  0  0  0  0  0  0  0  0
    9.7905   -2.2257    0.0000 C   0  0  0  0  0  0  0  0  0  0  0  0
    7.5615   -1.1848    0.0000 H   0  0  0  0  0  0  0  0  0  0  0  0
   10.1795   -0.7770    0.0000 H   0  0  0  0  0  0  0  0  0  0  0  0
   11.2847   -2.3572    0.0000 H   0  0  0  0  0  0  0  0  0  0  0  0
   11.3331   -4.4255    0.0000 C   0  0  0  0  0  0  0  0  0  0  0  0
   10.3830   -3.2648    0.0000 H   0  0  0  0  0  0  0  0  0  0  0  0
   12.3155   -3.2920    0.0000 H   0  0  0  0  0  0  0  0  0  0  0  0
   12.6443   -5.2174    0.0000 C   0  0  1  0  0  0  0  0  0  0  0  0
   13.1871   -3.8190    0.0000 H   0  0  0  0  0  0  0  0  0  0  0  0
   12.6089   -6.6870    0.0000 C   0  0  2  0  0  0  0  0  0  0  0  0
   13.9192   -5.9568    0.0000 F   0  0  0  0  0  0  0  0  0  0  0  0
   14.1440   -5.2514    0.0000 O   0  0  0  0  0  0  0  0  0  0  0  0
   15.6713   -2.7392    0.0000 H   0  0  0  0  0  0  0  0  0  0  0  0
    9.2640   -3.2923    0.0000 O   0  0  0  0  0  0  0  0  0  0  0  0
    8.4065   -2.0616    0.0000 H   0  0  0  0  0  0  0  0  0  0  0  0
  1  2  1  0  0  0  0 
  1  3  1  0  0  0  0 
  1  4  1  0  0  0  0 
  1  5  1  0  0  0  0 
  5  6  1  1  0  0  0 
  6  7  1  0  0  0  0 
  6  8  2  0  0  0  0 
  8  9  1  0  0  0  0 
  8 10  1  0  0  0  0 
 10 11  2  0  0  0  0 
 10 12  1  0  0  0  0 
 12 13  1  0  0  0  0 
 12 14  2  0  0  0  0 
  5 14  1  0  0  0  0 
 14 15  1  0  0  0  0 
 15 16  1  0  0  0  0 
 15 17  1  0  0  0  0 
 15 18  1  0  0  0  0 
 18 19  1  0  0  0  0 
 18 20  1  0  0  0  0 
 18 21  1  0  0  0  0 
 21 22  1  6  0  0  0 
 21 23  1  0  0  0  0 
 23 24  1  1  0  0  0 
 23 25  1  0  0  0  0 
 25 26  1  0  0  0  0 
 25 27  1  0  0  0  0 
 25 28  1  0  0  0  0 
 28 29  1  1  0  0  0 
 28 30  1  6  0  0  0 
 30 31  1  0  0  0  0 
 30 32  1  0  0  0  0 
 30 33  1  0  0  0  0 
 33 34  1  0  0  0  0 
 28 35  1  0  0  0  0 
 35 36  1  6  0  0  0 
 36 37  2  0  0  0  0 
 36 38  1  0  0  0  0 
 38 39  1  0  0  0  0 
 38 40  1  0  0  0  0 
 38 41  1  0  0  0  0 
 41 42  1  0  0  0  0 
 42 43  2  0  0  0  0 
 42 44  1  0  0  0  0 
 44 45  1  0  0  0  0 
 42 46  1  0  0  0  0 
 46 47  1  0  0  0  0 
 35 48  1  0  0  0  0 
 23 48  1  0  0  0  0 
 48 49  1  6  0  0  0 
 49 50  1  0  0  0  0 
 49 51  1  0  0  0  0 
 49 52  1  0  0  0  0 
 48 53  1  0  0  0  0 
 53 54  1  0  0  0  0 
 53 55  1  0  0  0  0 
 53 56  1  0  0  0  0 
 56 57  1  1  0  0  0 
 56 58  1  0  0  0  0 
 21 58  1  0  0  0  0 
  5 58  1  0  0  0  0 
 58 59  1  1  0  0  0 
 56 60  1  6  0  0  0 
 60 61  1  0  0  0  0 
 35 62  1  1  0  0  0 
 62 63  1  0  0  0  0 
M  END
> <Rank>
19

> <Priority_score>
0.016

> <Reaction_type>
aliphatic_hydroxylation_(primary_carbon_next_to_tert_carbon)

> <Parent_ID>
56

> <Parent_InChI>
InChI=1S/C22H30FO8P/c1-12-8-16-15-5-4-13-9-14(24)6-7-19(13,2)21(15,23)17(25)10-20(16,3)22(12,27)18(26)11-31-32(28,29)30/h6-7,9,12,15-17,25,27H,4-5,8,10-11H2,1-3H3,(H2,28,29,30)

> <Parent_SMILES>
C[C@H]1C[C@H]2[C@@H]3CCC4=CC(=O)C=C[C@]4(C)[C@@]3(F)[C@@H](O)C[C@]2(C)[C@@]1(O)C(=O)COP(=O)(O)O

$$$$
Molecule 56_metabolite 21
  CDK     0516241031

 59 62  0  0  0  0  0  0  0  0999 V2000
    4.7323   14.7677    0.0000 C   0  0  0  0  0  0  0  0  0  0  0  0
    5.9437   13.8830    0.0000 H   0  0  0  0  0  0  0  0  0  0  0  0
    3.8966   16.0133    0.0000 H   0  0  0  0  0  0  0  0  0  0  0  0
    5.8139   15.8070    0.0000 H   0  0  0  0  0  0  0  0  0  0  0  0
    3.3605   14.1610    0.0000 C   0  0  0  0  0  0  0  0  0  0  0  0
    3.0451   12.6984    0.0000 C   0  0  0  0  0  0  0  0  0  0  0  0
    4.6890   10.8683    0.0000 C   0  0  0  0  0  0  0  0  0  0  0  0
    4.2237    9.4422    0.0000 O   0  0  0  0  0  0  0  0  0  0  0  0
    6.1566   11.1783    0.0000 C   0  0  0  0  0  0  0  0  0  0  0  0
    5.5964   12.5698    0.0000 H   0  0  0  0  0  0  0  0  0  0  0  0
    7.4296   11.9716    0.0000 H   0  0  0  0  0  0  0  0  0  0  0  0
    7.1589   10.0624    0.0000 O   0  0  0  0  0  0  0  0  0  0  0  0
    8.6265   10.3724    0.0000 P   0  0  0  0  0  0  0  0  0  0  0  0
    8.6770    8.8733    0.0000 O   0  0  0  0  0  0  0  0  0  0  0  0
    9.0918   11.7985    0.0000 O   0  0  0  0  0  0  0  0  0  0  0  0
   10.5594   12.1085    0.0000 H   0  0  0  0  0  0  0  0  0  0  0  0
   10.1116   10.1619    0.0000 O   0  0  0  0  0  0  0  0  0  0  0  0
   11.0366   11.3427    0.0000 H   0  0  0  0  0  0  0  0  0  0  0  0
    1.5513   12.5407    0.0000 C   0  0  1  0  0  0  0  0  0  0  0  0
    2.2998   11.2408    0.0000 C   0  0  0  0  0  0  0  0  0  0  0  0
    1.5483    9.9426    0.0000 H   0  0  0  0  0  0  0  0  0  0  0  0
    3.4477   10.2753    0.0000 H   0  0  0  0  0  0  0  0  0  0  0  0
    3.4500   12.2036    0.0000 H   0  0  0  0  0  0  0  0  0  0  0  0
    0.6657   11.3289    0.0000 C   0  0  0  0  0  0  0  0  0  0  0  0
    2.0122   10.6679    0.0000 H   0  0  0  0  0  0  0  0  0  0  0  0
    0.2489    9.8880    0.0000 H   0  0  0  0  0  0  0  0  0  0  0  0
   -0.8265   11.4890    0.0000 C   0  0  1  0  0  0  0  0  0  0  0  0
   -0.7252    9.9924    0.0000 H   0  0  0  0  0  0  0  0  0  0  0  0
   -1.4333   12.8608    0.0000 C   0  0  1  0  0  0  0  0  0  0  0  0
   -0.5477   14.0726    0.0000 C   0  0  1  0  0  0  0  0  0  0  0  0
    0.0597   12.7010    0.0000 H   0  0  0  0  0  0  0  0  0  0  0  0
   -1.1545   15.4444    0.0000 C   0  0  0  0  0  0  0  0  0  0  0  0
   -1.2557   16.9410    0.0000 H   0  0  0  0  0  0  0  0  0  0  0  0
    0.3018   15.8038    0.0000 H   0  0  0  0  0  0  0  0  0  0  0  0
   -2.6467   15.6044    0.0000 C   0  0  0  0  0  0  0  0  0  0  0  0
   -3.9932   16.2655    0.0000 H   0  0  0  0  0  0  0  0  0  0  0  0
   -2.2299   17.0454    0.0000 H   0  0  0  0  0  0  0  0  0  0  0  0
   -3.5323   14.3927    0.0000 C   0  0  0  0  0  0  0  0  0  0  0  0
   -5.0245   14.5528    0.0000 C   0  0  0  0  0  0  0  0  0  0  0  0
   -5.6313   15.9246    0.0000 H   0  0  0  0  0  0  0  0  0  0  0  0
   -5.9101   13.3410    0.0000 C   0  0  0  0  0  0  0  0  0  0  0  0
   -7.4014   13.5017    0.0000 O   0  0  0  0  0  0  0  0  0  0  0  0
   -5.3033   11.9692    0.0000 C   0  0  0  0  0  0  0  0  0  0  0  0
   -6.1878   10.7577    0.0000 H   0  0  0  0  0  0  0  0  0  0  0  0
   -3.8111   11.8091    0.0000 C   0  0  0  0  0  0  0  0  0  0  0  0
   -3.4518   10.3528    0.0000 H   0  0  0  0  0  0  0  0  0  0  0  0
   -2.9255   13.0209    0.0000 C   0  0  2  0  0  0  0  0  0  0  0  0
   -4.2208   10.3816    0.0000 C   0  0  0  0  0  0  0  0  0  0  0  0
   -7.1542   10.1837    0.0000 H   0  0  0  0  0  0  0  0  0  0  0  0
   -2.7800    9.9646    0.0000 H   0  0  0  0  0  0  0  0  0  0  0  0
   -4.4840    7.9357    0.0000 H   0  0  0  0  0  0  0  0  0  0  0  0
    0.9445   13.9125    0.0000 C   0  0  2  0  0  0  0  0  0  0  0  0
    2.3105   13.2928    0.0000 H   0  0  0  0  0  0  0  0  0  0  0  0
    2.0663   14.9116    0.0000 C   0  0  0  0  0  0  0  0  0  0  0  0
    0.9558   15.9200    0.0000 H   0  0  0  0  0  0  0  0  0  0  0  0
    2.9517   16.1224    0.0000 H   0  0  0  0  0  0  0  0  0  0  0  0
   -2.6787   12.0249    0.0000 F   0  0  0  0  0  0  0  0  0  0  0  0
   -2.2828   11.1295    0.0000 O   0  0  0  0  0  0  0  0  0  0  0  0
   -3.0998    8.3053    0.0000 H   0  0  0  0  0  0  0  0  0  0  0  0
  1  2  1  0  0  0  0 
  1  3  1  0  0  0  0 
  1  4  1  0  0  0  0 
  1  5  1  0  0  0  0 
  5  6  2  0  0  0  0 
  6  7  1  0  0  0  0 
  7  8  2  0  0  0  0 
  7  9  1  0  0  0  0 
  9 10  1  0  0  0  0 
  9 11  1  0  0  0  0 
  9 12  1  0  0  0  0 
 12 13  1  0  0  0  0 
 13 14  2  0  0  0  0 
 13 15  1  0  0  0  0 
 15 16  1  0  0  0  0 
 13 17  1  0  0  0  0 
 17 18  1  0  0  0  0 
 19  6  1  1  0  0  0 
 19 20  1  0  0  0  0 
 20 21  1  0  0  0  0 
 20 22  1  0  0  0  0 
 20 23  1  0  0  0  0 
 19 24  1  0  0  0  0 
 24 25  1  0  0  0  0 
 24 26  1  0  0  0  0 
 24 27  1  0  0  0  0 
 27 28  1  1  0  0  0 
 27 29  1  0  0  0  0 
 29 30  1  0  0  0  0 
 30 31  1  6  0  0  0 
 30 32  1  0  0  0  0 
 32 33  1  0  0  0  0 
 32 34  1  0  0  0  0 
 32 35  1  0  0  0  0 
 35 36  1  0  0  0  0 
 35 37  1  0  0  0  0 
 35 38  1  0  0  0  0 
 38 39  2  0  0  0  0 
 39 40  1  0  0  0  0 
 39 41  1  0  0  0  0 
 41 42  2  0  0  0  0 
 41 43  1  0  0  0  0 
 43 44  1  0  0  0  0 
 43 45  2  0  0  0  0 
 45 46  1  0  0  0  0 
 45 47  1  0  0  0  0 
 47 38  1  6  0  0  0 
 29 47  1  0  0  0  0 
 47 48  1  0  0  0  0 
 48 49  1  0  0  0  0 
 48 50  1  0  0  0  0 
 48 51  1  0  0  0  0 
 30 52  1  0  0  0  0 
 19 52  1  0  0  0  0 
 52 53  1  1  0  0  0 
 52 54  1  0  0  0  0 
  5 54  1  0  0  0  0 
 54 55  1  0  0  0  0 
 54 56  1  0  0  0  0 
 29 57  1  1  0  0  0 
 27 58  1  6  0  0  0 
 58 59  1  0  0  0  0 
M  END
> <Rank>
19

> <Priority_score>
0.016

> <Reaction_type>
dehydration_next_to_SP2_a

> <Parent_ID>
56

> <Parent_InChI>
InChI=1S/C22H30FO8P/c1-12-8-16-15-5-4-13-9-14(24)6-7-19(13,2)21(15,23)17(25)10-20(16,3)22(12,27)18(26)11-31-32(28,29)30/h6-7,9,12,15-17,25,27H,4-5,8,10-11H2,1-3H3,(H2,28,29,30)

> <Parent_SMILES>
C[C@H]1C[C@H]2[C@@H]3CCC4=CC(=O)C=C[C@]4(C)[C@@]3(F)[C@@H](O)C[C@]2(C)[C@@]1(O)C(=O)COP(=O)(O)O

$$$$
Molecule 56_metabolite 22
  CDK     0516241031

 60 63  0  0  0  0  0  0  0  0999 V2000
   -1.0376   -5.4524    0.0000 C   0  0  0  0  0  0  0  0  0  0  0  0
   -0.7594   -6.9264    0.0000 H   0  0  0  0  0  0  0  0  0  0  0  0
   -1.8031   -4.1624    0.0000 H   0  0  0  0  0  0  0  0  0  0  0  0
   -2.4408   -5.9823    0.0000 H   0  0  0  0  0  0  0  0  0  0  0  0
    0.4638   -4.1616    0.0000 C   0  0  1  0  0  0  0  0  0  0  0  0
   -0.6371   -3.1428    0.0000 H   0  0  0  0  0  0  0  0  0  0  0  0
    1.2849   -5.3717    0.0000 C   0  0  0  0  0  0  0  0  0  0  0  0
    1.8611   -6.7566    0.0000 H   0  0  0  0  0  0  0  0  0  0  0  0
   -0.0349   -6.0846    0.0000 H   0  0  0  0  0  0  0  0  0  0  0  0
    2.7258   -4.9364    0.0000 C   0  0  1  0  0  0  0  0  0  0  0  0
    2.5414   -6.4250    0.0000 H   0  0  0  0  0  0  0  0  0  0  0  0
    3.9781   -5.6868    0.0000 C   0  0  0  0  0  0  0  0  0  0  0  0
    3.9411   -7.2164    0.0000 C   0  0  0  0  0  0  0  0  0  0  0  0
    2.6280   -7.9415    0.0000 H   0  0  0  0  0  0  0  0  0  0  0  0
    5.2526   -7.9982    0.0000 C   0  0  0  0  0  0  0  0  0  0  0  0
    6.1925   -9.1673    0.0000 H   0  0  0  0  0  0  0  0  0  0  0  0
    4.2685   -9.1303    0.0000 H   0  0  0  0  0  0  0  0  0  0  0  0
    6.5704   -7.2798    0.0000 C   0  0  0  0  0  0  0  0  0  0  0  0
    7.8219   -8.0603    0.0000 C   0  0  0  0  0  0  0  0  0  0  0  0
    7.7756   -9.5595    0.0000 H   0  0  0  0  0  0  0  0  0  0  0  0
    9.1496   -7.3421    0.0000 C   0  0  0  0  0  0  0  0  0  0  0  0
   10.4288   -8.1256    0.0000 O   0  0  0  0  0  0  0  0  0  0  0  0
    9.1865   -5.8125    0.0000 C   0  0  0  0  0  0  0  0  0  0  0  0
   10.4957   -5.0803    0.0000 H   0  0  0  0  0  0  0  0  0  0  0  0
    7.8943   -5.0611    0.0000 C   0  0  0  0  0  0  0  0  0  0  0  0
    9.5084   -3.2047    0.0000 H   0  0  0  0  0  0  0  0  0  0  0  0
    6.6073   -5.7503    0.0000 C   0  0  1  0  0  0  0  0  0  0  0  0
    8.1258   -3.2328    0.0000 C   0  0  0  0  0  0  0  0  0  0  0  0
    7.4008   -1.9196    0.0000 H   0  0  0  0  0  0  0  0  0  0  0  0
    9.2562   -4.2188    0.0000 H   0  0  0  0  0  0  0  0  0  0  0  0
   10.4138   -1.3865    0.0000 H   0  0  0  0  0  0  0  0  0  0  0  0
    5.3250   -4.9991    0.0000 C   0  0  1  0  0  0  0  0  0  0  0  0
    5.3605   -3.5295    0.0000 C   0  0  2  0  0  0  0  0  0  0  0  0
    5.9033   -2.1312    0.0000 H   0  0  0  0  0  0  0  0  0  0  0  0
    4.0493   -2.7377    0.0000 C   0  0  0  0  0  0  0  0  0  0  0  0
    3.0992   -1.5769    0.0000 H   0  0  0  0  0  0  0  0  0  0  0  0
    5.0316   -1.6041    0.0000 H   0  0  0  0  0  0  0  0  0  0  0  0
    2.7613   -3.4668    0.0000 C   0  0  1  0  0  0  0  0  0  0  0  0
    2.5482   -1.0160    0.0000 C   0  0  0  0  0  0  0  0  0  0  0  0
    3.7774   -0.1563    0.0000 H   0  0  0  0  0  0  0  0  0  0  0  0
    1.9150    0.3438    0.0000 H   0  0  0  0  0  0  0  0  0  0  0  0
    1.0991   -1.4035    0.0000 H   0  0  0  0  0  0  0  0  0  0  0  0
    1.3430   -2.9624    0.0000 C   0  0  1  0  0  0  0  0  0  0  0  0
   -0.7724   -1.7068    0.0000 C   0  0  0  0  0  0  0  0  0  0  0  0
   -2.0804   -2.4411    0.0000 O   0  0  0  0  0  0  0  0  0  0  0  0
   -0.7543   -0.2069    0.0000 C   0  0  0  0  0  0  0  0  0  0  0  0
   -1.2503    1.2087    0.0000 H   0  0  0  0  0  0  0  0  0  0  0  0
   -2.2345   -0.4495    0.0000 H   0  0  0  0  0  0  0  0  0  0  0  0
    0.5537    0.5274    0.0000 O   0  0  0  0  0  0  0  0  0  0  0  0
    0.5718    2.0272    0.0000 P   0  0  0  0  0  0  0  0  0  0  0  0
    1.1018    3.4305    0.0000 O   0  0  0  0  0  0  0  0  0  0  0  0
   -0.7181    2.7929    0.0000 O   0  0  0  0  0  0  0  0  0  0  0  0
   -0.7000    4.2928    0.0000 H   0  0  0  0  0  0  0  0  0  0  0  0
    2.0458    1.7490    0.0000 O   0  0  0  0  0  0  0  0  0  0  0  0
    3.0237    2.8863    0.0000 H   0  0  0  0  0  0  0  0  0  0  0  0
    1.9801   -1.6045    0.0000 O   0  0  0  0  0  0  0  0  0  0  0  0
    1.1227   -0.3737    0.0000 H   0  0  0  0  0  0  0  0  0  0  0  0
    7.3400   -3.5744    0.0000 O   0  0  0  0  0  0  0  0  0  0  0  0
    8.6180   -1.4724    0.0000 H   0  0  0  0  0  0  0  0  0  0  0  0
    6.6354   -4.2690    0.0000 F   0  0  0  0  0  0  0  0  0  0  0  0
  1  2  1  0  0  0  0 
  1  3  1  0  0  0  0 
  1  4  1  0  0  0  0 
  5  1  1  6  0  0  0 
  5  6  1  1  0  0  0 
  5  7  1  0  0  0  0 
  7  8  1  0  0  0  0 
  7  9  1  0  0  0  0 
  7 10  1  0  0  0  0 
 10 11  1  1  0  0  0 
 10 12  1  0  0  0  0 
 12 13  2  0  0  0  0 
 13 14  1  0  0  0  0 
 13 15  1  0  0  0  0 
 15 16  1  0  0  0  0 
 15 17  1  0  0  0  0 
 15 18  1  0  0  0  0 
 18 19  2  0  0  0  0 
 19 20  1  0  0  0  0 
 19 21  1  0  0  0  0 
 21 22  2  0  0  0  0 
 21 23  1  0  0  0  0 
 23 24  1  0  0  0  0 
 23 25  2  0  0  0  0 
 25 26  1  0  0  0  0 
 25 27  1  0  0  0  0 
 27 18  1  6  0  0  0 
 27 28  1  0  0  0  0 
 28 29  1  0  0  0  0 
 28 30  1  0  0  0  0 
 28 31  1  0  0  0  0 
 27 32  1  0  0  0  0 
 12 32  1  0  0  0  0 
 32 33  1  0  0  0  0 
 33 34  1  1  0  0  0 
 33 35  1  0  0  0  0 
 35 36  1  0  0  0  0 
 35 37  1  0  0  0  0 
 35 38  1  0  0  0  0 
 10 38  1  0  0  0  0 
 38 39  1  6  0  0  0 
 39 40  1  0  0  0  0 
 39 41  1  0  0  0  0 
 39 42  1  0  0  0  0 
 38 43  1  0  0  0  0 
  5 43  1  0  0  0  0 
 43 44  1  6  0  0  0 
 44 45  2  0  0  0  0 
 44 46  1  0  0  0  0 
 46 47  1  0  0  0  0 
 46 48  1  0  0  0  0 
 46 49  1  0  0  0  0 
 49 50  1  0  0  0  0 
 50 51  2  0  0  0  0 
 50 52  1  0  0  0  0 
 52 53  1  0  0  0  0 
 50 54  1  0  0  0  0 
 54 55  1  0  0  0  0 
 43 56  1  1  0  0  0 
 56 57  1  0  0  0  0 
 33 58  1  6  0  0  0 
 58 59  1  0  0  0  0 
 32 60  1  1  0  0  0 
M  END
> <Rank>
22

> <Priority_score>
0.0104

> <Reaction_type>
alkyl dehydrogenation

> <Parent_ID>
56

> <Parent_InChI>
InChI=1S/C22H30FO8P/c1-12-8-16-15-5-4-13-9-14(24)6-7-19(13,2)21(15,23)17(25)10-20(16,3)22(12,27)18(26)11-31-32(28,29)30/h6-7,9,12,15-17,25,27H,4-5,8,10-11H2,1-3H3,(H2,28,29,30)

> <Parent_SMILES>
C[C@H]1C[C@H]2[C@@H]3CCC4=CC(=O)C=C[C@]4(C)[C@@]3(F)[C@@H](O)C[C@]2(C)[C@@]1(O)C(=O)COP(=O)(O)O

$$$$
Molecule 56_metabolite 23
  CDK     0516241031

 63 66  0  0  0  0  0  0  0  0999 V2000
   16.5918   -3.1355    0.0000 C   0  0  0  0  0  0  0  0  0  0  0  0
   15.9170   -1.2740    0.0000 H   0  0  0  0  0  0  0  0  0  0  0  0
   17.5544   -4.2858    0.0000 H   0  0  0  0  0  0  0  0  0  0  0  0
   17.8918   -2.3872    0.0000 H   0  0  0  0  0  0  0  0  0  0  0  0
   14.6990   -5.3851    0.0000 C   0  0  2  0  0  0  0  0  0  0  0  0
   16.0000   -4.6368    0.0000 C   0  0  0  0  0  0  0  0  0  0  0  0
   16.0020   -3.1369    0.0000 H   0  0  0  0  0  0  0  0  0  0  0  0
   17.2990   -5.3886    0.0000 C   0  0  0  0  0  0  0  0  0  0  0  0
   18.5989   -4.6401    0.0000 H   0  0  0  0  0  0  0  0  0  0  0  0
   17.2970   -6.8886    0.0000 C   0  0  0  0  0  0  0  0  0  0  0  0
   18.5949   -7.6405    0.0000 O   0  0  0  0  0  0  0  0  0  0  0  0
   15.9960   -7.6368    0.0000 C   0  0  0  0  0  0  0  0  0  0  0  0
   15.9940   -9.1368    0.0000 H   0  0  0  0  0  0  0  0  0  0  0  0
   14.6970   -6.8851    0.0000 C   0  0  0  0  0  0  0  0  0  0  0  0
   13.3960   -7.6334    0.0000 C   0  0  0  0  0  0  0  0  0  0  0  0
   14.3586   -8.7839    0.0000 H   0  0  0  0  0  0  0  0  0  0  0  0
   12.4305   -8.7813    0.0000 H   0  0  0  0  0  0  0  0  0  0  0  0
   12.0970   -6.8817    0.0000 C   0  0  0  0  0  0  0  0  0  0  0  0
   11.5824   -8.2907    0.0000 H   0  0  0  0  0  0  0  0  0  0  0  0
   13.5746   -6.6233    0.0000 H   0  0  0  0  0  0  0  0  0  0  0  0
   12.0990   -5.3817    0.0000 C   0  0  1  0  0  0  0  0  0  0  0  0
   10.7991   -6.1302    0.0000 H   0  0  0  0  0  0  0  0  0  0  0  0
   10.8000   -4.6300    0.0000 C   0  0  2  0  0  0  0  0  0  0  0  0
    9.8029   -3.5094    0.0000 H   0  0  0  0  0  0  0  0  0  0  0  0
    9.3694   -5.0881    0.0000 C   0  0  0  0  0  0  0  0  0  0  0  0
    9.9752   -6.4603    0.0000 H   0  0  0  0  0  0  0  0  0  0  0  0
    8.0689   -5.8355    0.0000 H   0  0  0  0  0  0  0  0  0  0  0  0
    8.4910   -3.8769    0.0000 C   0  0  2  0  0  0  0  0  0  0  0  0
    6.6609   -5.5209    0.0000 C   0  0  0  0  0  0  0  0  0  0  0  0
    6.9711   -6.9885    0.0000 H   0  0  0  0  0  0  0  0  0  0  0  0
    5.8675   -4.2479    0.0000 H   0  0  0  0  0  0  0  0  0  0  0  0
    5.2695   -6.0812    0.0000 H   0  0  0  0  0  0  0  0  0  0  0  0
    9.3726   -2.6681    0.0000 C   0  0  2  0  0  0  0  0  0  0  0  0
    7.2430   -1.4367    0.0000 C   0  0  0  0  0  0  0  0  0  0  0  0
    5.9434   -2.1858    0.0000 O   0  0  0  0  0  0  0  0  0  0  0  0
    7.2443    0.5433    0.0000 C   0  0  0  0  0  0  0  0  0  0  0  0
    6.7322    1.9532    0.0000 H   0  0  0  0  0  0  0  0  0  0  0  0
    5.7669    0.2838    0.0000 H   0  0  0  0  0  0  0  0  0  0  0  0
    8.9597    1.5322    0.0000 O   0  0  0  0  0  0  0  0  0  0  0  0
    8.9606    3.0322    0.0000 P   0  0  0  0  0  0  0  0  0  0  0  0
    9.4746    4.4414    0.0000 O   0  0  0  0  0  0  0  0  0  0  0  0
    7.6621    3.7830    0.0000 O   0  0  0  0  0  0  0  0  0  0  0  0
    7.6631    5.2830    0.0000 H   0  0  0  0  0  0  0  0  0  0  0  0
   10.4377    2.7707    0.0000 O   0  0  0  0  0  0  0  0  0  0  0  0
   11.4026    3.9192    0.0000 H   0  0  0  0  0  0  0  0  0  0  0  0
   10.8020   -3.1300    0.0000 C   0  0  2  0  0  0  0  0  0  0  0  0
   10.4947   -0.2061    0.0000 C   0  0  0  0  0  0  0  0  0  0  0  0
    8.2474    0.7945    0.0000 H   0  0  0  0  0  0  0  0  0  0  0  0
   10.8576    1.2493    0.0000 H   0  0  0  0  0  0  0  0  0  0  0  0
   11.9910   -0.3107    0.0000 H   0  0  0  0  0  0  0  0  0  0  0  0
   12.1030   -2.3817    0.0000 C   0  0  0  0  0  0  0  0  0  0  0  0
   11.1404   -1.2313    0.0000 H   0  0  0  0  0  0  0  0  0  0  0  0
   13.0685   -1.2338    0.0000 H   0  0  0  0  0  0  0  0  0  0  0  0
   13.4020   -3.1334    0.0000 C   0  0  1  0  0  0  0  0  0  0  0  0
   13.9166   -1.7244    0.0000 H   0  0  0  0  0  0  0  0  0  0  0  0
   13.4000   -4.6334    0.0000 C   0  0  2  0  0  0  0  0  0  0  0  0
   14.8775   -4.3747    0.0000 F   0  0  0  0  0  0  0  0  0  0  0  0
   14.8789   -3.3957    0.0000 O   0  0  0  0  0  0  0  0  0  0  0  0
   16.7714   -1.1458    0.0000 H   0  0  0  0  0  0  0  0  0  0  0  0
    9.9820   -1.2975    0.0000 O   0  0  0  0  0  0  0  0  0  0  0  0
    9.0998   -0.0844    0.0000 H   0  0  0  0  0  0  0  0  0  0  0  0
    7.3777   -2.8716    0.0000 O   0  0  0  0  0  0  0  0  0  0  0  0
    5.9505   -3.3330    0.0000 H   0  0  0  0  0  0  0  0  0  0  0  0
  1  2  1  0  0  0  0 
  1  3  1  0  0  0  0 
  1  4  1  0  0  0  0 
  1  5  1  0  0  0  0 
  5  6  1  1  0  0  0 
  6  7  1  0  0  0  0 
  6  8  2  0  0  0  0 
  8  9  1  0  0  0  0 
  8 10  1  0  0  0  0 
 10 11  2  0  0  0  0 
 10 12  1  0  0  0  0 
 12 13  1  0  0  0  0 
 12 14  2  0  0  0  0 
  5 14  1  0  0  0  0 
 14 15  1  0  0  0  0 
 15 16  1  0  0  0  0 
 15 17  1  0  0  0  0 
 15 18  1  0  0  0  0 
 18 19  1  0  0  0  0 
 18 20  1  0  0  0  0 
 18 21  1  0  0  0  0 
 21 22  1  6  0  0  0 
 21 23  1  0  0  0  0 
 23 24  1  1  0  0  0 
 23 25  1  0  0  0  0 
 25 26  1  0  0  0  0 
 25 27  1  0  0  0  0 
 25 28  1  0  0  0  0 
 28 29  1  6  0  0  0 
 29 30  1  0  0  0  0 
 29 31  1  0  0  0  0 
 29 32  1  0  0  0  0 
 28 33  1  0  0  0  0 
 33 34  1  6  0  0  0 
 34 35  2  0  0  0  0 
 34 36  1  0  0  0  0 
 36 37  1  0  0  0  0 
 36 38  1  0  0  0  0 
 36 39  1  0  0  0  0 
 39 40  1  0  0  0  0 
 40 41  2  0  0  0  0 
 40 42  1  0  0  0  0 
 42 43  1  0  0  0  0 
 40 44  1  0  0  0  0 
 44 45  1  0  0  0  0 
 33 46  1  0  0  0  0 
 23 46  1  0  0  0  0 
 46 47  1  6  0  0  0 
 47 48  1  0  0  0  0 
 47 49  1  0  0  0  0 
 47 50  1  0  0  0  0 
 46 51  1  0  0  0  0 
 51 52  1  0  0  0  0 
 51 53  1  0  0  0  0 
 51 54  1  0  0  0  0 
 54 55  1  1  0  0  0 
 54 56  1  0  0  0  0 
 21 56  1  0  0  0  0 
  5 56  1  0  0  0  0 
 56 57  1  1  0  0  0 
 54 58  1  6  0  0  0 
 58 59  1  0  0  0  0 
 33 60  1  1  0  0  0 
 60 61  1  0  0  0  0 
 28 62  1  1  0  0  0 
 62 63  1  0  0  0  0 
M  END
> <Rank>
23

> <Priority_score>
0.008

> <Reaction_type>
aliphatic hydroxylation

> <Parent_ID>
56

> <Parent_InChI>
InChI=1S/C22H30FO8P/c1-12-8-16-15-5-4-13-9-14(24)6-7-19(13,2)21(15,23)17(25)10-20(16,3)22(12,27)18(26)11-31-32(28,29)30/h6-7,9,12,15-17,25,27H,4-5,8,10-11H2,1-3H3,(H2,28,29,30)

> <Parent_SMILES>
C[C@H]1C[C@H]2[C@@H]3CCC4=CC(=O)C=C[C@]4(C)[C@@]3(F)[C@@H](O)C[C@]2(C)[C@@]1(O)C(=O)COP(=O)(O)O

$$$$
Molecule 56_metabolite 24
  CDK     0516241031

 63 67  0  0  0  0  0  0  0  0999 V2000
    5.8743   -5.7408    0.0000 C   0  0  0  0  0  0  0  0  0  0  0  0
    5.5603   -7.2075    0.0000 H   0  0  0  0  0  0  0  0  0  0  0  0
    6.6711   -4.4699    0.0000 H   0  0  0  0  0  0  0  0  0  0  0  0
    7.2643   -6.3047    0.0000 H   0  0  0  0  0  0  0  0  0  0  0  0
    4.0486   -4.0920    0.0000 C   0  0  1  0  0  0  0  0  0  0  0  0
    5.1658   -3.0911    0.0000 H   0  0  0  0  0  0  0  0  0  0  0  0
    3.1686   -5.3020    0.0000 C   0  0  0  0  0  0  0  0  0  0  0  0
    2.5533   -6.6700    0.0000 H   0  0  0  0  0  0  0  0  0  0  0  0
    4.4660   -6.0548    0.0000 H   0  0  0  0  0  0  0  0  0  0  0  0
    1.7486   -4.8320    0.0000 C   0  0  1  0  0  0  0  0  0  0  0  0
    0.5256   -3.9636    0.0000 H   0  0  0  0  0  0  0  0  0  0  0  0
    0.4486   -5.5920    0.0000 C   0  0  2  0  0  0  0  0  0  0  0  0
   -0.8525   -6.3385    0.0000 H   0  0  0  0  0  0  0  0  0  0  0  0
    0.4486   -7.0920    0.0000 C   0  0  0  0  0  0  0  0  0  0  0  0
    0.9559   -8.5037    0.0000 H   0  0  0  0  0  0  0  0  0  0  0  0
    1.9263   -6.8346    0.0000 H   0  0  0  0  0  0  0  0  0  0  0  0
   -0.8514   -7.8320    0.0000 C   0  0  0  0  0  0  0  0  0  0  0  0
   -1.8132   -8.9831    0.0000 H   0  0  0  0  0  0  0  0  0  0  0  0
    0.1104   -8.9831    0.0000 H   0  0  0  0  0  0  0  0  0  0  0  0
   -2.1514   -7.0920    0.0000 C   0  0  0  0  0  0  0  0  0  0  0  0
   -3.4514   -7.8320    0.0000 C   0  0  0  0  0  0  0  0  0  0  0  0
   -3.4514   -9.3320    0.0000 H   0  0  0  0  0  0  0  0  0  0  0  0
   -4.7514   -7.0920    0.0000 C   0  0  0  0  0  0  0  0  0  0  0  0
   -6.0481   -7.8460    0.0000 O   0  0  0  0  0  0  0  0  0  0  0  0
   -4.7514   -5.5920    0.0000 C   0  0  0  0  0  0  0  0  0  0  0  0
   -6.2514   -5.5920    0.0000 H   0  0  0  0  0  0  0  0  0  0  0  0
   -3.4514   -4.8320    0.0000 C   0  0  0  0  0  0  0  0  0  0  0  0
   -2.7018   -3.5327    0.0000 H   0  0  0  0  0  0  0  0  0  0  0  0
   -2.1514   -5.5920    0.0000 C   0  0  1  0  0  0  0  0  0  0  0  0
   -1.6409   -2.6967    0.0000 C   0  0  0  0  0  0  0  0  0  0  0  0
    0.2197   -2.0195    0.0000 H   0  0  0  0  0  0  0  0  0  0  0  0
   -4.1009   -2.6967    0.0000 H   0  0  0  0  0  0  0  0  0  0  0  0
   -2.1514    0.1986    0.0000 H   0  0  0  0  0  0  0  0  0  0  0  0
   -0.8514   -4.8320    0.0000 C   0  0  1  0  0  0  0  0  0  0  0  0
   -0.8514   -3.3320    0.0000 C   0  0  2  0  0  0  0  0  0  0  0  0
   -1.3587   -1.9204    0.0000 H   0  0  0  0  0  0  0  0  0  0  0  0
    0.4486   -2.5920    0.0000 C   0  0  0  0  0  0  0  0  0  0  0  0
    1.4104   -1.4410    0.0000 H   0  0  0  0  0  0  0  0  0  0  0  0
   -0.5132   -1.4410    0.0000 H   0  0  0  0  0  0  0  0  0  0  0  0
    1.7486   -3.3320    0.0000 C   0  0  1  0  0  0  0  0  0  0  0  0
    2.0483   -0.4074    0.0000 C   0  0  0  0  0  0  0  0  0  0  0  0
    4.2930    0.5991    0.0000 H   0  0  0  0  0  0  0  0  0  0  0  0
    1.6816    1.0471    0.0000 H   0  0  0  0  0  0  0  0  0  0  0  0
    0.5522   -0.5159    0.0000 H   0  0  0  0  0  0  0  0  0  0  0  0
    3.1686   -2.8720    0.0000 C   0  0  1  0  0  0  0  0  0  0  0  0
    5.7185   -1.4086    0.0000 C   0  0  0  0  0  0  0  0  0  0  0  0
    5.7224    0.0914    0.0000 O   0  0  0  0  0  0  0  0  0  0  0  0
    7.0156   -2.1620    0.0000 C   0  0  0  0  0  0  0  0  0  0  0  0
    7.9768   -3.3135    0.0000 H   0  0  0  0  0  0  0  0  0  0  0  0
    6.0485   -3.3085    0.0000 H   0  0  0  0  0  0  0  0  0  0  0  0
    8.3166   -1.4153    0.0000 O   0  0  0  0  0  0  0  0  0  0  0  0
    9.6137   -2.1687    0.0000 P   0  0  0  0  0  0  0  0  0  0  0  0
   11.0902   -2.4330    0.0000 O   0  0  0  0  0  0  0  0  0  0  0  0
    9.6098   -3.6687    0.0000 O   0  0  0  0  0  0  0  0  0  0  0  0
   10.9069   -4.4220    0.0000 H   0  0  0  0  0  0  0  0  0  0  0  0
   10.1303   -0.7605    0.0000 O   0  0  0  0  0  0  0  0  0  0  0  0
   11.6082   -0.5038    0.0000 H   0  0  0  0  0  0  0  0  0  0  0  0
    2.5609   -1.5007    0.0000 O   0  0  0  0  0  0  0  0  0  0  0  0
    3.4447   -0.2887    0.0000 H   0  0  0  0  0  0  0  0  0  0  0  0
   -3.2731   -2.8999    0.0000 O   0  0  0  0  0  0  0  0  0  0  0  0
   -3.7833   -1.4893    0.0000 H   0  0  0  0  0  0  0  0  0  0  0  0
   -1.8187   -3.6856    0.0000 F   0  0  0  0  0  0  0  0  0  0  0  0
   -4.7514   -4.0920    0.0000 O   0  0  0  0  0  0  0  0  0  0  0  0
  1  2  1  0  0  0  0 
  1  3  1  0  0  0  0 
  1  4  1  0  0  0  0 
  5  1  1  1  0  0  0 
  5  6  1  6  0  0  0 
  5  7  1  0  0  0  0 
  7  8  1  0  0  0  0 
  7  9  1  0  0  0  0 
  7 10  1  0  0  0  0 
 10 11  1  6  0  0  0 
 10 12  1  0  0  0  0 
 12 13  1  1  0  0  0 
 12 14  1  0  0  0  0 
 14 15  1  0  0  0  0 
 14 16  1  0  0  0  0 
 14 17  1  0  0  0  0 
 17 18  1  0  0  0  0 
 17 19  1  0  0  0  0 
 17 20  1  0  0  0  0 
 20 21  2  0  0  0  0 
 21 22  1  0  0  0  0 
 21 23  1  0  0  0  0 
 23 24  2  0  0  0  0 
 23 25  1  0  0  0  0 
 25 26  1  0  0  0  0 
 25 27  1  0  0  0  0 
 27 28  1  0  0  0  0 
 27 29  1  0  0  0  0 
 29 20  1  1  0  0  0 
 29 30  1  0  0  0  0 
 30 31  1  0  0  0  0 
 30 32  1  0  0  0  0 
 30 33  1  0  0  0  0 
 29 34  1  0  0  0  0 
 12 34  1  0  0  0  0 
 34 35  1  0  0  0  0 
 35 36  1  6  0  0  0 
 35 37  1  0  0  0  0 
 37 38  1  0  0  0  0 
 37 39  1  0  0  0  0 
 37 40  1  0  0  0  0 
 10 40  1  0  0  0  0 
 40 41  1  1  0  0  0 
 41 42  1  0  0  0  0 
 41 43  1  0  0  0  0 
 41 44  1  0  0  0  0 
 40 45  1  0  0  0  0 
  5 45  1  0  0  0  0 
 45 46  1  1  0  0  0 
 46 47  2  0  0  0  0 
 46 48  1  0  0  0  0 
 48 49  1  0  0  0  0 
 48 50  1  0  0  0  0 
 48 51  1  0  0  0  0 
 51 52  1  0  0  0  0 
 52 53  2  0  0  0  0 
 52 54  1  0  0  0  0 
 54 55  1  0  0  0  0 
 52 56  1  0  0  0  0 
 56 57  1  0  0  0  0 
 45 58  1  6  0  0  0 
 58 59  1  0  0  0  0 
 35 60  1  1  0  0  0 
 60 61  1  0  0  0  0 
 34 62  1  6  0  0  0 
 27 63  1  0  0  0  0 
 25 63  1  0  0  0  0 
M  END
> <Rank>
23

> <Priority_score>
0.008

> <Reaction_type>
epoxidation

> <Parent_ID>
56

> <Parent_InChI>
InChI=1S/C22H30FO8P/c1-12-8-16-15-5-4-13-9-14(24)6-7-19(13,2)21(15,23)17(25)10-20(16,3)22(12,27)18(26)11-31-32(28,29)30/h6-7,9,12,15-17,25,27H,4-5,8,10-11H2,1-3H3,(H2,28,29,30)

> <Parent_SMILES>
C[C@H]1C[C@H]2[C@@H]3CCC4=CC(=O)C=C[C@]4(C)[C@@]3(F)[C@@H](O)C[C@]2(C)[C@@]1(O)C(=O)COP(=O)(O)O

$$$$
Molecule 56_metabolite 25
  CDK     0516241031

 60 63  0  0  0  0  0  0  0  0999 V2000
    6.7375   -5.2739    0.0000 C   0  0  0  0  0  0  0  0  0  0  0  0
    6.4239   -6.7407    0.0000 H   0  0  0  0  0  0  0  0  0  0  0  0
    7.5339   -4.0027    0.0000 H   0  0  0  0  0  0  0  0  0  0  0  0
    8.1276   -5.8375    0.0000 H   0  0  0  0  0  0  0  0  0  0  0  0
    4.9114   -3.6256    0.0000 C   0  0  1  0  0  0  0  0  0  0  0  0
    6.0366   -2.6336    0.0000 H   0  0  0  0  0  0  0  0  0  0  0  0
    4.0614   -4.8156    0.0000 C   0  0  0  0  0  0  0  0  0  0  0  0
    3.4519   -6.1861    0.0000 H   0  0  0  0  0  0  0  0  0  0  0  0
    5.3636   -5.5600    0.0000 H   0  0  0  0  0  0  0  0  0  0  0  0
    2.6314   -4.3456    0.0000 C   0  0  1  0  0  0  0  0  0  0  0  0
    1.4268   -3.4517    0.0000 H   0  0  0  0  0  0  0  0  0  0  0  0
    1.3614   -5.0656    0.0000 C   0  0  2  0  0  0  0  0  0  0  0  0
    0.0653   -5.8207    0.0000 H   0  0  0  0  0  0  0  0  0  0  0  0
    1.3614   -6.5956    0.0000 C   0  0  0  0  0  0  0  0  0  0  0  0
    1.8649   -8.0085    0.0000 H   0  0  0  0  0  0  0  0  0  0  0  0
    2.7692   -7.1134    0.0000 H   0  0  0  0  0  0  0  0  0  0  0  0
    0.0314   -7.3456    0.0000 C   0  0  0  0  0  0  0  0  0  0  0  0
   -0.9364   -8.4916    0.0000 H   0  0  0  0  0  0  0  0  0  0  0  0
    0.9879   -8.5010    0.0000 H   0  0  0  0  0  0  0  0  0  0  0  0
   -1.2686   -6.5956    0.0000 C   0  0  0  0  0  0  0  0  0  0  0  0
   -2.5386   -7.3456    0.0000 C   0  0  0  0  0  0  0  0  0  0  0  0
   -2.5285   -8.8455    0.0000 H   0  0  0  0  0  0  0  0  0  0  0  0
   -3.8486   -6.5956    0.0000 C   0  0  0  0  0  0  0  0  0  0  0  0
   -5.1463   -7.3479    0.0000 O   0  0  0  0  0  0  0  0  0  0  0  0
   -3.8486   -5.0656    0.0000 C   0  0  0  0  0  0  0  0  0  0  0  0
   -5.1397   -4.3019    0.0000 H   0  0  0  0  0  0  0  0  0  0  0  0
   -2.5386   -4.3456    0.0000 C   0  0  0  0  0  0  0  0  0  0  0  0
   -2.5287   -2.8456    0.0000 H   0  0  0  0  0  0  0  0  0  0  0  0
   -1.2686   -5.0656    0.0000 C   0  0  1  0  0  0  0  0  0  0  0  0
   -1.2540   -2.1256    0.0000 C   0  0  0  0  0  0  0  0  0  0  0  0
    0.0488   -1.3821    0.0000 H   0  0  0  0  0  0  0  0  0  0  0  0
   -4.1518   -2.6217    0.0000 H   0  0  0  0  0  0  0  0  0  0  0  0
   -1.7600   -0.7135    0.0000 H   0  0  0  0  0  0  0  0  0  0  0  0
    0.0314   -4.3456    0.0000 C   0  0  1  0  0  0  0  0  0  0  0  0
    0.0314   -2.8756    0.0000 C   0  0  0  0  0  0  0  0  0  0  0  0
   -2.5115   -1.3999    0.0000 O   0  0  0  0  0  0  0  0  0  0  0  0
    1.3614   -2.1156    0.0000 C   0  0  0  0  0  0  0  0  0  0  0  0
    2.3392   -0.9781    0.0000 H   0  0  0  0  0  0  0  0  0  0  0  0
   -0.2044   -0.2182    0.0000 H   0  0  0  0  0  0  0  0  0  0  0  0
    2.6314   -2.8756    0.0000 C   0  0  1  0  0  0  0  0  0  0  0  0
    2.9566    0.0464    0.0000 C   0  0  0  0  0  0  0  0  0  0  0  0
    4.7704    0.8406    0.0000 H   0  0  0  0  0  0  0  0  0  0  0  0
    2.6027    1.5040    0.0000 H   0  0  0  0  0  0  0  0  0  0  0  0
    1.4597   -0.0491    0.0000 H   0  0  0  0  0  0  0  0  0  0  0  0
    4.0614   -2.4056    0.0000 C   0  0  1  0  0  0  0  0  0  0  0  0
    6.6250   -0.9664    0.0000 C   0  0  0  0  0  0  0  0  0  0  0  0
    6.6431    0.5335    0.0000 O   0  0  0  0  0  0  0  0  0  0  0  0
    7.9149   -1.7320    0.0000 C   0  0  0  0  0  0  0  0  0  0  0  0
    8.8652   -2.8926    0.0000 H   0  0  0  0  0  0  0  0  0  0  0  0
    6.9370   -2.8694    0.0000 H   0  0  0  0  0  0  0  0  0  0  0  0
    9.2229   -0.9977    0.0000 O   0  0  0  0  0  0  0  0  0  0  0  0
   10.5128   -1.7634    0.0000 P   0  0  0  0  0  0  0  0  0  0  0  0
   11.9868   -2.0416    0.0000 O   0  0  0  0  0  0  0  0  0  0  0  0
   10.4947   -3.2633    0.0000 O   0  0  0  0  0  0  0  0  0  0  0  0
   11.7846   -4.0289    0.0000 H   0  0  0  0  0  0  0  0  0  0  0  0
   11.0428   -0.3601    0.0000 O   0  0  0  0  0  0  0  0  0  0  0  0
   12.5231   -0.1175    0.0000 H   0  0  0  0  0  0  0  0  0  0  0  0
    3.4572   -1.0326    0.0000 O   0  0  0  0  0  0  0  0  0  0  0  0
    4.3442    0.1771    0.0000 H   0  0  0  0  0  0  0  0  0  0  0  0
   -1.2609   -3.5840    0.0000 F   0  0  0  0  0  0  0  0  0  0  0  0
  1  2  1  0  0  0  0 
  1  3  1  0  0  0  0 
  1  4  1  0  0  0  0 
  5  1  1  1  0  0  0 
  5  6  1  6  0  0  0 
  5  7  1  0  0  0  0 
  7  8  1  0  0  0  0 
  7  9  1  0  0  0  0 
  7 10  1  0  0  0  0 
 10 11  1  6  0  0  0 
 10 12  1  0  0  0  0 
 12 13  1  1  0  0  0 
 12 14  1  0  0  0  0 
 14 15  1  0  0  0  0 
 14 16  1  0  0  0  0 
 14 17  1  0  0  0  0 
 17 18  1  0  0  0  0 
 17 19  1  0  0  0  0 
 17 20  1  0  0  0  0 
 20 21  2  0  0  0  0 
 21 22  1  0  0  0  0 
 21 23  1  0  0  0  0 
 23 24  2  0  0  0  0 
 23 25  1  0  0  0  0 
 25 26  1  0  0  0  0 
 25 27  2  0  0  0  0 
 27 28  1  0  0  0  0 
 27 29  1  0  0  0  0 
 29 20  1  1  0  0  0 
 29 30  1  0  0  0  0 
 30 31  1  0  0  0  0 
 30 32  1  0  0  0  0 
 30 33  1  0  0  0  0 
 29 34  1  0  0  0  0 
 12 34  1  0  0  0  0 
 34 35  1  0  0  0  0 
 35 36  2  0  0  0  0 
 35 37  1  0  0  0  0 
 37 38  1  0  0  0  0 
 37 39  1  0  0  0  0 
 37 40  1  0  0  0  0 
 10 40  1  0  0  0  0 
 40 41  1  1  0  0  0 
 41 42  1  0  0  0  0 
 41 43  1  0  0  0  0 
 41 44  1  0  0  0  0 
 40 45  1  0  0  0  0 
  5 45  1  0  0  0  0 
 45 46  1  1  0  0  0 
 46 47  2  0  0  0  0 
 46 48  1  0  0  0  0 
 48 49  1  0  0  0  0 
 48 50  1  0  0  0  0 
 48 51  1  0  0  0  0 
 51 52  1  0  0  0  0 
 52 53  2  0  0  0  0 
 52 54  1  0  0  0  0 
 54 55  1  0  0  0  0 
 52 56  1  0  0  0  0 
 56 57  1  0  0  0  0 
 45 58  1  6  0  0  0 
 58 59  1  0  0  0  0 
 34 60  1  6  0  0  0 
M  END
> <Rank>
25

> <Priority_score>
0.004

> <Reaction_type>
secondary_alcohol_oxidation_(aliphatic)

> <Parent_ID>
56

> <Parent_InChI>
InChI=1S/C22H30FO8P/c1-12-8-16-15-5-4-13-9-14(24)6-7-19(13,2)21(15,23)17(25)10-20(16,3)22(12,27)18(26)11-31-32(28,29)30/h6-7,9,12,15-17,25,27H,4-5,8,10-11H2,1-3H3,(H2,28,29,30)

> <Parent_SMILES>
C[C@H]1C[C@H]2[C@@H]3CCC4=CC(=O)C=C[C@]4(C)[C@@]3(F)[C@@H](O)C[C@]2(C)[C@@]1(O)C(=O)COP(=O)(O)O

$$$$
Molecule 56_metabolite 26
  CDK     0516241031

 63 66  0  0  0  0  0  0  0  0999 V2000
    5.5500   -5.5540    0.0000 C   0  0  0  0  0  0  0  0  0  0  0  0
    5.2364   -7.0209    0.0000 H   0  0  0  0  0  0  0  0  0  0  0  0
    6.3465   -4.2829    0.0000 H   0  0  0  0  0  0  0  0  0  0  0  0
    6.9401   -6.1176    0.0000 H   0  0  0  0  0  0  0  0  0  0  0  0
    3.3676   -3.5841    0.0000 C   0  0  1  0  0  0  0  0  0  0  0  0
    4.4928   -2.5922    0.0000 H   0  0  0  0  0  0  0  0  0  0  0  0
    2.5176   -4.7741    0.0000 C   0  0  0  0  0  0  0  0  0  0  0  0
    1.9081   -6.1447    0.0000 H   0  0  0  0  0  0  0  0  0  0  0  0
    3.8198   -5.5186    0.0000 H   0  0  0  0  0  0  0  0  0  0  0  0
    1.0876   -4.3041    0.0000 C   0  0  1  0  0  0  0  0  0  0  0  0
   -0.1170   -3.4103    0.0000 H   0  0  0  0  0  0  0  0  0  0  0  0
   -0.1824   -5.0241    0.0000 C   0  0  2  0  0  0  0  0  0  0  0  0
   -1.4785   -5.7792    0.0000 H   0  0  0  0  0  0  0  0  0  0  0  0
   -0.1824   -6.5541    0.0000 C   0  0  0  0  0  0  0  0  0  0  0  0
    0.3211   -7.9671    0.0000 H   0  0  0  0  0  0  0  0  0  0  0  0
    1.2957   -6.2987    0.0000 H   0  0  0  0  0  0  0  0  0  0  0  0
   -1.5124   -7.3041    0.0000 C   0  0  0  0  0  0  0  0  0  0  0  0
   -2.4802   -8.4501    0.0000 H   0  0  0  0  0  0  0  0  0  0  0  0
   -0.5559   -8.4596    0.0000 H   0  0  0  0  0  0  0  0  0  0  0  0
   -2.8124   -6.5541    0.0000 C   0  0  0  0  0  0  0  0  0  0  0  0
   -4.0824   -7.3041    0.0000 C   0  0  0  0  0  0  0  0  0  0  0  0
   -4.0723   -8.8041    0.0000 H   0  0  0  0  0  0  0  0  0  0  0  0
   -5.3924   -6.5541    0.0000 C   0  0  0  0  0  0  0  0  0  0  0  0
   -6.6901   -7.3065    0.0000 O   0  0  0  0  0  0  0  0  0  0  0  0
   -5.3924   -5.0241    0.0000 C   0  0  0  0  0  0  0  0  0  0  0  0
   -6.6835   -4.2605    0.0000 H   0  0  0  0  0  0  0  0  0  0  0  0
   -4.0824   -4.3041    0.0000 C   0  0  0  0  0  0  0  0  0  0  0  0
   -4.0725   -2.8042    0.0000 H   0  0  0  0  0  0  0  0  0  0  0  0
   -2.8124   -5.0241    0.0000 C   0  0  1  0  0  0  0  0  0  0  0  0
   -2.5446   -3.5482    0.0000 C   0  0  0  0  0  0  0  0  0  0  0  0
   -5.0046   -3.5360    0.0000 H   0  0  0  0  0  0  0  0  0  0  0  0
   -3.0407   -0.6504    0.0000 H   0  0  0  0  0  0  0  0  0  0  0  0
   -0.6807   -2.8803    0.0000 O   0  0  0  0  0  0  0  0  0  0  0  0
   -0.4128   -1.4044    0.0000 H   0  0  0  0  0  0  0  0  0  0  0  0
   -1.5124   -4.3041    0.0000 C   0  0  1  0  0  0  0  0  0  0  0  0
   -1.5124   -2.8341    0.0000 C   0  0  2  0  0  0  0  0  0  0  0  0
   -2.0213   -1.4231    0.0000 H   0  0  0  0  0  0  0  0  0  0  0  0
   -0.1824   -2.0741    0.0000 C   0  0  0  0  0  0  0  0  0  0  0  0
    0.7954   -0.9366    0.0000 H   0  0  0  0  0  0  0  0  0  0  0  0
   -2.0537    0.1934    0.0000 H   0  0  0  0  0  0  0  0  0  0  0  0
    1.0876   -2.8341    0.0000 C   0  0  1  0  0  0  0  0  0  0  0  0
    1.4128    0.0878    0.0000 C   0  0  0  0  0  0  0  0  0  0  0  0
    3.2266    0.8820    0.0000 H   0  0  0  0  0  0  0  0  0  0  0  0
    1.0589    1.5455    0.0000 H   0  0  0  0  0  0  0  0  0  0  0  0
   -0.0841   -0.0076    0.0000 H   0  0  0  0  0  0  0  0  0  0  0  0
    2.5176   -2.3641    0.0000 C   0  0  1  0  0  0  0  0  0  0  0  0
    5.0812   -0.9250    0.0000 C   0  0  0  0  0  0  0  0  0  0  0  0
    5.0993    0.5749    0.0000 O   0  0  0  0  0  0  0  0  0  0  0  0
    6.3711   -1.6906    0.0000 C   0  0  0  0  0  0  0  0  0  0  0  0
    7.3214   -2.8512    0.0000 H   0  0  0  0  0  0  0  0  0  0  0  0
    5.3932   -2.8279    0.0000 H   0  0  0  0  0  0  0  0  0  0  0  0
    7.6791   -0.9563    0.0000 O   0  0  0  0  0  0  0  0  0  0  0  0
    8.9690   -1.7219    0.0000 P   0  0  0  0  0  0  0  0  0  0  0  0
   10.4430   -2.0002    0.0000 O   0  0  0  0  0  0  0  0  0  0  0  0
    8.9509   -3.2218    0.0000 O   0  0  0  0  0  0  0  0  0  0  0  0
   10.2408   -3.9875    0.0000 H   0  0  0  0  0  0  0  0  0  0  0  0
    9.4990   -0.3187    0.0000 O   0  0  0  0  0  0  0  0  0  0  0  0
   10.9793   -0.0761    0.0000 H   0  0  0  0  0  0  0  0  0  0  0  0
    1.9134   -0.9912    0.0000 O   0  0  0  0  0  0  0  0  0  0  0  0
    2.8004    0.2185    0.0000 H   0  0  0  0  0  0  0  0  0  0  0  0
   -3.0124   -2.8319    0.0000 O   0  0  0  0  0  0  0  0  0  0  0  0
   -3.7605   -1.5318    0.0000 H   0  0  0  0  0  0  0  0  0  0  0  0
   -3.2183   -3.2989    0.0000 F   0  0  0  0  0  0  0  0  0  0  0  0
  1  2  1  0  0  0  0 
  1  3  1  0  0  0  0 
  1  4  1  0  0  0  0 
  5  1  1  1  0  0  0 
  5  6  1  6  0  0  0 
  5  7  1  0  0  0  0 
  7  8  1  0  0  0  0 
  7  9  1  0  0  0  0 
  7 10  1  0  0  0  0 
 10 11  1  6  0  0  0 
 10 12  1  0  0  0  0 
 12 13  1  1  0  0  0 
 12 14  1  0  0  0  0 
 14 15  1  0  0  0  0 
 14 16  1  0  0  0  0 
 14 17  1  0  0  0  0 
 17 18  1  0  0  0  0 
 17 19  1  0  0  0  0 
 17 20  1  0  0  0  0 
 20 21  2  0  0  0  0 
 21 22  1  0  0  0  0 
 21 23  1  0  0  0  0 
 23 24  2  0  0  0  0 
 23 25  1  0  0  0  0 
 25 26  1  0  0  0  0 
 25 27  2  0  0  0  0 
 27 28  1  0  0  0  0 
 27 29  1  0  0  0  0 
 29 20  1  1  0  0  0 
 29 30  1  0  0  0  0 
 30 31  1  0  0  0  0 
 30 32  1  0  0  0  0 
 30 33  1  0  0  0  0 
 33 34  1  0  0  0  0 
 29 35  1  0  0  0  0 
 12 35  1  0  0  0  0 
 35 36  1  0  0  0  0 
 36 37  1  6  0  0  0 
 36 38  1  0  0  0  0 
 38 39  1  0  0  0  0 
 38 40  1  0  0  0  0 
 38 41  1  0  0  0  0 
 10 41  1  0  0  0  0 
 41 42  1  1  0  0  0 
 42 43  1  0  0  0  0 
 42 44  1  0  0  0  0 
 42 45  1  0  0  0  0 
 41 46  1  0  0  0  0 
  5 46  1  0  0  0  0 
 46 47  1  1  0  0  0 
 47 48  2  0  0  0  0 
 47 49  1  0  0  0  0 
 49 50  1  0  0  0  0 
 49 51  1  0  0  0  0 
 49 52  1  0  0  0  0 
 52 53  1  0  0  0  0 
 53 54  2  0  0  0  0 
 53 55  1  0  0  0  0 
 55 56  1  0  0  0  0 
 53 57  1  0  0  0  0 
 57 58  1  0  0  0  0 
 46 59  1  6  0  0  0 
 59 60  1  0  0  0  0 
 36 61  1  1  0  0  0 
 61 62  1  0  0  0  0 
 35 63  1  6  0  0  0 
M  END
> <Rank>
25

> <Priority_score>
0.004

> <Reaction_type>
aliphatic hydroxylation

> <Parent_ID>
56

> <Parent_InChI>
InChI=1S/C22H30FO8P/c1-12-8-16-15-5-4-13-9-14(24)6-7-19(13,2)21(15,23)17(25)10-20(16,3)22(12,27)18(26)11-31-32(28,29)30/h6-7,9,12,15-17,25,27H,4-5,8,10-11H2,1-3H3,(H2,28,29,30)

> <Parent_SMILES>
C[C@H]1C[C@H]2[C@@H]3CCC4=CC(=O)C=C[C@]4(C)[C@@]3(F)[C@@H](O)C[C@]2(C)[C@@]1(O)C(=O)COP(=O)(O)O

$$$$
Molecule 56_metabolite 27
  CDK     0516241031

 63 66  0  0  0  0  0  0  0  0999 V2000
    4.0671   -3.0473    0.0000 C   0  0  0  0  0  0  0  0  0  0  0  0
    3.7550   -4.5144    0.0000 H   0  0  0  0  0  0  0  0  0  0  0  0
    4.8622   -1.7753    0.0000 H   0  0  0  0  0  0  0  0  0  0  0  0
    5.4578   -3.6094    0.0000 H   0  0  0  0  0  0  0  0  0  0  0  0
    2.2392   -1.4009    0.0000 C   0  0  1  0  0  0  0  0  0  0  0  0
    3.3538   -0.3970    0.0000 H   0  0  0  0  0  0  0  0  0  0  0  0
    1.3592   -2.6109    0.0000 C   0  0  0  0  0  0  0  0  0  0  0  0
    0.7516   -3.9823    0.0000 H   0  0  0  0  0  0  0  0  0  0  0  0
    2.6588   -3.3600    0.0000 H   0  0  0  0  0  0  0  0  0  0  0  0
   -0.0708   -2.1509    0.0000 C   0  0  1  0  0  0  0  0  0  0  0  0
   -1.2826   -1.2669    0.0000 H   0  0  0  0  0  0  0  0  0  0  0  0
   -1.3708   -2.9009    0.0000 C   0  0  2  0  0  0  0  0  0  0  0  0
   -2.6697   -3.6511    0.0000 H   0  0  0  0  0  0  0  0  0  0  0  0
   -1.3708   -4.4009    0.0000 C   0  0  0  0  0  0  0  0  0  0  0  0
   -0.8580   -5.8106    0.0000 H   0  0  0  0  0  0  0  0  0  0  0  0
    0.1065   -4.1406    0.0000 H   0  0  0  0  0  0  0  0  0  0  0  0
   -2.6708   -5.1509    0.0000 C   0  0  0  0  0  0  0  0  0  0  0  0
   -3.6348   -6.3001    0.0000 H   0  0  0  0  0  0  0  0  0  0  0  0
   -1.7067   -6.3001    0.0000 H   0  0  0  0  0  0  0  0  0  0  0  0
   -3.9708   -4.4009    0.0000 C   0  0  0  0  0  0  0  0  0  0  0  0
   -5.2708   -5.1509    0.0000 C   0  0  0  0  0  0  0  0  0  0  0  0
   -5.2708   -6.6509    0.0000 H   0  0  0  0  0  0  0  0  0  0  0  0
   -6.5708   -4.4009    0.0000 C   0  0  0  0  0  0  0  0  0  0  0  0
   -7.8697   -5.1511    0.0000 O   0  0  0  0  0  0  0  0  0  0  0  0
   -6.5708   -2.9009    0.0000 C   0  0  0  0  0  0  0  0  0  0  0  0
   -7.8697   -2.1507    0.0000 H   0  0  0  0  0  0  0  0  0  0  0  0
   -5.2708   -2.1509    0.0000 C   0  0  0  0  0  0  0  0  0  0  0  0
   -5.2708   -0.6509    0.0000 H   0  0  0  0  0  0  0  0  0  0  0  0
   -3.9708   -2.9009    0.0000 C   0  0  1  0  0  0  0  0  0  0  0  0
   -3.7103   -1.4237    0.0000 C   0  0  0  0  0  0  0  0  0  0  0  0
   -5.5948    0.1576    0.0000 H   0  0  0  0  0  0  0  0  0  0  0  0
   -1.8497   -2.1009    0.0000 H   0  0  0  0  0  0  0  0  0  0  0  0
   -2.9603   -0.1247    0.0000 H   0  0  0  0  0  0  0  0  0  0  0  0
   -2.6708   -2.1509    0.0000 C   0  0  1  0  0  0  0  0  0  0  0  0
   -2.6708   -0.6509    0.0000 C   0  0  2  0  0  0  0  0  0  0  0  0
   -1.3708    0.0991    0.0000 C   0  0  0  0  0  0  0  0  0  0  0  0
   -0.4067    1.2483    0.0000 H   0  0  0  0  0  0  0  0  0  0  0  0
   -2.3348    1.2483    0.0000 H   0  0  0  0  0  0  0  0  0  0  0  0
   -0.0708   -0.6509    0.0000 C   0  0  1  0  0  0  0  0  0  0  0  0
    0.2404    2.2726    0.0000 C   0  0  0  0  0  0  0  0  0  0  0  0
    2.4890    3.2702    0.0000 H   0  0  0  0  0  0  0  0  0  0  0  0
   -0.1206    3.7285    0.0000 H   0  0  0  0  0  0  0  0  0  0  0  0
   -1.2561    2.1699    0.0000 H   0  0  0  0  0  0  0  0  0  0  0  0
    1.3592   -0.1909    0.0000 C   0  0  1  0  0  0  0  0  0  0  0  0
    3.9063    1.2774    0.0000 C   0  0  0  0  0  0  0  0  0  0  0  0
    3.9073    2.7774    0.0000 O   0  0  0  0  0  0  0  0  0  0  0  0
    5.2049    0.5266    0.0000 C   0  0  0  0  0  0  0  0  0  0  0  0
    6.1683   -0.6231    0.0000 H   0  0  0  0  0  0  0  0  0  0  0  0
    4.2399   -0.6219    0.0000 H   0  0  0  0  0  0  0  0  0  0  0  0
    6.5044    1.2757    0.0000 O   0  0  0  0  0  0  0  0  0  0  0  0
    7.8029    0.5248    0.0000 P   0  0  0  0  0  0  0  0  0  0  0  0
    9.2800    0.2634    0.0000 O   0  0  0  0  0  0  0  0  0  0  0  0
    7.8019   -0.9752    0.0000 O   0  0  0  0  0  0  0  0  0  0  0  0
    9.1005   -1.7260    0.0000 H   0  0  0  0  0  0  0  0  0  0  0  0
    8.3169    1.9340    0.0000 O   0  0  0  0  0  0  0  0  0  0  0  0
    9.7943    2.1935    0.0000 H   0  0  0  0  0  0  0  0  0  0  0  0
    0.7516    1.1805    0.0000 O   0  0  0  0  0  0  0  0  0  0  0  0
    1.6354    2.3924    0.0000 H   0  0  0  0  0  0  0  0  0  0  0  0
   -3.1835    0.7587    0.0000 O   0  0  0  0  0  0  0  0  0  0  0  0
   -4.6607    1.0195    0.0000 H   0  0  0  0  0  0  0  0  0  0  0  0
   -4.1480   -0.3903    0.0000 O   0  0  0  0  0  0  0  0  0  0  0  0
   -5.1123   -1.5392    0.0000 H   0  0  0  0  0  0  0  0  0  0  0  0
   -4.3853   -1.1606    0.0000 F   0  0  0  0  0  0  0  0  0  0  0  0
  1  2  1  0  0  0  0 
  1  3  1  0  0  0  0 
  1  4  1  0  0  0  0 
  5  1  1  1  0  0  0 
  5  6  1  6  0  0  0 
  5  7  1  0  0  0  0 
  7  8  1  0  0  0  0 
  7  9  1  0  0  0  0 
  7 10  1  0  0  0  0 
 10 11  1  6  0  0  0 
 10 12  1  0  0  0  0 
 12 13  1  1  0  0  0 
 12 14  1  0  0  0  0 
 14 15  1  0  0  0  0 
 14 16  1  0  0  0  0 
 14 17  1  0  0  0  0 
 17 18  1  0  0  0  0 
 17 19  1  0  0  0  0 
 17 20  1  0  0  0  0 
 20 21  2  0  0  0  0 
 21 22  1  0  0  0  0 
 21 23  1  0  0  0  0 
 23 24  2  0  0  0  0 
 23 25  1  0  0  0  0 
 25 26  1  0  0  0  0 
 25 27  2  0  0  0  0 
 27 28  1  0  0  0  0 
 27 29  1  0  0  0  0 
 29 20  1  1  0  0  0 
 29 30  1  0  0  0  0 
 30 31  1  0  0  0  0 
 30 32  1  0  0  0  0 
 30 33  1  0  0  0  0 
 29 34  1  0  0  0  0 
 12 34  1  0  0  0  0 
 34 35  1  0  0  0  0 
 35 36  1  0  0  0  0 
 36 37  1  0  0  0  0 
 36 38  1  0  0  0  0 
 36 39  1  0  0  0  0 
 10 39  1  0  0  0  0 
 39 40  1  1  0  0  0 
 40 41  1  0  0  0  0 
 40 42  1  0  0  0  0 
 40 43  1  0  0  0  0 
 39 44  1  0  0  0  0 
  5 44  1  0  0  0  0 
 44 45  1  1  0  0  0 
 45 46  2  0  0  0  0 
 45 47  1  0  0  0  0 
 47 48  1  0  0  0  0 
 47 49  1  0  0  0  0 
 47 50  1  0  0  0  0 
 50 51  1  0  0  0  0 
 51 52  2  0  0  0  0 
 51 53  1  0  0  0  0 
 53 54  1  0  0  0  0 
 51 55  1  0  0  0  0 
 55 56  1  0  0  0  0 
 44 57  1  6  0  0  0 
 57 58  1  0  0  0  0 
 35 59  1  1  0  0  0 
 59 60  1  0  0  0  0 
 35 61  1  6  0  0  0 
 61 62  1  0  0  0  0 
 34 63  1  6  0  0  0 
M  END
> <Rank>
25

> <Priority_score>
0.004

> <Reaction_type>
aliphatic hydroxylation

> <Parent_ID>
56

> <Parent_InChI>
InChI=1S/C22H30FO8P/c1-12-8-16-15-5-4-13-9-14(24)6-7-19(13,2)21(15,23)17(25)10-20(16,3)22(12,27)18(26)11-31-32(28,29)30/h6-7,9,12,15-17,25,27H,4-5,8,10-11H2,1-3H3,(H2,28,29,30)

> <Parent_SMILES>
C[C@H]1C[C@H]2[C@@H]3CCC4=CC(=O)C=C[C@]4(C)[C@@]3(F)[C@@H](O)C[C@]2(C)[C@@]1(O)C(=O)COP(=O)(O)O

$$$$
Molecule 56_metabolite 28
  CDK     0516241031

 60 63  0  0  0  0  0  0  0  0999 V2000
   -0.9785   -2.8730    0.0000 C   0  0  0  0  0  0  0  0  0  0  0  0
   -1.7046   -1.5605    0.0000 H   0  0  0  0  0  0  0  0  0  0  0  0
   -1.7521   -4.1581    0.0000 H   0  0  0  0  0  0  0  0  0  0  0  0
    1.0012   -2.9092    0.0000 C   0  0  0  0  0  0  0  0  0  0  0  0
    1.8222   -4.1194    0.0000 C   0  0  0  0  0  0  0  0  0  0  0  0
    2.3985   -5.5042    0.0000 H   0  0  0  0  0  0  0  0  0  0  0  0
    0.5024   -4.8322    0.0000 H   0  0  0  0  0  0  0  0  0  0  0  0
    3.2631   -3.6840    0.0000 C   0  0  1  0  0  0  0  0  0  0  0  0
    4.4889   -2.8195    0.0000 H   0  0  0  0  0  0  0  0  0  0  0  0
    4.5154   -4.4344    0.0000 C   0  0  2  0  0  0  0  0  0  0  0  0
    5.7929   -5.2206    0.0000 H   0  0  0  0  0  0  0  0  0  0  0  0
    4.4785   -5.9640    0.0000 C   0  0  0  0  0  0  0  0  0  0  0  0
    3.9410   -7.3644    0.0000 H   0  0  0  0  0  0  0  0  0  0  0  0
    3.0070   -5.6729    0.0000 H   0  0  0  0  0  0  0  0  0  0  0  0
    5.7900   -6.7459    0.0000 C   0  0  0  0  0  0  0  0  0  0  0  0
    6.7299   -7.9149    0.0000 H   0  0  0  0  0  0  0  0  0  0  0  0
    4.8059   -7.8779    0.0000 H   0  0  0  0  0  0  0  0  0  0  0  0
    7.1077   -6.0275    0.0000 C   0  0  0  0  0  0  0  0  0  0  0  0
    8.3592   -6.8079    0.0000 C   0  0  0  0  0  0  0  0  0  0  0  0
    8.3129   -8.3072    0.0000 H   0  0  0  0  0  0  0  0  0  0  0  0
    9.6870   -6.0897    0.0000 C   0  0  0  0  0  0  0  0  0  0  0  0
   10.9661   -6.8732    0.0000 O   0  0  0  0  0  0  0  0  0  0  0  0
    9.7239   -4.5602    0.0000 C   0  0  0  0  0  0  0  0  0  0  0  0
   11.0330   -3.8279    0.0000 H   0  0  0  0  0  0  0  0  0  0  0  0
    8.4316   -3.8088    0.0000 C   0  0  0  0  0  0  0  0  0  0  0  0
    8.9693   -2.4084    0.0000 H   0  0  0  0  0  0  0  0  0  0  0  0
    7.1446   -4.4979    0.0000 C   0  0  1  0  0  0  0  0  0  0  0  0
    8.2029   -1.7550    0.0000 C   0  0  0  0  0  0  0  0  0  0  0  0
    7.2609   -0.5877    0.0000 H   0  0  0  0  0  0  0  0  0  0  0  0
    9.8984   -2.7777    0.0000 H   0  0  0  0  0  0  0  0  0  0  0  0
    9.8200    0.0988    0.0000 H   0  0  0  0  0  0  0  0  0  0  0  0
    5.8624   -3.7468    0.0000 C   0  0  1  0  0  0  0  0  0  0  0  0
    5.8979   -2.2772    0.0000 C   0  0  2  0  0  0  0  0  0  0  0  0
    6.4406   -0.8788    0.0000 H   0  0  0  0  0  0  0  0  0  0  0  0
    4.5866   -1.4853    0.0000 C   0  0  0  0  0  0  0  0  0  0  0  0
    3.6365   -0.3245    0.0000 H   0  0  0  0  0  0  0  0  0  0  0  0
    5.5690   -0.3518    0.0000 H   0  0  0  0  0  0  0  0  0  0  0  0
    3.2986   -2.2144    0.0000 C   0  0  1  0  0  0  0  0  0  0  0  0
    3.0856    0.2363    0.0000 C   0  0  0  0  0  0  0  0  0  0  0  0
    4.3147    1.0960    0.0000 H   0  0  0  0  0  0  0  0  0  0  0  0
    2.4524    1.5961    0.0000 H   0  0  0  0  0  0  0  0  0  0  0  0
    1.6365   -0.1511    0.0000 H   0  0  0  0  0  0  0  0  0  0  0  0
    1.8804   -1.7101    0.0000 C   0  0  1  0  0  0  0  0  0  0  0  0
    0.5905   -0.9444    0.0000 C   0  0  0  0  0  0  0  0  0  0  0  0
   -0.7175   -1.6787    0.0000 O   0  0  0  0  0  0  0  0  0  0  0  0
    0.6202    1.5154    0.0000 C   0  0  0  0  0  0  0  0  0  0  0  0
    0.1242    2.9310    0.0000 H   0  0  0  0  0  0  0  0  0  0  0  0
   -0.8601    1.2728    0.0000 H   0  0  0  0  0  0  0  0  0  0  0  0
    1.9282    2.2497    0.0000 O   0  0  0  0  0  0  0  0  0  0  0  0
    1.9463    3.7495    0.0000 P   0  0  0  0  0  0  0  0  0  0  0  0
    2.4763    5.1528    0.0000 O   0  0  0  0  0  0  0  0  0  0  0  0
    0.6564    4.5152    0.0000 O   0  0  0  0  0  0  0  0  0  0  0  0
    0.6745    6.0151    0.0000 H   0  0  0  0  0  0  0  0  0  0  0  0
    3.4202    3.4713    0.0000 O   0  0  0  0  0  0  0  0  0  0  0  0
    4.3982    4.6086    0.0000 H   0  0  0  0  0  0  0  0  0  0  0  0
    2.5175   -0.3521    0.0000 O   0  0  0  0  0  0  0  0  0  0  0  0
    1.6600    0.8787    0.0000 H   0  0  0  0  0  0  0  0  0  0  0  0
    7.8774   -2.3220    0.0000 O   0  0  0  0  0  0  0  0  0  0  0  0
    8.6566   -1.0403    0.0000 H   0  0  0  0  0  0  0  0  0  0  0  0
    7.3434   -3.5088    0.0000 F   0  0  0  0  0  0  0  0  0  0  0  0
  1  2  1  0  0  0  0 
  1  3  1  0  0  0  0 
  1  4  2  0  0  0  0 
  4  5  1  0  0  0  0 
  5  6  1  0  0  0  0 
  5  7  1  0  0  0  0 
  5  8  1  0  0  0  0 
  8  9  1  1  0  0  0 
  8 10  1  0  0  0  0 
 10 11  1  6  0  0  0 
 10 12  1  0  0  0  0 
 12 13  1  0  0  0  0 
 12 14  1  0  0  0  0 
 12 15  1  0  0  0  0 
 15 16  1  0  0  0  0 
 15 17  1  0  0  0  0 
 15 18  1  0  0  0  0 
 18 19  2  0  0  0  0 
 19 20  1  0  0  0  0 
 19 21  1  0  0  0  0 
 21 22  2  0  0  0  0 
 21 23  1  0  0  0  0 
 23 24  1  0  0  0  0 
 23 25  2  0  0  0  0 
 25 26  1  0  0  0  0 
 25 27  1  0  0  0  0 
 27 18  1  6  0  0  0 
 27 28  1  0  0  0  0 
 28 29  1  0  0  0  0 
 28 30  1  0  0  0  0 
 28 31  1  0  0  0  0 
 27 32  1  0  0  0  0 
 10 32  1  0  0  0  0 
 32 33  1  0  0  0  0 
 33 34  1  1  0  0  0 
 33 35  1  0  0  0  0 
 35 36  1  0  0  0  0 
 35 37  1  0  0  0  0 
 35 38  1  0  0  0  0 
  8 38  1  0  0  0  0 
 38 39  1  6  0  0  0 
 39 40  1  0  0  0  0 
 39 41  1  0  0  0  0 
 39 42  1  0  0  0  0 
 38 43  1  0  0  0  0 
  4 43  1  0  0  0  0 
 43 44  1  6  0  0  0 
 44 45  2  0  0  0  0 
 44 46  1  0  0  0  0 
 46 47  1  0  0  0  0 
 46 48  1  0  0  0  0 
 46 49  1  0  0  0  0 
 49 50  1  0  0  0  0 
 50 51  2  0  0  0  0 
 50 52  1  0  0  0  0 
 52 53  1  0  0  0  0 
 50 54  1  0  0  0  0 
 54 55  1  0  0  0  0 
 43 56  1  1  0  0  0 
 56 57  1  0  0  0  0 
 33 58  1  6  0  0  0 
 58 59  1  0  0  0  0 
 32 60  1  1  0  0  0 
M  END
> <Rank>
28

> <Priority_score>
0.0032

> <Reaction_type>
alkyl dehydrogenation

> <Parent_ID>
56

> <Parent_InChI>
InChI=1S/C22H30FO8P/c1-12-8-16-15-5-4-13-9-14(24)6-7-19(13,2)21(15,23)17(25)10-20(16,3)22(12,27)18(26)11-31-32(28,29)30/h6-7,9,12,15-17,25,27H,4-5,8,10-11H2,1-3H3,(H2,28,29,30)

> <Parent_SMILES>
C[C@H]1C[C@H]2[C@@H]3CCC4=CC(=O)C=C[C@]4(C)[C@@]3(F)[C@@H](O)C[C@]2(C)[C@@]1(O)C(=O)COP(=O)(O)O

$$$$
Molecule 56_metabolite 29
  CDK     0516241031

 60 63  0  0  0  0  0  0  0  0999 V2000
   -0.8015   -1.4439    0.0000 C   0  0  0  0  0  0  0  0  0  0  0  0
   -1.5276   -0.1314    0.0000 H   0  0  0  0  0  0  0  0  0  0  0  0
   -0.5680   -2.9257    0.0000 H   0  0  0  0  0  0  0  0  0  0  0  0
   -2.2202   -1.9311    0.0000 H   0  0  0  0  0  0  0  0  0  0  0  0
    1.1782   -1.4801    0.0000 C   0  0  0  0  0  0  0  0  0  0  0  0
    1.9992   -2.6903    0.0000 C   0  0  0  0  0  0  0  0  0  0  0  0
    1.4981   -4.1041    0.0000 H   0  0  0  0  0  0  0  0  0  0  0  0
    3.4401   -2.2549    0.0000 C   0  0  1  0  0  0  0  0  0  0  0  0
    3.0788   -5.1726    0.0000 H   0  0  0  0  0  0  0  0  0  0  0  0
    4.6924   -3.0054    0.0000 C   0  0  2  0  0  0  0  0  0  0  0  0
    5.9699   -3.7915    0.0000 H   0  0  0  0  0  0  0  0  0  0  0  0
    4.6555   -4.5349    0.0000 C   0  0  0  0  0  0  0  0  0  0  0  0
    4.1180   -5.9353    0.0000 H   0  0  0  0  0  0  0  0  0  0  0  0
    3.1840   -4.2438    0.0000 H   0  0  0  0  0  0  0  0  0  0  0  0
    5.9670   -5.3168    0.0000 C   0  0  0  0  0  0  0  0  0  0  0  0
    6.9069   -6.4858    0.0000 H   0  0  0  0  0  0  0  0  0  0  0  0
    4.9829   -6.4488    0.0000 H   0  0  0  0  0  0  0  0  0  0  0  0
    7.2847   -4.5984    0.0000 C   0  0  0  0  0  0  0  0  0  0  0  0
    8.5362   -5.3788    0.0000 C   0  0  0  0  0  0  0  0  0  0  0  0
    8.4899   -6.8781    0.0000 H   0  0  0  0  0  0  0  0  0  0  0  0
    9.8640   -4.6607    0.0000 C   0  0  0  0  0  0  0  0  0  0  0  0
   11.1431   -5.4441    0.0000 O   0  0  0  0  0  0  0  0  0  0  0  0
    9.9009   -3.1311    0.0000 C   0  0  0  0  0  0  0  0  0  0  0  0
   11.2100   -2.3988    0.0000 H   0  0  0  0  0  0  0  0  0  0  0  0
    8.6086   -2.3797    0.0000 C   0  0  0  0  0  0  0  0  0  0  0  0
    9.1463   -0.9794    0.0000 H   0  0  0  0  0  0  0  0  0  0  0  0
    7.3216   -3.0688    0.0000 C   0  0  1  0  0  0  0  0  0  0  0  0
    8.3799   -0.3259    0.0000 C   0  0  0  0  0  0  0  0  0  0  0  0
    7.4379    0.8414    0.0000 H   0  0  0  0  0  0  0  0  0  0  0  0
   10.0754   -1.3486    0.0000 H   0  0  0  0  0  0  0  0  0  0  0  0
    9.9970    1.5279    0.0000 H   0  0  0  0  0  0  0  0  0  0  0  0
    6.0394   -2.3177    0.0000 C   0  0  1  0  0  0  0  0  0  0  0  0
    6.0749   -0.8481    0.0000 C   0  0  2  0  0  0  0  0  0  0  0  0
    6.6176    0.5503    0.0000 H   0  0  0  0  0  0  0  0  0  0  0  0
    4.7636   -0.0562    0.0000 C   0  0  0  0  0  0  0  0  0  0  0  0
    3.8135    1.1045    0.0000 H   0  0  0  0  0  0  0  0  0  0  0  0
    5.7460    1.0773    0.0000 H   0  0  0  0  0  0  0  0  0  0  0  0
    3.4756   -0.7854    0.0000 C   0  0  1  0  0  0  0  0  0  0  0  0
    3.2626    1.6654    0.0000 C   0  0  0  0  0  0  0  0  0  0  0  0
    4.4918    2.5251    0.0000 H   0  0  0  0  0  0  0  0  0  0  0  0
    2.6294    3.0252    0.0000 H   0  0  0  0  0  0  0  0  0  0  0  0
    1.8135    1.2780    0.0000 H   0  0  0  0  0  0  0  0  0  0  0  0
    2.0574   -0.2810    0.0000 C   0  0  1  0  0  0  0  0  0  0  0  0
    0.7675    0.4846    0.0000 C   0  0  0  0  0  0  0  0  0  0  0  0
   -0.5405   -0.2496    0.0000 O   0  0  0  0  0  0  0  0  0  0  0  0
    0.7972    2.9445    0.0000 C   0  0  0  0  0  0  0  0  0  0  0  0
    0.3012    4.3601    0.0000 H   0  0  0  0  0  0  0  0  0  0  0  0
   -0.6831    2.7018    0.0000 H   0  0  0  0  0  0  0  0  0  0  0  0
    2.1052    3.6787    0.0000 O   0  0  0  0  0  0  0  0  0  0  0  0
    2.1233    5.1786    0.0000 P   0  0  0  0  0  0  0  0  0  0  0  0
    2.6533    6.5819    0.0000 O   0  0  0  0  0  0  0  0  0  0  0  0
    0.8334    5.9442    0.0000 O   0  0  0  0  0  0  0  0  0  0  0  0
    0.8515    7.4441    0.0000 H   0  0  0  0  0  0  0  0  0  0  0  0
    3.5972    4.9003    0.0000 O   0  0  0  0  0  0  0  0  0  0  0  0
    4.5752    6.0377    0.0000 H   0  0  0  0  0  0  0  0  0  0  0  0
    2.6945    1.0770    0.0000 O   0  0  0  0  0  0  0  0  0  0  0  0
    1.8370    2.3077    0.0000 H   0  0  0  0  0  0  0  0  0  0  0  0
    8.0544   -0.8929    0.0000 O   0  0  0  0  0  0  0  0  0  0  0  0
    8.8336    0.3888    0.0000 H   0  0  0  0  0  0  0  0  0  0  0  0
    7.3497   -1.5875    0.0000 F   0  0  0  0  0  0  0  0  0  0  0  0
  1  2  1  0  0  0  0 
  1  3  1  0  0  0  0 
  1  4  1  0  0  0  0 
  1  5  1  0  0  0  0 
  5  6  2  0  0  0  0 
  6  7  1  0  0  0  0 
  6  8  1  0  0  0  0 
  8  9  1  1  0  0  0 
  8 10  1  0  0  0  0 
 10 11  1  6  0  0  0 
 10 12  1  0  0  0  0 
 12 13  1  0  0  0  0 
 12 14  1  0  0  0  0 
 12 15  1  0  0  0  0 
 15 16  1  0  0  0  0 
 15 17  1  0  0  0  0 
 15 18  1  0  0  0  0 
 18 19  2  0  0  0  0 
 19 20  1  0  0  0  0 
 19 21  1  0  0  0  0 
 21 22  2  0  0  0  0 
 21 23  1  0  0  0  0 
 23 24  1  0  0  0  0 
 23 25  2  0  0  0  0 
 25 26  1  0  0  0  0 
 25 27  1  0  0  0  0 
 27 18  1  6  0  0  0 
 27 28  1  0  0  0  0 
 28 29  1  0  0  0  0 
 28 30  1  0  0  0  0 
 28 31  1  0  0  0  0 
 27 32  1  0  0  0  0 
 10 32  1  0  0  0  0 
 32 33  1  0  0  0  0 
 33 34  1  1  0  0  0 
 33 35  1  0  0  0  0 
 35 36  1  0  0  0  0 
 35 37  1  0  0  0  0 
 35 38  1  0  0  0  0 
  8 38  1  0  0  0  0 
 38 39  1  6  0  0  0 
 39 40  1  0  0  0  0 
 39 41  1  0  0  0  0 
 39 42  1  0  0  0  0 
 38 43  1  0  0  0  0 
  5 43  1  0  0  0  0 
 43 44  1  6  0  0  0 
 44 45  2  0  0  0  0 
 44 46  1  0  0  0  0 
 46 47  1  0  0  0  0 
 46 48  1  0  0  0  0 
 46 49  1  0  0  0  0 
 49 50  1  0  0  0  0 
 50 51  2  0  0  0  0 
 50 52  1  0  0  0  0 
 52 53  1  0  0  0  0 
 50 54  1  0  0  0  0 
 54 55  1  0  0  0  0 
 43 56  1  1  0  0  0 
 56 57  1  0  0  0  0 
 33 58  1  6  0  0  0 
 58 59  1  0  0  0  0 
 32 60  1  1  0  0  0 
M  END
> <Rank>
29

> <Priority_score>
0.0016

> <Reaction_type>
alkyl dehydrogenation

> <Parent_ID>
56

> <Parent_InChI>
InChI=1S/C22H30FO8P/c1-12-8-16-15-5-4-13-9-14(24)6-7-19(13,2)21(15,23)17(25)10-20(16,3)22(12,27)18(26)11-31-32(28,29)30/h6-7,9,12,15-17,25,27H,4-5,8,10-11H2,1-3H3,(H2,28,29,30)

> <Parent_SMILES>
C[C@H]1C[C@H]2[C@@H]3CCC4=CC(=O)C=C[C@]4(C)[C@@]3(F)[C@@H](O)C[C@]2(C)[C@@]1(O)C(=O)COP(=O)(O)O

$$$$
Molecule 56_metabolite 30
  CDK     0516241031

 60 63  0  0  0  0  0  0  0  0999 V2000
    2.8718   -3.2853    0.0000 C   0  0  0  0  0  0  0  0  0  0  0  0
    3.1500   -4.7593    0.0000 H   0  0  0  0  0  0  0  0  0  0  0  0
    2.1063   -1.9953    0.0000 H   0  0  0  0  0  0  0  0  0  0  0  0
    1.4685   -3.8152    0.0000 H   0  0  0  0  0  0  0  0  0  0  0  0
    4.3732   -1.9945    0.0000 C   0  0  1  0  0  0  0  0  0  0  0  0
    3.2723   -0.9757    0.0000 H   0  0  0  0  0  0  0  0  0  0  0  0
    5.1942   -3.2046    0.0000 C   0  0  0  0  0  0  0  0  0  0  0  0
    5.7705   -4.5895    0.0000 H   0  0  0  0  0  0  0  0  0  0  0  0
    3.8744   -3.9175    0.0000 H   0  0  0  0  0  0  0  0  0  0  0  0
    6.6352   -2.7693    0.0000 C   0  0  1  0  0  0  0  0  0  0  0  0
    7.8610   -1.9047    0.0000 H   0  0  0  0  0  0  0  0  0  0  0  0
    7.8874   -3.5197    0.0000 C   0  0  2  0  0  0  0  0  0  0  0  0
    9.1649   -4.3059    0.0000 H   0  0  0  0  0  0  0  0  0  0  0  0
    7.8505   -5.0493    0.0000 C   0  0  0  0  0  0  0  0  0  0  0  0
    7.3130   -6.4497    0.0000 H   0  0  0  0  0  0  0  0  0  0  0  0
    6.3790   -4.7582    0.0000 H   0  0  0  0  0  0  0  0  0  0  0  0
    9.1620   -5.8312    0.0000 C   0  0  0  0  0  0  0  0  0  0  0  0
   10.1019   -7.0002    0.0000 H   0  0  0  0  0  0  0  0  0  0  0  0
    8.1779   -6.9632    0.0000 H   0  0  0  0  0  0  0  0  0  0  0  0
   10.4797   -5.1127    0.0000 C   0  0  0  0  0  0  0  0  0  0  0  0
   11.7313   -5.8932    0.0000 C   0  0  0  0  0  0  0  0  0  0  0  0
   11.6850   -7.3925    0.0000 H   0  0  0  0  0  0  0  0  0  0  0  0
   13.0590   -5.1750    0.0000 C   0  0  0  0  0  0  0  0  0  0  0  0
   14.3381   -5.9585    0.0000 O   0  0  0  0  0  0  0  0  0  0  0  0
   13.0959   -3.6455    0.0000 C   0  0  0  0  0  0  0  0  0  0  0  0
   14.4050   -2.9132    0.0000 H   0  0  0  0  0  0  0  0  0  0  0  0
   11.8037   -2.8941    0.0000 C   0  0  0  0  0  0  0  0  0  0  0  0
   11.8552    0.0455    0.0000 H   0  0  0  0  0  0  0  0  0  0  0  0
   10.5166   -3.5832    0.0000 C   0  0  1  0  0  0  0  0  0  0  0  0
   10.8978   -1.6402    0.0000 C   0  0  0  0  0  0  0  0  0  0  0  0
    9.7674   -0.6542    0.0000 H   0  0  0  0  0  0  0  0  0  0  0  0
   12.2972   -2.1802    0.0000 H   0  0  0  0  0  0  0  0  0  0  0  0
   12.4163    0.8773    0.0000 H   0  0  0  0  0  0  0  0  0  0  0  0
    9.2344   -2.8320    0.0000 C   0  0  1  0  0  0  0  0  0  0  0  0
    9.2699   -1.3625    0.0000 C   0  0  0  0  0  0  0  0  0  0  0  0
    7.9586   -0.5706    0.0000 C   0  0  0  0  0  0  0  0  0  0  0  0
    7.9797    0.9293    0.0000 H   0  0  0  0  0  0  0  0  0  0  0  0
    6.6706   -1.2997    0.0000 C   0  0  1  0  0  0  0  0  0  0  0  0
    6.5407    0.1947    0.0000 C   0  0  0  0  0  0  0  0  0  0  0  0
    5.1816    0.8293    0.0000 H   0  0  0  0  0  0  0  0  0  0  0  0
    6.9297    1.6433    0.0000 H   0  0  0  0  0  0  0  0  0  0  0  0
    8.0349    0.0631    0.0000 H   0  0  0  0  0  0  0  0  0  0  0  0
    5.2524   -0.7953    0.0000 C   0  0  1  0  0  0  0  0  0  0  0  0
    3.1370    0.4603    0.0000 C   0  0  0  0  0  0  0  0  0  0  0  0
    0.5733   -0.9789    0.0000 O   0  0  0  0  0  0  0  0  0  0  0  0
    3.1551    1.9602    0.0000 C   0  0  0  0  0  0  0  0  0  0  0  0
    2.6591    3.3758    0.0000 H   0  0  0  0  0  0  0  0  0  0  0  0
    1.6748    1.7175    0.0000 H   0  0  0  0  0  0  0  0  0  0  0  0
    4.4631    2.6944    0.0000 O   0  0  0  0  0  0  0  0  0  0  0  0
    4.4812    4.1943    0.0000 P   0  0  0  0  0  0  0  0  0  0  0  0
    5.0112    5.5976    0.0000 O   0  0  0  0  0  0  0  0  0  0  0  0
    3.1913    4.9600    0.0000 O   0  0  0  0  0  0  0  0  0  0  0  0
    3.2094    6.4598    0.0000 H   0  0  0  0  0  0  0  0  0  0  0  0
    5.9551    3.9161    0.0000 O   0  0  0  0  0  0  0  0  0  0  0  0
    6.9331    5.0534    0.0000 H   0  0  0  0  0  0  0  0  0  0  0  0
    5.8895    0.5626    0.0000 O   0  0  0  0  0  0  0  0  0  0  0  0
    5.0320    1.7934    0.0000 H   0  0  0  0  0  0  0  0  0  0  0  0
   10.5850   -0.6411    0.0000 O   0  0  0  0  0  0  0  0  0  0  0  0
   10.6179    0.8585    0.0000 H   0  0  0  0  0  0  0  0  0  0  0  0
   10.7154   -2.5941    0.0000 F   0  0  0  0  0  0  0  0  0  0  0  0
  1  2  1  0  0  0  0 
  1  3  1  0  0  0  0 
  1  4  1  0  0  0  0 
  5  1  1  6  0  0  0 
  5  6  1  1  0  0  0 
  5  7  1  0  0  0  0 
  7  8  1  0  0  0  0 
  7  9  1  0  0  0  0 
  7 10  1  0  0  0  0 
 10 11  1  1  0  0  0 
 10 12  1  0  0  0  0 
 12 13  1  6  0  0  0 
 12 14  1  0  0  0  0 
 14 15  1  0  0  0  0 
 14 16  1  0  0  0  0 
 14 17  1  0  0  0  0 
 17 18  1  0  0  0  0 
 17 19  1  0  0  0  0 
 17 20  1  0  0  0  0 
 20 21  2  0  0  0  0 
 21 22  1  0  0  0  0 
 21 23  1  0  0  0  0 
 23 24  2  0  0  0  0 
 23 25  1  0  0  0  0 
 25 26  1  0  0  0  0 
 25 27  2  0  0  0  0 
 27 28  1  0  0  0  0 
 27 29  1  0  0  0  0 
 29 20  1  6  0  0  0 
 29 30  1  0  0  0  0 
 30 31  1  0  0  0  0 
 30 32  1  0  0  0  0 
 30 33  1  0  0  0  0 
 29 34  1  0  0  0  0 
 12 34  1  0  0  0  0 
 34 35  1  0  0  0  0 
 35 36  2  0  0  0  0 
 36 37  1  0  0  0  0 
 38 36  1  1  0  0  0 
 10 38  1  0  0  0  0 
 38 39  1  0  0  0  0 
 39 40  1  0  0  0  0 
 39 41  1  0  0  0  0 
 39 42  1  0  0  0  0 
 38 43  1  0  0  0  0 
  5 43  1  0  0  0  0 
 43 44  1  6  0  0  0 
 44 45  2  0  0  0  0 
 44 46  1  0  0  0  0 
 46 47  1  0  0  0  0 
 46 48  1  0  0  0  0 
 46 49  1  0  0  0  0 
 49 50  1  0  0  0  0 
 50 51  2  0  0  0  0 
 50 52  1  0  0  0  0 
 52 53  1  0  0  0  0 
 50 54  1  0  0  0  0 
 54 55  1  0  0  0  0 
 43 56  1  1  0  0  0 
 56 57  1  0  0  0  0 
 35 58  1  0  0  0  0 
 58 59  1  0  0  0  0 
 34 60  1  1  0  0  0 
M  END
> <Rank>
30

> <Priority_score>
8.0E-4

> <Reaction_type>
alkyl dehydrogenation

> <Parent_ID>
56

> <Parent_InChI>
InChI=1S/C22H30FO8P/c1-12-8-16-15-5-4-13-9-14(24)6-7-19(13,2)21(15,23)17(25)10-20(16,3)22(12,27)18(26)11-31-32(28,29)30/h6-7,9,12,15-17,25,27H,4-5,8,10-11H2,1-3H3,(H2,28,29,30)

> <Parent_SMILES>
C[C@H]1C[C@H]2[C@@H]3CCC4=CC(=O)C=C[C@]4(C)[C@@]3(F)[C@@H](O)C[C@]2(C)[C@@]1(O)C(=O)COP(=O)(O)O

$$$$
Molecule 56_metabolite 31
  CDK     0516241031

 63 66  0  0  0  0  0  0  0  0999 V2000
    7.7280   -6.1510    0.0000 C   0  0  0  0  0  0  0  0  0  0  0  0
    7.4159   -7.6182    0.0000 H   0  0  0  0  0  0  0  0  0  0  0  0
    8.5230   -4.8791    0.0000 H   0  0  0  0  0  0  0  0  0  0  0  0
    9.1186   -6.7131    0.0000 H   0  0  0  0  0  0  0  0  0  0  0  0
    5.9001   -4.5047    0.0000 C   0  0  1  0  0  0  0  0  0  0  0  0
    7.0146   -3.5008    0.0000 H   0  0  0  0  0  0  0  0  0  0  0  0
    5.0201   -5.7147    0.0000 C   0  0  0  0  0  0  0  0  0  0  0  0
    4.4124   -7.0861    0.0000 H   0  0  0  0  0  0  0  0  0  0  0  0
    6.3196   -6.4638    0.0000 H   0  0  0  0  0  0  0  0  0  0  0  0
    3.5901   -5.2547    0.0000 C   0  0  1  0  0  0  0  0  0  0  0  0
    2.3783   -4.3706    0.0000 H   0  0  0  0  0  0  0  0  0  0  0  0
    2.2901   -6.0047    0.0000 C   0  0  2  0  0  0  0  0  0  0  0  0
    0.9912   -6.7549    0.0000 H   0  0  0  0  0  0  0  0  0  0  0  0
    2.2901   -7.5047    0.0000 C   0  0  0  0  0  0  0  0  0  0  0  0
    2.8028   -8.9143    0.0000 H   0  0  0  0  0  0  0  0  0  0  0  0
    3.7673   -7.2443    0.0000 H   0  0  0  0  0  0  0  0  0  0  0  0
    0.9901   -8.2547    0.0000 C   0  0  0  0  0  0  0  0  0  0  0  0
    0.0260   -9.4038    0.0000 H   0  0  0  0  0  0  0  0  0  0  0  0
    1.9541   -9.4038    0.0000 H   0  0  0  0  0  0  0  0  0  0  0  0
   -0.3099   -7.5047    0.0000 C   0  0  0  0  0  0  0  0  0  0  0  0
   -1.6099   -8.2547    0.0000 C   0  0  0  0  0  0  0  0  0  0  0  0
   -1.6099   -9.7547    0.0000 H   0  0  0  0  0  0  0  0  0  0  0  0
   -2.9099   -7.5047    0.0000 C   0  0  0  0  0  0  0  0  0  0  0  0
   -4.2088   -8.2549    0.0000 O   0  0  0  0  0  0  0  0  0  0  0  0
   -2.9099   -6.0047    0.0000 C   0  0  0  0  0  0  0  0  0  0  0  0
   -4.2088   -5.2545    0.0000 H   0  0  0  0  0  0  0  0  0  0  0  0
   -1.6099   -5.2547    0.0000 C   0  0  0  0  0  0  0  0  0  0  0  0
   -1.6099   -2.7947    0.0000 H   0  0  0  0  0  0  0  0  0  0  0  0
   -0.3099   -6.0047    0.0000 C   0  0  1  0  0  0  0  0  0  0  0  0
   -0.0494   -4.5275    0.0000 C   0  0  0  0  0  0  0  0  0  0  0  0
    2.2622   -3.6861    0.0000 H   0  0  0  0  0  0  0  0  0  0  0  0
   -2.9894   -4.5275    0.0000 H   0  0  0  0  0  0  0  0  0  0  0  0
   -0.5600   -1.6321    0.0000 H   0  0  0  0  0  0  0  0  0  0  0  0
    0.9901   -5.2547    0.0000 C   0  0  1  0  0  0  0  0  0  0  0  0
    0.9901   -3.7547    0.0000 C   0  0  2  0  0  0  0  0  0  0  0  0
    0.4774   -2.3450    0.0000 H   0  0  0  0  0  0  0  0  0  0  0  0
    2.2901   -3.0047    0.0000 C   0  0  0  0  0  0  0  0  0  0  0  0
    3.2541   -1.8555    0.0000 H   0  0  0  0  0  0  0  0  0  0  0  0
    3.5901   -3.7547    0.0000 C   0  0  1  0  0  0  0  0  0  0  0  0
    3.9012   -0.8312    0.0000 C   0  0  0  0  0  0  0  0  0  0  0  0
    6.1498    0.1665    0.0000 H   0  0  0  0  0  0  0  0  0  0  0  0
    3.5402    0.6247    0.0000 H   0  0  0  0  0  0  0  0  0  0  0  0
    2.4047   -0.9339    0.0000 H   0  0  0  0  0  0  0  0  0  0  0  0
    5.0201   -3.2947    0.0000 C   0  0  1  0  0  0  0  0  0  0  0  0
    7.5672   -1.8263    0.0000 C   0  0  0  0  0  0  0  0  0  0  0  0
    7.5682   -0.3263    0.0000 O   0  0  0  0  0  0  0  0  0  0  0  0
    8.8657   -2.5772    0.0000 C   0  0  0  0  0  0  0  0  0  0  0  0
    9.8291   -3.7269    0.0000 H   0  0  0  0  0  0  0  0  0  0  0  0
    7.9008   -3.7256    0.0000 H   0  0  0  0  0  0  0  0  0  0  0  0
   10.1652   -1.8281    0.0000 O   0  0  0  0  0  0  0  0  0  0  0  0
   11.4638   -2.5789    0.0000 P   0  0  0  0  0  0  0  0  0  0  0  0
   12.9408   -2.8404    0.0000 O   0  0  0  0  0  0  0  0  0  0  0  0
   11.4628   -4.0789    0.0000 O   0  0  0  0  0  0  0  0  0  0  0  0
   12.7613   -4.8298    0.0000 H   0  0  0  0  0  0  0  0  0  0  0  0
   11.9777   -1.1697    0.0000 O   0  0  0  0  0  0  0  0  0  0  0  0
   13.4551   -0.9102    0.0000 H   0  0  0  0  0  0  0  0  0  0  0  0
    4.4124   -1.9232    0.0000 O   0  0  0  0  0  0  0  0  0  0  0  0
    5.2963   -0.7113    0.0000 H   0  0  0  0  0  0  0  0  0  0  0  0
    0.7090   -1.1200    0.0000 O   0  0  0  0  0  0  0  0  0  0  0  0
    1.2222    0.2895    0.0000 H   0  0  0  0  0  0  0  0  0  0  0  0
   -1.9053   -4.2649    0.0000 O   0  0  0  0  0  0  0  0  0  0  0  0
   -2.8694   -3.1157    0.0000 H   0  0  0  0  0  0  0  0  0  0  0  0
   -0.5909   -3.3699    0.0000 F   0  0  0  0  0  0  0  0  0  0  0  0
  1  2  1  0  0  0  0 
  1  3  1  0  0  0  0 
  1  4  1  0  0  0  0 
  5  1  1  1  0  0  0 
  5  6  1  6  0  0  0 
  5  7  1  0  0  0  0 
  7  8  1  0  0  0  0 
  7  9  1  0  0  0  0 
  7 10  1  0  0  0  0 
 10 11  1  6  0  0  0 
 10 12  1  0  0  0  0 
 12 13  1  1  0  0  0 
 12 14  1  0  0  0  0 
 14 15  1  0  0  0  0 
 14 16  1  0  0  0  0 
 14 17  1  0  0  0  0 
 17 18  1  0  0  0  0 
 17 19  1  0  0  0  0 
 17 20  1  0  0  0  0 
 20 21  2  0  0  0  0 
 21 22  1  0  0  0  0 
 21 23  1  0  0  0  0 
 23 24  2  0  0  0  0 
 23 25  1  0  0  0  0 
 25 26  1  0  0  0  0 
 25 27  2  0  0  0  0 
 27 28  1  0  0  0  0 
 27 29  1  0  0  0  0 
 29 20  1  1  0  0  0 
 29 30  1  0  0  0  0 
 30 31  1  0  0  0  0 
 30 32  1  0  0  0  0 
 30 33  1  0  0  0  0 
 29 34  1  0  0  0  0 
 12 34  1  0  0  0  0 
 34 35  1  0  0  0  0 
 35 36  1  6  0  0  0 
 35 37  1  0  0  0  0 
 37 38  1  0  0  0  0 
 37 39  1  0  0  0  0 
 10 39  1  0  0  0  0 
 39 40  1  1  0  0  0 
 40 41  1  0  0  0  0 
 40 42  1  0  0  0  0 
 40 43  1  0  0  0  0 
 39 44  1  0  0  0  0 
  5 44  1  0  0  0  0 
 44 45  1  1  0  0  0 
 45 46  2  0  0  0  0 
 45 47  1  0  0  0  0 
 47 48  1  0  0  0  0 
 47 49  1  0  0  0  0 
 47 50  1  0  0  0  0 
 50 51  1  0  0  0  0 
 51 52  2  0  0  0  0 
 51 53  1  0  0  0  0 
 53 54  1  0  0  0  0 
 51 55  1  0  0  0  0 
 55 56  1  0  0  0  0 
 44 57  1  6  0  0  0 
 57 58  1  0  0  0  0 
 37 59  1  0  0  0  0 
 59 60  1  0  0  0  0 
 35 61  1  1  0  0  0 
 61 62  1  0  0  0  0 
 34 63  1  6  0  0  0 
M  END
> <Rank>
31

> <Priority_score>
0.0

> <Reaction_type>
aliphatic hydroxylation

> <Parent_ID>
56

> <Parent_InChI>
InChI=1S/C22H30FO8P/c1-12-8-16-15-5-4-13-9-14(24)6-7-19(13,2)21(15,23)17(25)10-20(16,3)22(12,27)18(26)11-31-32(28,29)30/h6-7,9,12,15-17,25,27H,4-5,8,10-11H2,1-3H3,(H2,28,29,30)

> <Parent_SMILES>
C[C@H]1C[C@H]2[C@@H]3CCC4=CC(=O)C=C[C@]4(C)[C@@]3(F)[C@@H](O)C[C@]2(C)[C@@]1(O)C(=O)COP(=O)(O)O

$$$$
Molecule 56_metabolite 32
  CDK     0516241031

 63 66  0  0  0  0  0  0  0  0999 V2000
    5.6048   -6.6538    0.0000 C   0  0  0  0  0  0  0  0  0  0  0  0
    5.8830   -8.1277    0.0000 H   0  0  0  0  0  0  0  0  0  0  0  0
    4.8393   -5.3638    0.0000 H   0  0  0  0  0  0  0  0  0  0  0  0
    4.2015   -7.1837    0.0000 H   0  0  0  0  0  0  0  0  0  0  0  0
    7.1062   -5.3629    0.0000 C   0  0  1  0  0  0  0  0  0  0  0  0
    6.0052   -4.3441    0.0000 H   0  0  0  0  0  0  0  0  0  0  0  0
    7.9272   -6.5731    0.0000 C   0  0  0  0  0  0  0  0  0  0  0  0
    8.5035   -7.9580    0.0000 H   0  0  0  0  0  0  0  0  0  0  0  0
    6.6074   -7.2859    0.0000 H   0  0  0  0  0  0  0  0  0  0  0  0
    9.3681   -6.1378    0.0000 C   0  0  1  0  0  0  0  0  0  0  0  0
   10.5939   -5.2732    0.0000 H   0  0  0  0  0  0  0  0  0  0  0  0
   10.6204   -6.8882    0.0000 C   0  0  2  0  0  0  0  0  0  0  0  0
   11.8979   -7.6743    0.0000 H   0  0  0  0  0  0  0  0  0  0  0  0
   10.5835   -8.4177    0.0000 C   0  0  0  0  0  0  0  0  0  0  0  0
   10.0460   -9.8182    0.0000 H   0  0  0  0  0  0  0  0  0  0  0  0
    9.1120   -8.1267    0.0000 H   0  0  0  0  0  0  0  0  0  0  0  0
   11.8950   -9.1996    0.0000 C   0  0  0  0  0  0  0  0  0  0  0  0
   12.8349  -10.3687    0.0000 H   0  0  0  0  0  0  0  0  0  0  0  0
   10.9109  -10.3317    0.0000 H   0  0  0  0  0  0  0  0  0  0  0  0
   13.2127   -8.4812    0.0000 C   0  0  0  0  0  0  0  0  0  0  0  0
   14.4642   -9.2617    0.0000 C   0  0  0  0  0  0  0  0  0  0  0  0
   14.4179  -10.7609    0.0000 H   0  0  0  0  0  0  0  0  0  0  0  0
   15.7920   -8.5435    0.0000 C   0  0  0  0  0  0  0  0  0  0  0  0
   17.0711   -9.3269    0.0000 O   0  0  0  0  0  0  0  0  0  0  0  0
   15.8289   -7.0139    0.0000 C   0  0  0  0  0  0  0  0  0  0  0  0
   17.1380   -6.2817    0.0000 H   0  0  0  0  0  0  0  0  0  0  0  0
   14.5366   -6.2625    0.0000 C   0  0  0  0  0  0  0  0  0  0  0  0
   15.4184   -3.9660    0.0000 H   0  0  0  0  0  0  0  0  0  0  0  0
   13.2496   -6.9517    0.0000 C   0  0  1  0  0  0  0  0  0  0  0  0
   14.7681   -4.4342    0.0000 C   0  0  0  0  0  0  0  0  0  0  0  0
   14.0432   -3.1210    0.0000 H   0  0  0  0  0  0  0  0  0  0  0  0
   15.8985   -5.4202    0.0000 H   0  0  0  0  0  0  0  0  0  0  0  0
   16.6826   -2.8893    0.0000 H   0  0  0  0  0  0  0  0  0  0  0  0
   11.9674   -6.2005    0.0000 C   0  0  1  0  0  0  0  0  0  0  0  0
   12.0029   -4.7309    0.0000 C   0  0  2  0  0  0  0  0  0  0  0  0
   12.5456   -3.3326    0.0000 H   0  0  0  0  0  0  0  0  0  0  0  0
   10.6916   -3.9391    0.0000 C   0  0  0  0  0  0  0  0  0  0  0  0
    9.7415   -2.7783    0.0000 H   0  0  0  0  0  0  0  0  0  0  0  0
   11.6740   -2.8055    0.0000 H   0  0  0  0  0  0  0  0  0  0  0  0
    9.4036   -4.6682    0.0000 C   0  0  1  0  0  0  0  0  0  0  0  0
    9.1906   -2.2174    0.0000 C   0  0  0  0  0  0  0  0  0  0  0  0
    8.5574   -0.8576    0.0000 H   0  0  0  0  0  0  0  0  0  0  0  0
    7.7415   -2.6049    0.0000 H   0  0  0  0  0  0  0  0  0  0  0  0
   10.4198   -1.3577    0.0000 O   0  0  0  0  0  0  0  0  0  0  0  0
   10.2898    0.1366    0.0000 H   0  0  0  0  0  0  0  0  0  0  0  0
    7.9854   -4.1638    0.0000 C   0  0  1  0  0  0  0  0  0  0  0  0
    5.8700   -2.9082    0.0000 C   0  0  0  0  0  0  0  0  0  0  0  0
    4.5620   -3.6425    0.0000 O   0  0  0  0  0  0  0  0  0  0  0  0
    5.8881   -1.4083    0.0000 C   0  0  0  0  0  0  0  0  0  0  0  0
    6.4181   -0.0051    0.0000 H   0  0  0  0  0  0  0  0  0  0  0  0
    7.3620   -1.6866    0.0000 H   0  0  0  0  0  0  0  0  0  0  0  0
    4.5982   -0.6427    0.0000 O   0  0  0  0  0  0  0  0  0  0  0  0
    4.6163    0.8572    0.0000 P   0  0  0  0  0  0  0  0  0  0  0  0
    4.1203    2.2728    0.0000 O   0  0  0  0  0  0  0  0  0  0  0  0
    5.9243    1.5915    0.0000 O   0  0  0  0  0  0  0  0  0  0  0  0
    5.9424    3.0914    0.0000 H   0  0  0  0  0  0  0  0  0  0  0  0
    3.1360    0.6146    0.0000 O   0  0  0  0  0  0  0  0  0  0  0  0
    2.1858    1.7752    0.0000 H   0  0  0  0  0  0  0  0  0  0  0  0
    8.6225   -2.8058    0.0000 O   0  0  0  0  0  0  0  0  0  0  0  0
    7.2162   -0.7874    0.0000 H   0  0  0  0  0  0  0  0  0  0  0  0
   13.5025   -4.7649    0.0000 O   0  0  0  0  0  0  0  0  0  0  0  0
   15.0298   -2.2527    0.0000 H   0  0  0  0  0  0  0  0  0  0  0  0
   13.2777   -5.4704    0.0000 F   0  0  0  0  0  0  0  0  0  0  0  0
  1  2  1  0  0  0  0 
  1  3  1  0  0  0  0 
  1  4  1  0  0  0  0 
  5  1  1  6  0  0  0 
  5  6  1  1  0  0  0 
  5  7  1  0  0  0  0 
  7  8  1  0  0  0  0 
  7  9  1  0  0  0  0 
  7 10  1  0  0  0  0 
 10 11  1  1  0  0  0 
 10 12  1  0  0  0  0 
 12 13  1  6  0  0  0 
 12 14  1  0  0  0  0 
 14 15  1  0  0  0  0 
 14 16  1  0  0  0  0 
 14 17  1  0  0  0  0 
 17 18  1  0  0  0  0 
 17 19  1  0  0  0  0 
 17 20  1  0  0  0  0 
 20 21  2  0  0  0  0 
 21 22  1  0  0  0  0 
 21 23  1  0  0  0  0 
 23 24  2  0  0  0  0 
 23 25  1  0  0  0  0 
 25 26  1  0  0  0  0 
 25 27  2  0  0  0  0 
 27 28  1  0  0  0  0 
 27 29  1  0  0  0  0 
 29 20  1  6  0  0  0 
 29 30  1  0  0  0  0 
 30 31  1  0  0  0  0 
 30 32  1  0  0  0  0 
 30 33  1  0  0  0  0 
 29 34  1  0  0  0  0 
 12 34  1  0  0  0  0 
 34 35  1  0  0  0  0 
 35 36  1  1  0  0  0 
 35 37  1  0  0  0  0 
 37 38  1  0  0  0  0 
 37 39  1  0  0  0  0 
 37 40  1  0  0  0  0 
 10 40  1  0  0  0  0 
 40 41  1  6  0  0  0 
 41 42  1  0  0  0  0 
 41 43  1  0  0  0  0 
 41 44  1  0  0  0  0 
 44 45  1  0  0  0  0 
 40 46  1  0  0  0  0 
  5 46  1  0  0  0  0 
 46 47  1  6  0  0  0 
 47 48  2  0  0  0  0 
 47 49  1  0  0  0  0 
 49 50  1  0  0  0  0 
 49 51  1  0  0  0  0 
 49 52  1  0  0  0  0 
 52 53  1  0  0  0  0 
 53 54  2  0  0  0  0 
 53 55  1  0  0  0  0 
 55 56  1  0  0  0  0 
 53 57  1  0  0  0  0 
 57 58  1  0  0  0  0 
 46 59  1  1  0  0  0 
 59 60  1  0  0  0  0 
 35 61  1  6  0  0  0 
 61 62  1  0  0  0  0 
 34 63  1  1  0  0  0 
M  END
> <Rank>
31

> <Priority_score>
0.0

> <Reaction_type>
aliphatic hydroxylation

> <Parent_ID>
56

> <Parent_InChI>
InChI=1S/C22H30FO8P/c1-12-8-16-15-5-4-13-9-14(24)6-7-19(13,2)21(15,23)17(25)10-20(16,3)22(12,27)18(26)11-31-32(28,29)30/h6-7,9,12,15-17,25,27H,4-5,8,10-11H2,1-3H3,(H2,28,29,30)

> <Parent_SMILES>
C[C@H]1C[C@H]2[C@@H]3CCC4=CC(=O)C=C[C@]4(C)[C@@]3(F)[C@@H](O)C[C@]2(C)[C@@]1(O)C(=O)COP(=O)(O)O

$$$$
Molecule 56_metabolite 33
  CDK     0516241031

 63 66  0  0  0  0  0  0  0  0999 V2000
   14.5016    7.9922    0.0000 C   0  0  0  0  0  0  0  0  0  0  0  0
   15.6174    8.9946    0.0000 H   0  0  0  0  0  0  0  0  0  0  0  0
   13.7958    6.6686    0.0000 H   0  0  0  0  0  0  0  0  0  0  0  0
   15.6825    7.0673    0.0000 H   0  0  0  0  0  0  0  0  0  0  0  0
   12.1628    8.7551    0.0000 C   0  0  1  0  0  0  0  0  0  0  0  0
   11.8488    7.2883    0.0000 H   0  0  0  0  0  0  0  0  0  0  0  0
   12.7725   10.1214    0.0000 C   0  0  0  0  0  0  0  0  0  0  0  0
   13.6580   11.3322    0.0000 H   0  0  0  0  0  0  0  0  0  0  0  0
   14.0701    9.3688    0.0000 H   0  0  0  0  0  0  0  0  0  0  0  0
   11.6605   11.1313    0.0000 C   0  0  1  0  0  0  0  0  0  0  0  0
   11.6620   12.6321    0.0000 C   0  0  2  0  0  0  0  0  0  0  0  0
   11.6642   14.1321    0.0000 H   0  0  0  0  0  0  0  0  0  0  0  0
   12.9620   13.3804    0.0000 C   0  0  0  0  0  0  0  0  0  0  0  0
   14.4395   13.6392    0.0000 H   0  0  0  0  0  0  0  0  0  0  0  0
   13.4733   11.9702    0.0000 H   0  0  0  0  0  0  0  0  0  0  0  0
   12.9635   14.8812    0.0000 C   0  0  0  0  0  0  0  0  0  0  0  0
   13.4786   16.2900    0.0000 H   0  0  0  0  0  0  0  0  0  0  0  0
   14.4404   14.6190    0.0000 H   0  0  0  0  0  0  0  0  0  0  0  0
   11.6650   15.6338    0.0000 C   0  0  0  0  0  0  0  0  0  0  0  0
   11.6665   17.1346    0.0000 C   0  0  0  0  0  0  0  0  0  0  0  0
   12.9665   17.8829    0.0000 H   0  0  0  0  0  0  0  0  0  0  0  0
   10.3680   17.8872    0.0000 C   0  0  0  0  0  0  0  0  0  0  0  0
   10.3702   19.3872    0.0000 O   0  0  0  0  0  0  0  0  0  0  0  0
    9.0679   17.1389    0.0000 C   0  0  0  0  0  0  0  0  0  0  0  0
    7.7698   17.8904    0.0000 H   0  0  0  0  0  0  0  0  0  0  0  0
    9.0664   15.6380    0.0000 C   0  0  0  0  0  0  0  0  0  0  0  0
    7.6562   15.1269    0.0000 H   0  0  0  0  0  0  0  0  0  0  0  0
   10.3650   14.8855    0.0000 C   0  0  1  0  0  0  0  0  0  0  0  0
    7.4690   14.3788    0.0000 C   0  0  0  0  0  0  0  0  0  0  0  0
    5.5821   16.6335    0.0000 H   0  0  0  0  0  0  0  0  0  0  0  0
    7.9801   12.9686    0.0000 H   0  0  0  0  0  0  0  0  0  0  0  0
    5.3369   13.1516    0.0000 H   0  0  0  0  0  0  0  0  0  0  0  0
   10.3635   13.3847    0.0000 C   0  0  1  0  0  0  0  0  0  0  0  0
    9.0634   12.6364    0.0000 C   0  0  2  0  0  0  0  0  0  0  0  0
    6.6403   12.2119    0.0000 H   0  0  0  0  0  0  0  0  0  0  0  0
    9.0619   11.1355    0.0000 C   0  0  0  0  0  0  0  0  0  0  0  0
    8.5469    9.7267    0.0000 H   0  0  0  0  0  0  0  0  0  0  0  0
    7.5850   11.3978    0.0000 H   0  0  0  0  0  0  0  0  0  0  0  0
   10.3605   10.3830    0.0000 C   0  0  1  0  0  0  0  0  0  0  0  0
    7.9819    8.6549    0.0000 C   0  0  0  0  0  0  0  0  0  0  0  0
    8.1889    6.6858    0.0000 H   0  0  0  0  0  0  0  0  0  0  0  0
    6.5400    8.2415    0.0000 H   0  0  0  0  0  0  0  0  0  0  0  0
    7.3244   10.0031    0.0000 H   0  0  0  0  0  0  0  0  0  0  0  0
   10.6752    8.9142    0.0000 C   0  0  1  0  0  0  0  0  0  0  0  0
   10.6732    5.9742    0.0000 C   0  0  0  0  0  0  0  0  0  0  0  0
    9.3737    5.2250    0.0000 O   0  0  0  0  0  0  0  0  0  0  0  0
   11.9718    5.2233    0.0000 C   0  0  0  0  0  0  0  0  0  0  0  0
   13.4488    4.9619    0.0000 H   0  0  0  0  0  0  0  0  0  0  0  0
   12.4857    6.6325    0.0000 H   0  0  0  0  0  0  0  0  0  0  0  0
   11.9708    3.7233    0.0000 O   0  0  0  0  0  0  0  0  0  0  0  0
   13.2693    2.9725    0.0000 P   0  0  0  0  0  0  0  0  0  0  0  0
   14.2327    1.8228    0.0000 O   0  0  0  0  0  0  0  0  0  0  0  0
   14.5688    3.7216    0.0000 O   0  0  0  0  0  0  0  0  0  0  0  0
   15.8674    2.9707    0.0000 H   0  0  0  0  0  0  0  0  0  0  0  0
   12.3044    1.8240    0.0000 O   0  0  0  0  0  0  0  0  0  0  0  0
   12.8165    0.4141    0.0000 H   0  0  0  0  0  0  0  0  0  0  0  0
    9.1834    8.7567    0.0000 O   0  0  0  0  0  0  0  0  0  0  0  0
    8.5740    7.3861    0.0000 H   0  0  0  0  0  0  0  0  0  0  0  0
    8.5521   14.0465    0.0000 O   0  0  0  0  0  0  0  0  0  0  0  0
    5.6574   14.5606    0.0000 H   0  0  0  0  0  0  0  0  0  0  0  0
    9.4006   14.5348    0.0000 F   0  0  0  0  0  0  0  0  0  0  0  0
   14.3494   12.3200    0.0000 O   0  0  0  0  0  0  0  0  0  0  0  0
   15.5607   11.4352    0.0000 H   0  0  0  0  0  0  0  0  0  0  0  0
  1  2  1  0  0  0  0 
  1  3  1  0  0  0  0 
  1  4  1  0  0  0  0 
  5  1  1  6  0  0  0 
  5  6  1  1  0  0  0 
  5  7  1  0  0  0  0 
  7  8  1  0  0  0  0 
  7  9  1  0  0  0  0 
  7 10  1  0  0  0  0 
 10 11  1  0  0  0  0 
 11 12  1  6  0  0  0 
 11 13  1  0  0  0  0 
 13 14  1  0  0  0  0 
 13 15  1  0  0  0  0 
 13 16  1  0  0  0  0 
 16 17  1  0  0  0  0 
 16 18  1  0  0  0  0 
 16 19  1  0  0  0  0 
 19 20  2  0  0  0  0 
 20 21  1  0  0  0  0 
 20 22  1  0  0  0  0 
 22 23  2  0  0  0  0 
 22 24  1  0  0  0  0 
 24 25  1  0  0  0  0 
 24 26  2  0  0  0  0 
 26 27  1  0  0  0  0 
 26 28  1  0  0  0  0 
 28 19  1  6  0  0  0 
 28 29  1  0  0  0  0 
 29 30  1  0  0  0  0 
 29 31  1  0  0  0  0 
 29 32  1  0  0  0  0 
 28 33  1  0  0  0  0 
 11 33  1  0  0  0  0 
 33 34  1  0  0  0  0 
 34 35  1  1  0  0  0 
 34 36  1  0  0  0  0 
 36 37  1  0  0  0  0 
 36 38  1  0  0  0  0 
 36 39  1  0  0  0  0 
 10 39  1  0  0  0  0 
 39 40  1  6  0  0  0 
 40 41  1  0  0  0  0 
 40 42  1  0  0  0  0 
 40 43  1  0  0  0  0 
 39 44  1  0  0  0  0 
  5 44  1  0  0  0  0 
 44 45  1  6  0  0  0 
 45 46  2  0  0  0  0 
 45 47  1  0  0  0  0 
 47 48  1  0  0  0  0 
 47 49  1  0  0  0  0 
 47 50  1  0  0  0  0 
 50 51  1  0  0  0  0 
 51 52  2  0  0  0  0 
 51 53  1  0  0  0  0 
 53 54  1  0  0  0  0 
 51 55  1  0  0  0  0 
 55 56  1  0  0  0  0 
 44 57  1  1  0  0  0 
 57 58  1  0  0  0  0 
 34 59  1  6  0  0  0 
 59 60  1  0  0  0  0 
 33 61  1  1  0  0  0 
 10 62  1  1  0  0  0 
 62 63  1  0  0  0  0 
M  END
> <Rank>
31

> <Priority_score>
0.0

> <Reaction_type>
aliphatic hydroxylation

> <Parent_ID>
56

> <Parent_InChI>
InChI=1S/C22H30FO8P/c1-12-8-16-15-5-4-13-9-14(24)6-7-19(13,2)21(15,23)17(25)10-20(16,3)22(12,27)18(26)11-31-32(28,29)30/h6-7,9,12,15-17,25,27H,4-5,8,10-11H2,1-3H3,(H2,28,29,30)

> <Parent_SMILES>
C[C@H]1C[C@H]2[C@@H]3CCC4=CC(=O)C=C[C@]4(C)[C@@]3(F)[C@@H](O)C[C@]2(C)[C@@]1(O)C(=O)COP(=O)(O)O

$$$$
Molecule 56_metabolite 34
  CDK     0516241031

 63 66  0  0  0  0  0  0  0  0999 V2000
    2.4195   -1.4637    0.0000 C   0  0  0  0  0  0  0  0  0  0  0  0
    2.7297   -2.9313    0.0000 H   0  0  0  0  0  0  0  0  0  0  0  0
    1.6261   -0.1907    0.0000 H   0  0  0  0  0  0  0  0  0  0  0  0
    1.0281   -2.0240    0.0000 H   0  0  0  0  0  0  0  0  0  0  0  0
    3.8925   -0.1406    0.0000 C   0  0  1  0  0  0  0  0  0  0  0  0
    2.7792    0.8648    0.0000 H   0  0  0  0  0  0  0  0  0  0  0  0
    4.7709   -1.3517    0.0000 C   0  0  0  0  0  0  0  0  0  0  0  0
    4.4669    0.1172    0.0000 H   0  0  0  0  0  0  0  0  0  0  0  0
    3.4703   -2.0992    0.0000 H   0  0  0  0  0  0  0  0  0  0  0  0
    6.2015   -0.8936    0.0000 C   0  0  2  0  0  0  0  0  0  0  0  0
    5.9379   -3.3395    0.0000 H   0  0  0  0  0  0  0  0  0  0  0  0
    6.2034    0.6064    0.0000 C   0  0  2  0  0  0  0  0  0  0  0  0
    5.9463    3.0529    0.0000 C   0  0  0  0  0  0  0  0  0  0  0  0
    7.1599    3.9346    0.0000 H   0  0  0  0  0  0  0  0  0  0  0  0
    5.2888    4.4011    0.0000 H   0  0  0  0  0  0  0  0  0  0  0  0
    4.5044    2.6395    0.0000 H   0  0  0  0  0  0  0  0  0  0  0  0
    7.5044    1.3547    0.0000 C   0  0  0  0  0  0  0  0  0  0  0  0
    6.5419    2.5051    0.0000 H   0  0  0  0  0  0  0  0  0  0  0  0
    8.4700    2.5026    0.0000 H   0  0  0  0  0  0  0  0  0  0  0  0
    8.8034    0.6030    0.0000 C   0  0  1  0  0  0  0  0  0  0  0  0
    9.3180    2.0119    0.0000 H   0  0  0  0  0  0  0  0  0  0  0  0
    8.8015   -0.8970    0.0000 C   0  0  2  0  0  0  0  0  0  0  0  0
   10.1005   -1.6488    0.0000 C   0  0  1  0  0  0  0  0  0  0  0  0
   11.9932    0.6009    0.0000 C   0  0  0  0  0  0  0  0  0  0  0  0
   11.3185    2.4624    0.0000 H   0  0  0  0  0  0  0  0  0  0  0  0
   12.9559   -0.5494    0.0000 H   0  0  0  0  0  0  0  0  0  0  0  0
   13.2933    1.3492    0.0000 H   0  0  0  0  0  0  0  0  0  0  0  0
   11.4015   -0.9005    0.0000 C   0  0  0  0  0  0  0  0  0  0  0  0
   11.4034    0.5995    0.0000 H   0  0  0  0  0  0  0  0  0  0  0  0
   12.7005   -1.6522    0.0000 C   0  0  0  0  0  0  0  0  0  0  0  0
   14.0004   -0.9037    0.0000 H   0  0  0  0  0  0  0  0  0  0  0  0
   12.6985   -3.1522    0.0000 C   0  0  0  0  0  0  0  0  0  0  0  0
   13.9964   -3.9041    0.0000 O   0  0  0  0  0  0  0  0  0  0  0  0
   11.3975   -3.9005    0.0000 C   0  0  0  0  0  0  0  0  0  0  0  0
   11.3955   -5.4005    0.0000 H   0  0  0  0  0  0  0  0  0  0  0  0
   10.0985   -3.1488    0.0000 C   0  0  0  0  0  0  0  0  0  0  0  0
    8.7975   -3.8970    0.0000 C   0  0  0  0  0  0  0  0  0  0  0  0
    9.7600   -5.0475    0.0000 H   0  0  0  0  0  0  0  0  0  0  0  0
    7.8319   -5.0449    0.0000 H   0  0  0  0  0  0  0  0  0  0  0  0
    7.4985   -3.1453    0.0000 C   0  0  0  0  0  0  0  0  0  0  0  0
    6.9839   -4.5543    0.0000 H   0  0  0  0  0  0  0  0  0  0  0  0
    5.0764   -2.7152    0.0000 H   0  0  0  0  0  0  0  0  0  0  0  0
    7.5005   -1.6453    0.0000 C   0  0  1  0  0  0  0  0  0  0  0  0
    5.7846   -2.6333    0.0000 O   0  0  0  0  0  0  0  0  0  0  0  0
    5.7812   -5.5733    0.0000 H   0  0  0  0  0  0  0  0  0  0  0  0
   10.2790   -0.6383    0.0000 F   0  0  0  0  0  0  0  0  0  0  0  0
   10.2803    0.3407    0.0000 O   0  0  0  0  0  0  0  0  0  0  0  0
   12.1729    2.5906    0.0000 H   0  0  0  0  0  0  0  0  0  0  0  0
    4.7740    1.0683    0.0000 C   0  0  1  0  0  0  0  0  0  0  0  0
    2.6444    2.2997    0.0000 C   0  0  0  0  0  0  0  0  0  0  0  0
    1.3449    1.5505    0.0000 O   0  0  0  0  0  0  0  0  0  0  0  0
    2.6454    3.7997    0.0000 C   0  0  0  0  0  0  0  0  0  0  0  0
    2.1333    5.2096    0.0000 H   0  0  0  0  0  0  0  0  0  0  0  0
    1.1680    3.5402    0.0000 H   0  0  0  0  0  0  0  0  0  0  0  0
    3.9450    4.5488    0.0000 O   0  0  0  0  0  0  0  0  0  0  0  0
    3.9459    6.0488    0.0000 P   0  0  0  0  0  0  0  0  0  0  0  0
    4.4599    7.4580    0.0000 O   0  0  0  0  0  0  0  0  0  0  0  0
    2.6474    6.7997    0.0000 O   0  0  0  0  0  0  0  0  0  0  0  0
    2.6484    8.2997    0.0000 H   0  0  0  0  0  0  0  0  0  0  0  0
    5.4230    5.7874    0.0000 O   0  0  0  0  0  0  0  0  0  0  0  0
    6.3879    6.9358    0.0000 H   0  0  0  0  0  0  0  0  0  0  0  0
    5.3835    2.4389    0.0000 O   0  0  0  0  0  0  0  0  0  0  0  0
    4.5012    3.6520    0.0000 H   0  0  0  0  0  0  0  0  0  0  0  0
  1  2  1  0  0  0  0 
  1  3  1  0  0  0  0 
  1  4  1  0  0  0  0 
  5  1  1  6  0  0  0 
  5  6  1  1  0  0  0 
  5  7  1  0  0  0  0 
  7  8  1  0  0  0  0 
  7  9  1  0  0  0  0 
  7 10  1  0  0  0  0 
 10 11  1  1  0  0  0 
 10 12  1  0  0  0  0 
 12 13  1  6  0  0  0 
 13 14  1  0  0  0  0 
 13 15  1  0  0  0  0 
 13 16  1  0  0  0  0 
 12 17  1  0  0  0  0 
 17 18  1  0  0  0  0 
 17 19  1  0  0  0  0 
 17 20  1  0  0  0  0 
 20 21  1  1  0  0  0 
 20 22  1  0  0  0  0 
 22 23  1  0  0  0  0 
 23 24  1  0  0  0  0 
 24 25  1  0  0  0  0 
 24 26  1  0  0  0  0 
 24 27  1  0  0  0  0 
 23 28  1  1  0  0  0 
 28 29  1  0  0  0  0 
 28 30  2  0  0  0  0 
 30 31  1  0  0  0  0 
 30 32  1  0  0  0  0 
 32 33  2  0  0  0  0 
 32 34  1  0  0  0  0 
 34 35  1  0  0  0  0 
 34 36  2  0  0  0  0 
 23 36  1  0  0  0  0 
 36 37  1  0  0  0  0 
 37 38  1  0  0  0  0 
 37 39  1  0  0  0  0 
 37 40  1  0  0  0  0 
 40 41  1  0  0  0  0 
 40 42  1  0  0  0  0 
 40 43  1  0  0  0  0 
 10 43  1  0  0  0  0 
 22 43  1  0  0  0  0 
 43 44  1  6  0  0  0 
 44 45  1  0  0  0  0 
 22 46  1  1  0  0  0 
 20 47  1  6  0  0  0 
 47 48  1  0  0  0  0 
 12 49  1  0  0  0  0 
  5 49  1  0  0  0  0 
 49 50  1  6  0  0  0 
 50 51  2  0  0  0  0 
 50 52  1  0  0  0  0 
 52 53  1  0  0  0  0 
 52 54  1  0  0  0  0 
 52 55  1  0  0  0  0 
 55 56  1  0  0  0  0 
 56 57  2  0  0  0  0 
 56 58  1  0  0  0  0 
 58 59  1  0  0  0  0 
 56 60  1  0  0  0  0 
 60 61  1  0  0  0  0 
 49 62  1  1  0  0  0 
 62 63  1  0  0  0  0 
M  END
> <Rank>
31

> <Priority_score>
0.0

> <Reaction_type>
aliphatic hydroxylation

> <Parent_ID>
56

> <Parent_InChI>
InChI=1S/C22H30FO8P/c1-12-8-16-15-5-4-13-9-14(24)6-7-19(13,2)21(15,23)17(25)10-20(16,3)22(12,27)18(26)11-31-32(28,29)30/h6-7,9,12,15-17,25,27H,4-5,8,10-11H2,1-3H3,(H2,28,29,30)

> <Parent_SMILES>
C[C@H]1C[C@H]2[C@@H]3CCC4=CC(=O)C=C[C@]4(C)[C@@]3(F)[C@@H](O)C[C@]2(C)[C@@]1(O)C(=O)COP(=O)(O)O

$$$$
Molecule 56_metabolite 35
  CDK     0516241031

 60 63  0  0  0  0  0  0  0  0999 V2000
   -1.0376   -5.4524    0.0000 C   0  0  0  0  0  0  0  0  0  0  0  0
   -0.7594   -6.9264    0.0000 H   0  0  0  0  0  0  0  0  0  0  0  0
   -1.8031   -4.1624    0.0000 H   0  0  0  0  0  0  0  0  0  0  0  0
   -2.4408   -5.9823    0.0000 H   0  0  0  0  0  0  0  0  0  0  0  0
    0.8278   -3.8486    0.0000 C   0  0  1  0  0  0  0  0  0  0  0  0
   -0.2731   -2.8298    0.0000 H   0  0  0  0  0  0  0  0  0  0  0  0
    1.6489   -5.0588    0.0000 C   0  0  0  0  0  0  0  0  0  0  0  0
    1.4555   -6.5463    0.0000 H   0  0  0  0  0  0  0  0  0  0  0  0
    0.3291   -5.7716    0.0000 H   0  0  0  0  0  0  0  0  0  0  0  0
    3.0898   -4.6234    0.0000 C   0  0  0  0  0  0  0  0  0  0  0  0
    4.3420   -5.3739    0.0000 C   0  0  0  0  0  0  0  0  0  0  0  0
    4.3051   -6.9034    0.0000 C   0  0  0  0  0  0  0  0  0  0  0  0
    3.7677   -8.3038    0.0000 H   0  0  0  0  0  0  0  0  0  0  0  0
    2.8336   -6.6124    0.0000 H   0  0  0  0  0  0  0  0  0  0  0  0
    5.6166   -7.6853    0.0000 C   0  0  0  0  0  0  0  0  0  0  0  0
    6.5565   -8.8543    0.0000 H   0  0  0  0  0  0  0  0  0  0  0  0
    4.6325   -8.8174    0.0000 H   0  0  0  0  0  0  0  0  0  0  0  0
    6.9343   -6.9669    0.0000 C   0  0  0  0  0  0  0  0  0  0  0  0
    8.1859   -7.7473    0.0000 C   0  0  0  0  0  0  0  0  0  0  0  0
    8.1396   -9.2466    0.0000 H   0  0  0  0  0  0  0  0  0  0  0  0
    9.5136   -7.0292    0.0000 C   0  0  0  0  0  0  0  0  0  0  0  0
   10.7927   -7.8126    0.0000 O   0  0  0  0  0  0  0  0  0  0  0  0
    9.5505   -5.4996    0.0000 C   0  0  0  0  0  0  0  0  0  0  0  0
   10.8596   -4.7674    0.0000 H   0  0  0  0  0  0  0  0  0  0  0  0
    8.2583   -4.7482    0.0000 C   0  0  0  0  0  0  0  0  0  0  0  0
    9.8723   -2.8918    0.0000 H   0  0  0  0  0  0  0  0  0  0  0  0
    6.9713   -5.4374    0.0000 C   0  0  1  0  0  0  0  0  0  0  0  0
    8.4898   -2.9199    0.0000 C   0  0  0  0  0  0  0  0  0  0  0  0
    7.7648   -1.6067    0.0000 H   0  0  0  0  0  0  0  0  0  0  0  0
    9.6202   -3.9059    0.0000 H   0  0  0  0  0  0  0  0  0  0  0  0
   10.7777   -1.0736    0.0000 H   0  0  0  0  0  0  0  0  0  0  0  0
    5.6890   -4.6862    0.0000 C   0  0  1  0  0  0  0  0  0  0  0  0
    5.7245   -3.2166    0.0000 C   0  0  2  0  0  0  0  0  0  0  0  0
    6.2672   -1.8183    0.0000 H   0  0  0  0  0  0  0  0  0  0  0  0
    4.4132   -2.4247    0.0000 C   0  0  0  0  0  0  0  0  0  0  0  0
    3.4631   -1.2640    0.0000 H   0  0  0  0  0  0  0  0  0  0  0  0
    5.3956   -1.2912    0.0000 H   0  0  0  0  0  0  0  0  0  0  0  0
    3.1253   -3.1539    0.0000 C   0  0  1  0  0  0  0  0  0  0  0  0
    2.9122   -0.7031    0.0000 C   0  0  0  0  0  0  0  0  0  0  0  0
    4.1414    0.1566    0.0000 H   0  0  0  0  0  0  0  0  0  0  0  0
    2.2790    0.6567    0.0000 H   0  0  0  0  0  0  0  0  0  0  0  0
    1.4631   -1.0906    0.0000 H   0  0  0  0  0  0  0  0  0  0  0  0
    1.7070   -2.6495    0.0000 C   0  0  1  0  0  0  0  0  0  0  0  0
   -0.4084   -1.3939    0.0000 C   0  0  0  0  0  0  0  0  0  0  0  0
   -1.7164   -2.1281    0.0000 O   0  0  0  0  0  0  0  0  0  0  0  0
   -0.3903    0.1060    0.0000 C   0  0  0  0  0  0  0  0  0  0  0  0
   -0.8863    1.5216    0.0000 H   0  0  0  0  0  0  0  0  0  0  0  0
   -1.8706   -0.1366    0.0000 H   0  0  0  0  0  0  0  0  0  0  0  0
    0.9177    0.8403    0.0000 O   0  0  0  0  0  0  0  0  0  0  0  0
    0.9358    2.3402    0.0000 P   0  0  0  0  0  0  0  0  0  0  0  0
    1.4658    3.7434    0.0000 O   0  0  0  0  0  0  0  0  0  0  0  0
   -0.3541    3.1058    0.0000 O   0  0  0  0  0  0  0  0  0  0  0  0
   -0.3360    4.6057    0.0000 H   0  0  0  0  0  0  0  0  0  0  0  0
    2.4097    2.0619    0.0000 O   0  0  0  0  0  0  0  0  0  0  0  0
    3.3877    3.1992    0.0000 H   0  0  0  0  0  0  0  0  0  0  0  0
    2.3441   -1.2915    0.0000 O   0  0  0  0  0  0  0  0  0  0  0  0
    1.4866   -0.0608    0.0000 H   0  0  0  0  0  0  0  0  0  0  0  0
    7.7040   -3.2615    0.0000 O   0  0  0  0  0  0  0  0  0  0  0  0
    8.9819   -1.1594    0.0000 H   0  0  0  0  0  0  0  0  0  0  0  0
    7.1700   -4.4482    0.0000 F   0  0  0  0  0  0  0  0  0  0  0  0
  1  2  1  0  0  0  0 
  1  3  1  0  0  0  0 
  1  4  1  0  0  0  0 
  5  1  1  6  0  0  0 
  5  6  1  1  0  0  0 
  5  7  1  0  0  0  0 
  7  8  1  0  0  0  0 
  7  9  1  0  0  0  0 
  7 10  1  0  0  0  0 
 10 11  2  0  0  0  0 
 11 12  1  0  0  0  0 
 12 13  1  0  0  0  0 
 12 14  1  0  0  0  0 
 12 15  1  0  0  0  0 
 15 16  1  0  0  0  0 
 15 17  1  0  0  0  0 
 15 18  1  0  0  0  0 
 18 19  2  0  0  0  0 
 19 20  1  0  0  0  0 
 19 21  1  0  0  0  0 
 21 22  2  0  0  0  0 
 21 23  1  0  0  0  0 
 23 24  1  0  0  0  0 
 23 25  2  0  0  0  0 
 25 26  1  0  0  0  0 
 25 27  1  0  0  0  0 
 27 18  1  6  0  0  0 
 27 28  1  0  0  0  0 
 28 29  1  0  0  0  0 
 28 30  1  0  0  0  0 
 28 31  1  0  0  0  0 
 27 32  1  0  0  0  0 
 11 32  1  0  0  0  0 
 32 33  1  0  0  0  0 
 33 34  1  1  0  0  0 
 33 35  1  0  0  0  0 
 35 36  1  0  0  0  0 
 35 37  1  0  0  0  0 
 35 38  1  0  0  0  0 
 38 10  1  6  0  0  0 
 38 39  1  0  0  0  0 
 39 40  1  0  0  0  0 
 39 41  1  0  0  0  0 
 39 42  1  0  0  0  0 
 38 43  1  0  0  0  0 
  5 43  1  0  0  0  0 
 43 44  1  6  0  0  0 
 44 45  2  0  0  0  0 
 44 46  1  0  0  0  0 
 46 47  1  0  0  0  0 
 46 48  1  0  0  0  0 
 46 49  1  0  0  0  0 
 49 50  1  0  0  0  0 
 50 51  2  0  0  0  0 
 50 52  1  0  0  0  0 
 52 53  1  0  0  0  0 
 50 54  1  0  0  0  0 
 54 55  1  0  0  0  0 
 43 56  1  1  0  0  0 
 56 57  1  0  0  0  0 
 33 58  1  6  0  0  0 
 58 59  1  0  0  0  0 
 32 60  1  1  0  0  0 
M  END
> <Rank>
31

> <Priority_score>
0.0

> <Reaction_type>
alkyl dehydrogenation

> <Parent_ID>
56

> <Parent_InChI>
InChI=1S/C22H30FO8P/c1-12-8-16-15-5-4-13-9-14(24)6-7-19(13,2)21(15,23)17(25)10-20(16,3)22(12,27)18(26)11-31-32(28,29)30/h6-7,9,12,15-17,25,27H,4-5,8,10-11H2,1-3H3,(H2,28,29,30)

> <Parent_SMILES>
C[C@H]1C[C@H]2[C@@H]3CCC4=CC(=O)C=C[C@]4(C)[C@@]3(F)[C@@H](O)C[C@]2(C)[C@@]1(O)C(=O)COP(=O)(O)O

$$$$
Molecule 56_metabolite 36
  CDK     0516241031

 60 63  0  0  0  0  0  0  0  0999 V2000
    5.5448   -3.5388    0.0000 C   0  0  0  0  0  0  0  0  0  0  0  0
    6.9720   -3.0771    0.0000 H   0  0  0  0  0  0  0  0  0  0  0  0
    4.3617   -4.4609    0.0000 H   0  0  0  0  0  0  0  0  0  0  0  0
    6.2474   -4.8641    0.0000 H   0  0  0  0  0  0  0  0  0  0  0  0
    4.4313   -2.5338    0.0000 C   0  0  1  0  0  0  0  0  0  0  0  0
    5.5565   -1.5419    0.0000 H   0  0  0  0  0  0  0  0  0  0  0  0
    3.5813   -3.7238    0.0000 C   0  0  0  0  0  0  0  0  0  0  0  0
    4.0482   -5.1493    0.0000 H   0  0  0  0  0  0  0  0  0  0  0  0
    2.1513   -3.2538    0.0000 C   0  0  0  0  0  0  0  0  0  0  0  0
    0.8813   -3.9738    0.0000 C   0  0  2  0  0  0  0  0  0  0  0  0
   -0.4148   -4.7289    0.0000 H   0  0  0  0  0  0  0  0  0  0  0  0
    0.8813   -5.5038    0.0000 C   0  0  0  0  0  0  0  0  0  0  0  0
    1.3848   -6.9168    0.0000 H   0  0  0  0  0  0  0  0  0  0  0  0
    2.3594   -5.2483    0.0000 H   0  0  0  0  0  0  0  0  0  0  0  0
   -0.4487   -6.2538    0.0000 C   0  0  0  0  0  0  0  0  0  0  0  0
   -1.4165   -7.3998    0.0000 H   0  0  0  0  0  0  0  0  0  0  0  0
    0.5078   -7.4092    0.0000 H   0  0  0  0  0  0  0  0  0  0  0  0
   -1.7487   -5.5038    0.0000 C   0  0  0  0  0  0  0  0  0  0  0  0
   -3.0187   -6.2538    0.0000 C   0  0  0  0  0  0  0  0  0  0  0  0
   -3.0086   -7.7537    0.0000 H   0  0  0  0  0  0  0  0  0  0  0  0
   -4.3287   -5.5038    0.0000 C   0  0  0  0  0  0  0  0  0  0  0  0
   -5.6263   -6.2561    0.0000 O   0  0  0  0  0  0  0  0  0  0  0  0
   -4.3287   -3.9738    0.0000 C   0  0  0  0  0  0  0  0  0  0  0  0
   -5.6197   -3.2102    0.0000 H   0  0  0  0  0  0  0  0  0  0  0  0
   -3.0187   -3.2538    0.0000 C   0  0  0  0  0  0  0  0  0  0  0  0
   -3.0088   -1.7538    0.0000 H   0  0  0  0  0  0  0  0  0  0  0  0
   -1.7487   -3.9738    0.0000 C   0  0  1  0  0  0  0  0  0  0  0  0
   -1.4808   -2.4979    0.0000 C   0  0  0  0  0  0  0  0  0  0  0  0
    0.3831   -1.8300    0.0000 H   0  0  0  0  0  0  0  0  0  0  0  0
   -3.9408   -2.4856    0.0000 H   0  0  0  0  0  0  0  0  0  0  0  0
   -1.9769    0.4000    0.0000 H   0  0  0  0  0  0  0  0  0  0  0  0
   -0.4487   -3.2538    0.0000 C   0  0  1  0  0  0  0  0  0  0  0  0
   -0.4487   -1.7838    0.0000 C   0  0  2  0  0  0  0  0  0  0  0  0
   -0.9575   -0.3727    0.0000 H   0  0  0  0  0  0  0  0  0  0  0  0
    0.8813   -1.0238    0.0000 C   0  0  0  0  0  0  0  0  0  0  0  0
    1.8591    0.1137    0.0000 H   0  0  0  0  0  0  0  0  0  0  0  0
   -0.0734    0.1331    0.0000 H   0  0  0  0  0  0  0  0  0  0  0  0
    2.1513   -1.7838    0.0000 C   0  0  1  0  0  0  0  0  0  0  0  0
    2.4235    0.6611    0.0000 C   0  0  0  0  0  0  0  0  0  0  0  0
    1.2154    1.5502    0.0000 H   0  0  0  0  0  0  0  0  0  0  0  0
    3.0893    2.0052    0.0000 H   0  0  0  0  0  0  0  0  0  0  0  0
    3.8628    0.2388    0.0000 H   0  0  0  0  0  0  0  0  0  0  0  0
    3.5813   -1.3138    0.0000 C   0  0  1  0  0  0  0  0  0  0  0  0
    5.7264   -0.1096    0.0000 C   0  0  0  0  0  0  0  0  0  0  0  0
    7.0163   -0.8752    0.0000 O   0  0  0  0  0  0  0  0  0  0  0  0
    5.7445    1.3903    0.0000 C   0  0  0  0  0  0  0  0  0  0  0  0
    6.2745    2.7936    0.0000 H   0  0  0  0  0  0  0  0  0  0  0  0
    7.2185    1.1120    0.0000 H   0  0  0  0  0  0  0  0  0  0  0  0
    4.4547    2.1559    0.0000 O   0  0  0  0  0  0  0  0  0  0  0  0
    4.4728    3.6558    0.0000 P   0  0  0  0  0  0  0  0  0  0  0  0
    3.9768    5.0714    0.0000 O   0  0  0  0  0  0  0  0  0  0  0  0
    5.7807    4.3901    0.0000 O   0  0  0  0  0  0  0  0  0  0  0  0
    5.7988    5.8900    0.0000 H   0  0  0  0  0  0  0  0  0  0  0  0
    2.9925    3.4132    0.0000 O   0  0  0  0  0  0  0  0  0  0  0  0
    2.0423    4.5738    0.0000 H   0  0  0  0  0  0  0  0  0  0  0  0
    2.9772    0.0592    0.0000 O   0  0  0  0  0  0  0  0  0  0  0  0
    3.8641    1.2689    0.0000 H   0  0  0  0  0  0  0  0  0  0  0  0
   -1.9487   -1.7816    0.0000 O   0  0  0  0  0  0  0  0  0  0  0  0
   -2.6967   -0.4814    0.0000 H   0  0  0  0  0  0  0  0  0  0  0  0
   -2.1545   -2.2486    0.0000 F   0  0  0  0  0  0  0  0  0  0  0  0
  1  2  1  0  0  0  0 
  1  3  1  0  0  0  0 
  1  4  1  0  0  0  0 
  5  1  1  1  0  0  0 
  5  6  1  6  0  0  0 
  5  7  1  0  0  0  0 
  7  8  1  0  0  0  0 
  7  9  2  0  0  0  0 
  9 10  1  0  0  0  0 
 10 11  1  1  0  0  0 
 10 12  1  0  0  0  0 
 12 13  1  0  0  0  0 
 12 14  1  0  0  0  0 
 12 15  1  0  0  0  0 
 15 16  1  0  0  0  0 
 15 17  1  0  0  0  0 
 15 18  1  0  0  0  0 
 18 19  2  0  0  0  0 
 19 20  1  0  0  0  0 
 19 21  1  0  0  0  0 
 21 22  2  0  0  0  0 
 21 23  1  0  0  0  0 
 23 24  1  0  0  0  0 
 23 25  2  0  0  0  0 
 25 26  1  0  0  0  0 
 25 27  1  0  0  0  0 
 27 18  1  1  0  0  0 
 27 28  1  0  0  0  0 
 28 29  1  0  0  0  0 
 28 30  1  0  0  0  0 
 28 31  1  0  0  0  0 
 27 32  1  0  0  0  0 
 10 32  1  0  0  0  0 
 32 33  1  0  0  0  0 
 33 34  1  6  0  0  0 
 33 35  1  0  0  0  0 
 35 36  1  0  0  0  0 
 35 37  1  0  0  0  0 
 35 38  1  0  0  0  0 
 38  9  1  1  0  0  0 
 38 39  1  0  0  0  0 
 39 40  1  0  0  0  0 
 39 41  1  0  0  0  0 
 39 42  1  0  0  0  0 
 38 43  1  0  0  0  0 
  5 43  1  0  0  0  0 
 43 44  1  1  0  0  0 
 44 45  2  0  0  0  0 
 44 46  1  0  0  0  0 
 46 47  1  0  0  0  0 
 46 48  1  0  0  0  0 
 46 49  1  0  0  0  0 
 49 50  1  0  0  0  0 
 50 51  2  0  0  0  0 
 50 52  1  0  0  0  0 
 52 53  1  0  0  0  0 
 50 54  1  0  0  0  0 
 54 55  1  0  0  0  0 
 43 56  1  6  0  0  0 
 56 57  1  0  0  0  0 
 33 58  1  1  0  0  0 
 58 59  1  0  0  0  0 
 32 60  1  6  0  0  0 
M  END
> <Rank>
31

> <Priority_score>
0.0

> <Reaction_type>
alkyl dehydrogenation

> <Parent_ID>
56

> <Parent_InChI>
InChI=1S/C22H30FO8P/c1-12-8-16-15-5-4-13-9-14(24)6-7-19(13,2)21(15,23)17(25)10-20(16,3)22(12,27)18(26)11-31-32(28,29)30/h6-7,9,12,15-17,25,27H,4-5,8,10-11H2,1-3H3,(H2,28,29,30)

> <Parent_SMILES>
C[C@H]1C[C@H]2[C@@H]3CCC4=CC(=O)C=C[C@]4(C)[C@@]3(F)[C@@H](O)C[C@]2(C)[C@@]1(O)C(=O)COP(=O)(O)O

$$$$
Molecule 56_metabolite 37
  CDK     0516241031

 63 66  0  0  0  0  0  0  0  0999 V2000
   13.3693    9.4451    0.0000 C   0  0  0  0  0  0  0  0  0  0  0  0
   14.4852   10.4475    0.0000 H   0  0  0  0  0  0  0  0  0  0  0  0
   12.6636    8.1215    0.0000 H   0  0  0  0  0  0  0  0  0  0  0  0
   14.5502    8.5202    0.0000 H   0  0  0  0  0  0  0  0  0  0  0  0
   11.0306   10.2080    0.0000 C   0  0  1  0  0  0  0  0  0  0  0  0
   10.7165    8.7412    0.0000 H   0  0  0  0  0  0  0  0  0  0  0  0
   11.6403   11.5743    0.0000 C   0  0  0  0  0  0  0  0  0  0  0  0
   12.5257   12.7851    0.0000 H   0  0  0  0  0  0  0  0  0  0  0  0
   10.5282   12.5842    0.0000 C   0  0  1  0  0  0  0  0  0  0  0  0
    9.1575   13.1934    0.0000 H   0  0  0  0  0  0  0  0  0  0  0  0
   10.5297   14.0850    0.0000 C   0  0  2  0  0  0  0  0  0  0  0  0
   10.5320   15.5850    0.0000 H   0  0  0  0  0  0  0  0  0  0  0  0
   11.8298   14.8333    0.0000 C   0  0  0  0  0  0  0  0  0  0  0  0
   13.3073   15.0921    0.0000 H   0  0  0  0  0  0  0  0  0  0  0  0
   12.3411   13.4231    0.0000 H   0  0  0  0  0  0  0  0  0  0  0  0
   11.8313   16.3341    0.0000 C   0  0  0  0  0  0  0  0  0  0  0  0
   12.3463   17.7429    0.0000 H   0  0  0  0  0  0  0  0  0  0  0  0
   13.3082   16.0719    0.0000 H   0  0  0  0  0  0  0  0  0  0  0  0
   10.5327   17.0867    0.0000 C   0  0  0  0  0  0  0  0  0  0  0  0
   10.5342   18.5875    0.0000 C   0  0  0  0  0  0  0  0  0  0  0  0
   11.8343   19.3358    0.0000 H   0  0  0  0  0  0  0  0  0  0  0  0
    9.2357   19.3401    0.0000 C   0  0  0  0  0  0  0  0  0  0  0  0
    9.2379   20.8401    0.0000 O   0  0  0  0  0  0  0  0  0  0  0  0
    7.9357   18.5918    0.0000 C   0  0  0  0  0  0  0  0  0  0  0  0
    6.6375   19.3433    0.0000 H   0  0  0  0  0  0  0  0  0  0  0  0
    7.9342   17.0909    0.0000 C   0  0  0  0  0  0  0  0  0  0  0  0
    6.6342   16.3427    0.0000 H   0  0  0  0  0  0  0  0  0  0  0  0
    9.2327   16.3384    0.0000 C   0  0  1  0  0  0  0  0  0  0  0  0
    6.3381   16.8527    0.0000 C   0  0  0  0  0  0  0  0  0  0  0  0
    5.0633   15.3377    0.0000 H   0  0  0  0  0  0  0  0  0  0  0  0
    6.8529   18.2616    0.0000 H   0  0  0  0  0  0  0  0  0  0  0  0
    5.0400   17.6045    0.0000 H   0  0  0  0  0  0  0  0  0  0  0  0
    9.2312   14.8376    0.0000 C   0  0  1  0  0  0  0  0  0  0  0  0
    7.9312   14.0893    0.0000 C   0  0  2  0  0  0  0  0  0  0  0  0
    6.4537   13.8304    0.0000 H   0  0  0  0  0  0  0  0  0  0  0  0
    7.9297   12.5884    0.0000 C   0  0  0  0  0  0  0  0  0  0  0  0
    7.4146   11.1796    0.0000 H   0  0  0  0  0  0  0  0  0  0  0  0
    6.4528   12.8507    0.0000 H   0  0  0  0  0  0  0  0  0  0  0  0
    9.2282   11.8359    0.0000 C   0  0  1  0  0  0  0  0  0  0  0  0
    6.8497   10.1078    0.0000 C   0  0  0  0  0  0  0  0  0  0  0  0
    7.1068    7.6613    0.0000 H   0  0  0  0  0  0  0  0  0  0  0  0
    5.4078    9.6944    0.0000 H   0  0  0  0  0  0  0  0  0  0  0  0
    6.1921   11.4560    0.0000 H   0  0  0  0  0  0  0  0  0  0  0  0
    9.5429   10.3671    0.0000 C   0  0  1  0  0  0  0  0  0  0  0  0
    9.5410    7.4271    0.0000 C   0  0  0  0  0  0  0  0  0  0  0  0
    8.2414    6.6779    0.0000 O   0  0  0  0  0  0  0  0  0  0  0  0
   10.8395    6.6762    0.0000 C   0  0  0  0  0  0  0  0  0  0  0  0
   12.3165    6.4148    0.0000 H   0  0  0  0  0  0  0  0  0  0  0  0
   11.3535    8.0854    0.0000 H   0  0  0  0  0  0  0  0  0  0  0  0
   10.8385    5.1762    0.0000 O   0  0  0  0  0  0  0  0  0  0  0  0
   12.1371    4.4254    0.0000 P   0  0  0  0  0  0  0  0  0  0  0  0
   13.1005    3.2757    0.0000 O   0  0  0  0  0  0  0  0  0  0  0  0
   13.4366    5.1745    0.0000 O   0  0  0  0  0  0  0  0  0  0  0  0
   14.7351    4.4236    0.0000 H   0  0  0  0  0  0  0  0  0  0  0  0
   11.1721    3.2769    0.0000 O   0  0  0  0  0  0  0  0  0  0  0  0
   11.6842    1.8670    0.0000 H   0  0  0  0  0  0  0  0  0  0  0  0
    8.0512   10.2096    0.0000 O   0  0  0  0  0  0  0  0  0  0  0  0
    7.4417    8.8390    0.0000 H   0  0  0  0  0  0  0  0  0  0  0  0
    7.4199   15.4994    0.0000 O   0  0  0  0  0  0  0  0  0  0  0  0
    4.5252   16.0135    0.0000 H   0  0  0  0  0  0  0  0  0  0  0  0
    8.2684   15.9877    0.0000 F   0  0  0  0  0  0  0  0  0  0  0  0
   12.9378   10.8217    0.0000 O   0  0  0  0  0  0  0  0  0  0  0  0
   14.2383   11.5692    0.0000 H   0  0  0  0  0  0  0  0  0  0  0  0
  1  2  1  0  0  0  0 
  1  3  1  0  0  0  0 
  1  4  1  0  0  0  0 
  5  1  1  6  0  0  0 
  5  6  1  1  0  0  0 
  5  7  1  0  0  0  0 
  7  8  1  0  0  0  0 
  7  9  1  0  0  0  0 
  9 10  1  1  0  0  0 
  9 11  1  0  0  0  0 
 11 12  1  6  0  0  0 
 11 13  1  0  0  0  0 
 13 14  1  0  0  0  0 
 13 15  1  0  0  0  0 
 13 16  1  0  0  0  0 
 16 17  1  0  0  0  0 
 16 18  1  0  0  0  0 
 16 19  1  0  0  0  0 
 19 20  2  0  0  0  0 
 20 21  1  0  0  0  0 
 20 22  1  0  0  0  0 
 22 23  2  0  0  0  0 
 22 24  1  0  0  0  0 
 24 25  1  0  0  0  0 
 24 26  2  0  0  0  0 
 26 27  1  0  0  0  0 
 26 28  1  0  0  0  0 
 28 19  1  6  0  0  0 
 28 29  1  0  0  0  0 
 29 30  1  0  0  0  0 
 29 31  1  0  0  0  0 
 29 32  1  0  0  0  0 
 28 33  1  0  0  0  0 
 11 33  1  0  0  0  0 
 33 34  1  0  0  0  0 
 34 35  1  1  0  0  0 
 34 36  1  0  0  0  0 
 36 37  1  0  0  0  0 
 36 38  1  0  0  0  0 
 36 39  1  0  0  0  0 
  9 39  1  0  0  0  0 
 39 40  1  6  0  0  0 
 40 41  1  0  0  0  0 
 40 42  1  0  0  0  0 
 40 43  1  0  0  0  0 
 39 44  1  0  0  0  0 
  5 44  1  0  0  0  0 
 44 45  1  6  0  0  0 
 45 46  2  0  0  0  0 
 45 47  1  0  0  0  0 
 47 48  1  0  0  0  0 
 47 49  1  0  0  0  0 
 47 50  1  0  0  0  0 
 50 51  1  0  0  0  0 
 51 52  2  0  0  0  0 
 51 53  1  0  0  0  0 
 53 54  1  0  0  0  0 
 51 55  1  0  0  0  0 
 55 56  1  0  0  0  0 
 44 57  1  1  0  0  0 
 57 58  1  0  0  0  0 
 34 59  1  6  0  0  0 
 59 60  1  0  0  0  0 
 33 61  1  1  0  0  0 
  7 62  1  0  0  0  0 
 62 63  1  0  0  0  0 
M  END
> <Rank>
31

> <Priority_score>
0.0

> <Reaction_type>
aliphatic hydroxylation

> <Parent_ID>
56

> <Parent_InChI>
InChI=1S/C22H30FO8P/c1-12-8-16-15-5-4-13-9-14(24)6-7-19(13,2)21(15,23)17(25)10-20(16,3)22(12,27)18(26)11-31-32(28,29)30/h6-7,9,12,15-17,25,27H,4-5,8,10-11H2,1-3H3,(H2,28,29,30)

> <Parent_SMILES>
C[C@H]1C[C@H]2[C@@H]3CCC4=CC(=O)C=C[C@]4(C)[C@@]3(F)[C@@H](O)C[C@]2(C)[C@@]1(O)C(=O)COP(=O)(O)O

$$$$
Molecule 56_metabolite 38
  CDK     0516241031

 63 67  0  0  0  0  0  0  0  0999 V2000
    8.2561   -4.2987    0.0000 C   0  0  0  0  0  0  0  0  0  0  0  0
    7.9479   -5.7666    0.0000 H   0  0  0  0  0  0  0  0  0  0  0  0
    9.0479   -3.0246    0.0000 H   0  0  0  0  0  0  0  0  0  0  0  0
    9.6483   -4.8572    0.0000 H   0  0  0  0  0  0  0  0  0  0  0  0
    6.0665   -2.3368    0.0000 C   0  0  1  0  0  0  0  0  0  0  0  0
    7.1797   -1.3314    0.0000 H   0  0  0  0  0  0  0  0  0  0  0  0
    5.1865   -3.5568    0.0000 C   0  0  0  0  0  0  0  0  0  0  0  0
    4.5806   -4.9290    0.0000 H   0  0  0  0  0  0  0  0  0  0  0  0
    6.4880   -4.3025    0.0000 H   0  0  0  0  0  0  0  0  0  0  0  0
    3.7565   -3.0968    0.0000 C   0  0  1  0  0  0  0  0  0  0  0  0
    2.5524   -2.2022    0.0000 H   0  0  0  0  0  0  0  0  0  0  0  0
    2.4565   -3.8368    0.0000 C   0  0  2  0  0  0  0  0  0  0  0  0
    1.1597   -4.5907    0.0000 H   0  0  0  0  0  0  0  0  0  0  0  0
    2.4565   -5.3368    0.0000 C   0  0  0  0  0  0  0  0  0  0  0  0
    2.9746   -6.7444    0.0000 H   0  0  0  0  0  0  0  0  0  0  0  0
    3.9332   -5.0736    0.0000 H   0  0  0  0  0  0  0  0  0  0  0  0
    1.1565   -6.0968    0.0000 C   0  0  0  0  0  0  0  0  0  0  0  0
   -0.4282   -7.9784    0.0000 H   0  0  0  0  0  0  0  0  0  0  0  0
    2.1227   -7.2441    0.0000 H   0  0  0  0  0  0  0  0  0  0  0  0
   -0.1435   -5.3368    0.0000 C   0  0  0  0  0  0  0  0  0  0  0  0
   -1.4335   -6.0968    0.0000 C   0  0  0  0  0  0  0  0  0  0  0  0
   -2.1852   -7.3948    0.0000 H   0  0  0  0  0  0  0  0  0  0  0  0
   -2.7335   -5.3368    0.0000 C   0  0  0  0  0  0  0  0  0  0  0  0
   -4.0346   -6.0832    0.0000 O   0  0  0  0  0  0  0  0  0  0  0  0
   -2.7335   -3.8368    0.0000 C   0  0  0  0  0  0  0  0  0  0  0  0
   -4.0303   -3.0828    0.0000 H   0  0  0  0  0  0  0  0  0  0  0  0
   -1.4335   -3.0968    0.0000 C   0  0  0  0  0  0  0  0  0  0  0  0
   -1.4294   -0.6368    0.0000 H   0  0  0  0  0  0  0  0  0  0  0  0
   -0.1435   -3.8368    0.0000 C   0  0  1  0  0  0  0  0  0  0  0  0
    0.1194   -2.3600    0.0000 C   0  0  0  0  0  0  0  0  0  0  0  0
    2.4325   -1.5225    0.0000 H   0  0  0  0  0  0  0  0  0  0  0  0
   -2.8206   -2.3551    0.0000 H   0  0  0  0  0  0  0  0  0  0  0  0
   -0.3863    0.5362    0.0000 H   0  0  0  0  0  0  0  0  0  0  0  0
    1.1565   -3.0968    0.0000 C   0  0  1  0  0  0  0  0  0  0  0  0
    1.1565   -1.5968    0.0000 C   0  0  2  0  0  0  0  0  0  0  0  0
    0.6384   -0.1891    0.0000 H   0  0  0  0  0  0  0  0  0  0  0  0
    2.4565   -0.8368    0.0000 C   0  0  0  0  0  0  0  0  0  0  0  0
    3.4227    0.3106    0.0000 H   0  0  0  0  0  0  0  0  0  0  0  0
    1.4902    0.3106    0.0000 H   0  0  0  0  0  0  0  0  0  0  0  0
    3.7565   -1.5968    0.0000 C   0  0  1  0  0  0  0  0  0  0  0  0
    4.0668    1.3268    0.0000 C   0  0  0  0  0  0  0  0  0  0  0  0
    5.8764    2.1303    0.0000 H   0  0  0  0  0  0  0  0  0  0  0  0
    3.7054    2.7826    0.0000 H   0  0  0  0  0  0  0  0  0  0  0  0
    2.5703    1.2237    0.0000 H   0  0  0  0  0  0  0  0  0  0  0  0
    5.1865   -1.1268    0.0000 C   0  0  1  0  0  0  0  0  0  0  0  0
    7.7305    0.3469    0.0000 C   0  0  0  0  0  0  0  0  0  0  0  0
    7.7283    1.8469    0.0000 O   0  0  0  0  0  0  0  0  0  0  0  0
    9.0306   -0.4012    0.0000 C   0  0  0  0  0  0  0  0  0  0  0  0
    9.9964   -1.5489    0.0000 H   0  0  0  0  0  0  0  0  0  0  0  0
    8.0681   -1.5517    0.0000 H   0  0  0  0  0  0  0  0  0  0  0  0
   10.3285    0.3507    0.0000 O   0  0  0  0  0  0  0  0  0  0  0  0
   11.6287   -0.3974    0.0000 P   0  0  0  0  0  0  0  0  0  0  0  0
   13.1062   -0.6558    0.0000 O   0  0  0  0  0  0  0  0  0  0  0  0
   11.6308   -1.8974    0.0000 O   0  0  0  0  0  0  0  0  0  0  0  0
   12.9310   -2.6456    0.0000 H   0  0  0  0  0  0  0  0  0  0  0  0
   12.1396    1.0128    0.0000 O   0  0  0  0  0  0  0  0  0  0  0  0
   13.6165    1.2755    0.0000 H   0  0  0  0  0  0  0  0  0  0  0  0
    4.5731    0.2421    0.0000 O   0  0  0  0  0  0  0  0  0  0  0  0
    5.4518    1.4577    0.0000 H   0  0  0  0  0  0  0  0  0  0  0  0
   -1.7379   -2.1125    0.0000 O   0  0  0  0  0  0  0  0  0  0  0  0
   -2.7042   -0.9652    0.0000 H   0  0  0  0  0  0  0  0  0  0  0  0
   -0.4190   -1.2075    0.0000 F   0  0  0  0  0  0  0  0  0  0  0  0
   -0.1435   -6.8368    0.0000 O   0  0  0  0  0  0  0  0  0  0  0  0
  1  2  1  0  0  0  0 
  1  3  1  0  0  0  0 
  1  4  1  0  0  0  0 
  5  1  1  1  0  0  0 
  5  6  1  6  0  0  0 
  5  7  1  0  0  0  0 
  7  8  1  0  0  0  0 
  7  9  1  0  0  0  0 
  7 10  1  0  0  0  0 
 10 11  1  6  0  0  0 
 10 12  1  0  0  0  0 
 12 13  1  1  0  0  0 
 12 14  1  0  0  0  0 
 14 15  1  0  0  0  0 
 14 16  1  0  0  0  0 
 14 17  1  0  0  0  0 
 17 18  1  0  0  0  0 
 17 19  1  0  0  0  0 
 17 20  1  0  0  0  0 
 20 21  1  0  0  0  0 
 21 22  1  0  0  0  0 
 21 23  1  0  0  0  0 
 23 24  2  0  0  0  0 
 23 25  1  0  0  0  0 
 25 26  1  0  0  0  0 
 25 27  2  0  0  0  0 
 27 28  1  0  0  0  0 
 29 27  1  6  0  0  0 
 20 29  1  0  0  0  0 
 29 30  1  0  0  0  0 
 30 31  1  0  0  0  0 
 30 32  1  0  0  0  0 
 30 33  1  0  0  0  0 
 29 34  1  0  0  0  0 
 12 34  1  0  0  0  0 
 34 35  1  0  0  0  0 
 35 36  1  6  0  0  0 
 35 37  1  0  0  0  0 
 37 38  1  0  0  0  0 
 37 39  1  0  0  0  0 
 37 40  1  0  0  0  0 
 10 40  1  0  0  0  0 
 40 41  1  1  0  0  0 
 41 42  1  0  0  0  0 
 41 43  1  0  0  0  0 
 41 44  1  0  0  0  0 
 40 45  1  0  0  0  0 
  5 45  1  0  0  0  0 
 45 46  1  1  0  0  0 
 46 47  2  0  0  0  0 
 46 48  1  0  0  0  0 
 48 49  1  0  0  0  0 
 48 50  1  0  0  0  0 
 48 51  1  0  0  0  0 
 51 52  1  0  0  0  0 
 52 53  2  0  0  0  0 
 52 54  1  0  0  0  0 
 54 55  1  0  0  0  0 
 52 56  1  0  0  0  0 
 56 57  1  0  0  0  0 
 45 58  1  6  0  0  0 
 58 59  1  0  0  0  0 
 35 60  1  1  0  0  0 
 60 61  1  0  0  0  0 
 34 62  1  6  0  0  0 
 21 63  1  0  0  0  0 
 20 63  1  0  0  0  0 
M  END
> <Rank>
31

> <Priority_score>
0.0

> <Reaction_type>
epoxidation

> <Parent_ID>
56

> <Parent_InChI>
InChI=1S/C22H30FO8P/c1-12-8-16-15-5-4-13-9-14(24)6-7-19(13,2)21(15,23)17(25)10-20(16,3)22(12,27)18(26)11-31-32(28,29)30/h6-7,9,12,15-17,25,27H,4-5,8,10-11H2,1-3H3,(H2,28,29,30)

> <Parent_SMILES>
C[C@H]1C[C@H]2[C@@H]3CCC4=CC(=O)C=C[C@]4(C)[C@@]3(F)[C@@H](O)C[C@]2(C)[C@@]1(O)C(=O)COP(=O)(O)O

$$$$
Molecule 57
  CDK     0516241031

 23 26  0  0  0  0  0  0  0  0999 V2000
   -1.6800    1.1900    0.0000 C   0  0  0  0  0  0  0  0  0  0  0  0
   -1.6800   -0.3100    0.0000 C   0  0  2  0  0  0  0  0  0  0  0  0
   -2.9800    0.4400    0.0000 C   0  0  0  0  0  0  0  0  0  0  0  0
   -4.2800   -0.3100    0.0000 C   0  0  0  0  0  0  0  0  0  0  0  0
   -4.2800   -1.8100    0.0000 C   0  0  0  0  0  0  0  0  0  0  0  0
   -5.5789   -2.5602    0.0000 O   0  0  0  0  0  0  0  0  0  0  0  0
   -2.9800   -2.5600    0.0000 C   0  0  0  0  0  0  0  0  0  0  0  0
   -1.6800   -1.8100    0.0000 C   0  0  0  0  0  0  0  0  0  0  0  0
   -0.3800   -2.5600    0.0000 C   0  0  0  0  0  0  0  0  0  0  0  0
    0.9200   -1.8100    0.0000 C   0  0  0  0  0  0  0  0  0  0  0  0
    0.9200   -0.3100    0.0000 C   0  0  1  0  0  0  0  0  0  0  0  0
   -0.3800    0.4400    0.0000 C   0  0  1  0  0  0  0  0  0  0  0  0
   -0.3800    1.9400    0.0000 C   0  0  0  0  0  0  0  0  0  0  0  0
    0.9200    2.6900    0.0000 C   0  0  0  0  0  0  0  0  0  0  0  0
    2.2200    1.9400    0.0000 C   0  0  2  0  0  0  0  0  0  0  0  0
    2.3787    3.4316    0.0000 C   0  0  0  0  0  0  0  0  0  0  0  0
    2.2200    0.4400    0.0000 C   0  0  2  0  0  0  0  0  0  0  0  0
    3.6500   -0.0200    0.0000 C   0  0  0  0  0  0  0  0  0  0  0  0
    4.5300    1.1900    0.0000 C   0  0  0  0  0  0  0  0  0  0  0  0
    3.6500    2.4000    0.0000 C   0  0  1  0  0  0  0  0  0  0  0  0
    4.9495    3.1491    0.0000 C   0  0  0  0  0  0  0  0  0  0  0  0
    3.6962    0.9007    0.0000 O   0  0  0  0  0  0  0  0  0  0  0  0
   -2.9800   -4.0600    0.0000 Cl  0  0  0  0  0  0  0  0  0  0  0  0
  2  1  1  1  0  0  0 
  2  3  1  0  0  0  0 
  3  4  2  0  0  0  0 
  4  5  1  0  0  0  0 
  5  6  2  0  0  0  0 
  5  7  1  0  0  0  0 
  7  8  2  0  0  0  0 
  2  8  1  0  0  0  0 
  8  9  1  0  0  0  0 
  9 10  1  0  0  0  0 
 11 10  1  1  0  0  0 
 11 12  1  0  0  0  0 
  2 12  1  0  0  0  0 
 12 13  1  6  0  0  0 
 13 14  1  0  0  0  0 
 14 15  1  0  0  0  0 
 15 16  1  6  0  0  0 
 15 17  1  0  0  0  0 
 11 17  1  0  0  0  0 
 17 18  1  6  0  0  0 
 18 19  1  0  0  0  0 
 20 19  1  6  0  0  0 
 15 20  1  0  0  0  0 
 20 21  1  0  0  0  0 
 20 22  1  1  0  0  0 
  7 23  1  0  0  0  0 
M  END
> <SMILES>
C[C@]12C=CC(=O)C(Cl)=C1CC[C@H]1[C@H]2CC[C@]2(C)[C@@H]1CC[C@]2(C)O

$$$$
Molecule 57_metabolite 1
  CDK     0516241031

 54 57  0  0  0  0  0  0  0  0999 V2000
   -0.6041   -3.2721    0.0000 C   0  0  0  0  0  0  0  0  0  0  0  0
   -2.4886   -1.6908    0.0000 H   0  0  0  0  0  0  0  0  0  0  0  0
    1.2565   -3.9493    0.0000 H   0  0  0  0  0  0  0  0  0  0  0  0
    0.1459   -1.9730    0.0000 H   0  0  0  0  0  0  0  0  0  0  0  0
   -0.8646   -4.7493    0.0000 C   0  0  2  0  0  0  0  0  0  0  0  0
   -2.1646   -3.9993    0.0000 C   0  0  0  0  0  0  0  0  0  0  0  0
   -2.1646   -2.4993    0.0000 H   0  0  0  0  0  0  0  0  0  0  0  0
   -3.4646   -4.7493    0.0000 C   0  0  0  0  0  0  0  0  0  0  0  0
   -4.7635   -3.9991    0.0000 H   0  0  0  0  0  0  0  0  0  0  0  0
   -3.4646   -6.2493    0.0000 C   0  0  0  0  0  0  0  0  0  0  0  0
   -4.7635   -6.9995    0.0000 O   0  0  0  0  0  0  0  0  0  0  0  0
   -2.1646   -6.9993    0.0000 C   0  0  0  0  0  0  0  0  0  0  0  0
   -0.8646   -6.2493    0.0000 C   0  0  0  0  0  0  0  0  0  0  0  0
    0.4354   -6.9993    0.0000 C   0  0  0  0  0  0  0  0  0  0  0  0
   -0.5286   -8.1484    0.0000 H   0  0  0  0  0  0  0  0  0  0  0  0
    1.3995   -8.1484    0.0000 H   0  0  0  0  0  0  0  0  0  0  0  0
    1.7354   -6.2493    0.0000 C   0  0  0  0  0  0  0  0  0  0  0  0
    2.2482   -7.6589    0.0000 H   0  0  0  0  0  0  0  0  0  0  0  0
    0.2582   -5.9890    0.0000 H   0  0  0  0  0  0  0  0  0  0  0  0
    1.7354   -4.7493    0.0000 C   0  0  1  0  0  0  0  0  0  0  0  0
    3.0344   -5.4995    0.0000 H   0  0  0  0  0  0  0  0  0  0  0  0
    0.4354   -3.9993    0.0000 C   0  0  1  0  0  0  0  0  0  0  0  0
    1.7344   -3.2491    0.0000 H   0  0  0  0  0  0  0  0  0  0  0  0
    0.4354   -2.4993    0.0000 C   0  0  0  0  0  0  0  0  0  0  0  0
   -0.0773   -1.0896    0.0000 H   0  0  0  0  0  0  0  0  0  0  0  0
   -1.0418   -2.7596    0.0000 H   0  0  0  0  0  0  0  0  0  0  0  0
    1.7354   -1.7493    0.0000 C   0  0  0  0  0  0  0  0  0  0  0  0
    2.6995   -0.6001    0.0000 H   0  0  0  0  0  0  0  0  0  0  0  0
    0.7714   -0.6001    0.0000 H   0  0  0  0  0  0  0  0  0  0  0  0
    3.0354   -2.4993    0.0000 C   0  0  2  0  0  0  0  0  0  0  0  0
    3.2958   -0.0531    0.0000 C   0  0  0  0  0  0  0  0  0  0  0  0
    0.9195    1.6781    0.0000 H   0  0  0  0  0  0  0  0  0  0  0  0
    3.9551    1.2942    0.0000 H   0  0  0  0  0  0  0  0  0  0  0  0
    4.7371   -0.4684    0.0000 H   0  0  0  0  0  0  0  0  0  0  0  0
    3.0354   -3.9993    0.0000 C   0  0  2  0  0  0  0  0  0  0  0  0
    4.0340   -2.8800    0.0000 H   0  0  0  0  0  0  0  0  0  0  0  0
    4.4654   -4.4593    0.0000 C   0  0  0  0  0  0  0  0  0  0  0  0
    3.8578   -5.8307    0.0000 H   0  0  0  0  0  0  0  0  0  0  0  0
    5.7650   -5.2084    0.0000 H   0  0  0  0  0  0  0  0  0  0  0  0
    5.3454   -3.2493    0.0000 C   0  0  0  0  0  0  0  0  0  0  0  0
    6.4600   -4.2531    0.0000 H   0  0  0  0  0  0  0  0  0  0  0  0
    6.4600   -2.2454    0.0000 H   0  0  0  0  0  0  0  0  0  0  0  0
    4.4654   -2.0393    0.0000 C   0  0  1  0  0  0  0  0  0  0  0  0
    6.5967   -0.8107    0.0000 C   0  0  0  0  0  0  0  0  0  0  0  0
    7.8952   -1.5615    0.0000 H   0  0  0  0  0  0  0  0  0  0  0  0
    7.5616    0.3377    0.0000 H   0  0  0  0  0  0  0  0  0  0  0  0
    5.6332    0.3390    0.0000 H   0  0  0  0  0  0  0  0  0  0  0  0
    3.2745    0.6487    0.0000 O   0  0  0  0  0  0  0  0  0  0  0  0
    4.4411    2.2485    0.0000 S   0  0  0  0  0  0  0  0  0  0  0  0
    4.8572    3.6896    0.0000 O   0  0  0  0  0  0  0  0  0  0  0  0
    3.0941    2.9084    0.0000 O   0  0  0  0  0  0  0  0  0  0  0  0
    5.9326    2.0890    0.0000 O   0  0  0  0  0  0  0  0  0  0  0  0
    6.8165    3.3009    0.0000 H   0  0  0  0  0  0  0  0  0  0  0  0
   -2.1646   -8.4993    0.0000 Cl  0  0  0  0  0  0  0  0  0  0  0  0
  1  2  1  0  0  0  0 
  1  3  1  0  0  0  0 
  1  4  1  0  0  0  0 
  1  5  1  0  0  0  0 
  5  6  1  6  0  0  0 
  6  7  1  0  0  0  0 
  6  8  2  0  0  0  0 
  8  9  1  0  0  0  0 
  8 10  1  0  0  0  0 
 10 11  2  0  0  0  0 
 10 12  1  0  0  0  0 
 12 13  2  0  0  0  0 
  5 13  1  0  0  0  0 
 13 14  1  0  0  0  0 
 14 15  1  0  0  0  0 
 14 16  1  0  0  0  0 
 14 17  1  0  0  0  0 
 17 18  1  0  0  0  0 
 17 19  1  0  0  0  0 
 17 20  1  0  0  0  0 
 20 21  1  6  0  0  0 
 20 22  1  0  0  0  0 
  5 22  1  0  0  0  0 
 22 23  1  1  0  0  0 
 22 24  1  0  0  0  0 
 24 25  1  0  0  0  0 
 24 26  1  0  0  0  0 
 24 27  1  0  0  0  0 
 27 28  1  0  0  0  0 
 27 29  1  0  0  0  0 
 27 30  1  0  0  0  0 
 30 31  1  6  0  0  0 
 31 32  1  0  0  0  0 
 31 33  1  0  0  0  0 
 31 34  1  0  0  0  0 
 30 35  1  0  0  0  0 
 20 35  1  0  0  0  0 
 35 36  1  1  0  0  0 
 35 37  1  0  0  0  0 
 37 38  1  0  0  0  0 
 37 39  1  0  0  0  0 
 37 40  1  0  0  0  0 
 40 41  1  0  0  0  0 
 40 42  1  0  0  0  0 
 40 43  1  0  0  0  0 
 30 43  1  0  0  0  0 
 43 44  1  6  0  0  0 
 44 45  1  0  0  0  0 
 44 46  1  0  0  0  0 
 44 47  1  0  0  0  0 
 43 48  1  1  0  0  0 
 48 49  1  0  0  0  0 
 49 50  2  0  0  0  0 
 49 51  2  0  0  0  0 
 49 52  1  0  0  0  0 
 52 53  1  0  0  0  0 
 12 54  1  0  0  0  0 
M  END
> <Rank>
1

> <Priority_score>
0.9478491198658843

> <Reaction_type>
sulfation_(aliphatic_hydroxyl)

> <Parent_ID>
57

> <Parent_InChI>
InChI=1S/C20H27ClO2/c1-18-9-8-16(22)17(21)15(18)5-4-12-13(18)6-10-19(2)14(12)7-11-20(19,3)23/h8-9,12-14,23H,4-7,10-11H2,1-3H3

> <Parent_SMILES>
C[C@]12C=CC(=O)C(Cl)=C1CC[C@H]1[C@H]2CC[C@]2(C)[C@@H]1CC[C@]2(C)O

$$$$
Molecule 57_metabolite 2
  CDK     0516241031

 70 74  0  0  0  0  0  0  0  0999 V2000
    1.0833   -2.1587    0.0000 C   0  0  0  0  0  0  0  0  0  0  0  0
    2.4929   -1.6457    0.0000 H   0  0  0  0  0  0  0  0  0  0  0  0
   -1.8567   -2.1587    0.0000 H   0  0  0  0  0  0  0  0  0  0  0  0
    0.8229   -0.6815    0.0000 H   0  0  0  0  0  0  0  0  0  0  0  0
    0.5728   -5.0540    0.0000 C   0  0  2  0  0  0  0  0  0  0  0  0
   -0.7272   -4.3040    0.0000 C   0  0  0  0  0  0  0  0  0  0  0  0
   -0.7272   -2.8040    0.0000 H   0  0  0  0  0  0  0  0  0  0  0  0
   -2.0272   -5.0540    0.0000 C   0  0  0  0  0  0  0  0  0  0  0  0
   -3.3261   -4.3038    0.0000 H   0  0  0  0  0  0  0  0  0  0  0  0
   -2.0272   -6.5540    0.0000 C   0  0  0  0  0  0  0  0  0  0  0  0
   -3.3261   -7.3042    0.0000 O   0  0  0  0  0  0  0  0  0  0  0  0
   -0.7272   -7.3040    0.0000 C   0  0  0  0  0  0  0  0  0  0  0  0
    0.5728   -6.5540    0.0000 C   0  0  0  0  0  0  0  0  0  0  0  0
    1.8728   -7.3040    0.0000 C   0  0  0  0  0  0  0  0  0  0  0  0
    0.9088   -8.4532    0.0000 H   0  0  0  0  0  0  0  0  0  0  0  0
    2.8369   -8.4532    0.0000 H   0  0  0  0  0  0  0  0  0  0  0  0
    3.1728   -6.5540    0.0000 C   0  0  0  0  0  0  0  0  0  0  0  0
    3.6855   -7.9637    0.0000 H   0  0  0  0  0  0  0  0  0  0  0  0
    1.6956   -6.2937    0.0000 H   0  0  0  0  0  0  0  0  0  0  0  0
    3.1728   -5.0540    0.0000 C   0  0  1  0  0  0  0  0  0  0  0  0
    4.4717   -5.8042    0.0000 H   0  0  0  0  0  0  0  0  0  0  0  0
    1.8728   -4.3040    0.0000 C   0  0  1  0  0  0  0  0  0  0  0  0
    3.1717   -3.5538    0.0000 H   0  0  0  0  0  0  0  0  0  0  0  0
    1.8728   -2.8040    0.0000 C   0  0  0  0  0  0  0  0  0  0  0  0
    1.3601   -1.3944    0.0000 H   0  0  0  0  0  0  0  0  0  0  0  0
    0.3956   -3.0643    0.0000 H   0  0  0  0  0  0  0  0  0  0  0  0
    3.1728   -2.0540    0.0000 C   0  0  0  0  0  0  0  0  0  0  0  0
    4.1369   -0.9049    0.0000 H   0  0  0  0  0  0  0  0  0  0  0  0
    2.2088   -0.9049    0.0000 H   0  0  0  0  0  0  0  0  0  0  0  0
    4.4728   -2.8040    0.0000 C   0  0  2  0  0  0  0  0  0  0  0  0
    4.6316   -1.3125    0.0000 C   0  0  0  0  0  0  0  0  0  0  0  0
    2.2553    0.4187    0.0000 H   0  0  0  0  0  0  0  0  0  0  0  0
    5.2909    0.0349    0.0000 H   0  0  0  0  0  0  0  0  0  0  0  0
    6.0729   -1.7278    0.0000 H   0  0  0  0  0  0  0  0  0  0  0  0
    4.4728   -4.3040    0.0000 C   0  0  2  0  0  0  0  0  0  0  0  0
    5.4714   -3.1847    0.0000 H   0  0  0  0  0  0  0  0  0  0  0  0
    5.9028   -4.7640    0.0000 C   0  0  0  0  0  0  0  0  0  0  0  0
    5.2952   -6.1354    0.0000 H   0  0  0  0  0  0  0  0  0  0  0  0
    7.2024   -5.5132    0.0000 H   0  0  0  0  0  0  0  0  0  0  0  0
    6.7828   -3.5540    0.0000 C   0  0  0  0  0  0  0  0  0  0  0  0
    7.8974   -4.5579    0.0000 H   0  0  0  0  0  0  0  0  0  0  0  0
    7.8974   -2.5502    0.0000 H   0  0  0  0  0  0  0  0  0  0  0  0
    5.9028   -2.3440    0.0000 C   0  0  1  0  0  0  0  0  0  0  0  0
    7.6182   -1.3552    0.0000 C   0  0  0  0  0  0  0  0  0  0  0  0
    8.9167   -2.1060    0.0000 H   0  0  0  0  0  0  0  0  0  0  0  0
    8.5831   -0.2067    0.0000 H   0  0  0  0  0  0  0  0  0  0  0  0
    6.6548   -0.2055    0.0000 H   0  0  0  0  0  0  0  0  0  0  0  0
    4.7118    0.3439    0.0000 O   0  0  0  0  0  0  0  0  0  0  0  0
    6.1614    2.3315    0.0000 C   0  0  0  0  0  0  0  0  0  0  0  0
    7.2039    1.2530    0.0000 H   0  0  0  0  0  0  0  0  0  0  0  0
    4.8249    2.9902    0.0000 C   0  0  0  0  0  0  0  0  0  0  0  0
    3.3339    3.1543    0.0000 H   0  0  0  0  0  0  0  0  0  0  0  0
    4.7266    4.5102    0.0000 C   0  0  0  0  0  0  0  0  0  0  0  0
    4.1277    5.8854    0.0000 H   0  0  0  0  0  0  0  0  0  0  0  0
    5.9830    5.3403    0.0000 C   0  0  0  0  0  0  0  0  0  0  0  0
    6.8719    6.5486    0.0000 H   0  0  0  0  0  0  0  0  0  0  0  0
    7.3195    4.6816    0.0000 C   0  0  0  0  0  0  0  0  0  0  0  0
    8.8106    4.5184    0.0000 H   0  0  0  0  0  0  0  0  0  0  0  0
    8.0075    7.0435    0.0000 C   0  0  0  0  0  0  0  0  0  0  0  0
    6.9701    8.1268    0.0000 O   0  0  0  0  0  0  0  0  0  0  0  0
    9.4645    7.4002    0.0000 O   0  0  0  0  0  0  0  0  0  0  0  0
    9.8840    8.8404    0.0000 H   0  0  0  0  0  0  0  0  0  0  0  0
    7.4176    3.1840    0.0000 O   0  0  0  0  0  0  0  0  0  0  0  0
    4.9494    6.4273    0.0000 O   0  0  0  0  0  0  0  0  0  0  0  0
    5.3740    7.8660    0.0000 H   0  0  0  0  0  0  0  0  0  0  0  0
    3.2688    4.1570    0.0000 O   0  0  0  0  0  0  0  0  0  0  0  0
    2.2341    5.2430    0.0000 H   0  0  0  0  0  0  0  0  0  0  0  0
    4.4049    1.5502    0.0000 O   0  0  0  0  0  0  0  0  0  0  0  0
    2.9479    1.1938    0.0000 H   0  0  0  0  0  0  0  0  0  0  0  0
   -0.7272   -8.8040    0.0000 Cl  0  0  0  0  0  0  0  0  0  0  0  0
  1  2  1  0  0  0  0 
  1  3  1  0  0  0  0 
  1  4  1  0  0  0  0 
  1  5  1  0  0  0  0 
  5  6  1  6  0  0  0 
  6  7  1  0  0  0  0 
  6  8  2  0  0  0  0 
  8  9  1  0  0  0  0 
  8 10  1  0  0  0  0 
 10 11  2  0  0  0  0 
 10 12  1  0  0  0  0 
 12 13  2  0  0  0  0 
  5 13  1  0  0  0  0 
 13 14  1  0  0  0  0 
 14 15  1  0  0  0  0 
 14 16  1  0  0  0  0 
 14 17  1  0  0  0  0 
 17 18  1  0  0  0  0 
 17 19  1  0  0  0  0 
 17 20  1  0  0  0  0 
 20 21  1  6  0  0  0 
 20 22  1  0  0  0  0 
  5 22  1  0  0  0  0 
 22 23  1  1  0  0  0 
 22 24  1  0  0  0  0 
 24 25  1  0  0  0  0 
 24 26  1  0  0  0  0 
 24 27  1  0  0  0  0 
 27 28  1  0  0  0  0 
 27 29  1  0  0  0  0 
 27 30  1  0  0  0  0 
 30 31  1  6  0  0  0 
 31 32  1  0  0  0  0 
 31 33  1  0  0  0  0 
 31 34  1  0  0  0  0 
 30 35  1  0  0  0  0 
 20 35  1  0  0  0  0 
 35 36  1  1  0  0  0 
 35 37  1  0  0  0  0 
 37 38  1  0  0  0  0 
 37 39  1  0  0  0  0 
 37 40  1  0  0  0  0 
 40 41  1  0  0  0  0 
 40 42  1  0  0  0  0 
 40 43  1  0  0  0  0 
 30 43  1  0  0  0  0 
 43 44  1  6  0  0  0 
 44 45  1  0  0  0  0 
 44 46  1  0  0  0  0 
 44 47  1  0  0  0  0 
 43 48  1  1  0  0  0 
 48 49  1  0  0  0  0 
 49 50  1  0  0  0  0 
 49 51  1  0  0  0  0 
 51 52  1  0  0  0  0 
 51 53  1  0  0  0  0 
 53 54  1  0  0  0  0 
 53 55  1  0  0  0  0 
 55 56  1  0  0  0  0 
 55 57  1  0  0  0  0 
 57 58  1  0  0  0  0 
 57 59  1  0  0  0  0 
 59 60  2  0  0  0  0 
 59 61  1  0  0  0  0 
 61 62  1  0  0  0  0 
 57 63  1  0  0  0  0 
 49 63  1  0  0  0  0 
 55 64  1  0  0  0  0 
 64 65  1  0  0  0  0 
 53 66  1  0  0  0  0 
 66 67  1  0  0  0  0 
 51 68  1  0  0  0  0 
 68 69  1  0  0  0  0 
 12 70  1  0  0  0  0 
M  END
> <Rank>
2

> <Priority_score>
0.7957594493963669

> <Reaction_type>
O-glucuronidation_(aliphatic_hydroxyl)

> <Parent_ID>
57

> <Parent_InChI>
InChI=1S/C20H27ClO2/c1-18-9-8-16(22)17(21)15(18)5-4-12-13(18)6-10-19(2)14(12)7-11-20(19,3)23/h8-9,12-14,23H,4-7,10-11H2,1-3H3

> <Parent_SMILES>
C[C@]12C=CC(=O)C(Cl)=C1CC[C@H]1[C@H]2CC[C@]2(C)[C@@H]1CC[C@]2(C)O

$$$$
Molecule 57_metabolite 3
  CDK     0516241031

 87 90  0  0  0  0  0  0  0  0999 V2000
   -1.6663   12.5520    0.0000 C   0  0  0  0  0  0  0  0  0  0  0  0
   -2.5037   11.3075    0.0000 H   0  0  0  0  0  0  0  0  0  0  0  0
   -0.5861   11.5112    0.0000 H   0  0  0  0  0  0  0  0  0  0  0  0
   -0.4537   13.4350    0.0000 H   0  0  0  0  0  0  0  0  0  0  0  0
   -2.9580   15.1931    0.0000 C   0  0  1  0  0  0  0  0  0  0  0  0
   -3.9233   14.0439    0.0000 C   0  0  0  0  0  0  0  0  0  0  0  0
   -2.6245   13.2935    0.0000 H   0  0  0  0  0  0  0  0  0  0  0  0
   -4.4365   12.6344    0.0000 H   0  0  0  0  0  0  0  0  0  0  0  0
   -5.4014   14.3043    0.0000 C   0  0  0  0  0  0  0  0  0  0  0  0
   -5.4014   12.8043    0.0000 H   0  0  0  0  0  0  0  0  0  0  0  0
   -4.1021   15.0539    0.0000 H   0  0  0  0  0  0  0  0  0  0  0  0
   -5.9141   15.7140    0.0000 C   0  0  2  0  0  0  0  0  0  0  0  0
   -6.8784   14.5650    0.0000 H   0  0  0  0  0  0  0  0  0  0  0  0
   -4.9488   16.8632    0.0000 C   0  0  2  0  0  0  0  0  0  0  0  0
   -6.4259   17.1242    0.0000 H   0  0  0  0  0  0  0  0  0  0  0  0
   -5.4615   18.2728    0.0000 C   0  0  0  0  0  0  0  0  0  0  0  0
   -5.4615   19.7728    0.0000 H   0  0  0  0  0  0  0  0  0  0  0  0
   -3.9843   18.5331    0.0000 H   0  0  0  0  0  0  0  0  0  0  0  0
   -6.9396   18.5333    0.0000 C   0  0  0  0  0  0  0  0  0  0  0  0
   -8.2384   19.2837    0.0000 H   0  0  0  0  0  0  0  0  0  0  0  0
   -6.4264   19.9428    0.0000 H   0  0  0  0  0  0  0  0  0  0  0  0
   -7.9049   17.3841    0.0000 C   0  0  0  0  0  0  0  0  0  0  0  0
   -9.3830   17.6445    0.0000 C   0  0  0  0  0  0  0  0  0  0  0  0
  -10.3483   16.4954    0.0000 C   0  0  0  0  0  0  0  0  0  0  0  0
  -11.8254   16.7564    0.0000 O   0  0  0  0  0  0  0  0  0  0  0  0
   -9.8356   15.0857    0.0000 C   0  0  0  0  0  0  0  0  0  0  0  0
   -9.8356   13.5857    0.0000 H   0  0  0  0  0  0  0  0  0  0  0  0
  -11.3128   14.8254    0.0000 H   0  0  0  0  0  0  0  0  0  0  0  0
   -8.3575   14.8253    0.0000 C   0  0  0  0  0  0  0  0  0  0  0  0
   -7.2087   13.8607    0.0000 H   0  0  0  0  0  0  0  0  0  0  0  0
   -7.3922   15.9744    0.0000 C   0  0  2  0  0  0  0  0  0  0  0  0
   -6.8823   13.0790    0.0000 C   0  0  0  0  0  0  0  0  0  0  0  0
   -8.0315   12.1151    0.0000 H   0  0  0  0  0  0  0  0  0  0  0  0
   -5.4726   13.5917    0.0000 H   0  0  0  0  0  0  0  0  0  0  0  0
   -6.1325   11.7798    0.0000 H   0  0  0  0  0  0  0  0  0  0  0  0
   -9.0349   12.9647    0.0000 S   0  0  0  0  0  0  0  0  0  0  0  0
  -10.5121   12.7044    0.0000 C   0  0  0  0  0  0  0  0  0  0  0  0
  -11.9893   12.9650    0.0000 H   0  0  0  0  0  0  0  0  0  0  0  0
  -10.5120   14.2044    0.0000 H   0  0  0  0  0  0  0  0  0  0  0  0
  -11.0253   11.2949    0.0000 C   0  0  0  0  0  0  0  0  0  0  0  0
   -9.5481   11.0343    0.0000 H   0  0  0  0  0  0  0  0  0  0  0  0
  -11.0255    9.7949    0.0000 C   0  0  0  0  0  0  0  0  0  0  0  0
  -12.3246    9.0451    0.0000 O   0  0  0  0  0  0  0  0  0  0  0  0
   -9.7265    9.0448    0.0000 N   0  0  0  0  0  0  0  0  0  0  0  0
   -8.4274    9.7947    0.0000 H   0  0  0  0  0  0  0  0  0  0  0  0
   -9.7267    7.5448    0.0000 C   0  0  0  0  0  0  0  0  0  0  0  0
  -11.2039    7.8054    0.0000 H   0  0  0  0  0  0  0  0  0  0  0  0
  -10.2399    6.1353    0.0000 H   0  0  0  0  0  0  0  0  0  0  0  0
   -8.4277    6.7947    0.0000 C   0  0  0  0  0  0  0  0  0  0  0  0
   -7.1286    7.5445    0.0000 O   0  0  0  0  0  0  0  0  0  0  0  0
   -8.4279    5.2947    0.0000 O   0  0  0  0  0  0  0  0  0  0  0  0
   -7.1289    4.5445    0.0000 H   0  0  0  0  0  0  0  0  0  0  0  0
  -12.5026   11.0346    0.0000 N   0  0  0  0  0  0  0  0  0  0  0  0
  -13.0157    9.6251    0.0000 H   0  0  0  0  0  0  0  0  0  0  0  0
  -13.4666   12.1838    0.0000 C   0  0  0  0  0  0  0  0  0  0  0  0
  -12.9534   13.5933    0.0000 O   0  0  0  0  0  0  0  0  0  0  0  0
  -14.9439   11.9235    0.0000 C   0  0  0  0  0  0  0  0  0  0  0  0
  -16.2430   11.1736    0.0000 H   0  0  0  0  0  0  0  0  0  0  0  0
  -14.4310   10.5139    0.0000 H   0  0  0  0  0  0  0  0  0  0  0  0
  -15.9079   13.0726    0.0000 C   0  0  0  0  0  0  0  0  0  0  0  0
  -14.6088   13.8225    0.0000 H   0  0  0  0  0  0  0  0  0  0  0  0
  -16.4208   14.4822    0.0000 H   0  0  0  0  0  0  0  0  0  0  0  0
  -18.3306   12.6457    0.0000 C   0  0  0  0  0  0  0  0  0  0  0  0
  -19.8078   12.9064    0.0000 H   0  0  0  0  0  0  0  0  0  0  0  0
  -18.8438   11.2362    0.0000 C   0  0  0  0  0  0  0  0  0  0  0  0
  -17.8797   10.0871    0.0000 O   0  0  0  0  0  0  0  0  0  0  0  0
  -20.3210   10.9759    0.0000 O   0  0  0  0  0  0  0  0  0  0  0  0
  -20.8342    9.5664    0.0000 H   0  0  0  0  0  0  0  0  0  0  0  0
  -18.3304   14.1457    0.0000 N   0  0  0  0  0  0  0  0  0  0  0  0
  -19.6294   14.8959    0.0000 H   0  0  0  0  0  0  0  0  0  0  0  0
  -17.0313   14.8956    0.0000 H   0  0  0  0  0  0  0  0  0  0  0  0
   -9.8957   19.0542    0.0000 Cl  0  0  0  0  0  0  0  0  0  0  0  0
   -3.4707   16.6027    0.0000 C   0  0  1  0  0  0  0  0  0  0  0  0
   -2.1497   15.8922    0.0000 H   0  0  0  0  0  0  0  0  0  0  0  0
   -2.2841   17.5238    0.0000 C   0  0  0  0  0  0  0  0  0  0  0  0
   -3.3239   18.6049    0.0000 H   0  0  0  0  0  0  0  0  0  0  0  0
   -1.3189   18.6720    0.0000 H   0  0  0  0  0  0  0  0  0  0  0  0
   -1.0435   16.6875    0.0000 C   0  0  0  0  0  0  0  0  0  0  0  0
   -0.3392   18.0119    0.0000 H   0  0  0  0  0  0  0  0  0  0  0  0
    0.3471   16.1251    0.0000 H   0  0  0  0  0  0  0  0  0  0  0  0
   -1.4569   15.2496    0.0000 C   0  0  1  0  0  0  0  0  0  0  0  0
    1.4387   14.7403    0.0000 C   0  0  0  0  0  0  0  0  0  0  0  0
    2.4023   15.8898    0.0000 H   0  0  0  0  0  0  0  0  0  0  0  0
    2.7380   13.9909    0.0000 H   0  0  0  0  0  0  0  0  0  0  0  0
    0.9263   13.3306    0.0000 H   0  0  0  0  0  0  0  0  0  0  0  0
   -1.5592   13.7531    0.0000 O   0  0  0  0  0  0  0  0  0  0  0  0
    0.8808   12.1129    0.0000 H   0  0  0  0  0  0  0  0  0  0  0  0
  1  2  1  0  0  0  0 
  1  3  1  0  0  0  0 
  1  4  1  0  0  0  0 
  5  1  1  1  0  0  0 
  5  6  1  0  0  0  0 
  6  7  1  0  0  0  0 
  6  8  1  0  0  0  0 
  6  9  1  0  0  0  0 
  9 10  1  0  0  0  0 
  9 11  1  0  0  0  0 
  9 12  1  0  0  0  0 
 12 13  1  6  0  0  0 
 12 14  1  0  0  0  0 
 14 15  1  1  0  0  0 
 14 16  1  0  0  0  0 
 16 17  1  0  0  0  0 
 16 18  1  0  0  0  0 
 16 19  1  0  0  0  0 
 19 20  1  0  0  0  0 
 19 21  1  0  0  0  0 
 19 22  1  0  0  0  0 
 22 23  2  0  0  0  0 
 23 24  1  0  0  0  0 
 24 25  2  0  0  0  0 
 24 26  1  0  0  0  0 
 26 27  1  0  0  0  0 
 26 28  1  0  0  0  0 
 26 29  1  0  0  0  0 
 29 30  1  0  0  0  0 
 29 31  1  0  0  0  0 
 12 31  1  0  0  0  0 
 31 22  1  6  0  0  0 
 31 32  1  0  0  0  0 
 32 33  1  0  0  0  0 
 32 34  1  0  0  0  0 
 32 35  1  0  0  0  0 
 29 36  1  0  0  0  0 
 36 37  1  0  0  0  0 
 37 38  1  0  0  0  0 
 37 39  1  0  0  0  0 
 37 40  1  0  0  0  0 
 40 41  1  0  0  0  0 
 40 42  1  0  0  0  0 
 42 43  2  0  0  0  0 
 42 44  1  0  0  0  0 
 44 45  1  0  0  0  0 
 44 46  1  0  0  0  0 
 46 47  1  0  0  0  0 
 46 48  1  0  0  0  0 
 46 49  1  0  0  0  0 
 49 50  2  0  0  0  0 
 49 51  1  0  0  0  0 
 51 52  1  0  0  0  0 
 40 53  1  0  0  0  0 
 53 54  1  0  0  0  0 
 53 55  1  0  0  0  0 
 55 56  2  0  0  0  0 
 55 57  1  0  0  0  0 
 57 58  1  0  0  0  0 
 57 59  1  0  0  0  0 
 57 60  1  0  0  0  0 
 60 61  1  0  0  0  0 
 60 62  1  0  0  0  0 
 60 63  1  0  0  0  0 
 63 64  1  0  0  0  0 
 63 65  1  0  0  0  0 
 65 66  2  0  0  0  0 
 65 67  1  0  0  0  0 
 67 68  1  0  0  0  0 
 63 69  1  0  0  0  0 
 69 70  1  0  0  0  0 
 69 71  1  0  0  0  0 
 23 72  1  0  0  0  0 
 14 73  1  0  0  0  0 
  5 73  1  0  0  0  0 
 73 74  1  6  0  0  0 
 73 75  1  0  0  0  0 
 75 76  1  0  0  0  0 
 75 77  1  0  0  0  0 
 75 78  1  0  0  0  0 
 78 79  1  0  0  0  0 
 78 80  1  0  0  0  0 
 78 81  1  0  0  0  0 
  5 81  1  0  0  0  0 
 81 82  1  1  0  0  0 
 82 83  1  0  0  0  0 
 82 84  1  0  0  0  0 
 82 85  1  0  0  0  0 
 81 86  1  6  0  0  0 
 86 87  1  0  0  0  0 
M  END
> <Rank>
3

> <Priority_score>
0.592

> <Reaction_type>
glutathione_conjugation_(alpha,beta-unsaturated_carbonyl)

> <Parent_ID>
57

> <Parent_InChI>
InChI=1S/C20H27ClO2/c1-18-9-8-16(22)17(21)15(18)5-4-12-13(18)6-10-19(2)14(12)7-11-20(19,3)23/h8-9,12-14,23H,4-7,10-11H2,1-3H3

> <Parent_SMILES>
C[C@]12C=CC(=O)C(Cl)=C1CC[C@H]1[C@H]2CC[C@]2(C)[C@@H]1CC[C@]2(C)O

$$$$
Molecule 57_metabolite 4
  CDK     0516241031

 51 54  0  0  0  0  0  0  0  0999 V2000
   -2.1181   -3.3297    0.0000 C   0  0  0  0  0  0  0  0  0  0  0  0
   -4.0026   -1.7485    0.0000 H   0  0  0  0  0  0  0  0  0  0  0  0
   -0.2575   -4.0069    0.0000 H   0  0  0  0  0  0  0  0  0  0  0  0
   -1.3681   -2.0307    0.0000 H   0  0  0  0  0  0  0  0  0  0  0  0
   -2.3786   -4.8070    0.0000 C   0  0  2  0  0  0  0  0  0  0  0  0
   -3.6786   -4.0570    0.0000 C   0  0  0  0  0  0  0  0  0  0  0  0
   -3.6786   -2.5570    0.0000 H   0  0  0  0  0  0  0  0  0  0  0  0
   -4.9786   -4.8070    0.0000 C   0  0  0  0  0  0  0  0  0  0  0  0
   -6.2775   -4.0568    0.0000 H   0  0  0  0  0  0  0  0  0  0  0  0
   -4.9786   -6.3070    0.0000 C   0  0  0  0  0  0  0  0  0  0  0  0
   -6.2775   -7.0572    0.0000 O   0  0  0  0  0  0  0  0  0  0  0  0
   -3.6786   -7.0570    0.0000 C   0  0  0  0  0  0  0  0  0  0  0  0
   -2.3786   -6.3070    0.0000 C   0  0  0  0  0  0  0  0  0  0  0  0
   -1.0786   -7.0570    0.0000 C   0  0  0  0  0  0  0  0  0  0  0  0
   -2.0426   -8.2061    0.0000 H   0  0  0  0  0  0  0  0  0  0  0  0
   -0.1145   -8.2061    0.0000 H   0  0  0  0  0  0  0  0  0  0  0  0
    0.2214   -6.3070    0.0000 C   0  0  0  0  0  0  0  0  0  0  0  0
    0.7342   -7.7166    0.0000 H   0  0  0  0  0  0  0  0  0  0  0  0
    0.2214   -4.8070    0.0000 C   0  0  1  0  0  0  0  0  0  0  0  0
    1.5204   -5.5572    0.0000 H   0  0  0  0  0  0  0  0  0  0  0  0
   -1.0786   -4.0570    0.0000 C   0  0  1  0  0  0  0  0  0  0  0  0
    0.2204   -3.3068    0.0000 H   0  0  0  0  0  0  0  0  0  0  0  0
   -1.0786   -2.5570    0.0000 C   0  0  0  0  0  0  0  0  0  0  0  0
   -1.5913   -1.1473    0.0000 H   0  0  0  0  0  0  0  0  0  0  0  0
   -2.5558   -2.8173    0.0000 H   0  0  0  0  0  0  0  0  0  0  0  0
    0.2214   -1.8070    0.0000 C   0  0  0  0  0  0  0  0  0  0  0  0
    1.1855   -0.6578    0.0000 H   0  0  0  0  0  0  0  0  0  0  0  0
   -0.7426   -0.6578    0.0000 H   0  0  0  0  0  0  0  0  0  0  0  0
    1.5214   -2.5570    0.0000 C   0  0  2  0  0  0  0  0  0  0  0  0
    1.7818   -0.1108    0.0000 C   0  0  0  0  0  0  0  0  0  0  0  0
    0.5694    0.7725    0.0000 H   0  0  0  0  0  0  0  0  0  0  0  0
    3.0740    2.5300    0.0000 H   0  0  0  0  0  0  0  0  0  0  0  0
    3.2231   -0.5261    0.0000 H   0  0  0  0  0  0  0  0  0  0  0  0
    1.5214   -4.0570    0.0000 C   0  0  2  0  0  0  0  0  0  0  0  0
    2.5200   -2.9377    0.0000 H   0  0  0  0  0  0  0  0  0  0  0  0
    2.9514   -4.5170    0.0000 C   0  0  0  0  0  0  0  0  0  0  0  0
    2.3438   -5.8884    0.0000 H   0  0  0  0  0  0  0  0  0  0  0  0
    4.2510   -5.2661    0.0000 H   0  0  0  0  0  0  0  0  0  0  0  0
    3.8314   -3.3070    0.0000 C   0  0  0  0  0  0  0  0  0  0  0  0
    4.9460   -4.3108    0.0000 H   0  0  0  0  0  0  0  0  0  0  0  0
    4.9460   -2.3031    0.0000 H   0  0  0  0  0  0  0  0  0  0  0  0
    2.9514   -2.0970    0.0000 C   0  0  1  0  0  0  0  0  0  0  0  0
    5.0827   -0.8684    0.0000 C   0  0  0  0  0  0  0  0  0  0  0  0
    6.3812   -1.6192    0.0000 H   0  0  0  0  0  0  0  0  0  0  0  0
    6.0476    0.2801    0.0000 H   0  0  0  0  0  0  0  0  0  0  0  0
    4.1193    0.2813    0.0000 H   0  0  0  0  0  0  0  0  0  0  0  0
    2.7516    0.8362    0.0000 O   0  0  0  0  0  0  0  0  0  0  0  0
    3.9967    1.6728    0.0000 H   0  0  0  0  0  0  0  0  0  0  0  0
    1.7214   -6.3071    0.0000 O   0  0  0  0  0  0  0  0  0  0  0  0
    2.4713   -7.6062    0.0000 H   0  0  0  0  0  0  0  0  0  0  0  0
   -3.6786   -8.5570    0.0000 Cl  0  0  0  0  0  0  0  0  0  0  0  0
  1  2  1  0  0  0  0 
  1  3  1  0  0  0  0 
  1  4  1  0  0  0  0 
  1  5  1  0  0  0  0 
  5  6  1  6  0  0  0 
  6  7  1  0  0  0  0 
  6  8  2  0  0  0  0 
  8  9  1  0  0  0  0 
  8 10  1  0  0  0  0 
 10 11  2  0  0  0  0 
 10 12  1  0  0  0  0 
 12 13  2  0  0  0  0 
  5 13  1  0  0  0  0 
 13 14  1  0  0  0  0 
 14 15  1  0  0  0  0 
 14 16  1  0  0  0  0 
 14 17  1  0  0  0  0 
 17 18  1  0  0  0  0 
 17 19  1  0  0  0  0 
 19 20  1  6  0  0  0 
 19 21  1  0  0  0  0 
  5 21  1  0  0  0  0 
 21 22  1  1  0  0  0 
 21 23  1  0  0  0  0 
 23 24  1  0  0  0  0 
 23 25  1  0  0  0  0 
 23 26  1  0  0  0  0 
 26 27  1  0  0  0  0 
 26 28  1  0  0  0  0 
 26 29  1  0  0  0  0 
 29 30  1  6  0  0  0 
 30 31  1  0  0  0  0 
 30 32  1  0  0  0  0 
 30 33  1  0  0  0  0 
 29 34  1  0  0  0  0 
 19 34  1  0  0  0  0 
 34 35  1  1  0  0  0 
 34 36  1  0  0  0  0 
 36 37  1  0  0  0  0 
 36 38  1  0  0  0  0 
 36 39  1  0  0  0  0 
 39 40  1  0  0  0  0 
 39 41  1  0  0  0  0 
 39 42  1  0  0  0  0 
 29 42  1  0  0  0  0 
 42 43  1  6  0  0  0 
 43 44  1  0  0  0  0 
 43 45  1  0  0  0  0 
 43 46  1  0  0  0  0 
 42 47  1  1  0  0  0 
 47 48  1  0  0  0  0 
 17 49  1  0  0  0  0 
 49 50  1  0  0  0  0 
 12 51  1  0  0  0  0 
M  END
> <Rank>
4

> <Priority_score>
0.38

> <Reaction_type>
aliphatic hydroxylation

> <Parent_ID>
57

> <Parent_InChI>
InChI=1S/C20H27ClO2/c1-18-9-8-16(22)17(21)15(18)5-4-12-13(18)6-10-19(2)14(12)7-11-20(19,3)23/h8-9,12-14,23H,4-7,10-11H2,1-3H3

> <Parent_SMILES>
C[C@]12C=CC(=O)C(Cl)=C1CC[C@H]1[C@H]2CC[C@]2(C)[C@@H]1CC[C@]2(C)O

$$$$
Molecule 57_metabolite 5
  CDK     0516241031

 51 54  0  0  0  0  0  0  0  0999 V2000
   -1.6035   -2.1546    0.0000 C   0  0  0  0  0  0  0  0  0  0  0  0
   -3.1847   -0.2702    0.0000 H   0  0  0  0  0  0  0  0  0  0  0  0
    0.2571   -2.8318    0.0000 H   0  0  0  0  0  0  0  0  0  0  0  0
   -0.8535   -0.8556    0.0000 H   0  0  0  0  0  0  0  0  0  0  0  0
   -1.8639   -3.6318    0.0000 C   0  0  2  0  0  0  0  0  0  0  0  0
   -3.1639   -2.8818    0.0000 C   0  0  0  0  0  0  0  0  0  0  0  0
   -3.1639   -1.3818    0.0000 H   0  0  0  0  0  0  0  0  0  0  0  0
   -4.4639   -3.6318    0.0000 C   0  0  0  0  0  0  0  0  0  0  0  0
   -5.7629   -2.8816    0.0000 H   0  0  0  0  0  0  0  0  0  0  0  0
   -4.4639   -5.1318    0.0000 C   0  0  0  0  0  0  0  0  0  0  0  0
   -5.7629   -5.8821    0.0000 O   0  0  0  0  0  0  0  0  0  0  0  0
   -3.1639   -5.8818    0.0000 C   0  0  0  0  0  0  0  0  0  0  0  0
   -1.8639   -5.1318    0.0000 C   0  0  0  0  0  0  0  0  0  0  0  0
   -0.5639   -5.8818    0.0000 C   0  0  0  0  0  0  0  0  0  0  0  0
   -1.5280   -7.0310    0.0000 H   0  0  0  0  0  0  0  0  0  0  0  0
    0.7361   -5.1318    0.0000 C   0  0  0  0  0  0  0  0  0  0  0  0
    1.2488   -6.5415    0.0000 H   0  0  0  0  0  0  0  0  0  0  0  0
   -0.7412   -4.8715    0.0000 H   0  0  0  0  0  0  0  0  0  0  0  0
    0.7361   -3.6318    0.0000 C   0  0  1  0  0  0  0  0  0  0  0  0
    2.0350   -4.3821    0.0000 H   0  0  0  0  0  0  0  0  0  0  0  0
   -0.5639   -2.8818    0.0000 C   0  0  1  0  0  0  0  0  0  0  0  0
    0.7350   -2.1316    0.0000 H   0  0  0  0  0  0  0  0  0  0  0  0
   -0.5639   -1.3818    0.0000 C   0  0  0  0  0  0  0  0  0  0  0  0
   -1.0767    0.0278    0.0000 H   0  0  0  0  0  0  0  0  0  0  0  0
   -2.0412   -1.6422    0.0000 H   0  0  0  0  0  0  0  0  0  0  0  0
    0.7361   -0.6318    0.0000 C   0  0  0  0  0  0  0  0  0  0  0  0
    1.7001    0.5173    0.0000 H   0  0  0  0  0  0  0  0  0  0  0  0
   -0.2280    0.5173    0.0000 H   0  0  0  0  0  0  0  0  0  0  0  0
    2.0361   -1.3818    0.0000 C   0  0  2  0  0  0  0  0  0  0  0  0
    2.2964    1.0643    0.0000 C   0  0  0  0  0  0  0  0  0  0  0  0
    1.0840    1.9476    0.0000 H   0  0  0  0  0  0  0  0  0  0  0  0
    2.9557    2.4117    0.0000 H   0  0  0  0  0  0  0  0  0  0  0  0
    3.7378    0.6490    0.0000 H   0  0  0  0  0  0  0  0  0  0  0  0
    2.0361   -2.8818    0.0000 C   0  0  2  0  0  0  0  0  0  0  0  0
    3.0347   -1.7626    0.0000 H   0  0  0  0  0  0  0  0  0  0  0  0
    3.4661   -3.3418    0.0000 C   0  0  0  0  0  0  0  0  0  0  0  0
    2.8584   -4.7133    0.0000 H   0  0  0  0  0  0  0  0  0  0  0  0
    4.7656   -4.0910    0.0000 H   0  0  0  0  0  0  0  0  0  0  0  0
    4.3461   -2.1318    0.0000 C   0  0  0  0  0  0  0  0  0  0  0  0
    5.4606   -3.1357    0.0000 H   0  0  0  0  0  0  0  0  0  0  0  0
    5.4606   -1.1280    0.0000 H   0  0  0  0  0  0  0  0  0  0  0  0
    3.4661   -0.9218    0.0000 C   0  0  1  0  0  0  0  0  0  0  0  0
    5.5973    0.3067    0.0000 C   0  0  0  0  0  0  0  0  0  0  0  0
    6.8958   -0.4441    0.0000 H   0  0  0  0  0  0  0  0  0  0  0  0
    6.5622    1.4552    0.0000 H   0  0  0  0  0  0  0  0  0  0  0  0
    4.6339    1.4564    0.0000 H   0  0  0  0  0  0  0  0  0  0  0  0
    3.7786    2.0015    0.0000 O   0  0  0  0  0  0  0  0  0  0  0  0
    5.1500    2.6091    0.0000 H   0  0  0  0  0  0  0  0  0  0  0  0
    0.4001   -7.0310    0.0000 O   0  0  0  0  0  0  0  0  0  0  0  0
   -0.1131   -8.4405    0.0000 H   0  0  0  0  0  0  0  0  0  0  0  0
   -3.1639   -7.3818    0.0000 Cl  0  0  0  0  0  0  0  0  0  0  0  0
  1  2  1  0  0  0  0 
  1  3  1  0  0  0  0 
  1  4  1  0  0  0  0 
  1  5  1  0  0  0  0 
  5  6  1  6  0  0  0 
  6  7  1  0  0  0  0 
  6  8  2  0  0  0  0 
  8  9  1  0  0  0  0 
  8 10  1  0  0  0  0 
 10 11  2  0  0  0  0 
 10 12  1  0  0  0  0 
 12 13  2  0  0  0  0 
  5 13  1  0  0  0  0 
 13 14  1  0  0  0  0 
 14 15  1  0  0  0  0 
 14 16  1  0  0  0  0 
 16 17  1  0  0  0  0 
 16 18  1  0  0  0  0 
 16 19  1  0  0  0  0 
 19 20  1  6  0  0  0 
 19 21  1  0  0  0  0 
  5 21  1  0  0  0  0 
 21 22  1  1  0  0  0 
 21 23  1  0  0  0  0 
 23 24  1  0  0  0  0 
 23 25  1  0  0  0  0 
 23 26  1  0  0  0  0 
 26 27  1  0  0  0  0 
 26 28  1  0  0  0  0 
 26 29  1  0  0  0  0 
 29 30  1  6  0  0  0 
 30 31  1  0  0  0  0 
 30 32  1  0  0  0  0 
 30 33  1  0  0  0  0 
 29 34  1  0  0  0  0 
 19 34  1  0  0  0  0 
 34 35  1  1  0  0  0 
 34 36  1  0  0  0  0 
 36 37  1  0  0  0  0 
 36 38  1  0  0  0  0 
 36 39  1  0  0  0  0 
 39 40  1  0  0  0  0 
 39 41  1  0  0  0  0 
 39 42  1  0  0  0  0 
 29 42  1  0  0  0  0 
 42 43  1  6  0  0  0 
 43 44  1  0  0  0  0 
 43 45  1  0  0  0  0 
 43 46  1  0  0  0  0 
 42 47  1  1  0  0  0 
 47 48  1  0  0  0  0 
 14 49  1  0  0  0  0 
 49 50  1  0  0  0  0 
 12 51  1  0  0  0  0 
M  END
> <Rank>
4

> <Priority_score>
0.38

> <Reaction_type>
aliphatic_hydroxylation_(sec_carbon_next_to_SP2,in_a_ring)

> <Parent_ID>
57

> <Parent_InChI>
InChI=1S/C20H27ClO2/c1-18-9-8-16(22)17(21)15(18)5-4-12-13(18)6-10-19(2)14(12)7-11-20(19,3)23/h8-9,12-14,23H,4-7,10-11H2,1-3H3

> <Parent_SMILES>
C[C@]12C=CC(=O)C(Cl)=C1CC[C@H]1[C@H]2CC[C@]2(C)[C@@H]1CC[C@]2(C)O

$$$$
Molecule 57_metabolite 6
  CDK     0516241031

 52 55  0  0  0  0  0  0  0  0999 V2000
   -2.1832   -5.5605    0.0000 C   0  0  0  0  0  0  0  0  0  0  0  0
   -0.8842   -4.8105    0.0000 H   0  0  0  0  0  0  0  0  0  0  0  0
   -3.6604   -5.8210    0.0000 H   0  0  0  0  0  0  0  0  0  0  0  0
   -3.1887   -2.7978    0.0000 H   0  0  0  0  0  0  0  0  0  0  0  0
   -2.1832   -8.5005    0.0000 C   0  0  2  0  0  0  0  0  0  0  0  0
   -3.4832   -7.7505    0.0000 C   0  0  0  0  0  0  0  0  0  0  0  0
   -2.3342   -6.7862    0.0000 H   0  0  0  0  0  0  0  0  0  0  0  0
   -4.4473   -6.6014    0.0000 H   0  0  0  0  0  0  0  0  0  0  0  0
   -4.7832   -8.5005    0.0000 C   0  0  0  0  0  0  0  0  0  0  0  0
   -5.2959   -7.0909    0.0000 H   0  0  0  0  0  0  0  0  0  0  0  0
   -6.2604   -8.7608    0.0000 H   0  0  0  0  0  0  0  0  0  0  0  0
   -4.7832  -10.0005    0.0000 C   0  0  0  0  0  0  0  0  0  0  0  0
   -6.0821  -10.7507    0.0000 O   0  0  0  0  0  0  0  0  0  0  0  0
   -3.4832  -10.7505    0.0000 C   0  0  0  0  0  0  0  0  0  0  0  0
   -2.1832  -10.0005    0.0000 C   0  0  0  0  0  0  0  0  0  0  0  0
   -0.8832  -10.7505    0.0000 C   0  0  0  0  0  0  0  0  0  0  0  0
   -1.8473  -11.8997    0.0000 H   0  0  0  0  0  0  0  0  0  0  0  0
    0.0809  -11.8997    0.0000 H   0  0  0  0  0  0  0  0  0  0  0  0
    0.4168  -10.0005    0.0000 C   0  0  0  0  0  0  0  0  0  0  0  0
    0.9295  -11.4102    0.0000 H   0  0  0  0  0  0  0  0  0  0  0  0
   -1.0604   -9.7402    0.0000 H   0  0  0  0  0  0  0  0  0  0  0  0
    0.4168   -8.5005    0.0000 C   0  0  1  0  0  0  0  0  0  0  0  0
    1.7157   -9.2507    0.0000 H   0  0  0  0  0  0  0  0  0  0  0  0
   -0.8832   -7.7505    0.0000 C   0  0  1  0  0  0  0  0  0  0  0  0
    0.4157   -7.0003    0.0000 H   0  0  0  0  0  0  0  0  0  0  0  0
   -0.8832   -6.2505    0.0000 C   0  0  0  0  0  0  0  0  0  0  0  0
   -1.8881   -3.4876    0.0000 H   0  0  0  0  0  0  0  0  0  0  0  0
   -2.8632   -6.2503    0.0000 H   0  0  0  0  0  0  0  0  0  0  0  0
    0.4168   -5.5005    0.0000 C   0  0  0  0  0  0  0  0  0  0  0  0
    1.3809   -4.3514    0.0000 H   0  0  0  0  0  0  0  0  0  0  0  0
   -0.0961   -4.0909    0.0000 H   0  0  0  0  0  0  0  0  0  0  0  0
    1.7168   -6.2505    0.0000 C   0  0  2  0  0  0  0  0  0  0  0  0
    1.9771   -3.8043    0.0000 C   0  0  0  0  0  0  0  0  0  0  0  0
    0.7648   -2.9211    0.0000 H   0  0  0  0  0  0  0  0  0  0  0  0
    3.2694   -1.1636    0.0000 H   0  0  0  0  0  0  0  0  0  0  0  0
    3.4185   -4.2197    0.0000 H   0  0  0  0  0  0  0  0  0  0  0  0
    1.7168   -7.7505    0.0000 C   0  0  2  0  0  0  0  0  0  0  0  0
    2.7154   -6.6312    0.0000 H   0  0  0  0  0  0  0  0  0  0  0  0
    3.1468   -8.2105    0.0000 C   0  0  0  0  0  0  0  0  0  0  0  0
    2.5392   -9.5819    0.0000 H   0  0  0  0  0  0  0  0  0  0  0  0
    4.4463   -8.9597    0.0000 H   0  0  0  0  0  0  0  0  0  0  0  0
    4.0268   -7.0005    0.0000 C   0  0  0  0  0  0  0  0  0  0  0  0
    5.1414   -8.0044    0.0000 H   0  0  0  0  0  0  0  0  0  0  0  0
    5.1414   -5.9967    0.0000 H   0  0  0  0  0  0  0  0  0  0  0  0
    3.1468   -5.7905    0.0000 C   0  0  1  0  0  0  0  0  0  0  0  0
    5.2780   -4.5619    0.0000 C   0  0  0  0  0  0  0  0  0  0  0  0
    6.5766   -5.3128    0.0000 H   0  0  0  0  0  0  0  0  0  0  0  0
    6.2430   -3.4135    0.0000 H   0  0  0  0  0  0  0  0  0  0  0  0
    4.3146   -3.4122    0.0000 H   0  0  0  0  0  0  0  0  0  0  0  0
    2.9470   -2.8573    0.0000 O   0  0  0  0  0  0  0  0  0  0  0  0
    4.1921   -2.0208    0.0000 H   0  0  0  0  0  0  0  0  0  0  0  0
   -3.4832  -12.2505    0.0000 Cl  0  0  0  0  0  0  0  0  0  0  0  0
  1  2  1  0  0  0  0 
  1  3  1  0  0  0  0 
  1  4  1  0  0  0  0 
  1  5  1  0  0  0  0 
  5  6  1  0  0  0  0 
  6  7  1  0  0  0  0 
  6  8  1  0  0  0  0 
  6  9  1  0  0  0  0 
  9 10  1  0  0  0  0 
  9 11  1  0  0  0  0 
  9 12  1  0  0  0  0 
 12 13  2  0  0  0  0 
 12 14  1  0  0  0  0 
 14 15  2  0  0  0  0 
  5 15  1  1  0  0  0 
 15 16  1  0  0  0  0 
 16 17  1  0  0  0  0 
 16 18  1  0  0  0  0 
 16 19  1  0  0  0  0 
 19 20  1  0  0  0  0 
 19 21  1  0  0  0  0 
 19 22  1  0  0  0  0 
 22 23  1  6  0  0  0 
 22 24  1  0  0  0  0 
  5 24  1  0  0  0  0 
 24 25  1  1  0  0  0 
 24 26  1  0  0  0  0 
 26 27  1  0  0  0  0 
 26 28  1  0  0  0  0 
 26 29  1  0  0  0  0 
 29 30  1  0  0  0  0 
 29 31  1  0  0  0  0 
 29 32  1  0  0  0  0 
 32 33  1  6  0  0  0 
 33 34  1  0  0  0  0 
 33 35  1  0  0  0  0 
 33 36  1  0  0  0  0 
 32 37  1  0  0  0  0 
 22 37  1  0  0  0  0 
 37 38  1  1  0  0  0 
 37 39  1  0  0  0  0 
 39 40  1  0  0  0  0 
 39 41  1  0  0  0  0 
 39 42  1  0  0  0  0 
 42 43  1  0  0  0  0 
 42 44  1  0  0  0  0 
 42 45  1  0  0  0  0 
 32 45  1  0  0  0  0 
 45 46  1  6  0  0  0 
 46 47  1  0  0  0  0 
 46 48  1  0  0  0  0 
 46 49  1  0  0  0  0 
 45 50  1  1  0  0  0 
 50 51  1  0  0  0  0 
 14 52  1  0  0  0  0 
M  END
> <Rank>
6

> <Priority_score>
0.224

> <Reaction_type>
double_bond_reduction

> <Parent_ID>
57

> <Parent_InChI>
InChI=1S/C20H27ClO2/c1-18-9-8-16(22)17(21)15(18)5-4-12-13(18)6-10-19(2)14(12)7-11-20(19,3)23/h8-9,12-14,23H,4-7,10-11H2,1-3H3

> <Parent_SMILES>
C[C@]12C=CC(=O)C(Cl)=C1CC[C@H]1[C@H]2CC[C@]2(C)[C@@H]1CC[C@]2(C)O

$$$$
Molecule 57_metabolite 7
  CDK     0516241031

 51 55  0  0  0  0  0  0  0  0999 V2000
    1.4075   -2.0602    0.0000 C   0  0  0  0  0  0  0  0  0  0  0  0
    0.1917   -1.1817    0.0000 H   0  0  0  0  0  0  0  0  0  0  0  0
    2.6894    0.5856    0.0000 H   0  0  0  0  0  0  0  0  0  0  0  0
    2.8505   -2.4699    0.0000 H   0  0  0  0  0  0  0  0  0  0  0  0
    1.1567   -4.5074    0.0000 C   0  0  1  0  0  0  0  0  0  0  0  0
   -0.1433   -3.7674    0.0000 C   0  0  0  0  0  0  0  0  0  0  0  0
    0.8186   -2.6164    0.0000 H   0  0  0  0  0  0  0  0  0  0  0  0
   -1.1051   -2.6164    0.0000 H   0  0  0  0  0  0  0  0  0  0  0  0
   -1.4433   -4.5074    0.0000 C   0  0  0  0  0  0  0  0  0  0  0  0
   -1.9505   -3.0958    0.0000 H   0  0  0  0  0  0  0  0  0  0  0  0
    0.0345   -4.7648    0.0000 H   0  0  0  0  0  0  0  0  0  0  0  0
   -1.4433   -6.0074    0.0000 C   0  0  2  0  0  0  0  0  0  0  0  0
   -2.7443   -5.2609    0.0000 H   0  0  0  0  0  0  0  0  0  0  0  0
   -0.1433   -6.7674    0.0000 C   0  0  2  0  0  0  0  0  0  0  0  0
   -0.1555   -5.2674    0.0000 H   0  0  0  0  0  0  0  0  0  0  0  0
   -0.1433   -8.2674    0.0000 C   0  0  0  0  0  0  0  0  0  0  0  0
    0.3640   -9.6790    0.0000 H   0  0  0  0  0  0  0  0  0  0  0  0
    1.3345   -8.0099    0.0000 H   0  0  0  0  0  0  0  0  0  0  0  0
   -1.4433   -9.0074    0.0000 C   0  0  0  0  0  0  0  0  0  0  0  0
   -2.4051  -10.1584    0.0000 H   0  0  0  0  0  0  0  0  0  0  0  0
   -0.4814  -10.1584    0.0000 H   0  0  0  0  0  0  0  0  0  0  0  0
   -2.7433   -8.2674    0.0000 C   0  0  0  0  0  0  0  0  0  0  0  0
   -4.0433   -9.0074    0.0000 C   0  0  0  0  0  0  0  0  0  0  0  0
   -5.3433   -8.2674    0.0000 C   0  0  0  0  0  0  0  0  0  0  0  0
   -6.6400   -9.0213    0.0000 O   0  0  0  0  0  0  0  0  0  0  0  0
   -5.3433   -6.7674    0.0000 C   0  0  0  0  0  0  0  0  0  0  0  0
   -6.8433   -6.7674    0.0000 H   0  0  0  0  0  0  0  0  0  0  0  0
   -4.0433   -6.0074    0.0000 C   0  0  0  0  0  0  0  0  0  0  0  0
   -3.2937   -4.7081    0.0000 H   0  0  0  0  0  0  0  0  0  0  0  0
   -2.7433   -6.7674    0.0000 C   0  0  2  0  0  0  0  0  0  0  0  0
   -2.7433   -3.8274    0.0000 C   0  0  0  0  0  0  0  0  0  0  0  0
   -4.0423   -3.0774    0.0000 H   0  0  0  0  0  0  0  0  0  0  0  0
   -1.2660   -4.0879    0.0000 H   0  0  0  0  0  0  0  0  0  0  0  0
   -1.9019   -1.5157    0.0000 H   0  0  0  0  0  0  0  0  0  0  0  0
   -5.3433   -5.2674    0.0000 O   0  0  0  0  0  0  0  0  0  0  0  0
   -4.0433  -10.5074    0.0000 Cl  0  0  0  0  0  0  0  0  0  0  0  0
    1.1567   -6.0074    0.0000 C   0  0  1  0  0  0  0  0  0  0  0  0
    2.1726   -4.9037    0.0000 H   0  0  0  0  0  0  0  0  0  0  0  0
    2.5767   -6.4774    0.0000 C   0  0  0  0  0  0  0  0  0  0  0  0
    1.9614   -7.8454    0.0000 H   0  0  0  0  0  0  0  0  0  0  0  0
    3.8742   -7.2302    0.0000 H   0  0  0  0  0  0  0  0  0  0  0  0
    3.4567   -5.2674    0.0000 C   0  0  0  0  0  0  0  0  0  0  0  0
    4.5700   -6.2727    0.0000 H   0  0  0  0  0  0  0  0  0  0  0  0
    4.5739   -4.2664    0.0000 H   0  0  0  0  0  0  0  0  0  0  0  0
    2.5767   -4.0474    0.0000 C   0  0  1  0  0  0  0  0  0  0  0  0
    4.7103   -2.8229    0.0000 C   0  0  0  0  0  0  0  0  0  0  0  0
    6.0074   -3.5762    0.0000 H   0  0  0  0  0  0  0  0  0  0  0  0
    5.6775   -1.6763    0.0000 H   0  0  0  0  0  0  0  0  0  0  0  0
    3.7491   -1.6713    0.0000 H   0  0  0  0  0  0  0  0  0  0  0  0
    2.3767   -1.1142    0.0000 O   0  0  0  0  0  0  0  0  0  0  0  0
    3.6217   -0.2776    0.0000 H   0  0  0  0  0  0  0  0  0  0  0  0
  1  2  1  0  0  0  0 
  1  3  1  0  0  0  0 
  1  4  1  0  0  0  0 
  5  1  1  6  0  0  0 
  5  6  1  0  0  0  0 
  6  7  1  0  0  0  0 
  6  8  1  0  0  0  0 
  6  9  1  0  0  0  0 
  9 10  1  0  0  0  0 
  9 11  1  0  0  0  0 
  9 12  1  0  0  0  0 
 12 13  1  1  0  0  0 
 12 14  1  0  0  0  0 
 14 15  1  6  0  0  0 
 14 16  1  0  0  0  0 
 16 17  1  0  0  0  0 
 16 18  1  0  0  0  0 
 16 19  1  0  0  0  0 
 19 20  1  0  0  0  0 
 19 21  1  0  0  0  0 
 19 22  1  0  0  0  0 
 22 23  2  0  0  0  0 
 23 24  1  0  0  0  0 
 24 25  2  0  0  0  0 
 24 26  1  0  0  0  0 
 26 27  1  0  0  0  0 
 26 28  1  0  0  0  0 
 28 29  1  0  0  0  0 
 28 30  1  0  0  0  0 
 12 30  1  0  0  0  0 
 30 22  1  1  0  0  0 
 30 31  1  0  0  0  0 
 31 32  1  0  0  0  0 
 31 33  1  0  0  0  0 
 31 34  1  0  0  0  0 
 28 35  1  0  0  0  0 
 26 35  1  0  0  0  0 
 23 36  1  0  0  0  0 
 14 37  1  0  0  0  0 
  5 37  1  0  0  0  0 
 37 38  1  1  0  0  0 
 37 39  1  0  0  0  0 
 39 40  1  0  0  0  0 
 39 41  1  0  0  0  0 
 39 42  1  0  0  0  0 
 42 43  1  0  0  0  0 
 42 44  1  0  0  0  0 
 42 45  1  0  0  0  0 
  5 45  1  0  0  0  0 
 45 46  1  6  0  0  0 
 46 47  1  0  0  0  0 
 46 48  1  0  0  0  0 
 46 49  1  0  0  0  0 
 45 50  1  1  0  0  0 
 50 51  1  0  0  0  0 
M  END
> <Rank>
6

> <Priority_score>
0.224

> <Reaction_type>
epoxidation

> <Parent_ID>
57

> <Parent_InChI>
InChI=1S/C20H27ClO2/c1-18-9-8-16(22)17(21)15(18)5-4-12-13(18)6-10-19(2)14(12)7-11-20(19,3)23/h8-9,12-14,23H,4-7,10-11H2,1-3H3

> <Parent_SMILES>
C[C@]12C=CC(=O)C(Cl)=C1CC[C@H]1[C@H]2CC[C@]2(C)[C@@H]1CC[C@]2(C)O

$$$$
Molecule 57_metabolite 8
  CDK     0516241031

 51 54  0  0  0  0  0  0  0  0999 V2000
   -1.6035   -2.1546    0.0000 C   0  0  0  0  0  0  0  0  0  0  0  0
   -3.1847   -0.2702    0.0000 H   0  0  0  0  0  0  0  0  0  0  0  0
    0.2571   -2.8318    0.0000 H   0  0  0  0  0  0  0  0  0  0  0  0
   -0.8535   -0.8556    0.0000 H   0  0  0  0  0  0  0  0  0  0  0  0
   -1.8639   -3.6318    0.0000 C   0  0  2  0  0  0  0  0  0  0  0  0
   -3.1639   -2.8818    0.0000 C   0  0  0  0  0  0  0  0  0  0  0  0
   -3.1639   -1.3818    0.0000 H   0  0  0  0  0  0  0  0  0  0  0  0
   -4.4639   -3.6318    0.0000 C   0  0  0  0  0  0  0  0  0  0  0  0
   -5.7629   -2.8816    0.0000 H   0  0  0  0  0  0  0  0  0  0  0  0
   -4.4639   -5.1318    0.0000 C   0  0  0  0  0  0  0  0  0  0  0  0
   -5.7629   -5.8821    0.0000 O   0  0  0  0  0  0  0  0  0  0  0  0
   -3.1639   -5.8818    0.0000 C   0  0  0  0  0  0  0  0  0  0  0  0
   -1.8639   -5.1318    0.0000 C   0  0  0  0  0  0  0  0  0  0  0  0
   -0.5639   -5.8818    0.0000 C   0  0  0  0  0  0  0  0  0  0  0  0
   -1.5280   -7.0310    0.0000 H   0  0  0  0  0  0  0  0  0  0  0  0
    0.4001   -7.0310    0.0000 H   0  0  0  0  0  0  0  0  0  0  0  0
    0.7361   -5.1318    0.0000 C   0  0  0  0  0  0  0  0  0  0  0  0
    1.2488   -6.5415    0.0000 H   0  0  0  0  0  0  0  0  0  0  0  0
   -0.7412   -4.8715    0.0000 H   0  0  0  0  0  0  0  0  0  0  0  0
    0.7361   -3.6318    0.0000 C   0  0  1  0  0  0  0  0  0  0  0  0
    2.0350   -4.3821    0.0000 H   0  0  0  0  0  0  0  0  0  0  0  0
   -0.5639   -2.8818    0.0000 C   0  0  1  0  0  0  0  0  0  0  0  0
    0.7350   -2.1316    0.0000 H   0  0  0  0  0  0  0  0  0  0  0  0
   -0.5639   -1.3818    0.0000 C   0  0  0  0  0  0  0  0  0  0  0  0
   -1.0767    0.0278    0.0000 H   0  0  0  0  0  0  0  0  0  0  0  0
   -2.0412   -1.6422    0.0000 H   0  0  0  0  0  0  0  0  0  0  0  0
    0.7361   -0.6318    0.0000 C   0  0  0  0  0  0  0  0  0  0  0  0
    1.7001    0.5173    0.0000 H   0  0  0  0  0  0  0  0  0  0  0  0
   -0.2280    0.5173    0.0000 H   0  0  0  0  0  0  0  0  0  0  0  0
    2.0361   -1.3818    0.0000 C   0  0  2  0  0  0  0  0  0  0  0  0
    2.2964    1.0643    0.0000 C   0  0  0  0  0  0  0  0  0  0  0  0
    1.0840    1.9476    0.0000 H   0  0  0  0  0  0  0  0  0  0  0  0
    2.9557    2.4117    0.0000 H   0  0  0  0  0  0  0  0  0  0  0  0
    3.7378    0.6490    0.0000 H   0  0  0  0  0  0  0  0  0  0  0  0
    2.0361   -2.8818    0.0000 C   0  0  2  0  0  0  0  0  0  0  0  0
    3.0347   -1.7626    0.0000 H   0  0  0  0  0  0  0  0  0  0  0  0
    3.4661   -3.3418    0.0000 C   0  0  0  0  0  0  0  0  0  0  0  0
    2.8584   -4.7133    0.0000 H   0  0  0  0  0  0  0  0  0  0  0  0
    4.7656   -4.0910    0.0000 H   0  0  0  0  0  0  0  0  0  0  0  0
    4.3461   -2.1318    0.0000 C   0  0  0  0  0  0  0  0  0  0  0  0
    5.4606   -3.1357    0.0000 H   0  0  0  0  0  0  0  0  0  0  0  0
    3.4661   -0.9218    0.0000 C   0  0  1  0  0  0  0  0  0  0  0  0
    5.5973    0.3067    0.0000 C   0  0  0  0  0  0  0  0  0  0  0  0
    6.8958   -0.4441    0.0000 H   0  0  0  0  0  0  0  0  0  0  0  0
    6.5622    1.4552    0.0000 H   0  0  0  0  0  0  0  0  0  0  0  0
    4.6339    1.4564    0.0000 H   0  0  0  0  0  0  0  0  0  0  0  0
    3.7786    2.0015    0.0000 O   0  0  0  0  0  0  0  0  0  0  0  0
    5.1500    2.6091    0.0000 H   0  0  0  0  0  0  0  0  0  0  0  0
    5.4606   -1.1280    0.0000 O   0  0  0  0  0  0  0  0  0  0  0  0
    6.8873   -1.5913    0.0000 H   0  0  0  0  0  0  0  0  0  0  0  0
   -3.1639   -7.3818    0.0000 Cl  0  0  0  0  0  0  0  0  0  0  0  0
  1  2  1  0  0  0  0 
  1  3  1  0  0  0  0 
  1  4  1  0  0  0  0 
  1  5  1  0  0  0  0 
  5  6  1  6  0  0  0 
  6  7  1  0  0  0  0 
  6  8  2  0  0  0  0 
  8  9  1  0  0  0  0 
  8 10  1  0  0  0  0 
 10 11  2  0  0  0  0 
 10 12  1  0  0  0  0 
 12 13  2  0  0  0  0 
  5 13  1  0  0  0  0 
 13 14  1  0  0  0  0 
 14 15  1  0  0  0  0 
 14 16  1  0  0  0  0 
 14 17  1  0  0  0  0 
 17 18  1  0  0  0  0 
 17 19  1  0  0  0  0 
 17 20  1  0  0  0  0 
 20 21  1  6  0  0  0 
 20 22  1  0  0  0  0 
  5 22  1  0  0  0  0 
 22 23  1  1  0  0  0 
 22 24  1  0  0  0  0 
 24 25  1  0  0  0  0 
 24 26  1  0  0  0  0 
 24 27  1  0  0  0  0 
 27 28  1  0  0  0  0 
 27 29  1  0  0  0  0 
 27 30  1  0  0  0  0 
 30 31  1  6  0  0  0 
 31 32  1  0  0  0  0 
 31 33  1  0  0  0  0 
 31 34  1  0  0  0  0 
 30 35  1  0  0  0  0 
 20 35  1  0  0  0  0 
 35 36  1  1  0  0  0 
 35 37  1  0  0  0  0 
 37 38  1  0  0  0  0 
 37 39  1  0  0  0  0 
 37 40  1  0  0  0  0 
 40 41  1  0  0  0  0 
 40 42  1  0  0  0  0 
 30 42  1  0  0  0  0 
 42 43  1  6  0  0  0 
 43 44  1  0  0  0  0 
 43 45  1  0  0  0  0 
 43 46  1  0  0  0  0 
 42 47  1  1  0  0  0 
 47 48  1  0  0  0  0 
 40 49  1  0  0  0  0 
 49 50  1  0  0  0  0 
 12 51  1  0  0  0  0 
M  END
> <Rank>
8

> <Priority_score>
0.208

> <Reaction_type>
aliphatic_hydroxylation_(sec_carbon_in_a_ringB)

> <Parent_ID>
57

> <Parent_InChI>
InChI=1S/C20H27ClO2/c1-18-9-8-16(22)17(21)15(18)5-4-12-13(18)6-10-19(2)14(12)7-11-20(19,3)23/h8-9,12-14,23H,4-7,10-11H2,1-3H3

> <Parent_SMILES>
C[C@]12C=CC(=O)C(Cl)=C1CC[C@H]1[C@H]2CC[C@]2(C)[C@@H]1CC[C@]2(C)O

$$$$
Molecule 57_metabolite 9
  CDK     0516241031

 45 48  0  0  0  0  0  0  0  0999 V2000
   -1.8461   -1.9719    0.0000 C   0  0  0  0  0  0  0  0  0  0  0  0
   -3.3629   -0.6992    0.0000 H   0  0  0  0  0  0  0  0  0  0  0  0
   -0.4366   -2.4850    0.0000 H   0  0  0  0  0  0  0  0  0  0  0  0
   -1.0961   -0.6729    0.0000 H   0  0  0  0  0  0  0  0  0  0  0  0
   -2.1900   -3.9219    0.0000 C   0  0  2  0  0  0  0  0  0  0  0  0
   -3.4900   -3.1719    0.0000 C   0  0  0  0  0  0  0  0  0  0  0  0
   -3.4900   -1.6719    0.0000 H   0  0  0  0  0  0  0  0  0  0  0  0
   -4.7900   -3.9219    0.0000 C   0  0  0  0  0  0  0  0  0  0  0  0
   -6.0889   -3.1716    0.0000 H   0  0  0  0  0  0  0  0  0  0  0  0
   -4.7900   -5.4219    0.0000 C   0  0  0  0  0  0  0  0  0  0  0  0
   -6.0889   -6.1721    0.0000 O   0  0  0  0  0  0  0  0  0  0  0  0
   -3.4900   -6.1719    0.0000 C   0  0  0  0  0  0  0  0  0  0  0  0
   -2.1900   -5.4219    0.0000 C   0  0  0  0  0  0  0  0  0  0  0  0
   -0.8900   -6.1719    0.0000 C   0  0  0  0  0  0  0  0  0  0  0  0
   -1.8540   -7.3210    0.0000 H   0  0  0  0  0  0  0  0  0  0  0  0
    0.0741   -7.3210    0.0000 H   0  0  0  0  0  0  0  0  0  0  0  0
    0.4100   -5.4219    0.0000 C   0  0  0  0  0  0  0  0  0  0  0  0
    0.9228   -6.8315    0.0000 H   0  0  0  0  0  0  0  0  0  0  0  0
   -1.0672   -5.1615    0.0000 H   0  0  0  0  0  0  0  0  0  0  0  0
    0.4100   -3.9219    0.0000 C   0  0  2  0  0  0  0  0  0  0  0  0
    1.7090   -4.6721    0.0000 H   0  0  0  0  0  0  0  0  0  0  0  0
    1.7100   -3.1719    0.0000 C   0  0  1  0  0  0  0  0  0  0  0  0
    2.7086   -2.0526    0.0000 H   0  0  0  0  0  0  0  0  0  0  0  0
    3.1400   -3.6319    0.0000 C   0  0  0  0  0  0  0  0  0  0  0  0
    2.5324   -5.0033    0.0000 H   0  0  0  0  0  0  0  0  0  0  0  0
    4.4396   -4.3810    0.0000 H   0  0  0  0  0  0  0  0  0  0  0  0
    4.0200   -2.4219    0.0000 C   0  0  0  0  0  0  0  0  0  0  0  0
    5.1346   -3.4257    0.0000 H   0  0  0  0  0  0  0  0  0  0  0  0
    5.1346   -1.4180    0.0000 H   0  0  0  0  0  0  0  0  0  0  0  0
    3.1400   -1.2119    0.0000 C   0  0  0  0  0  0  0  0  0  0  0  0
    3.6053    0.2142    0.0000 O   0  0  0  0  0  0  0  0  0  0  0  0
    1.7100   -1.6719    0.0000 C   0  0  1  0  0  0  0  0  0  0  0  0
    1.9704    0.7743    0.0000 C   0  0  0  0  0  0  0  0  0  0  0  0
    4.6578    1.9666    0.0000 H   0  0  0  0  0  0  0  0  0  0  0  0
    1.6094    2.2302    0.0000 H   0  0  0  0  0  0  0  0  0  0  0  0
    0.4739    0.6717    0.0000 H   0  0  0  0  0  0  0  0  0  0  0  0
    0.4100   -0.9219    0.0000 C   0  0  0  0  0  0  0  0  0  0  0  0
    1.3741    0.2273    0.0000 H   0  0  0  0  0  0  0  0  0  0  0  0
   -0.5540    0.2273    0.0000 H   0  0  0  0  0  0  0  0  0  0  0  0
   -0.8900   -1.6719    0.0000 C   0  0  0  0  0  0  0  0  0  0  0  0
   -1.8949    1.0911    0.0000 H   0  0  0  0  0  0  0  0  0  0  0  0
    0.5873   -1.9322    0.0000 H   0  0  0  0  0  0  0  0  0  0  0  0
   -0.8900   -3.1719    0.0000 C   0  0  1  0  0  0  0  0  0  0  0  0
   -2.1889   -2.4216    0.0000 H   0  0  0  0  0  0  0  0  0  0  0  0
   -3.4900   -7.6719    0.0000 Cl  0  0  0  0  0  0  0  0  0  0  0  0
  1  2  1  0  0  0  0 
  1  3  1  0  0  0  0 
  1  4  1  0  0  0  0 
  1  5  1  0  0  0  0 
  5  6  1  6  0  0  0 
  6  7  1  0  0  0  0 
  6  8  2  0  0  0  0 
  8  9  1  0  0  0  0 
  8 10  1  0  0  0  0 
 10 11  2  0  0  0  0 
 10 12  1  0  0  0  0 
 12 13  2  0  0  0  0 
  5 13  1  0  0  0  0 
 13 14  1  0  0  0  0 
 14 15  1  0  0  0  0 
 14 16  1  0  0  0  0 
 14 17  1  0  0  0  0 
 17 18  1  0  0  0  0 
 17 19  1  0  0  0  0 
 17 20  1  0  0  0  0 
 20 21  1  6  0  0  0 
 20 22  1  0  0  0  0 
 22 23  1  1  0  0  0 
 22 24  1  0  0  0  0 
 24 25  1  0  0  0  0 
 24 26  1  0  0  0  0 
 24 27  1  0  0  0  0 
 27 28  1  0  0  0  0 
 27 29  1  0  0  0  0 
 27 30  1  0  0  0  0 
 30 31  2  0  0  0  0 
 32 30  1  1  0  0  0 
 22 32  1  0  0  0  0 
 32 33  1  0  0  0  0 
 33 34  1  0  0  0  0 
 33 35  1  0  0  0  0 
 33 36  1  0  0  0  0 
 32 37  1  0  0  0  0 
 37 38  1  0  0  0  0 
 37 39  1  0  0  0  0 
 37 40  1  0  0  0  0 
 40 41  1  0  0  0  0 
 40 42  1  0  0  0  0 
 40 43  1  0  0  0  0 
 20 43  1  0  0  0  0 
  5 43  1  0  0  0  0 
 43 44  1  1  0  0  0 
 12 45  1  0  0  0  0 
M  END
> <Rank>
9

> <Priority_score>
0.2

> <Reaction_type>
steroid_17hydroxy_to_keto

> <Parent_ID>
57

> <Parent_InChI>
InChI=1S/C20H27ClO2/c1-18-9-8-16(22)17(21)15(18)5-4-12-13(18)6-10-19(2)14(12)7-11-20(19,3)23/h8-9,12-14,23H,4-7,10-11H2,1-3H3

> <Parent_SMILES>
C[C@]12C=CC(=O)C(Cl)=C1CC[C@H]1[C@H]2CC[C@]2(C)[C@@H]1CC[C@]2(C)O

$$$$
Molecule 57_metabolite 10
  CDK     0516241031

 50 53  0  0  0  0  0  0  0  0999 V2000
   -2.2605   -1.2703    0.0000 C   0  0  0  0  0  0  0  0  0  0  0  0
   -3.8418    0.6141    0.0000 H   0  0  0  0  0  0  0  0  0  0  0  0
   -0.3999   -1.9475    0.0000 H   0  0  0  0  0  0  0  0  0  0  0  0
   -1.5105    0.0287    0.0000 H   0  0  0  0  0  0  0  0  0  0  0  0
   -2.5210   -2.7475    0.0000 C   0  0  2  0  0  0  0  0  0  0  0  0
   -3.8210   -1.9975    0.0000 C   0  0  0  0  0  0  0  0  0  0  0  0
   -3.8210   -0.4975    0.0000 H   0  0  0  0  0  0  0  0  0  0  0  0
   -5.1210   -2.7475    0.0000 C   0  0  0  0  0  0  0  0  0  0  0  0
   -6.4199   -1.9973    0.0000 H   0  0  0  0  0  0  0  0  0  0  0  0
   -5.1210   -4.2475    0.0000 C   0  0  0  0  0  0  0  0  0  0  0  0
   -6.4199   -4.9977    0.0000 O   0  0  0  0  0  0  0  0  0  0  0  0
   -3.8210   -4.9975    0.0000 C   0  0  0  0  0  0  0  0  0  0  0  0
   -2.5210   -4.2475    0.0000 C   0  0  0  0  0  0  0  0  0  0  0  0
   -1.2210   -4.9975    0.0000 C   0  0  0  0  0  0  0  0  0  0  0  0
   -2.1850   -6.1467    0.0000 H   0  0  0  0  0  0  0  0  0  0  0  0
   -0.2569   -6.1467    0.0000 H   0  0  0  0  0  0  0  0  0  0  0  0
    0.0790   -4.2475    0.0000 C   0  0  0  0  0  0  0  0  0  0  0  0
    0.5918   -5.6572    0.0000 H   0  0  0  0  0  0  0  0  0  0  0  0
   -1.3982   -3.9872    0.0000 H   0  0  0  0  0  0  0  0  0  0  0  0
    0.0790   -2.7475    0.0000 C   0  0  1  0  0  0  0  0  0  0  0  0
    1.3779   -3.4977    0.0000 H   0  0  0  0  0  0  0  0  0  0  0  0
   -1.2210   -1.9975    0.0000 C   0  0  1  0  0  0  0  0  0  0  0  0
    0.0779   -1.2473    0.0000 H   0  0  0  0  0  0  0  0  0  0  0  0
   -1.2210   -0.4975    0.0000 C   0  0  0  0  0  0  0  0  0  0  0  0
   -1.7337    0.9121    0.0000 H   0  0  0  0  0  0  0  0  0  0  0  0
   -2.6982   -0.7578    0.0000 H   0  0  0  0  0  0  0  0  0  0  0  0
    0.0790    0.2525    0.0000 C   0  0  0  0  0  0  0  0  0  0  0  0
    1.0431    1.4016    0.0000 H   0  0  0  0  0  0  0  0  0  0  0  0
   -0.8850    1.4016    0.0000 H   0  0  0  0  0  0  0  0  0  0  0  0
    1.3790   -0.4975    0.0000 C   0  0  2  0  0  0  0  0  0  0  0  0
    1.6902    2.4260    0.0000 C   0  0  0  0  0  0  0  0  0  0  0  0
    3.5000    3.2289    0.0000 H   0  0  0  0  0  0  0  0  0  0  0  0
    1.3292    3.8819    0.0000 H   0  0  0  0  0  0  0  0  0  0  0  0
    0.1937    2.3233    0.0000 H   0  0  0  0  0  0  0  0  0  0  0  0
    1.3790   -1.9975    0.0000 C   0  0  2  0  0  0  0  0  0  0  0  0
    2.3776   -0.8782    0.0000 H   0  0  0  0  0  0  0  0  0  0  0  0
    2.8090   -2.4575    0.0000 C   0  0  0  0  0  0  0  0  0  0  0  0
    2.2014   -3.8289    0.0000 H   0  0  0  0  0  0  0  0  0  0  0  0
    4.1086   -3.2067    0.0000 H   0  0  0  0  0  0  0  0  0  0  0  0
    3.6890   -1.2475    0.0000 C   0  0  0  0  0  0  0  0  0  0  0  0
    4.8036   -2.2514    0.0000 H   0  0  0  0  0  0  0  0  0  0  0  0
    4.8036   -0.2437    0.0000 H   0  0  0  0  0  0  0  0  0  0  0  0
    2.8090   -0.0375    0.0000 C   0  0  1  0  0  0  0  0  0  0  0  0
    4.5244    0.9513    0.0000 C   0  0  0  0  0  0  0  0  0  0  0  0
    4.5254    2.4513    0.0000 O   0  0  0  0  0  0  0  0  0  0  0  0
    5.8229    0.2005    0.0000 O   0  0  0  0  0  0  0  0  0  0  0  0
    7.1225    0.9496    0.0000 H   0  0  0  0  0  0  0  0  0  0  0  0
    2.2014    1.3339    0.0000 O   0  0  0  0  0  0  0  0  0  0  0  0
    3.0852    2.5458    0.0000 H   0  0  0  0  0  0  0  0  0  0  0  0
   -3.8210   -6.4975    0.0000 Cl  0  0  0  0  0  0  0  0  0  0  0  0
  1  2  1  0  0  0  0 
  1  3  1  0  0  0  0 
  1  4  1  0  0  0  0 
  1  5  1  0  0  0  0 
  5  6  1  6  0  0  0 
  6  7  1  0  0  0  0 
  6  8  2  0  0  0  0 
  8  9  1  0  0  0  0 
  8 10  1  0  0  0  0 
 10 11  2  0  0  0  0 
 10 12  1  0  0  0  0 
 12 13  2  0  0  0  0 
  5 13  1  0  0  0  0 
 13 14  1  0  0  0  0 
 14 15  1  0  0  0  0 
 14 16  1  0  0  0  0 
 14 17  1  0  0  0  0 
 17 18  1  0  0  0  0 
 17 19  1  0  0  0  0 
 17 20  1  0  0  0  0 
 20 21  1  6  0  0  0 
 20 22  1  0  0  0  0 
  5 22  1  0  0  0  0 
 22 23  1  1  0  0  0 
 22 24  1  0  0  0  0 
 24 25  1  0  0  0  0 
 24 26  1  0  0  0  0 
 24 27  1  0  0  0  0 
 27 28  1  0  0  0  0 
 27 29  1  0  0  0  0 
 27 30  1  0  0  0  0 
 30 31  1  6  0  0  0 
 31 32  1  0  0  0  0 
 31 33  1  0  0  0  0 
 31 34  1  0  0  0  0 
 30 35  1  0  0  0  0 
 20 35  1  0  0  0  0 
 35 36  1  1  0  0  0 
 35 37  1  0  0  0  0 
 37 38  1  0  0  0  0 
 37 39  1  0  0  0  0 
 37 40  1  0  0  0  0 
 40 41  1  0  0  0  0 
 40 42  1  0  0  0  0 
 40 43  1  0  0  0  0 
 30 43  1  0  0  0  0 
 43 44  1  6  0  0  0 
 44 45  2  0  0  0  0 
 44 46  1  0  0  0  0 
 46 47  1  0  0  0  0 
 43 48  1  1  0  0  0 
 48 49  1  0  0  0  0 
 12 50  1  0  0  0  0 
M  END
> <Rank>
10

> <Priority_score>
0.188

> <Reaction_type>
carboxylation_(primary_carbon_next_to_quart_carbon)

> <Parent_ID>
57

> <Parent_InChI>
InChI=1S/C20H27ClO2/c1-18-9-8-16(22)17(21)15(18)5-4-12-13(18)6-10-19(2)14(12)7-11-20(19,3)23/h8-9,12-14,23H,4-7,10-11H2,1-3H3

> <Parent_SMILES>
C[C@]12C=CC(=O)C(Cl)=C1CC[C@H]1[C@H]2CC[C@]2(C)[C@@H]1CC[C@]2(C)O

$$$$
Molecule 57_metabolite 11
  CDK     0516241031

 51 54  0  0  0  0  0  0  0  0999 V2000
   -1.6035   -2.1546    0.0000 C   0  0  0  0  0  0  0  0  0  0  0  0
   -3.1847   -0.2702    0.0000 H   0  0  0  0  0  0  0  0  0  0  0  0
    0.2571   -2.8318    0.0000 H   0  0  0  0  0  0  0  0  0  0  0  0
   -0.8535   -0.8556    0.0000 H   0  0  0  0  0  0  0  0  0  0  0  0
   -1.8639   -3.6318    0.0000 C   0  0  2  0  0  0  0  0  0  0  0  0
   -3.1639   -2.8818    0.0000 C   0  0  0  0  0  0  0  0  0  0  0  0
   -3.1639   -1.3818    0.0000 H   0  0  0  0  0  0  0  0  0  0  0  0
   -4.4639   -3.6318    0.0000 C   0  0  0  0  0  0  0  0  0  0  0  0
   -5.7629   -2.8816    0.0000 H   0  0  0  0  0  0  0  0  0  0  0  0
   -4.4639   -5.1318    0.0000 C   0  0  0  0  0  0  0  0  0  0  0  0
   -5.7629   -5.8821    0.0000 O   0  0  0  0  0  0  0  0  0  0  0  0
   -3.1639   -5.8818    0.0000 C   0  0  0  0  0  0  0  0  0  0  0  0
   -1.8639   -5.1318    0.0000 C   0  0  0  0  0  0  0  0  0  0  0  0
   -0.5639   -5.8818    0.0000 C   0  0  0  0  0  0  0  0  0  0  0  0
   -1.5280   -7.0310    0.0000 H   0  0  0  0  0  0  0  0  0  0  0  0
    0.4001   -7.0310    0.0000 H   0  0  0  0  0  0  0  0  0  0  0  0
    0.7361   -5.1318    0.0000 C   0  0  0  0  0  0  0  0  0  0  0  0
    1.2488   -6.5415    0.0000 H   0  0  0  0  0  0  0  0  0  0  0  0
   -0.7412   -4.8715    0.0000 H   0  0  0  0  0  0  0  0  0  0  0  0
    0.7361   -3.6318    0.0000 C   0  0  1  0  0  0  0  0  0  0  0  0
    2.0350   -4.3821    0.0000 H   0  0  0  0  0  0  0  0  0  0  0  0
   -0.5639   -2.8818    0.0000 C   0  0  1  0  0  0  0  0  0  0  0  0
    0.7350   -2.1316    0.0000 H   0  0  0  0  0  0  0  0  0  0  0  0
   -0.5639   -1.3818    0.0000 C   0  0  0  0  0  0  0  0  0  0  0  0
   -1.0767    0.0278    0.0000 H   0  0  0  0  0  0  0  0  0  0  0  0
   -2.0412   -1.6422    0.0000 H   0  0  0  0  0  0  0  0  0  0  0  0
    0.7361   -0.6318    0.0000 C   0  0  0  0  0  0  0  0  0  0  0  0
    1.7001    0.5173    0.0000 H   0  0  0  0  0  0  0  0  0  0  0  0
   -0.2280    0.5173    0.0000 H   0  0  0  0  0  0  0  0  0  0  0  0
    2.0361   -1.3818    0.0000 C   0  0  2  0  0  0  0  0  0  0  0  0
    2.2964    1.0643    0.0000 C   0  0  0  0  0  0  0  0  0  0  0  0
    1.0840    1.9476    0.0000 H   0  0  0  0  0  0  0  0  0  0  0  0
    2.9557    2.4117    0.0000 H   0  0  0  0  0  0  0  0  0  0  0  0
    3.7378    0.6490    0.0000 H   0  0  0  0  0  0  0  0  0  0  0  0
    2.0361   -2.8818    0.0000 C   0  0  2  0  0  0  0  0  0  0  0  0
    3.0347   -1.7626    0.0000 H   0  0  0  0  0  0  0  0  0  0  0  0
    3.4661   -3.3418    0.0000 C   0  0  0  0  0  0  0  0  0  0  0  0
    2.8584   -4.7133    0.0000 H   0  0  0  0  0  0  0  0  0  0  0  0
    4.7656   -4.0910    0.0000 H   0  0  0  0  0  0  0  0  0  0  0  0
    4.3461   -2.1318    0.0000 C   0  0  0  0  0  0  0  0  0  0  0  0
    5.4606   -3.1357    0.0000 H   0  0  0  0  0  0  0  0  0  0  0  0
    5.4606   -1.1280    0.0000 H   0  0  0  0  0  0  0  0  0  0  0  0
    3.4661   -0.9218    0.0000 C   0  0  1  0  0  0  0  0  0  0  0  0
    5.5973    0.3067    0.0000 C   0  0  0  0  0  0  0  0  0  0  0  0
    6.5622    1.4552    0.0000 H   0  0  0  0  0  0  0  0  0  0  0  0
    4.6339    1.4564    0.0000 H   0  0  0  0  0  0  0  0  0  0  0  0
    6.8958   -0.4441    0.0000 O   0  0  0  0  0  0  0  0  0  0  0  0
    8.1954    0.3050    0.0000 H   0  0  0  0  0  0  0  0  0  0  0  0
    3.7786    2.0015    0.0000 O   0  0  0  0  0  0  0  0  0  0  0  0
    5.1500    2.6091    0.0000 H   0  0  0  0  0  0  0  0  0  0  0  0
   -3.1639   -7.3818    0.0000 Cl  0  0  0  0  0  0  0  0  0  0  0  0
  1  2  1  0  0  0  0 
  1  3  1  0  0  0  0 
  1  4  1  0  0  0  0 
  1  5  1  0  0  0  0 
  5  6  1  6  0  0  0 
  6  7  1  0  0  0  0 
  6  8  2  0  0  0  0 
  8  9  1  0  0  0  0 
  8 10  1  0  0  0  0 
 10 11  2  0  0  0  0 
 10 12  1  0  0  0  0 
 12 13  2  0  0  0  0 
  5 13  1  0  0  0  0 
 13 14  1  0  0  0  0 
 14 15  1  0  0  0  0 
 14 16  1  0  0  0  0 
 14 17  1  0  0  0  0 
 17 18  1  0  0  0  0 
 17 19  1  0  0  0  0 
 17 20  1  0  0  0  0 
 20 21  1  6  0  0  0 
 20 22  1  0  0  0  0 
  5 22  1  0  0  0  0 
 22 23  1  1  0  0  0 
 22 24  1  0  0  0  0 
 24 25  1  0  0  0  0 
 24 26  1  0  0  0  0 
 24 27  1  0  0  0  0 
 27 28  1  0  0  0  0 
 27 29  1  0  0  0  0 
 27 30  1  0  0  0  0 
 30 31  1  6  0  0  0 
 31 32  1  0  0  0  0 
 31 33  1  0  0  0  0 
 31 34  1  0  0  0  0 
 30 35  1  0  0  0  0 
 20 35  1  0  0  0  0 
 35 36  1  1  0  0  0 
 35 37  1  0  0  0  0 
 37 38  1  0  0  0  0 
 37 39  1  0  0  0  0 
 37 40  1  0  0  0  0 
 40 41  1  0  0  0  0 
 40 42  1  0  0  0  0 
 40 43  1  0  0  0  0 
 30 43  1  0  0  0  0 
 43 44  1  6  0  0  0 
 44 45  1  0  0  0  0 
 44 46  1  0  0  0  0 
 44 47  1  0  0  0  0 
 47 48  1  0  0  0  0 
 43 49  1  1  0  0  0 
 49 50  1  0  0  0  0 
 12 51  1  0  0  0  0 
M  END
> <Rank>
10

> <Priority_score>
0.188

> <Reaction_type>
aliphatic_hydroxylation_(primary_carbon_next_to_quart_carbon)

> <Parent_ID>
57

> <Parent_InChI>
InChI=1S/C20H27ClO2/c1-18-9-8-16(22)17(21)15(18)5-4-12-13(18)6-10-19(2)14(12)7-11-20(19,3)23/h8-9,12-14,23H,4-7,10-11H2,1-3H3

> <Parent_SMILES>
C[C@]12C=CC(=O)C(Cl)=C1CC[C@H]1[C@H]2CC[C@]2(C)[C@@H]1CC[C@]2(C)O

$$$$
Molecule 57_metabolite 12
  CDK     0516241031

 52 55  0  0  0  0  0  0  0  0999 V2000
   -2.0484   -0.5282    0.0000 C   0  0  0  0  0  0  0  0  0  0  0  0
   -3.9329    1.0530    0.0000 H   0  0  0  0  0  0  0  0  0  0  0  0
   -0.1878   -1.2054    0.0000 H   0  0  0  0  0  0  0  0  0  0  0  0
   -1.2984    0.7708    0.0000 H   0  0  0  0  0  0  0  0  0  0  0  0
   -2.3089   -2.0055    0.0000 C   0  0  2  0  0  0  0  0  0  0  0  0
   -3.6089   -1.2555    0.0000 C   0  0  0  0  0  0  0  0  0  0  0  0
   -3.6089    0.2445    0.0000 H   0  0  0  0  0  0  0  0  0  0  0  0
   -4.9089   -2.0055    0.0000 C   0  0  0  0  0  0  0  0  0  0  0  0
   -6.2078   -1.2552    0.0000 H   0  0  0  0  0  0  0  0  0  0  0  0
   -4.9089   -3.5055    0.0000 C   0  0  0  0  0  0  0  0  0  0  0  0
   -6.2078   -4.2557    0.0000 O   0  0  0  0  0  0  0  0  0  0  0  0
   -3.6089   -4.2555    0.0000 C   0  0  0  0  0  0  0  0  0  0  0  0
   -4.5729   -5.4046    0.0000 H   0  0  0  0  0  0  0  0  0  0  0  0
   -2.3089   -3.5055    0.0000 C   0  0  0  0  0  0  0  0  0  0  0  0
   -1.0103   -2.7546    0.0000 H   0  0  0  0  0  0  0  0  0  0  0  0
   -1.0089   -4.2555    0.0000 C   0  0  0  0  0  0  0  0  0  0  0  0
   -2.8984   -6.5078    0.0000 H   0  0  0  0  0  0  0  0  0  0  0  0
   -0.0448   -5.4046    0.0000 H   0  0  0  0  0  0  0  0  0  0  0  0
    0.2911   -3.5055    0.0000 C   0  0  0  0  0  0  0  0  0  0  0  0
    0.8039   -4.9151    0.0000 H   0  0  0  0  0  0  0  0  0  0  0  0
   -1.1861   -3.2451    0.0000 H   0  0  0  0  0  0  0  0  0  0  0  0
    0.2911   -2.0055    0.0000 C   0  0  1  0  0  0  0  0  0  0  0  0
    1.5901   -2.7557    0.0000 H   0  0  0  0  0  0  0  0  0  0  0  0
   -1.0089   -1.2555    0.0000 C   0  0  1  0  0  0  0  0  0  0  0  0
    0.2901   -0.5052    0.0000 H   0  0  0  0  0  0  0  0  0  0  0  0
   -1.0089    0.2445    0.0000 C   0  0  0  0  0  0  0  0  0  0  0  0
   -1.5216    1.6542    0.0000 H   0  0  0  0  0  0  0  0  0  0  0  0
   -2.4861   -0.0158    0.0000 H   0  0  0  0  0  0  0  0  0  0  0  0
    0.2911    0.9945    0.0000 C   0  0  0  0  0  0  0  0  0  0  0  0
    1.2552    2.1437    0.0000 H   0  0  0  0  0  0  0  0  0  0  0  0
   -0.6729    2.1437    0.0000 H   0  0  0  0  0  0  0  0  0  0  0  0
    1.5911    0.2445    0.0000 C   0  0  2  0  0  0  0  0  0  0  0  0
    1.9023    3.1680    0.0000 C   0  0  0  0  0  0  0  0  0  0  0  0
    3.7122    3.9710    0.0000 H   0  0  0  0  0  0  0  0  0  0  0  0
    1.5413    4.6240    0.0000 H   0  0  0  0  0  0  0  0  0  0  0  0
    0.4058    3.0654    0.0000 H   0  0  0  0  0  0  0  0  0  0  0  0
    1.5911   -1.2555    0.0000 C   0  0  2  0  0  0  0  0  0  0  0  0
    2.5897   -0.1362    0.0000 H   0  0  0  0  0  0  0  0  0  0  0  0
    3.0211   -1.7155    0.0000 C   0  0  0  0  0  0  0  0  0  0  0  0
    2.4135   -3.0869    0.0000 H   0  0  0  0  0  0  0  0  0  0  0  0
    4.3207   -2.4646    0.0000 H   0  0  0  0  0  0  0  0  0  0  0  0
    3.9011   -0.5055    0.0000 C   0  0  0  0  0  0  0  0  0  0  0  0
    5.0157   -1.5093    0.0000 H   0  0  0  0  0  0  0  0  0  0  0  0
    5.0157    0.4984    0.0000 H   0  0  0  0  0  0  0  0  0  0  0  0
    3.0211    0.7045    0.0000 C   0  0  1  0  0  0  0  0  0  0  0  0
    5.5682    2.1729    0.0000 C   0  0  0  0  0  0  0  0  0  0  0  0
    5.5692    3.6729    0.0000 H   0  0  0  0  0  0  0  0  0  0  0  0
    6.0803    0.7630    0.0000 H   0  0  0  0  0  0  0  0  0  0  0  0
    7.0456    2.4324    0.0000 H   0  0  0  0  0  0  0  0  0  0  0  0
    2.4135    2.0760    0.0000 O   0  0  0  0  0  0  0  0  0  0  0  0
    3.2974    3.2879    0.0000 H   0  0  0  0  0  0  0  0  0  0  0  0
   -2.6448   -5.4046    0.0000 Cl  0  0  0  0  0  0  0  0  0  0  0  0
  1  2  1  0  0  0  0 
  1  3  1  0  0  0  0 
  1  4  1  0  0  0  0 
  1  5  1  0  0  0  0 
  5  6  1  6  0  0  0 
  6  7  1  0  0  0  0 
  6  8  2  0  0  0  0 
  8  9  1  0  0  0  0 
  8 10  1  0  0  0  0 
 10 11  2  0  0  0  0 
 10 12  1  0  0  0  0 
 12 13  1  0  0  0  0 
 12 14  1  0  0  0  0 
  5 14  1  0  0  0  0 
 14 15  1  0  0  0  0 
 14 16  1  0  0  0  0 
 16 17  1  0  0  0  0 
 16 18  1  0  0  0  0 
 16 19  1  0  0  0  0 
 19 20  1  0  0  0  0 
 19 21  1  0  0  0  0 
 19 22  1  0  0  0  0 
 22 23  1  6  0  0  0 
 22 24  1  0  0  0  0 
  5 24  1  0  0  0  0 
 24 25  1  1  0  0  0 
 24 26  1  0  0  0  0 
 26 27  1  0  0  0  0 
 26 28  1  0  0  0  0 
 26 29  1  0  0  0  0 
 29 30  1  0  0  0  0 
 29 31  1  0  0  0  0 
 29 32  1  0  0  0  0 
 32 33  1  6  0  0  0 
 33 34  1  0  0  0  0 
 33 35  1  0  0  0  0 
 33 36  1  0  0  0  0 
 32 37  1  0  0  0  0 
 22 37  1  0  0  0  0 
 37 38  1  1  0  0  0 
 37 39  1  0  0  0  0 
 39 40  1  0  0  0  0 
 39 41  1  0  0  0  0 
 39 42  1  0  0  0  0 
 42 43  1  0  0  0  0 
 42 44  1  0  0  0  0 
 42 45  1  0  0  0  0 
 32 45  1  0  0  0  0 
 45 46  1  6  0  0  0 
 46 47  1  0  0  0  0 
 46 48  1  0  0  0  0 
 46 49  1  0  0  0  0 
 45 50  1  1  0  0  0 
 50 51  1  0  0  0  0 
 12 52  1  0  0  0  0 
M  END
> <Rank>
12

> <Priority_score>
0.148

> <Reaction_type>
double_bond_reduction

> <Parent_ID>
57

> <Parent_InChI>
InChI=1S/C20H27ClO2/c1-18-9-8-16(22)17(21)15(18)5-4-12-13(18)6-10-19(2)14(12)7-11-20(19,3)23/h8-9,12-14,23H,4-7,10-11H2,1-3H3

> <Parent_SMILES>
C[C@]12C=CC(=O)C(Cl)=C1CC[C@H]1[C@H]2CC[C@]2(C)[C@@H]1CC[C@]2(C)O

$$$$
Molecule 57_metabolite 13
  CDK     0516241031

 51 55  0  0  0  0  0  0  0  0999 V2000
    2.8085    0.9153    0.0000 C   0  0  0  0  0  0  0  0  0  0  0  0
    4.1795    1.5240    0.0000 H   0  0  0  0  0  0  0  0  0  0  0  0
    2.4471    2.3711    0.0000 H   0  0  0  0  0  0  0  0  0  0  0  0
    1.3121    0.8122    0.0000 H   0  0  0  0  0  0  0  0  0  0  0  0
    2.4982   -2.0083    0.0000 C   0  0  1  0  0  0  0  0  0  0  0  0
    1.1982   -1.2483    0.0000 C   0  0  0  0  0  0  0  0  0  0  0  0
    2.1645   -0.1010    0.0000 H   0  0  0  0  0  0  0  0  0  0  0  0
    0.2320   -0.1010    0.0000 H   0  0  0  0  0  0  0  0  0  0  0  0
   -0.1018   -2.0083    0.0000 C   0  0  0  0  0  0  0  0  0  0  0  0
   -1.1173    0.7508    0.0000 H   0  0  0  0  0  0  0  0  0  0  0  0
    1.3750   -2.2714    0.0000 H   0  0  0  0  0  0  0  0  0  0  0  0
   -0.1018   -3.5083    0.0000 C   0  0  2  0  0  0  0  0  0  0  0  0
   -1.3985   -2.7543    0.0000 H   0  0  0  0  0  0  0  0  0  0  0  0
    1.1982   -4.2483    0.0000 C   0  0  2  0  0  0  0  0  0  0  0  0
    1.2120   -2.7483    0.0000 H   0  0  0  0  0  0  0  0  0  0  0  0
    1.1982   -5.7483    0.0000 C   0  0  0  0  0  0  0  0  0  0  0  0
    1.7164   -7.1559    0.0000 H   0  0  0  0  0  0  0  0  0  0  0  0
    2.6087   -6.2588    0.0000 H   0  0  0  0  0  0  0  0  0  0  0  0
   -0.1018   -6.5083    0.0000 C   0  0  0  0  0  0  0  0  0  0  0  0
   -1.6864   -8.3899    0.0000 H   0  0  0  0  0  0  0  0  0  0  0  0
    0.8645   -7.6556    0.0000 H   0  0  0  0  0  0  0  0  0  0  0  0
   -1.4018   -5.7483    0.0000 C   0  0  0  0  0  0  0  0  0  0  0  0
   -1.4018   -4.2483    0.0000 C   0  0  1  0  0  0  0  0  0  0  0  0
   -1.3977   -1.7883    0.0000 C   0  0  0  0  0  0  0  0  0  0  0  0
   -0.0974   -1.0404    0.0000 H   0  0  0  0  0  0  0  0  0  0  0  0
   -3.3481   -2.1289    0.0000 H   0  0  0  0  0  0  0  0  0  0  0  0
   -1.9083   -0.3779    0.0000 H   0  0  0  0  0  0  0  0  0  0  0  0
   -2.6918   -3.5083    0.0000 C   0  0  0  0  0  0  0  0  0  0  0  0
   -2.6885   -1.5283    0.0000 H   0  0  0  0  0  0  0  0  0  0  0  0
   -3.9918   -4.2483    0.0000 C   0  0  0  0  0  0  0  0  0  0  0  0
   -5.2885   -3.4943    0.0000 H   0  0  0  0  0  0  0  0  0  0  0  0
   -3.9918   -5.7483    0.0000 C   0  0  0  0  0  0  0  0  0  0  0  0
   -5.2928   -6.4947    0.0000 O   0  0  0  0  0  0  0  0  0  0  0  0
   -2.6918   -6.5083    0.0000 C   0  0  0  0  0  0  0  0  0  0  0  0
   -3.4435   -7.8063    0.0000 Cl  0  0  0  0  0  0  0  0  0  0  0  0
   -1.4018   -7.2483    0.0000 O   0  0  0  0  0  0  0  0  0  0  0  0
    2.4982   -3.5083    0.0000 C   0  0  1  0  0  0  0  0  0  0  0  0
    2.6527   -5.0003    0.0000 H   0  0  0  0  0  0  0  0  0  0  0  0
    3.9282   -3.9683    0.0000 C   0  0  0  0  0  0  0  0  0  0  0  0
    3.3224   -5.3405    0.0000 H   0  0  0  0  0  0  0  0  0  0  0  0
    5.2297   -4.7140    0.0000 H   0  0  0  0  0  0  0  0  0  0  0  0
    4.8082   -2.7483    0.0000 C   0  0  0  0  0  0  0  0  0  0  0  0
    5.9254   -3.7492    0.0000 H   0  0  0  0  0  0  0  0  0  0  0  0
    5.9215   -1.7430    0.0000 H   0  0  0  0  0  0  0  0  0  0  0  0
    3.9282   -1.5383    0.0000 C   0  0  1  0  0  0  0  0  0  0  0  0
    6.4722   -0.0646    0.0000 C   0  0  0  0  0  0  0  0  0  0  0  0
    6.4701    1.4354    0.0000 H   0  0  0  0  0  0  0  0  0  0  0  0
    6.9873   -1.4734    0.0000 H   0  0  0  0  0  0  0  0  0  0  0  0
    7.9491    0.1980    0.0000 H   0  0  0  0  0  0  0  0  0  0  0  0
    3.5618   -0.0837    0.0000 O   0  0  0  0  0  0  0  0  0  0  0  0
    4.6383    0.9609    0.0000 H   0  0  0  0  0  0  0  0  0  0  0  0
  1  2  1  0  0  0  0 
  1  3  1  0  0  0  0 
  1  4  1  0  0  0  0 
  5  1  1  6  0  0  0 
  5  6  1  0  0  0  0 
  6  7  1  0  0  0  0 
  6  8  1  0  0  0  0 
  6  9  1  0  0  0  0 
  9 10  1  0  0  0  0 
  9 11  1  0  0  0  0 
  9 12  1  0  0  0  0 
 12 13  1  1  0  0  0 
 12 14  1  0  0  0  0 
 14 15  1  6  0  0  0 
 14 16  1  0  0  0  0 
 16 17  1  0  0  0  0 
 16 18  1  0  0  0  0 
 16 19  1  0  0  0  0 
 19 20  1  0  0  0  0 
 19 21  1  0  0  0  0 
 19 22  1  0  0  0  0 
 22 23  1  0  0  0  0 
 12 23  1  0  0  0  0 
 23 24  1  0  0  0  0 
 24 25  1  0  0  0  0 
 24 26  1  0  0  0  0 
 24 27  1  0  0  0  0 
 23 28  1  6  0  0  0 
 28 29  1  0  0  0  0 
 28 30  2  0  0  0  0 
 30 31  1  0  0  0  0 
 30 32  1  0  0  0  0 
 32 33  2  0  0  0  0 
 32 34  1  0  0  0  0 
 22 34  1  0  0  0  0 
 34 35  1  0  0  0  0 
 34 36  1  0  0  0  0 
 22 36  1  0  0  0  0 
 14 37  1  0  0  0  0 
  5 37  1  0  0  0  0 
 37 38  1  1  0  0  0 
 37 39  1  0  0  0  0 
 39 40  1  0  0  0  0 
 39 41  1  0  0  0  0 
 39 42  1  0  0  0  0 
 42 43  1  0  0  0  0 
 42 44  1  0  0  0  0 
 42 45  1  0  0  0  0 
  5 45  1  0  0  0  0 
 45 46  1  6  0  0  0 
 46 47  1  0  0  0  0 
 46 48  1  0  0  0  0 
 46 49  1  0  0  0  0 
 45 50  1  1  0  0  0 
 50 51  1  0  0  0  0 
M  END
> <Rank>
12

> <Priority_score>
0.148

> <Reaction_type>
epoxidation

> <Parent_ID>
57

> <Parent_InChI>
InChI=1S/C20H27ClO2/c1-18-9-8-16(22)17(21)15(18)5-4-12-13(18)6-10-19(2)14(12)7-11-20(19,3)23/h8-9,12-14,23H,4-7,10-11H2,1-3H3

> <Parent_SMILES>
C[C@]12C=CC(=O)C(Cl)=C1CC[C@H]1[C@H]2CC[C@]2(C)[C@@H]1CC[C@]2(C)O

$$$$
Molecule 57_metabolite 14
  CDK     0516241031

 87 90  0  0  0  0  0  0  0  0999 V2000
   -7.0631    2.7796    0.0000 C   0  0  0  0  0  0  0  0  0  0  0  0
   -9.3117    3.7772    0.0000 H   0  0  0  0  0  0  0  0  0  0  0  0
   -6.7021    4.2355    0.0000 H   0  0  0  0  0  0  0  0  0  0  0  0
   -5.5666    2.6769    0.0000 H   0  0  0  0  0  0  0  0  0  0  0  0
   -6.7519   -0.1439    0.0000 C   0  0  1  0  0  0  0  0  0  0  0  0
   -5.4519    0.6061    0.0000 C   0  0  0  0  0  0  0  0  0  0  0  0
   -6.4160    1.7553    0.0000 H   0  0  0  0  0  0  0  0  0  0  0  0
   -4.4879    1.7553    0.0000 H   0  0  0  0  0  0  0  0  0  0  0  0
   -4.1519   -0.1439    0.0000 C   0  0  0  0  0  0  0  0  0  0  0  0
   -3.6392    1.2657    0.0000 H   0  0  0  0  0  0  0  0  0  0  0  0
   -5.6292   -0.4042    0.0000 H   0  0  0  0  0  0  0  0  0  0  0  0
   -4.1519   -1.6439    0.0000 C   0  0  2  0  0  0  0  0  0  0  0  0
   -2.8530   -0.8937    0.0000 H   0  0  0  0  0  0  0  0  0  0  0  0
   -5.4519   -2.3939    0.0000 C   0  0  2  0  0  0  0  0  0  0  0  0
   -5.4526   -0.8939    0.0000 H   0  0  0  0  0  0  0  0  0  0  0  0
   -5.4519   -3.8939    0.0000 C   0  0  0  0  0  0  0  0  0  0  0  0
   -5.9647   -5.3036    0.0000 H   0  0  0  0  0  0  0  0  0  0  0  0
   -6.9292   -3.6336    0.0000 H   0  0  0  0  0  0  0  0  0  0  0  0
   -4.1519   -4.6439    0.0000 C   0  0  0  0  0  0  0  0  0  0  0  0
   -3.1879   -5.7931    0.0000 H   0  0  0  0  0  0  0  0  0  0  0  0
   -5.1160   -5.7931    0.0000 H   0  0  0  0  0  0  0  0  0  0  0  0
   -2.8519   -3.8939    0.0000 C   0  0  0  0  0  0  0  0  0  0  0  0
   -1.5519   -4.6439    0.0000 C   0  0  0  0  0  0  0  0  0  0  0  0
   -0.5879   -5.7931    0.0000 H   0  0  0  0  0  0  0  0  0  0  0  0
   -0.2519   -3.8939    0.0000 C   0  0  0  0  0  0  0  0  0  0  0  0
    1.0470   -4.6441    0.0000 O   0  0  0  0  0  0  0  0  0  0  0  0
   -0.2519   -2.3939    0.0000 C   0  0  0  0  0  0  0  0  0  0  0  0
    1.0470   -1.6437    0.0000 H   0  0  0  0  0  0  0  0  0  0  0  0
   -1.5519   -1.6439    0.0000 C   0  0  0  0  0  0  0  0  0  0  0  0
   -1.5519   -0.1439    0.0000 H   0  0  0  0  0  0  0  0  0  0  0  0
   -2.8519   -2.3939    0.0000 C   0  0  2  0  0  0  0  0  0  0  0  0
   -2.3414    0.5014    0.0000 C   0  0  0  0  0  0  0  0  0  0  0  0
   -0.0298    1.3428    0.0000 H   0  0  0  0  0  0  0  0  0  0  0  0
   -3.8414    0.5014    0.0000 H   0  0  0  0  0  0  0  0  0  0  0  0
   -2.6019    1.9786    0.0000 H   0  0  0  0  0  0  0  0  0  0  0  0
   -3.4415   -6.8963    0.0000 Cl  0  0  0  0  0  0  0  0  0  0  0  0
   -2.8519   -6.8339    0.0000 S   0  0  0  0  0  0  0  0  0  0  0  0
   -0.3058   -8.3039    0.0000 C   0  0  0  0  0  0  0  0  0  0  0  0
    0.2072   -6.8944    0.0000 H   0  0  0  0  0  0  0  0  0  0  0  0
    1.1714   -8.5644    0.0000 H   0  0  0  0  0  0  0  0  0  0  0  0
   -0.3058  -10.7639    0.0000 C   0  0  0  0  0  0  0  0  0  0  0  0
    0.2072  -12.1734    0.0000 H   0  0  0  0  0  0  0  0  0  0  0  0
    2.1168  -10.3367    0.0000 C   0  0  0  0  0  0  0  0  0  0  0  0
    2.6298   -8.9272    0.0000 O   0  0  0  0  0  0  0  0  0  0  0  0
    3.0810  -11.4858    0.0000 N   0  0  0  0  0  0  0  0  0  0  0  0
    2.5680  -12.8953    0.0000 H   0  0  0  0  0  0  0  0  0  0  0  0
    4.5582  -11.2253    0.0000 C   0  0  0  0  0  0  0  0  0  0  0  0
    4.0452   -9.8158    0.0000 H   0  0  0  0  0  0  0  0  0  0  0  0
    5.8573  -10.4753    0.0000 H   0  0  0  0  0  0  0  0  0  0  0  0
    5.5224  -12.3744    0.0000 C   0  0  0  0  0  0  0  0  0  0  0  0
    5.0094  -13.7839    0.0000 O   0  0  0  0  0  0  0  0  0  0  0  0
    6.9996  -12.1139    0.0000 O   0  0  0  0  0  0  0  0  0  0  0  0
    7.9638  -13.2630    0.0000 H   0  0  0  0  0  0  0  0  0  0  0  0
   -1.6048  -11.5139    0.0000 N   0  0  0  0  0  0  0  0  0  0  0  0
   -2.9039  -10.7639    0.0000 H   0  0  0  0  0  0  0  0  0  0  0  0
   -1.6048  -13.0139    0.0000 C   0  0  0  0  0  0  0  0  0  0  0  0
   -0.3058  -13.7639    0.0000 O   0  0  0  0  0  0  0  0  0  0  0  0
   -2.9039  -13.7639    0.0000 C   0  0  0  0  0  0  0  0  0  0  0  0
   -3.4169  -12.3544    0.0000 H   0  0  0  0  0  0  0  0  0  0  0  0
   -4.3811  -14.0244    0.0000 H   0  0  0  0  0  0  0  0  0  0  0  0
   -2.9039  -16.2239    0.0000 C   0  0  0  0  0  0  0  0  0  0  0  0
   -2.3909  -17.6334    0.0000 H   0  0  0  0  0  0  0  0  0  0  0  0
   -1.4267  -15.9634    0.0000 H   0  0  0  0  0  0  0  0  0  0  0  0
   -4.2029  -16.9739    0.0000 C   0  0  0  0  0  0  0  0  0  0  0  0
   -4.7160  -15.5644    0.0000 H   0  0  0  0  0  0  0  0  0  0  0  0
   -4.2029  -18.4739    0.0000 C   0  0  0  0  0  0  0  0  0  0  0  0
   -2.9039  -19.2239    0.0000 O   0  0  0  0  0  0  0  0  0  0  0  0
   -5.5020  -19.2239    0.0000 O   0  0  0  0  0  0  0  0  0  0  0  0
   -5.5020  -20.7239    0.0000 H   0  0  0  0  0  0  0  0  0  0  0  0
   -5.6801  -17.2344    0.0000 N   0  0  0  0  0  0  0  0  0  0  0  0
   -6.1932  -18.6439    0.0000 H   0  0  0  0  0  0  0  0  0  0  0  0
   -6.6443  -16.0853    0.0000 H   0  0  0  0  0  0  0  0  0  0  0  0
   -6.7519   -1.6439    0.0000 C   0  0  1  0  0  0  0  0  0  0  0  0
   -7.7505   -0.5246    0.0000 H   0  0  0  0  0  0  0  0  0  0  0  0
   -8.1819   -2.1039    0.0000 C   0  0  0  0  0  0  0  0  0  0  0  0
   -7.5743   -3.4753    0.0000 H   0  0  0  0  0  0  0  0  0  0  0  0
   -9.4815   -2.8531    0.0000 H   0  0  0  0  0  0  0  0  0  0  0  0
   -9.0619   -0.8939    0.0000 C   0  0  0  0  0  0  0  0  0  0  0  0
  -10.1765   -1.8978    0.0000 H   0  0  0  0  0  0  0  0  0  0  0  0
  -10.1765    0.1100    0.0000 H   0  0  0  0  0  0  0  0  0  0  0  0
   -8.1819    0.3161    0.0000 C   0  0  1  0  0  0  0  0  0  0  0  0
  -10.7290    1.7844    0.0000 C   0  0  0  0  0  0  0  0  0  0  0  0
  -10.7300    3.2844    0.0000 H   0  0  0  0  0  0  0  0  0  0  0  0
  -11.2411    0.3745    0.0000 H   0  0  0  0  0  0  0  0  0  0  0  0
  -12.2064    2.0439    0.0000 H   0  0  0  0  0  0  0  0  0  0  0  0
   -7.5743    1.6875    0.0000 O   0  0  0  0  0  0  0  0  0  0  0  0
   -8.4581    2.8994    0.0000 H   0  0  0  0  0  0  0  0  0  0  0  0
  1  2  1  0  0  0  0 
  1  3  1  0  0  0  0 
  1  4  1  0  0  0  0 
  5  1  1  1  0  0  0 
  5  6  1  0  0  0  0 
  6  7  1  0  0  0  0 
  6  8  1  0  0  0  0 
  6  9  1  0  0  0  0 
  9 10  1  0  0  0  0 
  9 11  1  0  0  0  0 
  9 12  1  0  0  0  0 
 12 13  1  6  0  0  0 
 12 14  1  0  0  0  0 
 14 15  1  1  0  0  0 
 14 16  1  0  0  0  0 
 16 17  1  0  0  0  0 
 16 18  1  0  0  0  0 
 16 19  1  0  0  0  0 
 19 20  1  0  0  0  0 
 19 21  1  0  0  0  0 
 19 22  1  0  0  0  0 
 22 23  1  0  0  0  0 
 23 24  1  0  0  0  0 
 23 25  1  0  0  0  0 
 25 26  2  0  0  0  0 
 25 27  1  0  0  0  0 
 27 28  1  0  0  0  0 
 27 29  2  0  0  0  0 
 29 30  1  0  0  0  0 
 31 29  1  1  0  0  0 
 12 31  1  0  0  0  0 
 22 31  1  0  0  0  0 
 31 32  1  0  0  0  0 
 32 33  1  0  0  0  0 
 32 34  1  0  0  0  0 
 32 35  1  0  0  0  0 
 23 36  1  0  0  0  0 
 22 37  1  0  0  0  0 
 37 38  1  0  0  0  0 
 38 39  1  0  0  0  0 
 38 40  1  0  0  0  0 
 38 41  1  0  0  0  0 
 41 42  1  0  0  0  0 
 41 43  1  0  0  0  0 
 43 44  2  0  0  0  0 
 43 45  1  0  0  0  0 
 45 46  1  0  0  0  0 
 45 47  1  0  0  0  0 
 47 48  1  0  0  0  0 
 47 49  1  0  0  0  0 
 47 50  1  0  0  0  0 
 50 51  2  0  0  0  0 
 50 52  1  0  0  0  0 
 52 53  1  0  0  0  0 
 41 54  1  0  0  0  0 
 54 55  1  0  0  0  0 
 54 56  1  0  0  0  0 
 56 57  2  0  0  0  0 
 56 58  1  0  0  0  0 
 58 59  1  0  0  0  0 
 58 60  1  0  0  0  0 
 58 61  1  0  0  0  0 
 61 62  1  0  0  0  0 
 61 63  1  0  0  0  0 
 61 64  1  0  0  0  0 
 64 65  1  0  0  0  0 
 64 66  1  0  0  0  0 
 66 67  2  0  0  0  0 
 66 68  1  0  0  0  0 
 68 69  1  0  0  0  0 
 64 70  1  0  0  0  0 
 70 71  1  0  0  0  0 
 70 72  1  0  0  0  0 
 14 73  1  0  0  0  0 
  5 73  1  0  0  0  0 
 73 74  1  6  0  0  0 
 73 75  1  0  0  0  0 
 75 76  1  0  0  0  0 
 75 77  1  0  0  0  0 
 75 78  1  0  0  0  0 
 78 79  1  0  0  0  0 
 78 80  1  0  0  0  0 
 78 81  1  0  0  0  0 
  5 81  1  0  0  0  0 
 81 82  1  1  0  0  0 
 82 83  1  0  0  0  0 
 82 84  1  0  0  0  0 
 82 85  1  0  0  0  0 
 81 86  1  6  0  0  0 
 86 87  1  0  0  0  0 
M  END
> <Rank>
14

> <Priority_score>
0.108

> <Reaction_type>
glutathione_conjugation_(alpha,beta-unsaturated_carbonyl)

> <Parent_ID>
57

> <Parent_InChI>
InChI=1S/C20H27ClO2/c1-18-9-8-16(22)17(21)15(18)5-4-12-13(18)6-10-19(2)14(12)7-11-20(19,3)23/h8-9,12-14,23H,4-7,10-11H2,1-3H3

> <Parent_SMILES>
C[C@]12C=CC(=O)C(Cl)=C1CC[C@H]1[C@H]2CC[C@]2(C)[C@@H]1CC[C@]2(C)O

$$$$
Molecule 57_metabolite 15
  CDK     0516241031

 48 51  0  0  0  0  0  0  0  0999 V2000
   -0.4396   -3.0026    0.0000 C   0  0  0  0  0  0  0  0  0  0  0  0
   -2.0208   -1.1181    0.0000 H   0  0  0  0  0  0  0  0  0  0  0  0
    1.4210   -3.6798    0.0000 H   0  0  0  0  0  0  0  0  0  0  0  0
    0.3104   -1.7035    0.0000 H   0  0  0  0  0  0  0  0  0  0  0  0
   -0.7001   -4.4798    0.0000 C   0  0  2  0  0  0  0  0  0  0  0  0
   -2.0001   -3.7298    0.0000 C   0  0  0  0  0  0  0  0  0  0  0  0
   -2.0001   -2.2298    0.0000 H   0  0  0  0  0  0  0  0  0  0  0  0
   -3.3001   -4.4798    0.0000 C   0  0  0  0  0  0  0  0  0  0  0  0
   -4.5990   -3.7296    0.0000 H   0  0  0  0  0  0  0  0  0  0  0  0
   -3.3001   -5.9798    0.0000 C   0  0  0  0  0  0  0  0  0  0  0  0
   -4.5990   -6.7300    0.0000 O   0  0  0  0  0  0  0  0  0  0  0  0
   -2.0001   -6.7298    0.0000 C   0  0  0  0  0  0  0  0  0  0  0  0
   -0.7001   -5.9798    0.0000 C   0  0  0  0  0  0  0  0  0  0  0  0
    0.5999   -6.7298    0.0000 C   0  0  0  0  0  0  0  0  0  0  0  0
    0.5999   -8.2298    0.0000 H   0  0  0  0  0  0  0  0  0  0  0  0
    1.8999   -5.9798    0.0000 C   0  0  0  0  0  0  0  0  0  0  0  0
    3.1989   -6.7300    0.0000 H   0  0  0  0  0  0  0  0  0  0  0  0
    1.8999   -4.4798    0.0000 C   0  0  1  0  0  0  0  0  0  0  0  0
    3.1989   -5.2300    0.0000 H   0  0  0  0  0  0  0  0  0  0  0  0
    0.5999   -3.7298    0.0000 C   0  0  1  0  0  0  0  0  0  0  0  0
    1.8989   -2.9796    0.0000 H   0  0  0  0  0  0  0  0  0  0  0  0
    0.5999   -2.2298    0.0000 C   0  0  0  0  0  0  0  0  0  0  0  0
    0.0872   -0.8201    0.0000 H   0  0  0  0  0  0  0  0  0  0  0  0
   -0.8773   -2.4901    0.0000 H   0  0  0  0  0  0  0  0  0  0  0  0
    1.8999   -1.4798    0.0000 C   0  0  0  0  0  0  0  0  0  0  0  0
    2.8640   -0.3306    0.0000 H   0  0  0  0  0  0  0  0  0  0  0  0
    0.9359   -0.3306    0.0000 H   0  0  0  0  0  0  0  0  0  0  0  0
    3.1999   -2.2298    0.0000 C   0  0  2  0  0  0  0  0  0  0  0  0
    3.4603    0.2164    0.0000 C   0  0  0  0  0  0  0  0  0  0  0  0
    1.0840    1.9476    0.0000 H   0  0  0  0  0  0  0  0  0  0  0  0
    4.1196    1.5637    0.0000 H   0  0  0  0  0  0  0  0  0  0  0  0
    4.9016   -0.1989    0.0000 H   0  0  0  0  0  0  0  0  0  0  0  0
    3.1999   -3.7298    0.0000 C   0  0  2  0  0  0  0  0  0  0  0  0
    4.1985   -2.6105    0.0000 H   0  0  0  0  0  0  0  0  0  0  0  0
    4.6299   -4.1898    0.0000 C   0  0  0  0  0  0  0  0  0  0  0  0
    4.0223   -5.5612    0.0000 H   0  0  0  0  0  0  0  0  0  0  0  0
    5.9295   -4.9389    0.0000 H   0  0  0  0  0  0  0  0  0  0  0  0
    5.5099   -2.9798    0.0000 C   0  0  0  0  0  0  0  0  0  0  0  0
    6.6245   -3.9837    0.0000 H   0  0  0  0  0  0  0  0  0  0  0  0
    6.6245   -1.9759    0.0000 H   0  0  0  0  0  0  0  0  0  0  0  0
    4.6299   -1.7698    0.0000 C   0  0  1  0  0  0  0  0  0  0  0  0
    6.7612   -0.5412    0.0000 C   0  0  0  0  0  0  0  0  0  0  0  0
    8.0597   -1.2920    0.0000 H   0  0  0  0  0  0  0  0  0  0  0  0
    7.7261    0.6072    0.0000 H   0  0  0  0  0  0  0  0  0  0  0  0
    5.7978    0.6085    0.0000 H   0  0  0  0  0  0  0  0  0  0  0  0
    4.9425    1.1536    0.0000 O   0  0  0  0  0  0  0  0  0  0  0  0
    6.3139    1.7612    0.0000 H   0  0  0  0  0  0  0  0  0  0  0  0
   -2.0001   -8.2298    0.0000 Cl  0  0  0  0  0  0  0  0  0  0  0  0
  1  2  1  0  0  0  0 
  1  3  1  0  0  0  0 
  1  4  1  0  0  0  0 
  1  5  1  0  0  0  0 
  5  6  1  6  0  0  0 
  6  7  1  0  0  0  0 
  6  8  2  0  0  0  0 
  8  9  1  0  0  0  0 
  8 10  1  0  0  0  0 
 10 11  2  0  0  0  0 
 10 12  1  0  0  0  0 
 12 13  2  0  0  0  0 
  5 13  1  0  0  0  0 
 13 14  1  0  0  0  0 
 14 15  1  0  0  0  0 
 14 16  2  0  0  0  0 
 16 17  1  0  0  0  0 
 16 18  1  0  0  0  0 
 18 19  1  6  0  0  0 
 18 20  1  0  0  0  0 
  5 20  1  0  0  0  0 
 20 21  1  1  0  0  0 
 20 22  1  0  0  0  0 
 22 23  1  0  0  0  0 
 22 24  1  0  0  0  0 
 22 25  1  0  0  0  0 
 25 26  1  0  0  0  0 
 25 27  1  0  0  0  0 
 25 28  1  0  0  0  0 
 28 29  1  6  0  0  0 
 29 30  1  0  0  0  0 
 29 31  1  0  0  0  0 
 29 32  1  0  0  0  0 
 28 33  1  0  0  0  0 
 18 33  1  0  0  0  0 
 33 34  1  1  0  0  0 
 33 35  1  0  0  0  0 
 35 36  1  0  0  0  0 
 35 37  1  0  0  0  0 
 35 38  1  0  0  0  0 
 38 39  1  0  0  0  0 
 38 40  1  0  0  0  0 
 38 41  1  0  0  0  0 
 28 41  1  0  0  0  0 
 41 42  1  6  0  0  0 
 42 43  1  0  0  0  0 
 42 44  1  0  0  0  0 
 42 45  1  0  0  0  0 
 41 46  1  1  0  0  0 
 46 47  1  0  0  0  0 
 12 48  1  0  0  0  0 
M  END
> <Rank>
15

> <Priority_score>
0.07600000000000001

> <Reaction_type>
alkyl dehydrogenation

> <Parent_ID>
57

> <Parent_InChI>
InChI=1S/C20H27ClO2/c1-18-9-8-16(22)17(21)15(18)5-4-12-13(18)6-10-19(2)14(12)7-11-20(19,3)23/h8-9,12-14,23H,4-7,10-11H2,1-3H3

> <Parent_SMILES>
C[C@]12C=CC(=O)C(Cl)=C1CC[C@H]1[C@H]2CC[C@]2(C)[C@@H]1CC[C@]2(C)O

$$$$
Molecule 57_metabolite 16
  CDK     0516241031

 48 51  0  0  0  0  0  0  0  0999 V2000
   -0.4396   -3.0026    0.0000 C   0  0  0  0  0  0  0  0  0  0  0  0
   -2.0208   -1.1181    0.0000 H   0  0  0  0  0  0  0  0  0  0  0  0
    1.4210   -3.6798    0.0000 H   0  0  0  0  0  0  0  0  0  0  0  0
    0.3104   -1.7035    0.0000 H   0  0  0  0  0  0  0  0  0  0  0  0
   -0.7001   -4.4798    0.0000 C   0  0  2  0  0  0  0  0  0  0  0  0
   -2.0001   -3.7298    0.0000 C   0  0  0  0  0  0  0  0  0  0  0  0
   -2.0001   -2.2298    0.0000 H   0  0  0  0  0  0  0  0  0  0  0  0
   -3.3001   -4.4798    0.0000 C   0  0  0  0  0  0  0  0  0  0  0  0
   -4.5990   -3.7296    0.0000 H   0  0  0  0  0  0  0  0  0  0  0  0
   -3.3001   -5.9798    0.0000 C   0  0  0  0  0  0  0  0  0  0  0  0
   -4.5990   -6.7300    0.0000 O   0  0  0  0  0  0  0  0  0  0  0  0
   -2.0001   -6.7298    0.0000 C   0  0  0  0  0  0  0  0  0  0  0  0
   -0.7001   -5.9798    0.0000 C   0  0  0  0  0  0  0  0  0  0  0  0
    0.5999   -6.7298    0.0000 C   0  0  0  0  0  0  0  0  0  0  0  0
   -0.3641   -7.8790    0.0000 H   0  0  0  0  0  0  0  0  0  0  0  0
    1.5640   -7.8790    0.0000 H   0  0  0  0  0  0  0  0  0  0  0  0
    1.8999   -5.9798    0.0000 C   0  0  0  0  0  0  0  0  0  0  0  0
    3.1989   -6.7300    0.0000 H   0  0  0  0  0  0  0  0  0  0  0  0
    1.8999   -4.4798    0.0000 C   0  0  0  0  0  0  0  0  0  0  0  0
    0.5999   -3.7298    0.0000 C   0  0  1  0  0  0  0  0  0  0  0  0
    1.8989   -2.9796    0.0000 H   0  0  0  0  0  0  0  0  0  0  0  0
    0.5999   -2.2298    0.0000 C   0  0  0  0  0  0  0  0  0  0  0  0
    0.0872   -0.8201    0.0000 H   0  0  0  0  0  0  0  0  0  0  0  0
   -0.8773   -2.4901    0.0000 H   0  0  0  0  0  0  0  0  0  0  0  0
    1.8999   -1.4798    0.0000 C   0  0  0  0  0  0  0  0  0  0  0  0
    2.8640   -0.3306    0.0000 H   0  0  0  0  0  0  0  0  0  0  0  0
    0.9359   -0.3306    0.0000 H   0  0  0  0  0  0  0  0  0  0  0  0
    3.1999   -2.2298    0.0000 C   0  0  2  0  0  0  0  0  0  0  0  0
    3.4603    0.2164    0.0000 C   0  0  0  0  0  0  0  0  0  0  0  0
    1.0840    1.9476    0.0000 H   0  0  0  0  0  0  0  0  0  0  0  0
    4.1196    1.5637    0.0000 H   0  0  0  0  0  0  0  0  0  0  0  0
    4.9016   -0.1989    0.0000 H   0  0  0  0  0  0  0  0  0  0  0  0
    3.1999   -3.7298    0.0000 C   0  0  2  0  0  0  0  0  0  0  0  0
    4.1985   -2.6105    0.0000 H   0  0  0  0  0  0  0  0  0  0  0  0
    4.6299   -4.1898    0.0000 C   0  0  0  0  0  0  0  0  0  0  0  0
    4.0223   -5.5612    0.0000 H   0  0  0  0  0  0  0  0  0  0  0  0
    5.9295   -4.9389    0.0000 H   0  0  0  0  0  0  0  0  0  0  0  0
    5.5099   -2.9798    0.0000 C   0  0  0  0  0  0  0  0  0  0  0  0
    6.6245   -3.9837    0.0000 H   0  0  0  0  0  0  0  0  0  0  0  0
    6.6245   -1.9759    0.0000 H   0  0  0  0  0  0  0  0  0  0  0  0
    4.6299   -1.7698    0.0000 C   0  0  1  0  0  0  0  0  0  0  0  0
    6.7612   -0.5412    0.0000 C   0  0  0  0  0  0  0  0  0  0  0  0
    8.0597   -1.2920    0.0000 H   0  0  0  0  0  0  0  0  0  0  0  0
    7.7261    0.6072    0.0000 H   0  0  0  0  0  0  0  0  0  0  0  0
    5.7978    0.6085    0.0000 H   0  0  0  0  0  0  0  0  0  0  0  0
    4.9425    1.1536    0.0000 O   0  0  0  0  0  0  0  0  0  0  0  0
    6.3139    1.7612    0.0000 H   0  0  0  0  0  0  0  0  0  0  0  0
   -2.0001   -8.2298    0.0000 Cl  0  0  0  0  0  0  0  0  0  0  0  0
  1  2  1  0  0  0  0 
  1  3  1  0  0  0  0 
  1  4  1  0  0  0  0 
  1  5  1  0  0  0  0 
  5  6  1  6  0  0  0 
  6  7  1  0  0  0  0 
  6  8  2  0  0  0  0 
  8  9  1  0  0  0  0 
  8 10  1  0  0  0  0 
 10 11  2  0  0  0  0 
 10 12  1  0  0  0  0 
 12 13  2  0  0  0  0 
  5 13  1  0  0  0  0 
 13 14  1  0  0  0  0 
 14 15  1  0  0  0  0 
 14 16  1  0  0  0  0 
 14 17  1  0  0  0  0 
 17 18  1  0  0  0  0 
 17 19  2  0  0  0  0 
 19 20  1  0  0  0  0 
  5 20  1  0  0  0  0 
 20 21  1  1  0  0  0 
 20 22  1  0  0  0  0 
 22 23  1  0  0  0  0 
 22 24  1  0  0  0  0 
 22 25  1  0  0  0  0 
 25 26  1  0  0  0  0 
 25 27  1  0  0  0  0 
 25 28  1  0  0  0  0 
 28 29  1  6  0  0  0 
 29 30  1  0  0  0  0 
 29 31  1  0  0  0  0 
 29 32  1  0  0  0  0 
 28 33  1  0  0  0  0 
 19 33  1  0  0  0  0 
 33 34  1  1  0  0  0 
 33 35  1  0  0  0  0 
 35 36  1  0  0  0  0 
 35 37  1  0  0  0  0 
 35 38  1  0  0  0  0 
 38 39  1  0  0  0  0 
 38 40  1  0  0  0  0 
 38 41  1  0  0  0  0 
 28 41  1  0  0  0  0 
 41 42  1  6  0  0  0 
 42 43  1  0  0  0  0 
 42 44  1  0  0  0  0 
 42 45  1  0  0  0  0 
 41 46  1  1  0  0  0 
 46 47  1  0  0  0  0 
 12 48  1  0  0  0  0 
M  END
> <Rank>
15

> <Priority_score>
0.07600000000000001

> <Reaction_type>
alkyl dehydrogenation

> <Parent_ID>
57

> <Parent_InChI>
InChI=1S/C20H27ClO2/c1-18-9-8-16(22)17(21)15(18)5-4-12-13(18)6-10-19(2)14(12)7-11-20(19,3)23/h8-9,12-14,23H,4-7,10-11H2,1-3H3

> <Parent_SMILES>
C[C@]12C=CC(=O)C(Cl)=C1CC[C@H]1[C@H]2CC[C@]2(C)[C@@H]1CC[C@]2(C)O

$$$$
Molecule 57_metabolite 17
  CDK     0516241031

 85 88  0  0  0  0  0  0  0  0999 V2000
   -1.2520   -0.3891    0.0000 C   0  0  0  0  0  0  0  0  0  0  0  0
    0.1575    0.1240    0.0000 H   0  0  0  0  0  0  0  0  0  0  0  0
   -2.7520   -0.3891    0.0000 H   0  0  0  0  0  0  0  0  0  0  0  0
   -1.5125    1.0881    0.0000 H   0  0  0  0  0  0  0  0  0  0  0  0
   -1.7626   -3.2844    0.0000 C   0  0  2  0  0  0  0  0  0  0  0  0
   -3.0626   -2.5344    0.0000 C   0  0  0  0  0  0  0  0  0  0  0  0
   -3.0626   -1.0344    0.0000 H   0  0  0  0  0  0  0  0  0  0  0  0
   -4.3626   -3.2844    0.0000 C   0  0  0  0  0  0  0  0  0  0  0  0
   -5.6615   -2.5342    0.0000 H   0  0  0  0  0  0  0  0  0  0  0  0
   -4.3626   -4.7844    0.0000 C   0  0  0  0  0  0  0  0  0  0  0  0
   -5.6615   -5.5346    0.0000 O   0  0  0  0  0  0  0  0  0  0  0  0
   -3.0626   -5.5344    0.0000 C   0  0  0  0  0  0  0  0  0  0  0  0
   -1.7626   -4.7844    0.0000 C   0  0  0  0  0  0  0  0  0  0  0  0
   -0.4626   -5.5344    0.0000 C   0  0  0  0  0  0  0  0  0  0  0  0
   -1.4266   -6.6836    0.0000 H   0  0  0  0  0  0  0  0  0  0  0  0
    0.5015   -6.6836    0.0000 H   0  0  0  0  0  0  0  0  0  0  0  0
    0.8374   -4.7844    0.0000 C   0  0  0  0  0  0  0  0  0  0  0  0
    1.3502   -6.1941    0.0000 H   0  0  0  0  0  0  0  0  0  0  0  0
   -0.6398   -4.5241    0.0000 H   0  0  0  0  0  0  0  0  0  0  0  0
    0.8374   -3.2844    0.0000 C   0  0  1  0  0  0  0  0  0  0  0  0
    2.1363   -4.0346    0.0000 H   0  0  0  0  0  0  0  0  0  0  0  0
   -0.4626   -2.5344    0.0000 C   0  0  1  0  0  0  0  0  0  0  0  0
    0.8363   -1.7842    0.0000 H   0  0  0  0  0  0  0  0  0  0  0  0
   -0.4626   -1.0344    0.0000 C   0  0  0  0  0  0  0  0  0  0  0  0
   -0.9753    0.3752    0.0000 H   0  0  0  0  0  0  0  0  0  0  0  0
   -1.9398   -1.2947    0.0000 H   0  0  0  0  0  0  0  0  0  0  0  0
    0.8374   -0.2844    0.0000 C   0  0  0  0  0  0  0  0  0  0  0  0
    1.8015    0.8648    0.0000 H   0  0  0  0  0  0  0  0  0  0  0  0
   -0.1266    0.8648    0.0000 H   0  0  0  0  0  0  0  0  0  0  0  0
    2.1374   -1.0344    0.0000 C   0  0  2  0  0  0  0  0  0  0  0  0
    2.2962    0.4572    0.0000 C   0  0  0  0  0  0  0  0  0  0  0  0
    1.0838    1.3404    0.0000 H   0  0  0  0  0  0  0  0  0  0  0  0
    2.9555    1.8045    0.0000 H   0  0  0  0  0  0  0  0  0  0  0  0
    3.7375    0.0418    0.0000 H   0  0  0  0  0  0  0  0  0  0  0  0
    2.1374   -2.5344    0.0000 C   0  0  2  0  0  0  0  0  0  0  0  0
    3.1360   -1.4151    0.0000 H   0  0  0  0  0  0  0  0  0  0  0  0
    3.5674   -2.9944    0.0000 C   0  0  0  0  0  0  0  0  0  0  0  0
    2.9598   -4.3658    0.0000 H   0  0  0  0  0  0  0  0  0  0  0  0
    4.8670   -3.7435    0.0000 H   0  0  0  0  0  0  0  0  0  0  0  0
    4.4474   -1.7844    0.0000 C   0  0  0  0  0  0  0  0  0  0  0  0
    5.5620   -2.7883    0.0000 H   0  0  0  0  0  0  0  0  0  0  0  0
    5.5620   -0.7805    0.0000 H   0  0  0  0  0  0  0  0  0  0  0  0
    3.5674   -0.5744    0.0000 C   0  0  1  0  0  0  0  0  0  0  0  0
    5.2828    0.4145    0.0000 C   0  0  0  0  0  0  0  0  0  0  0  0
    6.5814   -0.3364    0.0000 H   0  0  0  0  0  0  0  0  0  0  0  0
    6.2478    1.5629    0.0000 H   0  0  0  0  0  0  0  0  0  0  0  0
    4.3194    1.5642    0.0000 H   0  0  0  0  0  0  0  0  0  0  0  0
    2.3765    2.1136    0.0000 O   0  0  0  0  0  0  0  0  0  0  0  0
    3.2603    3.3255    0.0000 H   0  0  0  0  0  0  0  0  0  0  0  0
   -3.0626   -7.0344    0.0000 S   0  0  0  0  0  0  0  0  0  0  0  0
   -4.3616   -7.7844    0.0000 C   0  0  0  0  0  0  0  0  0  0  0  0
   -4.8746   -6.3749    0.0000 H   0  0  0  0  0  0  0  0  0  0  0  0
   -5.8388   -8.0449    0.0000 H   0  0  0  0  0  0  0  0  0  0  0  0
   -4.3616   -9.2844    0.0000 C   0  0  0  0  0  0  0  0  0  0  0  0
   -3.8486  -10.6939    0.0000 H   0  0  0  0  0  0  0  0  0  0  0  0
   -2.8844   -9.0239    0.0000 C   0  0  0  0  0  0  0  0  0  0  0  0
   -2.3714   -7.6144    0.0000 O   0  0  0  0  0  0  0  0  0  0  0  0
   -1.9202  -10.1730    0.0000 N   0  0  0  0  0  0  0  0  0  0  0  0
   -2.4332  -11.5825    0.0000 H   0  0  0  0  0  0  0  0  0  0  0  0
   -0.4430   -9.9125    0.0000 C   0  0  0  0  0  0  0  0  0  0  0  0
   -0.9560   -8.5030    0.0000 H   0  0  0  0  0  0  0  0  0  0  0  0
    0.8560   -9.1625    0.0000 H   0  0  0  0  0  0  0  0  0  0  0  0
    0.5212  -11.0616    0.0000 C   0  0  0  0  0  0  0  0  0  0  0  0
    0.0081  -12.4711    0.0000 O   0  0  0  0  0  0  0  0  0  0  0  0
    1.9984  -10.8011    0.0000 O   0  0  0  0  0  0  0  0  0  0  0  0
    2.9626  -11.9502    0.0000 H   0  0  0  0  0  0  0  0  0  0  0  0
   -5.6606  -10.0344    0.0000 N   0  0  0  0  0  0  0  0  0  0  0  0
   -6.9597   -9.2844    0.0000 H   0  0  0  0  0  0  0  0  0  0  0  0
   -5.6606  -11.5344    0.0000 C   0  0  0  0  0  0  0  0  0  0  0  0
   -4.3616  -12.2844    0.0000 O   0  0  0  0  0  0  0  0  0  0  0  0
   -6.9597  -12.2844    0.0000 C   0  0  0  0  0  0  0  0  0  0  0  0
   -7.4727  -10.8749    0.0000 H   0  0  0  0  0  0  0  0  0  0  0  0
   -8.4369  -12.5449    0.0000 H   0  0  0  0  0  0  0  0  0  0  0  0
   -6.9597  -14.7444    0.0000 C   0  0  0  0  0  0  0  0  0  0  0  0
   -6.4467  -16.1539    0.0000 H   0  0  0  0  0  0  0  0  0  0  0  0
   -5.4825  -14.4839    0.0000 H   0  0  0  0  0  0  0  0  0  0  0  0
   -8.2587  -15.4944    0.0000 C   0  0  0  0  0  0  0  0  0  0  0  0
   -8.7718  -14.0849    0.0000 H   0  0  0  0  0  0  0  0  0  0  0  0
   -8.2587  -16.9944    0.0000 C   0  0  0  0  0  0  0  0  0  0  0  0
   -6.9597  -17.7444    0.0000 O   0  0  0  0  0  0  0  0  0  0  0  0
   -9.5578  -17.7444    0.0000 O   0  0  0  0  0  0  0  0  0  0  0  0
   -9.5578  -19.2444    0.0000 H   0  0  0  0  0  0  0  0  0  0  0  0
   -9.7359  -15.7549    0.0000 N   0  0  0  0  0  0  0  0  0  0  0  0
  -10.2490  -17.1644    0.0000 H   0  0  0  0  0  0  0  0  0  0  0  0
  -10.7001  -14.6058    0.0000 H   0  0  0  0  0  0  0  0  0  0  0  0
  1  2  1  0  0  0  0 
  1  3  1  0  0  0  0 
  1  4  1  0  0  0  0 
  1  5  1  0  0  0  0 
  5  6  1  6  0  0  0 
  6  7  1  0  0  0  0 
  6  8  2  0  0  0  0 
  8  9  1  0  0  0  0 
  8 10  1  0  0  0  0 
 10 11  2  0  0  0  0 
 10 12  1  0  0  0  0 
 12 13  2  0  0  0  0 
  5 13  1  0  0  0  0 
 13 14  1  0  0  0  0 
 14 15  1  0  0  0  0 
 14 16  1  0  0  0  0 
 14 17  1  0  0  0  0 
 17 18  1  0  0  0  0 
 17 19  1  0  0  0  0 
 17 20  1  0  0  0  0 
 20 21  1  6  0  0  0 
 20 22  1  0  0  0  0 
  5 22  1  0  0  0  0 
 22 23  1  1  0  0  0 
 22 24  1  0  0  0  0 
 24 25  1  0  0  0  0 
 24 26  1  0  0  0  0 
 24 27  1  0  0  0  0 
 27 28  1  0  0  0  0 
 27 29  1  0  0  0  0 
 27 30  1  0  0  0  0 
 30 31  1  6  0  0  0 
 31 32  1  0  0  0  0 
 31 33  1  0  0  0  0 
 31 34  1  0  0  0  0 
 30 35  1  0  0  0  0 
 20 35  1  0  0  0  0 
 35 36  1  1  0  0  0 
 35 37  1  0  0  0  0 
 37 38  1  0  0  0  0 
 37 39  1  0  0  0  0 
 37 40  1  0  0  0  0 
 40 41  1  0  0  0  0 
 40 42  1  0  0  0  0 
 40 43  1  0  0  0  0 
 30 43  1  0  0  0  0 
 43 44  1  6  0  0  0 
 44 45  1  0  0  0  0 
 44 46  1  0  0  0  0 
 44 47  1  0  0  0  0 
 43 48  1  1  0  0  0 
 48 49  1  0  0  0  0 
 12 50  1  0  0  0  0 
 50 51  1  0  0  0  0 
 51 52  1  0  0  0  0 
 51 53  1  0  0  0  0 
 51 54  1  0  0  0  0 
 54 55  1  0  0  0  0 
 54 56  1  0  0  0  0 
 56 57  2  0  0  0  0 
 56 58  1  0  0  0  0 
 58 59  1  0  0  0  0 
 58 60  1  0  0  0  0 
 60 61  1  0  0  0  0 
 60 62  1  0  0  0  0 
 60 63  1  0  0  0  0 
 63 64  2  0  0  0  0 
 63 65  1  0  0  0  0 
 65 66  1  0  0  0  0 
 54 67  1  0  0  0  0 
 67 68  1  0  0  0  0 
 67 69  1  0  0  0  0 
 69 70  2  0  0  0  0 
 69 71  1  0  0  0  0 
 71 72  1  0  0  0  0 
 71 73  1  0  0  0  0 
 71 74  1  0  0  0  0 
 74 75  1  0  0  0  0 
 74 76  1  0  0  0  0 
 74 77  1  0  0  0  0 
 77 78  1  0  0  0  0 
 77 79  1  0  0  0  0 
 79 80  2  0  0  0  0 
 79 81  1  0  0  0  0 
 81 82  1  0  0  0  0 
 77 83  1  0  0  0  0 
 83 84  1  0  0  0  0 
 83 85  1  0  0  0  0 
M  END
> <Rank>
17

> <Priority_score>
0.064

> <Reaction_type>
glutathione_conjugation_(chloroalkene)

> <Parent_ID>
57

> <Parent_InChI>
InChI=1S/C20H27ClO2/c1-18-9-8-16(22)17(21)15(18)5-4-12-13(18)6-10-19(2)14(12)7-11-20(19,3)23/h8-9,12-14,23H,4-7,10-11H2,1-3H3

> <Parent_SMILES>
C[C@]12C=CC(=O)C(Cl)=C1CC[C@H]1[C@H]2CC[C@]2(C)[C@@H]1CC[C@]2(C)O

$$$$
Molecule 57_metabolite 18
  CDK     0516241031

 48 52  0  0  0  0  0  0  0  0999 V2000
   -4.5756   -1.5056    0.0000 C   0  0  0  0  0  0  0  0  0  0  0  0
   -3.6114   -0.3566    0.0000 H   0  0  0  0  0  0  0  0  0  0  0  0
   -1.8129   -2.5112    0.0000 H   0  0  0  0  0  0  0  0  0  0  0  0
   -4.8360   -2.9828    0.0000 H   0  0  0  0  0  0  0  0  0  0  0  0
   -7.5156   -1.5056    0.0000 C   0  0  2  0  0  0  0  0  0  0  0  0
   -6.2165   -2.2556    0.0000 C   0  0  0  0  0  0  0  0  0  0  0  0
   -3.7939   -1.8285    0.0000 H   0  0  0  0  0  0  0  0  0  0  0  0
   -6.2165   -3.7556    0.0000 C   0  0  0  0  0  0  0  0  0  0  0  0
   -5.1410   -4.8013    0.0000 H   0  0  0  0  0  0  0  0  0  0  0  0
  -10.6182   -3.8796    0.0000 C   0  0  0  0  0  0  0  0  0  0  0  0
   -9.1265   -3.7229    0.0000 C   0  0  0  0  0  0  0  0  0  0  0  0
   -8.8146   -2.2556    0.0000 C   0  0  0  0  0  0  0  0  0  0  0  0
  -10.1136   -1.5056    0.0000 C   0  0  0  0  0  0  0  0  0  0  0  0
  -10.1136   -0.0056    0.0000 C   0  0  0  0  0  0  0  0  0  0  0  0
  -10.6267    1.4039    0.0000 H   0  0  0  0  0  0  0  0  0  0  0  0
  -11.5908   -0.2661    0.0000 H   0  0  0  0  0  0  0  0  0  0  0  0
   -8.8146    0.7444    0.0000 C   0  0  1  0  0  0  0  0  0  0  0  0
   -8.8146   -0.7556    0.0000 H   0  0  0  0  0  0  0  0  0  0  0  0
   -7.5156   -0.0056    0.0000 C   0  0  1  0  0  0  0  0  0  0  0  0
   -7.5156    1.4944    0.0000 H   0  0  0  0  0  0  0  0  0  0  0  0
   -6.2165    0.7444    0.0000 C   0  0  0  0  0  0  0  0  0  0  0  0
   -5.7035   -0.6652    0.0000 H   0  0  0  0  0  0  0  0  0  0  0  0
   -4.7393    1.0048    0.0000 H   0  0  0  0  0  0  0  0  0  0  0  0
   -6.2165    2.2444    0.0000 C   0  0  0  0  0  0  0  0  0  0  0  0
   -4.7393    1.9839    0.0000 H   0  0  0  0  0  0  0  0  0  0  0  0
   -5.7035    3.6539    0.0000 H   0  0  0  0  0  0  0  0  0  0  0  0
   -7.5156    2.9944    0.0000 C   0  0  2  0  0  0  0  0  0  0  0  0
   -5.5254    4.4403    0.0000 C   0  0  0  0  0  0  0  0  0  0  0  0
   -3.2780    3.4397    0.0000 H   0  0  0  0  0  0  0  0  0  0  0  0
   -6.6044    5.4823    0.0000 H   0  0  0  0  0  0  0  0  0  0  0  0
   -3.8813    6.8777    0.0000 H   0  0  0  0  0  0  0  0  0  0  0  0
   -8.8146    2.2444    0.0000 C   0  0  2  0  0  0  0  0  0  0  0  0
   -8.3511    3.6710    0.0000 H   0  0  0  0  0  0  0  0  0  0  0  0
   -9.9293    3.2481    0.0000 C   0  0  0  0  0  0  0  0  0  0  0  0
  -11.2283    3.9981    0.0000 H   0  0  0  0  0  0  0  0  0  0  0  0
  -11.2996    2.6380    0.0000 H   0  0  0  0  0  0  0  0  0  0  0  0
   -9.3192    4.6184    0.0000 C   0  0  0  0  0  0  0  0  0  0  0  0
   -9.0073    6.0856    0.0000 H   0  0  0  0  0  0  0  0  0  0  0  0
  -10.7458    5.0819    0.0000 H   0  0  0  0  0  0  0  0  0  0  0  0
   -7.8274    4.4616    0.0000 C   0  0  1  0  0  0  0  0  0  0  0  0
   -4.9035    4.7689    0.0000 C   0  0  0  0  0  0  0  0  0  0  0  0
   -4.0218    3.5554    0.0000 H   0  0  0  0  0  0  0  0  0  0  0  0
   -5.3170    6.2108    0.0000 H   0  0  0  0  0  0  0  0  0  0  0  0
   -3.5553    5.4265    0.0000 H   0  0  0  0  0  0  0  0  0  0  0  0
   -7.8274    5.9616    0.0000 O   0  0  0  0  0  0  0  0  0  0  0  0
   -6.5284    6.7116    0.0000 H   0  0  0  0  0  0  0  0  0  0  0  0
  -11.2283   -2.5093    0.0000 O   0  0  0  0  0  0  0  0  0  0  0  0
   -8.1228   -4.8376    0.0000 Cl  0  0  0  0  0  0  0  0  0  0  0  0
  1  2  1  0  0  0  0 
  1  3  1  0  0  0  0 
  1  4  1  0  0  0  0 
  1  5  1  0  0  0  0 
  5  6  1  1  0  0  0 
  6  7  1  0  0  0  0 
  6  8  2  0  0  0  0 
  8  9  1  0  0  0  0 
  8 10  1  0  0  0  0 
 10 11  2  0  0  0  0 
 11 12  1  0  0  0  0 
  5 12  1  0  0  0  0 
 12 13  2  0  0  0  0 
 13 14  1  0  0  0  0 
 14 15  1  0  0  0  0 
 14 16  1  0  0  0  0 
 14 17  1  0  0  0  0 
 17 18  1  1  0  0  0 
 17 19  1  0  0  0  0 
  5 19  1  0  0  0  0 
 19 20  1  6  0  0  0 
 19 21  1  0  0  0  0 
 21 22  1  0  0  0  0 
 21 23  1  0  0  0  0 
 21 24  1  0  0  0  0 
 24 25  1  0  0  0  0 
 24 26  1  0  0  0  0 
 24 27  1  0  0  0  0 
 27 28  1  1  0  0  0 
 28 29  1  0  0  0  0 
 28 30  1  0  0  0  0 
 28 31  1  0  0  0  0 
 27 32  1  0  0  0  0 
 17 32  1  0  0  0  0 
 32 33  1  6  0  0  0 
 32 34  1  0  0  0  0 
 34 35  1  0  0  0  0 
 34 36  1  0  0  0  0 
 34 37  1  0  0  0  0 
 37 38  1  0  0  0  0 
 37 39  1  0  0  0  0 
 37 40  1  0  0  0  0 
 27 40  1  0  0  0  0 
 40 41  1  1  0  0  0 
 41 42  1  0  0  0  0 
 41 43  1  0  0  0  0 
 41 44  1  0  0  0  0 
 40 45  1  6  0  0  0 
 45 46  1  0  0  0  0 
 13 47  1  0  0  0  0 
 10 47  1  0  0  0  0 
 11 48  1  0  0  0  0 
M  END
> <Rank>
18

> <Priority_score>
0.06

> <Reaction_type>
cyclization to furan

> <Parent_ID>
57

> <Parent_InChI>
InChI=1S/C20H27ClO2/c1-18-9-8-16(22)17(21)15(18)5-4-12-13(18)6-10-19(2)14(12)7-11-20(19,3)23/h8-9,12-14,23H,4-7,10-11H2,1-3H3

> <Parent_SMILES>
C[C@]12C=CC(=O)C(Cl)=C1CC[C@H]1[C@H]2CC[C@]2(C)[C@@H]1CC[C@]2(C)O

$$$$
Molecule 57_metabolite 19
  CDK     0516241031

 48 51  0  0  0  0  0  0  0  0999 V2000
   -2.2544   -1.9994    0.0000 C   0  0  0  0  0  0  0  0  0  0  0  0
   -3.8357   -0.1149    0.0000 H   0  0  0  0  0  0  0  0  0  0  0  0
   -0.3938   -2.6766    0.0000 H   0  0  0  0  0  0  0  0  0  0  0  0
   -1.5044   -0.7004    0.0000 H   0  0  0  0  0  0  0  0  0  0  0  0
   -2.5149   -3.4766    0.0000 C   0  0  2  0  0  0  0  0  0  0  0  0
   -3.8149   -2.7266    0.0000 C   0  0  0  0  0  0  0  0  0  0  0  0
   -3.8149   -1.2266    0.0000 H   0  0  0  0  0  0  0  0  0  0  0  0
   -5.1149   -3.4766    0.0000 C   0  0  0  0  0  0  0  0  0  0  0  0
   -6.4138   -2.7264    0.0000 H   0  0  0  0  0  0  0  0  0  0  0  0
   -5.1149   -4.9766    0.0000 C   0  0  0  0  0  0  0  0  0  0  0  0
   -6.4138   -5.7268    0.0000 O   0  0  0  0  0  0  0  0  0  0  0  0
   -3.8149   -5.7266    0.0000 C   0  0  0  0  0  0  0  0  0  0  0  0
   -2.5149   -4.9766    0.0000 C   0  0  0  0  0  0  0  0  0  0  0  0
   -1.2149   -5.7266    0.0000 C   0  0  0  0  0  0  0  0  0  0  0  0
   -2.1789   -6.8758    0.0000 H   0  0  0  0  0  0  0  0  0  0  0  0
   -0.2508   -6.8758    0.0000 H   0  0  0  0  0  0  0  0  0  0  0  0
    0.0851   -4.9766    0.0000 C   0  0  0  0  0  0  0  0  0  0  0  0
    0.5979   -6.3863    0.0000 H   0  0  0  0  0  0  0  0  0  0  0  0
    1.5851   -4.9768    0.0000 H   0  0  0  0  0  0  0  0  0  0  0  0
    0.0851   -3.4766    0.0000 C   0  0  1  0  0  0  0  0  0  0  0  0
   -1.2131   -4.2281    0.0000 H   0  0  0  0  0  0  0  0  0  0  0  0
   -1.2149   -2.7266    0.0000 C   0  0  1  0  0  0  0  0  0  0  0  0
    0.0840   -1.9764    0.0000 H   0  0  0  0  0  0  0  0  0  0  0  0
   -1.2149   -1.2266    0.0000 C   0  0  0  0  0  0  0  0  0  0  0  0
   -1.7276    0.1830    0.0000 H   0  0  0  0  0  0  0  0  0  0  0  0
   -2.6921   -1.4869    0.0000 H   0  0  0  0  0  0  0  0  0  0  0  0
    0.0851   -0.4766    0.0000 C   0  0  0  0  0  0  0  0  0  0  0  0
    1.0492    0.6726    0.0000 H   0  0  0  0  0  0  0  0  0  0  0  0
   -0.8789    0.6726    0.0000 H   0  0  0  0  0  0  0  0  0  0  0  0
    1.3851   -1.2266    0.0000 C   0  0  2  0  0  0  0  0  0  0  0  0
    1.6963    1.6969    0.0000 C   0  0  0  0  0  0  0  0  0  0  0  0
    0.4839    2.5801    0.0000 H   0  0  0  0  0  0  0  0  0  0  0  0
    2.3556    3.0442    0.0000 H   0  0  0  0  0  0  0  0  0  0  0  0
    3.1376    1.2815    0.0000 H   0  0  0  0  0  0  0  0  0  0  0  0
    1.3851   -2.7266    0.0000 C   0  0  2  0  0  0  0  0  0  0  0  0
    1.5439   -4.2182    0.0000 H   0  0  0  0  0  0  0  0  0  0  0  0
    2.8151   -3.1866    0.0000 C   0  0  0  0  0  0  0  0  0  0  0  0
    3.2804   -4.6126    0.0000 H   0  0  0  0  0  0  0  0  0  0  0  0
    3.6951   -1.9766    0.0000 C   0  0  0  0  0  0  0  0  0  0  0  0
    5.1951   -1.9766    0.0000 H   0  0  0  0  0  0  0  0  0  0  0  0
    2.8151   -0.7666    0.0000 C   0  0  1  0  0  0  0  0  0  0  0  0
    4.1147   -0.0175    0.0000 C   0  0  0  0  0  0  0  0  0  0  0  0
    4.1157    1.4825    0.0000 H   0  0  0  0  0  0  0  0  0  0  0  0
    5.5920    0.2420    0.0000 H   0  0  0  0  0  0  0  0  0  0  0  0
    4.6268   -1.4273    0.0000 H   0  0  0  0  0  0  0  0  0  0  0  0
    2.2075    0.6048    0.0000 O   0  0  0  0  0  0  0  0  0  0  0  0
    3.9398    2.9802    0.0000 H   0  0  0  0  0  0  0  0  0  0  0  0
   -3.8149   -7.2266    0.0000 Cl  0  0  0  0  0  0  0  0  0  0  0  0
  1  2  1  0  0  0  0 
  1  3  1  0  0  0  0 
  1  4  1  0  0  0  0 
  1  5  1  0  0  0  0 
  5  6  1  6  0  0  0 
  6  7  1  0  0  0  0 
  6  8  2  0  0  0  0 
  8  9  1  0  0  0  0 
  8 10  1  0  0  0  0 
 10 11  2  0  0  0  0 
 10 12  1  0  0  0  0 
 12 13  2  0  0  0  0 
  5 13  1  0  0  0  0 
 13 14  1  0  0  0  0 
 14 15  1  0  0  0  0 
 14 16  1  0  0  0  0 
 14 17  1  0  0  0  0 
 17 18  1  0  0  0  0 
 17 19  1  0  0  0  0 
 17 20  1  0  0  0  0 
 20 21  1  6  0  0  0 
 20 22  1  0  0  0  0 
  5 22  1  0  0  0  0 
 22 23  1  1  0  0  0 
 22 24  1  0  0  0  0 
 24 25  1  0  0  0  0 
 24 26  1  0  0  0  0 
 24 27  1  0  0  0  0 
 27 28  1  0  0  0  0 
 27 29  1  0  0  0  0 
 27 30  1  0  0  0  0 
 30 31  1  6  0  0  0 
 31 32  1  0  0  0  0 
 31 33  1  0  0  0  0 
 31 34  1  0  0  0  0 
 30 35  1  0  0  0  0 
 20 35  1  0  0  0  0 
 35 36  1  1  0  0  0 
 35 37  1  0  0  0  0 
 37 38  1  0  0  0  0 
 37 39  2  0  0  0  0 
 39 40  1  0  0  0  0 
 39 41  1  0  0  0  0 
 30 41  1  0  0  0  0 
 41 42  1  6  0  0  0 
 42 43  1  0  0  0  0 
 42 44  1  0  0  0  0 
 42 45  1  0  0  0  0 
 41 46  1  1  0  0  0 
 46 47  1  0  0  0  0 
 12 48  1  0  0  0  0 
M  END
> <Rank>
19

> <Priority_score>
0.0416

> <Reaction_type>
alkyl dehydrogenation

> <Parent_ID>
57

> <Parent_InChI>
InChI=1S/C20H27ClO2/c1-18-9-8-16(22)17(21)15(18)5-4-12-13(18)6-10-19(2)14(12)7-11-20(19,3)23/h8-9,12-14,23H,4-7,10-11H2,1-3H3

> <Parent_SMILES>
C[C@]12C=CC(=O)C(Cl)=C1CC[C@H]1[C@H]2CC[C@]2(C)[C@@H]1CC[C@]2(C)O

$$$$
Molecule 57_metabolite 20
  CDK     0516241031

 51 54  0  0  0  0  0  0  0  0999 V2000
    1.6811    0.0435    0.0000 C   0  0  0  0  0  0  0  0  0  0  0  0
    0.4688    0.9268    0.0000 H   0  0  0  0  0  0  0  0  0  0  0  0
    2.3405    1.3908    0.0000 H   0  0  0  0  0  0  0  0  0  0  0  0
    3.1225   -0.3718    0.0000 H   0  0  0  0  0  0  0  0  0  0  0  0
    1.3700   -2.8800    0.0000 C   0  0  1  0  0  0  0  0  0  0  0  0
    0.0700   -2.1300    0.0000 C   0  0  0  0  0  0  0  0  0  0  0  0
    1.0341   -0.9808    0.0000 H   0  0  0  0  0  0  0  0  0  0  0  0
   -0.8940   -0.9808    0.0000 H   0  0  0  0  0  0  0  0  0  0  0  0
   -1.2300   -2.8800    0.0000 C   0  0  0  0  0  0  0  0  0  0  0  0
   -1.7427   -1.4703    0.0000 H   0  0  0  0  0  0  0  0  0  0  0  0
   -2.6395   -2.3668    0.0000 H   0  0  0  0  0  0  0  0  0  0  0  0
   -1.2300   -4.3800    0.0000 C   0  0  2  0  0  0  0  0  0  0  0  0
    0.0700   -5.1300    0.0000 C   0  0  2  0  0  0  0  0  0  0  0  0
    0.0707   -3.6300    0.0000 H   0  0  0  0  0  0  0  0  0  0  0  0
    0.0700   -6.6300    0.0000 C   0  0  0  0  0  0  0  0  0  0  0  0
    0.5827   -8.0396    0.0000 H   0  0  0  0  0  0  0  0  0  0  0  0
    1.5473   -6.3697    0.0000 H   0  0  0  0  0  0  0  0  0  0  0  0
   -1.2300   -7.3800    0.0000 C   0  0  0  0  0  0  0  0  0  0  0  0
   -2.1940   -8.5291    0.0000 H   0  0  0  0  0  0  0  0  0  0  0  0
   -0.2659   -8.5291    0.0000 H   0  0  0  0  0  0  0  0  0  0  0  0
   -2.5300   -6.6300    0.0000 C   0  0  0  0  0  0  0  0  0  0  0  0
   -3.8300   -7.3800    0.0000 C   0  0  0  0  0  0  0  0  0  0  0  0
   -5.1300   -6.6300    0.0000 C   0  0  0  0  0  0  0  0  0  0  0  0
   -6.4289   -7.3802    0.0000 O   0  0  0  0  0  0  0  0  0  0  0  0
   -5.1300   -5.1300    0.0000 C   0  0  0  0  0  0  0  0  0  0  0  0
   -6.4289   -4.3798    0.0000 H   0  0  0  0  0  0  0  0  0  0  0  0
   -3.8300   -4.3800    0.0000 C   0  0  0  0  0  0  0  0  0  0  0  0
   -3.8300   -2.8800    0.0000 H   0  0  0  0  0  0  0  0  0  0  0  0
   -2.5300   -5.1300    0.0000 C   0  0  2  0  0  0  0  0  0  0  0  0
   -2.2695   -3.6528    0.0000 C   0  0  0  0  0  0  0  0  0  0  0  0
   -4.1540   -2.0715    0.0000 H   0  0  0  0  0  0  0  0  0  0  0  0
   -0.4089   -4.3300    0.0000 H   0  0  0  0  0  0  0  0  0  0  0  0
   -1.5195   -2.3537    0.0000 H   0  0  0  0  0  0  0  0  0  0  0  0
   -3.8300   -8.8800    0.0000 Cl  0  0  0  0  0  0  0  0  0  0  0  0
    1.3700   -4.3800    0.0000 C   0  0  1  0  0  0  0  0  0  0  0  0
    2.3686   -3.2607    0.0000 H   0  0  0  0  0  0  0  0  0  0  0  0
    2.8000   -4.8400    0.0000 C   0  0  0  0  0  0  0  0  0  0  0  0
    2.1924   -6.2114    0.0000 H   0  0  0  0  0  0  0  0  0  0  0  0
    4.0995   -5.5891    0.0000 H   0  0  0  0  0  0  0  0  0  0  0  0
    3.6800   -3.6300    0.0000 C   0  0  0  0  0  0  0  0  0  0  0  0
    4.7946   -4.6339    0.0000 H   0  0  0  0  0  0  0  0  0  0  0  0
    4.7946   -2.6261    0.0000 H   0  0  0  0  0  0  0  0  0  0  0  0
    2.8000   -2.4200    0.0000 C   0  0  1  0  0  0  0  0  0  0  0  0
    4.9312   -1.1914    0.0000 C   0  0  0  0  0  0  0  0  0  0  0  0
    6.2298   -1.9422    0.0000 H   0  0  0  0  0  0  0  0  0  0  0  0
    5.8962   -0.0430    0.0000 H   0  0  0  0  0  0  0  0  0  0  0  0
    3.9678   -0.0417    0.0000 H   0  0  0  0  0  0  0  0  0  0  0  0
    2.1924   -1.0486    0.0000 O   0  0  0  0  0  0  0  0  0  0  0  0
    3.6419    0.9390    0.0000 H   0  0  0  0  0  0  0  0  0  0  0  0
   -2.9446   -3.3897    0.0000 O   0  0  0  0  0  0  0  0  0  0  0  0
   -2.9441   -0.4497    0.0000 H   0  0  0  0  0  0  0  0  0  0  0  0
  1  2  1  0  0  0  0 
  1  3  1  0  0  0  0 
  1  4  1  0  0  0  0 
  5  1  1  6  0  0  0 
  5  6  1  0  0  0  0 
  6  7  1  0  0  0  0 
  6  8  1  0  0  0  0 
  6  9  1  0  0  0  0 
  9 10  1  0  0  0  0 
  9 11  1  0  0  0  0 
  9 12  1  0  0  0  0 
 12 13  1  0  0  0  0 
 13 14  1  6  0  0  0 
 13 15  1  0  0  0  0 
 15 16  1  0  0  0  0 
 15 17  1  0  0  0  0 
 15 18  1  0  0  0  0 
 18 19  1  0  0  0  0 
 18 20  1  0  0  0  0 
 18 21  1  0  0  0  0 
 21 22  2  0  0  0  0 
 22 23  1  0  0  0  0 
 23 24  2  0  0  0  0 
 23 25  1  0  0  0  0 
 25 26  1  0  0  0  0 
 25 27  2  0  0  0  0 
 27 28  1  0  0  0  0 
 27 29  1  0  0  0  0 
 29 21  1  1  0  0  0 
 12 29  1  0  0  0  0 
 29 30  1  0  0  0  0 
 30 31  1  0  0  0  0 
 30 32  1  0  0  0  0 
 30 33  1  0  0  0  0 
 22 34  1  0  0  0  0 
 13 35  1  0  0  0  0 
  5 35  1  0  0  0  0 
 35 36  1  1  0  0  0 
 35 37  1  0  0  0  0 
 37 38  1  0  0  0  0 
 37 39  1  0  0  0  0 
 37 40  1  0  0  0  0 
 40 41  1  0  0  0  0 
 40 42  1  0  0  0  0 
 40 43  1  0  0  0  0 
  5 43  1  0  0  0  0 
 43 44  1  6  0  0  0 
 44 45  1  0  0  0  0 
 44 46  1  0  0  0  0 
 44 47  1  0  0  0  0 
 43 48  1  1  0  0  0 
 48 49  1  0  0  0  0 
 12 50  1  1  0  0  0 
 50 51  1  0  0  0  0 
M  END
> <Rank>
20

> <Priority_score>
0.04

> <Reaction_type>
aliphatic hydroxylation

> <Parent_ID>
57

> <Parent_InChI>
InChI=1S/C20H27ClO2/c1-18-9-8-16(22)17(21)15(18)5-4-12-13(18)6-10-19(2)14(12)7-11-20(19,3)23/h8-9,12-14,23H,4-7,10-11H2,1-3H3

> <Parent_SMILES>
C[C@]12C=CC(=O)C(Cl)=C1CC[C@H]1[C@H]2CC[C@]2(C)[C@@H]1CC[C@]2(C)O

$$$$
Molecule 57_metabolite 21
  CDK     0516241031

 51 54  0  0  0  0  0  0  0  0999 V2000
    2.3024   -1.4916    0.0000 C   0  0  0  0  0  0  0  0  0  0  0  0
    3.6735   -0.8833    0.0000 H   0  0  0  0  0  0  0  0  0  0  0  0
    1.7104    0.8961    0.0000 H   0  0  0  0  0  0  0  0  0  0  0  0
    0.9550   -0.8323    0.0000 H   0  0  0  0  0  0  0  0  0  0  0  0
    2.1436   -2.9832    0.0000 C   0  0  1  0  0  0  0  0  0  0  0  0
    0.8436   -2.2332    0.0000 C   0  0  0  0  0  0  0  0  0  0  0  0
    1.8077   -1.0840    0.0000 H   0  0  0  0  0  0  0  0  0  0  0  0
   -0.1204   -1.0840    0.0000 H   0  0  0  0  0  0  0  0  0  0  0  0
   -0.4564   -2.9832    0.0000 C   0  0  0  0  0  0  0  0  0  0  0  0
   -1.4613   -0.2203    0.0000 H   0  0  0  0  0  0  0  0  0  0  0  0
    1.0209   -3.2435    0.0000 H   0  0  0  0  0  0  0  0  0  0  0  0
   -0.4564   -4.4832    0.0000 C   0  0  2  0  0  0  0  0  0  0  0  0
   -1.7553   -3.7330    0.0000 H   0  0  0  0  0  0  0  0  0  0  0  0
    0.8436   -5.2332    0.0000 C   0  0  2  0  0  0  0  0  0  0  0  0
    1.5942   -3.9345    0.0000 H   0  0  0  0  0  0  0  0  0  0  0  0
    0.8436   -6.7332    0.0000 C   0  0  0  0  0  0  0  0  0  0  0  0
    1.3563   -8.1428    0.0000 H   0  0  0  0  0  0  0  0  0  0  0  0
    2.3209   -6.4729    0.0000 H   0  0  0  0  0  0  0  0  0  0  0  0
   -0.4564   -7.4832    0.0000 C   0  0  0  0  0  0  0  0  0  0  0  0
   -1.4204   -8.6323    0.0000 H   0  0  0  0  0  0  0  0  0  0  0  0
    0.5077   -8.6323    0.0000 H   0  0  0  0  0  0  0  0  0  0  0  0
   -1.7564   -6.7332    0.0000 C   0  0  0  0  0  0  0  0  0  0  0  0
   -3.0564   -7.4832    0.0000 C   0  0  0  0  0  0  0  0  0  0  0  0
   -4.3564   -6.7332    0.0000 C   0  0  0  0  0  0  0  0  0  0  0  0
   -5.6553   -7.4834    0.0000 O   0  0  0  0  0  0  0  0  0  0  0  0
   -4.3564   -5.2332    0.0000 C   0  0  0  0  0  0  0  0  0  0  0  0
   -5.6553   -4.4830    0.0000 H   0  0  0  0  0  0  0  0  0  0  0  0
   -3.0564   -4.4832    0.0000 C   0  0  0  0  0  0  0  0  0  0  0  0
   -3.0564   -2.9832    0.0000 H   0  0  0  0  0  0  0  0  0  0  0  0
   -1.7564   -5.2332    0.0000 C   0  0  2  0  0  0  0  0  0  0  0  0
   -1.4126   -3.2833    0.0000 C   0  0  0  0  0  0  0  0  0  0  0  0
   -0.0030   -3.7963    0.0000 H   0  0  0  0  0  0  0  0  0  0  0  0
   -0.6626   -1.9842    0.0000 H   0  0  0  0  0  0  0  0  0  0  0  0
   -2.9293   -2.0105    0.0000 O   0  0  0  0  0  0  0  0  0  0  0  0
   -4.3389   -2.5236    0.0000 H   0  0  0  0  0  0  0  0  0  0  0  0
   -3.0564   -8.9832    0.0000 Cl  0  0  0  0  0  0  0  0  0  0  0  0
    2.1436   -4.4832    0.0000 C   0  0  1  0  0  0  0  0  0  0  0  0
    3.1422   -3.3639    0.0000 H   0  0  0  0  0  0  0  0  0  0  0  0
    3.5736   -4.9432    0.0000 C   0  0  0  0  0  0  0  0  0  0  0  0
    2.9660   -6.3146    0.0000 H   0  0  0  0  0  0  0  0  0  0  0  0
    4.8732   -5.6923    0.0000 H   0  0  0  0  0  0  0  0  0  0  0  0
    4.4536   -3.7332    0.0000 C   0  0  0  0  0  0  0  0  0  0  0  0
    5.5682   -4.7370    0.0000 H   0  0  0  0  0  0  0  0  0  0  0  0
    5.9248   -2.4081    0.0000 H   0  0  0  0  0  0  0  0  0  0  0  0
    3.5736   -2.5232    0.0000 C   0  0  1  0  0  0  0  0  0  0  0  0
    6.1207   -1.0548    0.0000 C   0  0  0  0  0  0  0  0  0  0  0  0
    7.4192   -1.8057    0.0000 H   0  0  0  0  0  0  0  0  0  0  0  0
    7.0856    0.0936    0.0000 H   0  0  0  0  0  0  0  0  0  0  0  0
    5.1573    0.0949    0.0000 H   0  0  0  0  0  0  0  0  0  0  0  0
    2.5771   -0.2741    0.0000 O   0  0  0  0  0  0  0  0  0  0  0  0
    3.4609    0.9379    0.0000 H   0  0  0  0  0  0  0  0  0  0  0  0
  1  2  1  0  0  0  0 
  1  3  1  0  0  0  0 
  1  4  1  0  0  0  0 
  5  1  1  6  0  0  0 
  5  6  1  0  0  0  0 
  6  7  1  0  0  0  0 
  6  8  1  0  0  0  0 
  6  9  1  0  0  0  0 
  9 10  1  0  0  0  0 
  9 11  1  0  0  0  0 
  9 12  1  0  0  0  0 
 12 13  1  1  0  0  0 
 12 14  1  0  0  0  0 
 14 15  1  6  0  0  0 
 14 16  1  0  0  0  0 
 16 17  1  0  0  0  0 
 16 18  1  0  0  0  0 
 16 19  1  0  0  0  0 
 19 20  1  0  0  0  0 
 19 21  1  0  0  0  0 
 19 22  1  0  0  0  0 
 22 23  2  0  0  0  0 
 23 24  1  0  0  0  0 
 24 25  2  0  0  0  0 
 24 26  1  0  0  0  0 
 26 27  1  0  0  0  0 
 26 28  2  0  0  0  0 
 28 29  1  0  0  0  0 
 28 30  1  0  0  0  0 
 12 30  1  0  0  0  0 
 30 22  1  1  0  0  0 
 30 31  1  0  0  0  0 
 31 32  1  0  0  0  0 
 31 33  1  0  0  0  0 
 31 34  1  0  0  0  0 
 34 35  1  0  0  0  0 
 23 36  1  0  0  0  0 
 14 37  1  0  0  0  0 
  5 37  1  0  0  0  0 
 37 38  1  1  0  0  0 
 37 39  1  0  0  0  0 
 39 40  1  0  0  0  0 
 39 41  1  0  0  0  0 
 39 42  1  0  0  0  0 
 42 43  1  0  0  0  0 
 42 44  1  0  0  0  0 
 42 45  1  0  0  0  0 
  5 45  1  0  0  0  0 
 45 46  1  6  0  0  0 
 46 47  1  0  0  0  0 
 46 48  1  0  0  0  0 
 46 49  1  0  0  0  0 
 45 50  1  1  0  0  0 
 50 51  1  0  0  0  0 
M  END
> <Rank>
20

> <Priority_score>
0.04

> <Reaction_type>
aliphatic hydroxylation

> <Parent_ID>
57

> <Parent_InChI>
InChI=1S/C20H27ClO2/c1-18-9-8-16(22)17(21)15(18)5-4-12-13(18)6-10-19(2)14(12)7-11-20(19,3)23/h8-9,12-14,23H,4-7,10-11H2,1-3H3

> <Parent_SMILES>
C[C@]12C=CC(=O)C(Cl)=C1CC[C@H]1[C@H]2CC[C@]2(C)[C@@H]1CC[C@]2(C)O

$$$$
Molecule 57_metabolite 22
  CDK     0516241031

 51 54  0  0  0  0  0  0  0  0999 V2000
   -1.6500   -3.5146    0.0000 C   0  0  0  0  0  0  0  0  0  0  0  0
   -3.1667   -2.2418    0.0000 H   0  0  0  0  0  0  0  0  0  0  0  0
   -0.2404   -4.0276    0.0000 H   0  0  0  0  0  0  0  0  0  0  0  0
   -0.9000   -2.2155    0.0000 H   0  0  0  0  0  0  0  0  0  0  0  0
   -2.0771   -5.9372    0.0000 C   0  0  2  0  0  0  0  0  0  0  0  0
   -3.3771   -5.1872    0.0000 C   0  0  0  0  0  0  0  0  0  0  0  0
   -3.3771   -3.6872    0.0000 H   0  0  0  0  0  0  0  0  0  0  0  0
   -4.6771   -5.9372    0.0000 C   0  0  0  0  0  0  0  0  0  0  0  0
   -5.9761   -5.1870    0.0000 H   0  0  0  0  0  0  0  0  0  0  0  0
   -4.6771   -7.4372    0.0000 C   0  0  0  0  0  0  0  0  0  0  0  0
   -5.9761   -8.1874    0.0000 O   0  0  0  0  0  0  0  0  0  0  0  0
   -3.3771   -8.1872    0.0000 C   0  0  0  0  0  0  0  0  0  0  0  0
   -2.0771   -7.4372    0.0000 C   0  0  0  0  0  0  0  0  0  0  0  0
   -0.7771   -8.1872    0.0000 C   0  0  0  0  0  0  0  0  0  0  0  0
   -1.7412   -9.3364    0.0000 H   0  0  0  0  0  0  0  0  0  0  0  0
    0.1869   -9.3364    0.0000 H   0  0  0  0  0  0  0  0  0  0  0  0
    0.5229   -7.4372    0.0000 C   0  0  0  0  0  0  0  0  0  0  0  0
    1.0356   -8.8468    0.0000 H   0  0  0  0  0  0  0  0  0  0  0  0
   -0.9544   -7.1769    0.0000 H   0  0  0  0  0  0  0  0  0  0  0  0
    0.5229   -5.9372    0.0000 C   0  0  2  0  0  0  0  0  0  0  0  0
    1.8218   -6.6874    0.0000 H   0  0  0  0  0  0  0  0  0  0  0  0
    1.8229   -5.1872    0.0000 C   0  0  1  0  0  0  0  0  0  0  0  0
    2.8215   -4.0679    0.0000 H   0  0  0  0  0  0  0  0  0  0  0  0
    3.2529   -5.6472    0.0000 C   0  0  0  0  0  0  0  0  0  0  0  0
    2.6452   -7.0186    0.0000 H   0  0  0  0  0  0  0  0  0  0  0  0
    4.5524   -6.3963    0.0000 H   0  0  0  0  0  0  0  0  0  0  0  0
    4.1329   -4.4372    0.0000 C   0  0  0  0  0  0  0  0  0  0  0  0
    5.2474   -5.4411    0.0000 H   0  0  0  0  0  0  0  0  0  0  0  0
    5.2474   -3.4333    0.0000 H   0  0  0  0  0  0  0  0  0  0  0  0
    3.2529   -3.2272    0.0000 C   0  0  1  0  0  0  0  0  0  0  0  0
    5.7999   -1.7589    0.0000 C   0  0  0  0  0  0  0  0  0  0  0  0
    5.8009   -0.2589    0.0000 H   0  0  0  0  0  0  0  0  0  0  0  0
    6.3120   -3.1687    0.0000 H   0  0  0  0  0  0  0  0  0  0  0  0
    7.2773   -1.4994    0.0000 H   0  0  0  0  0  0  0  0  0  0  0  0
    1.8229   -3.6872    0.0000 C   0  0  1  0  0  0  0  0  0  0  0  0
    2.1340   -0.7637    0.0000 C   0  0  0  0  0  0  0  0  0  0  0  0
    3.9439    0.0393    0.0000 H   0  0  0  0  0  0  0  0  0  0  0  0
    1.7730    0.6922    0.0000 H   0  0  0  0  0  0  0  0  0  0  0  0
    0.6375   -0.8664    0.0000 H   0  0  0  0  0  0  0  0  0  0  0  0
    0.5229   -2.9372    0.0000 C   0  0  0  0  0  0  0  0  0  0  0  0
    1.4869   -1.7880    0.0000 H   0  0  0  0  0  0  0  0  0  0  0  0
   -0.7771   -3.6872    0.0000 C   0  0  0  0  0  0  0  0  0  0  0  0
   -1.7821   -0.9243    0.0000 H   0  0  0  0  0  0  0  0  0  0  0  0
    0.7001   -3.9475    0.0000 H   0  0  0  0  0  0  0  0  0  0  0  0
   -0.7771   -5.1872    0.0000 C   0  0  1  0  0  0  0  0  0  0  0  0
   -2.0761   -4.4370    0.0000 H   0  0  0  0  0  0  0  0  0  0  0  0
   -1.0582   -1.0526    0.0000 O   0  0  0  0  0  0  0  0  0  0  0  0
   -0.5450    0.3569    0.0000 H   0  0  0  0  0  0  0  0  0  0  0  0
    2.6452   -1.8558    0.0000 O   0  0  0  0  0  0  0  0  0  0  0  0
    3.5291   -0.6438    0.0000 H   0  0  0  0  0  0  0  0  0  0  0  0
   -3.3771   -9.6872    0.0000 Cl  0  0  0  0  0  0  0  0  0  0  0  0
  1  2  1  0  0  0  0 
  1  3  1  0  0  0  0 
  1  4  1  0  0  0  0 
  1  5  1  0  0  0  0 
  5  6  1  6  0  0  0 
  6  7  1  0  0  0  0 
  6  8  2  0  0  0  0 
  8  9  1  0  0  0  0 
  8 10  1  0  0  0  0 
 10 11  2  0  0  0  0 
 10 12  1  0  0  0  0 
 12 13  2  0  0  0  0 
  5 13  1  0  0  0  0 
 13 14  1  0  0  0  0 
 14 15  1  0  0  0  0 
 14 16  1  0  0  0  0 
 14 17  1  0  0  0  0 
 17 18  1  0  0  0  0 
 17 19  1  0  0  0  0 
 17 20  1  0  0  0  0 
 20 21  1  6  0  0  0 
 20 22  1  0  0  0  0 
 22 23  1  1  0  0  0 
 22 24  1  0  0  0  0 
 24 25  1  0  0  0  0 
 24 26  1  0  0  0  0 
 24 27  1  0  0  0  0 
 27 28  1  0  0  0  0 
 27 29  1  0  0  0  0 
 27 30  1  0  0  0  0 
 30 31  1  6  0  0  0 
 31 32  1  0  0  0  0 
 31 33  1  0  0  0  0 
 31 34  1  0  0  0  0 
 30 35  1  0  0  0  0 
 22 35  1  0  0  0  0 
 35 36  1  6  0  0  0 
 36 37  1  0  0  0  0 
 36 38  1  0  0  0  0 
 36 39  1  0  0  0  0 
 35 40  1  0  0  0  0 
 40 41  1  0  0  0  0 
 40 42  1  0  0  0  0 
 42 43  1  0  0  0  0 
 42 44  1  0  0  0  0 
 42 45  1  0  0  0  0 
 20 45  1  0  0  0  0 
  5 45  1  0  0  0  0 
 45 46  1  1  0  0  0 
 40 47  1  0  0  0  0 
 47 48  1  0  0  0  0 
 30 49  1  1  0  0  0 
 49 50  1  0  0  0  0 
 12 51  1  0  0  0  0 
M  END
> <Rank>
22

> <Priority_score>
0.036

> <Reaction_type>
aliphatic_hydroxylation_(sec_carbon_in_a_ringB)

> <Parent_ID>
57

> <Parent_InChI>
InChI=1S/C20H27ClO2/c1-18-9-8-16(22)17(21)15(18)5-4-12-13(18)6-10-19(2)14(12)7-11-20(19,3)23/h8-9,12-14,23H,4-7,10-11H2,1-3H3

> <Parent_SMILES>
C[C@]12C=CC(=O)C(Cl)=C1CC[C@H]1[C@H]2CC[C@]2(C)[C@@H]1CC[C@]2(C)O

$$$$
Molecule 57_metabolite 23
  CDK     0516241031

 51 54  0  0  0  0  0  0  0  0999 V2000
   -0.4396   -3.0026    0.0000 C   0  0  0  0  0  0  0  0  0  0  0  0
   -2.0208   -1.1181    0.0000 H   0  0  0  0  0  0  0  0  0  0  0  0
    1.4210   -3.6798    0.0000 H   0  0  0  0  0  0  0  0  0  0  0  0
    0.3104   -1.7035    0.0000 H   0  0  0  0  0  0  0  0  0  0  0  0
   -0.7001   -4.4798    0.0000 C   0  0  2  0  0  0  0  0  0  0  0  0
   -2.0001   -3.7298    0.0000 C   0  0  0  0  0  0  0  0  0  0  0  0
   -2.0001   -2.2298    0.0000 H   0  0  0  0  0  0  0  0  0  0  0  0
   -3.3001   -4.4798    0.0000 C   0  0  0  0  0  0  0  0  0  0  0  0
   -4.5990   -3.7296    0.0000 H   0  0  0  0  0  0  0  0  0  0  0  0
   -3.3001   -5.9798    0.0000 C   0  0  0  0  0  0  0  0  0  0  0  0
   -4.5990   -6.7300    0.0000 O   0  0  0  0  0  0  0  0  0  0  0  0
   -2.0001   -6.7298    0.0000 C   0  0  0  0  0  0  0  0  0  0  0  0
   -0.7001   -5.9798    0.0000 C   0  0  0  0  0  0  0  0  0  0  0  0
    0.5999   -6.7298    0.0000 C   0  0  0  0  0  0  0  0  0  0  0  0
   -0.3641   -7.8790    0.0000 H   0  0  0  0  0  0  0  0  0  0  0  0
    1.5640   -7.8790    0.0000 H   0  0  0  0  0  0  0  0  0  0  0  0
    1.8999   -5.9798    0.0000 C   0  0  0  0  0  0  0  0  0  0  0  0
    2.4127   -7.3894    0.0000 H   0  0  0  0  0  0  0  0  0  0  0  0
    0.4227   -5.7195    0.0000 H   0  0  0  0  0  0  0  0  0  0  0  0
    1.8999   -4.4798    0.0000 C   0  0  1  0  0  0  0  0  0  0  0  0
    3.1989   -5.2300    0.0000 H   0  0  0  0  0  0  0  0  0  0  0  0
    0.5999   -3.7298    0.0000 C   0  0  1  0  0  0  0  0  0  0  0  0
    1.8989   -2.9796    0.0000 H   0  0  0  0  0  0  0  0  0  0  0  0
    0.5999   -2.2298    0.0000 C   0  0  0  0  0  0  0  0  0  0  0  0
    0.0872   -0.8201    0.0000 H   0  0  0  0  0  0  0  0  0  0  0  0
   -0.8773   -2.4901    0.0000 H   0  0  0  0  0  0  0  0  0  0  0  0
    1.8999   -1.4798    0.0000 C   0  0  0  0  0  0  0  0  0  0  0  0
    2.8640   -0.3306    0.0000 H   0  0  0  0  0  0  0  0  0  0  0  0
    0.9359   -0.3306    0.0000 H   0  0  0  0  0  0  0  0  0  0  0  0
    3.1999   -2.2298    0.0000 C   0  0  2  0  0  0  0  0  0  0  0  0
    3.4603    0.2164    0.0000 C   0  0  0  0  0  0  0  0  0  0  0  0
    4.1196    1.5637    0.0000 H   0  0  0  0  0  0  0  0  0  0  0  0
    4.9016   -0.1989    0.0000 H   0  0  0  0  0  0  0  0  0  0  0  0
    1.0840    1.9476    0.0000 O   0  0  0  0  0  0  0  0  0  0  0  0
    1.2428    3.4392    0.0000 H   0  0  0  0  0  0  0  0  0  0  0  0
    3.1999   -3.7298    0.0000 C   0  0  2  0  0  0  0  0  0  0  0  0
    4.1985   -2.6105    0.0000 H   0  0  0  0  0  0  0  0  0  0  0  0
    4.6299   -4.1898    0.0000 C   0  0  0  0  0  0  0  0  0  0  0  0
    4.0223   -5.5612    0.0000 H   0  0  0  0  0  0  0  0  0  0  0  0
    5.9295   -4.9389    0.0000 H   0  0  0  0  0  0  0  0  0  0  0  0
    5.5099   -2.9798    0.0000 C   0  0  0  0  0  0  0  0  0  0  0  0
    6.6245   -3.9837    0.0000 H   0  0  0  0  0  0  0  0  0  0  0  0
    6.6245   -1.9759    0.0000 H   0  0  0  0  0  0  0  0  0  0  0  0
    4.6299   -1.7698    0.0000 C   0  0  1  0  0  0  0  0  0  0  0  0
    6.7612   -0.5412    0.0000 C   0  0  0  0  0  0  0  0  0  0  0  0
    8.0597   -1.2920    0.0000 H   0  0  0  0  0  0  0  0  0  0  0  0
    7.7261    0.6072    0.0000 H   0  0  0  0  0  0  0  0  0  0  0  0
    5.7978    0.6085    0.0000 H   0  0  0  0  0  0  0  0  0  0  0  0
    4.9425    1.1536    0.0000 O   0  0  0  0  0  0  0  0  0  0  0  0
    6.3139    1.7612    0.0000 H   0  0  0  0  0  0  0  0  0  0  0  0
   -2.0001   -8.2298    0.0000 Cl  0  0  0  0  0  0  0  0  0  0  0  0
  1  2  1  0  0  0  0 
  1  3  1  0  0  0  0 
  1  4  1  0  0  0  0 
  1  5  1  0  0  0  0 
  5  6  1  6  0  0  0 
  6  7  1  0  0  0  0 
  6  8  2  0  0  0  0 
  8  9  1  0  0  0  0 
  8 10  1  0  0  0  0 
 10 11  2  0  0  0  0 
 10 12  1  0  0  0  0 
 12 13  2  0  0  0  0 
  5 13  1  0  0  0  0 
 13 14  1  0  0  0  0 
 14 15  1  0  0  0  0 
 14 16  1  0  0  0  0 
 14 17  1  0  0  0  0 
 17 18  1  0  0  0  0 
 17 19  1  0  0  0  0 
 17 20  1  0  0  0  0 
 20 21  1  6  0  0  0 
 20 22  1  0  0  0  0 
  5 22  1  0  0  0  0 
 22 23  1  1  0  0  0 
 22 24  1  0  0  0  0 
 24 25  1  0  0  0  0 
 24 26  1  0  0  0  0 
 24 27  1  0  0  0  0 
 27 28  1  0  0  0  0 
 27 29  1  0  0  0  0 
 27 30  1  0  0  0  0 
 30 31  1  6  0  0  0 
 31 32  1  0  0  0  0 
 31 33  1  0  0  0  0 
 31 34  1  0  0  0  0 
 34 35  1  0  0  0  0 
 30 36  1  0  0  0  0 
 20 36  1  0  0  0  0 
 36 37  1  1  0  0  0 
 36 38  1  0  0  0  0 
 38 39  1  0  0  0  0 
 38 40  1  0  0  0  0 
 38 41  1  0  0  0  0 
 41 42  1  0  0  0  0 
 41 43  1  0  0  0  0 
 41 44  1  0  0  0  0 
 30 44  1  0  0  0  0 
 44 45  1  6  0  0  0 
 45 46  1  0  0  0  0 
 45 47  1  0  0  0  0 
 45 48  1  0  0  0  0 
 44 49  1  1  0  0  0 
 49 50  1  0  0  0  0 
 12 51  1  0  0  0  0 
M  END
> <Rank>
22

> <Priority_score>
0.036

> <Reaction_type>
aliphatic hydroxylation

> <Parent_ID>
57

> <Parent_InChI>
InChI=1S/C20H27ClO2/c1-18-9-8-16(22)17(21)15(18)5-4-12-13(18)6-10-19(2)14(12)7-11-20(19,3)23/h8-9,12-14,23H,4-7,10-11H2,1-3H3

> <Parent_SMILES>
C[C@]12C=CC(=O)C(Cl)=C1CC[C@H]1[C@H]2CC[C@]2(C)[C@@H]1CC[C@]2(C)O

$$$$
Molecule 57_metabolite 24
  CDK     0516241031

 51 54  0  0  0  0  0  0  0  0999 V2000
   -1.7048   -2.9938    0.0000 C   0  0  0  0  0  0  0  0  0  0  0  0
    0.1558   -2.3166    0.0000 H   0  0  0  0  0  0  0  0  0  0  0  0
   -4.1648   -2.9938    0.0000 H   0  0  0  0  0  0  0  0  0  0  0  0
   -2.1320   -0.5712    0.0000 H   0  0  0  0  0  0  0  0  0  0  0  0
   -1.9653   -4.4710    0.0000 C   0  0  2  0  0  0  0  0  0  0  0  0
   -3.2653   -3.7210    0.0000 C   0  0  0  0  0  0  0  0  0  0  0  0
   -3.2653   -2.2210    0.0000 H   0  0  0  0  0  0  0  0  0  0  0  0
   -4.5653   -4.4710    0.0000 C   0  0  0  0  0  0  0  0  0  0  0  0
   -5.8642   -3.7208    0.0000 H   0  0  0  0  0  0  0  0  0  0  0  0
   -4.5653   -5.9710    0.0000 C   0  0  0  0  0  0  0  0  0  0  0  0
   -5.8642   -6.7212    0.0000 O   0  0  0  0  0  0  0  0  0  0  0  0
   -3.2653   -6.7210    0.0000 C   0  0  0  0  0  0  0  0  0  0  0  0
   -1.9653   -5.9710    0.0000 C   0  0  0  0  0  0  0  0  0  0  0  0
   -0.6653   -6.7210    0.0000 C   0  0  0  0  0  0  0  0  0  0  0  0
   -1.6294   -7.8702    0.0000 H   0  0  0  0  0  0  0  0  0  0  0  0
    0.2988   -7.8702    0.0000 H   0  0  0  0  0  0  0  0  0  0  0  0
    0.6347   -5.9710    0.0000 C   0  0  0  0  0  0  0  0  0  0  0  0
    1.1474   -7.3807    0.0000 H   0  0  0  0  0  0  0  0  0  0  0  0
   -0.8425   -5.7107    0.0000 H   0  0  0  0  0  0  0  0  0  0  0  0
    0.6347   -4.4710    0.0000 C   0  0  2  0  0  0  0  0  0  0  0  0
    1.9336   -5.2212    0.0000 H   0  0  0  0  0  0  0  0  0  0  0  0
    1.9347   -3.7210    0.0000 C   0  0  1  0  0  0  0  0  0  0  0  0
    2.9333   -2.6017    0.0000 H   0  0  0  0  0  0  0  0  0  0  0  0
    3.3647   -4.1810    0.0000 C   0  0  0  0  0  0  0  0  0  0  0  0
    2.7571   -5.5524    0.0000 H   0  0  0  0  0  0  0  0  0  0  0  0
    4.6642   -4.9302    0.0000 H   0  0  0  0  0  0  0  0  0  0  0  0
    4.2447   -2.9710    0.0000 C   0  0  0  0  0  0  0  0  0  0  0  0
    5.3593   -3.9749    0.0000 H   0  0  0  0  0  0  0  0  0  0  0  0
    5.7159   -1.6459    0.0000 H   0  0  0  0  0  0  0  0  0  0  0  0
    3.3647   -1.7610    0.0000 C   0  0  1  0  0  0  0  0  0  0  0  0
    5.9118   -0.2927    0.0000 C   0  0  0  0  0  0  0  0  0  0  0  0
    5.9128    1.2073    0.0000 H   0  0  0  0  0  0  0  0  0  0  0  0
    6.4239   -1.7026    0.0000 H   0  0  0  0  0  0  0  0  0  0  0  0
    7.3892   -0.0332    0.0000 H   0  0  0  0  0  0  0  0  0  0  0  0
    1.9347   -2.2210    0.0000 C   0  0  1  0  0  0  0  0  0  0  0  0
    2.2458    0.7025    0.0000 C   0  0  0  0  0  0  0  0  0  0  0  0
    4.0557    1.5055    0.0000 H   0  0  0  0  0  0  0  0  0  0  0  0
    1.8849    2.1584    0.0000 H   0  0  0  0  0  0  0  0  0  0  0  0
    0.7494    0.5998    0.0000 H   0  0  0  0  0  0  0  0  0  0  0  0
    0.6347   -1.4710    0.0000 C   0  0  0  0  0  0  0  0  0  0  0  0
    1.5988   -0.3218    0.0000 H   0  0  0  0  0  0  0  0  0  0  0  0
   -0.3294   -0.3218    0.0000 H   0  0  0  0  0  0  0  0  0  0  0  0
   -0.6653   -2.2210    0.0000 C   0  0  0  0  0  0  0  0  0  0  0  0
   -1.1780   -0.8114    0.0000 H   0  0  0  0  0  0  0  0  0  0  0  0
   -0.6653   -3.7210    0.0000 C   0  0  1  0  0  0  0  0  0  0  0  0
   -2.3799   -2.7307    0.0000 H   0  0  0  0  0  0  0  0  0  0  0  0
   -2.1653   -2.2209    0.0000 O   0  0  0  0  0  0  0  0  0  0  0  0
   -2.9152   -0.9217    0.0000 H   0  0  0  0  0  0  0  0  0  0  0  0
    2.7571   -0.3896    0.0000 O   0  0  0  0  0  0  0  0  0  0  0  0
    3.6409    0.8223    0.0000 H   0  0  0  0  0  0  0  0  0  0  0  0
   -3.2653   -8.2210    0.0000 Cl  0  0  0  0  0  0  0  0  0  0  0  0
  1  2  1  0  0  0  0 
  1  3  1  0  0  0  0 
  1  4  1  0  0  0  0 
  1  5  1  0  0  0  0 
  5  6  1  6  0  0  0 
  6  7  1  0  0  0  0 
  6  8  2  0  0  0  0 
  8  9  1  0  0  0  0 
  8 10  1  0  0  0  0 
 10 11  2  0  0  0  0 
 10 12  1  0  0  0  0 
 12 13  2  0  0  0  0 
  5 13  1  0  0  0  0 
 13 14  1  0  0  0  0 
 14 15  1  0  0  0  0 
 14 16  1  0  0  0  0 
 14 17  1  0  0  0  0 
 17 18  1  0  0  0  0 
 17 19  1  0  0  0  0 
 17 20  1  0  0  0  0 
 20 21  1  6  0  0  0 
 20 22  1  0  0  0  0 
 22 23  1  1  0  0  0 
 22 24  1  0  0  0  0 
 24 25  1  0  0  0  0 
 24 26  1  0  0  0  0 
 24 27  1  0  0  0  0 
 27 28  1  0  0  0  0 
 27 29  1  0  0  0  0 
 27 30  1  0  0  0  0 
 30 31  1  6  0  0  0 
 31 32  1  0  0  0  0 
 31 33  1  0  0  0  0 
 31 34  1  0  0  0  0 
 30 35  1  0  0  0  0 
 22 35  1  0  0  0  0 
 35 36  1  6  0  0  0 
 36 37  1  0  0  0  0 
 36 38  1  0  0  0  0 
 36 39  1  0  0  0  0 
 35 40  1  0  0  0  0 
 40 41  1  0  0  0  0 
 40 42  1  0  0  0  0 
 40 43  1  0  0  0  0 
 43 44  1  0  0  0  0 
 43 45  1  0  0  0  0 
 20 45  1  0  0  0  0 
  5 45  1  0  0  0  0 
 45 46  1  1  0  0  0 
 43 47  1  0  0  0  0 
 47 48  1  0  0  0  0 
 30 49  1  1  0  0  0 
 49 50  1  0  0  0  0 
 12 51  1  0  0  0  0 
M  END
> <Rank>
24

> <Priority_score>
0.024

> <Reaction_type>
aliphatic hydroxylation

> <Parent_ID>
57

> <Parent_InChI>
InChI=1S/C20H27ClO2/c1-18-9-8-16(22)17(21)15(18)5-4-12-13(18)6-10-19(2)14(12)7-11-20(19,3)23/h8-9,12-14,23H,4-7,10-11H2,1-3H3

> <Parent_SMILES>
C[C@]12C=CC(=O)C(Cl)=C1CC[C@H]1[C@H]2CC[C@]2(C)[C@@H]1CC[C@]2(C)O

$$$$
Molecule 57_metabolite 25
  CDK     0516241031

 51 54  0  0  0  0  0  0  0  0999 V2000
   -2.3432   -0.4384    0.0000 C   0  0  0  0  0  0  0  0  0  0  0  0
   -4.2277    1.1429    0.0000 H   0  0  0  0  0  0  0  0  0  0  0  0
   -0.4826   -1.1156    0.0000 H   0  0  0  0  0  0  0  0  0  0  0  0
   -1.5932    0.8606    0.0000 H   0  0  0  0  0  0  0  0  0  0  0  0
   -2.6037   -1.9156    0.0000 C   0  0  2  0  0  0  0  0  0  0  0  0
   -3.9037   -1.1656    0.0000 C   0  0  0  0  0  0  0  0  0  0  0  0
   -3.9037    0.3344    0.0000 H   0  0  0  0  0  0  0  0  0  0  0  0
   -5.2037   -1.9156    0.0000 C   0  0  0  0  0  0  0  0  0  0  0  0
   -6.5026   -1.1654    0.0000 H   0  0  0  0  0  0  0  0  0  0  0  0
   -5.2037   -3.4156    0.0000 C   0  0  0  0  0  0  0  0  0  0  0  0
   -6.5026   -4.1658    0.0000 O   0  0  0  0  0  0  0  0  0  0  0  0
   -3.9037   -4.1656    0.0000 C   0  0  0  0  0  0  0  0  0  0  0  0
   -2.6037   -3.4156    0.0000 C   0  0  0  0  0  0  0  0  0  0  0  0
   -1.3037   -4.1656    0.0000 C   0  0  0  0  0  0  0  0  0  0  0  0
   -2.2677   -5.3148    0.0000 H   0  0  0  0  0  0  0  0  0  0  0  0
   -0.3396   -5.3148    0.0000 H   0  0  0  0  0  0  0  0  0  0  0  0
   -0.0037   -3.4156    0.0000 C   0  0  0  0  0  0  0  0  0  0  0  0
    0.5090   -4.8253    0.0000 H   0  0  0  0  0  0  0  0  0  0  0  0
    1.4736   -3.1553    0.0000 H   0  0  0  0  0  0  0  0  0  0  0  0
   -0.0037   -1.9156    0.0000 C   0  0  1  0  0  0  0  0  0  0  0  0
   -1.3037   -1.1656    0.0000 C   0  0  1  0  0  0  0  0  0  0  0  0
   -0.0048   -0.4154    0.0000 H   0  0  0  0  0  0  0  0  0  0  0  0
   -1.3037    0.3344    0.0000 C   0  0  0  0  0  0  0  0  0  0  0  0
   -1.8164    1.7440    0.0000 H   0  0  0  0  0  0  0  0  0  0  0  0
   -2.7809    0.0741    0.0000 H   0  0  0  0  0  0  0  0  0  0  0  0
   -0.0037    1.0844    0.0000 C   0  0  0  0  0  0  0  0  0  0  0  0
    0.9604    2.2336    0.0000 H   0  0  0  0  0  0  0  0  0  0  0  0
   -0.9677    2.2336    0.0000 H   0  0  0  0  0  0  0  0  0  0  0  0
    1.2963    0.3344    0.0000 C   0  0  2  0  0  0  0  0  0  0  0  0
    1.5567    2.7806    0.0000 C   0  0  0  0  0  0  0  0  0  0  0  0
    0.3443    3.6638    0.0000 H   0  0  0  0  0  0  0  0  0  0  0  0
    2.2160    4.1279    0.0000 H   0  0  0  0  0  0  0  0  0  0  0  0
    2.9980    2.3652    0.0000 H   0  0  0  0  0  0  0  0  0  0  0  0
    1.2963   -1.1656    0.0000 C   0  0  2  0  0  0  0  0  0  0  0  0
    2.2949   -0.0463    0.0000 H   0  0  0  0  0  0  0  0  0  0  0  0
    2.7263   -1.6256    0.0000 C   0  0  0  0  0  0  0  0  0  0  0  0
    1.7298   -3.8747    0.0000 H   0  0  0  0  0  0  0  0  0  0  0  0
    4.0259   -2.3748    0.0000 H   0  0  0  0  0  0  0  0  0  0  0  0
    3.6063   -0.4156    0.0000 C   0  0  0  0  0  0  0  0  0  0  0  0
    4.7209   -1.4195    0.0000 H   0  0  0  0  0  0  0  0  0  0  0  0
    4.7209    0.5883    0.0000 H   0  0  0  0  0  0  0  0  0  0  0  0
    2.7263    0.7944    0.0000 C   0  0  1  0  0  0  0  0  0  0  0  0
    4.8576    2.0230    0.0000 C   0  0  0  0  0  0  0  0  0  0  0  0
    6.1561    1.2721    0.0000 H   0  0  0  0  0  0  0  0  0  0  0  0
    5.8225    3.1714    0.0000 H   0  0  0  0  0  0  0  0  0  0  0  0
    3.8941    3.1727    0.0000 H   0  0  0  0  0  0  0  0  0  0  0  0
    3.0389    3.7177    0.0000 O   0  0  0  0  0  0  0  0  0  0  0  0
    4.4103    4.3254    0.0000 H   0  0  0  0  0  0  0  0  0  0  0  0
    2.5422   -3.3860    0.0000 O   0  0  0  0  0  0  0  0  0  0  0  0
    2.5420   -4.8860    0.0000 H   0  0  0  0  0  0  0  0  0  0  0  0
   -3.9037   -5.6656    0.0000 Cl  0  0  0  0  0  0  0  0  0  0  0  0
  1  2  1  0  0  0  0 
  1  3  1  0  0  0  0 
  1  4  1  0  0  0  0 
  1  5  1  0  0  0  0 
  5  6  1  6  0  0  0 
  6  7  1  0  0  0  0 
  6  8  2  0  0  0  0 
  8  9  1  0  0  0  0 
  8 10  1  0  0  0  0 
 10 11  2  0  0  0  0 
 10 12  1  0  0  0  0 
 12 13  2  0  0  0  0 
  5 13  1  0  0  0  0 
 13 14  1  0  0  0  0 
 14 15  1  0  0  0  0 
 14 16  1  0  0  0  0 
 14 17  1  0  0  0  0 
 17 18  1  0  0  0  0 
 17 19  1  0  0  0  0 
 17 20  1  0  0  0  0 
 20 21  1  0  0  0  0 
  5 21  1  0  0  0  0 
 21 22  1  1  0  0  0 
 21 23  1  0  0  0  0 
 23 24  1  0  0  0  0 
 23 25  1  0  0  0  0 
 23 26  1  0  0  0  0 
 26 27  1  0  0  0  0 
 26 28  1  0  0  0  0 
 26 29  1  0  0  0  0 
 29 30  1  6  0  0  0 
 30 31  1  0  0  0  0 
 30 32  1  0  0  0  0 
 30 33  1  0  0  0  0 
 29 34  1  0  0  0  0 
 20 34  1  0  0  0  0 
 34 35  1  1  0  0  0 
 34 36  1  0  0  0  0 
 36 37  1  0  0  0  0 
 36 38  1  0  0  0  0 
 36 39  1  0  0  0  0 
 39 40  1  0  0  0  0 
 39 41  1  0  0  0  0 
 39 42  1  0  0  0  0 
 29 42  1  0  0  0  0 
 42 43  1  6  0  0  0 
 43 44  1  0  0  0  0 
 43 45  1  0  0  0  0 
 43 46  1  0  0  0  0 
 42 47  1  1  0  0  0 
 47 48  1  0  0  0  0 
 20 49  1  6  0  0  0 
 49 50  1  0  0  0  0 
 12 51  1  0  0  0  0 
M  END
> <Rank>
25

> <Priority_score>
0.012

> <Reaction_type>
aliphatic hydroxylation

> <Parent_ID>
57

> <Parent_InChI>
InChI=1S/C20H27ClO2/c1-18-9-8-16(22)17(21)15(18)5-4-12-13(18)6-10-19(2)14(12)7-11-20(19,3)23/h8-9,12-14,23H,4-7,10-11H2,1-3H3

> <Parent_SMILES>
C[C@]12C=CC(=O)C(Cl)=C1CC[C@H]1[C@H]2CC[C@]2(C)[C@@H]1CC[C@]2(C)O

$$$$
Molecule 57_metabolite 26
  CDK     0516241031

 48 51  0  0  0  0  0  0  0  0999 V2000
   -0.4396   -3.0026    0.0000 C   0  0  0  0  0  0  0  0  0  0  0  0
   -2.0208   -1.1181    0.0000 H   0  0  0  0  0  0  0  0  0  0  0  0
    1.4210   -3.6798    0.0000 H   0  0  0  0  0  0  0  0  0  0  0  0
    0.3104   -1.7035    0.0000 H   0  0  0  0  0  0  0  0  0  0  0  0
   -0.7001   -4.4798    0.0000 C   0  0  2  0  0  0  0  0  0  0  0  0
   -2.0001   -3.7298    0.0000 C   0  0  0  0  0  0  0  0  0  0  0  0
   -2.0001   -2.2298    0.0000 H   0  0  0  0  0  0  0  0  0  0  0  0
   -3.3001   -4.4798    0.0000 C   0  0  0  0  0  0  0  0  0  0  0  0
   -4.5990   -3.7296    0.0000 H   0  0  0  0  0  0  0  0  0  0  0  0
   -3.3001   -5.9798    0.0000 C   0  0  0  0  0  0  0  0  0  0  0  0
   -4.5990   -6.7300    0.0000 O   0  0  0  0  0  0  0  0  0  0  0  0
   -2.0001   -6.7298    0.0000 C   0  0  0  0  0  0  0  0  0  0  0  0
   -0.7001   -5.9798    0.0000 C   0  0  0  0  0  0  0  0  0  0  0  0
    0.5999   -6.7298    0.0000 C   0  0  0  0  0  0  0  0  0  0  0  0
   -0.3641   -7.8790    0.0000 H   0  0  0  0  0  0  0  0  0  0  0  0
    1.5640   -7.8790    0.0000 H   0  0  0  0  0  0  0  0  0  0  0  0
    1.8999   -5.9798    0.0000 C   0  0  0  0  0  0  0  0  0  0  0  0
    2.4127   -7.3894    0.0000 H   0  0  0  0  0  0  0  0  0  0  0  0
    3.3094   -6.4930    0.0000 H   0  0  0  0  0  0  0  0  0  0  0  0
    1.8999   -4.4798    0.0000 C   0  0  0  0  0  0  0  0  0  0  0  0
    0.5999   -3.7298    0.0000 C   0  0  0  0  0  0  0  0  0  0  0  0
    0.5999   -2.2298    0.0000 C   0  0  0  0  0  0  0  0  0  0  0  0
    0.0872   -0.8201    0.0000 H   0  0  0  0  0  0  0  0  0  0  0  0
   -0.8773   -2.4901    0.0000 H   0  0  0  0  0  0  0  0  0  0  0  0
    1.8999   -1.4798    0.0000 C   0  0  0  0  0  0  0  0  0  0  0  0
    2.8640   -0.3306    0.0000 H   0  0  0  0  0  0  0  0  0  0  0  0
    0.9359   -0.3306    0.0000 H   0  0  0  0  0  0  0  0  0  0  0  0
    3.1999   -2.2298    0.0000 C   0  0  2  0  0  0  0  0  0  0  0  0
    3.4603    0.2164    0.0000 C   0  0  0  0  0  0  0  0  0  0  0  0
    1.0840    1.9476    0.0000 H   0  0  0  0  0  0  0  0  0  0  0  0
    4.1196    1.5637    0.0000 H   0  0  0  0  0  0  0  0  0  0  0  0
    4.9016   -0.1989    0.0000 H   0  0  0  0  0  0  0  0  0  0  0  0
    3.1999   -3.7298    0.0000 C   0  0  2  0  0  0  0  0  0  0  0  0
    4.1985   -2.6105    0.0000 H   0  0  0  0  0  0  0  0  0  0  0  0
    4.6299   -4.1898    0.0000 C   0  0  0  0  0  0  0  0  0  0  0  0
    4.0223   -5.5612    0.0000 H   0  0  0  0  0  0  0  0  0  0  0  0
    5.9295   -4.9389    0.0000 H   0  0  0  0  0  0  0  0  0  0  0  0
    5.5099   -2.9798    0.0000 C   0  0  0  0  0  0  0  0  0  0  0  0
    6.6245   -3.9837    0.0000 H   0  0  0  0  0  0  0  0  0  0  0  0
    6.6245   -1.9759    0.0000 H   0  0  0  0  0  0  0  0  0  0  0  0
    4.6299   -1.7698    0.0000 C   0  0  1  0  0  0  0  0  0  0  0  0
    6.7612   -0.5412    0.0000 C   0  0  0  0  0  0  0  0  0  0  0  0
    8.0597   -1.2920    0.0000 H   0  0  0  0  0  0  0  0  0  0  0  0
    7.7261    0.6072    0.0000 H   0  0  0  0  0  0  0  0  0  0  0  0
    5.7978    0.6085    0.0000 H   0  0  0  0  0  0  0  0  0  0  0  0
    4.9425    1.1536    0.0000 O   0  0  0  0  0  0  0  0  0  0  0  0
    6.3139    1.7612    0.0000 H   0  0  0  0  0  0  0  0  0  0  0  0
   -2.0001   -8.2298    0.0000 Cl  0  0  0  0  0  0  0  0  0  0  0  0
  1  2  1  0  0  0  0 
  1  3  1  0  0  0  0 
  1  4  1  0  0  0  0 
  1  5  1  0  0  0  0 
  5  6  1  6  0  0  0 
  6  7  1  0  0  0  0 
  6  8  2  0  0  0  0 
  8  9  1  0  0  0  0 
  8 10  1  0  0  0  0 
 10 11  2  0  0  0  0 
 10 12  1  0  0  0  0 
 12 13  2  0  0  0  0 
  5 13  1  0  0  0  0 
 13 14  1  0  0  0  0 
 14 15  1  0  0  0  0 
 14 16  1  0  0  0  0 
 14 17  1  0  0  0  0 
 17 18  1  0  0  0  0 
 17 19  1  0  0  0  0 
 17 20  1  0  0  0  0 
 20 21  2  0  0  0  0 
  5 21  1  0  0  0  0 
 21 22  1  0  0  0  0 
 22 23  1  0  0  0  0 
 22 24  1  0  0  0  0 
 22 25  1  0  0  0  0 
 25 26  1  0  0  0  0 
 25 27  1  0  0  0  0 
 25 28  1  0  0  0  0 
 28 29  1  6  0  0  0 
 29 30  1  0  0  0  0 
 29 31  1  0  0  0  0 
 29 32  1  0  0  0  0 
 28 33  1  0  0  0  0 
 20 33  1  0  0  0  0 
 33 34  1  1  0  0  0 
 33 35  1  0  0  0  0 
 35 36  1  0  0  0  0 
 35 37  1  0  0  0  0 
 35 38  1  0  0  0  0 
 38 39  1  0  0  0  0 
 38 40  1  0  0  0  0 
 38 41  1  0  0  0  0 
 28 41  1  0  0  0  0 
 41 42  1  6  0  0  0 
 42 43  1  0  0  0  0 
 42 44  1  0  0  0  0 
 42 45  1  0  0  0  0 
 41 46  1  1  0  0  0 
 46 47  1  0  0  0  0 
 12 48  1  0  0  0  0 
M  END
> <Rank>
26

> <Priority_score>
0.008

> <Reaction_type>
alkyl dehydrogenation

> <Parent_ID>
57

> <Parent_InChI>
InChI=1S/C20H27ClO2/c1-18-9-8-16(22)17(21)15(18)5-4-12-13(18)6-10-19(2)14(12)7-11-20(19,3)23/h8-9,12-14,23H,4-7,10-11H2,1-3H3

> <Parent_SMILES>
C[C@]12C=CC(=O)C(Cl)=C1CC[C@H]1[C@H]2CC[C@]2(C)[C@@H]1CC[C@]2(C)O

$$$$
Molecule 57_metabolite 27
  CDK     0516241031

 48 51  0  0  0  0  0  0  0  0999 V2000
   -3.9801   -1.5235    0.0000 C   0  0  0  0  0  0  0  0  0  0  0  0
   -5.6948   -0.5335    0.0000 H   0  0  0  0  0  0  0  0  0  0  0  0
   -2.0302   -1.8673    0.0000 H   0  0  0  0  0  0  0  0  0  0  0  0
   -2.9746    1.2392    0.0000 H   0  0  0  0  0  0  0  0  0  0  0  0
   -3.9801   -3.5035    0.0000 C   0  0  2  0  0  0  0  0  0  0  0  0
   -5.2801   -2.7535    0.0000 C   0  0  0  0  0  0  0  0  0  0  0  0
   -5.2801   -1.2535    0.0000 H   0  0  0  0  0  0  0  0  0  0  0  0
   -6.5801   -3.5035    0.0000 C   0  0  0  0  0  0  0  0  0  0  0  0
   -7.8790   -2.7533    0.0000 H   0  0  0  0  0  0  0  0  0  0  0  0
   -6.5801   -5.0035    0.0000 C   0  0  0  0  0  0  0  0  0  0  0  0
   -7.8790   -5.7537    0.0000 O   0  0  0  0  0  0  0  0  0  0  0  0
   -5.2801   -5.7535    0.0000 C   0  0  0  0  0  0  0  0  0  0  0  0
   -3.9801   -5.0035    0.0000 C   0  0  0  0  0  0  0  0  0  0  0  0
   -2.6801   -5.7535    0.0000 C   0  0  0  0  0  0  0  0  0  0  0  0
   -3.6442   -6.9027    0.0000 H   0  0  0  0  0  0  0  0  0  0  0  0
   -1.7161   -6.9027    0.0000 H   0  0  0  0  0  0  0  0  0  0  0  0
   -1.3801   -5.0035    0.0000 C   0  0  0  0  0  0  0  0  0  0  0  0
   -0.8674   -6.4132    0.0000 H   0  0  0  0  0  0  0  0  0  0  0  0
   -2.8574   -4.7432    0.0000 H   0  0  0  0  0  0  0  0  0  0  0  0
   -1.3801   -3.5035    0.0000 C   0  0  1  0  0  0  0  0  0  0  0  0
   -0.0812   -4.2537    0.0000 H   0  0  0  0  0  0  0  0  0  0  0  0
   -2.6801   -2.7535    0.0000 C   0  0  0  0  0  0  0  0  0  0  0  0
   -2.6801   -1.2535    0.0000 C   0  0  0  0  0  0  0  0  0  0  0  0
   -3.9790   -0.5033    0.0000 H   0  0  0  0  0  0  0  0  0  0  0  0
   -1.3801   -0.5035    0.0000 C   0  0  0  0  0  0  0  0  0  0  0  0
   -0.4161    0.6457    0.0000 H   0  0  0  0  0  0  0  0  0  0  0  0
   -2.3442    0.6457    0.0000 H   0  0  0  0  0  0  0  0  0  0  0  0
   -0.0801   -1.2535    0.0000 C   0  0  2  0  0  0  0  0  0  0  0  0
    0.2310    1.6700    0.0000 C   0  0  0  0  0  0  0  0  0  0  0  0
    2.0409    2.4730    0.0000 H   0  0  0  0  0  0  0  0  0  0  0  0
   -0.1300    3.1259    0.0000 H   0  0  0  0  0  0  0  0  0  0  0  0
   -1.2655    1.5673    0.0000 H   0  0  0  0  0  0  0  0  0  0  0  0
   -0.0801   -2.7535    0.0000 C   0  0  2  0  0  0  0  0  0  0  0  0
    0.9185   -1.6342    0.0000 H   0  0  0  0  0  0  0  0  0  0  0  0
    1.3499   -3.2135    0.0000 C   0  0  0  0  0  0  0  0  0  0  0  0
    0.7422   -4.5849    0.0000 H   0  0  0  0  0  0  0  0  0  0  0  0
    2.6494   -3.9627    0.0000 H   0  0  0  0  0  0  0  0  0  0  0  0
    2.2299   -2.0035    0.0000 C   0  0  0  0  0  0  0  0  0  0  0  0
    3.3444   -3.0074    0.0000 H   0  0  0  0  0  0  0  0  0  0  0  0
    3.3444   -0.9996    0.0000 H   0  0  0  0  0  0  0  0  0  0  0  0
    1.3499   -0.7935    0.0000 C   0  0  1  0  0  0  0  0  0  0  0  0
    3.4811    0.4351    0.0000 C   0  0  0  0  0  0  0  0  0  0  0  0
    3.4821    1.9351    0.0000 H   0  0  0  0  0  0  0  0  0  0  0  0
    4.3210   -1.8771    0.0000 H   0  0  0  0  0  0  0  0  0  0  0  0
    4.9585    0.6946    0.0000 H   0  0  0  0  0  0  0  0  0  0  0  0
    0.7422    0.5779    0.0000 O   0  0  0  0  0  0  0  0  0  0  0  0
    1.6261    1.7898    0.0000 H   0  0  0  0  0  0  0  0  0  0  0  0
   -5.2801   -7.2535    0.0000 Cl  0  0  0  0  0  0  0  0  0  0  0  0
  1  2  1  0  0  0  0 
  1  3  1  0  0  0  0 
  1  4  1  0  0  0  0 
  1  5  1  0  0  0  0 
  5  6  1  6  0  0  0 
  6  7  1  0  0  0  0 
  6  8  2  0  0  0  0 
  8  9  1  0  0  0  0 
  8 10  1  0  0  0  0 
 10 11  2  0  0  0  0 
 10 12  1  0  0  0  0 
 12 13  2  0  0  0  0 
  5 13  1  0  0  0  0 
 13 14  1  0  0  0  0 
 14 15  1  0  0  0  0 
 14 16  1  0  0  0  0 
 14 17  1  0  0  0  0 
 17 18  1  0  0  0  0 
 17 19  1  0  0  0  0 
 17 20  1  0  0  0  0 
 20 21  1  6  0  0  0 
 20 22  1  0  0  0  0 
  5 22  1  0  0  0  0 
 22 23  2  0  0  0  0 
 23 24  1  0  0  0  0 
 23 25  1  0  0  0  0 
 25 26  1  0  0  0  0 
 25 27  1  0  0  0  0 
 25 28  1  0  0  0  0 
 28 29  1  6  0  0  0 
 29 30  1  0  0  0  0 
 29 31  1  0  0  0  0 
 29 32  1  0  0  0  0 
 28 33  1  0  0  0  0 
 20 33  1  0  0  0  0 
 33 34  1  1  0  0  0 
 33 35  1  0  0  0  0 
 35 36  1  0  0  0  0 
 35 37  1  0  0  0  0 
 35 38  1  0  0  0  0 
 38 39  1  0  0  0  0 
 38 40  1  0  0  0  0 
 38 41  1  0  0  0  0 
 28 41  1  0  0  0  0 
 41 42  1  6  0  0  0 
 42 43  1  0  0  0  0 
 42 44  1  0  0  0  0 
 42 45  1  0  0  0  0 
 41 46  1  1  0  0  0 
 46 47  1  0  0  0  0 
 12 48  1  0  0  0  0 
M  END
> <Rank>
26

> <Priority_score>
0.008

> <Reaction_type>
alkyl dehydrogenation

> <Parent_ID>
57

> <Parent_InChI>
InChI=1S/C20H27ClO2/c1-18-9-8-16(22)17(21)15(18)5-4-12-13(18)6-10-19(2)14(12)7-11-20(19,3)23/h8-9,12-14,23H,4-7,10-11H2,1-3H3

> <Parent_SMILES>
C[C@]12C=CC(=O)C(Cl)=C1CC[C@H]1[C@H]2CC[C@]2(C)[C@@H]1CC[C@]2(C)O

$$$$
Molecule 57_metabolite 28
  CDK     0516241031

 48 51  0  0  0  0  0  0  0  0999 V2000
   -3.5642   -2.3014    0.0000 C   0  0  0  0  0  0  0  0  0  0  0  0
   -5.2789   -1.3114    0.0000 H   0  0  0  0  0  0  0  0  0  0  0  0
   -1.6142   -2.6452    0.0000 H   0  0  0  0  0  0  0  0  0  0  0  0
   -2.7228    0.0103    0.0000 H   0  0  0  0  0  0  0  0  0  0  0  0
   -3.5642   -4.7614    0.0000 C   0  0  2  0  0  0  0  0  0  0  0  0
   -4.8642   -4.0114    0.0000 C   0  0  0  0  0  0  0  0  0  0  0  0
   -4.8642   -2.5114    0.0000 H   0  0  0  0  0  0  0  0  0  0  0  0
   -6.1642   -4.7614    0.0000 C   0  0  0  0  0  0  0  0  0  0  0  0
   -7.4631   -4.0112    0.0000 H   0  0  0  0  0  0  0  0  0  0  0  0
   -6.1642   -6.2614    0.0000 C   0  0  0  0  0  0  0  0  0  0  0  0
   -7.4631   -7.0116    0.0000 O   0  0  0  0  0  0  0  0  0  0  0  0
   -4.8642   -7.0114    0.0000 C   0  0  0  0  0  0  0  0  0  0  0  0
   -3.5642   -6.2614    0.0000 C   0  0  0  0  0  0  0  0  0  0  0  0
   -2.2642   -7.0114    0.0000 C   0  0  0  0  0  0  0  0  0  0  0  0
   -3.2282   -8.1605    0.0000 H   0  0  0  0  0  0  0  0  0  0  0  0
   -1.3001   -8.1605    0.0000 H   0  0  0  0  0  0  0  0  0  0  0  0
   -0.9642   -6.2614    0.0000 C   0  0  0  0  0  0  0  0  0  0  0  0
   -0.4514   -7.6710    0.0000 H   0  0  0  0  0  0  0  0  0  0  0  0
   -2.4414   -6.0010    0.0000 H   0  0  0  0  0  0  0  0  0  0  0  0
   -0.9642   -4.7614    0.0000 C   0  0  1  0  0  0  0  0  0  0  0  0
    0.3348   -5.5116    0.0000 H   0  0  0  0  0  0  0  0  0  0  0  0
   -2.2642   -4.0114    0.0000 C   0  0  1  0  0  0  0  0  0  0  0  0
   -3.5631   -3.2612    0.0000 H   0  0  0  0  0  0  0  0  0  0  0  0
   -2.2642   -2.5114    0.0000 C   0  0  0  0  0  0  0  0  0  0  0  0
   -3.9787   -1.5211    0.0000 H   0  0  0  0  0  0  0  0  0  0  0  0
   -0.9642   -1.7614    0.0000 C   0  0  0  0  0  0  0  0  0  0  0  0
   -0.9642    1.1786    0.0000 H   0  0  0  0  0  0  0  0  0  0  0  0
    0.3358   -2.5114    0.0000 C   0  0  2  0  0  0  0  0  0  0  0  0
    0.6470    0.4121    0.0000 C   0  0  0  0  0  0  0  0  0  0  0  0
    2.4568    1.2151    0.0000 H   0  0  0  0  0  0  0  0  0  0  0  0
    0.2860    1.8680    0.0000 H   0  0  0  0  0  0  0  0  0  0  0  0
   -0.8495    0.3094    0.0000 H   0  0  0  0  0  0  0  0  0  0  0  0
    0.3358   -4.0114    0.0000 C   0  0  2  0  0  0  0  0  0  0  0  0
    1.3344   -2.8921    0.0000 H   0  0  0  0  0  0  0  0  0  0  0  0
    1.7658   -4.4714    0.0000 C   0  0  0  0  0  0  0  0  0  0  0  0
    1.1582   -5.8428    0.0000 H   0  0  0  0  0  0  0  0  0  0  0  0
    3.0654   -5.2205    0.0000 H   0  0  0  0  0  0  0  0  0  0  0  0
    2.6458   -3.2614    0.0000 C   0  0  0  0  0  0  0  0  0  0  0  0
    3.7604   -4.2652    0.0000 H   0  0  0  0  0  0  0  0  0  0  0  0
    3.7604   -2.2575    0.0000 H   0  0  0  0  0  0  0  0  0  0  0  0
    1.7658   -2.0514    0.0000 C   0  0  1  0  0  0  0  0  0  0  0  0
    3.8971   -0.8228    0.0000 C   0  0  0  0  0  0  0  0  0  0  0  0
    3.8981    0.6772    0.0000 H   0  0  0  0  0  0  0  0  0  0  0  0
    4.9008   -3.5861    0.0000 H   0  0  0  0  0  0  0  0  0  0  0  0
    5.3744   -0.5633    0.0000 H   0  0  0  0  0  0  0  0  0  0  0  0
    1.1582   -0.6800    0.0000 O   0  0  0  0  0  0  0  0  0  0  0  0
    2.0420    0.5320    0.0000 H   0  0  0  0  0  0  0  0  0  0  0  0
   -4.8642   -8.5114    0.0000 Cl  0  0  0  0  0  0  0  0  0  0  0  0
  1  2  1  0  0  0  0 
  1  3  1  0  0  0  0 
  1  4  1  0  0  0  0 
  1  5  1  0  0  0  0 
  5  6  1  6  0  0  0 
  6  7  1  0  0  0  0 
  6  8  2  0  0  0  0 
  8  9  1  0  0  0  0 
  8 10  1  0  0  0  0 
 10 11  2  0  0  0  0 
 10 12  1  0  0  0  0 
 12 13  2  0  0  0  0 
  5 13  1  0  0  0  0 
 13 14  1  0  0  0  0 
 14 15  1  0  0  0  0 
 14 16  1  0  0  0  0 
 14 17  1  0  0  0  0 
 17 18  1  0  0  0  0 
 17 19  1  0  0  0  0 
 17 20  1  0  0  0  0 
 20 21  1  6  0  0  0 
 20 22  1  0  0  0  0 
  5 22  1  0  0  0  0 
 22 23  1  1  0  0  0 
 22 24  1  0  0  0  0 
 24 25  1  0  0  0  0 
 24 26  2  0  0  0  0 
 26 27  1  0  0  0  0 
 28 26  1  1  0  0  0 
 28 29  1  0  0  0  0 
 29 30  1  0  0  0  0 
 29 31  1  0  0  0  0 
 29 32  1  0  0  0  0 
 28 33  1  0  0  0  0 
 20 33  1  0  0  0  0 
 33 34  1  1  0  0  0 
 33 35  1  0  0  0  0 
 35 36  1  0  0  0  0 
 35 37  1  0  0  0  0 
 35 38  1  0  0  0  0 
 38 39  1  0  0  0  0 
 38 40  1  0  0  0  0 
 38 41  1  0  0  0  0 
 28 41  1  0  0  0  0 
 41 42  1  6  0  0  0 
 42 43  1  0  0  0  0 
 42 44  1  0  0  0  0 
 42 45  1  0  0  0  0 
 41 46  1  1  0  0  0 
 46 47  1  0  0  0  0 
 12 48  1  0  0  0  0 
M  END
> <Rank>
28

> <Priority_score>
0.0048000000000000004

> <Reaction_type>
alkyl dehydrogenation

> <Parent_ID>
57

> <Parent_InChI>
InChI=1S/C20H27ClO2/c1-18-9-8-16(22)17(21)15(18)5-4-12-13(18)6-10-19(2)14(12)7-11-20(19,3)23/h8-9,12-14,23H,4-7,10-11H2,1-3H3

> <Parent_SMILES>
C[C@]12C=CC(=O)C(Cl)=C1CC[C@H]1[C@H]2CC[C@]2(C)[C@@H]1CC[C@]2(C)O

$$$$
Molecule 57_metabolite 29
  CDK     0516241031

 51 54  0  0  0  0  0  0  0  0999 V2000
   -1.6035   -2.1546    0.0000 C   0  0  0  0  0  0  0  0  0  0  0  0
   -3.1847   -0.2702    0.0000 H   0  0  0  0  0  0  0  0  0  0  0  0
    0.2571   -2.8318    0.0000 H   0  0  0  0  0  0  0  0  0  0  0  0
   -0.8535   -0.8556    0.0000 H   0  0  0  0  0  0  0  0  0  0  0  0
   -1.8639   -3.6318    0.0000 C   0  0  2  0  0  0  0  0  0  0  0  0
   -3.1639   -2.8818    0.0000 C   0  0  0  0  0  0  0  0  0  0  0  0
   -3.1639   -1.3818    0.0000 H   0  0  0  0  0  0  0  0  0  0  0  0
   -4.4639   -3.6318    0.0000 C   0  0  0  0  0  0  0  0  0  0  0  0
   -5.7629   -2.8816    0.0000 H   0  0  0  0  0  0  0  0  0  0  0  0
   -4.4639   -5.1318    0.0000 C   0  0  0  0  0  0  0  0  0  0  0  0
   -5.7629   -5.8821    0.0000 O   0  0  0  0  0  0  0  0  0  0  0  0
   -3.1639   -5.8818    0.0000 C   0  0  0  0  0  0  0  0  0  0  0  0
   -1.8639   -5.1318    0.0000 C   0  0  0  0  0  0  0  0  0  0  0  0
   -0.5639   -5.8818    0.0000 C   0  0  0  0  0  0  0  0  0  0  0  0
   -1.5280   -7.0310    0.0000 H   0  0  0  0  0  0  0  0  0  0  0  0
    0.4001   -7.0310    0.0000 H   0  0  0  0  0  0  0  0  0  0  0  0
    0.7361   -5.1318    0.0000 C   0  0  0  0  0  0  0  0  0  0  0  0
    1.2488   -6.5415    0.0000 H   0  0  0  0  0  0  0  0  0  0  0  0
   -0.7412   -4.8715    0.0000 H   0  0  0  0  0  0  0  0  0  0  0  0
    0.7361   -3.6318    0.0000 C   0  0  1  0  0  0  0  0  0  0  0  0
    2.0350   -4.3821    0.0000 H   0  0  0  0  0  0  0  0  0  0  0  0
   -0.5639   -2.8818    0.0000 C   0  0  1  0  0  0  0  0  0  0  0  0
    0.7350   -2.1316    0.0000 H   0  0  0  0  0  0  0  0  0  0  0  0
   -0.5639   -1.3818    0.0000 C   0  0  0  0  0  0  0  0  0  0  0  0
   -1.0767    0.0278    0.0000 H   0  0  0  0  0  0  0  0  0  0  0  0
   -2.0412   -1.6422    0.0000 H   0  0  0  0  0  0  0  0  0  0  0  0
    0.7361   -0.6318    0.0000 C   0  0  0  0  0  0  0  0  0  0  0  0
    1.7001    0.5173    0.0000 H   0  0  0  0  0  0  0  0  0  0  0  0
   -0.2280    0.5173    0.0000 H   0  0  0  0  0  0  0  0  0  0  0  0
    2.0361   -1.3818    0.0000 C   0  0  2  0  0  0  0  0  0  0  0  0
    2.2964    1.0643    0.0000 C   0  0  0  0  0  0  0  0  0  0  0  0
    1.0840    1.9476    0.0000 H   0  0  0  0  0  0  0  0  0  0  0  0
    2.9557    2.4117    0.0000 H   0  0  0  0  0  0  0  0  0  0  0  0
    3.7378    0.6490    0.0000 H   0  0  0  0  0  0  0  0  0  0  0  0
    2.0361   -2.8818    0.0000 C   0  0  2  0  0  0  0  0  0  0  0  0
    3.0347   -1.7626    0.0000 H   0  0  0  0  0  0  0  0  0  0  0  0
    3.4661   -3.3418    0.0000 C   0  0  0  0  0  0  0  0  0  0  0  0
    2.8584   -4.7133    0.0000 H   0  0  0  0  0  0  0  0  0  0  0  0
    4.3461   -2.1318    0.0000 C   0  0  0  0  0  0  0  0  0  0  0  0
    5.4606   -3.1357    0.0000 H   0  0  0  0  0  0  0  0  0  0  0  0
    5.4606   -1.1280    0.0000 H   0  0  0  0  0  0  0  0  0  0  0  0
    3.4661   -0.9218    0.0000 C   0  0  1  0  0  0  0  0  0  0  0  0
    5.5973    0.3067    0.0000 C   0  0  0  0  0  0  0  0  0  0  0  0
    6.8958   -0.4441    0.0000 H   0  0  0  0  0  0  0  0  0  0  0  0
    6.5622    1.4552    0.0000 H   0  0  0  0  0  0  0  0  0  0  0  0
    4.6339    1.4564    0.0000 H   0  0  0  0  0  0  0  0  0  0  0  0
    3.7786    2.0015    0.0000 O   0  0  0  0  0  0  0  0  0  0  0  0
    5.1500    2.6091    0.0000 H   0  0  0  0  0  0  0  0  0  0  0  0
    4.7656   -4.0910    0.0000 O   0  0  0  0  0  0  0  0  0  0  0  0
    4.7666   -5.5910    0.0000 H   0  0  0  0  0  0  0  0  0  0  0  0
   -3.1639   -7.3818    0.0000 Cl  0  0  0  0  0  0  0  0  0  0  0  0
  1  2  1  0  0  0  0 
  1  3  1  0  0  0  0 
  1  4  1  0  0  0  0 
  1  5  1  0  0  0  0 
  5  6  1  6  0  0  0 
  6  7  1  0  0  0  0 
  6  8  2  0  0  0  0 
  8  9  1  0  0  0  0 
  8 10  1  0  0  0  0 
 10 11  2  0  0  0  0 
 10 12  1  0  0  0  0 
 12 13  2  0  0  0  0 
  5 13  1  0  0  0  0 
 13 14  1  0  0  0  0 
 14 15  1  0  0  0  0 
 14 16  1  0  0  0  0 
 14 17  1  0  0  0  0 
 17 18  1  0  0  0  0 
 17 19  1  0  0  0  0 
 17 20  1  0  0  0  0 
 20 21  1  6  0  0  0 
 20 22  1  0  0  0  0 
  5 22  1  0  0  0  0 
 22 23  1  1  0  0  0 
 22 24  1  0  0  0  0 
 24 25  1  0  0  0  0 
 24 26  1  0  0  0  0 
 24 27  1  0  0  0  0 
 27 28  1  0  0  0  0 
 27 29  1  0  0  0  0 
 27 30  1  0  0  0  0 
 30 31  1  6  0  0  0 
 31 32  1  0  0  0  0 
 31 33  1  0  0  0  0 
 31 34  1  0  0  0  0 
 30 35  1  0  0  0  0 
 20 35  1  0  0  0  0 
 35 36  1  1  0  0  0 
 35 37  1  0  0  0  0 
 37 38  1  0  0  0  0 
 37 39  1  0  0  0  0 
 39 40  1  0  0  0  0 
 39 41  1  0  0  0  0 
 39 42  1  0  0  0  0 
 30 42  1  0  0  0  0 
 42 43  1  6  0  0  0 
 43 44  1  0  0  0  0 
 43 45  1  0  0  0  0 
 43 46  1  0  0  0  0 
 42 47  1  1  0  0  0 
 47 48  1  0  0  0  0 
 37 49  1  0  0  0  0 
 49 50  1  0  0  0  0 
 12 51  1  0  0  0  0 
M  END
> <Rank>
29

> <Priority_score>
0.004

> <Reaction_type>
aliphatic hydroxylation

> <Parent_ID>
57

> <Parent_InChI>
InChI=1S/C20H27ClO2/c1-18-9-8-16(22)17(21)15(18)5-4-12-13(18)6-10-19(2)14(12)7-11-20(19,3)23/h8-9,12-14,23H,4-7,10-11H2,1-3H3

> <Parent_SMILES>
C[C@]12C=CC(=O)C(Cl)=C1CC[C@H]1[C@H]2CC[C@]2(C)[C@@H]1CC[C@]2(C)O

$$$$
Molecule 57_metabolite 30
  CDK     0516241031

 48 51  0  0  0  0  0  0  0  0999 V2000
   -2.2670   -2.7791    0.0000 C   0  0  0  0  0  0  0  0  0  0  0  0
   -3.7837   -1.5064    0.0000 H   0  0  0  0  0  0  0  0  0  0  0  0
   -0.8574   -3.2921    0.0000 H   0  0  0  0  0  0  0  0  0  0  0  0
   -1.5170   -1.4801    0.0000 H   0  0  0  0  0  0  0  0  0  0  0  0
   -2.6108   -4.7290    0.0000 C   0  0  2  0  0  0  0  0  0  0  0  0
   -3.9108   -3.9790    0.0000 C   0  0  0  0  0  0  0  0  0  0  0  0
   -3.9108   -2.4790    0.0000 H   0  0  0  0  0  0  0  0  0  0  0  0
   -5.2108   -4.7290    0.0000 C   0  0  0  0  0  0  0  0  0  0  0  0
   -6.5097   -3.9788    0.0000 H   0  0  0  0  0  0  0  0  0  0  0  0
   -5.2108   -6.2290    0.0000 C   0  0  0  0  0  0  0  0  0  0  0  0
   -6.5097   -6.9792    0.0000 O   0  0  0  0  0  0  0  0  0  0  0  0
   -3.9108   -6.9790    0.0000 C   0  0  0  0  0  0  0  0  0  0  0  0
   -2.6108   -6.2290    0.0000 C   0  0  0  0  0  0  0  0  0  0  0  0
   -1.3108   -6.9790    0.0000 C   0  0  0  0  0  0  0  0  0  0  0  0
   -2.2748   -8.1282    0.0000 H   0  0  0  0  0  0  0  0  0  0  0  0
   -0.3467   -8.1282    0.0000 H   0  0  0  0  0  0  0  0  0  0  0  0
   -0.0108   -6.2290    0.0000 C   0  0  0  0  0  0  0  0  0  0  0  0
    0.5019   -7.6387    0.0000 H   0  0  0  0  0  0  0  0  0  0  0  0
    1.3987   -6.7422    0.0000 H   0  0  0  0  0  0  0  0  0  0  0  0
   -0.0108   -4.7290    0.0000 C   0  0  0  0  0  0  0  0  0  0  0  0
    1.2892   -3.9790    0.0000 C   0  0  0  0  0  0  0  0  0  0  0  0
    2.7192   -4.4390    0.0000 C   0  0  0  0  0  0  0  0  0  0  0  0
    2.1116   -5.8104    0.0000 H   0  0  0  0  0  0  0  0  0  0  0  0
    4.0187   -5.1882    0.0000 H   0  0  0  0  0  0  0  0  0  0  0  0
    3.5992   -3.2290    0.0000 C   0  0  0  0  0  0  0  0  0  0  0  0
    4.7138   -4.2329    0.0000 H   0  0  0  0  0  0  0  0  0  0  0  0
    4.7138   -2.2251    0.0000 H   0  0  0  0  0  0  0  0  0  0  0  0
    2.7192   -2.0190    0.0000 C   0  0  1  0  0  0  0  0  0  0  0  0
    5.2663   -0.5507    0.0000 C   0  0  0  0  0  0  0  0  0  0  0  0
    5.2673    0.9493    0.0000 H   0  0  0  0  0  0  0  0  0  0  0  0
    5.7784   -1.9606    0.0000 H   0  0  0  0  0  0  0  0  0  0  0  0
    6.7437   -0.2912    0.0000 H   0  0  0  0  0  0  0  0  0  0  0  0
    1.2892   -2.4790    0.0000 C   0  0  1  0  0  0  0  0  0  0  0  0
    1.6003    0.4445    0.0000 C   0  0  0  0  0  0  0  0  0  0  0  0
    3.4102    1.2475    0.0000 H   0  0  0  0  0  0  0  0  0  0  0  0
    1.2394    1.9004    0.0000 H   0  0  0  0  0  0  0  0  0  0  0  0
    0.1039    0.3418    0.0000 H   0  0  0  0  0  0  0  0  0  0  0  0
   -0.0108   -1.7290    0.0000 C   0  0  0  0  0  0  0  0  0  0  0  0
    0.9533   -0.5798    0.0000 H   0  0  0  0  0  0  0  0  0  0  0  0
   -0.9748   -0.5798    0.0000 H   0  0  0  0  0  0  0  0  0  0  0  0
   -1.3108   -2.4790    0.0000 C   0  0  0  0  0  0  0  0  0  0  0  0
   -2.3157    0.2839    0.0000 H   0  0  0  0  0  0  0  0  0  0  0  0
    0.1665   -2.7393    0.0000 H   0  0  0  0  0  0  0  0  0  0  0  0
   -1.3108   -3.9790    0.0000 C   0  0  1  0  0  0  0  0  0  0  0  0
   -2.6097   -3.2288    0.0000 H   0  0  0  0  0  0  0  0  0  0  0  0
    2.1116   -0.6476    0.0000 O   0  0  0  0  0  0  0  0  0  0  0  0
    2.9954    0.5643    0.0000 H   0  0  0  0  0  0  0  0  0  0  0  0
   -3.9108   -8.4790    0.0000 Cl  0  0  0  0  0  0  0  0  0  0  0  0
  1  2  1  0  0  0  0 
  1  3  1  0  0  0  0 
  1  4  1  0  0  0  0 
  1  5  1  0  0  0  0 
  5  6  1  6  0  0  0 
  6  7  1  0  0  0  0 
  6  8  2  0  0  0  0 
  8  9  1  0  0  0  0 
  8 10  1  0  0  0  0 
 10 11  2  0  0  0  0 
 10 12  1  0  0  0  0 
 12 13  2  0  0  0  0 
  5 13  1  0  0  0  0 
 13 14  1  0  0  0  0 
 14 15  1  0  0  0  0 
 14 16  1  0  0  0  0 
 14 17  1  0  0  0  0 
 17 18  1  0  0  0  0 
 17 19  1  0  0  0  0 
 17 20  1  0  0  0  0 
 20 21  2  0  0  0  0 
 21 22  1  0  0  0  0 
 22 23  1  0  0  0  0 
 22 24  1  0  0  0  0 
 22 25  1  0  0  0  0 
 25 26  1  0  0  0  0 
 25 27  1  0  0  0  0 
 25 28  1  0  0  0  0 
 28 29  1  6  0  0  0 
 29 30  1  0  0  0  0 
 29 31  1  0  0  0  0 
 29 32  1  0  0  0  0 
 28 33  1  0  0  0  0 
 33 21  1  6  0  0  0 
 33 34  1  0  0  0  0 
 34 35  1  0  0  0  0 
 34 36  1  0  0  0  0 
 34 37  1  0  0  0  0 
 33 38  1  0  0  0  0 
 38 39  1  0  0  0  0 
 38 40  1  0  0  0  0 
 38 41  1  0  0  0  0 
 41 42  1  0  0  0  0 
 41 43  1  0  0  0  0 
 41 44  1  0  0  0  0 
 20 44  1  0  0  0  0 
  5 44  1  0  0  0  0 
 44 45  1  1  0  0  0 
 28 46  1  1  0  0  0 
 46 47  1  0  0  0  0 
 12 48  1  0  0  0  0 
M  END
> <Rank>
30

> <Priority_score>
0.0024000000000000002

> <Reaction_type>
alkyl dehydrogenation

> <Parent_ID>
57

> <Parent_InChI>
InChI=1S/C20H27ClO2/c1-18-9-8-16(22)17(21)15(18)5-4-12-13(18)6-10-19(2)14(12)7-11-20(19,3)23/h8-9,12-14,23H,4-7,10-11H2,1-3H3

> <Parent_SMILES>
C[C@]12C=CC(=O)C(Cl)=C1CC[C@H]1[C@H]2CC[C@]2(C)[C@@H]1CC[C@]2(C)O

$$$$
Molecule 57_metabolite 31
  CDK     0516241031

 48 51  0  0  0  0  0  0  0  0999 V2000
    0.0779   -1.8082    0.0000 C   0  0  0  0  0  0  0  0  0  0  0  0
   -1.5034    0.0762    0.0000 H   0  0  0  0  0  0  0  0  0  0  0  0
    1.9384   -2.4854    0.0000 H   0  0  0  0  0  0  0  0  0  0  0  0
    0.8279   -0.5092    0.0000 H   0  0  0  0  0  0  0  0  0  0  0  0
   -0.1826   -3.2854    0.0000 C   0  0  2  0  0  0  0  0  0  0  0  0
   -1.4826   -2.5354    0.0000 C   0  0  0  0  0  0  0  0  0  0  0  0
   -1.4826   -1.0354    0.0000 H   0  0  0  0  0  0  0  0  0  0  0  0
   -2.7826   -3.2854    0.0000 C   0  0  0  0  0  0  0  0  0  0  0  0
   -4.0815   -2.5352    0.0000 H   0  0  0  0  0  0  0  0  0  0  0  0
   -2.7826   -4.7854    0.0000 C   0  0  0  0  0  0  0  0  0  0  0  0
   -4.0815   -5.5357    0.0000 O   0  0  0  0  0  0  0  0  0  0  0  0
   -1.4826   -5.5354    0.0000 C   0  0  0  0  0  0  0  0  0  0  0  0
   -0.1826   -4.7854    0.0000 C   0  0  0  0  0  0  0  0  0  0  0  0
    1.1174   -5.5354    0.0000 C   0  0  0  0  0  0  0  0  0  0  0  0
    0.1533   -6.6846    0.0000 H   0  0  0  0  0  0  0  0  0  0  0  0
    2.0814   -6.6846    0.0000 H   0  0  0  0  0  0  0  0  0  0  0  0
    2.4174   -4.7854    0.0000 C   0  0  0  0  0  0  0  0  0  0  0  0
    2.9301   -6.1951    0.0000 H   0  0  0  0  0  0  0  0  0  0  0  0
    0.9401   -4.5251    0.0000 H   0  0  0  0  0  0  0  0  0  0  0  0
    2.4174   -3.2854    0.0000 C   0  0  1  0  0  0  0  0  0  0  0  0
    3.7163   -4.0357    0.0000 H   0  0  0  0  0  0  0  0  0  0  0  0
    1.1174   -2.5354    0.0000 C   0  0  1  0  0  0  0  0  0  0  0  0
    2.4163   -1.7852    0.0000 H   0  0  0  0  0  0  0  0  0  0  0  0
    1.1174   -1.0354    0.0000 C   0  0  0  0  0  0  0  0  0  0  0  0
    0.6047    0.3742    0.0000 H   0  0  0  0  0  0  0  0  0  0  0  0
   -0.3599   -1.2958    0.0000 H   0  0  0  0  0  0  0  0  0  0  0  0
    2.4174   -0.2854    0.0000 C   0  0  0  0  0  0  0  0  0  0  0  0
    3.3814    0.8637    0.0000 H   0  0  0  0  0  0  0  0  0  0  0  0
    1.4533    0.8637    0.0000 H   0  0  0  0  0  0  0  0  0  0  0  0
    3.7174   -1.0354    0.0000 C   0  0  2  0  0  0  0  0  0  0  0  0
    3.8761    0.4561    0.0000 C   0  0  0  0  0  0  0  0  0  0  0  0
    1.4999    2.1873    0.0000 H   0  0  0  0  0  0  0  0  0  0  0  0
    4.5354    1.8035    0.0000 H   0  0  0  0  0  0  0  0  0  0  0  0
    5.3175    0.0408    0.0000 H   0  0  0  0  0  0  0  0  0  0  0  0
    3.7174   -2.5354    0.0000 C   0  0  0  0  0  0  0  0  0  0  0  0
    5.1474   -2.9954    0.0000 C   0  0  0  0  0  0  0  0  0  0  0  0
    5.6127   -4.4215    0.0000 H   0  0  0  0  0  0  0  0  0  0  0  0
    6.0274   -1.7854    0.0000 C   0  0  0  0  0  0  0  0  0  0  0  0
    7.1419   -2.7893    0.0000 H   0  0  0  0  0  0  0  0  0  0  0  0
    7.1419   -0.7816    0.0000 H   0  0  0  0  0  0  0  0  0  0  0  0
    5.1474   -0.5754    0.0000 C   0  0  1  0  0  0  0  0  0  0  0  0
    6.8628    0.4134    0.0000 C   0  0  0  0  0  0  0  0  0  0  0  0
    8.1613   -0.3374    0.0000 H   0  0  0  0  0  0  0  0  0  0  0  0
    7.8277    1.5619    0.0000 H   0  0  0  0  0  0  0  0  0  0  0  0
    5.8993    1.5631    0.0000 H   0  0  0  0  0  0  0  0  0  0  0  0
    3.9564    2.1125    0.0000 O   0  0  0  0  0  0  0  0  0  0  0  0
    4.8403    3.3245    0.0000 H   0  0  0  0  0  0  0  0  0  0  0  0
   -1.4826   -7.0354    0.0000 Cl  0  0  0  0  0  0  0  0  0  0  0  0
  1  2  1  0  0  0  0 
  1  3  1  0  0  0  0 
  1  4  1  0  0  0  0 
  1  5  1  0  0  0  0 
  5  6  1  6  0  0  0 
  6  7  1  0  0  0  0 
  6  8  2  0  0  0  0 
  8  9  1  0  0  0  0 
  8 10  1  0  0  0  0 
 10 11  2  0  0  0  0 
 10 12  1  0  0  0  0 
 12 13  2  0  0  0  0 
  5 13  1  0  0  0  0 
 13 14  1  0  0  0  0 
 14 15  1  0  0  0  0 
 14 16  1  0  0  0  0 
 14 17  1  0  0  0  0 
 17 18  1  0  0  0  0 
 17 19  1  0  0  0  0 
 17 20  1  0  0  0  0 
 20 21  1  6  0  0  0 
 20 22  1  0  0  0  0 
  5 22  1  0  0  0  0 
 22 23  1  1  0  0  0 
 22 24  1  0  0  0  0 
 24 25  1  0  0  0  0 
 24 26  1  0  0  0  0 
 24 27  1  0  0  0  0 
 27 28  1  0  0  0  0 
 27 29  1  0  0  0  0 
 27 30  1  0  0  0  0 
 30 31  1  0  0  0  0 
 31 32  1  0  0  0  0 
 31 33  1  0  0  0  0 
 31 34  1  0  0  0  0 
 30 35  1  6  0  0  0 
 20 35  1  0  0  0  0 
 35 36  2  0  0  0  0 
 36 37  1  0  0  0  0 
 36 38  1  0  0  0  0 
 38 39  1  0  0  0  0 
 38 40  1  0  0  0  0 
 38 41  1  0  0  0  0 
 30 41  1  0  0  0  0 
 41 42  1  6  0  0  0 
 42 43  1  0  0  0  0 
 42 44  1  0  0  0  0 
 42 45  1  0  0  0  0 
 41 46  1  1  0  0  0 
 46 47  1  0  0  0  0 
 12 48  1  0  0  0  0 
M  END
> <Rank>
31

> <Priority_score>
8.0E-4

> <Reaction_type>
alkyl dehydrogenation

> <Parent_ID>
57

> <Parent_InChI>
InChI=1S/C20H27ClO2/c1-18-9-8-16(22)17(21)15(18)5-4-12-13(18)6-10-19(2)14(12)7-11-20(19,3)23/h8-9,12-14,23H,4-7,10-11H2,1-3H3

> <Parent_SMILES>
C[C@]12C=CC(=O)C(Cl)=C1CC[C@H]1[C@H]2CC[C@]2(C)[C@@H]1CC[C@]2(C)O

$$$$
Molecule 57_metabolite 32
  CDK     0516241031

 51 54  0  0  0  0  0  0  0  0999 V2000
   -1.6363   -1.0586    0.0000 C   0  0  0  0  0  0  0  0  0  0  0  0
   -3.5208    0.5227    0.0000 H   0  0  0  0  0  0  0  0  0  0  0  0
    0.2242   -1.7358    0.0000 H   0  0  0  0  0  0  0  0  0  0  0  0
   -0.8863    0.2405    0.0000 H   0  0  0  0  0  0  0  0  0  0  0  0
   -1.8968   -2.5358    0.0000 C   0  0  2  0  0  0  0  0  0  0  0  0
   -3.1968   -1.7858    0.0000 C   0  0  0  0  0  0  0  0  0  0  0  0
   -3.1968   -0.2858    0.0000 H   0  0  0  0  0  0  0  0  0  0  0  0
   -4.4968   -2.5358    0.0000 C   0  0  0  0  0  0  0  0  0  0  0  0
   -5.7957   -1.7856    0.0000 H   0  0  0  0  0  0  0  0  0  0  0  0
   -4.4968   -4.0358    0.0000 C   0  0  0  0  0  0  0  0  0  0  0  0
   -5.7957   -4.7860    0.0000 O   0  0  0  0  0  0  0  0  0  0  0  0
   -3.1968   -4.7858    0.0000 C   0  0  0  0  0  0  0  0  0  0  0  0
   -1.8968   -4.0358    0.0000 C   0  0  0  0  0  0  0  0  0  0  0  0
   -0.5968   -4.7858    0.0000 C   0  0  0  0  0  0  0  0  0  0  0  0
   -1.5609   -5.9350    0.0000 H   0  0  0  0  0  0  0  0  0  0  0  0
    0.3672   -5.9350    0.0000 H   0  0  0  0  0  0  0  0  0  0  0  0
    0.7032   -4.0358    0.0000 C   0  0  0  0  0  0  0  0  0  0  0  0
    1.2159   -5.4454    0.0000 H   0  0  0  0  0  0  0  0  0  0  0  0
   -0.7741   -3.7755    0.0000 H   0  0  0  0  0  0  0  0  0  0  0  0
    0.7032   -2.5358    0.0000 C   0  0  1  0  0  0  0  0  0  0  0  0
    2.0021   -3.2860    0.0000 H   0  0  0  0  0  0  0  0  0  0  0  0
   -0.5968   -1.7858    0.0000 C   0  0  1  0  0  0  0  0  0  0  0  0
    0.7021   -1.0356    0.0000 H   0  0  0  0  0  0  0  0  0  0  0  0
   -0.5968   -0.2858    0.0000 C   0  0  0  0  0  0  0  0  0  0  0  0
   -1.1095    1.1239    0.0000 H   0  0  0  0  0  0  0  0  0  0  0  0
   -2.0741   -0.5461    0.0000 H   0  0  0  0  0  0  0  0  0  0  0  0
    0.7032    0.4642    0.0000 C   0  0  0  0  0  0  0  0  0  0  0  0
    1.6672    1.6134    0.0000 H   0  0  0  0  0  0  0  0  0  0  0  0
   -0.2609    1.6134    0.0000 H   0  0  0  0  0  0  0  0  0  0  0  0
    2.0032   -0.2858    0.0000 C   0  0  1  0  0  0  0  0  0  0  0  0
    2.2635    2.1604    0.0000 C   0  0  0  0  0  0  0  0  0  0  0  0
    1.0512    3.0437    0.0000 H   0  0  0  0  0  0  0  0  0  0  0  0
    3.5558    4.8012    0.0000 H   0  0  0  0  0  0  0  0  0  0  0  0
    3.7049    1.7451    0.0000 H   0  0  0  0  0  0  0  0  0  0  0  0
    3.4332    0.1742    0.0000 C   0  0  2  0  0  0  0  0  0  0  0  0
    5.5644    1.4028    0.0000 C   0  0  0  0  0  0  0  0  0  0  0  0
    6.8630    0.6519    0.0000 H   0  0  0  0  0  0  0  0  0  0  0  0
    6.5294    2.5512    0.0000 H   0  0  0  0  0  0  0  0  0  0  0  0
    4.6010    2.5525    0.0000 H   0  0  0  0  0  0  0  0  0  0  0  0
    4.3132   -1.0358    0.0000 C   0  0  0  0  0  0  0  0  0  0  0  0
    5.4277   -2.0397    0.0000 H   0  0  0  0  0  0  0  0  0  0  0  0
    5.4277   -0.0319    0.0000 H   0  0  0  0  0  0  0  0  0  0  0  0
    3.4332   -2.2458    0.0000 C   0  0  0  0  0  0  0  0  0  0  0  0
    2.2422   -4.9338    0.0000 H   0  0  0  0  0  0  0  0  0  0  0  0
    4.7327   -2.9949    0.0000 H   0  0  0  0  0  0  0  0  0  0  0  0
    2.0032   -1.7858    0.0000 C   0  0  2  0  0  0  0  0  0  0  0  0
    2.2635   -4.2320    0.0000 O   0  0  0  0  0  0  0  0  0  0  0  0
    3.6346   -4.8403    0.0000 H   0  0  0  0  0  0  0  0  0  0  0  0
    3.2334    3.1074    0.0000 O   0  0  0  0  0  0  0  0  0  0  0  0
    4.4784    3.9440    0.0000 H   0  0  0  0  0  0  0  0  0  0  0  0
   -3.1968   -6.2858    0.0000 Cl  0  0  0  0  0  0  0  0  0  0  0  0
  1  2  1  0  0  0  0 
  1  3  1  0  0  0  0 
  1  4  1  0  0  0  0 
  1  5  1  0  0  0  0 
  5  6  1  6  0  0  0 
  6  7  1  0  0  0  0 
  6  8  2  0  0  0  0 
  8  9  1  0  0  0  0 
  8 10  1  0  0  0  0 
 10 11  2  0  0  0  0 
 10 12  1  0  0  0  0 
 12 13  2  0  0  0  0 
  5 13  1  0  0  0  0 
 13 14  1  0  0  0  0 
 14 15  1  0  0  0  0 
 14 16  1  0  0  0  0 
 14 17  1  0  0  0  0 
 17 18  1  0  0  0  0 
 17 19  1  0  0  0  0 
 17 20  1  0  0  0  0 
 20 21  1  6  0  0  0 
 20 22  1  0  0  0  0 
  5 22  1  0  0  0  0 
 22 23  1  1  0  0  0 
 22 24  1  0  0  0  0 
 24 25  1  0  0  0  0 
 24 26  1  0  0  0  0 
 24 27  1  0  0  0  0 
 27 28  1  0  0  0  0 
 27 29  1  0  0  0  0 
 27 30  1  0  0  0  0 
 30 31  1  6  0  0  0 
 31 32  1  0  0  0  0 
 31 33  1  0  0  0  0 
 31 34  1  0  0  0  0 
 30 35  1  0  0  0  0 
 35 36  1  6  0  0  0 
 36 37  1  0  0  0  0 
 36 38  1  0  0  0  0 
 36 39  1  0  0  0  0 
 35 40  1  0  0  0  0 
 40 41  1  0  0  0  0 
 40 42  1  0  0  0  0 
 40 43  1  0  0  0  0 
 43 44  1  0  0  0  0 
 43 45  1  0  0  0  0 
 43 46  1  0  0  0  0 
 20 46  1  0  0  0  0 
 30 46  1  0  0  0  0 
 46 47  1  1  0  0  0 
 47 48  1  0  0  0  0 
 35 49  1  1  0  0  0 
 49 50  1  0  0  0  0 
 12 51  1  0  0  0  0 
M  END
> <Rank>
32

> <Priority_score>
0.0

> <Reaction_type>
aliphatic hydroxylation

> <Parent_ID>
57

> <Parent_InChI>
InChI=1S/C20H27ClO2/c1-18-9-8-16(22)17(21)15(18)5-4-12-13(18)6-10-19(2)14(12)7-11-20(19,3)23/h8-9,12-14,23H,4-7,10-11H2,1-3H3

> <Parent_SMILES>
C[C@]12C=CC(=O)C(Cl)=C1CC[C@H]1[C@H]2CC[C@]2(C)[C@@H]1CC[C@]2(C)O

$$$$
Molecule 58
  CDK     0516241031

 30 34  0  0  0  0  0  0  0  0999 V2000
   -4.6386   -6.8488    0.0000 C   0  0  0  0  0  0  0  0  0  0  0  0
   -3.5264   -5.8424    0.0000 C   0  0  0  0  0  0  0  0  0  0  0  0
   -3.6921   -4.3495    0.0000 N   0  0  0  0  0  0  0  0  0  0  0  0
   -2.3164   -3.7466    0.0000 N   0  0  0  0  0  0  0  0  0  0  0  0
   -2.0009   -2.2801    0.0000 C   0  0  0  0  0  0  0  0  0  0  0  0
   -0.5722   -1.8204    0.0000 C   0  0  0  0  0  0  0  0  0  0  0  0
   -0.2567   -0.3539    0.0000 C   0  0  0  0  0  0  0  0  0  0  0  0
   -1.3698    0.6527    0.0000 C   0  0  0  0  0  0  0  0  0  0  0  0
   -2.7985    0.1930    0.0000 C   0  0  0  0  0  0  0  0  0  0  0  0
   -3.1140   -1.2735    0.0000 C   0  0  0  0  0  0  0  0  0  0  0  0
   -1.3166   -4.8549    0.0000 C   0  0  0  0  0  0  0  0  0  0  0  0
   -2.0666   -6.1540    0.0000 C   0  0  0  0  0  0  0  0  0  0  0  0
    0.1751   -4.6975    0.0000 N   0  0  0  0  0  0  0  0  0  0  0  0
    1.0580   -5.9112    0.0000 C   0  0  0  0  0  0  0  0  0  0  0  0
    2.5506   -5.7543    0.0000 C   0  0  0  0  0  0  0  0  0  0  0  0
    3.1603   -4.3839    0.0000 N   0  0  0  0  0  0  0  0  0  0  0  0
    2.2774   -3.1702    0.0000 C   0  0  0  0  0  0  0  0  0  0  0  0
    0.7848   -3.3270    0.0000 C   0  0  0  0  0  0  0  0  0  0  0  0
    4.6520   -4.2264    0.0000 C   0  0  2  0  0  0  0  0  0  0  0  0
    5.6567   -5.3402    0.0000 C   0  0  0  0  0  0  0  0  0  0  0  0
    7.0192   -4.7307    0.0000 C   0  0  1  0  0  0  0  0  0  0  0  0
    8.3171   -5.4828    0.0000 C   0  0  0  0  0  0  0  0  0  0  0  0
    8.3147   -6.9828    0.0000 O   0  0  0  0  0  0  0  0  0  0  0  0
    9.6173   -4.7349    0.0000 N   0  0  0  0  0  0  0  0  0  0  0  0
   10.9869   -5.3466    0.0000 C   0  0  0  0  0  0  0  0  0  0  0  0
   11.9860   -4.2376    0.0000 C   0  0  0  0  0  0  0  0  0  0  0  0
   11.2441   -2.9315    0.0000 S   0  0  0  0  0  0  0  0  0  0  0  0
    9.7764   -3.2507    0.0000 C   0  0  0  0  0  0  0  0  0  0  0  0
    6.8697   -3.2361    0.0000 N   0  0  0  0  0  0  0  0  0  0  0  0
    5.3984   -2.9337    0.0000 C   0  0  0  0  0  0  0  0  0  0  0  0
  1  2  1  0  0  0  0 
  2  3  2  0  0  0  0 
  3  4  1  0  0  0  0 
  4  5  1  0  0  0  0 
  5  6  2  0  0  0  0 
  6  7  1  0  0  0  0 
  7  8  2  0  0  0  0 
  8  9  1  0  0  0  0 
  9 10  2  0  0  0  0 
  5 10  1  0  0  0  0 
  4 11  1  0  0  0  0 
 11 12  2  0  0  0  0 
  2 12  1  0  0  0  0 
 11 13  1  0  0  0  0 
 13 14  1  0  0  0  0 
 14 15  1  0  0  0  0 
 15 16  1  0  0  0  0 
 16 17  1  0  0  0  0 
 17 18  1  0  0  0  0 
 13 18  1  0  0  0  0 
 19 16  1  1  0  0  0 
 19 20  1  0  0  0  0 
 20 21  1  0  0  0  0 
 21 22  1  6  0  0  0 
 22 23  2  0  0  0  0 
 22 24  1  0  0  0  0 
 24 25  1  0  0  0  0 
 25 26  1  0  0  0  0 
 26 27  1  0  0  0  0 
 27 28  1  0  0  0  0 
 24 28  1  0  0  0  0 
 21 29  1  0  0  0  0 
 29 30  1  0  0  0  0 
 19 30  1  0  0  0  0 
M  END
> <SMILES>
Cc1cc(N2CCN([C@H]3CN[C@H](C(=O)N4CCSC4)C3)CC2)n(-c2ccccc2)n1

$$$$
Molecule 58_metabolite 1
  CDK     0516241031

 65 69  0  0  0  0  0  0  0  0999 V2000
   11.5839   -6.1790    0.0000 C   0  0  0  0  0  0  0  0  0  0  0  0
   12.8842   -5.4311    0.0000 H   0  0  0  0  0  0  0  0  0  0  0  0
   12.5463   -7.3296    0.0000 H   0  0  0  0  0  0  0  0  0  0  0  0
   10.6179   -7.3265    0.0000 H   0  0  0  0  0  0  0  0  0  0  0  0
   10.2861   -5.4269    0.0000 C   0  0  0  0  0  0  0  0  0  0  0  0
   10.1365   -3.9323    0.0000 N   0  0  0  0  0  0  0  0  0  0  0  0
    8.6652   -3.6299    0.0000 N   0  0  0  0  0  0  0  0  0  0  0  0
    8.2974   -2.1757    0.0000 C   0  0  0  0  0  0  0  0  0  0  0  0
    6.8532   -1.7673    0.0000 C   0  0  0  0  0  0  0  0  0  0  0  0
    5.7779   -2.8131    0.0000 H   0  0  0  0  0  0  0  0  0  0  0  0
    6.4854   -0.3131    0.0000 C   0  0  0  0  0  0  0  0  0  0  0  0
    5.0422    0.0957    0.0000 H   0  0  0  0  0  0  0  0  0  0  0  0
    7.5619    0.7327    0.0000 C   0  0  0  0  0  0  0  0  0  0  0  0
    7.1941    2.1869    0.0000 H   0  0  0  0  0  0  0  0  0  0  0  0
    9.0061    0.3244    0.0000 C   0  0  0  0  0  0  0  0  0  0  0  0
   10.0814    1.3702    0.0000 H   0  0  0  0  0  0  0  0  0  0  0  0
    9.3739   -1.1298    0.0000 C   0  0  0  0  0  0  0  0  0  0  0  0
   10.8171   -1.5387    0.0000 H   0  0  0  0  0  0  0  0  0  0  0  0
    7.9189   -4.9226    0.0000 C   0  0  0  0  0  0  0  0  0  0  0  0
    8.9236   -6.0364    0.0000 C   0  0  0  0  0  0  0  0  0  0  0  0
    8.6137   -7.5040    0.0000 H   0  0  0  0  0  0  0  0  0  0  0  0
    5.9498   -5.1304    0.0000 N   0  0  0  0  0  0  0  0  0  0  0  0
    5.3398   -6.5017    0.0000 C   0  0  0  0  0  0  0  0  0  0  0  0
    6.7954   -6.8638    0.0000 H   0  0  0  0  0  0  0  0  0  0  0  0
    5.2362   -7.9981    0.0000 H   0  0  0  0  0  0  0  0  0  0  0  0
    3.8473   -6.6599    0.0000 C   0  0  0  0  0  0  0  0  0  0  0  0
    4.2620   -8.1015    0.0000 H   0  0  0  0  0  0  0  0  0  0  0  0
    2.4996   -7.3184    0.0000 H   0  0  0  0  0  0  0  0  0  0  0  0
    2.9649   -5.4469    0.0000 N   0  0  0  0  0  0  0  0  0  0  0  0
    3.5750   -4.0757    0.0000 C   0  0  0  0  0  0  0  0  0  0  0  0
    2.1193   -3.7135    0.0000 H   0  0  0  0  0  0  0  0  0  0  0  0
    3.6785   -2.5793    0.0000 H   0  0  0  0  0  0  0  0  0  0  0  0
    5.0674   -3.9174    0.0000 C   0  0  0  0  0  0  0  0  0  0  0  0
    4.6528   -2.4759    0.0000 H   0  0  0  0  0  0  0  0  0  0  0  0
    6.4152   -3.2589    0.0000 H   0  0  0  0  0  0  0  0  0  0  0  0
    0.0412   -5.7555    0.0000 C   0  0  2  0  0  0  0  0  0  0  0  0
    0.0401   -4.2555    0.0000 H   0  0  0  0  0  0  0  0  0  0  0  0
   -1.4508   -5.6003    0.0000 C   0  0  0  0  0  0  0  0  0  0  0  0
   -1.1409   -4.1326    0.0000 H   0  0  0  0  0  0  0  0  0  0  0  0
   -2.8781   -5.1391    0.0000 H   0  0  0  0  0  0  0  0  0  0  0  0
   -2.0553   -6.9650    0.0000 C   0  0  1  0  0  0  0  0  0  0  0  0
   -3.3541   -6.2146    0.0000 H   0  0  0  0  0  0  0  0  0  0  0  0
   -2.9401   -8.1763    0.0000 C   0  0  0  0  0  0  0  0  0  0  0  0
   -2.3335   -9.5482    0.0000 O   0  0  0  0  0  0  0  0  0  0  0  0
   -4.9087   -7.9642    0.0000 N   0  0  0  0  0  0  0  0  0  0  0  0
   -5.6559   -6.6636    0.0000 C   0  0  0  0  0  0  0  0  0  0  0  0
   -4.2845   -6.0560    0.0000 H   0  0  0  0  0  0  0  0  0  0  0  0
   -6.1172   -5.2363    0.0000 H   0  0  0  0  0  0  0  0  0  0  0  0
   -7.1164   -6.9721    0.0000 C   0  0  0  0  0  0  0  0  0  0  0  0
   -7.2679   -5.4798    0.0000 H   0  0  0  0  0  0  0  0  0  0  0  0
   -8.6163   -6.9635    0.0000 H   0  0  0  0  0  0  0  0  0  0  0  0
   -7.2853   -8.4646    0.0000 S   0  0  0  0  0  0  0  0  0  0  0  0
   -5.9108   -9.0705    0.0000 C   0  0  0  0  0  0  0  0  0  0  0  0
   -6.6589  -10.3706    0.0000 H   0  0  0  0  0  0  0  0  0  0  0  0
   -4.6980   -9.9531    0.0000 H   0  0  0  0  0  0  0  0  0  0  0  0
   -0.9439   -7.9755    0.0000 N   0  0  0  0  0  0  0  0  0  0  0  0
    0.3517   -7.2155    0.0000 C   0  0  0  0  0  0  0  0  0  0  0  0
    0.9682   -8.5830    0.0000 H   0  0  0  0  0  0  0  0  0  0  0  0
    1.7772   -6.7486    0.0000 H   0  0  0  0  0  0  0  0  0  0  0  0
   -1.1488   -9.9449    0.0000 C   0  0  0  0  0  0  0  0  0  0  0  0
   -2.5185  -10.5564    0.0000 O   0  0  0  0  0  0  0  0  0  0  0  0
    0.0656  -10.8253    0.0000 C   0  0  0  0  0  0  0  0  0  0  0  0
    1.4353  -10.2138    0.0000 H   0  0  0  0  0  0  0  0  0  0  0  0
   -1.0123  -11.8684    0.0000 H   0  0  0  0  0  0  0  0  0  0  0  0
    0.9057  -12.0680    0.0000 H   0  0  0  0  0  0  0  0  0  0  0  0
  1  2  1  0  0  0  0 
  1  3  1  0  0  0  0 
  1  4  1  0  0  0  0 
  1  5  1  0  0  0  0 
  5  6  2  0  0  0  0 
  6  7  1  0  0  0  0 
  7  8  1  0  0  0  0 
  8  9  2  0  0  0  0 
  9 10  1  0  0  0  0 
  9 11  1  0  0  0  0 
 11 12  1  0  0  0  0 
 11 13  2  0  0  0  0 
 13 14  1  0  0  0  0 
 13 15  1  0  0  0  0 
 15 16  1  0  0  0  0 
 15 17  2  0  0  0  0 
  8 17  1  0  0  0  0 
 17 18  1  0  0  0  0 
  7 19  1  0  0  0  0 
 19 20  2  0  0  0  0 
  5 20  1  0  0  0  0 
 20 21  1  0  0  0  0 
 19 22  1  0  0  0  0 
 22 23  1  0  0  0  0 
 23 24  1  0  0  0  0 
 23 25  1  0  0  0  0 
 23 26  1  0  0  0  0 
 26 27  1  0  0  0  0 
 26 28  1  0  0  0  0 
 26 29  1  0  0  0  0 
 29 30  1  0  0  0  0 
 30 31  1  0  0  0  0 
 30 32  1  0  0  0  0 
 30 33  1  0  0  0  0 
 22 33  1  0  0  0  0 
 33 34  1  0  0  0  0 
 33 35  1  0  0  0  0 
 36 29  1  1  0  0  0 
 36 37  1  6  0  0  0 
 36 38  1  0  0  0  0 
 38 39  1  0  0  0  0 
 38 40  1  0  0  0  0 
 38 41  1  0  0  0  0 
 41 42  1  1  0  0  0 
 41 43  1  6  0  0  0 
 43 44  2  0  0  0  0 
 43 45  1  0  0  0  0 
 45 46  1  0  0  0  0 
 46 47  1  0  0  0  0 
 46 48  1  0  0  0  0 
 46 49  1  0  0  0  0 
 49 50  1  0  0  0  0 
 49 51  1  0  0  0  0 
 49 52  1  0  0  0  0 
 52 53  1  0  0  0  0 
 45 53  1  0  0  0  0 
 53 54  1  0  0  0  0 
 53 55  1  0  0  0  0 
 41 56  1  0  0  0  0 
 56 57  1  0  0  0  0 
 36 57  1  0  0  0  0 
 57 58  1  0  0  0  0 
 57 59  1  0  0  0  0 
 56 60  1  0  0  0  0 
 60 61  2  0  0  0  0 
 60 62  1  0  0  0  0 
 62 63  1  0  0  0  0 
 62 64  1  0  0  0  0 
 62 65  1  0  0  0  0 
M  END
> <Rank>
1

> <Priority_score>
0.648

> <Reaction_type>
N-acetylation_(NH1)

> <Parent_ID>
58

> <Parent_InChI>
InChI=1S/C22H30N6OS/c1-17-13-21(28(24-17)18-5-3-2-4-6-18)26-9-7-25(8-10-26)19-14-20(23-15-19)22(29)27-11-12-30-16-27/h2-6,13,19-20,23H,7-12,14-16H2,1H3

> <Parent_SMILES>
Cc1cc(N2CCN([C@H]3CN[C@H](C(=O)N4CCSC4)C3)CC2)n(-c2ccccc2)n1

$$$$
Molecule 58_metabolite 2
  CDK     0516241031

 80 85  0  0  0  0  0  0  0  0999 V2000
   13.8411   -4.9332    0.0000 C   0  0  0  0  0  0  0  0  0  0  0  0
   15.1413   -4.1853    0.0000 H   0  0  0  0  0  0  0  0  0  0  0  0
   14.8034   -6.0838    0.0000 H   0  0  0  0  0  0  0  0  0  0  0  0
   12.8750   -6.0807    0.0000 H   0  0  0  0  0  0  0  0  0  0  0  0
   12.5432   -4.1811    0.0000 C   0  0  0  0  0  0  0  0  0  0  0  0
   12.3937   -2.6865    0.0000 N   0  0  0  0  0  0  0  0  0  0  0  0
   10.9223   -2.3841    0.0000 N   0  0  0  0  0  0  0  0  0  0  0  0
   10.5545   -0.9299    0.0000 C   0  0  0  0  0  0  0  0  0  0  0  0
    9.1103   -0.5216    0.0000 C   0  0  0  0  0  0  0  0  0  0  0  0
    8.0350   -1.5674    0.0000 H   0  0  0  0  0  0  0  0  0  0  0  0
    8.7425    0.9326    0.0000 C   0  0  0  0  0  0  0  0  0  0  0  0
    7.2993    1.3415    0.0000 H   0  0  0  0  0  0  0  0  0  0  0  0
    9.8190    1.9785    0.0000 C   0  0  0  0  0  0  0  0  0  0  0  0
    9.4512    3.4327    0.0000 H   0  0  0  0  0  0  0  0  0  0  0  0
   11.2632    1.5701    0.0000 C   0  0  0  0  0  0  0  0  0  0  0  0
   12.3385    2.6159    0.0000 H   0  0  0  0  0  0  0  0  0  0  0  0
   11.6310    0.1159    0.0000 C   0  0  0  0  0  0  0  0  0  0  0  0
   13.0742   -0.2929    0.0000 H   0  0  0  0  0  0  0  0  0  0  0  0
   10.1760   -3.6768    0.0000 C   0  0  0  0  0  0  0  0  0  0  0  0
   11.1807   -4.7906    0.0000 C   0  0  0  0  0  0  0  0  0  0  0  0
   10.8708   -6.2583    0.0000 H   0  0  0  0  0  0  0  0  0  0  0  0
    8.2070   -3.8846    0.0000 N   0  0  0  0  0  0  0  0  0  0  0  0
    7.5969   -5.2559    0.0000 C   0  0  0  0  0  0  0  0  0  0  0  0
    9.0525   -5.6181    0.0000 H   0  0  0  0  0  0  0  0  0  0  0  0
    7.4933   -6.7523    0.0000 H   0  0  0  0  0  0  0  0  0  0  0  0
    6.1044   -5.4141    0.0000 C   0  0  0  0  0  0  0  0  0  0  0  0
    6.5191   -6.8557    0.0000 H   0  0  0  0  0  0  0  0  0  0  0  0
    4.7567   -6.0727    0.0000 H   0  0  0  0  0  0  0  0  0  0  0  0
    5.2220   -4.2012    0.0000 N   0  0  0  0  0  0  0  0  0  0  0  0
    5.8321   -2.8299    0.0000 C   0  0  0  0  0  0  0  0  0  0  0  0
    4.3765   -2.4677    0.0000 H   0  0  0  0  0  0  0  0  0  0  0  0
    5.9357   -1.3335    0.0000 H   0  0  0  0  0  0  0  0  0  0  0  0
    7.3245   -2.6716    0.0000 C   0  0  0  0  0  0  0  0  0  0  0  0
    6.9099   -1.2301    0.0000 H   0  0  0  0  0  0  0  0  0  0  0  0
    8.6723   -2.0131    0.0000 H   0  0  0  0  0  0  0  0  0  0  0  0
    2.2983   -4.5098    0.0000 C   0  0  2  0  0  0  0  0  0  0  0  0
    2.2972   -3.0098    0.0000 H   0  0  0  0  0  0  0  0  0  0  0  0
    0.8063   -4.3545    0.0000 C   0  0  0  0  0  0  0  0  0  0  0  0
    1.1162   -2.8869    0.0000 H   0  0  0  0  0  0  0  0  0  0  0  0
   -0.6210   -3.8933    0.0000 H   0  0  0  0  0  0  0  0  0  0  0  0
    0.2018   -5.7193    0.0000 C   0  0  1  0  0  0  0  0  0  0  0  0
   -1.0970   -4.9688    0.0000 H   0  0  0  0  0  0  0  0  0  0  0  0
   -0.6830   -6.9305    0.0000 C   0  0  0  0  0  0  0  0  0  0  0  0
   -0.0764   -8.3024    0.0000 O   0  0  0  0  0  0  0  0  0  0  0  0
   -2.6516   -6.7185    0.0000 N   0  0  0  0  0  0  0  0  0  0  0  0
   -3.3988   -5.4178    0.0000 C   0  0  0  0  0  0  0  0  0  0  0  0
   -2.0274   -4.8102    0.0000 H   0  0  0  0  0  0  0  0  0  0  0  0
   -3.8601   -3.9905    0.0000 H   0  0  0  0  0  0  0  0  0  0  0  0
   -4.8592   -5.7263    0.0000 C   0  0  0  0  0  0  0  0  0  0  0  0
   -5.0108   -4.2340    0.0000 H   0  0  0  0  0  0  0  0  0  0  0  0
   -6.3592   -5.7177    0.0000 H   0  0  0  0  0  0  0  0  0  0  0  0
   -5.0282   -7.2188    0.0000 S   0  0  0  0  0  0  0  0  0  0  0  0
   -3.6537   -7.8247    0.0000 C   0  0  0  0  0  0  0  0  0  0  0  0
   -4.4018   -9.1248    0.0000 H   0  0  0  0  0  0  0  0  0  0  0  0
   -2.4409   -8.7073    0.0000 H   0  0  0  0  0  0  0  0  0  0  0  0
    1.3132   -6.7297    0.0000 N   0  0  0  0  0  0  0  0  0  0  0  0
    2.6088   -5.9697    0.0000 C   0  0  0  0  0  0  0  0  0  0  0  0
    3.2253   -7.3372    0.0000 H   0  0  0  0  0  0  0  0  0  0  0  0
    4.0343   -5.5028    0.0000 H   0  0  0  0  0  0  0  0  0  0  0  0
    1.0089   -9.6539    0.0000 C   0  0  0  0  0  0  0  0  0  0  0  0
   -0.4335   -9.2421    0.0000 H   0  0  0  0  0  0  0  0  0  0  0  0
    0.3530  -11.0029    0.0000 C   0  0  0  0  0  0  0  0  0  0  0  0
   -0.8617  -10.1229    0.0000 H   0  0  0  0  0  0  0  0  0  0  0  0
    1.1942  -12.2459    0.0000 C   0  0  0  0  0  0  0  0  0  0  0  0
   -0.1753  -12.8578    0.0000 H   0  0  0  0  0  0  0  0  0  0  0  0
    2.6913  -12.1398    0.0000 C   0  0  0  0  0  0  0  0  0  0  0  0
    2.5360  -13.6317    0.0000 H   0  0  0  0  0  0  0  0  0  0  0  0
    3.3472  -10.7908    0.0000 C   0  0  0  0  0  0  0  0  0  0  0  0
    4.5619  -11.6708    0.0000 H   0  0  0  0  0  0  0  0  0  0  0  0
    4.4247   -9.7472    0.0000 C   0  0  0  0  0  0  0  0  0  0  0  0
    4.0597   -8.2923    0.0000 O   0  0  0  0  0  0  0  0  0  0  0  0
    5.8672  -10.1586    0.0000 O   0  0  0  0  0  0  0  0  0  0  0  0
    6.2322  -11.6135    0.0000 H   0  0  0  0  0  0  0  0  0  0  0  0
    2.5060   -9.5479    0.0000 O   0  0  0  0  0  0  0  0  0  0  0  0
    4.1337  -12.5516    0.0000 O   0  0  0  0  0  0  0  0  0  0  0  0
    4.4982  -14.0066    0.0000 H   0  0  0  0  0  0  0  0  0  0  0  0
    1.5588  -13.7009    0.0000 O   0  0  0  0  0  0  0  0  0  0  0  0
    0.4809  -14.7441    0.0000 H   0  0  0  0  0  0  0  0  0  0  0  0
   -0.7245  -12.0465    0.0000 O   0  0  0  0  0  0  0  0  0  0  0  0
   -2.1670  -11.6351    0.0000 H   0  0  0  0  0  0  0  0  0  0  0  0
  1  2  1  0  0  0  0 
  1  3  1  0  0  0  0 
  1  4  1  0  0  0  0 
  1  5  1  0  0  0  0 
  5  6  2  0  0  0  0 
  6  7  1  0  0  0  0 
  7  8  1  0  0  0  0 
  8  9  2  0  0  0  0 
  9 10  1  0  0  0  0 
  9 11  1  0  0  0  0 
 11 12  1  0  0  0  0 
 11 13  2  0  0  0  0 
 13 14  1  0  0  0  0 
 13 15  1  0  0  0  0 
 15 16  1  0  0  0  0 
 15 17  2  0  0  0  0 
  8 17  1  0  0  0  0 
 17 18  1  0  0  0  0 
  7 19  1  0  0  0  0 
 19 20  2  0  0  0  0 
  5 20  1  0  0  0  0 
 20 21  1  0  0  0  0 
 19 22  1  0  0  0  0 
 22 23  1  0  0  0  0 
 23 24  1  0  0  0  0 
 23 25  1  0  0  0  0 
 23 26  1  0  0  0  0 
 26 27  1  0  0  0  0 
 26 28  1  0  0  0  0 
 26 29  1  0  0  0  0 
 29 30  1  0  0  0  0 
 30 31  1  0  0  0  0 
 30 32  1  0  0  0  0 
 30 33  1  0  0  0  0 
 22 33  1  0  0  0  0 
 33 34  1  0  0  0  0 
 33 35  1  0  0  0  0 
 36 29  1  1  0  0  0 
 36 37  1  6  0  0  0 
 36 38  1  0  0  0  0 
 38 39  1  0  0  0  0 
 38 40  1  0  0  0  0 
 38 41  1  0  0  0  0 
 41 42  1  1  0  0  0 
 41 43  1  6  0  0  0 
 43 44  2  0  0  0  0 
 43 45  1  0  0  0  0 
 45 46  1  0  0  0  0 
 46 47  1  0  0  0  0 
 46 48  1  0  0  0  0 
 46 49  1  0  0  0  0 
 49 50  1  0  0  0  0 
 49 51  1  0  0  0  0 
 49 52  1  0  0  0  0 
 52 53  1  0  0  0  0 
 45 53  1  0  0  0  0 
 53 54  1  0  0  0  0 
 53 55  1  0  0  0  0 
 41 56  1  0  0  0  0 
 56 57  1  0  0  0  0 
 36 57  1  0  0  0  0 
 57 58  1  0  0  0  0 
 57 59  1  0  0  0  0 
 56 60  1  0  0  0  0 
 60 61  1  0  0  0  0 
 60 62  1  0  0  0  0 
 62 63  1  0  0  0  0 
 62 64  1  0  0  0  0 
 64 65  1  0  0  0  0 
 64 66  1  0  0  0  0 
 66 67  1  0  0  0  0 
 66 68  1  0  0  0  0 
 68 69  1  0  0  0  0 
 68 70  1  0  0  0  0 
 70 71  2  0  0  0  0 
 70 72  1  0  0  0  0 
 72 73  1  0  0  0  0 
 68 74  1  0  0  0  0 
 60 74  1  0  0  0  0 
 66 75  1  0  0  0  0 
 75 76  1  0  0  0  0 
 64 77  1  0  0  0  0 
 77 78  1  0  0  0  0 
 62 79  1  0  0  0  0 
 79 80  1  0  0  0  0 
M  END
> <Rank>
2

> <Priority_score>
0.46

> <Reaction_type>
N-glucuronidation_(NH_in_a_ring)

> <Parent_ID>
58

> <Parent_InChI>
InChI=1S/C22H30N6OS/c1-17-13-21(28(24-17)18-5-3-2-4-6-18)26-9-7-25(8-10-26)19-14-20(23-15-19)22(29)27-11-12-30-16-27/h2-6,13,19-20,23H,7-12,14-16H2,1H3

> <Parent_SMILES>
Cc1cc(N2CCN([C@H]3CN[C@H](C(=O)N4CCSC4)C3)CC2)n(-c2ccccc2)n1

$$$$
Molecule 58_metabolite 3
  CDK     0516241031

 61 65  0  0  0  0  0  0  0  0999 V2000
    8.2979   -4.5872    0.0000 C   0  0  0  0  0  0  0  0  0  0  0  0
    9.7256   -5.0472    0.0000 H   0  0  0  0  0  0  0  0  0  0  0  0
    8.9988   -3.2610    0.0000 H   0  0  0  0  0  0  0  0  0  0  0  0
    7.1135   -3.6666    0.0000 H   0  0  0  0  0  0  0  0  0  0  0  0
    7.1856   -5.5936    0.0000 C   0  0  0  0  0  0  0  0  0  0  0  0
    7.3514   -7.0865    0.0000 N   0  0  0  0  0  0  0  0  0  0  0  0
    5.9756   -7.6894    0.0000 N   0  0  0  0  0  0  0  0  0  0  0  0
    5.5592   -9.6251    0.0000 C   0  0  0  0  0  0  0  0  0  0  0  0
    4.1305  -10.0849    0.0000 C   0  0  0  0  0  0  0  0  0  0  0  0
    3.0184   -9.0783    0.0000 H   0  0  0  0  0  0  0  0  0  0  0  0
    3.8150  -11.5513    0.0000 C   0  0  0  0  0  0  0  0  0  0  0  0
    2.3873  -12.0115    0.0000 H   0  0  0  0  0  0  0  0  0  0  0  0
    4.9281  -12.5580    0.0000 C   0  0  0  0  0  0  0  0  0  0  0  0
    4.6126  -14.0245    0.0000 H   0  0  0  0  0  0  0  0  0  0  0  0
    6.3568  -12.0982    0.0000 C   0  0  0  0  0  0  0  0  0  0  0  0
    7.4689  -13.1049    0.0000 H   0  0  0  0  0  0  0  0  0  0  0  0
    6.6723  -10.6318    0.0000 C   0  0  0  0  0  0  0  0  0  0  0  0
    8.1000  -10.1716    0.0000 H   0  0  0  0  0  0  0  0  0  0  0  0
    4.9759   -6.5811    0.0000 C   0  0  0  0  0  0  0  0  0  0  0  0
    5.7259   -5.2820    0.0000 C   0  0  0  0  0  0  0  0  0  0  0  0
    5.1164   -3.9114    0.0000 H   0  0  0  0  0  0  0  0  0  0  0  0
    3.0068   -6.7889    0.0000 N   0  0  0  0  0  0  0  0  0  0  0  0
    2.3974   -8.1604    0.0000 C   0  0  0  0  0  0  0  0  0  0  0  0
    2.2936   -9.6568    0.0000 H   0  0  0  0  0  0  0  0  0  0  0  0
    3.8531   -8.5224    0.0000 H   0  0  0  0  0  0  0  0  0  0  0  0
    0.9057   -8.3179    0.0000 C   0  0  0  0  0  0  0  0  0  0  0  0
   -0.4423   -8.9758    0.0000 H   0  0  0  0  0  0  0  0  0  0  0  0
    1.3197   -9.7596    0.0000 H   0  0  0  0  0  0  0  0  0  0  0  0
    0.0234   -7.1038    0.0000 N   0  0  0  0  0  0  0  0  0  0  0  0
    0.6328   -5.7323    0.0000 C   0  0  0  0  0  0  0  0  0  0  0  0
    0.7366   -4.2359    0.0000 H   0  0  0  0  0  0  0  0  0  0  0  0
   -0.8229   -5.3703    0.0000 H   0  0  0  0  0  0  0  0  0  0  0  0
    2.1245   -5.5748    0.0000 C   0  0  0  0  0  0  0  0  0  0  0  0
    3.4726   -4.9169    0.0000 H   0  0  0  0  0  0  0  0  0  0  0  0
    1.7106   -4.1330    0.0000 H   0  0  0  0  0  0  0  0  0  0  0  0
   -2.0168   -5.7293    0.0000 C   0  0  2  0  0  0  0  0  0  0  0  0
   -1.0536   -4.5794    0.0000 H   0  0  0  0  0  0  0  0  0  0  0  0
   -3.0600   -4.6515    0.0000 C   0  0  0  0  0  0  0  0  0  0  0  0
   -1.8793   -3.7263    0.0000 H   0  0  0  0  0  0  0  0  0  0  0  0
   -3.8571   -3.3808    0.0000 H   0  0  0  0  0  0  0  0  0  0  0  0
   -4.4003   -5.3085    0.0000 C   0  0  1  0  0  0  0  0  0  0  0  0
   -4.9130   -3.8989    0.0000 H   0  0  0  0  0  0  0  0  0  0  0  0
   -5.8566   -5.6678    0.0000 C   0  0  0  0  0  0  0  0  0  0  0  0
   -6.2736   -7.1087    0.0000 O   0  0  0  0  0  0  0  0  0  0  0  0
   -7.2285   -4.2401    0.0000 N   0  0  0  0  0  0  0  0  0  0  0  0
   -6.9650   -2.7634    0.0000 C   0  0  0  0  0  0  0  0  0  0  0  0
   -5.5238   -3.1794    0.0000 H   0  0  0  0  0  0  0  0  0  0  0  0
   -6.4011   -1.3735    0.0000 H   0  0  0  0  0  0  0  0  0  0  0  0
   -8.2821   -2.0612    0.0000 C   0  0  0  0  0  0  0  0  0  0  0  0
   -7.4391   -0.8205    0.0000 H   0  0  0  0  0  0  0  0  0  0  0  0
   -9.4257   -1.0905    0.0000 H   0  0  0  0  0  0  0  0  0  0  0  0
   -9.3708   -3.0960    0.0000 S   0  0  0  0  0  0  0  0  0  0  0  0
   -8.7072   -4.4435    0.0000 C   0  0  0  0  0  0  0  0  0  0  0  0
  -10.1159   -4.9588    0.0000 H   0  0  0  0  0  0  0  0  0  0  0  0
   -8.3453   -5.8992    0.0000 H   0  0  0  0  0  0  0  0  0  0  0  0
   -4.1982   -6.7969    0.0000 N   0  0  0  0  0  0  0  0  0  0  0  0
   -5.2761   -7.8402    0.0000 H   0  0  0  0  0  0  0  0  0  0  0  0
   -2.7172   -7.0474    0.0000 C   0  0  0  0  0  0  0  0  0  0  0  0
   -3.1238   -8.4913    0.0000 H   0  0  0  0  0  0  0  0  0  0  0  0
   -1.3250   -7.6058    0.0000 H   0  0  0  0  0  0  0  0  0  0  0  0
   -1.6849   -8.8739    0.0000 O   0  0  0  0  0  0  0  0  0  0  0  0
  1  2  1  0  0  0  0 
  1  3  1  0  0  0  0 
  1  4  1  0  0  0  0 
  1  5  1  0  0  0  0 
  5  6  2  0  0  0  0 
  6  7  1  0  0  0  0 
  7  8  1  0  0  0  0 
  8  9  2  0  0  0  0 
  9 10  1  0  0  0  0 
  9 11  1  0  0  0  0 
 11 12  1  0  0  0  0 
 11 13  2  0  0  0  0 
 13 14  1  0  0  0  0 
 13 15  1  0  0  0  0 
 15 16  1  0  0  0  0 
 15 17  2  0  0  0  0 
  8 17  1  0  0  0  0 
 17 18  1  0  0  0  0 
  7 19  1  0  0  0  0 
 19 20  2  0  0  0  0 
  5 20  1  0  0  0  0 
 20 21  1  0  0  0  0 
 19 22  1  0  0  0  0 
 22 23  1  0  0  0  0 
 23 24  1  0  0  0  0 
 23 25  1  0  0  0  0 
 23 26  1  0  0  0  0 
 26 27  1  0  0  0  0 
 26 28  1  0  0  0  0 
 26 29  1  0  0  0  0 
 29 30  1  0  0  0  0 
 30 31  1  0  0  0  0 
 30 32  1  0  0  0  0 
 30 33  1  0  0  0  0 
 22 33  1  0  0  0  0 
 33 34  1  0  0  0  0 
 33 35  1  0  0  0  0 
 36 29  1  1  0  0  0 
 36 37  1  6  0  0  0 
 36 38  1  0  0  0  0 
 38 39  1  0  0  0  0 
 38 40  1  0  0  0  0 
 38 41  1  0  0  0  0 
 41 42  1  1  0  0  0 
 41 43  1  6  0  0  0 
 43 44  2  0  0  0  0 
 43 45  1  0  0  0  0 
 45 46  1  0  0  0  0 
 46 47  1  0  0  0  0 
 46 48  1  0  0  0  0 
 46 49  1  0  0  0  0 
 49 50  1  0  0  0  0 
 49 51  1  0  0  0  0 
 49 52  1  0  0  0  0 
 52 53  1  0  0  0  0 
 45 53  1  0  0  0  0 
 53 54  1  0  0  0  0 
 53 55  1  0  0  0  0 
 41 56  1  0  0  0  0 
 56 57  1  0  0  0  0 
 56 58  1  0  0  0  0 
 36 58  1  0  0  0  0 
 58 59  1  0  0  0  0 
 58 60  1  0  0  0  0 
 29 61  1  0  0  0  0 
M  CHG  1  29   1
M  CHG  1  61  -1
M  END
> <Rank>
3

> <Priority_score>
0.4146791444270842

> <Reaction_type>
N-oxidation_(tertiary_N)

> <Parent_ID>
58

> <Parent_InChI>
InChI=1S/C22H30N6OS/c1-17-13-21(28(24-17)18-5-3-2-4-6-18)26-9-7-25(8-10-26)19-14-20(23-15-19)22(29)27-11-12-30-16-27/h2-6,13,19-20,23H,7-12,14-16H2,1H3

> <Parent_SMILES>
Cc1cc(N2CCN([C@H]3CN[C@H](C(=O)N4CCSC4)C3)CC2)n(-c2ccccc2)n1

$$$$
Molecule 58_metabolite 4
  CDK     0516241031

 36 38  0  0  0  0  0  0  0  0999 V2000
    5.0103    1.4158    0.0000 C   0  0  0  0  0  0  0  0  0  0  0  0
    6.4380    0.9559    0.0000 H   0  0  0  0  0  0  0  0  0  0  0  0
    5.7112    2.7420    0.0000 H   0  0  0  0  0  0  0  0  0  0  0  0
    3.8260    2.3364    0.0000 H   0  0  0  0  0  0  0  0  0  0  0  0
    3.8981    0.4094    0.0000 C   0  0  0  0  0  0  0  0  0  0  0  0
    4.0638   -1.0835    0.0000 N   0  0  0  0  0  0  0  0  0  0  0  0
    2.6881   -1.6864    0.0000 N   0  0  0  0  0  0  0  0  0  0  0  0
    2.2716   -3.6221    0.0000 C   0  0  0  0  0  0  0  0  0  0  0  0
    0.8429   -4.0819    0.0000 C   0  0  0  0  0  0  0  0  0  0  0  0
   -0.2691   -3.0752    0.0000 H   0  0  0  0  0  0  0  0  0  0  0  0
    0.5274   -5.5483    0.0000 C   0  0  0  0  0  0  0  0  0  0  0  0
   -0.9003   -6.0085    0.0000 H   0  0  0  0  0  0  0  0  0  0  0  0
    1.6406   -6.5550    0.0000 C   0  0  0  0  0  0  0  0  0  0  0  0
    1.3250   -8.0214    0.0000 H   0  0  0  0  0  0  0  0  0  0  0  0
    3.0692   -6.0952    0.0000 C   0  0  0  0  0  0  0  0  0  0  0  0
    4.1813   -7.1019    0.0000 H   0  0  0  0  0  0  0  0  0  0  0  0
    3.3848   -4.6288    0.0000 C   0  0  0  0  0  0  0  0  0  0  0  0
    4.8124   -4.1686    0.0000 H   0  0  0  0  0  0  0  0  0  0  0  0
    1.6883   -0.5780    0.0000 C   0  0  0  0  0  0  0  0  0  0  0  0
    2.4383    0.7210    0.0000 C   0  0  0  0  0  0  0  0  0  0  0  0
    1.8288    2.0916    0.0000 H   0  0  0  0  0  0  0  0  0  0  0  0
   -0.2807   -0.7859    0.0000 N   0  0  0  0  0  0  0  0  0  0  0  0
   -0.8901   -2.1574    0.0000 C   0  0  0  0  0  0  0  0  0  0  0  0
   -0.9939   -3.6538    0.0000 H   0  0  0  0  0  0  0  0  0  0  0  0
    0.5656   -2.5193    0.0000 H   0  0  0  0  0  0  0  0  0  0  0  0
   -2.3818   -2.3149    0.0000 C   0  0  0  0  0  0  0  0  0  0  0  0
   -3.7299   -2.9727    0.0000 H   0  0  0  0  0  0  0  0  0  0  0  0
   -1.9679   -3.7566    0.0000 H   0  0  0  0  0  0  0  0  0  0  0  0
   -3.2642   -1.1008    0.0000 N   0  0  0  0  0  0  0  0  0  0  0  0
   -4.7559   -1.2582    0.0000 H   0  0  0  0  0  0  0  0  0  0  0  0
   -2.6548    0.2708    0.0000 C   0  0  0  0  0  0  0  0  0  0  0  0
   -2.5509    1.7672    0.0000 H   0  0  0  0  0  0  0  0  0  0  0  0
   -4.1104    0.6327    0.0000 H   0  0  0  0  0  0  0  0  0  0  0  0
   -1.1630    0.4282    0.0000 C   0  0  0  0  0  0  0  0  0  0  0  0
    0.1850    1.0861    0.0000 H   0  0  0  0  0  0  0  0  0  0  0  0
   -1.5770    1.8700    0.0000 H   0  0  0  0  0  0  0  0  0  0  0  0
  1  2  1  0  0  0  0 
  1  3  1  0  0  0  0 
  1  4  1  0  0  0  0 
  1  5  1  0  0  0  0 
  5  6  2  0  0  0  0 
  6  7  1  0  0  0  0 
  7  8  1  0  0  0  0 
  8  9  2  0  0  0  0 
  9 10  1  0  0  0  0 
  9 11  1  0  0  0  0 
 11 12  1  0  0  0  0 
 11 13  2  0  0  0  0 
 13 14  1  0  0  0  0 
 13 15  1  0  0  0  0 
 15 16  1  0  0  0  0 
 15 17  2  0  0  0  0 
  8 17  1  0  0  0  0 
 17 18  1  0  0  0  0 
  7 19  1  0  0  0  0 
 19 20  2  0  0  0  0 
  5 20  1  0  0  0  0 
 20 21  1  0  0  0  0 
 19 22  1  0  0  0  0 
 22 23  1  0  0  0  0 
 23 24  1  0  0  0  0 
 23 25  1  0  0  0  0 
 23 26  1  0  0  0  0 
 26 27  1  0  0  0  0 
 26 28  1  0  0  0  0 
 26 29  1  0  0  0  0 
 29 30  1  0  0  0  0 
 29 31  1  0  0  0  0 
 31 32  1  0  0  0  0 
 31 33  1  0  0  0  0 
 31 34  1  0  0  0  0 
 22 34  1  0  0  0  0 
 34 35  1  0  0  0  0 
 34 36  1  0  0  0  0 
M  END
> <Rank>
3

> <Priority_score>
0.4146791444270842

> <Reaction_type>
N-dealkylation

> <Parent_ID>
58

> <Parent_InChI>
InChI=1S/C22H30N6OS/c1-17-13-21(28(24-17)18-5-3-2-4-6-18)26-9-7-25(8-10-26)19-14-20(23-15-19)22(29)27-11-12-30-16-27/h2-6,13,19-20,23H,7-12,14-16H2,1H3

> <Parent_SMILES>
Cc1cc(N2CCN([C@H]3CN[C@H](C(=O)N4CCSC4)C3)CC2)n(-c2ccccc2)n1

$$$$
Molecule 58_metabolite 5
  CDK     0516241031

 61 65  0  0  0  0  0  0  0  0999 V2000
   -4.5946   -4.0193    0.0000 C   0  0  0  0  0  0  0  0  0  0  0  0
   -5.8949   -4.7672    0.0000 H   0  0  0  0  0  0  0  0  0  0  0  0
   -5.5570   -2.8686    0.0000 H   0  0  0  0  0  0  0  0  0  0  0  0
   -3.6286   -2.8717    0.0000 H   0  0  0  0  0  0  0  0  0  0  0  0
   -3.2968   -4.7713    0.0000 C   0  0  0  0  0  0  0  0  0  0  0  0
   -3.1472   -6.2659    0.0000 N   0  0  0  0  0  0  0  0  0  0  0  0
   -1.6759   -6.5683    0.0000 N   0  0  0  0  0  0  0  0  0  0  0  0
   -1.3081   -8.0225    0.0000 C   0  0  0  0  0  0  0  0  0  0  0  0
    0.1361   -8.4309    0.0000 C   0  0  0  0  0  0  0  0  0  0  0  0
    1.2114   -7.3851    0.0000 H   0  0  0  0  0  0  0  0  0  0  0  0
    0.5039   -9.8851    0.0000 C   0  0  0  0  0  0  0  0  0  0  0  0
    1.9471  -10.2939    0.0000 H   0  0  0  0  0  0  0  0  0  0  0  0
   -0.5726  -10.9310    0.0000 C   0  0  0  0  0  0  0  0  0  0  0  0
   -0.2048  -12.3852    0.0000 H   0  0  0  0  0  0  0  0  0  0  0  0
   -2.0168  -10.5226    0.0000 C   0  0  0  0  0  0  0  0  0  0  0  0
   -3.0921  -11.5684    0.0000 H   0  0  0  0  0  0  0  0  0  0  0  0
   -2.3846   -9.0684    0.0000 C   0  0  0  0  0  0  0  0  0  0  0  0
   -3.8278   -8.6596    0.0000 H   0  0  0  0  0  0  0  0  0  0  0  0
   -0.9296   -5.2756    0.0000 C   0  0  0  0  0  0  0  0  0  0  0  0
   -1.9343   -4.1618    0.0000 C   0  0  0  0  0  0  0  0  0  0  0  0
   -1.6244   -2.6942    0.0000 H   0  0  0  0  0  0  0  0  0  0  0  0
    1.0395   -5.0678    0.0000 N   0  0  0  0  0  0  0  0  0  0  0  0
    1.6495   -3.6966    0.0000 C   0  0  0  0  0  0  0  0  0  0  0  0
    0.1939   -3.3344    0.0000 H   0  0  0  0  0  0  0  0  0  0  0  0
    1.7531   -2.2001    0.0000 H   0  0  0  0  0  0  0  0  0  0  0  0
    3.1420   -3.5383    0.0000 C   0  0  0  0  0  0  0  0  0  0  0  0
    2.7273   -2.0967    0.0000 H   0  0  0  0  0  0  0  0  0  0  0  0
    4.4897   -2.8798    0.0000 H   0  0  0  0  0  0  0  0  0  0  0  0
    4.0244   -4.7513    0.0000 N   0  0  0  0  0  0  0  0  0  0  0  0
    3.4143   -6.1226    0.0000 C   0  0  0  0  0  0  0  0  0  0  0  0
    4.8700   -6.4847    0.0000 H   0  0  0  0  0  0  0  0  0  0  0  0
    3.3108   -7.6190    0.0000 H   0  0  0  0  0  0  0  0  0  0  0  0
    1.9219   -6.2808    0.0000 C   0  0  0  0  0  0  0  0  0  0  0  0
    2.3365   -7.7224    0.0000 H   0  0  0  0  0  0  0  0  0  0  0  0
    0.5741   -6.9393    0.0000 H   0  0  0  0  0  0  0  0  0  0  0  0
    6.9481   -4.4427    0.0000 C   0  0  2  0  0  0  0  0  0  0  0  0
    6.9493   -5.9427    0.0000 H   0  0  0  0  0  0  0  0  0  0  0  0
    8.4401   -4.5979    0.0000 C   0  0  0  0  0  0  0  0  0  0  0  0
    8.1302   -6.0656    0.0000 H   0  0  0  0  0  0  0  0  0  0  0  0
    9.8674   -5.0592    0.0000 H   0  0  0  0  0  0  0  0  0  0  0  0
    9.0446   -3.2332    0.0000 C   0  0  1  0  0  0  0  0  0  0  0  0
   10.3434   -3.9836    0.0000 H   0  0  0  0  0  0  0  0  0  0  0  0
    9.9294   -2.0219    0.0000 C   0  0  0  0  0  0  0  0  0  0  0  0
    9.3228   -0.6501    0.0000 O   0  0  0  0  0  0  0  0  0  0  0  0
   11.8980   -2.2340    0.0000 N   0  0  0  0  0  0  0  0  0  0  0  0
   12.6452   -3.5346    0.0000 C   0  0  0  0  0  0  0  0  0  0  0  0
   11.2738   -4.1422    0.0000 H   0  0  0  0  0  0  0  0  0  0  0  0
   13.1065   -4.9619    0.0000 H   0  0  0  0  0  0  0  0  0  0  0  0
   14.1057   -3.2261    0.0000 C   0  0  0  0  0  0  0  0  0  0  0  0
   14.2572   -4.7185    0.0000 H   0  0  0  0  0  0  0  0  0  0  0  0
   15.6056   -3.2348    0.0000 H   0  0  0  0  0  0  0  0  0  0  0  0
   14.2746   -1.7336    0.0000 S   0  0  0  0  0  0  0  0  0  0  0  0
   12.9001   -1.1278    0.0000 C   0  0  0  0  0  0  0  0  0  0  0  0
   13.6482    0.1724    0.0000 H   0  0  0  0  0  0  0  0  0  0  0  0
   11.6873   -0.2451    0.0000 H   0  0  0  0  0  0  0  0  0  0  0  0
    7.9332   -2.2227    0.0000 N   0  0  0  0  0  0  0  0  0  0  0  0
    8.0885   -0.7308    0.0000 H   0  0  0  0  0  0  0  0  0  0  0  0
    6.6376   -2.9827    0.0000 C   0  0  0  0  0  0  0  0  0  0  0  0
    6.0211   -1.6152    0.0000 H   0  0  0  0  0  0  0  0  0  0  0  0
    5.2121   -3.4497    0.0000 O   0  0  0  0  0  0  0  0  0  0  0  0
    4.8051   -5.3874    0.0000 H   0  0  0  0  0  0  0  0  0  0  0  0
  1  2  1  0  0  0  0 
  1  3  1  0  0  0  0 
  1  4  1  0  0  0  0 
  1  5  1  0  0  0  0 
  5  6  2  0  0  0  0 
  6  7  1  0  0  0  0 
  7  8  1  0  0  0  0 
  8  9  2  0  0  0  0 
  9 10  1  0  0  0  0 
  9 11  1  0  0  0  0 
 11 12  1  0  0  0  0 
 11 13  2  0  0  0  0 
 13 14  1  0  0  0  0 
 13 15  1  0  0  0  0 
 15 16  1  0  0  0  0 
 15 17  2  0  0  0  0 
  8 17  1  0  0  0  0 
 17 18  1  0  0  0  0 
  7 19  1  0  0  0  0 
 19 20  2  0  0  0  0 
  5 20  1  0  0  0  0 
 20 21  1  0  0  0  0 
 19 22  1  0  0  0  0 
 22 23  1  0  0  0  0 
 23 24  1  0  0  0  0 
 23 25  1  0  0  0  0 
 23 26  1  0  0  0  0 
 26 27  1  0  0  0  0 
 26 28  1  0  0  0  0 
 26 29  1  0  0  0  0 
 29 30  1  0  0  0  0 
 30 31  1  0  0  0  0 
 30 32  1  0  0  0  0 
 30 33  1  0  0  0  0 
 22 33  1  0  0  0  0 
 33 34  1  0  0  0  0 
 33 35  1  0  0  0  0 
 36 29  1  1  0  0  0 
 36 37  1  6  0  0  0 
 36 38  1  0  0  0  0 
 38 39  1  0  0  0  0 
 38 40  1  0  0  0  0 
 38 41  1  0  0  0  0 
 41 42  1  1  0  0  0 
 41 43  1  6  0  0  0 
 43 44  2  0  0  0  0 
 43 45  1  0  0  0  0 
 45 46  1  0  0  0  0 
 46 47  1  0  0  0  0 
 46 48  1  0  0  0  0 
 46 49  1  0  0  0  0 
 49 50  1  0  0  0  0 
 49 51  1  0  0  0  0 
 49 52  1  0  0  0  0 
 52 53  1  0  0  0  0 
 45 53  1  0  0  0  0 
 53 54  1  0  0  0  0 
 53 55  1  0  0  0  0 
 41 56  1  0  0  0  0 
 56 57  1  0  0  0  0 
 56 58  1  0  0  0  0 
 36 58  1  0  0  0  0 
 58 59  1  0  0  0  0 
 58 60  1  0  0  0  0 
 60 61  1  0  0  0  0 
M  END
> <Rank>
3

> <Priority_score>
0.4146791444270842

> <Reaction_type>
aliphatic_hydroxylation_(sec_carbon_next_to_SP2,in_a_ring)

> <Parent_ID>
58

> <Parent_InChI>
InChI=1S/C22H30N6OS/c1-17-13-21(28(24-17)18-5-3-2-4-6-18)26-9-7-25(8-10-26)19-14-20(23-15-19)22(29)27-11-12-30-16-27/h2-6,13,19-20,23H,7-12,14-16H2,1H3

> <Parent_SMILES>
Cc1cc(N2CCN([C@H]3CN[C@H](C(=O)N4CCSC4)C3)CC2)n(-c2ccccc2)n1

$$$$
Molecule 58_metabolite 6
  CDK     0516241031

 56 59  0  0  0  0  0  0  0  0999 V2000
    7.9159   -6.1274    0.0000 C   0  0  0  0  0  0  0  0  0  0  0  0
    9.2161   -5.3795    0.0000 H   0  0  0  0  0  0  0  0  0  0  0  0
    8.8782   -7.2780    0.0000 H   0  0  0  0  0  0  0  0  0  0  0  0
    6.9499   -7.2749    0.0000 H   0  0  0  0  0  0  0  0  0  0  0  0
    6.6181   -5.3753    0.0000 C   0  0  0  0  0  0  0  0  0  0  0  0
    6.4685   -3.8807    0.0000 N   0  0  0  0  0  0  0  0  0  0  0  0
    4.9972   -3.5783    0.0000 N   0  0  0  0  0  0  0  0  0  0  0  0
    4.3825   -2.2101    0.0000 C   0  0  0  0  0  0  0  0  0  0  0  0
    2.8893   -2.0587    0.0000 C   0  0  0  0  0  0  0  0  0  0  0  0
    2.0119   -3.2754    0.0000 H   0  0  0  0  0  0  0  0  0  0  0  0
    2.2745   -0.6905    0.0000 C   0  0  0  0  0  0  0  0  0  0  0  0
    0.7823   -0.5385    0.0000 H   0  0  0  0  0  0  0  0  0  0  0  0
    3.1530    0.5264    0.0000 C   0  0  0  0  0  0  0  0  0  0  0  0
    2.5383    1.8947    0.0000 H   0  0  0  0  0  0  0  0  0  0  0  0
    4.6462    0.3750    0.0000 C   0  0  0  0  0  0  0  0  0  0  0  0
    5.5236    1.5917    0.0000 H   0  0  0  0  0  0  0  0  0  0  0  0
    5.2609   -0.9932    0.0000 C   0  0  0  0  0  0  0  0  0  0  0  0
    6.7532   -1.1452    0.0000 H   0  0  0  0  0  0  0  0  0  0  0  0
    4.2509   -4.8710    0.0000 C   0  0  0  0  0  0  0  0  0  0  0  0
    5.2555   -5.9848    0.0000 C   0  0  0  0  0  0  0  0  0  0  0  0
    4.9456   -7.4525    0.0000 H   0  0  0  0  0  0  0  0  0  0  0  0
    2.2818   -5.0789    0.0000 N   0  0  0  0  0  0  0  0  0  0  0  0
    1.3996   -3.8657    0.0000 H   0  0  0  0  0  0  0  0  0  0  0  0
    1.6723   -6.4494    0.0000 C   0  0  0  0  0  0  0  0  0  0  0  0
    3.1279   -6.8117    0.0000 H   0  0  0  0  0  0  0  0  0  0  0  0
    1.5683   -7.9458    0.0000 H   0  0  0  0  0  0  0  0  0  0  0  0
    0.1806   -6.6069    0.0000 C   0  0  0  0  0  0  0  0  0  0  0  0
   -1.2750   -6.2447    0.0000 H   0  0  0  0  0  0  0  0  0  0  0  0
    0.2845   -5.1105    0.0000 H   0  0  0  0  0  0  0  0  0  0  0  0
   -0.4289   -7.9775    0.0000 N   0  0  0  0  0  0  0  0  0  0  0  0
    0.4533   -9.1906    0.0000 H   0  0  0  0  0  0  0  0  0  0  0  0
   -2.3980   -8.1853    0.0000 C   0  0  2  0  0  0  0  0  0  0  0  0
   -2.3991   -6.6853    0.0000 H   0  0  0  0  0  0  0  0  0  0  0  0
   -3.8899   -8.0301    0.0000 C   0  0  0  0  0  0  0  0  0  0  0  0
   -3.5800   -6.5624    0.0000 H   0  0  0  0  0  0  0  0  0  0  0  0
   -5.3173   -7.5688    0.0000 H   0  0  0  0  0  0  0  0  0  0  0  0
   -4.4944   -9.3948    0.0000 C   0  0  1  0  0  0  0  0  0  0  0  0
   -5.7932   -8.6444    0.0000 H   0  0  0  0  0  0  0  0  0  0  0  0
   -5.3792  -10.6061    0.0000 C   0  0  0  0  0  0  0  0  0  0  0  0
   -4.7727  -11.9780    0.0000 O   0  0  0  0  0  0  0  0  0  0  0  0
   -7.3479  -10.3940    0.0000 N   0  0  0  0  0  0  0  0  0  0  0  0
   -8.0951   -9.0934    0.0000 C   0  0  0  0  0  0  0  0  0  0  0  0
   -6.7236   -8.4858    0.0000 H   0  0  0  0  0  0  0  0  0  0  0  0
   -8.5564   -7.6661    0.0000 H   0  0  0  0  0  0  0  0  0  0  0  0
   -9.5555   -9.4019    0.0000 C   0  0  0  0  0  0  0  0  0  0  0  0
   -9.7071   -7.9095    0.0000 H   0  0  0  0  0  0  0  0  0  0  0  0
  -11.0555   -9.3932    0.0000 H   0  0  0  0  0  0  0  0  0  0  0  0
   -9.7245  -10.8944    0.0000 S   0  0  0  0  0  0  0  0  0  0  0  0
   -8.3500  -11.5002    0.0000 C   0  0  0  0  0  0  0  0  0  0  0  0
   -9.0981  -12.8004    0.0000 H   0  0  0  0  0  0  0  0  0  0  0  0
   -7.1371  -12.3829    0.0000 H   0  0  0  0  0  0  0  0  0  0  0  0
   -3.3831  -10.4053    0.0000 N   0  0  0  0  0  0  0  0  0  0  0  0
   -3.5383  -11.8972    0.0000 H   0  0  0  0  0  0  0  0  0  0  0  0
   -2.0874   -9.6453    0.0000 C   0  0  0  0  0  0  0  0  0  0  0  0
   -1.4710  -11.0128    0.0000 H   0  0  0  0  0  0  0  0  0  0  0  0
   -0.6620   -9.1784    0.0000 H   0  0  0  0  0  0  0  0  0  0  0  0
  1  2  1  0  0  0  0 
  1  3  1  0  0  0  0 
  1  4  1  0  0  0  0 
  1  5  1  0  0  0  0 
  5  6  2  0  0  0  0 
  6  7  1  0  0  0  0 
  7  8  1  0  0  0  0 
  8  9  2  0  0  0  0 
  9 10  1  0  0  0  0 
  9 11  1  0  0  0  0 
 11 12  1  0  0  0  0 
 11 13  2  0  0  0  0 
 13 14  1  0  0  0  0 
 13 15  1  0  0  0  0 
 15 16  1  0  0  0  0 
 15 17  2  0  0  0  0 
  8 17  1  0  0  0  0 
 17 18  1  0  0  0  0 
  7 19  1  0  0  0  0 
 19 20  2  0  0  0  0 
  5 20  1  0  0  0  0 
 20 21  1  0  0  0  0 
 19 22  1  0  0  0  0 
 22 23  1  0  0  0  0 
 22 24  1  0  0  0  0 
 24 25  1  0  0  0  0 
 24 26  1  0  0  0  0 
 24 27  1  0  0  0  0 
 27 28  1  0  0  0  0 
 27 29  1  0  0  0  0 
 27 30  1  0  0  0  0 
 30 31  1  0  0  0  0 
 32 30  1  1  0  0  0 
 32 33  1  6  0  0  0 
 32 34  1  0  0  0  0 
 34 35  1  0  0  0  0 
 34 36  1  0  0  0  0 
 34 37  1  0  0  0  0 
 37 38  1  1  0  0  0 
 37 39  1  6  0  0  0 
 39 40  2  0  0  0  0 
 39 41  1  0  0  0  0 
 41 42  1  0  0  0  0 
 42 43  1  0  0  0  0 
 42 44  1  0  0  0  0 
 42 45  1  0  0  0  0 
 45 46  1  0  0  0  0 
 45 47  1  0  0  0  0 
 45 48  1  0  0  0  0 
 48 49  1  0  0  0  0 
 41 49  1  0  0  0  0 
 49 50  1  0  0  0  0 
 49 51  1  0  0  0  0 
 37 52  1  0  0  0  0 
 52 53  1  0  0  0  0 
 52 54  1  0  0  0  0 
 32 54  1  0  0  0  0 
 54 55  1  0  0  0  0 
 54 56  1  0  0  0  0 
M  END
> <Rank>
3

> <Priority_score>
0.4146791444270842

> <Reaction_type>
N-dealkylation of piperazine

> <Parent_ID>
58

> <Parent_InChI>
InChI=1S/C22H30N6OS/c1-17-13-21(28(24-17)18-5-3-2-4-6-18)26-9-7-25(8-10-26)19-14-20(23-15-19)22(29)27-11-12-30-16-27/h2-6,13,19-20,23H,7-12,14-16H2,1H3

> <Parent_SMILES>
Cc1cc(N2CCN([C@H]3CN[C@H](C(=O)N4CCSC4)C3)CC2)n(-c2ccccc2)n1

$$$$
Molecule 58_metabolite 7
  CDK     0516241031

 61 65  0  0  0  0  0  0  0  0999 V2000
   12.7814   -1.7710    0.0000 C   0  0  0  0  0  0  0  0  0  0  0  0
   14.2091   -2.2310    0.0000 H   0  0  0  0  0  0  0  0  0  0  0  0
   13.4823   -0.4449    0.0000 H   0  0  0  0  0  0  0  0  0  0  0  0
   11.5971   -0.8505    0.0000 H   0  0  0  0  0  0  0  0  0  0  0  0
   11.6692   -2.7775    0.0000 C   0  0  0  0  0  0  0  0  0  0  0  0
   11.8349   -4.2704    0.0000 N   0  0  0  0  0  0  0  0  0  0  0  0
   10.4592   -4.8733    0.0000 N   0  0  0  0  0  0  0  0  0  0  0  0
   10.0427   -6.8090    0.0000 C   0  0  0  0  0  0  0  0  0  0  0  0
    8.6140   -7.2688    0.0000 C   0  0  0  0  0  0  0  0  0  0  0  0
    7.5020   -6.2621    0.0000 H   0  0  0  0  0  0  0  0  0  0  0  0
    8.2985   -8.7352    0.0000 C   0  0  0  0  0  0  0  0  0  0  0  0
    6.8708   -9.1954    0.0000 H   0  0  0  0  0  0  0  0  0  0  0  0
    9.4117   -9.7419    0.0000 C   0  0  0  0  0  0  0  0  0  0  0  0
    9.0961  -11.2083    0.0000 H   0  0  0  0  0  0  0  0  0  0  0  0
   10.8403   -9.2821    0.0000 C   0  0  0  0  0  0  0  0  0  0  0  0
   11.9524  -10.2888    0.0000 H   0  0  0  0  0  0  0  0  0  0  0  0
   11.1559   -7.8157    0.0000 C   0  0  0  0  0  0  0  0  0  0  0  0
   12.5835   -7.3555    0.0000 H   0  0  0  0  0  0  0  0  0  0  0  0
    9.4594   -3.7649    0.0000 C   0  0  0  0  0  0  0  0  0  0  0  0
   10.2094   -2.4659    0.0000 C   0  0  0  0  0  0  0  0  0  0  0  0
    9.5999   -1.0953    0.0000 H   0  0  0  0  0  0  0  0  0  0  0  0
    7.4904   -3.9728    0.0000 N   0  0  0  0  0  0  0  0  0  0  0  0
    6.6075   -2.7591    0.0000 C   0  0  0  0  0  0  0  0  0  0  0  0
    7.9554   -2.1010    0.0000 H   0  0  0  0  0  0  0  0  0  0  0  0
    6.1938   -1.3173    0.0000 H   0  0  0  0  0  0  0  0  0  0  0  0
    5.1149   -2.9159    0.0000 C   0  0  0  0  0  0  0  0  0  0  0  0
    5.2194   -1.4196    0.0000 H   0  0  0  0  0  0  0  0  0  0  0  0
    3.6593   -2.5533    0.0000 H   0  0  0  0  0  0  0  0  0  0  0  0
    4.5051   -4.2864    0.0000 N   0  0  0  0  0  0  0  0  0  0  0  0
    5.3880   -5.5001    0.0000 C   0  0  0  0  0  0  0  0  0  0  0  0
    4.0401   -6.1582    0.0000 H   0  0  0  0  0  0  0  0  0  0  0  0
    5.8017   -6.9419    0.0000 H   0  0  0  0  0  0  0  0  0  0  0  0
    6.8806   -5.3432    0.0000 C   0  0  0  0  0  0  0  0  0  0  0  0
    6.7761   -6.8396    0.0000 H   0  0  0  0  0  0  0  0  0  0  0  0
    8.3362   -5.7059    0.0000 H   0  0  0  0  0  0  0  0  0  0  0  0
    1.5814   -4.5950    0.0000 C   0  0  2  0  0  0  0  0  0  0  0  0
    0.0894   -4.4398    0.0000 C   0  0  0  0  0  0  0  0  0  0  0  0
    0.3994   -2.9721    0.0000 H   0  0  0  0  0  0  0  0  0  0  0  0
   -1.3379   -3.9785    0.0000 H   0  0  0  0  0  0  0  0  0  0  0  0
   -0.5151   -5.8045    0.0000 C   0  0  1  0  0  0  0  0  0  0  0  0
   -1.8139   -5.0541    0.0000 H   0  0  0  0  0  0  0  0  0  0  0  0
   -1.3999   -7.0158    0.0000 C   0  0  0  0  0  0  0  0  0  0  0  0
   -0.7933   -8.3876    0.0000 O   0  0  0  0  0  0  0  0  0  0  0  0
   -3.3685   -6.8037    0.0000 N   0  0  0  0  0  0  0  0  0  0  0  0
   -4.1157   -5.5031    0.0000 C   0  0  0  0  0  0  0  0  0  0  0  0
   -2.7443   -4.8955    0.0000 H   0  0  0  0  0  0  0  0  0  0  0  0
   -4.5770   -4.0758    0.0000 H   0  0  0  0  0  0  0  0  0  0  0  0
   -5.5761   -5.8116    0.0000 C   0  0  0  0  0  0  0  0  0  0  0  0
   -5.7277   -4.3192    0.0000 H   0  0  0  0  0  0  0  0  0  0  0  0
   -7.0761   -5.8029    0.0000 H   0  0  0  0  0  0  0  0  0  0  0  0
   -5.7451   -7.3041    0.0000 S   0  0  0  0  0  0  0  0  0  0  0  0
   -4.3706   -7.9099    0.0000 C   0  0  0  0  0  0  0  0  0  0  0  0
   -5.1187   -9.2101    0.0000 H   0  0  0  0  0  0  0  0  0  0  0  0
   -3.1578   -8.7926    0.0000 H   0  0  0  0  0  0  0  0  0  0  0  0
    0.5963   -6.8150    0.0000 N   0  0  0  0  0  0  0  0  0  0  0  0
    0.4411   -8.3069    0.0000 H   0  0  0  0  0  0  0  0  0  0  0  0
    1.8919   -6.0550    0.0000 C   0  0  0  0  0  0  0  0  0  0  0  0
    2.5084   -7.4225    0.0000 H   0  0  0  0  0  0  0  0  0  0  0  0
    3.3174   -5.5880    0.0000 H   0  0  0  0  0  0  0  0  0  0  0  0
    1.5799   -2.6150    0.0000 O   0  0  0  0  0  0  0  0  0  0  0  0
    0.2803   -1.8660    0.0000 H   0  0  0  0  0  0  0  0  0  0  0  0
  1  2  1  0  0  0  0 
  1  3  1  0  0  0  0 
  1  4  1  0  0  0  0 
  1  5  1  0  0  0  0 
  5  6  2  0  0  0  0 
  6  7  1  0  0  0  0 
  7  8  1  0  0  0  0 
  8  9  2  0  0  0  0 
  9 10  1  0  0  0  0 
  9 11  1  0  0  0  0 
 11 12  1  0  0  0  0 
 11 13  2  0  0  0  0 
 13 14  1  0  0  0  0 
 13 15  1  0  0  0  0 
 15 16  1  0  0  0  0 
 15 17  2  0  0  0  0 
  8 17  1  0  0  0  0 
 17 18  1  0  0  0  0 
  7 19  1  0  0  0  0 
 19 20  2  0  0  0  0 
  5 20  1  0  0  0  0 
 20 21  1  0  0  0  0 
 19 22  1  0  0  0  0 
 22 23  1  0  0  0  0 
 23 24  1  0  0  0  0 
 23 25  1  0  0  0  0 
 23 26  1  0  0  0  0 
 26 27  1  0  0  0  0 
 26 28  1  0  0  0  0 
 26 29  1  0  0  0  0 
 29 30  1  0  0  0  0 
 30 31  1  0  0  0  0 
 30 32  1  0  0  0  0 
 30 33  1  0  0  0  0 
 22 33  1  0  0  0  0 
 33 34  1  0  0  0  0 
 33 35  1  0  0  0  0 
 36 29  1  1  0  0  0 
 36 37  1  0  0  0  0 
 37 38  1  0  0  0  0 
 37 39  1  0  0  0  0 
 37 40  1  0  0  0  0 
 40 41  1  1  0  0  0 
 40 42  1  6  0  0  0 
 42 43  2  0  0  0  0 
 42 44  1  0  0  0  0 
 44 45  1  0  0  0  0 
 45 46  1  0  0  0  0 
 45 47  1  0  0  0  0 
 45 48  1  0  0  0  0 
 48 49  1  0  0  0  0 
 48 50  1  0  0  0  0 
 48 51  1  0  0  0  0 
 51 52  1  0  0  0  0 
 44 52  1  0  0  0  0 
 52 53  1  0  0  0  0 
 52 54  1  0  0  0  0 
 40 55  1  0  0  0  0 
 55 56  1  0  0  0  0 
 55 57  1  0  0  0  0 
 36 57  1  0  0  0  0 
 57 58  1  0  0  0  0 
 57 59  1  0  0  0  0 
 36 60  1  6  0  0  0 
 60 61  1  0  0  0  0 
M  END
> <Rank>
3

> <Priority_score>
0.4146791444270842

> <Reaction_type>
aliphatic_hydroxylation_(tert_carbon_next_to_SP2)

> <Parent_ID>
58

> <Parent_InChI>
InChI=1S/C22H30N6OS/c1-17-13-21(28(24-17)18-5-3-2-4-6-18)26-9-7-25(8-10-26)19-14-20(23-15-19)22(29)27-11-12-30-16-27/h2-6,13,19-20,23H,7-12,14-16H2,1H3

> <Parent_SMILES>
Cc1cc(N2CCN([C@H]3CN[C@H](C(=O)N4CCSC4)C3)CC2)n(-c2ccccc2)n1

$$$$
Molecule 58_metabolite 8
  CDK     0516241031

 25 26  0  0  0  0  0  0  0  0999 V2000
    4.4645   -0.4714    0.0000 C   0  0  0  0  0  0  0  0  0  0  0  0
    3.0943   -1.0819    0.0000 H   0  0  0  0  0  0  0  0  0  0  0  0
    4.9288   -1.8978    0.0000 H   0  0  0  0  0  0  0  0  0  0  0  0
    5.9242   -0.1598    0.0000 C   0  0  0  0  0  0  0  0  0  0  0  0
    6.0790   -1.6518    0.0000 H   0  0  0  0  0  0  0  0  0  0  0  0
    7.4242   -0.1652    0.0000 H   0  0  0  0  0  0  0  0  0  0  0  0
    6.0900    1.3331    0.0000 S   0  0  0  0  0  0  0  0  0  0  0  0
    4.7142    1.9360    0.0000 C   0  0  0  0  0  0  0  0  0  0  0  0
    5.4595    3.2377    0.0000 H   0  0  0  0  0  0  0  0  0  0  0  0
    3.4995    2.8160    0.0000 H   0  0  0  0  0  0  0  0  0  0  0  0
    3.7145    0.8276    0.0000 N   0  0  0  0  0  0  0  0  0  0  0  0
    1.7454    1.0354    0.0000 C   0  0  0  0  0  0  0  0  0  0  0  0
    0.8632   -0.1777    0.0000 O   0  0  0  0  0  0  0  0  0  0  0  0
    1.1359    2.4060    0.0000 C   0  0  2  0  0  0  0  0  0  0  0  0
    2.5625    2.8694    0.0000 H   0  0  0  0  0  0  0  0  0  0  0  0
    0.8262    3.8615    0.0000 C   0  0  0  0  0  0  0  0  0  0  0  0
    2.3186    4.0118    0.0000 H   0  0  0  0  0  0  0  0  0  0  0  0
    0.8396    5.3615    0.0000 H   0  0  0  0  0  0  0  0  0  0  0  0
   -0.6625    4.0383    0.0000 C   0  0  0  0  0  0  0  0  0  0  0  0
   -1.4010    5.3439    0.0000 O   0  0  0  0  0  0  0  0  0  0  0  0
   -1.2783    2.6706    0.0000 C   0  0  0  0  0  0  0  0  0  0  0  0
   -2.5734    3.4275    0.0000 H   0  0  0  0  0  0  0  0  0  0  0  0
   -2.1679    1.4628    0.0000 H   0  0  0  0  0  0  0  0  0  0  0  0
   -0.1674    1.6549    0.0000 N   0  0  0  0  0  0  0  0  0  0  0  0
   -0.3304    0.1638    0.0000 H   0  0  0  0  0  0  0  0  0  0  0  0
  1  2  1  0  0  0  0 
  1  3  1  0  0  0  0 
  1  4  1  0  0  0  0 
  4  5  1  0  0  0  0 
  4  6  1  0  0  0  0 
  4  7  1  0  0  0  0 
  7  8  1  0  0  0  0 
  8  9  1  0  0  0  0 
  8 10  1  0  0  0  0 
  8 11  1  0  0  0  0 
  1 11  1  0  0  0  0 
 11 12  1  0  0  0  0 
 12 13  2  0  0  0  0 
 14 12  1  1  0  0  0 
 14 15  1  6  0  0  0 
 14 16  1  0  0  0  0 
 16 17  1  0  0  0  0 
 16 18  1  0  0  0  0 
 16 19  1  0  0  0  0 
 19 20  2  0  0  0  0 
 19 21  1  0  0  0  0 
 21 22  1  0  0  0  0 
 21 23  1  0  0  0  0 
 21 24  1  0  0  0  0 
 14 24  1  0  0  0  0 
 24 25  1  0  0  0  0 
M  END
> <Rank>
3

> <Priority_score>
0.4146791444270842

> <Reaction_type>
N-dealkylation

> <Parent_ID>
58

> <Parent_InChI>
InChI=1S/C22H30N6OS/c1-17-13-21(28(24-17)18-5-3-2-4-6-18)26-9-7-25(8-10-26)19-14-20(23-15-19)22(29)27-11-12-30-16-27/h2-6,13,19-20,23H,7-12,14-16H2,1H3

> <Parent_SMILES>
Cc1cc(N2CCN([C@H]3CN[C@H](C(=O)N4CCSC4)C3)CC2)n(-c2ccccc2)n1

$$$$
Molecule 58_metabolite 9
  CDK     0516241031

 61 65  0  0  0  0  0  0  0  0999 V2000
   12.3665   -2.0124    0.0000 C   0  0  0  0  0  0  0  0  0  0  0  0
   13.7942   -2.4724    0.0000 H   0  0  0  0  0  0  0  0  0  0  0  0
   13.0674   -0.6862    0.0000 H   0  0  0  0  0  0  0  0  0  0  0  0
   11.1822   -1.0919    0.0000 H   0  0  0  0  0  0  0  0  0  0  0  0
   11.2543   -3.0189    0.0000 C   0  0  0  0  0  0  0  0  0  0  0  0
   11.4200   -4.5118    0.0000 N   0  0  0  0  0  0  0  0  0  0  0  0
   10.0443   -5.1146    0.0000 N   0  0  0  0  0  0  0  0  0  0  0  0
    9.6278   -7.0504    0.0000 C   0  0  0  0  0  0  0  0  0  0  0  0
   10.7398   -8.0570    0.0000 C   0  0  0  0  0  0  0  0  0  0  0  0
   12.1677   -7.5975    0.0000 H   0  0  0  0  0  0  0  0  0  0  0  0
   10.4234   -9.5241    0.0000 C   0  0  0  0  0  0  0  0  0  0  0  0
   11.5355  -10.5307    0.0000 H   0  0  0  0  0  0  0  0  0  0  0  0
    8.9950   -9.9846    0.0000 C   0  0  0  0  0  0  0  0  0  0  0  0
    7.8829   -8.9779    0.0000 C   0  0  0  0  0  0  0  0  0  0  0  0
    6.4551   -9.4374    0.0000 H   0  0  0  0  0  0  0  0  0  0  0  0
    8.1993   -7.5108    0.0000 C   0  0  0  0  0  0  0  0  0  0  0  0
    7.0873   -6.5042    0.0000 H   0  0  0  0  0  0  0  0  0  0  0  0
    8.6795  -11.4510    0.0000 O   0  0  0  0  0  0  0  0  0  0  0  0
    7.2517  -11.9110    0.0000 H   0  0  0  0  0  0  0  0  0  0  0  0
    9.0445   -4.0063    0.0000 C   0  0  0  0  0  0  0  0  0  0  0  0
    9.7945   -2.7072    0.0000 C   0  0  0  0  0  0  0  0  0  0  0  0
    9.1850   -1.3367    0.0000 H   0  0  0  0  0  0  0  0  0  0  0  0
    7.0755   -4.2141    0.0000 N   0  0  0  0  0  0  0  0  0  0  0  0
    6.1926   -3.0004    0.0000 C   0  0  0  0  0  0  0  0  0  0  0  0
    7.5405   -2.3424    0.0000 H   0  0  0  0  0  0  0  0  0  0  0  0
    5.7789   -1.5586    0.0000 H   0  0  0  0  0  0  0  0  0  0  0  0
    4.6999   -3.1573    0.0000 C   0  0  0  0  0  0  0  0  0  0  0  0
    4.8045   -1.6609    0.0000 H   0  0  0  0  0  0  0  0  0  0  0  0
    3.2444   -2.7946    0.0000 H   0  0  0  0  0  0  0  0  0  0  0  0
    4.0902   -4.5278    0.0000 N   0  0  0  0  0  0  0  0  0  0  0  0
    4.9731   -5.7414    0.0000 C   0  0  0  0  0  0  0  0  0  0  0  0
    3.6252   -6.3995    0.0000 H   0  0  0  0  0  0  0  0  0  0  0  0
    5.3868   -7.1832    0.0000 H   0  0  0  0  0  0  0  0  0  0  0  0
    6.4657   -5.5846    0.0000 C   0  0  0  0  0  0  0  0  0  0  0  0
    6.3612   -7.0810    0.0000 H   0  0  0  0  0  0  0  0  0  0  0  0
    7.9212   -5.9472    0.0000 H   0  0  0  0  0  0  0  0  0  0  0  0
    1.1665   -4.8364    0.0000 C   0  0  2  0  0  0  0  0  0  0  0  0
    1.1654   -3.3364    0.0000 H   0  0  0  0  0  0  0  0  0  0  0  0
   -0.3255   -4.6811    0.0000 C   0  0  0  0  0  0  0  0  0  0  0  0
   -0.0156   -3.2135    0.0000 H   0  0  0  0  0  0  0  0  0  0  0  0
   -1.7528   -4.2199    0.0000 H   0  0  0  0  0  0  0  0  0  0  0  0
   -0.9300   -6.0459    0.0000 C   0  0  1  0  0  0  0  0  0  0  0  0
   -2.2288   -5.2954    0.0000 H   0  0  0  0  0  0  0  0  0  0  0  0
   -1.8148   -7.2571    0.0000 C   0  0  0  0  0  0  0  0  0  0  0  0
   -1.2082   -8.6290    0.0000 O   0  0  0  0  0  0  0  0  0  0  0  0
   -3.7834   -7.0451    0.0000 N   0  0  0  0  0  0  0  0  0  0  0  0
   -4.5306   -5.7444    0.0000 C   0  0  0  0  0  0  0  0  0  0  0  0
   -3.1592   -5.1368    0.0000 H   0  0  0  0  0  0  0  0  0  0  0  0
   -4.9919   -4.3171    0.0000 H   0  0  0  0  0  0  0  0  0  0  0  0
   -5.9910   -6.0529    0.0000 C   0  0  0  0  0  0  0  0  0  0  0  0
   -6.1426   -4.5606    0.0000 H   0  0  0  0  0  0  0  0  0  0  0  0
   -7.4910   -6.0443    0.0000 H   0  0  0  0  0  0  0  0  0  0  0  0
   -6.1600   -7.5454    0.0000 S   0  0  0  0  0  0  0  0  0  0  0  0
   -4.7855   -8.1513    0.0000 C   0  0  0  0  0  0  0  0  0  0  0  0
   -5.5336   -9.4514    0.0000 H   0  0  0  0  0  0  0  0  0  0  0  0
   -3.5727   -9.0339    0.0000 H   0  0  0  0  0  0  0  0  0  0  0  0
    0.1814   -7.0563    0.0000 N   0  0  0  0  0  0  0  0  0  0  0  0
    0.0261   -8.5483    0.0000 H   0  0  0  0  0  0  0  0  0  0  0  0
    1.4770   -6.2963    0.0000 C   0  0  0  0  0  0  0  0  0  0  0  0
    2.0935   -7.6638    0.0000 H   0  0  0  0  0  0  0  0  0  0  0  0
    2.9025   -5.8294    0.0000 H   0  0  0  0  0  0  0  0  0  0  0  0
  1  2  1  0  0  0  0 
  1  3  1  0  0  0  0 
  1  4  1  0  0  0  0 
  1  5  1  0  0  0  0 
  5  6  2  0  0  0  0 
  6  7  1  0  0  0  0 
  7  8  1  0  0  0  0 
  8  9  2  0  0  0  0 
  9 10  1  0  0  0  0 
  9 11  1  0  0  0  0 
 11 12  1  0  0  0  0 
 11 13  2  0  0  0  0 
 13 14  1  0  0  0  0 
 14 15  1  0  0  0  0 
 14 16  2  0  0  0  0 
  8 16  1  0  0  0  0 
 16 17  1  0  0  0  0 
 13 18  1  0  0  0  0 
 18 19  1  0  0  0  0 
  7 20  1  0  0  0  0 
 20 21  2  0  0  0  0 
  5 21  1  0  0  0  0 
 21 22  1  0  0  0  0 
 20 23  1  0  0  0  0 
 23 24  1  0  0  0  0 
 24 25  1  0  0  0  0 
 24 26  1  0  0  0  0 
 24 27  1  0  0  0  0 
 27 28  1  0  0  0  0 
 27 29  1  0  0  0  0 
 27 30  1  0  0  0  0 
 30 31  1  0  0  0  0 
 31 32  1  0  0  0  0 
 31 33  1  0  0  0  0 
 31 34  1  0  0  0  0 
 23 34  1  0  0  0  0 
 34 35  1  0  0  0  0 
 34 36  1  0  0  0  0 
 37 30  1  1  0  0  0 
 37 38  1  6  0  0  0 
 37 39  1  0  0  0  0 
 39 40  1  0  0  0  0 
 39 41  1  0  0  0  0 
 39 42  1  0  0  0  0 
 42 43  1  1  0  0  0 
 42 44  1  6  0  0  0 
 44 45  2  0  0  0  0 
 44 46  1  0  0  0  0 
 46 47  1  0  0  0  0 
 47 48  1  0  0  0  0 
 47 49  1  0  0  0  0 
 47 50  1  0  0  0  0 
 50 51  1  0  0  0  0 
 50 52  1  0  0  0  0 
 50 53  1  0  0  0  0 
 53 54  1  0  0  0  0 
 46 54  1  0  0  0  0 
 54 55  1  0  0  0  0 
 54 56  1  0  0  0  0 
 42 57  1  0  0  0  0 
 57 58  1  0  0  0  0 
 57 59  1  0  0  0  0 
 37 59  1  0  0  0  0 
 59 60  1  0  0  0  0 
 59 61  1  0  0  0  0 
M  END
> <Rank>
9

> <Priority_score>
0.372

> <Reaction_type>
aromatic_hydroxylation_(para_to_nitrogen)

> <Parent_ID>
58

> <Parent_InChI>
InChI=1S/C22H30N6OS/c1-17-13-21(28(24-17)18-5-3-2-4-6-18)26-9-7-25(8-10-26)19-14-20(23-15-19)22(29)27-11-12-30-16-27/h2-6,13,19-20,23H,7-12,14-16H2,1H3

> <Parent_SMILES>
Cc1cc(N2CCN([C@H]3CN[C@H](C(=O)N4CCSC4)C3)CC2)n(-c2ccccc2)n1

$$$$
Molecule 58_metabolite 10
  CDK     0516241031

 61 65  0  0  0  0  0  0  0  0999 V2000
   12.0282   -5.9799    0.0000 C   0  0  0  0  0  0  0  0  0  0  0  0
   13.3284   -5.2319    0.0000 H   0  0  0  0  0  0  0  0  0  0  0  0
   12.9905   -7.1305    0.0000 H   0  0  0  0  0  0  0  0  0  0  0  0
   11.0622   -7.1274    0.0000 H   0  0  0  0  0  0  0  0  0  0  0  0
   10.7304   -5.2278    0.0000 C   0  0  0  0  0  0  0  0  0  0  0  0
   10.5808   -3.7332    0.0000 N   0  0  0  0  0  0  0  0  0  0  0  0
    9.1095   -3.4308    0.0000 N   0  0  0  0  0  0  0  0  0  0  0  0
    8.7417   -1.9766    0.0000 C   0  0  0  0  0  0  0  0  0  0  0  0
    9.8176   -0.9302    0.0000 C   0  0  0  0  0  0  0  0  0  0  0  0
    9.4476    0.5154    0.0000 C   0  0  0  0  0  0  0  0  0  0  0  0
   10.5216    1.5624    0.0000 H   0  0  0  0  0  0  0  0  0  0  0  0
    8.0044    0.9242    0.0000 C   0  0  0  0  0  0  0  0  0  0  0  0
    7.6390    2.3790    0.0000 H   0  0  0  0  0  0  0  0  0  0  0  0
    6.9312   -0.1126    0.0000 C   0  0  0  0  0  0  0  0  0  0  0  0
    5.4886    0.2987    0.0000 H   0  0  0  0  0  0  0  0  0  0  0  0
    7.2985   -1.5678    0.0000 C   0  0  0  0  0  0  0  0  0  0  0  0
    6.2226   -2.6130    0.0000 H   0  0  0  0  0  0  0  0  0  0  0  0
   11.2615   -1.3366    0.0000 O   0  0  0  0  0  0  0  0  0  0  0  0
   12.3354   -0.2894    0.0000 H   0  0  0  0  0  0  0  0  0  0  0  0
    8.3631   -4.7235    0.0000 C   0  0  0  0  0  0  0  0  0  0  0  0
    9.3678   -5.8373    0.0000 C   0  0  0  0  0  0  0  0  0  0  0  0
    9.0579   -7.3049    0.0000 H   0  0  0  0  0  0  0  0  0  0  0  0
    6.3941   -4.9313    0.0000 N   0  0  0  0  0  0  0  0  0  0  0  0
    5.7840   -6.3026    0.0000 C   0  0  0  0  0  0  0  0  0  0  0  0
    7.2396   -6.6647    0.0000 H   0  0  0  0  0  0  0  0  0  0  0  0
    5.6804   -7.7990    0.0000 H   0  0  0  0  0  0  0  0  0  0  0  0
    4.2916   -6.4608    0.0000 C   0  0  0  0  0  0  0  0  0  0  0  0
    4.7062   -7.9024    0.0000 H   0  0  0  0  0  0  0  0  0  0  0  0
    2.9438   -7.1193    0.0000 H   0  0  0  0  0  0  0  0  0  0  0  0
    3.4091   -5.2478    0.0000 N   0  0  0  0  0  0  0  0  0  0  0  0
    4.0192   -3.8766    0.0000 C   0  0  0  0  0  0  0  0  0  0  0  0
    2.5636   -3.5144    0.0000 H   0  0  0  0  0  0  0  0  0  0  0  0
    4.1228   -2.3801    0.0000 H   0  0  0  0  0  0  0  0  0  0  0  0
    5.5117   -3.7183    0.0000 C   0  0  0  0  0  0  0  0  0  0  0  0
    5.0970   -2.2768    0.0000 H   0  0  0  0  0  0  0  0  0  0  0  0
    6.8594   -3.0598    0.0000 H   0  0  0  0  0  0  0  0  0  0  0  0
    0.4854   -5.5564    0.0000 C   0  0  2  0  0  0  0  0  0  0  0  0
    0.4843   -4.0564    0.0000 H   0  0  0  0  0  0  0  0  0  0  0  0
   -1.0066   -5.4012    0.0000 C   0  0  0  0  0  0  0  0  0  0  0  0
   -0.6966   -3.9335    0.0000 H   0  0  0  0  0  0  0  0  0  0  0  0
   -2.4339   -4.9399    0.0000 H   0  0  0  0  0  0  0  0  0  0  0  0
   -1.6111   -6.7659    0.0000 C   0  0  1  0  0  0  0  0  0  0  0  0
   -2.9098   -6.0155    0.0000 H   0  0  0  0  0  0  0  0  0  0  0  0
   -2.4959   -7.9772    0.0000 C   0  0  0  0  0  0  0  0  0  0  0  0
   -1.8893   -9.3491    0.0000 O   0  0  0  0  0  0  0  0  0  0  0  0
   -4.4645   -7.7651    0.0000 N   0  0  0  0  0  0  0  0  0  0  0  0
   -5.2117   -6.4645    0.0000 C   0  0  0  0  0  0  0  0  0  0  0  0
   -3.8403   -5.8569    0.0000 H   0  0  0  0  0  0  0  0  0  0  0  0
   -5.6730   -5.0372    0.0000 H   0  0  0  0  0  0  0  0  0  0  0  0
   -6.6721   -6.7730    0.0000 C   0  0  0  0  0  0  0  0  0  0  0  0
   -6.8237   -5.2807    0.0000 H   0  0  0  0  0  0  0  0  0  0  0  0
   -8.1721   -6.7643    0.0000 H   0  0  0  0  0  0  0  0  0  0  0  0
   -6.8411   -8.2655    0.0000 S   0  0  0  0  0  0  0  0  0  0  0  0
   -5.4666   -8.8713    0.0000 C   0  0  0  0  0  0  0  0  0  0  0  0
   -6.2147  -10.1715    0.0000 H   0  0  0  0  0  0  0  0  0  0  0  0
   -4.2538   -9.7540    0.0000 H   0  0  0  0  0  0  0  0  0  0  0  0
   -0.4997   -7.7764    0.0000 N   0  0  0  0  0  0  0  0  0  0  0  0
   -0.6549   -9.2683    0.0000 H   0  0  0  0  0  0  0  0  0  0  0  0
    0.7959   -7.0164    0.0000 C   0  0  0  0  0  0  0  0  0  0  0  0
    1.4124   -8.3839    0.0000 H   0  0  0  0  0  0  0  0  0  0  0  0
    2.2214   -6.5495    0.0000 H   0  0  0  0  0  0  0  0  0  0  0  0
  1  2  1  0  0  0  0 
  1  3  1  0  0  0  0 
  1  4  1  0  0  0  0 
  1  5  1  0  0  0  0 
  5  6  2  0  0  0  0 
  6  7  1  0  0  0  0 
  7  8  1  0  0  0  0 
  8  9  2  0  0  0  0 
  9 10  1  0  0  0  0 
 10 11  1  0  0  0  0 
 10 12  2  0  0  0  0 
 12 13  1  0  0  0  0 
 12 14  1  0  0  0  0 
 14 15  1  0  0  0  0 
 14 16  2  0  0  0  0 
  8 16  1  0  0  0  0 
 16 17  1  0  0  0  0 
  9 18  1  0  0  0  0 
 18 19  1  0  0  0  0 
  7 20  1  0  0  0  0 
 20 21  2  0  0  0  0 
  5 21  1  0  0  0  0 
 21 22  1  0  0  0  0 
 20 23  1  0  0  0  0 
 23 24  1  0  0  0  0 
 24 25  1  0  0  0  0 
 24 26  1  0  0  0  0 
 24 27  1  0  0  0  0 
 27 28  1  0  0  0  0 
 27 29  1  0  0  0  0 
 27 30  1  0  0  0  0 
 30 31  1  0  0  0  0 
 31 32  1  0  0  0  0 
 31 33  1  0  0  0  0 
 31 34  1  0  0  0  0 
 23 34  1  0  0  0  0 
 34 35  1  0  0  0  0 
 34 36  1  0  0  0  0 
 37 30  1  1  0  0  0 
 37 38  1  6  0  0  0 
 37 39  1  0  0  0  0 
 39 40  1  0  0  0  0 
 39 41  1  0  0  0  0 
 39 42  1  0  0  0  0 
 42 43  1  1  0  0  0 
 42 44  1  6  0  0  0 
 44 45  2  0  0  0  0 
 44 46  1  0  0  0  0 
 46 47  1  0  0  0  0 
 47 48  1  0  0  0  0 
 47 49  1  0  0  0  0 
 47 50  1  0  0  0  0 
 50 51  1  0  0  0  0 
 50 52  1  0  0  0  0 
 50 53  1  0  0  0  0 
 53 54  1  0  0  0  0 
 46 54  1  0  0  0  0 
 54 55  1  0  0  0  0 
 54 56  1  0  0  0  0 
 42 57  1  0  0  0  0 
 57 58  1  0  0  0  0 
 57 59  1  0  0  0  0 
 37 59  1  0  0  0  0 
 59 60  1  0  0  0  0 
 59 61  1  0  0  0  0 
M  END
> <Rank>
9

> <Priority_score>
0.372

> <Reaction_type>
aromatic_hydroxylation_(ortho_to_nitrogen)

> <Parent_ID>
58

> <Parent_InChI>
InChI=1S/C22H30N6OS/c1-17-13-21(28(24-17)18-5-3-2-4-6-18)26-9-7-25(8-10-26)19-14-20(23-15-19)22(29)27-11-12-30-16-27/h2-6,13,19-20,23H,7-12,14-16H2,1H3

> <Parent_SMILES>
Cc1cc(N2CCN([C@H]3CN[C@H](C(=O)N4CCSC4)C3)CC2)n(-c2ccccc2)n1

$$$$
Molecule 58_metabolite 11
  CDK     0516241031

 61 65  0  0  0  0  0  0  0  0999 V2000
   12.2912   -1.4349    0.0000 C   0  0  0  0  0  0  0  0  0  0  0  0
   13.7189   -1.8949    0.0000 H   0  0  0  0  0  0  0  0  0  0  0  0
   12.9921   -0.1087    0.0000 H   0  0  0  0  0  0  0  0  0  0  0  0
   11.1069   -0.5143    0.0000 H   0  0  0  0  0  0  0  0  0  0  0  0
   11.1790   -2.4414    0.0000 C   0  0  0  0  0  0  0  0  0  0  0  0
   11.3447   -3.9342    0.0000 N   0  0  0  0  0  0  0  0  0  0  0  0
    9.9690   -4.5371    0.0000 N   0  0  0  0  0  0  0  0  0  0  0  0
    9.5525   -6.4728    0.0000 C   0  0  0  0  0  0  0  0  0  0  0  0
    8.1238   -6.9326    0.0000 C   0  0  0  0  0  0  0  0  0  0  0  0
    7.0118   -5.9260    0.0000 H   0  0  0  0  0  0  0  0  0  0  0  0
    7.8083   -8.3991    0.0000 C   0  0  0  0  0  0  0  0  0  0  0  0
    6.3806   -8.8593    0.0000 H   0  0  0  0  0  0  0  0  0  0  0  0
    8.9214   -9.4057    0.0000 C   0  0  0  0  0  0  0  0  0  0  0  0
    8.6059  -10.8722    0.0000 H   0  0  0  0  0  0  0  0  0  0  0  0
   10.3501   -8.9460    0.0000 C   0  0  0  0  0  0  0  0  0  0  0  0
   11.4622   -9.9526    0.0000 H   0  0  0  0  0  0  0  0  0  0  0  0
   10.6656   -7.4795    0.0000 C   0  0  0  0  0  0  0  0  0  0  0  0
   12.0933   -7.0193    0.0000 H   0  0  0  0  0  0  0  0  0  0  0  0
    8.9692   -3.4288    0.0000 C   0  0  0  0  0  0  0  0  0  0  0  0
    9.7192   -2.1297    0.0000 C   0  0  0  0  0  0  0  0  0  0  0  0
    9.1097   -0.7591    0.0000 H   0  0  0  0  0  0  0  0  0  0  0  0
    7.0001   -3.6366    0.0000 N   0  0  0  0  0  0  0  0  0  0  0  0
    6.1173   -2.4229    0.0000 C   0  0  0  0  0  0  0  0  0  0  0  0
    7.4652   -1.7649    0.0000 H   0  0  0  0  0  0  0  0  0  0  0  0
    5.7035   -0.9811    0.0000 H   0  0  0  0  0  0  0  0  0  0  0  0
    4.6246   -2.5798    0.0000 C   0  0  0  0  0  0  0  0  0  0  0  0
    4.7292   -1.0834    0.0000 H   0  0  0  0  0  0  0  0  0  0  0  0
    3.1691   -2.2171    0.0000 H   0  0  0  0  0  0  0  0  0  0  0  0
    4.0149   -3.9502    0.0000 N   0  0  0  0  0  0  0  0  0  0  0  0
    4.8978   -5.1639    0.0000 C   0  0  0  0  0  0  0  0  0  0  0  0
    3.5499   -5.8220    0.0000 H   0  0  0  0  0  0  0  0  0  0  0  0
    5.3115   -6.6057    0.0000 H   0  0  0  0  0  0  0  0  0  0  0  0
    6.3904   -5.0071    0.0000 C   0  0  0  0  0  0  0  0  0  0  0  0
    6.2859   -6.5034    0.0000 H   0  0  0  0  0  0  0  0  0  0  0  0
    7.8459   -5.3697    0.0000 H   0  0  0  0  0  0  0  0  0  0  0  0
    1.0912   -4.2589    0.0000 C   0  0  2  0  0  0  0  0  0  0  0  0
    1.0901   -2.7589    0.0000 H   0  0  0  0  0  0  0  0  0  0  0  0
   -0.4008   -4.1036    0.0000 C   0  0  0  0  0  0  0  0  0  0  0  0
   -0.0909   -2.6360    0.0000 H   0  0  0  0  0  0  0  0  0  0  0  0
   -1.8281   -3.6424    0.0000 H   0  0  0  0  0  0  0  0  0  0  0  0
   -1.0053   -5.4684    0.0000 C   0  0  1  0  0  0  0  0  0  0  0  0
   -2.3041   -4.7179    0.0000 H   0  0  0  0  0  0  0  0  0  0  0  0
   -1.8901   -6.6796    0.0000 C   0  0  0  0  0  0  0  0  0  0  0  0
   -1.2835   -8.0515    0.0000 O   0  0  0  0  0  0  0  0  0  0  0  0
   -3.8587   -6.4675    0.0000 N   0  0  0  0  0  0  0  0  0  0  0  0
   -5.2844   -6.0012    0.0000 C   0  0  0  0  0  0  0  0  0  0  0  0
   -4.6719   -4.6319    0.0000 H   0  0  0  0  0  0  0  0  0  0  0  0
   -6.5824   -5.2494    0.0000 H   0  0  0  0  0  0  0  0  0  0  0  0
   -6.1631   -7.2078    0.0000 C   0  0  0  0  0  0  0  0  0  0  0  0
   -7.2744   -6.2003    0.0000 H   0  0  0  0  0  0  0  0  0  0  0  0
   -7.2834   -8.2052    0.0000 H   0  0  0  0  0  0  0  0  0  0  0  0
   -5.2898   -8.4299    0.0000 S   0  0  0  0  0  0  0  0  0  0  0  0
   -3.8630   -7.9602    0.0000 C   0  0  0  0  0  0  0  0  0  0  0  0
   -3.5488   -9.4269    0.0000 H   0  0  0  0  0  0  0  0  0  0  0  0
   -2.3711   -7.8043    0.0000 H   0  0  0  0  0  0  0  0  0  0  0  0
   -3.5435   -5.0010    0.0000 O   0  0  0  0  0  0  0  0  0  0  0  0
    0.1061   -6.4788    0.0000 N   0  0  0  0  0  0  0  0  0  0  0  0
   -0.0492   -7.9708    0.0000 H   0  0  0  0  0  0  0  0  0  0  0  0
    1.4017   -5.7188    0.0000 C   0  0  0  0  0  0  0  0  0  0  0  0
    2.0182   -7.0863    0.0000 H   0  0  0  0  0  0  0  0  0  0  0  0
    2.8272   -5.2519    0.0000 H   0  0  0  0  0  0  0  0  0  0  0  0
  1  2  1  0  0  0  0 
  1  3  1  0  0  0  0 
  1  4  1  0  0  0  0 
  1  5  1  0  0  0  0 
  5  6  2  0  0  0  0 
  6  7  1  0  0  0  0 
  7  8  1  0  0  0  0 
  8  9  2  0  0  0  0 
  9 10  1  0  0  0  0 
  9 11  1  0  0  0  0 
 11 12  1  0  0  0  0 
 11 13  2  0  0  0  0 
 13 14  1  0  0  0  0 
 13 15  1  0  0  0  0 
 15 16  1  0  0  0  0 
 15 17  2  0  0  0  0 
  8 17  1  0  0  0  0 
 17 18  1  0  0  0  0 
  7 19  1  0  0  0  0 
 19 20  2  0  0  0  0 
  5 20  1  0  0  0  0 
 20 21  1  0  0  0  0 
 19 22  1  0  0  0  0 
 22 23  1  0  0  0  0 
 23 24  1  0  0  0  0 
 23 25  1  0  0  0  0 
 23 26  1  0  0  0  0 
 26 27  1  0  0  0  0 
 26 28  1  0  0  0  0 
 26 29  1  0  0  0  0 
 29 30  1  0  0  0  0 
 30 31  1  0  0  0  0 
 30 32  1  0  0  0  0 
 30 33  1  0  0  0  0 
 22 33  1  0  0  0  0 
 33 34  1  0  0  0  0 
 33 35  1  0  0  0  0 
 36 29  1  1  0  0  0 
 36 37  1  6  0  0  0 
 36 38  1  0  0  0  0 
 38 39  1  0  0  0  0 
 38 40  1  0  0  0  0 
 38 41  1  0  0  0  0 
 41 42  1  1  0  0  0 
 41 43  1  6  0  0  0 
 43 44  2  0  0  0  0 
 43 45  1  0  0  0  0 
 45 46  1  0  0  0  0 
 46 47  1  0  0  0  0 
 46 48  1  0  0  0  0 
 46 49  1  0  0  0  0 
 49 50  1  0  0  0  0 
 49 51  1  0  0  0  0 
 49 52  1  0  0  0  0 
 52 53  1  0  0  0  0 
 45 53  1  0  0  0  0 
 53 54  1  0  0  0  0 
 53 55  1  0  0  0  0 
 45 56  1  0  0  0  0 
 41 57  1  0  0  0  0 
 57 58  1  0  0  0  0 
 57 59  1  0  0  0  0 
 36 59  1  0  0  0  0 
 59 60  1  0  0  0  0 
 59 61  1  0  0  0  0 
M  CHG  1  45   1
M  CHG  1  56  -1
M  END
> <Rank>
11

> <Priority_score>
0.332

> <Reaction_type>
N-oxidation

> <Parent_ID>
58

> <Parent_InChI>
InChI=1S/C22H30N6OS/c1-17-13-21(28(24-17)18-5-3-2-4-6-18)26-9-7-25(8-10-26)19-14-20(23-15-19)22(29)27-11-12-30-16-27/h2-6,13,19-20,23H,7-12,14-16H2,1H3

> <Parent_SMILES>
Cc1cc(N2CCN([C@H]3CN[C@H](C(=O)N4CCSC4)C3)CC2)n(-c2ccccc2)n1

$$$$
Molecule 58_metabolite 12
  CDK     0516241031

 12 12  0  0  0  0  0  0  0  0999 V2000
    0.7500   -0.1945    0.0000 C   0  0  0  0  0  0  0  0  0  0  0  0
    0.5936   -1.6863    0.0000 H   0  0  0  0  0  0  0  0  0  0  0  0
    2.2174   -0.5055    0.0000 H   0  0  0  0  0  0  0  0  0  0  0  0
    1.2100    1.2255    0.0000 C   0  0  0  0  0  0  0  0  0  0  0  0
    2.5795    0.6135    0.0000 H   0  0  0  0  0  0  0  0  0  0  0  0
    1.9647    2.5218    0.0000 H   0  0  0  0  0  0  0  0  0  0  0  0
    0.0000    2.1155    0.0000 S   0  0  0  0  0  0  0  0  0  0  0  0
   -1.2100    1.2255    0.0000 C   0  0  0  0  0  0  0  0  0  0  0  0
   -1.9647    2.5218    0.0000 H   0  0  0  0  0  0  0  0  0  0  0  0
   -2.5795    0.6135    0.0000 H   0  0  0  0  0  0  0  0  0  0  0  0
   -0.7500   -0.1945    0.0000 N   0  0  0  0  0  0  0  0  0  0  0  0
   -1.6322   -1.4076    0.0000 H   0  0  0  0  0  0  0  0  0  0  0  0
  1  2  1  0  0  0  0 
  1  3  1  0  0  0  0 
  1  4  1  0  0  0  0 
  4  5  1  0  0  0  0 
  4  6  1  0  0  0  0 
  4  7  1  0  0  0  0 
  7  8  1  0  0  0  0 
  8  9  1  0  0  0  0 
  8 10  1  0  0  0  0 
  8 11  1  0  0  0  0 
  1 11  1  0  0  0  0 
 11 12  1  0  0  0  0 
M  END
> <Rank>
11

> <Priority_score>
0.332

> <Reaction_type>
hydrolysis_(tertiary_amide)

> <Parent_ID>
58

> <Parent_InChI>
InChI=1S/C22H30N6OS/c1-17-13-21(28(24-17)18-5-3-2-4-6-18)26-9-7-25(8-10-26)19-14-20(23-15-19)22(29)27-11-12-30-16-27/h2-6,13,19-20,23H,7-12,14-16H2,1H3

> <Parent_SMILES>
Cc1cc(N2CCN([C@H]3CN[C@H](C(=O)N4CCSC4)C3)CC2)n(-c2ccccc2)n1

$$$$
Molecule 58_metabolite 13
  CDK     0516241031

 61 65  0  0  0  0  0  0  0  0999 V2000
   -5.2072   -2.8468    0.0000 C   0  0  0  0  0  0  0  0  0  0  0  0
   -6.2137   -1.7346    0.0000 H   0  0  0  0  0  0  0  0  0  0  0  0
   -6.4773   -3.6449    0.0000 H   0  0  0  0  0  0  0  0  0  0  0  0
   -4.6418   -4.2362    0.0000 H   0  0  0  0  0  0  0  0  0  0  0  0
   -3.7408   -2.5313    0.0000 C   0  0  0  0  0  0  0  0  0  0  0  0
   -3.1379   -1.1555    0.0000 N   0  0  0  0  0  0  0  0  0  0  0  0
   -1.6450   -1.3213    0.0000 N   0  0  0  0  0  0  0  0  0  0  0  0
   -0.3164    0.1468    0.0000 C   0  0  0  0  0  0  0  0  0  0  0  0
    1.1507   -0.1694    0.0000 C   0  0  0  0  0  0  0  0  0  0  0  0
    1.6104   -1.5972    0.0000 H   0  0  0  0  0  0  0  0  0  0  0  0
    2.1572    0.9429    0.0000 C   0  0  0  0  0  0  0  0  0  0  0  0
    3.6237    0.6276    0.0000 H   0  0  0  0  0  0  0  0  0  0  0  0
    1.6965    2.3712    0.0000 C   0  0  0  0  0  0  0  0  0  0  0  0
    2.7030    3.4835    0.0000 H   0  0  0  0  0  0  0  0  0  0  0  0
    0.2293    2.6874    0.0000 C   0  0  0  0  0  0  0  0  0  0  0  0
   -0.2304    4.1152    0.0000 H   0  0  0  0  0  0  0  0  0  0  0  0
   -0.7771    1.5752    0.0000 C   0  0  0  0  0  0  0  0  0  0  0  0
   -2.2436    1.8905    0.0000 H   0  0  0  0  0  0  0  0  0  0  0  0
   -1.3334   -2.7811    0.0000 C   0  0  0  0  0  0  0  0  0  0  0  0
   -2.6324   -3.5311    0.0000 C   0  0  0  0  0  0  0  0  0  0  0  0
   -2.7898   -5.0228    0.0000 H   0  0  0  0  0  0  0  0  0  0  0  0
    0.4758   -3.5856    0.0000 N   0  0  0  0  0  0  0  0  0  0  0  0
    0.6336   -5.0781    0.0000 C   0  0  0  0  0  0  0  0  0  0  0  0
   -0.8628   -4.9741    0.0000 H   0  0  0  0  0  0  0  0  0  0  0  0
    0.2710   -6.5336    0.0000 H   0  0  0  0  0  0  0  0  0  0  0  0
    2.0047   -5.6886    0.0000 C   0  0  0  0  0  0  0  0  0  0  0  0
    1.1659   -6.9322    0.0000 H   0  0  0  0  0  0  0  0  0  0  0  0
    3.0838   -6.7304    0.0000 H   0  0  0  0  0  0  0  0  0  0  0  0
    3.2179   -4.8066    0.0000 N   0  0  0  0  0  0  0  0  0  0  0  0
    3.0602   -3.3141    0.0000 C   0  0  0  0  0  0  0  0  0  0  0  0
    4.5565   -3.4181    0.0000 H   0  0  0  0  0  0  0  0  0  0  0  0
    3.4228   -1.8586    0.0000 H   0  0  0  0  0  0  0  0  0  0  0  0
    1.6891   -2.7036    0.0000 C   0  0  0  0  0  0  0  0  0  0  0  0
    2.5278   -1.4600    0.0000 H   0  0  0  0  0  0  0  0  0  0  0  0
    0.6099   -1.6618    0.0000 H   0  0  0  0  0  0  0  0  0  0  0  0
    5.9043   -6.0012    0.0000 C   0  0  2  0  0  0  0  0  0  0  0  0
    5.1552   -7.3008    0.0000 H   0  0  0  0  0  0  0  0  0  0  0  0
    7.1187   -6.8816    0.0000 C   0  0  0  0  0  0  0  0  0  0  0  0
    6.1165   -7.9977    0.0000 H   0  0  0  0  0  0  0  0  0  0  0  0
    8.1242   -7.9947    0.0000 H   0  0  0  0  0  0  0  0  0  0  0  0
    8.3246   -6.0020    0.0000 C   0  0  1  0  0  0  0  0  0  0  0  0
    9.3140   -7.7170    0.0000 C   0  0  0  0  0  0  0  0  0  0  0  0
    8.5636   -9.0158    0.0000 O   0  0  0  0  0  0  0  0  0  0  0  0
   10.8140   -7.7175    0.0000 N   0  0  0  0  0  0  0  0  0  0  0  0
   11.6958   -8.9310    0.0000 C   0  0  0  0  0  0  0  0  0  0  0  0
   10.3971   -9.6815    0.0000 H   0  0  0  0  0  0  0  0  0  0  0  0
   12.3069  -10.3009    0.0000 H   0  0  0  0  0  0  0  0  0  0  0  0
   13.1150   -8.4683    0.0000 C   0  0  0  0  0  0  0  0  0  0  0  0
   13.4250   -9.9359    0.0000 H   0  0  0  0  0  0  0  0  0  0  0  0
   14.6073   -8.3168    0.0000 H   0  0  0  0  0  0  0  0  0  0  0  0
   13.1236   -6.9663    0.0000 S   0  0  0  0  0  0  0  0  0  0  0  0
   11.6923   -6.5107    0.0000 C   0  0  0  0  0  0  0  0  0  0  0  0
   12.2973   -5.1381    0.0000 H   0  0  0  0  0  0  0  0  0  0  0  0
   10.3922   -5.7626    0.0000 H   0  0  0  0  0  0  0  0  0  0  0  0
    7.8674   -4.5712    0.0000 N   0  0  0  0  0  0  0  0  0  0  0  0
    8.7478   -3.3568    0.0000 H   0  0  0  0  0  0  0  0  0  0  0  0
    6.3653   -4.5816    0.0000 C   0  0  0  0  0  0  0  0  0  0  0  0
    6.5152   -3.0891    0.0000 H   0  0  0  0  0  0  0  0  0  0  0  0
    4.8974   -4.2732    0.0000 H   0  0  0  0  0  0  0  0  0  0  0  0
    9.6965   -5.3954    0.0000 O   0  0  0  0  0  0  0  0  0  0  0  0
    9.8571   -3.9040    0.0000 H   0  0  0  0  0  0  0  0  0  0  0  0
  1  2  1  0  0  0  0 
  1  3  1  0  0  0  0 
  1  4  1  0  0  0  0 
  1  5  1  0  0  0  0 
  5  6  2  0  0  0  0 
  6  7  1  0  0  0  0 
  7  8  1  0  0  0  0 
  8  9  2  0  0  0  0 
  9 10  1  0  0  0  0 
  9 11  1  0  0  0  0 
 11 12  1  0  0  0  0 
 11 13  2  0  0  0  0 
 13 14  1  0  0  0  0 
 13 15  1  0  0  0  0 
 15 16  1  0  0  0  0 
 15 17  2  0  0  0  0 
  8 17  1  0  0  0  0 
 17 18  1  0  0  0  0 
  7 19  1  0  0  0  0 
 19 20  2  0  0  0  0 
  5 20  1  0  0  0  0 
 20 21  1  0  0  0  0 
 19 22  1  0  0  0  0 
 22 23  1  0  0  0  0 
 23 24  1  0  0  0  0 
 23 25  1  0  0  0  0 
 23 26  1  0  0  0  0 
 26 27  1  0  0  0  0 
 26 28  1  0  0  0  0 
 26 29  1  0  0  0  0 
 29 30  1  0  0  0  0 
 30 31  1  0  0  0  0 
 30 32  1  0  0  0  0 
 30 33  1  0  0  0  0 
 22 33  1  0  0  0  0 
 33 34  1  0  0  0  0 
 33 35  1  0  0  0  0 
 36 29  1  1  0  0  0 
 36 37  1  6  0  0  0 
 36 38  1  0  0  0  0 
 38 39  1  0  0  0  0 
 38 40  1  0  0  0  0 
 38 41  1  0  0  0  0 
 41 42  1  6  0  0  0 
 42 43  2  0  0  0  0 
 42 44  1  0  0  0  0 
 44 45  1  0  0  0  0 
 45 46  1  0  0  0  0 
 45 47  1  0  0  0  0 
 45 48  1  0  0  0  0 
 48 49  1  0  0  0  0 
 48 50  1  0  0  0  0 
 48 51  1  0  0  0  0 
 51 52  1  0  0  0  0 
 44 52  1  0  0  0  0 
 52 53  1  0  0  0  0 
 52 54  1  0  0  0  0 
 41 55  1  0  0  0  0 
 55 56  1  0  0  0  0 
 55 57  1  0  0  0  0 
 36 57  1  0  0  0  0 
 57 58  1  0  0  0  0 
 57 59  1  0  0  0  0 
 41 60  1  1  0  0  0 
 60 61  1  0  0  0  0 
M  END
> <Rank>
11

> <Priority_score>
0.332

> <Reaction_type>
aliphatic_hydroxylation_(tert_carbon_next_to_SP2)

> <Parent_ID>
58

> <Parent_InChI>
InChI=1S/C22H30N6OS/c1-17-13-21(28(24-17)18-5-3-2-4-6-18)26-9-7-25(8-10-26)19-14-20(23-15-19)22(29)27-11-12-30-16-27/h2-6,13,19-20,23H,7-12,14-16H2,1H3

> <Parent_SMILES>
Cc1cc(N2CCN([C@H]3CN[C@H](C(=O)N4CCSC4)C3)CC2)n(-c2ccccc2)n1

$$$$
Molecule 58_metabolite 14
  CDK     0516241031

 51 54  0  0  0  0  0  0  0  0999 V2000
    9.3920    0.2613    0.0000 C   0  0  0  0  0  0  0  0  0  0  0  0
   10.8197   -0.1987    0.0000 H   0  0  0  0  0  0  0  0  0  0  0  0
   10.0929    1.5875    0.0000 H   0  0  0  0  0  0  0  0  0  0  0  0
    8.2077    1.1818    0.0000 H   0  0  0  0  0  0  0  0  0  0  0  0
    8.2798   -0.7452    0.0000 C   0  0  0  0  0  0  0  0  0  0  0  0
    8.4455   -2.2381    0.0000 N   0  0  0  0  0  0  0  0  0  0  0  0
    7.0698   -2.8410    0.0000 N   0  0  0  0  0  0  0  0  0  0  0  0
    6.6533   -4.7767    0.0000 C   0  0  0  0  0  0  0  0  0  0  0  0
    5.2246   -5.2364    0.0000 C   0  0  0  0  0  0  0  0  0  0  0  0
    4.1125   -4.2298    0.0000 H   0  0  0  0  0  0  0  0  0  0  0  0
    4.9091   -6.7029    0.0000 C   0  0  0  0  0  0  0  0  0  0  0  0
    3.4814   -7.1631    0.0000 H   0  0  0  0  0  0  0  0  0  0  0  0
    6.0222   -7.7095    0.0000 C   0  0  0  0  0  0  0  0  0  0  0  0
    5.7067   -9.1760    0.0000 H   0  0  0  0  0  0  0  0  0  0  0  0
    7.4509   -7.2498    0.0000 C   0  0  0  0  0  0  0  0  0  0  0  0
    8.5630   -8.2564    0.0000 H   0  0  0  0  0  0  0  0  0  0  0  0
    7.7664   -5.7833    0.0000 C   0  0  0  0  0  0  0  0  0  0  0  0
    9.1941   -5.3231    0.0000 H   0  0  0  0  0  0  0  0  0  0  0  0
    6.0700   -1.7326    0.0000 C   0  0  0  0  0  0  0  0  0  0  0  0
    6.8200   -0.4336    0.0000 C   0  0  0  0  0  0  0  0  0  0  0  0
    6.2105    0.9370    0.0000 H   0  0  0  0  0  0  0  0  0  0  0  0
    4.1009   -1.9404    0.0000 N   0  0  0  0  0  0  0  0  0  0  0  0
    3.2180   -0.7268    0.0000 C   0  0  0  0  0  0  0  0  0  0  0  0
    4.5660   -0.0687    0.0000 H   0  0  0  0  0  0  0  0  0  0  0  0
    2.8043    0.7151    0.0000 H   0  0  0  0  0  0  0  0  0  0  0  0
    1.7254   -0.8836    0.0000 C   0  0  0  0  0  0  0  0  0  0  0  0
    1.8300    0.6128    0.0000 H   0  0  0  0  0  0  0  0  0  0  0  0
    0.2699   -0.5210    0.0000 H   0  0  0  0  0  0  0  0  0  0  0  0
    1.1157   -2.2541    0.0000 N   0  0  0  0  0  0  0  0  0  0  0  0
    1.9986   -3.4677    0.0000 C   0  0  0  0  0  0  0  0  0  0  0  0
    0.6507   -4.1258    0.0000 H   0  0  0  0  0  0  0  0  0  0  0  0
    2.4123   -4.9096    0.0000 H   0  0  0  0  0  0  0  0  0  0  0  0
    3.4912   -3.3109    0.0000 C   0  0  0  0  0  0  0  0  0  0  0  0
    3.3867   -4.8073    0.0000 H   0  0  0  0  0  0  0  0  0  0  0  0
    4.9467   -3.6735    0.0000 H   0  0  0  0  0  0  0  0  0  0  0  0
   -1.8081   -2.5627    0.0000 C   0  0  2  0  0  0  0  0  0  0  0  0
   -1.8092   -1.0627    0.0000 H   0  0  0  0  0  0  0  0  0  0  0  0
   -3.3000   -2.4074    0.0000 C   0  0  0  0  0  0  0  0  0  0  0  0
   -2.9901   -0.9398    0.0000 H   0  0  0  0  0  0  0  0  0  0  0  0
   -4.7273   -1.9462    0.0000 H   0  0  0  0  0  0  0  0  0  0  0  0
   -3.9045   -3.7722    0.0000 C   0  0  1  0  0  0  0  0  0  0  0  0
   -5.2033   -3.0217    0.0000 H   0  0  0  0  0  0  0  0  0  0  0  0
   -4.7893   -4.9834    0.0000 C   0  0  0  0  0  0  0  0  0  0  0  0
   -4.1828   -6.3553    0.0000 O   0  0  0  0  0  0  0  0  0  0  0  0
   -6.2807   -4.8228    0.0000 O   0  0  0  0  0  0  0  0  0  0  0  0
   -7.1655   -6.0340    0.0000 H   0  0  0  0  0  0  0  0  0  0  0  0
   -2.7931   -4.7826    0.0000 N   0  0  0  0  0  0  0  0  0  0  0  0
   -2.9484   -6.2746    0.0000 H   0  0  0  0  0  0  0  0  0  0  0  0
   -1.4975   -4.0227    0.0000 C   0  0  0  0  0  0  0  0  0  0  0  0
   -0.8810   -5.3901    0.0000 H   0  0  0  0  0  0  0  0  0  0  0  0
   -0.0720   -3.5557    0.0000 H   0  0  0  0  0  0  0  0  0  0  0  0
  1  2  1  0  0  0  0 
  1  3  1  0  0  0  0 
  1  4  1  0  0  0  0 
  1  5  1  0  0  0  0 
  5  6  2  0  0  0  0 
  6  7  1  0  0  0  0 
  7  8  1  0  0  0  0 
  8  9  2  0  0  0  0 
  9 10  1  0  0  0  0 
  9 11  1  0  0  0  0 
 11 12  1  0  0  0  0 
 11 13  2  0  0  0  0 
 13 14  1  0  0  0  0 
 13 15  1  0  0  0  0 
 15 16  1  0  0  0  0 
 15 17  2  0  0  0  0 
  8 17  1  0  0  0  0 
 17 18  1  0  0  0  0 
  7 19  1  0  0  0  0 
 19 20  2  0  0  0  0 
  5 20  1  0  0  0  0 
 20 21  1  0  0  0  0 
 19 22  1  0  0  0  0 
 22 23  1  0  0  0  0 
 23 24  1  0  0  0  0 
 23 25  1  0  0  0  0 
 23 26  1  0  0  0  0 
 26 27  1  0  0  0  0 
 26 28  1  0  0  0  0 
 26 29  1  0  0  0  0 
 29 30  1  0  0  0  0 
 30 31  1  0  0  0  0 
 30 32  1  0  0  0  0 
 30 33  1  0  0  0  0 
 22 33  1  0  0  0  0 
 33 34  1  0  0  0  0 
 33 35  1  0  0  0  0 
 36 29  1  1  0  0  0 
 36 37  1  6  0  0  0 
 36 38  1  0  0  0  0 
 38 39  1  0  0  0  0 
 38 40  1  0  0  0  0 
 38 41  1  0  0  0  0 
 41 42  1  1  0  0  0 
 41 43  1  6  0  0  0 
 43 44  2  0  0  0  0 
 43 45  1  0  0  0  0 
 45 46  1  0  0  0  0 
 41 47  1  0  0  0  0 
 47 48  1  0  0  0  0 
 47 49  1  0  0  0  0 
 36 49  1  0  0  0  0 
 49 50  1  0  0  0  0 
 49 51  1  0  0  0  0 
M  END
> <Rank>
11

> <Priority_score>
0.332

> <Reaction_type>
hydrolysis_(tertiary_amide)

> <Parent_ID>
58

> <Parent_InChI>
InChI=1S/C22H30N6OS/c1-17-13-21(28(24-17)18-5-3-2-4-6-18)26-9-7-25(8-10-26)19-14-20(23-15-19)22(29)27-11-12-30-16-27/h2-6,13,19-20,23H,7-12,14-16H2,1H3

> <Parent_SMILES>
Cc1cc(N2CCN([C@H]3CN[C@H](C(=O)N4CCSC4)C3)CC2)n(-c2ccccc2)n1

$$$$
Molecule 58_metabolite 15
  CDK     0516241031

 61 65  0  0  0  0  0  0  0  0999 V2000
   12.3659   -2.0114    0.0000 C   0  0  0  0  0  0  0  0  0  0  0  0
   13.7936   -2.4713    0.0000 H   0  0  0  0  0  0  0  0  0  0  0  0
   13.0668   -0.6852    0.0000 H   0  0  0  0  0  0  0  0  0  0  0  0
   11.1816   -1.0908    0.0000 H   0  0  0  0  0  0  0  0  0  0  0  0
   11.2537   -3.0178    0.0000 C   0  0  0  0  0  0  0  0  0  0  0  0
   11.4194   -4.5107    0.0000 N   0  0  0  0  0  0  0  0  0  0  0  0
   10.0437   -5.1136    0.0000 N   0  0  0  0  0  0  0  0  0  0  0  0
    9.6272   -7.0493    0.0000 C   0  0  0  0  0  0  0  0  0  0  0  0
    8.1985   -7.5091    0.0000 C   0  0  0  0  0  0  0  0  0  0  0  0
    7.0865   -6.5024    0.0000 H   0  0  0  0  0  0  0  0  0  0  0  0
    7.8830   -8.9755    0.0000 C   0  0  0  0  0  0  0  0  0  0  0  0
    6.4553   -9.4357    0.0000 H   0  0  0  0  0  0  0  0  0  0  0  0
    8.9961   -9.9822    0.0000 C   0  0  0  0  0  0  0  0  0  0  0  0
    8.6806  -11.4486    0.0000 H   0  0  0  0  0  0  0  0  0  0  0  0
   10.4248   -9.5224    0.0000 C   0  0  0  0  0  0  0  0  0  0  0  0
   11.5369  -10.5291    0.0000 H   0  0  0  0  0  0  0  0  0  0  0  0
   10.7403   -8.0560    0.0000 C   0  0  0  0  0  0  0  0  0  0  0  0
   12.1680   -7.5958    0.0000 H   0  0  0  0  0  0  0  0  0  0  0  0
    9.0439   -4.0052    0.0000 C   0  0  0  0  0  0  0  0  0  0  0  0
    9.7939   -2.7062    0.0000 C   0  0  0  0  0  0  0  0  0  0  0  0
    9.1844   -1.3356    0.0000 H   0  0  0  0  0  0  0  0  0  0  0  0
    7.0749   -4.2131    0.0000 N   0  0  0  0  0  0  0  0  0  0  0  0
    6.1920   -2.9994    0.0000 C   0  0  0  0  0  0  0  0  0  0  0  0
    7.5399   -2.3413    0.0000 H   0  0  0  0  0  0  0  0  0  0  0  0
    5.7782   -1.5576    0.0000 H   0  0  0  0  0  0  0  0  0  0  0  0
    4.6993   -3.1562    0.0000 C   0  0  0  0  0  0  0  0  0  0  0  0
    4.8039   -1.6599    0.0000 H   0  0  0  0  0  0  0  0  0  0  0  0
    3.2438   -2.7936    0.0000 H   0  0  0  0  0  0  0  0  0  0  0  0
    4.0896   -4.5267    0.0000 N   0  0  0  0  0  0  0  0  0  0  0  0
    4.9725   -5.7404    0.0000 C   0  0  0  0  0  0  0  0  0  0  0  0
    3.6246   -6.3985    0.0000 H   0  0  0  0  0  0  0  0  0  0  0  0
    5.3862   -7.1822    0.0000 H   0  0  0  0  0  0  0  0  0  0  0  0
    6.4651   -5.5836    0.0000 C   0  0  0  0  0  0  0  0  0  0  0  0
    6.3606   -7.0799    0.0000 H   0  0  0  0  0  0  0  0  0  0  0  0
    7.9206   -5.9462    0.0000 H   0  0  0  0  0  0  0  0  0  0  0  0
    1.1659   -4.8353    0.0000 C   0  0  2  0  0  0  0  0  0  0  0  0
    1.1648   -3.3353    0.0000 H   0  0  0  0  0  0  0  0  0  0  0  0
   -0.3261   -4.6801    0.0000 C   0  0  0  0  0  0  0  0  0  0  0  0
   -0.0162   -3.2124    0.0000 H   0  0  0  0  0  0  0  0  0  0  0  0
   -1.7534   -4.2188    0.0000 H   0  0  0  0  0  0  0  0  0  0  0  0
   -0.9306   -6.0448    0.0000 C   0  0  1  0  0  0  0  0  0  0  0  0
   -2.2294   -5.2944    0.0000 H   0  0  0  0  0  0  0  0  0  0  0  0
   -1.8154   -7.2561    0.0000 C   0  0  0  0  0  0  0  0  0  0  0  0
   -1.2088   -8.6280    0.0000 O   0  0  0  0  0  0  0  0  0  0  0  0
   -3.7840   -7.0440    0.0000 N   0  0  0  0  0  0  0  0  0  0  0  0
   -4.7861   -8.1502    0.0000 C   0  0  0  0  0  0  0  0  0  0  0  0
   -5.5342   -9.4504    0.0000 H   0  0  0  0  0  0  0  0  0  0  0  0
   -3.5733   -9.0329    0.0000 H   0  0  0  0  0  0  0  0  0  0  0  0
   -6.1606   -7.5444    0.0000 S   0  0  0  0  0  0  0  0  0  0  0  0
   -5.9916   -6.0519    0.0000 C   0  0  0  0  0  0  0  0  0  0  0  0
   -6.1432   -4.5595    0.0000 H   0  0  0  0  0  0  0  0  0  0  0  0
   -7.4916   -6.0432    0.0000 H   0  0  0  0  0  0  0  0  0  0  0  0
   -4.5312   -5.7434    0.0000 C   0  0  0  0  0  0  0  0  0  0  0  0
   -3.1598   -5.1358    0.0000 H   0  0  0  0  0  0  0  0  0  0  0  0
   -4.9925   -4.3161    0.0000 O   0  0  0  0  0  0  0  0  0  0  0  0
   -3.9871   -3.2029    0.0000 H   0  0  0  0  0  0  0  0  0  0  0  0
    0.1808   -7.0553    0.0000 N   0  0  0  0  0  0  0  0  0  0  0  0
    0.0255   -8.5472    0.0000 H   0  0  0  0  0  0  0  0  0  0  0  0
    1.4764   -6.2953    0.0000 C   0  0  0  0  0  0  0  0  0  0  0  0
    2.0929   -7.6628    0.0000 H   0  0  0  0  0  0  0  0  0  0  0  0
    2.9019   -5.8284    0.0000 H   0  0  0  0  0  0  0  0  0  0  0  0
  1  2  1  0  0  0  0 
  1  3  1  0  0  0  0 
  1  4  1  0  0  0  0 
  1  5  1  0  0  0  0 
  5  6  2  0  0  0  0 
  6  7  1  0  0  0  0 
  7  8  1  0  0  0  0 
  8  9  2  0  0  0  0 
  9 10  1  0  0  0  0 
  9 11  1  0  0  0  0 
 11 12  1  0  0  0  0 
 11 13  2  0  0  0  0 
 13 14  1  0  0  0  0 
 13 15  1  0  0  0  0 
 15 16  1  0  0  0  0 
 15 17  2  0  0  0  0 
  8 17  1  0  0  0  0 
 17 18  1  0  0  0  0 
  7 19  1  0  0  0  0 
 19 20  2  0  0  0  0 
  5 20  1  0  0  0  0 
 20 21  1  0  0  0  0 
 19 22  1  0  0  0  0 
 22 23  1  0  0  0  0 
 23 24  1  0  0  0  0 
 23 25  1  0  0  0  0 
 23 26  1  0  0  0  0 
 26 27  1  0  0  0  0 
 26 28  1  0  0  0  0 
 26 29  1  0  0  0  0 
 29 30  1  0  0  0  0 
 30 31  1  0  0  0  0 
 30 32  1  0  0  0  0 
 30 33  1  0  0  0  0 
 22 33  1  0  0  0  0 
 33 34  1  0  0  0  0 
 33 35  1  0  0  0  0 
 36 29  1  1  0  0  0 
 36 37  1  6  0  0  0 
 36 38  1  0  0  0  0 
 38 39  1  0  0  0  0 
 38 40  1  0  0  0  0 
 38 41  1  0  0  0  0 
 41 42  1  1  0  0  0 
 41 43  1  6  0  0  0 
 43 44  2  0  0  0  0 
 43 45  1  0  0  0  0 
 45 46  1  0  0  0  0 
 46 47  1  0  0  0  0 
 46 48  1  0  0  0  0 
 46 49  1  0  0  0  0 
 49 50  1  0  0  0  0 
 50 51  1  0  0  0  0 
 50 52  1  0  0  0  0 
 50 53  1  0  0  0  0 
 45 53  1  0  0  0  0 
 53 54  1  0  0  0  0 
 53 55  1  0  0  0  0 
 55 56  1  0  0  0  0 
 41 57  1  0  0  0  0 
 57 58  1  0  0  0  0 
 57 59  1  0  0  0  0 
 36 59  1  0  0  0  0 
 59 60  1  0  0  0  0 
 59 61  1  0  0  0  0 
M  END
> <Rank>
15

> <Priority_score>
0.256

> <Reaction_type>
aliphatic_hydroxylation_(sec_carbon_next_to_SP2,in_a_ring)

> <Parent_ID>
58

> <Parent_InChI>
InChI=1S/C22H30N6OS/c1-17-13-21(28(24-17)18-5-3-2-4-6-18)26-9-7-25(8-10-26)19-14-20(23-15-19)22(29)27-11-12-30-16-27/h2-6,13,19-20,23H,7-12,14-16H2,1H3

> <Parent_SMILES>
Cc1cc(N2CCN([C@H]3CN[C@H](C(=O)N4CCSC4)C3)CC2)n(-c2ccccc2)n1

$$$$
Molecule 58_metabolite 16
  CDK     0516241031

 59 63  0  0  0  0  0  0  0  0999 V2000
   -4.5200   -8.0295    0.0000 C   0  0  0  0  0  0  0  0  0  0  0  0
   -5.9478   -7.5696    0.0000 H   0  0  0  0  0  0  0  0  0  0  0  0
   -5.2210   -9.3557    0.0000 H   0  0  0  0  0  0  0  0  0  0  0  0
   -3.3357   -8.9501    0.0000 H   0  0  0  0  0  0  0  0  0  0  0  0
   -3.4078   -7.0231    0.0000 C   0  0  0  0  0  0  0  0  0  0  0  0
   -3.5736   -5.5302    0.0000 N   0  0  0  0  0  0  0  0  0  0  0  0
   -2.1978   -4.9273    0.0000 N   0  0  0  0  0  0  0  0  0  0  0  0
   -1.7813   -2.9916    0.0000 C   0  0  0  0  0  0  0  0  0  0  0  0
   -0.3527   -2.5318    0.0000 C   0  0  0  0  0  0  0  0  0  0  0  0
    0.7594   -3.5385    0.0000 H   0  0  0  0  0  0  0  0  0  0  0  0
   -0.0372   -1.0654    0.0000 C   0  0  0  0  0  0  0  0  0  0  0  0
    1.3905   -0.6052    0.0000 H   0  0  0  0  0  0  0  0  0  0  0  0
   -1.1503   -0.0587    0.0000 C   0  0  0  0  0  0  0  0  0  0  0  0
   -0.8348    1.4077    0.0000 H   0  0  0  0  0  0  0  0  0  0  0  0
   -2.5790   -0.5185    0.0000 C   0  0  0  0  0  0  0  0  0  0  0  0
   -3.6910    0.4882    0.0000 H   0  0  0  0  0  0  0  0  0  0  0  0
   -2.8945   -1.9849    0.0000 C   0  0  0  0  0  0  0  0  0  0  0  0
   -4.3222   -2.4451    0.0000 H   0  0  0  0  0  0  0  0  0  0  0  0
   -1.1981   -6.0357    0.0000 C   0  0  0  0  0  0  0  0  0  0  0  0
   -1.9481   -7.3347    0.0000 C   0  0  0  0  0  0  0  0  0  0  0  0
   -1.3386   -8.7053    0.0000 H   0  0  0  0  0  0  0  0  0  0  0  0
    0.7710   -5.8278    0.0000 N   0  0  0  0  0  0  0  0  0  0  0  0
    1.6539   -7.0415    0.0000 C   0  0  0  0  0  0  0  0  0  0  0  0
    0.3060   -7.6996    0.0000 H   0  0  0  0  0  0  0  0  0  0  0  0
    2.0676   -8.4833    0.0000 H   0  0  0  0  0  0  0  0  0  0  0  0
    3.1465   -6.8847    0.0000 C   0  0  0  0  0  0  0  0  0  0  0  0
    3.0420   -8.3810    0.0000 H   0  0  0  0  0  0  0  0  0  0  0  0
    4.6020   -7.2473    0.0000 H   0  0  0  0  0  0  0  0  0  0  0  0
    3.7562   -5.5142    0.0000 N   0  0  0  0  0  0  0  0  0  0  0  0
    2.8733   -4.3005    0.0000 C   0  0  0  0  0  0  0  0  0  0  0  0
    4.2213   -3.6424    0.0000 H   0  0  0  0  0  0  0  0  0  0  0  0
    2.4596   -2.8587    0.0000 H   0  0  0  0  0  0  0  0  0  0  0  0
    1.3807   -4.4573    0.0000 C   0  0  0  0  0  0  0  0  0  0  0  0
    1.4852   -2.9610    0.0000 H   0  0  0  0  0  0  0  0  0  0  0  0
   -0.0748   -4.0947    0.0000 H   0  0  0  0  0  0  0  0  0  0  0  0
    6.6800   -5.2056    0.0000 C   0  0  2  0  0  0  0  0  0  0  0  0
    6.6811   -6.7056    0.0000 H   0  0  0  0  0  0  0  0  0  0  0  0
    8.1719   -5.3608    0.0000 C   0  0  0  0  0  0  0  0  0  0  0  0
    7.8620   -6.8285    0.0000 H   0  0  0  0  0  0  0  0  0  0  0  0
    9.5993   -5.8221    0.0000 H   0  0  0  0  0  0  0  0  0  0  0  0
    8.7764   -3.9961    0.0000 C   0  0  1  0  0  0  0  0  0  0  0  0
   10.0752   -4.7465    0.0000 H   0  0  0  0  0  0  0  0  0  0  0  0
    9.6612   -2.7848    0.0000 C   0  0  0  0  0  0  0  0  0  0  0  0
    9.0547   -1.4129    0.0000 O   0  0  0  0  0  0  0  0  0  0  0  0
   11.1526   -2.9455    0.0000 N   0  0  0  0  0  0  0  0  0  0  0  0
   12.1547   -1.8392    0.0000 C   0  0  0  0  0  0  0  0  0  0  0  0
   12.9028   -0.5391    0.0000 H   0  0  0  0  0  0  0  0  0  0  0  0
   10.9419   -0.9566    0.0000 H   0  0  0  0  0  0  0  0  0  0  0  0
   13.5292   -2.4451    0.0000 S   0  0  0  0  0  0  0  0  0  0  0  0
   13.3602   -3.9376    0.0000 C   0  0  0  0  0  0  0  0  0  0  0  0
   13.5118   -5.4299    0.0000 H   0  0  0  0  0  0  0  0  0  0  0  0
   14.8602   -3.9462    0.0000 H   0  0  0  0  0  0  0  0  0  0  0  0
   11.8998   -4.2461    0.0000 C   0  0  0  0  0  0  0  0  0  0  0  0
   11.2874   -5.6154    0.0000 O   0  0  0  0  0  0  0  0  0  0  0  0
    7.6650   -2.9856    0.0000 N   0  0  0  0  0  0  0  0  0  0  0  0
    7.8203   -1.4937    0.0000 H   0  0  0  0  0  0  0  0  0  0  0  0
    6.3694   -3.7456    0.0000 C   0  0  0  0  0  0  0  0  0  0  0  0
    5.7530   -2.3781    0.0000 H   0  0  0  0  0  0  0  0  0  0  0  0
    4.9440   -4.2125    0.0000 H   0  0  0  0  0  0  0  0  0  0  0  0
  1  2  1  0  0  0  0 
  1  3  1  0  0  0  0 
  1  4  1  0  0  0  0 
  1  5  1  0  0  0  0 
  5  6  2  0  0  0  0 
  6  7  1  0  0  0  0 
  7  8  1  0  0  0  0 
  8  9  2  0  0  0  0 
  9 10  1  0  0  0  0 
  9 11  1  0  0  0  0 
 11 12  1  0  0  0  0 
 11 13  2  0  0  0  0 
 13 14  1  0  0  0  0 
 13 15  1  0  0  0  0 
 15 16  1  0  0  0  0 
 15 17  2  0  0  0  0 
  8 17  1  0  0  0  0 
 17 18  1  0  0  0  0 
  7 19  1  0  0  0  0 
 19 20  2  0  0  0  0 
  5 20  1  0  0  0  0 
 20 21  1  0  0  0  0 
 19 22  1  0  0  0  0 
 22 23  1  0  0  0  0 
 23 24  1  0  0  0  0 
 23 25  1  0  0  0  0 
 23 26  1  0  0  0  0 
 26 27  1  0  0  0  0 
 26 28  1  0  0  0  0 
 26 29  1  0  0  0  0 
 29 30  1  0  0  0  0 
 30 31  1  0  0  0  0 
 30 32  1  0  0  0  0 
 30 33  1  0  0  0  0 
 22 33  1  0  0  0  0 
 33 34  1  0  0  0  0 
 33 35  1  0  0  0  0 
 36 29  1  1  0  0  0 
 36 37  1  6  0  0  0 
 36 38  1  0  0  0  0 
 38 39  1  0  0  0  0 
 38 40  1  0  0  0  0 
 38 41  1  0  0  0  0 
 41 42  1  1  0  0  0 
 41 43  1  6  0  0  0 
 43 44  2  0  0  0  0 
 43 45  1  0  0  0  0 
 45 46  1  0  0  0  0 
 46 47  1  0  0  0  0 
 46 48  1  0  0  0  0 
 46 49  1  0  0  0  0 
 49 50  1  0  0  0  0 
 50 51  1  0  0  0  0 
 50 52  1  0  0  0  0 
 50 53  1  0  0  0  0 
 45 53  1  0  0  0  0 
 53 54  2  0  0  0  0 
 41 55  1  0  0  0  0 
 55 56  1  0  0  0  0 
 55 57  1  0  0  0  0 
 36 57  1  0  0  0  0 
 57 58  1  0  0  0  0 
 57 59  1  0  0  0  0 
M  END
> <Rank>
15

> <Priority_score>
0.256

> <Reaction_type>
oxidation_(amine_in_a_ring)

> <Parent_ID>
58

> <Parent_InChI>
InChI=1S/C22H30N6OS/c1-17-13-21(28(24-17)18-5-3-2-4-6-18)26-9-7-25(8-10-26)19-14-20(23-15-19)22(29)27-11-12-30-16-27/h2-6,13,19-20,23H,7-12,14-16H2,1H3

> <Parent_SMILES>
Cc1cc(N2CCN([C@H]3CN[C@H](C(=O)N4CCSC4)C3)CC2)n(-c2ccccc2)n1

$$$$
Molecule 58_metabolite 17
  CDK     0516241031

 61 64  0  0  0  0  0  0  0  0999 V2000
   14.4626   -0.8148    0.0000 C   0  0  0  0  0  0  0  0  0  0  0  0
   15.8903   -1.2748    0.0000 H   0  0  0  0  0  0  0  0  0  0  0  0
   15.1635    0.5114    0.0000 H   0  0  0  0  0  0  0  0  0  0  0  0
   13.2783    0.1057    0.0000 H   0  0  0  0  0  0  0  0  0  0  0  0
   13.3504   -1.8213    0.0000 C   0  0  0  0  0  0  0  0  0  0  0  0
   13.5161   -3.3142    0.0000 N   0  0  0  0  0  0  0  0  0  0  0  0
   12.1404   -3.9171    0.0000 N   0  0  0  0  0  0  0  0  0  0  0  0
   11.7239   -5.8528    0.0000 C   0  0  0  0  0  0  0  0  0  0  0  0
   10.2952   -6.3125    0.0000 C   0  0  0  0  0  0  0  0  0  0  0  0
    9.1831   -5.3059    0.0000 H   0  0  0  0  0  0  0  0  0  0  0  0
    9.9797   -7.7790    0.0000 C   0  0  0  0  0  0  0  0  0  0  0  0
    8.5520   -8.2392    0.0000 H   0  0  0  0  0  0  0  0  0  0  0  0
   11.0928   -8.7856    0.0000 C   0  0  0  0  0  0  0  0  0  0  0  0
   10.7773  -10.2521    0.0000 H   0  0  0  0  0  0  0  0  0  0  0  0
   12.5215   -8.3259    0.0000 C   0  0  0  0  0  0  0  0  0  0  0  0
   13.6336   -9.3325    0.0000 H   0  0  0  0  0  0  0  0  0  0  0  0
   12.8370   -6.8594    0.0000 C   0  0  0  0  0  0  0  0  0  0  0  0
   14.2647   -6.3992    0.0000 H   0  0  0  0  0  0  0  0  0  0  0  0
   11.1406   -2.8087    0.0000 C   0  0  0  0  0  0  0  0  0  0  0  0
   11.8906   -1.5096    0.0000 C   0  0  0  0  0  0  0  0  0  0  0  0
   11.2811   -0.1391    0.0000 H   0  0  0  0  0  0  0  0  0  0  0  0
    9.1715   -3.0165    0.0000 N   0  0  0  0  0  0  0  0  0  0  0  0
    8.2886   -1.8028    0.0000 C   0  0  0  0  0  0  0  0  0  0  0  0
    9.6366   -1.1448    0.0000 H   0  0  0  0  0  0  0  0  0  0  0  0
    7.8749   -0.3610    0.0000 H   0  0  0  0  0  0  0  0  0  0  0  0
    6.7960   -1.9597    0.0000 C   0  0  0  0  0  0  0  0  0  0  0  0
    6.9006   -0.4633    0.0000 H   0  0  0  0  0  0  0  0  0  0  0  0
    5.3405   -1.5970    0.0000 H   0  0  0  0  0  0  0  0  0  0  0  0
    6.1863   -3.3302    0.0000 N   0  0  0  0  0  0  0  0  0  0  0  0
    7.0692   -4.5438    0.0000 C   0  0  0  0  0  0  0  0  0  0  0  0
    5.7213   -5.2019    0.0000 H   0  0  0  0  0  0  0  0  0  0  0  0
    7.4829   -5.9856    0.0000 H   0  0  0  0  0  0  0  0  0  0  0  0
    8.5618   -4.3870    0.0000 C   0  0  0  0  0  0  0  0  0  0  0  0
    8.4573   -5.8834    0.0000 H   0  0  0  0  0  0  0  0  0  0  0  0
   10.0173   -4.7496    0.0000 H   0  0  0  0  0  0  0  0  0  0  0  0
    3.2626   -3.6388    0.0000 C   0  0  2  0  0  0  0  0  0  0  0  0
    3.2614   -2.1388    0.0000 H   0  0  0  0  0  0  0  0  0  0  0  0
    1.7706   -3.4835    0.0000 C   0  0  0  0  0  0  0  0  0  0  0  0
    2.0805   -2.0159    0.0000 H   0  0  0  0  0  0  0  0  0  0  0  0
    0.3433   -3.0223    0.0000 H   0  0  0  0  0  0  0  0  0  0  0  0
    1.1661   -4.8483    0.0000 C   0  0  1  0  0  0  0  0  0  0  0  0
   -0.1327   -4.0978    0.0000 H   0  0  0  0  0  0  0  0  0  0  0  0
    0.2813   -6.0595    0.0000 C   0  0  0  0  0  0  0  0  0  0  0  0
    0.8879   -7.4314    0.0000 O   0  0  0  0  0  0  0  0  0  0  0  0
   -1.2101   -5.8989    0.0000 N   0  0  0  0  0  0  0  0  0  0  0  0
   -1.8166   -4.5270    0.0000 H   0  0  0  0  0  0  0  0  0  0  0  0
   -2.0949   -7.1101    0.0000 C   0  0  0  0  0  0  0  0  0  0  0  0
   -2.5121   -8.5509    0.0000 H   0  0  0  0  0  0  0  0  0  0  0  0
   -0.7484   -7.7711    0.0000 H   0  0  0  0  0  0  0  0  0  0  0  0
   -4.0635   -6.8981    0.0000 S   0  0  0  0  0  0  0  0  0  0  0  0
   -4.9483   -8.1093    0.0000 C   0  0  0  0  0  0  0  0  0  0  0  0
   -5.3655   -9.5501    0.0000 H   0  0  0  0  0  0  0  0  0  0  0  0
   -3.6018   -8.7703    0.0000 H   0  0  0  0  0  0  0  0  0  0  0  0
   -6.4397   -7.9487    0.0000 C   0  0  0  0  0  0  0  0  0  0  0  0
   -7.3245   -9.1599    0.0000 H   0  0  0  0  0  0  0  0  0  0  0  0
   -7.0462   -6.5768    0.0000 O   0  0  0  0  0  0  0  0  0  0  0  0
    2.2775   -5.8587    0.0000 N   0  0  0  0  0  0  0  0  0  0  0  0
    2.1222   -7.3507    0.0000 H   0  0  0  0  0  0  0  0  0  0  0  0
    3.5731   -5.0987    0.0000 C   0  0  0  0  0  0  0  0  0  0  0  0
    4.1896   -6.4662    0.0000 H   0  0  0  0  0  0  0  0  0  0  0  0
    4.9986   -4.6318    0.0000 H   0  0  0  0  0  0  0  0  0  0  0  0
  1  2  1  0  0  0  0 
  1  3  1  0  0  0  0 
  1  4  1  0  0  0  0 
  1  5  1  0  0  0  0 
  5  6  2  0  0  0  0 
  6  7  1  0  0  0  0 
  7  8  1  0  0  0  0 
  8  9  2  0  0  0  0 
  9 10  1  0  0  0  0 
  9 11  1  0  0  0  0 
 11 12  1  0  0  0  0 
 11 13  2  0  0  0  0 
 13 14  1  0  0  0  0 
 13 15  1  0  0  0  0 
 15 16  1  0  0  0  0 
 15 17  2  0  0  0  0 
  8 17  1  0  0  0  0 
 17 18  1  0  0  0  0 
  7 19  1  0  0  0  0 
 19 20  2  0  0  0  0 
  5 20  1  0  0  0  0 
 20 21  1  0  0  0  0 
 19 22  1  0  0  0  0 
 22 23  1  0  0  0  0 
 23 24  1  0  0  0  0 
 23 25  1  0  0  0  0 
 23 26  1  0  0  0  0 
 26 27  1  0  0  0  0 
 26 28  1  0  0  0  0 
 26 29  1  0  0  0  0 
 29 30  1  0  0  0  0 
 30 31  1  0  0  0  0 
 30 32  1  0  0  0  0 
 30 33  1  0  0  0  0 
 22 33  1  0  0  0  0 
 33 34  1  0  0  0  0 
 33 35  1  0  0  0  0 
 36 29  1  1  0  0  0 
 36 37  1  6  0  0  0 
 36 38  1  0  0  0  0 
 38 39  1  0  0  0  0 
 38 40  1  0  0  0  0 
 38 41  1  0  0  0  0 
 41 42  1  1  0  0  0 
 41 43  1  6  0  0  0 
 43 44  2  0  0  0  0 
 43 45  1  0  0  0  0 
 45 46  1  0  0  0  0 
 45 47  1  0  0  0  0 
 47 48  1  0  0  0  0 
 47 49  1  0  0  0  0 
 47 50  1  0  0  0  0 
 50 51  1  0  0  0  0 
 51 52  1  0  0  0  0 
 51 53  1  0  0  0  0 
 51 54  1  0  0  0  0 
 54 55  1  0  0  0  0 
 54 56  2  0  0  0  0 
 41 57  1  0  0  0  0 
 57 58  1  0  0  0  0 
 57 59  1  0  0  0  0 
 36 59  1  0  0  0  0 
 59 60  1  0  0  0  0 
 59 61  1  0  0  0  0 
M  END
> <Rank>
15

> <Priority_score>
0.256

> <Reaction_type>
N-dealkylation

> <Parent_ID>
58

> <Parent_InChI>
InChI=1S/C22H30N6OS/c1-17-13-21(28(24-17)18-5-3-2-4-6-18)26-9-7-25(8-10-26)19-14-20(23-15-19)22(29)27-11-12-30-16-27/h2-6,13,19-20,23H,7-12,14-16H2,1H3

> <Parent_SMILES>
Cc1cc(N2CCN([C@H]3CN[C@H](C(=O)N4CCSC4)C3)CC2)n(-c2ccccc2)n1

$$$$
Molecule 58_metabolite 18
  CDK     0516241031

 61 65  0  0  0  0  0  0  0  0999 V2000
  -11.3000   -6.5868    0.0000 C   0  0  0  0  0  0  0  0  0  0  0  0
  -10.7870   -7.9964    0.0000 H   0  0  0  0  0  0  0  0  0  0  0  0
  -12.7781   -6.3267    0.0000 C   0  0  0  0  0  0  0  0  0  0  0  0
  -13.7421   -7.4759    0.0000 H   0  0  0  0  0  0  0  0  0  0  0  0
  -13.2911   -4.9172    0.0000 C   0  0  0  0  0  0  0  0  0  0  0  0
  -14.7683   -4.6565    0.0000 H   0  0  0  0  0  0  0  0  0  0  0  0
  -12.3260   -3.7678    0.0000 C   0  0  0  0  0  0  0  0  0  0  0  0
  -10.8479   -4.0279    0.0000 C   0  0  0  0  0  0  0  0  0  0  0  0
   -9.8839   -2.8787    0.0000 H   0  0  0  0  0  0  0  0  0  0  0  0
  -10.3349   -5.4375    0.0000 C   0  0  0  0  0  0  0  0  0  0  0  0
   -8.8577   -5.6982    0.0000 H   0  0  0  0  0  0  0  0  0  0  0  0
  -12.8391   -2.3582    0.0000 N   0  0  0  0  0  0  0  0  0  0  0  0
  -12.2362   -0.9825    0.0000 C   0  0  0  0  0  0  0  0  0  0  0  0
  -13.3446    0.0173    0.0000 C   0  0  0  0  0  0  0  0  0  0  0  0
  -13.1871    1.5090    0.0000 H   0  0  0  0  0  0  0  0  0  0  0  0
  -14.6436   -0.7327    0.0000 C   0  0  0  0  0  0  0  0  0  0  0  0
  -14.3320   -2.1925    0.0000 N   0  0  0  0  0  0  0  0  0  0  0  0
  -16.0142   -0.1232    0.0000 C   0  0  0  0  0  0  0  0  0  0  0  0
  -17.5106   -0.0192    0.0000 H   0  0  0  0  0  0  0  0  0  0  0  0
  -16.3764   -1.5788    0.0000 H   0  0  0  0  0  0  0  0  0  0  0  0
  -16.1716    1.3685    0.0000 O   0  0  0  0  0  0  0  0  0  0  0  0
  -17.5422    1.9780    0.0000 H   0  0  0  0  0  0  0  0  0  0  0  0
  -10.3005   -0.5660    0.0000 N   0  0  0  0  0  0  0  0  0  0  0  0
   -9.2933   -1.6787    0.0000 C   0  0  0  0  0  0  0  0  0  0  0  0
  -10.5634   -2.4766    0.0000 H   0  0  0  0  0  0  0  0  0  0  0  0
   -8.7283   -3.0682    0.0000 H   0  0  0  0  0  0  0  0  0  0  0  0
   -7.8259   -1.3637    0.0000 C   0  0  0  0  0  0  0  0  0  0  0  0
   -7.7704   -2.8626    0.0000 H   0  0  0  0  0  0  0  0  0  0  0  0
   -6.3400   -1.5691    0.0000 H   0  0  0  0  0  0  0  0  0  0  0  0
   -7.3657    0.0640    0.0000 N   0  0  0  0  0  0  0  0  0  0  0  0
   -8.3729    1.1767    0.0000 C   0  0  0  0  0  0  0  0  0  0  0  0
   -7.1027    1.9746    0.0000 H   0  0  0  0  0  0  0  0  0  0  0  0
   -8.9379    2.5662    0.0000 H   0  0  0  0  0  0  0  0  0  0  0  0
   -9.8403    0.8617    0.0000 C   0  0  0  0  0  0  0  0  0  0  0  0
   -9.8958    2.3606    0.0000 H   0  0  0  0  0  0  0  0  0  0  0  0
  -11.3261    1.0671    0.0000 H   0  0  0  0  0  0  0  0  0  0  0  0
   -4.4914    0.6824    0.0000 C   0  0  2  0  0  0  0  0  0  0  0  0
   -4.3305   -0.8089    0.0000 H   0  0  0  0  0  0  0  0  0  0  0  0
   -2.9915    0.6870    0.0000 C   0  0  0  0  0  0  0  0  0  0  0  0
   -3.1432   -0.8053    0.0000 H   0  0  0  0  0  0  0  0  0  0  0  0
   -1.5231    0.3805    0.0000 H   0  0  0  0  0  0  0  0  0  0  0  0
   -2.5358    2.1084    0.0000 C   0  0  1  0  0  0  0  0  0  0  0  0
   -1.1645    1.5007    0.0000 H   0  0  0  0  0  0  0  0  0  0  0  0
   -1.7851    3.4071    0.0000 C   0  0  0  0  0  0  0  0  0  0  0  0
   -2.5344    4.7065    0.0000 O   0  0  0  0  0  0  0  0  0  0  0  0
    0.1949    3.4060    0.0000 N   0  0  0  0  0  0  0  0  0  0  0  0
    1.0764    2.1924    0.0000 C   0  0  0  0  0  0  0  0  0  0  0  0
   -0.2225    1.4421    0.0000 H   0  0  0  0  0  0  0  0  0  0  0  0
    1.6872    0.8224    0.0000 H   0  0  0  0  0  0  0  0  0  0  0  0
    2.4957    2.6548    0.0000 C   0  0  0  0  0  0  0  0  0  0  0  0
    2.8054    1.1871    0.0000 H   0  0  0  0  0  0  0  0  0  0  0  0
    3.9880    2.8060    0.0000 H   0  0  0  0  0  0  0  0  0  0  0  0
    2.5046    4.1568    0.0000 S   0  0  0  0  0  0  0  0  0  0  0  0
    1.0734    4.6127    0.0000 C   0  0  0  0  0  0  0  0  0  0  0  0
    1.6787    5.9852    0.0000 H   0  0  0  0  0  0  0  0  0  0  0  0
   -0.2266    5.3611    0.0000 H   0  0  0  0  0  0  0  0  0  0  0  0
   -3.7486    2.9947    0.0000 N   0  0  0  0  0  0  0  0  0  0  0  0
   -3.7532    4.4947    0.0000 H   0  0  0  0  0  0  0  0  0  0  0  0
   -4.9558    2.1010    0.0000 C   0  0  0  0  0  0  0  0  0  0  0  0
   -5.7145    3.3950    0.0000 H   0  0  0  0  0  0  0  0  0  0  0  0
   -6.3234    1.4848    0.0000 H   0  0  0  0  0  0  0  0  0  0  0  0
  1  2  1  0  0  0  0 
  1  3  2  0  0  0  0 
  3  4  1  0  0  0  0 
  3  5  1  0  0  0  0 
  5  6  1  0  0  0  0 
  5  7  2  0  0  0  0 
  7  8  1  0  0  0  0 
  8  9  1  0  0  0  0 
  8 10  2  0  0  0  0 
  1 10  1  0  0  0  0 
 10 11  1  0  0  0  0 
  7 12  1  0  0  0  0 
 12 13  1  0  0  0  0 
 13 14  2  0  0  0  0 
 14 15  1  0  0  0  0 
 14 16  1  0  0  0  0 
 16 17  2  0  0  0  0 
 12 17  1  0  0  0  0 
 16 18  1  0  0  0  0 
 18 19  1  0  0  0  0 
 18 20  1  0  0  0  0 
 18 21  1  0  0  0  0 
 21 22  1  0  0  0  0 
 13 23  1  0  0  0  0 
 23 24  1  0  0  0  0 
 24 25  1  0  0  0  0 
 24 26  1  0  0  0  0 
 24 27  1  0  0  0  0 
 27 28  1  0  0  0  0 
 27 29  1  0  0  0  0 
 27 30  1  0  0  0  0 
 30 31  1  0  0  0  0 
 31 32  1  0  0  0  0 
 31 33  1  0  0  0  0 
 31 34  1  0  0  0  0 
 23 34  1  0  0  0  0 
 34 35  1  0  0  0  0 
 34 36  1  0  0  0  0 
 37 30  1  1  0  0  0 
 37 38  1  6  0  0  0 
 37 39  1  0  0  0  0 
 39 40  1  0  0  0  0 
 39 41  1  0  0  0  0 
 39 42  1  0  0  0  0 
 42 43  1  1  0  0  0 
 42 44  1  6  0  0  0 
 44 45  2  0  0  0  0 
 44 46  1  0  0  0  0 
 46 47  1  0  0  0  0 
 47 48  1  0  0  0  0 
 47 49  1  0  0  0  0 
 47 50  1  0  0  0  0 
 50 51  1  0  0  0  0 
 50 52  1  0  0  0  0 
 50 53  1  0  0  0  0 
 53 54  1  0  0  0  0 
 46 54  1  0  0  0  0 
 54 55  1  0  0  0  0 
 54 56  1  0  0  0  0 
 42 57  1  0  0  0  0 
 57 58  1  0  0  0  0 
 57 59  1  0  0  0  0 
 37 59  1  0  0  0  0 
 59 60  1  0  0  0  0 
 59 61  1  0  0  0  0 
M  END
> <Rank>
18

> <Priority_score>
0.24755763604447045

> <Reaction_type>
benzylic_hydroxylation_(c-CH3)

> <Parent_ID>
58

> <Parent_InChI>
InChI=1S/C22H30N6OS/c1-17-13-21(28(24-17)18-5-3-2-4-6-18)26-9-7-25(8-10-26)19-14-20(23-15-19)22(29)27-11-12-30-16-27/h2-6,13,19-20,23H,7-12,14-16H2,1H3

> <Parent_SMILES>
Cc1cc(N2CCN([C@H]3CN[C@H](C(=O)N4CCSC4)C3)CC2)n(-c2ccccc2)n1

$$$$
Molecule 58_metabolite 19
  CDK     0516241031

 60 64  0  0  0  0  0  0  0  0999 V2000
  -11.3000   -6.5868    0.0000 C   0  0  0  0  0  0  0  0  0  0  0  0
  -10.7870   -7.9964    0.0000 H   0  0  0  0  0  0  0  0  0  0  0  0
  -12.7781   -6.3267    0.0000 C   0  0  0  0  0  0  0  0  0  0  0  0
  -13.7421   -7.4759    0.0000 H   0  0  0  0  0  0  0  0  0  0  0  0
  -13.2911   -4.9172    0.0000 C   0  0  0  0  0  0  0  0  0  0  0  0
  -14.7683   -4.6565    0.0000 H   0  0  0  0  0  0  0  0  0  0  0  0
  -12.3260   -3.7678    0.0000 C   0  0  0  0  0  0  0  0  0  0  0  0
  -10.8479   -4.0279    0.0000 C   0  0  0  0  0  0  0  0  0  0  0  0
   -9.8839   -2.8787    0.0000 H   0  0  0  0  0  0  0  0  0  0  0  0
  -10.3349   -5.4375    0.0000 C   0  0  0  0  0  0  0  0  0  0  0  0
   -8.8577   -5.6982    0.0000 H   0  0  0  0  0  0  0  0  0  0  0  0
  -12.8391   -2.3582    0.0000 N   0  0  0  0  0  0  0  0  0  0  0  0
  -12.2362   -0.9825    0.0000 C   0  0  0  0  0  0  0  0  0  0  0  0
  -13.3446    0.0173    0.0000 C   0  0  0  0  0  0  0  0  0  0  0  0
  -13.1871    1.5090    0.0000 H   0  0  0  0  0  0  0  0  0  0  0  0
  -14.6436   -0.7327    0.0000 C   0  0  0  0  0  0  0  0  0  0  0  0
  -14.3320   -2.1925    0.0000 N   0  0  0  0  0  0  0  0  0  0  0  0
  -16.0142   -0.1232    0.0000 C   0  0  0  0  0  0  0  0  0  0  0  0
  -17.2273   -1.0054    0.0000 O   0  0  0  0  0  0  0  0  0  0  0  0
  -16.1716    1.3685    0.0000 O   0  0  0  0  0  0  0  0  0  0  0  0
  -17.5422    1.9780    0.0000 H   0  0  0  0  0  0  0  0  0  0  0  0
  -10.3005   -0.5660    0.0000 N   0  0  0  0  0  0  0  0  0  0  0  0
   -9.2933   -1.6787    0.0000 C   0  0  0  0  0  0  0  0  0  0  0  0
  -10.5634   -2.4766    0.0000 H   0  0  0  0  0  0  0  0  0  0  0  0
   -8.7283   -3.0682    0.0000 H   0  0  0  0  0  0  0  0  0  0  0  0
   -7.8259   -1.3637    0.0000 C   0  0  0  0  0  0  0  0  0  0  0  0
   -7.7704   -2.8626    0.0000 H   0  0  0  0  0  0  0  0  0  0  0  0
   -6.3400   -1.5691    0.0000 H   0  0  0  0  0  0  0  0  0  0  0  0
   -7.3657    0.0640    0.0000 N   0  0  0  0  0  0  0  0  0  0  0  0
   -8.3729    1.1767    0.0000 C   0  0  0  0  0  0  0  0  0  0  0  0
   -7.1027    1.9746    0.0000 H   0  0  0  0  0  0  0  0  0  0  0  0
   -8.9379    2.5662    0.0000 H   0  0  0  0  0  0  0  0  0  0  0  0
   -9.8403    0.8617    0.0000 C   0  0  0  0  0  0  0  0  0  0  0  0
   -9.8958    2.3606    0.0000 H   0  0  0  0  0  0  0  0  0  0  0  0
  -11.3261    1.0671    0.0000 H   0  0  0  0  0  0  0  0  0  0  0  0
   -4.4914    0.6824    0.0000 C   0  0  2  0  0  0  0  0  0  0  0  0
   -4.3305   -0.8089    0.0000 H   0  0  0  0  0  0  0  0  0  0  0  0
   -2.9915    0.6870    0.0000 C   0  0  0  0  0  0  0  0  0  0  0  0
   -3.1432   -0.8053    0.0000 H   0  0  0  0  0  0  0  0  0  0  0  0
   -1.5231    0.3805    0.0000 H   0  0  0  0  0  0  0  0  0  0  0  0
   -2.5358    2.1084    0.0000 C   0  0  1  0  0  0  0  0  0  0  0  0
   -1.1645    1.5007    0.0000 H   0  0  0  0  0  0  0  0  0  0  0  0
   -1.7851    3.4071    0.0000 C   0  0  0  0  0  0  0  0  0  0  0  0
   -2.5344    4.7065    0.0000 O   0  0  0  0  0  0  0  0  0  0  0  0
    0.1949    3.4060    0.0000 N   0  0  0  0  0  0  0  0  0  0  0  0
    1.0764    2.1924    0.0000 C   0  0  0  0  0  0  0  0  0  0  0  0
   -0.2225    1.4421    0.0000 H   0  0  0  0  0  0  0  0  0  0  0  0
    1.6872    0.8224    0.0000 H   0  0  0  0  0  0  0  0  0  0  0  0
    2.4957    2.6548    0.0000 C   0  0  0  0  0  0  0  0  0  0  0  0
    2.8054    1.1871    0.0000 H   0  0  0  0  0  0  0  0  0  0  0  0
    3.9880    2.8060    0.0000 H   0  0  0  0  0  0  0  0  0  0  0  0
    2.5046    4.1568    0.0000 S   0  0  0  0  0  0  0  0  0  0  0  0
    1.0734    4.6127    0.0000 C   0  0  0  0  0  0  0  0  0  0  0  0
    1.6787    5.9852    0.0000 H   0  0  0  0  0  0  0  0  0  0  0  0
   -0.2266    5.3611    0.0000 H   0  0  0  0  0  0  0  0  0  0  0  0
   -3.7486    2.9947    0.0000 N   0  0  0  0  0  0  0  0  0  0  0  0
   -3.7532    4.4947    0.0000 H   0  0  0  0  0  0  0  0  0  0  0  0
   -4.9558    2.1010    0.0000 C   0  0  0  0  0  0  0  0  0  0  0  0
   -5.7145    3.3950    0.0000 H   0  0  0  0  0  0  0  0  0  0  0  0
   -6.3234    1.4848    0.0000 H   0  0  0  0  0  0  0  0  0  0  0  0
  1  2  1  0  0  0  0 
  1  3  2  0  0  0  0 
  3  4  1  0  0  0  0 
  3  5  1  0  0  0  0 
  5  6  1  0  0  0  0 
  5  7  2  0  0  0  0 
  7  8  1  0  0  0  0 
  8  9  1  0  0  0  0 
  8 10  2  0  0  0  0 
  1 10  1  0  0  0  0 
 10 11  1  0  0  0  0 
  7 12  1  0  0  0  0 
 12 13  1  0  0  0  0 
 13 14  2  0  0  0  0 
 14 15  1  0  0  0  0 
 14 16  1  0  0  0  0 
 16 17  2  0  0  0  0 
 12 17  1  0  0  0  0 
 16 18  1  0  0  0  0 
 18 19  2  0  0  0  0 
 18 20  1  0  0  0  0 
 20 21  1  0  0  0  0 
 13 22  1  0  0  0  0 
 22 23  1  0  0  0  0 
 23 24  1  0  0  0  0 
 23 25  1  0  0  0  0 
 23 26  1  0  0  0  0 
 26 27  1  0  0  0  0 
 26 28  1  0  0  0  0 
 26 29  1  0  0  0  0 
 29 30  1  0  0  0  0 
 30 31  1  0  0  0  0 
 30 32  1  0  0  0  0 
 30 33  1  0  0  0  0 
 22 33  1  0  0  0  0 
 33 34  1  0  0  0  0 
 33 35  1  0  0  0  0 
 36 29  1  1  0  0  0 
 36 37  1  6  0  0  0 
 36 38  1  0  0  0  0 
 38 39  1  0  0  0  0 
 38 40  1  0  0  0  0 
 38 41  1  0  0  0  0 
 41 42  1  1  0  0  0 
 41 43  1  6  0  0  0 
 43 44  2  0  0  0  0 
 43 45  1  0  0  0  0 
 45 46  1  0  0  0  0 
 46 47  1  0  0  0  0 
 46 48  1  0  0  0  0 
 46 49  1  0  0  0  0 
 49 50  1  0  0  0  0 
 49 51  1  0  0  0  0 
 49 52  1  0  0  0  0 
 52 53  1  0  0  0  0 
 45 53  1  0  0  0  0 
 53 54  1  0  0  0  0 
 53 55  1  0  0  0  0 
 41 56  1  0  0  0  0 
 56 57  1  0  0  0  0 
 56 58  1  0  0  0  0 
 36 58  1  0  0  0  0 
 58 59  1  0  0  0  0 
 58 60  1  0  0  0  0 
M  END
> <Rank>
18

> <Priority_score>
0.24755763604447045

> <Reaction_type>
carboxylation_(benzylic_CH3)

> <Parent_ID>
58

> <Parent_InChI>
InChI=1S/C22H30N6OS/c1-17-13-21(28(24-17)18-5-3-2-4-6-18)26-9-7-25(8-10-26)19-14-20(23-15-19)22(29)27-11-12-30-16-27/h2-6,13,19-20,23H,7-12,14-16H2,1H3

> <Parent_SMILES>
Cc1cc(N2CCN([C@H]3CN[C@H](C(=O)N4CCSC4)C3)CC2)n(-c2ccccc2)n1

$$$$
Molecule 58_metabolite 20
  CDK     0516241031

 61 65  0  0  0  0  0  0  0  0999 V2000
   12.3659   -2.0114    0.0000 C   0  0  0  0  0  0  0  0  0  0  0  0
   13.7936   -2.4713    0.0000 H   0  0  0  0  0  0  0  0  0  0  0  0
   13.0668   -0.6852    0.0000 H   0  0  0  0  0  0  0  0  0  0  0  0
   11.1816   -1.0908    0.0000 H   0  0  0  0  0  0  0  0  0  0  0  0
   11.2537   -3.0178    0.0000 C   0  0  0  0  0  0  0  0  0  0  0  0
   11.4194   -4.5107    0.0000 N   0  0  0  0  0  0  0  0  0  0  0  0
   10.0437   -5.1136    0.0000 N   0  0  0  0  0  0  0  0  0  0  0  0
    9.6272   -7.0493    0.0000 C   0  0  0  0  0  0  0  0  0  0  0  0
    8.1985   -7.5091    0.0000 C   0  0  0  0  0  0  0  0  0  0  0  0
    7.0865   -6.5024    0.0000 H   0  0  0  0  0  0  0  0  0  0  0  0
    7.8830   -8.9755    0.0000 C   0  0  0  0  0  0  0  0  0  0  0  0
    6.4553   -9.4357    0.0000 H   0  0  0  0  0  0  0  0  0  0  0  0
    8.9961   -9.9822    0.0000 C   0  0  0  0  0  0  0  0  0  0  0  0
    8.6806  -11.4486    0.0000 H   0  0  0  0  0  0  0  0  0  0  0  0
   10.4248   -9.5224    0.0000 C   0  0  0  0  0  0  0  0  0  0  0  0
   11.5369  -10.5291    0.0000 H   0  0  0  0  0  0  0  0  0  0  0  0
   10.7403   -8.0560    0.0000 C   0  0  0  0  0  0  0  0  0  0  0  0
   12.1680   -7.5958    0.0000 H   0  0  0  0  0  0  0  0  0  0  0  0
    9.0439   -4.0052    0.0000 C   0  0  0  0  0  0  0  0  0  0  0  0
    9.7939   -2.7062    0.0000 C   0  0  0  0  0  0  0  0  0  0  0  0
    9.1844   -1.3356    0.0000 H   0  0  0  0  0  0  0  0  0  0  0  0
    7.0749   -4.2131    0.0000 N   0  0  0  0  0  0  0  0  0  0  0  0
    6.1920   -2.9994    0.0000 C   0  0  0  0  0  0  0  0  0  0  0  0
    7.5399   -2.3413    0.0000 H   0  0  0  0  0  0  0  0  0  0  0  0
    5.7782   -1.5576    0.0000 H   0  0  0  0  0  0  0  0  0  0  0  0
    4.6993   -3.1562    0.0000 C   0  0  0  0  0  0  0  0  0  0  0  0
    4.8039   -1.6599    0.0000 H   0  0  0  0  0  0  0  0  0  0  0  0
    3.2438   -2.7936    0.0000 H   0  0  0  0  0  0  0  0  0  0  0  0
    4.0896   -4.5267    0.0000 N   0  0  0  0  0  0  0  0  0  0  0  0
    4.9725   -5.7404    0.0000 C   0  0  0  0  0  0  0  0  0  0  0  0
    3.6246   -6.3985    0.0000 H   0  0  0  0  0  0  0  0  0  0  0  0
    5.3862   -7.1822    0.0000 H   0  0  0  0  0  0  0  0  0  0  0  0
    6.4651   -5.5836    0.0000 C   0  0  0  0  0  0  0  0  0  0  0  0
    6.3606   -7.0799    0.0000 H   0  0  0  0  0  0  0  0  0  0  0  0
    7.9206   -5.9462    0.0000 H   0  0  0  0  0  0  0  0  0  0  0  0
    1.1659   -4.8353    0.0000 C   0  0  2  0  0  0  0  0  0  0  0  0
    1.1648   -3.3353    0.0000 H   0  0  0  0  0  0  0  0  0  0  0  0
   -0.3261   -4.6801    0.0000 C   0  0  0  0  0  0  0  0  0  0  0  0
   -0.0162   -3.2124    0.0000 H   0  0  0  0  0  0  0  0  0  0  0  0
   -1.7534   -4.2188    0.0000 H   0  0  0  0  0  0  0  0  0  0  0  0
   -0.9306   -6.0448    0.0000 C   0  0  1  0  0  0  0  0  0  0  0  0
   -2.2294   -5.2944    0.0000 H   0  0  0  0  0  0  0  0  0  0  0  0
   -1.8154   -7.2561    0.0000 C   0  0  0  0  0  0  0  0  0  0  0  0
   -1.2088   -8.6280    0.0000 O   0  0  0  0  0  0  0  0  0  0  0  0
   -3.7840   -7.0440    0.0000 N   0  0  0  0  0  0  0  0  0  0  0  0
   -4.5312   -5.7434    0.0000 C   0  0  0  0  0  0  0  0  0  0  0  0
   -3.1598   -5.1358    0.0000 H   0  0  0  0  0  0  0  0  0  0  0  0
   -4.9925   -4.3161    0.0000 H   0  0  0  0  0  0  0  0  0  0  0  0
   -5.9916   -6.0519    0.0000 C   0  0  0  0  0  0  0  0  0  0  0  0
   -6.1432   -4.5595    0.0000 H   0  0  0  0  0  0  0  0  0  0  0  0
   -7.4916   -6.0432    0.0000 H   0  0  0  0  0  0  0  0  0  0  0  0
   -6.1606   -7.5444    0.0000 S   0  0  0  0  0  0  0  0  0  0  0  0
   -4.7861   -8.1502    0.0000 C   0  0  0  0  0  0  0  0  0  0  0  0
   -5.5342   -9.4504    0.0000 H   0  0  0  0  0  0  0  0  0  0  0  0
   -3.5733   -9.0329    0.0000 H   0  0  0  0  0  0  0  0  0  0  0  0
    0.1808   -7.0553    0.0000 N   0  0  0  0  0  0  0  0  0  0  0  0
    0.0255   -8.5472    0.0000 H   0  0  0  0  0  0  0  0  0  0  0  0
    1.4764   -6.2953    0.0000 C   0  0  0  0  0  0  0  0  0  0  0  0
    2.0929   -7.6628    0.0000 H   0  0  0  0  0  0  0  0  0  0  0  0
    2.9019   -5.8284    0.0000 H   0  0  0  0  0  0  0  0  0  0  0  0
   12.7185   -5.2607    0.0000 O   0  0  0  0  0  0  0  0  0  0  0  0
  1  2  1  0  0  0  0 
  1  3  1  0  0  0  0 
  1  4  1  0  0  0  0 
  1  5  1  0  0  0  0 
  5  6  2  0  0  0  0 
  6  7  1  0  0  0  0 
  7  8  1  0  0  0  0 
  8  9  2  0  0  0  0 
  9 10  1  0  0  0  0 
  9 11  1  0  0  0  0 
 11 12  1  0  0  0  0 
 11 13  2  0  0  0  0 
 13 14  1  0  0  0  0 
 13 15  1  0  0  0  0 
 15 16  1  0  0  0  0 
 15 17  2  0  0  0  0 
  8 17  1  0  0  0  0 
 17 18  1  0  0  0  0 
  7 19  1  0  0  0  0 
 19 20  2  0  0  0  0 
  5 20  1  0  0  0  0 
 20 21  1  0  0  0  0 
 19 22  1  0  0  0  0 
 22 23  1  0  0  0  0 
 23 24  1  0  0  0  0 
 23 25  1  0  0  0  0 
 23 26  1  0  0  0  0 
 26 27  1  0  0  0  0 
 26 28  1  0  0  0  0 
 26 29  1  0  0  0  0 
 29 30  1  0  0  0  0 
 30 31  1  0  0  0  0 
 30 32  1  0  0  0  0 
 30 33  1  0  0  0  0 
 22 33  1  0  0  0  0 
 33 34  1  0  0  0  0 
 33 35  1  0  0  0  0 
 36 29  1  1  0  0  0 
 36 37  1  6  0  0  0 
 36 38  1  0  0  0  0 
 38 39  1  0  0  0  0 
 38 40  1  0  0  0  0 
 38 41  1  0  0  0  0 
 41 42  1  1  0  0  0 
 41 43  1  6  0  0  0 
 43 44  2  0  0  0  0 
 43 45  1  0  0  0  0 
 45 46  1  0  0  0  0 
 46 47  1  0  0  0  0 
 46 48  1  0  0  0  0 
 46 49  1  0  0  0  0 
 49 50  1  0  0  0  0 
 49 51  1  0  0  0  0 
 49 52  1  0  0  0  0 
 52 53  1  0  0  0  0 
 45 53  1  0  0  0  0 
 53 54  1  0  0  0  0 
 53 55  1  0  0  0  0 
 41 56  1  0  0  0  0 
 56 57  1  0  0  0  0 
 56 58  1  0  0  0  0 
 36 58  1  0  0  0  0 
 58 59  1  0  0  0  0 
 58 60  1  0  0  0  0 
  6 61  1  0  0  0  0 
M  CHG  1   6   1
M  CHG  1  61  -1
M  END
> <Rank>
20

> <Priority_score>
0.23876100801496572

> <Reaction_type>
N-oxidation

> <Parent_ID>
58

> <Parent_InChI>
InChI=1S/C22H30N6OS/c1-17-13-21(28(24-17)18-5-3-2-4-6-18)26-9-7-25(8-10-26)19-14-20(23-15-19)22(29)27-11-12-30-16-27/h2-6,13,19-20,23H,7-12,14-16H2,1H3

> <Parent_SMILES>
Cc1cc(N2CCN([C@H]3CN[C@H](C(=O)N4CCSC4)C3)CC2)n(-c2ccccc2)n1

$$$$
Molecule 58_metabolite 21
  CDK     0516241031

 61 65  0  0  0  0  0  0  0  0999 V2000
   12.3659   -2.0114    0.0000 C   0  0  0  0  0  0  0  0  0  0  0  0
   13.7936   -2.4713    0.0000 H   0  0  0  0  0  0  0  0  0  0  0  0
   13.0668   -0.6852    0.0000 H   0  0  0  0  0  0  0  0  0  0  0  0
   11.1816   -1.0908    0.0000 H   0  0  0  0  0  0  0  0  0  0  0  0
   11.2537   -3.0178    0.0000 C   0  0  0  0  0  0  0  0  0  0  0  0
   11.4194   -4.5107    0.0000 N   0  0  0  0  0  0  0  0  0  0  0  0
   10.0437   -5.1136    0.0000 N   0  0  0  0  0  0  0  0  0  0  0  0
    9.6272   -7.0493    0.0000 C   0  0  0  0  0  0  0  0  0  0  0  0
    8.1985   -7.5091    0.0000 C   0  0  0  0  0  0  0  0  0  0  0  0
    7.0865   -6.5024    0.0000 H   0  0  0  0  0  0  0  0  0  0  0  0
    7.8830   -8.9755    0.0000 C   0  0  0  0  0  0  0  0  0  0  0  0
    6.4553   -9.4357    0.0000 H   0  0  0  0  0  0  0  0  0  0  0  0
    8.9961   -9.9822    0.0000 C   0  0  0  0  0  0  0  0  0  0  0  0
    8.6806  -11.4486    0.0000 H   0  0  0  0  0  0  0  0  0  0  0  0
   10.4248   -9.5224    0.0000 C   0  0  0  0  0  0  0  0  0  0  0  0
   11.5369  -10.5291    0.0000 H   0  0  0  0  0  0  0  0  0  0  0  0
   10.7403   -8.0560    0.0000 C   0  0  0  0  0  0  0  0  0  0  0  0
   12.1680   -7.5958    0.0000 H   0  0  0  0  0  0  0  0  0  0  0  0
    9.0439   -4.0052    0.0000 C   0  0  0  0  0  0  0  0  0  0  0  0
    9.7939   -2.7062    0.0000 C   0  0  0  0  0  0  0  0  0  0  0  0
    9.1844   -1.3356    0.0000 H   0  0  0  0  0  0  0  0  0  0  0  0
    7.0749   -4.2131    0.0000 N   0  0  0  0  0  0  0  0  0  0  0  0
    6.1920   -2.9994    0.0000 C   0  0  0  0  0  0  0  0  0  0  0  0
    7.5399   -2.3413    0.0000 H   0  0  0  0  0  0  0  0  0  0  0  0
    5.7782   -1.5576    0.0000 H   0  0  0  0  0  0  0  0  0  0  0  0
    4.6993   -3.1562    0.0000 C   0  0  0  0  0  0  0  0  0  0  0  0
    4.8039   -1.6599    0.0000 H   0  0  0  0  0  0  0  0  0  0  0  0
    3.2438   -2.7936    0.0000 H   0  0  0  0  0  0  0  0  0  0  0  0
    4.0896   -4.5267    0.0000 N   0  0  0  0  0  0  0  0  0  0  0  0
    4.9725   -5.7404    0.0000 C   0  0  0  0  0  0  0  0  0  0  0  0
    3.6246   -6.3985    0.0000 H   0  0  0  0  0  0  0  0  0  0  0  0
    5.3862   -7.1822    0.0000 H   0  0  0  0  0  0  0  0  0  0  0  0
    6.4651   -5.5836    0.0000 C   0  0  0  0  0  0  0  0  0  0  0  0
    6.3606   -7.0799    0.0000 H   0  0  0  0  0  0  0  0  0  0  0  0
    7.9206   -5.9462    0.0000 H   0  0  0  0  0  0  0  0  0  0  0  0
    1.1659   -4.8353    0.0000 C   0  0  2  0  0  0  0  0  0  0  0  0
    1.1648   -3.3353    0.0000 H   0  0  0  0  0  0  0  0  0  0  0  0
   -0.3261   -4.6801    0.0000 C   0  0  0  0  0  0  0  0  0  0  0  0
   -0.0162   -3.2124    0.0000 H   0  0  0  0  0  0  0  0  0  0  0  0
   -1.7534   -4.2188    0.0000 H   0  0  0  0  0  0  0  0  0  0  0  0
   -0.9306   -6.0448    0.0000 C   0  0  1  0  0  0  0  0  0  0  0  0
   -2.2294   -5.2944    0.0000 H   0  0  0  0  0  0  0  0  0  0  0  0
   -1.8154   -7.2561    0.0000 C   0  0  0  0  0  0  0  0  0  0  0  0
   -1.2088   -8.6280    0.0000 O   0  0  0  0  0  0  0  0  0  0  0  0
   -3.7840   -7.0440    0.0000 N   0  0  0  0  0  0  0  0  0  0  0  0
   -4.5312   -5.7434    0.0000 C   0  0  0  0  0  0  0  0  0  0  0  0
   -3.1598   -5.1358    0.0000 H   0  0  0  0  0  0  0  0  0  0  0  0
   -4.9925   -4.3161    0.0000 H   0  0  0  0  0  0  0  0  0  0  0  0
   -5.9916   -6.0519    0.0000 C   0  0  0  0  0  0  0  0  0  0  0  0
   -6.1432   -4.5595    0.0000 H   0  0  0  0  0  0  0  0  0  0  0  0
   -7.4916   -6.0432    0.0000 H   0  0  0  0  0  0  0  0  0  0  0  0
   -6.1606   -7.5444    0.0000 S   0  0  0  0  0  0  0  0  0  0  0  0
   -7.4612   -8.2916    0.0000 O   0  0  0  0  0  0  0  0  0  0  0  0
   -4.7861   -8.1502    0.0000 C   0  0  0  0  0  0  0  0  0  0  0  0
   -5.5342   -9.4504    0.0000 H   0  0  0  0  0  0  0  0  0  0  0  0
   -3.5733   -9.0329    0.0000 H   0  0  0  0  0  0  0  0  0  0  0  0
    0.1808   -7.0553    0.0000 N   0  0  0  0  0  0  0  0  0  0  0  0
    0.0255   -8.5472    0.0000 H   0  0  0  0  0  0  0  0  0  0  0  0
    1.4764   -6.2953    0.0000 C   0  0  0  0  0  0  0  0  0  0  0  0
    2.0929   -7.6628    0.0000 H   0  0  0  0  0  0  0  0  0  0  0  0
    2.9019   -5.8284    0.0000 H   0  0  0  0  0  0  0  0  0  0  0  0
  1  2  1  0  0  0  0 
  1  3  1  0  0  0  0 
  1  4  1  0  0  0  0 
  1  5  1  0  0  0  0 
  5  6  2  0  0  0  0 
  6  7  1  0  0  0  0 
  7  8  1  0  0  0  0 
  8  9  2  0  0  0  0 
  9 10  1  0  0  0  0 
  9 11  1  0  0  0  0 
 11 12  1  0  0  0  0 
 11 13  2  0  0  0  0 
 13 14  1  0  0  0  0 
 13 15  1  0  0  0  0 
 15 16  1  0  0  0  0 
 15 17  2  0  0  0  0 
  8 17  1  0  0  0  0 
 17 18  1  0  0  0  0 
  7 19  1  0  0  0  0 
 19 20  2  0  0  0  0 
  5 20  1  0  0  0  0 
 20 21  1  0  0  0  0 
 19 22  1  0  0  0  0 
 22 23  1  0  0  0  0 
 23 24  1  0  0  0  0 
 23 25  1  0  0  0  0 
 23 26  1  0  0  0  0 
 26 27  1  0  0  0  0 
 26 28  1  0  0  0  0 
 26 29  1  0  0  0  0 
 29 30  1  0  0  0  0 
 30 31  1  0  0  0  0 
 30 32  1  0  0  0  0 
 30 33  1  0  0  0  0 
 22 33  1  0  0  0  0 
 33 34  1  0  0  0  0 
 33 35  1  0  0  0  0 
 36 29  1  1  0  0  0 
 36 37  1  6  0  0  0 
 36 38  1  0  0  0  0 
 38 39  1  0  0  0  0 
 38 40  1  0  0  0  0 
 38 41  1  0  0  0  0 
 41 42  1  1  0  0  0 
 41 43  1  6  0  0  0 
 43 44  2  0  0  0  0 
 43 45  1  0  0  0  0 
 45 46  1  0  0  0  0 
 46 47  1  0  0  0  0 
 46 48  1  0  0  0  0 
 46 49  1  0  0  0  0 
 49 50  1  0  0  0  0 
 49 51  1  0  0  0  0 
 49 52  1  0  0  0  0 
 52 53  2  0  0  0  0 
 52 54  1  0  0  0  0 
 45 54  1  0  0  0  0 
 54 55  1  0  0  0  0 
 54 56  1  0  0  0  0 
 41 57  1  0  0  0  0 
 57 58  1  0  0  0  0 
 57 59  1  0  0  0  0 
 36 59  1  0  0  0  0 
 59 60  1  0  0  0  0 
 59 61  1  0  0  0  0 
M  END
> <Rank>
21

> <Priority_score>
0.21555763604447045

> <Reaction_type>
sulfide_oxidation_(C-S-C)

> <Parent_ID>
58

> <Parent_InChI>
InChI=1S/C22H30N6OS/c1-17-13-21(28(24-17)18-5-3-2-4-6-18)26-9-7-25(8-10-26)19-14-20(23-15-19)22(29)27-11-12-30-16-27/h2-6,13,19-20,23H,7-12,14-16H2,1H3

> <Parent_SMILES>
Cc1cc(N2CCN([C@H]3CN[C@H](C(=O)N4CCSC4)C3)CC2)n(-c2ccccc2)n1

$$$$
Molecule 58_metabolite 22
  CDK     0516241031

 61 64  0  0  0  0  0  0  0  0999 V2000
   12.6780   -0.7460    0.0000 C   0  0  0  0  0  0  0  0  0  0  0  0
   14.1057   -1.2059    0.0000 H   0  0  0  0  0  0  0  0  0  0  0  0
   13.3789    0.5802    0.0000 H   0  0  0  0  0  0  0  0  0  0  0  0
   11.4937    0.1746    0.0000 H   0  0  0  0  0  0  0  0  0  0  0  0
   11.5658   -1.7524    0.0000 C   0  0  0  0  0  0  0  0  0  0  0  0
   11.7315   -3.2453    0.0000 N   0  0  0  0  0  0  0  0  0  0  0  0
   10.3558   -3.8482    0.0000 N   0  0  0  0  0  0  0  0  0  0  0  0
    9.9393   -5.7839    0.0000 C   0  0  0  0  0  0  0  0  0  0  0  0
    8.5106   -6.2437    0.0000 C   0  0  0  0  0  0  0  0  0  0  0  0
    7.3986   -5.2370    0.0000 H   0  0  0  0  0  0  0  0  0  0  0  0
    8.1951   -7.7101    0.0000 C   0  0  0  0  0  0  0  0  0  0  0  0
    6.7674   -8.1703    0.0000 H   0  0  0  0  0  0  0  0  0  0  0  0
    9.3083   -8.7168    0.0000 C   0  0  0  0  0  0  0  0  0  0  0  0
    8.9927  -10.1832    0.0000 H   0  0  0  0  0  0  0  0  0  0  0  0
   10.7369   -8.2570    0.0000 C   0  0  0  0  0  0  0  0  0  0  0  0
   11.8490   -9.2637    0.0000 H   0  0  0  0  0  0  0  0  0  0  0  0
   11.0524   -6.7906    0.0000 C   0  0  0  0  0  0  0  0  0  0  0  0
   12.4801   -6.3304    0.0000 H   0  0  0  0  0  0  0  0  0  0  0  0
    9.3560   -2.7398    0.0000 C   0  0  0  0  0  0  0  0  0  0  0  0
   10.1060   -1.4408    0.0000 C   0  0  0  0  0  0  0  0  0  0  0  0
    9.4965   -0.0702    0.0000 H   0  0  0  0  0  0  0  0  0  0  0  0
    7.3870   -2.9477    0.0000 N   0  0  0  0  0  0  0  0  0  0  0  0
    6.5041   -1.7340    0.0000 C   0  0  0  0  0  0  0  0  0  0  0  0
    7.8520   -1.0759    0.0000 H   0  0  0  0  0  0  0  0  0  0  0  0
    6.0904   -0.2922    0.0000 H   0  0  0  0  0  0  0  0  0  0  0  0
    5.0114   -1.8908    0.0000 C   0  0  0  0  0  0  0  0  0  0  0  0
    5.1160   -0.3945    0.0000 H   0  0  0  0  0  0  0  0  0  0  0  0
    3.5559   -1.5282    0.0000 H   0  0  0  0  0  0  0  0  0  0  0  0
    4.4017   -3.2613    0.0000 N   0  0  0  0  0  0  0  0  0  0  0  0
    5.2846   -4.4750    0.0000 C   0  0  0  0  0  0  0  0  0  0  0  0
    3.9367   -5.1331    0.0000 H   0  0  0  0  0  0  0  0  0  0  0  0
    5.6983   -5.9168    0.0000 H   0  0  0  0  0  0  0  0  0  0  0  0
    6.7772   -4.3182    0.0000 C   0  0  0  0  0  0  0  0  0  0  0  0
    6.6727   -5.8145    0.0000 H   0  0  0  0  0  0  0  0  0  0  0  0
    8.2327   -4.6808    0.0000 H   0  0  0  0  0  0  0  0  0  0  0  0
    1.4780   -3.5699    0.0000 C   0  0  2  0  0  0  0  0  0  0  0  0
    1.4769   -2.0699    0.0000 H   0  0  0  0  0  0  0  0  0  0  0  0
   -0.0140   -3.4147    0.0000 C   0  0  0  0  0  0  0  0  0  0  0  0
    0.2959   -1.9470    0.0000 H   0  0  0  0  0  0  0  0  0  0  0  0
   -1.4413   -2.9534    0.0000 H   0  0  0  0  0  0  0  0  0  0  0  0
   -0.6185   -4.7794    0.0000 C   0  0  1  0  0  0  0  0  0  0  0  0
   -1.9173   -4.0290    0.0000 H   0  0  0  0  0  0  0  0  0  0  0  0
   -1.5033   -5.9907    0.0000 C   0  0  0  0  0  0  0  0  0  0  0  0
   -0.8967   -7.3626    0.0000 O   0  0  0  0  0  0  0  0  0  0  0  0
   -2.9947   -5.8300    0.0000 N   0  0  0  0  0  0  0  0  0  0  0  0
   -3.8795   -7.0413    0.0000 C   0  0  0  0  0  0  0  0  0  0  0  0
   -4.2967   -8.4821    0.0000 H   0  0  0  0  0  0  0  0  0  0  0  0
   -2.5330   -7.7023    0.0000 H   0  0  0  0  0  0  0  0  0  0  0  0
   -5.3708   -6.8806    0.0000 C   0  0  0  0  0  0  0  0  0  0  0  0
   -4.9537   -5.4398    0.0000 H   0  0  0  0  0  0  0  0  0  0  0  0
   -6.7173   -6.2196    0.0000 H   0  0  0  0  0  0  0  0  0  0  0  0
   -6.2557   -8.0919    0.0000 S   0  0  0  0  0  0  0  0  0  0  0  0
   -7.7470   -7.9312    0.0000 H   0  0  0  0  0  0  0  0  0  0  0  0
   -3.6012   -4.4581    0.0000 C   0  0  0  0  0  0  0  0  0  0  0  0
   -5.0926   -4.2975    0.0000 H   0  0  0  0  0  0  0  0  0  0  0  0
   -2.7164   -3.2469    0.0000 O   0  0  0  0  0  0  0  0  0  0  0  0
    0.4929   -5.7899    0.0000 N   0  0  0  0  0  0  0  0  0  0  0  0
    0.3376   -7.2818    0.0000 H   0  0  0  0  0  0  0  0  0  0  0  0
    1.7885   -5.0299    0.0000 C   0  0  0  0  0  0  0  0  0  0  0  0
    2.4050   -6.3974    0.0000 H   0  0  0  0  0  0  0  0  0  0  0  0
    3.2140   -4.5630    0.0000 H   0  0  0  0  0  0  0  0  0  0  0  0
  1  2  1  0  0  0  0 
  1  3  1  0  0  0  0 
  1  4  1  0  0  0  0 
  1  5  1  0  0  0  0 
  5  6  2  0  0  0  0 
  6  7  1  0  0  0  0 
  7  8  1  0  0  0  0 
  8  9  2  0  0  0  0 
  9 10  1  0  0  0  0 
  9 11  1  0  0  0  0 
 11 12  1  0  0  0  0 
 11 13  2  0  0  0  0 
 13 14  1  0  0  0  0 
 13 15  1  0  0  0  0 
 15 16  1  0  0  0  0 
 15 17  2  0  0  0  0 
  8 17  1  0  0  0  0 
 17 18  1  0  0  0  0 
  7 19  1  0  0  0  0 
 19 20  2  0  0  0  0 
  5 20  1  0  0  0  0 
 20 21  1  0  0  0  0 
 19 22  1  0  0  0  0 
 22 23  1  0  0  0  0 
 23 24  1  0  0  0  0 
 23 25  1  0  0  0  0 
 23 26  1  0  0  0  0 
 26 27  1  0  0  0  0 
 26 28  1  0  0  0  0 
 26 29  1  0  0  0  0 
 29 30  1  0  0  0  0 
 30 31  1  0  0  0  0 
 30 32  1  0  0  0  0 
 30 33  1  0  0  0  0 
 22 33  1  0  0  0  0 
 33 34  1  0  0  0  0 
 33 35  1  0  0  0  0 
 36 29  1  1  0  0  0 
 36 37  1  6  0  0  0 
 36 38  1  0  0  0  0 
 38 39  1  0  0  0  0 
 38 40  1  0  0  0  0 
 38 41  1  0  0  0  0 
 41 42  1  1  0  0  0 
 41 43  1  6  0  0  0 
 43 44  2  0  0  0  0 
 43 45  1  0  0  0  0 
 45 46  1  0  0  0  0 
 46 47  1  0  0  0  0 
 46 48  1  0  0  0  0 
 46 49  1  0  0  0  0 
 49 50  1  0  0  0  0 
 49 51  1  0  0  0  0 
 49 52  1  0  0  0  0 
 52 53  1  0  0  0  0 
 45 54  1  0  0  0  0 
 54 55  1  0  0  0  0 
 54 56  2  0  0  0  0 
 41 57  1  0  0  0  0 
 57 58  1  0  0  0  0 
 57 59  1  0  0  0  0 
 36 59  1  0  0  0  0 
 59 60  1  0  0  0  0 
 59 61  1  0  0  0  0 
M  END
> <Rank>
21

> <Priority_score>
0.21555763604447045

> <Reaction_type>
S-dealkylation

> <Parent_ID>
58

> <Parent_InChI>
InChI=1S/C22H30N6OS/c1-17-13-21(28(24-17)18-5-3-2-4-6-18)26-9-7-25(8-10-26)19-14-20(23-15-19)22(29)27-11-12-30-16-27/h2-6,13,19-20,23H,7-12,14-16H2,1H3

> <Parent_SMILES>
Cc1cc(N2CCN([C@H]3CN[C@H](C(=O)N4CCSC4)C3)CC2)n(-c2ccccc2)n1

$$$$
Molecule 58_metabolite 23
  CDK     0516241031

 61 64  0  0  0  0  0  0  0  0999 V2000
   14.3210   -1.0086    0.0000 C   0  0  0  0  0  0  0  0  0  0  0  0
   15.7487   -1.4686    0.0000 H   0  0  0  0  0  0  0  0  0  0  0  0
   15.0219    0.3176    0.0000 H   0  0  0  0  0  0  0  0  0  0  0  0
   13.1367   -0.0881    0.0000 H   0  0  0  0  0  0  0  0  0  0  0  0
   13.2088   -2.0151    0.0000 C   0  0  0  0  0  0  0  0  0  0  0  0
   13.3746   -3.5080    0.0000 N   0  0  0  0  0  0  0  0  0  0  0  0
   11.9988   -4.1108    0.0000 N   0  0  0  0  0  0  0  0  0  0  0  0
   11.5823   -6.0466    0.0000 C   0  0  0  0  0  0  0  0  0  0  0  0
   10.1536   -6.5063    0.0000 C   0  0  0  0  0  0  0  0  0  0  0  0
    9.0416   -5.4997    0.0000 H   0  0  0  0  0  0  0  0  0  0  0  0
    9.8381   -7.9728    0.0000 C   0  0  0  0  0  0  0  0  0  0  0  0
    8.4105   -8.4330    0.0000 H   0  0  0  0  0  0  0  0  0  0  0  0
   10.9513   -8.9794    0.0000 C   0  0  0  0  0  0  0  0  0  0  0  0
   10.6357  -10.4459    0.0000 H   0  0  0  0  0  0  0  0  0  0  0  0
   12.3799   -8.5197    0.0000 C   0  0  0  0  0  0  0  0  0  0  0  0
   13.4920   -9.5263    0.0000 H   0  0  0  0  0  0  0  0  0  0  0  0
   12.6955   -7.0532    0.0000 C   0  0  0  0  0  0  0  0  0  0  0  0
   14.1231   -6.5930    0.0000 H   0  0  0  0  0  0  0  0  0  0  0  0
   10.9990   -3.0025    0.0000 C   0  0  0  0  0  0  0  0  0  0  0  0
   11.7490   -1.7034    0.0000 C   0  0  0  0  0  0  0  0  0  0  0  0
   11.1395   -0.3329    0.0000 H   0  0  0  0  0  0  0  0  0  0  0  0
    9.0300   -3.2103    0.0000 N   0  0  0  0  0  0  0  0  0  0  0  0
    8.1471   -1.9966    0.0000 C   0  0  0  0  0  0  0  0  0  0  0  0
    9.4950   -1.3386    0.0000 H   0  0  0  0  0  0  0  0  0  0  0  0
    7.7334   -0.5548    0.0000 H   0  0  0  0  0  0  0  0  0  0  0  0
    6.6545   -2.1535    0.0000 C   0  0  0  0  0  0  0  0  0  0  0  0
    6.7590   -0.6571    0.0000 H   0  0  0  0  0  0  0  0  0  0  0  0
    5.1990   -1.7908    0.0000 H   0  0  0  0  0  0  0  0  0  0  0  0
    6.0447   -3.5240    0.0000 N   0  0  0  0  0  0  0  0  0  0  0  0
    6.9276   -4.7376    0.0000 C   0  0  0  0  0  0  0  0  0  0  0  0
    5.5797   -5.3957    0.0000 H   0  0  0  0  0  0  0  0  0  0  0  0
    7.3413   -6.1794    0.0000 H   0  0  0  0  0  0  0  0  0  0  0  0
    8.4203   -4.5808    0.0000 C   0  0  0  0  0  0  0  0  0  0  0  0
    8.3157   -6.0772    0.0000 H   0  0  0  0  0  0  0  0  0  0  0  0
    9.8758   -4.9434    0.0000 H   0  0  0  0  0  0  0  0  0  0  0  0
    3.1210   -3.8326    0.0000 C   0  0  2  0  0  0  0  0  0  0  0  0
    3.1199   -2.3326    0.0000 H   0  0  0  0  0  0  0  0  0  0  0  0
    1.6290   -3.6773    0.0000 C   0  0  0  0  0  0  0  0  0  0  0  0
    1.9390   -2.2097    0.0000 H   0  0  0  0  0  0  0  0  0  0  0  0
    0.2017   -3.2161    0.0000 H   0  0  0  0  0  0  0  0  0  0  0  0
    1.0245   -5.0421    0.0000 C   0  0  1  0  0  0  0  0  0  0  0  0
   -0.2743   -4.2916    0.0000 H   0  0  0  0  0  0  0  0  0  0  0  0
    0.1397   -6.2533    0.0000 C   0  0  0  0  0  0  0  0  0  0  0  0
    0.7463   -7.6252    0.0000 O   0  0  0  0  0  0  0  0  0  0  0  0
   -1.3516   -6.0927    0.0000 N   0  0  0  0  0  0  0  0  0  0  0  0
   -1.9582   -4.7208    0.0000 H   0  0  0  0  0  0  0  0  0  0  0  0
   -2.2365   -7.3039    0.0000 C   0  0  0  0  0  0  0  0  0  0  0  0
   -2.6536   -8.7447    0.0000 H   0  0  0  0  0  0  0  0  0  0  0  0
   -0.8900   -7.9649    0.0000 H   0  0  0  0  0  0  0  0  0  0  0  0
   -3.7278   -7.1433    0.0000 C   0  0  0  0  0  0  0  0  0  0  0  0
   -3.3107   -5.7024    0.0000 H   0  0  0  0  0  0  0  0  0  0  0  0
   -5.0743   -6.4822    0.0000 H   0  0  0  0  0  0  0  0  0  0  0  0
   -4.6126   -8.3545    0.0000 S   0  0  0  0  0  0  0  0  0  0  0  0
   -6.1040   -8.1939    0.0000 C   0  0  0  0  0  0  0  0  0  0  0  0
   -6.9888   -9.4051    0.0000 H   0  0  0  0  0  0  0  0  0  0  0  0
   -6.7106   -6.8220    0.0000 O   0  0  0  0  0  0  0  0  0  0  0  0
    2.1359   -6.0525    0.0000 N   0  0  0  0  0  0  0  0  0  0  0  0
    1.9807   -7.5445    0.0000 H   0  0  0  0  0  0  0  0  0  0  0  0
    3.4315   -5.2925    0.0000 C   0  0  0  0  0  0  0  0  0  0  0  0
    4.0480   -6.6600    0.0000 H   0  0  0  0  0  0  0  0  0  0  0  0
    4.8570   -4.8256    0.0000 H   0  0  0  0  0  0  0  0  0  0  0  0
  1  2  1  0  0  0  0 
  1  3  1  0  0  0  0 
  1  4  1  0  0  0  0 
  1  5  1  0  0  0  0 
  5  6  2  0  0  0  0 
  6  7  1  0  0  0  0 
  7  8  1  0  0  0  0 
  8  9  2  0  0  0  0 
  9 10  1  0  0  0  0 
  9 11  1  0  0  0  0 
 11 12  1  0  0  0  0 
 11 13  2  0  0  0  0 
 13 14  1  0  0  0  0 
 13 15  1  0  0  0  0 
 15 16  1  0  0  0  0 
 15 17  2  0  0  0  0 
  8 17  1  0  0  0  0 
 17 18  1  0  0  0  0 
  7 19  1  0  0  0  0 
 19 20  2  0  0  0  0 
  5 20  1  0  0  0  0 
 20 21  1  0  0  0  0 
 19 22  1  0  0  0  0 
 22 23  1  0  0  0  0 
 23 24  1  0  0  0  0 
 23 25  1  0  0  0  0 
 23 26  1  0  0  0  0 
 26 27  1  0  0  0  0 
 26 28  1  0  0  0  0 
 26 29  1  0  0  0  0 
 29 30  1  0  0  0  0 
 30 31  1  0  0  0  0 
 30 32  1  0  0  0  0 
 30 33  1  0  0  0  0 
 22 33  1  0  0  0  0 
 33 34  1  0  0  0  0 
 33 35  1  0  0  0  0 
 36 29  1  1  0  0  0 
 36 37  1  6  0  0  0 
 36 38  1  0  0  0  0 
 38 39  1  0  0  0  0 
 38 40  1  0  0  0  0 
 38 41  1  0  0  0  0 
 41 42  1  1  0  0  0 
 41 43  1  6  0  0  0 
 43 44  2  0  0  0  0 
 43 45  1  0  0  0  0 
 45 46  1  0  0  0  0 
 45 47  1  0  0  0  0 
 47 48  1  0  0  0  0 
 47 49  1  0  0  0  0 
 47 50  1  0  0  0  0 
 50 51  1  0  0  0  0 
 50 52  1  0  0  0  0 
 50 53  1  0  0  0  0 
 53 54  1  0  0  0  0 
 54 55  1  0  0  0  0 
 54 56  2  0  0  0  0 
 41 57  1  0  0  0  0 
 57 58  1  0  0  0  0 
 57 59  1  0  0  0  0 
 36 59  1  0  0  0  0 
 59 60  1  0  0  0  0 
 59 61  1  0  0  0  0 
M  END
> <Rank>
21

> <Priority_score>
0.21555763604447045

> <Reaction_type>
N-dealkylation

> <Parent_ID>
58

> <Parent_InChI>
InChI=1S/C22H30N6OS/c1-17-13-21(28(24-17)18-5-3-2-4-6-18)26-9-7-25(8-10-26)19-14-20(23-15-19)22(29)27-11-12-30-16-27/h2-6,13,19-20,23H,7-12,14-16H2,1H3

> <Parent_SMILES>
Cc1cc(N2CCN([C@H]3CN[C@H](C(=O)N4CCSC4)C3)CC2)n(-c2ccccc2)n1

$$$$
Molecule 58_metabolite 24
  CDK     0516241031

 61 64  0  0  0  0  0  0  0  0999 V2000
   -4.6931   -3.5652    0.0000 C   0  0  0  0  0  0  0  0  0  0  0  0
   -5.6996   -2.4529    0.0000 H   0  0  0  0  0  0  0  0  0  0  0  0
   -5.9632   -4.3632    0.0000 H   0  0  0  0  0  0  0  0  0  0  0  0
   -4.1278   -4.9545    0.0000 H   0  0  0  0  0  0  0  0  0  0  0  0
   -3.2267   -3.2496    0.0000 C   0  0  0  0  0  0  0  0  0  0  0  0
   -2.6238   -1.8739    0.0000 N   0  0  0  0  0  0  0  0  0  0  0  0
   -1.1309   -2.0396    0.0000 N   0  0  0  0  0  0  0  0  0  0  0  0
    0.1976   -0.5715    0.0000 C   0  0  0  0  0  0  0  0  0  0  0  0
    1.6648   -0.8877    0.0000 C   0  0  0  0  0  0  0  0  0  0  0  0
    2.1245   -2.3155    0.0000 H   0  0  0  0  0  0  0  0  0  0  0  0
    2.6712    0.2245    0.0000 C   0  0  0  0  0  0  0  0  0  0  0  0
    4.1377   -0.0907    0.0000 H   0  0  0  0  0  0  0  0  0  0  0  0
    2.2105    1.6529    0.0000 C   0  0  0  0  0  0  0  0  0  0  0  0
    3.2170    2.7651    0.0000 H   0  0  0  0  0  0  0  0  0  0  0  0
    0.7434    1.9691    0.0000 C   0  0  0  0  0  0  0  0  0  0  0  0
    0.2837    3.3969    0.0000 H   0  0  0  0  0  0  0  0  0  0  0  0
   -0.2631    0.8569    0.0000 C   0  0  0  0  0  0  0  0  0  0  0  0
   -1.7296    1.1722    0.0000 H   0  0  0  0  0  0  0  0  0  0  0  0
   -0.8193   -3.4994    0.0000 C   0  0  0  0  0  0  0  0  0  0  0  0
   -2.1183   -4.2494    0.0000 C   0  0  0  0  0  0  0  0  0  0  0  0
   -2.2758   -5.7411    0.0000 H   0  0  0  0  0  0  0  0  0  0  0  0
    0.9899   -4.3039    0.0000 N   0  0  0  0  0  0  0  0  0  0  0  0
    1.1477   -5.7964    0.0000 C   0  0  0  0  0  0  0  0  0  0  0  0
   -0.3487   -5.6924    0.0000 H   0  0  0  0  0  0  0  0  0  0  0  0
    0.7850   -7.2520    0.0000 H   0  0  0  0  0  0  0  0  0  0  0  0
    2.5187   -6.4069    0.0000 C   0  0  0  0  0  0  0  0  0  0  0  0
    1.6800   -7.6506    0.0000 H   0  0  0  0  0  0  0  0  0  0  0  0
    3.5979   -7.4487    0.0000 H   0  0  0  0  0  0  0  0  0  0  0  0
    3.7320   -5.5249    0.0000 N   0  0  0  0  0  0  0  0  0  0  0  0
    3.5742   -4.0324    0.0000 C   0  0  0  0  0  0  0  0  0  0  0  0
    5.0706   -4.1365    0.0000 H   0  0  0  0  0  0  0  0  0  0  0  0
    3.9368   -2.5769    0.0000 H   0  0  0  0  0  0  0  0  0  0  0  0
    2.2032   -3.4219    0.0000 C   0  0  0  0  0  0  0  0  0  0  0  0
    3.0419   -2.1783    0.0000 H   0  0  0  0  0  0  0  0  0  0  0  0
    1.1240   -2.3801    0.0000 H   0  0  0  0  0  0  0  0  0  0  0  0
    6.4183   -6.7195    0.0000 C   0  0  2  0  0  0  0  0  0  0  0  0
    5.6693   -8.0191    0.0000 H   0  0  0  0  0  0  0  0  0  0  0  0
    7.6328   -7.6000    0.0000 C   0  0  0  0  0  0  0  0  0  0  0  0
    6.6306   -8.7160    0.0000 H   0  0  0  0  0  0  0  0  0  0  0  0
    8.6383   -8.7131    0.0000 H   0  0  0  0  0  0  0  0  0  0  0  0
    8.8387   -6.7203    0.0000 C   0  0  1  0  0  0  0  0  0  0  0  0
    9.5882   -8.0196    0.0000 H   0  0  0  0  0  0  0  0  0  0  0  0
   10.2106   -6.1137    0.0000 C   0  0  0  0  0  0  0  0  0  0  0  0
   10.3712   -4.6224    0.0000 O   0  0  0  0  0  0  0  0  0  0  0  0
   11.4218   -6.9986    0.0000 N   0  0  0  0  0  0  0  0  0  0  0  0
   12.7937   -6.3920    0.0000 C   0  0  0  0  0  0  0  0  0  0  0  0
   13.8754   -5.3528    0.0000 H   0  0  0  0  0  0  0  0  0  0  0  0
   11.9581   -5.1463    0.0000 H   0  0  0  0  0  0  0  0  0  0  0  0
   14.0049   -7.2768    0.0000 C   0  0  0  0  0  0  0  0  0  0  0  0
   15.3768   -6.6702    0.0000 H   0  0  0  0  0  0  0  0  0  0  0  0
   13.8443   -8.7682    0.0000 O   0  0  0  0  0  0  0  0  0  0  0  0
   11.2612   -8.4899    0.0000 C   0  0  0  0  0  0  0  0  0  0  0  0
   12.7578   -8.3892    0.0000 H   0  0  0  0  0  0  0  0  0  0  0  0
   11.6203   -9.9463    0.0000 H   0  0  0  0  0  0  0  0  0  0  0  0
    9.8893   -9.0965    0.0000 S   0  0  0  0  0  0  0  0  0  0  0  0
    9.7286  -10.5879    0.0000 H   0  0  0  0  0  0  0  0  0  0  0  0
    8.3814   -5.2895    0.0000 N   0  0  0  0  0  0  0  0  0  0  0  0
    9.2618   -4.0751    0.0000 H   0  0  0  0  0  0  0  0  0  0  0  0
    6.8794   -5.2999    0.0000 C   0  0  0  0  0  0  0  0  0  0  0  0
    7.0292   -3.8074    0.0000 H   0  0  0  0  0  0  0  0  0  0  0  0
    5.4114   -4.9915    0.0000 H   0  0  0  0  0  0  0  0  0  0  0  0
  1  2  1  0  0  0  0 
  1  3  1  0  0  0  0 
  1  4  1  0  0  0  0 
  1  5  1  0  0  0  0 
  5  6  2  0  0  0  0 
  6  7  1  0  0  0  0 
  7  8  1  0  0  0  0 
  8  9  2  0  0  0  0 
  9 10  1  0  0  0  0 
  9 11  1  0  0  0  0 
 11 12  1  0  0  0  0 
 11 13  2  0  0  0  0 
 13 14  1  0  0  0  0 
 13 15  1  0  0  0  0 
 15 16  1  0  0  0  0 
 15 17  2  0  0  0  0 
  8 17  1  0  0  0  0 
 17 18  1  0  0  0  0 
  7 19  1  0  0  0  0 
 19 20  2  0  0  0  0 
  5 20  1  0  0  0  0 
 20 21  1  0  0  0  0 
 19 22  1  0  0  0  0 
 22 23  1  0  0  0  0 
 23 24  1  0  0  0  0 
 23 25  1  0  0  0  0 
 23 26  1  0  0  0  0 
 26 27  1  0  0  0  0 
 26 28  1  0  0  0  0 
 26 29  1  0  0  0  0 
 29 30  1  0  0  0  0 
 30 31  1  0  0  0  0 
 30 32  1  0  0  0  0 
 30 33  1  0  0  0  0 
 22 33  1  0  0  0  0 
 33 34  1  0  0  0  0 
 33 35  1  0  0  0  0 
 36 29  1  1  0  0  0 
 36 37  1  6  0  0  0 
 36 38  1  0  0  0  0 
 38 39  1  0  0  0  0 
 38 40  1  0  0  0  0 
 38 41  1  0  0  0  0 
 41 42  1  1  0  0  0 
 41 43  1  6  0  0  0 
 43 44  2  0  0  0  0 
 43 45  1  0  0  0  0 
 45 46  1  0  0  0  0 
 46 47  1  0  0  0  0 
 46 48  1  0  0  0  0 
 46 49  1  0  0  0  0 
 49 50  1  0  0  0  0 
 49 51  2  0  0  0  0 
 45 52  1  0  0  0  0 
 52 53  1  0  0  0  0 
 52 54  1  0  0  0  0 
 52 55  1  0  0  0  0 
 55 56  1  0  0  0  0 
 41 57  1  0  0  0  0 
 57 58  1  0  0  0  0 
 57 59  1  0  0  0  0 
 36 59  1  0  0  0  0 
 59 60  1  0  0  0  0 
 59 61  1  0  0  0  0 
M  END
> <Rank>
21

> <Priority_score>
0.21555763604447045

> <Reaction_type>
S-dealkylation

> <Parent_ID>
58

> <Parent_InChI>
InChI=1S/C22H30N6OS/c1-17-13-21(28(24-17)18-5-3-2-4-6-18)26-9-7-25(8-10-26)19-14-20(23-15-19)22(29)27-11-12-30-16-27/h2-6,13,19-20,23H,7-12,14-16H2,1H3

> <Parent_SMILES>
Cc1cc(N2CCN([C@H]3CN[C@H](C(=O)N4CCSC4)C3)CC2)n(-c2ccccc2)n1

$$$$
Molecule 58_metabolite 25
  CDK     0516241031

 61 65  0  0  0  0  0  0  0  0999 V2000
   12.3874   -1.9989    0.0000 C   0  0  0  0  0  0  0  0  0  0  0  0
   13.8152   -2.4589    0.0000 H   0  0  0  0  0  0  0  0  0  0  0  0
   13.0884   -0.6727    0.0000 H   0  0  0  0  0  0  0  0  0  0  0  0
   11.2031   -1.0784    0.0000 H   0  0  0  0  0  0  0  0  0  0  0  0
   11.2752   -3.0054    0.0000 C   0  0  0  0  0  0  0  0  0  0  0  0
   11.4410   -4.4983    0.0000 N   0  0  0  0  0  0  0  0  0  0  0  0
   10.0652   -5.1012    0.0000 N   0  0  0  0  0  0  0  0  0  0  0  0
    9.6487   -7.0369    0.0000 C   0  0  0  0  0  0  0  0  0  0  0  0
    8.2201   -7.4966    0.0000 C   0  0  0  0  0  0  0  0  0  0  0  0
    7.1080   -6.4900    0.0000 H   0  0  0  0  0  0  0  0  0  0  0  0
    7.9046   -8.9631    0.0000 C   0  0  0  0  0  0  0  0  0  0  0  0
    6.4769   -9.4233    0.0000 H   0  0  0  0  0  0  0  0  0  0  0  0
    9.0177   -9.9697    0.0000 C   0  0  0  0  0  0  0  0  0  0  0  0
    8.7022  -11.4362    0.0000 H   0  0  0  0  0  0  0  0  0  0  0  0
   10.4464   -9.5100    0.0000 C   0  0  0  0  0  0  0  0  0  0  0  0
   11.5584  -10.5166    0.0000 H   0  0  0  0  0  0  0  0  0  0  0  0
   10.7619   -8.0435    0.0000 C   0  0  0  0  0  0  0  0  0  0  0  0
   12.1896   -7.5833    0.0000 H   0  0  0  0  0  0  0  0  0  0  0  0
    9.0655   -3.9928    0.0000 C   0  0  0  0  0  0  0  0  0  0  0  0
    9.8155   -2.6937    0.0000 C   0  0  0  0  0  0  0  0  0  0  0  0
    9.2060   -1.3232    0.0000 H   0  0  0  0  0  0  0  0  0  0  0  0
    7.0964   -4.2006    0.0000 N   0  0  0  0  0  0  0  0  0  0  0  0
    6.2135   -2.9869    0.0000 C   0  0  0  0  0  0  0  0  0  0  0  0
    7.5614   -2.3289    0.0000 H   0  0  0  0  0  0  0  0  0  0  0  0
    5.7998   -1.5451    0.0000 H   0  0  0  0  0  0  0  0  0  0  0  0
    4.7209   -3.1438    0.0000 C   0  0  0  0  0  0  0  0  0  0  0  0
    4.8254   -1.6474    0.0000 H   0  0  0  0  0  0  0  0  0  0  0  0
    3.2654   -2.7811    0.0000 H   0  0  0  0  0  0  0  0  0  0  0  0
    4.1112   -4.5143    0.0000 N   0  0  0  0  0  0  0  0  0  0  0  0
    4.9941   -5.7279    0.0000 C   0  0  0  0  0  0  0  0  0  0  0  0
    3.6461   -6.3860    0.0000 H   0  0  0  0  0  0  0  0  0  0  0  0
    5.4078   -7.1697    0.0000 H   0  0  0  0  0  0  0  0  0  0  0  0
    6.4867   -5.5711    0.0000 C   0  0  0  0  0  0  0  0  0  0  0  0
    6.3822   -7.0675    0.0000 H   0  0  0  0  0  0  0  0  0  0  0  0
    7.9422   -5.9337    0.0000 H   0  0  0  0  0  0  0  0  0  0  0  0
    1.1874   -4.8229    0.0000 C   0  0  2  0  0  0  0  0  0  0  0  0
    1.1863   -3.3229    0.0000 H   0  0  0  0  0  0  0  0  0  0  0  0
   -0.3045   -4.6676    0.0000 C   0  0  0  0  0  0  0  0  0  0  0  0
    0.0054   -3.2000    0.0000 H   0  0  0  0  0  0  0  0  0  0  0  0
   -1.7319   -4.2064    0.0000 H   0  0  0  0  0  0  0  0  0  0  0  0
   -0.9090   -6.0324    0.0000 C   0  0  1  0  0  0  0  0  0  0  0  0
   -2.2078   -5.2819    0.0000 H   0  0  0  0  0  0  0  0  0  0  0  0
   -1.7938   -7.2436    0.0000 C   0  0  0  0  0  0  0  0  0  0  0  0
   -1.1873   -8.6155    0.0000 O   0  0  0  0  0  0  0  0  0  0  0  0
   -3.7625   -7.0316    0.0000 N   0  0  0  0  0  0  0  0  0  0  0  0
   -4.5097   -5.7309    0.0000 C   0  0  0  0  0  0  0  0  0  0  0  0
   -3.1382   -5.1233    0.0000 H   0  0  0  0  0  0  0  0  0  0  0  0
   -4.9710   -4.3036    0.0000 H   0  0  0  0  0  0  0  0  0  0  0  0
   -5.9701   -6.0394    0.0000 C   0  0  0  0  0  0  0  0  0  0  0  0
   -6.1216   -4.5471    0.0000 H   0  0  0  0  0  0  0  0  0  0  0  0
   -7.4701   -6.0308    0.0000 H   0  0  0  0  0  0  0  0  0  0  0  0
   -6.1390   -7.5320    0.0000 S   0  0  0  0  0  0  0  0  0  0  0  0
   -4.7646   -8.1378    0.0000 C   0  0  0  0  0  0  0  0  0  0  0  0
   -5.5127   -9.4379    0.0000 H   0  0  0  0  0  0  0  0  0  0  0  0
   -3.5517   -9.0204    0.0000 O   0  0  0  0  0  0  0  0  0  0  0  0
   -3.7097  -10.5121    0.0000 H   0  0  0  0  0  0  0  0  0  0  0  0
    0.2024   -7.0428    0.0000 N   0  0  0  0  0  0  0  0  0  0  0  0
    0.0471   -8.5348    0.0000 H   0  0  0  0  0  0  0  0  0  0  0  0
    1.4980   -6.2829    0.0000 C   0  0  0  0  0  0  0  0  0  0  0  0
    2.1144   -7.6503    0.0000 H   0  0  0  0  0  0  0  0  0  0  0  0
    2.9234   -5.8159    0.0000 H   0  0  0  0  0  0  0  0  0  0  0  0
  1  2  1  0  0  0  0 
  1  3  1  0  0  0  0 
  1  4  1  0  0  0  0 
  1  5  1  0  0  0  0 
  5  6  2  0  0  0  0 
  6  7  1  0  0  0  0 
  7  8  1  0  0  0  0 
  8  9  2  0  0  0  0 
  9 10  1  0  0  0  0 
  9 11  1  0  0  0  0 
 11 12  1  0  0  0  0 
 11 13  2  0  0  0  0 
 13 14  1  0  0  0  0 
 13 15  1  0  0  0  0 
 15 16  1  0  0  0  0 
 15 17  2  0  0  0  0 
  8 17  1  0  0  0  0 
 17 18  1  0  0  0  0 
  7 19  1  0  0  0  0 
 19 20  2  0  0  0  0 
  5 20  1  0  0  0  0 
 20 21  1  0  0  0  0 
 19 22  1  0  0  0  0 
 22 23  1  0  0  0  0 
 23 24  1  0  0  0  0 
 23 25  1  0  0  0  0 
 23 26  1  0  0  0  0 
 26 27  1  0  0  0  0 
 26 28  1  0  0  0  0 
 26 29  1  0  0  0  0 
 29 30  1  0  0  0  0 
 30 31  1  0  0  0  0 
 30 32  1  0  0  0  0 
 30 33  1  0  0  0  0 
 22 33  1  0  0  0  0 
 33 34  1  0  0  0  0 
 33 35  1  0  0  0  0 
 36 29  1  1  0  0  0 
 36 37  1  6  0  0  0 
 36 38  1  0  0  0  0 
 38 39  1  0  0  0  0 
 38 40  1  0  0  0  0 
 38 41  1  0  0  0  0 
 41 42  1  1  0  0  0 
 41 43  1  6  0  0  0 
 43 44  2  0  0  0  0 
 43 45  1  0  0  0  0 
 45 46  1  0  0  0  0 
 46 47  1  0  0  0  0 
 46 48  1  0  0  0  0 
 46 49  1  0  0  0  0 
 49 50  1  0  0  0  0 
 49 51  1  0  0  0  0 
 49 52  1  0  0  0  0 
 52 53  1  0  0  0  0 
 45 53  1  0  0  0  0 
 53 54  1  0  0  0  0 
 53 55  1  0  0  0  0 
 55 56  1  0  0  0  0 
 41 57  1  0  0  0  0 
 57 58  1  0  0  0  0 
 57 59  1  0  0  0  0 
 36 59  1  0  0  0  0 
 59 60  1  0  0  0  0 
 59 61  1  0  0  0  0 
M  END
> <Rank>
21

> <Priority_score>
0.21555763604447045

> <Reaction_type>
aliphatic hydroxylation

> <Parent_ID>
58

> <Parent_InChI>
InChI=1S/C22H30N6OS/c1-17-13-21(28(24-17)18-5-3-2-4-6-18)26-9-7-25(8-10-26)19-14-20(23-15-19)22(29)27-11-12-30-16-27/h2-6,13,19-20,23H,7-12,14-16H2,1H3

> <Parent_SMILES>
Cc1cc(N2CCN([C@H]3CN[C@H](C(=O)N4CCSC4)C3)CC2)n(-c2ccccc2)n1

$$$$
Molecule 58_metabolite 26
  CDK     0516241031

 59 63  0  0  0  0  0  0  0  0999 V2000
   12.0228   -5.9821    0.0000 C   0  0  0  0  0  0  0  0  0  0  0  0
   13.3230   -5.2342    0.0000 H   0  0  0  0  0  0  0  0  0  0  0  0
   12.9851   -7.1328    0.0000 H   0  0  0  0  0  0  0  0  0  0  0  0
   11.0567   -7.1297    0.0000 H   0  0  0  0  0  0  0  0  0  0  0  0
   10.7249   -5.2301    0.0000 C   0  0  0  0  0  0  0  0  0  0  0  0
   10.5754   -3.7355    0.0000 N   0  0  0  0  0  0  0  0  0  0  0  0
    9.1040   -3.4331    0.0000 N   0  0  0  0  0  0  0  0  0  0  0  0
    8.7363   -1.9789    0.0000 C   0  0  0  0  0  0  0  0  0  0  0  0
    7.2920   -1.5705    0.0000 C   0  0  0  0  0  0  0  0  0  0  0  0
    6.2167   -2.6163    0.0000 H   0  0  0  0  0  0  0  0  0  0  0  0
    6.9243   -0.1163    0.0000 C   0  0  0  0  0  0  0  0  0  0  0  0
    5.4810    0.2925    0.0000 H   0  0  0  0  0  0  0  0  0  0  0  0
    8.0007    0.9296    0.0000 C   0  0  0  0  0  0  0  0  0  0  0  0
    7.6329    2.3838    0.0000 H   0  0  0  0  0  0  0  0  0  0  0  0
    9.4449    0.5212    0.0000 C   0  0  0  0  0  0  0  0  0  0  0  0
   10.5202    1.5670    0.0000 H   0  0  0  0  0  0  0  0  0  0  0  0
    9.8127   -0.9330    0.0000 C   0  0  0  0  0  0  0  0  0  0  0  0
   11.2559   -1.3418    0.0000 H   0  0  0  0  0  0  0  0  0  0  0  0
    8.3577   -4.7258    0.0000 C   0  0  0  0  0  0  0  0  0  0  0  0
    9.3624   -5.8396    0.0000 C   0  0  0  0  0  0  0  0  0  0  0  0
    9.0525   -7.3072    0.0000 H   0  0  0  0  0  0  0  0  0  0  0  0
    6.3887   -4.9336    0.0000 N   0  0  0  0  0  0  0  0  0  0  0  0
    5.5063   -3.7195    0.0000 C   0  0  0  0  0  0  0  0  0  0  0  0
    5.0924   -2.2777    0.0000 H   0  0  0  0  0  0  0  0  0  0  0  0
    6.8544   -3.0616    0.0000 H   0  0  0  0  0  0  0  0  0  0  0  0
    4.0146   -3.8769    0.0000 C   0  0  0  0  0  0  0  0  0  0  0  0
    2.5589   -3.5150    0.0000 H   0  0  0  0  0  0  0  0  0  0  0  0
    4.1184   -2.3805    0.0000 H   0  0  0  0  0  0  0  0  0  0  0  0
    3.4052   -5.2485    0.0000 N   0  0  0  0  0  0  0  0  0  0  0  0
    4.2875   -6.4626    0.0000 C   0  0  0  0  0  0  0  0  0  0  0  0
    4.7015   -7.9043    0.0000 H   0  0  0  0  0  0  0  0  0  0  0  0
    2.9395   -7.1204    0.0000 H   0  0  0  0  0  0  0  0  0  0  0  0
    5.7793   -6.3051    0.0000 C   0  0  0  0  0  0  0  0  0  0  0  0
    6.6617   -7.5181    0.0000 O   0  0  0  0  0  0  0  0  0  0  0  0
    0.4815   -5.5571    0.0000 C   0  0  2  0  0  0  0  0  0  0  0  0
    0.4804   -4.0571    0.0000 H   0  0  0  0  0  0  0  0  0  0  0  0
   -1.0105   -5.4018    0.0000 C   0  0  0  0  0  0  0  0  0  0  0  0
   -0.7006   -3.9342    0.0000 H   0  0  0  0  0  0  0  0  0  0  0  0
   -2.4378   -4.9406    0.0000 H   0  0  0  0  0  0  0  0  0  0  0  0
   -1.6150   -6.7666    0.0000 C   0  0  1  0  0  0  0  0  0  0  0  0
   -2.9138   -6.0162    0.0000 H   0  0  0  0  0  0  0  0  0  0  0  0
   -2.4998   -7.9778    0.0000 C   0  0  0  0  0  0  0  0  0  0  0  0
   -1.8932   -9.3497    0.0000 O   0  0  0  0  0  0  0  0  0  0  0  0
   -4.4684   -7.7658    0.0000 N   0  0  0  0  0  0  0  0  0  0  0  0
   -5.2156   -6.4651    0.0000 C   0  0  0  0  0  0  0  0  0  0  0  0
   -3.8442   -5.8576    0.0000 H   0  0  0  0  0  0  0  0  0  0  0  0
   -5.6769   -5.0378    0.0000 H   0  0  0  0  0  0  0  0  0  0  0  0
   -6.6760   -6.7737    0.0000 C   0  0  0  0  0  0  0  0  0  0  0  0
   -6.8276   -5.2813    0.0000 H   0  0  0  0  0  0  0  0  0  0  0  0
   -8.1760   -6.7650    0.0000 H   0  0  0  0  0  0  0  0  0  0  0  0
   -6.8450   -8.2662    0.0000 S   0  0  0  0  0  0  0  0  0  0  0  0
   -5.4705   -8.8720    0.0000 C   0  0  0  0  0  0  0  0  0  0  0  0
   -6.2186  -10.1722    0.0000 H   0  0  0  0  0  0  0  0  0  0  0  0
   -4.2577   -9.7546    0.0000 H   0  0  0  0  0  0  0  0  0  0  0  0
   -0.5036   -7.7771    0.0000 N   0  0  0  0  0  0  0  0  0  0  0  0
   -0.6589   -9.2690    0.0000 H   0  0  0  0  0  0  0  0  0  0  0  0
    0.7920   -7.0171    0.0000 C   0  0  0  0  0  0  0  0  0  0  0  0
    1.4085   -8.3846    0.0000 H   0  0  0  0  0  0  0  0  0  0  0  0
    2.2175   -6.5501    0.0000 H   0  0  0  0  0  0  0  0  0  0  0  0
  1  2  1  0  0  0  0 
  1  3  1  0  0  0  0 
  1  4  1  0  0  0  0 
  1  5  1  0  0  0  0 
  5  6  2  0  0  0  0 
  6  7  1  0  0  0  0 
  7  8  1  0  0  0  0 
  8  9  2  0  0  0  0 
  9 10  1  0  0  0  0 
  9 11  1  0  0  0  0 
 11 12  1  0  0  0  0 
 11 13  2  0  0  0  0 
 13 14  1  0  0  0  0 
 13 15  1  0  0  0  0 
 15 16  1  0  0  0  0 
 15 17  2  0  0  0  0 
  8 17  1  0  0  0  0 
 17 18  1  0  0  0  0 
  7 19  1  0  0  0  0 
 19 20  2  0  0  0  0 
  5 20  1  0  0  0  0 
 20 21  1  0  0  0  0 
 19 22  1  0  0  0  0 
 22 23  1  0  0  0  0 
 23 24  1  0  0  0  0 
 23 25  1  0  0  0  0 
 23 26  1  0  0  0  0 
 26 27  1  0  0  0  0 
 26 28  1  0  0  0  0 
 26 29  1  0  0  0  0 
 29 30  1  0  0  0  0 
 30 31  1  0  0  0  0 
 30 32  1  0  0  0  0 
 30 33  1  0  0  0  0 
 22 33  1  0  0  0  0 
 33 34  2  0  0  0  0 
 35 29  1  1  0  0  0 
 35 36  1  6  0  0  0 
 35 37  1  0  0  0  0 
 37 38  1  0  0  0  0 
 37 39  1  0  0  0  0 
 37 40  1  0  0  0  0 
 40 41  1  1  0  0  0 
 40 42  1  6  0  0  0 
 42 43  2  0  0  0  0 
 42 44  1  0  0  0  0 
 44 45  1  0  0  0  0 
 45 46  1  0  0  0  0 
 45 47  1  0  0  0  0 
 45 48  1  0  0  0  0 
 48 49  1  0  0  0  0 
 48 50  1  0  0  0  0 
 48 51  1  0  0  0  0 
 51 52  1  0  0  0  0 
 44 52  1  0  0  0  0 
 52 53  1  0  0  0  0 
 52 54  1  0  0  0  0 
 40 55  1  0  0  0  0 
 55 56  1  0  0  0  0 
 55 57  1  0  0  0  0 
 35 57  1  0  0  0  0 
 57 58  1  0  0  0  0 
 57 59  1  0  0  0  0 
M  END
> <Rank>
26

> <Priority_score>
0.2

> <Reaction_type>
oxidation_(amine_in_a_ring)

> <Parent_ID>
58

> <Parent_InChI>
InChI=1S/C22H30N6OS/c1-17-13-21(28(24-17)18-5-3-2-4-6-18)26-9-7-25(8-10-26)19-14-20(23-15-19)22(29)27-11-12-30-16-27/h2-6,13,19-20,23H,7-12,14-16H2,1H3

> <Parent_SMILES>
Cc1cc(N2CCN([C@H]3CN[C@H](C(=O)N4CCSC4)C3)CC2)n(-c2ccccc2)n1

$$$$
Molecule 58_metabolite 27
  CDK     0516241031

 61 65  0  0  0  0  0  0  0  0999 V2000
   -4.6606   -8.2229    0.0000 C   0  0  0  0  0  0  0  0  0  0  0  0
   -6.0884   -7.7629    0.0000 H   0  0  0  0  0  0  0  0  0  0  0  0
   -5.3615   -9.5490    0.0000 H   0  0  0  0  0  0  0  0  0  0  0  0
   -3.4763   -9.1434    0.0000 H   0  0  0  0  0  0  0  0  0  0  0  0
   -3.5484   -7.2164    0.0000 C   0  0  0  0  0  0  0  0  0  0  0  0
   -3.7142   -5.7235    0.0000 N   0  0  0  0  0  0  0  0  0  0  0  0
   -2.3384   -5.1206    0.0000 N   0  0  0  0  0  0  0  0  0  0  0  0
   -1.9219   -3.1849    0.0000 C   0  0  0  0  0  0  0  0  0  0  0  0
   -0.4932   -2.7252    0.0000 C   0  0  0  0  0  0  0  0  0  0  0  0
    0.6188   -3.7318    0.0000 H   0  0  0  0  0  0  0  0  0  0  0  0
   -0.1777   -1.2587    0.0000 C   0  0  0  0  0  0  0  0  0  0  0  0
    1.2499   -0.7985    0.0000 H   0  0  0  0  0  0  0  0  0  0  0  0
   -1.2909   -0.2520    0.0000 C   0  0  0  0  0  0  0  0  0  0  0  0
   -0.9754    1.2144    0.0000 H   0  0  0  0  0  0  0  0  0  0  0  0
   -2.7196   -0.7118    0.0000 C   0  0  0  0  0  0  0  0  0  0  0  0
   -3.8316    0.2948    0.0000 H   0  0  0  0  0  0  0  0  0  0  0  0
   -3.0351   -2.1783    0.0000 C   0  0  0  0  0  0  0  0  0  0  0  0
   -4.4627   -2.6385    0.0000 H   0  0  0  0  0  0  0  0  0  0  0  0
   -1.3386   -6.2290    0.0000 C   0  0  0  0  0  0  0  0  0  0  0  0
   -2.0886   -7.5280    0.0000 C   0  0  0  0  0  0  0  0  0  0  0  0
   -1.4791   -8.8986    0.0000 H   0  0  0  0  0  0  0  0  0  0  0  0
    0.6304   -6.0212    0.0000 N   0  0  0  0  0  0  0  0  0  0  0  0
    1.2398   -4.6496    0.0000 C   0  0  0  0  0  0  0  0  0  0  0  0
    1.3436   -3.1532    0.0000 H   0  0  0  0  0  0  0  0  0  0  0  0
   -0.2159   -4.2877    0.0000 H   0  0  0  0  0  0  0  0  0  0  0  0
    2.7315   -4.4922    0.0000 C   0  0  0  0  0  0  0  0  0  0  0  0
    4.0796   -3.8343    0.0000 H   0  0  0  0  0  0  0  0  0  0  0  0
    2.3176   -3.0504    0.0000 H   0  0  0  0  0  0  0  0  0  0  0  0
    3.6138   -5.7063    0.0000 N   0  0  0  0  0  0  0  0  0  0  0  0
    6.5376   -5.3977    0.0000 C   0  0  2  0  0  0  0  0  0  0  0  0
    6.5387   -6.8977    0.0000 H   0  0  0  0  0  0  0  0  0  0  0  0
    8.0295   -5.5529    0.0000 C   0  0  0  0  0  0  0  0  0  0  0  0
    7.7196   -7.0205    0.0000 H   0  0  0  0  0  0  0  0  0  0  0  0
    9.4569   -6.0141    0.0000 H   0  0  0  0  0  0  0  0  0  0  0  0
    8.6340   -4.1881    0.0000 C   0  0  1  0  0  0  0  0  0  0  0  0
    9.9328   -4.9386    0.0000 H   0  0  0  0  0  0  0  0  0  0  0  0
    9.5189   -2.9769    0.0000 C   0  0  0  0  0  0  0  0  0  0  0  0
    8.9123   -1.6050    0.0000 O   0  0  0  0  0  0  0  0  0  0  0  0
   11.4875   -3.1890    0.0000 N   0  0  0  0  0  0  0  0  0  0  0  0
   12.2347   -4.4896    0.0000 C   0  0  0  0  0  0  0  0  0  0  0  0
   10.8632   -5.0972    0.0000 H   0  0  0  0  0  0  0  0  0  0  0  0
   12.6960   -5.9169    0.0000 H   0  0  0  0  0  0  0  0  0  0  0  0
   13.6951   -4.1811    0.0000 C   0  0  0  0  0  0  0  0  0  0  0  0
   13.8467   -5.6734    0.0000 H   0  0  0  0  0  0  0  0  0  0  0  0
   15.1951   -4.1897    0.0000 H   0  0  0  0  0  0  0  0  0  0  0  0
   13.8641   -2.6886    0.0000 S   0  0  0  0  0  0  0  0  0  0  0  0
   12.4896   -2.0827    0.0000 C   0  0  0  0  0  0  0  0  0  0  0  0
   13.2377   -0.7826    0.0000 H   0  0  0  0  0  0  0  0  0  0  0  0
   11.2768   -1.2001    0.0000 H   0  0  0  0  0  0  0  0  0  0  0  0
    7.5227   -3.1777    0.0000 N   0  0  0  0  0  0  0  0  0  0  0  0
    7.6779   -1.6857    0.0000 H   0  0  0  0  0  0  0  0  0  0  0  0
    6.2270   -3.9377    0.0000 C   0  0  0  0  0  0  0  0  0  0  0  0
    5.6106   -2.5702    0.0000 H   0  0  0  0  0  0  0  0  0  0  0  0
    4.8016   -4.4046    0.0000 H   0  0  0  0  0  0  0  0  0  0  0  0
    3.0044   -7.0778    0.0000 C   0  0  0  0  0  0  0  0  0  0  0  0
    2.9006   -8.5742    0.0000 H   0  0  0  0  0  0  0  0  0  0  0  0
    1.5127   -7.2353    0.0000 C   0  0  0  0  0  0  0  0  0  0  0  0
    0.1647   -7.8931    0.0000 H   0  0  0  0  0  0  0  0  0  0  0  0
    1.9267   -8.6770    0.0000 H   0  0  0  0  0  0  0  0  0  0  0  0
    4.4601   -7.4397    0.0000 O   0  0  0  0  0  0  0  0  0  0  0  0
    4.8745   -8.8814    0.0000 H   0  0  0  0  0  0  0  0  0  0  0  0
  1  2  1  0  0  0  0 
  1  3  1  0  0  0  0 
  1  4  1  0  0  0  0 
  1  5  1  0  0  0  0 
  5  6  2  0  0  0  0 
  6  7  1  0  0  0  0 
  7  8  1  0  0  0  0 
  8  9  2  0  0  0  0 
  9 10  1  0  0  0  0 
  9 11  1  0  0  0  0 
 11 12  1  0  0  0  0 
 11 13  2  0  0  0  0 
 13 14  1  0  0  0  0 
 13 15  1  0  0  0  0 
 15 16  1  0  0  0  0 
 15 17  2  0  0  0  0 
  8 17  1  0  0  0  0 
 17 18  1  0  0  0  0 
  7 19  1  0  0  0  0 
 19 20  2  0  0  0  0 
  5 20  1  0  0  0  0 
 20 21  1  0  0  0  0 
 19 22  1  0  0  0  0 
 22 23  1  0  0  0  0 
 23 24  1  0  0  0  0 
 23 25  1  0  0  0  0 
 23 26  1  0  0  0  0 
 26 27  1  0  0  0  0 
 26 28  1  0  0  0  0 
 26 29  1  0  0  0  0 
 30 29  1  1  0  0  0 
 30 31  1  6  0  0  0 
 30 32  1  0  0  0  0 
 32 33  1  0  0  0  0 
 32 34  1  0  0  0  0 
 32 35  1  0  0  0  0 
 35 36  1  1  0  0  0 
 35 37  1  6  0  0  0 
 37 38  2  0  0  0  0 
 37 39  1  0  0  0  0 
 39 40  1  0  0  0  0 
 40 41  1  0  0  0  0 
 40 42  1  0  0  0  0 
 40 43  1  0  0  0  0 
 43 44  1  0  0  0  0 
 43 45  1  0  0  0  0 
 43 46  1  0  0  0  0 
 46 47  1  0  0  0  0 
 39 47  1  0  0  0  0 
 47 48  1  0  0  0  0 
 47 49  1  0  0  0  0 
 35 50  1  0  0  0  0 
 50 51  1  0  0  0  0 
 50 52  1  0  0  0  0 
 30 52  1  0  0  0  0 
 52 53  1  0  0  0  0 
 52 54  1  0  0  0  0 
 29 55  1  0  0  0  0 
 55 56  1  0  0  0  0 
 55 57  1  0  0  0  0 
 22 57  1  0  0  0  0 
 57 58  1  0  0  0  0 
 57 59  1  0  0  0  0 
 55 60  1  0  0  0  0 
 60 61  1  0  0  0  0 
M  END
> <Rank>
26

> <Priority_score>
0.2

> <Reaction_type>
aliphatic_hydroxylation_(sec_carbon_next_to_SP2,in_a_ring)

> <Parent_ID>
58

> <Parent_InChI>
InChI=1S/C22H30N6OS/c1-17-13-21(28(24-17)18-5-3-2-4-6-18)26-9-7-25(8-10-26)19-14-20(23-15-19)22(29)27-11-12-30-16-27/h2-6,13,19-20,23H,7-12,14-16H2,1H3

> <Parent_SMILES>
Cc1cc(N2CCN([C@H]3CN[C@H](C(=O)N4CCSC4)C3)CC2)n(-c2ccccc2)n1

$$$$
Molecule 58_metabolite 28
  CDK     0516241031

 61 65  0  0  0  0  0  0  0  0999 V2000
   -4.6606   -8.2229    0.0000 C   0  0  0  0  0  0  0  0  0  0  0  0
   -6.0884   -7.7629    0.0000 H   0  0  0  0  0  0  0  0  0  0  0  0
   -5.3615   -9.5490    0.0000 H   0  0  0  0  0  0  0  0  0  0  0  0
   -3.4763   -9.1434    0.0000 H   0  0  0  0  0  0  0  0  0  0  0  0
   -3.5484   -7.2164    0.0000 C   0  0  0  0  0  0  0  0  0  0  0  0
   -3.7142   -5.7235    0.0000 N   0  0  0  0  0  0  0  0  0  0  0  0
   -2.3384   -5.1206    0.0000 N   0  0  0  0  0  0  0  0  0  0  0  0
   -1.9219   -3.1849    0.0000 C   0  0  0  0  0  0  0  0  0  0  0  0
   -0.4932   -2.7252    0.0000 C   0  0  0  0  0  0  0  0  0  0  0  0
    0.6188   -3.7318    0.0000 H   0  0  0  0  0  0  0  0  0  0  0  0
   -0.1777   -1.2587    0.0000 C   0  0  0  0  0  0  0  0  0  0  0  0
    1.2499   -0.7985    0.0000 H   0  0  0  0  0  0  0  0  0  0  0  0
   -1.2909   -0.2520    0.0000 C   0  0  0  0  0  0  0  0  0  0  0  0
   -0.9754    1.2144    0.0000 H   0  0  0  0  0  0  0  0  0  0  0  0
   -2.7196   -0.7118    0.0000 C   0  0  0  0  0  0  0  0  0  0  0  0
   -3.8316    0.2948    0.0000 H   0  0  0  0  0  0  0  0  0  0  0  0
   -3.0351   -2.1783    0.0000 C   0  0  0  0  0  0  0  0  0  0  0  0
   -4.4627   -2.6385    0.0000 H   0  0  0  0  0  0  0  0  0  0  0  0
   -1.3386   -6.2290    0.0000 C   0  0  0  0  0  0  0  0  0  0  0  0
   -2.0886   -7.5280    0.0000 C   0  0  0  0  0  0  0  0  0  0  0  0
   -1.4791   -8.8986    0.0000 H   0  0  0  0  0  0  0  0  0  0  0  0
    0.6304   -6.0212    0.0000 N   0  0  0  0  0  0  0  0  0  0  0  0
    1.2398   -4.6496    0.0000 C   0  0  0  0  0  0  0  0  0  0  0  0
    1.3436   -3.1532    0.0000 H   0  0  0  0  0  0  0  0  0  0  0  0
   -0.2159   -4.2877    0.0000 H   0  0  0  0  0  0  0  0  0  0  0  0
    2.7315   -4.4922    0.0000 C   0  0  0  0  0  0  0  0  0  0  0  0
    4.0796   -3.8343    0.0000 H   0  0  0  0  0  0  0  0  0  0  0  0
    2.3176   -3.0504    0.0000 H   0  0  0  0  0  0  0  0  0  0  0  0
    3.6138   -5.7063    0.0000 N   0  0  0  0  0  0  0  0  0  0  0  0
    3.0044   -7.0778    0.0000 C   0  0  0  0  0  0  0  0  0  0  0  0
    2.9006   -8.5742    0.0000 H   0  0  0  0  0  0  0  0  0  0  0  0
    4.4601   -7.4397    0.0000 H   0  0  0  0  0  0  0  0  0  0  0  0
    1.5127   -7.2353    0.0000 C   0  0  0  0  0  0  0  0  0  0  0  0
    0.1647   -7.8931    0.0000 H   0  0  0  0  0  0  0  0  0  0  0  0
    1.9267   -8.6770    0.0000 O   0  0  0  0  0  0  0  0  0  0  0  0
    0.8850   -9.7564    0.0000 H   0  0  0  0  0  0  0  0  0  0  0  0
    6.5376   -5.3977    0.0000 C   0  0  2  0  0  0  0  0  0  0  0  0
    6.5387   -6.8977    0.0000 H   0  0  0  0  0  0  0  0  0  0  0  0
    8.0295   -5.5529    0.0000 C   0  0  0  0  0  0  0  0  0  0  0  0
    7.7196   -7.0205    0.0000 H   0  0  0  0  0  0  0  0  0  0  0  0
    9.4569   -6.0141    0.0000 H   0  0  0  0  0  0  0  0  0  0  0  0
    8.6340   -4.1881    0.0000 C   0  0  1  0  0  0  0  0  0  0  0  0
    9.9328   -4.9386    0.0000 H   0  0  0  0  0  0  0  0  0  0  0  0
    9.5189   -2.9769    0.0000 C   0  0  0  0  0  0  0  0  0  0  0  0
    8.9123   -1.6050    0.0000 O   0  0  0  0  0  0  0  0  0  0  0  0
   11.4875   -3.1890    0.0000 N   0  0  0  0  0  0  0  0  0  0  0  0
   12.2347   -4.4896    0.0000 C   0  0  0  0  0  0  0  0  0  0  0  0
   10.8632   -5.0972    0.0000 H   0  0  0  0  0  0  0  0  0  0  0  0
   12.6960   -5.9169    0.0000 H   0  0  0  0  0  0  0  0  0  0  0  0
   13.6951   -4.1811    0.0000 C   0  0  0  0  0  0  0  0  0  0  0  0
   13.8467   -5.6734    0.0000 H   0  0  0  0  0  0  0  0  0  0  0  0
   15.1951   -4.1897    0.0000 H   0  0  0  0  0  0  0  0  0  0  0  0
   13.8641   -2.6886    0.0000 S   0  0  0  0  0  0  0  0  0  0  0  0
   12.4896   -2.0827    0.0000 C   0  0  0  0  0  0  0  0  0  0  0  0
   13.2377   -0.7826    0.0000 H   0  0  0  0  0  0  0  0  0  0  0  0
   11.2768   -1.2001    0.0000 H   0  0  0  0  0  0  0  0  0  0  0  0
    7.5227   -3.1777    0.0000 N   0  0  0  0  0  0  0  0  0  0  0  0
    7.6779   -1.6857    0.0000 H   0  0  0  0  0  0  0  0  0  0  0  0
    6.2270   -3.9377    0.0000 C   0  0  0  0  0  0  0  0  0  0  0  0
    5.6106   -2.5702    0.0000 H   0  0  0  0  0  0  0  0  0  0  0  0
    4.8016   -4.4046    0.0000 H   0  0  0  0  0  0  0  0  0  0  0  0
  1  2  1  0  0  0  0 
  1  3  1  0  0  0  0 
  1  4  1  0  0  0  0 
  1  5  1  0  0  0  0 
  5  6  2  0  0  0  0 
  6  7  1  0  0  0  0 
  7  8  1  0  0  0  0 
  8  9  2  0  0  0  0 
  9 10  1  0  0  0  0 
  9 11  1  0  0  0  0 
 11 12  1  0  0  0  0 
 11 13  2  0  0  0  0 
 13 14  1  0  0  0  0 
 13 15  1  0  0  0  0 
 15 16  1  0  0  0  0 
 15 17  2  0  0  0  0 
  8 17  1  0  0  0  0 
 17 18  1  0  0  0  0 
  7 19  1  0  0  0  0 
 19 20  2  0  0  0  0 
  5 20  1  0  0  0  0 
 20 21  1  0  0  0  0 
 19 22  1  0  0  0  0 
 22 23  1  0  0  0  0 
 23 24  1  0  0  0  0 
 23 25  1  0  0  0  0 
 23 26  1  0  0  0  0 
 26 27  1  0  0  0  0 
 26 28  1  0  0  0  0 
 26 29  1  0  0  0  0 
 29 30  1  0  0  0  0 
 30 31  1  0  0  0  0 
 30 32  1  0  0  0  0 
 30 33  1  0  0  0  0 
 22 33  1  0  0  0  0 
 33 34  1  0  0  0  0 
 33 35  1  0  0  0  0 
 35 36  1  0  0  0  0 
 37 29  1  1  0  0  0 
 37 38  1  6  0  0  0 
 37 39  1  0  0  0  0 
 39 40  1  0  0  0  0 
 39 41  1  0  0  0  0 
 39 42  1  0  0  0  0 
 42 43  1  1  0  0  0 
 42 44  1  6  0  0  0 
 44 45  2  0  0  0  0 
 44 46  1  0  0  0  0 
 46 47  1  0  0  0  0 
 47 48  1  0  0  0  0 
 47 49  1  0  0  0  0 
 47 50  1  0  0  0  0 
 50 51  1  0  0  0  0 
 50 52  1  0  0  0  0 
 50 53  1  0  0  0  0 
 53 54  1  0  0  0  0 
 46 54  1  0  0  0  0 
 54 55  1  0  0  0  0 
 54 56  1  0  0  0  0 
 42 57  1  0  0  0  0 
 57 58  1  0  0  0  0 
 57 59  1  0  0  0  0 
 37 59  1  0  0  0  0 
 59 60  1  0  0  0  0 
 59 61  1  0  0  0  0 
M  END
> <Rank>
26

> <Priority_score>
0.2

> <Reaction_type>
aliphatic_hydroxylation_(sec_carbon_next_to_SP2,in_a_ring)

> <Parent_ID>
58

> <Parent_InChI>
InChI=1S/C22H30N6OS/c1-17-13-21(28(24-17)18-5-3-2-4-6-18)26-9-7-25(8-10-26)19-14-20(23-15-19)22(29)27-11-12-30-16-27/h2-6,13,19-20,23H,7-12,14-16H2,1H3

> <Parent_SMILES>
Cc1cc(N2CCN([C@H]3CN[C@H](C(=O)N4CCSC4)C3)CC2)n(-c2ccccc2)n1

$$$$
Molecule 58_metabolite 29
  CDK     0516241031

 61 64  0  0  0  0  0  0  0  0999 V2000
    8.2684   -6.2479    0.0000 C   0  0  0  0  0  0  0  0  0  0  0  0
    9.5686   -5.5000    0.0000 H   0  0  0  0  0  0  0  0  0  0  0  0
    9.2307   -7.3986    0.0000 H   0  0  0  0  0  0  0  0  0  0  0  0
    7.3024   -7.3955    0.0000 H   0  0  0  0  0  0  0  0  0  0  0  0
    6.9706   -5.4959    0.0000 C   0  0  0  0  0  0  0  0  0  0  0  0
    6.8210   -4.0013    0.0000 N   0  0  0  0  0  0  0  0  0  0  0  0
    5.3497   -3.6989    0.0000 N   0  0  0  0  0  0  0  0  0  0  0  0
    4.5383   -1.8928    0.0000 C   0  0  0  0  0  0  0  0  0  0  0  0
    3.0451   -1.7414    0.0000 C   0  0  0  0  0  0  0  0  0  0  0  0
    2.1677   -2.9580    0.0000 H   0  0  0  0  0  0  0  0  0  0  0  0
    2.4304   -0.3732    0.0000 C   0  0  0  0  0  0  0  0  0  0  0  0
    0.9381   -0.2212    0.0000 H   0  0  0  0  0  0  0  0  0  0  0  0
    3.3088    0.8437    0.0000 C   0  0  0  0  0  0  0  0  0  0  0  0
    2.6941    2.2120    0.0000 H   0  0  0  0  0  0  0  0  0  0  0  0
    4.8020    0.6924    0.0000 C   0  0  0  0  0  0  0  0  0  0  0  0
    5.6794    1.9090    0.0000 H   0  0  0  0  0  0  0  0  0  0  0  0
    5.4167   -0.6759    0.0000 C   0  0  0  0  0  0  0  0  0  0  0  0
    6.9090   -0.8279    0.0000 H   0  0  0  0  0  0  0  0  0  0  0  0
    4.6034   -4.9915    0.0000 C   0  0  0  0  0  0  0  0  0  0  0  0
    5.6080   -6.1054    0.0000 C   0  0  0  0  0  0  0  0  0  0  0  0
    5.2981   -7.5730    0.0000 H   0  0  0  0  0  0  0  0  0  0  0  0
    2.6343   -5.1994    0.0000 N   0  0  0  0  0  0  0  0  0  0  0  0
    2.0248   -6.5700    0.0000 C   0  0  0  0  0  0  0  0  0  0  0  0
    3.4804   -6.9322    0.0000 H   0  0  0  0  0  0  0  0  0  0  0  0
    1.9208   -8.0664    0.0000 H   0  0  0  0  0  0  0  0  0  0  0  0
    0.5331   -6.7274    0.0000 C   0  0  0  0  0  0  0  0  0  0  0  0
   -0.9225   -6.3652    0.0000 H   0  0  0  0  0  0  0  0  0  0  0  0
    0.6371   -5.2310    0.0000 H   0  0  0  0  0  0  0  0  0  0  0  0
   -0.0764   -8.0980    0.0000 N   0  0  0  0  0  0  0  0  0  0  0  0
    0.8058   -9.3111    0.0000 H   0  0  0  0  0  0  0  0  0  0  0  0
   -2.0455   -8.3058    0.0000 C   0  0  2  0  0  0  0  0  0  0  0  0
   -2.0466   -6.8058    0.0000 H   0  0  0  0  0  0  0  0  0  0  0  0
   -3.5374   -8.1506    0.0000 C   0  0  0  0  0  0  0  0  0  0  0  0
   -3.2275   -6.6830    0.0000 H   0  0  0  0  0  0  0  0  0  0  0  0
   -4.9647   -7.6894    0.0000 H   0  0  0  0  0  0  0  0  0  0  0  0
   -4.1419   -9.5153    0.0000 C   0  0  1  0  0  0  0  0  0  0  0  0
   -5.4407   -8.7649    0.0000 H   0  0  0  0  0  0  0  0  0  0  0  0
   -5.0267  -10.7266    0.0000 C   0  0  0  0  0  0  0  0  0  0  0  0
   -4.4202  -12.0985    0.0000 O   0  0  0  0  0  0  0  0  0  0  0  0
   -6.9953  -10.5145    0.0000 N   0  0  0  0  0  0  0  0  0  0  0  0
   -7.7426   -9.2139    0.0000 C   0  0  0  0  0  0  0  0  0  0  0  0
   -6.3711   -8.6063    0.0000 H   0  0  0  0  0  0  0  0  0  0  0  0
   -8.2039   -7.7866    0.0000 H   0  0  0  0  0  0  0  0  0  0  0  0
   -9.2030   -9.5224    0.0000 C   0  0  0  0  0  0  0  0  0  0  0  0
   -9.3545   -8.0301    0.0000 H   0  0  0  0  0  0  0  0  0  0  0  0
  -10.7030   -9.5138    0.0000 H   0  0  0  0  0  0  0  0  0  0  0  0
   -9.3719  -11.0149    0.0000 S   0  0  0  0  0  0  0  0  0  0  0  0
   -7.9975  -11.6208    0.0000 C   0  0  0  0  0  0  0  0  0  0  0  0
   -8.7456  -12.9209    0.0000 H   0  0  0  0  0  0  0  0  0  0  0  0
   -6.7846  -12.5034    0.0000 H   0  0  0  0  0  0  0  0  0  0  0  0
   -3.0305  -10.5258    0.0000 N   0  0  0  0  0  0  0  0  0  0  0  0
   -3.1858  -12.0178    0.0000 H   0  0  0  0  0  0  0  0  0  0  0  0
   -1.7349   -9.7658    0.0000 C   0  0  0  0  0  0  0  0  0  0  0  0
   -1.1185  -11.1333    0.0000 H   0  0  0  0  0  0  0  0  0  0  0  0
   -0.3094   -9.2989    0.0000 H   0  0  0  0  0  0  0  0  0  0  0  0
    1.7521   -3.9862    0.0000 C   0  0  0  0  0  0  0  0  0  0  0  0
    3.1000   -3.3281    0.0000 H   0  0  0  0  0  0  0  0  0  0  0  0
    1.3380   -2.5445    0.0000 H   0  0  0  0  0  0  0  0  0  0  0  0
    0.2604   -4.1437    0.0000 C   0  0  0  0  0  0  0  0  0  0  0  0
   -0.3491   -5.5143    0.0000 H   0  0  0  0  0  0  0  0  0  0  0  0
   -0.6218   -2.9306    0.0000 O   0  0  0  0  0  0  0  0  0  0  0  0
  1  2  1  0  0  0  0 
  1  3  1  0  0  0  0 
  1  4  1  0  0  0  0 
  1  5  1  0  0  0  0 
  5  6  2  0  0  0  0 
  6  7  1  0  0  0  0 
  7  8  1  0  0  0  0 
  8  9  2  0  0  0  0 
  9 10  1  0  0  0  0 
  9 11  1  0  0  0  0 
 11 12  1  0  0  0  0 
 11 13  2  0  0  0  0 
 13 14  1  0  0  0  0 
 13 15  1  0  0  0  0 
 15 16  1  0  0  0  0 
 15 17  2  0  0  0  0 
  8 17  1  0  0  0  0 
 17 18  1  0  0  0  0 
  7 19  1  0  0  0  0 
 19 20  2  0  0  0  0 
  5 20  1  0  0  0  0 
 20 21  1  0  0  0  0 
 19 22  1  0  0  0  0 
 22 23  1  0  0  0  0 
 23 24  1  0  0  0  0 
 23 25  1  0  0  0  0 
 23 26  1  0  0  0  0 
 26 27  1  0  0  0  0 
 26 28  1  0  0  0  0 
 26 29  1  0  0  0  0 
 29 30  1  0  0  0  0 
 31 29  1  1  0  0  0 
 31 32  1  6  0  0  0 
 31 33  1  0  0  0  0 
 33 34  1  0  0  0  0 
 33 35  1  0  0  0  0 
 33 36  1  0  0  0  0 
 36 37  1  1  0  0  0 
 36 38  1  6  0  0  0 
 38 39  2  0  0  0  0 
 38 40  1  0  0  0  0 
 40 41  1  0  0  0  0 
 41 42  1  0  0  0  0 
 41 43  1  0  0  0  0 
 41 44  1  0  0  0  0 
 44 45  1  0  0  0  0 
 44 46  1  0  0  0  0 
 44 47  1  0  0  0  0 
 47 48  1  0  0  0  0 
 40 48  1  0  0  0  0 
 48 49  1  0  0  0  0 
 48 50  1  0  0  0  0 
 36 51  1  0  0  0  0 
 51 52  1  0  0  0  0 
 51 53  1  0  0  0  0 
 31 53  1  0  0  0  0 
 53 54  1  0  0  0  0 
 53 55  1  0  0  0  0 
 22 56  1  0  0  0  0 
 56 57  1  0  0  0  0 
 56 58  1  0  0  0  0 
 56 59  1  0  0  0  0 
 59 60  1  0  0  0  0 
 59 61  2  0  0  0  0 
M  END
> <Rank>
26

> <Priority_score>
0.2

> <Reaction_type>
N-dealkylation

> <Parent_ID>
58

> <Parent_InChI>
InChI=1S/C22H30N6OS/c1-17-13-21(28(24-17)18-5-3-2-4-6-18)26-9-7-25(8-10-26)19-14-20(23-15-19)22(29)27-11-12-30-16-27/h2-6,13,19-20,23H,7-12,14-16H2,1H3

> <Parent_SMILES>
Cc1cc(N2CCN([C@H]3CN[C@H](C(=O)N4CCSC4)C3)CC2)n(-c2ccccc2)n1

$$$$
Molecule 58_metabolite 30
  CDK     0516241031

 59 63  0  0  0  0  0  0  0  0999 V2000
   11.2631   -5.6443    0.0000 C   0  0  0  0  0  0  0  0  0  0  0  0
   12.5633   -4.8964    0.0000 H   0  0  0  0  0  0  0  0  0  0  0  0
   12.2254   -6.7949    0.0000 H   0  0  0  0  0  0  0  0  0  0  0  0
   10.2971   -6.7918    0.0000 H   0  0  0  0  0  0  0  0  0  0  0  0
    9.9653   -4.8922    0.0000 C   0  0  0  0  0  0  0  0  0  0  0  0
    9.8157   -3.3976    0.0000 N   0  0  0  0  0  0  0  0  0  0  0  0
    8.3444   -3.0953    0.0000 N   0  0  0  0  0  0  0  0  0  0  0  0
    7.9766   -1.6410    0.0000 C   0  0  0  0  0  0  0  0  0  0  0  0
    6.5324   -1.2327    0.0000 C   0  0  0  0  0  0  0  0  0  0  0  0
    5.4571   -2.2785    0.0000 H   0  0  0  0  0  0  0  0  0  0  0  0
    6.1646    0.2215    0.0000 C   0  0  0  0  0  0  0  0  0  0  0  0
    4.7214    0.6303    0.0000 H   0  0  0  0  0  0  0  0  0  0  0  0
    7.2410    1.2674    0.0000 C   0  0  0  0  0  0  0  0  0  0  0  0
    6.8732    2.7216    0.0000 H   0  0  0  0  0  0  0  0  0  0  0  0
    8.6852    0.8590    0.0000 C   0  0  0  0  0  0  0  0  0  0  0  0
    9.7605    1.9048    0.0000 H   0  0  0  0  0  0  0  0  0  0  0  0
    9.0530   -0.5952    0.0000 C   0  0  0  0  0  0  0  0  0  0  0  0
   10.4962   -1.0040    0.0000 H   0  0  0  0  0  0  0  0  0  0  0  0
    7.5981   -4.3879    0.0000 C   0  0  0  0  0  0  0  0  0  0  0  0
    8.6027   -5.5018    0.0000 C   0  0  0  0  0  0  0  0  0  0  0  0
    8.2928   -6.9694    0.0000 H   0  0  0  0  0  0  0  0  0  0  0  0
    5.6290   -4.5958    0.0000 N   0  0  0  0  0  0  0  0  0  0  0  0
    4.7467   -3.3817    0.0000 C   0  0  0  0  0  0  0  0  0  0  0  0
    4.3327   -1.9399    0.0000 H   0  0  0  0  0  0  0  0  0  0  0  0
    6.0947   -2.7238    0.0000 H   0  0  0  0  0  0  0  0  0  0  0  0
    3.2550   -3.5391    0.0000 C   0  0  0  0  0  0  0  0  0  0  0  0
    1.7993   -3.1772    0.0000 H   0  0  0  0  0  0  0  0  0  0  0  0
    3.3588   -2.0427    0.0000 H   0  0  0  0  0  0  0  0  0  0  0  0
    2.6456   -4.9107    0.0000 N   0  0  0  0  0  0  0  0  0  0  0  0
    0.6765   -5.1185    0.0000 C   0  0  2  0  0  0  0  0  0  0  0  0
    0.6754   -3.6185    0.0000 H   0  0  0  0  0  0  0  0  0  0  0  0
   -0.8154   -4.9633    0.0000 C   0  0  0  0  0  0  0  0  0  0  0  0
   -0.5055   -3.4956    0.0000 H   0  0  0  0  0  0  0  0  0  0  0  0
   -2.2428   -4.5020    0.0000 H   0  0  0  0  0  0  0  0  0  0  0  0
   -1.4199   -6.3280    0.0000 C   0  0  1  0  0  0  0  0  0  0  0  0
   -2.7187   -5.5776    0.0000 H   0  0  0  0  0  0  0  0  0  0  0  0
   -2.3047   -7.5393    0.0000 C   0  0  0  0  0  0  0  0  0  0  0  0
   -1.6982   -8.9111    0.0000 O   0  0  0  0  0  0  0  0  0  0  0  0
   -4.2734   -7.3272    0.0000 N   0  0  0  0  0  0  0  0  0  0  0  0
   -5.0206   -6.0266    0.0000 C   0  0  0  0  0  0  0  0  0  0  0  0
   -3.6491   -5.4190    0.0000 H   0  0  0  0  0  0  0  0  0  0  0  0
   -5.4819   -4.5993    0.0000 H   0  0  0  0  0  0  0  0  0  0  0  0
   -6.4810   -6.3351    0.0000 C   0  0  0  0  0  0  0  0  0  0  0  0
   -6.6326   -4.8427    0.0000 H   0  0  0  0  0  0  0  0  0  0  0  0
   -7.9810   -6.3264    0.0000 H   0  0  0  0  0  0  0  0  0  0  0  0
   -6.6500   -7.8276    0.0000 S   0  0  0  0  0  0  0  0  0  0  0  0
   -5.2755   -8.4334    0.0000 C   0  0  0  0  0  0  0  0  0  0  0  0
   -6.0236   -9.7336    0.0000 H   0  0  0  0  0  0  0  0  0  0  0  0
   -4.0626   -9.3161    0.0000 H   0  0  0  0  0  0  0  0  0  0  0  0
   -0.3086   -7.3385    0.0000 N   0  0  0  0  0  0  0  0  0  0  0  0
   -0.4638   -8.8304    0.0000 H   0  0  0  0  0  0  0  0  0  0  0  0
    0.9871   -6.5785    0.0000 C   0  0  0  0  0  0  0  0  0  0  0  0
    1.6035   -7.9460    0.0000 H   0  0  0  0  0  0  0  0  0  0  0  0
    2.4125   -6.1115    0.0000 H   0  0  0  0  0  0  0  0  0  0  0  0
    3.5279   -6.1248    0.0000 C   0  0  0  0  0  0  0  0  0  0  0  0
    2.9182   -7.4953    0.0000 O   0  0  0  0  0  0  0  0  0  0  0  0
    5.0196   -5.9673    0.0000 C   0  0  0  0  0  0  0  0  0  0  0  0
    6.4753   -6.3292    0.0000 H   0  0  0  0  0  0  0  0  0  0  0  0
    4.9158   -7.4637    0.0000 H   0  0  0  0  0  0  0  0  0  0  0  0
  1  2  1  0  0  0  0 
  1  3  1  0  0  0  0 
  1  4  1  0  0  0  0 
  1  5  1  0  0  0  0 
  5  6  2  0  0  0  0 
  6  7  1  0  0  0  0 
  7  8  1  0  0  0  0 
  8  9  2  0  0  0  0 
  9 10  1  0  0  0  0 
  9 11  1  0  0  0  0 
 11 12  1  0  0  0  0 
 11 13  2  0  0  0  0 
 13 14  1  0  0  0  0 
 13 15  1  0  0  0  0 
 15 16  1  0  0  0  0 
 15 17  2  0  0  0  0 
  8 17  1  0  0  0  0 
 17 18  1  0  0  0  0 
  7 19  1  0  0  0  0 
 19 20  2  0  0  0  0 
  5 20  1  0  0  0  0 
 20 21  1  0  0  0  0 
 19 22  1  0  0  0  0 
 22 23  1  0  0  0  0 
 23 24  1  0  0  0  0 
 23 25  1  0  0  0  0 
 23 26  1  0  0  0  0 
 26 27  1  0  0  0  0 
 26 28  1  0  0  0  0 
 26 29  1  0  0  0  0 
 30 29  1  1  0  0  0 
 30 31  1  6  0  0  0 
 30 32  1  0  0  0  0 
 32 33  1  0  0  0  0 
 32 34  1  0  0  0  0 
 32 35  1  0  0  0  0 
 35 36  1  1  0  0  0 
 35 37  1  6  0  0  0 
 37 38  2  0  0  0  0 
 37 39  1  0  0  0  0 
 39 40  1  0  0  0  0 
 40 41  1  0  0  0  0 
 40 42  1  0  0  0  0 
 40 43  1  0  0  0  0 
 43 44  1  0  0  0  0 
 43 45  1  0  0  0  0 
 43 46  1  0  0  0  0 
 46 47  1  0  0  0  0 
 39 47  1  0  0  0  0 
 47 48  1  0  0  0  0 
 47 49  1  0  0  0  0 
 35 50  1  0  0  0  0 
 50 51  1  0  0  0  0 
 50 52  1  0  0  0  0 
 30 52  1  0  0  0  0 
 52 53  1  0  0  0  0 
 52 54  1  0  0  0  0 
 29 55  1  0  0  0  0 
 55 56  2  0  0  0  0 
 55 57  1  0  0  0  0 
 22 57  1  0  0  0  0 
 57 58  1  0  0  0  0 
 57 59  1  0  0  0  0 
M  END
> <Rank>
26

> <Priority_score>
0.2

> <Reaction_type>
oxidation_(amine_in_a_ring)

> <Parent_ID>
58

> <Parent_InChI>
InChI=1S/C22H30N6OS/c1-17-13-21(28(24-17)18-5-3-2-4-6-18)26-9-7-25(8-10-26)19-14-20(23-15-19)22(29)27-11-12-30-16-27/h2-6,13,19-20,23H,7-12,14-16H2,1H3

> <Parent_SMILES>
Cc1cc(N2CCN([C@H]3CN[C@H](C(=O)N4CCSC4)C3)CC2)n(-c2ccccc2)n1

$$$$
Molecule 58_metabolite 31
  CDK     0516241031

 61 65  0  0  0  0  0  0  0  0999 V2000
   12.3659   -2.0114    0.0000 C   0  0  0  0  0  0  0  0  0  0  0  0
   13.7936   -2.4713    0.0000 H   0  0  0  0  0  0  0  0  0  0  0  0
   13.0668   -0.6852    0.0000 H   0  0  0  0  0  0  0  0  0  0  0  0
   11.1816   -1.0908    0.0000 H   0  0  0  0  0  0  0  0  0  0  0  0
   11.2537   -3.0178    0.0000 C   0  0  0  0  0  0  0  0  0  0  0  0
   11.4194   -4.5107    0.0000 N   0  0  0  0  0  0  0  0  0  0  0  0
   10.0437   -5.1136    0.0000 N   0  0  0  0  0  0  0  0  0  0  0  0
    9.6272   -7.0493    0.0000 C   0  0  0  0  0  0  0  0  0  0  0  0
    8.1985   -7.5091    0.0000 C   0  0  0  0  0  0  0  0  0  0  0  0
    7.0865   -6.5024    0.0000 H   0  0  0  0  0  0  0  0  0  0  0  0
    7.8830   -8.9755    0.0000 C   0  0  0  0  0  0  0  0  0  0  0  0
    6.4553   -9.4357    0.0000 H   0  0  0  0  0  0  0  0  0  0  0  0
    8.9961   -9.9822    0.0000 C   0  0  0  0  0  0  0  0  0  0  0  0
    8.6806  -11.4486    0.0000 H   0  0  0  0  0  0  0  0  0  0  0  0
   10.4248   -9.5224    0.0000 C   0  0  0  0  0  0  0  0  0  0  0  0
   11.5369  -10.5291    0.0000 H   0  0  0  0  0  0  0  0  0  0  0  0
   10.7403   -8.0560    0.0000 C   0  0  0  0  0  0  0  0  0  0  0  0
   12.1680   -7.5958    0.0000 H   0  0  0  0  0  0  0  0  0  0  0  0
    9.0439   -4.0052    0.0000 C   0  0  0  0  0  0  0  0  0  0  0  0
    9.7939   -2.7062    0.0000 C   0  0  0  0  0  0  0  0  0  0  0  0
    9.1844   -1.3356    0.0000 O   0  0  0  0  0  0  0  0  0  0  0  0
   10.0666   -0.1225    0.0000 H   0  0  0  0  0  0  0  0  0  0  0  0
    7.0749   -4.2131    0.0000 N   0  0  0  0  0  0  0  0  0  0  0  0
    6.1920   -2.9994    0.0000 C   0  0  0  0  0  0  0  0  0  0  0  0
    7.5399   -2.3413    0.0000 H   0  0  0  0  0  0  0  0  0  0  0  0
    5.7782   -1.5576    0.0000 H   0  0  0  0  0  0  0  0  0  0  0  0
    4.6993   -3.1562    0.0000 C   0  0  0  0  0  0  0  0  0  0  0  0
    4.8039   -1.6599    0.0000 H   0  0  0  0  0  0  0  0  0  0  0  0
    3.2438   -2.7936    0.0000 H   0  0  0  0  0  0  0  0  0  0  0  0
    4.0896   -4.5267    0.0000 N   0  0  0  0  0  0  0  0  0  0  0  0
    4.9725   -5.7404    0.0000 C   0  0  0  0  0  0  0  0  0  0  0  0
    3.6246   -6.3985    0.0000 H   0  0  0  0  0  0  0  0  0  0  0  0
    5.3862   -7.1822    0.0000 H   0  0  0  0  0  0  0  0  0  0  0  0
    6.4651   -5.5836    0.0000 C   0  0  0  0  0  0  0  0  0  0  0  0
    6.3606   -7.0799    0.0000 H   0  0  0  0  0  0  0  0  0  0  0  0
    7.9206   -5.9462    0.0000 H   0  0  0  0  0  0  0  0  0  0  0  0
    1.1659   -4.8353    0.0000 C   0  0  2  0  0  0  0  0  0  0  0  0
    1.1648   -3.3353    0.0000 H   0  0  0  0  0  0  0  0  0  0  0  0
   -0.3261   -4.6801    0.0000 C   0  0  0  0  0  0  0  0  0  0  0  0
   -0.0162   -3.2124    0.0000 H   0  0  0  0  0  0  0  0  0  0  0  0
   -1.7534   -4.2188    0.0000 H   0  0  0  0  0  0  0  0  0  0  0  0
   -0.9306   -6.0448    0.0000 C   0  0  1  0  0  0  0  0  0  0  0  0
   -2.2294   -5.2944    0.0000 H   0  0  0  0  0  0  0  0  0  0  0  0
   -1.8154   -7.2561    0.0000 C   0  0  0  0  0  0  0  0  0  0  0  0
   -1.2088   -8.6280    0.0000 O   0  0  0  0  0  0  0  0  0  0  0  0
   -3.7840   -7.0440    0.0000 N   0  0  0  0  0  0  0  0  0  0  0  0
   -4.5312   -5.7434    0.0000 C   0  0  0  0  0  0  0  0  0  0  0  0
   -3.1598   -5.1358    0.0000 H   0  0  0  0  0  0  0  0  0  0  0  0
   -4.9925   -4.3161    0.0000 H   0  0  0  0  0  0  0  0  0  0  0  0
   -5.9916   -6.0519    0.0000 C   0  0  0  0  0  0  0  0  0  0  0  0
   -6.1432   -4.5595    0.0000 H   0  0  0  0  0  0  0  0  0  0  0  0
   -7.4916   -6.0432    0.0000 H   0  0  0  0  0  0  0  0  0  0  0  0
   -6.1606   -7.5444    0.0000 S   0  0  0  0  0  0  0  0  0  0  0  0
   -4.7861   -8.1502    0.0000 C   0  0  0  0  0  0  0  0  0  0  0  0
   -5.5342   -9.4504    0.0000 H   0  0  0  0  0  0  0  0  0  0  0  0
   -3.5733   -9.0329    0.0000 H   0  0  0  0  0  0  0  0  0  0  0  0
    0.1808   -7.0553    0.0000 N   0  0  0  0  0  0  0  0  0  0  0  0
    0.0255   -8.5472    0.0000 H   0  0  0  0  0  0  0  0  0  0  0  0
    1.4764   -6.2953    0.0000 C   0  0  0  0  0  0  0  0  0  0  0  0
    2.0929   -7.6628    0.0000 H   0  0  0  0  0  0  0  0  0  0  0  0
    2.9019   -5.8284    0.0000 H   0  0  0  0  0  0  0  0  0  0  0  0
  1  2  1  0  0  0  0 
  1  3  1  0  0  0  0 
  1  4  1  0  0  0  0 
  1  5  1  0  0  0  0 
  5  6  2  0  0  0  0 
  6  7  1  0  0  0  0 
  7  8  1  0  0  0  0 
  8  9  2  0  0  0  0 
  9 10  1  0  0  0  0 
  9 11  1  0  0  0  0 
 11 12  1  0  0  0  0 
 11 13  2  0  0  0  0 
 13 14  1  0  0  0  0 
 13 15  1  0  0  0  0 
 15 16  1  0  0  0  0 
 15 17  2  0  0  0  0 
  8 17  1  0  0  0  0 
 17 18  1  0  0  0  0 
  7 19  1  0  0  0  0 
 19 20  2  0  0  0  0 
  5 20  1  0  0  0  0 
 20 21  1  0  0  0  0 
 21 22  1  0  0  0  0 
 19 23  1  0  0  0  0 
 23 24  1  0  0  0  0 
 24 25  1  0  0  0  0 
 24 26  1  0  0  0  0 
 24 27  1  0  0  0  0 
 27 28  1  0  0  0  0 
 27 29  1  0  0  0  0 
 27 30  1  0  0  0  0 
 30 31  1  0  0  0  0 
 31 32  1  0  0  0  0 
 31 33  1  0  0  0  0 
 31 34  1  0  0  0  0 
 23 34  1  0  0  0  0 
 34 35  1  0  0  0  0 
 34 36  1  0  0  0  0 
 37 30  1  1  0  0  0 
 37 38  1  6  0  0  0 
 37 39  1  0  0  0  0 
 39 40  1  0  0  0  0 
 39 41  1  0  0  0  0 
 39 42  1  0  0  0  0 
 42 43  1  1  0  0  0 
 42 44  1  6  0  0  0 
 44 45  2  0  0  0  0 
 44 46  1  0  0  0  0 
 46 47  1  0  0  0  0 
 47 48  1  0  0  0  0 
 47 49  1  0  0  0  0 
 47 50  1  0  0  0  0 
 50 51  1  0  0  0  0 
 50 52  1  0  0  0  0 
 50 53  1  0  0  0  0 
 53 54  1  0  0  0  0 
 46 54  1  0  0  0  0 
 54 55  1  0  0  0  0 
 54 56  1  0  0  0  0 
 42 57  1  0  0  0  0 
 57 58  1  0  0  0  0 
 57 59  1  0  0  0  0 
 37 59  1  0  0  0  0 
 59 60  1  0  0  0  0 
 59 61  1  0  0  0  0 
M  END
> <Rank>
31

> <Priority_score>
0.16

> <Reaction_type>
aromatic hydroxylation

> <Parent_ID>
58

> <Parent_InChI>
InChI=1S/C22H30N6OS/c1-17-13-21(28(24-17)18-5-3-2-4-6-18)26-9-7-25(8-10-26)19-14-20(23-15-19)22(29)27-11-12-30-16-27/h2-6,13,19-20,23H,7-12,14-16H2,1H3

> <Parent_SMILES>
Cc1cc(N2CCN([C@H]3CN[C@H](C(=O)N4CCSC4)C3)CC2)n(-c2ccccc2)n1

$$$$
Molecule 58_metabolite 32
  CDK     0516241031

 61 64  0  0  0  0  0  0  0  0999 V2000
   -8.3132   -2.6101    0.0000 C   0  0  0  0  0  0  0  0  0  0  0  0
   -9.6134   -3.3580    0.0000 H   0  0  0  0  0  0  0  0  0  0  0  0
   -9.2755   -1.4595    0.0000 H   0  0  0  0  0  0  0  0  0  0  0  0
   -7.3472   -1.4626    0.0000 H   0  0  0  0  0  0  0  0  0  0  0  0
   -7.0154   -3.3622    0.0000 C   0  0  0  0  0  0  0  0  0  0  0  0
   -6.8658   -4.8568    0.0000 N   0  0  0  0  0  0  0  0  0  0  0  0
   -5.3945   -5.1591    0.0000 N   0  0  0  0  0  0  0  0  0  0  0  0
   -4.7797   -6.5274    0.0000 C   0  0  0  0  0  0  0  0  0  0  0  0
   -3.2866   -6.6788    0.0000 C   0  0  0  0  0  0  0  0  0  0  0  0
   -2.4092   -5.4621    0.0000 H   0  0  0  0  0  0  0  0  0  0  0  0
   -2.6718   -8.0470    0.0000 C   0  0  0  0  0  0  0  0  0  0  0  0
   -1.1796   -8.1990    0.0000 H   0  0  0  0  0  0  0  0  0  0  0  0
   -3.5503   -9.2639    0.0000 C   0  0  0  0  0  0  0  0  0  0  0  0
   -2.9356  -10.6321    0.0000 H   0  0  0  0  0  0  0  0  0  0  0  0
   -5.0435   -9.1125    0.0000 C   0  0  0  0  0  0  0  0  0  0  0  0
   -5.9209  -10.3292    0.0000 H   0  0  0  0  0  0  0  0  0  0  0  0
   -5.6582   -7.7443    0.0000 C   0  0  0  0  0  0  0  0  0  0  0  0
   -7.1505   -7.5923    0.0000 H   0  0  0  0  0  0  0  0  0  0  0  0
   -4.6481   -3.8665    0.0000 C   0  0  0  0  0  0  0  0  0  0  0  0
   -5.6528   -2.7526    0.0000 C   0  0  0  0  0  0  0  0  0  0  0  0
   -5.3429   -1.2850    0.0000 H   0  0  0  0  0  0  0  0  0  0  0  0
   -2.6791   -3.6586    0.0000 N   0  0  0  0  0  0  0  0  0  0  0  0
   -1.7969   -4.8718    0.0000 H   0  0  0  0  0  0  0  0  0  0  0  0
   -2.0696   -2.2880    0.0000 C   0  0  0  0  0  0  0  0  0  0  0  0
   -3.5252   -1.9258    0.0000 H   0  0  0  0  0  0  0  0  0  0  0  0
   -1.9656   -0.7916    0.0000 H   0  0  0  0  0  0  0  0  0  0  0  0
   -0.5779   -2.1306    0.0000 C   0  0  0  0  0  0  0  0  0  0  0  0
    0.8777   -2.4928    0.0000 H   0  0  0  0  0  0  0  0  0  0  0  0
   -0.6818   -3.6270    0.0000 H   0  0  0  0  0  0  0  0  0  0  0  0
    0.0316   -0.7600    0.0000 N   0  0  0  0  0  0  0  0  0  0  0  0
   -1.1329    0.8413    0.0000 C   0  0  0  0  0  0  0  0  0  0  0  0
   -1.5470    2.2830    0.0000 H   0  0  0  0  0  0  0  0  0  0  0  0
    0.2150    1.4995    0.0000 H   0  0  0  0  0  0  0  0  0  0  0  0
   -2.6246    0.6839    0.0000 C   0  0  0  0  0  0  0  0  0  0  0  0
   -3.5068    1.8970    0.0000 H   0  0  0  0  0  0  0  0  0  0  0  0
   -3.2341   -0.6867    0.0000 O   0  0  0  0  0  0  0  0  0  0  0  0
    2.0007   -0.5522    0.0000 C   0  0  2  0  0  0  0  0  0  0  0  0
    2.0018   -2.0522    0.0000 H   0  0  0  0  0  0  0  0  0  0  0  0
    3.4926   -0.7074    0.0000 C   0  0  0  0  0  0  0  0  0  0  0  0
    3.1827   -2.1751    0.0000 H   0  0  0  0  0  0  0  0  0  0  0  0
    4.9200   -1.1686    0.0000 H   0  0  0  0  0  0  0  0  0  0  0  0
    4.0971    0.6573    0.0000 C   0  0  1  0  0  0  0  0  0  0  0  0
    5.3959   -0.0931    0.0000 H   0  0  0  0  0  0  0  0  0  0  0  0
    4.9820    1.8686    0.0000 C   0  0  0  0  0  0  0  0  0  0  0  0
    4.3754    3.2405    0.0000 O   0  0  0  0  0  0  0  0  0  0  0  0
    6.9506    1.6565    0.0000 N   0  0  0  0  0  0  0  0  0  0  0  0
    7.6978    0.3559    0.0000 C   0  0  0  0  0  0  0  0  0  0  0  0
    6.3263   -0.2517    0.0000 H   0  0  0  0  0  0  0  0  0  0  0  0
    8.1591   -1.0714    0.0000 H   0  0  0  0  0  0  0  0  0  0  0  0
    9.1582    0.6644    0.0000 C   0  0  0  0  0  0  0  0  0  0  0  0
    9.3098   -0.8279    0.0000 H   0  0  0  0  0  0  0  0  0  0  0  0
   10.6582    0.6558    0.0000 H   0  0  0  0  0  0  0  0  0  0  0  0
    9.3272    2.1569    0.0000 S   0  0  0  0  0  0  0  0  0  0  0  0
    7.9527    2.7628    0.0000 C   0  0  0  0  0  0  0  0  0  0  0  0
    8.7008    4.0629    0.0000 H   0  0  0  0  0  0  0  0  0  0  0  0
    6.7399    3.6454    0.0000 H   0  0  0  0  0  0  0  0  0  0  0  0
    2.9858    1.6678    0.0000 N   0  0  0  0  0  0  0  0  0  0  0  0
    3.1410    3.1597    0.0000 H   0  0  0  0  0  0  0  0  0  0  0  0
    1.6901    0.9078    0.0000 C   0  0  0  0  0  0  0  0  0  0  0  0
    1.0737    2.2753    0.0000 H   0  0  0  0  0  0  0  0  0  0  0  0
    0.2647    0.4409    0.0000 H   0  0  0  0  0  0  0  0  0  0  0  0
  1  2  1  0  0  0  0 
  1  3  1  0  0  0  0 
  1  4  1  0  0  0  0 
  1  5  1  0  0  0  0 
  5  6  2  0  0  0  0 
  6  7  1  0  0  0  0 
  7  8  1  0  0  0  0 
  8  9  2  0  0  0  0 
  9 10  1  0  0  0  0 
  9 11  1  0  0  0  0 
 11 12  1  0  0  0  0 
 11 13  2  0  0  0  0 
 13 14  1  0  0  0  0 
 13 15  1  0  0  0  0 
 15 16  1  0  0  0  0 
 15 17  2  0  0  0  0 
  8 17  1  0  0  0  0 
 17 18  1  0  0  0  0 
  7 19  1  0  0  0  0 
 19 20  2  0  0  0  0 
  5 20  1  0  0  0  0 
 20 21  1  0  0  0  0 
 19 22  1  0  0  0  0 
 22 23  1  0  0  0  0 
 22 24  1  0  0  0  0 
 24 25  1  0  0  0  0 
 24 26  1  0  0  0  0 
 24 27  1  0  0  0  0 
 27 28  1  0  0  0  0 
 27 29  1  0  0  0  0 
 27 30  1  0  0  0  0 
 30 31  1  0  0  0  0 
 31 32  1  0  0  0  0 
 31 33  1  0  0  0  0 
 31 34  1  0  0  0  0 
 34 35  1  0  0  0  0 
 34 36  2  0  0  0  0 
 37 30  1  1  0  0  0 
 37 38  1  6  0  0  0 
 37 39  1  0  0  0  0 
 39 40  1  0  0  0  0 
 39 41  1  0  0  0  0 
 39 42  1  0  0  0  0 
 42 43  1  1  0  0  0 
 42 44  1  6  0  0  0 
 44 45  2  0  0  0  0 
 44 46  1  0  0  0  0 
 46 47  1  0  0  0  0 
 47 48  1  0  0  0  0 
 47 49  1  0  0  0  0 
 47 50  1  0  0  0  0 
 50 51  1  0  0  0  0 
 50 52  1  0  0  0  0 
 50 53  1  0  0  0  0 
 53 54  1  0  0  0  0 
 46 54  1  0  0  0  0 
 54 55  1  0  0  0  0 
 54 56  1  0  0  0  0 
 42 57  1  0  0  0  0 
 57 58  1  0  0  0  0 
 57 59  1  0  0  0  0 
 37 59  1  0  0  0  0 
 59 60  1  0  0  0  0 
 59 61  1  0  0  0  0 
M  END
> <Rank>
32

> <Priority_score>
0.156

> <Reaction_type>
N-dealkylation

> <Parent_ID>
58

> <Parent_InChI>
InChI=1S/C22H30N6OS/c1-17-13-21(28(24-17)18-5-3-2-4-6-18)26-9-7-25(8-10-26)19-14-20(23-15-19)22(29)27-11-12-30-16-27/h2-6,13,19-20,23H,7-12,14-16H2,1H3

> <Parent_SMILES>
Cc1cc(N2CCN([C@H]3CN[C@H](C(=O)N4CCSC4)C3)CC2)n(-c2ccccc2)n1

$$$$
Molecule 58_metabolite 33
  CDK     0516241031

 61 65  0  0  0  0  0  0  0  0999 V2000
   10.1587    5.6520    0.0000 C   0  0  0  0  0  0  0  0  0  0  0  0
   11.4290    6.4498    0.0000 H   0  0  0  0  0  0  0  0  0  0  0  0
    9.5936    7.0415    0.0000 H   0  0  0  0  0  0  0  0  0  0  0  0
    8.6922    5.3368    0.0000 H   0  0  0  0  0  0  0  0  0  0  0  0
   10.2145    4.1530    0.0000 C   0  0  0  0  0  0  0  0  0  0  0  0
   11.4645    3.3201    0.0000 N   0  0  0  0  0  0  0  0  0  0  0  0
   11.0417    1.8788    0.0000 N   0  0  0  0  0  0  0  0  0  0  0  0
   12.8654    0.2278    0.0000 C   0  0  0  0  0  0  0  0  0  0  0  0
   12.5489   -1.2393    0.0000 C   0  0  0  0  0  0  0  0  0  0  0  0
   10.2071   -1.9928    0.0000 H   0  0  0  0  0  0  0  0  0  0  0  0
   13.6609   -2.2460    0.0000 C   0  0  0  0  0  0  0  0  0  0  0  0
   13.3453   -3.7124    0.0000 H   0  0  0  0  0  0  0  0  0  0  0  0
   15.0894   -1.7856    0.0000 C   0  0  0  0  0  0  0  0  0  0  0  0
   16.2014   -2.7923    0.0000 H   0  0  0  0  0  0  0  0  0  0  0  0
   15.4058   -0.3185    0.0000 C   0  0  0  0  0  0  0  0  0  0  0  0
   16.8337    0.1409    0.0000 H   0  0  0  0  0  0  0  0  0  0  0  0
   14.2938    0.6882    0.0000 C   0  0  0  0  0  0  0  0  0  0  0  0
   14.6094    2.1546    0.0000 H   0  0  0  0  0  0  0  0  0  0  0  0
    9.5500    1.8257    0.0000 C   0  0  0  0  0  0  0  0  0  0  0  0
    9.0372    3.2354    0.0000 C   0  0  0  0  0  0  0  0  0  0  0  0
    7.5956    3.6498    0.0000 H   0  0  0  0  0  0  0  0  0  0  0  0
    8.7115    0.5820    0.0000 N   0  0  0  0  0  0  0  0  0  0  0  0
    7.6318    1.6245    0.0000 C   0  0  0  0  0  0  0  0  0  0  0  0
    6.9740    2.9726    0.0000 H   0  0  0  0  0  0  0  0  0  0  0  0
    8.8453    2.5063    0.0000 H   0  0  0  0  0  0  0  0  0  0  0  0
    6.1901    1.2106    0.0000 C   0  0  0  0  0  0  0  0  0  0  0  0
    4.6937    1.3144    0.0000 H   0  0  0  0  0  0  0  0  0  0  0  0
    5.8815    4.1343    0.0000 H   0  0  0  0  0  0  0  0  0  0  0  0
    5.8280   -0.2459    0.0000 N   0  0  0  0  0  0  0  0  0  0  0  0
    6.9076   -1.2885    0.0000 C   0  0  0  0  0  0  0  0  0  0  0  0
    7.5655   -2.6365    0.0000 H   0  0  0  0  0  0  0  0  0  0  0  0
    5.6942   -2.1703    0.0000 H   0  0  0  0  0  0  0  0  0  0  0  0
    8.3493   -0.8745    0.0000 C   0  0  0  0  0  0  0  0  0  0  0  0
    9.8457   -0.9783    0.0000 H   0  0  0  0  0  0  0  0  0  0  0  0
    8.5068   -2.3662    0.0000 H   0  0  0  0  0  0  0  0  0  0  0  0
    3.0021   -1.0572    0.0000 C   0  0  2  0  0  0  0  0  0  0  0  0
    2.7407    0.4198    0.0000 H   0  0  0  0  0  0  0  0  0  0  0  0
    1.5059   -1.1632    0.0000 C   0  0  0  0  0  0  0  0  0  0  0  0
    1.5564    0.3359    0.0000 H   0  0  0  0  0  0  0  0  0  0  0  0
    0.0202   -0.9567    0.0000 H   0  0  0  0  0  0  0  0  0  0  0  0
    1.1474   -2.6122    0.0000 C   0  0  1  0  0  0  0  0  0  0  0  0
   -0.2619   -2.0986    0.0000 H   0  0  0  0  0  0  0  0  0  0  0  0
    0.4862   -3.9586    0.0000 C   0  0  0  0  0  0  0  0  0  0  0  0
    1.3216   -5.2044    0.0000 O   0  0  0  0  0  0  0  0  0  0  0  0
   -1.4893   -4.0914    0.0000 N   0  0  0  0  0  0  0  0  0  0  0  0
   -2.4509   -2.9402    0.0000 C   0  0  0  0  0  0  0  0  0  0  0  0
   -1.2057   -2.1038    0.0000 H   0  0  0  0  0  0  0  0  0  0  0  0
   -3.1529   -1.6146    0.0000 H   0  0  0  0  0  0  0  0  0  0  0  0
   -3.8357   -3.4975    0.0000 C   0  0  0  0  0  0  0  0  0  0  0  0
   -4.2439   -2.0541    0.0000 H   0  0  0  0  0  0  0  0  0  0  0  0
   -5.3144   -3.7493    0.0000 H   0  0  0  0  0  0  0  0  0  0  0  0
   -3.7430   -4.9967    0.0000 S   0  0  0  0  0  0  0  0  0  0  0  0
   -2.2843   -5.3548    0.0000 C   0  0  0  0  0  0  0  0  0  0  0  0
   -2.7954   -6.7650    0.0000 H   0  0  0  0  0  0  0  0  0  0  0  0
   -0.9367   -6.0135    0.0000 H   0  0  0  0  0  0  0  0  0  0  0  0
    2.4173   -3.4145    0.0000 N   0  0  0  0  0  0  0  0  0  0  0  0
    2.5233   -4.9107    0.0000 H   0  0  0  0  0  0  0  0  0  0  0  0
    3.5613   -2.4412    0.0000 C   0  0  0  0  0  0  0  0  0  0  0  0
    4.4058   -3.6809    0.0000 H   0  0  0  0  0  0  0  0  0  0  0  0
    4.8841   -1.7339    0.0000 H   0  0  0  0  0  0  0  0  0  0  0  0
   10.0821   -0.0275    0.0000 O   0  0  0  0  0  0  0  0  0  0  0  0
  1  2  1  0  0  0  0 
  1  3  1  0  0  0  0 
  1  4  1  0  0  0  0 
  1  5  1  0  0  0  0 
  5  6  2  0  0  0  0 
  6  7  1  0  0  0  0 
  7  8  1  0  0  0  0 
  8  9  2  0  0  0  0 
  9 10  1  0  0  0  0 
  9 11  1  0  0  0  0 
 11 12  1  0  0  0  0 
 11 13  2  0  0  0  0 
 13 14  1  0  0  0  0 
 13 15  1  0  0  0  0 
 15 16  1  0  0  0  0 
 15 17  2  0  0  0  0 
  8 17  1  0  0  0  0 
 17 18  1  0  0  0  0 
  7 19  1  0  0  0  0 
 19 20  2  0  0  0  0 
  5 20  1  0  0  0  0 
 20 21  1  0  0  0  0 
 19 22  1  0  0  0  0 
 22 23  1  0  0  0  0 
 23 24  1  0  0  0  0 
 23 25  1  0  0  0  0 
 23 26  1  0  0  0  0 
 26 27  1  0  0  0  0 
 26 28  1  0  0  0  0 
 26 29  1  0  0  0  0 
 29 30  1  0  0  0  0 
 30 31  1  0  0  0  0 
 30 32  1  0  0  0  0 
 30 33  1  0  0  0  0 
 22 33  1  0  0  0  0 
 33 34  1  0  0  0  0 
 33 35  1  0  0  0  0 
 36 29  1  1  0  0  0 
 36 37  1  6  0  0  0 
 36 38  1  0  0  0  0 
 38 39  1  0  0  0  0 
 38 40  1  0  0  0  0 
 38 41  1  0  0  0  0 
 41 42  1  1  0  0  0 
 41 43  1  6  0  0  0 
 43 44  2  0  0  0  0 
 43 45  1  0  0  0  0 
 45 46  1  0  0  0  0 
 46 47  1  0  0  0  0 
 46 48  1  0  0  0  0 
 46 49  1  0  0  0  0 
 49 50  1  0  0  0  0 
 49 51  1  0  0  0  0 
 49 52  1  0  0  0  0 
 52 53  1  0  0  0  0 
 45 53  1  0  0  0  0 
 53 54  1  0  0  0  0 
 53 55  1  0  0  0  0 
 41 56  1  0  0  0  0 
 56 57  1  0  0  0  0 
 56 58  1  0  0  0  0 
 36 58  1  0  0  0  0 
 58 59  1  0  0  0  0 
 58 60  1  0  0  0  0 
 22 61  1  0  0  0  0 
M  CHG  1  22   1
M  CHG  1  61  -1
M  END
> <Rank>
32

> <Priority_score>
0.156

> <Reaction_type>
N-oxidation

> <Parent_ID>
58

> <Parent_InChI>
InChI=1S/C22H30N6OS/c1-17-13-21(28(24-17)18-5-3-2-4-6-18)26-9-7-25(8-10-26)19-14-20(23-15-19)22(29)27-11-12-30-16-27/h2-6,13,19-20,23H,7-12,14-16H2,1H3

> <Parent_SMILES>
Cc1cc(N2CCN([C@H]3CN[C@H](C(=O)N4CCSC4)C3)CC2)n(-c2ccccc2)n1

$$$$
Molecule 58_metabolite 34
  CDK     0516241031

 61 64  0  0  0  0  0  0  0  0999 V2000
   11.5276   -2.2581    0.0000 C   0  0  0  0  0  0  0  0  0  0  0  0
   12.9554   -2.7181    0.0000 H   0  0  0  0  0  0  0  0  0  0  0  0
   12.2285   -0.9319    0.0000 H   0  0  0  0  0  0  0  0  0  0  0  0
   10.3433   -1.3375    0.0000 H   0  0  0  0  0  0  0  0  0  0  0  0
   10.4154   -3.2645    0.0000 C   0  0  0  0  0  0  0  0  0  0  0  0
   10.5812   -4.7574    0.0000 N   0  0  0  0  0  0  0  0  0  0  0  0
    9.2054   -5.3603    0.0000 N   0  0  0  0  0  0  0  0  0  0  0  0
    8.7889   -7.2960    0.0000 C   0  0  0  0  0  0  0  0  0  0  0  0
    7.3603   -7.7558    0.0000 C   0  0  0  0  0  0  0  0  0  0  0  0
    6.2482   -6.7492    0.0000 H   0  0  0  0  0  0  0  0  0  0  0  0
    7.0447   -9.2222    0.0000 C   0  0  0  0  0  0  0  0  0  0  0  0
    5.6171   -9.6824    0.0000 H   0  0  0  0  0  0  0  0  0  0  0  0
    8.1579  -10.2289    0.0000 C   0  0  0  0  0  0  0  0  0  0  0  0
    7.8424  -11.6954    0.0000 H   0  0  0  0  0  0  0  0  0  0  0  0
    9.5866   -9.7691    0.0000 C   0  0  0  0  0  0  0  0  0  0  0  0
   10.6986  -10.7758    0.0000 H   0  0  0  0  0  0  0  0  0  0  0  0
    9.9021   -8.3027    0.0000 C   0  0  0  0  0  0  0  0  0  0  0  0
   11.3298   -7.8425    0.0000 H   0  0  0  0  0  0  0  0  0  0  0  0
    8.2057   -4.2520    0.0000 C   0  0  0  0  0  0  0  0  0  0  0  0
    8.9557   -2.9529    0.0000 C   0  0  0  0  0  0  0  0  0  0  0  0
    8.3462   -1.5823    0.0000 H   0  0  0  0  0  0  0  0  0  0  0  0
    6.2366   -4.4598    0.0000 N   0  0  0  0  0  0  0  0  0  0  0  0
    5.3537   -3.2461    0.0000 C   0  0  0  0  0  0  0  0  0  0  0  0
    6.7016   -2.5880    0.0000 H   0  0  0  0  0  0  0  0  0  0  0  0
    4.9400   -1.8043    0.0000 H   0  0  0  0  0  0  0  0  0  0  0  0
    3.8611   -3.4029    0.0000 C   0  0  0  0  0  0  0  0  0  0  0  0
    3.9656   -1.9066    0.0000 H   0  0  0  0  0  0  0  0  0  0  0  0
    2.4056   -3.0403    0.0000 H   0  0  0  0  0  0  0  0  0  0  0  0
    3.2514   -4.7734    0.0000 N   0  0  0  0  0  0  0  0  0  0  0  0
    4.1343   -5.9871    0.0000 C   0  0  0  0  0  0  0  0  0  0  0  0
    2.7863   -6.6452    0.0000 H   0  0  0  0  0  0  0  0  0  0  0  0
    4.5480   -7.4289    0.0000 H   0  0  0  0  0  0  0  0  0  0  0  0
    5.6269   -5.8303    0.0000 C   0  0  0  0  0  0  0  0  0  0  0  0
    5.5224   -7.3266    0.0000 H   0  0  0  0  0  0  0  0  0  0  0  0
    7.0824   -6.1929    0.0000 H   0  0  0  0  0  0  0  0  0  0  0  0
    1.2823   -4.9813    0.0000 C   0  0  2  0  0  0  0  0  0  0  0  0
   -0.0656   -5.6394    0.0000 H   0  0  0  0  0  0  0  0  0  0  0  0
    0.1178   -3.3799    0.0000 C   0  0  0  0  0  0  0  0  0  0  0  0
    1.4657   -2.7218    0.0000 H   0  0  0  0  0  0  0  0  0  0  0  0
   -0.2963   -1.9382    0.0000 H   0  0  0  0  0  0  0  0  0  0  0  0
   -1.3739   -3.5374    0.0000 C   0  0  1  0  0  0  0  0  0  0  0  0
   -2.8295   -3.1751    0.0000 H   0  0  0  0  0  0  0  0  0  0  0  0
   -1.9834   -4.9080    0.0000 C   0  0  0  0  0  0  0  0  0  0  0  0
   -1.1012   -6.1211    0.0000 O   0  0  0  0  0  0  0  0  0  0  0  0
   -3.9525   -5.1158    0.0000 N   0  0  0  0  0  0  0  0  0  0  0  0
   -4.7025   -6.4148    0.0000 C   0  0  0  0  0  0  0  0  0  0  0  0
   -3.3324   -7.0254    0.0000 H   0  0  0  0  0  0  0  0  0  0  0  0
   -5.1669   -7.8412    0.0000 H   0  0  0  0  0  0  0  0  0  0  0  0
   -6.1622   -6.1032    0.0000 C   0  0  0  0  0  0  0  0  0  0  0  0
   -6.3170   -7.5952    0.0000 H   0  0  0  0  0  0  0  0  0  0  0  0
   -7.6622   -6.1086    0.0000 H   0  0  0  0  0  0  0  0  0  0  0  0
   -6.3280   -4.6103    0.0000 S   0  0  0  0  0  0  0  0  0  0  0  0
   -4.9522   -4.0074    0.0000 C   0  0  0  0  0  0  0  0  0  0  0  0
   -5.6975   -2.7057    0.0000 H   0  0  0  0  0  0  0  0  0  0  0  0
   -3.7375   -3.1274    0.0000 H   0  0  0  0  0  0  0  0  0  0  0  0
   -1.2367   -1.5621    0.0000 N   0  0  0  0  0  0  0  0  0  0  0  0
   -2.4806   -0.7239    0.0000 H   0  0  0  0  0  0  0  0  0  0  0  0
    0.1112   -0.9040    0.0000 H   0  0  0  0  0  0  0  0  0  0  0  0
    1.6964   -6.4230    0.0000 C   0  0  0  0  0  0  0  0  0  0  0  0
    0.6549   -7.5024    0.0000 H   0  0  0  0  0  0  0  0  0  0  0  0
    3.6178   -6.9011    0.0000 O   0  0  0  0  0  0  0  0  0  0  0  0
  1  2  1  0  0  0  0 
  1  3  1  0  0  0  0 
  1  4  1  0  0  0  0 
  1  5  1  0  0  0  0 
  5  6  2  0  0  0  0 
  6  7  1  0  0  0  0 
  7  8  1  0  0  0  0 
  8  9  2  0  0  0  0 
  9 10  1  0  0  0  0 
  9 11  1  0  0  0  0 
 11 12  1  0  0  0  0 
 11 13  2  0  0  0  0 
 13 14  1  0  0  0  0 
 13 15  1  0  0  0  0 
 15 16  1  0  0  0  0 
 15 17  2  0  0  0  0 
  8 17  1  0  0  0  0 
 17 18  1  0  0  0  0 
  7 19  1  0  0  0  0 
 19 20  2  0  0  0  0 
  5 20  1  0  0  0  0 
 20 21  1  0  0  0  0 
 19 22  1  0  0  0  0 
 22 23  1  0  0  0  0 
 23 24  1  0  0  0  0 
 23 25  1  0  0  0  0 
 23 26  1  0  0  0  0 
 26 27  1  0  0  0  0 
 26 28  1  0  0  0  0 
 26 29  1  0  0  0  0 
 29 30  1  0  0  0  0 
 30 31  1  0  0  0  0 
 30 32  1  0  0  0  0 
 30 33  1  0  0  0  0 
 22 33  1  0  0  0  0 
 33 34  1  0  0  0  0 
 33 35  1  0  0  0  0 
 29 36  1  0  0  0  0 
 36 37  1  6  0  0  0 
 36 38  1  0  0  0  0 
 38 39  1  0  0  0  0 
 38 40  1  0  0  0  0 
 38 41  1  0  0  0  0 
 41 42  1  6  0  0  0 
 41 43  1  0  0  0  0 
 43 44  2  0  0  0  0 
 43 45  1  0  0  0  0 
 45 46  1  0  0  0  0 
 46 47  1  0  0  0  0 
 46 48  1  0  0  0  0 
 46 49  1  0  0  0  0 
 49 50  1  0  0  0  0 
 49 51  1  0  0  0  0 
 49 52  1  0  0  0  0 
 52 53  1  0  0  0  0 
 45 53  1  0  0  0  0 
 53 54  1  0  0  0  0 
 53 55  1  0  0  0  0 
 41 56  1  1  0  0  0 
 56 57  1  0  0  0  0 
 56 58  1  0  0  0  0 
 36 59  1  1  0  0  0 
 59 60  1  0  0  0  0 
 59 61  2  0  0  0  0 
M  END
> <Rank>
34

> <Priority_score>
0.11576587178693094

> <Reaction_type>
N-dealkylation

> <Parent_ID>
58

> <Parent_InChI>
InChI=1S/C22H30N6OS/c1-17-13-21(28(24-17)18-5-3-2-4-6-18)26-9-7-25(8-10-26)19-14-20(23-15-19)22(29)27-11-12-30-16-27/h2-6,13,19-20,23H,7-12,14-16H2,1H3

> <Parent_SMILES>
Cc1cc(N2CCN([C@H]3CN[C@H](C(=O)N4CCSC4)C3)CC2)n(-c2ccccc2)n1

$$$$
Molecule 58_metabolite 35
  CDK     0516241031

 61 65  0  0  0  0  0  0  0  0999 V2000
   -5.0498   -4.1664    0.0000 C   0  0  0  0  0  0  0  0  0  0  0  0
   -6.3500   -4.9143    0.0000 H   0  0  0  0  0  0  0  0  0  0  0  0
   -6.0121   -3.0158    0.0000 H   0  0  0  0  0  0  0  0  0  0  0  0
   -4.0838   -3.0189    0.0000 H   0  0  0  0  0  0  0  0  0  0  0  0
   -3.7519   -4.9185    0.0000 C   0  0  0  0  0  0  0  0  0  0  0  0
   -3.6024   -6.4131    0.0000 N   0  0  0  0  0  0  0  0  0  0  0  0
   -2.1311   -6.7155    0.0000 N   0  0  0  0  0  0  0  0  0  0  0  0
   -1.7633   -8.1697    0.0000 C   0  0  0  0  0  0  0  0  0  0  0  0
   -0.3191   -8.5780    0.0000 C   0  0  0  0  0  0  0  0  0  0  0  0
    0.7563   -7.5322    0.0000 H   0  0  0  0  0  0  0  0  0  0  0  0
    0.0487  -10.0322    0.0000 C   0  0  0  0  0  0  0  0  0  0  0  0
    1.4919  -10.4411    0.0000 H   0  0  0  0  0  0  0  0  0  0  0  0
   -1.0277  -11.0781    0.0000 C   0  0  0  0  0  0  0  0  0  0  0  0
   -0.6599  -12.5323    0.0000 H   0  0  0  0  0  0  0  0  0  0  0  0
   -2.4719  -10.6697    0.0000 C   0  0  0  0  0  0  0  0  0  0  0  0
   -3.5472  -11.7155    0.0000 H   0  0  0  0  0  0  0  0  0  0  0  0
   -2.8397   -9.2155    0.0000 C   0  0  0  0  0  0  0  0  0  0  0  0
   -4.2829   -8.8067    0.0000 H   0  0  0  0  0  0  0  0  0  0  0  0
   -1.3847   -5.4228    0.0000 C   0  0  0  0  0  0  0  0  0  0  0  0
   -2.3894   -4.3090    0.0000 C   0  0  0  0  0  0  0  0  0  0  0  0
   -2.0795   -2.8413    0.0000 H   0  0  0  0  0  0  0  0  0  0  0  0
    0.5843   -5.2149    0.0000 N   0  0  0  0  0  0  0  0  0  0  0  0
    1.4672   -6.4286    0.0000 C   0  0  0  0  0  0  0  0  0  0  0  0
    0.1193   -7.0867    0.0000 H   0  0  0  0  0  0  0  0  0  0  0  0
    1.8809   -7.8704    0.0000 H   0  0  0  0  0  0  0  0  0  0  0  0
    2.9598   -6.2718    0.0000 C   0  0  0  0  0  0  0  0  0  0  0  0
    2.8553   -7.7681    0.0000 H   0  0  0  0  0  0  0  0  0  0  0  0
    4.4153   -6.6344    0.0000 H   0  0  0  0  0  0  0  0  0  0  0  0
    3.5696   -4.9013    0.0000 N   0  0  0  0  0  0  0  0  0  0  0  0
    2.6867   -3.6876    0.0000 C   0  0  0  0  0  0  0  0  0  0  0  0
    4.0346   -3.0296    0.0000 H   0  0  0  0  0  0  0  0  0  0  0  0
    2.2730   -2.2458    0.0000 H   0  0  0  0  0  0  0  0  0  0  0  0
    1.1940   -3.8445    0.0000 C   0  0  0  0  0  0  0  0  0  0  0  0
    1.2986   -2.3481    0.0000 H   0  0  0  0  0  0  0  0  0  0  0  0
   -0.2615   -3.4818    0.0000 H   0  0  0  0  0  0  0  0  0  0  0  0
    6.4933   -4.5927    0.0000 C   0  0  2  0  0  0  0  0  0  0  0  0
    6.4944   -6.0927    0.0000 H   0  0  0  0  0  0  0  0  0  0  0  0
    7.9853   -4.7480    0.0000 C   0  0  0  0  0  0  0  0  0  0  0  0
    7.6753   -6.2156    0.0000 H   0  0  0  0  0  0  0  0  0  0  0  0
    9.4126   -5.2092    0.0000 H   0  0  0  0  0  0  0  0  0  0  0  0
    8.5898   -3.3832    0.0000 C   0  0  1  0  0  0  0  0  0  0  0  0
    9.8885   -4.1336    0.0000 H   0  0  0  0  0  0  0  0  0  0  0  0
    9.4746   -2.1720    0.0000 C   0  0  0  0  0  0  0  0  0  0  0  0
    8.8680   -0.8001    0.0000 O   0  0  0  0  0  0  0  0  0  0  0  0
   11.4432   -2.3840    0.0000 N   0  0  0  0  0  0  0  0  0  0  0  0
   12.1904   -3.6846    0.0000 C   0  0  0  0  0  0  0  0  0  0  0  0
   10.8190   -4.2922    0.0000 H   0  0  0  0  0  0  0  0  0  0  0  0
   12.6517   -5.1119    0.0000 H   0  0  0  0  0  0  0  0  0  0  0  0
   13.6508   -3.3761    0.0000 C   0  0  0  0  0  0  0  0  0  0  0  0
   13.8024   -4.8685    0.0000 H   0  0  0  0  0  0  0  0  0  0  0  0
   15.1508   -3.3848    0.0000 H   0  0  0  0  0  0  0  0  0  0  0  0
   13.8198   -1.8836    0.0000 S   0  0  0  0  0  0  0  0  0  0  0  0
   12.4453   -1.2778    0.0000 C   0  0  0  0  0  0  0  0  0  0  0  0
   13.1934    0.0224    0.0000 H   0  0  0  0  0  0  0  0  0  0  0  0
   11.2325   -0.3952    0.0000 H   0  0  0  0  0  0  0  0  0  0  0  0
    7.4784   -2.3727    0.0000 N   0  0  0  0  0  0  0  0  0  0  0  0
    6.1828   -3.1327    0.0000 C   0  0  0  0  0  0  0  0  0  0  0  0
    5.5663   -1.7652    0.0000 H   0  0  0  0  0  0  0  0  0  0  0  0
    4.7573   -3.5997    0.0000 H   0  0  0  0  0  0  0  0  0  0  0  0
    7.6336   -0.8808    0.0000 O   0  0  0  0  0  0  0  0  0  0  0  0
    6.4192   -0.0004    0.0000 H   0  0  0  0  0  0  0  0  0  0  0  0
  1  2  1  0  0  0  0 
  1  3  1  0  0  0  0 
  1  4  1  0  0  0  0 
  1  5  1  0  0  0  0 
  5  6  2  0  0  0  0 
  6  7  1  0  0  0  0 
  7  8  1  0  0  0  0 
  8  9  2  0  0  0  0 
  9 10  1  0  0  0  0 
  9 11  1  0  0  0  0 
 11 12  1  0  0  0  0 
 11 13  2  0  0  0  0 
 13 14  1  0  0  0  0 
 13 15  1  0  0  0  0 
 15 16  1  0  0  0  0 
 15 17  2  0  0  0  0 
  8 17  1  0  0  0  0 
 17 18  1  0  0  0  0 
  7 19  1  0  0  0  0 
 19 20  2  0  0  0  0 
  5 20  1  0  0  0  0 
 20 21  1  0  0  0  0 
 19 22  1  0  0  0  0 
 22 23  1  0  0  0  0 
 23 24  1  0  0  0  0 
 23 25  1  0  0  0  0 
 23 26  1  0  0  0  0 
 26 27  1  0  0  0  0 
 26 28  1  0  0  0  0 
 26 29  1  0  0  0  0 
 29 30  1  0  0  0  0 
 30 31  1  0  0  0  0 
 30 32  1  0  0  0  0 
 30 33  1  0  0  0  0 
 22 33  1  0  0  0  0 
 33 34  1  0  0  0  0 
 33 35  1  0  0  0  0 
 36 29  1  1  0  0  0 
 36 37  1  6  0  0  0 
 36 38  1  0  0  0  0 
 38 39  1  0  0  0  0 
 38 40  1  0  0  0  0 
 38 41  1  0  0  0  0 
 41 42  1  1  0  0  0 
 41 43  1  6  0  0  0 
 43 44  2  0  0  0  0 
 43 45  1  0  0  0  0 
 45 46  1  0  0  0  0 
 46 47  1  0  0  0  0 
 46 48  1  0  0  0  0 
 46 49  1  0  0  0  0 
 49 50  1  0  0  0  0 
 49 51  1  0  0  0  0 
 49 52  1  0  0  0  0 
 52 53  1  0  0  0  0 
 45 53  1  0  0  0  0 
 53 54  1  0  0  0  0 
 53 55  1  0  0  0  0 
 41 56  1  0  0  0  0 
 56 57  1  0  0  0  0 
 36 57  1  0  0  0  0 
 57 58  1  0  0  0  0 
 57 59  1  0  0  0  0 
 56 60  1  0  0  0  0 
 60 61  1  0  0  0  0 
M  END
> <Rank>
34

> <Priority_score>
0.11576587178693094

> <Reaction_type>
amine hydroxylation

> <Parent_ID>
58

> <Parent_InChI>
InChI=1S/C22H30N6OS/c1-17-13-21(28(24-17)18-5-3-2-4-6-18)26-9-7-25(8-10-26)19-14-20(23-15-19)22(29)27-11-12-30-16-27/h2-6,13,19-20,23H,7-12,14-16H2,1H3

> <Parent_SMILES>
Cc1cc(N2CCN([C@H]3CN[C@H](C(=O)N4CCSC4)C3)CC2)n(-c2ccccc2)n1

$$$$
Molecule 58_metabolite 36
  CDK     0516241031

 61 65  0  0  0  0  0  0  0  0999 V2000
   -4.0723   -2.7100    0.0000 C   0  0  0  0  0  0  0  0  0  0  0  0
   -5.3726   -3.4579    0.0000 H   0  0  0  0  0  0  0  0  0  0  0  0
   -5.0347   -1.5594    0.0000 H   0  0  0  0  0  0  0  0  0  0  0  0
   -3.1063   -1.5625    0.0000 H   0  0  0  0  0  0  0  0  0  0  0  0
   -2.7745   -3.4621    0.0000 C   0  0  0  0  0  0  0  0  0  0  0  0
   -2.6249   -4.9567    0.0000 N   0  0  0  0  0  0  0  0  0  0  0  0
   -1.1536   -5.2591    0.0000 N   0  0  0  0  0  0  0  0  0  0  0  0
   -0.0703   -7.4677    0.0000 C   0  0  0  0  0  0  0  0  0  0  0  0
    1.4272   -7.5685    0.0000 C   0  0  0  0  0  0  0  0  0  0  0  0
    3.0262   -6.4008    0.0000 H   0  0  0  0  0  0  0  0  0  0  0  0
    2.0878   -8.9152    0.0000 C   0  0  0  0  0  0  0  0  0  0  0  0
    3.5843   -9.0167    0.0000 H   0  0  0  0  0  0  0  0  0  0  0  0
    1.2509  -10.1611    0.0000 C   0  0  0  0  0  0  0  0  0  0  0  0
    1.9115  -11.5078    0.0000 H   0  0  0  0  0  0  0  0  0  0  0  0
   -0.2465  -10.0602    0.0000 C   0  0  0  0  0  0  0  0  0  0  0  0
   -1.0823  -11.3058    0.0000 H   0  0  0  0  0  0  0  0  0  0  0  0
   -0.9071   -8.7135    0.0000 C   0  0  0  0  0  0  0  0  0  0  0  0
   -2.4037   -8.6120    0.0000 H   0  0  0  0  0  0  0  0  0  0  0  0
   -0.4073   -3.9664    0.0000 C   0  0  0  0  0  0  0  0  0  0  0  0
   -1.4120   -2.8526    0.0000 C   0  0  0  0  0  0  0  0  0  0  0  0
   -1.1021   -1.3849    0.0000 H   0  0  0  0  0  0  0  0  0  0  0  0
    1.0844   -3.8089    0.0000 N   0  0  0  0  0  0  0  0  0  0  0  0
    1.9673   -5.0226    0.0000 C   0  0  0  0  0  0  0  0  0  0  0  0
    0.6194   -5.6807    0.0000 H   0  0  0  0  0  0  0  0  0  0  0  0
    2.1244   -6.5144    0.0000 H   0  0  0  0  0  0  0  0  0  0  0  0
    3.4599   -4.8658    0.0000 C   0  0  0  0  0  0  0  0  0  0  0  0
    3.2885   -7.3198    0.0000 H   0  0  0  0  0  0  0  0  0  0  0  0
    4.9154   -5.2284    0.0000 H   0  0  0  0  0  0  0  0  0  0  0  0
    4.0696   -3.4953    0.0000 N   0  0  0  0  0  0  0  0  0  0  0  0
    3.1868   -2.2816    0.0000 C   0  0  0  0  0  0  0  0  0  0  0  0
    4.5347   -1.6235    0.0000 H   0  0  0  0  0  0  0  0  0  0  0  0
    2.7730   -0.8398    0.0000 H   0  0  0  0  0  0  0  0  0  0  0  0
    1.6941   -2.4384    0.0000 C   0  0  0  0  0  0  0  0  0  0  0  0
    1.7987   -0.9421    0.0000 H   0  0  0  0  0  0  0  0  0  0  0  0
    0.2386   -2.0758    0.0000 H   0  0  0  0  0  0  0  0  0  0  0  0
    6.9934   -3.1867    0.0000 C   0  0  2  0  0  0  0  0  0  0  0  0
    6.9945   -4.6867    0.0000 H   0  0  0  0  0  0  0  0  0  0  0  0
    8.4854   -3.3419    0.0000 C   0  0  0  0  0  0  0  0  0  0  0  0
    8.1754   -4.8096    0.0000 H   0  0  0  0  0  0  0  0  0  0  0  0
    9.9127   -3.8032    0.0000 H   0  0  0  0  0  0  0  0  0  0  0  0
    9.0899   -1.9772    0.0000 C   0  0  1  0  0  0  0  0  0  0  0  0
   10.3886   -2.7276    0.0000 H   0  0  0  0  0  0  0  0  0  0  0  0
    9.9747   -0.7659    0.0000 C   0  0  0  0  0  0  0  0  0  0  0  0
    9.3681    0.6060    0.0000 O   0  0  0  0  0  0  0  0  0  0  0  0
   11.9433   -0.9780    0.0000 N   0  0  0  0  0  0  0  0  0  0  0  0
   12.6905   -2.2786    0.0000 C   0  0  0  0  0  0  0  0  0  0  0  0
   11.3191   -2.8862    0.0000 H   0  0  0  0  0  0  0  0  0  0  0  0
   13.1518   -3.7059    0.0000 H   0  0  0  0  0  0  0  0  0  0  0  0
   14.1509   -1.9701    0.0000 C   0  0  0  0  0  0  0  0  0  0  0  0
   14.3025   -3.4624    0.0000 H   0  0  0  0  0  0  0  0  0  0  0  0
   15.6509   -1.9788    0.0000 H   0  0  0  0  0  0  0  0  0  0  0  0
   14.3199   -0.4776    0.0000 S   0  0  0  0  0  0  0  0  0  0  0  0
   12.9454    0.1282    0.0000 C   0  0  0  0  0  0  0  0  0  0  0  0
   13.6935    1.4284    0.0000 H   0  0  0  0  0  0  0  0  0  0  0  0
   11.7326    1.0109    0.0000 H   0  0  0  0  0  0  0  0  0  0  0  0
    7.9785   -0.9667    0.0000 N   0  0  0  0  0  0  0  0  0  0  0  0
    8.1337    0.5252    0.0000 H   0  0  0  0  0  0  0  0  0  0  0  0
    6.6829   -1.7267    0.0000 C   0  0  0  0  0  0  0  0  0  0  0  0
    6.0664   -0.3592    0.0000 H   0  0  0  0  0  0  0  0  0  0  0  0
    5.2574   -2.1936    0.0000 H   0  0  0  0  0  0  0  0  0  0  0  0
   -1.6107   -6.6877    0.0000 O   0  0  0  0  0  0  0  0  0  0  0  0
  1  2  1  0  0  0  0 
  1  3  1  0  0  0  0 
  1  4  1  0  0  0  0 
  1  5  1  0  0  0  0 
  5  6  2  0  0  0  0 
  6  7  1  0  0  0  0 
  7  8  1  0  0  0  0 
  8  9  2  0  0  0  0 
  9 10  1  0  0  0  0 
  9 11  1  0  0  0  0 
 11 12  1  0  0  0  0 
 11 13  2  0  0  0  0 
 13 14  1  0  0  0  0 
 13 15  1  0  0  0  0 
 15 16  1  0  0  0  0 
 15 17  2  0  0  0  0 
  8 17  1  0  0  0  0 
 17 18  1  0  0  0  0 
  7 19  1  0  0  0  0 
 19 20  2  0  0  0  0 
  5 20  1  0  0  0  0 
 20 21  1  0  0  0  0 
 19 22  1  0  0  0  0 
 22 23  1  0  0  0  0 
 23 24  1  0  0  0  0 
 23 25  1  0  0  0  0 
 23 26  1  0  0  0  0 
 26 27  1  0  0  0  0 
 26 28  1  0  0  0  0 
 26 29  1  0  0  0  0 
 29 30  1  0  0  0  0 
 30 31  1  0  0  0  0 
 30 32  1  0  0  0  0 
 30 33  1  0  0  0  0 
 22 33  1  0  0  0  0 
 33 34  1  0  0  0  0 
 33 35  1  0  0  0  0 
 36 29  1  1  0  0  0 
 36 37  1  6  0  0  0 
 36 38  1  0  0  0  0 
 38 39  1  0  0  0  0 
 38 40  1  0  0  0  0 
 38 41  1  0  0  0  0 
 41 42  1  1  0  0  0 
 41 43  1  6  0  0  0 
 43 44  2  0  0  0  0 
 43 45  1  0  0  0  0 
 45 46  1  0  0  0  0 
 46 47  1  0  0  0  0 
 46 48  1  0  0  0  0 
 46 49  1  0  0  0  0 
 49 50  1  0  0  0  0 
 49 51  1  0  0  0  0 
 49 52  1  0  0  0  0 
 52 53  1  0  0  0  0 
 45 53  1  0  0  0  0 
 53 54  1  0  0  0  0 
 53 55  1  0  0  0  0 
 41 56  1  0  0  0  0 
 56 57  1  0  0  0  0 
 56 58  1  0  0  0  0 
 36 58  1  0  0  0  0 
 58 59  1  0  0  0  0 
 58 60  1  0  0  0  0 
  7 61  1  0  0  0  0 
M  CHG  1   7   1
M  CHG  1  61  -1
M  END
> <Rank>
36

> <Priority_score>
0.096

> <Reaction_type>
N-oxidation

> <Parent_ID>
58

> <Parent_InChI>
InChI=1S/C22H30N6OS/c1-17-13-21(28(24-17)18-5-3-2-4-6-18)26-9-7-25(8-10-26)19-14-20(23-15-19)22(29)27-11-12-30-16-27/h2-6,13,19-20,23H,7-12,14-16H2,1H3

> <Parent_SMILES>
Cc1cc(N2CCN([C@H]3CN[C@H](C(=O)N4CCSC4)C3)CC2)n(-c2ccccc2)n1

$$$$
Molecule 58_metabolite 37
  CDK     0516241031

 58 63  0  0  0  0  0  0  0  0999 V2000
    1.2728   -2.8208    0.0000 C   0  0  0  0  0  0  0  0  0  0  0  0
    2.7642   -2.9807    0.0000 H   0  0  0  0  0  0  0  0  0  0  0  0
    1.3743   -4.3174    0.0000 H   0  0  0  0  0  0  0  0  0  0  0  0
   -0.1834   -3.1807    0.0000 H   0  0  0  0  0  0  0  0  0  0  0  0
    0.6655   -1.4493    0.0000 C   0  0  0  0  0  0  0  0  0  0  0  0
    1.4236   -0.1525    0.0000 N   0  0  0  0  0  0  0  0  0  0  0  0
    0.4115    0.9574    0.0000 N   0  0  0  0  0  0  0  0  0  0  0  0
    0.9693    2.3498    0.0000 C   0  0  0  0  0  0  0  0  0  0  0  0
    0.0414    3.5294    0.0000 C   0  0  0  0  0  0  0  0  0  0  0  0
   -1.4433    3.3161    0.0000 H   0  0  0  0  0  0  0  0  0  0  0  0
    0.5993    4.9219    0.0000 C   0  0  0  0  0  0  0  0  0  0  0  0
   -0.3275    6.1013    0.0000 H   0  0  0  0  0  0  0  0  0  0  0  0
    2.0850    5.1346    0.0000 C   0  0  0  0  0  0  0  0  0  0  0  0
    2.6428    6.5270    0.0000 H   0  0  0  0  0  0  0  0  0  0  0  0
    3.0128    3.9549    0.0000 C   0  0  0  0  0  0  0  0  0  0  0  0
    4.4975    4.1683    0.0000 H   0  0  0  0  0  0  0  0  0  0  0  0
    2.4550    2.5625    0.0000 C   0  0  0  0  0  0  0  0  0  0  0  0
    3.3817    1.3831    0.0000 H   0  0  0  0  0  0  0  0  0  0  0  0
   -0.9524    0.3508    0.0000 C   0  0  0  0  0  0  0  0  0  0  0  0
   -0.7950   -1.1409    0.0000 C   0  0  0  0  0  0  0  0  0  0  0  0
   -1.9088   -2.1456    0.0000 H   0  0  0  0  0  0  0  0  0  0  0  0
   -2.6671    1.3408    0.0000 N   0  0  0  0  0  0  0  0  0  0  0  0
   -2.6671    2.8408    0.0000 C   0  0  0  0  0  0  0  0  0  0  0  0
   -1.1899    2.5804    0.0000 H   0  0  0  0  0  0  0  0  0  0  0  0
   -2.1541    4.2504    0.0000 H   0  0  0  0  0  0  0  0  0  0  0  0
   -3.9662    3.5908    0.0000 C   0  0  0  0  0  0  0  0  0  0  0  0
   -3.0020    4.7399    0.0000 H   0  0  0  0  0  0  0  0  0  0  0  0
   -4.9304    4.7399    0.0000 H   0  0  0  0  0  0  0  0  0  0  0  0
   -5.2652    2.8408    0.0000 N   0  0  0  0  0  0  0  0  0  0  0  0
   -6.5552    3.5908    0.0000 C   0  0  2  0  0  0  0  0  0  0  0  0
   -6.5527    5.0908    0.0000 H   0  0  0  0  0  0  0  0  0  0  0  0
   -7.8552    2.8408    0.0000 C   0  0  0  0  0  0  0  0  0  0  0  0
   -8.3679    4.2505    0.0000 H   0  0  0  0  0  0  0  0  0  0  0  0
   -9.3325    2.5805    0.0000 H   0  0  0  0  0  0  0  0  0  0  0  0
   -7.8552    1.3408    0.0000 C   0  0  1  0  0  0  0  0  0  0  0  0
  -10.7506    1.8511    0.0000 H   0  0  0  0  0  0  0  0  0  0  0  0
   -8.5320   -0.5199    0.0000 C   0  0  0  0  0  0  0  0  0  0  0  0
   -7.5676   -1.6688    0.0000 O   0  0  0  0  0  0  0  0  0  0  0  0
  -10.0092   -0.7807    0.0000 N   0  0  0  0  0  0  0  0  0  0  0  0
  -11.0889    0.2606    0.0000 C   0  0  0  0  0  0  0  0  0  0  0  0
   -9.9407    1.2259    0.0000 H   0  0  0  0  0  0  0  0  0  0  0  0
  -11.9292    1.5031    0.0000 H   0  0  0  0  0  0  0  0  0  0  0  0
  -12.4057   -0.4422    0.0000 C   0  0  0  0  0  0  0  0  0  0  0  0
  -12.9666    0.9490    0.0000 H   0  0  0  0  0  0  0  0  0  0  0  0
  -13.8488   -0.8514    0.0000 H   0  0  0  0  0  0  0  0  0  0  0  0
  -12.1526   -1.9228    0.0000 S   0  0  0  0  0  0  0  0  0  0  0  0
  -10.6638   -2.1221    0.0000 C   0  0  0  0  0  0  0  0  0  0  0  0
  -11.0205   -3.5791    0.0000 H   0  0  0  0  0  0  0  0  0  0  0  0
   -9.2532   -2.6323    0.0000 H   0  0  0  0  0  0  0  0  0  0  0  0
   -6.5552    0.5908    0.0000 N   0  0  0  0  0  0  0  0  0  0  0  0
   -7.0152    2.0908    0.0000 C   0  0  0  0  0  0  0  0  0  0  0  0
   -9.4033    3.8057    0.0000 H   0  0  0  0  0  0  0  0  0  0  0  0
   -8.6235    0.9359    0.0000 H   0  0  0  0  0  0  0  0  0  0  0  0
   -5.2652    1.3408    0.0000 C   0  0  0  0  0  0  0  0  0  0  0  0
   -3.9650    2.0889    0.0000 H   0  0  0  0  0  0  0  0  0  0  0  0
   -3.9662    0.5908    0.0000 C   0  0  0  0  0  0  0  0  0  0  0  0
   -4.9304   -0.5582    0.0000 H   0  0  0  0  0  0  0  0  0  0  0  0
   -3.0020   -0.5582    0.0000 H   0  0  0  0  0  0  0  0  0  0  0  0
  1  2  1  0  0  0  0 
  1  3  1  0  0  0  0 
  1  4  1  0  0  0  0 
  1  5  1  0  0  0  0 
  5  6  2  0  0  0  0 
  6  7  1  0  0  0  0 
  7  8  1  0  0  0  0 
  8  9  2  0  0  0  0 
  9 10  1  0  0  0  0 
  9 11  1  0  0  0  0 
 11 12  1  0  0  0  0 
 11 13  2  0  0  0  0 
 13 14  1  0  0  0  0 
 13 15  1  0  0  0  0 
 15 16  1  0  0  0  0 
 15 17  2  0  0  0  0 
  8 17  1  0  0  0  0 
 17 18  1  0  0  0  0 
  7 19  1  0  0  0  0 
 19 20  2  0  0  0  0 
  5 20  1  0  0  0  0 
 20 21  1  0  0  0  0 
 19 22  1  0  0  0  0 
 22 23  1  0  0  0  0 
 23 24  1  0  0  0  0 
 23 25  1  0  0  0  0 
 23 26  1  0  0  0  0 
 26 27  1  0  0  0  0 
 26 28  1  0  0  0  0 
 26 29  1  0  0  0  0 
 29 30  1  0  0  0  0 
 30 31  1  6  0  0  0 
 30 32  1  0  0  0  0 
 32 33  1  0  0  0  0 
 32 34  1  0  0  0  0 
 32 35  1  0  0  0  0 
 35 36  1  1  0  0  0 
 35 37  1  6  0  0  0 
 37 38  2  0  0  0  0 
 37 39  1  0  0  0  0 
 39 40  1  0  0  0  0 
 40 41  1  0  0  0  0 
 40 42  1  0  0  0  0 
 40 43  1  0  0  0  0 
 43 44  1  0  0  0  0 
 43 45  1  0  0  0  0 
 43 46  1  0  0  0  0 
 46 47  1  0  0  0  0 
 39 47  1  0  0  0  0 
 47 48  1  0  0  0  0 
 47 49  1  0  0  0  0 
 35 50  1  0  0  0  0 
 50 51  1  0  0  0  0 
 30 51  1  0  0  0  0 
 51 52  1  0  0  0  0 
 51 53  1  0  0  0  0 
 50 54  1  0  0  0  0 
 29 54  1  0  0  0  0 
 54 55  1  0  0  0  0 
 54 56  1  0  0  0  0 
 22 56  1  0  0  0  0 
 56 57  1  0  0  0  0 
 56 58  1  0  0  0  0 
M  END
> <Rank>
37

> <Priority_score>
0.08293582888541684

> <Reaction_type>
cyclization to 6-membered NCN ring

> <Parent_ID>
58

> <Parent_InChI>
InChI=1S/C22H30N6OS/c1-17-13-21(28(24-17)18-5-3-2-4-6-18)26-9-7-25(8-10-26)19-14-20(23-15-19)22(29)27-11-12-30-16-27/h2-6,13,19-20,23H,7-12,14-16H2,1H3

> <Parent_SMILES>
Cc1cc(N2CCN([C@H]3CN[C@H](C(=O)N4CCSC4)C3)CC2)n(-c2ccccc2)n1

$$$$
Molecule 58_metabolite 38
  CDK     0516241031

 58 62  0  0  0  0  0  0  0  0999 V2000
    9.1494   -4.3665    0.0000 C   0  0  0  0  0  0  0  0  0  0  0  0
   10.5772   -4.8264    0.0000 H   0  0  0  0  0  0  0  0  0  0  0  0
    9.8504   -3.0403    0.0000 H   0  0  0  0  0  0  0  0  0  0  0  0
    7.9651   -3.4459    0.0000 H   0  0  0  0  0  0  0  0  0  0  0  0
    8.0372   -5.3729    0.0000 C   0  0  0  0  0  0  0  0  0  0  0  0
    8.2030   -6.8658    0.0000 N   0  0  0  0  0  0  0  0  0  0  0  0
    6.8272   -7.4687    0.0000 N   0  0  0  0  0  0  0  0  0  0  0  0
    6.4107   -9.4044    0.0000 C   0  0  0  0  0  0  0  0  0  0  0  0
    4.9821   -9.8642    0.0000 C   0  0  0  0  0  0  0  0  0  0  0  0
    3.8700   -8.8575    0.0000 H   0  0  0  0  0  0  0  0  0  0  0  0
    4.6666  -11.3306    0.0000 C   0  0  0  0  0  0  0  0  0  0  0  0
    3.2389  -11.7908    0.0000 H   0  0  0  0  0  0  0  0  0  0  0  0
    5.7797  -12.3373    0.0000 C   0  0  0  0  0  0  0  0  0  0  0  0
    5.4642  -13.8037    0.0000 H   0  0  0  0  0  0  0  0  0  0  0  0
    7.2084  -11.8775    0.0000 C   0  0  0  0  0  0  0  0  0  0  0  0
    8.3204  -12.8842    0.0000 H   0  0  0  0  0  0  0  0  0  0  0  0
    7.5239  -10.4111    0.0000 C   0  0  0  0  0  0  0  0  0  0  0  0
    8.9516   -9.9509    0.0000 H   0  0  0  0  0  0  0  0  0  0  0  0
    5.8275   -6.3603    0.0000 C   0  0  0  0  0  0  0  0  0  0  0  0
    6.5775   -5.0613    0.0000 C   0  0  0  0  0  0  0  0  0  0  0  0
    5.9680   -3.6907    0.0000 H   0  0  0  0  0  0  0  0  0  0  0  0
    3.8584   -6.5682    0.0000 N   0  0  0  0  0  0  0  0  0  0  0  0
    2.9755   -5.3545    0.0000 C   0  0  0  0  0  0  0  0  0  0  0  0
    4.3234   -4.6964    0.0000 H   0  0  0  0  0  0  0  0  0  0  0  0
    2.5618   -3.9127    0.0000 H   0  0  0  0  0  0  0  0  0  0  0  0
    1.4829   -5.5113    0.0000 C   0  0  0  0  0  0  0  0  0  0  0  0
    1.5874   -4.0150    0.0000 H   0  0  0  0  0  0  0  0  0  0  0  0
    0.0274   -5.1487    0.0000 H   0  0  0  0  0  0  0  0  0  0  0  0
    0.8732   -6.8818    0.0000 N   0  0  0  0  0  0  0  0  0  0  0  0
    1.7561   -8.0955    0.0000 C   0  0  0  0  0  0  0  0  0  0  0  0
    0.4081   -8.7536    0.0000 H   0  0  0  0  0  0  0  0  0  0  0  0
    2.1698   -9.5373    0.0000 H   0  0  0  0  0  0  0  0  0  0  0  0
    3.2487   -7.9387    0.0000 C   0  0  0  0  0  0  0  0  0  0  0  0
    3.1442   -9.4350    0.0000 H   0  0  0  0  0  0  0  0  0  0  0  0
    4.7042   -8.3013    0.0000 H   0  0  0  0  0  0  0  0  0  0  0  0
   -1.0959   -7.0897    0.0000 C   0  0  0  0  0  0  0  0  0  0  0  0
   -2.1006   -5.9758    0.0000 C   0  0  0  0  0  0  0  0  0  0  0  0
   -1.7906   -4.5082    0.0000 H   0  0  0  0  0  0  0  0  0  0  0  0
   -3.4631   -6.5854    0.0000 C   0  0  1  0  0  0  0  0  0  0  0  0
   -3.9259   -5.1585    0.0000 H   0  0  0  0  0  0  0  0  0  0  0  0
   -4.9312   -6.8932    0.0000 C   0  0  0  0  0  0  0  0  0  0  0  0
   -5.3986   -8.3185    0.0000 O   0  0  0  0  0  0  0  0  0  0  0  0
   -6.2520   -5.4182    0.0000 N   0  0  0  0  0  0  0  0  0  0  0  0
   -5.9368   -3.9517    0.0000 C   0  0  0  0  0  0  0  0  0  0  0  0
   -4.5111   -4.4180    0.0000 H   0  0  0  0  0  0  0  0  0  0  0  0
   -5.3244   -2.5824    0.0000 H   0  0  0  0  0  0  0  0  0  0  0  0
   -7.2284   -3.2035    0.0000 C   0  0  0  0  0  0  0  0  0  0  0  0
   -6.3423   -1.9932    0.0000 H   0  0  0  0  0  0  0  0  0  0  0  0
   -8.3372   -2.1933    0.0000 H   0  0  0  0  0  0  0  0  0  0  0  0
   -8.3528   -4.1995    0.0000 S   0  0  0  0  0  0  0  0  0  0  0  0
   -7.7370   -5.5695    0.0000 C   0  0  0  0  0  0  0  0  0  0  0  0
   -9.1629   -6.0349    0.0000 H   0  0  0  0  0  0  0  0  0  0  0  0
   -7.4265   -7.0370    0.0000 H   0  0  0  0  0  0  0  0  0  0  0  0
   -3.3135   -8.0800    0.0000 N   0  0  0  0  0  0  0  0  0  0  0  0
   -4.4274   -9.0846    0.0000 H   0  0  0  0  0  0  0  0  0  0  0  0
   -1.8422   -8.3823    0.0000 C   0  0  0  0  0  0  0  0  0  0  0  0
   -2.2993   -9.8110    0.0000 H   0  0  0  0  0  0  0  0  0  0  0  0
   -0.4705   -8.9894    0.0000 H   0  0  0  0  0  0  0  0  0  0  0  0
  1  2  1  0  0  0  0 
  1  3  1  0  0  0  0 
  1  4  1  0  0  0  0 
  1  5  1  0  0  0  0 
  5  6  2  0  0  0  0 
  6  7  1  0  0  0  0 
  7  8  1  0  0  0  0 
  8  9  2  0  0  0  0 
  9 10  1  0  0  0  0 
  9 11  1  0  0  0  0 
 11 12  1  0  0  0  0 
 11 13  2  0  0  0  0 
 13 14  1  0  0  0  0 
 13 15  1  0  0  0  0 
 15 16  1  0  0  0  0 
 15 17  2  0  0  0  0 
  8 17  1  0  0  0  0 
 17 18  1  0  0  0  0 
  7 19  1  0  0  0  0 
 19 20  2  0  0  0  0 
  5 20  1  0  0  0  0 
 20 21  1  0  0  0  0 
 19 22  1  0  0  0  0 
 22 23  1  0  0  0  0 
 23 24  1  0  0  0  0 
 23 25  1  0  0  0  0 
 23 26  1  0  0  0  0 
 26 27  1  0  0  0  0 
 26 28  1  0  0  0  0 
 26 29  1  0  0  0  0 
 29 30  1  0  0  0  0 
 30 31  1  0  0  0  0 
 30 32  1  0  0  0  0 
 30 33  1  0  0  0  0 
 22 33  1  0  0  0  0 
 33 34  1  0  0  0  0 
 33 35  1  0  0  0  0 
 29 36  1  0  0  0  0 
 36 37  2  0  0  0  0 
 37 38  1  0  0  0  0 
 37 39  1  0  0  0  0 
 39 40  1  1  0  0  0 
 39 41  1  6  0  0  0 
 41 42  2  0  0  0  0 
 41 43  1  0  0  0  0 
 43 44  1  0  0  0  0 
 44 45  1  0  0  0  0 
 44 46  1  0  0  0  0 
 44 47  1  0  0  0  0 
 47 48  1  0  0  0  0 
 47 49  1  0  0  0  0 
 47 50  1  0  0  0  0 
 50 51  1  0  0  0  0 
 43 51  1  0  0  0  0 
 51 52  1  0  0  0  0 
 51 53  1  0  0  0  0 
 39 54  1  0  0  0  0 
 54 55  1  0  0  0  0 
 54 56  1  0  0  0  0 
 36 56  1  0  0  0  0 
 56 57  1  0  0  0  0 
 56 58  1  0  0  0  0 
M  END
> <Rank>
37

> <Priority_score>
0.08293582888541684

> <Reaction_type>
alkyl dehydrogenation

> <Parent_ID>
58

> <Parent_InChI>
InChI=1S/C22H30N6OS/c1-17-13-21(28(24-17)18-5-3-2-4-6-18)26-9-7-25(8-10-26)19-14-20(23-15-19)22(29)27-11-12-30-16-27/h2-6,13,19-20,23H,7-12,14-16H2,1H3

> <Parent_SMILES>
Cc1cc(N2CCN([C@H]3CN[C@H](C(=O)N4CCSC4)C3)CC2)n(-c2ccccc2)n1

$$$$
Molecule 58_metabolite 39
  CDK     0516241031

 58 62  0  0  0  0  0  0  0  0999 V2000
   10.2555    0.2284    0.0000 C   0  0  0  0  0  0  0  0  0  0  0  0
   11.6833   -0.2316    0.0000 H   0  0  0  0  0  0  0  0  0  0  0  0
   10.9564    1.5546    0.0000 H   0  0  0  0  0  0  0  0  0  0  0  0
    9.0712    1.1490    0.0000 H   0  0  0  0  0  0  0  0  0  0  0  0
    9.1433   -0.7780    0.0000 C   0  0  0  0  0  0  0  0  0  0  0  0
    9.3091   -2.2709    0.0000 N   0  0  0  0  0  0  0  0  0  0  0  0
    7.9333   -2.8738    0.0000 N   0  0  0  0  0  0  0  0  0  0  0  0
    7.5168   -4.8095    0.0000 C   0  0  0  0  0  0  0  0  0  0  0  0
    6.0881   -5.2693    0.0000 C   0  0  0  0  0  0  0  0  0  0  0  0
    4.9761   -4.2627    0.0000 H   0  0  0  0  0  0  0  0  0  0  0  0
    5.7726   -6.7357    0.0000 C   0  0  0  0  0  0  0  0  0  0  0  0
    4.3450   -7.1959    0.0000 H   0  0  0  0  0  0  0  0  0  0  0  0
    6.8858   -7.7424    0.0000 C   0  0  0  0  0  0  0  0  0  0  0  0
    6.5703   -9.2089    0.0000 H   0  0  0  0  0  0  0  0  0  0  0  0
    8.3145   -7.2826    0.0000 C   0  0  0  0  0  0  0  0  0  0  0  0
    9.4265   -8.2893    0.0000 H   0  0  0  0  0  0  0  0  0  0  0  0
    8.6300   -5.8162    0.0000 C   0  0  0  0  0  0  0  0  0  0  0  0
   10.0576   -5.3560    0.0000 H   0  0  0  0  0  0  0  0  0  0  0  0
    6.9335   -1.7655    0.0000 C   0  0  0  0  0  0  0  0  0  0  0  0
    7.6835   -0.4664    0.0000 C   0  0  0  0  0  0  0  0  0  0  0  0
    7.0740    0.9042    0.0000 H   0  0  0  0  0  0  0  0  0  0  0  0
    4.9645   -1.9733    0.0000 N   0  0  0  0  0  0  0  0  0  0  0  0
    4.0816   -0.7596    0.0000 C   0  0  0  0  0  0  0  0  0  0  0  0
    5.4295   -0.1015    0.0000 H   0  0  0  0  0  0  0  0  0  0  0  0
    3.6679    0.6822    0.0000 H   0  0  0  0  0  0  0  0  0  0  0  0
    2.5890   -0.9164    0.0000 C   0  0  0  0  0  0  0  0  0  0  0  0
    2.6935    0.5799    0.0000 H   0  0  0  0  0  0  0  0  0  0  0  0
    1.1335   -0.5538    0.0000 H   0  0  0  0  0  0  0  0  0  0  0  0
    1.9793   -2.2869    0.0000 N   0  0  0  0  0  0  0  0  0  0  0  0
    2.8622   -3.5006    0.0000 C   0  0  0  0  0  0  0  0  0  0  0  0
    1.5142   -4.1587    0.0000 H   0  0  0  0  0  0  0  0  0  0  0  0
    3.2759   -4.9424    0.0000 H   0  0  0  0  0  0  0  0  0  0  0  0
    4.3548   -3.3438    0.0000 C   0  0  0  0  0  0  0  0  0  0  0  0
    4.2502   -4.8401    0.0000 H   0  0  0  0  0  0  0  0  0  0  0  0
    5.8103   -3.7064    0.0000 H   0  0  0  0  0  0  0  0  0  0  0  0
    0.0102   -2.4948    0.0000 C   0  0  0  0  0  0  0  0  0  0  0  0
   -0.9896   -1.3864    0.0000 C   0  0  0  0  0  0  0  0  0  0  0  0
   -0.6740    0.0800    0.0000 H   0  0  0  0  0  0  0  0  0  0  0  0
   -2.3653   -1.9893    0.0000 N   0  0  0  0  0  0  0  0  0  0  0  0
   -3.6644   -1.2393    0.0000 H   0  0  0  0  0  0  0  0  0  0  0  0
   -2.1996   -3.4822    0.0000 C   0  0  1  0  0  0  0  0  0  0  0  0
   -3.6996   -3.4876    0.0000 H   0  0  0  0  0  0  0  0  0  0  0  0
   -0.7398   -3.7938    0.0000 C   0  0  0  0  0  0  0  0  0  0  0  0
   -1.2042   -5.2201    0.0000 H   0  0  0  0  0  0  0  0  0  0  0  0
    0.6303   -4.4043    0.0000 H   0  0  0  0  0  0  0  0  0  0  0  0
   -2.4038   -5.4516    0.0000 C   0  0  0  0  0  0  0  0  0  0  0  0
   -1.1891   -6.3316    0.0000 O   0  0  0  0  0  0  0  0  0  0  0  0
   -3.7733   -6.0636    0.0000 N   0  0  0  0  0  0  0  0  0  0  0  0
   -5.0737   -5.3159    0.0000 C   0  0  0  0  0  0  0  0  0  0  0  0
   -4.1946   -4.1006    0.0000 H   0  0  0  0  0  0  0  0  0  0  0  0
   -6.1908   -4.3149    0.0000 H   0  0  0  0  0  0  0  0  0  0  0  0
   -6.1803   -6.3177    0.0000 C   0  0  0  0  0  0  0  0  0  0  0  0
   -7.0625   -5.1046    0.0000 H   0  0  0  0  0  0  0  0  0  0  0  0
   -7.4807   -7.0653    0.0000 H   0  0  0  0  0  0  0  0  0  0  0  0
   -5.5749   -7.6924    0.0000 S   0  0  0  0  0  0  0  0  0  0  0  0
   -4.0823   -7.5239    0.0000 C   0  0  0  0  0  0  0  0  0  0  0  0
   -4.0742   -9.0239    0.0000 H   0  0  0  0  0  0  0  0  0  0  0  0
   -2.5900   -7.6760    0.0000 H   0  0  0  0  0  0  0  0  0  0  0  0
  1  2  1  0  0  0  0 
  1  3  1  0  0  0  0 
  1  4  1  0  0  0  0 
  1  5  1  0  0  0  0 
  5  6  2  0  0  0  0 
  6  7  1  0  0  0  0 
  7  8  1  0  0  0  0 
  8  9  2  0  0  0  0 
  9 10  1  0  0  0  0 
  9 11  1  0  0  0  0 
 11 12  1  0  0  0  0 
 11 13  2  0  0  0  0 
 13 14  1  0  0  0  0 
 13 15  1  0  0  0  0 
 15 16  1  0  0  0  0 
 15 17  2  0  0  0  0 
  8 17  1  0  0  0  0 
 17 18  1  0  0  0  0 
  7 19  1  0  0  0  0 
 19 20  2  0  0  0  0 
  5 20  1  0  0  0  0 
 20 21  1  0  0  0  0 
 19 22  1  0  0  0  0 
 22 23  1  0  0  0  0 
 23 24  1  0  0  0  0 
 23 25  1  0  0  0  0 
 23 26  1  0  0  0  0 
 26 27  1  0  0  0  0 
 26 28  1  0  0  0  0 
 26 29  1  0  0  0  0 
 29 30  1  0  0  0  0 
 30 31  1  0  0  0  0 
 30 32  1  0  0  0  0 
 30 33  1  0  0  0  0 
 22 33  1  0  0  0  0 
 33 34  1  0  0  0  0 
 33 35  1  0  0  0  0 
 29 36  1  0  0  0  0 
 36 37  2  0  0  0  0 
 37 38  1  0  0  0  0 
 37 39  1  0  0  0  0 
 39 40  1  0  0  0  0 
 39 41  1  0  0  0  0 
 41 42  1  6  0  0  0 
 41 43  1  0  0  0  0 
 36 43  1  0  0  0  0 
 43 44  1  0  0  0  0 
 43 45  1  0  0  0  0 
 41 46  1  1  0  0  0 
 46 47  2  0  0  0  0 
 46 48  1  0  0  0  0 
 48 49  1  0  0  0  0 
 49 50  1  0  0  0  0 
 49 51  1  0  0  0  0 
 49 52  1  0  0  0  0 
 52 53  1  0  0  0  0 
 52 54  1  0  0  0  0 
 52 55  1  0  0  0  0 
 55 56  1  0  0  0  0 
 48 56  1  0  0  0  0 
 56 57  1  0  0  0  0 
 56 58  1  0  0  0  0 
M  END
> <Rank>
37

> <Priority_score>
0.08293582888541684

> <Reaction_type>
alkyl dehydrogenation

> <Parent_ID>
58

> <Parent_InChI>
InChI=1S/C22H30N6OS/c1-17-13-21(28(24-17)18-5-3-2-4-6-18)26-9-7-25(8-10-26)19-14-20(23-15-19)22(29)27-11-12-30-16-27/h2-6,13,19-20,23H,7-12,14-16H2,1H3

> <Parent_SMILES>
Cc1cc(N2CCN([C@H]3CN[C@H](C(=O)N4CCSC4)C3)CC2)n(-c2ccccc2)n1

$$$$
Molecule 58_metabolite 40
  CDK     0516241031

 59 63  0  0  0  0  0  0  0  0999 V2000
    9.1494   -4.3665    0.0000 C   0  0  0  0  0  0  0  0  0  0  0  0
   10.5772   -4.8264    0.0000 H   0  0  0  0  0  0  0  0  0  0  0  0
    9.8504   -3.0403    0.0000 H   0  0  0  0  0  0  0  0  0  0  0  0
    7.9651   -3.4459    0.0000 H   0  0  0  0  0  0  0  0  0  0  0  0
    8.0372   -5.3729    0.0000 C   0  0  0  0  0  0  0  0  0  0  0  0
    8.2030   -6.8658    0.0000 N   0  0  0  0  0  0  0  0  0  0  0  0
    6.8272   -7.4687    0.0000 N   0  0  0  0  0  0  0  0  0  0  0  0
    6.4107   -9.4044    0.0000 C   0  0  0  0  0  0  0  0  0  0  0  0
    4.9821   -9.8642    0.0000 C   0  0  0  0  0  0  0  0  0  0  0  0
    3.8700   -8.8575    0.0000 H   0  0  0  0  0  0  0  0  0  0  0  0
    4.6666  -11.3306    0.0000 C   0  0  0  0  0  0  0  0  0  0  0  0
    3.2389  -11.7908    0.0000 H   0  0  0  0  0  0  0  0  0  0  0  0
    5.7797  -12.3373    0.0000 C   0  0  0  0  0  0  0  0  0  0  0  0
    5.4642  -13.8037    0.0000 H   0  0  0  0  0  0  0  0  0  0  0  0
    7.2084  -11.8775    0.0000 C   0  0  0  0  0  0  0  0  0  0  0  0
    8.3204  -12.8842    0.0000 H   0  0  0  0  0  0  0  0  0  0  0  0
    7.5239  -10.4111    0.0000 C   0  0  0  0  0  0  0  0  0  0  0  0
    8.9516   -9.9509    0.0000 H   0  0  0  0  0  0  0  0  0  0  0  0
    5.8275   -6.3603    0.0000 C   0  0  0  0  0  0  0  0  0  0  0  0
    6.5775   -5.0613    0.0000 C   0  0  0  0  0  0  0  0  0  0  0  0
    5.9680   -3.6907    0.0000 H   0  0  0  0  0  0  0  0  0  0  0  0
    3.8584   -6.5682    0.0000 N   0  0  0  0  0  0  0  0  0  0  0  0
    2.9755   -5.3545    0.0000 C   0  0  0  0  0  0  0  0  0  0  0  0
    4.3234   -4.6964    0.0000 H   0  0  0  0  0  0  0  0  0  0  0  0
    2.5618   -3.9127    0.0000 H   0  0  0  0  0  0  0  0  0  0  0  0
    1.4829   -5.5113    0.0000 C   0  0  0  0  0  0  0  0  0  0  0  0
    1.5874   -4.0150    0.0000 H   0  0  0  0  0  0  0  0  0  0  0  0
    0.0274   -5.1487    0.0000 H   0  0  0  0  0  0  0  0  0  0  0  0
    0.8732   -6.8818    0.0000 N   0  0  0  0  0  0  0  0  0  0  0  0
   -1.0959   -7.0897    0.0000 C   0  0  0  0  0  0  0  0  0  0  0  0
   -2.1006   -5.9758    0.0000 C   0  0  0  0  0  0  0  0  0  0  0  0
   -0.8881   -5.0927    0.0000 H   0  0  0  0  0  0  0  0  0  0  0  0
   -2.8525   -4.6779    0.0000 H   0  0  0  0  0  0  0  0  0  0  0  0
   -3.4631   -6.5854    0.0000 C   0  0  1  0  0  0  0  0  0  0  0  0
   -3.9259   -5.1585    0.0000 H   0  0  0  0  0  0  0  0  0  0  0  0
   -4.9312   -6.8932    0.0000 C   0  0  0  0  0  0  0  0  0  0  0  0
   -5.3986   -8.3185    0.0000 O   0  0  0  0  0  0  0  0  0  0  0  0
   -6.2520   -5.4182    0.0000 N   0  0  0  0  0  0  0  0  0  0  0  0
   -5.9368   -3.9517    0.0000 C   0  0  0  0  0  0  0  0  0  0  0  0
   -4.5111   -4.4180    0.0000 H   0  0  0  0  0  0  0  0  0  0  0  0
   -5.3244   -2.5824    0.0000 H   0  0  0  0  0  0  0  0  0  0  0  0
   -7.2284   -3.2035    0.0000 C   0  0  0  0  0  0  0  0  0  0  0  0
   -6.3423   -1.9932    0.0000 H   0  0  0  0  0  0  0  0  0  0  0  0
   -8.3372   -2.1933    0.0000 H   0  0  0  0  0  0  0  0  0  0  0  0
   -8.3528   -4.1995    0.0000 S   0  0  0  0  0  0  0  0  0  0  0  0
   -7.7370   -5.5695    0.0000 C   0  0  0  0  0  0  0  0  0  0  0  0
   -9.1629   -6.0349    0.0000 H   0  0  0  0  0  0  0  0  0  0  0  0
   -7.4265   -7.0370    0.0000 H   0  0  0  0  0  0  0  0  0  0  0  0
   -3.3135   -8.0800    0.0000 N   0  0  0  0  0  0  0  0  0  0  0  0
   -4.4274   -9.0846    0.0000 H   0  0  0  0  0  0  0  0  0  0  0  0
   -1.8422   -8.3823    0.0000 C   0  0  0  0  0  0  0  0  0  0  0  0
   -2.2993   -9.8110    0.0000 H   0  0  0  0  0  0  0  0  0  0  0  0
   -0.4705   -8.9894    0.0000 H   0  0  0  0  0  0  0  0  0  0  0  0
    1.7561   -8.0955    0.0000 C   0  0  0  0  0  0  0  0  0  0  0  0
    0.4081   -8.7536    0.0000 H   0  0  0  0  0  0  0  0  0  0  0  0
    2.1698   -9.5373    0.0000 H   0  0  0  0  0  0  0  0  0  0  0  0
    3.2487   -7.9387    0.0000 C   0  0  0  0  0  0  0  0  0  0  0  0
    3.1442   -9.4350    0.0000 H   0  0  0  0  0  0  0  0  0  0  0  0
    4.7042   -8.3013    0.0000 H   0  0  0  0  0  0  0  0  0  0  0  0
  1  2  1  0  0  0  0 
  1  3  1  0  0  0  0 
  1  4  1  0  0  0  0 
  1  5  1  0  0  0  0 
  5  6  2  0  0  0  0 
  6  7  1  0  0  0  0 
  7  8  1  0  0  0  0 
  8  9  2  0  0  0  0 
  9 10  1  0  0  0  0 
  9 11  1  0  0  0  0 
 11 12  1  0  0  0  0 
 11 13  2  0  0  0  0 
 13 14  1  0  0  0  0 
 13 15  1  0  0  0  0 
 15 16  1  0  0  0  0 
 15 17  2  0  0  0  0 
  8 17  1  0  0  0  0 
 17 18  1  0  0  0  0 
  7 19  1  0  0  0  0 
 19 20  2  0  0  0  0 
  5 20  1  0  0  0  0 
 20 21  1  0  0  0  0 
 19 22  1  0  0  0  0 
 22 23  1  0  0  0  0 
 23 24  1  0  0  0  0 
 23 25  1  0  0  0  0 
 23 26  1  0  0  0  0 
 26 27  1  0  0  0  0 
 26 28  1  0  0  0  0 
 26 29  1  4  0  0  0 
 29 30  2  0  0  0  0 
 30 31  1  0  0  0  0 
 31 32  1  0  0  0  0 
 31 33  1  0  0  0  0 
 31 34  1  0  0  0  0 
 34 35  1  1  0  0  0 
 34 36  1  6  0  0  0 
 36 37  2  0  0  0  0 
 36 38  1  0  0  0  0 
 38 39  1  0  0  0  0 
 39 40  1  0  0  0  0 
 39 41  1  0  0  0  0 
 39 42  1  0  0  0  0 
 42 43  1  0  0  0  0 
 42 44  1  0  0  0  0 
 42 45  1  0  0  0  0 
 45 46  1  0  0  0  0 
 38 46  1  0  0  0  0 
 46 47  1  0  0  0  0 
 46 48  1  0  0  0  0 
 34 49  1  0  0  0  0 
 49 50  1  0  0  0  0 
 49 51  1  0  0  0  0 
 30 51  1  0  0  0  0 
 51 52  1  0  0  0  0 
 51 53  1  0  0  0  0 
 29 54  1  0  0  0  0 
 54 55  1  0  0  0  0 
 54 56  1  0  0  0  0 
 54 57  1  0  0  0  0 
 22 57  1  0  0  0  0 
 57 58  1  0  0  0  0 
 57 59  1  0  0  0  0 
M  CHG  1  29   1
M  END
> <Rank>
37

> <Priority_score>
0.08293582888541684

> <Reaction_type>
dehydration of N-C bond

> <Parent_ID>
58

> <Parent_InChI>
InChI=1S/C22H30N6OS/c1-17-13-21(28(24-17)18-5-3-2-4-6-18)26-9-7-25(8-10-26)19-14-20(23-15-19)22(29)27-11-12-30-16-27/h2-6,13,19-20,23H,7-12,14-16H2,1H3

> <Parent_SMILES>
Cc1cc(N2CCN([C@H]3CN[C@H](C(=O)N4CCSC4)C3)CC2)n(-c2ccccc2)n1

$$$$
Molecule 58_metabolite 41
  CDK     0516241031

 58 63  0  0  0  0  0  0  0  0999 V2000
    8.0880    0.2196    0.0000 C   0  0  0  0  0  0  0  0  0  0  0  0
    9.5795    0.0598    0.0000 H   0  0  0  0  0  0  0  0  0  0  0  0
    8.1896   -1.2769    0.0000 H   0  0  0  0  0  0  0  0  0  0  0  0
    6.6319   -0.1403    0.0000 H   0  0  0  0  0  0  0  0  0  0  0  0
    7.4808    1.5912    0.0000 C   0  0  0  0  0  0  0  0  0  0  0  0
    8.2388    2.8879    0.0000 N   0  0  0  0  0  0  0  0  0  0  0  0
    7.2267    3.9978    0.0000 N   0  0  0  0  0  0  0  0  0  0  0  0
    7.7846    5.3902    0.0000 C   0  0  0  0  0  0  0  0  0  0  0  0
    6.8567    6.5699    0.0000 C   0  0  0  0  0  0  0  0  0  0  0  0
    5.3720    6.3565    0.0000 H   0  0  0  0  0  0  0  0  0  0  0  0
    7.4145    7.9623    0.0000 C   0  0  0  0  0  0  0  0  0  0  0  0
    6.4878    9.1418    0.0000 H   0  0  0  0  0  0  0  0  0  0  0  0
    8.9002    8.1751    0.0000 C   0  0  0  0  0  0  0  0  0  0  0  0
    9.4581    9.5675    0.0000 H   0  0  0  0  0  0  0  0  0  0  0  0
    9.8281    6.9954    0.0000 C   0  0  0  0  0  0  0  0  0  0  0  0
   11.3128    7.2088    0.0000 H   0  0  0  0  0  0  0  0  0  0  0  0
    9.2702    5.6030    0.0000 C   0  0  0  0  0  0  0  0  0  0  0  0
   10.1970    4.4235    0.0000 H   0  0  0  0  0  0  0  0  0  0  0  0
    5.8629    3.3913    0.0000 C   0  0  0  0  0  0  0  0  0  0  0  0
    6.0203    1.8996    0.0000 C   0  0  0  0  0  0  0  0  0  0  0  0
    4.9065    0.8949    0.0000 H   0  0  0  0  0  0  0  0  0  0  0  0
    4.1481    4.3813    0.0000 N   0  0  0  0  0  0  0  0  0  0  0  0
    2.8483    3.6311    0.0000 C   0  0  0  0  0  0  0  0  0  0  0  0
    3.8125    2.4821    0.0000 H   0  0  0  0  0  0  0  0  0  0  0  0
    1.8844    2.4818    0.0000 H   0  0  0  0  0  0  0  0  0  0  0  0
    1.5481    4.3809    0.0000 C   0  0  0  0  0  0  0  0  0  0  0  0
    1.0356    2.9712    0.0000 H   0  0  0  0  0  0  0  0  0  0  0  0
    0.0708    4.6410    0.0000 H   0  0  0  0  0  0  0  0  0  0  0  0
    1.5479    5.8809    0.0000 N   0  0  0  0  0  0  0  0  0  0  0  0
    2.8478    6.6311    0.0000 C   0  0  0  0  0  0  0  0  0  0  0  0
    1.8835    7.7801    0.0000 H   0  0  0  0  0  0  0  0  0  0  0  0
    3.8116    7.7804    0.0000 H   0  0  0  0  0  0  0  0  0  0  0  0
    4.1479    5.8813    0.0000 C   0  0  0  0  0  0  0  0  0  0  0  0
    4.6604    7.2910    0.0000 H   0  0  0  0  0  0  0  0  0  0  0  0
    5.6252    5.6212    0.0000 H   0  0  0  0  0  0  0  0  0  0  0  0
   -0.9982    7.3509    0.0000 C   0  0  2  0  0  0  0  0  0  0  0  0
   -0.1165    8.5644    0.0000 H   0  0  0  0  0  0  0  0  0  0  0  0
   -2.1129    8.3546    0.0000 C   0  0  0  0  0  0  0  0  0  0  0  0
   -0.9982    9.3583    0.0000 H   0  0  0  0  0  0  0  0  0  0  0  0
   -2.9946    9.5681    0.0000 H   0  0  0  0  0  0  0  0  0  0  0  0
   -3.4120    7.6046    0.0000 C   0  0  1  0  0  0  0  0  0  0  0  0
   -3.7238    9.0718    0.0000 H   0  0  0  0  0  0  0  0  0  0  0  0
   -4.9038    7.7614    0.0000 C   0  0  0  0  0  0  0  0  0  0  0  0
   -5.6538    9.0604    0.0000 O   0  0  0  0  0  0  0  0  0  0  0  0
   -5.5139    6.3911    0.0000 N   0  0  0  0  0  0  0  0  0  0  0  0
   -6.8129    5.6411    0.0000 C   0  0  0  0  0  0  0  0  0  0  0  0
   -7.4230    7.0114    0.0000 H   0  0  0  0  0  0  0  0  0  0  0  0
   -8.2395    5.1775    0.0000 H   0  0  0  0  0  0  0  0  0  0  0  0
   -6.5010    4.1738    0.0000 S   0  0  0  0  0  0  0  0  0  0  0  0
   -5.0093    4.0170    0.0000 C   0  0  0  0  0  0  0  0  0  0  0  0
   -5.3211    2.5498    0.0000 H   0  0  0  0  0  0  0  0  0  0  0  0
   -3.5827    3.5535    0.0000 H   0  0  0  0  0  0  0  0  0  0  0  0
   -4.3992    5.3874    0.0000 C   0  0  0  0  0  0  0  0  0  0  0  0
   -3.2844    4.3837    0.0000 H   0  0  0  0  0  0  0  0  0  0  0  0
   -3.1001    6.1374    0.0000 N   0  0  0  0  0  0  0  0  0  0  0  0
   -1.6083    5.9806    0.0000 C   0  0  0  0  0  0  0  0  0  0  0  0
   -1.9202    4.5133    0.0000 H   0  0  0  0  0  0  0  0  0  0  0  0
   -0.1817    5.5170    0.0000 H   0  0  0  0  0  0  0  0  0  0  0  0
  1  2  1  0  0  0  0 
  1  3  1  0  0  0  0 
  1  4  1  0  0  0  0 
  1  5  1  0  0  0  0 
  5  6  2  0  0  0  0 
  6  7  1  0  0  0  0 
  7  8  1  0  0  0  0 
  8  9  2  0  0  0  0 
  9 10  1  0  0  0  0 
  9 11  1  0  0  0  0 
 11 12  1  0  0  0  0 
 11 13  2  0  0  0  0 
 13 14  1  0  0  0  0 
 13 15  1  0  0  0  0 
 15 16  1  0  0  0  0 
 15 17  2  0  0  0  0 
  8 17  1  0  0  0  0 
 17 18  1  0  0  0  0 
  7 19  1  0  0  0  0 
 19 20  2  0  0  0  0 
  5 20  1  0  0  0  0 
 20 21  1  0  0  0  0 
 19 22  1  0  0  0  0 
 22 23  1  0  0  0  0 
 23 24  1  0  0  0  0 
 23 25  1  0  0  0  0 
 23 26  1  0  0  0  0 
 26 27  1  0  0  0  0 
 26 28  1  0  0  0  0 
 26 29  1  0  0  0  0 
 29 30  1  0  0  0  0 
 30 31  1  0  0  0  0 
 30 32  1  0  0  0  0 
 30 33  1  0  0  0  0 
 22 33  1  0  0  0  0 
 33 34  1  0  0  0  0 
 33 35  1  0  0  0  0 
 36 29  1  1  0  0  0 
 36 37  1  6  0  0  0 
 36 38  1  0  0  0  0 
 38 39  1  0  0  0  0 
 38 40  1  0  0  0  0 
 38 41  1  0  0  0  0 
 41 42  1  1  0  0  0 
 41 43  1  0  0  0  0 
 43 44  2  0  0  0  0 
 43 45  1  0  0  0  0 
 45 46  1  0  0  0  0 
 46 47  1  0  0  0  0 
 46 48  1  0  0  0  0 
 46 49  1  0  0  0  0 
 49 50  1  0  0  0  0 
 50 51  1  0  0  0  0 
 50 52  1  0  0  0  0 
 50 53  1  0  0  0  0 
 45 53  1  0  0  0  0 
 53 54  1  0  0  0  0 
 53 55  1  0  0  0  0 
 41 55  1  0  0  0  0 
 55 56  1  0  0  0  0 
 36 56  1  0  0  0  0 
 56 57  1  0  0  0  0 
 56 58  1  0  0  0  0 
M  END
> <Rank>
41

> <Priority_score>
0.0664

> <Reaction_type>
cyclization to 5-membered NCN ring

> <Parent_ID>
58

> <Parent_InChI>
InChI=1S/C22H30N6OS/c1-17-13-21(28(24-17)18-5-3-2-4-6-18)26-9-7-25(8-10-26)19-14-20(23-15-19)22(29)27-11-12-30-16-27/h2-6,13,19-20,23H,7-12,14-16H2,1H3

> <Parent_SMILES>
Cc1cc(N2CCN([C@H]3CN[C@H](C(=O)N4CCSC4)C3)CC2)n(-c2ccccc2)n1

$$$$
Molecule 58_metabolite 42
  CDK     0516241031

 58 63  0  0  0  0  0  0  0  0999 V2000
   -3.3148    8.6723    0.0000 C   0  0  0  0  0  0  0  0  0  0  0  0
   -4.8062    8.8322    0.0000 H   0  0  0  0  0  0  0  0  0  0  0  0
   -3.4163   10.1689    0.0000 H   0  0  0  0  0  0  0  0  0  0  0  0
   -1.8586    9.0322    0.0000 H   0  0  0  0  0  0  0  0  0  0  0  0
   -2.7075    7.3008    0.0000 C   0  0  0  0  0  0  0  0  0  0  0  0
   -3.4655    6.0040    0.0000 N   0  0  0  0  0  0  0  0  0  0  0  0
   -2.4534    4.8941    0.0000 N   0  0  0  0  0  0  0  0  0  0  0  0
   -3.0113    3.5017    0.0000 C   0  0  0  0  0  0  0  0  0  0  0  0
   -2.0834    2.3221    0.0000 C   0  0  0  0  0  0  0  0  0  0  0  0
   -0.5987    2.5354    0.0000 H   0  0  0  0  0  0  0  0  0  0  0  0
   -2.6413    0.9296    0.0000 C   0  0  0  0  0  0  0  0  0  0  0  0
   -1.7145   -0.2498    0.0000 H   0  0  0  0  0  0  0  0  0  0  0  0
   -4.1269    0.7169    0.0000 C   0  0  0  0  0  0  0  0  0  0  0  0
   -4.6848   -0.6755    0.0000 H   0  0  0  0  0  0  0  0  0  0  0  0
   -5.0548    1.8965    0.0000 C   0  0  0  0  0  0  0  0  0  0  0  0
   -6.5395    1.6832    0.0000 H   0  0  0  0  0  0  0  0  0  0  0  0
   -4.4970    3.2890    0.0000 C   0  0  0  0  0  0  0  0  0  0  0  0
   -5.4237    4.4684    0.0000 H   0  0  0  0  0  0  0  0  0  0  0  0
   -1.0896    5.5006    0.0000 C   0  0  0  0  0  0  0  0  0  0  0  0
   -1.2470    6.9924    0.0000 C   0  0  0  0  0  0  0  0  0  0  0  0
   -0.1332    7.9970    0.0000 H   0  0  0  0  0  0  0  0  0  0  0  0
    0.6252    4.5106    0.0000 N   0  0  0  0  0  0  0  0  0  0  0  0
    1.9250    5.2609    0.0000 C   0  0  0  0  0  0  0  0  0  0  0  0
    0.9608    6.4099    0.0000 H   0  0  0  0  0  0  0  0  0  0  0  0
    2.8889    6.4102    0.0000 H   0  0  0  0  0  0  0  0  0  0  0  0
    3.2252    4.5111    0.0000 C   0  0  0  0  0  0  0  0  0  0  0  0
    3.7377    5.9208    0.0000 H   0  0  0  0  0  0  0  0  0  0  0  0
    4.7024    4.2510    0.0000 H   0  0  0  0  0  0  0  0  0  0  0  0
    3.2254    3.0111    0.0000 N   0  0  0  0  0  0  0  0  0  0  0  0
    1.9255    2.2609    0.0000 C   0  0  0  0  0  0  0  0  0  0  0  0
    2.8898    1.1118    0.0000 H   0  0  0  0  0  0  0  0  0  0  0  0
    0.9616    1.1115    0.0000 H   0  0  0  0  0  0  0  0  0  0  0  0
    0.6254    3.0106    0.0000 C   0  0  0  0  0  0  0  0  0  0  0  0
    0.1129    1.6009    0.0000 H   0  0  0  0  0  0  0  0  0  0  0  0
   -0.8519    3.2707    0.0000 H   0  0  0  0  0  0  0  0  0  0  0  0
    5.7715    1.5411    0.0000 C   0  0  2  0  0  0  0  0  0  0  0  0
    4.8898    0.3275    0.0000 H   0  0  0  0  0  0  0  0  0  0  0  0
    6.8862    0.5374    0.0000 C   0  0  0  0  0  0  0  0  0  0  0  0
    5.7715   -0.4663    0.0000 H   0  0  0  0  0  0  0  0  0  0  0  0
    7.7679   -0.6762    0.0000 H   0  0  0  0  0  0  0  0  0  0  0  0
    8.1853    1.2874    0.0000 C   0  0  1  0  0  0  0  0  0  0  0  0
    8.4971   -0.1799    0.0000 H   0  0  0  0  0  0  0  0  0  0  0  0
    9.6770    1.1306    0.0000 C   0  0  0  0  0  0  0  0  0  0  0  0
   10.4270   -0.1685    0.0000 O   0  0  0  0  0  0  0  0  0  0  0  0
   10.2872    2.5009    0.0000 N   0  0  0  0  0  0  0  0  0  0  0  0
   11.5862    3.2509    0.0000 C   0  0  0  0  0  0  0  0  0  0  0  0
   12.1963    1.8806    0.0000 H   0  0  0  0  0  0  0  0  0  0  0  0
   13.0128    3.7144    0.0000 H   0  0  0  0  0  0  0  0  0  0  0  0
   11.2743    4.7181    0.0000 C   0  0  0  0  0  0  0  0  0  0  0  0
   12.7661    4.8749    0.0000 H   0  0  0  0  0  0  0  0  0  0  0  0
   11.2743    6.2181    0.0000 H   0  0  0  0  0  0  0  0  0  0  0  0
    9.7825    4.8749    0.0000 S   0  0  0  0  0  0  0  0  0  0  0  0
    9.1724    3.5046    0.0000 C   0  0  0  0  0  0  0  0  0  0  0  0
    8.0577    4.5083    0.0000 H   0  0  0  0  0  0  0  0  0  0  0  0
    7.8734    2.7546    0.0000 N   0  0  0  0  0  0  0  0  0  0  0  0
    6.3816    2.9114    0.0000 C   0  0  0  0  0  0  0  0  0  0  0  0
    6.6935    4.3786    0.0000 H   0  0  0  0  0  0  0  0  0  0  0  0
    4.9550    3.3749    0.0000 H   0  0  0  0  0  0  0  0  0  0  0  0
  1  2  1  0  0  0  0 
  1  3  1  0  0  0  0 
  1  4  1  0  0  0  0 
  1  5  1  0  0  0  0 
  5  6  2  0  0  0  0 
  6  7  1  0  0  0  0 
  7  8  1  0  0  0  0 
  8  9  2  0  0  0  0 
  9 10  1  0  0  0  0 
  9 11  1  0  0  0  0 
 11 12  1  0  0  0  0 
 11 13  2  0  0  0  0 
 13 14  1  0  0  0  0 
 13 15  1  0  0  0  0 
 15 16  1  0  0  0  0 
 15 17  2  0  0  0  0 
  8 17  1  0  0  0  0 
 17 18  1  0  0  0  0 
  7 19  1  0  0  0  0 
 19 20  2  0  0  0  0 
  5 20  1  0  0  0  0 
 20 21  1  0  0  0  0 
 19 22  1  0  0  0  0 
 22 23  1  0  0  0  0 
 23 24  1  0  0  0  0 
 23 25  1  0  0  0  0 
 23 26  1  0  0  0  0 
 26 27  1  0  0  0  0 
 26 28  1  0  0  0  0 
 26 29  1  0  0  0  0 
 29 30  1  0  0  0  0 
 30 31  1  0  0  0  0 
 30 32  1  0  0  0  0 
 30 33  1  0  0  0  0 
 22 33  1  0  0  0  0 
 33 34  1  0  0  0  0 
 33 35  1  0  0  0  0 
 36 29  1  1  0  0  0 
 36 37  1  6  0  0  0 
 36 38  1  0  0  0  0 
 38 39  1  0  0  0  0 
 38 40  1  0  0  0  0 
 38 41  1  0  0  0  0 
 41 42  1  1  0  0  0 
 41 43  1  0  0  0  0 
 43 44  2  0  0  0  0 
 43 45  1  0  0  0  0 
 45 46  1  0  0  0  0 
 46 47  1  0  0  0  0 
 46 48  1  0  0  0  0 
 46 49  1  0  0  0  0 
 49 50  1  0  0  0  0 
 49 51  1  0  0  0  0 
 49 52  1  0  0  0  0 
 52 53  1  0  0  0  0 
 45 53  1  0  0  0  0 
 53 54  1  0  0  0  0 
 53 55  1  0  0  0  0 
 41 55  1  0  0  0  0 
 55 56  1  0  0  0  0 
 36 56  1  0  0  0  0 
 56 57  1  0  0  0  0 
 56 58  1  0  0  0  0 
M  END
> <Rank>
41

> <Priority_score>
0.0664

> <Reaction_type>
cyclization to 5-membered NCN ring

> <Parent_ID>
58

> <Parent_InChI>
InChI=1S/C22H30N6OS/c1-17-13-21(28(24-17)18-5-3-2-4-6-18)26-9-7-25(8-10-26)19-14-20(23-15-19)22(29)27-11-12-30-16-27/h2-6,13,19-20,23H,7-12,14-16H2,1H3

> <Parent_SMILES>
Cc1cc(N2CCN([C@H]3CN[C@H](C(=O)N4CCSC4)C3)CC2)n(-c2ccccc2)n1

$$$$
Molecule 58_metabolite 43
  CDK     0516241031

 46 49  0  0  0  0  0  0  0  0999 V2000
    7.8654   -0.3859    0.0000 C   0  0  0  0  0  0  0  0  0  0  0  0
    9.2931   -0.8459    0.0000 H   0  0  0  0  0  0  0  0  0  0  0  0
    8.5663    0.9403    0.0000 H   0  0  0  0  0  0  0  0  0  0  0  0
    6.6811    0.5346    0.0000 H   0  0  0  0  0  0  0  0  0  0  0  0
    6.7532   -1.3924    0.0000 C   0  0  0  0  0  0  0  0  0  0  0  0
    6.9189   -2.8853    0.0000 N   0  0  0  0  0  0  0  0  0  0  0  0
    5.5432   -3.4882    0.0000 N   0  0  0  0  0  0  0  0  0  0  0  0
    5.1267   -5.4239    0.0000 C   0  0  0  0  0  0  0  0  0  0  0  0
    3.6980   -5.8836    0.0000 C   0  0  0  0  0  0  0  0  0  0  0  0
    2.5860   -4.8770    0.0000 H   0  0  0  0  0  0  0  0  0  0  0  0
    3.3825   -7.3501    0.0000 C   0  0  0  0  0  0  0  0  0  0  0  0
    1.9548   -7.8103    0.0000 H   0  0  0  0  0  0  0  0  0  0  0  0
    4.4957   -8.3567    0.0000 C   0  0  0  0  0  0  0  0  0  0  0  0
    4.1801   -9.8232    0.0000 H   0  0  0  0  0  0  0  0  0  0  0  0
    5.9243   -7.8970    0.0000 C   0  0  0  0  0  0  0  0  0  0  0  0
    7.0364   -8.9036    0.0000 H   0  0  0  0  0  0  0  0  0  0  0  0
    6.2399   -6.4305    0.0000 C   0  0  0  0  0  0  0  0  0  0  0  0
    7.6675   -5.9703    0.0000 H   0  0  0  0  0  0  0  0  0  0  0  0
    4.5434   -2.3798    0.0000 C   0  0  0  0  0  0  0  0  0  0  0  0
    5.2934   -1.0807    0.0000 C   0  0  0  0  0  0  0  0  0  0  0  0
    4.6839    0.2898    0.0000 H   0  0  0  0  0  0  0  0  0  0  0  0
    2.5744   -2.5876    0.0000 N   0  0  0  0  0  0  0  0  0  0  0  0
    1.6915   -1.3739    0.0000 C   0  0  0  0  0  0  0  0  0  0  0  0
    3.0394   -0.7159    0.0000 H   0  0  0  0  0  0  0  0  0  0  0  0
    1.2778    0.0679    0.0000 H   0  0  0  0  0  0  0  0  0  0  0  0
    0.1988   -1.5308    0.0000 C   0  0  0  0  0  0  0  0  0  0  0  0
    0.3034   -0.0344    0.0000 H   0  0  0  0  0  0  0  0  0  0  0  0
   -1.2567   -1.1681    0.0000 H   0  0  0  0  0  0  0  0  0  0  0  0
   -0.4109   -2.9013    0.0000 N   0  0  0  0  0  0  0  0  0  0  0  0
    0.4720   -4.1149    0.0000 C   0  0  0  0  0  0  0  0  0  0  0  0
   -0.8759   -4.7730    0.0000 H   0  0  0  0  0  0  0  0  0  0  0  0
    0.8857   -5.5567    0.0000 H   0  0  0  0  0  0  0  0  0  0  0  0
    1.9646   -3.9581    0.0000 C   0  0  0  0  0  0  0  0  0  0  0  0
    1.8601   -5.4545    0.0000 H   0  0  0  0  0  0  0  0  0  0  0  0
    3.4201   -4.3207    0.0000 H   0  0  0  0  0  0  0  0  0  0  0  0
   -3.3346   -3.2099    0.0000 C   0  0  2  0  0  0  0  0  0  0  0  0
   -3.3357   -1.7099    0.0000 H   0  0  0  0  0  0  0  0  0  0  0  0
   -4.8266   -3.0546    0.0000 C   0  0  0  0  0  0  0  0  0  0  0  0
   -5.5785   -1.7567    0.0000 H   0  0  0  0  0  0  0  0  0  0  0  0
   -5.4311   -4.4194    0.0000 C   0  0  0  0  0  0  0  0  0  0  0  0
   -6.8988   -4.7291    0.0000 H   0  0  0  0  0  0  0  0  0  0  0  0
   -4.3197   -5.4298    0.0000 N   0  0  0  0  0  0  0  0  0  0  0  0
   -4.4750   -6.9218    0.0000 H   0  0  0  0  0  0  0  0  0  0  0  0
   -3.0241   -4.6698    0.0000 C   0  0  0  0  0  0  0  0  0  0  0  0
   -2.4076   -6.0373    0.0000 H   0  0  0  0  0  0  0  0  0  0  0  0
   -1.5986   -4.2029    0.0000 H   0  0  0  0  0  0  0  0  0  0  0  0
  1  2  1  0  0  0  0 
  1  3  1  0  0  0  0 
  1  4  1  0  0  0  0 
  1  5  1  0  0  0  0 
  5  6  2  0  0  0  0 
  6  7  1  0  0  0  0 
  7  8  1  0  0  0  0 
  8  9  2  0  0  0  0 
  9 10  1  0  0  0  0 
  9 11  1  0  0  0  0 
 11 12  1  0  0  0  0 
 11 13  2  0  0  0  0 
 13 14  1  0  0  0  0 
 13 15  1  0  0  0  0 
 15 16  1  0  0  0  0 
 15 17  2  0  0  0  0 
  8 17  1  0  0  0  0 
 17 18  1  0  0  0  0 
  7 19  1  0  0  0  0 
 19 20  2  0  0  0  0 
  5 20  1  0  0  0  0 
 20 21  1  0  0  0  0 
 19 22  1  0  0  0  0 
 22 23  1  0  0  0  0 
 23 24  1  0  0  0  0 
 23 25  1  0  0  0  0 
 23 26  1  0  0  0  0 
 26 27  1  0  0  0  0 
 26 28  1  0  0  0  0 
 26 29  1  0  0  0  0 
 29 30  1  0  0  0  0 
 30 31  1  0  0  0  0 
 30 32  1  0  0  0  0 
 30 33  1  0  0  0  0 
 22 33  1  0  0  0  0 
 33 34  1  0  0  0  0 
 33 35  1  0  0  0  0 
 36 29  1  1  0  0  0 
 36 37  1  6  0  0  0 
 36 38  1  0  0  0  0 
 38 39  1  0  0  0  0 
 38 40  2  0  0  0  0 
 40 41  1  0  0  0  0 
 40 42  1  0  0  0  0 
 42 43  1  0  0  0  0 
 42 44  1  0  0  0  0 
 36 44  1  0  0  0  0 
 44 45  1  0  0  0  0 
 44 46  1  0  0  0  0 
M  END
> <Rank>
41

> <Priority_score>
0.0664

> <Reaction_type>
deformylation

> <Parent_ID>
58

> <Parent_InChI>
InChI=1S/C22H30N6OS/c1-17-13-21(28(24-17)18-5-3-2-4-6-18)26-9-7-25(8-10-26)19-14-20(23-15-19)22(29)27-11-12-30-16-27/h2-6,13,19-20,23H,7-12,14-16H2,1H3

> <Parent_SMILES>
Cc1cc(N2CCN([C@H]3CN[C@H](C(=O)N4CCSC4)C3)CC2)n(-c2ccccc2)n1

$$$$
Molecule 58_metabolite 44
  CDK     0516241031

 14 14  0  0  0  0  0  0  0  0999 V2000
    1.1243    0.3952    0.0000 C   0  0  0  0  0  0  0  0  0  0  0  0
    0.2430   -0.8186    0.0000 H   0  0  0  0  0  0  0  0  0  0  0  0
    2.2397   -0.6079    0.0000 H   0  0  0  0  0  0  0  0  0  0  0  0
    2.2327    1.3949    0.0000 C   0  0  0  0  0  0  0  0  0  0  0  0
    3.1127    0.1802    0.0000 H   0  0  0  0  0  0  0  0  0  0  0  0
    3.5345    2.1402    0.0000 H   0  0  0  0  0  0  0  0  0  0  0  0
    1.6298    2.7707    0.0000 S   0  0  0  0  0  0  0  0  0  0  0  0
    0.1369    2.6049    0.0000 C   0  0  0  0  0  0  0  0  0  0  0  0
    0.1315    4.1049    0.0000 H   0  0  0  0  0  0  0  0  0  0  0  0
   -1.3551    2.7597    0.0000 H   0  0  0  0  0  0  0  0  0  0  0  0
   -0.1747    1.1452    0.0000 N   0  0  0  0  0  0  0  0  0  0  0  0
   -1.5453    0.5357    0.0000 C   0  0  0  0  0  0  0  0  0  0  0  0
   -2.7584    1.4179    0.0000 H   0  0  0  0  0  0  0  0  0  0  0  0
   -1.7027   -0.9560    0.0000 O   0  0  0  0  0  0  0  0  0  0  0  0
  1  2  1  0  0  0  0 
  1  3  1  0  0  0  0 
  1  4  1  0  0  0  0 
  4  5  1  0  0  0  0 
  4  6  1  0  0  0  0 
  4  7  1  0  0  0  0 
  7  8  1  0  0  0  0 
  8  9  1  0  0  0  0 
  8 10  1  0  0  0  0 
  8 11  1  0  0  0  0 
  1 11  1  0  0  0  0 
 11 12  1  0  0  0  0 
 12 13  1  0  0  0  0 
 12 14  2  0  0  0  0 
M  END
> <Rank>
41

> <Priority_score>
0.0664

> <Reaction_type>
deformylation

> <Parent_ID>
58

> <Parent_InChI>
InChI=1S/C22H30N6OS/c1-17-13-21(28(24-17)18-5-3-2-4-6-18)26-9-7-25(8-10-26)19-14-20(23-15-19)22(29)27-11-12-30-16-27/h2-6,13,19-20,23H,7-12,14-16H2,1H3

> <Parent_SMILES>
Cc1cc(N2CCN([C@H]3CN[C@H](C(=O)N4CCSC4)C3)CC2)n(-c2ccccc2)n1

$$$$
Molecule 58_metabolite 45
  CDK     0516241031

 61 65  0  0  0  0  0  0  0  0999 V2000
   12.3696   -2.0178    0.0000 C   0  0  0  0  0  0  0  0  0  0  0  0
   13.7974   -2.4778    0.0000 H   0  0  0  0  0  0  0  0  0  0  0  0
   13.0705   -0.6917    0.0000 H   0  0  0  0  0  0  0  0  0  0  0  0
   11.1853   -1.0973    0.0000 H   0  0  0  0  0  0  0  0  0  0  0  0
   11.2574   -3.0243    0.0000 C   0  0  0  0  0  0  0  0  0  0  0  0
   11.4232   -4.5172    0.0000 N   0  0  0  0  0  0  0  0  0  0  0  0
   10.0474   -5.1201    0.0000 N   0  0  0  0  0  0  0  0  0  0  0  0
    9.6309   -7.0558    0.0000 C   0  0  0  0  0  0  0  0  0  0  0  0
    8.2022   -7.5155    0.0000 C   0  0  0  0  0  0  0  0  0  0  0  0
    7.0902   -6.5089    0.0000 H   0  0  0  0  0  0  0  0  0  0  0  0
    7.8867   -8.9820    0.0000 C   0  0  0  0  0  0  0  0  0  0  0  0
    6.4591   -9.4422    0.0000 H   0  0  0  0  0  0  0  0  0  0  0  0
    8.9999   -9.9887    0.0000 C   0  0  0  0  0  0  0  0  0  0  0  0
    8.6844  -11.4551    0.0000 H   0  0  0  0  0  0  0  0  0  0  0  0
   10.4286   -9.5289    0.0000 C   0  0  0  0  0  0  0  0  0  0  0  0
   11.5406  -10.5355    0.0000 H   0  0  0  0  0  0  0  0  0  0  0  0
   10.7441   -8.0624    0.0000 C   0  0  0  0  0  0  0  0  0  0  0  0
   12.1717   -7.6022    0.0000 H   0  0  0  0  0  0  0  0  0  0  0  0
    9.0477   -4.0117    0.0000 C   0  0  0  0  0  0  0  0  0  0  0  0
    9.7977   -2.7127    0.0000 C   0  0  0  0  0  0  0  0  0  0  0  0
    9.1882   -1.3421    0.0000 H   0  0  0  0  0  0  0  0  0  0  0  0
    7.0786   -4.2195    0.0000 N   0  0  0  0  0  0  0  0  0  0  0  0
    6.1957   -3.0059    0.0000 C   0  0  0  0  0  0  0  0  0  0  0  0
    7.5436   -2.3478    0.0000 H   0  0  0  0  0  0  0  0  0  0  0  0
    5.7820   -1.5641    0.0000 H   0  0  0  0  0  0  0  0  0  0  0  0
    4.7031   -3.1627    0.0000 C   0  0  0  0  0  0  0  0  0  0  0  0
    4.8076   -1.6663    0.0000 H   0  0  0  0  0  0  0  0  0  0  0  0
    3.2476   -2.8001    0.0000 H   0  0  0  0  0  0  0  0  0  0  0  0
    4.0934   -4.5332    0.0000 N   0  0  0  0  0  0  0  0  0  0  0  0
    4.9763   -5.7469    0.0000 C   0  0  0  0  0  0  0  0  0  0  0  0
    3.6283   -6.4049    0.0000 H   0  0  0  0  0  0  0  0  0  0  0  0
    5.3900   -7.1887    0.0000 H   0  0  0  0  0  0  0  0  0  0  0  0
    6.4689   -5.5900    0.0000 C   0  0  0  0  0  0  0  0  0  0  0  0
    6.3643   -7.0864    0.0000 H   0  0  0  0  0  0  0  0  0  0  0  0
    7.9244   -5.9527    0.0000 H   0  0  0  0  0  0  0  0  0  0  0  0
    1.1696   -4.8418    0.0000 C   0  0  2  0  0  0  0  0  0  0  0  0
    1.1685   -3.3418    0.0000 H   0  0  0  0  0  0  0  0  0  0  0  0
   -0.3223   -4.6865    0.0000 C   0  0  0  0  0  0  0  0  0  0  0  0
   -0.0124   -3.2189    0.0000 H   0  0  0  0  0  0  0  0  0  0  0  0
   -1.7497   -4.2253    0.0000 H   0  0  0  0  0  0  0  0  0  0  0  0
   -0.9269   -6.0513    0.0000 C   0  0  1  0  0  0  0  0  0  0  0  0
   -2.2256   -5.3009    0.0000 H   0  0  0  0  0  0  0  0  0  0  0  0
   -1.8117   -7.2625    0.0000 C   0  0  0  0  0  0  0  0  0  0  0  0
   -1.2051   -8.6344    0.0000 O   0  0  0  0  0  0  0  0  0  0  0  0
   -3.7803   -7.0505    0.0000 N   0  0  0  0  0  0  0  0  0  0  0  0
   -4.5275   -5.7498    0.0000 C   0  0  0  0  0  0  0  0  0  0  0  0
   -3.1560   -5.1423    0.0000 H   0  0  0  0  0  0  0  0  0  0  0  0
   -4.9888   -4.3225    0.0000 H   0  0  0  0  0  0  0  0  0  0  0  0
   -5.9879   -6.0583    0.0000 C   0  0  0  0  0  0  0  0  0  0  0  0
   -6.1395   -4.5660    0.0000 H   0  0  0  0  0  0  0  0  0  0  0  0
   -7.4879   -6.0497    0.0000 O   0  0  0  0  0  0  0  0  0  0  0  0
   -8.2453   -7.3444    0.0000 H   0  0  0  0  0  0  0  0  0  0  0  0
   -6.1569   -7.5509    0.0000 S   0  0  0  0  0  0  0  0  0  0  0  0
   -4.7824   -8.1567    0.0000 C   0  0  0  0  0  0  0  0  0  0  0  0
   -5.5305   -9.4569    0.0000 H   0  0  0  0  0  0  0  0  0  0  0  0
   -3.5696   -9.0393    0.0000 H   0  0  0  0  0  0  0  0  0  0  0  0
    0.1845   -7.0618    0.0000 N   0  0  0  0  0  0  0  0  0  0  0  0
    0.0293   -8.5537    0.0000 H   0  0  0  0  0  0  0  0  0  0  0  0
    1.4802   -6.3018    0.0000 C   0  0  0  0  0  0  0  0  0  0  0  0
    2.0966   -7.6692    0.0000 H   0  0  0  0  0  0  0  0  0  0  0  0
    2.9056   -5.8348    0.0000 H   0  0  0  0  0  0  0  0  0  0  0  0
  1  2  1  0  0  0  0 
  1  3  1  0  0  0  0 
  1  4  1  0  0  0  0 
  1  5  1  0  0  0  0 
  5  6  2  0  0  0  0 
  6  7  1  0  0  0  0 
  7  8  1  0  0  0  0 
  8  9  2  0  0  0  0 
  9 10  1  0  0  0  0 
  9 11  1  0  0  0  0 
 11 12  1  0  0  0  0 
 11 13  2  0  0  0  0 
 13 14  1  0  0  0  0 
 13 15  1  0  0  0  0 
 15 16  1  0  0  0  0 
 15 17  2  0  0  0  0 
  8 17  1  0  0  0  0 
 17 18  1  0  0  0  0 
  7 19  1  0  0  0  0 
 19 20  2  0  0  0  0 
  5 20  1  0  0  0  0 
 20 21  1  0  0  0  0 
 19 22  1  0  0  0  0 
 22 23  1  0  0  0  0 
 23 24  1  0  0  0  0 
 23 25  1  0  0  0  0 
 23 26  1  0  0  0  0 
 26 27  1  0  0  0  0 
 26 28  1  0  0  0  0 
 26 29  1  0  0  0  0 
 29 30  1  0  0  0  0 
 30 31  1  0  0  0  0 
 30 32  1  0  0  0  0 
 30 33  1  0  0  0  0 
 22 33  1  0  0  0  0 
 33 34  1  0  0  0  0 
 33 35  1  0  0  0  0 
 36 29  1  1  0  0  0 
 36 37  1  6  0  0  0 
 36 38  1  0  0  0  0 
 38 39  1  0  0  0  0 
 38 40  1  0  0  0  0 
 38 41  1  0  0  0  0 
 41 42  1  1  0  0  0 
 41 43  1  6  0  0  0 
 43 44  2  0  0  0  0 
 43 45  1  0  0  0  0 
 45 46  1  0  0  0  0 
 46 47  1  0  0  0  0 
 46 48  1  0  0  0  0 
 46 49  1  0  0  0  0 
 49 50  1  0  0  0  0 
 49 51  1  0  0  0  0 
 51 52  1  0  0  0  0 
 49 53  1  0  0  0  0 
 53 54  1  0  0  0  0 
 45 54  1  0  0  0  0 
 54 55  1  0  0  0  0 
 54 56  1  0  0  0  0 
 41 57  1  0  0  0  0 
 57 58  1  0  0  0  0 
 57 59  1  0  0  0  0 
 36 59  1  0  0  0  0 
 59 60  1  0  0  0  0 
 59 61  1  0  0  0  0 
M  END
> <Rank>
45

> <Priority_score>
0.052

> <Reaction_type>
aliphatic hydroxylation

> <Parent_ID>
58

> <Parent_InChI>
InChI=1S/C22H30N6OS/c1-17-13-21(28(24-17)18-5-3-2-4-6-18)26-9-7-25(8-10-26)19-14-20(23-15-19)22(29)27-11-12-30-16-27/h2-6,13,19-20,23H,7-12,14-16H2,1H3

> <Parent_SMILES>
Cc1cc(N2CCN([C@H]3CN[C@H](C(=O)N4CCSC4)C3)CC2)n(-c2ccccc2)n1

$$$$
Molecule 58_metabolite 46
  CDK     0516241031

 61 64  0  0  0  0  0  0  0  0999 V2000
   -0.1767  -10.7335    0.0000 C   0  0  0  0  0  0  0  0  0  0  0  0
   -1.2889  -11.7400    0.0000 H   0  0  0  0  0  0  0  0  0  0  0  0
    0.6214  -12.0036    0.0000 H   0  0  0  0  0  0  0  0  0  0  0  0
    1.2127  -10.1682    0.0000 H   0  0  0  0  0  0  0  0  0  0  0  0
   -0.4922   -9.2671    0.0000 C   0  0  0  0  0  0  0  0  0  0  0  0
   -1.8680   -8.6642    0.0000 N   0  0  0  0  0  0  0  0  0  0  0  0
   -1.7022   -7.1713    0.0000 N   0  0  0  0  0  0  0  0  0  0  0  0
   -3.1703   -5.8428    0.0000 C   0  0  0  0  0  0  0  0  0  0  0  0
   -2.8542   -4.3756    0.0000 C   0  0  0  0  0  0  0  0  0  0  0  0
   -1.4263   -3.9159    0.0000 H   0  0  0  0  0  0  0  0  0  0  0  0
   -3.9664   -3.3691    0.0000 C   0  0  0  0  0  0  0  0  0  0  0  0
   -3.6511   -1.9027    0.0000 H   0  0  0  0  0  0  0  0  0  0  0  0
   -5.3947   -3.8298    0.0000 C   0  0  0  0  0  0  0  0  0  0  0  0
   -6.5070   -2.8234    0.0000 H   0  0  0  0  0  0  0  0  0  0  0  0
   -5.7109   -5.2970    0.0000 C   0  0  0  0  0  0  0  0  0  0  0  0
   -7.1387   -5.7567    0.0000 H   0  0  0  0  0  0  0  0  0  0  0  0
   -4.5987   -6.3035    0.0000 C   0  0  0  0  0  0  0  0  0  0  0  0
   -4.9140   -7.7699    0.0000 H   0  0  0  0  0  0  0  0  0  0  0  0
   -0.2424   -6.8597    0.0000 C   0  0  0  0  0  0  0  0  0  0  0  0
    0.5076   -8.1587    0.0000 C   0  0  0  0  0  0  0  0  0  0  0  0
    1.9993   -8.3162    0.0000 H   0  0  0  0  0  0  0  0  0  0  0  0
    0.5621   -5.0505    0.0000 N   0  0  0  0  0  0  0  0  0  0  0  0
    2.0546   -4.8927    0.0000 C   0  0  0  0  0  0  0  0  0  0  0  0
    1.9506   -6.3891    0.0000 H   0  0  0  0  0  0  0  0  0  0  0  0
    3.5101   -5.2554    0.0000 H   0  0  0  0  0  0  0  0  0  0  0  0
    2.6651   -3.5217    0.0000 C   0  0  0  0  0  0  0  0  0  0  0  0
    3.9087   -4.3604    0.0000 H   0  0  0  0  0  0  0  0  0  0  0  0
    3.7069   -2.4425    0.0000 H   0  0  0  0  0  0  0  0  0  0  0  0
    1.7831   -2.3084    0.0000 N   0  0  0  0  0  0  0  0  0  0  0  0
    0.2906   -2.4662    0.0000 C   0  0  0  0  0  0  0  0  0  0  0  0
    0.3946   -0.9698    0.0000 H   0  0  0  0  0  0  0  0  0  0  0  0
   -1.1649   -2.1035    0.0000 H   0  0  0  0  0  0  0  0  0  0  0  0
   -0.3199   -3.8372    0.0000 C   0  0  0  0  0  0  0  0  0  0  0  0
   -1.5635   -2.9985    0.0000 H   0  0  0  0  0  0  0  0  0  0  0  0
   -1.3617   -4.9164    0.0000 H   0  0  0  0  0  0  0  0  0  0  0  0
    2.5876   -0.4992    0.0000 C   0  0  2  0  0  0  0  0  0  0  0  0
    2.6916    0.9972    0.0000 H   0  0  0  0  0  0  0  0  0  0  0  0
    4.0794   -0.3418    0.0000 C   0  0  0  0  0  0  0  0  0  0  0  0
    3.6653    1.0999    0.0000 H   0  0  0  0  0  0  0  0  0  0  0  0
    5.4273    0.3164    0.0000 H   0  0  0  0  0  0  0  0  0  0  0  0
    4.9616   -1.5549    0.0000 C   0  0  0  0  0  0  0  0  0  0  0  0
    4.3521   -2.9255    0.0000 O   0  0  0  0  0  0  0  0  0  0  0  0
    6.4533   -1.3974    0.0000 C   0  0  0  0  0  0  0  0  0  0  0  0
    7.0628   -0.0269    0.0000 O   0  0  0  0  0  0  0  0  0  0  0  0
    7.3355   -2.6106    0.0000 N   0  0  0  0  0  0  0  0  0  0  0  0
    8.8355   -2.6106    0.0000 C   0  0  0  0  0  0  0  0  0  0  0  0
    8.6791   -1.1188    0.0000 H   0  0  0  0  0  0  0  0  0  0  0  0
   10.3029   -2.2996    0.0000 H   0  0  0  0  0  0  0  0  0  0  0  0
    9.2955   -4.0306    0.0000 C   0  0  0  0  0  0  0  0  0  0  0  0
   10.6650   -3.4186    0.0000 H   0  0  0  0  0  0  0  0  0  0  0  0
   10.0502   -5.3269    0.0000 H   0  0  0  0  0  0  0  0  0  0  0  0
    8.0855   -4.9206    0.0000 S   0  0  0  0  0  0  0  0  0  0  0  0
    6.8755   -4.0306    0.0000 C   0  0  0  0  0  0  0  0  0  0  0  0
    6.1208   -5.3269    0.0000 H   0  0  0  0  0  0  0  0  0  0  0  0
    5.5060   -3.4186    0.0000 H   0  0  0  0  0  0  0  0  0  0  0  0
    1.1320   -0.1370    0.0000 C   0  0  0  0  0  0  0  0  0  0  0  0
   -0.3597   -0.2944    0.0000 H   0  0  0  0  0  0  0  0  0  0  0  0
    1.0281   -1.6334    0.0000 H   0  0  0  0  0  0  0  0  0  0  0  0
    0.7179    1.3047    0.0000 N   0  0  0  0  0  0  0  0  0  0  0  0
    1.7595    2.3842    0.0000 H   0  0  0  0  0  0  0  0  0  0  0  0
   -0.7377    1.6670    0.0000 H   0  0  0  0  0  0  0  0  0  0  0  0
  1  2  1  0  0  0  0 
  1  3  1  0  0  0  0 
  1  4  1  0  0  0  0 
  1  5  1  0  0  0  0 
  5  6  2  0  0  0  0 
  6  7  1  0  0  0  0 
  7  8  1  0  0  0  0 
  8  9  2  0  0  0  0 
  9 10  1  0  0  0  0 
  9 11  1  0  0  0  0 
 11 12  1  0  0  0  0 
 11 13  2  0  0  0  0 
 13 14  1  0  0  0  0 
 13 15  1  0  0  0  0 
 15 16  1  0  0  0  0 
 15 17  2  0  0  0  0 
  8 17  1  0  0  0  0 
 17 18  1  0  0  0  0 
  7 19  1  0  0  0  0 
 19 20  2  0  0  0  0 
  5 20  1  0  0  0  0 
 20 21  1  0  0  0  0 
 19 22  1  0  0  0  0 
 22 23  1  0  0  0  0 
 23 24  1  0  0  0  0 
 23 25  1  0  0  0  0 
 23 26  1  0  0  0  0 
 26 27  1  0  0  0  0 
 26 28  1  0  0  0  0 
 26 29  1  0  0  0  0 
 29 30  1  0  0  0  0 
 30 31  1  0  0  0  0 
 30 32  1  0  0  0  0 
 30 33  1  0  0  0  0 
 22 33  1  0  0  0  0 
 33 34  1  0  0  0  0 
 33 35  1  0  0  0  0 
 29 36  1  0  0  0  0 
 36 37  1  6  0  0  0 
 36 38  1  1  0  0  0 
 38 39  1  0  0  0  0 
 38 40  1  0  0  0  0 
 38 41  1  0  0  0  0 
 41 42  2  0  0  0  0 
 41 43  1  0  0  0  0 
 43 44  2  0  0  0  0 
 43 45  1  0  0  0  0 
 45 46  1  0  0  0  0 
 46 47  1  0  0  0  0 
 46 48  1  0  0  0  0 
 46 49  1  0  0  0  0 
 49 50  1  0  0  0  0 
 49 51  1  0  0  0  0 
 49 52  1  0  0  0  0 
 52 53  1  0  0  0  0 
 45 53  1  0  0  0  0 
 53 54  1  0  0  0  0 
 53 55  1  0  0  0  0 
 36 56  1  0  0  0  0 
 56 57  1  0  0  0  0 
 56 58  1  0  0  0  0 
 56 59  1  0  0  0  0 
 59 60  1  0  0  0  0 
 59 61  1  0  0  0  0 
M  END
> <Rank>
45

> <Priority_score>
0.052

> <Reaction_type>
N-dealkylation

> <Parent_ID>
58

> <Parent_InChI>
InChI=1S/C22H30N6OS/c1-17-13-21(28(24-17)18-5-3-2-4-6-18)26-9-7-25(8-10-26)19-14-20(23-15-19)22(29)27-11-12-30-16-27/h2-6,13,19-20,23H,7-12,14-16H2,1H3

> <Parent_SMILES>
Cc1cc(N2CCN([C@H]3CN[C@H](C(=O)N4CCSC4)C3)CC2)n(-c2ccccc2)n1

$$$$
Molecule 58_metabolite 47
  CDK     0516241031

 58 62  0  0  0  0  0  0  0  0999 V2000
   12.1006   -1.8880    0.0000 C   0  0  0  0  0  0  0  0  0  0  0  0
   13.5283   -2.3479    0.0000 H   0  0  0  0  0  0  0  0  0  0  0  0
   12.8015   -0.5618    0.0000 H   0  0  0  0  0  0  0  0  0  0  0  0
   10.9162   -0.9674    0.0000 H   0  0  0  0  0  0  0  0  0  0  0  0
   10.9883   -2.8944    0.0000 C   0  0  0  0  0  0  0  0  0  0  0  0
   11.1541   -4.3873    0.0000 N   0  0  0  0  0  0  0  0  0  0  0  0
    9.7783   -4.9902    0.0000 N   0  0  0  0  0  0  0  0  0  0  0  0
    9.3618   -6.9259    0.0000 C   0  0  0  0  0  0  0  0  0  0  0  0
    7.9332   -7.3857    0.0000 C   0  0  0  0  0  0  0  0  0  0  0  0
    6.8211   -6.3790    0.0000 H   0  0  0  0  0  0  0  0  0  0  0  0
    7.6177   -8.8521    0.0000 C   0  0  0  0  0  0  0  0  0  0  0  0
    6.1900   -9.3123    0.0000 H   0  0  0  0  0  0  0  0  0  0  0  0
    8.7308   -9.8588    0.0000 C   0  0  0  0  0  0  0  0  0  0  0  0
    8.4153  -11.3252    0.0000 H   0  0  0  0  0  0  0  0  0  0  0  0
   10.1595   -9.3990    0.0000 C   0  0  0  0  0  0  0  0  0  0  0  0
   11.2715  -10.4057    0.0000 H   0  0  0  0  0  0  0  0  0  0  0  0
   10.4750   -7.9326    0.0000 C   0  0  0  0  0  0  0  0  0  0  0  0
   11.9027   -7.4724    0.0000 H   0  0  0  0  0  0  0  0  0  0  0  0
    8.7786   -3.8818    0.0000 C   0  0  0  0  0  0  0  0  0  0  0  0
    9.5286   -2.5828    0.0000 C   0  0  0  0  0  0  0  0  0  0  0  0
    8.9191   -1.2122    0.0000 H   0  0  0  0  0  0  0  0  0  0  0  0
    6.8095   -4.0897    0.0000 N   0  0  0  0  0  0  0  0  0  0  0  0
    5.9266   -2.8760    0.0000 C   0  0  0  0  0  0  0  0  0  0  0  0
    7.2746   -2.2179    0.0000 H   0  0  0  0  0  0  0  0  0  0  0  0
    5.5129   -1.4342    0.0000 H   0  0  0  0  0  0  0  0  0  0  0  0
    4.4340   -3.0328    0.0000 C   0  0  0  0  0  0  0  0  0  0  0  0
    4.5385   -1.5365    0.0000 H   0  0  0  0  0  0  0  0  0  0  0  0
    2.9785   -2.6702    0.0000 H   0  0  0  0  0  0  0  0  0  0  0  0
    3.8243   -4.4033    0.0000 N   0  0  0  0  0  0  0  0  0  0  0  0
    4.7072   -5.6170    0.0000 C   0  0  0  0  0  0  0  0  0  0  0  0
    3.3592   -6.2751    0.0000 H   0  0  0  0  0  0  0  0  0  0  0  0
    5.1209   -7.0588    0.0000 H   0  0  0  0  0  0  0  0  0  0  0  0
    6.1998   -5.4602    0.0000 C   0  0  0  0  0  0  0  0  0  0  0  0
    6.0953   -6.9565    0.0000 H   0  0  0  0  0  0  0  0  0  0  0  0
    7.6553   -5.8228    0.0000 H   0  0  0  0  0  0  0  0  0  0  0  0
    0.9005   -4.7119    0.0000 C   0  0  2  0  0  0  0  0  0  0  0  0
    0.8994   -3.2119    0.0000 H   0  0  0  0  0  0  0  0  0  0  0  0
   -0.5914   -4.5567    0.0000 C   0  0  0  0  0  0  0  0  0  0  0  0
   -0.2815   -3.0890    0.0000 H   0  0  0  0  0  0  0  0  0  0  0  0
   -2.0188   -4.0955    0.0000 H   0  0  0  0  0  0  0  0  0  0  0  0
   -1.1959   -5.9214    0.0000 C   0  0  1  0  0  0  0  0  0  0  0  0
   -2.4947   -5.1710    0.0000 H   0  0  0  0  0  0  0  0  0  0  0  0
   -2.0807   -7.1327    0.0000 C   0  0  0  0  0  0  0  0  0  0  0  0
   -1.4742   -8.5046    0.0000 O   0  0  0  0  0  0  0  0  0  0  0  0
   -3.5721   -6.9720    0.0000 N   0  0  0  0  0  0  0  0  0  0  0  0
   -4.3193   -5.6714    0.0000 C   0  0  0  0  0  0  0  0  0  0  0  0
   -3.7069   -4.3021    0.0000 H   0  0  0  0  0  0  0  0  0  0  0  0
   -5.7797   -5.9799    0.0000 C   0  0  0  0  0  0  0  0  0  0  0  0
   -6.8898   -4.9710    0.0000 H   0  0  0  0  0  0  0  0  0  0  0  0
   -5.9487   -7.4724    0.0000 S   0  0  0  0  0  0  0  0  0  0  0  0
   -4.5742   -8.0783    0.0000 C   0  0  0  0  0  0  0  0  0  0  0  0
   -5.3223   -9.3784    0.0000 H   0  0  0  0  0  0  0  0  0  0  0  0
   -3.3614   -8.9609    0.0000 H   0  0  0  0  0  0  0  0  0  0  0  0
   -0.0845   -6.9319    0.0000 N   0  0  0  0  0  0  0  0  0  0  0  0
   -0.2398   -8.4238    0.0000 H   0  0  0  0  0  0  0  0  0  0  0  0
    1.2111   -6.1719    0.0000 C   0  0  0  0  0  0  0  0  0  0  0  0
    1.8275   -7.5394    0.0000 H   0  0  0  0  0  0  0  0  0  0  0  0
    2.6365   -5.7050    0.0000 H   0  0  0  0  0  0  0  0  0  0  0  0
  1  2  1  0  0  0  0 
  1  3  1  0  0  0  0 
  1  4  1  0  0  0  0 
  1  5  1  0  0  0  0 
  5  6  2  0  0  0  0 
  6  7  1  0  0  0  0 
  7  8  1  0  0  0  0 
  8  9  2  0  0  0  0 
  9 10  1  0  0  0  0 
  9 11  1  0  0  0  0 
 11 12  1  0  0  0  0 
 11 13  2  0  0  0  0 
 13 14  1  0  0  0  0 
 13 15  1  0  0  0  0 
 15 16  1  0  0  0  0 
 15 17  2  0  0  0  0 
  8 17  1  0  0  0  0 
 17 18  1  0  0  0  0 
  7 19  1  0  0  0  0 
 19 20  2  0  0  0  0 
  5 20  1  0  0  0  0 
 20 21  1  0  0  0  0 
 19 22  1  0  0  0  0 
 22 23  1  0  0  0  0 
 23 24  1  0  0  0  0 
 23 25  1  0  0  0  0 
 23 26  1  0  0  0  0 
 26 27  1  0  0  0  0 
 26 28  1  0  0  0  0 
 26 29  1  0  0  0  0 
 29 30  1  0  0  0  0 
 30 31  1  0  0  0  0 
 30 32  1  0  0  0  0 
 30 33  1  0  0  0  0 
 22 33  1  0  0  0  0 
 33 34  1  0  0  0  0 
 33 35  1  0  0  0  0 
 36 29  1  1  0  0  0 
 36 37  1  6  0  0  0 
 36 38  1  0  0  0  0 
 38 39  1  0  0  0  0 
 38 40  1  0  0  0  0 
 38 41  1  0  0  0  0 
 41 42  1  1  0  0  0 
 41 43  1  6  0  0  0 
 43 44  2  0  0  0  0 
 43 45  1  0  0  0  0 
 45 46  1  0  0  0  0 
 46 47  1  0  0  0  0 
 46 48  2  0  0  0  0 
 48 49  1  0  0  0  0 
 48 50  1  0  0  0  0 
 50 51  1  0  0  0  0 
 45 51  1  0  0  0  0 
 51 52  1  0  0  0  0 
 51 53  1  0  0  0  0 
 41 54  1  0  0  0  0 
 54 55  1  0  0  0  0 
 54 56  1  0  0  0  0 
 36 56  1  0  0  0  0 
 56 57  1  0  0  0  0 
 56 58  1  0  0  0  0 
M  END
> <Rank>
47

> <Priority_score>
0.0512

> <Reaction_type>
alkyl dehydrogenation

> <Parent_ID>
58

> <Parent_InChI>
InChI=1S/C22H30N6OS/c1-17-13-21(28(24-17)18-5-3-2-4-6-18)26-9-7-25(8-10-26)19-14-20(23-15-19)22(29)27-11-12-30-16-27/h2-6,13,19-20,23H,7-12,14-16H2,1H3

> <Parent_SMILES>
Cc1cc(N2CCN([C@H]3CN[C@H](C(=O)N4CCSC4)C3)CC2)n(-c2ccccc2)n1

$$$$
Molecule 58_metabolite 48
  CDK     0516241031

 59 63  0  0  0  0  0  0  0  0999 V2000
   -4.5200   -8.0295    0.0000 C   0  0  0  0  0  0  0  0  0  0  0  0
   -5.9478   -7.5696    0.0000 H   0  0  0  0  0  0  0  0  0  0  0  0
   -5.2210   -9.3557    0.0000 H   0  0  0  0  0  0  0  0  0  0  0  0
   -3.3357   -8.9501    0.0000 H   0  0  0  0  0  0  0  0  0  0  0  0
   -3.4078   -7.0231    0.0000 C   0  0  0  0  0  0  0  0  0  0  0  0
   -3.5736   -5.5302    0.0000 N   0  0  0  0  0  0  0  0  0  0  0  0
   -2.1978   -4.9273    0.0000 N   0  0  0  0  0  0  0  0  0  0  0  0
   -1.7813   -2.9916    0.0000 C   0  0  0  0  0  0  0  0  0  0  0  0
   -0.3527   -2.5318    0.0000 C   0  0  0  0  0  0  0  0  0  0  0  0
    0.7594   -3.5385    0.0000 H   0  0  0  0  0  0  0  0  0  0  0  0
   -0.0372   -1.0654    0.0000 C   0  0  0  0  0  0  0  0  0  0  0  0
    1.3905   -0.6052    0.0000 H   0  0  0  0  0  0  0  0  0  0  0  0
   -1.1503   -0.0587    0.0000 C   0  0  0  0  0  0  0  0  0  0  0  0
   -0.8348    1.4077    0.0000 H   0  0  0  0  0  0  0  0  0  0  0  0
   -2.5790   -0.5185    0.0000 C   0  0  0  0  0  0  0  0  0  0  0  0
   -3.6910    0.4882    0.0000 H   0  0  0  0  0  0  0  0  0  0  0  0
   -2.8945   -1.9849    0.0000 C   0  0  0  0  0  0  0  0  0  0  0  0
   -4.3222   -2.4451    0.0000 H   0  0  0  0  0  0  0  0  0  0  0  0
   -1.1981   -6.0357    0.0000 C   0  0  0  0  0  0  0  0  0  0  0  0
   -1.9481   -7.3347    0.0000 C   0  0  0  0  0  0  0  0  0  0  0  0
   -1.3386   -8.7053    0.0000 H   0  0  0  0  0  0  0  0  0  0  0  0
    0.7710   -5.8278    0.0000 N   0  0  0  0  0  0  0  0  0  0  0  0
    1.6539   -7.0415    0.0000 C   0  0  0  0  0  0  0  0  0  0  0  0
    0.3060   -7.6996    0.0000 H   0  0  0  0  0  0  0  0  0  0  0  0
    2.0676   -8.4833    0.0000 H   0  0  0  0  0  0  0  0  0  0  0  0
    3.1465   -6.8847    0.0000 C   0  0  0  0  0  0  0  0  0  0  0  0
    3.0420   -8.3810    0.0000 H   0  0  0  0  0  0  0  0  0  0  0  0
    4.6020   -7.2473    0.0000 H   0  0  0  0  0  0  0  0  0  0  0  0
    3.7562   -5.5142    0.0000 N   0  0  0  0  0  0  0  0  0  0  0  0
    2.8733   -4.3005    0.0000 C   0  0  0  0  0  0  0  0  0  0  0  0
    4.2213   -3.6424    0.0000 H   0  0  0  0  0  0  0  0  0  0  0  0
    2.4596   -2.8587    0.0000 H   0  0  0  0  0  0  0  0  0  0  0  0
    1.3807   -4.4573    0.0000 C   0  0  0  0  0  0  0  0  0  0  0  0
    1.4852   -2.9610    0.0000 H   0  0  0  0  0  0  0  0  0  0  0  0
   -0.0748   -4.0947    0.0000 H   0  0  0  0  0  0  0  0  0  0  0  0
    6.6800   -5.2056    0.0000 C   0  0  2  0  0  0  0  0  0  0  0  0
    6.6811   -6.7056    0.0000 H   0  0  0  0  0  0  0  0  0  0  0  0
    8.1719   -5.3608    0.0000 C   0  0  0  0  0  0  0  0  0  0  0  0
    7.8620   -6.8285    0.0000 H   0  0  0  0  0  0  0  0  0  0  0  0
    9.5993   -5.8221    0.0000 H   0  0  0  0  0  0  0  0  0  0  0  0
    8.7764   -3.9961    0.0000 C   0  0  1  0  0  0  0  0  0  0  0  0
   10.0752   -4.7465    0.0000 H   0  0  0  0  0  0  0  0  0  0  0  0
    9.6612   -2.7848    0.0000 C   0  0  0  0  0  0  0  0  0  0  0  0
    9.0547   -1.4129    0.0000 O   0  0  0  0  0  0  0  0  0  0  0  0
   11.1526   -2.9455    0.0000 N   0  0  0  0  0  0  0  0  0  0  0  0
   11.8998   -4.2461    0.0000 C   0  0  0  0  0  0  0  0  0  0  0  0
   11.2874   -5.6154    0.0000 H   0  0  0  0  0  0  0  0  0  0  0  0
   13.3602   -3.9376    0.0000 C   0  0  0  0  0  0  0  0  0  0  0  0
   13.5118   -5.4299    0.0000 H   0  0  0  0  0  0  0  0  0  0  0  0
   14.8602   -3.9462    0.0000 H   0  0  0  0  0  0  0  0  0  0  0  0
   13.5292   -2.4451    0.0000 S   0  0  0  0  0  0  0  0  0  0  0  0
   12.1547   -1.8392    0.0000 C   0  0  0  0  0  0  0  0  0  0  0  0
   12.9028   -0.5391    0.0000 H   0  0  0  0  0  0  0  0  0  0  0  0
   10.9419   -0.9566    0.0000 H   0  0  0  0  0  0  0  0  0  0  0  0
    7.6650   -2.9856    0.0000 N   0  0  0  0  0  0  0  0  0  0  0  0
    7.8203   -1.4937    0.0000 H   0  0  0  0  0  0  0  0  0  0  0  0
    6.3694   -3.7456    0.0000 C   0  0  0  0  0  0  0  0  0  0  0  0
    5.7530   -2.3781    0.0000 H   0  0  0  0  0  0  0  0  0  0  0  0
    4.9440   -4.2125    0.0000 H   0  0  0  0  0  0  0  0  0  0  0  0
  1  2  1  0  0  0  0 
  1  3  1  0  0  0  0 
  1  4  1  0  0  0  0 
  1  5  1  0  0  0  0 
  5  6  2  0  0  0  0 
  6  7  1  0  0  0  0 
  7  8  1  0  0  0  0 
  8  9  2  0  0  0  0 
  9 10  1  0  0  0  0 
  9 11  1  0  0  0  0 
 11 12  1  0  0  0  0 
 11 13  2  0  0  0  0 
 13 14  1  0  0  0  0 
 13 15  1  0  0  0  0 
 15 16  1  0  0  0  0 
 15 17  2  0  0  0  0 
  8 17  1  0  0  0  0 
 17 18  1  0  0  0  0 
  7 19  1  0  0  0  0 
 19 20  2  0  0  0  0 
  5 20  1  0  0  0  0 
 20 21  1  0  0  0  0 
 19 22  1  0  0  0  0 
 22 23  1  0  0  0  0 
 23 24  1  0  0  0  0 
 23 25  1  0  0  0  0 
 23 26  1  0  0  0  0 
 26 27  1  0  0  0  0 
 26 28  1  0  0  0  0 
 26 29  1  0  0  0  0 
 29 30  1  0  0  0  0 
 30 31  1  0  0  0  0 
 30 32  1  0  0  0  0 
 30 33  1  0  0  0  0 
 22 33  1  0  0  0  0 
 33 34  1  0  0  0  0 
 33 35  1  0  0  0  0 
 36 29  1  1  0  0  0 
 36 37  1  6  0  0  0 
 36 38  1  0  0  0  0 
 38 39  1  0  0  0  0 
 38 40  1  0  0  0  0 
 38 41  1  0  0  0  0 
 41 42  1  1  0  0  0 
 41 43  1  6  0  0  0 
 43 44  2  0  0  0  0 
 43 45  1  0  0  0  0 
 45 46  2  0  0  0  0 
 46 47  1  0  0  0  0 
 46 48  1  0  0  0  0 
 48 49  1  0  0  0  0 
 48 50  1  0  0  0  0 
 48 51  1  0  0  0  0 
 51 52  1  0  0  0  0 
 45 52  1  0  0  0  0 
 52 53  1  0  0  0  0 
 52 54  1  0  0  0  0 
 41 55  1  0  0  0  0 
 55 56  1  0  0  0  0 
 55 57  1  0  0  0  0 
 36 57  1  0  0  0  0 
 57 58  1  0  0  0  0 
 57 59  1  0  0  0  0 
M  CHG  1  45   1
M  END
> <Rank>
47

> <Priority_score>
0.0512

> <Reaction_type>
dehydration of N-C bond

> <Parent_ID>
58

> <Parent_InChI>
InChI=1S/C22H30N6OS/c1-17-13-21(28(24-17)18-5-3-2-4-6-18)26-9-7-25(8-10-26)19-14-20(23-15-19)22(29)27-11-12-30-16-27/h2-6,13,19-20,23H,7-12,14-16H2,1H3

> <Parent_SMILES>
Cc1cc(N2CCN([C@H]3CN[C@H](C(=O)N4CCSC4)C3)CC2)n(-c2ccccc2)n1

$$$$
Molecule 58_metabolite 49
  CDK     0516241031

 59 63  0  0  0  0  0  0  0  0999 V2000
   -0.5896    3.5032    0.0000 C   0  0  0  0  0  0  0  0  0  0  0  0
   -2.0825    3.3578    0.0000 H   0  0  0  0  0  0  0  0  0  0  0  0
   -0.9920    4.9482    0.0000 H   0  0  0  0  0  0  0  0  0  0  0  0
    0.7636    4.1504    0.0000 H   0  0  0  0  0  0  0  0  0  0  0  0
    0.2828    2.2829    0.0000 C   0  0  0  0  0  0  0  0  0  0  0  0
   -0.1971    0.8596    0.0000 N   0  0  0  0  0  0  0  0  0  0  0  0
    1.0187   -0.0225    0.0000 N   0  0  0  0  0  0  0  0  0  0  0  0
    0.7543   -1.4990    0.0000 C   0  0  0  0  0  0  0  0  0  0  0  0
    1.9017   -2.4664    0.0000 C   0  0  0  0  0  0  0  0  0  0  0  0
    3.3125   -1.9569    0.0000 H   0  0  0  0  0  0  0  0  0  0  0  0
    1.6373   -3.9429    0.0000 C   0  0  0  0  0  0  0  0  0  0  0  0
    2.7836   -4.9103    0.0000 H   0  0  0  0  0  0  0  0  0  0  0  0
    0.2254   -4.4520    0.0000 C   0  0  0  0  0  0  0  0  0  0  0  0
   -0.0390   -5.9285    0.0000 H   0  0  0  0  0  0  0  0  0  0  0  0
   -0.9220   -3.4846    0.0000 C   0  0  0  0  0  0  0  0  0  0  0  0
   -2.3328   -3.9941    0.0000 H   0  0  0  0  0  0  0  0  0  0  0  0
   -0.6576   -2.0081    0.0000 C   0  0  0  0  0  0  0  0  0  0  0  0
   -1.8039   -1.0406    0.0000 H   0  0  0  0  0  0  0  0  0  0  0  0
    2.2316    0.8476    0.0000 C   0  0  0  0  0  0  0  0  0  0  0  0
    1.7754    2.2765    0.0000 C   0  0  0  0  0  0  0  0  0  0  0  0
    2.6628    3.4859    0.0000 H   0  0  0  0  0  0  0  0  0  0  0  0
    4.1112    0.2252    0.0000 N   0  0  0  0  0  0  0  0  0  0  0  0
    5.2323    1.2230    0.0000 C   0  0  0  0  0  0  0  0  0  0  0  0
    4.0555    2.1530    0.0000 H   0  0  0  0  0  0  0  0  0  0  0  0
    5.9436    2.5436    0.0000 H   0  0  0  0  0  0  0  0  0  0  0  0
    6.6573    0.7519    0.0000 C   0  0  0  0  0  0  0  0  0  0  0  0
    6.8738    2.2362    0.0000 H   0  0  0  0  0  0  0  0  0  0  0  0
    8.1566    0.7962    0.0000 H   0  0  0  0  0  0  0  0  0  0  0  0
    6.9612   -0.7170    0.0000 N   0  0  0  0  0  0  0  0  0  0  0  0
    5.8401   -1.7148    0.0000 C   0  0  0  0  0  0  0  0  0  0  0  0
    7.0169   -2.6449    0.0000 H   0  0  0  0  0  0  0  0  0  0  0  0
    5.1288   -3.0355    0.0000 H   0  0  0  0  0  0  0  0  0  0  0  0
    4.4151   -1.2437    0.0000 C   0  0  0  0  0  0  0  0  0  0  0  0
    4.1985   -2.7280    0.0000 H   0  0  0  0  0  0  0  0  0  0  0  0
    2.9157   -1.2881    0.0000 H   0  0  0  0  0  0  0  0  0  0  0  0
    9.7521   -1.6412    0.0000 C   0  0  2  0  0  0  0  0  0  0  0  0
   10.0727   -0.1758    0.0000 H   0  0  0  0  0  0  0  0  0  0  0  0
   11.2429   -1.8072    0.0000 C   0  0  0  0  0  0  0  0  0  0  0  0
   11.2527   -0.3073    0.0000 H   0  0  0  0  0  0  0  0  0  0  0  0
   12.7357   -1.6606    0.0000 H   0  0  0  0  0  0  0  0  0  0  0  0
   11.5429   -3.2694    0.0000 C   0  0  1  0  0  0  0  0  0  0  0  0
   12.9717   -2.8128    0.0000 H   0  0  0  0  0  0  0  0  0  0  0  0
   12.1495   -4.6413    0.0000 C   0  0  0  0  0  0  0  0  0  0  0  0
   11.2647   -5.8526    0.0000 O   0  0  0  0  0  0  0  0  0  0  0  0
   13.6409   -4.8020    0.0000 N   0  0  0  0  0  0  0  0  0  0  0  0
   14.6430   -3.6957    0.0000 C   0  0  0  0  0  0  0  0  0  0  0  0
   14.3306   -2.2286    0.0000 H   0  0  0  0  0  0  0  0  0  0  0  0
   16.0174   -4.3016    0.0000 S   0  0  0  0  0  0  0  0  0  0  0  0
   15.8485   -5.7941    0.0000 C   0  0  0  0  0  0  0  0  0  0  0  0
   16.0000   -7.2864    0.0000 H   0  0  0  0  0  0  0  0  0  0  0  0
   17.3485   -5.8027    0.0000 H   0  0  0  0  0  0  0  0  0  0  0  0
   14.3881   -6.1026    0.0000 C   0  0  0  0  0  0  0  0  0  0  0  0
   13.0166   -6.7102    0.0000 H   0  0  0  0  0  0  0  0  0  0  0  0
   14.8494   -7.5299    0.0000 H   0  0  0  0  0  0  0  0  0  0  0  0
   10.2418   -4.0200    0.0000 N   0  0  0  0  0  0  0  0  0  0  0  0
   10.0758   -5.5108    0.0000 H   0  0  0  0  0  0  0  0  0  0  0  0
    9.1378   -3.0016    0.0000 C   0  0  0  0  0  0  0  0  0  0  0  0
    8.2442   -4.2064    0.0000 H   0  0  0  0  0  0  0  0  0  0  0  0
    7.8445   -2.2418    0.0000 H   0  0  0  0  0  0  0  0  0  0  0  0
  1  2  1  0  0  0  0 
  1  3  1  0  0  0  0 
  1  4  1  0  0  0  0 
  1  5  1  0  0  0  0 
  5  6  2  0  0  0  0 
  6  7  1  0  0  0  0 
  7  8  1  0  0  0  0 
  8  9  2  0  0  0  0 
  9 10  1  0  0  0  0 
  9 11  1  0  0  0  0 
 11 12  1  0  0  0  0 
 11 13  2  0  0  0  0 
 13 14  1  0  0  0  0 
 13 15  1  0  0  0  0 
 15 16  1  0  0  0  0 
 15 17  2  0  0  0  0 
  8 17  1  0  0  0  0 
 17 18  1  0  0  0  0 
  7 19  1  0  0  0  0 
 19 20  2  0  0  0  0 
  5 20  1  0  0  0  0 
 20 21  1  0  0  0  0 
 19 22  1  0  0  0  0 
 22 23  1  0  0  0  0 
 23 24  1  0  0  0  0 
 23 25  1  0  0  0  0 
 23 26  1  0  0  0  0 
 26 27  1  0  0  0  0 
 26 28  1  0  0  0  0 
 26 29  1  0  0  0  0 
 29 30  1  0  0  0  0 
 30 31  1  0  0  0  0 
 30 32  1  0  0  0  0 
 30 33  1  0  0  0  0 
 22 33  1  0  0  0  0 
 33 34  1  0  0  0  0 
 33 35  1  0  0  0  0 
 36 29  1  6  0  0  0 
 36 37  1  1  0  0  0 
 36 38  1  0  0  0  0 
 38 39  1  0  0  0  0 
 38 40  1  0  0  0  0 
 38 41  1  0  0  0  0 
 41 42  1  6  0  0  0 
 41 43  1  1  0  0  0 
 43 44  2  0  0  0  0 
 43 45  1  0  0  0  0 
 45 46  2  0  0  0  0 
 46 47  1  0  0  0  0 
 46 48  1  0  0  0  0 
 48 49  1  0  0  0  0 
 49 50  1  0  0  0  0 
 49 51  1  0  0  0  0 
 49 52  1  0  0  0  0 
 45 52  1  0  0  0  0 
 52 53  1  0  0  0  0 
 52 54  1  0  0  0  0 
 41 55  1  0  0  0  0 
 55 56  1  0  0  0  0 
 55 57  1  0  0  0  0 
 36 57  1  0  0  0  0 
 57 58  1  0  0  0  0 
 57 59  1  0  0  0  0 
M  CHG  1  45   1
M  END
> <Rank>
49

> <Priority_score>
0.04311152720889409

> <Reaction_type>
dehydration of N-C bond

> <Parent_ID>
58

> <Parent_InChI>
InChI=1S/C22H30N6OS/c1-17-13-21(28(24-17)18-5-3-2-4-6-18)26-9-7-25(8-10-26)19-14-20(23-15-19)22(29)27-11-12-30-16-27/h2-6,13,19-20,23H,7-12,14-16H2,1H3

> <Parent_SMILES>
Cc1cc(N2CCN([C@H]3CN[C@H](C(=O)N4CCSC4)C3)CC2)n(-c2ccccc2)n1

$$$$
Molecule 58_metabolite 50
  CDK     0516241031

 59 63  0  0  0  0  0  0  0  0999 V2000
   -4.8558   -3.7301    0.0000 C   0  0  0  0  0  0  0  0  0  0  0  0
   -6.1560   -4.4780    0.0000 H   0  0  0  0  0  0  0  0  0  0  0  0
   -5.8181   -2.5795    0.0000 H   0  0  0  0  0  0  0  0  0  0  0  0
   -3.8897   -2.5826    0.0000 H   0  0  0  0  0  0  0  0  0  0  0  0
   -3.5579   -4.4822    0.0000 C   0  0  0  0  0  0  0  0  0  0  0  0
   -3.4084   -5.9768    0.0000 N   0  0  0  0  0  0  0  0  0  0  0  0
   -1.9370   -6.2792    0.0000 N   0  0  0  0  0  0  0  0  0  0  0  0
   -1.5693   -7.7334    0.0000 C   0  0  0  0  0  0  0  0  0  0  0  0
   -0.1250   -8.1417    0.0000 C   0  0  0  0  0  0  0  0  0  0  0  0
    0.9503   -7.0959    0.0000 H   0  0  0  0  0  0  0  0  0  0  0  0
    0.2427   -9.5959    0.0000 C   0  0  0  0  0  0  0  0  0  0  0  0
    1.6860  -10.0048    0.0000 H   0  0  0  0  0  0  0  0  0  0  0  0
   -0.8337  -10.6418    0.0000 C   0  0  0  0  0  0  0  0  0  0  0  0
   -0.4659  -12.0960    0.0000 H   0  0  0  0  0  0  0  0  0  0  0  0
   -2.2779  -10.2334    0.0000 C   0  0  0  0  0  0  0  0  0  0  0  0
   -3.3532  -11.2792    0.0000 H   0  0  0  0  0  0  0  0  0  0  0  0
   -2.6457   -8.7792    0.0000 C   0  0  0  0  0  0  0  0  0  0  0  0
   -4.0889   -8.3704    0.0000 H   0  0  0  0  0  0  0  0  0  0  0  0
   -1.1907   -4.9865    0.0000 C   0  0  0  0  0  0  0  0  0  0  0  0
   -2.1954   -3.8727    0.0000 C   0  0  0  0  0  0  0  0  0  0  0  0
   -1.8855   -2.4050    0.0000 H   0  0  0  0  0  0  0  0  0  0  0  0
    0.7783   -4.7786    0.0000 N   0  0  0  0  0  0  0  0  0  0  0  0
    1.3884   -3.4074    0.0000 C   0  0  0  0  0  0  0  0  0  0  0  0
   -0.0672   -3.0452    0.0000 H   0  0  0  0  0  0  0  0  0  0  0  0
    1.4920   -1.9110    0.0000 H   0  0  0  0  0  0  0  0  0  0  0  0
    2.8809   -3.2491    0.0000 C   0  0  0  0  0  0  0  0  0  0  0  0
    3.4899   -1.8784    0.0000 H   0  0  0  0  0  0  0  0  0  0  0  0
    3.7633   -4.4621    0.0000 N   0  0  0  0  0  0  0  0  0  0  0  0
    3.1532   -5.8334    0.0000 C   0  0  0  0  0  0  0  0  0  0  0  0
    4.6088   -6.1955    0.0000 H   0  0  0  0  0  0  0  0  0  0  0  0
    3.0496   -7.3298    0.0000 H   0  0  0  0  0  0  0  0  0  0  0  0
    1.6608   -5.9916    0.0000 C   0  0  0  0  0  0  0  0  0  0  0  0
    2.0754   -7.4332    0.0000 H   0  0  0  0  0  0  0  0  0  0  0  0
    0.3130   -6.6502    0.0000 H   0  0  0  0  0  0  0  0  0  0  0  0
    5.7323   -4.2543    0.0000 C   0  0  2  0  0  0  0  0  0  0  0  0
    5.7334   -5.7543    0.0000 H   0  0  0  0  0  0  0  0  0  0  0  0
    7.2243   -4.4096    0.0000 C   0  0  0  0  0  0  0  0  0  0  0  0
    6.9144   -5.8772    0.0000 H   0  0  0  0  0  0  0  0  0  0  0  0
    8.6516   -4.8708    0.0000 H   0  0  0  0  0  0  0  0  0  0  0  0
    7.8288   -3.0448    0.0000 C   0  0  1  0  0  0  0  0  0  0  0  0
    9.1276   -3.7952    0.0000 H   0  0  0  0  0  0  0  0  0  0  0  0
    8.7136   -1.8335    0.0000 C   0  0  0  0  0  0  0  0  0  0  0  0
    8.1070   -0.4617    0.0000 O   0  0  0  0  0  0  0  0  0  0  0  0
   10.6822   -2.0456    0.0000 N   0  0  0  0  0  0  0  0  0  0  0  0
   11.4294   -3.3462    0.0000 C   0  0  0  0  0  0  0  0  0  0  0  0
   10.0580   -3.9538    0.0000 H   0  0  0  0  0  0  0  0  0  0  0  0
   11.8907   -4.7735    0.0000 H   0  0  0  0  0  0  0  0  0  0  0  0
   12.8898   -3.0377    0.0000 C   0  0  0  0  0  0  0  0  0  0  0  0
   13.0414   -4.5301    0.0000 H   0  0  0  0  0  0  0  0  0  0  0  0
   14.3898   -3.0464    0.0000 H   0  0  0  0  0  0  0  0  0  0  0  0
   13.0588   -1.5452    0.0000 S   0  0  0  0  0  0  0  0  0  0  0  0
   11.6843   -0.9394    0.0000 C   0  0  0  0  0  0  0  0  0  0  0  0
   12.4324    0.3608    0.0000 H   0  0  0  0  0  0  0  0  0  0  0  0
   10.4715   -0.0568    0.0000 H   0  0  0  0  0  0  0  0  0  0  0  0
    6.7174   -2.0343    0.0000 N   0  0  0  0  0  0  0  0  0  0  0  0
    6.8727   -0.5424    0.0000 H   0  0  0  0  0  0  0  0  0  0  0  0
    5.4218   -2.7943    0.0000 C   0  0  0  0  0  0  0  0  0  0  0  0
    4.8053   -1.4268    0.0000 H   0  0  0  0  0  0  0  0  0  0  0  0
    3.9963   -3.2613    0.0000 H   0  0  0  0  0  0  0  0  0  0  0  0
  1  2  1  0  0  0  0 
  1  3  1  0  0  0  0 
  1  4  1  0  0  0  0 
  1  5  1  0  0  0  0 
  5  6  2  0  0  0  0 
  6  7  1  0  0  0  0 
  7  8  1  0  0  0  0 
  8  9  2  0  0  0  0 
  9 10  1  0  0  0  0 
  9 11  1  0  0  0  0 
 11 12  1  0  0  0  0 
 11 13  2  0  0  0  0 
 13 14  1  0  0  0  0 
 13 15  1  0  0  0  0 
 15 16  1  0  0  0  0 
 15 17  2  0  0  0  0 
  8 17  1  0  0  0  0 
 17 18  1  0  0  0  0 
  7 19  1  0  0  0  0 
 19 20  2  0  0  0  0 
  5 20  1  0  0  0  0 
 20 21  1  0  0  0  0 
 19 22  1  0  0  0  0 
 22 23  1  0  0  0  0 
 23 24  1  0  0  0  0 
 23 25  1  0  0  0  0 
 23 26  1  0  0  0  0 
 26 27  1  0  0  0  0 
 26 28  2  0  0  0  0 
 28 29  1  0  0  0  0 
 29 30  1  0  0  0  0 
 29 31  1  0  0  0  0 
 29 32  1  0  0  0  0 
 22 32  1  0  0  0  0 
 32 33  1  0  0  0  0 
 32 34  1  0  0  0  0 
 35 28  1  1  0  0  0 
 35 36  1  6  0  0  0 
 35 37  1  0  0  0  0 
 37 38  1  0  0  0  0 
 37 39  1  0  0  0  0 
 37 40  1  0  0  0  0 
 40 41  1  1  0  0  0 
 40 42  1  6  0  0  0 
 42 43  2  0  0  0  0 
 42 44  1  0  0  0  0 
 44 45  1  0  0  0  0 
 45 46  1  0  0  0  0 
 45 47  1  0  0  0  0 
 45 48  1  0  0  0  0 
 48 49  1  0  0  0  0 
 48 50  1  0  0  0  0 
 48 51  1  0  0  0  0 
 51 52  1  0  0  0  0 
 44 52  1  0  0  0  0 
 52 53  1  0  0  0  0 
 52 54  1  0  0  0  0 
 40 55  1  0  0  0  0 
 55 56  1  0  0  0  0 
 55 57  1  0  0  0  0 
 35 57  1  0  0  0  0 
 57 58  1  0  0  0  0 
 57 59  1  0  0  0  0 
M  CHG  1  28   1
M  END
> <Rank>
50

> <Priority_score>
0.04000000000000001

> <Reaction_type>
dehydration of N-C bond

> <Parent_ID>
58

> <Parent_InChI>
InChI=1S/C22H30N6OS/c1-17-13-21(28(24-17)18-5-3-2-4-6-18)26-9-7-25(8-10-26)19-14-20(23-15-19)22(29)27-11-12-30-16-27/h2-6,13,19-20,23H,7-12,14-16H2,1H3

> <Parent_SMILES>
Cc1cc(N2CCN([C@H]3CN[C@H](C(=O)N4CCSC4)C3)CC2)n(-c2ccccc2)n1

$$$$
Molecule 58_metabolite 51
  CDK     0516241031

 58 62  0  0  0  0  0  0  0  0999 V2000
   -4.8558   -3.7301    0.0000 C   0  0  0  0  0  0  0  0  0  0  0  0
   -6.1560   -4.4780    0.0000 H   0  0  0  0  0  0  0  0  0  0  0  0
   -5.8181   -2.5795    0.0000 H   0  0  0  0  0  0  0  0  0  0  0  0
   -3.8897   -2.5826    0.0000 H   0  0  0  0  0  0  0  0  0  0  0  0
   -3.5579   -4.4822    0.0000 C   0  0  0  0  0  0  0  0  0  0  0  0
   -3.4084   -5.9768    0.0000 N   0  0  0  0  0  0  0  0  0  0  0  0
   -1.9370   -6.2792    0.0000 N   0  0  0  0  0  0  0  0  0  0  0  0
   -1.5693   -7.7334    0.0000 C   0  0  0  0  0  0  0  0  0  0  0  0
   -0.1250   -8.1417    0.0000 C   0  0  0  0  0  0  0  0  0  0  0  0
    0.9503   -7.0959    0.0000 H   0  0  0  0  0  0  0  0  0  0  0  0
    0.2427   -9.5959    0.0000 C   0  0  0  0  0  0  0  0  0  0  0  0
    1.6860  -10.0048    0.0000 H   0  0  0  0  0  0  0  0  0  0  0  0
   -0.8337  -10.6418    0.0000 C   0  0  0  0  0  0  0  0  0  0  0  0
   -0.4659  -12.0960    0.0000 H   0  0  0  0  0  0  0  0  0  0  0  0
   -2.2779  -10.2334    0.0000 C   0  0  0  0  0  0  0  0  0  0  0  0
   -3.3532  -11.2792    0.0000 H   0  0  0  0  0  0  0  0  0  0  0  0
   -2.6457   -8.7792    0.0000 C   0  0  0  0  0  0  0  0  0  0  0  0
   -4.0889   -8.3704    0.0000 H   0  0  0  0  0  0  0  0  0  0  0  0
   -1.1907   -4.9865    0.0000 C   0  0  0  0  0  0  0  0  0  0  0  0
   -2.1954   -3.8727    0.0000 C   0  0  0  0  0  0  0  0  0  0  0  0
   -1.8855   -2.4050    0.0000 H   0  0  0  0  0  0  0  0  0  0  0  0
    0.7783   -4.7786    0.0000 N   0  0  0  0  0  0  0  0  0  0  0  0
    1.3884   -3.4074    0.0000 C   0  0  0  0  0  0  0  0  0  0  0  0
    0.5060   -2.1944    0.0000 H   0  0  0  0  0  0  0  0  0  0  0  0
    2.8809   -3.2491    0.0000 C   0  0  0  0  0  0  0  0  0  0  0  0
    3.4899   -1.8784    0.0000 H   0  0  0  0  0  0  0  0  0  0  0  0
    3.7633   -4.4621    0.0000 N   0  0  0  0  0  0  0  0  0  0  0  0
    3.1532   -5.8334    0.0000 C   0  0  0  0  0  0  0  0  0  0  0  0
    4.6088   -6.1955    0.0000 H   0  0  0  0  0  0  0  0  0  0  0  0
    3.0496   -7.3298    0.0000 H   0  0  0  0  0  0  0  0  0  0  0  0
    1.6608   -5.9916    0.0000 C   0  0  0  0  0  0  0  0  0  0  0  0
    2.0754   -7.4332    0.0000 H   0  0  0  0  0  0  0  0  0  0  0  0
    0.3130   -6.6502    0.0000 H   0  0  0  0  0  0  0  0  0  0  0  0
    5.7323   -4.2543    0.0000 C   0  0  2  0  0  0  0  0  0  0  0  0
    5.7334   -5.7543    0.0000 H   0  0  0  0  0  0  0  0  0  0  0  0
    7.2243   -4.4096    0.0000 C   0  0  0  0  0  0  0  0  0  0  0  0
    6.9144   -5.8772    0.0000 H   0  0  0  0  0  0  0  0  0  0  0  0
    8.6516   -4.8708    0.0000 H   0  0  0  0  0  0  0  0  0  0  0  0
    7.8288   -3.0448    0.0000 C   0  0  1  0  0  0  0  0  0  0  0  0
    9.1276   -3.7952    0.0000 H   0  0  0  0  0  0  0  0  0  0  0  0
    8.7136   -1.8335    0.0000 C   0  0  0  0  0  0  0  0  0  0  0  0
    8.1070   -0.4617    0.0000 O   0  0  0  0  0  0  0  0  0  0  0  0
   10.6822   -2.0456    0.0000 N   0  0  0  0  0  0  0  0  0  0  0  0
   11.4294   -3.3462    0.0000 C   0  0  0  0  0  0  0  0  0  0  0  0
   10.0580   -3.9538    0.0000 H   0  0  0  0  0  0  0  0  0  0  0  0
   11.8907   -4.7735    0.0000 H   0  0  0  0  0  0  0  0  0  0  0  0
   12.8898   -3.0377    0.0000 C   0  0  0  0  0  0  0  0  0  0  0  0
   13.0414   -4.5301    0.0000 H   0  0  0  0  0  0  0  0  0  0  0  0
   14.3898   -3.0464    0.0000 H   0  0  0  0  0  0  0  0  0  0  0  0
   13.0588   -1.5452    0.0000 S   0  0  0  0  0  0  0  0  0  0  0  0
   11.6843   -0.9394    0.0000 C   0  0  0  0  0  0  0  0  0  0  0  0
   12.4324    0.3608    0.0000 H   0  0  0  0  0  0  0  0  0  0  0  0
   10.4715   -0.0568    0.0000 H   0  0  0  0  0  0  0  0  0  0  0  0
    6.7174   -2.0343    0.0000 N   0  0  0  0  0  0  0  0  0  0  0  0
    6.8727   -0.5424    0.0000 H   0  0  0  0  0  0  0  0  0  0  0  0
    5.4218   -2.7943    0.0000 C   0  0  0  0  0  0  0  0  0  0  0  0
    4.8053   -1.4268    0.0000 H   0  0  0  0  0  0  0  0  0  0  0  0
    3.9963   -3.2613    0.0000 H   0  0  0  0  0  0  0  0  0  0  0  0
  1  2  1  0  0  0  0 
  1  3  1  0  0  0  0 
  1  4  1  0  0  0  0 
  1  5  1  0  0  0  0 
  5  6  2  0  0  0  0 
  6  7  1  0  0  0  0 
  7  8  1  0  0  0  0 
  8  9  2  0  0  0  0 
  9 10  1  0  0  0  0 
  9 11  1  0  0  0  0 
 11 12  1  0  0  0  0 
 11 13  2  0  0  0  0 
 13 14  1  0  0  0  0 
 13 15  1  0  0  0  0 
 15 16  1  0  0  0  0 
 15 17  2  0  0  0  0 
  8 17  1  0  0  0  0 
 17 18  1  0  0  0  0 
  7 19  1  0  0  0  0 
 19 20  2  0  0  0  0 
  5 20  1  0  0  0  0 
 20 21  1  0  0  0  0 
 19 22  1  0  0  0  0 
 22 23  1  0  0  0  0 
 23 24  1  0  0  0  0 
 23 25  2  0  0  0  0 
 25 26  1  0  0  0  0 
 25 27  1  0  0  0  0 
 27 28  1  0  0  0  0 
 28 29  1  0  0  0  0 
 28 30  1  0  0  0  0 
 28 31  1  0  0  0  0 
 22 31  1  0  0  0  0 
 31 32  1  0  0  0  0 
 31 33  1  0  0  0  0 
 34 27  1  1  0  0  0 
 34 35  1  6  0  0  0 
 34 36  1  0  0  0  0 
 36 37  1  0  0  0  0 
 36 38  1  0  0  0  0 
 36 39  1  0  0  0  0 
 39 40  1  1  0  0  0 
 39 41  1  6  0  0  0 
 41 42  2  0  0  0  0 
 41 43  1  0  0  0  0 
 43 44  1  0  0  0  0 
 44 45  1  0  0  0  0 
 44 46  1  0  0  0  0 
 44 47  1  0  0  0  0 
 47 48  1  0  0  0  0 
 47 49  1  0  0  0  0 
 47 50  1  0  0  0  0 
 50 51  1  0  0  0  0 
 43 51  1  0  0  0  0 
 51 52  1  0  0  0  0 
 51 53  1  0  0  0  0 
 39 54  1  0  0  0  0 
 54 55  1  0  0  0  0 
 54 56  1  0  0  0  0 
 34 56  1  0  0  0  0 
 56 57  1  0  0  0  0 
 56 58  1  0  0  0  0 
M  END
> <Rank>
50

> <Priority_score>
0.04000000000000001

> <Reaction_type>
alkyl dehydrogenation

> <Parent_ID>
58

> <Parent_InChI>
InChI=1S/C22H30N6OS/c1-17-13-21(28(24-17)18-5-3-2-4-6-18)26-9-7-25(8-10-26)19-14-20(23-15-19)22(29)27-11-12-30-16-27/h2-6,13,19-20,23H,7-12,14-16H2,1H3

> <Parent_SMILES>
Cc1cc(N2CCN([C@H]3CN[C@H](C(=O)N4CCSC4)C3)CC2)n(-c2ccccc2)n1

$$$$
Molecule 58_metabolite 52
  CDK     0516241031

 61 65  0  0  0  0  0  0  0  0999 V2000
   12.0159   -5.9869    0.0000 C   0  0  0  0  0  0  0  0  0  0  0  0
   13.3162   -5.2390    0.0000 H   0  0  0  0  0  0  0  0  0  0  0  0
   12.9783   -7.1376    0.0000 H   0  0  0  0  0  0  0  0  0  0  0  0
   11.0499   -7.1345    0.0000 H   0  0  0  0  0  0  0  0  0  0  0  0
   10.7181   -5.2349    0.0000 C   0  0  0  0  0  0  0  0  0  0  0  0
   10.5685   -3.7403    0.0000 N   0  0  0  0  0  0  0  0  0  0  0  0
    9.0972   -3.4379    0.0000 N   0  0  0  0  0  0  0  0  0  0  0  0
    8.7294   -1.9837    0.0000 C   0  0  0  0  0  0  0  0  0  0  0  0
    9.8017   -0.9348    0.0000 C   0  0  0  0  0  0  0  0  0  0  0  0
   11.2451   -1.3429    0.0000 H   0  0  0  0  0  0  0  0  0  0  0  0
    9.4360    0.5260    0.0000 C   0  0  0  0  0  0  0  0  0  0  0  0
   10.5082    1.5749    0.0000 H   0  0  0  0  0  0  0  0  0  0  0  0
    7.9836    0.9239    0.0000 C   0  0  0  0  0  0  0  0  0  0  0  0
    7.6074    2.3759    0.0000 H   0  0  0  0  0  0  0  0  0  0  0  0
    6.9113   -0.1250    0.0000 C   0  0  0  0  0  0  0  0  0  0  0  0
    7.2914   -1.5718    0.0000 C   0  0  0  0  0  0  0  0  0  0  0  0
    6.2191   -2.6207    0.0000 H   0  0  0  0  0  0  0  0  0  0  0  0
    5.4656    0.2747    0.0000 O   0  0  0  0  0  0  0  0  0  0  0  0
    5.0889    1.7267    0.0000 H   0  0  0  0  0  0  0  0  0  0  0  0
    8.3509   -4.7305    0.0000 C   0  0  0  0  0  0  0  0  0  0  0  0
    9.3556   -5.8444    0.0000 C   0  0  0  0  0  0  0  0  0  0  0  0
    9.0456   -7.3120    0.0000 H   0  0  0  0  0  0  0  0  0  0  0  0
    6.3818   -4.9384    0.0000 N   0  0  0  0  0  0  0  0  0  0  0  0
    5.7718   -6.3096    0.0000 C   0  0  0  0  0  0  0  0  0  0  0  0
    7.2274   -6.6718    0.0000 H   0  0  0  0  0  0  0  0  0  0  0  0
    5.6682   -7.8061    0.0000 H   0  0  0  0  0  0  0  0  0  0  0  0
    4.2793   -6.4679    0.0000 C   0  0  0  0  0  0  0  0  0  0  0  0
    4.6939   -7.9094    0.0000 H   0  0  0  0  0  0  0  0  0  0  0  0
    2.9316   -7.1264    0.0000 H   0  0  0  0  0  0  0  0  0  0  0  0
    3.3969   -5.2549    0.0000 N   0  0  0  0  0  0  0  0  0  0  0  0
    4.0069   -3.8836    0.0000 C   0  0  0  0  0  0  0  0  0  0  0  0
    2.5513   -3.5215    0.0000 H   0  0  0  0  0  0  0  0  0  0  0  0
    4.1105   -2.3872    0.0000 H   0  0  0  0  0  0  0  0  0  0  0  0
    5.4994   -3.7254    0.0000 C   0  0  0  0  0  0  0  0  0  0  0  0
    5.0848   -2.2838    0.0000 H   0  0  0  0  0  0  0  0  0  0  0  0
    6.8471   -3.0669    0.0000 H   0  0  0  0  0  0  0  0  0  0  0  0
    0.4731   -5.5635    0.0000 C   0  0  2  0  0  0  0  0  0  0  0  0
    0.4720   -4.0635    0.0000 H   0  0  0  0  0  0  0  0  0  0  0  0
   -1.0188   -5.4082    0.0000 C   0  0  0  0  0  0  0  0  0  0  0  0
   -0.7089   -3.9406    0.0000 H   0  0  0  0  0  0  0  0  0  0  0  0
   -2.4461   -4.9470    0.0000 H   0  0  0  0  0  0  0  0  0  0  0  0
   -1.6233   -6.7730    0.0000 C   0  0  1  0  0  0  0  0  0  0  0  0
   -2.9221   -6.0226    0.0000 H   0  0  0  0  0  0  0  0  0  0  0  0
   -2.5081   -7.9842    0.0000 C   0  0  0  0  0  0  0  0  0  0  0  0
   -1.9016   -9.3561    0.0000 O   0  0  0  0  0  0  0  0  0  0  0  0
   -4.4767   -7.7722    0.0000 N   0  0  0  0  0  0  0  0  0  0  0  0
   -5.2240   -6.4716    0.0000 C   0  0  0  0  0  0  0  0  0  0  0  0
   -3.8525   -5.8640    0.0000 H   0  0  0  0  0  0  0  0  0  0  0  0
   -5.6853   -5.0443    0.0000 H   0  0  0  0  0  0  0  0  0  0  0  0
   -6.6844   -6.7801    0.0000 C   0  0  0  0  0  0  0  0  0  0  0  0
   -6.8359   -5.2877    0.0000 H   0  0  0  0  0  0  0  0  0  0  0  0
   -8.1844   -6.7714    0.0000 H   0  0  0  0  0  0  0  0  0  0  0  0
   -6.8533   -8.2726    0.0000 S   0  0  0  0  0  0  0  0  0  0  0  0
   -5.4789   -8.8784    0.0000 C   0  0  0  0  0  0  0  0  0  0  0  0
   -6.2270  -10.1786    0.0000 H   0  0  0  0  0  0  0  0  0  0  0  0
   -4.2660   -9.7610    0.0000 H   0  0  0  0  0  0  0  0  0  0  0  0
   -0.5119   -7.7835    0.0000 N   0  0  0  0  0  0  0  0  0  0  0  0
   -0.6672   -9.2754    0.0000 H   0  0  0  0  0  0  0  0  0  0  0  0
    0.7837   -7.0235    0.0000 C   0  0  0  0  0  0  0  0  0  0  0  0
    1.4001   -8.3910    0.0000 H   0  0  0  0  0  0  0  0  0  0  0  0
    2.2092   -6.5565    0.0000 H   0  0  0  0  0  0  0  0  0  0  0  0
  1  2  1  0  0  0  0 
  1  3  1  0  0  0  0 
  1  4  1  0  0  0  0 
  1  5  1  0  0  0  0 
  5  6  2  0  0  0  0 
  6  7  1  0  0  0  0 
  7  8  1  0  0  0  0 
  8  9  2  0  0  0  0 
  9 10  1  0  0  0  0 
  9 11  1  0  0  0  0 
 11 12  1  0  0  0  0 
 11 13  2  0  0  0  0 
 13 14  1  0  0  0  0 
 13 15  1  0  0  0  0 
 15 16  2  0  0  0  0 
  8 16  1  0  0  0  0 
 16 17  1  0  0  0  0 
 15 18  1  0  0  0  0 
 18 19  1  0  0  0  0 
  7 20  1  0  0  0  0 
 20 21  2  0  0  0  0 
  5 21  1  0  0  0  0 
 21 22  1  0  0  0  0 
 20 23  1  0  0  0  0 
 23 24  1  0  0  0  0 
 24 25  1  0  0  0  0 
 24 26  1  0  0  0  0 
 24 27  1  0  0  0  0 
 27 28  1  0  0  0  0 
 27 29  1  0  0  0  0 
 27 30  1  0  0  0  0 
 30 31  1  0  0  0  0 
 31 32  1  0  0  0  0 
 31 33  1  0  0  0  0 
 31 34  1  0  0  0  0 
 23 34  1  0  0  0  0 
 34 35  1  0  0  0  0 
 34 36  1  0  0  0  0 
 37 30  1  1  0  0  0 
 37 38  1  6  0  0  0 
 37 39  1  0  0  0  0 
 39 40  1  0  0  0  0 
 39 41  1  0  0  0  0 
 39 42  1  0  0  0  0 
 42 43  1  1  0  0  0 
 42 44  1  6  0  0  0 
 44 45  2  0  0  0  0 
 44 46  1  0  0  0  0 
 46 47  1  0  0  0  0 
 47 48  1  0  0  0  0 
 47 49  1  0  0  0  0 
 47 50  1  0  0  0  0 
 50 51  1  0  0  0  0 
 50 52  1  0  0  0  0 
 50 53  1  0  0  0  0 
 53 54  1  0  0  0  0 
 46 54  1  0  0  0  0 
 54 55  1  0  0  0  0 
 54 56  1  0  0  0  0 
 42 57  1  0  0  0  0 
 57 58  1  0  0  0  0 
 57 59  1  0  0  0  0 
 37 59  1  0  0  0  0 
 59 60  1  0  0  0  0 
 59 61  1  0  0  0  0 
M  END
> <Rank>
50

> <Priority_score>
0.04

> <Reaction_type>
aromatic hydroxylation

> <Parent_ID>
58

> <Parent_InChI>
InChI=1S/C22H30N6OS/c1-17-13-21(28(24-17)18-5-3-2-4-6-18)26-9-7-25(8-10-26)19-14-20(23-15-19)22(29)27-11-12-30-16-27/h2-6,13,19-20,23H,7-12,14-16H2,1H3

> <Parent_SMILES>
Cc1cc(N2CCN([C@H]3CN[C@H](C(=O)N4CCSC4)C3)CC2)n(-c2ccccc2)n1

$$$$
Molecule 58_metabolite 53
  CDK     0516241031

 59 63  0  0  0  0  0  0  0  0999 V2000
   12.0222   -5.9833    0.0000 C   0  0  0  0  0  0  0  0  0  0  0  0
   13.3225   -5.2354    0.0000 H   0  0  0  0  0  0  0  0  0  0  0  0
   12.9846   -7.1339    0.0000 H   0  0  0  0  0  0  0  0  0  0  0  0
   11.0562   -7.1308    0.0000 H   0  0  0  0  0  0  0  0  0  0  0  0
   10.7244   -5.2312    0.0000 C   0  0  0  0  0  0  0  0  0  0  0  0
   10.5748   -3.7366    0.0000 N   0  0  0  0  0  0  0  0  0  0  0  0
    9.1035   -3.4342    0.0000 N   0  0  0  0  0  0  0  0  0  0  0  0
    8.7357   -1.9800    0.0000 C   0  0  0  0  0  0  0  0  0  0  0  0
    7.2915   -1.5717    0.0000 C   0  0  0  0  0  0  0  0  0  0  0  0
    6.2162   -2.6174    0.0000 H   0  0  0  0  0  0  0  0  0  0  0  0
    6.9237   -0.1174    0.0000 C   0  0  0  0  0  0  0  0  0  0  0  0
    5.4805    0.2914    0.0000 H   0  0  0  0  0  0  0  0  0  0  0  0
    8.0002    0.9284    0.0000 C   0  0  0  0  0  0  0  0  0  0  0  0
    7.6324    2.3826    0.0000 H   0  0  0  0  0  0  0  0  0  0  0  0
    9.4444    0.5201    0.0000 C   0  0  0  0  0  0  0  0  0  0  0  0
   10.5197    1.5659    0.0000 H   0  0  0  0  0  0  0  0  0  0  0  0
    9.8122   -0.9342    0.0000 C   0  0  0  0  0  0  0  0  0  0  0  0
   11.2554   -1.3430    0.0000 H   0  0  0  0  0  0  0  0  0  0  0  0
    8.3572   -4.7269    0.0000 C   0  0  0  0  0  0  0  0  0  0  0  0
    9.3619   -5.8407    0.0000 C   0  0  0  0  0  0  0  0  0  0  0  0
    9.0520   -7.3084    0.0000 H   0  0  0  0  0  0  0  0  0  0  0  0
    6.3881   -4.9347    0.0000 N   0  0  0  0  0  0  0  0  0  0  0  0
    5.7781   -6.3060    0.0000 C   0  0  0  0  0  0  0  0  0  0  0  0
    6.6605   -7.5190    0.0000 H   0  0  0  0  0  0  0  0  0  0  0  0
    4.2856   -6.4642    0.0000 C   0  0  0  0  0  0  0  0  0  0  0  0
    4.7003   -7.9058    0.0000 H   0  0  0  0  0  0  0  0  0  0  0  0
    2.9379   -7.1227    0.0000 H   0  0  0  0  0  0  0  0  0  0  0  0
    3.4032   -5.2512    0.0000 N   0  0  0  0  0  0  0  0  0  0  0  0
    4.0133   -3.8800    0.0000 C   0  0  0  0  0  0  0  0  0  0  0  0
    2.5576   -3.5178    0.0000 H   0  0  0  0  0  0  0  0  0  0  0  0
    4.1168   -2.3836    0.0000 H   0  0  0  0  0  0  0  0  0  0  0  0
    5.5057   -3.7217    0.0000 C   0  0  0  0  0  0  0  0  0  0  0  0
    5.0911   -2.2802    0.0000 H   0  0  0  0  0  0  0  0  0  0  0  0
    6.8535   -3.0632    0.0000 H   0  0  0  0  0  0  0  0  0  0  0  0
    0.4795   -5.5598    0.0000 C   0  0  2  0  0  0  0  0  0  0  0  0
    0.4784   -4.0598    0.0000 H   0  0  0  0  0  0  0  0  0  0  0  0
   -1.0125   -5.4046    0.0000 C   0  0  0  0  0  0  0  0  0  0  0  0
   -0.7026   -3.9370    0.0000 H   0  0  0  0  0  0  0  0  0  0  0  0
   -2.4398   -4.9434    0.0000 H   0  0  0  0  0  0  0  0  0  0  0  0
   -1.6170   -6.7694    0.0000 C   0  0  1  0  0  0  0  0  0  0  0  0
   -2.9158   -6.0189    0.0000 H   0  0  0  0  0  0  0  0  0  0  0  0
   -2.5018   -7.9806    0.0000 C   0  0  0  0  0  0  0  0  0  0  0  0
   -1.8952   -9.3525    0.0000 O   0  0  0  0  0  0  0  0  0  0  0  0
   -4.4704   -7.7685    0.0000 N   0  0  0  0  0  0  0  0  0  0  0  0
   -5.2176   -6.4679    0.0000 C   0  0  0  0  0  0  0  0  0  0  0  0
   -3.8462   -5.8603    0.0000 H   0  0  0  0  0  0  0  0  0  0  0  0
   -5.6789   -5.0406    0.0000 H   0  0  0  0  0  0  0  0  0  0  0  0
   -6.6781   -6.7764    0.0000 C   0  0  0  0  0  0  0  0  0  0  0  0
   -6.8296   -5.2841    0.0000 H   0  0  0  0  0  0  0  0  0  0  0  0
   -8.1780   -6.7678    0.0000 H   0  0  0  0  0  0  0  0  0  0  0  0
   -6.8470   -8.2689    0.0000 S   0  0  0  0  0  0  0  0  0  0  0  0
   -5.4725   -8.8748    0.0000 C   0  0  0  0  0  0  0  0  0  0  0  0
   -6.2206  -10.1749    0.0000 H   0  0  0  0  0  0  0  0  0  0  0  0
   -4.2597   -9.7574    0.0000 H   0  0  0  0  0  0  0  0  0  0  0  0
   -0.5056   -7.7798    0.0000 N   0  0  0  0  0  0  0  0  0  0  0  0
   -0.6609   -9.2718    0.0000 H   0  0  0  0  0  0  0  0  0  0  0  0
    0.7900   -7.0198    0.0000 C   0  0  0  0  0  0  0  0  0  0  0  0
    1.4065   -8.3873    0.0000 H   0  0  0  0  0  0  0  0  0  0  0  0
    2.2155   -6.5529    0.0000 H   0  0  0  0  0  0  0  0  0  0  0  0
  1  2  1  0  0  0  0 
  1  3  1  0  0  0  0 
  1  4  1  0  0  0  0 
  1  5  1  0  0  0  0 
  5  6  2  0  0  0  0 
  6  7  1  0  0  0  0 
  7  8  1  0  0  0  0 
  8  9  2  0  0  0  0 
  9 10  1  0  0  0  0 
  9 11  1  0  0  0  0 
 11 12  1  0  0  0  0 
 11 13  2  0  0  0  0 
 13 14  1  0  0  0  0 
 13 15  1  0  0  0  0 
 15 16  1  0  0  0  0 
 15 17  2  0  0  0  0 
  8 17  1  0  0  0  0 
 17 18  1  0  0  0  0 
  7 19  1  0  0  0  0 
 19 20  2  0  0  0  0 
  5 20  1  0  0  0  0 
 20 21  1  0  0  0  0 
 19 22  1  0  0  0  0 
 22 23  2  0  0  0  0 
 23 24  1  0  0  0  0 
 23 25  1  0  0  0  0 
 25 26  1  0  0  0  0 
 25 27  1  0  0  0  0 
 25 28  1  0  0  0  0 
 28 29  1  0  0  0  0 
 29 30  1  0  0  0  0 
 29 31  1  0  0  0  0 
 29 32  1  0  0  0  0 
 22 32  1  0  0  0  0 
 32 33  1  0  0  0  0 
 32 34  1  0  0  0  0 
 35 28  1  1  0  0  0 
 35 36  1  6  0  0  0 
 35 37  1  0  0  0  0 
 37 38  1  0  0  0  0 
 37 39  1  0  0  0  0 
 37 40  1  0  0  0  0 
 40 41  1  1  0  0  0 
 40 42  1  6  0  0  0 
 42 43  2  0  0  0  0 
 42 44  1  0  0  0  0 
 44 45  1  0  0  0  0 
 45 46  1  0  0  0  0 
 45 47  1  0  0  0  0 
 45 48  1  0  0  0  0 
 48 49  1  0  0  0  0 
 48 50  1  0  0  0  0 
 48 51  1  0  0  0  0 
 51 52  1  0  0  0  0 
 44 52  1  0  0  0  0 
 52 53  1  0  0  0  0 
 52 54  1  0  0  0  0 
 40 55  1  0  0  0  0 
 55 56  1  0  0  0  0 
 55 57  1  0  0  0  0 
 35 57  1  0  0  0  0 
 57 58  1  0  0  0  0 
 57 59  1  0  0  0  0 
M  CHG  1  22   1
M  END
> <Rank>
53

> <Priority_score>
0.031200000000000002

> <Reaction_type>
dehydration of N-C bond

> <Parent_ID>
58

> <Parent_InChI>
InChI=1S/C22H30N6OS/c1-17-13-21(28(24-17)18-5-3-2-4-6-18)26-9-7-25(8-10-26)19-14-20(23-15-19)22(29)27-11-12-30-16-27/h2-6,13,19-20,23H,7-12,14-16H2,1H3

> <Parent_SMILES>
Cc1cc(N2CCN([C@H]3CN[C@H](C(=O)N4CCSC4)C3)CC2)n(-c2ccccc2)n1

$$$$
Molecule 58_metabolite 54
  CDK     0516241031

 81 86  0  0  0  0  0  0  0  0999 V2000
   -9.1586    4.0981    0.0000 C   0  0  0  0  0  0  0  0  0  0  0  0
  -10.5090    3.4451    0.0000 H   0  0  0  0  0  0  0  0  0  0  0  0
  -10.0362    5.3146    0.0000 H   0  0  0  0  0  0  0  0  0  0  0  0
   -8.1130    5.1736    0.0000 H   0  0  0  0  0  0  0  0  0  0  0  0
   -7.9179    3.2551    0.0000 C   0  0  0  0  0  0  0  0  0  0  0  0
   -7.8756    1.7536    0.0000 N   0  0  0  0  0  0  0  0  0  0  0  0
  -10.1939   -0.0544    0.0000 C   0  0  0  0  0  0  0  0  0  0  0  0
   -8.9226   -0.8505    0.0000 H   0  0  0  0  0  0  0  0  0  0  0  0
  -10.7574   -1.4445    0.0000 C   0  0  0  0  0  0  0  0  0  0  0  0
   -9.2905   -1.7582    0.0000 H   0  0  0  0  0  0  0  0  0  0  0  0
  -12.2439   -1.6513    0.0000 C   0  0  0  0  0  0  0  0  0  0  0  0
  -11.7821   -3.0784    0.0000 H   0  0  0  0  0  0  0  0  0  0  0  0
  -13.1670   -0.4679    0.0000 C   0  0  0  0  0  0  0  0  0  0  0  0
  -14.1716   -1.5817    0.0000 H   0  0  0  0  0  0  0  0  0  0  0  0
  -12.6035    0.9223    0.0000 C   0  0  0  0  0  0  0  0  0  0  0  0
  -14.0704    1.2359    0.0000 H   0  0  0  0  0  0  0  0  0  0  0  0
  -12.4971    3.8603    0.0000 C   0  0  0  0  0  0  0  0  0  0  0  0
  -11.1717    4.5628    0.0000 O   0  0  0  0  0  0  0  0  0  0  0  0
  -13.7681    4.6569    0.0000 O   0  0  0  0  0  0  0  0  0  0  0  0
  -15.0934    3.9544    0.0000 H   0  0  0  0  0  0  0  0  0  0  0  0
  -11.1170    1.1290    0.0000 O   0  0  0  0  0  0  0  0  0  0  0  0
  -14.4382    0.3282    0.0000 O   0  0  0  0  0  0  0  0  0  0  0  0
  -15.7634   -0.3747    0.0000 H   0  0  0  0  0  0  0  0  0  0  0  0
  -13.5690   -2.3542    0.0000 O   0  0  0  0  0  0  0  0  0  0  0  0
  -13.6228   -3.8532    0.0000 H   0  0  0  0  0  0  0  0  0  0  0  0
  -10.8117   -2.9435    0.0000 O   0  0  0  0  0  0  0  0  0  0  0  0
   -9.5406   -3.7401    0.0000 H   0  0  0  0  0  0  0  0  0  0  0  0
   -6.4296    1.3468    0.0000 N   0  0  0  0  0  0  0  0  0  0  0  0
   -5.7495   -0.5127    0.0000 C   0  0  0  0  0  0  0  0  0  0  0  0
   -4.2709   -0.7705    0.0000 C   0  0  0  0  0  0  0  0  0  0  0  0
   -3.3088    0.3803    0.0000 H   0  0  0  0  0  0  0  0  0  0  0  0
   -3.7556   -2.1792    0.0000 C   0  0  0  0  0  0  0  0  0  0  0  0
   -2.2780   -2.4375    0.0000 H   0  0  0  0  0  0  0  0  0  0  0  0
   -4.7189   -3.3301    0.0000 C   0  0  0  0  0  0  0  0  0  0  0  0
   -4.2036   -4.7388    0.0000 H   0  0  0  0  0  0  0  0  0  0  0  0
   -6.1974   -3.0724    0.0000 C   0  0  0  0  0  0  0  0  0  0  0  0
   -7.1596   -4.2231    0.0000 H   0  0  0  0  0  0  0  0  0  0  0  0
   -6.7127   -1.6636    0.0000 C   0  0  0  0  0  0  0  0  0  0  0  0
   -8.1903   -1.4053    0.0000 H   0  0  0  0  0  0  0  0  0  0  0  0
   -5.5928    2.5828    0.0000 C   0  0  0  0  0  0  0  0  0  0  0  0
   -6.5152    3.7656    0.0000 C   0  0  0  0  0  0  0  0  0  0  0  0
   -6.1011    5.2073    0.0000 H   0  0  0  0  0  0  0  0  0  0  0  0
   -3.6139    2.6493    0.0000 N   0  0  0  0  0  0  0  0  0  0  0  0
   -2.9073    3.9734    0.0000 C   0  0  0  0  0  0  0  0  0  0  0  0
   -4.3333    4.4387    0.0000 H   0  0  0  0  0  0  0  0  0  0  0  0
   -2.6970    5.4586    0.0000 H   0  0  0  0  0  0  0  0  0  0  0  0
   -1.4074    4.0245    0.0000 C   0  0  0  0  0  0  0  0  0  0  0  0
   -1.7178    5.4920    0.0000 H   0  0  0  0  0  0  0  0  0  0  0  0
   -0.0160    4.5849    0.0000 H   0  0  0  0  0  0  0  0  0  0  0  0
   -0.6140    2.7515    0.0000 N   0  0  0  0  0  0  0  0  0  0  0  0
   -1.3205    1.4274    0.0000 C   0  0  0  0  0  0  0  0  0  0  0  0
    0.1055    0.9620    0.0000 H   0  0  0  0  0  0  0  0  0  0  0  0
   -1.5309   -0.0578    0.0000 H   0  0  0  0  0  0  0  0  0  0  0  0
   -2.8205    1.3763    0.0000 C   0  0  0  0  0  0  0  0  0  0  0  0
   -2.5100   -0.0912    0.0000 H   0  0  0  0  0  0  0  0  0  0  0  0
   -4.2119    0.8158    0.0000 H   0  0  0  0  0  0  0  0  0  0  0  0
    2.3244    2.8502    0.0000 C   0  0  2  0  0  0  0  0  0  0  0  0
    2.2182    1.3540    0.0000 H   0  0  0  0  0  0  0  0  0  0  0  0
    3.8014    2.5887    0.0000 C   0  0  0  0  0  0  0  0  0  0  0  0
    3.3873    1.1469    0.0000 H   0  0  0  0  0  0  0  0  0  0  0  0
    5.1921    2.0265    0.0000 H   0  0  0  0  0  0  0  0  0  0  0  0
    4.5019    3.9067    0.0000 C   0  0  1  0  0  0  0  0  0  0  0  0
    5.7437    3.0653    0.0000 H   0  0  0  0  0  0  0  0  0  0  0  0
    5.4711    5.0515    0.0000 C   0  0  0  0  0  0  0  0  0  0  0  0
    4.9642    6.4633    0.0000 O   0  0  0  0  0  0  0  0  0  0  0  0
    7.4195    4.6992    0.0000 N   0  0  0  0  0  0  0  0  0  0  0  0
    8.0718    3.3485    0.0000 C   0  0  0  0  0  0  0  0  0  0  0  0
    6.6604    2.8406    0.0000 H   0  0  0  0  0  0  0  0  0  0  0  0
    8.4299    1.8919    0.0000 H   0  0  0  0  0  0  0  0  0  0  0  0
    9.5505    3.5518    0.0000 C   0  0  0  0  0  0  0  0  0  0  0  0
    9.5950    2.0524    0.0000 H   0  0  0  0  0  0  0  0  0  0  0  0
   11.0461    3.4359    0.0000 H   0  0  0  0  0  0  0  0  0  0  0  0
    9.8258    5.0284    0.0000 S   0  0  0  0  0  0  0  0  0  0  0  0
    8.4982    5.7310    0.0000 C   0  0  0  0  0  0  0  0  0  0  0  0
    9.3374    6.9743    0.0000 H   0  0  0  0  0  0  0  0  0  0  0  0
    7.3516    6.6981    0.0000 H   0  0  0  0  0  0  0  0  0  0  0  0
    3.4657    4.9940    0.0000 N   0  0  0  0  0  0  0  0  0  0  0  0
    3.7272    6.4711    0.0000 H   0  0  0  0  0  0  0  0  0  0  0  0
    2.1190    4.3287    0.0000 C   0  0  0  0  0  0  0  0  0  0  0  0
    1.6019    5.7367    0.0000 H   0  0  0  0  0  0  0  0  0  0  0  0
    0.6638    3.9649    0.0000 H   0  0  0  0  0  0  0  0  0  0  0  0
  1  2  1  0  0  0  0 
  1  3  1  0  0  0  0 
  1  4  1  0  0  0  0 
  1  5  1  0  0  0  0 
  5  6  2  0  0  0  0 
  6  7  1  0  0  0  0 
  7  8  1  0  0  0  0 
  7  9  1  0  0  0  0 
  9 10  1  0  0  0  0 
  9 11  1  0  0  0  0 
 11 12  1  0  0  0  0 
 11 13  1  0  0  0  0 
 13 14  1  0  0  0  0 
 13 15  1  0  0  0  0 
 15 16  1  0  0  0  0 
 15 17  1  0  0  0  0 
 17 18  2  0  0  0  0 
 17 19  1  0  0  0  0 
 19 20  1  0  0  0  0 
 15 21  1  0  0  0  0 
  7 21  1  0  0  0  0 
 13 22  1  0  0  0  0 
 22 23  1  0  0  0  0 
 11 24  1  0  0  0  0 
 24 25  1  0  0  0  0 
  9 26  1  0  0  0  0 
 26 27  1  0  0  0  0 
  6 28  1  0  0  0  0 
 28 29  1  0  0  0  0 
 29 30  2  0  0  0  0 
 30 31  1  0  0  0  0 
 30 32  1  0  0  0  0 
 32 33  1  0  0  0  0 
 32 34  2  0  0  0  0 
 34 35  1  0  0  0  0 
 34 36  1  0  0  0  0 
 36 37  1  0  0  0  0 
 36 38  2  0  0  0  0 
 29 38  1  0  0  0  0 
 38 39  1  0  0  0  0 
 28 40  1  0  0  0  0 
 40 41  2  0  0  0  0 
  5 41  1  0  0  0  0 
 41 42  1  0  0  0  0 
 40 43  1  0  0  0  0 
 43 44  1  0  0  0  0 
 44 45  1  0  0  0  0 
 44 46  1  0  0  0  0 
 44 47  1  0  0  0  0 
 47 48  1  0  0  0  0 
 47 49  1  0  0  0  0 
 47 50  1  0  0  0  0 
 50 51  1  0  0  0  0 
 51 52  1  0  0  0  0 
 51 53  1  0  0  0  0 
 51 54  1  0  0  0  0 
 43 54  1  0  0  0  0 
 54 55  1  0  0  0  0 
 54 56  1  0  0  0  0 
 57 50  1  1  0  0  0 
 57 58  1  6  0  0  0 
 57 59  1  0  0  0  0 
 59 60  1  0  0  0  0 
 59 61  1  0  0  0  0 
 59 62  1  0  0  0  0 
 62 63  1  1  0  0  0 
 62 64  1  6  0  0  0 
 64 65  2  0  0  0  0 
 64 66  1  0  0  0  0 
 66 67  1  0  0  0  0 
 67 68  1  0  0  0  0 
 67 69  1  0  0  0  0 
 67 70  1  0  0  0  0 
 70 71  1  0  0  0  0 
 70 72  1  0  0  0  0 
 70 73  1  0  0  0  0 
 73 74  1  0  0  0  0 
 66 74  1  0  0  0  0 
 74 75  1  0  0  0  0 
 74 76  1  0  0  0  0 
 62 77  1  0  0  0  0 
 77 78  1  0  0  0  0 
 77 79  1  0  0  0  0 
 57 79  1  0  0  0  0 
 79 80  1  0  0  0  0 
 79 81  1  0  0  0  0 
M  CHG  1   6   1
M  END
> <Rank>
54

> <Priority_score>
0.028

> <Reaction_type>
N-glucuronidation_(aromatic_=n-)

> <Parent_ID>
58

> <Parent_InChI>
InChI=1S/C22H30N6OS/c1-17-13-21(28(24-17)18-5-3-2-4-6-18)26-9-7-25(8-10-26)19-14-20(23-15-19)22(29)27-11-12-30-16-27/h2-6,13,19-20,23H,7-12,14-16H2,1H3

> <Parent_SMILES>
Cc1cc(N2CCN([C@H]3CN[C@H](C(=O)N4CCSC4)C3)CC2)n(-c2ccccc2)n1

$$$$
Molecule 58_metabolite 55
  CDK     0516241031

 59 63  0  0  0  0  0  0  0  0999 V2000
   12.3659   -2.0114    0.0000 C   0  0  0  0  0  0  0  0  0  0  0  0
   13.7936   -2.4713    0.0000 H   0  0  0  0  0  0  0  0  0  0  0  0
   13.0668   -0.6852    0.0000 H   0  0  0  0  0  0  0  0  0  0  0  0
   11.1816   -1.0908    0.0000 H   0  0  0  0  0  0  0  0  0  0  0  0
   11.2537   -3.0178    0.0000 C   0  0  0  0  0  0  0  0  0  0  0  0
   11.4194   -4.5107    0.0000 N   0  0  0  0  0  0  0  0  0  0  0  0
   10.0437   -5.1136    0.0000 N   0  0  0  0  0  0  0  0  0  0  0  0
    9.6272   -7.0493    0.0000 C   0  0  0  0  0  0  0  0  0  0  0  0
    8.1985   -7.5091    0.0000 C   0  0  0  0  0  0  0  0  0  0  0  0
    7.0865   -6.5024    0.0000 H   0  0  0  0  0  0  0  0  0  0  0  0
    7.8830   -8.9755    0.0000 C   0  0  0  0  0  0  0  0  0  0  0  0
    6.4553   -9.4357    0.0000 H   0  0  0  0  0  0  0  0  0  0  0  0
    8.9961   -9.9822    0.0000 C   0  0  0  0  0  0  0  0  0  0  0  0
    8.6806  -11.4486    0.0000 H   0  0  0  0  0  0  0  0  0  0  0  0
   10.4248   -9.5224    0.0000 C   0  0  0  0  0  0  0  0  0  0  0  0
   11.5369  -10.5291    0.0000 H   0  0  0  0  0  0  0  0  0  0  0  0
   10.7403   -8.0560    0.0000 C   0  0  0  0  0  0  0  0  0  0  0  0
   12.1680   -7.5958    0.0000 H   0  0  0  0  0  0  0  0  0  0  0  0
    9.0439   -4.0052    0.0000 C   0  0  0  0  0  0  0  0  0  0  0  0
    9.7939   -2.7062    0.0000 C   0  0  0  0  0  0  0  0  0  0  0  0
    9.1844   -1.3356    0.0000 H   0  0  0  0  0  0  0  0  0  0  0  0
    7.0749   -4.2131    0.0000 N   0  0  0  0  0  0  0  0  0  0  0  0
    6.1920   -2.9994    0.0000 C   0  0  0  0  0  0  0  0  0  0  0  0
    7.5399   -2.3413    0.0000 H   0  0  0  0  0  0  0  0  0  0  0  0
    5.7782   -1.5576    0.0000 H   0  0  0  0  0  0  0  0  0  0  0  0
    4.6993   -3.1562    0.0000 C   0  0  0  0  0  0  0  0  0  0  0  0
    4.8039   -1.6599    0.0000 H   0  0  0  0  0  0  0  0  0  0  0  0
    3.2438   -2.7936    0.0000 H   0  0  0  0  0  0  0  0  0  0  0  0
    4.0896   -4.5267    0.0000 N   0  0  0  0  0  0  0  0  0  0  0  0
    4.9725   -5.7404    0.0000 C   0  0  0  0  0  0  0  0  0  0  0  0
    3.6246   -6.3985    0.0000 H   0  0  0  0  0  0  0  0  0  0  0  0
    5.3862   -7.1822    0.0000 H   0  0  0  0  0  0  0  0  0  0  0  0
    6.4651   -5.5836    0.0000 C   0  0  0  0  0  0  0  0  0  0  0  0
    6.3606   -7.0799    0.0000 H   0  0  0  0  0  0  0  0  0  0  0  0
    7.9206   -5.9462    0.0000 H   0  0  0  0  0  0  0  0  0  0  0  0
    1.1659   -4.8353    0.0000 C   0  0  2  0  0  0  0  0  0  0  0  0
    1.1648   -3.3353    0.0000 H   0  0  0  0  0  0  0  0  0  0  0  0
   -0.3261   -4.6801    0.0000 C   0  0  0  0  0  0  0  0  0  0  0  0
   -0.0162   -3.2124    0.0000 H   0  0  0  0  0  0  0  0  0  0  0  0
   -1.7534   -4.2188    0.0000 H   0  0  0  0  0  0  0  0  0  0  0  0
   -0.9306   -6.0448    0.0000 C   0  0  1  0  0  0  0  0  0  0  0  0
   -2.2294   -5.2944    0.0000 H   0  0  0  0  0  0  0  0  0  0  0  0
   -1.8154   -7.2561    0.0000 C   0  0  0  0  0  0  0  0  0  0  0  0
   -1.2088   -8.6280    0.0000 O   0  0  0  0  0  0  0  0  0  0  0  0
   -3.7840   -7.0440    0.0000 N   0  0  0  0  0  0  0  0  0  0  0  0
   -4.5312   -5.7434    0.0000 C   0  0  0  0  0  0  0  0  0  0  0  0
   -3.1598   -5.1358    0.0000 H   0  0  0  0  0  0  0  0  0  0  0  0
   -4.9925   -4.3161    0.0000 H   0  0  0  0  0  0  0  0  0  0  0  0
   -5.9916   -6.0519    0.0000 C   0  0  0  0  0  0  0  0  0  0  0  0
   -6.1432   -4.5595    0.0000 H   0  0  0  0  0  0  0  0  0  0  0  0
   -7.4916   -6.0432    0.0000 H   0  0  0  0  0  0  0  0  0  0  0  0
   -6.1606   -7.5444    0.0000 S   0  0  0  0  0  0  0  0  0  0  0  0
   -4.7861   -8.1502    0.0000 C   0  0  0  0  0  0  0  0  0  0  0  0
   -5.5342   -9.4504    0.0000 H   0  0  0  0  0  0  0  0  0  0  0  0
   -3.5733   -9.0329    0.0000 H   0  0  0  0  0  0  0  0  0  0  0  0
    0.1808   -7.0553    0.0000 N   0  0  0  0  0  0  0  0  0  0  0  0
    0.0255   -8.5472    0.0000 H   0  0  0  0  0  0  0  0  0  0  0  0
    1.4764   -6.2953    0.0000 C   0  0  0  0  0  0  0  0  0  0  0  0
    2.8489   -6.9006    0.0000 H   0  0  0  0  0  0  0  0  0  0  0  0
  1  2  1  0  0  0  0 
  1  3  1  0  0  0  0 
  1  4  1  0  0  0  0 
  1  5  1  0  0  0  0 
  5  6  2  0  0  0  0 
  6  7  1  0  0  0  0 
  7  8  1  0  0  0  0 
  8  9  2  0  0  0  0 
  9 10  1  0  0  0  0 
  9 11  1  0  0  0  0 
 11 12  1  0  0  0  0 
 11 13  2  0  0  0  0 
 13 14  1  0  0  0  0 
 13 15  1  0  0  0  0 
 15 16  1  0  0  0  0 
 15 17  2  0  0  0  0 
  8 17  1  0  0  0  0 
 17 18  1  0  0  0  0 
  7 19  1  0  0  0  0 
 19 20  2  0  0  0  0 
  5 20  1  0  0  0  0 
 20 21  1  0  0  0  0 
 19 22  1  0  0  0  0 
 22 23  1  0  0  0  0 
 23 24  1  0  0  0  0 
 23 25  1  0  0  0  0 
 23 26  1  0  0  0  0 
 26 27  1  0  0  0  0 
 26 28  1  0  0  0  0 
 26 29  1  0  0  0  0 
 29 30  1  0  0  0  0 
 30 31  1  0  0  0  0 
 30 32  1  0  0  0  0 
 30 33  1  0  0  0  0 
 22 33  1  0  0  0  0 
 33 34  1  0  0  0  0 
 33 35  1  0  0  0  0 
 36 29  1  1  0  0  0 
 36 37  1  6  0  0  0 
 36 38  1  0  0  0  0 
 38 39  1  0  0  0  0 
 38 40  1  0  0  0  0 
 38 41  1  0  0  0  0 
 41 42  1  1  0  0  0 
 41 43  1  6  0  0  0 
 43 44  2  0  0  0  0 
 43 45  1  0  0  0  0 
 45 46  1  0  0  0  0 
 46 47  1  0  0  0  0 
 46 48  1  0  0  0  0 
 46 49  1  0  0  0  0 
 49 50  1  0  0  0  0 
 49 51  1  0  0  0  0 
 49 52  1  0  0  0  0 
 52 53  1  0  0  0  0 
 45 53  1  0  0  0  0 
 53 54  1  0  0  0  0 
 53 55  1  0  0  0  0 
 41 56  1  0  0  0  0 
 56 57  1  0  0  0  0 
 56 58  2  0  0  0  0 
 36 58  1  0  0  0  0 
 58 59  1  0  0  0  0 
M  CHG  1  56   1
M  END
> <Rank>
55

> <Priority_score>
0.02315317435738619

> <Reaction_type>
dehydration of N-C bond

> <Parent_ID>
58

> <Parent_InChI>
InChI=1S/C22H30N6OS/c1-17-13-21(28(24-17)18-5-3-2-4-6-18)26-9-7-25(8-10-26)19-14-20(23-15-19)22(29)27-11-12-30-16-27/h2-6,13,19-20,23H,7-12,14-16H2,1H3

> <Parent_SMILES>
Cc1cc(N2CCN([C@H]3CN[C@H](C(=O)N4CCSC4)C3)CC2)n(-c2ccccc2)n1

$$$$
Molecule 58_metabolite 56
  CDK     0516241031

 58 62  0  0  0  0  0  0  0  0999 V2000
   12.3659   -2.0114    0.0000 C   0  0  0  0  0  0  0  0  0  0  0  0
   13.7936   -2.4713    0.0000 H   0  0  0  0  0  0  0  0  0  0  0  0
   13.0668   -0.6852    0.0000 H   0  0  0  0  0  0  0  0  0  0  0  0
   11.1816   -1.0908    0.0000 H   0  0  0  0  0  0  0  0  0  0  0  0
   11.2537   -3.0178    0.0000 C   0  0  0  0  0  0  0  0  0  0  0  0
   11.4194   -4.5107    0.0000 N   0  0  0  0  0  0  0  0  0  0  0  0
   10.0437   -5.1136    0.0000 N   0  0  0  0  0  0  0  0  0  0  0  0
    9.6272   -7.0493    0.0000 C   0  0  0  0  0  0  0  0  0  0  0  0
    8.1985   -7.5091    0.0000 C   0  0  0  0  0  0  0  0  0  0  0  0
    7.0865   -6.5024    0.0000 H   0  0  0  0  0  0  0  0  0  0  0  0
    7.8830   -8.9755    0.0000 C   0  0  0  0  0  0  0  0  0  0  0  0
    6.4553   -9.4357    0.0000 H   0  0  0  0  0  0  0  0  0  0  0  0
    8.9961   -9.9822    0.0000 C   0  0  0  0  0  0  0  0  0  0  0  0
    8.6806  -11.4486    0.0000 H   0  0  0  0  0  0  0  0  0  0  0  0
   10.4248   -9.5224    0.0000 C   0  0  0  0  0  0  0  0  0  0  0  0
   11.5369  -10.5291    0.0000 H   0  0  0  0  0  0  0  0  0  0  0  0
   10.7403   -8.0560    0.0000 C   0  0  0  0  0  0  0  0  0  0  0  0
   12.1680   -7.5958    0.0000 H   0  0  0  0  0  0  0  0  0  0  0  0
    9.0439   -4.0052    0.0000 C   0  0  0  0  0  0  0  0  0  0  0  0
    9.7939   -2.7062    0.0000 C   0  0  0  0  0  0  0  0  0  0  0  0
    9.1844   -1.3356    0.0000 H   0  0  0  0  0  0  0  0  0  0  0  0
    7.0749   -4.2131    0.0000 N   0  0  0  0  0  0  0  0  0  0  0  0
    6.1920   -2.9994    0.0000 C   0  0  0  0  0  0  0  0  0  0  0  0
    7.5399   -2.3413    0.0000 H   0  0  0  0  0  0  0  0  0  0  0  0
    5.7782   -1.5576    0.0000 H   0  0  0  0  0  0  0  0  0  0  0  0
    4.6993   -3.1562    0.0000 C   0  0  0  0  0  0  0  0  0  0  0  0
    4.8039   -1.6599    0.0000 H   0  0  0  0  0  0  0  0  0  0  0  0
    3.2438   -2.7936    0.0000 H   0  0  0  0  0  0  0  0  0  0  0  0
    4.0896   -4.5267    0.0000 N   0  0  0  0  0  0  0  0  0  0  0  0
    4.9725   -5.7404    0.0000 C   0  0  0  0  0  0  0  0  0  0  0  0
    3.6246   -6.3985    0.0000 H   0  0  0  0  0  0  0  0  0  0  0  0
    5.3862   -7.1822    0.0000 H   0  0  0  0  0  0  0  0  0  0  0  0
    6.4651   -5.5836    0.0000 C   0  0  0  0  0  0  0  0  0  0  0  0
    6.3606   -7.0799    0.0000 H   0  0  0  0  0  0  0  0  0  0  0  0
    7.9206   -5.9462    0.0000 H   0  0  0  0  0  0  0  0  0  0  0  0
    1.1659   -4.8353    0.0000 C   0  0  2  0  0  0  0  0  0  0  0  0
    1.1648   -3.3353    0.0000 H   0  0  0  0  0  0  0  0  0  0  0  0
   -0.3261   -4.6801    0.0000 C   0  0  0  0  0  0  0  0  0  0  0  0
   -0.0162   -3.2124    0.0000 H   0  0  0  0  0  0  0  0  0  0  0  0
   -1.7534   -4.2188    0.0000 H   0  0  0  0  0  0  0  0  0  0  0  0
   -0.9306   -6.0448    0.0000 C   0  0  1  0  0  0  0  0  0  0  0  0
   -2.2294   -5.2944    0.0000 H   0  0  0  0  0  0  0  0  0  0  0  0
   -1.8154   -7.2561    0.0000 C   0  0  0  0  0  0  0  0  0  0  0  0
   -1.2088   -8.6280    0.0000 O   0  0  0  0  0  0  0  0  0  0  0  0
   -3.7840   -7.0440    0.0000 N   0  0  0  0  0  0  0  0  0  0  0  0
   -4.5312   -5.7434    0.0000 C   0  0  0  0  0  0  0  0  0  0  0  0
   -3.1598   -5.1358    0.0000 H   0  0  0  0  0  0  0  0  0  0  0  0
   -4.9925   -4.3161    0.0000 H   0  0  0  0  0  0  0  0  0  0  0  0
   -5.9916   -6.0519    0.0000 C   0  0  0  0  0  0  0  0  0  0  0  0
   -6.1432   -4.5595    0.0000 H   0  0  0  0  0  0  0  0  0  0  0  0
   -7.4916   -6.0432    0.0000 H   0  0  0  0  0  0  0  0  0  0  0  0
   -6.1606   -7.5444    0.0000 S   0  0  0  0  0  0  0  0  0  0  0  0
   -4.7861   -8.1502    0.0000 C   0  0  0  0  0  0  0  0  0  0  0  0
   -5.5342   -9.4504    0.0000 H   0  0  0  0  0  0  0  0  0  0  0  0
   -3.5733   -9.0329    0.0000 H   0  0  0  0  0  0  0  0  0  0  0  0
    0.1808   -7.0553    0.0000 N   0  0  0  0  0  0  0  0  0  0  0  0
    1.4764   -6.2953    0.0000 C   0  0  0  0  0  0  0  0  0  0  0  0
    2.8489   -6.9006    0.0000 H   0  0  0  0  0  0  0  0  0  0  0  0
  1  2  1  0  0  0  0 
  1  3  1  0  0  0  0 
  1  4  1  0  0  0  0 
  1  5  1  0  0  0  0 
  5  6  2  0  0  0  0 
  6  7  1  0  0  0  0 
  7  8  1  0  0  0  0 
  8  9  2  0  0  0  0 
  9 10  1  0  0  0  0 
  9 11  1  0  0  0  0 
 11 12  1  0  0  0  0 
 11 13  2  0  0  0  0 
 13 14  1  0  0  0  0 
 13 15  1  0  0  0  0 
 15 16  1  0  0  0  0 
 15 17  2  0  0  0  0 
  8 17  1  0  0  0  0 
 17 18  1  0  0  0  0 
  7 19  1  0  0  0  0 
 19 20  2  0  0  0  0 
  5 20  1  0  0  0  0 
 20 21  1  0  0  0  0 
 19 22  1  0  0  0  0 
 22 23  1  0  0  0  0 
 23 24  1  0  0  0  0 
 23 25  1  0  0  0  0 
 23 26  1  0  0  0  0 
 26 27  1  0  0  0  0 
 26 28  1  0  0  0  0 
 26 29  1  0  0  0  0 
 29 30  1  0  0  0  0 
 30 31  1  0  0  0  0 
 30 32  1  0  0  0  0 
 30 33  1  0  0  0  0 
 22 33  1  0  0  0  0 
 33 34  1  0  0  0  0 
 33 35  1  0  0  0  0 
 36 29  1  1  0  0  0 
 36 37  1  6  0  0  0 
 36 38  1  0  0  0  0 
 38 39  1  0  0  0  0 
 38 40  1  0  0  0  0 
 38 41  1  0  0  0  0 
 41 42  1  1  0  0  0 
 41 43  1  6  0  0  0 
 43 44  2  0  0  0  0 
 43 45  1  0  0  0  0 
 45 46  1  0  0  0  0 
 46 47  1  0  0  0  0 
 46 48  1  0  0  0  0 
 46 49  1  0  0  0  0 
 49 50  1  0  0  0  0 
 49 51  1  0  0  0  0 
 49 52  1  0  0  0  0 
 52 53  1  0  0  0  0 
 45 53  1  0  0  0  0 
 53 54  1  0  0  0  0 
 53 55  1  0  0  0  0 
 41 56  1  0  0  0  0 
 56 57  2  0  0  0  0 
 36 57  1  0  0  0  0 
 57 58  1  0  0  0  0 
M  END
> <Rank>
55

> <Priority_score>
0.02315317435738619

> <Reaction_type>
dehydration of N-C bond

> <Parent_ID>
58

> <Parent_InChI>
InChI=1S/C22H30N6OS/c1-17-13-21(28(24-17)18-5-3-2-4-6-18)26-9-7-25(8-10-26)19-14-20(23-15-19)22(29)27-11-12-30-16-27/h2-6,13,19-20,23H,7-12,14-16H2,1H3

> <Parent_SMILES>
Cc1cc(N2CCN([C@H]3CN[C@H](C(=O)N4CCSC4)C3)CC2)n(-c2ccccc2)n1

$$$$
Molecule 58_metabolite 57
  CDK     0516241031

 58 62  0  0  0  0  0  0  0  0999 V2000
   11.4777   -3.6409    0.0000 C   0  0  0  0  0  0  0  0  0  0  0  0
   12.7780   -2.8930    0.0000 H   0  0  0  0  0  0  0  0  0  0  0  0
   12.4401   -4.7915    0.0000 H   0  0  0  0  0  0  0  0  0  0  0  0
   10.5117   -4.7884    0.0000 H   0  0  0  0  0  0  0  0  0  0  0  0
   10.1799   -2.8888    0.0000 C   0  0  0  0  0  0  0  0  0  0  0  0
   10.0303   -1.3942    0.0000 N   0  0  0  0  0  0  0  0  0  0  0  0
    8.5590   -1.0919    0.0000 N   0  0  0  0  0  0  0  0  0  0  0  0
    8.1912    0.3624    0.0000 C   0  0  0  0  0  0  0  0  0  0  0  0
    6.7470    0.7707    0.0000 C   0  0  0  0  0  0  0  0  0  0  0  0
    5.6717   -0.2751    0.0000 H   0  0  0  0  0  0  0  0  0  0  0  0
    6.3792    2.2249    0.0000 C   0  0  0  0  0  0  0  0  0  0  0  0
    4.9360    2.6337    0.0000 H   0  0  0  0  0  0  0  0  0  0  0  0
    7.4557    3.2708    0.0000 C   0  0  0  0  0  0  0  0  0  0  0  0
    7.0879    4.7250    0.0000 H   0  0  0  0  0  0  0  0  0  0  0  0
    8.8999    2.8624    0.0000 C   0  0  0  0  0  0  0  0  0  0  0  0
    9.9752    3.9082    0.0000 H   0  0  0  0  0  0  0  0  0  0  0  0
    9.2677    1.4082    0.0000 C   0  0  0  0  0  0  0  0  0  0  0  0
   10.7109    0.9994    0.0000 H   0  0  0  0  0  0  0  0  0  0  0  0
    7.8127   -2.3845    0.0000 C   0  0  0  0  0  0  0  0  0  0  0  0
    8.8174   -3.4984    0.0000 C   0  0  0  0  0  0  0  0  0  0  0  0
    8.5075   -4.9660    0.0000 H   0  0  0  0  0  0  0  0  0  0  0  0
    5.8436   -2.5924    0.0000 N   0  0  0  0  0  0  0  0  0  0  0  0
    4.9607   -1.3787    0.0000 C   0  0  0  0  0  0  0  0  0  0  0  0
    6.3087   -0.7206    0.0000 H   0  0  0  0  0  0  0  0  0  0  0  0
    4.5470    0.0631    0.0000 H   0  0  0  0  0  0  0  0  0  0  0  0
    3.4681   -1.5355    0.0000 C   0  0  0  0  0  0  0  0  0  0  0  0
    3.5727   -0.0392    0.0000 H   0  0  0  0  0  0  0  0  0  0  0  0
    2.0126   -1.1729    0.0000 H   0  0  0  0  0  0  0  0  0  0  0  0
    2.8584   -2.9060    0.0000 N   0  0  0  0  0  0  0  0  0  0  0  0
    3.7413   -4.1197    0.0000 C   0  0  0  0  0  0  0  0  0  0  0  0
    2.3934   -4.7778    0.0000 H   0  0  0  0  0  0  0  0  0  0  0  0
    4.1550   -5.5615    0.0000 H   0  0  0  0  0  0  0  0  0  0  0  0
    5.2339   -3.9629    0.0000 C   0  0  0  0  0  0  0  0  0  0  0  0
    5.1294   -5.4592    0.0000 H   0  0  0  0  0  0  0  0  0  0  0  0
    6.6894   -4.3255    0.0000 H   0  0  0  0  0  0  0  0  0  0  0  0
   -0.0654   -3.2146    0.0000 C   0  0  2  0  0  0  0  0  0  0  0  0
   -0.0665   -1.7146    0.0000 H   0  0  0  0  0  0  0  0  0  0  0  0
   -1.5573   -3.0594    0.0000 C   0  0  0  0  0  0  0  0  0  0  0  0
   -1.2474   -1.5917    0.0000 H   0  0  0  0  0  0  0  0  0  0  0  0
   -2.9846   -2.5981    0.0000 H   0  0  0  0  0  0  0  0  0  0  0  0
   -2.1618   -4.4241    0.0000 C   0  0  0  0  0  0  0  0  0  0  0  0
   -1.0504   -5.4346    0.0000 N   0  0  0  0  0  0  0  0  0  0  0  0
    0.2452   -4.6746    0.0000 C   0  0  0  0  0  0  0  0  0  0  0  0
    0.8617   -6.0421    0.0000 H   0  0  0  0  0  0  0  0  0  0  0  0
    1.6707   -4.2077    0.0000 H   0  0  0  0  0  0  0  0  0  0  0  0
   -3.6295   -4.7338    0.0000 C   0  0  0  0  0  0  0  0  0  0  0  0
   -4.6315   -3.6177    0.0000 O   0  0  0  0  0  0  0  0  0  0  0  0
   -4.0951   -6.1598    0.0000 N   0  0  0  0  0  0  0  0  0  0  0  0
   -3.2157   -7.3749    0.0000 C   0  0  0  0  0  0  0  0  0  0  0  0
   -2.0988   -6.3737    0.0000 H   0  0  0  0  0  0  0  0  0  0  0  0
   -2.1035   -8.3814    0.0000 H   0  0  0  0  0  0  0  0  0  0  0  0
   -4.0964   -8.5801    0.0000 C   0  0  0  0  0  0  0  0  0  0  0  0
   -2.7978   -9.3308    0.0000 H   0  0  0  0  0  0  0  0  0  0  0  0
   -4.7042   -9.9514    0.0000 H   0  0  0  0  0  0  0  0  0  0  0  0
   -5.5268   -8.1216    0.0000 S   0  0  0  0  0  0  0  0  0  0  0  0
   -5.5151   -6.6196    0.0000 C   0  0  0  0  0  0  0  0  0  0  0  0
   -7.0078   -6.7681    0.0000 H   0  0  0  0  0  0  0  0  0  0  0  0
   -5.8222   -5.1513    0.0000 H   0  0  0  0  0  0  0  0  0  0  0  0
  1  2  1  0  0  0  0 
  1  3  1  0  0  0  0 
  1  4  1  0  0  0  0 
  1  5  1  0  0  0  0 
  5  6  2  0  0  0  0 
  6  7  1  0  0  0  0 
  7  8  1  0  0  0  0 
  8  9  2  0  0  0  0 
  9 10  1  0  0  0  0 
  9 11  1  0  0  0  0 
 11 12  1  0  0  0  0 
 11 13  2  0  0  0  0 
 13 14  1  0  0  0  0 
 13 15  1  0  0  0  0 
 15 16  1  0  0  0  0 
 15 17  2  0  0  0  0 
  8 17  1  0  0  0  0 
 17 18  1  0  0  0  0 
  7 19  1  0  0  0  0 
 19 20  2  0  0  0  0 
  5 20  1  0  0  0  0 
 20 21  1  0  0  0  0 
 19 22  1  0  0  0  0 
 22 23  1  0  0  0  0 
 23 24  1  0  0  0  0 
 23 25  1  0  0  0  0 
 23 26  1  0  0  0  0 
 26 27  1  0  0  0  0 
 26 28  1  0  0  0  0 
 26 29  1  0  0  0  0 
 29 30  1  0  0  0  0 
 30 31  1  0  0  0  0 
 30 32  1  0  0  0  0 
 30 33  1  0  0  0  0 
 22 33  1  0  0  0  0 
 33 34  1  0  0  0  0 
 33 35  1  0  0  0  0 
 36 29  1  1  0  0  0 
 36 37  1  6  0  0  0 
 36 38  1  0  0  0  0 
 38 39  1  0  0  0  0 
 38 40  1  0  0  0  0 
 38 41  1  0  0  0  0 
 41 42  2  0  0  0  0 
 42 43  1  0  0  0  0 
 36 43  1  0  0  0  0 
 43 44  1  0  0  0  0 
 43 45  1  0  0  0  0 
 41 46  1  0  0  0  0 
 46 47  2  0  0  0  0 
 46 48  1  0  0  0  0 
 48 49  1  0  0  0  0 
 49 50  1  0  0  0  0 
 49 51  1  0  0  0  0 
 49 52  1  0  0  0  0 
 52 53  1  0  0  0  0 
 52 54  1  0  0  0  0 
 52 55  1  0  0  0  0 
 55 56  1  0  0  0  0 
 48 56  1  0  0  0  0 
 56 57  1  0  0  0  0 
 56 58  1  0  0  0  0 
M  END
> <Rank>
57

> <Priority_score>
0.0104

> <Reaction_type>
dehydration of N-C bond

> <Parent_ID>
58

> <Parent_InChI>
InChI=1S/C22H30N6OS/c1-17-13-21(28(24-17)18-5-3-2-4-6-18)26-9-7-25(8-10-26)19-14-20(23-15-19)22(29)27-11-12-30-16-27/h2-6,13,19-20,23H,7-12,14-16H2,1H3

> <Parent_SMILES>
Cc1cc(N2CCN([C@H]3CN[C@H](C(=O)N4CCSC4)C3)CC2)n(-c2ccccc2)n1

$$$$
Molecule 58_metabolite 58
  CDK     0516241031

 59 63  0  0  0  0  0  0  0  0999 V2000
   11.4777   -3.6409    0.0000 C   0  0  0  0  0  0  0  0  0  0  0  0
   12.7780   -2.8930    0.0000 H   0  0  0  0  0  0  0  0  0  0  0  0
   12.4401   -4.7915    0.0000 H   0  0  0  0  0  0  0  0  0  0  0  0
   10.5117   -4.7884    0.0000 H   0  0  0  0  0  0  0  0  0  0  0  0
   10.1799   -2.8888    0.0000 C   0  0  0  0  0  0  0  0  0  0  0  0
   10.0303   -1.3942    0.0000 N   0  0  0  0  0  0  0  0  0  0  0  0
    8.5590   -1.0919    0.0000 N   0  0  0  0  0  0  0  0  0  0  0  0
    8.1912    0.3624    0.0000 C   0  0  0  0  0  0  0  0  0  0  0  0
    6.7470    0.7707    0.0000 C   0  0  0  0  0  0  0  0  0  0  0  0
    5.6717   -0.2751    0.0000 H   0  0  0  0  0  0  0  0  0  0  0  0
    6.3792    2.2249    0.0000 C   0  0  0  0  0  0  0  0  0  0  0  0
    4.9360    2.6337    0.0000 H   0  0  0  0  0  0  0  0  0  0  0  0
    7.4557    3.2708    0.0000 C   0  0  0  0  0  0  0  0  0  0  0  0
    7.0879    4.7250    0.0000 H   0  0  0  0  0  0  0  0  0  0  0  0
    8.8999    2.8624    0.0000 C   0  0  0  0  0  0  0  0  0  0  0  0
    9.9752    3.9082    0.0000 H   0  0  0  0  0  0  0  0  0  0  0  0
    9.2677    1.4082    0.0000 C   0  0  0  0  0  0  0  0  0  0  0  0
   10.7109    0.9994    0.0000 H   0  0  0  0  0  0  0  0  0  0  0  0
    7.8127   -2.3845    0.0000 C   0  0  0  0  0  0  0  0  0  0  0  0
    8.8174   -3.4984    0.0000 C   0  0  0  0  0  0  0  0  0  0  0  0
    8.5075   -4.9660    0.0000 H   0  0  0  0  0  0  0  0  0  0  0  0
    5.8436   -2.5924    0.0000 N   0  0  0  0  0  0  0  0  0  0  0  0
    4.9607   -1.3787    0.0000 C   0  0  0  0  0  0  0  0  0  0  0  0
    6.3087   -0.7206    0.0000 H   0  0  0  0  0  0  0  0  0  0  0  0
    4.5470    0.0631    0.0000 H   0  0  0  0  0  0  0  0  0  0  0  0
    3.4681   -1.5355    0.0000 C   0  0  0  0  0  0  0  0  0  0  0  0
    3.5727   -0.0392    0.0000 H   0  0  0  0  0  0  0  0  0  0  0  0
    2.0126   -1.1729    0.0000 H   0  0  0  0  0  0  0  0  0  0  0  0
    2.8584   -2.9060    0.0000 N   0  0  0  0  0  0  0  0  0  0  0  0
    3.7413   -4.1197    0.0000 C   0  0  0  0  0  0  0  0  0  0  0  0
    2.3934   -4.7778    0.0000 H   0  0  0  0  0  0  0  0  0  0  0  0
    4.1550   -5.5615    0.0000 H   0  0  0  0  0  0  0  0  0  0  0  0
    5.2339   -3.9629    0.0000 C   0  0  0  0  0  0  0  0  0  0  0  0
    5.1294   -5.4592    0.0000 H   0  0  0  0  0  0  0  0  0  0  0  0
    6.6894   -4.3255    0.0000 H   0  0  0  0  0  0  0  0  0  0  0  0
   -0.0654   -3.2146    0.0000 C   0  0  2  0  0  0  0  0  0  0  0  0
   -0.0665   -1.7146    0.0000 H   0  0  0  0  0  0  0  0  0  0  0  0
   -1.5573   -3.0594    0.0000 C   0  0  0  0  0  0  0  0  0  0  0  0
   -1.2474   -1.5917    0.0000 H   0  0  0  0  0  0  0  0  0  0  0  0
   -2.9846   -2.5981    0.0000 H   0  0  0  0  0  0  0  0  0  0  0  0
   -2.1618   -4.4241    0.0000 C   0  0  0  0  0  0  0  0  0  0  0  0
   -1.0504   -5.4346    0.0000 N   0  0  0  0  0  0  0  0  0  0  0  0
   -1.2057   -6.9265    0.0000 H   0  0  0  0  0  0  0  0  0  0  0  0
    0.2452   -4.6746    0.0000 C   0  0  0  0  0  0  0  0  0  0  0  0
    0.8617   -6.0421    0.0000 H   0  0  0  0  0  0  0  0  0  0  0  0
    1.6707   -4.2077    0.0000 H   0  0  0  0  0  0  0  0  0  0  0  0
   -3.6295   -4.7338    0.0000 C   0  0  0  0  0  0  0  0  0  0  0  0
   -4.6315   -3.6177    0.0000 O   0  0  0  0  0  0  0  0  0  0  0  0
   -4.0951   -6.1598    0.0000 N   0  0  0  0  0  0  0  0  0  0  0  0
   -3.2157   -7.3749    0.0000 C   0  0  0  0  0  0  0  0  0  0  0  0
   -2.0988   -6.3737    0.0000 H   0  0  0  0  0  0  0  0  0  0  0  0
   -2.1035   -8.3814    0.0000 H   0  0  0  0  0  0  0  0  0  0  0  0
   -4.0964   -8.5801    0.0000 C   0  0  0  0  0  0  0  0  0  0  0  0
   -2.7978   -9.3308    0.0000 H   0  0  0  0  0  0  0  0  0  0  0  0
   -4.7042   -9.9514    0.0000 H   0  0  0  0  0  0  0  0  0  0  0  0
   -5.5268   -8.1216    0.0000 S   0  0  0  0  0  0  0  0  0  0  0  0
   -5.5151   -6.6196    0.0000 C   0  0  0  0  0  0  0  0  0  0  0  0
   -7.0078   -6.7681    0.0000 H   0  0  0  0  0  0  0  0  0  0  0  0
   -5.8222   -5.1513    0.0000 H   0  0  0  0  0  0  0  0  0  0  0  0
  1  2  1  0  0  0  0 
  1  3  1  0  0  0  0 
  1  4  1  0  0  0  0 
  1  5  1  0  0  0  0 
  5  6  2  0  0  0  0 
  6  7  1  0  0  0  0 
  7  8  1  0  0  0  0 
  8  9  2  0  0  0  0 
  9 10  1  0  0  0  0 
  9 11  1  0  0  0  0 
 11 12  1  0  0  0  0 
 11 13  2  0  0  0  0 
 13 14  1  0  0  0  0 
 13 15  1  0  0  0  0 
 15 16  1  0  0  0  0 
 15 17  2  0  0  0  0 
  8 17  1  0  0  0  0 
 17 18  1  0  0  0  0 
  7 19  1  0  0  0  0 
 19 20  2  0  0  0  0 
  5 20  1  0  0  0  0 
 20 21  1  0  0  0  0 
 19 22  1  0  0  0  0 
 22 23  1  0  0  0  0 
 23 24  1  0  0  0  0 
 23 25  1  0  0  0  0 
 23 26  1  0  0  0  0 
 26 27  1  0  0  0  0 
 26 28  1  0  0  0  0 
 26 29  1  0  0  0  0 
 29 30  1  0  0  0  0 
 30 31  1  0  0  0  0 
 30 32  1  0  0  0  0 
 30 33  1  0  0  0  0 
 22 33  1  0  0  0  0 
 33 34  1  0  0  0  0 
 33 35  1  0  0  0  0 
 36 29  1  1  0  0  0 
 36 37  1  6  0  0  0 
 36 38  1  0  0  0  0 
 38 39  1  0  0  0  0 
 38 40  1  0  0  0  0 
 38 41  1  0  0  0  0 
 41 42  2  0  0  0  0 
 42 43  1  0  0  0  0 
 42 44  1  0  0  0  0 
 36 44  1  0  0  0  0 
 44 45  1  0  0  0  0 
 44 46  1  0  0  0  0 
 41 47  1  0  0  0  0 
 47 48  2  0  0  0  0 
 47 49  1  0  0  0  0 
 49 50  1  0  0  0  0 
 50 51  1  0  0  0  0 
 50 52  1  0  0  0  0 
 50 53  1  0  0  0  0 
 53 54  1  0  0  0  0 
 53 55  1  0  0  0  0 
 53 56  1  0  0  0  0 
 56 57  1  0  0  0  0 
 49 57  1  0  0  0  0 
 57 58  1  0  0  0  0 
 57 59  1  0  0  0  0 
M  CHG  1  42   1
M  END
> <Rank>
57

> <Priority_score>
0.0104

> <Reaction_type>
dehydration of N-C bond

> <Parent_ID>
58

> <Parent_InChI>
InChI=1S/C22H30N6OS/c1-17-13-21(28(24-17)18-5-3-2-4-6-18)26-9-7-25(8-10-26)19-14-20(23-15-19)22(29)27-11-12-30-16-27/h2-6,13,19-20,23H,7-12,14-16H2,1H3

> <Parent_SMILES>
Cc1cc(N2CCN([C@H]3CN[C@H](C(=O)N4CCSC4)C3)CC2)n(-c2ccccc2)n1

$$$$
Molecule 58_metabolite 59
  CDK     0516241031

 58 62  0  0  0  0  0  0  0  0999 V2000
   -5.4633   -7.1145    0.0000 C   0  0  0  0  0  0  0  0  0  0  0  0
   -6.8911   -6.6545    0.0000 H   0  0  0  0  0  0  0  0  0  0  0  0
   -6.1642   -8.4407    0.0000 H   0  0  0  0  0  0  0  0  0  0  0  0
   -4.2790   -8.0350    0.0000 H   0  0  0  0  0  0  0  0  0  0  0  0
   -4.3511   -6.1080    0.0000 C   0  0  0  0  0  0  0  0  0  0  0  0
   -4.5169   -4.6151    0.0000 N   0  0  0  0  0  0  0  0  0  0  0  0
   -3.1411   -4.0122    0.0000 N   0  0  0  0  0  0  0  0  0  0  0  0
   -2.7246   -2.0765    0.0000 C   0  0  0  0  0  0  0  0  0  0  0  0
   -1.2959   -1.6168    0.0000 C   0  0  0  0  0  0  0  0  0  0  0  0
   -0.1839   -2.6234    0.0000 H   0  0  0  0  0  0  0  0  0  0  0  0
   -0.9804   -0.1503    0.0000 C   0  0  0  0  0  0  0  0  0  0  0  0
    0.4472    0.3099    0.0000 H   0  0  0  0  0  0  0  0  0  0  0  0
   -2.0936    0.8563    0.0000 C   0  0  0  0  0  0  0  0  0  0  0  0
   -1.7781    2.3228    0.0000 H   0  0  0  0  0  0  0  0  0  0  0  0
   -3.5223    0.3966    0.0000 C   0  0  0  0  0  0  0  0  0  0  0  0
   -4.6343    1.4032    0.0000 H   0  0  0  0  0  0  0  0  0  0  0  0
   -3.8378   -1.0699    0.0000 C   0  0  0  0  0  0  0  0  0  0  0  0
   -5.2654   -1.5301    0.0000 H   0  0  0  0  0  0  0  0  0  0  0  0
   -2.1414   -5.1206    0.0000 C   0  0  0  0  0  0  0  0  0  0  0  0
   -2.8914   -6.4197    0.0000 C   0  0  0  0  0  0  0  0  0  0  0  0
   -2.2819   -7.7902    0.0000 H   0  0  0  0  0  0  0  0  0  0  0  0
   -0.1723   -4.9128    0.0000 N   0  0  0  0  0  0  0  0  0  0  0  0
    0.7106   -6.1265    0.0000 C   0  0  0  0  0  0  0  0  0  0  0  0
   -0.6373   -6.7845    0.0000 H   0  0  0  0  0  0  0  0  0  0  0  0
    1.1243   -7.5683    0.0000 H   0  0  0  0  0  0  0  0  0  0  0  0
    2.2032   -5.9696    0.0000 C   0  0  0  0  0  0  0  0  0  0  0  0
    2.0987   -7.4660    0.0000 H   0  0  0  0  0  0  0  0  0  0  0  0
    3.6587   -6.3323    0.0000 H   0  0  0  0  0  0  0  0  0  0  0  0
    2.8129   -4.5991    0.0000 N   0  0  0  0  0  0  0  0  0  0  0  0
    1.9300   -3.3855    0.0000 C   0  0  0  0  0  0  0  0  0  0  0  0
    3.2780   -2.7274    0.0000 H   0  0  0  0  0  0  0  0  0  0  0  0
    1.5163   -1.9437    0.0000 H   0  0  0  0  0  0  0  0  0  0  0  0
    0.4374   -3.5423    0.0000 C   0  0  0  0  0  0  0  0  0  0  0  0
    0.5420   -2.0459    0.0000 H   0  0  0  0  0  0  0  0  0  0  0  0
   -1.0181   -3.1797    0.0000 H   0  0  0  0  0  0  0  0  0  0  0  0
    5.7367   -4.2905    0.0000 C   0  0  2  0  0  0  0  0  0  0  0  0
    5.7378   -5.7905    0.0000 H   0  0  0  0  0  0  0  0  0  0  0  0
    7.2286   -4.4458    0.0000 C   0  0  0  0  0  0  0  0  0  0  0  0
    7.9806   -5.7437    0.0000 H   0  0  0  0  0  0  0  0  0  0  0  0
    7.8332   -3.0810    0.0000 C   0  0  0  0  0  0  0  0  0  0  0  0
    9.3008   -2.7713    0.0000 C   0  0  0  0  0  0  0  0  0  0  0  0
    9.7664   -1.3454    0.0000 O   0  0  0  0  0  0  0  0  0  0  0  0
   10.3029   -3.8875    0.0000 N   0  0  0  0  0  0  0  0  0  0  0  0
    9.9895   -5.3544    0.0000 C   0  0  0  0  0  0  0  0  0  0  0  0
    8.5633   -4.8898    0.0000 H   0  0  0  0  0  0  0  0  0  0  0  0
    9.3788   -6.7244    0.0000 H   0  0  0  0  0  0  0  0  0  0  0  0
   11.2821   -6.1009    0.0000 C   0  0  0  0  0  0  0  0  0  0  0  0
   10.3975   -7.3123    0.0000 H   0  0  0  0  0  0  0  0  0  0  0  0
   12.3922   -7.1097    0.0000 H   0  0  0  0  0  0  0  0  0  0  0  0
   12.4052   -5.1035    0.0000 S   0  0  0  0  0  0  0  0  0  0  0  0
   11.7877   -3.7343    0.0000 C   0  0  0  0  0  0  0  0  0  0  0  0
   13.2130   -3.2671    0.0000 H   0  0  0  0  0  0  0  0  0  0  0  0
   11.4753   -2.2672    0.0000 H   0  0  0  0  0  0  0  0  0  0  0  0
    6.7218   -2.0706    0.0000 N   0  0  0  0  0  0  0  0  0  0  0  0
    6.8770   -0.5786    0.0000 H   0  0  0  0  0  0  0  0  0  0  0  0
    5.4261   -2.8306    0.0000 C   0  0  0  0  0  0  0  0  0  0  0  0
    4.8097   -1.4631    0.0000 H   0  0  0  0  0  0  0  0  0  0  0  0
    4.0007   -3.2975    0.0000 H   0  0  0  0  0  0  0  0  0  0  0  0
  1  2  1  0  0  0  0 
  1  3  1  0  0  0  0 
  1  4  1  0  0  0  0 
  1  5  1  0  0  0  0 
  5  6  2  0  0  0  0 
  6  7  1  0  0  0  0 
  7  8  1  0  0  0  0 
  8  9  2  0  0  0  0 
  9 10  1  0  0  0  0 
  9 11  1  0  0  0  0 
 11 12  1  0  0  0  0 
 11 13  2  0  0  0  0 
 13 14  1  0  0  0  0 
 13 15  1  0  0  0  0 
 15 16  1  0  0  0  0 
 15 17  2  0  0  0  0 
  8 17  1  0  0  0  0 
 17 18  1  0  0  0  0 
  7 19  1  0  0  0  0 
 19 20  2  0  0  0  0 
  5 20  1  0  0  0  0 
 20 21  1  0  0  0  0 
 19 22  1  0  0  0  0 
 22 23  1  0  0  0  0 
 23 24  1  0  0  0  0 
 23 25  1  0  0  0  0 
 23 26  1  0  0  0  0 
 26 27  1  0  0  0  0 
 26 28  1  0  0  0  0 
 26 29  1  0  0  0  0 
 29 30  1  0  0  0  0 
 30 31  1  0  0  0  0 
 30 32  1  0  0  0  0 
 30 33  1  0  0  0  0 
 22 33  1  0  0  0  0 
 33 34  1  0  0  0  0 
 33 35  1  0  0  0  0 
 36 29  1  1  0  0  0 
 36 37  1  6  0  0  0 
 36 38  1  0  0  0  0 
 38 39  1  0  0  0  0 
 38 40  2  0  0  0  0 
 40 41  1  0  0  0  0 
 41 42  2  0  0  0  0 
 41 43  1  0  0  0  0 
 43 44  1  0  0  0  0 
 44 45  1  0  0  0  0 
 44 46  1  0  0  0  0 
 44 47  1  0  0  0  0 
 47 48  1  0  0  0  0 
 47 49  1  0  0  0  0 
 47 50  1  0  0  0  0 
 50 51  1  0  0  0  0 
 43 51  1  0  0  0  0 
 51 52  1  0  0  0  0 
 51 53  1  0  0  0  0 
 40 54  1  0  0  0  0 
 54 55  1  0  0  0  0 
 54 56  1  0  0  0  0 
 36 56  1  0  0  0  0 
 56 57  1  0  0  0  0 
 56 58  1  0  0  0  0 
M  END
> <Rank>
57

> <Priority_score>
0.0104

> <Reaction_type>
alkyl dehydrogenation

> <Parent_ID>
58

> <Parent_InChI>
InChI=1S/C22H30N6OS/c1-17-13-21(28(24-17)18-5-3-2-4-6-18)26-9-7-25(8-10-26)19-14-20(23-15-19)22(29)27-11-12-30-16-27/h2-6,13,19-20,23H,7-12,14-16H2,1H3

> <Parent_SMILES>
Cc1cc(N2CCN([C@H]3CN[C@H](C(=O)N4CCSC4)C3)CC2)n(-c2ccccc2)n1

$$$$
Molecule 58_metabolite 60
  CDK     0516241031

 61 65  0  0  0  0  0  0  0  0999 V2000
    0.2652    2.4800    0.0000 C   0  0  0  0  0  0  0  0  0  0  0  0
   -1.0327    3.2321    0.0000 H   0  0  0  0  0  0  0  0  0  0  0  0
    0.7805    3.8887    0.0000 H   0  0  0  0  0  0  0  0  0  0  0  0
    1.7420    2.2171    0.0000 H   0  0  0  0  0  0  0  0  0  0  0  0
    0.2628    0.9800    0.0000 C   0  0  0  0  0  0  0  0  0  0  0  0
   -0.9568    0.1032    0.0000 N   0  0  0  0  0  0  0  0  0  0  0  0
   -0.4830   -1.3222    0.0000 N   0  0  0  0  0  0  0  0  0  0  0  0
   -1.5585   -2.3679    0.0000 C   0  0  0  0  0  0  0  0  0  0  0  0
   -1.1901   -3.8228    0.0000 C   0  0  0  0  0  0  0  0  0  0  0  0
    0.2533   -4.2311    0.0000 H   0  0  0  0  0  0  0  0  0  0  0  0
   -2.2655   -4.8684    0.0000 C   0  0  0  0  0  0  0  0  0  0  0  0
   -1.8980   -6.3226    0.0000 H   0  0  0  0  0  0  0  0  0  0  0  0
   -3.7095   -4.4591    0.0000 C   0  0  0  0  0  0  0  0  0  0  0  0
   -4.7850   -5.5047    0.0000 H   0  0  0  0  0  0  0  0  0  0  0  0
   -4.0780   -3.0042    0.0000 C   0  0  0  0  0  0  0  0  0  0  0  0
   -5.5213   -2.5958    0.0000 H   0  0  0  0  0  0  0  0  0  0  0  0
   -3.0025   -1.9586    0.0000 C   0  0  0  0  0  0  0  0  0  0  0  0
   -3.3700   -0.5043    0.0000 H   0  0  0  0  0  0  0  0  0  0  0  0
    1.0096   -1.3222    0.0000 C   0  0  0  0  0  0  0  0  0  0  0  0
    1.4719    0.1048    0.0000 C   0  0  0  0  0  0  0  0  0  0  0  0
    2.8979    0.5702    0.0000 H   0  0  0  0  0  0  0  0  0  0  0  0
    2.1741   -2.9236    0.0000 N   0  0  0  0  0  0  0  0  0  0  0  0
    3.6667   -2.7663    0.0000 C   0  0  0  0  0  0  0  0  0  0  0  0
    3.2525   -1.3246    0.0000 H   0  0  0  0  0  0  0  0  0  0  0  0
    5.0144   -2.1078    0.0000 H   0  0  0  0  0  0  0  0  0  0  0  0
    4.5500   -3.9797    0.0000 C   0  0  0  0  0  0  0  0  0  0  0  0
    5.5911   -2.8998    0.0000 H   0  0  0  0  0  0  0  0  0  0  0  0
    5.7942   -4.8176    0.0000 H   0  0  0  0  0  0  0  0  0  0  0  0
    3.9407   -5.3503    0.0000 N   0  0  0  0  0  0  0  0  0  0  0  0
    2.4482   -5.5076    0.0000 C   0  0  0  0  0  0  0  0  0  0  0  0
    2.8623   -6.9493    0.0000 H   0  0  0  0  0  0  0  0  0  0  0  0
    1.1004   -6.1662    0.0000 H   0  0  0  0  0  0  0  0  0  0  0  0
    1.5649   -4.2943    0.0000 C   0  0  0  0  0  0  0  0  0  0  0  0
    0.5238   -5.3741    0.0000 H   0  0  0  0  0  0  0  0  0  0  0  0
    0.3207   -3.4563    0.0000 H   0  0  0  0  0  0  0  0  0  0  0  0
    5.6699   -7.7281    0.0000 C   0  0  1  0  0  0  0  0  0  0  0  0
    4.3714   -8.4790    0.0000 H   0  0  0  0  0  0  0  0  0  0  0  0
    6.2784   -9.0911    0.0000 C   0  0  0  0  0  0  0  0  0  0  0  0
    4.8512   -9.5529    0.0000 H   0  0  0  0  0  0  0  0  0  0  0  0
    6.5852  -10.5594    0.0000 H   0  0  0  0  0  0  0  0  0  0  0  0
    7.7731   -8.9426    0.0000 N   0  0  0  0  0  0  0  0  0  0  0  0
    8.7769  -10.0572    0.0000 H   0  0  0  0  0  0  0  0  0  0  0  0
    8.0766   -7.4715    0.0000 C   0  0  1  0  0  0  0  0  0  0  0  0
    9.5049   -7.9297    0.0000 H   0  0  0  0  0  0  0  0  0  0  0  0
    6.7844   -6.7242    0.0000 C   0  0  0  0  0  0  0  0  0  0  0  0
    7.6666   -5.5111    0.0000 H   0  0  0  0  0  0  0  0  0  0  0  0
    5.6699   -5.7204    0.0000 O   0  0  0  0  0  0  0  0  0  0  0  0
    3.7867   -6.3319    0.0000 H   0  0  0  0  0  0  0  0  0  0  0  0
    8.8792   -5.6615    0.0000 C   0  0  0  0  0  0  0  0  0  0  0  0
    7.9956   -4.4493    0.0000 O   0  0  0  0  0  0  0  0  0  0  0  0
   10.3707   -5.5024    0.0000 N   0  0  0  0  0  0  0  0  0  0  0  0
   11.3766   -6.6152    0.0000 C   0  0  0  0  0  0  0  0  0  0  0  0
   10.1650   -7.4996    0.0000 H   0  0  0  0  0  0  0  0  0  0  0  0
   12.1299   -7.9123    0.0000 H   0  0  0  0  0  0  0  0  0  0  0  0
   12.7384   -6.0042    0.0000 C   0  0  0  0  0  0  0  0  0  0  0  0
   13.2028   -7.4305    0.0000 H   0  0  0  0  0  0  0  0  0  0  0  0
   14.2062   -5.6948    0.0000 H   0  0  0  0  0  0  0  0  0  0  0  0
   12.5873   -4.5098    0.0000 S   0  0  0  0  0  0  0  0  0  0  0  0
   11.1156   -4.2090    0.0000 C   0  0  0  0  0  0  0  0  0  0  0  0
   11.5712   -2.7798    0.0000 H   0  0  0  0  0  0  0  0  0  0  0  0
    9.7433   -3.6034    0.0000 H   0  0  0  0  0  0  0  0  0  0  0  0
  1  2  1  0  0  0  0 
  1  3  1  0  0  0  0 
  1  4  1  0  0  0  0 
  1  5  1  0  0  0  0 
  5  6  2  0  0  0  0 
  6  7  1  0  0  0  0 
  7  8  1  0  0  0  0 
  8  9  2  0  0  0  0 
  9 10  1  0  0  0  0 
  9 11  1  0  0  0  0 
 11 12  1  0  0  0  0 
 11 13  2  0  0  0  0 
 13 14  1  0  0  0  0 
 13 15  1  0  0  0  0 
 15 16  1  0  0  0  0 
 15 17  2  0  0  0  0 
  8 17  1  0  0  0  0 
 17 18  1  0  0  0  0 
  7 19  1  0  0  0  0 
 19 20  2  0  0  0  0 
  5 20  1  0  0  0  0 
 20 21  1  0  0  0  0 
 19 22  1  0  0  0  0 
 22 23  1  0  0  0  0 
 23 24  1  0  0  0  0 
 23 25  1  0  0  0  0 
 23 26  1  0  0  0  0 
 26 27  1  0  0  0  0 
 26 28  1  0  0  0  0 
 26 29  1  0  0  0  0 
 29 30  1  0  0  0  0 
 30 31  1  0  0  0  0 
 30 32  1  0  0  0  0 
 30 33  1  0  0  0  0 
 22 33  1  0  0  0  0 
 33 34  1  0  0  0  0 
 33 35  1  0  0  0  0 
 36 29  1  6  0  0  0 
 36 37  1  1  0  0  0 
 36 38  1  0  0  0  0 
 38 39  1  0  0  0  0 
 38 40  1  0  0  0  0 
 38 41  1  0  0  0  0 
 41 42  1  0  0  0  0 
 41 43  1  0  0  0  0 
 43 44  1  6  0  0  0 
 43 45  1  0  0  0  0 
 36 45  1  0  0  0  0 
 45 46  1  0  0  0  0 
 45 47  1  0  0  0  0 
 47 48  1  0  0  0  0 
 43 49  1  1  0  0  0 
 49 50  2  0  0  0  0 
 49 51  1  0  0  0  0 
 51 52  1  0  0  0  0 
 52 53  1  0  0  0  0 
 52 54  1  0  0  0  0 
 52 55  1  0  0  0  0 
 55 56  1  0  0  0  0 
 55 57  1  0  0  0  0 
 55 58  1  0  0  0  0 
 58 59  1  0  0  0  0 
 51 59  1  0  0  0  0 
 59 60  1  0  0  0  0 
 59 61  1  0  0  0  0 
M  END
> <Rank>
60

> <Priority_score>
0.008

> <Reaction_type>
aliphatic hydroxylation

> <Parent_ID>
58

> <Parent_InChI>
InChI=1S/C22H30N6OS/c1-17-13-21(28(24-17)18-5-3-2-4-6-18)26-9-7-25(8-10-26)19-14-20(23-15-19)22(29)27-11-12-30-16-27/h2-6,13,19-20,23H,7-12,14-16H2,1H3

> <Parent_SMILES>
Cc1cc(N2CCN([C@H]3CN[C@H](C(=O)N4CCSC4)C3)CC2)n(-c2ccccc2)n1

$$$$
Molecule 59
  CDK     0516241031

 22 25  0  0  0  0  0  0  0  0999 V2000
    2.5981    6.7347    0.0000 C   0  0  0  0  0  0  0  0  0  0  0  0
    1.2466    6.0838    0.0000 C   0  0  0  0  0  0  0  0  0  0  0  0
    0.9788    4.6079    0.0000 C   0  0  0  0  0  0  0  0  0  0  0  0
   -0.5076    4.4066    0.0000 C   0  0  0  0  0  0  0  0  0  0  0  0
   -1.1585    5.7581    0.0000 C   0  0  0  0  0  0  0  0  0  0  0  0
   -2.6209    6.0918    0.0000 N   0  0  0  0  0  0  0  0  0  0  0  0
   -3.7936    5.1566    0.0000 C   0  0  0  0  0  0  0  0  0  0  0  0
   -3.7936    3.6566    0.0000 C   0  0  0  0  0  0  0  0  0  0  0  0
   -5.0926    2.9066    0.0000 C   0  0  0  0  0  0  0  0  0  0  0  0
   -6.3917    3.6566    0.0000 C   0  0  0  0  0  0  0  0  0  0  0  0
   -6.3917    5.1566    0.0000 C   0  0  0  0  0  0  0  0  0  0  0  0
   -5.0926    5.9066    0.0000 C   0  0  0  0  0  0  0  0  0  0  0  0
   -2.6209    2.7214    0.0000 N   0  0  0  0  0  0  0  0  0  0  0  0
   -1.1585    3.0551    0.0000 C   0  0  0  0  0  0  0  0  0  0  0  0
   -0.2232    1.8824    0.0000 N   0  0  0  0  0  0  0  0  0  0  0  0
   -0.7713    0.4852    0.0000 C   0  0  0  0  0  0  0  0  0  0  0  0
    0.1639   -0.6886    0.0000 C   0  0  0  0  0  0  0  0  0  0  0  0
    1.6472   -0.4653    0.0000 N   0  0  0  0  0  0  0  0  0  0  0  0
    2.5824   -1.6380    0.0000 C   0  0  0  0  0  0  0  0  0  0  0  0
    2.1952    0.9319    0.0000 C   0  0  0  0  0  0  0  0  0  0  0  0
    1.2601    2.1057    0.0000 C   0  0  0  0  0  0  0  0  0  0  0  0
   -0.0743    6.7946    0.0000 S   0  0  0  0  0  0  0  0  0  0  0  0
  1  2  1  0  0  0  0 
  2  3  2  0  0  0  0 
  3  4  1  0  0  0  0 
  4  5  2  0  0  0  0 
  5  6  1  0  0  0  0 
  6  7  1  0  0  0  0 
  7  8  2  0  0  0  0 
  8  9  1  0  0  0  0 
  9 10  2  0  0  0  0 
 10 11  1  0  0  0  0 
 11 12  2  0  0  0  0 
  7 12  1  0  0  0  0 
  8 13  1  0  0  0  0 
 13 14  2  0  0  0  0 
  4 14  1  0  0  0  0 
 14 15  1  0  0  0  0 
 15 16  1  0  0  0  0 
 16 17  1  0  0  0  0 
 17 18  1  0  0  0  0 
 18 19  1  0  0  0  0 
 18 20  1  0  0  0  0 
 20 21  1  0  0  0  0 
 15 21  1  0  0  0  0 
  5 22  1  0  0  0  0 
  2 22  1  0  0  0  0 
M  END
> <SMILES>
Cc1cc2c(s1)Nc1ccccc1N=C2N1CCN(C)CC1

$$$$
Molecule 59_metabolite 1
  CDK     0516241031

 63 67  0  0  0  0  0  0  0  0999 V2000
   -8.6508    8.7325    0.0000 C   0  0  0  0  0  0  0  0  0  0  0  0
   -7.2993    9.3833    0.0000 H   0  0  0  0  0  0  0  0  0  0  0  0
   -9.0570   10.1765    0.0000 H   0  0  0  0  0  0  0  0  0  0  0  0
  -10.1433    8.5832    0.0000 H   0  0  0  0  0  0  0  0  0  0  0  0
   -8.7629    7.2367    0.0000 C   0  0  0  0  0  0  0  0  0  0  0  0
   -7.6186    6.2668    0.0000 C   0  0  0  0  0  0  0  0  0  0  0  0
   -6.1614    6.6224    0.0000 H   0  0  0  0  0  0  0  0  0  0  0  0
   -8.1875    4.8789    0.0000 C   0  0  0  0  0  0  0  0  0  0  0  0
   -9.6833    4.9910    0.0000 C   0  0  0  0  0  0  0  0  0  0  0  0
  -10.7035    3.8914    0.0000 N   0  0  0  0  0  0  0  0  0  0  0  0
  -12.1369    4.3335    0.0000 H   0  0  0  0  0  0  0  0  0  0  0  0
  -10.4800    2.4081    0.0000 C   0  0  0  0  0  0  0  0  0  0  0  0
   -9.1809    1.6581    0.0000 C   0  0  0  0  0  0  0  0  0  0  0  0
   -9.1809    0.1581    0.0000 C   0  0  0  0  0  0  0  0  0  0  0  0
   -7.8819   -0.5919    0.0000 H   0  0  0  0  0  0  0  0  0  0  0  0
  -10.4800   -0.5919    0.0000 C   0  0  0  0  0  0  0  0  0  0  0  0
  -10.4800   -2.0919    0.0000 H   0  0  0  0  0  0  0  0  0  0  0  0
  -11.7790    0.1581    0.0000 C   0  0  0  0  0  0  0  0  0  0  0  0
  -13.0781   -0.5919    0.0000 H   0  0  0  0  0  0  0  0  0  0  0  0
  -11.7790    1.6581    0.0000 C   0  0  0  0  0  0  0  0  0  0  0  0
  -13.0781    2.4081    0.0000 H   0  0  0  0  0  0  0  0  0  0  0  0
   -7.7846    2.2061    0.0000 N   0  0  0  0  0  0  0  0  0  0  0  0
   -7.3425    3.6395    0.0000 C   0  0  0  0  0  0  0  0  0  0  0  0
   -5.8592    3.8631    0.0000 N   0  0  0  0  0  0  0  0  0  0  0  0
   -5.3114    5.2603    0.0000 C   0  0  0  0  0  0  0  0  0  0  0  0
   -5.2741    6.7599    0.0000 H   0  0  0  0  0  0  0  0  0  0  0  0
   -6.7817    5.5572    0.0000 H   0  0  0  0  0  0  0  0  0  0  0  0
   -3.8281    5.4839    0.0000 C   0  0  0  0  0  0  0  0  0  0  0  0
   -2.5106    6.2010    0.0000 H   0  0  0  0  0  0  0  0  0  0  0  0
   -4.3057    6.9058    0.0000 H   0  0  0  0  0  0  0  0  0  0  0  0
   -2.8928    4.3102    0.0000 N   0  0  0  0  0  0  0  0  0  0  0  0
   -1.6127    3.5282    0.0000 C   0  0  0  0  0  0  0  0  0  0  0  0
   -1.6738    1.0689    0.0000 H   0  0  0  0  0  0  0  0  0  0  0  0
   -0.7142    5.8182    0.0000 H   0  0  0  0  0  0  0  0  0  0  0  0
   -0.1424    3.2311    0.0000 H   0  0  0  0  0  0  0  0  0  0  0  0
   -3.4406    2.9129    0.0000 C   0  0  0  0  0  0  0  0  0  0  0  0
   -3.4779    1.4134    0.0000 H   0  0  0  0  0  0  0  0  0  0  0  0
   -1.9703    2.6160    0.0000 H   0  0  0  0  0  0  0  0  0  0  0  0
   -4.9239    2.6894    0.0000 C   0  0  0  0  0  0  0  0  0  0  0  0
   -6.2414    1.9723    0.0000 H   0  0  0  0  0  0  0  0  0  0  0  0
   -4.4463    1.2674    0.0000 H   0  0  0  0  0  0  0  0  0  0  0  0
   -0.9472    6.5143    0.0000 C   0  0  0  0  0  0  0  0  0  0  0  0
   -2.6365    7.5471    0.0000 H   0  0  0  0  0  0  0  0  0  0  0  0
   -0.3987    7.9105    0.0000 C   0  0  0  0  0  0  0  0  0  0  0  0
   -1.8688    8.2083    0.0000 H   0  0  0  0  0  0  0  0  0  0  0  0
    1.0855    8.1332    0.0000 C   0  0  0  0  0  0  0  0  0  0  0  0
    0.6084    9.5553    0.0000 H   0  0  0  0  0  0  0  0  0  0  0  0
    2.0213    6.9598    0.0000 C   0  0  0  0  0  0  0  0  0  0  0  0
    3.0139    8.0844    0.0000 H   0  0  0  0  0  0  0  0  0  0  0  0
    1.4728    5.5637    0.0000 C   0  0  0  0  0  0  0  0  0  0  0  0
    2.9429    5.2658    0.0000 H   0  0  0  0  0  0  0  0  0  0  0  0
    1.4102    3.1045    0.0000 C   0  0  0  0  0  0  0  0  0  0  0  0
    0.0924    2.3878    0.0000 O   0  0  0  0  0  0  0  0  0  0  0  0
    2.6897    2.3216    0.0000 O   0  0  0  0  0  0  0  0  0  0  0  0
    4.0074    3.0383    0.0000 H   0  0  0  0  0  0  0  0  0  0  0  0
   -0.0114    5.3409    0.0000 O   0  0  0  0  0  0  0  0  0  0  0  0
    3.3010    6.1774    0.0000 O   0  0  0  0  0  0  0  0  0  0  0  0
    4.6185    6.8945    0.0000 H   0  0  0  0  0  0  0  0  0  0  0  0
    2.4030    8.8503    0.0000 O   0  0  0  0  0  0  0  0  0  0  0  0
    2.4407   10.3498    0.0000 H   0  0  0  0  0  0  0  0  0  0  0  0
   -0.3605    9.4100    0.0000 O   0  0  0  0  0  0  0  0  0  0  0  0
   -1.6400   10.1928    0.0000 H   0  0  0  0  0  0  0  0  0  0  0  0
  -10.0389    6.4482    0.0000 S   0  0  0  0  0  0  0  0  0  0  0  0
  1  2  1  0  0  0  0 
  1  3  1  0  0  0  0 
  1  4  1  0  0  0  0 
  1  5  1  0  0  0  0 
  5  6  2  0  0  0  0 
  6  7  1  0  0  0  0 
  6  8  1  0  0  0  0 
  8  9  2  0  0  0  0 
  9 10  1  0  0  0  0 
 10 11  1  0  0  0  0 
 10 12  1  0  0  0  0 
 12 13  2  0  0  0  0 
 13 14  1  0  0  0  0 
 14 15  1  0  0  0  0 
 14 16  2  0  0  0  0 
 16 17  1  0  0  0  0 
 16 18  1  0  0  0  0 
 18 19  1  0  0  0  0 
 18 20  2  0  0  0  0 
 12 20  1  0  0  0  0 
 20 21  1  0  0  0  0 
 13 22  1  0  0  0  0 
 22 23  2  0  0  0  0 
  8 23  1  0  0  0  0 
 23 24  1  0  0  0  0 
 24 25  1  0  0  0  0 
 25 26  1  0  0  0  0 
 25 27  1  0  0  0  0 
 25 28  1  0  0  0  0 
 28 29  1  0  0  0  0 
 28 30  1  0  0  0  0 
 28 31  1  0  0  0  0 
 31 32  1  0  0  0  0 
 32 33  1  0  0  0  0 
 32 34  1  0  0  0  0 
 32 35  1  0  0  0  0 
 31 36  1  0  0  0  0 
 36 37  1  0  0  0  0 
 36 38  1  0  0  0  0 
 36 39  1  0  0  0  0 
 24 39  1  0  0  0  0 
 39 40  1  0  0  0  0 
 39 41  1  0  0  0  0 
 31 42  1  0  0  0  0 
 42 43  1  0  0  0  0 
 42 44  1  0  0  0  0 
 44 45  1  0  0  0  0 
 44 46  1  0  0  0  0 
 46 47  1  0  0  0  0 
 46 48  1  0  0  0  0 
 48 49  1  0  0  0  0 
 48 50  1  0  0  0  0 
 50 51  1  0  0  0  0 
 50 52  1  0  0  0  0 
 52 53  2  0  0  0  0 
 52 54  1  0  0  0  0 
 54 55  1  0  0  0  0 
 50 56  1  0  0  0  0 
 42 56  1  0  0  0  0 
 48 57  1  0  0  0  0 
 57 58  1  0  0  0  0 
 46 59  1  0  0  0  0 
 59 60  1  0  0  0  0 
 44 61  1  0  0  0  0 
 61 62  1  0  0  0  0 
  9 63  1  0  0  0  0 
  5 63  1  0  0  0  0 
M  CHG  1  31   1
M  END
> <Rank>
1

> <Priority_score>
0.924

> <Reaction_type>
N-glucuronidation_(NCH3_in_a_ring)

> <Parent_ID>
59

> <Parent_InChI>
InChI=1S/C17H20N4S/c1-12-11-13-16(21-9-7-20(2)8-10-21)18-14-5-3-4-6-15(14)19-17(13)22-12/h3-6,11,19H,7-10H2,1-2H3

> <Parent_SMILES>
Cc1cc2c(s1)Nc1ccccc1N=C2N1CCN(C)CC1

$$$$
Molecule 59_metabolite 2
  CDK     0516241031

 43 46  0  0  0  0  0  0  0  0999 V2000
   -3.9215    9.3992    0.0000 C   0  0  0  0  0  0  0  0  0  0  0  0
   -2.5701   10.0500    0.0000 H   0  0  0  0  0  0  0  0  0  0  0  0
   -4.3278   10.8431    0.0000 H   0  0  0  0  0  0  0  0  0  0  0  0
   -5.4141    9.2498    0.0000 H   0  0  0  0  0  0  0  0  0  0  0  0
   -4.0336    7.9034    0.0000 C   0  0  0  0  0  0  0  0  0  0  0  0
   -2.8894    6.9335    0.0000 C   0  0  0  0  0  0  0  0  0  0  0  0
   -1.4321    7.2891    0.0000 H   0  0  0  0  0  0  0  0  0  0  0  0
   -3.4582    5.5455    0.0000 C   0  0  0  0  0  0  0  0  0  0  0  0
   -4.9540    5.6576    0.0000 C   0  0  0  0  0  0  0  0  0  0  0  0
   -5.9743    4.5580    0.0000 N   0  0  0  0  0  0  0  0  0  0  0  0
   -7.4076    5.0002    0.0000 H   0  0  0  0  0  0  0  0  0  0  0  0
   -5.7507    3.0748    0.0000 C   0  0  0  0  0  0  0  0  0  0  0  0
   -4.4517    2.3248    0.0000 C   0  0  0  0  0  0  0  0  0  0  0  0
   -4.4517    0.8248    0.0000 C   0  0  0  0  0  0  0  0  0  0  0  0
   -3.1526    0.0748    0.0000 H   0  0  0  0  0  0  0  0  0  0  0  0
   -5.7507    0.0748    0.0000 C   0  0  0  0  0  0  0  0  0  0  0  0
   -5.7507   -1.4252    0.0000 H   0  0  0  0  0  0  0  0  0  0  0  0
   -7.0497    0.8248    0.0000 C   0  0  0  0  0  0  0  0  0  0  0  0
   -8.3488    0.0748    0.0000 H   0  0  0  0  0  0  0  0  0  0  0  0
   -7.0497    2.3248    0.0000 C   0  0  0  0  0  0  0  0  0  0  0  0
   -8.3488    3.0748    0.0000 H   0  0  0  0  0  0  0  0  0  0  0  0
   -3.0553    2.8728    0.0000 N   0  0  0  0  0  0  0  0  0  0  0  0
   -2.6132    4.3061    0.0000 C   0  0  0  0  0  0  0  0  0  0  0  0
   -1.1300    4.5297    0.0000 N   0  0  0  0  0  0  0  0  0  0  0  0
   -0.1940    3.3565    0.0000 C   0  0  0  0  0  0  0  0  0  0  0  0
   -1.5114    2.6391    0.0000 H   0  0  0  0  0  0  0  0  0  0  0  0
    0.2833    1.9344    0.0000 H   0  0  0  0  0  0  0  0  0  0  0  0
    1.2901    3.5794    0.0000 C   0  0  0  0  0  0  0  0  0  0  0  0
    1.2522    2.0799    0.0000 H   0  0  0  0  0  0  0  0  0  0  0  0
    2.7603    3.2818    0.0000 H   0  0  0  0  0  0  0  0  0  0  0  0
    1.8384    4.9757    0.0000 N   0  0  0  0  0  0  0  0  0  0  0  0
    0.9024    6.1489    0.0000 C   0  0  0  0  0  0  0  0  0  0  0  0
    2.2198    6.8662    0.0000 H   0  0  0  0  0  0  0  0  0  0  0  0
    0.4251    7.5709    0.0000 H   0  0  0  0  0  0  0  0  0  0  0  0
   -0.5817    5.9259    0.0000 C   0  0  0  0  0  0  0  0  0  0  0  0
   -0.5438    7.4254    0.0000 H   0  0  0  0  0  0  0  0  0  0  0  0
   -2.0519    6.2235    0.0000 H   0  0  0  0  0  0  0  0  0  0  0  0
    3.7963    5.2708    0.0000 C   0  0  0  0  0  0  0  0  0  0  0  0
    5.1136    5.9881    0.0000 H   0  0  0  0  0  0  0  0  0  0  0  0
    3.3185    6.6926    0.0000 H   0  0  0  0  0  0  0  0  0  0  0  0
    4.7315    4.0980    0.0000 O   0  0  0  0  0  0  0  0  0  0  0  0
    6.2148    4.3216    0.0000 H   0  0  0  0  0  0  0  0  0  0  0  0
   -5.3096    7.1148    0.0000 S   0  0  0  0  0  0  0  0  0  0  0  0
  1  2  1  0  0  0  0 
  1  3  1  0  0  0  0 
  1  4  1  0  0  0  0 
  1  5  1  0  0  0  0 
  5  6  2  0  0  0  0 
  6  7  1  0  0  0  0 
  6  8  1  0  0  0  0 
  8  9  2  0  0  0  0 
  9 10  1  0  0  0  0 
 10 11  1  0  0  0  0 
 10 12  1  0  0  0  0 
 12 13  2  0  0  0  0 
 13 14  1  0  0  0  0 
 14 15  1  0  0  0  0 
 14 16  2  0  0  0  0 
 16 17  1  0  0  0  0 
 16 18  1  0  0  0  0 
 18 19  1  0  0  0  0 
 18 20  2  0  0  0  0 
 12 20  1  0  0  0  0 
 20 21  1  0  0  0  0 
 13 22  1  0  0  0  0 
 22 23  2  0  0  0  0 
  8 23  1  0  0  0  0 
 23 24  1  0  0  0  0 
 24 25  1  0  0  0  0 
 25 26  1  0  0  0  0 
 25 27  1  0  0  0  0 
 25 28  1  0  0  0  0 
 28 29  1  0  0  0  0 
 28 30  1  0  0  0  0 
 28 31  1  0  0  0  0 
 31 32  1  0  0  0  0 
 32 33  1  0  0  0  0 
 32 34  1  0  0  0  0 
 32 35  1  0  0  0  0 
 24 35  1  0  0  0  0 
 35 36  1  0  0  0  0 
 35 37  1  0  0  0  0 
 31 38  1  0  0  0  0 
 38 39  1  0  0  0  0 
 38 40  1  0  0  0  0 
 38 41  1  0  0  0  0 
 41 42  1  0  0  0  0 
  9 43  1  0  0  0  0 
  5 43  1  0  0  0  0 
M  END
> <Rank>
2

> <Priority_score>
0.812

> <Reaction_type>
aliphatic hydroxylation

> <Parent_ID>
59

> <Parent_InChI>
InChI=1S/C17H20N4S/c1-12-11-13-16(21-9-7-20(2)8-10-21)18-14-5-3-4-6-15(14)19-17(13)22-12/h3-6,11,19H,7-10H2,1-2H3

> <Parent_SMILES>
Cc1cc2c(s1)Nc1ccccc1N=C2N1CCN(C)CC1

$$$$
Molecule 59_metabolite 3
  CDK     0516241031

 39 42  0  0  0  0  0  0  0  0999 V2000
   -2.9067    8.0598    0.0000 C   0  0  0  0  0  0  0  0  0  0  0  0
   -1.5552    8.7106    0.0000 H   0  0  0  0  0  0  0  0  0  0  0  0
   -3.3129    9.5037    0.0000 H   0  0  0  0  0  0  0  0  0  0  0  0
   -4.3992    7.9105    0.0000 H   0  0  0  0  0  0  0  0  0  0  0  0
   -3.0188    6.5640    0.0000 C   0  0  0  0  0  0  0  0  0  0  0  0
   -1.8745    5.5941    0.0000 C   0  0  0  0  0  0  0  0  0  0  0  0
   -0.4173    5.9497    0.0000 H   0  0  0  0  0  0  0  0  0  0  0  0
   -2.4434    4.2061    0.0000 C   0  0  0  0  0  0  0  0  0  0  0  0
   -3.9392    4.3182    0.0000 C   0  0  0  0  0  0  0  0  0  0  0  0
   -4.9594    3.2187    0.0000 N   0  0  0  0  0  0  0  0  0  0  0  0
   -6.3928    3.6608    0.0000 H   0  0  0  0  0  0  0  0  0  0  0  0
   -4.7359    1.7354    0.0000 C   0  0  0  0  0  0  0  0  0  0  0  0
   -3.4368    0.9854    0.0000 C   0  0  0  0  0  0  0  0  0  0  0  0
   -3.4368   -0.5146    0.0000 C   0  0  0  0  0  0  0  0  0  0  0  0
   -2.1378   -1.2646    0.0000 H   0  0  0  0  0  0  0  0  0  0  0  0
   -4.7359   -1.2646    0.0000 C   0  0  0  0  0  0  0  0  0  0  0  0
   -4.7359   -2.7646    0.0000 H   0  0  0  0  0  0  0  0  0  0  0  0
   -6.0349   -0.5146    0.0000 C   0  0  0  0  0  0  0  0  0  0  0  0
   -7.3339   -1.2646    0.0000 H   0  0  0  0  0  0  0  0  0  0  0  0
   -6.0349    0.9854    0.0000 C   0  0  0  0  0  0  0  0  0  0  0  0
   -7.3339    1.7354    0.0000 H   0  0  0  0  0  0  0  0  0  0  0  0
   -2.0405    1.5334    0.0000 N   0  0  0  0  0  0  0  0  0  0  0  0
   -1.5984    2.9668    0.0000 C   0  0  0  0  0  0  0  0  0  0  0  0
   -0.1151    3.1904    0.0000 N   0  0  0  0  0  0  0  0  0  0  0  0
    0.4327    4.5876    0.0000 C   0  0  0  0  0  0  0  0  0  0  0  0
    0.4700    6.0872    0.0000 H   0  0  0  0  0  0  0  0  0  0  0  0
   -1.0376    4.8845    0.0000 H   0  0  0  0  0  0  0  0  0  0  0  0
    1.9160    4.8112    0.0000 C   0  0  0  0  0  0  0  0  0  0  0  0
    3.2335    5.5283    0.0000 H   0  0  0  0  0  0  0  0  0  0  0  0
    1.4384    6.2331    0.0000 H   0  0  0  0  0  0  0  0  0  0  0  0
    2.8514    3.6375    0.0000 N   0  0  0  0  0  0  0  0  0  0  0  0
    4.3346    3.8610    0.0000 H   0  0  0  0  0  0  0  0  0  0  0  0
    2.3035    2.2402    0.0000 C   0  0  0  0  0  0  0  0  0  0  0  0
    2.2663    0.7407    0.0000 H   0  0  0  0  0  0  0  0  0  0  0  0
    3.7738    1.9433    0.0000 H   0  0  0  0  0  0  0  0  0  0  0  0
    0.8202    2.0167    0.0000 C   0  0  0  0  0  0  0  0  0  0  0  0
   -0.4972    1.2996    0.0000 H   0  0  0  0  0  0  0  0  0  0  0  0
    1.2978    0.5947    0.0000 H   0  0  0  0  0  0  0  0  0  0  0  0
   -4.2948    5.7755    0.0000 S   0  0  0  0  0  0  0  0  0  0  0  0
  1  2  1  0  0  0  0 
  1  3  1  0  0  0  0 
  1  4  1  0  0  0  0 
  1  5  1  0  0  0  0 
  5  6  2  0  0  0  0 
  6  7  1  0  0  0  0 
  6  8  1  0  0  0  0 
  8  9  2  0  0  0  0 
  9 10  1  0  0  0  0 
 10 11  1  0  0  0  0 
 10 12  1  0  0  0  0 
 12 13  2  0  0  0  0 
 13 14  1  0  0  0  0 
 14 15  1  0  0  0  0 
 14 16  2  0  0  0  0 
 16 17  1  0  0  0  0 
 16 18  1  0  0  0  0 
 18 19  1  0  0  0  0 
 18 20  2  0  0  0  0 
 12 20  1  0  0  0  0 
 20 21  1  0  0  0  0 
 13 22  1  0  0  0  0 
 22 23  2  0  0  0  0 
  8 23  1  0  0  0  0 
 23 24  1  0  0  0  0 
 24 25  1  0  0  0  0 
 25 26  1  0  0  0  0 
 25 27  1  0  0  0  0 
 25 28  1  0  0  0  0 
 28 29  1  0  0  0  0 
 28 30  1  0  0  0  0 
 28 31  1  0  0  0  0 
 31 32  1  0  0  0  0 
 31 33  1  0  0  0  0 
 33 34  1  0  0  0  0 
 33 35  1  0  0  0  0 
 33 36  1  0  0  0  0 
 24 36  1  0  0  0  0 
 36 37  1  0  0  0  0 
 36 38  1  0  0  0  0 
  9 39  1  0  0  0  0 
  5 39  1  0  0  0  0 
M  END
> <Rank>
2

> <Priority_score>
0.812

> <Reaction_type>
N-demethylation_(R-N(CR)CH3)

> <Parent_ID>
59

> <Parent_InChI>
InChI=1S/C17H20N4S/c1-12-11-13-16(21-9-7-20(2)8-10-21)18-14-5-3-4-6-15(14)19-17(13)22-12/h3-6,11,19H,7-10H2,1-2H3

> <Parent_SMILES>
Cc1cc2c(s1)Nc1ccccc1N=C2N1CCN(C)CC1

$$$$
Molecule 59_metabolite 4
  CDK     0516241031

 38 40  0  0  0  0  0  0  0  0999 V2000
    0.2850   -2.9480    0.0000 C   0  0  0  0  0  0  0  0  0  0  0  0
   -1.0665   -3.5988    0.0000 H   0  0  0  0  0  0  0  0  0  0  0  0
    0.6912   -4.3919    0.0000 H   0  0  0  0  0  0  0  0  0  0  0  0
    1.7775   -2.7986    0.0000 H   0  0  0  0  0  0  0  0  0  0  0  0
    0.3971   -1.4522    0.0000 C   0  0  0  0  0  0  0  0  0  0  0  0
   -0.7472   -0.4823    0.0000 C   0  0  0  0  0  0  0  0  0  0  0  0
   -2.2044   -0.8379    0.0000 H   0  0  0  0  0  0  0  0  0  0  0  0
   -0.1783    0.9057    0.0000 C   0  0  0  0  0  0  0  0  0  0  0  0
    1.3175    0.7936    0.0000 C   0  0  0  0  0  0  0  0  0  0  0  0
    2.3377    1.8931    0.0000 N   0  0  0  0  0  0  0  0  0  0  0  0
    3.7711    1.4510    0.0000 H   0  0  0  0  0  0  0  0  0  0  0  0
    2.1142    3.3764    0.0000 C   0  0  0  0  0  0  0  0  0  0  0  0
    0.8151    4.1264    0.0000 C   0  0  0  0  0  0  0  0  0  0  0  0
    0.8151    5.6264    0.0000 C   0  0  0  0  0  0  0  0  0  0  0  0
   -0.4839    6.3764    0.0000 H   0  0  0  0  0  0  0  0  0  0  0  0
    2.1142    6.3764    0.0000 C   0  0  0  0  0  0  0  0  0  0  0  0
    2.1142    7.8764    0.0000 H   0  0  0  0  0  0  0  0  0  0  0  0
    3.4132    5.6264    0.0000 C   0  0  0  0  0  0  0  0  0  0  0  0
    4.7122    6.3764    0.0000 H   0  0  0  0  0  0  0  0  0  0  0  0
    3.4132    4.1264    0.0000 C   0  0  0  0  0  0  0  0  0  0  0  0
    4.7122    3.3764    0.0000 H   0  0  0  0  0  0  0  0  0  0  0  0
   -0.5812    3.5784    0.0000 N   0  0  0  0  0  0  0  0  0  0  0  0
   -1.0233    2.1450    0.0000 C   0  0  0  0  0  0  0  0  0  0  0  0
   -2.5066    1.9215    0.0000 N   0  0  0  0  0  0  0  0  0  0  0  0
   -3.0546    0.5251    0.0000 H   0  0  0  0  0  0  0  0  0  0  0  0
   -3.4418    3.0942    0.0000 C   0  0  0  0  0  0  0  0  0  0  0  0
   -2.1245    3.8116    0.0000 H   0  0  0  0  0  0  0  0  0  0  0  0
   -3.9195    4.5161    0.0000 H   0  0  0  0  0  0  0  0  0  0  0  0
   -4.9250    2.8706    0.0000 C   0  0  0  0  0  0  0  0  0  0  0  0
   -6.2424    2.1533    0.0000 H   0  0  0  0  0  0  0  0  0  0  0  0
   -4.4473    1.4488    0.0000 H   0  0  0  0  0  0  0  0  0  0  0  0
   -5.8603    4.0434    0.0000 N   0  0  0  0  0  0  0  0  0  0  0  0
   -5.3123    5.4397    0.0000 H   0  0  0  0  0  0  0  0  0  0  0  0
   -7.3435    3.8198    0.0000 C   0  0  0  0  0  0  0  0  0  0  0  0
   -7.8915    2.4235    0.0000 H   0  0  0  0  0  0  0  0  0  0  0  0
   -8.8138    4.1170    0.0000 H   0  0  0  0  0  0  0  0  0  0  0  0
   -7.3061    5.3194    0.0000 H   0  0  0  0  0  0  0  0  0  0  0  0
    1.6731   -0.6637    0.0000 S   0  0  0  0  0  0  0  0  0  0  0  0
  1  2  1  0  0  0  0 
  1  3  1  0  0  0  0 
  1  4  1  0  0  0  0 
  1  5  1  0  0  0  0 
  5  6  2  0  0  0  0 
  6  7  1  0  0  0  0 
  6  8  1  0  0  0  0 
  8  9  2  0  0  0  0 
  9 10  1  0  0  0  0 
 10 11  1  0  0  0  0 
 10 12  1  0  0  0  0 
 12 13  2  0  0  0  0 
 13 14  1  0  0  0  0 
 14 15  1  0  0  0  0 
 14 16  2  0  0  0  0 
 16 17  1  0  0  0  0 
 16 18  1  0  0  0  0 
 18 19  1  0  0  0  0 
 18 20  2  0  0  0  0 
 12 20  1  0  0  0  0 
 20 21  1  0  0  0  0 
 13 22  1  0  0  0  0 
 22 23  2  0  0  0  0 
  8 23  1  0  0  0  0 
 23 24  1  0  0  0  0 
 24 25  1  0  0  0  0 
 24 26  1  0  0  0  0 
 26 27  1  0  0  0  0 
 26 28  1  0  0  0  0 
 26 29  1  0  0  0  0 
 29 30  1  0  0  0  0 
 29 31  1  0  0  0  0 
 29 32  1  0  0  0  0 
 32 33  1  0  0  0  0 
 32 34  1  0  0  0  0 
 34 35  1  0  0  0  0 
 34 36  1  0  0  0  0 
 34 37  1  0  0  0  0 
  9 38  1  0  0  0  0 
  5 38  1  0  0  0  0 
M  END
> <Rank>
2

> <Priority_score>
0.812

> <Reaction_type>
N-dealkylation of piperazine

> <Parent_ID>
59

> <Parent_InChI>
InChI=1S/C17H20N4S/c1-12-11-13-16(21-9-7-20(2)8-10-21)18-14-5-3-4-6-15(14)19-17(13)22-12/h3-6,11,19H,7-10H2,1-2H3

> <Parent_SMILES>
Cc1cc2c(s1)Nc1ccccc1N=C2N1CCN(C)CC1

$$$$
Molecule 59_metabolite 5
  CDK     0516241031

 43 46  0  0  0  0  0  0  0  0999 V2000
   -3.8983    8.7765    0.0000 C   0  0  0  0  0  0  0  0  0  0  0  0
   -2.5469    9.4273    0.0000 H   0  0  0  0  0  0  0  0  0  0  0  0
   -4.3046   10.2204    0.0000 H   0  0  0  0  0  0  0  0  0  0  0  0
   -5.3909    8.6271    0.0000 H   0  0  0  0  0  0  0  0  0  0  0  0
   -4.0104    7.2806    0.0000 C   0  0  0  0  0  0  0  0  0  0  0  0
   -2.8662    6.3107    0.0000 C   0  0  0  0  0  0  0  0  0  0  0  0
   -1.4090    6.6664    0.0000 H   0  0  0  0  0  0  0  0  0  0  0  0
   -3.4350    4.9228    0.0000 C   0  0  0  0  0  0  0  0  0  0  0  0
   -4.9308    5.0349    0.0000 C   0  0  0  0  0  0  0  0  0  0  0  0
   -5.9511    3.9353    0.0000 N   0  0  0  0  0  0  0  0  0  0  0  0
   -7.3845    4.3774    0.0000 H   0  0  0  0  0  0  0  0  0  0  0  0
   -5.7275    2.4521    0.0000 C   0  0  0  0  0  0  0  0  0  0  0  0
   -4.4285    1.7021    0.0000 C   0  0  0  0  0  0  0  0  0  0  0  0
   -4.4285    0.2021    0.0000 C   0  0  0  0  0  0  0  0  0  0  0  0
   -3.1295   -0.5479    0.0000 H   0  0  0  0  0  0  0  0  0  0  0  0
   -5.7275   -0.5479    0.0000 C   0  0  0  0  0  0  0  0  0  0  0  0
   -5.7275   -2.0479    0.0000 H   0  0  0  0  0  0  0  0  0  0  0  0
   -7.0266    0.2021    0.0000 C   0  0  0  0  0  0  0  0  0  0  0  0
   -8.3256   -0.5479    0.0000 H   0  0  0  0  0  0  0  0  0  0  0  0
   -7.0266    1.7021    0.0000 C   0  0  0  0  0  0  0  0  0  0  0  0
   -8.3256    2.4521    0.0000 H   0  0  0  0  0  0  0  0  0  0  0  0
   -3.0322    2.2501    0.0000 N   0  0  0  0  0  0  0  0  0  0  0  0
   -2.5901    3.6834    0.0000 C   0  0  0  0  0  0  0  0  0  0  0  0
   -1.1068    3.9070    0.0000 N   0  0  0  0  0  0  0  0  0  0  0  0
   -0.5589    5.3043    0.0000 C   0  0  0  0  0  0  0  0  0  0  0  0
   -0.5217    6.8038    0.0000 H   0  0  0  0  0  0  0  0  0  0  0  0
   -2.0293    5.6012    0.0000 H   0  0  0  0  0  0  0  0  0  0  0  0
    0.9243    5.5278    0.0000 C   0  0  0  0  0  0  0  0  0  0  0  0
    2.2418    6.2449    0.0000 H   0  0  0  0  0  0  0  0  0  0  0  0
    0.4467    6.9498    0.0000 H   0  0  0  0  0  0  0  0  0  0  0  0
    1.8597    4.3541    0.0000 N   0  0  0  0  0  0  0  0  0  0  0  0
    3.9589    3.0716    0.0000 C   0  0  0  0  0  0  0  0  0  0  0  0
    3.9217    1.5721    0.0000 H   0  0  0  0  0  0  0  0  0  0  0  0
    4.5068    4.4680    0.0000 H   0  0  0  0  0  0  0  0  0  0  0  0
    5.4292    2.7746    0.0000 H   0  0  0  0  0  0  0  0  0  0  0  0
    1.3118    2.9569    0.0000 C   0  0  0  0  0  0  0  0  0  0  0  0
    1.2746    1.4573    0.0000 H   0  0  0  0  0  0  0  0  0  0  0  0
    2.7821    2.6600    0.0000 H   0  0  0  0  0  0  0  0  0  0  0  0
   -0.1714    2.7333    0.0000 C   0  0  0  0  0  0  0  0  0  0  0  0
   -1.4889    2.0162    0.0000 H   0  0  0  0  0  0  0  0  0  0  0  0
    0.3061    1.3114    0.0000 H   0  0  0  0  0  0  0  0  0  0  0  0
    2.8523    5.4787    0.0000 O   0  0  0  0  0  0  0  0  0  0  0  0
   -5.2865    6.4921    0.0000 S   0  0  0  0  0  0  0  0  0  0  0  0
  1  2  1  0  0  0  0 
  1  3  1  0  0  0  0 
  1  4  1  0  0  0  0 
  1  5  1  0  0  0  0 
  5  6  2  0  0  0  0 
  6  7  1  0  0  0  0 
  6  8  1  0  0  0  0 
  8  9  2  0  0  0  0 
  9 10  1  0  0  0  0 
 10 11  1  0  0  0  0 
 10 12  1  0  0  0  0 
 12 13  2  0  0  0  0 
 13 14  1  0  0  0  0 
 14 15  1  0  0  0  0 
 14 16  2  0  0  0  0 
 16 17  1  0  0  0  0 
 16 18  1  0  0  0  0 
 18 19  1  0  0  0  0 
 18 20  2  0  0  0  0 
 12 20  1  0  0  0  0 
 20 21  1  0  0  0  0 
 13 22  1  0  0  0  0 
 22 23  2  0  0  0  0 
  8 23  1  0  0  0  0 
 23 24  1  0  0  0  0 
 24 25  1  0  0  0  0 
 25 26  1  0  0  0  0 
 25 27  1  0  0  0  0 
 25 28  1  0  0  0  0 
 28 29  1  0  0  0  0 
 28 30  1  0  0  0  0 
 28 31  1  0  0  0  0 
 31 32  1  0  0  0  0 
 32 33  1  0  0  0  0 
 32 34  1  0  0  0  0 
 32 35  1  0  0  0  0 
 31 36  1  0  0  0  0 
 36 37  1  0  0  0  0 
 36 38  1  0  0  0  0 
 36 39  1  0  0  0  0 
 24 39  1  0  0  0  0 
 39 40  1  0  0  0  0 
 39 41  1  0  0  0  0 
 31 42  1  0  0  0  0 
  9 43  1  0  0  0  0 
  5 43  1  0  0  0  0 
M  CHG  1  31   1
M  CHG  1  42  -1
M  END
> <Rank>
2

> <Priority_score>
0.812

> <Reaction_type>
N-oxidation_(tertiary_NCH3)

> <Parent_ID>
59

> <Parent_InChI>
InChI=1S/C17H20N4S/c1-12-11-13-16(21-9-7-20(2)8-10-21)18-14-5-3-4-6-15(14)19-17(13)22-12/h3-6,11,19H,7-10H2,1-2H3

> <Parent_SMILES>
Cc1cc2c(s1)Nc1ccccc1N=C2N1CCN(C)CC1

$$$$
Molecule 59_metabolite 6
  CDK     0516241031

 43 45  0  0  0  0  0  0  0  0999 V2000
    0.2850   -2.9480    0.0000 C   0  0  0  0  0  0  0  0  0  0  0  0
   -1.0665   -3.5988    0.0000 H   0  0  0  0  0  0  0  0  0  0  0  0
    0.6912   -4.3919    0.0000 H   0  0  0  0  0  0  0  0  0  0  0  0
    1.7775   -2.7986    0.0000 H   0  0  0  0  0  0  0  0  0  0  0  0
    0.3971   -1.4522    0.0000 C   0  0  0  0  0  0  0  0  0  0  0  0
   -0.7472   -0.4823    0.0000 C   0  0  0  0  0  0  0  0  0  0  0  0
   -2.2044   -0.8379    0.0000 H   0  0  0  0  0  0  0  0  0  0  0  0
   -0.1783    0.9057    0.0000 C   0  0  0  0  0  0  0  0  0  0  0  0
    1.3175    0.7936    0.0000 C   0  0  0  0  0  0  0  0  0  0  0  0
    2.3377    1.8931    0.0000 N   0  0  0  0  0  0  0  0  0  0  0  0
    3.7711    1.4510    0.0000 H   0  0  0  0  0  0  0  0  0  0  0  0
    2.1142    3.3764    0.0000 C   0  0  0  0  0  0  0  0  0  0  0  0
    0.8151    4.1264    0.0000 C   0  0  0  0  0  0  0  0  0  0  0  0
    0.8151    5.6264    0.0000 C   0  0  0  0  0  0  0  0  0  0  0  0
   -0.4839    6.3764    0.0000 H   0  0  0  0  0  0  0  0  0  0  0  0
    2.1142    6.3764    0.0000 C   0  0  0  0  0  0  0  0  0  0  0  0
    2.1142    7.8764    0.0000 H   0  0  0  0  0  0  0  0  0  0  0  0
    3.4132    5.6264    0.0000 C   0  0  0  0  0  0  0  0  0  0  0  0
    4.7122    6.3764    0.0000 H   0  0  0  0  0  0  0  0  0  0  0  0
    3.4132    4.1264    0.0000 C   0  0  0  0  0  0  0  0  0  0  0  0
    4.7122    3.3764    0.0000 H   0  0  0  0  0  0  0  0  0  0  0  0
   -0.5812    3.5784    0.0000 N   0  0  0  0  0  0  0  0  0  0  0  0
   -1.0233    2.1450    0.0000 C   0  0  0  0  0  0  0  0  0  0  0  0
   -2.5066    1.9215    0.0000 N   0  0  0  0  0  0  0  0  0  0  0  0
   -3.4418    3.0942    0.0000 C   0  0  0  0  0  0  0  0  0  0  0  0
   -2.1245    3.8116    0.0000 H   0  0  0  0  0  0  0  0  0  0  0  0
   -3.9195    4.5161    0.0000 H   0  0  0  0  0  0  0  0  0  0  0  0
   -4.9250    2.8706    0.0000 C   0  0  0  0  0  0  0  0  0  0  0  0
   -6.2424    2.1533    0.0000 H   0  0  0  0  0  0  0  0  0  0  0  0
   -4.4473    1.4488    0.0000 H   0  0  0  0  0  0  0  0  0  0  0  0
   -5.8603    4.0434    0.0000 N   0  0  0  0  0  0  0  0  0  0  0  0
   -5.3123    5.4397    0.0000 H   0  0  0  0  0  0  0  0  0  0  0  0
   -7.3435    3.8198    0.0000 C   0  0  0  0  0  0  0  0  0  0  0  0
   -7.8915    2.4235    0.0000 H   0  0  0  0  0  0  0  0  0  0  0  0
   -8.8138    4.1170    0.0000 H   0  0  0  0  0  0  0  0  0  0  0  0
   -7.3061    5.3194    0.0000 H   0  0  0  0  0  0  0  0  0  0  0  0
   -3.0546    0.5251    0.0000 C   0  0  0  0  0  0  0  0  0  0  0  0
   -3.0920   -0.9744    0.0000 H   0  0  0  0  0  0  0  0  0  0  0  0
   -1.5843    0.2279    0.0000 H   0  0  0  0  0  0  0  0  0  0  0  0
   -4.5378    0.3016    0.0000 C   0  0  0  0  0  0  0  0  0  0  0  0
   -5.0858   -1.0947    0.0000 H   0  0  0  0  0  0  0  0  0  0  0  0
   -5.4731    1.4743    0.0000 O   0  0  0  0  0  0  0  0  0  0  0  0
    1.6731   -0.6637    0.0000 S   0  0  0  0  0  0  0  0  0  0  0  0
  1  2  1  0  0  0  0 
  1  3  1  0  0  0  0 
  1  4  1  0  0  0  0 
  1  5  1  0  0  0  0 
  5  6  2  0  0  0  0 
  6  7  1  0  0  0  0 
  6  8  1  0  0  0  0 
  8  9  2  0  0  0  0 
  9 10  1  0  0  0  0 
 10 11  1  0  0  0  0 
 10 12  1  0  0  0  0 
 12 13  2  0  0  0  0 
 13 14  1  0  0  0  0 
 14 15  1  0  0  0  0 
 14 16  2  0  0  0  0 
 16 17  1  0  0  0  0 
 16 18  1  0  0  0  0 
 18 19  1  0  0  0  0 
 18 20  2  0  0  0  0 
 12 20  1  0  0  0  0 
 20 21  1  0  0  0  0 
 13 22  1  0  0  0  0 
 22 23  2  0  0  0  0 
  8 23  1  0  0  0  0 
 23 24  1  0  0  0  0 
 24 25  1  0  0  0  0 
 25 26  1  0  0  0  0 
 25 27  1  0  0  0  0 
 25 28  1  0  0  0  0 
 28 29  1  0  0  0  0 
 28 30  1  0  0  0  0 
 28 31  1  0  0  0  0 
 31 32  1  0  0  0  0 
 31 33  1  0  0  0  0 
 33 34  1  0  0  0  0 
 33 35  1  0  0  0  0 
 33 36  1  0  0  0  0 
 24 37  1  0  0  0  0 
 37 38  1  0  0  0  0 
 37 39  1  0  0  0  0 
 37 40  1  0  0  0  0 
 40 41  1  0  0  0  0 
 40 42  2  0  0  0  0 
  9 43  1  0  0  0  0 
  5 43  1  0  0  0  0 
M  END
> <Rank>
6

> <Priority_score>
0.536

> <Reaction_type>
N-dealkylation

> <Parent_ID>
59

> <Parent_InChI>
InChI=1S/C17H20N4S/c1-12-11-13-16(21-9-7-20(2)8-10-21)18-14-5-3-4-6-15(14)19-17(13)22-12/h3-6,11,19H,7-10H2,1-2H3

> <Parent_SMILES>
Cc1cc2c(s1)Nc1ccccc1N=C2N1CCN(C)CC1

$$$$
Molecule 59_metabolite 7
  CDK     0516241031

 43 46  0  0  0  0  0  0  0  0999 V2000
   -3.4128    8.5179    0.0000 C   0  0  0  0  0  0  0  0  0  0  0  0
   -2.0614    9.1687    0.0000 H   0  0  0  0  0  0  0  0  0  0  0  0
   -3.8191    9.9618    0.0000 H   0  0  0  0  0  0  0  0  0  0  0  0
   -4.9054    8.3686    0.0000 H   0  0  0  0  0  0  0  0  0  0  0  0
   -3.5249    7.0221    0.0000 C   0  0  0  0  0  0  0  0  0  0  0  0
   -2.3807    6.0522    0.0000 C   0  0  0  0  0  0  0  0  0  0  0  0
   -0.9234    6.4078    0.0000 H   0  0  0  0  0  0  0  0  0  0  0  0
   -2.9495    4.6642    0.0000 C   0  0  0  0  0  0  0  0  0  0  0  0
   -4.4453    4.7763    0.0000 C   0  0  0  0  0  0  0  0  0  0  0  0
   -5.4656    3.6768    0.0000 N   0  0  0  0  0  0  0  0  0  0  0  0
   -6.8989    4.1189    0.0000 H   0  0  0  0  0  0  0  0  0  0  0  0
   -5.2420    2.1935    0.0000 C   0  0  0  0  0  0  0  0  0  0  0  0
   -3.9430    1.4435    0.0000 C   0  0  0  0  0  0  0  0  0  0  0  0
   -3.9430   -0.0565    0.0000 C   0  0  0  0  0  0  0  0  0  0  0  0
   -2.6439   -0.8065    0.0000 H   0  0  0  0  0  0  0  0  0  0  0  0
   -5.2420   -0.8065    0.0000 C   0  0  0  0  0  0  0  0  0  0  0  0
   -5.2420   -2.3065    0.0000 H   0  0  0  0  0  0  0  0  0  0  0  0
   -6.5410   -0.0565    0.0000 C   0  0  0  0  0  0  0  0  0  0  0  0
   -7.8401   -0.8065    0.0000 H   0  0  0  0  0  0  0  0  0  0  0  0
   -6.5410    1.4435    0.0000 C   0  0  0  0  0  0  0  0  0  0  0  0
   -7.8401    2.1935    0.0000 H   0  0  0  0  0  0  0  0  0  0  0  0
   -2.5466    1.9915    0.0000 N   0  0  0  0  0  0  0  0  0  0  0  0
   -2.1045    3.4249    0.0000 C   0  0  0  0  0  0  0  0  0  0  0  0
   -0.6213    3.6485    0.0000 N   0  0  0  0  0  0  0  0  0  0  0  0
   -0.0734    5.0457    0.0000 C   0  0  0  0  0  0  0  0  0  0  0  0
   -0.0362    6.5453    0.0000 H   0  0  0  0  0  0  0  0  0  0  0  0
   -1.5437    5.3426    0.0000 H   0  0  0  0  0  0  0  0  0  0  0  0
    1.4098    5.2693    0.0000 C   0  0  0  0  0  0  0  0  0  0  0  0
    2.7273    5.9864    0.0000 H   0  0  0  0  0  0  0  0  0  0  0  0
    0.9323    6.6912    0.0000 H   0  0  0  0  0  0  0  0  0  0  0  0
    2.3452    4.0956    0.0000 N   0  0  0  0  0  0  0  0  0  0  0  0
    4.3031    4.3907    0.0000 C   0  0  0  0  0  0  0  0  0  0  0  0
    5.2383    3.2179    0.0000 H   0  0  0  0  0  0  0  0  0  0  0  0
    5.6204    5.1081    0.0000 H   0  0  0  0  0  0  0  0  0  0  0  0
    3.8254    5.8126    0.0000 H   0  0  0  0  0  0  0  0  0  0  0  0
    1.7974    2.6983    0.0000 C   0  0  0  0  0  0  0  0  0  0  0  0
    1.7601    1.1988    0.0000 H   0  0  0  0  0  0  0  0  0  0  0  0
    0.3141    2.4748    0.0000 C   0  0  0  0  0  0  0  0  0  0  0  0
   -1.0034    1.7577    0.0000 H   0  0  0  0  0  0  0  0  0  0  0  0
    0.7917    1.0528    0.0000 H   0  0  0  0  0  0  0  0  0  0  0  0
    3.2677    2.4014    0.0000 O   0  0  0  0  0  0  0  0  0  0  0  0
    3.7457    0.9796    0.0000 H   0  0  0  0  0  0  0  0  0  0  0  0
   -4.8009    6.2336    0.0000 S   0  0  0  0  0  0  0  0  0  0  0  0
  1  2  1  0  0  0  0 
  1  3  1  0  0  0  0 
  1  4  1  0  0  0  0 
  1  5  1  0  0  0  0 
  5  6  2  0  0  0  0 
  6  7  1  0  0  0  0 
  6  8  1  0  0  0  0 
  8  9  2  0  0  0  0 
  9 10  1  0  0  0  0 
 10 11  1  0  0  0  0 
 10 12  1  0  0  0  0 
 12 13  2  0  0  0  0 
 13 14  1  0  0  0  0 
 14 15  1  0  0  0  0 
 14 16  2  0  0  0  0 
 16 17  1  0  0  0  0 
 16 18  1  0  0  0  0 
 18 19  1  0  0  0  0 
 18 20  2  0  0  0  0 
 12 20  1  0  0  0  0 
 20 21  1  0  0  0  0 
 13 22  1  0  0  0  0 
 22 23  2  0  0  0  0 
  8 23  1  0  0  0  0 
 23 24  1  0  0  0  0 
 24 25  1  0  0  0  0 
 25 26  1  0  0  0  0 
 25 27  1  0  0  0  0 
 25 28  1  0  0  0  0 
 28 29  1  0  0  0  0 
 28 30  1  0  0  0  0 
 28 31  1  0  0  0  0 
 31 32  1  0  0  0  0 
 32 33  1  0  0  0  0 
 32 34  1  0  0  0  0 
 32 35  1  0  0  0  0 
 31 36  1  0  0  0  0 
 36 37  1  0  0  0  0 
 36 38  1  0  0  0  0 
 24 38  1  0  0  0  0 
 38 39  1  0  0  0  0 
 38 40  1  0  0  0  0 
 36 41  1  0  0  0  0 
 41 42  1  0  0  0  0 
  9 43  1  0  0  0  0 
  5 43  1  0  0  0  0 
M  END
> <Rank>
6

> <Priority_score>
0.536

> <Reaction_type>
aliphatic_hydroxylation_(sec_carbon_next_to_SP2,in_a_ring)

> <Parent_ID>
59

> <Parent_InChI>
InChI=1S/C17H20N4S/c1-12-11-13-16(21-9-7-20(2)8-10-21)18-14-5-3-4-6-15(14)19-17(13)22-12/h3-6,11,19H,7-10H2,1-2H3

> <Parent_SMILES>
Cc1cc2c(s1)Nc1ccccc1N=C2N1CCN(C)CC1

$$$$
Molecule 59_metabolite 8
  CDK     0516241031

 41 44  0  0  0  0  0  0  0  0999 V2000
   -3.4887    8.6725    0.0000 C   0  0  0  0  0  0  0  0  0  0  0  0
   -2.1372    9.3233    0.0000 H   0  0  0  0  0  0  0  0  0  0  0  0
   -3.8949   10.1164    0.0000 H   0  0  0  0  0  0  0  0  0  0  0  0
   -4.9812    8.5231    0.0000 H   0  0  0  0  0  0  0  0  0  0  0  0
   -3.6008    7.1767    0.0000 C   0  0  0  0  0  0  0  0  0  0  0  0
   -2.4565    6.2068    0.0000 C   0  0  0  0  0  0  0  0  0  0  0  0
   -0.9993    6.5624    0.0000 H   0  0  0  0  0  0  0  0  0  0  0  0
   -3.0254    4.8188    0.0000 C   0  0  0  0  0  0  0  0  0  0  0  0
   -4.5212    4.9309    0.0000 C   0  0  0  0  0  0  0  0  0  0  0  0
   -5.5414    3.8313    0.0000 N   0  0  0  0  0  0  0  0  0  0  0  0
   -6.9748    4.2735    0.0000 H   0  0  0  0  0  0  0  0  0  0  0  0
   -5.3179    2.3481    0.0000 C   0  0  0  0  0  0  0  0  0  0  0  0
   -4.0188    1.5981    0.0000 C   0  0  0  0  0  0  0  0  0  0  0  0
   -4.0188    0.0981    0.0000 C   0  0  0  0  0  0  0  0  0  0  0  0
   -2.7198   -0.6519    0.0000 H   0  0  0  0  0  0  0  0  0  0  0  0
   -5.3179   -0.6519    0.0000 C   0  0  0  0  0  0  0  0  0  0  0  0
   -5.3179   -2.1519    0.0000 H   0  0  0  0  0  0  0  0  0  0  0  0
   -6.6169    0.0981    0.0000 C   0  0  0  0  0  0  0  0  0  0  0  0
   -7.9160   -0.6519    0.0000 H   0  0  0  0  0  0  0  0  0  0  0  0
   -6.6169    1.5981    0.0000 C   0  0  0  0  0  0  0  0  0  0  0  0
   -7.9160    2.3481    0.0000 H   0  0  0  0  0  0  0  0  0  0  0  0
   -2.6225    2.1461    0.0000 N   0  0  0  0  0  0  0  0  0  0  0  0
   -2.1804    3.5795    0.0000 C   0  0  0  0  0  0  0  0  0  0  0  0
   -0.6971    3.8030    0.0000 N   0  0  0  0  0  0  0  0  0  0  0  0
   -0.1493    5.2003    0.0000 C   0  0  0  0  0  0  0  0  0  0  0  0
   -0.1120    6.6998    0.0000 H   0  0  0  0  0  0  0  0  0  0  0  0
   -1.6196    5.4972    0.0000 H   0  0  0  0  0  0  0  0  0  0  0  0
    1.3340    5.4238    0.0000 C   0  0  0  0  0  0  0  0  0  0  0  0
    2.6515    6.1409    0.0000 H   0  0  0  0  0  0  0  0  0  0  0  0
    0.8564    6.8458    0.0000 H   0  0  0  0  0  0  0  0  0  0  0  0
    2.2693    4.2501    0.0000 N   0  0  0  0  0  0  0  0  0  0  0  0
    3.7526    4.4737    0.0000 C   0  0  0  0  0  0  0  0  0  0  0  0
    4.3006    5.8700    0.0000 H   0  0  0  0  0  0  0  0  0  0  0  0
    5.2229    4.1765    0.0000 H   0  0  0  0  0  0  0  0  0  0  0  0
    3.7152    2.9742    0.0000 H   0  0  0  0  0  0  0  0  0  0  0  0
    1.7215    2.8529    0.0000 C   0  0  0  0  0  0  0  0  0  0  0  0
    2.6569    1.6803    0.0000 O   0  0  0  0  0  0  0  0  0  0  0  0
    0.2382    2.6293    0.0000 C   0  0  0  0  0  0  0  0  0  0  0  0
   -1.0793    1.9122    0.0000 H   0  0  0  0  0  0  0  0  0  0  0  0
    0.7158    1.2074    0.0000 H   0  0  0  0  0  0  0  0  0  0  0  0
   -4.8768    6.3881    0.0000 S   0  0  0  0  0  0  0  0  0  0  0  0
  1  2  1  0  0  0  0 
  1  3  1  0  0  0  0 
  1  4  1  0  0  0  0 
  1  5  1  0  0  0  0 
  5  6  2  0  0  0  0 
  6  7  1  0  0  0  0 
  6  8  1  0  0  0  0 
  8  9  2  0  0  0  0 
  9 10  1  0  0  0  0 
 10 11  1  0  0  0  0 
 10 12  1  0  0  0  0 
 12 13  2  0  0  0  0 
 13 14  1  0  0  0  0 
 14 15  1  0  0  0  0 
 14 16  2  0  0  0  0 
 16 17  1  0  0  0  0 
 16 18  1  0  0  0  0 
 18 19  1  0  0  0  0 
 18 20  2  0  0  0  0 
 12 20  1  0  0  0  0 
 20 21  1  0  0  0  0 
 13 22  1  0  0  0  0 
 22 23  2  0  0  0  0 
  8 23  1  0  0  0  0 
 23 24  1  0  0  0  0 
 24 25  1  0  0  0  0 
 25 26  1  0  0  0  0 
 25 27  1  0  0  0  0 
 25 28  1  0  0  0  0 
 28 29  1  0  0  0  0 
 28 30  1  0  0  0  0 
 28 31  1  0  0  0  0 
 31 32  1  0  0  0  0 
 32 33  1  0  0  0  0 
 32 34  1  0  0  0  0 
 32 35  1  0  0  0  0 
 31 36  1  0  0  0  0 
 36 37  2  0  0  0  0 
 36 38  1  0  0  0  0 
 24 38  1  0  0  0  0 
 38 39  1  0  0  0  0 
 38 40  1  0  0  0  0 
  9 41  1  0  0  0  0 
  5 41  1  0  0  0  0 
M  END
> <Rank>
6

> <Priority_score>
0.536

> <Reaction_type>
oxidation_(amine_in_a_ring)

> <Parent_ID>
59

> <Parent_InChI>
InChI=1S/C17H20N4S/c1-12-11-13-16(21-9-7-20(2)8-10-21)18-14-5-3-4-6-15(14)19-17(13)22-12/h3-6,11,19H,7-10H2,1-2H3

> <Parent_SMILES>
Cc1cc2c(s1)Nc1ccccc1N=C2N1CCN(C)CC1

$$$$
Molecule 59_metabolite 9
  CDK     0516241031

 41 44  0  0  0  0  0  0  0  0999 V2000
   -3.4128    8.5179    0.0000 C   0  0  0  0  0  0  0  0  0  0  0  0
   -2.0614    9.1687    0.0000 H   0  0  0  0  0  0  0  0  0  0  0  0
   -3.8191    9.9618    0.0000 H   0  0  0  0  0  0  0  0  0  0  0  0
   -4.9054    8.3686    0.0000 H   0  0  0  0  0  0  0  0  0  0  0  0
   -3.5249    7.0221    0.0000 C   0  0  0  0  0  0  0  0  0  0  0  0
   -2.3807    6.0522    0.0000 C   0  0  0  0  0  0  0  0  0  0  0  0
   -0.9234    6.4078    0.0000 H   0  0  0  0  0  0  0  0  0  0  0  0
   -2.9495    4.6642    0.0000 C   0  0  0  0  0  0  0  0  0  0  0  0
   -4.4453    4.7763    0.0000 C   0  0  0  0  0  0  0  0  0  0  0  0
   -5.4656    3.6768    0.0000 N   0  0  0  0  0  0  0  0  0  0  0  0
   -6.8989    4.1189    0.0000 H   0  0  0  0  0  0  0  0  0  0  0  0
   -5.2420    2.1935    0.0000 C   0  0  0  0  0  0  0  0  0  0  0  0
   -3.9430    1.4435    0.0000 C   0  0  0  0  0  0  0  0  0  0  0  0
   -3.9430   -0.0565    0.0000 C   0  0  0  0  0  0  0  0  0  0  0  0
   -2.6439   -0.8065    0.0000 H   0  0  0  0  0  0  0  0  0  0  0  0
   -5.2420   -0.8065    0.0000 C   0  0  0  0  0  0  0  0  0  0  0  0
   -5.2420   -2.3065    0.0000 H   0  0  0  0  0  0  0  0  0  0  0  0
   -6.5410   -0.0565    0.0000 C   0  0  0  0  0  0  0  0  0  0  0  0
   -7.8401   -0.8065    0.0000 H   0  0  0  0  0  0  0  0  0  0  0  0
   -6.5410    1.4435    0.0000 C   0  0  0  0  0  0  0  0  0  0  0  0
   -7.8401    2.1935    0.0000 H   0  0  0  0  0  0  0  0  0  0  0  0
   -2.5466    1.9915    0.0000 N   0  0  0  0  0  0  0  0  0  0  0  0
   -2.1045    3.4249    0.0000 C   0  0  0  0  0  0  0  0  0  0  0  0
   -0.6213    3.6485    0.0000 N   0  0  0  0  0  0  0  0  0  0  0  0
   -0.0734    5.0457    0.0000 C   0  0  0  0  0  0  0  0  0  0  0  0
   -0.0362    6.5453    0.0000 H   0  0  0  0  0  0  0  0  0  0  0  0
   -1.5437    5.3426    0.0000 H   0  0  0  0  0  0  0  0  0  0  0  0
    1.4098    5.2693    0.0000 C   0  0  0  0  0  0  0  0  0  0  0  0
    2.7273    5.9864    0.0000 H   0  0  0  0  0  0  0  0  0  0  0  0
    0.9323    6.6912    0.0000 H   0  0  0  0  0  0  0  0  0  0  0  0
    2.3452    4.0956    0.0000 N   0  0  0  0  0  0  0  0  0  0  0  0
    4.3031    4.3907    0.0000 C   0  0  0  0  0  0  0  0  0  0  0  0
    5.2383    3.2179    0.0000 H   0  0  0  0  0  0  0  0  0  0  0  0
    5.6204    5.1081    0.0000 H   0  0  0  0  0  0  0  0  0  0  0  0
    3.8254    5.8126    0.0000 H   0  0  0  0  0  0  0  0  0  0  0  0
    1.7974    2.6983    0.0000 C   0  0  0  0  0  0  0  0  0  0  0  0
    1.7601    1.1988    0.0000 H   0  0  0  0  0  0  0  0  0  0  0  0
    3.2677    2.4014    0.0000 H   0  0  0  0  0  0  0  0  0  0  0  0
    0.3141    2.4748    0.0000 C   0  0  0  0  0  0  0  0  0  0  0  0
   -0.2341    1.0785    0.0000 O   0  0  0  0  0  0  0  0  0  0  0  0
   -4.8009    6.2336    0.0000 S   0  0  0  0  0  0  0  0  0  0  0  0
  1  2  1  0  0  0  0 
  1  3  1  0  0  0  0 
  1  4  1  0  0  0  0 
  1  5  1  0  0  0  0 
  5  6  2  0  0  0  0 
  6  7  1  0  0  0  0 
  6  8  1  0  0  0  0 
  8  9  2  0  0  0  0 
  9 10  1  0  0  0  0 
 10 11  1  0  0  0  0 
 10 12  1  0  0  0  0 
 12 13  2  0  0  0  0 
 13 14  1  0  0  0  0 
 14 15  1  0  0  0  0 
 14 16  2  0  0  0  0 
 16 17  1  0  0  0  0 
 16 18  1  0  0  0  0 
 18 19  1  0  0  0  0 
 18 20  2  0  0  0  0 
 12 20  1  0  0  0  0 
 20 21  1  0  0  0  0 
 13 22  1  0  0  0  0 
 22 23  2  0  0  0  0 
  8 23  1  0  0  0  0 
 23 24  1  0  0  0  0 
 24 25  1  0  0  0  0 
 25 26  1  0  0  0  0 
 25 27  1  0  0  0  0 
 25 28  1  0  0  0  0 
 28 29  1  0  0  0  0 
 28 30  1  0  0  0  0 
 28 31  1  0  0  0  0 
 31 32  1  0  0  0  0 
 32 33  1  0  0  0  0 
 32 34  1  0  0  0  0 
 32 35  1  0  0  0  0 
 31 36  1  0  0  0  0 
 36 37  1  0  0  0  0 
 36 38  1  0  0  0  0 
 36 39  1  0  0  0  0 
 24 39  1  0  0  0  0 
 39 40  2  0  0  0  0 
  9 41  1  0  0  0  0 
  5 41  1  0  0  0  0 
M  END
> <Rank>
9

> <Priority_score>
0.332

> <Reaction_type>
oxidation_(amine_in_a_ring)

> <Parent_ID>
59

> <Parent_InChI>
InChI=1S/C17H20N4S/c1-12-11-13-16(21-9-7-20(2)8-10-21)18-14-5-3-4-6-15(14)19-17(13)22-12/h3-6,11,19H,7-10H2,1-2H3

> <Parent_SMILES>
Cc1cc2c(s1)Nc1ccccc1N=C2N1CCN(C)CC1

$$$$
Molecule 59_metabolite 10
  CDK     0516241031

 43 46  0  0  0  0  0  0  0  0999 V2000
   -3.4128    8.5179    0.0000 C   0  0  0  0  0  0  0  0  0  0  0  0
   -2.0614    9.1687    0.0000 H   0  0  0  0  0  0  0  0  0  0  0  0
   -3.8191    9.9618    0.0000 H   0  0  0  0  0  0  0  0  0  0  0  0
   -4.9054    8.3686    0.0000 H   0  0  0  0  0  0  0  0  0  0  0  0
   -3.5249    7.0221    0.0000 C   0  0  0  0  0  0  0  0  0  0  0  0
   -2.3807    6.0522    0.0000 C   0  0  0  0  0  0  0  0  0  0  0  0
   -0.9234    6.4078    0.0000 H   0  0  0  0  0  0  0  0  0  0  0  0
   -2.9495    4.6642    0.0000 C   0  0  0  0  0  0  0  0  0  0  0  0
   -4.4453    4.7763    0.0000 C   0  0  0  0  0  0  0  0  0  0  0  0
   -5.4656    3.6768    0.0000 N   0  0  0  0  0  0  0  0  0  0  0  0
   -6.8989    4.1189    0.0000 H   0  0  0  0  0  0  0  0  0  0  0  0
   -5.2420    2.1935    0.0000 C   0  0  0  0  0  0  0  0  0  0  0  0
   -3.9430    1.4435    0.0000 C   0  0  0  0  0  0  0  0  0  0  0  0
   -3.9430   -0.0565    0.0000 C   0  0  0  0  0  0  0  0  0  0  0  0
   -2.6439   -0.8065    0.0000 H   0  0  0  0  0  0  0  0  0  0  0  0
   -5.2420   -0.8065    0.0000 C   0  0  0  0  0  0  0  0  0  0  0  0
   -5.2420   -2.3065    0.0000 H   0  0  0  0  0  0  0  0  0  0  0  0
   -6.5410   -0.0565    0.0000 C   0  0  0  0  0  0  0  0  0  0  0  0
   -7.8401   -0.8065    0.0000 H   0  0  0  0  0  0  0  0  0  0  0  0
   -6.5410    1.4435    0.0000 C   0  0  0  0  0  0  0  0  0  0  0  0
   -7.8401    2.1935    0.0000 H   0  0  0  0  0  0  0  0  0  0  0  0
   -2.5466    1.9915    0.0000 N   0  0  0  0  0  0  0  0  0  0  0  0
   -2.1045    3.4249    0.0000 C   0  0  0  0  0  0  0  0  0  0  0  0
   -0.6213    3.6485    0.0000 N   0  0  0  0  0  0  0  0  0  0  0  0
   -0.0734    5.0457    0.0000 C   0  0  0  0  0  0  0  0  0  0  0  0
   -0.0362    6.5453    0.0000 H   0  0  0  0  0  0  0  0  0  0  0  0
   -1.5437    5.3426    0.0000 H   0  0  0  0  0  0  0  0  0  0  0  0
    1.4098    5.2693    0.0000 C   0  0  0  0  0  0  0  0  0  0  0  0
    2.7273    5.9864    0.0000 H   0  0  0  0  0  0  0  0  0  0  0  0
    0.9323    6.6912    0.0000 H   0  0  0  0  0  0  0  0  0  0  0  0
    2.3452    4.0956    0.0000 N   0  0  0  0  0  0  0  0  0  0  0  0
    4.3031    4.3907    0.0000 C   0  0  0  0  0  0  0  0  0  0  0  0
    5.2383    3.2179    0.0000 H   0  0  0  0  0  0  0  0  0  0  0  0
    5.6204    5.1081    0.0000 H   0  0  0  0  0  0  0  0  0  0  0  0
    3.8254    5.8126    0.0000 H   0  0  0  0  0  0  0  0  0  0  0  0
    1.7974    2.6983    0.0000 C   0  0  0  0  0  0  0  0  0  0  0  0
    1.7601    1.1988    0.0000 H   0  0  0  0  0  0  0  0  0  0  0  0
    3.2677    2.4014    0.0000 H   0  0  0  0  0  0  0  0  0  0  0  0
    0.3141    2.4748    0.0000 C   0  0  0  0  0  0  0  0  0  0  0  0
   -1.0034    1.7577    0.0000 H   0  0  0  0  0  0  0  0  0  0  0  0
    0.7917    1.0528    0.0000 O   0  0  0  0  0  0  0  0  0  0  0  0
   -0.2010   -0.0718    0.0000 H   0  0  0  0  0  0  0  0  0  0  0  0
   -4.8009    6.2336    0.0000 S   0  0  0  0  0  0  0  0  0  0  0  0
  1  2  1  0  0  0  0 
  1  3  1  0  0  0  0 
  1  4  1  0  0  0  0 
  1  5  1  0  0  0  0 
  5  6  2  0  0  0  0 
  6  7  1  0  0  0  0 
  6  8  1  0  0  0  0 
  8  9  2  0  0  0  0 
  9 10  1  0  0  0  0 
 10 11  1  0  0  0  0 
 10 12  1  0  0  0  0 
 12 13  2  0  0  0  0 
 13 14  1  0  0  0  0 
 14 15  1  0  0  0  0 
 14 16  2  0  0  0  0 
 16 17  1  0  0  0  0 
 16 18  1  0  0  0  0 
 18 19  1  0  0  0  0 
 18 20  2  0  0  0  0 
 12 20  1  0  0  0  0 
 20 21  1  0  0  0  0 
 13 22  1  0  0  0  0 
 22 23  2  0  0  0  0 
  8 23  1  0  0  0  0 
 23 24  1  0  0  0  0 
 24 25  1  0  0  0  0 
 25 26  1  0  0  0  0 
 25 27  1  0  0  0  0 
 25 28  1  0  0  0  0 
 28 29  1  0  0  0  0 
 28 30  1  0  0  0  0 
 28 31  1  0  0  0  0 
 31 32  1  0  0  0  0 
 32 33  1  0  0  0  0 
 32 34  1  0  0  0  0 
 32 35  1  0  0  0  0 
 31 36  1  0  0  0  0 
 36 37  1  0  0  0  0 
 36 38  1  0  0  0  0 
 36 39  1  0  0  0  0 
 24 39  1  0  0  0  0 
 39 40  1  0  0  0  0 
 39 41  1  0  0  0  0 
 41 42  1  0  0  0  0 
  9 43  1  0  0  0  0 
  5 43  1  0  0  0  0 
M  END
> <Rank>
9

> <Priority_score>
0.332

> <Reaction_type>
aliphatic_hydroxylation_(sec_carbon_next_to_SP2,in_a_ring)

> <Parent_ID>
59

> <Parent_InChI>
InChI=1S/C17H20N4S/c1-12-11-13-16(21-9-7-20(2)8-10-21)18-14-5-3-4-6-15(14)19-17(13)22-12/h3-6,11,19H,7-10H2,1-2H3

> <Parent_SMILES>
Cc1cc2c(s1)Nc1ccccc1N=C2N1CCN(C)CC1

$$$$
Molecule 59_metabolite 11
  CDK     0516241031

 43 46  0  0  0  0  0  0  0  0999 V2000
   -2.4394    9.0821    0.0000 C   0  0  0  0  0  0  0  0  0  0  0  0
   -1.0880    9.7329    0.0000 H   0  0  0  0  0  0  0  0  0  0  0  0
   -2.8457   10.5260    0.0000 H   0  0  0  0  0  0  0  0  0  0  0  0
   -3.9320    8.9327    0.0000 H   0  0  0  0  0  0  0  0  0  0  0  0
   -2.5515    7.5863    0.0000 C   0  0  0  0  0  0  0  0  0  0  0  0
   -1.4073    6.6164    0.0000 C   0  0  0  0  0  0  0  0  0  0  0  0
    0.0500    6.9720    0.0000 H   0  0  0  0  0  0  0  0  0  0  0  0
   -1.9761    5.2284    0.0000 C   0  0  0  0  0  0  0  0  0  0  0  0
   -3.4719    5.3405    0.0000 C   0  0  0  0  0  0  0  0  0  0  0  0
   -4.4922    4.2410    0.0000 N   0  0  0  0  0  0  0  0  0  0  0  0
   -5.9255    4.6831    0.0000 H   0  0  0  0  0  0  0  0  0  0  0  0
   -4.2686    2.7577    0.0000 C   0  0  0  0  0  0  0  0  0  0  0  0
   -2.9696    2.0077    0.0000 C   0  0  0  0  0  0  0  0  0  0  0  0
   -2.9696    0.5077    0.0000 C   0  0  0  0  0  0  0  0  0  0  0  0
   -1.6705   -0.2423    0.0000 H   0  0  0  0  0  0  0  0  0  0  0  0
   -4.2686   -0.2423    0.0000 C   0  0  0  0  0  0  0  0  0  0  0  0
   -5.5676    0.5077    0.0000 C   0  0  0  0  0  0  0  0  0  0  0  0
   -6.8667   -0.2423    0.0000 H   0  0  0  0  0  0  0  0  0  0  0  0
   -5.5676    2.0077    0.0000 C   0  0  0  0  0  0  0  0  0  0  0  0
   -6.8667    2.7577    0.0000 H   0  0  0  0  0  0  0  0  0  0  0  0
   -4.2686   -1.7423    0.0000 O   0  0  0  0  0  0  0  0  0  0  0  0
   -5.5676   -2.4923    0.0000 H   0  0  0  0  0  0  0  0  0  0  0  0
   -1.5733    2.5557    0.0000 N   0  0  0  0  0  0  0  0  0  0  0  0
   -1.1311    3.9891    0.0000 C   0  0  0  0  0  0  0  0  0  0  0  0
    0.3521    4.2126    0.0000 N   0  0  0  0  0  0  0  0  0  0  0  0
    1.2881    3.0394    0.0000 C   0  0  0  0  0  0  0  0  0  0  0  0
   -0.0293    2.3221    0.0000 H   0  0  0  0  0  0  0  0  0  0  0  0
    1.7654    1.6174    0.0000 H   0  0  0  0  0  0  0  0  0  0  0  0
    2.7722    3.2624    0.0000 C   0  0  0  0  0  0  0  0  0  0  0  0
    2.7343    1.7629    0.0000 H   0  0  0  0  0  0  0  0  0  0  0  0
    4.2424    2.9648    0.0000 H   0  0  0  0  0  0  0  0  0  0  0  0
    3.3205    4.6586    0.0000 N   0  0  0  0  0  0  0  0  0  0  0  0
    5.2784    4.9537    0.0000 C   0  0  0  0  0  0  0  0  0  0  0  0
    6.2136    3.7810    0.0000 H   0  0  0  0  0  0  0  0  0  0  0  0
    6.5957    5.6711    0.0000 H   0  0  0  0  0  0  0  0  0  0  0  0
    4.8006    6.3756    0.0000 H   0  0  0  0  0  0  0  0  0  0  0  0
    2.3845    5.8318    0.0000 C   0  0  0  0  0  0  0  0  0  0  0  0
    3.7019    6.5492    0.0000 H   0  0  0  0  0  0  0  0  0  0  0  0
    1.9072    7.2539    0.0000 H   0  0  0  0  0  0  0  0  0  0  0  0
    0.9004    5.6089    0.0000 C   0  0  0  0  0  0  0  0  0  0  0  0
    0.9383    7.1084    0.0000 H   0  0  0  0  0  0  0  0  0  0  0  0
   -0.5698    5.9065    0.0000 H   0  0  0  0  0  0  0  0  0  0  0  0
   -3.8275    6.7978    0.0000 S   0  0  0  0  0  0  0  0  0  0  0  0
  1  2  1  0  0  0  0 
  1  3  1  0  0  0  0 
  1  4  1  0  0  0  0 
  1  5  1  0  0  0  0 
  5  6  2  0  0  0  0 
  6  7  1  0  0  0  0 
  6  8  1  0  0  0  0 
  8  9  2  0  0  0  0 
  9 10  1  0  0  0  0 
 10 11  1  0  0  0  0 
 10 12  1  0  0  0  0 
 12 13  2  0  0  0  0 
 13 14  1  0  0  0  0 
 14 15  1  0  0  0  0 
 14 16  2  0  0  0  0 
 16 17  1  0  0  0  0 
 17 18  1  0  0  0  0 
 17 19  2  0  0  0  0 
 12 19  1  0  0  0  0 
 19 20  1  0  0  0  0 
 16 21  1  0  0  0  0 
 21 22  1  0  0  0  0 
 13 23  1  0  0  0  0 
 23 24  2  0  0  0  0 
  8 24  1  0  0  0  0 
 24 25  1  0  0  0  0 
 25 26  1  0  0  0  0 
 26 27  1  0  0  0  0 
 26 28  1  0  0  0  0 
 26 29  1  0  0  0  0 
 29 30  1  0  0  0  0 
 29 31  1  0  0  0  0 
 29 32  1  0  0  0  0 
 32 33  1  0  0  0  0 
 33 34  1  0  0  0  0 
 33 35  1  0  0  0  0 
 33 36  1  0  0  0  0 
 32 37  1  0  0  0  0 
 37 38  1  0  0  0  0 
 37 39  1  0  0  0  0 
 37 40  1  0  0  0  0 
 25 40  1  0  0  0  0 
 40 41  1  0  0  0  0 
 40 42  1  0  0  0  0 
  9 43  1  0  0  0  0 
  5 43  1  0  0  0  0 
M  END
> <Rank>
11

> <Priority_score>
0.3153984446357528

> <Reaction_type>
aromatic_hydroxylation_(para_to_nitrogen)

> <Parent_ID>
59

> <Parent_InChI>
InChI=1S/C17H20N4S/c1-12-11-13-16(21-9-7-20(2)8-10-21)18-14-5-3-4-6-15(14)19-17(13)22-12/h3-6,11,19H,7-10H2,1-2H3

> <Parent_SMILES>
Cc1cc2c(s1)Nc1ccccc1N=C2N1CCN(C)CC1

$$$$
Molecule 59_metabolite 12
  CDK     0516241031

 43 46  0  0  0  0  0  0  0  0999 V2000
   -3.4137    8.5196    0.0000 C   0  0  0  0  0  0  0  0  0  0  0  0
   -2.0622    9.1704    0.0000 H   0  0  0  0  0  0  0  0  0  0  0  0
   -3.8200    9.9635    0.0000 H   0  0  0  0  0  0  0  0  0  0  0  0
   -4.9062    8.3702    0.0000 H   0  0  0  0  0  0  0  0  0  0  0  0
   -3.5258    7.0238    0.0000 C   0  0  0  0  0  0  0  0  0  0  0  0
   -2.3815    6.0539    0.0000 C   0  0  0  0  0  0  0  0  0  0  0  0
   -0.9243    6.4095    0.0000 H   0  0  0  0  0  0  0  0  0  0  0  0
   -2.9504    4.6659    0.0000 C   0  0  0  0  0  0  0  0  0  0  0  0
   -4.4462    4.7780    0.0000 C   0  0  0  0  0  0  0  0  0  0  0  0
   -5.4664    3.6785    0.0000 N   0  0  0  0  0  0  0  0  0  0  0  0
   -6.8998    4.1206    0.0000 H   0  0  0  0  0  0  0  0  0  0  0  0
   -5.2429    2.1952    0.0000 C   0  0  0  0  0  0  0  0  0  0  0  0
   -6.5419    1.4452    0.0000 C   0  0  0  0  0  0  0  0  0  0  0  0
   -7.8410    2.1952    0.0000 H   0  0  0  0  0  0  0  0  0  0  0  0
   -6.5419   -0.0548    0.0000 C   0  0  0  0  0  0  0  0  0  0  0  0
   -7.8410   -0.8048    0.0000 H   0  0  0  0  0  0  0  0  0  0  0  0
   -5.2429   -0.8048    0.0000 C   0  0  0  0  0  0  0  0  0  0  0  0
   -5.2429   -2.3048    0.0000 H   0  0  0  0  0  0  0  0  0  0  0  0
   -3.9438   -0.0548    0.0000 C   0  0  0  0  0  0  0  0  0  0  0  0
   -3.9438    1.4452    0.0000 C   0  0  0  0  0  0  0  0  0  0  0  0
   -2.5475    1.9932    0.0000 N   0  0  0  0  0  0  0  0  0  0  0  0
   -2.1054    3.4266    0.0000 C   0  0  0  0  0  0  0  0  0  0  0  0
   -0.6222    3.6501    0.0000 N   0  0  0  0  0  0  0  0  0  0  0  0
    0.3138    2.4769    0.0000 C   0  0  0  0  0  0  0  0  0  0  0  0
   -1.0036    1.7596    0.0000 H   0  0  0  0  0  0  0  0  0  0  0  0
    0.7911    1.0549    0.0000 H   0  0  0  0  0  0  0  0  0  0  0  0
    1.7980    2.6999    0.0000 C   0  0  0  0  0  0  0  0  0  0  0  0
    1.7600    1.2004    0.0000 H   0  0  0  0  0  0  0  0  0  0  0  0
    3.2681    2.4023    0.0000 H   0  0  0  0  0  0  0  0  0  0  0  0
    2.3462    4.0961    0.0000 N   0  0  0  0  0  0  0  0  0  0  0  0
    4.3041    4.3912    0.0000 C   0  0  0  0  0  0  0  0  0  0  0  0
    5.2393    3.2185    0.0000 H   0  0  0  0  0  0  0  0  0  0  0  0
    5.6214    5.1086    0.0000 H   0  0  0  0  0  0  0  0  0  0  0  0
    3.8264    5.8131    0.0000 H   0  0  0  0  0  0  0  0  0  0  0  0
    1.4103    5.2693    0.0000 C   0  0  0  0  0  0  0  0  0  0  0  0
    2.7276    5.9867    0.0000 H   0  0  0  0  0  0  0  0  0  0  0  0
    0.9329    6.6914    0.0000 H   0  0  0  0  0  0  0  0  0  0  0  0
   -0.0739    5.0464    0.0000 C   0  0  0  0  0  0  0  0  0  0  0  0
   -0.0360    6.5459    0.0000 H   0  0  0  0  0  0  0  0  0  0  0  0
   -1.5441    5.3440    0.0000 H   0  0  0  0  0  0  0  0  0  0  0  0
   -2.6448   -0.8048    0.0000 O   0  0  0  0  0  0  0  0  0  0  0  0
   -2.6448   -2.3048    0.0000 H   0  0  0  0  0  0  0  0  0  0  0  0
   -4.8018    6.2353    0.0000 S   0  0  0  0  0  0  0  0  0  0  0  0
  1  2  1  0  0  0  0 
  1  3  1  0  0  0  0 
  1  4  1  0  0  0  0 
  1  5  1  0  0  0  0 
  5  6  2  0  0  0  0 
  6  7  1  0  0  0  0 
  6  8  1  0  0  0  0 
  8  9  2  0  0  0  0 
  9 10  1  0  0  0  0 
 10 11  1  0  0  0  0 
 10 12  1  0  0  0  0 
 12 13  2  0  0  0  0 
 13 14  1  0  0  0  0 
 13 15  1  0  0  0  0 
 15 16  1  0  0  0  0 
 15 17  2  0  0  0  0 
 17 18  1  0  0  0  0 
 17 19  1  0  0  0  0 
 19 20  2  0  0  0  0 
 12 20  1  0  0  0  0 
 20 21  1  0  0  0  0 
 21 22  2  0  0  0  0 
  8 22  1  0  0  0  0 
 22 23  1  0  0  0  0 
 23 24  1  0  0  0  0 
 24 25  1  0  0  0  0 
 24 26  1  0  0  0  0 
 24 27  1  0  0  0  0 
 27 28  1  0  0  0  0 
 27 29  1  0  0  0  0 
 27 30  1  0  0  0  0 
 30 31  1  0  0  0  0 
 31 32  1  0  0  0  0 
 31 33  1  0  0  0  0 
 31 34  1  0  0  0  0 
 30 35  1  0  0  0  0 
 35 36  1  0  0  0  0 
 35 37  1  0  0  0  0 
 35 38  1  0  0  0  0 
 23 38  1  0  0  0  0 
 38 39  1  0  0  0  0 
 38 40  1  0  0  0  0 
 19 41  1  0  0  0  0 
 41 42  1  0  0  0  0 
  9 43  1  0  0  0  0 
  5 43  1  0  0  0  0 
M  END
> <Rank>
11

> <Priority_score>
0.3153984446357528

> <Reaction_type>
aromatic_hydroxylation_(ortho_to_nitrogen)

> <Parent_ID>
59

> <Parent_InChI>
InChI=1S/C17H20N4S/c1-12-11-13-16(21-9-7-20(2)8-10-21)18-14-5-3-4-6-15(14)19-17(13)22-12/h3-6,11,19H,7-10H2,1-2H3

> <Parent_SMILES>
Cc1cc2c(s1)Nc1ccccc1N=C2N1CCN(C)CC1

$$$$
Molecule 59_metabolite 13
  CDK     0516241031

 43 46  0  0  0  0  0  0  0  0999 V2000
   -2.4394    9.0821    0.0000 C   0  0  0  0  0  0  0  0  0  0  0  0
   -1.0880    9.7329    0.0000 H   0  0  0  0  0  0  0  0  0  0  0  0
   -2.8457   10.5260    0.0000 H   0  0  0  0  0  0  0  0  0  0  0  0
   -3.9320    8.9327    0.0000 H   0  0  0  0  0  0  0  0  0  0  0  0
   -2.5515    7.5863    0.0000 C   0  0  0  0  0  0  0  0  0  0  0  0
   -1.4073    6.6164    0.0000 C   0  0  0  0  0  0  0  0  0  0  0  0
    0.0500    6.9720    0.0000 H   0  0  0  0  0  0  0  0  0  0  0  0
   -1.9761    5.2284    0.0000 C   0  0  0  0  0  0  0  0  0  0  0  0
   -3.4719    5.3405    0.0000 C   0  0  0  0  0  0  0  0  0  0  0  0
   -4.4922    4.2410    0.0000 N   0  0  0  0  0  0  0  0  0  0  0  0
   -5.9255    4.6831    0.0000 H   0  0  0  0  0  0  0  0  0  0  0  0
   -4.2686    2.7577    0.0000 C   0  0  0  0  0  0  0  0  0  0  0  0
   -2.9696    2.0077    0.0000 C   0  0  0  0  0  0  0  0  0  0  0  0
   -2.9696    0.5077    0.0000 C   0  0  0  0  0  0  0  0  0  0  0  0
   -1.6705   -0.2423    0.0000 H   0  0  0  0  0  0  0  0  0  0  0  0
   -4.2686   -0.2423    0.0000 C   0  0  0  0  0  0  0  0  0  0  0  0
   -4.2686   -1.7423    0.0000 H   0  0  0  0  0  0  0  0  0  0  0  0
   -5.5676    0.5077    0.0000 C   0  0  0  0  0  0  0  0  0  0  0  0
   -5.5676    2.0077    0.0000 C   0  0  0  0  0  0  0  0  0  0  0  0
   -6.8667    2.7577    0.0000 H   0  0  0  0  0  0  0  0  0  0  0  0
   -6.8667   -0.2423    0.0000 O   0  0  0  0  0  0  0  0  0  0  0  0
   -6.8667   -1.7423    0.0000 H   0  0  0  0  0  0  0  0  0  0  0  0
   -1.5733    2.5557    0.0000 N   0  0  0  0  0  0  0  0  0  0  0  0
   -1.1311    3.9891    0.0000 C   0  0  0  0  0  0  0  0  0  0  0  0
    0.3521    4.2126    0.0000 N   0  0  0  0  0  0  0  0  0  0  0  0
    1.2881    3.0394    0.0000 C   0  0  0  0  0  0  0  0  0  0  0  0
   -0.0293    2.3221    0.0000 H   0  0  0  0  0  0  0  0  0  0  0  0
    1.7654    1.6174    0.0000 H   0  0  0  0  0  0  0  0  0  0  0  0
    2.7722    3.2624    0.0000 C   0  0  0  0  0  0  0  0  0  0  0  0
    2.7343    1.7629    0.0000 H   0  0  0  0  0  0  0  0  0  0  0  0
    4.2424    2.9648    0.0000 H   0  0  0  0  0  0  0  0  0  0  0  0
    3.3205    4.6586    0.0000 N   0  0  0  0  0  0  0  0  0  0  0  0
    5.2784    4.9537    0.0000 C   0  0  0  0  0  0  0  0  0  0  0  0
    6.2136    3.7810    0.0000 H   0  0  0  0  0  0  0  0  0  0  0  0
    6.5957    5.6711    0.0000 H   0  0  0  0  0  0  0  0  0  0  0  0
    4.8006    6.3756    0.0000 H   0  0  0  0  0  0  0  0  0  0  0  0
    2.3845    5.8318    0.0000 C   0  0  0  0  0  0  0  0  0  0  0  0
    3.7019    6.5492    0.0000 H   0  0  0  0  0  0  0  0  0  0  0  0
    1.9072    7.2539    0.0000 H   0  0  0  0  0  0  0  0  0  0  0  0
    0.9004    5.6089    0.0000 C   0  0  0  0  0  0  0  0  0  0  0  0
    0.9383    7.1084    0.0000 H   0  0  0  0  0  0  0  0  0  0  0  0
   -0.5698    5.9065    0.0000 H   0  0  0  0  0  0  0  0  0  0  0  0
   -3.8275    6.7978    0.0000 S   0  0  0  0  0  0  0  0  0  0  0  0
  1  2  1  0  0  0  0 
  1  3  1  0  0  0  0 
  1  4  1  0  0  0  0 
  1  5  1  0  0  0  0 
  5  6  2  0  0  0  0 
  6  7  1  0  0  0  0 
  6  8  1  0  0  0  0 
  8  9  2  0  0  0  0 
  9 10  1  0  0  0  0 
 10 11  1  0  0  0  0 
 10 12  1  0  0  0  0 
 12 13  2  0  0  0  0 
 13 14  1  0  0  0  0 
 14 15  1  0  0  0  0 
 14 16  2  0  0  0  0 
 16 17  1  0  0  0  0 
 16 18  1  0  0  0  0 
 18 19  2  0  0  0  0 
 12 19  1  0  0  0  0 
 19 20  1  0  0  0  0 
 18 21  1  0  0  0  0 
 21 22  1  0  0  0  0 
 13 23  1  0  0  0  0 
 23 24  2  0  0  0  0 
  8 24  1  0  0  0  0 
 24 25  1  0  0  0  0 
 25 26  1  0  0  0  0 
 26 27  1  0  0  0  0 
 26 28  1  0  0  0  0 
 26 29  1  0  0  0  0 
 29 30  1  0  0  0  0 
 29 31  1  0  0  0  0 
 29 32  1  0  0  0  0 
 32 33  1  0  0  0  0 
 33 34  1  0  0  0  0 
 33 35  1  0  0  0  0 
 33 36  1  0  0  0  0 
 32 37  1  0  0  0  0 
 37 38  1  0  0  0  0 
 37 39  1  0  0  0  0 
 37 40  1  0  0  0  0 
 25 40  1  0  0  0  0 
 40 41  1  0  0  0  0 
 40 42  1  0  0  0  0 
  9 43  1  0  0  0  0 
  5 43  1  0  0  0  0 
M  END
> <Rank>
11

> <Priority_score>
0.3153984446357528

> <Reaction_type>
aromatic_hydroxylation_(para_to_nitrogen)

> <Parent_ID>
59

> <Parent_InChI>
InChI=1S/C17H20N4S/c1-12-11-13-16(21-9-7-20(2)8-10-21)18-14-5-3-4-6-15(14)19-17(13)22-12/h3-6,11,19H,7-10H2,1-2H3

> <Parent_SMILES>
Cc1cc2c(s1)Nc1ccccc1N=C2N1CCN(C)CC1

$$$$
Molecule 59_metabolite 14
  CDK     0516241031

 43 46  0  0  0  0  0  0  0  0999 V2000
   -0.1342   -3.5509    0.0000 C   0  0  0  0  0  0  0  0  0  0  0  0
   -1.4856   -4.2017    0.0000 H   0  0  0  0  0  0  0  0  0  0  0  0
    0.2721   -4.9948    0.0000 H   0  0  0  0  0  0  0  0  0  0  0  0
    1.3584   -3.4016    0.0000 H   0  0  0  0  0  0  0  0  0  0  0  0
   -0.0221   -2.0551    0.0000 C   0  0  0  0  0  0  0  0  0  0  0  0
   -1.1663   -1.0852    0.0000 C   0  0  0  0  0  0  0  0  0  0  0  0
   -2.6236   -1.4408    0.0000 H   0  0  0  0  0  0  0  0  0  0  0  0
   -0.5975    0.3028    0.0000 C   0  0  0  0  0  0  0  0  0  0  0  0
    0.8983    0.1907    0.0000 C   0  0  0  0  0  0  0  0  0  0  0  0
    1.9186    1.2902    0.0000 N   0  0  0  0  0  0  0  0  0  0  0  0
    3.3519    0.8481    0.0000 H   0  0  0  0  0  0  0  0  0  0  0  0
    1.6950    2.7735    0.0000 C   0  0  0  0  0  0  0  0  0  0  0  0
    0.3960    3.5235    0.0000 C   0  0  0  0  0  0  0  0  0  0  0  0
    0.3960    5.0235    0.0000 C   0  0  0  0  0  0  0  0  0  0  0  0
   -0.9031    5.7735    0.0000 H   0  0  0  0  0  0  0  0  0  0  0  0
    1.6950    5.7735    0.0000 C   0  0  0  0  0  0  0  0  0  0  0  0
    1.6950    7.2735    0.0000 H   0  0  0  0  0  0  0  0  0  0  0  0
    2.9940    5.0235    0.0000 C   0  0  0  0  0  0  0  0  0  0  0  0
    4.2931    5.7735    0.0000 H   0  0  0  0  0  0  0  0  0  0  0  0
    2.9940    3.5235    0.0000 C   0  0  0  0  0  0  0  0  0  0  0  0
    4.2931    2.7735    0.0000 O   0  0  0  0  0  0  0  0  0  0  0  0
    5.5921    3.5235    0.0000 H   0  0  0  0  0  0  0  0  0  0  0  0
   -1.0003    2.9755    0.0000 N   0  0  0  0  0  0  0  0  0  0  0  0
   -1.4425    1.5421    0.0000 C   0  0  0  0  0  0  0  0  0  0  0  0
   -2.9257    1.3185    0.0000 N   0  0  0  0  0  0  0  0  0  0  0  0
   -3.8617    2.4918    0.0000 C   0  0  0  0  0  0  0  0  0  0  0  0
   -2.5443    3.2091    0.0000 H   0  0  0  0  0  0  0  0  0  0  0  0
   -4.3390    3.9138    0.0000 H   0  0  0  0  0  0  0  0  0  0  0  0
   -5.3458    2.2688    0.0000 C   0  0  0  0  0  0  0  0  0  0  0  0
   -5.3079    3.7683    0.0000 H   0  0  0  0  0  0  0  0  0  0  0  0
   -6.8160    2.5664    0.0000 H   0  0  0  0  0  0  0  0  0  0  0  0
   -5.8941    0.8726    0.0000 N   0  0  0  0  0  0  0  0  0  0  0  0
   -7.8520    0.5775    0.0000 C   0  0  0  0  0  0  0  0  0  0  0  0
   -8.7872    1.7502    0.0000 H   0  0  0  0  0  0  0  0  0  0  0  0
   -9.1693   -0.1399    0.0000 H   0  0  0  0  0  0  0  0  0  0  0  0
   -7.3742   -0.8444    0.0000 H   0  0  0  0  0  0  0  0  0  0  0  0
   -4.9581   -0.3006    0.0000 C   0  0  0  0  0  0  0  0  0  0  0  0
   -6.2755   -1.0180    0.0000 H   0  0  0  0  0  0  0  0  0  0  0  0
   -4.4808   -1.7227    0.0000 H   0  0  0  0  0  0  0  0  0  0  0  0
   -3.4740   -0.0777    0.0000 C   0  0  0  0  0  0  0  0  0  0  0  0
   -3.5119   -1.5772    0.0000 H   0  0  0  0  0  0  0  0  0  0  0  0
   -2.0038   -0.3753    0.0000 H   0  0  0  0  0  0  0  0  0  0  0  0
    1.2539   -1.2666    0.0000 S   0  0  0  0  0  0  0  0  0  0  0  0
  1  2  1  0  0  0  0 
  1  3  1  0  0  0  0 
  1  4  1  0  0  0  0 
  1  5  1  0  0  0  0 
  5  6  2  0  0  0  0 
  6  7  1  0  0  0  0 
  6  8  1  0  0  0  0 
  8  9  2  0  0  0  0 
  9 10  1  0  0  0  0 
 10 11  1  0  0  0  0 
 10 12  1  0  0  0  0 
 12 13  2  0  0  0  0 
 13 14  1  0  0  0  0 
 14 15  1  0  0  0  0 
 14 16  2  0  0  0  0 
 16 17  1  0  0  0  0 
 16 18  1  0  0  0  0 
 18 19  1  0  0  0  0 
 18 20  2  0  0  0  0 
 12 20  1  0  0  0  0 
 20 21  1  0  0  0  0 
 21 22  1  0  0  0  0 
 13 23  1  0  0  0  0 
 23 24  2  0  0  0  0 
  8 24  1  0  0  0  0 
 24 25  1  0  0  0  0 
 25 26  1  0  0  0  0 
 26 27  1  0  0  0  0 
 26 28  1  0  0  0  0 
 26 29  1  0  0  0  0 
 29 30  1  0  0  0  0 
 29 31  1  0  0  0  0 
 29 32  1  0  0  0  0 
 32 33  1  0  0  0  0 
 33 34  1  0  0  0  0 
 33 35  1  0  0  0  0 
 33 36  1  0  0  0  0 
 32 37  1  0  0  0  0 
 37 38  1  0  0  0  0 
 37 39  1  0  0  0  0 
 37 40  1  0  0  0  0 
 25 40  1  0  0  0  0 
 40 41  1  0  0  0  0 
 40 42  1  0  0  0  0 
  9 43  1  0  0  0  0 
  5 43  1  0  0  0  0 
M  END
> <Rank>
11

> <Priority_score>
0.3153984446357528

> <Reaction_type>
aromatic_hydroxylation_(ortho_to_nitrogen)

> <Parent_ID>
59

> <Parent_InChI>
InChI=1S/C17H20N4S/c1-12-11-13-16(21-9-7-20(2)8-10-21)18-14-5-3-4-6-15(14)19-17(13)22-12/h3-6,11,19H,7-10H2,1-2H3

> <Parent_SMILES>
Cc1cc2c(s1)Nc1ccccc1N=C2N1CCN(C)CC1

$$$$
Molecule 59_metabolite 15
  CDK     0516241031

 43 46  0  0  0  0  0  0  0  0999 V2000
   -3.2715    8.2732    0.0000 C   0  0  0  0  0  0  0  0  0  0  0  0
   -1.9200    8.9241    0.0000 H   0  0  0  0  0  0  0  0  0  0  0  0
   -3.6777    9.7172    0.0000 H   0  0  0  0  0  0  0  0  0  0  0  0
   -4.7640    8.1239    0.0000 H   0  0  0  0  0  0  0  0  0  0  0  0
   -3.3835    6.7774    0.0000 C   0  0  0  0  0  0  0  0  0  0  0  0
   -2.2393    5.8075    0.0000 C   0  0  0  0  0  0  0  0  0  0  0  0
   -0.7821    6.1631    0.0000 H   0  0  0  0  0  0  0  0  0  0  0  0
   -2.8081    4.4196    0.0000 C   0  0  0  0  0  0  0  0  0  0  0  0
   -4.3039    4.5317    0.0000 C   0  0  0  0  0  0  0  0  0  0  0  0
   -5.3242    3.4321    0.0000 N   0  0  0  0  0  0  0  0  0  0  0  0
   -6.7576    3.8742    0.0000 H   0  0  0  0  0  0  0  0  0  0  0  0
   -5.1006    1.9488    0.0000 C   0  0  0  0  0  0  0  0  0  0  0  0
   -3.8016    1.1988    0.0000 C   0  0  0  0  0  0  0  0  0  0  0  0
   -3.8016   -0.3012    0.0000 C   0  0  0  0  0  0  0  0  0  0  0  0
   -2.5026   -1.0512    0.0000 H   0  0  0  0  0  0  0  0  0  0  0  0
   -5.1006   -1.0512    0.0000 C   0  0  0  0  0  0  0  0  0  0  0  0
   -5.1006   -2.5512    0.0000 H   0  0  0  0  0  0  0  0  0  0  0  0
   -6.3997   -0.3012    0.0000 C   0  0  0  0  0  0  0  0  0  0  0  0
   -7.6987   -1.0512    0.0000 H   0  0  0  0  0  0  0  0  0  0  0  0
   -6.3997    1.1988    0.0000 C   0  0  0  0  0  0  0  0  0  0  0  0
   -7.6987    1.9488    0.0000 H   0  0  0  0  0  0  0  0  0  0  0  0
   -2.4053    1.7469    0.0000 N   0  0  0  0  0  0  0  0  0  0  0  0
   -1.9632    3.1802    0.0000 C   0  0  0  0  0  0  0  0  0  0  0  0
   -0.4799    3.4038    0.0000 N   0  0  0  0  0  0  0  0  0  0  0  0
    0.4560    2.2305    0.0000 C   0  0  0  0  0  0  0  0  0  0  0  0
   -0.8613    1.5132    0.0000 H   0  0  0  0  0  0  0  0  0  0  0  0
    0.9334    0.8085    0.0000 H   0  0  0  0  0  0  0  0  0  0  0  0
    1.9402    2.4535    0.0000 C   0  0  0  0  0  0  0  0  0  0  0  0
    1.9022    0.9540    0.0000 H   0  0  0  0  0  0  0  0  0  0  0  0
    3.4104    2.1559    0.0000 H   0  0  0  0  0  0  0  0  0  0  0  0
    2.4884    3.8497    0.0000 N   0  0  0  0  0  0  0  0  0  0  0  0
    4.4463    4.1448    0.0000 C   0  0  0  0  0  0  0  0  0  0  0  0
    5.3816    2.9721    0.0000 H   0  0  0  0  0  0  0  0  0  0  0  0
    5.7637    4.8622    0.0000 H   0  0  0  0  0  0  0  0  0  0  0  0
    3.9686    5.5667    0.0000 H   0  0  0  0  0  0  0  0  0  0  0  0
    1.5525    5.0230    0.0000 C   0  0  0  0  0  0  0  0  0  0  0  0
    2.8699    5.7403    0.0000 H   0  0  0  0  0  0  0  0  0  0  0  0
    1.0751    6.4450    0.0000 H   0  0  0  0  0  0  0  0  0  0  0  0
    0.0683    4.8000    0.0000 C   0  0  0  0  0  0  0  0  0  0  0  0
    0.1063    6.2995    0.0000 H   0  0  0  0  0  0  0  0  0  0  0  0
   -1.4019    5.0976    0.0000 H   0  0  0  0  0  0  0  0  0  0  0  0
   -4.6596    5.9889    0.0000 S   0  0  0  0  0  0  0  0  0  0  0  0
   -6.0475    6.5577    0.0000 O   0  0  0  0  0  0  0  0  0  0  0  0
  1  2  1  0  0  0  0 
  1  3  1  0  0  0  0 
  1  4  1  0  0  0  0 
  1  5  1  0  0  0  0 
  5  6  2  0  0  0  0 
  6  7  1  0  0  0  0 
  6  8  1  0  0  0  0 
  8  9  2  0  0  0  0 
  9 10  1  0  0  0  0 
 10 11  1  0  0  0  0 
 10 12  1  0  0  0  0 
 12 13  2  0  0  0  0 
 13 14  1  0  0  0  0 
 14 15  1  0  0  0  0 
 14 16  2  0  0  0  0 
 16 17  1  0  0  0  0 
 16 18  1  0  0  0  0 
 18 19  1  0  0  0  0 
 18 20  2  0  0  0  0 
 12 20  1  0  0  0  0 
 20 21  1  0  0  0  0 
 13 22  1  0  0  0  0 
 22 23  2  0  0  0  0 
  8 23  1  0  0  0  0 
 23 24  1  0  0  0  0 
 24 25  1  0  0  0  0 
 25 26  1  0  0  0  0 
 25 27  1  0  0  0  0 
 25 28  1  0  0  0  0 
 28 29  1  0  0  0  0 
 28 30  1  0  0  0  0 
 28 31  1  0  0  0  0 
 31 32  1  0  0  0  0 
 32 33  1  0  0  0  0 
 32 34  1  0  0  0  0 
 32 35  1  0  0  0  0 
 31 36  1  0  0  0  0 
 36 37  1  0  0  0  0 
 36 38  1  0  0  0  0 
 36 39  1  0  0  0  0 
 24 39  1  0  0  0  0 
 39 40  1  0  0  0  0 
 39 41  1  0  0  0  0 
  9 42  1  0  0  0  0 
  5 42  1  0  0  0  0 
 42 43  2  0  0  0  0 
M  END
> <Rank>
15

> <Priority_score>
0.312

> <Reaction_type>
sulfide_oxidation_(c-S-c)

> <Parent_ID>
59

> <Parent_InChI>
InChI=1S/C17H20N4S/c1-12-11-13-16(21-9-7-20(2)8-10-21)18-14-5-3-4-6-15(14)19-17(13)22-12/h3-6,11,19H,7-10H2,1-2H3

> <Parent_SMILES>
Cc1cc2c(s1)Nc1ccccc1N=C2N1CCN(C)CC1

$$$$
Molecule 59_metabolite 16
  CDK     0516241031

 42 45  0  0  0  0  0  0  0  0999 V2000
   -5.8679    3.8602    0.0000 C   0  0  0  0  0  0  0  0  0  0  0  0
   -6.3101    5.2936    0.0000 H   0  0  0  0  0  0  0  0  0  0  0  0
   -7.3563    3.6737    0.0000 H   0  0  0  0  0  0  0  0  0  0  0  0
   -5.9427    2.3621    0.0000 H   0  0  0  0  0  0  0  0  0  0  0  0
   -3.9376    3.4196    0.0000 N   0  0  0  0  0  0  0  0  0  0  0  0
   -3.4950    1.9856    0.0000 C   0  0  0  0  0  0  0  0  0  0  0  0
   -4.9833    1.7991    0.0000 H   0  0  0  0  0  0  0  0  0  0  0  0
   -3.5701    0.4874    0.0000 H   0  0  0  0  0  0  0  0  0  0  0  0
   -2.0319    1.6509    0.0000 C   0  0  0  0  0  0  0  0  0  0  0  0
   -2.6151    0.2689    0.0000 H   0  0  0  0  0  0  0  0  0  0  0  0
   -0.7721    0.8367    0.0000 H   0  0  0  0  0  0  0  0  0  0  0  0
   -1.0115    2.7503    0.0000 N   0  0  0  0  0  0  0  0  0  0  0  0
   -1.4541    4.1844    0.0000 C   0  0  0  0  0  0  0  0  0  0  0  0
    0.0343    4.3708    0.0000 H   0  0  0  0  0  0  0  0  0  0  0  0
   -1.3789    5.6825    0.0000 H   0  0  0  0  0  0  0  0  0  0  0  0
   -2.9172    4.5191    0.0000 C   0  0  0  0  0  0  0  0  0  0  0  0
   -2.3340    5.9010    0.0000 H   0  0  0  0  0  0  0  0  0  0  0  0
   -4.1770    5.3332    0.0000 H   0  0  0  0  0  0  0  0  0  0  0  0
    0.4509    2.4165    0.0000 C   0  0  0  0  0  0  0  0  0  0  0  0
    0.7847    0.9541    0.0000 N   0  0  0  0  0  0  0  0  0  0  0  0
    2.1361    0.3033    0.0000 C   0  0  0  0  0  0  0  0  0  0  0  0
    3.4876    0.9541    0.0000 C   0  0  0  0  0  0  0  0  0  0  0  0
    4.7269    0.1091    0.0000 C   0  0  0  0  0  0  0  0  0  0  0  0
    6.0784    0.7600    0.0000 H   0  0  0  0  0  0  0  0  0  0  0  0
    4.6148   -1.3867    0.0000 C   0  0  0  0  0  0  0  0  0  0  0  0
    5.8542   -2.2316    0.0000 H   0  0  0  0  0  0  0  0  0  0  0  0
    3.2634   -2.0375    0.0000 C   0  0  0  0  0  0  0  0  0  0  0  0
    3.1513   -3.5333    0.0000 H   0  0  0  0  0  0  0  0  0  0  0  0
    2.0240   -1.1925    0.0000 C   0  0  0  0  0  0  0  0  0  0  0  0
    0.6726   -1.8433    0.0000 H   0  0  0  0  0  0  0  0  0  0  0  0
    3.8214    2.4165    0.0000 N   0  0  0  0  0  0  0  0  0  0  0  0
    5.2838    2.7503    0.0000 H   0  0  0  0  0  0  0  0  0  0  0  0
    2.8861    3.5893    0.0000 C   0  0  0  0  0  0  0  0  0  0  0  0
    1.3861    3.5893    0.0000 C   0  0  0  0  0  0  0  0  0  0  0  0
    0.9226    5.0158    0.0000 C   0  0  0  0  0  0  0  0  0  0  0  0
   -0.5040    5.4794    0.0000 H   0  0  0  0  0  0  0  0  0  0  0  0
    2.1361    5.8975    0.0000 C   0  0  0  0  0  0  0  0  0  0  0  0
    2.1361    7.3975    0.0000 C   0  0  0  0  0  0  0  0  0  0  0  0
    0.8371    8.1475    0.0000 O   0  0  0  0  0  0  0  0  0  0  0  0
    3.4352    8.1475    0.0000 O   0  0  0  0  0  0  0  0  0  0  0  0
    3.4352    9.6475    0.0000 H   0  0  0  0  0  0  0  0  0  0  0  0
    3.3497    5.0158    0.0000 S   0  0  0  0  0  0  0  0  0  0  0  0
  1  2  1  0  0  0  0 
  1  3  1  0  0  0  0 
  1  4  1  0  0  0  0 
  1  5  1  0  0  0  0 
  5  6  1  0  0  0  0 
  6  7  1  0  0  0  0 
  6  8  1  0  0  0  0 
  6  9  1  0  0  0  0 
  9 10  1  0  0  0  0 
  9 11  1  0  0  0  0 
  9 12  1  0  0  0  0 
 12 13  1  0  0  0  0 
 13 14  1  0  0  0  0 
 13 15  1  0  0  0  0 
 13 16  1  0  0  0  0 
  5 16  1  0  0  0  0 
 16 17  1  0  0  0  0 
 16 18  1  0  0  0  0 
 12 19  1  0  0  0  0 
 19 20  2  0  0  0  0 
 20 21  1  0  0  0  0 
 21 22  2  0  0  0  0 
 22 23  1  0  0  0  0 
 23 24  1  0  0  0  0 
 23 25  2  0  0  0  0 
 25 26  1  0  0  0  0 
 25 27  1  0  0  0  0 
 27 28  1  0  0  0  0 
 27 29  2  0  0  0  0 
 21 29  1  0  0  0  0 
 29 30  1  0  0  0  0 
 22 31  1  0  0  0  0 
 31 32  1  0  0  0  0 
 31 33  1  0  0  0  0 
 33 34  2  0  0  0  0 
 19 34  1  0  0  0  0 
 34 35  1  0  0  0  0 
 35 36  1  0  0  0  0 
 35 37  2  0  0  0  0 
 37 38  1  0  0  0  0 
 38 39  2  0  0  0  0 
 38 40  1  0  0  0  0 
 40 41  1  0  0  0  0 
 37 42  1  0  0  0  0 
 33 42  1  0  0  0  0 
M  END
> <Rank>
16

> <Priority_score>
0.224

> <Reaction_type>
carboxylation_(benzylic_CH3)

> <Parent_ID>
59

> <Parent_InChI>
InChI=1S/C17H20N4S/c1-12-11-13-16(21-9-7-20(2)8-10-21)18-14-5-3-4-6-15(14)19-17(13)22-12/h3-6,11,19H,7-10H2,1-2H3

> <Parent_SMILES>
Cc1cc2c(s1)Nc1ccccc1N=C2N1CCN(C)CC1

$$$$
Molecule 59_metabolite 17
  CDK     0516241031

 43 46  0  0  0  0  0  0  0  0999 V2000
    0.1642    8.2861    0.0000 C   0  0  0  0  0  0  0  0  0  0  0  0
    1.5975    8.7282    0.0000 H   0  0  0  0  0  0  0  0  0  0  0  0
   -0.0224    9.7745    0.0000 H   0  0  0  0  0  0  0  0  0  0  0  0
   -1.3340    8.3609    0.0000 H   0  0  0  0  0  0  0  0  0  0  0  0
   -0.2764    6.3557    0.0000 N   0  0  0  0  0  0  0  0  0  0  0  0
   -1.7105    5.9131    0.0000 C   0  0  0  0  0  0  0  0  0  0  0  0
   -1.8970    7.4015    0.0000 H   0  0  0  0  0  0  0  0  0  0  0  0
   -3.2086    5.9883    0.0000 H   0  0  0  0  0  0  0  0  0  0  0  0
   -2.0452    4.4501    0.0000 C   0  0  0  0  0  0  0  0  0  0  0  0
   -3.4272    5.0333    0.0000 H   0  0  0  0  0  0  0  0  0  0  0  0
   -2.8593    3.1903    0.0000 H   0  0  0  0  0  0  0  0  0  0  0  0
   -0.9458    3.4297    0.0000 N   0  0  0  0  0  0  0  0  0  0  0  0
    0.4883    3.8723    0.0000 C   0  0  0  0  0  0  0  0  0  0  0  0
    0.6747    2.3839    0.0000 H   0  0  0  0  0  0  0  0  0  0  0  0
    1.9864    3.7971    0.0000 H   0  0  0  0  0  0  0  0  0  0  0  0
    0.8230    5.3353    0.0000 C   0  0  0  0  0  0  0  0  0  0  0  0
    2.2050    4.7521    0.0000 H   0  0  0  0  0  0  0  0  0  0  0  0
    1.6371    6.5951    0.0000 H   0  0  0  0  0  0  0  0  0  0  0  0
   -1.2796    1.9673    0.0000 C   0  0  0  0  0  0  0  0  0  0  0  0
   -2.7419    1.6335    0.0000 N   0  0  0  0  0  0  0  0  0  0  0  0
   -3.3928    0.2820    0.0000 C   0  0  0  0  0  0  0  0  0  0  0  0
   -2.7419   -1.0694    0.0000 C   0  0  0  0  0  0  0  0  0  0  0  0
   -3.5869   -2.3088    0.0000 C   0  0  0  0  0  0  0  0  0  0  0  0
   -2.9361   -3.6602    0.0000 H   0  0  0  0  0  0  0  0  0  0  0  0
   -5.0827   -2.1967    0.0000 C   0  0  0  0  0  0  0  0  0  0  0  0
   -5.9277   -3.4360    0.0000 H   0  0  0  0  0  0  0  0  0  0  0  0
   -5.7336   -0.8452    0.0000 C   0  0  0  0  0  0  0  0  0  0  0  0
   -7.2294   -0.7331    0.0000 H   0  0  0  0  0  0  0  0  0  0  0  0
   -4.8886    0.3941    0.0000 C   0  0  0  0  0  0  0  0  0  0  0  0
   -5.5394    1.7456    0.0000 H   0  0  0  0  0  0  0  0  0  0  0  0
   -1.2796   -1.4032    0.0000 N   0  0  0  0  0  0  0  0  0  0  0  0
   -0.9458   -2.8656    0.0000 H   0  0  0  0  0  0  0  0  0  0  0  0
   -0.1068   -0.4680    0.0000 C   0  0  0  0  0  0  0  0  0  0  0  0
   -0.1068    1.0320    0.0000 C   0  0  0  0  0  0  0  0  0  0  0  0
    1.3198    1.4956    0.0000 C   0  0  0  0  0  0  0  0  0  0  0  0
    1.7833    2.9221    0.0000 H   0  0  0  0  0  0  0  0  0  0  0  0
    2.2015    0.2820    0.0000 C   0  0  0  0  0  0  0  0  0  0  0  0
    3.7015    0.2820    0.0000 C   0  0  0  0  0  0  0  0  0  0  0  0
    5.1110    0.7951    0.0000 H   0  0  0  0  0  0  0  0  0  0  0  0
    3.4410    1.7592    0.0000 H   0  0  0  0  0  0  0  0  0  0  0  0
    4.4515   -1.0170    0.0000 O   0  0  0  0  0  0  0  0  0  0  0  0
    5.9515   -1.0170    0.0000 H   0  0  0  0  0  0  0  0  0  0  0  0
    1.3198   -0.9315    0.0000 S   0  0  0  0  0  0  0  0  0  0  0  0
  1  2  1  0  0  0  0 
  1  3  1  0  0  0  0 
  1  4  1  0  0  0  0 
  1  5  1  0  0  0  0 
  5  6  1  0  0  0  0 
  6  7  1  0  0  0  0 
  6  8  1  0  0  0  0 
  6  9  1  0  0  0  0 
  9 10  1  0  0  0  0 
  9 11  1  0  0  0  0 
  9 12  1  0  0  0  0 
 12 13  1  0  0  0  0 
 13 14  1  0  0  0  0 
 13 15  1  0  0  0  0 
 13 16  1  0  0  0  0 
  5 16  1  0  0  0  0 
 16 17  1  0  0  0  0 
 16 18  1  0  0  0  0 
 12 19  1  0  0  0  0 
 19 20  2  0  0  0  0 
 20 21  1  0  0  0  0 
 21 22  2  0  0  0  0 
 22 23  1  0  0  0  0 
 23 24  1  0  0  0  0 
 23 25  2  0  0  0  0 
 25 26  1  0  0  0  0 
 25 27  1  0  0  0  0 
 27 28  1  0  0  0  0 
 27 29  2  0  0  0  0 
 21 29  1  0  0  0  0 
 29 30  1  0  0  0  0 
 22 31  1  0  0  0  0 
 31 32  1  0  0  0  0 
 31 33  1  0  0  0  0 
 33 34  2  0  0  0  0 
 19 34  1  0  0  0  0 
 34 35  1  0  0  0  0 
 35 36  1  0  0  0  0 
 35 37  2  0  0  0  0 
 37 38  1  0  0  0  0 
 38 39  1  0  0  0  0 
 38 40  1  0  0  0  0 
 38 41  1  0  0  0  0 
 41 42  1  0  0  0  0 
 37 43  1  0  0  0  0 
 33 43  1  0  0  0  0 
M  END
> <Rank>
16

> <Priority_score>
0.224

> <Reaction_type>
benzylic_hydroxylation_(c-CH3)

> <Parent_ID>
59

> <Parent_InChI>
InChI=1S/C17H20N4S/c1-12-11-13-16(21-9-7-20(2)8-10-21)18-14-5-3-4-6-15(14)19-17(13)22-12/h3-6,11,19H,7-10H2,1-2H3

> <Parent_SMILES>
Cc1cc2c(s1)Nc1ccccc1N=C2N1CCN(C)CC1

$$$$
Molecule 59_metabolite 18
  CDK     0516241031

 43 46  0  0  0  0  0  0  0  0999 V2000
   -3.9022    7.4950    0.0000 C   0  0  0  0  0  0  0  0  0  0  0  0
   -5.3854    7.7186    0.0000 H   0  0  0  0  0  0  0  0  0  0  0  0
   -3.9396    8.9945    0.0000 H   0  0  0  0  0  0  0  0  0  0  0  0
   -2.4319    7.7922    0.0000 H   0  0  0  0  0  0  0  0  0  0  0  0
   -3.3542    6.0987    0.0000 C   0  0  0  0  0  0  0  0  0  0  0  0
   -4.1617    4.8346    0.0000 C   0  0  0  0  0  0  0  0  0  0  0  0
   -5.6590    4.7449    0.0000 H   0  0  0  0  0  0  0  0  0  0  0  0
   -3.2090    3.6760    0.0000 C   0  0  0  0  0  0  0  0  0  0  0  0
   -1.8127    4.2240    0.0000 C   0  0  0  0  0  0  0  0  0  0  0  0
   -0.5137    3.4740    0.0000 N   0  0  0  0  0  0  0  0  0  0  0  0
    0.7257    4.3190    0.0000 H   0  0  0  0  0  0  0  0  0  0  0  0
   -0.2901    1.9907    0.0000 C   0  0  0  0  0  0  0  0  0  0  0  0
   -1.3104    0.8912    0.0000 C   0  0  0  0  0  0  0  0  0  0  0  0
   -0.8683   -0.5422    0.0000 C   0  0  0  0  0  0  0  0  0  0  0  0
   -1.8885   -1.6418    0.0000 H   0  0  0  0  0  0  0  0  0  0  0  0
    0.5941   -0.8760    0.0000 C   0  0  0  0  0  0  0  0  0  0  0  0
    1.0363   -2.3093    0.0000 H   0  0  0  0  0  0  0  0  0  0  0  0
    1.6144    0.2236    0.0000 C   0  0  0  0  0  0  0  0  0  0  0  0
    3.0768   -0.1102    0.0000 H   0  0  0  0  0  0  0  0  0  0  0  0
    1.1723    1.6570    0.0000 C   0  0  0  0  0  0  0  0  0  0  0  0
    2.1925    2.7565    0.0000 H   0  0  0  0  0  0  0  0  0  0  0  0
   -2.8062    1.0033    0.0000 N   0  0  0  0  0  0  0  0  0  0  0  0
   -3.6512    2.2426    0.0000 C   0  0  0  0  0  0  0  0  0  0  0  0
   -5.6091    1.9475    0.0000 N   0  0  0  0  0  0  0  0  0  0  0  0
   -5.1308    0.5249    0.0000 C   0  0  0  0  0  0  0  0  0  0  0  0
   -4.1955   -0.6478    0.0000 H   0  0  0  0  0  0  0  0  0  0  0  0
   -3.8135    1.2424    0.0000 H   0  0  0  0  0  0  0  0  0  0  0  0
   -6.1234   -0.5996    0.0000 C   0  0  0  0  0  0  0  0  0  0  0  0
   -6.6719   -1.9958    0.0000 H   0  0  0  0  0  0  0  0  0  0  0  0
   -4.8436   -1.3821    0.0000 H   0  0  0  0  0  0  0  0  0  0  0  0
   -7.5944   -0.3016    0.0000 N   0  0  0  0  0  0  0  0  0  0  0  0
   -8.9047   -1.7861    0.0000 C   0  0  0  0  0  0  0  0  0  0  0  0
  -10.3749   -1.4887    0.0000 H   0  0  0  0  0  0  0  0  0  0  0  0
   -9.4528   -3.1823    0.0000 H   0  0  0  0  0  0  0  0  0  0  0  0
   -7.6248   -2.5683    0.0000 H   0  0  0  0  0  0  0  0  0  0  0  0
   -8.0727    1.1210    0.0000 C   0  0  0  0  0  0  0  0  0  0  0  0
   -9.0079    2.2937    0.0000 H   0  0  0  0  0  0  0  0  0  0  0  0
   -9.3899    0.4034    0.0000 H   0  0  0  0  0  0  0  0  0  0  0  0
   -7.0800    2.2455    0.0000 C   0  0  0  0  0  0  0  0  0  0  0  0
   -6.5315    3.6417    0.0000 H   0  0  0  0  0  0  0  0  0  0  0  0
   -8.3598    3.0279    0.0000 H   0  0  0  0  0  0  0  0  0  0  0  0
   -5.5713    3.4470    0.0000 O   0  0  0  0  0  0  0  0  0  0  0  0
   -1.9024    5.7213    0.0000 S   0  0  0  0  0  0  0  0  0  0  0  0
  1  2  1  0  0  0  0 
  1  3  1  0  0  0  0 
  1  4  1  0  0  0  0 
  1  5  1  0  0  0  0 
  5  6  2  0  0  0  0 
  6  7  1  0  0  0  0 
  6  8  1  0  0  0  0 
  8  9  2  0  0  0  0 
  9 10  1  0  0  0  0 
 10 11  1  0  0  0  0 
 10 12  1  0  0  0  0 
 12 13  2  0  0  0  0 
 13 14  1  0  0  0  0 
 14 15  1  0  0  0  0 
 14 16  2  0  0  0  0 
 16 17  1  0  0  0  0 
 16 18  1  0  0  0  0 
 18 19  1  0  0  0  0 
 18 20  2  0  0  0  0 
 12 20  1  0  0  0  0 
 20 21  1  0  0  0  0 
 13 22  1  0  0  0  0 
 22 23  2  0  0  0  0 
  8 23  1  0  0  0  0 
 23 24  1  0  0  0  0 
 24 25  1  0  0  0  0 
 25 26  1  0  0  0  0 
 25 27  1  0  0  0  0 
 25 28  1  0  0  0  0 
 28 29  1  0  0  0  0 
 28 30  1  0  0  0  0 
 28 31  1  0  0  0  0 
 31 32  1  0  0  0  0 
 32 33  1  0  0  0  0 
 32 34  1  0  0  0  0 
 32 35  1  0  0  0  0 
 31 36  1  0  0  0  0 
 36 37  1  0  0  0  0 
 36 38  1  0  0  0  0 
 36 39  1  0  0  0  0 
 24 39  1  0  0  0  0 
 39 40  1  0  0  0  0 
 39 41  1  0  0  0  0 
 24 42  1  0  0  0  0 
  9 43  1  0  0  0  0 
  5 43  1  0  0  0  0 
M  CHG  1  24   1
M  CHG  1  42  -1
M  END
> <Rank>
18

> <Priority_score>
0.2

> <Reaction_type>
N-oxidation

> <Parent_ID>
59

> <Parent_InChI>
InChI=1S/C17H20N4S/c1-12-11-13-16(21-9-7-20(2)8-10-21)18-14-5-3-4-6-15(14)19-17(13)22-12/h3-6,11,19H,7-10H2,1-2H3

> <Parent_SMILES>
Cc1cc2c(s1)Nc1ccccc1N=C2N1CCN(C)CC1

$$$$
Molecule 59_metabolite 19
  CDK     0516241031

 43 45  0  0  0  0  0  0  0  0999 V2000
   -4.8845   10.7349    0.0000 C   0  0  0  0  0  0  0  0  0  0  0  0
   -3.5330   11.3857    0.0000 H   0  0  0  0  0  0  0  0  0  0  0  0
   -5.2907   12.1788    0.0000 H   0  0  0  0  0  0  0  0  0  0  0  0
   -6.3770   10.5855    0.0000 H   0  0  0  0  0  0  0  0  0  0  0  0
   -4.9966    9.2391    0.0000 C   0  0  0  0  0  0  0  0  0  0  0  0
   -3.8523    8.2692    0.0000 C   0  0  0  0  0  0  0  0  0  0  0  0
   -2.3951    8.6248    0.0000 H   0  0  0  0  0  0  0  0  0  0  0  0
   -4.4212    6.8812    0.0000 C   0  0  0  0  0  0  0  0  0  0  0  0
   -5.9170    6.9933    0.0000 C   0  0  0  0  0  0  0  0  0  0  0  0
   -6.9372    5.8938    0.0000 N   0  0  0  0  0  0  0  0  0  0  0  0
   -8.3706    6.3359    0.0000 H   0  0  0  0  0  0  0  0  0  0  0  0
   -6.7137    4.4105    0.0000 C   0  0  0  0  0  0  0  0  0  0  0  0
   -5.4146    3.6605    0.0000 C   0  0  0  0  0  0  0  0  0  0  0  0
   -5.4146    2.1605    0.0000 C   0  0  0  0  0  0  0  0  0  0  0  0
   -4.1156    1.4105    0.0000 H   0  0  0  0  0  0  0  0  0  0  0  0
   -6.7137    1.4105    0.0000 C   0  0  0  0  0  0  0  0  0  0  0  0
   -6.7137   -0.0895    0.0000 H   0  0  0  0  0  0  0  0  0  0  0  0
   -8.0127    2.1605    0.0000 C   0  0  0  0  0  0  0  0  0  0  0  0
   -9.3117    1.4105    0.0000 H   0  0  0  0  0  0  0  0  0  0  0  0
   -8.0127    3.6605    0.0000 C   0  0  0  0  0  0  0  0  0  0  0  0
   -9.3117    4.4105    0.0000 H   0  0  0  0  0  0  0  0  0  0  0  0
   -4.0183    4.2085    0.0000 N   0  0  0  0  0  0  0  0  0  0  0  0
   -3.5762    5.6419    0.0000 C   0  0  0  0  0  0  0  0  0  0  0  0
   -2.0929    5.8654    0.0000 N   0  0  0  0  0  0  0  0  0  0  0  0
   -1.5449    7.2618    0.0000 H   0  0  0  0  0  0  0  0  0  0  0  0
   -1.1577    4.6927    0.0000 C   0  0  0  0  0  0  0  0  0  0  0  0
   -2.4750    3.9753    0.0000 H   0  0  0  0  0  0  0  0  0  0  0  0
   -0.6800    3.2708    0.0000 H   0  0  0  0  0  0  0  0  0  0  0  0
    0.3255    4.9163    0.0000 C   0  0  0  0  0  0  0  0  0  0  0  0
    1.6429    5.6336    0.0000 H   0  0  0  0  0  0  0  0  0  0  0  0
   -0.1522    6.3381    0.0000 H   0  0  0  0  0  0  0  0  0  0  0  0
    1.5601    3.3682    0.0000 N   0  0  0  0  0  0  0  0  0  0  0  0
    1.0120    1.9719    0.0000 C   0  0  0  0  0  0  0  0  0  0  0  0
   -0.4712    1.7484    0.0000 H   0  0  0  0  0  0  0  0  0  0  0  0
    2.4823    1.6747    0.0000 H   0  0  0  0  0  0  0  0  0  0  0  0
    0.9746    0.4724    0.0000 H   0  0  0  0  0  0  0  0  0  0  0  0
    3.0433    3.5918    0.0000 C   0  0  0  0  0  0  0  0  0  0  0  0
    4.3606    4.3092    0.0000 H   0  0  0  0  0  0  0  0  0  0  0  0
    2.5656    5.0137    0.0000 H   0  0  0  0  0  0  0  0  0  0  0  0
    3.9785    2.4190    0.0000 C   0  0  0  0  0  0  0  0  0  0  0  0
    5.4618    2.6426    0.0000 H   0  0  0  0  0  0  0  0  0  0  0  0
    3.4305    1.0227    0.0000 O   0  0  0  0  0  0  0  0  0  0  0  0
   -6.2726    8.4506    0.0000 S   0  0  0  0  0  0  0  0  0  0  0  0
  1  2  1  0  0  0  0 
  1  3  1  0  0  0  0 
  1  4  1  0  0  0  0 
  1  5  1  0  0  0  0 
  5  6  2  0  0  0  0 
  6  7  1  0  0  0  0 
  6  8  1  0  0  0  0 
  8  9  2  0  0  0  0 
  9 10  1  0  0  0  0 
 10 11  1  0  0  0  0 
 10 12  1  0  0  0  0 
 12 13  2  0  0  0  0 
 13 14  1  0  0  0  0 
 14 15  1  0  0  0  0 
 14 16  2  0  0  0  0 
 16 17  1  0  0  0  0 
 16 18  1  0  0  0  0 
 18 19  1  0  0  0  0 
 18 20  2  0  0  0  0 
 12 20  1  0  0  0  0 
 20 21  1  0  0  0  0 
 13 22  1  0  0  0  0 
 22 23  2  0  0  0  0 
  8 23  1  0  0  0  0 
 23 24  1  0  0  0  0 
 24 25  1  0  0  0  0 
 24 26  1  0  0  0  0 
 26 27  1  0  0  0  0 
 26 28  1  0  0  0  0 
 26 29  1  0  0  0  0 
 29 30  1  0  0  0  0 
 29 31  1  0  0  0  0 
 29 32  1  0  0  0  0 
 32 33  1  0  0  0  0 
 33 34  1  0  0  0  0 
 33 35  1  0  0  0  0 
 33 36  1  0  0  0  0 
 32 37  1  0  0  0  0 
 37 38  1  0  0  0  0 
 37 39  1  0  0  0  0 
 37 40  1  0  0  0  0 
 40 41  1  0  0  0  0 
 40 42  2  0  0  0  0 
  9 43  1  0  0  0  0 
  5 43  1  0  0  0  0 
M  END
> <Rank>
18

> <Priority_score>
0.2

> <Reaction_type>
N-dealkylation

> <Parent_ID>
59

> <Parent_InChI>
InChI=1S/C17H20N4S/c1-12-11-13-16(21-9-7-20(2)8-10-21)18-14-5-3-4-6-15(14)19-17(13)22-12/h3-6,11,19H,7-10H2,1-2H3

> <Parent_SMILES>
Cc1cc2c(s1)Nc1ccccc1N=C2N1CCN(C)CC1

$$$$
Molecule 59_metabolite 20
  CDK     0516241031

 41 44  0  0  0  0  0  0  0  0999 V2000
   -0.4836   -3.2600    0.0000 C   0  0  0  0  0  0  0  0  0  0  0  0
   -1.8351   -3.9108    0.0000 H   0  0  0  0  0  0  0  0  0  0  0  0
   -0.0774   -4.7039    0.0000 H   0  0  0  0  0  0  0  0  0  0  0  0
    1.0089   -3.1106    0.0000 H   0  0  0  0  0  0  0  0  0  0  0  0
   -0.3715   -1.7642    0.0000 C   0  0  0  0  0  0  0  0  0  0  0  0
   -1.5158   -0.7943    0.0000 C   0  0  0  0  0  0  0  0  0  0  0  0
   -2.9730   -1.1499    0.0000 H   0  0  0  0  0  0  0  0  0  0  0  0
   -0.9469    0.5937    0.0000 C   0  0  0  0  0  0  0  0  0  0  0  0
    0.5489    0.4816    0.0000 C   0  0  0  0  0  0  0  0  0  0  0  0
    1.5691    1.5811    0.0000 N   0  0  0  0  0  0  0  0  0  0  0  0
    3.0025    1.1390    0.0000 H   0  0  0  0  0  0  0  0  0  0  0  0
    1.3456    3.0644    0.0000 C   0  0  0  0  0  0  0  0  0  0  0  0
    0.0465    3.8144    0.0000 C   0  0  0  0  0  0  0  0  0  0  0  0
    0.0465    5.3144    0.0000 C   0  0  0  0  0  0  0  0  0  0  0  0
   -1.2525    6.0644    0.0000 H   0  0  0  0  0  0  0  0  0  0  0  0
    1.3456    6.0644    0.0000 C   0  0  0  0  0  0  0  0  0  0  0  0
    1.3456    7.5644    0.0000 H   0  0  0  0  0  0  0  0  0  0  0  0
    2.6446    5.3144    0.0000 C   0  0  0  0  0  0  0  0  0  0  0  0
    3.9436    6.0644    0.0000 H   0  0  0  0  0  0  0  0  0  0  0  0
    2.6446    3.8144    0.0000 C   0  0  0  0  0  0  0  0  0  0  0  0
    3.9436    3.0644    0.0000 H   0  0  0  0  0  0  0  0  0  0  0  0
   -1.3498    3.2664    0.0000 N   0  0  0  0  0  0  0  0  0  0  0  0
   -1.7919    1.8330    0.0000 C   0  0  0  0  0  0  0  0  0  0  0  0
   -3.2752    1.6095    0.0000 N   0  0  0  0  0  0  0  0  0  0  0  0
   -4.2111    2.7827    0.0000 C   0  0  0  0  0  0  0  0  0  0  0  0
   -2.8937    3.5000    0.0000 H   0  0  0  0  0  0  0  0  0  0  0  0
   -4.6885    4.2047    0.0000 H   0  0  0  0  0  0  0  0  0  0  0  0
   -5.6953    2.5597    0.0000 C   0  0  0  0  0  0  0  0  0  0  0  0
   -5.6573    4.0593    0.0000 H   0  0  0  0  0  0  0  0  0  0  0  0
   -7.1655    2.8573    0.0000 H   0  0  0  0  0  0  0  0  0  0  0  0
   -6.2435    1.1635    0.0000 N   0  0  0  0  0  0  0  0  0  0  0  0
   -7.7268    0.9399    0.0000 C   0  0  0  0  0  0  0  0  0  0  0  0
   -8.6620    2.1127    0.0000 H   0  0  0  0  0  0  0  0  0  0  0  0
   -8.2748   -0.4564    0.0000 H   0  0  0  0  0  0  0  0  0  0  0  0
   -5.3076   -0.0097    0.0000 C   0  0  0  0  0  0  0  0  0  0  0  0
   -6.6249   -0.7270    0.0000 H   0  0  0  0  0  0  0  0  0  0  0  0
   -4.8302   -1.4318    0.0000 H   0  0  0  0  0  0  0  0  0  0  0  0
   -3.8234    0.2132    0.0000 C   0  0  0  0  0  0  0  0  0  0  0  0
   -3.8614   -1.2863    0.0000 H   0  0  0  0  0  0  0  0  0  0  0  0
   -2.3532   -0.0844    0.0000 H   0  0  0  0  0  0  0  0  0  0  0  0
    0.9045   -0.9757    0.0000 S   0  0  0  0  0  0  0  0  0  0  0  0
  1  2  1  0  0  0  0 
  1  3  1  0  0  0  0 
  1  4  1  0  0  0  0 
  1  5  1  0  0  0  0 
  5  6  2  0  0  0  0 
  6  7  1  0  0  0  0 
  6  8  1  0  0  0  0 
  8  9  2  0  0  0  0 
  9 10  1  0  0  0  0 
 10 11  1  0  0  0  0 
 10 12  1  0  0  0  0 
 12 13  2  0  0  0  0 
 13 14  1  0  0  0  0 
 14 15  1  0  0  0  0 
 14 16  2  0  0  0  0 
 16 17  1  0  0  0  0 
 16 18  1  0  0  0  0 
 18 19  1  0  0  0  0 
 18 20  2  0  0  0  0 
 12 20  1  0  0  0  0 
 20 21  1  0  0  0  0 
 13 22  1  0  0  0  0 
 22 23  2  0  0  0  0 
  8 23  1  0  0  0  0 
 23 24  1  0  0  0  0 
 24 25  1  0  0  0  0 
 25 26  1  0  0  0  0 
 25 27  1  0  0  0  0 
 25 28  1  0  0  0  0 
 28 29  1  0  0  0  0 
 28 30  1  0  0  0  0 
 28 31  1  0  0  0  0 
 31 32  2  0  0  0  0 
 32 33  1  0  0  0  0 
 32 34  1  0  0  0  0 
 31 35  1  0  0  0  0 
 35 36  1  0  0  0  0 
 35 37  1  0  0  0  0 
 35 38  1  0  0  0  0 
 24 38  1  0  0  0  0 
 38 39  1  0  0  0  0 
 38 40  1  0  0  0  0 
  9 41  1  0  0  0  0 
  5 41  1  0  0  0  0 
M  CHG  1  31   1
M  END
> <Rank>
20

> <Priority_score>
0.16240000000000002

> <Reaction_type>
dehydration of N-C bond

> <Parent_ID>
59

> <Parent_InChI>
InChI=1S/C17H20N4S/c1-12-11-13-16(21-9-7-20(2)8-10-21)18-14-5-3-4-6-15(14)19-17(13)22-12/h3-6,11,19H,7-10H2,1-2H3

> <Parent_SMILES>
Cc1cc2c(s1)Nc1ccccc1N=C2N1CCN(C)CC1

$$$$
Molecule 59_metabolite 21
  CDK     0516241031

 43 46  0  0  0  0  0  0  0  0999 V2000
   -3.3947    8.4868    0.0000 C   0  0  0  0  0  0  0  0  0  0  0  0
   -2.0433    9.1376    0.0000 H   0  0  0  0  0  0  0  0  0  0  0  0
   -3.8010    9.9307    0.0000 H   0  0  0  0  0  0  0  0  0  0  0  0
   -4.8873    8.3374    0.0000 H   0  0  0  0  0  0  0  0  0  0  0  0
   -3.5068    6.9910    0.0000 C   0  0  0  0  0  0  0  0  0  0  0  0
   -2.3626    6.0211    0.0000 C   0  0  0  0  0  0  0  0  0  0  0  0
   -0.9054    6.3767    0.0000 H   0  0  0  0  0  0  0  0  0  0  0  0
   -2.9314    4.6331    0.0000 C   0  0  0  0  0  0  0  0  0  0  0  0
   -4.4272    4.7452    0.0000 C   0  0  0  0  0  0  0  0  0  0  0  0
   -5.4475    3.6456    0.0000 N   0  0  0  0  0  0  0  0  0  0  0  0
   -5.2239    2.1624    0.0000 C   0  0  0  0  0  0  0  0  0  0  0  0
   -3.9249    1.4124    0.0000 C   0  0  0  0  0  0  0  0  0  0  0  0
   -3.9249   -0.0876    0.0000 C   0  0  0  0  0  0  0  0  0  0  0  0
   -2.6258   -0.8376    0.0000 H   0  0  0  0  0  0  0  0  0  0  0  0
   -5.2239   -0.8376    0.0000 C   0  0  0  0  0  0  0  0  0  0  0  0
   -5.2239   -2.3376    0.0000 H   0  0  0  0  0  0  0  0  0  0  0  0
   -6.5230   -0.0876    0.0000 C   0  0  0  0  0  0  0  0  0  0  0  0
   -7.8220   -0.8376    0.0000 H   0  0  0  0  0  0  0  0  0  0  0  0
   -6.5230    1.4124    0.0000 C   0  0  0  0  0  0  0  0  0  0  0  0
   -7.8220    2.1624    0.0000 H   0  0  0  0  0  0  0  0  0  0  0  0
   -2.5286    1.9604    0.0000 N   0  0  0  0  0  0  0  0  0  0  0  0
   -2.0864    3.3937    0.0000 C   0  0  0  0  0  0  0  0  0  0  0  0
   -0.6032    3.6173    0.0000 N   0  0  0  0  0  0  0  0  0  0  0  0
    0.3327    2.4441    0.0000 C   0  0  0  0  0  0  0  0  0  0  0  0
   -0.9846    1.7267    0.0000 H   0  0  0  0  0  0  0  0  0  0  0  0
    0.8101    1.0220    0.0000 H   0  0  0  0  0  0  0  0  0  0  0  0
    1.8169    2.6670    0.0000 C   0  0  0  0  0  0  0  0  0  0  0  0
    1.7790    1.1675    0.0000 H   0  0  0  0  0  0  0  0  0  0  0  0
    3.2871    2.3694    0.0000 H   0  0  0  0  0  0  0  0  0  0  0  0
    2.3652    4.0633    0.0000 N   0  0  0  0  0  0  0  0  0  0  0  0
    4.3230    4.3584    0.0000 C   0  0  0  0  0  0  0  0  0  0  0  0
    5.2583    3.1856    0.0000 H   0  0  0  0  0  0  0  0  0  0  0  0
    5.6404    5.0757    0.0000 H   0  0  0  0  0  0  0  0  0  0  0  0
    3.8453    5.7803    0.0000 H   0  0  0  0  0  0  0  0  0  0  0  0
    1.4292    5.2365    0.0000 C   0  0  0  0  0  0  0  0  0  0  0  0
    2.7466    5.9538    0.0000 H   0  0  0  0  0  0  0  0  0  0  0  0
    0.9519    6.6585    0.0000 H   0  0  0  0  0  0  0  0  0  0  0  0
   -0.0550    5.0135    0.0000 C   0  0  0  0  0  0  0  0  0  0  0  0
   -0.0170    6.5131    0.0000 H   0  0  0  0  0  0  0  0  0  0  0  0
   -1.5251    5.3111    0.0000 H   0  0  0  0  0  0  0  0  0  0  0  0
   -6.8808    4.0878    0.0000 O   0  0  0  0  0  0  0  0  0  0  0  0
   -7.9804    3.0675    0.0000 H   0  0  0  0  0  0  0  0  0  0  0  0
   -4.7829    6.2024    0.0000 S   0  0  0  0  0  0  0  0  0  0  0  0
  1  2  1  0  0  0  0 
  1  3  1  0  0  0  0 
  1  4  1  0  0  0  0 
  1  5  1  0  0  0  0 
  5  6  2  0  0  0  0 
  6  7  1  0  0  0  0 
  6  8  1  0  0  0  0 
  8  9  2  0  0  0  0 
  9 10  1  0  0  0  0 
 10 11  1  0  0  0  0 
 11 12  2  0  0  0  0 
 12 13  1  0  0  0  0 
 13 14  1  0  0  0  0 
 13 15  2  0  0  0  0 
 15 16  1  0  0  0  0 
 15 17  1  0  0  0  0 
 17 18  1  0  0  0  0 
 17 19  2  0  0  0  0 
 11 19  1  0  0  0  0 
 19 20  1  0  0  0  0 
 12 21  1  0  0  0  0 
 21 22  2  0  0  0  0 
  8 22  1  0  0  0  0 
 22 23  1  0  0  0  0 
 23 24  1  0  0  0  0 
 24 25  1  0  0  0  0 
 24 26  1  0  0  0  0 
 24 27  1  0  0  0  0 
 27 28  1  0  0  0  0 
 27 29  1  0  0  0  0 
 27 30  1  0  0  0  0 
 30 31  1  0  0  0  0 
 31 32  1  0  0  0  0 
 31 33  1  0  0  0  0 
 31 34  1  0  0  0  0 
 30 35  1  0  0  0  0 
 35 36  1  0  0  0  0 
 35 37  1  0  0  0  0 
 35 38  1  0  0  0  0 
 23 38  1  0  0  0  0 
 38 39  1  0  0  0  0 
 38 40  1  0  0  0  0 
 10 41  1  0  0  0  0 
 41 42  1  0  0  0  0 
  9 43  1  0  0  0  0 
  5 43  1  0  0  0  0 
M  END
> <Rank>
21

> <Priority_score>
0.124

> <Reaction_type>
amine hydroxylation

> <Parent_ID>
59

> <Parent_InChI>
InChI=1S/C17H20N4S/c1-12-11-13-16(21-9-7-20(2)8-10-21)18-14-5-3-4-6-15(14)19-17(13)22-12/h3-6,11,19H,7-10H2,1-2H3

> <Parent_SMILES>
Cc1cc2c(s1)Nc1ccccc1N=C2N1CCN(C)CC1

$$$$
Molecule 59_metabolite 22
  CDK     0516241031

 19 19  0  0  0  0  0  0  0  0999 V2000
   -0.0000   -2.0705    0.0000 C   0  0  0  0  0  0  0  0  0  0  0  0
    1.2990   -2.8205    0.0000 H   0  0  0  0  0  0  0  0  0  0  0  0
   -1.4772   -1.8100    0.0000 H   0  0  0  0  0  0  0  0  0  0  0  0
   -0.5130   -3.4800    0.0000 H   0  0  0  0  0  0  0  0  0  0  0  0
   -0.0000   -0.0905    0.0000 N   0  0  0  0  0  0  0  0  0  0  0  0
   -1.3000    0.6595    0.0000 C   0  0  0  0  0  0  0  0  0  0  0  0
   -2.7772    0.9199    0.0000 H   0  0  0  0  0  0  0  0  0  0  0  0
   -1.8127   -0.7501    0.0000 H   0  0  0  0  0  0  0  0  0  0  0  0
   -1.3000    2.1595    0.0000 C   0  0  0  0  0  0  0  0  0  0  0  0
   -1.8127    3.5692    0.0000 H   0  0  0  0  0  0  0  0  0  0  0  0
   -2.7772    1.8992    0.0000 H   0  0  0  0  0  0  0  0  0  0  0  0
    0.0000    2.9095    0.0000 N   0  0  0  0  0  0  0  0  0  0  0  0
    0.0000    4.4095    0.0000 H   0  0  0  0  0  0  0  0  0  0  0  0
    1.3000    2.1595    0.0000 C   0  0  0  0  0  0  0  0  0  0  0  0
    2.7772    1.8992    0.0000 H   0  0  0  0  0  0  0  0  0  0  0  0
    1.8127    3.5692    0.0000 H   0  0  0  0  0  0  0  0  0  0  0  0
    1.3000    0.6595    0.0000 C   0  0  0  0  0  0  0  0  0  0  0  0
    1.8127   -0.7501    0.0000 H   0  0  0  0  0  0  0  0  0  0  0  0
    2.7772    0.9199    0.0000 H   0  0  0  0  0  0  0  0  0  0  0  0
  1  2  1  0  0  0  0 
  1  3  1  0  0  0  0 
  1  4  1  0  0  0  0 
  1  5  1  0  0  0  0 
  5  6  1  0  0  0  0 
  6  7  1  0  0  0  0 
  6  8  1  0  0  0  0 
  6  9  1  0  0  0  0 
  9 10  1  0  0  0  0 
  9 11  1  0  0  0  0 
  9 12  1  0  0  0  0 
 12 13  1  0  0  0  0 
 12 14  1  0  0  0  0 
 14 15  1  0  0  0  0 
 14 16  1  0  0  0  0 
 14 17  1  0  0  0  0 
  5 17  1  0  0  0  0 
 17 18  1  0  0  0  0 
 17 19  1  0  0  0  0 
M  END
> <Rank>
22

> <Priority_score>
0.12

> <Reaction_type>
oxidative_deamination_(amidine)

> <Parent_ID>
59

> <Parent_InChI>
InChI=1S/C17H20N4S/c1-12-11-13-16(21-9-7-20(2)8-10-21)18-14-5-3-4-6-15(14)19-17(13)22-12/h3-6,11,19H,7-10H2,1-2H3

> <Parent_SMILES>
Cc1cc2c(s1)Nc1ccccc1N=C2N1CCN(C)CC1

$$$$
Molecule 59_metabolite 23
  CDK     0516241031

 26 28  0  0  0  0  0  0  0  0999 V2000
    2.2391   -2.3032    0.0000 C   0  0  0  0  0  0  0  0  0  0  0  0
    2.1270   -3.7991    0.0000 H   0  0  0  0  0  0  0  0  0  0  0  0
    3.6927   -2.6734    0.0000 H   0  0  0  0  0  0  0  0  0  0  0  0
    2.8560   -0.9360    0.0000 H   0  0  0  0  0  0  0  0  0  0  0  0
    0.9997   -1.4583    0.0000 C   0  0  0  0  0  0  0  0  0  0  0  0
   -0.4124   -1.9643    0.0000 C   0  0  0  0  0  0  0  0  0  0  0  0
   -0.8330   -3.4041    0.0000 H   0  0  0  0  0  0  0  0  0  0  0  0
   -1.3299   -0.7777    0.0000 C   0  0  0  0  0  0  0  0  0  0  0  0
   -0.4850    0.4617    0.0000 C   0  0  0  0  0  0  0  0  0  0  0  0
   -0.9271    1.8951    0.0000 N   0  0  0  0  0  0  0  0  0  0  0  0
    0.1725    2.9153    0.0000 H   0  0  0  0  0  0  0  0  0  0  0  0
   -2.3234    2.4431    0.0000 C   0  0  0  0  0  0  0  0  0  0  0  0
   -3.6225    1.6931    0.0000 C   0  0  0  0  0  0  0  0  0  0  0  0
   -4.9215    2.4431    0.0000 C   0  0  0  0  0  0  0  0  0  0  0  0
   -6.2205    1.6931    0.0000 H   0  0  0  0  0  0  0  0  0  0  0  0
   -4.9215    3.9431    0.0000 C   0  0  0  0  0  0  0  0  0  0  0  0
   -6.2205    4.6931    0.0000 H   0  0  0  0  0  0  0  0  0  0  0  0
   -3.6225    4.6931    0.0000 C   0  0  0  0  0  0  0  0  0  0  0  0
   -3.6225    6.1931    0.0000 H   0  0  0  0  0  0  0  0  0  0  0  0
   -2.3234    3.9431    0.0000 C   0  0  0  0  0  0  0  0  0  0  0  0
   -1.0244    4.6931    0.0000 H   0  0  0  0  0  0  0  0  0  0  0  0
   -3.8460    0.2098    0.0000 N   0  0  0  0  0  0  0  0  0  0  0  0
   -5.2794   -0.2323    0.0000 H   0  0  0  0  0  0  0  0  0  0  0  0
   -2.8258   -0.8898    0.0000 C   0  0  0  0  0  0  0  0  0  0  0  0
   -3.3738   -2.2861    0.0000 O   0  0  0  0  0  0  0  0  0  0  0  0
    0.9548    0.0411    0.0000 S   0  0  0  0  0  0  0  0  0  0  0  0
  1  2  1  0  0  0  0 
  1  3  1  0  0  0  0 
  1  4  1  0  0  0  0 
  1  5  1  0  0  0  0 
  5  6  2  0  0  0  0 
  6  7  1  0  0  0  0 
  6  8  1  0  0  0  0 
  8  9  2  0  0  0  0 
  9 10  1  0  0  0  0 
 10 11  1  0  0  0  0 
 10 12  1  0  0  0  0 
 12 13  2  0  0  0  0 
 13 14  1  0  0  0  0 
 14 15  1  0  0  0  0 
 14 16  2  0  0  0  0 
 16 17  1  0  0  0  0 
 16 18  1  0  0  0  0 
 18 19  1  0  0  0  0 
 18 20  2  0  0  0  0 
 12 20  1  0  0  0  0 
 20 21  1  0  0  0  0 
 13 22  1  0  0  0  0 
 22 23  1  0  0  0  0 
 22 24  1  0  0  0  0 
  8 24  1  0  0  0  0 
 24 25  2  0  0  0  0 
  9 26  1  0  0  0  0 
  5 26  1  0  0  0  0 
M  END
> <Rank>
22

> <Priority_score>
0.12

> <Reaction_type>
oxidative_deamination_(amidine)

> <Parent_ID>
59

> <Parent_InChI>
InChI=1S/C17H20N4S/c1-12-11-13-16(21-9-7-20(2)8-10-21)18-14-5-3-4-6-15(14)19-17(13)22-12/h3-6,11,19H,7-10H2,1-2H3

> <Parent_SMILES>
Cc1cc2c(s1)Nc1ccccc1N=C2N1CCN(C)CC1

$$$$
Molecule 59_metabolite 24
  CDK     0516241031

 62 66  0  0  0  0  0  0  0  0999 V2000
   -0.3073    5.0767    0.0000 C   0  0  0  0  0  0  0  0  0  0  0  0
    1.0442    5.7275    0.0000 H   0  0  0  0  0  0  0  0  0  0  0  0
   -0.7135    6.5206    0.0000 H   0  0  0  0  0  0  0  0  0  0  0  0
   -1.7998    4.9273    0.0000 H   0  0  0  0  0  0  0  0  0  0  0  0
   -0.4194    3.5809    0.0000 C   0  0  0  0  0  0  0  0  0  0  0  0
    0.7249    2.6110    0.0000 C   0  0  0  0  0  0  0  0  0  0  0  0
    2.1821    2.9666    0.0000 H   0  0  0  0  0  0  0  0  0  0  0  0
    0.1560    1.2230    0.0000 C   0  0  0  0  0  0  0  0  0  0  0  0
   -1.3398    1.3351    0.0000 C   0  0  0  0  0  0  0  0  0  0  0  0
   -2.3600    0.2355    0.0000 N   0  0  0  0  0  0  0  0  0  0  0  0
   -2.1365   -1.2477    0.0000 C   0  0  0  0  0  0  0  0  0  0  0  0
   -0.8374   -1.9977    0.0000 C   0  0  0  0  0  0  0  0  0  0  0  0
   -0.8374   -3.4977    0.0000 C   0  0  0  0  0  0  0  0  0  0  0  0
    0.4616   -4.2477    0.0000 H   0  0  0  0  0  0  0  0  0  0  0  0
   -2.1365   -4.2477    0.0000 C   0  0  0  0  0  0  0  0  0  0  0  0
   -2.1365   -5.7477    0.0000 H   0  0  0  0  0  0  0  0  0  0  0  0
   -3.4355   -3.4977    0.0000 C   0  0  0  0  0  0  0  0  0  0  0  0
   -4.7345   -4.2477    0.0000 H   0  0  0  0  0  0  0  0  0  0  0  0
   -3.4355   -1.9977    0.0000 C   0  0  0  0  0  0  0  0  0  0  0  0
   -4.7345   -1.2477    0.0000 H   0  0  0  0  0  0  0  0  0  0  0  0
    0.5589   -1.4497    0.0000 N   0  0  0  0  0  0  0  0  0  0  0  0
    1.0010   -0.0163    0.0000 C   0  0  0  0  0  0  0  0  0  0  0  0
    2.4843    0.2072    0.0000 N   0  0  0  0  0  0  0  0  0  0  0  0
    3.4202   -0.9660    0.0000 C   0  0  0  0  0  0  0  0  0  0  0  0
    2.1028   -1.6833    0.0000 H   0  0  0  0  0  0  0  0  0  0  0  0
    3.8976   -2.3880    0.0000 H   0  0  0  0  0  0  0  0  0  0  0  0
    4.9044   -0.7430    0.0000 C   0  0  0  0  0  0  0  0  0  0  0  0
    4.8664   -2.2426    0.0000 H   0  0  0  0  0  0  0  0  0  0  0  0
    6.3746   -1.0407    0.0000 H   0  0  0  0  0  0  0  0  0  0  0  0
    5.4526    0.6532    0.0000 N   0  0  0  0  0  0  0  0  0  0  0  0
    7.4105    0.9483    0.0000 C   0  0  0  0  0  0  0  0  0  0  0  0
    8.3457   -0.2245    0.0000 H   0  0  0  0  0  0  0  0  0  0  0  0
    8.7278    1.6657    0.0000 H   0  0  0  0  0  0  0  0  0  0  0  0
    6.9328    2.3702    0.0000 H   0  0  0  0  0  0  0  0  0  0  0  0
    4.5167    1.8264    0.0000 C   0  0  0  0  0  0  0  0  0  0  0  0
    5.8340    2.5437    0.0000 H   0  0  0  0  0  0  0  0  0  0  0  0
    4.0393    3.2484    0.0000 H   0  0  0  0  0  0  0  0  0  0  0  0
    3.0325    1.6035    0.0000 C   0  0  0  0  0  0  0  0  0  0  0  0
    3.0705    3.1030    0.0000 H   0  0  0  0  0  0  0  0  0  0  0  0
    1.5623    1.9011    0.0000 H   0  0  0  0  0  0  0  0  0  0  0  0
   -5.1694    1.1021    0.0000 C   0  0  0  0  0  0  0  0  0  0  0  0
   -4.4852    2.4370    0.0000 H   0  0  0  0  0  0  0  0  0  0  0  0
   -6.3653    2.0076    0.0000 C   0  0  0  0  0  0  0  0  0  0  0  0
   -5.2661    3.0282    0.0000 H   0  0  0  0  0  0  0  0  0  0  0  0
   -7.7480    1.4239    0.0000 C   0  0  0  0  0  0  0  0  0  0  0  0
   -8.0822    2.8861    0.0000 H   0  0  0  0  0  0  0  0  0  0  0  0
   -7.9348   -0.0653    0.0000 C   0  0  0  0  0  0  0  0  0  0  0  0
   -9.3681    0.3768    0.0000 H   0  0  0  0  0  0  0  0  0  0  0  0
   -6.7389   -0.9708    0.0000 C   0  0  0  0  0  0  0  0  0  0  0  0
   -7.8381   -1.9914    0.0000 H   0  0  0  0  0  0  0  0  0  0  0  0
   -5.9245   -2.2304    0.0000 C   0  0  0  0  0  0  0  0  0  0  0  0
   -4.4361   -2.4163    0.0000 O   0  0  0  0  0  0  0  0  0  0  0  0
   -7.2646   -4.8472    0.0000 O   0  0  0  0  0  0  0  0  0  0  0  0
   -8.7627   -4.9227    0.0000 H   0  0  0  0  0  0  0  0  0  0  0  0
   -5.3562   -0.3870    0.0000 O   0  0  0  0  0  0  0  0  0  0  0  0
   -8.6189   -1.4002    0.0000 O   0  0  0  0  0  0  0  0  0  0  0  0
  -10.1171   -1.4751    0.0000 H   0  0  0  0  0  0  0  0  0  0  0  0
   -9.2461    1.3489    0.0000 O   0  0  0  0  0  0  0  0  0  0  0  0
  -10.0601    2.6089    0.0000 H   0  0  0  0  0  0  0  0  0  0  0  0
   -7.1797    3.2673    0.0000 O   0  0  0  0  0  0  0  0  0  0  0  0
   -6.4959    4.6024    0.0000 H   0  0  0  0  0  0  0  0  0  0  0  0
   -1.6954    2.7924    0.0000 S   0  0  0  0  0  0  0  0  0  0  0  0
  1  2  1  0  0  0  0 
  1  3  1  0  0  0  0 
  1  4  1  0  0  0  0 
  1  5  1  0  0  0  0 
  5  6  2  0  0  0  0 
  6  7  1  0  0  0  0 
  6  8  1  0  0  0  0 
  8  9  2  0  0  0  0 
  9 10  1  0  0  0  0 
 10 11  1  0  0  0  0 
 11 12  2  0  0  0  0 
 12 13  1  0  0  0  0 
 13 14  1  0  0  0  0 
 13 15  2  0  0  0  0 
 15 16  1  0  0  0  0 
 15 17  1  0  0  0  0 
 17 18  1  0  0  0  0 
 17 19  2  0  0  0  0 
 11 19  1  0  0  0  0 
 19 20  1  0  0  0  0 
 12 21  1  0  0  0  0 
 21 22  2  0  0  0  0 
  8 22  1  0  0  0  0 
 22 23  1  0  0  0  0 
 23 24  1  0  0  0  0 
 24 25  1  0  0  0  0 
 24 26  1  0  0  0  0 
 24 27  1  0  0  0  0 
 27 28  1  0  0  0  0 
 27 29  1  0  0  0  0 
 27 30  1  0  0  0  0 
 30 31  1  0  0  0  0 
 31 32  1  0  0  0  0 
 31 33  1  0  0  0  0 
 31 34  1  0  0  0  0 
 30 35  1  0  0  0  0 
 35 36  1  0  0  0  0 
 35 37  1  0  0  0  0 
 35 38  1  0  0  0  0 
 23 38  1  0  0  0  0 
 38 39  1  0  0  0  0 
 38 40  1  0  0  0  0 
 10 41  1  0  0  0  0 
 41 42  1  0  0  0  0 
 41 43  1  0  0  0  0 
 43 44  1  0  0  0  0 
 43 45  1  0  0  0  0 
 45 46  1  0  0  0  0 
 45 47  1  0  0  0  0 
 47 48  1  0  0  0  0 
 47 49  1  0  0  0  0 
 49 50  1  0  0  0  0 
 49 51  1  0  0  0  0 
 51 52  2  0  0  0  0 
 51 53  1  0  0  0  0 
 53 54  1  0  0  0  0 
 49 55  1  0  0  0  0 
 41 55  1  0  0  0  0 
 47 56  1  0  0  0  0 
 56 57  1  0  0  0  0 
 45 58  1  0  0  0  0 
 58 59  1  0  0  0  0 
 43 60  1  0  0  0  0 
 60 61  1  0  0  0  0 
  9 62  1  0  0  0  0 
  5 62  1  0  0  0  0 
M  END
> <Rank>
24

> <Priority_score>
0.112

> <Reaction_type>
N-glucuronidation_(aniline_NH1-R)

> <Parent_ID>
59

> <Parent_InChI>
InChI=1S/C17H20N4S/c1-12-11-13-16(21-9-7-20(2)8-10-21)18-14-5-3-4-6-15(14)19-17(13)22-12/h3-6,11,19H,7-10H2,1-2H3

> <Parent_SMILES>
Cc1cc2c(s1)Nc1ccccc1N=C2N1CCN(C)CC1

$$$$
Molecule 59_metabolite 25
  CDK     0516241031

 41 44  0  0  0  0  0  0  0  0999 V2000
   -3.4896    8.6742    0.0000 C   0  0  0  0  0  0  0  0  0  0  0  0
   -2.1381    9.3250    0.0000 H   0  0  0  0  0  0  0  0  0  0  0  0
   -3.8958   10.1181    0.0000 H   0  0  0  0  0  0  0  0  0  0  0  0
   -4.9821    8.5248    0.0000 H   0  0  0  0  0  0  0  0  0  0  0  0
   -3.6017    7.1784    0.0000 C   0  0  0  0  0  0  0  0  0  0  0  0
   -2.4574    6.2085    0.0000 C   0  0  0  0  0  0  0  0  0  0  0  0
   -1.0002    6.5641    0.0000 H   0  0  0  0  0  0  0  0  0  0  0  0
   -3.0263    4.8205    0.0000 C   0  0  0  0  0  0  0  0  0  0  0  0
   -4.5221    4.9326    0.0000 C   0  0  0  0  0  0  0  0  0  0  0  0
   -5.5423    3.8330    0.0000 N   0  0  0  0  0  0  0  0  0  0  0  0
   -6.9757    4.2751    0.0000 H   0  0  0  0  0  0  0  0  0  0  0  0
   -5.3188    2.3498    0.0000 C   0  0  0  0  0  0  0  0  0  0  0  0
   -4.0197    1.5998    0.0000 C   0  0  0  0  0  0  0  0  0  0  0  0
   -4.0197    0.0998    0.0000 C   0  0  0  0  0  0  0  0  0  0  0  0
   -2.7207   -0.6502    0.0000 H   0  0  0  0  0  0  0  0  0  0  0  0
   -5.3188   -0.6502    0.0000 C   0  0  0  0  0  0  0  0  0  0  0  0
   -5.3188   -2.1502    0.0000 H   0  0  0  0  0  0  0  0  0  0  0  0
   -6.6178    0.0998    0.0000 C   0  0  0  0  0  0  0  0  0  0  0  0
   -7.9168   -0.6502    0.0000 H   0  0  0  0  0  0  0  0  0  0  0  0
   -6.6178    1.5998    0.0000 C   0  0  0  0  0  0  0  0  0  0  0  0
   -7.9168    2.3498    0.0000 H   0  0  0  0  0  0  0  0  0  0  0  0
   -2.6234    2.1478    0.0000 N   0  0  0  0  0  0  0  0  0  0  0  0
   -2.1813    3.5811    0.0000 C   0  0  0  0  0  0  0  0  0  0  0  0
   -0.6980    3.8047    0.0000 N   0  0  0  0  0  0  0  0  0  0  0  0
    0.2379    2.6315    0.0000 C   0  0  0  0  0  0  0  0  0  0  0  0
   -1.0795    1.9141    0.0000 H   0  0  0  0  0  0  0  0  0  0  0  0
    0.7153    1.2094    0.0000 H   0  0  0  0  0  0  0  0  0  0  0  0
    1.7221    2.8544    0.0000 C   0  0  0  0  0  0  0  0  0  0  0  0
    2.6569    1.6814    0.0000 H   0  0  0  0  0  0  0  0  0  0  0  0
    2.2703    4.2507    0.0000 N   0  0  0  0  0  0  0  0  0  0  0  0
    3.7536    4.4742    0.0000 C   0  0  0  0  0  0  0  0  0  0  0  0
    4.3016    5.8705    0.0000 H   0  0  0  0  0  0  0  0  0  0  0  0
    5.2238    4.1770    0.0000 H   0  0  0  0  0  0  0  0  0  0  0  0
    3.7162    2.9747    0.0000 H   0  0  0  0  0  0  0  0  0  0  0  0
    1.3344    5.4239    0.0000 C   0  0  0  0  0  0  0  0  0  0  0  0
    2.6518    6.1412    0.0000 H   0  0  0  0  0  0  0  0  0  0  0  0
    0.8570    6.8459    0.0000 H   0  0  0  0  0  0  0  0  0  0  0  0
   -0.1498    5.2009    0.0000 C   0  0  0  0  0  0  0  0  0  0  0  0
   -0.1118    6.7004    0.0000 H   0  0  0  0  0  0  0  0  0  0  0  0
   -1.6200    5.4985    0.0000 H   0  0  0  0  0  0  0  0  0  0  0  0
   -4.8777    6.3898    0.0000 S   0  0  0  0  0  0  0  0  0  0  0  0
  1  2  1  0  0  0  0 
  1  3  1  0  0  0  0 
  1  4  1  0  0  0  0 
  1  5  1  0  0  0  0 
  5  6  2  0  0  0  0 
  6  7  1  0  0  0  0 
  6  8  1  0  0  0  0 
  8  9  2  0  0  0  0 
  9 10  1  0  0  0  0 
 10 11  1  0  0  0  0 
 10 12  1  0  0  0  0 
 12 13  2  0  0  0  0 
 13 14  1  0  0  0  0 
 14 15  1  0  0  0  0 
 14 16  2  0  0  0  0 
 16 17  1  0  0  0  0 
 16 18  1  0  0  0  0 
 18 19  1  0  0  0  0 
 18 20  2  0  0  0  0 
 12 20  1  0  0  0  0 
 20 21  1  0  0  0  0 
 13 22  1  0  0  0  0 
 22 23  2  0  0  0  0 
  8 23  1  0  0  0  0 
 23 24  1  0  0  0  0 
 24 25  1  0  0  0  0 
 25 26  1  0  0  0  0 
 25 27  1  0  0  0  0 
 25 28  1  0  0  0  0 
 28 29  1  0  0  0  0 
 28 30  2  0  0  0  0 
 30 31  1  0  0  0  0 
 31 32  1  0  0  0  0 
 31 33  1  0  0  0  0 
 31 34  1  0  0  0  0 
 30 35  1  0  0  0  0 
 35 36  1  0  0  0  0 
 35 37  1  0  0  0  0 
 35 38  1  0  0  0  0 
 24 38  1  0  0  0  0 
 38 39  1  0  0  0  0 
 38 40  1  0  0  0  0 
  9 41  1  0  0  0  0 
  5 41  1  0  0  0  0 
M  CHG  1  30   1
M  END
> <Rank>
25

> <Priority_score>
0.10720000000000002

> <Reaction_type>
dehydration of N-C bond

> <Parent_ID>
59

> <Parent_InChI>
InChI=1S/C17H20N4S/c1-12-11-13-16(21-9-7-20(2)8-10-21)18-14-5-3-4-6-15(14)19-17(13)22-12/h3-6,11,19H,7-10H2,1-2H3

> <Parent_SMILES>
Cc1cc2c(s1)Nc1ccccc1N=C2N1CCN(C)CC1

$$$$
Molecule 59_metabolite 26
  CDK     0516241031

 43 46  0  0  0  0  0  0  0  0999 V2000
   -3.4137    8.5196    0.0000 C   0  0  0  0  0  0  0  0  0  0  0  0
   -2.0622    9.1704    0.0000 H   0  0  0  0  0  0  0  0  0  0  0  0
   -3.8200    9.9635    0.0000 H   0  0  0  0  0  0  0  0  0  0  0  0
   -4.9062    8.3702    0.0000 H   0  0  0  0  0  0  0  0  0  0  0  0
   -3.5258    7.0238    0.0000 C   0  0  0  0  0  0  0  0  0  0  0  0
   -2.3815    6.0539    0.0000 C   0  0  0  0  0  0  0  0  0  0  0  0
   -2.9504    4.6659    0.0000 C   0  0  0  0  0  0  0  0  0  0  0  0
   -4.4462    4.7780    0.0000 C   0  0  0  0  0  0  0  0  0  0  0  0
   -5.4664    3.6785    0.0000 N   0  0  0  0  0  0  0  0  0  0  0  0
   -6.8998    4.1206    0.0000 H   0  0  0  0  0  0  0  0  0  0  0  0
   -5.2429    2.1952    0.0000 C   0  0  0  0  0  0  0  0  0  0  0  0
   -3.9438    1.4452    0.0000 C   0  0  0  0  0  0  0  0  0  0  0  0
   -3.9438   -0.0548    0.0000 C   0  0  0  0  0  0  0  0  0  0  0  0
   -2.6448   -0.8048    0.0000 H   0  0  0  0  0  0  0  0  0  0  0  0
   -5.2429   -0.8048    0.0000 C   0  0  0  0  0  0  0  0  0  0  0  0
   -5.2429   -2.3048    0.0000 H   0  0  0  0  0  0  0  0  0  0  0  0
   -6.5419   -0.0548    0.0000 C   0  0  0  0  0  0  0  0  0  0  0  0
   -7.8410   -0.8048    0.0000 H   0  0  0  0  0  0  0  0  0  0  0  0
   -6.5419    1.4452    0.0000 C   0  0  0  0  0  0  0  0  0  0  0  0
   -7.8410    2.1952    0.0000 H   0  0  0  0  0  0  0  0  0  0  0  0
   -2.5475    1.9932    0.0000 N   0  0  0  0  0  0  0  0  0  0  0  0
   -2.1054    3.4266    0.0000 C   0  0  0  0  0  0  0  0  0  0  0  0
   -0.6222    3.6501    0.0000 N   0  0  0  0  0  0  0  0  0  0  0  0
    0.3138    2.4769    0.0000 C   0  0  0  0  0  0  0  0  0  0  0  0
   -1.0036    1.7596    0.0000 H   0  0  0  0  0  0  0  0  0  0  0  0
    0.7911    1.0549    0.0000 H   0  0  0  0  0  0  0  0  0  0  0  0
    1.7980    2.6999    0.0000 C   0  0  0  0  0  0  0  0  0  0  0  0
    1.7600    1.2004    0.0000 H   0  0  0  0  0  0  0  0  0  0  0  0
    3.2681    2.4023    0.0000 H   0  0  0  0  0  0  0  0  0  0  0  0
    2.3462    4.0961    0.0000 N   0  0  0  0  0  0  0  0  0  0  0  0
    4.3041    4.3912    0.0000 C   0  0  0  0  0  0  0  0  0  0  0  0
    5.2393    3.2185    0.0000 H   0  0  0  0  0  0  0  0  0  0  0  0
    5.6214    5.1086    0.0000 H   0  0  0  0  0  0  0  0  0  0  0  0
    3.8264    5.8131    0.0000 H   0  0  0  0  0  0  0  0  0  0  0  0
    1.4103    5.2693    0.0000 C   0  0  0  0  0  0  0  0  0  0  0  0
    2.7276    5.9867    0.0000 H   0  0  0  0  0  0  0  0  0  0  0  0
    0.9329    6.6914    0.0000 H   0  0  0  0  0  0  0  0  0  0  0  0
   -0.0739    5.0464    0.0000 C   0  0  0  0  0  0  0  0  0  0  0  0
   -0.0360    6.5459    0.0000 H   0  0  0  0  0  0  0  0  0  0  0  0
   -1.5441    5.3440    0.0000 H   0  0  0  0  0  0  0  0  0  0  0  0
   -4.8018    6.2353    0.0000 S   0  0  0  0  0  0  0  0  0  0  0  0
   -0.9243    6.4095    0.0000 O   0  0  0  0  0  0  0  0  0  0  0  0
   -0.5037    7.8493    0.0000 H   0  0  0  0  0  0  0  0  0  0  0  0
  1  2  1  0  0  0  0 
  1  3  1  0  0  0  0 
  1  4  1  0  0  0  0 
  1  5  1  0  0  0  0 
  5  6  2  0  0  0  0 
  6  7  1  0  0  0  0 
  7  8  2  0  0  0  0 
  8  9  1  0  0  0  0 
  9 10  1  0  0  0  0 
  9 11  1  0  0  0  0 
 11 12  2  0  0  0  0 
 12 13  1  0  0  0  0 
 13 14  1  0  0  0  0 
 13 15  2  0  0  0  0 
 15 16  1  0  0  0  0 
 15 17  1  0  0  0  0 
 17 18  1  0  0  0  0 
 17 19  2  0  0  0  0 
 11 19  1  0  0  0  0 
 19 20  1  0  0  0  0 
 12 21  1  0  0  0  0 
 21 22  2  0  0  0  0 
  7 22  1  0  0  0  0 
 22 23  1  0  0  0  0 
 23 24  1  0  0  0  0 
 24 25  1  0  0  0  0 
 24 26  1  0  0  0  0 
 24 27  1  0  0  0  0 
 27 28  1  0  0  0  0 
 27 29  1  0  0  0  0 
 27 30  1  0  0  0  0 
 30 31  1  0  0  0  0 
 31 32  1  0  0  0  0 
 31 33  1  0  0  0  0 
 31 34  1  0  0  0  0 
 30 35  1  0  0  0  0 
 35 36  1  0  0  0  0 
 35 37  1  0  0  0  0 
 35 38  1  0  0  0  0 
 23 38  1  0  0  0  0 
 38 39  1  0  0  0  0 
 38 40  1  0  0  0  0 
  8 41  1  0  0  0  0 
  5 41  1  0  0  0  0 
  6 42  1  0  0  0  0 
 42 43  1  0  0  0  0 
M  END
> <Rank>
26

> <Priority_score>
0.084

> <Reaction_type>
aromatic hydroxylation

> <Parent_ID>
59

> <Parent_InChI>
InChI=1S/C17H20N4S/c1-12-11-13-16(21-9-7-20(2)8-10-21)18-14-5-3-4-6-15(14)19-17(13)22-12/h3-6,11,19H,7-10H2,1-2H3

> <Parent_SMILES>
Cc1cc2c(s1)Nc1ccccc1N=C2N1CCN(C)CC1

$$$$
Molecule 59_metabolite 27
  CDK     0516241031

 43 46  0  0  0  0  0  0  0  0999 V2000
   -3.4137    8.5196    0.0000 C   0  0  0  0  0  0  0  0  0  0  0  0
   -2.0622    9.1704    0.0000 H   0  0  0  0  0  0  0  0  0  0  0  0
   -3.8200    9.9635    0.0000 H   0  0  0  0  0  0  0  0  0  0  0  0
   -4.9062    8.3702    0.0000 H   0  0  0  0  0  0  0  0  0  0  0  0
   -3.5258    7.0238    0.0000 C   0  0  0  0  0  0  0  0  0  0  0  0
   -2.3815    6.0539    0.0000 C   0  0  0  0  0  0  0  0  0  0  0  0
   -0.9243    6.4095    0.0000 H   0  0  0  0  0  0  0  0  0  0  0  0
   -2.9504    4.6659    0.0000 C   0  0  0  0  0  0  0  0  0  0  0  0
   -4.4462    4.7780    0.0000 C   0  0  0  0  0  0  0  0  0  0  0  0
   -5.4664    3.6785    0.0000 N   0  0  0  0  0  0  0  0  0  0  0  0
   -6.8998    4.1206    0.0000 H   0  0  0  0  0  0  0  0  0  0  0  0
   -5.2429    2.1952    0.0000 C   0  0  0  0  0  0  0  0  0  0  0  0
   -3.9438    1.4452    0.0000 C   0  0  0  0  0  0  0  0  0  0  0  0
   -3.9438   -0.0548    0.0000 C   0  0  0  0  0  0  0  0  0  0  0  0
   -2.6448   -0.8048    0.0000 H   0  0  0  0  0  0  0  0  0  0  0  0
   -5.2429   -0.8048    0.0000 C   0  0  0  0  0  0  0  0  0  0  0  0
   -5.2429   -2.3048    0.0000 H   0  0  0  0  0  0  0  0  0  0  0  0
   -6.5419   -0.0548    0.0000 C   0  0  0  0  0  0  0  0  0  0  0  0
   -7.8410   -0.8048    0.0000 H   0  0  0  0  0  0  0  0  0  0  0  0
   -6.5419    1.4452    0.0000 C   0  0  0  0  0  0  0  0  0  0  0  0
   -7.8410    2.1952    0.0000 H   0  0  0  0  0  0  0  0  0  0  0  0
   -2.5475    1.9932    0.0000 N   0  0  0  0  0  0  0  0  0  0  0  0
   -2.1054    3.4266    0.0000 C   0  0  0  0  0  0  0  0  0  0  0  0
   -0.6222    3.6501    0.0000 N   0  0  0  0  0  0  0  0  0  0  0  0
    0.3138    2.4769    0.0000 C   0  0  0  0  0  0  0  0  0  0  0  0
   -1.0036    1.7596    0.0000 H   0  0  0  0  0  0  0  0  0  0  0  0
    0.7911    1.0549    0.0000 H   0  0  0  0  0  0  0  0  0  0  0  0
    1.7980    2.6999    0.0000 C   0  0  0  0  0  0  0  0  0  0  0  0
    1.7600    1.2004    0.0000 H   0  0  0  0  0  0  0  0  0  0  0  0
    3.2681    2.4023    0.0000 H   0  0  0  0  0  0  0  0  0  0  0  0
    2.3462    4.0961    0.0000 N   0  0  0  0  0  0  0  0  0  0  0  0
    4.3041    4.3912    0.0000 C   0  0  0  0  0  0  0  0  0  0  0  0
    5.2393    3.2185    0.0000 H   0  0  0  0  0  0  0  0  0  0  0  0
    5.6214    5.1086    0.0000 H   0  0  0  0  0  0  0  0  0  0  0  0
    3.8264    5.8131    0.0000 H   0  0  0  0  0  0  0  0  0  0  0  0
    1.4103    5.2693    0.0000 C   0  0  0  0  0  0  0  0  0  0  0  0
    2.7276    5.9867    0.0000 H   0  0  0  0  0  0  0  0  0  0  0  0
    0.9329    6.6914    0.0000 H   0  0  0  0  0  0  0  0  0  0  0  0
   -0.0739    5.0464    0.0000 C   0  0  0  0  0  0  0  0  0  0  0  0
   -0.0360    6.5459    0.0000 H   0  0  0  0  0  0  0  0  0  0  0  0
   -1.5441    5.3440    0.0000 H   0  0  0  0  0  0  0  0  0  0  0  0
   -1.4480    0.9730    0.0000 O   0  0  0  0  0  0  0  0  0  0  0  0
   -4.8018    6.2353    0.0000 S   0  0  0  0  0  0  0  0  0  0  0  0
  1  2  1  0  0  0  0 
  1  3  1  0  0  0  0 
  1  4  1  0  0  0  0 
  1  5  1  0  0  0  0 
  5  6  2  0  0  0  0 
  6  7  1  0  0  0  0 
  6  8  1  0  0  0  0 
  8  9  2  0  0  0  0 
  9 10  1  0  0  0  0 
 10 11  1  0  0  0  0 
 10 12  1  0  0  0  0 
 12 13  2  0  0  0  0 
 13 14  1  0  0  0  0 
 14 15  1  0  0  0  0 
 14 16  2  0  0  0  0 
 16 17  1  0  0  0  0 
 16 18  1  0  0  0  0 
 18 19  1  0  0  0  0 
 18 20  2  0  0  0  0 
 12 20  1  0  0  0  0 
 20 21  1  0  0  0  0 
 13 22  1  0  0  0  0 
 22 23  2  0  0  0  0 
  8 23  1  0  0  0  0 
 23 24  1  0  0  0  0 
 24 25  1  0  0  0  0 
 25 26  1  0  0  0  0 
 25 27  1  0  0  0  0 
 25 28  1  0  0  0  0 
 28 29  1  0  0  0  0 
 28 30  1  0  0  0  0 
 28 31  1  0  0  0  0 
 31 32  1  0  0  0  0 
 32 33  1  0  0  0  0 
 32 34  1  0  0  0  0 
 32 35  1  0  0  0  0 
 31 36  1  0  0  0  0 
 36 37  1  0  0  0  0 
 36 38  1  0  0  0  0 
 36 39  1  0  0  0  0 
 24 39  1  0  0  0  0 
 39 40  1  0  0  0  0 
 39 41  1  0  0  0  0 
 22 42  1  0  0  0  0 
  9 43  1  0  0  0  0 
  5 43  1  0  0  0  0 
M  CHG  1  22   1
M  CHG  1  42  -1
M  END
> <Rank>
27

> <Priority_score>
0.068

> <Reaction_type>
N-oxidation_(-N=)

> <Parent_ID>
59

> <Parent_InChI>
InChI=1S/C17H20N4S/c1-12-11-13-16(21-9-7-20(2)8-10-21)18-14-5-3-4-6-15(14)19-17(13)22-12/h3-6,11,19H,7-10H2,1-2H3

> <Parent_SMILES>
Cc1cc2c(s1)Nc1ccccc1N=C2N1CCN(C)CC1

$$$$
Molecule 59_metabolite 28
  CDK     0516241031

 40 43  0  0  0  0  0  0  0  0999 V2000
   -3.4896    8.6742    0.0000 C   0  0  0  0  0  0  0  0  0  0  0  0
   -2.1381    9.3250    0.0000 H   0  0  0  0  0  0  0  0  0  0  0  0
   -3.8958   10.1181    0.0000 H   0  0  0  0  0  0  0  0  0  0  0  0
   -4.9821    8.5248    0.0000 H   0  0  0  0  0  0  0  0  0  0  0  0
   -3.6017    7.1784    0.0000 C   0  0  0  0  0  0  0  0  0  0  0  0
   -2.4574    6.2085    0.0000 C   0  0  0  0  0  0  0  0  0  0  0  0
   -1.0002    6.5641    0.0000 H   0  0  0  0  0  0  0  0  0  0  0  0
   -3.0263    4.8205    0.0000 C   0  0  0  0  0  0  0  0  0  0  0  0
   -4.5221    4.9326    0.0000 C   0  0  0  0  0  0  0  0  0  0  0  0
   -5.5423    3.8330    0.0000 N   0  0  0  0  0  0  0  0  0  0  0  0
   -6.9757    4.2751    0.0000 H   0  0  0  0  0  0  0  0  0  0  0  0
   -5.3188    2.3498    0.0000 C   0  0  0  0  0  0  0  0  0  0  0  0
   -4.0197    1.5998    0.0000 C   0  0  0  0  0  0  0  0  0  0  0  0
   -4.0197    0.0998    0.0000 C   0  0  0  0  0  0  0  0  0  0  0  0
   -2.7207   -0.6502    0.0000 H   0  0  0  0  0  0  0  0  0  0  0  0
   -5.3188   -0.6502    0.0000 C   0  0  0  0  0  0  0  0  0  0  0  0
   -5.3188   -2.1502    0.0000 H   0  0  0  0  0  0  0  0  0  0  0  0
   -6.6178    0.0998    0.0000 C   0  0  0  0  0  0  0  0  0  0  0  0
   -7.9168   -0.6502    0.0000 H   0  0  0  0  0  0  0  0  0  0  0  0
   -6.6178    1.5998    0.0000 C   0  0  0  0  0  0  0  0  0  0  0  0
   -7.9168    2.3498    0.0000 H   0  0  0  0  0  0  0  0  0  0  0  0
   -2.6234    2.1478    0.0000 N   0  0  0  0  0  0  0  0  0  0  0  0
   -2.1813    3.5811    0.0000 C   0  0  0  0  0  0  0  0  0  0  0  0
   -0.6980    3.8047    0.0000 N   0  0  0  0  0  0  0  0  0  0  0  0
    0.2379    2.6315    0.0000 C   0  0  0  0  0  0  0  0  0  0  0  0
   -0.3103    1.2352    0.0000 H   0  0  0  0  0  0  0  0  0  0  0  0
    1.7221    2.8544    0.0000 C   0  0  0  0  0  0  0  0  0  0  0  0
    2.6569    1.6814    0.0000 H   0  0  0  0  0  0  0  0  0  0  0  0
    2.2703    4.2507    0.0000 N   0  0  0  0  0  0  0  0  0  0  0  0
    3.7536    4.4742    0.0000 C   0  0  0  0  0  0  0  0  0  0  0  0
    4.3016    5.8705    0.0000 H   0  0  0  0  0  0  0  0  0  0  0  0
    5.2238    4.1770    0.0000 H   0  0  0  0  0  0  0  0  0  0  0  0
    3.7162    2.9747    0.0000 H   0  0  0  0  0  0  0  0  0  0  0  0
    1.3344    5.4239    0.0000 C   0  0  0  0  0  0  0  0  0  0  0  0
    2.6518    6.1412    0.0000 H   0  0  0  0  0  0  0  0  0  0  0  0
    0.8570    6.8459    0.0000 H   0  0  0  0  0  0  0  0  0  0  0  0
   -0.1498    5.2009    0.0000 C   0  0  0  0  0  0  0  0  0  0  0  0
   -0.1118    6.7004    0.0000 H   0  0  0  0  0  0  0  0  0  0  0  0
   -1.6200    5.4985    0.0000 H   0  0  0  0  0  0  0  0  0  0  0  0
   -4.8777    6.3898    0.0000 S   0  0  0  0  0  0  0  0  0  0  0  0
  1  2  1  0  0  0  0 
  1  3  1  0  0  0  0 
  1  4  1  0  0  0  0 
  1  5  1  0  0  0  0 
  5  6  2  0  0  0  0 
  6  7  1  0  0  0  0 
  6  8  1  0  0  0  0 
  8  9  2  0  0  0  0 
  9 10  1  0  0  0  0 
 10 11  1  0  0  0  0 
 10 12  1  0  0  0  0 
 12 13  2  0  0  0  0 
 13 14  1  0  0  0  0 
 14 15  1  0  0  0  0 
 14 16  2  0  0  0  0 
 16 17  1  0  0  0  0 
 16 18  1  0  0  0  0 
 18 19  1  0  0  0  0 
 18 20  2  0  0  0  0 
 12 20  1  0  0  0  0 
 20 21  1  0  0  0  0 
 13 22  1  0  0  0  0 
 22 23  2  0  0  0  0 
  8 23  1  0  0  0  0 
 23 24  1  0  0  0  0 
 24 25  1  0  0  0  0 
 25 26  1  0  0  0  0 
 25 27  2  0  0  0  0 
 27 28  1  0  0  0  0 
 27 29  1  0  0  0  0 
 29 30  1  0  0  0  0 
 30 31  1  0  0  0  0 
 30 32  1  0  0  0  0 
 30 33  1  0  0  0  0 
 29 34  1  0  0  0  0 
 34 35  1  0  0  0  0 
 34 36  1  0  0  0  0 
 34 37  1  0  0  0  0 
 24 37  1  0  0  0  0 
 37 38  1  0  0  0  0 
 37 39  1  0  0  0  0 
  9 40  1  0  0  0  0 
  5 40  1  0  0  0  0 
M  END
> <Rank>
28

> <Priority_score>
0.0664

> <Reaction_type>
alkyl dehydrogenation

> <Parent_ID>
59

> <Parent_InChI>
InChI=1S/C17H20N4S/c1-12-11-13-16(21-9-7-20(2)8-10-21)18-14-5-3-4-6-15(14)19-17(13)22-12/h3-6,11,19H,7-10H2,1-2H3

> <Parent_SMILES>
Cc1cc2c(s1)Nc1ccccc1N=C2N1CCN(C)CC1

$$$$
Molecule 59_metabolite 29
  CDK     0516241031

 40 44  0  0  0  0  0  0  0  0999 V2000
   -0.3711    5.1610    0.0000 C   0  0  0  0  0  0  0  0  0  0  0  0
    0.6492    4.0614    0.0000 H   0  0  0  0  0  0  0  0  0  0  0  0
    0.8889    5.9748    0.0000 H   0  0  0  0  0  0  0  0  0  0  0  0
   -0.9538    6.5432    0.0000 H   0  0  0  0  0  0  0  0  0  0  0  0
   -1.8335    4.8272    0.0000 C   0  0  0  0  0  0  0  0  0  0  0  0
   -2.4230    3.4479    0.0000 C   0  0  0  0  0  0  0  0  0  0  0  0
   -1.6537    2.1603    0.0000 H   0  0  0  0  0  0  0  0  0  0  0  0
   -3.9170    3.5824    0.0000 C   0  0  0  0  0  0  0  0  0  0  0  0
   -4.2508    5.0448    0.0000 C   0  0  0  0  0  0  0  0  0  0  0  0
   -5.6841    5.4869    0.0000 N   0  0  0  0  0  0  0  0  0  0  0  0
   -6.9537    5.0448    0.0000 C   0  0  0  0  0  0  0  0  0  0  0  0
   -7.2875    3.5824    0.0000 C   0  0  0  0  0  0  0  0  0  0  0  0
   -8.7208    3.1403    0.0000 C   0  0  0  0  0  0  0  0  0  0  0  0
  -10.3159    0.6706    0.0000 H   0  0  0  0  0  0  0  0  0  0  0  0
   -9.8204    4.1605    0.0000 C   0  0  0  0  0  0  0  0  0  0  0  0
  -12.1711    3.4354    0.0000 H   0  0  0  0  0  0  0  0  0  0  0  0
   -9.4866    5.6229    0.0000 C   0  0  0  0  0  0  0  0  0  0  0  0
  -10.5862    6.6432    0.0000 H   0  0  0  0  0  0  0  0  0  0  0  0
   -8.0533    6.0651    0.0000 C   0  0  0  0  0  0  0  0  0  0  0  0
   -7.7195    7.5274    0.0000 H   0  0  0  0  0  0  0  0  0  0  0  0
   -6.3522    2.4097    0.0000 N   0  0  0  0  0  0  0  0  0  0  0  0
   -5.0166    2.5621    0.0000 C   0  0  0  0  0  0  0  0  0  0  0  0
   -6.4499    3.0043    0.0000 N   0  0  0  0  0  0  0  0  0  0  0  0
   -7.5495    1.9840    0.0000 C   0  0  0  0  0  0  0  0  0  0  0  0
   -8.2338    0.6492    0.0000 H   0  0  0  0  0  0  0  0  0  0  0  0
   -6.3538    1.0783    0.0000 H   0  0  0  0  0  0  0  0  0  0  0  0
   -8.9829    2.4261    0.0000 C   0  0  0  0  0  0  0  0  0  0  0  0
  -10.4810    2.3514    0.0000 H   0  0  0  0  0  0  0  0  0  0  0  0
   -9.3484   -0.4910    0.0000 H   0  0  0  0  0  0  0  0  0  0  0  0
   -9.3166    3.8885    0.0000 N   0  0  0  0  0  0  0  0  0  0  0  0
  -12.1260    4.7551    0.0000 C   0  0  0  0  0  0  0  0  0  0  0  0
  -12.4598    6.2175    0.0000 H   0  0  0  0  0  0  0  0  0  0  0  0
  -12.4916    1.8379    0.0000 H   0  0  0  0  0  0  0  0  0  0  0  0
  -13.6242    4.6804    0.0000 H   0  0  0  0  0  0  0  0  0  0  0  0
   -8.2171    4.9088    0.0000 C   0  0  0  0  0  0  0  0  0  0  0  0
   -8.5826    1.9916    0.0000 H   0  0  0  0  0  0  0  0  0  0  0  0
   -9.2913    6.5721    0.0000 H   0  0  0  0  0  0  0  0  0  0  0  0
   -6.7837    4.4667    0.0000 C   0  0  0  0  0  0  0  0  0  0  0  0
   -7.1175    5.9291    0.0000 H   0  0  0  0  0  0  0  0  0  0  0  0
   -2.9631    5.8141    0.0000 S   0  0  0  0  0  0  0  0  0  0  0  0
  1  2  1  0  0  0  0 
  1  3  1  0  0  0  0 
  1  4  1  0  0  0  0 
  1  5  1  0  0  0  0 
  5  6  2  0  0  0  0 
  6  7  1  0  0  0  0 
  6  8  1  0  0  0  0 
  8  9  2  0  0  0  0 
  9 10  1  0  0  0  0 
 10 11  1  0  0  0  0 
 11 12  2  0  0  0  0 
 12 13  1  0  0  0  0 
 13 14  1  0  0  0  0 
 13 15  2  0  0  0  0 
 15 16  1  0  0  0  0 
 15 17  1  0  0  0  0 
 17 18  1  0  0  0  0 
 17 19  2  0  0  0  0 
 11 19  1  0  0  0  0 
 19 20  1  0  0  0  0 
 12 21  1  0  0  0  0 
 21 22  2  0  0  0  0 
  8 22  1  0  0  0  0 
 22 23  1  0  0  0  0 
 23 24  1  0  0  0  0 
 24 25  1  0  0  0  0 
 24 26  1  0  0  0  0 
 24 27  1  0  0  0  0 
 27 28  1  0  0  0  0 
 27 29  1  0  0  0  0 
 27 30  1  0  0  0  0 
 30 31  1  0  0  0  0 
 31 32  1  0  0  0  0 
 31 33  1  0  0  0  0 
 31 34  1  0  0  0  0 
 30 35  1  0  0  0  0 
 35 36  1  0  0  0  0 
 35 37  1  0  0  0  0 
 35 38  1  0  0  0  0 
 23 38  1  0  0  0  0 
 10 38  1  0  0  0  0 
 38 39  1  0  0  0  0 
  9 40  1  0  0  0  0 
  5 40  1  0  0  0  0 
M  END
> <Rank>
29

> <Priority_score>
0.04000000000000001

> <Reaction_type>
cyclization to 6-membered NCN ring

> <Parent_ID>
59

> <Parent_InChI>
InChI=1S/C17H20N4S/c1-12-11-13-16(21-9-7-20(2)8-10-21)18-14-5-3-4-6-15(14)19-17(13)22-12/h3-6,11,19H,7-10H2,1-2H3

> <Parent_SMILES>
Cc1cc2c(s1)Nc1ccccc1N=C2N1CCN(C)CC1

$$$$
Molecule 59_metabolite 30
  CDK     0516241031

 41 44  0  0  0  0  0  0  0  0999 V2000
   -3.4137    8.5196    0.0000 C   0  0  0  0  0  0  0  0  0  0  0  0
   -2.0622    9.1704    0.0000 H   0  0  0  0  0  0  0  0  0  0  0  0
   -3.8200    9.9635    0.0000 H   0  0  0  0  0  0  0  0  0  0  0  0
   -4.9062    8.3702    0.0000 H   0  0  0  0  0  0  0  0  0  0  0  0
   -3.5258    7.0238    0.0000 C   0  0  0  0  0  0  0  0  0  0  0  0
   -2.3815    6.0539    0.0000 C   0  0  0  0  0  0  0  0  0  0  0  0
   -0.9243    6.4095    0.0000 H   0  0  0  0  0  0  0  0  0  0  0  0
   -2.9504    4.6659    0.0000 C   0  0  0  0  0  0  0  0  0  0  0  0
   -4.4462    4.7780    0.0000 C   0  0  0  0  0  0  0  0  0  0  0  0
   -5.4664    3.6785    0.0000 N   0  0  0  0  0  0  0  0  0  0  0  0
   -6.8998    4.1206    0.0000 H   0  0  0  0  0  0  0  0  0  0  0  0
   -5.2429    2.1952    0.0000 C   0  0  0  0  0  0  0  0  0  0  0  0
   -3.9438    1.4452    0.0000 C   0  0  0  0  0  0  0  0  0  0  0  0
   -3.9438   -0.0548    0.0000 C   0  0  0  0  0  0  0  0  0  0  0  0
   -2.6448   -0.8048    0.0000 H   0  0  0  0  0  0  0  0  0  0  0  0
   -5.2429   -0.8048    0.0000 C   0  0  0  0  0  0  0  0  0  0  0  0
   -5.2429   -2.3048    0.0000 H   0  0  0  0  0  0  0  0  0  0  0  0
   -6.5419   -0.0548    0.0000 C   0  0  0  0  0  0  0  0  0  0  0  0
   -7.8410   -0.8048    0.0000 H   0  0  0  0  0  0  0  0  0  0  0  0
   -6.5419    1.4452    0.0000 C   0  0  0  0  0  0  0  0  0  0  0  0
   -7.8410    2.1952    0.0000 H   0  0  0  0  0  0  0  0  0  0  0  0
   -2.5475    1.9932    0.0000 N   0  0  0  0  0  0  0  0  0  0  0  0
   -2.1054    3.4266    0.0000 C   0  0  0  0  0  0  0  0  0  0  0  0
   -0.6222    3.6501    0.0000 N   0  0  0  0  0  0  0  0  0  0  0  0
    0.3138    2.4769    0.0000 C   0  0  0  0  0  0  0  0  0  0  0  0
   -0.2344    1.0807    0.0000 H   0  0  0  0  0  0  0  0  0  0  0  0
    1.7980    2.6999    0.0000 C   0  0  0  0  0  0  0  0  0  0  0  0
    1.7600    1.2004    0.0000 H   0  0  0  0  0  0  0  0  0  0  0  0
    3.2681    2.4023    0.0000 H   0  0  0  0  0  0  0  0  0  0  0  0
    2.3462    4.0961    0.0000 N   0  0  0  0  0  0  0  0  0  0  0  0
    4.3041    4.3912    0.0000 C   0  0  0  0  0  0  0  0  0  0  0  0
    5.2393    3.2185    0.0000 H   0  0  0  0  0  0  0  0  0  0  0  0
    5.6214    5.1086    0.0000 H   0  0  0  0  0  0  0  0  0  0  0  0
    3.8264    5.8131    0.0000 H   0  0  0  0  0  0  0  0  0  0  0  0
    1.4103    5.2693    0.0000 C   0  0  0  0  0  0  0  0  0  0  0  0
    2.7276    5.9867    0.0000 H   0  0  0  0  0  0  0  0  0  0  0  0
    0.9329    6.6914    0.0000 H   0  0  0  0  0  0  0  0  0  0  0  0
   -0.0739    5.0464    0.0000 C   0  0  0  0  0  0  0  0  0  0  0  0
   -0.0360    6.5459    0.0000 H   0  0  0  0  0  0  0  0  0  0  0  0
   -1.5441    5.3440    0.0000 H   0  0  0  0  0  0  0  0  0  0  0  0
   -4.8018    6.2353    0.0000 S   0  0  0  0  0  0  0  0  0  0  0  0
  1  2  1  0  0  0  0 
  1  3  1  0  0  0  0 
  1  4  1  0  0  0  0 
  1  5  1  0  0  0  0 
  5  6  2  0  0  0  0 
  6  7  1  0  0  0  0 
  6  8  1  0  0  0  0 
  8  9  2  0  0  0  0 
  9 10  1  0  0  0  0 
 10 11  1  0  0  0  0 
 10 12  1  0  0  0  0 
 12 13  2  0  0  0  0 
 13 14  1  0  0  0  0 
 14 15  1  0  0  0  0 
 14 16  2  0  0  0  0 
 16 17  1  0  0  0  0 
 16 18  1  0  0  0  0 
 18 19  1  0  0  0  0 
 18 20  2  0  0  0  0 
 12 20  1  0  0  0  0 
 20 21  1  0  0  0  0 
 13 22  1  0  0  0  0 
 22 23  2  0  0  0  0 
  8 23  1  0  0  0  0 
 23 24  1  0  0  0  0 
 24 25  2  0  0  0  0 
 25 26  1  0  0  0  0 
 25 27  1  0  0  0  0 
 27 28  1  0  0  0  0 
 27 29  1  0  0  0  0 
 27 30  1  0  0  0  0 
 30 31  1  0  0  0  0 
 31 32  1  0  0  0  0 
 31 33  1  0  0  0  0 
 31 34  1  0  0  0  0 
 30 35  1  0  0  0  0 
 35 36  1  0  0  0  0 
 35 37  1  0  0  0  0 
 35 38  1  0  0  0  0 
 24 38  1  0  0  0  0 
 38 39  1  0  0  0  0 
 38 40  1  0  0  0  0 
  9 41  1  0  0  0  0 
  5 41  1  0  0  0  0 
M  CHG  1  24   1
M  END
> <Rank>
29

> <Priority_score>
0.04000000000000001

> <Reaction_type>
dehydration of N-C bond

> <Parent_ID>
59

> <Parent_InChI>
InChI=1S/C17H20N4S/c1-12-11-13-16(21-9-7-20(2)8-10-21)18-14-5-3-4-6-15(14)19-17(13)22-12/h3-6,11,19H,7-10H2,1-2H3

> <Parent_SMILES>
Cc1cc2c(s1)Nc1ccccc1N=C2N1CCN(C)CC1

$$$$
Molecule 60
  CDK     0516241031

 32 36  0  0  0  0  0  0  0  0999 V2000
   13.9197    1.0131    0.0000 C   0  0  0  0  0  0  0  0  0  0  0  0
   12.5681    0.3625    0.0000 C   0  0  0  0  0  0  0  0  0  0  0  0
   12.4555   -1.1341    0.0000 C   0  0  0  0  0  0  0  0  0  0  0  0
   11.1035   -1.7857    0.0000 C   0  0  0  0  0  0  0  0  0  0  0  0
    9.8641   -0.9408    0.0000 C   0  0  0  0  0  0  0  0  0  0  0  0
    9.9768    0.5558    0.0000 C   0  0  0  0  0  0  0  0  0  0  0  0
   11.3288    1.2075    0.0000 C   0  0  0  0  0  0  0  0  0  0  0  0
    8.7374    1.4008    0.0000 C   0  0  0  0  0  0  0  0  0  0  0  0
    7.3860    0.7500    0.0000 O   0  0  0  0  0  0  0  0  0  0  0  0
    8.8495    2.8966    0.0000 N   0  0  0  0  0  0  0  0  0  0  0  0
    7.5505    3.6466    0.0000 C   0  0  0  0  0  0  0  0  0  0  0  0
    7.3269    5.1299    0.0000 C   0  0  0  0  0  0  0  0  0  0  0  0
    8.3472    6.2295    0.0000 N   0  0  0  0  0  0  0  0  0  0  0  0
    9.8430    6.1174    0.0000 C   0  0  0  0  0  0  0  0  0  0  0  0
   10.6880    4.8780    0.0000 C   0  0  0  0  0  0  0  0  0  0  0  0
   10.2458    3.4446    0.0000 C   0  0  0  0  0  0  0  0  0  0  0  0
   11.3454    2.4244    0.0000 C   0  0  0  0  0  0  0  0  0  0  0  0
    7.7992    7.6258    0.0000 C   0  0  0  0  0  0  0  0  0  0  0  0
    6.3513    8.0029    0.0000 N   0  0  0  0  0  0  0  0  0  0  0  0
    6.2571    9.5021    0.0000 C   0  0  0  0  0  0  0  0  0  0  0  0
    7.6534   10.0501    0.0000 C   0  0  0  0  0  0  0  0  0  0  0  0
    7.8766   11.5342    0.0000 C   0  0  0  0  0  0  0  0  0  0  0  0
    6.7035   12.4704    0.0000 C   0  0  0  0  0  0  0  0  0  0  0  0
    5.3072   11.9223    0.0000 C   0  0  0  0  0  0  0  0  0  0  0  0
    5.0840   10.4382    0.0000 C   0  0  0  0  0  0  0  0  0  0  0  0
    4.1343   12.8574    0.0000 Cl  0  0  0  0  0  0  0  0  0  0  0  0
    8.6040    8.8870    0.0000 O   0  0  0  0  0  0  0  0  0  0  0  0
    8.5126   -1.5914    0.0000 N   0  0  0  0  0  0  0  0  0  0  0  0
    8.2355   -3.0676    0.0000 N   0  0  0  0  0  0  0  0  0  0  0  0
    6.7565   -3.2691    0.0000 C   0  0  0  0  0  0  0  0  0  0  0  0
    6.1059   -1.9175    0.0000 C   0  0  0  0  0  0  0  0  0  0  0  0
    7.1858   -0.8871    0.0000 N   0  0  0  0  0  0  0  0  0  0  0  0
  1  2  1  0  0  0  0 
  2  3  2  0  0  0  0 
  3  4  1  0  0  0  0 
  4  5  2  0  0  0  0 
  5  6  1  0  0  0  0 
  6  7  2  0  0  0  0 
  2  7  1  0  0  0  0 
  6  8  1  0  0  0  0 
  8  9  2  0  0  0  0 
  8 10  1  0  0  0  0 
 10 11  1  0  0  0  0 
 11 12  1  0  0  0  0 
 12 13  1  0  0  0  0 
 13 14  1  0  0  0  0 
 14 15  1  0  0  0  0 
 15 16  1  0  0  0  0 
 10 16  1  0  0  0  0 
 16 17  1  0  0  0  0 
 13 18  1  0  0  0  0 
 18 19  2  0  0  0  0 
 19 20  1  0  0  0  0 
 20 21  2  0  0  0  0 
 21 22  1  0  0  0  0 
 22 23  2  0  0  0  0 
 23 24  1  0  0  0  0 
 24 25  2  0  0  0  0 
 20 25  1  0  0  0  0 
 24 26  1  0  0  0  0 
 21 27  1  0  0  0  0 
 18 27  1  0  0  0  0 
  5 28  1  0  0  0  0 
 28 29  1  0  0  0  0 
 29 30  2  0  0  0  0 
 30 31  1  0  0  0  0 
 31 32  2  0  0  0  0 
 28 32  1  0  0  0  0 
M  END
> <SMILES>
Cc1ccc(-n2nccn2)c(C(=O)N2CCN(c3nc4cc(Cl)ccc4o3)CCC2C)c1

$$$$
Molecule 60_metabolite 1
  CDK     0516241031

 55 59  0  0  0  0  0  0  0  0999 V2000
    7.9834    0.8327    0.0000 C   0  0  0  0  0  0  0  0  0  0  0  0
    8.4256   -0.6006    0.0000 H   0  0  0  0  0  0  0  0  0  0  0  0
    8.0582    2.3309    0.0000 H   0  0  0  0  0  0  0  0  0  0  0  0
    9.4718    1.0193    0.0000 H   0  0  0  0  0  0  0  0  0  0  0  0
    6.5210    1.1665    0.0000 C   0  0  0  0  0  0  0  0  0  0  0  0
    7.1719    2.5180    0.0000 H   0  0  0  0  0  0  0  0  0  0  0  0
    5.3483    2.1018    0.0000 C   0  0  0  0  0  0  0  0  0  0  0  0
    6.5210    3.0370    0.0000 H   0  0  0  0  0  0  0  0  0  0  0  0
    4.6975    3.4532    0.0000 H   0  0  0  0  0  0  0  0  0  0  0  0
    3.8859    1.7680    0.0000 C   0  0  0  0  0  0  0  0  0  0  0  0
    3.8859    3.2680    0.0000 H   0  0  0  0  0  0  0  0  0  0  0  0
    2.4235    2.1018    0.0000 H   0  0  0  0  0  0  0  0  0  0  0  0
    3.2351    0.4165    0.0000 N   0  0  0  0  0  0  0  0  0  0  0  0
    3.8859   -0.9349    0.0000 C   0  0  0  0  0  0  0  0  0  0  0  0
    2.4235   -1.2687    0.0000 H   0  0  0  0  0  0  0  0  0  0  0  0
    3.8859   -2.4349    0.0000 H   0  0  0  0  0  0  0  0  0  0  0  0
    5.3483   -1.2687    0.0000 C   0  0  0  0  0  0  0  0  0  0  0  0
    4.6975   -2.6202    0.0000 H   0  0  0  0  0  0  0  0  0  0  0  0
    6.5210   -2.2039    0.0000 H   0  0  0  0  0  0  0  0  0  0  0  0
    6.5210   -0.3335    0.0000 N   0  0  0  0  0  0  0  0  0  0  0  0
    8.7374   -1.4008    0.0000 C   0  0  0  0  0  0  0  0  0  0  0  0
    9.9768   -0.5558    0.0000 O   0  0  0  0  0  0  0  0  0  0  0  0
    8.8495   -2.8966    0.0000 C   0  0  0  0  0  0  0  0  0  0  0  0
    7.6096   -3.7423    0.0000 C   0  0  0  0  0  0  0  0  0  0  0  0
    6.2583   -3.0912    0.0000 H   0  0  0  0  0  0  0  0  0  0  0  0
    7.7210   -5.2390    0.0000 C   0  0  0  0  0  0  0  0  0  0  0  0
    9.0724   -5.8900    0.0000 C   0  0  0  0  0  0  0  0  0  0  0  0
    9.1845   -7.3858    0.0000 H   0  0  0  0  0  0  0  0  0  0  0  0
   10.3123   -5.0444    0.0000 C   0  0  0  0  0  0  0  0  0  0  0  0
   11.6636   -5.6954    0.0000 H   0  0  0  0  0  0  0  0  0  0  0  0
   10.2009   -3.5477    0.0000 C   0  0  0  0  0  0  0  0  0  0  0  0
   11.4405   -2.7031    0.0000 N   0  0  0  0  0  0  0  0  0  0  0  0
   12.8573   -3.2019    0.0000 N   0  0  0  0  0  0  0  0  0  0  0  0
   13.7718   -2.0222    0.0000 C   0  0  0  0  0  0  0  0  0  0  0  0
   15.2711   -2.0683    0.0000 H   0  0  0  0  0  0  0  0  0  0  0  0
   12.9272   -0.7826    0.0000 C   0  0  0  0  0  0  0  0  0  0  0  0
   13.4331    0.6295    0.0000 H   0  0  0  0  0  0  0  0  0  0  0  0
   11.4947   -1.2020    0.0000 N   0  0  0  0  0  0  0  0  0  0  0  0
    6.4814   -6.0836    0.0000 C   0  0  0  0  0  0  0  0  0  0  0  0
    5.1302   -5.4323    0.0000 O   0  0  0  0  0  0  0  0  0  0  0  0
    6.5930   -7.5794    0.0000 O   0  0  0  0  0  0  0  0  0  0  0  0
    5.3534   -8.4240    0.0000 H   0  0  0  0  0  0  0  0  0  0  0  0
    1.7351    0.4165    0.0000 C   0  0  0  0  0  0  0  0  0  0  0  0
    0.8551    1.6265    0.0000 N   0  0  0  0  0  0  0  0  0  0  0  0
   -0.5749    1.1665    0.0000 C   0  0  0  0  0  0  0  0  0  0  0  0
   -0.5749   -0.3335    0.0000 C   0  0  0  0  0  0  0  0  0  0  0  0
   -1.8749   -1.0835    0.0000 C   0  0  0  0  0  0  0  0  0  0  0  0
   -1.8749   -2.5835    0.0000 H   0  0  0  0  0  0  0  0  0  0  0  0
   -3.1749   -0.3335    0.0000 C   0  0  0  0  0  0  0  0  0  0  0  0
   -4.4738   -1.0837    0.0000 H   0  0  0  0  0  0  0  0  0  0  0  0
   -3.1749    1.1665    0.0000 C   0  0  0  0  0  0  0  0  0  0  0  0
   -1.8749    1.9165    0.0000 C   0  0  0  0  0  0  0  0  0  0  0  0
   -1.8749    3.4165    0.0000 H   0  0  0  0  0  0  0  0  0  0  0  0
   -4.4738    1.9167    0.0000 Cl  0  0  0  0  0  0  0  0  0  0  0  0
    0.8551   -0.7935    0.0000 O   0  0  0  0  0  0  0  0  0  0  0  0
  1  2  1  0  0  0  0 
  1  3  1  0  0  0  0 
  1  4  1  0  0  0  0 
  1  5  1  0  0  0  0 
  5  6  1  0  0  0  0 
  5  7  1  0  0  0  0 
  7  8  1  0  0  0  0 
  7  9  1  0  0  0  0 
  7 10  1  0  0  0  0 
 10 11  1  0  0  0  0 
 10 12  1  0  0  0  0 
 10 13  1  0  0  0  0 
 13 14  1  0  0  0  0 
 14 15  1  0  0  0  0 
 14 16  1  0  0  0  0 
 14 17  1  0  0  0  0 
 17 18  1  0  0  0  0 
 17 19  1  0  0  0  0 
 17 20  1  0  0  0  0 
  5 20  1  0  0  0  0 
 20 21  1  0  0  0  0 
 21 22  2  0  0  0  0 
 21 23  1  0  0  0  0 
 23 24  2  0  0  0  0 
 24 25  1  0  0  0  0 
 24 26  1  0  0  0  0 
 26 27  2  0  0  0  0 
 27 28  1  0  0  0  0 
 27 29  1  0  0  0  0 
 29 30  1  0  0  0  0 
 29 31  2  0  0  0  0 
 23 31  1  0  0  0  0 
 31 32  1  0  0  0  0 
 32 33  1  0  0  0  0 
 33 34  2  0  0  0  0 
 34 35  1  0  0  0  0 
 34 36  1  0  0  0  0 
 36 37  1  0  0  0  0 
 36 38  2  0  0  0  0 
 32 38  1  0  0  0  0 
 26 39  1  0  0  0  0 
 39 40  2  0  0  0  0 
 39 41  1  0  0  0  0 
 41 42  1  0  0  0  0 
 13 43  1  0  0  0  0 
 43 44  2  0  0  0  0 
 44 45  1  0  0  0  0 
 45 46  2  0  0  0  0 
 46 47  1  0  0  0  0 
 47 48  1  0  0  0  0 
 47 49  2  0  0  0  0 
 49 50  1  0  0  0  0 
 49 51  1  0  0  0  0 
 51 52  2  0  0  0  0 
 45 52  1  0  0  0  0 
 52 53  1  0  0  0  0 
 51 54  1  0  0  0  0 
 46 55  1  0  0  0  0 
 43 55  1  0  0  0  0 
M  END
> <Rank>
1

> <Priority_score>
0.37555763604447046

> <Reaction_type>
carboxylation_(benzylic_CH3)

> <Parent_ID>
60

> <Parent_InChI>
InChI=1S/C23H23ClN6O2/c1-15-3-5-20(30-25-8-9-26-30)18(13-15)22(31)29-12-11-28(10-7-16(29)2)23-27-19-14-17(24)4-6-21(19)32-23/h3-6,8-9,13-14,16H,7,10-12H2,1-2H3

> <Parent_SMILES>
Cc1ccc(-n2nccn2)c(C(=O)N2CCN(c3nc4cc(Cl)ccc4o3)CCC2C)c1

$$$$
Molecule 60_metabolite 2
  CDK     0516241031

 56 60  0  0  0  0  0  0  0  0999 V2000
    7.9834    0.8327    0.0000 C   0  0  0  0  0  0  0  0  0  0  0  0
    8.4256   -0.6006    0.0000 H   0  0  0  0  0  0  0  0  0  0  0  0
    8.0582    2.3309    0.0000 H   0  0  0  0  0  0  0  0  0  0  0  0
    9.4718    1.0193    0.0000 H   0  0  0  0  0  0  0  0  0  0  0  0
    6.5210    1.1665    0.0000 C   0  0  0  0  0  0  0  0  0  0  0  0
    7.1719    2.5180    0.0000 H   0  0  0  0  0  0  0  0  0  0  0  0
    5.3483    2.1018    0.0000 C   0  0  0  0  0  0  0  0  0  0  0  0
    6.5210    3.0370    0.0000 H   0  0  0  0  0  0  0  0  0  0  0  0
    4.6975    3.4532    0.0000 H   0  0  0  0  0  0  0  0  0  0  0  0
    3.8859    1.7680    0.0000 C   0  0  0  0  0  0  0  0  0  0  0  0
    3.8859    3.2680    0.0000 H   0  0  0  0  0  0  0  0  0  0  0  0
    2.4235    2.1018    0.0000 H   0  0  0  0  0  0  0  0  0  0  0  0
    3.2351    0.4165    0.0000 N   0  0  0  0  0  0  0  0  0  0  0  0
    3.8859   -0.9349    0.0000 C   0  0  0  0  0  0  0  0  0  0  0  0
    2.4235   -1.2687    0.0000 H   0  0  0  0  0  0  0  0  0  0  0  0
    3.8859   -2.4349    0.0000 H   0  0  0  0  0  0  0  0  0  0  0  0
    5.3483   -1.2687    0.0000 C   0  0  0  0  0  0  0  0  0  0  0  0
    4.6975   -2.6202    0.0000 H   0  0  0  0  0  0  0  0  0  0  0  0
    6.5210   -2.2039    0.0000 H   0  0  0  0  0  0  0  0  0  0  0  0
    6.5210   -0.3335    0.0000 N   0  0  0  0  0  0  0  0  0  0  0  0
    8.7374   -1.4008    0.0000 C   0  0  0  0  0  0  0  0  0  0  0  0
    9.9768   -0.5558    0.0000 O   0  0  0  0  0  0  0  0  0  0  0  0
    8.8495   -2.8966    0.0000 C   0  0  0  0  0  0  0  0  0  0  0  0
    7.6096   -3.7423    0.0000 C   0  0  0  0  0  0  0  0  0  0  0  0
    6.2583   -3.0912    0.0000 H   0  0  0  0  0  0  0  0  0  0  0  0
    7.7210   -5.2390    0.0000 C   0  0  0  0  0  0  0  0  0  0  0  0
    9.0724   -5.8900    0.0000 C   0  0  0  0  0  0  0  0  0  0  0  0
    9.1845   -7.3858    0.0000 H   0  0  0  0  0  0  0  0  0  0  0  0
   10.3123   -5.0444    0.0000 C   0  0  0  0  0  0  0  0  0  0  0  0
   11.6636   -5.6954    0.0000 H   0  0  0  0  0  0  0  0  0  0  0  0
   10.2009   -3.5477    0.0000 C   0  0  0  0  0  0  0  0  0  0  0  0
   11.4405   -2.7031    0.0000 N   0  0  0  0  0  0  0  0  0  0  0  0
   12.8573   -3.2019    0.0000 N   0  0  0  0  0  0  0  0  0  0  0  0
   13.7718   -2.0222    0.0000 C   0  0  0  0  0  0  0  0  0  0  0  0
   15.2711   -2.0683    0.0000 H   0  0  0  0  0  0  0  0  0  0  0  0
   12.9272   -0.7826    0.0000 C   0  0  0  0  0  0  0  0  0  0  0  0
   13.4331    0.6295    0.0000 H   0  0  0  0  0  0  0  0  0  0  0  0
   11.4947   -1.2020    0.0000 N   0  0  0  0  0  0  0  0  0  0  0  0
    6.4814   -6.0836    0.0000 C   0  0  0  0  0  0  0  0  0  0  0  0
    5.0277   -6.4532    0.0000 H   0  0  0  0  0  0  0  0  0  0  0  0
    5.8649   -4.7161    0.0000 H   0  0  0  0  0  0  0  0  0  0  0  0
    6.5930   -7.5794    0.0000 O   0  0  0  0  0  0  0  0  0  0  0  0
    5.3534   -8.4240    0.0000 H   0  0  0  0  0  0  0  0  0  0  0  0
    1.7351    0.4165    0.0000 C   0  0  0  0  0  0  0  0  0  0  0  0
    0.8551    1.6265    0.0000 N   0  0  0  0  0  0  0  0  0  0  0  0
   -0.5749    1.1665    0.0000 C   0  0  0  0  0  0  0  0  0  0  0  0
   -0.5749   -0.3335    0.0000 C   0  0  0  0  0  0  0  0  0  0  0  0
   -1.8749   -1.0835    0.0000 C   0  0  0  0  0  0  0  0  0  0  0  0
   -1.8749   -2.5835    0.0000 H   0  0  0  0  0  0  0  0  0  0  0  0
   -3.1749   -0.3335    0.0000 C   0  0  0  0  0  0  0  0  0  0  0  0
   -4.4738   -1.0837    0.0000 H   0  0  0  0  0  0  0  0  0  0  0  0
   -3.1749    1.1665    0.0000 C   0  0  0  0  0  0  0  0  0  0  0  0
   -1.8749    1.9165    0.0000 C   0  0  0  0  0  0  0  0  0  0  0  0
   -1.8749    3.4165    0.0000 H   0  0  0  0  0  0  0  0  0  0  0  0
   -4.4738    1.9167    0.0000 Cl  0  0  0  0  0  0  0  0  0  0  0  0
    0.8551   -0.7935    0.0000 O   0  0  0  0  0  0  0  0  0  0  0  0
  1  2  1  0  0  0  0 
  1  3  1  0  0  0  0 
  1  4  1  0  0  0  0 
  1  5  1  0  0  0  0 
  5  6  1  0  0  0  0 
  5  7  1  0  0  0  0 
  7  8  1  0  0  0  0 
  7  9  1  0  0  0  0 
  7 10  1  0  0  0  0 
 10 11  1  0  0  0  0 
 10 12  1  0  0  0  0 
 10 13  1  0  0  0  0 
 13 14  1  0  0  0  0 
 14 15  1  0  0  0  0 
 14 16  1  0  0  0  0 
 14 17  1  0  0  0  0 
 17 18  1  0  0  0  0 
 17 19  1  0  0  0  0 
 17 20  1  0  0  0  0 
  5 20  1  0  0  0  0 
 20 21  1  0  0  0  0 
 21 22  2  0  0  0  0 
 21 23  1  0  0  0  0 
 23 24  2  0  0  0  0 
 24 25  1  0  0  0  0 
 24 26  1  0  0  0  0 
 26 27  2  0  0  0  0 
 27 28  1  0  0  0  0 
 27 29  1  0  0  0  0 
 29 30  1  0  0  0  0 
 29 31  2  0  0  0  0 
 23 31  1  0  0  0  0 
 31 32  1  0  0  0  0 
 32 33  1  0  0  0  0 
 33 34  2  0  0  0  0 
 34 35  1  0  0  0  0 
 34 36  1  0  0  0  0 
 36 37  1  0  0  0  0 
 36 38  2  0  0  0  0 
 32 38  1  0  0  0  0 
 26 39  1  0  0  0  0 
 39 40  1  0  0  0  0 
 39 41  1  0  0  0  0 
 39 42  1  0  0  0  0 
 42 43  1  0  0  0  0 
 13 44  1  0  0  0  0 
 44 45  2  0  0  0  0 
 45 46  1  0  0  0  0 
 46 47  2  0  0  0  0 
 47 48  1  0  0  0  0 
 48 49  1  0  0  0  0 
 48 50  2  0  0  0  0 
 50 51  1  0  0  0  0 
 50 52  1  0  0  0  0 
 52 53  2  0  0  0  0 
 46 53  1  0  0  0  0 
 53 54  1  0  0  0  0 
 52 55  1  0  0  0  0 
 47 56  1  0  0  0  0 
 44 56  1  0  0  0  0 
M  END
> <Rank>
1

> <Priority_score>
0.37555763604447046

> <Reaction_type>
benzylic_hydroxylation_(c-CH3)

> <Parent_ID>
60

> <Parent_InChI>
InChI=1S/C23H23ClN6O2/c1-15-3-5-20(30-25-8-9-26-30)18(13-15)22(31)29-12-11-28(10-7-16(29)2)23-27-19-14-17(24)4-6-21(19)32-23/h3-6,8-9,13-14,16H,7,10-12H2,1-2H3

> <Parent_SMILES>
Cc1ccc(-n2nccn2)c(C(=O)N2CCN(c3nc4cc(Cl)ccc4o3)CCC2C)c1

$$$$
Molecule 60_metabolite 3
  CDK     0516241031

 56 60  0  0  0  0  0  0  0  0999 V2000
    3.1228    1.5815    0.0000 C   0  0  0  0  0  0  0  0  0  0  0  0
    1.7714    0.9305    0.0000 H   0  0  0  0  0  0  0  0  0  0  0  0
    2.2470    2.7993    0.0000 H   0  0  0  0  0  0  0  0  0  0  0  0
    4.1700    2.6555    0.0000 H   0  0  0  0  0  0  0  0  0  0  0  0
    4.3623    0.7368    0.0000 C   0  0  0  0  0  0  0  0  0  0  0  0
    4.2506   -0.7599    0.0000 C   0  0  0  0  0  0  0  0  0  0  0  0
    2.8991   -1.4107    0.0000 H   0  0  0  0  0  0  0  0  0  0  0  0
    5.4904   -1.6058    0.0000 C   0  0  0  0  0  0  0  0  0  0  0  0
    5.3780   -3.1015    0.0000 H   0  0  0  0  0  0  0  0  0  0  0  0
    6.8418   -0.9549    0.0000 C   0  0  0  0  0  0  0  0  0  0  0  0
    6.9535    0.5417    0.0000 C   0  0  0  0  0  0  0  0  0  0  0  0
    5.7137    1.3876    0.0000 C   0  0  0  0  0  0  0  0  0  0  0  0
    5.8261    2.8834    0.0000 O   0  0  0  0  0  0  0  0  0  0  0  0
    4.5868    3.7285    0.0000 H   0  0  0  0  0  0  0  0  0  0  0  0
    8.7374    1.4008    0.0000 C   0  0  0  0  0  0  0  0  0  0  0  0
    9.9768    0.5558    0.0000 O   0  0  0  0  0  0  0  0  0  0  0  0
    8.9213    3.8539    0.0000 N   0  0  0  0  0  0  0  0  0  0  0  0
    7.6222    4.6039    0.0000 C   0  0  0  0  0  0  0  0  0  0  0  0
    7.1801    3.1706    0.0000 H   0  0  0  0  0  0  0  0  0  0  0  0
    6.1264    4.7160    0.0000 H   0  0  0  0  0  0  0  0  0  0  0  0
    7.3987    6.0872    0.0000 C   0  0  0  0  0  0  0  0  0  0  0  0
    6.0023    5.5392    0.0000 H   0  0  0  0  0  0  0  0  0  0  0  0
    6.5537    7.3266    0.0000 H   0  0  0  0  0  0  0  0  0  0  0  0
    8.4189    7.1868    0.0000 N   0  0  0  0  0  0  0  0  0  0  0  0
    9.9147    7.0747    0.0000 C   0  0  0  0  0  0  0  0  0  0  0  0
    9.6912    8.5579    0.0000 H   0  0  0  0  0  0  0  0  0  0  0  0
   11.3110    7.6227    0.0000 H   0  0  0  0  0  0  0  0  0  0  0  0
   10.7597    5.8353    0.0000 C   0  0  0  0  0  0  0  0  0  0  0  0
   11.7800    6.9349    0.0000 H   0  0  0  0  0  0  0  0  0  0  0  0
   12.0587    5.0853    0.0000 H   0  0  0  0  0  0  0  0  0  0  0  0
   10.3176    4.4020    0.0000 C   0  0  0  0  0  0  0  0  0  0  0  0
   11.8134    4.2899    0.0000 H   0  0  0  0  0  0  0  0  0  0  0  0
   10.5411    2.9187    0.0000 C   0  0  0  0  0  0  0  0  0  0  0  0
    9.3684    1.9835    0.0000 H   0  0  0  0  0  0  0  0  0  0  0  0
   11.2585    1.6014    0.0000 H   0  0  0  0  0  0  0  0  0  0  0  0
   11.9630    3.3964    0.0000 H   0  0  0  0  0  0  0  0  0  0  0  0
    7.8709    8.5831    0.0000 C   0  0  0  0  0  0  0  0  0  0  0  0
    6.4230    8.9602    0.0000 N   0  0  0  0  0  0  0  0  0  0  0  0
    6.3288   10.4594    0.0000 C   0  0  0  0  0  0  0  0  0  0  0  0
    7.7251   11.0074    0.0000 C   0  0  0  0  0  0  0  0  0  0  0  0
    7.9483   12.4915    0.0000 C   0  0  0  0  0  0  0  0  0  0  0  0
    9.3446   13.0396    0.0000 H   0  0  0  0  0  0  0  0  0  0  0  0
    6.7752   13.4277    0.0000 C   0  0  0  0  0  0  0  0  0  0  0  0
    6.9990   14.9109    0.0000 H   0  0  0  0  0  0  0  0  0  0  0  0
    5.3789   12.8797    0.0000 C   0  0  0  0  0  0  0  0  0  0  0  0
    5.1557   11.3955    0.0000 C   0  0  0  0  0  0  0  0  0  0  0  0
    3.7594   10.8475    0.0000 H   0  0  0  0  0  0  0  0  0  0  0  0
    4.2060   13.8147    0.0000 Cl  0  0  0  0  0  0  0  0  0  0  0  0
    8.6758    9.8443    0.0000 O   0  0  0  0  0  0  0  0  0  0  0  0
    8.0813   -1.7997    0.0000 N   0  0  0  0  0  0  0  0  0  0  0  0
    8.1353   -3.3008    0.0000 N   0  0  0  0  0  0  0  0  0  0  0  0
    9.5677   -3.7204    0.0000 C   0  0  0  0  0  0  0  0  0  0  0  0
   10.0733   -5.1327    0.0000 H   0  0  0  0  0  0  0  0  0  0  0  0
   10.4125   -2.4809    0.0000 C   0  0  0  0  0  0  0  0  0  0  0  0
   11.9118   -2.4352    0.0000 H   0  0  0  0  0  0  0  0  0  0  0  0
    9.4982   -1.3011    0.0000 N   0  0  0  0  0  0  0  0  0  0  0  0
  1  2  1  0  0  0  0 
  1  3  1  0  0  0  0 
  1  4  1  0  0  0  0 
  1  5  1  0  0  0  0 
  5  6  2  0  0  0  0 
  6  7  1  0  0  0  0 
  6  8  1  0  0  0  0 
  8  9  1  0  0  0  0 
  8 10  2  0  0  0  0 
 10 11  1  0  0  0  0 
 11 12  2  0  0  0  0 
  5 12  1  0  0  0  0 
 12 13  1  0  0  0  0 
 13 14  1  0  0  0  0 
 11 15  1  0  0  0  0 
 15 16  2  0  0  0  0 
 15 17  1  0  0  0  0 
 17 18  1  0  0  0  0 
 18 19  1  0  0  0  0 
 18 20  1  0  0  0  0 
 18 21  1  0  0  0  0 
 21 22  1  0  0  0  0 
 21 23  1  0  0  0  0 
 21 24  1  0  0  0  0 
 24 25  1  0  0  0  0 
 25 26  1  0  0  0  0 
 25 27  1  0  0  0  0 
 25 28  1  0  0  0  0 
 28 29  1  0  0  0  0 
 28 30  1  0  0  0  0 
 28 31  1  0  0  0  0 
 17 31  1  0  0  0  0 
 31 32  1  0  0  0  0 
 31 33  1  0  0  0  0 
 33 34  1  0  0  0  0 
 33 35  1  0  0  0  0 
 33 36  1  0  0  0  0 
 24 37  1  0  0  0  0 
 37 38  2  0  0  0  0 
 38 39  1  0  0  0  0 
 39 40  2  0  0  0  0 
 40 41  1  0  0  0  0 
 41 42  1  0  0  0  0 
 41 43  2  0  0  0  0 
 43 44  1  0  0  0  0 
 43 45  1  0  0  0  0 
 45 46  2  0  0  0  0 
 39 46  1  0  0  0  0 
 46 47  1  0  0  0  0 
 45 48  1  0  0  0  0 
 40 49  1  0  0  0  0 
 37 49  1  0  0  0  0 
 10 50  1  0  0  0  0 
 50 51  1  0  0  0  0 
 51 52  2  0  0  0  0 
 52 53  1  0  0  0  0 
 52 54  1  0  0  0  0 
 54 55  1  0  0  0  0 
 54 56  2  0  0  0  0 
 50 56  1  0  0  0  0 
M  END
> <Rank>
1

> <Priority_score>
0.37555763604447046

> <Reaction_type>
aromatic_hydroxylation_(ortho_to_2_substituents)

> <Parent_ID>
60

> <Parent_InChI>
InChI=1S/C23H23ClN6O2/c1-15-3-5-20(30-25-8-9-26-30)18(13-15)22(31)29-12-11-28(10-7-16(29)2)23-27-19-14-17(24)4-6-21(19)32-23/h3-6,8-9,13-14,16H,7,10-12H2,1-2H3

> <Parent_SMILES>
Cc1ccc(-n2nccn2)c(C(=O)N2CCN(c3nc4cc(Cl)ccc4o3)CCC2C)c1

$$$$
Molecule 60_metabolite 4
  CDK     0516241031

 56 60  0  0  0  0  0  0  0  0999 V2000
    3.1228    1.5815    0.0000 C   0  0  0  0  0  0  0  0  0  0  0  0
    1.7714    0.9305    0.0000 H   0  0  0  0  0  0  0  0  0  0  0  0
    2.2470    2.7993    0.0000 H   0  0  0  0  0  0  0  0  0  0  0  0
    4.1700    2.6555    0.0000 H   0  0  0  0  0  0  0  0  0  0  0  0
    4.3623    0.7368    0.0000 C   0  0  0  0  0  0  0  0  0  0  0  0
    4.2506   -0.7599    0.0000 C   0  0  0  0  0  0  0  0  0  0  0  0
    2.8991   -1.4107    0.0000 H   0  0  0  0  0  0  0  0  0  0  0  0
    5.4904   -1.6058    0.0000 C   0  0  0  0  0  0  0  0  0  0  0  0
    5.3780   -3.1015    0.0000 H   0  0  0  0  0  0  0  0  0  0  0  0
    6.8418   -0.9549    0.0000 C   0  0  0  0  0  0  0  0  0  0  0  0
    6.9535    0.5417    0.0000 C   0  0  0  0  0  0  0  0  0  0  0  0
    5.7137    1.3876    0.0000 C   0  0  0  0  0  0  0  0  0  0  0  0
    5.8261    2.8834    0.0000 H   0  0  0  0  0  0  0  0  0  0  0  0
    8.7374    1.4008    0.0000 C   0  0  0  0  0  0  0  0  0  0  0  0
    9.9768    0.5558    0.0000 O   0  0  0  0  0  0  0  0  0  0  0  0
    8.9213    3.8539    0.0000 N   0  0  0  0  0  0  0  0  0  0  0  0
    7.6222    4.6039    0.0000 C   0  0  0  0  0  0  0  0  0  0  0  0
    7.1801    3.1706    0.0000 H   0  0  0  0  0  0  0  0  0  0  0  0
    6.1264    4.7160    0.0000 H   0  0  0  0  0  0  0  0  0  0  0  0
    7.3987    6.0872    0.0000 C   0  0  0  0  0  0  0  0  0  0  0  0
    6.0023    5.5392    0.0000 H   0  0  0  0  0  0  0  0  0  0  0  0
    6.5537    7.3266    0.0000 H   0  0  0  0  0  0  0  0  0  0  0  0
    8.4189    7.1868    0.0000 N   0  0  0  0  0  0  0  0  0  0  0  0
    9.9147    7.0747    0.0000 C   0  0  0  0  0  0  0  0  0  0  0  0
    9.6912    8.5579    0.0000 H   0  0  0  0  0  0  0  0  0  0  0  0
   11.3110    7.6227    0.0000 H   0  0  0  0  0  0  0  0  0  0  0  0
   10.7597    5.8353    0.0000 C   0  0  0  0  0  0  0  0  0  0  0  0
   11.7800    6.9349    0.0000 H   0  0  0  0  0  0  0  0  0  0  0  0
   12.0587    5.0853    0.0000 H   0  0  0  0  0  0  0  0  0  0  0  0
   10.3176    4.4020    0.0000 C   0  0  0  0  0  0  0  0  0  0  0  0
   11.8134    4.2899    0.0000 H   0  0  0  0  0  0  0  0  0  0  0  0
   10.5411    2.9187    0.0000 C   0  0  0  0  0  0  0  0  0  0  0  0
    9.3684    1.9835    0.0000 H   0  0  0  0  0  0  0  0  0  0  0  0
   11.2585    1.6014    0.0000 H   0  0  0  0  0  0  0  0  0  0  0  0
   11.9630    3.3964    0.0000 H   0  0  0  0  0  0  0  0  0  0  0  0
    7.8709    8.5831    0.0000 C   0  0  0  0  0  0  0  0  0  0  0  0
    6.4230    8.9602    0.0000 N   0  0  0  0  0  0  0  0  0  0  0  0
    6.3288   10.4594    0.0000 C   0  0  0  0  0  0  0  0  0  0  0  0
    7.7251   11.0074    0.0000 C   0  0  0  0  0  0  0  0  0  0  0  0
    7.9483   12.4915    0.0000 C   0  0  0  0  0  0  0  0  0  0  0  0
    9.3446   13.0396    0.0000 H   0  0  0  0  0  0  0  0  0  0  0  0
    6.7752   13.4277    0.0000 C   0  0  0  0  0  0  0  0  0  0  0  0
    6.9990   14.9109    0.0000 H   0  0  0  0  0  0  0  0  0  0  0  0
    5.3789   12.8797    0.0000 C   0  0  0  0  0  0  0  0  0  0  0  0
    5.1557   11.3955    0.0000 C   0  0  0  0  0  0  0  0  0  0  0  0
    3.7594   10.8475    0.0000 H   0  0  0  0  0  0  0  0  0  0  0  0
    4.2060   13.8147    0.0000 Cl  0  0  0  0  0  0  0  0  0  0  0  0
    8.6758    9.8443    0.0000 O   0  0  0  0  0  0  0  0  0  0  0  0
    8.0813   -1.7997    0.0000 N   0  0  0  0  0  0  0  0  0  0  0  0
    8.1353   -3.3008    0.0000 N   0  0  0  0  0  0  0  0  0  0  0  0
    9.5677   -3.7204    0.0000 C   0  0  0  0  0  0  0  0  0  0  0  0
   10.0733   -5.1327    0.0000 H   0  0  0  0  0  0  0  0  0  0  0  0
   10.4125   -2.4809    0.0000 C   0  0  0  0  0  0  0  0  0  0  0  0
    9.4982   -1.3011    0.0000 N   0  0  0  0  0  0  0  0  0  0  0  0
   11.9118   -2.4352    0.0000 O   0  0  0  0  0  0  0  0  0  0  0  0
   12.7011   -3.7107    0.0000 H   0  0  0  0  0  0  0  0  0  0  0  0
  1  2  1  0  0  0  0 
  1  3  1  0  0  0  0 
  1  4  1  0  0  0  0 
  1  5  1  0  0  0  0 
  5  6  2  0  0  0  0 
  6  7  1  0  0  0  0 
  6  8  1  0  0  0  0 
  8  9  1  0  0  0  0 
  8 10  2  0  0  0  0 
 10 11  1  0  0  0  0 
 11 12  2  0  0  0  0 
  5 12  1  0  0  0  0 
 12 13  1  0  0  0  0 
 11 14  1  0  0  0  0 
 14 15  2  0  0  0  0 
 14 16  1  0  0  0  0 
 16 17  1  0  0  0  0 
 17 18  1  0  0  0  0 
 17 19  1  0  0  0  0 
 17 20  1  0  0  0  0 
 20 21  1  0  0  0  0 
 20 22  1  0  0  0  0 
 20 23  1  0  0  0  0 
 23 24  1  0  0  0  0 
 24 25  1  0  0  0  0 
 24 26  1  0  0  0  0 
 24 27  1  0  0  0  0 
 27 28  1  0  0  0  0 
 27 29  1  0  0  0  0 
 27 30  1  0  0  0  0 
 16 30  1  0  0  0  0 
 30 31  1  0  0  0  0 
 30 32  1  0  0  0  0 
 32 33  1  0  0  0  0 
 32 34  1  0  0  0  0 
 32 35  1  0  0  0  0 
 23 36  1  0  0  0  0 
 36 37  2  0  0  0  0 
 37 38  1  0  0  0  0 
 38 39  2  0  0  0  0 
 39 40  1  0  0  0  0 
 40 41  1  0  0  0  0 
 40 42  2  0  0  0  0 
 42 43  1  0  0  0  0 
 42 44  1  0  0  0  0 
 44 45  2  0  0  0  0 
 38 45  1  0  0  0  0 
 45 46  1  0  0  0  0 
 44 47  1  0  0  0  0 
 39 48  1  0  0  0  0 
 36 48  1  0  0  0  0 
 10 49  1  0  0  0  0 
 49 50  1  0  0  0  0 
 50 51  2  0  0  0  0 
 51 52  1  0  0  0  0 
 51 53  1  0  0  0  0 
 53 54  2  0  0  0  0 
 49 54  1  0  0  0  0 
 53 55  1  0  0  0  0 
 55 56  1  0  0  0  0 
M  END
> <Rank>
4

> <Priority_score>
0.348

> <Reaction_type>
aromatic hydroxylation

> <Parent_ID>
60

> <Parent_InChI>
InChI=1S/C23H23ClN6O2/c1-15-3-5-20(30-25-8-9-26-30)18(13-15)22(31)29-12-11-28(10-7-16(29)2)23-27-19-14-17(24)4-6-21(19)32-23/h3-6,8-9,13-14,16H,7,10-12H2,1-2H3

> <Parent_SMILES>
Cc1ccc(-n2nccn2)c(C(=O)N2CCN(c3nc4cc(Cl)ccc4o3)CCC2C)c1

$$$$
Molecule 60_metabolite 5
  CDK     0516241031

 56 60  0  0  0  0  0  0  0  0999 V2000
    3.1228    1.5815    0.0000 C   0  0  0  0  0  0  0  0  0  0  0  0
    1.7714    0.9305    0.0000 H   0  0  0  0  0  0  0  0  0  0  0  0
    2.2470    2.7993    0.0000 H   0  0  0  0  0  0  0  0  0  0  0  0
    4.1700    2.6555    0.0000 H   0  0  0  0  0  0  0  0  0  0  0  0
    4.3623    0.7368    0.0000 C   0  0  0  0  0  0  0  0  0  0  0  0
    4.2506   -0.7599    0.0000 C   0  0  0  0  0  0  0  0  0  0  0  0
    2.8991   -1.4107    0.0000 H   0  0  0  0  0  0  0  0  0  0  0  0
    5.4904   -1.6058    0.0000 C   0  0  0  0  0  0  0  0  0  0  0  0
    5.3780   -3.1015    0.0000 H   0  0  0  0  0  0  0  0  0  0  0  0
    6.8418   -0.9549    0.0000 C   0  0  0  0  0  0  0  0  0  0  0  0
    6.9535    0.5417    0.0000 C   0  0  0  0  0  0  0  0  0  0  0  0
    5.7137    1.3876    0.0000 C   0  0  0  0  0  0  0  0  0  0  0  0
    5.8261    2.8834    0.0000 H   0  0  0  0  0  0  0  0  0  0  0  0
    8.7374    1.4008    0.0000 C   0  0  0  0  0  0  0  0  0  0  0  0
    9.9768    0.5558    0.0000 O   0  0  0  0  0  0  0  0  0  0  0  0
    8.9213    3.8539    0.0000 N   0  0  0  0  0  0  0  0  0  0  0  0
    7.6222    4.6039    0.0000 C   0  0  0  0  0  0  0  0  0  0  0  0
    7.1801    3.1706    0.0000 H   0  0  0  0  0  0  0  0  0  0  0  0
    6.1264    4.7160    0.0000 H   0  0  0  0  0  0  0  0  0  0  0  0
    7.3987    6.0872    0.0000 C   0  0  0  0  0  0  0  0  0  0  0  0
    6.0023    5.5392    0.0000 H   0  0  0  0  0  0  0  0  0  0  0  0
    6.5537    7.3266    0.0000 H   0  0  0  0  0  0  0  0  0  0  0  0
    8.4189    7.1868    0.0000 N   0  0  0  0  0  0  0  0  0  0  0  0
    9.9147    7.0747    0.0000 C   0  0  0  0  0  0  0  0  0  0  0  0
    9.6912    8.5579    0.0000 H   0  0  0  0  0  0  0  0  0  0  0  0
   11.3110    7.6227    0.0000 H   0  0  0  0  0  0  0  0  0  0  0  0
   10.7597    5.8353    0.0000 C   0  0  0  0  0  0  0  0  0  0  0  0
   11.7800    6.9349    0.0000 H   0  0  0  0  0  0  0  0  0  0  0  0
   12.0587    5.0853    0.0000 H   0  0  0  0  0  0  0  0  0  0  0  0
   10.3176    4.4020    0.0000 C   0  0  0  0  0  0  0  0  0  0  0  0
   11.8134    4.2899    0.0000 H   0  0  0  0  0  0  0  0  0  0  0  0
   10.5411    2.9187    0.0000 C   0  0  0  0  0  0  0  0  0  0  0  0
    9.3684    1.9835    0.0000 H   0  0  0  0  0  0  0  0  0  0  0  0
   11.2585    1.6014    0.0000 H   0  0  0  0  0  0  0  0  0  0  0  0
   11.9630    3.3964    0.0000 H   0  0  0  0  0  0  0  0  0  0  0  0
    7.8709    8.5831    0.0000 C   0  0  0  0  0  0  0  0  0  0  0  0
    6.4230    8.9602    0.0000 N   0  0  0  0  0  0  0  0  0  0  0  0
    6.3288   10.4594    0.0000 C   0  0  0  0  0  0  0  0  0  0  0  0
    7.7251   11.0074    0.0000 C   0  0  0  0  0  0  0  0  0  0  0  0
    7.9483   12.4915    0.0000 C   0  0  0  0  0  0  0  0  0  0  0  0
    9.3446   13.0396    0.0000 H   0  0  0  0  0  0  0  0  0  0  0  0
    6.7752   13.4277    0.0000 C   0  0  0  0  0  0  0  0  0  0  0  0
    6.9990   14.9109    0.0000 H   0  0  0  0  0  0  0  0  0  0  0  0
    5.3789   12.8797    0.0000 C   0  0  0  0  0  0  0  0  0  0  0  0
    5.1557   11.3955    0.0000 C   0  0  0  0  0  0  0  0  0  0  0  0
    3.7594   10.8475    0.0000 H   0  0  0  0  0  0  0  0  0  0  0  0
    4.2060   13.8147    0.0000 Cl  0  0  0  0  0  0  0  0  0  0  0  0
    8.6758    9.8443    0.0000 O   0  0  0  0  0  0  0  0  0  0  0  0
    8.0813   -1.7997    0.0000 N   0  0  0  0  0  0  0  0  0  0  0  0
    9.4982   -1.3011    0.0000 N   0  0  0  0  0  0  0  0  0  0  0  0
   10.4125   -2.4809    0.0000 C   0  0  0  0  0  0  0  0  0  0  0  0
   11.9118   -2.4352    0.0000 H   0  0  0  0  0  0  0  0  0  0  0  0
    9.5677   -3.7204    0.0000 C   0  0  0  0  0  0  0  0  0  0  0  0
   10.0733   -5.1327    0.0000 H   0  0  0  0  0  0  0  0  0  0  0  0
    8.1353   -3.3008    0.0000 N   0  0  0  0  0  0  0  0  0  0  0  0
    6.9511   -4.2215    0.0000 O   0  0  0  0  0  0  0  0  0  0  0  0
  1  2  1  0  0  0  0 
  1  3  1  0  0  0  0 
  1  4  1  0  0  0  0 
  1  5  1  0  0  0  0 
  5  6  2  0  0  0  0 
  6  7  1  0  0  0  0 
  6  8  1  0  0  0  0 
  8  9  1  0  0  0  0 
  8 10  2  0  0  0  0 
 10 11  1  0  0  0  0 
 11 12  2  0  0  0  0 
  5 12  1  0  0  0  0 
 12 13  1  0  0  0  0 
 11 14  1  0  0  0  0 
 14 15  2  0  0  0  0 
 14 16  1  0  0  0  0 
 16 17  1  0  0  0  0 
 17 18  1  0  0  0  0 
 17 19  1  0  0  0  0 
 17 20  1  0  0  0  0 
 20 21  1  0  0  0  0 
 20 22  1  0  0  0  0 
 20 23  1  0  0  0  0 
 23 24  1  0  0  0  0 
 24 25  1  0  0  0  0 
 24 26  1  0  0  0  0 
 24 27  1  0  0  0  0 
 27 28  1  0  0  0  0 
 27 29  1  0  0  0  0 
 27 30  1  0  0  0  0 
 16 30  1  0  0  0  0 
 30 31  1  0  0  0  0 
 30 32  1  0  0  0  0 
 32 33  1  0  0  0  0 
 32 34  1  0  0  0  0 
 32 35  1  0  0  0  0 
 23 36  1  0  0  0  0 
 36 37  2  0  0  0  0 
 37 38  1  0  0  0  0 
 38 39  2  0  0  0  0 
 39 40  1  0  0  0  0 
 40 41  1  0  0  0  0 
 40 42  2  0  0  0  0 
 42 43  1  0  0  0  0 
 42 44  1  0  0  0  0 
 44 45  2  0  0  0  0 
 38 45  1  0  0  0  0 
 45 46  1  0  0  0  0 
 44 47  1  0  0  0  0 
 39 48  1  0  0  0  0 
 36 48  1  0  0  0  0 
 10 49  1  0  0  0  0 
 49 50  1  0  0  0  0 
 50 51  2  0  0  0  0 
 51 52  1  0  0  0  0 
 51 53  1  0  0  0  0 
 53 54  1  0  0  0  0 
 53 55  2  0  0  0  0 
 49 55  1  0  0  0  0 
 55 56  1  0  0  0  0 
M  CHG  1  55   1
M  CHG  1  56  -1
M  END
> <Rank>
4

> <Priority_score>
0.348

> <Reaction_type>
N-oxidation

> <Parent_ID>
60

> <Parent_InChI>
InChI=1S/C23H23ClN6O2/c1-15-3-5-20(30-25-8-9-26-30)18(13-15)22(31)29-12-11-28(10-7-16(29)2)23-27-19-14-17(24)4-6-21(19)32-23/h3-6,8-9,13-14,16H,7,10-12H2,1-2H3

> <Parent_SMILES>
Cc1ccc(-n2nccn2)c(C(=O)N2CCN(c3nc4cc(Cl)ccc4o3)CCC2C)c1

$$$$
Molecule 60_metabolite 6
  CDK     0516241031

 56 60  0  0  0  0  0  0  0  0999 V2000
    3.1228    1.5815    0.0000 C   0  0  0  0  0  0  0  0  0  0  0  0
    1.7714    0.9305    0.0000 H   0  0  0  0  0  0  0  0  0  0  0  0
    2.2470    2.7993    0.0000 H   0  0  0  0  0  0  0  0  0  0  0  0
    4.1700    2.6555    0.0000 H   0  0  0  0  0  0  0  0  0  0  0  0
    4.3623    0.7368    0.0000 C   0  0  0  0  0  0  0  0  0  0  0  0
    4.2506   -0.7599    0.0000 C   0  0  0  0  0  0  0  0  0  0  0  0
    2.8991   -1.4107    0.0000 H   0  0  0  0  0  0  0  0  0  0  0  0
    5.4904   -1.6058    0.0000 C   0  0  0  0  0  0  0  0  0  0  0  0
    5.3780   -3.1015    0.0000 H   0  0  0  0  0  0  0  0  0  0  0  0
    6.8418   -0.9549    0.0000 C   0  0  0  0  0  0  0  0  0  0  0  0
    6.9535    0.5417    0.0000 C   0  0  0  0  0  0  0  0  0  0  0  0
    5.7137    1.3876    0.0000 C   0  0  0  0  0  0  0  0  0  0  0  0
    5.8261    2.8834    0.0000 H   0  0  0  0  0  0  0  0  0  0  0  0
    8.7374    1.4008    0.0000 C   0  0  0  0  0  0  0  0  0  0  0  0
    9.9768    0.5558    0.0000 O   0  0  0  0  0  0  0  0  0  0  0  0
    8.9213    3.8539    0.0000 N   0  0  0  0  0  0  0  0  0  0  0  0
    7.6222    4.6039    0.0000 C   0  0  0  0  0  0  0  0  0  0  0  0
    7.1801    3.1706    0.0000 H   0  0  0  0  0  0  0  0  0  0  0  0
    6.1264    4.7160    0.0000 H   0  0  0  0  0  0  0  0  0  0  0  0
    7.3987    6.0872    0.0000 C   0  0  0  0  0  0  0  0  0  0  0  0
    6.0023    5.5392    0.0000 H   0  0  0  0  0  0  0  0  0  0  0  0
    6.5537    7.3266    0.0000 H   0  0  0  0  0  0  0  0  0  0  0  0
    8.4189    7.1868    0.0000 N   0  0  0  0  0  0  0  0  0  0  0  0
    9.9147    7.0747    0.0000 C   0  0  0  0  0  0  0  0  0  0  0  0
    9.6912    8.5579    0.0000 H   0  0  0  0  0  0  0  0  0  0  0  0
   11.3110    7.6227    0.0000 H   0  0  0  0  0  0  0  0  0  0  0  0
   10.7597    5.8353    0.0000 C   0  0  0  0  0  0  0  0  0  0  0  0
   11.7800    6.9349    0.0000 H   0  0  0  0  0  0  0  0  0  0  0  0
   10.3176    4.4020    0.0000 C   0  0  0  0  0  0  0  0  0  0  0  0
   11.8134    4.2899    0.0000 H   0  0  0  0  0  0  0  0  0  0  0  0
   10.5411    2.9187    0.0000 C   0  0  0  0  0  0  0  0  0  0  0  0
    9.3684    1.9835    0.0000 H   0  0  0  0  0  0  0  0  0  0  0  0
   11.2585    1.6014    0.0000 H   0  0  0  0  0  0  0  0  0  0  0  0
   11.9630    3.3964    0.0000 H   0  0  0  0  0  0  0  0  0  0  0  0
   12.0587    5.0853    0.0000 O   0  0  0  0  0  0  0  0  0  0  0  0
   13.3578    5.8353    0.0000 H   0  0  0  0  0  0  0  0  0  0  0  0
    7.8709    8.5831    0.0000 C   0  0  0  0  0  0  0  0  0  0  0  0
    6.4230    8.9602    0.0000 N   0  0  0  0  0  0  0  0  0  0  0  0
    6.3288   10.4594    0.0000 C   0  0  0  0  0  0  0  0  0  0  0  0
    7.7251   11.0074    0.0000 C   0  0  0  0  0  0  0  0  0  0  0  0
    7.9483   12.4915    0.0000 C   0  0  0  0  0  0  0  0  0  0  0  0
    9.3446   13.0396    0.0000 H   0  0  0  0  0  0  0  0  0  0  0  0
    6.7752   13.4277    0.0000 C   0  0  0  0  0  0  0  0  0  0  0  0
    6.9990   14.9109    0.0000 H   0  0  0  0  0  0  0  0  0  0  0  0
    5.3789   12.8797    0.0000 C   0  0  0  0  0  0  0  0  0  0  0  0
    5.1557   11.3955    0.0000 C   0  0  0  0  0  0  0  0  0  0  0  0
    3.7594   10.8475    0.0000 H   0  0  0  0  0  0  0  0  0  0  0  0
    4.2060   13.8147    0.0000 Cl  0  0  0  0  0  0  0  0  0  0  0  0
    8.6758    9.8443    0.0000 O   0  0  0  0  0  0  0  0  0  0  0  0
    8.0813   -1.7997    0.0000 N   0  0  0  0  0  0  0  0  0  0  0  0
    8.1353   -3.3008    0.0000 N   0  0  0  0  0  0  0  0  0  0  0  0
    9.5677   -3.7204    0.0000 C   0  0  0  0  0  0  0  0  0  0  0  0
   10.0733   -5.1327    0.0000 H   0  0  0  0  0  0  0  0  0  0  0  0
   10.4125   -2.4809    0.0000 C   0  0  0  0  0  0  0  0  0  0  0  0
   11.9118   -2.4352    0.0000 H   0  0  0  0  0  0  0  0  0  0  0  0
    9.4982   -1.3011    0.0000 N   0  0  0  0  0  0  0  0  0  0  0  0
  1  2  1  0  0  0  0 
  1  3  1  0  0  0  0 
  1  4  1  0  0  0  0 
  1  5  1  0  0  0  0 
  5  6  2  0  0  0  0 
  6  7  1  0  0  0  0 
  6  8  1  0  0  0  0 
  8  9  1  0  0  0  0 
  8 10  2  0  0  0  0 
 10 11  1  0  0  0  0 
 11 12  2  0  0  0  0 
  5 12  1  0  0  0  0 
 12 13  1  0  0  0  0 
 11 14  1  0  0  0  0 
 14 15  2  0  0  0  0 
 14 16  1  0  0  0  0 
 16 17  1  0  0  0  0 
 17 18  1  0  0  0  0 
 17 19  1  0  0  0  0 
 17 20  1  0  0  0  0 
 20 21  1  0  0  0  0 
 20 22  1  0  0  0  0 
 20 23  1  0  0  0  0 
 23 24  1  0  0  0  0 
 24 25  1  0  0  0  0 
 24 26  1  0  0  0  0 
 24 27  1  0  0  0  0 
 27 28  1  0  0  0  0 
 27 29  1  0  0  0  0 
 16 29  1  0  0  0  0 
 29 30  1  0  0  0  0 
 29 31  1  0  0  0  0 
 31 32  1  0  0  0  0 
 31 33  1  0  0  0  0 
 31 34  1  0  0  0  0 
 27 35  1  0  0  0  0 
 35 36  1  0  0  0  0 
 23 37  1  0  0  0  0 
 37 38  2  0  0  0  0 
 38 39  1  0  0  0  0 
 39 40  2  0  0  0  0 
 40 41  1  0  0  0  0 
 41 42  1  0  0  0  0 
 41 43  2  0  0  0  0 
 43 44  1  0  0  0  0 
 43 45  1  0  0  0  0 
 45 46  2  0  0  0  0 
 39 46  1  0  0  0  0 
 46 47  1  0  0  0  0 
 45 48  1  0  0  0  0 
 40 49  1  0  0  0  0 
 37 49  1  0  0  0  0 
 10 50  1  0  0  0  0 
 50 51  1  0  0  0  0 
 51 52  2  0  0  0  0 
 52 53  1  0  0  0  0 
 52 54  1  0  0  0  0 
 54 55  1  0  0  0  0 
 54 56  2  0  0  0  0 
 50 56  1  0  0  0  0 
M  END
> <Rank>
6

> <Priority_score>
0.2231152720889409

> <Reaction_type>
aliphatic_hydroxylation_(sec_carbon_in_a_ringB)

> <Parent_ID>
60

> <Parent_InChI>
InChI=1S/C23H23ClN6O2/c1-15-3-5-20(30-25-8-9-26-30)18(13-15)22(31)29-12-11-28(10-7-16(29)2)23-27-19-14-17(24)4-6-21(19)32-23/h3-6,8-9,13-14,16H,7,10-12H2,1-2H3

> <Parent_SMILES>
Cc1ccc(-n2nccn2)c(C(=O)N2CCN(c3nc4cc(Cl)ccc4o3)CCC2C)c1

$$$$
Molecule 60_metabolite 7
  CDK     0516241031

 56 60  0  0  0  0  0  0  0  0999 V2000
    2.3499    0.6272    0.0000 C   0  0  0  0  0  0  0  0  0  0  0  0
    1.6993   -0.7243    0.0000 H   0  0  0  0  0  0  0  0  0  0  0  0
    0.9059    1.0332    0.0000 H   0  0  0  0  0  0  0  0  0  0  0  0
    2.4990    2.1198    0.0000 H   0  0  0  0  0  0  0  0  0  0  0  0
    3.8457    0.7395    0.0000 C   0  0  0  0  0  0  0  0  0  0  0  0
    4.6915   -0.5002    0.0000 C   0  0  0  0  0  0  0  0  0  0  0  0
    4.0407   -1.8517    0.0000 H   0  0  0  0  0  0  0  0  0  0  0  0
    6.1882   -0.3886    0.0000 C   0  0  0  0  0  0  0  0  0  0  0  0
    7.0330   -1.6280    0.0000 H   0  0  0  0  0  0  0  0  0  0  0  0
    6.8390    0.9629    0.0000 C   0  0  0  0  0  0  0  0  0  0  0  0
    5.9932    2.2027    0.0000 C   0  0  0  0  0  0  0  0  0  0  0  0
    4.4965    2.0910    0.0000 C   0  0  0  0  0  0  0  0  0  0  0  0
    3.6517    3.3305    0.0000 H   0  0  0  0  0  0  0  0  0  0  0  0
    6.8523    3.9866    0.0000 C   0  0  0  0  0  0  0  0  0  0  0  0
    8.3481    4.0987    0.0000 O   0  0  0  0  0  0  0  0  0  0  0  0
    5.4665    6.0191    0.0000 N   0  0  0  0  0  0  0  0  0  0  0  0
    3.9833    5.7956    0.0000 C   0  0  0  0  0  0  0  0  0  0  0  0
    4.5313    4.3993    0.0000 H   0  0  0  0  0  0  0  0  0  0  0  0
    2.7439    4.9506    0.0000 H   0  0  0  0  0  0  0  0  0  0  0  0
    2.8837    6.8158    0.0000 C   0  0  0  0  0  0  0  0  0  0  0  0
    2.1337    5.5168    0.0000 H   0  0  0  0  0  0  0  0  0  0  0  0
    1.4503    7.2580    0.0000 H   0  0  0  0  0  0  0  0  0  0  0  0
    2.9958    8.3116    0.0000 N   0  0  0  0  0  0  0  0  0  0  0  0
    4.2351    9.1566    0.0000 C   0  0  0  0  0  0  0  0  0  0  0  0
    3.1356   10.1769    0.0000 H   0  0  0  0  0  0  0  0  0  0  0  0
    4.9851   10.4557    0.0000 H   0  0  0  0  0  0  0  0  0  0  0  0
    5.6685    8.7145    0.0000 C   0  0  0  0  0  0  0  0  0  0  0  0
    5.7806   10.2103    0.0000 H   0  0  0  0  0  0  0  0  0  0  0  0
    7.1517    8.9381    0.0000 H   0  0  0  0  0  0  0  0  0  0  0  0
    6.2165    7.3182    0.0000 C   0  0  0  0  0  0  0  0  0  0  0  0
    7.4559    8.1632    0.0000 H   0  0  0  0  0  0  0  0  0  0  0  0
    7.3161    6.2979    0.0000 C   0  0  0  0  0  0  0  0  0  0  0  0
    6.9823    4.8355    0.0000 H   0  0  0  0  0  0  0  0  0  0  0  0
    8.6983    5.7153    0.0000 H   0  0  0  0  0  0  0  0  0  0  0  0
    8.1299    7.5580    0.0000 H   0  0  0  0  0  0  0  0  0  0  0  0
    1.5125    8.0881    0.0000 C   0  0  0  0  0  0  0  0  0  0  0  0
    0.8227    6.7604    0.0000 N   0  0  0  0  0  0  0  0  0  0  0  0
   -0.6599    7.0022    0.0000 C   0  0  0  0  0  0  0  0  0  0  0  0
   -0.8834    8.4854    0.0000 C   0  0  0  0  0  0  0  0  0  0  0  0
   -2.2807    9.0333    0.0000 C   0  0  0  0  0  0  0  0  0  0  0  0
   -2.5043   10.5165    0.0000 H   0  0  0  0  0  0  0  0  0  0  0  0
   -3.4544    8.0979    0.0000 C   0  0  0  0  0  0  0  0  0  0  0  0
   -4.8506    8.6461    0.0000 H   0  0  0  0  0  0  0  0  0  0  0  0
   -3.2308    6.6147    0.0000 C   0  0  0  0  0  0  0  0  0  0  0  0
   -1.8336    6.0668    0.0000 C   0  0  0  0  0  0  0  0  0  0  0  0
   -1.6100    4.5835    0.0000 H   0  0  0  0  0  0  0  0  0  0  0  0
   -4.4034    5.6792    0.0000 Cl  0  0  0  0  0  0  0  0  0  0  0  0
    0.4620    9.1534    0.0000 O   0  0  0  0  0  0  0  0  0  0  0  0
    2.4478    9.7080    0.0000 O   0  0  0  0  0  0  0  0  0  0  0  0
    8.3348    1.0752    0.0000 N   0  0  0  0  0  0  0  0  0  0  0  0
    9.3129   -0.0647    0.0000 N   0  0  0  0  0  0  0  0  0  0  0  0
   10.6945    0.5003    0.0000 C   0  0  0  0  0  0  0  0  0  0  0  0
   11.9703   -0.2885    0.0000 H   0  0  0  0  0  0  0  0  0  0  0  0
   10.5822    1.9961    0.0000 C   0  0  0  0  0  0  0  0  0  0  0  0
   11.7258    2.9667    0.0000 H   0  0  0  0  0  0  0  0  0  0  0  0
    9.1317    2.3485    0.0000 N   0  0  0  0  0  0  0  0  0  0  0  0
  1  2  1  0  0  0  0 
  1  3  1  0  0  0  0 
  1  4  1  0  0  0  0 
  1  5  1  0  0  0  0 
  5  6  2  0  0  0  0 
  6  7  1  0  0  0  0 
  6  8  1  0  0  0  0 
  8  9  1  0  0  0  0 
  8 10  2  0  0  0  0 
 10 11  1  0  0  0  0 
 11 12  2  0  0  0  0 
  5 12  1  0  0  0  0 
 12 13  1  0  0  0  0 
 11 14  1  0  0  0  0 
 14 15  2  0  0  0  0 
 14 16  1  0  0  0  0 
 16 17  1  0  0  0  0 
 17 18  1  0  0  0  0 
 17 19  1  0  0  0  0 
 17 20  1  0  0  0  0 
 20 21  1  0  0  0  0 
 20 22  1  0  0  0  0 
 20 23  1  0  0  0  0 
 23 24  1  0  0  0  0 
 24 25  1  0  0  0  0 
 24 26  1  0  0  0  0 
 24 27  1  0  0  0  0 
 27 28  1  0  0  0  0 
 27 29  1  0  0  0  0 
 27 30  1  0  0  0  0 
 16 30  1  0  0  0  0 
 30 31  1  0  0  0  0 
 30 32  1  0  0  0  0 
 32 33  1  0  0  0  0 
 32 34  1  0  0  0  0 
 32 35  1  0  0  0  0 
 23 36  1  0  0  0  0 
 36 37  2  0  0  0  0 
 37 38  1  0  0  0  0 
 38 39  2  0  0  0  0 
 39 40  1  0  0  0  0 
 40 41  1  0  0  0  0 
 40 42  2  0  0  0  0 
 42 43  1  0  0  0  0 
 42 44  1  0  0  0  0 
 44 45  2  0  0  0  0 
 38 45  1  0  0  0  0 
 45 46  1  0  0  0  0 
 44 47  1  0  0  0  0 
 39 48  1  0  0  0  0 
 36 48  1  0  0  0  0 
 23 49  1  0  0  0  0 
 10 50  1  0  0  0  0 
 50 51  1  0  0  0  0 
 51 52  2  0  0  0  0 
 52 53  1  0  0  0  0 
 52 54  1  0  0  0  0 
 54 55  1  0  0  0  0 
 54 56  2  0  0  0  0 
 50 56  1  0  0  0  0 
M  CHG  1  23   1
M  CHG  1  49  -1
M  END
> <Rank>
6

> <Priority_score>
0.2231152720889409

> <Reaction_type>
N-oxidation

> <Parent_ID>
60

> <Parent_InChI>
InChI=1S/C23H23ClN6O2/c1-15-3-5-20(30-25-8-9-26-30)18(13-15)22(31)29-12-11-28(10-7-16(29)2)23-27-19-14-17(24)4-6-21(19)32-23/h3-6,8-9,13-14,16H,7,10-12H2,1-2H3

> <Parent_SMILES>
Cc1ccc(-n2nccn2)c(C(=O)N2CCN(c3nc4cc(Cl)ccc4o3)CCC2C)c1

$$$$
Molecule 60_metabolite 8
  CDK     0516241031

 56 59  0  0  0  0  0  0  0  0999 V2000
    6.9127   -3.4250    0.0000 C   0  0  0  0  0  0  0  0  0  0  0  0
    7.6629   -4.7239    0.0000 H   0  0  0  0  0  0  0  0  0  0  0  0
    5.7638   -4.3894    0.0000 H   0  0  0  0  0  0  0  0  0  0  0  0
    5.7635   -2.4610    0.0000 H   0  0  0  0  0  0  0  0  0  0  0  0
    7.6625   -2.1258    0.0000 C   0  0  0  0  0  0  0  0  0  0  0  0
    9.1634   -2.1254    0.0000 C   0  0  0  0  0  0  0  0  0  0  0  0
    9.9134   -3.4244    0.0000 H   0  0  0  0  0  0  0  0  0  0  0  0
    9.9142   -0.8258    0.0000 C   0  0  0  0  0  0  0  0  0  0  0  0
   11.4142   -0.8261    0.0000 H   0  0  0  0  0  0  0  0  0  0  0  0
    9.1642    0.4732    0.0000 C   0  0  0  0  0  0  0  0  0  0  0  0
    7.6634    0.4727    0.0000 C   0  0  0  0  0  0  0  0  0  0  0  0
    6.9125   -0.8268    0.0000 C   0  0  0  0  0  0  0  0  0  0  0  0
    5.4125   -0.8266    0.0000 H   0  0  0  0  0  0  0  0  0  0  0  0
    6.9134    1.7717    0.0000 C   0  0  0  0  0  0  0  0  0  0  0  0
    7.6634    3.0708    0.0000 O   0  0  0  0  0  0  0  0  0  0  0  0
    5.4134    1.7717    0.0000 N   0  0  0  0  0  0  0  0  0  0  0  0
    4.6634    3.0708    0.0000 C   0  0  0  0  0  0  0  0  0  0  0  0
    3.5143    4.0350    0.0000 H   0  0  0  0  0  0  0  0  0  0  0  0
    3.5143    2.1066    0.0000 H   0  0  0  0  0  0  0  0  0  0  0  0
    5.4134    4.3698    0.0000 C   0  0  0  0  0  0  0  0  0  0  0  0
    6.5624    3.4056    0.0000 H   0  0  0  0  0  0  0  0  0  0  0  0
    6.5624    5.3340    0.0000 H   0  0  0  0  0  0  0  0  0  0  0  0
    4.6634    5.6689    0.0000 N   0  0  0  0  0  0  0  0  0  0  0  0
    3.1634    5.6689    0.0000 H   0  0  0  0  0  0  0  0  0  0  0  0
    5.4134    6.9679    0.0000 C   0  0  0  0  0  0  0  0  0  0  0  0
    6.9012    7.1250    0.0000 N   0  0  0  0  0  0  0  0  0  0  0  0
    7.2179    8.5934    0.0000 C   0  0  0  0  0  0  0  0  0  0  0  0
    5.9188    9.3434    0.0000 C   0  0  0  0  0  0  0  0  0  0  0  0
    5.9193   10.8442    0.0000 C   0  0  0  0  0  0  0  0  0  0  0  0
    4.6203   11.5942    0.0000 H   0  0  0  0  0  0  0  0  0  0  0  0
    7.2188   11.5951    0.0000 C   0  0  0  0  0  0  0  0  0  0  0  0
    7.2186   13.0951    0.0000 H   0  0  0  0  0  0  0  0  0  0  0  0
    8.5179   10.8451    0.0000 C   0  0  0  0  0  0  0  0  0  0  0  0
    8.5174    9.3442    0.0000 C   0  0  0  0  0  0  0  0  0  0  0  0
    9.8164    8.5942    0.0000 H   0  0  0  0  0  0  0  0  0  0  0  0
    9.8170   11.5949    0.0000 Cl  0  0  0  0  0  0  0  0  0  0  0  0
    4.8055    8.3350    0.0000 O   0  0  0  0  0  0  0  0  0  0  0  0
    4.6634    0.4727    0.0000 C   0  0  0  0  0  0  0  0  0  0  0  0
    6.0729   -0.0403    0.0000 H   0  0  0  0  0  0  0  0  0  0  0  0
    4.3195   -1.4772    0.0000 C   0  0  0  0  0  0  0  0  0  0  0  0
    2.9100   -1.9902    0.0000 H   0  0  0  0  0  0  0  0  0  0  0  0
    5.8195   -1.4772    0.0000 H   0  0  0  0  0  0  0  0  0  0  0  0
    4.5800   -2.9544    0.0000 H   0  0  0  0  0  0  0  0  0  0  0  0
    2.6834    0.4727    0.0000 C   0  0  0  0  0  0  0  0  0  0  0  0
    1.2738   -0.0403    0.0000 H   0  0  0  0  0  0  0  0  0  0  0  0
    2.9438   -1.0045    0.0000 H   0  0  0  0  0  0  0  0  0  0  0  0
    1.9334    1.7717    0.0000 C   0  0  0  0  0  0  0  0  0  0  0  0
    0.4334    1.7717    0.0000 H   0  0  0  0  0  0  0  0  0  0  0  0
    2.6834    3.0708    0.0000 O   0  0  0  0  0  0  0  0  0  0  0  0
    9.9140    1.7723    0.0000 N   0  0  0  0  0  0  0  0  0  0  0  0
   11.4068    1.9383    0.0000 N   0  0  0  0  0  0  0  0  0  0  0  0
   11.7182    3.3982    0.0000 C   0  0  0  0  0  0  0  0  0  0  0  0
   13.0887    4.0079    0.0000 H   0  0  0  0  0  0  0  0  0  0  0  0
   10.4191    4.1479    0.0000 C   0  0  0  0  0  0  0  0  0  0  0  0
   10.2614    5.6396    0.0000 H   0  0  0  0  0  0  0  0  0  0  0  0
    9.3109    3.1480    0.0000 N   0  0  0  0  0  0  0  0  0  0  0  0
  1  2  1  0  0  0  0 
  1  3  1  0  0  0  0 
  1  4  1  0  0  0  0 
  1  5  1  0  0  0  0 
  5  6  2  0  0  0  0 
  6  7  1  0  0  0  0 
  6  8  1  0  0  0  0 
  8  9  1  0  0  0  0 
  8 10  2  0  0  0  0 
 10 11  1  0  0  0  0 
 11 12  2  0  0  0  0 
  5 12  1  0  0  0  0 
 12 13  1  0  0  0  0 
 11 14  1  0  0  0  0 
 14 15  2  0  0  0  0 
 14 16  1  0  0  0  0 
 16 17  1  0  0  0  0 
 17 18  1  0  0  0  0 
 17 19  1  0  0  0  0 
 17 20  1  0  0  0  0 
 20 21  1  0  0  0  0 
 20 22  1  0  0  0  0 
 20 23  1  0  0  0  0 
 23 24  1  0  0  0  0 
 23 25  1  0  0  0  0 
 25 26  2  0  0  0  0 
 26 27  1  0  0  0  0 
 27 28  2  0  0  0  0 
 28 29  1  0  0  0  0 
 29 30  1  0  0  0  0 
 29 31  2  0  0  0  0 
 31 32  1  0  0  0  0 
 31 33  1  0  0  0  0 
 33 34  2  0  0  0  0 
 27 34  1  0  0  0  0 
 34 35  1  0  0  0  0 
 33 36  1  0  0  0  0 
 28 37  1  0  0  0  0 
 25 37  1  0  0  0  0 
 16 38  1  0  0  0  0 
 38 39  1  0  0  0  0 
 38 40  1  0  0  0  0 
 40 41  1  0  0  0  0 
 40 42  1  0  0  0  0 
 40 43  1  0  0  0  0 
 38 44  1  0  0  0  0 
 44 45  1  0  0  0  0 
 44 46  1  0  0  0  0 
 44 47  1  0  0  0  0 
 47 48  1  0  0  0  0 
 47 49  2  0  0  0  0 
 10 50  1  0  0  0  0 
 50 51  1  0  0  0  0 
 51 52  2  0  0  0  0 
 52 53  1  0  0  0  0 
 52 54  1  0  0  0  0 
 54 55  1  0  0  0  0 
 54 56  2  0  0  0  0 
 50 56  1  0  0  0  0 
M  END
> <Rank>
6

> <Priority_score>
0.2231152720889409

> <Reaction_type>
N-dealkylation

> <Parent_ID>
60

> <Parent_InChI>
InChI=1S/C23H23ClN6O2/c1-15-3-5-20(30-25-8-9-26-30)18(13-15)22(31)29-12-11-28(10-7-16(29)2)23-27-19-14-17(24)4-6-21(19)32-23/h3-6,8-9,13-14,16H,7,10-12H2,1-2H3

> <Parent_SMILES>
Cc1ccc(-n2nccn2)c(C(=O)N2CCN(c3nc4cc(Cl)ccc4o3)CCC2C)c1

$$$$
Molecule 60_metabolite 9
  CDK     0516241031

 54 58  0  0  0  0  0  0  0  0999 V2000
    3.1228    1.5815    0.0000 C   0  0  0  0  0  0  0  0  0  0  0  0
    1.7714    0.9305    0.0000 H   0  0  0  0  0  0  0  0  0  0  0  0
    2.2470    2.7993    0.0000 H   0  0  0  0  0  0  0  0  0  0  0  0
    4.1700    2.6555    0.0000 H   0  0  0  0  0  0  0  0  0  0  0  0
    4.3623    0.7368    0.0000 C   0  0  0  0  0  0  0  0  0  0  0  0
    4.2506   -0.7599    0.0000 C   0  0  0  0  0  0  0  0  0  0  0  0
    2.8991   -1.4107    0.0000 H   0  0  0  0  0  0  0  0  0  0  0  0
    5.4904   -1.6058    0.0000 C   0  0  0  0  0  0  0  0  0  0  0  0
    5.3780   -3.1015    0.0000 H   0  0  0  0  0  0  0  0  0  0  0  0
    6.8418   -0.9549    0.0000 C   0  0  0  0  0  0  0  0  0  0  0  0
    6.9535    0.5417    0.0000 C   0  0  0  0  0  0  0  0  0  0  0  0
    5.7137    1.3876    0.0000 C   0  0  0  0  0  0  0  0  0  0  0  0
    5.8261    2.8834    0.0000 H   0  0  0  0  0  0  0  0  0  0  0  0
    8.7374    1.4008    0.0000 C   0  0  0  0  0  0  0  0  0  0  0  0
    9.9768    0.5558    0.0000 O   0  0  0  0  0  0  0  0  0  0  0  0
    8.9213    3.8539    0.0000 N   0  0  0  0  0  0  0  0  0  0  0  0
    7.6222    4.6039    0.0000 C   0  0  0  0  0  0  0  0  0  0  0  0
    7.1801    3.1706    0.0000 H   0  0  0  0  0  0  0  0  0  0  0  0
    6.1264    4.7160    0.0000 H   0  0  0  0  0  0  0  0  0  0  0  0
    7.3987    6.0872    0.0000 C   0  0  0  0  0  0  0  0  0  0  0  0
    6.0023    5.5392    0.0000 H   0  0  0  0  0  0  0  0  0  0  0  0
    6.5537    7.3266    0.0000 H   0  0  0  0  0  0  0  0  0  0  0  0
    8.4189    7.1868    0.0000 N   0  0  0  0  0  0  0  0  0  0  0  0
    9.9147    7.0747    0.0000 C   0  0  0  0  0  0  0  0  0  0  0  0
   10.6647    8.3737    0.0000 O   0  0  0  0  0  0  0  0  0  0  0  0
   10.7597    5.8353    0.0000 C   0  0  0  0  0  0  0  0  0  0  0  0
   11.7800    6.9349    0.0000 H   0  0  0  0  0  0  0  0  0  0  0  0
   12.0587    5.0853    0.0000 H   0  0  0  0  0  0  0  0  0  0  0  0
   10.3176    4.4020    0.0000 C   0  0  0  0  0  0  0  0  0  0  0  0
   11.8134    4.2899    0.0000 H   0  0  0  0  0  0  0  0  0  0  0  0
   10.5411    2.9187    0.0000 C   0  0  0  0  0  0  0  0  0  0  0  0
    9.3684    1.9835    0.0000 H   0  0  0  0  0  0  0  0  0  0  0  0
   11.2585    1.6014    0.0000 H   0  0  0  0  0  0  0  0  0  0  0  0
   11.9630    3.3964    0.0000 H   0  0  0  0  0  0  0  0  0  0  0  0
    7.8709    8.5831    0.0000 C   0  0  0  0  0  0  0  0  0  0  0  0
    6.4230    8.9602    0.0000 N   0  0  0  0  0  0  0  0  0  0  0  0
    6.3288   10.4594    0.0000 C   0  0  0  0  0  0  0  0  0  0  0  0
    7.7251   11.0074    0.0000 C   0  0  0  0  0  0  0  0  0  0  0  0
    7.9483   12.4915    0.0000 C   0  0  0  0  0  0  0  0  0  0  0  0
    9.3446   13.0396    0.0000 H   0  0  0  0  0  0  0  0  0  0  0  0
    6.7752   13.4277    0.0000 C   0  0  0  0  0  0  0  0  0  0  0  0
    6.9990   14.9109    0.0000 H   0  0  0  0  0  0  0  0  0  0  0  0
    5.3789   12.8797    0.0000 C   0  0  0  0  0  0  0  0  0  0  0  0
    5.1557   11.3955    0.0000 C   0  0  0  0  0  0  0  0  0  0  0  0
    3.7594   10.8475    0.0000 H   0  0  0  0  0  0  0  0  0  0  0  0
    4.2060   13.8147    0.0000 Cl  0  0  0  0  0  0  0  0  0  0  0  0
    8.6758    9.8443    0.0000 O   0  0  0  0  0  0  0  0  0  0  0  0
    8.0813   -1.7997    0.0000 N   0  0  0  0  0  0  0  0  0  0  0  0
    8.1353   -3.3008    0.0000 N   0  0  0  0  0  0  0  0  0  0  0  0
    9.5677   -3.7204    0.0000 C   0  0  0  0  0  0  0  0  0  0  0  0
   10.0733   -5.1327    0.0000 H   0  0  0  0  0  0  0  0  0  0  0  0
   10.4125   -2.4809    0.0000 C   0  0  0  0  0  0  0  0  0  0  0  0
   11.9118   -2.4352    0.0000 H   0  0  0  0  0  0  0  0  0  0  0  0
    9.4982   -1.3011    0.0000 N   0  0  0  0  0  0  0  0  0  0  0  0
  1  2  1  0  0  0  0 
  1  3  1  0  0  0  0 
  1  4  1  0  0  0  0 
  1  5  1  0  0  0  0 
  5  6  2  0  0  0  0 
  6  7  1  0  0  0  0 
  6  8  1  0  0  0  0 
  8  9  1  0  0  0  0 
  8 10  2  0  0  0  0 
 10 11  1  0  0  0  0 
 11 12  2  0  0  0  0 
  5 12  1  0  0  0  0 
 12 13  1  0  0  0  0 
 11 14  1  0  0  0  0 
 14 15  2  0  0  0  0 
 14 16  1  0  0  0  0 
 16 17  1  0  0  0  0 
 17 18  1  0  0  0  0 
 17 19  1  0  0  0  0 
 17 20  1  0  0  0  0 
 20 21  1  0  0  0  0 
 20 22  1  0  0  0  0 
 20 23  1  0  0  0  0 
 23 24  1  0  0  0  0 
 24 25  2  0  0  0  0 
 24 26  1  0  0  0  0 
 26 27  1  0  0  0  0 
 26 28  1  0  0  0  0 
 26 29  1  0  0  0  0 
 16 29  1  0  0  0  0 
 29 30  1  0  0  0  0 
 29 31  1  0  0  0  0 
 31 32  1  0  0  0  0 
 31 33  1  0  0  0  0 
 31 34  1  0  0  0  0 
 23 35  1  0  0  0  0 
 35 36  2  0  0  0  0 
 36 37  1  0  0  0  0 
 37 38  2  0  0  0  0 
 38 39  1  0  0  0  0 
 39 40  1  0  0  0  0 
 39 41  2  0  0  0  0 
 41 42  1  0  0  0  0 
 41 43  1  0  0  0  0 
 43 44  2  0  0  0  0 
 37 44  1  0  0  0  0 
 44 45  1  0  0  0  0 
 43 46  1  0  0  0  0 
 38 47  1  0  0  0  0 
 35 47  1  0  0  0  0 
 10 48  1  0  0  0  0 
 48 49  1  0  0  0  0 
 49 50  2  0  0  0  0 
 50 51  1  0  0  0  0 
 50 52  1  0  0  0  0 
 52 53  1  0  0  0  0 
 52 54  2  0  0  0  0 
 48 54  1  0  0  0  0 
M  END
> <Rank>
6

> <Priority_score>
0.2231152720889409

> <Reaction_type>
oxidation_(amine_in_a_ring)

> <Parent_ID>
60

> <Parent_InChI>
InChI=1S/C23H23ClN6O2/c1-15-3-5-20(30-25-8-9-26-30)18(13-15)22(31)29-12-11-28(10-7-16(29)2)23-27-19-14-17(24)4-6-21(19)32-23/h3-6,8-9,13-14,16H,7,10-12H2,1-2H3

> <Parent_SMILES>
Cc1ccc(-n2nccn2)c(C(=O)N2CCN(c3nc4cc(Cl)ccc4o3)CCC2C)c1

$$$$
Molecule 60_metabolite 10
  CDK     0516241031

 56 60  0  0  0  0  0  0  0  0999 V2000
    3.1228    1.5815    0.0000 C   0  0  0  0  0  0  0  0  0  0  0  0
    1.7714    0.9305    0.0000 H   0  0  0  0  0  0  0  0  0  0  0  0
    2.2470    2.7993    0.0000 H   0  0  0  0  0  0  0  0  0  0  0  0
    4.1700    2.6555    0.0000 H   0  0  0  0  0  0  0  0  0  0  0  0
    4.3623    0.7368    0.0000 C   0  0  0  0  0  0  0  0  0  0  0  0
    4.2506   -0.7599    0.0000 C   0  0  0  0  0  0  0  0  0  0  0  0
    2.8991   -1.4107    0.0000 H   0  0  0  0  0  0  0  0  0  0  0  0
    5.4904   -1.6058    0.0000 C   0  0  0  0  0  0  0  0  0  0  0  0
    5.3780   -3.1015    0.0000 H   0  0  0  0  0  0  0  0  0  0  0  0
    6.8418   -0.9549    0.0000 C   0  0  0  0  0  0  0  0  0  0  0  0
    6.9535    0.5417    0.0000 C   0  0  0  0  0  0  0  0  0  0  0  0
    5.7137    1.3876    0.0000 C   0  0  0  0  0  0  0  0  0  0  0  0
    5.8261    2.8834    0.0000 H   0  0  0  0  0  0  0  0  0  0  0  0
    8.7374    1.4008    0.0000 C   0  0  0  0  0  0  0  0  0  0  0  0
    9.9768    0.5558    0.0000 O   0  0  0  0  0  0  0  0  0  0  0  0
    8.9213    3.8539    0.0000 N   0  0  0  0  0  0  0  0  0  0  0  0
    7.6222    4.6039    0.0000 C   0  0  0  0  0  0  0  0  0  0  0  0
    7.1801    3.1706    0.0000 H   0  0  0  0  0  0  0  0  0  0  0  0
    6.1264    4.7160    0.0000 H   0  0  0  0  0  0  0  0  0  0  0  0
    7.3987    6.0872    0.0000 C   0  0  0  0  0  0  0  0  0  0  0  0
    6.0023    5.5392    0.0000 H   0  0  0  0  0  0  0  0  0  0  0  0
    6.5537    7.3266    0.0000 H   0  0  0  0  0  0  0  0  0  0  0  0
    8.4189    7.1868    0.0000 N   0  0  0  0  0  0  0  0  0  0  0  0
    9.9147    7.0747    0.0000 C   0  0  0  0  0  0  0  0  0  0  0  0
    9.6912    8.5579    0.0000 H   0  0  0  0  0  0  0  0  0  0  0  0
   10.7597    5.8353    0.0000 C   0  0  0  0  0  0  0  0  0  0  0  0
   11.7800    6.9349    0.0000 H   0  0  0  0  0  0  0  0  0  0  0  0
   12.0587    5.0853    0.0000 H   0  0  0  0  0  0  0  0  0  0  0  0
   10.3176    4.4020    0.0000 C   0  0  0  0  0  0  0  0  0  0  0  0
   11.8134    4.2899    0.0000 H   0  0  0  0  0  0  0  0  0  0  0  0
   10.5411    2.9187    0.0000 C   0  0  0  0  0  0  0  0  0  0  0  0
    9.3684    1.9835    0.0000 H   0  0  0  0  0  0  0  0  0  0  0  0
   11.2585    1.6014    0.0000 H   0  0  0  0  0  0  0  0  0  0  0  0
   11.9630    3.3964    0.0000 H   0  0  0  0  0  0  0  0  0  0  0  0
   11.3110    7.6227    0.0000 O   0  0  0  0  0  0  0  0  0  0  0  0
   11.5346    9.1059    0.0000 H   0  0  0  0  0  0  0  0  0  0  0  0
    7.8709    8.5831    0.0000 C   0  0  0  0  0  0  0  0  0  0  0  0
    6.4230    8.9602    0.0000 N   0  0  0  0  0  0  0  0  0  0  0  0
    6.3288   10.4594    0.0000 C   0  0  0  0  0  0  0  0  0  0  0  0
    7.7251   11.0074    0.0000 C   0  0  0  0  0  0  0  0  0  0  0  0
    7.9483   12.4915    0.0000 C   0  0  0  0  0  0  0  0  0  0  0  0
    9.3446   13.0396    0.0000 H   0  0  0  0  0  0  0  0  0  0  0  0
    6.7752   13.4277    0.0000 C   0  0  0  0  0  0  0  0  0  0  0  0
    6.9990   14.9109    0.0000 H   0  0  0  0  0  0  0  0  0  0  0  0
    5.3789   12.8797    0.0000 C   0  0  0  0  0  0  0  0  0  0  0  0
    5.1557   11.3955    0.0000 C   0  0  0  0  0  0  0  0  0  0  0  0
    3.7594   10.8475    0.0000 H   0  0  0  0  0  0  0  0  0  0  0  0
    4.2060   13.8147    0.0000 Cl  0  0  0  0  0  0  0  0  0  0  0  0
    8.6758    9.8443    0.0000 O   0  0  0  0  0  0  0  0  0  0  0  0
    8.0813   -1.7997    0.0000 N   0  0  0  0  0  0  0  0  0  0  0  0
    8.1353   -3.3008    0.0000 N   0  0  0  0  0  0  0  0  0  0  0  0
    9.5677   -3.7204    0.0000 C   0  0  0  0  0  0  0  0  0  0  0  0
   10.0733   -5.1327    0.0000 H   0  0  0  0  0  0  0  0  0  0  0  0
   10.4125   -2.4809    0.0000 C   0  0  0  0  0  0  0  0  0  0  0  0
   11.9118   -2.4352    0.0000 H   0  0  0  0  0  0  0  0  0  0  0  0
    9.4982   -1.3011    0.0000 N   0  0  0  0  0  0  0  0  0  0  0  0
  1  2  1  0  0  0  0 
  1  3  1  0  0  0  0 
  1  4  1  0  0  0  0 
  1  5  1  0  0  0  0 
  5  6  2  0  0  0  0 
  6  7  1  0  0  0  0 
  6  8  1  0  0  0  0 
  8  9  1  0  0  0  0 
  8 10  2  0  0  0  0 
 10 11  1  0  0  0  0 
 11 12  2  0  0  0  0 
  5 12  1  0  0  0  0 
 12 13  1  0  0  0  0 
 11 14  1  0  0  0  0 
 14 15  2  0  0  0  0 
 14 16  1  0  0  0  0 
 16 17  1  0  0  0  0 
 17 18  1  0  0  0  0 
 17 19  1  0  0  0  0 
 17 20  1  0  0  0  0 
 20 21  1  0  0  0  0 
 20 22  1  0  0  0  0 
 20 23  1  0  0  0  0 
 23 24  1  0  0  0  0 
 24 25  1  0  0  0  0 
 24 26  1  0  0  0  0 
 26 27  1  0  0  0  0 
 26 28  1  0  0  0  0 
 26 29  1  0  0  0  0 
 16 29  1  0  0  0  0 
 29 30  1  0  0  0  0 
 29 31  1  0  0  0  0 
 31 32  1  0  0  0  0 
 31 33  1  0  0  0  0 
 31 34  1  0  0  0  0 
 24 35  1  0  0  0  0 
 35 36  1  0  0  0  0 
 23 37  1  0  0  0  0 
 37 38  2  0  0  0  0 
 38 39  1  0  0  0  0 
 39 40  2  0  0  0  0 
 40 41  1  0  0  0  0 
 41 42  1  0  0  0  0 
 41 43  2  0  0  0  0 
 43 44  1  0  0  0  0 
 43 45  1  0  0  0  0 
 45 46  2  0  0  0  0 
 39 46  1  0  0  0  0 
 46 47  1  0  0  0  0 
 45 48  1  0  0  0  0 
 40 49  1  0  0  0  0 
 37 49  1  0  0  0  0 
 10 50  1  0  0  0  0 
 50 51  1  0  0  0  0 
 51 52  2  0  0  0  0 
 52 53  1  0  0  0  0 
 52 54  1  0  0  0  0 
 54 55  1  0  0  0  0 
 54 56  2  0  0  0  0 
 50 56  1  0  0  0  0 
M  END
> <Rank>
6

> <Priority_score>
0.2231152720889409

> <Reaction_type>
aliphatic_hydroxylation_(sec_carbon_next_to_SP2,in_a_ring)

> <Parent_ID>
60

> <Parent_InChI>
InChI=1S/C23H23ClN6O2/c1-15-3-5-20(30-25-8-9-26-30)18(13-15)22(31)29-12-11-28(10-7-16(29)2)23-27-19-14-17(24)4-6-21(19)32-23/h3-6,8-9,13-14,16H,7,10-12H2,1-2H3

> <Parent_SMILES>
Cc1ccc(-n2nccn2)c(C(=O)N2CCN(c3nc4cc(Cl)ccc4o3)CCC2C)c1

$$$$
Molecule 60_metabolite 11
  CDK     0516241031

 56 60  0  0  0  0  0  0  0  0999 V2000
    3.1228    1.5815    0.0000 C   0  0  0  0  0  0  0  0  0  0  0  0
    1.7714    0.9305    0.0000 H   0  0  0  0  0  0  0  0  0  0  0  0
    2.2470    2.7993    0.0000 H   0  0  0  0  0  0  0  0  0  0  0  0
    4.1700    2.6555    0.0000 H   0  0  0  0  0  0  0  0  0  0  0  0
    4.3623    0.7368    0.0000 C   0  0  0  0  0  0  0  0  0  0  0  0
    4.2506   -0.7599    0.0000 C   0  0  0  0  0  0  0  0  0  0  0  0
    2.8991   -1.4107    0.0000 H   0  0  0  0  0  0  0  0  0  0  0  0
    5.4904   -1.6058    0.0000 C   0  0  0  0  0  0  0  0  0  0  0  0
    5.3780   -3.1015    0.0000 H   0  0  0  0  0  0  0  0  0  0  0  0
    6.8418   -0.9549    0.0000 C   0  0  0  0  0  0  0  0  0  0  0  0
    6.9535    0.5417    0.0000 C   0  0  0  0  0  0  0  0  0  0  0  0
    5.7137    1.3876    0.0000 C   0  0  0  0  0  0  0  0  0  0  0  0
    5.8261    2.8834    0.0000 H   0  0  0  0  0  0  0  0  0  0  0  0
    8.7374    1.4008    0.0000 C   0  0  0  0  0  0  0  0  0  0  0  0
    9.9768    0.5558    0.0000 O   0  0  0  0  0  0  0  0  0  0  0  0
    8.9213    3.8539    0.0000 N   0  0  0  0  0  0  0  0  0  0  0  0
    7.6222    4.6039    0.0000 C   0  0  0  0  0  0  0  0  0  0  0  0
    7.1801    3.1706    0.0000 H   0  0  0  0  0  0  0  0  0  0  0  0
    6.1264    4.7160    0.0000 H   0  0  0  0  0  0  0  0  0  0  0  0
    7.3987    6.0872    0.0000 C   0  0  0  0  0  0  0  0  0  0  0  0
    6.0023    5.5392    0.0000 H   0  0  0  0  0  0  0  0  0  0  0  0
    6.5537    7.3266    0.0000 H   0  0  0  0  0  0  0  0  0  0  0  0
    8.4189    7.1868    0.0000 N   0  0  0  0  0  0  0  0  0  0  0  0
    9.9147    7.0747    0.0000 C   0  0  0  0  0  0  0  0  0  0  0  0
    9.6912    8.5579    0.0000 H   0  0  0  0  0  0  0  0  0  0  0  0
   11.3110    7.6227    0.0000 H   0  0  0  0  0  0  0  0  0  0  0  0
   10.7597    5.8353    0.0000 C   0  0  0  0  0  0  0  0  0  0  0  0
   11.7800    6.9349    0.0000 H   0  0  0  0  0  0  0  0  0  0  0  0
   12.0587    5.0853    0.0000 H   0  0  0  0  0  0  0  0  0  0  0  0
   10.3176    4.4020    0.0000 C   0  0  0  0  0  0  0  0  0  0  0  0
   11.8134    4.2899    0.0000 H   0  0  0  0  0  0  0  0  0  0  0  0
   10.5411    2.9187    0.0000 C   0  0  0  0  0  0  0  0  0  0  0  0
    9.3684    1.9835    0.0000 H   0  0  0  0  0  0  0  0  0  0  0  0
   11.2585    1.6014    0.0000 H   0  0  0  0  0  0  0  0  0  0  0  0
   11.9630    3.3964    0.0000 H   0  0  0  0  0  0  0  0  0  0  0  0
    7.8709    8.5831    0.0000 C   0  0  0  0  0  0  0  0  0  0  0  0
    6.4230    8.9602    0.0000 N   0  0  0  0  0  0  0  0  0  0  0  0
    6.3288   10.4594    0.0000 C   0  0  0  0  0  0  0  0  0  0  0  0
    7.7251   11.0074    0.0000 C   0  0  0  0  0  0  0  0  0  0  0  0
    7.9483   12.4915    0.0000 C   0  0  0  0  0  0  0  0  0  0  0  0
    6.7752   13.4277    0.0000 C   0  0  0  0  0  0  0  0  0  0  0  0
    6.9990   14.9109    0.0000 H   0  0  0  0  0  0  0  0  0  0  0  0
    5.3789   12.8797    0.0000 C   0  0  0  0  0  0  0  0  0  0  0  0
    5.1557   11.3955    0.0000 C   0  0  0  0  0  0  0  0  0  0  0  0
    3.7594   10.8475    0.0000 H   0  0  0  0  0  0  0  0  0  0  0  0
    4.2060   13.8147    0.0000 Cl  0  0  0  0  0  0  0  0  0  0  0  0
    9.3446   13.0396    0.0000 O   0  0  0  0  0  0  0  0  0  0  0  0
    9.5682   14.5228    0.0000 H   0  0  0  0  0  0  0  0  0  0  0  0
    8.6758    9.8443    0.0000 O   0  0  0  0  0  0  0  0  0  0  0  0
    8.0813   -1.7997    0.0000 N   0  0  0  0  0  0  0  0  0  0  0  0
    8.1353   -3.3008    0.0000 N   0  0  0  0  0  0  0  0  0  0  0  0
    9.5677   -3.7204    0.0000 C   0  0  0  0  0  0  0  0  0  0  0  0
   10.0733   -5.1327    0.0000 H   0  0  0  0  0  0  0  0  0  0  0  0
   10.4125   -2.4809    0.0000 C   0  0  0  0  0  0  0  0  0  0  0  0
   11.9118   -2.4352    0.0000 H   0  0  0  0  0  0  0  0  0  0  0  0
    9.4982   -1.3011    0.0000 N   0  0  0  0  0  0  0  0  0  0  0  0
  1  2  1  0  0  0  0 
  1  3  1  0  0  0  0 
  1  4  1  0  0  0  0 
  1  5  1  0  0  0  0 
  5  6  2  0  0  0  0 
  6  7  1  0  0  0  0 
  6  8  1  0  0  0  0 
  8  9  1  0  0  0  0 
  8 10  2  0  0  0  0 
 10 11  1  0  0  0  0 
 11 12  2  0  0  0  0 
  5 12  1  0  0  0  0 
 12 13  1  0  0  0  0 
 11 14  1  0  0  0  0 
 14 15  2  0  0  0  0 
 14 16  1  0  0  0  0 
 16 17  1  0  0  0  0 
 17 18  1  0  0  0  0 
 17 19  1  0  0  0  0 
 17 20  1  0  0  0  0 
 20 21  1  0  0  0  0 
 20 22  1  0  0  0  0 
 20 23  1  0  0  0  0 
 23 24  1  0  0  0  0 
 24 25  1  0  0  0  0 
 24 26  1  0  0  0  0 
 24 27  1  0  0  0  0 
 27 28  1  0  0  0  0 
 27 29  1  0  0  0  0 
 27 30  1  0  0  0  0 
 16 30  1  0  0  0  0 
 30 31  1  0  0  0  0 
 30 32  1  0  0  0  0 
 32 33  1  0  0  0  0 
 32 34  1  0  0  0  0 
 32 35  1  0  0  0  0 
 23 36  1  0  0  0  0 
 36 37  2  0  0  0  0 
 37 38  1  0  0  0  0 
 38 39  2  0  0  0  0 
 39 40  1  0  0  0  0 
 40 41  2  0  0  0  0 
 41 42  1  0  0  0  0 
 41 43  1  0  0  0  0 
 43 44  2  0  0  0  0 
 38 44  1  0  0  0  0 
 44 45  1  0  0  0  0 
 43 46  1  0  0  0  0 
 40 47  1  0  0  0  0 
 47 48  1  0  0  0  0 
 39 49  1  0  0  0  0 
 36 49  1  0  0  0  0 
 10 50  1  0  0  0  0 
 50 51  1  0  0  0  0 
 51 52  2  0  0  0  0 
 52 53  1  0  0  0  0 
 52 54  1  0  0  0  0 
 54 55  1  0  0  0  0 
 54 56  2  0  0  0  0 
 50 56  1  0  0  0  0 
M  END
> <Rank>
11

> <Priority_score>
0.16320337197049525

> <Reaction_type>
aromatic_hydroxylation_(ortho_to_oxygen)

> <Parent_ID>
60

> <Parent_InChI>
InChI=1S/C23H23ClN6O2/c1-15-3-5-20(30-25-8-9-26-30)18(13-15)22(31)29-12-11-28(10-7-16(29)2)23-27-19-14-17(24)4-6-21(19)32-23/h3-6,8-9,13-14,16H,7,10-12H2,1-2H3

> <Parent_SMILES>
Cc1ccc(-n2nccn2)c(C(=O)N2CCN(c3nc4cc(Cl)ccc4o3)CCC2C)c1

$$$$
Molecule 60_metabolite 12
  CDK     0516241031

 56 60  0  0  0  0  0  0  0  0999 V2000
    3.1228    1.5815    0.0000 C   0  0  0  0  0  0  0  0  0  0  0  0
    1.7714    0.9305    0.0000 H   0  0  0  0  0  0  0  0  0  0  0  0
    2.2470    2.7993    0.0000 H   0  0  0  0  0  0  0  0  0  0  0  0
    4.1700    2.6555    0.0000 H   0  0  0  0  0  0  0  0  0  0  0  0
    4.3623    0.7368    0.0000 C   0  0  0  0  0  0  0  0  0  0  0  0
    4.2506   -0.7599    0.0000 C   0  0  0  0  0  0  0  0  0  0  0  0
    2.8991   -1.4107    0.0000 H   0  0  0  0  0  0  0  0  0  0  0  0
    5.4904   -1.6058    0.0000 C   0  0  0  0  0  0  0  0  0  0  0  0
    5.3780   -3.1015    0.0000 H   0  0  0  0  0  0  0  0  0  0  0  0
    6.8418   -0.9549    0.0000 C   0  0  0  0  0  0  0  0  0  0  0  0
    6.9535    0.5417    0.0000 C   0  0  0  0  0  0  0  0  0  0  0  0
    5.7137    1.3876    0.0000 C   0  0  0  0  0  0  0  0  0  0  0  0
    5.8261    2.8834    0.0000 H   0  0  0  0  0  0  0  0  0  0  0  0
    8.7374    1.4008    0.0000 C   0  0  0  0  0  0  0  0  0  0  0  0
    9.9768    0.5558    0.0000 O   0  0  0  0  0  0  0  0  0  0  0  0
    8.9213    3.8539    0.0000 N   0  0  0  0  0  0  0  0  0  0  0  0
    7.6222    4.6039    0.0000 C   0  0  0  0  0  0  0  0  0  0  0  0
    7.1801    3.1706    0.0000 H   0  0  0  0  0  0  0  0  0  0  0  0
    6.1264    4.7160    0.0000 H   0  0  0  0  0  0  0  0  0  0  0  0
    7.3987    6.0872    0.0000 C   0  0  0  0  0  0  0  0  0  0  0  0
    6.0023    5.5392    0.0000 H   0  0  0  0  0  0  0  0  0  0  0  0
    6.5537    7.3266    0.0000 H   0  0  0  0  0  0  0  0  0  0  0  0
    8.4189    7.1868    0.0000 N   0  0  0  0  0  0  0  0  0  0  0  0
    9.9147    7.0747    0.0000 C   0  0  0  0  0  0  0  0  0  0  0  0
    9.6912    8.5579    0.0000 H   0  0  0  0  0  0  0  0  0  0  0  0
   11.3110    7.6227    0.0000 H   0  0  0  0  0  0  0  0  0  0  0  0
   10.7597    5.8353    0.0000 C   0  0  0  0  0  0  0  0  0  0  0  0
   11.7800    6.9349    0.0000 H   0  0  0  0  0  0  0  0  0  0  0  0
   12.0587    5.0853    0.0000 H   0  0  0  0  0  0  0  0  0  0  0  0
   10.3176    4.4020    0.0000 C   0  0  0  0  0  0  0  0  0  0  0  0
   11.8134    4.2899    0.0000 H   0  0  0  0  0  0  0  0  0  0  0  0
   10.5411    2.9187    0.0000 C   0  0  0  0  0  0  0  0  0  0  0  0
    9.3684    1.9835    0.0000 H   0  0  0  0  0  0  0  0  0  0  0  0
   11.2585    1.6014    0.0000 H   0  0  0  0  0  0  0  0  0  0  0  0
   11.9630    3.3964    0.0000 H   0  0  0  0  0  0  0  0  0  0  0  0
    7.8709    8.5831    0.0000 C   0  0  0  0  0  0  0  0  0  0  0  0
    6.4230    8.9602    0.0000 N   0  0  0  0  0  0  0  0  0  0  0  0
    6.3288   10.4594    0.0000 C   0  0  0  0  0  0  0  0  0  0  0  0
    7.7251   11.0074    0.0000 C   0  0  0  0  0  0  0  0  0  0  0  0
    7.9483   12.4915    0.0000 C   0  0  0  0  0  0  0  0  0  0  0  0
    9.3446   13.0396    0.0000 H   0  0  0  0  0  0  0  0  0  0  0  0
    6.7752   13.4277    0.0000 C   0  0  0  0  0  0  0  0  0  0  0  0
    5.3789   12.8797    0.0000 C   0  0  0  0  0  0  0  0  0  0  0  0
    5.1557   11.3955    0.0000 C   0  0  0  0  0  0  0  0  0  0  0  0
    3.7594   10.8475    0.0000 H   0  0  0  0  0  0  0  0  0  0  0  0
    4.2060   13.8147    0.0000 Cl  0  0  0  0  0  0  0  0  0  0  0  0
    6.9990   14.9109    0.0000 O   0  0  0  0  0  0  0  0  0  0  0  0
    5.8264   15.8463    0.0000 H   0  0  0  0  0  0  0  0  0  0  0  0
    8.6758    9.8443    0.0000 O   0  0  0  0  0  0  0  0  0  0  0  0
    8.0813   -1.7997    0.0000 N   0  0  0  0  0  0  0  0  0  0  0  0
    8.1353   -3.3008    0.0000 N   0  0  0  0  0  0  0  0  0  0  0  0
    9.5677   -3.7204    0.0000 C   0  0  0  0  0  0  0  0  0  0  0  0
   10.0733   -5.1327    0.0000 H   0  0  0  0  0  0  0  0  0  0  0  0
   10.4125   -2.4809    0.0000 C   0  0  0  0  0  0  0  0  0  0  0  0
   11.9118   -2.4352    0.0000 H   0  0  0  0  0  0  0  0  0  0  0  0
    9.4982   -1.3011    0.0000 N   0  0  0  0  0  0  0  0  0  0  0  0
  1  2  1  0  0  0  0 
  1  3  1  0  0  0  0 
  1  4  1  0  0  0  0 
  1  5  1  0  0  0  0 
  5  6  2  0  0  0  0 
  6  7  1  0  0  0  0 
  6  8  1  0  0  0  0 
  8  9  1  0  0  0  0 
  8 10  2  0  0  0  0 
 10 11  1  0  0  0  0 
 11 12  2  0  0  0  0 
  5 12  1  0  0  0  0 
 12 13  1  0  0  0  0 
 11 14  1  0  0  0  0 
 14 15  2  0  0  0  0 
 14 16  1  0  0  0  0 
 16 17  1  0  0  0  0 
 17 18  1  0  0  0  0 
 17 19  1  0  0  0  0 
 17 20  1  0  0  0  0 
 20 21  1  0  0  0  0 
 20 22  1  0  0  0  0 
 20 23  1  0  0  0  0 
 23 24  1  0  0  0  0 
 24 25  1  0  0  0  0 
 24 26  1  0  0  0  0 
 24 27  1  0  0  0  0 
 27 28  1  0  0  0  0 
 27 29  1  0  0  0  0 
 27 30  1  0  0  0  0 
 16 30  1  0  0  0  0 
 30 31  1  0  0  0  0 
 30 32  1  0  0  0  0 
 32 33  1  0  0  0  0 
 32 34  1  0  0  0  0 
 32 35  1  0  0  0  0 
 23 36  1  0  0  0  0 
 36 37  2  0  0  0  0 
 37 38  1  0  0  0  0 
 38 39  2  0  0  0  0 
 39 40  1  0  0  0  0 
 40 41  1  0  0  0  0 
 40 42  2  0  0  0  0 
 42 43  1  0  0  0  0 
 43 44  2  0  0  0  0 
 38 44  1  0  0  0  0 
 44 45  1  0  0  0  0 
 43 46  1  0  0  0  0 
 42 47  1  0  0  0  0 
 47 48  1  0  0  0  0 
 39 49  1  0  0  0  0 
 36 49  1  0  0  0  0 
 10 50  1  0  0  0  0 
 50 51  1  0  0  0  0 
 51 52  2  0  0  0  0 
 52 53  1  0  0  0  0 
 52 54  1  0  0  0  0 
 54 55  1  0  0  0  0 
 54 56  2  0  0  0  0 
 50 56  1  0  0  0  0 
M  END
> <Rank>
11

> <Priority_score>
0.16320337197049525

> <Reaction_type>
aromatic_hydroxylation_(para_to_nitrogen)

> <Parent_ID>
60

> <Parent_InChI>
InChI=1S/C23H23ClN6O2/c1-15-3-5-20(30-25-8-9-26-30)18(13-15)22(31)29-12-11-28(10-7-16(29)2)23-27-19-14-17(24)4-6-21(19)32-23/h3-6,8-9,13-14,16H,7,10-12H2,1-2H3

> <Parent_SMILES>
Cc1ccc(-n2nccn2)c(C(=O)N2CCN(c3nc4cc(Cl)ccc4o3)CCC2C)c1

$$$$
Molecule 60_metabolite 13
  CDK     0516241031

 56 60  0  0  0  0  0  0  0  0999 V2000
    3.1228    1.5815    0.0000 C   0  0  0  0  0  0  0  0  0  0  0  0
    1.7714    0.9305    0.0000 H   0  0  0  0  0  0  0  0  0  0  0  0
    2.2470    2.7993    0.0000 H   0  0  0  0  0  0  0  0  0  0  0  0
    4.1700    2.6555    0.0000 H   0  0  0  0  0  0  0  0  0  0  0  0
    4.3623    0.7368    0.0000 C   0  0  0  0  0  0  0  0  0  0  0  0
    4.2506   -0.7599    0.0000 C   0  0  0  0  0  0  0  0  0  0  0  0
    2.8991   -1.4107    0.0000 H   0  0  0  0  0  0  0  0  0  0  0  0
    5.4904   -1.6058    0.0000 C   0  0  0  0  0  0  0  0  0  0  0  0
    5.3780   -3.1015    0.0000 H   0  0  0  0  0  0  0  0  0  0  0  0
    6.8418   -0.9549    0.0000 C   0  0  0  0  0  0  0  0  0  0  0  0
    6.9535    0.5417    0.0000 C   0  0  0  0  0  0  0  0  0  0  0  0
    5.7137    1.3876    0.0000 C   0  0  0  0  0  0  0  0  0  0  0  0
    5.8261    2.8834    0.0000 H   0  0  0  0  0  0  0  0  0  0  0  0
    8.7374    1.4008    0.0000 C   0  0  0  0  0  0  0  0  0  0  0  0
    9.9768    0.5558    0.0000 O   0  0  0  0  0  0  0  0  0  0  0  0
    8.9213    3.8539    0.0000 N   0  0  0  0  0  0  0  0  0  0  0  0
    7.6222    4.6039    0.0000 C   0  0  0  0  0  0  0  0  0  0  0  0
    7.1801    3.1706    0.0000 H   0  0  0  0  0  0  0  0  0  0  0  0
    6.1264    4.7160    0.0000 H   0  0  0  0  0  0  0  0  0  0  0  0
    7.3987    6.0872    0.0000 C   0  0  0  0  0  0  0  0  0  0  0  0
    6.0023    5.5392    0.0000 H   0  0  0  0  0  0  0  0  0  0  0  0
    6.5537    7.3266    0.0000 H   0  0  0  0  0  0  0  0  0  0  0  0
    8.4189    7.1868    0.0000 N   0  0  0  0  0  0  0  0  0  0  0  0
    9.9147    7.0747    0.0000 C   0  0  0  0  0  0  0  0  0  0  0  0
    9.6912    8.5579    0.0000 H   0  0  0  0  0  0  0  0  0  0  0  0
   11.3110    7.6227    0.0000 H   0  0  0  0  0  0  0  0  0  0  0  0
   10.7597    5.8353    0.0000 C   0  0  0  0  0  0  0  0  0  0  0  0
   11.7800    6.9349    0.0000 H   0  0  0  0  0  0  0  0  0  0  0  0
   12.0587    5.0853    0.0000 H   0  0  0  0  0  0  0  0  0  0  0  0
   10.3176    4.4020    0.0000 C   0  0  0  0  0  0  0  0  0  0  0  0
   11.8134    4.2899    0.0000 H   0  0  0  0  0  0  0  0  0  0  0  0
   10.5411    2.9187    0.0000 C   0  0  0  0  0  0  0  0  0  0  0  0
    9.3684    1.9835    0.0000 H   0  0  0  0  0  0  0  0  0  0  0  0
   11.2585    1.6014    0.0000 H   0  0  0  0  0  0  0  0  0  0  0  0
   11.9630    3.3964    0.0000 H   0  0  0  0  0  0  0  0  0  0  0  0
    7.8709    8.5831    0.0000 C   0  0  0  0  0  0  0  0  0  0  0  0
    6.4230    8.9602    0.0000 N   0  0  0  0  0  0  0  0  0  0  0  0
    6.3288   10.4594    0.0000 C   0  0  0  0  0  0  0  0  0  0  0  0
    5.1557   11.3955    0.0000 C   0  0  0  0  0  0  0  0  0  0  0  0
    5.3789   12.8797    0.0000 C   0  0  0  0  0  0  0  0  0  0  0  0
    6.7752   13.4277    0.0000 C   0  0  0  0  0  0  0  0  0  0  0  0
    6.9990   14.9109    0.0000 H   0  0  0  0  0  0  0  0  0  0  0  0
    7.9483   12.4915    0.0000 C   0  0  0  0  0  0  0  0  0  0  0  0
    9.3446   13.0396    0.0000 H   0  0  0  0  0  0  0  0  0  0  0  0
    7.7251   11.0074    0.0000 C   0  0  0  0  0  0  0  0  0  0  0  0
    8.6758    9.8443    0.0000 O   0  0  0  0  0  0  0  0  0  0  0  0
    4.2060   13.8147    0.0000 Cl  0  0  0  0  0  0  0  0  0  0  0  0
    3.7594   10.8475    0.0000 O   0  0  0  0  0  0  0  0  0  0  0  0
    2.5867   11.7827    0.0000 H   0  0  0  0  0  0  0  0  0  0  0  0
    8.0813   -1.7997    0.0000 N   0  0  0  0  0  0  0  0  0  0  0  0
    8.1353   -3.3008    0.0000 N   0  0  0  0  0  0  0  0  0  0  0  0
    9.5677   -3.7204    0.0000 C   0  0  0  0  0  0  0  0  0  0  0  0
   10.0733   -5.1327    0.0000 H   0  0  0  0  0  0  0  0  0  0  0  0
   10.4125   -2.4809    0.0000 C   0  0  0  0  0  0  0  0  0  0  0  0
   11.9118   -2.4352    0.0000 H   0  0  0  0  0  0  0  0  0  0  0  0
    9.4982   -1.3011    0.0000 N   0  0  0  0  0  0  0  0  0  0  0  0
  1  2  1  0  0  0  0 
  1  3  1  0  0  0  0 
  1  4  1  0  0  0  0 
  1  5  1  0  0  0  0 
  5  6  2  0  0  0  0 
  6  7  1  0  0  0  0 
  6  8  1  0  0  0  0 
  8  9  1  0  0  0  0 
  8 10  2  0  0  0  0 
 10 11  1  0  0  0  0 
 11 12  2  0  0  0  0 
  5 12  1  0  0  0  0 
 12 13  1  0  0  0  0 
 11 14  1  0  0  0  0 
 14 15  2  0  0  0  0 
 14 16  1  0  0  0  0 
 16 17  1  0  0  0  0 
 17 18  1  0  0  0  0 
 17 19  1  0  0  0  0 
 17 20  1  0  0  0  0 
 20 21  1  0  0  0  0 
 20 22  1  0  0  0  0 
 20 23  1  0  0  0  0 
 23 24  1  0  0  0  0 
 24 25  1  0  0  0  0 
 24 26  1  0  0  0  0 
 24 27  1  0  0  0  0 
 27 28  1  0  0  0  0 
 27 29  1  0  0  0  0 
 27 30  1  0  0  0  0 
 16 30  1  0  0  0  0 
 30 31  1  0  0  0  0 
 30 32  1  0  0  0  0 
 32 33  1  0  0  0  0 
 32 34  1  0  0  0  0 
 32 35  1  0  0  0  0 
 23 36  1  0  0  0  0 
 36 37  2  0  0  0  0 
 37 38  1  0  0  0  0 
 38 39  2  0  0  0  0 
 39 40  1  0  0  0  0 
 40 41  2  0  0  0  0 
 41 42  1  0  0  0  0 
 41 43  1  0  0  0  0 
 43 44  1  0  0  0  0 
 43 45  2  0  0  0  0 
 38 45  1  0  0  0  0 
 45 46  1  0  0  0  0 
 36 46  1  0  0  0  0 
 40 47  1  0  0  0  0 
 39 48  1  0  0  0  0 
 48 49  1  0  0  0  0 
 10 50  1  0  0  0  0 
 50 51  1  0  0  0  0 
 51 52  2  0  0  0  0 
 52 53  1  0  0  0  0 
 52 54  1  0  0  0  0 
 54 55  1  0  0  0  0 
 54 56  2  0  0  0  0 
 50 56  1  0  0  0  0 
M  END
> <Rank>
11

> <Priority_score>
0.16320337197049525

> <Reaction_type>
aromatic_hydroxylation_(ortho_to_nitrogen)

> <Parent_ID>
60

> <Parent_InChI>
InChI=1S/C23H23ClN6O2/c1-15-3-5-20(30-25-8-9-26-30)18(13-15)22(31)29-12-11-28(10-7-16(29)2)23-27-19-14-17(24)4-6-21(19)32-23/h3-6,8-9,13-14,16H,7,10-12H2,1-2H3

> <Parent_SMILES>
Cc1ccc(-n2nccn2)c(C(=O)N2CCN(c3nc4cc(Cl)ccc4o3)CCC2C)c1

$$$$
Molecule 60_metabolite 14
  CDK     0516241031

 54 58  0  0  0  0  0  0  0  0999 V2000
    3.1228    1.5815    0.0000 C   0  0  0  0  0  0  0  0  0  0  0  0
    1.7714    0.9305    0.0000 H   0  0  0  0  0  0  0  0  0  0  0  0
    2.2470    2.7993    0.0000 H   0  0  0  0  0  0  0  0  0  0  0  0
    4.1700    2.6555    0.0000 H   0  0  0  0  0  0  0  0  0  0  0  0
    4.3623    0.7368    0.0000 C   0  0  0  0  0  0  0  0  0  0  0  0
    4.2506   -0.7599    0.0000 C   0  0  0  0  0  0  0  0  0  0  0  0
    2.8991   -1.4107    0.0000 H   0  0  0  0  0  0  0  0  0  0  0  0
    5.4904   -1.6058    0.0000 C   0  0  0  0  0  0  0  0  0  0  0  0
    5.3780   -3.1015    0.0000 H   0  0  0  0  0  0  0  0  0  0  0  0
    6.8418   -0.9549    0.0000 C   0  0  0  0  0  0  0  0  0  0  0  0
    6.9535    0.5417    0.0000 C   0  0  0  0  0  0  0  0  0  0  0  0
    5.7137    1.3876    0.0000 C   0  0  0  0  0  0  0  0  0  0  0  0
    5.8261    2.8834    0.0000 H   0  0  0  0  0  0  0  0  0  0  0  0
    8.7374    1.4008    0.0000 C   0  0  0  0  0  0  0  0  0  0  0  0
    9.9768    0.5558    0.0000 O   0  0  0  0  0  0  0  0  0  0  0  0
    8.9213    3.8539    0.0000 N   0  0  0  0  0  0  0  0  0  0  0  0
    7.6222    4.6039    0.0000 C   0  0  0  0  0  0  0  0  0  0  0  0
    7.1801    3.1706    0.0000 H   0  0  0  0  0  0  0  0  0  0  0  0
    6.1264    4.7160    0.0000 H   0  0  0  0  0  0  0  0  0  0  0  0
    7.3987    6.0872    0.0000 C   0  0  0  0  0  0  0  0  0  0  0  0
    5.9653    6.5293    0.0000 O   0  0  0  0  0  0  0  0  0  0  0  0
    8.4189    7.1868    0.0000 N   0  0  0  0  0  0  0  0  0  0  0  0
    9.9147    7.0747    0.0000 C   0  0  0  0  0  0  0  0  0  0  0  0
    9.6912    8.5579    0.0000 H   0  0  0  0  0  0  0  0  0  0  0  0
   11.3110    7.6227    0.0000 H   0  0  0  0  0  0  0  0  0  0  0  0
   10.7597    5.8353    0.0000 C   0  0  0  0  0  0  0  0  0  0  0  0
   11.7800    6.9349    0.0000 H   0  0  0  0  0  0  0  0  0  0  0  0
   12.0587    5.0853    0.0000 H   0  0  0  0  0  0  0  0  0  0  0  0
   10.3176    4.4020    0.0000 C   0  0  0  0  0  0  0  0  0  0  0  0
   11.8134    4.2899    0.0000 H   0  0  0  0  0  0  0  0  0  0  0  0
   10.5411    2.9187    0.0000 C   0  0  0  0  0  0  0  0  0  0  0  0
    9.3684    1.9835    0.0000 H   0  0  0  0  0  0  0  0  0  0  0  0
   11.2585    1.6014    0.0000 H   0  0  0  0  0  0  0  0  0  0  0  0
   11.9630    3.3964    0.0000 H   0  0  0  0  0  0  0  0  0  0  0  0
    7.8709    8.5831    0.0000 C   0  0  0  0  0  0  0  0  0  0  0  0
    6.4230    8.9602    0.0000 N   0  0  0  0  0  0  0  0  0  0  0  0
    6.3288   10.4594    0.0000 C   0  0  0  0  0  0  0  0  0  0  0  0
    7.7251   11.0074    0.0000 C   0  0  0  0  0  0  0  0  0  0  0  0
    7.9483   12.4915    0.0000 C   0  0  0  0  0  0  0  0  0  0  0  0
    9.3446   13.0396    0.0000 H   0  0  0  0  0  0  0  0  0  0  0  0
    6.7752   13.4277    0.0000 C   0  0  0  0  0  0  0  0  0  0  0  0
    6.9990   14.9109    0.0000 H   0  0  0  0  0  0  0  0  0  0  0  0
    5.3789   12.8797    0.0000 C   0  0  0  0  0  0  0  0  0  0  0  0
    5.1557   11.3955    0.0000 C   0  0  0  0  0  0  0  0  0  0  0  0
    3.7594   10.8475    0.0000 H   0  0  0  0  0  0  0  0  0  0  0  0
    4.2060   13.8147    0.0000 Cl  0  0  0  0  0  0  0  0  0  0  0  0
    8.6758    9.8443    0.0000 O   0  0  0  0  0  0  0  0  0  0  0  0
    8.0813   -1.7997    0.0000 N   0  0  0  0  0  0  0  0  0  0  0  0
    8.1353   -3.3008    0.0000 N   0  0  0  0  0  0  0  0  0  0  0  0
    9.5677   -3.7204    0.0000 C   0  0  0  0  0  0  0  0  0  0  0  0
   10.0733   -5.1327    0.0000 H   0  0  0  0  0  0  0  0  0  0  0  0
   10.4125   -2.4809    0.0000 C   0  0  0  0  0  0  0  0  0  0  0  0
   11.9118   -2.4352    0.0000 H   0  0  0  0  0  0  0  0  0  0  0  0
    9.4982   -1.3011    0.0000 N   0  0  0  0  0  0  0  0  0  0  0  0
  1  2  1  0  0  0  0 
  1  3  1  0  0  0  0 
  1  4  1  0  0  0  0 
  1  5  1  0  0  0  0 
  5  6  2  0  0  0  0 
  6  7  1  0  0  0  0 
  6  8  1  0  0  0  0 
  8  9  1  0  0  0  0 
  8 10  2  0  0  0  0 
 10 11  1  0  0  0  0 
 11 12  2  0  0  0  0 
  5 12  1  0  0  0  0 
 12 13  1  0  0  0  0 
 11 14  1  0  0  0  0 
 14 15  2  0  0  0  0 
 14 16  1  0  0  0  0 
 16 17  1  0  0  0  0 
 17 18  1  0  0  0  0 
 17 19  1  0  0  0  0 
 17 20  1  0  0  0  0 
 20 21  2  0  0  0  0 
 20 22  1  0  0  0  0 
 22 23  1  0  0  0  0 
 23 24  1  0  0  0  0 
 23 25  1  0  0  0  0 
 23 26  1  0  0  0  0 
 26 27  1  0  0  0  0 
 26 28  1  0  0  0  0 
 26 29  1  0  0  0  0 
 16 29  1  0  0  0  0 
 29 30  1  0  0  0  0 
 29 31  1  0  0  0  0 
 31 32  1  0  0  0  0 
 31 33  1  0  0  0  0 
 31 34  1  0  0  0  0 
 22 35  1  0  0  0  0 
 35 36  2  0  0  0  0 
 36 37  1  0  0  0  0 
 37 38  2  0  0  0  0 
 38 39  1  0  0  0  0 
 39 40  1  0  0  0  0 
 39 41  2  0  0  0  0 
 41 42  1  0  0  0  0 
 41 43  1  0  0  0  0 
 43 44  2  0  0  0  0 
 37 44  1  0  0  0  0 
 44 45  1  0  0  0  0 
 43 46  1  0  0  0  0 
 38 47  1  0  0  0  0 
 35 47  1  0  0  0  0 
 10 48  1  0  0  0  0 
 48 49  1  0  0  0  0 
 49 50  2  0  0  0  0 
 50 51  1  0  0  0  0 
 50 52  1  0  0  0  0 
 52 53  1  0  0  0  0 
 52 54  2  0  0  0  0 
 48 54  1  0  0  0  0 
M  END
> <Rank>
14

> <Priority_score>
0.13920337197049526

> <Reaction_type>
oxidation_(amine_in_a_ring)

> <Parent_ID>
60

> <Parent_InChI>
InChI=1S/C23H23ClN6O2/c1-15-3-5-20(30-25-8-9-26-30)18(13-15)22(31)29-12-11-28(10-7-16(29)2)23-27-19-14-17(24)4-6-21(19)32-23/h3-6,8-9,13-14,16H,7,10-12H2,1-2H3

> <Parent_SMILES>
Cc1ccc(-n2nccn2)c(C(=O)N2CCN(c3nc4cc(Cl)ccc4o3)CCC2C)c1

$$$$
Molecule 60_metabolite 15
  CDK     0516241031

 56 59  0  0  0  0  0  0  0  0999 V2000
   14.0902    4.3136    0.0000 C   0  0  0  0  0  0  0  0  0  0  0  0
   15.5902    4.3134    0.0000 H   0  0  0  0  0  0  0  0  0  0  0  0
   14.3509    5.7908    0.0000 H   0  0  0  0  0  0  0  0  0  0  0  0
   12.6808    4.8269    0.0000 H   0  0  0  0  0  0  0  0  0  0  0  0
   13.3400    3.0147    0.0000 C   0  0  0  0  0  0  0  0  0  0  0  0
   14.0900    1.7147    0.0000 C   0  0  0  0  0  0  0  0  0  0  0  0
   15.5900    1.7147    0.0000 H   0  0  0  0  0  0  0  0  0  0  0  0
   13.3400    0.4147    0.0000 C   0  0  0  0  0  0  0  0  0  0  0  0
   14.0902   -0.8842    0.0000 H   0  0  0  0  0  0  0  0  0  0  0  0
   11.8400    0.4147    0.0000 C   0  0  0  0  0  0  0  0  0  0  0  0
   11.0900    1.7147    0.0000 C   0  0  0  0  0  0  0  0  0  0  0  0
   11.8400    3.0147    0.0000 C   0  0  0  0  0  0  0  0  0  0  0  0
   11.0898    4.3136    0.0000 H   0  0  0  0  0  0  0  0  0  0  0  0
    9.5900    1.7147    0.0000 C   0  0  0  0  0  0  0  0  0  0  0  0
    8.8400    0.4157    0.0000 O   0  0  0  0  0  0  0  0  0  0  0  0
    8.8400    3.0138    0.0000 N   0  0  0  0  0  0  0  0  0  0  0  0
    9.5900    4.3128    0.0000 C   0  0  0  0  0  0  0  0  0  0  0  0
   10.7391    5.2770    0.0000 H   0  0  0  0  0  0  0  0  0  0  0  0
   10.7391    3.3486    0.0000 H   0  0  0  0  0  0  0  0  0  0  0  0
    8.8400    5.6118    0.0000 C   0  0  0  0  0  0  0  0  0  0  0  0
    9.5900    6.9109    0.0000 H   0  0  0  0  0  0  0  0  0  0  0  0
    7.3400    5.6118    0.0000 O   0  0  0  0  0  0  0  0  0  0  0  0
    7.3400    3.0138    0.0000 C   0  0  0  0  0  0  0  0  0  0  0  0
    7.6005    4.4910    0.0000 H   0  0  0  0  0  0  0  0  0  0  0  0
    5.9305    3.5268    0.0000 C   0  0  0  0  0  0  0  0  0  0  0  0
    5.6700    5.0040    0.0000 H   0  0  0  0  0  0  0  0  0  0  0  0
    4.4305    3.5268    0.0000 H   0  0  0  0  0  0  0  0  0  0  0  0
    5.6700    2.0496    0.0000 H   0  0  0  0  0  0  0  0  0  0  0  0
    6.3500    1.2990    0.0000 C   0  0  0  0  0  0  0  0  0  0  0  0
    6.0895   -0.1782    0.0000 H   0  0  0  0  0  0  0  0  0  0  0  0
    7.7595    0.7860    0.0000 H   0  0  0  0  0  0  0  0  0  0  0  0
    4.8500    1.2990    0.0000 C   0  0  0  0  0  0  0  0  0  0  0  0
    5.1105    2.7762    0.0000 H   0  0  0  0  0  0  0  0  0  0  0  0
    3.4405    1.8121    0.0000 H   0  0  0  0  0  0  0  0  0  0  0  0
    4.1000   -0.0000    0.0000 N   0  0  0  0  0  0  0  0  0  0  0  0
    4.8500   -1.2990    0.0000 H   0  0  0  0  0  0  0  0  0  0  0  0
    2.6000    0.0000    0.0000 C   0  0  0  0  0  0  0  0  0  0  0  0
    1.7200    1.2100    0.0000 N   0  0  0  0  0  0  0  0  0  0  0  0
    0.2900    0.7500    0.0000 C   0  0  0  0  0  0  0  0  0  0  0  0
    0.2900   -0.7500    0.0000 C   0  0  0  0  0  0  0  0  0  0  0  0
   -1.0100   -1.5000    0.0000 C   0  0  0  0  0  0  0  0  0  0  0  0
   -1.0100   -3.0000    0.0000 H   0  0  0  0  0  0  0  0  0  0  0  0
   -2.3100   -0.7500    0.0000 C   0  0  0  0  0  0  0  0  0  0  0  0
   -3.6089   -1.5002    0.0000 H   0  0  0  0  0  0  0  0  0  0  0  0
   -2.3100    0.7500    0.0000 C   0  0  0  0  0  0  0  0  0  0  0  0
   -1.0100    1.5000    0.0000 C   0  0  0  0  0  0  0  0  0  0  0  0
   -1.0100    3.0000    0.0000 H   0  0  0  0  0  0  0  0  0  0  0  0
   -3.6089    1.5002    0.0000 Cl  0  0  0  0  0  0  0  0  0  0  0  0
    1.7200   -1.2100    0.0000 O   0  0  0  0  0  0  0  0  0  0  0  0
   11.0898   -0.8842    0.0000 N   0  0  0  0  0  0  0  0  0  0  0  0
   11.6925   -2.2600    0.0000 N   0  0  0  0  0  0  0  0  0  0  0  0
   10.5839   -3.2596    0.0000 C   0  0  0  0  0  0  0  0  0  0  0  0
   10.7411   -4.7514    0.0000 H   0  0  0  0  0  0  0  0  0  0  0  0
    9.2850   -2.5094    0.0000 C   0  0  0  0  0  0  0  0  0  0  0  0
    7.9143   -3.1187    0.0000 H   0  0  0  0  0  0  0  0  0  0  0  0
    9.5969   -1.0497    0.0000 N   0  0  0  0  0  0  0  0  0  0  0  0
  1  2  1  0  0  0  0 
  1  3  1  0  0  0  0 
  1  4  1  0  0  0  0 
  1  5  1  0  0  0  0 
  5  6  2  0  0  0  0 
  6  7  1  0  0  0  0 
  6  8  1  0  0  0  0 
  8  9  1  0  0  0  0 
  8 10  2  0  0  0  0 
 10 11  1  0  0  0  0 
 11 12  2  0  0  0  0 
  5 12  1  0  0  0  0 
 12 13  1  0  0  0  0 
 11 14  1  0  0  0  0 
 14 15  2  0  0  0  0 
 14 16  1  0  0  0  0 
 16 17  1  0  0  0  0 
 17 18  1  0  0  0  0 
 17 19  1  0  0  0  0 
 17 20  1  0  0  0  0 
 20 21  1  0  0  0  0 
 20 22  2  0  0  0  0 
 16 23  1  0  0  0  0 
 23 24  1  0  0  0  0 
 23 25  1  0  0  0  0 
 25 26  1  0  0  0  0 
 25 27  1  0  0  0  0 
 25 28  1  0  0  0  0 
 23 29  1  0  0  0  0 
 29 30  1  0  0  0  0 
 29 31  1  0  0  0  0 
 29 32  1  0  0  0  0 
 32 33  1  0  0  0  0 
 32 34  1  0  0  0  0 
 32 35  1  0  0  0  0 
 35 36  1  0  0  0  0 
 35 37  1  0  0  0  0 
 37 38  2  0  0  0  0 
 38 39  1  0  0  0  0 
 39 40  2  0  0  0  0 
 40 41  1  0  0  0  0 
 41 42  1  0  0  0  0 
 41 43  2  0  0  0  0 
 43 44  1  0  0  0  0 
 43 45  1  0  0  0  0 
 45 46  2  0  0  0  0 
 39 46  1  0  0  0  0 
 46 47  1  0  0  0  0 
 45 48  1  0  0  0  0 
 40 49  1  0  0  0  0 
 37 49  1  0  0  0  0 
 10 50  1  0  0  0  0 
 50 51  1  0  0  0  0 
 51 52  2  0  0  0  0 
 52 53  1  0  0  0  0 
 52 54  1  0  0  0  0 
 54 55  1  0  0  0  0 
 54 56  2  0  0  0  0 
 50 56  1  0  0  0  0 
M  END
> <Rank>
14

> <Priority_score>
0.13920337197049526

> <Reaction_type>
N-dealkylation

> <Parent_ID>
60

> <Parent_InChI>
InChI=1S/C23H23ClN6O2/c1-15-3-5-20(30-25-8-9-26-30)18(13-15)22(31)29-12-11-28(10-7-16(29)2)23-27-19-14-17(24)4-6-21(19)32-23/h3-6,8-9,13-14,16H,7,10-12H2,1-2H3

> <Parent_SMILES>
Cc1ccc(-n2nccn2)c(C(=O)N2CCN(c3nc4cc(Cl)ccc4o3)CCC2C)c1

$$$$
Molecule 60_metabolite 16
  CDK     0516241031

 56 60  0  0  0  0  0  0  0  0999 V2000
    3.1228    1.5815    0.0000 C   0  0  0  0  0  0  0  0  0  0  0  0
    1.7714    0.9305    0.0000 H   0  0  0  0  0  0  0  0  0  0  0  0
    2.2470    2.7993    0.0000 H   0  0  0  0  0  0  0  0  0  0  0  0
    4.1700    2.6555    0.0000 H   0  0  0  0  0  0  0  0  0  0  0  0
    4.3623    0.7368    0.0000 C   0  0  0  0  0  0  0  0  0  0  0  0
    4.2506   -0.7599    0.0000 C   0  0  0  0  0  0  0  0  0  0  0  0
    2.8991   -1.4107    0.0000 H   0  0  0  0  0  0  0  0  0  0  0  0
    5.4904   -1.6058    0.0000 C   0  0  0  0  0  0  0  0  0  0  0  0
    5.3780   -3.1015    0.0000 H   0  0  0  0  0  0  0  0  0  0  0  0
    6.8418   -0.9549    0.0000 C   0  0  0  0  0  0  0  0  0  0  0  0
    6.9535    0.5417    0.0000 C   0  0  0  0  0  0  0  0  0  0  0  0
    5.7137    1.3876    0.0000 C   0  0  0  0  0  0  0  0  0  0  0  0
    5.8261    2.8834    0.0000 H   0  0  0  0  0  0  0  0  0  0  0  0
    8.7374    1.4008    0.0000 C   0  0  0  0  0  0  0  0  0  0  0  0
    9.9768    0.5558    0.0000 O   0  0  0  0  0  0  0  0  0  0  0  0
    8.9213    3.8539    0.0000 N   0  0  0  0  0  0  0  0  0  0  0  0
    7.6222    4.6039    0.0000 C   0  0  0  0  0  0  0  0  0  0  0  0
    7.1801    3.1706    0.0000 H   0  0  0  0  0  0  0  0  0  0  0  0
    6.1264    4.7160    0.0000 H   0  0  0  0  0  0  0  0  0  0  0  0
    7.3987    6.0872    0.0000 C   0  0  0  0  0  0  0  0  0  0  0  0
    6.0023    5.5392    0.0000 H   0  0  0  0  0  0  0  0  0  0  0  0
    8.4189    7.1868    0.0000 N   0  0  0  0  0  0  0  0  0  0  0  0
    9.9147    7.0747    0.0000 C   0  0  0  0  0  0  0  0  0  0  0  0
    9.6912    8.5579    0.0000 H   0  0  0  0  0  0  0  0  0  0  0  0
   11.3110    7.6227    0.0000 H   0  0  0  0  0  0  0  0  0  0  0  0
   10.7597    5.8353    0.0000 C   0  0  0  0  0  0  0  0  0  0  0  0
   11.7800    6.9349    0.0000 H   0  0  0  0  0  0  0  0  0  0  0  0
   12.0587    5.0853    0.0000 H   0  0  0  0  0  0  0  0  0  0  0  0
   10.3176    4.4020    0.0000 C   0  0  0  0  0  0  0  0  0  0  0  0
   11.8134    4.2899    0.0000 H   0  0  0  0  0  0  0  0  0  0  0  0
   10.5411    2.9187    0.0000 C   0  0  0  0  0  0  0  0  0  0  0  0
    9.3684    1.9835    0.0000 H   0  0  0  0  0  0  0  0  0  0  0  0
   11.2585    1.6014    0.0000 H   0  0  0  0  0  0  0  0  0  0  0  0
   11.9630    3.3964    0.0000 H   0  0  0  0  0  0  0  0  0  0  0  0
    7.8709    8.5831    0.0000 C   0  0  0  0  0  0  0  0  0  0  0  0
    6.4230    8.9602    0.0000 N   0  0  0  0  0  0  0  0  0  0  0  0
    6.3288   10.4594    0.0000 C   0  0  0  0  0  0  0  0  0  0  0  0
    7.7251   11.0074    0.0000 C   0  0  0  0  0  0  0  0  0  0  0  0
    7.9483   12.4915    0.0000 C   0  0  0  0  0  0  0  0  0  0  0  0
    9.3446   13.0396    0.0000 H   0  0  0  0  0  0  0  0  0  0  0  0
    6.7752   13.4277    0.0000 C   0  0  0  0  0  0  0  0  0  0  0  0
    6.9990   14.9109    0.0000 H   0  0  0  0  0  0  0  0  0  0  0  0
    5.3789   12.8797    0.0000 C   0  0  0  0  0  0  0  0  0  0  0  0
    5.1557   11.3955    0.0000 C   0  0  0  0  0  0  0  0  0  0  0  0
    3.7594   10.8475    0.0000 H   0  0  0  0  0  0  0  0  0  0  0  0
    4.2060   13.8147    0.0000 Cl  0  0  0  0  0  0  0  0  0  0  0  0
    8.6758    9.8443    0.0000 O   0  0  0  0  0  0  0  0  0  0  0  0
    6.5537    7.3266    0.0000 O   0  0  0  0  0  0  0  0  0  0  0  0
    5.0579    7.2145    0.0000 H   0  0  0  0  0  0  0  0  0  0  0  0
    8.0813   -1.7997    0.0000 N   0  0  0  0  0  0  0  0  0  0  0  0
    8.1353   -3.3008    0.0000 N   0  0  0  0  0  0  0  0  0  0  0  0
    9.5677   -3.7204    0.0000 C   0  0  0  0  0  0  0  0  0  0  0  0
   10.0733   -5.1327    0.0000 H   0  0  0  0  0  0  0  0  0  0  0  0
   10.4125   -2.4809    0.0000 C   0  0  0  0  0  0  0  0  0  0  0  0
   11.9118   -2.4352    0.0000 H   0  0  0  0  0  0  0  0  0  0  0  0
    9.4982   -1.3011    0.0000 N   0  0  0  0  0  0  0  0  0  0  0  0
  1  2  1  0  0  0  0 
  1  3  1  0  0  0  0 
  1  4  1  0  0  0  0 
  1  5  1  0  0  0  0 
  5  6  2  0  0  0  0 
  6  7  1  0  0  0  0 
  6  8  1  0  0  0  0 
  8  9  1  0  0  0  0 
  8 10  2  0  0  0  0 
 10 11  1  0  0  0  0 
 11 12  2  0  0  0  0 
  5 12  1  0  0  0  0 
 12 13  1  0  0  0  0 
 11 14  1  0  0  0  0 
 14 15  2  0  0  0  0 
 14 16  1  0  0  0  0 
 16 17  1  0  0  0  0 
 17 18  1  0  0  0  0 
 17 19  1  0  0  0  0 
 17 20  1  0  0  0  0 
 20 21  1  0  0  0  0 
 20 22  1  0  0  0  0 
 22 23  1  0  0  0  0 
 23 24  1  0  0  0  0 
 23 25  1  0  0  0  0 
 23 26  1  0  0  0  0 
 26 27  1  0  0  0  0 
 26 28  1  0  0  0  0 
 26 29  1  0  0  0  0 
 16 29  1  0  0  0  0 
 29 30  1  0  0  0  0 
 29 31  1  0  0  0  0 
 31 32  1  0  0  0  0 
 31 33  1  0  0  0  0 
 31 34  1  0  0  0  0 
 22 35  1  0  0  0  0 
 35 36  2  0  0  0  0 
 36 37  1  0  0  0  0 
 37 38  2  0  0  0  0 
 38 39  1  0  0  0  0 
 39 40  1  0  0  0  0 
 39 41  2  0  0  0  0 
 41 42  1  0  0  0  0 
 41 43  1  0  0  0  0 
 43 44  2  0  0  0  0 
 37 44  1  0  0  0  0 
 44 45  1  0  0  0  0 
 43 46  1  0  0  0  0 
 38 47  1  0  0  0  0 
 35 47  1  0  0  0  0 
 20 48  1  0  0  0  0 
 48 49  1  0  0  0  0 
 10 50  1  0  0  0  0 
 50 51  1  0  0  0  0 
 51 52  2  0  0  0  0 
 52 53  1  0  0  0  0 
 52 54  1  0  0  0  0 
 54 55  1  0  0  0  0 
 54 56  2  0  0  0  0 
 50 56  1  0  0  0  0 
M  END
> <Rank>
14

> <Priority_score>
0.13920337197049526

> <Reaction_type>
aliphatic_hydroxylation_(sec_carbon_next_to_SP2,in_a_ring)

> <Parent_ID>
60

> <Parent_InChI>
InChI=1S/C23H23ClN6O2/c1-15-3-5-20(30-25-8-9-26-30)18(13-15)22(31)29-12-11-28(10-7-16(29)2)23-27-19-14-17(24)4-6-21(19)32-23/h3-6,8-9,13-14,16H,7,10-12H2,1-2H3

> <Parent_SMILES>
Cc1ccc(-n2nccn2)c(C(=O)N2CCN(c3nc4cc(Cl)ccc4o3)CCC2C)c1

$$$$
Molecule 60_metabolite 17
  CDK     0516241031

 53 57  0  0  0  0  0  0  0  0999 V2000
    3.2978    2.9211    0.0000 C   0  0  0  0  0  0  0  0  0  0  0  0
    1.9464    2.2701    0.0000 H   0  0  0  0  0  0  0  0  0  0  0  0
    2.4220    4.1389    0.0000 H   0  0  0  0  0  0  0  0  0  0  0  0
    4.3450    3.9951    0.0000 H   0  0  0  0  0  0  0  0  0  0  0  0
    4.5373    2.0763    0.0000 C   0  0  0  0  0  0  0  0  0  0  0  0
    4.4256    0.5796    0.0000 C   0  0  0  0  0  0  0  0  0  0  0  0
    3.0742   -0.0712    0.0000 H   0  0  0  0  0  0  0  0  0  0  0  0
    5.6654   -0.2662    0.0000 C   0  0  0  0  0  0  0  0  0  0  0  0
    5.5530   -1.7620    0.0000 H   0  0  0  0  0  0  0  0  0  0  0  0
    7.0168    0.3846    0.0000 C   0  0  0  0  0  0  0  0  0  0  0  0
    7.1285    1.8813    0.0000 C   0  0  0  0  0  0  0  0  0  0  0  0
    5.8887    2.7271    0.0000 C   0  0  0  0  0  0  0  0  0  0  0  0
    6.0011    4.2229    0.0000 H   0  0  0  0  0  0  0  0  0  0  0  0
    9.3449    2.9487    0.0000 C   0  0  0  0  0  0  0  0  0  0  0  0
   10.5843    2.1037    0.0000 O   0  0  0  0  0  0  0  0  0  0  0  0
    9.5287    5.4018    0.0000 N   0  0  0  0  0  0  0  0  0  0  0  0
    8.2297    6.1518    0.0000 C   0  0  0  0  0  0  0  0  0  0  0  0
    6.9903    5.3068    0.0000 H   0  0  0  0  0  0  0  0  0  0  0  0
    8.0061    7.6350    0.0000 C   0  0  0  0  0  0  0  0  0  0  0  0
    6.5728    8.0772    0.0000 H   0  0  0  0  0  0  0  0  0  0  0  0
    9.0264    8.7346    0.0000 N   0  0  0  0  0  0  0  0  0  0  0  0
   10.5222    8.6225    0.0000 C   0  0  0  0  0  0  0  0  0  0  0  0
   10.2986   10.1058    0.0000 H   0  0  0  0  0  0  0  0  0  0  0  0
   11.9185    9.1705    0.0000 H   0  0  0  0  0  0  0  0  0  0  0  0
   11.3672    7.3831    0.0000 C   0  0  0  0  0  0  0  0  0  0  0  0
   12.3874    8.4827    0.0000 H   0  0  0  0  0  0  0  0  0  0  0  0
   12.6662    6.6331    0.0000 H   0  0  0  0  0  0  0  0  0  0  0  0
   10.9250    5.9498    0.0000 C   0  0  0  0  0  0  0  0  0  0  0  0
   12.4208    5.8377    0.0000 H   0  0  0  0  0  0  0  0  0  0  0  0
   11.2917    3.5173    0.0000 C   0  0  0  0  0  0  0  0  0  0  0  0
    9.3684    1.9835    0.0000 H   0  0  0  0  0  0  0  0  0  0  0  0
   12.0091    2.1999    0.0000 H   0  0  0  0  0  0  0  0  0  0  0  0
   12.7136    3.9950    0.0000 H   0  0  0  0  0  0  0  0  0  0  0  0
    8.4784   10.1309    0.0000 C   0  0  0  0  0  0  0  0  0  0  0  0
    7.0305   10.5080    0.0000 N   0  0  0  0  0  0  0  0  0  0  0  0
    6.9363   12.0072    0.0000 C   0  0  0  0  0  0  0  0  0  0  0  0
    8.3326   12.5552    0.0000 C   0  0  0  0  0  0  0  0  0  0  0  0
    8.5558   14.0394    0.0000 C   0  0  0  0  0  0  0  0  0  0  0  0
    9.9521   14.5874    0.0000 H   0  0  0  0  0  0  0  0  0  0  0  0
    7.3827   14.9755    0.0000 C   0  0  0  0  0  0  0  0  0  0  0  0
    7.6065   16.4587    0.0000 H   0  0  0  0  0  0  0  0  0  0  0  0
    5.9864   14.4275    0.0000 C   0  0  0  0  0  0  0  0  0  0  0  0
    5.7632   12.9434    0.0000 C   0  0  0  0  0  0  0  0  0  0  0  0
    4.3669   12.3953    0.0000 H   0  0  0  0  0  0  0  0  0  0  0  0
    4.8135   15.3625    0.0000 Cl  0  0  0  0  0  0  0  0  0  0  0  0
    9.2832   11.3921    0.0000 O   0  0  0  0  0  0  0  0  0  0  0  0
    8.2563   -0.4602    0.0000 N   0  0  0  0  0  0  0  0  0  0  0  0
    8.3103   -1.9612    0.0000 N   0  0  0  0  0  0  0  0  0  0  0  0
    9.7428   -2.3809    0.0000 C   0  0  0  0  0  0  0  0  0  0  0  0
   10.2484   -3.7931    0.0000 H   0  0  0  0  0  0  0  0  0  0  0  0
   10.5875   -1.1414    0.0000 C   0  0  0  0  0  0  0  0  0  0  0  0
   12.0868   -1.0956    0.0000 H   0  0  0  0  0  0  0  0  0  0  0  0
    9.6732    0.0385    0.0000 N   0  0  0  0  0  0  0  0  0  0  0  0
  1  2  1  0  0  0  0 
  1  3  1  0  0  0  0 
  1  4  1  0  0  0  0 
  1  5  1  0  0  0  0 
  5  6  2  0  0  0  0 
  6  7  1  0  0  0  0 
  6  8  1  0  0  0  0 
  8  9  1  0  0  0  0 
  8 10  2  0  0  0  0 
 10 11  1  0  0  0  0 
 11 12  2  0  0  0  0 
  5 12  1  0  0  0  0 
 12 13  1  0  0  0  0 
 11 14  1  0  0  0  0 
 14 15  2  0  0  0  0 
 14 16  1  0  0  0  0 
 16 17  1  0  0  0  0 
 17 18  1  0  0  0  0 
 17 19  2  0  0  0  0 
 19 20  1  0  0  0  0 
 19 21  1  0  0  0  0 
 21 22  1  0  0  0  0 
 22 23  1  0  0  0  0 
 22 24  1  0  0  0  0 
 22 25  1  0  0  0  0 
 25 26  1  0  0  0  0 
 25 27  1  0  0  0  0 
 25 28  1  0  0  0  0 
 16 28  1  0  0  0  0 
 28 29  1  0  0  0  0 
 28 30  1  0  0  0  0 
 30 31  1  0  0  0  0 
 30 32  1  0  0  0  0 
 30 33  1  0  0  0  0 
 21 34  1  0  0  0  0 
 34 35  2  0  0  0  0 
 35 36  1  0  0  0  0 
 36 37  2  0  0  0  0 
 37 38  1  0  0  0  0 
 38 39  1  0  0  0  0 
 38 40  2  0  0  0  0 
 40 41  1  0  0  0  0 
 40 42  1  0  0  0  0 
 42 43  2  0  0  0  0 
 36 43  1  0  0  0  0 
 43 44  1  0  0  0  0 
 42 45  1  0  0  0  0 
 37 46  1  0  0  0  0 
 34 46  1  0  0  0  0 
 10 47  1  0  0  0  0 
 47 48  1  0  0  0  0 
 48 49  2  0  0  0  0 
 49 50  1  0  0  0  0 
 49 51  1  0  0  0  0 
 51 52  1  0  0  0  0 
 51 53  2  0  0  0  0 
 47 53  1  0  0  0  0 
M  END
> <Rank>
14

> <Priority_score>
0.13920337197049526

> <Reaction_type>
dehydrogenation_(alpha,beta_to_SP2_both_sides)

> <Parent_ID>
60

> <Parent_InChI>
InChI=1S/C23H23ClN6O2/c1-15-3-5-20(30-25-8-9-26-30)18(13-15)22(31)29-12-11-28(10-7-16(29)2)23-27-19-14-17(24)4-6-21(19)32-23/h3-6,8-9,13-14,16H,7,10-12H2,1-2H3

> <Parent_SMILES>
Cc1ccc(-n2nccn2)c(C(=O)N2CCN(c3nc4cc(Cl)ccc4o3)CCC2C)c1

$$$$
Molecule 60_metabolite 18
  CDK     0516241031

 56 60  0  0  0  0  0  0  0  0999 V2000
   10.7834    2.8491    0.0000 C   0  0  0  0  0  0  0  0  0  0  0  0
    9.4320    3.5001    0.0000 H   0  0  0  0  0  0  0  0  0  0  0  0
   11.1899    4.2930    0.0000 H   0  0  0  0  0  0  0  0  0  0  0  0
   12.2759    2.6995    0.0000 H   0  0  0  0  0  0  0  0  0  0  0  0
   10.8952    1.3533    0.0000 C   0  0  0  0  0  0  0  0  0  0  0  0
   12.2472    0.7016    0.0000 C   0  0  0  0  0  0  0  0  0  0  0  0
   13.4866    1.5466    0.0000 H   0  0  0  0  0  0  0  0  0  0  0  0
   12.3599   -0.7950    0.0000 C   0  0  0  0  0  0  0  0  0  0  0  0
   13.7114   -1.4456    0.0000 H   0  0  0  0  0  0  0  0  0  0  0  0
   11.1205   -1.6399    0.0000 C   0  0  0  0  0  0  0  0  0  0  0  0
    9.7685   -0.9883    0.0000 C   0  0  0  0  0  0  0  0  0  0  0  0
    9.6559    0.5083    0.0000 C   0  0  0  0  0  0  0  0  0  0  0  0
    8.3043    1.1589    0.0000 H   0  0  0  0  0  0  0  0  0  0  0  0
    8.5292   -1.8333    0.0000 C   0  0  0  0  0  0  0  0  0  0  0  0
    8.6412   -3.3291    0.0000 O   0  0  0  0  0  0  0  0  0  0  0  0
    6.7452   -0.9742    0.0000 N   0  0  0  0  0  0  0  0  0  0  0  0
    6.7452    0.5258    0.0000 C   0  0  0  0  0  0  0  0  0  0  0  0
    8.2076    0.1920    0.0000 H   0  0  0  0  0  0  0  0  0  0  0  0
    7.6043    2.3097    0.0000 C   0  0  0  0  0  0  0  0  0  0  0  0
    9.1001    2.4218    0.0000 H   0  0  0  0  0  0  0  0  0  0  0  0
    7.7537    3.8023    0.0000 H   0  0  0  0  0  0  0  0  0  0  0  0
    6.5570    3.3835    0.0000 H   0  0  0  0  0  0  0  0  0  0  0  0
    5.5725    1.4610    0.0000 C   0  0  0  0  0  0  0  0  0  0  0  0
    6.7452    2.3963    0.0000 H   0  0  0  0  0  0  0  0  0  0  0  0
    4.9217    2.8125    0.0000 H   0  0  0  0  0  0  0  0  0  0  0  0
    4.1101    1.1273    0.0000 C   0  0  0  0  0  0  0  0  0  0  0  0
    4.1101    2.6273    0.0000 H   0  0  0  0  0  0  0  0  0  0  0  0
    2.6477    1.4610    0.0000 H   0  0  0  0  0  0  0  0  0  0  0  0
    3.4593   -0.2242    0.0000 N   0  0  0  0  0  0  0  0  0  0  0  0
    4.1101   -1.5757    0.0000 C   0  0  0  0  0  0  0  0  0  0  0  0
    2.6477   -1.9094    0.0000 H   0  0  0  0  0  0  0  0  0  0  0  0
    4.1101   -3.0757    0.0000 H   0  0  0  0  0  0  0  0  0  0  0  0
    5.5725   -1.9094    0.0000 C   0  0  0  0  0  0  0  0  0  0  0  0
    4.9217   -3.2609    0.0000 H   0  0  0  0  0  0  0  0  0  0  0  0
    6.7452   -2.8447    0.0000 O   0  0  0  0  0  0  0  0  0  0  0  0
    6.5217   -4.3279    0.0000 H   0  0  0  0  0  0  0  0  0  0  0  0
    1.9593   -0.2242    0.0000 C   0  0  0  0  0  0  0  0  0  0  0  0
    1.0793    0.9858    0.0000 N   0  0  0  0  0  0  0  0  0  0  0  0
   -0.3507    0.5258    0.0000 C   0  0  0  0  0  0  0  0  0  0  0  0
   -0.3507   -0.9742    0.0000 C   0  0  0  0  0  0  0  0  0  0  0  0
   -1.6507   -1.7242    0.0000 C   0  0  0  0  0  0  0  0  0  0  0  0
   -1.6507   -3.2242    0.0000 H   0  0  0  0  0  0  0  0  0  0  0  0
   -2.9507   -0.9742    0.0000 C   0  0  0  0  0  0  0  0  0  0  0  0
   -4.2496   -1.7244    0.0000 H   0  0  0  0  0  0  0  0  0  0  0  0
   -2.9507    0.5258    0.0000 C   0  0  0  0  0  0  0  0  0  0  0  0
   -1.6507    1.2758    0.0000 C   0  0  0  0  0  0  0  0  0  0  0  0
   -1.6507    2.7758    0.0000 H   0  0  0  0  0  0  0  0  0  0  0  0
   -4.2496    1.2760    0.0000 Cl  0  0  0  0  0  0  0  0  0  0  0  0
    1.0793   -1.4342    0.0000 O   0  0  0  0  0  0  0  0  0  0  0  0
   11.2324   -3.1358    0.0000 N   0  0  0  0  0  0  0  0  0  0  0  0
   12.5054   -3.9330    0.0000 N   0  0  0  0  0  0  0  0  0  0  0  0
   12.1525   -5.3834    0.0000 C   0  0  0  0  0  0  0  0  0  0  0  0
   13.1228   -6.5274    0.0000 H   0  0  0  0  0  0  0  0  0  0  0  0
   10.6567   -5.4953    0.0000 C   0  0  0  0  0  0  0  0  0  0  0  0
    9.8674   -6.7708    0.0000 H   0  0  0  0  0  0  0  0  0  0  0  0
   10.0921   -4.1135    0.0000 N   0  0  0  0  0  0  0  0  0  0  0  0
  1  2  1  0  0  0  0 
  1  3  1  0  0  0  0 
  1  4  1  0  0  0  0 
  1  5  1  0  0  0  0 
  5  6  2  0  0  0  0 
  6  7  1  0  0  0  0 
  6  8  1  0  0  0  0 
  8  9  1  0  0  0  0 
  8 10  2  0  0  0  0 
 10 11  1  0  0  0  0 
 11 12  2  0  0  0  0 
  5 12  1  0  0  0  0 
 12 13  1  0  0  0  0 
 11 14  1  0  0  0  0 
 14 15  2  0  0  0  0 
 14 16  1  0  0  0  0 
 16 17  1  0  0  0  0 
 17 18  1  0  0  0  0 
 17 19  1  0  0  0  0 
 19 20  1  0  0  0  0 
 19 21  1  0  0  0  0 
 19 22  1  0  0  0  0 
 17 23  1  0  0  0  0 
 23 24  1  0  0  0  0 
 23 25  1  0  0  0  0 
 23 26  1  0  0  0  0 
 26 27  1  0  0  0  0 
 26 28  1  0  0  0  0 
 26 29  1  0  0  0  0 
 29 30  1  0  0  0  0 
 30 31  1  0  0  0  0 
 30 32  1  0  0  0  0 
 30 33  1  0  0  0  0 
 16 33  1  0  0  0  0 
 33 34  1  0  0  0  0 
 33 35  1  0  0  0  0 
 35 36  1  0  0  0  0 
 29 37  1  0  0  0  0 
 37 38  2  0  0  0  0 
 38 39  1  0  0  0  0 
 39 40  2  0  0  0  0 
 40 41  1  0  0  0  0 
 41 42  1  0  0  0  0 
 41 43  2  0  0  0  0 
 43 44  1  0  0  0  0 
 43 45  1  0  0  0  0 
 45 46  2  0  0  0  0 
 39 46  1  0  0  0  0 
 46 47  1  0  0  0  0 
 45 48  1  0  0  0  0 
 40 49  1  0  0  0  0 
 37 49  1  0  0  0  0 
 10 50  1  0  0  0  0 
 50 51  1  0  0  0  0 
 51 52  2  0  0  0  0 
 52 53  1  0  0  0  0 
 52 54  1  0  0  0  0 
 54 55  1  0  0  0  0 
 54 56  2  0  0  0  0 
 50 56  1  0  0  0  0 
M  END
> <Rank>
14

> <Priority_score>
0.13920337197049526

> <Reaction_type>
aliphatic_hydroxylation_(sec_carbon_next_to_SP2,in_a_ring)

> <Parent_ID>
60

> <Parent_InChI>
InChI=1S/C23H23ClN6O2/c1-15-3-5-20(30-25-8-9-26-30)18(13-15)22(31)29-12-11-28(10-7-16(29)2)23-27-19-14-17(24)4-6-21(19)32-23/h3-6,8-9,13-14,16H,7,10-12H2,1-2H3

> <Parent_SMILES>
Cc1ccc(-n2nccn2)c(C(=O)N2CCN(c3nc4cc(Cl)ccc4o3)CCC2C)c1

$$$$
Molecule 60_metabolite 19
  CDK     0516241031

 54 58  0  0  0  0  0  0  0  0999 V2000
   10.7834    2.8491    0.0000 C   0  0  0  0  0  0  0  0  0  0  0  0
    9.4320    3.5001    0.0000 H   0  0  0  0  0  0  0  0  0  0  0  0
   11.1899    4.2930    0.0000 H   0  0  0  0  0  0  0  0  0  0  0  0
   12.2759    2.6995    0.0000 H   0  0  0  0  0  0  0  0  0  0  0  0
   10.8952    1.3533    0.0000 C   0  0  0  0  0  0  0  0  0  0  0  0
   12.2472    0.7016    0.0000 C   0  0  0  0  0  0  0  0  0  0  0  0
   13.4866    1.5466    0.0000 H   0  0  0  0  0  0  0  0  0  0  0  0
   12.3599   -0.7950    0.0000 C   0  0  0  0  0  0  0  0  0  0  0  0
   13.7114   -1.4456    0.0000 H   0  0  0  0  0  0  0  0  0  0  0  0
   11.1205   -1.6399    0.0000 C   0  0  0  0  0  0  0  0  0  0  0  0
    9.7685   -0.9883    0.0000 C   0  0  0  0  0  0  0  0  0  0  0  0
    9.6559    0.5083    0.0000 C   0  0  0  0  0  0  0  0  0  0  0  0
    8.3043    1.1589    0.0000 H   0  0  0  0  0  0  0  0  0  0  0  0
    8.5292   -1.8333    0.0000 C   0  0  0  0  0  0  0  0  0  0  0  0
    8.6412   -3.3291    0.0000 O   0  0  0  0  0  0  0  0  0  0  0  0
    6.7452   -0.9742    0.0000 N   0  0  0  0  0  0  0  0  0  0  0  0
    6.7452    0.5258    0.0000 C   0  0  0  0  0  0  0  0  0  0  0  0
    8.2076    0.1920    0.0000 H   0  0  0  0  0  0  0  0  0  0  0  0
    7.6043    2.3097    0.0000 C   0  0  0  0  0  0  0  0  0  0  0  0
    9.1001    2.4218    0.0000 H   0  0  0  0  0  0  0  0  0  0  0  0
    7.7537    3.8023    0.0000 H   0  0  0  0  0  0  0  0  0  0  0  0
    6.3864    3.1853    0.0000 H   0  0  0  0  0  0  0  0  0  0  0  0
    5.5725    1.4610    0.0000 C   0  0  0  0  0  0  0  0  0  0  0  0
    6.7452    2.3963    0.0000 H   0  0  0  0  0  0  0  0  0  0  0  0
    4.9217    2.8125    0.0000 H   0  0  0  0  0  0  0  0  0  0  0  0
    4.1101    1.1273    0.0000 C   0  0  0  0  0  0  0  0  0  0  0  0
    4.1101    2.6273    0.0000 H   0  0  0  0  0  0  0  0  0  0  0  0
    2.6477    1.4610    0.0000 H   0  0  0  0  0  0  0  0  0  0  0  0
    3.4593   -0.2242    0.0000 N   0  0  0  0  0  0  0  0  0  0  0  0
    4.1101   -1.5757    0.0000 C   0  0  0  0  0  0  0  0  0  0  0  0
    2.6477   -1.9094    0.0000 H   0  0  0  0  0  0  0  0  0  0  0  0
    4.1101   -3.0757    0.0000 H   0  0  0  0  0  0  0  0  0  0  0  0
    5.5725   -1.9094    0.0000 C   0  0  0  0  0  0  0  0  0  0  0  0
    5.9063   -3.3718    0.0000 O   0  0  0  0  0  0  0  0  0  0  0  0
    1.9593   -0.2242    0.0000 C   0  0  0  0  0  0  0  0  0  0  0  0
    1.0793    0.9858    0.0000 N   0  0  0  0  0  0  0  0  0  0  0  0
   -0.3507    0.5258    0.0000 C   0  0  0  0  0  0  0  0  0  0  0  0
   -0.3507   -0.9742    0.0000 C   0  0  0  0  0  0  0  0  0  0  0  0
   -1.6507   -1.7242    0.0000 C   0  0  0  0  0  0  0  0  0  0  0  0
   -1.6507   -3.2242    0.0000 H   0  0  0  0  0  0  0  0  0  0  0  0
   -2.9507   -0.9742    0.0000 C   0  0  0  0  0  0  0  0  0  0  0  0
   -4.2496   -1.7244    0.0000 H   0  0  0  0  0  0  0  0  0  0  0  0
   -2.9507    0.5258    0.0000 C   0  0  0  0  0  0  0  0  0  0  0  0
   -1.6507    1.2758    0.0000 C   0  0  0  0  0  0  0  0  0  0  0  0
   -1.6507    2.7758    0.0000 H   0  0  0  0  0  0  0  0  0  0  0  0
   -4.2496    1.2760    0.0000 Cl  0  0  0  0  0  0  0  0  0  0  0  0
    1.0793   -1.4342    0.0000 O   0  0  0  0  0  0  0  0  0  0  0  0
   11.2324   -3.1358    0.0000 N   0  0  0  0  0  0  0  0  0  0  0  0
   12.5054   -3.9330    0.0000 N   0  0  0  0  0  0  0  0  0  0  0  0
   12.1525   -5.3834    0.0000 C   0  0  0  0  0  0  0  0  0  0  0  0
   13.1228   -6.5274    0.0000 H   0  0  0  0  0  0  0  0  0  0  0  0
   10.6567   -5.4953    0.0000 C   0  0  0  0  0  0  0  0  0  0  0  0
    9.8674   -6.7708    0.0000 H   0  0  0  0  0  0  0  0  0  0  0  0
   10.0921   -4.1135    0.0000 N   0  0  0  0  0  0  0  0  0  0  0  0
  1  2  1  0  0  0  0 
  1  3  1  0  0  0  0 
  1  4  1  0  0  0  0 
  1  5  1  0  0  0  0 
  5  6  2  0  0  0  0 
  6  7  1  0  0  0  0 
  6  8  1  0  0  0  0 
  8  9  1  0  0  0  0 
  8 10  2  0  0  0  0 
 10 11  1  0  0  0  0 
 11 12  2  0  0  0  0 
  5 12  1  0  0  0  0 
 12 13  1  0  0  0  0 
 11 14  1  0  0  0  0 
 14 15  2  0  0  0  0 
 14 16  1  0  0  0  0 
 16 17  1  0  0  0  0 
 17 18  1  0  0  0  0 
 17 19  1  0  0  0  0 
 19 20  1  0  0  0  0 
 19 21  1  0  0  0  0 
 19 22  1  0  0  0  0 
 17 23  1  0  0  0  0 
 23 24  1  0  0  0  0 
 23 25  1  0  0  0  0 
 23 26  1  0  0  0  0 
 26 27  1  0  0  0  0 
 26 28  1  0  0  0  0 
 26 29  1  0  0  0  0 
 29 30  1  0  0  0  0 
 30 31  1  0  0  0  0 
 30 32  1  0  0  0  0 
 30 33  1  0  0  0  0 
 16 33  1  0  0  0  0 
 33 34  2  0  0  0  0 
 29 35  1  0  0  0  0 
 35 36  2  0  0  0  0 
 36 37  1  0  0  0  0 
 37 38  2  0  0  0  0 
 38 39  1  0  0  0  0 
 39 40  1  0  0  0  0 
 39 41  2  0  0  0  0 
 41 42  1  0  0  0  0 
 41 43  1  0  0  0  0 
 43 44  2  0  0  0  0 
 37 44  1  0  0  0  0 
 44 45  1  0  0  0  0 
 43 46  1  0  0  0  0 
 38 47  1  0  0  0  0 
 35 47  1  0  0  0  0 
 10 48  1  0  0  0  0 
 48 49  1  0  0  0  0 
 49 50  2  0  0  0  0 
 50 51  1  0  0  0  0 
 50 52  1  0  0  0  0 
 52 53  1  0  0  0  0 
 52 54  2  0  0  0  0 
 48 54  1  0  0  0  0 
M  END
> <Rank>
14

> <Priority_score>
0.13920337197049526

> <Reaction_type>
oxidation_(amine_in_a_ring)

> <Parent_ID>
60

> <Parent_InChI>
InChI=1S/C23H23ClN6O2/c1-15-3-5-20(30-25-8-9-26-30)18(13-15)22(31)29-12-11-28(10-7-16(29)2)23-27-19-14-17(24)4-6-21(19)32-23/h3-6,8-9,13-14,16H,7,10-12H2,1-2H3

> <Parent_SMILES>
Cc1ccc(-n2nccn2)c(C(=O)N2CCN(c3nc4cc(Cl)ccc4o3)CCC2C)c1

$$$$
Molecule 60_metabolite 20
  CDK     0516241031

 43 45  0  0  0  0  0  0  0  0999 V2000
   -1.3247   -1.5975    0.0000 C   0  0  0  0  0  0  0  0  0  0  0  0
   -0.0256   -0.8475    0.0000 H   0  0  0  0  0  0  0  0  0  0  0  0
   -2.2889   -2.7465    0.0000 H   0  0  0  0  0  0  0  0  0  0  0  0
   -0.3605   -2.7465    0.0000 H   0  0  0  0  0  0  0  0  0  0  0  0
   -2.6237   -0.8475    0.0000 C   0  0  0  0  0  0  0  0  0  0  0  0
   -3.9236   -1.5977    0.0000 C   0  0  0  0  0  0  0  0  0  0  0  0
   -3.9233   -3.0977    0.0000 H   0  0  0  0  0  0  0  0  0  0  0  0
   -5.2237   -0.8479    0.0000 C   0  0  0  0  0  0  0  0  0  0  0  0
   -6.5225   -1.5983    0.0000 H   0  0  0  0  0  0  0  0  0  0  0  0
   -5.2239    0.6521    0.0000 C   0  0  0  0  0  0  0  0  0  0  0  0
   -3.9241    1.4023    0.0000 C   0  0  0  0  0  0  0  0  0  0  0  0
   -2.6240    0.6525    0.0000 C   0  0  0  0  0  0  0  0  0  0  0  0
   -1.3252    1.4029    0.0000 H   0  0  0  0  0  0  0  0  0  0  0  0
   -3.9244    3.3823    0.0000 C   0  0  0  0  0  0  0  0  0  0  0  0
   -5.2235    4.1321    0.0000 O   0  0  0  0  0  0  0  0  0  0  0  0
   -1.7942    4.6127    0.0000 N   0  0  0  0  0  0  0  0  0  0  0  0
   -0.5547    3.7679    0.0000 C   0  0  0  0  0  0  0  0  0  0  0  0
   -1.6541    2.7474    0.0000 H   0  0  0  0  0  0  0  0  0  0  0  0
    0.1955    2.4690    0.0000 H   0  0  0  0  0  0  0  0  0  0  0  0
    0.8786    4.2102    0.0000 C   0  0  0  0  0  0  0  0  0  0  0  0
    0.9910    2.7145    0.0000 H   0  0  0  0  0  0  0  0  0  0  0  0
    2.3619    3.9869    0.0000 H   0  0  0  0  0  0  0  0  0  0  0  0
    1.4264    5.6066    0.0000 N   0  0  0  0  0  0  0  0  0  0  0  0
    2.9222    5.7190    0.0000 H   0  0  0  0  0  0  0  0  0  0  0  0
    0.6762    6.9056    0.0000 C   0  0  0  0  0  0  0  0  0  0  0  0
    2.1095    7.3479    0.0000 H   0  0  0  0  0  0  0  0  0  0  0  0
    0.5639    8.4013    0.0000 H   0  0  0  0  0  0  0  0  0  0  0  0
   -0.8071    7.1289    0.0000 C   0  0  0  0  0  0  0  0  0  0  0  0
   -0.2593    8.5253    0.0000 H   0  0  0  0  0  0  0  0  0  0  0  0
   -2.0466    7.9737    0.0000 H   0  0  0  0  0  0  0  0  0  0  0  0
   -1.9065    6.1084    0.0000 C   0  0  0  0  0  0  0  0  0  0  0  0
   -2.6567    7.4074    0.0000 H   0  0  0  0  0  0  0  0  0  0  0  0
   -3.3398    5.6661    0.0000 C   0  0  0  0  0  0  0  0  0  0  0  0
   -3.6733    4.2036    0.0000 H   0  0  0  0  0  0  0  0  0  0  0  0
   -4.8379    5.7406    0.0000 H   0  0  0  0  0  0  0  0  0  0  0  0
   -3.5265    7.1544    0.0000 H   0  0  0  0  0  0  0  0  0  0  0  0
   -6.5230    1.4021    0.0000 N   0  0  0  0  0  0  0  0  0  0  0  0
   -7.8988    0.7992    0.0000 N   0  0  0  0  0  0  0  0  0  0  0  0
   -8.8985    1.9076    0.0000 C   0  0  0  0  0  0  0  0  0  0  0  0
  -10.3902    1.7501    0.0000 H   0  0  0  0  0  0  0  0  0  0  0  0
   -8.1485    3.2066    0.0000 C   0  0  0  0  0  0  0  0  0  0  0  0
   -8.7580    4.5772    0.0000 H   0  0  0  0  0  0  0  0  0  0  0  0
   -6.6888    2.8950    0.0000 N   0  0  0  0  0  0  0  0  0  0  0  0
  1  2  1  0  0  0  0 
  1  3  1  0  0  0  0 
  1  4  1  0  0  0  0 
  1  5  1  0  0  0  0 
  5  6  2  0  0  0  0 
  6  7  1  0  0  0  0 
  6  8  1  0  0  0  0 
  8  9  1  0  0  0  0 
  8 10  2  0  0  0  0 
 10 11  1  0  0  0  0 
 11 12  2  0  0  0  0 
  5 12  1  0  0  0  0 
 12 13  1  0  0  0  0 
 11 14  1  0  0  0  0 
 14 15  2  0  0  0  0 
 14 16  1  0  0  0  0 
 16 17  1  0  0  0  0 
 17 18  1  0  0  0  0 
 17 19  1  0  0  0  0 
 17 20  1  0  0  0  0 
 20 21  1  0  0  0  0 
 20 22  1  0  0  0  0 
 20 23  1  0  0  0  0 
 23 24  1  0  0  0  0 
 23 25  1  0  0  0  0 
 25 26  1  0  0  0  0 
 25 27  1  0  0  0  0 
 25 28  1  0  0  0  0 
 28 29  1  0  0  0  0 
 28 30  1  0  0  0  0 
 28 31  1  0  0  0  0 
 16 31  1  0  0  0  0 
 31 32  1  0  0  0  0 
 31 33  1  0  0  0  0 
 33 34  1  0  0  0  0 
 33 35  1  0  0  0  0 
 33 36  1  0  0  0  0 
 10 37  1  0  0  0  0 
 37 38  1  0  0  0  0 
 38 39  2  0  0  0  0 
 39 40  1  0  0  0  0 
 39 41  1  0  0  0  0 
 41 42  1  0  0  0  0 
 41 43  2  0  0  0  0 
 37 43  1  0  0  0  0 
M  END
> <Rank>
20

> <Priority_score>
0.124

> <Reaction_type>
oxidative_deamination_(aromatic)

> <Parent_ID>
60

> <Parent_InChI>
InChI=1S/C23H23ClN6O2/c1-15-3-5-20(30-25-8-9-26-30)18(13-15)22(31)29-12-11-28(10-7-16(29)2)23-27-19-14-17(24)4-6-21(19)32-23/h3-6,8-9,13-14,16H,7,10-12H2,1-2H3

> <Parent_SMILES>
Cc1ccc(-n2nccn2)c(C(=O)N2CCN(c3nc4cc(Cl)ccc4o3)CCC2C)c1

$$$$
Molecule 60_metabolite 21
  CDK     0516241031

 15 16  0  0  0  0  0  0  0  0999 V2000
   -2.3100   -0.7500    0.0000 C   0  0  0  0  0  0  0  0  0  0  0  0
   -3.6089   -1.5002    0.0000 H   0  0  0  0  0  0  0  0  0  0  0  0
   -2.3100    0.7500    0.0000 C   0  0  0  0  0  0  0  0  0  0  0  0
   -1.0100    1.5000    0.0000 C   0  0  0  0  0  0  0  0  0  0  0  0
   -1.0100    3.0000    0.0000 H   0  0  0  0  0  0  0  0  0  0  0  0
    0.2900    0.7500    0.0000 C   0  0  0  0  0  0  0  0  0  0  0  0
    0.2900   -0.7500    0.0000 C   0  0  0  0  0  0  0  0  0  0  0  0
   -1.0100   -1.5000    0.0000 C   0  0  0  0  0  0  0  0  0  0  0  0
   -1.0100   -3.0000    0.0000 H   0  0  0  0  0  0  0  0  0  0  0  0
    1.7200   -1.2100    0.0000 O   0  0  0  0  0  0  0  0  0  0  0  0
    2.6000    0.0000    0.0000 C   0  0  0  0  0  0  0  0  0  0  0  0
    4.1000   -0.0000    0.0000 O   0  0  0  0  0  0  0  0  0  0  0  0
    1.7200    1.2100    0.0000 N   0  0  0  0  0  0  0  0  0  0  0  0
    2.1853    2.6360    0.0000 H   0  0  0  0  0  0  0  0  0  0  0  0
   -3.6089    1.5002    0.0000 Cl  0  0  0  0  0  0  0  0  0  0  0  0
  1  2  1  0  0  0  0 
  1  3  2  0  0  0  0 
  3  4  1  0  0  0  0 
  4  5  1  0  0  0  0 
  4  6  2  0  0  0  0 
  6  7  1  0  0  0  0 
  7  8  2  0  0  0  0 
  1  8  1  0  0  0  0 
  8  9  1  0  0  0  0 
  7 10  1  0  0  0  0 
 10 11  1  0  0  0  0 
 11 12  2  0  0  0  0 
 11 13  1  0  0  0  0 
  6 13  1  0  0  0  0 
 13 14  1  0  0  0  0 
  3 15  1  0  0  0  0 
M  END
> <Rank>
20

> <Priority_score>
0.124

> <Reaction_type>
oxidative_deamination_(aromatic)

> <Parent_ID>
60

> <Parent_InChI>
InChI=1S/C23H23ClN6O2/c1-15-3-5-20(30-25-8-9-26-30)18(13-15)22(31)29-12-11-28(10-7-16(29)2)23-27-19-14-17(24)4-6-21(19)32-23/h3-6,8-9,13-14,16H,7,10-12H2,1-2H3

> <Parent_SMILES>
Cc1ccc(-n2nccn2)c(C(=O)N2CCN(c3nc4cc(Cl)ccc4o3)CCC2C)c1

$$$$
Molecule 60_metabolite 22
  CDK     0516241031

 56 60  0  0  0  0  0  0  0  0999 V2000
    3.1228    1.5815    0.0000 C   0  0  0  0  0  0  0  0  0  0  0  0
    1.7714    0.9305    0.0000 H   0  0  0  0  0  0  0  0  0  0  0  0
    2.2470    2.7993    0.0000 H   0  0  0  0  0  0  0  0  0  0  0  0
    4.1700    2.6555    0.0000 H   0  0  0  0  0  0  0  0  0  0  0  0
    4.3623    0.7368    0.0000 C   0  0  0  0  0  0  0  0  0  0  0  0
    4.2506   -0.7599    0.0000 C   0  0  0  0  0  0  0  0  0  0  0  0
    2.8991   -1.4107    0.0000 H   0  0  0  0  0  0  0  0  0  0  0  0
    5.4904   -1.6058    0.0000 C   0  0  0  0  0  0  0  0  0  0  0  0
    5.3780   -3.1015    0.0000 H   0  0  0  0  0  0  0  0  0  0  0  0
    6.8418   -0.9549    0.0000 C   0  0  0  0  0  0  0  0  0  0  0  0
    6.9535    0.5417    0.0000 C   0  0  0  0  0  0  0  0  0  0  0  0
    5.7137    1.3876    0.0000 C   0  0  0  0  0  0  0  0  0  0  0  0
    5.8261    2.8834    0.0000 H   0  0  0  0  0  0  0  0  0  0  0  0
    8.7374    1.4008    0.0000 C   0  0  0  0  0  0  0  0  0  0  0  0
    9.9768    0.5558    0.0000 O   0  0  0  0  0  0  0  0  0  0  0  0
    8.9213    3.8539    0.0000 N   0  0  0  0  0  0  0  0  0  0  0  0
    7.6222    4.6039    0.0000 C   0  0  0  0  0  0  0  0  0  0  0  0
    7.1801    3.1706    0.0000 H   0  0  0  0  0  0  0  0  0  0  0  0
    6.1264    4.7160    0.0000 H   0  0  0  0  0  0  0  0  0  0  0  0
    7.3987    6.0872    0.0000 C   0  0  0  0  0  0  0  0  0  0  0  0
    6.0023    5.5392    0.0000 H   0  0  0  0  0  0  0  0  0  0  0  0
    6.5537    7.3266    0.0000 H   0  0  0  0  0  0  0  0  0  0  0  0
    8.4189    7.1868    0.0000 N   0  0  0  0  0  0  0  0  0  0  0  0
    9.9147    7.0747    0.0000 C   0  0  0  0  0  0  0  0  0  0  0  0
    9.6912    8.5579    0.0000 H   0  0  0  0  0  0  0  0  0  0  0  0
   11.3110    7.6227    0.0000 H   0  0  0  0  0  0  0  0  0  0  0  0
   10.7597    5.8353    0.0000 C   0  0  0  0  0  0  0  0  0  0  0  0
   11.7800    6.9349    0.0000 H   0  0  0  0  0  0  0  0  0  0  0  0
   12.0587    5.0853    0.0000 H   0  0  0  0  0  0  0  0  0  0  0  0
   10.3176    4.4020    0.0000 C   0  0  0  0  0  0  0  0  0  0  0  0
   11.8134    4.2899    0.0000 H   0  0  0  0  0  0  0  0  0  0  0  0
   10.5411    2.9187    0.0000 C   0  0  0  0  0  0  0  0  0  0  0  0
    9.3684    1.9835    0.0000 H   0  0  0  0  0  0  0  0  0  0  0  0
   11.2585    1.6014    0.0000 H   0  0  0  0  0  0  0  0  0  0  0  0
   11.9630    3.3964    0.0000 H   0  0  0  0  0  0  0  0  0  0  0  0
    7.8709    8.5831    0.0000 C   0  0  0  0  0  0  0  0  0  0  0  0
    6.4230    8.9602    0.0000 N   0  0  0  0  0  0  0  0  0  0  0  0
    6.3288   10.4594    0.0000 C   0  0  0  0  0  0  0  0  0  0  0  0
    7.7251   11.0074    0.0000 C   0  0  0  0  0  0  0  0  0  0  0  0
    7.9483   12.4915    0.0000 C   0  0  0  0  0  0  0  0  0  0  0  0
    9.3446   13.0396    0.0000 H   0  0  0  0  0  0  0  0  0  0  0  0
    6.7752   13.4277    0.0000 C   0  0  0  0  0  0  0  0  0  0  0  0
    6.9990   14.9109    0.0000 H   0  0  0  0  0  0  0  0  0  0  0  0
    5.3789   12.8797    0.0000 C   0  0  0  0  0  0  0  0  0  0  0  0
    5.1557   11.3955    0.0000 C   0  0  0  0  0  0  0  0  0  0  0  0
    3.7594   10.8475    0.0000 H   0  0  0  0  0  0  0  0  0  0  0  0
    4.2060   13.8147    0.0000 Cl  0  0  0  0  0  0  0  0  0  0  0  0
    8.6758    9.8443    0.0000 O   0  0  0  0  0  0  0  0  0  0  0  0
    5.2656    8.0061    0.0000 O   0  0  0  0  0  0  0  0  0  0  0  0
    8.0813   -1.7997    0.0000 N   0  0  0  0  0  0  0  0  0  0  0  0
    8.1353   -3.3008    0.0000 N   0  0  0  0  0  0  0  0  0  0  0  0
    9.5677   -3.7204    0.0000 C   0  0  0  0  0  0  0  0  0  0  0  0
   10.0733   -5.1327    0.0000 H   0  0  0  0  0  0  0  0  0  0  0  0
   10.4125   -2.4809    0.0000 C   0  0  0  0  0  0  0  0  0  0  0  0
   11.9118   -2.4352    0.0000 H   0  0  0  0  0  0  0  0  0  0  0  0
    9.4982   -1.3011    0.0000 N   0  0  0  0  0  0  0  0  0  0  0  0
  1  2  1  0  0  0  0 
  1  3  1  0  0  0  0 
  1  4  1  0  0  0  0 
  1  5  1  0  0  0  0 
  5  6  2  0  0  0  0 
  6  7  1  0  0  0  0 
  6  8  1  0  0  0  0 
  8  9  1  0  0  0  0 
  8 10  2  0  0  0  0 
 10 11  1  0  0  0  0 
 11 12  2  0  0  0  0 
  5 12  1  0  0  0  0 
 12 13  1  0  0  0  0 
 11 14  1  0  0  0  0 
 14 15  2  0  0  0  0 
 14 16  1  0  0  0  0 
 16 17  1  0  0  0  0 
 17 18  1  0  0  0  0 
 17 19  1  0  0  0  0 
 17 20  1  0  0  0  0 
 20 21  1  0  0  0  0 
 20 22  1  0  0  0  0 
 20 23  1  0  0  0  0 
 23 24  1  0  0  0  0 
 24 25  1  0  0  0  0 
 24 26  1  0  0  0  0 
 24 27  1  0  0  0  0 
 27 28  1  0  0  0  0 
 27 29  1  0  0  0  0 
 27 30  1  0  0  0  0 
 16 30  1  0  0  0  0 
 30 31  1  0  0  0  0 
 30 32  1  0  0  0  0 
 32 33  1  0  0  0  0 
 32 34  1  0  0  0  0 
 32 35  1  0  0  0  0 
 23 36  1  0  0  0  0 
 36 37  2  0  0  0  0 
 37 38  1  0  0  0  0 
 38 39  2  0  0  0  0 
 39 40  1  0  0  0  0 
 40 41  1  0  0  0  0 
 40 42  2  0  0  0  0 
 42 43  1  0  0  0  0 
 42 44  1  0  0  0  0 
 44 45  2  0  0  0  0 
 38 45  1  0  0  0  0 
 45 46  1  0  0  0  0 
 44 47  1  0  0  0  0 
 39 48  1  0  0  0  0 
 36 48  1  0  0  0  0 
 37 49  1  0  0  0  0 
 10 50  1  0  0  0  0 
 50 51  1  0  0  0  0 
 51 52  2  0  0  0  0 
 52 53  1  0  0  0  0 
 52 54  1  0  0  0  0 
 54 55  1  0  0  0  0 
 54 56  2  0  0  0  0 
 50 56  1  0  0  0  0 
M  CHG  1  37   1
M  CHG  1  49  -1
M  END
> <Rank>
20

> <Priority_score>
0.124

> <Reaction_type>
N-oxidation_(-N=)

> <Parent_ID>
60

> <Parent_InChI>
InChI=1S/C23H23ClN6O2/c1-15-3-5-20(30-25-8-9-26-30)18(13-15)22(31)29-12-11-28(10-7-16(29)2)23-27-19-14-17(24)4-6-21(19)32-23/h3-6,8-9,13-14,16H,7,10-12H2,1-2H3

> <Parent_SMILES>
Cc1ccc(-n2nccn2)c(C(=O)N2CCN(c3nc4cc(Cl)ccc4o3)CCC2C)c1

$$$$
Molecule 60_metabolite 23
  CDK     0516241031

 56 60  0  0  0  0  0  0  0  0999 V2000
    3.1228    1.5815    0.0000 C   0  0  0  0  0  0  0  0  0  0  0  0
    1.7714    0.9305    0.0000 H   0  0  0  0  0  0  0  0  0  0  0  0
    2.2470    2.7993    0.0000 H   0  0  0  0  0  0  0  0  0  0  0  0
    4.1700    2.6555    0.0000 H   0  0  0  0  0  0  0  0  0  0  0  0
    4.3623    0.7368    0.0000 C   0  0  0  0  0  0  0  0  0  0  0  0
    4.2506   -0.7599    0.0000 C   0  0  0  0  0  0  0  0  0  0  0  0
    2.8991   -1.4107    0.0000 H   0  0  0  0  0  0  0  0  0  0  0  0
    5.4904   -1.6058    0.0000 C   0  0  0  0  0  0  0  0  0  0  0  0
    5.3780   -3.1015    0.0000 H   0  0  0  0  0  0  0  0  0  0  0  0
    6.8418   -0.9549    0.0000 C   0  0  0  0  0  0  0  0  0  0  0  0
    6.9535    0.5417    0.0000 C   0  0  0  0  0  0  0  0  0  0  0  0
    5.7137    1.3876    0.0000 C   0  0  0  0  0  0  0  0  0  0  0  0
    5.8261    2.8834    0.0000 H   0  0  0  0  0  0  0  0  0  0  0  0
    8.7374    1.4008    0.0000 C   0  0  0  0  0  0  0  0  0  0  0  0
    9.9768    0.5558    0.0000 O   0  0  0  0  0  0  0  0  0  0  0  0
    8.9213    3.8539    0.0000 N   0  0  0  0  0  0  0  0  0  0  0  0
    7.6222    4.6039    0.0000 C   0  0  0  0  0  0  0  0  0  0  0  0
    7.1801    3.1706    0.0000 H   0  0  0  0  0  0  0  0  0  0  0  0
    6.1264    4.7160    0.0000 H   0  0  0  0  0  0  0  0  0  0  0  0
    7.3987    6.0872    0.0000 C   0  0  0  0  0  0  0  0  0  0  0  0
    6.0023    5.5392    0.0000 H   0  0  0  0  0  0  0  0  0  0  0  0
    6.5537    7.3266    0.0000 H   0  0  0  0  0  0  0  0  0  0  0  0
    8.4189    7.1868    0.0000 N   0  0  0  0  0  0  0  0  0  0  0  0
    9.9147    7.0747    0.0000 C   0  0  0  0  0  0  0  0  0  0  0  0
    9.6912    8.5579    0.0000 H   0  0  0  0  0  0  0  0  0  0  0  0
   11.3110    7.6227    0.0000 H   0  0  0  0  0  0  0  0  0  0  0  0
   10.7597    5.8353    0.0000 C   0  0  0  0  0  0  0  0  0  0  0  0
   11.7800    6.9349    0.0000 H   0  0  0  0  0  0  0  0  0  0  0  0
   12.0587    5.0853    0.0000 H   0  0  0  0  0  0  0  0  0  0  0  0
   10.3176    4.4020    0.0000 C   0  0  0  0  0  0  0  0  0  0  0  0
   11.8134    4.2899    0.0000 H   0  0  0  0  0  0  0  0  0  0  0  0
   10.5411    2.9187    0.0000 C   0  0  0  0  0  0  0  0  0  0  0  0
    9.3684    1.9835    0.0000 H   0  0  0  0  0  0  0  0  0  0  0  0
   11.2585    1.6014    0.0000 H   0  0  0  0  0  0  0  0  0  0  0  0
   11.9630    3.3964    0.0000 H   0  0  0  0  0  0  0  0  0  0  0  0
    7.8709    8.5831    0.0000 C   0  0  0  0  0  0  0  0  0  0  0  0
    6.4230    8.9602    0.0000 N   0  0  0  0  0  0  0  0  0  0  0  0
    6.3288   10.4594    0.0000 C   0  0  0  0  0  0  0  0  0  0  0  0
    7.7251   11.0074    0.0000 C   0  0  0  0  0  0  0  0  0  0  0  0
    7.9483   12.4915    0.0000 C   0  0  0  0  0  0  0  0  0  0  0  0
    9.3446   13.0396    0.0000 H   0  0  0  0  0  0  0  0  0  0  0  0
    6.7752   13.4277    0.0000 C   0  0  0  0  0  0  0  0  0  0  0  0
    6.9990   14.9109    0.0000 H   0  0  0  0  0  0  0  0  0  0  0  0
    5.3789   12.8797    0.0000 C   0  0  0  0  0  0  0  0  0  0  0  0
    5.1557   11.3955    0.0000 C   0  0  0  0  0  0  0  0  0  0  0  0
    3.7594   10.8475    0.0000 H   0  0  0  0  0  0  0  0  0  0  0  0
    4.2060   13.8147    0.0000 Cl  0  0  0  0  0  0  0  0  0  0  0  0
    8.6758    9.8443    0.0000 O   0  0  0  0  0  0  0  0  0  0  0  0
    8.0813   -1.7997    0.0000 N   0  0  0  0  0  0  0  0  0  0  0  0
    7.1147   -2.9495    0.0000 N   0  0  0  0  0  0  0  0  0  0  0  0
    7.8960   -4.2213    0.0000 C   0  0  0  0  0  0  0  0  0  0  0  0
    7.3241   -5.6080    0.0000 H   0  0  0  0  0  0  0  0  0  0  0  0
    9.3539   -3.8683    0.0000 C   0  0  0  0  0  0  0  0  0  0  0  0
   10.4968   -4.8398    0.0000 H   0  0  0  0  0  0  0  0  0  0  0  0
    9.4668   -2.3800    0.0000 N   0  0  0  0  0  0  0  0  0  0  0  0
    8.7971   -0.4815    0.0000 O   0  0  0  0  0  0  0  0  0  0  0  0
  1  2  1  0  0  0  0 
  1  3  1  0  0  0  0 
  1  4  1  0  0  0  0 
  1  5  1  0  0  0  0 
  5  6  2  0  0  0  0 
  6  7  1  0  0  0  0 
  6  8  1  0  0  0  0 
  8  9  1  0  0  0  0 
  8 10  2  0  0  0  0 
 10 11  1  0  0  0  0 
 11 12  2  0  0  0  0 
  5 12  1  0  0  0  0 
 12 13  1  0  0  0  0 
 11 14  1  0  0  0  0 
 14 15  2  0  0  0  0 
 14 16  1  0  0  0  0 
 16 17  1  0  0  0  0 
 17 18  1  0  0  0  0 
 17 19  1  0  0  0  0 
 17 20  1  0  0  0  0 
 20 21  1  0  0  0  0 
 20 22  1  0  0  0  0 
 20 23  1  0  0  0  0 
 23 24  1  0  0  0  0 
 24 25  1  0  0  0  0 
 24 26  1  0  0  0  0 
 24 27  1  0  0  0  0 
 27 28  1  0  0  0  0 
 27 29  1  0  0  0  0 
 27 30  1  0  0  0  0 
 16 30  1  0  0  0  0 
 30 31  1  0  0  0  0 
 30 32  1  0  0  0  0 
 32 33  1  0  0  0  0 
 32 34  1  0  0  0  0 
 32 35  1  0  0  0  0 
 23 36  1  0  0  0  0 
 36 37  2  0  0  0  0 
 37 38  1  0  0  0  0 
 38 39  2  0  0  0  0 
 39 40  1  0  0  0  0 
 40 41  1  0  0  0  0 
 40 42  2  0  0  0  0 
 42 43  1  0  0  0  0 
 42 44  1  0  0  0  0 
 44 45  2  0  0  0  0 
 38 45  1  0  0  0  0 
 45 46  1  0  0  0  0 
 44 47  1  0  0  0  0 
 39 48  1  0  0  0  0 
 36 48  1  0  0  0  0 
 10 49  1  0  0  0  0 
 49 50  1  0  0  0  0 
 50 51  2  0  0  0  0 
 51 52  1  0  0  0  0 
 51 53  1  0  0  0  0 
 53 54  1  0  0  0  0 
 53 55  2  0  0  0  0 
 49 55  1  0  0  0  0 
 49 56  1  0  0  0  0 
M  CHG  1  49   1
M  CHG  1  56  -1
M  END
> <Rank>
23

> <Priority_score>
0.116

> <Reaction_type>
N-oxidation

> <Parent_ID>
60

> <Parent_InChI>
InChI=1S/C23H23ClN6O2/c1-15-3-5-20(30-25-8-9-26-30)18(13-15)22(31)29-12-11-28(10-7-16(29)2)23-27-19-14-17(24)4-6-21(19)32-23/h3-6,8-9,13-14,16H,7,10-12H2,1-2H3

> <Parent_SMILES>
Cc1ccc(-n2nccn2)c(C(=O)N2CCN(c3nc4cc(Cl)ccc4o3)CCC2C)c1

$$$$
Molecule 60_metabolite 24
  CDK     0516241031

 56 60  0  0  0  0  0  0  0  0999 V2000
    3.1228    1.5815    0.0000 C   0  0  0  0  0  0  0  0  0  0  0  0
    1.7714    0.9305    0.0000 H   0  0  0  0  0  0  0  0  0  0  0  0
    2.2470    2.7993    0.0000 H   0  0  0  0  0  0  0  0  0  0  0  0
    4.1700    2.6555    0.0000 H   0  0  0  0  0  0  0  0  0  0  0  0
    4.3623    0.7368    0.0000 C   0  0  0  0  0  0  0  0  0  0  0  0
    4.2506   -0.7599    0.0000 C   0  0  0  0  0  0  0  0  0  0  0  0
    2.8991   -1.4107    0.0000 H   0  0  0  0  0  0  0  0  0  0  0  0
    5.4904   -1.6058    0.0000 C   0  0  0  0  0  0  0  0  0  0  0  0
    6.8418   -0.9549    0.0000 C   0  0  0  0  0  0  0  0  0  0  0  0
    6.9535    0.5417    0.0000 C   0  0  0  0  0  0  0  0  0  0  0  0
    5.7137    1.3876    0.0000 C   0  0  0  0  0  0  0  0  0  0  0  0
    5.8261    2.8834    0.0000 H   0  0  0  0  0  0  0  0  0  0  0  0
    8.7374    1.4008    0.0000 C   0  0  0  0  0  0  0  0  0  0  0  0
    9.9768    0.5558    0.0000 O   0  0  0  0  0  0  0  0  0  0  0  0
    8.9213    3.8539    0.0000 N   0  0  0  0  0  0  0  0  0  0  0  0
    7.6222    4.6039    0.0000 C   0  0  0  0  0  0  0  0  0  0  0  0
    7.1801    3.1706    0.0000 H   0  0  0  0  0  0  0  0  0  0  0  0
    6.1264    4.7160    0.0000 H   0  0  0  0  0  0  0  0  0  0  0  0
    7.3987    6.0872    0.0000 C   0  0  0  0  0  0  0  0  0  0  0  0
    6.0023    5.5392    0.0000 H   0  0  0  0  0  0  0  0  0  0  0  0
    6.5537    7.3266    0.0000 H   0  0  0  0  0  0  0  0  0  0  0  0
    8.4189    7.1868    0.0000 N   0  0  0  0  0  0  0  0  0  0  0  0
    9.9147    7.0747    0.0000 C   0  0  0  0  0  0  0  0  0  0  0  0
    9.6912    8.5579    0.0000 H   0  0  0  0  0  0  0  0  0  0  0  0
   11.3110    7.6227    0.0000 H   0  0  0  0  0  0  0  0  0  0  0  0
   10.7597    5.8353    0.0000 C   0  0  0  0  0  0  0  0  0  0  0  0
   11.7800    6.9349    0.0000 H   0  0  0  0  0  0  0  0  0  0  0  0
   12.0587    5.0853    0.0000 H   0  0  0  0  0  0  0  0  0  0  0  0
   10.3176    4.4020    0.0000 C   0  0  0  0  0  0  0  0  0  0  0  0
   11.8134    4.2899    0.0000 H   0  0  0  0  0  0  0  0  0  0  0  0
   10.5411    2.9187    0.0000 C   0  0  0  0  0  0  0  0  0  0  0  0
    9.3684    1.9835    0.0000 H   0  0  0  0  0  0  0  0  0  0  0  0
   11.2585    1.6014    0.0000 H   0  0  0  0  0  0  0  0  0  0  0  0
   11.9630    3.3964    0.0000 H   0  0  0  0  0  0  0  0  0  0  0  0
    7.8709    8.5831    0.0000 C   0  0  0  0  0  0  0  0  0  0  0  0
    6.4230    8.9602    0.0000 N   0  0  0  0  0  0  0  0  0  0  0  0
    6.3288   10.4594    0.0000 C   0  0  0  0  0  0  0  0  0  0  0  0
    7.7251   11.0074    0.0000 C   0  0  0  0  0  0  0  0  0  0  0  0
    7.9483   12.4915    0.0000 C   0  0  0  0  0  0  0  0  0  0  0  0
    9.3446   13.0396    0.0000 H   0  0  0  0  0  0  0  0  0  0  0  0
    6.7752   13.4277    0.0000 C   0  0  0  0  0  0  0  0  0  0  0  0
    6.9990   14.9109    0.0000 H   0  0  0  0  0  0  0  0  0  0  0  0
    5.3789   12.8797    0.0000 C   0  0  0  0  0  0  0  0  0  0  0  0
    5.1557   11.3955    0.0000 C   0  0  0  0  0  0  0  0  0  0  0  0
    3.7594   10.8475    0.0000 H   0  0  0  0  0  0  0  0  0  0  0  0
    4.2060   13.8147    0.0000 Cl  0  0  0  0  0  0  0  0  0  0  0  0
    8.6758    9.8443    0.0000 O   0  0  0  0  0  0  0  0  0  0  0  0
    8.0813   -1.7997    0.0000 N   0  0  0  0  0  0  0  0  0  0  0  0
    8.1353   -3.3008    0.0000 N   0  0  0  0  0  0  0  0  0  0  0  0
    9.5677   -3.7204    0.0000 C   0  0  0  0  0  0  0  0  0  0  0  0
   10.0733   -5.1327    0.0000 H   0  0  0  0  0  0  0  0  0  0  0  0
   10.4125   -2.4809    0.0000 C   0  0  0  0  0  0  0  0  0  0  0  0
   11.9118   -2.4352    0.0000 H   0  0  0  0  0  0  0  0  0  0  0  0
    9.4982   -1.3011    0.0000 N   0  0  0  0  0  0  0  0  0  0  0  0
    5.3780   -3.1015    0.0000 O   0  0  0  0  0  0  0  0  0  0  0  0
    4.0265   -3.7522    0.0000 H   0  0  0  0  0  0  0  0  0  0  0  0
  1  2  1  0  0  0  0 
  1  3  1  0  0  0  0 
  1  4  1  0  0  0  0 
  1  5  1  0  0  0  0 
  5  6  2  0  0  0  0 
  6  7  1  0  0  0  0 
  6  8  1  0  0  0  0 
  8  9  2  0  0  0  0 
  9 10  1  0  0  0  0 
 10 11  2  0  0  0  0 
  5 11  1  0  0  0  0 
 11 12  1  0  0  0  0 
 10 13  1  0  0  0  0 
 13 14  2  0  0  0  0 
 13 15  1  0  0  0  0 
 15 16  1  0  0  0  0 
 16 17  1  0  0  0  0 
 16 18  1  0  0  0  0 
 16 19  1  0  0  0  0 
 19 20  1  0  0  0  0 
 19 21  1  0  0  0  0 
 19 22  1  0  0  0  0 
 22 23  1  0  0  0  0 
 23 24  1  0  0  0  0 
 23 25  1  0  0  0  0 
 23 26  1  0  0  0  0 
 26 27  1  0  0  0  0 
 26 28  1  0  0  0  0 
 26 29  1  0  0  0  0 
 15 29  1  0  0  0  0 
 29 30  1  0  0  0  0 
 29 31  1  0  0  0  0 
 31 32  1  0  0  0  0 
 31 33  1  0  0  0  0 
 31 34  1  0  0  0  0 
 22 35  1  0  0  0  0 
 35 36  2  0  0  0  0 
 36 37  1  0  0  0  0 
 37 38  2  0  0  0  0 
 38 39  1  0  0  0  0 
 39 40  1  0  0  0  0 
 39 41  2  0  0  0  0 
 41 42  1  0  0  0  0 
 41 43  1  0  0  0  0 
 43 44  2  0  0  0  0 
 37 44  1  0  0  0  0 
 44 45  1  0  0  0  0 
 43 46  1  0  0  0  0 
 38 47  1  0  0  0  0 
 35 47  1  0  0  0  0 
  9 48  1  0  0  0  0 
 48 49  1  0  0  0  0 
 49 50  2  0  0  0  0 
 50 51  1  0  0  0  0 
 50 52  1  0  0  0  0 
 52 53  1  0  0  0  0 
 52 54  2  0  0  0  0 
 48 54  1  0  0  0  0 
  8 55  1  0  0  0  0 
 55 56  1  0  0  0  0 
M  END
> <Rank>
23

> <Priority_score>
0.116

> <Reaction_type>
aromatic_hydroxylation_(ortho_to_nitrogen)

> <Parent_ID>
60

> <Parent_InChI>
InChI=1S/C23H23ClN6O2/c1-15-3-5-20(30-25-8-9-26-30)18(13-15)22(31)29-12-11-28(10-7-16(29)2)23-27-19-14-17(24)4-6-21(19)32-23/h3-6,8-9,13-14,16H,7,10-12H2,1-2H3

> <Parent_SMILES>
Cc1ccc(-n2nccn2)c(C(=O)N2CCN(c3nc4cc(Cl)ccc4o3)CCC2C)c1

$$$$
Molecule 60_metabolite 25
  CDK     0516241031

 56 60  0  0  0  0  0  0  0  0999 V2000
    3.1228    1.5815    0.0000 C   0  0  0  0  0  0  0  0  0  0  0  0
    1.7714    0.9305    0.0000 H   0  0  0  0  0  0  0  0  0  0  0  0
    2.2470    2.7993    0.0000 H   0  0  0  0  0  0  0  0  0  0  0  0
    4.1700    2.6555    0.0000 H   0  0  0  0  0  0  0  0  0  0  0  0
    4.3623    0.7368    0.0000 C   0  0  0  0  0  0  0  0  0  0  0  0
    4.2506   -0.7599    0.0000 C   0  0  0  0  0  0  0  0  0  0  0  0
    5.4904   -1.6058    0.0000 C   0  0  0  0  0  0  0  0  0  0  0  0
    5.3780   -3.1015    0.0000 H   0  0  0  0  0  0  0  0  0  0  0  0
    6.8418   -0.9549    0.0000 C   0  0  0  0  0  0  0  0  0  0  0  0
    6.9535    0.5417    0.0000 C   0  0  0  0  0  0  0  0  0  0  0  0
    5.7137    1.3876    0.0000 C   0  0  0  0  0  0  0  0  0  0  0  0
    5.8261    2.8834    0.0000 H   0  0  0  0  0  0  0  0  0  0  0  0
    8.7374    1.4008    0.0000 C   0  0  0  0  0  0  0  0  0  0  0  0
    9.9768    0.5558    0.0000 O   0  0  0  0  0  0  0  0  0  0  0  0
    8.9213    3.8539    0.0000 N   0  0  0  0  0  0  0  0  0  0  0  0
    7.6222    4.6039    0.0000 C   0  0  0  0  0  0  0  0  0  0  0  0
    7.1801    3.1706    0.0000 H   0  0  0  0  0  0  0  0  0  0  0  0
    6.1264    4.7160    0.0000 H   0  0  0  0  0  0  0  0  0  0  0  0
    7.3987    6.0872    0.0000 C   0  0  0  0  0  0  0  0  0  0  0  0
    6.0023    5.5392    0.0000 H   0  0  0  0  0  0  0  0  0  0  0  0
    6.5537    7.3266    0.0000 H   0  0  0  0  0  0  0  0  0  0  0  0
    8.4189    7.1868    0.0000 N   0  0  0  0  0  0  0  0  0  0  0  0
    9.9147    7.0747    0.0000 C   0  0  0  0  0  0  0  0  0  0  0  0
    9.6912    8.5579    0.0000 H   0  0  0  0  0  0  0  0  0  0  0  0
   11.3110    7.6227    0.0000 H   0  0  0  0  0  0  0  0  0  0  0  0
   10.7597    5.8353    0.0000 C   0  0  0  0  0  0  0  0  0  0  0  0
   11.7800    6.9349    0.0000 H   0  0  0  0  0  0  0  0  0  0  0  0
   12.0587    5.0853    0.0000 H   0  0  0  0  0  0  0  0  0  0  0  0
   10.3176    4.4020    0.0000 C   0  0  0  0  0  0  0  0  0  0  0  0
   11.8134    4.2899    0.0000 H   0  0  0  0  0  0  0  0  0  0  0  0
   10.5411    2.9187    0.0000 C   0  0  0  0  0  0  0  0  0  0  0  0
    9.3684    1.9835    0.0000 H   0  0  0  0  0  0  0  0  0  0  0  0
   11.2585    1.6014    0.0000 H   0  0  0  0  0  0  0  0  0  0  0  0
   11.9630    3.3964    0.0000 H   0  0  0  0  0  0  0  0  0  0  0  0
    7.8709    8.5831    0.0000 C   0  0  0  0  0  0  0  0  0  0  0  0
    6.4230    8.9602    0.0000 N   0  0  0  0  0  0  0  0  0  0  0  0
    6.3288   10.4594    0.0000 C   0  0  0  0  0  0  0  0  0  0  0  0
    7.7251   11.0074    0.0000 C   0  0  0  0  0  0  0  0  0  0  0  0
    7.9483   12.4915    0.0000 C   0  0  0  0  0  0  0  0  0  0  0  0
    9.3446   13.0396    0.0000 H   0  0  0  0  0  0  0  0  0  0  0  0
    6.7752   13.4277    0.0000 C   0  0  0  0  0  0  0  0  0  0  0  0
    6.9990   14.9109    0.0000 H   0  0  0  0  0  0  0  0  0  0  0  0
    5.3789   12.8797    0.0000 C   0  0  0  0  0  0  0  0  0  0  0  0
    5.1557   11.3955    0.0000 C   0  0  0  0  0  0  0  0  0  0  0  0
    3.7594   10.8475    0.0000 H   0  0  0  0  0  0  0  0  0  0  0  0
    4.2060   13.8147    0.0000 Cl  0  0  0  0  0  0  0  0  0  0  0  0
    8.6758    9.8443    0.0000 O   0  0  0  0  0  0  0  0  0  0  0  0
    8.0813   -1.7997    0.0000 N   0  0  0  0  0  0  0  0  0  0  0  0
    8.1353   -3.3008    0.0000 N   0  0  0  0  0  0  0  0  0  0  0  0
    9.5677   -3.7204    0.0000 C   0  0  0  0  0  0  0  0  0  0  0  0
   10.0733   -5.1327    0.0000 H   0  0  0  0  0  0  0  0  0  0  0  0
   10.4125   -2.4809    0.0000 C   0  0  0  0  0  0  0  0  0  0  0  0
   11.9118   -2.4352    0.0000 H   0  0  0  0  0  0  0  0  0  0  0  0
    9.4982   -1.3011    0.0000 N   0  0  0  0  0  0  0  0  0  0  0  0
    2.8991   -1.4107    0.0000 O   0  0  0  0  0  0  0  0  0  0  0  0
    1.6598   -0.5658    0.0000 H   0  0  0  0  0  0  0  0  0  0  0  0
  1  2  1  0  0  0  0 
  1  3  1  0  0  0  0 
  1  4  1  0  0  0  0 
  1  5  1  0  0  0  0 
  5  6  2  0  0  0  0 
  6  7  1  0  0  0  0 
  7  8  1  0  0  0  0 
  7  9  2  0  0  0  0 
  9 10  1  0  0  0  0 
 10 11  2  0  0  0  0 
  5 11  1  0  0  0  0 
 11 12  1  0  0  0  0 
 10 13  1  0  0  0  0 
 13 14  2  0  0  0  0 
 13 15  1  0  0  0  0 
 15 16  1  0  0  0  0 
 16 17  1  0  0  0  0 
 16 18  1  0  0  0  0 
 16 19  1  0  0  0  0 
 19 20  1  0  0  0  0 
 19 21  1  0  0  0  0 
 19 22  1  0  0  0  0 
 22 23  1  0  0  0  0 
 23 24  1  0  0  0  0 
 23 25  1  0  0  0  0 
 23 26  1  0  0  0  0 
 26 27  1  0  0  0  0 
 26 28  1  0  0  0  0 
 26 29  1  0  0  0  0 
 15 29  1  0  0  0  0 
 29 30  1  0  0  0  0 
 29 31  1  0  0  0  0 
 31 32  1  0  0  0  0 
 31 33  1  0  0  0  0 
 31 34  1  0  0  0  0 
 22 35  1  0  0  0  0 
 35 36  2  0  0  0  0 
 36 37  1  0  0  0  0 
 37 38  2  0  0  0  0 
 38 39  1  0  0  0  0 
 39 40  1  0  0  0  0 
 39 41  2  0  0  0  0 
 41 42  1  0  0  0  0 
 41 43  1  0  0  0  0 
 43 44  2  0  0  0  0 
 37 44  1  0  0  0  0 
 44 45  1  0  0  0  0 
 43 46  1  0  0  0  0 
 38 47  1  0  0  0  0 
 35 47  1  0  0  0  0 
  9 48  1  0  0  0  0 
 48 49  1  0  0  0  0 
 49 50  2  0  0  0  0 
 50 51  1  0  0  0  0 
 50 52  1  0  0  0  0 
 52 53  1  0  0  0  0 
 52 54  2  0  0  0  0 
 48 54  1  0  0  0  0 
  6 55  1  0  0  0  0 
 55 56  1  0  0  0  0 
M  END
> <Rank>
25

> <Priority_score>
0.104

> <Reaction_type>
aromatic_hydroxylation_(para_to_carbon)

> <Parent_ID>
60

> <Parent_InChI>
InChI=1S/C23H23ClN6O2/c1-15-3-5-20(30-25-8-9-26-30)18(13-15)22(31)29-12-11-28(10-7-16(29)2)23-27-19-14-17(24)4-6-21(19)32-23/h3-6,8-9,13-14,16H,7,10-12H2,1-2H3

> <Parent_SMILES>
Cc1ccc(-n2nccn2)c(C(=O)N2CCN(c3nc4cc(Cl)ccc4o3)CCC2C)c1

$$$$
Molecule 60_metabolite 26
  CDK     0516241031

 56 60  0  0  0  0  0  0  0  0999 V2000
    9.4594    5.6811    0.0000 C   0  0  0  0  0  0  0  0  0  0  0  0
   10.4799    6.7805    0.0000 H   0  0  0  0  0  0  0  0  0  0  0  0
    8.5539    6.8769    0.0000 H   0  0  0  0  0  0  0  0  0  0  0  0
    8.1245    4.9970    0.0000 H   0  0  0  0  0  0  0  0  0  0  0  0
    9.9013    4.2476    0.0000 C   0  0  0  0  0  0  0  0  0  0  0  0
   11.3644    3.9132    0.0000 C   0  0  0  0  0  0  0  0  0  0  0  0
   12.3847    5.0128    0.0000 H   0  0  0  0  0  0  0  0  0  0  0  0
   11.8073    2.4792    0.0000 C   0  0  0  0  0  0  0  0  0  0  0  0
   13.2697    2.1456    0.0000 H   0  0  0  0  0  0  0  0  0  0  0  0
   10.7870    1.3796    0.0000 C   0  0  0  0  0  0  0  0  0  0  0  0
    9.3239    1.7140    0.0000 C   0  0  0  0  0  0  0  0  0  0  0  0
    8.8811    3.1481    0.0000 C   0  0  0  0  0  0  0  0  0  0  0  0
    7.4186    3.4816    0.0000 H   0  0  0  0  0  0  0  0  0  0  0  0
    8.3037    0.6145    0.0000 C   0  0  0  0  0  0  0  0  0  0  0  0
    8.8873   -1.2776    0.0000 O   0  0  0  0  0  0  0  0  0  0  0  0
    5.4374    1.2687    0.0000 N   0  0  0  0  0  0  0  0  0  0  0  0
    4.2646    2.2039    0.0000 C   0  0  0  0  0  0  0  0  0  0  0  0
    5.4374    3.1392    0.0000 H   0  0  0  0  0  0  0  0  0  0  0  0
    3.6138    3.5554    0.0000 H   0  0  0  0  0  0  0  0  0  0  0  0
    2.8022    1.8701    0.0000 C   0  0  0  0  0  0  0  0  0  0  0  0
    2.8022    3.3701    0.0000 H   0  0  0  0  0  0  0  0  0  0  0  0
    1.3398    2.2039    0.0000 H   0  0  0  0  0  0  0  0  0  0  0  0
    2.1514    0.5187    0.0000 N   0  0  0  0  0  0  0  0  0  0  0  0
    2.8022   -0.8328    0.0000 C   0  0  0  0  0  0  0  0  0  0  0  0
    1.3398   -1.1666    0.0000 H   0  0  0  0  0  0  0  0  0  0  0  0
    2.8022   -2.3328    0.0000 H   0  0  0  0  0  0  0  0  0  0  0  0
    4.2646   -1.1666    0.0000 C   0  0  0  0  0  0  0  0  0  0  0  0
    3.6138   -2.5180    0.0000 H   0  0  0  0  0  0  0  0  0  0  0  0
    5.4374   -2.1018    0.0000 H   0  0  0  0  0  0  0  0  0  0  0  0
    5.4374   -0.2313    0.0000 C   0  0  0  0  0  0  0  0  0  0  0  0
    6.0882   -1.5828    0.0000 H   0  0  0  0  0  0  0  0  0  0  0  0
    6.8998    0.1025    0.0000 C   0  0  0  0  0  0  0  0  0  0  0  0
    7.3419    1.5358    0.0000 H   0  0  0  0  0  0  0  0  0  0  0  0
    8.8644   -0.1437    0.0000 H   0  0  0  0  0  0  0  0  0  0  0  0
    6.9745   -1.3957    0.0000 H   0  0  0  0  0  0  0  0  0  0  0  0
    0.6514    0.5187    0.0000 C   0  0  0  0  0  0  0  0  0  0  0  0
   -0.2286    1.7287    0.0000 N   0  0  0  0  0  0  0  0  0  0  0  0
   -1.6586    1.2687    0.0000 C   0  0  0  0  0  0  0  0  0  0  0  0
   -1.6586   -0.2313    0.0000 C   0  0  0  0  0  0  0  0  0  0  0  0
   -2.9586   -0.9813    0.0000 C   0  0  0  0  0  0  0  0  0  0  0  0
   -2.9586   -2.4813    0.0000 H   0  0  0  0  0  0  0  0  0  0  0  0
   -4.2586   -0.2313    0.0000 C   0  0  0  0  0  0  0  0  0  0  0  0
   -5.5575   -0.9815    0.0000 H   0  0  0  0  0  0  0  0  0  0  0  0
   -4.2586    1.2687    0.0000 C   0  0  0  0  0  0  0  0  0  0  0  0
   -2.9586    2.0187    0.0000 C   0  0  0  0  0  0  0  0  0  0  0  0
   -2.9586    3.5187    0.0000 H   0  0  0  0  0  0  0  0  0  0  0  0
   -5.5575    2.0189    0.0000 Cl  0  0  0  0  0  0  0  0  0  0  0  0
   -0.2286   -0.6913    0.0000 O   0  0  0  0  0  0  0  0  0  0  0  0
    6.0882    2.6201    0.0000 O   0  0  0  0  0  0  0  0  0  0  0  0
   11.2289   -0.0538    0.0000 N   0  0  0  0  0  0  0  0  0  0  0  0
   12.6474   -0.5478    0.0000 N   0  0  0  0  0  0  0  0  0  0  0  0
   12.6262   -2.0403    0.0000 C   0  0  0  0  0  0  0  0  0  0  0  0
   13.8266   -2.9397    0.0000 H   0  0  0  0  0  0  0  0  0  0  0  0
   11.1927   -2.4823    0.0000 C   0  0  0  0  0  0  0  0  0  0  0  0
   10.7071   -3.9014    0.0000 H   0  0  0  0  0  0  0  0  0  0  0  0
   10.3348   -1.2608    0.0000 N   0  0  0  0  0  0  0  0  0  0  0  0
  1  2  1  0  0  0  0 
  1  3  1  0  0  0  0 
  1  4  1  0  0  0  0 
  1  5  1  0  0  0  0 
  5  6  2  0  0  0  0 
  6  7  1  0  0  0  0 
  6  8  1  0  0  0  0 
  8  9  1  0  0  0  0 
  8 10  2  0  0  0  0 
 10 11  1  0  0  0  0 
 11 12  2  0  0  0  0 
  5 12  1  0  0  0  0 
 12 13  1  0  0  0  0 
 11 14  1  0  0  0  0 
 14 15  2  0  0  0  0 
 14 16  1  0  0  0  0 
 16 17  1  0  0  0  0 
 17 18  1  0  0  0  0 
 17 19  1  0  0  0  0 
 17 20  1  0  0  0  0 
 20 21  1  0  0  0  0 
 20 22  1  0  0  0  0 
 20 23  1  0  0  0  0 
 23 24  1  0  0  0  0 
 24 25  1  0  0  0  0 
 24 26  1  0  0  0  0 
 24 27  1  0  0  0  0 
 27 28  1  0  0  0  0 
 27 29  1  0  0  0  0 
 27 30  1  0  0  0  0 
 16 30  1  0  0  0  0 
 30 31  1  0  0  0  0 
 30 32  1  0  0  0  0 
 32 33  1  0  0  0  0 
 32 34  1  0  0  0  0 
 32 35  1  0  0  0  0 
 23 36  1  0  0  0  0 
 36 37  2  0  0  0  0 
 37 38  1  0  0  0  0 
 38 39  2  0  0  0  0 
 39 40  1  0  0  0  0 
 40 41  1  0  0  0  0 
 40 42  2  0  0  0  0 
 42 43  1  0  0  0  0 
 42 44  1  0  0  0  0 
 44 45  2  0  0  0  0 
 38 45  1  0  0  0  0 
 45 46  1  0  0  0  0 
 44 47  1  0  0  0  0 
 39 48  1  0  0  0  0 
 36 48  1  0  0  0  0 
 16 49  1  0  0  0  0 
 10 50  1  0  0  0  0 
 50 51  1  0  0  0  0 
 51 52  2  0  0  0  0 
 52 53  1  0  0  0  0 
 52 54  1  0  0  0  0 
 54 55  1  0  0  0  0 
 54 56  2  0  0  0  0 
 50 56  1  0  0  0  0 
M  CHG  1  16   1
M  CHG  1  49  -1
M  END
> <Rank>
25

> <Priority_score>
0.104

> <Reaction_type>
N-oxidation

> <Parent_ID>
60

> <Parent_InChI>
InChI=1S/C23H23ClN6O2/c1-15-3-5-20(30-25-8-9-26-30)18(13-15)22(31)29-12-11-28(10-7-16(29)2)23-27-19-14-17(24)4-6-21(19)32-23/h3-6,8-9,13-14,16H,7,10-12H2,1-2H3

> <Parent_SMILES>
Cc1ccc(-n2nccn2)c(C(=O)N2CCN(c3nc4cc(Cl)ccc4o3)CCC2C)c1

$$$$
Molecule 60_metabolite 27
  CDK     0516241031

 34 36  0  0  0  0  0  0  0  0999 V2000
    8.4159    0.6245    0.0000 C   0  0  0  0  0  0  0  0  0  0  0  0
    9.4362    1.7241    0.0000 H   0  0  0  0  0  0  0  0  0  0  0  0
    7.8332   -0.7577    0.0000 H   0  0  0  0  0  0  0  0  0  0  0  0
    9.6759   -0.1893    0.0000 H   0  0  0  0  0  0  0  0  0  0  0  0
    6.9535    0.9583    0.0000 C   0  0  0  0  0  0  0  0  0  0  0  0
    7.6043    2.3097    0.0000 H   0  0  0  0  0  0  0  0  0  0  0  0
    5.7808    1.8935    0.0000 C   0  0  0  0  0  0  0  0  0  0  0  0
    6.9535    2.8287    0.0000 H   0  0  0  0  0  0  0  0  0  0  0  0
    5.1299    3.2450    0.0000 H   0  0  0  0  0  0  0  0  0  0  0  0
    4.3184    1.5597    0.0000 C   0  0  0  0  0  0  0  0  0  0  0  0
    4.3184    3.0597    0.0000 H   0  0  0  0  0  0  0  0  0  0  0  0
    2.8560    1.8935    0.0000 H   0  0  0  0  0  0  0  0  0  0  0  0
    3.6675    0.2083    0.0000 N   0  0  0  0  0  0  0  0  0  0  0  0
    4.3184   -1.1432    0.0000 C   0  0  0  0  0  0  0  0  0  0  0  0
    2.8560   -1.4770    0.0000 H   0  0  0  0  0  0  0  0  0  0  0  0
    4.3184   -2.6432    0.0000 H   0  0  0  0  0  0  0  0  0  0  0  0
    5.7808   -1.4770    0.0000 C   0  0  0  0  0  0  0  0  0  0  0  0
    5.1299   -2.8284    0.0000 H   0  0  0  0  0  0  0  0  0  0  0  0
    6.9535   -2.4122    0.0000 H   0  0  0  0  0  0  0  0  0  0  0  0
    6.9535   -0.5417    0.0000 N   0  0  0  0  0  0  0  0  0  0  0  0
    8.7374   -1.4008    0.0000 H   0  0  0  0  0  0  0  0  0  0  0  0
    2.1675    0.2083    0.0000 C   0  0  0  0  0  0  0  0  0  0  0  0
    1.2875    1.4183    0.0000 N   0  0  0  0  0  0  0  0  0  0  0  0
   -0.1425    0.9583    0.0000 C   0  0  0  0  0  0  0  0  0  0  0  0
   -0.1425   -0.5417    0.0000 C   0  0  0  0  0  0  0  0  0  0  0  0
   -1.4425   -1.2917    0.0000 C   0  0  0  0  0  0  0  0  0  0  0  0
   -1.4425   -2.7917    0.0000 H   0  0  0  0  0  0  0  0  0  0  0  0
   -2.7425   -0.5417    0.0000 C   0  0  0  0  0  0  0  0  0  0  0  0
   -4.0414   -1.2919    0.0000 H   0  0  0  0  0  0  0  0  0  0  0  0
   -2.7425    0.9583    0.0000 C   0  0  0  0  0  0  0  0  0  0  0  0
   -1.4425    1.7083    0.0000 C   0  0  0  0  0  0  0  0  0  0  0  0
   -1.4425    3.2083    0.0000 H   0  0  0  0  0  0  0  0  0  0  0  0
   -4.0414    1.7085    0.0000 Cl  0  0  0  0  0  0  0  0  0  0  0  0
    1.2875   -1.0017    0.0000 O   0  0  0  0  0  0  0  0  0  0  0  0
  1  2  1  0  0  0  0 
  1  3  1  0  0  0  0 
  1  4  1  0  0  0  0 
  1  5  1  0  0  0  0 
  5  6  1  0  0  0  0 
  5  7  1  0  0  0  0 
  7  8  1  0  0  0  0 
  7  9  1  0  0  0  0 
  7 10  1  0  0  0  0 
 10 11  1  0  0  0  0 
 10 12  1  0  0  0  0 
 10 13  1  0  0  0  0 
 13 14  1  0  0  0  0 
 14 15  1  0  0  0  0 
 14 16  1  0  0  0  0 
 14 17  1  0  0  0  0 
 17 18  1  0  0  0  0 
 17 19  1  0  0  0  0 
 17 20  1  0  0  0  0 
  5 20  1  0  0  0  0 
 20 21  1  0  0  0  0 
 13 22  1  0  0  0  0 
 22 23  2  0  0  0  0 
 23 24  1  0  0  0  0 
 24 25  2  0  0  0  0 
 25 26  1  0  0  0  0 
 26 27  1  0  0  0  0 
 26 28  2  0  0  0  0 
 28 29  1  0  0  0  0 
 28 30  1  0  0  0  0 
 30 31  2  0  0  0  0 
 24 31  1  0  0  0  0 
 31 32  1  0  0  0  0 
 30 33  1  0  0  0  0 
 25 34  1  0  0  0  0 
 22 34  1  0  0  0  0 
M  END
> <Rank>
25

> <Priority_score>
0.104

> <Reaction_type>
hydrolysis_(tertiary_amide)

> <Parent_ID>
60

> <Parent_InChI>
InChI=1S/C23H23ClN6O2/c1-15-3-5-20(30-25-8-9-26-30)18(13-15)22(31)29-12-11-28(10-7-16(29)2)23-27-19-14-17(24)4-6-21(19)32-23/h3-6,8-9,13-14,16H,7,10-12H2,1-2H3

> <Parent_SMILES>
Cc1ccc(-n2nccn2)c(C(=O)N2CCN(c3nc4cc(Cl)ccc4o3)CCC2C)c1

$$$$
Molecule 60_metabolite 28
  CDK     0516241031

 24 25  0  0  0  0  0  0  0  0999 V2000
   -5.3569    4.5218    0.0000 C   0  0  0  0  0  0  0  0  0  0  0  0
   -6.1069    3.2228    0.0000 H   0  0  0  0  0  0  0  0  0  0  0  0
   -5.0964    5.9990    0.0000 H   0  0  0  0  0  0  0  0  0  0  0  0
   -6.7664    5.0348    0.0000 H   0  0  0  0  0  0  0  0  0  0  0  0
   -3.8569    4.5218    0.0000 C   0  0  0  0  0  0  0  0  0  0  0  0
   -3.1062    5.8214    0.0000 C   0  0  0  0  0  0  0  0  0  0  0  0
   -3.8564    7.1204    0.0000 H   0  0  0  0  0  0  0  0  0  0  0  0
   -1.6054    5.8222    0.0000 C   0  0  0  0  0  0  0  0  0  0  0  0
   -0.8558    7.1214    0.0000 H   0  0  0  0  0  0  0  0  0  0  0  0
   -0.8552    4.5233    0.0000 C   0  0  0  0  0  0  0  0  0  0  0  0
   -1.6058    3.2236    0.0000 C   0  0  0  0  0  0  0  0  0  0  0  0
   -3.1066    3.2229    0.0000 C   0  0  0  0  0  0  0  0  0  0  0  0
   -3.8562    1.9236    0.0000 H   0  0  0  0  0  0  0  0  0  0  0  0
   -0.8556    1.9247    0.0000 C   0  0  0  0  0  0  0  0  0  0  0  0
    0.6444    1.9249    0.0000 O   0  0  0  0  0  0  0  0  0  0  0  0
   -1.6054    0.6255    0.0000 O   0  0  0  0  0  0  0  0  0  0  0  0
   -0.8552   -0.6734    0.0000 H   0  0  0  0  0  0  0  0  0  0  0  0
    0.6448    4.5233    0.0000 N   0  0  0  0  0  0  0  0  0  0  0  0
    1.5348    5.7333    0.0000 N   0  0  0  0  0  0  0  0  0  0  0  0
    2.9548    5.2733    0.0000 C   0  0  0  0  0  0  0  0  0  0  0  0
    4.1680    6.1555    0.0000 H   0  0  0  0  0  0  0  0  0  0  0  0
    2.9548    3.7733    0.0000 C   0  0  0  0  0  0  0  0  0  0  0  0
    4.1680    2.8910    0.0000 H   0  0  0  0  0  0  0  0  0  0  0  0
    1.5348    3.3133    0.0000 N   0  0  0  0  0  0  0  0  0  0  0  0
  1  2  1  0  0  0  0 
  1  3  1  0  0  0  0 
  1  4  1  0  0  0  0 
  1  5  1  0  0  0  0 
  5  6  2  0  0  0  0 
  6  7  1  0  0  0  0 
  6  8  1  0  0  0  0 
  8  9  1  0  0  0  0 
  8 10  2  0  0  0  0 
 10 11  1  0  0  0  0 
 11 12  2  0  0  0  0 
  5 12  1  0  0  0  0 
 12 13  1  0  0  0  0 
 11 14  1  0  0  0  0 
 14 15  2  0  0  0  0 
 14 16  1  0  0  0  0 
 16 17  1  0  0  0  0 
 10 18  1  0  0  0  0 
 18 19  1  0  0  0  0 
 19 20  2  0  0  0  0 
 20 21  1  0  0  0  0 
 20 22  1  0  0  0  0 
 22 23  1  0  0  0  0 
 22 24  2  0  0  0  0 
 18 24  1  0  0  0  0 
M  END
> <Rank>
25

> <Priority_score>
0.104

> <Reaction_type>
hydrolysis_(tertiary_amide)

> <Parent_ID>
60

> <Parent_InChI>
InChI=1S/C23H23ClN6O2/c1-15-3-5-20(30-25-8-9-26-30)18(13-15)22(31)29-12-11-28(10-7-16(29)2)23-27-19-14-17(24)4-6-21(19)32-23/h3-6,8-9,13-14,16H,7,10-12H2,1-2H3

> <Parent_SMILES>
Cc1ccc(-n2nccn2)c(C(=O)N2CCN(c3nc4cc(Cl)ccc4o3)CCC2C)c1

$$$$
Molecule 60_metabolite 29
  CDK     0516241031

 76 81  0  0  0  0  0  0  0  0999 V2000
    4.2762    2.0478    0.0000 C   0  0  0  0  0  0  0  0  0  0  0  0
    2.9249    1.3967    0.0000 H   0  0  0  0  0  0  0  0  0  0  0  0
    3.4004    3.2656    0.0000 H   0  0  0  0  0  0  0  0  0  0  0  0
    5.3234    3.1218    0.0000 H   0  0  0  0  0  0  0  0  0  0  0  0
    5.5157    1.2030    0.0000 C   0  0  0  0  0  0  0  0  0  0  0  0
    5.4040   -0.2937    0.0000 C   0  0  0  0  0  0  0  0  0  0  0  0
    4.0526   -0.9445    0.0000 H   0  0  0  0  0  0  0  0  0  0  0  0
    6.6438   -1.1395    0.0000 C   0  0  0  0  0  0  0  0  0  0  0  0
    6.4596   -3.5926    0.0000 H   0  0  0  0  0  0  0  0  0  0  0  0
    7.9952   -0.4887    0.0000 C   0  0  0  0  0  0  0  0  0  0  0  0
    8.1069    1.0080    0.0000 C   0  0  0  0  0  0  0  0  0  0  0  0
    6.8671    1.8538    0.0000 C   0  0  0  0  0  0  0  0  0  0  0  0
    6.9795    3.3496    0.0000 H   0  0  0  0  0  0  0  0  0  0  0  0
    9.4584    1.6588    0.0000 C   0  0  0  0  0  0  0  0  0  0  0  0
   10.6977    0.8138    0.0000 O   0  0  0  0  0  0  0  0  0  0  0  0
    9.6422    4.1119    0.0000 N   0  0  0  0  0  0  0  0  0  0  0  0
    8.3432    4.8619    0.0000 C   0  0  0  0  0  0  0  0  0  0  0  0
    7.9010    3.4286    0.0000 H   0  0  0  0  0  0  0  0  0  0  0  0
    6.8474    4.9740    0.0000 H   0  0  0  0  0  0  0  0  0  0  0  0
    8.1196    6.3452    0.0000 C   0  0  0  0  0  0  0  0  0  0  0  0
    6.7233    5.7972    0.0000 H   0  0  0  0  0  0  0  0  0  0  0  0
    7.2746    7.5845    0.0000 H   0  0  0  0  0  0  0  0  0  0  0  0
    9.1399    7.4448    0.0000 N   0  0  0  0  0  0  0  0  0  0  0  0
   10.6357    7.3327    0.0000 C   0  0  0  0  0  0  0  0  0  0  0  0
   10.4121    8.8159    0.0000 H   0  0  0  0  0  0  0  0  0  0  0  0
   12.0320    7.8807    0.0000 H   0  0  0  0  0  0  0  0  0  0  0  0
   11.4807    6.0933    0.0000 C   0  0  0  0  0  0  0  0  0  0  0  0
   12.5009    7.1929    0.0000 H   0  0  0  0  0  0  0  0  0  0  0  0
   12.7797    5.3433    0.0000 H   0  0  0  0  0  0  0  0  0  0  0  0
   11.0385    4.6599    0.0000 C   0  0  0  0  0  0  0  0  0  0  0  0
   12.5343    4.5479    0.0000 H   0  0  0  0  0  0  0  0  0  0  0  0
   11.2621    3.1767    0.0000 C   0  0  0  0  0  0  0  0  0  0  0  0
   10.0893    2.2415    0.0000 H   0  0  0  0  0  0  0  0  0  0  0  0
   11.9795    1.8594    0.0000 H   0  0  0  0  0  0  0  0  0  0  0  0
   12.6840    3.6544    0.0000 H   0  0  0  0  0  0  0  0  0  0  0  0
    8.5919    8.8411    0.0000 C   0  0  0  0  0  0  0  0  0  0  0  0
    7.1440    9.2182    0.0000 N   0  0  0  0  0  0  0  0  0  0  0  0
    7.0498   10.7174    0.0000 C   0  0  0  0  0  0  0  0  0  0  0  0
    8.4461   11.2654    0.0000 C   0  0  0  0  0  0  0  0  0  0  0  0
    8.6693   12.7495    0.0000 C   0  0  0  0  0  0  0  0  0  0  0  0
   10.0656   13.2975    0.0000 H   0  0  0  0  0  0  0  0  0  0  0  0
    7.4962   13.6857    0.0000 C   0  0  0  0  0  0  0  0  0  0  0  0
    7.7200   15.1689    0.0000 H   0  0  0  0  0  0  0  0  0  0  0  0
    6.0999   13.1377    0.0000 C   0  0  0  0  0  0  0  0  0  0  0  0
    5.8767   11.6535    0.0000 C   0  0  0  0  0  0  0  0  0  0  0  0
    4.4804   11.1055    0.0000 H   0  0  0  0  0  0  0  0  0  0  0  0
    4.9270   14.0727    0.0000 Cl  0  0  0  0  0  0  0  0  0  0  0  0
    9.3967   10.1023    0.0000 O   0  0  0  0  0  0  0  0  0  0  0  0
    9.2347   -1.3335    0.0000 N   0  0  0  0  0  0  0  0  0  0  0  0
   10.6516   -0.8348    0.0000 N   0  0  0  0  0  0  0  0  0  0  0  0
   11.5659   -2.0147    0.0000 C   0  0  0  0  0  0  0  0  0  0  0  0
   13.0653   -1.9689    0.0000 H   0  0  0  0  0  0  0  0  0  0  0  0
   10.7212   -3.2542    0.0000 C   0  0  0  0  0  0  0  0  0  0  0  0
   11.2268   -4.6664    0.0000 H   0  0  0  0  0  0  0  0  0  0  0  0
    9.2887   -2.8346    0.0000 N   0  0  0  0  0  0  0  0  0  0  0  0
    7.3467   -4.3446    0.0000 C   0  0  0  0  0  0  0  0  0  0  0  0
    7.1412   -2.8587    0.0000 H   0  0  0  0  0  0  0  0  0  0  0  0
    5.9191   -4.8050    0.0000 C   0  0  0  0  0  0  0  0  0  0  0  0
    5.7133   -3.3192    0.0000 H   0  0  0  0  0  0  0  0  0  0  0  0
    5.6044   -6.2725    0.0000 C   0  0  0  0  0  0  0  0  0  0  0  0
    4.2148   -5.7078    0.0000 H   0  0  0  0  0  0  0  0  0  0  0  0
    6.7173   -7.2795    0.0000 C   0  0  0  0  0  0  0  0  0  0  0  0
    5.5331   -8.2002    0.0000 H   0  0  0  0  0  0  0  0  0  0  0  0
    8.1449   -6.8190    0.0000 C   0  0  0  0  0  0  0  0  0  0  0  0
    8.3506   -8.3048    0.0000 H   0  0  0  0  0  0  0  0  0  0  0  0
    9.6438   -6.8742    0.0000 C   0  0  0  0  0  0  0  0  0  0  0  0
   10.4412   -5.6037    0.0000 O   0  0  0  0  0  0  0  0  0  0  0  0
   10.5701   -8.6242    0.0000 O   0  0  0  0  0  0  0  0  0  0  0  0
    9.7728   -9.8948    0.0000 H   0  0  0  0  0  0  0  0  0  0  0  0
    8.4596   -5.3515    0.0000 O   0  0  0  0  0  0  0  0  0  0  0  0
    7.4186   -8.6055    0.0000 O   0  0  0  0  0  0  0  0  0  0  0  0
    6.6208   -9.8758    0.0000 H   0  0  0  0  0  0  0  0  0  0  0  0
    4.8067   -7.5428    0.0000 O   0  0  0  0  0  0  0  0  0  0  0  0
    3.3077   -7.4871    0.0000 H   0  0  0  0  0  0  0  0  0  0  0  0
    4.4201   -4.7498    0.0000 O   0  0  0  0  0  0  0  0  0  0  0  0
    3.7184   -3.4241    0.0000 H   0  0  0  0  0  0  0  0  0  0  0  0
  1  2  1  0  0  0  0 
  1  3  1  0  0  0  0 
  1  4  1  0  0  0  0 
  1  5  1  0  0  0  0 
  5  6  2  0  0  0  0 
  6  7  1  0  0  0  0 
  6  8  1  0  0  0  0 
  8  9  1  0  0  0  0 
  8 10  2  0  0  0  0 
 10 11  1  0  0  0  0 
 11 12  2  0  0  0  0 
  5 12  1  0  0  0  0 
 12 13  1  0  0  0  0 
 11 14  1  0  0  0  0 
 14 15  2  0  0  0  0 
 14 16  1  0  0  0  0 
 16 17  1  0  0  0  0 
 17 18  1  0  0  0  0 
 17 19  1  0  0  0  0 
 17 20  1  0  0  0  0 
 20 21  1  0  0  0  0 
 20 22  1  0  0  0  0 
 20 23  1  0  0  0  0 
 23 24  1  0  0  0  0 
 24 25  1  0  0  0  0 
 24 26  1  0  0  0  0 
 24 27  1  0  0  0  0 
 27 28  1  0  0  0  0 
 27 29  1  0  0  0  0 
 27 30  1  0  0  0  0 
 16 30  1  0  0  0  0 
 30 31  1  0  0  0  0 
 30 32  1  0  0  0  0 
 32 33  1  0  0  0  0 
 32 34  1  0  0  0  0 
 32 35  1  0  0  0  0 
 23 36  1  0  0  0  0 
 36 37  2  0  0  0  0 
 37 38  1  0  0  0  0 
 38 39  2  0  0  0  0 
 39 40  1  0  0  0  0 
 40 41  1  0  0  0  0 
 40 42  2  0  0  0  0 
 42 43  1  0  0  0  0 
 42 44  1  0  0  0  0 
 44 45  2  0  0  0  0 
 38 45  1  0  0  0  0 
 45 46  1  0  0  0  0 
 44 47  1  0  0  0  0 
 39 48  1  0  0  0  0 
 36 48  1  0  0  0  0 
 10 49  1  0  0  0  0 
 49 50  1  0  0  0  0 
 50 51  2  0  0  0  0 
 51 52  1  0  0  0  0 
 51 53  1  0  0  0  0 
 53 54  1  0  0  0  0 
 53 55  2  0  0  0  0 
 49 55  1  0  0  0  0 
 55 56  1  0  0  0  0 
 56 57  1  0  0  0  0 
 56 58  1  0  0  0  0 
 58 59  1  0  0  0  0 
 58 60  1  0  0  0  0 
 60 61  1  0  0  0  0 
 60 62  1  0  0  0  0 
 62 63  1  0  0  0  0 
 62 64  1  0  0  0  0 
 64 65  1  0  0  0  0 
 64 66  1  0  0  0  0 
 66 67  2  0  0  0  0 
 66 68  1  0  0  0  0 
 68 69  1  0  0  0  0 
 64 70  1  0  0  0  0 
 56 70  1  0  0  0  0 
 62 71  1  0  0  0  0 
 71 72  1  0  0  0  0 
 60 73  1  0  0  0  0 
 73 74  1  0  0  0  0 
 58 75  1  0  0  0  0 
 75 76  1  0  0  0  0 
M  CHG  1  55   1
M  END
> <Rank>
29

> <Priority_score>
0.088

> <Reaction_type>
N-glucuronidation_(aromatic_=n-)

> <Parent_ID>
60

> <Parent_InChI>
InChI=1S/C23H23ClN6O2/c1-15-3-5-20(30-25-8-9-26-30)18(13-15)22(31)29-12-11-28(10-7-16(29)2)23-27-19-14-17(24)4-6-21(19)32-23/h3-6,8-9,13-14,16H,7,10-12H2,1-2H3

> <Parent_SMILES>
Cc1ccc(-n2nccn2)c(C(=O)N2CCN(c3nc4cc(Cl)ccc4o3)CCC2C)c1

$$$$
Molecule 60_metabolite 30
  CDK     0516241031

 56 59  0  0  0  0  0  0  0  0999 V2000
   14.5413    6.2445    0.0000 C   0  0  0  0  0  0  0  0  0  0  0  0
   16.0413    6.2443    0.0000 H   0  0  0  0  0  0  0  0  0  0  0  0
   14.8020    7.7217    0.0000 H   0  0  0  0  0  0  0  0  0  0  0  0
   13.1318    6.7578    0.0000 H   0  0  0  0  0  0  0  0  0  0  0  0
   13.7911    4.9456    0.0000 C   0  0  0  0  0  0  0  0  0  0  0  0
   14.5411    3.6456    0.0000 C   0  0  0  0  0  0  0  0  0  0  0  0
   16.0411    3.6456    0.0000 H   0  0  0  0  0  0  0  0  0  0  0  0
   13.7911    2.3456    0.0000 C   0  0  0  0  0  0  0  0  0  0  0  0
   14.5413    1.0467    0.0000 H   0  0  0  0  0  0  0  0  0  0  0  0
   12.2911    2.3456    0.0000 C   0  0  0  0  0  0  0  0  0  0  0  0
   11.5411    3.6456    0.0000 C   0  0  0  0  0  0  0  0  0  0  0  0
   12.2911    4.9456    0.0000 C   0  0  0  0  0  0  0  0  0  0  0  0
   11.5408    6.2445    0.0000 H   0  0  0  0  0  0  0  0  0  0  0  0
   10.0411    3.6456    0.0000 C   0  0  0  0  0  0  0  0  0  0  0  0
    9.2911    2.3466    0.0000 O   0  0  0  0  0  0  0  0  0  0  0  0
    9.2911    4.9446    0.0000 N   0  0  0  0  0  0  0  0  0  0  0  0
   10.0411    6.2437    0.0000 H   0  0  0  0  0  0  0  0  0  0  0  0
    7.7911    4.9446    0.0000 C   0  0  0  0  0  0  0  0  0  0  0  0
    8.0515    3.4674    0.0000 H   0  0  0  0  0  0  0  0  0  0  0  0
    5.9305    4.2674    0.0000 C   0  0  0  0  0  0  0  0  0  0  0  0
    4.7814    5.2316    0.0000 H   0  0  0  0  0  0  0  0  0  0  0  0
    4.7814    3.3032    0.0000 H   0  0  0  0  0  0  0  0  0  0  0  0
    6.6805    2.9684    0.0000 H   0  0  0  0  0  0  0  0  0  0  0  0
    7.0411    6.2437    0.0000 C   0  0  0  0  0  0  0  0  0  0  0  0
    5.8920    7.2078    0.0000 H   0  0  0  0  0  0  0  0  0  0  0  0
    5.8920    5.2795    0.0000 H   0  0  0  0  0  0  0  0  0  0  0  0
    7.7911    7.5427    0.0000 C   0  0  0  0  0  0  0  0  0  0  0  0
    8.9401    6.5785    0.0000 H   0  0  0  0  0  0  0  0  0  0  0  0
    8.9401    8.5069    0.0000 H   0  0  0  0  0  0  0  0  0  0  0  0
    6.8011    9.2574    0.0000 N   0  0  0  0  0  0  0  0  0  0  0  0
    7.5511   10.5565    0.0000 C   0  0  0  0  0  0  0  0  0  0  0  0
    8.7001   11.5207    0.0000 H   0  0  0  0  0  0  0  0  0  0  0  0
    8.7001    9.5923    0.0000 H   0  0  0  0  0  0  0  0  0  0  0  0
    6.8011   11.8555    0.0000 C   0  0  0  0  0  0  0  0  0  0  0  0
    7.5511   13.1546    0.0000 H   0  0  0  0  0  0  0  0  0  0  0  0
    5.3011   11.8555    0.0000 O   0  0  0  0  0  0  0  0  0  0  0  0
    5.3011    9.2574    0.0000 C   0  0  0  0  0  0  0  0  0  0  0  0
    4.4211    8.0474    0.0000 N   0  0  0  0  0  0  0  0  0  0  0  0
    2.9911    8.5074    0.0000 C   0  0  0  0  0  0  0  0  0  0  0  0
    2.9911   10.0074    0.0000 C   0  0  0  0  0  0  0  0  0  0  0  0
    1.6911   10.7574    0.0000 C   0  0  0  0  0  0  0  0  0  0  0  0
    1.6911   12.2574    0.0000 H   0  0  0  0  0  0  0  0  0  0  0  0
    0.3911   10.0074    0.0000 C   0  0  0  0  0  0  0  0  0  0  0  0
   -0.9079   10.7576    0.0000 H   0  0  0  0  0  0  0  0  0  0  0  0
    0.3911    8.5074    0.0000 C   0  0  0  0  0  0  0  0  0  0  0  0
    1.6911    7.7574    0.0000 C   0  0  0  0  0  0  0  0  0  0  0  0
    1.6911    6.2574    0.0000 H   0  0  0  0  0  0  0  0  0  0  0  0
   -0.9079    7.7572    0.0000 Cl  0  0  0  0  0  0  0  0  0  0  0  0
    4.4211   10.4674    0.0000 O   0  0  0  0  0  0  0  0  0  0  0  0
   11.5408    1.0467    0.0000 N   0  0  0  0  0  0  0  0  0  0  0  0
   12.1435   -0.3292    0.0000 N   0  0  0  0  0  0  0  0  0  0  0  0
   11.0350   -1.3288    0.0000 C   0  0  0  0  0  0  0  0  0  0  0  0
   11.1922   -2.8205    0.0000 H   0  0  0  0  0  0  0  0  0  0  0  0
    9.7361   -0.5786    0.0000 C   0  0  0  0  0  0  0  0  0  0  0  0
    8.3654   -1.1878    0.0000 H   0  0  0  0  0  0  0  0  0  0  0  0
   10.0479    0.8812    0.0000 N   0  0  0  0  0  0  0  0  0  0  0  0
  1  2  1  0  0  0  0 
  1  3  1  0  0  0  0 
  1  4  1  0  0  0  0 
  1  5  1  0  0  0  0 
  5  6  2  0  0  0  0 
  6  7  1  0  0  0  0 
  6  8  1  0  0  0  0 
  8  9  1  0  0  0  0 
  8 10  2  0  0  0  0 
 10 11  1  0  0  0  0 
 11 12  2  0  0  0  0 
  5 12  1  0  0  0  0 
 12 13  1  0  0  0  0 
 11 14  1  0  0  0  0 
 14 15  2  0  0  0  0 
 14 16  1  0  0  0  0 
 16 17  1  0  0  0  0 
 16 18  1  0  0  0  0 
 18 19  1  0  0  0  0 
 18 20  1  0  0  0  0 
 20 21  1  0  0  0  0 
 20 22  1  0  0  0  0 
 20 23  1  0  0  0  0 
 18 24  1  0  0  0  0 
 24 25  1  0  0  0  0 
 24 26  1  0  0  0  0 
 24 27  1  0  0  0  0 
 27 28  1  0  0  0  0 
 27 29  1  0  0  0  0 
 27 30  1  0  0  0  0 
 30 31  1  0  0  0  0 
 31 32  1  0  0  0  0 
 31 33  1  0  0  0  0 
 31 34  1  0  0  0  0 
 34 35  1  0  0  0  0 
 34 36  2  0  0  0  0 
 30 37  1  0  0  0  0 
 37 38  2  0  0  0  0 
 38 39  1  0  0  0  0 
 39 40  2  0  0  0  0 
 40 41  1  0  0  0  0 
 41 42  1  0  0  0  0 
 41 43  2  0  0  0  0 
 43 44  1  0  0  0  0 
 43 45  1  0  0  0  0 
 45 46  2  0  0  0  0 
 39 46  1  0  0  0  0 
 46 47  1  0  0  0  0 
 45 48  1  0  0  0  0 
 40 49  1  0  0  0  0 
 37 49  1  0  0  0  0 
 10 50  1  0  0  0  0 
 50 51  1  0  0  0  0 
 51 52  2  0  0  0  0 
 52 53  1  0  0  0  0 
 52 54  1  0  0  0  0 
 54 55  1  0  0  0  0 
 54 56  2  0  0  0  0 
 50 56  1  0  0  0  0 
M  END
> <Rank>
30

> <Priority_score>
0.076

> <Reaction_type>
N-dealkylation

> <Parent_ID>
60

> <Parent_InChI>
InChI=1S/C23H23ClN6O2/c1-15-3-5-20(30-25-8-9-26-30)18(13-15)22(31)29-12-11-28(10-7-16(29)2)23-27-19-14-17(24)4-6-21(19)32-23/h3-6,8-9,13-14,16H,7,10-12H2,1-2H3

> <Parent_SMILES>
Cc1ccc(-n2nccn2)c(C(=O)N2CCN(c3nc4cc(Cl)ccc4o3)CCC2C)c1

$$$$
Molecule 60_metabolite 31
  CDK     0516241031

 56 60  0  0  0  0  0  0  0  0999 V2000
    3.0766    1.8257    0.0000 C   0  0  0  0  0  0  0  0  0  0  0  0
    1.7252    1.1746    0.0000 H   0  0  0  0  0  0  0  0  0  0  0  0
    2.2008    3.0434    0.0000 H   0  0  0  0  0  0  0  0  0  0  0  0
    4.1238    2.8996    0.0000 H   0  0  0  0  0  0  0  0  0  0  0  0
    4.3161    0.9809    0.0000 C   0  0  0  0  0  0  0  0  0  0  0  0
    4.2044   -0.5158    0.0000 C   0  0  0  0  0  0  0  0  0  0  0  0
    2.8529   -1.1666    0.0000 H   0  0  0  0  0  0  0  0  0  0  0  0
    5.4442   -1.3616    0.0000 C   0  0  0  0  0  0  0  0  0  0  0  0
    5.3318   -2.8574    0.0000 H   0  0  0  0  0  0  0  0  0  0  0  0
    6.7956   -0.7108    0.0000 C   0  0  0  0  0  0  0  0  0  0  0  0
    6.9073    0.7859    0.0000 C   0  0  0  0  0  0  0  0  0  0  0  0
    5.6675    1.6317    0.0000 C   0  0  0  0  0  0  0  0  0  0  0  0
    5.7799    3.1275    0.0000 H   0  0  0  0  0  0  0  0  0  0  0  0
    8.2588    1.4367    0.0000 C   0  0  0  0  0  0  0  0  0  0  0  0
    9.4981    0.5917    0.0000 O   0  0  0  0  0  0  0  0  0  0  0  0
    8.4067    3.4112    0.0000 N   0  0  0  0  0  0  0  0  0  0  0  0
    7.1077    4.1612    0.0000 C   0  0  0  0  0  0  0  0  0  0  0  0
    6.6656    2.7278    0.0000 H   0  0  0  0  0  0  0  0  0  0  0  0
    5.6119    4.2733    0.0000 H   0  0  0  0  0  0  0  0  0  0  0  0
    6.8841    5.6444    0.0000 C   0  0  0  0  0  0  0  0  0  0  0  0
    5.4878    5.0964    0.0000 H   0  0  0  0  0  0  0  0  0  0  0  0
    6.0391    6.8838    0.0000 H   0  0  0  0  0  0  0  0  0  0  0  0
    7.9044    6.7440    0.0000 N   0  0  0  0  0  0  0  0  0  0  0  0
    9.4002    6.6319    0.0000 C   0  0  0  0  0  0  0  0  0  0  0  0
    9.1766    8.1151    0.0000 H   0  0  0  0  0  0  0  0  0  0  0  0
   10.7965    7.1799    0.0000 H   0  0  0  0  0  0  0  0  0  0  0  0
   10.2452    5.3925    0.0000 C   0  0  0  0  0  0  0  0  0  0  0  0
   11.2654    6.4921    0.0000 H   0  0  0  0  0  0  0  0  0  0  0  0
   11.5442    4.6425    0.0000 H   0  0  0  0  0  0  0  0  0  0  0  0
    9.8030    3.9592    0.0000 C   0  0  0  0  0  0  0  0  0  0  0  0
   11.7775    3.8112    0.0000 C   0  0  0  0  0  0  0  0  0  0  0  0
   12.4283    2.4598    0.0000 H   0  0  0  0  0  0  0  0  0  0  0  0
   12.3944    5.1785    0.0000 H   0  0  0  0  0  0  0  0  0  0  0  0
   13.2214    4.2175    0.0000 H   0  0  0  0  0  0  0  0  0  0  0  0
   10.0266    2.4759    0.0000 O   0  0  0  0  0  0  0  0  0  0  0  0
   11.4229    1.9279    0.0000 H   0  0  0  0  0  0  0  0  0  0  0  0
    7.3564    8.1403    0.0000 C   0  0  0  0  0  0  0  0  0  0  0  0
    5.9085    8.5174    0.0000 N   0  0  0  0  0  0  0  0  0  0  0  0
    5.8143   10.0166    0.0000 C   0  0  0  0  0  0  0  0  0  0  0  0
    7.2106   10.5646    0.0000 C   0  0  0  0  0  0  0  0  0  0  0  0
    7.4338   12.0488    0.0000 C   0  0  0  0  0  0  0  0  0  0  0  0
    8.8301   12.5968    0.0000 H   0  0  0  0  0  0  0  0  0  0  0  0
    6.2607   12.9849    0.0000 C   0  0  0  0  0  0  0  0  0  0  0  0
    6.4845   14.4681    0.0000 H   0  0  0  0  0  0  0  0  0  0  0  0
    4.8644   12.4369    0.0000 C   0  0  0  0  0  0  0  0  0  0  0  0
    4.6412   10.9527    0.0000 C   0  0  0  0  0  0  0  0  0  0  0  0
    3.2449   10.4047    0.0000 H   0  0  0  0  0  0  0  0  0  0  0  0
    3.6915   13.3719    0.0000 Cl  0  0  0  0  0  0  0  0  0  0  0  0
    8.1612    9.4015    0.0000 O   0  0  0  0  0  0  0  0  0  0  0  0
    8.0351   -1.5556    0.0000 N   0  0  0  0  0  0  0  0  0  0  0  0
    8.0891   -3.0567    0.0000 N   0  0  0  0  0  0  0  0  0  0  0  0
    9.5216   -3.4763    0.0000 C   0  0  0  0  0  0  0  0  0  0  0  0
   10.0271   -4.8885    0.0000 H   0  0  0  0  0  0  0  0  0  0  0  0
   10.3663   -2.2368    0.0000 C   0  0  0  0  0  0  0  0  0  0  0  0
   11.8656   -2.1910    0.0000 H   0  0  0  0  0  0  0  0  0  0  0  0
    9.4520   -1.0570    0.0000 N   0  0  0  0  0  0  0  0  0  0  0  0
  1  2  1  0  0  0  0 
  1  3  1  0  0  0  0 
  1  4  1  0  0  0  0 
  1  5  1  0  0  0  0 
  5  6  2  0  0  0  0 
  6  7  1  0  0  0  0 
  6  8  1  0  0  0  0 
  8  9  1  0  0  0  0 
  8 10  2  0  0  0  0 
 10 11  1  0  0  0  0 
 11 12  2  0  0  0  0 
  5 12  1  0  0  0  0 
 12 13  1  0  0  0  0 
 11 14  1  0  0  0  0 
 14 15  2  0  0  0  0 
 14 16  1  0  0  0  0 
 16 17  1  0  0  0  0 
 17 18  1  0  0  0  0 
 17 19  1  0  0  0  0 
 17 20  1  0  0  0  0 
 20 21  1  0  0  0  0 
 20 22  1  0  0  0  0 
 20 23  1  0  0  0  0 
 23 24  1  0  0  0  0 
 24 25  1  0  0  0  0 
 24 26  1  0  0  0  0 
 24 27  1  0  0  0  0 
 27 28  1  0  0  0  0 
 27 29  1  0  0  0  0 
 27 30  1  0  0  0  0 
 16 30  1  0  0  0  0 
 30 31  1  0  0  0  0 
 31 32  1  0  0  0  0 
 31 33  1  0  0  0  0 
 31 34  1  0  0  0  0 
 30 35  1  0  0  0  0 
 35 36  1  0  0  0  0 
 23 37  1  0  0  0  0 
 37 38  2  0  0  0  0 
 38 39  1  0  0  0  0 
 39 40  2  0  0  0  0 
 40 41  1  0  0  0  0 
 41 42  1  0  0  0  0 
 41 43  2  0  0  0  0 
 43 44  1  0  0  0  0 
 43 45  1  0  0  0  0 
 45 46  2  0  0  0  0 
 39 46  1  0  0  0  0 
 46 47  1  0  0  0  0 
 45 48  1  0  0  0  0 
 40 49  1  0  0  0  0 
 37 49  1  0  0  0  0 
 10 50  1  0  0  0  0 
 50 51  1  0  0  0  0 
 51 52  2  0  0  0  0 
 52 53  1  0  0  0  0 
 52 54  1  0  0  0  0 
 54 55  1  0  0  0  0 
 54 56  2  0  0  0  0 
 50 56  1  0  0  0  0 
M  END
> <Rank>
31

> <Priority_score>
0.072

> <Reaction_type>
aliphatic_hydroxylation_(tert_carbon_next_to_SP2)

> <Parent_ID>
60

> <Parent_InChI>
InChI=1S/C23H23ClN6O2/c1-15-3-5-20(30-25-8-9-26-30)18(13-15)22(31)29-12-11-28(10-7-16(29)2)23-27-19-14-17(24)4-6-21(19)32-23/h3-6,8-9,13-14,16H,7,10-12H2,1-2H3

> <Parent_SMILES>
Cc1ccc(-n2nccn2)c(C(=O)N2CCN(c3nc4cc(Cl)ccc4o3)CCC2C)c1

$$$$
Molecule 60_metabolite 32
  CDK     0516241031

 56 59  0  0  0  0  0  0  0  0999 V2000
    8.6008    7.7940    0.0000 C   0  0  0  0  0  0  0  0  0  0  0  0
    9.3506    9.0931    0.0000 H   0  0  0  0  0  0  0  0  0  0  0  0
   10.0105    7.2812    0.0000 H   0  0  0  0  0  0  0  0  0  0  0  0
    8.3406    6.3167    0.0000 H   0  0  0  0  0  0  0  0  0  0  0  0
    7.1008    7.7937    0.0000 C   0  0  0  0  0  0  0  0  0  0  0  0
    6.3500    9.0933    0.0000 C   0  0  0  0  0  0  0  0  0  0  0  0
    7.1000   10.3923    0.0000 H   0  0  0  0  0  0  0  0  0  0  0  0
    4.8492    9.0937    0.0000 C   0  0  0  0  0  0  0  0  0  0  0  0
    4.0994   10.3929    0.0000 H   0  0  0  0  0  0  0  0  0  0  0  0
    4.0992    7.7947    0.0000 C   0  0  0  0  0  0  0  0  0  0  0  0
    4.8500    6.4952    0.0000 C   0  0  0  0  0  0  0  0  0  0  0  0
    6.3508    6.4947    0.0000 C   0  0  0  0  0  0  0  0  0  0  0  0
    7.1006    5.1956    0.0000 H   0  0  0  0  0  0  0  0  0  0  0  0
    4.1000    5.1962    0.0000 C   0  0  0  0  0  0  0  0  0  0  0  0
    2.6000    5.1962    0.0000 O   0  0  0  0  0  0  0  0  0  0  0  0
    4.8500    3.8971    0.0000 N   0  0  0  0  0  0  0  0  0  0  0  0
    6.3500    3.8971    0.0000 H   0  0  0  0  0  0  0  0  0  0  0  0
    4.1000    2.5981    0.0000 C   0  0  0  0  0  0  0  0  0  0  0  0
    2.9509    1.6339    0.0000 H   0  0  0  0  0  0  0  0  0  0  0  0
    2.9509    3.5623    0.0000 H   0  0  0  0  0  0  0  0  0  0  0  0
    4.8500    1.2990    0.0000 C   0  0  0  0  0  0  0  0  0  0  0  0
    5.9991    2.2632    0.0000 H   0  0  0  0  0  0  0  0  0  0  0  0
    5.9991    0.3349    0.0000 H   0  0  0  0  0  0  0  0  0  0  0  0
    3.8600   -0.4157    0.0000 N   0  0  0  0  0  0  0  0  0  0  0  0
    4.6100   -1.7147    0.0000 C   0  0  0  0  0  0  0  0  0  0  0  0
    5.7591   -2.6789    0.0000 H   0  0  0  0  0  0  0  0  0  0  0  0
    5.7591   -0.7505    0.0000 H   0  0  0  0  0  0  0  0  0  0  0  0
    3.8600   -3.0138    0.0000 C   0  0  0  0  0  0  0  0  0  0  0  0
    2.7109   -2.0496    0.0000 H   0  0  0  0  0  0  0  0  0  0  0  0
    2.7109   -3.9779    0.0000 H   0  0  0  0  0  0  0  0  0  0  0  0
    4.6100   -4.3128    0.0000 C   0  0  0  0  0  0  0  0  0  0  0  0
    6.1100   -4.3128    0.0000 O   0  0  0  0  0  0  0  0  0  0  0  0
    3.8600   -5.6118    0.0000 C   0  0  0  0  0  0  0  0  0  0  0  0
    2.3600   -5.6118    0.0000 H   0  0  0  0  0  0  0  0  0  0  0  0
    5.2695   -6.1249    0.0000 H   0  0  0  0  0  0  0  0  0  0  0  0
    3.5995   -7.0891    0.0000 H   0  0  0  0  0  0  0  0  0  0  0  0
    2.3600   -0.4157    0.0000 C   0  0  0  0  0  0  0  0  0  0  0  0
    1.4800    0.7943    0.0000 N   0  0  0  0  0  0  0  0  0  0  0  0
    0.0500    0.3343    0.0000 C   0  0  0  0  0  0  0  0  0  0  0  0
    0.0500   -1.1657    0.0000 C   0  0  0  0  0  0  0  0  0  0  0  0
   -1.2500   -1.9157    0.0000 C   0  0  0  0  0  0  0  0  0  0  0  0
   -1.2500   -3.4157    0.0000 H   0  0  0  0  0  0  0  0  0  0  0  0
   -2.5500   -1.1657    0.0000 C   0  0  0  0  0  0  0  0  0  0  0  0
   -3.8489   -1.9159    0.0000 H   0  0  0  0  0  0  0  0  0  0  0  0
   -2.5500    0.3343    0.0000 C   0  0  0  0  0  0  0  0  0  0  0  0
   -1.2500    1.0843    0.0000 C   0  0  0  0  0  0  0  0  0  0  0  0
   -1.2500    2.5843    0.0000 H   0  0  0  0  0  0  0  0  0  0  0  0
   -3.8489    1.0845    0.0000 Cl  0  0  0  0  0  0  0  0  0  0  0  0
    1.4800   -1.6257    0.0000 O   0  0  0  0  0  0  0  0  0  0  0  0
    2.5992    7.7945    0.0000 N   0  0  0  0  0  0  0  0  0  0  0  0
    1.7090    9.0043    0.0000 N   0  0  0  0  0  0  0  0  0  0  0  0
    0.2890    8.5441    0.0000 C   0  0  0  0  0  0  0  0  0  0  0  0
   -0.9242    9.4261    0.0000 H   0  0  0  0  0  0  0  0  0  0  0  0
    0.2893    7.0441    0.0000 C   0  0  0  0  0  0  0  0  0  0  0  0
   -0.9237    6.1617    0.0000 H   0  0  0  0  0  0  0  0  0  0  0  0
    1.7094    6.5843    0.0000 N   0  0  0  0  0  0  0  0  0  0  0  0
  1  2  1  0  0  0  0 
  1  3  1  0  0  0  0 
  1  4  1  0  0  0  0 
  1  5  1  0  0  0  0 
  5  6  2  0  0  0  0 
  6  7  1  0  0  0  0 
  6  8  1  0  0  0  0 
  8  9  1  0  0  0  0 
  8 10  2  0  0  0  0 
 10 11  1  0  0  0  0 
 11 12  2  0  0  0  0 
  5 12  1  0  0  0  0 
 12 13  1  0  0  0  0 
 11 14  1  0  0  0  0 
 14 15  2  0  0  0  0 
 14 16  1  0  0  0  0 
 16 17  1  0  0  0  0 
 16 18  1  0  0  0  0 
 18 19  1  0  0  0  0 
 18 20  1  0  0  0  0 
 18 21  1  0  0  0  0 
 21 22  1  0  0  0  0 
 21 23  1  0  0  0  0 
 21 24  1  0  0  0  0 
 24 25  1  0  0  0  0 
 25 26  1  0  0  0  0 
 25 27  1  0  0  0  0 
 25 28  1  0  0  0  0 
 28 29  1  0  0  0  0 
 28 30  1  0  0  0  0 
 28 31  1  0  0  0  0 
 31 32  2  0  0  0  0 
 31 33  1  0  0  0  0 
 33 34  1  0  0  0  0 
 33 35  1  0  0  0  0 
 33 36  1  0  0  0  0 
 24 37  1  0  0  0  0 
 37 38  2  0  0  0  0 
 38 39  1  0  0  0  0 
 39 40  2  0  0  0  0 
 40 41  1  0  0  0  0 
 41 42  1  0  0  0  0 
 41 43  2  0  0  0  0 
 43 44  1  0  0  0  0 
 43 45  1  0  0  0  0 
 45 46  2  0  0  0  0 
 39 46  1  0  0  0  0 
 46 47  1  0  0  0  0 
 45 48  1  0  0  0  0 
 40 49  1  0  0  0  0 
 37 49  1  0  0  0  0 
 10 50  1  0  0  0  0 
 50 51  1  0  0  0  0 
 51 52  2  0  0  0  0 
 52 53  1  0  0  0  0 
 52 54  1  0  0  0  0 
 54 55  1  0  0  0  0 
 54 56  2  0  0  0  0 
 50 56  1  0  0  0  0 
M  END
> <Rank>
32

> <Priority_score>
0.06

> <Reaction_type>
N-dealkylation

> <Parent_ID>
60

> <Parent_InChI>
InChI=1S/C23H23ClN6O2/c1-15-3-5-20(30-25-8-9-26-30)18(13-15)22(31)29-12-11-28(10-7-16(29)2)23-27-19-14-17(24)4-6-21(19)32-23/h3-6,8-9,13-14,16H,7,10-12H2,1-2H3

> <Parent_SMILES>
Cc1ccc(-n2nccn2)c(C(=O)N2CCN(c3nc4cc(Cl)ccc4o3)CCC2C)c1

$$$$
Molecule 60_metabolite 33
  CDK     0516241031

 90 94  0  0  0  0  0  0  0  0999 V2000
    2.0698    0.9378    0.0000 C   0  0  0  0  0  0  0  0  0  0  0  0
    0.7184    0.2868    0.0000 H   0  0  0  0  0  0  0  0  0  0  0  0
    1.1940    2.1556    0.0000 H   0  0  0  0  0  0  0  0  0  0  0  0
    3.1170    2.0118    0.0000 H   0  0  0  0  0  0  0  0  0  0  0  0
    3.3093    0.0931    0.0000 C   0  0  0  0  0  0  0  0  0  0  0  0
    3.1976   -1.4036    0.0000 C   0  0  0  0  0  0  0  0  0  0  0  0
    1.8462   -2.0544    0.0000 H   0  0  0  0  0  0  0  0  0  0  0  0
    4.4374   -2.2495    0.0000 C   0  0  0  0  0  0  0  0  0  0  0  0
    4.3250   -3.7452    0.0000 H   0  0  0  0  0  0  0  0  0  0  0  0
    5.7888   -1.5986    0.0000 C   0  0  0  0  0  0  0  0  0  0  0  0
    5.9005   -0.1020    0.0000 C   0  0  0  0  0  0  0  0  0  0  0  0
    4.6607    0.7439    0.0000 C   0  0  0  0  0  0  0  0  0  0  0  0
    4.7731    2.2397    0.0000 H   0  0  0  0  0  0  0  0  0  0  0  0
    7.6844    0.7571    0.0000 C   0  0  0  0  0  0  0  0  0  0  0  0
    8.9238   -0.0879    0.0000 O   0  0  0  0  0  0  0  0  0  0  0  0
    7.8683    3.2102    0.0000 N   0  0  0  0  0  0  0  0  0  0  0  0
    6.5692    3.9602    0.0000 C   0  0  0  0  0  0  0  0  0  0  0  0
    6.1271    2.5269    0.0000 H   0  0  0  0  0  0  0  0  0  0  0  0
    5.0734    4.0723    0.0000 H   0  0  0  0  0  0  0  0  0  0  0  0
    6.3457    5.4435    0.0000 C   0  0  0  0  0  0  0  0  0  0  0  0
    4.9494    4.8955    0.0000 H   0  0  0  0  0  0  0  0  0  0  0  0
    5.5007    6.6829    0.0000 H   0  0  0  0  0  0  0  0  0  0  0  0
    7.3659    6.5431    0.0000 N   0  0  0  0  0  0  0  0  0  0  0  0
    8.8617    6.4310    0.0000 C   0  0  0  0  0  0  0  0  0  0  0  0
    8.6382    7.9142    0.0000 H   0  0  0  0  0  0  0  0  0  0  0  0
   10.2580    6.9790    0.0000 H   0  0  0  0  0  0  0  0  0  0  0  0
    9.7067    5.1916    0.0000 C   0  0  0  0  0  0  0  0  0  0  0  0
   10.7270    6.2912    0.0000 H   0  0  0  0  0  0  0  0  0  0  0  0
   11.0057    4.4416    0.0000 H   0  0  0  0  0  0  0  0  0  0  0  0
    9.2646    3.7583    0.0000 C   0  0  0  0  0  0  0  0  0  0  0  0
   10.7604    3.6462    0.0000 H   0  0  0  0  0  0  0  0  0  0  0  0
    9.4881    2.2750    0.0000 C   0  0  0  0  0  0  0  0  0  0  0  0
    8.3154    1.3398    0.0000 H   0  0  0  0  0  0  0  0  0  0  0  0
   10.2055    0.9577    0.0000 H   0  0  0  0  0  0  0  0  0  0  0  0
   10.9100    2.7527    0.0000 H   0  0  0  0  0  0  0  0  0  0  0  0
    6.8179    7.9394    0.0000 C   0  0  0  0  0  0  0  0  0  0  0  0
    5.3701    8.3165    0.0000 N   0  0  0  0  0  0  0  0  0  0  0  0
    5.2758    9.8157    0.0000 C   0  0  0  0  0  0  0  0  0  0  0  0
    6.6721   10.3637    0.0000 C   0  0  0  0  0  0  0  0  0  0  0  0
    6.8953   11.8478    0.0000 C   0  0  0  0  0  0  0  0  0  0  0  0
    8.2917   12.3959    0.0000 H   0  0  0  0  0  0  0  0  0  0  0  0
    5.7222   12.7840    0.0000 C   0  0  0  0  0  0  0  0  0  0  0  0
    5.9460   14.2672    0.0000 H   0  0  0  0  0  0  0  0  0  0  0  0
    4.3259   12.2360    0.0000 C   0  0  0  0  0  0  0  0  0  0  0  0
    4.1027   10.7518    0.0000 C   0  0  0  0  0  0  0  0  0  0  0  0
    2.7064   10.2038    0.0000 H   0  0  0  0  0  0  0  0  0  0  0  0
    3.1530   13.1710    0.0000 S   0  0  0  0  0  0  0  0  0  0  0  0
    3.3764   14.6543    0.0000 C   0  0  0  0  0  0  0  0  0  0  0  0
    4.0935   15.9717    0.0000 H   0  0  0  0  0  0  0  0  0  0  0  0
    4.7983   14.1768    0.0000 H   0  0  0  0  0  0  0  0  0  0  0  0
    2.2035   15.5893    0.0000 C   0  0  0  0  0  0  0  0  0  0  0  0
    1.4863   14.2719    0.0000 H   0  0  0  0  0  0  0  0  0  0  0  0
    0.7815   16.0668    0.0000 C   0  0  0  0  0  0  0  0  0  0  0  0
    0.4840   17.5371    0.0000 O   0  0  0  0  0  0  0  0  0  0  0  0
   -0.3430   15.0741    0.0000 N   0  0  0  0  0  0  0  0  0  0  0  0
   -0.0456   13.6039    0.0000 H   0  0  0  0  0  0  0  0  0  0  0  0
   -1.7650   15.5516    0.0000 C   0  0  0  0  0  0  0  0  0  0  0  0
   -1.0478   16.8691    0.0000 H   0  0  0  0  0  0  0  0  0  0  0  0
   -2.9379   16.4867    0.0000 H   0  0  0  0  0  0  0  0  0  0  0  0
   -2.8895   14.5589    0.0000 C   0  0  0  0  0  0  0  0  0  0  0  0
   -2.5920   13.0887    0.0000 O   0  0  0  0  0  0  0  0  0  0  0  0
   -4.3115   15.0364    0.0000 O   0  0  0  0  0  0  0  0  0  0  0  0
   -5.4360   14.0437    0.0000 H   0  0  0  0  0  0  0  0  0  0  0  0
    2.4268   17.0726    0.0000 N   0  0  0  0  0  0  0  0  0  0  0  0
    1.2539   18.0077    0.0000 H   0  0  0  0  0  0  0  0  0  0  0  0
    3.8230   17.6209    0.0000 C   0  0  0  0  0  0  0  0  0  0  0  0
    4.9959   16.6858    0.0000 O   0  0  0  0  0  0  0  0  0  0  0  0
    4.0463   19.1041    0.0000 C   0  0  0  0  0  0  0  0  0  0  0  0
    3.7489   20.5744    0.0000 H   0  0  0  0  0  0  0  0  0  0  0  0
    2.5468   19.0665    0.0000 H   0  0  0  0  0  0  0  0  0  0  0  0
    5.4426   19.6524    0.0000 C   0  0  0  0  0  0  0  0  0  0  0  0
    5.7400   18.1822    0.0000 H   0  0  0  0  0  0  0  0  0  0  0  0
    6.9421   19.6900    0.0000 H   0  0  0  0  0  0  0  0  0  0  0  0
    5.8088   22.0850    0.0000 C   0  0  0  0  0  0  0  0  0  0  0  0
    6.5260   23.4024    0.0000 H   0  0  0  0  0  0  0  0  0  0  0  0
    4.6359   23.0200    0.0000 C   0  0  0  0  0  0  0  0  0  0  0  0
    3.2397   22.4718    0.0000 O   0  0  0  0  0  0  0  0  0  0  0  0
    4.8592   24.5033    0.0000 O   0  0  0  0  0  0  0  0  0  0  0  0
    3.6863   25.4383    0.0000 H   0  0  0  0  0  0  0  0  0  0  0  0
    8.1408   21.3019    0.0000 N   0  0  0  0  0  0  0  0  0  0  0  0
    9.2654   22.2946    0.0000 H   0  0  0  0  0  0  0  0  0  0  0  0
    8.4383   19.8316    0.0000 H   0  0  0  0  0  0  0  0  0  0  0  0
    7.6228    9.2006    0.0000 O   0  0  0  0  0  0  0  0  0  0  0  0
    7.0283   -2.4434    0.0000 N   0  0  0  0  0  0  0  0  0  0  0  0
    7.0823   -3.9445    0.0000 N   0  0  0  0  0  0  0  0  0  0  0  0
    8.5148   -4.3641    0.0000 C   0  0  0  0  0  0  0  0  0  0  0  0
    9.0204   -5.7763    0.0000 H   0  0  0  0  0  0  0  0  0  0  0  0
    9.3595   -3.1246    0.0000 C   0  0  0  0  0  0  0  0  0  0  0  0
   10.8588   -3.0789    0.0000 H   0  0  0  0  0  0  0  0  0  0  0  0
    8.4452   -1.9448    0.0000 N   0  0  0  0  0  0  0  0  0  0  0  0
  1  2  1  0  0  0  0 
  1  3  1  0  0  0  0 
  1  4  1  0  0  0  0 
  1  5  1  0  0  0  0 
  5  6  2  0  0  0  0 
  6  7  1  0  0  0  0 
  6  8  1  0  0  0  0 
  8  9  1  0  0  0  0 
  8 10  2  0  0  0  0 
 10 11  1  0  0  0  0 
 11 12  2  0  0  0  0 
  5 12  1  0  0  0  0 
 12 13  1  0  0  0  0 
 11 14  1  0  0  0  0 
 14 15  2  0  0  0  0 
 14 16  1  0  0  0  0 
 16 17  1  0  0  0  0 
 17 18  1  0  0  0  0 
 17 19  1  0  0  0  0 
 17 20  1  0  0  0  0 
 20 21  1  0  0  0  0 
 20 22  1  0  0  0  0 
 20 23  1  0  0  0  0 
 23 24  1  0  0  0  0 
 24 25  1  0  0  0  0 
 24 26  1  0  0  0  0 
 24 27  1  0  0  0  0 
 27 28  1  0  0  0  0 
 27 29  1  0  0  0  0 
 27 30  1  0  0  0  0 
 16 30  1  0  0  0  0 
 30 31  1  0  0  0  0 
 30 32  1  0  0  0  0 
 32 33  1  0  0  0  0 
 32 34  1  0  0  0  0 
 32 35  1  0  0  0  0 
 23 36  1  0  0  0  0 
 36 37  2  0  0  0  0 
 37 38  1  0  0  0  0 
 38 39  2  0  0  0  0 
 39 40  1  0  0  0  0 
 40 41  1  0  0  0  0 
 40 42  2  0  0  0  0 
 42 43  1  0  0  0  0 
 42 44  1  0  0  0  0 
 44 45  2  0  0  0  0 
 38 45  1  0  0  0  0 
 45 46  1  0  0  0  0 
 44 47  1  0  0  0  0 
 47 48  1  0  0  0  0 
 48 49  1  0  0  0  0 
 48 50  1  0  0  0  0 
 48 51  1  0  0  0  0 
 51 52  1  0  0  0  0 
 51 53  1  0  0  0  0 
 53 54  2  0  0  0  0 
 53 55  1  0  0  0  0 
 55 56  1  0  0  0  0 
 55 57  1  0  0  0  0 
 57 58  1  0  0  0  0 
 57 59  1  0  0  0  0 
 57 60  1  0  0  0  0 
 60 61  2  0  0  0  0 
 60 62  1  0  0  0  0 
 62 63  1  0  0  0  0 
 51 64  1  0  0  0  0 
 64 65  1  0  0  0  0 
 64 66  1  0  0  0  0 
 66 67  2  0  0  0  0 
 66 68  1  0  0  0  0 
 68 69  1  0  0  0  0 
 68 70  1  0  0  0  0 
 68 71  1  0  0  0  0 
 71 72  1  0  0  0  0 
 71 73  1  0  0  0  0 
 71 74  1  0  0  0  0 
 74 75  1  0  0  0  0 
 74 76  1  0  0  0  0 
 76 77  2  0  0  0  0 
 76 78  1  0  0  0  0 
 78 79  1  0  0  0  0 
 74 80  1  0  0  0  0 
 80 81  1  0  0  0  0 
 80 82  1  0  0  0  0 
 39 83  1  0  0  0  0 
 36 83  1  0  0  0  0 
 10 84  1  0  0  0  0 
 84 85  1  0  0  0  0 
 85 86  2  0  0  0  0 
 86 87  1  0  0  0  0 
 86 88  1  0  0  0  0 
 88 89  1  0  0  0  0 
 88 90  2  0  0  0  0 
 84 90  1  0  0  0  0 
M  END
> <Rank>
33

> <Priority_score>
0.048

> <Reaction_type>
glutathione_conjugation_(aromatic_nucleophilic_substitution)

> <Parent_ID>
60

> <Parent_InChI>
InChI=1S/C23H23ClN6O2/c1-15-3-5-20(30-25-8-9-26-30)18(13-15)22(31)29-12-11-28(10-7-16(29)2)23-27-19-14-17(24)4-6-21(19)32-23/h3-6,8-9,13-14,16H,7,10-12H2,1-2H3

> <Parent_SMILES>
Cc1ccc(-n2nccn2)c(C(=O)N2CCN(c3nc4cc(Cl)ccc4o3)CCC2C)c1

$$$$
Molecule 60_metabolite 34
  CDK     0516241031

 54 58  0  0  0  0  0  0  0  0999 V2000
    3.1228    1.5815    0.0000 C   0  0  0  0  0  0  0  0  0  0  0  0
    1.7714    0.9305    0.0000 H   0  0  0  0  0  0  0  0  0  0  0  0
    2.2470    2.7993    0.0000 H   0  0  0  0  0  0  0  0  0  0  0  0
    4.1700    2.6555    0.0000 H   0  0  0  0  0  0  0  0  0  0  0  0
    4.3623    0.7368    0.0000 C   0  0  0  0  0  0  0  0  0  0  0  0
    4.2506   -0.7599    0.0000 C   0  0  0  0  0  0  0  0  0  0  0  0
    2.8991   -1.4107    0.0000 H   0  0  0  0  0  0  0  0  0  0  0  0
    5.4904   -1.6058    0.0000 C   0  0  0  0  0  0  0  0  0  0  0  0
    5.3780   -3.1015    0.0000 H   0  0  0  0  0  0  0  0  0  0  0  0
    6.8418   -0.9549    0.0000 C   0  0  0  0  0  0  0  0  0  0  0  0
    6.9535    0.5417    0.0000 C   0  0  0  0  0  0  0  0  0  0  0  0
    5.7137    1.3876    0.0000 C   0  0  0  0  0  0  0  0  0  0  0  0
    5.8261    2.8834    0.0000 H   0  0  0  0  0  0  0  0  0  0  0  0
    8.7374    1.4008    0.0000 C   0  0  0  0  0  0  0  0  0  0  0  0
    9.9768    0.5558    0.0000 O   0  0  0  0  0  0  0  0  0  0  0  0
    8.9213    3.8539    0.0000 N   0  0  0  0  0  0  0  0  0  0  0  0
    7.6222    4.6039    0.0000 C   0  0  0  0  0  0  0  0  0  0  0  0
    7.1801    3.1706    0.0000 H   0  0  0  0  0  0  0  0  0  0  0  0
    6.1264    4.7160    0.0000 H   0  0  0  0  0  0  0  0  0  0  0  0
    7.3987    6.0872    0.0000 C   0  0  0  0  0  0  0  0  0  0  0  0
    6.0023    5.5392    0.0000 H   0  0  0  0  0  0  0  0  0  0  0  0
    6.5537    7.3266    0.0000 H   0  0  0  0  0  0  0  0  0  0  0  0
    8.4189    7.1868    0.0000 N   0  0  0  0  0  0  0  0  0  0  0  0
    9.9147    7.0747    0.0000 C   0  0  0  0  0  0  0  0  0  0  0  0
   10.6647    8.3737    0.0000 H   0  0  0  0  0  0  0  0  0  0  0  0
   10.7597    5.8353    0.0000 C   0  0  0  0  0  0  0  0  0  0  0  0
   11.7800    6.9349    0.0000 H   0  0  0  0  0  0  0  0  0  0  0  0
   12.0587    5.0853    0.0000 H   0  0  0  0  0  0  0  0  0  0  0  0
   10.3176    4.4020    0.0000 C   0  0  0  0  0  0  0  0  0  0  0  0
   11.8134    4.2899    0.0000 H   0  0  0  0  0  0  0  0  0  0  0  0
   10.5411    2.9187    0.0000 C   0  0  0  0  0  0  0  0  0  0  0  0
    9.3684    1.9835    0.0000 H   0  0  0  0  0  0  0  0  0  0  0  0
   11.2585    1.6014    0.0000 H   0  0  0  0  0  0  0  0  0  0  0  0
   11.9630    3.3964    0.0000 H   0  0  0  0  0  0  0  0  0  0  0  0
    7.8709    8.5831    0.0000 C   0  0  0  0  0  0  0  0  0  0  0  0
    6.4230    8.9602    0.0000 N   0  0  0  0  0  0  0  0  0  0  0  0
    6.3288   10.4594    0.0000 C   0  0  0  0  0  0  0  0  0  0  0  0
    7.7251   11.0074    0.0000 C   0  0  0  0  0  0  0  0  0  0  0  0
    7.9483   12.4915    0.0000 C   0  0  0  0  0  0  0  0  0  0  0  0
    9.3446   13.0396    0.0000 H   0  0  0  0  0  0  0  0  0  0  0  0
    6.7752   13.4277    0.0000 C   0  0  0  0  0  0  0  0  0  0  0  0
    6.9990   14.9109    0.0000 H   0  0  0  0  0  0  0  0  0  0  0  0
    5.3789   12.8797    0.0000 C   0  0  0  0  0  0  0  0  0  0  0  0
    5.1557   11.3955    0.0000 C   0  0  0  0  0  0  0  0  0  0  0  0
    3.7594   10.8475    0.0000 H   0  0  0  0  0  0  0  0  0  0  0  0
    4.2060   13.8147    0.0000 Cl  0  0  0  0  0  0  0  0  0  0  0  0
    8.6758    9.8443    0.0000 O   0  0  0  0  0  0  0  0  0  0  0  0
    8.0813   -1.7997    0.0000 N   0  0  0  0  0  0  0  0  0  0  0  0
    8.1353   -3.3008    0.0000 N   0  0  0  0  0  0  0  0  0  0  0  0
    9.5677   -3.7204    0.0000 C   0  0  0  0  0  0  0  0  0  0  0  0
   10.0733   -5.1327    0.0000 H   0  0  0  0  0  0  0  0  0  0  0  0
   10.4125   -2.4809    0.0000 C   0  0  0  0  0  0  0  0  0  0  0  0
   11.9118   -2.4352    0.0000 H   0  0  0  0  0  0  0  0  0  0  0  0
    9.4982   -1.3011    0.0000 N   0  0  0  0  0  0  0  0  0  0  0  0
  1  2  1  0  0  0  0 
  1  3  1  0  0  0  0 
  1  4  1  0  0  0  0 
  1  5  1  0  0  0  0 
  5  6  2  0  0  0  0 
  6  7  1  0  0  0  0 
  6  8  1  0  0  0  0 
  8  9  1  0  0  0  0 
  8 10  2  0  0  0  0 
 10 11  1  0  0  0  0 
 11 12  2  0  0  0  0 
  5 12  1  0  0  0  0 
 12 13  1  0  0  0  0 
 11 14  1  0  0  0  0 
 14 15  2  0  0  0  0 
 14 16  1  0  0  0  0 
 16 17  1  0  0  0  0 
 17 18  1  0  0  0  0 
 17 19  1  0  0  0  0 
 17 20  1  0  0  0  0 
 20 21  1  0  0  0  0 
 20 22  1  0  0  0  0 
 20 23  1  0  0  0  0 
 23 24  2  0  0  0  0 
 24 25  1  0  0  0  0 
 24 26  1  0  0  0  0 
 26 27  1  0  0  0  0 
 26 28  1  0  0  0  0 
 26 29  1  0  0  0  0 
 16 29  1  0  0  0  0 
 29 30  1  0  0  0  0 
 29 31  1  0  0  0  0 
 31 32  1  0  0  0  0 
 31 33  1  0  0  0  0 
 31 34  1  0  0  0  0 
 23 35  1  0  0  0  0 
 35 36  2  0  0  0  0 
 36 37  1  0  0  0  0 
 37 38  2  0  0  0  0 
 38 39  1  0  0  0  0 
 39 40  1  0  0  0  0 
 39 41  2  0  0  0  0 
 41 42  1  0  0  0  0 
 41 43  1  0  0  0  0 
 43 44  2  0  0  0  0 
 37 44  1  0  0  0  0 
 44 45  1  0  0  0  0 
 43 46  1  0  0  0  0 
 38 47  1  0  0  0  0 
 35 47  1  0  0  0  0 
 10 48  1  0  0  0  0 
 48 49  1  0  0  0  0 
 49 50  2  0  0  0  0 
 50 51  1  0  0  0  0 
 50 52  1  0  0  0  0 
 52 53  1  0  0  0  0 
 52 54  2  0  0  0  0 
 48 54  1  0  0  0  0 
M  CHG  1  23   1
M  END
> <Rank>
34

> <Priority_score>
0.04462305441778819

> <Reaction_type>
dehydration of N-C bond

> <Parent_ID>
60

> <Parent_InChI>
InChI=1S/C23H23ClN6O2/c1-15-3-5-20(30-25-8-9-26-30)18(13-15)22(31)29-12-11-28(10-7-16(29)2)23-27-19-14-17(24)4-6-21(19)32-23/h3-6,8-9,13-14,16H,7,10-12H2,1-2H3

> <Parent_SMILES>
Cc1ccc(-n2nccn2)c(C(=O)N2CCN(c3nc4cc(Cl)ccc4o3)CCC2C)c1

$$$$
Molecule 60_metabolite 35
  CDK     0516241031

 53 57  0  0  0  0  0  0  0  0999 V2000
    3.1228    1.5815    0.0000 C   0  0  0  0  0  0  0  0  0  0  0  0
    1.7714    0.9305    0.0000 H   0  0  0  0  0  0  0  0  0  0  0  0
    2.2470    2.7993    0.0000 H   0  0  0  0  0  0  0  0  0  0  0  0
    4.1700    2.6555    0.0000 H   0  0  0  0  0  0  0  0  0  0  0  0
    4.3623    0.7368    0.0000 C   0  0  0  0  0  0  0  0  0  0  0  0
    4.2506   -0.7599    0.0000 C   0  0  0  0  0  0  0  0  0  0  0  0
    2.8991   -1.4107    0.0000 H   0  0  0  0  0  0  0  0  0  0  0  0
    5.4904   -1.6058    0.0000 C   0  0  0  0  0  0  0  0  0  0  0  0
    5.3780   -3.1015    0.0000 H   0  0  0  0  0  0  0  0  0  0  0  0
    6.8418   -0.9549    0.0000 C   0  0  0  0  0  0  0  0  0  0  0  0
    6.9535    0.5417    0.0000 C   0  0  0  0  0  0  0  0  0  0  0  0
    5.7137    1.3876    0.0000 C   0  0  0  0  0  0  0  0  0  0  0  0
    5.8261    2.8834    0.0000 H   0  0  0  0  0  0  0  0  0  0  0  0
    8.7374    1.4008    0.0000 C   0  0  0  0  0  0  0  0  0  0  0  0
    9.9768    0.5558    0.0000 O   0  0  0  0  0  0  0  0  0  0  0  0
    8.9213    3.8539    0.0000 N   0  0  0  0  0  0  0  0  0  0  0  0
    7.6222    4.6039    0.0000 C   0  0  0  0  0  0  0  0  0  0  0  0
    7.1801    3.1706    0.0000 H   0  0  0  0  0  0  0  0  0  0  0  0
    6.1264    4.7160    0.0000 H   0  0  0  0  0  0  0  0  0  0  0  0
    7.3987    6.0872    0.0000 C   0  0  0  0  0  0  0  0  0  0  0  0
    6.0023    5.5392    0.0000 H   0  0  0  0  0  0  0  0  0  0  0  0
    6.5537    7.3266    0.0000 H   0  0  0  0  0  0  0  0  0  0  0  0
    8.4189    7.1868    0.0000 N   0  0  0  0  0  0  0  0  0  0  0  0
    9.9147    7.0747    0.0000 C   0  0  0  0  0  0  0  0  0  0  0  0
   10.6647    8.3737    0.0000 H   0  0  0  0  0  0  0  0  0  0  0  0
   10.7597    5.8353    0.0000 C   0  0  0  0  0  0  0  0  0  0  0  0
   12.2429    6.0589    0.0000 H   0  0  0  0  0  0  0  0  0  0  0  0
   10.3176    4.4020    0.0000 C   0  0  0  0  0  0  0  0  0  0  0  0
   11.8134    4.2899    0.0000 H   0  0  0  0  0  0  0  0  0  0  0  0
   10.5411    2.9187    0.0000 C   0  0  0  0  0  0  0  0  0  0  0  0
    9.3684    1.9835    0.0000 H   0  0  0  0  0  0  0  0  0  0  0  0
   11.2585    1.6014    0.0000 H   0  0  0  0  0  0  0  0  0  0  0  0
   11.9630    3.3964    0.0000 H   0  0  0  0  0  0  0  0  0  0  0  0
    7.8709    8.5831    0.0000 C   0  0  0  0  0  0  0  0  0  0  0  0
    6.4230    8.9602    0.0000 N   0  0  0  0  0  0  0  0  0  0  0  0
    6.3288   10.4594    0.0000 C   0  0  0  0  0  0  0  0  0  0  0  0
    7.7251   11.0074    0.0000 C   0  0  0  0  0  0  0  0  0  0  0  0
    7.9483   12.4915    0.0000 C   0  0  0  0  0  0  0  0  0  0  0  0
    9.3446   13.0396    0.0000 H   0  0  0  0  0  0  0  0  0  0  0  0
    6.7752   13.4277    0.0000 C   0  0  0  0  0  0  0  0  0  0  0  0
    6.9990   14.9109    0.0000 H   0  0  0  0  0  0  0  0  0  0  0  0
    5.3789   12.8797    0.0000 C   0  0  0  0  0  0  0  0  0  0  0  0
    5.1557   11.3955    0.0000 C   0  0  0  0  0  0  0  0  0  0  0  0
    3.7594   10.8475    0.0000 H   0  0  0  0  0  0  0  0  0  0  0  0
    4.2060   13.8147    0.0000 Cl  0  0  0  0  0  0  0  0  0  0  0  0
    8.6758    9.8443    0.0000 O   0  0  0  0  0  0  0  0  0  0  0  0
    8.0813   -1.7997    0.0000 N   0  0  0  0  0  0  0  0  0  0  0  0
    8.1353   -3.3008    0.0000 N   0  0  0  0  0  0  0  0  0  0  0  0
    9.5677   -3.7204    0.0000 C   0  0  0  0  0  0  0  0  0  0  0  0
   10.0733   -5.1327    0.0000 H   0  0  0  0  0  0  0  0  0  0  0  0
   10.4125   -2.4809    0.0000 C   0  0  0  0  0  0  0  0  0  0  0  0
   11.9118   -2.4352    0.0000 H   0  0  0  0  0  0  0  0  0  0  0  0
    9.4982   -1.3011    0.0000 N   0  0  0  0  0  0  0  0  0  0  0  0
  1  2  1  0  0  0  0 
  1  3  1  0  0  0  0 
  1  4  1  0  0  0  0 
  1  5  1  0  0  0  0 
  5  6  2  0  0  0  0 
  6  7  1  0  0  0  0 
  6  8  1  0  0  0  0 
  8  9  1  0  0  0  0 
  8 10  2  0  0  0  0 
 10 11  1  0  0  0  0 
 11 12  2  0  0  0  0 
  5 12  1  0  0  0  0 
 12 13  1  0  0  0  0 
 11 14  1  0  0  0  0 
 14 15  2  0  0  0  0 
 14 16  1  0  0  0  0 
 16 17  1  0  0  0  0 
 17 18  1  0  0  0  0 
 17 19  1  0  0  0  0 
 17 20  1  0  0  0  0 
 20 21  1  0  0  0  0 
 20 22  1  0  0  0  0 
 20 23  1  0  0  0  0 
 23 24  1  0  0  0  0 
 24 25  1  0  0  0  0 
 24 26  2  0  0  0  0 
 26 27  1  0  0  0  0 
 26 28  1  0  0  0  0 
 16 28  1  0  0  0  0 
 28 29  1  0  0  0  0 
 28 30  1  0  0  0  0 
 30 31  1  0  0  0  0 
 30 32  1  0  0  0  0 
 30 33  1  0  0  0  0 
 23 34  1  0  0  0  0 
 34 35  2  0  0  0  0 
 35 36  1  0  0  0  0 
 36 37  2  0  0  0  0 
 37 38  1  0  0  0  0 
 38 39  1  0  0  0  0 
 38 40  2  0  0  0  0 
 40 41  1  0  0  0  0 
 40 42  1  0  0  0  0 
 42 43  2  0  0  0  0 
 36 43  1  0  0  0  0 
 43 44  1  0  0  0  0 
 42 45  1  0  0  0  0 
 37 46  1  0  0  0  0 
 34 46  1  0  0  0  0 
 10 47  1  0  0  0  0 
 47 48  1  0  0  0  0 
 48 49  2  0  0  0  0 
 49 50  1  0  0  0  0 
 49 51  1  0  0  0  0 
 51 52  1  0  0  0  0 
 51 53  2  0  0  0  0 
 47 53  1  0  0  0  0 
M  END
> <Rank>
34

> <Priority_score>
0.04462305441778819

> <Reaction_type>
alkyl dehydrogenation

> <Parent_ID>
60

> <Parent_InChI>
InChI=1S/C23H23ClN6O2/c1-15-3-5-20(30-25-8-9-26-30)18(13-15)22(31)29-12-11-28(10-7-16(29)2)23-27-19-14-17(24)4-6-21(19)32-23/h3-6,8-9,13-14,16H,7,10-12H2,1-2H3

> <Parent_SMILES>
Cc1ccc(-n2nccn2)c(C(=O)N2CCN(c3nc4cc(Cl)ccc4o3)CCC2C)c1

$$$$
Molecule 60_metabolite 36
  CDK     0516241031

 76 81  0  0  0  0  0  0  0  0999 V2000
    0.6061    1.2181    0.0000 C   0  0  0  0  0  0  0  0  0  0  0  0
   -0.7452    0.5670    0.0000 H   0  0  0  0  0  0  0  0  0  0  0  0
   -0.2697    2.4358    0.0000 H   0  0  0  0  0  0  0  0  0  0  0  0
    1.6533    2.2920    0.0000 H   0  0  0  0  0  0  0  0  0  0  0  0
    1.8456    0.3733    0.0000 C   0  0  0  0  0  0  0  0  0  0  0  0
    1.7340   -1.1234    0.0000 C   0  0  0  0  0  0  0  0  0  0  0  0
    0.3825   -1.7742    0.0000 H   0  0  0  0  0  0  0  0  0  0  0  0
    2.9737   -1.9693    0.0000 C   0  0  0  0  0  0  0  0  0  0  0  0
    2.8614   -3.4650    0.0000 H   0  0  0  0  0  0  0  0  0  0  0  0
    4.3252   -1.3184    0.0000 C   0  0  0  0  0  0  0  0  0  0  0  0
    4.4369    0.1782    0.0000 C   0  0  0  0  0  0  0  0  0  0  0  0
    3.1971    1.0241    0.0000 C   0  0  0  0  0  0  0  0  0  0  0  0
    3.3454    2.9985    0.0000 H   0  0  0  0  0  0  0  0  0  0  0  0
    7.0857    1.4539    0.0000 C   0  0  0  0  0  0  0  0  0  0  0  0
    8.3251    0.6089    0.0000 O   0  0  0  0  0  0  0  0  0  0  0  0
    7.3054    4.3856    0.0000 N   0  0  0  0  0  0  0  0  0  0  0  0
    6.0064    5.1356    0.0000 C   0  0  0  0  0  0  0  0  0  0  0  0
    5.5642    3.7023    0.0000 H   0  0  0  0  0  0  0  0  0  0  0  0
    4.5106    5.2477    0.0000 H   0  0  0  0  0  0  0  0  0  0  0  0
    5.7828    6.6189    0.0000 C   0  0  0  0  0  0  0  0  0  0  0  0
    4.3865    6.0709    0.0000 H   0  0  0  0  0  0  0  0  0  0  0  0
    4.9378    7.8582    0.0000 H   0  0  0  0  0  0  0  0  0  0  0  0
    6.8031    7.7185    0.0000 N   0  0  0  0  0  0  0  0  0  0  0  0
    8.2989    7.6064    0.0000 C   0  0  0  0  0  0  0  0  0  0  0  0
    8.0753    9.0896    0.0000 H   0  0  0  0  0  0  0  0  0  0  0  0
    9.6952    8.1544    0.0000 H   0  0  0  0  0  0  0  0  0  0  0  0
    9.1439    6.3670    0.0000 C   0  0  0  0  0  0  0  0  0  0  0  0
   10.1641    7.4666    0.0000 H   0  0  0  0  0  0  0  0  0  0  0  0
   10.4429    5.6170    0.0000 H   0  0  0  0  0  0  0  0  0  0  0  0
    8.7017    4.9337    0.0000 C   0  0  0  0  0  0  0  0  0  0  0  0
   11.6335    4.7140    0.0000 H   0  0  0  0  0  0  0  0  0  0  0  0
    8.9968    2.9758    0.0000 C   0  0  0  0  0  0  0  0  0  0  0  0
    7.8241    2.0405    0.0000 H   0  0  0  0  0  0  0  0  0  0  0  0
   10.1733    0.8153    0.0000 H   0  0  0  0  0  0  0  0  0  0  0  0
   10.4187    3.4535    0.0000 H   0  0  0  0  0  0  0  0  0  0  0  0
    5.9043   10.0084    0.0000 C   0  0  0  0  0  0  0  0  0  0  0  0
    4.4565   10.3855    0.0000 N   0  0  0  0  0  0  0  0  0  0  0  0
    4.3622   11.8847    0.0000 C   0  0  0  0  0  0  0  0  0  0  0  0
    5.7586   12.4327    0.0000 C   0  0  0  0  0  0  0  0  0  0  0  0
    5.9818   13.9169    0.0000 C   0  0  0  0  0  0  0  0  0  0  0  0
    7.3781   14.4649    0.0000 H   0  0  0  0  0  0  0  0  0  0  0  0
    4.8087   14.8530    0.0000 C   0  0  0  0  0  0  0  0  0  0  0  0
    5.0325   16.3362    0.0000 H   0  0  0  0  0  0  0  0  0  0  0  0
    3.4124   14.3050    0.0000 C   0  0  0  0  0  0  0  0  0  0  0  0
    3.1891   12.8209    0.0000 C   0  0  0  0  0  0  0  0  0  0  0  0
    1.7928   12.2729    0.0000 H   0  0  0  0  0  0  0  0  0  0  0  0
    2.2395   15.2401    0.0000 Cl  0  0  0  0  0  0  0  0  0  0  0  0
    6.7092   11.2697    0.0000 O   0  0  0  0  0  0  0  0  0  0  0  0
    2.9286    9.1261    0.0000 C   0  0  0  0  0  0  0  0  0  0  0  0
    4.0691    8.1518    0.0000 H   0  0  0  0  0  0  0  0  0  0  0  0
    2.1670    7.8339    0.0000 C   0  0  0  0  0  0  0  0  0  0  0  0
    3.5719    7.3081    0.0000 H   0  0  0  0  0  0  0  0  0  0  0  0
    0.6663    7.8478    0.0000 C   0  0  0  0  0  0  0  0  0  0  0  0
    0.9133    6.3683    0.0000 H   0  0  0  0  0  0  0  0  0  0  0  0
   -0.0729    9.1540    0.0000 C   0  0  0  0  0  0  0  0  0  0  0  0
   -1.2303    8.1999    0.0000 H   0  0  0  0  0  0  0  0  0  0  0  0
    0.6887   10.4462    0.0000 C   0  0  0  0  0  0  0  0  0  0  0  0
   -0.7161   10.9720    0.0000 H   0  0  0  0  0  0  0  0  0  0  0  0
    1.1381   12.8648    0.0000 C   0  0  0  0  0  0  0  0  0  0  0  0
    2.5523   13.3649    0.0000 O   0  0  0  0  0  0  0  0  0  0  0  0
   -0.0021   13.8395    0.0000 O   0  0  0  0  0  0  0  0  0  0  0  0
    0.2719   15.3143    0.0000 H   0  0  0  0  0  0  0  0  0  0  0  0
    2.1895   10.4323    0.0000 O   0  0  0  0  0  0  0  0  0  0  0  0
   -1.2134   10.1283    0.0000 O   0  0  0  0  0  0  0  0  0  0  0  0
   -2.6274    9.6278    0.0000 H   0  0  0  0  0  0  0  0  0  0  0  0
   -0.7478    7.3472    0.0000 O   0  0  0  0  0  0  0  0  0  0  0  0
   -1.0213    5.8724    0.0000 H   0  0  0  0  0  0  0  0  0  0  0  0
    1.7177    5.4152    0.0000 O   0  0  0  0  0  0  0  0  0  0  0  0
    0.3035    4.9152    0.0000 H   0  0  0  0  0  0  0  0  0  0  0  0
    5.5647   -2.1632    0.0000 N   0  0  0  0  0  0  0  0  0  0  0  0
    5.6187   -3.6643    0.0000 N   0  0  0  0  0  0  0  0  0  0  0  0
    7.0511   -4.0839    0.0000 C   0  0  0  0  0  0  0  0  0  0  0  0
    7.5567   -5.4961    0.0000 H   0  0  0  0  0  0  0  0  0  0  0  0
    7.8959   -2.8444    0.0000 C   0  0  0  0  0  0  0  0  0  0  0  0
    9.3952   -2.7986    0.0000 H   0  0  0  0  0  0  0  0  0  0  0  0
    6.9816   -1.6646    0.0000 N   0  0  0  0  0  0  0  0  0  0  0  0
  1  2  1  0  0  0  0 
  1  3  1  0  0  0  0 
  1  4  1  0  0  0  0 
  1  5  1  0  0  0  0 
  5  6  2  0  0  0  0 
  6  7  1  0  0  0  0 
  6  8  1  0  0  0  0 
  8  9  1  0  0  0  0 
  8 10  2  0  0  0  0 
 10 11  1  0  0  0  0 
 11 12  2  0  0  0  0 
  5 12  1  0  0  0  0 
 12 13  1  0  0  0  0 
 11 14  1  0  0  0  0 
 14 15  2  0  0  0  0 
 14 16  1  0  0  0  0 
 16 17  1  0  0  0  0 
 17 18  1  0  0  0  0 
 17 19  1  0  0  0  0 
 17 20  1  0  0  0  0 
 20 21  1  0  0  0  0 
 20 22  1  0  0  0  0 
 20 23  1  0  0  0  0 
 23 24  1  0  0  0  0 
 24 25  1  0  0  0  0 
 24 26  1  0  0  0  0 
 24 27  1  0  0  0  0 
 27 28  1  0  0  0  0 
 27 29  1  0  0  0  0 
 27 30  1  0  0  0  0 
 16 30  1  0  0  0  0 
 30 31  1  0  0  0  0 
 30 32  1  0  0  0  0 
 32 33  1  0  0  0  0 
 32 34  1  0  0  0  0 
 32 35  1  0  0  0  0 
 23 36  1  0  0  0  0 
 36 37  2  0  0  0  0 
 37 38  1  0  0  0  0 
 38 39  2  0  0  0  0 
 39 40  1  0  0  0  0 
 40 41  1  0  0  0  0 
 40 42  2  0  0  0  0 
 42 43  1  0  0  0  0 
 42 44  1  0  0  0  0 
 44 45  2  0  0  0  0 
 38 45  1  0  0  0  0 
 45 46  1  0  0  0  0 
 44 47  1  0  0  0  0 
 39 48  1  0  0  0  0 
 36 48  1  0  0  0  0 
 37 49  1  0  0  0  0 
 49 50  1  0  0  0  0 
 49 51  1  0  0  0  0 
 51 52  1  0  0  0  0 
 51 53  1  0  0  0  0 
 53 54  1  0  0  0  0 
 53 55  1  0  0  0  0 
 55 56  1  0  0  0  0 
 55 57  1  0  0  0  0 
 57 58  1  0  0  0  0 
 57 59  1  0  0  0  0 
 59 60  2  0  0  0  0 
 59 61  1  0  0  0  0 
 61 62  1  0  0  0  0 
 57 63  1  0  0  0  0 
 49 63  1  0  0  0  0 
 55 64  1  0  0  0  0 
 64 65  1  0  0  0  0 
 53 66  1  0  0  0  0 
 66 67  1  0  0  0  0 
 51 68  1  0  0  0  0 
 68 69  1  0  0  0  0 
 10 70  1  0  0  0  0 
 70 71  1  0  0  0  0 
 71 72  2  0  0  0  0 
 72 73  1  0  0  0  0 
 72 74  1  0  0  0  0 
 74 75  1  0  0  0  0 
 74 76  2  0  0  0  0 
 70 76  1  0  0  0  0 
M  CHG  1  37   1
M  END
> <Rank>
36

> <Priority_score>
0.04

> <Reaction_type>
N-glucuronidation_(aromatic_=n-)

> <Parent_ID>
60

> <Parent_InChI>
InChI=1S/C23H23ClN6O2/c1-15-3-5-20(30-25-8-9-26-30)18(13-15)22(31)29-12-11-28(10-7-16(29)2)23-27-19-14-17(24)4-6-21(19)32-23/h3-6,8-9,13-14,16H,7,10-12H2,1-2H3

> <Parent_SMILES>
Cc1ccc(-n2nccn2)c(C(=O)N2CCN(c3nc4cc(Cl)ccc4o3)CCC2C)c1

$$$$
Molecule 60_metabolite 37
  CDK     0516241031

 56 60  0  0  0  0  0  0  0  0999 V2000
    3.1228    1.5815    0.0000 C   0  0  0  0  0  0  0  0  0  0  0  0
    1.7714    0.9305    0.0000 H   0  0  0  0  0  0  0  0  0  0  0  0
    2.2470    2.7993    0.0000 H   0  0  0  0  0  0  0  0  0  0  0  0
    4.1700    2.6555    0.0000 H   0  0  0  0  0  0  0  0  0  0  0  0
    4.3623    0.7368    0.0000 C   0  0  0  0  0  0  0  0  0  0  0  0
    4.2506   -0.7599    0.0000 C   0  0  0  0  0  0  0  0  0  0  0  0
    2.8991   -1.4107    0.0000 H   0  0  0  0  0  0  0  0  0  0  0  0
    5.4904   -1.6058    0.0000 C   0  0  0  0  0  0  0  0  0  0  0  0
    5.3780   -3.1015    0.0000 H   0  0  0  0  0  0  0  0  0  0  0  0
    6.8418   -0.9549    0.0000 C   0  0  0  0  0  0  0  0  0  0  0  0
    6.9535    0.5417    0.0000 C   0  0  0  0  0  0  0  0  0  0  0  0
    5.7137    1.3876    0.0000 C   0  0  0  0  0  0  0  0  0  0  0  0
    5.8261    2.8834    0.0000 H   0  0  0  0  0  0  0  0  0  0  0  0
    8.7374    1.4008    0.0000 C   0  0  0  0  0  0  0  0  0  0  0  0
    9.9768    0.5558    0.0000 O   0  0  0  0  0  0  0  0  0  0  0  0
    8.9213    3.8539    0.0000 N   0  0  0  0  0  0  0  0  0  0  0  0
    7.6222    4.6039    0.0000 C   0  0  0  0  0  0  0  0  0  0  0  0
    7.1801    3.1706    0.0000 H   0  0  0  0  0  0  0  0  0  0  0  0
    6.1264    4.7160    0.0000 H   0  0  0  0  0  0  0  0  0  0  0  0
    7.3987    6.0872    0.0000 C   0  0  0  0  0  0  0  0  0  0  0  0
    6.0023    5.5392    0.0000 H   0  0  0  0  0  0  0  0  0  0  0  0
    6.5537    7.3266    0.0000 H   0  0  0  0  0  0  0  0  0  0  0  0
    8.4189    7.1868    0.0000 N   0  0  0  0  0  0  0  0  0  0  0  0
    9.9147    7.0747    0.0000 C   0  0  0  0  0  0  0  0  0  0  0  0
    9.6912    8.5579    0.0000 H   0  0  0  0  0  0  0  0  0  0  0  0
   11.3110    7.6227    0.0000 H   0  0  0  0  0  0  0  0  0  0  0  0
   10.7597    5.8353    0.0000 C   0  0  0  0  0  0  0  0  0  0  0  0
   11.7800    6.9349    0.0000 H   0  0  0  0  0  0  0  0  0  0  0  0
   12.0587    5.0853    0.0000 H   0  0  0  0  0  0  0  0  0  0  0  0
   10.3176    4.4020    0.0000 C   0  0  0  0  0  0  0  0  0  0  0  0
   11.8134    4.2899    0.0000 H   0  0  0  0  0  0  0  0  0  0  0  0
   10.5411    2.9187    0.0000 C   0  0  0  0  0  0  0  0  0  0  0  0
   10.2439    1.4485    0.0000 H   0  0  0  0  0  0  0  0  0  0  0  0
    9.0416    2.9561    0.0000 H   0  0  0  0  0  0  0  0  0  0  0  0
   11.9374    2.3707    0.0000 O   0  0  0  0  0  0  0  0  0  0  0  0
   12.1610    0.8875    0.0000 H   0  0  0  0  0  0  0  0  0  0  0  0
    7.8709    8.5831    0.0000 C   0  0  0  0  0  0  0  0  0  0  0  0
    6.4230    8.9602    0.0000 N   0  0  0  0  0  0  0  0  0  0  0  0
    6.3288   10.4594    0.0000 C   0  0  0  0  0  0  0  0  0  0  0  0
    7.7251   11.0074    0.0000 C   0  0  0  0  0  0  0  0  0  0  0  0
    7.9483   12.4915    0.0000 C   0  0  0  0  0  0  0  0  0  0  0  0
    9.3446   13.0396    0.0000 H   0  0  0  0  0  0  0  0  0  0  0  0
    6.7752   13.4277    0.0000 C   0  0  0  0  0  0  0  0  0  0  0  0
    6.9990   14.9109    0.0000 H   0  0  0  0  0  0  0  0  0  0  0  0
    5.3789   12.8797    0.0000 C   0  0  0  0  0  0  0  0  0  0  0  0
    5.1557   11.3955    0.0000 C   0  0  0  0  0  0  0  0  0  0  0  0
    3.7594   10.8475    0.0000 H   0  0  0  0  0  0  0  0  0  0  0  0
    4.2060   13.8147    0.0000 Cl  0  0  0  0  0  0  0  0  0  0  0  0
    8.6758    9.8443    0.0000 O   0  0  0  0  0  0  0  0  0  0  0  0
    8.0813   -1.7997    0.0000 N   0  0  0  0  0  0  0  0  0  0  0  0
    8.1353   -3.3008    0.0000 N   0  0  0  0  0  0  0  0  0  0  0  0
    9.5677   -3.7204    0.0000 C   0  0  0  0  0  0  0  0  0  0  0  0
   10.0733   -5.1327    0.0000 H   0  0  0  0  0  0  0  0  0  0  0  0
   10.4125   -2.4809    0.0000 C   0  0  0  0  0  0  0  0  0  0  0  0
   11.9118   -2.4352    0.0000 H   0  0  0  0  0  0  0  0  0  0  0  0
    9.4982   -1.3011    0.0000 N   0  0  0  0  0  0  0  0  0  0  0  0
  1  2  1  0  0  0  0 
  1  3  1  0  0  0  0 
  1  4  1  0  0  0  0 
  1  5  1  0  0  0  0 
  5  6  2  0  0  0  0 
  6  7  1  0  0  0  0 
  6  8  1  0  0  0  0 
  8  9  1  0  0  0  0 
  8 10  2  0  0  0  0 
 10 11  1  0  0  0  0 
 11 12  2  0  0  0  0 
  5 12  1  0  0  0  0 
 12 13  1  0  0  0  0 
 11 14  1  0  0  0  0 
 14 15  2  0  0  0  0 
 14 16  1  0  0  0  0 
 16 17  1  0  0  0  0 
 17 18  1  0  0  0  0 
 17 19  1  0  0  0  0 
 17 20  1  0  0  0  0 
 20 21  1  0  0  0  0 
 20 22  1  0  0  0  0 
 20 23  1  0  0  0  0 
 23 24  1  0  0  0  0 
 24 25  1  0  0  0  0 
 24 26  1  0  0  0  0 
 24 27  1  0  0  0  0 
 27 28  1  0  0  0  0 
 27 29  1  0  0  0  0 
 27 30  1  0  0  0  0 
 16 30  1  0  0  0  0 
 30 31  1  0  0  0  0 
 30 32  1  0  0  0  0 
 32 33  1  0  0  0  0 
 32 34  1  0  0  0  0 
 32 35  1  0  0  0  0 
 35 36  1  0  0  0  0 
 23 37  1  0  0  0  0 
 37 38  2  0  0  0  0 
 38 39  1  0  0  0  0 
 39 40  2  0  0  0  0 
 40 41  1  0  0  0  0 
 41 42  1  0  0  0  0 
 41 43  2  0  0  0  0 
 43 44  1  0  0  0  0 
 43 45  1  0  0  0  0 
 45 46  2  0  0  0  0 
 39 46  1  0  0  0  0 
 46 47  1  0  0  0  0 
 45 48  1  0  0  0  0 
 40 49  1  0  0  0  0 
 37 49  1  0  0  0  0 
 10 50  1  0  0  0  0 
 50 51  1  0  0  0  0 
 51 52  2  0  0  0  0 
 52 53  1  0  0  0  0 
 52 54  1  0  0  0  0 
 54 55  1  0  0  0  0 
 54 56  2  0  0  0  0 
 50 56  1  0  0  0  0 
M  END
> <Rank>
37

> <Priority_score>
0.032

> <Reaction_type>
aliphatic hydroxylation

> <Parent_ID>
60

> <Parent_InChI>
InChI=1S/C23H23ClN6O2/c1-15-3-5-20(30-25-8-9-26-30)18(13-15)22(31)29-12-11-28(10-7-16(29)2)23-27-19-14-17(24)4-6-21(19)32-23/h3-6,8-9,13-14,16H,7,10-12H2,1-2H3

> <Parent_SMILES>
Cc1ccc(-n2nccn2)c(C(=O)N2CCN(c3nc4cc(Cl)ccc4o3)CCC2C)c1

$$$$
Molecule 60_metabolite 38
  CDK     0516241031

 54 58  0  0  0  0  0  0  0  0999 V2000
    3.1228    1.5815    0.0000 C   0  0  0  0  0  0  0  0  0  0  0  0
    1.7714    0.9305    0.0000 H   0  0  0  0  0  0  0  0  0  0  0  0
    2.2470    2.7993    0.0000 H   0  0  0  0  0  0  0  0  0  0  0  0
    4.1700    2.6555    0.0000 H   0  0  0  0  0  0  0  0  0  0  0  0
    4.3623    0.7368    0.0000 C   0  0  0  0  0  0  0  0  0  0  0  0
    4.2506   -0.7599    0.0000 C   0  0  0  0  0  0  0  0  0  0  0  0
    2.8991   -1.4107    0.0000 H   0  0  0  0  0  0  0  0  0  0  0  0
    5.4904   -1.6058    0.0000 C   0  0  0  0  0  0  0  0  0  0  0  0
    5.3780   -3.1015    0.0000 H   0  0  0  0  0  0  0  0  0  0  0  0
    6.8418   -0.9549    0.0000 C   0  0  0  0  0  0  0  0  0  0  0  0
    6.9535    0.5417    0.0000 C   0  0  0  0  0  0  0  0  0  0  0  0
    5.7137    1.3876    0.0000 C   0  0  0  0  0  0  0  0  0  0  0  0
    5.8261    2.8834    0.0000 H   0  0  0  0  0  0  0  0  0  0  0  0
    8.7374    1.4008    0.0000 C   0  0  0  0  0  0  0  0  0  0  0  0
    9.9768    0.5558    0.0000 O   0  0  0  0  0  0  0  0  0  0  0  0
    8.9213    3.8539    0.0000 N   0  0  0  0  0  0  0  0  0  0  0  0
    7.6222    4.6039    0.0000 C   0  0  0  0  0  0  0  0  0  0  0  0
    7.1801    3.1706    0.0000 H   0  0  0  0  0  0  0  0  0  0  0  0
    6.1264    4.7160    0.0000 H   0  0  0  0  0  0  0  0  0  0  0  0
    7.3987    6.0872    0.0000 C   0  0  0  0  0  0  0  0  0  0  0  0
    5.9653    6.5293    0.0000 H   0  0  0  0  0  0  0  0  0  0  0  0
    8.4189    7.1868    0.0000 N   0  0  0  0  0  0  0  0  0  0  0  0
    9.9147    7.0747    0.0000 C   0  0  0  0  0  0  0  0  0  0  0  0
    9.6912    8.5579    0.0000 H   0  0  0  0  0  0  0  0  0  0  0  0
   11.3110    7.6227    0.0000 H   0  0  0  0  0  0  0  0  0  0  0  0
   10.7597    5.8353    0.0000 C   0  0  0  0  0  0  0  0  0  0  0  0
   11.7800    6.9349    0.0000 H   0  0  0  0  0  0  0  0  0  0  0  0
   12.0587    5.0853    0.0000 H   0  0  0  0  0  0  0  0  0  0  0  0
   10.3176    4.4020    0.0000 C   0  0  0  0  0  0  0  0  0  0  0  0
   11.8134    4.2899    0.0000 H   0  0  0  0  0  0  0  0  0  0  0  0
   10.5411    2.9187    0.0000 C   0  0  0  0  0  0  0  0  0  0  0  0
    9.3684    1.9835    0.0000 H   0  0  0  0  0  0  0  0  0  0  0  0
   11.2585    1.6014    0.0000 H   0  0  0  0  0  0  0  0  0  0  0  0
   11.9630    3.3964    0.0000 H   0  0  0  0  0  0  0  0  0  0  0  0
    7.8709    8.5831    0.0000 C   0  0  0  0  0  0  0  0  0  0  0  0
    6.4230    8.9602    0.0000 N   0  0  0  0  0  0  0  0  0  0  0  0
    6.3288   10.4594    0.0000 C   0  0  0  0  0  0  0  0  0  0  0  0
    7.7251   11.0074    0.0000 C   0  0  0  0  0  0  0  0  0  0  0  0
    7.9483   12.4915    0.0000 C   0  0  0  0  0  0  0  0  0  0  0  0
    9.3446   13.0396    0.0000 H   0  0  0  0  0  0  0  0  0  0  0  0
    6.7752   13.4277    0.0000 C   0  0  0  0  0  0  0  0  0  0  0  0
    6.9990   14.9109    0.0000 H   0  0  0  0  0  0  0  0  0  0  0  0
    5.3789   12.8797    0.0000 C   0  0  0  0  0  0  0  0  0  0  0  0
    5.1557   11.3955    0.0000 C   0  0  0  0  0  0  0  0  0  0  0  0
    3.7594   10.8475    0.0000 H   0  0  0  0  0  0  0  0  0  0  0  0
    4.2060   13.8147    0.0000 Cl  0  0  0  0  0  0  0  0  0  0  0  0
    8.6758    9.8443    0.0000 O   0  0  0  0  0  0  0  0  0  0  0  0
    8.0813   -1.7997    0.0000 N   0  0  0  0  0  0  0  0  0  0  0  0
    8.1353   -3.3008    0.0000 N   0  0  0  0  0  0  0  0  0  0  0  0
    9.5677   -3.7204    0.0000 C   0  0  0  0  0  0  0  0  0  0  0  0
   10.0733   -5.1327    0.0000 H   0  0  0  0  0  0  0  0  0  0  0  0
   10.4125   -2.4809    0.0000 C   0  0  0  0  0  0  0  0  0  0  0  0
   11.9118   -2.4352    0.0000 H   0  0  0  0  0  0  0  0  0  0  0  0
    9.4982   -1.3011    0.0000 N   0  0  0  0  0  0  0  0  0  0  0  0
  1  2  1  0  0  0  0 
  1  3  1  0  0  0  0 
  1  4  1  0  0  0  0 
  1  5  1  0  0  0  0 
  5  6  2  0  0  0  0 
  6  7  1  0  0  0  0 
  6  8  1  0  0  0  0 
  8  9  1  0  0  0  0 
  8 10  2  0  0  0  0 
 10 11  1  0  0  0  0 
 11 12  2  0  0  0  0 
  5 12  1  0  0  0  0 
 12 13  1  0  0  0  0 
 11 14  1  0  0  0  0 
 14 15  2  0  0  0  0 
 14 16  1  0  0  0  0 
 16 17  1  0  0  0  0 
 17 18  1  0  0  0  0 
 17 19  1  0  0  0  0 
 17 20  1  0  0  0  0 
 20 21  1  0  0  0  0 
 20 22  2  0  0  0  0 
 22 23  1  0  0  0  0 
 23 24  1  0  0  0  0 
 23 25  1  0  0  0  0 
 23 26  1  0  0  0  0 
 26 27  1  0  0  0  0 
 26 28  1  0  0  0  0 
 26 29  1  0  0  0  0 
 16 29  1  0  0  0  0 
 29 30  1  0  0  0  0 
 29 31  1  0  0  0  0 
 31 32  1  0  0  0  0 
 31 33  1  0  0  0  0 
 31 34  1  0  0  0  0 
 22 35  1  0  0  0  0 
 35 36  2  0  0  0  0 
 36 37  1  0  0  0  0 
 37 38  2  0  0  0  0 
 38 39  1  0  0  0  0 
 39 40  1  0  0  0  0 
 39 41  2  0  0  0  0 
 41 42  1  0  0  0  0 
 41 43  1  0  0  0  0 
 43 44  2  0  0  0  0 
 37 44  1  0  0  0  0 
 44 45  1  0  0  0  0 
 43 46  1  0  0  0  0 
 38 47  1  0  0  0  0 
 35 47  1  0  0  0  0 
 10 48  1  0  0  0  0 
 48 49  1  0  0  0  0 
 49 50  2  0  0  0  0 
 50 51  1  0  0  0  0 
 50 52  1  0  0  0  0 
 52 53  1  0  0  0  0 
 52 54  2  0  0  0  0 
 48 54  1  0  0  0  0 
M  CHG  1  22   1
M  END
> <Rank>
38

> <Priority_score>
0.027840674394099055

> <Reaction_type>
dehydration of N-C bond

> <Parent_ID>
60

> <Parent_InChI>
InChI=1S/C23H23ClN6O2/c1-15-3-5-20(30-25-8-9-26-30)18(13-15)22(31)29-12-11-28(10-7-16(29)2)23-27-19-14-17(24)4-6-21(19)32-23/h3-6,8-9,13-14,16H,7,10-12H2,1-2H3

> <Parent_SMILES>
Cc1ccc(-n2nccn2)c(C(=O)N2CCN(c3nc4cc(Cl)ccc4o3)CCC2C)c1

$$$$
Molecule 60_metabolite 39
  CDK     0516241031

 56 60  0  0  0  0  0  0  0  0999 V2000
    3.1228    1.5815    0.0000 C   0  0  0  0  0  0  0  0  0  0  0  0
    1.7714    0.9305    0.0000 H   0  0  0  0  0  0  0  0  0  0  0  0
    2.2470    2.7993    0.0000 H   0  0  0  0  0  0  0  0  0  0  0  0
    4.1700    2.6555    0.0000 H   0  0  0  0  0  0  0  0  0  0  0  0
    4.3623    0.7368    0.0000 C   0  0  0  0  0  0  0  0  0  0  0  0
    4.2506   -0.7599    0.0000 C   0  0  0  0  0  0  0  0  0  0  0  0
    2.8991   -1.4107    0.0000 H   0  0  0  0  0  0  0  0  0  0  0  0
    5.4904   -1.6058    0.0000 C   0  0  0  0  0  0  0  0  0  0  0  0
    5.3780   -3.1015    0.0000 H   0  0  0  0  0  0  0  0  0  0  0  0
    6.8418   -0.9549    0.0000 C   0  0  0  0  0  0  0  0  0  0  0  0
    6.9535    0.5417    0.0000 C   0  0  0  0  0  0  0  0  0  0  0  0
    5.7137    1.3876    0.0000 C   0  0  0  0  0  0  0  0  0  0  0  0
    5.8261    2.8834    0.0000 H   0  0  0  0  0  0  0  0  0  0  0  0
    8.7374    1.4008    0.0000 C   0  0  0  0  0  0  0  0  0  0  0  0
    9.9768    0.5558    0.0000 O   0  0  0  0  0  0  0  0  0  0  0  0
    8.9213    3.8539    0.0000 N   0  0  0  0  0  0  0  0  0  0  0  0
    7.6222    4.6039    0.0000 C   0  0  0  0  0  0  0  0  0  0  0  0
    7.1801    3.1706    0.0000 H   0  0  0  0  0  0  0  0  0  0  0  0
    6.1264    4.7160    0.0000 H   0  0  0  0  0  0  0  0  0  0  0  0
    7.3987    6.0872    0.0000 C   0  0  0  0  0  0  0  0  0  0  0  0
    6.0023    5.5392    0.0000 H   0  0  0  0  0  0  0  0  0  0  0  0
    6.5537    7.3266    0.0000 H   0  0  0  0  0  0  0  0  0  0  0  0
    8.4189    7.1868    0.0000 N   0  0  0  0  0  0  0  0  0  0  0  0
    9.9147    7.0747    0.0000 C   0  0  0  0  0  0  0  0  0  0  0  0
    9.6912    8.5579    0.0000 H   0  0  0  0  0  0  0  0  0  0  0  0
   11.3110    7.6227    0.0000 H   0  0  0  0  0  0  0  0  0  0  0  0
   10.7597    5.8353    0.0000 C   0  0  0  0  0  0  0  0  0  0  0  0
   11.7800    6.9349    0.0000 H   0  0  0  0  0  0  0  0  0  0  0  0
   12.0587    5.0853    0.0000 H   0  0  0  0  0  0  0  0  0  0  0  0
   10.3176    4.4020    0.0000 C   0  0  0  0  0  0  0  0  0  0  0  0
   11.8134    4.2899    0.0000 H   0  0  0  0  0  0  0  0  0  0  0  0
   10.5411    2.9187    0.0000 C   0  0  0  0  0  0  0  0  0  0  0  0
    9.3684    1.9835    0.0000 H   0  0  0  0  0  0  0  0  0  0  0  0
   11.2585    1.6014    0.0000 H   0  0  0  0  0  0  0  0  0  0  0  0
   11.9630    3.3964    0.0000 H   0  0  0  0  0  0  0  0  0  0  0  0
    7.8709    8.5831    0.0000 C   0  0  0  0  0  0  0  0  0  0  0  0
    6.4230    8.9602    0.0000 N   0  0  0  0  0  0  0  0  0  0  0  0
    6.3288   10.4594    0.0000 C   0  0  0  0  0  0  0  0  0  0  0  0
    7.7251   11.0074    0.0000 C   0  0  0  0  0  0  0  0  0  0  0  0
    7.9483   12.4915    0.0000 C   0  0  0  0  0  0  0  0  0  0  0  0
    9.3446   13.0396    0.0000 H   0  0  0  0  0  0  0  0  0  0  0  0
    6.7752   13.4277    0.0000 C   0  0  0  0  0  0  0  0  0  0  0  0
    6.9990   14.9109    0.0000 H   0  0  0  0  0  0  0  0  0  0  0  0
    5.3789   12.8797    0.0000 C   0  0  0  0  0  0  0  0  0  0  0  0
    5.1557   11.3955    0.0000 C   0  0  0  0  0  0  0  0  0  0  0  0
    3.7594   10.8475    0.0000 H   0  0  0  0  0  0  0  0  0  0  0  0
    4.2060   13.8147    0.0000 O   0  0  0  0  0  0  0  0  0  0  0  0
    4.4293   15.2980    0.0000 H   0  0  0  0  0  0  0  0  0  0  0  0
    8.6758    9.8443    0.0000 O   0  0  0  0  0  0  0  0  0  0  0  0
    8.0813   -1.7997    0.0000 N   0  0  0  0  0  0  0  0  0  0  0  0
    8.1353   -3.3008    0.0000 N   0  0  0  0  0  0  0  0  0  0  0  0
    9.5677   -3.7204    0.0000 C   0  0  0  0  0  0  0  0  0  0  0  0
   10.0733   -5.1327    0.0000 H   0  0  0  0  0  0  0  0  0  0  0  0
   10.4125   -2.4809    0.0000 C   0  0  0  0  0  0  0  0  0  0  0  0
   11.9118   -2.4352    0.0000 H   0  0  0  0  0  0  0  0  0  0  0  0
    9.4982   -1.3011    0.0000 N   0  0  0  0  0  0  0  0  0  0  0  0
  1  2  1  0  0  0  0 
  1  3  1  0  0  0  0 
  1  4  1  0  0  0  0 
  1  5  1  0  0  0  0 
  5  6  2  0  0  0  0 
  6  7  1  0  0  0  0 
  6  8  1  0  0  0  0 
  8  9  1  0  0  0  0 
  8 10  2  0  0  0  0 
 10 11  1  0  0  0  0 
 11 12  2  0  0  0  0 
  5 12  1  0  0  0  0 
 12 13  1  0  0  0  0 
 11 14  1  0  0  0  0 
 14 15  2  0  0  0  0 
 14 16  1  0  0  0  0 
 16 17  1  0  0  0  0 
 17 18  1  0  0  0  0 
 17 19  1  0  0  0  0 
 17 20  1  0  0  0  0 
 20 21  1  0  0  0  0 
 20 22  1  0  0  0  0 
 20 23  1  0  0  0  0 
 23 24  1  0  0  0  0 
 24 25  1  0  0  0  0 
 24 26  1  0  0  0  0 
 24 27  1  0  0  0  0 
 27 28  1  0  0  0  0 
 27 29  1  0  0  0  0 
 27 30  1  0  0  0  0 
 16 30  1  0  0  0  0 
 30 31  1  0  0  0  0 
 30 32  1  0  0  0  0 
 32 33  1  0  0  0  0 
 32 34  1  0  0  0  0 
 32 35  1  0  0  0  0 
 23 36  1  0  0  0  0 
 36 37  2  0  0  0  0 
 37 38  1  0  0  0  0 
 38 39  2  0  0  0  0 
 39 40  1  0  0  0  0 
 40 41  1  0  0  0  0 
 40 42  2  0  0  0  0 
 42 43  1  0  0  0  0 
 42 44  1  0  0  0  0 
 44 45  2  0  0  0  0 
 38 45  1  0  0  0  0 
 45 46  1  0  0  0  0 
 44 47  1  0  0  0  0 
 47 48  1  0  0  0  0 
 39 49  1  0  0  0  0 
 36 49  1  0  0  0  0 
 10 50  1  0  0  0  0 
 50 51  1  0  0  0  0 
 51 52  2  0  0  0  0 
 52 53  1  0  0  0  0 
 52 54  1  0  0  0  0 
 54 55  1  0  0  0  0 
 54 56  2  0  0  0  0 
 50 56  1  0  0  0  0 
M  END
> <Rank>
39

> <Priority_score>
0.01664067439409905

> <Reaction_type>
oxidative dehalogenation benzyl

> <Parent_ID>
60

> <Parent_InChI>
InChI=1S/C23H23ClN6O2/c1-15-3-5-20(30-25-8-9-26-30)18(13-15)22(31)29-12-11-28(10-7-16(29)2)23-27-19-14-17(24)4-6-21(19)32-23/h3-6,8-9,13-14,16H,7,10-12H2,1-2H3

> <Parent_SMILES>
Cc1ccc(-n2nccn2)c(C(=O)N2CCN(c3nc4cc(Cl)ccc4o3)CCC2C)c1

$$$$
Molecule 60_metabolite 40
  CDK     0516241031

 54 58  0  0  0  0  0  0  0  0999 V2000
    2.9814    2.5960    0.0000 C   0  0  0  0  0  0  0  0  0  0  0  0
    1.5375    2.1895    0.0000 H   0  0  0  0  0  0  0  0  0  0  0  0
    2.3304    3.9473    0.0000 H   0  0  0  0  0  0  0  0  0  0  0  0
    4.1992    3.4718    0.0000 H   0  0  0  0  0  0  0  0  0  0  0  0
    4.0554    1.5488    0.0000 C   0  0  0  0  0  0  0  0  0  0  0  0
    3.6855    0.0942    0.0000 C   0  0  0  0  0  0  0  0  0  0  0  0
    2.2416   -0.3120    0.0000 H   0  0  0  0  0  0  0  0  0  0  0  0
    4.7596   -0.9541    0.0000 C   0  0  0  0  0  0  0  0  0  0  0  0
    4.3892   -2.4076    0.0000 H   0  0  0  0  0  0  0  0  0  0  0  0
    6.2035   -0.5478    0.0000 C   0  0  0  0  0  0  0  0  0  0  0  0
    6.5734    0.9068    0.0000 C   0  0  0  0  0  0  0  0  0  0  0  0
    5.4993    1.9550    0.0000 C   0  0  0  0  0  0  0  0  0  0  0  0
    5.8697    3.4086    0.0000 H   0  0  0  0  0  0  0  0  0  0  0  0
    8.4794    1.4430    0.0000 C   0  0  0  0  0  0  0  0  0  0  0  0
    9.5532    0.3957    0.0000 O   0  0  0  0  0  0  0  0  0  0  0  0
    9.0864    3.8269    0.0000 N   0  0  0  0  0  0  0  0  0  0  0  0
    7.7874    4.5769    0.0000 C   0  0  0  0  0  0  0  0  0  0  0  0
    6.5480    3.7320    0.0000 H   0  0  0  0  0  0  0  0  0  0  0  0
    7.5638    6.0602    0.0000 C   0  0  0  0  0  0  0  0  0  0  0  0
    6.1675    5.5122    0.0000 H   0  0  0  0  0  0  0  0  0  0  0  0
    6.7188    7.2996    0.0000 H   0  0  0  0  0  0  0  0  0  0  0  0
    8.5841    7.1598    0.0000 N   0  0  0  0  0  0  0  0  0  0  0  0
   10.0799    7.0477    0.0000 C   0  0  0  0  0  0  0  0  0  0  0  0
    9.8563    8.5309    0.0000 H   0  0  0  0  0  0  0  0  0  0  0  0
   11.4762    7.5957    0.0000 H   0  0  0  0  0  0  0  0  0  0  0  0
   10.9248    5.8083    0.0000 C   0  0  0  0  0  0  0  0  0  0  0  0
   11.9451    6.9079    0.0000 H   0  0  0  0  0  0  0  0  0  0  0  0
   12.2239    5.0583    0.0000 H   0  0  0  0  0  0  0  0  0  0  0  0
   10.4827    4.3750    0.0000 C   0  0  0  0  0  0  0  0  0  0  0  0
   11.9785    4.2629    0.0000 H   0  0  0  0  0  0  0  0  0  0  0  0
   10.7063    2.8917    0.0000 C   0  0  0  0  0  0  0  0  0  0  0  0
    9.5335    1.9565    0.0000 H   0  0  0  0  0  0  0  0  0  0  0  0
   11.4237    1.5744    0.0000 H   0  0  0  0  0  0  0  0  0  0  0  0
   12.1282    3.3694    0.0000 H   0  0  0  0  0  0  0  0  0  0  0  0
    8.0360    8.5561    0.0000 C   0  0  0  0  0  0  0  0  0  0  0  0
    6.5882    8.9332    0.0000 N   0  0  0  0  0  0  0  0  0  0  0  0
    6.4940   10.4324    0.0000 C   0  0  0  0  0  0  0  0  0  0  0  0
    7.8903   10.9804    0.0000 C   0  0  0  0  0  0  0  0  0  0  0  0
    8.1135   12.4645    0.0000 C   0  0  0  0  0  0  0  0  0  0  0  0
    9.5098   13.0126    0.0000 H   0  0  0  0  0  0  0  0  0  0  0  0
    6.9404   13.4007    0.0000 C   0  0  0  0  0  0  0  0  0  0  0  0
    7.1642   14.8839    0.0000 H   0  0  0  0  0  0  0  0  0  0  0  0
    5.5441   12.8527    0.0000 C   0  0  0  0  0  0  0  0  0  0  0  0
    5.3209   11.3685    0.0000 C   0  0  0  0  0  0  0  0  0  0  0  0
    3.9245   10.8205    0.0000 H   0  0  0  0  0  0  0  0  0  0  0  0
    4.3712   13.7877    0.0000 Cl  0  0  0  0  0  0  0  0  0  0  0  0
    8.8409    9.8173    0.0000 O   0  0  0  0  0  0  0  0  0  0  0  0
    7.2775   -1.5950    0.0000 N   0  0  0  0  0  0  0  0  0  0  0  0
    7.0700   -3.0826    0.0000 N   0  0  0  0  0  0  0  0  0  0  0  0
    8.4078   -3.7446    0.0000 C   0  0  0  0  0  0  0  0  0  0  0  0
    8.6605   -5.2232    0.0000 H   0  0  0  0  0  0  0  0  0  0  0  0
    9.4550   -2.6707    0.0000 C   0  0  0  0  0  0  0  0  0  0  0  0
   10.9394   -2.8859    0.0000 H   0  0  0  0  0  0  0  0  0  0  0  0
    8.7594   -1.3500    0.0000 N   0  0  0  0  0  0  0  0  0  0  0  0
  1  2  1  0  0  0  0 
  1  3  1  0  0  0  0 
  1  4  1  0  0  0  0 
  1  5  1  0  0  0  0 
  5  6  2  0  0  0  0 
  6  7  1  0  0  0  0 
  6  8  1  0  0  0  0 
  8  9  1  0  0  0  0 
  8 10  2  0  0  0  0 
 10 11  1  0  0  0  0 
 11 12  2  0  0  0  0 
  5 12  1  0  0  0  0 
 12 13  1  0  0  0  0 
 11 14  1  0  0  0  0 
 14 15  2  0  0  0  0 
 14 16  1  0  0  0  0 
 16 17  2  0  0  0  0 
 17 18  1  0  0  0  0 
 17 19  1  0  0  0  0 
 19 20  1  0  0  0  0 
 19 21  1  0  0  0  0 
 19 22  1  0  0  0  0 
 22 23  1  0  0  0  0 
 23 24  1  0  0  0  0 
 23 25  1  0  0  0  0 
 23 26  1  0  0  0  0 
 26 27  1  0  0  0  0 
 26 28  1  0  0  0  0 
 26 29  1  0  0  0  0 
 16 29  1  0  0  0  0 
 29 30  1  0  0  0  0 
 29 31  1  0  0  0  0 
 31 32  1  0  0  0  0 
 31 33  1  0  0  0  0 
 31 34  1  0  0  0  0 
 22 35  1  0  0  0  0 
 35 36  2  0  0  0  0 
 36 37  1  0  0  0  0 
 37 38  2  0  0  0  0 
 38 39  1  0  0  0  0 
 39 40  1  0  0  0  0 
 39 41  2  0  0  0  0 
 41 42  1  0  0  0  0 
 41 43  1  0  0  0  0 
 43 44  2  0  0  0  0 
 37 44  1  0  0  0  0 
 44 45  1  0  0  0  0 
 43 46  1  0  0  0  0 
 38 47  1  0  0  0  0 
 35 47  1  0  0  0  0 
 10 48  1  0  0  0  0 
 48 49  1  0  0  0  0 
 49 50  2  0  0  0  0 
 50 51  1  0  0  0  0 
 50 52  1  0  0  0  0 
 52 53  1  0  0  0  0 
 52 54  2  0  0  0  0 
 48 54  1  0  0  0  0 
M  CHG  1  16   1
M  END
> <Rank>
40

> <Priority_score>
0.0152

> <Reaction_type>
dehydration of N-C bond

> <Parent_ID>
60

> <Parent_InChI>
InChI=1S/C23H23ClN6O2/c1-15-3-5-20(30-25-8-9-26-30)18(13-15)22(31)29-12-11-28(10-7-16(29)2)23-27-19-14-17(24)4-6-21(19)32-23/h3-6,8-9,13-14,16H,7,10-12H2,1-2H3

> <Parent_SMILES>
Cc1ccc(-n2nccn2)c(C(=O)N2CCN(c3nc4cc(Cl)ccc4o3)CCC2C)c1

$$$$
Molecule 60_metabolite 41
  CDK     0516241031

 53 57  0  0  0  0  0  0  0  0999 V2000
   11.6654    5.6942    0.0000 C   0  0  0  0  0  0  0  0  0  0  0  0
   11.7772    7.1901    0.0000 H   0  0  0  0  0  0  0  0  0  0  0  0
   13.1579    5.8438    0.0000 H   0  0  0  0  0  0  0  0  0  0  0  0
   12.0719    4.2504    0.0000 H   0  0  0  0  0  0  0  0  0  0  0  0
   10.3140    5.0432    0.0000 C   0  0  0  0  0  0  0  0  0  0  0  0
    9.0737    5.8882    0.0000 C   0  0  0  0  0  0  0  0  0  0  0  0
    9.1858    7.3840    0.0000 H   0  0  0  0  0  0  0  0  0  0  0  0
    7.7213    5.2375    0.0000 C   0  0  0  0  0  0  0  0  0  0  0  0
    6.4821    6.0827    0.0000 H   0  0  0  0  0  0  0  0  0  0  0  0
    7.6092    3.7417    0.0000 C   0  0  0  0  0  0  0  0  0  0  0  0
    8.8495    2.8966    0.0000 C   0  0  0  0  0  0  0  0  0  0  0  0
   10.2019    3.5474    0.0000 C   0  0  0  0  0  0  0  0  0  0  0  0
   11.4411    2.7022    0.0000 H   0  0  0  0  0  0  0  0  0  0  0  0
    8.7374    1.4008    0.0000 C   0  0  0  0  0  0  0  0  0  0  0  0
    7.3860    0.7500    0.0000 O   0  0  0  0  0  0  0  0  0  0  0  0
   10.3734    0.2855    0.0000 N   0  0  0  0  0  0  0  0  0  0  0  0
   11.6724    1.0355    0.0000 C   0  0  0  0  0  0  0  0  0  0  0  0
   10.6522    2.1350    0.0000 H   0  0  0  0  0  0  0  0  0  0  0  0
   12.5174    2.2748    0.0000 H   0  0  0  0  0  0  0  0  0  0  0  0
   13.0687    0.4874    0.0000 C   0  0  0  0  0  0  0  0  0  0  0  0
   13.2923    1.9707    0.0000 H   0  0  0  0  0  0  0  0  0  0  0  0
   14.5645    0.5995    0.0000 H   0  0  0  0  0  0  0  0  0  0  0  0
   13.5109   -0.9459    0.0000 N   0  0  0  0  0  0  0  0  0  0  0  0
   12.6659   -2.1853    0.0000 C   0  0  0  0  0  0  0  0  0  0  0  0
   14.0622   -2.7333    0.0000 H   0  0  0  0  0  0  0  0  0  0  0  0
   12.4423   -3.6685    0.0000 H   0  0  0  0  0  0  0  0  0  0  0  0
   11.1701   -2.2974    0.0000 C   0  0  0  0  0  0  0  0  0  0  0  0
   10.6221   -3.6937    0.0000 H   0  0  0  0  0  0  0  0  0  0  0  0
   10.1498   -1.1978    0.0000 C   0  0  0  0  0  0  0  0  0  0  0  0
    8.7164   -1.6399    0.0000 C   0  0  0  0  0  0  0  0  0  0  0  0
    8.3827   -3.1023    0.0000 H   0  0  0  0  0  0  0  0  0  0  0  0
    7.2183   -1.5652    0.0000 H   0  0  0  0  0  0  0  0  0  0  0  0
    8.5299   -0.1516    0.0000 H   0  0  0  0  0  0  0  0  0  0  0  0
   14.9941   -1.1695    0.0000 C   0  0  0  0  0  0  0  0  0  0  0  0
   16.0446   -0.1042    0.0000 N   0  0  0  0  0  0  0  0  0  0  0  0
   17.3901   -0.7721    0.0000 C   0  0  0  0  0  0  0  0  0  0  0  0
   17.1665   -2.2554    0.0000 C   0  0  0  0  0  0  0  0  0  0  0  0
   18.3402   -3.1908    0.0000 C   0  0  0  0  0  0  0  0  0  0  0  0
   18.1167   -4.6740    0.0000 H   0  0  0  0  0  0  0  0  0  0  0  0
   19.7375   -2.6429    0.0000 C   0  0  0  0  0  0  0  0  0  0  0  0
   20.9101   -3.5783    0.0000 H   0  0  0  0  0  0  0  0  0  0  0  0
   19.9610   -1.1597    0.0000 C   0  0  0  0  0  0  0  0  0  0  0  0
   18.7873   -0.2243    0.0000 C   0  0  0  0  0  0  0  0  0  0  0  0
   19.0109    1.2590    0.0000 H   0  0  0  0  0  0  0  0  0  0  0  0
   21.3573   -0.6114    0.0000 Cl  0  0  0  0  0  0  0  0  0  0  0  0
   15.6839   -2.4971    0.0000 O   0  0  0  0  0  0  0  0  0  0  0  0
    6.2578    3.0906    0.0000 N   0  0  0  0  0  0  0  0  0  0  0  0
    4.9309    3.7944    0.0000 N   0  0  0  0  0  0  0  0  0  0  0  0
    3.8512    2.7637    0.0000 C   0  0  0  0  0  0  0  0  0  0  0  0
    2.3754    3.0320    0.0000 H   0  0  0  0  0  0  0  0  0  0  0  0
    4.5023    1.4124    0.0000 C   0  0  0  0  0  0  0  0  0  0  0  0
    3.7923    0.0910    0.0000 H   0  0  0  0  0  0  0  0  0  0  0  0
    5.9812    1.6143    0.0000 N   0  0  0  0  0  0  0  0  0  0  0  0
  1  2  1  0  0  0  0 
  1  3  1  0  0  0  0 
  1  4  1  0  0  0  0 
  1  5  1  0  0  0  0 
  5  6  2  0  0  0  0 
  6  7  1  0  0  0  0 
  6  8  1  0  0  0  0 
  8  9  1  0  0  0  0 
  8 10  2  0  0  0  0 
 10 11  1  0  0  0  0 
 11 12  2  0  0  0  0 
  5 12  1  0  0  0  0 
 12 13  1  0  0  0  0 
 11 14  1  0  0  0  0 
 14 15  2  0  0  0  0 
 14 16  1  0  0  0  0 
 16 17  1  0  0  0  0 
 17 18  1  0  0  0  0 
 17 19  1  0  0  0  0 
 17 20  1  0  0  0  0 
 20 21  1  0  0  0  0 
 20 22  1  0  0  0  0 
 20 23  1  0  0  0  0 
 23 24  1  0  0  0  0 
 24 25  1  0  0  0  0 
 24 26  1  0  0  0  0 
 24 27  1  0  0  0  0 
 27 28  1  0  0  0  0 
 27 29  2  0  0  0  0 
 16 29  1  0  0  0  0 
 29 30  1  0  0  0  0 
 30 31  1  0  0  0  0 
 30 32  1  0  0  0  0 
 30 33  1  0  0  0  0 
 23 34  1  0  0  0  0 
 34 35  2  0  0  0  0 
 35 36  1  0  0  0  0 
 36 37  2  0  0  0  0 
 37 38  1  0  0  0  0 
 38 39  1  0  0  0  0 
 38 40  2  0  0  0  0 
 40 41  1  0  0  0  0 
 40 42  1  0  0  0  0 
 42 43  2  0  0  0  0 
 36 43  1  0  0  0  0 
 43 44  1  0  0  0  0 
 42 45  1  0  0  0  0 
 37 46  1  0  0  0  0 
 34 46  1  0  0  0  0 
 10 47  1  0  0  0  0 
 47 48  1  0  0  0  0 
 48 49  2  0  0  0  0 
 49 50  1  0  0  0  0 
 49 51  1  0  0  0  0 
 51 52  1  0  0  0  0 
 51 53  2  0  0  0  0 
 47 53  1  0  0  0  0 
M  END
> <Rank>
41

> <Priority_score>
0.0144

> <Reaction_type>
alkyl dehydrogenation

> <Parent_ID>
60

> <Parent_InChI>
InChI=1S/C23H23ClN6O2/c1-15-3-5-20(30-25-8-9-26-30)18(13-15)22(31)29-12-11-28(10-7-16(29)2)23-27-19-14-17(24)4-6-21(19)32-23/h3-6,8-9,13-14,16H,7,10-12H2,1-2H3

> <Parent_SMILES>
Cc1ccc(-n2nccn2)c(C(=O)N2CCN(c3nc4cc(Cl)ccc4o3)CCC2C)c1

$$$$
Molecule 60_metabolite 42
  CDK     0516241031

 54 58  0  0  0  0  0  0  0  0999 V2000
    6.4821   -6.0827    0.0000 C   0  0  0  0  0  0  0  0  0  0  0  0
    6.5944   -7.5785    0.0000 H   0  0  0  0  0  0  0  0  0  0  0  0
    5.0285   -6.4530    0.0000 H   0  0  0  0  0  0  0  0  0  0  0  0
    5.8649   -4.7155    0.0000 H   0  0  0  0  0  0  0  0  0  0  0  0
    7.7213   -5.2375    0.0000 C   0  0  0  0  0  0  0  0  0  0  0  0
    9.0737   -5.8882    0.0000 C   0  0  0  0  0  0  0  0  0  0  0  0
    9.1858   -7.3840    0.0000 H   0  0  0  0  0  0  0  0  0  0  0  0
   10.3140   -5.0432    0.0000 C   0  0  0  0  0  0  0  0  0  0  0  0
   11.6654   -5.6942    0.0000 H   0  0  0  0  0  0  0  0  0  0  0  0
   10.2019   -3.5474    0.0000 C   0  0  0  0  0  0  0  0  0  0  0  0
    8.8495   -2.8966    0.0000 C   0  0  0  0  0  0  0  0  0  0  0  0
    7.6092   -3.7417    0.0000 C   0  0  0  0  0  0  0  0  0  0  0  0
    6.2578   -3.0906    0.0000 H   0  0  0  0  0  0  0  0  0  0  0  0
    8.7374   -1.4008    0.0000 C   0  0  0  0  0  0  0  0  0  0  0  0
    9.9768   -0.5558    0.0000 O   0  0  0  0  0  0  0  0  0  0  0  0
    6.9535   -0.5417    0.0000 N   0  0  0  0  0  0  0  0  0  0  0  0
    6.9535    0.9583    0.0000 C   0  0  0  0  0  0  0  0  0  0  0  0
    8.3050    1.6091    0.0000 C   0  0  0  0  0  0  0  0  0  0  0  0
    8.4170    3.1049    0.0000 H   0  0  0  0  0  0  0  0  0  0  0  0
    9.7975    1.7584    0.0000 H   0  0  0  0  0  0  0  0  0  0  0  0
    8.7112    0.1652    0.0000 H   0  0  0  0  0  0  0  0  0  0  0  0
    5.7808    1.8935    0.0000 C   0  0  0  0  0  0  0  0  0  0  0  0
    6.9535    2.8287    0.0000 H   0  0  0  0  0  0  0  0  0  0  0  0
    5.1299    3.2450    0.0000 H   0  0  0  0  0  0  0  0  0  0  0  0
    4.3184    1.5597    0.0000 C   0  0  0  0  0  0  0  0  0  0  0  0
    4.3184    3.0597    0.0000 H   0  0  0  0  0  0  0  0  0  0  0  0
    2.8560    1.8935    0.0000 H   0  0  0  0  0  0  0  0  0  0  0  0
    3.6675    0.2083    0.0000 N   0  0  0  0  0  0  0  0  0  0  0  0
    4.3184   -1.1432    0.0000 C   0  0  0  0  0  0  0  0  0  0  0  0
    2.8560   -1.4770    0.0000 H   0  0  0  0  0  0  0  0  0  0  0  0
    4.3184   -2.6432    0.0000 H   0  0  0  0  0  0  0  0  0  0  0  0
    5.7808   -1.4770    0.0000 C   0  0  0  0  0  0  0  0  0  0  0  0
    5.1299   -2.8284    0.0000 H   0  0  0  0  0  0  0  0  0  0  0  0
    6.9535   -2.4122    0.0000 H   0  0  0  0  0  0  0  0  0  0  0  0
    2.1675    0.2083    0.0000 C   0  0  0  0  0  0  0  0  0  0  0  0
    1.2875    1.4183    0.0000 N   0  0  0  0  0  0  0  0  0  0  0  0
   -0.1425    0.9583    0.0000 C   0  0  0  0  0  0  0  0  0  0  0  0
   -0.1425   -0.5417    0.0000 C   0  0  0  0  0  0  0  0  0  0  0  0
   -1.4425   -1.2917    0.0000 C   0  0  0  0  0  0  0  0  0  0  0  0
   -1.4425   -2.7917    0.0000 H   0  0  0  0  0  0  0  0  0  0  0  0
   -2.7425   -0.5417    0.0000 C   0  0  0  0  0  0  0  0  0  0  0  0
   -4.0414   -1.2919    0.0000 H   0  0  0  0  0  0  0  0  0  0  0  0
   -2.7425    0.9583    0.0000 C   0  0  0  0  0  0  0  0  0  0  0  0
   -1.4425    1.7083    0.0000 C   0  0  0  0  0  0  0  0  0  0  0  0
   -1.4425    3.2083    0.0000 H   0  0  0  0  0  0  0  0  0  0  0  0
   -4.0414    1.7085    0.0000 Cl  0  0  0  0  0  0  0  0  0  0  0  0
    1.2875   -1.0017    0.0000 O   0  0  0  0  0  0  0  0  0  0  0  0
   11.4411   -2.7022    0.0000 N   0  0  0  0  0  0  0  0  0  0  0  0
   12.8582   -3.2004    0.0000 N   0  0  0  0  0  0  0  0  0  0  0  0
   13.7721   -2.0202    0.0000 C   0  0  0  0  0  0  0  0  0  0  0  0
   15.2715   -2.0655    0.0000 H   0  0  0  0  0  0  0  0  0  0  0  0
   12.9270   -0.7810    0.0000 C   0  0  0  0  0  0  0  0  0  0  0  0
   13.4321    0.6314    0.0000 H   0  0  0  0  0  0  0  0  0  0  0  0
   11.4946   -1.2011    0.0000 N   0  0  0  0  0  0  0  0  0  0  0  0
  1  2  1  0  0  0  0 
  1  3  1  0  0  0  0 
  1  4  1  0  0  0  0 
  1  5  1  0  0  0  0 
  5  6  2  0  0  0  0 
  6  7  1  0  0  0  0 
  6  8  1  0  0  0  0 
  8  9  1  0  0  0  0 
  8 10  2  0  0  0  0 
 10 11  1  0  0  0  0 
 11 12  2  0  0  0  0 
  5 12  1  0  0  0  0 
 12 13  1  0  0  0  0 
 11 14  1  0  0  0  0 
 14 15  2  0  0  0  0 
 14 16  1  0  0  0  0 
 16 17  2  0  0  0  0 
 17 18  1  0  0  0  0 
 18 19  1  0  0  0  0 
 18 20  1  0  0  0  0 
 18 21  1  0  0  0  0 
 17 22  1  0  0  0  0 
 22 23  1  0  0  0  0 
 22 24  1  0  0  0  0 
 22 25  1  0  0  0  0 
 25 26  1  0  0  0  0 
 25 27  1  0  0  0  0 
 25 28  1  0  0  0  0 
 28 29  1  0  0  0  0 
 29 30  1  0  0  0  0 
 29 31  1  0  0  0  0 
 29 32  1  0  0  0  0 
 16 32  1  0  0  0  0 
 32 33  1  0  0  0  0 
 32 34  1  0  0  0  0 
 28 35  1  0  0  0  0 
 35 36  2  0  0  0  0 
 36 37  1  0  0  0  0 
 37 38  2  0  0  0  0 
 38 39  1  0  0  0  0 
 39 40  1  0  0  0  0 
 39 41  2  0  0  0  0 
 41 42  1  0  0  0  0 
 41 43  1  0  0  0  0 
 43 44  2  0  0  0  0 
 37 44  1  0  0  0  0 
 44 45  1  0  0  0  0 
 43 46  1  0  0  0  0 
 38 47  1  0  0  0  0 
 35 47  1  0  0  0  0 
 10 48  1  0  0  0  0 
 48 49  1  0  0  0  0 
 49 50  2  0  0  0  0 
 50 51  1  0  0  0  0 
 50 52  1  0  0  0  0 
 52 53  1  0  0  0  0 
 52 54  2  0  0  0  0 
 48 54  1  0  0  0  0 
M  CHG  1  16   1
M  END
> <Rank>
42

> <Priority_score>
0.012

> <Reaction_type>
dehydration of N-C bond

> <Parent_ID>
60

> <Parent_InChI>
InChI=1S/C23H23ClN6O2/c1-15-3-5-20(30-25-8-9-26-30)18(13-15)22(31)29-12-11-28(10-7-16(29)2)23-27-19-14-17(24)4-6-21(19)32-23/h3-6,8-9,13-14,16H,7,10-12H2,1-2H3

> <Parent_SMILES>
Cc1ccc(-n2nccn2)c(C(=O)N2CCN(c3nc4cc(Cl)ccc4o3)CCC2C)c1

$$$$
Molecule 60_metabolite 43
  CDK     0516241031

 53 57  0  0  0  0  0  0  0  0999 V2000
    3.5552    1.7898    0.0000 C   0  0  0  0  0  0  0  0  0  0  0  0
    2.2039    1.1388    0.0000 H   0  0  0  0  0  0  0  0  0  0  0  0
    2.6794    3.0076    0.0000 H   0  0  0  0  0  0  0  0  0  0  0  0
    4.6024    2.8638    0.0000 H   0  0  0  0  0  0  0  0  0  0  0  0
    4.7947    0.9450    0.0000 C   0  0  0  0  0  0  0  0  0  0  0  0
    4.6831   -0.5517    0.0000 C   0  0  0  0  0  0  0  0  0  0  0  0
    3.3316   -1.2025    0.0000 H   0  0  0  0  0  0  0  0  0  0  0  0
    5.9228   -1.3975    0.0000 C   0  0  0  0  0  0  0  0  0  0  0  0
    5.8105   -2.8933    0.0000 H   0  0  0  0  0  0  0  0  0  0  0  0
    7.2743   -0.7467    0.0000 C   0  0  0  0  0  0  0  0  0  0  0  0
    7.3860    0.7500    0.0000 C   0  0  0  0  0  0  0  0  0  0  0  0
    6.1462    1.5958    0.0000 C   0  0  0  0  0  0  0  0  0  0  0  0
    6.2585    3.0916    0.0000 H   0  0  0  0  0  0  0  0  0  0  0  0
    8.7374    1.4008    0.0000 C   0  0  0  0  0  0  0  0  0  0  0  0
    9.9768    0.5558    0.0000 O   0  0  0  0  0  0  0  0  0  0  0  0
    8.8854    3.3753    0.0000 N   0  0  0  0  0  0  0  0  0  0  0  0
    7.5863    4.1253    0.0000 C   0  0  0  0  0  0  0  0  0  0  0  0
    7.1442    2.6919    0.0000 H   0  0  0  0  0  0  0  0  0  0  0  0
    6.0905    4.2374    0.0000 H   0  0  0  0  0  0  0  0  0  0  0  0
    7.3628    5.6085    0.0000 C   0  0  0  0  0  0  0  0  0  0  0  0
    5.9665    5.0605    0.0000 H   0  0  0  0  0  0  0  0  0  0  0  0
    6.5178    6.8479    0.0000 H   0  0  0  0  0  0  0  0  0  0  0  0
    8.3830    6.7081    0.0000 N   0  0  0  0  0  0  0  0  0  0  0  0
    9.8788    6.5960    0.0000 C   0  0  0  0  0  0  0  0  0  0  0  0
    9.6553    8.0793    0.0000 H   0  0  0  0  0  0  0  0  0  0  0  0
   11.2752    7.1440    0.0000 H   0  0  0  0  0  0  0  0  0  0  0  0
   10.7238    5.3567    0.0000 C   0  0  0  0  0  0  0  0  0  0  0  0
   11.7441    6.4562    0.0000 H   0  0  0  0  0  0  0  0  0  0  0  0
   12.0229    4.6067    0.0000 H   0  0  0  0  0  0  0  0  0  0  0  0
   10.2817    3.9233    0.0000 C   0  0  0  0  0  0  0  0  0  0  0  0
   11.3813    2.9030    0.0000 C   0  0  0  0  0  0  0  0  0  0  0  0
   12.8146    3.3452    0.0000 H   0  0  0  0  0  0  0  0  0  0  0  0
   11.0475    1.4406    0.0000 H   0  0  0  0  0  0  0  0  0  0  0  0
    7.8350    8.1044    0.0000 C   0  0  0  0  0  0  0  0  0  0  0  0
    6.3872    8.4815    0.0000 N   0  0  0  0  0  0  0  0  0  0  0  0
    6.2929    9.9807    0.0000 C   0  0  0  0  0  0  0  0  0  0  0  0
    7.6892   10.5287    0.0000 C   0  0  0  0  0  0  0  0  0  0  0  0
    7.9125   12.0129    0.0000 C   0  0  0  0  0  0  0  0  0  0  0  0
    9.3088   12.5609    0.0000 H   0  0  0  0  0  0  0  0  0  0  0  0
    6.7394   12.9490    0.0000 C   0  0  0  0  0  0  0  0  0  0  0  0
    6.9632   14.4322    0.0000 H   0  0  0  0  0  0  0  0  0  0  0  0
    5.3431   12.4010    0.0000 C   0  0  0  0  0  0  0  0  0  0  0  0
    5.1198   10.9169    0.0000 C   0  0  0  0  0  0  0  0  0  0  0  0
    3.7235   10.3689    0.0000 H   0  0  0  0  0  0  0  0  0  0  0  0
    4.1702   13.3361    0.0000 Cl  0  0  0  0  0  0  0  0  0  0  0  0
    8.6399    9.3657    0.0000 O   0  0  0  0  0  0  0  0  0  0  0  0
    8.5138   -1.5915    0.0000 N   0  0  0  0  0  0  0  0  0  0  0  0
    8.5678   -3.0925    0.0000 N   0  0  0  0  0  0  0  0  0  0  0  0
   10.0002   -3.5122    0.0000 C   0  0  0  0  0  0  0  0  0  0  0  0
   10.5058   -4.9244    0.0000 H   0  0  0  0  0  0  0  0  0  0  0  0
   10.8450   -2.2727    0.0000 C   0  0  0  0  0  0  0  0  0  0  0  0
   12.3443   -2.2269    0.0000 H   0  0  0  0  0  0  0  0  0  0  0  0
    9.9307   -1.0928    0.0000 N   0  0  0  0  0  0  0  0  0  0  0  0
  1  2  1  0  0  0  0 
  1  3  1  0  0  0  0 
  1  4  1  0  0  0  0 
  1  5  1  0  0  0  0 
  5  6  2  0  0  0  0 
  6  7  1  0  0  0  0 
  6  8  1  0  0  0  0 
  8  9  1  0  0  0  0 
  8 10  2  0  0  0  0 
 10 11  1  0  0  0  0 
 11 12  2  0  0  0  0 
  5 12  1  0  0  0  0 
 12 13  1  0  0  0  0 
 11 14  1  0  0  0  0 
 14 15  2  0  0  0  0 
 14 16  1  0  0  0  0 
 16 17  1  0  0  0  0 
 17 18  1  0  0  0  0 
 17 19  1  0  0  0  0 
 17 20  1  0  0  0  0 
 20 21  1  0  0  0  0 
 20 22  1  0  0  0  0 
 20 23  1  0  0  0  0 
 23 24  1  0  0  0  0 
 24 25  1  0  0  0  0 
 24 26  1  0  0  0  0 
 24 27  1  0  0  0  0 
 27 28  1  0  0  0  0 
 27 29  1  0  0  0  0 
 27 30  1  0  0  0  0 
 16 30  1  0  0  0  0 
 30 31  2  0  0  0  0 
 31 32  1  0  0  0  0 
 31 33  1  0  0  0  0 
 23 34  1  0  0  0  0 
 34 35  2  0  0  0  0 
 35 36  1  0  0  0  0 
 36 37  2  0  0  0  0 
 37 38  1  0  0  0  0 
 38 39  1  0  0  0  0 
 38 40  2  0  0  0  0 
 40 41  1  0  0  0  0 
 40 42  1  0  0  0  0 
 42 43  2  0  0  0  0 
 36 43  1  0  0  0  0 
 43 44  1  0  0  0  0 
 42 45  1  0  0  0  0 
 37 46  1  0  0  0  0 
 34 46  1  0  0  0  0 
 10 47  1  0  0  0  0 
 47 48  1  0  0  0  0 
 48 49  2  0  0  0  0 
 49 50  1  0  0  0  0 
 49 51  1  0  0  0  0 
 51 52  1  0  0  0  0 
 51 53  2  0  0  0  0 
 47 53  1  0  0  0  0 
M  END
> <Rank>
43

> <Priority_score>
0.0088

> <Reaction_type>
alkyl dehydrogenation

> <Parent_ID>
60

> <Parent_InChI>
InChI=1S/C23H23ClN6O2/c1-15-3-5-20(30-25-8-9-26-30)18(13-15)22(31)29-12-11-28(10-7-16(29)2)23-27-19-14-17(24)4-6-21(19)32-23/h3-6,8-9,13-14,16H,7,10-12H2,1-2H3

> <Parent_SMILES>
Cc1ccc(-n2nccn2)c(C(=O)N2CCN(c3nc4cc(Cl)ccc4o3)CCC2C)c1

$$$$
Molecule 61
  CDK     0516241031

 28 30  0  0  0  0  0  0  0  0999 V2000
    2.5989    1.5002    0.0000 C   0  0  0  0  0  0  0  0  0  0  0  0
    1.3000    0.7500    0.0000 C   0  0  0  0  0  0  0  0  0  0  0  0
    0.0000    1.5000    0.0000 C   0  0  0  0  0  0  0  0  0  0  0  0
   -1.3000    0.7500    0.0000 C   0  0  0  0  0  0  0  0  0  0  0  0
   -1.3000   -0.7500    0.0000 C   0  0  0  0  0  0  0  0  0  0  0  0
    0.0000   -1.5000    0.0000 C   0  0  0  0  0  0  0  0  0  0  0  0
    1.3000   -0.7500    0.0000 C   0  0  0  0  0  0  0  0  0  0  0  0
   -2.5989   -1.5002    0.0000 S   0  0  0  0  0  0  0  0  0  0  0  0
   -3.5629   -2.6494    0.0000 O   0  0  0  0  0  0  0  0  0  0  0  0
   -1.6346   -2.6491    0.0000 O   0  0  0  0  0  0  0  0  0  0  0  0
   -3.8981   -0.7504    0.0000 N   0  0  0  0  0  0  0  0  0  0  0  0
   -5.1970   -1.5006    0.0000 C   0  0  0  0  0  0  0  0  0  0  0  0
   -5.1970   -3.0015    0.0000 C   0  0  0  0  0  0  0  0  0  0  0  0
   -6.4963   -3.7527    0.0000 C   0  0  0  0  0  0  0  0  0  0  0  0
   -7.7956   -3.0031    0.0000 C   0  0  0  0  0  0  0  0  0  0  0  0
   -7.7956   -1.5023    0.0000 C   0  0  0  0  0  0  0  0  0  0  0  0
   -6.4963   -0.7510    0.0000 C   0  0  0  0  0  0  0  0  0  0  0  0
   -9.0945   -3.7533    0.0000 C   0  0  0  0  0  0  0  0  0  0  0  0
   -9.0942   -5.2533    0.0000 O   0  0  0  0  0  0  0  0  0  0  0  0
  -10.3936   -3.0035    0.0000 C   0  0  0  0  0  0  0  0  0  0  0  0
  -11.6925   -3.7537    0.0000 C   0  0  0  0  0  0  0  0  0  0  0  0
  -12.9917   -3.0040    0.0000 C   0  0  0  0  0  0  0  0  0  0  0  0
  -14.2869   -3.7605    0.0000 C   0  0  0  0  0  0  0  0  0  0  0  0
  -15.5751   -3.0422    0.0000 C   0  0  0  0  0  0  0  0  0  0  0  0
  -15.6084   -1.4982    0.0000 C   0  0  0  0  0  0  0  0  0  0  0  0
  -14.3132   -0.7417    0.0000 C   0  0  0  0  0  0  0  0  0  0  0  0
  -12.9847   -1.5290    0.0000 C   0  0  0  0  0  0  0  0  0  0  0  0
  -16.9173   -0.7656    0.0000 O   0  0  0  0  0  0  0  0  0  0  0  0
  1  2  1  0  0  0  0 
  2  3  2  0  0  0  0 
  3  4  1  0  0  0  0 
  4  5  2  0  0  0  0 
  5  6  1  0  0  0  0 
  6  7  2  0  0  0  0 
  2  7  1  0  0  0  0 
  5  8  1  0  0  0  0 
  8  9  2  0  0  0  0 
  8 10  2  0  0  0  0 
  8 11  1  0  0  0  0 
 11 12  1  0  0  0  0 
 12 13  2  0  0  0  0 
 13 14  1  0  0  0  0 
 14 15  2  0  0  0  0 
 15 16  1  0  0  0  0 
 16 17  2  0  0  0  0 
 12 17  1  0  0  0  0 
 15 18  1  0  0  0  0 
 18 19  2  0  0  0  0 
 18 20  1  0  0  0  0 
 20 21  2  0  0  0  0 
 21 22  1  0  0  0  0 
 22 23  2  0  0  0  0 
 23 24  1  0  0  0  0 
 24 25  2  0  0  0  0 
 25 26  1  0  0  0  0 
 26 27  2  0  0  0  0 
 22 27  1  0  0  0  0 
 25 28  1  0  0  0  0 
M  END
> <SMILES>
Cc1ccc(S(=O)(=O)Nc2ccc(C(=O)/C=C/c3ccc(O)cc3)cc2)cc1

$$$$
Molecule 61_metabolite 1
  CDK     0516241031

 51 53  0  0  0  0  0  0  0  0999 V2000
  -14.7438   -5.7940    0.0000 C   0  0  0  0  0  0  0  0  0  0  0  0
  -14.7440   -4.2940    0.0000 H   0  0  0  0  0  0  0  0  0  0  0  0
  -16.2210   -5.5337    0.0000 H   0  0  0  0  0  0  0  0  0  0  0  0
  -15.2566   -7.2036    0.0000 H   0  0  0  0  0  0  0  0  0  0  0  0
  -13.4446   -6.5438    0.0000 C   0  0  0  0  0  0  0  0  0  0  0  0
  -13.4442   -8.0446    0.0000 C   0  0  0  0  0  0  0  0  0  0  0  0
  -14.7432   -8.7946    0.0000 H   0  0  0  0  0  0  0  0  0  0  0  0
  -12.1446   -8.7954    0.0000 C   0  0  0  0  0  0  0  0  0  0  0  0
  -12.1449  -10.2954    0.0000 H   0  0  0  0  0  0  0  0  0  0  0  0
  -10.8456   -8.0454    0.0000 C   0  0  0  0  0  0  0  0  0  0  0  0
  -10.8461   -6.5446    0.0000 C   0  0  0  0  0  0  0  0  0  0  0  0
   -9.5470   -5.7946    0.0000 H   0  0  0  0  0  0  0  0  0  0  0  0
  -12.1456   -5.7938    0.0000 C   0  0  0  0  0  0  0  0  0  0  0  0
  -12.1454   -4.2938    0.0000 H   0  0  0  0  0  0  0  0  0  0  0  0
   -9.5464   -8.7952    0.0000 S   0  0  0  0  0  0  0  0  0  0  0  0
  -10.5104   -9.9444    0.0000 O   0  0  0  0  0  0  0  0  0  0  0  0
   -8.5821   -9.9441    0.0000 O   0  0  0  0  0  0  0  0  0  0  0  0
   -8.2475   -8.0450    0.0000 N   0  0  0  0  0  0  0  0  0  0  0  0
   -8.2478   -6.5450    0.0000 H   0  0  0  0  0  0  0  0  0  0  0  0
   -6.9484   -8.7948    0.0000 C   0  0  0  0  0  0  0  0  0  0  0  0
   -5.6486   -8.0444    0.0000 C   0  0  0  0  0  0  0  0  0  0  0  0
   -5.6491   -6.5444    0.0000 H   0  0  0  0  0  0  0  0  0  0  0  0
   -4.3484   -8.7940    0.0000 C   0  0  0  0  0  0  0  0  0  0  0  0
   -3.0497   -8.0433    0.0000 H   0  0  0  0  0  0  0  0  0  0  0  0
   -4.3479  -10.2940    0.0000 C   0  0  0  0  0  0  0  0  0  0  0  0
   -5.6476  -11.0444    0.0000 C   0  0  0  0  0  0  0  0  0  0  0  0
   -5.6472  -12.5444    0.0000 H   0  0  0  0  0  0  0  0  0  0  0  0
   -6.9479  -10.2948    0.0000 C   0  0  0  0  0  0  0  0  0  0  0  0
   -8.2466  -11.0454    0.0000 H   0  0  0  0  0  0  0  0  0  0  0  0
   -3.0487  -11.0438    0.0000 C   0  0  0  0  0  0  0  0  0  0  0  0
   -3.0485  -12.5438    0.0000 O   0  0  0  0  0  0  0  0  0  0  0  0
   -1.7498  -10.2935    0.0000 C   0  0  0  0  0  0  0  0  0  0  0  0
   -1.7500   -8.7935    0.0000 H   0  0  0  0  0  0  0  0  0  0  0  0
   -0.4506  -11.0433    0.0000 C   0  0  0  0  0  0  0  0  0  0  0  0
   -0.4504  -12.5433    0.0000 H   0  0  0  0  0  0  0  0  0  0  0  0
    0.8483  -10.2931    0.0000 C   0  0  0  0  0  0  0  0  0  0  0  0
    0.8406   -8.7931    0.0000 C   0  0  0  0  0  0  0  0  0  0  0  0
   -0.4658   -8.0562    0.0000 H   0  0  0  0  0  0  0  0  0  0  0  0
    2.1068   -8.0367    0.0000 C   0  0  0  0  0  0  0  0  0  0  0  0
    2.0794   -6.5370    0.0000 H   0  0  0  0  0  0  0  0  0  0  0  0
    3.4606   -8.7798    0.0000 C   0  0  0  0  0  0  0  0  0  0  0  0
    3.4682  -10.2798    0.0000 C   0  0  0  0  0  0  0  0  0  0  0  0
    4.7649  -11.0339    0.0000 H   0  0  0  0  0  0  0  0  0  0  0  0
    2.1221  -11.0367    0.0000 C   0  0  0  0  0  0  0  0  0  0  0  0
    2.1099  -12.5366    0.0000 H   0  0  0  0  0  0  0  0  0  0  0  0
    4.7495   -8.0126    0.0000 O   0  0  0  0  0  0  0  0  0  0  0  0
    6.0585   -8.7452    0.0000 S   0  0  0  0  0  0  0  0  0  0  0  0
    5.1097   -9.9070    0.0000 O   0  0  0  0  0  0  0  0  0  0  0  0
    7.0379   -9.8813    0.0000 O   0  0  0  0  0  0  0  0  0  0  0  0
    7.3474   -7.9779    0.0000 O   0  0  0  0  0  0  0  0  0  0  0  0
    8.6563   -8.7106    0.0000 H   0  0  0  0  0  0  0  0  0  0  0  0
  1  2  1  0  0  0  0 
  1  3  1  0  0  0  0 
  1  4  1  0  0  0  0 
  1  5  1  0  0  0  0 
  5  6  2  0  0  0  0 
  6  7  1  0  0  0  0 
  6  8  1  0  0  0  0 
  8  9  1  0  0  0  0 
  8 10  2  0  0  0  0 
 10 11  1  0  0  0  0 
 11 12  1  0  0  0  0 
 11 13  2  0  0  0  0 
  5 13  1  0  0  0  0 
 13 14  1  0  0  0  0 
 10 15  1  0  0  0  0 
 15 16  2  0  0  0  0 
 15 17  2  0  0  0  0 
 15 18  1  0  0  0  0 
 18 19  1  0  0  0  0 
 18 20  1  0  0  0  0 
 20 21  2  0  0  0  0 
 21 22  1  0  0  0  0 
 21 23  1  0  0  0  0 
 23 24  1  0  0  0  0 
 23 25  2  0  0  0  0 
 25 26  1  0  0  0  0 
 26 27  1  0  0  0  0 
 26 28  2  0  0  0  0 
 20 28  1  0  0  0  0 
 28 29  1  0  0  0  0 
 25 30  1  0  0  0  0 
 30 31  2  0  0  0  0 
 30 32  1  0  0  0  0 
 32 33  1  0  0  0  0 
 32 34  2  0  0  0  0 
 34 35  1  0  0  0  0 
 34 36  1  0  0  0  0 
 36 37  2  0  0  0  0 
 37 38  1  0  0  0  0 
 37 39  1  0  0  0  0 
 39 40  1  0  0  0  0 
 39 41  2  0  0  0  0 
 41 42  1  0  0  0  0 
 42 43  1  0  0  0  0 
 42 44  2  0  0  0  0 
 36 44  1  0  0  0  0 
 44 45  1  0  0  0  0 
 41 46  1  0  0  0  0 
 46 47  1  0  0  0  0 
 47 48  2  0  0  0  0 
 47 49  2  0  0  0  0 
 47 50  1  0  0  0  0 
 50 51  1  0  0  0  0 
M  END
> <Rank>
1

> <Priority_score>
0.968

> <Reaction_type>
sulfation_(aromatic_hydroxyl)

> <Parent_ID>
61

> <Parent_InChI>
InChI=1S/C22H19NO4S/c1-16-2-13-21(14-3-16)28(26,27)23-19-9-7-18(8-10-19)22(25)15-6-17-4-11-20(24)12-5-17/h2-15,23-24H,1H3

> <Parent_SMILES>
Cc1ccc(S(=O)(=O)Nc2ccc(C(=O)/C=C/c3ccc(O)cc3)cc2)cc1

$$$$
Molecule 61_metabolite 2
  CDK     0516241031

 67 70  0  0  0  0  0  0  0  0999 V2000
   22.3865    5.2178    0.0000 C   0  0  0  0  0  0  0  0  0  0  0  0
   23.3631    6.3563    0.0000 H   0  0  0  0  0  0  0  0  0  0  0  0
   21.8581    3.8139    0.0000 H   0  0  0  0  0  0  0  0  0  0  0  0
   23.6773    4.4537    0.0000 H   0  0  0  0  0  0  0  0  0  0  0  0
   20.9122    5.4943    0.0000 C   0  0  0  0  0  0  0  0  0  0  0  0
   20.4140    6.9101    0.0000 C   0  0  0  0  0  0  0  0  0  0  0  0
   21.3908    8.0484    0.0000 H   0  0  0  0  0  0  0  0  0  0  0  0
   18.9390    7.1874    0.0000 C   0  0  0  0  0  0  0  0  0  0  0  0
   18.4418    8.6026    0.0000 H   0  0  0  0  0  0  0  0  0  0  0  0
   17.9622    6.0491    0.0000 C   0  0  0  0  0  0  0  0  0  0  0  0
   18.4604    4.6333    0.0000 C   0  0  0  0  0  0  0  0  0  0  0  0
   17.4836    3.4950    0.0000 H   0  0  0  0  0  0  0  0  0  0  0  0
   19.9354    4.3560    0.0000 C   0  0  0  0  0  0  0  0  0  0  0  0
   20.4326    2.9408    0.0000 H   0  0  0  0  0  0  0  0  0  0  0  0
   16.4879    6.3256    0.0000 S   0  0  0  0  0  0  0  0  0  0  0  0
   17.0162    7.7295    0.0000 O   0  0  0  0  0  0  0  0  0  0  0  0
   15.1971    7.0897    0.0000 O   0  0  0  0  0  0  0  0  0  0  0  0
   15.5113    5.1871    0.0000 N   0  0  0  0  0  0  0  0  0  0  0  0
   16.0090    3.7720    0.0000 H   0  0  0  0  0  0  0  0  0  0  0  0
   14.0370    5.4636    0.0000 C   0  0  0  0  0  0  0  0  0  0  0  0
   13.0597    4.3246    0.0000 C   0  0  0  0  0  0  0  0  0  0  0  0
   13.5576    2.9096    0.0000 H   0  0  0  0  0  0  0  0  0  0  0  0
   11.5844    4.6006    0.0000 C   0  0  0  0  0  0  0  0  0  0  0  0
   10.6082    3.4617    0.0000 H   0  0  0  0  0  0  0  0  0  0  0  0
   11.0865    6.0155    0.0000 C   0  0  0  0  0  0  0  0  0  0  0  0
   12.0639    7.1545    0.0000 C   0  0  0  0  0  0  0  0  0  0  0  0
   11.5660    8.5695    0.0000 H   0  0  0  0  0  0  0  0  0  0  0  0
   13.5391    6.8785    0.0000 C   0  0  0  0  0  0  0  0  0  0  0  0
   14.5154    8.0174    0.0000 H   0  0  0  0  0  0  0  0  0  0  0  0
    9.6122    6.2920    0.0000 C   0  0  0  0  0  0  0  0  0  0  0  0
    9.1146    7.7071    0.0000 O   0  0  0  0  0  0  0  0  0  0  0  0
    8.6356    5.1535    0.0000 C   0  0  0  0  0  0  0  0  0  0  0  0
    9.1333    3.7385    0.0000 H   0  0  0  0  0  0  0  0  0  0  0  0
    7.1613    5.4300    0.0000 C   0  0  0  0  0  0  0  0  0  0  0  0
    6.6636    6.8451    0.0000 H   0  0  0  0  0  0  0  0  0  0  0  0
    6.1847    4.2915    0.0000 C   0  0  0  0  0  0  0  0  0  0  0  0
    6.6893    2.8789    0.0000 C   0  0  0  0  0  0  0  0  0  0  0  0
    8.1663    2.6170    0.0000 H   0  0  0  0  0  0  0  0  0  0  0  0
    5.7457    1.7454    0.0000 C   0  0  0  0  0  0  0  0  0  0  0  0
    6.2689    0.3396    0.0000 H   0  0  0  0  0  0  0  0  0  0  0  0
    4.2221    1.9975    0.0000 C   0  0  0  0  0  0  0  0  0  0  0  0
    3.7174    3.4101    0.0000 C   0  0  0  0  0  0  0  0  0  0  0  0
    2.2441    3.6915    0.0000 H   0  0  0  0  0  0  0  0  0  0  0  0
    4.7364    4.5705    0.0000 C   0  0  0  0  0  0  0  0  0  0  0  0
    4.2504    5.9896    0.0000 H   0  0  0  0  0  0  0  0  0  0  0  0
    3.2605    0.8462    0.0000 O   0  0  0  0  0  0  0  0  0  0  0  0
    1.7827    1.1033    0.0000 C   0  0  0  0  0  0  0  0  0  0  0  0
    2.2893    2.5152    0.0000 H   0  0  0  0  0  0  0  0  0  0  0  0
    1.7827   -0.3867    0.0000 C   0  0  0  0  0  0  0  0  0  0  0  0
    2.2946   -1.7966    0.0000 H   0  0  0  0  0  0  0  0  0  0  0  0
    0.4627   -1.1467    0.0000 C   0  0  0  0  0  0  0  0  0  0  0  0
   -0.5061   -2.2919    0.0000 H   0  0  0  0  0  0  0  0  0  0  0  0
   -0.8373   -0.3867    0.0000 C   0  0  0  0  0  0  0  0  0  0  0  0
   -2.3140   -0.1236    0.0000 H   0  0  0  0  0  0  0  0  0  0  0  0
   -0.8373    1.1033    0.0000 C   0  0  0  0  0  0  0  0  0  0  0  0
   -1.3500    2.5129    0.0000 H   0  0  0  0  0  0  0  0  0  0  0  0
   -2.7872    0.7597    0.0000 C   0  0  0  0  0  0  0  0  0  0  0  0
   -3.7513    1.9089    0.0000 O   0  0  0  0  0  0  0  0  0  0  0  0
   -3.3004   -0.6498    0.0000 O   0  0  0  0  0  0  0  0  0  0  0  0
   -4.7777   -0.9101    0.0000 H   0  0  0  0  0  0  0  0  0  0  0  0
    0.4627    1.8533    0.0000 O   0  0  0  0  0  0  0  0  0  0  0  0
   -1.3554   -1.7944    0.0000 O   0  0  0  0  0  0  0  0  0  0  0  0
   -2.8336   -2.0495    0.0000 H   0  0  0  0  0  0  0  0  0  0  0  0
    1.4239   -2.2983    0.0000 O   0  0  0  0  0  0  0  0  0  0  0  0
    0.9072   -3.7065    0.0000 H   0  0  0  0  0  0  0  0  0  0  0  0
    3.2600   -0.1268    0.0000 O   0  0  0  0  0  0  0  0  0  0  0  0
    4.2238   -1.2763    0.0000 H   0  0  0  0  0  0  0  0  0  0  0  0
  1  2  1  0  0  0  0 
  1  3  1  0  0  0  0 
  1  4  1  0  0  0  0 
  1  5  1  0  0  0  0 
  5  6  2  0  0  0  0 
  6  7  1  0  0  0  0 
  6  8  1  0  0  0  0 
  8  9  1  0  0  0  0 
  8 10  2  0  0  0  0 
 10 11  1  0  0  0  0 
 11 12  1  0  0  0  0 
 11 13  2  0  0  0  0 
  5 13  1  0  0  0  0 
 13 14  1  0  0  0  0 
 10 15  1  0  0  0  0 
 15 16  2  0  0  0  0 
 15 17  2  0  0  0  0 
 15 18  1  0  0  0  0 
 18 19  1  0  0  0  0 
 18 20  1  0  0  0  0 
 20 21  2  0  0  0  0 
 21 22  1  0  0  0  0 
 21 23  1  0  0  0  0 
 23 24  1  0  0  0  0 
 23 25  2  0  0  0  0 
 25 26  1  0  0  0  0 
 26 27  1  0  0  0  0 
 26 28  2  0  0  0  0 
 20 28  1  0  0  0  0 
 28 29  1  0  0  0  0 
 25 30  1  0  0  0  0 
 30 31  2  0  0  0  0 
 30 32  1  0  0  0  0 
 32 33  1  0  0  0  0 
 32 34  2  0  0  0  0 
 34 35  1  0  0  0  0 
 34 36  1  0  0  0  0 
 36 37  2  0  0  0  0 
 37 38  1  0  0  0  0 
 37 39  1  0  0  0  0 
 39 40  1  0  0  0  0 
 39 41  2  0  0  0  0 
 41 42  1  0  0  0  0 
 42 43  1  0  0  0  0 
 42 44  2  0  0  0  0 
 36 44  1  0  0  0  0 
 44 45  1  0  0  0  0 
 41 46  1  0  0  0  0 
 46 47  1  0  0  0  0 
 47 48  1  0  0  0  0 
 47 49  1  0  0  0  0 
 49 50  1  0  0  0  0 
 49 51  1  0  0  0  0 
 51 52  1  0  0  0  0 
 51 53  1  0  0  0  0 
 53 54  1  0  0  0  0 
 53 55  1  0  0  0  0 
 55 56  1  0  0  0  0 
 55 57  1  0  0  0  0 
 57 58  2  0  0  0  0 
 57 59  1  0  0  0  0 
 59 60  1  0  0  0  0 
 55 61  1  0  0  0  0 
 47 61  1  0  0  0  0 
 53 62  1  0  0  0  0 
 62 63  1  0  0  0  0 
 51 64  1  0  0  0  0 
 64 65  1  0  0  0  0 
 49 66  1  0  0  0  0 
 66 67  1  0  0  0  0 
M  END
> <Rank>
2

> <Priority_score>
0.94

> <Reaction_type>
O-glucuronidation_(aromatic_hydroxyl)

> <Parent_ID>
61

> <Parent_InChI>
InChI=1S/C22H19NO4S/c1-16-2-13-21(14-3-16)28(26,27)23-19-9-7-18(8-10-19)22(25)15-6-17-4-11-20(24)12-5-17/h2-15,23-24H,1H3

> <Parent_SMILES>
Cc1ccc(S(=O)(=O)Nc2ccc(C(=O)/C=C/c3ccc(O)cc3)cc2)cc1

$$$$
Molecule 61_metabolite 3
  CDK     0516241031

 84 86  0  0  0  0  0  0  0  0999 V2000
  -17.6195   -0.9641    0.0000 C   0  0  0  0  0  0  0  0  0  0  0  0
  -16.8697    0.3351    0.0000 H   0  0  0  0  0  0  0  0  0  0  0  0
  -18.7687   -0.0001    0.0000 H   0  0  0  0  0  0  0  0  0  0  0  0
  -18.7684   -1.9285    0.0000 H   0  0  0  0  0  0  0  0  0  0  0  0
  -16.8693   -2.2630    0.0000 C   0  0  0  0  0  0  0  0  0  0  0  0
  -17.6193   -3.5630    0.0000 C   0  0  0  0  0  0  0  0  0  0  0  0
  -19.1193   -3.5630    0.0000 H   0  0  0  0  0  0  0  0  0  0  0  0
  -16.8693   -4.8630    0.0000 C   0  0  0  0  0  0  0  0  0  0  0  0
  -17.6195   -6.1619    0.0000 H   0  0  0  0  0  0  0  0  0  0  0  0
  -15.3693   -4.8630    0.0000 C   0  0  0  0  0  0  0  0  0  0  0  0
  -14.6193   -3.5630    0.0000 C   0  0  0  0  0  0  0  0  0  0  0  0
  -13.1193   -3.5630    0.0000 H   0  0  0  0  0  0  0  0  0  0  0  0
  -15.3693   -2.2630    0.0000 C   0  0  0  0  0  0  0  0  0  0  0  0
  -14.6191   -0.9641    0.0000 H   0  0  0  0  0  0  0  0  0  0  0  0
  -14.6191   -6.1619    0.0000 S   0  0  0  0  0  0  0  0  0  0  0  0
  -16.0285   -6.6752    0.0000 O   0  0  0  0  0  0  0  0  0  0  0  0
  -14.3584   -7.6391    0.0000 O   0  0  0  0  0  0  0  0  0  0  0  0
  -13.1191   -6.1617    0.0000 N   0  0  0  0  0  0  0  0  0  0  0  0
  -12.3693   -4.8625    0.0000 H   0  0  0  0  0  0  0  0  0  0  0  0
  -12.3689   -7.4606    0.0000 C   0  0  0  0  0  0  0  0  0  0  0  0
  -10.8680   -7.4606    0.0000 C   0  0  0  0  0  0  0  0  0  0  0  0
  -10.1185   -6.1613    0.0000 H   0  0  0  0  0  0  0  0  0  0  0  0
  -10.1168   -8.7599    0.0000 C   0  0  0  0  0  0  0  0  0  0  0  0
   -8.6168   -8.7592    0.0000 H   0  0  0  0  0  0  0  0  0  0  0  0
  -10.8664  -10.0592    0.0000 C   0  0  0  0  0  0  0  0  0  0  0  0
  -12.3672  -10.0592    0.0000 C   0  0  0  0  0  0  0  0  0  0  0  0
  -13.1168  -11.3584    0.0000 H   0  0  0  0  0  0  0  0  0  0  0  0
  -13.1185   -8.7599    0.0000 C   0  0  0  0  0  0  0  0  0  0  0  0
  -14.6185   -8.7606    0.0000 H   0  0  0  0  0  0  0  0  0  0  0  0
  -10.1162  -11.3581    0.0000 C   0  0  0  0  0  0  0  0  0  0  0  0
  -10.8660  -12.6572    0.0000 O   0  0  0  0  0  0  0  0  0  0  0  0
   -8.6162  -11.3578    0.0000 C   0  0  0  0  0  0  0  0  0  0  0  0
   -7.2067  -10.8446    0.0000 H   0  0  0  0  0  0  0  0  0  0  0  0
   -8.8769   -9.8807    0.0000 H   0  0  0  0  0  0  0  0  0  0  0  0
   -7.8660  -12.6568    0.0000 C   0  0  0  0  0  0  0  0  0  0  0  0
   -9.2754  -13.1700    0.0000 H   0  0  0  0  0  0  0  0  0  0  0  0
   -7.6052  -14.1339    0.0000 C   0  0  0  0  0  0  0  0  0  0  0  0
   -8.7589  -15.0926    0.0000 C   0  0  0  0  0  0  0  0  0  0  0  0
  -10.1634  -14.5660    0.0000 H   0  0  0  0  0  0  0  0  0  0  0  0
   -8.5240  -16.5487    0.0000 C   0  0  0  0  0  0  0  0  0  0  0  0
   -9.6902  -17.4922    0.0000 H   0  0  0  0  0  0  0  0  0  0  0  0
   -7.0844  -17.1077    0.0000 C   0  0  0  0  0  0  0  0  0  0  0  0
   -5.9307  -16.1490    0.0000 C   0  0  0  0  0  0  0  0  0  0  0  0
   -4.5194  -16.6571    0.0000 H   0  0  0  0  0  0  0  0  0  0  0  0
   -6.2167  -14.6313    0.0000 C   0  0  0  0  0  0  0  0  0  0  0  0
   -5.0758  -13.6575    0.0000 H   0  0  0  0  0  0  0  0  0  0  0  0
   -6.8431  -18.5881    0.0000 O   0  0  0  0  0  0  0  0  0  0  0  0
   -8.0047  -19.5373    0.0000 H   0  0  0  0  0  0  0  0  0  0  0  0
   -5.8860  -12.6564    0.0000 S   0  0  0  0  0  0  0  0  0  0  0  0
   -4.8962  -10.9416    0.0000 C   0  0  0  0  0  0  0  0  0  0  0  0
   -6.3059  -10.4288    0.0000 H   0  0  0  0  0  0  0  0  0  0  0  0
   -4.6360   -9.4643    0.0000 H   0  0  0  0  0  0  0  0  0  0  0  0
   -2.4362  -10.9412    0.0000 C   0  0  0  0  0  0  0  0  0  0  0  0
   -1.0266  -11.4540    0.0000 H   0  0  0  0  0  0  0  0  0  0  0  0
   -2.6965  -12.4184    0.0000 C   0  0  0  0  0  0  0  0  0  0  0  0
   -4.1059  -12.9317    0.0000 O   0  0  0  0  0  0  0  0  0  0  0  0
   -1.5472  -13.3824    0.0000 N   0  0  0  0  0  0  0  0  0  0  0  0
   -0.1378  -12.8692    0.0000 H   0  0  0  0  0  0  0  0  0  0  0  0
   -1.8075  -14.8597    0.0000 C   0  0  0  0  0  0  0  0  0  0  0  0
   -3.2171  -14.3469    0.0000 H   0  0  0  0  0  0  0  0  0  0  0  0
   -2.5573  -16.1588    0.0000 H   0  0  0  0  0  0  0  0  0  0  0  0
   -0.6583  -15.8237    0.0000 C   0  0  0  0  0  0  0  0  0  0  0  0
    0.7512  -15.3104    0.0000 O   0  0  0  0  0  0  0  0  0  0  0  0
   -0.9185  -17.3009    0.0000 O   0  0  0  0  0  0  0  0  0  0  0  0
    0.2307  -18.2649    0.0000 H   0  0  0  0  0  0  0  0  0  0  0  0
   -1.6864   -9.6420    0.0000 N   0  0  0  0  0  0  0  0  0  0  0  0
   -2.4366   -8.3431    0.0000 H   0  0  0  0  0  0  0  0  0  0  0  0
   -0.1864   -9.6418    0.0000 C   0  0  0  0  0  0  0  0  0  0  0  0
    0.5638  -10.9407    0.0000 O   0  0  0  0  0  0  0  0  0  0  0  0
    0.5634   -8.3426    0.0000 C   0  0  0  0  0  0  0  0  0  0  0  0
   -0.8463   -7.8298    0.0000 H   0  0  0  0  0  0  0  0  0  0  0  0
    0.8236   -6.8654    0.0000 H   0  0  0  0  0  0  0  0  0  0  0  0
    2.5434   -8.3423    0.0000 C   0  0  0  0  0  0  0  0  0  0  0  0
    3.9530   -8.8551    0.0000 H   0  0  0  0  0  0  0  0  0  0  0  0
    2.2831   -9.8195    0.0000 H   0  0  0  0  0  0  0  0  0  0  0  0
    3.2931   -7.0431    0.0000 C   0  0  0  0  0  0  0  0  0  0  0  0
    1.8835   -6.5303    0.0000 H   0  0  0  0  0  0  0  0  0  0  0  0
    4.7931   -7.0429    0.0000 C   0  0  0  0  0  0  0  0  0  0  0  0
    5.5434   -8.3418    0.0000 O   0  0  0  0  0  0  0  0  0  0  0  0
    5.5429   -5.7437    0.0000 O   0  0  0  0  0  0  0  0  0  0  0  0
    7.0429   -5.7435    0.0000 H   0  0  0  0  0  0  0  0  0  0  0  0
    3.5534   -5.5659    0.0000 N   0  0  0  0  0  0  0  0  0  0  0  0
    4.9628   -5.0526    0.0000 H   0  0  0  0  0  0  0  0  0  0  0  0
    2.4042   -4.6019    0.0000 H   0  0  0  0  0  0  0  0  0  0  0  0
  1  2  1  0  0  0  0 
  1  3  1  0  0  0  0 
  1  4  1  0  0  0  0 
  1  5  1  0  0  0  0 
  5  6  2  0  0  0  0 
  6  7  1  0  0  0  0 
  6  8  1  0  0  0  0 
  8  9  1  0  0  0  0 
  8 10  2  0  0  0  0 
 10 11  1  0  0  0  0 
 11 12  1  0  0  0  0 
 11 13  2  0  0  0  0 
  5 13  1  0  0  0  0 
 13 14  1  0  0  0  0 
 10 15  1  0  0  0  0 
 15 16  2  0  0  0  0 
 15 17  2  0  0  0  0 
 15 18  1  0  0  0  0 
 18 19  1  0  0  0  0 
 18 20  1  0  0  0  0 
 20 21  2  0  0  0  0 
 21 22  1  0  0  0  0 
 21 23  1  0  0  0  0 
 23 24  1  0  0  0  0 
 23 25  2  0  0  0  0 
 25 26  1  0  0  0  0 
 26 27  1  0  0  0  0 
 26 28  2  0  0  0  0 
 20 28  1  0  0  0  0 
 28 29  1  0  0  0  0 
 25 30  1  0  0  0  0 
 30 31  2  0  0  0  0 
 30 32  1  0  0  0  0 
 32 33  1  0  0  0  0 
 32 34  1  0  0  0  0 
 32 35  1  0  0  0  0 
 35 36  1  0  0  0  0 
 35 37  1  0  0  0  0 
 37 38  2  0  0  0  0 
 38 39  1  0  0  0  0 
 38 40  1  0  0  0  0 
 40 41  1  0  0  0  0 
 40 42  2  0  0  0  0 
 42 43  1  0  0  0  0 
 43 44  1  0  0  0  0 
 43 45  2  0  0  0  0 
 37 45  1  0  0  0  0 
 45 46  1  0  0  0  0 
 42 47  1  0  0  0  0 
 47 48  1  0  0  0  0 
 35 49  1  0  0  0  0 
 49 50  1  0  0  0  0 
 50 51  1  0  0  0  0 
 50 52  1  0  0  0  0 
 50 53  1  0  0  0  0 
 53 54  1  0  0  0  0 
 53 55  1  0  0  0  0 
 55 56  2  0  0  0  0 
 55 57  1  0  0  0  0 
 57 58  1  0  0  0  0 
 57 59  1  0  0  0  0 
 59 60  1  0  0  0  0 
 59 61  1  0  0  0  0 
 59 62  1  0  0  0  0 
 62 63  2  0  0  0  0 
 62 64  1  0  0  0  0 
 64 65  1  0  0  0  0 
 53 66  1  0  0  0  0 
 66 67  1  0  0  0  0 
 66 68  1  0  0  0  0 
 68 69  2  0  0  0  0 
 68 70  1  0  0  0  0 
 70 71  1  0  0  0  0 
 70 72  1  0  0  0  0 
 70 73  1  0  0  0  0 
 73 74  1  0  0  0  0 
 73 75  1  0  0  0  0 
 73 76  1  0  0  0  0 
 76 77  1  0  0  0  0 
 76 78  1  0  0  0  0 
 78 79  2  0  0  0  0 
 78 80  1  0  0  0  0 
 80 81  1  0  0  0  0 
 76 82  1  0  0  0  0 
 82 83  1  0  0  0  0 
 82 84  1  0  0  0  0 
M  END
> <Rank>
3

> <Priority_score>
0.88

> <Reaction_type>
glutathione_conjugation_(alpha,beta-unsaturated_carbonyl)

> <Parent_ID>
61

> <Parent_InChI>
InChI=1S/C22H19NO4S/c1-16-2-13-21(14-3-16)28(26,27)23-19-9-7-18(8-10-19)22(25)15-6-17-4-11-20(24)12-5-17/h2-15,23-24H,1H3

> <Parent_SMILES>
Cc1ccc(S(=O)(=O)Nc2ccc(C(=O)/C=C/c3ccc(O)cc3)cc2)cc1

$$$$
Molecule 61_metabolite 4
  CDK     0516241031

 48 50  0  0  0  0  0  0  0  0999 V2000
   15.5191   -3.8155    0.0000 C   0  0  0  0  0  0  0  0  0  0  0  0
   15.4993   -5.3153    0.0000 H   0  0  0  0  0  0  0  0  0  0  0  0
   14.2491   -3.0655    0.0000 C   0  0  0  0  0  0  0  0  0  0  0  0
   14.2491   -1.5655    0.0000 C   0  0  0  0  0  0  0  0  0  0  0  0
   12.9463   -0.8219    0.0000 H   0  0  0  0  0  0  0  0  0  0  0  0
   15.5191   -0.8155    0.0000 C   0  0  0  0  0  0  0  0  0  0  0  0
   15.4993    0.6844    0.0000 H   0  0  0  0  0  0  0  0  0  0  0  0
   16.8691   -1.5655    0.0000 C   0  0  0  0  0  0  0  0  0  0  0  0
   16.8691   -3.0655    0.0000 C   0  0  0  0  0  0  0  0  0  0  0  0
   18.1619   -3.8262    0.0000 H   0  0  0  0  0  0  0  0  0  0  0  0
   18.1619   -0.8048    0.0000 O   0  0  0  0  0  0  0  0  0  0  0  0
   19.4670   -1.5440    0.0000 H   0  0  0  0  0  0  0  0  0  0  0  0
   12.9463   -3.8091    0.0000 C   0  0  0  0  0  0  0  0  0  0  0  0
   12.9390   -5.3090    0.0000 H   0  0  0  0  0  0  0  0  0  0  0  0
   11.6510   -3.0527    0.0000 C   0  0  0  0  0  0  0  0  0  0  0  0
   11.6584   -1.5527    0.0000 H   0  0  0  0  0  0  0  0  0  0  0  0
   10.3483   -3.7963    0.0000 C   0  0  0  0  0  0  0  0  0  0  0  0
   10.3409   -5.2963    0.0000 O   0  0  0  0  0  0  0  0  0  0  0  0
    9.0530   -3.0399    0.0000 C   0  0  0  0  0  0  0  0  0  0  0  0
    9.0601   -1.5399    0.0000 C   0  0  0  0  0  0  0  0  0  0  0  0
   10.3626   -0.7959    0.0000 H   0  0  0  0  0  0  0  0  0  0  0  0
    7.7637   -0.7837    0.0000 C   0  0  0  0  0  0  0  0  0  0  0  0
    7.7708    0.7163    0.0000 H   0  0  0  0  0  0  0  0  0  0  0  0
    6.4601   -1.5275    0.0000 C   0  0  0  0  0  0  0  0  0  0  0  0
    6.4530   -3.0275    0.0000 C   0  0  0  0  0  0  0  0  0  0  0  0
    5.1505   -3.7715    0.0000 H   0  0  0  0  0  0  0  0  0  0  0  0
    7.7494   -3.7837    0.0000 C   0  0  0  0  0  0  0  0  0  0  0  0
    7.7423   -5.2837    0.0000 H   0  0  0  0  0  0  0  0  0  0  0  0
    5.1648   -0.7711    0.0000 N   0  0  0  0  0  0  0  0  0  0  0  0
    5.1722    0.7288    0.0000 H   0  0  0  0  0  0  0  0  0  0  0  0
    3.8621   -1.5147    0.0000 S   0  0  0  0  0  0  0  0  0  0  0  0
    2.8923   -2.6590    0.0000 O   0  0  0  0  0  0  0  0  0  0  0  0
    4.8206   -2.6685    0.0000 O   0  0  0  0  0  0  0  0  0  0  0  0
    2.5668   -0.7584    0.0000 C   0  0  0  0  0  0  0  0  0  0  0  0
    1.2639   -1.5017    0.0000 C   0  0  0  0  0  0  0  0  0  0  0  0
    1.2561   -3.0017    0.0000 H   0  0  0  0  0  0  0  0  0  0  0  0
   -0.0318   -0.7443    0.0000 C   0  0  0  0  0  0  0  0  0  0  0  0
   -1.3346   -1.4877    0.0000 H   0  0  0  0  0  0  0  0  0  0  0  0
   -0.0246    0.7565    0.0000 C   0  0  0  0  0  0  0  0  0  0  0  0
    1.2782    1.4999    0.0000 C   0  0  0  0  0  0  0  0  0  0  0  0
    1.2861    2.9999    0.0000 H   0  0  0  0  0  0  0  0  0  0  0  0
    2.5739    0.7425    0.0000 C   0  0  0  0  0  0  0  0  0  0  0  0
    3.8767    1.4859    0.0000 H   0  0  0  0  0  0  0  0  0  0  0  0
   -1.3199    1.5129    0.0000 C   0  0  0  0  0  0  0  0  0  0  0  0
   -0.3501    2.6572    0.0000 H   0  0  0  0  0  0  0  0  0  0  0  0
   -2.2785    2.6667    0.0000 H   0  0  0  0  0  0  0  0  0  0  0  0
   -2.6227    0.7693    0.0000 O   0  0  0  0  0  0  0  0  0  0  0  0
   -3.9180    1.5257    0.0000 H   0  0  0  0  0  0  0  0  0  0  0  0
  1  2  1  0  0  0  0 
  1  3  2  0  0  0  0 
  3  4  1  0  0  0  0 
  4  5  1  0  0  0  0 
  4  6  2  0  0  0  0 
  6  7  1  0  0  0  0 
  6  8  1  0  0  0  0 
  8  9  2  0  0  0  0 
  1  9  1  0  0  0  0 
  9 10  1  0  0  0  0 
  8 11  1  0  0  0  0 
 11 12  1  0  0  0  0 
  3 13  1  0  0  0  0 
 13 14  1  0  0  0  0 
 13 15  2  0  0  0  0 
 15 16  1  0  0  0  0 
 15 17  1  0  0  0  0 
 17 18  2  0  0  0  0 
 17 19  1  0  0  0  0 
 19 20  2  0  0  0  0 
 20 21  1  0  0  0  0 
 20 22  1  0  0  0  0 
 22 23  1  0  0  0  0 
 22 24  2  0  0  0  0 
 24 25  1  0  0  0  0 
 25 26  1  0  0  0  0 
 25 27  2  0  0  0  0 
 19 27  1  0  0  0  0 
 27 28  1  0  0  0  0 
 24 29  1  0  0  0  0 
 29 30  1  0  0  0  0 
 29 31  1  0  0  0  0 
 31 32  2  0  0  0  0 
 31 33  2  0  0  0  0 
 31 34  1  0  0  0  0 
 34 35  2  0  0  0  0 
 35 36  1  0  0  0  0 
 35 37  1  0  0  0  0 
 37 38  1  0  0  0  0 
 37 39  2  0  0  0  0 
 39 40  1  0  0  0  0 
 40 41  1  0  0  0  0 
 40 42  2  0  0  0  0 
 34 42  1  0  0  0  0 
 42 43  1  0  0  0  0 
 39 44  1  0  0  0  0 
 44 45  1  0  0  0  0 
 44 46  1  0  0  0  0 
 44 47  1  0  0  0  0 
 47 48  1  0  0  0  0 
M  END
> <Rank>
4

> <Priority_score>
0.536

> <Reaction_type>
benzylic_hydroxylation_(c-CH3)

> <Parent_ID>
61

> <Parent_InChI>
InChI=1S/C22H19NO4S/c1-16-2-13-21(14-3-16)28(26,27)23-19-9-7-18(8-10-19)22(25)15-6-17-4-11-20(24)12-5-17/h2-15,23-24H,1H3

> <Parent_SMILES>
Cc1ccc(S(=O)(=O)Nc2ccc(C(=O)/C=C/c3ccc(O)cc3)cc2)cc1

$$$$
Molecule 61_metabolite 5
  CDK     0516241031

 47 49  0  0  0  0  0  0  0  0999 V2000
    0.0300    1.5000    0.0000 C   0  0  0  0  0  0  0  0  0  0  0  0
    0.0498    2.9999    0.0000 H   0  0  0  0  0  0  0  0  0  0  0  0
    1.3000    0.7500    0.0000 C   0  0  0  0  0  0  0  0  0  0  0  0
    1.3000   -0.7500    0.0000 C   0  0  0  0  0  0  0  0  0  0  0  0
    2.6027   -1.4936    0.0000 H   0  0  0  0  0  0  0  0  0  0  0  0
    0.0300   -1.5000    0.0000 C   0  0  0  0  0  0  0  0  0  0  0  0
    0.0498   -2.9999    0.0000 H   0  0  0  0  0  0  0  0  0  0  0  0
   -1.3200   -0.7500    0.0000 C   0  0  0  0  0  0  0  0  0  0  0  0
   -1.3200    0.7500    0.0000 C   0  0  0  0  0  0  0  0  0  0  0  0
   -2.6128    1.5107    0.0000 H   0  0  0  0  0  0  0  0  0  0  0  0
   -2.6128   -1.5107    0.0000 O   0  0  0  0  0  0  0  0  0  0  0  0
   -3.9180   -0.7714    0.0000 H   0  0  0  0  0  0  0  0  0  0  0  0
    2.6027    1.4936    0.0000 C   0  0  0  0  0  0  0  0  0  0  0  0
    2.6101    2.9936    0.0000 H   0  0  0  0  0  0  0  0  0  0  0  0
    3.8980    0.7372    0.0000 C   0  0  0  0  0  0  0  0  0  0  0  0
    3.8907   -0.7628    0.0000 H   0  0  0  0  0  0  0  0  0  0  0  0
    5.2008    1.4808    0.0000 C   0  0  0  0  0  0  0  0  0  0  0  0
    5.2081    2.9808    0.0000 O   0  0  0  0  0  0  0  0  0  0  0  0
    6.4961    0.7244    0.0000 C   0  0  0  0  0  0  0  0  0  0  0  0
    6.4889   -0.7756    0.0000 C   0  0  0  0  0  0  0  0  0  0  0  0
    5.1865   -1.5196    0.0000 H   0  0  0  0  0  0  0  0  0  0  0  0
    7.7854   -1.5317    0.0000 C   0  0  0  0  0  0  0  0  0  0  0  0
    7.7782   -3.0317    0.0000 H   0  0  0  0  0  0  0  0  0  0  0  0
    9.0889   -0.7879    0.0000 C   0  0  0  0  0  0  0  0  0  0  0  0
    9.0961    0.7120    0.0000 C   0  0  0  0  0  0  0  0  0  0  0  0
   10.3985    1.4561    0.0000 H   0  0  0  0  0  0  0  0  0  0  0  0
    7.7996    1.4682    0.0000 C   0  0  0  0  0  0  0  0  0  0  0  0
    7.8068    2.9682    0.0000 H   0  0  0  0  0  0  0  0  0  0  0  0
   10.3842   -1.5443    0.0000 N   0  0  0  0  0  0  0  0  0  0  0  0
   10.3769   -3.0443    0.0000 H   0  0  0  0  0  0  0  0  0  0  0  0
   11.6870   -0.8007    0.0000 S   0  0  0  0  0  0  0  0  0  0  0  0
   12.6568    0.3436    0.0000 O   0  0  0  0  0  0  0  0  0  0  0  0
   10.7284    0.3531    0.0000 O   0  0  0  0  0  0  0  0  0  0  0  0
   12.9823   -1.5571    0.0000 C   0  0  0  0  0  0  0  0  0  0  0  0
   14.2851   -0.8137    0.0000 C   0  0  0  0  0  0  0  0  0  0  0  0
   14.2930    0.6863    0.0000 H   0  0  0  0  0  0  0  0  0  0  0  0
   15.5808   -1.5712    0.0000 C   0  0  0  0  0  0  0  0  0  0  0  0
   16.8836   -0.8278    0.0000 H   0  0  0  0  0  0  0  0  0  0  0  0
   15.5737   -3.0720    0.0000 C   0  0  0  0  0  0  0  0  0  0  0  0
   14.2708   -3.8154    0.0000 C   0  0  0  0  0  0  0  0  0  0  0  0
   14.2630   -5.3153    0.0000 H   0  0  0  0  0  0  0  0  0  0  0  0
   12.9751   -3.0579    0.0000 C   0  0  0  0  0  0  0  0  0  0  0  0
   11.6723   -3.8013    0.0000 H   0  0  0  0  0  0  0  0  0  0  0  0
   16.8690   -3.8284    0.0000 C   0  0  0  0  0  0  0  0  0  0  0  0
   16.8616   -5.3283    0.0000 O   0  0  0  0  0  0  0  0  0  0  0  0
   18.1717   -3.0848    0.0000 O   0  0  0  0  0  0  0  0  0  0  0  0
   19.4670   -3.8411    0.0000 H   0  0  0  0  0  0  0  0  0  0  0  0
  1  2  1  0  0  0  0 
  1  3  2  0  0  0  0 
  3  4  1  0  0  0  0 
  4  5  1  0  0  0  0 
  4  6  2  0  0  0  0 
  6  7  1  0  0  0  0 
  6  8  1  0  0  0  0 
  8  9  2  0  0  0  0 
  1  9  1  0  0  0  0 
  9 10  1  0  0  0  0 
  8 11  1  0  0  0  0 
 11 12  1  0  0  0  0 
  3 13  1  0  0  0  0 
 13 14  1  0  0  0  0 
 13 15  2  0  0  0  0 
 15 16  1  0  0  0  0 
 15 17  1  0  0  0  0 
 17 18  2  0  0  0  0 
 17 19  1  0  0  0  0 
 19 20  2  0  0  0  0 
 20 21  1  0  0  0  0 
 20 22  1  0  0  0  0 
 22 23  1  0  0  0  0 
 22 24  2  0  0  0  0 
 24 25  1  0  0  0  0 
 25 26  1  0  0  0  0 
 25 27  2  0  0  0  0 
 19 27  1  0  0  0  0 
 27 28  1  0  0  0  0 
 24 29  1  0  0  0  0 
 29 30  1  0  0  0  0 
 29 31  1  0  0  0  0 
 31 32  2  0  0  0  0 
 31 33  2  0  0  0  0 
 31 34  1  0  0  0  0 
 34 35  2  0  0  0  0 
 35 36  1  0  0  0  0 
 35 37  1  0  0  0  0 
 37 38  1  0  0  0  0 
 37 39  2  0  0  0  0 
 39 40  1  0  0  0  0 
 40 41  1  0  0  0  0 
 40 42  2  0  0  0  0 
 34 42  1  0  0  0  0 
 42 43  1  0  0  0  0 
 39 44  1  0  0  0  0 
 44 45  2  0  0  0  0 
 44 46  1  0  0  0  0 
 46 47  1  0  0  0  0 
M  END
> <Rank>
4

> <Priority_score>
0.536

> <Reaction_type>
carboxylation_(benzylic_CH3)

> <Parent_ID>
61

> <Parent_InChI>
InChI=1S/C22H19NO4S/c1-16-2-13-21(14-3-16)28(26,27)23-19-9-7-18(8-10-19)22(25)15-6-17-4-11-20(24)12-5-17/h2-15,23-24H,1H3

> <Parent_SMILES>
Cc1ccc(S(=O)(=O)Nc2ccc(C(=O)/C=C/c3ccc(O)cc3)cc2)cc1

$$$$
Molecule 61_metabolite 6
  CDK     0516241031

 48 50  0  0  0  0  0  0  0  0999 V2000
   -2.5989    1.5002    0.0000 C   0  0  0  0  0  0  0  0  0  0  0  0
   -3.8981    0.7504    0.0000 H   0  0  0  0  0  0  0  0  0  0  0  0
   -1.6346    2.6491    0.0000 H   0  0  0  0  0  0  0  0  0  0  0  0
   -3.5629    2.6494    0.0000 H   0  0  0  0  0  0  0  0  0  0  0  0
   -1.3000    0.7500    0.0000 C   0  0  0  0  0  0  0  0  0  0  0  0
    0.0000    1.5000    0.0000 C   0  0  0  0  0  0  0  0  0  0  0  0
    0.0000    3.0000    0.0000 H   0  0  0  0  0  0  0  0  0  0  0  0
    1.3000    0.7500    0.0000 C   0  0  0  0  0  0  0  0  0  0  0  0
    1.3000   -0.7500    0.0000 C   0  0  0  0  0  0  0  0  0  0  0  0
    2.5989   -1.5002    0.0000 H   0  0  0  0  0  0  0  0  0  0  0  0
    0.0000   -1.5000    0.0000 C   0  0  0  0  0  0  0  0  0  0  0  0
   -0.0000   -3.0000    0.0000 H   0  0  0  0  0  0  0  0  0  0  0  0
   -1.3000   -0.7500    0.0000 C   0  0  0  0  0  0  0  0  0  0  0  0
   -2.5989   -1.5002    0.0000 O   0  0  0  0  0  0  0  0  0  0  0  0
   -2.5987   -3.0002    0.0000 H   0  0  0  0  0  0  0  0  0  0  0  0
    2.5989    1.5002    0.0000 S   0  0  0  0  0  0  0  0  0  0  0  0
    3.5629    2.6494    0.0000 O   0  0  0  0  0  0  0  0  0  0  0  0
    1.6346    2.6491    0.0000 O   0  0  0  0  0  0  0  0  0  0  0  0
    3.8981    0.7504    0.0000 N   0  0  0  0  0  0  0  0  0  0  0  0
    3.8983   -0.7496    0.0000 H   0  0  0  0  0  0  0  0  0  0  0  0
    5.1970    1.5006    0.0000 C   0  0  0  0  0  0  0  0  0  0  0  0
    5.1970    3.0015    0.0000 C   0  0  0  0  0  0  0  0  0  0  0  0
    3.8977    3.7510    0.0000 H   0  0  0  0  0  0  0  0  0  0  0  0
    6.4963    3.7527    0.0000 C   0  0  0  0  0  0  0  0  0  0  0  0
    6.4956    5.2527    0.0000 H   0  0  0  0  0  0  0  0  0  0  0  0
    7.7956    3.0031    0.0000 C   0  0  0  0  0  0  0  0  0  0  0  0
    7.7956    1.5023    0.0000 C   0  0  0  0  0  0  0  0  0  0  0  0
    9.0948    0.7527    0.0000 H   0  0  0  0  0  0  0  0  0  0  0  0
    6.4963    0.7510    0.0000 C   0  0  0  0  0  0  0  0  0  0  0  0
    6.4970   -0.7490    0.0000 H   0  0  0  0  0  0  0  0  0  0  0  0
    9.0945    3.7533    0.0000 C   0  0  0  0  0  0  0  0  0  0  0  0
    9.0942    5.2533    0.0000 O   0  0  0  0  0  0  0  0  0  0  0  0
   10.3936    3.0035    0.0000 C   0  0  0  0  0  0  0  0  0  0  0  0
   10.3939    1.5035    0.0000 H   0  0  0  0  0  0  0  0  0  0  0  0
   11.6925    3.7537    0.0000 C   0  0  0  0  0  0  0  0  0  0  0  0
   11.6923    5.2537    0.0000 H   0  0  0  0  0  0  0  0  0  0  0  0
   12.9917    3.0040    0.0000 C   0  0  0  0  0  0  0  0  0  0  0  0
   14.2869    3.7605    0.0000 C   0  0  0  0  0  0  0  0  0  0  0  0
   14.2719    5.2605    0.0000 H   0  0  0  0  0  0  0  0  0  0  0  0
   15.5751    3.0422    0.0000 C   0  0  0  0  0  0  0  0  0  0  0  0
   16.8602    3.8158    0.0000 H   0  0  0  0  0  0  0  0  0  0  0  0
   15.6084    1.4982    0.0000 C   0  0  0  0  0  0  0  0  0  0  0  0
   14.3132    0.7417    0.0000 C   0  0  0  0  0  0  0  0  0  0  0  0
   14.3085   -0.7583    0.0000 H   0  0  0  0  0  0  0  0  0  0  0  0
   12.9847    1.5290    0.0000 C   0  0  0  0  0  0  0  0  0  0  0  0
   11.6796    0.7896    0.0000 H   0  0  0  0  0  0  0  0  0  0  0  0
   16.9173    0.7656    0.0000 O   0  0  0  0  0  0  0  0  0  0  0  0
   18.2063    1.5329    0.0000 H   0  0  0  0  0  0  0  0  0  0  0  0
  1  2  1  0  0  0  0 
  1  3  1  0  0  0  0 
  1  4  1  0  0  0  0 
  1  5  1  0  0  0  0 
  5  6  2  0  0  0  0 
  6  7  1  0  0  0  0 
  6  8  1  0  0  0  0 
  8  9  2  0  0  0  0 
  9 10  1  0  0  0  0 
  9 11  1  0  0  0  0 
 11 12  1  0  0  0  0 
 11 13  2  0  0  0  0 
  5 13  1  0  0  0  0 
 13 14  1  0  0  0  0 
 14 15  1  0  0  0  0 
  8 16  1  0  0  0  0 
 16 17  2  0  0  0  0 
 16 18  2  0  0  0  0 
 16 19  1  0  0  0  0 
 19 20  1  0  0  0  0 
 19 21  1  0  0  0  0 
 21 22  2  0  0  0  0 
 22 23  1  0  0  0  0 
 22 24  1  0  0  0  0 
 24 25  1  0  0  0  0 
 24 26  2  0  0  0  0 
 26 27  1  0  0  0  0 
 27 28  1  0  0  0  0 
 27 29  2  0  0  0  0 
 21 29  1  0  0  0  0 
 29 30  1  0  0  0  0 
 26 31  1  0  0  0  0 
 31 32  2  0  0  0  0 
 31 33  1  0  0  0  0 
 33 34  1  0  0  0  0 
 33 35  2  0  0  0  0 
 35 36  1  0  0  0  0 
 35 37  1  0  0  0  0 
 37 38  2  0  0  0  0 
 38 39  1  0  0  0  0 
 38 40  1  0  0  0  0 
 40 41  1  0  0  0  0 
 40 42  2  0  0  0  0 
 42 43  1  0  0  0  0 
 43 44  1  0  0  0  0 
 43 45  2  0  0  0  0 
 37 45  1  0  0  0  0 
 45 46  1  0  0  0  0 
 42 47  1  0  0  0  0 
 47 48  1  0  0  0  0 
M  END
> <Rank>
4

> <Priority_score>
0.536

> <Reaction_type>
aromatic hydroxylation with nih shift

> <Parent_ID>
61

> <Parent_InChI>
InChI=1S/C22H19NO4S/c1-16-2-13-21(14-3-16)28(26,27)23-19-9-7-18(8-10-19)22(25)15-6-17-4-11-20(24)12-5-17/h2-15,23-24H,1H3

> <Parent_SMILES>
Cc1ccc(S(=O)(=O)Nc2ccc(C(=O)/C=C/c3ccc(O)cc3)cc2)cc1

$$$$
Molecule 61_metabolite 7
  CDK     0516241031

 48 50  0  0  0  0  0  0  0  0999 V2000
   -2.5989    1.5002    0.0000 C   0  0  0  0  0  0  0  0  0  0  0  0
   -3.8981    0.7504    0.0000 H   0  0  0  0  0  0  0  0  0  0  0  0
   -1.6346    2.6491    0.0000 H   0  0  0  0  0  0  0  0  0  0  0  0
   -3.5629    2.6494    0.0000 H   0  0  0  0  0  0  0  0  0  0  0  0
   -1.3000    0.7500    0.0000 C   0  0  0  0  0  0  0  0  0  0  0  0
    0.0000    1.5000    0.0000 C   0  0  0  0  0  0  0  0  0  0  0  0
    0.0000    3.0000    0.0000 H   0  0  0  0  0  0  0  0  0  0  0  0
    1.3000    0.7500    0.0000 C   0  0  0  0  0  0  0  0  0  0  0  0
    2.5989    1.5002    0.0000 H   0  0  0  0  0  0  0  0  0  0  0  0
    1.3000   -0.7500    0.0000 C   0  0  0  0  0  0  0  0  0  0  0  0
    0.0000   -1.5000    0.0000 C   0  0  0  0  0  0  0  0  0  0  0  0
   -1.3000   -0.7500    0.0000 C   0  0  0  0  0  0  0  0  0  0  0  0
   -2.5989   -1.5002    0.0000 H   0  0  0  0  0  0  0  0  0  0  0  0
   -0.0000   -3.0000    0.0000 O   0  0  0  0  0  0  0  0  0  0  0  0
    1.2990   -3.7500    0.0000 H   0  0  0  0  0  0  0  0  0  0  0  0
    2.5989   -1.5002    0.0000 S   0  0  0  0  0  0  0  0  0  0  0  0
    1.6346   -2.6491    0.0000 O   0  0  0  0  0  0  0  0  0  0  0  0
    3.5629   -2.6494    0.0000 O   0  0  0  0  0  0  0  0  0  0  0  0
    3.8981   -0.7504    0.0000 N   0  0  0  0  0  0  0  0  0  0  0  0
    3.8983    0.7496    0.0000 H   0  0  0  0  0  0  0  0  0  0  0  0
    5.1970   -1.5006    0.0000 C   0  0  0  0  0  0  0  0  0  0  0  0
    6.4970   -0.7506    0.0000 C   0  0  0  0  0  0  0  0  0  0  0  0
    6.4970    0.7494    0.0000 H   0  0  0  0  0  0  0  0  0  0  0  0
    7.7970   -1.5006    0.0000 C   0  0  0  0  0  0  0  0  0  0  0  0
    9.0959   -0.7504    0.0000 H   0  0  0  0  0  0  0  0  0  0  0  0
    7.7970   -3.0006    0.0000 C   0  0  0  0  0  0  0  0  0  0  0  0
    6.4970   -3.7506    0.0000 C   0  0  0  0  0  0  0  0  0  0  0  0
    6.4970   -5.2506    0.0000 H   0  0  0  0  0  0  0  0  0  0  0  0
    5.1970   -3.0006    0.0000 C   0  0  0  0  0  0  0  0  0  0  0  0
    3.8981   -3.7508    0.0000 H   0  0  0  0  0  0  0  0  0  0  0  0
    9.0959   -3.7508    0.0000 C   0  0  0  0  0  0  0  0  0  0  0  0
    9.0957   -5.2508    0.0000 O   0  0  0  0  0  0  0  0  0  0  0  0
   10.3951   -3.0010    0.0000 C   0  0  0  0  0  0  0  0  0  0  0  0
   10.3953   -1.5010    0.0000 H   0  0  0  0  0  0  0  0  0  0  0  0
   11.6940   -3.7512    0.0000 C   0  0  0  0  0  0  0  0  0  0  0  0
   11.6937   -5.2512    0.0000 H   0  0  0  0  0  0  0  0  0  0  0  0
   12.9931   -3.0015    0.0000 C   0  0  0  0  0  0  0  0  0  0  0  0
   12.9860   -1.5015    0.0000 C   0  0  0  0  0  0  0  0  0  0  0  0
   11.6798   -0.7641    0.0000 H   0  0  0  0  0  0  0  0  0  0  0  0
   14.2524   -0.7454    0.0000 C   0  0  0  0  0  0  0  0  0  0  0  0
   14.2255    0.7543    0.0000 H   0  0  0  0  0  0  0  0  0  0  0  0
   15.6060   -1.4890    0.0000 C   0  0  0  0  0  0  0  0  0  0  0  0
   15.6131   -2.9890    0.0000 C   0  0  0  0  0  0  0  0  0  0  0  0
   16.9095   -3.7435    0.0000 H   0  0  0  0  0  0  0  0  0  0  0  0
   14.2667   -3.7454    0.0000 C   0  0  0  0  0  0  0  0  0  0  0  0
   14.2541   -5.2453    0.0000 H   0  0  0  0  0  0  0  0  0  0  0  0
   16.8951   -0.7222    0.0000 O   0  0  0  0  0  0  0  0  0  0  0  0
   18.2038   -1.4552    0.0000 H   0  0  0  0  0  0  0  0  0  0  0  0
  1  2  1  0  0  0  0 
  1  3  1  0  0  0  0 
  1  4  1  0  0  0  0 
  1  5  1  0  0  0  0 
  5  6  2  0  0  0  0 
  6  7  1  0  0  0  0 
  6  8  1  0  0  0  0 
  8  9  1  0  0  0  0 
  8 10  2  0  0  0  0 
 10 11  1  0  0  0  0 
 11 12  2  0  0  0  0 
  5 12  1  0  0  0  0 
 12 13  1  0  0  0  0 
 11 14  1  0  0  0  0 
 14 15  1  0  0  0  0 
 10 16  1  0  0  0  0 
 16 17  2  0  0  0  0 
 16 18  2  0  0  0  0 
 16 19  1  0  0  0  0 
 19 20  1  0  0  0  0 
 19 21  1  0  0  0  0 
 21 22  2  0  0  0  0 
 22 23  1  0  0  0  0 
 22 24  1  0  0  0  0 
 24 25  1  0  0  0  0 
 24 26  2  0  0  0  0 
 26 27  1  0  0  0  0 
 27 28  1  0  0  0  0 
 27 29  2  0  0  0  0 
 21 29  1  0  0  0  0 
 29 30  1  0  0  0  0 
 26 31  1  0  0  0  0 
 31 32  2  0  0  0  0 
 31 33  1  0  0  0  0 
 33 34  1  0  0  0  0 
 33 35  2  0  0  0  0 
 35 36  1  0  0  0  0 
 35 37  1  0  0  0  0 
 37 38  2  0  0  0  0 
 38 39  1  0  0  0  0 
 38 40  1  0  0  0  0 
 40 41  1  0  0  0  0 
 40 42  2  0  0  0  0 
 42 43  1  0  0  0  0 
 43 44  1  0  0  0  0 
 43 45  2  0  0  0  0 
 37 45  1  0  0  0  0 
 45 46  1  0  0  0  0 
 42 47  1  0  0  0  0 
 47 48  1  0  0  0  0 
M  END
> <Rank>
4

> <Priority_score>
0.536

> <Reaction_type>
aromatic_hydroxylation_(meta_to_carbon)

> <Parent_ID>
61

> <Parent_InChI>
InChI=1S/C22H19NO4S/c1-16-2-13-21(14-3-16)28(26,27)23-19-9-7-18(8-10-19)22(25)15-6-17-4-11-20(24)12-5-17/h2-15,23-24H,1H3

> <Parent_SMILES>
Cc1ccc(S(=O)(=O)Nc2ccc(C(=O)/C=C/c3ccc(O)cc3)cc2)cc1

$$$$
Molecule 61_metabolite 8
  CDK     0516241031

 48 51  0  0  0  0  0  0  0  0999 V2000
  -12.7429    6.4383    0.0000 C   0  0  0  0  0  0  0  0  0  0  0  0
  -13.0032    7.9156    0.0000 H   0  0  0  0  0  0  0  0  0  0  0  0
  -14.2429    6.4385    0.0000 H   0  0  0  0  0  0  0  0  0  0  0  0
  -13.0036    4.9612    0.0000 H   0  0  0  0  0  0  0  0  0  0  0  0
  -11.3334    5.9252    0.0000 C   0  0  0  0  0  0  0  0  0  0  0  0
  -11.0728    4.4471    0.0000 C   0  0  0  0  0  0  0  0  0  0  0  0
  -12.2221    3.4833    0.0000 H   0  0  0  0  0  0  0  0  0  0  0  0
   -9.6627    3.9330    0.0000 C   0  0  0  0  0  0  0  0  0  0  0  0
   -9.4029    2.4557    0.0000 H   0  0  0  0  0  0  0  0  0  0  0  0
   -8.5134    4.8969    0.0000 C   0  0  0  0  0  0  0  0  0  0  0  0
   -8.7741    6.3749    0.0000 C   0  0  0  0  0  0  0  0  0  0  0  0
   -7.6248    7.3388    0.0000 H   0  0  0  0  0  0  0  0  0  0  0  0
  -10.1841    6.8890    0.0000 C   0  0  0  0  0  0  0  0  0  0  0  0
  -10.4440    8.3664    0.0000 H   0  0  0  0  0  0  0  0  0  0  0  0
   -7.1039    4.3837    0.0000 S   0  0  0  0  0  0  0  0  0  0  0  0
   -5.6039    4.3835    0.0000 O   0  0  0  0  0  0  0  0  0  0  0  0
   -6.8433    5.8609    0.0000 O   0  0  0  0  0  0  0  0  0  0  0  0
   -6.8436    2.9065    0.0000 N   0  0  0  0  0  0  0  0  0  0  0  0
   -7.9928    1.9424    0.0000 H   0  0  0  0  0  0  0  0  0  0  0  0
   -5.4341    2.3933    0.0000 C   0  0  0  0  0  0  0  0  0  0  0  0
   -4.2842    3.3577    0.0000 C   0  0  0  0  0  0  0  0  0  0  0  0
   -4.5447    4.8349    0.0000 H   0  0  0  0  0  0  0  0  0  0  0  0
   -2.8737    2.8449    0.0000 C   0  0  0  0  0  0  0  0  0  0  0  0
   -1.7248    3.8093    0.0000 H   0  0  0  0  0  0  0  0  0  0  0  0
   -2.6131    1.3677    0.0000 C   0  0  0  0  0  0  0  0  0  0  0  0
   -3.7631    0.4033    0.0000 C   0  0  0  0  0  0  0  0  0  0  0  0
   -3.5025   -1.0739    0.0000 H   0  0  0  0  0  0  0  0  0  0  0  0
   -5.1736    0.9161    0.0000 C   0  0  0  0  0  0  0  0  0  0  0  0
   -6.3224   -0.0483    0.0000 H   0  0  0  0  0  0  0  0  0  0  0  0
   -0.7526    0.6903    0.0000 C   0  0  0  0  0  0  0  0  0  0  0  0
    0.5465    1.4402    0.0000 O   0  0  0  0  0  0  0  0  0  0  0  0
   -0.4923   -0.7869    0.0000 C   0  0  0  0  0  0  0  0  0  0  0  0
   -1.9019   -1.2997    0.0000 H   0  0  0  0  0  0  0  0  0  0  0  0
    1.0077   -0.7869    0.0000 C   0  0  0  0  0  0  0  0  0  0  0  0
    2.4174   -1.2997    0.0000 H   0  0  0  0  0  0  0  0  0  0  0  0
    1.3513    1.1630    0.0000 C   0  0  0  0  0  0  0  0  0  0  0  0
    0.1974    2.1214    0.0000 C   0  0  0  0  0  0  0  0  0  0  0  0
   -1.2069    1.5944    0.0000 H   0  0  0  0  0  0  0  0  0  0  0  0
    0.4319    3.5776    0.0000 C   0  0  0  0  0  0  0  0  0  0  0  0
   -0.7345    4.5207    0.0000 H   0  0  0  0  0  0  0  0  0  0  0  0
    1.8714    4.1369    0.0000 C   0  0  0  0  0  0  0  0  0  0  0  0
    3.0253    3.1785    0.0000 C   0  0  0  0  0  0  0  0  0  0  0  0
    4.4365    3.6870    0.0000 H   0  0  0  0  0  0  0  0  0  0  0  0
    2.7397    1.6608    0.0000 C   0  0  0  0  0  0  0  0  0  0  0  0
    3.8809    0.6873    0.0000 H   0  0  0  0  0  0  0  0  0  0  0  0
    2.1123    5.6174    0.0000 O   0  0  0  0  0  0  0  0  0  0  0  0
    3.5149    6.1491    0.0000 H   0  0  0  0  0  0  0  0  0  0  0  0
    0.2577   -2.0869    0.0000 O   0  0  0  0  0  0  0  0  0  0  0  0
  1  2  1  0  0  0  0 
  1  3  1  0  0  0  0 
  1  4  1  0  0  0  0 
  1  5  1  0  0  0  0 
  5  6  2  0  0  0  0 
  6  7  1  0  0  0  0 
  6  8  1  0  0  0  0 
  8  9  1  0  0  0  0 
  8 10  2  0  0  0  0 
 10 11  1  0  0  0  0 
 11 12  1  0  0  0  0 
 11 13  2  0  0  0  0 
  5 13  1  0  0  0  0 
 13 14  1  0  0  0  0 
 10 15  1  0  0  0  0 
 15 16  2  0  0  0  0 
 15 17  2  0  0  0  0 
 15 18  1  0  0  0  0 
 18 19  1  0  0  0  0 
 18 20  1  0  0  0  0 
 20 21  2  0  0  0  0 
 21 22  1  0  0  0  0 
 21 23  1  0  0  0  0 
 23 24  1  0  0  0  0 
 23 25  2  0  0  0  0 
 25 26  1  0  0  0  0 
 26 27  1  0  0  0  0 
 26 28  2  0  0  0  0 
 20 28  1  0  0  0  0 
 28 29  1  0  0  0  0 
 25 30  1  0  0  0  0 
 30 31  2  0  0  0  0 
 30 32  1  0  0  0  0 
 32 33  1  0  0  0  0 
 32 34  1  0  0  0  0 
 34 35  1  0  0  0  0 
 34 36  1  0  0  0  0 
 36 37  2  0  0  0  0 
 37 38  1  0  0  0  0 
 37 39  1  0  0  0  0 
 39 40  1  0  0  0  0 
 39 41  2  0  0  0  0 
 41 42  1  0  0  0  0 
 42 43  1  0  0  0  0 
 42 44  2  0  0  0  0 
 36 44  1  0  0  0  0 
 44 45  1  0  0  0  0 
 41 46  1  0  0  0  0 
 46 47  1  0  0  0  0 
 34 48  1  0  0  0  0 
 32 48  1  0  0  0  0 
M  END
> <Rank>
8

> <Priority_score>
0.372

> <Reaction_type>
epoxidation

> <Parent_ID>
61

> <Parent_InChI>
InChI=1S/C22H19NO4S/c1-16-2-13-21(14-3-16)28(26,27)23-19-9-7-18(8-10-19)22(25)15-6-17-4-11-20(24)12-5-17/h2-15,23-24H,1H3

> <Parent_SMILES>
Cc1ccc(S(=O)(=O)Nc2ccc(C(=O)/C=C/c3ccc(O)cc3)cc2)cc1

$$$$
Molecule 61_metabolite 9
  CDK     0516241031

 49 51  0  0  0  0  0  0  0  0999 V2000
  -13.6584   -4.1535    0.0000 C   0  0  0  0  0  0  0  0  0  0  0  0
  -13.6586   -2.6535    0.0000 H   0  0  0  0  0  0  0  0  0  0  0  0
  -15.1356   -3.8933    0.0000 H   0  0  0  0  0  0  0  0  0  0  0  0
  -14.1712   -5.5631    0.0000 H   0  0  0  0  0  0  0  0  0  0  0  0
  -12.3592   -4.9033    0.0000 C   0  0  0  0  0  0  0  0  0  0  0  0
  -12.3587   -6.4041    0.0000 C   0  0  0  0  0  0  0  0  0  0  0  0
  -13.6578   -7.1541    0.0000 H   0  0  0  0  0  0  0  0  0  0  0  0
  -11.0592   -7.1550    0.0000 C   0  0  0  0  0  0  0  0  0  0  0  0
  -11.0595   -8.6550    0.0000 H   0  0  0  0  0  0  0  0  0  0  0  0
   -9.7602   -6.4050    0.0000 C   0  0  0  0  0  0  0  0  0  0  0  0
   -9.7607   -4.9041    0.0000 C   0  0  0  0  0  0  0  0  0  0  0  0
   -8.4616   -4.1541    0.0000 H   0  0  0  0  0  0  0  0  0  0  0  0
  -11.0602   -4.1533    0.0000 C   0  0  0  0  0  0  0  0  0  0  0  0
  -11.0599   -2.6533    0.0000 H   0  0  0  0  0  0  0  0  0  0  0  0
   -8.4610   -7.1548    0.0000 S   0  0  0  0  0  0  0  0  0  0  0  0
   -9.4250   -8.3040    0.0000 O   0  0  0  0  0  0  0  0  0  0  0  0
   -7.4967   -8.3037    0.0000 O   0  0  0  0  0  0  0  0  0  0  0  0
   -7.1621   -6.4045    0.0000 N   0  0  0  0  0  0  0  0  0  0  0  0
   -7.1623   -4.9045    0.0000 H   0  0  0  0  0  0  0  0  0  0  0  0
   -5.8630   -7.1543    0.0000 C   0  0  0  0  0  0  0  0  0  0  0  0
   -4.5632   -6.4039    0.0000 C   0  0  0  0  0  0  0  0  0  0  0  0
   -4.5637   -4.9039    0.0000 H   0  0  0  0  0  0  0  0  0  0  0  0
   -3.2630   -7.1535    0.0000 C   0  0  0  0  0  0  0  0  0  0  0  0
   -1.9643   -6.4029    0.0000 H   0  0  0  0  0  0  0  0  0  0  0  0
   -3.2625   -8.6535    0.0000 C   0  0  0  0  0  0  0  0  0  0  0  0
   -4.5622   -9.4039    0.0000 C   0  0  0  0  0  0  0  0  0  0  0  0
   -4.5617  -10.9039    0.0000 H   0  0  0  0  0  0  0  0  0  0  0  0
   -5.8625   -8.6543    0.0000 C   0  0  0  0  0  0  0  0  0  0  0  0
   -7.1611   -9.4050    0.0000 H   0  0  0  0  0  0  0  0  0  0  0  0
   -1.9633   -9.4033    0.0000 C   0  0  0  0  0  0  0  0  0  0  0  0
   -1.9631  -10.9033    0.0000 O   0  0  0  0  0  0  0  0  0  0  0  0
   -0.6644   -8.6531    0.0000 C   0  0  0  0  0  0  0  0  0  0  0  0
    0.2996   -7.5039    0.0000 H   0  0  0  0  0  0  0  0  0  0  0  0
   -1.6288   -7.5042    0.0000 H   0  0  0  0  0  0  0  0  0  0  0  0
    0.6348   -9.4029    0.0000 C   0  0  0  0  0  0  0  0  0  0  0  0
   -0.3292  -10.5521    0.0000 H   0  0  0  0  0  0  0  0  0  0  0  0
    1.5991  -10.5518    0.0000 H   0  0  0  0  0  0  0  0  0  0  0  0
    1.9337   -8.6527    0.0000 C   0  0  0  0  0  0  0  0  0  0  0  0
    1.9261   -7.1527    0.0000 C   0  0  0  0  0  0  0  0  0  0  0  0
    0.6196   -6.4157    0.0000 H   0  0  0  0  0  0  0  0  0  0  0  0
    3.1922   -6.3962    0.0000 C   0  0  0  0  0  0  0  0  0  0  0  0
    3.1649   -4.8965    0.0000 H   0  0  0  0  0  0  0  0  0  0  0  0
    4.5460   -7.1394    0.0000 C   0  0  0  0  0  0  0  0  0  0  0  0
    4.5536   -8.6394    0.0000 C   0  0  0  0  0  0  0  0  0  0  0  0
    5.8503   -9.3935    0.0000 H   0  0  0  0  0  0  0  0  0  0  0  0
    3.2075   -9.3962    0.0000 C   0  0  0  0  0  0  0  0  0  0  0  0
    3.1953  -10.8962    0.0000 H   0  0  0  0  0  0  0  0  0  0  0  0
    5.8349   -6.3721    0.0000 O   0  0  0  0  0  0  0  0  0  0  0  0
    7.1439   -7.1047    0.0000 H   0  0  0  0  0  0  0  0  0  0  0  0
  1  2  1  0  0  0  0 
  1  3  1  0  0  0  0 
  1  4  1  0  0  0  0 
  1  5  1  0  0  0  0 
  5  6  2  0  0  0  0 
  6  7  1  0  0  0  0 
  6  8  1  0  0  0  0 
  8  9  1  0  0  0  0 
  8 10  2  0  0  0  0 
 10 11  1  0  0  0  0 
 11 12  1  0  0  0  0 
 11 13  2  0  0  0  0 
  5 13  1  0  0  0  0 
 13 14  1  0  0  0  0 
 10 15  1  0  0  0  0 
 15 16  2  0  0  0  0 
 15 17  2  0  0  0  0 
 15 18  1  0  0  0  0 
 18 19  1  0  0  0  0 
 18 20  1  0  0  0  0 
 20 21  2  0  0  0  0 
 21 22  1  0  0  0  0 
 21 23  1  0  0  0  0 
 23 24  1  0  0  0  0 
 23 25  2  0  0  0  0 
 25 26  1  0  0  0  0 
 26 27  1  0  0  0  0 
 26 28  2  0  0  0  0 
 20 28  1  0  0  0  0 
 28 29  1  0  0  0  0 
 25 30  1  0  0  0  0 
 30 31  2  0  0  0  0 
 30 32  1  0  0  0  0 
 32 33  1  0  0  0  0 
 32 34  1  0  0  0  0 
 32 35  1  0  0  0  0 
 35 36  1  0  0  0  0 
 35 37  1  0  0  0  0 
 35 38  1  0  0  0  0 
 38 39  2  0  0  0  0 
 39 40  1  0  0  0  0 
 39 41  1  0  0  0  0 
 41 42  1  0  0  0  0 
 41 43  2  0  0  0  0 
 43 44  1  0  0  0  0 
 44 45  1  0  0  0  0 
 44 46  2  0  0  0  0 
 38 46  1  0  0  0  0 
 46 47  1  0  0  0  0 
 43 48  1  0  0  0  0 
 48 49  1  0  0  0  0 
M  END
> <Rank>
8

> <Priority_score>
0.372

> <Reaction_type>
double_bond_reduction_(benzylic)

> <Parent_ID>
61

> <Parent_InChI>
InChI=1S/C22H19NO4S/c1-16-2-13-21(14-3-16)28(26,27)23-19-9-7-18(8-10-19)22(25)15-6-17-4-11-20(24)12-5-17/h2-15,23-24H,1H3

> <Parent_SMILES>
Cc1ccc(S(=O)(=O)Nc2ccc(C(=O)/C=C/c3ccc(O)cc3)cc2)cc1

$$$$
Molecule 61_metabolite 10
  CDK     0516241031

 50 52  0  0  0  0  0  0  0  0999 V2000
  -14.4116   -5.2185    0.0000 C   0  0  0  0  0  0  0  0  0  0  0  0
  -14.4118   -3.7185    0.0000 H   0  0  0  0  0  0  0  0  0  0  0  0
  -15.8888   -4.9583    0.0000 H   0  0  0  0  0  0  0  0  0  0  0  0
  -14.9244   -6.6281    0.0000 H   0  0  0  0  0  0  0  0  0  0  0  0
  -13.1124   -5.9683    0.0000 C   0  0  0  0  0  0  0  0  0  0  0  0
  -13.1119   -7.4691    0.0000 C   0  0  0  0  0  0  0  0  0  0  0  0
  -14.4110   -8.2191    0.0000 H   0  0  0  0  0  0  0  0  0  0  0  0
  -11.8124   -8.2200    0.0000 C   0  0  0  0  0  0  0  0  0  0  0  0
  -11.8126   -9.7200    0.0000 H   0  0  0  0  0  0  0  0  0  0  0  0
  -10.5134   -7.4700    0.0000 C   0  0  0  0  0  0  0  0  0  0  0  0
  -10.5138   -5.9691    0.0000 C   0  0  0  0  0  0  0  0  0  0  0  0
   -9.2148   -5.2191    0.0000 H   0  0  0  0  0  0  0  0  0  0  0  0
  -11.8134   -5.2183    0.0000 C   0  0  0  0  0  0  0  0  0  0  0  0
  -11.8131   -3.7183    0.0000 H   0  0  0  0  0  0  0  0  0  0  0  0
   -9.2142   -8.2198    0.0000 S   0  0  0  0  0  0  0  0  0  0  0  0
  -10.1782   -9.3690    0.0000 O   0  0  0  0  0  0  0  0  0  0  0  0
   -8.2498   -9.3687    0.0000 O   0  0  0  0  0  0  0  0  0  0  0  0
   -7.9153   -7.4696    0.0000 N   0  0  0  0  0  0  0  0  0  0  0  0
   -7.9155   -5.9696    0.0000 H   0  0  0  0  0  0  0  0  0  0  0  0
   -6.6161   -8.2194    0.0000 C   0  0  0  0  0  0  0  0  0  0  0  0
   -5.3164   -7.4689    0.0000 C   0  0  0  0  0  0  0  0  0  0  0  0
   -5.3169   -5.9689    0.0000 H   0  0  0  0  0  0  0  0  0  0  0  0
   -4.0161   -8.2185    0.0000 C   0  0  0  0  0  0  0  0  0  0  0  0
   -2.7175   -7.4679    0.0000 H   0  0  0  0  0  0  0  0  0  0  0  0
   -4.0157   -9.7185    0.0000 C   0  0  0  0  0  0  0  0  0  0  0  0
   -5.3154  -10.4689    0.0000 C   0  0  0  0  0  0  0  0  0  0  0  0
   -5.3149  -11.9689    0.0000 H   0  0  0  0  0  0  0  0  0  0  0  0
   -6.6157   -9.7194    0.0000 C   0  0  0  0  0  0  0  0  0  0  0  0
   -7.9143  -10.4700    0.0000 H   0  0  0  0  0  0  0  0  0  0  0  0
   -2.7165  -10.4683    0.0000 C   0  0  0  0  0  0  0  0  0  0  0  0
   -2.7163  -11.9683    0.0000 O   0  0  0  0  0  0  0  0  0  0  0  0
   -1.4176   -9.7181    0.0000 C   0  0  0  0  0  0  0  0  0  0  0  0
   -1.4178   -8.2181    0.0000 H   0  0  0  0  0  0  0  0  0  0  0  0
   -0.1184  -10.4679    0.0000 C   0  0  0  0  0  0  0  0  0  0  0  0
   -0.1182  -11.9679    0.0000 H   0  0  0  0  0  0  0  0  0  0  0  0
    1.1805   -9.7177    0.0000 C   0  0  0  0  0  0  0  0  0  0  0  0
    1.1729   -8.2177    0.0000 C   0  0  0  0  0  0  0  0  0  0  0  0
   -0.1336   -7.4807    0.0000 H   0  0  0  0  0  0  0  0  0  0  0  0
    2.4390   -7.4613    0.0000 C   0  0  0  0  0  0  0  0  0  0  0  0
    2.4117   -5.9615    0.0000 H   0  0  0  0  0  0  0  0  0  0  0  0
    3.7928   -8.2044    0.0000 C   0  0  0  0  0  0  0  0  0  0  0  0
    3.8005   -9.7044    0.0000 C   0  0  0  0  0  0  0  0  0  0  0  0
    5.0971  -10.4585    0.0000 H   0  0  0  0  0  0  0  0  0  0  0  0
    2.4543  -10.4612    0.0000 C   0  0  0  0  0  0  0  0  0  0  0  0
    2.4422  -11.9612    0.0000 H   0  0  0  0  0  0  0  0  0  0  0  0
    5.0818   -7.4371    0.0000 O   0  0  0  0  0  0  0  0  0  0  0  0
    6.3907   -8.1698    0.0000 C   0  0  0  0  0  0  0  0  0  0  0  0
    7.6796   -7.4025    0.0000 H   0  0  0  0  0  0  0  0  0  0  0  0
    5.4419   -9.3316    0.0000 H   0  0  0  0  0  0  0  0  0  0  0  0
    7.3701   -9.3059    0.0000 H   0  0  0  0  0  0  0  0  0  0  0  0
  1  2  1  0  0  0  0 
  1  3  1  0  0  0  0 
  1  4  1  0  0  0  0 
  1  5  1  0  0  0  0 
  5  6  2  0  0  0  0 
  6  7  1  0  0  0  0 
  6  8  1  0  0  0  0 
  8  9  1  0  0  0  0 
  8 10  2  0  0  0  0 
 10 11  1  0  0  0  0 
 11 12  1  0  0  0  0 
 11 13  2  0  0  0  0 
  5 13  1  0  0  0  0 
 13 14  1  0  0  0  0 
 10 15  1  0  0  0  0 
 15 16  2  0  0  0  0 
 15 17  2  0  0  0  0 
 15 18  1  0  0  0  0 
 18 19  1  0  0  0  0 
 18 20  1  0  0  0  0 
 20 21  2  0  0  0  0 
 21 22  1  0  0  0  0 
 21 23  1  0  0  0  0 
 23 24  1  0  0  0  0 
 23 25  2  0  0  0  0 
 25 26  1  0  0  0  0 
 26 27  1  0  0  0  0 
 26 28  2  0  0  0  0 
 20 28  1  0  0  0  0 
 28 29  1  0  0  0  0 
 25 30  1  0  0  0  0 
 30 31  2  0  0  0  0 
 30 32  1  0  0  0  0 
 32 33  1  0  0  0  0 
 32 34  2  0  0  0  0 
 34 35  1  0  0  0  0 
 34 36  1  0  0  0  0 
 36 37  2  0  0  0  0 
 37 38  1  0  0  0  0 
 37 39  1  0  0  0  0 
 39 40  1  0  0  0  0 
 39 41  2  0  0  0  0 
 41 42  1  0  0  0  0 
 42 43  1  0  0  0  0 
 42 44  2  0  0  0  0 
 36 44  1  0  0  0  0 
 44 45  1  0  0  0  0 
 41 46  1  0  0  0  0 
 46 47  1  0  0  0  0 
 47 48  1  0  0  0  0 
 47 49  1  0  0  0  0 
 47 50  1  0  0  0  0 
M  END
> <Rank>
10

> <Priority_score>
0.33973418992170246

> <Reaction_type>
methylation_(aromatic_OH)

> <Parent_ID>
61

> <Parent_InChI>
InChI=1S/C22H19NO4S/c1-16-2-13-21(14-3-16)28(26,27)23-19-9-7-18(8-10-19)22(25)15-6-17-4-11-20(24)12-5-17/h2-15,23-24H,1H3

> <Parent_SMILES>
Cc1ccc(S(=O)(=O)Nc2ccc(C(=O)/C=C/c3ccc(O)cc3)cc2)cc1

$$$$
Molecule 61_metabolite 11
  CDK     0516241031

 48 50  0  0  0  0  0  0  0  0999 V2000
  -13.6421   -4.1270    0.0000 C   0  0  0  0  0  0  0  0  0  0  0  0
  -13.6424   -2.6270    0.0000 H   0  0  0  0  0  0  0  0  0  0  0  0
  -15.1194   -3.8667    0.0000 H   0  0  0  0  0  0  0  0  0  0  0  0
  -14.1549   -5.5366    0.0000 H   0  0  0  0  0  0  0  0  0  0  0  0
  -12.3430   -4.8768    0.0000 C   0  0  0  0  0  0  0  0  0  0  0  0
  -12.3425   -6.3776    0.0000 C   0  0  0  0  0  0  0  0  0  0  0  0
  -13.6415   -7.1276    0.0000 H   0  0  0  0  0  0  0  0  0  0  0  0
  -11.0430   -7.1284    0.0000 C   0  0  0  0  0  0  0  0  0  0  0  0
  -11.0432   -8.6284    0.0000 H   0  0  0  0  0  0  0  0  0  0  0  0
   -9.7439   -6.3784    0.0000 C   0  0  0  0  0  0  0  0  0  0  0  0
   -9.7444   -4.8776    0.0000 C   0  0  0  0  0  0  0  0  0  0  0  0
   -8.4454   -4.1276    0.0000 H   0  0  0  0  0  0  0  0  0  0  0  0
  -11.0439   -4.1268    0.0000 C   0  0  0  0  0  0  0  0  0  0  0  0
  -11.0437   -2.6268    0.0000 H   0  0  0  0  0  0  0  0  0  0  0  0
   -8.4448   -7.1282    0.0000 S   0  0  0  0  0  0  0  0  0  0  0  0
   -9.4088   -8.2774    0.0000 O   0  0  0  0  0  0  0  0  0  0  0  0
   -7.4804   -8.2771    0.0000 O   0  0  0  0  0  0  0  0  0  0  0  0
   -7.1459   -6.3780    0.0000 N   0  0  0  0  0  0  0  0  0  0  0  0
   -7.1461   -4.8780    0.0000 H   0  0  0  0  0  0  0  0  0  0  0  0
   -5.8467   -7.1278    0.0000 C   0  0  0  0  0  0  0  0  0  0  0  0
   -4.5469   -6.3774    0.0000 C   0  0  0  0  0  0  0  0  0  0  0  0
   -4.5474   -4.8774    0.0000 H   0  0  0  0  0  0  0  0  0  0  0  0
   -3.2467   -7.1270    0.0000 C   0  0  0  0  0  0  0  0  0  0  0  0
   -1.9480   -6.3764    0.0000 H   0  0  0  0  0  0  0  0  0  0  0  0
   -3.2462   -8.6270    0.0000 C   0  0  0  0  0  0  0  0  0  0  0  0
   -4.5460   -9.3774    0.0000 C   0  0  0  0  0  0  0  0  0  0  0  0
   -4.5455  -10.8774    0.0000 H   0  0  0  0  0  0  0  0  0  0  0  0
   -5.8462   -8.6278    0.0000 C   0  0  0  0  0  0  0  0  0  0  0  0
   -7.1449   -9.3784    0.0000 H   0  0  0  0  0  0  0  0  0  0  0  0
   -1.9471   -9.3768    0.0000 C   0  0  0  0  0  0  0  0  0  0  0  0
   -1.9468  -10.8768    0.0000 O   0  0  0  0  0  0  0  0  0  0  0  0
   -0.6481   -8.6266    0.0000 C   0  0  0  0  0  0  0  0  0  0  0  0
   -0.6484   -7.1266    0.0000 H   0  0  0  0  0  0  0  0  0  0  0  0
    0.6510   -9.3764    0.0000 C   0  0  0  0  0  0  0  0  0  0  0  0
    0.6513  -10.8764    0.0000 H   0  0  0  0  0  0  0  0  0  0  0  0
    1.9499   -8.6261    0.0000 C   0  0  0  0  0  0  0  0  0  0  0  0
    3.2496   -9.3768    0.0000 C   0  0  0  0  0  0  0  0  0  0  0  0
    3.2496  -10.8768    0.0000 H   0  0  0  0  0  0  0  0  0  0  0  0
    4.5485   -8.6266    0.0000 C   0  0  0  0  0  0  0  0  0  0  0  0
    5.8478   -9.3761    0.0000 H   0  0  0  0  0  0  0  0  0  0  0  0
    4.5478   -7.1257    0.0000 C   0  0  0  0  0  0  0  0  0  0  0  0
    3.2481   -6.3751    0.0000 C   0  0  0  0  0  0  0  0  0  0  0  0
    1.9492   -7.1253    0.0000 C   0  0  0  0  0  0  0  0  0  0  0  0
    0.6499   -6.3757    0.0000 H   0  0  0  0  0  0  0  0  0  0  0  0
    3.2481   -4.8751    0.0000 O   0  0  0  0  0  0  0  0  0  0  0  0
    4.5472   -4.1251    0.0000 H   0  0  0  0  0  0  0  0  0  0  0  0
    5.8467   -6.3755    0.0000 O   0  0  0  0  0  0  0  0  0  0  0  0
    7.1459   -7.1253    0.0000 H   0  0  0  0  0  0  0  0  0  0  0  0
  1  2  1  0  0  0  0 
  1  3  1  0  0  0  0 
  1  4  1  0  0  0  0 
  1  5  1  0  0  0  0 
  5  6  2  0  0  0  0 
  6  7  1  0  0  0  0 
  6  8  1  0  0  0  0 
  8  9  1  0  0  0  0 
  8 10  2  0  0  0  0 
 10 11  1  0  0  0  0 
 11 12  1  0  0  0  0 
 11 13  2  0  0  0  0 
  5 13  1  0  0  0  0 
 13 14  1  0  0  0  0 
 10 15  1  0  0  0  0 
 15 16  2  0  0  0  0 
 15 17  2  0  0  0  0 
 15 18  1  0  0  0  0 
 18 19  1  0  0  0  0 
 18 20  1  0  0  0  0 
 20 21  2  0  0  0  0 
 21 22  1  0  0  0  0 
 21 23  1  0  0  0  0 
 23 24  1  0  0  0  0 
 23 25  2  0  0  0  0 
 25 26  1  0  0  0  0 
 26 27  1  0  0  0  0 
 26 28  2  0  0  0  0 
 20 28  1  0  0  0  0 
 28 29  1  0  0  0  0 
 25 30  1  0  0  0  0 
 30 31  2  0  0  0  0 
 30 32  1  0  0  0  0 
 32 33  1  0  0  0  0 
 32 34  2  0  0  0  0 
 34 35  1  0  0  0  0 
 34 36  1  0  0  0  0 
 36 37  2  0  0  0  0 
 37 38  1  0  0  0  0 
 37 39  1  0  0  0  0 
 39 40  1  0  0  0  0 
 39 41  2  0  0  0  0 
 41 42  1  0  0  0  0 
 42 43  2  0  0  0  0 
 36 43  1  0  0  0  0 
 43 44  1  0  0  0  0 
 42 45  1  0  0  0  0 
 45 46  1  0  0  0  0 
 41 47  1  0  0  0  0 
 47 48  1  0  0  0  0 
M  END
> <Rank>
11

> <Priority_score>
0.18

> <Reaction_type>
aromatic_hydroxylation_(ortho_to_oxygen)

> <Parent_ID>
61

> <Parent_InChI>
InChI=1S/C22H19NO4S/c1-16-2-13-21(14-3-16)28(26,27)23-19-9-7-18(8-10-19)22(25)15-6-17-4-11-20(24)12-5-17/h2-15,23-24H,1H3

> <Parent_SMILES>
Cc1ccc(S(=O)(=O)Nc2ccc(C(=O)/C=C/c3ccc(O)cc3)cc2)cc1

$$$$
Molecule 61_metabolite 12
  CDK     0516241031

 67 70  0  0  0  0  0  0  0  0999 V2000
   -5.9801    0.1404    0.0000 C   0  0  0  0  0  0  0  0  0  0  0  0
   -5.7193    1.6175    0.0000 H   0  0  0  0  0  0  0  0  0  0  0  0
   -6.7303   -1.1585    0.0000 H   0  0  0  0  0  0  0  0  0  0  0  0
   -7.3895    0.6537    0.0000 H   0  0  0  0  0  0  0  0  0  0  0  0
   -4.8312   -0.8241    0.0000 C   0  0  0  0  0  0  0  0  0  0  0  0
   -3.4207   -0.3113    0.0000 C   0  0  0  0  0  0  0  0  0  0  0  0
   -3.1601    1.1659    0.0000 H   0  0  0  0  0  0  0  0  0  0  0  0
   -2.2707   -1.2757    0.0000 C   0  0  0  0  0  0  0  0  0  0  0  0
   -0.8612   -0.7625    0.0000 H   0  0  0  0  0  0  0  0  0  0  0  0
   -2.5313   -2.7529    0.0000 C   0  0  0  0  0  0  0  0  0  0  0  0
   -3.9418   -3.2657    0.0000 C   0  0  0  0  0  0  0  0  0  0  0  0
   -4.2857   -5.2156    0.0000 H   0  0  0  0  0  0  0  0  0  0  0  0
   -5.0918   -2.3013    0.0000 C   0  0  0  0  0  0  0  0  0  0  0  0
   -6.5012   -2.8144    0.0000 H   0  0  0  0  0  0  0  0  0  0  0  0
   -1.3824   -3.7173    0.0000 S   0  0  0  0  0  0  0  0  0  0  0  0
   -0.6321   -2.4184    0.0000 O   0  0  0  0  0  0  0  0  0  0  0  0
    0.0270   -4.2306    0.0000 O   0  0  0  0  0  0  0  0  0  0  0  0
   -1.6432   -5.1945    0.0000 N   0  0  0  0  0  0  0  0  0  0  0  0
   -0.4943   -6.1589    0.0000 C   0  0  0  0  0  0  0  0  0  0  0  0
   -0.7550   -7.6369    0.0000 C   0  0  0  0  0  0  0  0  0  0  0  0
   -2.1648   -8.1494    0.0000 H   0  0  0  0  0  0  0  0  0  0  0  0
    0.3940   -8.6024    0.0000 C   0  0  0  0  0  0  0  0  0  0  0  0
    0.1327  -10.0795    0.0000 H   0  0  0  0  0  0  0  0  0  0  0  0
    1.8037   -8.0899    0.0000 C   0  0  0  0  0  0  0  0  0  0  0  0
    2.0644   -6.6119    0.0000 C   0  0  0  0  0  0  0  0  0  0  0  0
    3.4741   -6.0994    0.0000 H   0  0  0  0  0  0  0  0  0  0  0  0
    0.9154   -5.6464    0.0000 C   0  0  0  0  0  0  0  0  0  0  0  0
    1.1766   -4.1693    0.0000 H   0  0  0  0  0  0  0  0  0  0  0  0
    2.9526   -9.0544    0.0000 C   0  0  0  0  0  0  0  0  0  0  0  0
    2.6918  -10.5315    0.0000 O   0  0  0  0  0  0  0  0  0  0  0  0
    4.3622   -8.5416    0.0000 C   0  0  0  0  0  0  0  0  0  0  0  0
    4.6230   -7.0645    0.0000 H   0  0  0  0  0  0  0  0  0  0  0  0
    5.5111   -9.5061    0.0000 C   0  0  0  0  0  0  0  0  0  0  0  0
    5.2503  -10.9832    0.0000 H   0  0  0  0  0  0  0  0  0  0  0  0
    6.9207   -8.9933    0.0000 C   0  0  0  0  0  0  0  0  0  0  0  0
    8.0648   -9.9634    0.0000 C   0  0  0  0  0  0  0  0  0  0  0  0
    7.7895  -11.4379    0.0000 H   0  0  0  0  0  0  0  0  0  0  0  0
    9.4582   -9.4798    0.0000 C   0  0  0  0  0  0  0  0  0  0  0  0
   10.5894  -10.4648    0.0000 H   0  0  0  0  0  0  0  0  0  0  0  0
    9.7592   -7.9650    0.0000 C   0  0  0  0  0  0  0  0  0  0  0  0
    8.6151   -6.9950    0.0000 C   0  0  0  0  0  0  0  0  0  0  0  0
    8.8710   -5.5169    0.0000 H   0  0  0  0  0  0  0  0  0  0  0  0
    7.1700   -7.5396    0.0000 C   0  0  0  0  0  0  0  0  0  0  0  0
    6.0132   -6.5847    0.0000 H   0  0  0  0  0  0  0  0  0  0  0  0
   11.1755   -7.4709    0.0000 O   0  0  0  0  0  0  0  0  0  0  0  0
   12.3116   -8.4504    0.0000 H   0  0  0  0  0  0  0  0  0  0  0  0
   -4.4061   -6.1994    0.0000 C   0  0  0  0  0  0  0  0  0  0  0  0
   -4.8330   -3.7767    0.0000 H   0  0  0  0  0  0  0  0  0  0  0  0
   -5.9061   -6.1994    0.0000 C   0  0  0  0  0  0  0  0  0  0  0  0
   -5.6458   -4.7222    0.0000 H   0  0  0  0  0  0  0  0  0  0  0  0
   -6.6561   -7.4994    0.0000 C   0  0  0  0  0  0  0  0  0  0  0  0
   -7.8053   -6.5354    0.0000 H   0  0  0  0  0  0  0  0  0  0  0  0
   -5.9061   -8.7994    0.0000 C   0  0  0  0  0  0  0  0  0  0  0  0
   -7.3158   -9.3121    0.0000 H   0  0  0  0  0  0  0  0  0  0  0  0
   -4.4061   -8.7994    0.0000 C   0  0  0  0  0  0  0  0  0  0  0  0
   -4.6664  -10.2767    0.0000 H   0  0  0  0  0  0  0  0  0  0  0  0
   -2.5454   -9.4762    0.0000 C   0  0  0  0  0  0  0  0  0  0  0  0
   -1.2465   -8.7259    0.0000 O   0  0  0  0  0  0  0  0  0  0  0  0
   -2.2846  -10.9534    0.0000 O   0  0  0  0  0  0  0  0  0  0  0  0
   -3.4335  -11.9178    0.0000 H   0  0  0  0  0  0  0  0  0  0  0  0
   -3.6561   -7.4994    0.0000 O   0  0  0  0  0  0  0  0  0  0  0  0
   -5.6458  -10.2767    0.0000 O   0  0  0  0  0  0  0  0  0  0  0  0
   -6.7950  -11.2407    0.0000 H   0  0  0  0  0  0  0  0  0  0  0  0
   -7.8053   -8.4635    0.0000 O   0  0  0  0  0  0  0  0  0  0  0  0
   -9.2148   -7.9503    0.0000 H   0  0  0  0  0  0  0  0  0  0  0  0
   -7.3158   -5.6867    0.0000 O   0  0  0  0  0  0  0  0  0  0  0  0
   -7.5766   -4.2095    0.0000 H   0  0  0  0  0  0  0  0  0  0  0  0
  1  2  1  0  0  0  0 
  1  3  1  0  0  0  0 
  1  4  1  0  0  0  0 
  1  5  1  0  0  0  0 
  5  6  2  0  0  0  0 
  6  7  1  0  0  0  0 
  6  8  1  0  0  0  0 
  8  9  1  0  0  0  0 
  8 10  2  0  0  0  0 
 10 11  1  0  0  0  0 
 11 12  1  0  0  0  0 
 11 13  2  0  0  0  0 
  5 13  1  0  0  0  0 
 13 14  1  0  0  0  0 
 10 15  1  0  0  0  0 
 15 16  2  0  0  0  0 
 15 17  2  0  0  0  0 
 15 18  1  0  0  0  0 
 18 19  1  0  0  0  0 
 19 20  2  0  0  0  0 
 20 21  1  0  0  0  0 
 20 22  1  0  0  0  0 
 22 23  1  0  0  0  0 
 22 24  2  0  0  0  0 
 24 25  1  0  0  0  0 
 25 26  1  0  0  0  0 
 25 27  2  0  0  0  0 
 19 27  1  0  0  0  0 
 27 28  1  0  0  0  0 
 24 29  1  0  0  0  0 
 29 30  2  0  0  0  0 
 29 31  1  0  0  0  0 
 31 32  1  0  0  0  0 
 31 33  2  0  0  0  0 
 33 34  1  0  0  0  0 
 33 35  1  0  0  0  0 
 35 36  2  0  0  0  0 
 36 37  1  0  0  0  0 
 36 38  1  0  0  0  0 
 38 39  1  0  0  0  0 
 38 40  2  0  0  0  0 
 40 41  1  0  0  0  0 
 41 42  1  0  0  0  0 
 41 43  2  0  0  0  0 
 35 43  1  0  0  0  0 
 43 44  1  0  0  0  0 
 40 45  1  0  0  0  0 
 45 46  1  0  0  0  0 
 18 47  1  0  0  0  0 
 47 48  1  0  0  0  0 
 47 49  1  0  0  0  0 
 49 50  1  0  0  0  0 
 49 51  1  0  0  0  0 
 51 52  1  0  0  0  0 
 51 53  1  0  0  0  0 
 53 54  1  0  0  0  0 
 53 55  1  0  0  0  0 
 55 56  1  0  0  0  0 
 55 57  1  0  0  0  0 
 57 58  2  0  0  0  0 
 57 59  1  0  0  0  0 
 59 60  1  0  0  0  0 
 55 61  1  0  0  0  0 
 47 61  1  0  0  0  0 
 53 62  1  0  0  0  0 
 62 63  1  0  0  0  0 
 51 64  1  0  0  0  0 
 64 65  1  0  0  0  0 
 49 66  1  0  0  0  0 
 66 67  1  0  0  0  0 
M  END
> <Rank>
12

> <Priority_score>
0.172

> <Reaction_type>
N-glucuronidation_(aniline_NH1-R)

> <Parent_ID>
61

> <Parent_InChI>
InChI=1S/C22H19NO4S/c1-16-2-13-21(14-3-16)28(26,27)23-19-9-7-18(8-10-19)22(25)15-6-17-4-11-20(24)12-5-17/h2-15,23-24H,1H3

> <Parent_SMILES>
Cc1ccc(S(=O)(=O)Nc2ccc(C(=O)/C=C/c3ccc(O)cc3)cc2)cc1

$$$$
Molecule 61_metabolite 13
  CDK     0516241031

 48 50  0  0  0  0  0  0  0  0999 V2000
   -2.5989    1.5002    0.0000 C   0  0  0  0  0  0  0  0  0  0  0  0
   -3.8981    0.7504    0.0000 H   0  0  0  0  0  0  0  0  0  0  0  0
   -1.6346    2.6491    0.0000 H   0  0  0  0  0  0  0  0  0  0  0  0
   -3.5629    2.6494    0.0000 H   0  0  0  0  0  0  0  0  0  0  0  0
   -1.3000    0.7500    0.0000 C   0  0  0  0  0  0  0  0  0  0  0  0
    0.0000    1.5000    0.0000 C   0  0  0  0  0  0  0  0  0  0  0  0
    0.0000    3.0000    0.0000 H   0  0  0  0  0  0  0  0  0  0  0  0
    1.3000    0.7500    0.0000 C   0  0  0  0  0  0  0  0  0  0  0  0
    2.5989    1.5002    0.0000 H   0  0  0  0  0  0  0  0  0  0  0  0
    1.3000   -0.7500    0.0000 C   0  0  0  0  0  0  0  0  0  0  0  0
    0.0000   -1.5000    0.0000 C   0  0  0  0  0  0  0  0  0  0  0  0
   -0.0000   -3.0000    0.0000 H   0  0  0  0  0  0  0  0  0  0  0  0
   -1.3000   -0.7500    0.0000 C   0  0  0  0  0  0  0  0  0  0  0  0
   -2.5989   -1.5002    0.0000 O   0  0  0  0  0  0  0  0  0  0  0  0
   -2.5987   -3.0002    0.0000 H   0  0  0  0  0  0  0  0  0  0  0  0
    2.5989   -1.5002    0.0000 S   0  0  0  0  0  0  0  0  0  0  0  0
    1.6346   -2.6491    0.0000 O   0  0  0  0  0  0  0  0  0  0  0  0
    3.5629   -2.6494    0.0000 O   0  0  0  0  0  0  0  0  0  0  0  0
    3.8981   -0.7504    0.0000 N   0  0  0  0  0  0  0  0  0  0  0  0
    3.8983    0.7496    0.0000 H   0  0  0  0  0  0  0  0  0  0  0  0
    5.1970   -1.5006    0.0000 C   0  0  0  0  0  0  0  0  0  0  0  0
    6.4970   -0.7506    0.0000 C   0  0  0  0  0  0  0  0  0  0  0  0
    6.4970    0.7494    0.0000 H   0  0  0  0  0  0  0  0  0  0  0  0
    7.7970   -1.5006    0.0000 C   0  0  0  0  0  0  0  0  0  0  0  0
    9.0959   -0.7504    0.0000 H   0  0  0  0  0  0  0  0  0  0  0  0
    7.7970   -3.0006    0.0000 C   0  0  0  0  0  0  0  0  0  0  0  0
    6.4970   -3.7506    0.0000 C   0  0  0  0  0  0  0  0  0  0  0  0
    6.4970   -5.2506    0.0000 H   0  0  0  0  0  0  0  0  0  0  0  0
    5.1970   -3.0006    0.0000 C   0  0  0  0  0  0  0  0  0  0  0  0
    3.8981   -3.7508    0.0000 H   0  0  0  0  0  0  0  0  0  0  0  0
    9.0959   -3.7508    0.0000 C   0  0  0  0  0  0  0  0  0  0  0  0
    9.0957   -5.2508    0.0000 O   0  0  0  0  0  0  0  0  0  0  0  0
   10.3951   -3.0010    0.0000 C   0  0  0  0  0  0  0  0  0  0  0  0
   10.3953   -1.5010    0.0000 H   0  0  0  0  0  0  0  0  0  0  0  0
   11.6940   -3.7512    0.0000 C   0  0  0  0  0  0  0  0  0  0  0  0
   11.6937   -5.2512    0.0000 H   0  0  0  0  0  0  0  0  0  0  0  0
   12.9931   -3.0015    0.0000 C   0  0  0  0  0  0  0  0  0  0  0  0
   12.9860   -1.5015    0.0000 C   0  0  0  0  0  0  0  0  0  0  0  0
   11.6798   -0.7641    0.0000 H   0  0  0  0  0  0  0  0  0  0  0  0
   14.2524   -0.7454    0.0000 C   0  0  0  0  0  0  0  0  0  0  0  0
   14.2255    0.7543    0.0000 H   0  0  0  0  0  0  0  0  0  0  0  0
   15.6060   -1.4890    0.0000 C   0  0  0  0  0  0  0  0  0  0  0  0
   15.6131   -2.9890    0.0000 C   0  0  0  0  0  0  0  0  0  0  0  0
   16.9095   -3.7435    0.0000 H   0  0  0  0  0  0  0  0  0  0  0  0
   14.2667   -3.7454    0.0000 C   0  0  0  0  0  0  0  0  0  0  0  0
   14.2541   -5.2453    0.0000 H   0  0  0  0  0  0  0  0  0  0  0  0
   16.8951   -0.7222    0.0000 O   0  0  0  0  0  0  0  0  0  0  0  0
   18.2038   -1.4552    0.0000 H   0  0  0  0  0  0  0  0  0  0  0  0
  1  2  1  0  0  0  0 
  1  3  1  0  0  0  0 
  1  4  1  0  0  0  0 
  1  5  1  0  0  0  0 
  5  6  2  0  0  0  0 
  6  7  1  0  0  0  0 
  6  8  1  0  0  0  0 
  8  9  1  0  0  0  0 
  8 10  2  0  0  0  0 
 10 11  1  0  0  0  0 
 11 12  1  0  0  0  0 
 11 13  2  0  0  0  0 
  5 13  1  0  0  0  0 
 13 14  1  0  0  0  0 
 14 15  1  0  0  0  0 
 10 16  1  0  0  0  0 
 16 17  2  0  0  0  0 
 16 18  2  0  0  0  0 
 16 19  1  0  0  0  0 
 19 20  1  0  0  0  0 
 19 21  1  0  0  0  0 
 21 22  2  0  0  0  0 
 22 23  1  0  0  0  0 
 22 24  1  0  0  0  0 
 24 25  1  0  0  0  0 
 24 26  2  0  0  0  0 
 26 27  1  0  0  0  0 
 27 28  1  0  0  0  0 
 27 29  2  0  0  0  0 
 21 29  1  0  0  0  0 
 29 30  1  0  0  0  0 
 26 31  1  0  0  0  0 
 31 32  2  0  0  0  0 
 31 33  1  0  0  0  0 
 33 34  1  0  0  0  0 
 33 35  2  0  0  0  0 
 35 36  1  0  0  0  0 
 35 37  1  0  0  0  0 
 37 38  2  0  0  0  0 
 38 39  1  0  0  0  0 
 38 40  1  0  0  0  0 
 40 41  1  0  0  0  0 
 40 42  2  0  0  0  0 
 42 43  1  0  0  0  0 
 43 44  1  0  0  0  0 
 43 45  2  0  0  0  0 
 37 45  1  0  0  0  0 
 45 46  1  0  0  0  0 
 42 47  1  0  0  0  0 
 47 48  1  0  0  0  0 
M  END
> <Rank>
13

> <Priority_score>
0.116

> <Reaction_type>
aromatic hydroxylation

> <Parent_ID>
61

> <Parent_InChI>
InChI=1S/C22H19NO4S/c1-16-2-13-21(14-3-16)28(26,27)23-19-9-7-18(8-10-19)22(25)15-6-17-4-11-20(24)12-5-17/h2-15,23-24H,1H3

> <Parent_SMILES>
Cc1ccc(S(=O)(=O)Nc2ccc(C(=O)/C=C/c3ccc(O)cc3)cc2)cc1

$$$$
Molecule 61_metabolite 14
  CDK     0516241031

 48 50  0  0  0  0  0  0  0  0999 V2000
  -13.6584   -4.1535    0.0000 C   0  0  0  0  0  0  0  0  0  0  0  0
  -13.6586   -2.6535    0.0000 H   0  0  0  0  0  0  0  0  0  0  0  0
  -15.1356   -3.8933    0.0000 H   0  0  0  0  0  0  0  0  0  0  0  0
  -14.1712   -5.5631    0.0000 H   0  0  0  0  0  0  0  0  0  0  0  0
  -12.3592   -4.9033    0.0000 C   0  0  0  0  0  0  0  0  0  0  0  0
  -12.3587   -6.4041    0.0000 C   0  0  0  0  0  0  0  0  0  0  0  0
  -13.6578   -7.1541    0.0000 H   0  0  0  0  0  0  0  0  0  0  0  0
  -11.0592   -7.1550    0.0000 C   0  0  0  0  0  0  0  0  0  0  0  0
  -11.0595   -8.6550    0.0000 H   0  0  0  0  0  0  0  0  0  0  0  0
   -9.7602   -6.4050    0.0000 C   0  0  0  0  0  0  0  0  0  0  0  0
   -9.7607   -4.9041    0.0000 C   0  0  0  0  0  0  0  0  0  0  0  0
   -8.4616   -4.1541    0.0000 H   0  0  0  0  0  0  0  0  0  0  0  0
  -11.0602   -4.1533    0.0000 C   0  0  0  0  0  0  0  0  0  0  0  0
  -11.0599   -2.6533    0.0000 H   0  0  0  0  0  0  0  0  0  0  0  0
   -8.4610   -7.1548    0.0000 S   0  0  0  0  0  0  0  0  0  0  0  0
   -9.4250   -8.3040    0.0000 O   0  0  0  0  0  0  0  0  0  0  0  0
   -7.4967   -8.3037    0.0000 O   0  0  0  0  0  0  0  0  0  0  0  0
   -7.1621   -6.4045    0.0000 N   0  0  0  0  0  0  0  0  0  0  0  0
   -5.8630   -7.1543    0.0000 C   0  0  0  0  0  0  0  0  0  0  0  0
   -4.5632   -6.4039    0.0000 C   0  0  0  0  0  0  0  0  0  0  0  0
   -4.5637   -4.9039    0.0000 H   0  0  0  0  0  0  0  0  0  0  0  0
   -3.2630   -7.1535    0.0000 C   0  0  0  0  0  0  0  0  0  0  0  0
   -1.9643   -6.4029    0.0000 H   0  0  0  0  0  0  0  0  0  0  0  0
   -3.2625   -8.6535    0.0000 C   0  0  0  0  0  0  0  0  0  0  0  0
   -4.5622   -9.4039    0.0000 C   0  0  0  0  0  0  0  0  0  0  0  0
   -4.5617  -10.9039    0.0000 H   0  0  0  0  0  0  0  0  0  0  0  0
   -5.8625   -8.6543    0.0000 C   0  0  0  0  0  0  0  0  0  0  0  0
   -7.1611   -9.4050    0.0000 H   0  0  0  0  0  0  0  0  0  0  0  0
   -1.9633   -9.4033    0.0000 C   0  0  0  0  0  0  0  0  0  0  0  0
   -1.9631  -10.9033    0.0000 O   0  0  0  0  0  0  0  0  0  0  0  0
   -0.6644   -8.6531    0.0000 C   0  0  0  0  0  0  0  0  0  0  0  0
   -0.6646   -7.1531    0.0000 H   0  0  0  0  0  0  0  0  0  0  0  0
    0.6348   -9.4029    0.0000 C   0  0  0  0  0  0  0  0  0  0  0  0
    0.6350  -10.9029    0.0000 H   0  0  0  0  0  0  0  0  0  0  0  0
    1.9337   -8.6527    0.0000 C   0  0  0  0  0  0  0  0  0  0  0  0
    1.9261   -7.1527    0.0000 C   0  0  0  0  0  0  0  0  0  0  0  0
    0.6196   -6.4157    0.0000 H   0  0  0  0  0  0  0  0  0  0  0  0
    3.1922   -6.3962    0.0000 C   0  0  0  0  0  0  0  0  0  0  0  0
    3.1649   -4.8965    0.0000 H   0  0  0  0  0  0  0  0  0  0  0  0
    4.5460   -7.1394    0.0000 C   0  0  0  0  0  0  0  0  0  0  0  0
    4.5536   -8.6394    0.0000 C   0  0  0  0  0  0  0  0  0  0  0  0
    5.8503   -9.3935    0.0000 H   0  0  0  0  0  0  0  0  0  0  0  0
    3.2075   -9.3962    0.0000 C   0  0  0  0  0  0  0  0  0  0  0  0
    3.1953  -10.8962    0.0000 H   0  0  0  0  0  0  0  0  0  0  0  0
    5.8349   -6.3721    0.0000 O   0  0  0  0  0  0  0  0  0  0  0  0
    7.1439   -7.1047    0.0000 H   0  0  0  0  0  0  0  0  0  0  0  0
   -7.1623   -4.9045    0.0000 O   0  0  0  0  0  0  0  0  0  0  0  0
   -5.8634   -4.1543    0.0000 H   0  0  0  0  0  0  0  0  0  0  0  0
  1  2  1  0  0  0  0 
  1  3  1  0  0  0  0 
  1  4  1  0  0  0  0 
  1  5  1  0  0  0  0 
  5  6  2  0  0  0  0 
  6  7  1  0  0  0  0 
  6  8  1  0  0  0  0 
  8  9  1  0  0  0  0 
  8 10  2  0  0  0  0 
 10 11  1  0  0  0  0 
 11 12  1  0  0  0  0 
 11 13  2  0  0  0  0 
  5 13  1  0  0  0  0 
 13 14  1  0  0  0  0 
 10 15  1  0  0  0  0 
 15 16  2  0  0  0  0 
 15 17  2  0  0  0  0 
 15 18  1  0  0  0  0 
 18 19  1  0  0  0  0 
 19 20  2  0  0  0  0 
 20 21  1  0  0  0  0 
 20 22  1  0  0  0  0 
 22 23  1  0  0  0  0 
 22 24  2  0  0  0  0 
 24 25  1  0  0  0  0 
 25 26  1  0  0  0  0 
 25 27  2  0  0  0  0 
 19 27  1  0  0  0  0 
 27 28  1  0  0  0  0 
 24 29  1  0  0  0  0 
 29 30  2  0  0  0  0 
 29 31  1  0  0  0  0 
 31 32  1  0  0  0  0 
 31 33  2  0  0  0  0 
 33 34  1  0  0  0  0 
 33 35  1  0  0  0  0 
 35 36  2  0  0  0  0 
 36 37  1  0  0  0  0 
 36 38  1  0  0  0  0 
 38 39  1  0  0  0  0 
 38 40  2  0  0  0  0 
 40 41  1  0  0  0  0 
 41 42  1  0  0  0  0 
 41 43  2  0  0  0  0 
 35 43  1  0  0  0  0 
 43 44  1  0  0  0  0 
 40 45  1  0  0  0  0 
 45 46  1  0  0  0  0 
 18 47  1  0  0  0  0 
 47 48  1  0  0  0  0 
M  END
> <Rank>
14

> <Priority_score>
0.072

> <Reaction_type>
amine hydroxylation

> <Parent_ID>
61

> <Parent_InChI>
InChI=1S/C22H19NO4S/c1-16-2-13-21(14-3-16)28(26,27)23-19-9-7-18(8-10-19)22(25)15-6-17-4-11-20(24)12-5-17/h2-15,23-24H,1H3

> <Parent_SMILES>
Cc1ccc(S(=O)(=O)Nc2ccc(C(=O)/C=C/c3ccc(O)cc3)cc2)cc1

$$$$
Molecule 61_metabolite 15
  CDK     0516241031

 48 50  0  0  0  0  0  0  0  0999 V2000
  -13.6475   -4.2022    0.0000 C   0  0  0  0  0  0  0  0  0  0  0  0
  -13.6477   -2.7022    0.0000 H   0  0  0  0  0  0  0  0  0  0  0  0
  -15.1247   -3.9420    0.0000 H   0  0  0  0  0  0  0  0  0  0  0  0
  -14.1603   -5.6118    0.0000 H   0  0  0  0  0  0  0  0  0  0  0  0
  -12.3483   -4.9520    0.0000 C   0  0  0  0  0  0  0  0  0  0  0  0
  -12.3478   -6.4528    0.0000 C   0  0  0  0  0  0  0  0  0  0  0  0
  -13.6469   -7.2028    0.0000 H   0  0  0  0  0  0  0  0  0  0  0  0
  -11.0483   -7.2037    0.0000 C   0  0  0  0  0  0  0  0  0  0  0  0
  -11.0485   -8.7037    0.0000 H   0  0  0  0  0  0  0  0  0  0  0  0
   -9.7493   -6.4537    0.0000 C   0  0  0  0  0  0  0  0  0  0  0  0
   -9.7497   -4.9528    0.0000 C   0  0  0  0  0  0  0  0  0  0  0  0
   -8.4507   -4.2028    0.0000 H   0  0  0  0  0  0  0  0  0  0  0  0
  -11.0493   -4.2020    0.0000 C   0  0  0  0  0  0  0  0  0  0  0  0
  -11.0490   -2.7020    0.0000 H   0  0  0  0  0  0  0  0  0  0  0  0
   -8.4501   -7.2035    0.0000 S   0  0  0  0  0  0  0  0  0  0  0  0
   -9.4141   -8.3527    0.0000 O   0  0  0  0  0  0  0  0  0  0  0  0
   -7.4857   -8.3524    0.0000 O   0  0  0  0  0  0  0  0  0  0  0  0
   -7.1512   -6.4533    0.0000 N   0  0  0  0  0  0  0  0  0  0  0  0
   -7.1514   -4.9533    0.0000 H   0  0  0  0  0  0  0  0  0  0  0  0
   -5.8520   -7.2030    0.0000 C   0  0  0  0  0  0  0  0  0  0  0  0
   -4.5428   -6.4662    0.0000 C   0  0  0  0  0  0  0  0  0  0  0  0
   -4.5372   -4.9663    0.0000 H   0  0  0  0  0  0  0  0  0  0  0  0
   -3.2411   -7.2116    0.0000 C   0  0  0  0  0  0  0  0  0  0  0  0
   -1.9459   -6.4551    0.0000 H   0  0  0  0  0  0  0  0  0  0  0  0
   -3.2313   -8.7038    0.0000 C   0  0  0  0  0  0  0  0  0  0  0  0
   -4.5331   -9.4679    0.0000 C   0  0  0  0  0  0  0  0  0  0  0  0
   -4.5251  -10.9679    0.0000 H   0  0  0  0  0  0  0  0  0  0  0  0
   -5.8348   -8.7225    0.0000 C   0  0  0  0  0  0  0  0  0  0  0  0
   -7.1282   -9.4821    0.0000 O   0  0  0  0  0  0  0  0  0  0  0  0
   -7.1171  -10.9821    0.0000 H   0  0  0  0  0  0  0  0  0  0  0  0
   -1.9272   -9.4449    0.0000 C   0  0  0  0  0  0  0  0  0  0  0  0
   -1.9169  -10.9448    0.0000 O   0  0  0  0  0  0  0  0  0  0  0  0
   -0.6333   -8.6860    0.0000 C   0  0  0  0  0  0  0  0  0  0  0  0
   -0.6436   -7.1860    0.0000 H   0  0  0  0  0  0  0  0  0  0  0  0
    0.6709   -9.4270    0.0000 C   0  0  0  0  0  0  0  0  0  0  0  0
    0.6812  -10.9270    0.0000 H   0  0  0  0  0  0  0  0  0  0  0  0
    1.9647   -8.6681    0.0000 C   0  0  0  0  0  0  0  0  0  0  0  0
    1.9470   -7.1682    0.0000 C   0  0  0  0  0  0  0  0  0  0  0  0
    0.6357   -6.4400    0.0000 H   0  0  0  0  0  0  0  0  0  0  0  0
    3.2081   -6.4033    0.0000 C   0  0  0  0  0  0  0  0  0  0  0  0
    3.1707   -4.9038    0.0000 H   0  0  0  0  0  0  0  0  0  0  0  0
    4.5669   -7.1374    0.0000 C   0  0  0  0  0  0  0  0  0  0  0  0
    4.5845   -8.6373    0.0000 C   0  0  0  0  0  0  0  0  0  0  0  0
    5.8862   -9.3827    0.0000 H   0  0  0  0  0  0  0  0  0  0  0  0
    3.2435   -9.4031    0.0000 C   0  0  0  0  0  0  0  0  0  0  0  0
    3.2414  -10.9031    0.0000 H   0  0  0  0  0  0  0  0  0  0  0  0
    5.8506   -6.3615    0.0000 O   0  0  0  0  0  0  0  0  0  0  0  0
    7.1644   -7.0853    0.0000 H   0  0  0  0  0  0  0  0  0  0  0  0
  1  2  1  0  0  0  0 
  1  3  1  0  0  0  0 
  1  4  1  0  0  0  0 
  1  5  1  0  0  0  0 
  5  6  2  0  0  0  0 
  6  7  1  0  0  0  0 
  6  8  1  0  0  0  0 
  8  9  1  0  0  0  0 
  8 10  2  0  0  0  0 
 10 11  1  0  0  0  0 
 11 12  1  0  0  0  0 
 11 13  2  0  0  0  0 
  5 13  1  0  0  0  0 
 13 14  1  0  0  0  0 
 10 15  1  0  0  0  0 
 15 16  2  0  0  0  0 
 15 17  2  0  0  0  0 
 15 18  1  0  0  0  0 
 18 19  1  0  0  0  0 
 18 20  1  0  0  0  0 
 20 21  2  0  0  0  0 
 21 22  1  0  0  0  0 
 21 23  1  0  0  0  0 
 23 24  1  0  0  0  0 
 23 25  2  0  0  0  0 
 25 26  1  0  0  0  0 
 26 27  1  0  0  0  0 
 26 28  2  0  0  0  0 
 20 28  1  0  0  0  0 
 28 29  1  0  0  0  0 
 29 30  1  0  0  0  0 
 25 31  1  0  0  0  0 
 31 32  2  0  0  0  0 
 31 33  1  0  0  0  0 
 33 34  1  0  0  0  0 
 33 35  2  0  0  0  0 
 35 36  1  0  0  0  0 
 35 37  1  0  0  0  0 
 37 38  2  0  0  0  0 
 38 39  1  0  0  0  0 
 38 40  1  0  0  0  0 
 40 41  1  0  0  0  0 
 40 42  2  0  0  0  0 
 42 43  1  0  0  0  0 
 43 44  1  0  0  0  0 
 43 45  2  0  0  0  0 
 37 45  1  0  0  0  0 
 45 46  1  0  0  0  0 
 42 47  1  0  0  0  0 
 47 48  1  0  0  0  0 
M  END
> <Rank>
14

> <Priority_score>
0.072

> <Reaction_type>
aromatic_hydroxylation_(ortho_to_nitrogen)

> <Parent_ID>
61

> <Parent_InChI>
InChI=1S/C22H19NO4S/c1-16-2-13-21(14-3-16)28(26,27)23-19-9-7-18(8-10-19)22(25)15-6-17-4-11-20(24)12-5-17/h2-15,23-24H,1H3

> <Parent_SMILES>
Cc1ccc(S(=O)(=O)Nc2ccc(C(=O)/C=C/c3ccc(O)cc3)cc2)cc1

$$$$
Molecule 61_metabolite 16
  CDK     0516241031

 48 50  0  0  0  0  0  0  0  0999 V2000
  -23.2598   -3.0019    0.0000 C   0  0  0  0  0  0  0  0  0  0  0  0
  -24.0096   -4.3010    0.0000 H   0  0  0  0  0  0  0  0  0  0  0  0
  -24.6695   -2.4891    0.0000 H   0  0  0  0  0  0  0  0  0  0  0  0
  -22.9996   -1.5246    0.0000 H   0  0  0  0  0  0  0  0  0  0  0  0
  -21.7598   -3.0016    0.0000 C   0  0  0  0  0  0  0  0  0  0  0  0
  -21.0094   -1.7019    0.0000 C   0  0  0  0  0  0  0  0  0  0  0  0
  -21.7598   -0.4031    0.0000 H   0  0  0  0  0  0  0  0  0  0  0  0
  -19.5086   -1.7009    0.0000 C   0  0  0  0  0  0  0  0  0  0  0  0
  -18.7592   -0.4015    0.0000 H   0  0  0  0  0  0  0  0  0  0  0  0
  -18.7582   -2.9997    0.0000 C   0  0  0  0  0  0  0  0  0  0  0  0
  -19.5086   -4.2995    0.0000 C   0  0  0  0  0  0  0  0  0  0  0  0
  -18.7582   -5.5983    0.0000 H   0  0  0  0  0  0  0  0  0  0  0  0
  -21.0094   -4.3004    0.0000 C   0  0  0  0  0  0  0  0  0  0  0  0
  -21.7588   -5.5998    0.0000 H   0  0  0  0  0  0  0  0  0  0  0  0
  -17.2582   -2.9995    0.0000 S   0  0  0  0  0  0  0  0  0  0  0  0
  -17.5189   -1.5223    0.0000 O   0  0  0  0  0  0  0  0  0  0  0  0
  -15.8487   -2.4862    0.0000 O   0  0  0  0  0  0  0  0  0  0  0  0
  -16.5080   -4.2984    0.0000 N   0  0  0  0  0  0  0  0  0  0  0  0
  -17.2578   -5.5975    0.0000 H   0  0  0  0  0  0  0  0  0  0  0  0
  -15.0080   -4.2982    0.0000 C   0  0  0  0  0  0  0  0  0  0  0  0
  -14.2571   -5.5977    0.0000 C   0  0  0  0  0  0  0  0  0  0  0  0
  -15.0071   -6.8967    0.0000 H   0  0  0  0  0  0  0  0  0  0  0  0
  -12.7563   -5.5982    0.0000 C   0  0  0  0  0  0  0  0  0  0  0  0
  -12.0065   -6.8973    0.0000 H   0  0  0  0  0  0  0  0  0  0  0  0
  -12.0063   -4.2991    0.0000 C   0  0  0  0  0  0  0  0  0  0  0  0
  -12.7571   -2.9996    0.0000 C   0  0  0  0  0  0  0  0  0  0  0  0
  -12.0071   -1.7006    0.0000 H   0  0  0  0  0  0  0  0  0  0  0  0
  -14.2580   -2.9991    0.0000 C   0  0  0  0  0  0  0  0  0  0  0  0
  -15.0078   -1.7000    0.0000 H   0  0  0  0  0  0  0  0  0  0  0  0
  -10.5063   -4.2989    0.0000 C   0  0  0  0  0  0  0  0  0  0  0  0
   -9.7565   -2.9997    0.0000 O   0  0  0  0  0  0  0  0  0  0  0  0
   -9.7561   -5.5978    0.0000 C   0  0  0  0  0  0  0  0  0  0  0  0
  -10.5059   -6.8969    0.0000 H   0  0  0  0  0  0  0  0  0  0  0  0
   -8.2561   -5.5976    0.0000 C   0  0  0  0  0  0  0  0  0  0  0  0
   -7.5063   -4.2984    0.0000 H   0  0  0  0  0  0  0  0  0  0  0  0
   -7.5059   -6.8965    0.0000 C   0  0  0  0  0  0  0  0  0  0  0  0
   -6.3562   -5.9317    0.0000 C   0  0  0  0  0  0  0  0  0  0  0  0
   -6.6173   -4.4546    0.0000 H   0  0  0  0  0  0  0  0  0  0  0  0
   -4.9456   -6.4440    0.0000 C   0  0  0  0  0  0  0  0  0  0  0  0
   -3.7970   -5.4792    0.0000 H   0  0  0  0  0  0  0  0  0  0  0  0
   -4.6845   -7.9211    0.0000 C   0  0  0  0  0  0  0  0  0  0  0  0
   -3.2749   -8.4339    0.0000 O   0  0  0  0  0  0  0  0  0  0  0  0
   -5.8342   -8.8859    0.0000 C   0  0  0  0  0  0  0  0  0  0  0  0
   -5.5732  -10.3630    0.0000 H   0  0  0  0  0  0  0  0  0  0  0  0
   -7.2449   -8.3736    0.0000 C   0  0  0  0  0  0  0  0  0  0  0  0
   -8.3934   -9.3384    0.0000 H   0  0  0  0  0  0  0  0  0  0  0  0
   -8.9153   -7.4099    0.0000 O   0  0  0  0  0  0  0  0  0  0  0  0
   -9.1754   -8.8872    0.0000 H   0  0  0  0  0  0  0  0  0  0  0  0
  1  2  1  0  0  0  0 
  1  3  1  0  0  0  0 
  1  4  1  0  0  0  0 
  1  5  1  0  0  0  0 
  5  6  2  0  0  0  0 
  6  7  1  0  0  0  0 
  6  8  1  0  0  0  0 
  8  9  1  0  0  0  0 
  8 10  2  0  0  0  0 
 10 11  1  0  0  0  0 
 11 12  1  0  0  0  0 
 11 13  2  0  0  0  0 
  5 13  1  0  0  0  0 
 13 14  1  0  0  0  0 
 10 15  1  0  0  0  0 
 15 16  2  0  0  0  0 
 15 17  2  0  0  0  0 
 15 18  1  0  0  0  0 
 18 19  1  0  0  0  0 
 18 20  1  0  0  0  0 
 20 21  2  0  0  0  0 
 21 22  1  0  0  0  0 
 21 23  1  0  0  0  0 
 23 24  1  0  0  0  0 
 23 25  2  0  0  0  0 
 25 26  1  0  0  0  0 
 26 27  1  0  0  0  0 
 26 28  2  0  0  0  0 
 20 28  1  0  0  0  0 
 28 29  1  0  0  0  0 
 25 30  1  0  0  0  0 
 30 31  2  0  0  0  0 
 30 32  1  0  0  0  0 
 32 33  1  0  0  0  0 
 32 34  2  0  0  0  0 
 34 35  1  0  0  0  0 
 34 36  1  0  0  0  0 
 36 37  1  0  0  0  0 
 37 38  1  0  0  0  0 
 37 39  2  0  0  0  0 
 39 40  1  0  0  0  0 
 39 41  1  0  0  0  0 
 41 42  2  0  0  0  0 
 41 43  1  0  0  0  0 
 43 44  1  0  0  0  0 
 43 45  2  0  0  0  0 
 36 45  1  0  0  0  0 
 45 46  1  0  0  0  0 
 36 47  1  0  0  0  0 
 47 48  1  0  0  0  0 
M  END
> <Rank>
14

> <Priority_score>
0.072

> <Reaction_type>
oxidation of 4-substituted phenol to quinone (substituent not a leaving group)

> <Parent_ID>
61

> <Parent_InChI>
InChI=1S/C22H19NO4S/c1-16-2-13-21(14-3-16)28(26,27)23-19-9-7-18(8-10-19)22(25)15-6-17-4-11-20(24)12-5-17/h2-15,23-24H,1H3

> <Parent_SMILES>
Cc1ccc(S(=O)(=O)Nc2ccc(C(=O)/C=C/c3ccc(O)cc3)cc2)cc1

$$$$
Molecule 61_metabolite 17
  CDK     0516241031

 48 50  0  0  0  0  0  0  0  0999 V2000
  -14.6163   -3.5662    0.0000 C   0  0  0  0  0  0  0  0  0  0  0  0
  -14.6166   -2.0662    0.0000 H   0  0  0  0  0  0  0  0  0  0  0  0
  -16.0936   -3.3060    0.0000 H   0  0  0  0  0  0  0  0  0  0  0  0
  -15.1291   -4.9758    0.0000 H   0  0  0  0  0  0  0  0  0  0  0  0
  -13.3172   -4.3160    0.0000 C   0  0  0  0  0  0  0  0  0  0  0  0
  -13.3167   -5.8168    0.0000 C   0  0  0  0  0  0  0  0  0  0  0  0
  -14.6157   -6.5668    0.0000 H   0  0  0  0  0  0  0  0  0  0  0  0
  -12.0172   -6.5677    0.0000 C   0  0  0  0  0  0  0  0  0  0  0  0
  -12.0174   -8.0677    0.0000 H   0  0  0  0  0  0  0  0  0  0  0  0
  -10.7181   -5.8177    0.0000 C   0  0  0  0  0  0  0  0  0  0  0  0
  -10.7186   -4.3168    0.0000 C   0  0  0  0  0  0  0  0  0  0  0  0
   -9.4196   -3.5668    0.0000 H   0  0  0  0  0  0  0  0  0  0  0  0
  -12.0181   -3.5660    0.0000 C   0  0  0  0  0  0  0  0  0  0  0  0
  -12.0179   -2.0660    0.0000 H   0  0  0  0  0  0  0  0  0  0  0  0
   -9.4190   -6.5674    0.0000 S   0  0  0  0  0  0  0  0  0  0  0  0
  -10.3830   -7.7167    0.0000 O   0  0  0  0  0  0  0  0  0  0  0  0
   -8.4546   -7.7164    0.0000 O   0  0  0  0  0  0  0  0  0  0  0  0
   -8.1200   -5.8172    0.0000 N   0  0  0  0  0  0  0  0  0  0  0  0
   -8.1203   -4.3172    0.0000 H   0  0  0  0  0  0  0  0  0  0  0  0
   -6.8209   -6.5670    0.0000 C   0  0  0  0  0  0  0  0  0  0  0  0
   -5.5211   -5.8166    0.0000 C   0  0  0  0  0  0  0  0  0  0  0  0
   -5.5216   -4.3166    0.0000 H   0  0  0  0  0  0  0  0  0  0  0  0
   -4.2209   -6.5662    0.0000 C   0  0  0  0  0  0  0  0  0  0  0  0
   -2.9222   -5.8156    0.0000 H   0  0  0  0  0  0  0  0  0  0  0  0
   -4.2204   -8.0662    0.0000 C   0  0  0  0  0  0  0  0  0  0  0  0
   -5.5202   -8.8166    0.0000 C   0  0  0  0  0  0  0  0  0  0  0  0
   -5.5197  -10.3166    0.0000 H   0  0  0  0  0  0  0  0  0  0  0  0
   -6.8204   -8.0670    0.0000 C   0  0  0  0  0  0  0  0  0  0  0  0
   -8.1191   -8.8177    0.0000 H   0  0  0  0  0  0  0  0  0  0  0  0
   -2.9212   -8.8160    0.0000 C   0  0  0  0  0  0  0  0  0  0  0  0
   -2.9210  -10.3160    0.0000 O   0  0  0  0  0  0  0  0  0  0  0  0
   -1.6223   -8.0658    0.0000 C   0  0  0  0  0  0  0  0  0  0  0  0
   -1.6226   -6.5658    0.0000 H   0  0  0  0  0  0  0  0  0  0  0  0
   -0.3232   -8.8156    0.0000 C   0  0  0  0  0  0  0  0  0  0  0  0
   -0.3229  -10.3156    0.0000 H   0  0  0  0  0  0  0  0  0  0  0  0
    0.9758   -8.0654    0.0000 C   0  0  0  0  0  0  0  0  0  0  0  0
    0.9758   -6.5645    0.0000 C   0  0  0  0  0  0  0  0  0  0  0  0
   -0.3235   -5.8149    0.0000 H   0  0  0  0  0  0  0  0  0  0  0  0
    2.2750   -5.8133    0.0000 C   0  0  0  0  0  0  0  0  0  0  0  0
    2.2743   -4.3133    0.0000 H   0  0  0  0  0  0  0  0  0  0  0  0
    3.5743   -6.5629    0.0000 C   0  0  0  0  0  0  0  0  0  0  0  0
    3.5743   -8.0637    0.0000 C   0  0  0  0  0  0  0  0  0  0  0  0
    4.8736   -8.8133    0.0000 H   0  0  0  0  0  0  0  0  0  0  0  0
    2.2750   -8.8149    0.0000 C   0  0  0  0  0  0  0  0  0  0  0  0
    2.2758  -10.3149    0.0000 O   0  0  0  0  0  0  0  0  0  0  0  0
    3.5751  -11.0643    0.0000 H   0  0  0  0  0  0  0  0  0  0  0  0
    4.8732   -5.8127    0.0000 O   0  0  0  0  0  0  0  0  0  0  0  0
    6.1724   -6.5624    0.0000 H   0  0  0  0  0  0  0  0  0  0  0  0
  1  2  1  0  0  0  0 
  1  3  1  0  0  0  0 
  1  4  1  0  0  0  0 
  1  5  1  0  0  0  0 
  5  6  2  0  0  0  0 
  6  7  1  0  0  0  0 
  6  8  1  0  0  0  0 
  8  9  1  0  0  0  0 
  8 10  2  0  0  0  0 
 10 11  1  0  0  0  0 
 11 12  1  0  0  0  0 
 11 13  2  0  0  0  0 
  5 13  1  0  0  0  0 
 13 14  1  0  0  0  0 
 10 15  1  0  0  0  0 
 15 16  2  0  0  0  0 
 15 17  2  0  0  0  0 
 15 18  1  0  0  0  0 
 18 19  1  0  0  0  0 
 18 20  1  0  0  0  0 
 20 21  2  0  0  0  0 
 21 22  1  0  0  0  0 
 21 23  1  0  0  0  0 
 23 24  1  0  0  0  0 
 23 25  2  0  0  0  0 
 25 26  1  0  0  0  0 
 26 27  1  0  0  0  0 
 26 28  2  0  0  0  0 
 20 28  1  0  0  0  0 
 28 29  1  0  0  0  0 
 25 30  1  0  0  0  0 
 30 31  2  0  0  0  0 
 30 32  1  0  0  0  0 
 32 33  1  0  0  0  0 
 32 34  2  0  0  0  0 
 34 35  1  0  0  0  0 
 34 36  1  0  0  0  0 
 36 37  2  0  0  0  0 
 37 38  1  0  0  0  0 
 37 39  1  0  0  0  0 
 39 40  1  0  0  0  0 
 39 41  2  0  0  0  0 
 41 42  1  0  0  0  0 
 42 43  1  0  0  0  0 
 42 44  2  0  0  0  0 
 36 44  1  0  0  0  0 
 44 45  1  0  0  0  0 
 45 46  1  0  0  0  0 
 41 47  1  0  0  0  0 
 47 48  1  0  0  0  0 
M  END
> <Rank>
17

> <Priority_score>
0.052

> <Reaction_type>
aromatic hydroxylation

> <Parent_ID>
61

> <Parent_InChI>
InChI=1S/C22H19NO4S/c1-16-2-13-21(14-3-16)28(26,27)23-19-9-7-18(8-10-19)22(25)15-6-17-4-11-20(24)12-5-17/h2-15,23-24H,1H3

> <Parent_SMILES>
Cc1ccc(S(=O)(=O)Nc2ccc(C(=O)/C=C/c3ccc(O)cc3)cc2)cc1

$$$$
Molecule 61_metabolite 18
  CDK     0516241031

 48 50  0  0  0  0  0  0  0  0999 V2000
  -13.6584   -4.1535    0.0000 C   0  0  0  0  0  0  0  0  0  0  0  0
  -13.6586   -2.6535    0.0000 H   0  0  0  0  0  0  0  0  0  0  0  0
  -15.1356   -3.8933    0.0000 H   0  0  0  0  0  0  0  0  0  0  0  0
  -14.1712   -5.5631    0.0000 H   0  0  0  0  0  0  0  0  0  0  0  0
  -12.3592   -4.9033    0.0000 C   0  0  0  0  0  0  0  0  0  0  0  0
  -12.3587   -6.4041    0.0000 C   0  0  0  0  0  0  0  0  0  0  0  0
  -13.6578   -7.1541    0.0000 H   0  0  0  0  0  0  0  0  0  0  0  0
  -11.0592   -7.1550    0.0000 C   0  0  0  0  0  0  0  0  0  0  0  0
  -11.0595   -8.6550    0.0000 H   0  0  0  0  0  0  0  0  0  0  0  0
   -9.7602   -6.4050    0.0000 C   0  0  0  0  0  0  0  0  0  0  0  0
   -9.7607   -4.9041    0.0000 C   0  0  0  0  0  0  0  0  0  0  0  0
   -8.4616   -4.1541    0.0000 H   0  0  0  0  0  0  0  0  0  0  0  0
  -11.0602   -4.1533    0.0000 C   0  0  0  0  0  0  0  0  0  0  0  0
  -11.0599   -2.6533    0.0000 H   0  0  0  0  0  0  0  0  0  0  0  0
   -8.4610   -7.1548    0.0000 S   0  0  0  0  0  0  0  0  0  0  0  0
   -9.7599   -7.9050    0.0000 O   0  0  0  0  0  0  0  0  0  0  0  0
   -8.4608   -8.6548    0.0000 O   0  0  0  0  0  0  0  0  0  0  0  0
   -7.1619   -7.9045    0.0000 O   0  0  0  0  0  0  0  0  0  0  0  0
   -7.1621   -6.4045    0.0000 N   0  0  0  0  0  0  0  0  0  0  0  0
   -7.1623   -4.9045    0.0000 H   0  0  0  0  0  0  0  0  0  0  0  0
   -5.8630   -7.1543    0.0000 C   0  0  0  0  0  0  0  0  0  0  0  0
   -4.5632   -6.4039    0.0000 C   0  0  0  0  0  0  0  0  0  0  0  0
   -4.5637   -4.9039    0.0000 H   0  0  0  0  0  0  0  0  0  0  0  0
   -3.2630   -7.1535    0.0000 C   0  0  0  0  0  0  0  0  0  0  0  0
   -1.9643   -6.4029    0.0000 H   0  0  0  0  0  0  0  0  0  0  0  0
   -3.2625   -8.6535    0.0000 C   0  0  0  0  0  0  0  0  0  0  0  0
   -4.5622   -9.4039    0.0000 C   0  0  0  0  0  0  0  0  0  0  0  0
   -4.5617  -10.9039    0.0000 H   0  0  0  0  0  0  0  0  0  0  0  0
   -5.8625   -8.6543    0.0000 C   0  0  0  0  0  0  0  0  0  0  0  0
   -7.1611   -9.4050    0.0000 H   0  0  0  0  0  0  0  0  0  0  0  0
   -1.9633   -9.4033    0.0000 C   0  0  0  0  0  0  0  0  0  0  0  0
   -1.9631  -10.9033    0.0000 O   0  0  0  0  0  0  0  0  0  0  0  0
   -0.6644   -8.6531    0.0000 C   0  0  0  0  0  0  0  0  0  0  0  0
   -0.6646   -7.1531    0.0000 H   0  0  0  0  0  0  0  0  0  0  0  0
    0.6348   -9.4029    0.0000 C   0  0  0  0  0  0  0  0  0  0  0  0
    0.6350  -10.9029    0.0000 H   0  0  0  0  0  0  0  0  0  0  0  0
    1.9337   -8.6527    0.0000 C   0  0  0  0  0  0  0  0  0  0  0  0
    1.9261   -7.1527    0.0000 C   0  0  0  0  0  0  0  0  0  0  0  0
    0.6196   -6.4157    0.0000 H   0  0  0  0  0  0  0  0  0  0  0  0
    3.1922   -6.3962    0.0000 C   0  0  0  0  0  0  0  0  0  0  0  0
    3.1649   -4.8965    0.0000 H   0  0  0  0  0  0  0  0  0  0  0  0
    4.5460   -7.1394    0.0000 C   0  0  0  0  0  0  0  0  0  0  0  0
    4.5536   -8.6394    0.0000 C   0  0  0  0  0  0  0  0  0  0  0  0
    5.8503   -9.3935    0.0000 H   0  0  0  0  0  0  0  0  0  0  0  0
    3.2075   -9.3962    0.0000 C   0  0  0  0  0  0  0  0  0  0  0  0
    3.1953  -10.8962    0.0000 H   0  0  0  0  0  0  0  0  0  0  0  0
    5.8349   -6.3721    0.0000 O   0  0  0  0  0  0  0  0  0  0  0  0
    7.1439   -7.1047    0.0000 H   0  0  0  0  0  0  0  0  0  0  0  0
  1  2  1  0  0  0  0 
  1  3  1  0  0  0  0 
  1  4  1  0  0  0  0 
  1  5  1  0  0  0  0 
  5  6  2  0  0  0  0 
  6  7  1  0  0  0  0 
  6  8  1  0  0  0  0 
  8  9  1  0  0  0  0 
  8 10  2  0  0  0  0 
 10 11  1  0  0  0  0 
 11 12  1  0  0  0  0 
 11 13  2  0  0  0  0 
  5 13  1  0  0  0  0 
 13 14  1  0  0  0  0 
 10 15  1  0  0  0  0 
 15 16  2  0  0  0  0 
 15 17  2  0  0  0  0 
 15 18  2  0  0  0  0 
 15 19  1  0  0  0  0 
 19 20  1  0  0  0  0 
 19 21  1  0  0  0  0 
 21 22  2  0  0  0  0 
 22 23  1  0  0  0  0 
 22 24  1  0  0  0  0 
 24 25  1  0  0  0  0 
 24 26  2  0  0  0  0 
 26 27  1  0  0  0  0 
 27 28  1  0  0  0  0 
 27 29  2  0  0  0  0 
 21 29  1  0  0  0  0 
 29 30  1  0  0  0  0 
 26 31  1  0  0  0  0 
 31 32  2  0  0  0  0 
 31 33  1  0  0  0  0 
 33 34  1  0  0  0  0 
 33 35  2  0  0  0  0 
 35 36  1  0  0  0  0 
 35 37  1  0  0  0  0 
 37 38  2  0  0  0  0 
 38 39  1  0  0  0  0 
 38 40  1  0  0  0  0 
 40 41  1  0  0  0  0 
 40 42  2  0  0  0  0 
 42 43  1  0  0  0  0 
 43 44  1  0  0  0  0 
 43 45  2  0  0  0  0 
 37 45  1  0  0  0  0 
 45 46  1  0  0  0  0 
 42 47  1  0  0  0  0 
 47 48  1  0  0  0  0 
M  END
> <Rank>
17

> <Priority_score>
0.052

> <Reaction_type>
S-oxidation

> <Parent_ID>
61

> <Parent_InChI>
InChI=1S/C22H19NO4S/c1-16-2-13-21(14-3-16)28(26,27)23-19-9-7-18(8-10-19)22(25)15-6-17-4-11-20(24)12-5-17/h2-15,23-24H,1H3

> <Parent_SMILES>
Cc1ccc(S(=O)(=O)Nc2ccc(C(=O)/C=C/c3ccc(O)cc3)cc2)cc1

$$$$
Molecule 61_metabolite 19
  CDK     0516241031

 48 50  0  0  0  0  0  0  0  0999 V2000
  -13.6584   -4.1535    0.0000 C   0  0  0  0  0  0  0  0  0  0  0  0
  -13.6586   -2.6535    0.0000 H   0  0  0  0  0  0  0  0  0  0  0  0
  -15.1356   -3.8933    0.0000 H   0  0  0  0  0  0  0  0  0  0  0  0
  -14.1712   -5.5631    0.0000 H   0  0  0  0  0  0  0  0  0  0  0  0
  -12.3592   -4.9033    0.0000 C   0  0  0  0  0  0  0  0  0  0  0  0
  -12.3587   -6.4041    0.0000 C   0  0  0  0  0  0  0  0  0  0  0  0
  -13.6578   -7.1541    0.0000 H   0  0  0  0  0  0  0  0  0  0  0  0
  -11.0592   -7.1550    0.0000 C   0  0  0  0  0  0  0  0  0  0  0  0
  -11.0595   -8.6550    0.0000 H   0  0  0  0  0  0  0  0  0  0  0  0
   -9.7602   -6.4050    0.0000 C   0  0  0  0  0  0  0  0  0  0  0  0
   -9.7607   -4.9041    0.0000 C   0  0  0  0  0  0  0  0  0  0  0  0
   -8.4616   -4.1541    0.0000 H   0  0  0  0  0  0  0  0  0  0  0  0
  -11.0602   -4.1533    0.0000 C   0  0  0  0  0  0  0  0  0  0  0  0
  -11.0599   -2.6533    0.0000 H   0  0  0  0  0  0  0  0  0  0  0  0
   -8.4610   -7.1548    0.0000 S   0  0  0  0  0  0  0  0  0  0  0  0
   -9.4250   -8.3040    0.0000 O   0  0  0  0  0  0  0  0  0  0  0  0
   -7.4967   -8.3037    0.0000 O   0  0  0  0  0  0  0  0  0  0  0  0
   -7.1621   -6.4045    0.0000 N   0  0  0  0  0  0  0  0  0  0  0  0
   -7.1623   -4.9045    0.0000 H   0  0  0  0  0  0  0  0  0  0  0  0
   -5.8630   -7.1543    0.0000 C   0  0  0  0  0  0  0  0  0  0  0  0
   -4.5632   -6.4039    0.0000 C   0  0  0  0  0  0  0  0  0  0  0  0
   -4.5637   -4.9039    0.0000 H   0  0  0  0  0  0  0  0  0  0  0  0
   -3.2630   -7.1535    0.0000 C   0  0  0  0  0  0  0  0  0  0  0  0
   -1.9643   -6.4029    0.0000 H   0  0  0  0  0  0  0  0  0  0  0  0
   -3.2625   -8.6535    0.0000 C   0  0  0  0  0  0  0  0  0  0  0  0
   -1.9633   -9.4033    0.0000 C   0  0  0  0  0  0  0  0  0  0  0  0
   -1.9631  -10.9033    0.0000 O   0  0  0  0  0  0  0  0  0  0  0  0
   -0.6644   -8.6531    0.0000 C   0  0  0  0  0  0  0  0  0  0  0  0
   -0.6646   -7.1531    0.0000 H   0  0  0  0  0  0  0  0  0  0  0  0
    0.6348   -9.4029    0.0000 C   0  0  0  0  0  0  0  0  0  0  0  0
    0.6350  -10.9029    0.0000 H   0  0  0  0  0  0  0  0  0  0  0  0
    1.9337   -8.6527    0.0000 C   0  0  0  0  0  0  0  0  0  0  0  0
    1.9261   -7.1527    0.0000 C   0  0  0  0  0  0  0  0  0  0  0  0
    0.6196   -6.4157    0.0000 H   0  0  0  0  0  0  0  0  0  0  0  0
    3.1922   -6.3962    0.0000 C   0  0  0  0  0  0  0  0  0  0  0  0
    3.1649   -4.8965    0.0000 H   0  0  0  0  0  0  0  0  0  0  0  0
    4.5460   -7.1394    0.0000 C   0  0  0  0  0  0  0  0  0  0  0  0
    4.5536   -8.6394    0.0000 C   0  0  0  0  0  0  0  0  0  0  0  0
    5.8503   -9.3935    0.0000 H   0  0  0  0  0  0  0  0  0  0  0  0
    3.2075   -9.3962    0.0000 C   0  0  0  0  0  0  0  0  0  0  0  0
    3.1953  -10.8962    0.0000 H   0  0  0  0  0  0  0  0  0  0  0  0
    5.8349   -6.3721    0.0000 O   0  0  0  0  0  0  0  0  0  0  0  0
    7.1439   -7.1047    0.0000 H   0  0  0  0  0  0  0  0  0  0  0  0
   -4.5622   -9.4039    0.0000 C   0  0  0  0  0  0  0  0  0  0  0  0
   -5.8625   -8.6543    0.0000 C   0  0  0  0  0  0  0  0  0  0  0  0
   -7.1611   -9.4050    0.0000 H   0  0  0  0  0  0  0  0  0  0  0  0
   -4.5617  -10.9039    0.0000 O   0  0  0  0  0  0  0  0  0  0  0  0
   -5.8605  -11.6543    0.0000 H   0  0  0  0  0  0  0  0  0  0  0  0
  1  2  1  0  0  0  0 
  1  3  1  0  0  0  0 
  1  4  1  0  0  0  0 
  1  5  1  0  0  0  0 
  5  6  2  0  0  0  0 
  6  7  1  0  0  0  0 
  6  8  1  0  0  0  0 
  8  9  1  0  0  0  0 
  8 10  2  0  0  0  0 
 10 11  1  0  0  0  0 
 11 12  1  0  0  0  0 
 11 13  2  0  0  0  0 
  5 13  1  0  0  0  0 
 13 14  1  0  0  0  0 
 10 15  1  0  0  0  0 
 15 16  2  0  0  0  0 
 15 17  2  0  0  0  0 
 15 18  1  0  0  0  0 
 18 19  1  0  0  0  0 
 18 20  1  0  0  0  0 
 20 21  2  0  0  0  0 
 21 22  1  0  0  0  0 
 21 23  1  0  0  0  0 
 23 24  1  0  0  0  0 
 23 25  2  0  0  0  0 
 25 26  1  0  0  0  0 
 26 27  2  0  0  0  0 
 26 28  1  0  0  0  0 
 28 29  1  0  0  0  0 
 28 30  2  0  0  0  0 
 30 31  1  0  0  0  0 
 30 32  1  0  0  0  0 
 32 33  2  0  0  0  0 
 33 34  1  0  0  0  0 
 33 35  1  0  0  0  0 
 35 36  1  0  0  0  0 
 35 37  2  0  0  0  0 
 37 38  1  0  0  0  0 
 38 39  1  0  0  0  0 
 38 40  2  0  0  0  0 
 32 40  1  0  0  0  0 
 40 41  1  0  0  0  0 
 37 42  1  0  0  0  0 
 42 43  1  0  0  0  0 
 25 44  1  0  0  0  0 
 44 45  2  0  0  0  0 
 20 45  1  0  0  0  0 
 45 46  1  0  0  0  0 
 44 47  1  0  0  0  0 
 47 48  1  0  0  0  0 
M  END
> <Rank>
19

> <Priority_score>
0.012

> <Reaction_type>
aromatic hydroxylation

> <Parent_ID>
61

> <Parent_InChI>
InChI=1S/C22H19NO4S/c1-16-2-13-21(14-3-16)28(26,27)23-19-9-7-18(8-10-19)22(25)15-6-17-4-11-20(24)12-5-17/h2-15,23-24H,1H3

> <Parent_SMILES>
Cc1ccc(S(=O)(=O)Nc2ccc(C(=O)/C=C/c3ccc(O)cc3)cc2)cc1

$$$$
Molecule 62
  CDK     0516241031

 14 15  0  0  0  0  0  0  0  0999 V2000
    3.8989   -1.5002    0.0000 C   0  0  0  0  0  0  0  0  0  0  0  0
    2.6000   -0.7500    0.0000 C   0  0  0  0  0  0  0  0  0  0  0  0
    2.6000    0.7500    0.0000 C   0  0  0  0  0  0  0  0  0  0  0  0
    1.3000    1.5000    0.0000 C   0  0  0  0  0  0  0  0  0  0  0  0
   -0.0000    0.7500    0.0000 C   0  0  0  0  0  0  0  0  0  0  0  0
   -1.3000    1.5000    0.0000 C   0  0  0  0  0  0  0  0  0  0  0  0
   -2.6000    0.7500    0.0000 C   0  0  0  0  0  0  0  0  0  0  0  0
   -2.6000   -0.7500    0.0000 C   0  0  0  0  0  0  0  0  0  0  0  0
   -1.3000   -1.5000    0.0000 C   0  0  0  0  0  0  0  0  0  0  0  0
   -0.0000   -0.7500    0.0000 C   0  0  0  0  0  0  0  0  0  0  0  0
    1.3000   -1.5000    0.0000 N   0  0  0  0  0  0  0  0  0  0  0  0
   -1.3000   -3.0000    0.0000 O   0  0  0  0  0  0  0  0  0  0  0  0
   -3.8989   -1.5002    0.0000 Cl  0  0  0  0  0  0  0  0  0  0  0  0
   -1.3000    3.0000    0.0000 Cl  0  0  0  0  0  0  0  0  0  0  0  0
  1  2  1  0  0  0  0 
  2  3  2  0  0  0  0 
  3  4  1  0  0  0  0 
  4  5  2  0  0  0  0 
  5  6  1  0  0  0  0 
  6  7  2  0  0  0  0 
  7  8  1  0  0  0  0 
  8  9  2  0  0  0  0 
  9 10  1  0  0  0  0 
  5 10  1  0  0  0  0 
 10 11  2  0  0  0  0 
  2 11  1  0  0  0  0 
  9 12  1  0  0  0  0 
  8 13  1  0  0  0  0 
  6 14  1  0  0  0  0 
M  END
> <SMILES>
Cc1ccc2c(Cl)cc(Cl)c(O)c2n1

$$$$
Molecule 62_metabolite 1
  CDK     0516241031

 25 26  0  0  0  0  0  0  0  0999 V2000
    3.8989   -1.5002    0.0000 C   0  0  0  0  0  0  0  0  0  0  0  0
    5.1981   -0.7504    0.0000 H   0  0  0  0  0  0  0  0  0  0  0  0
    2.9346   -2.6491    0.0000 H   0  0  0  0  0  0  0  0  0  0  0  0
    4.8629   -2.6494    0.0000 H   0  0  0  0  0  0  0  0  0  0  0  0
    2.6000   -0.7500    0.0000 C   0  0  0  0  0  0  0  0  0  0  0  0
    2.6000    0.7500    0.0000 C   0  0  0  0  0  0  0  0  0  0  0  0
    3.8989    1.5002    0.0000 H   0  0  0  0  0  0  0  0  0  0  0  0
    1.3000    1.5000    0.0000 C   0  0  0  0  0  0  0  0  0  0  0  0
    1.3000    3.0000    0.0000 H   0  0  0  0  0  0  0  0  0  0  0  0
   -0.0000    0.7500    0.0000 C   0  0  0  0  0  0  0  0  0  0  0  0
   -1.3000    1.5000    0.0000 C   0  0  0  0  0  0  0  0  0  0  0  0
   -2.6000    0.7500    0.0000 C   0  0  0  0  0  0  0  0  0  0  0  0
   -3.8989    1.5002    0.0000 H   0  0  0  0  0  0  0  0  0  0  0  0
   -2.6000   -0.7500    0.0000 C   0  0  0  0  0  0  0  0  0  0  0  0
   -1.3000   -1.5000    0.0000 C   0  0  0  0  0  0  0  0  0  0  0  0
   -0.0000   -0.7500    0.0000 C   0  0  0  0  0  0  0  0  0  0  0  0
    1.3000   -1.5000    0.0000 N   0  0  0  0  0  0  0  0  0  0  0  0
   -1.3000   -3.0000    0.0000 O   0  0  0  0  0  0  0  0  0  0  0  0
   -2.5990   -3.7500    0.0000 S   0  0  0  0  0  0  0  0  0  0  0  0
   -3.1121   -2.3405    0.0000 O   0  0  0  0  0  0  0  0  0  0  0  0
   -4.0762   -4.0105    0.0000 O   0  0  0  0  0  0  0  0  0  0  0  0
   -2.5990   -5.2500    0.0000 O   0  0  0  0  0  0  0  0  0  0  0  0
   -3.8981   -6.0000    0.0000 H   0  0  0  0  0  0  0  0  0  0  0  0
   -3.8989   -1.5002    0.0000 Cl  0  0  0  0  0  0  0  0  0  0  0  0
   -1.3000    3.0000    0.0000 Cl  0  0  0  0  0  0  0  0  0  0  0  0
  1  2  1  0  0  0  0 
  1  3  1  0  0  0  0 
  1  4  1  0  0  0  0 
  1  5  1  0  0  0  0 
  5  6  2  0  0  0  0 
  6  7  1  0  0  0  0 
  6  8  1  0  0  0  0 
  8  9  1  0  0  0  0 
  8 10  2  0  0  0  0 
 10 11  1  0  0  0  0 
 11 12  2  0  0  0  0 
 12 13  1  0  0  0  0 
 12 14  1  0  0  0  0 
 14 15  2  0  0  0  0 
 15 16  1  0  0  0  0 
 10 16  1  0  0  0  0 
 16 17  2  0  0  0  0 
  5 17  1  0  0  0  0 
 15 18  1  0  0  0  0 
 18 19  1  0  0  0  0 
 19 20  2  0  0  0  0 
 19 21  2  0  0  0  0 
 19 22  1  0  0  0  0 
 22 23  1  0  0  0  0 
 14 24  1  0  0  0  0 
 11 25  1  0  0  0  0 
M  END
> <Rank>
1

> <Priority_score>
0.924

> <Reaction_type>
sulfation_(aromatic_hydroxyl)

> <Parent_ID>
62

> <Parent_InChI>
InChI=1S/C10H7Cl2NO/c1-5-2-3-6-7(11)4-8(12)10(14)9(6)13-5/h2-4,14H,1H3

> <Parent_SMILES>
Cc1ccc2c(Cl)cc(Cl)c(O)c2n1

$$$$
Molecule 62_metabolite 2
  CDK     0516241031

 41 43  0  0  0  0  0  0  0  0999 V2000
    4.2083   -1.1333    0.0000 C   0  0  0  0  0  0  0  0  0  0  0  0
    5.5075   -0.3835    0.0000 H   0  0  0  0  0  0  0  0  0  0  0  0
    3.2440   -2.2822    0.0000 H   0  0  0  0  0  0  0  0  0  0  0  0
    5.1723   -2.2825    0.0000 H   0  0  0  0  0  0  0  0  0  0  0  0
    2.9094   -0.3830    0.0000 C   0  0  0  0  0  0  0  0  0  0  0  0
    2.9094    1.1170    0.0000 C   0  0  0  0  0  0  0  0  0  0  0  0
    4.2083    1.8672    0.0000 H   0  0  0  0  0  0  0  0  0  0  0  0
    1.6094    1.8670    0.0000 C   0  0  0  0  0  0  0  0  0  0  0  0
    1.6094    3.3670    0.0000 H   0  0  0  0  0  0  0  0  0  0  0  0
    0.3094    1.1170    0.0000 C   0  0  0  0  0  0  0  0  0  0  0  0
   -0.9906    1.8670    0.0000 C   0  0  0  0  0  0  0  0  0  0  0  0
   -2.2906    1.1170    0.0000 C   0  0  0  0  0  0  0  0  0  0  0  0
   -3.5895    1.8672    0.0000 H   0  0  0  0  0  0  0  0  0  0  0  0
   -2.2906   -0.3830    0.0000 C   0  0  0  0  0  0  0  0  0  0  0  0
   -0.9906   -1.1330    0.0000 C   0  0  0  0  0  0  0  0  0  0  0  0
    0.3094   -0.3830    0.0000 C   0  0  0  0  0  0  0  0  0  0  0  0
    1.6094   -1.1330    0.0000 N   0  0  0  0  0  0  0  0  0  0  0  0
   -0.9906   -2.6330    0.0000 O   0  0  0  0  0  0  0  0  0  0  0  0
   -2.2896   -3.3830    0.0000 C   0  0  0  0  0  0  0  0  0  0  0  0
   -2.8059   -1.9747    0.0000 H   0  0  0  0  0  0  0  0  0  0  0  0
   -1.3345   -4.5266    0.0000 C   0  0  0  0  0  0  0  0  0  0  0  0
   -0.0378   -5.2807    0.0000 H   0  0  0  0  0  0  0  0  0  0  0  0
   -1.8604   -5.9561    0.0000 C   0  0  0  0  0  0  0  0  0  0  0  0
   -1.8699   -7.4561    0.0000 H   0  0  0  0  0  0  0  0  0  0  0  0
   -3.3454   -6.2061    0.0000 C   0  0  0  0  0  0  0  0  0  0  0  0
   -4.6475   -6.9508    0.0000 H   0  0  0  0  0  0  0  0  0  0  0  0
   -4.3005   -5.0625    0.0000 C   0  0  0  0  0  0  0  0  0  0  0  0
   -5.5977   -4.3093    0.0000 H   0  0  0  0  0  0  0  0  0  0  0  0
   -5.5769   -6.5762    0.0000 C   0  0  0  0  0  0  0  0  0  0  0  0
   -5.0673   -7.9870    0.0000 O   0  0  0  0  0  0  0  0  0  0  0  0
   -7.0535   -6.3122    0.0000 O   0  0  0  0  0  0  0  0  0  0  0  0
   -8.0204   -7.4589    0.0000 H   0  0  0  0  0  0  0  0  0  0  0  0
   -3.7835   -3.6536    0.0000 O   0  0  0  0  0  0  0  0  0  0  0  0
   -2.8407   -7.6187    0.0000 O   0  0  0  0  0  0  0  0  0  0  0  0
   -3.8117   -8.7620    0.0000 H   0  0  0  0  0  0  0  0  0  0  0  0
   -0.3845   -6.2238    0.0000 O   0  0  0  0  0  0  0  0  0  0  0  0
    0.1216   -7.6359    0.0000 H   0  0  0  0  0  0  0  0  0  0  0  0
   -0.3672   -3.3802    0.0000 O   0  0  0  0  0  0  0  0  0  0  0  0
    1.1093   -3.6446    0.0000 H   0  0  0  0  0  0  0  0  0  0  0  0
   -3.5895   -1.1333    0.0000 Cl  0  0  0  0  0  0  0  0  0  0  0  0
   -0.9906    3.3670    0.0000 Cl  0  0  0  0  0  0  0  0  0  0  0  0
  1  2  1  0  0  0  0 
  1  3  1  0  0  0  0 
  1  4  1  0  0  0  0 
  1  5  1  0  0  0  0 
  5  6  2  0  0  0  0 
  6  7  1  0  0  0  0 
  6  8  1  0  0  0  0 
  8  9  1  0  0  0  0 
  8 10  2  0  0  0  0 
 10 11  1  0  0  0  0 
 11 12  2  0  0  0  0 
 12 13  1  0  0  0  0 
 12 14  1  0  0  0  0 
 14 15  2  0  0  0  0 
 15 16  1  0  0  0  0 
 10 16  1  0  0  0  0 
 16 17  2  0  0  0  0 
  5 17  1  0  0  0  0 
 15 18  1  0  0  0  0 
 18 19  1  0  0  0  0 
 19 20  1  0  0  0  0 
 19 21  1  0  0  0  0 
 21 22  1  0  0  0  0 
 21 23  1  0  0  0  0 
 23 24  1  0  0  0  0 
 23 25  1  0  0  0  0 
 25 26  1  0  0  0  0 
 25 27  1  0  0  0  0 
 27 28  1  0  0  0  0 
 27 29  1  0  0  0  0 
 29 30  2  0  0  0  0 
 29 31  1  0  0  0  0 
 31 32  1  0  0  0  0 
 27 33  1  0  0  0  0 
 19 33  1  0  0  0  0 
 25 34  1  0  0  0  0 
 34 35  1  0  0  0  0 
 23 36  1  0  0  0  0 
 36 37  1  0  0  0  0 
 21 38  1  0  0  0  0 
 38 39  1  0  0  0  0 
 14 40  1  0  0  0  0 
 11 41  1  0  0  0  0 
M  END
> <Rank>
2

> <Priority_score>
0.764

> <Reaction_type>
O-glucuronidation_(aromatic_hydroxyl)

> <Parent_ID>
62

> <Parent_InChI>
InChI=1S/C10H7Cl2NO/c1-5-2-3-6-7(11)4-8(12)10(14)9(6)13-5/h2-4,14H,1H3

> <Parent_SMILES>
Cc1ccc2c(Cl)cc(Cl)c(O)c2n1

$$$$
Molecule 62_metabolite 3
  CDK     0516241031

 22 23  0  0  0  0  0  0  0  0999 V2000
    2.6000    0.7500    0.0000 C   0  0  0  0  0  0  0  0  0  0  0  0
    3.8989    1.5002    0.0000 H   0  0  0  0  0  0  0  0  0  0  0  0
    2.6000   -0.7500    0.0000 C   0  0  0  0  0  0  0  0  0  0  0  0
    3.8989   -1.5002    0.0000 C   0  0  0  0  0  0  0  0  0  0  0  0
    2.9346   -2.6491    0.0000 H   0  0  0  0  0  0  0  0  0  0  0  0
    4.8629   -2.6494    0.0000 H   0  0  0  0  0  0  0  0  0  0  0  0
    5.1981   -0.7504    0.0000 O   0  0  0  0  0  0  0  0  0  0  0  0
    6.4970   -1.5006    0.0000 H   0  0  0  0  0  0  0  0  0  0  0  0
    1.3000   -1.5000    0.0000 N   0  0  0  0  0  0  0  0  0  0  0  0
   -0.0000   -0.7500    0.0000 C   0  0  0  0  0  0  0  0  0  0  0  0
   -0.0000    0.7500    0.0000 C   0  0  0  0  0  0  0  0  0  0  0  0
    1.3000    1.5000    0.0000 C   0  0  0  0  0  0  0  0  0  0  0  0
    1.3000    3.0000    0.0000 H   0  0  0  0  0  0  0  0  0  0  0  0
   -1.3000    1.5000    0.0000 C   0  0  0  0  0  0  0  0  0  0  0  0
   -2.6000    0.7500    0.0000 C   0  0  0  0  0  0  0  0  0  0  0  0
   -3.8989    1.5002    0.0000 H   0  0  0  0  0  0  0  0  0  0  0  0
   -2.6000   -0.7500    0.0000 C   0  0  0  0  0  0  0  0  0  0  0  0
   -1.3000   -1.5000    0.0000 C   0  0  0  0  0  0  0  0  0  0  0  0
   -1.3000   -3.0000    0.0000 O   0  0  0  0  0  0  0  0  0  0  0  0
   -2.5990   -3.7500    0.0000 H   0  0  0  0  0  0  0  0  0  0  0  0
   -3.8989   -1.5002    0.0000 Cl  0  0  0  0  0  0  0  0  0  0  0  0
   -1.3000    3.0000    0.0000 Cl  0  0  0  0  0  0  0  0  0  0  0  0
  1  2  1  0  0  0  0 
  1  3  2  0  0  0  0 
  3  4  1  0  0  0  0 
  4  5  1  0  0  0  0 
  4  6  1  0  0  0  0 
  4  7  1  0  0  0  0 
  7  8  1  0  0  0  0 
  3  9  1  0  0  0  0 
  9 10  2  0  0  0  0 
 10 11  1  0  0  0  0 
 11 12  2  0  0  0  0 
  1 12  1  0  0  0  0 
 12 13  1  0  0  0  0 
 11 14  1  0  0  0  0 
 14 15  2  0  0  0  0 
 15 16  1  0  0  0  0 
 15 17  1  0  0  0  0 
 17 18  2  0  0  0  0 
 10 18  1  0  0  0  0 
 18 19  1  0  0  0  0 
 19 20  1  0  0  0  0 
 17 21  1  0  0  0  0 
 14 22  1  0  0  0  0 
M  END
> <Rank>
3

> <Priority_score>
0.54

> <Reaction_type>
benzylic_hydroxylation_(c-CH3)

> <Parent_ID>
62

> <Parent_InChI>
InChI=1S/C10H7Cl2NO/c1-5-2-3-6-7(11)4-8(12)10(14)9(6)13-5/h2-4,14H,1H3

> <Parent_SMILES>
Cc1ccc2c(Cl)cc(Cl)c(O)c2n1

$$$$
Molecule 62_metabolite 4
  CDK     0516241031

 21 22  0  0  0  0  0  0  0  0999 V2000
    1.3000    1.5000    0.0000 C   0  0  0  0  0  0  0  0  0  0  0  0
    1.3000    3.0000    0.0000 H   0  0  0  0  0  0  0  0  0  0  0  0
   -0.0000    0.7500    0.0000 C   0  0  0  0  0  0  0  0  0  0  0  0
   -1.3000    1.5000    0.0000 C   0  0  0  0  0  0  0  0  0  0  0  0
   -2.6000    0.7500    0.0000 C   0  0  0  0  0  0  0  0  0  0  0  0
   -3.8989    1.5002    0.0000 H   0  0  0  0  0  0  0  0  0  0  0  0
   -2.6000   -0.7500    0.0000 C   0  0  0  0  0  0  0  0  0  0  0  0
   -1.3000   -1.5000    0.0000 C   0  0  0  0  0  0  0  0  0  0  0  0
   -0.0000   -0.7500    0.0000 C   0  0  0  0  0  0  0  0  0  0  0  0
    1.3000   -1.5000    0.0000 N   0  0  0  0  0  0  0  0  0  0  0  0
    2.6000   -0.7500    0.0000 C   0  0  0  0  0  0  0  0  0  0  0  0
    2.6000    0.7500    0.0000 C   0  0  0  0  0  0  0  0  0  0  0  0
    3.8989    1.5002    0.0000 H   0  0  0  0  0  0  0  0  0  0  0  0
    3.8989   -1.5002    0.0000 C   0  0  0  0  0  0  0  0  0  0  0  0
    3.8987   -3.0002    0.0000 O   0  0  0  0  0  0  0  0  0  0  0  0
    5.1981   -0.7504    0.0000 O   0  0  0  0  0  0  0  0  0  0  0  0
    6.4970   -1.5006    0.0000 H   0  0  0  0  0  0  0  0  0  0  0  0
   -1.3000   -3.0000    0.0000 O   0  0  0  0  0  0  0  0  0  0  0  0
   -2.5990   -3.7500    0.0000 H   0  0  0  0  0  0  0  0  0  0  0  0
   -3.8989   -1.5002    0.0000 Cl  0  0  0  0  0  0  0  0  0  0  0  0
   -1.3000    3.0000    0.0000 Cl  0  0  0  0  0  0  0  0  0  0  0  0
  1  2  1  0  0  0  0 
  1  3  2  0  0  0  0 
  3  4  1  0  0  0  0 
  4  5  2  0  0  0  0 
  5  6  1  0  0  0  0 
  5  7  1  0  0  0  0 
  7  8  2  0  0  0  0 
  8  9  1  0  0  0  0 
  3  9  1  0  0  0  0 
  9 10  2  0  0  0  0 
 10 11  1  0  0  0  0 
 11 12  2  0  0  0  0 
  1 12  1  0  0  0  0 
 12 13  1  0  0  0  0 
 11 14  1  0  0  0  0 
 14 15  2  0  0  0  0 
 14 16  1  0  0  0  0 
 16 17  1  0  0  0  0 
  8 18  1  0  0  0  0 
 18 19  1  0  0  0  0 
  7 20  1  0  0  0  0 
  4 21  1  0  0  0  0 
M  END
> <Rank>
3

> <Priority_score>
0.54

> <Reaction_type>
carboxylation_(benzylic_CH3)

> <Parent_ID>
62

> <Parent_InChI>
InChI=1S/C10H7Cl2NO/c1-5-2-3-6-7(11)4-8(12)10(14)9(6)13-5/h2-4,14H,1H3

> <Parent_SMILES>
Cc1ccc2c(Cl)cc(Cl)c(O)c2n1

$$$$
Molecule 62_metabolite 5
  CDK     0516241031

 56 57  0  0  0  0  0  0  0  0999 V2000
    4.0631   -1.0492    0.0000 C   0  0  0  0  0  0  0  0  0  0  0  0
    5.3622   -0.2994    0.0000 H   0  0  0  0  0  0  0  0  0  0  0  0
    3.0987   -2.1981    0.0000 H   0  0  0  0  0  0  0  0  0  0  0  0
    5.0271   -2.1984    0.0000 H   0  0  0  0  0  0  0  0  0  0  0  0
    2.7642   -0.2989    0.0000 C   0  0  0  0  0  0  0  0  0  0  0  0
    2.7642    1.2011    0.0000 C   0  0  0  0  0  0  0  0  0  0  0  0
    4.0631    1.9513    0.0000 H   0  0  0  0  0  0  0  0  0  0  0  0
    1.4642    1.9511    0.0000 C   0  0  0  0  0  0  0  0  0  0  0  0
    1.4642    3.4511    0.0000 H   0  0  0  0  0  0  0  0  0  0  0  0
    0.1642    1.2011    0.0000 C   0  0  0  0  0  0  0  0  0  0  0  0
   -1.1358    1.9511    0.0000 C   0  0  0  0  0  0  0  0  0  0  0  0
   -2.4358    1.2011    0.0000 C   0  0  0  0  0  0  0  0  0  0  0  0
   -3.7347    1.9513    0.0000 H   0  0  0  0  0  0  0  0  0  0  0  0
   -2.4358   -0.2989    0.0000 C   0  0  0  0  0  0  0  0  0  0  0  0
   -1.1358   -1.0489    0.0000 C   0  0  0  0  0  0  0  0  0  0  0  0
    0.1642   -0.2989    0.0000 C   0  0  0  0  0  0  0  0  0  0  0  0
    1.4642   -1.0489    0.0000 N   0  0  0  0  0  0  0  0  0  0  0  0
   -1.1358   -2.5489    0.0000 O   0  0  0  0  0  0  0  0  0  0  0  0
   -2.4349   -3.2989    0.0000 H   0  0  0  0  0  0  0  0  0  0  0  0
   -3.7347   -1.0492    0.0000 Cl  0  0  0  0  0  0  0  0  0  0  0  0
   -1.1358    3.4511    0.0000 S   0  0  0  0  0  0  0  0  0  0  0  0
   -2.4349    4.2011    0.0000 C   0  0  0  0  0  0  0  0  0  0  0  0
   -3.9121    4.4615    0.0000 H   0  0  0  0  0  0  0  0  0  0  0  0
   -2.9479    2.7915    0.0000 H   0  0  0  0  0  0  0  0  0  0  0  0
   -2.4349    5.7011    0.0000 C   0  0  0  0  0  0  0  0  0  0  0  0
   -0.9577    5.4406    0.0000 H   0  0  0  0  0  0  0  0  0  0  0  0
   -1.9218    7.1106    0.0000 C   0  0  0  0  0  0  0  0  0  0  0  0
   -2.8860    8.2597    0.0000 O   0  0  0  0  0  0  0  0  0  0  0  0
   -0.4446    7.3711    0.0000 N   0  0  0  0  0  0  0  0  0  0  0  0
    0.5196    6.2220    0.0000 H   0  0  0  0  0  0  0  0  0  0  0  0
    0.0684    8.7806    0.0000 C   0  0  0  0  0  0  0  0  0  0  0  0
   -1.4088    9.0411    0.0000 H   0  0  0  0  0  0  0  0  0  0  0  0
    0.0684   10.2806    0.0000 H   0  0  0  0  0  0  0  0  0  0  0  0
    1.5456    9.0411    0.0000 C   0  0  0  0  0  0  0  0  0  0  0  0
    2.5098    7.8920    0.0000 O   0  0  0  0  0  0  0  0  0  0  0  0
    2.0586   10.4506    0.0000 O   0  0  0  0  0  0  0  0  0  0  0  0
    3.5359   10.7111    0.0000 H   0  0  0  0  0  0  0  0  0  0  0  0
   -3.7339    6.4511    0.0000 N   0  0  0  0  0  0  0  0  0  0  0  0
   -3.7339    7.9511    0.0000 H   0  0  0  0  0  0  0  0  0  0  0  0
   -5.0329    5.7011    0.0000 C   0  0  0  0  0  0  0  0  0  0  0  0
   -5.0329    4.2011    0.0000 O   0  0  0  0  0  0  0  0  0  0  0  0
   -6.3320    6.4511    0.0000 C   0  0  0  0  0  0  0  0  0  0  0  0
   -7.2962    7.6001    0.0000 H   0  0  0  0  0  0  0  0  0  0  0  0
   -5.3678    7.6001    0.0000 H   0  0  0  0  0  0  0  0  0  0  0  0
   -7.6310    5.7011    0.0000 C   0  0  0  0  0  0  0  0  0  0  0  0
   -6.6668    4.5520    0.0000 H   0  0  0  0  0  0  0  0  0  0  0  0
   -8.5952    4.5520    0.0000 H   0  0  0  0  0  0  0  0  0  0  0  0
   -8.9301    6.4511    0.0000 C   0  0  0  0  0  0  0  0  0  0  0  0
  -10.4073    6.7115    0.0000 H   0  0  0  0  0  0  0  0  0  0  0  0
   -8.9301    7.9511    0.0000 C   0  0  0  0  0  0  0  0  0  0  0  0
   -7.6310    8.7011    0.0000 O   0  0  0  0  0  0  0  0  0  0  0  0
  -10.2291    8.7011    0.0000 O   0  0  0  0  0  0  0  0  0  0  0  0
  -10.2291   10.2011    0.0000 H   0  0  0  0  0  0  0  0  0  0  0  0
   -9.6073    4.5905    0.0000 N   0  0  0  0  0  0  0  0  0  0  0  0
  -11.0845    4.3300    0.0000 H   0  0  0  0  0  0  0  0  0  0  0  0
   -8.6431    3.4414    0.0000 H   0  0  0  0  0  0  0  0  0  0  0  0
  1  2  1  0  0  0  0 
  1  3  1  0  0  0  0 
  1  4  1  0  0  0  0 
  1  5  1  0  0  0  0 
  5  6  2  0  0  0  0 
  6  7  1  0  0  0  0 
  6  8  1  0  0  0  0 
  8  9  1  0  0  0  0 
  8 10  2  0  0  0  0 
 10 11  1  0  0  0  0 
 11 12  2  0  0  0  0 
 12 13  1  0  0  0  0 
 12 14  1  0  0  0  0 
 14 15  2  0  0  0  0 
 15 16  1  0  0  0  0 
 10 16  1  0  0  0  0 
 16 17  2  0  0  0  0 
  5 17  1  0  0  0  0 
 15 18  1  0  0  0  0 
 18 19  1  0  0  0  0 
 14 20  1  0  0  0  0 
 11 21  1  0  0  0  0 
 21 22  1  0  0  0  0 
 22 23  1  0  0  0  0 
 22 24  1  0  0  0  0 
 22 25  1  0  0  0  0 
 25 26  1  0  0  0  0 
 25 27  1  0  0  0  0 
 27 28  2  0  0  0  0 
 27 29  1  0  0  0  0 
 29 30  1  0  0  0  0 
 29 31  1  0  0  0  0 
 31 32  1  0  0  0  0 
 31 33  1  0  0  0  0 
 31 34  1  0  0  0  0 
 34 35  2  0  0  0  0 
 34 36  1  0  0  0  0 
 36 37  1  0  0  0  0 
 25 38  1  0  0  0  0 
 38 39  1  0  0  0  0 
 38 40  1  0  0  0  0 
 40 41  2  0  0  0  0 
 40 42  1  0  0  0  0 
 42 43  1  0  0  0  0 
 42 44  1  0  0  0  0 
 42 45  1  0  0  0  0 
 45 46  1  0  0  0  0 
 45 47  1  0  0  0  0 
 45 48  1  0  0  0  0 
 48 49  1  0  0  0  0 
 48 50  1  0  0  0  0 
 50 51  2  0  0  0  0 
 50 52  1  0  0  0  0 
 52 53  1  0  0  0  0 
 48 54  1  0  0  0  0 
 54 55  1  0  0  0  0 
 54 56  1  0  0  0  0 
M  END
> <Rank>
5

> <Priority_score>
0.456

> <Reaction_type>
glutathione_conjugation_(aromatic_nucleophilic_substitution)

> <Parent_ID>
62

> <Parent_InChI>
InChI=1S/C10H7Cl2NO/c1-5-2-3-6-7(11)4-8(12)10(14)9(6)13-5/h2-4,14H,1H3

> <Parent_SMILES>
Cc1ccc2c(Cl)cc(Cl)c(O)c2n1

$$$$
Molecule 62_metabolite 6
  CDK     0516241031

 24 25  0  0  0  0  0  0  0  0999 V2000
    3.8989   -1.5002    0.0000 C   0  0  0  0  0  0  0  0  0  0  0  0
    5.1981   -0.7504    0.0000 H   0  0  0  0  0  0  0  0  0  0  0  0
    2.9346   -2.6491    0.0000 H   0  0  0  0  0  0  0  0  0  0  0  0
    4.8629   -2.6494    0.0000 H   0  0  0  0  0  0  0  0  0  0  0  0
    2.6000   -0.7500    0.0000 C   0  0  0  0  0  0  0  0  0  0  0  0
    2.6000    0.7500    0.0000 C   0  0  0  0  0  0  0  0  0  0  0  0
    3.8989    1.5002    0.0000 H   0  0  0  0  0  0  0  0  0  0  0  0
    1.3000    1.5000    0.0000 C   0  0  0  0  0  0  0  0  0  0  0  0
    1.3000    3.0000    0.0000 H   0  0  0  0  0  0  0  0  0  0  0  0
   -0.0000    0.7500    0.0000 C   0  0  0  0  0  0  0  0  0  0  0  0
   -1.3000    1.5000    0.0000 C   0  0  0  0  0  0  0  0  0  0  0  0
   -2.6000    0.7500    0.0000 C   0  0  0  0  0  0  0  0  0  0  0  0
   -3.8989    1.5002    0.0000 H   0  0  0  0  0  0  0  0  0  0  0  0
   -2.6000   -0.7500    0.0000 C   0  0  0  0  0  0  0  0  0  0  0  0
   -1.3000   -1.5000    0.0000 C   0  0  0  0  0  0  0  0  0  0  0  0
   -0.0000   -0.7500    0.0000 C   0  0  0  0  0  0  0  0  0  0  0  0
    1.3000   -1.5000    0.0000 N   0  0  0  0  0  0  0  0  0  0  0  0
   -1.3000   -3.0000    0.0000 O   0  0  0  0  0  0  0  0  0  0  0  0
   -2.5990   -3.7500    0.0000 C   0  0  0  0  0  0  0  0  0  0  0  0
   -2.5990   -5.2500    0.0000 H   0  0  0  0  0  0  0  0  0  0  0  0
   -3.1121   -2.3405    0.0000 H   0  0  0  0  0  0  0  0  0  0  0  0
   -4.0762   -4.0105    0.0000 H   0  0  0  0  0  0  0  0  0  0  0  0
   -3.8989   -1.5002    0.0000 Cl  0  0  0  0  0  0  0  0  0  0  0  0
   -1.3000    3.0000    0.0000 Cl  0  0  0  0  0  0  0  0  0  0  0  0
  1  2  1  0  0  0  0 
  1  3  1  0  0  0  0 
  1  4  1  0  0  0  0 
  1  5  1  0  0  0  0 
  5  6  2  0  0  0  0 
  6  7  1  0  0  0  0 
  6  8  1  0  0  0  0 
  8  9  1  0  0  0  0 
  8 10  2  0  0  0  0 
 10 11  1  0  0  0  0 
 11 12  2  0  0  0  0 
 12 13  1  0  0  0  0 
 12 14  1  0  0  0  0 
 14 15  2  0  0  0  0 
 15 16  1  0  0  0  0 
 10 16  1  0  0  0  0 
 16 17  2  0  0  0  0 
  5 17  1  0  0  0  0 
 15 18  1  0  0  0  0 
 18 19  1  0  0  0  0 
 19 20  1  0  0  0  0 
 19 21  1  0  0  0  0 
 19 22  1  0  0  0  0 
 14 23  1  0  0  0  0 
 11 24  1  0  0  0  0 
M  END
> <Rank>
6

> <Priority_score>
0.376

> <Reaction_type>
methylation_(aromatic_OH)

> <Parent_ID>
62

> <Parent_InChI>
InChI=1S/C10H7Cl2NO/c1-5-2-3-6-7(11)4-8(12)10(14)9(6)13-5/h2-4,14H,1H3

> <Parent_SMILES>
Cc1ccc2c(Cl)cc(Cl)c(O)c2n1

$$$$
Molecule 62_metabolite 7
  CDK     0516241031

 56 57  0  0  0  0  0  0  0  0999 V2000
    3.8989   -1.5002    0.0000 C   0  0  0  0  0  0  0  0  0  0  0  0
    5.1981   -0.7504    0.0000 H   0  0  0  0  0  0  0  0  0  0  0  0
    2.9346   -2.6491    0.0000 H   0  0  0  0  0  0  0  0  0  0  0  0
    4.8629   -2.6494    0.0000 H   0  0  0  0  0  0  0  0  0  0  0  0
    2.6000   -0.7500    0.0000 C   0  0  0  0  0  0  0  0  0  0  0  0
    2.6000    0.7500    0.0000 C   0  0  0  0  0  0  0  0  0  0  0  0
    3.8989    1.5002    0.0000 H   0  0  0  0  0  0  0  0  0  0  0  0
    1.3000    1.5000    0.0000 C   0  0  0  0  0  0  0  0  0  0  0  0
    1.3000    3.0000    0.0000 H   0  0  0  0  0  0  0  0  0  0  0  0
   -0.0000    0.7500    0.0000 C   0  0  0  0  0  0  0  0  0  0  0  0
   -1.3000    1.5000    0.0000 C   0  0  0  0  0  0  0  0  0  0  0  0
   -2.6000    0.7500    0.0000 C   0  0  0  0  0  0  0  0  0  0  0  0
   -3.8989    1.5002    0.0000 H   0  0  0  0  0  0  0  0  0  0  0  0
   -2.6000   -0.7500    0.0000 C   0  0  0  0  0  0  0  0  0  0  0  0
   -1.3000   -1.5000    0.0000 C   0  0  0  0  0  0  0  0  0  0  0  0
   -0.0000   -0.7500    0.0000 C   0  0  0  0  0  0  0  0  0  0  0  0
    1.3000   -1.5000    0.0000 N   0  0  0  0  0  0  0  0  0  0  0  0
   -1.3000   -3.0000    0.0000 O   0  0  0  0  0  0  0  0  0  0  0  0
   -2.5990   -3.7500    0.0000 H   0  0  0  0  0  0  0  0  0  0  0  0
   -3.8989   -1.5002    0.0000 S   0  0  0  0  0  0  0  0  0  0  0  0
   -5.1981   -0.7504    0.0000 C   0  0  0  0  0  0  0  0  0  0  0  0
   -4.2341    0.3988    0.0000 H   0  0  0  0  0  0  0  0  0  0  0  0
   -6.1624    0.3985    0.0000 H   0  0  0  0  0  0  0  0  0  0  0  0
   -6.4970   -1.5006    0.0000 C   0  0  0  0  0  0  0  0  0  0  0  0
   -7.4610   -2.6498    0.0000 H   0  0  0  0  0  0  0  0  0  0  0  0
   -5.5326   -2.6495    0.0000 C   0  0  0  0  0  0  0  0  0  0  0  0
   -4.0555   -2.3888    0.0000 O   0  0  0  0  0  0  0  0  0  0  0  0
   -6.0454   -4.0592    0.0000 N   0  0  0  0  0  0  0  0  0  0  0  0
   -7.5226   -4.3199    0.0000 H   0  0  0  0  0  0  0  0  0  0  0  0
   -5.0811   -5.2081    0.0000 C   0  0  0  0  0  0  0  0  0  0  0  0
   -4.1171   -4.0588    0.0000 H   0  0  0  0  0  0  0  0  0  0  0  0
   -3.7819   -5.9579    0.0000 H   0  0  0  0  0  0  0  0  0  0  0  0
   -5.5939   -6.6177    0.0000 C   0  0  0  0  0  0  0  0  0  0  0  0
   -7.0710   -6.8784    0.0000 O   0  0  0  0  0  0  0  0  0  0  0  0
   -4.6295   -7.7666    0.0000 O   0  0  0  0  0  0  0  0  0  0  0  0
   -5.1423   -9.1762    0.0000 H   0  0  0  0  0  0  0  0  0  0  0  0
   -7.7962   -0.7508    0.0000 N   0  0  0  0  0  0  0  0  0  0  0  0
   -7.7964    0.7492    0.0000 H   0  0  0  0  0  0  0  0  0  0  0  0
   -9.0951   -1.5010    0.0000 C   0  0  0  0  0  0  0  0  0  0  0  0
   -9.0948   -3.0010    0.0000 O   0  0  0  0  0  0  0  0  0  0  0  0
  -10.3942   -0.7512    0.0000 C   0  0  0  0  0  0  0  0  0  0  0  0
   -9.4302    0.3980    0.0000 H   0  0  0  0  0  0  0  0  0  0  0  0
  -11.3586    0.3977    0.0000 H   0  0  0  0  0  0  0  0  0  0  0  0
  -12.1088   -1.7415    0.0000 C   0  0  0  0  0  0  0  0  0  0  0  0
  -13.0728   -2.8907    0.0000 H   0  0  0  0  0  0  0  0  0  0  0  0
  -11.1444   -2.8904    0.0000 H   0  0  0  0  0  0  0  0  0  0  0  0
  -13.4080   -0.9917    0.0000 C   0  0  0  0  0  0  0  0  0  0  0  0
  -12.4440    0.1575    0.0000 H   0  0  0  0  0  0  0  0  0  0  0  0
  -14.7069   -1.7419    0.0000 C   0  0  0  0  0  0  0  0  0  0  0  0
  -14.7066   -3.2419    0.0000 O   0  0  0  0  0  0  0  0  0  0  0  0
  -16.0060   -0.9921    0.0000 O   0  0  0  0  0  0  0  0  0  0  0  0
  -17.3050   -1.7424    0.0000 H   0  0  0  0  0  0  0  0  0  0  0  0
  -14.3723    0.1572    0.0000 N   0  0  0  0  0  0  0  0  0  0  0  0
  -15.8495   -0.1035    0.0000 H   0  0  0  0  0  0  0  0  0  0  0  0
  -13.8595    1.5668    0.0000 H   0  0  0  0  0  0  0  0  0  0  0  0
   -1.3000    3.0000    0.0000 Cl  0  0  0  0  0  0  0  0  0  0  0  0
  1  2  1  0  0  0  0 
  1  3  1  0  0  0  0 
  1  4  1  0  0  0  0 
  1  5  1  0  0  0  0 
  5  6  2  0  0  0  0 
  6  7  1  0  0  0  0 
  6  8  1  0  0  0  0 
  8  9  1  0  0  0  0 
  8 10  2  0  0  0  0 
 10 11  1  0  0  0  0 
 11 12  2  0  0  0  0 
 12 13  1  0  0  0  0 
 12 14  1  0  0  0  0 
 14 15  2  0  0  0  0 
 15 16  1  0  0  0  0 
 10 16  1  0  0  0  0 
 16 17  2  0  0  0  0 
  5 17  1  0  0  0  0 
 15 18  1  0  0  0  0 
 18 19  1  0  0  0  0 
 14 20  1  0  0  0  0 
 20 21  1  0  0  0  0 
 21 22  1  0  0  0  0 
 21 23  1  0  0  0  0 
 21 24  1  0  0  0  0 
 24 25  1  0  0  0  0 
 24 26  1  0  0  0  0 
 26 27  2  0  0  0  0 
 26 28  1  0  0  0  0 
 28 29  1  0  0  0  0 
 28 30  1  0  0  0  0 
 30 31  1  0  0  0  0 
 30 32  1  0  0  0  0 
 30 33  1  0  0  0  0 
 33 34  2  0  0  0  0 
 33 35  1  0  0  0  0 
 35 36  1  0  0  0  0 
 24 37  1  0  0  0  0 
 37 38  1  0  0  0  0 
 37 39  1  0  0  0  0 
 39 40  2  0  0  0  0 
 39 41  1  0  0  0  0 
 41 42  1  0  0  0  0 
 41 43  1  0  0  0  0 
 41 44  1  0  0  0  0 
 44 45  1  0  0  0  0 
 44 46  1  0  0  0  0 
 44 47  1  0  0  0  0 
 47 48  1  0  0  0  0 
 47 49  1  0  0  0  0 
 49 50  2  0  0  0  0 
 49 51  1  0  0  0  0 
 51 52  1  0  0  0  0 
 47 53  1  0  0  0  0 
 53 54  1  0  0  0  0 
 53 55  1  0  0  0  0 
 11 56  1  0  0  0  0 
M  END
> <Rank>
7

> <Priority_score>
0.316

> <Reaction_type>
glutathione_conjugation_(aromatic_nucleophilic_substitution)

> <Parent_ID>
62

> <Parent_InChI>
InChI=1S/C10H7Cl2NO/c1-5-2-3-6-7(11)4-8(12)10(14)9(6)13-5/h2-4,14H,1H3

> <Parent_SMILES>
Cc1ccc2c(Cl)cc(Cl)c(O)c2n1

$$$$
Molecule 62_metabolite 8
  CDK     0516241031

 22 23  0  0  0  0  0  0  0  0999 V2000
    3.8989   -1.5002    0.0000 C   0  0  0  0  0  0  0  0  0  0  0  0
    5.1981   -0.7504    0.0000 H   0  0  0  0  0  0  0  0  0  0  0  0
    2.9346   -2.6491    0.0000 H   0  0  0  0  0  0  0  0  0  0  0  0
    4.8629   -2.6494    0.0000 H   0  0  0  0  0  0  0  0  0  0  0  0
    2.6000   -0.7500    0.0000 C   0  0  0  0  0  0  0  0  0  0  0  0
    2.6000    0.7500    0.0000 C   0  0  0  0  0  0  0  0  0  0  0  0
    3.8989    1.5002    0.0000 H   0  0  0  0  0  0  0  0  0  0  0  0
    1.3000    1.5000    0.0000 C   0  0  0  0  0  0  0  0  0  0  0  0
    1.3000    3.0000    0.0000 H   0  0  0  0  0  0  0  0  0  0  0  0
   -0.0000    0.7500    0.0000 C   0  0  0  0  0  0  0  0  0  0  0  0
   -1.3000    1.5000    0.0000 C   0  0  0  0  0  0  0  0  0  0  0  0
   -2.6000    0.7500    0.0000 C   0  0  0  0  0  0  0  0  0  0  0  0
   -2.6000   -0.7500    0.0000 C   0  0  0  0  0  0  0  0  0  0  0  0
   -1.3000   -1.5000    0.0000 C   0  0  0  0  0  0  0  0  0  0  0  0
   -0.0000   -0.7500    0.0000 C   0  0  0  0  0  0  0  0  0  0  0  0
    1.3000   -1.5000    0.0000 N   0  0  0  0  0  0  0  0  0  0  0  0
   -1.3000   -3.0000    0.0000 O   0  0  0  0  0  0  0  0  0  0  0  0
   -2.5990   -3.7500    0.0000 H   0  0  0  0  0  0  0  0  0  0  0  0
   -3.8989   -1.5002    0.0000 Cl  0  0  0  0  0  0  0  0  0  0  0  0
   -3.8989    1.5002    0.0000 O   0  0  0  0  0  0  0  0  0  0  0  0
   -5.1981    0.7504    0.0000 H   0  0  0  0  0  0  0  0  0  0  0  0
   -1.3000    3.0000    0.0000 Cl  0  0  0  0  0  0  0  0  0  0  0  0
  1  2  1  0  0  0  0 
  1  3  1  0  0  0  0 
  1  4  1  0  0  0  0 
  1  5  1  0  0  0  0 
  5  6  2  0  0  0  0 
  6  7  1  0  0  0  0 
  6  8  1  0  0  0  0 
  8  9  1  0  0  0  0 
  8 10  2  0  0  0  0 
 10 11  1  0  0  0  0 
 11 12  2  0  0  0  0 
 12 13  1  0  0  0  0 
 13 14  2  0  0  0  0 
 14 15  1  0  0  0  0 
 10 15  1  0  0  0  0 
 15 16  2  0  0  0  0 
  5 16  1  0  0  0  0 
 14 17  1  0  0  0  0 
 17 18  1  0  0  0  0 
 13 19  1  0  0  0  0 
 12 20  1  0  0  0  0 
 20 21  1  0  0  0  0 
 11 22  1  0  0  0  0 
M  END
> <Rank>
8

> <Priority_score>
0.16

> <Reaction_type>
aromatic_hydroxylation_(para_to_nitrogen)

> <Parent_ID>
62

> <Parent_InChI>
InChI=1S/C10H7Cl2NO/c1-5-2-3-6-7(11)4-8(12)10(14)9(6)13-5/h2-4,14H,1H3

> <Parent_SMILES>
Cc1ccc2c(Cl)cc(Cl)c(O)c2n1

$$$$
Molecule 62_metabolite 9
  CDK     0516241031

 22 23  0  0  0  0  0  0  0  0999 V2000
    3.8989   -1.5002    0.0000 C   0  0  0  0  0  0  0  0  0  0  0  0
    5.1981   -0.7504    0.0000 H   0  0  0  0  0  0  0  0  0  0  0  0
    2.9346   -2.6491    0.0000 H   0  0  0  0  0  0  0  0  0  0  0  0
    4.8629   -2.6494    0.0000 H   0  0  0  0  0  0  0  0  0  0  0  0
    2.6000   -0.7500    0.0000 C   0  0  0  0  0  0  0  0  0  0  0  0
    2.6000    0.7500    0.0000 C   0  0  0  0  0  0  0  0  0  0  0  0
    3.8989    1.5002    0.0000 H   0  0  0  0  0  0  0  0  0  0  0  0
    1.3000    1.5000    0.0000 C   0  0  0  0  0  0  0  0  0  0  0  0
    1.3000    3.0000    0.0000 H   0  0  0  0  0  0  0  0  0  0  0  0
   -0.0000    0.7500    0.0000 C   0  0  0  0  0  0  0  0  0  0  0  0
   -1.3000    1.5000    0.0000 C   0  0  0  0  0  0  0  0  0  0  0  0
   -2.6000    0.7500    0.0000 C   0  0  0  0  0  0  0  0  0  0  0  0
   -3.8989    1.5002    0.0000 H   0  0  0  0  0  0  0  0  0  0  0  0
   -2.6000   -0.7500    0.0000 C   0  0  0  0  0  0  0  0  0  0  0  0
   -1.3000   -1.5000    0.0000 C   0  0  0  0  0  0  0  0  0  0  0  0
   -0.0000   -0.7500    0.0000 C   0  0  0  0  0  0  0  0  0  0  0  0
    1.3000   -1.5000    0.0000 N   0  0  0  0  0  0  0  0  0  0  0  0
    1.3000   -3.0000    0.0000 O   0  0  0  0  0  0  0  0  0  0  0  0
   -1.3000   -3.0000    0.0000 O   0  0  0  0  0  0  0  0  0  0  0  0
   -2.5990   -3.7500    0.0000 H   0  0  0  0  0  0  0  0  0  0  0  0
   -3.8989   -1.5002    0.0000 Cl  0  0  0  0  0  0  0  0  0  0  0  0
   -1.3000    3.0000    0.0000 Cl  0  0  0  0  0  0  0  0  0  0  0  0
  1  2  1  0  0  0  0 
  1  3  1  0  0  0  0 
  1  4  1  0  0  0  0 
  1  5  1  0  0  0  0 
  5  6  2  0  0  0  0 
  6  7  1  0  0  0  0 
  6  8  1  0  0  0  0 
  8  9  1  0  0  0  0 
  8 10  2  0  0  0  0 
 10 11  1  0  0  0  0 
 11 12  2  0  0  0  0 
 12 13  1  0  0  0  0 
 12 14  1  0  0  0  0 
 14 15  2  0  0  0  0 
 15 16  1  0  0  0  0 
 10 16  1  0  0  0  0 
 16 17  2  0  0  0  0 
  5 17  1  0  0  0  0 
 17 18  1  0  0  0  0 
 15 19  1  0  0  0  0 
 19 20  1  0  0  0  0 
 14 21  1  0  0  0  0 
 11 22  1  0  0  0  0 
M  CHG  1  17   1
M  CHG  1  18  -1
M  END
> <Rank>
9

> <Priority_score>
0.1593712226226781

> <Reaction_type>
N-oxidation_(-N=)

> <Parent_ID>
62

> <Parent_InChI>
InChI=1S/C10H7Cl2NO/c1-5-2-3-6-7(11)4-8(12)10(14)9(6)13-5/h2-4,14H,1H3

> <Parent_SMILES>
Cc1ccc2c(Cl)cc(Cl)c(O)c2n1

$$$$
Molecule 62_metabolite 10
  CDK     0516241031

 22 23  0  0  0  0  0  0  0  0999 V2000
    3.8989   -1.5002    0.0000 C   0  0  0  0  0  0  0  0  0  0  0  0
    5.1981   -0.7504    0.0000 H   0  0  0  0  0  0  0  0  0  0  0  0
    2.9346   -2.6491    0.0000 H   0  0  0  0  0  0  0  0  0  0  0  0
    4.8629   -2.6494    0.0000 H   0  0  0  0  0  0  0  0  0  0  0  0
    2.6000   -0.7500    0.0000 C   0  0  0  0  0  0  0  0  0  0  0  0
    1.3000   -1.5000    0.0000 N   0  0  0  0  0  0  0  0  0  0  0  0
   -0.0000   -0.7500    0.0000 C   0  0  0  0  0  0  0  0  0  0  0  0
   -1.3000   -1.5000    0.0000 C   0  0  0  0  0  0  0  0  0  0  0  0
   -2.6000   -0.7500    0.0000 C   0  0  0  0  0  0  0  0  0  0  0  0
   -2.6000    0.7500    0.0000 C   0  0  0  0  0  0  0  0  0  0  0  0
   -3.8989    1.5002    0.0000 H   0  0  0  0  0  0  0  0  0  0  0  0
   -1.3000    1.5000    0.0000 C   0  0  0  0  0  0  0  0  0  0  0  0
   -0.0000    0.7500    0.0000 C   0  0  0  0  0  0  0  0  0  0  0  0
    1.3000    1.5000    0.0000 C   0  0  0  0  0  0  0  0  0  0  0  0
    1.3000    3.0000    0.0000 H   0  0  0  0  0  0  0  0  0  0  0  0
    2.6000    0.7500    0.0000 C   0  0  0  0  0  0  0  0  0  0  0  0
    3.8989    1.5002    0.0000 O   0  0  0  0  0  0  0  0  0  0  0  0
    5.1981    0.7504    0.0000 H   0  0  0  0  0  0  0  0  0  0  0  0
   -1.3000    3.0000    0.0000 Cl  0  0  0  0  0  0  0  0  0  0  0  0
   -3.8989   -1.5002    0.0000 Cl  0  0  0  0  0  0  0  0  0  0  0  0
   -1.3000   -3.0000    0.0000 O   0  0  0  0  0  0  0  0  0  0  0  0
   -2.5990   -3.7500    0.0000 H   0  0  0  0  0  0  0  0  0  0  0  0
  1  2  1  0  0  0  0 
  1  3  1  0  0  0  0 
  1  4  1  0  0  0  0 
  1  5  1  0  0  0  0 
  5  6  2  0  0  0  0 
  6  7  1  0  0  0  0 
  7  8  2  0  0  0  0 
  8  9  1  0  0  0  0 
  9 10  2  0  0  0  0 
 10 11  1  0  0  0  0 
 10 12  1  0  0  0  0 
 12 13  2  0  0  0  0 
  7 13  1  0  0  0  0 
 13 14  1  0  0  0  0 
 14 15  1  0  0  0  0 
 14 16  2  0  0  0  0 
  5 16  1  0  0  0  0 
 16 17  1  0  0  0  0 
 17 18  1  0  0  0  0 
 12 19  1  0  0  0  0 
  9 20  1  0  0  0  0 
  8 21  1  0  0  0  0 
 21 22  1  0  0  0  0 
M  END
> <Rank>
9

> <Priority_score>
0.1593712226226781

> <Reaction_type>
aromatic_hydroxylation_(para_to_carbon)

> <Parent_ID>
62

> <Parent_InChI>
InChI=1S/C10H7Cl2NO/c1-5-2-3-6-7(11)4-8(12)10(14)9(6)13-5/h2-4,14H,1H3

> <Parent_SMILES>
Cc1ccc2c(Cl)cc(Cl)c(O)c2n1

$$$$
Molecule 62_metabolite 11
  CDK     0516241031

 42 44  0  0  0  0  0  0  0  0999 V2000
    3.8989   -1.5002    0.0000 C   0  0  0  0  0  0  0  0  0  0  0  0
    3.8987   -3.0002    0.0000 H   0  0  0  0  0  0  0  0  0  0  0  0
    4.4122   -0.0908    0.0000 H   0  0  0  0  0  0  0  0  0  0  0  0
    5.3761   -1.7609    0.0000 H   0  0  0  0  0  0  0  0  0  0  0  0
    2.6000   -0.7500    0.0000 C   0  0  0  0  0  0  0  0  0  0  0  0
    2.6000    0.7500    0.0000 C   0  0  0  0  0  0  0  0  0  0  0  0
    3.8989    1.5002    0.0000 H   0  0  0  0  0  0  0  0  0  0  0  0
    1.3000    1.5000    0.0000 C   0  0  0  0  0  0  0  0  0  0  0  0
    1.3000    3.0000    0.0000 H   0  0  0  0  0  0  0  0  0  0  0  0
    0.0000    0.7500    0.0000 C   0  0  0  0  0  0  0  0  0  0  0  0
   -1.3000    1.5000    0.0000 C   0  0  0  0  0  0  0  0  0  0  0  0
   -2.6000    0.7500    0.0000 C   0  0  0  0  0  0  0  0  0  0  0  0
   -3.8989    1.5002    0.0000 H   0  0  0  0  0  0  0  0  0  0  0  0
   -2.6000   -0.7500    0.0000 C   0  0  0  0  0  0  0  0  0  0  0  0
   -1.3000   -1.5000    0.0000 C   0  0  0  0  0  0  0  0  0  0  0  0
    0.0000   -0.7500    0.0000 C   0  0  0  0  0  0  0  0  0  0  0  0
    1.3000   -1.5000    0.0000 N   0  0  0  0  0  0  0  0  0  0  0  0
    1.3000   -3.9600    0.0000 C   0  0  0  0  0  0  0  0  0  0  0  0
   -0.1772   -3.6997    0.0000 H   0  0  0  0  0  0  0  0  0  0  0  0
    0.7873   -5.3696    0.0000 C   0  0  0  0  0  0  0  0  0  0  0  0
   -0.5120   -4.6201    0.0000 H   0  0  0  0  0  0  0  0  0  0  0  0
    1.7526   -6.5188    0.0000 C   0  0  0  0  0  0  0  0  0  0  0  0
    0.4538   -7.2693    0.0000 H   0  0  0  0  0  0  0  0  0  0  0  0
    3.2307   -6.2584    0.0000 C   0  0  0  0  0  0  0  0  0  0  0  0
    3.2307   -7.7584    0.0000 H   0  0  0  0  0  0  0  0  0  0  0  0
    3.7434   -4.8487    0.0000 C   0  0  0  0  0  0  0  0  0  0  0  0
    5.0427   -5.5983    0.0000 H   0  0  0  0  0  0  0  0  0  0  0  0
    4.7071   -3.6993    0.0000 C   0  0  0  0  0  0  0  0  0  0  0  0
    4.4460   -2.2222    0.0000 O   0  0  0  0  0  0  0  0  0  0  0  0
    6.1844   -3.9591    0.0000 O   0  0  0  0  0  0  0  0  0  0  0  0
    6.6980   -5.3684    0.0000 H   0  0  0  0  0  0  0  0  0  0  0  0
    2.7781   -3.6995    0.0000 O   0  0  0  0  0  0  0  0  0  0  0  0
    4.7079   -6.5187    0.0000 O   0  0  0  0  0  0  0  0  0  0  0  0
    5.2211   -7.9282    0.0000 H   0  0  0  0  0  0  0  0  0  0  0  0
    2.2658   -7.9283    0.0000 O   0  0  0  0  0  0  0  0  0  0  0  0
    1.3017   -9.0775    0.0000 H   0  0  0  0  0  0  0  0  0  0  0  0
   -0.1764   -6.5191    0.0000 O   0  0  0  0  0  0  0  0  0  0  0  0
   -1.6537   -6.2593    0.0000 H   0  0  0  0  0  0  0  0  0  0  0  0
   -1.3000   -3.0000    0.0000 O   0  0  0  0  0  0  0  0  0  0  0  0
   -2.5990   -3.7500    0.0000 H   0  0  0  0  0  0  0  0  0  0  0  0
   -3.8989   -1.5002    0.0000 Cl  0  0  0  0  0  0  0  0  0  0  0  0
   -1.3000    3.0000    0.0000 Cl  0  0  0  0  0  0  0  0  0  0  0  0
  1  2  1  0  0  0  0 
  1  3  1  0  0  0  0 
  1  4  1  0  0  0  0 
  1  5  1  0  0  0  0 
  5  6  2  0  0  0  0 
  6  7  1  0  0  0  0 
  6  8  1  0  0  0  0 
  8  9  1  0  0  0  0 
  8 10  2  0  0  0  0 
 10 11  1  0  0  0  0 
 11 12  2  0  0  0  0 
 12 13  1  0  0  0  0 
 12 14  1  0  0  0  0 
 14 15  2  0  0  0  0 
 15 16  1  0  0  0  0 
 10 16  1  0  0  0  0 
 16 17  2  0  0  0  0 
  5 17  1  0  0  0  0 
 17 18  1  0  0  0  0 
 18 19  1  0  0  0  0 
 18 20  1  0  0  0  0 
 20 21  1  0  0  0  0 
 20 22  1  0  0  0  0 
 22 23  1  0  0  0  0 
 22 24  1  0  0  0  0 
 24 25  1  0  0  0  0 
 24 26  1  0  0  0  0 
 26 27  1  0  0  0  0 
 26 28  1  0  0  0  0 
 28 29  2  0  0  0  0 
 28 30  1  0  0  0  0 
 30 31  1  0  0  0  0 
 26 32  1  0  0  0  0 
 18 32  1  0  0  0  0 
 24 33  1  0  0  0  0 
 33 34  1  0  0  0  0 
 22 35  1  0  0  0  0 
 35 36  1  0  0  0  0 
 20 37  1  0  0  0  0 
 37 38  1  0  0  0  0 
 15 39  1  0  0  0  0 
 39 40  1  0  0  0  0 
 14 41  1  0  0  0  0 
 11 42  1  0  0  0  0 
M  CHG  1  17   1
M  END
> <Rank>
11

> <Priority_score>
0.14

> <Reaction_type>
N-glucuronidation_(aromatic_=n-)

> <Parent_ID>
62

> <Parent_InChI>
InChI=1S/C10H7Cl2NO/c1-5-2-3-6-7(11)4-8(12)10(14)9(6)13-5/h2-4,14H,1H3

> <Parent_SMILES>
Cc1ccc2c(Cl)cc(Cl)c(O)c2n1

$$$$
Molecule 62_metabolite 12
  CDK     0516241031

 22 23  0  0  0  0  0  0  0  0999 V2000
    3.8989   -1.5002    0.0000 C   0  0  0  0  0  0  0  0  0  0  0  0
    5.1981   -0.7504    0.0000 H   0  0  0  0  0  0  0  0  0  0  0  0
    2.9346   -2.6491    0.0000 H   0  0  0  0  0  0  0  0  0  0  0  0
    4.8629   -2.6494    0.0000 H   0  0  0  0  0  0  0  0  0  0  0  0
    2.6000   -0.7500    0.0000 C   0  0  0  0  0  0  0  0  0  0  0  0
    1.3000   -1.5000    0.0000 N   0  0  0  0  0  0  0  0  0  0  0  0
   -0.0000   -0.7500    0.0000 C   0  0  0  0  0  0  0  0  0  0  0  0
   -0.0000    0.7500    0.0000 C   0  0  0  0  0  0  0  0  0  0  0  0
   -1.3000    1.5000    0.0000 C   0  0  0  0  0  0  0  0  0  0  0  0
   -2.6000    0.7500    0.0000 C   0  0  0  0  0  0  0  0  0  0  0  0
   -3.8989    1.5002    0.0000 H   0  0  0  0  0  0  0  0  0  0  0  0
   -2.6000   -0.7500    0.0000 C   0  0  0  0  0  0  0  0  0  0  0  0
   -1.3000   -1.5000    0.0000 C   0  0  0  0  0  0  0  0  0  0  0  0
   -1.3000   -3.0000    0.0000 O   0  0  0  0  0  0  0  0  0  0  0  0
   -2.5990   -3.7500    0.0000 H   0  0  0  0  0  0  0  0  0  0  0  0
   -3.8989   -1.5002    0.0000 Cl  0  0  0  0  0  0  0  0  0  0  0  0
   -1.3000    3.0000    0.0000 Cl  0  0  0  0  0  0  0  0  0  0  0  0
    1.3000    1.5000    0.0000 C   0  0  0  0  0  0  0  0  0  0  0  0
    2.6000    0.7500    0.0000 C   0  0  0  0  0  0  0  0  0  0  0  0
    3.8989    1.5002    0.0000 H   0  0  0  0  0  0  0  0  0  0  0  0
    1.3000    3.0000    0.0000 O   0  0  0  0  0  0  0  0  0  0  0  0
    2.5990    3.7500    0.0000 H   0  0  0  0  0  0  0  0  0  0  0  0
  1  2  1  0  0  0  0 
  1  3  1  0  0  0  0 
  1  4  1  0  0  0  0 
  1  5  1  0  0  0  0 
  5  6  2  0  0  0  0 
  6  7  1  0  0  0  0 
  7  8  2  0  0  0  0 
  8  9  1  0  0  0  0 
  9 10  2  0  0  0  0 
 10 11  1  0  0  0  0 
 10 12  1  0  0  0  0 
 12 13  2  0  0  0  0 
  7 13  1  0  0  0  0 
 13 14  1  0  0  0  0 
 14 15  1  0  0  0  0 
 12 16  1  0  0  0  0 
  9 17  1  0  0  0  0 
  8 18  1  0  0  0  0 
 18 19  2  0  0  0  0 
  5 19  1  0  0  0  0 
 19 20  1  0  0  0  0 
 18 21  1  0  0  0  0 
 21 22  1  0  0  0  0 
M  END
> <Rank>
12

> <Priority_score>
0.132

> <Reaction_type>
aromatic hydroxylation

> <Parent_ID>
62

> <Parent_InChI>
InChI=1S/C10H7Cl2NO/c1-5-2-3-6-7(11)4-8(12)10(14)9(6)13-5/h2-4,14H,1H3

> <Parent_SMILES>
Cc1ccc2c(Cl)cc(Cl)c(O)c2n1

$$$$
Molecule 62_metabolite 13
  CDK     0516241031

 22 23  0  0  0  0  0  0  0  0999 V2000
    3.8989   -1.5002    0.0000 C   0  0  0  0  0  0  0  0  0  0  0  0
    5.1981   -0.7504    0.0000 H   0  0  0  0  0  0  0  0  0  0  0  0
    2.9346   -2.6491    0.0000 H   0  0  0  0  0  0  0  0  0  0  0  0
    4.8629   -2.6494    0.0000 H   0  0  0  0  0  0  0  0  0  0  0  0
    2.6000   -0.7500    0.0000 C   0  0  0  0  0  0  0  0  0  0  0  0
    2.6000    0.7500    0.0000 C   0  0  0  0  0  0  0  0  0  0  0  0
    3.8989    1.5002    0.0000 H   0  0  0  0  0  0  0  0  0  0  0  0
    1.3000    1.5000    0.0000 C   0  0  0  0  0  0  0  0  0  0  0  0
    1.3000    3.0000    0.0000 H   0  0  0  0  0  0  0  0  0  0  0  0
   -0.0000    0.7500    0.0000 C   0  0  0  0  0  0  0  0  0  0  0  0
   -1.3000    1.5000    0.0000 C   0  0  0  0  0  0  0  0  0  0  0  0
   -2.6000    0.7500    0.0000 C   0  0  0  0  0  0  0  0  0  0  0  0
   -3.8989    1.5002    0.0000 H   0  0  0  0  0  0  0  0  0  0  0  0
   -2.6000   -0.7500    0.0000 C   0  0  0  0  0  0  0  0  0  0  0  0
   -1.3000   -1.5000    0.0000 C   0  0  0  0  0  0  0  0  0  0  0  0
   -0.0000   -0.7500    0.0000 C   0  0  0  0  0  0  0  0  0  0  0  0
    1.3000   -1.5000    0.0000 N   0  0  0  0  0  0  0  0  0  0  0  0
   -1.3000   -3.0000    0.0000 O   0  0  0  0  0  0  0  0  0  0  0  0
   -2.5990   -3.7500    0.0000 H   0  0  0  0  0  0  0  0  0  0  0  0
   -3.8989   -1.5002    0.0000 O   0  0  0  0  0  0  0  0  0  0  0  0
   -5.1981   -0.7504    0.0000 H   0  0  0  0  0  0  0  0  0  0  0  0
   -1.3000    3.0000    0.0000 Cl  0  0  0  0  0  0  0  0  0  0  0  0
  1  2  1  0  0  0  0 
  1  3  1  0  0  0  0 
  1  4  1  0  0  0  0 
  1  5  1  0  0  0  0 
  5  6  2  0  0  0  0 
  6  7  1  0  0  0  0 
  6  8  1  0  0  0  0 
  8  9  1  0  0  0  0 
  8 10  2  0  0  0  0 
 10 11  1  0  0  0  0 
 11 12  2  0  0  0  0 
 12 13  1  0  0  0  0 
 12 14  1  0  0  0  0 
 14 15  2  0  0  0  0 
 15 16  1  0  0  0  0 
 10 16  1  0  0  0  0 
 16 17  2  0  0  0  0 
  5 17  1  0  0  0  0 
 15 18  1  0  0  0  0 
 18 19  1  0  0  0  0 
 14 20  1  0  0  0  0 
 20 21  1  0  0  0  0 
 11 22  1  0  0  0  0 
M  END
> <Rank>
13

> <Priority_score>
0.011200000000000002

> <Reaction_type>
oxidative dehalogenation benzyl

> <Parent_ID>
62

> <Parent_InChI>
InChI=1S/C10H7Cl2NO/c1-5-2-3-6-7(11)4-8(12)10(14)9(6)13-5/h2-4,14H,1H3

> <Parent_SMILES>
Cc1ccc2c(Cl)cc(Cl)c(O)c2n1

$$$$
Molecule 62_metabolite 14
  CDK     0516241031

 22 23  0  0  0  0  0  0  0  0999 V2000
    3.8989   -1.5002    0.0000 C   0  0  0  0  0  0  0  0  0  0  0  0
    5.1981   -0.7504    0.0000 H   0  0  0  0  0  0  0  0  0  0  0  0
    2.9346   -2.6491    0.0000 H   0  0  0  0  0  0  0  0  0  0  0  0
    4.8629   -2.6494    0.0000 H   0  0  0  0  0  0  0  0  0  0  0  0
    2.6000   -0.7500    0.0000 C   0  0  0  0  0  0  0  0  0  0  0  0
    2.6000    0.7500    0.0000 C   0  0  0  0  0  0  0  0  0  0  0  0
    3.8989    1.5002    0.0000 H   0  0  0  0  0  0  0  0  0  0  0  0
    1.3000    1.5000    0.0000 C   0  0  0  0  0  0  0  0  0  0  0  0
    1.3000    3.0000    0.0000 H   0  0  0  0  0  0  0  0  0  0  0  0
   -0.0000    0.7500    0.0000 C   0  0  0  0  0  0  0  0  0  0  0  0
   -1.3000    1.5000    0.0000 C   0  0  0  0  0  0  0  0  0  0  0  0
   -2.6000    0.7500    0.0000 C   0  0  0  0  0  0  0  0  0  0  0  0
   -3.8989    1.5002    0.0000 H   0  0  0  0  0  0  0  0  0  0  0  0
   -2.6000   -0.7500    0.0000 C   0  0  0  0  0  0  0  0  0  0  0  0
   -1.3000   -1.5000    0.0000 C   0  0  0  0  0  0  0  0  0  0  0  0
   -0.0000   -0.7500    0.0000 C   0  0  0  0  0  0  0  0  0  0  0  0
    1.3000   -1.5000    0.0000 N   0  0  0  0  0  0  0  0  0  0  0  0
   -1.3000   -3.0000    0.0000 O   0  0  0  0  0  0  0  0  0  0  0  0
   -2.5990   -3.7500    0.0000 H   0  0  0  0  0  0  0  0  0  0  0  0
   -3.8989   -1.5002    0.0000 Cl  0  0  0  0  0  0  0  0  0  0  0  0
   -1.3000    3.0000    0.0000 O   0  0  0  0  0  0  0  0  0  0  0  0
   -2.5990    3.7500    0.0000 H   0  0  0  0  0  0  0  0  0  0  0  0
  1  2  1  0  0  0  0 
  1  3  1  0  0  0  0 
  1  4  1  0  0  0  0 
  1  5  1  0  0  0  0 
  5  6  2  0  0  0  0 
  6  7  1  0  0  0  0 
  6  8  1  0  0  0  0 
  8  9  1  0  0  0  0 
  8 10  2  0  0  0  0 
 10 11  1  0  0  0  0 
 11 12  2  0  0  0  0 
 12 13  1  0  0  0  0 
 12 14  1  0  0  0  0 
 14 15  2  0  0  0  0 
 15 16  1  0  0  0  0 
 10 16  1  0  0  0  0 
 16 17  2  0  0  0  0 
  5 17  1  0  0  0  0 
 15 18  1  0  0  0  0 
 18 19  1  0  0  0  0 
 14 20  1  0  0  0  0 
 11 21  1  0  0  0  0 
 21 22  1  0  0  0  0 
M  END
> <Rank>
13

> <Priority_score>
0.011200000000000002

> <Reaction_type>
oxidative dehalogenation benzyl

> <Parent_ID>
62

> <Parent_InChI>
InChI=1S/C10H7Cl2NO/c1-5-2-3-6-7(11)4-8(12)10(14)9(6)13-5/h2-4,14H,1H3

> <Parent_SMILES>
Cc1ccc2c(Cl)cc(Cl)c(O)c2n1

$$$$
Molecule 63
  CDK     0516241031

 46 49  0  0  0  0  0  0  0  0999 V2000
   -2.6069   10.5000    0.0000 C   0  0  0  0  0  0  0  0  0  0  0  0
   -1.3079    9.7500    0.0000 C   0  0  0  0  0  0  0  0  0  0  0  0
   -1.3079    8.2500    0.0000 C   0  0  0  0  0  0  0  0  0  0  0  0
   -0.0088   10.5000    0.0000 C   0  0  1  0  0  0  0  0  0  0  0  0
    1.2902    9.7500    0.0000 C   0  0  0  0  0  0  0  0  0  0  0  0
    2.5893   10.5000    0.0000 O   0  0  0  0  0  0  0  0  0  0  0  0
    1.2902    8.2500    0.0000 N   0  0  0  0  0  0  0  0  0  0  0  0
    2.5893    7.5000    0.0000 C   0  0  1  0  0  0  0  0  0  0  0  0
    3.8883    8.2500    0.0000 C   0  0  0  0  0  0  0  0  0  0  0  0
    5.1873    7.5000    0.0000 C   0  0  0  0  0  0  0  0  0  0  0  0
    6.4869    8.2508    0.0000 C   0  0  0  0  0  0  0  0  0  0  0  0
    7.7859    7.5008    0.0000 C   0  0  0  0  0  0  0  0  0  0  0  0
    7.7854    6.0000    0.0000 C   0  0  0  0  0  0  0  0  0  0  0  0
    6.4859    5.2492    0.0000 C   0  0  0  0  0  0  0  0  0  0  0  0
    5.1869    5.9992    0.0000 C   0  0  0  0  0  0  0  0  0  0  0  0
    2.5893    6.0000    0.0000 C   0  0  0  0  0  0  0  0  0  0  0  0
    1.2902    5.2500    0.0000 C   0  0  1  0  0  0  0  0  0  0  0  0
    1.2902    3.7500    0.0000 C   0  0  2  0  0  0  0  0  0  0  0  0
    2.5893    3.0000    0.0000 C   0  0  0  0  0  0  0  0  0  0  0  0
    2.5893    1.5000    0.0000 C   0  0  0  0  0  0  0  0  0  0  0  0
    1.2893    0.7500    0.0000 C   0  0  0  0  0  0  0  0  0  0  0  0
    1.2893   -0.7500    0.0000 C   0  0  0  0  0  0  0  0  0  0  0  0
    2.5893   -1.5000    0.0000 C   0  0  0  0  0  0  0  0  0  0  0  0
    3.8893   -0.7500    0.0000 C   0  0  0  0  0  0  0  0  0  0  0  0
    3.8893    0.7500    0.0000 C   0  0  0  0  0  0  0  0  0  0  0  0
   -0.0088    3.0000    0.0000 N   0  0  0  0  0  0  0  0  0  0  0  0
   -1.3079    3.7500    0.0000 C   0  0  0  0  0  0  0  0  0  0  0  0
   -1.3079    5.2500    0.0000 O   0  0  0  0  0  0  0  0  0  0  0  0
   -2.6069    3.0000    0.0000 C   0  0  0  0  0  0  0  0  0  0  0  0
   -3.9059    3.7500    0.0000 O   0  0  0  0  0  0  0  0  0  0  0  0
   -5.2050    3.0000    0.0000 C   0  0  0  0  0  0  0  0  0  0  0  0
   -6.4973    3.7595    0.0000 C   0  0  0  0  0  0  0  0  0  0  0  0
   -6.4831    5.2594    0.0000 C   0  0  0  0  0  0  0  0  0  0  0  0
   -7.7874    3.0336    0.0000 C   0  0  0  0  0  0  0  0  0  0  0  0
   -7.7947    1.5660    0.0000 C   0  0  0  0  0  0  0  0  0  0  0  0
   -6.5329    0.7788    0.0000 C   0  0  0  0  0  0  0  0  0  0  0  0
   -5.1934    1.4971    0.0000 C   0  0  0  0  0  0  0  0  0  0  0  0
   -3.9033    0.7317    0.0000 C   0  0  0  0  0  0  0  0  0  0  0  0
   -0.0088    6.0000    0.0000 O   0  0  0  0  0  0  0  0  0  0  0  0
   -0.0088   12.0000    0.0000 N   0  0  0  0  0  0  0  0  0  0  0  0
    1.2912   12.7500    0.0000 C   0  0  0  0  0  0  0  0  0  0  0  0
    1.2912   14.2500    0.0000 C   0  0  0  0  0  0  0  0  0  0  0  0
   -0.0088   15.0000    0.0000 C   0  0  0  0  0  0  0  0  0  0  0  0
   -1.3088   14.2500    0.0000 N   0  0  0  0  0  0  0  0  0  0  0  0
   -1.3088   12.7500    0.0000 C   0  0  0  0  0  0  0  0  0  0  0  0
   -2.6077   11.9998    0.0000 O   0  0  0  0  0  0  0  0  0  0  0  0
  1  2  1  0  0  0  0 
  2  3  1  0  0  0  0 
  2  4  1  0  0  0  0 
  4  5  1  0  0  0  0 
  5  6  2  0  0  0  0 
  5  7  1  0  0  0  0 
  8  7  1  1  0  0  0 
  8  9  1  0  0  0  0 
  9 10  1  0  0  0  0 
 10 11  2  0  0  0  0 
 11 12  1  0  0  0  0 
 12 13  2  0  0  0  0 
 13 14  1  0  0  0  0 
 14 15  2  0  0  0  0 
 10 15  1  0  0  0  0 
  8 16  1  0  0  0  0 
 16 17  1  0  0  0  0 
 17 18  1  0  0  0  0 
 18 19  1  0  0  0  0 
 19 20  1  0  0  0  0 
 20 21  2  0  0  0  0 
 21 22  1  0  0  0  0 
 22 23  2  0  0  0  0 
 23 24  1  0  0  0  0 
 24 25  2  0  0  0  0 
 20 25  1  0  0  0  0 
 18 26  1  6  0  0  0 
 26 27  1  0  0  0  0 
 27 28  2  0  0  0  0 
 27 29  1  0  0  0  0 
 29 30  1  0  0  0  0 
 30 31  1  0  0  0  0 
 31 32  2  0  0  0  0 
 32 33  1  0  0  0  0 
 32 34  1  0  0  0  0 
 34 35  2  0  0  0  0 
 35 36  1  0  0  0  0 
 36 37  2  0  0  0  0 
 31 37  1  0  0  0  0 
 37 38  1  0  0  0  0 
 17 39  1  1  0  0  0 
  4 40  1  6  0  0  0 
 40 41  1  0  0  0  0 
 41 42  1  0  0  0  0 
 42 43  1  0  0  0  0 
 43 44  1  0  0  0  0 
 44 45  1  0  0  0  0 
 40 45  1  0  0  0  0 
 45 46  2  0  0  0  0 
M  END
> <SMILES>
Cc1cccc(C)c1OCC(=O)N[C@@H](Cc1ccccc1)[C@@H](O)C[C@H](Cc1ccccc1)NC(=O)[C@H](C(C)C)N1CCCNC1=O

$$$$
Molecule 63_metabolite 1
  CDK     0516241031

114118  0  0  0  0  0  0  0  0999 V2000
   18.6288    3.1375    0.0000 C   0  0  0  0  0  0  0  0  0  0  0  0
   19.1418    1.7280    0.0000 H   0  0  0  0  0  0  0  0  0  0  0  0
   20.1060    3.3980    0.0000 H   0  0  0  0  0  0  0  0  0  0  0  0
   18.6288    4.6375    0.0000 H   0  0  0  0  0  0  0  0  0  0  0  0
   16.6789    3.4813    0.0000 C   0  0  0  0  0  0  0  0  0  0  0  0
   15.2017    3.2209    0.0000 H   0  0  0  0  0  0  0  0  0  0  0  0
   16.6789    1.9813    0.0000 C   0  0  0  0  0  0  0  0  0  0  0  0
   15.3799    1.2313    0.0000 H   0  0  0  0  0  0  0  0  0  0  0  0
   18.1561    2.2418    0.0000 H   0  0  0  0  0  0  0  0  0  0  0  0
   17.1919    0.5718    0.0000 H   0  0  0  0  0  0  0  0  0  0  0  0
   16.1659    4.8909    0.0000 C   0  0  1  0  0  0  0  0  0  0  0  0
   17.6431    5.1514    0.0000 H   0  0  0  0  0  0  0  0  0  0  0  0
   14.4511    3.9009    0.0000 C   0  0  0  0  0  0  0  0  0  0  0  0
   14.4511    2.4009    0.0000 O   0  0  0  0  0  0  0  0  0  0  0  0
   13.1521    4.6509    0.0000 N   0  0  0  0  0  0  0  0  0  0  0  0
   13.1521    6.1509    0.0000 H   0  0  0  0  0  0  0  0  0  0  0  0
   11.4374    3.6609    0.0000 C   0  0  1  0  0  0  0  0  0  0  0  0
   12.4016    2.5118    0.0000 H   0  0  0  0  0  0  0  0  0  0  0  0
   10.4732    2.5118    0.0000 C   0  0  0  0  0  0  0  0  0  0  0  0
    9.5090    3.6609    0.0000 H   0  0  0  0  0  0  0  0  0  0  0  0
    9.1742    1.7618    0.0000 H   0  0  0  0  0  0  0  0  0  0  0  0
   11.4787   -0.2509    0.0000 C   0  0  0  0  0  0  0  0  0  0  0  0
   12.9568   -0.5110    0.0000 C   0  0  0  0  0  0  0  0  0  0  0  0
   13.9208    0.6382    0.0000 H   0  0  0  0  0  0  0  0  0  0  0  0
   13.4699   -1.9206    0.0000 C   0  0  0  0  0  0  0  0  0  0  0  0
   14.9470   -2.1813    0.0000 H   0  0  0  0  0  0  0  0  0  0  0  0
   12.5048   -3.0700    0.0000 C   0  0  0  0  0  0  0  0  0  0  0  0
   13.0178   -4.4795    0.0000 H   0  0  0  0  0  0  0  0  0  0  0  0
   11.0267   -2.8098    0.0000 C   0  0  0  0  0  0  0  0  0  0  0  0
   10.0627   -3.9590    0.0000 H   0  0  0  0  0  0  0  0  0  0  0  0
   10.5136   -1.4003    0.0000 C   0  0  0  0  0  0  0  0  0  0  0  0
    9.0365   -1.1396    0.0000 H   0  0  0  0  0  0  0  0  0  0  0  0
    9.3069    4.8909    0.0000 C   0  0  0  0  0  0  0  0  0  0  0  0
    8.3428    6.0399    0.0000 H   0  0  0  0  0  0  0  0  0  0  0  0
   10.2711    6.0399    0.0000 H   0  0  0  0  0  0  0  0  0  0  0  0
    7.5922    3.9009    0.0000 C   0  0  1  0  0  0  0  0  0  0  0  0
    8.5564    2.7518    0.0000 H   0  0  0  0  0  0  0  0  0  0  0  0
    5.8775    4.8909    0.0000 C   0  0  2  0  0  0  0  0  0  0  0  0
    4.9133    6.0399    0.0000 H   0  0  0  0  0  0  0  0  0  0  0  0
    6.8417    6.0399    0.0000 C   0  0  0  0  0  0  0  0  0  0  0  0
    8.1407    6.7899    0.0000 H   0  0  0  0  0  0  0  0  0  0  0  0
    7.8059    4.8909    0.0000 H   0  0  0  0  0  0  0  0  0  0  0  0
    6.3286    7.4495    0.0000 C   0  0  0  0  0  0  0  0  0  0  0  0
    7.2937    8.5989    0.0000 C   0  0  0  0  0  0  0  0  0  0  0  0
    8.7709    8.3382    0.0000 H   0  0  0  0  0  0  0  0  0  0  0  0
    6.7807   10.0084    0.0000 C   0  0  0  0  0  0  0  0  0  0  0  0
    7.7447   11.1576    0.0000 H   0  0  0  0  0  0  0  0  0  0  0  0
    5.3026   10.2686    0.0000 C   0  0  0  0  0  0  0  0  0  0  0  0
    4.7895   11.6781    0.0000 H   0  0  0  0  0  0  0  0  0  0  0  0
    4.3375    9.1192    0.0000 C   0  0  0  0  0  0  0  0  0  0  0  0
    2.8603    9.3799    0.0000 H   0  0  0  0  0  0  0  0  0  0  0  0
    4.8505    7.7096    0.0000 C   0  0  0  0  0  0  0  0  0  0  0  0
    3.8865    6.5604    0.0000 H   0  0  0  0  0  0  0  0  0  0  0  0
    3.7471    3.6609    0.0000 N   0  0  0  0  0  0  0  0  0  0  0  0
    3.7471    2.1609    0.0000 H   0  0  0  0  0  0  0  0  0  0  0  0
    1.6166    4.8909    0.0000 C   0  0  0  0  0  0  0  0  0  0  0  0
    1.6166    6.3909    0.0000 O   0  0  0  0  0  0  0  0  0  0  0  0
    0.3176    4.1409    0.0000 C   0  0  0  0  0  0  0  0  0  0  0  0
    1.2818    2.9918    0.0000 H   0  0  0  0  0  0  0  0  0  0  0  0
   -0.6466    2.9918    0.0000 H   0  0  0  0  0  0  0  0  0  0  0  0
   -0.9814    4.8909    0.0000 O   0  0  0  0  0  0  0  0  0  0  0  0
   -2.2805    4.1409    0.0000 C   0  0  0  0  0  0  0  0  0  0  0  0
   -2.2689    2.6420    0.0000 C   0  0  0  0  0  0  0  0  0  0  0  0
   -0.9629    1.9043    0.0000 C   0  0  0  0  0  0  0  0  0  0  0  0
    0.3291    2.6665    0.0000 H   0  0  0  0  0  0  0  0  0  0  0  0
   -1.9162    0.7462    0.0000 H   0  0  0  0  0  0  0  0  0  0  0  0
    0.0121    0.7643    0.0000 H   0  0  0  0  0  0  0  0  0  0  0  0
   -3.5426    1.8876    0.0000 C   0  0  0  0  0  0  0  0  0  0  0  0
   -3.5305    0.3877    0.0000 H   0  0  0  0  0  0  0  0  0  0  0  0
   -4.8173    2.6151    0.0000 C   0  0  0  0  0  0  0  0  0  0  0  0
   -6.1014    1.8398    0.0000 H   0  0  0  0  0  0  0  0  0  0  0  0
   -4.8681    4.1014    0.0000 C   0  0  0  0  0  0  0  0  0  0  0  0
   -6.1910    4.8084    0.0000 H   0  0  0  0  0  0  0  0  0  0  0  0
   -3.5762    4.9024    0.0000 C   0  0  0  0  0  0  0  0  0  0  0  0
   -3.5940    6.4023    0.0000 C   0  0  0  0  0  0  0  0  0  0  0  0
   -4.9018    7.1368    0.0000 H   0  0  0  0  0  0  0  0  0  0  0  0
   -3.0977    7.8178    0.0000 H   0  0  0  0  0  0  0  0  0  0  0  0
   -2.1138    6.1593    0.0000 H   0  0  0  0  0  0  0  0  0  0  0  0
    6.3195    2.3841    0.0000 O   0  0  0  0  0  0  0  0  0  0  0  0
    6.8325    0.9746    0.0000 C   0  0  0  0  0  0  0  0  0  0  0  0
    8.1333    1.7216    0.0000 H   0  0  0  0  0  0  0  0  0  0  0  0
    5.3658    0.7125    0.0000 C   0  0  0  0  0  0  0  0  0  0  0  0
    3.8878    0.9684    0.0000 H   0  0  0  0  0  0  0  0  0  0  0  0
    4.8498   -0.7207    0.0000 C   0  0  0  0  0  0  0  0  0  0  0  0
    3.8929   -1.8758    0.0000 H   0  0  0  0  0  0  0  0  0  0  0  0
    5.8267   -1.8667    0.0000 C   0  0  0  0  0  0  0  0  0  0  0  0
    6.3455   -3.2741    0.0000 H   0  0  0  0  0  0  0  0  0  0  0  0
    7.2934   -1.6046    0.0000 C   0  0  0  0  0  0  0  0  0  0  0  0
    8.7713   -1.8613    0.0000 H   0  0  0  0  0  0  0  0  0  0  0  0
    7.2993   -4.0646    0.0000 C   0  0  0  0  0  0  0  0  0  0  0  0
    6.0021   -4.8177    0.0000 O   0  0  0  0  0  0  0  0  0  0  0  0
    8.6002   -4.8114    0.0000 O   0  0  0  0  0  0  0  0  0  0  0  0
    8.6038   -6.3114    0.0000 H   0  0  0  0  0  0  0  0  0  0  0  0
    7.8030   -0.1929    0.0000 O   0  0  0  0  0  0  0  0  0  0  0  0
    4.5321   -2.6244    0.0000 O   0  0  0  0  0  0  0  0  0  0  0  0
    4.5410   -4.1243    0.0000 H   0  0  0  0  0  0  0  0  0  0  0  0
    3.5471    0.0230    0.0000 O   0  0  0  0  0  0  0  0  0  0  0  0
    2.2518   -0.7334    0.0000 H   0  0  0  0  0  0  0  0  0  0  0  0
    5.3617    2.2125    0.0000 O   0  0  0  0  0  0  0  0  0  0  0  0
    4.0607    2.9589    0.0000 H   0  0  0  0  0  0  0  0  0  0  0  0
   16.1659    6.3909    0.0000 N   0  0  0  0  0  0  0  0  0  0  0  0
   14.8659    7.1409    0.0000 C   0  0  0  0  0  0  0  0  0  0  0  0
   14.3531    5.7312    0.0000 H   0  0  0  0  0  0  0  0  0  0  0  0
   13.3886    7.4012    0.0000 H   0  0  0  0  0  0  0  0  0  0  0  0
   14.8659    8.6409    0.0000 C   0  0  0  0  0  0  0  0  0  0  0  0
   13.3886    8.3806    0.0000 H   0  0  0  0  0  0  0  0  0  0  0  0
   14.3531   10.0505    0.0000 H   0  0  0  0  0  0  0  0  0  0  0  0
   16.1659    9.3909    0.0000 C   0  0  0  0  0  0  0  0  0  0  0  0
   15.2018   10.5400    0.0000 H   0  0  0  0  0  0  0  0  0  0  0  0
   17.1299   10.5400    0.0000 H   0  0  0  0  0  0  0  0  0  0  0  0
   17.4659    8.6409    0.0000 N   0  0  0  0  0  0  0  0  0  0  0  0
   18.7648    9.3911    0.0000 H   0  0  0  0  0  0  0  0  0  0  0  0
   17.4659    7.1409    0.0000 C   0  0  0  0  0  0  0  0  0  0  0  0
   18.7648    6.3907    0.0000 O   0  0  0  0  0  0  0  0  0  0  0  0
  1  2  1  0  0  0  0 
  1  3  1  0  0  0  0 
  1  4  1  0  0  0  0 
  1  5  1  0  0  0  0 
  5  6  1  0  0  0  0 
  5  7  1  0  0  0  0 
  7  8  1  0  0  0  0 
  7  9  1  0  0  0  0 
  7 10  1  0  0  0  0 
  5 11  1  0  0  0  0 
 11 12  1  6  0  0  0 
 11 13  1  0  0  0  0 
 13 14  2  0  0  0  0 
 13 15  1  0  0  0  0 
 15 16  1  0  0  0  0 
 17 15  1  1  0  0  0 
 17 18  1  6  0  0  0 
 17 19  1  0  0  0  0 
 19 20  1  0  0  0  0 
 19 21  1  0  0  0  0 
 19 22  1  0  0  0  0 
 22 23  2  0  0  0  0 
 23 24  1  0  0  0  0 
 23 25  1  0  0  0  0 
 25 26  1  0  0  0  0 
 25 27  2  0  0  0  0 
 27 28  1  0  0  0  0 
 27 29  1  0  0  0  0 
 29 30  1  0  0  0  0 
 29 31  2  0  0  0  0 
 22 31  1  0  0  0  0 
 31 32  1  0  0  0  0 
 17 33  1  0  0  0  0 
 33 34  1  0  0  0  0 
 33 35  1  0  0  0  0 
 33 36  1  0  0  0  0 
 36 37  1  1  0  0  0 
 36 38  1  0  0  0  0 
 38 39  1  6  0  0  0 
 38 40  1  0  0  0  0 
 40 41  1  0  0  0  0 
 40 42  1  0  0  0  0 
 40 43  1  0  0  0  0 
 43 44  2  0  0  0  0 
 44 45  1  0  0  0  0 
 44 46  1  0  0  0  0 
 46 47  1  0  0  0  0 
 46 48  2  0  0  0  0 
 48 49  1  0  0  0  0 
 48 50  1  0  0  0  0 
 50 51  1  0  0  0  0 
 50 52  2  0  0  0  0 
 43 52  1  0  0  0  0 
 52 53  1  0  0  0  0 
 38 54  1  1  0  0  0 
 54 55  1  0  0  0  0 
 54 56  1  0  0  0  0 
 56 57  2  0  0  0  0 
 56 58  1  0  0  0  0 
 58 59  1  0  0  0  0 
 58 60  1  0  0  0  0 
 58 61  1  0  0  0  0 
 61 62  1  0  0  0  0 
 62 63  2  0  0  0  0 
 63 64  1  0  0  0  0 
 64 65  1  0  0  0  0 
 64 66  1  0  0  0  0 
 64 67  1  0  0  0  0 
 63 68  1  0  0  0  0 
 68 69  1  0  0  0  0 
 68 70  2  0  0  0  0 
 70 71  1  0  0  0  0 
 70 72  1  0  0  0  0 
 72 73  1  0  0  0  0 
 72 74  2  0  0  0  0 
 62 74  1  0  0  0  0 
 74 75  1  0  0  0  0 
 75 76  1  0  0  0  0 
 75 77  1  0  0  0  0 
 75 78  1  0  0  0  0 
 36 79  1  6  0  0  0 
 79 80  1  0  0  0  0 
 80 81  1  0  0  0  0 
 80 82  1  0  0  0  0 
 82 83  1  0  0  0  0 
 82 84  1  0  0  0  0 
 84 85  1  0  0  0  0 
 84 86  1  0  0  0  0 
 86 87  1  0  0  0  0 
 86 88  1  0  0  0  0 
 88 89  1  0  0  0  0 
 88 90  1  0  0  0  0 
 90 91  2  0  0  0  0 
 90 92  1  0  0  0  0 
 92 93  1  0  0  0  0 
 88 94  1  0  0  0  0 
 80 94  1  0  0  0  0 
 86 95  1  0  0  0  0 
 95 96  1  0  0  0  0 
 84 97  1  0  0  0  0 
 97 98  1  0  0  0  0 
 82 99  1  0  0  0  0 
 99100  1  0  0  0  0 
 11101  1  1  0  0  0 
101102  1  0  0  0  0 
102103  1  0  0  0  0 
102104  1  0  0  0  0 
102105  1  0  0  0  0 
105106  1  0  0  0  0 
105107  1  0  0  0  0 
105108  1  0  0  0  0 
108109  1  0  0  0  0 
108110  1  0  0  0  0 
108111  1  0  0  0  0 
111112  1  0  0  0  0 
111113  1  0  0  0  0 
101113  1  0  0  0  0 
113114  2  0  0  0  0 
M  END
> <Rank>
1

> <Priority_score>
0.748

> <Reaction_type>
O-glucuronidation_(aliphatic_hydroxyl)

> <Parent_ID>
63

> <Parent_InChI>
InChI=1S/C37H48N4O5/c1-25(2)34(41-20-12-19-38-37(41)45)36(44)39-30(21-28-15-7-5-8-16-28)23-32(42)31(22-29-17-9-6-10-18-29)40-33(43)24-46-35-26(3)13-11-14-27(35)4/h5-11,13-18,25,30-32,34,42H,12,19-24H2,1-4H3,(H,38,45)(H,39,44)(H,40,43)

> <Parent_SMILES>
Cc1cccc(C)c1OCC(=O)N[C@@H](Cc1ccccc1)[C@@H](O)C[C@H](Cc1ccccc1)NC(=O)[C@H](C(C)C)N1CCCNC1=O

$$$$
Molecule 63_metabolite 2
  CDK     0516241031

 76 78  0  0  0  0  0  0  0  0999 V2000
    1.6793   -1.3286    0.0000 C   0  0  0  0  0  0  0  0  0  0  0  0
    0.7151   -2.4777    0.0000 H   0  0  0  0  0  0  0  0  0  0  0  0
    2.6435   -2.4777    0.0000 H   0  0  0  0  0  0  0  0  0  0  0  0
    2.9783   -0.5786    0.0000 H   0  0  0  0  0  0  0  0  0  0  0  0
    1.0021    0.5320    0.0000 C   0  0  0  0  0  0  0  0  0  0  0  0
    0.0379    1.6811    0.0000 H   0  0  0  0  0  0  0  0  0  0  0  0
   -0.2970   -0.2180    0.0000 C   0  0  0  0  0  0  0  0  0  0  0  0
   -1.5960    0.5320    0.0000 H   0  0  0  0  0  0  0  0  0  0  0  0
    0.6672   -1.3671    0.0000 H   0  0  0  0  0  0  0  0  0  0  0  0
   -1.2611   -1.3671    0.0000 H   0  0  0  0  0  0  0  0  0  0  0  0
    1.9663    1.6811    0.0000 C   0  0  1  0  0  0  0  0  0  0  0  0
    2.9304    0.5320    0.0000 H   0  0  0  0  0  0  0  0  0  0  0  0
    0.2515    2.6711    0.0000 C   0  0  0  0  0  0  0  0  0  0  0  0
   -1.0475    1.9211    0.0000 O   0  0  0  0  0  0  0  0  0  0  0  0
    0.2515    4.1711    0.0000 N   0  0  0  0  0  0  0  0  0  0  0  0
    1.5506    4.9211    0.0000 H   0  0  0  0  0  0  0  0  0  0  0  0
   -1.0475    4.9211    0.0000 C   0  0  1  0  0  0  0  0  0  0  0  0
   -0.0833    6.0701    0.0000 H   0  0  0  0  0  0  0  0  0  0  0  0
   -2.0117    6.0701    0.0000 C   0  0  0  0  0  0  0  0  0  0  0  0
   -2.9759    4.9211    0.0000 H   0  0  0  0  0  0  0  0  0  0  0  0
   -3.3107    6.8201    0.0000 H   0  0  0  0  0  0  0  0  0  0  0  0
   -1.4987    7.4797    0.0000 C   0  0  0  0  0  0  0  0  0  0  0  0
   -0.0206    7.7398    0.0000 C   0  0  0  0  0  0  0  0  0  0  0  0
    0.9434    6.5906    0.0000 H   0  0  0  0  0  0  0  0  0  0  0  0
    0.4925    9.1493    0.0000 C   0  0  0  0  0  0  0  0  0  0  0  0
    1.9696    9.4100    0.0000 H   0  0  0  0  0  0  0  0  0  0  0  0
   -0.4726   10.2987    0.0000 C   0  0  0  0  0  0  0  0  0  0  0  0
    0.0404   11.7083    0.0000 H   0  0  0  0  0  0  0  0  0  0  0  0
   -1.9507   10.0386    0.0000 C   0  0  0  0  0  0  0  0  0  0  0  0
   -2.9147   11.1878    0.0000 H   0  0  0  0  0  0  0  0  0  0  0  0
   -2.4638    8.6291    0.0000 C   0  0  0  0  0  0  0  0  0  0  0  0
   -3.9409    8.3683    0.0000 H   0  0  0  0  0  0  0  0  0  0  0  0
   -2.7622    3.9311    0.0000 C   0  0  0  0  0  0  0  0  0  0  0  0
   -3.7264    2.7820    0.0000 H   0  0  0  0  0  0  0  0  0  0  0  0
   -1.7981    2.7820    0.0000 H   0  0  0  0  0  0  0  0  0  0  0  0
   -4.0613    4.6811    0.0000 C   0  0  1  0  0  0  0  0  0  0  0  0
   -3.0971    5.8301    0.0000 H   0  0  0  0  0  0  0  0  0  0  0  0
   -6.6074    3.2111    0.0000 C   0  0  2  0  0  0  0  0  0  0  0  0
   -8.0846    2.9506    0.0000 H   0  0  0  0  0  0  0  0  0  0  0  0
   -7.1204    4.6206    0.0000 C   0  0  0  0  0  0  0  0  0  0  0  0
   -7.1204    6.1206    0.0000 H   0  0  0  0  0  0  0  0  0  0  0  0
   -5.6432    4.8811    0.0000 H   0  0  0  0  0  0  0  0  0  0  0  0
   -8.5976    4.8811    0.0000 C   0  0  0  0  0  0  0  0  0  0  0  0
   -9.1105    6.2915    0.0000 C   0  0  0  0  0  0  0  0  0  0  0  0
   -8.1461    7.4405    0.0000 H   0  0  0  0  0  0  0  0  0  0  0  0
  -10.5877    6.5520    0.0000 C   0  0  0  0  0  0  0  0  0  0  0  0
  -11.1010    7.9615    0.0000 H   0  0  0  0  0  0  0  0  0  0  0  0
  -11.5521    5.4020    0.0000 C   0  0  0  0  0  0  0  0  0  0  0  0
  -13.0293    5.6625    0.0000 H   0  0  0  0  0  0  0  0  0  0  0  0
  -11.0392    3.9915    0.0000 C   0  0  0  0  0  0  0  0  0  0  0  0
  -12.0036    2.8426    0.0000 H   0  0  0  0  0  0  0  0  0  0  0  0
   -9.5620    3.7310    0.0000 C   0  0  0  0  0  0  0  0  0  0  0  0
   -9.0487    2.3216    0.0000 H   0  0  0  0  0  0  0  0  0  0  0  0
   -6.6074    1.2311    0.0000 N   0  0  0  0  0  0  0  0  0  0  0  0
   -5.3084    0.4811    0.0000 H   0  0  0  0  0  0  0  0  0  0  0  0
   -7.9064    0.4811    0.0000 C   0  0  0  0  0  0  0  0  0  0  0  0
   -9.2055    1.2311    0.0000 O   0  0  0  0  0  0  0  0  0  0  0  0
   -7.9064   -1.0189    0.0000 C   0  0  0  0  0  0  0  0  0  0  0  0
   -9.2055   -1.7689    0.0000 H   0  0  0  0  0  0  0  0  0  0  0  0
   -6.6074   -1.7689    0.0000 O   0  0  0  0  0  0  0  0  0  0  0  0
   -5.0255    5.8301    0.0000 O   0  0  0  0  0  0  0  0  0  0  0  0
   -4.5124    7.2397    0.0000 H   0  0  0  0  0  0  0  0  0  0  0  0
    3.2653    2.4311    0.0000 N   0  0  0  0  0  0  0  0  0  0  0  0
    3.2648    3.9319    0.0000 C   0  0  0  0  0  0  0  0  0  0  0  0
    1.7877    3.6711    0.0000 H   0  0  0  0  0  0  0  0  0  0  0  0
    2.7516    5.3414    0.0000 H   0  0  0  0  0  0  0  0  0  0  0  0
    4.5638    4.6819    0.0000 C   0  0  0  0  0  0  0  0  0  0  0  0
    3.5998    5.8311    0.0000 H   0  0  0  0  0  0  0  0  0  0  0  0
    5.5283    5.8307    0.0000 H   0  0  0  0  0  0  0  0  0  0  0  0
    5.8634    3.9311    0.0000 C   0  0  0  0  0  0  0  0  0  0  0  0
    6.3765    5.3405    0.0000 H   0  0  0  0  0  0  0  0  0  0  0  0
    7.3406    3.6707    0.0000 H   0  0  0  0  0  0  0  0  0  0  0  0
    5.8638    2.4302    0.0000 N   0  0  0  0  0  0  0  0  0  0  0  0
    7.1630    1.6804    0.0000 H   0  0  0  0  0  0  0  0  0  0  0  0
    4.5648    1.6802    0.0000 C   0  0  0  0  0  0  0  0  0  0  0  0
    4.5646    0.1802    0.0000 O   0  0  0  0  0  0  0  0  0  0  0  0
  1  2  1  0  0  0  0 
  1  3  1  0  0  0  0 
  1  4  1  0  0  0  0 
  1  5  1  0  0  0  0 
  5  6  1  0  0  0  0 
  5  7  1  0  0  0  0 
  7  8  1  0  0  0  0 
  7  9  1  0  0  0  0 
  7 10  1  0  0  0  0 
  5 11  1  0  0  0  0 
 11 12  1  6  0  0  0 
 11 13  1  0  0  0  0 
 13 14  2  0  0  0  0 
 13 15  1  0  0  0  0 
 15 16  1  0  0  0  0 
 17 15  1  6  0  0  0 
 17 18  1  1  0  0  0 
 17 19  1  0  0  0  0 
 19 20  1  0  0  0  0 
 19 21  1  0  0  0  0 
 19 22  1  0  0  0  0 
 22 23  2  0  0  0  0 
 23 24  1  0  0  0  0 
 23 25  1  0  0  0  0 
 25 26  1  0  0  0  0 
 25 27  2  0  0  0  0 
 27 28  1  0  0  0  0 
 27 29  1  0  0  0  0 
 29 30  1  0  0  0  0 
 29 31  2  0  0  0  0 
 22 31  1  0  0  0  0 
 31 32  1  0  0  0  0 
 17 33  1  0  0  0  0 
 33 34  1  0  0  0  0 
 33 35  1  0  0  0  0 
 33 36  1  0  0  0  0 
 36 37  1  6  0  0  0 
 36 38  1  0  0  0  0 
 38 39  1  6  0  0  0 
 38 40  1  0  0  0  0 
 40 41  1  0  0  0  0 
 40 42  1  0  0  0  0 
 40 43  1  0  0  0  0 
 43 44  2  0  0  0  0 
 44 45  1  0  0  0  0 
 44 46  1  0  0  0  0 
 46 47  1  0  0  0  0 
 46 48  2  0  0  0  0 
 48 49  1  0  0  0  0 
 48 50  1  0  0  0  0 
 50 51  1  0  0  0  0 
 50 52  2  0  0  0  0 
 43 52  1  0  0  0  0 
 52 53  1  0  0  0  0 
 38 54  1  1  0  0  0 
 54 55  1  0  0  0  0 
 54 56  1  0  0  0  0 
 56 57  2  0  0  0  0 
 56 58  1  0  0  0  0 
 58 59  1  0  0  0  0 
 58 60  2  0  0  0  0 
 36 61  1  1  0  0  0 
 61 62  1  0  0  0  0 
 11 63  1  1  0  0  0 
 63 64  1  0  0  0  0 
 64 65  1  0  0  0  0 
 64 66  1  0  0  0  0 
 64 67  1  0  0  0  0 
 67 68  1  0  0  0  0 
 67 69  1  0  0  0  0 
 67 70  1  0  0  0  0 
 70 71  1  0  0  0  0 
 70 72  1  0  0  0  0 
 70 73  1  0  0  0  0 
 73 74  1  0  0  0  0 
 73 75  1  0  0  0  0 
 63 75  1  0  0  0  0 
 75 76  2  0  0  0  0 
M  END
> <Rank>
2

> <Priority_score>
0.583765871786931

> <Reaction_type>
oxidative ether cleavage to one alcohol and one aldehyde/ketone

> <Parent_ID>
63

> <Parent_InChI>
InChI=1S/C37H48N4O5/c1-25(2)34(41-20-12-19-38-37(41)45)36(44)39-30(21-28-15-7-5-8-16-28)23-32(42)31(22-29-17-9-6-10-18-29)40-33(43)24-46-35-26(3)13-11-14-27(35)4/h5-11,13-18,25,30-32,34,42H,12,19-24H2,1-4H3,(H,38,45)(H,39,44)(H,40,43)

> <Parent_SMILES>
Cc1cccc(C)c1OCC(=O)N[C@@H](Cc1ccccc1)[C@@H](O)C[C@H](Cc1ccccc1)NC(=O)[C@H](C(C)C)N1CCCNC1=O

$$$$
Molecule 63_metabolite 3
  CDK     0516241031

 78 80  0  0  0  0  0  0  0  0999 V2000
   -0.3012   10.9114    0.0000 C   0  0  0  0  0  0  0  0  0  0  0  0
    1.1760   10.6509    0.0000 H   0  0  0  0  0  0  0  0  0  0  0  0
    0.2118   12.3209    0.0000 H   0  0  0  0  0  0  0  0  0  0  0  0
   -1.6002   11.6614    0.0000 H   0  0  0  0  0  0  0  0  0  0  0  0
   -1.5739    9.3946    0.0000 C   0  0  0  0  0  0  0  0  0  0  0  0
   -2.0869    7.9850    0.0000 H   0  0  0  0  0  0  0  0  0  0  0  0
   -0.2749    8.6446    0.0000 C   0  0  0  0  0  0  0  0  0  0  0  0
   -0.2749    7.1446    0.0000 H   0  0  0  0  0  0  0  0  0  0  0  0
    0.2382   10.0541    0.0000 H   0  0  0  0  0  0  0  0  0  0  0  0
    1.2023    8.3841    0.0000 H   0  0  0  0  0  0  0  0  0  0  0  0
   -3.0511    9.6551    0.0000 C   0  0  1  0  0  0  0  0  0  0  0  0
   -2.5381   11.0646    0.0000 H   0  0  0  0  0  0  0  0  0  0  0  0
   -3.0511    7.6751    0.0000 C   0  0  0  0  0  0  0  0  0  0  0  0
   -1.7521    6.9251    0.0000 O   0  0  0  0  0  0  0  0  0  0  0  0
   -4.3502    6.9251    0.0000 N   0  0  0  0  0  0  0  0  0  0  0  0
   -5.6492    7.6751    0.0000 H   0  0  0  0  0  0  0  0  0  0  0  0
   -4.3502    5.4251    0.0000 C   0  0  1  0  0  0  0  0  0  0  0  0
   -5.8274    5.6855    0.0000 H   0  0  0  0  0  0  0  0  0  0  0  0
   -4.8632    4.0155    0.0000 C   0  0  0  0  0  0  0  0  0  0  0  0
   -3.3860    3.7550    0.0000 H   0  0  0  0  0  0  0  0  0  0  0  0
   -4.8632    2.5155    0.0000 H   0  0  0  0  0  0  0  0  0  0  0  0
   -6.3404    3.7550    0.0000 C   0  0  0  0  0  0  0  0  0  0  0  0
   -7.3048    4.9051    0.0000 C   0  0  0  0  0  0  0  0  0  0  0  0
   -6.7915    6.3145    0.0000 H   0  0  0  0  0  0  0  0  0  0  0  0
   -8.7820    4.6446    0.0000 C   0  0  0  0  0  0  0  0  0  0  0  0
   -9.7463    5.7935    0.0000 H   0  0  0  0  0  0  0  0  0  0  0  0
   -9.2948    3.2341    0.0000 C   0  0  0  0  0  0  0  0  0  0  0  0
  -10.7720    2.9736    0.0000 H   0  0  0  0  0  0  0  0  0  0  0  0
   -8.3305    2.0841    0.0000 C   0  0  0  0  0  0  0  0  0  0  0  0
   -8.8437    0.6746    0.0000 H   0  0  0  0  0  0  0  0  0  0  0  0
   -6.8533    2.3446    0.0000 C   0  0  0  0  0  0  0  0  0  0  0  0
   -5.8889    1.1957    0.0000 H   0  0  0  0  0  0  0  0  0  0  0  0
   -2.6354    4.4351    0.0000 C   0  0  0  0  0  0  0  0  0  0  0  0
   -1.1582    4.1746    0.0000 H   0  0  0  0  0  0  0  0  0  0  0  0
   -2.1224    5.8446    0.0000 H   0  0  0  0  0  0  0  0  0  0  0  0
   -2.6354    2.9351    0.0000 C   0  0  1  0  0  0  0  0  0  0  0  0
   -4.1126    3.1955    0.0000 H   0  0  0  0  0  0  0  0  0  0  0  0
   -0.0893    1.4651    0.0000 C   0  0  2  0  0  0  0  0  0  0  0  0
    0.8749    0.3160    0.0000 H   0  0  0  0  0  0  0  0  0  0  0  0
   -1.0535    0.3160    0.0000 C   0  0  0  0  0  0  0  0  0  0  0  0
   -2.3525   -0.4340    0.0000 H   0  0  0  0  0  0  0  0  0  0  0  0
   -2.0177    1.4651    0.0000 H   0  0  0  0  0  0  0  0  0  0  0  0
   -0.5405   -1.0935    0.0000 C   0  0  0  0  0  0  0  0  0  0  0  0
   -1.5056   -2.2429    0.0000 C   0  0  0  0  0  0  0  0  0  0  0  0
   -2.9827   -1.9822    0.0000 H   0  0  0  0  0  0  0  0  0  0  0  0
   -0.9925   -3.6525    0.0000 C   0  0  0  0  0  0  0  0  0  0  0  0
   -1.9565   -4.8017    0.0000 H   0  0  0  0  0  0  0  0  0  0  0  0
    0.4856   -3.9126    0.0000 C   0  0  0  0  0  0  0  0  0  0  0  0
    0.9986   -5.3222    0.0000 H   0  0  0  0  0  0  0  0  0  0  0  0
    1.4507   -2.7632    0.0000 C   0  0  0  0  0  0  0  0  0  0  0  0
    2.9278   -3.0239    0.0000 H   0  0  0  0  0  0  0  0  0  0  0  0
    0.9376   -1.3537    0.0000 C   0  0  0  0  0  0  0  0  0  0  0  0
    1.9016   -0.2045    0.0000 H   0  0  0  0  0  0  0  0  0  0  0  0
    1.6254    2.4551    0.0000 N   0  0  0  0  0  0  0  0  0  0  0  0
    1.6254    3.9551    0.0000 H   0  0  0  0  0  0  0  0  0  0  0  0
    2.9244    1.7051    0.0000 C   0  0  0  0  0  0  0  0  0  0  0  0
    2.9244    0.2051    0.0000 O   0  0  0  0  0  0  0  0  0  0  0  0
    4.2235    2.4551    0.0000 C   0  0  0  0  0  0  0  0  0  0  0  0
    3.2593    3.6041    0.0000 H   0  0  0  0  0  0  0  0  0  0  0  0
    5.1877    3.6041    0.0000 H   0  0  0  0  0  0  0  0  0  0  0  0
    5.5225    1.7051    0.0000 O   0  0  0  0  0  0  0  0  0  0  0  0
    6.8216    2.4551    0.0000 H   0  0  0  0  0  0  0  0  0  0  0  0
   -3.1485    1.5255    0.0000 O   0  0  0  0  0  0  0  0  0  0  0  0
   -4.6257    1.2650    0.0000 H   0  0  0  0  0  0  0  0  0  0  0  0
   -4.3502   10.4051    0.0000 N   0  0  0  0  0  0  0  0  0  0  0  0
   -5.6497    9.6542    0.0000 C   0  0  0  0  0  0  0  0  0  0  0  0
   -4.6853    8.5054    0.0000 H   0  0  0  0  0  0  0  0  0  0  0  0
   -6.6137    8.5051    0.0000 H   0  0  0  0  0  0  0  0  0  0  0  0
   -6.9487   10.4042    0.0000 C   0  0  0  0  0  0  0  0  0  0  0  0
   -7.4619    8.9947    0.0000 H   0  0  0  0  0  0  0  0  0  0  0  0
   -8.4259   10.6650    0.0000 H   0  0  0  0  0  0  0  0  0  0  0  0
   -6.9482   11.9051    0.0000 C   0  0  0  0  0  0  0  0  0  0  0  0
   -8.4255   11.6447    0.0000 H   0  0  0  0  0  0  0  0  0  0  0  0
   -7.4614   13.3145    0.0000 H   0  0  0  0  0  0  0  0  0  0  0  0
   -5.6487   12.6559    0.0000 N   0  0  0  0  0  0  0  0  0  0  0  0
   -5.6490   14.1559    0.0000 H   0  0  0  0  0  0  0  0  0  0  0  0
   -4.3497   11.9059    0.0000 C   0  0  0  0  0  0  0  0  0  0  0  0
   -3.0505   12.6557    0.0000 O   0  0  0  0  0  0  0  0  0  0  0  0
  1  2  1  0  0  0  0 
  1  3  1  0  0  0  0 
  1  4  1  0  0  0  0 
  1  5  1  0  0  0  0 
  5  6  1  0  0  0  0 
  5  7  1  0  0  0  0 
  7  8  1  0  0  0  0 
  7  9  1  0  0  0  0 
  7 10  1  0  0  0  0 
  5 11  1  0  0  0  0 
 11 12  1  6  0  0  0 
 11 13  1  0  0  0  0 
 13 14  2  0  0  0  0 
 13 15  1  0  0  0  0 
 15 16  1  0  0  0  0 
 17 15  1  6  0  0  0 
 17 18  1  1  0  0  0 
 17 19  1  0  0  0  0 
 19 20  1  0  0  0  0 
 19 21  1  0  0  0  0 
 19 22  1  0  0  0  0 
 22 23  2  0  0  0  0 
 23 24  1  0  0  0  0 
 23 25  1  0  0  0  0 
 25 26  1  0  0  0  0 
 25 27  2  0  0  0  0 
 27 28  1  0  0  0  0 
 27 29  1  0  0  0  0 
 29 30  1  0  0  0  0 
 29 31  2  0  0  0  0 
 22 31  1  0  0  0  0 
 31 32  1  0  0  0  0 
 17 33  1  0  0  0  0 
 33 34  1  0  0  0  0 
 33 35  1  0  0  0  0 
 33 36  1  0  0  0  0 
 36 37  1  6  0  0  0 
 36 38  1  0  0  0  0 
 38 39  1  6  0  0  0 
 38 40  1  0  0  0  0 
 40 41  1  0  0  0  0 
 40 42  1  0  0  0  0 
 40 43  1  0  0  0  0 
 43 44  2  0  0  0  0 
 44 45  1  0  0  0  0 
 44 46  1  0  0  0  0 
 46 47  1  0  0  0  0 
 46 48  2  0  0  0  0 
 48 49  1  0  0  0  0 
 48 50  1  0  0  0  0 
 50 51  1  0  0  0  0 
 50 52  2  0  0  0  0 
 43 52  1  0  0  0  0 
 52 53  1  0  0  0  0 
 38 54  1  1  0  0  0 
 54 55  1  0  0  0  0 
 54 56  1  0  0  0  0 
 56 57  2  0  0  0  0 
 56 58  1  0  0  0  0 
 58 59  1  0  0  0  0 
 58 60  1  0  0  0  0 
 58 61  1  0  0  0  0 
 61 62  1  0  0  0  0 
 36 63  1  1  0  0  0 
 63 64  1  0  0  0  0 
 11 65  1  1  0  0  0 
 65 66  1  0  0  0  0 
 66 67  1  0  0  0  0 
 66 68  1  0  0  0  0 
 66 69  1  0  0  0  0 
 69 70  1  0  0  0  0 
 69 71  1  0  0  0  0 
 69 72  1  0  0  0  0 
 72 73  1  0  0  0  0 
 72 74  1  0  0  0  0 
 72 75  1  0  0  0  0 
 75 76  1  0  0  0  0 
 75 77  1  0  0  0  0 
 65 77  1  0  0  0  0 
 77 78  2  0  0  0  0 
M  END
> <Rank>
2

> <Priority_score>
0.583765871786931

> <Reaction_type>
O-dealkylation_(aromatic)

> <Parent_ID>
63

> <Parent_InChI>
InChI=1S/C37H48N4O5/c1-25(2)34(41-20-12-19-38-37(41)45)36(44)39-30(21-28-15-7-5-8-16-28)23-32(42)31(22-29-17-9-6-10-18-29)40-33(43)24-46-35-26(3)13-11-14-27(35)4/h5-11,13-18,25,30-32,34,42H,12,19-24H2,1-4H3,(H,38,45)(H,39,44)(H,40,43)

> <Parent_SMILES>
Cc1cccc(C)c1OCC(=O)N[C@@H](Cc1ccccc1)[C@@H](O)C[C@H](Cc1ccccc1)NC(=O)[C@H](C(C)C)N1CCCNC1=O

$$$$
Molecule 63_metabolite 4
  CDK     0516241031

 95 98  0  0  0  0  0  0  0  0999 V2000
  -13.6369    9.8367    0.0000 C   0  0  0  0  0  0  0  0  0  0  0  0
  -13.3764   11.3140    0.0000 H   0  0  0  0  0  0  0  0  0  0  0  0
  -15.0464   10.3498    0.0000 H   0  0  0  0  0  0  0  0  0  0  0  0
  -14.3869    8.5377    0.0000 H   0  0  0  0  0  0  0  0  0  0  0  0
  -12.1201    8.5640    0.0000 C   0  0  0  0  0  0  0  0  0  0  0  0
  -10.7106    8.0510    0.0000 H   0  0  0  0  0  0  0  0  0  0  0  0
  -11.3701    9.8631    0.0000 C   0  0  0  0  0  0  0  0  0  0  0  0
   -9.8701    9.8631    0.0000 H   0  0  0  0  0  0  0  0  0  0  0  0
  -12.7796   10.3761    0.0000 H   0  0  0  0  0  0  0  0  0  0  0  0
  -11.1096   11.3403    0.0000 H   0  0  0  0  0  0  0  0  0  0  0  0
  -12.3806    7.0868    0.0000 C   0  0  1  0  0  0  0  0  0  0  0  0
  -13.7901    7.5998    0.0000 H   0  0  0  0  0  0  0  0  0  0  0  0
  -10.4006    7.0868    0.0000 C   0  0  0  0  0  0  0  0  0  0  0  0
   -9.6506    8.3858    0.0000 O   0  0  0  0  0  0  0  0  0  0  0  0
   -9.6506    5.7878    0.0000 N   0  0  0  0  0  0  0  0  0  0  0  0
  -10.4006    4.4887    0.0000 H   0  0  0  0  0  0  0  0  0  0  0  0
   -7.6706    5.7878    0.0000 C   0  0  1  0  0  0  0  0  0  0  0  0
   -7.9311    7.2650    0.0000 H   0  0  0  0  0  0  0  0  0  0  0  0
   -6.2610    6.3008    0.0000 C   0  0  0  0  0  0  0  0  0  0  0  0
   -6.0006    4.8236    0.0000 H   0  0  0  0  0  0  0  0  0  0  0  0
   -4.7610    6.3008    0.0000 H   0  0  0  0  0  0  0  0  0  0  0  0
   -6.0006    7.7780    0.0000 C   0  0  0  0  0  0  0  0  0  0  0  0
   -7.1506    8.7424    0.0000 C   0  0  0  0  0  0  0  0  0  0  0  0
   -8.5600    8.2291    0.0000 H   0  0  0  0  0  0  0  0  0  0  0  0
   -6.8901   10.2196    0.0000 C   0  0  0  0  0  0  0  0  0  0  0  0
   -8.0390   11.1839    0.0000 H   0  0  0  0  0  0  0  0  0  0  0  0
   -5.4796   10.7324    0.0000 C   0  0  0  0  0  0  0  0  0  0  0  0
   -5.2192   12.2096    0.0000 H   0  0  0  0  0  0  0  0  0  0  0  0
   -4.3296    9.7681    0.0000 C   0  0  0  0  0  0  0  0  0  0  0  0
   -2.9202   10.2813    0.0000 H   0  0  0  0  0  0  0  0  0  0  0  0
   -4.5901    8.2909    0.0000 C   0  0  0  0  0  0  0  0  0  0  0  0
   -3.4412    7.3265    0.0000 H   0  0  0  0  0  0  0  0  0  0  0  0
   -6.6806    4.0730    0.0000 C   0  0  0  0  0  0  0  0  0  0  0  0
   -6.4201    2.5958    0.0000 H   0  0  0  0  0  0  0  0  0  0  0  0
   -8.0901    3.5600    0.0000 H   0  0  0  0  0  0  0  0  0  0  0  0
   -5.1806    4.0730    0.0000 C   0  0  1  0  0  0  0  0  0  0  0  0
   -5.4411    5.5503    0.0000 H   0  0  0  0  0  0  0  0  0  0  0  0
   -4.1906    2.3583    0.0000 C   0  0  2  0  0  0  0  0  0  0  0  0
   -3.9301    0.8811    0.0000 H   0  0  0  0  0  0  0  0  0  0  0  0
   -5.6001    1.8453    0.0000 C   0  0  0  0  0  0  0  0  0  0  0  0
   -7.1001    1.8453    0.0000 H   0  0  0  0  0  0  0  0  0  0  0  0
   -5.8606    3.3225    0.0000 H   0  0  0  0  0  0  0  0  0  0  0  0
   -5.8606    0.3681    0.0000 C   0  0  0  0  0  0  0  0  0  0  0  0
   -7.2711   -0.1448    0.0000 C   0  0  0  0  0  0  0  0  0  0  0  0
   -8.4200    0.8196    0.0000 H   0  0  0  0  0  0  0  0  0  0  0  0
   -7.5316   -1.6220    0.0000 C   0  0  0  0  0  0  0  0  0  0  0  0
   -8.9410   -2.1353    0.0000 H   0  0  0  0  0  0  0  0  0  0  0  0
   -6.3815   -2.5864    0.0000 C   0  0  0  0  0  0  0  0  0  0  0  0
   -6.6420   -4.0636    0.0000 H   0  0  0  0  0  0  0  0  0  0  0  0
   -4.9711   -2.0735    0.0000 C   0  0  0  0  0  0  0  0  0  0  0  0
   -3.8221   -3.0379    0.0000 H   0  0  0  0  0  0  0  0  0  0  0  0
   -4.7106   -0.5963    0.0000 C   0  0  0  0  0  0  0  0  0  0  0  0
   -3.3011   -0.0830    0.0000 H   0  0  0  0  0  0  0  0  0  0  0  0
   -2.2106    2.3583    0.0000 N   0  0  0  0  0  0  0  0  0  0  0  0
   -1.4606    3.6573    0.0000 H   0  0  0  0  0  0  0  0  0  0  0  0
   -1.4606    1.0593    0.0000 C   0  0  0  0  0  0  0  0  0  0  0  0
   -2.2106   -0.2398    0.0000 O   0  0  0  0  0  0  0  0  0  0  0  0
    0.0394    1.0593    0.0000 C   0  0  0  0  0  0  0  0  0  0  0  0
   -0.2211    2.5365    0.0000 H   0  0  0  0  0  0  0  0  0  0  0  0
    1.4490    1.5723    0.0000 O   0  0  0  0  0  0  0  0  0  0  0  0
    2.5980    0.6081    0.0000 H   0  0  0  0  0  0  0  0  0  0  0  0
    0.7894   -0.2398    0.0000 O   0  0  0  0  0  0  0  0  0  0  0  0
    2.7694   -0.2398    0.0000 C   0  0  0  0  0  0  0  0  0  0  0  0
    3.5088    1.0641    0.0000 C   0  0  0  0  0  0  0  0  0  0  0  0
    2.7466    2.3560    0.0000 C   0  0  0  0  0  0  0  0  0  0  0  0
    1.2467    2.3419    0.0000 H   0  0  0  0  0  0  0  0  0  0  0  0
    4.1513    2.8823    0.0000 H   0  0  0  0  0  0  0  0  0  0  0  0
    2.4722    3.8307    0.0000 H   0  0  0  0  0  0  0  0  0  0  0  0
    4.9891    1.0806    0.0000 C   0  0  0  0  0  0  0  0  0  0  0  0
    5.7286    2.3856    0.0000 H   0  0  0  0  0  0  0  0  0  0  0  0
    5.7292   -0.1868    0.0000 C   0  0  0  0  0  0  0  0  0  0  0  0
    7.2289   -0.1574    0.0000 H   0  0  0  0  0  0  0  0  0  0  0  0
    5.0301   -1.4994    0.0000 C   0  0  0  0  0  0  0  0  0  0  0  0
    5.8223   -2.7732    0.0000 H   0  0  0  0  0  0  0  0  0  0  0  0
    3.5108   -1.5471    0.0000 C   0  0  0  0  0  0  0  0  0  0  0  0
    2.7763   -2.8550    0.0000 C   0  0  0  0  0  0  0  0  0  0  0  0
    3.5416   -4.1450    0.0000 H   0  0  0  0  0  0  0  0  0  0  0  0
    1.6387   -3.8327    0.0000 H   0  0  0  0  0  0  0  0  0  0  0  0
    1.6159   -1.9045    0.0000 H   0  0  0  0  0  0  0  0  0  0  0  0
   -3.7710    4.5861    0.0000 O   0  0  0  0  0  0  0  0  0  0  0  0
   -3.5106    6.0633    0.0000 H   0  0  0  0  0  0  0  0  0  0  0  0
  -13.1306    5.7878    0.0000 N   0  0  0  0  0  0  0  0  0  0  0  0
  -12.3797    4.4883    0.0000 C   0  0  0  0  0  0  0  0  0  0  0  0
  -11.2309    5.4527    0.0000 H   0  0  0  0  0  0  0  0  0  0  0  0
  -11.2306    3.5242    0.0000 H   0  0  0  0  0  0  0  0  0  0  0  0
  -13.1297    3.1892    0.0000 C   0  0  0  0  0  0  0  0  0  0  0  0
  -11.7203    2.6760    0.0000 H   0  0  0  0  0  0  0  0  0  0  0  0
  -13.3905    1.7121    0.0000 H   0  0  0  0  0  0  0  0  0  0  0  0
  -14.6306    3.1897    0.0000 C   0  0  0  0  0  0  0  0  0  0  0  0
  -14.3703    1.7125    0.0000 H   0  0  0  0  0  0  0  0  0  0  0  0
  -16.0401    2.6765    0.0000 H   0  0  0  0  0  0  0  0  0  0  0  0
  -15.3814    4.4892    0.0000 N   0  0  0  0  0  0  0  0  0  0  0  0
  -16.8814    4.4890    0.0000 H   0  0  0  0  0  0  0  0  0  0  0  0
  -14.6314    5.7883    0.0000 C   0  0  0  0  0  0  0  0  0  0  0  0
  -15.3812    7.0874    0.0000 O   0  0  0  0  0  0  0  0  0  0  0  0
  1  2  1  0  0  0  0 
  1  3  1  0  0  0  0 
  1  4  1  0  0  0  0 
  1  5  1  0  0  0  0 
  5  6  1  0  0  0  0 
  5  7  1  0  0  0  0 
  7  8  1  0  0  0  0 
  7  9  1  0  0  0  0 
  7 10  1  0  0  0  0 
  5 11  1  0  0  0  0 
 11 12  1  6  0  0  0 
 11 13  1  0  0  0  0 
 13 14  2  0  0  0  0 
 13 15  1  0  0  0  0 
 15 16  1  0  0  0  0 
 17 15  1  1  0  0  0 
 17 18  1  6  0  0  0 
 17 19  1  0  0  0  0 
 19 20  1  0  0  0  0 
 19 21  1  0  0  0  0 
 19 22  1  0  0  0  0 
 22 23  2  0  0  0  0 
 23 24  1  0  0  0  0 
 23 25  1  0  0  0  0 
 25 26  1  0  0  0  0 
 25 27  2  0  0  0  0 
 27 28  1  0  0  0  0 
 27 29  1  0  0  0  0 
 29 30  1  0  0  0  0 
 29 31  2  0  0  0  0 
 22 31  1  0  0  0  0 
 31 32  1  0  0  0  0 
 17 33  1  0  0  0  0 
 33 34  1  0  0  0  0 
 33 35  1  0  0  0  0 
 33 36  1  0  0  0  0 
 36 37  1  1  0  0  0 
 36 38  1  0  0  0  0 
 38 39  1  6  0  0  0 
 38 40  1  0  0  0  0 
 40 41  1  0  0  0  0 
 40 42  1  0  0  0  0 
 40 43  1  0  0  0  0 
 43 44  2  0  0  0  0 
 44 45  1  0  0  0  0 
 44 46  1  0  0  0  0 
 46 47  1  0  0  0  0 
 46 48  2  0  0  0  0 
 48 49  1  0  0  0  0 
 48 50  1  0  0  0  0 
 50 51  1  0  0  0  0 
 50 52  2  0  0  0  0 
 43 52  1  0  0  0  0 
 52 53  1  0  0  0  0 
 38 54  1  1  0  0  0 
 54 55  1  0  0  0  0 
 54 56  1  0  0  0  0 
 56 57  2  0  0  0  0 
 56 58  1  0  0  0  0 
 58 59  1  0  0  0  0 
 58 60  1  0  0  0  0 
 60 61  1  0  0  0  0 
 58 62  1  0  0  0  0 
 62 63  1  0  0  0  0 
 63 64  2  0  0  0  0 
 64 65  1  0  0  0  0 
 65 66  1  0  0  0  0 
 65 67  1  0  0  0  0 
 65 68  1  0  0  0  0 
 64 69  1  0  0  0  0 
 69 70  1  0  0  0  0 
 69 71  2  0  0  0  0 
 71 72  1  0  0  0  0 
 71 73  1  0  0  0  0 
 73 74  1  0  0  0  0 
 73 75  2  0  0  0  0 
 63 75  1  0  0  0  0 
 75 76  1  0  0  0  0 
 76 77  1  0  0  0  0 
 76 78  1  0  0  0  0 
 76 79  1  0  0  0  0 
 36 80  1  6  0  0  0 
 80 81  1  0  0  0  0 
 11 82  1  1  0  0  0 
 82 83  1  0  0  0  0 
 83 84  1  0  0  0  0 
 83 85  1  0  0  0  0 
 83 86  1  0  0  0  0 
 86 87  1  0  0  0  0 
 86 88  1  0  0  0  0 
 86 89  1  0  0  0  0 
 89 90  1  0  0  0  0 
 89 91  1  0  0  0  0 
 89 92  1  0  0  0  0 
 92 93  1  0  0  0  0 
 92 94  1  0  0  0  0 
 82 94  1  0  0  0  0 
 94 95  2  0  0  0  0 
M  END
> <Rank>
2

> <Priority_score>
0.583765871786931

> <Reaction_type>
aliphatic hydroxylation

> <Parent_ID>
63

> <Parent_InChI>
InChI=1S/C37H48N4O5/c1-25(2)34(41-20-12-19-38-37(41)45)36(44)39-30(21-28-15-7-5-8-16-28)23-32(42)31(22-29-17-9-6-10-18-29)40-33(43)24-46-35-26(3)13-11-14-27(35)4/h5-11,13-18,25,30-32,34,42H,12,19-24H2,1-4H3,(H,38,45)(H,39,44)(H,40,43)

> <Parent_SMILES>
Cc1cccc(C)c1OCC(=O)N[C@@H](Cc1ccccc1)[C@@H](O)C[C@H](Cc1ccccc1)NC(=O)[C@H](C(C)C)N1CCCNC1=O

$$$$
Molecule 63_metabolite 5
  CDK     0516241031

 19 19  0  0  0  0  0  0  0  0999 V2000
   -0.4363    3.0475    0.0000 C   0  0  0  0  0  0  0  0  0  0  0  0
   -1.7515    3.7688    0.0000 H   0  0  0  0  0  0  0  0  0  0  0  0
    1.0463    2.8196    0.0000 H   0  0  0  0  0  0  0  0  0  0  0  0
    0.0456    4.4680    0.0000 H   0  0  0  0  0  0  0  0  0  0  0  0
   -0.4034    1.5479    0.0000 C   0  0  0  0  0  0  0  0  0  0  0  0
   -1.6701    0.7819    0.0000 C   0  0  0  0  0  0  0  0  0  0  0  0
   -2.9863    1.5014    0.0000 H   0  0  0  0  0  0  0  0  0  0  0  0
   -1.6313   -0.6853    0.0000 C   0  0  0  0  0  0  0  0  0  0  0  0
   -2.9214   -1.4506    0.0000 H   0  0  0  0  0  0  0  0  0  0  0  0
   -0.3454   -1.4324    0.0000 C   0  0  0  0  0  0  0  0  0  0  0  0
   -0.3475   -2.9324    0.0000 H   0  0  0  0  0  0  0  0  0  0  0  0
    0.9709   -0.6724    0.0000 C   0  0  0  0  0  0  0  0  0  0  0  0
    0.9121    0.8294    0.0000 C   0  0  0  0  0  0  0  0  0  0  0  0
    2.1870    1.6198    0.0000 O   0  0  0  0  0  0  0  0  0  0  0  0
    3.5089    0.9109    0.0000 H   0  0  0  0  0  0  0  0  0  0  0  0
    2.2844   -1.3969    0.0000 C   0  0  0  0  0  0  0  0  0  0  0  0
    2.3137   -2.8966    0.0000 H   0  0  0  0  0  0  0  0  0  0  0  0
    3.7664   -1.6284    0.0000 H   0  0  0  0  0  0  0  0  0  0  0  0
    2.7697    0.0224    0.0000 H   0  0  0  0  0  0  0  0  0  0  0  0
  1  2  1  0  0  0  0 
  1  3  1  0  0  0  0 
  1  4  1  0  0  0  0 
  1  5  1  0  0  0  0 
  5  6  2  0  0  0  0 
  6  7  1  0  0  0  0 
  6  8  1  0  0  0  0 
  8  9  1  0  0  0  0 
  8 10  2  0  0  0  0 
 10 11  1  0  0  0  0 
 10 12  1  0  0  0  0 
 12 13  2  0  0  0  0 
  5 13  1  0  0  0  0 
 13 14  1  0  0  0  0 
 14 15  1  0  0  0  0 
 12 16  1  0  0  0  0 
 16 17  1  0  0  0  0 
 16 18  1  0  0  0  0 
 16 19  1  0  0  0  0 
M  END
> <Rank>
2

> <Priority_score>
0.583765871786931

> <Reaction_type>
O-dealkylation_(aromatic)

> <Parent_ID>
63

> <Parent_InChI>
InChI=1S/C37H48N4O5/c1-25(2)34(41-20-12-19-38-37(41)45)36(44)39-30(21-28-15-7-5-8-16-28)23-32(42)31(22-29-17-9-6-10-18-29)40-33(43)24-46-35-26(3)13-11-14-27(35)4/h5-11,13-18,25,30-32,34,42H,12,19-24H2,1-4H3,(H,38,45)(H,39,44)(H,40,43)

> <Parent_SMILES>
Cc1cccc(C)c1OCC(=O)N[C@@H](Cc1ccccc1)[C@@H](O)C[C@H](Cc1ccccc1)NC(=O)[C@H](C(C)C)N1CCCNC1=O

$$$$
Molecule 63_metabolite 6
  CDK     0516241031

 95 98  0  0  0  0  0  0  0  0999 V2000
   -1.7861    8.4805    0.0000 C   0  0  0  0  0  0  0  0  0  0  0  0
   -0.3089    8.2200    0.0000 H   0  0  0  0  0  0  0  0  0  0  0  0
   -1.2731    9.8900    0.0000 H   0  0  0  0  0  0  0  0  0  0  0  0
   -3.0852    9.2305    0.0000 H   0  0  0  0  0  0  0  0  0  0  0  0
   -3.0588    6.9637    0.0000 C   0  0  0  0  0  0  0  0  0  0  0  0
   -3.5719    5.5542    0.0000 H   0  0  0  0  0  0  0  0  0  0  0  0
   -1.7598    6.2137    0.0000 C   0  0  0  0  0  0  0  0  0  0  0  0
   -1.7598    4.7137    0.0000 H   0  0  0  0  0  0  0  0  0  0  0  0
   -1.2468    7.6233    0.0000 H   0  0  0  0  0  0  0  0  0  0  0  0
   -0.2826    5.9532    0.0000 H   0  0  0  0  0  0  0  0  0  0  0  0
   -4.5361    7.2242    0.0000 C   0  0  1  0  0  0  0  0  0  0  0  0
   -4.0230    8.6337    0.0000 H   0  0  0  0  0  0  0  0  0  0  0  0
   -4.5361    5.2442    0.0000 C   0  0  0  0  0  0  0  0  0  0  0  0
   -3.2370    4.4942    0.0000 O   0  0  0  0  0  0  0  0  0  0  0  0
   -5.8351    4.4942    0.0000 N   0  0  0  0  0  0  0  0  0  0  0  0
   -7.1341    5.2442    0.0000 H   0  0  0  0  0  0  0  0  0  0  0  0
   -5.8351    2.9942    0.0000 C   0  0  1  0  0  0  0  0  0  0  0  0
   -7.3123    3.2547    0.0000 H   0  0  0  0  0  0  0  0  0  0  0  0
   -6.3481    1.5846    0.0000 C   0  0  0  0  0  0  0  0  0  0  0  0
   -4.8709    1.3242    0.0000 H   0  0  0  0  0  0  0  0  0  0  0  0
   -6.3481    0.0846    0.0000 H   0  0  0  0  0  0  0  0  0  0  0  0
   -7.8253    1.3242    0.0000 C   0  0  0  0  0  0  0  0  0  0  0  0
   -8.7838    2.4780    0.0000 C   0  0  0  0  0  0  0  0  0  0  0  0
   -8.2570    3.8824    0.0000 H   0  0  0  0  0  0  0  0  0  0  0  0
  -10.2400    2.2433    0.0000 C   0  0  0  0  0  0  0  0  0  0  0  0
  -11.1832    3.4097    0.0000 H   0  0  0  0  0  0  0  0  0  0  0  0
  -10.7991    0.8038    0.0000 C   0  0  0  0  0  0  0  0  0  0  0  0
   -9.8406   -0.3500    0.0000 C   0  0  0  0  0  0  0  0  0  0  0  0
  -10.3490   -1.7613    0.0000 H   0  0  0  0  0  0  0  0  0  0  0  0
   -8.3230   -0.0643    0.0000 C   0  0  0  0  0  0  0  0  0  0  0  0
   -7.3493   -1.2053    0.0000 H   0  0  0  0  0  0  0  0  0  0  0  0
  -12.2797    0.5628    0.0000 O   0  0  0  0  0  0  0  0  0  0  0  0
  -12.8112   -0.8399    0.0000 H   0  0  0  0  0  0  0  0  0  0  0  0
   -4.1204    2.0042    0.0000 C   0  0  0  0  0  0  0  0  0  0  0  0
   -2.6431    1.7437    0.0000 H   0  0  0  0  0  0  0  0  0  0  0  0
   -3.6073    3.4137    0.0000 H   0  0  0  0  0  0  0  0  0  0  0  0
   -4.1204    0.5042    0.0000 C   0  0  1  0  0  0  0  0  0  0  0  0
   -5.5976    0.7647    0.0000 H   0  0  0  0  0  0  0  0  0  0  0  0
   -1.5742   -0.9658    0.0000 C   0  0  2  0  0  0  0  0  0  0  0  0
   -0.6101   -2.1149    0.0000 H   0  0  0  0  0  0  0  0  0  0  0  0
   -2.5384   -2.1149    0.0000 C   0  0  0  0  0  0  0  0  0  0  0  0
   -3.8375   -2.8649    0.0000 H   0  0  0  0  0  0  0  0  0  0  0  0
   -3.5026   -0.9658    0.0000 H   0  0  0  0  0  0  0  0  0  0  0  0
   -2.0254   -3.5244    0.0000 C   0  0  0  0  0  0  0  0  0  0  0  0
   -2.9905   -4.6738    0.0000 C   0  0  0  0  0  0  0  0  0  0  0  0
   -4.4677   -4.4131    0.0000 H   0  0  0  0  0  0  0  0  0  0  0  0
   -2.4775   -6.0834    0.0000 C   0  0  0  0  0  0  0  0  0  0  0  0
   -3.4414   -7.2326    0.0000 H   0  0  0  0  0  0  0  0  0  0  0  0
   -0.9993   -6.3435    0.0000 C   0  0  0  0  0  0  0  0  0  0  0  0
   -0.4863   -7.7530    0.0000 H   0  0  0  0  0  0  0  0  0  0  0  0
   -0.0343   -5.1941    0.0000 C   0  0  0  0  0  0  0  0  0  0  0  0
    1.4429   -5.4548    0.0000 H   0  0  0  0  0  0  0  0  0  0  0  0
   -0.5473   -3.7846    0.0000 C   0  0  0  0  0  0  0  0  0  0  0  0
    0.4167   -2.6353    0.0000 H   0  0  0  0  0  0  0  0  0  0  0  0
    0.1405    0.0242    0.0000 N   0  0  0  0  0  0  0  0  0  0  0  0
    0.1405    1.5242    0.0000 H   0  0  0  0  0  0  0  0  0  0  0  0
    1.4395   -0.7258    0.0000 C   0  0  0  0  0  0  0  0  0  0  0  0
    1.4395   -2.2258    0.0000 O   0  0  0  0  0  0  0  0  0  0  0  0
    2.7386    0.0242    0.0000 C   0  0  0  0  0  0  0  0  0  0  0  0
    1.7744    1.1733    0.0000 H   0  0  0  0  0  0  0  0  0  0  0  0
    3.7027    1.1733    0.0000 H   0  0  0  0  0  0  0  0  0  0  0  0
    4.0376   -0.7258    0.0000 O   0  0  0  0  0  0  0  0  0  0  0  0
    5.3366    0.0242    0.0000 C   0  0  0  0  0  0  0  0  0  0  0  0
    5.3251    1.5231    0.0000 C   0  0  0  0  0  0  0  0  0  0  0  0
    4.0190    2.2608    0.0000 C   0  0  0  0  0  0  0  0  0  0  0  0
    2.7271    1.4986    0.0000 H   0  0  0  0  0  0  0  0  0  0  0  0
    4.9723    3.4189    0.0000 H   0  0  0  0  0  0  0  0  0  0  0  0
    3.0440    3.4007    0.0000 H   0  0  0  0  0  0  0  0  0  0  0  0
    6.5987    2.2775    0.0000 C   0  0  0  0  0  0  0  0  0  0  0  0
    6.5866    3.7774    0.0000 H   0  0  0  0  0  0  0  0  0  0  0  0
    7.8734    1.5499    0.0000 C   0  0  0  0  0  0  0  0  0  0  0  0
    9.1575    2.3252    0.0000 H   0  0  0  0  0  0  0  0  0  0  0  0
    7.9243    0.0636    0.0000 C   0  0  0  0  0  0  0  0  0  0  0  0
    9.2472   -0.6434    0.0000 H   0  0  0  0  0  0  0  0  0  0  0  0
    6.6324   -0.7373    0.0000 C   0  0  0  0  0  0  0  0  0  0  0  0
    6.6502   -2.2372    0.0000 C   0  0  0  0  0  0  0  0  0  0  0  0
    7.9580   -2.9718    0.0000 H   0  0  0  0  0  0  0  0  0  0  0  0
    6.1539   -3.6527    0.0000 H   0  0  0  0  0  0  0  0  0  0  0  0
    5.1700   -1.9943    0.0000 H   0  0  0  0  0  0  0  0  0  0  0  0
   -4.6334   -0.9054    0.0000 O   0  0  0  0  0  0  0  0  0  0  0  0
   -6.1106   -1.1658    0.0000 H   0  0  0  0  0  0  0  0  0  0  0  0
   -5.8351    7.9742    0.0000 N   0  0  0  0  0  0  0  0  0  0  0  0
   -7.1346    7.2234    0.0000 C   0  0  0  0  0  0  0  0  0  0  0  0
   -6.1702    6.0745    0.0000 H   0  0  0  0  0  0  0  0  0  0  0  0
   -8.0987    6.0742    0.0000 H   0  0  0  0  0  0  0  0  0  0  0  0
   -8.4336    7.9734    0.0000 C   0  0  0  0  0  0  0  0  0  0  0  0
   -8.9468    6.5639    0.0000 H   0  0  0  0  0  0  0  0  0  0  0  0
   -9.9108    8.2341    0.0000 H   0  0  0  0  0  0  0  0  0  0  0  0
   -8.4332    9.4742    0.0000 C   0  0  0  0  0  0  0  0  0  0  0  0
   -9.9104    9.2139    0.0000 H   0  0  0  0  0  0  0  0  0  0  0  0
   -8.9463   10.8837    0.0000 H   0  0  0  0  0  0  0  0  0  0  0  0
   -7.1336   10.2250    0.0000 N   0  0  0  0  0  0  0  0  0  0  0  0
   -7.1339   11.7250    0.0000 H   0  0  0  0  0  0  0  0  0  0  0  0
   -5.8346    9.4750    0.0000 C   0  0  0  0  0  0  0  0  0  0  0  0
   -4.5355   10.2248    0.0000 O   0  0  0  0  0  0  0  0  0  0  0  0
  1  2  1  0  0  0  0 
  1  3  1  0  0  0  0 
  1  4  1  0  0  0  0 
  1  5  1  0  0  0  0 
  5  6  1  0  0  0  0 
  5  7  1  0  0  0  0 
  7  8  1  0  0  0  0 
  7  9  1  0  0  0  0 
  7 10  1  0  0  0  0 
  5 11  1  0  0  0  0 
 11 12  1  6  0  0  0 
 11 13  1  0  0  0  0 
 13 14  2  0  0  0  0 
 13 15  1  0  0  0  0 
 15 16  1  0  0  0  0 
 17 15  1  6  0  0  0 
 17 18  1  1  0  0  0 
 17 19  1  0  0  0  0 
 19 20  1  0  0  0  0 
 19 21  1  0  0  0  0 
 19 22  1  0  0  0  0 
 22 23  2  0  0  0  0 
 23 24  1  0  0  0  0 
 23 25  1  0  0  0  0 
 25 26  1  0  0  0  0 
 25 27  2  0  0  0  0 
 27 28  1  0  0  0  0 
 28 29  1  0  0  0  0 
 28 30  2  0  0  0  0 
 22 30  1  0  0  0  0 
 30 31  1  0  0  0  0 
 27 32  1  0  0  0  0 
 32 33  1  0  0  0  0 
 17 34  1  0  0  0  0 
 34 35  1  0  0  0  0 
 34 36  1  0  0  0  0 
 34 37  1  0  0  0  0 
 37 38  1  6  0  0  0 
 37 39  1  0  0  0  0 
 39 40  1  6  0  0  0 
 39 41  1  0  0  0  0 
 41 42  1  0  0  0  0 
 41 43  1  0  0  0  0 
 41 44  1  0  0  0  0 
 44 45  2  0  0  0  0 
 45 46  1  0  0  0  0 
 45 47  1  0  0  0  0 
 47 48  1  0  0  0  0 
 47 49  2  0  0  0  0 
 49 50  1  0  0  0  0 
 49 51  1  0  0  0  0 
 51 52  1  0  0  0  0 
 51 53  2  0  0  0  0 
 44 53  1  0  0  0  0 
 53 54  1  0  0  0  0 
 39 55  1  1  0  0  0 
 55 56  1  0  0  0  0 
 55 57  1  0  0  0  0 
 57 58  2  0  0  0  0 
 57 59  1  0  0  0  0 
 59 60  1  0  0  0  0 
 59 61  1  0  0  0  0 
 59 62  1  0  0  0  0 
 62 63  1  0  0  0  0 
 63 64  2  0  0  0  0 
 64 65  1  0  0  0  0 
 65 66  1  0  0  0  0 
 65 67  1  0  0  0  0 
 65 68  1  0  0  0  0 
 64 69  1  0  0  0  0 
 69 70  1  0  0  0  0 
 69 71  2  0  0  0  0 
 71 72  1  0  0  0  0 
 71 73  1  0  0  0  0 
 73 74  1  0  0  0  0 
 73 75  2  0  0  0  0 
 63 75  1  0  0  0  0 
 75 76  1  0  0  0  0 
 76 77  1  0  0  0  0 
 76 78  1  0  0  0  0 
 76 79  1  0  0  0  0 
 37 80  1  1  0  0  0 
 80 81  1  0  0  0  0 
 11 82  1  1  0  0  0 
 82 83  1  0  0  0  0 
 83 84  1  0  0  0  0 
 83 85  1  0  0  0  0 
 83 86  1  0  0  0  0 
 86 87  1  0  0  0  0 
 86 88  1  0  0  0  0 
 86 89  1  0  0  0  0 
 89 90  1  0  0  0  0 
 89 91  1  0  0  0  0 
 89 92  1  0  0  0  0 
 92 93  1  0  0  0  0 
 92 94  1  0  0  0  0 
 82 94  1  0  0  0  0 
 94 95  2  0  0  0  0 
M  END
> <Rank>
6

> <Priority_score>
0.15699035021950136

> <Reaction_type>
aromatic_hydroxylation_(para_to_carbon)

> <Parent_ID>
63

> <Parent_InChI>
InChI=1S/C37H48N4O5/c1-25(2)34(41-20-12-19-38-37(41)45)36(44)39-30(21-28-15-7-5-8-16-28)23-32(42)31(22-29-17-9-6-10-18-29)40-33(43)24-46-35-26(3)13-11-14-27(35)4/h5-11,13-18,25,30-32,34,42H,12,19-24H2,1-4H3,(H,38,45)(H,39,44)(H,40,43)

> <Parent_SMILES>
Cc1cccc(C)c1OCC(=O)N[C@@H](Cc1ccccc1)[C@@H](O)C[C@H](Cc1ccccc1)NC(=O)[C@H](C(C)C)N1CCCNC1=O

$$$$
Molecule 63_metabolite 7
  CDK     0516241031

 99102  0  0  0  0  0  0  0  0999 V2000
  -12.9148    9.5946    0.0000 C   0  0  0  0  0  0  0  0  0  0  0  0
  -12.6543   11.0719    0.0000 H   0  0  0  0  0  0  0  0  0  0  0  0
  -14.3243   10.1077    0.0000 H   0  0  0  0  0  0  0  0  0  0  0  0
  -13.6648    8.2956    0.0000 H   0  0  0  0  0  0  0  0  0  0  0  0
  -11.3980    8.3219    0.0000 C   0  0  0  0  0  0  0  0  0  0  0  0
   -9.9885    7.8089    0.0000 H   0  0  0  0  0  0  0  0  0  0  0  0
  -10.6480    9.6210    0.0000 C   0  0  0  0  0  0  0  0  0  0  0  0
   -9.1480    9.6210    0.0000 H   0  0  0  0  0  0  0  0  0  0  0  0
  -12.0576   10.1340    0.0000 H   0  0  0  0  0  0  0  0  0  0  0  0
  -10.3875   11.0982    0.0000 H   0  0  0  0  0  0  0  0  0  0  0  0
  -11.6585    6.8447    0.0000 C   0  0  1  0  0  0  0  0  0  0  0  0
  -13.0680    7.3577    0.0000 H   0  0  0  0  0  0  0  0  0  0  0  0
   -9.6785    6.8447    0.0000 C   0  0  0  0  0  0  0  0  0  0  0  0
   -8.9285    8.1438    0.0000 O   0  0  0  0  0  0  0  0  0  0  0  0
   -8.9285    5.5457    0.0000 N   0  0  0  0  0  0  0  0  0  0  0  0
   -9.6785    4.2466    0.0000 H   0  0  0  0  0  0  0  0  0  0  0  0
   -6.9485    5.5457    0.0000 C   0  0  1  0  0  0  0  0  0  0  0  0
   -7.2090    7.0229    0.0000 H   0  0  0  0  0  0  0  0  0  0  0  0
   -5.5390    6.0587    0.0000 C   0  0  0  0  0  0  0  0  0  0  0  0
   -5.2785    4.5815    0.0000 H   0  0  0  0  0  0  0  0  0  0  0  0
   -4.0390    6.0587    0.0000 H   0  0  0  0  0  0  0  0  0  0  0  0
   -5.2785    7.5359    0.0000 C   0  0  0  0  0  0  0  0  0  0  0  0
   -6.4285    8.5003    0.0000 C   0  0  0  0  0  0  0  0  0  0  0  0
   -7.8380    7.9870    0.0000 H   0  0  0  0  0  0  0  0  0  0  0  0
   -6.1680    9.9775    0.0000 C   0  0  0  0  0  0  0  0  0  0  0  0
   -7.3169   10.9418    0.0000 H   0  0  0  0  0  0  0  0  0  0  0  0
   -4.7575   10.4903    0.0000 C   0  0  0  0  0  0  0  0  0  0  0  0
   -3.6075    9.5260    0.0000 C   0  0  0  0  0  0  0  0  0  0  0  0
   -3.8680    8.0488    0.0000 C   0  0  0  0  0  0  0  0  0  0  0  0
   -2.7191    7.0844    0.0000 H   0  0  0  0  0  0  0  0  0  0  0  0
   -2.1981   10.0393    0.0000 O   0  0  0  0  0  0  0  0  0  0  0  0
   -1.9378   11.5165    0.0000 C   0  0  0  0  0  0  0  0  0  0  0  0
   -3.0871   12.4805    0.0000 H   0  0  0  0  0  0  0  0  0  0  0  0
   -0.5282   11.0037    0.0000 H   0  0  0  0  0  0  0  0  0  0  0  0
   -1.1880   12.8157    0.0000 H   0  0  0  0  0  0  0  0  0  0  0  0
   -4.4971   11.9676    0.0000 O   0  0  0  0  0  0  0  0  0  0  0  0
   -5.6461   12.9317    0.0000 H   0  0  0  0  0  0  0  0  0  0  0  0
   -5.9585    3.8309    0.0000 C   0  0  0  0  0  0  0  0  0  0  0  0
   -5.6980    2.3537    0.0000 H   0  0  0  0  0  0  0  0  0  0  0  0
   -7.3680    3.3179    0.0000 H   0  0  0  0  0  0  0  0  0  0  0  0
   -4.4585    3.8309    0.0000 C   0  0  1  0  0  0  0  0  0  0  0  0
   -4.7190    5.3082    0.0000 H   0  0  0  0  0  0  0  0  0  0  0  0
   -3.4685    2.1162    0.0000 C   0  0  2  0  0  0  0  0  0  0  0  0
   -3.2080    0.6390    0.0000 H   0  0  0  0  0  0  0  0  0  0  0  0
   -4.8780    1.6032    0.0000 C   0  0  0  0  0  0  0  0  0  0  0  0
   -6.3780    1.6032    0.0000 H   0  0  0  0  0  0  0  0  0  0  0  0
   -5.1385    3.0804    0.0000 H   0  0  0  0  0  0  0  0  0  0  0  0
   -5.1385    0.1260    0.0000 C   0  0  0  0  0  0  0  0  0  0  0  0
   -6.5490   -0.3869    0.0000 C   0  0  0  0  0  0  0  0  0  0  0  0
   -7.6979    0.5775    0.0000 H   0  0  0  0  0  0  0  0  0  0  0  0
   -6.8095   -1.8641    0.0000 C   0  0  0  0  0  0  0  0  0  0  0  0
   -8.2189   -2.3774    0.0000 H   0  0  0  0  0  0  0  0  0  0  0  0
   -5.6594   -2.8284    0.0000 C   0  0  0  0  0  0  0  0  0  0  0  0
   -5.9199   -4.3057    0.0000 H   0  0  0  0  0  0  0  0  0  0  0  0
   -4.2490   -2.3156    0.0000 C   0  0  0  0  0  0  0  0  0  0  0  0
   -3.1000   -3.2799    0.0000 H   0  0  0  0  0  0  0  0  0  0  0  0
   -3.9885   -0.8384    0.0000 C   0  0  0  0  0  0  0  0  0  0  0  0
   -2.5790   -0.3251    0.0000 H   0  0  0  0  0  0  0  0  0  0  0  0
   -1.4885    2.1162    0.0000 N   0  0  0  0  0  0  0  0  0  0  0  0
   -0.7385    3.4153    0.0000 H   0  0  0  0  0  0  0  0  0  0  0  0
   -0.7385    0.8172    0.0000 C   0  0  0  0  0  0  0  0  0  0  0  0
   -1.4885   -0.4819    0.0000 O   0  0  0  0  0  0  0  0  0  0  0  0
    0.7615    0.8172    0.0000 C   0  0  0  0  0  0  0  0  0  0  0  0
    0.5010    2.2944    0.0000 H   0  0  0  0  0  0  0  0  0  0  0  0
    2.1710    1.3302    0.0000 H   0  0  0  0  0  0  0  0  0  0  0  0
    1.5115   -0.4819    0.0000 O   0  0  0  0  0  0  0  0  0  0  0  0
    3.0115   -0.4819    0.0000 C   0  0  0  0  0  0  0  0  0  0  0  0
    3.7509    0.8220    0.0000 C   0  0  0  0  0  0  0  0  0  0  0  0
    2.9887    2.1139    0.0000 C   0  0  0  0  0  0  0  0  0  0  0  0
    1.4888    2.0998    0.0000 H   0  0  0  0  0  0  0  0  0  0  0  0
    4.3934    2.6402    0.0000 H   0  0  0  0  0  0  0  0  0  0  0  0
    2.7143    3.5886    0.0000 H   0  0  0  0  0  0  0  0  0  0  0  0
    5.2311    0.8385    0.0000 C   0  0  0  0  0  0  0  0  0  0  0  0
    5.9707    2.1435    0.0000 H   0  0  0  0  0  0  0  0  0  0  0  0
    5.9713   -0.4289    0.0000 C   0  0  0  0  0  0  0  0  0  0  0  0
    7.4710   -0.3995    0.0000 H   0  0  0  0  0  0  0  0  0  0  0  0
    5.2722   -1.7415    0.0000 C   0  0  0  0  0  0  0  0  0  0  0  0
    6.0644   -3.0152    0.0000 H   0  0  0  0  0  0  0  0  0  0  0  0
    3.7529   -1.7892    0.0000 C   0  0  0  0  0  0  0  0  0  0  0  0
    3.0184   -3.0971    0.0000 C   0  0  0  0  0  0  0  0  0  0  0  0
    3.7837   -4.3871    0.0000 H   0  0  0  0  0  0  0  0  0  0  0  0
    1.8808   -4.0748    0.0000 H   0  0  0  0  0  0  0  0  0  0  0  0
    1.8580   -2.1465    0.0000 H   0  0  0  0  0  0  0  0  0  0  0  0
   -3.0490    4.3440    0.0000 O   0  0  0  0  0  0  0  0  0  0  0  0
   -2.7885    5.8212    0.0000 H   0  0  0  0  0  0  0  0  0  0  0  0
  -12.4085    5.5457    0.0000 N   0  0  0  0  0  0  0  0  0  0  0  0
  -11.6577    4.2462    0.0000 C   0  0  0  0  0  0  0  0  0  0  0  0
  -10.5088    5.2106    0.0000 H   0  0  0  0  0  0  0  0  0  0  0  0
  -10.5085    3.2821    0.0000 H   0  0  0  0  0  0  0  0  0  0  0  0
  -12.4077    2.9471    0.0000 C   0  0  0  0  0  0  0  0  0  0  0  0
  -10.9982    2.4339    0.0000 H   0  0  0  0  0  0  0  0  0  0  0  0
  -12.6684    1.4700    0.0000 H   0  0  0  0  0  0  0  0  0  0  0  0
  -13.9085    2.9476    0.0000 C   0  0  0  0  0  0  0  0  0  0  0  0
  -13.6482    1.4704    0.0000 H   0  0  0  0  0  0  0  0  0  0  0  0
  -15.3180    2.4344    0.0000 H   0  0  0  0  0  0  0  0  0  0  0  0
  -14.6593    4.2471    0.0000 N   0  0  0  0  0  0  0  0  0  0  0  0
  -16.1593    4.2469    0.0000 H   0  0  0  0  0  0  0  0  0  0  0  0
  -13.9093    5.5462    0.0000 C   0  0  0  0  0  0  0  0  0  0  0  0
  -14.6591    6.8453    0.0000 O   0  0  0  0  0  0  0  0  0  0  0  0
  1  2  1  0  0  0  0 
  1  3  1  0  0  0  0 
  1  4  1  0  0  0  0 
  1  5  1  0  0  0  0 
  5  6  1  0  0  0  0 
  5  7  1  0  0  0  0 
  7  8  1  0  0  0  0 
  7  9  1  0  0  0  0 
  7 10  1  0  0  0  0 
  5 11  1  0  0  0  0 
 11 12  1  6  0  0  0 
 11 13  1  0  0  0  0 
 13 14  2  0  0  0  0 
 13 15  1  0  0  0  0 
 15 16  1  0  0  0  0 
 17 15  1  1  0  0  0 
 17 18  1  6  0  0  0 
 17 19  1  0  0  0  0 
 19 20  1  0  0  0  0 
 19 21  1  0  0  0  0 
 19 22  1  0  0  0  0 
 22 23  2  0  0  0  0 
 23 24  1  0  0  0  0 
 23 25  1  0  0  0  0 
 25 26  1  0  0  0  0 
 25 27  2  0  0  0  0 
 27 28  1  0  0  0  0 
 28 29  2  0  0  0  0 
 22 29  1  0  0  0  0 
 29 30  1  0  0  0  0 
 28 31  1  0  0  0  0 
 31 32  1  0  0  0  0 
 32 33  1  0  0  0  0 
 32 34  1  0  0  0  0 
 32 35  1  0  0  0  0 
 27 36  1  0  0  0  0 
 36 37  1  0  0  0  0 
 17 38  1  0  0  0  0 
 38 39  1  0  0  0  0 
 38 40  1  0  0  0  0 
 38 41  1  0  0  0  0 
 41 42  1  1  0  0  0 
 41 43  1  0  0  0  0 
 43 44  1  6  0  0  0 
 43 45  1  0  0  0  0 
 45 46  1  0  0  0  0 
 45 47  1  0  0  0  0 
 45 48  1  0  0  0  0 
 48 49  2  0  0  0  0 
 49 50  1  0  0  0  0 
 49 51  1  0  0  0  0 
 51 52  1  0  0  0  0 
 51 53  2  0  0  0  0 
 53 54  1  0  0  0  0 
 53 55  1  0  0  0  0 
 55 56  1  0  0  0  0 
 55 57  2  0  0  0  0 
 48 57  1  0  0  0  0 
 57 58  1  0  0  0  0 
 43 59  1  1  0  0  0 
 59 60  1  0  0  0  0 
 59 61  1  0  0  0  0 
 61 62  2  0  0  0  0 
 61 63  1  0  0  0  0 
 63 64  1  0  0  0  0 
 63 65  1  0  0  0  0 
 63 66  1  0  0  0  0 
 66 67  1  0  0  0  0 
 67 68  2  0  0  0  0 
 68 69  1  0  0  0  0 
 69 70  1  0  0  0  0 
 69 71  1  0  0  0  0 
 69 72  1  0  0  0  0 
 68 73  1  0  0  0  0 
 73 74  1  0  0  0  0 
 73 75  2  0  0  0  0 
 75 76  1  0  0  0  0 
 75 77  1  0  0  0  0 
 77 78  1  0  0  0  0 
 77 79  2  0  0  0  0 
 67 79  1  0  0  0  0 
 79 80  1  0  0  0  0 
 80 81  1  0  0  0  0 
 80 82  1  0  0  0  0 
 80 83  1  0  0  0  0 
 41 84  1  6  0  0  0 
 84 85  1  0  0  0  0 
 11 86  1  1  0  0  0 
 86 87  1  0  0  0  0 
 87 88  1  0  0  0  0 
 87 89  1  0  0  0  0 
 87 90  1  0  0  0  0 
 90 91  1  0  0  0  0 
 90 92  1  0  0  0  0 
 90 93  1  0  0  0  0 
 93 94  1  0  0  0  0 
 93 95  1  0  0  0  0 
 93 96  1  0  0  0  0 
 96 97  1  0  0  0  0 
 96 98  1  0  0  0  0 
 86 98  1  0  0  0  0 
 98 99  2  0  0  0  0 
M  END
> <Rank>
6

> <Priority_score>
0.15699035021950136

> <Reaction_type>
aromatic_oxidation

> <Parent_ID>
63

> <Parent_InChI>
InChI=1S/C37H48N4O5/c1-25(2)34(41-20-12-19-38-37(41)45)36(44)39-30(21-28-15-7-5-8-16-28)23-32(42)31(22-29-17-9-6-10-18-29)40-33(43)24-46-35-26(3)13-11-14-27(35)4/h5-11,13-18,25,30-32,34,42H,12,19-24H2,1-4H3,(H,38,45)(H,39,44)(H,40,43)

> <Parent_SMILES>
Cc1cccc(C)c1OCC(=O)N[C@@H](Cc1ccccc1)[C@@H](O)C[C@H](Cc1ccccc1)NC(=O)[C@H](C(C)C)N1CCCNC1=O

$$$$
Molecule 63_metabolite 8
  CDK     0516241031

 95 98  0  0  0  0  0  0  0  0999 V2000
  -13.4004   10.0803    0.0000 C   0  0  0  0  0  0  0  0  0  0  0  0
  -13.1399   11.5575    0.0000 H   0  0  0  0  0  0  0  0  0  0  0  0
  -14.8100   10.5933    0.0000 H   0  0  0  0  0  0  0  0  0  0  0  0
  -14.1504    8.7812    0.0000 H   0  0  0  0  0  0  0  0  0  0  0  0
  -11.8836    8.8076    0.0000 C   0  0  0  0  0  0  0  0  0  0  0  0
  -10.4741    8.2945    0.0000 H   0  0  0  0  0  0  0  0  0  0  0  0
  -11.1336   10.1066    0.0000 C   0  0  0  0  0  0  0  0  0  0  0  0
   -9.6336   10.1066    0.0000 H   0  0  0  0  0  0  0  0  0  0  0  0
  -12.5432   10.6196    0.0000 H   0  0  0  0  0  0  0  0  0  0  0  0
  -10.8732   11.5838    0.0000 H   0  0  0  0  0  0  0  0  0  0  0  0
  -12.1441    7.3303    0.0000 C   0  0  1  0  0  0  0  0  0  0  0  0
  -13.5537    7.8434    0.0000 H   0  0  0  0  0  0  0  0  0  0  0  0
  -10.1641    7.3303    0.0000 C   0  0  0  0  0  0  0  0  0  0  0  0
   -9.4141    8.6294    0.0000 O   0  0  0  0  0  0  0  0  0  0  0  0
   -9.4141    6.0313    0.0000 N   0  0  0  0  0  0  0  0  0  0  0  0
  -10.1641    4.7323    0.0000 H   0  0  0  0  0  0  0  0  0  0  0  0
   -7.4341    6.0313    0.0000 C   0  0  1  0  0  0  0  0  0  0  0  0
   -7.6946    7.5085    0.0000 H   0  0  0  0  0  0  0  0  0  0  0  0
   -6.0246    6.5443    0.0000 C   0  0  0  0  0  0  0  0  0  0  0  0
   -5.7641    5.0671    0.0000 H   0  0  0  0  0  0  0  0  0  0  0  0
   -4.5246    6.5443    0.0000 H   0  0  0  0  0  0  0  0  0  0  0  0
   -5.7641    8.0215    0.0000 C   0  0  0  0  0  0  0  0  0  0  0  0
   -6.9137    8.9864    0.0000 C   0  0  0  0  0  0  0  0  0  0  0  0
   -8.3240    8.4756    0.0000 H   0  0  0  0  0  0  0  0  0  0  0  0
   -6.6503   10.4552    0.0000 C   0  0  0  0  0  0  0  0  0  0  0  0
   -7.7981   11.4209    0.0000 H   0  0  0  0  0  0  0  0  0  0  0  0
   -5.2409   10.9685    0.0000 C   0  0  0  0  0  0  0  0  0  0  0  0
   -4.9829   12.4461    0.0000 H   0  0  0  0  0  0  0  0  0  0  0  0
   -4.0947   10.0130    0.0000 C   0  0  0  0  0  0  0  0  0  0  0  0
   -4.3546    8.5348    0.0000 C   0  0  0  0  0  0  0  0  0  0  0  0
   -3.2053    7.5710    0.0000 H   0  0  0  0  0  0  0  0  0  0  0  0
   -2.6861   10.5286    0.0000 O   0  0  0  0  0  0  0  0  0  0  0  0
   -2.4284   12.0063    0.0000 H   0  0  0  0  0  0  0  0  0  0  0  0
   -6.4441    4.3166    0.0000 C   0  0  0  0  0  0  0  0  0  0  0  0
   -6.1836    2.8394    0.0000 H   0  0  0  0  0  0  0  0  0  0  0  0
   -7.8537    3.8035    0.0000 H   0  0  0  0  0  0  0  0  0  0  0  0
   -4.9441    4.3166    0.0000 C   0  0  1  0  0  0  0  0  0  0  0  0
   -5.2046    5.7938    0.0000 H   0  0  0  0  0  0  0  0  0  0  0  0
   -3.9541    2.6018    0.0000 C   0  0  2  0  0  0  0  0  0  0  0  0
   -3.6936    1.1246    0.0000 H   0  0  0  0  0  0  0  0  0  0  0  0
   -5.3637    2.0888    0.0000 C   0  0  0  0  0  0  0  0  0  0  0  0
   -6.8637    2.0888    0.0000 H   0  0  0  0  0  0  0  0  0  0  0  0
   -5.6241    3.5660    0.0000 H   0  0  0  0  0  0  0  0  0  0  0  0
   -5.6241    0.6116    0.0000 C   0  0  0  0  0  0  0  0  0  0  0  0
   -7.0346    0.0987    0.0000 C   0  0  0  0  0  0  0  0  0  0  0  0
   -8.1835    1.0631    0.0000 H   0  0  0  0  0  0  0  0  0  0  0  0
   -7.2951   -1.3785    0.0000 C   0  0  0  0  0  0  0  0  0  0  0  0
   -8.7045   -1.8917    0.0000 H   0  0  0  0  0  0  0  0  0  0  0  0
   -6.1451   -2.3428    0.0000 C   0  0  0  0  0  0  0  0  0  0  0  0
   -6.4055   -3.8200    0.0000 H   0  0  0  0  0  0  0  0  0  0  0  0
   -4.7346   -1.8300    0.0000 C   0  0  0  0  0  0  0  0  0  0  0  0
   -3.5857   -2.7943    0.0000 H   0  0  0  0  0  0  0  0  0  0  0  0
   -4.4741   -0.3527    0.0000 C   0  0  0  0  0  0  0  0  0  0  0  0
   -3.0647    0.1605    0.0000 H   0  0  0  0  0  0  0  0  0  0  0  0
   -1.9741    2.6018    0.0000 N   0  0  0  0  0  0  0  0  0  0  0  0
   -1.2241    3.9009    0.0000 H   0  0  0  0  0  0  0  0  0  0  0  0
   -1.2241    1.3028    0.0000 C   0  0  0  0  0  0  0  0  0  0  0  0
   -1.9741    0.0038    0.0000 O   0  0  0  0  0  0  0  0  0  0  0  0
    0.2759    1.3028    0.0000 C   0  0  0  0  0  0  0  0  0  0  0  0
    0.0154    2.7800    0.0000 H   0  0  0  0  0  0  0  0  0  0  0  0
    1.6854    1.8158    0.0000 H   0  0  0  0  0  0  0  0  0  0  0  0
    1.0259    0.0038    0.0000 O   0  0  0  0  0  0  0  0  0  0  0  0
    2.5259    0.0038    0.0000 C   0  0  0  0  0  0  0  0  0  0  0  0
    3.2653    1.3076    0.0000 C   0  0  0  0  0  0  0  0  0  0  0  0
    2.5031    2.5995    0.0000 C   0  0  0  0  0  0  0  0  0  0  0  0
    1.0032    2.5854    0.0000 H   0  0  0  0  0  0  0  0  0  0  0  0
    3.9077    3.1258    0.0000 H   0  0  0  0  0  0  0  0  0  0  0  0
    2.2287    4.0742    0.0000 H   0  0  0  0  0  0  0  0  0  0  0  0
    4.7455    1.3241    0.0000 C   0  0  0  0  0  0  0  0  0  0  0  0
    5.4850    2.6292    0.0000 H   0  0  0  0  0  0  0  0  0  0  0  0
    5.4857    0.0567    0.0000 C   0  0  0  0  0  0  0  0  0  0  0  0
    6.9854    0.0861    0.0000 H   0  0  0  0  0  0  0  0  0  0  0  0
    4.7865   -1.2559    0.0000 C   0  0  0  0  0  0  0  0  0  0  0  0
    5.5787   -2.5296    0.0000 H   0  0  0  0  0  0  0  0  0  0  0  0
    3.2673   -1.3036    0.0000 C   0  0  0  0  0  0  0  0  0  0  0  0
    2.5327   -2.6114    0.0000 C   0  0  0  0  0  0  0  0  0  0  0  0
    3.2981   -3.9015    0.0000 H   0  0  0  0  0  0  0  0  0  0  0  0
    1.3952   -3.5891    0.0000 H   0  0  0  0  0  0  0  0  0  0  0  0
    1.3723   -1.6609    0.0000 H   0  0  0  0  0  0  0  0  0  0  0  0
   -3.5346    4.8296    0.0000 O   0  0  0  0  0  0  0  0  0  0  0  0
   -3.2741    6.3068    0.0000 H   0  0  0  0  0  0  0  0  0  0  0  0
  -12.8941    6.0313    0.0000 N   0  0  0  0  0  0  0  0  0  0  0  0
  -12.1433    4.7318    0.0000 C   0  0  0  0  0  0  0  0  0  0  0  0
  -10.9944    5.6962    0.0000 H   0  0  0  0  0  0  0  0  0  0  0  0
  -10.9941    3.7677    0.0000 H   0  0  0  0  0  0  0  0  0  0  0  0
  -12.8933    3.4327    0.0000 C   0  0  0  0  0  0  0  0  0  0  0  0
  -11.4838    2.9196    0.0000 H   0  0  0  0  0  0  0  0  0  0  0  0
  -13.1541    1.9556    0.0000 H   0  0  0  0  0  0  0  0  0  0  0  0
  -14.3941    3.4332    0.0000 C   0  0  0  0  0  0  0  0  0  0  0  0
  -14.1338    1.9560    0.0000 H   0  0  0  0  0  0  0  0  0  0  0  0
  -15.8036    2.9200    0.0000 H   0  0  0  0  0  0  0  0  0  0  0  0
  -15.1449    4.7327    0.0000 N   0  0  0  0  0  0  0  0  0  0  0  0
  -16.6450    4.7325    0.0000 H   0  0  0  0  0  0  0  0  0  0  0  0
  -14.3949    6.0318    0.0000 C   0  0  0  0  0  0  0  0  0  0  0  0
  -15.1447    7.3309    0.0000 O   0  0  0  0  0  0  0  0  0  0  0  0
  1  2  1  0  0  0  0 
  1  3  1  0  0  0  0 
  1  4  1  0  0  0  0 
  1  5  1  0  0  0  0 
  5  6  1  0  0  0  0 
  5  7  1  0  0  0  0 
  7  8  1  0  0  0  0 
  7  9  1  0  0  0  0 
  7 10  1  0  0  0  0 
  5 11  1  0  0  0  0 
 11 12  1  6  0  0  0 
 11 13  1  0  0  0  0 
 13 14  2  0  0  0  0 
 13 15  1  0  0  0  0 
 15 16  1  0  0  0  0 
 17 15  1  1  0  0  0 
 17 18  1  6  0  0  0 
 17 19  1  0  0  0  0 
 19 20  1  0  0  0  0 
 19 21  1  0  0  0  0 
 19 22  1  0  0  0  0 
 22 23  2  0  0  0  0 
 23 24  1  0  0  0  0 
 23 25  1  0  0  0  0 
 25 26  1  0  0  0  0 
 25 27  2  0  0  0  0 
 27 28  1  0  0  0  0 
 27 29  1  0  0  0  0 
 29 30  2  0  0  0  0 
 22 30  1  0  0  0  0 
 30 31  1  0  0  0  0 
 29 32  1  0  0  0  0 
 32 33  1  0  0  0  0 
 17 34  1  0  0  0  0 
 34 35  1  0  0  0  0 
 34 36  1  0  0  0  0 
 34 37  1  0  0  0  0 
 37 38  1  1  0  0  0 
 37 39  1  0  0  0  0 
 39 40  1  6  0  0  0 
 39 41  1  0  0  0  0 
 41 42  1  0  0  0  0 
 41 43  1  0  0  0  0 
 41 44  1  0  0  0  0 
 44 45  2  0  0  0  0 
 45 46  1  0  0  0  0 
 45 47  1  0  0  0  0 
 47 48  1  0  0  0  0 
 47 49  2  0  0  0  0 
 49 50  1  0  0  0  0 
 49 51  1  0  0  0  0 
 51 52  1  0  0  0  0 
 51 53  2  0  0  0  0 
 44 53  1  0  0  0  0 
 53 54  1  0  0  0  0 
 39 55  1  1  0  0  0 
 55 56  1  0  0  0  0 
 55 57  1  0  0  0  0 
 57 58  2  0  0  0  0 
 57 59  1  0  0  0  0 
 59 60  1  0  0  0  0 
 59 61  1  0  0  0  0 
 59 62  1  0  0  0  0 
 62 63  1  0  0  0  0 
 63 64  2  0  0  0  0 
 64 65  1  0  0  0  0 
 65 66  1  0  0  0  0 
 65 67  1  0  0  0  0 
 65 68  1  0  0  0  0 
 64 69  1  0  0  0  0 
 69 70  1  0  0  0  0 
 69 71  2  0  0  0  0 
 71 72  1  0  0  0  0 
 71 73  1  0  0  0  0 
 73 74  1  0  0  0  0 
 73 75  2  0  0  0  0 
 63 75  1  0  0  0  0 
 75 76  1  0  0  0  0 
 76 77  1  0  0  0  0 
 76 78  1  0  0  0  0 
 76 79  1  0  0  0  0 
 37 80  1  6  0  0  0 
 80 81  1  0  0  0  0 
 11 82  1  1  0  0  0 
 82 83  1  0  0  0  0 
 83 84  1  0  0  0  0 
 83 85  1  0  0  0  0 
 83 86  1  0  0  0  0 
 86 87  1  0  0  0  0 
 86 88  1  0  0  0  0 
 86 89  1  0  0  0  0 
 89 90  1  0  0  0  0 
 89 91  1  0  0  0  0 
 89 92  1  0  0  0  0 
 92 93  1  0  0  0  0 
 92 94  1  0  0  0  0 
 82 94  1  0  0  0  0 
 94 95  2  0  0  0  0 
M  END
> <Rank>
6

> <Priority_score>
0.15699035021950136

> <Reaction_type>
aromatic_hydroxylation_(meta_to_carbon)

> <Parent_ID>
63

> <Parent_InChI>
InChI=1S/C37H48N4O5/c1-25(2)34(41-20-12-19-38-37(41)45)36(44)39-30(21-28-15-7-5-8-16-28)23-32(42)31(22-29-17-9-6-10-18-29)40-33(43)24-46-35-26(3)13-11-14-27(35)4/h5-11,13-18,25,30-32,34,42H,12,19-24H2,1-4H3,(H,38,45)(H,39,44)(H,40,43)

> <Parent_SMILES>
Cc1cccc(C)c1OCC(=O)N[C@@H](Cc1ccccc1)[C@@H](O)C[C@H](Cc1ccccc1)NC(=O)[C@H](C(C)C)N1CCCNC1=O

$$$$
Molecule 63_metabolite 9
  CDK     0516241031

 95 98  0  0  0  0  0  0  0  0999 V2000
   -3.4567   -3.6295    0.0000 C   0  0  0  0  0  0  0  0  0  0  0  0
   -4.9339   -3.3690    0.0000 H   0  0  0  0  0  0  0  0  0  0  0  0
   -3.9697   -5.0390    0.0000 H   0  0  0  0  0  0  0  0  0  0  0  0
   -2.1576   -4.3795    0.0000 H   0  0  0  0  0  0  0  0  0  0  0  0
   -2.1840   -2.1127    0.0000 C   0  0  0  0  0  0  0  0  0  0  0  0
   -1.6709   -0.7031    0.0000 H   0  0  0  0  0  0  0  0  0  0  0  0
   -3.4830   -1.3627    0.0000 C   0  0  0  0  0  0  0  0  0  0  0  0
   -3.4830    0.1373    0.0000 H   0  0  0  0  0  0  0  0  0  0  0  0
   -3.9960   -2.7722    0.0000 H   0  0  0  0  0  0  0  0  0  0  0  0
   -4.9602   -1.1022    0.0000 H   0  0  0  0  0  0  0  0  0  0  0  0
   -0.7067   -2.3732    0.0000 C   0  0  1  0  0  0  0  0  0  0  0  0
   -1.2198   -3.7827    0.0000 H   0  0  0  0  0  0  0  0  0  0  0  0
   -0.7067   -0.3932    0.0000 C   0  0  0  0  0  0  0  0  0  0  0  0
   -2.0058    0.3568    0.0000 O   0  0  0  0  0  0  0  0  0  0  0  0
    0.5923    0.3568    0.0000 N   0  0  0  0  0  0  0  0  0  0  0  0
    1.8913   -0.3932    0.0000 H   0  0  0  0  0  0  0  0  0  0  0  0
    0.5923    1.8568    0.0000 C   0  0  1  0  0  0  0  0  0  0  0  0
    2.0695    1.5964    0.0000 H   0  0  0  0  0  0  0  0  0  0  0  0
    1.1053    3.2664    0.0000 C   0  0  0  0  0  0  0  0  0  0  0  0
   -0.3719    3.5269    0.0000 H   0  0  0  0  0  0  0  0  0  0  0  0
    1.1053    4.7664    0.0000 H   0  0  0  0  0  0  0  0  0  0  0  0
    2.5825    3.5269    0.0000 C   0  0  0  0  0  0  0  0  0  0  0  0
    3.5469    2.3768    0.0000 C   0  0  0  0  0  0  0  0  0  0  0  0
    3.0336    0.9674    0.0000 H   0  0  0  0  0  0  0  0  0  0  0  0
    5.0241    2.6373    0.0000 C   0  0  0  0  0  0  0  0  0  0  0  0
    5.9885    1.4884    0.0000 H   0  0  0  0  0  0  0  0  0  0  0  0
    5.5370    4.0478    0.0000 C   0  0  0  0  0  0  0  0  0  0  0  0
    7.0142    4.3083    0.0000 H   0  0  0  0  0  0  0  0  0  0  0  0
    4.5726    5.1978    0.0000 C   0  0  0  0  0  0  0  0  0  0  0  0
    5.0859    6.6073    0.0000 H   0  0  0  0  0  0  0  0  0  0  0  0
    3.0954    4.9373    0.0000 C   0  0  0  0  0  0  0  0  0  0  0  0
    2.1310    6.0863    0.0000 H   0  0  0  0  0  0  0  0  0  0  0  0
   -1.1224    2.8468    0.0000 C   0  0  0  0  0  0  0  0  0  0  0  0
   -2.5996    3.1073    0.0000 H   0  0  0  0  0  0  0  0  0  0  0  0
   -1.6355    1.4373    0.0000 H   0  0  0  0  0  0  0  0  0  0  0  0
   -1.1224    4.3468    0.0000 C   0  0  1  0  0  0  0  0  0  0  0  0
    0.3548    4.0864    0.0000 H   0  0  0  0  0  0  0  0  0  0  0  0
   -3.6685    5.8168    0.0000 C   0  0  2  0  0  0  0  0  0  0  0  0
   -4.6327    6.9659    0.0000 H   0  0  0  0  0  0  0  0  0  0  0  0
   -2.7044    6.9659    0.0000 C   0  0  0  0  0  0  0  0  0  0  0  0
   -1.4053    7.7159    0.0000 H   0  0  0  0  0  0  0  0  0  0  0  0
   -1.7402    5.8168    0.0000 H   0  0  0  0  0  0  0  0  0  0  0  0
   -3.2174    8.3755    0.0000 C   0  0  0  0  0  0  0  0  0  0  0  0
   -2.2523    9.5248    0.0000 C   0  0  0  0  0  0  0  0  0  0  0  0
   -0.7751    9.2641    0.0000 H   0  0  0  0  0  0  0  0  0  0  0  0
   -2.7653   10.9344    0.0000 C   0  0  0  0  0  0  0  0  0  0  0  0
   -1.8013   12.0836    0.0000 H   0  0  0  0  0  0  0  0  0  0  0  0
   -4.2435   11.1945    0.0000 C   0  0  0  0  0  0  0  0  0  0  0  0
   -4.7565   12.6041    0.0000 H   0  0  0  0  0  0  0  0  0  0  0  0
   -5.2085   10.0451    0.0000 C   0  0  0  0  0  0  0  0  0  0  0  0
   -6.6857   10.3058    0.0000 H   0  0  0  0  0  0  0  0  0  0  0  0
   -4.6955    8.6356    0.0000 C   0  0  0  0  0  0  0  0  0  0  0  0
   -5.6595    7.4864    0.0000 H   0  0  0  0  0  0  0  0  0  0  0  0
   -5.3833    4.8268    0.0000 N   0  0  0  0  0  0  0  0  0  0  0  0
   -5.3833    3.3268    0.0000 H   0  0  0  0  0  0  0  0  0  0  0  0
   -6.6823    5.5768    0.0000 C   0  0  0  0  0  0  0  0  0  0  0  0
   -6.6823    7.0768    0.0000 O   0  0  0  0  0  0  0  0  0  0  0  0
   -7.9814    4.8268    0.0000 C   0  0  0  0  0  0  0  0  0  0  0  0
   -7.0172    3.6778    0.0000 H   0  0  0  0  0  0  0  0  0  0  0  0
   -8.9455    3.6778    0.0000 H   0  0  0  0  0  0  0  0  0  0  0  0
   -9.2804    5.5768    0.0000 O   0  0  0  0  0  0  0  0  0  0  0  0
  -10.5794    4.8268    0.0000 C   0  0  0  0  0  0  0  0  0  0  0  0
  -11.8793    5.5771    0.0000 C   0  0  0  0  0  0  0  0  0  0  0  0
  -11.8791    7.0771    0.0000 C   0  0  0  0  0  0  0  0  0  0  0  0
  -13.1780    7.8273    0.0000 H   0  0  0  0  0  0  0  0  0  0  0  0
  -11.3658    8.4865    0.0000 H   0  0  0  0  0  0  0  0  0  0  0  0
  -10.4019    6.8163    0.0000 H   0  0  0  0  0  0  0  0  0  0  0  0
  -13.1794    4.8273    0.0000 C   0  0  0  0  0  0  0  0  0  0  0  0
  -13.1797    3.3273    0.0000 C   0  0  0  0  0  0  0  0  0  0  0  0
  -14.4787    2.5773    0.0000 H   0  0  0  0  0  0  0  0  0  0  0  0
  -11.8798    2.5771    0.0000 C   0  0  0  0  0  0  0  0  0  0  0  0
  -11.8800    1.0771    0.0000 H   0  0  0  0  0  0  0  0  0  0  0  0
  -10.5797    3.3268    0.0000 C   0  0  0  0  0  0  0  0  0  0  0  0
   -9.2809    2.5764    0.0000 C   0  0  0  0  0  0  0  0  0  0  0  0
   -7.9816    3.3260    0.0000 H   0  0  0  0  0  0  0  0  0  0  0  0
  -10.2454    1.4277    0.0000 H   0  0  0  0  0  0  0  0  0  0  0  0
   -8.3171    1.4271    0.0000 H   0  0  0  0  0  0  0  0  0  0  0  0
  -14.4782    5.5777    0.0000 O   0  0  0  0  0  0  0  0  0  0  0  0
  -15.7775    4.8281    0.0000 H   0  0  0  0  0  0  0  0  0  0  0  0
   -0.6094    5.7564    0.0000 O   0  0  0  0  0  0  0  0  0  0  0  0
    0.8678    6.0169    0.0000 H   0  0  0  0  0  0  0  0  0  0  0  0
    0.5923   -3.1232    0.0000 N   0  0  0  0  0  0  0  0  0  0  0  0
    1.8918   -2.3723    0.0000 C   0  0  0  0  0  0  0  0  0  0  0  0
    0.9274   -1.2235    0.0000 H   0  0  0  0  0  0  0  0  0  0  0  0
    2.8559   -1.2232    0.0000 H   0  0  0  0  0  0  0  0  0  0  0  0
    3.1909   -3.1223    0.0000 C   0  0  0  0  0  0  0  0  0  0  0  0
    3.7040   -1.7128    0.0000 H   0  0  0  0  0  0  0  0  0  0  0  0
    4.6680   -3.3831    0.0000 H   0  0  0  0  0  0  0  0  0  0  0  0
    3.1904   -4.6232    0.0000 C   0  0  0  0  0  0  0  0  0  0  0  0
    4.6676   -4.3628    0.0000 H   0  0  0  0  0  0  0  0  0  0  0  0
    3.7036   -6.0326    0.0000 H   0  0  0  0  0  0  0  0  0  0  0  0
    1.8909   -5.3740    0.0000 N   0  0  0  0  0  0  0  0  0  0  0  0
    1.8911   -6.8740    0.0000 H   0  0  0  0  0  0  0  0  0  0  0  0
    0.5918   -4.6240    0.0000 C   0  0  0  0  0  0  0  0  0  0  0  0
   -0.7073   -5.3738    0.0000 O   0  0  0  0  0  0  0  0  0  0  0  0
  1  2  1  0  0  0  0 
  1  3  1  0  0  0  0 
  1  4  1  0  0  0  0 
  1  5  1  0  0  0  0 
  5  6  1  0  0  0  0 
  5  7  1  0  0  0  0 
  7  8  1  0  0  0  0 
  7  9  1  0  0  0  0 
  7 10  1  0  0  0  0 
  5 11  1  0  0  0  0 
 11 12  1  6  0  0  0 
 11 13  1  0  0  0  0 
 13 14  2  0  0  0  0 
 13 15  1  0  0  0  0 
 15 16  1  0  0  0  0 
 17 15  1  6  0  0  0 
 17 18  1  1  0  0  0 
 17 19  1  0  0  0  0 
 19 20  1  0  0  0  0 
 19 21  1  0  0  0  0 
 19 22  1  0  0  0  0 
 22 23  2  0  0  0  0 
 23 24  1  0  0  0  0 
 23 25  1  0  0  0  0 
 25 26  1  0  0  0  0 
 25 27  2  0  0  0  0 
 27 28  1  0  0  0  0 
 27 29  1  0  0  0  0 
 29 30  1  0  0  0  0 
 29 31  2  0  0  0  0 
 22 31  1  0  0  0  0 
 31 32  1  0  0  0  0 
 17 33  1  0  0  0  0 
 33 34  1  0  0  0  0 
 33 35  1  0  0  0  0 
 33 36  1  0  0  0  0 
 36 37  1  6  0  0  0 
 36 38  1  0  0  0  0 
 38 39  1  6  0  0  0 
 38 40  1  0  0  0  0 
 40 41  1  0  0  0  0 
 40 42  1  0  0  0  0 
 40 43  1  0  0  0  0 
 43 44  2  0  0  0  0 
 44 45  1  0  0  0  0 
 44 46  1  0  0  0  0 
 46 47  1  0  0  0  0 
 46 48  2  0  0  0  0 
 48 49  1  0  0  0  0 
 48 50  1  0  0  0  0 
 50 51  1  0  0  0  0 
 50 52  2  0  0  0  0 
 43 52  1  0  0  0  0 
 52 53  1  0  0  0  0 
 38 54  1  1  0  0  0 
 54 55  1  0  0  0  0 
 54 56  1  0  0  0  0 
 56 57  2  0  0  0  0 
 56 58  1  0  0  0  0 
 58 59  1  0  0  0  0 
 58 60  1  0  0  0  0 
 58 61  1  0  0  0  0 
 61 62  1  0  0  0  0 
 62 63  2  0  0  0  0 
 63 64  1  0  0  0  0 
 64 65  1  0  0  0  0 
 64 66  1  0  0  0  0 
 64 67  1  0  0  0  0 
 63 68  1  0  0  0  0 
 68 69  2  0  0  0  0 
 69 70  1  0  0  0  0 
 69 71  1  0  0  0  0 
 71 72  1  0  0  0  0 
 71 73  2  0  0  0  0 
 62 73  1  0  0  0  0 
 73 74  1  0  0  0  0 
 74 75  1  0  0  0  0 
 74 76  1  0  0  0  0 
 74 77  1  0  0  0  0 
 68 78  1  0  0  0  0 
 78 79  1  0  0  0  0 
 36 80  1  1  0  0  0 
 80 81  1  0  0  0  0 
 11 82  1  1  0  0  0 
 82 83  1  0  0  0  0 
 83 84  1  0  0  0  0 
 83 85  1  0  0  0  0 
 83 86  1  0  0  0  0 
 86 87  1  0  0  0  0 
 86 88  1  0  0  0  0 
 86 89  1  0  0  0  0 
 89 90  1  0  0  0  0 
 89 91  1  0  0  0  0 
 89 92  1  0  0  0  0 
 92 93  1  0  0  0  0 
 92 94  1  0  0  0  0 
 82 94  1  0  0  0  0 
 94 95  2  0  0  0  0 
M  END
> <Rank>
9

> <Priority_score>
0.156

> <Reaction_type>
aromatic_hydroxylation_(para_to_carbon)

> <Parent_ID>
63

> <Parent_InChI>
InChI=1S/C37H48N4O5/c1-25(2)34(41-20-12-19-38-37(41)45)36(44)39-30(21-28-15-7-5-8-16-28)23-32(42)31(22-29-17-9-6-10-18-29)40-33(43)24-46-35-26(3)13-11-14-27(35)4/h5-11,13-18,25,30-32,34,42H,12,19-24H2,1-4H3,(H,38,45)(H,39,44)(H,40,43)

> <Parent_SMILES>
Cc1cccc(C)c1OCC(=O)N[C@@H](Cc1ccccc1)[C@@H](O)C[C@H](Cc1ccccc1)NC(=O)[C@H](C(C)C)N1CCCNC1=O

$$$$
Molecule 63_metabolite 10
  CDK     0516241031

 95 98  0  0  0  0  0  0  0  0999 V2000
   -3.1319   -3.8170    0.0000 C   0  0  0  0  0  0  0  0  0  0  0  0
   -4.6091   -3.5565    0.0000 H   0  0  0  0  0  0  0  0  0  0  0  0
   -3.6449   -5.2265    0.0000 H   0  0  0  0  0  0  0  0  0  0  0  0
   -1.8329   -4.5670    0.0000 H   0  0  0  0  0  0  0  0  0  0  0  0
   -1.8592   -2.3002    0.0000 C   0  0  0  0  0  0  0  0  0  0  0  0
   -1.3462   -0.8906    0.0000 H   0  0  0  0  0  0  0  0  0  0  0  0
   -3.1582   -1.5502    0.0000 C   0  0  0  0  0  0  0  0  0  0  0  0
   -3.1582   -0.0502    0.0000 H   0  0  0  0  0  0  0  0  0  0  0  0
   -3.6713   -2.9597    0.0000 H   0  0  0  0  0  0  0  0  0  0  0  0
   -4.6354   -1.2897    0.0000 H   0  0  0  0  0  0  0  0  0  0  0  0
   -0.3820   -2.5607    0.0000 C   0  0  1  0  0  0  0  0  0  0  0  0
   -0.8950   -3.9702    0.0000 H   0  0  0  0  0  0  0  0  0  0  0  0
   -0.3820   -0.5807    0.0000 C   0  0  0  0  0  0  0  0  0  0  0  0
   -1.6810    0.1693    0.0000 O   0  0  0  0  0  0  0  0  0  0  0  0
    0.9171    0.1693    0.0000 N   0  0  0  0  0  0  0  0  0  0  0  0
    2.2161   -0.5807    0.0000 H   0  0  0  0  0  0  0  0  0  0  0  0
    0.9171    1.6693    0.0000 C   0  0  1  0  0  0  0  0  0  0  0  0
    2.3943    1.4089    0.0000 H   0  0  0  0  0  0  0  0  0  0  0  0
    1.4301    3.0789    0.0000 C   0  0  0  0  0  0  0  0  0  0  0  0
   -0.0471    3.3394    0.0000 H   0  0  0  0  0  0  0  0  0  0  0  0
    1.4301    4.5789    0.0000 H   0  0  0  0  0  0  0  0  0  0  0  0
    2.9073    3.3394    0.0000 C   0  0  0  0  0  0  0  0  0  0  0  0
    3.8716    2.1893    0.0000 C   0  0  0  0  0  0  0  0  0  0  0  0
    3.3584    0.7799    0.0000 H   0  0  0  0  0  0  0  0  0  0  0  0
    5.3489    2.4498    0.0000 C   0  0  0  0  0  0  0  0  0  0  0  0
    6.3132    1.3009    0.0000 H   0  0  0  0  0  0  0  0  0  0  0  0
    5.8617    3.8603    0.0000 C   0  0  0  0  0  0  0  0  0  0  0  0
    7.3389    4.1208    0.0000 H   0  0  0  0  0  0  0  0  0  0  0  0
    4.8974    5.0103    0.0000 C   0  0  0  0  0  0  0  0  0  0  0  0
    5.4106    6.4198    0.0000 H   0  0  0  0  0  0  0  0  0  0  0  0
    3.4202    4.7498    0.0000 C   0  0  0  0  0  0  0  0  0  0  0  0
    2.4558    5.8988    0.0000 H   0  0  0  0  0  0  0  0  0  0  0  0
   -0.7977    2.6593    0.0000 C   0  0  0  0  0  0  0  0  0  0  0  0
   -2.2749    2.9198    0.0000 H   0  0  0  0  0  0  0  0  0  0  0  0
   -1.3107    1.2498    0.0000 H   0  0  0  0  0  0  0  0  0  0  0  0
   -0.7977    4.1593    0.0000 C   0  0  1  0  0  0  0  0  0  0  0  0
    0.6795    3.8989    0.0000 H   0  0  0  0  0  0  0  0  0  0  0  0
   -3.3438    5.6293    0.0000 C   0  0  2  0  0  0  0  0  0  0  0  0
   -4.3080    6.7784    0.0000 H   0  0  0  0  0  0  0  0  0  0  0  0
   -2.3796    6.7784    0.0000 C   0  0  0  0  0  0  0  0  0  0  0  0
   -1.0806    7.5284    0.0000 H   0  0  0  0  0  0  0  0  0  0  0  0
   -1.4154    5.6293    0.0000 H   0  0  0  0  0  0  0  0  0  0  0  0
   -2.8926    8.1880    0.0000 C   0  0  0  0  0  0  0  0  0  0  0  0
   -1.9276    9.3373    0.0000 C   0  0  0  0  0  0  0  0  0  0  0  0
   -0.4504    9.0766    0.0000 H   0  0  0  0  0  0  0  0  0  0  0  0
   -2.4406   10.7469    0.0000 C   0  0  0  0  0  0  0  0  0  0  0  0
   -1.4766   11.8961    0.0000 H   0  0  0  0  0  0  0  0  0  0  0  0
   -3.9187   11.0070    0.0000 C   0  0  0  0  0  0  0  0  0  0  0  0
   -4.4317   12.4166    0.0000 H   0  0  0  0  0  0  0  0  0  0  0  0
   -4.8838    9.8576    0.0000 C   0  0  0  0  0  0  0  0  0  0  0  0
   -6.3610   10.1183    0.0000 H   0  0  0  0  0  0  0  0  0  0  0  0
   -4.3708    8.4481    0.0000 C   0  0  0  0  0  0  0  0  0  0  0  0
   -5.3348    7.2989    0.0000 H   0  0  0  0  0  0  0  0  0  0  0  0
   -5.0585    4.6393    0.0000 N   0  0  0  0  0  0  0  0  0  0  0  0
   -5.0585    3.1393    0.0000 H   0  0  0  0  0  0  0  0  0  0  0  0
   -6.3576    5.3893    0.0000 C   0  0  0  0  0  0  0  0  0  0  0  0
   -6.3576    6.8893    0.0000 O   0  0  0  0  0  0  0  0  0  0  0  0
   -7.6566    4.6393    0.0000 C   0  0  0  0  0  0  0  0  0  0  0  0
   -6.6924    3.4903    0.0000 H   0  0  0  0  0  0  0  0  0  0  0  0
   -8.6208    3.4903    0.0000 H   0  0  0  0  0  0  0  0  0  0  0  0
   -8.9556    5.3893    0.0000 O   0  0  0  0  0  0  0  0  0  0  0  0
  -10.2547    4.6393    0.0000 C   0  0  0  0  0  0  0  0  0  0  0  0
  -11.5546    5.3896    0.0000 C   0  0  0  0  0  0  0  0  0  0  0  0
  -11.5543    6.8896    0.0000 C   0  0  0  0  0  0  0  0  0  0  0  0
  -12.8532    7.6398    0.0000 H   0  0  0  0  0  0  0  0  0  0  0  0
  -11.0411    8.2990    0.0000 H   0  0  0  0  0  0  0  0  0  0  0  0
  -10.0771    6.6288    0.0000 H   0  0  0  0  0  0  0  0  0  0  0  0
  -12.8547    4.6398    0.0000 C   0  0  0  0  0  0  0  0  0  0  0  0
  -14.1535    5.3902    0.0000 H   0  0  0  0  0  0  0  0  0  0  0  0
  -12.8549    3.1398    0.0000 C   0  0  0  0  0  0  0  0  0  0  0  0
  -11.5550    2.3896    0.0000 C   0  0  0  0  0  0  0  0  0  0  0  0
  -11.5553    0.8896    0.0000 H   0  0  0  0  0  0  0  0  0  0  0  0
  -10.2549    3.1393    0.0000 C   0  0  0  0  0  0  0  0  0  0  0  0
   -8.9561    2.3889    0.0000 C   0  0  0  0  0  0  0  0  0  0  0  0
   -7.6568    3.1385    0.0000 H   0  0  0  0  0  0  0  0  0  0  0  0
   -9.9207    1.2402    0.0000 H   0  0  0  0  0  0  0  0  0  0  0  0
   -7.9923    1.2396    0.0000 H   0  0  0  0  0  0  0  0  0  0  0  0
  -14.1540    2.3898    0.0000 O   0  0  0  0  0  0  0  0  0  0  0  0
  -15.4530    3.1398    0.0000 H   0  0  0  0  0  0  0  0  0  0  0  0
   -0.2846    5.5689    0.0000 O   0  0  0  0  0  0  0  0  0  0  0  0
    1.1926    5.8294    0.0000 H   0  0  0  0  0  0  0  0  0  0  0  0
    0.9171   -3.3107    0.0000 N   0  0  0  0  0  0  0  0  0  0  0  0
    2.2166   -2.5598    0.0000 C   0  0  0  0  0  0  0  0  0  0  0  0
    1.2521   -1.4110    0.0000 H   0  0  0  0  0  0  0  0  0  0  0  0
    3.1806   -1.4107    0.0000 H   0  0  0  0  0  0  0  0  0  0  0  0
    3.5156   -3.3098    0.0000 C   0  0  0  0  0  0  0  0  0  0  0  0
    4.0288   -1.9003    0.0000 H   0  0  0  0  0  0  0  0  0  0  0  0
    4.9928   -3.5706    0.0000 H   0  0  0  0  0  0  0  0  0  0  0  0
    3.5151   -4.8107    0.0000 C   0  0  0  0  0  0  0  0  0  0  0  0
    4.9924   -4.5503    0.0000 H   0  0  0  0  0  0  0  0  0  0  0  0
    4.0283   -6.2201    0.0000 H   0  0  0  0  0  0  0  0  0  0  0  0
    2.2156   -5.5615    0.0000 N   0  0  0  0  0  0  0  0  0  0  0  0
    2.2159   -7.0615    0.0000 H   0  0  0  0  0  0  0  0  0  0  0  0
    0.9166   -4.8115    0.0000 C   0  0  0  0  0  0  0  0  0  0  0  0
   -0.3826   -5.5613    0.0000 O   0  0  0  0  0  0  0  0  0  0  0  0
  1  2  1  0  0  0  0 
  1  3  1  0  0  0  0 
  1  4  1  0  0  0  0 
  1  5  1  0  0  0  0 
  5  6  1  0  0  0  0 
  5  7  1  0  0  0  0 
  7  8  1  0  0  0  0 
  7  9  1  0  0  0  0 
  7 10  1  0  0  0  0 
  5 11  1  0  0  0  0 
 11 12  1  6  0  0  0 
 11 13  1  0  0  0  0 
 13 14  2  0  0  0  0 
 13 15  1  0  0  0  0 
 15 16  1  0  0  0  0 
 17 15  1  6  0  0  0 
 17 18  1  1  0  0  0 
 17 19  1  0  0  0  0 
 19 20  1  0  0  0  0 
 19 21  1  0  0  0  0 
 19 22  1  0  0  0  0 
 22 23  2  0  0  0  0 
 23 24  1  0  0  0  0 
 23 25  1  0  0  0  0 
 25 26  1  0  0  0  0 
 25 27  2  0  0  0  0 
 27 28  1  0  0  0  0 
 27 29  1  0  0  0  0 
 29 30  1  0  0  0  0 
 29 31  2  0  0  0  0 
 22 31  1  0  0  0  0 
 31 32  1  0  0  0  0 
 17 33  1  0  0  0  0 
 33 34  1  0  0  0  0 
 33 35  1  0  0  0  0 
 33 36  1  0  0  0  0 
 36 37  1  6  0  0  0 
 36 38  1  0  0  0  0 
 38 39  1  6  0  0  0 
 38 40  1  0  0  0  0 
 40 41  1  0  0  0  0 
 40 42  1  0  0  0  0 
 40 43  1  0  0  0  0 
 43 44  2  0  0  0  0 
 44 45  1  0  0  0  0 
 44 46  1  0  0  0  0 
 46 47  1  0  0  0  0 
 46 48  2  0  0  0  0 
 48 49  1  0  0  0  0 
 48 50  1  0  0  0  0 
 50 51  1  0  0  0  0 
 50 52  2  0  0  0  0 
 43 52  1  0  0  0  0 
 52 53  1  0  0  0  0 
 38 54  1  1  0  0  0 
 54 55  1  0  0  0  0 
 54 56  1  0  0  0  0 
 56 57  2  0  0  0  0 
 56 58  1  0  0  0  0 
 58 59  1  0  0  0  0 
 58 60  1  0  0  0  0 
 58 61  1  0  0  0  0 
 61 62  1  0  0  0  0 
 62 63  2  0  0  0  0 
 63 64  1  0  0  0  0 
 64 65  1  0  0  0  0 
 64 66  1  0  0  0  0 
 64 67  1  0  0  0  0 
 63 68  1  0  0  0  0 
 68 69  1  0  0  0  0 
 68 70  2  0  0  0  0 
 70 71  1  0  0  0  0 
 71 72  1  0  0  0  0 
 71 73  2  0  0  0  0 
 62 73  1  0  0  0  0 
 73 74  1  0  0  0  0 
 74 75  1  0  0  0  0 
 74 76  1  0  0  0  0 
 74 77  1  0  0  0  0 
 70 78  1  0  0  0  0 
 78 79  1  0  0  0  0 
 36 80  1  1  0  0  0 
 80 81  1  0  0  0  0 
 11 82  1  1  0  0  0 
 82 83  1  0  0  0  0 
 83 84  1  0  0  0  0 
 83 85  1  0  0  0  0 
 83 86  1  0  0  0  0 
 86 87  1  0  0  0  0 
 86 88  1  0  0  0  0 
 86 89  1  0  0  0  0 
 89 90  1  0  0  0  0 
 89 91  1  0  0  0  0 
 89 92  1  0  0  0  0 
 92 93  1  0  0  0  0 
 92 94  1  0  0  0  0 
 82 94  1  0  0  0  0 
 94 95  2  0  0  0  0 
M  END
> <Rank>
9

> <Priority_score>
0.156

> <Reaction_type>
aromatic_hydroxylation_(para_to_oxygen)

> <Parent_ID>
63

> <Parent_InChI>
InChI=1S/C37H48N4O5/c1-25(2)34(41-20-12-19-38-37(41)45)36(44)39-30(21-28-15-7-5-8-16-28)23-32(42)31(22-29-17-9-6-10-18-29)40-33(43)24-46-35-26(3)13-11-14-27(35)4/h5-11,13-18,25,30-32,34,42H,12,19-24H2,1-4H3,(H,38,45)(H,39,44)(H,40,43)

> <Parent_SMILES>
Cc1cccc(C)c1OCC(=O)N[C@@H](Cc1ccccc1)[C@@H](O)C[C@H](Cc1ccccc1)NC(=O)[C@H](C(C)C)N1CCCNC1=O

$$$$
Molecule 63_metabolite 11
  CDK     0516241031

 98101  0  0  0  0  0  0  0  0999 V2000
   -3.9615    4.7823    0.0000 C   0  0  0  0  0  0  0  0  0  0  0  0
   -4.4746    6.1918    0.0000 H   0  0  0  0  0  0  0  0  0  0  0  0
   -5.4388    4.5218    0.0000 H   0  0  0  0  0  0  0  0  0  0  0  0
   -3.9615    3.2823    0.0000 H   0  0  0  0  0  0  0  0  0  0  0  0
   -2.0116    4.4385    0.0000 C   0  0  0  0  0  0  0  0  0  0  0  0
   -0.5344    4.6990    0.0000 H   0  0  0  0  0  0  0  0  0  0  0  0
   -2.0116    5.9385    0.0000 C   0  0  0  0  0  0  0  0  0  0  0  0
   -0.7126    6.6885    0.0000 H   0  0  0  0  0  0  0  0  0  0  0  0
   -3.4888    5.6780    0.0000 H   0  0  0  0  0  0  0  0  0  0  0  0
   -2.5247    7.3480    0.0000 H   0  0  0  0  0  0  0  0  0  0  0  0
   -1.4986    3.0289    0.0000 C   0  0  1  0  0  0  0  0  0  0  0  0
   -2.9758    2.7685    0.0000 H   0  0  0  0  0  0  0  0  0  0  0  0
    0.2161    4.0189    0.0000 C   0  0  0  0  0  0  0  0  0  0  0  0
    0.2161    5.5189    0.0000 O   0  0  0  0  0  0  0  0  0  0  0  0
    1.5152    3.2689    0.0000 N   0  0  0  0  0  0  0  0  0  0  0  0
    1.5152    1.7689    0.0000 H   0  0  0  0  0  0  0  0  0  0  0  0
    3.2299    4.2589    0.0000 C   0  0  1  0  0  0  0  0  0  0  0  0
    2.2657    5.4080    0.0000 H   0  0  0  0  0  0  0  0  0  0  0  0
    4.1941    5.4080    0.0000 C   0  0  0  0  0  0  0  0  0  0  0  0
    5.1583    4.2589    0.0000 H   0  0  0  0  0  0  0  0  0  0  0  0
    5.4931    6.1580    0.0000 H   0  0  0  0  0  0  0  0  0  0  0  0
    3.6811    6.8176    0.0000 C   0  0  0  0  0  0  0  0  0  0  0  0
    2.2029    7.0777    0.0000 C   0  0  0  0  0  0  0  0  0  0  0  0
    1.2389    5.9285    0.0000 H   0  0  0  0  0  0  0  0  0  0  0  0
    1.6899    8.4872    0.0000 C   0  0  0  0  0  0  0  0  0  0  0  0
    0.2127    8.7479    0.0000 H   0  0  0  0  0  0  0  0  0  0  0  0
    2.6550    9.6366    0.0000 C   0  0  0  0  0  0  0  0  0  0  0  0
    2.1420   11.0462    0.0000 H   0  0  0  0  0  0  0  0  0  0  0  0
    4.1331    9.3765    0.0000 C   0  0  0  0  0  0  0  0  0  0  0  0
    5.0971   10.5257    0.0000 H   0  0  0  0  0  0  0  0  0  0  0  0
    4.6461    7.9669    0.0000 C   0  0  0  0  0  0  0  0  0  0  0  0
    6.1233    7.7062    0.0000 H   0  0  0  0  0  0  0  0  0  0  0  0
    5.3603    3.0289    0.0000 C   0  0  0  0  0  0  0  0  0  0  0  0
    6.3245    1.8799    0.0000 H   0  0  0  0  0  0  0  0  0  0  0  0
    4.3961    1.8799    0.0000 H   0  0  0  0  0  0  0  0  0  0  0  0
    7.4907    4.2589    0.0000 C   0  0  1  0  0  0  0  0  0  0  0  0
    6.5266    5.4080    0.0000 H   0  0  0  0  0  0  0  0  0  0  0  0
    9.2055    3.2689    0.0000 C   0  0  2  0  0  0  0  0  0  0  0  0
   10.1697    2.1199    0.0000 H   0  0  0  0  0  0  0  0  0  0  0  0
    8.2413    2.1199    0.0000 C   0  0  0  0  0  0  0  0  0  0  0  0
    6.9423    1.3699    0.0000 H   0  0  0  0  0  0  0  0  0  0  0  0
    7.2771    3.2689    0.0000 H   0  0  0  0  0  0  0  0  0  0  0  0
    8.7543    0.7103    0.0000 C   0  0  0  0  0  0  0  0  0  0  0  0
    7.7892   -0.4391    0.0000 C   0  0  0  0  0  0  0  0  0  0  0  0
    6.3121   -0.1783    0.0000 H   0  0  0  0  0  0  0  0  0  0  0  0
    8.3023   -1.8486    0.0000 C   0  0  0  0  0  0  0  0  0  0  0  0
    7.3383   -2.9978    0.0000 H   0  0  0  0  0  0  0  0  0  0  0  0
    9.7804   -2.1087    0.0000 C   0  0  0  0  0  0  0  0  0  0  0  0
   10.2934   -3.5183    0.0000 H   0  0  0  0  0  0  0  0  0  0  0  0
   10.7455   -0.9593    0.0000 C   0  0  0  0  0  0  0  0  0  0  0  0
   12.2226   -1.2200    0.0000 H   0  0  0  0  0  0  0  0  0  0  0  0
   10.2324    0.4502    0.0000 C   0  0  0  0  0  0  0  0  0  0  0  0
   11.1964    1.5994    0.0000 H   0  0  0  0  0  0  0  0  0  0  0  0
   10.5045    4.0189    0.0000 N   0  0  0  0  0  0  0  0  0  0  0  0
   10.5045    5.5189    0.0000 H   0  0  0  0  0  0  0  0  0  0  0  0
   12.2192    3.0289    0.0000 C   0  0  0  0  0  0  0  0  0  0  0  0
   12.2192    1.5289    0.0000 O   0  0  0  0  0  0  0  0  0  0  0  0
   13.5183    3.7789    0.0000 C   0  0  0  0  0  0  0  0  0  0  0  0
   12.5541    4.9280    0.0000 H   0  0  0  0  0  0  0  0  0  0  0  0
   14.4825    4.9280    0.0000 H   0  0  0  0  0  0  0  0  0  0  0  0
   14.8173    3.0289    0.0000 O   0  0  0  0  0  0  0  0  0  0  0  0
   16.1164    3.7789    0.0000 C   0  0  0  0  0  0  0  0  0  0  0  0
   16.1048    5.2778    0.0000 C   0  0  0  0  0  0  0  0  0  0  0  0
   14.7987    6.0156    0.0000 C   0  0  0  0  0  0  0  0  0  0  0  0
   13.5068    5.2533    0.0000 H   0  0  0  0  0  0  0  0  0  0  0  0
   15.7520    7.1737    0.0000 H   0  0  0  0  0  0  0  0  0  0  0  0
   13.8238    7.1555    0.0000 H   0  0  0  0  0  0  0  0  0  0  0  0
   17.3784    6.0322    0.0000 C   0  0  0  0  0  0  0  0  0  0  0  0
   17.3664    7.5322    0.0000 H   0  0  0  0  0  0  0  0  0  0  0  0
   18.6531    5.3047    0.0000 C   0  0  0  0  0  0  0  0  0  0  0  0
   19.9372    6.0800    0.0000 H   0  0  0  0  0  0  0  0  0  0  0  0
   18.7040    3.8184    0.0000 C   0  0  0  0  0  0  0  0  0  0  0  0
   20.0269    3.1114    0.0000 H   0  0  0  0  0  0  0  0  0  0  0  0
   17.4121    3.0174    0.0000 C   0  0  0  0  0  0  0  0  0  0  0  0
   17.4299    1.5175    0.0000 C   0  0  0  0  0  0  0  0  0  0  0  0
   18.7377    0.7830    0.0000 H   0  0  0  0  0  0  0  0  0  0  0  0
   16.9336    0.1020    0.0000 H   0  0  0  0  0  0  0  0  0  0  0  0
   15.9497    1.7605    0.0000 H   0  0  0  0  0  0  0  0  0  0  0  0
    8.7635    5.7757    0.0000 O   0  0  0  0  0  0  0  0  0  0  0  0
    8.2504    7.1853    0.0000 S   0  0  0  0  0  0  0  0  0  0  0  0
    7.2863    8.3343    0.0000 O   0  0  0  0  0  0  0  0  0  0  0  0
    6.9514    6.4353    0.0000 O   0  0  0  0  0  0  0  0  0  0  0  0
    9.2146    8.3343    0.0000 O   0  0  0  0  0  0  0  0  0  0  0  0
   10.6918    8.0738    0.0000 H   0  0  0  0  0  0  0  0  0  0  0  0
   -1.4986    1.5289    0.0000 N   0  0  0  0  0  0  0  0  0  0  0  0
   -0.1986    0.7789    0.0000 C   0  0  0  0  0  0  0  0  0  0  0  0
    0.3141    2.1886    0.0000 H   0  0  0  0  0  0  0  0  0  0  0  0
    1.2786    0.5186    0.0000 H   0  0  0  0  0  0  0  0  0  0  0  0
   -0.1986   -0.7211    0.0000 C   0  0  0  0  0  0  0  0  0  0  0  0
    1.2786   -0.4607    0.0000 H   0  0  0  0  0  0  0  0  0  0  0  0
    0.3141   -2.1307    0.0000 H   0  0  0  0  0  0  0  0  0  0  0  0
   -1.4986   -1.4711    0.0000 C   0  0  0  0  0  0  0  0  0  0  0  0
   -0.5345   -2.6202    0.0000 H   0  0  0  0  0  0  0  0  0  0  0  0
   -2.4627   -2.6202    0.0000 H   0  0  0  0  0  0  0  0  0  0  0  0
   -2.7986   -0.7211    0.0000 N   0  0  0  0  0  0  0  0  0  0  0  0
   -4.0975   -1.4713    0.0000 H   0  0  0  0  0  0  0  0  0  0  0  0
   -2.7986    0.7789    0.0000 C   0  0  0  0  0  0  0  0  0  0  0  0
   -4.0975    1.5292    0.0000 O   0  0  0  0  0  0  0  0  0  0  0  0
  1  2  1  0  0  0  0 
  1  3  1  0  0  0  0 
  1  4  1  0  0  0  0 
  1  5  1  0  0  0  0 
  5  6  1  0  0  0  0 
  5  7  1  0  0  0  0 
  7  8  1  0  0  0  0 
  7  9  1  0  0  0  0 
  7 10  1  0  0  0  0 
  5 11  1  0  0  0  0 
 11 12  1  6  0  0  0 
 11 13  1  0  0  0  0 
 13 14  2  0  0  0  0 
 13 15  1  0  0  0  0 
 15 16  1  0  0  0  0 
 17 15  1  1  0  0  0 
 17 18  1  6  0  0  0 
 17 19  1  0  0  0  0 
 19 20  1  0  0  0  0 
 19 21  1  0  0  0  0 
 19 22  1  0  0  0  0 
 22 23  2  0  0  0  0 
 23 24  1  0  0  0  0 
 23 25  1  0  0  0  0 
 25 26  1  0  0  0  0 
 25 27  2  0  0  0  0 
 27 28  1  0  0  0  0 
 27 29  1  0  0  0  0 
 29 30  1  0  0  0  0 
 29 31  2  0  0  0  0 
 22 31  1  0  0  0  0 
 31 32  1  0  0  0  0 
 17 33  1  0  0  0  0 
 33 34  1  0  0  0  0 
 33 35  1  0  0  0  0 
 33 36  1  0  0  0  0 
 36 37  1  1  0  0  0 
 36 38  1  0  0  0  0 
 38 39  1  6  0  0  0 
 38 40  1  0  0  0  0 
 40 41  1  0  0  0  0 
 40 42  1  0  0  0  0 
 40 43  1  0  0  0  0 
 43 44  2  0  0  0  0 
 44 45  1  0  0  0  0 
 44 46  1  0  0  0  0 
 46 47  1  0  0  0  0 
 46 48  2  0  0  0  0 
 48 49  1  0  0  0  0 
 48 50  1  0  0  0  0 
 50 51  1  0  0  0  0 
 50 52  2  0  0  0  0 
 43 52  1  0  0  0  0 
 52 53  1  0  0  0  0 
 38 54  1  1  0  0  0 
 54 55  1  0  0  0  0 
 54 56  1  0  0  0  0 
 56 57  2  0  0  0  0 
 56 58  1  0  0  0  0 
 58 59  1  0  0  0  0 
 58 60  1  0  0  0  0 
 58 61  1  0  0  0  0 
 61 62  1  0  0  0  0 
 62 63  2  0  0  0  0 
 63 64  1  0  0  0  0 
 64 65  1  0  0  0  0 
 64 66  1  0  0  0  0 
 64 67  1  0  0  0  0 
 63 68  1  0  0  0  0 
 68 69  1  0  0  0  0 
 68 70  2  0  0  0  0 
 70 71  1  0  0  0  0 
 70 72  1  0  0  0  0 
 72 73  1  0  0  0  0 
 72 74  2  0  0  0  0 
 62 74  1  0  0  0  0 
 74 75  1  0  0  0  0 
 75 76  1  0  0  0  0 
 75 77  1  0  0  0  0 
 75 78  1  0  0  0  0 
 36 79  1  6  0  0  0 
 79 80  1  0  0  0  0 
 80 81  2  0  0  0  0 
 80 82  2  0  0  0  0 
 80 83  1  0  0  0  0 
 83 84  1  0  0  0  0 
 11 85  1  1  0  0  0 
 85 86  1  0  0  0  0 
 86 87  1  0  0  0  0 
 86 88  1  0  0  0  0 
 86 89  1  0  0  0  0 
 89 90  1  0  0  0  0 
 89 91  1  0  0  0  0 
 89 92  1  0  0  0  0 
 92 93  1  0  0  0  0 
 92 94  1  0  0  0  0 
 92 95  1  0  0  0  0 
 95 96  1  0  0  0  0 
 95 97  1  0  0  0  0 
 85 97  1  0  0  0  0 
 97 98  2  0  0  0  0 
M  END
> <Rank>
11

> <Priority_score>
0.12

> <Reaction_type>
sulfation_(aliphatic_hydroxyl)

> <Parent_ID>
63

> <Parent_InChI>
InChI=1S/C37H48N4O5/c1-25(2)34(41-20-12-19-38-37(41)45)36(44)39-30(21-28-15-7-5-8-16-28)23-32(42)31(22-29-17-9-6-10-18-29)40-33(43)24-46-35-26(3)13-11-14-27(35)4/h5-11,13-18,25,30-32,34,42H,12,19-24H2,1-4H3,(H,38,45)(H,39,44)(H,40,43)

> <Parent_SMILES>
Cc1cccc(C)c1OCC(=O)N[C@@H](Cc1ccccc1)[C@@H](O)C[C@H](Cc1ccccc1)NC(=O)[C@H](C(C)C)N1CCCNC1=O

$$$$
Molecule 63_metabolite 12
  CDK     0516241031

 18 18  0  0  0  0  0  0  0  0999 V2000
    0.2853    2.0859    0.0000 C   0  0  0  0  0  0  0  0  0  0  0  0
   -1.0136    2.8361    0.0000 H   0  0  0  0  0  0  0  0  0  0  0  0
    1.7625    1.8252    0.0000 H   0  0  0  0  0  0  0  0  0  0  0  0
    0.7986    3.4954    0.0000 H   0  0  0  0  0  0  0  0  0  0  0  0
    0.2851    0.5859    0.0000 C   0  0  0  0  0  0  0  0  0  0  0  0
    1.5846   -0.1649    0.0000 C   0  0  0  0  0  0  0  0  0  0  0  0
    2.8836    0.5851    0.0000 H   0  0  0  0  0  0  0  0  0  0  0  0
    1.5851   -1.6658    0.0000 C   0  0  0  0  0  0  0  0  0  0  0  0
    2.8842   -2.4156    0.0000 O   0  0  0  0  0  0  0  0  0  0  0  0
    0.2860   -2.4158    0.0000 C   0  0  0  0  0  0  0  0  0  0  0  0
    0.2858   -3.9158    0.0000 H   0  0  0  0  0  0  0  0  0  0  0  0
   -1.0135   -1.6649    0.0000 C   0  0  0  0  0  0  0  0  0  0  0  0
   -2.3125   -2.4149    0.0000 C   0  0  0  0  0  0  0  0  0  0  0  0
   -2.3125   -3.9149    0.0000 H   0  0  0  0  0  0  0  0  0  0  0  0
   -2.8255   -1.0054    0.0000 H   0  0  0  0  0  0  0  0  0  0  0  0
   -3.7897   -2.6754    0.0000 H   0  0  0  0  0  0  0  0  0  0  0  0
   -1.0140   -0.1641    0.0000 C   0  0  0  0  0  0  0  0  0  0  0  0
   -2.3131    0.5857    0.0000 O   0  0  0  0  0  0  0  0  0  0  0  0
  1  2  1  0  0  0  0 
  1  3  1  0  0  0  0 
  1  4  1  0  0  0  0 
  1  5  1  0  0  0  0 
  5  6  2  0  0  0  0 
  6  7  1  0  0  0  0 
  6  8  1  0  0  0  0 
  8  9  2  0  0  0  0 
  8 10  1  0  0  0  0 
 10 11  1  0  0  0  0 
 10 12  2  0  0  0  0 
 12 13  1  0  0  0  0 
 13 14  1  0  0  0  0 
 13 15  1  0  0  0  0 
 13 16  1  0  0  0  0 
 12 17  1  0  0  0  0 
  5 17  1  0  0  0  0 
 17 18  2  0  0  0  0 
M  END
> <Rank>
12

> <Priority_score>
0.11675317435738619

> <Reaction_type>
oxidation of 4-substituted anisole to quinone

> <Parent_ID>
63

> <Parent_InChI>
InChI=1S/C37H48N4O5/c1-25(2)34(41-20-12-19-38-37(41)45)36(44)39-30(21-28-15-7-5-8-16-28)23-32(42)31(22-29-17-9-6-10-18-29)40-33(43)24-46-35-26(3)13-11-14-27(35)4/h5-11,13-18,25,30-32,34,42H,12,19-24H2,1-4H3,(H,38,45)(H,39,44)(H,40,43)

> <Parent_SMILES>
Cc1cccc(C)c1OCC(=O)N[C@@H](Cc1ccccc1)[C@@H](O)C[C@H](Cc1ccccc1)NC(=O)[C@H](C(C)C)N1CCCNC1=O

$$$$
Molecule 63_metabolite 13
  CDK     0516241031

 77 79  0  0  0  0  0  0  0  0999 V2000
    1.6793   -1.3286    0.0000 C   0  0  0  0  0  0  0  0  0  0  0  0
    0.7151   -2.4777    0.0000 H   0  0  0  0  0  0  0  0  0  0  0  0
    2.6435   -2.4777    0.0000 H   0  0  0  0  0  0  0  0  0  0  0  0
    2.9783   -0.5786    0.0000 H   0  0  0  0  0  0  0  0  0  0  0  0
    1.0021    0.5320    0.0000 C   0  0  0  0  0  0  0  0  0  0  0  0
    0.0379    1.6811    0.0000 H   0  0  0  0  0  0  0  0  0  0  0  0
   -0.2970   -0.2180    0.0000 C   0  0  0  0  0  0  0  0  0  0  0  0
   -1.5960    0.5320    0.0000 H   0  0  0  0  0  0  0  0  0  0  0  0
    0.6672   -1.3671    0.0000 H   0  0  0  0  0  0  0  0  0  0  0  0
   -1.2611   -1.3671    0.0000 H   0  0  0  0  0  0  0  0  0  0  0  0
    1.9663    1.6811    0.0000 C   0  0  1  0  0  0  0  0  0  0  0  0
    2.9304    0.5320    0.0000 H   0  0  0  0  0  0  0  0  0  0  0  0
    0.2515    2.6711    0.0000 C   0  0  0  0  0  0  0  0  0  0  0  0
   -1.0475    1.9211    0.0000 O   0  0  0  0  0  0  0  0  0  0  0  0
    0.2515    4.1711    0.0000 N   0  0  0  0  0  0  0  0  0  0  0  0
    1.5506    4.9211    0.0000 H   0  0  0  0  0  0  0  0  0  0  0  0
   -1.0475    4.9211    0.0000 C   0  0  1  0  0  0  0  0  0  0  0  0
   -0.0833    6.0701    0.0000 H   0  0  0  0  0  0  0  0  0  0  0  0
   -2.0117    6.0701    0.0000 C   0  0  0  0  0  0  0  0  0  0  0  0
   -2.9759    4.9211    0.0000 H   0  0  0  0  0  0  0  0  0  0  0  0
   -3.3107    6.8201    0.0000 H   0  0  0  0  0  0  0  0  0  0  0  0
   -1.4987    7.4797    0.0000 C   0  0  0  0  0  0  0  0  0  0  0  0
   -0.0206    7.7398    0.0000 C   0  0  0  0  0  0  0  0  0  0  0  0
    0.9434    6.5906    0.0000 H   0  0  0  0  0  0  0  0  0  0  0  0
    0.4925    9.1493    0.0000 C   0  0  0  0  0  0  0  0  0  0  0  0
    1.9696    9.4100    0.0000 H   0  0  0  0  0  0  0  0  0  0  0  0
   -0.4726   10.2987    0.0000 C   0  0  0  0  0  0  0  0  0  0  0  0
    0.0404   11.7083    0.0000 H   0  0  0  0  0  0  0  0  0  0  0  0
   -1.9507   10.0386    0.0000 C   0  0  0  0  0  0  0  0  0  0  0  0
   -2.9147   11.1878    0.0000 H   0  0  0  0  0  0  0  0  0  0  0  0
   -2.4638    8.6291    0.0000 C   0  0  0  0  0  0  0  0  0  0  0  0
   -3.9409    8.3683    0.0000 H   0  0  0  0  0  0  0  0  0  0  0  0
   -2.7622    3.9311    0.0000 C   0  0  0  0  0  0  0  0  0  0  0  0
   -3.7264    2.7820    0.0000 H   0  0  0  0  0  0  0  0  0  0  0  0
   -1.7981    2.7820    0.0000 H   0  0  0  0  0  0  0  0  0  0  0  0
   -4.0613    4.6811    0.0000 C   0  0  1  0  0  0  0  0  0  0  0  0
   -3.0971    5.8301    0.0000 H   0  0  0  0  0  0  0  0  0  0  0  0
   -6.6074    3.2111    0.0000 C   0  0  2  0  0  0  0  0  0  0  0  0
   -8.0846    2.9506    0.0000 H   0  0  0  0  0  0  0  0  0  0  0  0
   -7.1204    4.6206    0.0000 C   0  0  0  0  0  0  0  0  0  0  0  0
   -7.1204    6.1206    0.0000 H   0  0  0  0  0  0  0  0  0  0  0  0
   -5.6432    4.8811    0.0000 H   0  0  0  0  0  0  0  0  0  0  0  0
   -8.5976    4.8811    0.0000 C   0  0  0  0  0  0  0  0  0  0  0  0
   -9.1105    6.2915    0.0000 C   0  0  0  0  0  0  0  0  0  0  0  0
   -8.1461    7.4405    0.0000 H   0  0  0  0  0  0  0  0  0  0  0  0
  -10.5877    6.5520    0.0000 C   0  0  0  0  0  0  0  0  0  0  0  0
  -11.1010    7.9615    0.0000 H   0  0  0  0  0  0  0  0  0  0  0  0
  -11.5521    5.4020    0.0000 C   0  0  0  0  0  0  0  0  0  0  0  0
  -13.0293    5.6625    0.0000 H   0  0  0  0  0  0  0  0  0  0  0  0
  -11.0392    3.9915    0.0000 C   0  0  0  0  0  0  0  0  0  0  0  0
  -12.0036    2.8426    0.0000 H   0  0  0  0  0  0  0  0  0  0  0  0
   -9.5620    3.7310    0.0000 C   0  0  0  0  0  0  0  0  0  0  0  0
   -9.0487    2.3216    0.0000 H   0  0  0  0  0  0  0  0  0  0  0  0
   -6.6074    1.2311    0.0000 N   0  0  0  0  0  0  0  0  0  0  0  0
   -5.3084    0.4811    0.0000 H   0  0  0  0  0  0  0  0  0  0  0  0
   -7.9064    0.4811    0.0000 C   0  0  0  0  0  0  0  0  0  0  0  0
   -9.2055    1.2311    0.0000 O   0  0  0  0  0  0  0  0  0  0  0  0
   -7.9064   -1.0189    0.0000 C   0  0  0  0  0  0  0  0  0  0  0  0
   -9.2055   -1.7689    0.0000 H   0  0  0  0  0  0  0  0  0  0  0  0
   -6.4292   -0.7585    0.0000 H   0  0  0  0  0  0  0  0  0  0  0  0
   -7.3934   -2.4285    0.0000 H   0  0  0  0  0  0  0  0  0  0  0  0
   -5.0255    5.8301    0.0000 O   0  0  0  0  0  0  0  0  0  0  0  0
   -4.5124    7.2397    0.0000 H   0  0  0  0  0  0  0  0  0  0  0  0
    3.2653    2.4311    0.0000 N   0  0  0  0  0  0  0  0  0  0  0  0
    3.2648    3.9319    0.0000 C   0  0  0  0  0  0  0  0  0  0  0  0
    1.7877    3.6711    0.0000 H   0  0  0  0  0  0  0  0  0  0  0  0
    2.7516    5.3414    0.0000 H   0  0  0  0  0  0  0  0  0  0  0  0
    4.5638    4.6819    0.0000 C   0  0  0  0  0  0  0  0  0  0  0  0
    3.5998    5.8311    0.0000 H   0  0  0  0  0  0  0  0  0  0  0  0
    5.5283    5.8307    0.0000 H   0  0  0  0  0  0  0  0  0  0  0  0
    5.8634    3.9311    0.0000 C   0  0  0  0  0  0  0  0  0  0  0  0
    6.3765    5.3405    0.0000 H   0  0  0  0  0  0  0  0  0  0  0  0
    7.3406    3.6707    0.0000 H   0  0  0  0  0  0  0  0  0  0  0  0
    5.8638    2.4302    0.0000 N   0  0  0  0  0  0  0  0  0  0  0  0
    7.1630    1.6804    0.0000 H   0  0  0  0  0  0  0  0  0  0  0  0
    4.5648    1.6802    0.0000 C   0  0  0  0  0  0  0  0  0  0  0  0
    4.5646    0.1802    0.0000 O   0  0  0  0  0  0  0  0  0  0  0  0
  1  2  1  0  0  0  0 
  1  3  1  0  0  0  0 
  1  4  1  0  0  0  0 
  1  5  1  0  0  0  0 
  5  6  1  0  0  0  0 
  5  7  1  0  0  0  0 
  7  8  1  0  0  0  0 
  7  9  1  0  0  0  0 
  7 10  1  0  0  0  0 
  5 11  1  0  0  0  0 
 11 12  1  6  0  0  0 
 11 13  1  0  0  0  0 
 13 14  2  0  0  0  0 
 13 15  1  0  0  0  0 
 15 16  1  0  0  0  0 
 17 15  1  6  0  0  0 
 17 18  1  1  0  0  0 
 17 19  1  0  0  0  0 
 19 20  1  0  0  0  0 
 19 21  1  0  0  0  0 
 19 22  1  0  0  0  0 
 22 23  2  0  0  0  0 
 23 24  1  0  0  0  0 
 23 25  1  0  0  0  0 
 25 26  1  0  0  0  0 
 25 27  2  0  0  0  0 
 27 28  1  0  0  0  0 
 27 29  1  0  0  0  0 
 29 30  1  0  0  0  0 
 29 31  2  0  0  0  0 
 22 31  1  0  0  0  0 
 31 32  1  0  0  0  0 
 17 33  1  0  0  0  0 
 33 34  1  0  0  0  0 
 33 35  1  0  0  0  0 
 33 36  1  0  0  0  0 
 36 37  1  6  0  0  0 
 36 38  1  0  0  0  0 
 38 39  1  6  0  0  0 
 38 40  1  0  0  0  0 
 40 41  1  0  0  0  0 
 40 42  1  0  0  0  0 
 40 43  1  0  0  0  0 
 43 44  2  0  0  0  0 
 44 45  1  0  0  0  0 
 44 46  1  0  0  0  0 
 46 47  1  0  0  0  0 
 46 48  2  0  0  0  0 
 48 49  1  0  0  0  0 
 48 50  1  0  0  0  0 
 50 51  1  0  0  0  0 
 50 52  2  0  0  0  0 
 43 52  1  0  0  0  0 
 52 53  1  0  0  0  0 
 38 54  1  1  0  0  0 
 54 55  1  0  0  0  0 
 54 56  1  0  0  0  0 
 56 57  2  0  0  0  0 
 56 58  1  0  0  0  0 
 58 59  1  0  0  0  0 
 58 60  1  0  0  0  0 
 58 61  1  0  0  0  0 
 36 62  1  1  0  0  0 
 62 63  1  0  0  0  0 
 11 64  1  1  0  0  0 
 64 65  1  0  0  0  0 
 65 66  1  0  0  0  0 
 65 67  1  0  0  0  0 
 65 68  1  0  0  0  0 
 68 69  1  0  0  0  0 
 68 70  1  0  0  0  0 
 68 71  1  0  0  0  0 
 71 72  1  0  0  0  0 
 71 73  1  0  0  0  0 
 71 74  1  0  0  0  0 
 74 75  1  0  0  0  0 
 74 76  1  0  0  0  0 
 64 76  1  0  0  0  0 
 76 77  2  0  0  0  0 
M  END
> <Rank>
12

> <Priority_score>
0.11675317435738619

> <Reaction_type>
oxidation of 4-substituted anisole to quinone

> <Parent_ID>
63

> <Parent_InChI>
InChI=1S/C37H48N4O5/c1-25(2)34(41-20-12-19-38-37(41)45)36(44)39-30(21-28-15-7-5-8-16-28)23-32(42)31(22-29-17-9-6-10-18-29)40-33(43)24-46-35-26(3)13-11-14-27(35)4/h5-11,13-18,25,30-32,34,42H,12,19-24H2,1-4H3,(H,38,45)(H,39,44)(H,40,43)

> <Parent_SMILES>
Cc1cccc(C)c1OCC(=O)N[C@@H](Cc1ccccc1)[C@@H](O)C[C@H](Cc1ccccc1)NC(=O)[C@H](C(C)C)N1CCCNC1=O

$$$$
Molecule 63_metabolite 14
  CDK     0516241031

 95 98  0  0  0  0  0  0  0  0999 V2000
  -13.3969   10.0767    0.0000 C   0  0  0  0  0  0  0  0  0  0  0  0
  -13.1364   11.5540    0.0000 H   0  0  0  0  0  0  0  0  0  0  0  0
  -14.8064   10.5898    0.0000 H   0  0  0  0  0  0  0  0  0  0  0  0
  -14.1469    8.7777    0.0000 H   0  0  0  0  0  0  0  0  0  0  0  0
  -11.8801    8.8040    0.0000 C   0  0  0  0  0  0  0  0  0  0  0  0
  -10.4706    8.2910    0.0000 H   0  0  0  0  0  0  0  0  0  0  0  0
  -11.1301   10.1031    0.0000 C   0  0  0  0  0  0  0  0  0  0  0  0
   -9.6301   10.1031    0.0000 H   0  0  0  0  0  0  0  0  0  0  0  0
  -12.5396   10.6161    0.0000 H   0  0  0  0  0  0  0  0  0  0  0  0
  -10.8696   11.5803    0.0000 H   0  0  0  0  0  0  0  0  0  0  0  0
  -12.1406    7.3268    0.0000 C   0  0  1  0  0  0  0  0  0  0  0  0
  -13.5501    7.8398    0.0000 H   0  0  0  0  0  0  0  0  0  0  0  0
  -10.1606    7.3268    0.0000 C   0  0  0  0  0  0  0  0  0  0  0  0
   -9.4106    8.6258    0.0000 O   0  0  0  0  0  0  0  0  0  0  0  0
   -9.4106    6.0278    0.0000 N   0  0  0  0  0  0  0  0  0  0  0  0
  -10.1606    4.7287    0.0000 H   0  0  0  0  0  0  0  0  0  0  0  0
   -7.4306    6.0278    0.0000 C   0  0  1  0  0  0  0  0  0  0  0  0
   -7.6911    7.5050    0.0000 H   0  0  0  0  0  0  0  0  0  0  0  0
   -6.0210    6.5408    0.0000 C   0  0  0  0  0  0  0  0  0  0  0  0
   -5.7606    5.0636    0.0000 H   0  0  0  0  0  0  0  0  0  0  0  0
   -4.5210    6.5408    0.0000 H   0  0  0  0  0  0  0  0  0  0  0  0
   -5.7606    8.0180    0.0000 C   0  0  0  0  0  0  0  0  0  0  0  0
   -6.9106    8.9824    0.0000 C   0  0  0  0  0  0  0  0  0  0  0  0
   -8.3200    8.4691    0.0000 H   0  0  0  0  0  0  0  0  0  0  0  0
   -6.6501   10.4596    0.0000 C   0  0  0  0  0  0  0  0  0  0  0  0
   -7.7990   11.4239    0.0000 H   0  0  0  0  0  0  0  0  0  0  0  0
   -5.2396   10.9724    0.0000 C   0  0  0  0  0  0  0  0  0  0  0  0
   -4.9792   12.4496    0.0000 H   0  0  0  0  0  0  0  0  0  0  0  0
   -4.0896   10.0081    0.0000 C   0  0  0  0  0  0  0  0  0  0  0  0
   -2.6802   10.5213    0.0000 H   0  0  0  0  0  0  0  0  0  0  0  0
   -4.3501    8.5309    0.0000 C   0  0  0  0  0  0  0  0  0  0  0  0
   -3.2012    7.5665    0.0000 H   0  0  0  0  0  0  0  0  0  0  0  0
   -6.4406    4.3130    0.0000 C   0  0  0  0  0  0  0  0  0  0  0  0
   -6.1801    2.8358    0.0000 H   0  0  0  0  0  0  0  0  0  0  0  0
   -7.8501    3.8000    0.0000 H   0  0  0  0  0  0  0  0  0  0  0  0
   -4.9406    4.3130    0.0000 C   0  0  1  0  0  0  0  0  0  0  0  0
   -5.2011    5.7903    0.0000 H   0  0  0  0  0  0  0  0  0  0  0  0
   -3.9506    2.5983    0.0000 C   0  0  2  0  0  0  0  0  0  0  0  0
   -3.6901    1.1211    0.0000 H   0  0  0  0  0  0  0  0  0  0  0  0
   -5.3601    2.0853    0.0000 C   0  0  0  0  0  0  0  0  0  0  0  0
   -6.8601    2.0853    0.0000 H   0  0  0  0  0  0  0  0  0  0  0  0
   -5.6206    3.5625    0.0000 H   0  0  0  0  0  0  0  0  0  0  0  0
   -5.6206    0.6081    0.0000 C   0  0  0  0  0  0  0  0  0  0  0  0
   -7.0311    0.0952    0.0000 C   0  0  0  0  0  0  0  0  0  0  0  0
   -8.1800    1.0596    0.0000 H   0  0  0  0  0  0  0  0  0  0  0  0
   -7.2916   -1.3820    0.0000 C   0  0  0  0  0  0  0  0  0  0  0  0
   -8.7010   -1.8953    0.0000 H   0  0  0  0  0  0  0  0  0  0  0  0
   -6.1415   -2.3464    0.0000 C   0  0  0  0  0  0  0  0  0  0  0  0
   -6.4020   -3.8236    0.0000 H   0  0  0  0  0  0  0  0  0  0  0  0
   -4.7311   -1.8335    0.0000 C   0  0  0  0  0  0  0  0  0  0  0  0
   -3.5821   -2.7979    0.0000 H   0  0  0  0  0  0  0  0  0  0  0  0
   -4.4706   -0.3563    0.0000 C   0  0  0  0  0  0  0  0  0  0  0  0
   -3.0611    0.1570    0.0000 H   0  0  0  0  0  0  0  0  0  0  0  0
   -1.9706    2.5983    0.0000 N   0  0  0  0  0  0  0  0  0  0  0  0
   -1.2206    3.8973    0.0000 H   0  0  0  0  0  0  0  0  0  0  0  0
   -1.2206    1.2993    0.0000 C   0  0  0  0  0  0  0  0  0  0  0  0
   -1.9706    0.0002    0.0000 O   0  0  0  0  0  0  0  0  0  0  0  0
    0.2794    1.2993    0.0000 C   0  0  0  0  0  0  0  0  0  0  0  0
    0.0189    2.7765    0.0000 H   0  0  0  0  0  0  0  0  0  0  0  0
    1.6890    1.8123    0.0000 H   0  0  0  0  0  0  0  0  0  0  0  0
    1.0294    0.0002    0.0000 O   0  0  0  0  0  0  0  0  0  0  0  0
    2.5294    0.0002    0.0000 C   0  0  0  0  0  0  0  0  0  0  0  0
    3.2708   -1.3071    0.0000 C   0  0  0  0  0  0  0  0  0  0  0  0
    4.7901   -1.2594    0.0000 C   0  0  0  0  0  0  0  0  0  0  0  0
    5.5823   -2.5332    0.0000 H   0  0  0  0  0  0  0  0  0  0  0  0
    5.4892    0.0532    0.0000 C   0  0  0  0  0  0  0  0  0  0  0  0
    6.9889    0.0826    0.0000 H   0  0  0  0  0  0  0  0  0  0  0  0
    4.7491    1.3206    0.0000 C   0  0  0  0  0  0  0  0  0  0  0  0
    5.4886    2.6256    0.0000 H   0  0  0  0  0  0  0  0  0  0  0  0
    3.2688    1.3041    0.0000 C   0  0  0  0  0  0  0  0  0  0  0  0
    2.5066    2.5960    0.0000 C   0  0  0  0  0  0  0  0  0  0  0  0
    1.0067    2.5819    0.0000 H   0  0  0  0  0  0  0  0  0  0  0  0
    3.9113    3.1223    0.0000 H   0  0  0  0  0  0  0  0  0  0  0  0
    2.2322    4.0707    0.0000 H   0  0  0  0  0  0  0  0  0  0  0  0
    2.5363   -2.6150    0.0000 C   0  0  0  0  0  0  0  0  0  0  0  0
    1.3987   -3.5927    0.0000 H   0  0  0  0  0  0  0  0  0  0  0  0
    1.3759   -1.6645    0.0000 H   0  0  0  0  0  0  0  0  0  0  0  0
    3.3016   -3.9050    0.0000 O   0  0  0  0  0  0  0  0  0  0  0  0
    4.8015   -3.8873    0.0000 H   0  0  0  0  0  0  0  0  0  0  0  0
   -3.5310    4.8261    0.0000 O   0  0  0  0  0  0  0  0  0  0  0  0
   -3.2706    6.3033    0.0000 H   0  0  0  0  0  0  0  0  0  0  0  0
  -12.8906    6.0278    0.0000 N   0  0  0  0  0  0  0  0  0  0  0  0
  -12.1397    4.7283    0.0000 C   0  0  0  0  0  0  0  0  0  0  0  0
  -10.9909    5.6927    0.0000 H   0  0  0  0  0  0  0  0  0  0  0  0
  -10.9906    3.7642    0.0000 H   0  0  0  0  0  0  0  0  0  0  0  0
  -12.8897    3.4292    0.0000 C   0  0  0  0  0  0  0  0  0  0  0  0
  -11.4803    2.9160    0.0000 H   0  0  0  0  0  0  0  0  0  0  0  0
  -13.1505    1.9521    0.0000 H   0  0  0  0  0  0  0  0  0  0  0  0
  -14.3906    3.4297    0.0000 C   0  0  0  0  0  0  0  0  0  0  0  0
  -14.1303    1.9525    0.0000 H   0  0  0  0  0  0  0  0  0  0  0  0
  -15.8001    2.9165    0.0000 H   0  0  0  0  0  0  0  0  0  0  0  0
  -15.1414    4.7292    0.0000 N   0  0  0  0  0  0  0  0  0  0  0  0
  -16.6414    4.7290    0.0000 H   0  0  0  0  0  0  0  0  0  0  0  0
  -14.3914    6.0283    0.0000 C   0  0  0  0  0  0  0  0  0  0  0  0
  -15.1412    7.3274    0.0000 O   0  0  0  0  0  0  0  0  0  0  0  0
  1  2  1  0  0  0  0 
  1  3  1  0  0  0  0 
  1  4  1  0  0  0  0 
  1  5  1  0  0  0  0 
  5  6  1  0  0  0  0 
  5  7  1  0  0  0  0 
  7  8  1  0  0  0  0 
  7  9  1  0  0  0  0 
  7 10  1  0  0  0  0 
  5 11  1  0  0  0  0 
 11 12  1  6  0  0  0 
 11 13  1  0  0  0  0 
 13 14  2  0  0  0  0 
 13 15  1  0  0  0  0 
 15 16  1  0  0  0  0 
 17 15  1  1  0  0  0 
 17 18  1  6  0  0  0 
 17 19  1  0  0  0  0 
 19 20  1  0  0  0  0 
 19 21  1  0  0  0  0 
 19 22  1  0  0  0  0 
 22 23  2  0  0  0  0 
 23 24  1  0  0  0  0 
 23 25  1  0  0  0  0 
 25 26  1  0  0  0  0 
 25 27  2  0  0  0  0 
 27 28  1  0  0  0  0 
 27 29  1  0  0  0  0 
 29 30  1  0  0  0  0 
 29 31  2  0  0  0  0 
 22 31  1  0  0  0  0 
 31 32  1  0  0  0  0 
 17 33  1  0  0  0  0 
 33 34  1  0  0  0  0 
 33 35  1  0  0  0  0 
 33 36  1  0  0  0  0 
 36 37  1  1  0  0  0 
 36 38  1  0  0  0  0 
 38 39  1  6  0  0  0 
 38 40  1  0  0  0  0 
 40 41  1  0  0  0  0 
 40 42  1  0  0  0  0 
 40 43  1  0  0  0  0 
 43 44  2  0  0  0  0 
 44 45  1  0  0  0  0 
 44 46  1  0  0  0  0 
 46 47  1  0  0  0  0 
 46 48  2  0  0  0  0 
 48 49  1  0  0  0  0 
 48 50  1  0  0  0  0 
 50 51  1  0  0  0  0 
 50 52  2  0  0  0  0 
 43 52  1  0  0  0  0 
 52 53  1  0  0  0  0 
 38 54  1  1  0  0  0 
 54 55  1  0  0  0  0 
 54 56  1  0  0  0  0 
 56 57  2  0  0  0  0 
 56 58  1  0  0  0  0 
 58 59  1  0  0  0  0 
 58 60  1  0  0  0  0 
 58 61  1  0  0  0  0 
 61 62  1  0  0  0  0 
 62 63  2  0  0  0  0 
 63 64  1  0  0  0  0 
 64 65  1  0  0  0  0 
 64 66  2  0  0  0  0 
 66 67  1  0  0  0  0 
 66 68  1  0  0  0  0 
 68 69  1  0  0  0  0 
 68 70  2  0  0  0  0 
 62 70  1  0  0  0  0 
 70 71  1  0  0  0  0 
 71 72  1  0  0  0  0 
 71 73  1  0  0  0  0 
 71 74  1  0  0  0  0 
 63 75  1  0  0  0  0 
 75 76  1  0  0  0  0 
 75 77  1  0  0  0  0 
 75 78  1  0  0  0  0 
 78 79  1  0  0  0  0 
 36 80  1  6  0  0  0 
 80 81  1  0  0  0  0 
 11 82  1  1  0  0  0 
 82 83  1  0  0  0  0 
 83 84  1  0  0  0  0 
 83 85  1  0  0  0  0 
 83 86  1  0  0  0  0 
 86 87  1  0  0  0  0 
 86 88  1  0  0  0  0 
 86 89  1  0  0  0  0 
 89 90  1  0  0  0  0 
 89 91  1  0  0  0  0 
 89 92  1  0  0  0  0 
 92 93  1  0  0  0  0 
 92 94  1  0  0  0  0 
 82 94  1  0  0  0  0 
 94 95  2  0  0  0  0 
M  END
> <Rank>
14

> <Priority_score>
0.1

> <Reaction_type>
benzylic_hydroxylation_(c-CH3)

> <Parent_ID>
63

> <Parent_InChI>
InChI=1S/C37H48N4O5/c1-25(2)34(41-20-12-19-38-37(41)45)36(44)39-30(21-28-15-7-5-8-16-28)23-32(42)31(22-29-17-9-6-10-18-29)40-33(43)24-46-35-26(3)13-11-14-27(35)4/h5-11,13-18,25,30-32,34,42H,12,19-24H2,1-4H3,(H,38,45)(H,39,44)(H,40,43)

> <Parent_SMILES>
Cc1cccc(C)c1OCC(=O)N[C@@H](Cc1ccccc1)[C@@H](O)C[C@H](Cc1ccccc1)NC(=O)[C@H](C(C)C)N1CCCNC1=O

$$$$
Molecule 63_metabolite 15
  CDK     0516241031

 94 97  0  0  0  0  0  0  0  0999 V2000
    7.5203   15.5357    0.0000 C   0  0  0  0  0  0  0  0  0  0  0  0
    8.9975   15.7962    0.0000 H   0  0  0  0  0  0  0  0  0  0  0  0
    8.0333   14.1262    0.0000 H   0  0  0  0  0  0  0  0  0  0  0  0
    6.2213   14.7857    0.0000 H   0  0  0  0  0  0  0  0  0  0  0  0
    6.2476   17.0525    0.0000 C   0  0  0  0  0  0  0  0  0  0  0  0
    5.7346   18.4620    0.0000 H   0  0  0  0  0  0  0  0  0  0  0  0
    7.5466   17.8025    0.0000 C   0  0  0  0  0  0  0  0  0  0  0  0
    7.5466   19.3025    0.0000 H   0  0  0  0  0  0  0  0  0  0  0  0
    8.0597   16.3929    0.0000 H   0  0  0  0  0  0  0  0  0  0  0  0
    9.0238   18.0630    0.0000 H   0  0  0  0  0  0  0  0  0  0  0  0
    4.7704   16.7920    0.0000 C   0  0  1  0  0  0  0  0  0  0  0  0
    5.2834   15.3825    0.0000 H   0  0  0  0  0  0  0  0  0  0  0  0
    4.7704   18.7720    0.0000 C   0  0  0  0  0  0  0  0  0  0  0  0
    6.0694   19.5220    0.0000 O   0  0  0  0  0  0  0  0  0  0  0  0
    3.4713   19.5220    0.0000 N   0  0  0  0  0  0  0  0  0  0  0  0
    2.1723   18.7720    0.0000 H   0  0  0  0  0  0  0  0  0  0  0  0
    3.4713   21.0220    0.0000 C   0  0  1  0  0  0  0  0  0  0  0  0
    1.9941   20.7615    0.0000 H   0  0  0  0  0  0  0  0  0  0  0  0
    2.9583   22.4315    0.0000 C   0  0  0  0  0  0  0  0  0  0  0  0
    4.4355   22.6920    0.0000 H   0  0  0  0  0  0  0  0  0  0  0  0
    2.9583   23.9315    0.0000 H   0  0  0  0  0  0  0  0  0  0  0  0
    1.4811   22.6920    0.0000 C   0  0  0  0  0  0  0  0  0  0  0  0
    0.5168   21.5420    0.0000 C   0  0  0  0  0  0  0  0  0  0  0  0
    1.0300   20.1325    0.0000 H   0  0  0  0  0  0  0  0  0  0  0  0
   -0.9605   21.8025    0.0000 C   0  0  0  0  0  0  0  0  0  0  0  0
   -1.9248   20.6536    0.0000 H   0  0  0  0  0  0  0  0  0  0  0  0
   -1.4733   23.2130    0.0000 C   0  0  0  0  0  0  0  0  0  0  0  0
   -2.9505   23.4734    0.0000 H   0  0  0  0  0  0  0  0  0  0  0  0
   -0.5090   24.3630    0.0000 C   0  0  0  0  0  0  0  0  0  0  0  0
   -1.0222   25.7724    0.0000 H   0  0  0  0  0  0  0  0  0  0  0  0
    0.9682   24.1025    0.0000 C   0  0  0  0  0  0  0  0  0  0  0  0
    1.9326   25.2514    0.0000 H   0  0  0  0  0  0  0  0  0  0  0  0
    5.1861   22.0120    0.0000 C   0  0  0  0  0  0  0  0  0  0  0  0
    6.6633   22.2725    0.0000 H   0  0  0  0  0  0  0  0  0  0  0  0
    5.6991   20.6025    0.0000 H   0  0  0  0  0  0  0  0  0  0  0  0
    5.1861   23.5120    0.0000 C   0  0  1  0  0  0  0  0  0  0  0  0
    3.7089   23.2515    0.0000 H   0  0  0  0  0  0  0  0  0  0  0  0
    7.7322   24.9820    0.0000 C   0  0  2  0  0  0  0  0  0  0  0  0
    8.6964   26.1311    0.0000 H   0  0  0  0  0  0  0  0  0  0  0  0
    6.7680   26.1311    0.0000 C   0  0  0  0  0  0  0  0  0  0  0  0
    5.4690   26.8811    0.0000 H   0  0  0  0  0  0  0  0  0  0  0  0
    5.8038   24.9820    0.0000 H   0  0  0  0  0  0  0  0  0  0  0  0
    7.2810   27.5406    0.0000 C   0  0  0  0  0  0  0  0  0  0  0  0
    6.3160   28.6900    0.0000 C   0  0  0  0  0  0  0  0  0  0  0  0
    4.8388   28.4293    0.0000 H   0  0  0  0  0  0  0  0  0  0  0  0
    6.8290   30.0995    0.0000 C   0  0  0  0  0  0  0  0  0  0  0  0
    5.8650   31.2488    0.0000 H   0  0  0  0  0  0  0  0  0  0  0  0
    8.3071   30.3597    0.0000 C   0  0  0  0  0  0  0  0  0  0  0  0
    8.8201   31.7692    0.0000 H   0  0  0  0  0  0  0  0  0  0  0  0
    9.2722   29.2103    0.0000 C   0  0  0  0  0  0  0  0  0  0  0  0
   10.7494   29.4710    0.0000 H   0  0  0  0  0  0  0  0  0  0  0  0
    8.7592   27.8008    0.0000 C   0  0  0  0  0  0  0  0  0  0  0  0
    9.7232   26.6515    0.0000 H   0  0  0  0  0  0  0  0  0  0  0  0
    9.4469   23.9920    0.0000 N   0  0  0  0  0  0  0  0  0  0  0  0
    9.4469   22.4920    0.0000 H   0  0  0  0  0  0  0  0  0  0  0  0
   10.7460   24.7420    0.0000 C   0  0  0  0  0  0  0  0  0  0  0  0
   10.7460   26.2420    0.0000 O   0  0  0  0  0  0  0  0  0  0  0  0
   12.0450   23.9920    0.0000 C   0  0  0  0  0  0  0  0  0  0  0  0
   11.0808   22.8429    0.0000 H   0  0  0  0  0  0  0  0  0  0  0  0
   13.0092   22.8429    0.0000 H   0  0  0  0  0  0  0  0  0  0  0  0
   13.3440   24.7420    0.0000 O   0  0  0  0  0  0  0  0  0  0  0  0
   14.6431   23.9920    0.0000 C   0  0  0  0  0  0  0  0  0  0  0  0
   14.6315   22.4891    0.0000 C   0  0  0  0  0  0  0  0  0  0  0  0
   15.9710   21.7708    0.0000 C   0  0  0  0  0  0  0  0  0  0  0  0
   16.0202   20.2716    0.0000 H   0  0  0  0  0  0  0  0  0  0  0  0
   17.2328   22.5580    0.0000 C   0  0  0  0  0  0  0  0  0  0  0  0
   18.5463   21.8335    0.0000 H   0  0  0  0  0  0  0  0  0  0  0  0
   17.2255   24.0256    0.0000 C   0  0  0  0  0  0  0  0  0  0  0  0
   18.5185   24.7861    0.0000 H   0  0  0  0  0  0  0  0  0  0  0  0
   15.9354   24.7515    0.0000 C   0  0  0  0  0  0  0  0  0  0  0  0
   15.9212   26.2514    0.0000 C   0  0  0  0  0  0  0  0  0  0  0  0
   17.2131   27.0136    0.0000 H   0  0  0  0  0  0  0  0  0  0  0  0
   14.4465   25.9770    0.0000 H   0  0  0  0  0  0  0  0  0  0  0  0
   15.3949   27.6560    0.0000 H   0  0  0  0  0  0  0  0  0  0  0  0
   13.3414   21.7238    0.0000 C   0  0  0  0  0  0  0  0  0  0  0  0
   12.0336   22.4583    0.0000 O   0  0  0  0  0  0  0  0  0  0  0  0
   13.3592   20.2239    0.0000 O   0  0  0  0  0  0  0  0  0  0  0  0
   14.6670   19.4893    0.0000 H   0  0  0  0  0  0  0  0  0  0  0  0
    4.6730   24.9215    0.0000 O   0  0  0  0  0  0  0  0  0  0  0  0
    3.1958   25.1820    0.0000 H   0  0  0  0  0  0  0  0  0  0  0  0
    3.4713   16.0420    0.0000 N   0  0  0  0  0  0  0  0  0  0  0  0
    2.1718   16.7928    0.0000 C   0  0  0  0  0  0  0  0  0  0  0  0
    3.1363   17.9417    0.0000 H   0  0  0  0  0  0  0  0  0  0  0  0
    1.2078   17.9420    0.0000 H   0  0  0  0  0  0  0  0  0  0  0  0
    0.8728   16.0428    0.0000 C   0  0  0  0  0  0  0  0  0  0  0  0
    0.3596   17.4523    0.0000 H   0  0  0  0  0  0  0  0  0  0  0  0
   -0.6044   15.7821    0.0000 H   0  0  0  0  0  0  0  0  0  0  0  0
    0.8733   14.5420    0.0000 C   0  0  0  0  0  0  0  0  0  0  0  0
   -0.6040   14.8023    0.0000 H   0  0  0  0  0  0  0  0  0  0  0  0
    0.3601   13.1325    0.0000 H   0  0  0  0  0  0  0  0  0  0  0  0
    2.1728   13.7912    0.0000 N   0  0  0  0  0  0  0  0  0  0  0  0
    2.1726   12.2912    0.0000 H   0  0  0  0  0  0  0  0  0  0  0  0
    3.4718   14.5412    0.0000 C   0  0  0  0  0  0  0  0  0  0  0  0
    4.7710   13.7914    0.0000 O   0  0  0  0  0  0  0  0  0  0  0  0
  1  2  1  0  0  0  0 
  1  3  1  0  0  0  0 
  1  4  1  0  0  0  0 
  1  5  1  0  0  0  0 
  5  6  1  0  0  0  0 
  5  7  1  0  0  0  0 
  7  8  1  0  0  0  0 
  7  9  1  0  0  0  0 
  7 10  1  0  0  0  0 
  5 11  1  0  0  0  0 
 11 12  1  1  0  0  0 
 11 13  1  0  0  0  0 
 13 14  2  0  0  0  0 
 13 15  1  0  0  0  0 
 15 16  1  0  0  0  0 
 17 15  1  1  0  0  0 
 17 18  1  6  0  0  0 
 17 19  1  0  0  0  0 
 19 20  1  0  0  0  0 
 19 21  1  0  0  0  0 
 19 22  1  0  0  0  0 
 22 23  2  0  0  0  0 
 23 24  1  0  0  0  0 
 23 25  1  0  0  0  0 
 25 26  1  0  0  0  0 
 25 27  2  0  0  0  0 
 27 28  1  0  0  0  0 
 27 29  1  0  0  0  0 
 29 30  1  0  0  0  0 
 29 31  2  0  0  0  0 
 22 31  1  0  0  0  0 
 31 32  1  0  0  0  0 
 17 33  1  0  0  0  0 
 33 34  1  0  0  0  0 
 33 35  1  0  0  0  0 
 33 36  1  0  0  0  0 
 36 37  1  1  0  0  0 
 36 38  1  0  0  0  0 
 38 39  1  1  0  0  0 
 38 40  1  0  0  0  0 
 40 41  1  0  0  0  0 
 40 42  1  0  0  0  0 
 40 43  1  0  0  0  0 
 43 44  2  0  0  0  0 
 44 45  1  0  0  0  0 
 44 46  1  0  0  0  0 
 46 47  1  0  0  0  0 
 46 48  2  0  0  0  0 
 48 49  1  0  0  0  0 
 48 50  1  0  0  0  0 
 50 51  1  0  0  0  0 
 50 52  2  0  0  0  0 
 43 52  1  0  0  0  0 
 52 53  1  0  0  0  0 
 38 54  1  6  0  0  0 
 54 55  1  0  0  0  0 
 54 56  1  0  0  0  0 
 56 57  2  0  0  0  0 
 56 58  1  0  0  0  0 
 58 59  1  0  0  0  0 
 58 60  1  0  0  0  0 
 58 61  1  0  0  0  0 
 61 62  1  0  0  0  0 
 62 63  2  0  0  0  0 
 63 64  1  0  0  0  0 
 64 65  1  0  0  0  0 
 64 66  2  0  0  0  0 
 66 67  1  0  0  0  0 
 66 68  1  0  0  0  0 
 68 69  1  0  0  0  0 
 68 70  2  0  0  0  0 
 62 70  1  0  0  0  0 
 70 71  1  0  0  0  0 
 71 72  1  0  0  0  0 
 71 73  1  0  0  0  0 
 71 74  1  0  0  0  0 
 63 75  1  0  0  0  0 
 75 76  2  0  0  0  0 
 75 77  1  0  0  0  0 
 77 78  1  0  0  0  0 
 36 79  1  6  0  0  0 
 79 80  1  0  0  0  0 
 11 81  1  6  0  0  0 
 81 82  1  0  0  0  0 
 82 83  1  0  0  0  0 
 82 84  1  0  0  0  0 
 82 85  1  0  0  0  0 
 85 86  1  0  0  0  0 
 85 87  1  0  0  0  0 
 85 88  1  0  0  0  0 
 88 89  1  0  0  0  0 
 88 90  1  0  0  0  0 
 88 91  1  0  0  0  0 
 91 92  1  0  0  0  0 
 91 93  1  0  0  0  0 
 81 93  1  0  0  0  0 
 93 94  2  0  0  0  0 
M  END
> <Rank>
14

> <Priority_score>
0.1

> <Reaction_type>
carboxylation_(benzylic_CH3)

> <Parent_ID>
63

> <Parent_InChI>
InChI=1S/C37H48N4O5/c1-25(2)34(41-20-12-19-38-37(41)45)36(44)39-30(21-28-15-7-5-8-16-28)23-32(42)31(22-29-17-9-6-10-18-29)40-33(43)24-46-35-26(3)13-11-14-27(35)4/h5-11,13-18,25,30-32,34,42H,12,19-24H2,1-4H3,(H,38,45)(H,39,44)(H,40,43)

> <Parent_SMILES>
Cc1cccc(C)c1OCC(=O)N[C@@H](Cc1ccccc1)[C@@H](O)C[C@H](Cc1ccccc1)NC(=O)[C@H](C(C)C)N1CCCNC1=O

$$$$
Molecule 63_metabolite 16
  CDK     0516241031

 72 74  0  0  0  0  0  0  0  0999 V2000
    0.5031   -2.0486    0.0000 C   0  0  0  0  0  0  0  0  0  0  0  0
    1.4673   -3.1977    0.0000 H   0  0  0  0  0  0  0  0  0  0  0  0
   -0.4611   -3.1977    0.0000 H   0  0  0  0  0  0  0  0  0  0  0  0
   -0.7959   -1.2986    0.0000 H   0  0  0  0  0  0  0  0  0  0  0  0
    1.1803   -0.1880    0.0000 C   0  0  0  0  0  0  0  0  0  0  0  0
    2.1445    0.9611    0.0000 H   0  0  0  0  0  0  0  0  0  0  0  0
    2.4794   -0.9380    0.0000 C   0  0  0  0  0  0  0  0  0  0  0  0
    3.7784   -0.1880    0.0000 H   0  0  0  0  0  0  0  0  0  0  0  0
    1.5152   -2.0871    0.0000 H   0  0  0  0  0  0  0  0  0  0  0  0
    3.4435   -2.0871    0.0000 H   0  0  0  0  0  0  0  0  0  0  0  0
    0.2161    0.9611    0.0000 C   0  0  1  0  0  0  0  0  0  0  0  0
   -0.7481   -0.1880    0.0000 H   0  0  0  0  0  0  0  0  0  0  0  0
    1.9309    1.9511    0.0000 C   0  0  0  0  0  0  0  0  0  0  0  0
    3.2299    1.2011    0.0000 O   0  0  0  0  0  0  0  0  0  0  0  0
    1.9309    3.4511    0.0000 N   0  0  0  0  0  0  0  0  0  0  0  0
    0.6318    4.2011    0.0000 H   0  0  0  0  0  0  0  0  0  0  0  0
    3.2299    4.2011    0.0000 C   0  0  1  0  0  0  0  0  0  0  0  0
    2.2657    5.3501    0.0000 H   0  0  0  0  0  0  0  0  0  0  0  0
    4.1941    5.3501    0.0000 C   0  0  0  0  0  0  0  0  0  0  0  0
    5.1583    4.2011    0.0000 H   0  0  0  0  0  0  0  0  0  0  0  0
    5.4931    6.1001    0.0000 H   0  0  0  0  0  0  0  0  0  0  0  0
    3.6811    6.7597    0.0000 C   0  0  0  0  0  0  0  0  0  0  0  0
    2.2029    7.0198    0.0000 C   0  0  0  0  0  0  0  0  0  0  0  0
    1.2389    5.8706    0.0000 H   0  0  0  0  0  0  0  0  0  0  0  0
    1.6899    8.4293    0.0000 C   0  0  0  0  0  0  0  0  0  0  0  0
    0.2127    8.6900    0.0000 H   0  0  0  0  0  0  0  0  0  0  0  0
    2.6550    9.5787    0.0000 C   0  0  0  0  0  0  0  0  0  0  0  0
    2.1420   10.9883    0.0000 H   0  0  0  0  0  0  0  0  0  0  0  0
    4.1331    9.3186    0.0000 C   0  0  0  0  0  0  0  0  0  0  0  0
    5.0971   10.4678    0.0000 H   0  0  0  0  0  0  0  0  0  0  0  0
    4.6461    7.9091    0.0000 C   0  0  0  0  0  0  0  0  0  0  0  0
    6.1233    7.6483    0.0000 H   0  0  0  0  0  0  0  0  0  0  0  0
    4.9446    3.2111    0.0000 C   0  0  0  0  0  0  0  0  0  0  0  0
    5.9088    2.0620    0.0000 H   0  0  0  0  0  0  0  0  0  0  0  0
    3.9804    2.0620    0.0000 H   0  0  0  0  0  0  0  0  0  0  0  0
    7.4907    4.6811    0.0000 C   0  0  1  0  0  0  0  0  0  0  0  0
    6.5266    5.8301    0.0000 H   0  0  0  0  0  0  0  0  0  0  0  0
    8.7898    3.9311    0.0000 C   0  0  2  0  0  0  0  0  0  0  0  0
    9.7540    2.7820    0.0000 H   0  0  0  0  0  0  0  0  0  0  0  0
   10.5045    4.9211    0.0000 C   0  0  0  0  0  0  0  0  0  0  0  0
    9.5403    6.0701    0.0000 H   0  0  0  0  0  0  0  0  0  0  0  0
   11.4687    6.0701    0.0000 H   0  0  0  0  0  0  0  0  0  0  0  0
   11.8036    4.1711    0.0000 C   0  0  0  0  0  0  0  0  0  0  0  0
   11.8031    2.6702    0.0000 C   0  0  0  0  0  0  0  0  0  0  0  0
   10.5039    1.9204    0.0000 H   0  0  0  0  0  0  0  0  0  0  0  0
   13.1021    1.9202    0.0000 C   0  0  0  0  0  0  0  0  0  0  0  0
   13.1023    0.4202    0.0000 H   0  0  0  0  0  0  0  0  0  0  0  0
   14.4016    2.6711    0.0000 C   0  0  0  0  0  0  0  0  0  0  0  0
   15.7007    1.9211    0.0000 H   0  0  0  0  0  0  0  0  0  0  0  0
   14.4021    4.1719    0.0000 C   0  0  0  0  0  0  0  0  0  0  0  0
   15.7013    4.9217    0.0000 H   0  0  0  0  0  0  0  0  0  0  0  0
   13.1031    4.9219    0.0000 C   0  0  0  0  0  0  0  0  0  0  0  0
   13.1028    6.4219    0.0000 H   0  0  0  0  0  0  0  0  0  0  0  0
    7.8256    2.7820    0.0000 N   0  0  0  0  0  0  0  0  0  0  0  0
    8.3386    1.3724    0.0000 H   0  0  0  0  0  0  0  0  0  0  0  0
    6.3484    3.0425    0.0000 H   0  0  0  0  0  0  0  0  0  0  0  0
    8.4549    5.8301    0.0000 O   0  0  0  0  0  0  0  0  0  0  0  0
    7.9419    7.2397    0.0000 H   0  0  0  0  0  0  0  0  0  0  0  0
   -1.0829    1.7111    0.0000 N   0  0  0  0  0  0  0  0  0  0  0  0
   -1.0824    3.2119    0.0000 C   0  0  0  0  0  0  0  0  0  0  0  0
    0.3947    2.9511    0.0000 H   0  0  0  0  0  0  0  0  0  0  0  0
   -0.5692    4.6214    0.0000 H   0  0  0  0  0  0  0  0  0  0  0  0
   -2.3815    3.9619    0.0000 C   0  0  0  0  0  0  0  0  0  0  0  0
   -1.4174    5.1111    0.0000 H   0  0  0  0  0  0  0  0  0  0  0  0
   -3.3459    5.1107    0.0000 H   0  0  0  0  0  0  0  0  0  0  0  0
   -3.6810    3.2111    0.0000 C   0  0  0  0  0  0  0  0  0  0  0  0
   -4.1942    4.6205    0.0000 H   0  0  0  0  0  0  0  0  0  0  0  0
   -5.1582    2.9507    0.0000 H   0  0  0  0  0  0  0  0  0  0  0  0
   -3.6815    1.7102    0.0000 N   0  0  0  0  0  0  0  0  0  0  0  0
   -4.9806    0.9604    0.0000 H   0  0  0  0  0  0  0  0  0  0  0  0
   -2.3824    0.9602    0.0000 C   0  0  0  0  0  0  0  0  0  0  0  0
   -2.3822   -0.5398    0.0000 O   0  0  0  0  0  0  0  0  0  0  0  0
  1  2  1  0  0  0  0 
  1  3  1  0  0  0  0 
  1  4  1  0  0  0  0 
  1  5  1  0  0  0  0 
  5  6  1  0  0  0  0 
  5  7  1  0  0  0  0 
  7  8  1  0  0  0  0 
  7  9  1  0  0  0  0 
  7 10  1  0  0  0  0 
  5 11  1  0  0  0  0 
 11 12  1  1  0  0  0 
 11 13  1  0  0  0  0 
 13 14  2  0  0  0  0 
 13 15  1  0  0  0  0 
 15 16  1  0  0  0  0 
 17 15  1  1  0  0  0 
 17 18  1  6  0  0  0 
 17 19  1  0  0  0  0 
 19 20  1  0  0  0  0 
 19 21  1  0  0  0  0 
 19 22  1  0  0  0  0 
 22 23  2  0  0  0  0 
 23 24  1  0  0  0  0 
 23 25  1  0  0  0  0 
 25 26  1  0  0  0  0 
 25 27  2  0  0  0  0 
 27 28  1  0  0  0  0 
 27 29  1  0  0  0  0 
 29 30  1  0  0  0  0 
 29 31  2  0  0  0  0 
 22 31  1  0  0  0  0 
 31 32  1  0  0  0  0 
 17 33  1  0  0  0  0 
 33 34  1  0  0  0  0 
 33 35  1  0  0  0  0 
 33 36  1  0  0  0  0 
 36 37  1  1  0  0  0 
 36 38  1  0  0  0  0 
 38 39  1  1  0  0  0 
 38 40  1  0  0  0  0 
 40 41  1  0  0  0  0 
 40 42  1  0  0  0  0 
 40 43  1  0  0  0  0 
 43 44  2  0  0  0  0 
 44 45  1  0  0  0  0 
 44 46  1  0  0  0  0 
 46 47  1  0  0  0  0 
 46 48  2  0  0  0  0 
 48 49  1  0  0  0  0 
 48 50  1  0  0  0  0 
 50 51  1  0  0  0  0 
 50 52  2  0  0  0  0 
 43 52  1  0  0  0  0 
 52 53  1  0  0  0  0 
 38 54  1  6  0  0  0 
 54 55  1  0  0  0  0 
 54 56  1  0  0  0  0 
 36 57  1  6  0  0  0 
 57 58  1  0  0  0  0 
 11 59  1  6  0  0  0 
 59 60  1  0  0  0  0 
 60 61  1  0  0  0  0 
 60 62  1  0  0  0  0 
 60 63  1  0  0  0  0 
 63 64  1  0  0  0  0 
 63 65  1  0  0  0  0 
 63 66  1  0  0  0  0 
 66 67  1  0  0  0  0 
 66 68  1  0  0  0  0 
 66 69  1  0  0  0  0 
 69 70  1  0  0  0  0 
 69 71  1  0  0  0  0 
 59 71  1  0  0  0  0 
 71 72  2  0  0  0  0 
M  END
> <Rank>
16

> <Priority_score>
0.092

> <Reaction_type>
hydrolysis_(secondary_amide)

> <Parent_ID>
63

> <Parent_InChI>
InChI=1S/C37H48N4O5/c1-25(2)34(41-20-12-19-38-37(41)45)36(44)39-30(21-28-15-7-5-8-16-28)23-32(42)31(22-29-17-9-6-10-18-29)40-33(43)24-46-35-26(3)13-11-14-27(35)4/h5-11,13-18,25,30-32,34,42H,12,19-24H2,1-4H3,(H,38,45)(H,39,44)(H,40,43)

> <Parent_SMILES>
Cc1cccc(C)c1OCC(=O)N[C@@H](Cc1ccccc1)[C@@H](O)C[C@H](Cc1ccccc1)NC(=O)[C@H](C(C)C)N1CCCNC1=O

$$$$
Molecule 63_metabolite 17
  CDK     0516241031

 25 25  0  0  0  0  0  0  0  0999 V2000
    1.8743    0.3934    0.0000 C   0  0  0  0  0  0  0  0  0  0  0  0
    2.6527   -0.8888    0.0000 H   0  0  0  0  0  0  0  0  0  0  0  0
    1.5814    1.8645    0.0000 H   0  0  0  0  0  0  0  0  0  0  0  0
    3.2722    0.9373    0.0000 H   0  0  0  0  0  0  0  0  0  0  0  0
    0.3747    0.3604    0.0000 C   0  0  0  0  0  0  0  0  0  0  0  0
   -0.3913    1.6272    0.0000 C   0  0  0  0  0  0  0  0  0  0  0  0
    0.3282    2.9434    0.0000 H   0  0  0  0  0  0  0  0  0  0  0  0
   -1.8585    1.5884    0.0000 C   0  0  0  0  0  0  0  0  0  0  0  0
   -2.6238    2.8785    0.0000 H   0  0  0  0  0  0  0  0  0  0  0  0
   -2.6056    0.3025    0.0000 C   0  0  0  0  0  0  0  0  0  0  0  0
   -4.1056    0.3046    0.0000 H   0  0  0  0  0  0  0  0  0  0  0  0
   -1.8456   -1.0138    0.0000 C   0  0  0  0  0  0  0  0  0  0  0  0
   -0.3438   -0.9551    0.0000 C   0  0  0  0  0  0  0  0  0  0  0  0
    0.4466   -2.2299    0.0000 O   0  0  0  0  0  0  0  0  0  0  0  0
    1.9458   -2.1828    0.0000 C   0  0  0  0  0  0  0  0  0  0  0  0
    1.6391   -0.7145    0.0000 H   0  0  0  0  0  0  0  0  0  0  0  0
    3.3386   -1.6258    0.0000 H   0  0  0  0  0  0  0  0  0  0  0  0
    2.7363   -3.4577    0.0000 C   0  0  0  0  0  0  0  0  0  0  0  0
    2.0274   -4.7796    0.0000 O   0  0  0  0  0  0  0  0  0  0  0  0
    4.2355   -3.4106    0.0000 O   0  0  0  0  0  0  0  0  0  0  0  0
    5.0259   -4.6854    0.0000 H   0  0  0  0  0  0  0  0  0  0  0  0
   -2.5701   -2.3273    0.0000 C   0  0  0  0  0  0  0  0  0  0  0  0
   -4.0698   -2.3566    0.0000 H   0  0  0  0  0  0  0  0  0  0  0  0
   -2.8016   -3.8093    0.0000 H   0  0  0  0  0  0  0  0  0  0  0  0
   -1.1508   -2.8127    0.0000 H   0  0  0  0  0  0  0  0  0  0  0  0
  1  2  1  0  0  0  0 
  1  3  1  0  0  0  0 
  1  4  1  0  0  0  0 
  1  5  1  0  0  0  0 
  5  6  2  0  0  0  0 
  6  7  1  0  0  0  0 
  6  8  1  0  0  0  0 
  8  9  1  0  0  0  0 
  8 10  2  0  0  0  0 
 10 11  1  0  0  0  0 
 10 12  1  0  0  0  0 
 12 13  2  0  0  0  0 
  5 13  1  0  0  0  0 
 13 14  1  0  0  0  0 
 14 15  1  0  0  0  0 
 15 16  1  0  0  0  0 
 15 17  1  0  0  0  0 
 15 18  1  0  0  0  0 
 18 19  2  0  0  0  0 
 18 20  1  0  0  0  0 
 20 21  1  0  0  0  0 
 12 22  1  0  0  0  0 
 22 23  1  0  0  0  0 
 22 24  1  0  0  0  0 
 22 25  1  0  0  0  0 
M  END
> <Rank>
16

> <Priority_score>
0.092

> <Reaction_type>
hydrolysis_(secondary_amide)

> <Parent_ID>
63

> <Parent_InChI>
InChI=1S/C37H48N4O5/c1-25(2)34(41-20-12-19-38-37(41)45)36(44)39-30(21-28-15-7-5-8-16-28)23-32(42)31(22-29-17-9-6-10-18-29)40-33(43)24-46-35-26(3)13-11-14-27(35)4/h5-11,13-18,25,30-32,34,42H,12,19-24H2,1-4H3,(H,38,45)(H,39,44)(H,40,43)

> <Parent_SMILES>
Cc1cccc(C)c1OCC(=O)N[C@@H](Cc1ccccc1)[C@@H](O)C[C@H](Cc1ccccc1)NC(=O)[C@H](C(C)C)N1CCCNC1=O

$$$$
Molecule 63_metabolite 18
  CDK     0516241031

 95 98  0  0  0  0  0  0  0  0999 V2000
  -13.3969   10.0767    0.0000 C   0  0  0  0  0  0  0  0  0  0  0  0
  -13.1364   11.5540    0.0000 H   0  0  0  0  0  0  0  0  0  0  0  0
  -14.8064   10.5898    0.0000 H   0  0  0  0  0  0  0  0  0  0  0  0
  -14.1469    8.7777    0.0000 H   0  0  0  0  0  0  0  0  0  0  0  0
  -11.8801    8.8040    0.0000 C   0  0  0  0  0  0  0  0  0  0  0  0
  -10.4706    8.2910    0.0000 H   0  0  0  0  0  0  0  0  0  0  0  0
  -11.1301   10.1031    0.0000 C   0  0  0  0  0  0  0  0  0  0  0  0
   -9.6301   10.1031    0.0000 H   0  0  0  0  0  0  0  0  0  0  0  0
  -12.5396   10.6161    0.0000 H   0  0  0  0  0  0  0  0  0  0  0  0
  -10.8696   11.5803    0.0000 H   0  0  0  0  0  0  0  0  0  0  0  0
  -12.1406    7.3268    0.0000 C   0  0  1  0  0  0  0  0  0  0  0  0
  -13.5501    7.8398    0.0000 H   0  0  0  0  0  0  0  0  0  0  0  0
  -10.1606    7.3268    0.0000 C   0  0  0  0  0  0  0  0  0  0  0  0
   -9.4106    8.6258    0.0000 O   0  0  0  0  0  0  0  0  0  0  0  0
   -9.4106    6.0278    0.0000 N   0  0  0  0  0  0  0  0  0  0  0  0
  -10.1606    4.7287    0.0000 H   0  0  0  0  0  0  0  0  0  0  0  0
   -7.4306    6.0278    0.0000 C   0  0  1  0  0  0  0  0  0  0  0  0
   -7.6911    7.5050    0.0000 H   0  0  0  0  0  0  0  0  0  0  0  0
   -6.0210    6.5408    0.0000 C   0  0  0  0  0  0  0  0  0  0  0  0
   -5.7606    5.0636    0.0000 H   0  0  0  0  0  0  0  0  0  0  0  0
   -4.5210    6.5408    0.0000 H   0  0  0  0  0  0  0  0  0  0  0  0
   -5.7606    8.0180    0.0000 C   0  0  0  0  0  0  0  0  0  0  0  0
   -6.9106    8.9824    0.0000 C   0  0  0  0  0  0  0  0  0  0  0  0
   -8.3200    8.4691    0.0000 H   0  0  0  0  0  0  0  0  0  0  0  0
   -6.6501   10.4596    0.0000 C   0  0  0  0  0  0  0  0  0  0  0  0
   -7.7990   11.4239    0.0000 H   0  0  0  0  0  0  0  0  0  0  0  0
   -5.2396   10.9724    0.0000 C   0  0  0  0  0  0  0  0  0  0  0  0
   -4.9792   12.4496    0.0000 H   0  0  0  0  0  0  0  0  0  0  0  0
   -4.0896   10.0081    0.0000 C   0  0  0  0  0  0  0  0  0  0  0  0
   -2.6802   10.5213    0.0000 H   0  0  0  0  0  0  0  0  0  0  0  0
   -4.3501    8.5309    0.0000 C   0  0  0  0  0  0  0  0  0  0  0  0
   -3.2012    7.5665    0.0000 H   0  0  0  0  0  0  0  0  0  0  0  0
   -6.4406    4.3130    0.0000 C   0  0  0  0  0  0  0  0  0  0  0  0
   -6.1801    2.8358    0.0000 H   0  0  0  0  0  0  0  0  0  0  0  0
   -7.8501    3.8000    0.0000 H   0  0  0  0  0  0  0  0  0  0  0  0
   -4.9406    4.3130    0.0000 C   0  0  1  0  0  0  0  0  0  0  0  0
   -5.2011    5.7903    0.0000 H   0  0  0  0  0  0  0  0  0  0  0  0
   -3.9506    2.5983    0.0000 C   0  0  2  0  0  0  0  0  0  0  0  0
   -3.6901    1.1211    0.0000 H   0  0  0  0  0  0  0  0  0  0  0  0
   -5.3601    2.0853    0.0000 C   0  0  0  0  0  0  0  0  0  0  0  0
   -6.8601    2.0853    0.0000 H   0  0  0  0  0  0  0  0  0  0  0  0
   -5.6206    3.5625    0.0000 H   0  0  0  0  0  0  0  0  0  0  0  0
   -5.6206    0.6081    0.0000 C   0  0  0  0  0  0  0  0  0  0  0  0
   -7.0311    0.0952    0.0000 C   0  0  0  0  0  0  0  0  0  0  0  0
   -8.1800    1.0596    0.0000 H   0  0  0  0  0  0  0  0  0  0  0  0
   -7.2916   -1.3820    0.0000 C   0  0  0  0  0  0  0  0  0  0  0  0
   -8.7010   -1.8953    0.0000 H   0  0  0  0  0  0  0  0  0  0  0  0
   -6.1415   -2.3464    0.0000 C   0  0  0  0  0  0  0  0  0  0  0  0
   -6.4020   -3.8236    0.0000 H   0  0  0  0  0  0  0  0  0  0  0  0
   -4.7311   -1.8335    0.0000 C   0  0  0  0  0  0  0  0  0  0  0  0
   -3.5821   -2.7979    0.0000 H   0  0  0  0  0  0  0  0  0  0  0  0
   -4.4706   -0.3563    0.0000 C   0  0  0  0  0  0  0  0  0  0  0  0
   -3.0611    0.1570    0.0000 H   0  0  0  0  0  0  0  0  0  0  0  0
   -1.9706    2.5983    0.0000 N   0  0  0  0  0  0  0  0  0  0  0  0
   -1.2206    1.2993    0.0000 C   0  0  0  0  0  0  0  0  0  0  0  0
   -1.9706    0.0002    0.0000 O   0  0  0  0  0  0  0  0  0  0  0  0
    0.2794    1.2993    0.0000 C   0  0  0  0  0  0  0  0  0  0  0  0
    0.0189    2.7765    0.0000 H   0  0  0  0  0  0  0  0  0  0  0  0
    1.6890    1.8123    0.0000 H   0  0  0  0  0  0  0  0  0  0  0  0
    1.0294    0.0002    0.0000 O   0  0  0  0  0  0  0  0  0  0  0  0
    2.5294    0.0002    0.0000 C   0  0  0  0  0  0  0  0  0  0  0  0
    3.2688    1.3041    0.0000 C   0  0  0  0  0  0  0  0  0  0  0  0
    2.5066    2.5960    0.0000 C   0  0  0  0  0  0  0  0  0  0  0  0
    1.0067    2.5819    0.0000 H   0  0  0  0  0  0  0  0  0  0  0  0
    3.9113    3.1223    0.0000 H   0  0  0  0  0  0  0  0  0  0  0  0
    2.2322    4.0707    0.0000 H   0  0  0  0  0  0  0  0  0  0  0  0
    4.7491    1.3206    0.0000 C   0  0  0  0  0  0  0  0  0  0  0  0
    5.4886    2.6256    0.0000 H   0  0  0  0  0  0  0  0  0  0  0  0
    5.4892    0.0532    0.0000 C   0  0  0  0  0  0  0  0  0  0  0  0
    6.9889    0.0826    0.0000 H   0  0  0  0  0  0  0  0  0  0  0  0
    4.7901   -1.2594    0.0000 C   0  0  0  0  0  0  0  0  0  0  0  0
    5.5823   -2.5332    0.0000 H   0  0  0  0  0  0  0  0  0  0  0  0
    3.2708   -1.3071    0.0000 C   0  0  0  0  0  0  0  0  0  0  0  0
    2.5363   -2.6150    0.0000 C   0  0  0  0  0  0  0  0  0  0  0  0
    3.3016   -3.9050    0.0000 H   0  0  0  0  0  0  0  0  0  0  0  0
    1.3987   -3.5927    0.0000 H   0  0  0  0  0  0  0  0  0  0  0  0
    1.3759   -1.6645    0.0000 H   0  0  0  0  0  0  0  0  0  0  0  0
   -1.2206    3.8973    0.0000 O   0  0  0  0  0  0  0  0  0  0  0  0
    0.2794    3.8973    0.0000 H   0  0  0  0  0  0  0  0  0  0  0  0
   -3.5310    4.8261    0.0000 O   0  0  0  0  0  0  0  0  0  0  0  0
   -3.2706    6.3033    0.0000 H   0  0  0  0  0  0  0  0  0  0  0  0
  -12.8906    6.0278    0.0000 N   0  0  0  0  0  0  0  0  0  0  0  0
  -12.1397    4.7283    0.0000 C   0  0  0  0  0  0  0  0  0  0  0  0
  -10.9909    5.6927    0.0000 H   0  0  0  0  0  0  0  0  0  0  0  0
  -10.9906    3.7642    0.0000 H   0  0  0  0  0  0  0  0  0  0  0  0
  -12.8897    3.4292    0.0000 C   0  0  0  0  0  0  0  0  0  0  0  0
  -11.4803    2.9160    0.0000 H   0  0  0  0  0  0  0  0  0  0  0  0
  -13.1505    1.9521    0.0000 H   0  0  0  0  0  0  0  0  0  0  0  0
  -14.3906    3.4297    0.0000 C   0  0  0  0  0  0  0  0  0  0  0  0
  -14.1303    1.9525    0.0000 H   0  0  0  0  0  0  0  0  0  0  0  0
  -15.8001    2.9165    0.0000 H   0  0  0  0  0  0  0  0  0  0  0  0
  -15.1414    4.7292    0.0000 N   0  0  0  0  0  0  0  0  0  0  0  0
  -16.6414    4.7290    0.0000 H   0  0  0  0  0  0  0  0  0  0  0  0
  -14.3914    6.0283    0.0000 C   0  0  0  0  0  0  0  0  0  0  0  0
  -15.1412    7.3274    0.0000 O   0  0  0  0  0  0  0  0  0  0  0  0
  1  2  1  0  0  0  0 
  1  3  1  0  0  0  0 
  1  4  1  0  0  0  0 
  1  5  1  0  0  0  0 
  5  6  1  0  0  0  0 
  5  7  1  0  0  0  0 
  7  8  1  0  0  0  0 
  7  9  1  0  0  0  0 
  7 10  1  0  0  0  0 
  5 11  1  0  0  0  0 
 11 12  1  6  0  0  0 
 11 13  1  0  0  0  0 
 13 14  2  0  0  0  0 
 13 15  1  0  0  0  0 
 15 16  1  0  0  0  0 
 17 15  1  1  0  0  0 
 17 18  1  6  0  0  0 
 17 19  1  0  0  0  0 
 19 20  1  0  0  0  0 
 19 21  1  0  0  0  0 
 19 22  1  0  0  0  0 
 22 23  2  0  0  0  0 
 23 24  1  0  0  0  0 
 23 25  1  0  0  0  0 
 25 26  1  0  0  0  0 
 25 27  2  0  0  0  0 
 27 28  1  0  0  0  0 
 27 29  1  0  0  0  0 
 29 30  1  0  0  0  0 
 29 31  2  0  0  0  0 
 22 31  1  0  0  0  0 
 31 32  1  0  0  0  0 
 17 33  1  0  0  0  0 
 33 34  1  0  0  0  0 
 33 35  1  0  0  0  0 
 33 36  1  0  0  0  0 
 36 37  1  1  0  0  0 
 36 38  1  0  0  0  0 
 38 39  1  6  0  0  0 
 38 40  1  0  0  0  0 
 40 41  1  0  0  0  0 
 40 42  1  0  0  0  0 
 40 43  1  0  0  0  0 
 43 44  2  0  0  0  0 
 44 45  1  0  0  0  0 
 44 46  1  0  0  0  0 
 46 47  1  0  0  0  0 
 46 48  2  0  0  0  0 
 48 49  1  0  0  0  0 
 48 50  1  0  0  0  0 
 50 51  1  0  0  0  0 
 50 52  2  0  0  0  0 
 43 52  1  0  0  0  0 
 52 53  1  0  0  0  0 
 38 54  1  1  0  0  0 
 54 55  1  0  0  0  0 
 55 56  2  0  0  0  0 
 55 57  1  0  0  0  0 
 57 58  1  0  0  0  0 
 57 59  1  0  0  0  0 
 57 60  1  0  0  0  0 
 60 61  1  0  0  0  0 
 61 62  2  0  0  0  0 
 62 63  1  0  0  0  0 
 63 64  1  0  0  0  0 
 63 65  1  0  0  0  0 
 63 66  1  0  0  0  0 
 62 67  1  0  0  0  0 
 67 68  1  0  0  0  0 
 67 69  2  0  0  0  0 
 69 70  1  0  0  0  0 
 69 71  1  0  0  0  0 
 71 72  1  0  0  0  0 
 71 73  2  0  0  0  0 
 61 73  1  0  0  0  0 
 73 74  1  0  0  0  0 
 74 75  1  0  0  0  0 
 74 76  1  0  0  0  0 
 74 77  1  0  0  0  0 
 54 78  1  0  0  0  0 
 78 79  1  0  0  0  0 
 36 80  1  6  0  0  0 
 80 81  1  0  0  0  0 
 11 82  1  1  0  0  0 
 82 83  1  0  0  0  0 
 83 84  1  0  0  0  0 
 83 85  1  0  0  0  0 
 83 86  1  0  0  0  0 
 86 87  1  0  0  0  0 
 86 88  1  0  0  0  0 
 86 89  1  0  0  0  0 
 89 90  1  0  0  0  0 
 89 91  1  0  0  0  0 
 89 92  1  0  0  0  0 
 92 93  1  0  0  0  0 
 92 94  1  0  0  0  0 
 82 94  1  0  0  0  0 
 94 95  2  0  0  0  0 
M  END
> <Rank>
16

> <Priority_score>
0.092

> <Reaction_type>
amine hydroxylation

> <Parent_ID>
63

> <Parent_InChI>
InChI=1S/C37H48N4O5/c1-25(2)34(41-20-12-19-38-37(41)45)36(44)39-30(21-28-15-7-5-8-16-28)23-32(42)31(22-29-17-9-6-10-18-29)40-33(43)24-46-35-26(3)13-11-14-27(35)4/h5-11,13-18,25,30-32,34,42H,12,19-24H2,1-4H3,(H,38,45)(H,39,44)(H,40,43)

> <Parent_SMILES>
Cc1cccc(C)c1OCC(=O)N[C@@H](Cc1ccccc1)[C@@H](O)C[C@H](Cc1ccccc1)NC(=O)[C@H](C(C)C)N1CCCNC1=O

$$$$
Molecule 63_metabolite 19
  CDK     0516241031

 97 99  0  0  0  0  0  0  0  0999 V2000
  -13.9364   -5.6443    0.0000 C   0  0  0  0  0  0  0  0  0  0  0  0
  -13.9364   -7.1443    0.0000 H   0  0  0  0  0  0  0  0  0  0  0  0
  -14.4494   -4.2347    0.0000 H   0  0  0  0  0  0  0  0  0  0  0  0
  -15.4136   -5.9047    0.0000 H   0  0  0  0  0  0  0  0  0  0  0  0
  -11.8060   -4.4143    0.0000 C   0  0  0  0  0  0  0  0  0  0  0  0
  -10.3288   -4.1538    0.0000 H   0  0  0  0  0  0  0  0  0  0  0  0
  -11.2929   -5.8238    0.0000 C   0  0  0  0  0  0  0  0  0  0  0  0
  -12.2571   -6.9729    0.0000 H   0  0  0  0  0  0  0  0  0  0  0  0
   -9.9939   -5.0738    0.0000 H   0  0  0  0  0  0  0  0  0  0  0  0
  -10.3288   -6.9729    0.0000 H   0  0  0  0  0  0  0  0  0  0  0  0
  -11.8060   -2.9143    0.0000 C   0  0  1  0  0  0  0  0  0  0  0  0
  -13.2832   -3.1748    0.0000 H   0  0  0  0  0  0  0  0  0  0  0  0
   -9.8560   -3.2581    0.0000 C   0  0  0  0  0  0  0  0  0  0  0  0
   -8.8919   -2.1090    0.0000 O   0  0  0  0  0  0  0  0  0  0  0  0
   -9.3430   -4.6676    0.0000 N   0  0  0  0  0  0  0  0  0  0  0  0
  -10.3072   -5.8167    0.0000 H   0  0  0  0  0  0  0  0  0  0  0  0
   -7.8658   -4.9281    0.0000 C   0  0  1  0  0  0  0  0  0  0  0  0
   -7.8658   -3.4281    0.0000 H   0  0  0  0  0  0  0  0  0  0  0  0
   -6.8603   -7.6908    0.0000 C   0  0  0  0  0  0  0  0  0  0  0  0
   -6.8603   -9.1908    0.0000 H   0  0  0  0  0  0  0  0  0  0  0  0
   -8.3375   -7.9513    0.0000 H   0  0  0  0  0  0  0  0  0  0  0  0
   -5.5612   -8.4408    0.0000 C   0  0  0  0  0  0  0  0  0  0  0  0
   -5.5617   -9.9416    0.0000 C   0  0  0  0  0  0  0  0  0  0  0  0
   -6.8609  -10.6914    0.0000 H   0  0  0  0  0  0  0  0  0  0  0  0
   -4.2627  -10.6916    0.0000 C   0  0  0  0  0  0  0  0  0  0  0  0
   -4.2624  -12.1916    0.0000 H   0  0  0  0  0  0  0  0  0  0  0  0
   -2.9632   -9.9408    0.0000 C   0  0  0  0  0  0  0  0  0  0  0  0
   -1.6641  -10.6908    0.0000 H   0  0  0  0  0  0  0  0  0  0  0  0
   -2.9627   -8.4400    0.0000 C   0  0  0  0  0  0  0  0  0  0  0  0
   -1.6635   -7.6902    0.0000 H   0  0  0  0  0  0  0  0  0  0  0  0
   -4.2617   -7.6900    0.0000 C   0  0  0  0  0  0  0  0  0  0  0  0
   -4.2620   -6.1900    0.0000 H   0  0  0  0  0  0  0  0  0  0  0  0
   -5.9159   -4.5843    0.0000 C   0  0  0  0  0  0  0  0  0  0  0  0
   -5.9159   -6.0843    0.0000 H   0  0  0  0  0  0  0  0  0  0  0  0
   -4.4387   -4.8448    0.0000 H   0  0  0  0  0  0  0  0  0  0  0  0
   -5.2387   -2.7237    0.0000 C   0  0  1  0  0  0  0  0  0  0  0  0
   -5.2387   -1.2237    0.0000 H   0  0  0  0  0  0  0  0  0  0  0  0
   -3.2888   -2.3799    0.0000 C   0  0  2  0  0  0  0  0  0  0  0  0
   -3.2888   -3.8799    0.0000 H   0  0  0  0  0  0  0  0  0  0  0  0
   -1.3388   -2.7237    0.0000 C   0  0  0  0  0  0  0  0  0  0  0  0
   -1.8519   -4.1332    0.0000 H   0  0  0  0  0  0  0  0  0  0  0  0
   -0.0398   -3.4737    0.0000 H   0  0  0  0  0  0  0  0  0  0  0  0
   -0.0398   -1.9737    0.0000 C   0  0  0  0  0  0  0  0  0  0  0  0
   -0.0403   -0.4729    0.0000 C   0  0  0  0  0  0  0  0  0  0  0  0
   -1.3394    0.2769    0.0000 H   0  0  0  0  0  0  0  0  0  0  0  0
    1.2587    0.2771    0.0000 C   0  0  0  0  0  0  0  0  0  0  0  0
    1.2590    1.7771    0.0000 H   0  0  0  0  0  0  0  0  0  0  0  0
    2.5583   -0.4737    0.0000 C   0  0  0  0  0  0  0  0  0  0  0  0
    3.8573    0.2763    0.0000 H   0  0  0  0  0  0  0  0  0  0  0  0
    2.5587   -1.9745    0.0000 C   0  0  0  0  0  0  0  0  0  0  0  0
    3.8579   -2.7243    0.0000 H   0  0  0  0  0  0  0  0  0  0  0  0
    1.2597   -2.7245    0.0000 C   0  0  0  0  0  0  0  0  0  0  0  0
    1.2595   -4.2245    0.0000 H   0  0  0  0  0  0  0  0  0  0  0  0
   -2.7757   -0.9703    0.0000 N   0  0  0  0  0  0  0  0  0  0  0  0
   -1.2985   -0.7099    0.0000 H   0  0  0  0  0  0  0  0  0  0  0  0
   -3.7399    0.1787    0.0000 C   0  0  0  0  0  0  0  0  0  0  0  0
   -5.2171   -0.0817    0.0000 O   0  0  0  0  0  0  0  0  0  0  0  0
   -3.2269    1.5883    0.0000 C   0  0  0  0  0  0  0  0  0  0  0  0
   -2.2627    2.7373    0.0000 H   0  0  0  0  0  0  0  0  0  0  0  0
   -1.9279    0.8383    0.0000 H   0  0  0  0  0  0  0  0  0  0  0  0
   -4.1911    2.7373    0.0000 O   0  0  0  0  0  0  0  0  0  0  0  0
   -3.6780    4.1469    0.0000 C   0  0  0  0  0  0  0  0  0  0  0  0
   -2.1999    4.3958    0.0000 C   0  0  0  0  0  0  0  0  0  0  0  0
   -1.2466    3.2377    0.0000 C   0  0  0  0  0  0  0  0  0  0  0  0
   -1.7729    1.8330    0.0000 H   0  0  0  0  0  0  0  0  0  0  0  0
   -0.2716    4.3776    0.0000 H   0  0  0  0  0  0  0  0  0  0  0  0
    0.0453    2.4754    0.0000 H   0  0  0  0  0  0  0  0  0  0  0  0
   -1.6782    5.7811    0.0000 C   0  0  0  0  0  0  0  0  0  0  0  0
   -0.1989    6.0296    0.0000 H   0  0  0  0  0  0  0  0  0  0  0  0
   -2.6160    6.9101    0.0000 C   0  0  0  0  0  0  0  0  0  0  0  0
   -2.0754    8.3093    0.0000 H   0  0  0  0  0  0  0  0  0  0  0  0
   -4.0885    6.7020    0.0000 C   0  0  0  0  0  0  0  0  0  0  0  0
   -5.0145    7.8821    0.0000 H   0  0  0  0  0  0  0  0  0  0  0  0
   -4.6530    5.2907    0.0000 C   0  0  0  0  0  0  0  0  0  0  0  0
   -6.1332    5.0478    0.0000 C   0  0  0  0  0  0  0  0  0  0  0  0
   -7.0837    6.2082    0.0000 H   0  0  0  0  0  0  0  0  0  0  0  0
   -7.4410    4.3132    0.0000 H   0  0  0  0  0  0  0  0  0  0  0  0
   -5.6369    3.6322    0.0000 H   0  0  0  0  0  0  0  0  0  0  0  0
   -6.7159   -2.4632    0.0000 O   0  0  0  0  0  0  0  0  0  0  0  0
   -7.2289   -1.0537    0.0000 H   0  0  0  0  0  0  0  0  0  0  0  0
  -12.3190   -1.5047    0.0000 N   0  0  0  0  0  0  0  0  0  0  0  0
  -14.7416   -1.0776    0.0000 C   0  0  0  0  0  0  0  0  0  0  0  0
  -14.7416   -2.5776    0.0000 H   0  0  0  0  0  0  0  0  0  0  0  0
  -16.2188   -1.3380    0.0000 H   0  0  0  0  0  0  0  0  0  0  0  0
  -15.2547    0.3320    0.0000 C   0  0  0  0  0  0  0  0  0  0  0  0
  -15.2547    1.8320    0.0000 H   0  0  0  0  0  0  0  0  0  0  0  0
  -13.7774    0.5924    0.0000 H   0  0  0  0  0  0  0  0  0  0  0  0
  -17.6773    0.7591    0.0000 C   0  0  0  0  0  0  0  0  0  0  0  0
  -17.6773   -0.7409    0.0000 H   0  0  0  0  0  0  0  0  0  0  0  0
  -19.1545    0.4987    0.0000 H   0  0  0  0  0  0  0  0  0  0  0  0
  -18.1903    2.1687    0.0000 N   0  0  0  0  0  0  0  0  0  0  0  0
  -19.6675    2.4292    0.0000 H   0  0  0  0  0  0  0  0  0  0  0  0
  -17.2261    3.3178    0.0000 H   0  0  0  0  0  0  0  0  0  0  0  0
  -11.3548   -0.3557    0.0000 C   0  0  0  0  0  0  0  0  0  0  0  0
   -9.8776   -0.6161    0.0000 O   0  0  0  0  0  0  0  0  0  0  0  0
  -11.8678    1.0539    0.0000 O   0  0  0  0  0  0  0  0  0  0  0  0
  -13.3451    1.3143    0.0000 H   0  0  0  0  0  0  0  0  0  0  0  0
  1  2  1  0  0  0  0 
  1  3  1  0  0  0  0 
  1  4  1  0  0  0  0 
  1  5  1  0  0  0  0 
  5  6  1  0  0  0  0 
  5  7  1  0  0  0  0 
  7  8  1  0  0  0  0 
  7  9  1  0  0  0  0 
  7 10  1  0  0  0  0 
  5 11  1  0  0  0  0 
 11 12  1  1  0  0  0 
 11 13  1  0  0  0  0 
 13 14  2  0  0  0  0 
 13 15  1  0  0  0  0 
 15 16  1  0  0  0  0 
 17 15  1  6  0  0  0 
 17 18  1  1  0  0  0 
 17 19  1  0  0  0  0 
 19 20  1  0  0  0  0 
 19 21  1  0  0  0  0 
 19 22  1  0  0  0  0 
 22 23  2  0  0  0  0 
 23 24  1  0  0  0  0 
 23 25  1  0  0  0  0 
 25 26  1  0  0  0  0 
 25 27  2  0  0  0  0 
 27 28  1  0  0  0  0 
 27 29  1  0  0  0  0 
 29 30  1  0  0  0  0 
 29 31  2  0  0  0  0 
 22 31  1  0  0  0  0 
 31 32  1  0  0  0  0 
 17 33  1  0  0  0  0 
 33 34  1  0  0  0  0 
 33 35  1  0  0  0  0 
 33 36  1  0  0  0  0 
 36 37  1  1  0  0  0 
 36 38  1  0  0  0  0 
 38 39  1  6  0  0  0 
 38 40  1  1  0  0  0 
 40 41  1  0  0  0  0 
 40 42  1  0  0  0  0 
 40 43  1  0  0  0  0 
 43 44  2  0  0  0  0 
 44 45  1  0  0  0  0 
 44 46  1  0  0  0  0 
 46 47  1  0  0  0  0 
 46 48  2  0  0  0  0 
 48 49  1  0  0  0  0 
 48 50  1  0  0  0  0 
 50 51  1  0  0  0  0 
 50 52  2  0  0  0  0 
 43 52  1  0  0  0  0 
 52 53  1  0  0  0  0 
 38 54  1  0  0  0  0 
 54 55  1  0  0  0  0 
 54 56  1  0  0  0  0 
 56 57  2  0  0  0  0 
 56 58  1  0  0  0  0 
 58 59  1  0  0  0  0 
 58 60  1  0  0  0  0 
 58 61  1  0  0  0  0 
 61 62  1  0  0  0  0 
 62 63  2  0  0  0  0 
 63 64  1  0  0  0  0 
 64 65  1  0  0  0  0 
 64 66  1  0  0  0  0 
 64 67  1  0  0  0  0 
 63 68  1  0  0  0  0 
 68 69  1  0  0  0  0 
 68 70  2  0  0  0  0 
 70 71  1  0  0  0  0 
 70 72  1  0  0  0  0 
 72 73  1  0  0  0  0 
 72 74  2  0  0  0  0 
 62 74  1  0  0  0  0 
 74 75  1  0  0  0  0 
 75 76  1  0  0  0  0 
 75 77  1  0  0  0  0 
 75 78  1  0  0  0  0 
 36 79  1  6  0  0  0 
 79 80  1  0  0  0  0 
 11 81  1  6  0  0  0 
 81 82  1  0  0  0  0 
 82 83  1  0  0  0  0 
 82 84  1  0  0  0  0 
 82 85  1  0  0  0  0 
 85 86  1  0  0  0  0 
 85 87  1  0  0  0  0 
 85 88  1  0  0  0  0 
 88 89  1  0  0  0  0 
 88 90  1  0  0  0  0 
 88 91  1  0  0  0  0 
 91 92  1  0  0  0  0 
 91 93  1  0  0  0  0 
 81 94  1  0  0  0  0 
 94 95  2  0  0  0  0 
 94 96  1  0  0  0  0 
 96 97  1  0  0  0  0 
M  END
> <Rank>
19

> <Priority_score>
0.088

> <Reaction_type>
hydrolysis_(urea_or_carbonate)

> <Parent_ID>
63

> <Parent_InChI>
InChI=1S/C37H48N4O5/c1-25(2)34(41-20-12-19-38-37(41)45)36(44)39-30(21-28-15-7-5-8-16-28)23-32(42)31(22-29-17-9-6-10-18-29)40-33(43)24-46-35-26(3)13-11-14-27(35)4/h5-11,13-18,25,30-32,34,42H,12,19-24H2,1-4H3,(H,38,45)(H,39,44)(H,40,43)

> <Parent_SMILES>
Cc1cccc(C)c1OCC(=O)N[C@@H](Cc1ccccc1)[C@@H](O)C[C@H](Cc1ccccc1)NC(=O)[C@H](C(C)C)N1CCCNC1=O

$$$$
Molecule 63_metabolite 20
  CDK     0516241031

 95 98  0  0  0  0  0  0  0  0999 V2000
  -13.3969   10.0767    0.0000 C   0  0  0  0  0  0  0  0  0  0  0  0
  -13.1364   11.5540    0.0000 H   0  0  0  0  0  0  0  0  0  0  0  0
  -14.8064   10.5898    0.0000 H   0  0  0  0  0  0  0  0  0  0  0  0
  -14.1469    8.7777    0.0000 H   0  0  0  0  0  0  0  0  0  0  0  0
  -11.8801    8.8040    0.0000 C   0  0  0  0  0  0  0  0  0  0  0  0
  -10.4706    8.2910    0.0000 H   0  0  0  0  0  0  0  0  0  0  0  0
  -11.1301   10.1031    0.0000 C   0  0  0  0  0  0  0  0  0  0  0  0
   -9.6301   10.1031    0.0000 H   0  0  0  0  0  0  0  0  0  0  0  0
  -12.5396   10.6161    0.0000 H   0  0  0  0  0  0  0  0  0  0  0  0
  -10.8696   11.5803    0.0000 H   0  0  0  0  0  0  0  0  0  0  0  0
  -12.1406    7.3268    0.0000 C   0  0  1  0  0  0  0  0  0  0  0  0
  -13.5501    7.8398    0.0000 H   0  0  0  0  0  0  0  0  0  0  0  0
  -10.1606    7.3268    0.0000 C   0  0  0  0  0  0  0  0  0  0  0  0
   -9.4106    8.6258    0.0000 O   0  0  0  0  0  0  0  0  0  0  0  0
   -9.4106    6.0278    0.0000 N   0  0  0  0  0  0  0  0  0  0  0  0
  -10.1606    4.7287    0.0000 H   0  0  0  0  0  0  0  0  0  0  0  0
   -7.4306    6.0278    0.0000 C   0  0  1  0  0  0  0  0  0  0  0  0
   -7.6911    7.5050    0.0000 H   0  0  0  0  0  0  0  0  0  0  0  0
   -6.0210    6.5408    0.0000 C   0  0  0  0  0  0  0  0  0  0  0  0
   -5.7606    5.0636    0.0000 H   0  0  0  0  0  0  0  0  0  0  0  0
   -4.5210    6.5408    0.0000 H   0  0  0  0  0  0  0  0  0  0  0  0
   -5.7606    8.0180    0.0000 C   0  0  0  0  0  0  0  0  0  0  0  0
   -6.9106    8.9824    0.0000 C   0  0  0  0  0  0  0  0  0  0  0  0
   -8.3200    8.4691    0.0000 H   0  0  0  0  0  0  0  0  0  0  0  0
   -6.6501   10.4596    0.0000 C   0  0  0  0  0  0  0  0  0  0  0  0
   -7.7990   11.4239    0.0000 H   0  0  0  0  0  0  0  0  0  0  0  0
   -5.2396   10.9724    0.0000 C   0  0  0  0  0  0  0  0  0  0  0  0
   -4.9792   12.4496    0.0000 H   0  0  0  0  0  0  0  0  0  0  0  0
   -4.0896   10.0081    0.0000 C   0  0  0  0  0  0  0  0  0  0  0  0
   -2.6802   10.5213    0.0000 H   0  0  0  0  0  0  0  0  0  0  0  0
   -4.3501    8.5309    0.0000 C   0  0  0  0  0  0  0  0  0  0  0  0
   -3.2012    7.5665    0.0000 H   0  0  0  0  0  0  0  0  0  0  0  0
   -6.4406    4.3130    0.0000 C   0  0  0  0  0  0  0  0  0  0  0  0
   -6.1801    2.8358    0.0000 H   0  0  0  0  0  0  0  0  0  0  0  0
   -7.8501    3.8000    0.0000 H   0  0  0  0  0  0  0  0  0  0  0  0
   -4.9406    4.3130    0.0000 C   0  0  1  0  0  0  0  0  0  0  0  0
   -5.2011    5.7903    0.0000 H   0  0  0  0  0  0  0  0  0  0  0  0
   -3.9506    2.5983    0.0000 C   0  0  2  0  0  0  0  0  0  0  0  0
   -3.6901    1.1211    0.0000 H   0  0  0  0  0  0  0  0  0  0  0  0
   -5.3601    2.0853    0.0000 C   0  0  0  0  0  0  0  0  0  0  0  0
   -6.8601    2.0853    0.0000 H   0  0  0  0  0  0  0  0  0  0  0  0
   -5.6206    3.5625    0.0000 H   0  0  0  0  0  0  0  0  0  0  0  0
   -5.6206    0.6081    0.0000 C   0  0  0  0  0  0  0  0  0  0  0  0
   -7.0311    0.0952    0.0000 C   0  0  0  0  0  0  0  0  0  0  0  0
   -8.1800    1.0596    0.0000 H   0  0  0  0  0  0  0  0  0  0  0  0
   -7.2916   -1.3820    0.0000 C   0  0  0  0  0  0  0  0  0  0  0  0
   -8.7010   -1.8953    0.0000 H   0  0  0  0  0  0  0  0  0  0  0  0
   -6.1415   -2.3464    0.0000 C   0  0  0  0  0  0  0  0  0  0  0  0
   -6.4020   -3.8236    0.0000 H   0  0  0  0  0  0  0  0  0  0  0  0
   -4.7311   -1.8335    0.0000 C   0  0  0  0  0  0  0  0  0  0  0  0
   -3.5821   -2.7979    0.0000 H   0  0  0  0  0  0  0  0  0  0  0  0
   -4.4706   -0.3563    0.0000 C   0  0  0  0  0  0  0  0  0  0  0  0
   -3.0611    0.1570    0.0000 H   0  0  0  0  0  0  0  0  0  0  0  0
   -1.9706    2.5983    0.0000 N   0  0  0  0  0  0  0  0  0  0  0  0
   -1.2206    3.8973    0.0000 H   0  0  0  0  0  0  0  0  0  0  0  0
   -1.2206    1.2993    0.0000 C   0  0  0  0  0  0  0  0  0  0  0  0
   -1.9706    0.0002    0.0000 O   0  0  0  0  0  0  0  0  0  0  0  0
    0.2794    1.2993    0.0000 C   0  0  0  0  0  0  0  0  0  0  0  0
    0.0189    2.7765    0.0000 H   0  0  0  0  0  0  0  0  0  0  0  0
    1.6890    1.8123    0.0000 H   0  0  0  0  0  0  0  0  0  0  0  0
    1.0294    0.0002    0.0000 O   0  0  0  0  0  0  0  0  0  0  0  0
    2.5294    0.0002    0.0000 C   0  0  0  0  0  0  0  0  0  0  0  0
    3.2688    1.3041    0.0000 C   0  0  0  0  0  0  0  0  0  0  0  0
    2.5066    2.5960    0.0000 C   0  0  0  0  0  0  0  0  0  0  0  0
    1.0067    2.5819    0.0000 H   0  0  0  0  0  0  0  0  0  0  0  0
    3.9113    3.1223    0.0000 H   0  0  0  0  0  0  0  0  0  0  0  0
    2.2322    4.0707    0.0000 H   0  0  0  0  0  0  0  0  0  0  0  0
    4.7491    1.3206    0.0000 C   0  0  0  0  0  0  0  0  0  0  0  0
    5.4886    2.6256    0.0000 H   0  0  0  0  0  0  0  0  0  0  0  0
    5.4892    0.0532    0.0000 C   0  0  0  0  0  0  0  0  0  0  0  0
    6.9889    0.0826    0.0000 H   0  0  0  0  0  0  0  0  0  0  0  0
    4.7901   -1.2594    0.0000 C   0  0  0  0  0  0  0  0  0  0  0  0
    5.5823   -2.5332    0.0000 H   0  0  0  0  0  0  0  0  0  0  0  0
    3.2708   -1.3071    0.0000 C   0  0  0  0  0  0  0  0  0  0  0  0
    2.5363   -2.6150    0.0000 C   0  0  0  0  0  0  0  0  0  0  0  0
    3.3016   -3.9050    0.0000 H   0  0  0  0  0  0  0  0  0  0  0  0
    1.3987   -3.5927    0.0000 H   0  0  0  0  0  0  0  0  0  0  0  0
    1.3759   -1.6645    0.0000 H   0  0  0  0  0  0  0  0  0  0  0  0
   -3.5310    4.8261    0.0000 O   0  0  0  0  0  0  0  0  0  0  0  0
   -3.2706    6.3033    0.0000 H   0  0  0  0  0  0  0  0  0  0  0  0
  -12.8906    6.0278    0.0000 N   0  0  0  0  0  0  0  0  0  0  0  0
  -12.1397    4.7283    0.0000 C   0  0  0  0  0  0  0  0  0  0  0  0
  -10.9909    5.6927    0.0000 H   0  0  0  0  0  0  0  0  0  0  0  0
  -10.9906    3.7642    0.0000 H   0  0  0  0  0  0  0  0  0  0  0  0
  -12.8897    3.4292    0.0000 C   0  0  0  0  0  0  0  0  0  0  0  0
  -11.4803    2.9160    0.0000 H   0  0  0  0  0  0  0  0  0  0  0  0
  -13.1505    1.9521    0.0000 H   0  0  0  0  0  0  0  0  0  0  0  0
  -14.3906    3.4297    0.0000 C   0  0  0  0  0  0  0  0  0  0  0  0
  -14.1303    1.9525    0.0000 H   0  0  0  0  0  0  0  0  0  0  0  0
  -15.1414    4.7292    0.0000 N   0  0  0  0  0  0  0  0  0  0  0  0
  -16.6414    4.7290    0.0000 H   0  0  0  0  0  0  0  0  0  0  0  0
  -14.3914    6.0283    0.0000 C   0  0  0  0  0  0  0  0  0  0  0  0
  -15.1412    7.3274    0.0000 O   0  0  0  0  0  0  0  0  0  0  0  0
  -15.8001    2.9165    0.0000 O   0  0  0  0  0  0  0  0  0  0  0  0
  -16.0604    1.4393    0.0000 H   0  0  0  0  0  0  0  0  0  0  0  0
  1  2  1  0  0  0  0 
  1  3  1  0  0  0  0 
  1  4  1  0  0  0  0 
  1  5  1  0  0  0  0 
  5  6  1  0  0  0  0 
  5  7  1  0  0  0  0 
  7  8  1  0  0  0  0 
  7  9  1  0  0  0  0 
  7 10  1  0  0  0  0 
  5 11  1  0  0  0  0 
 11 12  1  6  0  0  0 
 11 13  1  0  0  0  0 
 13 14  2  0  0  0  0 
 13 15  1  0  0  0  0 
 15 16  1  0  0  0  0 
 17 15  1  1  0  0  0 
 17 18  1  6  0  0  0 
 17 19  1  0  0  0  0 
 19 20  1  0  0  0  0 
 19 21  1  0  0  0  0 
 19 22  1  0  0  0  0 
 22 23  2  0  0  0  0 
 23 24  1  0  0  0  0 
 23 25  1  0  0  0  0 
 25 26  1  0  0  0  0 
 25 27  2  0  0  0  0 
 27 28  1  0  0  0  0 
 27 29  1  0  0  0  0 
 29 30  1  0  0  0  0 
 29 31  2  0  0  0  0 
 22 31  1  0  0  0  0 
 31 32  1  0  0  0  0 
 17 33  1  0  0  0  0 
 33 34  1  0  0  0  0 
 33 35  1  0  0  0  0 
 33 36  1  0  0  0  0 
 36 37  1  1  0  0  0 
 36 38  1  0  0  0  0 
 38 39  1  6  0  0  0 
 38 40  1  0  0  0  0 
 40 41  1  0  0  0  0 
 40 42  1  0  0  0  0 
 40 43  1  0  0  0  0 
 43 44  2  0  0  0  0 
 44 45  1  0  0  0  0 
 44 46  1  0  0  0  0 
 46 47  1  0  0  0  0 
 46 48  2  0  0  0  0 
 48 49  1  0  0  0  0 
 48 50  1  0  0  0  0 
 50 51  1  0  0  0  0 
 50 52  2  0  0  0  0 
 43 52  1  0  0  0  0 
 52 53  1  0  0  0  0 
 38 54  1  1  0  0  0 
 54 55  1  0  0  0  0 
 54 56  1  0  0  0  0 
 56 57  2  0  0  0  0 
 56 58  1  0  0  0  0 
 58 59  1  0  0  0  0 
 58 60  1  0  0  0  0 
 58 61  1  0  0  0  0 
 61 62  1  0  0  0  0 
 62 63  2  0  0  0  0 
 63 64  1  0  0  0  0 
 64 65  1  0  0  0  0 
 64 66  1  0  0  0  0 
 64 67  1  0  0  0  0 
 63 68  1  0  0  0  0 
 68 69  1  0  0  0  0 
 68 70  2  0  0  0  0 
 70 71  1  0  0  0  0 
 70 72  1  0  0  0  0 
 72 73  1  0  0  0  0 
 72 74  2  0  0  0  0 
 62 74  1  0  0  0  0 
 74 75  1  0  0  0  0 
 75 76  1  0  0  0  0 
 75 77  1  0  0  0  0 
 75 78  1  0  0  0  0 
 36 79  1  6  0  0  0 
 79 80  1  0  0  0  0 
 11 81  1  1  0  0  0 
 81 82  1  0  0  0  0 
 82 83  1  0  0  0  0 
 82 84  1  0  0  0  0 
 82 85  1  0  0  0  0 
 85 86  1  0  0  0  0 
 85 87  1  0  0  0  0 
 85 88  1  0  0  0  0 
 88 89  1  0  0  0  0 
 88 90  1  0  0  0  0 
 90 91  1  0  0  0  0 
 90 92  1  0  0  0  0 
 81 92  1  0  0  0  0 
 92 93  2  0  0  0  0 
 88 94  1  0  0  0  0 
 94 95  1  0  0  0  0 
M  END
> <Rank>
19

> <Priority_score>
0.088

> <Reaction_type>
aliphatic_hydroxylation_(sec_carbon_next_to_SP2,in_a_ring)

> <Parent_ID>
63

> <Parent_InChI>
InChI=1S/C37H48N4O5/c1-25(2)34(41-20-12-19-38-37(41)45)36(44)39-30(21-28-15-7-5-8-16-28)23-32(42)31(22-29-17-9-6-10-18-29)40-33(43)24-46-35-26(3)13-11-14-27(35)4/h5-11,13-18,25,30-32,34,42H,12,19-24H2,1-4H3,(H,38,45)(H,39,44)(H,40,43)

> <Parent_SMILES>
Cc1cccc(C)c1OCC(=O)N[C@@H](Cc1ccccc1)[C@@H](O)C[C@H](Cc1ccccc1)NC(=O)[C@H](C(C)C)N1CCCNC1=O

$$$$
Molecule 63_metabolite 21
  CDK     0516241031

 95 97  0  0  0  0  0  0  0  0999 V2000
    5.3670   14.3780    0.0000 C   0  0  0  0  0  0  0  0  0  0  0  0
    5.3670   15.8780    0.0000 H   0  0  0  0  0  0  0  0  0  0  0  0
    5.8801   12.9684    0.0000 H   0  0  0  0  0  0  0  0  0  0  0  0
    6.8442   14.6385    0.0000 H   0  0  0  0  0  0  0  0  0  0  0  0
    4.0680   13.6280    0.0000 C   0  0  0  0  0  0  0  0  0  0  0  0
    3.5550   15.0375    0.0000 H   0  0  0  0  0  0  0  0  0  0  0  0
    2.5908   13.3675    0.0000 C   0  0  0  0  0  0  0  0  0  0  0  0
    2.0777   11.9580    0.0000 H   0  0  0  0  0  0  0  0  0  0  0  0
    1.1136   13.6280    0.0000 H   0  0  0  0  0  0  0  0  0  0  0  0
    2.5908   14.8675    0.0000 H   0  0  0  0  0  0  0  0  0  0  0  0
    4.0680   10.6880    0.0000 C   0  0  1  0  0  0  0  0  0  0  0  0
    2.5908   10.9485    0.0000 H   0  0  0  0  0  0  0  0  0  0  0  0
    3.5550    9.2784    0.0000 C   0  0  0  0  0  0  0  0  0  0  0  0
    4.5191    8.1294    0.0000 O   0  0  0  0  0  0  0  0  0  0  0  0
    2.0777    9.0180    0.0000 N   0  0  0  0  0  0  0  0  0  0  0  0
    1.1136   10.1670    0.0000 H   0  0  0  0  0  0  0  0  0  0  0  0
    1.4005    7.1574    0.0000 C   0  0  1  0  0  0  0  0  0  0  0  0
    2.8778    6.8969    0.0000 H   0  0  0  0  0  0  0  0  0  0  0  0
    1.4005    5.1774    0.0000 C   0  0  0  0  0  0  0  0  0  0  0  0
    0.8875    3.7678    0.0000 H   0  0  0  0  0  0  0  0  0  0  0  0
   -0.0767    5.4378    0.0000 H   0  0  0  0  0  0  0  0  0  0  0  0
    3.5310    3.9474    0.0000 C   0  0  0  0  0  0  0  0  0  0  0  0
    3.5305    2.4465    0.0000 C   0  0  0  0  0  0  0  0  0  0  0  0
    2.2313    1.6968    0.0000 H   0  0  0  0  0  0  0  0  0  0  0  0
    4.8295    1.6965    0.0000 C   0  0  0  0  0  0  0  0  0  0  0  0
    4.8298    0.1965    0.0000 H   0  0  0  0  0  0  0  0  0  0  0  0
    6.1290    2.4474    0.0000 C   0  0  0  0  0  0  0  0  0  0  0  0
    7.4281    1.6974    0.0000 H   0  0  0  0  0  0  0  0  0  0  0  0
    6.1295    3.9482    0.0000 C   0  0  0  0  0  0  0  0  0  0  0  0
    7.4287    4.6980    0.0000 H   0  0  0  0  0  0  0  0  0  0  0  0
    4.8305    4.6982    0.0000 C   0  0  0  0  0  0  0  0  0  0  0  0
    4.8302    6.1982    0.0000 H   0  0  0  0  0  0  0  0  0  0  0  0
   -0.3142    8.1474    0.0000 C   0  0  0  0  0  0  0  0  0  0  0  0
    0.6500    9.2964    0.0000 H   0  0  0  0  0  0  0  0  0  0  0  0
   -1.2784    9.2964    0.0000 H   0  0  0  0  0  0  0  0  0  0  0  0
   -1.6132    7.3974    0.0000 C   0  0  1  0  0  0  0  0  0  0  0  0
   -2.5774    6.2483    0.0000 H   0  0  0  0  0  0  0  0  0  0  0  0
   -3.3280    8.3874    0.0000 C   0  0  2  0  0  0  0  0  0  0  0  0
   -2.3638    9.5364    0.0000 H   0  0  0  0  0  0  0  0  0  0  0  0
   -4.9092   10.2718    0.0000 C   0  0  0  0  0  0  0  0  0  0  0  0
   -5.8734    9.1228    0.0000 H   0  0  0  0  0  0  0  0  0  0  0  0
   -6.2082   11.0218    0.0000 H   0  0  0  0  0  0  0  0  0  0  0  0
   -4.3962   11.6814    0.0000 C   0  0  0  0  0  0  0  0  0  0  0  0
   -2.9181   11.9415    0.0000 C   0  0  0  0  0  0  0  0  0  0  0  0
   -1.9541   10.7923    0.0000 H   0  0  0  0  0  0  0  0  0  0  0  0
   -2.4050   13.3511    0.0000 C   0  0  0  0  0  0  0  0  0  0  0  0
   -0.9279   13.6118    0.0000 H   0  0  0  0  0  0  0  0  0  0  0  0
   -3.3701   14.5005    0.0000 C   0  0  0  0  0  0  0  0  0  0  0  0
   -2.8571   15.9100    0.0000 H   0  0  0  0  0  0  0  0  0  0  0  0
   -4.8482   14.2403    0.0000 C   0  0  0  0  0  0  0  0  0  0  0  0
   -5.8122   15.3895    0.0000 H   0  0  0  0  0  0  0  0  0  0  0  0
   -5.3613   12.8308    0.0000 C   0  0  0  0  0  0  0  0  0  0  0  0
   -6.8384   12.5701    0.0000 H   0  0  0  0  0  0  0  0  0  0  0  0
   -5.0427    7.3974    0.0000 N   0  0  0  0  0  0  0  0  0  0  0  0
   -6.3417    8.1474    0.0000 H   0  0  0  0  0  0  0  0  0  0  0  0
   -5.0427    5.8974    0.0000 C   0  0  0  0  0  0  0  0  0  0  0  0
   -3.7436    5.1474    0.0000 O   0  0  0  0  0  0  0  0  0  0  0  0
   -6.3417    5.1474    0.0000 C   0  0  0  0  0  0  0  0  0  0  0  0
   -7.8189    4.8869    0.0000 H   0  0  0  0  0  0  0  0  0  0  0  0
   -6.8548    6.5569    0.0000 H   0  0  0  0  0  0  0  0  0  0  0  0
   -6.3417    3.6474    0.0000 O   0  0  0  0  0  0  0  0  0  0  0  0
   -7.6408    2.8974    0.0000 C   0  0  0  0  0  0  0  0  0  0  0  0
   -8.9331    3.6568    0.0000 C   0  0  0  0  0  0  0  0  0  0  0  0
   -8.9189    5.1568    0.0000 C   0  0  0  0  0  0  0  0  0  0  0  0
   -7.6129    5.8945    0.0000 H   0  0  0  0  0  0  0  0  0  0  0  0
  -10.3985    4.9102    0.0000 H   0  0  0  0  0  0  0  0  0  0  0  0
   -9.4186    6.5711    0.0000 H   0  0  0  0  0  0  0  0  0  0  0  0
  -10.2232    2.9310    0.0000 C   0  0  0  0  0  0  0  0  0  0  0  0
  -11.5161    3.6915    0.0000 H   0  0  0  0  0  0  0  0  0  0  0  0
  -10.2305    1.4633    0.0000 C   0  0  0  0  0  0  0  0  0  0  0  0
  -11.5440    0.7389    0.0000 H   0  0  0  0  0  0  0  0  0  0  0  0
   -8.9687    0.6762    0.0000 C   0  0  0  0  0  0  0  0  0  0  0  0
   -9.0179   -0.8230    0.0000 H   0  0  0  0  0  0  0  0  0  0  0  0
   -7.6292    1.3945    0.0000 C   0  0  0  0  0  0  0  0  0  0  0  0
   -6.3391    0.6291    0.0000 C   0  0  0  0  0  0  0  0  0  0  0  0
   -6.3569   -0.8708    0.0000 H   0  0  0  0  0  0  0  0  0  0  0  0
   -4.8651    0.3512    0.0000 H   0  0  0  0  0  0  0  0  0  0  0  0
   -5.8094    2.0325    0.0000 H   0  0  0  0  0  0  0  0  0  0  0  0
   -0.6490    6.2483    0.0000 O   0  0  0  0  0  0  0  0  0  0  0  0
   -1.1621    4.8388    0.0000 H   0  0  0  0  0  0  0  0  0  0  0  0
    7.0080   10.6880    0.0000 N   0  0  0  0  0  0  0  0  0  0  0  0
    7.7580    9.3889    0.0000 C   0  0  0  0  0  0  0  0  0  0  0  0
    8.0185    7.9117    0.0000 H   0  0  0  0  0  0  0  0  0  0  0  0
    6.3484    8.8759    0.0000 H   0  0  0  0  0  0  0  0  0  0  0  0
    9.2580    9.3889    0.0000 C   0  0  0  0  0  0  0  0  0  0  0  0
    8.9975   10.8662    0.0000 H   0  0  0  0  0  0  0  0  0  0  0  0
   10.6675    9.9020    0.0000 H   0  0  0  0  0  0  0  0  0  0  0  0
   10.0080    8.0899    0.0000 C   0  0  0  0  0  0  0  0  0  0  0  0
   11.5080    8.0899    0.0000 H   0  0  0  0  0  0  0  0  0  0  0  0
    9.2580    6.7909    0.0000 O   0  0  0  0  0  0  0  0  0  0  0  0
    7.9980   12.4027    0.0000 C   0  0  0  0  0  0  0  0  0  0  0  0
    7.2480   13.7017    0.0000 O   0  0  0  0  0  0  0  0  0  0  0  0
    9.4980   12.4027    0.0000 N   0  0  0  0  0  0  0  0  0  0  0  0
   10.2480   13.7017    0.0000 H   0  0  0  0  0  0  0  0  0  0  0  0
   10.2480   11.1037    0.0000 H   0  0  0  0  0  0  0  0  0  0  0  0
  1  2  1  0  0  0  0 
  1  3  1  0  0  0  0 
  1  4  1  0  0  0  0 
  1  5  1  0  0  0  0 
  5  6  1  0  0  0  0 
  5  7  1  0  0  0  0 
  7  8  1  0  0  0  0 
  7  9  1  0  0  0  0 
  7 10  1  0  0  0  0 
  5 11  1  0  0  0  0 
 11 12  1  1  0  0  0 
 11 13  1  6  0  0  0 
 13 14  2  0  0  0  0 
 13 15  1  0  0  0  0 
 15 16  1  0  0  0  0 
 17 15  1  1  0  0  0 
 17 18  1  6  0  0  0 
 17 19  1  0  0  0  0 
 19 20  1  0  0  0  0 
 19 21  1  0  0  0  0 
 19 22  1  0  0  0  0 
 22 23  2  0  0  0  0 
 23 24  1  0  0  0  0 
 23 25  1  0  0  0  0 
 25 26  1  0  0  0  0 
 25 27  2  0  0  0  0 
 27 28  1  0  0  0  0 
 27 29  1  0  0  0  0 
 29 30  1  0  0  0  0 
 29 31  2  0  0  0  0 
 22 31  1  0  0  0  0 
 31 32  1  0  0  0  0 
 17 33  1  0  0  0  0 
 33 34  1  0  0  0  0 
 33 35  1  0  0  0  0 
 33 36  1  0  0  0  0 
 36 37  1  1  0  0  0 
 36 38  1  0  0  0  0 
 38 39  1  6  0  0  0 
 38 40  1  1  0  0  0 
 40 41  1  0  0  0  0 
 40 42  1  0  0  0  0 
 40 43  1  0  0  0  0 
 43 44  2  0  0  0  0 
 44 45  1  0  0  0  0 
 44 46  1  0  0  0  0 
 46 47  1  0  0  0  0 
 46 48  2  0  0  0  0 
 48 49  1  0  0  0  0 
 48 50  1  0  0  0  0 
 50 51  1  0  0  0  0 
 50 52  2  0  0  0  0 
 43 52  1  0  0  0  0 
 52 53  1  0  0  0  0 
 38 54  1  0  0  0  0 
 54 55  1  0  0  0  0 
 54 56  1  0  0  0  0 
 56 57  2  0  0  0  0 
 56 58  1  0  0  0  0 
 58 59  1  0  0  0  0 
 58 60  1  0  0  0  0 
 58 61  1  0  0  0  0 
 61 62  1  0  0  0  0 
 62 63  2  0  0  0  0 
 63 64  1  0  0  0  0 
 64 65  1  0  0  0  0 
 64 66  1  0  0  0  0 
 64 67  1  0  0  0  0 
 63 68  1  0  0  0  0 
 68 69  1  0  0  0  0 
 68 70  2  0  0  0  0 
 70 71  1  0  0  0  0 
 70 72  1  0  0  0  0 
 72 73  1  0  0  0  0 
 72 74  2  0  0  0  0 
 62 74  1  0  0  0  0 
 74 75  1  0  0  0  0 
 75 76  1  0  0  0  0 
 75 77  1  0  0  0  0 
 75 78  1  0  0  0  0 
 36 79  1  6  0  0  0 
 79 80  1  0  0  0  0 
 11 81  1  0  0  0  0 
 81 82  1  0  0  0  0 
 82 83  1  0  0  0  0 
 82 84  1  0  0  0  0 
 82 85  1  0  0  0  0 
 85 86  1  0  0  0  0 
 85 87  1  0  0  0  0 
 85 88  1  0  0  0  0 
 88 89  1  0  0  0  0 
 88 90  2  0  0  0  0 
 81 91  1  0  0  0  0 
 91 92  2  0  0  0  0 
 91 93  1  0  0  0  0 
 93 94  1  0  0  0  0 
 93 95  1  0  0  0  0 
M  END
> <Rank>
19

> <Priority_score>
0.088

> <Reaction_type>
N-dealkylation

> <Parent_ID>
63

> <Parent_InChI>
InChI=1S/C37H48N4O5/c1-25(2)34(41-20-12-19-38-37(41)45)36(44)39-30(21-28-15-7-5-8-16-28)23-32(42)31(22-29-17-9-6-10-18-29)40-33(43)24-46-35-26(3)13-11-14-27(35)4/h5-11,13-18,25,30-32,34,42H,12,19-24H2,1-4H3,(H,38,45)(H,39,44)(H,40,43)

> <Parent_SMILES>
Cc1cccc(C)c1OCC(=O)N[C@@H](Cc1ccccc1)[C@@H](O)C[C@H](Cc1ccccc1)NC(=O)[C@H](C(C)C)N1CCCNC1=O

$$$$
Molecule 63_metabolite 22
  CDK     0516241031

 95 98  0  0  0  0  0  0  0  0999 V2000
   -1.4523    7.1165    0.0000 C   0  0  0  0  0  0  0  0  0  0  0  0
    0.0249    6.8560    0.0000 H   0  0  0  0  0  0  0  0  0  0  0  0
   -0.9393    8.5260    0.0000 H   0  0  0  0  0  0  0  0  0  0  0  0
   -2.7514    7.8665    0.0000 H   0  0  0  0  0  0  0  0  0  0  0  0
   -2.7250    5.5997    0.0000 C   0  0  0  0  0  0  0  0  0  0  0  0
   -3.2381    4.1901    0.0000 H   0  0  0  0  0  0  0  0  0  0  0  0
   -1.4260    4.8497    0.0000 C   0  0  0  0  0  0  0  0  0  0  0  0
   -1.4260    3.3497    0.0000 H   0  0  0  0  0  0  0  0  0  0  0  0
   -0.9130    6.2592    0.0000 H   0  0  0  0  0  0  0  0  0  0  0  0
    0.0512    4.5892    0.0000 H   0  0  0  0  0  0  0  0  0  0  0  0
   -4.2023    5.8602    0.0000 C   0  0  1  0  0  0  0  0  0  0  0  0
   -3.6892    7.2697    0.0000 H   0  0  0  0  0  0  0  0  0  0  0  0
   -4.2023    3.8802    0.0000 C   0  0  0  0  0  0  0  0  0  0  0  0
   -2.9032    3.1302    0.0000 O   0  0  0  0  0  0  0  0  0  0  0  0
   -5.5013    3.1302    0.0000 N   0  0  0  0  0  0  0  0  0  0  0  0
   -6.8003    3.8802    0.0000 H   0  0  0  0  0  0  0  0  0  0  0  0
   -5.5013    1.6302    0.0000 C   0  0  1  0  0  0  0  0  0  0  0  0
   -6.9785    1.8906    0.0000 H   0  0  0  0  0  0  0  0  0  0  0  0
   -6.0143    0.2206    0.0000 C   0  0  0  0  0  0  0  0  0  0  0  0
   -4.5371   -0.0399    0.0000 H   0  0  0  0  0  0  0  0  0  0  0  0
   -6.0143   -1.2794    0.0000 H   0  0  0  0  0  0  0  0  0  0  0  0
   -7.4915   -0.0399    0.0000 C   0  0  0  0  0  0  0  0  0  0  0  0
   -8.4559    1.1102    0.0000 C   0  0  0  0  0  0  0  0  0  0  0  0
   -7.9426    2.5196    0.0000 H   0  0  0  0  0  0  0  0  0  0  0  0
   -9.9331    0.8497    0.0000 C   0  0  0  0  0  0  0  0  0  0  0  0
  -10.8975    1.9986    0.0000 H   0  0  0  0  0  0  0  0  0  0  0  0
  -10.4460   -0.5608    0.0000 C   0  0  0  0  0  0  0  0  0  0  0  0
  -11.9232   -0.8213    0.0000 H   0  0  0  0  0  0  0  0  0  0  0  0
   -9.4816   -1.7108    0.0000 C   0  0  0  0  0  0  0  0  0  0  0  0
   -9.9949   -3.1203    0.0000 H   0  0  0  0  0  0  0  0  0  0  0  0
   -8.0044   -1.4503    0.0000 C   0  0  0  0  0  0  0  0  0  0  0  0
   -7.0400   -2.5993    0.0000 H   0  0  0  0  0  0  0  0  0  0  0  0
   -3.7866    0.6402    0.0000 C   0  0  0  0  0  0  0  0  0  0  0  0
   -2.3094    0.3797    0.0000 H   0  0  0  0  0  0  0  0  0  0  0  0
   -3.2735    2.0497    0.0000 H   0  0  0  0  0  0  0  0  0  0  0  0
   -3.7866   -0.8598    0.0000 C   0  0  1  0  0  0  0  0  0  0  0  0
   -5.2638   -0.5994    0.0000 H   0  0  0  0  0  0  0  0  0  0  0  0
   -1.2404   -2.3298    0.0000 C   0  0  2  0  0  0  0  0  0  0  0  0
   -0.2763   -3.4789    0.0000 H   0  0  0  0  0  0  0  0  0  0  0  0
   -2.2046   -3.4789    0.0000 C   0  0  0  0  0  0  0  0  0  0  0  0
   -3.5037   -4.2289    0.0000 H   0  0  0  0  0  0  0  0  0  0  0  0
   -3.1688   -2.3298    0.0000 H   0  0  0  0  0  0  0  0  0  0  0  0
   -1.6916   -4.8884    0.0000 C   0  0  0  0  0  0  0  0  0  0  0  0
   -2.6567   -6.0378    0.0000 C   0  0  0  0  0  0  0  0  0  0  0  0
   -4.1339   -5.7771    0.0000 H   0  0  0  0  0  0  0  0  0  0  0  0
   -2.1437   -7.4474    0.0000 C   0  0  0  0  0  0  0  0  0  0  0  0
   -3.1077   -8.5966    0.0000 H   0  0  0  0  0  0  0  0  0  0  0  0
   -0.6655   -7.7075    0.0000 C   0  0  0  0  0  0  0  0  0  0  0  0
   -0.1525   -9.1171    0.0000 H   0  0  0  0  0  0  0  0  0  0  0  0
    0.2995   -6.5581    0.0000 C   0  0  0  0  0  0  0  0  0  0  0  0
    1.7767   -6.8188    0.0000 H   0  0  0  0  0  0  0  0  0  0  0  0
   -0.2135   -5.1486    0.0000 C   0  0  0  0  0  0  0  0  0  0  0  0
    0.7505   -3.9994    0.0000 H   0  0  0  0  0  0  0  0  0  0  0  0
    0.4743   -1.3398    0.0000 N   0  0  0  0  0  0  0  0  0  0  0  0
    0.4743    0.1602    0.0000 H   0  0  0  0  0  0  0  0  0  0  0  0
    1.7733   -2.0898    0.0000 C   0  0  0  0  0  0  0  0  0  0  0  0
    1.7733   -3.5898    0.0000 O   0  0  0  0  0  0  0  0  0  0  0  0
    3.0724   -1.3398    0.0000 C   0  0  0  0  0  0  0  0  0  0  0  0
    2.1082   -0.1908    0.0000 H   0  0  0  0  0  0  0  0  0  0  0  0
    4.0365   -0.1908    0.0000 H   0  0  0  0  0  0  0  0  0  0  0  0
    4.3714   -2.0898    0.0000 O   0  0  0  0  0  0  0  0  0  0  0  0
    5.6704   -1.3398    0.0000 C   0  0  0  0  0  0  0  0  0  0  0  0
    5.6589    0.1590    0.0000 C   0  0  0  0  0  0  0  0  0  0  0  0
    4.3528    0.8968    0.0000 C   0  0  0  0  0  0  0  0  0  0  0  0
    3.0609    0.1346    0.0000 H   0  0  0  0  0  0  0  0  0  0  0  0
    5.3061    2.0549    0.0000 H   0  0  0  0  0  0  0  0  0  0  0  0
    3.3778    2.0367    0.0000 H   0  0  0  0  0  0  0  0  0  0  0  0
    6.9325    0.9134    0.0000 C   0  0  0  0  0  0  0  0  0  0  0  0
    6.9204    2.4134    0.0000 H   0  0  0  0  0  0  0  0  0  0  0  0
    8.2072    0.1859    0.0000 C   0  0  0  0  0  0  0  0  0  0  0  0
    9.4913    0.9612    0.0000 H   0  0  0  0  0  0  0  0  0  0  0  0
    8.2580   -1.3004    0.0000 C   0  0  0  0  0  0  0  0  0  0  0  0
    9.5810   -2.0074    0.0000 H   0  0  0  0  0  0  0  0  0  0  0  0
    6.9662   -2.1013    0.0000 C   0  0  0  0  0  0  0  0  0  0  0  0
    6.9840   -3.6012    0.0000 C   0  0  0  0  0  0  0  0  0  0  0  0
    8.2918   -4.3358    0.0000 H   0  0  0  0  0  0  0  0  0  0  0  0
    6.4877   -5.0168    0.0000 H   0  0  0  0  0  0  0  0  0  0  0  0
    5.5038   -3.3583    0.0000 H   0  0  0  0  0  0  0  0  0  0  0  0
   -4.2996   -2.2694    0.0000 O   0  0  0  0  0  0  0  0  0  0  0  0
   -5.7768   -2.5299    0.0000 H   0  0  0  0  0  0  0  0  0  0  0  0
   -5.5013    6.6102    0.0000 N   0  0  0  0  0  0  0  0  0  0  0  0
   -6.8008    5.8593    0.0000 C   0  0  0  0  0  0  0  0  0  0  0  0
   -5.8364    4.7105    0.0000 H   0  0  0  0  0  0  0  0  0  0  0  0
   -7.7649    4.7102    0.0000 H   0  0  0  0  0  0  0  0  0  0  0  0
   -8.0999    6.6093    0.0000 C   0  0  0  0  0  0  0  0  0  0  0  0
   -8.6130    5.1998    0.0000 H   0  0  0  0  0  0  0  0  0  0  0  0
   -9.5770    6.8701    0.0000 H   0  0  0  0  0  0  0  0  0  0  0  0
   -8.0994    8.1102    0.0000 C   0  0  0  0  0  0  0  0  0  0  0  0
   -9.5766    7.8498    0.0000 H   0  0  0  0  0  0  0  0  0  0  0  0
   -8.6126    9.5196    0.0000 H   0  0  0  0  0  0  0  0  0  0  0  0
   -6.7999    8.8610    0.0000 N   0  0  0  0  0  0  0  0  0  0  0  0
   -5.5008    8.1110    0.0000 C   0  0  0  0  0  0  0  0  0  0  0  0
   -4.2017    8.8608    0.0000 O   0  0  0  0  0  0  0  0  0  0  0  0
   -6.8001   10.3610    0.0000 O   0  0  0  0  0  0  0  0  0  0  0  0
   -8.0992   11.1108    0.0000 H   0  0  0  0  0  0  0  0  0  0  0  0
  1  2  1  0  0  0  0 
  1  3  1  0  0  0  0 
  1  4  1  0  0  0  0 
  1  5  1  0  0  0  0 
  5  6  1  0  0  0  0 
  5  7  1  0  0  0  0 
  7  8  1  0  0  0  0 
  7  9  1  0  0  0  0 
  7 10  1  0  0  0  0 
  5 11  1  0  0  0  0 
 11 12  1  6  0  0  0 
 11 13  1  0  0  0  0 
 13 14  2  0  0  0  0 
 13 15  1  0  0  0  0 
 15 16  1  0  0  0  0 
 17 15  1  6  0  0  0 
 17 18  1  1  0  0  0 
 17 19  1  0  0  0  0 
 19 20  1  0  0  0  0 
 19 21  1  0  0  0  0 
 19 22  1  0  0  0  0 
 22 23  2  0  0  0  0 
 23 24  1  0  0  0  0 
 23 25  1  0  0  0  0 
 25 26  1  0  0  0  0 
 25 27  2  0  0  0  0 
 27 28  1  0  0  0  0 
 27 29  1  0  0  0  0 
 29 30  1  0  0  0  0 
 29 31  2  0  0  0  0 
 22 31  1  0  0  0  0 
 31 32  1  0  0  0  0 
 17 33  1  0  0  0  0 
 33 34  1  0  0  0  0 
 33 35  1  0  0  0  0 
 33 36  1  0  0  0  0 
 36 37  1  6  0  0  0 
 36 38  1  0  0  0  0 
 38 39  1  6  0  0  0 
 38 40  1  0  0  0  0 
 40 41  1  0  0  0  0 
 40 42  1  0  0  0  0 
 40 43  1  0  0  0  0 
 43 44  2  0  0  0  0 
 44 45  1  0  0  0  0 
 44 46  1  0  0  0  0 
 46 47  1  0  0  0  0 
 46 48  2  0  0  0  0 
 48 49  1  0  0  0  0 
 48 50  1  0  0  0  0 
 50 51  1  0  0  0  0 
 50 52  2  0  0  0  0 
 43 52  1  0  0  0  0 
 52 53  1  0  0  0  0 
 38 54  1  1  0  0  0 
 54 55  1  0  0  0  0 
 54 56  1  0  0  0  0 
 56 57  2  0  0  0  0 
 56 58  1  0  0  0  0 
 58 59  1  0  0  0  0 
 58 60  1  0  0  0  0 
 58 61  1  0  0  0  0 
 61 62  1  0  0  0  0 
 62 63  2  0  0  0  0 
 63 64  1  0  0  0  0 
 64 65  1  0  0  0  0 
 64 66  1  0  0  0  0 
 64 67  1  0  0  0  0 
 63 68  1  0  0  0  0 
 68 69  1  0  0  0  0 
 68 70  2  0  0  0  0 
 70 71  1  0  0  0  0 
 70 72  1  0  0  0  0 
 72 73  1  0  0  0  0 
 72 74  2  0  0  0  0 
 62 74  1  0  0  0  0 
 74 75  1  0  0  0  0 
 75 76  1  0  0  0  0 
 75 77  1  0  0  0  0 
 75 78  1  0  0  0  0 
 36 79  1  1  0  0  0 
 79 80  1  0  0  0  0 
 11 81  1  1  0  0  0 
 81 82  1  0  0  0  0 
 82 83  1  0  0  0  0 
 82 84  1  0  0  0  0 
 82 85  1  0  0  0  0 
 85 86  1  0  0  0  0 
 85 87  1  0  0  0  0 
 85 88  1  0  0  0  0 
 88 89  1  0  0  0  0 
 88 90  1  0  0  0  0 
 88 91  1  0  0  0  0 
 91 92  1  0  0  0  0 
 81 92  1  0  0  0  0 
 92 93  2  0  0  0  0 
 91 94  1  0  0  0  0 
 94 95  1  0  0  0  0 
M  END
> <Rank>
19

> <Priority_score>
0.088

> <Reaction_type>
amine hydroxylation

> <Parent_ID>
63

> <Parent_InChI>
InChI=1S/C37H48N4O5/c1-25(2)34(41-20-12-19-38-37(41)45)36(44)39-30(21-28-15-7-5-8-16-28)23-32(42)31(22-29-17-9-6-10-18-29)40-33(43)24-46-35-26(3)13-11-14-27(35)4/h5-11,13-18,25,30-32,34,42H,12,19-24H2,1-4H3,(H,38,45)(H,39,44)(H,40,43)

> <Parent_SMILES>
Cc1cccc(C)c1OCC(=O)N[C@@H](Cc1ccccc1)[C@@H](O)C[C@H](Cc1ccccc1)NC(=O)[C@H](C(C)C)N1CCCNC1=O

$$$$
Molecule 63_metabolite 23
  CDK     0516241031

 93 96  0  0  0  0  0  0  0  0999 V2000
  -15.2955   10.8331    0.0000 C   0  0  0  0  0  0  0  0  0  0  0  0
  -16.7051   10.3200    0.0000 H   0  0  0  0  0  0  0  0  0  0  0  0
  -14.1464   11.7973    0.0000 H   0  0  0  0  0  0  0  0  0  0  0  0
  -16.0455   12.1321    0.0000 H   0  0  0  0  0  0  0  0  0  0  0  0
  -13.4110    9.2518    0.0000 C   0  0  0  0  0  0  0  0  0  0  0  0
  -12.0015    8.7388    0.0000 H   0  0  0  0  0  0  0  0  0  0  0  0
  -11.9410   11.7979    0.0000 C   0  0  0  0  0  0  0  0  0  0  0  0
  -10.4410   11.7979    0.0000 H   0  0  0  0  0  0  0  0  0  0  0  0
  -13.3506   12.3110    0.0000 H   0  0  0  0  0  0  0  0  0  0  0  0
  -11.6806   13.2751    0.0000 H   0  0  0  0  0  0  0  0  0  0  0  0
  -13.6715    7.7746    0.0000 C   0  0  1  0  0  0  0  0  0  0  0  0
  -15.0811    8.2876    0.0000 H   0  0  0  0  0  0  0  0  0  0  0  0
  -11.6915    7.7746    0.0000 C   0  0  0  0  0  0  0  0  0  0  0  0
  -10.9415    9.0736    0.0000 O   0  0  0  0  0  0  0  0  0  0  0  0
  -10.9415    6.4756    0.0000 N   0  0  0  0  0  0  0  0  0  0  0  0
  -11.6915    5.1765    0.0000 H   0  0  0  0  0  0  0  0  0  0  0  0
   -8.9615    6.4756    0.0000 C   0  0  1  0  0  0  0  0  0  0  0  0
   -9.2220    7.9528    0.0000 H   0  0  0  0  0  0  0  0  0  0  0  0
   -7.5520    6.9886    0.0000 C   0  0  0  0  0  0  0  0  0  0  0  0
   -7.2915    5.5114    0.0000 H   0  0  0  0  0  0  0  0  0  0  0  0
   -6.0520    6.9886    0.0000 H   0  0  0  0  0  0  0  0  0  0  0  0
   -7.2915    8.4658    0.0000 C   0  0  0  0  0  0  0  0  0  0  0  0
   -8.4415    9.4302    0.0000 C   0  0  0  0  0  0  0  0  0  0  0  0
   -9.8510    8.9169    0.0000 H   0  0  0  0  0  0  0  0  0  0  0  0
   -8.1810   10.9074    0.0000 C   0  0  0  0  0  0  0  0  0  0  0  0
   -9.3300   11.8717    0.0000 H   0  0  0  0  0  0  0  0  0  0  0  0
   -6.7706   11.4202    0.0000 C   0  0  0  0  0  0  0  0  0  0  0  0
   -6.5101   12.8974    0.0000 H   0  0  0  0  0  0  0  0  0  0  0  0
   -5.6205   10.4559    0.0000 C   0  0  0  0  0  0  0  0  0  0  0  0
   -4.2111   10.9691    0.0000 H   0  0  0  0  0  0  0  0  0  0  0  0
   -5.8810    8.9787    0.0000 C   0  0  0  0  0  0  0  0  0  0  0  0
   -4.7321    8.0143    0.0000 H   0  0  0  0  0  0  0  0  0  0  0  0
   -7.9715    4.7608    0.0000 C   0  0  0  0  0  0  0  0  0  0  0  0
   -7.7110    3.2836    0.0000 H   0  0  0  0  0  0  0  0  0  0  0  0
   -9.3811    4.2478    0.0000 H   0  0  0  0  0  0  0  0  0  0  0  0
   -6.4715    4.7608    0.0000 C   0  0  1  0  0  0  0  0  0  0  0  0
   -6.7320    6.2381    0.0000 H   0  0  0  0  0  0  0  0  0  0  0  0
   -5.4815    3.0461    0.0000 C   0  0  2  0  0  0  0  0  0  0  0  0
   -5.2210    1.5689    0.0000 H   0  0  0  0  0  0  0  0  0  0  0  0
   -6.8911    2.5331    0.0000 C   0  0  0  0  0  0  0  0  0  0  0  0
   -8.3911    2.5331    0.0000 H   0  0  0  0  0  0  0  0  0  0  0  0
   -7.1515    4.0103    0.0000 H   0  0  0  0  0  0  0  0  0  0  0  0
   -7.1515    1.0559    0.0000 C   0  0  0  0  0  0  0  0  0  0  0  0
   -8.5620    0.5430    0.0000 C   0  0  0  0  0  0  0  0  0  0  0  0
   -9.7109    1.5074    0.0000 H   0  0  0  0  0  0  0  0  0  0  0  0
   -8.8225   -0.9342    0.0000 C   0  0  0  0  0  0  0  0  0  0  0  0
  -10.2319   -1.4475    0.0000 H   0  0  0  0  0  0  0  0  0  0  0  0
   -7.6725   -1.8986    0.0000 C   0  0  0  0  0  0  0  0  0  0  0  0
   -7.9329   -3.3758    0.0000 H   0  0  0  0  0  0  0  0  0  0  0  0
   -6.2620   -1.3857    0.0000 C   0  0  0  0  0  0  0  0  0  0  0  0
   -5.1131   -2.3501    0.0000 H   0  0  0  0  0  0  0  0  0  0  0  0
   -6.0015    0.0915    0.0000 C   0  0  0  0  0  0  0  0  0  0  0  0
   -4.5921    0.6048    0.0000 H   0  0  0  0  0  0  0  0  0  0  0  0
   -3.5015    3.0461    0.0000 N   0  0  0  0  0  0  0  0  0  0  0  0
   -2.7515    4.3451    0.0000 H   0  0  0  0  0  0  0  0  0  0  0  0
   -2.7515    1.7471    0.0000 C   0  0  0  0  0  0  0  0  0  0  0  0
   -3.5015    0.4480    0.0000 O   0  0  0  0  0  0  0  0  0  0  0  0
   -1.2515    1.7471    0.0000 C   0  0  0  0  0  0  0  0  0  0  0  0
   -1.5120    3.2243    0.0000 H   0  0  0  0  0  0  0  0  0  0  0  0
    0.1580    2.2601    0.0000 H   0  0  0  0  0  0  0  0  0  0  0  0
   -0.5015    0.4480    0.0000 O   0  0  0  0  0  0  0  0  0  0  0  0
    0.9985    0.4480    0.0000 C   0  0  0  0  0  0  0  0  0  0  0  0
    1.7379    1.7519    0.0000 C   0  0  0  0  0  0  0  0  0  0  0  0
    0.9757    3.0438    0.0000 C   0  0  0  0  0  0  0  0  0  0  0  0
   -0.5242    3.0297    0.0000 H   0  0  0  0  0  0  0  0  0  0  0  0
    2.3803    3.5701    0.0000 H   0  0  0  0  0  0  0  0  0  0  0  0
    0.7013    4.5185    0.0000 H   0  0  0  0  0  0  0  0  0  0  0  0
    3.2181    1.7684    0.0000 C   0  0  0  0  0  0  0  0  0  0  0  0
    3.9576    3.0734    0.0000 H   0  0  0  0  0  0  0  0  0  0  0  0
    3.9583    0.5010    0.0000 C   0  0  0  0  0  0  0  0  0  0  0  0
    5.4580    0.5304    0.0000 H   0  0  0  0  0  0  0  0  0  0  0  0
    3.2591   -0.8116    0.0000 C   0  0  0  0  0  0  0  0  0  0  0  0
    4.0513   -2.0854    0.0000 H   0  0  0  0  0  0  0  0  0  0  0  0
    1.7399   -0.8593    0.0000 C   0  0  0  0  0  0  0  0  0  0  0  0
    1.0053   -2.1672    0.0000 C   0  0  0  0  0  0  0  0  0  0  0  0
    1.7707   -3.4572    0.0000 H   0  0  0  0  0  0  0  0  0  0  0  0
   -0.1322   -3.1449    0.0000 H   0  0  0  0  0  0  0  0  0  0  0  0
   -0.1551   -1.2167    0.0000 H   0  0  0  0  0  0  0  0  0  0  0  0
   -5.0620    5.2739    0.0000 O   0  0  0  0  0  0  0  0  0  0  0  0
   -4.8015    6.7511    0.0000 H   0  0  0  0  0  0  0  0  0  0  0  0
  -14.4215    6.4756    0.0000 N   0  0  0  0  0  0  0  0  0  0  0  0
  -13.6707    5.1761    0.0000 C   0  0  0  0  0  0  0  0  0  0  0  0
  -12.5218    6.1405    0.0000 H   0  0  0  0  0  0  0  0  0  0  0  0
  -12.5215    4.2120    0.0000 H   0  0  0  0  0  0  0  0  0  0  0  0
  -14.4207    3.8770    0.0000 C   0  0  0  0  0  0  0  0  0  0  0  0
  -13.0112    3.3638    0.0000 H   0  0  0  0  0  0  0  0  0  0  0  0
  -14.6815    2.3999    0.0000 H   0  0  0  0  0  0  0  0  0  0  0  0
  -15.9215    3.8775    0.0000 C   0  0  0  0  0  0  0  0  0  0  0  0
  -16.6715    2.5785    0.0000 O   0  0  0  0  0  0  0  0  0  0  0  0
  -16.6723    5.1770    0.0000 N   0  0  0  0  0  0  0  0  0  0  0  0
  -18.1723    5.1768    0.0000 H   0  0  0  0  0  0  0  0  0  0  0  0
  -15.9223    6.4761    0.0000 C   0  0  0  0  0  0  0  0  0  0  0  0
  -16.6721    7.7752    0.0000 O   0  0  0  0  0  0  0  0  0  0  0  0
  1  2  1  0  0  0  0 
  1  3  1  0  0  0  0 
  1  4  1  0  0  0  0 
  1  5  1  0  0  0  0 
  5  6  1  0  0  0  0 
  5  7  1  0  0  0  0 
  7  8  1  0  0  0  0 
  7  9  1  0  0  0  0 
  7 10  1  0  0  0  0 
  5 11  1  0  0  0  0 
 11 12  1  6  0  0  0 
 11 13  1  0  0  0  0 
 13 14  2  0  0  0  0 
 13 15  1  0  0  0  0 
 15 16  1  0  0  0  0 
 17 15  1  1  0  0  0 
 17 18  1  6  0  0  0 
 17 19  1  0  0  0  0 
 19 20  1  0  0  0  0 
 19 21  1  0  0  0  0 
 19 22  1  0  0  0  0 
 22 23  2  0  0  0  0 
 23 24  1  0  0  0  0 
 23 25  1  0  0  0  0 
 25 26  1  0  0  0  0 
 25 27  2  0  0  0  0 
 27 28  1  0  0  0  0 
 27 29  1  0  0  0  0 
 29 30  1  0  0  0  0 
 29 31  2  0  0  0  0 
 22 31  1  0  0  0  0 
 31 32  1  0  0  0  0 
 17 33  1  0  0  0  0 
 33 34  1  0  0  0  0 
 33 35  1  0  0  0  0 
 33 36  1  0  0  0  0 
 36 37  1  1  0  0  0 
 36 38  1  0  0  0  0 
 38 39  1  6  0  0  0 
 38 40  1  0  0  0  0 
 40 41  1  0  0  0  0 
 40 42  1  0  0  0  0 
 40 43  1  0  0  0  0 
 43 44  2  0  0  0  0 
 44 45  1  0  0  0  0 
 44 46  1  0  0  0  0 
 46 47  1  0  0  0  0 
 46 48  2  0  0  0  0 
 48 49  1  0  0  0  0 
 48 50  1  0  0  0  0 
 50 51  1  0  0  0  0 
 50 52  2  0  0  0  0 
 43 52  1  0  0  0  0 
 52 53  1  0  0  0  0 
 38 54  1  1  0  0  0 
 54 55  1  0  0  0  0 
 54 56  1  0  0  0  0 
 56 57  2  0  0  0  0 
 56 58  1  0  0  0  0 
 58 59  1  0  0  0  0 
 58 60  1  0  0  0  0 
 58 61  1  0  0  0  0 
 61 62  1  0  0  0  0 
 62 63  2  0  0  0  0 
 63 64  1  0  0  0  0 
 64 65  1  0  0  0  0 
 64 66  1  0  0  0  0 
 64 67  1  0  0  0  0 
 63 68  1  0  0  0  0 
 68 69  1  0  0  0  0 
 68 70  2  0  0  0  0 
 70 71  1  0  0  0  0 
 70 72  1  0  0  0  0 
 72 73  1  0  0  0  0 
 72 74  2  0  0  0  0 
 62 74  1  0  0  0  0 
 74 75  1  0  0  0  0 
 75 76  1  0  0  0  0 
 75 77  1  0  0  0  0 
 75 78  1  0  0  0  0 
 36 79  1  6  0  0  0 
 79 80  1  0  0  0  0 
 11 81  1  1  0  0  0 
 81 82  1  0  0  0  0 
 82 83  1  0  0  0  0 
 82 84  1  0  0  0  0 
 82 85  1  0  0  0  0 
 85 86  1  0  0  0  0 
 85 87  1  0  0  0  0 
 85 88  1  0  0  0  0 
 88 89  2  0  0  0  0 
 88 90  1  0  0  0  0 
 90 91  1  0  0  0  0 
 90 92  1  0  0  0  0 
 81 92  1  0  0  0  0 
 92 93  2  0  0  0  0 
M  END
> <Rank>
19

> <Priority_score>
0.088

> <Reaction_type>
oxidation_(amine_in_a_ring)

> <Parent_ID>
63

> <Parent_InChI>
InChI=1S/C37H48N4O5/c1-25(2)34(41-20-12-19-38-37(41)45)36(44)39-30(21-28-15-7-5-8-16-28)23-32(42)31(22-29-17-9-6-10-18-29)40-33(43)24-46-35-26(3)13-11-14-27(35)4/h5-11,13-18,25,30-32,34,42H,12,19-24H2,1-4H3,(H,38,45)(H,39,44)(H,40,43)

> <Parent_SMILES>
Cc1cccc(C)c1OCC(=O)N[C@@H](Cc1ccccc1)[C@@H](O)C[C@H](Cc1ccccc1)NC(=O)[C@H](C(C)C)N1CCCNC1=O

$$$$
Molecule 63_metabolite 24
  CDK     0516241031

 95 98  0  0  0  0  0  0  0  0999 V2000
   -3.4768   -3.6222    0.0000 C   0  0  0  0  0  0  0  0  0  0  0  0
   -4.9540   -3.3617    0.0000 H   0  0  0  0  0  0  0  0  0  0  0  0
   -3.9898   -5.0317    0.0000 H   0  0  0  0  0  0  0  0  0  0  0  0
   -2.1778   -4.3722    0.0000 H   0  0  0  0  0  0  0  0  0  0  0  0
   -2.2041   -2.1054    0.0000 C   0  0  0  0  0  0  0  0  0  0  0  0
   -1.6911   -0.6959    0.0000 H   0  0  0  0  0  0  0  0  0  0  0  0
   -3.5031   -1.3554    0.0000 C   0  0  0  0  0  0  0  0  0  0  0  0
   -3.5031    0.1446    0.0000 H   0  0  0  0  0  0  0  0  0  0  0  0
   -4.0162   -2.7649    0.0000 H   0  0  0  0  0  0  0  0  0  0  0  0
   -4.9803   -1.0949    0.0000 H   0  0  0  0  0  0  0  0  0  0  0  0
   -0.7269   -2.3659    0.0000 C   0  0  1  0  0  0  0  0  0  0  0  0
   -1.2399   -3.7754    0.0000 H   0  0  0  0  0  0  0  0  0  0  0  0
   -0.7269   -0.3859    0.0000 C   0  0  0  0  0  0  0  0  0  0  0  0
   -2.0259    0.3641    0.0000 O   0  0  0  0  0  0  0  0  0  0  0  0
    0.5722    0.3641    0.0000 N   0  0  0  0  0  0  0  0  0  0  0  0
    1.8712   -0.3859    0.0000 H   0  0  0  0  0  0  0  0  0  0  0  0
    0.5722    1.8641    0.0000 C   0  0  1  0  0  0  0  0  0  0  0  0
    2.0494    1.6036    0.0000 H   0  0  0  0  0  0  0  0  0  0  0  0
    1.0852    3.2737    0.0000 C   0  0  0  0  0  0  0  0  0  0  0  0
   -0.3920    3.5341    0.0000 H   0  0  0  0  0  0  0  0  0  0  0  0
    1.0852    4.7737    0.0000 H   0  0  0  0  0  0  0  0  0  0  0  0
    2.5624    3.5341    0.0000 C   0  0  0  0  0  0  0  0  0  0  0  0
    3.5267    2.3841    0.0000 C   0  0  0  0  0  0  0  0  0  0  0  0
    3.0135    0.9747    0.0000 H   0  0  0  0  0  0  0  0  0  0  0  0
    5.0040    2.6446    0.0000 C   0  0  0  0  0  0  0  0  0  0  0  0
    5.9683    1.4957    0.0000 H   0  0  0  0  0  0  0  0  0  0  0  0
    5.5168    4.0551    0.0000 C   0  0  0  0  0  0  0  0  0  0  0  0
    6.9940    4.3155    0.0000 H   0  0  0  0  0  0  0  0  0  0  0  0
    4.5525    5.2051    0.0000 C   0  0  0  0  0  0  0  0  0  0  0  0
    5.0657    6.6145    0.0000 H   0  0  0  0  0  0  0  0  0  0  0  0
    3.0753    4.9446    0.0000 C   0  0  0  0  0  0  0  0  0  0  0  0
    2.1109    6.0935    0.0000 H   0  0  0  0  0  0  0  0  0  0  0  0
   -1.1426    2.8541    0.0000 C   0  0  0  0  0  0  0  0  0  0  0  0
   -2.6198    3.1146    0.0000 H   0  0  0  0  0  0  0  0  0  0  0  0
   -1.6556    1.4446    0.0000 H   0  0  0  0  0  0  0  0  0  0  0  0
   -1.1426    4.3541    0.0000 C   0  0  1  0  0  0  0  0  0  0  0  0
    0.3346    4.0936    0.0000 H   0  0  0  0  0  0  0  0  0  0  0  0
   -3.6887    5.8241    0.0000 C   0  0  2  0  0  0  0  0  0  0  0  0
   -4.6529    6.9732    0.0000 H   0  0  0  0  0  0  0  0  0  0  0  0
   -2.7245    6.9732    0.0000 C   0  0  0  0  0  0  0  0  0  0  0  0
   -1.4255    7.7232    0.0000 H   0  0  0  0  0  0  0  0  0  0  0  0
   -1.7603    5.8241    0.0000 H   0  0  0  0  0  0  0  0  0  0  0  0
   -3.2375    8.3827    0.0000 C   0  0  0  0  0  0  0  0  0  0  0  0
   -2.2725    9.5321    0.0000 C   0  0  0  0  0  0  0  0  0  0  0  0
   -0.7953    9.2714    0.0000 H   0  0  0  0  0  0  0  0  0  0  0  0
   -2.7855   10.9417    0.0000 C   0  0  0  0  0  0  0  0  0  0  0  0
   -1.8215   12.0909    0.0000 H   0  0  0  0  0  0  0  0  0  0  0  0
   -4.2636   11.2018    0.0000 C   0  0  0  0  0  0  0  0  0  0  0  0
   -4.7766   12.6113    0.0000 H   0  0  0  0  0  0  0  0  0  0  0  0
   -5.2287   10.0524    0.0000 C   0  0  0  0  0  0  0  0  0  0  0  0
   -6.7059   10.3131    0.0000 H   0  0  0  0  0  0  0  0  0  0  0  0
   -4.7157    8.6429    0.0000 C   0  0  0  0  0  0  0  0  0  0  0  0
   -5.6797    7.4936    0.0000 H   0  0  0  0  0  0  0  0  0  0  0  0
   -5.4034    4.8341    0.0000 N   0  0  0  0  0  0  0  0  0  0  0  0
   -5.4034    3.3341    0.0000 H   0  0  0  0  0  0  0  0  0  0  0  0
   -6.7025    5.5841    0.0000 C   0  0  0  0  0  0  0  0  0  0  0  0
   -6.7025    7.0841    0.0000 O   0  0  0  0  0  0  0  0  0  0  0  0
   -8.0015    4.8341    0.0000 C   0  0  0  0  0  0  0  0  0  0  0  0
   -7.0373    3.6851    0.0000 H   0  0  0  0  0  0  0  0  0  0  0  0
   -8.9657    3.6851    0.0000 H   0  0  0  0  0  0  0  0  0  0  0  0
   -9.3005    5.5841    0.0000 O   0  0  0  0  0  0  0  0  0  0  0  0
  -10.5996    4.8341    0.0000 C   0  0  0  0  0  0  0  0  0  0  0  0
  -10.5880    3.3352    0.0000 C   0  0  0  0  0  0  0  0  0  0  0  0
   -9.2820    2.5975    0.0000 C   0  0  0  0  0  0  0  0  0  0  0  0
   -7.9900    3.3597    0.0000 H   0  0  0  0  0  0  0  0  0  0  0  0
  -10.2353    1.4394    0.0000 H   0  0  0  0  0  0  0  0  0  0  0  0
   -8.3070    1.4576    0.0000 H   0  0  0  0  0  0  0  0  0  0  0  0
  -11.8617    2.5808    0.0000 C   0  0  0  0  0  0  0  0  0  0  0  0
  -11.8496    1.0809    0.0000 H   0  0  0  0  0  0  0  0  0  0  0  0
  -13.1364    3.3084    0.0000 C   0  0  0  0  0  0  0  0  0  0  0  0
  -14.4205    2.5331    0.0000 H   0  0  0  0  0  0  0  0  0  0  0  0
  -13.1872    4.7947    0.0000 C   0  0  0  0  0  0  0  0  0  0  0  0
  -14.5101    5.5017    0.0000 H   0  0  0  0  0  0  0  0  0  0  0  0
  -11.8953    5.5956    0.0000 C   0  0  0  0  0  0  0  0  0  0  0  0
  -11.9131    7.0955    0.0000 C   0  0  0  0  0  0  0  0  0  0  0  0
  -13.2209    7.8301    0.0000 H   0  0  0  0  0  0  0  0  0  0  0  0
  -11.4168    8.5110    0.0000 H   0  0  0  0  0  0  0  0  0  0  0  0
  -10.4329    6.8526    0.0000 H   0  0  0  0  0  0  0  0  0  0  0  0
   -0.6295    5.7637    0.0000 O   0  0  0  0  0  0  0  0  0  0  0  0
    0.8477    6.0241    0.0000 H   0  0  0  0  0  0  0  0  0  0  0  0
    0.5722   -3.1159    0.0000 N   0  0  0  0  0  0  0  0  0  0  0  0
    1.8717   -2.3650    0.0000 C   0  0  0  0  0  0  0  0  0  0  0  0
    0.9072   -1.2162    0.0000 H   0  0  0  0  0  0  0  0  0  0  0  0
    2.8357   -1.2159    0.0000 H   0  0  0  0  0  0  0  0  0  0  0  0
    3.1707   -3.1150    0.0000 C   0  0  0  0  0  0  0  0  0  0  0  0
    3.6839   -1.7056    0.0000 H   0  0  0  0  0  0  0  0  0  0  0  0
    3.1702   -4.6159    0.0000 C   0  0  0  0  0  0  0  0  0  0  0  0
    4.6475   -4.3556    0.0000 H   0  0  0  0  0  0  0  0  0  0  0  0
    3.6834   -6.0254    0.0000 H   0  0  0  0  0  0  0  0  0  0  0  0
    1.8707   -5.3667    0.0000 N   0  0  0  0  0  0  0  0  0  0  0  0
    1.8710   -6.8667    0.0000 H   0  0  0  0  0  0  0  0  0  0  0  0
    0.5717   -4.6167    0.0000 C   0  0  0  0  0  0  0  0  0  0  0  0
   -0.7275   -5.3665    0.0000 O   0  0  0  0  0  0  0  0  0  0  0  0
    4.6479   -3.3758    0.0000 O   0  0  0  0  0  0  0  0  0  0  0  0
    5.6123   -2.2270    0.0000 H   0  0  0  0  0  0  0  0  0  0  0  0
  1  2  1  0  0  0  0 
  1  3  1  0  0  0  0 
  1  4  1  0  0  0  0 
  1  5  1  0  0  0  0 
  5  6  1  0  0  0  0 
  5  7  1  0  0  0  0 
  7  8  1  0  0  0  0 
  7  9  1  0  0  0  0 
  7 10  1  0  0  0  0 
  5 11  1  0  0  0  0 
 11 12  1  6  0  0  0 
 11 13  1  0  0  0  0 
 13 14  2  0  0  0  0 
 13 15  1  0  0  0  0 
 15 16  1  0  0  0  0 
 17 15  1  6  0  0  0 
 17 18  1  1  0  0  0 
 17 19  1  0  0  0  0 
 19 20  1  0  0  0  0 
 19 21  1  0  0  0  0 
 19 22  1  0  0  0  0 
 22 23  2  0  0  0  0 
 23 24  1  0  0  0  0 
 23 25  1  0  0  0  0 
 25 26  1  0  0  0  0 
 25 27  2  0  0  0  0 
 27 28  1  0  0  0  0 
 27 29  1  0  0  0  0 
 29 30  1  0  0  0  0 
 29 31  2  0  0  0  0 
 22 31  1  0  0  0  0 
 31 32  1  0  0  0  0 
 17 33  1  0  0  0  0 
 33 34  1  0  0  0  0 
 33 35  1  0  0  0  0 
 33 36  1  0  0  0  0 
 36 37  1  6  0  0  0 
 36 38  1  0  0  0  0 
 38 39  1  6  0  0  0 
 38 40  1  0  0  0  0 
 40 41  1  0  0  0  0 
 40 42  1  0  0  0  0 
 40 43  1  0  0  0  0 
 43 44  2  0  0  0  0 
 44 45  1  0  0  0  0 
 44 46  1  0  0  0  0 
 46 47  1  0  0  0  0 
 46 48  2  0  0  0  0 
 48 49  1  0  0  0  0 
 48 50  1  0  0  0  0 
 50 51  1  0  0  0  0 
 50 52  2  0  0  0  0 
 43 52  1  0  0  0  0 
 52 53  1  0  0  0  0 
 38 54  1  1  0  0  0 
 54 55  1  0  0  0  0 
 54 56  1  0  0  0  0 
 56 57  2  0  0  0  0 
 56 58  1  0  0  0  0 
 58 59  1  0  0  0  0 
 58 60  1  0  0  0  0 
 58 61  1  0  0  0  0 
 61 62  1  0  0  0  0 
 62 63  2  0  0  0  0 
 63 64  1  0  0  0  0 
 64 65  1  0  0  0  0 
 64 66  1  0  0  0  0 
 64 67  1  0  0  0  0 
 63 68  1  0  0  0  0 
 68 69  1  0  0  0  0 
 68 70  2  0  0  0  0 
 70 71  1  0  0  0  0 
 70 72  1  0  0  0  0 
 72 73  1  0  0  0  0 
 72 74  2  0  0  0  0 
 62 74  1  0  0  0  0 
 74 75  1  0  0  0  0 
 75 76  1  0  0  0  0 
 75 77  1  0  0  0  0 
 75 78  1  0  0  0  0 
 36 79  1  1  0  0  0 
 79 80  1  0  0  0  0 
 11 81  1  1  0  0  0 
 81 82  1  0  0  0  0 
 82 83  1  0  0  0  0 
 82 84  1  0  0  0  0 
 82 85  1  0  0  0  0 
 85 86  1  0  0  0  0 
 85 87  1  0  0  0  0 
 87 88  1  0  0  0  0 
 87 89  1  0  0  0  0 
 87 90  1  0  0  0  0 
 90 91  1  0  0  0  0 
 90 92  1  0  0  0  0 
 81 92  1  0  0  0  0 
 92 93  2  0  0  0  0 
 85 94  1  0  0  0  0 
 94 95  1  0  0  0  0 
M  END
> <Rank>
19

> <Priority_score>
0.088

> <Reaction_type>
aliphatic_hydroxylation_(sec_carbon_in_a_ringA)

> <Parent_ID>
63

> <Parent_InChI>
InChI=1S/C37H48N4O5/c1-25(2)34(41-20-12-19-38-37(41)45)36(44)39-30(21-28-15-7-5-8-16-28)23-32(42)31(22-29-17-9-6-10-18-29)40-33(43)24-46-35-26(3)13-11-14-27(35)4/h5-11,13-18,25,30-32,34,42H,12,19-24H2,1-4H3,(H,38,45)(H,39,44)(H,40,43)

> <Parent_SMILES>
Cc1cccc(C)c1OCC(=O)N[C@@H](Cc1ccccc1)[C@@H](O)C[C@H](Cc1ccccc1)NC(=O)[C@H](C(C)C)N1CCCNC1=O

$$$$
Molecule 63_metabolite 25
  CDK     0516241031

114118  0  0  0  0  0  0  0  0999 V2000
  -11.9813    2.1220    0.0000 C   0  0  0  0  0  0  0  0  0  0  0  0
  -11.7213    0.6447    0.0000 H   0  0  0  0  0  0  0  0  0  0  0  0
  -13.3910    1.6094    0.0000 H   0  0  0  0  0  0  0  0  0  0  0  0
  -12.7308    3.4213    0.0000 H   0  0  0  0  0  0  0  0  0  0  0  0
  -10.0963    3.7027    0.0000 C   0  0  0  0  0  0  0  0  0  0  0  0
   -8.6866    4.2153    0.0000 H   0  0  0  0  0  0  0  0  0  0  0  0
   -9.3467    2.4034    0.0000 C   0  0  0  0  0  0  0  0  0  0  0  0
  -10.0971    1.1046    0.0000 H   0  0  0  0  0  0  0  0  0  0  0  0
   -8.1973    3.3672    0.0000 H   0  0  0  0  0  0  0  0  0  0  0  0
   -8.1979    1.4389    0.0000 H   0  0  0  0  0  0  0  0  0  0  0  0
  -10.3563    5.1800    0.0000 C   0  0  1  0  0  0  0  0  0  0  0  0
  -11.7660    4.6674    0.0000 H   0  0  0  0  0  0  0  0  0  0  0  0
   -8.3763    5.1793    0.0000 C   0  0  0  0  0  0  0  0  0  0  0  0
   -7.6259    6.4781    0.0000 O   0  0  0  0  0  0  0  0  0  0  0  0
   -7.6267    3.8801    0.0000 N   0  0  0  0  0  0  0  0  0  0  0  0
   -8.3771    2.5813    0.0000 H   0  0  0  0  0  0  0  0  0  0  0  0
   -5.6467    3.8794    0.0000 C   0  0  1  0  0  0  0  0  0  0  0  0
   -5.9067    5.3567    0.0000 H   0  0  0  0  0  0  0  0  0  0  0  0
   -4.2370    4.3920    0.0000 C   0  0  0  0  0  0  0  0  0  0  0  0
   -3.9770    2.9147    0.0000 H   0  0  0  0  0  0  0  0  0  0  0  0
   -2.7370    4.3915    0.0000 H   0  0  0  0  0  0  0  0  0  0  0  0
   -3.9760    5.8691    0.0000 C   0  0  0  0  0  0  0  0  0  0  0  0
   -5.1257    6.8338    0.0000 C   0  0  0  0  0  0  0  0  0  0  0  0
   -6.5354    6.3210    0.0000 H   0  0  0  0  0  0  0  0  0  0  0  0
   -4.8648    8.3110    0.0000 C   0  0  0  0  0  0  0  0  0  0  0  0
   -6.0134    9.2757    0.0000 H   0  0  0  0  0  0  0  0  0  0  0  0
   -3.4541    8.8234    0.0000 C   0  0  0  0  0  0  0  0  0  0  0  0
   -3.1932   10.3005    0.0000 H   0  0  0  0  0  0  0  0  0  0  0  0
   -2.3044    7.8587    0.0000 C   0  0  0  0  0  0  0  0  0  0  0  0
   -0.8948    8.3715    0.0000 H   0  0  0  0  0  0  0  0  0  0  0  0
   -2.5654    6.3815    0.0000 C   0  0  0  0  0  0  0  0  0  0  0  0
   -1.4168    5.4168    0.0000 H   0  0  0  0  0  0  0  0  0  0  0  0
   -4.6572    2.1644    0.0000 C   0  0  0  0  0  0  0  0  0  0  0  0
   -4.3972    0.6871    0.0000 H   0  0  0  0  0  0  0  0  0  0  0  0
   -6.0669    1.6518    0.0000 H   0  0  0  0  0  0  0  0  0  0  0  0
   -3.1572    2.1639    0.0000 C   0  0  1  0  0  0  0  0  0  0  0  0
   -3.4172    3.6412    0.0000 H   0  0  0  0  0  0  0  0  0  0  0  0
   -2.1678    0.4489    0.0000 C   0  0  2  0  0  0  0  0  0  0  0  0
   -1.9078   -1.0284    0.0000 H   0  0  0  0  0  0  0  0  0  0  0  0
   -3.5775   -0.0637    0.0000 C   0  0  0  0  0  0  0  0  0  0  0  0
   -5.0775   -0.0632    0.0000 H   0  0  0  0  0  0  0  0  0  0  0  0
   -3.8375    1.4136    0.0000 H   0  0  0  0  0  0  0  0  0  0  0  0
   -3.8384   -1.5409    0.0000 C   0  0  0  0  0  0  0  0  0  0  0  0
   -5.2491   -2.0533    0.0000 C   0  0  0  0  0  0  0  0  0  0  0  0
   -6.3977   -1.0885    0.0000 H   0  0  0  0  0  0  0  0  0  0  0  0
   -5.5100   -3.5304    0.0000 C   0  0  0  0  0  0  0  0  0  0  0  0
   -6.9197   -4.0432    0.0000 H   0  0  0  0  0  0  0  0  0  0  0  0
   -4.3603   -4.4951    0.0000 C   0  0  0  0  0  0  0  0  0  0  0  0
   -4.6213   -5.9722    0.0000 H   0  0  0  0  0  0  0  0  0  0  0  0
   -2.9497   -3.9827    0.0000 C   0  0  0  0  0  0  0  0  0  0  0  0
   -1.8011   -4.9474    0.0000 H   0  0  0  0  0  0  0  0  0  0  0  0
   -2.6887   -2.5056    0.0000 C   0  0  0  0  0  0  0  0  0  0  0  0
   -1.2791   -1.9928    0.0000 H   0  0  0  0  0  0  0  0  0  0  0  0
   -0.1878    0.4482    0.0000 N   0  0  0  0  0  0  0  0  0  0  0  0
    0.5626    1.7470    0.0000 H   0  0  0  0  0  0  0  0  0  0  0  0
    0.5618   -0.8511    0.0000 C   0  0  0  0  0  0  0  0  0  0  0  0
   -0.1886   -2.1499    0.0000 O   0  0  0  0  0  0  0  0  0  0  0  0
    2.0618   -0.8515    0.0000 C   0  0  0  0  0  0  0  0  0  0  0  0
    1.8018    0.6258    0.0000 H   0  0  0  0  0  0  0  0  0  0  0  0
    3.4715   -0.3390    0.0000 H   0  0  0  0  0  0  0  0  0  0  0  0
    2.8114   -2.1508    0.0000 O   0  0  0  0  0  0  0  0  0  0  0  0
    4.3114   -2.1513    0.0000 C   0  0  0  0  0  0  0  0  0  0  0  0
    5.0512   -0.8477    0.0000 C   0  0  0  0  0  0  0  0  0  0  0  0
    4.2894    0.4445    0.0000 C   0  0  0  0  0  0  0  0  0  0  0  0
    2.7895    0.4308    0.0000 H   0  0  0  0  0  0  0  0  0  0  0  0
    5.6942    0.9703    0.0000 H   0  0  0  0  0  0  0  0  0  0  0  0
    4.0155    1.9193    0.0000 H   0  0  0  0  0  0  0  0  0  0  0  0
    6.5314   -0.8317    0.0000 C   0  0  0  0  0  0  0  0  0  0  0  0
    7.2714    0.4731    0.0000 H   0  0  0  0  0  0  0  0  0  0  0  0
    7.2712   -2.0993    0.0000 C   0  0  0  0  0  0  0  0  0  0  0  0
    8.7709   -2.0704    0.0000 H   0  0  0  0  0  0  0  0  0  0  0  0
    6.5716   -3.4117    0.0000 C   0  0  0  0  0  0  0  0  0  0  0  0
    7.3634   -4.6857    0.0000 H   0  0  0  0  0  0  0  0  0  0  0  0
    5.0524   -3.4589    0.0000 C   0  0  0  0  0  0  0  0  0  0  0  0
    4.3174   -4.7665    0.0000 C   0  0  0  0  0  0  0  0  0  0  0  0
    5.0823   -6.0568    0.0000 H   0  0  0  0  0  0  0  0  0  0  0  0
    3.1795   -5.7439    0.0000 H   0  0  0  0  0  0  0  0  0  0  0  0
    3.1573   -3.8156    0.0000 H   0  0  0  0  0  0  0  0  0  0  0  0
   -1.7475    2.6765    0.0000 O   0  0  0  0  0  0  0  0  0  0  0  0
   -1.4866    4.1536    0.0000 H   0  0  0  0  0  0  0  0  0  0  0  0
  -11.1059    6.4793    0.0000 N   0  0  0  0  0  0  0  0  0  0  0  0
  -10.3546    7.7785    0.0000 C   0  0  0  0  0  0  0  0  0  0  0  0
   -9.2061    6.8137    0.0000 H   0  0  0  0  0  0  0  0  0  0  0  0
   -9.2051    8.7422    0.0000 H   0  0  0  0  0  0  0  0  0  0  0  0
  -11.1042    9.0778    0.0000 C   0  0  0  0  0  0  0  0  0  0  0  0
   -9.6945    9.5905    0.0000 H   0  0  0  0  0  0  0  0  0  0  0  0
  -11.3645   10.5550    0.0000 H   0  0  0  0  0  0  0  0  0  0  0  0
  -12.6050    9.0778    0.0000 C   0  0  0  0  0  0  0  0  0  0  0  0
  -12.3442   10.5550    0.0000 H   0  0  0  0  0  0  0  0  0  0  0  0
  -14.0143    9.5914    0.0000 H   0  0  0  0  0  0  0  0  0  0  0  0
  -13.3563    7.7785    0.0000 N   0  0  0  0  0  0  0  0  0  0  0  0
  -15.3363    7.7795    0.0000 C   0  0  0  0  0  0  0  0  0  0  0  0
  -15.0767    6.3021    0.0000 H   0  0  0  0  0  0  0  0  0  0  0  0
  -16.7462    7.2674    0.0000 C   0  0  0  0  0  0  0  0  0  0  0  0
  -15.9972    5.9678    0.0000 H   0  0  0  0  0  0  0  0  0  0  0  0
  -17.8949    8.2333    0.0000 C   0  0  0  0  0  0  0  0  0  0  0  0
  -18.6459    6.9349    0.0000 H   0  0  0  0  0  0  0  0  0  0  0  0
  -17.6337    9.7112    0.0000 C   0  0  0  0  0  0  0  0  0  0  0  0
  -19.1337    9.7120    0.0000 H   0  0  0  0  0  0  0  0  0  0  0  0
  -16.2238   10.2233    0.0000 C   0  0  0  0  0  0  0  0  0  0  0  0
  -16.9728   11.5229    0.0000 H   0  0  0  0  0  0  0  0  0  0  0  0
  -15.0739   11.1864    0.0000 C   0  0  0  0  0  0  0  0  0  0  0  0
  -13.6648   10.6721    0.0000 O   0  0  0  0  0  0  0  0  0  0  0  0
  -15.3330   12.6639    0.0000 O   0  0  0  0  0  0  0  0  0  0  0  0
  -16.7421   13.1782    0.0000 H   0  0  0  0  0  0  0  0  0  0  0  0
  -15.0751    9.2574    0.0000 O   0  0  0  0  0  0  0  0  0  0  0  0
  -17.8933   11.1886    0.0000 O   0  0  0  0  0  0  0  0  0  0  0  0
  -19.3026   11.7025    0.0000 H   0  0  0  0  0  0  0  0  0  0  0  0
  -19.3041    8.7472    0.0000 O   0  0  0  0  0  0  0  0  0  0  0  0
  -20.4538    7.7837    0.0000 H   0  0  0  0  0  0  0  0  0  0  0  0
  -17.8961    6.3043    0.0000 O   0  0  0  0  0  0  0  0  0  0  0  0
  -17.6370    4.8268    0.0000 H   0  0  0  0  0  0  0  0  0  0  0  0
  -12.6067    6.4793    0.0000 C   0  0  0  0  0  0  0  0  0  0  0  0
  -13.3569    5.1803    0.0000 O   0  0  0  0  0  0  0  0  0  0  0  0
  1  2  1  0  0  0  0 
  1  3  1  0  0  0  0 
  1  4  1  0  0  0  0 
  1  5  1  0  0  0  0 
  5  6  1  0  0  0  0 
  5  7  1  0  0  0  0 
  7  8  1  0  0  0  0 
  7  9  1  0  0  0  0 
  7 10  1  0  0  0  0 
  5 11  1  0  0  0  0 
 11 12  1  1  0  0  0 
 11 13  1  0  0  0  0 
 13 14  2  0  0  0  0 
 13 15  1  0  0  0  0 
 15 16  1  0  0  0  0 
 17 15  1  1  0  0  0 
 17 18  1  6  0  0  0 
 17 19  1  0  0  0  0 
 19 20  1  0  0  0  0 
 19 21  1  0  0  0  0 
 19 22  1  0  0  0  0 
 22 23  2  0  0  0  0 
 23 24  1  0  0  0  0 
 23 25  1  0  0  0  0 
 25 26  1  0  0  0  0 
 25 27  2  0  0  0  0 
 27 28  1  0  0  0  0 
 27 29  1  0  0  0  0 
 29 30  1  0  0  0  0 
 29 31  2  0  0  0  0 
 22 31  1  0  0  0  0 
 31 32  1  0  0  0  0 
 17 33  1  0  0  0  0 
 33 34  1  0  0  0  0 
 33 35  1  0  0  0  0 
 33 36  1  0  0  0  0 
 36 37  1  1  0  0  0 
 36 38  1  0  0  0  0 
 38 39  1  6  0  0  0 
 38 40  1  0  0  0  0 
 40 41  1  0  0  0  0 
 40 42  1  0  0  0  0 
 40 43  1  0  0  0  0 
 43 44  2  0  0  0  0 
 44 45  1  0  0  0  0 
 44 46  1  0  0  0  0 
 46 47  1  0  0  0  0 
 46 48  2  0  0  0  0 
 48 49  1  0  0  0  0 
 48 50  1  0  0  0  0 
 50 51  1  0  0  0  0 
 50 52  2  0  0  0  0 
 43 52  1  0  0  0  0 
 52 53  1  0  0  0  0 
 38 54  1  1  0  0  0 
 54 55  1  0  0  0  0 
 54 56  1  0  0  0  0 
 56 57  2  0  0  0  0 
 56 58  1  0  0  0  0 
 58 59  1  0  0  0  0 
 58 60  1  0  0  0  0 
 58 61  1  0  0  0  0 
 61 62  1  0  0  0  0 
 62 63  2  0  0  0  0 
 63 64  1  0  0  0  0 
 64 65  1  0  0  0  0 
 64 66  1  0  0  0  0 
 64 67  1  0  0  0  0 
 63 68  1  0  0  0  0 
 68 69  1  0  0  0  0 
 68 70  2  0  0  0  0 
 70 71  1  0  0  0  0 
 70 72  1  0  0  0  0 
 72 73  1  0  0  0  0 
 72 74  2  0  0  0  0 
 62 74  1  0  0  0  0 
 74 75  1  0  0  0  0 
 75 76  1  0  0  0  0 
 75 77  1  0  0  0  0 
 75 78  1  0  0  0  0 
 36 79  1  6  0  0  0 
 79 80  1  0  0  0  0 
 11 81  1  6  0  0  0 
 81 82  1  0  0  0  0 
 82 83  1  0  0  0  0 
 82 84  1  0  0  0  0 
 82 85  1  0  0  0  0 
 85 86  1  0  0  0  0 
 85 87  1  0  0  0  0 
 85 88  1  0  0  0  0 
 88 89  1  0  0  0  0 
 88 90  1  0  0  0  0 
 88 91  1  0  0  0  0 
 91 92  1  0  0  0  0 
 92 93  1  0  0  0  0 
 92 94  1  0  0  0  0 
 94 95  1  0  0  0  0 
 94 96  1  0  0  0  0 
 96 97  1  0  0  0  0 
 96 98  1  0  0  0  0 
 98 99  1  0  0  0  0 
 98100  1  0  0  0  0 
100101  1  0  0  0  0 
100102  1  0  0  0  0 
102103  2  0  0  0  0 
102104  1  0  0  0  0 
104105  1  0  0  0  0 
100106  1  0  0  0  0 
 92106  1  0  0  0  0 
 98107  1  0  0  0  0 
107108  1  0  0  0  0 
 96109  1  0  0  0  0 
109110  1  0  0  0  0 
 94111  1  0  0  0  0 
111112  1  0  0  0  0 
 91113  1  0  0  0  0 
 81113  1  0  0  0  0 
113114  2  0  0  0  0 
M  END
> <Rank>
25

> <Priority_score>
0.08

> <Reaction_type>
N-glucuronidation_(NH_in_a_ring)

> <Parent_ID>
63

> <Parent_InChI>
InChI=1S/C37H48N4O5/c1-25(2)34(41-20-12-19-38-37(41)45)36(44)39-30(21-28-15-7-5-8-16-28)23-32(42)31(22-29-17-9-6-10-18-29)40-33(43)24-46-35-26(3)13-11-14-27(35)4/h5-11,13-18,25,30-32,34,42H,12,19-24H2,1-4H3,(H,38,45)(H,39,44)(H,40,43)

> <Parent_SMILES>
Cc1cccc(C)c1OCC(=O)N[C@@H](Cc1ccccc1)[C@@H](O)C[C@H](Cc1ccccc1)NC(=O)[C@H](C(C)C)N1CCCNC1=O

$$$$
Molecule 63_metabolite 26
  CDK     0516241031

 99102  0  0  0  0  0  0  0  0999 V2000
  -13.3024   -1.7590    0.0000 C   0  0  0  0  0  0  0  0  0  0  0  0
  -13.8154   -3.1685    0.0000 H   0  0  0  0  0  0  0  0  0  0  0  0
  -14.7796   -1.4985    0.0000 H   0  0  0  0  0  0  0  0  0  0  0  0
  -13.3024   -0.2590    0.0000 H   0  0  0  0  0  0  0  0  0  0  0  0
  -11.3525   -1.4152    0.0000 C   0  0  0  0  0  0  0  0  0  0  0  0
   -9.8753   -1.6756    0.0000 H   0  0  0  0  0  0  0  0  0  0  0  0
  -11.3525   -2.9152    0.0000 C   0  0  0  0  0  0  0  0  0  0  0  0
  -10.0535   -3.6652    0.0000 H   0  0  0  0  0  0  0  0  0  0  0  0
  -12.8297   -2.6547    0.0000 H   0  0  0  0  0  0  0  0  0  0  0  0
  -11.8655   -4.3247    0.0000 H   0  0  0  0  0  0  0  0  0  0  0  0
  -10.8395   -0.0056    0.0000 C   0  0  1  0  0  0  0  0  0  0  0  0
  -12.3167    0.2548    0.0000 H   0  0  0  0  0  0  0  0  0  0  0  0
   -9.1247   -0.9956    0.0000 C   0  0  0  0  0  0  0  0  0  0  0  0
   -9.1247   -2.4956    0.0000 O   0  0  0  0  0  0  0  0  0  0  0  0
   -7.8257   -0.2456    0.0000 N   0  0  0  0  0  0  0  0  0  0  0  0
   -7.8257    1.2544    0.0000 H   0  0  0  0  0  0  0  0  0  0  0  0
   -6.1110   -1.2356    0.0000 C   0  0  1  0  0  0  0  0  0  0  0  0
   -7.0751   -2.3847    0.0000 H   0  0  0  0  0  0  0  0  0  0  0  0
   -5.1468   -2.3847    0.0000 C   0  0  0  0  0  0  0  0  0  0  0  0
   -4.1826   -1.2356    0.0000 H   0  0  0  0  0  0  0  0  0  0  0  0
   -3.8477   -3.1347    0.0000 H   0  0  0  0  0  0  0  0  0  0  0  0
   -5.6598   -3.7942    0.0000 C   0  0  0  0  0  0  0  0  0  0  0  0
   -7.1379   -4.0544    0.0000 C   0  0  0  0  0  0  0  0  0  0  0  0
   -8.1019   -2.9052    0.0000 H   0  0  0  0  0  0  0  0  0  0  0  0
   -7.6510   -5.4639    0.0000 C   0  0  0  0  0  0  0  0  0  0  0  0
   -9.1281   -5.7246    0.0000 H   0  0  0  0  0  0  0  0  0  0  0  0
   -6.6859   -6.6133    0.0000 C   0  0  0  0  0  0  0  0  0  0  0  0
   -7.1989   -8.0229    0.0000 H   0  0  0  0  0  0  0  0  0  0  0  0
   -5.2078   -6.3532    0.0000 C   0  0  0  0  0  0  0  0  0  0  0  0
   -4.2438   -7.5024    0.0000 H   0  0  0  0  0  0  0  0  0  0  0  0
   -4.6947   -4.9436    0.0000 C   0  0  0  0  0  0  0  0  0  0  0  0
   -3.2176   -4.6829    0.0000 H   0  0  0  0  0  0  0  0  0  0  0  0
   -4.3962   -0.2456    0.0000 C   0  0  0  0  0  0  0  0  0  0  0  0
   -3.4321    0.9034    0.0000 H   0  0  0  0  0  0  0  0  0  0  0  0
   -5.3604    0.9034    0.0000 H   0  0  0  0  0  0  0  0  0  0  0  0
   -3.0972   -0.9956    0.0000 C   0  0  1  0  0  0  0  0  0  0  0  0
   -4.0614   -2.1447    0.0000 H   0  0  0  0  0  0  0  0  0  0  0  0
   -0.5511    0.4744    0.0000 C   0  0  2  0  0  0  0  0  0  0  0  0
    0.9261    0.7348    0.0000 H   0  0  0  0  0  0  0  0  0  0  0  0
   -0.0381   -0.9352    0.0000 C   0  0  0  0  0  0  0  0  0  0  0  0
   -0.0381   -2.4352    0.0000 H   0  0  0  0  0  0  0  0  0  0  0  0
   -1.5153   -1.1956    0.0000 H   0  0  0  0  0  0  0  0  0  0  0  0
    1.4392   -1.1956    0.0000 C   0  0  0  0  0  0  0  0  0  0  0  0
    2.4035   -0.0456    0.0000 C   0  0  0  0  0  0  0  0  0  0  0  0
    1.8903    1.3638    0.0000 H   0  0  0  0  0  0  0  0  0  0  0  0
    3.8807   -0.3061    0.0000 C   0  0  0  0  0  0  0  0  0  0  0  0
    4.8451    0.8428    0.0000 H   0  0  0  0  0  0  0  0  0  0  0  0
    4.3936   -1.7166    0.0000 C   0  0  0  0  0  0  0  0  0  0  0  0
    3.4292   -2.8666    0.0000 C   0  0  0  0  0  0  0  0  0  0  0  0
    1.9520   -2.6061    0.0000 C   0  0  0  0  0  0  0  0  0  0  0  0
    0.9877   -3.7550    0.0000 H   0  0  0  0  0  0  0  0  0  0  0  0
    3.9425   -4.2761    0.0000 O   0  0  0  0  0  0  0  0  0  0  0  0
    5.4197   -4.5363    0.0000 C   0  0  0  0  0  0  0  0  0  0  0  0
    5.9330   -5.9458    0.0000 H   0  0  0  0  0  0  0  0  0  0  0  0
    5.4195   -3.0363    0.0000 H   0  0  0  0  0  0  0  0  0  0  0  0
    6.8969   -4.2756    0.0000 H   0  0  0  0  0  0  0  0  0  0  0  0
    5.8708   -1.9771    0.0000 O   0  0  0  0  0  0  0  0  0  0  0  0
    6.8350   -0.8280    0.0000 H   0  0  0  0  0  0  0  0  0  0  0  0
   -0.5511    2.4544    0.0000 N   0  0  0  0  0  0  0  0  0  0  0  0
   -1.8501    3.2044    0.0000 H   0  0  0  0  0  0  0  0  0  0  0  0
    0.7480    3.2044    0.0000 C   0  0  0  0  0  0  0  0  0  0  0  0
    2.0470    2.4544    0.0000 O   0  0  0  0  0  0  0  0  0  0  0  0
    0.7480    4.7044    0.0000 C   0  0  0  0  0  0  0  0  0  0  0  0
   -0.7293    4.4439    0.0000 H   0  0  0  0  0  0  0  0  0  0  0  0
    0.2349    6.1139    0.0000 H   0  0  0  0  0  0  0  0  0  0  0  0
    2.0470    5.4544    0.0000 O   0  0  0  0  0  0  0  0  0  0  0  0
    2.0470    6.9544    0.0000 C   0  0  0  0  0  0  0  0  0  0  0  0
    0.7431    7.6938    0.0000 C   0  0  0  0  0  0  0  0  0  0  0  0
   -0.5488    6.9316    0.0000 C   0  0  0  0  0  0  0  0  0  0  0  0
   -0.5346    5.4316    0.0000 H   0  0  0  0  0  0  0  0  0  0  0  0
   -1.0751    8.3362    0.0000 H   0  0  0  0  0  0  0  0  0  0  0  0
   -2.0235    6.6572    0.0000 H   0  0  0  0  0  0  0  0  0  0  0  0
    0.7267    9.1740    0.0000 C   0  0  0  0  0  0  0  0  0  0  0  0
   -0.5784    9.9135    0.0000 H   0  0  0  0  0  0  0  0  0  0  0  0
    1.9940    9.9142    0.0000 C   0  0  0  0  0  0  0  0  0  0  0  0
    1.9647   11.4139    0.0000 H   0  0  0  0  0  0  0  0  0  0  0  0
    3.3066    9.2150    0.0000 C   0  0  0  0  0  0  0  0  0  0  0  0
    4.5804   10.0072    0.0000 H   0  0  0  0  0  0  0  0  0  0  0  0
    3.3544    7.6958    0.0000 C   0  0  0  0  0  0  0  0  0  0  0  0
    4.6622    6.9612    0.0000 C   0  0  0  0  0  0  0  0  0  0  0  0
    5.9523    7.7265    0.0000 H   0  0  0  0  0  0  0  0  0  0  0  0
    5.6399    5.8236    0.0000 H   0  0  0  0  0  0  0  0  0  0  0  0
    3.7117    5.8008    0.0000 H   0  0  0  0  0  0  0  0  0  0  0  0
   -2.1330   -2.1447    0.0000 O   0  0  0  0  0  0  0  0  0  0  0  0
   -2.6460   -3.5542    0.0000 H   0  0  0  0  0  0  0  0  0  0  0  0
  -10.8395    1.4944    0.0000 N   0  0  0  0  0  0  0  0  0  0  0  0
   -9.5395    2.2444    0.0000 C   0  0  0  0  0  0  0  0  0  0  0  0
   -9.0267    0.8347    0.0000 H   0  0  0  0  0  0  0  0  0  0  0  0
   -8.0622    2.5047    0.0000 H   0  0  0  0  0  0  0  0  0  0  0  0
   -9.5395    3.7444    0.0000 C   0  0  0  0  0  0  0  0  0  0  0  0
   -8.0622    3.4840    0.0000 H   0  0  0  0  0  0  0  0  0  0  0  0
   -9.0267    5.1540    0.0000 H   0  0  0  0  0  0  0  0  0  0  0  0
  -10.8395    4.4944    0.0000 C   0  0  0  0  0  0  0  0  0  0  0  0
   -9.8754    5.6435    0.0000 H   0  0  0  0  0  0  0  0  0  0  0  0
  -11.8035    5.6435    0.0000 H   0  0  0  0  0  0  0  0  0  0  0  0
  -12.1395    3.7444    0.0000 N   0  0  0  0  0  0  0  0  0  0  0  0
  -13.4384    4.4946    0.0000 H   0  0  0  0  0  0  0  0  0  0  0  0
  -12.1395    2.2444    0.0000 C   0  0  0  0  0  0  0  0  0  0  0  0
  -13.4384    1.4942    0.0000 O   0  0  0  0  0  0  0  0  0  0  0  0
  1  2  1  0  0  0  0 
  1  3  1  0  0  0  0 
  1  4  1  0  0  0  0 
  1  5  1  0  0  0  0 
  5  6  1  0  0  0  0 
  5  7  1  0  0  0  0 
  7  8  1  0  0  0  0 
  7  9  1  0  0  0  0 
  7 10  1  0  0  0  0 
  5 11  1  0  0  0  0 
 11 12  1  1  0  0  0 
 11 13  1  0  0  0  0 
 13 14  2  0  0  0  0 
 13 15  1  0  0  0  0 
 15 16  1  0  0  0  0 
 17 15  1  6  0  0  0 
 17 18  1  1  0  0  0 
 17 19  1  0  0  0  0 
 19 20  1  0  0  0  0 
 19 21  1  0  0  0  0 
 19 22  1  0  0  0  0 
 22 23  2  0  0  0  0 
 23 24  1  0  0  0  0 
 23 25  1  0  0  0  0 
 25 26  1  0  0  0  0 
 25 27  2  0  0  0  0 
 27 28  1  0  0  0  0 
 27 29  1  0  0  0  0 
 29 30  1  0  0  0  0 
 29 31  2  0  0  0  0 
 22 31  1  0  0  0  0 
 31 32  1  0  0  0  0 
 17 33  1  0  0  0  0 
 33 34  1  0  0  0  0 
 33 35  1  0  0  0  0 
 33 36  1  0  0  0  0 
 36 37  1  6  0  0  0 
 36 38  1  0  0  0  0 
 38 39  1  6  0  0  0 
 38 40  1  0  0  0  0 
 40 41  1  0  0  0  0 
 40 42  1  0  0  0  0 
 40 43  1  0  0  0  0 
 43 44  2  0  0  0  0 
 44 45  1  0  0  0  0 
 44 46  1  0  0  0  0 
 46 47  1  0  0  0  0 
 46 48  2  0  0  0  0 
 48 49  1  0  0  0  0 
 49 50  2  0  0  0  0 
 43 50  1  0  0  0  0 
 50 51  1  0  0  0  0 
 49 52  1  0  0  0  0 
 52 53  1  0  0  0  0 
 53 54  1  0  0  0  0 
 53 55  1  0  0  0  0 
 53 56  1  0  0  0  0 
 48 57  1  0  0  0  0 
 57 58  1  0  0  0  0 
 38 59  1  1  0  0  0 
 59 60  1  0  0  0  0 
 59 61  1  0  0  0  0 
 61 62  2  0  0  0  0 
 61 63  1  0  0  0  0 
 63 64  1  0  0  0  0 
 63 65  1  0  0  0  0 
 63 66  1  0  0  0  0 
 66 67  1  0  0  0  0 
 67 68  2  0  0  0  0 
 68 69  1  0  0  0  0 
 69 70  1  0  0  0  0 
 69 71  1  0  0  0  0 
 69 72  1  0  0  0  0 
 68 73  1  0  0  0  0 
 73 74  1  0  0  0  0 
 73 75  2  0  0  0  0 
 75 76  1  0  0  0  0 
 75 77  1  0  0  0  0 
 77 78  1  0  0  0  0 
 77 79  2  0  0  0  0 
 67 79  1  0  0  0  0 
 79 80  1  0  0  0  0 
 80 81  1  0  0  0  0 
 80 82  1  0  0  0  0 
 80 83  1  0  0  0  0 
 36 84  1  1  0  0  0 
 84 85  1  0  0  0  0 
 11 86  1  6  0  0  0 
 86 87  1  0  0  0  0 
 87 88  1  0  0  0  0 
 87 89  1  0  0  0  0 
 87 90  1  0  0  0  0 
 90 91  1  0  0  0  0 
 90 92  1  0  0  0  0 
 90 93  1  0  0  0  0 
 93 94  1  0  0  0  0 
 93 95  1  0  0  0  0 
 93 96  1  0  0  0  0 
 96 97  1  0  0  0  0 
 96 98  1  0  0  0  0 
 86 98  1  0  0  0  0 
 98 99  2  0  0  0  0 
M  END
> <Rank>
26

> <Priority_score>
0.068

> <Reaction_type>
aromatic_oxidation

> <Parent_ID>
63

> <Parent_InChI>
InChI=1S/C37H48N4O5/c1-25(2)34(41-20-12-19-38-37(41)45)36(44)39-30(21-28-15-7-5-8-16-28)23-32(42)31(22-29-17-9-6-10-18-29)40-33(43)24-46-35-26(3)13-11-14-27(35)4/h5-11,13-18,25,30-32,34,42H,12,19-24H2,1-4H3,(H,38,45)(H,39,44)(H,40,43)

> <Parent_SMILES>
Cc1cccc(C)c1OCC(=O)N[C@@H](Cc1ccccc1)[C@@H](O)C[C@H](Cc1ccccc1)NC(=O)[C@H](C(C)C)N1CCCNC1=O

$$$$
Molecule 63_metabolite 27
  CDK     0516241031

 95 98  0  0  0  0  0  0  0  0999 V2000
    1.6793   -1.3286    0.0000 C   0  0  0  0  0  0  0  0  0  0  0  0
    0.7151   -2.4777    0.0000 H   0  0  0  0  0  0  0  0  0  0  0  0
    2.6435   -2.4777    0.0000 H   0  0  0  0  0  0  0  0  0  0  0  0
    2.9783   -0.5786    0.0000 H   0  0  0  0  0  0  0  0  0  0  0  0
    1.0021    0.5320    0.0000 C   0  0  0  0  0  0  0  0  0  0  0  0
    0.0379    1.6811    0.0000 H   0  0  0  0  0  0  0  0  0  0  0  0
   -0.2970   -0.2180    0.0000 C   0  0  0  0  0  0  0  0  0  0  0  0
   -1.5960    0.5320    0.0000 H   0  0  0  0  0  0  0  0  0  0  0  0
    0.6672   -1.3671    0.0000 H   0  0  0  0  0  0  0  0  0  0  0  0
   -1.2611   -1.3671    0.0000 H   0  0  0  0  0  0  0  0  0  0  0  0
    1.9663    1.6811    0.0000 C   0  0  1  0  0  0  0  0  0  0  0  0
    2.9304    0.5320    0.0000 H   0  0  0  0  0  0  0  0  0  0  0  0
    0.2515    2.6711    0.0000 C   0  0  0  0  0  0  0  0  0  0  0  0
   -1.0475    1.9211    0.0000 O   0  0  0  0  0  0  0  0  0  0  0  0
    0.2515    4.1711    0.0000 N   0  0  0  0  0  0  0  0  0  0  0  0
    1.5506    4.9211    0.0000 H   0  0  0  0  0  0  0  0  0  0  0  0
   -1.0475    4.9211    0.0000 C   0  0  1  0  0  0  0  0  0  0  0  0
   -0.0833    6.0701    0.0000 H   0  0  0  0  0  0  0  0  0  0  0  0
   -2.0117    6.0701    0.0000 C   0  0  0  0  0  0  0  0  0  0  0  0
   -2.9759    4.9211    0.0000 H   0  0  0  0  0  0  0  0  0  0  0  0
   -3.3107    6.8201    0.0000 H   0  0  0  0  0  0  0  0  0  0  0  0
   -1.4987    7.4797    0.0000 C   0  0  0  0  0  0  0  0  0  0  0  0
   -0.0206    7.7398    0.0000 C   0  0  0  0  0  0  0  0  0  0  0  0
    0.9434    6.5906    0.0000 H   0  0  0  0  0  0  0  0  0  0  0  0
    0.4925    9.1493    0.0000 C   0  0  0  0  0  0  0  0  0  0  0  0
    1.9696    9.4100    0.0000 H   0  0  0  0  0  0  0  0  0  0  0  0
   -0.4726   10.2987    0.0000 C   0  0  0  0  0  0  0  0  0  0  0  0
    0.0404   11.7083    0.0000 H   0  0  0  0  0  0  0  0  0  0  0  0
   -1.9507   10.0386    0.0000 C   0  0  0  0  0  0  0  0  0  0  0  0
   -2.9147   11.1878    0.0000 H   0  0  0  0  0  0  0  0  0  0  0  0
   -2.4638    8.6291    0.0000 C   0  0  0  0  0  0  0  0  0  0  0  0
   -3.9409    8.3683    0.0000 H   0  0  0  0  0  0  0  0  0  0  0  0
   -2.7622    3.9311    0.0000 C   0  0  0  0  0  0  0  0  0  0  0  0
   -3.7264    2.7820    0.0000 H   0  0  0  0  0  0  0  0  0  0  0  0
   -1.7981    2.7820    0.0000 H   0  0  0  0  0  0  0  0  0  0  0  0
   -4.0613    4.6811    0.0000 C   0  0  1  0  0  0  0  0  0  0  0  0
   -3.0971    5.8301    0.0000 H   0  0  0  0  0  0  0  0  0  0  0  0
   -6.6074    3.2111    0.0000 C   0  0  2  0  0  0  0  0  0  0  0  0
   -8.0846    2.9506    0.0000 H   0  0  0  0  0  0  0  0  0  0  0  0
   -7.1204    4.6206    0.0000 C   0  0  0  0  0  0  0  0  0  0  0  0
   -7.1204    6.1206    0.0000 H   0  0  0  0  0  0  0  0  0  0  0  0
   -5.6432    4.8811    0.0000 H   0  0  0  0  0  0  0  0  0  0  0  0
   -8.5976    4.8811    0.0000 C   0  0  0  0  0  0  0  0  0  0  0  0
   -9.1112    6.2913    0.0000 C   0  0  0  0  0  0  0  0  0  0  0  0
   -8.1487    7.4418    0.0000 H   0  0  0  0  0  0  0  0  0  0  0  0
  -10.5814    6.5462    0.0000 C   0  0  0  0  0  0  0  0  0  0  0  0
  -11.0964    7.9550    0.0000 H   0  0  0  0  0  0  0  0  0  0  0  0
  -11.5458    5.3973    0.0000 C   0  0  0  0  0  0  0  0  0  0  0  0
  -13.0226    5.6602    0.0000 H   0  0  0  0  0  0  0  0  0  0  0  0
  -11.0399    3.9935    0.0000 C   0  0  0  0  0  0  0  0  0  0  0  0
   -9.5620    3.7322    0.0000 C   0  0  0  0  0  0  0  0  0  0  0  0
   -9.0494    2.3224    0.0000 H   0  0  0  0  0  0  0  0  0  0  0  0
  -12.0062    2.8462    0.0000 O   0  0  0  0  0  0  0  0  0  0  0  0
  -13.4829    3.1094    0.0000 H   0  0  0  0  0  0  0  0  0  0  0  0
   -6.6074    1.2311    0.0000 N   0  0  0  0  0  0  0  0  0  0  0  0
   -5.3084    0.4811    0.0000 H   0  0  0  0  0  0  0  0  0  0  0  0
   -7.9064    0.4811    0.0000 C   0  0  0  0  0  0  0  0  0  0  0  0
   -9.2055    1.2311    0.0000 O   0  0  0  0  0  0  0  0  0  0  0  0
   -7.9064   -1.0189    0.0000 C   0  0  0  0  0  0  0  0  0  0  0  0
   -6.4292   -0.7585    0.0000 H   0  0  0  0  0  0  0  0  0  0  0  0
   -7.3934   -2.4285    0.0000 H   0  0  0  0  0  0  0  0  0  0  0  0
   -9.2055   -1.7689    0.0000 O   0  0  0  0  0  0  0  0  0  0  0  0
   -9.2055   -3.2689    0.0000 C   0  0  0  0  0  0  0  0  0  0  0  0
   -7.9016   -4.0084    0.0000 C   0  0  0  0  0  0  0  0  0  0  0  0
   -6.6097   -3.2462    0.0000 C   0  0  0  0  0  0  0  0  0  0  0  0
   -6.6238   -1.7462    0.0000 H   0  0  0  0  0  0  0  0  0  0  0  0
   -6.0834   -4.6508    0.0000 H   0  0  0  0  0  0  0  0  0  0  0  0
   -5.1350   -2.9718    0.0000 H   0  0  0  0  0  0  0  0  0  0  0  0
   -7.8851   -5.4886    0.0000 C   0  0  0  0  0  0  0  0  0  0  0  0
   -6.5801   -6.2281    0.0000 H   0  0  0  0  0  0  0  0  0  0  0  0
   -9.1525   -6.2287    0.0000 C   0  0  0  0  0  0  0  0  0  0  0  0
   -9.1231   -7.7285    0.0000 H   0  0  0  0  0  0  0  0  0  0  0  0
  -10.4651   -5.5296    0.0000 C   0  0  0  0  0  0  0  0  0  0  0  0
  -11.7389   -6.3218    0.0000 H   0  0  0  0  0  0  0  0  0  0  0  0
  -10.5128   -4.0104    0.0000 C   0  0  0  0  0  0  0  0  0  0  0  0
  -11.8207   -3.2758    0.0000 C   0  0  0  0  0  0  0  0  0  0  0  0
  -13.1107   -4.0411    0.0000 H   0  0  0  0  0  0  0  0  0  0  0  0
  -12.7984   -2.1382    0.0000 H   0  0  0  0  0  0  0  0  0  0  0  0
  -10.8702   -2.1154    0.0000 H   0  0  0  0  0  0  0  0  0  0  0  0
   -5.0255    5.8301    0.0000 O   0  0  0  0  0  0  0  0  0  0  0  0
   -4.5124    7.2397    0.0000 H   0  0  0  0  0  0  0  0  0  0  0  0
    3.2653    2.4311    0.0000 N   0  0  0  0  0  0  0  0  0  0  0  0
    3.2648    3.9319    0.0000 C   0  0  0  0  0  0  0  0  0  0  0  0
    1.7877    3.6711    0.0000 H   0  0  0  0  0  0  0  0  0  0  0  0
    2.7516    5.3414    0.0000 H   0  0  0  0  0  0  0  0  0  0  0  0
    4.5638    4.6819    0.0000 C   0  0  0  0  0  0  0  0  0  0  0  0
    3.5998    5.8311    0.0000 H   0  0  0  0  0  0  0  0  0  0  0  0
    5.5283    5.8307    0.0000 H   0  0  0  0  0  0  0  0  0  0  0  0
    5.8634    3.9311    0.0000 C   0  0  0  0  0  0  0  0  0  0  0  0
    6.3765    5.3405    0.0000 H   0  0  0  0  0  0  0  0  0  0  0  0
    7.3406    3.6707    0.0000 H   0  0  0  0  0  0  0  0  0  0  0  0
    5.8638    2.4302    0.0000 N   0  0  0  0  0  0  0  0  0  0  0  0
    7.1630    1.6804    0.0000 H   0  0  0  0  0  0  0  0  0  0  0  0
    4.5648    1.6802    0.0000 C   0  0  0  0  0  0  0  0  0  0  0  0
    4.5646    0.1802    0.0000 O   0  0  0  0  0  0  0  0  0  0  0  0
  1  2  1  0  0  0  0 
  1  3  1  0  0  0  0 
  1  4  1  0  0  0  0 
  1  5  1  0  0  0  0 
  5  6  1  0  0  0  0 
  5  7  1  0  0  0  0 
  7  8  1  0  0  0  0 
  7  9  1  0  0  0  0 
  7 10  1  0  0  0  0 
  5 11  1  0  0  0  0 
 11 12  1  6  0  0  0 
 11 13  1  0  0  0  0 
 13 14  2  0  0  0  0 
 13 15  1  0  0  0  0 
 15 16  1  0  0  0  0 
 17 15  1  6  0  0  0 
 17 18  1  1  0  0  0 
 17 19  1  0  0  0  0 
 19 20  1  0  0  0  0 
 19 21  1  0  0  0  0 
 19 22  1  0  0  0  0 
 22 23  2  0  0  0  0 
 23 24  1  0  0  0  0 
 23 25  1  0  0  0  0 
 25 26  1  0  0  0  0 
 25 27  2  0  0  0  0 
 27 28  1  0  0  0  0 
 27 29  1  0  0  0  0 
 29 30  1  0  0  0  0 
 29 31  2  0  0  0  0 
 22 31  1  0  0  0  0 
 31 32  1  0  0  0  0 
 17 33  1  0  0  0  0 
 33 34  1  0  0  0  0 
 33 35  1  0  0  0  0 
 33 36  1  0  0  0  0 
 36 37  1  6  0  0  0 
 36 38  1  0  0  0  0 
 38 39  1  6  0  0  0 
 38 40  1  0  0  0  0 
 40 41  1  0  0  0  0 
 40 42  1  0  0  0  0 
 40 43  1  0  0  0  0 
 43 44  2  0  0  0  0 
 44 45  1  0  0  0  0 
 44 46  1  0  0  0  0 
 46 47  1  0  0  0  0 
 46 48  2  0  0  0  0 
 48 49  1  0  0  0  0 
 48 50  1  0  0  0  0 
 50 51  2  0  0  0  0 
 43 51  1  0  0  0  0 
 51 52  1  0  0  0  0 
 50 53  1  0  0  0  0 
 53 54  1  0  0  0  0 
 38 55  1  1  0  0  0 
 55 56  1  0  0  0  0 
 55 57  1  0  0  0  0 
 57 58  2  0  0  0  0 
 57 59  1  0  0  0  0 
 59 60  1  0  0  0  0 
 59 61  1  0  0  0  0 
 59 62  1  0  0  0  0 
 62 63  1  0  0  0  0 
 63 64  2  0  0  0  0 
 64 65  1  0  0  0  0 
 65 66  1  0  0  0  0 
 65 67  1  0  0  0  0 
 65 68  1  0  0  0  0 
 64 69  1  0  0  0  0 
 69 70  1  0  0  0  0 
 69 71  2  0  0  0  0 
 71 72  1  0  0  0  0 
 71 73  1  0  0  0  0 
 73 74  1  0  0  0  0 
 73 75  2  0  0  0  0 
 63 75  1  0  0  0  0 
 75 76  1  0  0  0  0 
 76 77  1  0  0  0  0 
 76 78  1  0  0  0  0 
 76 79  1  0  0  0  0 
 36 80  1  1  0  0  0 
 80 81  1  0  0  0  0 
 11 82  1  1  0  0  0 
 82 83  1  0  0  0  0 
 83 84  1  0  0  0  0 
 83 85  1  0  0  0  0 
 83 86  1  0  0  0  0 
 86 87  1  0  0  0  0 
 86 88  1  0  0  0  0 
 86 89  1  0  0  0  0 
 89 90  1  0  0  0  0 
 89 91  1  0  0  0  0 
 89 92  1  0  0  0  0 
 92 93  1  0  0  0  0 
 92 94  1  0  0  0  0 
 82 94  1  0  0  0  0 
 94 95  2  0  0  0  0 
M  END
> <Rank>
26

> <Priority_score>
0.068

> <Reaction_type>
aromatic_hydroxylation_(meta_to_carbon)

> <Parent_ID>
63

> <Parent_InChI>
InChI=1S/C37H48N4O5/c1-25(2)34(41-20-12-19-38-37(41)45)36(44)39-30(21-28-15-7-5-8-16-28)23-32(42)31(22-29-17-9-6-10-18-29)40-33(43)24-46-35-26(3)13-11-14-27(35)4/h5-11,13-18,25,30-32,34,42H,12,19-24H2,1-4H3,(H,38,45)(H,39,44)(H,40,43)

> <Parent_SMILES>
Cc1cccc(C)c1OCC(=O)N[C@@H](Cc1ccccc1)[C@@H](O)C[C@H](Cc1ccccc1)NC(=O)[C@H](C(C)C)N1CCCNC1=O

$$$$
Molecule 63_metabolite 28
  CDK     0516241031

 95 98  0  0  0  0  0  0  0  0999 V2000
   -3.7049   -4.0172    0.0000 C   0  0  0  0  0  0  0  0  0  0  0  0
   -5.1821   -3.7567    0.0000 H   0  0  0  0  0  0  0  0  0  0  0  0
   -4.2179   -5.4267    0.0000 H   0  0  0  0  0  0  0  0  0  0  0  0
   -2.4058   -4.7672    0.0000 H   0  0  0  0  0  0  0  0  0  0  0  0
   -2.4322   -2.5004    0.0000 C   0  0  0  0  0  0  0  0  0  0  0  0
   -1.9191   -1.0909    0.0000 H   0  0  0  0  0  0  0  0  0  0  0  0
   -3.7312   -1.7504    0.0000 C   0  0  0  0  0  0  0  0  0  0  0  0
   -3.7312   -0.2504    0.0000 H   0  0  0  0  0  0  0  0  0  0  0  0
   -4.2442   -3.1600    0.0000 H   0  0  0  0  0  0  0  0  0  0  0  0
   -5.2084   -1.4900    0.0000 H   0  0  0  0  0  0  0  0  0  0  0  0
   -0.9549   -2.7609    0.0000 C   0  0  1  0  0  0  0  0  0  0  0  0
   -1.4680   -4.1704    0.0000 H   0  0  0  0  0  0  0  0  0  0  0  0
   -0.9549   -0.7809    0.0000 C   0  0  0  0  0  0  0  0  0  0  0  0
   -2.2540   -0.0309    0.0000 O   0  0  0  0  0  0  0  0  0  0  0  0
    0.3441   -0.0309    0.0000 N   0  0  0  0  0  0  0  0  0  0  0  0
    1.6431   -0.7809    0.0000 H   0  0  0  0  0  0  0  0  0  0  0  0
    0.3441    1.4691    0.0000 C   0  0  1  0  0  0  0  0  0  0  0  0
    1.8213    1.2086    0.0000 H   0  0  0  0  0  0  0  0  0  0  0  0
    0.8571    2.8786    0.0000 C   0  0  0  0  0  0  0  0  0  0  0  0
   -0.6201    3.1391    0.0000 H   0  0  0  0  0  0  0  0  0  0  0  0
    0.8571    4.3786    0.0000 H   0  0  0  0  0  0  0  0  0  0  0  0
    2.3343    3.1391    0.0000 C   0  0  0  0  0  0  0  0  0  0  0  0
    3.2987    1.9891    0.0000 C   0  0  0  0  0  0  0  0  0  0  0  0
    2.7854    0.5796    0.0000 H   0  0  0  0  0  0  0  0  0  0  0  0
    4.7759    2.2496    0.0000 C   0  0  0  0  0  0  0  0  0  0  0  0
    5.7403    1.1007    0.0000 H   0  0  0  0  0  0  0  0  0  0  0  0
    5.2888    3.6601    0.0000 C   0  0  0  0  0  0  0  0  0  0  0  0
    6.7660    3.9205    0.0000 H   0  0  0  0  0  0  0  0  0  0  0  0
    4.3244    4.8101    0.0000 C   0  0  0  0  0  0  0  0  0  0  0  0
    4.8377    6.2195    0.0000 H   0  0  0  0  0  0  0  0  0  0  0  0
    2.8472    4.5496    0.0000 C   0  0  0  0  0  0  0  0  0  0  0  0
    1.8828    5.6985    0.0000 H   0  0  0  0  0  0  0  0  0  0  0  0
   -1.3706    2.4591    0.0000 C   0  0  0  0  0  0  0  0  0  0  0  0
   -2.8479    2.7196    0.0000 H   0  0  0  0  0  0  0  0  0  0  0  0
   -1.8837    1.0496    0.0000 H   0  0  0  0  0  0  0  0  0  0  0  0
   -1.3706    3.9591    0.0000 C   0  0  1  0  0  0  0  0  0  0  0  0
    0.1066    3.6986    0.0000 H   0  0  0  0  0  0  0  0  0  0  0  0
   -3.9168    5.4291    0.0000 C   0  0  2  0  0  0  0  0  0  0  0  0
   -4.8809    6.5782    0.0000 H   0  0  0  0  0  0  0  0  0  0  0  0
   -2.9526    6.5782    0.0000 C   0  0  0  0  0  0  0  0  0  0  0  0
   -1.6535    7.3282    0.0000 H   0  0  0  0  0  0  0  0  0  0  0  0
   -1.9884    5.4291    0.0000 H   0  0  0  0  0  0  0  0  0  0  0  0
   -3.4656    7.9877    0.0000 C   0  0  0  0  0  0  0  0  0  0  0  0
   -2.4958    9.1320    0.0000 C   0  0  0  0  0  0  0  0  0  0  0  0
   -1.0212    8.8570    0.0000 H   0  0  0  0  0  0  0  0  0  0  0  0
   -2.9797   10.5253    0.0000 C   0  0  0  0  0  0  0  0  0  0  0  0
   -1.9949   11.6567    0.0000 H   0  0  0  0  0  0  0  0  0  0  0  0
   -4.4945   10.8260    0.0000 C   0  0  0  0  0  0  0  0  0  0  0  0
   -5.4643    9.6817    0.0000 C   0  0  0  0  0  0  0  0  0  0  0  0
   -6.9424    9.9372    0.0000 H   0  0  0  0  0  0  0  0  0  0  0  0
   -4.9194    8.2367    0.0000 C   0  0  0  0  0  0  0  0  0  0  0  0
   -5.8740    7.0797    0.0000 H   0  0  0  0  0  0  0  0  0  0  0  0
   -4.9889   12.2421    0.0000 O   0  0  0  0  0  0  0  0  0  0  0  0
   -6.4626   12.5221    0.0000 H   0  0  0  0  0  0  0  0  0  0  0  0
   -5.6315    4.4391    0.0000 N   0  0  0  0  0  0  0  0  0  0  0  0
   -5.6315    2.9391    0.0000 H   0  0  0  0  0  0  0  0  0  0  0  0
   -6.9305    5.1891    0.0000 C   0  0  0  0  0  0  0  0  0  0  0  0
   -6.9305    6.6891    0.0000 O   0  0  0  0  0  0  0  0  0  0  0  0
   -8.2296    4.4391    0.0000 C   0  0  0  0  0  0  0  0  0  0  0  0
   -7.2654    3.2900    0.0000 H   0  0  0  0  0  0  0  0  0  0  0  0
   -9.1937    3.2900    0.0000 H   0  0  0  0  0  0  0  0  0  0  0  0
   -9.5286    5.1891    0.0000 O   0  0  0  0  0  0  0  0  0  0  0  0
  -10.8276    4.4391    0.0000 C   0  0  0  0  0  0  0  0  0  0  0  0
  -10.8161    2.9402    0.0000 C   0  0  0  0  0  0  0  0  0  0  0  0
   -9.5100    2.2025    0.0000 C   0  0  0  0  0  0  0  0  0  0  0  0
   -8.2181    2.9647    0.0000 H   0  0  0  0  0  0  0  0  0  0  0  0
  -10.4633    1.0444    0.0000 H   0  0  0  0  0  0  0  0  0  0  0  0
   -8.5350    1.0626    0.0000 H   0  0  0  0  0  0  0  0  0  0  0  0
  -12.0897    2.1858    0.0000 C   0  0  0  0  0  0  0  0  0  0  0  0
  -12.0776    0.6859    0.0000 H   0  0  0  0  0  0  0  0  0  0  0  0
  -13.3644    2.9133    0.0000 C   0  0  0  0  0  0  0  0  0  0  0  0
  -14.6485    2.1380    0.0000 H   0  0  0  0  0  0  0  0  0  0  0  0
  -13.4152    4.3996    0.0000 C   0  0  0  0  0  0  0  0  0  0  0  0
  -14.7382    5.1066    0.0000 H   0  0  0  0  0  0  0  0  0  0  0  0
  -12.1234    5.2006    0.0000 C   0  0  0  0  0  0  0  0  0  0  0  0
  -12.1412    6.7005    0.0000 C   0  0  0  0  0  0  0  0  0  0  0  0
  -13.4490    7.4351    0.0000 H   0  0  0  0  0  0  0  0  0  0  0  0
  -11.6449    8.1160    0.0000 H   0  0  0  0  0  0  0  0  0  0  0  0
  -10.6610    6.4575    0.0000 H   0  0  0  0  0  0  0  0  0  0  0  0
   -0.8576    5.3686    0.0000 O   0  0  0  0  0  0  0  0  0  0  0  0
    0.6196    5.6291    0.0000 H   0  0  0  0  0  0  0  0  0  0  0  0
    0.3441   -3.5109    0.0000 N   0  0  0  0  0  0  0  0  0  0  0  0
    1.6436   -2.7601    0.0000 C   0  0  0  0  0  0  0  0  0  0  0  0
    0.6792   -1.6112    0.0000 H   0  0  0  0  0  0  0  0  0  0  0  0
    2.6077   -1.6109    0.0000 H   0  0  0  0  0  0  0  0  0  0  0  0
    2.9426   -3.5101    0.0000 C   0  0  0  0  0  0  0  0  0  0  0  0
    3.4558   -2.1006    0.0000 H   0  0  0  0  0  0  0  0  0  0  0  0
    4.4198   -3.7709    0.0000 H   0  0  0  0  0  0  0  0  0  0  0  0
    2.9422   -5.0109    0.0000 C   0  0  0  0  0  0  0  0  0  0  0  0
    4.4194   -4.7506    0.0000 H   0  0  0  0  0  0  0  0  0  0  0  0
    3.4553   -6.4204    0.0000 H   0  0  0  0  0  0  0  0  0  0  0  0
    1.6426   -5.7617    0.0000 N   0  0  0  0  0  0  0  0  0  0  0  0
    1.6429   -7.2617    0.0000 H   0  0  0  0  0  0  0  0  0  0  0  0
    0.3436   -5.0117    0.0000 C   0  0  0  0  0  0  0  0  0  0  0  0
   -0.9555   -5.7615    0.0000 O   0  0  0  0  0  0  0  0  0  0  0  0
  1  2  1  0  0  0  0 
  1  3  1  0  0  0  0 
  1  4  1  0  0  0  0 
  1  5  1  0  0  0  0 
  5  6  1  0  0  0  0 
  5  7  1  0  0  0  0 
  7  8  1  0  0  0  0 
  7  9  1  0  0  0  0 
  7 10  1  0  0  0  0 
  5 11  1  0  0  0  0 
 11 12  1  6  0  0  0 
 11 13  1  0  0  0  0 
 13 14  2  0  0  0  0 
 13 15  1  0  0  0  0 
 15 16  1  0  0  0  0 
 17 15  1  6  0  0  0 
 17 18  1  1  0  0  0 
 17 19  1  0  0  0  0 
 19 20  1  0  0  0  0 
 19 21  1  0  0  0  0 
 19 22  1  0  0  0  0 
 22 23  2  0  0  0  0 
 23 24  1  0  0  0  0 
 23 25  1  0  0  0  0 
 25 26  1  0  0  0  0 
 25 27  2  0  0  0  0 
 27 28  1  0  0  0  0 
 27 29  1  0  0  0  0 
 29 30  1  0  0  0  0 
 29 31  2  0  0  0  0 
 22 31  1  0  0  0  0 
 31 32  1  0  0  0  0 
 17 33  1  0  0  0  0 
 33 34  1  0  0  0  0 
 33 35  1  0  0  0  0 
 33 36  1  0  0  0  0 
 36 37  1  6  0  0  0 
 36 38  1  0  0  0  0 
 38 39  1  6  0  0  0 
 38 40  1  0  0  0  0 
 40 41  1  0  0  0  0 
 40 42  1  0  0  0  0 
 40 43  1  0  0  0  0 
 43 44  2  0  0  0  0 
 44 45  1  0  0  0  0 
 44 46  1  0  0  0  0 
 46 47  1  0  0  0  0 
 46 48  2  0  0  0  0 
 48 49  1  0  0  0  0 
 49 50  1  0  0  0  0 
 49 51  2  0  0  0  0 
 43 51  1  0  0  0  0 
 51 52  1  0  0  0  0 
 48 53  1  0  0  0  0 
 53 54  1  0  0  0  0 
 38 55  1  1  0  0  0 
 55 56  1  0  0  0  0 
 55 57  1  0  0  0  0 
 57 58  2  0  0  0  0 
 57 59  1  0  0  0  0 
 59 60  1  0  0  0  0 
 59 61  1  0  0  0  0 
 59 62  1  0  0  0  0 
 62 63  1  0  0  0  0 
 63 64  2  0  0  0  0 
 64 65  1  0  0  0  0 
 65 66  1  0  0  0  0 
 65 67  1  0  0  0  0 
 65 68  1  0  0  0  0 
 64 69  1  0  0  0  0 
 69 70  1  0  0  0  0 
 69 71  2  0  0  0  0 
 71 72  1  0  0  0  0 
 71 73  1  0  0  0  0 
 73 74  1  0  0  0  0 
 73 75  2  0  0  0  0 
 63 75  1  0  0  0  0 
 75 76  1  0  0  0  0 
 76 77  1  0  0  0  0 
 76 78  1  0  0  0  0 
 76 79  1  0  0  0  0 
 36 80  1  1  0  0  0 
 80 81  1  0  0  0  0 
 11 82  1  1  0  0  0 
 82 83  1  0  0  0  0 
 83 84  1  0  0  0  0 
 83 85  1  0  0  0  0 
 83 86  1  0  0  0  0 
 86 87  1  0  0  0  0 
 86 88  1  0  0  0  0 
 86 89  1  0  0  0  0 
 89 90  1  0  0  0  0 
 89 91  1  0  0  0  0 
 89 92  1  0  0  0  0 
 92 93  1  0  0  0  0 
 92 94  1  0  0  0  0 
 82 94  1  0  0  0  0 
 94 95  2  0  0  0  0 
M  END
> <Rank>
26

> <Priority_score>
0.068

> <Reaction_type>
aromatic_hydroxylation_(para_to_carbon)

> <Parent_ID>
63

> <Parent_InChI>
InChI=1S/C37H48N4O5/c1-25(2)34(41-20-12-19-38-37(41)45)36(44)39-30(21-28-15-7-5-8-16-28)23-32(42)31(22-29-17-9-6-10-18-29)40-33(43)24-46-35-26(3)13-11-14-27(35)4/h5-11,13-18,25,30-32,34,42H,12,19-24H2,1-4H3,(H,38,45)(H,39,44)(H,40,43)

> <Parent_SMILES>
Cc1cccc(C)c1OCC(=O)N[C@@H](Cc1ccccc1)[C@@H](O)C[C@H](Cc1ccccc1)NC(=O)[C@H](C(C)C)N1CCCNC1=O

$$$$
Molecule 63_metabolite 29
  CDK     0516241031

 97 99  0  0  0  0  0  0  0  0999 V2000
   -0.4742    8.2282    0.0000 C   0  0  0  0  0  0  0  0  0  0  0  0
   -1.9514    8.4887    0.0000 H   0  0  0  0  0  0  0  0  0  0  0  0
    1.0030    8.4887    0.0000 H   0  0  0  0  0  0  0  0  0  0  0  0
   -0.4742    9.7282    0.0000 H   0  0  0  0  0  0  0  0  0  0  0  0
    0.3671    5.9166    0.0000 C   0  0  0  0  0  0  0  0  0  0  0  0
    0.3671    4.4166    0.0000 H   0  0  0  0  0  0  0  0  0  0  0  0
   -1.1101    5.6561    0.0000 C   0  0  0  0  0  0  0  0  0  0  0  0
   -1.6231    4.2466    0.0000 H   0  0  0  0  0  0  0  0  0  0  0  0
   -1.1101    7.1561    0.0000 H   0  0  0  0  0  0  0  0  0  0  0  0
   -2.5873    5.9166    0.0000 H   0  0  0  0  0  0  0  0  0  0  0  0
    1.8443    5.6561    0.0000 C   0  0  1  0  0  0  0  0  0  0  0  0
    1.8443    7.1561    0.0000 H   0  0  0  0  0  0  0  0  0  0  0  0
    1.1671    3.7955    0.0000 C   0  0  0  0  0  0  0  0  0  0  0  0
   -0.3101    3.5351    0.0000 O   0  0  0  0  0  0  0  0  0  0  0  0
    2.1313    2.6465    0.0000 N   0  0  0  0  0  0  0  0  0  0  0  0
    3.6085    2.9069    0.0000 H   0  0  0  0  0  0  0  0  0  0  0  0
    1.4541    0.7859    0.0000 C   0  0  1  0  0  0  0  0  0  0  0  0
    0.1551    1.5359    0.0000 H   0  0  0  0  0  0  0  0  0  0  0  0
    3.3439   -1.4663    0.0000 C   0  0  0  0  0  0  0  0  0  0  0  0
    3.8570   -2.8758    0.0000 H   0  0  0  0  0  0  0  0  0  0  0  0
    2.0449   -2.2163    0.0000 H   0  0  0  0  0  0  0  0  0  0  0  0
    4.8211   -1.2058    0.0000 C   0  0  0  0  0  0  0  0  0  0  0  0
    5.7855   -2.3558    0.0000 C   0  0  0  0  0  0  0  0  0  0  0  0
    5.2722   -3.7653    0.0000 H   0  0  0  0  0  0  0  0  0  0  0  0
    7.2627   -2.0954    0.0000 C   0  0  0  0  0  0  0  0  0  0  0  0
    8.2271   -3.2443    0.0000 H   0  0  0  0  0  0  0  0  0  0  0  0
    7.7756   -0.6849    0.0000 C   0  0  0  0  0  0  0  0  0  0  0  0
    9.2528   -0.4244    0.0000 H   0  0  0  0  0  0  0  0  0  0  0  0
    6.8112    0.4651    0.0000 C   0  0  0  0  0  0  0  0  0  0  0  0
    7.3245    1.8746    0.0000 H   0  0  0  0  0  0  0  0  0  0  0  0
    5.3340    0.2047    0.0000 C   0  0  0  0  0  0  0  0  0  0  0  0
    4.3696    1.3536    0.0000 H   0  0  0  0  0  0  0  0  0  0  0  0
    0.4899   -0.3632    0.0000 C   0  0  0  0  0  0  0  0  0  0  0  0
    1.7890   -1.1132    0.0000 H   0  0  0  0  0  0  0  0  0  0  0  0
   -0.0231   -1.7727    0.0000 H   0  0  0  0  0  0  0  0  0  0  0  0
   -1.4600   -0.0194    0.0000 C   0  0  1  0  0  0  0  0  0  0  0  0
   -2.7590    0.7306    0.0000 H   0  0  0  0  0  0  0  0  0  0  0  0
   -2.7327   -1.5361    0.0000 C   0  0  2  0  0  0  0  0  0  0  0  0
   -1.4337   -2.2861    0.0000 H   0  0  0  0  0  0  0  0  0  0  0  0
   -3.4099   -3.3967    0.0000 C   0  0  0  0  0  0  0  0  0  0  0  0
   -4.7089   -2.6467    0.0000 H   0  0  0  0  0  0  0  0  0  0  0  0
   -4.3741   -4.5458    0.0000 H   0  0  0  0  0  0  0  0  0  0  0  0
   -2.4457   -4.5458    0.0000 C   0  0  0  0  0  0  0  0  0  0  0  0
   -0.9678   -4.2847    0.0000 C   0  0  0  0  0  0  0  0  0  0  0  0
   -0.4550   -2.8751    0.0000 H   0  0  0  0  0  0  0  0  0  0  0  0
   -0.0036   -5.4338    0.0000 C   0  0  0  0  0  0  0  0  0  0  0  0
    1.4737   -5.1735    0.0000 H   0  0  0  0  0  0  0  0  0  0  0  0
   -0.5173   -6.8439    0.0000 C   0  0  0  0  0  0  0  0  0  0  0  0
    0.4468   -7.9930    0.0000 H   0  0  0  0  0  0  0  0  0  0  0  0
   -1.9953   -7.1050    0.0000 C   0  0  0  0  0  0  0  0  0  0  0  0
   -2.5081   -8.5146    0.0000 H   0  0  0  0  0  0  0  0  0  0  0  0
   -2.9595   -5.9560    0.0000 C   0  0  0  0  0  0  0  0  0  0  0  0
   -4.4367   -6.2162    0.0000 H   0  0  0  0  0  0  0  0  0  0  0  0
   -4.6826   -1.1923    0.0000 N   0  0  0  0  0  0  0  0  0  0  0  0
   -5.6468   -2.3414    0.0000 H   0  0  0  0  0  0  0  0  0  0  0  0
   -5.1956    0.2172    0.0000 C   0  0  0  0  0  0  0  0  0  0  0  0
   -4.2315    1.3663    0.0000 O   0  0  0  0  0  0  0  0  0  0  0  0
   -6.6729    0.4777    0.0000 C   0  0  0  0  0  0  0  0  0  0  0  0
   -8.1501    0.2172    0.0000 H   0  0  0  0  0  0  0  0  0  0  0  0
   -6.6729   -1.0223    0.0000 H   0  0  0  0  0  0  0  0  0  0  0  0
   -7.1859    1.8872    0.0000 O   0  0  0  0  0  0  0  0  0  0  0  0
   -8.6631    2.1477    0.0000 C   0  0  0  0  0  0  0  0  0  0  0  0
   -9.6177    0.9921    0.0000 C   0  0  0  0  0  0  0  0  0  0  0  0
   -9.0914   -0.4126    0.0000 C   0  0  0  0  0  0  0  0  0  0  0  0
   -7.6118   -0.6591    0.0000 H   0  0  0  0  0  0  0  0  0  0  0  0
  -10.5661   -0.6870    0.0000 H   0  0  0  0  0  0  0  0  0  0  0  0
   -9.0773   -1.9125    0.0000 H   0  0  0  0  0  0  0  0  0  0  0  0
  -11.0783    1.2329    0.0000 C   0  0  0  0  0  0  0  0  0  0  0  0
  -12.0332    0.0761    0.0000 H   0  0  0  0  0  0  0  0  0  0  0  0
  -11.5871    2.6095    0.0000 C   0  0  0  0  0  0  0  0  0  0  0  0
  -13.0691    2.8410    0.0000 H   0  0  0  0  0  0  0  0  0  0  0  0
  -10.6707    3.7808    0.0000 C   0  0  0  0  0  0  0  0  0  0  0  0
  -11.2297    5.1727    0.0000 H   0  0  0  0  0  0  0  0  0  0  0  0
   -9.1662    3.5640    0.0000 C   0  0  0  0  0  0  0  0  0  0  0  0
   -8.2157    4.7244    0.0000 C   0  0  0  0  0  0  0  0  0  0  0  0
   -8.7454    6.1277    0.0000 H   0  0  0  0  0  0  0  0  0  0  0  0
   -6.9257    5.4897    0.0000 H   0  0  0  0  0  0  0  0  0  0  0  0
   -7.2380    3.5868    0.0000 H   0  0  0  0  0  0  0  0  0  0  0  0
   -0.9469    1.3902    0.0000 O   0  0  0  0  0  0  0  0  0  0  0  0
   -1.9111    2.5392    0.0000 H   0  0  0  0  0  0  0  0  0  0  0  0
    4.2670    6.0833    0.0000 N   0  0  0  0  0  0  0  0  0  0  0  0
    5.2312    4.9342    0.0000 H   0  0  0  0  0  0  0  0  0  0  0  0
    4.7800    7.4928    0.0000 C   0  0  0  0  0  0  0  0  0  0  0  0
    3.3028    7.7533    0.0000 H   0  0  0  0  0  0  0  0  0  0  0  0
    4.7800    8.9928    0.0000 H   0  0  0  0  0  0  0  0  0  0  0  0
    7.2026    7.9200    0.0000 C   0  0  0  0  0  0  0  0  0  0  0  0
    8.6798    7.6595    0.0000 H   0  0  0  0  0  0  0  0  0  0  0  0
    7.2026    6.4200    0.0000 H   0  0  0  0  0  0  0  0  0  0  0  0
    7.7157    9.3295    0.0000 C   0  0  0  0  0  0  0  0  0  0  0  0
    6.2385    9.5900    0.0000 H   0  0  0  0  0  0  0  0  0  0  0  0
    7.7157   10.8295    0.0000 H   0  0  0  0  0  0  0  0  0  0  0  0
    9.1929    9.5900    0.0000 N   0  0  0  0  0  0  0  0  0  0  0  0
   10.1571    8.4410    0.0000 H   0  0  0  0  0  0  0  0  0  0  0  0
    9.7059   10.9996    0.0000 C   0  0  0  0  0  0  0  0  0  0  0  0
    8.7417   12.1486    0.0000 O   0  0  0  0  0  0  0  0  0  0  0  0
   11.1831   11.2600    0.0000 O   0  0  0  0  0  0  0  0  0  0  0  0
   11.6961   12.6696    0.0000 H   0  0  0  0  0  0  0  0  0  0  0  0
  1  2  1  0  0  0  0 
  1  3  1  0  0  0  0 
  1  4  1  0  0  0  0 
  1  5  1  0  0  0  0 
  5  6  1  0  0  0  0 
  5  7  1  0  0  0  0 
  7  8  1  0  0  0  0 
  7  9  1  0  0  0  0 
  7 10  1  0  0  0  0 
  5 11  1  0  0  0  0 
 11 12  1  1  0  0  0 
 11 13  1  0  0  0  0 
 13 14  2  0  0  0  0 
 13 15  1  0  0  0  0 
 15 16  1  0  0  0  0 
 17 15  1  1  0  0  0 
 17 18  1  6  0  0  0 
 17 19  1  0  0  0  0 
 19 20  1  0  0  0  0 
 19 21  1  0  0  0  0 
 19 22  1  0  0  0  0 
 22 23  2  0  0  0  0 
 23 24  1  0  0  0  0 
 23 25  1  0  0  0  0 
 25 26  1  0  0  0  0 
 25 27  2  0  0  0  0 
 27 28  1  0  0  0  0 
 27 29  1  0  0  0  0 
 29 30  1  0  0  0  0 
 29 31  2  0  0  0  0 
 22 31  1  0  0  0  0 
 31 32  1  0  0  0  0 
 17 33  1  0  0  0  0 
 33 34  1  0  0  0  0 
 33 35  1  0  0  0  0 
 33 36  1  0  0  0  0 
 36 37  1  6  0  0  0 
 36 38  1  0  0  0  0 
 38 39  1  1  0  0  0 
 38 40  1  6  0  0  0 
 40 41  1  0  0  0  0 
 40 42  1  0  0  0  0 
 40 43  1  0  0  0  0 
 43 44  2  0  0  0  0 
 44 45  1  0  0  0  0 
 44 46  1  0  0  0  0 
 46 47  1  0  0  0  0 
 46 48  2  0  0  0  0 
 48 49  1  0  0  0  0 
 48 50  1  0  0  0  0 
 50 51  1  0  0  0  0 
 50 52  2  0  0  0  0 
 43 52  1  0  0  0  0 
 52 53  1  0  0  0  0 
 38 54  1  0  0  0  0 
 54 55  1  0  0  0  0 
 54 56  1  0  0  0  0 
 56 57  2  0  0  0  0 
 56 58  1  0  0  0  0 
 58 59  1  0  0  0  0 
 58 60  1  0  0  0  0 
 58 61  1  0  0  0  0 
 61 62  1  0  0  0  0 
 62 63  2  0  0  0  0 
 63 64  1  0  0  0  0 
 64 65  1  0  0  0  0 
 64 66  1  0  0  0  0 
 64 67  1  0  0  0  0 
 63 68  1  0  0  0  0 
 68 69  1  0  0  0  0 
 68 70  2  0  0  0  0 
 70 71  1  0  0  0  0 
 70 72  1  0  0  0  0 
 72 73  1  0  0  0  0 
 72 74  2  0  0  0  0 
 62 74  1  0  0  0  0 
 74 75  1  0  0  0  0 
 75 76  1  0  0  0  0 
 75 77  1  0  0  0  0 
 75 78  1  0  0  0  0 
 36 79  1  1  0  0  0 
 79 80  1  0  0  0  0 
 11 81  1  6  0  0  0 
 81 82  1  0  0  0  0 
 81 83  1  0  0  0  0 
 83 84  1  0  0  0  0 
 83 85  1  0  0  0  0 
 83 86  1  0  0  0  0 
 86 87  1  0  0  0  0 
 86 88  1  0  0  0  0 
 86 89  1  0  0  0  0 
 89 90  1  0  0  0  0 
 89 91  1  0  0  0  0 
 89 92  1  0  0  0  0 
 92 93  1  0  0  0  0 
 92 94  1  0  0  0  0 
 94 95  2  0  0  0  0 
 94 96  1  0  0  0  0 
 96 97  1  0  0  0  0 
M  END
> <Rank>
29

> <Priority_score>
0.064

> <Reaction_type>
hydrolysis_(urea_or_carbonate)

> <Parent_ID>
63

> <Parent_InChI>
InChI=1S/C37H48N4O5/c1-25(2)34(41-20-12-19-38-37(41)45)36(44)39-30(21-28-15-7-5-8-16-28)23-32(42)31(22-29-17-9-6-10-18-29)40-33(43)24-46-35-26(3)13-11-14-27(35)4/h5-11,13-18,25,30-32,34,42H,12,19-24H2,1-4H3,(H,38,45)(H,39,44)(H,40,43)

> <Parent_SMILES>
Cc1cccc(C)c1OCC(=O)N[C@@H](Cc1ccccc1)[C@@H](O)C[C@H](Cc1ccccc1)NC(=O)[C@H](C(C)C)N1CCCNC1=O

$$$$
Molecule 63_metabolite 30
  CDK     0516241031

 80 82  0  0  0  0  0  0  0  0999 V2000
   -7.0396   -1.3563    0.0000 C   0  0  0  0  0  0  0  0  0  0  0  0
   -8.5168   -1.6167    0.0000 H   0  0  0  0  0  0  0  0  0  0  0  0
   -7.0396   -2.8563    0.0000 H   0  0  0  0  0  0  0  0  0  0  0  0
   -5.5624   -1.6167    0.0000 H   0  0  0  0  0  0  0  0  0  0  0  0
   -6.5266    0.0533    0.0000 C   0  0  0  0  0  0  0  0  0  0  0  0
   -6.5266    1.5533    0.0000 H   0  0  0  0  0  0  0  0  0  0  0  0
   -8.0038    0.3137    0.0000 C   0  0  0  0  0  0  0  0  0  0  0  0
   -8.9680   -0.8353    0.0000 H   0  0  0  0  0  0  0  0  0  0  0  0
   -7.4908    1.7233    0.0000 H   0  0  0  0  0  0  0  0  0  0  0  0
   -9.3028    1.0637    0.0000 H   0  0  0  0  0  0  0  0  0  0  0  0
   -5.0494    0.3137    0.0000 C   0  0  0  0  0  0  0  0  0  0  0  0
   -4.0852   -0.8353    0.0000 O   0  0  0  0  0  0  0  0  0  0  0  0
   -4.5364    1.7233    0.0000 C   0  0  0  0  0  0  0  0  0  0  0  0
   -5.5005    2.8724    0.0000 O   0  0  0  0  0  0  0  0  0  0  0  0
   -3.0591    1.9838    0.0000 N   0  0  0  0  0  0  0  0  0  0  0  0
   -2.0950    0.8347    0.0000 H   0  0  0  0  0  0  0  0  0  0  0  0
   -2.3819    3.8444    0.0000 C   0  0  1  0  0  0  0  0  0  0  0  0
   -3.8592    4.1048    0.0000 H   0  0  0  0  0  0  0  0  0  0  0  0
   -2.3819    5.8244    0.0000 C   0  0  0  0  0  0  0  0  0  0  0  0
   -1.8689    7.2339    0.0000 H   0  0  0  0  0  0  0  0  0  0  0  0
   -0.9047    5.5639    0.0000 H   0  0  0  0  0  0  0  0  0  0  0  0
   -3.6810    6.5744    0.0000 C   0  0  0  0  0  0  0  0  0  0  0  0
   -3.6805    8.0752    0.0000 C   0  0  0  0  0  0  0  0  0  0  0  0
   -2.3813    8.8250    0.0000 H   0  0  0  0  0  0  0  0  0  0  0  0
   -4.9795    8.8252    0.0000 C   0  0  0  0  0  0  0  0  0  0  0  0
   -4.9798   10.3252    0.0000 H   0  0  0  0  0  0  0  0  0  0  0  0
   -6.2791    8.0744    0.0000 C   0  0  0  0  0  0  0  0  0  0  0  0
   -7.5781    8.8244    0.0000 H   0  0  0  0  0  0  0  0  0  0  0  0
   -6.2795    6.5735    0.0000 C   0  0  0  0  0  0  0  0  0  0  0  0
   -7.5787    5.8237    0.0000 H   0  0  0  0  0  0  0  0  0  0  0  0
   -4.9805    5.8235    0.0000 C   0  0  0  0  0  0  0  0  0  0  0  0
   -4.9803    4.3235    0.0000 H   0  0  0  0  0  0  0  0  0  0  0  0
   -0.6672    2.8544    0.0000 C   0  0  0  0  0  0  0  0  0  0  0  0
   -1.6314    1.7053    0.0000 H   0  0  0  0  0  0  0  0  0  0  0  0
    0.2970    1.7053    0.0000 H   0  0  0  0  0  0  0  0  0  0  0  0
    0.6318    3.6044    0.0000 C   0  0  1  0  0  0  0  0  0  0  0  0
    1.5960    4.7534    0.0000 H   0  0  0  0  0  0  0  0  0  0  0  0
    2.3466    2.6144    0.0000 C   0  0  2  0  0  0  0  0  0  0  0  0
    1.3824    1.4653    0.0000 H   0  0  0  0  0  0  0  0  0  0  0  0
    3.6193    1.0976    0.0000 C   0  0  0  0  0  0  0  0  0  0  0  0
    4.5835    2.2466    0.0000 H   0  0  0  0  0  0  0  0  0  0  0  0
    4.9183    0.3476    0.0000 H   0  0  0  0  0  0  0  0  0  0  0  0
    3.1062   -0.3120    0.0000 C   0  0  0  0  0  0  0  0  0  0  0  0
    1.6281   -0.5721    0.0000 C   0  0  0  0  0  0  0  0  0  0  0  0
    0.6641    0.5771    0.0000 H   0  0  0  0  0  0  0  0  0  0  0  0
    1.1151   -1.9816    0.0000 C   0  0  0  0  0  0  0  0  0  0  0  0
   -0.3621   -2.2423    0.0000 H   0  0  0  0  0  0  0  0  0  0  0  0
    2.0802   -3.1310    0.0000 C   0  0  0  0  0  0  0  0  0  0  0  0
    1.5672   -4.5406    0.0000 H   0  0  0  0  0  0  0  0  0  0  0  0
    3.5583   -2.8709    0.0000 C   0  0  0  0  0  0  0  0  0  0  0  0
    4.5223   -4.0201    0.0000 H   0  0  0  0  0  0  0  0  0  0  0  0
    4.0713   -1.4614    0.0000 C   0  0  0  0  0  0  0  0  0  0  0  0
    5.5485   -1.2006    0.0000 H   0  0  0  0  0  0  0  0  0  0  0  0
    4.0613    3.6044    0.0000 N   0  0  0  0  0  0  0  0  0  0  0  0
    5.3603    2.8544    0.0000 H   0  0  0  0  0  0  0  0  0  0  0  0
    4.0613    5.1044    0.0000 C   0  0  0  0  0  0  0  0  0  0  0  0
    2.7622    5.8544    0.0000 O   0  0  0  0  0  0  0  0  0  0  0  0
    5.3603    5.8544    0.0000 C   0  0  0  0  0  0  0  0  0  0  0  0
    6.8375    6.1148    0.0000 H   0  0  0  0  0  0  0  0  0  0  0  0
    5.8734    4.4448    0.0000 H   0  0  0  0  0  0  0  0  0  0  0  0
    5.3603    7.3544    0.0000 O   0  0  0  0  0  0  0  0  0  0  0  0
    6.6594    8.1044    0.0000 C   0  0  0  0  0  0  0  0  0  0  0  0
    7.9517    7.3449    0.0000 C   0  0  0  0  0  0  0  0  0  0  0  0
    7.9375    5.8450    0.0000 C   0  0  0  0  0  0  0  0  0  0  0  0
    6.6315    5.1072    0.0000 H   0  0  0  0  0  0  0  0  0  0  0  0
    9.4171    6.0915    0.0000 H   0  0  0  0  0  0  0  0  0  0  0  0
    8.4372    4.4306    0.0000 H   0  0  0  0  0  0  0  0  0  0  0  0
    9.2418    8.0707    0.0000 C   0  0  0  0  0  0  0  0  0  0  0  0
   10.5347    7.3103    0.0000 H   0  0  0  0  0  0  0  0  0  0  0  0
    9.2491    9.5384    0.0000 C   0  0  0  0  0  0  0  0  0  0  0  0
   10.5626   10.2628    0.0000 H   0  0  0  0  0  0  0  0  0  0  0  0
    7.9873   10.3256    0.0000 C   0  0  0  0  0  0  0  0  0  0  0  0
    8.0365   11.8248    0.0000 H   0  0  0  0  0  0  0  0  0  0  0  0
    6.6478    9.6073    0.0000 C   0  0  0  0  0  0  0  0  0  0  0  0
    5.3577   10.3726    0.0000 C   0  0  0  0  0  0  0  0  0  0  0  0
    5.3755   11.8725    0.0000 H   0  0  0  0  0  0  0  0  0  0  0  0
    3.8837   10.6505    0.0000 H   0  0  0  0  0  0  0  0  0  0  0  0
    4.8280    8.9692    0.0000 H   0  0  0  0  0  0  0  0  0  0  0  0
   -0.3324    4.7534    0.0000 O   0  0  0  0  0  0  0  0  0  0  0  0
    0.1807    6.1630    0.0000 H   0  0  0  0  0  0  0  0  0  0  0  0
  1  2  1  0  0  0  0 
  1  3  1  0  0  0  0 
  1  4  1  0  0  0  0 
  1  5  1  0  0  0  0 
  5  6  1  0  0  0  0 
  5  7  1  0  0  0  0 
  7  8  1  0  0  0  0 
  7  9  1  0  0  0  0 
  7 10  1  0  0  0  0 
  5 11  1  0  0  0  0 
 11 12  2  0  0  0  0 
 11 13  1  0  0  0  0 
 13 14  2  0  0  0  0 
 13 15  1  0  0  0  0 
 15 16  1  0  0  0  0 
 17 15  1  1  0  0  0 
 17 18  1  6  0  0  0 
 17 19  1  0  0  0  0 
 19 20  1  0  0  0  0 
 19 21  1  0  0  0  0 
 19 22  1  0  0  0  0 
 22 23  2  0  0  0  0 
 23 24  1  0  0  0  0 
 23 25  1  0  0  0  0 
 25 26  1  0  0  0  0 
 25 27  2  0  0  0  0 
 27 28  1  0  0  0  0 
 27 29  1  0  0  0  0 
 29 30  1  0  0  0  0 
 29 31  2  0  0  0  0 
 22 31  1  0  0  0  0 
 31 32  1  0  0  0  0 
 17 33  1  0  0  0  0 
 33 34  1  0  0  0  0 
 33 35  1  0  0  0  0 
 33 36  1  0  0  0  0 
 36 37  1  1  0  0  0 
 36 38  1  0  0  0  0 
 38 39  1  6  0  0  0 
 38 40  1  1  0  0  0 
 40 41  1  0  0  0  0 
 40 42  1  0  0  0  0 
 40 43  1  0  0  0  0 
 43 44  2  0  0  0  0 
 44 45  1  0  0  0  0 
 44 46  1  0  0  0  0 
 46 47  1  0  0  0  0 
 46 48  2  0  0  0  0 
 48 49  1  0  0  0  0 
 48 50  1  0  0  0  0 
 50 51  1  0  0  0  0 
 50 52  2  0  0  0  0 
 43 52  1  0  0  0  0 
 52 53  1  0  0  0  0 
 38 54  1  0  0  0  0 
 54 55  1  0  0  0  0 
 54 56  1  0  0  0  0 
 56 57  2  0  0  0  0 
 56 58  1  0  0  0  0 
 58 59  1  0  0  0  0 
 58 60  1  0  0  0  0 
 58 61  1  0  0  0  0 
 61 62  1  0  0  0  0 
 62 63  2  0  0  0  0 
 63 64  1  0  0  0  0 
 64 65  1  0  0  0  0 
 64 66  1  0  0  0  0 
 64 67  1  0  0  0  0 
 63 68  1  0  0  0  0 
 68 69  1  0  0  0  0 
 68 70  2  0  0  0  0 
 70 71  1  0  0  0  0 
 70 72  1  0  0  0  0 
 72 73  1  0  0  0  0 
 72 74  2  0  0  0  0 
 62 74  1  0  0  0  0 
 74 75  1  0  0  0  0 
 75 76  1  0  0  0  0 
 75 77  1  0  0  0  0 
 75 78  1  0  0  0  0 
 36 79  1  6  0  0  0 
 79 80  1  0  0  0  0 
M  END
> <Rank>
29

> <Priority_score>
0.064

> <Reaction_type>
N-dealkylation

> <Parent_ID>
63

> <Parent_InChI>
InChI=1S/C37H48N4O5/c1-25(2)34(41-20-12-19-38-37(41)45)36(44)39-30(21-28-15-7-5-8-16-28)23-32(42)31(22-29-17-9-6-10-18-29)40-33(43)24-46-35-26(3)13-11-14-27(35)4/h5-11,13-18,25,30-32,34,42H,12,19-24H2,1-4H3,(H,38,45)(H,39,44)(H,40,43)

> <Parent_SMILES>
Cc1cccc(C)c1OCC(=O)N[C@@H](Cc1ccccc1)[C@@H](O)C[C@H](Cc1ccccc1)NC(=O)[C@H](C(C)C)N1CCCNC1=O

$$$$
Molecule 63_metabolite 31
  CDK     0516241031

 95 98  0  0  0  0  0  0  0  0999 V2000
   -9.2078   10.2524    0.0000 C   0  0  0  0  0  0  0  0  0  0  0  0
   -8.9473   11.7296    0.0000 H   0  0  0  0  0  0  0  0  0  0  0  0
  -10.6173   10.7655    0.0000 H   0  0  0  0  0  0  0  0  0  0  0  0
   -9.9578    8.9534    0.0000 H   0  0  0  0  0  0  0  0  0  0  0  0
   -7.6910    8.9797    0.0000 C   0  0  0  0  0  0  0  0  0  0  0  0
   -6.2815    8.4667    0.0000 H   0  0  0  0  0  0  0  0  0  0  0  0
   -6.9410   10.2788    0.0000 C   0  0  0  0  0  0  0  0  0  0  0  0
   -5.4410   10.2788    0.0000 H   0  0  0  0  0  0  0  0  0  0  0  0
   -8.3506   10.7918    0.0000 H   0  0  0  0  0  0  0  0  0  0  0  0
   -6.6806   11.7560    0.0000 H   0  0  0  0  0  0  0  0  0  0  0  0
   -7.9515    7.5025    0.0000 C   0  0  1  0  0  0  0  0  0  0  0  0
   -5.9715    7.5025    0.0000 C   0  0  0  0  0  0  0  0  0  0  0  0
   -5.2215    8.8015    0.0000 O   0  0  0  0  0  0  0  0  0  0  0  0
   -4.9815    5.7878    0.0000 N   0  0  0  0  0  0  0  0  0  0  0  0
   -5.7315    4.4887    0.0000 H   0  0  0  0  0  0  0  0  0  0  0  0
   -3.0015    5.7878    0.0000 C   0  0  1  0  0  0  0  0  0  0  0  0
   -3.2620    7.2650    0.0000 H   0  0  0  0  0  0  0  0  0  0  0  0
   -1.5920    6.3008    0.0000 C   0  0  0  0  0  0  0  0  0  0  0  0
   -1.3315    4.8236    0.0000 H   0  0  0  0  0  0  0  0  0  0  0  0
   -0.0920    6.3008    0.0000 H   0  0  0  0  0  0  0  0  0  0  0  0
   -1.3315    7.7780    0.0000 C   0  0  0  0  0  0  0  0  0  0  0  0
   -2.4815    8.7424    0.0000 C   0  0  0  0  0  0  0  0  0  0  0  0
   -3.8910    8.2291    0.0000 H   0  0  0  0  0  0  0  0  0  0  0  0
   -2.2210   10.2196    0.0000 C   0  0  0  0  0  0  0  0  0  0  0  0
   -3.3699   11.1839    0.0000 H   0  0  0  0  0  0  0  0  0  0  0  0
   -0.8106   10.7324    0.0000 C   0  0  0  0  0  0  0  0  0  0  0  0
   -0.5501   12.2096    0.0000 H   0  0  0  0  0  0  0  0  0  0  0  0
    0.3395    9.7681    0.0000 C   0  0  0  0  0  0  0  0  0  0  0  0
    1.7489   10.2813    0.0000 H   0  0  0  0  0  0  0  0  0  0  0  0
    0.0790    8.2909    0.0000 C   0  0  0  0  0  0  0  0  0  0  0  0
    1.2279    7.3265    0.0000 H   0  0  0  0  0  0  0  0  0  0  0  0
   -2.0115    4.0730    0.0000 C   0  0  0  0  0  0  0  0  0  0  0  0
   -1.7510    2.5958    0.0000 H   0  0  0  0  0  0  0  0  0  0  0  0
   -3.4210    3.5600    0.0000 H   0  0  0  0  0  0  0  0  0  0  0  0
   -0.5115    4.0730    0.0000 C   0  0  1  0  0  0  0  0  0  0  0  0
   -0.7720    5.5503    0.0000 H   0  0  0  0  0  0  0  0  0  0  0  0
    0.4785    2.3583    0.0000 C   0  0  2  0  0  0  0  0  0  0  0  0
    0.7390    0.8811    0.0000 H   0  0  0  0  0  0  0  0  0  0  0  0
   -0.9310    1.8453    0.0000 C   0  0  0  0  0  0  0  0  0  0  0  0
   -2.4310    1.8453    0.0000 H   0  0  0  0  0  0  0  0  0  0  0  0
   -1.1915    3.3225    0.0000 H   0  0  0  0  0  0  0  0  0  0  0  0
   -1.1915    0.3681    0.0000 C   0  0  0  0  0  0  0  0  0  0  0  0
   -2.6020   -0.1448    0.0000 C   0  0  0  0  0  0  0  0  0  0  0  0
   -3.7509    0.8196    0.0000 H   0  0  0  0  0  0  0  0  0  0  0  0
   -2.8625   -1.6220    0.0000 C   0  0  0  0  0  0  0  0  0  0  0  0
   -4.2719   -2.1353    0.0000 H   0  0  0  0  0  0  0  0  0  0  0  0
   -1.7125   -2.5864    0.0000 C   0  0  0  0  0  0  0  0  0  0  0  0
   -1.9729   -4.0636    0.0000 H   0  0  0  0  0  0  0  0  0  0  0  0
   -0.3020   -2.0735    0.0000 C   0  0  0  0  0  0  0  0  0  0  0  0
    0.8469   -3.0379    0.0000 H   0  0  0  0  0  0  0  0  0  0  0  0
   -0.0415   -0.5963    0.0000 C   0  0  0  0  0  0  0  0  0  0  0  0
    1.3680   -0.0830    0.0000 H   0  0  0  0  0  0  0  0  0  0  0  0
    2.4585    2.3583    0.0000 N   0  0  0  0  0  0  0  0  0  0  0  0
    3.2085    3.6573    0.0000 H   0  0  0  0  0  0  0  0  0  0  0  0
    3.2085    1.0593    0.0000 C   0  0  0  0  0  0  0  0  0  0  0  0
    2.4585   -0.2398    0.0000 O   0  0  0  0  0  0  0  0  0  0  0  0
    4.7085    1.0593    0.0000 C   0  0  0  0  0  0  0  0  0  0  0  0
    4.4480    2.5365    0.0000 H   0  0  0  0  0  0  0  0  0  0  0  0
    6.1180    1.5723    0.0000 H   0  0  0  0  0  0  0  0  0  0  0  0
    5.4585   -0.2398    0.0000 O   0  0  0  0  0  0  0  0  0  0  0  0
    6.9585   -0.2398    0.0000 C   0  0  0  0  0  0  0  0  0  0  0  0
    7.6979    1.0641    0.0000 C   0  0  0  0  0  0  0  0  0  0  0  0
    6.9357    2.3560    0.0000 C   0  0  0  0  0  0  0  0  0  0  0  0
    5.4358    2.3419    0.0000 H   0  0  0  0  0  0  0  0  0  0  0  0
    8.3403    2.8823    0.0000 H   0  0  0  0  0  0  0  0  0  0  0  0
    6.6613    3.8307    0.0000 H   0  0  0  0  0  0  0  0  0  0  0  0
    9.1781    1.0806    0.0000 C   0  0  0  0  0  0  0  0  0  0  0  0
    9.9176    2.3856    0.0000 H   0  0  0  0  0  0  0  0  0  0  0  0
    9.9183   -0.1868    0.0000 C   0  0  0  0  0  0  0  0  0  0  0  0
   11.4180   -0.1574    0.0000 H   0  0  0  0  0  0  0  0  0  0  0  0
    9.2192   -1.4994    0.0000 C   0  0  0  0  0  0  0  0  0  0  0  0
   10.0114   -2.7732    0.0000 H   0  0  0  0  0  0  0  0  0  0  0  0
    7.6999   -1.5471    0.0000 C   0  0  0  0  0  0  0  0  0  0  0  0
    6.9653   -2.8550    0.0000 C   0  0  0  0  0  0  0  0  0  0  0  0
    7.7307   -4.1450    0.0000 H   0  0  0  0  0  0  0  0  0  0  0  0
    5.8278   -3.8327    0.0000 H   0  0  0  0  0  0  0  0  0  0  0  0
    5.8049   -1.9045    0.0000 H   0  0  0  0  0  0  0  0  0  0  0  0
    0.8980    4.5861    0.0000 O   0  0  0  0  0  0  0  0  0  0  0  0
    1.1585    6.0633    0.0000 H   0  0  0  0  0  0  0  0  0  0  0  0
   -9.4215    4.9564    0.0000 N   0  0  0  0  0  0  0  0  0  0  0  0
   -8.6707    3.6569    0.0000 C   0  0  0  0  0  0  0  0  0  0  0  0
   -7.5218    4.6213    0.0000 H   0  0  0  0  0  0  0  0  0  0  0  0
   -7.5215    2.6928    0.0000 H   0  0  0  0  0  0  0  0  0  0  0  0
   -9.4207    2.3578    0.0000 C   0  0  0  0  0  0  0  0  0  0  0  0
   -8.0112    1.8446    0.0000 H   0  0  0  0  0  0  0  0  0  0  0  0
   -9.6815    0.8807    0.0000 H   0  0  0  0  0  0  0  0  0  0  0  0
  -10.9215    2.3583    0.0000 C   0  0  0  0  0  0  0  0  0  0  0  0
  -10.6612    0.8811    0.0000 H   0  0  0  0  0  0  0  0  0  0  0  0
  -12.3310    1.8451    0.0000 H   0  0  0  0  0  0  0  0  0  0  0  0
  -11.6723    3.6578    0.0000 N   0  0  0  0  0  0  0  0  0  0  0  0
  -13.1723    3.6576    0.0000 H   0  0  0  0  0  0  0  0  0  0  0  0
  -10.9223    4.9569    0.0000 C   0  0  0  0  0  0  0  0  0  0  0  0
  -11.6721    6.2560    0.0000 O   0  0  0  0  0  0  0  0  0  0  0  0
   -9.3610    8.0155    0.0000 O   0  0  0  0  0  0  0  0  0  0  0  0
  -10.5101    7.0513    0.0000 H   0  0  0  0  0  0  0  0  0  0  0  0
  1  2  1  0  0  0  0 
  1  3  1  0  0  0  0 
  1  4  1  0  0  0  0 
  1  5  1  0  0  0  0 
  5  6  1  0  0  0  0 
  5  7  1  0  0  0  0 
  7  8  1  0  0  0  0 
  7  9  1  0  0  0  0 
  7 10  1  0  0  0  0 
  5 11  1  0  0  0  0 
 11 12  1  0  0  0  0 
 12 13  2  0  0  0  0 
 12 14  1  0  0  0  0 
 14 15  1  0  0  0  0 
 16 14  1  1  0  0  0 
 16 17  1  6  0  0  0 
 16 18  1  0  0  0  0 
 18 19  1  0  0  0  0 
 18 20  1  0  0  0  0 
 18 21  1  0  0  0  0 
 21 22  2  0  0  0  0 
 22 23  1  0  0  0  0 
 22 24  1  0  0  0  0 
 24 25  1  0  0  0  0 
 24 26  2  0  0  0  0 
 26 27  1  0  0  0  0 
 26 28  1  0  0  0  0 
 28 29  1  0  0  0  0 
 28 30  2  0  0  0  0 
 21 30  1  0  0  0  0 
 30 31  1  0  0  0  0 
 16 32  1  0  0  0  0 
 32 33  1  0  0  0  0 
 32 34  1  0  0  0  0 
 32 35  1  0  0  0  0 
 35 36  1  1  0  0  0 
 35 37  1  0  0  0  0 
 37 38  1  6  0  0  0 
 37 39  1  0  0  0  0 
 39 40  1  0  0  0  0 
 39 41  1  0  0  0  0 
 39 42  1  0  0  0  0 
 42 43  2  0  0  0  0 
 43 44  1  0  0  0  0 
 43 45  1  0  0  0  0 
 45 46  1  0  0  0  0 
 45 47  2  0  0  0  0 
 47 48  1  0  0  0  0 
 47 49  1  0  0  0  0 
 49 50  1  0  0  0  0 
 49 51  2  0  0  0  0 
 42 51  1  0  0  0  0 
 51 52  1  0  0  0  0 
 37 53  1  1  0  0  0 
 53 54  1  0  0  0  0 
 53 55  1  0  0  0  0 
 55 56  2  0  0  0  0 
 55 57  1  0  0  0  0 
 57 58  1  0  0  0  0 
 57 59  1  0  0  0  0 
 57 60  1  0  0  0  0 
 60 61  1  0  0  0  0 
 61 62  2  0  0  0  0 
 62 63  1  0  0  0  0 
 63 64  1  0  0  0  0 
 63 65  1  0  0  0  0 
 63 66  1  0  0  0  0 
 62 67  1  0  0  0  0 
 67 68  1  0  0  0  0 
 67 69  2  0  0  0  0 
 69 70  1  0  0  0  0 
 69 71  1  0  0  0  0 
 71 72  1  0  0  0  0 
 71 73  2  0  0  0  0 
 61 73  1  0  0  0  0 
 73 74  1  0  0  0  0 
 74 75  1  0  0  0  0 
 74 76  1  0  0  0  0 
 74 77  1  0  0  0  0 
 35 78  1  6  0  0  0 
 78 79  1  0  0  0  0 
 11 80  1  1  0  0  0 
 80 81  1  0  0  0  0 
 81 82  1  0  0  0  0 
 81 83  1  0  0  0  0 
 81 84  1  0  0  0  0 
 84 85  1  0  0  0  0 
 84 86  1  0  0  0  0 
 84 87  1  0  0  0  0 
 87 88  1  0  0  0  0 
 87 89  1  0  0  0  0 
 87 90  1  0  0  0  0 
 90 91  1  0  0  0  0 
 90 92  1  0  0  0  0 
 80 92  1  0  0  0  0 
 92 93  2  0  0  0  0 
 11 94  1  6  0  0  0 
 94 95  1  0  0  0  0 
M  END
> <Rank>
29

> <Priority_score>
0.064

> <Reaction_type>
aliphatic_hydroxylation_(tert_carbon_next_to_SP2)

> <Parent_ID>
63

> <Parent_InChI>
InChI=1S/C37H48N4O5/c1-25(2)34(41-20-12-19-38-37(41)45)36(44)39-30(21-28-15-7-5-8-16-28)23-32(42)31(22-29-17-9-6-10-18-29)40-33(43)24-46-35-26(3)13-11-14-27(35)4/h5-11,13-18,25,30-32,34,42H,12,19-24H2,1-4H3,(H,38,45)(H,39,44)(H,40,43)

> <Parent_SMILES>
Cc1cccc(C)c1OCC(=O)N[C@@H](Cc1ccccc1)[C@@H](O)C[C@H](Cc1ccccc1)NC(=O)[C@H](C(C)C)N1CCCNC1=O

$$$$
Molecule 63_metabolite 32
  CDK     0516241031

 15 15  0  0  0  0  0  0  0  0999 V2000
   -0.2852    1.6867    0.0000 C   0  0  0  0  0  0  0  0  0  0  0  0
    0.6789    2.8359    0.0000 H   0  0  0  0  0  0  0  0  0  0  0  0
   -1.2496    2.8356    0.0000 H   0  0  0  0  0  0  0  0  0  0  0  0
    1.0139    0.9367    0.0000 C   0  0  0  0  0  0  0  0  0  0  0  0
    2.4910    0.6760    0.0000 H   0  0  0  0  0  0  0  0  0  0  0  0
    1.5270    2.3462    0.0000 H   0  0  0  0  0  0  0  0  0  0  0  0
    1.0134   -0.5641    0.0000 N   0  0  0  0  0  0  0  0  0  0  0  0
    2.3124   -1.3141    0.0000 H   0  0  0  0  0  0  0  0  0  0  0  0
   -0.2861   -1.3149    0.0000 C   0  0  0  0  0  0  0  0  0  0  0  0
   -0.2859   -2.8149    0.0000 O   0  0  0  0  0  0  0  0  0  0  0  0
   -1.5852   -0.5649    0.0000 N   0  0  0  0  0  0  0  0  0  0  0  0
   -2.8843   -1.3147    0.0000 H   0  0  0  0  0  0  0  0  0  0  0  0
   -1.5847    0.9359    0.0000 C   0  0  0  0  0  0  0  0  0  0  0  0
   -2.0979    2.3454    0.0000 H   0  0  0  0  0  0  0  0  0  0  0  0
   -3.0619    0.6756    0.0000 H   0  0  0  0  0  0  0  0  0  0  0  0
  1  2  1  0  0  0  0 
  1  3  1  0  0  0  0 
  1  4  1  0  0  0  0 
  4  5  1  0  0  0  0 
  4  6  1  0  0  0  0 
  4  7  1  0  0  0  0 
  7  8  1  0  0  0  0 
  7  9  1  0  0  0  0 
  9 10  2  0  0  0  0 
  9 11  1  0  0  0  0 
 11 12  1  0  0  0  0 
 11 13  1  0  0  0  0 
  1 13  1  0  0  0  0 
 13 14  1  0  0  0  0 
 13 15  1  0  0  0  0 
M  END
> <Rank>
29

> <Priority_score>
0.064

> <Reaction_type>
N-dealkylation

> <Parent_ID>
63

> <Parent_InChI>
InChI=1S/C37H48N4O5/c1-25(2)34(41-20-12-19-38-37(41)45)36(44)39-30(21-28-15-7-5-8-16-28)23-32(42)31(22-29-17-9-6-10-18-29)40-33(43)24-46-35-26(3)13-11-14-27(35)4/h5-11,13-18,25,30-32,34,42H,12,19-24H2,1-4H3,(H,38,45)(H,39,44)(H,40,43)

> <Parent_SMILES>
Cc1cccc(C)c1OCC(=O)N[C@@H](Cc1ccccc1)[C@@H](O)C[C@H](Cc1ccccc1)NC(=O)[C@H](C(C)C)N1CCCNC1=O

$$$$
Molecule 63_metabolite 33
  CDK     0516241031

 95 98  0  0  0  0  0  0  0  0999 V2000
   18.6744   11.0536    0.0000 C   0  0  0  0  0  0  0  0  0  0  0  0
   18.1616    9.6440    0.0000 H   0  0  0  0  0  0  0  0  0  0  0  0
   19.6385   12.2028    0.0000 H   0  0  0  0  0  0  0  0  0  0  0  0
   19.9736   10.3038    0.0000 H   0  0  0  0  0  0  0  0  0  0  0  0
   17.7101   12.2026    0.0000 C   0  0  0  0  0  0  0  0  0  0  0  0
   19.0091   12.9527    0.0000 H   0  0  0  0  0  0  0  0  0  0  0  0
   16.7043   14.9652    0.0000 C   0  0  0  0  0  0  0  0  0  0  0  0
   17.6684   16.1143    0.0000 H   0  0  0  0  0  0  0  0  0  0  0  0
   15.7400   16.1141    0.0000 H   0  0  0  0  0  0  0  0  0  0  0  0
   15.4053   14.2150    0.0000 H   0  0  0  0  0  0  0  0  0  0  0  0
   14.8149   11.6917    0.0000 C   0  0  1  0  0  0  0  0  0  0  0  0
   14.8147   13.1917    0.0000 H   0  0  0  0  0  0  0  0  0  0  0  0
   13.3376   11.9521    0.0000 C   0  0  0  0  0  0  0  0  0  0  0  0
   12.3736   10.8029    0.0000 O   0  0  0  0  0  0  0  0  0  0  0  0
   12.8244   13.3615    0.0000 N   0  0  0  0  0  0  0  0  0  0  0  0
   13.7885   14.5107    0.0000 H   0  0  0  0  0  0  0  0  0  0  0  0
   10.8745   13.7052    0.0000 C   0  0  1  0  0  0  0  0  0  0  0  0
    9.5754   14.4550    0.0000 H   0  0  0  0  0  0  0  0  0  0  0  0
   11.3874   15.1148    0.0000 C   0  0  0  0  0  0  0  0  0  0  0  0
   12.3514   16.2639    0.0000 H   0  0  0  0  0  0  0  0  0  0  0  0
   12.6865   14.3649    0.0000 H   0  0  0  0  0  0  0  0  0  0  0  0
   10.4231   16.2637    0.0000 C   0  0  0  0  0  0  0  0  0  0  0  0
   10.9367   17.6739    0.0000 C   0  0  0  0  0  0  0  0  0  0  0  0
   12.4139   17.9343    0.0000 H   0  0  0  0  0  0  0  0  0  0  0  0
    9.9724   18.8229    0.0000 C   0  0  0  0  0  0  0  0  0  0  0  0
   10.4850   20.2326    0.0000 H   0  0  0  0  0  0  0  0  0  0  0  0
    8.4944   18.5616    0.0000 C   0  0  0  0  0  0  0  0  0  0  0  0
    7.5301   19.7106    0.0000 H   0  0  0  0  0  0  0  0  0  0  0  0
    7.9808   17.1514    0.0000 C   0  0  0  0  0  0  0  0  0  0  0  0
    6.5036   16.8910    0.0000 H   0  0  0  0  0  0  0  0  0  0  0  0
    8.9451   16.0025    0.0000 C   0  0  0  0  0  0  0  0  0  0  0  0
    8.4325   14.5928    0.0000 H   0  0  0  0  0  0  0  0  0  0  0  0
    9.6019   12.1883    0.0000 C   0  0  0  0  0  0  0  0  0  0  0  0
   10.9010   11.4384    0.0000 H   0  0  0  0  0  0  0  0  0  0  0  0
    9.0890   10.7787    0.0000 H   0  0  0  0  0  0  0  0  0  0  0  0
    8.1247   12.4486    0.0000 C   0  0  1  0  0  0  0  0  0  0  0  0
    6.8256   13.1984    0.0000 H   0  0  0  0  0  0  0  0  0  0  0  0
    6.8521   10.9317    0.0000 C   0  0  2  0  0  0  0  0  0  0  0  0
    8.1512   10.1818    0.0000 H   0  0  0  0  0  0  0  0  0  0  0  0
    6.0110    8.6199    0.0000 C   0  0  0  0  0  0  0  0  0  0  0  0
    4.7119    9.3698    0.0000 H   0  0  0  0  0  0  0  0  0  0  0  0
    5.0469    7.4708    0.0000 H   0  0  0  0  0  0  0  0  0  0  0  0
    6.9753    7.4710    0.0000 C   0  0  0  0  0  0  0  0  0  0  0  0
    8.4532    7.7322    0.0000 C   0  0  0  0  0  0  0  0  0  0  0  0
    8.9659    9.1419    0.0000 H   0  0  0  0  0  0  0  0  0  0  0  0
    9.4175    6.5833    0.0000 C   0  0  0  0  0  0  0  0  0  0  0  0
   10.8948    6.8436    0.0000 H   0  0  0  0  0  0  0  0  0  0  0  0
    8.9039    5.1730    0.0000 C   0  0  0  0  0  0  0  0  0  0  0  0
    9.8682    4.0241    0.0000 H   0  0  0  0  0  0  0  0  0  0  0  0
    7.4260    4.9118    0.0000 C   0  0  0  0  0  0  0  0  0  0  0  0
    6.9133    3.5021    0.0000 H   0  0  0  0  0  0  0  0  0  0  0  0
    6.4617    6.0608    0.0000 C   0  0  0  0  0  0  0  0  0  0  0  0
    4.9845    5.8004    0.0000 H   0  0  0  0  0  0  0  0  0  0  0  0
    4.9022   11.2753    0.0000 N   0  0  0  0  0  0  0  0  0  0  0  0
    3.9381   10.1261    0.0000 H   0  0  0  0  0  0  0  0  0  0  0  0
    4.3890   12.6848    0.0000 C   0  0  0  0  0  0  0  0  0  0  0  0
    5.3530   13.8339    0.0000 O   0  0  0  0  0  0  0  0  0  0  0  0
    2.9117   12.9451    0.0000 C   0  0  0  0  0  0  0  0  0  0  0  0
    1.4346   12.6844    0.0000 H   0  0  0  0  0  0  0  0  0  0  0  0
    2.9119   11.4451    0.0000 H   0  0  0  0  0  0  0  0  0  0  0  0
    2.3986   14.3546    0.0000 O   0  0  0  0  0  0  0  0  0  0  0  0
    0.9213   14.6149    0.0000 C   0  0  0  0  0  0  0  0  0  0  0  0
   -0.0332   13.4591    0.0000 C   0  0  0  0  0  0  0  0  0  0  0  0
    0.4933   12.0545    0.0000 C   0  0  0  0  0  0  0  0  0  0  0  0
    1.9729   11.8082    0.0000 H   0  0  0  0  0  0  0  0  0  0  0  0
   -0.9814   11.7800    0.0000 H   0  0  0  0  0  0  0  0  0  0  0  0
    0.5076   10.5546    0.0000 H   0  0  0  0  0  0  0  0  0  0  0  0
   -1.4938   13.6998    0.0000 C   0  0  0  0  0  0  0  0  0  0  0  0
   -2.4485   12.5429    0.0000 H   0  0  0  0  0  0  0  0  0  0  0  0
   -2.0027   15.0764    0.0000 C   0  0  0  0  0  0  0  0  0  0  0  0
   -3.4848   15.3077    0.0000 H   0  0  0  0  0  0  0  0  0  0  0  0
   -1.0864   16.2477    0.0000 C   0  0  0  0  0  0  0  0  0  0  0  0
   -1.6456   17.6396    0.0000 H   0  0  0  0  0  0  0  0  0  0  0  0
    0.4180   16.0311    0.0000 C   0  0  0  0  0  0  0  0  0  0  0  0
    1.3684   17.1916    0.0000 C   0  0  0  0  0  0  0  0  0  0  0  0
    0.8386   18.5949    0.0000 H   0  0  0  0  0  0  0  0  0  0  0  0
    2.6584   17.9570    0.0000 H   0  0  0  0  0  0  0  0  0  0  0  0
    2.3463   16.0541    0.0000 H   0  0  0  0  0  0  0  0  0  0  0  0
    8.6376   13.8582    0.0000 O   0  0  0  0  0  0  0  0  0  0  0  0
    7.6733   15.0071    0.0000 H   0  0  0  0  0  0  0  0  0  0  0  0
   14.8151    9.7117    0.0000 N   0  0  0  0  0  0  0  0  0  0  0  0
   14.3013    8.3016    0.0000 C   0  0  0  0  0  0  0  0  0  0  0  0
   13.0024    9.0519    0.0000 H   0  0  0  0  0  0  0  0  0  0  0  0
   13.3370    7.1526    0.0000 H   0  0  0  0  0  0  0  0  0  0  0  0
   15.2655    7.1525    0.0000 C   0  0  0  0  0  0  0  0  0  0  0  0
   13.9665    6.4024    0.0000 H   0  0  0  0  0  0  0  0  0  0  0  0
   15.7788    5.7431    0.0000 H   0  0  0  0  0  0  0  0  0  0  0  0
   16.7434    7.4136    0.0000 C   0  0  0  0  0  0  0  0  0  0  0  0
   16.7436    5.9136    0.0000 H   0  0  0  0  0  0  0  0  0  0  0  0
   18.2206    7.1530    0.0000 H   0  0  0  0  0  0  0  0  0  0  0  0
   17.2572    8.8238    0.0000 N   0  0  0  0  0  0  0  0  0  0  0  0
   18.7344    9.0840    0.0000 H   0  0  0  0  0  0  0  0  0  0  0  0
   16.2930    9.9728    0.0000 C   0  0  0  0  0  0  0  0  0  0  0  0
   16.8058   11.3825    0.0000 O   0  0  0  0  0  0  0  0  0  0  0  0
   13.3379    9.9724    0.0000 O   0  0  0  0  0  0  0  0  0  0  0  0
  1  2  1  0  0  0  0 
  1  3  1  0  0  0  0 
  1  4  1  0  0  0  0 
  1  5  1  0  0  0  0 
  5  6  1  0  0  0  0 
  5  7  1  0  0  0  0 
  7  8  1  0  0  0  0 
  7  9  1  0  0  0  0 
  7 10  1  0  0  0  0 
  5 11  1  0  0  0  0 
 11 12  1  1  0  0  0 
 11 13  1  6  0  0  0 
 13 14  2  0  0  0  0 
 13 15  1  0  0  0  0 
 15 16  1  0  0  0  0 
 15 17  1  0  0  0  0 
 17 18  1  1  0  0  0 
 17 19  1  6  0  0  0 
 19 20  1  0  0  0  0 
 19 21  1  0  0  0  0 
 19 22  1  0  0  0  0 
 22 23  2  0  0  0  0 
 23 24  1  0  0  0  0 
 23 25  1  0  0  0  0 
 25 26  1  0  0  0  0 
 25 27  2  0  0  0  0 
 27 28  1  0  0  0  0 
 27 29  1  0  0  0  0 
 29 30  1  0  0  0  0 
 29 31  2  0  0  0  0 
 22 31  1  0  0  0  0 
 31 32  1  0  0  0  0 
 17 33  1  0  0  0  0 
 33 34  1  0  0  0  0 
 33 35  1  0  0  0  0 
 33 36  1  0  0  0  0 
 36 37  1  6  0  0  0 
 36 38  1  0  0  0  0 
 38 39  1  1  0  0  0 
 38 40  1  6  0  0  0 
 40 41  1  0  0  0  0 
 40 42  1  0  0  0  0 
 40 43  1  0  0  0  0 
 43 44  2  0  0  0  0 
 44 45  1  0  0  0  0 
 44 46  1  0  0  0  0 
 46 47  1  0  0  0  0 
 46 48  2  0  0  0  0 
 48 49  1  0  0  0  0 
 48 50  1  0  0  0  0 
 50 51  1  0  0  0  0 
 50 52  2  0  0  0  0 
 43 52  1  0  0  0  0 
 52 53  1  0  0  0  0 
 38 54  1  0  0  0  0 
 54 55  1  0  0  0  0 
 54 56  1  0  0  0  0 
 56 57  2  0  0  0  0 
 56 58  1  0  0  0  0 
 58 59  1  0  0  0  0 
 58 60  1  0  0  0  0 
 58 61  1  0  0  0  0 
 61 62  1  0  0  0  0 
 62 63  2  0  0  0  0 
 63 64  1  0  0  0  0 
 64 65  1  0  0  0  0 
 64 66  1  0  0  0  0 
 64 67  1  0  0  0  0 
 63 68  1  0  0  0  0 
 68 69  1  0  0  0  0 
 68 70  2  0  0  0  0 
 70 71  1  0  0  0  0 
 70 72  1  0  0  0  0 
 72 73  1  0  0  0  0 
 72 74  2  0  0  0  0 
 62 74  1  0  0  0  0 
 74 75  1  0  0  0  0 
 75 76  1  0  0  0  0 
 75 77  1  0  0  0  0 
 75 78  1  0  0  0  0 
 36 79  1  1  0  0  0 
 79 80  1  0  0  0  0 
 11 81  1  0  0  0  0 
 81 82  1  0  0  0  0 
 82 83  1  0  0  0  0 
 82 84  1  0  0  0  0 
 82 85  1  0  0  0  0 
 85 86  1  0  0  0  0 
 85 87  1  0  0  0  0 
 85 88  1  0  0  0  0 
 88 89  1  0  0  0  0 
 88 90  1  0  0  0  0 
 88 91  1  0  0  0  0 
 91 92  1  0  0  0  0 
 91 93  1  0  0  0  0 
 81 93  1  0  0  0  0 
 93 94  2  0  0  0  0 
 81 95  1  0  0  0  0 
M  CHG  1  81   1
M  CHG  1  95  -1
M  END
> <Rank>
29

> <Priority_score>
0.064

> <Reaction_type>
N-oxidation

> <Parent_ID>
63

> <Parent_InChI>
InChI=1S/C37H48N4O5/c1-25(2)34(41-20-12-19-38-37(41)45)36(44)39-30(21-28-15-7-5-8-16-28)23-32(42)31(22-29-17-9-6-10-18-29)40-33(43)24-46-35-26(3)13-11-14-27(35)4/h5-11,13-18,25,30-32,34,42H,12,19-24H2,1-4H3,(H,38,45)(H,39,44)(H,40,43)

> <Parent_SMILES>
Cc1cccc(C)c1OCC(=O)N[C@@H](Cc1ccccc1)[C@@H](O)C[C@H](Cc1ccccc1)NC(=O)[C@H](C(C)C)N1CCCNC1=O

$$$$
Molecule 63_metabolite 34
  CDK     0516241031

 95 98  0  0  0  0  0  0  0  0999 V2000
  -12.3578   -1.7590    0.0000 C   0  0  0  0  0  0  0  0  0  0  0  0
  -12.8708   -3.1685    0.0000 H   0  0  0  0  0  0  0  0  0  0  0  0
  -13.8350   -1.4985    0.0000 H   0  0  0  0  0  0  0  0  0  0  0  0
  -12.3578   -0.2590    0.0000 H   0  0  0  0  0  0  0  0  0  0  0  0
  -10.4078   -1.4152    0.0000 C   0  0  0  0  0  0  0  0  0  0  0  0
   -8.9306   -1.6756    0.0000 H   0  0  0  0  0  0  0  0  0  0  0  0
  -10.4078   -2.9152    0.0000 C   0  0  0  0  0  0  0  0  0  0  0  0
   -9.1088   -3.6652    0.0000 H   0  0  0  0  0  0  0  0  0  0  0  0
  -11.8850   -2.6547    0.0000 H   0  0  0  0  0  0  0  0  0  0  0  0
  -10.9209   -4.3247    0.0000 H   0  0  0  0  0  0  0  0  0  0  0  0
   -9.8948   -0.0056    0.0000 C   0  0  1  0  0  0  0  0  0  0  0  0
  -11.3720    0.2548    0.0000 H   0  0  0  0  0  0  0  0  0  0  0  0
   -8.1801   -0.9956    0.0000 C   0  0  0  0  0  0  0  0  0  0  0  0
   -8.1801   -2.4956    0.0000 O   0  0  0  0  0  0  0  0  0  0  0  0
   -6.8810   -0.2456    0.0000 N   0  0  0  0  0  0  0  0  0  0  0  0
   -6.8810    1.2544    0.0000 H   0  0  0  0  0  0  0  0  0  0  0  0
   -5.1663   -1.2356    0.0000 C   0  0  1  0  0  0  0  0  0  0  0  0
   -6.1305   -2.3847    0.0000 H   0  0  0  0  0  0  0  0  0  0  0  0
   -4.2021   -2.3847    0.0000 C   0  0  0  0  0  0  0  0  0  0  0  0
   -3.2379   -1.2356    0.0000 H   0  0  0  0  0  0  0  0  0  0  0  0
   -2.9031   -3.1347    0.0000 H   0  0  0  0  0  0  0  0  0  0  0  0
   -4.7152   -3.7942    0.0000 C   0  0  0  0  0  0  0  0  0  0  0  0
   -6.1933   -4.0544    0.0000 C   0  0  0  0  0  0  0  0  0  0  0  0
   -7.1573   -2.9052    0.0000 H   0  0  0  0  0  0  0  0  0  0  0  0
   -6.7063   -5.4639    0.0000 C   0  0  0  0  0  0  0  0  0  0  0  0
   -8.1835   -5.7246    0.0000 H   0  0  0  0  0  0  0  0  0  0  0  0
   -5.7412   -6.6133    0.0000 C   0  0  0  0  0  0  0  0  0  0  0  0
   -6.2542   -8.0229    0.0000 H   0  0  0  0  0  0  0  0  0  0  0  0
   -4.2631   -6.3532    0.0000 C   0  0  0  0  0  0  0  0  0  0  0  0
   -3.2991   -7.5024    0.0000 H   0  0  0  0  0  0  0  0  0  0  0  0
   -3.7501   -4.9436    0.0000 C   0  0  0  0  0  0  0  0  0  0  0  0
   -2.2729   -4.6829    0.0000 H   0  0  0  0  0  0  0  0  0  0  0  0
   -3.4516   -0.2456    0.0000 C   0  0  0  0  0  0  0  0  0  0  0  0
   -2.4874    0.9034    0.0000 H   0  0  0  0  0  0  0  0  0  0  0  0
   -2.1525   -0.9956    0.0000 C   0  0  1  0  0  0  0  0  0  0  0  0
   -3.1167   -2.1447    0.0000 H   0  0  0  0  0  0  0  0  0  0  0  0
    0.3936    0.4744    0.0000 C   0  0  2  0  0  0  0  0  0  0  0  0
    1.8708    0.7348    0.0000 H   0  0  0  0  0  0  0  0  0  0  0  0
    0.9066   -0.9352    0.0000 C   0  0  0  0  0  0  0  0  0  0  0  0
    0.9066   -2.4352    0.0000 H   0  0  0  0  0  0  0  0  0  0  0  0
   -0.5706   -1.1956    0.0000 H   0  0  0  0  0  0  0  0  0  0  0  0
    2.3838   -1.1956    0.0000 C   0  0  0  0  0  0  0  0  0  0  0  0
    2.8967   -2.6061    0.0000 C   0  0  0  0  0  0  0  0  0  0  0  0
    1.9323   -3.7550    0.0000 H   0  0  0  0  0  0  0  0  0  0  0  0
    4.3739   -2.8666    0.0000 C   0  0  0  0  0  0  0  0  0  0  0  0
    4.8872   -4.2761    0.0000 H   0  0  0  0  0  0  0  0  0  0  0  0
    5.3382   -1.7166    0.0000 C   0  0  0  0  0  0  0  0  0  0  0  0
    6.8155   -1.9771    0.0000 H   0  0  0  0  0  0  0  0  0  0  0  0
    4.8254   -0.3061    0.0000 C   0  0  0  0  0  0  0  0  0  0  0  0
    5.7897    0.8428    0.0000 H   0  0  0  0  0  0  0  0  0  0  0  0
    3.3482   -0.0456    0.0000 C   0  0  0  0  0  0  0  0  0  0  0  0
    2.8349    1.3638    0.0000 H   0  0  0  0  0  0  0  0  0  0  0  0
    0.3936    2.4544    0.0000 N   0  0  0  0  0  0  0  0  0  0  0  0
   -0.9055    3.2044    0.0000 H   0  0  0  0  0  0  0  0  0  0  0  0
    1.6926    3.2044    0.0000 C   0  0  0  0  0  0  0  0  0  0  0  0
    2.9917    2.4544    0.0000 O   0  0  0  0  0  0  0  0  0  0  0  0
    1.6926    4.7044    0.0000 C   0  0  0  0  0  0  0  0  0  0  0  0
    0.2154    4.4439    0.0000 H   0  0  0  0  0  0  0  0  0  0  0  0
    1.1796    6.1139    0.0000 H   0  0  0  0  0  0  0  0  0  0  0  0
    2.9917    5.4544    0.0000 O   0  0  0  0  0  0  0  0  0  0  0  0
    2.9917    6.9544    0.0000 C   0  0  0  0  0  0  0  0  0  0  0  0
    1.6878    7.6938    0.0000 C   0  0  0  0  0  0  0  0  0  0  0  0
    0.3959    6.9316    0.0000 C   0  0  0  0  0  0  0  0  0  0  0  0
    0.4100    5.4316    0.0000 H   0  0  0  0  0  0  0  0  0  0  0  0
   -0.1304    8.3362    0.0000 H   0  0  0  0  0  0  0  0  0  0  0  0
   -1.0788    6.6572    0.0000 H   0  0  0  0  0  0  0  0  0  0  0  0
    1.6713    9.1740    0.0000 C   0  0  0  0  0  0  0  0  0  0  0  0
    0.3663    9.9135    0.0000 H   0  0  0  0  0  0  0  0  0  0  0  0
    2.9387    9.9142    0.0000 C   0  0  0  0  0  0  0  0  0  0  0  0
    2.9093   11.4139    0.0000 H   0  0  0  0  0  0  0  0  0  0  0  0
    4.2513    9.2150    0.0000 C   0  0  0  0  0  0  0  0  0  0  0  0
    5.5250   10.0072    0.0000 H   0  0  0  0  0  0  0  0  0  0  0  0
    4.2990    7.6958    0.0000 C   0  0  0  0  0  0  0  0  0  0  0  0
    5.6068    6.9612    0.0000 C   0  0  0  0  0  0  0  0  0  0  0  0
    6.8969    7.7265    0.0000 H   0  0  0  0  0  0  0  0  0  0  0  0
    6.5846    5.8236    0.0000 H   0  0  0  0  0  0  0  0  0  0  0  0
    4.6563    5.8008    0.0000 H   0  0  0  0  0  0  0  0  0  0  0  0
   -1.1884   -2.1447    0.0000 O   0  0  0  0  0  0  0  0  0  0  0  0
   -1.7014   -3.5542    0.0000 H   0  0  0  0  0  0  0  0  0  0  0  0
   -4.4158    0.9034    0.0000 O   0  0  0  0  0  0  0  0  0  0  0  0
   -3.9027    2.3130    0.0000 H   0  0  0  0  0  0  0  0  0  0  0  0
   -9.8948    1.4944    0.0000 N   0  0  0  0  0  0  0  0  0  0  0  0
   -8.5948    2.2444    0.0000 C   0  0  0  0  0  0  0  0  0  0  0  0
   -8.0821    0.8347    0.0000 H   0  0  0  0  0  0  0  0  0  0  0  0
   -7.1176    2.5047    0.0000 H   0  0  0  0  0  0  0  0  0  0  0  0
   -8.5948    3.7444    0.0000 C   0  0  0  0  0  0  0  0  0  0  0  0
   -7.1176    3.4840    0.0000 H   0  0  0  0  0  0  0  0  0  0  0  0
   -8.0821    5.1540    0.0000 H   0  0  0  0  0  0  0  0  0  0  0  0
   -9.8948    4.4944    0.0000 C   0  0  0  0  0  0  0  0  0  0  0  0
   -8.9307    5.6435    0.0000 H   0  0  0  0  0  0  0  0  0  0  0  0
  -10.8589    5.6435    0.0000 H   0  0  0  0  0  0  0  0  0  0  0  0
  -11.1948    3.7444    0.0000 N   0  0  0  0  0  0  0  0  0  0  0  0
  -12.4937    4.4946    0.0000 H   0  0  0  0  0  0  0  0  0  0  0  0
  -11.1948    2.2444    0.0000 C   0  0  0  0  0  0  0  0  0  0  0  0
  -12.4937    1.4942    0.0000 O   0  0  0  0  0  0  0  0  0  0  0  0
  1  2  1  0  0  0  0 
  1  3  1  0  0  0  0 
  1  4  1  0  0  0  0 
  1  5  1  0  0  0  0 
  5  6  1  0  0  0  0 
  5  7  1  0  0  0  0 
  7  8  1  0  0  0  0 
  7  9  1  0  0  0  0 
  7 10  1  0  0  0  0 
  5 11  1  0  0  0  0 
 11 12  1  1  0  0  0 
 11 13  1  0  0  0  0 
 13 14  2  0  0  0  0 
 13 15  1  0  0  0  0 
 15 16  1  0  0  0  0 
 17 15  1  6  0  0  0 
 17 18  1  1  0  0  0 
 17 19  1  0  0  0  0 
 19 20  1  0  0  0  0 
 19 21  1  0  0  0  0 
 19 22  1  0  0  0  0 
 22 23  2  0  0  0  0 
 23 24  1  0  0  0  0 
 23 25  1  0  0  0  0 
 25 26  1  0  0  0  0 
 25 27  2  0  0  0  0 
 27 28  1  0  0  0  0 
 27 29  1  0  0  0  0 
 29 30  1  0  0  0  0 
 29 31  2  0  0  0  0 
 22 31  1  0  0  0  0 
 31 32  1  0  0  0  0 
 17 33  1  0  0  0  0 
 33 34  1  0  0  0  0 
 33 35  1  0  0  0  0 
 35 36  1  6  0  0  0 
 35 37  1  0  0  0  0 
 37 38  1  6  0  0  0 
 37 39  1  0  0  0  0 
 39 40  1  0  0  0  0 
 39 41  1  0  0  0  0 
 39 42  1  0  0  0  0 
 42 43  2  0  0  0  0 
 43 44  1  0  0  0  0 
 43 45  1  0  0  0  0 
 45 46  1  0  0  0  0 
 45 47  2  0  0  0  0 
 47 48  1  0  0  0  0 
 47 49  1  0  0  0  0 
 49 50  1  0  0  0  0 
 49 51  2  0  0  0  0 
 42 51  1  0  0  0  0 
 51 52  1  0  0  0  0 
 37 53  1  1  0  0  0 
 53 54  1  0  0  0  0 
 53 55  1  0  0  0  0 
 55 56  2  0  0  0  0 
 55 57  1  0  0  0  0 
 57 58  1  0  0  0  0 
 57 59  1  0  0  0  0 
 57 60  1  0  0  0  0 
 60 61  1  0  0  0  0 
 61 62  2  0  0  0  0 
 62 63  1  0  0  0  0 
 63 64  1  0  0  0  0 
 63 65  1  0  0  0  0 
 63 66  1  0  0  0  0 
 62 67  1  0  0  0  0 
 67 68  1  0  0  0  0 
 67 69  2  0  0  0  0 
 69 70  1  0  0  0  0 
 69 71  1  0  0  0  0 
 71 72  1  0  0  0  0 
 71 73  2  0  0  0  0 
 61 73  1  0  0  0  0 
 73 74  1  0  0  0  0 
 74 75  1  0  0  0  0 
 74 76  1  0  0  0  0 
 74 77  1  0  0  0  0 
 35 78  1  1  0  0  0 
 78 79  1  0  0  0  0 
 33 80  1  0  0  0  0 
 80 81  1  0  0  0  0 
 11 82  1  6  0  0  0 
 82 83  1  0  0  0  0 
 83 84  1  0  0  0  0 
 83 85  1  0  0  0  0 
 83 86  1  0  0  0  0 
 86 87  1  0  0  0  0 
 86 88  1  0  0  0  0 
 86 89  1  0  0  0  0 
 89 90  1  0  0  0  0 
 89 91  1  0  0  0  0 
 89 92  1  0  0  0  0 
 92 93  1  0  0  0  0 
 92 94  1  0  0  0  0 
 82 94  1  0  0  0  0 
 94 95  2  0  0  0  0 
M  END
> <Rank>
34

> <Priority_score>
0.06

> <Reaction_type>
aliphatic hydroxylation

> <Parent_ID>
63

> <Parent_InChI>
InChI=1S/C37H48N4O5/c1-25(2)34(41-20-12-19-38-37(41)45)36(44)39-30(21-28-15-7-5-8-16-28)23-32(42)31(22-29-17-9-6-10-18-29)40-33(43)24-46-35-26(3)13-11-14-27(35)4/h5-11,13-18,25,30-32,34,42H,12,19-24H2,1-4H3,(H,38,45)(H,39,44)(H,40,43)

> <Parent_SMILES>
Cc1cccc(C)c1OCC(=O)N[C@@H](Cc1ccccc1)[C@@H](O)C[C@H](Cc1ccccc1)NC(=O)[C@H](C(C)C)N1CCCNC1=O

$$$$
Molecule 63_metabolite 35
  CDK     0516241031

 95 98  0  0  0  0  0  0  0  0999 V2000
    1.3764   -4.0205    0.0000 C   0  0  0  0  0  0  0  0  0  0  0  0
   -0.1008   -3.7600    0.0000 H   0  0  0  0  0  0  0  0  0  0  0  0
    0.8634   -5.4300    0.0000 H   0  0  0  0  0  0  0  0  0  0  0  0
    2.6755   -4.7705    0.0000 H   0  0  0  0  0  0  0  0  0  0  0  0
    2.6491   -2.5037    0.0000 C   0  0  0  0  0  0  0  0  0  0  0  0
    3.1622   -1.0942    0.0000 H   0  0  0  0  0  0  0  0  0  0  0  0
    1.3501   -1.7537    0.0000 C   0  0  0  0  0  0  0  0  0  0  0  0
    1.3501   -0.2537    0.0000 H   0  0  0  0  0  0  0  0  0  0  0  0
    0.8371   -3.1632    0.0000 H   0  0  0  0  0  0  0  0  0  0  0  0
   -0.1271   -1.4932    0.0000 H   0  0  0  0  0  0  0  0  0  0  0  0
    4.1264   -2.7642    0.0000 C   0  0  1  0  0  0  0  0  0  0  0  0
    3.6133   -4.1737    0.0000 H   0  0  0  0  0  0  0  0  0  0  0  0
    4.1264   -0.7842    0.0000 C   0  0  0  0  0  0  0  0  0  0  0  0
    2.8273   -0.0342    0.0000 O   0  0  0  0  0  0  0  0  0  0  0  0
    5.4254   -0.0342    0.0000 N   0  0  0  0  0  0  0  0  0  0  0  0
    6.7244   -0.7842    0.0000 H   0  0  0  0  0  0  0  0  0  0  0  0
    5.4254    1.9458    0.0000 C   0  0  1  0  0  0  0  0  0  0  0  0
    6.9026    1.6854    0.0000 C   0  0  0  0  0  0  0  0  0  0  0  0
    6.3896    0.2758    0.0000 H   0  0  0  0  0  0  0  0  0  0  0  0
    8.2016    0.9354    0.0000 H   0  0  0  0  0  0  0  0  0  0  0  0
    8.1753    3.2021    0.0000 C   0  0  0  0  0  0  0  0  0  0  0  0
    7.6616    4.6123    0.0000 C   0  0  0  0  0  0  0  0  0  0  0  0
    6.1843    4.8725    0.0000 H   0  0  0  0  0  0  0  0  0  0  0  0
    8.6257    5.7613    0.0000 C   0  0  0  0  0  0  0  0  0  0  0  0
    8.1129    7.1710    0.0000 H   0  0  0  0  0  0  0  0  0  0  0  0
   10.1037    5.5003    0.0000 C   0  0  0  0  0  0  0  0  0  0  0  0
   11.0679    6.6493    0.0000 H   0  0  0  0  0  0  0  0  0  0  0  0
   10.6175    4.0901    0.0000 C   0  0  0  0  0  0  0  0  0  0  0  0
   12.0947    3.8299    0.0000 H   0  0  0  0  0  0  0  0  0  0  0  0
    9.6533    2.9410    0.0000 C   0  0  0  0  0  0  0  0  0  0  0  0
   10.1661    1.5314    0.0000 H   0  0  0  0  0  0  0  0  0  0  0  0
    3.7107    2.9358    0.0000 C   0  0  0  0  0  0  0  0  0  0  0  0
    2.2335    3.1963    0.0000 H   0  0  0  0  0  0  0  0  0  0  0  0
    3.1976    1.5263    0.0000 H   0  0  0  0  0  0  0  0  0  0  0  0
    3.7107    4.4358    0.0000 C   0  0  1  0  0  0  0  0  0  0  0  0
    5.1879    4.1754    0.0000 H   0  0  0  0  0  0  0  0  0  0  0  0
    1.1646    5.9058    0.0000 C   0  0  2  0  0  0  0  0  0  0  0  0
    0.2004    7.0549    0.0000 H   0  0  0  0  0  0  0  0  0  0  0  0
    2.1287    7.0549    0.0000 C   0  0  0  0  0  0  0  0  0  0  0  0
    3.4278    7.8049    0.0000 H   0  0  0  0  0  0  0  0  0  0  0  0
    3.0929    5.9058    0.0000 H   0  0  0  0  0  0  0  0  0  0  0  0
    1.6157    8.4644    0.0000 C   0  0  0  0  0  0  0  0  0  0  0  0
    2.5808    9.6138    0.0000 C   0  0  0  0  0  0  0  0  0  0  0  0
    4.0580    9.3531    0.0000 H   0  0  0  0  0  0  0  0  0  0  0  0
    2.0678   11.0234    0.0000 C   0  0  0  0  0  0  0  0  0  0  0  0
    3.0318   12.1726    0.0000 H   0  0  0  0  0  0  0  0  0  0  0  0
    0.5896   11.2835    0.0000 C   0  0  0  0  0  0  0  0  0  0  0  0
    0.0766   12.6931    0.0000 H   0  0  0  0  0  0  0  0  0  0  0  0
   -0.3754   10.1341    0.0000 C   0  0  0  0  0  0  0  0  0  0  0  0
   -1.8526   10.3948    0.0000 H   0  0  0  0  0  0  0  0  0  0  0  0
    0.1376    8.7246    0.0000 C   0  0  0  0  0  0  0  0  0  0  0  0
   -0.8264    7.5754    0.0000 H   0  0  0  0  0  0  0  0  0  0  0  0
   -0.5502    4.9158    0.0000 N   0  0  0  0  0  0  0  0  0  0  0  0
   -0.5502    3.4158    0.0000 H   0  0  0  0  0  0  0  0  0  0  0  0
   -1.8492    5.6658    0.0000 C   0  0  0  0  0  0  0  0  0  0  0  0
   -1.8492    7.1658    0.0000 O   0  0  0  0  0  0  0  0  0  0  0  0
   -3.1483    4.9158    0.0000 C   0  0  0  0  0  0  0  0  0  0  0  0
   -2.1841    3.7668    0.0000 H   0  0  0  0  0  0  0  0  0  0  0  0
   -4.1124    3.7668    0.0000 H   0  0  0  0  0  0  0  0  0  0  0  0
   -4.4473    5.6658    0.0000 O   0  0  0  0  0  0  0  0  0  0  0  0
   -5.7463    4.9158    0.0000 C   0  0  0  0  0  0  0  0  0  0  0  0
   -5.7348    3.4169    0.0000 C   0  0  0  0  0  0  0  0  0  0  0  0
   -4.4287    2.6792    0.0000 C   0  0  0  0  0  0  0  0  0  0  0  0
   -3.1368    3.4414    0.0000 H   0  0  0  0  0  0  0  0  0  0  0  0
   -5.3820    1.5211    0.0000 H   0  0  0  0  0  0  0  0  0  0  0  0
   -3.4537    1.5393    0.0000 H   0  0  0  0  0  0  0  0  0  0  0  0
   -7.0084    2.6626    0.0000 C   0  0  0  0  0  0  0  0  0  0  0  0
   -6.9963    1.1626    0.0000 H   0  0  0  0  0  0  0  0  0  0  0  0
   -8.2831    3.3901    0.0000 C   0  0  0  0  0  0  0  0  0  0  0  0
   -9.5672    2.6148    0.0000 H   0  0  0  0  0  0  0  0  0  0  0  0
   -8.3339    4.8764    0.0000 C   0  0  0  0  0  0  0  0  0  0  0  0
   -9.6569    5.5834    0.0000 H   0  0  0  0  0  0  0  0  0  0  0  0
   -7.0421    5.6773    0.0000 C   0  0  0  0  0  0  0  0  0  0  0  0
   -7.0599    7.1772    0.0000 C   0  0  0  0  0  0  0  0  0  0  0  0
   -8.3677    7.9118    0.0000 H   0  0  0  0  0  0  0  0  0  0  0  0
   -6.5636    8.5927    0.0000 H   0  0  0  0  0  0  0  0  0  0  0  0
   -5.5797    6.9343    0.0000 H   0  0  0  0  0  0  0  0  0  0  0  0
    4.2237    5.8454    0.0000 O   0  0  0  0  0  0  0  0  0  0  0  0
    5.7009    6.1058    0.0000 H   0  0  0  0  0  0  0  0  0  0  0  0
    5.9384    3.3554    0.0000 O   0  0  0  0  0  0  0  0  0  0  0  0
    7.4156    3.6158    0.0000 H   0  0  0  0  0  0  0  0  0  0  0  0
    5.4254   -3.5142    0.0000 N   0  0  0  0  0  0  0  0  0  0  0  0
    6.7249   -2.7633    0.0000 C   0  0  0  0  0  0  0  0  0  0  0  0
    5.7605   -1.6145    0.0000 H   0  0  0  0  0  0  0  0  0  0  0  0
    7.6890   -1.6142    0.0000 H   0  0  0  0  0  0  0  0  0  0  0  0
    8.0240   -3.5133    0.0000 C   0  0  0  0  0  0  0  0  0  0  0  0
    8.5371   -2.1039    0.0000 H   0  0  0  0  0  0  0  0  0  0  0  0
    9.5011   -3.7741    0.0000 H   0  0  0  0  0  0  0  0  0  0  0  0
    8.0235   -5.0142    0.0000 C   0  0  0  0  0  0  0  0  0  0  0  0
    9.5007   -4.7539    0.0000 H   0  0  0  0  0  0  0  0  0  0  0  0
    8.5367   -6.4237    0.0000 H   0  0  0  0  0  0  0  0  0  0  0  0
    6.7240   -5.7650    0.0000 N   0  0  0  0  0  0  0  0  0  0  0  0
    6.7242   -7.2650    0.0000 H   0  0  0  0  0  0  0  0  0  0  0  0
    5.4249   -5.0150    0.0000 C   0  0  0  0  0  0  0  0  0  0  0  0
    4.1258   -5.7648    0.0000 O   0  0  0  0  0  0  0  0  0  0  0  0
  1  2  1  0  0  0  0 
  1  3  1  0  0  0  0 
  1  4  1  0  0  0  0 
  1  5  1  0  0  0  0 
  5  6  1  0  0  0  0 
  5  7  1  0  0  0  0 
  7  8  1  0  0  0  0 
  7  9  1  0  0  0  0 
  7 10  1  0  0  0  0 
  5 11  1  0  0  0  0 
 11 12  1  6  0  0  0 
 11 13  1  0  0  0  0 
 13 14  2  0  0  0  0 
 13 15  1  0  0  0  0 
 15 16  1  0  0  0  0 
 17 15  1  1  0  0  0 
 17 18  1  6  0  0  0 
 18 19  1  0  0  0  0 
 18 20  1  0  0  0  0 
 18 21  1  0  0  0  0 
 21 22  2  0  0  0  0 
 22 23  1  0  0  0  0 
 22 24  1  0  0  0  0 
 24 25  1  0  0  0  0 
 24 26  2  0  0  0  0 
 26 27  1  0  0  0  0 
 26 28  1  0  0  0  0 
 28 29  1  0  0  0  0 
 28 30  2  0  0  0  0 
 21 30  1  0  0  0  0 
 30 31  1  0  0  0  0 
 17 32  1  0  0  0  0 
 32 33  1  0  0  0  0 
 32 34  1  0  0  0  0 
 32 35  1  0  0  0  0 
 35 36  1  6  0  0  0 
 35 37  1  0  0  0  0 
 37 38  1  6  0  0  0 
 37 39  1  0  0  0  0 
 39 40  1  0  0  0  0 
 39 41  1  0  0  0  0 
 39 42  1  0  0  0  0 
 42 43  2  0  0  0  0 
 43 44  1  0  0  0  0 
 43 45  1  0  0  0  0 
 45 46  1  0  0  0  0 
 45 47  2  0  0  0  0 
 47 48  1  0  0  0  0 
 47 49  1  0  0  0  0 
 49 50  1  0  0  0  0 
 49 51  2  0  0  0  0 
 42 51  1  0  0  0  0 
 51 52  1  0  0  0  0 
 37 53  1  1  0  0  0 
 53 54  1  0  0  0  0 
 53 55  1  0  0  0  0 
 55 56  2  0  0  0  0 
 55 57  1  0  0  0  0 
 57 58  1  0  0  0  0 
 57 59  1  0  0  0  0 
 57 60  1  0  0  0  0 
 60 61  1  0  0  0  0 
 61 62  2  0  0  0  0 
 62 63  1  0  0  0  0 
 63 64  1  0  0  0  0 
 63 65  1  0  0  0  0 
 63 66  1  0  0  0  0 
 62 67  1  0  0  0  0 
 67 68  1  0  0  0  0 
 67 69  2  0  0  0  0 
 69 70  1  0  0  0  0 
 69 71  1  0  0  0  0 
 71 72  1  0  0  0  0 
 71 73  2  0  0  0  0 
 61 73  1  0  0  0  0 
 73 74  1  0  0  0  0 
 74 75  1  0  0  0  0 
 74 76  1  0  0  0  0 
 74 77  1  0  0  0  0 
 35 78  1  1  0  0  0 
 78 79  1  0  0  0  0 
 17 80  1  0  0  0  0 
 80 81  1  0  0  0  0 
 11 82  1  1  0  0  0 
 82 83  1  0  0  0  0 
 83 84  1  0  0  0  0 
 83 85  1  0  0  0  0 
 83 86  1  0  0  0  0 
 86 87  1  0  0  0  0 
 86 88  1  0  0  0  0 
 86 89  1  0  0  0  0 
 89 90  1  0  0  0  0 
 89 91  1  0  0  0  0 
 89 92  1  0  0  0  0 
 92 93  1  0  0  0  0 
 92 94  1  0  0  0  0 
 82 94  1  0  0  0  0 
 94 95  2  0  0  0  0 
M  END
> <Rank>
34

> <Priority_score>
0.06

> <Reaction_type>
aliphatic_hydroxylation_(tert_carbon_next_to_SP2)

> <Parent_ID>
63

> <Parent_InChI>
InChI=1S/C37H48N4O5/c1-25(2)34(41-20-12-19-38-37(41)45)36(44)39-30(21-28-15-7-5-8-16-28)23-32(42)31(22-29-17-9-6-10-18-29)40-33(43)24-46-35-26(3)13-11-14-27(35)4/h5-11,13-18,25,30-32,34,42H,12,19-24H2,1-4H3,(H,38,45)(H,39,44)(H,40,43)

> <Parent_SMILES>
Cc1cccc(C)c1OCC(=O)N[C@@H](Cc1ccccc1)[C@@H](O)C[C@H](Cc1ccccc1)NC(=O)[C@H](C(C)C)N1CCCNC1=O

$$$$
Molecule 63_metabolite 36
  CDK     0516241031

 95 98  0  0  0  0  0  0  0  0999 V2000
   12.8626   10.3749    0.0000 C   0  0  0  0  0  0  0  0  0  0  0  0
   11.8984   11.5240    0.0000 H   0  0  0  0  0  0  0  0  0  0  0  0
   13.8268   11.5240    0.0000 H   0  0  0  0  0  0  0  0  0  0  0  0
   14.1616    9.6249    0.0000 H   0  0  0  0  0  0  0  0  0  0  0  0
   12.0212    8.0633    0.0000 C   0  0  0  0  0  0  0  0  0  0  0  0
   11.0570    6.9142    0.0000 H   0  0  0  0  0  0  0  0  0  0  0  0
   10.7222    8.8133    0.0000 C   0  0  0  0  0  0  0  0  0  0  0  0
   10.7222   10.3133    0.0000 H   0  0  0  0  0  0  0  0  0  0  0  0
   10.2092    7.4037    0.0000 H   0  0  0  0  0  0  0  0  0  0  0  0
    9.2450    9.0737    0.0000 H   0  0  0  0  0  0  0  0  0  0  0  0
   12.9854    6.9142    0.0000 C   0  0  1  0  0  0  0  0  0  0  0  0
   13.9496    8.0633    0.0000 H   0  0  0  0  0  0  0  0  0  0  0  0
   11.2707    5.9242    0.0000 C   0  0  0  0  0  0  0  0  0  0  0  0
   11.2707    4.4242    0.0000 O   0  0  0  0  0  0  0  0  0  0  0  0
    9.9716    6.6742    0.0000 N   0  0  0  0  0  0  0  0  0  0  0  0
    9.9716    8.1742    0.0000 H   0  0  0  0  0  0  0  0  0  0  0  0
    8.2569    5.6842    0.0000 C   0  0  2  0  0  0  0  0  0  0  0  0
    9.2211    4.5351    0.0000 H   0  0  0  0  0  0  0  0  0  0  0  0
    5.7108    7.1542    0.0000 C   0  0  0  0  0  0  0  0  0  0  0  0
    4.2336    7.4147    0.0000 H   0  0  0  0  0  0  0  0  0  0  0  0
    5.1978    5.7446    0.0000 H   0  0  0  0  0  0  0  0  0  0  0  0
    5.7108    8.6542    0.0000 C   0  0  1  0  0  0  0  0  0  0  0  0
    7.1880    8.3937    0.0000 H   0  0  0  0  0  0  0  0  0  0  0  0
    3.1647   10.1242    0.0000 C   0  0  2  0  0  0  0  0  0  0  0  0
    2.2005   11.2733    0.0000 H   0  0  0  0  0  0  0  0  0  0  0  0
    4.1289   11.2733    0.0000 C   0  0  0  0  0  0  0  0  0  0  0  0
    5.4279   12.0233    0.0000 H   0  0  0  0  0  0  0  0  0  0  0  0
    5.0930   10.1242    0.0000 H   0  0  0  0  0  0  0  0  0  0  0  0
    3.6158   12.6828    0.0000 C   0  0  0  0  0  0  0  0  0  0  0  0
    4.5809   13.8322    0.0000 C   0  0  0  0  0  0  0  0  0  0  0  0
    6.0581   13.5715    0.0000 H   0  0  0  0  0  0  0  0  0  0  0  0
    4.0679   15.2417    0.0000 C   0  0  0  0  0  0  0  0  0  0  0  0
    5.0319   16.3909    0.0000 H   0  0  0  0  0  0  0  0  0  0  0  0
    2.5898   15.5019    0.0000 C   0  0  0  0  0  0  0  0  0  0  0  0
    2.0767   16.9114    0.0000 H   0  0  0  0  0  0  0  0  0  0  0  0
    1.6247   14.3525    0.0000 C   0  0  0  0  0  0  0  0  0  0  0  0
    0.1475   14.6132    0.0000 H   0  0  0  0  0  0  0  0  0  0  0  0
    2.1377   12.9429    0.0000 C   0  0  0  0  0  0  0  0  0  0  0  0
    1.1737   11.7937    0.0000 H   0  0  0  0  0  0  0  0  0  0  0  0
    1.4499    9.1342    0.0000 N   0  0  0  0  0  0  0  0  0  0  0  0
    1.4499    7.6342    0.0000 H   0  0  0  0  0  0  0  0  0  0  0  0
    0.1509    9.8842    0.0000 C   0  0  0  0  0  0  0  0  0  0  0  0
    0.1509   11.3842    0.0000 O   0  0  0  0  0  0  0  0  0  0  0  0
   -1.1481    9.1342    0.0000 C   0  0  0  0  0  0  0  0  0  0  0  0
   -0.1839    7.9851    0.0000 H   0  0  0  0  0  0  0  0  0  0  0  0
   -2.1123    7.9851    0.0000 H   0  0  0  0  0  0  0  0  0  0  0  0
   -2.4472    9.8842    0.0000 O   0  0  0  0  0  0  0  0  0  0  0  0
   -3.7462    9.1342    0.0000 C   0  0  0  0  0  0  0  0  0  0  0  0
   -3.7346    7.6353    0.0000 C   0  0  0  0  0  0  0  0  0  0  0  0
   -2.4286    6.8976    0.0000 C   0  0  0  0  0  0  0  0  0  0  0  0
   -1.1367    7.6598    0.0000 H   0  0  0  0  0  0  0  0  0  0  0  0
   -3.3819    5.7395    0.0000 H   0  0  0  0  0  0  0  0  0  0  0  0
   -1.4536    5.7576    0.0000 H   0  0  0  0  0  0  0  0  0  0  0  0
   -5.0083    6.8809    0.0000 C   0  0  0  0  0  0  0  0  0  0  0  0
   -4.9962    5.3810    0.0000 H   0  0  0  0  0  0  0  0  0  0  0  0
   -6.2830    7.6084    0.0000 C   0  0  0  0  0  0  0  0  0  0  0  0
   -7.5671    6.8331    0.0000 H   0  0  0  0  0  0  0  0  0  0  0  0
   -6.3338    9.0947    0.0000 C   0  0  0  0  0  0  0  0  0  0  0  0
   -7.6567    9.8017    0.0000 H   0  0  0  0  0  0  0  0  0  0  0  0
   -5.0420    9.8957    0.0000 C   0  0  0  0  0  0  0  0  0  0  0  0
   -5.0597   11.3956    0.0000 C   0  0  0  0  0  0  0  0  0  0  0  0
   -6.3676   12.1301    0.0000 H   0  0  0  0  0  0  0  0  0  0  0  0
   -4.5634   12.8111    0.0000 H   0  0  0  0  0  0  0  0  0  0  0  0
   -3.5795   11.1526    0.0000 H   0  0  0  0  0  0  0  0  0  0  0  0
    6.2238   10.0637    0.0000 O   0  0  0  0  0  0  0  0  0  0  0  0
    7.7010   10.3242    0.0000 H   0  0  0  0  0  0  0  0  0  0  0  0
    6.6757    3.7997    0.0000 C   0  0  0  0  0  0  0  0  0  0  0  0
    5.3766    3.0497    0.0000 H   0  0  0  0  0  0  0  0  0  0  0  0
    7.1887    2.3902    0.0000 C   0  0  0  0  0  0  0  0  0  0  0  0
    6.2236    1.2408    0.0000 C   0  0  0  0  0  0  0  0  0  0  0  0
    4.7464    1.5015    0.0000 H   0  0  0  0  0  0  0  0  0  0  0  0
    6.7366   -0.1688    0.0000 C   0  0  0  0  0  0  0  0  0  0  0  0
    5.7726   -1.3180    0.0000 H   0  0  0  0  0  0  0  0  0  0  0  0
    8.2147   -0.4289    0.0000 C   0  0  0  0  0  0  0  0  0  0  0  0
    8.7278   -1.8384    0.0000 H   0  0  0  0  0  0  0  0  0  0  0  0
    9.1798    0.7205    0.0000 C   0  0  0  0  0  0  0  0  0  0  0  0
   10.6570    0.4598    0.0000 H   0  0  0  0  0  0  0  0  0  0  0  0
    8.6668    2.1300    0.0000 C   0  0  0  0  0  0  0  0  0  0  0  0
    9.6308    3.2793    0.0000 H   0  0  0  0  0  0  0  0  0  0  0  0
    5.7115    4.9488    0.0000 O   0  0  0  0  0  0  0  0  0  0  0  0
    4.2343    4.6883    0.0000 H   0  0  0  0  0  0  0  0  0  0  0  0
   14.2844    6.1642    0.0000 N   0  0  0  0  0  0  0  0  0  0  0  0
   14.2840    4.6634    0.0000 C   0  0  0  0  0  0  0  0  0  0  0  0
   12.8068    4.9241    0.0000 H   0  0  0  0  0  0  0  0  0  0  0  0
   13.7708    3.2539    0.0000 H   0  0  0  0  0  0  0  0  0  0  0  0
   15.5830    3.9134    0.0000 C   0  0  0  0  0  0  0  0  0  0  0  0
   14.6189    2.7642    0.0000 H   0  0  0  0  0  0  0  0  0  0  0  0
   16.5474    2.7645    0.0000 H   0  0  0  0  0  0  0  0  0  0  0  0
   16.8825    4.6642    0.0000 C   0  0  0  0  0  0  0  0  0  0  0  0
   17.3957    3.2547    0.0000 H   0  0  0  0  0  0  0  0  0  0  0  0
   18.3598    4.9245    0.0000 H   0  0  0  0  0  0  0  0  0  0  0  0
   16.8830    6.1650    0.0000 N   0  0  0  0  0  0  0  0  0  0  0  0
   18.1822    6.9148    0.0000 H   0  0  0  0  0  0  0  0  0  0  0  0
   15.5840    6.9150    0.0000 C   0  0  0  0  0  0  0  0  0  0  0  0
   15.5837    8.4150    0.0000 O   0  0  0  0  0  0  0  0  0  0  0  0
  1  2  1  0  0  0  0 
  1  3  1  0  0  0  0 
  1  4  1  0  0  0  0 
  1  5  1  0  0  0  0 
  5  6  1  0  0  0  0 
  5  7  1  0  0  0  0 
  7  8  1  0  0  0  0 
  7  9  1  0  0  0  0 
  7 10  1  0  0  0  0 
  5 11  1  0  0  0  0 
 11 12  1  1  0  0  0 
 11 13  1  0  0  0  0 
 13 14  2  0  0  0  0 
 13 15  1  0  0  0  0 
 15 16  1  0  0  0  0 
 17 15  1  1  0  0  0 
 17 18  1  6  0  0  0 
 17 19  1  0  0  0  0 
 19 20  1  0  0  0  0 
 19 21  1  0  0  0  0 
 19 22  1  0  0  0  0 
 22 23  1  6  0  0  0 
 22 24  1  0  0  0  0 
 24 25  1  6  0  0  0 
 24 26  1  0  0  0  0 
 26 27  1  0  0  0  0 
 26 28  1  0  0  0  0 
 26 29  1  0  0  0  0 
 29 30  2  0  0  0  0 
 30 31  1  0  0  0  0 
 30 32  1  0  0  0  0 
 32 33  1  0  0  0  0 
 32 34  2  0  0  0  0 
 34 35  1  0  0  0  0 
 34 36  1  0  0  0  0 
 36 37  1  0  0  0  0 
 36 38  2  0  0  0  0 
 29 38  1  0  0  0  0 
 38 39  1  0  0  0  0 
 24 40  1  1  0  0  0 
 40 41  1  0  0  0  0 
 40 42  1  0  0  0  0 
 42 43  2  0  0  0  0 
 42 44  1  0  0  0  0 
 44 45  1  0  0  0  0 
 44 46  1  0  0  0  0 
 44 47  1  0  0  0  0 
 47 48  1  0  0  0  0 
 48 49  2  0  0  0  0 
 49 50  1  0  0  0  0 
 50 51  1  0  0  0  0 
 50 52  1  0  0  0  0 
 50 53  1  0  0  0  0 
 49 54  1  0  0  0  0 
 54 55  1  0  0  0  0 
 54 56  2  0  0  0  0 
 56 57  1  0  0  0  0 
 56 58  1  0  0  0  0 
 58 59  1  0  0  0  0 
 58 60  2  0  0  0  0 
 48 60  1  0  0  0  0 
 60 61  1  0  0  0  0 
 61 62  1  0  0  0  0 
 61 63  1  0  0  0  0 
 61 64  1  0  0  0  0 
 22 65  1  1  0  0  0 
 65 66  1  0  0  0  0 
 17 67  1  0  0  0  0 
 67 68  1  0  0  0  0 
 67 69  1  0  0  0  0 
 69 70  2  0  0  0  0 
 70 71  1  0  0  0  0 
 70 72  1  0  0  0  0 
 72 73  1  0  0  0  0 
 72 74  2  0  0  0  0 
 74 75  1  0  0  0  0 
 74 76  1  0  0  0  0 
 76 77  1  0  0  0  0 
 76 78  2  0  0  0  0 
 69 78  1  0  0  0  0 
 78 79  1  0  0  0  0 
 67 80  1  0  0  0  0 
 80 81  1  0  0  0  0 
 11 82  1  6  0  0  0 
 82 83  1  0  0  0  0 
 83 84  1  0  0  0  0 
 83 85  1  0  0  0  0 
 83 86  1  0  0  0  0 
 86 87  1  0  0  0  0 
 86 88  1  0  0  0  0 
 86 89  1  0  0  0  0 
 89 90  1  0  0  0  0 
 89 91  1  0  0  0  0 
 89 92  1  0  0  0  0 
 92 93  1  0  0  0  0 
 92 94  1  0  0  0  0 
 82 94  1  0  0  0  0 
 94 95  2  0  0  0  0 
M  END
> <Rank>
34

> <Priority_score>
0.06

> <Reaction_type>
benzylic_hydroxylation_(c-CH2-CR)

> <Parent_ID>
63

> <Parent_InChI>
InChI=1S/C37H48N4O5/c1-25(2)34(41-20-12-19-38-37(41)45)36(44)39-30(21-28-15-7-5-8-16-28)23-32(42)31(22-29-17-9-6-10-18-29)40-33(43)24-46-35-26(3)13-11-14-27(35)4/h5-11,13-18,25,30-32,34,42H,12,19-24H2,1-4H3,(H,38,45)(H,39,44)(H,40,43)

> <Parent_SMILES>
Cc1cccc(C)c1OCC(=O)N[C@@H](Cc1ccccc1)[C@@H](O)C[C@H](Cc1ccccc1)NC(=O)[C@H](C(C)C)N1CCCNC1=O

$$$$
Molecule 63_metabolite 37
  CDK     0516241031

 92 95  0  0  0  0  0  0  0  0999 V2000
   -1.4219    5.7884    0.0000 C   0  0  0  0  0  0  0  0  0  0  0  0
   -0.4577    6.9375    0.0000 H   0  0  0  0  0  0  0  0  0  0  0  0
   -2.3860    6.9375    0.0000 H   0  0  0  0  0  0  0  0  0  0  0  0
   -2.7209    5.0384    0.0000 H   0  0  0  0  0  0  0  0  0  0  0  0
   -0.7447    3.9278    0.0000 C   0  0  0  0  0  0  0  0  0  0  0  0
    0.2195    2.7788    0.0000 H   0  0  0  0  0  0  0  0  0  0  0  0
    0.5544    4.6778    0.0000 C   0  0  0  0  0  0  0  0  0  0  0  0
    1.8534    3.9278    0.0000 H   0  0  0  0  0  0  0  0  0  0  0  0
   -0.4098    5.8269    0.0000 H   0  0  0  0  0  0  0  0  0  0  0  0
    1.5186    5.8269    0.0000 H   0  0  0  0  0  0  0  0  0  0  0  0
   -1.7088    2.7788    0.0000 C   0  0  1  0  0  0  0  0  0  0  0  0
   -2.6730    3.9278    0.0000 H   0  0  0  0  0  0  0  0  0  0  0  0
    0.0059    1.7888    0.0000 C   0  0  0  0  0  0  0  0  0  0  0  0
    1.3049    2.5388    0.0000 O   0  0  0  0  0  0  0  0  0  0  0  0
    0.0059    0.2888    0.0000 N   0  0  0  0  0  0  0  0  0  0  0  0
   -1.2932   -0.4612    0.0000 H   0  0  0  0  0  0  0  0  0  0  0  0
    1.3049   -0.4612    0.0000 C   0  0  1  0  0  0  0  0  0  0  0  0
    0.3407   -1.6103    0.0000 H   0  0  0  0  0  0  0  0  0  0  0  0
    2.2691   -1.6103    0.0000 C   0  0  0  0  0  0  0  0  0  0  0  0
    3.2333   -0.4612    0.0000 H   0  0  0  0  0  0  0  0  0  0  0  0
    3.5681   -2.3603    0.0000 H   0  0  0  0  0  0  0  0  0  0  0  0
    1.7561   -3.0198    0.0000 C   0  0  0  0  0  0  0  0  0  0  0  0
    0.2780   -3.2800    0.0000 C   0  0  0  0  0  0  0  0  0  0  0  0
   -0.6860   -2.1308    0.0000 H   0  0  0  0  0  0  0  0  0  0  0  0
   -0.2351   -4.6895    0.0000 C   0  0  0  0  0  0  0  0  0  0  0  0
   -1.7122   -4.9502    0.0000 H   0  0  0  0  0  0  0  0  0  0  0  0
    0.7300   -5.8389    0.0000 C   0  0  0  0  0  0  0  0  0  0  0  0
    0.2170   -7.2485    0.0000 H   0  0  0  0  0  0  0  0  0  0  0  0
    2.2081   -5.5788    0.0000 C   0  0  0  0  0  0  0  0  0  0  0  0
    3.1721   -6.7280    0.0000 H   0  0  0  0  0  0  0  0  0  0  0  0
    2.7212   -4.1692    0.0000 C   0  0  0  0  0  0  0  0  0  0  0  0
    4.1983   -3.9085    0.0000 H   0  0  0  0  0  0  0  0  0  0  0  0
    3.0197    0.5288    0.0000 C   0  0  0  0  0  0  0  0  0  0  0  0
    3.9838    1.6778    0.0000 H   0  0  0  0  0  0  0  0  0  0  0  0
    2.0555    1.6778    0.0000 H   0  0  0  0  0  0  0  0  0  0  0  0
    4.3187   -0.2212    0.0000 C   0  0  0  0  0  0  0  0  0  0  0  0
    4.3187   -1.7212    0.0000 O   0  0  0  0  0  0  0  0  0  0  0  0
    6.0334    0.7688    0.0000 C   0  0  2  0  0  0  0  0  0  0  0  0
    7.5106    1.0292    0.0000 H   0  0  0  0  0  0  0  0  0  0  0  0
    6.5465   -0.6408    0.0000 C   0  0  0  0  0  0  0  0  0  0  0  0
    6.5465   -2.1408    0.0000 H   0  0  0  0  0  0  0  0  0  0  0  0
    5.0692   -0.9012    0.0000 H   0  0  0  0  0  0  0  0  0  0  0  0
    8.0237   -0.9012    0.0000 C   0  0  0  0  0  0  0  0  0  0  0  0
    8.5365   -2.3117    0.0000 C   0  0  0  0  0  0  0  0  0  0  0  0
    7.5722   -3.4606    0.0000 H   0  0  0  0  0  0  0  0  0  0  0  0
   10.0137   -2.5722    0.0000 C   0  0  0  0  0  0  0  0  0  0  0  0
   10.5270   -3.9817    0.0000 H   0  0  0  0  0  0  0  0  0  0  0  0
   10.9781   -1.4222    0.0000 C   0  0  0  0  0  0  0  0  0  0  0  0
   12.4553   -1.6827    0.0000 H   0  0  0  0  0  0  0  0  0  0  0  0
   10.4652   -0.0117    0.0000 C   0  0  0  0  0  0  0  0  0  0  0  0
   11.4296    1.1372    0.0000 H   0  0  0  0  0  0  0  0  0  0  0  0
    8.9880    0.2488    0.0000 C   0  0  0  0  0  0  0  0  0  0  0  0
    8.4748    1.6582    0.0000 H   0  0  0  0  0  0  0  0  0  0  0  0
    6.0334    2.7488    0.0000 N   0  0  0  0  0  0  0  0  0  0  0  0
    4.7344    3.4988    0.0000 H   0  0  0  0  0  0  0  0  0  0  0  0
    7.3325    3.4988    0.0000 C   0  0  0  0  0  0  0  0  0  0  0  0
    8.6315    2.7488    0.0000 O   0  0  0  0  0  0  0  0  0  0  0  0
    7.3325    4.9988    0.0000 C   0  0  0  0  0  0  0  0  0  0  0  0
    5.8552    4.7383    0.0000 H   0  0  0  0  0  0  0  0  0  0  0  0
    6.8194    6.4083    0.0000 H   0  0  0  0  0  0  0  0  0  0  0  0
    8.6315    5.7488    0.0000 O   0  0  0  0  0  0  0  0  0  0  0  0
    8.6315    7.2488    0.0000 C   0  0  0  0  0  0  0  0  0  0  0  0
    7.3276    7.9882    0.0000 C   0  0  0  0  0  0  0  0  0  0  0  0
    6.0357    7.2260    0.0000 C   0  0  0  0  0  0  0  0  0  0  0  0
    6.0499    5.7260    0.0000 H   0  0  0  0  0  0  0  0  0  0  0  0
    5.5094    8.6306    0.0000 H   0  0  0  0  0  0  0  0  0  0  0  0
    4.5610    6.9516    0.0000 H   0  0  0  0  0  0  0  0  0  0  0  0
    7.3112    9.4684    0.0000 C   0  0  0  0  0  0  0  0  0  0  0  0
    6.0061   10.2079    0.0000 H   0  0  0  0  0  0  0  0  0  0  0  0
    8.5785   10.2086    0.0000 C   0  0  0  0  0  0  0  0  0  0  0  0
    8.5492   11.7083    0.0000 H   0  0  0  0  0  0  0  0  0  0  0  0
    9.8911    9.5094    0.0000 C   0  0  0  0  0  0  0  0  0  0  0  0
   11.1649   10.3016    0.0000 H   0  0  0  0  0  0  0  0  0  0  0  0
    9.9389    7.9902    0.0000 C   0  0  0  0  0  0  0  0  0  0  0  0
   11.2467    7.2556    0.0000 C   0  0  0  0  0  0  0  0  0  0  0  0
   12.5368    8.0209    0.0000 H   0  0  0  0  0  0  0  0  0  0  0  0
   12.2244    6.1180    0.0000 H   0  0  0  0  0  0  0  0  0  0  0  0
   10.2962    6.0952    0.0000 H   0  0  0  0  0  0  0  0  0  0  0  0
   -3.0079    2.0288    0.0000 N   0  0  0  0  0  0  0  0  0  0  0  0
   -3.0074    0.5279    0.0000 C   0  0  0  0  0  0  0  0  0  0  0  0
   -1.5302    0.7887    0.0000 H   0  0  0  0  0  0  0  0  0  0  0  0
   -2.4942   -0.8816    0.0000 H   0  0  0  0  0  0  0  0  0  0  0  0
   -4.3064   -0.2221    0.0000 C   0  0  0  0  0  0  0  0  0  0  0  0
   -3.3424   -1.3712    0.0000 H   0  0  0  0  0  0  0  0  0  0  0  0
   -5.2709   -1.3709    0.0000 H   0  0  0  0  0  0  0  0  0  0  0  0
   -5.6060    0.5288    0.0000 C   0  0  0  0  0  0  0  0  0  0  0  0
   -6.1191   -0.8807    0.0000 H   0  0  0  0  0  0  0  0  0  0  0  0
   -7.0832    0.7891    0.0000 H   0  0  0  0  0  0  0  0  0  0  0  0
   -5.6064    2.0296    0.0000 N   0  0  0  0  0  0  0  0  0  0  0  0
   -6.9056    2.7794    0.0000 H   0  0  0  0  0  0  0  0  0  0  0  0
   -4.3074    2.7796    0.0000 C   0  0  0  0  0  0  0  0  0  0  0  0
   -4.3072    4.2796    0.0000 O   0  0  0  0  0  0  0  0  0  0  0  0
  1  2  1  0  0  0  0 
  1  3  1  0  0  0  0 
  1  4  1  0  0  0  0 
  1  5  1  0  0  0  0 
  5  6  1  0  0  0  0 
  5  7  1  0  0  0  0 
  7  8  1  0  0  0  0 
  7  9  1  0  0  0  0 
  7 10  1  0  0  0  0 
  5 11  1  0  0  0  0 
 11 12  1  6  0  0  0 
 11 13  1  0  0  0  0 
 13 14  2  0  0  0  0 
 13 15  1  0  0  0  0 
 15 16  1  0  0  0  0 
 17 15  1  6  0  0  0 
 17 18  1  1  0  0  0 
 17 19  1  0  0  0  0 
 19 20  1  0  0  0  0 
 19 21  1  0  0  0  0 
 19 22  1  0  0  0  0 
 22 23  2  0  0  0  0 
 23 24  1  0  0  0  0 
 23 25  1  0  0  0  0 
 25 26  1  0  0  0  0 
 25 27  2  0  0  0  0 
 27 28  1  0  0  0  0 
 27 29  1  0  0  0  0 
 29 30  1  0  0  0  0 
 29 31  2  0  0  0  0 
 22 31  1  0  0  0  0 
 31 32  1  0  0  0  0 
 17 33  1  0  0  0  0 
 33 34  1  0  0  0  0 
 33 35  1  0  0  0  0 
 33 36  1  0  0  0  0 
 36 37  2  0  0  0  0 
 36 38  1  0  0  0  0 
 38 39  1  6  0  0  0 
 38 40  1  0  0  0  0 
 40 41  1  0  0  0  0 
 40 42  1  0  0  0  0 
 40 43  1  0  0  0  0 
 43 44  2  0  0  0  0 
 44 45  1  0  0  0  0 
 44 46  1  0  0  0  0 
 46 47  1  0  0  0  0 
 46 48  2  0  0  0  0 
 48 49  1  0  0  0  0 
 48 50  1  0  0  0  0 
 50 51  1  0  0  0  0 
 50 52  2  0  0  0  0 
 43 52  1  0  0  0  0 
 52 53  1  0  0  0  0 
 38 54  1  1  0  0  0 
 54 55  1  0  0  0  0 
 54 56  1  0  0  0  0 
 56 57  2  0  0  0  0 
 56 58  1  0  0  0  0 
 58 59  1  0  0  0  0 
 58 60  1  0  0  0  0 
 58 61  1  0  0  0  0 
 61 62  1  0  0  0  0 
 62 63  2  0  0  0  0 
 63 64  1  0  0  0  0 
 64 65  1  0  0  0  0 
 64 66  1  0  0  0  0 
 64 67  1  0  0  0  0 
 63 68  1  0  0  0  0 
 68 69  1  0  0  0  0 
 68 70  2  0  0  0  0 
 70 71  1  0  0  0  0 
 70 72  1  0  0  0  0 
 72 73  1  0  0  0  0 
 72 74  2  0  0  0  0 
 62 74  1  0  0  0  0 
 74 75  1  0  0  0  0 
 75 76  1  0  0  0  0 
 75 77  1  0  0  0  0 
 75 78  1  0  0  0  0 
 11 79  1  1  0  0  0 
 79 80  1  0  0  0  0 
 80 81  1  0  0  0  0 
 80 82  1  0  0  0  0 
 80 83  1  0  0  0  0 
 83 84  1  0  0  0  0 
 83 85  1  0  0  0  0 
 83 86  1  0  0  0  0 
 86 87  1  0  0  0  0 
 86 88  1  0  0  0  0 
 86 89  1  0  0  0  0 
 89 90  1  0  0  0  0 
 89 91  1  0  0  0  0 
 79 91  1  0  0  0  0 
 91 92  2  0  0  0  0 
M  END
> <Rank>
34

> <Priority_score>
0.06

> <Reaction_type>
secondary_alcohol_oxidation_(aliphatic)

> <Parent_ID>
63

> <Parent_InChI>
InChI=1S/C37H48N4O5/c1-25(2)34(41-20-12-19-38-37(41)45)36(44)39-30(21-28-15-7-5-8-16-28)23-32(42)31(22-29-17-9-6-10-18-29)40-33(43)24-46-35-26(3)13-11-14-27(35)4/h5-11,13-18,25,30-32,34,42H,12,19-24H2,1-4H3,(H,38,45)(H,39,44)(H,40,43)

> <Parent_SMILES>
Cc1cccc(C)c1OCC(=O)N[C@@H](Cc1ccccc1)[C@@H](O)C[C@H](Cc1ccccc1)NC(=O)[C@H](C(C)C)N1CCCNC1=O

$$$$
Molecule 63_metabolite 38
  CDK     0516241031

 30 30  0  0  0  0  0  0  0  0999 V2000
    1.7147    6.4500    0.0000 C   0  0  0  0  0  0  0  0  0  0  0  0
    3.0138    7.2000    0.0000 H   0  0  0  0  0  0  0  0  0  0  0  0
    1.2017    7.8595    0.0000 H   0  0  0  0  0  0  0  0  0  0  0  0
    0.2375    6.1895    0.0000 H   0  0  0  0  0  0  0  0  0  0  0  0
    1.7147    4.9500    0.0000 C   0  0  0  0  0  0  0  0  0  0  0  0
    2.2278    3.5405    0.0000 H   0  0  0  0  0  0  0  0  0  0  0  0
    3.1919    5.2105    0.0000 C   0  0  0  0  0  0  0  0  0  0  0  0
    3.7050    6.6200    0.0000 H   0  0  0  0  0  0  0  0  0  0  0  0
    3.1919    3.7105    0.0000 H   0  0  0  0  0  0  0  0  0  0  0  0
    4.6692    4.9500    0.0000 H   0  0  0  0  0  0  0  0  0  0  0  0
    0.0000    3.9600    0.0000 C   0  0  1  0  0  0  0  0  0  0  0  0
   -0.5130    5.3695    0.0000 H   0  0  0  0  0  0  0  0  0  0  0  0
   -1.5000    3.9600    0.0000 C   0  0  0  0  0  0  0  0  0  0  0  0
   -2.4642    2.8109    0.0000 O   0  0  0  0  0  0  0  0  0  0  0  0
   -2.2500    5.2590    0.0000 O   0  0  0  0  0  0  0  0  0  0  0  0
   -3.7500    5.2590    0.0000 H   0  0  0  0  0  0  0  0  0  0  0  0
    0.0000    1.5000    0.0000 N   0  0  0  0  0  0  0  0  0  0  0  0
   -1.3000    0.7500    0.0000 C   0  0  0  0  0  0  0  0  0  0  0  0
   -1.8127    2.1596    0.0000 H   0  0  0  0  0  0  0  0  0  0  0  0
   -2.7772    0.4897    0.0000 H   0  0  0  0  0  0  0  0  0  0  0  0
   -1.3000   -0.7500    0.0000 C   0  0  0  0  0  0  0  0  0  0  0  0
   -2.7772   -0.4897    0.0000 H   0  0  0  0  0  0  0  0  0  0  0  0
   -1.8127   -2.1596    0.0000 H   0  0  0  0  0  0  0  0  0  0  0  0
    0.0000   -1.5000    0.0000 C   0  0  0  0  0  0  0  0  0  0  0  0
   -0.9641   -2.6492    0.0000 H   0  0  0  0  0  0  0  0  0  0  0  0
    0.9641   -2.6492    0.0000 H   0  0  0  0  0  0  0  0  0  0  0  0
    1.3000   -0.7500    0.0000 N   0  0  0  0  0  0  0  0  0  0  0  0
    2.5989   -1.5002    0.0000 H   0  0  0  0  0  0  0  0  0  0  0  0
    1.3000    0.7500    0.0000 C   0  0  0  0  0  0  0  0  0  0  0  0
    2.5989    1.5002    0.0000 O   0  0  0  0  0  0  0  0  0  0  0  0
  1  2  1  0  0  0  0 
  1  3  1  0  0  0  0 
  1  4  1  0  0  0  0 
  1  5  1  0  0  0  0 
  5  6  1  0  0  0  0 
  5  7  1  0  0  0  0 
  7  8  1  0  0  0  0 
  7  9  1  0  0  0  0 
  7 10  1  0  0  0  0 
  5 11  1  0  0  0  0 
 11 12  1  1  0  0  0 
 11 13  1  6  0  0  0 
 13 14  2  0  0  0  0 
 13 15  1  0  0  0  0 
 15 16  1  0  0  0  0 
 11 17  1  0  0  0  0 
 17 18  1  0  0  0  0 
 18 19  1  0  0  0  0 
 18 20  1  0  0  0  0 
 18 21  1  0  0  0  0 
 21 22  1  0  0  0  0 
 21 23  1  0  0  0  0 
 21 24  1  0  0  0  0 
 24 25  1  0  0  0  0 
 24 26  1  0  0  0  0 
 24 27  1  0  0  0  0 
 27 28  1  0  0  0  0 
 27 29  1  0  0  0  0 
 17 29  1  0  0  0  0 
 29 30  2  0  0  0  0 
M  END
> <Rank>
38

> <Priority_score>
0.056

> <Reaction_type>
hydrolysis_(secondary_amide)

> <Parent_ID>
63

> <Parent_InChI>
InChI=1S/C37H48N4O5/c1-25(2)34(41-20-12-19-38-37(41)45)36(44)39-30(21-28-15-7-5-8-16-28)23-32(42)31(22-29-17-9-6-10-18-29)40-33(43)24-46-35-26(3)13-11-14-27(35)4/h5-11,13-18,25,30-32,34,42H,12,19-24H2,1-4H3,(H,38,45)(H,39,44)(H,40,43)

> <Parent_SMILES>
Cc1cccc(C)c1OCC(=O)N[C@@H](Cc1ccccc1)[C@@H](O)C[C@H](Cc1ccccc1)NC(=O)[C@H](C(C)C)N1CCCNC1=O

$$$$
Molecule 63_metabolite 39
  CDK     0516241031

 95 98  0  0  0  0  0  0  0  0999 V2000
    3.1851   13.6545    0.0000 C   0  0  0  0  0  0  0  0  0  0  0  0
    1.7755   14.1675    0.0000 H   0  0  0  0  0  0  0  0  0  0  0  0
    3.4456   15.1317    0.0000 H   0  0  0  0  0  0  0  0  0  0  0  0
    4.6851   13.6545    0.0000 H   0  0  0  0  0  0  0  0  0  0  0  0
    3.6123   11.2319    0.0000 C   0  0  0  0  0  0  0  0  0  0  0  0
    3.3518    9.7547    0.0000 H   0  0  0  0  0  0  0  0  0  0  0  0
    1.1523   11.2319    0.0000 C   0  0  0  0  0  0  0  0  0  0  0  0
    0.4023    9.9328    0.0000 H   0  0  0  0  0  0  0  0  0  0  0  0
    1.4127   12.7091    0.0000 H   0  0  0  0  0  0  0  0  0  0  0  0
   -0.2573   11.7449    0.0000 H   0  0  0  0  0  0  0  0  0  0  0  0
    5.0218   10.7188    0.0000 C   0  0  1  0  0  0  0  0  0  0  0  0
    5.2823   12.1960    0.0000 H   0  0  0  0  0  0  0  0  0  0  0  0
    3.7918    8.5884    0.0000 C   0  0  0  0  0  0  0  0  0  0  0  0
    4.5418    7.2894    0.0000 O   0  0  0  0  0  0  0  0  0  0  0  0
    2.2918    8.5884    0.0000 N   0  0  0  0  0  0  0  0  0  0  0  0
    1.3018    6.8737    0.0000 C   0  0  1  0  0  0  0  0  0  0  0  0
    2.7113    6.3607    0.0000 H   0  0  0  0  0  0  0  0  0  0  0  0
    1.0413    5.3965    0.0000 C   0  0  0  0  0  0  0  0  0  0  0  0
   -0.3682    5.9095    0.0000 H   0  0  0  0  0  0  0  0  0  0  0  0
    0.2913    4.0974    0.0000 H   0  0  0  0  0  0  0  0  0  0  0  0
    2.1904    4.4323    0.0000 C   0  0  0  0  0  0  0  0  0  0  0  0
    3.6005    4.9461    0.0000 C   0  0  0  0  0  0  0  0  0  0  0  0
    3.8608    6.4233    0.0000 H   0  0  0  0  0  0  0  0  0  0  0  0
    4.7496    3.9819    0.0000 C   0  0  0  0  0  0  0  0  0  0  0  0
    6.1592    4.4947    0.0000 H   0  0  0  0  0  0  0  0  0  0  0  0
    4.4885    2.5039    0.0000 C   0  0  0  0  0  0  0  0  0  0  0  0
    5.6376    1.5397    0.0000 H   0  0  0  0  0  0  0  0  0  0  0  0
    3.0784    1.9902    0.0000 C   0  0  0  0  0  0  0  0  0  0  0  0
    2.8181    0.5129    0.0000 H   0  0  0  0  0  0  0  0  0  0  0  0
    1.9293    2.9543    0.0000 C   0  0  0  0  0  0  0  0  0  0  0  0
    0.5197    2.4415    0.0000 H   0  0  0  0  0  0  0  0  0  0  0  0
   -0.6782    6.8737    0.0000 C   0  0  0  0  0  0  0  0  0  0  0  0
   -2.0877    7.3867    0.0000 H   0  0  0  0  0  0  0  0  0  0  0  0
   -0.4177    8.3509    0.0000 H   0  0  0  0  0  0  0  0  0  0  0  0
   -1.4282    5.5746    0.0000 C   0  0  1  0  0  0  0  0  0  0  0  0
   -0.0187    5.0616    0.0000 H   0  0  0  0  0  0  0  0  0  0  0  0
   -4.3682    5.5746    0.0000 C   0  0  2  0  0  0  0  0  0  0  0  0
   -5.7777    5.0616    0.0000 H   0  0  0  0  0  0  0  0  0  0  0  0
   -4.1077    4.0974    0.0000 C   0  0  0  0  0  0  0  0  0  0  0  0
   -3.3577    2.7984    0.0000 H   0  0  0  0  0  0  0  0  0  0  0  0
   -2.6982    4.6105    0.0000 H   0  0  0  0  0  0  0  0  0  0  0  0
   -5.2568    3.1333    0.0000 C   0  0  0  0  0  0  0  0  0  0  0  0
   -4.9957    1.6553    0.0000 C   0  0  0  0  0  0  0  0  0  0  0  0
   -3.5861    1.1425    0.0000 H   0  0  0  0  0  0  0  0  0  0  0  0
   -6.1448    0.6911    0.0000 C   0  0  0  0  0  0  0  0  0  0  0  0
   -5.8845   -0.7861    0.0000 H   0  0  0  0  0  0  0  0  0  0  0  0
   -7.5549    1.2049    0.0000 C   0  0  0  0  0  0  0  0  0  0  0  0
   -8.7040    0.2407    0.0000 H   0  0  0  0  0  0  0  0  0  0  0  0
   -7.8160    2.6828    0.0000 C   0  0  0  0  0  0  0  0  0  0  0  0
   -9.2256    3.1956    0.0000 H   0  0  0  0  0  0  0  0  0  0  0  0
   -6.6670    3.6470    0.0000 C   0  0  0  0  0  0  0  0  0  0  0  0
   -6.9272    5.1243    0.0000 H   0  0  0  0  0  0  0  0  0  0  0  0
   -5.3582    7.2894    0.0000 N   0  0  0  0  0  0  0  0  0  0  0  0
   -4.6082    8.5884    0.0000 H   0  0  0  0  0  0  0  0  0  0  0  0
   -6.8582    7.2894    0.0000 C   0  0  0  0  0  0  0  0  0  0  0  0
   -7.6082    5.9903    0.0000 O   0  0  0  0  0  0  0  0  0  0  0  0
   -7.6082    8.5884    0.0000 C   0  0  0  0  0  0  0  0  0  0  0  0
   -6.1987    9.1014    0.0000 H   0  0  0  0  0  0  0  0  0  0  0  0
   -7.8687   10.0656    0.0000 H   0  0  0  0  0  0  0  0  0  0  0  0
   -9.1082    8.5884    0.0000 O   0  0  0  0  0  0  0  0  0  0  0  0
   -9.8582    9.8875    0.0000 C   0  0  0  0  0  0  0  0  0  0  0  0
   -9.0987   11.1797    0.0000 C   0  0  0  0  0  0  0  0  0  0  0  0
   -7.5988   11.1656    0.0000 C   0  0  0  0  0  0  0  0  0  0  0  0
   -6.8611    9.8596    0.0000 H   0  0  0  0  0  0  0  0  0  0  0  0
   -7.8453   12.6452    0.0000 H   0  0  0  0  0  0  0  0  0  0  0  0
   -6.1845   11.6653    0.0000 H   0  0  0  0  0  0  0  0  0  0  0  0
   -9.8246   12.4699    0.0000 C   0  0  0  0  0  0  0  0  0  0  0  0
   -9.0641   13.7628    0.0000 H   0  0  0  0  0  0  0  0  0  0  0  0
  -11.2922   12.4772    0.0000 C   0  0  0  0  0  0  0  0  0  0  0  0
  -12.0167   13.7907    0.0000 H   0  0  0  0  0  0  0  0  0  0  0  0
  -12.0794   11.2154    0.0000 C   0  0  0  0  0  0  0  0  0  0  0  0
  -13.5786   11.2646    0.0000 H   0  0  0  0  0  0  0  0  0  0  0  0
  -11.3611    9.8759    0.0000 C   0  0  0  0  0  0  0  0  0  0  0  0
  -12.1265    8.5858    0.0000 C   0  0  0  0  0  0  0  0  0  0  0  0
  -13.6264    8.6035    0.0000 H   0  0  0  0  0  0  0  0  0  0  0  0
  -12.4044    7.1118    0.0000 H   0  0  0  0  0  0  0  0  0  0  0  0
  -10.7231    8.0561    0.0000 H   0  0  0  0  0  0  0  0  0  0  0  0
   -1.6887    4.0974    0.0000 O   0  0  0  0  0  0  0  0  0  0  0  0
   -0.5396    3.1333    0.0000 H   0  0  0  0  0  0  0  0  0  0  0  0
    1.5418    9.8875    0.0000 O   0  0  0  0  0  0  0  0  0  0  0  0
    2.2918   11.1865    0.0000 H   0  0  0  0  0  0  0  0  0  0  0  0
    6.5218   10.7188    0.0000 N   0  0  0  0  0  0  0  0  0  0  0  0
    7.2718    9.4188    0.0000 C   0  0  0  0  0  0  0  0  0  0  0  0
    5.8621    8.9061    0.0000 H   0  0  0  0  0  0  0  0  0  0  0  0
    7.5321    7.9416    0.0000 H   0  0  0  0  0  0  0  0  0  0  0  0
    8.7718    9.4188    0.0000 C   0  0  0  0  0  0  0  0  0  0  0  0
    8.5115    7.9416    0.0000 H   0  0  0  0  0  0  0  0  0  0  0  0
   10.1814    8.9061    0.0000 H   0  0  0  0  0  0  0  0  0  0  0  0
    9.5218   10.7188    0.0000 C   0  0  0  0  0  0  0  0  0  0  0  0
   10.6710    9.7548    0.0000 H   0  0  0  0  0  0  0  0  0  0  0  0
   10.6710   11.6829    0.0000 H   0  0  0  0  0  0  0  0  0  0  0  0
    8.7718   12.0188    0.0000 N   0  0  0  0  0  0  0  0  0  0  0  0
    9.5220   13.3178    0.0000 H   0  0  0  0  0  0  0  0  0  0  0  0
    7.2718   12.0188    0.0000 C   0  0  0  0  0  0  0  0  0  0  0  0
    6.5216   13.3178    0.0000 O   0  0  0  0  0  0  0  0  0  0  0  0
  1  2  1  0  0  0  0 
  1  3  1  0  0  0  0 
  1  4  1  0  0  0  0 
  1  5  1  0  0  0  0 
  5  6  1  0  0  0  0 
  5  7  1  0  0  0  0 
  7  8  1  0  0  0  0 
  7  9  1  0  0  0  0 
  7 10  1  0  0  0  0 
  5 11  1  0  0  0  0 
 11 12  1  1  0  0  0 
 11 13  1  0  0  0  0 
 13 14  2  0  0  0  0 
 13 15  1  0  0  0  0 
 16 15  1  1  0  0  0 
 16 17  1  6  0  0  0 
 16 18  1  0  0  0  0 
 18 19  1  0  0  0  0 
 18 20  1  0  0  0  0 
 18 21  1  0  0  0  0 
 21 22  2  0  0  0  0 
 22 23  1  0  0  0  0 
 22 24  1  0  0  0  0 
 24 25  1  0  0  0  0 
 24 26  2  0  0  0  0 
 26 27  1  0  0  0  0 
 26 28  1  0  0  0  0 
 28 29  1  0  0  0  0 
 28 30  2  0  0  0  0 
 21 30  1  0  0  0  0 
 30 31  1  0  0  0  0 
 16 32  1  0  0  0  0 
 32 33  1  0  0  0  0 
 32 34  1  0  0  0  0 
 32 35  1  0  0  0  0 
 35 36  1  1  0  0  0 
 35 37  1  0  0  0  0 
 37 38  1  1  0  0  0 
 37 39  1  0  0  0  0 
 39 40  1  0  0  0  0 
 39 41  1  0  0  0  0 
 39 42  1  0  0  0  0 
 42 43  2  0  0  0  0 
 43 44  1  0  0  0  0 
 43 45  1  0  0  0  0 
 45 46  1  0  0  0  0 
 45 47  2  0  0  0  0 
 47 48  1  0  0  0  0 
 47 49  1  0  0  0  0 
 49 50  1  0  0  0  0 
 49 51  2  0  0  0  0 
 42 51  1  0  0  0  0 
 51 52  1  0  0  0  0 
 37 53  1  6  0  0  0 
 53 54  1  0  0  0  0 
 53 55  1  0  0  0  0 
 55 56  2  0  0  0  0 
 55 57  1  0  0  0  0 
 57 58  1  0  0  0  0 
 57 59  1  0  0  0  0 
 57 60  1  0  0  0  0 
 60 61  1  0  0  0  0 
 61 62  2  0  0  0  0 
 62 63  1  0  0  0  0 
 63 64  1  0  0  0  0 
 63 65  1  0  0  0  0 
 63 66  1  0  0  0  0 
 62 67  1  0  0  0  0 
 67 68  1  0  0  0  0 
 67 69  2  0  0  0  0 
 69 70  1  0  0  0  0 
 69 71  1  0  0  0  0 
 71 72  1  0  0  0  0 
 71 73  2  0  0  0  0 
 61 73  1  0  0  0  0 
 73 74  1  0  0  0  0 
 74 75  1  0  0  0  0 
 74 76  1  0  0  0  0 
 74 77  1  0  0  0  0 
 35 78  1  6  0  0  0 
 78 79  1  0  0  0  0 
 15 80  1  0  0  0  0 
 80 81  1  0  0  0  0 
 11 82  1  6  0  0  0 
 82 83  1  0  0  0  0 
 83 84  1  0  0  0  0 
 83 85  1  0  0  0  0 
 83 86  1  0  0  0  0 
 86 87  1  0  0  0  0 
 86 88  1  0  0  0  0 
 86 89  1  0  0  0  0 
 89 90  1  0  0  0  0 
 89 91  1  0  0  0  0 
 89 92  1  0  0  0  0 
 92 93  1  0  0  0  0 
 92 94  1  0  0  0  0 
 82 94  1  0  0  0  0 
 94 95  2  0  0  0  0 
M  END
> <Rank>
38

> <Priority_score>
0.056

> <Reaction_type>
amine hydroxylation

> <Parent_ID>
63

> <Parent_InChI>
InChI=1S/C37H48N4O5/c1-25(2)34(41-20-12-19-38-37(41)45)36(44)39-30(21-28-15-7-5-8-16-28)23-32(42)31(22-29-17-9-6-10-18-29)40-33(43)24-46-35-26(3)13-11-14-27(35)4/h5-11,13-18,25,30-32,34,42H,12,19-24H2,1-4H3,(H,38,45)(H,39,44)(H,40,43)

> <Parent_SMILES>
Cc1cccc(C)c1OCC(=O)N[C@@H](Cc1ccccc1)[C@@H](O)C[C@H](Cc1ccccc1)NC(=O)[C@H](C(C)C)N1CCCNC1=O

$$$$
Molecule 63_metabolite 40
  CDK     0516241031

 67 69  0  0  0  0  0  0  0  0999 V2000
   -2.4952   -7.4724    0.0000 C   0  0  0  0  0  0  0  0  0  0  0  0
   -0.9964   -7.4112    0.0000 H   0  0  0  0  0  0  0  0  0  0  0  0
   -3.8826   -8.0426    0.0000 H   0  0  0  0  0  0  0  0  0  0  0  0
   -2.1746   -8.9378    0.0000 H   0  0  0  0  0  0  0  0  0  0  0  0
   -3.2976   -6.2051    0.0000 C   0  0  0  0  0  0  0  0  0  0  0  0
   -4.7765   -6.2680    0.0000 C   0  0  0  0  0  0  0  0  0  0  0  0
   -5.4747   -7.5957    0.0000 H   0  0  0  0  0  0  0  0  0  0  0  0
   -5.5561   -5.0245    0.0000 C   0  0  0  0  0  0  0  0  0  0  0  0
   -7.0542   -5.1010    0.0000 H   0  0  0  0  0  0  0  0  0  0  0  0
   -4.8986   -3.6906    0.0000 C   0  0  0  0  0  0  0  0  0  0  0  0
   -5.7303   -2.4424    0.0000 H   0  0  0  0  0  0  0  0  0  0  0  0
   -3.3815   -3.5952    0.0000 C   0  0  0  0  0  0  0  0  0  0  0  0
   -2.5995   -4.8787    0.0000 C   0  0  0  0  0  0  0  0  0  0  0  0
   -1.1002   -4.8316    0.0000 O   0  0  0  0  0  0  0  0  0  0  0  0
   -0.3098   -6.1064    0.0000 C   0  0  0  0  0  0  0  0  0  0  0  0
   -1.7025   -6.6634    0.0000 H   0  0  0  0  0  0  0  0  0  0  0  0
   -0.0030   -7.5747    0.0000 H   0  0  0  0  0  0  0  0  0  0  0  0
    1.1895   -6.0593    0.0000 C   0  0  0  0  0  0  0  0  0  0  0  0
    1.8983   -4.7374    0.0000 O   0  0  0  0  0  0  0  0  0  0  0  0
    1.9799   -7.3342    0.0000 N   0  0  0  0  0  0  0  0  0  0  0  0
    1.2711   -8.6561    0.0000 H   0  0  0  0  0  0  0  0  0  0  0  0
    3.9589   -7.2720    0.0000 C   0  0  1  0  0  0  0  0  0  0  0  0
    5.3839   -7.7405    0.0000 H   0  0  0  0  0  0  0  0  0  0  0  0
    3.7450   -8.7567    0.0000 C   0  0  0  0  0  0  0  0  0  0  0  0
    3.0361  -10.0786    0.0000 H   0  0  0  0  0  0  0  0  0  0  0  0
    2.3200   -8.2881    0.0000 H   0  0  0  0  0  0  0  0  0  0  0  0
    4.9237   -9.6843    0.0000 C   0  0  0  0  0  0  0  0  0  0  0  0
    4.7092  -11.1697    0.0000 C   0  0  0  0  0  0  0  0  0  0  0  0
    3.3164  -11.7265    0.0000 H   0  0  0  0  0  0  0  0  0  0  0  0
    5.8880  -12.0973    0.0000 C   0  0  0  0  0  0  0  0  0  0  0  0
    5.6742  -13.5820    0.0000 H   0  0  0  0  0  0  0  0  0  0  0  0
    7.2813  -11.5395    0.0000 C   0  0  0  0  0  0  0  0  0  0  0  0
    8.4601  -12.4672    0.0000 H   0  0  0  0  0  0  0  0  0  0  0  0
    7.4958  -10.0541    0.0000 C   0  0  0  0  0  0  0  0  0  0  0  0
    8.8887   -9.4973    0.0000 H   0  0  0  0  0  0  0  0  0  0  0  0
    6.3171   -9.1265    0.0000 C   0  0  0  0  0  0  0  0  0  0  0  0
    6.5308   -7.6418    0.0000 H   0  0  0  0  0  0  0  0  0  0  0  0
    4.8946   -5.5270    0.0000 C   0  0  2  0  0  0  0  0  0  0  0  0
    3.4696   -5.0585    0.0000 H   0  0  0  0  0  0  0  0  0  0  0  0
    6.3939   -5.4799    0.0000 C   0  0  0  0  0  0  0  0  0  0  0  0
    7.8188   -5.9485    0.0000 H   0  0  0  0  0  0  0  0  0  0  0  0
    6.1799   -6.9646    0.0000 H   0  0  0  0  0  0  0  0  0  0  0  0
    7.3295   -3.7350    0.0000 C   0  0  2  0  0  0  0  0  0  0  0  0
    5.9046   -3.2664    0.0000 H   0  0  0  0  0  0  0  0  0  0  0  0
    9.3086   -3.6728    0.0000 C   0  0  0  0  0  0  0  0  0  0  0  0
   10.7335   -4.1413    0.0000 H   0  0  0  0  0  0  0  0  0  0  0  0
    9.0946   -5.1575    0.0000 H   0  0  0  0  0  0  0  0  0  0  0  0
   10.2442   -1.9278    0.0000 C   0  0  0  0  0  0  0  0  0  0  0  0
   11.7443   -1.8812    0.0000 C   0  0  0  0  0  0  0  0  0  0  0  0
   12.5346   -3.1562    0.0000 H   0  0  0  0  0  0  0  0  0  0  0  0
   12.4532   -0.5592    0.0000 C   0  0  0  0  0  0  0  0  0  0  0  0
   13.9524   -0.5119    0.0000 H   0  0  0  0  0  0  0  0  0  0  0  0
   11.6619    0.7161    0.0000 C   0  0  0  0  0  0  0  0  0  0  0  0
   12.3708    2.0380    0.0000 H   0  0  0  0  0  0  0  0  0  0  0  0
   10.1618    0.6694    0.0000 C   0  0  0  0  0  0  0  0  0  0  0  0
    9.3716    1.9444    0.0000 H   0  0  0  0  0  0  0  0  0  0  0  0
    9.4530   -0.6525    0.0000 C   0  0  0  0  0  0  0  0  0  0  0  0
    7.9537   -0.6999    0.0000 H   0  0  0  0  0  0  0  0  0  0  0  0
    7.5435   -2.2503    0.0000 N   0  0  0  0  0  0  0  0  0  0  0  0
    8.9362   -1.6933    0.0000 H   0  0  0  0  0  0  0  0  0  0  0  0
    6.3647   -1.3227    0.0000 H   0  0  0  0  0  0  0  0  0  0  0  0
    5.1086   -4.0424    0.0000 O   0  0  0  0  0  0  0  0  0  0  0  0
    3.9298   -3.1147    0.0000 H   0  0  0  0  0  0  0  0  0  0  0  0
   -2.6884   -2.2650    0.0000 C   0  0  0  0  0  0  0  0  0  0  0  0
   -3.4939   -0.9996    0.0000 H   0  0  0  0  0  0  0  0  0  0  0  0
   -1.5821   -1.2520    0.0000 H   0  0  0  0  0  0  0  0  0  0  0  0
   -1.4987   -3.1786    0.0000 H   0  0  0  0  0  0  0  0  0  0  0  0
  1  2  1  0  0  0  0 
  1  3  1  0  0  0  0 
  1  4  1  0  0  0  0 
  1  5  1  0  0  0  0 
  5  6  2  0  0  0  0 
  6  7  1  0  0  0  0 
  6  8  1  0  0  0  0 
  8  9  1  0  0  0  0 
  8 10  2  0  0  0  0 
 10 11  1  0  0  0  0 
 10 12  1  0  0  0  0 
 12 13  2  0  0  0  0 
  5 13  1  0  0  0  0 
 13 14  1  0  0  0  0 
 14 15  1  0  0  0  0 
 15 16  1  0  0  0  0 
 15 17  1  0  0  0  0 
 15 18  1  0  0  0  0 
 18 19  2  0  0  0  0 
 18 20  1  0  0  0  0 
 20 21  1  0  0  0  0 
 20 22  1  0  0  0  0 
 22 23  1  1  0  0  0 
 22 24  1  6  0  0  0 
 24 25  1  0  0  0  0 
 24 26  1  0  0  0  0 
 24 27  1  0  0  0  0 
 27 28  2  0  0  0  0 
 28 29  1  0  0  0  0 
 28 30  1  0  0  0  0 
 30 31  1  0  0  0  0 
 30 32  2  0  0  0  0 
 32 33  1  0  0  0  0 
 32 34  1  0  0  0  0 
 34 35  1  0  0  0  0 
 34 36  2  0  0  0  0 
 27 36  1  0  0  0  0 
 36 37  1  0  0  0  0 
 22 38  1  0  0  0  0 
 38 39  1  6  0  0  0 
 38 40  1  0  0  0  0 
 40 41  1  0  0  0  0 
 40 42  1  0  0  0  0 
 40 43  1  0  0  0  0 
 43 44  1  6  0  0  0 
 43 45  1  0  0  0  0 
 45 46  1  0  0  0  0 
 45 47  1  0  0  0  0 
 45 48  1  0  0  0  0 
 48 49  2  0  0  0  0 
 49 50  1  0  0  0  0 
 49 51  1  0  0  0  0 
 51 52  1  0  0  0  0 
 51 53  2  0  0  0  0 
 53 54  1  0  0  0  0 
 53 55  1  0  0  0  0 
 55 56  1  0  0  0  0 
 55 57  2  0  0  0  0 
 48 57  1  0  0  0  0 
 57 58  1  0  0  0  0 
 43 59  1  1  0  0  0 
 59 60  1  0  0  0  0 
 59 61  1  0  0  0  0 
 38 62  1  1  0  0  0 
 62 63  1  0  0  0  0 
 12 64  1  0  0  0  0 
 64 65  1  0  0  0  0 
 64 66  1  0  0  0  0 
 64 67  1  0  0  0  0 
M  END
> <Rank>
38

> <Priority_score>
0.056

> <Reaction_type>
hydrolysis_(secondary_amide)

> <Parent_ID>
63

> <Parent_InChI>
InChI=1S/C37H48N4O5/c1-25(2)34(41-20-12-19-38-37(41)45)36(44)39-30(21-28-15-7-5-8-16-28)23-32(42)31(22-29-17-9-6-10-18-29)40-33(43)24-46-35-26(3)13-11-14-27(35)4/h5-11,13-18,25,30-32,34,42H,12,19-24H2,1-4H3,(H,38,45)(H,39,44)(H,40,43)

> <Parent_SMILES>
Cc1cccc(C)c1OCC(=O)N[C@@H](Cc1ccccc1)[C@@H](O)C[C@H](Cc1ccccc1)NC(=O)[C@H](C(C)C)N1CCCNC1=O

$$$$
Molecule 63_metabolite 41
  CDK     0516241031

 95 97  0  0  0  0  0  0  0  0999 V2000
   -8.2519    0.0236    0.0000 C   0  0  0  0  0  0  0  0  0  0  0  0
   -9.7291    0.2841    0.0000 H   0  0  0  0  0  0  0  0  0  0  0  0
   -6.9528   -0.7264    0.0000 H   0  0  0  0  0  0  0  0  0  0  0  0
   -8.7649   -1.3859    0.0000 H   0  0  0  0  0  0  0  0  0  0  0  0
   -6.6706    1.9081    0.0000 C   0  0  0  0  0  0  0  0  0  0  0  0
   -5.3716    2.6581    0.0000 H   0  0  0  0  0  0  0  0  0  0  0  0
   -4.7808   -0.3441    0.0000 C   0  0  0  0  0  0  0  0  0  0  0  0
   -3.3036   -0.0836    0.0000 H   0  0  0  0  0  0  0  0  0  0  0  0
   -6.0799   -1.0941    0.0000 H   0  0  0  0  0  0  0  0  0  0  0  0
   -4.2678   -1.7536    0.0000 H   0  0  0  0  0  0  0  0  0  0  0  0
   -7.1837    3.3176    0.0000 C   0  0  1  0  0  0  0  0  0  0  0  0
   -8.4827    2.5676    0.0000 H   0  0  0  0  0  0  0  0  0  0  0  0
   -5.2337    3.6615    0.0000 C   0  0  0  0  0  0  0  0  0  0  0  0
   -4.2696    2.5124    0.0000 O   0  0  0  0  0  0  0  0  0  0  0  0
   -4.7207    5.0710    0.0000 N   0  0  0  0  0  0  0  0  0  0  0  0
   -5.6849    6.2201    0.0000 H   0  0  0  0  0  0  0  0  0  0  0  0
   -2.7708    5.4148    0.0000 C   0  0  1  0  0  0  0  0  0  0  0  0
   -2.7708    3.9148    0.0000 H   0  0  0  0  0  0  0  0  0  0  0  0
   -1.7652    8.1775    0.0000 C   0  0  0  0  0  0  0  0  0  0  0  0
   -0.8011    9.3266    0.0000 H   0  0  0  0  0  0  0  0  0  0  0  0
   -0.4662    7.4275    0.0000 H   0  0  0  0  0  0  0  0  0  0  0  0
   -2.7294    9.3266    0.0000 C   0  0  0  0  0  0  0  0  0  0  0  0
   -2.2157   10.7368    0.0000 C   0  0  0  0  0  0  0  0  0  0  0  0
   -0.7384   10.9970    0.0000 H   0  0  0  0  0  0  0  0  0  0  0  0
   -3.1798   11.8858    0.0000 C   0  0  0  0  0  0  0  0  0  0  0  0
   -2.6670   13.2954    0.0000 H   0  0  0  0  0  0  0  0  0  0  0  0
   -4.6578   11.6247    0.0000 C   0  0  0  0  0  0  0  0  0  0  0  0
   -5.6220   12.7738    0.0000 H   0  0  0  0  0  0  0  0  0  0  0  0
   -5.1716   10.2146    0.0000 C   0  0  0  0  0  0  0  0  0  0  0  0
   -6.6488    9.9543    0.0000 H   0  0  0  0  0  0  0  0  0  0  0  0
   -4.2074    9.0655    0.0000 C   0  0  0  0  0  0  0  0  0  0  0  0
   -4.7202    7.6559    0.0000 H   0  0  0  0  0  0  0  0  0  0  0  0
   -1.2936    5.1544    0.0000 C   0  0  0  0  0  0  0  0  0  0  0  0
   -1.2936    6.6544    0.0000 H   0  0  0  0  0  0  0  0  0  0  0  0
    0.1836    5.4148    0.0000 H   0  0  0  0  0  0  0  0  0  0  0  0
   -0.6164    3.2938    0.0000 C   0  0  1  0  0  0  0  0  0  0  0  0
   -0.6164    1.7938    0.0000 H   0  0  0  0  0  0  0  0  0  0  0  0
    1.3335    2.9499    0.0000 C   0  0  2  0  0  0  0  0  0  0  0  0
    1.3335    4.4499    0.0000 H   0  0  0  0  0  0  0  0  0  0  0  0
    3.2835    3.2938    0.0000 C   0  0  0  0  0  0  0  0  0  0  0  0
    3.2835    1.7938    0.0000 H   0  0  0  0  0  0  0  0  0  0  0  0
    4.7607    3.0333    0.0000 H   0  0  0  0  0  0  0  0  0  0  0  0
    3.7965    4.7033    0.0000 C   0  0  0  0  0  0  0  0  0  0  0  0
    2.8314    5.8527    0.0000 C   0  0  0  0  0  0  0  0  0  0  0  0
    1.3542    5.5920    0.0000 H   0  0  0  0  0  0  0  0  0  0  0  0
    3.3444    7.2622    0.0000 C   0  0  0  0  0  0  0  0  0  0  0  0
    2.3804    8.4115    0.0000 H   0  0  0  0  0  0  0  0  0  0  0  0
    4.8226    7.5224    0.0000 C   0  0  0  0  0  0  0  0  0  0  0  0
    5.3356    8.9319    0.0000 H   0  0  0  0  0  0  0  0  0  0  0  0
    5.7876    6.3730    0.0000 C   0  0  0  0  0  0  0  0  0  0  0  0
    7.2648    6.6337    0.0000 H   0  0  0  0  0  0  0  0  0  0  0  0
    5.2746    4.9635    0.0000 C   0  0  0  0  0  0  0  0  0  0  0  0
    6.2386    3.8142    0.0000 H   0  0  0  0  0  0  0  0  0  0  0  0
    2.0107    1.0894    0.0000 N   0  0  0  0  0  0  0  0  0  0  0  0
    3.4880    0.8289    0.0000 H   0  0  0  0  0  0  0  0  0  0  0  0
    1.0466   -0.0597    0.0000 C   0  0  0  0  0  0  0  0  0  0  0  0
   -0.4306    0.2008    0.0000 O   0  0  0  0  0  0  0  0  0  0  0  0
    1.5596   -1.4693    0.0000 C   0  0  0  0  0  0  0  0  0  0  0  0
    2.5238   -2.6183    0.0000 H   0  0  0  0  0  0  0  0  0  0  0  0
    2.8586   -0.7193    0.0000 H   0  0  0  0  0  0  0  0  0  0  0  0
    0.5954   -2.6183    0.0000 O   0  0  0  0  0  0  0  0  0  0  0  0
    1.1084   -4.0279    0.0000 C   0  0  0  0  0  0  0  0  0  0  0  0
    2.5866   -4.2767    0.0000 C   0  0  0  0  0  0  0  0  0  0  0  0
    3.5399   -3.1186    0.0000 C   0  0  0  0  0  0  0  0  0  0  0  0
    3.0136   -1.7140    0.0000 H   0  0  0  0  0  0  0  0  0  0  0  0
    4.5148   -4.2586    0.0000 H   0  0  0  0  0  0  0  0  0  0  0  0
    4.8318   -2.3564    0.0000 H   0  0  0  0  0  0  0  0  0  0  0  0
    3.1083   -5.6621    0.0000 C   0  0  0  0  0  0  0  0  0  0  0  0
    4.5876   -5.9106    0.0000 H   0  0  0  0  0  0  0  0  0  0  0  0
    2.1705   -6.7910    0.0000 C   0  0  0  0  0  0  0  0  0  0  0  0
    2.7111   -8.1903    0.0000 H   0  0  0  0  0  0  0  0  0  0  0  0
    0.6980   -6.5830    0.0000 C   0  0  0  0  0  0  0  0  0  0  0  0
   -0.2280   -7.7631    0.0000 H   0  0  0  0  0  0  0  0  0  0  0  0
    0.1335   -5.1717    0.0000 C   0  0  0  0  0  0  0  0  0  0  0  0
   -1.3467   -4.9287    0.0000 C   0  0  0  0  0  0  0  0  0  0  0  0
   -2.2972   -6.0891    0.0000 H   0  0  0  0  0  0  0  0  0  0  0  0
   -2.6545   -4.1942    0.0000 H   0  0  0  0  0  0  0  0  0  0  0  0
   -0.8504   -3.5132    0.0000 H   0  0  0  0  0  0  0  0  0  0  0  0
   -2.0936    3.0333    0.0000 O   0  0  0  0  0  0  0  0  0  0  0  0
   -2.6066    1.6238    0.0000 H   0  0  0  0  0  0  0  0  0  0  0  0
   -8.1478    4.4667    0.0000 N   0  0  0  0  0  0  0  0  0  0  0  0
   -7.6348    5.8763    0.0000 H   0  0  0  0  0  0  0  0  0  0  0  0
   -9.6250    4.2062    0.0000 C   0  0  0  0  0  0  0  0  0  0  0  0
  -10.1381    2.7967    0.0000 O   0  0  0  0  0  0  0  0  0  0  0  0
  -10.5892    5.3553    0.0000 N   0  0  0  0  0  0  0  0  0  0  0  0
  -10.0762    6.7648    0.0000 H   0  0  0  0  0  0  0  0  0  0  0  0
  -12.0664    5.0948    0.0000 C   0  0  0  0  0  0  0  0  0  0  0  0
  -11.5534    3.6853    0.0000 H   0  0  0  0  0  0  0  0  0  0  0  0
  -13.3655    4.3448    0.0000 H   0  0  0  0  0  0  0  0  0  0  0  0
  -13.0306    6.2439    0.0000 C   0  0  0  0  0  0  0  0  0  0  0  0
  -13.5436    7.6534    0.0000 H   0  0  0  0  0  0  0  0  0  0  0  0
  -11.7316    6.9939    0.0000 H   0  0  0  0  0  0  0  0  0  0  0  0
  -14.5078    5.9834    0.0000 C   0  0  0  0  0  0  0  0  0  0  0  0
  -15.4720    7.1325    0.0000 H   0  0  0  0  0  0  0  0  0  0  0  0
  -15.0209    4.5739    0.0000 O   0  0  0  0  0  0  0  0  0  0  0  0
  1  2  1  0  0  0  0 
  1  3  1  0  0  0  0 
  1  4  1  0  0  0  0 
  1  5  1  0  0  0  0 
  5  6  1  0  0  0  0 
  5  7  1  0  0  0  0 
  7  8  1  0  0  0  0 
  7  9  1  0  0  0  0 
  7 10  1  0  0  0  0 
  5 11  1  0  0  0  0 
 11 12  1  1  0  0  0 
 11 13  1  0  0  0  0 
 13 14  2  0  0  0  0 
 13 15  1  0  0  0  0 
 15 16  1  0  0  0  0 
 17 15  1  1  0  0  0 
 17 18  1  6  0  0  0 
 17 19  1  0  0  0  0 
 19 20  1  0  0  0  0 
 19 21  1  0  0  0  0 
 19 22  1  0  0  0  0 
 22 23  2  0  0  0  0 
 23 24  1  0  0  0  0 
 23 25  1  0  0  0  0 
 25 26  1  0  0  0  0 
 25 27  2  0  0  0  0 
 27 28  1  0  0  0  0 
 27 29  1  0  0  0  0 
 29 30  1  0  0  0  0 
 29 31  2  0  0  0  0 
 22 31  1  0  0  0  0 
 31 32  1  0  0  0  0 
 17 33  1  0  0  0  0 
 33 34  1  0  0  0  0 
 33 35  1  0  0  0  0 
 33 36  1  0  0  0  0 
 36 37  1  6  0  0  0 
 36 38  1  0  0  0  0 
 38 39  1  1  0  0  0 
 38 40  1  6  0  0  0 
 40 41  1  0  0  0  0 
 40 42  1  0  0  0  0 
 40 43  1  0  0  0  0 
 43 44  2  0  0  0  0 
 44 45  1  0  0  0  0 
 44 46  1  0  0  0  0 
 46 47  1  0  0  0  0 
 46 48  2  0  0  0  0 
 48 49  1  0  0  0  0 
 48 50  1  0  0  0  0 
 50 51  1  0  0  0  0 
 50 52  2  0  0  0  0 
 43 52  1  0  0  0  0 
 52 53  1  0  0  0  0 
 38 54  1  0  0  0  0 
 54 55  1  0  0  0  0 
 54 56  1  0  0  0  0 
 56 57  2  0  0  0  0 
 56 58  1  0  0  0  0 
 58 59  1  0  0  0  0 
 58 60  1  0  0  0  0 
 58 61  1  0  0  0  0 
 61 62  1  0  0  0  0 
 62 63  2  0  0  0  0 
 63 64  1  0  0  0  0 
 64 65  1  0  0  0  0 
 64 66  1  0  0  0  0 
 64 67  1  0  0  0  0 
 63 68  1  0  0  0  0 
 68 69  1  0  0  0  0 
 68 70  2  0  0  0  0 
 70 71  1  0  0  0  0 
 70 72  1  0  0  0  0 
 72 73  1  0  0  0  0 
 72 74  2  0  0  0  0 
 62 74  1  0  0  0  0 
 74 75  1  0  0  0  0 
 75 76  1  0  0  0  0 
 75 77  1  0  0  0  0 
 75 78  1  0  0  0  0 
 36 79  1  1  0  0  0 
 79 80  1  0  0  0  0 
 11 81  1  6  0  0  0 
 81 82  1  0  0  0  0 
 81 83  1  0  0  0  0 
 83 84  2  0  0  0  0 
 83 85  1  0  0  0  0 
 85 86  1  0  0  0  0 
 85 87  1  0  0  0  0 
 87 88  1  0  0  0  0 
 87 89  1  0  0  0  0 
 87 90  1  0  0  0  0 
 90 91  1  0  0  0  0 
 90 92  1  0  0  0  0 
 90 93  1  0  0  0  0 
 93 94  1  0  0  0  0 
 93 95  2  0  0  0  0 
M  END
> <Rank>
41

> <Priority_score>
0.052

> <Reaction_type>
N-dealkylation

> <Parent_ID>
63

> <Parent_InChI>
InChI=1S/C37H48N4O5/c1-25(2)34(41-20-12-19-38-37(41)45)36(44)39-30(21-28-15-7-5-8-16-28)23-32(42)31(22-29-17-9-6-10-18-29)40-33(43)24-46-35-26(3)13-11-14-27(35)4/h5-11,13-18,25,30-32,34,42H,12,19-24H2,1-4H3,(H,38,45)(H,39,44)(H,40,43)

> <Parent_SMILES>
Cc1cccc(C)c1OCC(=O)N[C@@H](Cc1ccccc1)[C@@H](O)C[C@H](Cc1ccccc1)NC(=O)[C@H](C(C)C)N1CCCNC1=O

$$$$
Molecule 63_metabolite 42
  CDK     0516241031

 93 96  0  0  0  0  0  0  0  0999 V2000
    3.1769   14.3736    0.0000 C   0  0  0  0  0  0  0  0  0  0  0  0
    1.7674   14.8867    0.0000 H   0  0  0  0  0  0  0  0  0  0  0  0
    3.4374   15.8509    0.0000 H   0  0  0  0  0  0  0  0  0  0  0  0
    4.6769   14.3736    0.0000 H   0  0  0  0  0  0  0  0  0  0  0  0
    3.5208   12.4237    0.0000 C   0  0  0  0  0  0  0  0  0  0  0  0
    3.2603   10.9465    0.0000 H   0  0  0  0  0  0  0  0  0  0  0  0
    2.0208   12.4237    0.0000 C   0  0  0  0  0  0  0  0  0  0  0  0
    1.2708   13.7228    0.0000 H   0  0  0  0  0  0  0  0  0  0  0  0
    2.2812   10.9465    0.0000 H   0  0  0  0  0  0  0  0  0  0  0  0
    0.6112   11.9107    0.0000 H   0  0  0  0  0  0  0  0  0  0  0  0
    4.9303   11.9107    0.0000 C   0  0  1  0  0  0  0  0  0  0  0  0
    5.1908   13.3879    0.0000 H   0  0  0  0  0  0  0  0  0  0  0  0
    3.9403   10.1960    0.0000 C   0  0  0  0  0  0  0  0  0  0  0  0
    4.6903    8.8969    0.0000 O   0  0  0  0  0  0  0  0  0  0  0  0
    2.4403   10.1960    0.0000 N   0  0  0  0  0  0  0  0  0  0  0  0
    1.6903   11.4950    0.0000 H   0  0  0  0  0  0  0  0  0  0  0  0
    1.4503    8.4812    0.0000 C   0  0  1  0  0  0  0  0  0  0  0  0
    2.8598    7.9682    0.0000 H   0  0  0  0  0  0  0  0  0  0  0  0
    1.1898    7.0040    0.0000 C   0  0  0  0  0  0  0  0  0  0  0  0
   -0.2197    7.5171    0.0000 H   0  0  0  0  0  0  0  0  0  0  0  0
    0.4398    5.7050    0.0000 H   0  0  0  0  0  0  0  0  0  0  0  0
    2.3389    6.0398    0.0000 C   0  0  0  0  0  0  0  0  0  0  0  0
    3.7491    6.5536    0.0000 C   0  0  0  0  0  0  0  0  0  0  0  0
    4.0093    8.0309    0.0000 H   0  0  0  0  0  0  0  0  0  0  0  0
    4.8981    5.5894    0.0000 C   0  0  0  0  0  0  0  0  0  0  0  0
    6.3077    6.1022    0.0000 H   0  0  0  0  0  0  0  0  0  0  0  0
    4.6370    4.1115    0.0000 C   0  0  0  0  0  0  0  0  0  0  0  0
    5.7861    3.1473    0.0000 H   0  0  0  0  0  0  0  0  0  0  0  0
    3.2269    3.5977    0.0000 C   0  0  0  0  0  0  0  0  0  0  0  0
    2.9666    2.1205    0.0000 H   0  0  0  0  0  0  0  0  0  0  0  0
    2.0778    4.5619    0.0000 C   0  0  0  0  0  0  0  0  0  0  0  0
    0.6682    4.0491    0.0000 H   0  0  0  0  0  0  0  0  0  0  0  0
   -0.5297    8.4812    0.0000 C   0  0  0  0  0  0  0  0  0  0  0  0
   -1.9392    8.9943    0.0000 H   0  0  0  0  0  0  0  0  0  0  0  0
   -0.2692    9.9584    0.0000 H   0  0  0  0  0  0  0  0  0  0  0  0
   -1.2797    7.1822    0.0000 C   0  0  1  0  0  0  0  0  0  0  0  0
    0.1298    6.6692    0.0000 H   0  0  0  0  0  0  0  0  0  0  0  0
   -4.2197    7.1822    0.0000 C   0  0  2  0  0  0  0  0  0  0  0  0
   -5.6292    6.6692    0.0000 H   0  0  0  0  0  0  0  0  0  0  0  0
   -3.9592    5.7050    0.0000 C   0  0  0  0  0  0  0  0  0  0  0  0
   -3.2092    4.4059    0.0000 H   0  0  0  0  0  0  0  0  0  0  0  0
   -2.5497    6.2180    0.0000 H   0  0  0  0  0  0  0  0  0  0  0  0
   -5.1083    4.7408    0.0000 C   0  0  0  0  0  0  0  0  0  0  0  0
   -4.8472    3.2629    0.0000 C   0  0  0  0  0  0  0  0  0  0  0  0
   -3.4376    2.7500    0.0000 H   0  0  0  0  0  0  0  0  0  0  0  0
   -5.9963    2.2987    0.0000 C   0  0  0  0  0  0  0  0  0  0  0  0
   -5.7360    0.8214    0.0000 H   0  0  0  0  0  0  0  0  0  0  0  0
   -7.4064    2.8124    0.0000 C   0  0  0  0  0  0  0  0  0  0  0  0
   -8.5555    1.8483    0.0000 H   0  0  0  0  0  0  0  0  0  0  0  0
   -7.6675    4.2904    0.0000 C   0  0  0  0  0  0  0  0  0  0  0  0
   -9.0771    4.8032    0.0000 H   0  0  0  0  0  0  0  0  0  0  0  0
   -6.5185    5.2546    0.0000 C   0  0  0  0  0  0  0  0  0  0  0  0
   -6.7787    6.7318    0.0000 H   0  0  0  0  0  0  0  0  0  0  0  0
   -5.2097    8.8969    0.0000 N   0  0  0  0  0  0  0  0  0  0  0  0
   -4.4597   10.1960    0.0000 H   0  0  0  0  0  0  0  0  0  0  0  0
   -6.7097    8.8969    0.0000 C   0  0  0  0  0  0  0  0  0  0  0  0
   -7.4597    7.5979    0.0000 O   0  0  0  0  0  0  0  0  0  0  0  0
   -7.4597   10.1960    0.0000 C   0  0  0  0  0  0  0  0  0  0  0  0
   -6.0502   10.7090    0.0000 H   0  0  0  0  0  0  0  0  0  0  0  0
   -7.7202   11.6732    0.0000 H   0  0  0  0  0  0  0  0  0  0  0  0
   -8.9597   10.1960    0.0000 O   0  0  0  0  0  0  0  0  0  0  0  0
   -9.7097   11.4950    0.0000 C   0  0  0  0  0  0  0  0  0  0  0  0
   -8.9502   12.7873    0.0000 C   0  0  0  0  0  0  0  0  0  0  0  0
   -7.4503   12.7732    0.0000 C   0  0  0  0  0  0  0  0  0  0  0  0
   -6.7126   11.4671    0.0000 H   0  0  0  0  0  0  0  0  0  0  0  0
   -7.6968   14.2528    0.0000 H   0  0  0  0  0  0  0  0  0  0  0  0
   -6.0360   13.2729    0.0000 H   0  0  0  0  0  0  0  0  0  0  0  0
   -9.6761   14.0774    0.0000 C   0  0  0  0  0  0  0  0  0  0  0  0
   -8.9156   15.3704    0.0000 H   0  0  0  0  0  0  0  0  0  0  0  0
  -11.1437   14.0847    0.0000 C   0  0  0  0  0  0  0  0  0  0  0  0
  -11.8682   15.3982    0.0000 H   0  0  0  0  0  0  0  0  0  0  0  0
  -11.9309   12.8230    0.0000 C   0  0  0  0  0  0  0  0  0  0  0  0
  -13.4301   12.8722    0.0000 H   0  0  0  0  0  0  0  0  0  0  0  0
  -11.2126   11.4834    0.0000 C   0  0  0  0  0  0  0  0  0  0  0  0
  -11.9780   10.1933    0.0000 C   0  0  0  0  0  0  0  0  0  0  0  0
  -13.4778   10.2111    0.0000 H   0  0  0  0  0  0  0  0  0  0  0  0
  -12.2559    8.7193    0.0000 H   0  0  0  0  0  0  0  0  0  0  0  0
  -10.5746    9.6637    0.0000 H   0  0  0  0  0  0  0  0  0  0  0  0
   -1.5402    5.7050    0.0000 O   0  0  0  0  0  0  0  0  0  0  0  0
   -0.3911    4.7408    0.0000 H   0  0  0  0  0  0  0  0  0  0  0  0
    6.4303   11.9107    0.0000 N   0  0  0  0  0  0  0  0  0  0  0  0
    7.1803   13.2107    0.0000 C   0  0  0  0  0  0  0  0  0  0  0  0
    6.4301   14.5096    0.0000 O   0  0  0  0  0  0  0  0  0  0  0  0
    8.6803   13.2107    0.0000 C   0  0  0  0  0  0  0  0  0  0  0  0
    8.4200   14.6879    0.0000 H   0  0  0  0  0  0  0  0  0  0  0  0
   10.0899   13.7234    0.0000 H   0  0  0  0  0  0  0  0  0  0  0  0
    9.4303   11.9107    0.0000 C   0  0  0  0  0  0  0  0  0  0  0  0
   10.5795   12.8748    0.0000 H   0  0  0  0  0  0  0  0  0  0  0  0
   10.5795   10.9466    0.0000 H   0  0  0  0  0  0  0  0  0  0  0  0
    8.6803   10.6107    0.0000 N   0  0  0  0  0  0  0  0  0  0  0  0
    9.4305    9.3118    0.0000 H   0  0  0  0  0  0  0  0  0  0  0  0
    7.1803   10.6107    0.0000 C   0  0  0  0  0  0  0  0  0  0  0  0
    6.4301    9.3118    0.0000 O   0  0  0  0  0  0  0  0  0  0  0  0
  1  2  1  0  0  0  0 
  1  3  1  0  0  0  0 
  1  4  1  0  0  0  0 
  1  5  1  0  0  0  0 
  5  6  1  0  0  0  0 
  5  7  1  0  0  0  0 
  7  8  1  0  0  0  0 
  7  9  1  0  0  0  0 
  7 10  1  0  0  0  0 
  5 11  1  0  0  0  0 
 11 12  1  1  0  0  0 
 11 13  1  0  0  0  0 
 13 14  2  0  0  0  0 
 13 15  1  0  0  0  0 
 15 16  1  0  0  0  0 
 17 15  1  1  0  0  0 
 17 18  1  6  0  0  0 
 17 19  1  0  0  0  0 
 19 20  1  0  0  0  0 
 19 21  1  0  0  0  0 
 19 22  1  0  0  0  0 
 22 23  2  0  0  0  0 
 23 24  1  0  0  0  0 
 23 25  1  0  0  0  0 
 25 26  1  0  0  0  0 
 25 27  2  0  0  0  0 
 27 28  1  0  0  0  0 
 27 29  1  0  0  0  0 
 29 30  1  0  0  0  0 
 29 31  2  0  0  0  0 
 22 31  1  0  0  0  0 
 31 32  1  0  0  0  0 
 17 33  1  0  0  0  0 
 33 34  1  0  0  0  0 
 33 35  1  0  0  0  0 
 33 36  1  0  0  0  0 
 36 37  1  1  0  0  0 
 36 38  1  0  0  0  0 
 38 39  1  1  0  0  0 
 38 40  1  0  0  0  0 
 40 41  1  0  0  0  0 
 40 42  1  0  0  0  0 
 40 43  1  0  0  0  0 
 43 44  2  0  0  0  0 
 44 45  1  0  0  0  0 
 44 46  1  0  0  0  0 
 46 47  1  0  0  0  0 
 46 48  2  0  0  0  0 
 48 49  1  0  0  0  0 
 48 50  1  0  0  0  0 
 50 51  1  0  0  0  0 
 50 52  2  0  0  0  0 
 43 52  1  0  0  0  0 
 52 53  1  0  0  0  0 
 38 54  1  6  0  0  0 
 54 55  1  0  0  0  0 
 54 56  1  0  0  0  0 
 56 57  2  0  0  0  0 
 56 58  1  0  0  0  0 
 58 59  1  0  0  0  0 
 58 60  1  0  0  0  0 
 58 61  1  0  0  0  0 
 61 62  1  0  0  0  0 
 62 63  2  0  0  0  0 
 63 64  1  0  0  0  0 
 64 65  1  0  0  0  0 
 64 66  1  0  0  0  0 
 64 67  1  0  0  0  0 
 63 68  1  0  0  0  0 
 68 69  1  0  0  0  0 
 68 70  2  0  0  0  0 
 70 71  1  0  0  0  0 
 70 72  1  0  0  0  0 
 72 73  1  0  0  0  0 
 72 74  2  0  0  0  0 
 62 74  1  0  0  0  0 
 74 75  1  0  0  0  0 
 75 76  1  0  0  0  0 
 75 77  1  0  0  0  0 
 75 78  1  0  0  0  0 
 36 79  1  6  0  0  0 
 79 80  1  0  0  0  0 
 11 81  1  6  0  0  0 
 81 82  1  0  0  0  0 
 82 83  2  0  0  0  0 
 82 84  1  0  0  0  0 
 84 85  1  0  0  0  0 
 84 86  1  0  0  0  0 
 84 87  1  0  0  0  0 
 87 88  1  0  0  0  0 
 87 89  1  0  0  0  0 
 87 90  1  0  0  0  0 
 90 91  1  0  0  0  0 
 90 92  1  0  0  0  0 
 81 92  1  0  0  0  0 
 92 93  2  0  0  0  0 
M  END
> <Rank>
41

> <Priority_score>
0.052

> <Reaction_type>
oxidation_(amine_in_a_ring)

> <Parent_ID>
63

> <Parent_InChI>
InChI=1S/C37H48N4O5/c1-25(2)34(41-20-12-19-38-37(41)45)36(44)39-30(21-28-15-7-5-8-16-28)23-32(42)31(22-29-17-9-6-10-18-29)40-33(43)24-46-35-26(3)13-11-14-27(35)4/h5-11,13-18,25,30-32,34,42H,12,19-24H2,1-4H3,(H,38,45)(H,39,44)(H,40,43)

> <Parent_SMILES>
Cc1cccc(C)c1OCC(=O)N[C@@H](Cc1ccccc1)[C@@H](O)C[C@H](Cc1ccccc1)NC(=O)[C@H](C(C)C)N1CCCNC1=O

$$$$
Molecule 63_metabolite 43
  CDK     0516241031

 95 98  0  0  0  0  0  0  0  0999 V2000
   -1.8007    6.2489    0.0000 C   0  0  0  0  0  0  0  0  0  0  0  0
   -0.3234    5.9884    0.0000 H   0  0  0  0  0  0  0  0  0  0  0  0
   -1.2876    7.6584    0.0000 H   0  0  0  0  0  0  0  0  0  0  0  0
   -3.0997    6.9989    0.0000 H   0  0  0  0  0  0  0  0  0  0  0  0
   -3.0734    4.7321    0.0000 C   0  0  0  0  0  0  0  0  0  0  0  0
   -3.5864    3.3226    0.0000 H   0  0  0  0  0  0  0  0  0  0  0  0
   -1.7743    3.9821    0.0000 C   0  0  0  0  0  0  0  0  0  0  0  0
   -1.7743    2.4821    0.0000 H   0  0  0  0  0  0  0  0  0  0  0  0
   -1.2613    5.3917    0.0000 H   0  0  0  0  0  0  0  0  0  0  0  0
   -0.2971    3.7217    0.0000 H   0  0  0  0  0  0  0  0  0  0  0  0
   -4.5506    4.9926    0.0000 C   0  0  1  0  0  0  0  0  0  0  0  0
   -4.0376    6.4021    0.0000 H   0  0  0  0  0  0  0  0  0  0  0  0
   -4.5506    3.0126    0.0000 C   0  0  0  0  0  0  0  0  0  0  0  0
   -3.2516    2.2626    0.0000 O   0  0  0  0  0  0  0  0  0  0  0  0
   -5.8496    2.2626    0.0000 N   0  0  0  0  0  0  0  0  0  0  0  0
   -7.1487    3.0126    0.0000 H   0  0  0  0  0  0  0  0  0  0  0  0
   -5.8496    0.7626    0.0000 C   0  0  1  0  0  0  0  0  0  0  0  0
   -7.3268    1.0231    0.0000 H   0  0  0  0  0  0  0  0  0  0  0  0
   -6.3627   -0.6469    0.0000 C   0  0  0  0  0  0  0  0  0  0  0  0
   -4.8854   -0.9074    0.0000 H   0  0  0  0  0  0  0  0  0  0  0  0
   -6.3627   -2.1469    0.0000 H   0  0  0  0  0  0  0  0  0  0  0  0
   -7.8399   -0.9074    0.0000 C   0  0  0  0  0  0  0  0  0  0  0  0
   -8.8042    0.2426    0.0000 C   0  0  0  0  0  0  0  0  0  0  0  0
   -8.2910    1.6521    0.0000 H   0  0  0  0  0  0  0  0  0  0  0  0
  -10.2814   -0.0179    0.0000 C   0  0  0  0  0  0  0  0  0  0  0  0
  -11.2458    1.1310    0.0000 H   0  0  0  0  0  0  0  0  0  0  0  0
  -10.7943   -1.4284    0.0000 C   0  0  0  0  0  0  0  0  0  0  0  0
  -12.2715   -1.6888    0.0000 H   0  0  0  0  0  0  0  0  0  0  0  0
   -9.8299   -2.5784    0.0000 C   0  0  0  0  0  0  0  0  0  0  0  0
  -10.3432   -3.9878    0.0000 H   0  0  0  0  0  0  0  0  0  0  0  0
   -8.3527   -2.3179    0.0000 C   0  0  0  0  0  0  0  0  0  0  0  0
   -7.3884   -3.4668    0.0000 H   0  0  0  0  0  0  0  0  0  0  0  0
   -4.1349   -0.2274    0.0000 C   0  0  0  0  0  0  0  0  0  0  0  0
   -2.6577   -0.4879    0.0000 H   0  0  0  0  0  0  0  0  0  0  0  0
   -3.6219    1.1821    0.0000 H   0  0  0  0  0  0  0  0  0  0  0  0
   -4.1349   -1.7274    0.0000 C   0  0  1  0  0  0  0  0  0  0  0  0
   -5.6121   -1.4669    0.0000 H   0  0  0  0  0  0  0  0  0  0  0  0
   -1.5888   -3.1974    0.0000 C   0  0  2  0  0  0  0  0  0  0  0  0
   -0.6246   -4.3465    0.0000 H   0  0  0  0  0  0  0  0  0  0  0  0
   -2.5530   -4.3465    0.0000 C   0  0  0  0  0  0  0  0  0  0  0  0
   -3.8520   -5.0965    0.0000 H   0  0  0  0  0  0  0  0  0  0  0  0
   -3.5171   -3.1974    0.0000 H   0  0  0  0  0  0  0  0  0  0  0  0
   -2.0399   -5.7560    0.0000 C   0  0  0  0  0  0  0  0  0  0  0  0
   -3.0050   -6.9054    0.0000 C   0  0  0  0  0  0  0  0  0  0  0  0
   -4.4822   -6.6447    0.0000 H   0  0  0  0  0  0  0  0  0  0  0  0
   -2.4920   -8.3149    0.0000 C   0  0  0  0  0  0  0  0  0  0  0  0
   -3.4560   -9.4642    0.0000 H   0  0  0  0  0  0  0  0  0  0  0  0
   -1.0139   -8.5751    0.0000 C   0  0  0  0  0  0  0  0  0  0  0  0
   -0.5008   -9.9846    0.0000 H   0  0  0  0  0  0  0  0  0  0  0  0
   -0.0488   -7.4257    0.0000 C   0  0  0  0  0  0  0  0  0  0  0  0
    1.4284   -7.6864    0.0000 H   0  0  0  0  0  0  0  0  0  0  0  0
   -0.5618   -6.0162    0.0000 C   0  0  0  0  0  0  0  0  0  0  0  0
    0.4022   -4.8669    0.0000 H   0  0  0  0  0  0  0  0  0  0  0  0
    0.1259   -2.2074    0.0000 N   0  0  0  0  0  0  0  0  0  0  0  0
    0.1259   -0.7074    0.0000 H   0  0  0  0  0  0  0  0  0  0  0  0
    1.4250   -2.9574    0.0000 C   0  0  0  0  0  0  0  0  0  0  0  0
    1.4250   -4.4574    0.0000 O   0  0  0  0  0  0  0  0  0  0  0  0
    2.7240   -2.2074    0.0000 C   0  0  0  0  0  0  0  0  0  0  0  0
    1.7598   -1.0583    0.0000 H   0  0  0  0  0  0  0  0  0  0  0  0
    3.6882   -1.0583    0.0000 H   0  0  0  0  0  0  0  0  0  0  0  0
    4.0231   -2.9574    0.0000 O   0  0  0  0  0  0  0  0  0  0  0  0
    5.3221   -2.2074    0.0000 C   0  0  0  0  0  0  0  0  0  0  0  0
    5.3105   -0.7085    0.0000 C   0  0  0  0  0  0  0  0  0  0  0  0
    4.0045    0.0292    0.0000 C   0  0  0  0  0  0  0  0  0  0  0  0
    2.7126   -0.7330    0.0000 H   0  0  0  0  0  0  0  0  0  0  0  0
    4.9578    1.1873    0.0000 H   0  0  0  0  0  0  0  0  0  0  0  0
    3.0295    1.1691    0.0000 H   0  0  0  0  0  0  0  0  0  0  0  0
    6.5842    0.0459    0.0000 C   0  0  0  0  0  0  0  0  0  0  0  0
    6.5721    1.5458    0.0000 H   0  0  0  0  0  0  0  0  0  0  0  0
    7.8589   -0.6816    0.0000 C   0  0  0  0  0  0  0  0  0  0  0  0
    9.1430    0.0936    0.0000 H   0  0  0  0  0  0  0  0  0  0  0  0
    7.9097   -2.1680    0.0000 C   0  0  0  0  0  0  0  0  0  0  0  0
    9.2326   -2.8750    0.0000 H   0  0  0  0  0  0  0  0  0  0  0  0
    6.6179   -2.9689    0.0000 C   0  0  0  0  0  0  0  0  0  0  0  0
    6.6356   -4.4688    0.0000 C   0  0  0  0  0  0  0  0  0  0  0  0
    7.9435   -5.2034    0.0000 H   0  0  0  0  0  0  0  0  0  0  0  0
    6.1393   -5.8843    0.0000 H   0  0  0  0  0  0  0  0  0  0  0  0
    5.1554   -4.2258    0.0000 H   0  0  0  0  0  0  0  0  0  0  0  0
   -4.6479   -3.1369    0.0000 O   0  0  0  0  0  0  0  0  0  0  0  0
   -6.1251   -3.3974    0.0000 H   0  0  0  0  0  0  0  0  0  0  0  0
   -5.8496    5.7426    0.0000 N   0  0  0  0  0  0  0  0  0  0  0  0
   -7.1491    4.9918    0.0000 C   0  0  0  0  0  0  0  0  0  0  0  0
   -6.1847    3.8429    0.0000 H   0  0  0  0  0  0  0  0  0  0  0  0
   -8.4482    5.7418    0.0000 C   0  0  0  0  0  0  0  0  0  0  0  0
   -8.9614    4.3323    0.0000 H   0  0  0  0  0  0  0  0  0  0  0  0
   -9.9253    6.0026    0.0000 H   0  0  0  0  0  0  0  0  0  0  0  0
   -8.4477    7.2426    0.0000 C   0  0  0  0  0  0  0  0  0  0  0  0
   -9.9249    6.9823    0.0000 H   0  0  0  0  0  0  0  0  0  0  0  0
   -8.9609    8.6521    0.0000 H   0  0  0  0  0  0  0  0  0  0  0  0
   -7.1482    7.9934    0.0000 N   0  0  0  0  0  0  0  0  0  0  0  0
   -7.1484    9.4934    0.0000 H   0  0  0  0  0  0  0  0  0  0  0  0
   -5.8491    7.2434    0.0000 C   0  0  0  0  0  0  0  0  0  0  0  0
   -4.5500    7.9932    0.0000 O   0  0  0  0  0  0  0  0  0  0  0  0
   -9.0387    2.7394    0.0000 O   0  0  0  0  0  0  0  0  0  0  0  0
  -10.5159    2.9997    0.0000 H   0  0  0  0  0  0  0  0  0  0  0  0
  1  2  1  0  0  0  0 
  1  3  1  0  0  0  0 
  1  4  1  0  0  0  0 
  1  5  1  0  0  0  0 
  5  6  1  0  0  0  0 
  5  7  1  0  0  0  0 
  7  8  1  0  0  0  0 
  7  9  1  0  0  0  0 
  7 10  1  0  0  0  0 
  5 11  1  0  0  0  0 
 11 12  1  6  0  0  0 
 11 13  1  0  0  0  0 
 13 14  2  0  0  0  0 
 13 15  1  0  0  0  0 
 15 16  1  0  0  0  0 
 17 15  1  6  0  0  0 
 17 18  1  1  0  0  0 
 17 19  1  0  0  0  0 
 19 20  1  0  0  0  0 
 19 21  1  0  0  0  0 
 19 22  1  0  0  0  0 
 22 23  2  0  0  0  0 
 23 24  1  0  0  0  0 
 23 25  1  0  0  0  0 
 25 26  1  0  0  0  0 
 25 27  2  0  0  0  0 
 27 28  1  0  0  0  0 
 27 29  1  0  0  0  0 
 29 30  1  0  0  0  0 
 29 31  2  0  0  0  0 
 22 31  1  0  0  0  0 
 31 32  1  0  0  0  0 
 17 33  1  0  0  0  0 
 33 34  1  0  0  0  0 
 33 35  1  0  0  0  0 
 33 36  1  0  0  0  0 
 36 37  1  6  0  0  0 
 36 38  1  0  0  0  0 
 38 39  1  6  0  0  0 
 38 40  1  0  0  0  0 
 40 41  1  0  0  0  0 
 40 42  1  0  0  0  0 
 40 43  1  0  0  0  0 
 43 44  2  0  0  0  0 
 44 45  1  0  0  0  0 
 44 46  1  0  0  0  0 
 46 47  1  0  0  0  0 
 46 48  2  0  0  0  0 
 48 49  1  0  0  0  0 
 48 50  1  0  0  0  0 
 50 51  1  0  0  0  0 
 50 52  2  0  0  0  0 
 43 52  1  0  0  0  0 
 52 53  1  0  0  0  0 
 38 54  1  1  0  0  0 
 54 55  1  0  0  0  0 
 54 56  1  0  0  0  0 
 56 57  2  0  0  0  0 
 56 58  1  0  0  0  0 
 58 59  1  0  0  0  0 
 58 60  1  0  0  0  0 
 58 61  1  0  0  0  0 
 61 62  1  0  0  0  0 
 62 63  2  0  0  0  0 
 63 64  1  0  0  0  0 
 64 65  1  0  0  0  0 
 64 66  1  0  0  0  0 
 64 67  1  0  0  0  0 
 63 68  1  0  0  0  0 
 68 69  1  0  0  0  0 
 68 70  2  0  0  0  0 
 70 71  1  0  0  0  0 
 70 72  1  0  0  0  0 
 72 73  1  0  0  0  0 
 72 74  2  0  0  0  0 
 62 74  1  0  0  0  0 
 74 75  1  0  0  0  0 
 75 76  1  0  0  0  0 
 75 77  1  0  0  0  0 
 75 78  1  0  0  0  0 
 36 79  1  1  0  0  0 
 79 80  1  0  0  0  0 
 11 81  1  1  0  0  0 
 81 82  1  0  0  0  0 
 82 83  1  0  0  0  0 
 82 84  1  0  0  0  0 
 84 85  1  0  0  0  0 
 84 86  1  0  0  0  0 
 84 87  1  0  0  0  0 
 87 88  1  0  0  0  0 
 87 89  1  0  0  0  0 
 87 90  1  0  0  0  0 
 90 91  1  0  0  0  0 
 90 92  1  0  0  0  0 
 81 92  1  0  0  0  0 
 92 93  2  0  0  0  0 
 82 94  1  0  0  0  0 
 94 95  1  0  0  0  0 
M  END
> <Rank>
41

> <Priority_score>
0.052

> <Reaction_type>
aliphatic_hydroxylation_(sec_carbon_next_to_SP2,in_a_ring)

> <Parent_ID>
63

> <Parent_InChI>
InChI=1S/C37H48N4O5/c1-25(2)34(41-20-12-19-38-37(41)45)36(44)39-30(21-28-15-7-5-8-16-28)23-32(42)31(22-29-17-9-6-10-18-29)40-33(43)24-46-35-26(3)13-11-14-27(35)4/h5-11,13-18,25,30-32,34,42H,12,19-24H2,1-4H3,(H,38,45)(H,39,44)(H,40,43)

> <Parent_SMILES>
Cc1cccc(C)c1OCC(=O)N[C@@H](Cc1ccccc1)[C@@H](O)C[C@H](Cc1ccccc1)NC(=O)[C@H](C(C)C)N1CCCNC1=O

$$$$
Molecule 63_metabolite 44
  CDK     0516241031

 94 97  0  0  0  0  0  0  0  0999 V2000
   -1.9531   13.2503    0.0000 C   0  0  0  0  0  0  0  0  0  0  0  0
   -0.4532   13.2645    0.0000 H   0  0  0  0  0  0  0  0  0  0  0  0
   -3.3578   12.7240    0.0000 H   0  0  0  0  0  0  0  0  0  0  0  0
   -1.6788   11.7756    0.0000 H   0  0  0  0  0  0  0  0  0  0  0  0
   -2.7154   14.5423    0.0000 C   0  0  0  0  0  0  0  0  0  0  0  0
   -4.1956   14.5258    0.0000 C   0  0  0  0  0  0  0  0  0  0  0  0
   -4.9351   13.2207    0.0000 H   0  0  0  0  0  0  0  0  0  0  0  0
   -4.9357   15.7932    0.0000 C   0  0  0  0  0  0  0  0  0  0  0  0
   -6.4354   15.7638    0.0000 H   0  0  0  0  0  0  0  0  0  0  0  0
   -4.2366   17.1058    0.0000 C   0  0  0  0  0  0  0  0  0  0  0  0
   -5.0288   18.3795    0.0000 H   0  0  0  0  0  0  0  0  0  0  0  0
   -2.7173   17.1535    0.0000 C   0  0  0  0  0  0  0  0  0  0  0  0
   -1.9759   15.8461    0.0000 C   0  0  0  0  0  0  0  0  0  0  0  0
   -0.4759   15.8461    0.0000 O   0  0  0  0  0  0  0  0  0  0  0  0
    0.2741   14.5471    0.0000 C   0  0  0  0  0  0  0  0  0  0  0  0
    0.5345   13.0699    0.0000 H   0  0  0  0  0  0  0  0  0  0  0  0
   -1.1355   14.0340    0.0000 H   0  0  0  0  0  0  0  0  0  0  0  0
    1.7741   14.5471    0.0000 C   0  0  0  0  0  0  0  0  0  0  0  0
    2.5241   15.8461    0.0000 O   0  0  0  0  0  0  0  0  0  0  0  0
    2.5241   13.2480    0.0000 N   0  0  0  0  0  0  0  0  0  0  0  0
    1.7741   11.9490    0.0000 H   0  0  0  0  0  0  0  0  0  0  0  0
    4.5041   13.2480    0.0000 C   0  0  1  0  0  0  0  0  0  0  0  0
    4.2436   14.7252    0.0000 H   0  0  0  0  0  0  0  0  0  0  0  0
    5.9136   13.7611    0.0000 C   0  0  0  0  0  0  0  0  0  0  0  0
    7.4136   13.7611    0.0000 H   0  0  0  0  0  0  0  0  0  0  0  0
    6.1741   12.2839    0.0000 H   0  0  0  0  0  0  0  0  0  0  0  0
    6.1741   15.2383    0.0000 C   0  0  0  0  0  0  0  0  0  0  0  0
    7.5846   15.7511    0.0000 C   0  0  0  0  0  0  0  0  0  0  0  0
    8.7335   14.7868    0.0000 H   0  0  0  0  0  0  0  0  0  0  0  0
    7.8450   17.2283    0.0000 C   0  0  0  0  0  0  0  0  0  0  0  0
    9.2545   17.7416    0.0000 H   0  0  0  0  0  0  0  0  0  0  0  0
    6.6950   18.1927    0.0000 C   0  0  0  0  0  0  0  0  0  0  0  0
    6.9555   19.6699    0.0000 H   0  0  0  0  0  0  0  0  0  0  0  0
    5.2845   17.6798    0.0000 C   0  0  0  0  0  0  0  0  0  0  0  0
    4.1356   18.6442    0.0000 H   0  0  0  0  0  0  0  0  0  0  0  0
    5.0241   16.2026    0.0000 C   0  0  0  0  0  0  0  0  0  0  0  0
    3.6146   15.6894    0.0000 H   0  0  0  0  0  0  0  0  0  0  0  0
    5.9741   10.7019    0.0000 C   0  0  2  0  0  0  0  0  0  0  0  0
    7.1231    9.7377    0.0000 H   0  0  0  0  0  0  0  0  0  0  0  0
    5.2241    9.4029    0.0000 C   0  0  0  0  0  0  0  0  0  0  0  0
    4.0750   10.3671    0.0000 H   0  0  0  0  0  0  0  0  0  0  0  0
    4.0750    8.4387    0.0000 H   0  0  0  0  0  0  0  0  0  0  0  0
    5.9741    8.1038    0.0000 C   0  0  2  0  0  0  0  0  0  0  0  0
    6.2345    6.6266    0.0000 H   0  0  0  0  0  0  0  0  0  0  0  0
    3.2114    7.0983    0.0000 C   0  0  0  0  0  0  0  0  0  0  0  0
    1.7114    7.0983    0.0000 H   0  0  0  0  0  0  0  0  0  0  0  0
    2.9509    8.5755    0.0000 H   0  0  0  0  0  0  0  0  0  0  0  0
    2.9509    5.6211    0.0000 C   0  0  0  0  0  0  0  0  0  0  0  0
    1.5404    5.1082    0.0000 C   0  0  0  0  0  0  0  0  0  0  0  0
    0.3915    6.0726    0.0000 H   0  0  0  0  0  0  0  0  0  0  0  0
    1.2799    3.6310    0.0000 C   0  0  0  0  0  0  0  0  0  0  0  0
   -0.1295    3.1178    0.0000 H   0  0  0  0  0  0  0  0  0  0  0  0
    2.4300    2.6667    0.0000 C   0  0  0  0  0  0  0  0  0  0  0  0
    2.1695    1.1895    0.0000 H   0  0  0  0  0  0  0  0  0  0  0  0
    3.8404    3.1795    0.0000 C   0  0  0  0  0  0  0  0  0  0  0  0
    4.9894    2.2152    0.0000 H   0  0  0  0  0  0  0  0  0  0  0  0
    4.1009    4.6567    0.0000 C   0  0  0  0  0  0  0  0  0  0  0  0
    5.5104    5.1700    0.0000 H   0  0  0  0  0  0  0  0  0  0  0  0
    7.9541    8.1038    0.0000 N   0  0  0  0  0  0  0  0  0  0  0  0
    8.7041    9.4029    0.0000 H   0  0  0  0  0  0  0  0  0  0  0  0
    8.7041    6.8048    0.0000 C   0  0  0  0  0  0  0  0  0  0  0  0
    7.9541    5.5058    0.0000 O   0  0  0  0  0  0  0  0  0  0  0  0
   10.2041    6.8048    0.0000 C   0  0  2  0  0  0  0  0  0  0  0  0
    9.9436    8.2820    0.0000 H   0  0  0  0  0  0  0  0  0  0  0  0
   12.9668    7.8103    0.0000 C   0  0  0  0  0  0  0  0  0  0  0  0
   12.2168    9.1094    0.0000 H   0  0  0  0  0  0  0  0  0  0  0  0
   14.1158    8.7745    0.0000 C   0  0  0  0  0  0  0  0  0  0  0  0
   15.5254    8.2615    0.0000 H   0  0  0  0  0  0  0  0  0  0  0  0
   12.9668    9.7387    0.0000 H   0  0  0  0  0  0  0  0  0  0  0  0
   14.8658   10.0736    0.0000 H   0  0  0  0  0  0  0  0  0  0  0  0
   14.1158    6.8462    0.0000 C   0  0  0  0  0  0  0  0  0  0  0  0
   13.6053    3.9508    0.0000 O   0  0  0  0  0  0  0  0  0  0  0  0
   16.8785    7.8517    0.0000 O   0  0  0  0  0  0  0  0  0  0  0  0
   18.0276    6.8875    0.0000 H   0  0  0  0  0  0  0  0  0  0  0  0
   11.0454    4.4932    0.0000 N   0  0  0  0  0  0  0  0  0  0  0  0
   10.0804    3.3438    0.0000 C   0  0  0  0  0  0  0  0  0  0  0  0
    9.1164    4.4930    0.0000 H   0  0  0  0  0  0  0  0  0  0  0  0
    8.7812    2.5939    0.0000 H   0  0  0  0  0  0  0  0  0  0  0  0
   10.5934    1.9342    0.0000 C   0  0  0  0  0  0  0  0  0  0  0  0
    9.1162    1.6736    0.0000 H   0  0  0  0  0  0  0  0  0  0  0  0
   10.5937    0.4342    0.0000 H   0  0  0  0  0  0  0  0  0  0  0  0
   12.0715    1.6741    0.0000 C   0  0  0  0  0  0  0  0  0  0  0  0
   11.5586    0.2645    0.0000 H   0  0  0  0  0  0  0  0  0  0  0  0
   13.3705    0.9239    0.0000 H   0  0  0  0  0  0  0  0  0  0  0  0
   13.0366    2.8235    0.0000 N   0  0  0  0  0  0  0  0  0  0  0  0
   14.5138    2.5628    0.0000 H   0  0  0  0  0  0  0  0  0  0  0  0
   12.5236    4.2330    0.0000 C   0  0  0  0  0  0  0  0  0  0  0  0
   13.4876    5.3822    0.0000 O   0  0  0  0  0  0  0  0  0  0  0  0
    7.1231   11.6661    0.0000 O   0  0  0  0  0  0  0  0  0  0  0  0
    8.5327   11.1531    0.0000 H   0  0  0  0  0  0  0  0  0  0  0  0
   -1.9828   18.4613    0.0000 C   0  0  0  0  0  0  0  0  0  0  0  0
   -2.7481   19.7514    0.0000 H   0  0  0  0  0  0  0  0  0  0  0  0
   -0.8452   19.4390    0.0000 H   0  0  0  0  0  0  0  0  0  0  0  0
   -0.8224   17.5108    0.0000 H   0  0  0  0  0  0  0  0  0  0  0  0
  1  2  1  0  0  0  0 
  1  3  1  0  0  0  0 
  1  4  1  0  0  0  0 
  1  5  1  0  0  0  0 
  5  6  2  0  0  0  0 
  6  7  1  0  0  0  0 
  6  8  1  0  0  0  0 
  8  9  1  0  0  0  0 
  8 10  2  0  0  0  0 
 10 11  1  0  0  0  0 
 10 12  1  0  0  0  0 
 12 13  2  0  0  0  0 
  5 13  1  0  0  0  0 
 13 14  1  0  0  0  0 
 14 15  1  0  0  0  0 
 15 16  1  0  0  0  0 
 15 17  1  0  0  0  0 
 15 18  1  0  0  0  0 
 18 19  2  0  0  0  0 
 18 20  1  0  0  0  0 
 20 21  1  0  0  0  0 
 22 20  1  1  0  0  0 
 22 23  1  6  0  0  0 
 22 24  1  0  0  0  0 
 24 25  1  0  0  0  0 
 24 26  1  0  0  0  0 
 24 27  1  0  0  0  0 
 27 28  2  0  0  0  0 
 28 29  1  0  0  0  0 
 28 30  1  0  0  0  0 
 30 31  1  0  0  0  0 
 30 32  2  0  0  0  0 
 32 33  1  0  0  0  0 
 32 34  1  0  0  0  0 
 34 35  1  0  0  0  0 
 34 36  2  0  0  0  0 
 27 36  1  0  0  0  0 
 36 37  1  0  0  0  0 
 22 38  1  0  0  0  0 
 38 39  1  6  0  0  0 
 38 40  1  0  0  0  0 
 40 41  1  0  0  0  0 
 40 42  1  0  0  0  0 
 40 43  1  0  0  0  0 
 43 44  1  6  0  0  0 
 43 45  1  0  0  0  0 
 45 46  1  0  0  0  0 
 45 47  1  0  0  0  0 
 45 48  1  0  0  0  0 
 48 49  2  0  0  0  0 
 49 50  1  0  0  0  0 
 49 51  1  0  0  0  0 
 51 52  1  0  0  0  0 
 51 53  2  0  0  0  0 
 53 54  1  0  0  0  0 
 53 55  1  0  0  0  0 
 55 56  1  0  0  0  0 
 55 57  2  0  0  0  0 
 48 57  1  0  0  0  0 
 57 58  1  0  0  0  0 
 43 59  1  1  0  0  0 
 59 60  1  0  0  0  0 
 59 61  1  0  0  0  0 
 61 62  2  0  0  0  0 
 63 61  1  6  0  0  0 
 63 64  1  1  0  0  0 
 63 65  1  0  0  0  0 
 65 66  1  0  0  0  0 
 65 67  1  0  0  0  0 
 67 68  1  0  0  0  0 
 67 69  1  0  0  0  0 
 67 70  1  0  0  0  0 
 65 71  1  0  0  0  0 
 71 72  2  0  0  0  0 
 71 73  1  0  0  0  0 
 73 74  1  0  0  0  0 
 63 75  1  0  0  0  0 
 75 76  1  0  0  0  0 
 76 77  1  0  0  0  0 
 76 78  1  0  0  0  0 
 76 79  1  0  0  0  0 
 79 80  1  0  0  0  0 
 79 81  1  0  0  0  0 
 79 82  1  0  0  0  0 
 82 83  1  0  0  0  0 
 82 84  1  0  0  0  0 
 82 85  1  0  0  0  0 
 85 86  1  0  0  0  0 
 85 87  1  0  0  0  0 
 75 87  1  0  0  0  0 
 87 88  2  0  0  0  0 
 38 89  1  1  0  0  0 
 89 90  1  0  0  0  0 
 12 91  1  0  0  0  0 
 91 92  1  0  0  0  0 
 91 93  1  0  0  0  0 
 91 94  1  0  0  0  0 
M  END
> <Rank>
44

> <Priority_score>
0.04

> <Reaction_type>
carboxylation_(primary_carbon_next_to_tert_carbon)

> <Parent_ID>
63

> <Parent_InChI>
InChI=1S/C37H48N4O5/c1-25(2)34(41-20-12-19-38-37(41)45)36(44)39-30(21-28-15-7-5-8-16-28)23-32(42)31(22-29-17-9-6-10-18-29)40-33(43)24-46-35-26(3)13-11-14-27(35)4/h5-11,13-18,25,30-32,34,42H,12,19-24H2,1-4H3,(H,38,45)(H,39,44)(H,40,43)

> <Parent_SMILES>
Cc1cccc(C)c1OCC(=O)N[C@@H](Cc1ccccc1)[C@@H](O)C[C@H](Cc1ccccc1)NC(=O)[C@H](C(C)C)N1CCCNC1=O

$$$$
Molecule 63_metabolite 45
  CDK     0516241031

 95 98  0  0  0  0  0  0  0  0999 V2000
   -1.6539    7.2357    0.0000 C   0  0  0  0  0  0  0  0  0  0  0  0
   -0.3619    7.9979    0.0000 H   0  0  0  0  0  0  0  0  0  0  0  0
   -2.6072    6.0776    0.0000 H   0  0  0  0  0  0  0  0  0  0  0  0
   -0.6789    6.0958    0.0000 H   0  0  0  0  0  0  0  0  0  0  0  0
   -2.9599    7.9734    0.0000 C   0  0  0  0  0  0  0  0  0  0  0  0
   -4.2336    7.2190    0.0000 C   0  0  0  0  0  0  0  0  0  0  0  0
   -4.2215    5.7191    0.0000 H   0  0  0  0  0  0  0  0  0  0  0  0
   -5.5082    7.9465    0.0000 C   0  0  0  0  0  0  0  0  0  0  0  0
   -6.7924    7.1713    0.0000 H   0  0  0  0  0  0  0  0  0  0  0  0
   -5.5591    9.4329    0.0000 C   0  0  0  0  0  0  0  0  0  0  0  0
   -6.8820   10.1399    0.0000 H   0  0  0  0  0  0  0  0  0  0  0  0
   -4.2672   10.2338    0.0000 C   0  0  0  0  0  0  0  0  0  0  0  0
   -2.9715    9.4723    0.0000 C   0  0  0  0  0  0  0  0  0  0  0  0
   -1.6724   10.2223    0.0000 O   0  0  0  0  0  0  0  0  0  0  0  0
   -0.3734    9.4723    0.0000 C   0  0  0  0  0  0  0  0  0  0  0  0
    0.5908    8.3232    0.0000 H   0  0  0  0  0  0  0  0  0  0  0  0
   -1.3376    8.3232    0.0000 H   0  0  0  0  0  0  0  0  0  0  0  0
    0.9256   10.2223    0.0000 C   0  0  0  0  0  0  0  0  0  0  0  0
    0.9256   11.7223    0.0000 O   0  0  0  0  0  0  0  0  0  0  0  0
    2.2247    9.4723    0.0000 N   0  0  0  0  0  0  0  0  0  0  0  0
    2.2247    7.9723    0.0000 H   0  0  0  0  0  0  0  0  0  0  0  0
    3.9394   10.4623    0.0000 C   0  0  1  0  0  0  0  0  0  0  0  0
    2.9752   11.6114    0.0000 H   0  0  0  0  0  0  0  0  0  0  0  0
    4.9036   11.6114    0.0000 C   0  0  0  0  0  0  0  0  0  0  0  0
    6.2026   12.3614    0.0000 H   0  0  0  0  0  0  0  0  0  0  0  0
    5.8678   10.4623    0.0000 H   0  0  0  0  0  0  0  0  0  0  0  0
    4.3906   13.0209    0.0000 C   0  0  0  0  0  0  0  0  0  0  0  0
    5.3557   14.1703    0.0000 C   0  0  0  0  0  0  0  0  0  0  0  0
    6.8328   13.9096    0.0000 H   0  0  0  0  0  0  0  0  0  0  0  0
    4.8426   15.5798    0.0000 C   0  0  0  0  0  0  0  0  0  0  0  0
    5.8066   16.7291    0.0000 H   0  0  0  0  0  0  0  0  0  0  0  0
    3.3645   15.8400    0.0000 C   0  0  0  0  0  0  0  0  0  0  0  0
    2.8515   17.2495    0.0000 H   0  0  0  0  0  0  0  0  0  0  0  0
    2.3994   14.6906    0.0000 C   0  0  0  0  0  0  0  0  0  0  0  0
    0.9222   14.9513    0.0000 H   0  0  0  0  0  0  0  0  0  0  0  0
    2.9124   13.2811    0.0000 C   0  0  0  0  0  0  0  0  0  0  0  0
    1.9485   12.1318    0.0000 H   0  0  0  0  0  0  0  0  0  0  0  0
    6.4855    8.9923    0.0000 C   0  0  2  0  0  0  0  0  0  0  0  0
    7.9627    8.7318    0.0000 H   0  0  0  0  0  0  0  0  0  0  0  0
    6.4855    7.4923    0.0000 C   0  0  0  0  0  0  0  0  0  0  0  0
    5.0083    7.7528    0.0000 H   0  0  0  0  0  0  0  0  0  0  0  0
    5.9725    6.0828    0.0000 H   0  0  0  0  0  0  0  0  0  0  0  0
    7.7846    6.7423    0.0000 C   0  0  2  0  0  0  0  0  0  0  0  0
    8.7487    5.5932    0.0000 H   0  0  0  0  0  0  0  0  0  0  0  0
    5.8948    4.4901    0.0000 C   0  0  0  0  0  0  0  0  0  0  0  0
    4.5957    3.7401    0.0000 H   0  0  0  0  0  0  0  0  0  0  0  0
    4.9306    5.6392    0.0000 H   0  0  0  0  0  0  0  0  0  0  0  0
    6.4078    3.0806    0.0000 C   0  0  0  0  0  0  0  0  0  0  0  0
    5.4427    1.9312    0.0000 C   0  0  0  0  0  0  0  0  0  0  0  0
    3.9655    2.1919    0.0000 H   0  0  0  0  0  0  0  0  0  0  0  0
    5.9557    0.5217    0.0000 C   0  0  0  0  0  0  0  0  0  0  0  0
    4.9917   -0.6276    0.0000 H   0  0  0  0  0  0  0  0  0  0  0  0
    7.4339    0.2615    0.0000 C   0  0  0  0  0  0  0  0  0  0  0  0
    7.9469   -1.1480    0.0000 H   0  0  0  0  0  0  0  0  0  0  0  0
    8.3989    1.4109    0.0000 C   0  0  0  0  0  0  0  0  0  0  0  0
    9.8761    1.1502    0.0000 H   0  0  0  0  0  0  0  0  0  0  0  0
    7.8859    2.8205    0.0000 C   0  0  0  0  0  0  0  0  0  0  0  0
    8.8499    3.9697    0.0000 H   0  0  0  0  0  0  0  0  0  0  0  0
    9.4993    7.7323    0.0000 N   0  0  0  0  0  0  0  0  0  0  0  0
    9.4993    9.2323    0.0000 H   0  0  0  0  0  0  0  0  0  0  0  0
   10.7983    6.9823    0.0000 C   0  0  0  0  0  0  0  0  0  0  0  0
   10.7983    5.4823    0.0000 O   0  0  0  0  0  0  0  0  0  0  0  0
   12.0974    7.7323    0.0000 C   0  0  2  0  0  0  0  0  0  0  0  0
   11.1332    8.8814    0.0000 H   0  0  0  0  0  0  0  0  0  0  0  0
   13.3701    9.2491    0.0000 C   0  0  0  0  0  0  0  0  0  0  0  0
   12.5287   11.5607    0.0000 C   0  0  0  0  0  0  0  0  0  0  0  0
   13.4929   12.7098    0.0000 H   0  0  0  0  0  0  0  0  0  0  0  0
   11.5645   12.7098    0.0000 H   0  0  0  0  0  0  0  0  0  0  0  0
   11.2297   10.8107    0.0000 H   0  0  0  0  0  0  0  0  0  0  0  0
   14.3343    8.1000    0.0000 C   0  0  0  0  0  0  0  0  0  0  0  0
   15.8115    8.3605    0.0000 H   0  0  0  0  0  0  0  0  0  0  0  0
   13.0352    7.3500    0.0000 H   0  0  0  0  0  0  0  0  0  0  0  0
   14.8473    6.6905    0.0000 H   0  0  0  0  0  0  0  0  0  0  0  0
   14.6691    9.9991    0.0000 O   0  0  0  0  0  0  0  0  0  0  0  0
   14.6691   11.4991    0.0000 H   0  0  0  0  0  0  0  0  0  0  0  0
   13.8121    6.7423    0.0000 N   0  0  0  0  0  0  0  0  0  0  0  0
   13.8116    5.2415    0.0000 C   0  0  0  0  0  0  0  0  0  0  0  0
   12.3345    5.5023    0.0000 H   0  0  0  0  0  0  0  0  0  0  0  0
   13.2984    3.8320    0.0000 H   0  0  0  0  0  0  0  0  0  0  0  0
   15.1107    4.4915    0.0000 C   0  0  0  0  0  0  0  0  0  0  0  0
   14.1466    3.3423    0.0000 H   0  0  0  0  0  0  0  0  0  0  0  0
   16.0751    3.3426    0.0000 H   0  0  0  0  0  0  0  0  0  0  0  0
   16.4102    5.2423    0.0000 C   0  0  0  0  0  0  0  0  0  0  0  0
   16.9234    3.8328    0.0000 H   0  0  0  0  0  0  0  0  0  0  0  0
   17.8874    5.5026    0.0000 H   0  0  0  0  0  0  0  0  0  0  0  0
   16.4107    6.7431    0.0000 N   0  0  0  0  0  0  0  0  0  0  0  0
   17.7098    7.4929    0.0000 H   0  0  0  0  0  0  0  0  0  0  0  0
   15.1116    7.4931    0.0000 C   0  0  0  0  0  0  0  0  0  0  0  0
   15.1114    8.9931    0.0000 O   0  0  0  0  0  0  0  0  0  0  0  0
    6.9986   10.4018    0.0000 O   0  0  0  0  0  0  0  0  0  0  0  0
    8.4758   10.6623    0.0000 H   0  0  0  0  0  0  0  0  0  0  0  0
   -4.2850   11.7337    0.0000 C   0  0  0  0  0  0  0  0  0  0  0  0
   -5.5928   12.4683    0.0000 H   0  0  0  0  0  0  0  0  0  0  0  0
   -3.7887   13.1492    0.0000 H   0  0  0  0  0  0  0  0  0  0  0  0
   -2.8048   11.4907    0.0000 H   0  0  0  0  0  0  0  0  0  0  0  0
  1  2  1  0  0  0  0 
  1  3  1  0  0  0  0 
  1  4  1  0  0  0  0 
  1  5  1  0  0  0  0 
  5  6  2  0  0  0  0 
  6  7  1  0  0  0  0 
  6  8  1  0  0  0  0 
  8  9  1  0  0  0  0 
  8 10  2  0  0  0  0 
 10 11  1  0  0  0  0 
 10 12  1  0  0  0  0 
 12 13  2  0  0  0  0 
  5 13  1  0  0  0  0 
 13 14  1  0  0  0  0 
 14 15  1  0  0  0  0 
 15 16  1  0  0  0  0 
 15 17  1  0  0  0  0 
 15 18  1  0  0  0  0 
 18 19  2  0  0  0  0 
 18 20  1  0  0  0  0 
 20 21  1  0  0  0  0 
 22 20  1  1  0  0  0 
 22 23  1  6  0  0  0 
 22 24  1  0  0  0  0 
 24 25  1  0  0  0  0 
 24 26  1  0  0  0  0 
 24 27  1  0  0  0  0 
 27 28  2  0  0  0  0 
 28 29  1  0  0  0  0 
 28 30  1  0  0  0  0 
 30 31  1  0  0  0  0 
 30 32  2  0  0  0  0 
 32 33  1  0  0  0  0 
 32 34  1  0  0  0  0 
 34 35  1  0  0  0  0 
 34 36  2  0  0  0  0 
 27 36  1  0  0  0  0 
 36 37  1  0  0  0  0 
 22 38  1  0  0  0  0 
 38 39  1  6  0  0  0 
 38 40  1  0  0  0  0 
 40 41  1  0  0  0  0 
 40 42  1  0  0  0  0 
 40 43  1  0  0  0  0 
 43 44  1  6  0  0  0 
 43 45  1  0  0  0  0 
 45 46  1  0  0  0  0 
 45 47  1  0  0  0  0 
 45 48  1  0  0  0  0 
 48 49  2  0  0  0  0 
 49 50  1  0  0  0  0 
 49 51  1  0  0  0  0 
 51 52  1  0  0  0  0 
 51 53  2  0  0  0  0 
 53 54  1  0  0  0  0 
 53 55  1  0  0  0  0 
 55 56  1  0  0  0  0 
 55 57  2  0  0  0  0 
 48 57  1  0  0  0  0 
 57 58  1  0  0  0  0 
 43 59  1  1  0  0  0 
 59 60  1  0  0  0  0 
 59 61  1  0  0  0  0 
 61 62  2  0  0  0  0 
 63 61  1  6  0  0  0 
 63 64  1  1  0  0  0 
 63 65  1  0  0  0  0 
 65 66  1  0  0  0  0 
 66 67  1  0  0  0  0 
 66 68  1  0  0  0  0 
 66 69  1  0  0  0  0 
 65 70  1  0  0  0  0 
 70 71  1  0  0  0  0 
 70 72  1  0  0  0  0 
 70 73  1  0  0  0  0 
 65 74  1  0  0  0  0 
 74 75  1  0  0  0  0 
 63 76  1  0  0  0  0 
 76 77  1  0  0  0  0 
 77 78  1  0  0  0  0 
 77 79  1  0  0  0  0 
 77 80  1  0  0  0  0 
 80 81  1  0  0  0  0 
 80 82  1  0  0  0  0 
 80 83  1  0  0  0  0 
 83 84  1  0  0  0  0 
 83 85  1  0  0  0  0 
 83 86  1  0  0  0  0 
 86 87  1  0  0  0  0 
 86 88  1  0  0  0  0 
 76 88  1  0  0  0  0 
 88 89  2  0  0  0  0 
 38 90  1  1  0  0  0 
 90 91  1  0  0  0  0 
 12 92  1  0  0  0  0 
 92 93  1  0  0  0  0 
 92 94  1  0  0  0  0 
 92 95  1  0  0  0  0 
M  END
> <Rank>
44

> <Priority_score>
0.04

> <Reaction_type>
aliphatic_hydroxylation_(tert_carbon_linked_to_two_CH3_groups)

> <Parent_ID>
63

> <Parent_InChI>
InChI=1S/C37H48N4O5/c1-25(2)34(41-20-12-19-38-37(41)45)36(44)39-30(21-28-15-7-5-8-16-28)23-32(42)31(22-29-17-9-6-10-18-29)40-33(43)24-46-35-26(3)13-11-14-27(35)4/h5-11,13-18,25,30-32,34,42H,12,19-24H2,1-4H3,(H,38,45)(H,39,44)(H,40,43)

> <Parent_SMILES>
Cc1cccc(C)c1OCC(=O)N[C@@H](Cc1ccccc1)[C@@H](O)C[C@H](Cc1ccccc1)NC(=O)[C@H](C(C)C)N1CCCNC1=O

$$$$
Molecule 63_metabolite 46
  CDK     0516241031

 95 98  0  0  0  0  0  0  0  0999 V2000
   -1.4740    7.1795    0.0000 C   0  0  0  0  0  0  0  0  0  0  0  0
   -0.1821    7.9417    0.0000 H   0  0  0  0  0  0  0  0  0  0  0  0
   -2.4273    6.0214    0.0000 H   0  0  0  0  0  0  0  0  0  0  0  0
   -0.4990    6.0396    0.0000 H   0  0  0  0  0  0  0  0  0  0  0  0
   -2.7800    7.9173    0.0000 C   0  0  0  0  0  0  0  0  0  0  0  0
   -4.0537    7.1629    0.0000 C   0  0  0  0  0  0  0  0  0  0  0  0
   -4.0416    5.6629    0.0000 H   0  0  0  0  0  0  0  0  0  0  0  0
   -5.3284    7.8904    0.0000 C   0  0  0  0  0  0  0  0  0  0  0  0
   -6.6125    7.1151    0.0000 H   0  0  0  0  0  0  0  0  0  0  0  0
   -5.3792    9.3767    0.0000 C   0  0  0  0  0  0  0  0  0  0  0  0
   -6.7021   10.0837    0.0000 H   0  0  0  0  0  0  0  0  0  0  0  0
   -4.0874   10.1776    0.0000 C   0  0  0  0  0  0  0  0  0  0  0  0
   -2.7916    9.4161    0.0000 C   0  0  0  0  0  0  0  0  0  0  0  0
   -1.4925   10.1661    0.0000 O   0  0  0  0  0  0  0  0  0  0  0  0
   -0.1935    9.4161    0.0000 C   0  0  0  0  0  0  0  0  0  0  0  0
    0.7707    8.2671    0.0000 H   0  0  0  0  0  0  0  0  0  0  0  0
   -1.1577    8.2671    0.0000 H   0  0  0  0  0  0  0  0  0  0  0  0
    1.1055   10.1661    0.0000 C   0  0  0  0  0  0  0  0  0  0  0  0
    1.1055   11.6661    0.0000 O   0  0  0  0  0  0  0  0  0  0  0  0
    2.4046    9.4161    0.0000 N   0  0  0  0  0  0  0  0  0  0  0  0
    2.4046    7.9161    0.0000 H   0  0  0  0  0  0  0  0  0  0  0  0
    4.1193   10.4061    0.0000 C   0  0  1  0  0  0  0  0  0  0  0  0
    3.1551   11.5552    0.0000 H   0  0  0  0  0  0  0  0  0  0  0  0
    5.0835   11.5552    0.0000 C   0  0  0  0  0  0  0  0  0  0  0  0
    6.3825   12.3052    0.0000 H   0  0  0  0  0  0  0  0  0  0  0  0
    6.0477   10.4061    0.0000 H   0  0  0  0  0  0  0  0  0  0  0  0
    4.5704   12.9647    0.0000 C   0  0  0  0  0  0  0  0  0  0  0  0
    5.5355   14.1141    0.0000 C   0  0  0  0  0  0  0  0  0  0  0  0
    7.0127   13.8534    0.0000 H   0  0  0  0  0  0  0  0  0  0  0  0
    5.0225   15.5237    0.0000 C   0  0  0  0  0  0  0  0  0  0  0  0
    5.9865   16.6729    0.0000 H   0  0  0  0  0  0  0  0  0  0  0  0
    3.5444   15.7838    0.0000 C   0  0  0  0  0  0  0  0  0  0  0  0
    3.0314   17.1934    0.0000 H   0  0  0  0  0  0  0  0  0  0  0  0
    2.5793   14.6344    0.0000 C   0  0  0  0  0  0  0  0  0  0  0  0
    1.1021   14.8951    0.0000 H   0  0  0  0  0  0  0  0  0  0  0  0
    3.0923   13.2249    0.0000 C   0  0  0  0  0  0  0  0  0  0  0  0
    2.1283   12.0757    0.0000 H   0  0  0  0  0  0  0  0  0  0  0  0
    6.6654    8.9361    0.0000 C   0  0  2  0  0  0  0  0  0  0  0  0
    8.1426    8.6757    0.0000 H   0  0  0  0  0  0  0  0  0  0  0  0
    6.6654    7.4361    0.0000 C   0  0  0  0  0  0  0  0  0  0  0  0
    5.1882    7.6966    0.0000 H   0  0  0  0  0  0  0  0  0  0  0  0
    6.1524    6.0266    0.0000 H   0  0  0  0  0  0  0  0  0  0  0  0
    7.9645    6.6861    0.0000 C   0  0  2  0  0  0  0  0  0  0  0  0
    8.9286    5.5371    0.0000 H   0  0  0  0  0  0  0  0  0  0  0  0
    6.0747    4.4340    0.0000 C   0  0  0  0  0  0  0  0  0  0  0  0
    4.7756    3.6840    0.0000 H   0  0  0  0  0  0  0  0  0  0  0  0
    5.1105    5.5830    0.0000 H   0  0  0  0  0  0  0  0  0  0  0  0
    6.5877    3.0244    0.0000 C   0  0  0  0  0  0  0  0  0  0  0  0
    5.6226    1.8750    0.0000 C   0  0  0  0  0  0  0  0  0  0  0  0
    4.1454    2.1357    0.0000 H   0  0  0  0  0  0  0  0  0  0  0  0
    6.1356    0.4655    0.0000 C   0  0  0  0  0  0  0  0  0  0  0  0
    5.1716   -0.6837    0.0000 H   0  0  0  0  0  0  0  0  0  0  0  0
    7.6137    0.2054    0.0000 C   0  0  0  0  0  0  0  0  0  0  0  0
    8.1268   -1.2042    0.0000 H   0  0  0  0  0  0  0  0  0  0  0  0
    8.5788    1.3547    0.0000 C   0  0  0  0  0  0  0  0  0  0  0  0
   10.0560    1.0940    0.0000 H   0  0  0  0  0  0  0  0  0  0  0  0
    8.0658    2.7643    0.0000 C   0  0  0  0  0  0  0  0  0  0  0  0
    9.0298    3.9135    0.0000 H   0  0  0  0  0  0  0  0  0  0  0  0
    9.6792    7.6761    0.0000 N   0  0  0  0  0  0  0  0  0  0  0  0
    9.6792    9.1761    0.0000 H   0  0  0  0  0  0  0  0  0  0  0  0
   10.9782    6.9261    0.0000 C   0  0  0  0  0  0  0  0  0  0  0  0
   10.9782    5.4261    0.0000 O   0  0  0  0  0  0  0  0  0  0  0  0
   12.2773    7.6761    0.0000 C   0  0  2  0  0  0  0  0  0  0  0  0
   11.3131    8.8252    0.0000 H   0  0  0  0  0  0  0  0  0  0  0  0
   13.2414    8.8252    0.0000 C   0  0  0  0  0  0  0  0  0  0  0  0
   14.2056    7.6761    0.0000 H   0  0  0  0  0  0  0  0  0  0  0  0
   14.9562    9.8152    0.0000 C   0  0  0  0  0  0  0  0  0  0  0  0
   14.9562   11.3152    0.0000 H   0  0  0  0  0  0  0  0  0  0  0  0
   15.4692    8.4057    0.0000 H   0  0  0  0  0  0  0  0  0  0  0  0
   16.4334   10.0757    0.0000 H   0  0  0  0  0  0  0  0  0  0  0  0
   12.4001   11.1369    0.0000 C   0  0  0  0  0  0  0  0  0  0  0  0
   11.4359   12.2859    0.0000 H   0  0  0  0  0  0  0  0  0  0  0  0
   11.1010   10.3869    0.0000 H   0  0  0  0  0  0  0  0  0  0  0  0
   13.3643   12.2859    0.0000 O   0  0  0  0  0  0  0  0  0  0  0  0
   12.8512   13.6955    0.0000 H   0  0  0  0  0  0  0  0  0  0  0  0
   13.9920    6.6861    0.0000 N   0  0  0  0  0  0  0  0  0  0  0  0
   15.2915    7.4370    0.0000 C   0  0  0  0  0  0  0  0  0  0  0  0
   14.3271    8.5858    0.0000 H   0  0  0  0  0  0  0  0  0  0  0  0
   16.2556    8.5861    0.0000 H   0  0  0  0  0  0  0  0  0  0  0  0
   16.5905    6.6870    0.0000 C   0  0  0  0  0  0  0  0  0  0  0  0
   17.1037    8.0965    0.0000 H   0  0  0  0  0  0  0  0  0  0  0  0
   18.0677    6.4262    0.0000 H   0  0  0  0  0  0  0  0  0  0  0  0
   16.5901    5.1861    0.0000 C   0  0  0  0  0  0  0  0  0  0  0  0
   18.0673    5.4465    0.0000 H   0  0  0  0  0  0  0  0  0  0  0  0
   17.1032    3.7767    0.0000 H   0  0  0  0  0  0  0  0  0  0  0  0
   15.2905    4.4353    0.0000 N   0  0  0  0  0  0  0  0  0  0  0  0
   15.2908    2.9353    0.0000 H   0  0  0  0  0  0  0  0  0  0  0  0
   13.9915    5.1853    0.0000 C   0  0  0  0  0  0  0  0  0  0  0  0
   12.6923    4.4355    0.0000 O   0  0  0  0  0  0  0  0  0  0  0  0
    7.1784   10.3457    0.0000 O   0  0  0  0  0  0  0  0  0  0  0  0
    8.6557   10.6062    0.0000 H   0  0  0  0  0  0  0  0  0  0  0  0
   -4.1051   11.6775    0.0000 C   0  0  0  0  0  0  0  0  0  0  0  0
   -5.4129   12.4121    0.0000 H   0  0  0  0  0  0  0  0  0  0  0  0
   -3.6088   13.0931    0.0000 H   0  0  0  0  0  0  0  0  0  0  0  0
   -2.6249   11.4346    0.0000 H   0  0  0  0  0  0  0  0  0  0  0  0
  1  2  1  0  0  0  0 
  1  3  1  0  0  0  0 
  1  4  1  0  0  0  0 
  1  5  1  0  0  0  0 
  5  6  2  0  0  0  0 
  6  7  1  0  0  0  0 
  6  8  1  0  0  0  0 
  8  9  1  0  0  0  0 
  8 10  2  0  0  0  0 
 10 11  1  0  0  0  0 
 10 12  1  0  0  0  0 
 12 13  2  0  0  0  0 
  5 13  1  0  0  0  0 
 13 14  1  0  0  0  0 
 14 15  1  0  0  0  0 
 15 16  1  0  0  0  0 
 15 17  1  0  0  0  0 
 15 18  1  0  0  0  0 
 18 19  2  0  0  0  0 
 18 20  1  0  0  0  0 
 20 21  1  0  0  0  0 
 22 20  1  1  0  0  0 
 22 23  1  6  0  0  0 
 22 24  1  0  0  0  0 
 24 25  1  0  0  0  0 
 24 26  1  0  0  0  0 
 24 27  1  0  0  0  0 
 27 28  2  0  0  0  0 
 28 29  1  0  0  0  0 
 28 30  1  0  0  0  0 
 30 31  1  0  0  0  0 
 30 32  2  0  0  0  0 
 32 33  1  0  0  0  0 
 32 34  1  0  0  0  0 
 34 35  1  0  0  0  0 
 34 36  2  0  0  0  0 
 27 36  1  0  0  0  0 
 36 37  1  0  0  0  0 
 22 38  1  0  0  0  0 
 38 39  1  6  0  0  0 
 38 40  1  0  0  0  0 
 40 41  1  0  0  0  0 
 40 42  1  0  0  0  0 
 40 43  1  0  0  0  0 
 43 44  1  6  0  0  0 
 43 45  1  0  0  0  0 
 45 46  1  0  0  0  0 
 45 47  1  0  0  0  0 
 45 48  1  0  0  0  0 
 48 49  2  0  0  0  0 
 49 50  1  0  0  0  0 
 49 51  1  0  0  0  0 
 51 52  1  0  0  0  0 
 51 53  2  0  0  0  0 
 53 54  1  0  0  0  0 
 53 55  1  0  0  0  0 
 55 56  1  0  0  0  0 
 55 57  2  0  0  0  0 
 48 57  1  0  0  0  0 
 57 58  1  0  0  0  0 
 43 59  1  1  0  0  0 
 59 60  1  0  0  0  0 
 59 61  1  0  0  0  0 
 61 62  2  0  0  0  0 
 63 61  1  6  0  0  0 
 63 64  1  1  0  0  0 
 63 65  1  0  0  0  0 
 65 66  1  0  0  0  0 
 65 67  1  0  0  0  0 
 67 68  1  0  0  0  0 
 67 69  1  0  0  0  0 
 67 70  1  0  0  0  0 
 65 71  1  0  0  0  0 
 71 72  1  0  0  0  0 
 71 73  1  0  0  0  0 
 71 74  1  0  0  0  0 
 74 75  1  0  0  0  0 
 63 76  1  0  0  0  0 
 76 77  1  0  0  0  0 
 77 78  1  0  0  0  0 
 77 79  1  0  0  0  0 
 77 80  1  0  0  0  0 
 80 81  1  0  0  0  0 
 80 82  1  0  0  0  0 
 80 83  1  0  0  0  0 
 83 84  1  0  0  0  0 
 83 85  1  0  0  0  0 
 83 86  1  0  0  0  0 
 86 87  1  0  0  0  0 
 86 88  1  0  0  0  0 
 76 88  1  0  0  0  0 
 88 89  2  0  0  0  0 
 38 90  1  1  0  0  0 
 90 91  1  0  0  0  0 
 12 92  1  0  0  0  0 
 92 93  1  0  0  0  0 
 92 94  1  0  0  0  0 
 92 95  1  0  0  0  0 
M  END
> <Rank>
44

> <Priority_score>
0.04

> <Reaction_type>
aliphatic_hydroxylation_(primary_carbon_next_to_tert_carbon)

> <Parent_ID>
63

> <Parent_InChI>
InChI=1S/C37H48N4O5/c1-25(2)34(41-20-12-19-38-37(41)45)36(44)39-30(21-28-15-7-5-8-16-28)23-32(42)31(22-29-17-9-6-10-18-29)40-33(43)24-46-35-26(3)13-11-14-27(35)4/h5-11,13-18,25,30-32,34,42H,12,19-24H2,1-4H3,(H,38,45)(H,39,44)(H,40,43)

> <Parent_SMILES>
Cc1cccc(C)c1OCC(=O)N[C@@H](Cc1ccccc1)[C@@H](O)C[C@H](Cc1ccccc1)NC(=O)[C@H](C(C)C)N1CCCNC1=O

$$$$
Molecule 63_metabolite 47
  CDK     0516241031

 91 94  0  0  0  0  0  0  0  0999 V2000
   13.3525    3.1094    0.0000 C   0  0  0  0  0  0  0  0  0  0  0  0
   13.8655    4.5190    0.0000 H   0  0  0  0  0  0  0  0  0  0  0  0
   14.8297    2.8489    0.0000 H   0  0  0  0  0  0  0  0  0  0  0  0
   13.3525    1.6094    0.0000 H   0  0  0  0  0  0  0  0  0  0  0  0
   11.4026    2.7656    0.0000 C   0  0  0  0  0  0  0  0  0  0  0  0
    9.9254    3.0261    0.0000 H   0  0  0  0  0  0  0  0  0  0  0  0
   11.4026    4.2656    0.0000 C   0  0  0  0  0  0  0  0  0  0  0  0
   10.1035    5.0156    0.0000 H   0  0  0  0  0  0  0  0  0  0  0  0
   12.8798    4.0051    0.0000 H   0  0  0  0  0  0  0  0  0  0  0  0
   11.9156    5.6751    0.0000 H   0  0  0  0  0  0  0  0  0  0  0  0
   10.8896    1.3561    0.0000 C   0  0  1  0  0  0  0  0  0  0  0  0
   12.3668    1.0956    0.0000 H   0  0  0  0  0  0  0  0  0  0  0  0
    9.1748    2.3461    0.0000 C   0  0  0  0  0  0  0  0  0  0  0  0
    9.1748    3.8461    0.0000 O   0  0  0  0  0  0  0  0  0  0  0  0
    7.8758    1.5961    0.0000 N   0  0  0  0  0  0  0  0  0  0  0  0
    7.8758    0.0961    0.0000 H   0  0  0  0  0  0  0  0  0  0  0  0
    6.5768    2.3461    0.0000 C   0  0  2  0  0  0  0  0  0  0  0  0
    6.0637    0.9365    0.0000 H   0  0  0  0  0  0  0  0  0  0  0  0
    6.5768    4.3261    0.0000 C   0  0  0  0  0  0  0  0  0  0  0  0
    7.0898    5.7356    0.0000 H   0  0  0  0  0  0  0  0  0  0  0  0
    8.0540    4.0656    0.0000 H   0  0  0  0  0  0  0  0  0  0  0  0
    5.2777    5.0761    0.0000 C   0  0  0  0  0  0  0  0  0  0  0  0
    3.9787    4.3261    0.0000 H   0  0  0  0  0  0  0  0  0  0  0  0
    5.2777    7.0561    0.0000 C   0  0  0  0  0  0  0  0  0  0  0  0
    7.4081    8.2861    0.0000 C   0  0  0  0  0  0  0  0  0  0  0  0
    8.8853    8.5465    0.0000 H   0  0  0  0  0  0  0  0  0  0  0  0
    7.9212    6.8765    0.0000 H   0  0  0  0  0  0  0  0  0  0  0  0
    7.4081    9.7861    0.0000 C   0  0  0  0  0  0  0  0  0  0  0  0
    8.7081   10.5361    0.0000 C   0  0  0  0  0  0  0  0  0  0  0  0
   10.0071    9.7859    0.0000 H   0  0  0  0  0  0  0  0  0  0  0  0
    8.7081   12.0361    0.0000 C   0  0  0  0  0  0  0  0  0  0  0  0
   10.0071   12.7863    0.0000 H   0  0  0  0  0  0  0  0  0  0  0  0
    7.4081   12.7861    0.0000 C   0  0  0  0  0  0  0  0  0  0  0  0
    7.4081   14.2861    0.0000 H   0  0  0  0  0  0  0  0  0  0  0  0
    6.1081   12.0361    0.0000 C   0  0  0  0  0  0  0  0  0  0  0  0
    4.8092   12.7863    0.0000 H   0  0  0  0  0  0  0  0  0  0  0  0
    6.1081   10.5361    0.0000 C   0  0  0  0  0  0  0  0  0  0  0  0
    4.8092    9.7859    0.0000 H   0  0  0  0  0  0  0  0  0  0  0  0
    3.9787    7.8061    0.0000 N   0  0  0  0  0  0  0  0  0  0  0  0
    3.9787    9.3061    0.0000 H   0  0  0  0  0  0  0  0  0  0  0  0
    2.6796    7.0561    0.0000 C   0  0  0  0  0  0  0  0  0  0  0  0
    2.6796    5.5561    0.0000 O   0  0  0  0  0  0  0  0  0  0  0  0
    1.3806    7.8061    0.0000 C   0  0  0  0  0  0  0  0  0  0  0  0
    2.3448    8.9551    0.0000 H   0  0  0  0  0  0  0  0  0  0  0  0
    0.4164    8.9551    0.0000 H   0  0  0  0  0  0  0  0  0  0  0  0
    0.0816    7.0561    0.0000 O   0  0  0  0  0  0  0  0  0  0  0  0
   -1.2175    7.8061    0.0000 C   0  0  0  0  0  0  0  0  0  0  0  0
   -1.2059    9.3049    0.0000 C   0  0  0  0  0  0  0  0  0  0  0  0
    0.1001   10.0427    0.0000 C   0  0  0  0  0  0  0  0  0  0  0  0
    1.3921    9.2805    0.0000 H   0  0  0  0  0  0  0  0  0  0  0  0
   -0.8532   11.2008    0.0000 H   0  0  0  0  0  0  0  0  0  0  0  0
    1.0751   11.1826    0.0000 H   0  0  0  0  0  0  0  0  0  0  0  0
   -2.4796   10.0593    0.0000 C   0  0  0  0  0  0  0  0  0  0  0  0
   -2.4675   11.5593    0.0000 H   0  0  0  0  0  0  0  0  0  0  0  0
   -3.7543    9.3318    0.0000 C   0  0  0  0  0  0  0  0  0  0  0  0
   -5.0384   10.1071    0.0000 H   0  0  0  0  0  0  0  0  0  0  0  0
   -3.8051    7.8455    0.0000 C   0  0  0  0  0  0  0  0  0  0  0  0
   -5.1280    7.1385    0.0000 H   0  0  0  0  0  0  0  0  0  0  0  0
   -2.5132    7.0446    0.0000 C   0  0  0  0  0  0  0  0  0  0  0  0
   -2.5310    5.5447    0.0000 C   0  0  0  0  0  0  0  0  0  0  0  0
   -3.8388    4.8101    0.0000 H   0  0  0  0  0  0  0  0  0  0  0  0
   -2.0347    4.1291    0.0000 H   0  0  0  0  0  0  0  0  0  0  0  0
   -1.0508    5.7876    0.0000 H   0  0  0  0  0  0  0  0  0  0  0  0
    5.0995    2.6065    0.0000 C   0  0  0  0  0  0  0  0  0  0  0  0
    3.8005    3.3565    0.0000 H   0  0  0  0  0  0  0  0  0  0  0  0
    5.6126    4.0161    0.0000 H   0  0  0  0  0  0  0  0  0  0  0  0
    4.1354    1.4575    0.0000 C   0  0  0  0  0  0  0  0  0  0  0  0
    2.6574    1.7186    0.0000 C   0  0  0  0  0  0  0  0  0  0  0  0
    2.1446    3.1282    0.0000 H   0  0  0  0  0  0  0  0  0  0  0  0
    1.6932    0.5695    0.0000 C   0  0  0  0  0  0  0  0  0  0  0  0
    0.2160    0.8297    0.0000 H   0  0  0  0  0  0  0  0  0  0  0  0
    2.2070   -0.8407    0.0000 C   0  0  0  0  0  0  0  0  0  0  0  0
    1.2428   -1.9897    0.0000 H   0  0  0  0  0  0  0  0  0  0  0  0
    3.6849   -1.1018    0.0000 C   0  0  0  0  0  0  0  0  0  0  0  0
    4.1977   -2.5114    0.0000 H   0  0  0  0  0  0  0  0  0  0  0  0
    4.6491    0.0473    0.0000 C   0  0  0  0  0  0  0  0  0  0  0  0
    6.1264   -0.2129    0.0000 H   0  0  0  0  0  0  0  0  0  0  0  0
   10.8896   -0.1439    0.0000 N   0  0  0  0  0  0  0  0  0  0  0  0
    9.5896   -0.8939    0.0000 C   0  0  0  0  0  0  0  0  0  0  0  0
    9.0768    0.5157    0.0000 H   0  0  0  0  0  0  0  0  0  0  0  0
    8.1123   -1.1543    0.0000 H   0  0  0  0  0  0  0  0  0  0  0  0
    9.5896   -2.3939    0.0000 C   0  0  0  0  0  0  0  0  0  0  0  0
    8.1123   -2.1336    0.0000 H   0  0  0  0  0  0  0  0  0  0  0  0
    9.0768   -3.8036    0.0000 H   0  0  0  0  0  0  0  0  0  0  0  0
   10.8896   -3.1439    0.0000 C   0  0  0  0  0  0  0  0  0  0  0  0
    9.9255   -4.2931    0.0000 H   0  0  0  0  0  0  0  0  0  0  0  0
   11.8536   -4.2931    0.0000 H   0  0  0  0  0  0  0  0  0  0  0  0
   12.1896   -2.3939    0.0000 N   0  0  0  0  0  0  0  0  0  0  0  0
   13.4885   -3.1441    0.0000 H   0  0  0  0  0  0  0  0  0  0  0  0
   12.1896   -0.8939    0.0000 C   0  0  0  0  0  0  0  0  0  0  0  0
   13.4885   -0.1437    0.0000 O   0  0  0  0  0  0  0  0  0  0  0  0
  1  2  1  0  0  0  0 
  1  3  1  0  0  0  0 
  1  4  1  0  0  0  0 
  1  5  1  0  0  0  0 
  5  6  1  0  0  0  0 
  5  7  1  0  0  0  0 
  7  8  1  0  0  0  0 
  7  9  1  0  0  0  0 
  7 10  1  0  0  0  0 
  5 11  1  0  0  0  0 
 11 12  1  1  0  0  0 
 11 13  1  0  0  0  0 
 13 14  2  0  0  0  0 
 13 15  1  0  0  0  0 
 15 16  1  0  0  0  0 
 17 15  1  1  0  0  0 
 17 18  1  6  0  0  0 
 17 19  1  0  0  0  0 
 19 20  1  0  0  0  0 
 19 21  1  0  0  0  0 
 19 22  1  0  0  0  0 
 22 23  1  4  0  0  0 
 22 24  2  0  0  0  0 
 24 25  1  0  0  0  0 
 25 26  1  0  0  0  0 
 25 27  1  0  0  0  0 
 25 28  1  0  0  0  0 
 28 29  2  0  0  0  0 
 29 30  1  0  0  0  0 
 29 31  1  0  0  0  0 
 31 32  1  0  0  0  0 
 31 33  2  0  0  0  0 
 33 34  1  0  0  0  0 
 33 35  1  0  0  0  0 
 35 36  1  0  0  0  0 
 35 37  2  0  0  0  0 
 28 37  1  0  0  0  0 
 37 38  1  0  0  0  0 
 24 39  1  0  0  0  0 
 39 40  1  0  0  0  0 
 39 41  1  0  0  0  0 
 41 42  2  0  0  0  0 
 41 43  1  0  0  0  0 
 43 44  1  0  0  0  0 
 43 45  1  0  0  0  0 
 43 46  1  0  0  0  0 
 46 47  1  0  0  0  0 
 47 48  2  0  0  0  0 
 48 49  1  0  0  0  0 
 49 50  1  0  0  0  0 
 49 51  1  0  0  0  0 
 49 52  1  0  0  0  0 
 48 53  1  0  0  0  0 
 53 54  1  0  0  0  0 
 53 55  2  0  0  0  0 
 55 56  1  0  0  0  0 
 55 57  1  0  0  0  0 
 57 58  1  0  0  0  0 
 57 59  2  0  0  0  0 
 47 59  1  0  0  0  0 
 59 60  1  0  0  0  0 
 60 61  1  0  0  0  0 
 60 62  1  0  0  0  0 
 60 63  1  0  0  0  0 
 17 64  1  0  0  0  0 
 64 65  1  0  0  0  0 
 64 66  1  0  0  0  0 
 64 67  1  0  0  0  0 
 67 68  2  0  0  0  0 
 68 69  1  0  0  0  0 
 68 70  1  0  0  0  0 
 70 71  1  0  0  0  0 
 70 72  2  0  0  0  0 
 72 73  1  0  0  0  0 
 72 74  1  0  0  0  0 
 74 75  1  0  0  0  0 
 74 76  2  0  0  0  0 
 67 76  1  0  0  0  0 
 76 77  1  0  0  0  0 
 11 78  1  6  0  0  0 
 78 79  1  0  0  0  0 
 79 80  1  0  0  0  0 
 79 81  1  0  0  0  0 
 79 82  1  0  0  0  0 
 82 83  1  0  0  0  0 
 82 84  1  0  0  0  0 
 82 85  1  0  0  0  0 
 85 86  1  0  0  0  0 
 85 87  1  0  0  0  0 
 85 88  1  0  0  0  0 
 88 89  1  0  0  0  0 
 88 90  1  0  0  0  0 
 78 90  1  0  0  0  0 
 90 91  2  0  0  0  0 
M  END
> <Rank>
47

> <Priority_score>
0.036

> <Reaction_type>
dehydration_next_to_SP2_b

> <Parent_ID>
63

> <Parent_InChI>
InChI=1S/C37H48N4O5/c1-25(2)34(41-20-12-19-38-37(41)45)36(44)39-30(21-28-15-7-5-8-16-28)23-32(42)31(22-29-17-9-6-10-18-29)40-33(43)24-46-35-26(3)13-11-14-27(35)4/h5-11,13-18,25,30-32,34,42H,12,19-24H2,1-4H3,(H,38,45)(H,39,44)(H,40,43)

> <Parent_SMILES>
Cc1cccc(C)c1OCC(=O)N[C@@H](Cc1ccccc1)[C@@H](O)C[C@H](Cc1ccccc1)NC(=O)[C@H](C(C)C)N1CCCNC1=O

$$$$
Molecule 63_metabolite 48
  CDK     0516241031

 95 98  0  0  0  0  0  0  0  0999 V2000
   11.3656    7.3022    0.0000 C   0  0  0  0  0  0  0  0  0  0  0  0
   11.1051    8.7794    0.0000 H   0  0  0  0  0  0  0  0  0  0  0  0
   12.7751    7.8152    0.0000 H   0  0  0  0  0  0  0  0  0  0  0  0
   12.1156    6.0031    0.0000 H   0  0  0  0  0  0  0  0  0  0  0  0
    9.8488    6.0295    0.0000 C   0  0  0  0  0  0  0  0  0  0  0  0
    8.4393    5.5164    0.0000 H   0  0  0  0  0  0  0  0  0  0  0  0
    9.0988    7.3285    0.0000 C   0  0  0  0  0  0  0  0  0  0  0  0
    9.8488    8.6275    0.0000 H   0  0  0  0  0  0  0  0  0  0  0  0
    7.9498    6.3643    0.0000 H   0  0  0  0  0  0  0  0  0  0  0  0
    7.9498    8.2927    0.0000 H   0  0  0  0  0  0  0  0  0  0  0  0
   10.1093    4.5523    0.0000 C   0  0  1  0  0  0  0  0  0  0  0  0
   11.5189    5.0653    0.0000 H   0  0  0  0  0  0  0  0  0  0  0  0
    8.1293    4.5523    0.0000 C   0  0  0  0  0  0  0  0  0  0  0  0
    7.3793    3.2532    0.0000 O   0  0  0  0  0  0  0  0  0  0  0  0
    7.3793    5.8513    0.0000 N   0  0  0  0  0  0  0  0  0  0  0  0
    8.1293    7.1503    0.0000 H   0  0  0  0  0  0  0  0  0  0  0  0
    5.3993    5.8513    0.0000 C   0  0  1  0  0  0  0  0  0  0  0  0
    5.6598    4.3741    0.0000 H   0  0  0  0  0  0  0  0  0  0  0  0
    3.9898    5.3383    0.0000 C   0  0  0  0  0  0  0  0  0  0  0  0
    3.7293    6.8155    0.0000 H   0  0  0  0  0  0  0  0  0  0  0  0
    2.4898    5.3383    0.0000 H   0  0  0  0  0  0  0  0  0  0  0  0
    3.7293    3.8611    0.0000 C   0  0  0  0  0  0  0  0  0  0  0  0
    4.8793    2.8967    0.0000 C   0  0  0  0  0  0  0  0  0  0  0  0
    6.2888    3.4100    0.0000 H   0  0  0  0  0  0  0  0  0  0  0  0
    4.6188    1.4195    0.0000 C   0  0  0  0  0  0  0  0  0  0  0  0
    5.7678    0.4551    0.0000 H   0  0  0  0  0  0  0  0  0  0  0  0
    3.2084    0.9066    0.0000 C   0  0  0  0  0  0  0  0  0  0  0  0
    2.9479   -0.5706    0.0000 H   0  0  0  0  0  0  0  0  0  0  0  0
    2.0583    1.8710    0.0000 C   0  0  0  0  0  0  0  0  0  0  0  0
    0.6489    1.3577    0.0000 H   0  0  0  0  0  0  0  0  0  0  0  0
    2.3188    3.3482    0.0000 C   0  0  0  0  0  0  0  0  0  0  0  0
    1.1699    4.3126    0.0000 H   0  0  0  0  0  0  0  0  0  0  0  0
    4.4093    7.5660    0.0000 C   0  0  0  0  0  0  0  0  0  0  0  0
    4.1488    9.0432    0.0000 H   0  0  0  0  0  0  0  0  0  0  0  0
    5.8189    8.0791    0.0000 H   0  0  0  0  0  0  0  0  0  0  0  0
    2.9093    7.5660    0.0000 C   0  0  1  0  0  0  0  0  0  0  0  0
    3.1698    6.0888    0.0000 H   0  0  0  0  0  0  0  0  0  0  0  0
    2.1593    8.8651    0.0000 C   0  0  2  0  0  0  0  0  0  0  0  0
    1.0102    9.8292    0.0000 C   0  0  0  0  0  0  0  0  0  0  0  0
    0.2602   11.1283    0.0000 H   0  0  0  0  0  0  0  0  0  0  0  0
    2.1593   10.7934    0.0000 H   0  0  0  0  0  0  0  0  0  0  0  0
   -0.8503    9.1520    0.0000 C   0  0  0  0  0  0  0  0  0  0  0  0
   -1.9997   10.1171    0.0000 C   0  0  0  0  0  0  0  0  0  0  0  0
   -1.7390   11.5943    0.0000 H   0  0  0  0  0  0  0  0  0  0  0  0
   -3.4093    9.6041    0.0000 C   0  0  0  0  0  0  0  0  0  0  0  0
   -4.5585   10.5681    0.0000 H   0  0  0  0  0  0  0  0  0  0  0  0
   -3.6694    8.1260    0.0000 C   0  0  0  0  0  0  0  0  0  0  0  0
   -5.0790    7.6130    0.0000 H   0  0  0  0  0  0  0  0  0  0  0  0
   -2.5200    7.1609    0.0000 C   0  0  0  0  0  0  0  0  0  0  0  0
   -2.7807    5.6837    0.0000 H   0  0  0  0  0  0  0  0  0  0  0  0
   -1.1105    7.6739    0.0000 C   0  0  0  0  0  0  0  0  0  0  0  0
    0.0387    6.7099    0.0000 H   0  0  0  0  0  0  0  0  0  0  0  0
    3.1493   10.5798    0.0000 N   0  0  0  0  0  0  0  0  0  0  0  0
    4.6493   10.5798    0.0000 H   0  0  0  0  0  0  0  0  0  0  0  0
    2.3993   11.8788    0.0000 C   0  0  0  0  0  0  0  0  0  0  0  0
    0.8993   11.8788    0.0000 O   0  0  0  0  0  0  0  0  0  0  0  0
    3.1493   13.1779    0.0000 C   0  0  0  0  0  0  0  0  0  0  0  0
    4.2984   12.2137    0.0000 H   0  0  0  0  0  0  0  0  0  0  0  0
    4.2984   14.1420    0.0000 H   0  0  0  0  0  0  0  0  0  0  0  0
    2.3993   14.4769    0.0000 O   0  0  0  0  0  0  0  0  0  0  0  0
    3.1493   15.7759    0.0000 C   0  0  0  0  0  0  0  0  0  0  0  0
    4.6482   15.7644    0.0000 C   0  0  0  0  0  0  0  0  0  0  0  0
    5.3859   14.4583    0.0000 C   0  0  0  0  0  0  0  0  0  0  0  0
    4.6237   13.1664    0.0000 H   0  0  0  0  0  0  0  0  0  0  0  0
    6.5440   15.4116    0.0000 H   0  0  0  0  0  0  0  0  0  0  0  0
    6.5259   13.4834    0.0000 H   0  0  0  0  0  0  0  0  0  0  0  0
    5.4026   17.0380    0.0000 C   0  0  0  0  0  0  0  0  0  0  0  0
    6.9025   17.0260    0.0000 H   0  0  0  0  0  0  0  0  0  0  0  0
    4.6751   18.3127    0.0000 C   0  0  0  0  0  0  0  0  0  0  0  0
    5.4504   19.5968    0.0000 H   0  0  0  0  0  0  0  0  0  0  0  0
    3.1888   18.3636    0.0000 C   0  0  0  0  0  0  0  0  0  0  0  0
    2.4818   19.6865    0.0000 H   0  0  0  0  0  0  0  0  0  0  0  0
    2.3878   17.0717    0.0000 C   0  0  0  0  0  0  0  0  0  0  0  0
    0.8879   17.0895    0.0000 C   0  0  0  0  0  0  0  0  0  0  0  0
    0.1534   18.3973    0.0000 H   0  0  0  0  0  0  0  0  0  0  0  0
   -0.5276   16.5932    0.0000 H   0  0  0  0  0  0  0  0  0  0  0  0
    1.1309   15.6093    0.0000 H   0  0  0  0  0  0  0  0  0  0  0  0
    1.0102    7.9009    0.0000 O   0  0  0  0  0  0  0  0  0  0  0  0
   -0.3993    8.4139    0.0000 H   0  0  0  0  0  0  0  0  0  0  0  0
    1.4998    7.0530    0.0000 O   0  0  0  0  0  0  0  0  0  0  0  0
    1.2393    5.5758    0.0000 H   0  0  0  0  0  0  0  0  0  0  0  0
   10.8593    3.2532    0.0000 N   0  0  0  0  0  0  0  0  0  0  0  0
   10.1085    1.9537    0.0000 C   0  0  0  0  0  0  0  0  0  0  0  0
    8.9596    2.9181    0.0000 H   0  0  0  0  0  0  0  0  0  0  0  0
    8.9593    0.9896    0.0000 H   0  0  0  0  0  0  0  0  0  0  0  0
   10.8585    0.6547    0.0000 C   0  0  0  0  0  0  0  0  0  0  0  0
    9.4490    0.1415    0.0000 H   0  0  0  0  0  0  0  0  0  0  0  0
   11.1193   -0.8225    0.0000 H   0  0  0  0  0  0  0  0  0  0  0  0
   12.3593    0.6551    0.0000 C   0  0  0  0  0  0  0  0  0  0  0  0
   12.0990   -0.8221    0.0000 H   0  0  0  0  0  0  0  0  0  0  0  0
   13.7688    0.1420    0.0000 H   0  0  0  0  0  0  0  0  0  0  0  0
   13.1101    1.9547    0.0000 N   0  0  0  0  0  0  0  0  0  0  0  0
   14.6101    1.9544    0.0000 H   0  0  0  0  0  0  0  0  0  0  0  0
   12.3601    3.2537    0.0000 C   0  0  0  0  0  0  0  0  0  0  0  0
   13.1099    4.5529    0.0000 O   0  0  0  0  0  0  0  0  0  0  0  0
  1  2  1  0  0  0  0 
  1  3  1  0  0  0  0 
  1  4  1  0  0  0  0 
  1  5  1  0  0  0  0 
  5  6  1  0  0  0  0 
  5  7  1  0  0  0  0 
  7  8  1  0  0  0  0 
  7  9  1  0  0  0  0 
  7 10  1  0  0  0  0 
  5 11  1  0  0  0  0 
 11 12  1  1  0  0  0 
 11 13  1  0  0  0  0 
 13 14  2  0  0  0  0 
 13 15  1  0  0  0  0 
 15 16  1  0  0  0  0 
 17 15  1  1  0  0  0 
 17 18  1  6  0  0  0 
 17 19  1  0  0  0  0 
 19 20  1  0  0  0  0 
 19 21  1  0  0  0  0 
 19 22  1  0  0  0  0 
 22 23  2  0  0  0  0 
 23 24  1  0  0  0  0 
 23 25  1  0  0  0  0 
 25 26  1  0  0  0  0 
 25 27  2  0  0  0  0 
 27 28  1  0  0  0  0 
 27 29  1  0  0  0  0 
 29 30  1  0  0  0  0 
 29 31  2  0  0  0  0 
 22 31  1  0  0  0  0 
 31 32  1  0  0  0  0 
 17 33  1  0  0  0  0 
 33 34  1  0  0  0  0 
 33 35  1  0  0  0  0 
 33 36  1  0  0  0  0 
 36 37  1  1  0  0  0 
 36 38  1  0  0  0  0 
 38 39  1  6  0  0  0 
 39 40  1  0  0  0  0 
 39 41  1  0  0  0  0 
 39 42  1  0  0  0  0 
 42 43  2  0  0  0  0 
 43 44  1  0  0  0  0 
 43 45  1  0  0  0  0 
 45 46  1  0  0  0  0 
 45 47  2  0  0  0  0 
 47 48  1  0  0  0  0 
 47 49  1  0  0  0  0 
 49 50  1  0  0  0  0 
 49 51  2  0  0  0  0 
 42 51  1  0  0  0  0 
 51 52  1  0  0  0  0 
 38 53  1  1  0  0  0 
 53 54  1  0  0  0  0 
 53 55  1  0  0  0  0 
 55 56  2  0  0  0  0 
 55 57  1  0  0  0  0 
 57 58  1  0  0  0  0 
 57 59  1  0  0  0  0 
 57 60  1  0  0  0  0 
 60 61  1  0  0  0  0 
 61 62  2  0  0  0  0 
 62 63  1  0  0  0  0 
 63 64  1  0  0  0  0 
 63 65  1  0  0  0  0 
 63 66  1  0  0  0  0 
 62 67  1  0  0  0  0 
 67 68  1  0  0  0  0 
 67 69  2  0  0  0  0 
 69 70  1  0  0  0  0 
 69 71  1  0  0  0  0 
 71 72  1  0  0  0  0 
 71 73  2  0  0  0  0 
 61 73  1  0  0  0  0 
 73 74  1  0  0  0  0 
 74 75  1  0  0  0  0 
 74 76  1  0  0  0  0 
 74 77  1  0  0  0  0 
 38 78  1  0  0  0  0 
 78 79  1  0  0  0  0 
 36 80  1  6  0  0  0 
 80 81  1  0  0  0  0 
 11 82  1  6  0  0  0 
 82 83  1  0  0  0  0 
 83 84  1  0  0  0  0 
 83 85  1  0  0  0  0 
 83 86  1  0  0  0  0 
 86 87  1  0  0  0  0 
 86 88  1  0  0  0  0 
 86 89  1  0  0  0  0 
 89 90  1  0  0  0  0 
 89 91  1  0  0  0  0 
 89 92  1  0  0  0  0 
 92 93  1  0  0  0  0 
 92 94  1  0  0  0  0 
 82 94  1  0  0  0  0 
 94 95  2  0  0  0  0 
M  END
> <Rank>
48

> <Priority_score>
0.032

> <Reaction_type>
aliphatic_hydroxylation_(tert_carbon_next_to_SP2)

> <Parent_ID>
63

> <Parent_InChI>
InChI=1S/C37H48N4O5/c1-25(2)34(41-20-12-19-38-37(41)45)36(44)39-30(21-28-15-7-5-8-16-28)23-32(42)31(22-29-17-9-6-10-18-29)40-33(43)24-46-35-26(3)13-11-14-27(35)4/h5-11,13-18,25,30-32,34,42H,12,19-24H2,1-4H3,(H,38,45)(H,39,44)(H,40,43)

> <Parent_SMILES>
Cc1cccc(C)c1OCC(=O)N[C@@H](Cc1ccccc1)[C@@H](O)C[C@H](Cc1ccccc1)NC(=O)[C@H](C(C)C)N1CCCNC1=O

$$$$
Molecule 63_metabolite 49
  CDK     0516241031

 95 98  0  0  0  0  0  0  0  0999 V2000
    7.0057   13.3229    0.0000 C   0  0  0  0  0  0  0  0  0  0  0  0
    8.4829   13.0625    0.0000 H   0  0  0  0  0  0  0  0  0  0  0  0
    7.5188   14.7325    0.0000 H   0  0  0  0  0  0  0  0  0  0  0  0
    5.7067   14.0729    0.0000 H   0  0  0  0  0  0  0  0  0  0  0  0
    5.7330   11.8062    0.0000 C   0  0  0  0  0  0  0  0  0  0  0  0
    5.2200   10.3966    0.0000 H   0  0  0  0  0  0  0  0  0  0  0  0
    7.0320   11.0562    0.0000 C   0  0  0  0  0  0  0  0  0  0  0  0
    7.0320    9.5562    0.0000 H   0  0  0  0  0  0  0  0  0  0  0  0
    7.5451   12.4657    0.0000 H   0  0  0  0  0  0  0  0  0  0  0  0
    8.5093   10.7957    0.0000 H   0  0  0  0  0  0  0  0  0  0  0  0
    4.2558   12.0666    0.0000 C   0  0  1  0  0  0  0  0  0  0  0  0
    4.7688   13.4762    0.0000 H   0  0  0  0  0  0  0  0  0  0  0  0
    4.2558   10.0866    0.0000 C   0  0  0  0  0  0  0  0  0  0  0  0
    5.5548    9.3366    0.0000 O   0  0  0  0  0  0  0  0  0  0  0  0
    2.9568    9.3366    0.0000 N   0  0  0  0  0  0  0  0  0  0  0  0
    1.6577   10.0866    0.0000 H   0  0  0  0  0  0  0  0  0  0  0  0
    2.9568    7.3566    0.0000 C   0  0  1  0  0  0  0  0  0  0  0  0
    4.4340    7.6171    0.0000 H   0  0  0  0  0  0  0  0  0  0  0  0
    3.4698    5.9471    0.0000 C   0  0  0  0  0  0  0  0  0  0  0  0
    1.9926    5.6866    0.0000 H   0  0  0  0  0  0  0  0  0  0  0  0
    3.4698    4.4471    0.0000 H   0  0  0  0  0  0  0  0  0  0  0  0
    4.9470    5.6866    0.0000 C   0  0  0  0  0  0  0  0  0  0  0  0
    5.9113    6.8367    0.0000 C   0  0  0  0  0  0  0  0  0  0  0  0
    5.3981    8.2461    0.0000 H   0  0  0  0  0  0  0  0  0  0  0  0
    7.3886    6.5762    0.0000 C   0  0  0  0  0  0  0  0  0  0  0  0
    8.3529    7.7251    0.0000 H   0  0  0  0  0  0  0  0  0  0  0  0
    7.9014    5.1657    0.0000 C   0  0  0  0  0  0  0  0  0  0  0  0
    9.3786    4.9052    0.0000 H   0  0  0  0  0  0  0  0  0  0  0  0
    6.9371    4.0157    0.0000 C   0  0  0  0  0  0  0  0  0  0  0  0
    7.4503    2.6062    0.0000 H   0  0  0  0  0  0  0  0  0  0  0  0
    5.4599    4.2762    0.0000 C   0  0  0  0  0  0  0  0  0  0  0  0
    4.4955    3.1272    0.0000 H   0  0  0  0  0  0  0  0  0  0  0  0
    0.4106    5.8866    0.0000 C   0  0  0  0  0  0  0  0  0  0  0  0
   -0.5535    4.7376    0.0000 H   0  0  0  0  0  0  0  0  0  0  0  0
    1.3748    4.7376    0.0000 H   0  0  0  0  0  0  0  0  0  0  0  0
   -0.8884    6.6366    0.0000 C   0  0  1  0  0  0  0  0  0  0  0  0
   -2.6031    5.6466    0.0000 C   0  0  2  0  0  0  0  0  0  0  0  0
   -3.5673    4.4976    0.0000 H   0  0  0  0  0  0  0  0  0  0  0  0
   -1.6389    4.4976    0.0000 C   0  0  0  0  0  0  0  0  0  0  0  0
   -0.3399    3.7476    0.0000 H   0  0  0  0  0  0  0  0  0  0  0  0
   -0.6748    5.6466    0.0000 H   0  0  0  0  0  0  0  0  0  0  0  0
   -2.1520    3.0880    0.0000 C   0  0  0  0  0  0  0  0  0  0  0  0
   -1.1869    1.9386    0.0000 C   0  0  0  0  0  0  0  0  0  0  0  0
    0.2903    2.1994    0.0000 H   0  0  0  0  0  0  0  0  0  0  0  0
   -1.6999    0.5291    0.0000 C   0  0  0  0  0  0  0  0  0  0  0  0
   -0.7359   -0.6201    0.0000 H   0  0  0  0  0  0  0  0  0  0  0  0
   -3.1780    0.2690    0.0000 C   0  0  0  0  0  0  0  0  0  0  0  0
   -3.6911   -1.1406    0.0000 H   0  0  0  0  0  0  0  0  0  0  0  0
   -4.1431    1.4184    0.0000 C   0  0  0  0  0  0  0  0  0  0  0  0
   -5.6203    1.1577    0.0000 H   0  0  0  0  0  0  0  0  0  0  0  0
   -3.6301    2.8279    0.0000 C   0  0  0  0  0  0  0  0  0  0  0  0
   -4.5941    3.9771    0.0000 H   0  0  0  0  0  0  0  0  0  0  0  0
   -4.3179    6.6366    0.0000 N   0  0  0  0  0  0  0  0  0  0  0  0
   -4.3179    8.1366    0.0000 H   0  0  0  0  0  0  0  0  0  0  0  0
   -5.6169    5.8866    0.0000 C   0  0  0  0  0  0  0  0  0  0  0  0
   -5.6169    4.3866    0.0000 O   0  0  0  0  0  0  0  0  0  0  0  0
   -6.9159    6.6366    0.0000 C   0  0  0  0  0  0  0  0  0  0  0  0
   -5.9518    7.7857    0.0000 H   0  0  0  0  0  0  0  0  0  0  0  0
   -7.8801    7.7857    0.0000 H   0  0  0  0  0  0  0  0  0  0  0  0
   -8.2150    5.8866    0.0000 O   0  0  0  0  0  0  0  0  0  0  0  0
   -9.5140    6.6366    0.0000 C   0  0  0  0  0  0  0  0  0  0  0  0
   -9.5024    8.1355    0.0000 C   0  0  0  0  0  0  0  0  0  0  0  0
   -8.1964    8.8733    0.0000 C   0  0  0  0  0  0  0  0  0  0  0  0
   -6.9045    8.1110    0.0000 H   0  0  0  0  0  0  0  0  0  0  0  0
   -9.1497   10.0314    0.0000 H   0  0  0  0  0  0  0  0  0  0  0  0
   -7.2214   10.0132    0.0000 H   0  0  0  0  0  0  0  0  0  0  0  0
  -10.7761    8.8899    0.0000 C   0  0  0  0  0  0  0  0  0  0  0  0
  -10.7640   10.3899    0.0000 H   0  0  0  0  0  0  0  0  0  0  0  0
  -12.0508    8.1624    0.0000 C   0  0  0  0  0  0  0  0  0  0  0  0
  -13.3349    8.9377    0.0000 H   0  0  0  0  0  0  0  0  0  0  0  0
  -12.1016    6.6761    0.0000 C   0  0  0  0  0  0  0  0  0  0  0  0
  -13.4246    5.9691    0.0000 H   0  0  0  0  0  0  0  0  0  0  0  0
  -10.8098    5.8751    0.0000 C   0  0  0  0  0  0  0  0  0  0  0  0
  -10.8275    4.3752    0.0000 C   0  0  0  0  0  0  0  0  0  0  0  0
  -12.1354    3.6407    0.0000 H   0  0  0  0  0  0  0  0  0  0  0  0
  -10.3312    2.9597    0.0000 H   0  0  0  0  0  0  0  0  0  0  0  0
   -9.3474    4.6182    0.0000 H   0  0  0  0  0  0  0  0  0  0  0  0
    0.0758    7.7857    0.0000 O   0  0  0  0  0  0  0  0  0  0  0  0
   -0.4372    9.1953    0.0000 H   0  0  0  0  0  0  0  0  0  0  0  0
   -1.8526    7.7857    0.0000 O   0  0  0  0  0  0  0  0  0  0  0  0
   -1.3396    9.1953    0.0000 H   0  0  0  0  0  0  0  0  0  0  0  0
    2.9568   12.8166    0.0000 N   0  0  0  0  0  0  0  0  0  0  0  0
    1.6572   12.0658    0.0000 C   0  0  0  0  0  0  0  0  0  0  0  0
    2.6217   10.9170    0.0000 H   0  0  0  0  0  0  0  0  0  0  0  0
    0.6932   10.9166    0.0000 H   0  0  0  0  0  0  0  0  0  0  0  0
    0.3582   12.8158    0.0000 C   0  0  0  0  0  0  0  0  0  0  0  0
   -0.1550   11.4063    0.0000 H   0  0  0  0  0  0  0  0  0  0  0  0
   -1.1190   13.0766    0.0000 H   0  0  0  0  0  0  0  0  0  0  0  0
    0.3587   14.3166    0.0000 C   0  0  0  0  0  0  0  0  0  0  0  0
   -1.1186   14.0563    0.0000 H   0  0  0  0  0  0  0  0  0  0  0  0
   -0.1545   15.7261    0.0000 H   0  0  0  0  0  0  0  0  0  0  0  0
    1.6582   15.0675    0.0000 N   0  0  0  0  0  0  0  0  0  0  0  0
    1.6580   16.5675    0.0000 H   0  0  0  0  0  0  0  0  0  0  0  0
    2.9572   14.3175    0.0000 C   0  0  0  0  0  0  0  0  0  0  0  0
    4.2564   15.0673    0.0000 O   0  0  0  0  0  0  0  0  0  0  0  0
  1  2  1  0  0  0  0 
  1  3  1  0  0  0  0 
  1  4  1  0  0  0  0 
  1  5  1  0  0  0  0 
  5  6  1  0  0  0  0 
  5  7  1  0  0  0  0 
  7  8  1  0  0  0  0 
  7  9  1  0  0  0  0 
  7 10  1  0  0  0  0 
  5 11  1  0  0  0  0 
 11 12  1  6  0  0  0 
 11 13  1  0  0  0  0 
 13 14  2  0  0  0  0 
 13 15  1  0  0  0  0 
 15 16  1  0  0  0  0 
 17 15  1  1  0  0  0 
 17 18  1  6  0  0  0 
 17 19  1  0  0  0  0 
 19 20  1  0  0  0  0 
 19 21  1  0  0  0  0 
 19 22  1  0  0  0  0 
 22 23  2  0  0  0  0 
 23 24  1  0  0  0  0 
 23 25  1  0  0  0  0 
 25 26  1  0  0  0  0 
 25 27  2  0  0  0  0 
 27 28  1  0  0  0  0 
 27 29  1  0  0  0  0 
 29 30  1  0  0  0  0 
 29 31  2  0  0  0  0 
 22 31  1  0  0  0  0 
 31 32  1  0  0  0  0 
 17 33  1  0  0  0  0 
 33 34  1  0  0  0  0 
 33 35  1  0  0  0  0 
 33 36  1  0  0  0  0 
 36 37  1  0  0  0  0 
 37 38  1  1  0  0  0 
 37 39  1  0  0  0  0 
 39 40  1  0  0  0  0 
 39 41  1  0  0  0  0 
 39 42  1  0  0  0  0 
 42 43  2  0  0  0  0 
 43 44  1  0  0  0  0 
 43 45  1  0  0  0  0 
 45 46  1  0  0  0  0 
 45 47  2  0  0  0  0 
 47 48  1  0  0  0  0 
 47 49  1  0  0  0  0 
 49 50  1  0  0  0  0 
 49 51  2  0  0  0  0 
 42 51  1  0  0  0  0 
 51 52  1  0  0  0  0 
 37 53  1  6  0  0  0 
 53 54  1  0  0  0  0 
 53 55  1  0  0  0  0 
 55 56  2  0  0  0  0 
 55 57  1  0  0  0  0 
 57 58  1  0  0  0  0 
 57 59  1  0  0  0  0 
 57 60  1  0  0  0  0 
 60 61  1  0  0  0  0 
 61 62  2  0  0  0  0 
 62 63  1  0  0  0  0 
 63 64  1  0  0  0  0 
 63 65  1  0  0  0  0 
 63 66  1  0  0  0  0 
 62 67  1  0  0  0  0 
 67 68  1  0  0  0  0 
 67 69  2  0  0  0  0 
 69 70  1  0  0  0  0 
 69 71  1  0  0  0  0 
 71 72  1  0  0  0  0 
 71 73  2  0  0  0  0 
 61 73  1  0  0  0  0 
 73 74  1  0  0  0  0 
 74 75  1  0  0  0  0 
 74 76  1  0  0  0  0 
 74 77  1  0  0  0  0 
 36 78  1  1  0  0  0 
 78 79  1  0  0  0  0 
 36 80  1  6  0  0  0 
 80 81  1  0  0  0  0 
 11 82  1  1  0  0  0 
 82 83  1  0  0  0  0 
 83 84  1  0  0  0  0 
 83 85  1  0  0  0  0 
 83 86  1  0  0  0  0 
 86 87  1  0  0  0  0 
 86 88  1  0  0  0  0 
 86 89  1  0  0  0  0 
 89 90  1  0  0  0  0 
 89 91  1  0  0  0  0 
 89 92  1  0  0  0  0 
 92 93  1  0  0  0  0 
 92 94  1  0  0  0  0 
 82 94  1  0  0  0  0 
 94 95  2  0  0  0  0 
M  END
> <Rank>
48

> <Priority_score>
0.032

> <Reaction_type>
aliphatic hydroxylation

> <Parent_ID>
63

> <Parent_InChI>
InChI=1S/C37H48N4O5/c1-25(2)34(41-20-12-19-38-37(41)45)36(44)39-30(21-28-15-7-5-8-16-28)23-32(42)31(22-29-17-9-6-10-18-29)40-33(43)24-46-35-26(3)13-11-14-27(35)4/h5-11,13-18,25,30-32,34,42H,12,19-24H2,1-4H3,(H,38,45)(H,39,44)(H,40,43)

> <Parent_SMILES>
Cc1cccc(C)c1OCC(=O)N[C@@H](Cc1ccccc1)[C@@H](O)C[C@H](Cc1ccccc1)NC(=O)[C@H](C(C)C)N1CCCNC1=O

$$$$
Molecule 63_metabolite 50
  CDK     0516241031

 26 26  0  0  0  0  0  0  0  0999 V2000
    1.8743    0.3934    0.0000 C   0  0  0  0  0  0  0  0  0  0  0  0
    2.6527   -0.8888    0.0000 H   0  0  0  0  0  0  0  0  0  0  0  0
    1.5814    1.8645    0.0000 H   0  0  0  0  0  0  0  0  0  0  0  0
    3.2722    0.9373    0.0000 H   0  0  0  0  0  0  0  0  0  0  0  0
    0.3747    0.3604    0.0000 C   0  0  0  0  0  0  0  0  0  0  0  0
   -0.3913    1.6272    0.0000 C   0  0  0  0  0  0  0  0  0  0  0  0
    0.3282    2.9434    0.0000 H   0  0  0  0  0  0  0  0  0  0  0  0
   -1.8585    1.5884    0.0000 C   0  0  0  0  0  0  0  0  0  0  0  0
   -2.6238    2.8785    0.0000 H   0  0  0  0  0  0  0  0  0  0  0  0
   -2.6056    0.3025    0.0000 C   0  0  0  0  0  0  0  0  0  0  0  0
   -4.1056    0.3046    0.0000 H   0  0  0  0  0  0  0  0  0  0  0  0
   -1.8456   -1.0138    0.0000 C   0  0  0  0  0  0  0  0  0  0  0  0
   -0.3438   -0.9551    0.0000 C   0  0  0  0  0  0  0  0  0  0  0  0
    0.4466   -2.2299    0.0000 O   0  0  0  0  0  0  0  0  0  0  0  0
    1.9458   -2.1828    0.0000 C   0  0  0  0  0  0  0  0  0  0  0  0
    1.6391   -0.7145    0.0000 H   0  0  0  0  0  0  0  0  0  0  0  0
    3.3386   -1.6258    0.0000 H   0  0  0  0  0  0  0  0  0  0  0  0
    2.7363   -3.4577    0.0000 C   0  0  0  0  0  0  0  0  0  0  0  0
    2.0274   -4.7796    0.0000 O   0  0  0  0  0  0  0  0  0  0  0  0
    4.2355   -3.4106    0.0000 N   0  0  0  0  0  0  0  0  0  0  0  0
    5.0259   -4.6854    0.0000 H   0  0  0  0  0  0  0  0  0  0  0  0
    4.9444   -2.0886    0.0000 H   0  0  0  0  0  0  0  0  0  0  0  0
   -2.5701   -2.3273    0.0000 C   0  0  0  0  0  0  0  0  0  0  0  0
   -4.0698   -2.3566    0.0000 H   0  0  0  0  0  0  0  0  0  0  0  0
   -2.8016   -3.8093    0.0000 H   0  0  0  0  0  0  0  0  0  0  0  0
   -1.1508   -2.8127    0.0000 H   0  0  0  0  0  0  0  0  0  0  0  0
  1  2  1  0  0  0  0 
  1  3  1  0  0  0  0 
  1  4  1  0  0  0  0 
  1  5  1  0  0  0  0 
  5  6  2  0  0  0  0 
  6  7  1  0  0  0  0 
  6  8  1  0  0  0  0 
  8  9  1  0  0  0  0 
  8 10  2  0  0  0  0 
 10 11  1  0  0  0  0 
 10 12  1  0  0  0  0 
 12 13  2  0  0  0  0 
  5 13  1  0  0  0  0 
 13 14  1  0  0  0  0 
 14 15  1  0  0  0  0 
 15 16  1  0  0  0  0 
 15 17  1  0  0  0  0 
 15 18  1  0  0  0  0 
 18 19  2  0  0  0  0 
 18 20  1  0  0  0  0 
 20 21  1  0  0  0  0 
 20 22  1  0  0  0  0 
 12 23  1  0  0  0  0 
 23 24  1  0  0  0  0 
 23 25  1  0  0  0  0 
 23 26  1  0  0  0  0 
M  END
> <Rank>
50

> <Priority_score>
0.028

> <Reaction_type>
N-dealkylation

> <Parent_ID>
63

> <Parent_InChI>
InChI=1S/C37H48N4O5/c1-25(2)34(41-20-12-19-38-37(41)45)36(44)39-30(21-28-15-7-5-8-16-28)23-32(42)31(22-29-17-9-6-10-18-29)40-33(43)24-46-35-26(3)13-11-14-27(35)4/h5-11,13-18,25,30-32,34,42H,12,19-24H2,1-4H3,(H,38,45)(H,39,44)(H,40,43)

> <Parent_SMILES>
Cc1cccc(C)c1OCC(=O)N[C@@H](Cc1ccccc1)[C@@H](O)C[C@H](Cc1ccccc1)NC(=O)[C@H](C(C)C)N1CCCNC1=O

$$$$
Molecule 63_metabolite 51
  CDK     0516241031

 95 98  0  0  0  0  0  0  0  0999 V2000
    4.4810   15.0131    0.0000 C   0  0  0  0  0  0  0  0  0  0  0  0
    3.0715   15.5261    0.0000 H   0  0  0  0  0  0  0  0  0  0  0  0
    4.7415   16.4903    0.0000 H   0  0  0  0  0  0  0  0  0  0  0  0
    5.9810   15.0131    0.0000 H   0  0  0  0  0  0  0  0  0  0  0  0
    4.8249   13.0631    0.0000 C   0  0  0  0  0  0  0  0  0  0  0  0
    4.5644   11.5859    0.0000 H   0  0  0  0  0  0  0  0  0  0  0  0
    3.3249   13.0631    0.0000 C   0  0  0  0  0  0  0  0  0  0  0  0
    2.5749   14.3622    0.0000 H   0  0  0  0  0  0  0  0  0  0  0  0
    3.5853   11.5859    0.0000 H   0  0  0  0  0  0  0  0  0  0  0  0
    1.9153   12.5501    0.0000 H   0  0  0  0  0  0  0  0  0  0  0  0
    6.2344   12.5501    0.0000 C   0  0  1  0  0  0  0  0  0  0  0  0
    6.4949   14.0273    0.0000 H   0  0  0  0  0  0  0  0  0  0  0  0
    5.2444   10.8354    0.0000 C   0  0  0  0  0  0  0  0  0  0  0  0
    5.9944    9.5363    0.0000 O   0  0  0  0  0  0  0  0  0  0  0  0
    3.7444   10.8354    0.0000 N   0  0  0  0  0  0  0  0  0  0  0  0
    2.9944   12.1344    0.0000 H   0  0  0  0  0  0  0  0  0  0  0  0
    2.7544    9.1206    0.0000 C   0  0  1  0  0  0  0  0  0  0  0  0
    4.1639    8.6076    0.0000 H   0  0  0  0  0  0  0  0  0  0  0  0
    2.4939    7.6434    0.0000 C   0  0  0  0  0  0  0  0  0  0  0  0
    1.0844    8.1565    0.0000 H   0  0  0  0  0  0  0  0  0  0  0  0
    1.7439    6.3444    0.0000 H   0  0  0  0  0  0  0  0  0  0  0  0
    3.6430    6.6792    0.0000 C   0  0  0  0  0  0  0  0  0  0  0  0
    5.0531    7.1930    0.0000 C   0  0  0  0  0  0  0  0  0  0  0  0
    5.3134    8.6703    0.0000 H   0  0  0  0  0  0  0  0  0  0  0  0
    6.2022    6.2288    0.0000 C   0  0  0  0  0  0  0  0  0  0  0  0
    7.6118    6.7416    0.0000 H   0  0  0  0  0  0  0  0  0  0  0  0
    5.9411    4.7509    0.0000 C   0  0  0  0  0  0  0  0  0  0  0  0
    7.0902    3.7867    0.0000 H   0  0  0  0  0  0  0  0  0  0  0  0
    4.5310    4.2371    0.0000 C   0  0  0  0  0  0  0  0  0  0  0  0
    4.2707    2.7599    0.0000 H   0  0  0  0  0  0  0  0  0  0  0  0
    3.3819    5.2013    0.0000 C   0  0  0  0  0  0  0  0  0  0  0  0
    1.9723    4.6885    0.0000 H   0  0  0  0  0  0  0  0  0  0  0  0
    0.7744    9.1206    0.0000 C   0  0  0  0  0  0  0  0  0  0  0  0
   -0.6351    9.6337    0.0000 H   0  0  0  0  0  0  0  0  0  0  0  0
    1.0349   10.5979    0.0000 H   0  0  0  0  0  0  0  0  0  0  0  0
    0.0244    7.8216    0.0000 C   0  0  1  0  0  0  0  0  0  0  0  0
    1.4339    7.3086    0.0000 H   0  0  0  0  0  0  0  0  0  0  0  0
   -2.9156    7.8216    0.0000 C   0  0  2  0  0  0  0  0  0  0  0  0
   -4.3251    7.3086    0.0000 H   0  0  0  0  0  0  0  0  0  0  0  0
   -2.4884    5.3990    0.0000 C   0  0  0  0  0  0  0  0  0  0  0  0
   -1.7384    4.0999    0.0000 H   0  0  0  0  0  0  0  0  0  0  0  0
   -3.6375    4.4348    0.0000 C   0  0  0  0  0  0  0  0  0  0  0  0
   -3.3764    2.9568    0.0000 C   0  0  0  0  0  0  0  0  0  0  0  0
   -1.9668    2.4440    0.0000 H   0  0  0  0  0  0  0  0  0  0  0  0
   -4.5255    1.9927    0.0000 C   0  0  0  0  0  0  0  0  0  0  0  0
   -4.2652    0.5154    0.0000 H   0  0  0  0  0  0  0  0  0  0  0  0
   -5.9356    2.5064    0.0000 C   0  0  0  0  0  0  0  0  0  0  0  0
   -7.0847    1.5423    0.0000 H   0  0  0  0  0  0  0  0  0  0  0  0
   -6.1967    3.9844    0.0000 C   0  0  0  0  0  0  0  0  0  0  0  0
   -7.6063    4.4972    0.0000 H   0  0  0  0  0  0  0  0  0  0  0  0
   -5.0477    4.9486    0.0000 C   0  0  0  0  0  0  0  0  0  0  0  0
   -5.3079    6.4258    0.0000 H   0  0  0  0  0  0  0  0  0  0  0  0
   -1.0789    5.9120    0.0000 O   0  0  0  0  0  0  0  0  0  0  0  0
   -0.8184    7.3892    0.0000 H   0  0  0  0  0  0  0  0  0  0  0  0
   -3.9056    9.5363    0.0000 N   0  0  0  0  0  0  0  0  0  0  0  0
   -3.1556   10.8354    0.0000 H   0  0  0  0  0  0  0  0  0  0  0  0
   -5.4056    9.5363    0.0000 C   0  0  0  0  0  0  0  0  0  0  0  0
   -6.1556    8.2373    0.0000 O   0  0  0  0  0  0  0  0  0  0  0  0
   -6.1556   10.8354    0.0000 C   0  0  0  0  0  0  0  0  0  0  0  0
   -4.7461   11.3484    0.0000 H   0  0  0  0  0  0  0  0  0  0  0  0
   -6.4161   12.3126    0.0000 H   0  0  0  0  0  0  0  0  0  0  0  0
   -7.6556   10.8354    0.0000 O   0  0  0  0  0  0  0  0  0  0  0  0
   -8.4056   12.1344    0.0000 C   0  0  0  0  0  0  0  0  0  0  0  0
   -7.6461   13.4267    0.0000 C   0  0  0  0  0  0  0  0  0  0  0  0
   -6.1462   13.4126    0.0000 C   0  0  0  0  0  0  0  0  0  0  0  0
   -5.4085   12.1065    0.0000 H   0  0  0  0  0  0  0  0  0  0  0  0
   -6.3927   14.8922    0.0000 H   0  0  0  0  0  0  0  0  0  0  0  0
   -4.7319   13.9123    0.0000 H   0  0  0  0  0  0  0  0  0  0  0  0
   -8.3720   14.7168    0.0000 C   0  0  0  0  0  0  0  0  0  0  0  0
   -7.6115   16.0098    0.0000 H   0  0  0  0  0  0  0  0  0  0  0  0
   -9.8396   14.7241    0.0000 C   0  0  0  0  0  0  0  0  0  0  0  0
  -10.5641   16.0376    0.0000 H   0  0  0  0  0  0  0  0  0  0  0  0
  -10.6268   13.4624    0.0000 C   0  0  0  0  0  0  0  0  0  0  0  0
  -12.1260   13.5116    0.0000 H   0  0  0  0  0  0  0  0  0  0  0  0
   -9.9085   12.1228    0.0000 C   0  0  0  0  0  0  0  0  0  0  0  0
  -10.6739   10.8327    0.0000 C   0  0  0  0  0  0  0  0  0  0  0  0
  -12.1738   10.8505    0.0000 H   0  0  0  0  0  0  0  0  0  0  0  0
  -10.9518    9.3587    0.0000 H   0  0  0  0  0  0  0  0  0  0  0  0
   -9.2705   10.3031    0.0000 H   0  0  0  0  0  0  0  0  0  0  0  0
   -0.2361    6.3444    0.0000 O   0  0  0  0  0  0  0  0  0  0  0  0
    0.9130    5.3802    0.0000 H   0  0  0  0  0  0  0  0  0  0  0  0
    7.7344   12.5501    0.0000 N   0  0  0  0  0  0  0  0  0  0  0  0
    8.4844   11.2501    0.0000 C   0  0  0  0  0  0  0  0  0  0  0  0
    7.0747   10.7374    0.0000 H   0  0  0  0  0  0  0  0  0  0  0  0
    8.7447    9.7729    0.0000 H   0  0  0  0  0  0  0  0  0  0  0  0
    9.9844   11.2501    0.0000 C   0  0  0  0  0  0  0  0  0  0  0  0
    9.7241    9.7729    0.0000 H   0  0  0  0  0  0  0  0  0  0  0  0
   11.3940   10.7374    0.0000 H   0  0  0  0  0  0  0  0  0  0  0  0
   10.7344   12.5501    0.0000 C   0  0  0  0  0  0  0  0  0  0  0  0
   11.8836   11.5860    0.0000 H   0  0  0  0  0  0  0  0  0  0  0  0
   11.8836   13.5142    0.0000 H   0  0  0  0  0  0  0  0  0  0  0  0
    9.9844   13.8501    0.0000 N   0  0  0  0  0  0  0  0  0  0  0  0
   10.7346   15.1490    0.0000 H   0  0  0  0  0  0  0  0  0  0  0  0
    8.4844   13.8501    0.0000 C   0  0  0  0  0  0  0  0  0  0  0  0
    7.7342   15.1490    0.0000 O   0  0  0  0  0  0  0  0  0  0  0  0
  1  2  1  0  0  0  0 
  1  3  1  0  0  0  0 
  1  4  1  0  0  0  0 
  1  5  1  0  0  0  0 
  5  6  1  0  0  0  0 
  5  7  1  0  0  0  0 
  7  8  1  0  0  0  0 
  7  9  1  0  0  0  0 
  7 10  1  0  0  0  0 
  5 11  1  0  0  0  0 
 11 12  1  1  0  0  0 
 11 13  1  0  0  0  0 
 13 14  2  0  0  0  0 
 13 15  1  0  0  0  0 
 15 16  1  0  0  0  0 
 17 15  1  1  0  0  0 
 17 18  1  6  0  0  0 
 17 19  1  0  0  0  0 
 19 20  1  0  0  0  0 
 19 21  1  0  0  0  0 
 19 22  1  0  0  0  0 
 22 23  2  0  0  0  0 
 23 24  1  0  0  0  0 
 23 25  1  0  0  0  0 
 25 26  1  0  0  0  0 
 25 27  2  0  0  0  0 
 27 28  1  0  0  0  0 
 27 29  1  0  0  0  0 
 29 30  1  0  0  0  0 
 29 31  2  0  0  0  0 
 22 31  1  0  0  0  0 
 31 32  1  0  0  0  0 
 17 33  1  0  0  0  0 
 33 34  1  0  0  0  0 
 33 35  1  0  0  0  0 
 33 36  1  0  0  0  0 
 36 37  1  1  0  0  0 
 36 38  1  0  0  0  0 
 38 39  1  1  0  0  0 
 38 40  1  0  0  0  0 
 40 41  1  0  0  0  0 
 40 42  1  0  0  0  0 
 42 43  2  0  0  0  0 
 43 44  1  0  0  0  0 
 43 45  1  0  0  0  0 
 45 46  1  0  0  0  0 
 45 47  2  0  0  0  0 
 47 48  1  0  0  0  0 
 47 49  1  0  0  0  0 
 49 50  1  0  0  0  0 
 49 51  2  0  0  0  0 
 42 51  1  0  0  0  0 
 51 52  1  0  0  0  0 
 40 53  1  0  0  0  0 
 53 54  1  0  0  0  0 
 38 55  1  6  0  0  0 
 55 56  1  0  0  0  0 
 55 57  1  0  0  0  0 
 57 58  2  0  0  0  0 
 57 59  1  0  0  0  0 
 59 60  1  0  0  0  0 
 59 61  1  0  0  0  0 
 59 62  1  0  0  0  0 
 62 63  1  0  0  0  0 
 63 64  2  0  0  0  0 
 64 65  1  0  0  0  0 
 65 66  1  0  0  0  0 
 65 67  1  0  0  0  0 
 65 68  1  0  0  0  0 
 64 69  1  0  0  0  0 
 69 70  1  0  0  0  0 
 69 71  2  0  0  0  0 
 71 72  1  0  0  0  0 
 71 73  1  0  0  0  0 
 73 74  1  0  0  0  0 
 73 75  2  0  0  0  0 
 63 75  1  0  0  0  0 
 75 76  1  0  0  0  0 
 76 77  1  0  0  0  0 
 76 78  1  0  0  0  0 
 76 79  1  0  0  0  0 
 36 80  1  6  0  0  0 
 80 81  1  0  0  0  0 
 11 82  1  6  0  0  0 
 82 83  1  0  0  0  0 
 83 84  1  0  0  0  0 
 83 85  1  0  0  0  0 
 83 86  1  0  0  0  0 
 86 87  1  0  0  0  0 
 86 88  1  0  0  0  0 
 86 89  1  0  0  0  0 
 89 90  1  0  0  0  0 
 89 91  1  0  0  0  0 
 89 92  1  0  0  0  0 
 92 93  1  0  0  0  0 
 92 94  1  0  0  0  0 
 82 94  1  0  0  0  0 
 94 95  2  0  0  0  0 
M  END
> <Rank>
50

> <Priority_score>
0.028

> <Reaction_type>
benzylic_hydroxylation_(c-CH2-CR)

> <Parent_ID>
63

> <Parent_InChI>
InChI=1S/C37H48N4O5/c1-25(2)34(41-20-12-19-38-37(41)45)36(44)39-30(21-28-15-7-5-8-16-28)23-32(42)31(22-29-17-9-6-10-18-29)40-33(43)24-46-35-26(3)13-11-14-27(35)4/h5-11,13-18,25,30-32,34,42H,12,19-24H2,1-4H3,(H,38,45)(H,39,44)(H,40,43)

> <Parent_SMILES>
Cc1cccc(C)c1OCC(=O)N[C@@H](Cc1ccccc1)[C@@H](O)C[C@H](Cc1ccccc1)NC(=O)[C@H](C(C)C)N1CCCNC1=O

$$$$
Molecule 63_metabolite 52
  CDK     0516241031

 69 71  0  0  0  0  0  0  0  0999 V2000
    0.9188   -1.8086    0.0000 C   0  0  0  0  0  0  0  0  0  0  0  0
    1.8830   -2.9577    0.0000 H   0  0  0  0  0  0  0  0  0  0  0  0
   -0.0454   -2.9577    0.0000 H   0  0  0  0  0  0  0  0  0  0  0  0
   -0.3802   -1.0586    0.0000 H   0  0  0  0  0  0  0  0  0  0  0  0
    1.5960    0.0520    0.0000 C   0  0  0  0  0  0  0  0  0  0  0  0
    2.5602    1.2011    0.0000 H   0  0  0  0  0  0  0  0  0  0  0  0
    2.8950   -0.6980    0.0000 C   0  0  0  0  0  0  0  0  0  0  0  0
    4.1941    0.0520    0.0000 H   0  0  0  0  0  0  0  0  0  0  0  0
    1.9309   -1.8471    0.0000 H   0  0  0  0  0  0  0  0  0  0  0  0
    3.8592   -1.8471    0.0000 H   0  0  0  0  0  0  0  0  0  0  0  0
    0.6318    1.2011    0.0000 C   0  0  1  0  0  0  0  0  0  0  0  0
   -0.3324    0.0520    0.0000 H   0  0  0  0  0  0  0  0  0  0  0  0
    2.3466    2.1911    0.0000 C   0  0  0  0  0  0  0  0  0  0  0  0
    3.6456    1.4411    0.0000 O   0  0  0  0  0  0  0  0  0  0  0  0
    2.3466    3.6911    0.0000 N   0  0  0  0  0  0  0  0  0  0  0  0
    1.0475    4.4411    0.0000 H   0  0  0  0  0  0  0  0  0  0  0  0
    3.6456    4.4411    0.0000 C   0  0  1  0  0  0  0  0  0  0  0  0
    2.6814    5.5901    0.0000 H   0  0  0  0  0  0  0  0  0  0  0  0
    4.6098    5.5901    0.0000 C   0  0  0  0  0  0  0  0  0  0  0  0
    5.5740    4.4411    0.0000 H   0  0  0  0  0  0  0  0  0  0  0  0
    5.9088    6.3401    0.0000 H   0  0  0  0  0  0  0  0  0  0  0  0
    4.0967    6.9997    0.0000 C   0  0  0  0  0  0  0  0  0  0  0  0
    2.6186    7.2598    0.0000 C   0  0  0  0  0  0  0  0  0  0  0  0
    1.6546    6.1106    0.0000 H   0  0  0  0  0  0  0  0  0  0  0  0
    2.1056    8.6693    0.0000 C   0  0  0  0  0  0  0  0  0  0  0  0
    0.6284    8.9300    0.0000 H   0  0  0  0  0  0  0  0  0  0  0  0
    3.0707    9.8187    0.0000 C   0  0  0  0  0  0  0  0  0  0  0  0
    2.5577   11.2283    0.0000 H   0  0  0  0  0  0  0  0  0  0  0  0
    4.5488    9.5586    0.0000 C   0  0  0  0  0  0  0  0  0  0  0  0
    5.5128   10.7078    0.0000 H   0  0  0  0  0  0  0  0  0  0  0  0
    5.0618    8.1491    0.0000 C   0  0  0  0  0  0  0  0  0  0  0  0
    6.5390    7.8883    0.0000 H   0  0  0  0  0  0  0  0  0  0  0  0
    5.3603    3.4511    0.0000 C   0  0  0  0  0  0  0  0  0  0  0  0
    6.3245    2.3020    0.0000 H   0  0  0  0  0  0  0  0  0  0  0  0
    4.3961    2.3020    0.0000 H   0  0  0  0  0  0  0  0  0  0  0  0
    6.6594    4.2011    0.0000 C   0  0  1  0  0  0  0  0  0  0  0  0
    5.6952    5.3501    0.0000 H   0  0  0  0  0  0  0  0  0  0  0  0
    7.9584    3.4511    0.0000 C   0  0  0  0  0  0  0  0  0  0  0  0
    7.9584    1.9511    0.0000 O   0  0  0  0  0  0  0  0  0  0  0  0
    9.6731    4.4411    0.0000 C   0  0  0  0  0  0  0  0  0  0  0  0
    8.7089    5.5901    0.0000 H   0  0  0  0  0  0  0  0  0  0  0  0
   10.6373    5.5901    0.0000 H   0  0  0  0  0  0  0  0  0  0  0  0
   10.9722    3.6911    0.0000 C   0  0  0  0  0  0  0  0  0  0  0  0
   10.9717    2.1902    0.0000 C   0  0  0  0  0  0  0  0  0  0  0  0
    9.6725    1.4404    0.0000 H   0  0  0  0  0  0  0  0  0  0  0  0
   12.2707    1.4402    0.0000 C   0  0  0  0  0  0  0  0  0  0  0  0
   12.2710   -0.0598    0.0000 H   0  0  0  0  0  0  0  0  0  0  0  0
   13.5702    2.1911    0.0000 C   0  0  0  0  0  0  0  0  0  0  0  0
   14.8693    1.4411    0.0000 H   0  0  0  0  0  0  0  0  0  0  0  0
   13.5707    3.6919    0.0000 C   0  0  0  0  0  0  0  0  0  0  0  0
   14.8699    4.4417    0.0000 H   0  0  0  0  0  0  0  0  0  0  0  0
   12.2717    4.4419    0.0000 C   0  0  0  0  0  0  0  0  0  0  0  0
   12.2714    5.9419    0.0000 H   0  0  0  0  0  0  0  0  0  0  0  0
    7.6235    5.3501    0.0000 O   0  0  0  0  0  0  0  0  0  0  0  0
    7.1105    6.7597    0.0000 H   0  0  0  0  0  0  0  0  0  0  0  0
   -0.6672    1.9511    0.0000 N   0  0  0  0  0  0  0  0  0  0  0  0
   -0.6667    3.4519    0.0000 C   0  0  0  0  0  0  0  0  0  0  0  0
    0.8104    3.1911    0.0000 H   0  0  0  0  0  0  0  0  0  0  0  0
   -0.1536    4.8614    0.0000 H   0  0  0  0  0  0  0  0  0  0  0  0
   -1.9658    4.2019    0.0000 C   0  0  0  0  0  0  0  0  0  0  0  0
   -1.0017    5.3511    0.0000 H   0  0  0  0  0  0  0  0  0  0  0  0
   -2.9302    5.3507    0.0000 H   0  0  0  0  0  0  0  0  0  0  0  0
   -3.2653    3.4511    0.0000 C   0  0  0  0  0  0  0  0  0  0  0  0
   -3.7785    4.8605    0.0000 H   0  0  0  0  0  0  0  0  0  0  0  0
   -4.7425    3.1907    0.0000 H   0  0  0  0  0  0  0  0  0  0  0  0
   -3.2658    1.9502    0.0000 N   0  0  0  0  0  0  0  0  0  0  0  0
   -4.5649    1.2004    0.0000 H   0  0  0  0  0  0  0  0  0  0  0  0
   -1.9667    1.2002    0.0000 C   0  0  0  0  0  0  0  0  0  0  0  0
   -1.9665   -0.2998    0.0000 O   0  0  0  0  0  0  0  0  0  0  0  0
  1  2  1  0  0  0  0 
  1  3  1  0  0  0  0 
  1  4  1  0  0  0  0 
  1  5  1  0  0  0  0 
  5  6  1  0  0  0  0 
  5  7  1  0  0  0  0 
  7  8  1  0  0  0  0 
  7  9  1  0  0  0  0 
  7 10  1  0  0  0  0 
  5 11  1  0  0  0  0 
 11 12  1  1  0  0  0 
 11 13  1  0  0  0  0 
 13 14  2  0  0  0  0 
 13 15  1  0  0  0  0 
 15 16  1  0  0  0  0 
 17 15  1  1  0  0  0 
 17 18  1  6  0  0  0 
 17 19  1  0  0  0  0 
 19 20  1  0  0  0  0 
 19 21  1  0  0  0  0 
 19 22  1  0  0  0  0 
 22 23  2  0  0  0  0 
 23 24  1  0  0  0  0 
 23 25  1  0  0  0  0 
 25 26  1  0  0  0  0 
 25 27  2  0  0  0  0 
 27 28  1  0  0  0  0 
 27 29  1  0  0  0  0 
 29 30  1  0  0  0  0 
 29 31  2  0  0  0  0 
 22 31  1  0  0  0  0 
 31 32  1  0  0  0  0 
 17 33  1  0  0  0  0 
 33 34  1  0  0  0  0 
 33 35  1  0  0  0  0 
 33 36  1  0  0  0  0 
 36 37  1  1  0  0  0 
 36 38  1  0  0  0  0 
 38 39  2  0  0  0  0 
 38 40  1  0  0  0  0 
 40 41  1  0  0  0  0 
 40 42  1  0  0  0  0 
 40 43  1  0  0  0  0 
 43 44  2  0  0  0  0 
 44 45  1  0  0  0  0 
 44 46  1  0  0  0  0 
 46 47  1  0  0  0  0 
 46 48  2  0  0  0  0 
 48 49  1  0  0  0  0 
 48 50  1  0  0  0  0 
 50 51  1  0  0  0  0 
 50 52  2  0  0  0  0 
 43 52  1  0  0  0  0 
 52 53  1  0  0  0  0 
 36 54  1  6  0  0  0 
 54 55  1  0  0  0  0 
 11 56  1  6  0  0  0 
 56 57  1  0  0  0  0 
 57 58  1  0  0  0  0 
 57 59  1  0  0  0  0 
 57 60  1  0  0  0  0 
 60 61  1  0  0  0  0 
 60 62  1  0  0  0  0 
 60 63  1  0  0  0  0 
 63 64  1  0  0  0  0 
 63 65  1  0  0  0  0 
 63 66  1  0  0  0  0 
 66 67  1  0  0  0  0 
 66 68  1  0  0  0  0 
 56 68  1  0  0  0  0 
 68 69  2  0  0  0  0 
M  END
> <Rank>
50

> <Priority_score>
0.028

> <Reaction_type>
N-dealkylation

> <Parent_ID>
63

> <Parent_InChI>
InChI=1S/C37H48N4O5/c1-25(2)34(41-20-12-19-38-37(41)45)36(44)39-30(21-28-15-7-5-8-16-28)23-32(42)31(22-29-17-9-6-10-18-29)40-33(43)24-46-35-26(3)13-11-14-27(35)4/h5-11,13-18,25,30-32,34,42H,12,19-24H2,1-4H3,(H,38,45)(H,39,44)(H,40,43)

> <Parent_SMILES>
Cc1cccc(C)c1OCC(=O)N[C@@H](Cc1ccccc1)[C@@H](O)C[C@H](Cc1ccccc1)NC(=O)[C@H](C(C)C)N1CCCNC1=O

$$$$
Molecule 63_metabolite 53
  CDK     0516241031

 64 66  0  0  0  0  0  0  0  0999 V2000
   -2.3375   -4.3859    0.0000 C   0  0  0  0  0  0  0  0  0  0  0  0
   -1.0089   -5.0822    0.0000 H   0  0  0  0  0  0  0  0  0  0  0  0
   -3.8241   -4.1859    0.0000 H   0  0  0  0  0  0  0  0  0  0  0  0
   -2.7926   -5.8152    0.0000 H   0  0  0  0  0  0  0  0  0  0  0  0
   -2.3987   -2.8871    0.0000 C   0  0  0  0  0  0  0  0  0  0  0  0
   -3.7110   -2.2022    0.0000 C   0  0  0  0  0  0  0  0  0  0  0  0
   -4.9795   -3.0028    0.0000 H   0  0  0  0  0  0  0  0  0  0  0  0
   -3.7644   -0.7355    0.0000 C   0  0  0  0  0  0  0  0  0  0  0  0
   -5.1000   -0.0526    0.0000 H   0  0  0  0  0  0  0  0  0  0  0  0
   -2.5280    0.0909    0.0000 C   0  0  0  0  0  0  0  0  0  0  0  0
   -2.6242    1.5879    0.0000 H   0  0  0  0  0  0  0  0  0  0  0  0
   -1.1665   -0.5849    0.0000 C   0  0  0  0  0  0  0  0  0  0  0  0
   -1.1309   -2.0875    0.0000 C   0  0  0  0  0  0  0  0  0  0  0  0
    0.1910   -2.7963    0.0000 O   0  0  0  0  0  0  0  0  0  0  0  0
    0.2381   -4.2956    0.0000 C   0  0  0  0  0  0  0  0  0  0  0  0
   -1.2465   -4.0816    0.0000 H   0  0  0  0  0  0  0  0  0  0  0  0
   -0.2304   -5.7205    0.0000 H   0  0  0  0  0  0  0  0  0  0  0  0
    1.5601   -5.0044    0.0000 C   0  0  0  0  0  0  0  0  0  0  0  0
    2.8349   -4.2140    0.0000 O   0  0  0  0  0  0  0  0  0  0  0  0
    1.6072   -6.5037    0.0000 N   0  0  0  0  0  0  0  0  0  0  0  0
    0.3323   -7.2941    0.0000 H   0  0  0  0  0  0  0  0  0  0  0  0
    3.3521   -7.4394    0.0000 C   0  0  1  0  0  0  0  0  0  0  0  0
    4.3519   -8.5576    0.0000 H   0  0  0  0  0  0  0  0  0  0  0  0
    2.4245   -8.6181    0.0000 C   0  0  0  0  0  0  0  0  0  0  0  0
    1.1497   -9.4085    0.0000 H   0  0  0  0  0  0  0  0  0  0  0  0
    1.4247   -7.4999    0.0000 H   0  0  0  0  0  0  0  0  0  0  0  0
    2.9816  -10.0109    0.0000 C   0  0  0  0  0  0  0  0  0  0  0  0
    2.0530  -11.1900    0.0000 C   0  0  0  0  0  0  0  0  0  0  0  0
    0.5684  -10.9758    0.0000 H   0  0  0  0  0  0  0  0  0  0  0  0
    2.6101  -12.5827    0.0000 C   0  0  0  0  0  0  0  0  0  0  0  0
    1.6826  -13.7617    0.0000 H   0  0  0  0  0  0  0  0  0  0  0  0
    4.0956  -12.7963    0.0000 C   0  0  0  0  0  0  0  0  0  0  0  0
    4.6527  -14.1891    0.0000 H   0  0  0  0  0  0  0  0  0  0  0  0
    5.0241  -11.6172    0.0000 C   0  0  0  0  0  0  0  0  0  0  0  0
    6.5088  -11.8314    0.0000 H   0  0  0  0  0  0  0  0  0  0  0  0
    4.4671  -10.2245    0.0000 C   0  0  0  0  0  0  0  0  0  0  0  0
    5.3945   -9.0455    0.0000 H   0  0  0  0  0  0  0  0  0  0  0  0
    5.0349   -6.3960    0.0000 C   0  0  2  0  0  0  0  0  0  0  0  0
    4.0352   -5.2778    0.0000 H   0  0  0  0  0  0  0  0  0  0  0  0
    6.3569   -7.1048    0.0000 C   0  0  0  0  0  0  0  0  0  0  0  0
    7.3567   -8.2231    0.0000 H   0  0  0  0  0  0  0  0  0  0  0  0
    5.4293   -8.2836    0.0000 H   0  0  0  0  0  0  0  0  0  0  0  0
    8.0397   -6.0615    0.0000 C   0  0  0  0  0  0  0  0  0  0  0  0
    7.9926   -4.5622    0.0000 O   0  0  0  0  0  0  0  0  0  0  0  0
    9.3616   -6.7703    0.0000 C   0  0  0  0  0  0  0  0  0  0  0  0
   10.3614   -7.8886    0.0000 H   0  0  0  0  0  0  0  0  0  0  0  0
    8.4340   -7.9491    0.0000 H   0  0  0  0  0  0  0  0  0  0  0  0
   10.6365   -5.9799    0.0000 C   0  0  0  0  0  0  0  0  0  0  0  0
   11.9589   -6.6896    0.0000 C   0  0  0  0  0  0  0  0  0  0  0  0
   12.0058   -8.1888    0.0000 H   0  0  0  0  0  0  0  0  0  0  0  0
   13.2338   -5.8992    0.0000 C   0  0  0  0  0  0  0  0  0  0  0  0
   14.5558   -6.6078    0.0000 H   0  0  0  0  0  0  0  0  0  0  0  0
   13.1862   -4.3991    0.0000 C   0  0  0  0  0  0  0  0  0  0  0  0
   14.4610   -3.6087    0.0000 H   0  0  0  0  0  0  0  0  0  0  0  0
   11.8637   -3.6894    0.0000 C   0  0  0  0  0  0  0  0  0  0  0  0
   11.8169   -2.1902    0.0000 H   0  0  0  0  0  0  0  0  0  0  0  0
   10.5889   -4.4798    0.0000 C   0  0  0  0  0  0  0  0  0  0  0  0
    9.2668   -3.7712    0.0000 H   0  0  0  0  0  0  0  0  0  0  0  0
    5.9626   -5.2172    0.0000 O   0  0  0  0  0  0  0  0  0  0  0  0
    5.4055   -3.8245    0.0000 H   0  0  0  0  0  0  0  0  0  0  0  0
    0.0989    0.2205    0.0000 C   0  0  0  0  0  0  0  0  0  0  0  0
    0.0340    1.7191    0.0000 H   0  0  0  0  0  0  0  0  0  0  0  0
    1.5635    0.5446    0.0000 H   0  0  0  0  0  0  0  0  0  0  0  0
    0.6724   -1.1655    0.0000 H   0  0  0  0  0  0  0  0  0  0  0  0
  1  2  1  0  0  0  0 
  1  3  1  0  0  0  0 
  1  4  1  0  0  0  0 
  1  5  1  0  0  0  0 
  5  6  2  0  0  0  0 
  6  7  1  0  0  0  0 
  6  8  1  0  0  0  0 
  8  9  1  0  0  0  0 
  8 10  2  0  0  0  0 
 10 11  1  0  0  0  0 
 10 12  1  0  0  0  0 
 12 13  2  0  0  0  0 
  5 13  1  0  0  0  0 
 13 14  1  0  0  0  0 
 14 15  1  0  0  0  0 
 15 16  1  0  0  0  0 
 15 17  1  0  0  0  0 
 15 18  1  0  0  0  0 
 18 19  2  0  0  0  0 
 18 20  1  0  0  0  0 
 20 21  1  0  0  0  0 
 20 22  1  0  0  0  0 
 22 23  1  1  0  0  0 
 22 24  1  6  0  0  0 
 24 25  1  0  0  0  0 
 24 26  1  0  0  0  0 
 24 27  1  0  0  0  0 
 27 28  2  0  0  0  0 
 28 29  1  0  0  0  0 
 28 30  1  0  0  0  0 
 30 31  1  0  0  0  0 
 30 32  2  0  0  0  0 
 32 33  1  0  0  0  0 
 32 34  1  0  0  0  0 
 34 35  1  0  0  0  0 
 34 36  2  0  0  0  0 
 27 36  1  0  0  0  0 
 36 37  1  0  0  0  0 
 22 38  1  0  0  0  0 
 38 39  1  6  0  0  0 
 38 40  1  0  0  0  0 
 40 41  1  0  0  0  0 
 40 42  1  0  0  0  0 
 40 43  1  0  0  0  0 
 43 44  2  0  0  0  0 
 43 45  1  0  0  0  0 
 45 46  1  0  0  0  0 
 45 47  1  0  0  0  0 
 45 48  1  0  0  0  0 
 48 49  2  0  0  0  0 
 49 50  1  0  0  0  0 
 49 51  1  0  0  0  0 
 51 52  1  0  0  0  0 
 51 53  2  0  0  0  0 
 53 54  1  0  0  0  0 
 53 55  1  0  0  0  0 
 55 56  1  0  0  0  0 
 55 57  2  0  0  0  0 
 48 57  1  0  0  0  0 
 57 58  1  0  0  0  0 
 38 59  1  1  0  0  0 
 59 60  1  0  0  0  0 
 12 61  1  0  0  0  0 
 61 62  1  0  0  0  0 
 61 63  1  0  0  0  0 
 61 64  1  0  0  0  0 
M  END
> <Rank>
53

> <Priority_score>
0.02

> <Reaction_type>
N-dealkylation

> <Parent_ID>
63

> <Parent_InChI>
InChI=1S/C37H48N4O5/c1-25(2)34(41-20-12-19-38-37(41)45)36(44)39-30(21-28-15-7-5-8-16-28)23-32(42)31(22-29-17-9-6-10-18-29)40-33(43)24-46-35-26(3)13-11-14-27(35)4/h5-11,13-18,25,30-32,34,42H,12,19-24H2,1-4H3,(H,38,45)(H,39,44)(H,40,43)

> <Parent_SMILES>
Cc1cccc(C)c1OCC(=O)N[C@@H](Cc1ccccc1)[C@@H](O)C[C@H](Cc1ccccc1)NC(=O)[C@H](C(C)C)N1CCCNC1=O

$$$$
Molecule 63_metabolite 54
  CDK     0516241031

 31 31  0  0  0  0  0  0  0  0999 V2000
    4.8759    2.7649    0.0000 C   0  0  0  0  0  0  0  0  0  0  0  0
    6.1750    2.0149    0.0000 H   0  0  0  0  0  0  0  0  0  0  0  0
    5.8401    3.9140    0.0000 H   0  0  0  0  0  0  0  0  0  0  0  0
    3.9117    3.9140    0.0000 H   0  0  0  0  0  0  0  0  0  0  0  0
    3.5769    2.0149    0.0000 C   0  0  0  0  0  0  0  0  0  0  0  0
    2.6127    0.8658    0.0000 H   0  0  0  0  0  0  0  0  0  0  0  0
    4.5411    0.8658    0.0000 C   0  0  0  0  0  0  0  0  0  0  0  0
    6.0183    1.1263    0.0000 H   0  0  0  0  0  0  0  0  0  0  0  0
    3.2420    0.1158    0.0000 H   0  0  0  0  0  0  0  0  0  0  0  0
    5.0541   -0.5437    0.0000 H   0  0  0  0  0  0  0  0  0  0  0  0
    1.8622    3.0049    0.0000 C   0  0  1  0  0  0  0  0  0  0  0  0
    2.8263    4.1540    0.0000 H   0  0  0  0  0  0  0  0  0  0  0  0
    0.2809    4.8894    0.0000 C   0  0  0  0  0  0  0  0  0  0  0  0
   -1.2191    4.8894    0.0000 O   0  0  0  0  0  0  0  0  0  0  0  0
    0.7939    6.2989    0.0000 N   0  0  0  0  0  0  0  0  0  0  0  0
   -0.1703    7.4480    0.0000 H   0  0  0  0  0  0  0  0  0  0  0  0
    2.2711    6.5594    0.0000 H   0  0  0  0  0  0  0  0  0  0  0  0
    0.1474    2.0149    0.0000 N   0  0  0  0  0  0  0  0  0  0  0  0
   -1.1521    2.7657    0.0000 C   0  0  0  0  0  0  0  0  0  0  0  0
   -0.1877    3.9146    0.0000 H   0  0  0  0  0  0  0  0  0  0  0  0
   -2.1162    3.9149    0.0000 H   0  0  0  0  0  0  0  0  0  0  0  0
   -2.4511    2.0157    0.0000 C   0  0  0  0  0  0  0  0  0  0  0  0
   -2.9643    3.4252    0.0000 H   0  0  0  0  0  0  0  0  0  0  0  0
   -3.9283    1.7550    0.0000 H   0  0  0  0  0  0  0  0  0  0  0  0
   -2.4506    0.5149    0.0000 C   0  0  0  0  0  0  0  0  0  0  0  0
   -3.9279    0.7752    0.0000 H   0  0  0  0  0  0  0  0  0  0  0  0
   -2.9638   -0.8946    0.0000 H   0  0  0  0  0  0  0  0  0  0  0  0
   -1.1511   -0.2359    0.0000 N   0  0  0  0  0  0  0  0  0  0  0  0
   -1.1514   -1.7359    0.0000 H   0  0  0  0  0  0  0  0  0  0  0  0
    0.1479    0.5141    0.0000 C   0  0  0  0  0  0  0  0  0  0  0  0
    1.4471   -0.2357    0.0000 O   0  0  0  0  0  0  0  0  0  0  0  0
  1  2  1  0  0  0  0 
  1  3  1  0  0  0  0 
  1  4  1  0  0  0  0 
  1  5  1  0  0  0  0 
  5  6  1  0  0  0  0 
  5  7  1  0  0  0  0 
  7  8  1  0  0  0  0 
  7  9  1  0  0  0  0 
  7 10  1  0  0  0  0 
  5 11  1  0  0  0  0 
 11 12  1  1  0  0  0 
 11 13  1  6  0  0  0 
 13 14  2  0  0  0  0 
 13 15  1  0  0  0  0 
 15 16  1  0  0  0  0 
 15 17  1  0  0  0  0 
 11 18  1  0  0  0  0 
 18 19  1  0  0  0  0 
 19 20  1  0  0  0  0 
 19 21  1  0  0  0  0 
 19 22  1  0  0  0  0 
 22 23  1  0  0  0  0 
 22 24  1  0  0  0  0 
 22 25  1  0  0  0  0 
 25 26  1  0  0  0  0 
 25 27  1  0  0  0  0 
 25 28  1  0  0  0  0 
 28 29  1  0  0  0  0 
 28 30  1  0  0  0  0 
 18 30  1  0  0  0  0 
 30 31  2  0  0  0  0 
M  END
> <Rank>
53

> <Priority_score>
0.02

> <Reaction_type>
N-dealkylation

> <Parent_ID>
63

> <Parent_InChI>
InChI=1S/C37H48N4O5/c1-25(2)34(41-20-12-19-38-37(41)45)36(44)39-30(21-28-15-7-5-8-16-28)23-32(42)31(22-29-17-9-6-10-18-29)40-33(43)24-46-35-26(3)13-11-14-27(35)4/h5-11,13-18,25,30-32,34,42H,12,19-24H2,1-4H3,(H,38,45)(H,39,44)(H,40,43)

> <Parent_SMILES>
Cc1cccc(C)c1OCC(=O)N[C@@H](Cc1ccccc1)[C@@H](O)C[C@H](Cc1ccccc1)NC(=O)[C@H](C(C)C)N1CCCNC1=O

$$$$
Molecule 63_metabolite 55
  CDK     0516241031

 92 95  0  0  0  0  0  0  0  0999 V2000
  -15.4338   -0.7434    0.0000 C   0  0  0  0  0  0  0  0  0  0  0  0
  -15.9469   -2.1530    0.0000 H   0  0  0  0  0  0  0  0  0  0  0  0
  -15.4338    0.7566    0.0000 H   0  0  0  0  0  0  0  0  0  0  0  0
  -16.9110   -0.4829    0.0000 H   0  0  0  0  0  0  0  0  0  0  0  0
  -13.0112   -0.3162    0.0000 C   0  0  0  0  0  0  0  0  0  0  0  0
  -11.5340   -0.5767    0.0000 H   0  0  0  0  0  0  0  0  0  0  0  0
  -13.0112   -1.8162    0.0000 C   0  0  0  0  0  0  0  0  0  0  0  0
  -11.7122   -2.5662    0.0000 H   0  0  0  0  0  0  0  0  0  0  0  0
  -14.4884   -1.5558    0.0000 H   0  0  0  0  0  0  0  0  0  0  0  0
  -13.5242   -3.2258    0.0000 H   0  0  0  0  0  0  0  0  0  0  0  0
  -12.4982    1.0933    0.0000 C   0  0  1  0  0  0  0  0  0  0  0  0
  -13.9754    1.3538    0.0000 H   0  0  0  0  0  0  0  0  0  0  0  0
  -10.7834    0.1033    0.0000 C   0  0  0  0  0  0  0  0  0  0  0  0
  -10.7834   -1.3967    0.0000 O   0  0  0  0  0  0  0  0  0  0  0  0
   -9.4844    0.8533    0.0000 N   0  0  0  0  0  0  0  0  0  0  0  0
   -9.4844    2.3533    0.0000 H   0  0  0  0  0  0  0  0  0  0  0  0
   -7.7697   -0.1367    0.0000 C   0  0  1  0  0  0  0  0  0  0  0  0
   -8.7338   -1.2858    0.0000 H   0  0  0  0  0  0  0  0  0  0  0  0
   -6.8055   -1.2858    0.0000 C   0  0  0  0  0  0  0  0  0  0  0  0
   -5.8413   -0.1367    0.0000 H   0  0  0  0  0  0  0  0  0  0  0  0
   -5.5064   -2.0358    0.0000 H   0  0  0  0  0  0  0  0  0  0  0  0
   -7.3185   -2.6953    0.0000 C   0  0  0  0  0  0  0  0  0  0  0  0
   -8.7966   -2.9555    0.0000 C   0  0  0  0  0  0  0  0  0  0  0  0
   -9.7606   -1.8062    0.0000 H   0  0  0  0  0  0  0  0  0  0  0  0
   -9.3097   -4.3650    0.0000 C   0  0  0  0  0  0  0  0  0  0  0  0
  -10.7868   -4.6257    0.0000 H   0  0  0  0  0  0  0  0  0  0  0  0
   -8.3446   -5.5144    0.0000 C   0  0  0  0  0  0  0  0  0  0  0  0
   -8.8576   -6.9239    0.0000 H   0  0  0  0  0  0  0  0  0  0  0  0
   -6.8665   -5.2542    0.0000 C   0  0  0  0  0  0  0  0  0  0  0  0
   -5.9025   -6.4035    0.0000 H   0  0  0  0  0  0  0  0  0  0  0  0
   -6.3534   -3.8447    0.0000 C   0  0  0  0  0  0  0  0  0  0  0  0
   -4.8763   -3.5840    0.0000 H   0  0  0  0  0  0  0  0  0  0  0  0
   -5.2236    1.3333    0.0000 C   0  0  0  0  0  0  0  0  0  0  0  0
   -3.7463    1.5938    0.0000 H   0  0  0  0  0  0  0  0  0  0  0  0
   -4.7105   -0.0762    0.0000 H   0  0  0  0  0  0  0  0  0  0  0  0
   -5.2236    2.8333    0.0000 C   0  0  1  0  0  0  0  0  0  0  0  0
   -6.7008    2.5728    0.0000 H   0  0  0  0  0  0  0  0  0  0  0  0
   -2.6774    4.3033    0.0000 C   0  0  2  0  0  0  0  0  0  0  0  0
   -1.7133    5.4524    0.0000 H   0  0  0  0  0  0  0  0  0  0  0  0
   -3.6416    5.4524    0.0000 C   0  0  0  0  0  0  0  0  0  0  0  0
   -4.9407    6.2024    0.0000 H   0  0  0  0  0  0  0  0  0  0  0  0
   -4.6058    4.3033    0.0000 H   0  0  0  0  0  0  0  0  0  0  0  0
   -3.1286    6.8619    0.0000 C   0  0  0  0  0  0  0  0  0  0  0  0
   -4.0937    8.0113    0.0000 C   0  0  0  0  0  0  0  0  0  0  0  0
   -5.5708    7.7506    0.0000 H   0  0  0  0  0  0  0  0  0  0  0  0
   -3.5806    9.4208    0.0000 C   0  0  0  0  0  0  0  0  0  0  0  0
   -4.5446   10.5701    0.0000 H   0  0  0  0  0  0  0  0  0  0  0  0
   -2.1025    9.6810    0.0000 C   0  0  0  0  0  0  0  0  0  0  0  0
   -1.5895   11.0905    0.0000 H   0  0  0  0  0  0  0  0  0  0  0  0
   -1.1374    8.5316    0.0000 C   0  0  0  0  0  0  0  0  0  0  0  0
    0.3397    8.7923    0.0000 H   0  0  0  0  0  0  0  0  0  0  0  0
   -1.6505    7.1220    0.0000 C   0  0  0  0  0  0  0  0  0  0  0  0
   -0.6865    5.9728    0.0000 H   0  0  0  0  0  0  0  0  0  0  0  0
   -0.9627    3.3133    0.0000 N   0  0  0  0  0  0  0  0  0  0  0  0
   -0.9627    1.8133    0.0000 H   0  0  0  0  0  0  0  0  0  0  0  0
    0.3363    4.0633    0.0000 C   0  0  0  0  0  0  0  0  0  0  0  0
    0.3363    5.5633    0.0000 O   0  0  0  0  0  0  0  0  0  0  0  0
    1.6354    3.3133    0.0000 C   0  0  0  0  0  0  0  0  0  0  0  0
    0.6712    2.1642    0.0000 H   0  0  0  0  0  0  0  0  0  0  0  0
    2.5996    2.1642    0.0000 H   0  0  0  0  0  0  0  0  0  0  0  0
    2.9344    4.0633    0.0000 O   0  0  0  0  0  0  0  0  0  0  0  0
    4.2334    3.3133    0.0000 C   0  0  0  0  0  0  0  0  0  0  0  0
    4.2219    1.8144    0.0000 C   0  0  0  0  0  0  0  0  0  0  0  0
    2.9158    1.0767    0.0000 C   0  0  0  0  0  0  0  0  0  0  0  0
    1.6239    1.8389    0.0000 H   0  0  0  0  0  0  0  0  0  0  0  0
    3.8691   -0.0814    0.0000 H   0  0  0  0  0  0  0  0  0  0  0  0
    1.9409   -0.0632    0.0000 H   0  0  0  0  0  0  0  0  0  0  0  0
    5.4955    1.0600    0.0000 C   0  0  0  0  0  0  0  0  0  0  0  0
    5.4835   -0.4399    0.0000 H   0  0  0  0  0  0  0  0  0  0  0  0
    6.7702    1.7875    0.0000 C   0  0  0  0  0  0  0  0  0  0  0  0
    8.0543    1.0122    0.0000 H   0  0  0  0  0  0  0  0  0  0  0  0
    6.8211    3.2738    0.0000 C   0  0  0  0  0  0  0  0  0  0  0  0
    8.1440    3.9808    0.0000 H   0  0  0  0  0  0  0  0  0  0  0  0
    5.5292    4.0748    0.0000 C   0  0  0  0  0  0  0  0  0  0  0  0
    5.5470    5.5747    0.0000 C   0  0  0  0  0  0  0  0  0  0  0  0
    6.8548    6.3093    0.0000 H   0  0  0  0  0  0  0  0  0  0  0  0
    5.0507    6.9902    0.0000 H   0  0  0  0  0  0  0  0  0  0  0  0
    4.0668    5.3317    0.0000 H   0  0  0  0  0  0  0  0  0  0  0  0
   -5.7366    4.2428    0.0000 O   0  0  0  0  0  0  0  0  0  0  0  0
   -7.2138    4.5033    0.0000 H   0  0  0  0  0  0  0  0  0  0  0  0
  -12.4982    2.5933    0.0000 N   0  0  0  0  0  0  0  0  0  0  0  0
  -11.1982    3.3433    0.0000 C   0  0  0  0  0  0  0  0  0  0  0  0
  -10.6854    1.9336    0.0000 H   0  0  0  0  0  0  0  0  0  0  0  0
   -9.7209    3.6036    0.0000 H   0  0  0  0  0  0  0  0  0  0  0  0
  -11.1982    4.8433    0.0000 C   0  0  0  0  0  0  0  0  0  0  0  0
   -9.8992    5.5935    0.0000 H   0  0  0  0  0  0  0  0  0  0  0  0
  -12.4982    5.5933    0.0000 C   0  0  0  0  0  0  0  0  0  0  0  0
  -12.4982    7.0933    0.0000 H   0  0  0  0  0  0  0  0  0  0  0  0
  -13.7982    4.8433    0.0000 N   0  0  0  0  0  0  0  0  0  0  0  0
  -15.0971    5.5935    0.0000 H   0  0  0  0  0  0  0  0  0  0  0  0
  -13.7982    3.3433    0.0000 C   0  0  0  0  0  0  0  0  0  0  0  0
  -15.0971    2.5931    0.0000 O   0  0  0  0  0  0  0  0  0  0  0  0
  1  2  1  0  0  0  0 
  1  3  1  0  0  0  0 
  1  4  1  0  0  0  0 
  1  5  1  0  0  0  0 
  5  6  1  0  0  0  0 
  5  7  1  0  0  0  0 
  7  8  1  0  0  0  0 
  7  9  1  0  0  0  0 
  7 10  1  0  0  0  0 
  5 11  1  0  0  0  0 
 11 12  1  1  0  0  0 
 11 13  1  0  0  0  0 
 13 14  2  0  0  0  0 
 13 15  1  0  0  0  0 
 15 16  1  0  0  0  0 
 17 15  1  6  0  0  0 
 17 18  1  1  0  0  0 
 17 19  1  0  0  0  0 
 19 20  1  0  0  0  0 
 19 21  1  0  0  0  0 
 19 22  1  0  0  0  0 
 22 23  2  0  0  0  0 
 23 24  1  0  0  0  0 
 23 25  1  0  0  0  0 
 25 26  1  0  0  0  0 
 25 27  2  0  0  0  0 
 27 28  1  0  0  0  0 
 27 29  1  0  0  0  0 
 29 30  1  0  0  0  0 
 29 31  2  0  0  0  0 
 22 31  1  0  0  0  0 
 31 32  1  0  0  0  0 
 17 33  1  0  0  0  0 
 33 34  1  0  0  0  0 
 33 35  1  0  0  0  0 
 33 36  1  0  0  0  0 
 36 37  1  1  0  0  0 
 36 38  1  0  0  0  0 
 38 39  1  1  0  0  0 
 38 40  1  0  0  0  0 
 40 41  1  0  0  0  0 
 40 42  1  0  0  0  0 
 40 43  1  0  0  0  0 
 43 44  2  0  0  0  0 
 44 45  1  0  0  0  0 
 44 46  1  0  0  0  0 
 46 47  1  0  0  0  0 
 46 48  2  0  0  0  0 
 48 49  1  0  0  0  0 
 48 50  1  0  0  0  0 
 50 51  1  0  0  0  0 
 50 52  2  0  0  0  0 
 43 52  1  0  0  0  0 
 52 53  1  0  0  0  0 
 38 54  1  6  0  0  0 
 54 55  1  0  0  0  0 
 54 56  1  0  0  0  0 
 56 57  2  0  0  0  0 
 56 58  1  0  0  0  0 
 58 59  1  0  0  0  0 
 58 60  1  0  0  0  0 
 58 61  1  0  0  0  0 
 61 62  1  0  0  0  0 
 62 63  2  0  0  0  0 
 63 64  1  0  0  0  0 
 64 65  1  0  0  0  0 
 64 66  1  0  0  0  0 
 64 67  1  0  0  0  0 
 63 68  1  0  0  0  0 
 68 69  1  0  0  0  0 
 68 70  2  0  0  0  0 
 70 71  1  0  0  0  0 
 70 72  1  0  0  0  0 
 72 73  1  0  0  0  0 
 72 74  2  0  0  0  0 
 62 74  1  0  0  0  0 
 74 75  1  0  0  0  0 
 75 76  1  0  0  0  0 
 75 77  1  0  0  0  0 
 75 78  1  0  0  0  0 
 36 79  1  6  0  0  0 
 79 80  1  0  0  0  0 
 11 81  1  6  0  0  0 
 81 82  1  0  0  0  0 
 82 83  1  0  0  0  0 
 82 84  1  0  0  0  0 
 82 85  1  0  0  0  0 
 85 86  1  0  0  0  0 
 85 87  2  0  0  0  0 
 87 88  1  0  0  0  0 
 87 89  1  0  0  0  0 
 89 90  1  0  0  0  0 
 89 91  1  0  0  0  0 
 81 91  1  0  0  0  0 
 91 92  2  0  0  0  0 
M  END
> <Rank>
55

> <Priority_score>
0.0176

> <Reaction_type>
alkyl dehydrogenation

> <Parent_ID>
63

> <Parent_InChI>
InChI=1S/C37H48N4O5/c1-25(2)34(41-20-12-19-38-37(41)45)36(44)39-30(21-28-15-7-5-8-16-28)23-32(42)31(22-29-17-9-6-10-18-29)40-33(43)24-46-35-26(3)13-11-14-27(35)4/h5-11,13-18,25,30-32,34,42H,12,19-24H2,1-4H3,(H,38,45)(H,39,44)(H,40,43)

> <Parent_SMILES>
Cc1cccc(C)c1OCC(=O)N[C@@H](Cc1ccccc1)[C@@H](O)C[C@H](Cc1ccccc1)NC(=O)[C@H](C(C)C)N1CCCNC1=O

$$$$
Molecule 63_metabolite 56
  CDK     0516241031

 92 96  0  0  0  0  0  0  0  0999 V2000
    2.8881   -5.0943    0.0000 C   0  0  0  0  0  0  0  0  0  0  0  0
    1.5891   -5.8443    0.0000 H   0  0  0  0  0  0  0  0  0  0  0  0
    3.4012   -6.5039    0.0000 H   0  0  0  0  0  0  0  0  0  0  0  0
    4.3654   -4.8339    0.0000 H   0  0  0  0  0  0  0  0  0  0  0  0
    2.8881   -3.5943    0.0000 C   0  0  0  0  0  0  0  0  0  0  0  0
    2.3751   -2.1848    0.0000 H   0  0  0  0  0  0  0  0  0  0  0  0
    1.4109   -3.8548    0.0000 C   0  0  0  0  0  0  0  0  0  0  0  0
    0.8979   -5.2643    0.0000 H   0  0  0  0  0  0  0  0  0  0  0  0
    1.4109   -2.3548    0.0000 H   0  0  0  0  0  0  0  0  0  0  0  0
   -0.0663   -3.5943    0.0000 H   0  0  0  0  0  0  0  0  0  0  0  0
    4.6029   -2.6043    0.0000 C   0  0  1  0  0  0  0  0  0  0  0  0
    3.3303   -1.0874    0.0000 C   0  0  0  0  0  0  0  0  0  0  0  0
    1.8531   -1.3477    0.0000 O   0  0  0  0  0  0  0  0  0  0  0  0
    3.8435    0.3221    0.0000 N   0  0  0  0  0  0  0  0  0  0  0  0
    5.3207    0.5824    0.0000 H   0  0  0  0  0  0  0  0  0  0  0  0
    2.5709    1.8390    0.0000 C   0  0  1  0  0  0  0  0  0  0  0  0
    1.6066    0.6900    0.0000 H   0  0  0  0  0  0  0  0  0  0  0  0
    0.0250    3.3092    0.0000 C   0  0  0  0  0  0  0  0  0  0  0  0
    0.9893    4.4582    0.0000 H   0  0  0  0  0  0  0  0  0  0  0  0
   -0.9391    4.4584    0.0000 H   0  0  0  0  0  0  0  0  0  0  0  0
   -1.2741    2.5594    0.0000 C   0  0  0  0  0  0  0  0  0  0  0  0
   -1.2738    1.0585    0.0000 C   0  0  0  0  0  0  0  0  0  0  0  0
    0.0253    0.3086    0.0000 H   0  0  0  0  0  0  0  0  0  0  0  0
   -2.5729    0.3087    0.0000 C   0  0  0  0  0  0  0  0  0  0  0  0
   -2.5733   -1.1913    0.0000 H   0  0  0  0  0  0  0  0  0  0  0  0
   -3.8724    1.0597    0.0000 C   0  0  0  0  0  0  0  0  0  0  0  0
   -5.1715    0.3098    0.0000 H   0  0  0  0  0  0  0  0  0  0  0  0
   -3.8727    2.5605    0.0000 C   0  0  0  0  0  0  0  0  0  0  0  0
   -5.1718    3.3104    0.0000 H   0  0  0  0  0  0  0  0  0  0  0  0
   -2.5736    3.3103    0.0000 C   0  0  0  0  0  0  0  0  0  0  0  0
   -2.5732    4.8103    0.0000 H   0  0  0  0  0  0  0  0  0  0  0  0
    3.0841    3.2484    0.0000 C   0  0  0  0  0  0  0  0  0  0  0  0
    3.0843    4.7484    0.0000 H   0  0  0  0  0  0  0  0  0  0  0  0
    1.6069    3.5091    0.0000 H   0  0  0  0  0  0  0  0  0  0  0  0
    4.5614    3.5088    0.0000 C   0  0  1  0  0  0  0  0  0  0  0  0
    4.5612    2.0088    0.0000 H   0  0  0  0  0  0  0  0  0  0  0  0
    5.5672    6.2714    0.0000 C   0  0  2  0  0  0  0  0  0  0  0  0
    6.5315    7.4203    0.0000 H   0  0  0  0  0  0  0  0  0  0  0  0
    6.8662    5.5212    0.0000 C   0  0  0  0  0  0  0  0  0  0  0  0
    7.8302    4.3720    0.0000 H   0  0  0  0  0  0  0  0  0  0  0  0
    5.9019    4.3722    0.0000 H   0  0  0  0  0  0  0  0  0  0  0  0
    8.1653    6.2711    0.0000 C   0  0  0  0  0  0  0  0  0  0  0  0
    9.4647    5.5201    0.0000 C   0  0  0  0  0  0  0  0  0  0  0  0
    9.4643    4.0201    0.0000 H   0  0  0  0  0  0  0  0  0  0  0  0
   10.7638    6.2700    0.0000 C   0  0  0  0  0  0  0  0  0  0  0  0
   12.0629    5.5200    0.0000 H   0  0  0  0  0  0  0  0  0  0  0  0
   10.7635    7.7708    0.0000 C   0  0  0  0  0  0  0  0  0  0  0  0
   12.0626    8.5207    0.0000 H   0  0  0  0  0  0  0  0  0  0  0  0
    9.4641    8.5218    0.0000 C   0  0  0  0  0  0  0  0  0  0  0  0
    9.4645   10.0218    0.0000 H   0  0  0  0  0  0  0  0  0  0  0  0
    8.1650    7.7719    0.0000 C   0  0  0  0  0  0  0  0  0  0  0  0
    6.8659    8.5218    0.0000 H   0  0  0  0  0  0  0  0  0  0  0  0
    4.2946    7.7883    0.0000 N   0  0  0  0  0  0  0  0  0  0  0  0
    2.8174    7.5279    0.0000 H   0  0  0  0  0  0  0  0  0  0  0  0
    4.8078    9.1977    0.0000 C   0  0  0  0  0  0  0  0  0  0  0  0
    6.2851    9.4581    0.0000 O   0  0  0  0  0  0  0  0  0  0  0  0
    3.8438   10.3469    0.0000 C   0  0  0  0  0  0  0  0  0  0  0  0
    2.8795    9.1979    0.0000 H   0  0  0  0  0  0  0  0  0  0  0  0
    2.5448   11.0970    0.0000 H   0  0  0  0  0  0  0  0  0  0  0  0
    4.3569   11.7564    0.0000 O   0  0  0  0  0  0  0  0  0  0  0  0
    3.3929   12.9056    0.0000 C   0  0  0  0  0  0  0  0  0  0  0  0
    1.9187   12.6340    0.0000 C   0  0  0  0  0  0  0  0  0  0  0  0
    1.4189   11.2198    0.0000 C   0  0  0  0  0  0  0  0  0  0  0  0
    2.3937   10.0798    0.0000 H   0  0  0  0  0  0  0  0  0  0  0  0
    0.1129   11.9577    0.0000 H   0  0  0  0  0  0  0  0  0  0  0  0
    0.4654   10.0618    0.0000 H   0  0  0  0  0  0  0  0  0  0  0  0
    0.9548   13.7575    0.0000 C   0  0  0  0  0  0  0  0  0  0  0  0
   -0.5203   13.4853    0.0000 H   0  0  0  0  0  0  0  0  0  0  0  0
    1.4500   15.1391    0.0000 C   0  0  0  0  0  0  0  0  0  0  0  0
    0.4637   16.2691    0.0000 H   0  0  0  0  0  0  0  0  0  0  0  0
    2.9050   15.4471    0.0000 C   0  0  0  0  0  0  0  0  0  0  0  0
    3.3717   16.8726    0.0000 H   0  0  0  0  0  0  0  0  0  0  0  0
    3.9180   14.3138    0.0000 C   0  0  0  0  0  0  0  0  0  0  0  0
    5.3920   14.5916    0.0000 C   0  0  0  0  0  0  0  0  0  0  0  0
    5.8885   16.0071    0.0000 H   0  0  0  0  0  0  0  0  0  0  0  0
    6.8722   14.3485    0.0000 H   0  0  0  0  0  0  0  0  0  0  0  0
    5.4096   13.0917    0.0000 H   0  0  0  0  0  0  0  0  0  0  0  0
    6.0385    3.2481    0.0000 O   0  0  0  0  0  0  0  0  0  0  0  0
    6.5514    1.8385    0.0000 H   0  0  0  0  0  0  0  0  0  0  0  0
    5.1163   -4.0146    0.0000 N   0  0  0  0  0  0  0  0  0  0  0  0
    6.5942   -4.2760    0.0000 C   0  0  0  0  0  0  0  0  0  0  0  0
    7.8930   -5.0264    0.0000 H   0  0  0  0  0  0  0  0  0  0  0  0
    6.0806   -5.6853    0.0000 H   0  0  0  0  0  0  0  0  0  0  0  0
    7.5587   -3.1271    0.0000 C   0  0  0  0  0  0  0  0  0  0  0  0
    8.8577   -2.3771    0.0000 H   0  0  0  0  0  0  0  0  0  0  0  0
    8.5227   -4.2763    0.0000 H   0  0  0  0  0  0  0  0  0  0  0  0
    7.0452   -1.7169    0.0000 C   0  0  0  0  0  0  0  0  0  0  0  0
    7.0457   -0.2169    0.0000 H   0  0  0  0  0  0  0  0  0  0  0  0
    8.5224   -1.4566    0.0000 H   0  0  0  0  0  0  0  0  0  0  0  0
    5.5673   -1.4555    0.0000 N   0  0  0  0  0  0  0  0  0  0  0  0
    6.0808   -2.8657    0.0000 C   0  0  0  0  0  0  0  0  0  0  0  0
    8.9761   -3.3764    0.0000 O   0  0  0  0  0  0  0  0  0  0  0  0
  1  2  1  0  0  0  0 
  1  3  1  0  0  0  0 
  1  4  1  0  0  0  0 
  1  5  1  0  0  0  0 
  5  6  1  0  0  0  0 
  5  7  1  0  0  0  0 
  7  8  1  0  0  0  0 
  7  9  1  0  0  0  0 
  7 10  1  0  0  0  0 
  5 11  1  0  0  0  0 
 11 12  1  1  0  0  0 
 12 13  2  0  0  0  0 
 12 14  1  0  0  0  0 
 14 15  1  0  0  0  0 
 16 14  1  1  0  0  0 
 16 17  1  6  0  0  0 
 16 18  1  0  0  0  0 
 18 19  1  0  0  0  0 
 18 20  1  0  0  0  0 
 18 21  1  0  0  0  0 
 21 22  2  0  0  0  0 
 22 23  1  0  0  0  0 
 22 24  1  0  0  0  0 
 24 25  1  0  0  0  0 
 24 26  2  0  0  0  0 
 26 27  1  0  0  0  0 
 26 28  1  0  0  0  0 
 28 29  1  0  0  0  0 
 28 30  2  0  0  0  0 
 21 30  1  0  0  0  0 
 30 31  1  0  0  0  0 
 16 32  1  0  0  0  0 
 32 33  1  0  0  0  0 
 32 34  1  0  0  0  0 
 32 35  1  0  0  0  0 
 35 36  1  6  0  0  0 
 35 37  1  0  0  0  0 
 37 38  1  6  0  0  0 
 37 39  1  0  0  0  0 
 39 40  1  0  0  0  0 
 39 41  1  0  0  0  0 
 39 42  1  0  0  0  0 
 42 43  2  0  0  0  0 
 43 44  1  0  0  0  0 
 43 45  1  0  0  0  0 
 45 46  1  0  0  0  0 
 45 47  2  0  0  0  0 
 47 48  1  0  0  0  0 
 47 49  1  0  0  0  0 
 49 50  1  0  0  0  0 
 49 51  2  0  0  0  0 
 42 51  1  0  0  0  0 
 51 52  1  0  0  0  0 
 37 53  1  1  0  0  0 
 53 54  1  0  0  0  0 
 53 55  1  0  0  0  0 
 55 56  2  0  0  0  0 
 55 57  1  0  0  0  0 
 57 58  1  0  0  0  0 
 57 59  1  0  0  0  0 
 57 60  1  0  0  0  0 
 60 61  1  0  0  0  0 
 61 62  2  0  0  0  0 
 62 63  1  0  0  0  0 
 63 64  1  0  0  0  0 
 63 65  1  0  0  0  0 
 63 66  1  0  0  0  0 
 62 67  1  0  0  0  0 
 67 68  1  0  0  0  0 
 67 69  2  0  0  0  0 
 69 70  1  0  0  0  0 
 69 71  1  0  0  0  0 
 71 72  1  0  0  0  0 
 71 73  2  0  0  0  0 
 61 73  1  0  0  0  0 
 73 74  1  0  0  0  0 
 74 75  1  0  0  0  0 
 74 76  1  0  0  0  0 
 74 77  1  0  0  0  0 
 35 78  1  1  0  0  0 
 78 79  1  0  0  0  0 
 11 80  1  0  0  0  0 
 80 81  1  0  0  0  0 
 81 82  1  0  0  0  0 
 81 83  1  0  0  0  0 
 81 84  1  0  0  0  0 
 84 85  1  0  0  0  0 
 84 86  1  0  0  0  0 
 84 87  1  0  0  0  0 
 87 88  1  0  0  0  0 
 87 89  1  0  0  0  0 
 87 90  1  0  0  0  0 
 11 90  1  6  0  0  0 
 90 91  1  0  0  0  0 
 80 91  1  0  0  0  0 
 91 92  2  0  0  0  0 
M  END
> <Rank>
55

> <Priority_score>
0.0176

> <Reaction_type>
cyclization to 6-membered NCN ring

> <Parent_ID>
63

> <Parent_InChI>
InChI=1S/C37H48N4O5/c1-25(2)34(41-20-12-19-38-37(41)45)36(44)39-30(21-28-15-7-5-8-16-28)23-32(42)31(22-29-17-9-6-10-18-29)40-33(43)24-46-35-26(3)13-11-14-27(35)4/h5-11,13-18,25,30-32,34,42H,12,19-24H2,1-4H3,(H,38,45)(H,39,44)(H,40,43)

> <Parent_SMILES>
Cc1cccc(C)c1OCC(=O)N[C@@H](Cc1ccccc1)[C@@H](O)C[C@H](Cc1ccccc1)NC(=O)[C@H](C(C)C)N1CCCNC1=O

$$$$
Molecule 63_metabolite 57
  CDK     0516241031

 92 95  0  0  0  0  0  0  0  0999 V2000
  -16.0292   10.0994    0.0000 C   0  0  0  0  0  0  0  0  0  0  0  0
  -17.4387    9.5864    0.0000 H   0  0  0  0  0  0  0  0  0  0  0  0
  -14.8801   11.0636    0.0000 H   0  0  0  0  0  0  0  0  0  0  0  0
  -16.7792   11.3985    0.0000 H   0  0  0  0  0  0  0  0  0  0  0  0
  -14.1447    8.5182    0.0000 C   0  0  0  0  0  0  0  0  0  0  0  0
  -12.7352    8.0051    0.0000 H   0  0  0  0  0  0  0  0  0  0  0  0
  -12.6747   11.0643    0.0000 C   0  0  0  0  0  0  0  0  0  0  0  0
  -11.1747   11.0643    0.0000 H   0  0  0  0  0  0  0  0  0  0  0  0
  -14.0842   11.5773    0.0000 H   0  0  0  0  0  0  0  0  0  0  0  0
  -12.4142   12.5415    0.0000 H   0  0  0  0  0  0  0  0  0  0  0  0
  -14.4052    7.0410    0.0000 C   0  0  1  0  0  0  0  0  0  0  0  0
  -15.8147    7.5540    0.0000 H   0  0  0  0  0  0  0  0  0  0  0  0
  -12.4252    7.0410    0.0000 C   0  0  0  0  0  0  0  0  0  0  0  0
  -11.6752    8.3400    0.0000 O   0  0  0  0  0  0  0  0  0  0  0  0
  -11.6752    5.7419    0.0000 N   0  0  0  0  0  0  0  0  0  0  0  0
  -12.4252    4.4429    0.0000 H   0  0  0  0  0  0  0  0  0  0  0  0
   -9.6952    5.7419    0.0000 C   0  0  1  0  0  0  0  0  0  0  0  0
   -9.9556    7.2191    0.0000 H   0  0  0  0  0  0  0  0  0  0  0  0
   -8.2856    6.2550    0.0000 C   0  0  0  0  0  0  0  0  0  0  0  0
   -8.0252    4.7777    0.0000 H   0  0  0  0  0  0  0  0  0  0  0  0
   -6.7856    6.2550    0.0000 H   0  0  0  0  0  0  0  0  0  0  0  0
   -8.0252    7.7322    0.0000 C   0  0  0  0  0  0  0  0  0  0  0  0
   -9.1752    8.6965    0.0000 C   0  0  0  0  0  0  0  0  0  0  0  0
  -10.5846    8.1833    0.0000 H   0  0  0  0  0  0  0  0  0  0  0  0
   -8.9147   10.1737    0.0000 C   0  0  0  0  0  0  0  0  0  0  0  0
  -10.0636   11.1381    0.0000 H   0  0  0  0  0  0  0  0  0  0  0  0
   -7.5042   10.6866    0.0000 C   0  0  0  0  0  0  0  0  0  0  0  0
   -7.2437   12.1638    0.0000 H   0  0  0  0  0  0  0  0  0  0  0  0
   -6.3542    9.7222    0.0000 C   0  0  0  0  0  0  0  0  0  0  0  0
   -4.9447   10.2355    0.0000 H   0  0  0  0  0  0  0  0  0  0  0  0
   -6.6147    8.2450    0.0000 C   0  0  0  0  0  0  0  0  0  0  0  0
   -5.4658    7.2807    0.0000 H   0  0  0  0  0  0  0  0  0  0  0  0
   -8.7052    4.0272    0.0000 C   0  0  0  0  0  0  0  0  0  0  0  0
   -8.4447    2.5500    0.0000 H   0  0  0  0  0  0  0  0  0  0  0  0
  -10.1147    3.5142    0.0000 H   0  0  0  0  0  0  0  0  0  0  0  0
   -7.2052    4.0272    0.0000 C   0  0  1  0  0  0  0  0  0  0  0  0
   -7.4656    5.5044    0.0000 H   0  0  0  0  0  0  0  0  0  0  0  0
   -6.2152    2.3125    0.0000 C   0  0  2  0  0  0  0  0  0  0  0  0
   -5.9547    0.8352    0.0000 H   0  0  0  0  0  0  0  0  0  0  0  0
   -7.6247    1.7994    0.0000 C   0  0  0  0  0  0  0  0  0  0  0  0
   -9.1247    1.7994    0.0000 H   0  0  0  0  0  0  0  0  0  0  0  0
   -7.8852    3.2766    0.0000 H   0  0  0  0  0  0  0  0  0  0  0  0
   -7.8852    0.3222    0.0000 C   0  0  0  0  0  0  0  0  0  0  0  0
   -9.2957   -0.1906    0.0000 C   0  0  0  0  0  0  0  0  0  0  0  0
  -10.4446    0.7737    0.0000 H   0  0  0  0  0  0  0  0  0  0  0  0
   -9.5561   -1.6679    0.0000 C   0  0  0  0  0  0  0  0  0  0  0  0
  -10.9656   -2.1811    0.0000 H   0  0  0  0  0  0  0  0  0  0  0  0
   -8.4061   -2.6322    0.0000 C   0  0  0  0  0  0  0  0  0  0  0  0
   -8.6666   -4.1094    0.0000 H   0  0  0  0  0  0  0  0  0  0  0  0
   -6.9956   -2.1193    0.0000 C   0  0  0  0  0  0  0  0  0  0  0  0
   -5.8467   -3.0837    0.0000 H   0  0  0  0  0  0  0  0  0  0  0  0
   -6.7352   -0.6421    0.0000 C   0  0  0  0  0  0  0  0  0  0  0  0
   -5.3257   -0.1289    0.0000 H   0  0  0  0  0  0  0  0  0  0  0  0
   -4.2352    2.3125    0.0000 N   0  0  0  0  0  0  0  0  0  0  0  0
   -3.4852    3.6115    0.0000 H   0  0  0  0  0  0  0  0  0  0  0  0
   -3.4852    1.0134    0.0000 C   0  0  0  0  0  0  0  0  0  0  0  0
   -4.2352   -0.2856    0.0000 O   0  0  0  0  0  0  0  0  0  0  0  0
   -1.9852    1.0134    0.0000 C   0  0  0  0  0  0  0  0  0  0  0  0
   -2.2456    2.4906    0.0000 H   0  0  0  0  0  0  0  0  0  0  0  0
   -0.5756    1.5265    0.0000 H   0  0  0  0  0  0  0  0  0  0  0  0
   -1.2352   -0.2856    0.0000 O   0  0  0  0  0  0  0  0  0  0  0  0
    0.2648   -0.2856    0.0000 C   0  0  0  0  0  0  0  0  0  0  0  0
    1.0043    1.0182    0.0000 C   0  0  0  0  0  0  0  0  0  0  0  0
    0.2420    2.3102    0.0000 C   0  0  0  0  0  0  0  0  0  0  0  0
   -1.2579    2.2960    0.0000 H   0  0  0  0  0  0  0  0  0  0  0  0
    1.6467    2.8364    0.0000 H   0  0  0  0  0  0  0  0  0  0  0  0
   -0.0323    3.7848    0.0000 H   0  0  0  0  0  0  0  0  0  0  0  0
    2.4845    1.0347    0.0000 C   0  0  0  0  0  0  0  0  0  0  0  0
    3.2240    2.3398    0.0000 H   0  0  0  0  0  0  0  0  0  0  0  0
    3.2246   -0.2327    0.0000 C   0  0  0  0  0  0  0  0  0  0  0  0
    4.7243   -0.2033    0.0000 H   0  0  0  0  0  0  0  0  0  0  0  0
    2.5255   -1.5453    0.0000 C   0  0  0  0  0  0  0  0  0  0  0  0
    3.3177   -2.8190    0.0000 H   0  0  0  0  0  0  0  0  0  0  0  0
    1.0062   -1.5930    0.0000 C   0  0  0  0  0  0  0  0  0  0  0  0
    0.2717   -2.9008    0.0000 C   0  0  0  0  0  0  0  0  0  0  0  0
    1.0370   -4.1909    0.0000 H   0  0  0  0  0  0  0  0  0  0  0  0
   -0.8659   -3.8785    0.0000 H   0  0  0  0  0  0  0  0  0  0  0  0
   -0.8887   -1.9503    0.0000 H   0  0  0  0  0  0  0  0  0  0  0  0
   -5.7956    4.5402    0.0000 O   0  0  0  0  0  0  0  0  0  0  0  0
   -5.5352    6.0174    0.0000 H   0  0  0  0  0  0  0  0  0  0  0  0
  -15.1552    5.7419    0.0000 N   0  0  0  0  0  0  0  0  0  0  0  0
  -14.4043    4.4424    0.0000 C   0  0  0  0  0  0  0  0  0  0  0  0
  -13.2555    5.4068    0.0000 H   0  0  0  0  0  0  0  0  0  0  0  0
  -13.2552    3.4783    0.0000 H   0  0  0  0  0  0  0  0  0  0  0  0
  -15.1543    3.1434    0.0000 C   0  0  0  0  0  0  0  0  0  0  0  0
  -13.7448    2.6302    0.0000 H   0  0  0  0  0  0  0  0  0  0  0  0
  -15.4151    1.6662    0.0000 H   0  0  0  0  0  0  0  0  0  0  0  0
  -16.6552    3.1438    0.0000 C   0  0  0  0  0  0  0  0  0  0  0  0
  -17.4052    1.8448    0.0000 H   0  0  0  0  0  0  0  0  0  0  0  0
  -17.4060    4.4434    0.0000 N   0  0  0  0  0  0  0  0  0  0  0  0
  -16.6560    5.7424    0.0000 C   0  0  0  0  0  0  0  0  0  0  0  0
  -17.4058    7.0416    0.0000 O   0  0  0  0  0  0  0  0  0  0  0  0
  1  2  1  0  0  0  0 
  1  3  1  0  0  0  0 
  1  4  1  0  0  0  0 
  1  5  1  0  0  0  0 
  5  6  1  0  0  0  0 
  5  7  1  0  0  0  0 
  7  8  1  0  0  0  0 
  7  9  1  0  0  0  0 
  7 10  1  0  0  0  0 
  5 11  1  0  0  0  0 
 11 12  1  6  0  0  0 
 11 13  1  0  0  0  0 
 13 14  2  0  0  0  0 
 13 15  1  0  0  0  0 
 15 16  1  0  0  0  0 
 17 15  1  1  0  0  0 
 17 18  1  6  0  0  0 
 17 19  1  0  0  0  0 
 19 20  1  0  0  0  0 
 19 21  1  0  0  0  0 
 19 22  1  0  0  0  0 
 22 23  2  0  0  0  0 
 23 24  1  0  0  0  0 
 23 25  1  0  0  0  0 
 25 26  1  0  0  0  0 
 25 27  2  0  0  0  0 
 27 28  1  0  0  0  0 
 27 29  1  0  0  0  0 
 29 30  1  0  0  0  0 
 29 31  2  0  0  0  0 
 22 31  1  0  0  0  0 
 31 32  1  0  0  0  0 
 17 33  1  0  0  0  0 
 33 34  1  0  0  0  0 
 33 35  1  0  0  0  0 
 33 36  1  0  0  0  0 
 36 37  1  1  0  0  0 
 36 38  1  0  0  0  0 
 38 39  1  6  0  0  0 
 38 40  1  0  0  0  0 
 40 41  1  0  0  0  0 
 40 42  1  0  0  0  0 
 40 43  1  0  0  0  0 
 43 44  2  0  0  0  0 
 44 45  1  0  0  0  0 
 44 46  1  0  0  0  0 
 46 47  1  0  0  0  0 
 46 48  2  0  0  0  0 
 48 49  1  0  0  0  0 
 48 50  1  0  0  0  0 
 50 51  1  0  0  0  0 
 50 52  2  0  0  0  0 
 43 52  1  0  0  0  0 
 52 53  1  0  0  0  0 
 38 54  1  1  0  0  0 
 54 55  1  0  0  0  0 
 54 56  1  0  0  0  0 
 56 57  2  0  0  0  0 
 56 58  1  0  0  0  0 
 58 59  1  0  0  0  0 
 58 60  1  0  0  0  0 
 58 61  1  0  0  0  0 
 61 62  1  0  0  0  0 
 62 63  2  0  0  0  0 
 63 64  1  0  0  0  0 
 64 65  1  0  0  0  0 
 64 66  1  0  0  0  0 
 64 67  1  0  0  0  0 
 63 68  1  0  0  0  0 
 68 69  1  0  0  0  0 
 68 70  2  0  0  0  0 
 70 71  1  0  0  0  0 
 70 72  1  0  0  0  0 
 72 73  1  0  0  0  0 
 72 74  2  0  0  0  0 
 62 74  1  0  0  0  0 
 74 75  1  0  0  0  0 
 75 76  1  0  0  0  0 
 75 77  1  0  0  0  0 
 75 78  1  0  0  0  0 
 36 79  1  6  0  0  0 
 79 80  1  0  0  0  0 
 11 81  1  1  0  0  0 
 81 82  1  0  0  0  0 
 82 83  1  0  0  0  0 
 82 84  1  0  0  0  0 
 82 85  1  0  0  0  0 
 85 86  1  0  0  0  0 
 85 87  1  0  0  0  0 
 85 88  1  0  0  0  0 
 88 89  1  0  0  0  0 
 88 90  2  0  0  0  0 
 90 91  1  0  0  0  0 
 81 91  1  0  0  0  0 
 91 92  2  0  0  0  0 
M  END
> <Rank>
55

> <Priority_score>
0.0176

> <Reaction_type>
dehydration of N-C bond

> <Parent_ID>
63

> <Parent_InChI>
InChI=1S/C37H48N4O5/c1-25(2)34(41-20-12-19-38-37(41)45)36(44)39-30(21-28-15-7-5-8-16-28)23-32(42)31(22-29-17-9-6-10-18-29)40-33(43)24-46-35-26(3)13-11-14-27(35)4/h5-11,13-18,25,30-32,34,42H,12,19-24H2,1-4H3,(H,38,45)(H,39,44)(H,40,43)

> <Parent_SMILES>
Cc1cccc(C)c1OCC(=O)N[C@@H](Cc1ccccc1)[C@@H](O)C[C@H](Cc1ccccc1)NC(=O)[C@H](C(C)C)N1CCCNC1=O

$$$$
Molecule 63_metabolite 58
  CDK     0516241031

 93 96  0  0  0  0  0  0  0  0999 V2000
  -15.2955   10.8331    0.0000 C   0  0  0  0  0  0  0  0  0  0  0  0
  -16.7051   10.3200    0.0000 H   0  0  0  0  0  0  0  0  0  0  0  0
  -14.1464   11.7973    0.0000 H   0  0  0  0  0  0  0  0  0  0  0  0
  -16.0455   12.1321    0.0000 H   0  0  0  0  0  0  0  0  0  0  0  0
  -13.4110    9.2518    0.0000 C   0  0  0  0  0  0  0  0  0  0  0  0
  -12.0015    8.7388    0.0000 H   0  0  0  0  0  0  0  0  0  0  0  0
  -11.9410   11.7979    0.0000 C   0  0  0  0  0  0  0  0  0  0  0  0
  -10.4410   11.7979    0.0000 H   0  0  0  0  0  0  0  0  0  0  0  0
  -13.3506   12.3110    0.0000 H   0  0  0  0  0  0  0  0  0  0  0  0
  -11.6806   13.2751    0.0000 H   0  0  0  0  0  0  0  0  0  0  0  0
  -13.6715    7.7746    0.0000 C   0  0  1  0  0  0  0  0  0  0  0  0
  -15.0811    8.2876    0.0000 H   0  0  0  0  0  0  0  0  0  0  0  0
  -11.6915    7.7746    0.0000 C   0  0  0  0  0  0  0  0  0  0  0  0
  -10.9415    9.0736    0.0000 O   0  0  0  0  0  0  0  0  0  0  0  0
  -10.9415    6.4756    0.0000 N   0  0  0  0  0  0  0  0  0  0  0  0
  -11.6915    5.1765    0.0000 H   0  0  0  0  0  0  0  0  0  0  0  0
   -8.9615    6.4756    0.0000 C   0  0  1  0  0  0  0  0  0  0  0  0
   -9.2220    7.9528    0.0000 H   0  0  0  0  0  0  0  0  0  0  0  0
   -7.5520    6.9886    0.0000 C   0  0  0  0  0  0  0  0  0  0  0  0
   -7.2915    5.5114    0.0000 H   0  0  0  0  0  0  0  0  0  0  0  0
   -6.0520    6.9886    0.0000 H   0  0  0  0  0  0  0  0  0  0  0  0
   -7.2915    8.4658    0.0000 C   0  0  0  0  0  0  0  0  0  0  0  0
   -8.4415    9.4302    0.0000 C   0  0  0  0  0  0  0  0  0  0  0  0
   -9.8510    8.9169    0.0000 H   0  0  0  0  0  0  0  0  0  0  0  0
   -8.1810   10.9074    0.0000 C   0  0  0  0  0  0  0  0  0  0  0  0
   -9.3300   11.8717    0.0000 H   0  0  0  0  0  0  0  0  0  0  0  0
   -6.7706   11.4202    0.0000 C   0  0  0  0  0  0  0  0  0  0  0  0
   -6.5101   12.8974    0.0000 H   0  0  0  0  0  0  0  0  0  0  0  0
   -5.6205   10.4559    0.0000 C   0  0  0  0  0  0  0  0  0  0  0  0
   -4.2111   10.9691    0.0000 H   0  0  0  0  0  0  0  0  0  0  0  0
   -5.8810    8.9787    0.0000 C   0  0  0  0  0  0  0  0  0  0  0  0
   -4.7321    8.0143    0.0000 H   0  0  0  0  0  0  0  0  0  0  0  0
   -7.9715    4.7608    0.0000 C   0  0  0  0  0  0  0  0  0  0  0  0
   -7.7110    3.2836    0.0000 H   0  0  0  0  0  0  0  0  0  0  0  0
   -9.3811    4.2478    0.0000 H   0  0  0  0  0  0  0  0  0  0  0  0
   -6.4715    4.7608    0.0000 C   0  0  1  0  0  0  0  0  0  0  0  0
   -6.7320    6.2381    0.0000 H   0  0  0  0  0  0  0  0  0  0  0  0
   -5.4815    3.0461    0.0000 C   0  0  2  0  0  0  0  0  0  0  0  0
   -5.2210    1.5689    0.0000 H   0  0  0  0  0  0  0  0  0  0  0  0
   -6.8911    2.5331    0.0000 C   0  0  0  0  0  0  0  0  0  0  0  0
   -8.3911    2.5331    0.0000 H   0  0  0  0  0  0  0  0  0  0  0  0
   -7.1515    4.0103    0.0000 H   0  0  0  0  0  0  0  0  0  0  0  0
   -7.1515    1.0559    0.0000 C   0  0  0  0  0  0  0  0  0  0  0  0
   -8.5620    0.5430    0.0000 C   0  0  0  0  0  0  0  0  0  0  0  0
   -9.7109    1.5074    0.0000 H   0  0  0  0  0  0  0  0  0  0  0  0
   -8.8225   -0.9342    0.0000 C   0  0  0  0  0  0  0  0  0  0  0  0
  -10.2319   -1.4475    0.0000 H   0  0  0  0  0  0  0  0  0  0  0  0
   -7.6725   -1.8986    0.0000 C   0  0  0  0  0  0  0  0  0  0  0  0
   -7.9329   -3.3758    0.0000 H   0  0  0  0  0  0  0  0  0  0  0  0
   -6.2620   -1.3857    0.0000 C   0  0  0  0  0  0  0  0  0  0  0  0
   -5.1131   -2.3501    0.0000 H   0  0  0  0  0  0  0  0  0  0  0  0
   -6.0015    0.0915    0.0000 C   0  0  0  0  0  0  0  0  0  0  0  0
   -4.5921    0.6048    0.0000 H   0  0  0  0  0  0  0  0  0  0  0  0
   -3.5015    3.0461    0.0000 N   0  0  0  0  0  0  0  0  0  0  0  0
   -2.7515    4.3451    0.0000 H   0  0  0  0  0  0  0  0  0  0  0  0
   -2.7515    1.7471    0.0000 C   0  0  0  0  0  0  0  0  0  0  0  0
   -3.5015    0.4480    0.0000 O   0  0  0  0  0  0  0  0  0  0  0  0
   -1.2515    1.7471    0.0000 C   0  0  0  0  0  0  0  0  0  0  0  0
   -1.5120    3.2243    0.0000 H   0  0  0  0  0  0  0  0  0  0  0  0
    0.1580    2.2601    0.0000 H   0  0  0  0  0  0  0  0  0  0  0  0
   -0.5015    0.4480    0.0000 O   0  0  0  0  0  0  0  0  0  0  0  0
    0.9985    0.4480    0.0000 C   0  0  0  0  0  0  0  0  0  0  0  0
    1.7379    1.7519    0.0000 C   0  0  0  0  0  0  0  0  0  0  0  0
    0.9757    3.0438    0.0000 C   0  0  0  0  0  0  0  0  0  0  0  0
   -0.5242    3.0297    0.0000 H   0  0  0  0  0  0  0  0  0  0  0  0
    2.3803    3.5701    0.0000 H   0  0  0  0  0  0  0  0  0  0  0  0
    0.7013    4.5185    0.0000 H   0  0  0  0  0  0  0  0  0  0  0  0
    3.2181    1.7684    0.0000 C   0  0  0  0  0  0  0  0  0  0  0  0
    3.9576    3.0734    0.0000 H   0  0  0  0  0  0  0  0  0  0  0  0
    3.9583    0.5010    0.0000 C   0  0  0  0  0  0  0  0  0  0  0  0
    5.4580    0.5304    0.0000 H   0  0  0  0  0  0  0  0  0  0  0  0
    3.2591   -0.8116    0.0000 C   0  0  0  0  0  0  0  0  0  0  0  0
    4.0513   -2.0854    0.0000 H   0  0  0  0  0  0  0  0  0  0  0  0
    1.7399   -0.8593    0.0000 C   0  0  0  0  0  0  0  0  0  0  0  0
    1.0053   -2.1672    0.0000 C   0  0  0  0  0  0  0  0  0  0  0  0
    1.7707   -3.4572    0.0000 H   0  0  0  0  0  0  0  0  0  0  0  0
   -0.1322   -3.1449    0.0000 H   0  0  0  0  0  0  0  0  0  0  0  0
   -0.1551   -1.2167    0.0000 H   0  0  0  0  0  0  0  0  0  0  0  0
   -5.0620    5.2739    0.0000 O   0  0  0  0  0  0  0  0  0  0  0  0
   -4.8015    6.7511    0.0000 H   0  0  0  0  0  0  0  0  0  0  0  0
  -14.4215    6.4756    0.0000 N   0  0  0  0  0  0  0  0  0  0  0  0
  -13.6707    5.1761    0.0000 C   0  0  0  0  0  0  0  0  0  0  0  0
  -12.5218    6.1405    0.0000 H   0  0  0  0  0  0  0  0  0  0  0  0
  -12.5215    4.2120    0.0000 H   0  0  0  0  0  0  0  0  0  0  0  0
  -14.4207    3.8770    0.0000 C   0  0  0  0  0  0  0  0  0  0  0  0
  -13.0112    3.3638    0.0000 H   0  0  0  0  0  0  0  0  0  0  0  0
  -14.6815    2.3999    0.0000 H   0  0  0  0  0  0  0  0  0  0  0  0
  -15.9215    3.8775    0.0000 C   0  0  0  0  0  0  0  0  0  0  0  0
  -16.6715    2.5785    0.0000 H   0  0  0  0  0  0  0  0  0  0  0  0
  -16.6723    5.1770    0.0000 N   0  0  0  0  0  0  0  0  0  0  0  0
  -18.1723    5.1768    0.0000 H   0  0  0  0  0  0  0  0  0  0  0  0
  -15.9223    6.4761    0.0000 C   0  0  0  0  0  0  0  0  0  0  0  0
  -16.6721    7.7752    0.0000 O   0  0  0  0  0  0  0  0  0  0  0  0
  1  2  1  0  0  0  0 
  1  3  1  0  0  0  0 
  1  4  1  0  0  0  0 
  1  5  1  0  0  0  0 
  5  6  1  0  0  0  0 
  5  7  1  0  0  0  0 
  7  8  1  0  0  0  0 
  7  9  1  0  0  0  0 
  7 10  1  0  0  0  0 
  5 11  1  0  0  0  0 
 11 12  1  6  0  0  0 
 11 13  1  0  0  0  0 
 13 14  2  0  0  0  0 
 13 15  1  0  0  0  0 
 15 16  1  0  0  0  0 
 17 15  1  1  0  0  0 
 17 18  1  6  0  0  0 
 17 19  1  0  0  0  0 
 19 20  1  0  0  0  0 
 19 21  1  0  0  0  0 
 19 22  1  0  0  0  0 
 22 23  2  0  0  0  0 
 23 24  1  0  0  0  0 
 23 25  1  0  0  0  0 
 25 26  1  0  0  0  0 
 25 27  2  0  0  0  0 
 27 28  1  0  0  0  0 
 27 29  1  0  0  0  0 
 29 30  1  0  0  0  0 
 29 31  2  0  0  0  0 
 22 31  1  0  0  0  0 
 31 32  1  0  0  0  0 
 17 33  1  0  0  0  0 
 33 34  1  0  0  0  0 
 33 35  1  0  0  0  0 
 33 36  1  0  0  0  0 
 36 37  1  1  0  0  0 
 36 38  1  0  0  0  0 
 38 39  1  6  0  0  0 
 38 40  1  0  0  0  0 
 40 41  1  0  0  0  0 
 40 42  1  0  0  0  0 
 40 43  1  0  0  0  0 
 43 44  2  0  0  0  0 
 44 45  1  0  0  0  0 
 44 46  1  0  0  0  0 
 46 47  1  0  0  0  0 
 46 48  2  0  0  0  0 
 48 49  1  0  0  0  0 
 48 50  1  0  0  0  0 
 50 51  1  0  0  0  0 
 50 52  2  0  0  0  0 
 43 52  1  0  0  0  0 
 52 53  1  0  0  0  0 
 38 54  1  1  0  0  0 
 54 55  1  0  0  0  0 
 54 56  1  0  0  0  0 
 56 57  2  0  0  0  0 
 56 58  1  0  0  0  0 
 58 59  1  0  0  0  0 
 58 60  1  0  0  0  0 
 58 61  1  0  0  0  0 
 61 62  1  0  0  0  0 
 62 63  2  0  0  0  0 
 63 64  1  0  0  0  0 
 64 65  1  0  0  0  0 
 64 66  1  0  0  0  0 
 64 67  1  0  0  0  0 
 63 68  1  0  0  0  0 
 68 69  1  0  0  0  0 
 68 70  2  0  0  0  0 
 70 71  1  0  0  0  0 
 70 72  1  0  0  0  0 
 72 73  1  0  0  0  0 
 72 74  2  0  0  0  0 
 62 74  1  0  0  0  0 
 74 75  1  0  0  0  0 
 75 76  1  0  0  0  0 
 75 77  1  0  0  0  0 
 75 78  1  0  0  0  0 
 36 79  1  6  0  0  0 
 79 80  1  0  0  0  0 
 11 81  1  1  0  0  0 
 81 82  1  0  0  0  0 
 82 83  1  0  0  0  0 
 82 84  1  0  0  0  0 
 82 85  1  0  0  0  0 
 85 86  1  0  0  0  0 
 85 87  1  0  0  0  0 
 85 88  1  0  0  0  0 
 88 89  1  0  0  0  0 
 88 90  2  0  0  0  0 
 90 91  1  0  0  0  0 
 90 92  1  0  0  0  0 
 81 92  1  0  0  0  0 
 92 93  2  0  0  0  0 
M  CHG  1  90   1
M  END
> <Rank>
55

> <Priority_score>
0.0176

> <Reaction_type>
dehydration of N-C bond

> <Parent_ID>
63

> <Parent_InChI>
InChI=1S/C37H48N4O5/c1-25(2)34(41-20-12-19-38-37(41)45)36(44)39-30(21-28-15-7-5-8-16-28)23-32(42)31(22-29-17-9-6-10-18-29)40-33(43)24-46-35-26(3)13-11-14-27(35)4/h5-11,13-18,25,30-32,34,42H,12,19-24H2,1-4H3,(H,38,45)(H,39,44)(H,40,43)

> <Parent_SMILES>
Cc1cccc(C)c1OCC(=O)N[C@@H](Cc1ccccc1)[C@@H](O)C[C@H](Cc1ccccc1)NC(=O)[C@H](C(C)C)N1CCCNC1=O

$$$$
Molecule 63_metabolite 59
  CDK     0516241031

 95 98  0  0  0  0  0  0  0  0999 V2000
    1.7189   -3.6219    0.0000 C   0  0  0  0  0  0  0  0  0  0  0  0
    0.2417   -3.3614    0.0000 H   0  0  0  0  0  0  0  0  0  0  0  0
    1.2058   -5.0314    0.0000 H   0  0  0  0  0  0  0  0  0  0  0  0
    3.0179   -4.3719    0.0000 H   0  0  0  0  0  0  0  0  0  0  0  0
    2.9916   -2.1051    0.0000 C   0  0  0  0  0  0  0  0  0  0  0  0
    3.5046   -0.6956    0.0000 H   0  0  0  0  0  0  0  0  0  0  0  0
    1.6926   -1.3551    0.0000 C   0  0  0  0  0  0  0  0  0  0  0  0
    1.6926    0.1449    0.0000 H   0  0  0  0  0  0  0  0  0  0  0  0
    1.1795   -2.7647    0.0000 H   0  0  0  0  0  0  0  0  0  0  0  0
    0.2153   -1.0947    0.0000 H   0  0  0  0  0  0  0  0  0  0  0  0
    4.4688   -2.3656    0.0000 C   0  0  1  0  0  0  0  0  0  0  0  0
    3.9558   -3.7752    0.0000 H   0  0  0  0  0  0  0  0  0  0  0  0
    4.4688   -0.3856    0.0000 C   0  0  0  0  0  0  0  0  0  0  0  0
    3.1698    0.3644    0.0000 O   0  0  0  0  0  0  0  0  0  0  0  0
    5.7678    0.3644    0.0000 N   0  0  0  0  0  0  0  0  0  0  0  0
    7.0669   -0.3856    0.0000 H   0  0  0  0  0  0  0  0  0  0  0  0
    5.7678    1.8644    0.0000 C   0  0  1  0  0  0  0  0  0  0  0  0
    7.2451    1.6039    0.0000 H   0  0  0  0  0  0  0  0  0  0  0  0
    6.2809    3.2739    0.0000 C   0  0  0  0  0  0  0  0  0  0  0  0
    4.8037    3.5344    0.0000 H   0  0  0  0  0  0  0  0  0  0  0  0
    6.2809    4.7739    0.0000 H   0  0  0  0  0  0  0  0  0  0  0  0
    7.7581    3.5344    0.0000 C   0  0  0  0  0  0  0  0  0  0  0  0
    8.2713    4.9439    0.0000 C   0  0  0  0  0  0  0  0  0  0  0  0
    9.7495    5.2038    0.0000 C   0  0  0  0  0  0  0  0  0  0  0  0
   10.2628    6.6132    0.0000 H   0  0  0  0  0  0  0  0  0  0  0  0
   10.7144    4.0542    0.0000 C   0  0  0  0  0  0  0  0  0  0  0  0
   12.1916    4.3147    0.0000 H   0  0  0  0  0  0  0  0  0  0  0  0
   10.2011    2.6448    0.0000 C   0  0  0  0  0  0  0  0  0  0  0  0
   11.1650    1.4954    0.0000 H   0  0  0  0  0  0  0  0  0  0  0  0
    8.7230    2.3848    0.0000 C   0  0  0  0  0  0  0  0  0  0  0  0
    8.2097    0.9754    0.0000 H   0  0  0  0  0  0  0  0  0  0  0  0
    7.3075    6.0932    0.0000 O   0  0  0  0  0  0  0  0  0  0  0  0
    7.8210    7.5026    0.0000 H   0  0  0  0  0  0  0  0  0  0  0  0
    4.0531    2.8544    0.0000 C   0  0  0  0  0  0  0  0  0  0  0  0
    2.5759    3.1149    0.0000 H   0  0  0  0  0  0  0  0  0  0  0  0
    3.5401    1.4448    0.0000 H   0  0  0  0  0  0  0  0  0  0  0  0
    4.0531    4.3544    0.0000 C   0  0  1  0  0  0  0  0  0  0  0  0
    5.5303    4.0939    0.0000 H   0  0  0  0  0  0  0  0  0  0  0  0
    1.5070    5.8244    0.0000 C   0  0  2  0  0  0  0  0  0  0  0  0
    0.5428    6.9735    0.0000 H   0  0  0  0  0  0  0  0  0  0  0  0
    2.4712    6.9735    0.0000 C   0  0  0  0  0  0  0  0  0  0  0  0
    3.7702    7.7235    0.0000 H   0  0  0  0  0  0  0  0  0  0  0  0
    3.4354    5.8244    0.0000 H   0  0  0  0  0  0  0  0  0  0  0  0
    1.9581    8.3830    0.0000 C   0  0  0  0  0  0  0  0  0  0  0  0
    2.9232    9.5324    0.0000 C   0  0  0  0  0  0  0  0  0  0  0  0
    4.4004    9.2717    0.0000 H   0  0  0  0  0  0  0  0  0  0  0  0
    2.4102   10.9419    0.0000 C   0  0  0  0  0  0  0  0  0  0  0  0
    3.3742   12.0911    0.0000 H   0  0  0  0  0  0  0  0  0  0  0  0
    0.9321   11.2021    0.0000 C   0  0  0  0  0  0  0  0  0  0  0  0
    0.4191   12.6116    0.0000 H   0  0  0  0  0  0  0  0  0  0  0  0
   -0.0330   10.0527    0.0000 C   0  0  0  0  0  0  0  0  0  0  0  0
   -1.5102   10.3134    0.0000 H   0  0  0  0  0  0  0  0  0  0  0  0
    0.4800    8.6431    0.0000 C   0  0  0  0  0  0  0  0  0  0  0  0
   -0.4840    7.4939    0.0000 H   0  0  0  0  0  0  0  0  0  0  0  0
   -0.2077    4.8344    0.0000 N   0  0  0  0  0  0  0  0  0  0  0  0
   -0.2077    3.3344    0.0000 H   0  0  0  0  0  0  0  0  0  0  0  0
   -1.5068    5.5844    0.0000 C   0  0  0  0  0  0  0  0  0  0  0  0
   -1.5068    7.0844    0.0000 O   0  0  0  0  0  0  0  0  0  0  0  0
   -2.8058    4.8344    0.0000 C   0  0  0  0  0  0  0  0  0  0  0  0
   -1.8416    3.6853    0.0000 H   0  0  0  0  0  0  0  0  0  0  0  0
   -3.7700    3.6853    0.0000 H   0  0  0  0  0  0  0  0  0  0  0  0
   -4.1048    5.5844    0.0000 O   0  0  0  0  0  0  0  0  0  0  0  0
   -5.4039    4.8344    0.0000 C   0  0  0  0  0  0  0  0  0  0  0  0
   -5.3923    3.3355    0.0000 C   0  0  0  0  0  0  0  0  0  0  0  0
   -4.0863    2.5978    0.0000 C   0  0  0  0  0  0  0  0  0  0  0  0
   -2.7944    3.3600    0.0000 H   0  0  0  0  0  0  0  0  0  0  0  0
   -5.0396    1.4397    0.0000 H   0  0  0  0  0  0  0  0  0  0  0  0
   -3.1113    1.4578    0.0000 H   0  0  0  0  0  0  0  0  0  0  0  0
   -6.6660    2.5811    0.0000 C   0  0  0  0  0  0  0  0  0  0  0  0
   -6.6539    1.0812    0.0000 H   0  0  0  0  0  0  0  0  0  0  0  0
   -7.9407    3.3086    0.0000 C   0  0  0  0  0  0  0  0  0  0  0  0
   -9.2248    2.5333    0.0000 H   0  0  0  0  0  0  0  0  0  0  0  0
   -7.9915    4.7949    0.0000 C   0  0  0  0  0  0  0  0  0  0  0  0
   -9.3144    5.5019    0.0000 H   0  0  0  0  0  0  0  0  0  0  0  0
   -6.6997    5.5959    0.0000 C   0  0  0  0  0  0  0  0  0  0  0  0
   -6.7174    7.0958    0.0000 C   0  0  0  0  0  0  0  0  0  0  0  0
   -8.0252    7.8303    0.0000 H   0  0  0  0  0  0  0  0  0  0  0  0
   -6.2211    8.5113    0.0000 H   0  0  0  0  0  0  0  0  0  0  0  0
   -5.2372    6.8528    0.0000 H   0  0  0  0  0  0  0  0  0  0  0  0
    4.5661    5.7639    0.0000 O   0  0  0  0  0  0  0  0  0  0  0  0
    6.0434    6.0244    0.0000 H   0  0  0  0  0  0  0  0  0  0  0  0
    5.7678   -3.1156    0.0000 N   0  0  0  0  0  0  0  0  0  0  0  0
    7.0674   -2.3648    0.0000 C   0  0  0  0  0  0  0  0  0  0  0  0
    6.1029   -1.2159    0.0000 H   0  0  0  0  0  0  0  0  0  0  0  0
    8.0314   -1.2156    0.0000 H   0  0  0  0  0  0  0  0  0  0  0  0
    8.3664   -3.1148    0.0000 C   0  0  0  0  0  0  0  0  0  0  0  0
    8.8796   -1.7053    0.0000 H   0  0  0  0  0  0  0  0  0  0  0  0
    9.8436   -3.3756    0.0000 H   0  0  0  0  0  0  0  0  0  0  0  0
    8.3659   -4.6156    0.0000 C   0  0  0  0  0  0  0  0  0  0  0  0
    9.8432   -4.3553    0.0000 H   0  0  0  0  0  0  0  0  0  0  0  0
    8.8791   -6.0251    0.0000 H   0  0  0  0  0  0  0  0  0  0  0  0
    7.0664   -5.3664    0.0000 N   0  0  0  0  0  0  0  0  0  0  0  0
    7.0666   -6.8664    0.0000 H   0  0  0  0  0  0  0  0  0  0  0  0
    5.7674   -4.6164    0.0000 C   0  0  0  0  0  0  0  0  0  0  0  0
    4.4682   -5.3662    0.0000 O   0  0  0  0  0  0  0  0  0  0  0  0
  1  2  1  0  0  0  0 
  1  3  1  0  0  0  0 
  1  4  1  0  0  0  0 
  1  5  1  0  0  0  0 
  5  6  1  0  0  0  0 
  5  7  1  0  0  0  0 
  7  8  1  0  0  0  0 
  7  9  1  0  0  0  0 
  7 10  1  0  0  0  0 
  5 11  1  0  0  0  0 
 11 12  1  6  0  0  0 
 11 13  1  0  0  0  0 
 13 14  2  0  0  0  0 
 13 15  1  0  0  0  0 
 15 16  1  0  0  0  0 
 17 15  1  6  0  0  0 
 17 18  1  1  0  0  0 
 17 19  1  0  0  0  0 
 19 20  1  0  0  0  0 
 19 21  1  0  0  0  0 
 19 22  1  0  0  0  0 
 22 23  2  0  0  0  0 
 23 24  1  0  0  0  0 
 24 25  1  0  0  0  0 
 24 26  2  0  0  0  0 
 26 27  1  0  0  0  0 
 26 28  1  0  0  0  0 
 28 29  1  0  0  0  0 
 28 30  2  0  0  0  0 
 22 30  1  0  0  0  0 
 30 31  1  0  0  0  0 
 23 32  1  0  0  0  0 
 32 33  1  0  0  0  0 
 17 34  1  0  0  0  0 
 34 35  1  0  0  0  0 
 34 36  1  0  0  0  0 
 34 37  1  0  0  0  0 
 37 38  1  6  0  0  0 
 37 39  1  0  0  0  0 
 39 40  1  6  0  0  0 
 39 41  1  0  0  0  0 
 41 42  1  0  0  0  0 
 41 43  1  0  0  0  0 
 41 44  1  0  0  0  0 
 44 45  2  0  0  0  0 
 45 46  1  0  0  0  0 
 45 47  1  0  0  0  0 
 47 48  1  0  0  0  0 
 47 49  2  0  0  0  0 
 49 50  1  0  0  0  0 
 49 51  1  0  0  0  0 
 51 52  1  0  0  0  0 
 51 53  2  0  0  0  0 
 44 53  1  0  0  0  0 
 53 54  1  0  0  0  0 
 39 55  1  1  0  0  0 
 55 56  1  0  0  0  0 
 55 57  1  0  0  0  0 
 57 58  2  0  0  0  0 
 57 59  1  0  0  0  0 
 59 60  1  0  0  0  0 
 59 61  1  0  0  0  0 
 59 62  1  0  0  0  0 
 62 63  1  0  0  0  0 
 63 64  2  0  0  0  0 
 64 65  1  0  0  0  0 
 65 66  1  0  0  0  0 
 65 67  1  0  0  0  0 
 65 68  1  0  0  0  0 
 64 69  1  0  0  0  0 
 69 70  1  0  0  0  0 
 69 71  2  0  0  0  0 
 71 72  1  0  0  0  0 
 71 73  1  0  0  0  0 
 73 74  1  0  0  0  0 
 73 75  2  0  0  0  0 
 63 75  1  0  0  0  0 
 75 76  1  0  0  0  0 
 76 77  1  0  0  0  0 
 76 78  1  0  0  0  0 
 76 79  1  0  0  0  0 
 37 80  1  1  0  0  0 
 80 81  1  0  0  0  0 
 11 82  1  1  0  0  0 
 82 83  1  0  0  0  0 
 83 84  1  0  0  0  0 
 83 85  1  0  0  0  0 
 83 86  1  0  0  0  0 
 86 87  1  0  0  0  0 
 86 88  1  0  0  0  0 
 86 89  1  0  0  0  0 
 89 90  1  0  0  0  0 
 89 91  1  0  0  0  0 
 89 92  1  0  0  0  0 
 92 93  1  0  0  0  0 
 92 94  1  0  0  0  0 
 82 94  1  0  0  0  0 
 94 95  2  0  0  0  0 
M  END
> <Rank>
59

> <Priority_score>
0.016

> <Reaction_type>
aromatic hydroxylation

> <Parent_ID>
63

> <Parent_InChI>
InChI=1S/C37H48N4O5/c1-25(2)34(41-20-12-19-38-37(41)45)36(44)39-30(21-28-15-7-5-8-16-28)23-32(42)31(22-29-17-9-6-10-18-29)40-33(43)24-46-35-26(3)13-11-14-27(35)4/h5-11,13-18,25,30-32,34,42H,12,19-24H2,1-4H3,(H,38,45)(H,39,44)(H,40,43)

> <Parent_SMILES>
Cc1cccc(C)c1OCC(=O)N[C@@H](Cc1ccccc1)[C@@H](O)C[C@H](Cc1ccccc1)NC(=O)[C@H](C(C)C)N1CCCNC1=O

$$$$
Molecule 63_metabolite 60
  CDK     0516241031

 69 71  0  0  0  0  0  0  0  0999 V2000
   -2.4952   -7.4724    0.0000 C   0  0  0  0  0  0  0  0  0  0  0  0
   -0.9964   -7.4112    0.0000 H   0  0  0  0  0  0  0  0  0  0  0  0
   -3.8826   -8.0426    0.0000 H   0  0  0  0  0  0  0  0  0  0  0  0
   -2.1746   -8.9378    0.0000 H   0  0  0  0  0  0  0  0  0  0  0  0
   -3.2976   -6.2051    0.0000 C   0  0  0  0  0  0  0  0  0  0  0  0
   -4.7765   -6.2680    0.0000 C   0  0  0  0  0  0  0  0  0  0  0  0
   -5.4747   -7.5957    0.0000 H   0  0  0  0  0  0  0  0  0  0  0  0
   -5.5561   -5.0245    0.0000 C   0  0  0  0  0  0  0  0  0  0  0  0
   -7.0542   -5.1010    0.0000 H   0  0  0  0  0  0  0  0  0  0  0  0
   -4.8986   -3.6906    0.0000 C   0  0  0  0  0  0  0  0  0  0  0  0
   -5.7303   -2.4424    0.0000 H   0  0  0  0  0  0  0  0  0  0  0  0
   -3.3815   -3.5952    0.0000 C   0  0  0  0  0  0  0  0  0  0  0  0
   -2.5995   -4.8787    0.0000 C   0  0  0  0  0  0  0  0  0  0  0  0
   -1.1002   -4.8316    0.0000 O   0  0  0  0  0  0  0  0  0  0  0  0
   -0.3098   -6.1064    0.0000 C   0  0  0  0  0  0  0  0  0  0  0  0
   -1.7025   -6.6634    0.0000 H   0  0  0  0  0  0  0  0  0  0  0  0
   -0.0030   -7.5747    0.0000 H   0  0  0  0  0  0  0  0  0  0  0  0
    1.1895   -6.0593    0.0000 C   0  0  0  0  0  0  0  0  0  0  0  0
    1.8983   -4.7374    0.0000 O   0  0  0  0  0  0  0  0  0  0  0  0
    1.9799   -7.3342    0.0000 N   0  0  0  0  0  0  0  0  0  0  0  0
    1.2711   -8.6561    0.0000 H   0  0  0  0  0  0  0  0  0  0  0  0
    3.9589   -7.2720    0.0000 C   0  0  1  0  0  0  0  0  0  0  0  0
    5.3839   -7.7405    0.0000 H   0  0  0  0  0  0  0  0  0  0  0  0
    3.7450   -8.7567    0.0000 C   0  0  0  0  0  0  0  0  0  0  0  0
    3.0361  -10.0786    0.0000 H   0  0  0  0  0  0  0  0  0  0  0  0
    2.3200   -8.2881    0.0000 H   0  0  0  0  0  0  0  0  0  0  0  0
    4.9237   -9.6843    0.0000 C   0  0  0  0  0  0  0  0  0  0  0  0
    4.7092  -11.1697    0.0000 C   0  0  0  0  0  0  0  0  0  0  0  0
    3.3164  -11.7265    0.0000 H   0  0  0  0  0  0  0  0  0  0  0  0
    5.8880  -12.0973    0.0000 C   0  0  0  0  0  0  0  0  0  0  0  0
    5.6742  -13.5820    0.0000 H   0  0  0  0  0  0  0  0  0  0  0  0
    7.2813  -11.5395    0.0000 C   0  0  0  0  0  0  0  0  0  0  0  0
    8.4601  -12.4672    0.0000 H   0  0  0  0  0  0  0  0  0  0  0  0
    7.4958  -10.0541    0.0000 C   0  0  0  0  0  0  0  0  0  0  0  0
    8.8887   -9.4973    0.0000 H   0  0  0  0  0  0  0  0  0  0  0  0
    6.3171   -9.1265    0.0000 C   0  0  0  0  0  0  0  0  0  0  0  0
    6.5308   -7.6418    0.0000 H   0  0  0  0  0  0  0  0  0  0  0  0
    4.8946   -5.5270    0.0000 C   0  0  2  0  0  0  0  0  0  0  0  0
    3.4696   -5.0585    0.0000 H   0  0  0  0  0  0  0  0  0  0  0  0
    6.3939   -5.4799    0.0000 C   0  0  0  0  0  0  0  0  0  0  0  0
    7.8188   -5.9485    0.0000 H   0  0  0  0  0  0  0  0  0  0  0  0
    6.1799   -6.9646    0.0000 H   0  0  0  0  0  0  0  0  0  0  0  0
    7.3295   -3.7350    0.0000 C   0  0  2  0  0  0  0  0  0  0  0  0
    5.9046   -3.2664    0.0000 H   0  0  0  0  0  0  0  0  0  0  0  0
    9.3086   -3.6728    0.0000 C   0  0  0  0  0  0  0  0  0  0  0  0
   10.7335   -4.1413    0.0000 H   0  0  0  0  0  0  0  0  0  0  0  0
    9.0946   -5.1575    0.0000 H   0  0  0  0  0  0  0  0  0  0  0  0
   10.2442   -1.9278    0.0000 C   0  0  0  0  0  0  0  0  0  0  0  0
   11.7443   -1.8812    0.0000 C   0  0  0  0  0  0  0  0  0  0  0  0
   12.5346   -3.1562    0.0000 H   0  0  0  0  0  0  0  0  0  0  0  0
   12.4532   -0.5592    0.0000 C   0  0  0  0  0  0  0  0  0  0  0  0
   13.9524   -0.5119    0.0000 H   0  0  0  0  0  0  0  0  0  0  0  0
   11.6619    0.7161    0.0000 C   0  0  0  0  0  0  0  0  0  0  0  0
   12.3708    2.0380    0.0000 H   0  0  0  0  0  0  0  0  0  0  0  0
   10.1618    0.6694    0.0000 C   0  0  0  0  0  0  0  0  0  0  0  0
    9.3716    1.9444    0.0000 H   0  0  0  0  0  0  0  0  0  0  0  0
    9.4530   -0.6525    0.0000 C   0  0  0  0  0  0  0  0  0  0  0  0
    7.9537   -0.6999    0.0000 H   0  0  0  0  0  0  0  0  0  0  0  0
    7.5435   -2.2503    0.0000 N   0  0  0  0  0  0  0  0  0  0  0  0
    8.9362   -1.6933    0.0000 H   0  0  0  0  0  0  0  0  0  0  0  0
    6.3647   -1.3227    0.0000 C   0  0  0  0  0  0  0  0  0  0  0  0
    6.5787    0.1620    0.0000 H   0  0  0  0  0  0  0  0  0  0  0  0
    4.9720   -1.8797    0.0000 O   0  0  0  0  0  0  0  0  0  0  0  0
    5.1086   -4.0424    0.0000 O   0  0  0  0  0  0  0  0  0  0  0  0
    3.9298   -3.1147    0.0000 H   0  0  0  0  0  0  0  0  0  0  0  0
   -2.6884   -2.2650    0.0000 C   0  0  0  0  0  0  0  0  0  0  0  0
   -3.4939   -0.9996    0.0000 H   0  0  0  0  0  0  0  0  0  0  0  0
   -1.5821   -1.2520    0.0000 H   0  0  0  0  0  0  0  0  0  0  0  0
   -1.4987   -3.1786    0.0000 H   0  0  0  0  0  0  0  0  0  0  0  0
  1  2  1  0  0  0  0 
  1  3  1  0  0  0  0 
  1  4  1  0  0  0  0 
  1  5  1  0  0  0  0 
  5  6  2  0  0  0  0 
  6  7  1  0  0  0  0 
  6  8  1  0  0  0  0 
  8  9  1  0  0  0  0 
  8 10  2  0  0  0  0 
 10 11  1  0  0  0  0 
 10 12  1  0  0  0  0 
 12 13  2  0  0  0  0 
  5 13  1  0  0  0  0 
 13 14  1  0  0  0  0 
 14 15  1  0  0  0  0 
 15 16  1  0  0  0  0 
 15 17  1  0  0  0  0 
 15 18  1  0  0  0  0 
 18 19  2  0  0  0  0 
 18 20  1  0  0  0  0 
 20 21  1  0  0  0  0 
 20 22  1  0  0  0  0 
 22 23  1  1  0  0  0 
 22 24  1  6  0  0  0 
 24 25  1  0  0  0  0 
 24 26  1  0  0  0  0 
 24 27  1  0  0  0  0 
 27 28  2  0  0  0  0 
 28 29  1  0  0  0  0 
 28 30  1  0  0  0  0 
 30 31  1  0  0  0  0 
 30 32  2  0  0  0  0 
 32 33  1  0  0  0  0 
 32 34  1  0  0  0  0 
 34 35  1  0  0  0  0 
 34 36  2  0  0  0  0 
 27 36  1  0  0  0  0 
 36 37  1  0  0  0  0 
 22 38  1  0  0  0  0 
 38 39  1  6  0  0  0 
 38 40  1  0  0  0  0 
 40 41  1  0  0  0  0 
 40 42  1  0  0  0  0 
 40 43  1  0  0  0  0 
 43 44  1  6  0  0  0 
 43 45  1  0  0  0  0 
 45 46  1  0  0  0  0 
 45 47  1  0  0  0  0 
 45 48  1  0  0  0  0 
 48 49  2  0  0  0  0 
 49 50  1  0  0  0  0 
 49 51  1  0  0  0  0 
 51 52  1  0  0  0  0 
 51 53  2  0  0  0  0 
 53 54  1  0  0  0  0 
 53 55  1  0  0  0  0 
 55 56  1  0  0  0  0 
 55 57  2  0  0  0  0 
 48 57  1  0  0  0  0 
 57 58  1  0  0  0  0 
 43 59  1  1  0  0  0 
 59 60  1  0  0  0  0 
 59 61  1  0  0  0  0 
 61 62  1  0  0  0  0 
 61 63  2  0  0  0  0 
 38 64  1  1  0  0  0 
 64 65  1  0  0  0  0 
 12 66  1  0  0  0  0 
 66 67  1  0  0  0  0 
 66 68  1  0  0  0  0 
 66 69  1  0  0  0  0 
M  END
> <Rank>
60

> <Priority_score>
0.0128

> <Reaction_type>
deformylation

> <Parent_ID>
63

> <Parent_InChI>
InChI=1S/C37H48N4O5/c1-25(2)34(41-20-12-19-38-37(41)45)36(44)39-30(21-28-15-7-5-8-16-28)23-32(42)31(22-29-17-9-6-10-18-29)40-33(43)24-46-35-26(3)13-11-14-27(35)4/h5-11,13-18,25,30-32,34,42H,12,19-24H2,1-4H3,(H,38,45)(H,39,44)(H,40,43)

> <Parent_SMILES>
Cc1cccc(C)c1OCC(=O)N[C@@H](Cc1ccccc1)[C@@H](O)C[C@H](Cc1ccccc1)NC(=O)[C@H](C(C)C)N1CCCNC1=O

$$$$
Molecule 63_metabolite 61
  CDK     0516241031

 93 96  0  0  0  0  0  0  0  0999 V2000
    8.5197    8.8604    0.0000 C   0  0  0  0  0  0  0  0  0  0  0  0
    9.8187    8.1104    0.0000 H   0  0  0  0  0  0  0  0  0  0  0  0
    9.4838   10.0095    0.0000 H   0  0  0  0  0  0  0  0  0  0  0  0
    7.5555   10.0095    0.0000 H   0  0  0  0  0  0  0  0  0  0  0  0
    7.2206    8.1104    0.0000 C   0  0  0  0  0  0  0  0  0  0  0  0
    5.7434    7.8499    0.0000 H   0  0  0  0  0  0  0  0  0  0  0  0
    6.5434    9.9710    0.0000 C   0  0  0  0  0  0  0  0  0  0  0  0
    7.5076   11.1200    0.0000 H   0  0  0  0  0  0  0  0  0  0  0  0
    5.2444    9.2210    0.0000 H   0  0  0  0  0  0  0  0  0  0  0  0
    5.5792   11.1200    0.0000 H   0  0  0  0  0  0  0  0  0  0  0  0
    7.2206    6.6104    0.0000 C   0  0  0  0  0  0  0  0  0  0  0  0
    8.5197    5.8604    0.0000 N   0  0  0  0  0  0  0  0  0  0  0  0
    9.8192    6.6112    0.0000 C   0  0  0  0  0  0  0  0  0  0  0  0
    8.8548    7.7601    0.0000 H   0  0  0  0  0  0  0  0  0  0  0  0
   10.7832    7.7604    0.0000 H   0  0  0  0  0  0  0  0  0  0  0  0
   11.1182    5.8612    0.0000 C   0  0  0  0  0  0  0  0  0  0  0  0
   11.6314    7.2707    0.0000 H   0  0  0  0  0  0  0  0  0  0  0  0
   12.5954    5.6004    0.0000 H   0  0  0  0  0  0  0  0  0  0  0  0
   11.1177    4.3604    0.0000 C   0  0  0  0  0  0  0  0  0  0  0  0
   12.5950    4.6207    0.0000 H   0  0  0  0  0  0  0  0  0  0  0  0
   11.6309    2.9509    0.0000 H   0  0  0  0  0  0  0  0  0  0  0  0
    9.8182    3.6096    0.0000 N   0  0  0  0  0  0  0  0  0  0  0  0
    9.8185    2.1096    0.0000 H   0  0  0  0  0  0  0  0  0  0  0  0
    8.5192    4.3596    0.0000 C   0  0  0  0  0  0  0  0  0  0  0  0
    7.2200    3.6098    0.0000 O   0  0  0  0  0  0  0  0  0  0  0  0
    5.9216    5.8604    0.0000 C   0  0  0  0  0  0  0  0  0  0  0  0
    5.9216    4.3604    0.0000 O   0  0  0  0  0  0  0  0  0  0  0  0
    4.6225    6.6104    0.0000 N   0  0  0  0  0  0  0  0  0  0  0  0
    4.6225    8.1104    0.0000 H   0  0  0  0  0  0  0  0  0  0  0  0
    2.9078    5.6204    0.0000 C   0  0  1  0  0  0  0  0  0  0  0  0
    3.8720    4.4713    0.0000 H   0  0  0  0  0  0  0  0  0  0  0  0
    1.9436    4.4713    0.0000 C   0  0  0  0  0  0  0  0  0  0  0  0
    0.9795    5.6204    0.0000 H   0  0  0  0  0  0  0  0  0  0  0  0
    0.6446    3.7213    0.0000 H   0  0  0  0  0  0  0  0  0  0  0  0
    2.4567    3.0618    0.0000 C   0  0  0  0  0  0  0  0  0  0  0  0
    3.9348    2.8016    0.0000 C   0  0  0  0  0  0  0  0  0  0  0  0
    4.8988    3.9509    0.0000 H   0  0  0  0  0  0  0  0  0  0  0  0
    4.4478    1.3921    0.0000 C   0  0  0  0  0  0  0  0  0  0  0  0
    5.9250    1.1314    0.0000 H   0  0  0  0  0  0  0  0  0  0  0  0
    3.4827    0.2427    0.0000 C   0  0  0  0  0  0  0  0  0  0  0  0
    3.9958   -1.1668    0.0000 H   0  0  0  0  0  0  0  0  0  0  0  0
    2.0046    0.5028    0.0000 C   0  0  0  0  0  0  0  0  0  0  0  0
    1.0406   -0.6464    0.0000 H   0  0  0  0  0  0  0  0  0  0  0  0
    1.4916    1.9124    0.0000 C   0  0  0  0  0  0  0  0  0  0  0  0
    0.0144    2.1731    0.0000 H   0  0  0  0  0  0  0  0  0  0  0  0
    0.3617    7.0904    0.0000 C   0  0  0  0  0  0  0  0  0  0  0  0
   -1.1155    7.3509    0.0000 H   0  0  0  0  0  0  0  0  0  0  0  0
   -0.1513    5.6808    0.0000 H   0  0  0  0  0  0  0  0  0  0  0  0
    0.3617    8.5904    0.0000 C   0  0  1  0  0  0  0  0  0  0  0  0
    1.8389    8.3299    0.0000 H   0  0  0  0  0  0  0  0  0  0  0  0
   -2.1844   10.0604    0.0000 C   0  0  2  0  0  0  0  0  0  0  0  0
   -3.1486   11.2095    0.0000 H   0  0  0  0  0  0  0  0  0  0  0  0
   -1.2202   11.2095    0.0000 C   0  0  0  0  0  0  0  0  0  0  0  0
    0.0788   11.9595    0.0000 H   0  0  0  0  0  0  0  0  0  0  0  0
   -0.2561   10.0604    0.0000 H   0  0  0  0  0  0  0  0  0  0  0  0
   -1.7333   12.6190    0.0000 C   0  0  0  0  0  0  0  0  0  0  0  0
   -0.7682   13.7684    0.0000 C   0  0  0  0  0  0  0  0  0  0  0  0
    0.7090   13.5077    0.0000 H   0  0  0  0  0  0  0  0  0  0  0  0
   -1.2812   15.1779    0.0000 C   0  0  0  0  0  0  0  0  0  0  0  0
   -0.3172   16.3271    0.0000 H   0  0  0  0  0  0  0  0  0  0  0  0
   -2.7593   15.4381    0.0000 C   0  0  0  0  0  0  0  0  0  0  0  0
   -3.2724   16.8476    0.0000 H   0  0  0  0  0  0  0  0  0  0  0  0
   -3.7244   14.2887    0.0000 C   0  0  0  0  0  0  0  0  0  0  0  0
   -5.2016   14.5494    0.0000 H   0  0  0  0  0  0  0  0  0  0  0  0
   -3.2114   12.8791    0.0000 C   0  0  0  0  0  0  0  0  0  0  0  0
   -4.1754   11.7299    0.0000 H   0  0  0  0  0  0  0  0  0  0  0  0
   -3.8991    9.0704    0.0000 N   0  0  0  0  0  0  0  0  0  0  0  0
   -3.8991    7.5704    0.0000 H   0  0  0  0  0  0  0  0  0  0  0  0
   -5.1982    9.8204    0.0000 C   0  0  0  0  0  0  0  0  0  0  0  0
   -5.1982   11.3204    0.0000 O   0  0  0  0  0  0  0  0  0  0  0  0
   -6.4972    9.0704    0.0000 C   0  0  0  0  0  0  0  0  0  0  0  0
   -5.5330    7.9213    0.0000 H   0  0  0  0  0  0  0  0  0  0  0  0
   -7.4614    7.9213    0.0000 H   0  0  0  0  0  0  0  0  0  0  0  0
   -7.7963    9.8204    0.0000 O   0  0  0  0  0  0  0  0  0  0  0  0
   -9.0953    9.0704    0.0000 C   0  0  0  0  0  0  0  0  0  0  0  0
   -9.0837    7.5715    0.0000 C   0  0  0  0  0  0  0  0  0  0  0  0
   -7.7777    6.8338    0.0000 C   0  0  0  0  0  0  0  0  0  0  0  0
   -6.4858    7.5960    0.0000 H   0  0  0  0  0  0  0  0  0  0  0  0
   -8.7310    5.6757    0.0000 H   0  0  0  0  0  0  0  0  0  0  0  0
   -6.8027    5.6939    0.0000 H   0  0  0  0  0  0  0  0  0  0  0  0
  -10.3574    6.8171    0.0000 C   0  0  0  0  0  0  0  0  0  0  0  0
  -10.3453    5.3172    0.0000 H   0  0  0  0  0  0  0  0  0  0  0  0
  -11.6321    7.5446    0.0000 C   0  0  0  0  0  0  0  0  0  0  0  0
  -12.9162    6.7693    0.0000 H   0  0  0  0  0  0  0  0  0  0  0  0
  -11.6829    9.0309    0.0000 C   0  0  0  0  0  0  0  0  0  0  0  0
  -13.0058    9.7379    0.0000 H   0  0  0  0  0  0  0  0  0  0  0  0
  -10.3911    9.8319    0.0000 C   0  0  0  0  0  0  0  0  0  0  0  0
  -10.4088   11.3318    0.0000 C   0  0  0  0  0  0  0  0  0  0  0  0
  -11.7167   12.0663    0.0000 H   0  0  0  0  0  0  0  0  0  0  0  0
   -9.9125   12.7473    0.0000 H   0  0  0  0  0  0  0  0  0  0  0  0
   -8.9286   11.0888    0.0000 H   0  0  0  0  0  0  0  0  0  0  0  0
    0.8747    9.9999    0.0000 O   0  0  0  0  0  0  0  0  0  0  0  0
    2.3519   10.2604    0.0000 H   0  0  0  0  0  0  0  0  0  0  0  0
  1  2  1  0  0  0  0 
  1  3  1  0  0  0  0 
  1  4  1  0  0  0  0 
  1  5  1  0  0  0  0 
  5  6  1  0  0  0  0 
  5  7  1  0  0  0  0 
  7  8  1  0  0  0  0 
  7  9  1  0  0  0  0 
  7 10  1  0  0  0  0 
  5 11  1  0  0  0  0 
 11 12  2  0  0  0  0 
 12 13  1  0  0  0  0 
 13 14  1  0  0  0  0 
 13 15  1  0  0  0  0 
 13 16  1  0  0  0  0 
 16 17  1  0  0  0  0 
 16 18  1  0  0  0  0 
 16 19  1  0  0  0  0 
 19 20  1  0  0  0  0 
 19 21  1  0  0  0  0 
 19 22  1  0  0  0  0 
 22 23  1  0  0  0  0 
 22 24  1  0  0  0  0 
 12 24  1  0  0  0  0 
 24 25  2  0  0  0  0 
 11 26  1  4  0  0  0 
 26 27  2  0  0  0  0 
 26 28  1  0  0  0  0 
 28 29  1  0  0  0  0 
 30 28  1  1  0  0  0 
 30 31  1  6  0  0  0 
 30 32  1  0  0  0  0 
 32 33  1  0  0  0  0 
 32 34  1  0  0  0  0 
 32 35  1  0  0  0  0 
 35 36  2  0  0  0  0 
 36 37  1  0  0  0  0 
 36 38  1  0  0  0  0 
 38 39  1  0  0  0  0 
 38 40  2  0  0  0  0 
 40 41  1  0  0  0  0 
 40 42  1  0  0  0  0 
 42 43  1  0  0  0  0 
 42 44  2  0  0  0  0 
 35 44  1  0  0  0  0 
 44 45  1  0  0  0  0 
 30 46  1  0  0  0  0 
 46 47  1  0  0  0  0 
 46 48  1  0  0  0  0 
 46 49  1  0  0  0  0 
 49 50  1  6  0  0  0 
 49 51  1  0  0  0  0 
 51 52  1  6  0  0  0 
 51 53  1  0  0  0  0 
 53 54  1  0  0  0  0 
 53 55  1  0  0  0  0 
 53 56  1  0  0  0  0 
 56 57  2  0  0  0  0 
 57 58  1  0  0  0  0 
 57 59  1  0  0  0  0 
 59 60  1  0  0  0  0 
 59 61  2  0  0  0  0 
 61 62  1  0  0  0  0 
 61 63  1  0  0  0  0 
 63 64  1  0  0  0  0 
 63 65  2  0  0  0  0 
 56 65  1  0  0  0  0 
 65 66  1  0  0  0  0 
 51 67  1  1  0  0  0 
 67 68  1  0  0  0  0 
 67 69  1  0  0  0  0 
 69 70  2  0  0  0  0 
 69 71  1  0  0  0  0 
 71 72  1  0  0  0  0 
 71 73  1  0  0  0  0 
 71 74  1  0  0  0  0 
 74 75  1  0  0  0  0 
 75 76  2  0  0  0  0 
 76 77  1  0  0  0  0 
 77 78  1  0  0  0  0 
 77 79  1  0  0  0  0 
 77 80  1  0  0  0  0 
 76 81  1  0  0  0  0 
 81 82  1  0  0  0  0 
 81 83  2  0  0  0  0 
 83 84  1  0  0  0  0 
 83 85  1  0  0  0  0 
 85 86  1  0  0  0  0 
 85 87  2  0  0  0  0 
 75 87  1  0  0  0  0 
 87 88  1  0  0  0  0 
 88 89  1  0  0  0  0 
 88 90  1  0  0  0  0 
 88 91  1  0  0  0  0 
 49 92  1  1  0  0  0 
 92 93  1  0  0  0  0 
M  CHG  1  12   1
M  END
> <Rank>
60

> <Priority_score>
0.0128

> <Reaction_type>
dehydration of N-C bond

> <Parent_ID>
63

> <Parent_InChI>
InChI=1S/C37H48N4O5/c1-25(2)34(41-20-12-19-38-37(41)45)36(44)39-30(21-28-15-7-5-8-16-28)23-32(42)31(22-29-17-9-6-10-18-29)40-33(43)24-46-35-26(3)13-11-14-27(35)4/h5-11,13-18,25,30-32,34,42H,12,19-24H2,1-4H3,(H,38,45)(H,39,44)(H,40,43)

> <Parent_SMILES>
Cc1cccc(C)c1OCC(=O)N[C@@H](Cc1ccccc1)[C@@H](O)C[C@H](Cc1ccccc1)NC(=O)[C@H](C(C)C)N1CCCNC1=O

$$$$
Molecule 63_metabolite 62
  CDK     0516241031

 92 96  0  0  0  0  0  0  0  0999 V2000
   -4.1102    2.0650    0.0000 C   0  0  0  0  0  0  0  0  0  0  0  0
   -5.5983    1.8765    0.0000 H   0  0  0  0  0  0  0  0  0  0  0  0
   -4.5542    3.4978    0.0000 H   0  0  0  0  0  0  0  0  0  0  0  0
   -2.7763    2.7511    0.0000 H   0  0  0  0  0  0  0  0  0  0  0  0
   -3.2029    0.8705    0.0000 C   0  0  0  0  0  0  0  0  0  0  0  0
   -2.7589   -0.5622    0.0000 H   0  0  0  0  0  0  0  0  0  0  0  0
   -4.5368    0.1845    0.0000 C   0  0  0  0  0  0  0  0  0  0  0  0
   -5.7979    0.9966    0.0000 H   0  0  0  0  0  0  0  0  0  0  0  0
   -3.6295   -1.0100    0.0000 H   0  0  0  0  0  0  0  0  0  0  0  0
   -5.5556   -0.9165    0.0000 H   0  0  0  0  0  0  0  0  0  0  0  0
   -1.2386    1.1194    0.0000 C   0  0  1  0  0  0  0  0  0  0  0  0
   -1.6060    2.5737    0.0000 H   0  0  0  0  0  0  0  0  0  0  0  0
   -1.2317   -0.3806    0.0000 C   0  0  0  0  0  0  0  0  0  0  0  0
   -2.4276   -1.2861    0.0000 O   0  0  0  0  0  0  0  0  0  0  0  0
    0.2102   -0.7940    0.0000 N   0  0  0  0  0  0  0  0  0  0  0  0
    0.8406   -2.6710    0.0000 C   0  0  1  0  0  0  0  0  0  0  0  0
    0.8030   -4.1705    0.0000 H   0  0  0  0  0  0  0  0  0  0  0  0
   -0.6427   -2.8944    0.0000 C   0  0  0  0  0  0  0  0  0  0  0  0
   -2.1129   -2.5971    0.0000 H   0  0  0  0  0  0  0  0  0  0  0  0
   -0.6051   -1.3949    0.0000 H   0  0  0  0  0  0  0  0  0  0  0  0
   -1.1908   -4.2907    0.0000 C   0  0  0  0  0  0  0  0  0  0  0  0
   -2.6750   -4.5137    0.0000 C   0  0  0  0  0  0  0  0  0  0  0  0
   -3.6099   -3.3408    0.0000 H   0  0  0  0  0  0  0  0  0  0  0  0
   -3.2231   -5.9100    0.0000 C   0  0  0  0  0  0  0  0  0  0  0  0
   -4.7064   -6.1337    0.0000 H   0  0  0  0  0  0  0  0  0  0  0  0
   -2.2871   -7.0832    0.0000 C   0  0  0  0  0  0  0  0  0  0  0  0
   -2.8353   -8.4794    0.0000 H   0  0  0  0  0  0  0  0  0  0  0  0
   -0.8030   -6.8601    0.0000 C   0  0  0  0  0  0  0  0  0  0  0  0
    0.1320   -8.0331    0.0000 H   0  0  0  0  0  0  0  0  0  0  0  0
   -0.2548   -5.4639    0.0000 C   0  0  0  0  0  0  0  0  0  0  0  0
    1.2284   -5.2402    0.0000 H   0  0  0  0  0  0  0  0  0  0  0  0
    3.2518   -3.1587    0.0000 C   0  0  0  0  0  0  0  0  0  0  0  0
    3.2893   -1.6591    0.0000 H   0  0  0  0  0  0  0  0  0  0  0  0
    4.7350   -2.9352    0.0000 H   0  0  0  0  0  0  0  0  0  0  0  0
    3.7294   -4.5806    0.0000 C   0  0  1  0  0  0  0  0  0  0  0  0
    3.6918   -6.0801    0.0000 H   0  0  0  0  0  0  0  0  0  0  0  0
    5.6701   -4.9731    0.0000 C   0  0  2  0  0  0  0  0  0  0  0  0
    5.7076   -3.4736    0.0000 H   0  0  0  0  0  0  0  0  0  0  0  0
    7.1533   -4.7497    0.0000 C   0  0  0  0  0  0  0  0  0  0  0  0
    7.1158   -6.2492    0.0000 H   0  0  0  0  0  0  0  0  0  0  0  0
    8.6236   -5.0471    0.0000 H   0  0  0  0  0  0  0  0  0  0  0  0
    7.7015   -3.3534    0.0000 C   0  0  0  0  0  0  0  0  0  0  0  0
    6.7655   -2.1803    0.0000 C   0  0  0  0  0  0  0  0  0  0  0  0
    5.2822   -2.4039    0.0000 H   0  0  0  0  0  0  0  0  0  0  0  0
    7.3136   -0.7840    0.0000 C   0  0  0  0  0  0  0  0  0  0  0  0
    6.3787    0.3890    0.0000 H   0  0  0  0  0  0  0  0  0  0  0  0
    8.7978   -0.5609    0.0000 C   0  0  0  0  0  0  0  0  0  0  0  0
    9.3459    0.8353    0.0000 H   0  0  0  0  0  0  0  0  0  0  0  0
    9.7338   -1.7341    0.0000 C   0  0  0  0  0  0  0  0  0  0  0  0
   11.2170   -1.5105    0.0000 H   0  0  0  0  0  0  0  0  0  0  0  0
    9.1856   -3.1304    0.0000 C   0  0  0  0  0  0  0  0  0  0  0  0
   10.1206   -4.3034    0.0000 H   0  0  0  0  0  0  0  0  0  0  0  0
    6.3005   -6.8501    0.0000 N   0  0  0  0  0  0  0  0  0  0  0  0
    7.7707   -7.1474    0.0000 H   0  0  0  0  0  0  0  0  0  0  0  0
    5.3078   -7.9747    0.0000 C   0  0  0  0  0  0  0  0  0  0  0  0
    3.8376   -7.6773    0.0000 O   0  0  0  0  0  0  0  0  0  0  0  0
    5.7854   -9.3966    0.0000 C   0  0  0  0  0  0  0  0  0  0  0  0
    6.7206  -10.5694    0.0000 H   0  0  0  0  0  0  0  0  0  0  0  0
    7.1028   -8.6793    0.0000 H   0  0  0  0  0  0  0  0  0  0  0  0
    4.7928  -10.5212    0.0000 O   0  0  0  0  0  0  0  0  0  0  0  0
    5.2704  -11.9431    0.0000 C   0  0  0  0  0  0  0  0  0  0  0  0
    6.7418  -12.2289    0.0000 C   0  0  0  0  0  0  0  0  0  0  0  0
    7.7238  -11.0950    0.0000 C   0  0  0  0  0  0  0  0  0  0  0  0
    7.2328   -9.6776    0.0000 H   0  0  0  0  0  0  0  0  0  0  0  0
    8.6700  -12.2590    0.0000 H   0  0  0  0  0  0  0  0  0  0  0  0
    9.0344  -10.3654    0.0000 H   0  0  0  0  0  0  0  0  0  0  0  0
    7.2287  -13.6268    0.0000 C   0  0  0  0  0  0  0  0  0  0  0  0
    8.7013  -13.9123    0.0000 H   0  0  0  0  0  0  0  0  0  0  0  0
    6.2630  -14.7320    0.0000 C   0  0  0  0  0  0  0  0  0  0  0  0
    6.7683  -16.1443    0.0000 H   0  0  0  0  0  0  0  0  0  0  0  0
    4.7961  -14.4872    0.0000 C   0  0  0  0  0  0  0  0  0  0  0  0
    3.8409  -15.6437    0.0000 H   0  0  0  0  0  0  0  0  0  0  0  0
    4.2671  -13.0622    0.0000 C   0  0  0  0  0  0  0  0  0  0  0  0
    2.7935  -12.7823    0.0000 C   0  0  0  0  0  0  0  0  0  0  0  0
    1.8142  -13.9185    0.0000 H   0  0  0  0  0  0  0  0  0  0  0  0
    1.5044  -12.0152    0.0000 H   0  0  0  0  0  0  0  0  0  0  0  0
    3.3251  -11.3796    0.0000 H   0  0  0  0  0  0  0  0  0  0  0  0
    2.2461   -4.8040    0.0000 O   0  0  0  0  0  0  0  0  0  0  0  0
    1.6979   -6.2003    0.0000 H   0  0  0  0  0  0  0  0  0  0  0  0
    1.1027    0.3961    0.0000 C   0  0  0  0  0  0  0  0  0  0  0  0
    1.4671    1.8511    0.0000 H   0  0  0  0  0  0  0  0  0  0  0  0
    2.5818    0.6128    0.0000 C   0  0  0  0  0  0  0  0  0  0  0  0
    4.0439    0.2781    0.0000 H   0  0  0  0  0  0  0  0  0  0  0  0
    2.5221   -0.8860    0.0000 H   0  0  0  0  0  0  0  0  0  0  0  0
    3.1676    1.9595    0.0000 C   0  0  0  0  0  0  0  0  0  0  0  0
    4.1922    3.0551    0.0000 H   0  0  0  0  0  0  0  0  0  0  0  0
    4.4214    1.1361    0.0000 H   0  0  0  0  0  0  0  0  0  0  0  0
    2.2138    3.2192    0.0000 N   0  0  0  0  0  0  0  0  0  0  0  0
    2.7890    4.6045    0.0000 H   0  0  0  0  0  0  0  0  0  0  0  0
    0.7587    3.0205    0.0000 C   0  0  0  0  0  0  0  0  0  0  0  0
   -0.1408    4.2208    0.0000 O   0  0  0  0  0  0  0  0  0  0  0  0
    0.1490    1.6557    0.0000 N   0  0  0  0  0  0  0  0  0  0  0  0
  1  2  1  0  0  0  0 
  1  3  1  0  0  0  0 
  1  4  1  0  0  0  0 
  1  5  1  0  0  0  0 
  5  6  1  0  0  0  0 
  5  7  1  0  0  0  0 
  7  8  1  0  0  0  0 
  7  9  1  0  0  0  0 
  7 10  1  0  0  0  0 
  5 11  1  0  0  0  0 
 11 12  1  1  0  0  0 
 11 13  1  0  0  0  0 
 13 14  2  0  0  0  0 
 13 15  1  0  0  0  0 
 15 16  1  0  0  0  0 
 16 17  1  1  0  0  0 
 16 18  1  6  0  0  0 
 18 19  1  0  0  0  0 
 18 20  1  0  0  0  0 
 18 21  1  0  0  0  0 
 21 22  2  0  0  0  0 
 22 23  1  0  0  0  0 
 22 24  1  0  0  0  0 
 24 25  1  0  0  0  0 
 24 26  2  0  0  0  0 
 26 27  1  0  0  0  0 
 26 28  1  0  0  0  0 
 28 29  1  0  0  0  0 
 28 30  2  0  0  0  0 
 21 30  1  0  0  0  0 
 30 31  1  0  0  0  0 
 16 32  1  0  0  0  0 
 32 33  1  0  0  0  0 
 32 34  1  0  0  0  0 
 32 35  1  0  0  0  0 
 35 36  1  6  0  0  0 
 35 37  1  0  0  0  0 
 37 38  1  1  0  0  0 
 37 39  1  6  0  0  0 
 39 40  1  0  0  0  0 
 39 41  1  0  0  0  0 
 39 42  1  0  0  0  0 
 42 43  2  0  0  0  0 
 43 44  1  0  0  0  0 
 43 45  1  0  0  0  0 
 45 46  1  0  0  0  0 
 45 47  2  0  0  0  0 
 47 48  1  0  0  0  0 
 47 49  1  0  0  0  0 
 49 50  1  0  0  0  0 
 49 51  2  0  0  0  0 
 42 51  1  0  0  0  0 
 51 52  1  0  0  0  0 
 37 53  1  0  0  0  0 
 53 54  1  0  0  0  0 
 53 55  1  0  0  0  0 
 55 56  2  0  0  0  0 
 55 57  1  0  0  0  0 
 57 58  1  0  0  0  0 
 57 59  1  0  0  0  0 
 57 60  1  0  0  0  0 
 60 61  1  0  0  0  0 
 61 62  2  0  0  0  0 
 62 63  1  0  0  0  0 
 63 64  1  0  0  0  0 
 63 65  1  0  0  0  0 
 63 66  1  0  0  0  0 
 62 67  1  0  0  0  0 
 67 68  1  0  0  0  0 
 67 69  2  0  0  0  0 
 69 70  1  0  0  0  0 
 69 71  1  0  0  0  0 
 71 72  1  0  0  0  0 
 71 73  2  0  0  0  0 
 61 73  1  0  0  0  0 
 73 74  1  0  0  0  0 
 74 75  1  0  0  0  0 
 74 76  1  0  0  0  0 
 74 77  1  0  0  0  0 
 35 78  1  1  0  0  0 
 78 79  1  0  0  0  0 
 15 80  1  0  0  0  0 
 80 81  1  0  0  0  0 
 80 82  1  0  0  0  0 
 82 83  1  0  0  0  0 
 82 84  1  0  0  0  0 
 82 85  1  0  0  0  0 
 85 86  1  0  0  0  0 
 85 87  1  0  0  0  0 
 85 88  1  0  0  0  0 
 88 89  1  0  0  0  0 
 88 90  1  0  0  0  0 
 90 91  2  0  0  0  0 
 90 92  1  0  0  0  0 
 80 92  1  0  0  0  0 
 11 92  1  6  0  0  0 
M  END
> <Rank>
60

> <Priority_score>
0.0128

> <Reaction_type>
cyclization to 5-membered NCN ring

> <Parent_ID>
63

> <Parent_InChI>
InChI=1S/C37H48N4O5/c1-25(2)34(41-20-12-19-38-37(41)45)36(44)39-30(21-28-15-7-5-8-16-28)23-32(42)31(22-29-17-9-6-10-18-29)40-33(43)24-46-35-26(3)13-11-14-27(35)4/h5-11,13-18,25,30-32,34,42H,12,19-24H2,1-4H3,(H,38,45)(H,39,44)(H,40,43)

> <Parent_SMILES>
Cc1cccc(C)c1OCC(=O)N[C@@H](Cc1ccccc1)[C@@H](O)C[C@H](Cc1ccccc1)NC(=O)[C@H](C(C)C)N1CCCNC1=O

$$$$
Molecule 63_metabolite 63
  CDK     0516241031

 25 25  0  0  0  0  0  0  0  0999 V2000
   -0.1792   -1.2396    0.0000 C   0  0  0  0  0  0  0  0  0  0  0  0
   -1.4782   -1.9896    0.0000 H   0  0  0  0  0  0  0  0  0  0  0  0
    0.3339   -2.6492    0.0000 H   0  0  0  0  0  0  0  0  0  0  0  0
    1.2980   -0.9792    0.0000 H   0  0  0  0  0  0  0  0  0  0  0  0
   -0.1792    0.2604    0.0000 C   0  0  0  0  0  0  0  0  0  0  0  0
    1.1199    1.0104    0.0000 C   0  0  0  0  0  0  0  0  0  0  0  0
    2.4189    0.2604    0.0000 H   0  0  0  0  0  0  0  0  0  0  0  0
    1.1199    2.5104    0.0000 N   0  0  0  0  0  0  0  0  0  0  0  0
    2.4199    3.2604    0.0000 C   0  0  0  0  0  0  0  0  0  0  0  0
    2.9326    1.8507    0.0000 H   0  0  0  0  0  0  0  0  0  0  0  0
    3.8971    3.5207    0.0000 H   0  0  0  0  0  0  0  0  0  0  0  0
    2.4199    4.7604    0.0000 C   0  0  0  0  0  0  0  0  0  0  0  0
    3.8971    4.5001    0.0000 H   0  0  0  0  0  0  0  0  0  0  0  0
    2.9326    6.1700    0.0000 H   0  0  0  0  0  0  0  0  0  0  0  0
    1.1199    5.5104    0.0000 C   0  0  0  0  0  0  0  0  0  0  0  0
    2.0839    6.6595    0.0000 H   0  0  0  0  0  0  0  0  0  0  0  0
    0.1558    6.6595    0.0000 H   0  0  0  0  0  0  0  0  0  0  0  0
   -0.1801    4.7604    0.0000 N   0  0  0  0  0  0  0  0  0  0  0  0
   -1.4790    5.5106    0.0000 H   0  0  0  0  0  0  0  0  0  0  0  0
   -0.1801    3.2604    0.0000 C   0  0  0  0  0  0  0  0  0  0  0  0
   -1.4790    2.5102    0.0000 O   0  0  0  0  0  0  0  0  0  0  0  0
   -1.4782    1.0104    0.0000 C   0  0  0  0  0  0  0  0  0  0  0  0
   -2.7772    0.2604    0.0000 H   0  0  0  0  0  0  0  0  0  0  0  0
   -0.5140    2.1594    0.0000 H   0  0  0  0  0  0  0  0  0  0  0  0
   -2.4424    2.1594    0.0000 H   0  0  0  0  0  0  0  0  0  0  0  0
  1  2  1  0  0  0  0 
  1  3  1  0  0  0  0 
  1  4  1  0  0  0  0 
  1  5  1  0  0  0  0 
  5  6  2  0  0  0  0 
  6  7  1  0  0  0  0 
  6  8  1  0  0  0  0 
  8  9  1  0  0  0  0 
  9 10  1  0  0  0  0 
  9 11  1  0  0  0  0 
  9 12  1  0  0  0  0 
 12 13  1  0  0  0  0 
 12 14  1  0  0  0  0 
 12 15  1  0  0  0  0 
 15 16  1  0  0  0  0 
 15 17  1  0  0  0  0 
 15 18  1  0  0  0  0 
 18 19  1  0  0  0  0 
 18 20  1  0  0  0  0 
  8 20  1  0  0  0  0 
 20 21  2  0  0  0  0 
  5 22  1  0  0  0  0 
 22 23  1  0  0  0  0 
 22 24  1  0  0  0  0 
 22 25  1  0  0  0  0 
M  END
> <Rank>
60

> <Priority_score>
0.0128

> <Reaction_type>
deformylation

> <Parent_ID>
63

> <Parent_InChI>
InChI=1S/C37H48N4O5/c1-25(2)34(41-20-12-19-38-37(41)45)36(44)39-30(21-28-15-7-5-8-16-28)23-32(42)31(22-29-17-9-6-10-18-29)40-33(43)24-46-35-26(3)13-11-14-27(35)4/h5-11,13-18,25,30-32,34,42H,12,19-24H2,1-4H3,(H,38,45)(H,39,44)(H,40,43)

> <Parent_SMILES>
Cc1cccc(C)c1OCC(=O)N[C@@H](Cc1ccccc1)[C@@H](O)C[C@H](Cc1ccccc1)NC(=O)[C@H](C(C)C)N1CCCNC1=O

$$$$
Molecule 63_metabolite 64
  CDK     0516241031

 92 95  0  0  0  0  0  0  0  0999 V2000
    8.8282    9.2281    0.0000 C   0  0  0  0  0  0  0  0  0  0  0  0
   10.1272    8.4781    0.0000 H   0  0  0  0  0  0  0  0  0  0  0  0
    9.7924   10.3772    0.0000 H   0  0  0  0  0  0  0  0  0  0  0  0
    7.8640   10.3772    0.0000 H   0  0  0  0  0  0  0  0  0  0  0  0
    7.5292    8.4781    0.0000 C   0  0  0  0  0  0  0  0  0  0  0  0
    7.5292    6.9781    0.0000 C   0  0  0  0  0  0  0  0  0  0  0  0
    6.2301    6.2281    0.0000 C   0  0  0  0  0  0  0  0  0  0  0  0
    6.2301    4.7281    0.0000 O   0  0  0  0  0  0  0  0  0  0  0  0
    4.9311    6.9781    0.0000 N   0  0  0  0  0  0  0  0  0  0  0  0
    4.9311    8.4781    0.0000 H   0  0  0  0  0  0  0  0  0  0  0  0
    3.2164    5.9881    0.0000 C   0  0  1  0  0  0  0  0  0  0  0  0
    4.1805    4.8390    0.0000 H   0  0  0  0  0  0  0  0  0  0  0  0
    2.2522    4.8390    0.0000 C   0  0  0  0  0  0  0  0  0  0  0  0
    1.2880    5.9881    0.0000 H   0  0  0  0  0  0  0  0  0  0  0  0
    0.9531    4.0890    0.0000 H   0  0  0  0  0  0  0  0  0  0  0  0
    2.7652    3.4295    0.0000 C   0  0  0  0  0  0  0  0  0  0  0  0
    4.2433    3.1693    0.0000 C   0  0  0  0  0  0  0  0  0  0  0  0
    5.2073    4.3186    0.0000 H   0  0  0  0  0  0  0  0  0  0  0  0
    4.7563    1.7598    0.0000 C   0  0  0  0  0  0  0  0  0  0  0  0
    6.2335    1.4991    0.0000 H   0  0  0  0  0  0  0  0  0  0  0  0
    3.7913    0.6104    0.0000 C   0  0  0  0  0  0  0  0  0  0  0  0
    4.3043   -0.7991    0.0000 H   0  0  0  0  0  0  0  0  0  0  0  0
    2.3131    0.8705    0.0000 C   0  0  0  0  0  0  0  0  0  0  0  0
    1.3492   -0.2787    0.0000 H   0  0  0  0  0  0  0  0  0  0  0  0
    1.8001    2.2801    0.0000 C   0  0  0  0  0  0  0  0  0  0  0  0
    0.3229    2.5408    0.0000 H   0  0  0  0  0  0  0  0  0  0  0  0
    0.6702    7.4581    0.0000 C   0  0  0  0  0  0  0  0  0  0  0  0
   -0.8070    7.7186    0.0000 H   0  0  0  0  0  0  0  0  0  0  0  0
    0.1572    6.0485    0.0000 H   0  0  0  0  0  0  0  0  0  0  0  0
    0.6702    8.9581    0.0000 C   0  0  1  0  0  0  0  0  0  0  0  0
    2.1475    8.6976    0.0000 H   0  0  0  0  0  0  0  0  0  0  0  0
   -1.8759   10.4281    0.0000 C   0  0  2  0  0  0  0  0  0  0  0  0
   -2.8401   11.5772    0.0000 H   0  0  0  0  0  0  0  0  0  0  0  0
   -0.9117   11.5772    0.0000 C   0  0  0  0  0  0  0  0  0  0  0  0
    0.3873   12.3272    0.0000 H   0  0  0  0  0  0  0  0  0  0  0  0
    0.0525   10.4281    0.0000 H   0  0  0  0  0  0  0  0  0  0  0  0
   -1.4247   12.9867    0.0000 C   0  0  0  0  0  0  0  0  0  0  0  0
   -0.4596   14.1361    0.0000 C   0  0  0  0  0  0  0  0  0  0  0  0
    1.0175   13.8754    0.0000 H   0  0  0  0  0  0  0  0  0  0  0  0
   -0.9727   15.5456    0.0000 C   0  0  0  0  0  0  0  0  0  0  0  0
   -0.0087   16.6948    0.0000 H   0  0  0  0  0  0  0  0  0  0  0  0
   -2.4508   15.8058    0.0000 C   0  0  0  0  0  0  0  0  0  0  0  0
   -2.9638   17.2153    0.0000 H   0  0  0  0  0  0  0  0  0  0  0  0
   -3.4159   14.6564    0.0000 C   0  0  0  0  0  0  0  0  0  0  0  0
   -4.8930   14.9171    0.0000 H   0  0  0  0  0  0  0  0  0  0  0  0
   -2.9028   13.2468    0.0000 C   0  0  0  0  0  0  0  0  0  0  0  0
   -3.8668   12.0976    0.0000 H   0  0  0  0  0  0  0  0  0  0  0  0
   -3.5906    9.4381    0.0000 N   0  0  0  0  0  0  0  0  0  0  0  0
   -3.5906    7.9381    0.0000 H   0  0  0  0  0  0  0  0  0  0  0  0
   -4.8896   10.1881    0.0000 C   0  0  0  0  0  0  0  0  0  0  0  0
   -4.8896   11.6881    0.0000 O   0  0  0  0  0  0  0  0  0  0  0  0
   -6.1887    9.4381    0.0000 C   0  0  0  0  0  0  0  0  0  0  0  0
   -5.2245    8.2890    0.0000 H   0  0  0  0  0  0  0  0  0  0  0  0
   -7.1529    8.2890    0.0000 H   0  0  0  0  0  0  0  0  0  0  0  0
   -7.4877   10.1881    0.0000 O   0  0  0  0  0  0  0  0  0  0  0  0
   -8.7868    9.4381    0.0000 C   0  0  0  0  0  0  0  0  0  0  0  0
   -8.7752    7.9392    0.0000 C   0  0  0  0  0  0  0  0  0  0  0  0
   -7.4691    7.2015    0.0000 C   0  0  0  0  0  0  0  0  0  0  0  0
   -6.1772    7.9637    0.0000 H   0  0  0  0  0  0  0  0  0  0  0  0
   -8.4224    6.0434    0.0000 H   0  0  0  0  0  0  0  0  0  0  0  0
   -6.4942    6.0616    0.0000 H   0  0  0  0  0  0  0  0  0  0  0  0
  -10.0489    7.1848    0.0000 C   0  0  0  0  0  0  0  0  0  0  0  0
  -10.0368    5.6849    0.0000 H   0  0  0  0  0  0  0  0  0  0  0  0
  -11.3235    7.9123    0.0000 C   0  0  0  0  0  0  0  0  0  0  0  0
  -12.6076    7.1370    0.0000 H   0  0  0  0  0  0  0  0  0  0  0  0
  -11.3744    9.3986    0.0000 C   0  0  0  0  0  0  0  0  0  0  0  0
  -12.6973   10.1056    0.0000 H   0  0  0  0  0  0  0  0  0  0  0  0
  -10.0825   10.1996    0.0000 C   0  0  0  0  0  0  0  0  0  0  0  0
  -10.1003   11.6995    0.0000 C   0  0  0  0  0  0  0  0  0  0  0  0
  -11.4081   12.4341    0.0000 H   0  0  0  0  0  0  0  0  0  0  0  0
   -9.6040   13.1150    0.0000 H   0  0  0  0  0  0  0  0  0  0  0  0
   -8.6201   11.4565    0.0000 H   0  0  0  0  0  0  0  0  0  0  0  0
    1.1833   10.3676    0.0000 O   0  0  0  0  0  0  0  0  0  0  0  0
    2.6605   10.6281    0.0000 H   0  0  0  0  0  0  0  0  0  0  0  0
    8.8282    6.2281    0.0000 N   0  0  0  0  0  0  0  0  0  0  0  0
   10.1277    6.9789    0.0000 C   0  0  0  0  0  0  0  0  0  0  0  0
    9.1633    8.1278    0.0000 H   0  0  0  0  0  0  0  0  0  0  0  0
   11.0918    8.1281    0.0000 H   0  0  0  0  0  0  0  0  0  0  0  0
   11.4268    6.2289    0.0000 C   0  0  0  0  0  0  0  0  0  0  0  0
   11.9399    7.6384    0.0000 H   0  0  0  0  0  0  0  0  0  0  0  0
   12.9039    5.9681    0.0000 H   0  0  0  0  0  0  0  0  0  0  0  0
   11.4263    4.7281    0.0000 C   0  0  0  0  0  0  0  0  0  0  0  0
   12.9035    4.9884    0.0000 H   0  0  0  0  0  0  0  0  0  0  0  0
   11.9395    3.3186    0.0000 H   0  0  0  0  0  0  0  0  0  0  0  0
   10.1268    3.9773    0.0000 N   0  0  0  0  0  0  0  0  0  0  0  0
   10.1270    2.4773    0.0000 H   0  0  0  0  0  0  0  0  0  0  0  0
    8.8277    4.7273    0.0000 C   0  0  0  0  0  0  0  0  0  0  0  0
    7.5286    3.9775    0.0000 O   0  0  0  0  0  0  0  0  0  0  0  0
    6.2301    9.2281    0.0000 C   0  0  0  0  0  0  0  0  0  0  0  0
    6.2301   10.7281    0.0000 H   0  0  0  0  0  0  0  0  0  0  0  0
    5.7171    7.8185    0.0000 H   0  0  0  0  0  0  0  0  0  0  0  0
    4.7529    9.4886    0.0000 H   0  0  0  0  0  0  0  0  0  0  0  0
  1  2  1  0  0  0  0 
  1  3  1  0  0  0  0 
  1  4  1  0  0  0  0 
  1  5  1  0  0  0  0 
  5  6  2  0  0  0  0 
  6  7  1  0  0  0  0 
  7  8  2  0  0  0  0 
  7  9  1  0  0  0  0 
  9 10  1  0  0  0  0 
 11  9  1  1  0  0  0 
 11 12  1  6  0  0  0 
 11 13  1  0  0  0  0 
 13 14  1  0  0  0  0 
 13 15  1  0  0  0  0 
 13 16  1  0  0  0  0 
 16 17  2  0  0  0  0 
 17 18  1  0  0  0  0 
 17 19  1  0  0  0  0 
 19 20  1  0  0  0  0 
 19 21  2  0  0  0  0 
 21 22  1  0  0  0  0 
 21 23  1  0  0  0  0 
 23 24  1  0  0  0  0 
 23 25  2  0  0  0  0 
 16 25  1  0  0  0  0 
 25 26  1  0  0  0  0 
 11 27  1  0  0  0  0 
 27 28  1  0  0  0  0 
 27 29  1  0  0  0  0 
 27 30  1  0  0  0  0 
 30 31  1  6  0  0  0 
 30 32  1  0  0  0  0 
 32 33  1  6  0  0  0 
 32 34  1  0  0  0  0 
 34 35  1  0  0  0  0 
 34 36  1  0  0  0  0 
 34 37  1  0  0  0  0 
 37 38  2  0  0  0  0 
 38 39  1  0  0  0  0 
 38 40  1  0  0  0  0 
 40 41  1  0  0  0  0 
 40 42  2  0  0  0  0 
 42 43  1  0  0  0  0 
 42 44  1  0  0  0  0 
 44 45  1  0  0  0  0 
 44 46  2  0  0  0  0 
 37 46  1  0  0  0  0 
 46 47  1  0  0  0  0 
 32 48  1  1  0  0  0 
 48 49  1  0  0  0  0 
 48 50  1  0  0  0  0 
 50 51  2  0  0  0  0 
 50 52  1  0  0  0  0 
 52 53  1  0  0  0  0 
 52 54  1  0  0  0  0 
 52 55  1  0  0  0  0 
 55 56  1  0  0  0  0 
 56 57  2  0  0  0  0 
 57 58  1  0  0  0  0 
 58 59  1  0  0  0  0 
 58 60  1  0  0  0  0 
 58 61  1  0  0  0  0 
 57 62  1  0  0  0  0 
 62 63  1  0  0  0  0 
 62 64  2  0  0  0  0 
 64 65  1  0  0  0  0 
 64 66  1  0  0  0  0 
 66 67  1  0  0  0  0 
 66 68  2  0  0  0  0 
 56 68  1  0  0  0  0 
 68 69  1  0  0  0  0 
 69 70  1  0  0  0  0 
 69 71  1  0  0  0  0 
 69 72  1  0  0  0  0 
 30 73  1  1  0  0  0 
 73 74  1  0  0  0  0 
  6 75  1  0  0  0  0 
 75 76  1  0  0  0  0 
 76 77  1  0  0  0  0 
 76 78  1  0  0  0  0 
 76 79  1  0  0  0  0 
 79 80  1  0  0  0  0 
 79 81  1  0  0  0  0 
 79 82  1  0  0  0  0 
 82 83  1  0  0  0  0 
 82 84  1  0  0  0  0 
 82 85  1  0  0  0  0 
 85 86  1  0  0  0  0 
 85 87  1  0  0  0  0 
 75 87  1  0  0  0  0 
 87 88  2  0  0  0  0 
  5 89  1  0  0  0  0 
 89 90  1  0  0  0  0 
 89 91  1  0  0  0  0 
 89 92  1  0  0  0  0 
M  END
> <Rank>
60

> <Priority_score>
0.0128

> <Reaction_type>
alkyl dehydrogenation

> <Parent_ID>
63

> <Parent_InChI>
InChI=1S/C37H48N4O5/c1-25(2)34(41-20-12-19-38-37(41)45)36(44)39-30(21-28-15-7-5-8-16-28)23-32(42)31(22-29-17-9-6-10-18-29)40-33(43)24-46-35-26(3)13-11-14-27(35)4/h5-11,13-18,25,30-32,34,42H,12,19-24H2,1-4H3,(H,38,45)(H,39,44)(H,40,43)

> <Parent_SMILES>
Cc1cccc(C)c1OCC(=O)N[C@@H](Cc1ccccc1)[C@@H](O)C[C@H](Cc1ccccc1)NC(=O)[C@H](C(C)C)N1CCCNC1=O

$$$$
Molecule 63_metabolite 65
  CDK     0516241031

 92 95  0  0  0  0  0  0  0  0999 V2000
   -8.1186   11.5194    0.0000 C   0  0  0  0  0  0  0  0  0  0  0  0
   -7.8581   12.9966    0.0000 H   0  0  0  0  0  0  0  0  0  0  0  0
   -9.5281   12.0324    0.0000 H   0  0  0  0  0  0  0  0  0  0  0  0
   -8.8686   10.2204    0.0000 H   0  0  0  0  0  0  0  0  0  0  0  0
   -6.6018   10.2467    0.0000 C   0  0  0  0  0  0  0  0  0  0  0  0
   -5.1923    9.7336    0.0000 H   0  0  0  0  0  0  0  0  0  0  0  0
   -5.8518   11.5457    0.0000 C   0  0  0  0  0  0  0  0  0  0  0  0
   -4.3518   11.5457    0.0000 H   0  0  0  0  0  0  0  0  0  0  0  0
   -7.2613   12.0587    0.0000 H   0  0  0  0  0  0  0  0  0  0  0  0
   -5.5913   13.0229    0.0000 H   0  0  0  0  0  0  0  0  0  0  0  0
   -6.8623    8.7695    0.0000 C   0  0  1  0  0  0  0  0  0  0  0  0
   -8.2718    9.2825    0.0000 H   0  0  0  0  0  0  0  0  0  0  0  0
   -4.8823    8.7695    0.0000 C   0  0  0  0  0  0  0  0  0  0  0  0
   -4.1323   10.0685    0.0000 O   0  0  0  0  0  0  0  0  0  0  0  0
   -4.1323    7.4704    0.0000 N   0  0  0  0  0  0  0  0  0  0  0  0
   -4.8823    6.1714    0.0000 H   0  0  0  0  0  0  0  0  0  0  0  0
   -2.6323    7.4704    0.0000 C   0  0  0  0  0  0  0  0  0  0  0  0
   -1.4023    5.3400    0.0000 C   0  0  0  0  0  0  0  0  0  0  0  0
   -2.1523    4.0410    0.0000 H   0  0  0  0  0  0  0  0  0  0  0  0
    0.0977    5.3400    0.0000 C   0  0  1  0  0  0  0  0  0  0  0  0
   -0.1627    6.8172    0.0000 H   0  0  0  0  0  0  0  0  0  0  0  0
    1.3277    3.2096    0.0000 C   0  0  2  0  0  0  0  0  0  0  0  0
    1.5882    1.7324    0.0000 H   0  0  0  0  0  0  0  0  0  0  0  0
   -0.0818    2.6965    0.0000 C   0  0  0  0  0  0  0  0  0  0  0  0
   -1.5818    2.6965    0.0000 H   0  0  0  0  0  0  0  0  0  0  0  0
   -0.3423    4.1738    0.0000 H   0  0  0  0  0  0  0  0  0  0  0  0
   -0.4256    0.7466    0.0000 C   0  0  0  0  0  0  0  0  0  0  0  0
   -1.8361    0.2338    0.0000 C   0  0  0  0  0  0  0  0  0  0  0  0
   -2.9850    1.1981    0.0000 H   0  0  0  0  0  0  0  0  0  0  0  0
   -2.0966   -1.2434    0.0000 C   0  0  0  0  0  0  0  0  0  0  0  0
   -3.5060   -1.7567    0.0000 H   0  0  0  0  0  0  0  0  0  0  0  0
   -0.9466   -2.2078    0.0000 C   0  0  0  0  0  0  0  0  0  0  0  0
   -1.2070   -3.6850    0.0000 H   0  0  0  0  0  0  0  0  0  0  0  0
    0.4639   -1.6949    0.0000 C   0  0  0  0  0  0  0  0  0  0  0  0
    1.6128   -2.6593    0.0000 H   0  0  0  0  0  0  0  0  0  0  0  0
    0.7244   -0.2177    0.0000 C   0  0  0  0  0  0  0  0  0  0  0  0
    2.1338    0.2955    0.0000 H   0  0  0  0  0  0  0  0  0  0  0  0
    2.8277    3.2096    0.0000 N   0  0  0  0  0  0  0  0  0  0  0  0
    3.5777    4.5086    0.0000 H   0  0  0  0  0  0  0  0  0  0  0  0
    3.5777    1.9105    0.0000 C   0  0  0  0  0  0  0  0  0  0  0  0
    2.8277    0.6115    0.0000 O   0  0  0  0  0  0  0  0  0  0  0  0
    5.0777    1.9105    0.0000 C   0  0  0  0  0  0  0  0  0  0  0  0
    4.8173    3.3878    0.0000 H   0  0  0  0  0  0  0  0  0  0  0  0
    6.4873    2.4236    0.0000 H   0  0  0  0  0  0  0  0  0  0  0  0
    5.8277    0.6115    0.0000 O   0  0  0  0  0  0  0  0  0  0  0  0
    7.3277    0.6115    0.0000 C   0  0  0  0  0  0  0  0  0  0  0  0
    8.0672    1.9154    0.0000 C   0  0  0  0  0  0  0  0  0  0  0  0
    7.3049    3.2073    0.0000 C   0  0  0  0  0  0  0  0  0  0  0  0
    5.8050    3.1931    0.0000 H   0  0  0  0  0  0  0  0  0  0  0  0
    8.7096    3.7336    0.0000 H   0  0  0  0  0  0  0  0  0  0  0  0
    7.0306    4.6820    0.0000 H   0  0  0  0  0  0  0  0  0  0  0  0
    9.5474    1.9318    0.0000 C   0  0  0  0  0  0  0  0  0  0  0  0
   10.2869    3.2369    0.0000 H   0  0  0  0  0  0  0  0  0  0  0  0
   10.2875    0.6645    0.0000 C   0  0  0  0  0  0  0  0  0  0  0  0
   11.7872    0.6938    0.0000 H   0  0  0  0  0  0  0  0  0  0  0  0
    9.5884   -0.6481    0.0000 C   0  0  0  0  0  0  0  0  0  0  0  0
   10.3806   -1.9219    0.0000 H   0  0  0  0  0  0  0  0  0  0  0  0
    8.0691   -0.6959    0.0000 C   0  0  0  0  0  0  0  0  0  0  0  0
    7.3346   -2.0037    0.0000 C   0  0  0  0  0  0  0  0  0  0  0  0
    8.0999   -3.2938    0.0000 H   0  0  0  0  0  0  0  0  0  0  0  0
    6.1970   -2.9814    0.0000 H   0  0  0  0  0  0  0  0  0  0  0  0
    6.1742   -1.0532    0.0000 H   0  0  0  0  0  0  0  0  0  0  0  0
    1.5073    5.8530    0.0000 O   0  0  0  0  0  0  0  0  0  0  0  0
    1.7677    7.3302    0.0000 H   0  0  0  0  0  0  0  0  0  0  0  0
   -1.4023    9.6008    0.0000 C   0  0  0  0  0  0  0  0  0  0  0  0
   -1.1418   11.0781    0.0000 H   0  0  0  0  0  0  0  0  0  0  0  0
   -2.8118   10.1139    0.0000 H   0  0  0  0  0  0  0  0  0  0  0  0
    0.0977    9.6008    0.0000 C   0  0  0  0  0  0  0  0  0  0  0  0
    0.8477   10.9008    0.0000 C   0  0  0  0  0  0  0  0  0  0  0  0
    0.0975   12.1998    0.0000 H   0  0  0  0  0  0  0  0  0  0  0  0
    2.3477   10.9008    0.0000 C   0  0  0  0  0  0  0  0  0  0  0  0
    3.0979   12.1998    0.0000 H   0  0  0  0  0  0  0  0  0  0  0  0
    3.0977    9.6008    0.0000 C   0  0  0  0  0  0  0  0  0  0  0  0
    4.5977    9.6008    0.0000 H   0  0  0  0  0  0  0  0  0  0  0  0
    2.3477    8.3008    0.0000 C   0  0  0  0  0  0  0  0  0  0  0  0
    3.0979    7.0019    0.0000 H   0  0  0  0  0  0  0  0  0  0  0  0
    0.8477    8.3008    0.0000 C   0  0  0  0  0  0  0  0  0  0  0  0
   -1.6986    6.8313    0.0000 H   0  0  0  0  0  0  0  0  0  0  0  0
   -7.6123    7.4704    0.0000 N   0  0  0  0  0  0  0  0  0  0  0  0
   -6.8614    6.1709    0.0000 C   0  0  0  0  0  0  0  0  0  0  0  0
   -5.7126    7.1353    0.0000 H   0  0  0  0  0  0  0  0  0  0  0  0
   -5.7123    5.2068    0.0000 H   0  0  0  0  0  0  0  0  0  0  0  0
   -7.6114    4.8719    0.0000 C   0  0  0  0  0  0  0  0  0  0  0  0
   -6.2019    4.3587    0.0000 H   0  0  0  0  0  0  0  0  0  0  0  0
   -7.8722    3.3947    0.0000 H   0  0  0  0  0  0  0  0  0  0  0  0
   -9.1123    4.8723    0.0000 C   0  0  0  0  0  0  0  0  0  0  0  0
   -8.8520    3.3951    0.0000 H   0  0  0  0  0  0  0  0  0  0  0  0
  -10.5217    4.3592    0.0000 H   0  0  0  0  0  0  0  0  0  0  0  0
   -9.8631    6.1719    0.0000 N   0  0  0  0  0  0  0  0  0  0  0  0
  -11.3631    6.1716    0.0000 H   0  0  0  0  0  0  0  0  0  0  0  0
   -9.1131    7.4709    0.0000 C   0  0  0  0  0  0  0  0  0  0  0  0
   -9.8629    8.7701    0.0000 O   0  0  0  0  0  0  0  0  0  0  0  0
  1  2  1  0  0  0  0 
  1  3  1  0  0  0  0 
  1  4  1  0  0  0  0 
  1  5  1  0  0  0  0 
  5  6  1  0  0  0  0 
  5  7  1  0  0  0  0 
  7  8  1  0  0  0  0 
  7  9  1  0  0  0  0 
  7 10  1  0  0  0  0 
  5 11  1  0  0  0  0 
 11 12  1  6  0  0  0 
 11 13  1  0  0  0  0 
 13 14  2  0  0  0  0 
 13 15  1  0  0  0  0 
 15 16  1  0  0  0  0 
 15 17  1  0  0  0  0 
 17 18  2  0  0  0  0 
 18 19  1  4  0  0  0 
 18 20  1  0  0  0  0 
 20 21  1  1  0  0  0 
 20 22  1  0  0  0  0 
 22 23  1  6  0  0  0 
 22 24  1  0  0  0  0 
 24 25  1  0  0  0  0 
 24 26  1  0  0  0  0 
 24 27  1  0  0  0  0 
 27 28  2  0  0  0  0 
 28 29  1  0  0  0  0 
 28 30  1  0  0  0  0 
 30 31  1  0  0  0  0 
 30 32  2  0  0  0  0 
 32 33  1  0  0  0  0 
 32 34  1  0  0  0  0 
 34 35  1  0  0  0  0 
 34 36  2  0  0  0  0 
 27 36  1  0  0  0  0 
 36 37  1  0  0  0  0 
 22 38  1  1  0  0  0 
 38 39  1  0  0  0  0 
 38 40  1  0  0  0  0 
 40 41  2  0  0  0  0 
 40 42  1  0  0  0  0 
 42 43  1  0  0  0  0 
 42 44  1  0  0  0  0 
 42 45  1  0  0  0  0 
 45 46  1  0  0  0  0 
 46 47  2  0  0  0  0 
 47 48  1  0  0  0  0 
 48 49  1  0  0  0  0 
 48 50  1  0  0  0  0 
 48 51  1  0  0  0  0 
 47 52  1  0  0  0  0 
 52 53  1  0  0  0  0 
 52 54  2  0  0  0  0 
 54 55  1  0  0  0  0 
 54 56  1  0  0  0  0 
 56 57  1  0  0  0  0 
 56 58  2  0  0  0  0 
 46 58  1  0  0  0  0 
 58 59  1  0  0  0  0 
 59 60  1  0  0  0  0 
 59 61  1  0  0  0  0 
 59 62  1  0  0  0  0 
 20 63  1  6  0  0  0 
 63 64  1  0  0  0  0 
 17 65  1  0  0  0  0 
 65 66  1  0  0  0  0 
 65 67  1  0  0  0  0 
 65 68  1  0  0  0  0 
 68 69  2  0  0  0  0 
 69 70  1  0  0  0  0 
 69 71  1  0  0  0  0 
 71 72  1  0  0  0  0 
 71 73  2  0  0  0  0 
 73 74  1  0  0  0  0 
 73 75  1  0  0  0  0 
 75 76  1  0  0  0  0 
 75 77  2  0  0  0  0 
 68 77  1  0  0  0  0 
 77 78  1  0  0  0  0 
 11 79  1  1  0  0  0 
 79 80  1  0  0  0  0 
 80 81  1  0  0  0  0 
 80 82  1  0  0  0  0 
 80 83  1  0  0  0  0 
 83 84  1  0  0  0  0 
 83 85  1  0  0  0  0 
 83 86  1  0  0  0  0 
 86 87  1  0  0  0  0 
 86 88  1  0  0  0  0 
 86 89  1  0  0  0  0 
 89 90  1  0  0  0  0 
 89 91  1  0  0  0  0 
 79 91  1  0  0  0  0 
 91 92  2  0  0  0  0 
M  END
> <Rank>
65

> <Priority_score>
0.012

> <Reaction_type>
alkyl dehydrogenation

> <Parent_ID>
63

> <Parent_InChI>
InChI=1S/C37H48N4O5/c1-25(2)34(41-20-12-19-38-37(41)45)36(44)39-30(21-28-15-7-5-8-16-28)23-32(42)31(22-29-17-9-6-10-18-29)40-33(43)24-46-35-26(3)13-11-14-27(35)4/h5-11,13-18,25,30-32,34,42H,12,19-24H2,1-4H3,(H,38,45)(H,39,44)(H,40,43)

> <Parent_SMILES>
Cc1cccc(C)c1OCC(=O)N[C@@H](Cc1ccccc1)[C@@H](O)C[C@H](Cc1ccccc1)NC(=O)[C@H](C(C)C)N1CCCNC1=O

$$$$
Molecule 63_metabolite 66
  CDK     0516241031

 92 95  0  0  0  0  0  0  0  0999 V2000
    4.0442    7.0668    0.0000 C   0  0  0  0  0  0  0  0  0  0  0  0
    5.5214    6.8063    0.0000 H   0  0  0  0  0  0  0  0  0  0  0  0
    4.5572    8.4763    0.0000 H   0  0  0  0  0  0  0  0  0  0  0  0
    2.7452    7.8168    0.0000 H   0  0  0  0  0  0  0  0  0  0  0  0
    2.7715    5.5500    0.0000 C   0  0  0  0  0  0  0  0  0  0  0  0
    2.2585    4.1405    0.0000 H   0  0  0  0  0  0  0  0  0  0  0  0
    4.0705    4.8000    0.0000 C   0  0  0  0  0  0  0  0  0  0  0  0
    4.0705    3.3000    0.0000 H   0  0  0  0  0  0  0  0  0  0  0  0
    4.5836    6.2095    0.0000 H   0  0  0  0  0  0  0  0  0  0  0  0
    5.5477    4.5395    0.0000 H   0  0  0  0  0  0  0  0  0  0  0  0
    1.2943    5.8105    0.0000 C   0  0  1  0  0  0  0  0  0  0  0  0
    1.8073    7.2200    0.0000 H   0  0  0  0  0  0  0  0  0  0  0  0
    1.2943    3.8305    0.0000 C   0  0  0  0  0  0  0  0  0  0  0  0
    2.5933    3.0805    0.0000 O   0  0  0  0  0  0  0  0  0  0  0  0
   -0.0048    3.0805    0.0000 N   0  0  0  0  0  0  0  0  0  0  0  0
   -1.3038    3.8305    0.0000 H   0  0  0  0  0  0  0  0  0  0  0  0
   -0.0048    1.5805    0.0000 C   0  0  1  0  0  0  0  0  0  0  0  0
   -1.4820    1.8409    0.0000 H   0  0  0  0  0  0  0  0  0  0  0  0
   -0.5178    0.1709    0.0000 C   0  0  0  0  0  0  0  0  0  0  0  0
    0.9594   -0.0895    0.0000 H   0  0  0  0  0  0  0  0  0  0  0  0
   -0.5178   -1.3291    0.0000 H   0  0  0  0  0  0  0  0  0  0  0  0
   -1.9950   -0.0895    0.0000 C   0  0  0  0  0  0  0  0  0  0  0  0
   -2.9594    1.0605    0.0000 C   0  0  0  0  0  0  0  0  0  0  0  0
   -2.4461    2.4699    0.0000 H   0  0  0  0  0  0  0  0  0  0  0  0
   -4.4366    0.8000    0.0000 C   0  0  0  0  0  0  0  0  0  0  0  0
   -5.4009    1.9489    0.0000 H   0  0  0  0  0  0  0  0  0  0  0  0
   -4.9494   -0.6105    0.0000 C   0  0  0  0  0  0  0  0  0  0  0  0
   -6.4266   -0.8710    0.0000 H   0  0  0  0  0  0  0  0  0  0  0  0
   -3.9851   -1.7605    0.0000 C   0  0  0  0  0  0  0  0  0  0  0  0
   -4.4983   -3.1700    0.0000 H   0  0  0  0  0  0  0  0  0  0  0  0
   -2.5079   -1.5000    0.0000 C   0  0  0  0  0  0  0  0  0  0  0  0
   -1.5435   -2.6489    0.0000 H   0  0  0  0  0  0  0  0  0  0  0  0
    1.7100    0.5905    0.0000 C   0  0  0  0  0  0  0  0  0  0  0  0
    3.0090    1.3405    0.0000 H   0  0  0  0  0  0  0  0  0  0  0  0
    1.7100   -0.9095    0.0000 C   0  0  0  0  0  0  0  0  0  0  0  0
    3.4247   -1.8995    0.0000 C   0  0  2  0  0  0  0  0  0  0  0  0
    4.3889   -3.0486    0.0000 H   0  0  0  0  0  0  0  0  0  0  0  0
    2.1520   -3.4163    0.0000 C   0  0  0  0  0  0  0  0  0  0  0  0
    0.8529   -4.1663    0.0000 H   0  0  0  0  0  0  0  0  0  0  0  0
    1.1878   -2.2672    0.0000 H   0  0  0  0  0  0  0  0  0  0  0  0
    2.6650   -4.8258    0.0000 C   0  0  0  0  0  0  0  0  0  0  0  0
    1.6999   -5.9752    0.0000 C   0  0  0  0  0  0  0  0  0  0  0  0
    0.2228   -5.7145    0.0000 H   0  0  0  0  0  0  0  0  0  0  0  0
    2.2130   -7.3848    0.0000 C   0  0  0  0  0  0  0  0  0  0  0  0
    1.2490   -8.5340    0.0000 H   0  0  0  0  0  0  0  0  0  0  0  0
    3.6911   -7.6449    0.0000 C   0  0  0  0  0  0  0  0  0  0  0  0
    4.2041   -9.0545    0.0000 H   0  0  0  0  0  0  0  0  0  0  0  0
    4.6562   -6.4955    0.0000 C   0  0  0  0  0  0  0  0  0  0  0  0
    6.1333   -6.7562    0.0000 H   0  0  0  0  0  0  0  0  0  0  0  0
    4.1431   -5.0860    0.0000 C   0  0  0  0  0  0  0  0  0  0  0  0
    5.1071   -3.9368    0.0000 H   0  0  0  0  0  0  0  0  0  0  0  0
    4.7237   -1.1495    0.0000 N   0  0  0  0  0  0  0  0  0  0  0  0
    4.7237    0.3505    0.0000 H   0  0  0  0  0  0  0  0  0  0  0  0
    6.0228   -1.8995    0.0000 C   0  0  0  0  0  0  0  0  0  0  0  0
    6.0228   -3.3995    0.0000 O   0  0  0  0  0  0  0  0  0  0  0  0
    7.3218   -1.1495    0.0000 C   0  0  0  0  0  0  0  0  0  0  0  0
    6.3576   -0.0005    0.0000 H   0  0  0  0  0  0  0  0  0  0  0  0
    8.2860   -0.0005    0.0000 H   0  0  0  0  0  0  0  0  0  0  0  0
    8.6208   -1.8995    0.0000 O   0  0  0  0  0  0  0  0  0  0  0  0
    9.9199   -1.1495    0.0000 C   0  0  0  0  0  0  0  0  0  0  0  0
    9.9083    0.3494    0.0000 C   0  0  0  0  0  0  0  0  0  0  0  0
    8.6023    1.0871    0.0000 C   0  0  0  0  0  0  0  0  0  0  0  0
    7.3104    0.3249    0.0000 H   0  0  0  0  0  0  0  0  0  0  0  0
    9.5556    2.2452    0.0000 H   0  0  0  0  0  0  0  0  0  0  0  0
    7.6273    2.2270    0.0000 H   0  0  0  0  0  0  0  0  0  0  0  0
   11.1820    1.1037    0.0000 C   0  0  0  0  0  0  0  0  0  0  0  0
   11.1699    2.6037    0.0000 H   0  0  0  0  0  0  0  0  0  0  0  0
   12.4567    0.3762    0.0000 C   0  0  0  0  0  0  0  0  0  0  0  0
   13.7408    1.1515    0.0000 H   0  0  0  0  0  0  0  0  0  0  0  0
   12.5075   -1.1101    0.0000 C   0  0  0  0  0  0  0  0  0  0  0  0
   13.8304   -1.8171    0.0000 H   0  0  0  0  0  0  0  0  0  0  0  0
   11.2157   -1.9110    0.0000 C   0  0  0  0  0  0  0  0  0  0  0  0
   11.2334   -3.4109    0.0000 C   0  0  0  0  0  0  0  0  0  0  0  0
   12.5412   -4.1455    0.0000 H   0  0  0  0  0  0  0  0  0  0  0  0
   10.7371   -4.8265    0.0000 H   0  0  0  0  0  0  0  0  0  0  0  0
    9.7532   -3.1680    0.0000 H   0  0  0  0  0  0  0  0  0  0  0  0
    0.4109   -1.6595    0.0000 O   0  0  0  0  0  0  0  0  0  0  0  0
    0.4109   -3.1595    0.0000 H   0  0  0  0  0  0  0  0  0  0  0  0
   -0.0048    6.5605    0.0000 N   0  0  0  0  0  0  0  0  0  0  0  0
   -1.3043    5.8096    0.0000 C   0  0  0  0  0  0  0  0  0  0  0  0
   -0.3399    4.6608    0.0000 H   0  0  0  0  0  0  0  0  0  0  0  0
   -2.2683    4.6605    0.0000 H   0  0  0  0  0  0  0  0  0  0  0  0
   -2.6033    6.5596    0.0000 C   0  0  0  0  0  0  0  0  0  0  0  0
   -3.1165    5.1501    0.0000 H   0  0  0  0  0  0  0  0  0  0  0  0
   -4.0805    6.8204    0.0000 H   0  0  0  0  0  0  0  0  0  0  0  0
   -2.6028    8.0605    0.0000 C   0  0  0  0  0  0  0  0  0  0  0  0
   -4.0801    7.8001    0.0000 H   0  0  0  0  0  0  0  0  0  0  0  0
   -3.1160    9.4699    0.0000 H   0  0  0  0  0  0  0  0  0  0  0  0
   -1.3033    8.8113    0.0000 N   0  0  0  0  0  0  0  0  0  0  0  0
   -1.3036   10.3113    0.0000 H   0  0  0  0  0  0  0  0  0  0  0  0
   -0.0043    8.0613    0.0000 C   0  0  0  0  0  0  0  0  0  0  0  0
    1.2949    8.8111    0.0000 O   0  0  0  0  0  0  0  0  0  0  0  0
  1  2  1  0  0  0  0 
  1  3  1  0  0  0  0 
  1  4  1  0  0  0  0 
  1  5  1  0  0  0  0 
  5  6  1  0  0  0  0 
  5  7  1  0  0  0  0 
  7  8  1  0  0  0  0 
  7  9  1  0  0  0  0 
  7 10  1  0  0  0  0 
  5 11  1  0  0  0  0 
 11 12  1  6  0  0  0 
 11 13  1  0  0  0  0 
 13 14  2  0  0  0  0 
 13 15  1  0  0  0  0 
 15 16  1  0  0  0  0 
 17 15  1  6  0  0  0 
 17 18  1  1  0  0  0 
 17 19  1  0  0  0  0 
 19 20  1  0  0  0  0 
 19 21  1  0  0  0  0 
 19 22  1  0  0  0  0 
 22 23  2  0  0  0  0 
 23 24  1  0  0  0  0 
 23 25  1  0  0  0  0 
 25 26  1  0  0  0  0 
 25 27  2  0  0  0  0 
 27 28  1  0  0  0  0 
 27 29  1  0  0  0  0 
 29 30  1  0  0  0  0 
 29 31  2  0  0  0  0 
 22 31  1  0  0  0  0 
 31 32  1  0  0  0  0 
 17 33  1  0  0  0  0 
 33 34  1  4  0  0  0 
 33 35  2  0  0  0  0 
 35 36  1  0  0  0  0 
 36 37  1  6  0  0  0 
 36 38  1  0  0  0  0 
 38 39  1  0  0  0  0 
 38 40  1  0  0  0  0 
 38 41  1  0  0  0  0 
 41 42  2  0  0  0  0 
 42 43  1  0  0  0  0 
 42 44  1  0  0  0  0 
 44 45  1  0  0  0  0 
 44 46  2  0  0  0  0 
 46 47  1  0  0  0  0 
 46 48  1  0  0  0  0 
 48 49  1  0  0  0  0 
 48 50  2  0  0  0  0 
 41 50  1  0  0  0  0 
 50 51  1  0  0  0  0 
 36 52  1  1  0  0  0 
 52 53  1  0  0  0  0 
 52 54  1  0  0  0  0 
 54 55  2  0  0  0  0 
 54 56  1  0  0  0  0 
 56 57  1  0  0  0  0 
 56 58  1  0  0  0  0 
 56 59  1  0  0  0  0 
 59 60  1  0  0  0  0 
 60 61  2  0  0  0  0 
 61 62  1  0  0  0  0 
 62 63  1  0  0  0  0 
 62 64  1  0  0  0  0 
 62 65  1  0  0  0  0 
 61 66  1  0  0  0  0 
 66 67  1  0  0  0  0 
 66 68  2  0  0  0  0 
 68 69  1  0  0  0  0 
 68 70  1  0  0  0  0 
 70 71  1  0  0  0  0 
 70 72  2  0  0  0  0 
 60 72  1  0  0  0  0 
 72 73  1  0  0  0  0 
 73 74  1  0  0  0  0 
 73 75  1  0  0  0  0 
 73 76  1  0  0  0  0 
 35 77  1  0  0  0  0 
 77 78  1  0  0  0  0 
 11 79  1  1  0  0  0 
 79 80  1  0  0  0  0 
 80 81  1  0  0  0  0 
 80 82  1  0  0  0  0 
 80 83  1  0  0  0  0 
 83 84  1  0  0  0  0 
 83 85  1  0  0  0  0 
 83 86  1  0  0  0  0 
 86 87  1  0  0  0  0 
 86 88  1  0  0  0  0 
 86 89  1  0  0  0  0 
 89 90  1  0  0  0  0 
 89 91  1  0  0  0  0 
 79 91  1  0  0  0  0 
 91 92  2  0  0  0  0 
M  END
> <Rank>
65

> <Priority_score>
0.012

> <Reaction_type>
alkyl dehydrogenation

> <Parent_ID>
63

> <Parent_InChI>
InChI=1S/C37H48N4O5/c1-25(2)34(41-20-12-19-38-37(41)45)36(44)39-30(21-28-15-7-5-8-16-28)23-32(42)31(22-29-17-9-6-10-18-29)40-33(43)24-46-35-26(3)13-11-14-27(35)4/h5-11,13-18,25,30-32,34,42H,12,19-24H2,1-4H3,(H,38,45)(H,39,44)(H,40,43)

> <Parent_SMILES>
Cc1cccc(C)c1OCC(=O)N[C@@H](Cc1ccccc1)[C@@H](O)C[C@H](Cc1ccccc1)NC(=O)[C@H](C(C)C)N1CCCNC1=O

$$$$
Molecule 63_metabolite 67
  CDK     0516241031

 92 95  0  0  0  0  0  0  0  0999 V2000
   -0.2236    4.1900    0.0000 C   0  0  0  0  0  0  0  0  0  0  0  0
   -0.7366    5.5996    0.0000 H   0  0  0  0  0  0  0  0  0  0  0  0
   -1.7008    3.9295    0.0000 H   0  0  0  0  0  0  0  0  0  0  0  0
   -0.2236    2.6900    0.0000 H   0  0  0  0  0  0  0  0  0  0  0  0
    2.1991    3.7628    0.0000 C   0  0  0  0  0  0  0  0  0  0  0  0
    3.6763    4.0233    0.0000 H   0  0  0  0  0  0  0  0  0  0  0  0
    2.1991    5.2628    0.0000 C   0  0  0  0  0  0  0  0  0  0  0  0
    3.4981    6.0128    0.0000 H   0  0  0  0  0  0  0  0  0  0  0  0
    0.7219    5.0024    0.0000 H   0  0  0  0  0  0  0  0  0  0  0  0
    1.6860    6.6724    0.0000 H   0  0  0  0  0  0  0  0  0  0  0  0
    2.8763    1.9022    0.0000 C   0  0  1  0  0  0  0  0  0  0  0  0
    1.3991    1.6418    0.0000 H   0  0  0  0  0  0  0  0  0  0  0  0
    4.5910    2.8922    0.0000 C   0  0  0  0  0  0  0  0  0  0  0  0
    4.5910    4.3922    0.0000 O   0  0  0  0  0  0  0  0  0  0  0  0
    5.8900    2.1422    0.0000 N   0  0  0  0  0  0  0  0  0  0  0  0
    5.8900    0.6422    0.0000 H   0  0  0  0  0  0  0  0  0  0  0  0
    7.1891    2.8922    0.0000 C   0  0  0  0  0  0  0  0  0  0  0  0
    7.1891    4.3922    0.0000 C   0  0  0  0  0  0  0  0  0  0  0  0
    5.8900    5.1422    0.0000 H   0  0  0  0  0  0  0  0  0  0  0  0
    8.4881    5.1422    0.0000 C   0  0  0  0  0  0  0  0  0  0  0  0
    9.7876    4.3914    0.0000 C   0  0  0  0  0  0  0  0  0  0  0  0
    9.7874    2.8914    0.0000 H   0  0  0  0  0  0  0  0  0  0  0  0
   11.0867    5.1414    0.0000 C   0  0  0  0  0  0  0  0  0  0  0  0
   12.3858    4.3916    0.0000 H   0  0  0  0  0  0  0  0  0  0  0  0
   11.0862    6.6422    0.0000 C   0  0  0  0  0  0  0  0  0  0  0  0
   12.3852    7.3922    0.0000 H   0  0  0  0  0  0  0  0  0  0  0  0
    9.7867    7.3931    0.0000 C   0  0  0  0  0  0  0  0  0  0  0  0
    9.7869    8.8931    0.0000 H   0  0  0  0  0  0  0  0  0  0  0  0
    8.4876    6.6431    0.0000 C   0  0  0  0  0  0  0  0  0  0  0  0
    7.1885    7.3929    0.0000 H   0  0  0  0  0  0  0  0  0  0  0  0
    8.4881    2.1422    0.0000 C   0  0  0  0  0  0  0  0  0  0  0  0
    9.9653    1.8818    0.0000 H   0  0  0  0  0  0  0  0  0  0  0  0
    9.0012    3.5518    0.0000 H   0  0  0  0  0  0  0  0  0  0  0  0
    8.4881    0.6422    0.0000 C   0  0  1  0  0  0  0  0  0  0  0  0
    7.0109    0.9027    0.0000 H   0  0  0  0  0  0  0  0  0  0  0  0
   11.0342   -0.8278    0.0000 C   0  0  2  0  0  0  0  0  0  0  0  0
   11.9984   -1.9768    0.0000 H   0  0  0  0  0  0  0  0  0  0  0  0
   10.0701   -1.9768    0.0000 C   0  0  0  0  0  0  0  0  0  0  0  0
    8.7710   -2.7268    0.0000 H   0  0  0  0  0  0  0  0  0  0  0  0
    9.1059   -0.8278    0.0000 H   0  0  0  0  0  0  0  0  0  0  0  0
   10.5831   -3.3864    0.0000 C   0  0  0  0  0  0  0  0  0  0  0  0
    9.6180   -4.5358    0.0000 C   0  0  0  0  0  0  0  0  0  0  0  0
    8.1408   -4.2750    0.0000 H   0  0  0  0  0  0  0  0  0  0  0  0
   10.1310   -5.9453    0.0000 C   0  0  0  0  0  0  0  0  0  0  0  0
    9.1670   -7.0945    0.0000 H   0  0  0  0  0  0  0  0  0  0  0  0
   11.6091   -6.2054    0.0000 C   0  0  0  0  0  0  0  0  0  0  0  0
   12.1222   -7.6150    0.0000 H   0  0  0  0  0  0  0  0  0  0  0  0
   12.5742   -5.0560    0.0000 C   0  0  0  0  0  0  0  0  0  0  0  0
   14.0514   -5.3168    0.0000 H   0  0  0  0  0  0  0  0  0  0  0  0
   12.0612   -3.6465    0.0000 C   0  0  0  0  0  0  0  0  0  0  0  0
   13.0252   -2.4973    0.0000 H   0  0  0  0  0  0  0  0  0  0  0  0
   12.7490    0.1622    0.0000 N   0  0  0  0  0  0  0  0  0  0  0  0
   12.7490    1.6622    0.0000 H   0  0  0  0  0  0  0  0  0  0  0  0
   14.0480   -0.5878    0.0000 C   0  0  0  0  0  0  0  0  0  0  0  0
   14.0480   -2.0878    0.0000 O   0  0  0  0  0  0  0  0  0  0  0  0
   15.3470    0.1622    0.0000 C   0  0  0  0  0  0  0  0  0  0  0  0
   14.3829    1.3113    0.0000 H   0  0  0  0  0  0  0  0  0  0  0  0
   16.3112    1.3113    0.0000 H   0  0  0  0  0  0  0  0  0  0  0  0
   16.6461   -0.5878    0.0000 O   0  0  0  0  0  0  0  0  0  0  0  0
   17.9451    0.1622    0.0000 C   0  0  0  0  0  0  0  0  0  0  0  0
   17.9336    1.6611    0.0000 C   0  0  0  0  0  0  0  0  0  0  0  0
   16.6275    2.3989    0.0000 C   0  0  0  0  0  0  0  0  0  0  0  0
   15.3356    1.6366    0.0000 H   0  0  0  0  0  0  0  0  0  0  0  0
   17.5808    3.5570    0.0000 H   0  0  0  0  0  0  0  0  0  0  0  0
   15.6525    3.5388    0.0000 H   0  0  0  0  0  0  0  0  0  0  0  0
   19.2072    2.4155    0.0000 C   0  0  0  0  0  0  0  0  0  0  0  0
   19.1951    3.9155    0.0000 H   0  0  0  0  0  0  0  0  0  0  0  0
   20.4819    1.6880    0.0000 C   0  0  0  0  0  0  0  0  0  0  0  0
   21.7660    2.4633    0.0000 H   0  0  0  0  0  0  0  0  0  0  0  0
   20.5327    0.2017    0.0000 C   0  0  0  0  0  0  0  0  0  0  0  0
   21.8557   -0.5053    0.0000 H   0  0  0  0  0  0  0  0  0  0  0  0
   19.2409   -0.5993    0.0000 C   0  0  0  0  0  0  0  0  0  0  0  0
   19.2586   -2.0992    0.0000 C   0  0  0  0  0  0  0  0  0  0  0  0
   20.5665   -2.8337    0.0000 H   0  0  0  0  0  0  0  0  0  0  0  0
   18.7623   -3.5147    0.0000 H   0  0  0  0  0  0  0  0  0  0  0  0
   17.7785   -1.8562    0.0000 H   0  0  0  0  0  0  0  0  0  0  0  0
    7.9751   -0.7673    0.0000 O   0  0  0  0  0  0  0  0  0  0  0  0
    6.4979   -1.0278    0.0000 H   0  0  0  0  0  0  0  0  0  0  0  0
    2.8763    0.4022    0.0000 N   0  0  0  0  0  0  0  0  0  0  0  0
    4.1763   -0.3478    0.0000 C   0  0  0  0  0  0  0  0  0  0  0  0
    4.6890    1.0619    0.0000 H   0  0  0  0  0  0  0  0  0  0  0  0
    5.6535   -0.6081    0.0000 H   0  0  0  0  0  0  0  0  0  0  0  0
    4.1763   -1.8478    0.0000 C   0  0  0  0  0  0  0  0  0  0  0  0
    5.6535   -1.5874    0.0000 H   0  0  0  0  0  0  0  0  0  0  0  0
    4.6890   -3.2574    0.0000 H   0  0  0  0  0  0  0  0  0  0  0  0
    2.8763   -2.5978    0.0000 C   0  0  0  0  0  0  0  0  0  0  0  0
    3.8403   -3.7469    0.0000 H   0  0  0  0  0  0  0  0  0  0  0  0
    1.9122   -3.7469    0.0000 H   0  0  0  0  0  0  0  0  0  0  0  0
    1.5763   -1.8478    0.0000 N   0  0  0  0  0  0  0  0  0  0  0  0
    0.2774   -2.5980    0.0000 H   0  0  0  0  0  0  0  0  0  0  0  0
    1.5763   -0.3478    0.0000 C   0  0  0  0  0  0  0  0  0  0  0  0
    0.2774    0.4025    0.0000 O   0  0  0  0  0  0  0  0  0  0  0  0
  1  2  1  0  0  0  0 
  1  3  1  0  0  0  0 
  1  4  1  0  0  0  0 
  1  5  1  0  0  0  0 
  5  6  1  0  0  0  0 
  5  7  1  0  0  0  0 
  7  8  1  0  0  0  0 
  7  9  1  0  0  0  0 
  7 10  1  0  0  0  0 
  5 11  1  0  0  0  0 
 11 12  1  6  0  0  0 
 11 13  1  0  0  0  0 
 13 14  2  0  0  0  0 
 13 15  1  0  0  0  0 
 15 16  1  0  0  0  0 
 15 17  1  0  0  0  0 
 17 18  2  0  0  0  0 
 18 19  1  4  0  0  0 
 18 20  1  0  0  0  0 
 20 21  2  0  0  0  0 
 21 22  1  0  0  0  0 
 21 23  1  0  0  0  0 
 23 24  1  0  0  0  0 
 23 25  2  0  0  0  0 
 25 26  1  0  0  0  0 
 25 27  1  0  0  0  0 
 27 28  1  0  0  0  0 
 27 29  2  0  0  0  0 
 20 29  1  0  0  0  0 
 29 30  1  0  0  0  0 
 17 31  1  0  0  0  0 
 31 32  1  0  0  0  0 
 31 33  1  0  0  0  0 
 31 34  1  0  0  0  0 
 34 35  1  6  0  0  0 
 34 36  1  0  0  0  0 
 36 37  1  6  0  0  0 
 36 38  1  0  0  0  0 
 38 39  1  0  0  0  0 
 38 40  1  0  0  0  0 
 38 41  1  0  0  0  0 
 41 42  2  0  0  0  0 
 42 43  1  0  0  0  0 
 42 44  1  0  0  0  0 
 44 45  1  0  0  0  0 
 44 46  2  0  0  0  0 
 46 47  1  0  0  0  0 
 46 48  1  0  0  0  0 
 48 49  1  0  0  0  0 
 48 50  2  0  0  0  0 
 41 50  1  0  0  0  0 
 50 51  1  0  0  0  0 
 36 52  1  1  0  0  0 
 52 53  1  0  0  0  0 
 52 54  1  0  0  0  0 
 54 55  2  0  0  0  0 
 54 56  1  0  0  0  0 
 56 57  1  0  0  0  0 
 56 58  1  0  0  0  0 
 56 59  1  0  0  0  0 
 59 60  1  0  0  0  0 
 60 61  2  0  0  0  0 
 61 62  1  0  0  0  0 
 62 63  1  0  0  0  0 
 62 64  1  0  0  0  0 
 62 65  1  0  0  0  0 
 61 66  1  0  0  0  0 
 66 67  1  0  0  0  0 
 66 68  2  0  0  0  0 
 68 69  1  0  0  0  0 
 68 70  1  0  0  0  0 
 70 71  1  0  0  0  0 
 70 72  2  0  0  0  0 
 60 72  1  0  0  0  0 
 72 73  1  0  0  0  0 
 73 74  1  0  0  0  0 
 73 75  1  0  0  0  0 
 73 76  1  0  0  0  0 
 34 77  1  1  0  0  0 
 77 78  1  0  0  0  0 
 11 79  1  1  0  0  0 
 79 80  1  0  0  0  0 
 80 81  1  0  0  0  0 
 80 82  1  0  0  0  0 
 80 83  1  0  0  0  0 
 83 84  1  0  0  0  0 
 83 85  1  0  0  0  0 
 83 86  1  0  0  0  0 
 86 87  1  0  0  0  0 
 86 88  1  0  0  0  0 
 86 89  1  0  0  0  0 
 89 90  1  0  0  0  0 
 89 91  1  0  0  0  0 
 79 91  1  0  0  0  0 
 91 92  2  0  0  0  0 
M  END
> <Rank>
65

> <Priority_score>
0.012

> <Reaction_type>
alkyl dehydrogenation

> <Parent_ID>
63

> <Parent_InChI>
InChI=1S/C37H48N4O5/c1-25(2)34(41-20-12-19-38-37(41)45)36(44)39-30(21-28-15-7-5-8-16-28)23-32(42)31(22-29-17-9-6-10-18-29)40-33(43)24-46-35-26(3)13-11-14-27(35)4/h5-11,13-18,25,30-32,34,42H,12,19-24H2,1-4H3,(H,38,45)(H,39,44)(H,40,43)

> <Parent_SMILES>
Cc1cccc(C)c1OCC(=O)N[C@@H](Cc1ccccc1)[C@@H](O)C[C@H](Cc1ccccc1)NC(=O)[C@H](C(C)C)N1CCCNC1=O

$$$$
Molecule 63_metabolite 68
  CDK     0516241031

 93 96  0  0  0  0  0  0  0  0999 V2000
    3.1769   14.3736    0.0000 C   0  0  0  0  0  0  0  0  0  0  0  0
    1.7674   14.8867    0.0000 H   0  0  0  0  0  0  0  0  0  0  0  0
    3.4374   15.8509    0.0000 H   0  0  0  0  0  0  0  0  0  0  0  0
    4.6769   14.3736    0.0000 H   0  0  0  0  0  0  0  0  0  0  0  0
    3.5208   12.4237    0.0000 C   0  0  0  0  0  0  0  0  0  0  0  0
    3.2603   10.9465    0.0000 H   0  0  0  0  0  0  0  0  0  0  0  0
    2.0208   12.4237    0.0000 C   0  0  0  0  0  0  0  0  0  0  0  0
    1.2708   13.7228    0.0000 H   0  0  0  0  0  0  0  0  0  0  0  0
    2.2812   10.9465    0.0000 H   0  0  0  0  0  0  0  0  0  0  0  0
    0.6112   11.9107    0.0000 H   0  0  0  0  0  0  0  0  0  0  0  0
    4.9303   11.9107    0.0000 C   0  0  1  0  0  0  0  0  0  0  0  0
    5.1908   13.3879    0.0000 H   0  0  0  0  0  0  0  0  0  0  0  0
    3.9403   10.1960    0.0000 C   0  0  0  0  0  0  0  0  0  0  0  0
    4.6903    8.8969    0.0000 O   0  0  0  0  0  0  0  0  0  0  0  0
    2.4403   10.1960    0.0000 N   0  0  0  0  0  0  0  0  0  0  0  0
    1.6903   11.4950    0.0000 H   0  0  0  0  0  0  0  0  0  0  0  0
    1.4503    8.4812    0.0000 C   0  0  1  0  0  0  0  0  0  0  0  0
    2.8598    7.9682    0.0000 H   0  0  0  0  0  0  0  0  0  0  0  0
    1.1898    7.0040    0.0000 C   0  0  0  0  0  0  0  0  0  0  0  0
   -0.2197    7.5171    0.0000 H   0  0  0  0  0  0  0  0  0  0  0  0
    0.4398    5.7050    0.0000 H   0  0  0  0  0  0  0  0  0  0  0  0
    2.3389    6.0398    0.0000 C   0  0  0  0  0  0  0  0  0  0  0  0
    3.7491    6.5536    0.0000 C   0  0  0  0  0  0  0  0  0  0  0  0
    4.0093    8.0309    0.0000 H   0  0  0  0  0  0  0  0  0  0  0  0
    4.8981    5.5894    0.0000 C   0  0  0  0  0  0  0  0  0  0  0  0
    6.3077    6.1022    0.0000 H   0  0  0  0  0  0  0  0  0  0  0  0
    4.6370    4.1115    0.0000 C   0  0  0  0  0  0  0  0  0  0  0  0
    5.7861    3.1473    0.0000 H   0  0  0  0  0  0  0  0  0  0  0  0
    3.2269    3.5977    0.0000 C   0  0  0  0  0  0  0  0  0  0  0  0
    2.9666    2.1205    0.0000 H   0  0  0  0  0  0  0  0  0  0  0  0
    2.0778    4.5619    0.0000 C   0  0  0  0  0  0  0  0  0  0  0  0
    0.6682    4.0491    0.0000 H   0  0  0  0  0  0  0  0  0  0  0  0
   -0.5297    8.4812    0.0000 C   0  0  0  0  0  0  0  0  0  0  0  0
   -1.9392    8.9943    0.0000 H   0  0  0  0  0  0  0  0  0  0  0  0
   -0.2692    9.9584    0.0000 H   0  0  0  0  0  0  0  0  0  0  0  0
   -1.2797    7.1822    0.0000 C   0  0  1  0  0  0  0  0  0  0  0  0
    0.1298    6.6692    0.0000 H   0  0  0  0  0  0  0  0  0  0  0  0
   -4.2197    7.1822    0.0000 C   0  0  2  0  0  0  0  0  0  0  0  0
   -5.6292    6.6692    0.0000 H   0  0  0  0  0  0  0  0  0  0  0  0
   -3.9592    5.7050    0.0000 C   0  0  0  0  0  0  0  0  0  0  0  0
   -3.2092    4.4059    0.0000 H   0  0  0  0  0  0  0  0  0  0  0  0
   -2.5497    6.2180    0.0000 H   0  0  0  0  0  0  0  0  0  0  0  0
   -5.1083    4.7408    0.0000 C   0  0  0  0  0  0  0  0  0  0  0  0
   -4.8472    3.2629    0.0000 C   0  0  0  0  0  0  0  0  0  0  0  0
   -3.4376    2.7500    0.0000 H   0  0  0  0  0  0  0  0  0  0  0  0
   -5.9963    2.2987    0.0000 C   0  0  0  0  0  0  0  0  0  0  0  0
   -5.7360    0.8214    0.0000 H   0  0  0  0  0  0  0  0  0  0  0  0
   -7.4064    2.8124    0.0000 C   0  0  0  0  0  0  0  0  0  0  0  0
   -8.5555    1.8483    0.0000 H   0  0  0  0  0  0  0  0  0  0  0  0
   -7.6675    4.2904    0.0000 C   0  0  0  0  0  0  0  0  0  0  0  0
   -9.0771    4.8032    0.0000 H   0  0  0  0  0  0  0  0  0  0  0  0
   -6.5185    5.2546    0.0000 C   0  0  0  0  0  0  0  0  0  0  0  0
   -6.7787    6.7318    0.0000 H   0  0  0  0  0  0  0  0  0  0  0  0
   -5.2097    8.8969    0.0000 N   0  0  0  0  0  0  0  0  0  0  0  0
   -4.4597   10.1960    0.0000 H   0  0  0  0  0  0  0  0  0  0  0  0
   -6.7097    8.8969    0.0000 C   0  0  0  0  0  0  0  0  0  0  0  0
   -7.4597    7.5979    0.0000 O   0  0  0  0  0  0  0  0  0  0  0  0
   -7.4597   10.1960    0.0000 C   0  0  0  0  0  0  0  0  0  0  0  0
   -6.0502   10.7090    0.0000 H   0  0  0  0  0  0  0  0  0  0  0  0
   -7.7202   11.6732    0.0000 H   0  0  0  0  0  0  0  0  0  0  0  0
   -8.9597   10.1960    0.0000 O   0  0  0  0  0  0  0  0  0  0  0  0
   -9.7097   11.4950    0.0000 C   0  0  0  0  0  0  0  0  0  0  0  0
   -8.9502   12.7873    0.0000 C   0  0  0  0  0  0  0  0  0  0  0  0
   -7.4503   12.7732    0.0000 C   0  0  0  0  0  0  0  0  0  0  0  0
   -6.7126   11.4671    0.0000 H   0  0  0  0  0  0  0  0  0  0  0  0
   -7.6968   14.2528    0.0000 H   0  0  0  0  0  0  0  0  0  0  0  0
   -6.0360   13.2729    0.0000 H   0  0  0  0  0  0  0  0  0  0  0  0
   -9.6761   14.0774    0.0000 C   0  0  0  0  0  0  0  0  0  0  0  0
   -8.9156   15.3704    0.0000 H   0  0  0  0  0  0  0  0  0  0  0  0
  -11.1437   14.0847    0.0000 C   0  0  0  0  0  0  0  0  0  0  0  0
  -11.8682   15.3982    0.0000 H   0  0  0  0  0  0  0  0  0  0  0  0
  -11.9309   12.8230    0.0000 C   0  0  0  0  0  0  0  0  0  0  0  0
  -13.4301   12.8722    0.0000 H   0  0  0  0  0  0  0  0  0  0  0  0
  -11.2126   11.4834    0.0000 C   0  0  0  0  0  0  0  0  0  0  0  0
  -11.9780   10.1933    0.0000 C   0  0  0  0  0  0  0  0  0  0  0  0
  -13.4778   10.2111    0.0000 H   0  0  0  0  0  0  0  0  0  0  0  0
  -12.2559    8.7193    0.0000 H   0  0  0  0  0  0  0  0  0  0  0  0
  -10.5746    9.6637    0.0000 H   0  0  0  0  0  0  0  0  0  0  0  0
   -1.5402    5.7050    0.0000 O   0  0  0  0  0  0  0  0  0  0  0  0
   -0.3911    4.7408    0.0000 H   0  0  0  0  0  0  0  0  0  0  0  0
    6.4303   11.9107    0.0000 N   0  0  0  0  0  0  0  0  0  0  0  0
    7.1803   13.2107    0.0000 C   0  0  0  0  0  0  0  0  0  0  0  0
    6.4301   14.5096    0.0000 H   0  0  0  0  0  0  0  0  0  0  0  0
    8.6803   13.2107    0.0000 C   0  0  0  0  0  0  0  0  0  0  0  0
    8.4200   14.6879    0.0000 H   0  0  0  0  0  0  0  0  0  0  0  0
   10.0899   13.7234    0.0000 H   0  0  0  0  0  0  0  0  0  0  0  0
    9.4303   11.9107    0.0000 C   0  0  0  0  0  0  0  0  0  0  0  0
   10.5795   12.8748    0.0000 H   0  0  0  0  0  0  0  0  0  0  0  0
   10.5795   10.9466    0.0000 H   0  0  0  0  0  0  0  0  0  0  0  0
    8.6803   10.6107    0.0000 N   0  0  0  0  0  0  0  0  0  0  0  0
    9.4305    9.3118    0.0000 H   0  0  0  0  0  0  0  0  0  0  0  0
    7.1803   10.6107    0.0000 C   0  0  0  0  0  0  0  0  0  0  0  0
    6.4301    9.3118    0.0000 O   0  0  0  0  0  0  0  0  0  0  0  0
  1  2  1  0  0  0  0 
  1  3  1  0  0  0  0 
  1  4  1  0  0  0  0 
  1  5  1  0  0  0  0 
  5  6  1  0  0  0  0 
  5  7  1  0  0  0  0 
  7  8  1  0  0  0  0 
  7  9  1  0  0  0  0 
  7 10  1  0  0  0  0 
  5 11  1  0  0  0  0 
 11 12  1  1  0  0  0 
 11 13  1  0  0  0  0 
 13 14  2  0  0  0  0 
 13 15  1  0  0  0  0 
 15 16  1  0  0  0  0 
 17 15  1  1  0  0  0 
 17 18  1  6  0  0  0 
 17 19  1  0  0  0  0 
 19 20  1  0  0  0  0 
 19 21  1  0  0  0  0 
 19 22  1  0  0  0  0 
 22 23  2  0  0  0  0 
 23 24  1  0  0  0  0 
 23 25  1  0  0  0  0 
 25 26  1  0  0  0  0 
 25 27  2  0  0  0  0 
 27 28  1  0  0  0  0 
 27 29  1  0  0  0  0 
 29 30  1  0  0  0  0 
 29 31  2  0  0  0  0 
 22 31  1  0  0  0  0 
 31 32  1  0  0  0  0 
 17 33  1  0  0  0  0 
 33 34  1  0  0  0  0 
 33 35  1  0  0  0  0 
 33 36  1  0  0  0  0 
 36 37  1  1  0  0  0 
 36 38  1  0  0  0  0 
 38 39  1  1  0  0  0 
 38 40  1  0  0  0  0 
 40 41  1  0  0  0  0 
 40 42  1  0  0  0  0 
 40 43  1  0  0  0  0 
 43 44  2  0  0  0  0 
 44 45  1  0  0  0  0 
 44 46  1  0  0  0  0 
 46 47  1  0  0  0  0 
 46 48  2  0  0  0  0 
 48 49  1  0  0  0  0 
 48 50  1  0  0  0  0 
 50 51  1  0  0  0  0 
 50 52  2  0  0  0  0 
 43 52  1  0  0  0  0 
 52 53  1  0  0  0  0 
 38 54  1  6  0  0  0 
 54 55  1  0  0  0  0 
 54 56  1  0  0  0  0 
 56 57  2  0  0  0  0 
 56 58  1  0  0  0  0 
 58 59  1  0  0  0  0 
 58 60  1  0  0  0  0 
 58 61  1  0  0  0  0 
 61 62  1  0  0  0  0 
 62 63  2  0  0  0  0 
 63 64  1  0  0  0  0 
 64 65  1  0  0  0  0 
 64 66  1  0  0  0  0 
 64 67  1  0  0  0  0 
 63 68  1  0  0  0  0 
 68 69  1  0  0  0  0 
 68 70  2  0  0  0  0 
 70 71  1  0  0  0  0 
 70 72  1  0  0  0  0 
 72 73  1  0  0  0  0 
 72 74  2  0  0  0  0 
 62 74  1  0  0  0  0 
 74 75  1  0  0  0  0 
 75 76  1  0  0  0  0 
 75 77  1  0  0  0  0 
 75 78  1  0  0  0  0 
 36 79  1  6  0  0  0 
 79 80  1  0  0  0  0 
 11 81  1  6  0  0  0 
 81 82  2  0  0  0  0 
 82 83  1  0  0  0  0 
 82 84  1  0  0  0  0 
 84 85  1  0  0  0  0 
 84 86  1  0  0  0  0 
 84 87  1  0  0  0  0 
 87 88  1  0  0  0  0 
 87 89  1  0  0  0  0 
 87 90  1  0  0  0  0 
 90 91  1  0  0  0  0 
 90 92  1  0  0  0  0 
 81 92  1  0  0  0  0 
 92 93  2  0  0  0  0 
M  CHG  1  81   1
M  END
> <Rank>
68

> <Priority_score>
0.0104

> <Reaction_type>
dehydration of N-C bond

> <Parent_ID>
63

> <Parent_InChI>
InChI=1S/C37H48N4O5/c1-25(2)34(41-20-12-19-38-37(41)45)36(44)39-30(21-28-15-7-5-8-16-28)23-32(42)31(22-29-17-9-6-10-18-29)40-33(43)24-46-35-26(3)13-11-14-27(35)4/h5-11,13-18,25,30-32,34,42H,12,19-24H2,1-4H3,(H,38,45)(H,39,44)(H,40,43)

> <Parent_SMILES>
Cc1cccc(C)c1OCC(=O)N[C@@H](Cc1ccccc1)[C@@H](O)C[C@H](Cc1ccccc1)NC(=O)[C@H](C(C)C)N1CCCNC1=O

$$$$
Molecule 63_metabolite 69
  CDK     0516241031

 92 95  0  0  0  0  0  0  0  0999 V2000
   -8.5177   11.9364    0.0000 C   0  0  0  0  0  0  0  0  0  0  0  0
   -9.9949   11.6759    0.0000 H   0  0  0  0  0  0  0  0  0  0  0  0
   -7.0404   11.6759    0.0000 H   0  0  0  0  0  0  0  0  0  0  0  0
   -8.5177    9.4764    0.0000 H   0  0  0  0  0  0  0  0  0  0  0  0
   -8.0046   13.3459    0.0000 C   0  0  0  0  0  0  0  0  0  0  0  0
   -9.4818   13.6064    0.0000 H   0  0  0  0  0  0  0  0  0  0  0  0
   -8.0046   14.8459    0.0000 C   0  0  0  0  0  0  0  0  0  0  0  0
   -9.3037   15.5959    0.0000 H   0  0  0  0  0  0  0  0  0  0  0  0
   -7.4916   16.2554    0.0000 H   0  0  0  0  0  0  0  0  0  0  0  0
   -6.5274   14.5854    0.0000 H   0  0  0  0  0  0  0  0  0  0  0  0
   -5.1093   13.8564    0.0000 C   0  0  1  0  0  0  0  0  0  0  0  0
   -5.6223   15.2660    0.0000 H   0  0  0  0  0  0  0  0  0  0  0  0
   -3.8103   14.6064    0.0000 C   0  0  0  0  0  0  0  0  0  0  0  0
   -2.5112   13.8564    0.0000 O   0  0  0  0  0  0  0  0  0  0  0  0
   -3.8103   16.1064    0.0000 N   0  0  0  0  0  0  0  0  0  0  0  0
   -5.1093   16.8564    0.0000 H   0  0  0  0  0  0  0  0  0  0  0  0
   -2.0955   17.0964    0.0000 C   0  0  1  0  0  0  0  0  0  0  0  0
   -1.1313   18.2455    0.0000 H   0  0  0  0  0  0  0  0  0  0  0  0
   -3.0597   18.2455    0.0000 C   0  0  0  0  0  0  0  0  0  0  0  0
   -4.3587   18.9955    0.0000 H   0  0  0  0  0  0  0  0  0  0  0  0
   -4.0239   17.0964    0.0000 H   0  0  0  0  0  0  0  0  0  0  0  0
   -2.5467   19.6550    0.0000 C   0  0  0  0  0  0  0  0  0  0  0  0
   -3.5118   20.8044    0.0000 C   0  0  0  0  0  0  0  0  0  0  0  0
   -4.9889   20.5437    0.0000 H   0  0  0  0  0  0  0  0  0  0  0  0
   -2.9987   22.2140    0.0000 C   0  0  0  0  0  0  0  0  0  0  0  0
   -3.9627   23.3632    0.0000 H   0  0  0  0  0  0  0  0  0  0  0  0
   -1.5206   22.4741    0.0000 C   0  0  0  0  0  0  0  0  0  0  0  0
   -1.0076   23.8836    0.0000 H   0  0  0  0  0  0  0  0  0  0  0  0
   -0.5555   21.3247    0.0000 C   0  0  0  0  0  0  0  0  0  0  0  0
    0.9216   21.5854    0.0000 H   0  0  0  0  0  0  0  0  0  0  0  0
   -1.0686   19.9152    0.0000 C   0  0  0  0  0  0  0  0  0  0  0  0
   -0.1046   18.7659    0.0000 H   0  0  0  0  0  0  0  0  0  0  0  0
   -0.3808   16.1064    0.0000 C   0  0  0  0  0  0  0  0  0  0  0  0
   -1.3450   14.9574    0.0000 H   0  0  0  0  0  0  0  0  0  0  0  0
    0.5834   14.9574    0.0000 H   0  0  0  0  0  0  0  0  0  0  0  0
    0.9182   16.8564    0.0000 C   0  0  1  0  0  0  0  0  0  0  0  0
    1.8824   18.0055    0.0000 H   0  0  0  0  0  0  0  0  0  0  0  0
    2.2173   16.1064    0.0000 C   0  0  2  0  0  0  0  0  0  0  0  0
    2.7303   17.5160    0.0000 H   0  0  0  0  0  0  0  0  0  0  0  0
    3.6945   15.8459    0.0000 C   0  0  0  0  0  0  0  0  0  0  0  0
    3.1815   14.4364    0.0000 H   0  0  0  0  0  0  0  0  0  0  0  0
    4.9935   15.0959    0.0000 H   0  0  0  0  0  0  0  0  0  0  0  0
    4.6587   16.9950    0.0000 C   0  0  0  0  0  0  0  0  0  0  0  0
    4.1449   18.4052    0.0000 C   0  0  0  0  0  0  0  0  0  0  0  0
    2.6677   18.6654    0.0000 H   0  0  0  0  0  0  0  0  0  0  0  0
    5.1091   19.5542    0.0000 C   0  0  0  0  0  0  0  0  0  0  0  0
    4.5963   20.9639    0.0000 H   0  0  0  0  0  0  0  0  0  0  0  0
    6.5870   19.2931    0.0000 C   0  0  0  0  0  0  0  0  0  0  0  0
    7.5512   20.4422    0.0000 H   0  0  0  0  0  0  0  0  0  0  0  0
    7.1008   17.8830    0.0000 C   0  0  0  0  0  0  0  0  0  0  0  0
    8.5781   17.6228    0.0000 H   0  0  0  0  0  0  0  0  0  0  0  0
    6.1366   16.7339    0.0000 C   0  0  0  0  0  0  0  0  0  0  0  0
    6.6494   15.3243    0.0000 H   0  0  0  0  0  0  0  0  0  0  0  0
    2.2173   14.1264    0.0000 N   0  0  0  0  0  0  0  0  0  0  0  0
    0.9182   13.3764    0.0000 H   0  0  0  0  0  0  0  0  0  0  0  0
    3.5163   13.3764    0.0000 C   0  0  0  0  0  0  0  0  0  0  0  0
    4.8154   14.1264    0.0000 O   0  0  0  0  0  0  0  0  0  0  0  0
    3.5163   11.8764    0.0000 C   0  0  0  0  0  0  0  0  0  0  0  0
    3.0033   10.4669    0.0000 H   0  0  0  0  0  0  0  0  0  0  0  0
    2.0391   12.1369    0.0000 H   0  0  0  0  0  0  0  0  0  0  0  0
    4.8154   11.1264    0.0000 O   0  0  0  0  0  0  0  0  0  0  0  0
    4.8154    9.6264    0.0000 C   0  0  0  0  0  0  0  0  0  0  0  0
    3.5115    8.8870    0.0000 C   0  0  0  0  0  0  0  0  0  0  0  0
    2.2196    9.6492    0.0000 C   0  0  0  0  0  0  0  0  0  0  0  0
    2.2337   11.1491    0.0000 H   0  0  0  0  0  0  0  0  0  0  0  0
    1.6933    8.2446    0.0000 H   0  0  0  0  0  0  0  0  0  0  0  0
    0.7449    9.9236    0.0000 H   0  0  0  0  0  0  0  0  0  0  0  0
    3.4950    7.4068    0.0000 C   0  0  0  0  0  0  0  0  0  0  0  0
    2.1900    6.6673    0.0000 H   0  0  0  0  0  0  0  0  0  0  0  0
    4.7624    6.6666    0.0000 C   0  0  0  0  0  0  0  0  0  0  0  0
    4.7330    5.1669    0.0000 H   0  0  0  0  0  0  0  0  0  0  0  0
    6.0750    7.3658    0.0000 C   0  0  0  0  0  0  0  0  0  0  0  0
    7.3488    6.5736    0.0000 H   0  0  0  0  0  0  0  0  0  0  0  0
    6.1227    8.8850    0.0000 C   0  0  0  0  0  0  0  0  0  0  0  0
    7.4306    9.6196    0.0000 C   0  0  0  0  0  0  0  0  0  0  0  0
    8.7206    8.8542    0.0000 H   0  0  0  0  0  0  0  0  0  0  0  0
    8.4083   10.7571    0.0000 H   0  0  0  0  0  0  0  0  0  0  0  0
    6.4801   10.7800    0.0000 H   0  0  0  0  0  0  0  0  0  0  0  0
   -0.0459   18.0055    0.0000 O   0  0  0  0  0  0  0  0  0  0  0  0
    0.4671   19.4150    0.0000 H   0  0  0  0  0  0  0  0  0  0  0  0
   -5.1093   10.9164    0.0000 N   0  0  0  0  0  0  0  0  0  0  0  0
   -3.8093   10.1664    0.0000 C   0  0  0  0  0  0  0  0  0  0  0  0
   -2.5104   10.9166    0.0000 H   0  0  0  0  0  0  0  0  0  0  0  0
   -3.8093    8.6664    0.0000 C   0  0  0  0  0  0  0  0  0  0  0  0
   -2.5104    7.9162    0.0000 H   0  0  0  0  0  0  0  0  0  0  0  0
   -5.1093    7.9164    0.0000 C   0  0  0  0  0  0  0  0  0  0  0  0
   -4.1452    6.7673    0.0000 H   0  0  0  0  0  0  0  0  0  0  0  0
   -6.0733    6.7673    0.0000 H   0  0  0  0  0  0  0  0  0  0  0  0
   -6.4093    8.6664    0.0000 N   0  0  0  0  0  0  0  0  0  0  0  0
   -7.7082    7.9162    0.0000 H   0  0  0  0  0  0  0  0  0  0  0  0
   -6.4093   10.1664    0.0000 C   0  0  0  0  0  0  0  0  0  0  0  0
   -7.7082   10.9166    0.0000 O   0  0  0  0  0  0  0  0  0  0  0  0
  1  2  1  0  0  0  0 
  1  3  1  0  0  0  0 
  1  4  1  0  0  0  0 
  1  5  1  0  0  0  0 
  5  6  1  0  0  0  0 
  5  7  1  0  0  0  0 
  7  8  1  0  0  0  0 
  7  9  1  0  0  0  0 
  7 10  1  0  0  0  0 
  5 11  1  0  0  0  0 
 11 12  1  6  0  0  0 
 11 13  1  1  0  0  0 
 13 14  2  0  0  0  0 
 13 15  1  0  0  0  0 
 15 16  1  0  0  0  0 
 15 17  1  0  0  0  0 
 17 18  1  6  0  0  0 
 17 19  1  1  0  0  0 
 19 20  1  0  0  0  0 
 19 21  1  0  0  0  0 
 19 22  1  0  0  0  0 
 22 23  2  0  0  0  0 
 23 24  1  0  0  0  0 
 23 25  1  0  0  0  0 
 25 26  1  0  0  0  0 
 25 27  2  0  0  0  0 
 27 28  1  0  0  0  0 
 27 29  1  0  0  0  0 
 29 30  1  0  0  0  0 
 29 31  2  0  0  0  0 
 22 31  1  0  0  0  0 
 31 32  1  0  0  0  0 
 17 33  1  0  0  0  0 
 33 34  1  0  0  0  0 
 33 35  1  0  0  0  0 
 33 36  1  0  0  0  0 
 36 37  1  1  0  0  0 
 36 38  1  0  0  0  0 
 38 39  1  1  0  0  0 
 38 40  1  6  0  0  0 
 40 41  1  0  0  0  0 
 40 42  1  0  0  0  0 
 40 43  1  0  0  0  0 
 43 44  2  0  0  0  0 
 44 45  1  0  0  0  0 
 44 46  1  0  0  0  0 
 46 47  1  0  0  0  0 
 46 48  2  0  0  0  0 
 48 49  1  0  0  0  0 
 48 50  1  0  0  0  0 
 50 51  1  0  0  0  0 
 50 52  2  0  0  0  0 
 43 52  1  0  0  0  0 
 52 53  1  0  0  0  0 
 38 54  1  0  0  0  0 
 54 55  1  0  0  0  0 
 54 56  1  0  0  0  0 
 56 57  2  0  0  0  0 
 56 58  1  0  0  0  0 
 58 59  1  0  0  0  0 
 58 60  1  0  0  0  0 
 58 61  1  0  0  0  0 
 61 62  1  0  0  0  0 
 62 63  2  0  0  0  0 
 63 64  1  0  0  0  0 
 64 65  1  0  0  0  0 
 64 66  1  0  0  0  0 
 64 67  1  0  0  0  0 
 63 68  1  0  0  0  0 
 68 69  1  0  0  0  0 
 68 70  2  0  0  0  0 
 70 71  1  0  0  0  0 
 70 72  1  0  0  0  0 
 72 73  1  0  0  0  0 
 72 74  2  0  0  0  0 
 62 74  1  0  0  0  0 
 74 75  1  0  0  0  0 
 75 76  1  0  0  0  0 
 75 77  1  0  0  0  0 
 75 78  1  0  0  0  0 
 36 79  1  6  0  0  0 
 79 80  1  0  0  0  0 
 11 81  1  0  0  0  0 
 81 82  1  0  0  0  0 
 82 83  1  0  0  0  0 
 82 84  2  0  0  0  0 
 84 85  1  0  0  0  0 
 84 86  1  0  0  0  0 
 86 87  1  0  0  0  0 
 86 88  1  0  0  0  0 
 86 89  1  0  0  0  0 
 89 90  1  0  0  0  0 
 89 91  1  0  0  0  0 
 81 91  1  0  0  0  0 
 91 92  2  0  0  0  0 
M  END
> <Rank>
68

> <Priority_score>
0.0104

> <Reaction_type>
alkyl dehydrogenation

> <Parent_ID>
63

> <Parent_InChI>
InChI=1S/C37H48N4O5/c1-25(2)34(41-20-12-19-38-37(41)45)36(44)39-30(21-28-15-7-5-8-16-28)23-32(42)31(22-29-17-9-6-10-18-29)40-33(43)24-46-35-26(3)13-11-14-27(35)4/h5-11,13-18,25,30-32,34,42H,12,19-24H2,1-4H3,(H,38,45)(H,39,44)(H,40,43)

> <Parent_SMILES>
Cc1cccc(C)c1OCC(=O)N[C@@H](Cc1ccccc1)[C@@H](O)C[C@H](Cc1ccccc1)NC(=O)[C@H](C(C)C)N1CCCNC1=O

$$$$
Molecule 63_metabolite 70
  CDK     0516241031

 95 98  0  0  0  0  0  0  0  0999 V2000
    3.1773   14.3733    0.0000 C   0  0  0  0  0  0  0  0  0  0  0  0
    1.7678   14.8863    0.0000 H   0  0  0  0  0  0  0  0  0  0  0  0
    3.4378   15.8505    0.0000 H   0  0  0  0  0  0  0  0  0  0  0  0
    4.6773   14.3733    0.0000 H   0  0  0  0  0  0  0  0  0  0  0  0
    3.5211   12.4234    0.0000 C   0  0  0  0  0  0  0  0  0  0  0  0
    3.2606   10.9462    0.0000 H   0  0  0  0  0  0  0  0  0  0  0  0
    2.0211   12.4234    0.0000 C   0  0  0  0  0  0  0  0  0  0  0  0
    1.2711   13.7224    0.0000 H   0  0  0  0  0  0  0  0  0  0  0  0
    2.2816   10.9462    0.0000 H   0  0  0  0  0  0  0  0  0  0  0  0
    0.6116   11.9103    0.0000 H   0  0  0  0  0  0  0  0  0  0  0  0
    4.9307   11.9103    0.0000 C   0  0  1  0  0  0  0  0  0  0  0  0
    5.1911   13.3875    0.0000 H   0  0  0  0  0  0  0  0  0  0  0  0
    3.9407   10.1956    0.0000 C   0  0  0  0  0  0  0  0  0  0  0  0
    4.6907    8.8966    0.0000 O   0  0  0  0  0  0  0  0  0  0  0  0
    2.4407   10.1956    0.0000 N   0  0  0  0  0  0  0  0  0  0  0  0
    1.6907   11.4946    0.0000 H   0  0  0  0  0  0  0  0  0  0  0  0
    1.4507    8.4809    0.0000 C   0  0  1  0  0  0  0  0  0  0  0  0
    2.8602    7.9678    0.0000 H   0  0  0  0  0  0  0  0  0  0  0  0
    1.1902    7.0037    0.0000 C   0  0  0  0  0  0  0  0  0  0  0  0
   -0.2194    7.5167    0.0000 H   0  0  0  0  0  0  0  0  0  0  0  0
    0.4402    5.7046    0.0000 H   0  0  0  0  0  0  0  0  0  0  0  0
    2.3392    6.0395    0.0000 C   0  0  0  0  0  0  0  0  0  0  0  0
    3.7494    6.5533    0.0000 C   0  0  0  0  0  0  0  0  0  0  0  0
    4.0096    8.0305    0.0000 H   0  0  0  0  0  0  0  0  0  0  0  0
    4.8985    5.5891    0.0000 C   0  0  0  0  0  0  0  0  0  0  0  0
    6.3081    6.1019    0.0000 H   0  0  0  0  0  0  0  0  0  0  0  0
    4.6374    4.1111    0.0000 C   0  0  0  0  0  0  0  0  0  0  0  0
    5.7864    3.1469    0.0000 H   0  0  0  0  0  0  0  0  0  0  0  0
    3.2272    3.5974    0.0000 C   0  0  0  0  0  0  0  0  0  0  0  0
    2.9670    2.1201    0.0000 H   0  0  0  0  0  0  0  0  0  0  0  0
    2.0782    4.5615    0.0000 C   0  0  0  0  0  0  0  0  0  0  0  0
    0.6685    4.0487    0.0000 H   0  0  0  0  0  0  0  0  0  0  0  0
   -0.5293    8.4809    0.0000 C   0  0  0  0  0  0  0  0  0  0  0  0
   -1.9389    8.9939    0.0000 H   0  0  0  0  0  0  0  0  0  0  0  0
   -0.2689    9.9581    0.0000 H   0  0  0  0  0  0  0  0  0  0  0  0
   -1.2793    7.1818    0.0000 C   0  0  1  0  0  0  0  0  0  0  0  0
    0.1302    6.6688    0.0000 H   0  0  0  0  0  0  0  0  0  0  0  0
   -4.2193    7.1818    0.0000 C   0  0  2  0  0  0  0  0  0  0  0  0
   -5.6289    6.6688    0.0000 H   0  0  0  0  0  0  0  0  0  0  0  0
   -3.9589    5.7046    0.0000 C   0  0  0  0  0  0  0  0  0  0  0  0
   -3.2089    4.4056    0.0000 H   0  0  0  0  0  0  0  0  0  0  0  0
   -2.5493    6.2177    0.0000 H   0  0  0  0  0  0  0  0  0  0  0  0
   -5.1079    4.7404    0.0000 C   0  0  0  0  0  0  0  0  0  0  0  0
   -4.8477    3.2632    0.0000 C   0  0  0  0  0  0  0  0  0  0  0  0
   -5.9979    2.2990    0.0000 C   0  0  0  0  0  0  0  0  0  0  0  0
   -5.7376    0.8218    0.0000 H   0  0  0  0  0  0  0  0  0  0  0  0
   -7.4083    2.8121    0.0000 C   0  0  0  0  0  0  0  0  0  0  0  0
   -8.5573    1.8479    0.0000 H   0  0  0  0  0  0  0  0  0  0  0  0
   -7.6685    4.2894    0.0000 C   0  0  0  0  0  0  0  0  0  0  0  0
   -9.0779    4.8029    0.0000 H   0  0  0  0  0  0  0  0  0  0  0  0
   -6.5183    5.2535    0.0000 C   0  0  0  0  0  0  0  0  0  0  0  0
   -6.7786    6.7308    0.0000 H   0  0  0  0  0  0  0  0  0  0  0  0
   -3.4383    2.7497    0.0000 O   0  0  0  0  0  0  0  0  0  0  0  0
   -3.1783    1.2724    0.0000 H   0  0  0  0  0  0  0  0  0  0  0  0
   -5.2093    8.8966    0.0000 N   0  0  0  0  0  0  0  0  0  0  0  0
   -4.4593   10.1956    0.0000 H   0  0  0  0  0  0  0  0  0  0  0  0
   -6.7093    8.8966    0.0000 C   0  0  0  0  0  0  0  0  0  0  0  0
   -7.4593    7.5975    0.0000 O   0  0  0  0  0  0  0  0  0  0  0  0
   -7.4593   10.1956    0.0000 C   0  0  0  0  0  0  0  0  0  0  0  0
   -6.0498   10.7086    0.0000 H   0  0  0  0  0  0  0  0  0  0  0  0
   -7.7198   11.6728    0.0000 H   0  0  0  0  0  0  0  0  0  0  0  0
   -8.9593   10.1956    0.0000 O   0  0  0  0  0  0  0  0  0  0  0  0
   -9.7093   11.4946    0.0000 C   0  0  0  0  0  0  0  0  0  0  0  0
   -8.9499   12.7869    0.0000 C   0  0  0  0  0  0  0  0  0  0  0  0
   -7.4499   12.7728    0.0000 C   0  0  0  0  0  0  0  0  0  0  0  0
   -6.7122   11.4667    0.0000 H   0  0  0  0  0  0  0  0  0  0  0  0
   -7.6965   14.2524    0.0000 H   0  0  0  0  0  0  0  0  0  0  0  0
   -6.0356   13.2725    0.0000 H   0  0  0  0  0  0  0  0  0  0  0  0
   -9.6757   14.0771    0.0000 C   0  0  0  0  0  0  0  0  0  0  0  0
   -8.9153   15.3700    0.0000 H   0  0  0  0  0  0  0  0  0  0  0  0
  -11.1434   14.0844    0.0000 C   0  0  0  0  0  0  0  0  0  0  0  0
  -11.8678   15.3979    0.0000 H   0  0  0  0  0  0  0  0  0  0  0  0
  -11.9306   12.8226    0.0000 C   0  0  0  0  0  0  0  0  0  0  0  0
  -13.4298   12.8718    0.0000 H   0  0  0  0  0  0  0  0  0  0  0  0
  -11.2123   11.4830    0.0000 C   0  0  0  0  0  0  0  0  0  0  0  0
  -11.9776   10.1930    0.0000 C   0  0  0  0  0  0  0  0  0  0  0  0
  -13.4775   10.2107    0.0000 H   0  0  0  0  0  0  0  0  0  0  0  0
  -12.2555    8.7190    0.0000 H   0  0  0  0  0  0  0  0  0  0  0  0
  -10.5742    9.6633    0.0000 H   0  0  0  0  0  0  0  0  0  0  0  0
   -1.5398    5.7046    0.0000 O   0  0  0  0  0  0  0  0  0  0  0  0
   -0.3908    4.7404    0.0000 H   0  0  0  0  0  0  0  0  0  0  0  0
    6.4307   11.9103    0.0000 N   0  0  0  0  0  0  0  0  0  0  0  0
    7.1807   10.6103    0.0000 C   0  0  0  0  0  0  0  0  0  0  0  0
    5.7710   10.0976    0.0000 H   0  0  0  0  0  0  0  0  0  0  0  0
    7.4410    9.1331    0.0000 H   0  0  0  0  0  0  0  0  0  0  0  0
    8.6807   10.6103    0.0000 C   0  0  0  0  0  0  0  0  0  0  0  0
    8.4203    9.1331    0.0000 H   0  0  0  0  0  0  0  0  0  0  0  0
   10.0903   10.0976    0.0000 H   0  0  0  0  0  0  0  0  0  0  0  0
    9.4307   11.9103    0.0000 C   0  0  0  0  0  0  0  0  0  0  0  0
   10.5798   10.9463    0.0000 H   0  0  0  0  0  0  0  0  0  0  0  0
   10.5798   12.8744    0.0000 H   0  0  0  0  0  0  0  0  0  0  0  0
    8.6807   13.2103    0.0000 N   0  0  0  0  0  0  0  0  0  0  0  0
    9.4309   14.5093    0.0000 H   0  0  0  0  0  0  0  0  0  0  0  0
    7.1807   13.2103    0.0000 C   0  0  0  0  0  0  0  0  0  0  0  0
    6.4304   14.5093    0.0000 O   0  0  0  0  0  0  0  0  0  0  0  0
  1  2  1  0  0  0  0 
  1  3  1  0  0  0  0 
  1  4  1  0  0  0  0 
  1  5  1  0  0  0  0 
  5  6  1  0  0  0  0 
  5  7  1  0  0  0  0 
  7  8  1  0  0  0  0 
  7  9  1  0  0  0  0 
  7 10  1  0  0  0  0 
  5 11  1  0  0  0  0 
 11 12  1  1  0  0  0 
 11 13  1  0  0  0  0 
 13 14  2  0  0  0  0 
 13 15  1  0  0  0  0 
 15 16  1  0  0  0  0 
 17 15  1  1  0  0  0 
 17 18  1  6  0  0  0 
 17 19  1  0  0  0  0 
 19 20  1  0  0  0  0 
 19 21  1  0  0  0  0 
 19 22  1  0  0  0  0 
 22 23  2  0  0  0  0 
 23 24  1  0  0  0  0 
 23 25  1  0  0  0  0 
 25 26  1  0  0  0  0 
 25 27  2  0  0  0  0 
 27 28  1  0  0  0  0 
 27 29  1  0  0  0  0 
 29 30  1  0  0  0  0 
 29 31  2  0  0  0  0 
 22 31  1  0  0  0  0 
 31 32  1  0  0  0  0 
 17 33  1  0  0  0  0 
 33 34  1  0  0  0  0 
 33 35  1  0  0  0  0 
 33 36  1  0  0  0  0 
 36 37  1  1  0  0  0 
 36 38  1  0  0  0  0 
 38 39  1  1  0  0  0 
 38 40  1  0  0  0  0 
 40 41  1  0  0  0  0 
 40 42  1  0  0  0  0 
 40 43  1  0  0  0  0 
 43 44  2  0  0  0  0 
 44 45  1  0  0  0  0 
 45 46  1  0  0  0  0 
 45 47  2  0  0  0  0 
 47 48  1  0  0  0  0 
 47 49  1  0  0  0  0 
 49 50  1  0  0  0  0 
 49 51  2  0  0  0  0 
 43 51  1  0  0  0  0 
 51 52  1  0  0  0  0 
 44 53  1  0  0  0  0 
 53 54  1  0  0  0  0 
 38 55  1  6  0  0  0 
 55 56  1  0  0  0  0 
 55 57  1  0  0  0  0 
 57 58  2  0  0  0  0 
 57 59  1  0  0  0  0 
 59 60  1  0  0  0  0 
 59 61  1  0  0  0  0 
 59 62  1  0  0  0  0 
 62 63  1  0  0  0  0 
 63 64  2  0  0  0  0 
 64 65  1  0  0  0  0 
 65 66  1  0  0  0  0 
 65 67  1  0  0  0  0 
 65 68  1  0  0  0  0 
 64 69  1  0  0  0  0 
 69 70  1  0  0  0  0 
 69 71  2  0  0  0  0 
 71 72  1  0  0  0  0 
 71 73  1  0  0  0  0 
 73 74  1  0  0  0  0 
 73 75  2  0  0  0  0 
 63 75  1  0  0  0  0 
 75 76  1  0  0  0  0 
 76 77  1  0  0  0  0 
 76 78  1  0  0  0  0 
 76 79  1  0  0  0  0 
 36 80  1  6  0  0  0 
 80 81  1  0  0  0  0 
 11 82  1  6  0  0  0 
 82 83  1  0  0  0  0 
 83 84  1  0  0  0  0 
 83 85  1  0  0  0  0 
 83 86  1  0  0  0  0 
 86 87  1  0  0  0  0 
 86 88  1  0  0  0  0 
 86 89  1  0  0  0  0 
 89 90  1  0  0  0  0 
 89 91  1  0  0  0  0 
 89 92  1  0  0  0  0 
 92 93  1  0  0  0  0 
 92 94  1  0  0  0  0 
 82 94  1  0  0  0  0 
 94 95  2  0  0  0  0 
M  END
> <Rank>
70

> <Priority_score>
0.008

> <Reaction_type>
aromatic hydroxylation

> <Parent_ID>
63

> <Parent_InChI>
InChI=1S/C37H48N4O5/c1-25(2)34(41-20-12-19-38-37(41)45)36(44)39-30(21-28-15-7-5-8-16-28)23-32(42)31(22-29-17-9-6-10-18-29)40-33(43)24-46-35-26(3)13-11-14-27(35)4/h5-11,13-18,25,30-32,34,42H,12,19-24H2,1-4H3,(H,38,45)(H,39,44)(H,40,43)

> <Parent_SMILES>
Cc1cccc(C)c1OCC(=O)N[C@@H](Cc1ccccc1)[C@@H](O)C[C@H](Cc1ccccc1)NC(=O)[C@H](C(C)C)N1CCCNC1=O

$$$$
Molecule 63_metabolite 71
  CDK     0516241031

 92 95  0  0  0  0  0  0  0  0999 V2000
    5.3311    7.8009    0.0000 C   0  0  0  0  0  0  0  0  0  0  0  0
    4.3670    8.9500    0.0000 H   0  0  0  0  0  0  0  0  0  0  0  0
    4.8181    6.3914    0.0000 H   0  0  0  0  0  0  0  0  0  0  0  0
    6.8083    8.0614    0.0000 C   0  0  0  0  0  0  0  0  0  0  0  0
    7.6497   10.3731    0.0000 C   0  0  0  0  0  0  0  0  0  0  0  0
    6.6855   11.5221    0.0000 H   0  0  0  0  0  0  0  0  0  0  0  0
    8.6139   11.5221    0.0000 H   0  0  0  0  0  0  0  0  0  0  0  0
    8.9488    9.6231    0.0000 H   0  0  0  0  0  0  0  0  0  0  0  0
    7.7725    6.9124    0.0000 C   0  0  1  0  0  0  0  0  0  0  0  0
    8.7367    8.0614    0.0000 H   0  0  0  0  0  0  0  0  0  0  0  0
    5.2264    5.4424    0.0000 C   0  0  0  0  0  0  0  0  0  0  0  0
    5.2264    3.9424    0.0000 O   0  0  0  0  0  0  0  0  0  0  0  0
    3.9274    6.1924    0.0000 N   0  0  0  0  0  0  0  0  0  0  0  0
    3.9274    7.6924    0.0000 H   0  0  0  0  0  0  0  0  0  0  0  0
    2.2126    5.2024    0.0000 C   0  0  1  0  0  0  0  0  0  0  0  0
    3.1768    4.0533    0.0000 H   0  0  0  0  0  0  0  0  0  0  0  0
    1.2485    4.0533    0.0000 C   0  0  0  0  0  0  0  0  0  0  0  0
    0.2843    5.2024    0.0000 H   0  0  0  0  0  0  0  0  0  0  0  0
   -0.0506    3.3033    0.0000 H   0  0  0  0  0  0  0  0  0  0  0  0
    1.7615    2.6437    0.0000 C   0  0  0  0  0  0  0  0  0  0  0  0
    3.2396    2.3836    0.0000 C   0  0  0  0  0  0  0  0  0  0  0  0
    4.2036    3.5328    0.0000 H   0  0  0  0  0  0  0  0  0  0  0  0
    3.7526    0.9741    0.0000 C   0  0  0  0  0  0  0  0  0  0  0  0
    5.2298    0.7134    0.0000 H   0  0  0  0  0  0  0  0  0  0  0  0
    2.7876   -0.1753    0.0000 C   0  0  0  0  0  0  0  0  0  0  0  0
    3.3006   -1.5849    0.0000 H   0  0  0  0  0  0  0  0  0  0  0  0
    1.3094    0.0848    0.0000 C   0  0  0  0  0  0  0  0  0  0  0  0
    0.3454   -1.0644    0.0000 H   0  0  0  0  0  0  0  0  0  0  0  0
    0.7964    1.4944    0.0000 C   0  0  0  0  0  0  0  0  0  0  0  0
   -0.6808    1.7551    0.0000 H   0  0  0  0  0  0  0  0  0  0  0  0
   -0.3335    6.6724    0.0000 C   0  0  0  0  0  0  0  0  0  0  0  0
   -1.8107    6.9328    0.0000 H   0  0  0  0  0  0  0  0  0  0  0  0
   -0.8465    5.2628    0.0000 H   0  0  0  0  0  0  0  0  0  0  0  0
   -0.3335    8.1724    0.0000 C   0  0  1  0  0  0  0  0  0  0  0  0
    1.1437    7.9119    0.0000 H   0  0  0  0  0  0  0  0  0  0  0  0
   -2.8796    9.6424    0.0000 C   0  0  2  0  0  0  0  0  0  0  0  0
   -3.8438   10.7914    0.0000 H   0  0  0  0  0  0  0  0  0  0  0  0
   -1.9154   10.7914    0.0000 C   0  0  0  0  0  0  0  0  0  0  0  0
   -0.6164   11.5414    0.0000 H   0  0  0  0  0  0  0  0  0  0  0  0
   -0.9512    9.6424    0.0000 H   0  0  0  0  0  0  0  0  0  0  0  0
   -2.4284   12.2010    0.0000 C   0  0  0  0  0  0  0  0  0  0  0  0
   -1.4633   13.3504    0.0000 C   0  0  0  0  0  0  0  0  0  0  0  0
    0.0138   13.0896    0.0000 H   0  0  0  0  0  0  0  0  0  0  0  0
   -1.9764   14.7599    0.0000 C   0  0  0  0  0  0  0  0  0  0  0  0
   -1.0124   15.9091    0.0000 H   0  0  0  0  0  0  0  0  0  0  0  0
   -3.4545   15.0200    0.0000 C   0  0  0  0  0  0  0  0  0  0  0  0
   -3.9675   16.4296    0.0000 H   0  0  0  0  0  0  0  0  0  0  0  0
   -4.4196   13.8706    0.0000 C   0  0  0  0  0  0  0  0  0  0  0  0
   -5.8967   14.1314    0.0000 H   0  0  0  0  0  0  0  0  0  0  0  0
   -3.9065   12.4611    0.0000 C   0  0  0  0  0  0  0  0  0  0  0  0
   -4.8705   11.3119    0.0000 H   0  0  0  0  0  0  0  0  0  0  0  0
   -4.5943    8.6524    0.0000 N   0  0  0  0  0  0  0  0  0  0  0  0
   -4.5943    7.1524    0.0000 H   0  0  0  0  0  0  0  0  0  0  0  0
   -5.8934    9.4024    0.0000 C   0  0  0  0  0  0  0  0  0  0  0  0
   -5.8934   10.9024    0.0000 O   0  0  0  0  0  0  0  0  0  0  0  0
   -7.1924    8.6524    0.0000 C   0  0  0  0  0  0  0  0  0  0  0  0
   -6.2282    7.5033    0.0000 H   0  0  0  0  0  0  0  0  0  0  0  0
   -8.1566    7.5033    0.0000 H   0  0  0  0  0  0  0  0  0  0  0  0
   -8.4914    9.4024    0.0000 O   0  0  0  0  0  0  0  0  0  0  0  0
   -9.7905    8.6524    0.0000 C   0  0  0  0  0  0  0  0  0  0  0  0
   -9.7789    7.1535    0.0000 C   0  0  0  0  0  0  0  0  0  0  0  0
   -8.4728    6.4157    0.0000 C   0  0  0  0  0  0  0  0  0  0  0  0
   -7.1809    7.1780    0.0000 H   0  0  0  0  0  0  0  0  0  0  0  0
   -9.4262    5.2576    0.0000 H   0  0  0  0  0  0  0  0  0  0  0  0
   -7.4979    5.2758    0.0000 H   0  0  0  0  0  0  0  0  0  0  0  0
  -11.0526    6.3991    0.0000 C   0  0  0  0  0  0  0  0  0  0  0  0
  -11.0405    4.8991    0.0000 H   0  0  0  0  0  0  0  0  0  0  0  0
  -12.3272    7.1266    0.0000 C   0  0  0  0  0  0  0  0  0  0  0  0
  -13.6114    6.3513    0.0000 H   0  0  0  0  0  0  0  0  0  0  0  0
  -12.3781    8.6129    0.0000 C   0  0  0  0  0  0  0  0  0  0  0  0
  -13.7010    9.3199    0.0000 H   0  0  0  0  0  0  0  0  0  0  0  0
  -11.0862    9.4139    0.0000 C   0  0  0  0  0  0  0  0  0  0  0  0
  -11.1040   10.9138    0.0000 C   0  0  0  0  0  0  0  0  0  0  0  0
  -12.4118   11.6483    0.0000 H   0  0  0  0  0  0  0  0  0  0  0  0
  -10.6077   12.3293    0.0000 H   0  0  0  0  0  0  0  0  0  0  0  0
   -9.6238   10.6708    0.0000 H   0  0  0  0  0  0  0  0  0  0  0  0
    0.1796    9.5819    0.0000 O   0  0  0  0  0  0  0  0  0  0  0  0
    1.6568    9.8424    0.0000 H   0  0  0  0  0  0  0  0  0  0  0  0
    9.0716    6.1624    0.0000 N   0  0  0  0  0  0  0  0  0  0  0  0
    9.0711    4.6615    0.0000 C   0  0  0  0  0  0  0  0  0  0  0  0
    7.5939    4.9223    0.0000 H   0  0  0  0  0  0  0  0  0  0  0  0
    8.5579    3.2520    0.0000 H   0  0  0  0  0  0  0  0  0  0  0  0
   10.3701    3.9115    0.0000 C   0  0  0  0  0  0  0  0  0  0  0  0
    9.4061    2.7624    0.0000 H   0  0  0  0  0  0  0  0  0  0  0  0
   11.3345    2.7627    0.0000 H   0  0  0  0  0  0  0  0  0  0  0  0
   11.6696    4.6624    0.0000 C   0  0  0  0  0  0  0  0  0  0  0  0
   12.1828    3.2529    0.0000 H   0  0  0  0  0  0  0  0  0  0  0  0
   13.1469    4.9227    0.0000 H   0  0  0  0  0  0  0  0  0  0  0  0
   11.6701    6.1632    0.0000 N   0  0  0  0  0  0  0  0  0  0  0  0
   12.9693    6.9130    0.0000 H   0  0  0  0  0  0  0  0  0  0  0  0
   10.3711    6.9132    0.0000 C   0  0  0  0  0  0  0  0  0  0  0  0
   10.3708    8.4132    0.0000 O   0  0  0  0  0  0  0  0  0  0  0  0
  1  2  1  0  0  0  0 
  1  3  1  0  0  0  0 
  1  4  2  0  0  0  0 
  4  5  1  0  0  0  0 
  5  6  1  0  0  0  0 
  5  7  1  0  0  0  0 
  5  8  1  0  0  0  0 
  4  9  1  0  0  0  0 
  9 10  1  1  0  0  0 
  9 11  1  0  0  0  0 
 11 12  2  0  0  0  0 
 11 13  1  0  0  0  0 
 13 14  1  0  0  0  0 
 15 13  1  1  0  0  0 
 15 16  1  6  0  0  0 
 15 17  1  0  0  0  0 
 17 18  1  0  0  0  0 
 17 19  1  0  0  0  0 
 17 20  1  0  0  0  0 
 20 21  2  0  0  0  0 
 21 22  1  0  0  0  0 
 21 23  1  0  0  0  0 
 23 24  1  0  0  0  0 
 23 25  2  0  0  0  0 
 25 26  1  0  0  0  0 
 25 27  1  0  0  0  0 
 27 28  1  0  0  0  0 
 27 29  2  0  0  0  0 
 20 29  1  0  0  0  0 
 29 30  1  0  0  0  0 
 15 31  1  0  0  0  0 
 31 32  1  0  0  0  0 
 31 33  1  0  0  0  0 
 31 34  1  0  0  0  0 
 34 35  1  6  0  0  0 
 34 36  1  0  0  0  0 
 36 37  1  6  0  0  0 
 36 38  1  0  0  0  0 
 38 39  1  0  0  0  0 
 38 40  1  0  0  0  0 
 38 41  1  0  0  0  0 
 41 42  2  0  0  0  0 
 42 43  1  0  0  0  0 
 42 44  1  0  0  0  0 
 44 45  1  0  0  0  0 
 44 46  2  0  0  0  0 
 46 47  1  0  0  0  0 
 46 48  1  0  0  0  0 
 48 49  1  0  0  0  0 
 48 50  2  0  0  0  0 
 41 50  1  0  0  0  0 
 50 51  1  0  0  0  0 
 36 52  1  1  0  0  0 
 52 53  1  0  0  0  0 
 52 54  1  0  0  0  0 
 54 55  2  0  0  0  0 
 54 56  1  0  0  0  0 
 56 57  1  0  0  0  0 
 56 58  1  0  0  0  0 
 56 59  1  0  0  0  0 
 59 60  1  0  0  0  0 
 60 61  2  0  0  0  0 
 61 62  1  0  0  0  0 
 62 63  1  0  0  0  0 
 62 64  1  0  0  0  0 
 62 65  1  0  0  0  0 
 61 66  1  0  0  0  0 
 66 67  1  0  0  0  0 
 66 68  2  0  0  0  0 
 68 69  1  0  0  0  0 
 68 70  1  0  0  0  0 
 70 71  1  0  0  0  0 
 70 72  2  0  0  0  0 
 60 72  1  0  0  0  0 
 72 73  1  0  0  0  0 
 73 74  1  0  0  0  0 
 73 75  1  0  0  0  0 
 73 76  1  0  0  0  0 
 34 77  1  1  0  0  0 
 77 78  1  0  0  0  0 
  9 79  1  6  0  0  0 
 79 80  1  0  0  0  0 
 80 81  1  0  0  0  0 
 80 82  1  0  0  0  0 
 80 83  1  0  0  0  0 
 83 84  1  0  0  0  0 
 83 85  1  0  0  0  0 
 83 86  1  0  0  0  0 
 86 87  1  0  0  0  0 
 86 88  1  0  0  0  0 
 86 89  1  0  0  0  0 
 89 90  1  0  0  0  0 
 89 91  1  0  0  0  0 
 79 91  1  0  0  0  0 
 91 92  2  0  0  0  0 
M  END
> <Rank>
70

> <Priority_score>
0.008

> <Reaction_type>
alkyl dehydrogenation

> <Parent_ID>
63

> <Parent_InChI>
InChI=1S/C37H48N4O5/c1-25(2)34(41-20-12-19-38-37(41)45)36(44)39-30(21-28-15-7-5-8-16-28)23-32(42)31(22-29-17-9-6-10-18-29)40-33(43)24-46-35-26(3)13-11-14-27(35)4/h5-11,13-18,25,30-32,34,42H,12,19-24H2,1-4H3,(H,38,45)(H,39,44)(H,40,43)

> <Parent_SMILES>
Cc1cccc(C)c1OCC(=O)N[C@@H](Cc1ccccc1)[C@@H](O)C[C@H](Cc1ccccc1)NC(=O)[C@H](C(C)C)N1CCCNC1=O

$$$$
Molecule 63_metabolite 72
  CDK     0516241031

 96 98  0  0  0  0  0  0  0  0999 V2000
    0.0388    8.7492    0.0000 C   0  0  0  0  0  0  0  0  0  0  0  0
   -1.4384    9.0097    0.0000 H   0  0  0  0  0  0  0  0  0  0  0  0
    1.5160    9.0097    0.0000 H   0  0  0  0  0  0  0  0  0  0  0  0
    0.0388   10.2492    0.0000 H   0  0  0  0  0  0  0  0  0  0  0  0
    0.8802    6.4375    0.0000 C   0  0  0  0  0  0  0  0  0  0  0  0
    0.8802    4.9375    0.0000 H   0  0  0  0  0  0  0  0  0  0  0  0
   -0.5970    6.1771    0.0000 C   0  0  0  0  0  0  0  0  0  0  0  0
   -1.1101    4.7675    0.0000 H   0  0  0  0  0  0  0  0  0  0  0  0
   -0.5970    7.6771    0.0000 H   0  0  0  0  0  0  0  0  0  0  0  0
   -2.0743    6.4375    0.0000 H   0  0  0  0  0  0  0  0  0  0  0  0
    2.3574    6.1771    0.0000 C   0  0  1  0  0  0  0  0  0  0  0  0
    2.3574    7.6771    0.0000 H   0  0  0  0  0  0  0  0  0  0  0  0
    1.6802    4.3165    0.0000 C   0  0  0  0  0  0  0  0  0  0  0  0
    0.2030    4.0560    0.0000 O   0  0  0  0  0  0  0  0  0  0  0  0
    2.6444    3.1674    0.0000 N   0  0  0  0  0  0  0  0  0  0  0  0
    4.1216    3.4279    0.0000 H   0  0  0  0  0  0  0  0  0  0  0  0
    1.9672    1.3068    0.0000 C   0  0  1  0  0  0  0  0  0  0  0  0
    0.6681    2.0568    0.0000 H   0  0  0  0  0  0  0  0  0  0  0  0
    3.8570   -0.9454    0.0000 C   0  0  0  0  0  0  0  0  0  0  0  0
    4.3700   -2.3549    0.0000 H   0  0  0  0  0  0  0  0  0  0  0  0
    2.5579   -1.6954    0.0000 H   0  0  0  0  0  0  0  0  0  0  0  0
    5.3342   -0.6849    0.0000 C   0  0  0  0  0  0  0  0  0  0  0  0
    6.2985   -1.8349    0.0000 C   0  0  0  0  0  0  0  0  0  0  0  0
    5.7853   -3.2444    0.0000 H   0  0  0  0  0  0  0  0  0  0  0  0
    7.7757   -1.5744    0.0000 C   0  0  0  0  0  0  0  0  0  0  0  0
    8.7401   -2.7233    0.0000 H   0  0  0  0  0  0  0  0  0  0  0  0
    8.2886   -0.1639    0.0000 C   0  0  0  0  0  0  0  0  0  0  0  0
    9.7658    0.0965    0.0000 H   0  0  0  0  0  0  0  0  0  0  0  0
    7.3242    0.9861    0.0000 C   0  0  0  0  0  0  0  0  0  0  0  0
    7.8375    2.3955    0.0000 H   0  0  0  0  0  0  0  0  0  0  0  0
    5.8470    0.7256    0.0000 C   0  0  0  0  0  0  0  0  0  0  0  0
    4.8827    1.8745    0.0000 H   0  0  0  0  0  0  0  0  0  0  0  0
    1.0030    0.1577    0.0000 C   0  0  0  0  0  0  0  0  0  0  0  0
    2.3020   -0.5923    0.0000 H   0  0  0  0  0  0  0  0  0  0  0  0
    0.4899   -1.2518    0.0000 H   0  0  0  0  0  0  0  0  0  0  0  0
   -0.9469    0.5016    0.0000 C   0  0  1  0  0  0  0  0  0  0  0  0
   -2.2460    1.2516    0.0000 H   0  0  0  0  0  0  0  0  0  0  0  0
   -2.2197   -1.0152    0.0000 C   0  0  2  0  0  0  0  0  0  0  0  0
   -0.9206   -1.7652    0.0000 H   0  0  0  0  0  0  0  0  0  0  0  0
   -2.8969   -2.8758    0.0000 C   0  0  0  0  0  0  0  0  0  0  0  0
   -4.1959   -2.1258    0.0000 H   0  0  0  0  0  0  0  0  0  0  0  0
   -3.8610   -4.0249    0.0000 H   0  0  0  0  0  0  0  0  0  0  0  0
   -1.9327   -4.0249    0.0000 C   0  0  0  0  0  0  0  0  0  0  0  0
   -0.4547   -3.7638    0.0000 C   0  0  0  0  0  0  0  0  0  0  0  0
    0.0581   -2.3541    0.0000 H   0  0  0  0  0  0  0  0  0  0  0  0
    0.5095   -4.9128    0.0000 C   0  0  0  0  0  0  0  0  0  0  0  0
    1.9867   -4.6526    0.0000 H   0  0  0  0  0  0  0  0  0  0  0  0
   -0.0043   -6.3230    0.0000 C   0  0  0  0  0  0  0  0  0  0  0  0
    0.9599   -7.4721    0.0000 H   0  0  0  0  0  0  0  0  0  0  0  0
   -1.4823   -6.5841    0.0000 C   0  0  0  0  0  0  0  0  0  0  0  0
   -1.9951   -7.9937    0.0000 H   0  0  0  0  0  0  0  0  0  0  0  0
   -2.4464   -5.4350    0.0000 C   0  0  0  0  0  0  0  0  0  0  0  0
   -3.9237   -5.6952    0.0000 H   0  0  0  0  0  0  0  0  0  0  0  0
   -4.1696   -0.6714    0.0000 N   0  0  0  0  0  0  0  0  0  0  0  0
   -5.1338   -1.8204    0.0000 H   0  0  0  0  0  0  0  0  0  0  0  0
   -4.6826    0.7382    0.0000 C   0  0  0  0  0  0  0  0  0  0  0  0
   -3.7184    1.8872    0.0000 O   0  0  0  0  0  0  0  0  0  0  0  0
   -6.1598    0.9986    0.0000 C   0  0  0  0  0  0  0  0  0  0  0  0
   -7.6370    0.7382    0.0000 H   0  0  0  0  0  0  0  0  0  0  0  0
   -6.1598   -0.5014    0.0000 H   0  0  0  0  0  0  0  0  0  0  0  0
   -6.6729    2.4082    0.0000 O   0  0  0  0  0  0  0  0  0  0  0  0
   -8.1501    2.6686    0.0000 C   0  0  0  0  0  0  0  0  0  0  0  0
   -9.1047    1.5130    0.0000 C   0  0  0  0  0  0  0  0  0  0  0  0
   -8.5784    0.1084    0.0000 C   0  0  0  0  0  0  0  0  0  0  0  0
   -7.0988   -0.1382    0.0000 H   0  0  0  0  0  0  0  0  0  0  0  0
  -10.0531   -0.1660    0.0000 H   0  0  0  0  0  0  0  0  0  0  0  0
   -8.5642   -1.3916    0.0000 H   0  0  0  0  0  0  0  0  0  0  0  0
  -10.5653    1.7538    0.0000 C   0  0  0  0  0  0  0  0  0  0  0  0
  -11.5201    0.5970    0.0000 H   0  0  0  0  0  0  0  0  0  0  0  0
  -11.0741    3.1305    0.0000 C   0  0  0  0  0  0  0  0  0  0  0  0
  -12.5561    3.3620    0.0000 H   0  0  0  0  0  0  0  0  0  0  0  0
  -10.1576    4.3017    0.0000 C   0  0  0  0  0  0  0  0  0  0  0  0
  -10.7166    5.6937    0.0000 H   0  0  0  0  0  0  0  0  0  0  0  0
   -8.6532    4.0849    0.0000 C   0  0  0  0  0  0  0  0  0  0  0  0
   -7.7027    5.2453    0.0000 C   0  0  0  0  0  0  0  0  0  0  0  0
   -8.2324    6.6487    0.0000 H   0  0  0  0  0  0  0  0  0  0  0  0
   -6.4126    6.0106    0.0000 H   0  0  0  0  0  0  0  0  0  0  0  0
   -6.7250    4.1077    0.0000 H   0  0  0  0  0  0  0  0  0  0  0  0
   -0.4339    1.9111    0.0000 O   0  0  0  0  0  0  0  0  0  0  0  0
   -1.3981    3.0602    0.0000 H   0  0  0  0  0  0  0  0  0  0  0  0
    4.7800    6.6042    0.0000 N   0  0  0  0  0  0  0  0  0  0  0  0
    5.7442    5.4552    0.0000 H   0  0  0  0  0  0  0  0  0  0  0  0
    5.2930    8.0138    0.0000 C   0  0  0  0  0  0  0  0  0  0  0  0
    3.8158    8.2743    0.0000 H   0  0  0  0  0  0  0  0  0  0  0  0
    5.2930    9.5138    0.0000 H   0  0  0  0  0  0  0  0  0  0  0  0
    7.7157    8.4410    0.0000 C   0  0  0  0  0  0  0  0  0  0  0  0
    9.1929    8.1805    0.0000 H   0  0  0  0  0  0  0  0  0  0  0  0
    7.7157    6.9410    0.0000 H   0  0  0  0  0  0  0  0  0  0  0  0
    8.2287    9.8505    0.0000 C   0  0  0  0  0  0  0  0  0  0  0  0
    6.7515   10.1110    0.0000 H   0  0  0  0  0  0  0  0  0  0  0  0
    8.2287   11.3505    0.0000 H   0  0  0  0  0  0  0  0  0  0  0  0
    9.7059   10.1110    0.0000 N   0  0  0  0  0  0  0  0  0  0  0  0
   10.6701    8.9619    0.0000 H   0  0  0  0  0  0  0  0  0  0  0  0
   10.2189   11.5205    0.0000 C   0  0  0  0  0  0  0  0  0  0  0  0
   11.6961   11.7810    0.0000 H   0  0  0  0  0  0  0  0  0  0  0  0
    9.2548   12.6696    0.0000 O   0  0  0  0  0  0  0  0  0  0  0  0
  1  2  1  0  0  0  0 
  1  3  1  0  0  0  0 
  1  4  1  0  0  0  0 
  1  5  1  0  0  0  0 
  5  6  1  0  0  0  0 
  5  7  1  0  0  0  0 
  7  8  1  0  0  0  0 
  7  9  1  0  0  0  0 
  7 10  1  0  0  0  0 
  5 11  1  0  0  0  0 
 11 12  1  1  0  0  0 
 11 13  1  0  0  0  0 
 13 14  2  0  0  0  0 
 13 15  1  0  0  0  0 
 15 16  1  0  0  0  0 
 17 15  1  1  0  0  0 
 17 18  1  6  0  0  0 
 17 19  1  0  0  0  0 
 19 20  1  0  0  0  0 
 19 21  1  0  0  0  0 
 19 22  1  0  0  0  0 
 22 23  2  0  0  0  0 
 23 24  1  0  0  0  0 
 23 25  1  0  0  0  0 
 25 26  1  0  0  0  0 
 25 27  2  0  0  0  0 
 27 28  1  0  0  0  0 
 27 29  1  0  0  0  0 
 29 30  1  0  0  0  0 
 29 31  2  0  0  0  0 
 22 31  1  0  0  0  0 
 31 32  1  0  0  0  0 
 17 33  1  0  0  0  0 
 33 34  1  0  0  0  0 
 33 35  1  0  0  0  0 
 33 36  1  0  0  0  0 
 36 37  1  6  0  0  0 
 36 38  1  0  0  0  0 
 38 39  1  1  0  0  0 
 38 40  1  6  0  0  0 
 40 41  1  0  0  0  0 
 40 42  1  0  0  0  0 
 40 43  1  0  0  0  0 
 43 44  2  0  0  0  0 
 44 45  1  0  0  0  0 
 44 46  1  0  0  0  0 
 46 47  1  0  0  0  0 
 46 48  2  0  0  0  0 
 48 49  1  0  0  0  0 
 48 50  1  0  0  0  0 
 50 51  1  0  0  0  0 
 50 52  2  0  0  0  0 
 43 52  1  0  0  0  0 
 52 53  1  0  0  0  0 
 38 54  1  0  0  0  0 
 54 55  1  0  0  0  0 
 54 56  1  0  0  0  0 
 56 57  2  0  0  0  0 
 56 58  1  0  0  0  0 
 58 59  1  0  0  0  0 
 58 60  1  0  0  0  0 
 58 61  1  0  0  0  0 
 61 62  1  0  0  0  0 
 62 63  2  0  0  0  0 
 63 64  1  0  0  0  0 
 64 65  1  0  0  0  0 
 64 66  1  0  0  0  0 
 64 67  1  0  0  0  0 
 63 68  1  0  0  0  0 
 68 69  1  0  0  0  0 
 68 70  2  0  0  0  0 
 70 71  1  0  0  0  0 
 70 72  1  0  0  0  0 
 72 73  1  0  0  0  0 
 72 74  2  0  0  0  0 
 62 74  1  0  0  0  0 
 74 75  1  0  0  0  0 
 75 76  1  0  0  0  0 
 75 77  1  0  0  0  0 
 75 78  1  0  0  0  0 
 36 79  1  1  0  0  0 
 79 80  1  0  0  0  0 
 11 81  1  6  0  0  0 
 81 82  1  0  0  0  0 
 81 83  1  0  0  0  0 
 83 84  1  0  0  0  0 
 83 85  1  0  0  0  0 
 83 86  1  0  0  0  0 
 86 87  1  0  0  0  0 
 86 88  1  0  0  0  0 
 86 89  1  0  0  0  0 
 89 90  1  0  0  0  0 
 89 91  1  0  0  0  0 
 89 92  1  0  0  0  0 
 92 93  1  0  0  0  0 
 92 94  1  0  0  0  0 
 94 95  1  0  0  0  0 
 94 96  2  0  0  0  0 
M  END
> <Rank>
72

> <Priority_score>
0.0064

> <Reaction_type>
carbamide cleavage

> <Parent_ID>
63

> <Parent_InChI>
InChI=1S/C37H48N4O5/c1-25(2)34(41-20-12-19-38-37(41)45)36(44)39-30(21-28-15-7-5-8-16-28)23-32(42)31(22-29-17-9-6-10-18-29)40-33(43)24-46-35-26(3)13-11-14-27(35)4/h5-11,13-18,25,30-32,34,42H,12,19-24H2,1-4H3,(H,38,45)(H,39,44)(H,40,43)

> <Parent_SMILES>
Cc1cccc(C)c1OCC(=O)N[C@@H](Cc1ccccc1)[C@@H](O)C[C@H](Cc1ccccc1)NC(=O)[C@H](C(C)C)N1CCCNC1=O

$$$$
Molecule 63_metabolite 73
  CDK     0516241031

 96 98  0  0  0  0  0  0  0  0999 V2000
   -4.7054   -8.2445    0.0000 C   0  0  0  0  0  0  0  0  0  0  0  0
   -3.4063   -8.9945    0.0000 H   0  0  0  0  0  0  0  0  0  0  0  0
   -6.1826   -7.9840    0.0000 H   0  0  0  0  0  0  0  0  0  0  0  0
   -5.2184   -9.6540    0.0000 H   0  0  0  0  0  0  0  0  0  0  0  0
   -4.7054   -5.7845    0.0000 C   0  0  0  0  0  0  0  0  0  0  0  0
   -4.1923   -4.3749    0.0000 H   0  0  0  0  0  0  0  0  0  0  0  0
   -3.2282   -6.0449    0.0000 C   0  0  0  0  0  0  0  0  0  0  0  0
   -2.7151   -7.4545    0.0000 H   0  0  0  0  0  0  0  0  0  0  0  0
   -3.2282   -4.5449    0.0000 H   0  0  0  0  0  0  0  0  0  0  0  0
   -1.7509   -5.7845    0.0000 H   0  0  0  0  0  0  0  0  0  0  0  0
   -6.0044   -5.0345    0.0000 C   0  0  1  0  0  0  0  0  0  0  0  0
   -6.5174   -6.4440    0.0000 H   0  0  0  0  0  0  0  0  0  0  0  0
   -4.7317   -3.5177    0.0000 C   0  0  0  0  0  0  0  0  0  0  0  0
   -5.2447   -2.1082    0.0000 O   0  0  0  0  0  0  0  0  0  0  0  0
   -3.2545   -3.7782    0.0000 N   0  0  0  0  0  0  0  0  0  0  0  0
   -2.7414   -5.1877    0.0000 H   0  0  0  0  0  0  0  0  0  0  0  0
   -2.2903   -2.6291    0.0000 C   0  0  1  0  0  0  0  0  0  0  0  0
   -3.5893   -1.8791    0.0000 H   0  0  0  0  0  0  0  0  0  0  0  0
    0.6050   -3.1396    0.0000 C   0  0  0  0  0  0  0  0  0  0  0  0
    1.9041   -3.8896    0.0000 H   0  0  0  0  0  0  0  0  0  0  0  0
    0.0920   -4.5492    0.0000 H   0  0  0  0  0  0  0  0  0  0  0  0
    1.9041   -2.3896    0.0000 C   0  0  0  0  0  0  0  0  0  0  0  0
    3.2036   -3.1405    0.0000 C   0  0  0  0  0  0  0  0  0  0  0  0
    3.2034   -4.6405    0.0000 H   0  0  0  0  0  0  0  0  0  0  0  0
    4.5026   -2.3905    0.0000 C   0  0  0  0  0  0  0  0  0  0  0  0
    5.8018   -3.1402    0.0000 H   0  0  0  0  0  0  0  0  0  0  0  0
    4.5022   -0.8896    0.0000 C   0  0  0  0  0  0  0  0  0  0  0  0
    5.8012   -0.1396    0.0000 H   0  0  0  0  0  0  0  0  0  0  0  0
    3.2026   -0.1388    0.0000 C   0  0  0  0  0  0  0  0  0  0  0  0
    3.2029    1.3612    0.0000 H   0  0  0  0  0  0  0  0  0  0  0  0
    1.9036   -0.8888    0.0000 C   0  0  0  0  0  0  0  0  0  0  0  0
    0.6044   -0.1390    0.0000 H   0  0  0  0  0  0  0  0  0  0  0  0
   -1.6131   -0.7685    0.0000 C   0  0  0  0  0  0  0  0  0  0  0  0
   -0.3141   -1.5185    0.0000 H   0  0  0  0  0  0  0  0  0  0  0  0
   -0.6489    0.3806    0.0000 H   0  0  0  0  0  0  0  0  0  0  0  0
   -2.8858    0.7483    0.0000 C   0  0  1  0  0  0  0  0  0  0  0  0
   -4.1849    1.4983    0.0000 H   0  0  0  0  0  0  0  0  0  0  0  0
   -2.2086    2.6089    0.0000 C   0  0  2  0  0  0  0  0  0  0  0  0
   -0.9096    1.8589    0.0000 H   0  0  0  0  0  0  0  0  0  0  0  0
   -0.9359    4.1256    0.0000 C   0  0  0  0  0  0  0  0  0  0  0  0
    0.0283    2.9766    0.0000 H   0  0  0  0  0  0  0  0  0  0  0  0
    0.3631    4.8756    0.0000 H   0  0  0  0  0  0  0  0  0  0  0  0
   -0.9359    5.6256    0.0000 C   0  0  0  0  0  0  0  0  0  0  0  0
   -2.2359    6.3756    0.0000 C   0  0  0  0  0  0  0  0  0  0  0  0
   -3.5348    5.6254    0.0000 H   0  0  0  0  0  0  0  0  0  0  0  0
   -2.2359    7.8756    0.0000 C   0  0  0  0  0  0  0  0  0  0  0  0
   -3.5348    8.6258    0.0000 H   0  0  0  0  0  0  0  0  0  0  0  0
   -0.9359    8.6256    0.0000 C   0  0  0  0  0  0  0  0  0  0  0  0
   -0.9359   10.1256    0.0000 H   0  0  0  0  0  0  0  0  0  0  0  0
    0.3641    7.8756    0.0000 C   0  0  0  0  0  0  0  0  0  0  0  0
    1.6630    8.6258    0.0000 H   0  0  0  0  0  0  0  0  0  0  0  0
    0.3641    6.3756    0.0000 C   0  0  0  0  0  0  0  0  0  0  0  0
    1.6630    5.6254    0.0000 H   0  0  0  0  0  0  0  0  0  0  0  0
   -3.1728    3.7579    0.0000 N   0  0  0  0  0  0  0  0  0  0  0  0
   -2.6598    5.1675    0.0000 H   0  0  0  0  0  0  0  0  0  0  0  0
   -4.6500    3.4974    0.0000 C   0  0  0  0  0  0  0  0  0  0  0  0
   -5.1630    2.0879    0.0000 O   0  0  0  0  0  0  0  0  0  0  0  0
   -5.6142    4.6465    0.0000 C   0  0  0  0  0  0  0  0  0  0  0  0
   -6.1272    6.0561    0.0000 H   0  0  0  0  0  0  0  0  0  0  0  0
   -4.3152    5.3965    0.0000 H   0  0  0  0  0  0  0  0  0  0  0  0
   -7.0914    4.3860    0.0000 O   0  0  0  0  0  0  0  0  0  0  0  0
   -8.0556    5.5351    0.0000 C   0  0  0  0  0  0  0  0  0  0  0  0
   -7.5321    6.9396    0.0000 C   0  0  0  0  0  0  0  0  0  0  0  0
   -6.0525    7.1862    0.0000 C   0  0  0  0  0  0  0  0  0  0  0  0
   -5.0992    6.0281    0.0000 H   0  0  0  0  0  0  0  0  0  0  0  0
   -6.5522    8.6005    0.0000 H   0  0  0  0  0  0  0  0  0  0  0  0
   -4.7464    7.9239    0.0000 H   0  0  0  0  0  0  0  0  0  0  0  0
   -8.4709    8.0842    0.0000 C   0  0  0  0  0  0  0  0  0  0  0  0
   -7.9465    9.4895    0.0000 H   0  0  0  0  0  0  0  0  0  0  0  0
   -9.9175    7.8365    0.0000 C   0  0  0  0  0  0  0  0  0  0  0  0
  -10.8590    9.0042    0.0000 H   0  0  0  0  0  0  0  0  0  0  0  0
  -10.4736    6.4572    0.0000 C   0  0  0  0  0  0  0  0  0  0  0  0
  -11.9586    6.2453    0.0000 H   0  0  0  0  0  0  0  0  0  0  0  0
   -9.5337    5.2627    0.0000 C   0  0  0  0  0  0  0  0  0  0  0  0
  -10.0633    3.8593    0.0000 C   0  0  0  0  0  0  0  0  0  0  0  0
  -11.5435    3.6164    0.0000 H   0  0  0  0  0  0  0  0  0  0  0  0
  -10.0811    2.3594    0.0000 H   0  0  0  0  0  0  0  0  0  0  0  0
   -8.5893    3.5814    0.0000 H   0  0  0  0  0  0  0  0  0  0  0  0
   -3.8500   -0.4008    0.0000 O   0  0  0  0  0  0  0  0  0  0  0  0
   -5.3272   -0.1403    0.0000 H   0  0  0  0  0  0  0  0  0  0  0  0
   -7.4816   -4.7740    0.0000 N   0  0  0  0  0  0  0  0  0  0  0  0
   -9.0629   -6.6585    0.0000 C   0  0  0  0  0  0  0  0  0  0  0  0
   -7.7638   -7.4085    0.0000 H   0  0  0  0  0  0  0  0  0  0  0  0
   -9.5759   -8.0680    0.0000 H   0  0  0  0  0  0  0  0  0  0  0  0
  -11.4855   -6.2313    0.0000 C   0  0  0  0  0  0  0  0  0  0  0  0
  -12.7845   -5.4813    0.0000 H   0  0  0  0  0  0  0  0  0  0  0  0
  -10.9725   -4.8217    0.0000 H   0  0  0  0  0  0  0  0  0  0  0  0
  -12.4497   -7.3803    0.0000 C   0  0  0  0  0  0  0  0  0  0  0  0
  -11.1506   -8.1303    0.0000 H   0  0  0  0  0  0  0  0  0  0  0  0
  -12.9627   -8.7899    0.0000 H   0  0  0  0  0  0  0  0  0  0  0  0
  -13.9269   -7.1199    0.0000 N   0  0  0  0  0  0  0  0  0  0  0  0
  -14.8911   -8.2689    0.0000 H   0  0  0  0  0  0  0  0  0  0  0  0
  -14.4399   -5.7103    0.0000 H   0  0  0  0  0  0  0  0  0  0  0  0
   -7.9946   -3.3644    0.0000 C   0  0  0  0  0  0  0  0  0  0  0  0
   -9.4719   -3.1040    0.0000 H   0  0  0  0  0  0  0  0  0  0  0  0
   -7.0305   -2.2154    0.0000 O   0  0  0  0  0  0  0  0  0  0  0  0
  1  2  1  0  0  0  0 
  1  3  1  0  0  0  0 
  1  4  1  0  0  0  0 
  1  5  1  0  0  0  0 
  5  6  1  0  0  0  0 
  5  7  1  0  0  0  0 
  7  8  1  0  0  0  0 
  7  9  1  0  0  0  0 
  7 10  1  0  0  0  0 
  5 11  1  0  0  0  0 
 11 12  1  1  0  0  0 
 11 13  1  0  0  0  0 
 13 14  2  0  0  0  0 
 13 15  1  0  0  0  0 
 15 16  1  0  0  0  0 
 17 15  1  6  0  0  0 
 17 18  1  1  0  0  0 
 17 19  1  0  0  0  0 
 19 20  1  0  0  0  0 
 19 21  1  0  0  0  0 
 19 22  1  0  0  0  0 
 22 23  2  0  0  0  0 
 23 24  1  0  0  0  0 
 23 25  1  0  0  0  0 
 25 26  1  0  0  0  0 
 25 27  2  0  0  0  0 
 27 28  1  0  0  0  0 
 27 29  1  0  0  0  0 
 29 30  1  0  0  0  0 
 29 31  2  0  0  0  0 
 22 31  1  0  0  0  0 
 31 32  1  0  0  0  0 
 17 33  1  0  0  0  0 
 33 34  1  0  0  0  0 
 33 35  1  0  0  0  0 
 33 36  1  0  0  0  0 
 36 37  1  1  0  0  0 
 36 38  1  0  0  0  0 
 38 39  1  6  0  0  0 
 38 40  1  1  0  0  0 
 40 41  1  0  0  0  0 
 40 42  1  0  0  0  0 
 40 43  1  0  0  0  0 
 43 44  2  0  0  0  0 
 44 45  1  0  0  0  0 
 44 46  1  0  0  0  0 
 46 47  1  0  0  0  0 
 46 48  2  0  0  0  0 
 48 49  1  0  0  0  0 
 48 50  1  0  0  0  0 
 50 51  1  0  0  0  0 
 50 52  2  0  0  0  0 
 43 52  1  0  0  0  0 
 52 53  1  0  0  0  0 
 38 54  1  0  0  0  0 
 54 55  1  0  0  0  0 
 54 56  1  0  0  0  0 
 56 57  2  0  0  0  0 
 56 58  1  0  0  0  0 
 58 59  1  0  0  0  0 
 58 60  1  0  0  0  0 
 58 61  1  0  0  0  0 
 61 62  1  0  0  0  0 
 62 63  2  0  0  0  0 
 63 64  1  0  0  0  0 
 64 65  1  0  0  0  0 
 64 66  1  0  0  0  0 
 64 67  1  0  0  0  0 
 63 68  1  0  0  0  0 
 68 69  1  0  0  0  0 
 68 70  2  0  0  0  0 
 70 71  1  0  0  0  0 
 70 72  1  0  0  0  0 
 72 73  1  0  0  0  0 
 72 74  2  0  0  0  0 
 62 74  1  0  0  0  0 
 74 75  1  0  0  0  0 
 75 76  1  0  0  0  0 
 75 77  1  0  0  0  0 
 75 78  1  0  0  0  0 
 36 79  1  6  0  0  0 
 79 80  1  0  0  0  0 
 11 81  1  6  0  0  0 
 81 82  1  0  0  0  0 
 82 83  1  0  0  0  0 
 82 84  1  0  0  0  0 
 82 85  1  0  0  0  0 
 85 86  1  0  0  0  0 
 85 87  1  0  0  0  0 
 85 88  1  0  0  0  0 
 88 89  1  0  0  0  0 
 88 90  1  0  0  0  0 
 88 91  1  0  0  0  0 
 91 92  1  0  0  0  0 
 91 93  1  0  0  0  0 
 81 94  1  0  0  0  0 
 94 95  1  0  0  0  0 
 94 96  2  0  0  0  0 
M  END
> <Rank>
72

> <Priority_score>
0.0064

> <Reaction_type>
carbamide cleavage

> <Parent_ID>
63

> <Parent_InChI>
InChI=1S/C37H48N4O5/c1-25(2)34(41-20-12-19-38-37(41)45)36(44)39-30(21-28-15-7-5-8-16-28)23-32(42)31(22-29-17-9-6-10-18-29)40-33(43)24-46-35-26(3)13-11-14-27(35)4/h5-11,13-18,25,30-32,34,42H,12,19-24H2,1-4H3,(H,38,45)(H,39,44)(H,40,43)

> <Parent_SMILES>
Cc1cccc(C)c1OCC(=O)N[C@@H](Cc1ccccc1)[C@@H](O)C[C@H](Cc1ccccc1)NC(=O)[C@H](C(C)C)N1CCCNC1=O

$$$$
Molecule 63_metabolite 74
  CDK     0516241031

 92 95  0  0  0  0  0  0  0  0999 V2000
   10.5131   11.7280    0.0000 C   0  0  0  0  0  0  0  0  0  0  0  0
    9.5489   12.8771    0.0000 H   0  0  0  0  0  0  0  0  0  0  0  0
   11.4773   12.8771    0.0000 H   0  0  0  0  0  0  0  0  0  0  0  0
   11.8121   10.9780    0.0000 H   0  0  0  0  0  0  0  0  0  0  0  0
    9.8359    9.8674    0.0000 C   0  0  0  0  0  0  0  0  0  0  0  0
    8.8717    8.7184    0.0000 H   0  0  0  0  0  0  0  0  0  0  0  0
    8.5368   10.6174    0.0000 C   0  0  0  0  0  0  0  0  0  0  0  0
    7.2378    9.8674    0.0000 H   0  0  0  0  0  0  0  0  0  0  0  0
    9.5010   11.7665    0.0000 H   0  0  0  0  0  0  0  0  0  0  0  0
    7.5727   11.7665    0.0000 H   0  0  0  0  0  0  0  0  0  0  0  0
   10.8001    8.7184    0.0000 C   0  0  1  0  0  0  0  0  0  0  0  0
   11.7642    9.8674    0.0000 H   0  0  0  0  0  0  0  0  0  0  0  0
    9.0853    7.7284    0.0000 C   0  0  0  0  0  0  0  0  0  0  0  0
    7.7863    8.4784    0.0000 O   0  0  0  0  0  0  0  0  0  0  0  0
    9.0853    6.2284    0.0000 N   0  0  0  0  0  0  0  0  0  0  0  0
   10.3844    5.4784    0.0000 H   0  0  0  0  0  0  0  0  0  0  0  0
    7.7863    5.4784    0.0000 C   0  0  1  0  0  0  0  0  0  0  0  0
    8.7505    4.3293    0.0000 H   0  0  0  0  0  0  0  0  0  0  0  0
    6.8221    4.3293    0.0000 C   0  0  0  0  0  0  0  0  0  0  0  0
    5.8579    5.4784    0.0000 H   0  0  0  0  0  0  0  0  0  0  0  0
    5.5231    3.5793    0.0000 H   0  0  0  0  0  0  0  0  0  0  0  0
    7.3351    2.9198    0.0000 C   0  0  0  0  0  0  0  0  0  0  0  0
    8.8133    2.6596    0.0000 C   0  0  0  0  0  0  0  0  0  0  0  0
    9.7773    3.8088    0.0000 H   0  0  0  0  0  0  0  0  0  0  0  0
    9.3263    1.2501    0.0000 C   0  0  0  0  0  0  0  0  0  0  0  0
   10.8035    0.9894    0.0000 H   0  0  0  0  0  0  0  0  0  0  0  0
    8.3612    0.1007    0.0000 C   0  0  0  0  0  0  0  0  0  0  0  0
    8.8742   -1.3089    0.0000 H   0  0  0  0  0  0  0  0  0  0  0  0
    6.8831    0.3608    0.0000 C   0  0  0  0  0  0  0  0  0  0  0  0
    5.9191   -0.7884    0.0000 H   0  0  0  0  0  0  0  0  0  0  0  0
    6.3701    1.7704    0.0000 C   0  0  0  0  0  0  0  0  0  0  0  0
    4.8929    2.0311    0.0000 H   0  0  0  0  0  0  0  0  0  0  0  0
    6.4873    6.2284    0.0000 C   0  0  0  0  0  0  0  0  0  0  0  0
    5.5231    7.3774    0.0000 H   0  0  0  0  0  0  0  0  0  0  0  0
    7.4514    7.3774    0.0000 H   0  0  0  0  0  0  0  0  0  0  0  0
    4.7725    5.2384    0.0000 C   0  0  0  0  0  0  0  0  0  0  0  0
    3.0578    6.2284    0.0000 C   0  0  0  0  0  0  0  0  0  0  0  0
    3.0578    8.6884    0.0000 C   0  0  0  0  0  0  0  0  0  0  0  0
    3.5708   10.0979    0.0000 H   0  0  0  0  0  0  0  0  0  0  0  0
    4.5350    8.4279    0.0000 H   0  0  0  0  0  0  0  0  0  0  0  0
    1.7588    9.4384    0.0000 C   0  0  0  0  0  0  0  0  0  0  0  0
    1.7592   10.9392    0.0000 C   0  0  0  0  0  0  0  0  0  0  0  0
    3.0584   11.6890    0.0000 H   0  0  0  0  0  0  0  0  0  0  0  0
    0.4602   11.6892    0.0000 C   0  0  0  0  0  0  0  0  0  0  0  0
    0.4600   13.1892    0.0000 H   0  0  0  0  0  0  0  0  0  0  0  0
   -0.8393   10.9384    0.0000 C   0  0  0  0  0  0  0  0  0  0  0  0
   -2.1384   11.6884    0.0000 H   0  0  0  0  0  0  0  0  0  0  0  0
   -0.8398    9.4375    0.0000 C   0  0  0  0  0  0  0  0  0  0  0  0
   -2.1390    8.6877    0.0000 H   0  0  0  0  0  0  0  0  0  0  0  0
    0.4592    8.6875    0.0000 C   0  0  0  0  0  0  0  0  0  0  0  0
    0.4595    7.1875    0.0000 H   0  0  0  0  0  0  0  0  0  0  0  0
    1.7588    5.4784    0.0000 N   0  0  0  0  0  0  0  0  0  0  0  0
    0.4597    6.2284    0.0000 H   0  0  0  0  0  0  0  0  0  0  0  0
    1.7588    3.9784    0.0000 C   0  0  0  0  0  0  0  0  0  0  0  0
    3.0578    3.2284    0.0000 O   0  0  0  0  0  0  0  0  0  0  0  0
    0.4597    3.2284    0.0000 C   0  0  0  0  0  0  0  0  0  0  0  0
   -0.0533    4.6379    0.0000 H   0  0  0  0  0  0  0  0  0  0  0  0
   -1.0175    2.9679    0.0000 H   0  0  0  0  0  0  0  0  0  0  0  0
    0.4597    1.7284    0.0000 O   0  0  0  0  0  0  0  0  0  0  0  0
   -0.8393    0.9784    0.0000 C   0  0  0  0  0  0  0  0  0  0  0  0
   -2.1316    1.7378    0.0000 C   0  0  0  0  0  0  0  0  0  0  0  0
   -2.1175    3.2378    0.0000 C   0  0  0  0  0  0  0  0  0  0  0  0
   -0.8114    3.9755    0.0000 H   0  0  0  0  0  0  0  0  0  0  0  0
   -3.5971    2.9912    0.0000 H   0  0  0  0  0  0  0  0  0  0  0  0
   -2.6172    4.6521    0.0000 H   0  0  0  0  0  0  0  0  0  0  0  0
   -3.4218    1.0120    0.0000 C   0  0  0  0  0  0  0  0  0  0  0  0
   -4.7147    1.7724    0.0000 H   0  0  0  0  0  0  0  0  0  0  0  0
   -3.4291   -0.4557    0.0000 C   0  0  0  0  0  0  0  0  0  0  0  0
   -4.7425   -1.1801    0.0000 H   0  0  0  0  0  0  0  0  0  0  0  0
   -2.1673   -1.2428    0.0000 C   0  0  0  0  0  0  0  0  0  0  0  0
   -2.2165   -2.7420    0.0000 H   0  0  0  0  0  0  0  0  0  0  0  0
   -0.8277   -0.5246    0.0000 C   0  0  0  0  0  0  0  0  0  0  0  0
    0.4623   -1.2899    0.0000 C   0  0  0  0  0  0  0  0  0  0  0  0
    0.4446   -2.7898    0.0000 H   0  0  0  0  0  0  0  0  0  0  0  0
    1.9364   -1.5678    0.0000 H   0  0  0  0  0  0  0  0  0  0  0  0
    0.9920    0.1135    0.0000 H   0  0  0  0  0  0  0  0  0  0  0  0
    4.7725    3.7384    0.0000 O   0  0  0  0  0  0  0  0  0  0  0  0
    6.0716    2.9884    0.0000 H   0  0  0  0  0  0  0  0  0  0  0  0
   12.0991    7.9684    0.0000 N   0  0  0  0  0  0  0  0  0  0  0  0
   12.0986    6.4675    0.0000 C   0  0  0  0  0  0  0  0  0  0  0  0
   10.6215    6.7283    0.0000 H   0  0  0  0  0  0  0  0  0  0  0  0
   11.5854    5.0580    0.0000 H   0  0  0  0  0  0  0  0  0  0  0  0
   13.3977    5.7175    0.0000 C   0  0  0  0  0  0  0  0  0  0  0  0
   12.4336    4.5684    0.0000 H   0  0  0  0  0  0  0  0  0  0  0  0
   14.3621    4.5687    0.0000 H   0  0  0  0  0  0  0  0  0  0  0  0
   14.6972    6.4684    0.0000 C   0  0  0  0  0  0  0  0  0  0  0  0
   15.2104    5.0589    0.0000 H   0  0  0  0  0  0  0  0  0  0  0  0
   16.1744    6.7287    0.0000 H   0  0  0  0  0  0  0  0  0  0  0  0
   14.6977    7.9692    0.0000 N   0  0  0  0  0  0  0  0  0  0  0  0
   15.9968    8.7190    0.0000 H   0  0  0  0  0  0  0  0  0  0  0  0
   13.3986    8.7192    0.0000 C   0  0  0  0  0  0  0  0  0  0  0  0
   13.3984   10.2192    0.0000 O   0  0  0  0  0  0  0  0  0  0  0  0
  1  2  1  0  0  0  0 
  1  3  1  0  0  0  0 
  1  4  1  0  0  0  0 
  1  5  1  0  0  0  0 
  5  6  1  0  0  0  0 
  5  7  1  0  0  0  0 
  7  8  1  0  0  0  0 
  7  9  1  0  0  0  0 
  7 10  1  0  0  0  0 
  5 11  1  0  0  0  0 
 11 12  1  1  0  0  0 
 11 13  1  0  0  0  0 
 13 14  2  0  0  0  0 
 13 15  1  0  0  0  0 
 15 16  1  0  0  0  0 
 17 15  1  1  0  0  0 
 17 18  1  6  0  0  0 
 17 19  1  0  0  0  0 
 19 20  1  0  0  0  0 
 19 21  1  0  0  0  0 
 19 22  1  0  0  0  0 
 22 23  2  0  0  0  0 
 23 24  1  0  0  0  0 
 23 25  1  0  0  0  0 
 25 26  1  0  0  0  0 
 25 27  2  0  0  0  0 
 27 28  1  0  0  0  0 
 27 29  1  0  0  0  0 
 29 30  1  0  0  0  0 
 29 31  2  0  0  0  0 
 22 31  1  0  0  0  0 
 31 32  1  0  0  0  0 
 17 33  1  0  0  0  0 
 33 34  1  0  0  0  0 
 33 35  1  0  0  0  0 
 33 36  1  0  0  0  0 
 36 37  2  0  0  0  0 
 37 38  1  0  0  0  0 
 38 39  1  0  0  0  0 
 38 40  1  0  0  0  0 
 38 41  1  0  0  0  0 
 41 42  2  0  0  0  0 
 42 43  1  0  0  0  0 
 42 44  1  0  0  0  0 
 44 45  1  0  0  0  0 
 44 46  2  0  0  0  0 
 46 47  1  0  0  0  0 
 46 48  1  0  0  0  0 
 48 49  1  0  0  0  0 
 48 50  2  0  0  0  0 
 41 50  1  0  0  0  0 
 50 51  1  0  0  0  0 
 37 52  1  4  0  0  0 
 52 53  1  0  0  0  0 
 52 54  1  0  0  0  0 
 54 55  2  0  0  0  0 
 54 56  1  0  0  0  0 
 56 57  1  0  0  0  0 
 56 58  1  0  0  0  0 
 56 59  1  0  0  0  0 
 59 60  1  0  0  0  0 
 60 61  2  0  0  0  0 
 61 62  1  0  0  0  0 
 62 63  1  0  0  0  0 
 62 64  1  0  0  0  0 
 62 65  1  0  0  0  0 
 61 66  1  0  0  0  0 
 66 67  1  0  0  0  0 
 66 68  2  0  0  0  0 
 68 69  1  0  0  0  0 
 68 70  1  0  0  0  0 
 70 71  1  0  0  0  0 
 70 72  2  0  0  0  0 
 60 72  1  0  0  0  0 
 72 73  1  0  0  0  0 
 73 74  1  0  0  0  0 
 73 75  1  0  0  0  0 
 73 76  1  0  0  0  0 
 36 77  1  0  0  0  0 
 77 78  1  0  0  0  0 
 11 79  1  6  0  0  0 
 79 80  1  0  0  0  0 
 80 81  1  0  0  0  0 
 80 82  1  0  0  0  0 
 80 83  1  0  0  0  0 
 83 84  1  0  0  0  0 
 83 85  1  0  0  0  0 
 83 86  1  0  0  0  0 
 86 87  1  0  0  0  0 
 86 88  1  0  0  0  0 
 86 89  1  0  0  0  0 
 89 90  1  0  0  0  0 
 89 91  1  0  0  0  0 
 79 91  1  0  0  0  0 
 91 92  2  0  0  0  0 
M  END
> <Rank>
72

> <Priority_score>
0.0064

> <Reaction_type>
alkyl dehydrogenation

> <Parent_ID>
63

> <Parent_InChI>
InChI=1S/C37H48N4O5/c1-25(2)34(41-20-12-19-38-37(41)45)36(44)39-30(21-28-15-7-5-8-16-28)23-32(42)31(22-29-17-9-6-10-18-29)40-33(43)24-46-35-26(3)13-11-14-27(35)4/h5-11,13-18,25,30-32,34,42H,12,19-24H2,1-4H3,(H,38,45)(H,39,44)(H,40,43)

> <Parent_SMILES>
Cc1cccc(C)c1OCC(=O)N[C@@H](Cc1ccccc1)[C@@H](O)C[C@H](Cc1ccccc1)NC(=O)[C@H](C(C)C)N1CCCNC1=O

$$$$
Molecule 63_metabolite 75
  CDK     0516241031

 92 95  0  0  0  0  0  0  0  0999 V2000
   13.4877    3.5835    0.0000 C   0  0  0  0  0  0  0  0  0  0  0  0
   14.0007    4.9930    0.0000 H   0  0  0  0  0  0  0  0  0  0  0  0
   14.9649    3.3230    0.0000 H   0  0  0  0  0  0  0  0  0  0  0  0
   13.4877    2.0835    0.0000 H   0  0  0  0  0  0  0  0  0  0  0  0
   11.5377    3.2397    0.0000 C   0  0  0  0  0  0  0  0  0  0  0  0
   10.0605    3.5002    0.0000 H   0  0  0  0  0  0  0  0  0  0  0  0
   11.5377    4.7397    0.0000 C   0  0  0  0  0  0  0  0  0  0  0  0
   10.2387    5.4897    0.0000 H   0  0  0  0  0  0  0  0  0  0  0  0
   13.0149    4.4792    0.0000 H   0  0  0  0  0  0  0  0  0  0  0  0
   12.0508    6.1492    0.0000 H   0  0  0  0  0  0  0  0  0  0  0  0
   11.0247    1.8301    0.0000 C   0  0  1  0  0  0  0  0  0  0  0  0
   12.5019    1.5697    0.0000 H   0  0  0  0  0  0  0  0  0  0  0  0
    9.3100    2.8201    0.0000 C   0  0  0  0  0  0  0  0  0  0  0  0
    9.3100    4.3201    0.0000 O   0  0  0  0  0  0  0  0  0  0  0  0
    8.0109    2.0701    0.0000 N   0  0  0  0  0  0  0  0  0  0  0  0
    8.0109    0.5701    0.0000 H   0  0  0  0  0  0  0  0  0  0  0  0
    6.7119    2.8201    0.0000 C   0  0  1  0  0  0  0  0  0  0  0  0
    6.1989    1.4106    0.0000 H   0  0  0  0  0  0  0  0  0  0  0  0
    5.2347    3.0806    0.0000 C   0  0  0  0  0  0  0  0  0  0  0  0
    5.7477    4.4902    0.0000 H   0  0  0  0  0  0  0  0  0  0  0  0
    3.9356    3.8306    0.0000 H   0  0  0  0  0  0  0  0  0  0  0  0
    4.2705    1.9315    0.0000 C   0  0  0  0  0  0  0  0  0  0  0  0
    4.7843    0.5214    0.0000 C   0  0  0  0  0  0  0  0  0  0  0  0
    6.2615    0.2612    0.0000 H   0  0  0  0  0  0  0  0  0  0  0  0
    3.8201   -0.6277    0.0000 C   0  0  0  0  0  0  0  0  0  0  0  0
    4.3329   -2.0373    0.0000 H   0  0  0  0  0  0  0  0  0  0  0  0
    2.3421   -0.3666    0.0000 C   0  0  0  0  0  0  0  0  0  0  0  0
    1.3780   -1.5157    0.0000 H   0  0  0  0  0  0  0  0  0  0  0  0
    1.8284    1.0436    0.0000 C   0  0  0  0  0  0  0  0  0  0  0  0
    0.3511    1.3038    0.0000 H   0  0  0  0  0  0  0  0  0  0  0  0
    2.7926    2.1926    0.0000 C   0  0  0  0  0  0  0  0  0  0  0  0
    2.2798    3.6023    0.0000 H   0  0  0  0  0  0  0  0  0  0  0  0
    6.7119    4.8001    0.0000 C   0  0  0  0  0  0  0  0  0  0  0  0
    7.2249    6.2097    0.0000 H   0  0  0  0  0  0  0  0  0  0  0  0
    8.1891    4.5397    0.0000 H   0  0  0  0  0  0  0  0  0  0  0  0
    5.4129    5.5501    0.0000 C   0  0  1  0  0  0  0  0  0  0  0  0
    4.8998    4.1406    0.0000 H   0  0  0  0  0  0  0  0  0  0  0  0
    5.4129    7.0501    0.0000 C   0  0  0  0  0  0  0  0  0  0  0  0
    6.7119    7.8001    0.0000 C   0  0  0  0  0  0  0  0  0  0  0  0
    8.0109    7.0501    0.0000 H   0  0  0  0  0  0  0  0  0  0  0  0
    6.7119    9.3001    0.0000 C   0  0  0  0  0  0  0  0  0  0  0  0
    8.0119   10.0501    0.0000 C   0  0  0  0  0  0  0  0  0  0  0  0
    9.3108    9.2999    0.0000 H   0  0  0  0  0  0  0  0  0  0  0  0
    8.0119   11.5501    0.0000 C   0  0  0  0  0  0  0  0  0  0  0  0
    9.3108   12.3003    0.0000 H   0  0  0  0  0  0  0  0  0  0  0  0
    6.7119   12.3001    0.0000 C   0  0  0  0  0  0  0  0  0  0  0  0
    6.7119   13.8001    0.0000 H   0  0  0  0  0  0  0  0  0  0  0  0
    5.4119   11.5501    0.0000 C   0  0  0  0  0  0  0  0  0  0  0  0
    4.1130   12.3003    0.0000 H   0  0  0  0  0  0  0  0  0  0  0  0
    5.4119   10.0501    0.0000 C   0  0  0  0  0  0  0  0  0  0  0  0
    4.1130    9.2999    0.0000 H   0  0  0  0  0  0  0  0  0  0  0  0
    3.2824    8.2801    0.0000 N   0  0  0  0  0  0  0  0  0  0  0  0
    3.2824    9.7801    0.0000 H   0  0  0  0  0  0  0  0  0  0  0  0
    1.9834    7.5301    0.0000 C   0  0  0  0  0  0  0  0  0  0  0  0
    1.9834    6.0301    0.0000 O   0  0  0  0  0  0  0  0  0  0  0  0
    0.6844    8.2801    0.0000 C   0  0  0  0  0  0  0  0  0  0  0  0
    1.6485    9.4292    0.0000 H   0  0  0  0  0  0  0  0  0  0  0  0
   -0.2798    9.4292    0.0000 H   0  0  0  0  0  0  0  0  0  0  0  0
   -0.6147    7.5301    0.0000 O   0  0  0  0  0  0  0  0  0  0  0  0
   -1.9137    8.2801    0.0000 C   0  0  0  0  0  0  0  0  0  0  0  0
   -1.9021    9.7790    0.0000 C   0  0  0  0  0  0  0  0  0  0  0  0
   -0.5961   10.5168    0.0000 C   0  0  0  0  0  0  0  0  0  0  0  0
    0.6958    9.7545    0.0000 H   0  0  0  0  0  0  0  0  0  0  0  0
   -1.5494   11.6749    0.0000 H   0  0  0  0  0  0  0  0  0  0  0  0
    0.3789   11.6567    0.0000 H   0  0  0  0  0  0  0  0  0  0  0  0
   -3.1758   10.5334    0.0000 C   0  0  0  0  0  0  0  0  0  0  0  0
   -3.1637   12.0334    0.0000 H   0  0  0  0  0  0  0  0  0  0  0  0
   -4.4505    9.8059    0.0000 C   0  0  0  0  0  0  0  0  0  0  0  0
   -5.7346   10.5812    0.0000 H   0  0  0  0  0  0  0  0  0  0  0  0
   -4.5013    8.3196    0.0000 C   0  0  0  0  0  0  0  0  0  0  0  0
   -5.8243    7.6126    0.0000 H   0  0  0  0  0  0  0  0  0  0  0  0
   -3.2095    7.5186    0.0000 C   0  0  0  0  0  0  0  0  0  0  0  0
   -3.2272    6.0187    0.0000 C   0  0  0  0  0  0  0  0  0  0  0  0
   -4.5351    5.2842    0.0000 H   0  0  0  0  0  0  0  0  0  0  0  0
   -2.7309    4.6032    0.0000 H   0  0  0  0  0  0  0  0  0  0  0  0
   -1.7471    6.2617    0.0000 H   0  0  0  0  0  0  0  0  0  0  0  0
    3.9356    5.8106    0.0000 O   0  0  0  0  0  0  0  0  0  0  0  0
    2.9715    4.6615    0.0000 H   0  0  0  0  0  0  0  0  0  0  0  0
   11.0247    0.3301    0.0000 N   0  0  0  0  0  0  0  0  0  0  0  0
    9.7247   -0.4199    0.0000 C   0  0  0  0  0  0  0  0  0  0  0  0
    9.2120    0.9898    0.0000 H   0  0  0  0  0  0  0  0  0  0  0  0
    8.2475   -0.6802    0.0000 H   0  0  0  0  0  0  0  0  0  0  0  0
    9.7247   -1.9199    0.0000 C   0  0  0  0  0  0  0  0  0  0  0  0
    8.2475   -1.6595    0.0000 H   0  0  0  0  0  0  0  0  0  0  0  0
    9.2120   -3.3295    0.0000 H   0  0  0  0  0  0  0  0  0  0  0  0
   11.0247   -2.6699    0.0000 C   0  0  0  0  0  0  0  0  0  0  0  0
   10.0606   -3.8190    0.0000 H   0  0  0  0  0  0  0  0  0  0  0  0
   11.9888   -3.8190    0.0000 H   0  0  0  0  0  0  0  0  0  0  0  0
   12.3247   -1.9199    0.0000 N   0  0  0  0  0  0  0  0  0  0  0  0
   13.6236   -2.6701    0.0000 H   0  0  0  0  0  0  0  0  0  0  0  0
   12.3247   -0.4199    0.0000 C   0  0  0  0  0  0  0  0  0  0  0  0
   13.6236    0.3303    0.0000 O   0  0  0  0  0  0  0  0  0  0  0  0
  1  2  1  0  0  0  0 
  1  3  1  0  0  0  0 
  1  4  1  0  0  0  0 
  1  5  1  0  0  0  0 
  5  6  1  0  0  0  0 
  5  7  1  0  0  0  0 
  7  8  1  0  0  0  0 
  7  9  1  0  0  0  0 
  7 10  1  0  0  0  0 
  5 11  1  0  0  0  0 
 11 12  1  1  0  0  0 
 11 13  1  0  0  0  0 
 13 14  2  0  0  0  0 
 13 15  1  0  0  0  0 
 15 16  1  0  0  0  0 
 17 15  1  1  0  0  0 
 17 18  1  6  0  0  0 
 17 19  1  0  0  0  0 
 19 20  1  0  0  0  0 
 19 21  1  0  0  0  0 
 19 22  1  0  0  0  0 
 22 23  2  0  0  0  0 
 23 24  1  0  0  0  0 
 23 25  1  0  0  0  0 
 25 26  1  0  0  0  0 
 25 27  2  0  0  0  0 
 27 28  1  0  0  0  0 
 27 29  1  0  0  0  0 
 29 30  1  0  0  0  0 
 29 31  2  0  0  0  0 
 22 31  1  0  0  0  0 
 31 32  1  0  0  0  0 
 17 33  1  0  0  0  0 
 33 34  1  0  0  0  0 
 33 35  1  0  0  0  0 
 33 36  1  0  0  0  0 
 36 37  1  1  0  0  0 
 36 38  1  0  0  0  0 
 38 39  2  0  0  0  0 
 39 40  1  4  0  0  0 
 39 41  1  0  0  0  0 
 41 42  2  0  0  0  0 
 42 43  1  0  0  0  0 
 42 44  1  0  0  0  0 
 44 45  1  0  0  0  0 
 44 46  2  0  0  0  0 
 46 47  1  0  0  0  0 
 46 48  1  0  0  0  0 
 48 49  1  0  0  0  0 
 48 50  2  0  0  0  0 
 41 50  1  0  0  0  0 
 50 51  1  0  0  0  0 
 38 52  1  0  0  0  0 
 52 53  1  0  0  0  0 
 52 54  1  0  0  0  0 
 54 55  2  0  0  0  0 
 54 56  1  0  0  0  0 
 56 57  1  0  0  0  0 
 56 58  1  0  0  0  0 
 56 59  1  0  0  0  0 
 59 60  1  0  0  0  0 
 60 61  2  0  0  0  0 
 61 62  1  0  0  0  0 
 62 63  1  0  0  0  0 
 62 64  1  0  0  0  0 
 62 65  1  0  0  0  0 
 61 66  1  0  0  0  0 
 66 67  1  0  0  0  0 
 66 68  2  0  0  0  0 
 68 69  1  0  0  0  0 
 68 70  1  0  0  0  0 
 70 71  1  0  0  0  0 
 70 72  2  0  0  0  0 
 60 72  1  0  0  0  0 
 72 73  1  0  0  0  0 
 73 74  1  0  0  0  0 
 73 75  1  0  0  0  0 
 73 76  1  0  0  0  0 
 36 77  1  6  0  0  0 
 77 78  1  0  0  0  0 
 11 79  1  6  0  0  0 
 79 80  1  0  0  0  0 
 80 81  1  0  0  0  0 
 80 82  1  0  0  0  0 
 80 83  1  0  0  0  0 
 83 84  1  0  0  0  0 
 83 85  1  0  0  0  0 
 83 86  1  0  0  0  0 
 86 87  1  0  0  0  0 
 86 88  1  0  0  0  0 
 86 89  1  0  0  0  0 
 89 90  1  0  0  0  0 
 89 91  1  0  0  0  0 
 79 91  1  0  0  0  0 
 91 92  2  0  0  0  0 
M  END
> <Rank>
75

> <Priority_score>
0.005600000000000001

> <Reaction_type>
alkyl dehydrogenation

> <Parent_ID>
63

> <Parent_InChI>
InChI=1S/C37H48N4O5/c1-25(2)34(41-20-12-19-38-37(41)45)36(44)39-30(21-28-15-7-5-8-16-28)23-32(42)31(22-29-17-9-6-10-18-29)40-33(43)24-46-35-26(3)13-11-14-27(35)4/h5-11,13-18,25,30-32,34,42H,12,19-24H2,1-4H3,(H,38,45)(H,39,44)(H,40,43)

> <Parent_SMILES>
Cc1cccc(C)c1OCC(=O)N[C@@H](Cc1ccccc1)[C@@H](O)C[C@H](Cc1ccccc1)NC(=O)[C@H](C(C)C)N1CCCNC1=O

$$$$
Molecule 63_metabolite 76
  CDK     0516241031

 92 95  0  0  0  0  0  0  0  0999 V2000
    0.5031   -2.0486    0.0000 C   0  0  0  0  0  0  0  0  0  0  0  0
    1.4673   -3.1977    0.0000 H   0  0  0  0  0  0  0  0  0  0  0  0
   -0.4611   -3.1977    0.0000 H   0  0  0  0  0  0  0  0  0  0  0  0
   -0.7959   -1.2986    0.0000 H   0  0  0  0  0  0  0  0  0  0  0  0
    1.0161   -0.6391    0.0000 C   0  0  0  0  0  0  0  0  0  0  0  0
    1.9803    0.5100    0.0000 H   0  0  0  0  0  0  0  0  0  0  0  0
    2.3152   -1.3891    0.0000 C   0  0  0  0  0  0  0  0  0  0  0  0
    2.3152   -2.8891    0.0000 H   0  0  0  0  0  0  0  0  0  0  0  0
    2.8282    0.0205    0.0000 H   0  0  0  0  0  0  0  0  0  0  0  0
    3.7924   -1.6495    0.0000 H   0  0  0  0  0  0  0  0  0  0  0  0
   -0.2566    0.8777    0.0000 C   0  0  1  0  0  0  0  0  0  0  0  0
   -1.2208   -0.2714    0.0000 H   0  0  0  0  0  0  0  0  0  0  0  0
    1.4582    1.8677    0.0000 C   0  0  0  0  0  0  0  0  0  0  0  0
    2.7572    1.1177    0.0000 O   0  0  0  0  0  0  0  0  0  0  0  0
    1.4582    3.3677    0.0000 N   0  0  0  0  0  0  0  0  0  0  0  0
    0.1591    4.1177    0.0000 H   0  0  0  0  0  0  0  0  0  0  0  0
    2.7572    4.1177    0.0000 C   0  0  1  0  0  0  0  0  0  0  0  0
    1.7930    5.2668    0.0000 H   0  0  0  0  0  0  0  0  0  0  0  0
    3.7214    5.2668    0.0000 C   0  0  0  0  0  0  0  0  0  0  0  0
    4.6856    4.1177    0.0000 H   0  0  0  0  0  0  0  0  0  0  0  0
    5.0204    6.0168    0.0000 H   0  0  0  0  0  0  0  0  0  0  0  0
    3.2083    6.6763    0.0000 C   0  0  0  0  0  0  0  0  0  0  0  0
    1.7302    6.9365    0.0000 C   0  0  0  0  0  0  0  0  0  0  0  0
    0.7662    5.7872    0.0000 H   0  0  0  0  0  0  0  0  0  0  0  0
    1.2172    8.3460    0.0000 C   0  0  0  0  0  0  0  0  0  0  0  0
   -0.2600    8.6067    0.0000 H   0  0  0  0  0  0  0  0  0  0  0  0
    2.1823    9.4954    0.0000 C   0  0  0  0  0  0  0  0  0  0  0  0
    1.6693   10.9049    0.0000 H   0  0  0  0  0  0  0  0  0  0  0  0
    3.6604    9.2352    0.0000 C   0  0  0  0  0  0  0  0  0  0  0  0
    4.6244   10.3845    0.0000 H   0  0  0  0  0  0  0  0  0  0  0  0
    4.1734    7.8257    0.0000 C   0  0  0  0  0  0  0  0  0  0  0  0
    5.6506    7.5650    0.0000 H   0  0  0  0  0  0  0  0  0  0  0  0
    4.4719    3.1277    0.0000 C   0  0  0  0  0  0  0  0  0  0  0  0
    5.4361    1.9786    0.0000 H   0  0  0  0  0  0  0  0  0  0  0  0
    3.5077    1.9786    0.0000 H   0  0  0  0  0  0  0  0  0  0  0  0
    5.7710    3.8777    0.0000 C   0  0  1  0  0  0  0  0  0  0  0  0
    4.8068    5.0268    0.0000 H   0  0  0  0  0  0  0  0  0  0  0  0
    7.0700    3.1277    0.0000 C   0  0  0  0  0  0  0  0  0  0  0  0
    7.0700    1.6277    0.0000 N   0  0  0  0  0  0  0  0  0  0  0  0
    8.3690    0.8777    0.0000 C   0  0  0  0  0  0  0  0  0  0  0  0
    9.6681    1.6277    0.0000 O   0  0  0  0  0  0  0  0  0  0  0  0
    8.3690   -0.6223    0.0000 C   0  0  0  0  0  0  0  0  0  0  0  0
    6.8918   -0.3618    0.0000 H   0  0  0  0  0  0  0  0  0  0  0  0
    7.8560   -2.0318    0.0000 H   0  0  0  0  0  0  0  0  0  0  0  0
    9.6681   -1.3723    0.0000 O   0  0  0  0  0  0  0  0  0  0  0  0
    9.6681   -2.8723    0.0000 C   0  0  0  0  0  0  0  0  0  0  0  0
    8.3642   -3.6117    0.0000 C   0  0  0  0  0  0  0  0  0  0  0  0
    7.0723   -2.8495    0.0000 C   0  0  0  0  0  0  0  0  0  0  0  0
    7.0864   -1.3496    0.0000 H   0  0  0  0  0  0  0  0  0  0  0  0
    6.5460   -4.2542    0.0000 H   0  0  0  0  0  0  0  0  0  0  0  0
    5.5976   -2.5751    0.0000 H   0  0  0  0  0  0  0  0  0  0  0  0
    8.3477   -5.0919    0.0000 C   0  0  0  0  0  0  0  0  0  0  0  0
    7.0427   -5.8314    0.0000 H   0  0  0  0  0  0  0  0  0  0  0  0
    9.6151   -5.8321    0.0000 C   0  0  0  0  0  0  0  0  0  0  0  0
    9.5857   -7.3318    0.0000 H   0  0  0  0  0  0  0  0  0  0  0  0
   10.9277   -5.1330    0.0000 C   0  0  0  0  0  0  0  0  0  0  0  0
   12.2015   -5.9252    0.0000 H   0  0  0  0  0  0  0  0  0  0  0  0
   10.9754   -3.6137    0.0000 C   0  0  0  0  0  0  0  0  0  0  0  0
   12.2833   -2.8791    0.0000 C   0  0  0  0  0  0  0  0  0  0  0  0
   13.5733   -3.6445    0.0000 H   0  0  0  0  0  0  0  0  0  0  0  0
   13.2610   -1.7416    0.0000 H   0  0  0  0  0  0  0  0  0  0  0  0
   11.3328   -1.7187    0.0000 H   0  0  0  0  0  0  0  0  0  0  0  0
    8.7847    4.1177    0.0000 C   0  0  0  0  0  0  0  0  0  0  0  0
   10.2619    4.3782    0.0000 H   0  0  0  0  0  0  0  0  0  0  0  0
    9.2978    2.7082    0.0000 H   0  0  0  0  0  0  0  0  0  0  0  0
    8.7847    5.6177    0.0000 C   0  0  0  0  0  0  0  0  0  0  0  0
   10.0847    6.3677    0.0000 C   0  0  0  0  0  0  0  0  0  0  0  0
   11.3836    5.6175    0.0000 H   0  0  0  0  0  0  0  0  0  0  0  0
   10.0847    7.8677    0.0000 C   0  0  0  0  0  0  0  0  0  0  0  0
   11.3836    8.6179    0.0000 H   0  0  0  0  0  0  0  0  0  0  0  0
    8.7847    8.6177    0.0000 C   0  0  0  0  0  0  0  0  0  0  0  0
    8.7847   10.1177    0.0000 H   0  0  0  0  0  0  0  0  0  0  0  0
    7.4847    7.8677    0.0000 C   0  0  0  0  0  0  0  0  0  0  0  0
    6.1858    8.6179    0.0000 H   0  0  0  0  0  0  0  0  0  0  0  0
    7.4847    6.3677    0.0000 C   0  0  0  0  0  0  0  0  0  0  0  0
    6.1858    5.6175    0.0000 H   0  0  0  0  0  0  0  0  0  0  0  0
    6.7351    5.0268    0.0000 O   0  0  0  0  0  0  0  0  0  0  0  0
    8.2124    4.7663    0.0000 H   0  0  0  0  0  0  0  0  0  0  0  0
   -1.5556    1.6277    0.0000 N   0  0  0  0  0  0  0  0  0  0  0  0
   -1.5551    3.1285    0.0000 C   0  0  0  0  0  0  0  0  0  0  0  0
   -0.0780    2.8677    0.0000 H   0  0  0  0  0  0  0  0  0  0  0  0
   -1.0420    4.5380    0.0000 H   0  0  0  0  0  0  0  0  0  0  0  0
   -2.8542    3.8785    0.0000 C   0  0  0  0  0  0  0  0  0  0  0  0
   -1.8901    5.0277    0.0000 H   0  0  0  0  0  0  0  0  0  0  0  0
   -3.8186    5.0274    0.0000 H   0  0  0  0  0  0  0  0  0  0  0  0
   -4.1537    3.1277    0.0000 C   0  0  0  0  0  0  0  0  0  0  0  0
   -4.6669    4.5372    0.0000 H   0  0  0  0  0  0  0  0  0  0  0  0
   -5.6309    2.8674    0.0000 H   0  0  0  0  0  0  0  0  0  0  0  0
   -4.1542    1.6269    0.0000 N   0  0  0  0  0  0  0  0  0  0  0  0
   -5.4533    0.8771    0.0000 H   0  0  0  0  0  0  0  0  0  0  0  0
   -2.8551    0.8769    0.0000 C   0  0  0  0  0  0  0  0  0  0  0  0
   -2.8549   -0.6231    0.0000 O   0  0  0  0  0  0  0  0  0  0  0  0
  1  2  1  0  0  0  0 
  1  3  1  0  0  0  0 
  1  4  1  0  0  0  0 
  1  5  1  0  0  0  0 
  5  6  1  0  0  0  0 
  5  7  1  0  0  0  0 
  7  8  1  0  0  0  0 
  7  9  1  0  0  0  0 
  7 10  1  0  0  0  0 
  5 11  1  0  0  0  0 
 11 12  1  1  0  0  0 
 11 13  1  0  0  0  0 
 13 14  2  0  0  0  0 
 13 15  1  0  0  0  0 
 15 16  1  0  0  0  0 
 17 15  1  1  0  0  0 
 17 18  1  6  0  0  0 
 17 19  1  0  0  0  0 
 19 20  1  0  0  0  0 
 19 21  1  0  0  0  0 
 19 22  1  0  0  0  0 
 22 23  2  0  0  0  0 
 23 24  1  0  0  0  0 
 23 25  1  0  0  0  0 
 25 26  1  0  0  0  0 
 25 27  2  0  0  0  0 
 27 28  1  0  0  0  0 
 27 29  1  0  0  0  0 
 29 30  1  0  0  0  0 
 29 31  2  0  0  0  0 
 22 31  1  0  0  0  0 
 31 32  1  0  0  0  0 
 17 33  1  0  0  0  0 
 33 34  1  0  0  0  0 
 33 35  1  0  0  0  0 
 33 36  1  0  0  0  0 
 36 37  1  1  0  0  0 
 36 38  1  0  0  0  0 
 38 39  2  0  0  0  0 
 39 40  1  4  0  0  0 
 40 41  2  0  0  0  0 
 40 42  1  0  0  0  0 
 42 43  1  0  0  0  0 
 42 44  1  0  0  0  0 
 42 45  1  0  0  0  0 
 45 46  1  0  0  0  0 
 46 47  2  0  0  0  0 
 47 48  1  0  0  0  0 
 48 49  1  0  0  0  0 
 48 50  1  0  0  0  0 
 48 51  1  0  0  0  0 
 47 52  1  0  0  0  0 
 52 53  1  0  0  0  0 
 52 54  2  0  0  0  0 
 54 55  1  0  0  0  0 
 54 56  1  0  0  0  0 
 56 57  1  0  0  0  0 
 56 58  2  0  0  0  0 
 46 58  1  0  0  0  0 
 58 59  1  0  0  0  0 
 59 60  1  0  0  0  0 
 59 61  1  0  0  0  0 
 59 62  1  0  0  0  0 
 38 63  1  0  0  0  0 
 63 64  1  0  0  0  0 
 63 65  1  0  0  0  0 
 63 66  1  0  0  0  0 
 66 67  2  0  0  0  0 
 67 68  1  0  0  0  0 
 67 69  1  0  0  0  0 
 69 70  1  0  0  0  0 
 69 71  2  0  0  0  0 
 71 72  1  0  0  0  0 
 71 73  1  0  0  0  0 
 73 74  1  0  0  0  0 
 73 75  2  0  0  0  0 
 66 75  1  0  0  0  0 
 75 76  1  0  0  0  0 
 36 77  1  6  0  0  0 
 77 78  1  0  0  0  0 
 11 79  1  6  0  0  0 
 79 80  1  0  0  0  0 
 80 81  1  0  0  0  0 
 80 82  1  0  0  0  0 
 80 83  1  0  0  0  0 
 83 84  1  0  0  0  0 
 83 85  1  0  0  0  0 
 83 86  1  0  0  0  0 
 86 87  1  0  0  0  0 
 86 88  1  0  0  0  0 
 86 89  1  0  0  0  0 
 89 90  1  0  0  0  0 
 89 91  1  0  0  0  0 
 79 91  1  0  0  0  0 
 91 92  2  0  0  0  0 
M  END
> <Rank>
75

> <Priority_score>
0.005600000000000001

> <Reaction_type>
dehydration of N-C bond

> <Parent_ID>
63

> <Parent_InChI>
InChI=1S/C37H48N4O5/c1-25(2)34(41-20-12-19-38-37(41)45)36(44)39-30(21-28-15-7-5-8-16-28)23-32(42)31(22-29-17-9-6-10-18-29)40-33(43)24-46-35-26(3)13-11-14-27(35)4/h5-11,13-18,25,30-32,34,42H,12,19-24H2,1-4H3,(H,38,45)(H,39,44)(H,40,43)

> <Parent_SMILES>
Cc1cccc(C)c1OCC(=O)N[C@@H](Cc1ccccc1)[C@@H](O)C[C@H](Cc1ccccc1)NC(=O)[C@H](C(C)C)N1CCCNC1=O

$$$$
Molecule 63_metabolite 77
  CDK     0516241031

 93 96  0  0  0  0  0  0  0  0999 V2000
    1.9682    6.4676    0.0000 C   0  0  0  0  0  0  0  0  0  0  0  0
    0.4910    6.2071    0.0000 H   0  0  0  0  0  0  0  0  0  0  0  0
    1.4552    7.8771    0.0000 H   0  0  0  0  0  0  0  0  0  0  0  0
    3.2672    7.2176    0.0000 H   0  0  0  0  0  0  0  0  0  0  0  0
    2.9324    5.3185    0.0000 C   0  0  0  0  0  0  0  0  0  0  0  0
    3.4454    3.9090    0.0000 H   0  0  0  0  0  0  0  0  0  0  0  0
    1.6333    4.5685    0.0000 C   0  0  0  0  0  0  0  0  0  0  0  0
    0.3343    5.3185    0.0000 H   0  0  0  0  0  0  0  0  0  0  0  0
    2.5975    3.4195    0.0000 H   0  0  0  0  0  0  0  0  0  0  0  0
    0.6692    3.4195    0.0000 H   0  0  0  0  0  0  0  0  0  0  0  0
    4.8823    5.6624    0.0000 C   0  0  1  0  0  0  0  0  0  0  0  0
    4.3693    7.0719    0.0000 H   0  0  0  0  0  0  0  0  0  0  0  0
    4.8823    3.6823    0.0000 C   0  0  0  0  0  0  0  0  0  0  0  0
    3.5833    2.9323    0.0000 O   0  0  0  0  0  0  0  0  0  0  0  0
    6.1813    2.9323    0.0000 N   0  0  0  0  0  0  0  0  0  0  0  0
    7.4804    3.6823    0.0000 H   0  0  0  0  0  0  0  0  0  0  0  0
    6.1813    1.4324    0.0000 C   0  0  1  0  0  0  0  0  0  0  0  0
    7.6586    1.6928    0.0000 H   0  0  0  0  0  0  0  0  0  0  0  0
    6.6944    0.0228    0.0000 C   0  0  0  0  0  0  0  0  0  0  0  0
    5.2172   -0.2377    0.0000 H   0  0  0  0  0  0  0  0  0  0  0  0
    6.6944   -1.4772    0.0000 H   0  0  0  0  0  0  0  0  0  0  0  0
    8.1716   -0.2377    0.0000 C   0  0  0  0  0  0  0  0  0  0  0  0
    9.1359    0.9124    0.0000 C   0  0  0  0  0  0  0  0  0  0  0  0
    8.6227    2.3218    0.0000 H   0  0  0  0  0  0  0  0  0  0  0  0
   10.6131    0.6519    0.0000 C   0  0  0  0  0  0  0  0  0  0  0  0
   11.5775    1.8008    0.0000 H   0  0  0  0  0  0  0  0  0  0  0  0
   11.1260   -0.7586    0.0000 C   0  0  0  0  0  0  0  0  0  0  0  0
   12.6032   -1.0191    0.0000 H   0  0  0  0  0  0  0  0  0  0  0  0
   10.1617   -1.9086    0.0000 C   0  0  0  0  0  0  0  0  0  0  0  0
   10.6749   -3.3181    0.0000 H   0  0  0  0  0  0  0  0  0  0  0  0
    8.6844   -1.6481    0.0000 C   0  0  0  0  0  0  0  0  0  0  0  0
    7.7201   -2.7971    0.0000 H   0  0  0  0  0  0  0  0  0  0  0  0
    4.4666    0.4424    0.0000 C   0  0  0  0  0  0  0  0  0  0  0  0
    2.9894    0.1819    0.0000 H   0  0  0  0  0  0  0  0  0  0  0  0
    3.9536    1.8519    0.0000 H   0  0  0  0  0  0  0  0  0  0  0  0
    4.4666   -1.0576    0.0000 C   0  0  1  0  0  0  0  0  0  0  0  0
    5.9438   -0.7972    0.0000 H   0  0  0  0  0  0  0  0  0  0  0  0
    3.1676   -1.8076    0.0000 C   0  0  0  0  0  0  0  0  0  0  0  0
    1.8685   -1.0576    0.0000 N   0  0  0  0  0  0  0  0  0  0  0  0
    1.8685    0.4424    0.0000 H   0  0  0  0  0  0  0  0  0  0  0  0
    0.5695   -1.8076    0.0000 C   0  0  0  0  0  0  0  0  0  0  0  0
    0.5695   -3.3077    0.0000 O   0  0  0  0  0  0  0  0  0  0  0  0
   -0.7295   -1.0576    0.0000 C   0  0  0  0  0  0  0  0  0  0  0  0
    0.2346    0.0914    0.0000 H   0  0  0  0  0  0  0  0  0  0  0  0
   -1.6937    0.0914    0.0000 H   0  0  0  0  0  0  0  0  0  0  0  0
   -2.0286   -1.8076    0.0000 O   0  0  0  0  0  0  0  0  0  0  0  0
   -3.3276   -1.0576    0.0000 C   0  0  0  0  0  0  0  0  0  0  0  0
   -3.3160    0.4412    0.0000 C   0  0  0  0  0  0  0  0  0  0  0  0
   -2.0100    1.1790    0.0000 C   0  0  0  0  0  0  0  0  0  0  0  0
   -0.7181    0.4167    0.0000 H   0  0  0  0  0  0  0  0  0  0  0  0
   -2.9633    2.3371    0.0000 H   0  0  0  0  0  0  0  0  0  0  0  0
   -1.0350    2.3189    0.0000 H   0  0  0  0  0  0  0  0  0  0  0  0
   -4.5897    1.1956    0.0000 C   0  0  0  0  0  0  0  0  0  0  0  0
   -4.5776    2.6956    0.0000 H   0  0  0  0  0  0  0  0  0  0  0  0
   -5.8644    0.4681    0.0000 C   0  0  0  0  0  0  0  0  0  0  0  0
   -7.1485    1.2434    0.0000 H   0  0  0  0  0  0  0  0  0  0  0  0
   -5.9152   -1.0182    0.0000 C   0  0  0  0  0  0  0  0  0  0  0  0
   -7.2382   -1.7252    0.0000 H   0  0  0  0  0  0  0  0  0  0  0  0
   -4.6234   -1.8192    0.0000 C   0  0  0  0  0  0  0  0  0  0  0  0
   -4.6411   -3.3190    0.0000 C   0  0  0  0  0  0  0  0  0  0  0  0
   -5.9490   -4.0536    0.0000 H   0  0  0  0  0  0  0  0  0  0  0  0
   -4.1448   -4.7346    0.0000 H   0  0  0  0  0  0  0  0  0  0  0  0
   -3.1610   -3.0761    0.0000 H   0  0  0  0  0  0  0  0  0  0  0  0
    3.1676   -4.2677    0.0000 C   0  0  0  0  0  0  0  0  0  0  0  0
    2.6545   -5.6772    0.0000 H   0  0  0  0  0  0  0  0  0  0  0  0
    1.6904   -4.0072    0.0000 H   0  0  0  0  0  0  0  0  0  0  0  0
    4.4666   -5.0177    0.0000 C   0  0  0  0  0  0  0  0  0  0  0  0
    4.4661   -6.5185    0.0000 C   0  0  0  0  0  0  0  0  0  0  0  0
    3.1670   -7.2683    0.0000 H   0  0  0  0  0  0  0  0  0  0  0  0
    5.7652   -7.2685    0.0000 C   0  0  0  0  0  0  0  0  0  0  0  0
    5.7654   -8.7685    0.0000 H   0  0  0  0  0  0  0  0  0  0  0  0
    7.0647   -6.5177    0.0000 C   0  0  0  0  0  0  0  0  0  0  0  0
    8.3637   -7.2677    0.0000 H   0  0  0  0  0  0  0  0  0  0  0  0
    7.0652   -5.0168    0.0000 C   0  0  0  0  0  0  0  0  0  0  0  0
    8.3643   -4.2670    0.0000 H   0  0  0  0  0  0  0  0  0  0  0  0
    5.7661   -4.2668    0.0000 C   0  0  0  0  0  0  0  0  0  0  0  0
    5.7659   -2.7668    0.0000 H   0  0  0  0  0  0  0  0  0  0  0  0
    4.9796   -2.4672    0.0000 O   0  0  0  0  0  0  0  0  0  0  0  0
    4.0155   -3.6163    0.0000 H   0  0  0  0  0  0  0  0  0  0  0  0
    6.1813    6.4124    0.0000 N   0  0  0  0  0  0  0  0  0  0  0  0
    7.4809    5.6615    0.0000 C   0  0  0  0  0  0  0  0  0  0  0  0
    6.5164    4.5127    0.0000 H   0  0  0  0  0  0  0  0  0  0  0  0
    8.4449    4.5123    0.0000 H   0  0  0  0  0  0  0  0  0  0  0  0
    8.7799    6.4115    0.0000 C   0  0  0  0  0  0  0  0  0  0  0  0
    9.2931    5.0020    0.0000 H   0  0  0  0  0  0  0  0  0  0  0  0
   10.2571    6.6723    0.0000 H   0  0  0  0  0  0  0  0  0  0  0  0
    8.7794    7.9124    0.0000 C   0  0  0  0  0  0  0  0  0  0  0  0
   10.2567    7.6520    0.0000 H   0  0  0  0  0  0  0  0  0  0  0  0
    9.2926    9.3218    0.0000 H   0  0  0  0  0  0  0  0  0  0  0  0
    7.4799    8.6632    0.0000 N   0  0  0  0  0  0  0  0  0  0  0  0
    7.4801   10.1632    0.0000 H   0  0  0  0  0  0  0  0  0  0  0  0
    6.1809    7.9132    0.0000 C   0  0  0  0  0  0  0  0  0  0  0  0
    4.8817    8.6630    0.0000 O   0  0  0  0  0  0  0  0  0  0  0  0
  1  2  1  0  0  0  0 
  1  3  1  0  0  0  0 
  1  4  1  0  0  0  0 
  1  5  1  0  0  0  0 
  5  6  1  0  0  0  0 
  5  7  1  0  0  0  0 
  7  8  1  0  0  0  0 
  7  9  1  0  0  0  0 
  7 10  1  0  0  0  0 
  5 11  1  0  0  0  0 
 11 12  1  1  0  0  0 
 11 13  1  0  0  0  0 
 13 14  2  0  0  0  0 
 13 15  1  0  0  0  0 
 15 16  1  0  0  0  0 
 17 15  1  1  0  0  0 
 17 18  1  6  0  0  0 
 17 19  1  0  0  0  0 
 19 20  1  0  0  0  0 
 19 21  1  0  0  0  0 
 19 22  1  0  0  0  0 
 22 23  2  0  0  0  0 
 23 24  1  0  0  0  0 
 23 25  1  0  0  0  0 
 25 26  1  0  0  0  0 
 25 27  2  0  0  0  0 
 27 28  1  0  0  0  0 
 27 29  1  0  0  0  0 
 29 30  1  0  0  0  0 
 29 31  2  0  0  0  0 
 22 31  1  0  0  0  0 
 31 32  1  0  0  0  0 
 17 33  1  0  0  0  0 
 33 34  1  0  0  0  0 
 33 35  1  0  0  0  0 
 33 36  1  0  0  0  0 
 36 37  1  1  0  0  0 
 36 38  1  0  0  0  0 
 38 39  2  0  0  0  0 
 39 40  1  4  0  0  0 
 39 41  1  0  0  0  0 
 41 42  2  0  0  0  0 
 41 43  1  0  0  0  0 
 43 44  1  0  0  0  0 
 43 45  1  0  0  0  0 
 43 46  1  0  0  0  0 
 46 47  1  0  0  0  0 
 47 48  2  0  0  0  0 
 48 49  1  0  0  0  0 
 49 50  1  0  0  0  0 
 49 51  1  0  0  0  0 
 49 52  1  0  0  0  0 
 48 53  1  0  0  0  0 
 53 54  1  0  0  0  0 
 53 55  2  0  0  0  0 
 55 56  1  0  0  0  0 
 55 57  1  0  0  0  0 
 57 58  1  0  0  0  0 
 57 59  2  0  0  0  0 
 47 59  1  0  0  0  0 
 59 60  1  0  0  0  0 
 60 61  1  0  0  0  0 
 60 62  1  0  0  0  0 
 60 63  1  0  0  0  0 
 38 64  1  0  0  0  0 
 64 65  1  0  0  0  0 
 64 66  1  0  0  0  0 
 64 67  1  0  0  0  0 
 67 68  2  0  0  0  0 
 68 69  1  0  0  0  0 
 68 70  1  0  0  0  0 
 70 71  1  0  0  0  0 
 70 72  2  0  0  0  0 
 72 73  1  0  0  0  0 
 72 74  1  0  0  0  0 
 74 75  1  0  0  0  0 
 74 76  2  0  0  0  0 
 67 76  1  0  0  0  0 
 76 77  1  0  0  0  0 
 36 78  1  6  0  0  0 
 78 79  1  0  0  0  0 
 11 80  1  6  0  0  0 
 80 81  1  0  0  0  0 
 81 82  1  0  0  0  0 
 81 83  1  0  0  0  0 
 81 84  1  0  0  0  0 
 84 85  1  0  0  0  0 
 84 86  1  0  0  0  0 
 84 87  1  0  0  0  0 
 87 88  1  0  0  0  0 
 87 89  1  0  0  0  0 
 87 90  1  0  0  0  0 
 90 91  1  0  0  0  0 
 90 92  1  0  0  0  0 
 80 92  1  0  0  0  0 
 92 93  2  0  0  0  0 
M  CHG  1  39   1
M  END
> <Rank>
75

> <Priority_score>
0.005600000000000001

> <Reaction_type>
dehydration of N-C bond

> <Parent_ID>
63

> <Parent_InChI>
InChI=1S/C37H48N4O5/c1-25(2)34(41-20-12-19-38-37(41)45)36(44)39-30(21-28-15-7-5-8-16-28)23-32(42)31(22-29-17-9-6-10-18-29)40-33(43)24-46-35-26(3)13-11-14-27(35)4/h5-11,13-18,25,30-32,34,42H,12,19-24H2,1-4H3,(H,38,45)(H,39,44)(H,40,43)

> <Parent_SMILES>
Cc1cccc(C)c1OCC(=O)N[C@@H](Cc1ccccc1)[C@@H](O)C[C@H](Cc1ccccc1)NC(=O)[C@H](C(C)C)N1CCCNC1=O

$$$$
Molecule 63_metabolite 78
  CDK     0516241031

 92 95  0  0  0  0  0  0  0  0999 V2000
    9.1479    3.3508    0.0000 C   0  0  0  0  0  0  0  0  0  0  0  0
    7.7383    2.8378    0.0000 H   0  0  0  0  0  0  0  0  0  0  0  0
    9.4083    1.8736    0.0000 H   0  0  0  0  0  0  0  0  0  0  0  0
   10.6479    3.3508    0.0000 H   0  0  0  0  0  0  0  0  0  0  0  0
    9.4917    5.3008    0.0000 C   0  0  0  0  0  0  0  0  0  0  0  0
    9.2312    6.7780    0.0000 H   0  0  0  0  0  0  0  0  0  0  0  0
    7.9917    5.3008    0.0000 C   0  0  0  0  0  0  0  0  0  0  0  0
    7.2417    4.0017    0.0000 H   0  0  0  0  0  0  0  0  0  0  0  0
    8.2522    6.7780    0.0000 H   0  0  0  0  0  0  0  0  0  0  0  0
    6.5822    5.8138    0.0000 H   0  0  0  0  0  0  0  0  0  0  0  0
   10.9012    5.8138    0.0000 C   0  0  1  0  0  0  0  0  0  0  0  0
   11.1617    4.3366    0.0000 H   0  0  0  0  0  0  0  0  0  0  0  0
    9.9112    7.5285    0.0000 C   0  0  0  0  0  0  0  0  0  0  0  0
   10.6612    8.8276    0.0000 O   0  0  0  0  0  0  0  0  0  0  0  0
    8.4112    7.5285    0.0000 N   0  0  0  0  0  0  0  0  0  0  0  0
    7.6612    8.8276    0.0000 C   0  0  0  0  0  0  0  0  0  0  0  0
    8.4112   10.1266    0.0000 C   0  0  0  0  0  0  0  0  0  0  0  0
    9.5603    9.1624    0.0000 H   0  0  0  0  0  0  0  0  0  0  0  0
    9.5603   11.0908    0.0000 H   0  0  0  0  0  0  0  0  0  0  0  0
    7.6612   11.4256    0.0000 C   0  0  0  0  0  0  0  0  0  0  0  0
    6.1604   11.4251    0.0000 C   0  0  0  0  0  0  0  0  0  0  0  0
    5.4106   10.1260    0.0000 H   0  0  0  0  0  0  0  0  0  0  0  0
    5.4104   12.7242    0.0000 C   0  0  0  0  0  0  0  0  0  0  0  0
    3.9104   12.7244    0.0000 H   0  0  0  0  0  0  0  0  0  0  0  0
    6.1612   14.0237    0.0000 C   0  0  0  0  0  0  0  0  0  0  0  0
    5.4112   15.3227    0.0000 H   0  0  0  0  0  0  0  0  0  0  0  0
    7.6621   14.0242    0.0000 C   0  0  0  0  0  0  0  0  0  0  0  0
    8.4119   15.3233    0.0000 H   0  0  0  0  0  0  0  0  0  0  0  0
    8.4121   12.7251    0.0000 C   0  0  0  0  0  0  0  0  0  0  0  0
    9.9121   12.7249    0.0000 H   0  0  0  0  0  0  0  0  0  0  0  0
    6.1612    8.8276    0.0000 C   0  0  0  0  0  0  0  0  0  0  0  0
    4.7517    9.3406    0.0000 H   0  0  0  0  0  0  0  0  0  0  0  0
    6.4217   10.3048    0.0000 H   0  0  0  0  0  0  0  0  0  0  0  0
    5.4112    7.5285    0.0000 C   0  0  1  0  0  0  0  0  0  0  0  0
    6.8208    7.0155    0.0000 H   0  0  0  0  0  0  0  0  0  0  0  0
    2.4712    7.5285    0.0000 C   0  0  2  0  0  0  0  0  0  0  0  0
    1.0617    7.0155    0.0000 H   0  0  0  0  0  0  0  0  0  0  0  0
    2.7317    6.0513    0.0000 C   0  0  0  0  0  0  0  0  0  0  0  0
    3.4817    4.7523    0.0000 H   0  0  0  0  0  0  0  0  0  0  0  0
    4.1413    6.5643    0.0000 H   0  0  0  0  0  0  0  0  0  0  0  0
    1.5826    5.0871    0.0000 C   0  0  0  0  0  0  0  0  0  0  0  0
    1.8437    3.6092    0.0000 C   0  0  0  0  0  0  0  0  0  0  0  0
    3.2534    3.0964    0.0000 H   0  0  0  0  0  0  0  0  0  0  0  0
    0.6947    2.6450    0.0000 C   0  0  0  0  0  0  0  0  0  0  0  0
    0.9549    1.1677    0.0000 H   0  0  0  0  0  0  0  0  0  0  0  0
   -0.7155    3.1588    0.0000 C   0  0  0  0  0  0  0  0  0  0  0  0
   -1.8646    2.1946    0.0000 H   0  0  0  0  0  0  0  0  0  0  0  0
   -0.9766    4.6367    0.0000 C   0  0  0  0  0  0  0  0  0  0  0  0
   -2.3862    5.1495    0.0000 H   0  0  0  0  0  0  0  0  0  0  0  0
    0.1725    5.6009    0.0000 C   0  0  0  0  0  0  0  0  0  0  0  0
   -0.0877    7.0781    0.0000 H   0  0  0  0  0  0  0  0  0  0  0  0
    1.4812    9.2432    0.0000 N   0  0  0  0  0  0  0  0  0  0  0  0
    2.2312   10.5423    0.0000 H   0  0  0  0  0  0  0  0  0  0  0  0
   -0.0188    9.2432    0.0000 C   0  0  0  0  0  0  0  0  0  0  0  0
   -0.7688    7.9442    0.0000 O   0  0  0  0  0  0  0  0  0  0  0  0
   -0.7688   10.5423    0.0000 C   0  0  0  0  0  0  0  0  0  0  0  0
    0.6408   11.0553    0.0000 H   0  0  0  0  0  0  0  0  0  0  0  0
   -1.0292   12.0195    0.0000 H   0  0  0  0  0  0  0  0  0  0  0  0
   -2.2688   10.5423    0.0000 O   0  0  0  0  0  0  0  0  0  0  0  0
   -3.0188   11.8413    0.0000 C   0  0  0  0  0  0  0  0  0  0  0  0
   -2.2593   13.1336    0.0000 C   0  0  0  0  0  0  0  0  0  0  0  0
   -0.7594   13.1195    0.0000 C   0  0  0  0  0  0  0  0  0  0  0  0
   -0.0216   11.8134    0.0000 H   0  0  0  0  0  0  0  0  0  0  0  0
   -1.0059   14.5991    0.0000 H   0  0  0  0  0  0  0  0  0  0  0  0
    0.6549   13.6192    0.0000 H   0  0  0  0  0  0  0  0  0  0  0  0
   -2.9851   14.4238    0.0000 C   0  0  0  0  0  0  0  0  0  0  0  0
   -2.2247   15.7167    0.0000 H   0  0  0  0  0  0  0  0  0  0  0  0
   -4.4528   14.4311    0.0000 C   0  0  0  0  0  0  0  0  0  0  0  0
   -5.1772   15.7445    0.0000 H   0  0  0  0  0  0  0  0  0  0  0  0
   -5.2400   13.1693    0.0000 C   0  0  0  0  0  0  0  0  0  0  0  0
   -6.7392   13.2185    0.0000 H   0  0  0  0  0  0  0  0  0  0  0  0
   -4.5217   11.8297    0.0000 C   0  0  0  0  0  0  0  0  0  0  0  0
   -5.2870   10.5397    0.0000 C   0  0  0  0  0  0  0  0  0  0  0  0
   -6.7869   10.5574    0.0000 H   0  0  0  0  0  0  0  0  0  0  0  0
   -5.5650    9.0656    0.0000 H   0  0  0  0  0  0  0  0  0  0  0  0
   -3.8836   10.0100    0.0000 H   0  0  0  0  0  0  0  0  0  0  0  0
    5.1508    6.0513    0.0000 O   0  0  0  0  0  0  0  0  0  0  0  0
    6.2998    5.0871    0.0000 H   0  0  0  0  0  0  0  0  0  0  0  0
   12.4012    5.8138    0.0000 N   0  0  0  0  0  0  0  0  0  0  0  0
   13.1512    7.1138    0.0000 C   0  0  0  0  0  0  0  0  0  0  0  0
   11.7416    7.6265    0.0000 H   0  0  0  0  0  0  0  0  0  0  0  0
   13.4116    8.5910    0.0000 H   0  0  0  0  0  0  0  0  0  0  0  0
   14.6512    7.1138    0.0000 C   0  0  0  0  0  0  0  0  0  0  0  0
   14.3909    8.5910    0.0000 H   0  0  0  0  0  0  0  0  0  0  0  0
   16.0609    7.6265    0.0000 H   0  0  0  0  0  0  0  0  0  0  0  0
   15.4012    5.8138    0.0000 C   0  0  0  0  0  0  0  0  0  0  0  0
   16.5504    6.7778    0.0000 H   0  0  0  0  0  0  0  0  0  0  0  0
   16.5504    4.8497    0.0000 H   0  0  0  0  0  0  0  0  0  0  0  0
   14.6512    4.5138    0.0000 N   0  0  0  0  0  0  0  0  0  0  0  0
   15.4014    3.2149    0.0000 H   0  0  0  0  0  0  0  0  0  0  0  0
   13.1512    4.5138    0.0000 C   0  0  0  0  0  0  0  0  0  0  0  0
   12.4010    3.2149    0.0000 O   0  0  0  0  0  0  0  0  0  0  0  0
  1  2  1  0  0  0  0 
  1  3  1  0  0  0  0 
  1  4  1  0  0  0  0 
  1  5  1  0  0  0  0 
  5  6  1  0  0  0  0 
  5  7  1  0  0  0  0 
  7  8  1  0  0  0  0 
  7  9  1  0  0  0  0 
  7 10  1  0  0  0  0 
  5 11  1  0  0  0  0 
 11 12  1  6  0  0  0 
 11 13  1  0  0  0  0 
 13 14  2  0  0  0  0 
 13 15  1  4  0  0  0 
 15 16  2  0  0  0  0 
 16 17  1  0  0  0  0 
 17 18  1  0  0  0  0 
 17 19  1  0  0  0  0 
 17 20  1  0  0  0  0 
 20 21  2  0  0  0  0 
 21 22  1  0  0  0  0 
 21 23  1  0  0  0  0 
 23 24  1  0  0  0  0 
 23 25  2  0  0  0  0 
 25 26  1  0  0  0  0 
 25 27  1  0  0  0  0 
 27 28  1  0  0  0  0 
 27 29  2  0  0  0  0 
 20 29  1  0  0  0  0 
 29 30  1  0  0  0  0 
 16 31  1  0  0  0  0 
 31 32  1  0  0  0  0 
 31 33  1  0  0  0  0 
 31 34  1  0  0  0  0 
 34 35  1  1  0  0  0 
 34 36  1  0  0  0  0 
 36 37  1  1  0  0  0 
 36 38  1  0  0  0  0 
 38 39  1  0  0  0  0 
 38 40  1  0  0  0  0 
 38 41  1  0  0  0  0 
 41 42  2  0  0  0  0 
 42 43  1  0  0  0  0 
 42 44  1  0  0  0  0 
 44 45  1  0  0  0  0 
 44 46  2  0  0  0  0 
 46 47  1  0  0  0  0 
 46 48  1  0  0  0  0 
 48 49  1  0  0  0  0 
 48 50  2  0  0  0  0 
 41 50  1  0  0  0  0 
 50 51  1  0  0  0  0 
 36 52  1  6  0  0  0 
 52 53  1  0  0  0  0 
 52 54  1  0  0  0  0 
 54 55  2  0  0  0  0 
 54 56  1  0  0  0  0 
 56 57  1  0  0  0  0 
 56 58  1  0  0  0  0 
 56 59  1  0  0  0  0 
 59 60  1  0  0  0  0 
 60 61  2  0  0  0  0 
 61 62  1  0  0  0  0 
 62 63  1  0  0  0  0 
 62 64  1  0  0  0  0 
 62 65  1  0  0  0  0 
 61 66  1  0  0  0  0 
 66 67  1  0  0  0  0 
 66 68  2  0  0  0  0 
 68 69  1  0  0  0  0 
 68 70  1  0  0  0  0 
 70 71  1  0  0  0  0 
 70 72  2  0  0  0  0 
 60 72  1  0  0  0  0 
 72 73  1  0  0  0  0 
 73 74  1  0  0  0  0 
 73 75  1  0  0  0  0 
 73 76  1  0  0  0  0 
 34 77  1  6  0  0  0 
 77 78  1  0  0  0  0 
 11 79  1  1  0  0  0 
 79 80  1  0  0  0  0 
 80 81  1  0  0  0  0 
 80 82  1  0  0  0  0 
 80 83  1  0  0  0  0 
 83 84  1  0  0  0  0 
 83 85  1  0  0  0  0 
 83 86  1  0  0  0  0 
 86 87  1  0  0  0  0 
 86 88  1  0  0  0  0 
 86 89  1  0  0  0  0 
 89 90  1  0  0  0  0 
 89 91  1  0  0  0  0 
 79 91  1  0  0  0  0 
 91 92  2  0  0  0  0 
M  END
> <Rank>
78

> <Priority_score>
0.004

> <Reaction_type>
dehydration of N-C bond

> <Parent_ID>
63

> <Parent_InChI>
InChI=1S/C37H48N4O5/c1-25(2)34(41-20-12-19-38-37(41)45)36(44)39-30(21-28-15-7-5-8-16-28)23-32(42)31(22-29-17-9-6-10-18-29)40-33(43)24-46-35-26(3)13-11-14-27(35)4/h5-11,13-18,25,30-32,34,42H,12,19-24H2,1-4H3,(H,38,45)(H,39,44)(H,40,43)

> <Parent_SMILES>
Cc1cccc(C)c1OCC(=O)N[C@@H](Cc1ccccc1)[C@@H](O)C[C@H](Cc1ccccc1)NC(=O)[C@H](C(C)C)N1CCCNC1=O

$$$$
Molecule 63_metabolite 79
  CDK     0516241031

 93 96  0  0  0  0  0  0  0  0999 V2000
   -0.2236    4.1900    0.0000 C   0  0  0  0  0  0  0  0  0  0  0  0
   -0.7366    5.5996    0.0000 H   0  0  0  0  0  0  0  0  0  0  0  0
   -1.7008    3.9295    0.0000 H   0  0  0  0  0  0  0  0  0  0  0  0
   -0.2236    2.6900    0.0000 H   0  0  0  0  0  0  0  0  0  0  0  0
    2.1991    3.7628    0.0000 C   0  0  0  0  0  0  0  0  0  0  0  0
    3.6763    4.0233    0.0000 H   0  0  0  0  0  0  0  0  0  0  0  0
    2.1991    5.2628    0.0000 C   0  0  0  0  0  0  0  0  0  0  0  0
    3.4981    6.0128    0.0000 H   0  0  0  0  0  0  0  0  0  0  0  0
    0.7219    5.0024    0.0000 H   0  0  0  0  0  0  0  0  0  0  0  0
    1.6860    6.6724    0.0000 H   0  0  0  0  0  0  0  0  0  0  0  0
    2.8763    1.9022    0.0000 C   0  0  1  0  0  0  0  0  0  0  0  0
    1.3991    1.6418    0.0000 H   0  0  0  0  0  0  0  0  0  0  0  0
    4.5910    2.8922    0.0000 C   0  0  0  0  0  0  0  0  0  0  0  0
    4.5910    4.3922    0.0000 O   0  0  0  0  0  0  0  0  0  0  0  0
    5.8900    2.1422    0.0000 N   0  0  0  0  0  0  0  0  0  0  0  0
    5.8900    0.6422    0.0000 H   0  0  0  0  0  0  0  0  0  0  0  0
    7.1891    2.8922    0.0000 C   0  0  0  0  0  0  0  0  0  0  0  0
    7.1891    4.3922    0.0000 C   0  0  0  0  0  0  0  0  0  0  0  0
    5.7119    4.1318    0.0000 H   0  0  0  0  0  0  0  0  0  0  0  0
    6.6761    5.8018    0.0000 H   0  0  0  0  0  0  0  0  0  0  0  0
    8.4881    5.1422    0.0000 C   0  0  0  0  0  0  0  0  0  0  0  0
    9.7876    4.3914    0.0000 C   0  0  0  0  0  0  0  0  0  0  0  0
    9.7874    2.8914    0.0000 H   0  0  0  0  0  0  0  0  0  0  0  0
   11.0867    5.1414    0.0000 C   0  0  0  0  0  0  0  0  0  0  0  0
   12.3858    4.3916    0.0000 H   0  0  0  0  0  0  0  0  0  0  0  0
   11.0862    6.6422    0.0000 C   0  0  0  0  0  0  0  0  0  0  0  0
   12.3852    7.3922    0.0000 H   0  0  0  0  0  0  0  0  0  0  0  0
    9.7867    7.3931    0.0000 C   0  0  0  0  0  0  0  0  0  0  0  0
    9.7869    8.8931    0.0000 H   0  0  0  0  0  0  0  0  0  0  0  0
    8.4876    6.6431    0.0000 C   0  0  0  0  0  0  0  0  0  0  0  0
    7.1885    7.3929    0.0000 H   0  0  0  0  0  0  0  0  0  0  0  0
    8.4881    2.1422    0.0000 C   0  0  0  0  0  0  0  0  0  0  0  0
    9.9653    1.8818    0.0000 H   0  0  0  0  0  0  0  0  0  0  0  0
    9.0012    3.5518    0.0000 H   0  0  0  0  0  0  0  0  0  0  0  0
    8.4881    0.6422    0.0000 C   0  0  1  0  0  0  0  0  0  0  0  0
    7.0109    0.9027    0.0000 H   0  0  0  0  0  0  0  0  0  0  0  0
   11.0342   -0.8278    0.0000 C   0  0  2  0  0  0  0  0  0  0  0  0
   11.9984   -1.9768    0.0000 H   0  0  0  0  0  0  0  0  0  0  0  0
   10.0701   -1.9768    0.0000 C   0  0  0  0  0  0  0  0  0  0  0  0
    8.7710   -2.7268    0.0000 H   0  0  0  0  0  0  0  0  0  0  0  0
    9.1059   -0.8278    0.0000 H   0  0  0  0  0  0  0  0  0  0  0  0
   10.5831   -3.3864    0.0000 C   0  0  0  0  0  0  0  0  0  0  0  0
    9.6180   -4.5358    0.0000 C   0  0  0  0  0  0  0  0  0  0  0  0
    8.1408   -4.2750    0.0000 H   0  0  0  0  0  0  0  0  0  0  0  0
   10.1310   -5.9453    0.0000 C   0  0  0  0  0  0  0  0  0  0  0  0
    9.1670   -7.0945    0.0000 H   0  0  0  0  0  0  0  0  0  0  0  0
   11.6091   -6.2054    0.0000 C   0  0  0  0  0  0  0  0  0  0  0  0
   12.1222   -7.6150    0.0000 H   0  0  0  0  0  0  0  0  0  0  0  0
   12.5742   -5.0560    0.0000 C   0  0  0  0  0  0  0  0  0  0  0  0
   14.0514   -5.3168    0.0000 H   0  0  0  0  0  0  0  0  0  0  0  0
   12.0612   -3.6465    0.0000 C   0  0  0  0  0  0  0  0  0  0  0  0
   13.0252   -2.4973    0.0000 H   0  0  0  0  0  0  0  0  0  0  0  0
   12.7490    0.1622    0.0000 N   0  0  0  0  0  0  0  0  0  0  0  0
   12.7490    1.6622    0.0000 H   0  0  0  0  0  0  0  0  0  0  0  0
   14.0480   -0.5878    0.0000 C   0  0  0  0  0  0  0  0  0  0  0  0
   14.0480   -2.0878    0.0000 O   0  0  0  0  0  0  0  0  0  0  0  0
   15.3470    0.1622    0.0000 C   0  0  0  0  0  0  0  0  0  0  0  0
   14.3829    1.3113    0.0000 H   0  0  0  0  0  0  0  0  0  0  0  0
   16.3112    1.3113    0.0000 H   0  0  0  0  0  0  0  0  0  0  0  0
   16.6461   -0.5878    0.0000 O   0  0  0  0  0  0  0  0  0  0  0  0
   17.9451    0.1622    0.0000 C   0  0  0  0  0  0  0  0  0  0  0  0
   17.9336    1.6611    0.0000 C   0  0  0  0  0  0  0  0  0  0  0  0
   16.6275    2.3989    0.0000 C   0  0  0  0  0  0  0  0  0  0  0  0
   15.3356    1.6366    0.0000 H   0  0  0  0  0  0  0  0  0  0  0  0
   17.5808    3.5570    0.0000 H   0  0  0  0  0  0  0  0  0  0  0  0
   15.6525    3.5388    0.0000 H   0  0  0  0  0  0  0  0  0  0  0  0
   19.2072    2.4155    0.0000 C   0  0  0  0  0  0  0  0  0  0  0  0
   19.1951    3.9155    0.0000 H   0  0  0  0  0  0  0  0  0  0  0  0
   20.4819    1.6880    0.0000 C   0  0  0  0  0  0  0  0  0  0  0  0
   21.7660    2.4633    0.0000 H   0  0  0  0  0  0  0  0  0  0  0  0
   20.5327    0.2017    0.0000 C   0  0  0  0  0  0  0  0  0  0  0  0
   21.8557   -0.5053    0.0000 H   0  0  0  0  0  0  0  0  0  0  0  0
   19.2409   -0.5993    0.0000 C   0  0  0  0  0  0  0  0  0  0  0  0
   19.2586   -2.0992    0.0000 C   0  0  0  0  0  0  0  0  0  0  0  0
   20.5665   -2.8337    0.0000 H   0  0  0  0  0  0  0  0  0  0  0  0
   18.7623   -3.5147    0.0000 H   0  0  0  0  0  0  0  0  0  0  0  0
   17.7785   -1.8562    0.0000 H   0  0  0  0  0  0  0  0  0  0  0  0
    7.9751   -0.7673    0.0000 O   0  0  0  0  0  0  0  0  0  0  0  0
    6.4979   -1.0278    0.0000 H   0  0  0  0  0  0  0  0  0  0  0  0
    2.8763    0.4022    0.0000 N   0  0  0  0  0  0  0  0  0  0  0  0
    4.1763   -0.3478    0.0000 C   0  0  0  0  0  0  0  0  0  0  0  0
    4.6890    1.0619    0.0000 H   0  0  0  0  0  0  0  0  0  0  0  0
    5.6535   -0.6081    0.0000 H   0  0  0  0  0  0  0  0  0  0  0  0
    4.1763   -1.8478    0.0000 C   0  0  0  0  0  0  0  0  0  0  0  0
    5.6535   -1.5874    0.0000 H   0  0  0  0  0  0  0  0  0  0  0  0
    4.6890   -3.2574    0.0000 H   0  0  0  0  0  0  0  0  0  0  0  0
    2.8763   -2.5978    0.0000 C   0  0  0  0  0  0  0  0  0  0  0  0
    3.8403   -3.7469    0.0000 H   0  0  0  0  0  0  0  0  0  0  0  0
    1.9122   -3.7469    0.0000 H   0  0  0  0  0  0  0  0  0  0  0  0
    1.5763   -1.8478    0.0000 N   0  0  0  0  0  0  0  0  0  0  0  0
    0.2774   -2.5980    0.0000 H   0  0  0  0  0  0  0  0  0  0  0  0
    1.5763   -0.3478    0.0000 C   0  0  0  0  0  0  0  0  0  0  0  0
    0.2774    0.4025    0.0000 O   0  0  0  0  0  0  0  0  0  0  0  0
  1  2  1  0  0  0  0 
  1  3  1  0  0  0  0 
  1  4  1  0  0  0  0 
  1  5  1  0  0  0  0 
  5  6  1  0  0  0  0 
  5  7  1  0  0  0  0 
  7  8  1  0  0  0  0 
  7  9  1  0  0  0  0 
  7 10  1  0  0  0  0 
  5 11  1  0  0  0  0 
 11 12  1  6  0  0  0 
 11 13  1  0  0  0  0 
 13 14  2  0  0  0  0 
 13 15  1  0  0  0  0 
 15 16  1  4  0  0  0 
 15 17  2  0  0  0  0 
 17 18  1  0  0  0  0 
 18 19  1  0  0  0  0 
 18 20  1  0  0  0  0 
 18 21  1  0  0  0  0 
 21 22  2  0  0  0  0 
 22 23  1  0  0  0  0 
 22 24  1  0  0  0  0 
 24 25  1  0  0  0  0 
 24 26  2  0  0  0  0 
 26 27  1  0  0  0  0 
 26 28  1  0  0  0  0 
 28 29  1  0  0  0  0 
 28 30  2  0  0  0  0 
 21 30  1  0  0  0  0 
 30 31  1  0  0  0  0 
 17 32  1  0  0  0  0 
 32 33  1  0  0  0  0 
 32 34  1  0  0  0  0 
 32 35  1  0  0  0  0 
 35 36  1  6  0  0  0 
 35 37  1  0  0  0  0 
 37 38  1  6  0  0  0 
 37 39  1  0  0  0  0 
 39 40  1  0  0  0  0 
 39 41  1  0  0  0  0 
 39 42  1  0  0  0  0 
 42 43  2  0  0  0  0 
 43 44  1  0  0  0  0 
 43 45  1  0  0  0  0 
 45 46  1  0  0  0  0 
 45 47  2  0  0  0  0 
 47 48  1  0  0  0  0 
 47 49  1  0  0  0  0 
 49 50  1  0  0  0  0 
 49 51  2  0  0  0  0 
 42 51  1  0  0  0  0 
 51 52  1  0  0  0  0 
 37 53  1  1  0  0  0 
 53 54  1  0  0  0  0 
 53 55  1  0  0  0  0 
 55 56  2  0  0  0  0 
 55 57  1  0  0  0  0 
 57 58  1  0  0  0  0 
 57 59  1  0  0  0  0 
 57 60  1  0  0  0  0 
 60 61  1  0  0  0  0 
 61 62  2  0  0  0  0 
 62 63  1  0  0  0  0 
 63 64  1  0  0  0  0 
 63 65  1  0  0  0  0 
 63 66  1  0  0  0  0 
 62 67  1  0  0  0  0 
 67 68  1  0  0  0  0 
 67 69  2  0  0  0  0 
 69 70  1  0  0  0  0 
 69 71  1  0  0  0  0 
 71 72  1  0  0  0  0 
 71 73  2  0  0  0  0 
 61 73  1  0  0  0  0 
 73 74  1  0  0  0  0 
 74 75  1  0  0  0  0 
 74 76  1  0  0  0  0 
 74 77  1  0  0  0  0 
 35 78  1  1  0  0  0 
 78 79  1  0  0  0  0 
 11 80  1  1  0  0  0 
 80 81  1  0  0  0  0 
 81 82  1  0  0  0  0 
 81 83  1  0  0  0  0 
 81 84  1  0  0  0  0 
 84 85  1  0  0  0  0 
 84 86  1  0  0  0  0 
 84 87  1  0  0  0  0 
 87 88  1  0  0  0  0 
 87 89  1  0  0  0  0 
 87 90  1  0  0  0  0 
 90 91  1  0  0  0  0 
 90 92  1  0  0  0  0 
 80 92  1  0  0  0  0 
 92 93  2  0  0  0  0 
M  CHG  1  15   1
M  END
> <Rank>
78

> <Priority_score>
0.004

> <Reaction_type>
dehydration of N-C bond

> <Parent_ID>
63

> <Parent_InChI>
InChI=1S/C37H48N4O5/c1-25(2)34(41-20-12-19-38-37(41)45)36(44)39-30(21-28-15-7-5-8-16-28)23-32(42)31(22-29-17-9-6-10-18-29)40-33(43)24-46-35-26(3)13-11-14-27(35)4/h5-11,13-18,25,30-32,34,42H,12,19-24H2,1-4H3,(H,38,45)(H,39,44)(H,40,43)

> <Parent_SMILES>
Cc1cccc(C)c1OCC(=O)N[C@@H](Cc1ccccc1)[C@@H](O)C[C@H](Cc1ccccc1)NC(=O)[C@H](C(C)C)N1CCCNC1=O

$$$$
Molecule 64
  CDK     0516241031

 28 31  0  0  0  0  0  0  0  0999 V2000
   -5.2099   -3.0101    0.0000 C   0  0  0  0  0  0  0  0  0  0  0  0
   -5.2069   -4.5101    0.0000 C   0  0  0  0  0  0  0  0  0  0  0  0
   -6.4966   -5.2605    0.0000 C   0  0  0  0  0  0  0  0  0  0  0  0
   -6.4962   -6.7605    0.0000 C   0  0  0  0  0  0  0  0  0  0  0  0
   -5.2059   -7.5101    0.0000 C   0  0  0  0  0  0  0  0  0  0  0  0
   -3.9062   -6.7597    0.0000 C   0  0  0  0  0  0  0  0  0  0  0  0
   -3.9066   -5.2597    0.0000 C   0  0  0  0  0  0  0  0  0  0  0  0
   -2.6070   -7.5095    0.0000 C   0  0  0  0  0  0  0  0  0  0  0  0
   -1.3081   -6.7593    0.0000 N   0  0  0  0  0  0  0  0  0  0  0  0
   -0.0081   -7.5093    0.0000 C   0  0  0  0  0  0  0  0  0  0  0  0
    1.2919   -6.7593    0.0000 C   0  0  0  0  0  0  0  0  0  0  0  0
    1.2919   -5.2593    0.0000 N   0  0  0  0  0  0  0  0  0  0  0  0
   -0.0081   -4.5093    0.0000 C   0  0  0  0  0  0  0  0  0  0  0  0
   -1.3081   -5.2593    0.0000 C   0  0  0  0  0  0  0  0  0  0  0  0
    2.5908   -4.5091    0.0000 C   0  0  0  0  0  0  0  0  0  0  0  0
    3.8900   -5.2588    0.0000 C   0  0  0  0  0  0  0  0  0  0  0  0
    5.1894   -4.5078    0.0000 C   0  0  0  0  0  0  0  0  0  0  0  0
    6.4886   -5.2576    0.0000 C   0  0  0  0  0  0  0  0  0  0  0  0
    6.4883   -6.7584    0.0000 C   0  0  0  0  0  0  0  0  0  0  0  0
    5.1889   -7.5095    0.0000 C   0  0  0  0  0  0  0  0  0  0  0  0
    3.8898   -6.7597    0.0000 C   0  0  0  0  0  0  0  0  0  0  0  0
    2.5906   -3.0091    0.0000 C   0  0  0  0  0  0  0  0  0  0  0  0
    3.8742   -2.2653    0.0000 C   0  0  0  0  0  0  0  0  0  0  0  0
    3.8815   -0.7653    0.0000 C   0  0  0  0  0  0  0  0  0  0  0  0
    2.6052    0.0009    0.0000 C   0  0  0  0  0  0  0  0  0  0  0  0
    1.2916   -0.7527    0.0000 C   0  0  0  0  0  0  0  0  0  0  0  0
    1.2843   -2.2527    0.0000 C   0  0  0  0  0  0  0  0  0  0  0  0
    2.6201    1.5008    0.0000 Cl  0  0  0  0  0  0  0  0  0  0  0  0
  1  2  1  0  0  0  0 
  2  3  2  0  0  0  0 
  3  4  1  0  0  0  0 
  4  5  2  0  0  0  0 
  5  6  1  0  0  0  0 
  6  7  2  0  0  0  0 
  2  7  1  0  0  0  0 
  6  8  1  0  0  0  0 
  8  9  1  0  0  0  0 
  9 10  1  0  0  0  0 
 10 11  1  0  0  0  0 
 11 12  1  0  0  0  0 
 12 13  1  0  0  0  0 
 13 14  1  0  0  0  0 
  9 14  1  0  0  0  0 
 12 15  1  0  0  0  0 
 15 16  1  0  0  0  0 
 16 17  2  0  0  0  0 
 17 18  1  0  0  0  0 
 18 19  2  0  0  0  0 
 19 20  1  0  0  0  0 
 20 21  2  0  0  0  0 
 16 21  1  0  0  0  0 
 15 22  1  0  0  0  0 
 22 23  2  0  0  0  0 
 23 24  1  0  0  0  0 
 24 25  2  0  0  0  0 
 25 26  1  0  0  0  0 
 26 27  2  0  0  0  0 
 22 27  1  0  0  0  0 
 25 28  1  0  0  0  0 
M  END
> <SMILES>
Cc1cccc(CN2CCN(C(c3ccccc3)c3ccc(Cl)cc3)CC2)c1

$$$$
Molecule 64_metabolite 1
  CDK     0516241031

 17 17  0  0  0  0  0  0  0  0999 V2000
    1.9832    2.2311    0.0000 C   0  0  0  0  0  0  0  0  0  0  0  0
    1.9807    3.7311    0.0000 H   0  0  0  0  0  0  0  0  0  0  0  0
    2.4986    0.8224    0.0000 H   0  0  0  0  0  0  0  0  0  0  0  0
    3.4599    2.4940    0.0000 H   0  0  0  0  0  0  0  0  0  0  0  0
    0.6854    1.4789    0.0000 C   0  0  0  0  0  0  0  0  0  0  0  0
   -0.6091    2.2211    0.0000 C   0  0  0  0  0  0  0  0  0  0  0  0
   -0.6114    3.7211    0.0000 H   0  0  0  0  0  0  0  0  0  0  0  0
   -1.9082    1.4711    0.0000 C   0  0  0  0  0  0  0  0  0  0  0  0
   -3.2061    2.2230    0.0000 H   0  0  0  0  0  0  0  0  0  0  0  0
   -1.9127   -0.0211    0.0000 C   0  0  0  0  0  0  0  0  0  0  0  0
   -3.2130   -0.7689    0.0000 H   0  0  0  0  0  0  0  0  0  0  0  0
   -0.6132   -0.7719    0.0000 C   0  0  0  0  0  0  0  0  0  0  0  0
    0.6859   -0.0219    0.0000 C   0  0  0  0  0  0  0  0  0  0  0  0
    1.9850   -0.7717    0.0000 H   0  0  0  0  0  0  0  0  0  0  0  0
   -0.6134   -2.2719    0.0000 C   0  0  0  0  0  0  0  0  0  0  0  0
   -1.9126   -3.0217    0.0000 H   0  0  0  0  0  0  0  0  0  0  0  0
    0.6855   -3.0222    0.0000 O   0  0  0  0  0  0  0  0  0  0  0  0
  1  2  1  0  0  0  0 
  1  3  1  0  0  0  0 
  1  4  1  0  0  0  0 
  1  5  1  0  0  0  0 
  5  6  2  0  0  0  0 
  6  7  1  0  0  0  0 
  6  8  1  0  0  0  0 
  8  9  1  0  0  0  0 
  8 10  2  0  0  0  0 
 10 11  1  0  0  0  0 
 10 12  1  0  0  0  0 
 12 13  2  0  0  0  0 
  5 13  1  0  0  0  0 
 13 14  1  0  0  0  0 
 12 15  1  0  0  0  0 
 15 16  1  0  0  0  0 
 15 17  2  0  0  0  0 
M  END
> <Rank>
1

> <Priority_score>
0.4395576360444704

> <Reaction_type>
N-dealkylation

> <Parent_ID>
64

> <Parent_InChI>
InChI=1S/C25H27ClN2/c1-20-6-5-7-21(18-20)19-27-14-16-28(17-15-27)25(22-8-3-2-4-9-22)23-10-12-24(26)13-11-23/h2-13,18,25H,14-17,19H2,1H3

> <Parent_SMILES>
Cc1cccc(CN2CCN(C(c3ccccc3)c3ccc(Cl)cc3)CC2)c1

$$$$
Molecule 64_metabolite 2
  CDK     0516241031

 56 59  0  0  0  0  0  0  0  0999 V2000
    3.4717   -6.6133    0.0000 C   0  0  0  0  0  0  0  0  0  0  0  0
    4.9494   -6.8709    0.0000 H   0  0  0  0  0  0  0  0  0  0  0  0
    1.9950   -6.8766    0.0000 H   0  0  0  0  0  0  0  0  0  0  0  0
    3.4746   -8.1132    0.0000 H   0  0  0  0  0  0  0  0  0  0  0  0
    2.9559   -5.2047    0.0000 C   0  0  0  0  0  0  0  0  0  0  0  0
    3.9113   -4.0585    0.0000 C   0  0  0  0  0  0  0  0  0  0  0  0
    5.3890   -4.3163    0.0000 H   0  0  0  0  0  0  0  0  0  0  0  0
    3.3979   -2.6491    0.0000 C   0  0  0  0  0  0  0  0  0  0  0  0
    4.3635   -1.5012    0.0000 H   0  0  0  0  0  0  0  0  0  0  0  0
    1.9291   -2.3859    0.0000 C   0  0  0  0  0  0  0  0  0  0  0  0
    1.4180   -0.9756    0.0000 H   0  0  0  0  0  0  0  0  0  0  0  0
    0.9643   -3.5356    0.0000 C   0  0  0  0  0  0  0  0  0  0  0  0
    1.4777   -4.9450    0.0000 C   0  0  0  0  0  0  0  0  0  0  0  0
    0.5140   -6.0944    0.0000 H   0  0  0  0  0  0  0  0  0  0  0  0
   -0.5129   -3.2752    0.0000 C   0  0  0  0  0  0  0  0  0  0  0  0
   -1.9901   -3.5359    0.0000 H   0  0  0  0  0  0  0  0  0  0  0  0
   -0.5128   -4.7752    0.0000 H   0  0  0  0  0  0  0  0  0  0  0  0
   -1.5188   -0.5127    0.0000 N   0  0  0  0  0  0  0  0  0  0  0  0
   -2.8183   -1.2635    0.0000 C   0  0  0  0  0  0  0  0  0  0  0  0
   -3.7823   -2.4127    0.0000 H   0  0  0  0  0  0  0  0  0  0  0  0
   -1.2366   -3.1476    0.0000 H   0  0  0  0  0  0  0  0  0  0  0  0
   -4.1173   -0.5135    0.0000 C   0  0  0  0  0  0  0  0  0  0  0  0
   -5.5945   -0.2527    0.0000 H   0  0  0  0  0  0  0  0  0  0  0  0
   -4.9589   -2.8250    0.0000 H   0  0  0  0  0  0  0  0  0  0  0  0
   -4.1168    0.9873    0.0000 N   0  0  0  0  0  0  0  0  0  0  0  0
   -2.8173    1.7382    0.0000 C   0  0  0  0  0  0  0  0  0  0  0  0
   -1.8533    2.8873    0.0000 H   0  0  0  0  0  0  0  0  0  0  0  0
   -3.7817    2.8870    0.0000 H   0  0  0  0  0  0  0  0  0  0  0  0
   -1.5183    0.9882    0.0000 C   0  0  0  0  0  0  0  0  0  0  0  0
   -0.0411    0.7274    0.0000 H   0  0  0  0  0  0  0  0  0  0  0  0
   -1.0051    2.3977    0.0000 H   0  0  0  0  0  0  0  0  0  0  0  0
   -5.8316    1.9773    0.0000 C   0  0  0  0  0  0  0  0  0  0  0  0
   -7.3088    2.2378    0.0000 H   0  0  0  0  0  0  0  0  0  0  0  0
   -5.8316    3.4773    0.0000 C   0  0  0  0  0  0  0  0  0  0  0  0
   -7.1316    4.2273    0.0000 C   0  0  0  0  0  0  0  0  0  0  0  0
   -8.4305    3.4771    0.0000 H   0  0  0  0  0  0  0  0  0  0  0  0
   -7.1316    5.7273    0.0000 C   0  0  0  0  0  0  0  0  0  0  0  0
   -8.4305    6.4776    0.0000 H   0  0  0  0  0  0  0  0  0  0  0  0
   -5.8316    6.4773    0.0000 C   0  0  0  0  0  0  0  0  0  0  0  0
   -5.8316    7.9773    0.0000 H   0  0  0  0  0  0  0  0  0  0  0  0
   -4.5316    5.7273    0.0000 C   0  0  0  0  0  0  0  0  0  0  0  0
   -3.2326    6.4776    0.0000 H   0  0  0  0  0  0  0  0  0  0  0  0
   -4.5316    4.2273    0.0000 C   0  0  0  0  0  0  0  0  0  0  0  0
   -3.2326    3.4771    0.0000 H   0  0  0  0  0  0  0  0  0  0  0  0
   -7.0616   -0.1531    0.0000 C   0  0  0  0  0  0  0  0  0  0  0  0
   -8.5451   -0.1551    0.0000 C   0  0  0  0  0  0  0  0  0  0  0  0
   -9.2927    1.1453    0.0000 H   0  0  0  0  0  0  0  0  0  0  0  0
   -9.3016   -1.4504    0.0000 C   0  0  0  0  0  0  0  0  0  0  0  0
  -10.8015   -1.4337    0.0000 H   0  0  0  0  0  0  0  0  0  0  0  0
   -8.5796   -2.7522    0.0000 C   0  0  0  0  0  0  0  0  0  0  0  0
   -7.0652   -2.7567    0.0000 C   0  0  0  0  0  0  0  0  0  0  0  0
   -6.3203   -4.0587    0.0000 H   0  0  0  0  0  0  0  0  0  0  0  0
   -6.3086   -1.4614    0.0000 C   0  0  0  0  0  0  0  0  0  0  0  0
   -4.8086   -1.4662    0.0000 H   0  0  0  0  0  0  0  0  0  0  0  0
   -9.3427   -4.0436    0.0000 Cl  0  0  0  0  0  0  0  0  0  0  0  0
   -0.0415   -0.2523    0.0000 O   0  0  0  0  0  0  0  0  0  0  0  0
  1  2  1  0  0  0  0 
  1  3  1  0  0  0  0 
  1  4  1  0  0  0  0 
  1  5  1  0  0  0  0 
  5  6  2  0  0  0  0 
  6  7  1  0  0  0  0 
  6  8  1  0  0  0  0 
  8  9  1  0  0  0  0 
  8 10  2  0  0  0  0 
 10 11  1  0  0  0  0 
 10 12  1  0  0  0  0 
 12 13  2  0  0  0  0 
  5 13  1  0  0  0  0 
 13 14  1  0  0  0  0 
 12 15  1  0  0  0  0 
 15 16  1  0  0  0  0 
 15 17  1  0  0  0  0 
 15 18  1  0  0  0  0 
 18 19  1  0  0  0  0 
 19 20  1  0  0  0  0 
 19 21  1  0  0  0  0 
 19 22  1  0  0  0  0 
 22 23  1  0  0  0  0 
 22 24  1  0  0  0  0 
 22 25  1  0  0  0  0 
 25 26  1  0  0  0  0 
 26 27  1  0  0  0  0 
 26 28  1  0  0  0  0 
 26 29  1  0  0  0  0 
 18 29  1  0  0  0  0 
 29 30  1  0  0  0  0 
 29 31  1  0  0  0  0 
 25 32  1  0  0  0  0 
 32 33  1  0  0  0  0 
 32 34  1  0  0  0  0 
 34 35  2  0  0  0  0 
 35 36  1  0  0  0  0 
 35 37  1  0  0  0  0 
 37 38  1  0  0  0  0 
 37 39  2  0  0  0  0 
 39 40  1  0  0  0  0 
 39 41  1  0  0  0  0 
 41 42  1  0  0  0  0 
 41 43  2  0  0  0  0 
 34 43  1  0  0  0  0 
 43 44  1  0  0  0  0 
 32 45  1  0  0  0  0 
 45 46  2  0  0  0  0 
 46 47  1  0  0  0  0 
 46 48  1  0  0  0  0 
 48 49  1  0  0  0  0 
 48 50  2  0  0  0  0 
 50 51  1  0  0  0  0 
 51 52  1  0  0  0  0 
 51 53  2  0  0  0  0 
 45 53  1  0  0  0  0 
 53 54  1  0  0  0  0 
 50 55  1  0  0  0  0 
 18 56  1  0  0  0  0 
M  CHG  1  18   1
M  CHG  1  56  -1
M  END
> <Rank>
1

> <Priority_score>
0.4395576360444704

> <Reaction_type>
N-oxidation_(tertiary_N)

> <Parent_ID>
64

> <Parent_InChI>
InChI=1S/C25H27ClN2/c1-20-6-5-7-21(18-20)19-27-14-16-28(17-15-27)25(22-8-3-2-4-9-22)23-10-12-24(26)13-11-23/h2-13,18,25H,14-17,19H2,1H3

> <Parent_SMILES>
Cc1cccc(CN2CCN(C(c3ccccc3)c3ccc(Cl)cc3)CC2)c1

$$$$
Molecule 64_metabolite 3
  CDK     0516241031

 39 41  0  0  0  0  0  0  0  0999 V2000
    1.8070    7.3173    0.0000 C   0  0  0  0  0  0  0  0  0  0  0  0
    1.8070    8.8173    0.0000 H   0  0  0  0  0  0  0  0  0  0  0  0
    0.5070    6.5673    0.0000 C   0  0  0  0  0  0  0  0  0  0  0  0
   -0.7919    7.3175    0.0000 H   0  0  0  0  0  0  0  0  0  0  0  0
    0.5070    5.0673    0.0000 C   0  0  0  0  0  0  0  0  0  0  0  0
   -0.7919    4.3171    0.0000 H   0  0  0  0  0  0  0  0  0  0  0  0
    1.8070    4.3173    0.0000 C   0  0  0  0  0  0  0  0  0  0  0  0
    3.1070    5.0673    0.0000 C   0  0  0  0  0  0  0  0  0  0  0  0
    4.8216    4.0770    0.0000 H   0  0  0  0  0  0  0  0  0  0  0  0
    3.1070    6.5673    0.0000 C   0  0  0  0  0  0  0  0  0  0  0  0
    4.4059    7.3175    0.0000 H   0  0  0  0  0  0  0  0  0  0  0  0
    1.8070    1.3773    0.0000 C   0  0  0  0  0  0  0  0  0  0  0  0
    2.3200   -0.0323    0.0000 H   0  0  0  0  0  0  0  0  0  0  0  0
    4.2296    0.9501    0.0000 C   0  0  0  0  0  0  0  0  0  0  0  0
    4.7390   -0.4433    0.0000 C   0  0  0  0  0  0  0  0  0  0  0  0
    3.7727   -1.5906    0.0000 H   0  0  0  0  0  0  0  0  0  0  0  0
    6.2149   -0.7112    0.0000 C   0  0  0  0  0  0  0  0  0  0  0  0
    6.7122   -2.1263    0.0000 H   0  0  0  0  0  0  0  0  0  0  0  0
    7.1912    0.4125    0.0000 C   0  0  0  0  0  0  0  0  0  0  0  0
    6.6774    1.8372    0.0000 C   0  0  0  0  0  0  0  0  0  0  0  0
    7.6462    2.9824    0.0000 H   0  0  0  0  0  0  0  0  0  0  0  0
    5.2015    2.1051    0.0000 C   0  0  0  0  0  0  0  0  0  0  0  0
    5.7213    4.9988    0.0000 H   0  0  0  0  0  0  0  0  0  0  0  0
    8.6658    0.1372    0.0000 Cl  0  0  0  0  0  0  0  0  0  0  0  0
    0.0923    0.3873    0.0000 N   0  0  0  0  0  0  0  0  0  0  0  0
    0.0928   -1.1136    0.0000 C   0  0  0  0  0  0  0  0  0  0  0  0
    0.6059   -2.5231    0.0000 H   0  0  0  0  0  0  0  0  0  0  0  0
    1.5699   -0.8528    0.0000 H   0  0  0  0  0  0  0  0  0  0  0  0
   -1.2063   -1.8636    0.0000 C   0  0  0  0  0  0  0  0  0  0  0  0
   -2.1707   -3.0124    0.0000 H   0  0  0  0  0  0  0  0  0  0  0  0
   -0.2422   -3.0127    0.0000 H   0  0  0  0  0  0  0  0  0  0  0  0
   -2.5058   -1.1127    0.0000 N   0  0  0  0  0  0  0  0  0  0  0  0
   -3.8048   -1.8627    0.0000 H   0  0  0  0  0  0  0  0  0  0  0  0
   -2.5063    0.3881    0.0000 C   0  0  0  0  0  0  0  0  0  0  0  0
   -3.0195    1.7976    0.0000 H   0  0  0  0  0  0  0  0  0  0  0  0
   -3.9834    0.1273    0.0000 H   0  0  0  0  0  0  0  0  0  0  0  0
   -1.2072    1.1381    0.0000 C   0  0  0  0  0  0  0  0  0  0  0  0
   -0.2428    2.2870    0.0000 H   0  0  0  0  0  0  0  0  0  0  0  0
   -2.1713    2.2873    0.0000 H   0  0  0  0  0  0  0  0  0  0  0  0
  1  2  1  0  0  0  0 
  1  3  2  0  0  0  0 
  3  4  1  0  0  0  0 
  3  5  1  0  0  0  0 
  5  6  1  0  0  0  0 
  5  7  2  0  0  0  0 
  7  8  1  0  0  0  0 
  8  9  1  0  0  0  0 
  8 10  2  0  0  0  0 
  1 10  1  0  0  0  0 
 10 11  1  0  0  0  0 
  7 12  1  0  0  0  0 
 12 13  1  0  0  0  0 
 12 14  1  0  0  0  0 
 14 15  2  0  0  0  0 
 15 16  1  0  0  0  0 
 15 17  1  0  0  0  0 
 17 18  1  0  0  0  0 
 17 19  2  0  0  0  0 
 19 20  1  0  0  0  0 
 20 21  1  0  0  0  0 
 20 22  2  0  0  0  0 
 14 22  1  0  0  0  0 
 22 23  1  0  0  0  0 
 19 24  1  0  0  0  0 
 12 25  1  0  0  0  0 
 25 26  1  0  0  0  0 
 26 27  1  0  0  0  0 
 26 28  1  0  0  0  0 
 26 29  1  0  0  0  0 
 29 30  1  0  0  0  0 
 29 31  1  0  0  0  0 
 29 32  1  0  0  0  0 
 32 33  1  0  0  0  0 
 32 34  1  0  0  0  0 
 34 35  1  0  0  0  0 
 34 36  1  0  0  0  0 
 34 37  1  0  0  0  0 
 25 37  1  0  0  0  0 
 37 38  1  0  0  0  0 
 37 39  1  0  0  0  0 
M  END
> <Rank>
1

> <Priority_score>
0.4395576360444704

> <Reaction_type>
N-dealkylation_(tertiaryN-CH2-alkyl)

> <Parent_ID>
64

> <Parent_InChI>
InChI=1S/C25H27ClN2/c1-20-6-5-7-21(18-20)19-27-14-16-28(17-15-27)25(22-8-3-2-4-9-22)23-10-12-24(26)13-11-23/h2-13,18,25H,14-17,19H2,1H3

> <Parent_SMILES>
Cc1cccc(CN2CCN(C(c3ccccc3)c3ccc(Cl)cc3)CC2)c1

$$$$
Molecule 64_metabolite 4
  CDK     0516241031

 56 59  0  0  0  0  0  0  0  0999 V2000
  -10.0535    2.6259    0.0000 C   0  0  0  0  0  0  0  0  0  0  0  0
  -11.3506    1.8725    0.0000 H   0  0  0  0  0  0  0  0  0  0  0  0
   -9.0922    3.7774    0.0000 H   0  0  0  0  0  0  0  0  0  0  0  0
  -11.0206    3.7725    0.0000 H   0  0  0  0  0  0  0  0  0  0  0  0
   -8.7525    1.8792    0.0000 C   0  0  0  0  0  0  0  0  0  0  0  0
   -8.7512    0.3989    0.0000 C   0  0  0  0  0  0  0  0  0  0  0  0
  -10.0473   -0.3562    0.0000 H   0  0  0  0  0  0  0  0  0  0  0  0
   -7.4750   -0.3260    0.0000 C   0  0  0  0  0  0  0  0  0  0  0  0
   -7.4864   -1.8259    0.0000 H   0  0  0  0  0  0  0  0  0  0  0  0
   -6.1709    0.3889    0.0000 C   0  0  0  0  0  0  0  0  0  0  0  0
   -4.8878   -0.3880    0.0000 H   0  0  0  0  0  0  0  0  0  0  0  0
   -6.1414    1.9086    0.0000 C   0  0  0  0  0  0  0  0  0  0  0  0
   -7.4576    2.6343    0.0000 C   0  0  0  0  0  0  0  0  0  0  0  0
   -7.4756    4.1342    0.0000 O   0  0  0  0  0  0  0  0  0  0  0  0
   -8.7836    4.8685    0.0000 H   0  0  0  0  0  0  0  0  0  0  0  0
   -4.8425    2.6588    0.0000 C   0  0  0  0  0  0  0  0  0  0  0  0
   -5.8069    3.8077    0.0000 H   0  0  0  0  0  0  0  0  0  0  0  0
   -3.8785    3.8080    0.0000 H   0  0  0  0  0  0  0  0  0  0  0  0
   -3.1276    1.6691    0.0000 N   0  0  0  0  0  0  0  0  0  0  0  0
   -1.8279    2.4195    0.0000 C   0  0  0  0  0  0  0  0  0  0  0  0
   -2.7923    3.5684    0.0000 H   0  0  0  0  0  0  0  0  0  0  0  0
   -0.8642    3.5690    0.0000 H   0  0  0  0  0  0  0  0  0  0  0  0
   -0.5276    1.6699    0.0000 C   0  0  0  0  0  0  0  0  0  0  0  0
   -0.0153    3.0797    0.0000 H   0  0  0  0  0  0  0  0  0  0  0  0
    0.7717    0.9205    0.0000 H   0  0  0  0  0  0  0  0  0  0  0  0
   -0.5271    0.1699    0.0000 N   0  0  0  0  0  0  0  0  0  0  0  0
   -1.8269   -0.5805    0.0000 C   0  0  0  0  0  0  0  0  0  0  0  0
   -0.8625   -1.7294    0.0000 H   0  0  0  0  0  0  0  0  0  0  0  0
   -2.7906   -1.7300    0.0000 H   0  0  0  0  0  0  0  0  0  0  0  0
   -3.1271    0.1691    0.0000 C   0  0  0  0  0  0  0  0  0  0  0  0
   -3.6394   -1.2407    0.0000 H   0  0  0  0  0  0  0  0  0  0  0  0
   -4.6045    0.4289    0.0000 H   0  0  0  0  0  0  0  0  0  0  0  0
    1.6035   -1.0597    0.0000 C   0  0  0  0  0  0  0  0  0  0  0  0
    3.0807   -1.3200    0.0000 H   0  0  0  0  0  0  0  0  0  0  0  0
    1.6037   -2.5597    0.0000 C   0  0  0  0  0  0  0  0  0  0  0  0
    2.9038   -3.3095    0.0000 C   0  0  0  0  0  0  0  0  0  0  0  0
    4.2026   -2.5591    0.0000 H   0  0  0  0  0  0  0  0  0  0  0  0
    2.9041   -4.8095    0.0000 C   0  0  0  0  0  0  0  0  0  0  0  0
    4.2031   -5.5595    0.0000 H   0  0  0  0  0  0  0  0  0  0  0  0
    1.6042   -5.5597    0.0000 C   0  0  0  0  0  0  0  0  0  0  0  0
    1.6044   -7.0597    0.0000 H   0  0  0  0  0  0  0  0  0  0  0  0
    0.3041   -4.8100    0.0000 C   0  0  0  0  0  0  0  0  0  0  0  0
   -0.9947   -5.5604    0.0000 H   0  0  0  0  0  0  0  0  0  0  0  0
    0.3038   -3.3100    0.0000 C   0  0  0  0  0  0  0  0  0  0  0  0
   -0.9952   -2.5600    0.0000 H   0  0  0  0  0  0  0  0  0  0  0  0
    2.5932    0.6551    0.0000 C   0  0  0  0  0  0  0  0  0  0  0  0
    4.0767    0.6574    0.0000 C   0  0  0  0  0  0  0  0  0  0  0  0
    4.8246   -0.6428    0.0000 H   0  0  0  0  0  0  0  0  0  0  0  0
    4.8331    1.9528    0.0000 C   0  0  0  0  0  0  0  0  0  0  0  0
    6.3330    1.9364    0.0000 H   0  0  0  0  0  0  0  0  0  0  0  0
    4.1109    3.2545    0.0000 C   0  0  0  0  0  0  0  0  0  0  0  0
    2.5964    3.2587    0.0000 C   0  0  0  0  0  0  0  0  0  0  0  0
    1.8513    4.5606    0.0000 H   0  0  0  0  0  0  0  0  0  0  0  0
    1.8401    1.9633    0.0000 C   0  0  0  0  0  0  0  0  0  0  0  0
    0.3401    1.9679    0.0000 H   0  0  0  0  0  0  0  0  0  0  0  0
    4.8737    4.5461    0.0000 Cl  0  0  0  0  0  0  0  0  0  0  0  0
  1  2  1  0  0  0  0 
  1  3  1  0  0  0  0 
  1  4  1  0  0  0  0 
  1  5  1  0  0  0  0 
  5  6  2  0  0  0  0 
  6  7  1  0  0  0  0 
  6  8  1  0  0  0  0 
  8  9  1  0  0  0  0 
  8 10  2  0  0  0  0 
 10 11  1  0  0  0  0 
 10 12  1  0  0  0  0 
 12 13  2  0  0  0  0 
  5 13  1  0  0  0  0 
 13 14  1  0  0  0  0 
 14 15  1  0  0  0  0 
 12 16  1  0  0  0  0 
 16 17  1  0  0  0  0 
 16 18  1  0  0  0  0 
 16 19  1  0  0  0  0 
 19 20  1  0  0  0  0 
 20 21  1  0  0  0  0 
 20 22  1  0  0  0  0 
 20 23  1  0  0  0  0 
 23 24  1  0  0  0  0 
 23 25  1  0  0  0  0 
 23 26  1  0  0  0  0 
 26 27  1  0  0  0  0 
 27 28  1  0  0  0  0 
 27 29  1  0  0  0  0 
 27 30  1  0  0  0  0 
 19 30  1  0  0  0  0 
 30 31  1  0  0  0  0 
 30 32  1  0  0  0  0 
 26 33  1  0  0  0  0 
 33 34  1  0  0  0  0 
 33 35  1  0  0  0  0 
 35 36  2  0  0  0  0 
 36 37  1  0  0  0  0 
 36 38  1  0  0  0  0 
 38 39  1  0  0  0  0 
 38 40  2  0  0  0  0 
 40 41  1  0  0  0  0 
 40 42  1  0  0  0  0 
 42 43  1  0  0  0  0 
 42 44  2  0  0  0  0 
 35 44  1  0  0  0  0 
 44 45  1  0  0  0  0 
 33 46  1  0  0  0  0 
 46 47  2  0  0  0  0 
 47 48  1  0  0  0  0 
 47 49  1  0  0  0  0 
 49 50  1  0  0  0  0 
 49 51  2  0  0  0  0 
 51 52  1  0  0  0  0 
 52 53  1  0  0  0  0 
 52 54  2  0  0  0  0 
 46 54  1  0  0  0  0 
 54 55  1  0  0  0  0 
 51 56  1  0  0  0  0 
M  END
> <Rank>
1

> <Priority_score>
0.4395576360444704

> <Reaction_type>
aromatic_hydroxylation_(ortho_to_2_substituents)

> <Parent_ID>
64

> <Parent_InChI>
InChI=1S/C25H27ClN2/c1-20-6-5-7-21(18-20)19-27-14-16-28(17-15-27)25(22-8-3-2-4-9-22)23-10-12-24(26)13-11-23/h2-13,18,25H,14-17,19H2,1H3

> <Parent_SMILES>
Cc1cccc(CN2CCN(C(c3ccccc3)c3ccc(Cl)cc3)CC2)c1

$$$$
Molecule 64_metabolite 5
  CDK     0516241031

 19 19  0  0  0  0  0  0  0  0999 V2000
    1.1584   -2.5300    0.0000 C   0  0  0  0  0  0  0  0  0  0  0  0
    2.4587   -3.2778    0.0000 H   0  0  0  0  0  0  0  0  0  0  0  0
   -0.3192   -2.2720    0.0000 H   0  0  0  0  0  0  0  0  0  0  0  0
    0.6478   -3.9404    0.0000 H   0  0  0  0  0  0  0  0  0  0  0  0
    1.1559   -1.0300    0.0000 C   0  0  0  0  0  0  0  0  0  0  0  0
    2.4459   -0.2800    0.0000 C   0  0  0  0  0  0  0  0  0  0  0  0
    3.7461   -1.0281    0.0000 H   0  0  0  0  0  0  0  0  0  0  0  0
    2.4459    1.2200    0.0000 C   0  0  0  0  0  0  0  0  0  0  0  0
    3.7461    1.9680    0.0000 H   0  0  0  0  0  0  0  0  0  0  0  0
    1.1559    1.9700    0.0000 C   0  0  0  0  0  0  0  0  0  0  0  0
    1.1584    3.4700    0.0000 H   0  0  0  0  0  0  0  0  0  0  0  0
   -0.1441    1.2200    0.0000 C   0  0  0  0  0  0  0  0  0  0  0  0
   -0.1441   -0.2800    0.0000 C   0  0  0  0  0  0  0  0  0  0  0  0
   -1.4430   -1.0302    0.0000 H   0  0  0  0  0  0  0  0  0  0  0  0
   -1.4430    1.9702    0.0000 C   0  0  0  0  0  0  0  0  0  0  0  0
   -2.9202    2.2309    0.0000 H   0  0  0  0  0  0  0  0  0  0  0  0
   -1.9563    0.5607    0.0000 H   0  0  0  0  0  0  0  0  0  0  0  0
   -1.4428    3.4702    0.0000 O   0  0  0  0  0  0  0  0  0  0  0  0
   -2.7417    4.2204    0.0000 H   0  0  0  0  0  0  0  0  0  0  0  0
  1  2  1  0  0  0  0 
  1  3  1  0  0  0  0 
  1  4  1  0  0  0  0 
  1  5  1  0  0  0  0 
  5  6  2  0  0  0  0 
  6  7  1  0  0  0  0 
  6  8  1  0  0  0  0 
  8  9  1  0  0  0  0 
  8 10  2  0  0  0  0 
 10 11  1  0  0  0  0 
 10 12  1  0  0  0  0 
 12 13  2  0  0  0  0 
  5 13  1  0  0  0  0 
 13 14  1  0  0  0  0 
 12 15  1  0  0  0  0 
 15 16  1  0  0  0  0 
 15 17  1  0  0  0  0 
 15 18  1  0  0  0  0 
 18 19  1  0  0  0  0 
M  END
> <Rank>
1

> <Priority_score>
0.4395576360444704

> <Reaction_type>
N-dealkylation_(tertiaryN-CH2-alkyl)

> <Parent_ID>
64

> <Parent_InChI>
InChI=1S/C25H27ClN2/c1-20-6-5-7-21(18-20)19-27-14-16-28(17-15-27)25(22-8-3-2-4-9-22)23-10-12-24(26)13-11-23/h2-13,18,25H,14-17,19H2,1H3

> <Parent_SMILES>
Cc1cccc(CN2CCN(C(c3ccccc3)c3ccc(Cl)cc3)CC2)c1

$$$$
Molecule 64_metabolite 6
  CDK     0516241031

 56 59  0  0  0  0  0  0  0  0999 V2000
   -4.1551   -5.9878    0.0000 C   0  0  0  0  0  0  0  0  0  0  0  0
   -4.1576   -7.4878    0.0000 H   0  0  0  0  0  0  0  0  0  0  0  0
   -3.6397   -4.5791    0.0000 H   0  0  0  0  0  0  0  0  0  0  0  0
   -2.6783   -6.2507    0.0000 H   0  0  0  0  0  0  0  0  0  0  0  0
   -5.4529   -5.2356    0.0000 C   0  0  0  0  0  0  0  0  0  0  0  0
   -6.7474   -5.9778    0.0000 C   0  0  0  0  0  0  0  0  0  0  0  0
   -6.7497   -7.4778    0.0000 H   0  0  0  0  0  0  0  0  0  0  0  0
   -8.0464   -5.2278    0.0000 C   0  0  0  0  0  0  0  0  0  0  0  0
   -9.3443   -5.9797    0.0000 H   0  0  0  0  0  0  0  0  0  0  0  0
   -8.0509   -3.7356    0.0000 C   0  0  0  0  0  0  0  0  0  0  0  0
   -9.3512   -2.9878    0.0000 H   0  0  0  0  0  0  0  0  0  0  0  0
   -6.7514   -2.9848    0.0000 C   0  0  0  0  0  0  0  0  0  0  0  0
   -5.4524   -3.7348    0.0000 C   0  0  0  0  0  0  0  0  0  0  0  0
   -4.1532   -2.9850    0.0000 H   0  0  0  0  0  0  0  0  0  0  0  0
   -6.7517   -1.4848    0.0000 C   0  0  0  0  0  0  0  0  0  0  0  0
   -8.2288   -1.7455    0.0000 H   0  0  0  0  0  0  0  0  0  0  0  0
   -5.0371   -0.4945    0.0000 N   0  0  0  0  0  0  0  0  0  0  0  0
   -5.0371    1.0063    0.0000 C   0  0  0  0  0  0  0  0  0  0  0  0
   -6.5142    0.7456    0.0000 H   0  0  0  0  0  0  0  0  0  0  0  0
   -5.5507    2.4157    0.0000 H   0  0  0  0  0  0  0  0  0  0  0  0
   -3.7378    1.7576    0.0000 C   0  0  0  0  0  0  0  0  0  0  0  0
   -4.7026    2.9061    0.0000 H   0  0  0  0  0  0  0  0  0  0  0  0
   -2.4391    2.5082    0.0000 H   0  0  0  0  0  0  0  0  0  0  0  0
   -2.4385    1.0080    0.0000 N   0  0  0  0  0  0  0  0  0  0  0  0
   -2.4385   -0.4928    0.0000 C   0  0  0  0  0  0  0  0  0  0  0  0
   -0.9614   -0.2320    0.0000 H   0  0  0  0  0  0  0  0  0  0  0  0
   -1.9249   -1.9021    0.0000 H   0  0  0  0  0  0  0  0  0  0  0  0
   -3.7378   -1.2441    0.0000 C   0  0  0  0  0  0  0  0  0  0  0  0
   -2.7730   -2.3926    0.0000 H   0  0  0  0  0  0  0  0  0  0  0  0
   -4.7015   -2.3935    0.0000 H   0  0  0  0  0  0  0  0  0  0  0  0
   -0.3083    2.2384    0.0000 C   0  0  0  0  0  0  0  0  0  0  0  0
    0.6557    3.3876    0.0000 H   0  0  0  0  0  0  0  0  0  0  0  0
    0.9909    1.4886    0.0000 C   0  0  0  0  0  0  0  0  0  0  0  0
    2.2903    2.2396    0.0000 C   0  0  0  0  0  0  0  0  0  0  0  0
    2.2898    3.7396    0.0000 H   0  0  0  0  0  0  0  0  0  0  0  0
    3.5894    1.4898    0.0000 C   0  0  0  0  0  0  0  0  0  0  0  0
    4.8884    2.2398    0.0000 H   0  0  0  0  0  0  0  0  0  0  0  0
    3.5892   -0.0110    0.0000 C   0  0  0  0  0  0  0  0  0  0  0  0
    4.8883   -0.7608    0.0000 H   0  0  0  0  0  0  0  0  0  0  0  0
    2.2898   -0.7621    0.0000 C   0  0  0  0  0  0  0  0  0  0  0  0
    2.2903   -2.2621    0.0000 H   0  0  0  0  0  0  0  0  0  0  0  0
    0.9906   -0.0123    0.0000 C   0  0  0  0  0  0  0  0  0  0  0  0
   -0.3084   -0.7623    0.0000 H   0  0  0  0  0  0  0  0  0  0  0  0
   -1.2986    3.9529    0.0000 C   0  0  0  0  0  0  0  0  0  0  0  0
   -0.5588    5.2389    0.0000 C   0  0  0  0  0  0  0  0  0  0  0  0
    0.9412    5.2364    0.0000 H   0  0  0  0  0  0  0  0  0  0  0  0
   -1.3025    6.5415    0.0000 C   0  0  0  0  0  0  0  0  0  0  0  0
   -0.5383    7.8323    0.0000 H   0  0  0  0  0  0  0  0  0  0  0  0
   -2.7909    6.5669    0.0000 C   0  0  0  0  0  0  0  0  0  0  0  0
   -3.5518    5.2575    0.0000 C   0  0  0  0  0  0  0  0  0  0  0  0
   -5.0517    5.2632    0.0000 H   0  0  0  0  0  0  0  0  0  0  0  0
   -2.8081    3.9548    0.0000 C   0  0  0  0  0  0  0  0  0  0  0  0
   -3.5620    2.6580    0.0000 H   0  0  0  0  0  0  0  0  0  0  0  0
   -3.5280    7.8734    0.0000 Cl  0  0  0  0  0  0  0  0  0  0  0  0
   -7.2649   -0.0753    0.0000 O   0  0  0  0  0  0  0  0  0  0  0  0
   -8.7422    0.1849    0.0000 H   0  0  0  0  0  0  0  0  0  0  0  0
  1  2  1  0  0  0  0 
  1  3  1  0  0  0  0 
  1  4  1  0  0  0  0 
  1  5  1  0  0  0  0 
  5  6  2  0  0  0  0 
  6  7  1  0  0  0  0 
  6  8  1  0  0  0  0 
  8  9  1  0  0  0  0 
  8 10  2  0  0  0  0 
 10 11  1  0  0  0  0 
 10 12  1  0  0  0  0 
 12 13  2  0  0  0  0 
  5 13  1  0  0  0  0 
 13 14  1  0  0  0  0 
 12 15  1  0  0  0  0 
 15 16  1  0  0  0  0 
 15 17  1  0  0  0  0 
 17 18  1  0  0  0  0 
 18 19  1  0  0  0  0 
 18 20  1  0  0  0  0 
 18 21  1  0  0  0  0 
 21 22  1  0  0  0  0 
 21 23  1  0  0  0  0 
 21 24  1  0  0  0  0 
 24 25  1  0  0  0  0 
 25 26  1  0  0  0  0 
 25 27  1  0  0  0  0 
 25 28  1  0  0  0  0 
 17 28  1  0  0  0  0 
 28 29  1  0  0  0  0 
 28 30  1  0  0  0  0 
 24 31  1  0  0  0  0 
 31 32  1  0  0  0  0 
 31 33  1  0  0  0  0 
 33 34  2  0  0  0  0 
 34 35  1  0  0  0  0 
 34 36  1  0  0  0  0 
 36 37  1  0  0  0  0 
 36 38  2  0  0  0  0 
 38 39  1  0  0  0  0 
 38 40  1  0  0  0  0 
 40 41  1  0  0  0  0 
 40 42  2  0  0  0  0 
 33 42  1  0  0  0  0 
 42 43  1  0  0  0  0 
 31 44  1  0  0  0  0 
 44 45  2  0  0  0  0 
 45 46  1  0  0  0  0 
 45 47  1  0  0  0  0 
 47 48  1  0  0  0  0 
 47 49  2  0  0  0  0 
 49 50  1  0  0  0  0 
 50 51  1  0  0  0  0 
 50 52  2  0  0  0  0 
 44 52  1  0  0  0  0 
 52 53  1  0  0  0  0 
 49 54  1  0  0  0  0 
 15 55  1  0  0  0  0 
 55 56  1  0  0  0  0 
M  END
> <Rank>
1

> <Priority_score>
0.4395576360444704

> <Reaction_type>
benzylic_hydroxylation_(c-CH2-N)

> <Parent_ID>
64

> <Parent_InChI>
InChI=1S/C25H27ClN2/c1-20-6-5-7-21(18-20)19-27-14-16-28(17-15-27)25(22-8-3-2-4-9-22)23-10-12-24(26)13-11-23/h2-13,18,25H,14-17,19H2,1H3

> <Parent_SMILES>
Cc1cccc(CN2CCN(C(c3ccccc3)c3ccc(Cl)cc3)CC2)c1

$$$$
Molecule 64_metabolite 7
  CDK     0516241031

 56 59  0  0  0  0  0  0  0  0999 V2000
   -8.2195   -0.6696    0.0000 C   0  0  0  0  0  0  0  0  0  0  0  0
   -9.5185   -1.4196    0.0000 H   0  0  0  0  0  0  0  0  0  0  0  0
   -6.7423   -0.4091    0.0000 H   0  0  0  0  0  0  0  0  0  0  0  0
   -7.7064   -2.0791    0.0000 H   0  0  0  0  0  0  0  0  0  0  0  0
   -8.2195    0.8304    0.0000 C   0  0  0  0  0  0  0  0  0  0  0  0
   -6.9195    1.5804    0.0000 C   0  0  0  0  0  0  0  0  0  0  0  0
   -5.6206    0.8302    0.0000 H   0  0  0  0  0  0  0  0  0  0  0  0
   -6.9195    3.0804    0.0000 C   0  0  0  0  0  0  0  0  0  0  0  0
   -8.2195    3.8304    0.0000 C   0  0  0  0  0  0  0  0  0  0  0  0
   -8.2195    5.3304    0.0000 H   0  0  0  0  0  0  0  0  0  0  0  0
   -9.5195    3.0804    0.0000 C   0  0  0  0  0  0  0  0  0  0  0  0
  -10.8184    3.8306    0.0000 H   0  0  0  0  0  0  0  0  0  0  0  0
   -9.5195    1.5804    0.0000 C   0  0  0  0  0  0  0  0  0  0  0  0
  -10.8184    0.8302    0.0000 O   0  0  0  0  0  0  0  0  0  0  0  0
  -12.1175    1.5800    0.0000 H   0  0  0  0  0  0  0  0  0  0  0  0
   -5.6206    3.8306    0.0000 C   0  0  0  0  0  0  0  0  0  0  0  0
   -6.5849    4.9795    0.0000 H   0  0  0  0  0  0  0  0  0  0  0  0
   -4.6566    4.9798    0.0000 H   0  0  0  0  0  0  0  0  0  0  0  0
   -3.9057    2.8409    0.0000 N   0  0  0  0  0  0  0  0  0  0  0  0
   -2.6059    3.5913    0.0000 C   0  0  0  0  0  0  0  0  0  0  0  0
   -3.5703    4.7402    0.0000 H   0  0  0  0  0  0  0  0  0  0  0  0
   -1.6422    4.7408    0.0000 H   0  0  0  0  0  0  0  0  0  0  0  0
   -1.3057    2.8417    0.0000 C   0  0  0  0  0  0  0  0  0  0  0  0
   -0.7934    4.2515    0.0000 H   0  0  0  0  0  0  0  0  0  0  0  0
   -0.0063    2.0923    0.0000 H   0  0  0  0  0  0  0  0  0  0  0  0
   -1.3052    1.3417    0.0000 N   0  0  0  0  0  0  0  0  0  0  0  0
   -2.6049    0.5913    0.0000 C   0  0  0  0  0  0  0  0  0  0  0  0
   -1.6405   -0.5575    0.0000 H   0  0  0  0  0  0  0  0  0  0  0  0
   -3.5686   -0.5582    0.0000 H   0  0  0  0  0  0  0  0  0  0  0  0
   -3.9052    1.3409    0.0000 C   0  0  0  0  0  0  0  0  0  0  0  0
   -4.4175   -0.0689    0.0000 H   0  0  0  0  0  0  0  0  0  0  0  0
   -5.3825    1.6007    0.0000 H   0  0  0  0  0  0  0  0  0  0  0  0
    0.8254    0.1121    0.0000 C   0  0  0  0  0  0  0  0  0  0  0  0
    2.3027   -0.1482    0.0000 H   0  0  0  0  0  0  0  0  0  0  0  0
    0.8257   -1.3879    0.0000 C   0  0  0  0  0  0  0  0  0  0  0  0
    2.1258   -2.1377    0.0000 C   0  0  0  0  0  0  0  0  0  0  0  0
    3.4246   -1.3873    0.0000 H   0  0  0  0  0  0  0  0  0  0  0  0
    2.1260   -3.6377    0.0000 C   0  0  0  0  0  0  0  0  0  0  0  0
    3.4251   -4.3877    0.0000 H   0  0  0  0  0  0  0  0  0  0  0  0
    0.8262   -4.3879    0.0000 C   0  0  0  0  0  0  0  0  0  0  0  0
    0.8264   -5.8879    0.0000 H   0  0  0  0  0  0  0  0  0  0  0  0
   -0.4740   -3.6381    0.0000 C   0  0  0  0  0  0  0  0  0  0  0  0
   -1.7728   -4.3886    0.0000 H   0  0  0  0  0  0  0  0  0  0  0  0
   -0.4742   -2.1381    0.0000 C   0  0  0  0  0  0  0  0  0  0  0  0
   -1.7732   -1.3881    0.0000 H   0  0  0  0  0  0  0  0  0  0  0  0
    1.8152    1.8270    0.0000 C   0  0  0  0  0  0  0  0  0  0  0  0
    3.2987    1.8293    0.0000 C   0  0  0  0  0  0  0  0  0  0  0  0
    4.0465    0.5290    0.0000 H   0  0  0  0  0  0  0  0  0  0  0  0
    4.0550    3.1246    0.0000 C   0  0  0  0  0  0  0  0  0  0  0  0
    5.5549    3.1082    0.0000 H   0  0  0  0  0  0  0  0  0  0  0  0
    3.3328    4.4263    0.0000 C   0  0  0  0  0  0  0  0  0  0  0  0
    1.8183    4.4305    0.0000 C   0  0  0  0  0  0  0  0  0  0  0  0
    1.0733    5.7324    0.0000 H   0  0  0  0  0  0  0  0  0  0  0  0
    1.0620    3.1352    0.0000 C   0  0  0  0  0  0  0  0  0  0  0  0
   -0.4380    3.1397    0.0000 H   0  0  0  0  0  0  0  0  0  0  0  0
    4.0957    5.7179    0.0000 Cl  0  0  0  0  0  0  0  0  0  0  0  0
  1  2  1  0  0  0  0 
  1  3  1  0  0  0  0 
  1  4  1  0  0  0  0 
  1  5  1  0  0  0  0 
  5  6  2  0  0  0  0 
  6  7  1  0  0  0  0 
  6  8  1  0  0  0  0 
  8  9  2  0  0  0  0 
  9 10  1  0  0  0  0 
  9 11  1  0  0  0  0 
 11 12  1  0  0  0  0 
 11 13  2  0  0  0  0 
  5 13  1  0  0  0  0 
 13 14  1  0  0  0  0 
 14 15  1  0  0  0  0 
  8 16  1  0  0  0  0 
 16 17  1  0  0  0  0 
 16 18  1  0  0  0  0 
 16 19  1  0  0  0  0 
 19 20  1  0  0  0  0 
 20 21  1  0  0  0  0 
 20 22  1  0  0  0  0 
 20 23  1  0  0  0  0 
 23 24  1  0  0  0  0 
 23 25  1  0  0  0  0 
 23 26  1  0  0  0  0 
 26 27  1  0  0  0  0 
 27 28  1  0  0  0  0 
 27 29  1  0  0  0  0 
 27 30  1  0  0  0  0 
 19 30  1  0  0  0  0 
 30 31  1  0  0  0  0 
 30 32  1  0  0  0  0 
 26 33  1  0  0  0  0 
 33 34  1  0  0  0  0 
 33 35  1  0  0  0  0 
 35 36  2  0  0  0  0 
 36 37  1  0  0  0  0 
 36 38  1  0  0  0  0 
 38 39  1  0  0  0  0 
 38 40  2  0  0  0  0 
 40 41  1  0  0  0  0 
 40 42  1  0  0  0  0 
 42 43  1  0  0  0  0 
 42 44  2  0  0  0  0 
 35 44  1  0  0  0  0 
 44 45  1  0  0  0  0 
 33 46  1  0  0  0  0 
 46 47  2  0  0  0  0 
 47 48  1  0  0  0  0 
 47 49  1  0  0  0  0 
 49 50  1  0  0  0  0 
 49 51  2  0  0  0  0 
 51 52  1  0  0  0  0 
 52 53  1  0  0  0  0 
 52 54  2  0  0  0  0 
 46 54  1  0  0  0  0 
 54 55  1  0  0  0  0 
 51 56  1  0  0  0  0 
M  END
> <Rank>
1

> <Priority_score>
0.4395576360444704

> <Reaction_type>
aromatic_hydroxylation_(para_to_carbon)

> <Parent_ID>
64

> <Parent_InChI>
InChI=1S/C25H27ClN2/c1-20-6-5-7-21(18-20)19-27-14-16-28(17-15-27)25(22-8-3-2-4-9-22)23-10-12-24(26)13-11-23/h2-13,18,25H,14-17,19H2,1H3

> <Parent_SMILES>
Cc1cccc(CN2CCN(C(c3ccccc3)c3ccc(Cl)cc3)CC2)c1

$$$$
Molecule 64_metabolite 8
  CDK     0516241031

 51 53  0  0  0  0  0  0  0  0999 V2000
   -3.4890    0.9819    0.0000 C   0  0  0  0  0  0  0  0  0  0  0  0
   -4.9890    0.9794    0.0000 H   0  0  0  0  0  0  0  0  0  0  0  0
   -2.0803    1.4973    0.0000 H   0  0  0  0  0  0  0  0  0  0  0  0
   -3.7519    2.4587    0.0000 H   0  0  0  0  0  0  0  0  0  0  0  0
   -2.7368   -0.3159    0.0000 C   0  0  0  0  0  0  0  0  0  0  0  0
   -3.4790   -1.6104    0.0000 C   0  0  0  0  0  0  0  0  0  0  0  0
   -4.9790   -1.6127    0.0000 H   0  0  0  0  0  0  0  0  0  0  0  0
   -2.7290   -2.9095    0.0000 C   0  0  0  0  0  0  0  0  0  0  0  0
   -3.4809   -4.2074    0.0000 H   0  0  0  0  0  0  0  0  0  0  0  0
   -1.2368   -2.9140    0.0000 C   0  0  0  0  0  0  0  0  0  0  0  0
   -0.4890   -4.2143    0.0000 H   0  0  0  0  0  0  0  0  0  0  0  0
   -0.4860   -1.6145    0.0000 C   0  0  0  0  0  0  0  0  0  0  0  0
   -1.2360   -0.3154    0.0000 C   0  0  0  0  0  0  0  0  0  0  0  0
   -0.4862    0.9837    0.0000 H   0  0  0  0  0  0  0  0  0  0  0  0
    1.0140   -1.6147    0.0000 C   0  0  0  0  0  0  0  0  0  0  0  0
    2.4237   -1.1019    0.0000 H   0  0  0  0  0  0  0  0  0  0  0  0
    0.7538   -0.1374    0.0000 H   0  0  0  0  0  0  0  0  0  0  0  0
    1.7638   -2.9139    0.0000 N   0  0  0  0  0  0  0  0  0  0  0  0
    1.0136   -4.2128    0.0000 H   0  0  0  0  0  0  0  0  0  0  0  0
    3.7438   -2.9142    0.0000 C   0  0  0  0  0  0  0  0  0  0  0  0
    5.1535   -2.4014    0.0000 H   0  0  0  0  0  0  0  0  0  0  0  0
    3.4836   -1.4369    0.0000 H   0  0  0  0  0  0  0  0  0  0  0  0
    4.4936   -4.2133    0.0000 C   0  0  0  0  0  0  0  0  0  0  0  0
    3.0840   -4.7261    0.0000 H   0  0  0  0  0  0  0  0  0  0  0  0
    4.7539   -5.6906    0.0000 H   0  0  0  0  0  0  0  0  0  0  0  0
    5.9936   -4.2136    0.0000 N   0  0  0  0  0  0  0  0  0  0  0  0
    6.7438   -2.9147    0.0000 H   0  0  0  0  0  0  0  0  0  0  0  0
    6.9833   -5.9285    0.0000 C   0  0  0  0  0  0  0  0  0  0  0  0
    5.5737   -6.4413    0.0000 H   0  0  0  0  0  0  0  0  0  0  0  0
    8.4833   -5.9287    0.0000 C   0  0  0  0  0  0  0  0  0  0  0  0
    9.2336   -4.6288    0.0000 C   0  0  0  0  0  0  0  0  0  0  0  0
    8.4836   -3.3298    0.0000 H   0  0  0  0  0  0  0  0  0  0  0  0
   10.7336   -4.6291    0.0000 C   0  0  0  0  0  0  0  0  0  0  0  0
   11.4840   -3.3303    0.0000 H   0  0  0  0  0  0  0  0  0  0  0  0
   11.4833   -5.9292    0.0000 C   0  0  0  0  0  0  0  0  0  0  0  0
   12.9833   -5.9294    0.0000 H   0  0  0  0  0  0  0  0  0  0  0  0
   10.7331   -7.2291    0.0000 C   0  0  0  0  0  0  0  0  0  0  0  0
   11.4831   -8.5281    0.0000 H   0  0  0  0  0  0  0  0  0  0  0  0
    9.2331   -7.2288    0.0000 C   0  0  0  0  0  0  0  0  0  0  0  0
    8.2686   -8.3776    0.0000 H   0  0  0  0  0  0  0  0  0  0  0  0
    7.4934   -8.8239    0.0000 C   0  0  0  0  0  0  0  0  0  0  0  0
    6.3581   -9.7789    0.0000 C   0  0  0  0  0  0  0  0  0  0  0  0
    4.9496   -9.2631    0.0000 H   0  0  0  0  0  0  0  0  0  0  0  0
    6.6109  -11.2574    0.0000 C   0  0  0  0  0  0  0  0  0  0  0  0
    5.4511  -12.2086    0.0000 H   0  0  0  0  0  0  0  0  0  0  0  0
    8.0007  -11.7908    0.0000 C   0  0  0  0  0  0  0  0  0  0  0  0
    9.1639  -10.8209    0.0000 C   0  0  0  0  0  0  0  0  0  0  0  0
   10.5713  -11.3398    0.0000 H   0  0  0  0  0  0  0  0  0  0  0  0
    8.9111   -9.3424    0.0000 C   0  0  0  0  0  0  0  0  0  0  0  0
   10.0634   -8.3821    0.0000 H   0  0  0  0  0  0  0  0  0  0  0  0
    8.2460  -13.2706    0.0000 Cl  0  0  0  0  0  0  0  0  0  0  0  0
  1  2  1  0  0  0  0 
  1  3  1  0  0  0  0 
  1  4  1  0  0  0  0 
  1  5  1  0  0  0  0 
  5  6  2  0  0  0  0 
  6  7  1  0  0  0  0 
  6  8  1  0  0  0  0 
  8  9  1  0  0  0  0 
  8 10  2  0  0  0  0 
 10 11  1  0  0  0  0 
 10 12  1  0  0  0  0 
 12 13  2  0  0  0  0 
  5 13  1  0  0  0  0 
 13 14  1  0  0  0  0 
 12 15  1  0  0  0  0 
 15 16  1  0  0  0  0 
 15 17  1  0  0  0  0 
 15 18  1  0  0  0  0 
 18 19  1  0  0  0  0 
 18 20  1  0  0  0  0 
 20 21  1  0  0  0  0 
 20 22  1  0  0  0  0 
 20 23  1  0  0  0  0 
 23 24  1  0  0  0  0 
 23 25  1  0  0  0  0 
 23 26  1  0  0  0  0 
 26 27  1  0  0  0  0 
 26 28  1  0  0  0  0 
 28 29  1  0  0  0  0 
 28 30  1  0  0  0  0 
 30 31  2  0  0  0  0 
 31 32  1  0  0  0  0 
 31 33  1  0  0  0  0 
 33 34  1  0  0  0  0 
 33 35  2  0  0  0  0 
 35 36  1  0  0  0  0 
 35 37  1  0  0  0  0 
 37 38  1  0  0  0  0 
 37 39  2  0  0  0  0 
 30 39  1  0  0  0  0 
 39 40  1  0  0  0  0 
 28 41  1  0  0  0  0 
 41 42  2  0  0  0  0 
 42 43  1  0  0  0  0 
 42 44  1  0  0  0  0 
 44 45  1  0  0  0  0 
 44 46  2  0  0  0  0 
 46 47  1  0  0  0  0 
 47 48  1  0  0  0  0 
 47 49  2  0  0  0  0 
 41 49  1  0  0  0  0 
 49 50  1  0  0  0  0 
 46 51  1  0  0  0  0 
M  END
> <Rank>
1

> <Priority_score>
0.4395576360444704

> <Reaction_type>
N-dealkylation of piperazine

> <Parent_ID>
64

> <Parent_InChI>
InChI=1S/C25H27ClN2/c1-20-6-5-7-21(18-20)19-27-14-16-28(17-15-27)25(22-8-3-2-4-9-22)23-10-12-24(26)13-11-23/h2-13,18,25H,14-17,19H2,1H3

> <Parent_SMILES>
Cc1cccc(CN2CCN(C(c3ccccc3)c3ccc(Cl)cc3)CC2)c1

$$$$
Molecule 64_metabolite 9
  CDK     0516241031

 56 59  0  0  0  0  0  0  0  0999 V2000
   -8.5441   -1.2323    0.0000 C   0  0  0  0  0  0  0  0  0  0  0  0
   -9.8432   -1.9823    0.0000 H   0  0  0  0  0  0  0  0  0  0  0  0
   -7.0669   -0.9719    0.0000 H   0  0  0  0  0  0  0  0  0  0  0  0
   -8.0311   -2.6419    0.0000 H   0  0  0  0  0  0  0  0  0  0  0  0
   -8.5441    0.2677    0.0000 C   0  0  0  0  0  0  0  0  0  0  0  0
   -9.8441    1.0177    0.0000 C   0  0  0  0  0  0  0  0  0  0  0  0
  -11.1431    0.2674    0.0000 H   0  0  0  0  0  0  0  0  0  0  0  0
   -9.8441    2.5177    0.0000 C   0  0  0  0  0  0  0  0  0  0  0  0
   -8.5441    3.2677    0.0000 C   0  0  0  0  0  0  0  0  0  0  0  0
   -8.5441    4.7677    0.0000 H   0  0  0  0  0  0  0  0  0  0  0  0
   -7.2441    2.5177    0.0000 C   0  0  0  0  0  0  0  0  0  0  0  0
   -7.2441    1.0177    0.0000 C   0  0  0  0  0  0  0  0  0  0  0  0
   -5.9452    0.2674    0.0000 H   0  0  0  0  0  0  0  0  0  0  0  0
   -5.9452    3.2679    0.0000 C   0  0  0  0  0  0  0  0  0  0  0  0
   -6.9096    4.4168    0.0000 H   0  0  0  0  0  0  0  0  0  0  0  0
   -4.9812    4.4171    0.0000 H   0  0  0  0  0  0  0  0  0  0  0  0
   -4.2303    2.2781    0.0000 N   0  0  0  0  0  0  0  0  0  0  0  0
   -2.9306    3.0286    0.0000 C   0  0  0  0  0  0  0  0  0  0  0  0
   -3.8950    4.1774    0.0000 H   0  0  0  0  0  0  0  0  0  0  0  0
   -1.9669    4.1780    0.0000 H   0  0  0  0  0  0  0  0  0  0  0  0
   -1.6303    2.2790    0.0000 C   0  0  0  0  0  0  0  0  0  0  0  0
   -1.1181    3.6888    0.0000 H   0  0  0  0  0  0  0  0  0  0  0  0
   -0.3310    1.5295    0.0000 H   0  0  0  0  0  0  0  0  0  0  0  0
   -1.6299    0.7790    0.0000 N   0  0  0  0  0  0  0  0  0  0  0  0
   -2.9296    0.0286    0.0000 C   0  0  0  0  0  0  0  0  0  0  0  0
   -1.9652   -1.1203    0.0000 H   0  0  0  0  0  0  0  0  0  0  0  0
   -3.8933   -1.1209    0.0000 H   0  0  0  0  0  0  0  0  0  0  0  0
   -4.2299    0.7781    0.0000 C   0  0  0  0  0  0  0  0  0  0  0  0
   -4.7421   -0.6317    0.0000 H   0  0  0  0  0  0  0  0  0  0  0  0
   -5.7072    1.0380    0.0000 H   0  0  0  0  0  0  0  0  0  0  0  0
    0.5008   -0.4507    0.0000 C   0  0  0  0  0  0  0  0  0  0  0  0
    1.9780   -0.7109    0.0000 H   0  0  0  0  0  0  0  0  0  0  0  0
    0.5010   -1.9507    0.0000 C   0  0  0  0  0  0  0  0  0  0  0  0
    1.8011   -2.7005    0.0000 C   0  0  0  0  0  0  0  0  0  0  0  0
    3.0999   -1.9501    0.0000 H   0  0  0  0  0  0  0  0  0  0  0  0
    1.8014   -4.2005    0.0000 C   0  0  0  0  0  0  0  0  0  0  0  0
    3.1004   -4.9505    0.0000 H   0  0  0  0  0  0  0  0  0  0  0  0
    0.5015   -4.9507    0.0000 C   0  0  0  0  0  0  0  0  0  0  0  0
    0.5017   -6.4507    0.0000 H   0  0  0  0  0  0  0  0  0  0  0  0
   -0.7986   -4.2009    0.0000 C   0  0  0  0  0  0  0  0  0  0  0  0
   -2.0974   -4.9513    0.0000 H   0  0  0  0  0  0  0  0  0  0  0  0
   -0.7989   -2.7009    0.0000 C   0  0  0  0  0  0  0  0  0  0  0  0
   -2.0979   -1.9509    0.0000 H   0  0  0  0  0  0  0  0  0  0  0  0
    1.4905    1.2642    0.0000 C   0  0  0  0  0  0  0  0  0  0  0  0
    2.9740    1.2665    0.0000 C   0  0  0  0  0  0  0  0  0  0  0  0
    3.7219   -0.0338    0.0000 H   0  0  0  0  0  0  0  0  0  0  0  0
    3.7303    2.5619    0.0000 C   0  0  0  0  0  0  0  0  0  0  0  0
    5.2303    2.5454    0.0000 H   0  0  0  0  0  0  0  0  0  0  0  0
    3.0082    3.8636    0.0000 C   0  0  0  0  0  0  0  0  0  0  0  0
    1.4937    3.8678    0.0000 C   0  0  0  0  0  0  0  0  0  0  0  0
    0.7486    5.1697    0.0000 H   0  0  0  0  0  0  0  0  0  0  0  0
    0.7374    2.5724    0.0000 C   0  0  0  0  0  0  0  0  0  0  0  0
   -0.7626    2.5770    0.0000 H   0  0  0  0  0  0  0  0  0  0  0  0
    3.7710    5.1551    0.0000 Cl  0  0  0  0  0  0  0  0  0  0  0  0
  -11.1431    3.2679    0.0000 O   0  0  0  0  0  0  0  0  0  0  0  0
  -12.4422    2.5181    0.0000 H   0  0  0  0  0  0  0  0  0  0  0  0
  1  2  1  0  0  0  0 
  1  3  1  0  0  0  0 
  1  4  1  0  0  0  0 
  1  5  1  0  0  0  0 
  5  6  2  0  0  0  0 
  6  7  1  0  0  0  0 
  6  8  1  0  0  0  0 
  8  9  2  0  0  0  0 
  9 10  1  0  0  0  0 
  9 11  1  0  0  0  0 
 11 12  2  0  0  0  0 
  5 12  1  0  0  0  0 
 12 13  1  0  0  0  0 
 11 14  1  0  0  0  0 
 14 15  1  0  0  0  0 
 14 16  1  0  0  0  0 
 14 17  1  0  0  0  0 
 17 18  1  0  0  0  0 
 18 19  1  0  0  0  0 
 18 20  1  0  0  0  0 
 18 21  1  0  0  0  0 
 21 22  1  0  0  0  0 
 21 23  1  0  0  0  0 
 21 24  1  0  0  0  0 
 24 25  1  0  0  0  0 
 25 26  1  0  0  0  0 
 25 27  1  0  0  0  0 
 25 28  1  0  0  0  0 
 17 28  1  0  0  0  0 
 28 29  1  0  0  0  0 
 28 30  1  0  0  0  0 
 24 31  1  0  0  0  0 
 31 32  1  0  0  0  0 
 31 33  1  0  0  0  0 
 33 34  2  0  0  0  0 
 34 35  1  0  0  0  0 
 34 36  1  0  0  0  0 
 36 37  1  0  0  0  0 
 36 38  2  0  0  0  0 
 38 39  1  0  0  0  0 
 38 40  1  0  0  0  0 
 40 41  1  0  0  0  0 
 40 42  2  0  0  0  0 
 33 42  1  0  0  0  0 
 42 43  1  0  0  0  0 
 31 44  1  0  0  0  0 
 44 45  2  0  0  0  0 
 45 46  1  0  0  0  0 
 45 47  1  0  0  0  0 
 47 48  1  0  0  0  0 
 47 49  2  0  0  0  0 
 49 50  1  0  0  0  0 
 50 51  1  0  0  0  0 
 50 52  2  0  0  0  0 
 44 52  1  0  0  0  0 
 52 53  1  0  0  0  0 
 49 54  1  0  0  0  0 
  8 55  1  0  0  0  0 
 55 56  1  0  0  0  0 
M  END
> <Rank>
1

> <Priority_score>
0.4395576360444704

> <Reaction_type>
aromatic_hydroxylation_(meta_to_carbon)

> <Parent_ID>
64

> <Parent_InChI>
InChI=1S/C25H27ClN2/c1-20-6-5-7-21(18-20)19-27-14-16-28(17-15-27)25(22-8-3-2-4-9-22)23-10-12-24(26)13-11-23/h2-13,18,25H,14-17,19H2,1H3

> <Parent_SMILES>
Cc1cccc(CN2CCN(C(c3ccccc3)c3ccc(Cl)cc3)CC2)c1

$$$$
Molecule 64_metabolite 10
  CDK     0516241031

 56 59  0  0  0  0  0  0  0  0999 V2000
   -7.8741   -5.9878    0.0000 C   0  0  0  0  0  0  0  0  0  0  0  0
   -7.8736   -7.4878    0.0000 H   0  0  0  0  0  0  0  0  0  0  0  0
   -9.3512   -6.2487    0.0000 H   0  0  0  0  0  0  0  0  0  0  0  0
   -8.3876   -4.5784    0.0000 H   0  0  0  0  0  0  0  0  0  0  0  0
   -6.5753   -5.2374    0.0000 C   0  0  0  0  0  0  0  0  0  0  0  0
   -5.2752   -5.9871    0.0000 C   0  0  0  0  0  0  0  0  0  0  0  0
   -5.2749   -7.4871    0.0000 H   0  0  0  0  0  0  0  0  0  0  0  0
   -3.9753   -5.2369    0.0000 C   0  0  0  0  0  0  0  0  0  0  0  0
   -2.6763   -5.9869    0.0000 H   0  0  0  0  0  0  0  0  0  0  0  0
   -3.9755   -3.7369    0.0000 C   0  0  0  0  0  0  0  0  0  0  0  0
   -5.2757   -2.9871    0.0000 C   0  0  0  0  0  0  0  0  0  0  0  0
   -6.5755   -3.7374    0.0000 C   0  0  0  0  0  0  0  0  0  0  0  0
   -7.8746   -2.9874    0.0000 H   0  0  0  0  0  0  0  0  0  0  0  0
   -5.2759   -1.4871    0.0000 C   0  0  0  0  0  0  0  0  0  0  0  0
   -6.7531   -1.7479    0.0000 H   0  0  0  0  0  0  0  0  0  0  0  0
   -5.7892   -0.0777    0.0000 H   0  0  0  0  0  0  0  0  0  0  0  0
   -3.5613   -0.4969    0.0000 N   0  0  0  0  0  0  0  0  0  0  0  0
   -3.5613    1.0040    0.0000 C   0  0  0  0  0  0  0  0  0  0  0  0
   -5.0385    0.7432    0.0000 H   0  0  0  0  0  0  0  0  0  0  0  0
   -4.0750    2.4133    0.0000 H   0  0  0  0  0  0  0  0  0  0  0  0
   -2.2621    1.7552    0.0000 C   0  0  0  0  0  0  0  0  0  0  0  0
   -3.2268    2.9038    0.0000 H   0  0  0  0  0  0  0  0  0  0  0  0
   -0.9633    2.5058    0.0000 H   0  0  0  0  0  0  0  0  0  0  0  0
   -0.9628    1.0056    0.0000 N   0  0  0  0  0  0  0  0  0  0  0  0
   -0.9628   -0.4952    0.0000 C   0  0  0  0  0  0  0  0  0  0  0  0
    0.5144   -0.2344    0.0000 H   0  0  0  0  0  0  0  0  0  0  0  0
   -0.4491   -1.9045    0.0000 H   0  0  0  0  0  0  0  0  0  0  0  0
   -2.2621   -1.2465    0.0000 C   0  0  0  0  0  0  0  0  0  0  0  0
   -1.2973   -2.3950    0.0000 H   0  0  0  0  0  0  0  0  0  0  0  0
   -3.2257   -2.3959    0.0000 H   0  0  0  0  0  0  0  0  0  0  0  0
    1.1674    2.2360    0.0000 C   0  0  0  0  0  0  0  0  0  0  0  0
    2.1314    3.3852    0.0000 H   0  0  0  0  0  0  0  0  0  0  0  0
    2.4666    1.4862    0.0000 C   0  0  0  0  0  0  0  0  0  0  0  0
    3.7660    2.2372    0.0000 C   0  0  0  0  0  0  0  0  0  0  0  0
    3.7655    3.7372    0.0000 H   0  0  0  0  0  0  0  0  0  0  0  0
    5.0652    1.4874    0.0000 C   0  0  0  0  0  0  0  0  0  0  0  0
    6.3642    2.2374    0.0000 H   0  0  0  0  0  0  0  0  0  0  0  0
    5.0649   -0.0134    0.0000 C   0  0  0  0  0  0  0  0  0  0  0  0
    6.3641   -0.7632    0.0000 H   0  0  0  0  0  0  0  0  0  0  0  0
    3.7655   -0.7644    0.0000 C   0  0  0  0  0  0  0  0  0  0  0  0
    3.7660   -2.2644    0.0000 H   0  0  0  0  0  0  0  0  0  0  0  0
    2.4664   -0.0147    0.0000 C   0  0  0  0  0  0  0  0  0  0  0  0
    1.1673   -0.7647    0.0000 H   0  0  0  0  0  0  0  0  0  0  0  0
    0.1772    3.9505    0.0000 C   0  0  0  0  0  0  0  0  0  0  0  0
    0.9169    5.2365    0.0000 C   0  0  0  0  0  0  0  0  0  0  0  0
    2.4169    5.2340    0.0000 H   0  0  0  0  0  0  0  0  0  0  0  0
    0.1733    6.5392    0.0000 C   0  0  0  0  0  0  0  0  0  0  0  0
    0.9375    7.8299    0.0000 H   0  0  0  0  0  0  0  0  0  0  0  0
   -1.3151    6.5646    0.0000 C   0  0  0  0  0  0  0  0  0  0  0  0
   -2.0760    5.2551    0.0000 C   0  0  0  0  0  0  0  0  0  0  0  0
   -3.5760    5.2608    0.0000 H   0  0  0  0  0  0  0  0  0  0  0  0
   -1.3323    3.9524    0.0000 C   0  0  0  0  0  0  0  0  0  0  0  0
   -2.0863    2.6557    0.0000 H   0  0  0  0  0  0  0  0  0  0  0  0
   -2.0522    7.8710    0.0000 Cl  0  0  0  0  0  0  0  0  0  0  0  0
   -2.6767   -2.9865    0.0000 O   0  0  0  0  0  0  0  0  0  0  0  0
   -1.3775   -3.7361    0.0000 H   0  0  0  0  0  0  0  0  0  0  0  0
  1  2  1  0  0  0  0 
  1  3  1  0  0  0  0 
  1  4  1  0  0  0  0 
  1  5  1  0  0  0  0 
  5  6  2  0  0  0  0 
  6  7  1  0  0  0  0 
  6  8  1  0  0  0  0 
  8  9  1  0  0  0  0 
  8 10  2  0  0  0  0 
 10 11  1  0  0  0  0 
 11 12  2  0  0  0  0 
  5 12  1  0  0  0  0 
 12 13  1  0  0  0  0 
 11 14  1  0  0  0  0 
 14 15  1  0  0  0  0 
 14 16  1  0  0  0  0 
 14 17  1  0  0  0  0 
 17 18  1  0  0  0  0 
 18 19  1  0  0  0  0 
 18 20  1  0  0  0  0 
 18 21  1  0  0  0  0 
 21 22  1  0  0  0  0 
 21 23  1  0  0  0  0 
 21 24  1  0  0  0  0 
 24 25  1  0  0  0  0 
 25 26  1  0  0  0  0 
 25 27  1  0  0  0  0 
 25 28  1  0  0  0  0 
 17 28  1  0  0  0  0 
 28 29  1  0  0  0  0 
 28 30  1  0  0  0  0 
 24 31  1  0  0  0  0 
 31 32  1  0  0  0  0 
 31 33  1  0  0  0  0 
 33 34  2  0  0  0  0 
 34 35  1  0  0  0  0 
 34 36  1  0  0  0  0 
 36 37  1  0  0  0  0 
 36 38  2  0  0  0  0 
 38 39  1  0  0  0  0 
 38 40  1  0  0  0  0 
 40 41  1  0  0  0  0 
 40 42  2  0  0  0  0 
 33 42  1  0  0  0  0 
 42 43  1  0  0  0  0 
 31 44  1  0  0  0  0 
 44 45  2  0  0  0  0 
 45 46  1  0  0  0  0 
 45 47  1  0  0  0  0 
 47 48  1  0  0  0  0 
 47 49  2  0  0  0  0 
 49 50  1  0  0  0  0 
 50 51  1  0  0  0  0 
 50 52  2  0  0  0  0 
 44 52  1  0  0  0  0 
 52 53  1  0  0  0  0 
 49 54  1  0  0  0  0 
 10 55  1  0  0  0  0 
 55 56  1  0  0  0  0 
M  END
> <Rank>
10

> <Priority_score>
0.34

> <Reaction_type>
aromatic_hydroxylation_(para_to_carbon)

> <Parent_ID>
64

> <Parent_InChI>
InChI=1S/C25H27ClN2/c1-20-6-5-7-21(18-20)19-27-14-16-28(17-15-27)25(22-8-3-2-4-9-22)23-10-12-24(26)13-11-23/h2-13,18,25H,14-17,19H2,1H3

> <Parent_SMILES>
Cc1cccc(CN2CCN(C(c3ccccc3)c3ccc(Cl)cc3)CC2)c1

$$$$
Molecule 64_metabolite 11
  CDK     0516241031

 56 59  0  0  0  0  0  0  0  0999 V2000
    5.9063   -6.2560    0.0000 C   0  0  0  0  0  0  0  0  0  0  0  0
    5.9065   -7.7560    0.0000 H   0  0  0  0  0  0  0  0  0  0  0  0
    7.2062   -5.5058    0.0000 C   0  0  0  0  0  0  0  0  0  0  0  0
    8.5052   -6.2558    0.0000 H   0  0  0  0  0  0  0  0  0  0  0  0
    7.2059   -4.0058    0.0000 C   0  0  0  0  0  0  0  0  0  0  0  0
    8.5047   -3.2553    0.0000 H   0  0  0  0  0  0  0  0  0  0  0  0
    5.9058   -3.2560    0.0000 C   0  0  0  0  0  0  0  0  0  0  0  0
    4.6059   -4.0062    0.0000 C   0  0  0  0  0  0  0  0  0  0  0  0
    3.3069   -3.2562    0.0000 H   0  0  0  0  0  0  0  0  0  0  0  0
    4.6062   -5.5062    0.0000 C   0  0  0  0  0  0  0  0  0  0  0  0
    3.3074   -6.2566    0.0000 H   0  0  0  0  0  0  0  0  0  0  0  0
    5.9056   -1.7560    0.0000 C   0  0  0  0  0  0  0  0  0  0  0  0
    7.3828   -2.0162    0.0000 H   0  0  0  0  0  0  0  0  0  0  0  0
    6.8953   -0.0411    0.0000 C   0  0  0  0  0  0  0  0  0  0  0  0
    8.3788   -0.0388    0.0000 C   0  0  0  0  0  0  0  0  0  0  0  0
    9.1267   -1.3390    0.0000 H   0  0  0  0  0  0  0  0  0  0  0  0
    9.1351    1.2566    0.0000 C   0  0  0  0  0  0  0  0  0  0  0  0
   10.6351    1.2402    0.0000 H   0  0  0  0  0  0  0  0  0  0  0  0
    8.4130    2.5583    0.0000 C   0  0  0  0  0  0  0  0  0  0  0  0
    6.8985    2.5625    0.0000 C   0  0  0  0  0  0  0  0  0  0  0  0
    6.1534    3.8644    0.0000 H   0  0  0  0  0  0  0  0  0  0  0  0
    6.1422    1.2671    0.0000 C   0  0  0  0  0  0  0  0  0  0  0  0
    4.6422    1.2717    0.0000 H   0  0  0  0  0  0  0  0  0  0  0  0
    9.1758    3.8498    0.0000 Cl  0  0  0  0  0  0  0  0  0  0  0  0
    3.7750   -0.5263    0.0000 N   0  0  0  0  0  0  0  0  0  0  0  0
    3.7745    0.9745    0.0000 C   0  0  0  0  0  0  0  0  0  0  0  0
    5.0736    0.2247    0.0000 H   0  0  0  0  0  0  0  0  0  0  0  0
    4.6161    3.2861    0.0000 H   0  0  0  0  0  0  0  0  0  0  0  0
    2.4750    1.7254    0.0000 C   0  0  0  0  0  0  0  0  0  0  0  0
    3.4394    2.8742    0.0000 H   0  0  0  0  0  0  0  0  0  0  0  0
    1.5109    2.8745    0.0000 H   0  0  0  0  0  0  0  0  0  0  0  0
    1.1759    0.9754    0.0000 N   0  0  0  0  0  0  0  0  0  0  0  0
    1.1764   -0.5255    0.0000 C   0  0  0  0  0  0  0  0  0  0  0  0
   -0.3008   -0.2652    0.0000 H   0  0  0  0  0  0  0  0  0  0  0  0
    0.6632   -1.9350    0.0000 H   0  0  0  0  0  0  0  0  0  0  0  0
    2.4759   -1.2763    0.0000 C   0  0  0  0  0  0  0  0  0  0  0  0
    1.5115   -2.4252    0.0000 H   0  0  0  0  0  0  0  0  0  0  0  0
    3.4400   -2.4255    0.0000 H   0  0  0  0  0  0  0  0  0  0  0  0
   -0.5390    1.9651    0.0000 C   0  0  0  0  0  0  0  0  0  0  0  0
    0.4250    3.1143    0.0000 H   0  0  0  0  0  0  0  0  0  0  0  0
   -1.5033    3.1140    0.0000 H   0  0  0  0  0  0  0  0  0  0  0  0
   -1.8379    1.2149    0.0000 C   0  0  0  0  0  0  0  0  0  0  0  0
   -3.1313    1.9590    0.0000 C   0  0  0  0  0  0  0  0  0  0  0  0
   -3.1313    3.4590    0.0000 H   0  0  0  0  0  0  0  0  0  0  0  0
   -4.4315    1.2110    0.0000 C   0  0  0  0  0  0  0  0  0  0  0  0
   -5.7282    1.9649    0.0000 H   0  0  0  0  0  0  0  0  0  0  0  0
   -4.4382   -0.2812    0.0000 C   0  0  0  0  0  0  0  0  0  0  0  0
   -5.7397   -1.0270    0.0000 H   0  0  0  0  0  0  0  0  0  0  0  0
   -3.1399   -1.0340    0.0000 C   0  0  0  0  0  0  0  0  0  0  0  0
   -1.8397   -0.2860    0.0000 C   0  0  0  0  0  0  0  0  0  0  0  0
   -0.5417   -1.0377    0.0000 H   0  0  0  0  0  0  0  0  0  0  0  0
   -3.1424   -2.5340    0.0000 C   0  0  0  0  0  0  0  0  0  0  0  0
   -2.6317   -3.9444    0.0000 H   0  0  0  0  0  0  0  0  0  0  0  0
   -1.6647   -2.2760    0.0000 H   0  0  0  0  0  0  0  0  0  0  0  0
   -4.4427   -3.2818    0.0000 O   0  0  0  0  0  0  0  0  0  0  0  0
   -5.7404   -2.5296    0.0000 H   0  0  0  0  0  0  0  0  0  0  0  0
  1  2  1  0  0  0  0 
  1  3  2  0  0  0  0 
  3  4  1  0  0  0  0 
  3  5  1  0  0  0  0 
  5  6  1  0  0  0  0 
  5  7  2  0  0  0  0 
  7  8  1  0  0  0  0 
  8  9  1  0  0  0  0 
  8 10  2  0  0  0  0 
  1 10  1  0  0  0  0 
 10 11  1  0  0  0  0 
  7 12  1  0  0  0  0 
 12 13  1  0  0  0  0 
 12 14  1  0  0  0  0 
 14 15  2  0  0  0  0 
 15 16  1  0  0  0  0 
 15 17  1  0  0  0  0 
 17 18  1  0  0  0  0 
 17 19  2  0  0  0  0 
 19 20  1  0  0  0  0 
 20 21  1  0  0  0  0 
 20 22  2  0  0  0  0 
 14 22  1  0  0  0  0 
 22 23  1  0  0  0  0 
 19 24  1  0  0  0  0 
 12 25  1  0  0  0  0 
 25 26  1  0  0  0  0 
 26 27  1  0  0  0  0 
 26 28  1  0  0  0  0 
 26 29  1  0  0  0  0 
 29 30  1  0  0  0  0 
 29 31  1  0  0  0  0 
 29 32  1  0  0  0  0 
 32 33  1  0  0  0  0 
 33 34  1  0  0  0  0 
 33 35  1  0  0  0  0 
 33 36  1  0  0  0  0 
 25 36  1  0  0  0  0 
 36 37  1  0  0  0  0 
 36 38  1  0  0  0  0 
 32 39  1  0  0  0  0 
 39 40  1  0  0  0  0 
 39 41  1  0  0  0  0 
 39 42  1  0  0  0  0 
 42 43  2  0  0  0  0 
 43 44  1  0  0  0  0 
 43 45  1  0  0  0  0 
 45 46  1  0  0  0  0 
 45 47  2  0  0  0  0 
 47 48  1  0  0  0  0 
 47 49  1  0  0  0  0 
 49 50  2  0  0  0  0 
 42 50  1  0  0  0  0 
 50 51  1  0  0  0  0 
 49 52  1  0  0  0  0 
 52 53  1  0  0  0  0 
 52 54  1  0  0  0  0 
 52 55  1  0  0  0  0 
 55 56  1  0  0  0  0 
M  END
> <Rank>
10

> <Priority_score>
0.34

> <Reaction_type>
benzylic_hydroxylation_(c-CH3)

> <Parent_ID>
64

> <Parent_InChI>
InChI=1S/C25H27ClN2/c1-20-6-5-7-21(18-20)19-27-14-16-28(17-15-27)25(22-8-3-2-4-9-22)23-10-12-24(26)13-11-23/h2-13,18,25H,14-17,19H2,1H3

> <Parent_SMILES>
Cc1cccc(CN2CCN(C(c3ccccc3)c3ccc(Cl)cc3)CC2)c1

$$$$
Molecule 64_metabolite 12
  CDK     0516241031

 55 58  0  0  0  0  0  0  0  0999 V2000
    5.9063   -6.2560    0.0000 C   0  0  0  0  0  0  0  0  0  0  0  0
    5.9065   -7.7560    0.0000 H   0  0  0  0  0  0  0  0  0  0  0  0
    7.2062   -5.5058    0.0000 C   0  0  0  0  0  0  0  0  0  0  0  0
    8.5052   -6.2558    0.0000 H   0  0  0  0  0  0  0  0  0  0  0  0
    7.2059   -4.0058    0.0000 C   0  0  0  0  0  0  0  0  0  0  0  0
    8.5047   -3.2553    0.0000 H   0  0  0  0  0  0  0  0  0  0  0  0
    5.9058   -3.2560    0.0000 C   0  0  0  0  0  0  0  0  0  0  0  0
    4.6059   -4.0062    0.0000 C   0  0  0  0  0  0  0  0  0  0  0  0
    3.3069   -3.2562    0.0000 H   0  0  0  0  0  0  0  0  0  0  0  0
    4.6062   -5.5062    0.0000 C   0  0  0  0  0  0  0  0  0  0  0  0
    3.3074   -6.2566    0.0000 H   0  0  0  0  0  0  0  0  0  0  0  0
    5.9056   -1.7560    0.0000 C   0  0  0  0  0  0  0  0  0  0  0  0
    7.3828   -2.0162    0.0000 H   0  0  0  0  0  0  0  0  0  0  0  0
    6.8953   -0.0411    0.0000 C   0  0  0  0  0  0  0  0  0  0  0  0
    8.3788   -0.0388    0.0000 C   0  0  0  0  0  0  0  0  0  0  0  0
    9.1267   -1.3390    0.0000 H   0  0  0  0  0  0  0  0  0  0  0  0
    9.1351    1.2566    0.0000 C   0  0  0  0  0  0  0  0  0  0  0  0
   10.6351    1.2402    0.0000 H   0  0  0  0  0  0  0  0  0  0  0  0
    8.4130    2.5583    0.0000 C   0  0  0  0  0  0  0  0  0  0  0  0
    6.8985    2.5625    0.0000 C   0  0  0  0  0  0  0  0  0  0  0  0
    6.1534    3.8644    0.0000 H   0  0  0  0  0  0  0  0  0  0  0  0
    6.1422    1.2671    0.0000 C   0  0  0  0  0  0  0  0  0  0  0  0
    4.6422    1.2717    0.0000 H   0  0  0  0  0  0  0  0  0  0  0  0
    9.1758    3.8498    0.0000 Cl  0  0  0  0  0  0  0  0  0  0  0  0
    3.7750   -0.5263    0.0000 N   0  0  0  0  0  0  0  0  0  0  0  0
    3.7745    0.9745    0.0000 C   0  0  0  0  0  0  0  0  0  0  0  0
    5.0736    0.2247    0.0000 H   0  0  0  0  0  0  0  0  0  0  0  0
    4.6161    3.2861    0.0000 H   0  0  0  0  0  0  0  0  0  0  0  0
    2.4750    1.7254    0.0000 C   0  0  0  0  0  0  0  0  0  0  0  0
    3.4394    2.8742    0.0000 H   0  0  0  0  0  0  0  0  0  0  0  0
    1.5109    2.8745    0.0000 H   0  0  0  0  0  0  0  0  0  0  0  0
    1.1759    0.9754    0.0000 N   0  0  0  0  0  0  0  0  0  0  0  0
    1.1764   -0.5255    0.0000 C   0  0  0  0  0  0  0  0  0  0  0  0
   -0.3008   -0.2652    0.0000 H   0  0  0  0  0  0  0  0  0  0  0  0
    0.6632   -1.9350    0.0000 H   0  0  0  0  0  0  0  0  0  0  0  0
    2.4759   -1.2763    0.0000 C   0  0  0  0  0  0  0  0  0  0  0  0
    1.5115   -2.4252    0.0000 H   0  0  0  0  0  0  0  0  0  0  0  0
    3.4400   -2.4255    0.0000 H   0  0  0  0  0  0  0  0  0  0  0  0
   -0.5390    1.9651    0.0000 C   0  0  0  0  0  0  0  0  0  0  0  0
    0.4250    3.1143    0.0000 H   0  0  0  0  0  0  0  0  0  0  0  0
   -1.5033    3.1140    0.0000 H   0  0  0  0  0  0  0  0  0  0  0  0
   -1.8379    1.2149    0.0000 C   0  0  0  0  0  0  0  0  0  0  0  0
   -3.1313    1.9590    0.0000 C   0  0  0  0  0  0  0  0  0  0  0  0
   -3.1313    3.4590    0.0000 H   0  0  0  0  0  0  0  0  0  0  0  0
   -4.4315    1.2110    0.0000 C   0  0  0  0  0  0  0  0  0  0  0  0
   -5.7282    1.9649    0.0000 H   0  0  0  0  0  0  0  0  0  0  0  0
   -4.4382   -0.2812    0.0000 C   0  0  0  0  0  0  0  0  0  0  0  0
   -5.7397   -1.0270    0.0000 H   0  0  0  0  0  0  0  0  0  0  0  0
   -3.1399   -1.0340    0.0000 C   0  0  0  0  0  0  0  0  0  0  0  0
   -1.8397   -0.2860    0.0000 C   0  0  0  0  0  0  0  0  0  0  0  0
   -0.5417   -1.0377    0.0000 H   0  0  0  0  0  0  0  0  0  0  0  0
   -3.1424   -2.5340    0.0000 C   0  0  0  0  0  0  0  0  0  0  0  0
   -1.8446   -3.2862    0.0000 O   0  0  0  0  0  0  0  0  0  0  0  0
   -4.4427   -3.2818    0.0000 O   0  0  0  0  0  0  0  0  0  0  0  0
   -5.7404   -2.5296    0.0000 H   0  0  0  0  0  0  0  0  0  0  0  0
  1  2  1  0  0  0  0 
  1  3  2  0  0  0  0 
  3  4  1  0  0  0  0 
  3  5  1  0  0  0  0 
  5  6  1  0  0  0  0 
  5  7  2  0  0  0  0 
  7  8  1  0  0  0  0 
  8  9  1  0  0  0  0 
  8 10  2  0  0  0  0 
  1 10  1  0  0  0  0 
 10 11  1  0  0  0  0 
  7 12  1  0  0  0  0 
 12 13  1  0  0  0  0 
 12 14  1  0  0  0  0 
 14 15  2  0  0  0  0 
 15 16  1  0  0  0  0 
 15 17  1  0  0  0  0 
 17 18  1  0  0  0  0 
 17 19  2  0  0  0  0 
 19 20  1  0  0  0  0 
 20 21  1  0  0  0  0 
 20 22  2  0  0  0  0 
 14 22  1  0  0  0  0 
 22 23  1  0  0  0  0 
 19 24  1  0  0  0  0 
 12 25  1  0  0  0  0 
 25 26  1  0  0  0  0 
 26 27  1  0  0  0  0 
 26 28  1  0  0  0  0 
 26 29  1  0  0  0  0 
 29 30  1  0  0  0  0 
 29 31  1  0  0  0  0 
 29 32  1  0  0  0  0 
 32 33  1  0  0  0  0 
 33 34  1  0  0  0  0 
 33 35  1  0  0  0  0 
 33 36  1  0  0  0  0 
 25 36  1  0  0  0  0 
 36 37  1  0  0  0  0 
 36 38  1  0  0  0  0 
 32 39  1  0  0  0  0 
 39 40  1  0  0  0  0 
 39 41  1  0  0  0  0 
 39 42  1  0  0  0  0 
 42 43  2  0  0  0  0 
 43 44  1  0  0  0  0 
 43 45  1  0  0  0  0 
 45 46  1  0  0  0  0 
 45 47  2  0  0  0  0 
 47 48  1  0  0  0  0 
 47 49  1  0  0  0  0 
 49 50  2  0  0  0  0 
 42 50  1  0  0  0  0 
 50 51  1  0  0  0  0 
 49 52  1  0  0  0  0 
 52 53  2  0  0  0  0 
 52 54  1  0  0  0  0 
 54 55  1  0  0  0  0 
M  END
> <Rank>
10

> <Priority_score>
0.34

> <Reaction_type>
carboxylation_(benzylic_CH3)

> <Parent_ID>
64

> <Parent_InChI>
InChI=1S/C25H27ClN2/c1-20-6-5-7-21(18-20)19-27-14-16-28(17-15-27)25(22-8-3-2-4-9-22)23-10-12-24(26)13-11-23/h2-13,18,25H,14-17,19H2,1H3

> <Parent_SMILES>
Cc1cccc(CN2CCN(C(c3ccccc3)c3ccc(Cl)cc3)CC2)c1

$$$$
Molecule 64_metabolite 13
  CDK     0516241031

 56 59  0  0  0  0  0  0  0  0999 V2000
   -9.0984   -2.1887    0.0000 C   0  0  0  0  0  0  0  0  0  0  0  0
  -10.3987   -2.9365    0.0000 H   0  0  0  0  0  0  0  0  0  0  0  0
   -7.6207   -1.9307    0.0000 H   0  0  0  0  0  0  0  0  0  0  0  0
   -8.5877   -3.5991    0.0000 H   0  0  0  0  0  0  0  0  0  0  0  0
   -9.0959   -0.6887    0.0000 C   0  0  0  0  0  0  0  0  0  0  0  0
  -10.3859    0.0613    0.0000 C   0  0  0  0  0  0  0  0  0  0  0  0
  -11.6860   -0.6867    0.0000 H   0  0  0  0  0  0  0  0  0  0  0  0
  -10.3859    1.5613    0.0000 C   0  0  0  0  0  0  0  0  0  0  0  0
  -11.6860    2.3094    0.0000 H   0  0  0  0  0  0  0  0  0  0  0  0
   -9.0959    2.3113    0.0000 C   0  0  0  0  0  0  0  0  0  0  0  0
   -9.0984    3.8113    0.0000 H   0  0  0  0  0  0  0  0  0  0  0  0
   -7.7959    1.5613    0.0000 C   0  0  0  0  0  0  0  0  0  0  0  0
   -7.7959    0.0613    0.0000 C   0  0  0  0  0  0  0  0  0  0  0  0
   -6.4969   -0.6889    0.0000 H   0  0  0  0  0  0  0  0  0  0  0  0
   -6.4969    2.3115    0.0000 C   0  0  0  0  0  0  0  0  0  0  0  0
   -7.4613    3.4605    0.0000 H   0  0  0  0  0  0  0  0  0  0  0  0
   -5.5329    3.4608    0.0000 H   0  0  0  0  0  0  0  0  0  0  0  0
   -4.7821    1.3218    0.0000 N   0  0  0  0  0  0  0  0  0  0  0  0
   -3.4823    2.0722    0.0000 C   0  0  0  0  0  0  0  0  0  0  0  0
   -4.4467    3.2211    0.0000 H   0  0  0  0  0  0  0  0  0  0  0  0
   -2.5186    3.2217    0.0000 H   0  0  0  0  0  0  0  0  0  0  0  0
   -2.1821    1.3226    0.0000 C   0  0  0  0  0  0  0  0  0  0  0  0
   -1.6698    2.7325    0.0000 H   0  0  0  0  0  0  0  0  0  0  0  0
   -0.8827    0.5732    0.0000 H   0  0  0  0  0  0  0  0  0  0  0  0
   -2.1816   -0.1774    0.0000 N   0  0  0  0  0  0  0  0  0  0  0  0
   -3.4813   -0.9278    0.0000 C   0  0  0  0  0  0  0  0  0  0  0  0
   -2.5169   -2.0766    0.0000 H   0  0  0  0  0  0  0  0  0  0  0  0
   -4.4450   -2.0772    0.0000 H   0  0  0  0  0  0  0  0  0  0  0  0
   -4.7816   -0.1782    0.0000 C   0  0  0  0  0  0  0  0  0  0  0  0
   -5.2939   -1.5880    0.0000 H   0  0  0  0  0  0  0  0  0  0  0  0
   -6.2589    0.0817    0.0000 H   0  0  0  0  0  0  0  0  0  0  0  0
   -0.0510   -1.4070    0.0000 C   0  0  0  0  0  0  0  0  0  0  0  0
    1.4263   -1.6672    0.0000 H   0  0  0  0  0  0  0  0  0  0  0  0
   -0.0507   -2.9070    0.0000 C   0  0  0  0  0  0  0  0  0  0  0  0
    1.2494   -3.6568    0.0000 C   0  0  0  0  0  0  0  0  0  0  0  0
    2.5482   -2.9064    0.0000 H   0  0  0  0  0  0  0  0  0  0  0  0
    1.2496   -5.1568    0.0000 C   0  0  0  0  0  0  0  0  0  0  0  0
    2.5487   -5.9068    0.0000 H   0  0  0  0  0  0  0  0  0  0  0  0
   -0.0502   -5.9070    0.0000 C   0  0  0  0  0  0  0  0  0  0  0  0
   -0.0500   -7.4070    0.0000 H   0  0  0  0  0  0  0  0  0  0  0  0
   -1.3504   -5.1572    0.0000 C   0  0  0  0  0  0  0  0  0  0  0  0
   -2.6492   -5.9076    0.0000 H   0  0  0  0  0  0  0  0  0  0  0  0
   -1.3506   -3.6572    0.0000 C   0  0  0  0  0  0  0  0  0  0  0  0
   -2.6496   -2.9072    0.0000 H   0  0  0  0  0  0  0  0  0  0  0  0
    0.9388    0.3079    0.0000 C   0  0  0  0  0  0  0  0  0  0  0  0
    0.1884    1.6076    0.0000 C   0  0  0  0  0  0  0  0  0  0  0  0
   -1.3116    1.6072    0.0000 H   0  0  0  0  0  0  0  0  0  0  0  0
    0.9379    2.9079    0.0000 C   0  0  0  0  0  0  0  0  0  0  0  0
    0.1873    4.2066    0.0000 H   0  0  0  0  0  0  0  0  0  0  0  0
    2.4379    2.9084    0.0000 C   0  0  0  0  0  0  0  0  0  0  0  0
    3.1884    1.6086    0.0000 C   0  0  0  0  0  0  0  0  0  0  0  0
    2.4388    0.3084    0.0000 C   0  0  0  0  0  0  0  0  0  0  0  0
    3.1894   -0.9903    0.0000 H   0  0  0  0  0  0  0  0  0  0  0  0
    4.6884    1.6091    0.0000 O   0  0  0  0  0  0  0  0  0  0  0  0
    5.4379    2.9084    0.0000 H   0  0  0  0  0  0  0  0  0  0  0  0
    3.1877    4.2075    0.0000 Cl  0  0  0  0  0  0  0  0  0  0  0  0
  1  2  1  0  0  0  0 
  1  3  1  0  0  0  0 
  1  4  1  0  0  0  0 
  1  5  1  0  0  0  0 
  5  6  2  0  0  0  0 
  6  7  1  0  0  0  0 
  6  8  1  0  0  0  0 
  8  9  1  0  0  0  0 
  8 10  2  0  0  0  0 
 10 11  1  0  0  0  0 
 10 12  1  0  0  0  0 
 12 13  2  0  0  0  0 
  5 13  1  0  0  0  0 
 13 14  1  0  0  0  0 
 12 15  1  0  0  0  0 
 15 16  1  0  0  0  0 
 15 17  1  0  0  0  0 
 15 18  1  0  0  0  0 
 18 19  1  0  0  0  0 
 19 20  1  0  0  0  0 
 19 21  1  0  0  0  0 
 19 22  1  0  0  0  0 
 22 23  1  0  0  0  0 
 22 24  1  0  0  0  0 
 22 25  1  0  0  0  0 
 25 26  1  0  0  0  0 
 26 27  1  0  0  0  0 
 26 28  1  0  0  0  0 
 26 29  1  0  0  0  0 
 18 29  1  0  0  0  0 
 29 30  1  0  0  0  0 
 29 31  1  0  0  0  0 
 25 32  1  0  0  0  0 
 32 33  1  0  0  0  0 
 32 34  1  0  0  0  0 
 34 35  2  0  0  0  0 
 35 36  1  0  0  0  0 
 35 37  1  0  0  0  0 
 37 38  1  0  0  0  0 
 37 39  2  0  0  0  0 
 39 40  1  0  0  0  0 
 39 41  1  0  0  0  0 
 41 42  1  0  0  0  0 
 41 43  2  0  0  0  0 
 34 43  1  0  0  0  0 
 43 44  1  0  0  0  0 
 32 45  1  0  0  0  0 
 45 46  2  0  0  0  0 
 46 47  1  0  0  0  0 
 46 48  1  0  0  0  0 
 48 49  1  0  0  0  0 
 48 50  2  0  0  0  0 
 50 51  1  0  0  0  0 
 51 52  2  0  0  0  0 
 45 52  1  0  0  0  0 
 52 53  1  0  0  0  0 
 51 54  1  0  0  0  0 
 54 55  1  0  0  0  0 
 50 56  1  0  0  0  0 
M  END
> <Rank>
13

> <Priority_score>
0.24776587178693094

> <Reaction_type>
aromatic_hydroxylation_(meta_to_carbon)

> <Parent_ID>
64

> <Parent_InChI>
InChI=1S/C25H27ClN2/c1-20-6-5-7-21(18-20)19-27-14-16-28(17-15-27)25(22-8-3-2-4-9-22)23-10-12-24(26)13-11-23/h2-13,18,25H,14-17,19H2,1H3

> <Parent_SMILES>
Cc1cccc(CN2CCN(C(c3ccccc3)c3ccc(Cl)cc3)CC2)c1

$$$$
Molecule 64_metabolite 14
  CDK     0516241031

 56 59  0  0  0  0  0  0  0  0999 V2000
   -6.0405    0.4777    0.0000 C   0  0  0  0  0  0  0  0  0  0  0  0
   -7.3410    1.2251    0.0000 H   0  0  0  0  0  0  0  0  0  0  0  0
   -4.5627    0.2202    0.0000 H   0  0  0  0  0  0  0  0  0  0  0  0
   -5.5302    1.8882    0.0000 H   0  0  0  0  0  0  0  0  0  0  0  0
   -6.0375   -1.0223    0.0000 C   0  0  0  0  0  0  0  0  0  0  0  0
   -7.3272   -1.7727    0.0000 C   0  0  0  0  0  0  0  0  0  0  0  0
   -8.6276   -1.0251    0.0000 H   0  0  0  0  0  0  0  0  0  0  0  0
   -7.3267   -3.2727    0.0000 C   0  0  0  0  0  0  0  0  0  0  0  0
   -8.6267   -4.0212    0.0000 H   0  0  0  0  0  0  0  0  0  0  0  0
   -6.0365   -4.0223    0.0000 C   0  0  0  0  0  0  0  0  0  0  0  0
   -6.0385   -5.5223    0.0000 H   0  0  0  0  0  0  0  0  0  0  0  0
   -4.7367   -3.2719    0.0000 C   0  0  0  0  0  0  0  0  0  0  0  0
   -4.7372   -1.7719    0.0000 C   0  0  0  0  0  0  0  0  0  0  0  0
   -3.4386   -1.0213    0.0000 H   0  0  0  0  0  0  0  0  0  0  0  0
   -3.4376   -4.0217    0.0000 C   0  0  0  0  0  0  0  0  0  0  0  0
   -4.4016   -5.1709    0.0000 H   0  0  0  0  0  0  0  0  0  0  0  0
   -2.4732   -5.1706    0.0000 H   0  0  0  0  0  0  0  0  0  0  0  0
   -1.7230   -3.0314    0.0000 N   0  0  0  0  0  0  0  0  0  0  0  0
   -0.4230   -3.7814    0.0000 C   0  0  0  0  0  0  0  0  0  0  0  0
   -1.3871   -4.9306    0.0000 H   0  0  0  0  0  0  0  0  0  0  0  0
    0.5410   -4.9306    0.0000 H   0  0  0  0  0  0  0  0  0  0  0  0
    0.8770   -3.0314    0.0000 C   0  0  0  0  0  0  0  0  0  0  0  0
    1.3897   -4.4411    0.0000 H   0  0  0  0  0  0  0  0  0  0  0  0
    2.3542   -2.7711    0.0000 H   0  0  0  0  0  0  0  0  0  0  0  0
    0.8770   -1.5314    0.0000 N   0  0  0  0  0  0  0  0  0  0  0  0
   -0.4230   -0.7814    0.0000 C   0  0  0  0  0  0  0  0  0  0  0  0
    0.5410    0.3678    0.0000 H   0  0  0  0  0  0  0  0  0  0  0  0
   -1.3871    0.3678    0.0000 H   0  0  0  0  0  0  0  0  0  0  0  0
   -1.7230   -1.5314    0.0000 C   0  0  0  0  0  0  0  0  0  0  0  0
   -2.2357   -0.1218    0.0000 H   0  0  0  0  0  0  0  0  0  0  0  0
   -3.2003   -1.7917    0.0000 H   0  0  0  0  0  0  0  0  0  0  0  0
    2.5916   -0.5411    0.0000 C   0  0  0  0  0  0  0  0  0  0  0  0
    5.1379   -2.0107    0.0000 C   0  0  0  0  0  0  0  0  0  0  0  0
    6.4373   -1.2597    0.0000 C   0  0  0  0  0  0  0  0  0  0  0  0
    6.8637    1.1631    0.0000 H   0  0  0  0  0  0  0  0  0  0  0  0
    7.7365   -2.0095    0.0000 C   0  0  0  0  0  0  0  0  0  0  0  0
    9.0355   -1.2595    0.0000 H   0  0  0  0  0  0  0  0  0  0  0  0
    7.7362   -3.5103    0.0000 C   0  0  0  0  0  0  0  0  0  0  0  0
    9.0354   -4.2601    0.0000 H   0  0  0  0  0  0  0  0  0  0  0  0
    6.4368   -4.2614    0.0000 C   0  0  0  0  0  0  0  0  0  0  0  0
    6.4373   -5.7614    0.0000 H   0  0  0  0  0  0  0  0  0  0  0  0
    5.1377   -3.5116    0.0000 C   0  0  0  0  0  0  0  0  0  0  0  0
    3.8386   -4.2616    0.0000 H   0  0  0  0  0  0  0  0  0  0  0  0
    4.4810    1.7113    0.0000 C   0  0  0  0  0  0  0  0  0  0  0  0
    5.9424    1.4560    0.0000 C   0  0  0  0  0  0  0  0  0  0  0  0
    6.4531    0.0456    0.0000 H   0  0  0  0  0  0  0  0  0  0  0  0
    6.9122    2.6003    0.0000 C   0  0  0  0  0  0  0  0  0  0  0  0
    8.3864    2.3237    0.0000 H   0  0  0  0  0  0  0  0  0  0  0  0
    6.4270    4.0077    0.0000 C   0  0  0  0  0  0  0  0  0  0  0  0
    4.9362    4.2748    0.0000 C   0  0  0  0  0  0  0  0  0  0  0  0
    4.4286    5.6863    0.0000 H   0  0  0  0  0  0  0  0  0  0  0  0
    3.9665    3.1304    0.0000 C   0  0  0  0  0  0  0  0  0  0  0  0
    2.4900    3.3954    0.0000 H   0  0  0  0  0  0  0  0  0  0  0  0
    7.4025    5.1471    0.0000 Cl  0  0  0  0  0  0  0  0  0  0  0  0
    0.7014    1.7107    0.0000 O   0  0  0  0  0  0  0  0  0  0  0  0
    1.2142    3.1203    0.0000 H   0  0  0  0  0  0  0  0  0  0  0  0
  1  2  1  0  0  0  0 
  1  3  1  0  0  0  0 
  1  4  1  0  0  0  0 
  1  5  1  0  0  0  0 
  5  6  2  0  0  0  0 
  6  7  1  0  0  0  0 
  6  8  1  0  0  0  0 
  8  9  1  0  0  0  0 
  8 10  2  0  0  0  0 
 10 11  1  0  0  0  0 
 10 12  1  0  0  0  0 
 12 13  2  0  0  0  0 
  5 13  1  0  0  0  0 
 13 14  1  0  0  0  0 
 12 15  1  0  0  0  0 
 15 16  1  0  0  0  0 
 15 17  1  0  0  0  0 
 15 18  1  0  0  0  0 
 18 19  1  0  0  0  0 
 19 20  1  0  0  0  0 
 19 21  1  0  0  0  0 
 19 22  1  0  0  0  0 
 22 23  1  0  0  0  0 
 22 24  1  0  0  0  0 
 22 25  1  0  0  0  0 
 25 26  1  0  0  0  0 
 26 27  1  0  0  0  0 
 26 28  1  0  0  0  0 
 26 29  1  0  0  0  0 
 18 29  1  0  0  0  0 
 29 30  1  0  0  0  0 
 29 31  1  0  0  0  0 
 25 32  1  0  0  0  0 
 32 33  1  0  0  0  0 
 33 34  2  0  0  0  0 
 34 35  1  0  0  0  0 
 34 36  1  0  0  0  0 
 36 37  1  0  0  0  0 
 36 38  2  0  0  0  0 
 38 39  1  0  0  0  0 
 38 40  1  0  0  0  0 
 40 41  1  0  0  0  0 
 40 42  2  0  0  0  0 
 33 42  1  0  0  0  0 
 42 43  1  0  0  0  0 
 32 44  1  0  0  0  0 
 44 45  2  0  0  0  0 
 45 46  1  0  0  0  0 
 45 47  1  0  0  0  0 
 47 48  1  0  0  0  0 
 47 49  2  0  0  0  0 
 49 50  1  0  0  0  0 
 50 51  1  0  0  0  0 
 50 52  2  0  0  0  0 
 44 52  1  0  0  0  0 
 52 53  1  0  0  0  0 
 49 54  1  0  0  0  0 
 32 55  1  0  0  0  0 
 55 56  1  0  0  0  0 
M  END
> <Rank>
13

> <Priority_score>
0.24776587178693094

> <Reaction_type>
aliphatic hydroxylation

> <Parent_ID>
64

> <Parent_InChI>
InChI=1S/C25H27ClN2/c1-20-6-5-7-21(18-20)19-27-14-16-28(17-15-27)25(22-8-3-2-4-9-22)23-10-12-24(26)13-11-23/h2-13,18,25H,14-17,19H2,1H3

> <Parent_SMILES>
Cc1cccc(CN2CCN(C(c3ccccc3)c3ccc(Cl)cc3)CC2)c1

$$$$
Molecule 64_metabolite 15
  CDK     0516241031

 56 59  0  0  0  0  0  0  0  0999 V2000
   -9.1043   -2.1853    0.0000 C   0  0  0  0  0  0  0  0  0  0  0  0
  -10.4046   -2.9331    0.0000 H   0  0  0  0  0  0  0  0  0  0  0  0
   -7.6266   -1.9273    0.0000 H   0  0  0  0  0  0  0  0  0  0  0  0
   -8.5936   -3.5957    0.0000 H   0  0  0  0  0  0  0  0  0  0  0  0
   -9.1018   -0.6853    0.0000 C   0  0  0  0  0  0  0  0  0  0  0  0
  -10.3918    0.0647    0.0000 C   0  0  0  0  0  0  0  0  0  0  0  0
  -11.6919   -0.6833    0.0000 H   0  0  0  0  0  0  0  0  0  0  0  0
  -10.3918    1.5647    0.0000 C   0  0  0  0  0  0  0  0  0  0  0  0
  -11.6919    2.3128    0.0000 H   0  0  0  0  0  0  0  0  0  0  0  0
   -9.1018    2.3147    0.0000 C   0  0  0  0  0  0  0  0  0  0  0  0
   -9.1043    3.8147    0.0000 H   0  0  0  0  0  0  0  0  0  0  0  0
   -7.8018    1.5647    0.0000 C   0  0  0  0  0  0  0  0  0  0  0  0
   -7.8018    0.0647    0.0000 C   0  0  0  0  0  0  0  0  0  0  0  0
   -6.5028   -0.6855    0.0000 H   0  0  0  0  0  0  0  0  0  0  0  0
   -6.5028    2.3150    0.0000 C   0  0  0  0  0  0  0  0  0  0  0  0
   -7.4672    3.4639    0.0000 H   0  0  0  0  0  0  0  0  0  0  0  0
   -5.5388    3.4642    0.0000 H   0  0  0  0  0  0  0  0  0  0  0  0
   -4.7880    1.3252    0.0000 N   0  0  0  0  0  0  0  0  0  0  0  0
   -3.4882    2.0756    0.0000 C   0  0  0  0  0  0  0  0  0  0  0  0
   -4.4526    3.2245    0.0000 H   0  0  0  0  0  0  0  0  0  0  0  0
   -2.5245    3.2251    0.0000 H   0  0  0  0  0  0  0  0  0  0  0  0
   -2.1880    1.3261    0.0000 C   0  0  0  0  0  0  0  0  0  0  0  0
   -1.6757    2.7359    0.0000 H   0  0  0  0  0  0  0  0  0  0  0  0
   -0.8886    0.5766    0.0000 H   0  0  0  0  0  0  0  0  0  0  0  0
   -2.1875   -0.1739    0.0000 N   0  0  0  0  0  0  0  0  0  0  0  0
   -3.4872   -0.9244    0.0000 C   0  0  0  0  0  0  0  0  0  0  0  0
   -2.5228   -2.0732    0.0000 H   0  0  0  0  0  0  0  0  0  0  0  0
   -4.4509   -2.0738    0.0000 H   0  0  0  0  0  0  0  0  0  0  0  0
   -4.7875   -0.1748    0.0000 C   0  0  0  0  0  0  0  0  0  0  0  0
   -5.2997   -1.5846    0.0000 H   0  0  0  0  0  0  0  0  0  0  0  0
   -6.2648    0.0851    0.0000 H   0  0  0  0  0  0  0  0  0  0  0  0
   -0.0569   -1.4036    0.0000 C   0  0  0  0  0  0  0  0  0  0  0  0
    1.4204   -1.6638    0.0000 H   0  0  0  0  0  0  0  0  0  0  0  0
   -0.0566   -2.9036    0.0000 C   0  0  0  0  0  0  0  0  0  0  0  0
   -1.3402   -3.6474    0.0000 C   0  0  0  0  0  0  0  0  0  0  0  0
   -2.6380   -2.8952    0.0000 H   0  0  0  0  0  0  0  0  0  0  0  0
   -1.3475   -5.1473    0.0000 C   0  0  0  0  0  0  0  0  0  0  0  0
   -2.6547   -5.8831    0.0000 H   0  0  0  0  0  0  0  0  0  0  0  0
   -0.0712   -5.9136    0.0000 C   0  0  0  0  0  0  0  0  0  0  0  0
    1.2424   -5.1599    0.0000 C   0  0  0  0  0  0  0  0  0  0  0  0
    2.5386   -5.9149    0.0000 H   0  0  0  0  0  0  0  0  0  0  0  0
    1.2497   -3.6600    0.0000 C   0  0  0  0  0  0  0  0  0  0  0  0
    2.5510   -2.9139    0.0000 H   0  0  0  0  0  0  0  0  0  0  0  0
   -0.0861   -7.4135    0.0000 Cl  0  0  0  0  0  0  0  0  0  0  0  0
    0.9329    0.3113    0.0000 C   0  0  0  0  0  0  0  0  0  0  0  0
    0.1825    1.6110    0.0000 C   0  0  0  0  0  0  0  0  0  0  0  0
   -1.3175    1.6131    0.0000 H   0  0  0  0  0  0  0  0  0  0  0  0
    0.9320    2.9013    0.0000 C   0  0  0  0  0  0  0  0  0  0  0  0
    0.1836    4.2012    0.0000 H   0  0  0  0  0  0  0  0  0  0  0  0
    2.4320    2.9018    0.0000 C   0  0  0  0  0  0  0  0  0  0  0  0
    3.1797    4.2022    0.0000 H   0  0  0  0  0  0  0  0  0  0  0  0
    3.1825    1.6120    0.0000 C   0  0  0  0  0  0  0  0  0  0  0  0
    2.4329    0.3118    0.0000 C   0  0  0  0  0  0  0  0  0  0  0  0
    3.1835   -0.9869    0.0000 H   0  0  0  0  0  0  0  0  0  0  0  0
    4.6825    1.6150    0.0000 O   0  0  0  0  0  0  0  0  0  0  0  0
    5.4299    2.9155    0.0000 H   0  0  0  0  0  0  0  0  0  0  0  0
  1  2  1  0  0  0  0 
  1  3  1  0  0  0  0 
  1  4  1  0  0  0  0 
  1  5  1  0  0  0  0 
  5  6  2  0  0  0  0 
  6  7  1  0  0  0  0 
  6  8  1  0  0  0  0 
  8  9  1  0  0  0  0 
  8 10  2  0  0  0  0 
 10 11  1  0  0  0  0 
 10 12  1  0  0  0  0 
 12 13  2  0  0  0  0 
  5 13  1  0  0  0  0 
 13 14  1  0  0  0  0 
 12 15  1  0  0  0  0 
 15 16  1  0  0  0  0 
 15 17  1  0  0  0  0 
 15 18  1  0  0  0  0 
 18 19  1  0  0  0  0 
 19 20  1  0  0  0  0 
 19 21  1  0  0  0  0 
 19 22  1  0  0  0  0 
 22 23  1  0  0  0  0 
 22 24  1  0  0  0  0 
 22 25  1  0  0  0  0 
 25 26  1  0  0  0  0 
 26 27  1  0  0  0  0 
 26 28  1  0  0  0  0 
 26 29  1  0  0  0  0 
 18 29  1  0  0  0  0 
 29 30  1  0  0  0  0 
 29 31  1  0  0  0  0 
 25 32  1  0  0  0  0 
 32 33  1  0  0  0  0 
 32 34  1  0  0  0  0 
 34 35  2  0  0  0  0 
 35 36  1  0  0  0  0 
 35 37  1  0  0  0  0 
 37 38  1  0  0  0  0 
 37 39  2  0  0  0  0 
 39 40  1  0  0  0  0 
 40 41  1  0  0  0  0 
 40 42  2  0  0  0  0 
 34 42  1  0  0  0  0 
 42 43  1  0  0  0  0 
 39 44  1  0  0  0  0 
 32 45  1  0  0  0  0 
 45 46  2  0  0  0  0 
 46 47  1  0  0  0  0 
 46 48  1  0  0  0  0 
 48 49  1  0  0  0  0 
 48 50  2  0  0  0  0 
 50 51  1  0  0  0  0 
 50 52  1  0  0  0  0 
 52 53  2  0  0  0  0 
 45 53  1  0  0  0  0 
 53 54  1  0  0  0  0 
 52 55  1  0  0  0  0 
 55 56  1  0  0  0  0 
M  END
> <Rank>
13

> <Priority_score>
0.24776587178693094

> <Reaction_type>
aromatic_hydroxylation_(meta_to_carbon)

> <Parent_ID>
64

> <Parent_InChI>
InChI=1S/C25H27ClN2/c1-20-6-5-7-21(18-20)19-27-14-16-28(17-15-27)25(22-8-3-2-4-9-22)23-10-12-24(26)13-11-23/h2-13,18,25H,14-17,19H2,1H3

> <Parent_SMILES>
Cc1cccc(CN2CCN(C(c3ccccc3)c3ccc(Cl)cc3)CC2)c1

$$$$
Molecule 64_metabolite 16
  CDK     0516241031

 24 25  0  0  0  0  0  0  0  0999 V2000
   -3.9050    3.3179    0.0000 C   0  0  0  0  0  0  0  0  0  0  0  0
   -5.2040    2.5679    0.0000 H   0  0  0  0  0  0  0  0  0  0  0  0
   -3.9055    4.8187    0.0000 C   0  0  0  0  0  0  0  0  0  0  0  0
   -5.2046    5.5685    0.0000 H   0  0  0  0  0  0  0  0  0  0  0  0
   -2.6064    5.5687    0.0000 C   0  0  0  0  0  0  0  0  0  0  0  0
   -2.6062    7.0687    0.0000 H   0  0  0  0  0  0  0  0  0  0  0  0
   -1.3069    4.8179    0.0000 C   0  0  0  0  0  0  0  0  0  0  0  0
   -1.3064    3.3171    0.0000 C   0  0  0  0  0  0  0  0  0  0  0  0
   -0.0073    2.5673    0.0000 H   0  0  0  0  0  0  0  0  0  0  0  0
   -2.6055    2.5671    0.0000 C   0  0  0  0  0  0  0  0  0  0  0  0
   -2.6057    1.0671    0.0000 H   0  0  0  0  0  0  0  0  0  0  0  0
    0.8235    6.0479    0.0000 C   0  0  0  0  0  0  0  0  0  0  0  0
    0.8235    7.5479    0.0000 O   0  0  0  0  0  0  0  0  0  0  0  0
    2.1226    5.2979    0.0000 C   0  0  0  0  0  0  0  0  0  0  0  0
    2.1246    3.8144    0.0000 C   0  0  0  0  0  0  0  0  0  0  0  0
    0.8242    3.0667    0.0000 H   0  0  0  0  0  0  0  0  0  0  0  0
    3.4199    3.0579    0.0000 C   0  0  0  0  0  0  0  0  0  0  0  0
    3.4032    1.5579    0.0000 H   0  0  0  0  0  0  0  0  0  0  0  0
    4.7217    3.7798    0.0000 C   0  0  0  0  0  0  0  0  0  0  0  0
    4.7261    5.2943    0.0000 C   0  0  0  0  0  0  0  0  0  0  0  0
    6.0281    6.0392    0.0000 H   0  0  0  0  0  0  0  0  0  0  0  0
    3.4309    6.0508    0.0000 C   0  0  0  0  0  0  0  0  0  0  0  0
    3.4357    7.5508    0.0000 H   0  0  0  0  0  0  0  0  0  0  0  0
    6.0131    3.0168    0.0000 Cl  0  0  0  0  0  0  0  0  0  0  0  0
  1  2  1  0  0  0  0 
  1  3  2  0  0  0  0 
  3  4  1  0  0  0  0 
  3  5  1  0  0  0  0 
  5  6  1  0  0  0  0 
  5  7  2  0  0  0  0 
  7  8  1  0  0  0  0 
  8  9  1  0  0  0  0 
  8 10  2  0  0  0  0 
  1 10  1  0  0  0  0 
 10 11  1  0  0  0  0 
  7 12  1  0  0  0  0 
 12 13  2  0  0  0  0 
 12 14  1  0  0  0  0 
 14 15  2  0  0  0  0 
 15 16  1  0  0  0  0 
 15 17  1  0  0  0  0 
 17 18  1  0  0  0  0 
 17 19  2  0  0  0  0 
 19 20  1  0  0  0  0 
 20 21  1  0  0  0  0 
 20 22  2  0  0  0  0 
 14 22  1  0  0  0  0 
 22 23  1  0  0  0  0 
 19 24  1  0  0  0  0 
M  END
> <Rank>
13

> <Priority_score>
0.24776587178693094

> <Reaction_type>
N-dealkylation

> <Parent_ID>
64

> <Parent_InChI>
InChI=1S/C25H27ClN2/c1-20-6-5-7-21(18-20)19-27-14-16-28(17-15-27)25(22-8-3-2-4-9-22)23-10-12-24(26)13-11-23/h2-13,18,25H,14-17,19H2,1H3

> <Parent_SMILES>
Cc1cccc(CN2CCN(C(c3ccccc3)c3ccc(Cl)cc3)CC2)c1

$$$$
Molecule 64_metabolite 17
  CDK     0516241031

 56 59  0  0  0  0  0  0  0  0999 V2000
   -0.3077    6.3734    0.0000 C   0  0  0  0  0  0  0  0  0  0  0  0
   -0.3052    7.8734    0.0000 H   0  0  0  0  0  0  0  0  0  0  0  0
   -0.8231    4.9647    0.0000 H   0  0  0  0  0  0  0  0  0  0  0  0
   -1.7845    6.6363    0.0000 H   0  0  0  0  0  0  0  0  0  0  0  0
    0.9901    5.6212    0.0000 C   0  0  0  0  0  0  0  0  0  0  0  0
    2.2846    6.3634    0.0000 C   0  0  0  0  0  0  0  0  0  0  0  0
    2.2869    7.8634    0.0000 H   0  0  0  0  0  0  0  0  0  0  0  0
    3.5836    5.6134    0.0000 C   0  0  0  0  0  0  0  0  0  0  0  0
    4.8815    6.3653    0.0000 H   0  0  0  0  0  0  0  0  0  0  0  0
    3.5882    4.1212    0.0000 C   0  0  0  0  0  0  0  0  0  0  0  0
    4.8884    3.3734    0.0000 H   0  0  0  0  0  0  0  0  0  0  0  0
    2.2886    3.3704    0.0000 C   0  0  0  0  0  0  0  0  0  0  0  0
    0.9896    4.1204    0.0000 C   0  0  0  0  0  0  0  0  0  0  0  0
   -0.3096    3.3706    0.0000 H   0  0  0  0  0  0  0  0  0  0  0  0
    2.2889    1.8704    0.0000 C   0  0  0  0  0  0  0  0  0  0  0  0
    3.7660    2.1311    0.0000 H   0  0  0  0  0  0  0  0  0  0  0  0
    2.8021    0.4609    0.0000 H   0  0  0  0  0  0  0  0  0  0  0  0
    0.5743    0.8801    0.0000 N   0  0  0  0  0  0  0  0  0  0  0  0
    0.5743   -0.6207    0.0000 C   0  0  0  0  0  0  0  0  0  0  0  0
    2.0515   -0.3600    0.0000 H   0  0  0  0  0  0  0  0  0  0  0  0
    1.0879   -2.0301    0.0000 H   0  0  0  0  0  0  0  0  0  0  0  0
   -0.7250   -1.3720    0.0000 C   0  0  0  0  0  0  0  0  0  0  0  0
    0.2398   -2.5206    0.0000 H   0  0  0  0  0  0  0  0  0  0  0  0
   -2.0237   -2.1226    0.0000 H   0  0  0  0  0  0  0  0  0  0  0  0
   -2.0243   -0.6224    0.0000 N   0  0  0  0  0  0  0  0  0  0  0  0
   -2.0243    0.8784    0.0000 C   0  0  0  0  0  0  0  0  0  0  0  0
   -3.5014    0.6176    0.0000 H   0  0  0  0  0  0  0  0  0  0  0  0
   -2.5379    2.2877    0.0000 H   0  0  0  0  0  0  0  0  0  0  0  0
   -0.7250    1.6297    0.0000 C   0  0  0  0  0  0  0  0  0  0  0  0
   -1.6898    2.7782    0.0000 H   0  0  0  0  0  0  0  0  0  0  0  0
    0.2387    2.7791    0.0000 H   0  0  0  0  0  0  0  0  0  0  0  0
   -4.1545   -1.8528    0.0000 C   0  0  0  0  0  0  0  0  0  0  0  0
   -5.1185   -3.0020    0.0000 H   0  0  0  0  0  0  0  0  0  0  0  0
   -5.4536   -1.1030    0.0000 C   0  0  0  0  0  0  0  0  0  0  0  0
   -5.4559    0.3806    0.0000 C   0  0  0  0  0  0  0  0  0  0  0  0
   -4.1557    1.1284    0.0000 H   0  0  0  0  0  0  0  0  0  0  0  0
   -6.7513    1.1369    0.0000 C   0  0  0  0  0  0  0  0  0  0  0  0
   -6.7349    2.6368    0.0000 H   0  0  0  0  0  0  0  0  0  0  0  0
   -8.0530    0.4147    0.0000 C   0  0  0  0  0  0  0  0  0  0  0  0
   -8.0572   -1.0998    0.0000 C   0  0  0  0  0  0  0  0  0  0  0  0
   -9.3591   -1.8448    0.0000 H   0  0  0  0  0  0  0  0  0  0  0  0
   -6.7618   -1.8561    0.0000 C   0  0  0  0  0  0  0  0  0  0  0  0
   -6.7664   -3.3561    0.0000 H   0  0  0  0  0  0  0  0  0  0  0  0
   -9.3446    1.1775    0.0000 Cl  0  0  0  0  0  0  0  0  0  0  0  0
   -3.1642   -3.5673    0.0000 C   0  0  0  0  0  0  0  0  0  0  0  0
   -1.6642   -3.5597    0.0000 C   0  0  0  0  0  0  0  0  0  0  0  0
   -0.9273   -2.2532    0.0000 H   0  0  0  0  0  0  0  0  0  0  0  0
   -0.9078   -4.8259    0.0000 C   0  0  0  0  0  0  0  0  0  0  0  0
    0.5920   -4.7985    0.0000 H   0  0  0  0  0  0  0  0  0  0  0  0
   -1.6509   -6.1797    0.0000 C   0  0  0  0  0  0  0  0  0  0  0  0
   -3.1509   -6.1873    0.0000 C   0  0  0  0  0  0  0  0  0  0  0  0
   -3.9050   -7.4839    0.0000 H   0  0  0  0  0  0  0  0  0  0  0  0
   -3.9077   -4.8411    0.0000 C   0  0  0  0  0  0  0  0  0  0  0  0
   -5.4077   -4.8290    0.0000 H   0  0  0  0  0  0  0  0  0  0  0  0
   -0.8837   -7.4686    0.0000 O   0  0  0  0  0  0  0  0  0  0  0  0
   -1.6163   -8.7775    0.0000 H   0  0  0  0  0  0  0  0  0  0  0  0
  1  2  1  0  0  0  0 
  1  3  1  0  0  0  0 
  1  4  1  0  0  0  0 
  1  5  1  0  0  0  0 
  5  6  2  0  0  0  0 
  6  7  1  0  0  0  0 
  6  8  1  0  0  0  0 
  8  9  1  0  0  0  0 
  8 10  2  0  0  0  0 
 10 11  1  0  0  0  0 
 10 12  1  0  0  0  0 
 12 13  2  0  0  0  0 
  5 13  1  0  0  0  0 
 13 14  1  0  0  0  0 
 12 15  1  0  0  0  0 
 15 16  1  0  0  0  0 
 15 17  1  0  0  0  0 
 15 18  1  0  0  0  0 
 18 19  1  0  0  0  0 
 19 20  1  0  0  0  0 
 19 21  1  0  0  0  0 
 19 22  1  0  0  0  0 
 22 23  1  0  0  0  0 
 22 24  1  0  0  0  0 
 22 25  1  0  0  0  0 
 25 26  1  0  0  0  0 
 26 27  1  0  0  0  0 
 26 28  1  0  0  0  0 
 26 29  1  0  0  0  0 
 18 29  1  0  0  0  0 
 29 30  1  0  0  0  0 
 29 31  1  0  0  0  0 
 25 32  1  0  0  0  0 
 32 33  1  0  0  0  0 
 32 34  1  0  0  0  0 
 34 35  2  0  0  0  0 
 35 36  1  0  0  0  0 
 35 37  1  0  0  0  0 
 37 38  1  0  0  0  0 
 37 39  2  0  0  0  0 
 39 40  1  0  0  0  0 
 40 41  1  0  0  0  0 
 40 42  2  0  0  0  0 
 34 42  1  0  0  0  0 
 42 43  1  0  0  0  0 
 39 44  1  0  0  0  0 
 32 45  1  0  0  0  0 
 45 46  2  0  0  0  0 
 46 47  1  0  0  0  0 
 46 48  1  0  0  0  0 
 48 49  1  0  0  0  0 
 48 50  2  0  0  0  0 
 50 51  1  0  0  0  0 
 51 52  1  0  0  0  0 
 51 53  2  0  0  0  0 
 45 53  1  0  0  0  0 
 53 54  1  0  0  0  0 
 50 55  1  0  0  0  0 
 55 56  1  0  0  0  0 
M  END
> <Rank>
13

> <Priority_score>
0.24776587178693094

> <Reaction_type>
aromatic_hydroxylation_(para_to_carbon)

> <Parent_ID>
64

> <Parent_InChI>
InChI=1S/C25H27ClN2/c1-20-6-5-7-21(18-20)19-27-14-16-28(17-15-27)25(22-8-3-2-4-9-22)23-10-12-24(26)13-11-23/h2-13,18,25H,14-17,19H2,1H3

> <Parent_SMILES>
Cc1cccc(CN2CCN(C(c3ccccc3)c3ccc(Cl)cc3)CC2)c1

$$$$
Molecule 64_metabolite 18
  CDK     0516241031

 32 33  0  0  0  0  0  0  0  0999 V2000
   -6.0478    3.8985    0.0000 C   0  0  0  0  0  0  0  0  0  0  0  0
   -7.3455    3.1461    0.0000 H   0  0  0  0  0  0  0  0  0  0  0  0
   -5.0857    5.0493    0.0000 H   0  0  0  0  0  0  0  0  0  0  0  0
   -7.0141    5.0458    0.0000 H   0  0  0  0  0  0  0  0  0  0  0  0
   -4.7474    3.1509    0.0000 C   0  0  0  0  0  0  0  0  0  0  0  0
   -4.7426    1.6587    0.0000 C   0  0  0  0  0  0  0  0  0  0  0  0
   -6.0404    0.9065    0.0000 H   0  0  0  0  0  0  0  0  0  0  0  0
   -3.4435    0.9089    0.0000 C   0  0  0  0  0  0  0  0  0  0  0  0
   -3.4455   -0.5911    0.0000 H   0  0  0  0  0  0  0  0  0  0  0  0
   -2.1491    1.6513    0.0000 C   0  0  0  0  0  0  0  0  0  0  0  0
   -0.8512    0.8993    0.0000 H   0  0  0  0  0  0  0  0  0  0  0  0
   -2.1488    3.1521    0.0000 C   0  0  0  0  0  0  0  0  0  0  0  0
   -3.4480    3.9019    0.0000 C   0  0  0  0  0  0  0  0  0  0  0  0
   -3.4485    5.4019    0.0000 H   0  0  0  0  0  0  0  0  0  0  0  0
   -0.8498    3.9021    0.0000 C   0  0  0  0  0  0  0  0  0  0  0  0
    0.1144    5.0512    0.0000 H   0  0  0  0  0  0  0  0  0  0  0  0
   -1.8140    5.0512    0.0000 H   0  0  0  0  0  0  0  0  0  0  0  0
    0.8649    2.9121    0.0000 N   0  0  0  0  0  0  0  0  0  0  0  0
    2.1645    3.6630    0.0000 C   0  0  0  0  0  0  0  0  0  0  0  0
    3.1285    4.8121    0.0000 H   0  0  0  0  0  0  0  0  0  0  0  0
    1.2000    4.8118    0.0000 H   0  0  0  0  0  0  0  0  0  0  0  0
    3.4635    2.9130    0.0000 C   0  0  0  0  0  0  0  0  0  0  0  0
    4.9407    2.6522    0.0000 H   0  0  0  0  0  0  0  0  0  0  0  0
    3.9767    4.3225    0.0000 H   0  0  0  0  0  0  0  0  0  0  0  0
    3.4630    1.4121    0.0000 N   0  0  0  0  0  0  0  0  0  0  0  0
    4.7621    0.6621    0.0000 H   0  0  0  0  0  0  0  0  0  0  0  0
    2.1635    0.6613    0.0000 C   0  0  0  0  0  0  0  0  0  0  0  0
    1.1994   -0.4879    0.0000 H   0  0  0  0  0  0  0  0  0  0  0  0
    3.1279   -0.4876    0.0000 H   0  0  0  0  0  0  0  0  0  0  0  0
    0.8645    1.4113    0.0000 C   0  0  0  0  0  0  0  0  0  0  0  0
   -0.6127    1.6721    0.0000 H   0  0  0  0  0  0  0  0  0  0  0  0
    0.3513    0.0018    0.0000 H   0  0  0  0  0  0  0  0  0  0  0  0
  1  2  1  0  0  0  0 
  1  3  1  0  0  0  0 
  1  4  1  0  0  0  0 
  1  5  1  0  0  0  0 
  5  6  2  0  0  0  0 
  6  7  1  0  0  0  0 
  6  8  1  0  0  0  0 
  8  9  1  0  0  0  0 
  8 10  2  0  0  0  0 
 10 11  1  0  0  0  0 
 10 12  1  0  0  0  0 
 12 13  2  0  0  0  0 
  5 13  1  0  0  0  0 
 13 14  1  0  0  0  0 
 12 15  1  0  0  0  0 
 15 16  1  0  0  0  0 
 15 17  1  0  0  0  0 
 15 18  1  0  0  0  0 
 18 19  1  0  0  0  0 
 19 20  1  0  0  0  0 
 19 21  1  0  0  0  0 
 19 22  1  0  0  0  0 
 22 23  1  0  0  0  0 
 22 24  1  0  0  0  0 
 22 25  1  0  0  0  0 
 25 26  1  0  0  0  0 
 25 27  1  0  0  0  0 
 27 28  1  0  0  0  0 
 27 29  1  0  0  0  0 
 27 30  1  0  0  0  0 
 18 30  1  0  0  0  0 
 30 31  1  0  0  0  0 
 30 32  1  0  0  0  0 
M  END
> <Rank>
13

> <Priority_score>
0.24776587178693094

> <Reaction_type>
N-dealkylation

> <Parent_ID>
64

> <Parent_InChI>
InChI=1S/C25H27ClN2/c1-20-6-5-7-21(18-20)19-27-14-16-28(17-15-27)25(22-8-3-2-4-9-22)23-10-12-24(26)13-11-23/h2-13,18,25H,14-17,19H2,1H3

> <Parent_SMILES>
Cc1cccc(CN2CCN(C(c3ccccc3)c3ccc(Cl)cc3)CC2)c1

$$$$
Molecule 64_metabolite 19
  CDK     0516241031

 56 59  0  0  0  0  0  0  0  0999 V2000
   -7.4340    5.4954    0.0000 C   0  0  0  0  0  0  0  0  0  0  0  0
   -8.7317    4.7430    0.0000 H   0  0  0  0  0  0  0  0  0  0  0  0
   -6.4719    6.6462    0.0000 H   0  0  0  0  0  0  0  0  0  0  0  0
   -8.4003    6.6427    0.0000 H   0  0  0  0  0  0  0  0  0  0  0  0
   -6.1336    4.7478    0.0000 C   0  0  0  0  0  0  0  0  0  0  0  0
   -6.1288    3.2556    0.0000 C   0  0  0  0  0  0  0  0  0  0  0  0
   -7.4266    2.5034    0.0000 H   0  0  0  0  0  0  0  0  0  0  0  0
   -4.8297    2.5058    0.0000 C   0  0  0  0  0  0  0  0  0  0  0  0
   -4.8317    1.0058    0.0000 H   0  0  0  0  0  0  0  0  0  0  0  0
   -3.5353    3.2482    0.0000 C   0  0  0  0  0  0  0  0  0  0  0  0
   -2.2374    2.4962    0.0000 H   0  0  0  0  0  0  0  0  0  0  0  0
   -3.5350    4.7490    0.0000 C   0  0  0  0  0  0  0  0  0  0  0  0
   -4.8342    5.4988    0.0000 C   0  0  0  0  0  0  0  0  0  0  0  0
   -4.8347    6.9988    0.0000 H   0  0  0  0  0  0  0  0  0  0  0  0
   -2.2360    5.4990    0.0000 C   0  0  0  0  0  0  0  0  0  0  0  0
   -1.2718    6.6481    0.0000 H   0  0  0  0  0  0  0  0  0  0  0  0
   -3.2002    6.6481    0.0000 H   0  0  0  0  0  0  0  0  0  0  0  0
   -0.5213    4.5090    0.0000 N   0  0  0  0  0  0  0  0  0  0  0  0
    0.7783    5.2599    0.0000 C   0  0  0  0  0  0  0  0  0  0  0  0
    1.7423    6.4090    0.0000 H   0  0  0  0  0  0  0  0  0  0  0  0
   -0.1862    6.4087    0.0000 H   0  0  0  0  0  0  0  0  0  0  0  0
    2.0773    4.5099    0.0000 C   0  0  0  0  0  0  0  0  0  0  0  0
    3.5544    4.2491    0.0000 H   0  0  0  0  0  0  0  0  0  0  0  0
    2.5905    5.9193    0.0000 H   0  0  0  0  0  0  0  0  0  0  0  0
    2.0768    3.0090    0.0000 N   0  0  0  0  0  0  0  0  0  0  0  0
    0.7773    2.2582    0.0000 C   0  0  0  0  0  0  0  0  0  0  0  0
   -0.1868    1.1090    0.0000 H   0  0  0  0  0  0  0  0  0  0  0  0
    1.7417    1.1093    0.0000 H   0  0  0  0  0  0  0  0  0  0  0  0
   -0.5217    3.0082    0.0000 C   0  0  0  0  0  0  0  0  0  0  0  0
   -1.9989    3.2690    0.0000 H   0  0  0  0  0  0  0  0  0  0  0  0
   -1.0349    1.5987    0.0000 H   0  0  0  0  0  0  0  0  0  0  0  0
    3.0826    0.2464    0.0000 C   0  0  0  0  0  0  0  0  0  0  0  0
    1.6055   -0.0142    0.0000 H   0  0  0  0  0  0  0  0  0  0  0  0
    4.5599   -0.0139    0.0000 C   0  0  0  0  0  0  0  0  0  0  0  0
    5.5241    1.1362    0.0000 C   0  0  0  0  0  0  0  0  0  0  0  0
    5.0107    2.5456    0.0000 H   0  0  0  0  0  0  0  0  0  0  0  0
    7.0013    0.8759    0.0000 C   0  0  0  0  0  0  0  0  0  0  0  0
    7.9656    2.0249    0.0000 H   0  0  0  0  0  0  0  0  0  0  0  0
    7.5144   -0.5345    0.0000 C   0  0  0  0  0  0  0  0  0  0  0  0
    8.9916   -0.7948    0.0000 H   0  0  0  0  0  0  0  0  0  0  0  0
    6.5501   -1.6846    0.0000 C   0  0  0  0  0  0  0  0  0  0  0  0
    7.0635   -3.0940    0.0000 H   0  0  0  0  0  0  0  0  0  0  0  0
    5.0729   -1.4243    0.0000 C   0  0  0  0  0  0  0  0  0  0  0  0
    3.9238   -2.3884    0.0000 H   0  0  0  0  0  0  0  0  0  0  0  0
    3.0830   -2.6936    0.0000 C   0  0  0  0  0  0  0  0  0  0  0  0
    1.7993   -3.4373    0.0000 C   0  0  0  0  0  0  0  0  0  0  0  0
    0.5015   -2.6850    0.0000 H   0  0  0  0  0  0  0  0  0  0  0  0
    1.7919   -4.9372    0.0000 C   0  0  0  0  0  0  0  0  0  0  0  0
    0.4847   -5.6729    0.0000 H   0  0  0  0  0  0  0  0  0  0  0  0
    3.0682   -5.7035    0.0000 C   0  0  0  0  0  0  0  0  0  0  0  0
    4.3819   -4.9500    0.0000 C   0  0  0  0  0  0  0  0  0  0  0  0
    5.6780   -5.7050    0.0000 H   0  0  0  0  0  0  0  0  0  0  0  0
    4.3893   -3.4500    0.0000 C   0  0  0  0  0  0  0  0  0  0  0  0
    5.6906   -2.7040    0.0000 H   0  0  0  0  0  0  0  0  0  0  0  0
    3.0532   -7.2034    0.0000 Cl  0  0  0  0  0  0  0  0  0  0  0  0
    3.5540    3.2693    0.0000 O   0  0  0  0  0  0  0  0  0  0  0  0
  1  2  1  0  0  0  0 
  1  3  1  0  0  0  0 
  1  4  1  0  0  0  0 
  1  5  1  0  0  0  0 
  5  6  2  0  0  0  0 
  6  7  1  0  0  0  0 
  6  8  1  0  0  0  0 
  8  9  1  0  0  0  0 
  8 10  2  0  0  0  0 
 10 11  1  0  0  0  0 
 10 12  1  0  0  0  0 
 12 13  2  0  0  0  0 
  5 13  1  0  0  0  0 
 13 14  1  0  0  0  0 
 12 15  1  0  0  0  0 
 15 16  1  0  0  0  0 
 15 17  1  0  0  0  0 
 15 18  1  0  0  0  0 
 18 19  1  0  0  0  0 
 19 20  1  0  0  0  0 
 19 21  1  0  0  0  0 
 19 22  1  0  0  0  0 
 22 23  1  0  0  0  0 
 22 24  1  0  0  0  0 
 22 25  1  0  0  0  0 
 25 26  1  0  0  0  0 
 26 27  1  0  0  0  0 
 26 28  1  0  0  0  0 
 26 29  1  0  0  0  0 
 18 29  1  0  0  0  0 
 29 30  1  0  0  0  0 
 29 31  1  0  0  0  0 
 25 32  1  0  0  0  0 
 32 33  1  0  0  0  0 
 32 34  1  0  0  0  0 
 34 35  2  0  0  0  0 
 35 36  1  0  0  0  0 
 35 37  1  0  0  0  0 
 37 38  1  0  0  0  0 
 37 39  2  0  0  0  0 
 39 40  1  0  0  0  0 
 39 41  1  0  0  0  0 
 41 42  1  0  0  0  0 
 41 43  2  0  0  0  0 
 34 43  1  0  0  0  0 
 43 44  1  0  0  0  0 
 32 45  1  0  0  0  0 
 45 46  2  0  0  0  0 
 46 47  1  0  0  0  0 
 46 48  1  0  0  0  0 
 48 49  1  0  0  0  0 
 48 50  2  0  0  0  0 
 50 51  1  0  0  0  0 
 51 52  1  0  0  0  0 
 51 53  2  0  0  0  0 
 45 53  1  0  0  0  0 
 53 54  1  0  0  0  0 
 50 55  1  0  0  0  0 
 25 56  1  0  0  0  0 
M  CHG  1  25   1
M  CHG  1  56  -1
M  END
> <Rank>
13

> <Priority_score>
0.24776587178693094

> <Reaction_type>
N-oxidation_(tertiary_N)

> <Parent_ID>
64

> <Parent_InChI>
InChI=1S/C25H27ClN2/c1-20-6-5-7-21(18-20)19-27-14-16-28(17-15-27)25(22-8-3-2-4-9-22)23-10-12-24(26)13-11-23/h2-13,18,25H,14-17,19H2,1H3

> <Parent_SMILES>
Cc1cccc(CN2CCN(C(c3ccccc3)c3ccc(Cl)cc3)CC2)c1

$$$$
Molecule 64_metabolite 20
  CDK     0516241031

 60 63  0  0  0  0  0  0  0  0999 V2000
  -11.1589    0.6991    0.0000 C   0  0  0  0  0  0  0  0  0  0  0  0
  -12.4564   -0.0535    0.0000 H   0  0  0  0  0  0  0  0  0  0  0  0
  -10.1970    1.8501    0.0000 H   0  0  0  0  0  0  0  0  0  0  0  0
  -12.1254    1.8463    0.0000 H   0  0  0  0  0  0  0  0  0  0  0  0
   -9.8584   -0.0483    0.0000 C   0  0  0  0  0  0  0  0  0  0  0  0
   -9.8534   -1.5404    0.0000 C   0  0  0  0  0  0  0  0  0  0  0  0
  -11.1510   -2.2928    0.0000 H   0  0  0  0  0  0  0  0  0  0  0  0
   -8.5541   -2.2900    0.0000 C   0  0  0  0  0  0  0  0  0  0  0  0
   -8.5559   -3.7900    0.0000 H   0  0  0  0  0  0  0  0  0  0  0  0
   -7.2598   -1.5474    0.0000 C   0  0  0  0  0  0  0  0  0  0  0  0
   -5.9618   -2.2992    0.0000 H   0  0  0  0  0  0  0  0  0  0  0  0
   -7.2598   -0.0466    0.0000 C   0  0  0  0  0  0  0  0  0  0  0  0
   -8.5591    0.7030    0.0000 C   0  0  0  0  0  0  0  0  0  0  0  0
   -8.5598    2.2030    0.0000 H   0  0  0  0  0  0  0  0  0  0  0  0
   -5.9609    0.7036    0.0000 C   0  0  0  0  0  0  0  0  0  0  0  0
   -6.9253    1.8525    0.0000 H   0  0  0  0  0  0  0  0  0  0  0  0
   -4.9969    1.8528    0.0000 H   0  0  0  0  0  0  0  0  0  0  0  0
   -4.2460   -0.2861    0.0000 N   0  0  0  0  0  0  0  0  0  0  0  0
   -2.9462    0.4643    0.0000 C   0  0  0  0  0  0  0  0  0  0  0  0
   -3.9107    1.6132    0.0000 H   0  0  0  0  0  0  0  0  0  0  0  0
   -1.9826    1.6138    0.0000 H   0  0  0  0  0  0  0  0  0  0  0  0
   -1.6460   -0.2853    0.0000 C   0  0  0  0  0  0  0  0  0  0  0  0
   -1.1337    1.1245    0.0000 H   0  0  0  0  0  0  0  0  0  0  0  0
   -0.3466   -1.0347    0.0000 H   0  0  0  0  0  0  0  0  0  0  0  0
   -1.6455   -1.7853    0.0000 N   0  0  0  0  0  0  0  0  0  0  0  0
   -2.9453   -2.5357    0.0000 C   0  0  0  0  0  0  0  0  0  0  0  0
   -1.9809   -3.6846    0.0000 H   0  0  0  0  0  0  0  0  0  0  0  0
   -3.9090   -3.6852    0.0000 H   0  0  0  0  0  0  0  0  0  0  0  0
   -4.2455   -1.7861    0.0000 C   0  0  0  0  0  0  0  0  0  0  0  0
   -4.7578   -3.1959    0.0000 H   0  0  0  0  0  0  0  0  0  0  0  0
   -5.7229   -1.5263    0.0000 H   0  0  0  0  0  0  0  0  0  0  0  0
    0.4851   -3.0149    0.0000 C   0  0  0  0  0  0  0  0  0  0  0  0
    1.9623   -3.2752    0.0000 H   0  0  0  0  0  0  0  0  0  0  0  0
    0.4853   -4.5149    0.0000 C   0  0  0  0  0  0  0  0  0  0  0  0
   -0.7983   -5.2587    0.0000 C   0  0  0  0  0  0  0  0  0  0  0  0
   -2.0961   -4.5066    0.0000 H   0  0  0  0  0  0  0  0  0  0  0  0
   -0.8056   -6.7587    0.0000 C   0  0  0  0  0  0  0  0  0  0  0  0
   -2.1128   -7.4944    0.0000 H   0  0  0  0  0  0  0  0  0  0  0  0
    0.4707   -7.5249    0.0000 C   0  0  0  0  0  0  0  0  0  0  0  0
    1.7844   -6.7713    0.0000 C   0  0  0  0  0  0  0  0  0  0  0  0
    3.0805   -7.5262    0.0000 H   0  0  0  0  0  0  0  0  0  0  0  0
    1.7917   -5.2713    0.0000 C   0  0  0  0  0  0  0  0  0  0  0  0
    3.0930   -4.5253    0.0000 H   0  0  0  0  0  0  0  0  0  0  0  0
    0.4558   -9.0248    0.0000 Cl  0  0  0  0  0  0  0  0  0  0  0  0
    1.4748   -1.3001    0.0000 C   0  0  0  0  0  0  0  0  0  0  0  0
    0.7238   -0.0007    0.0000 C   0  0  0  0  0  0  0  0  0  0  0  0
   -0.7762   -0.0011    0.0000 H   0  0  0  0  0  0  0  0  0  0  0  0
    1.4736    1.2985    0.0000 C   0  0  0  0  0  0  0  0  0  0  0  0
    0.7236    2.5975    0.0000 H   0  0  0  0  0  0  0  0  0  0  0  0
    2.9744    1.2983    0.0000 C   0  0  0  0  0  0  0  0  0  0  0  0
    3.7254   -0.0011    0.0000 C   0  0  0  0  0  0  0  0  0  0  0  0
    2.9757   -1.3003    0.0000 C   0  0  0  0  0  0  0  0  0  0  0  0
    3.7257   -2.5993    0.0000 H   0  0  0  0  0  0  0  0  0  0  0  0
    5.2254   -0.0007    0.0000 O   0  0  0  0  0  0  0  0  0  0  0  0
    5.9750    1.2986    0.0000 C   0  0  0  0  0  0  0  0  0  0  0  0
    7.4750    1.2991    0.0000 H   0  0  0  0  0  0  0  0  0  0  0  0
    4.5653    1.8112    0.0000 H   0  0  0  0  0  0  0  0  0  0  0  0
    6.2350    2.7759    0.0000 H   0  0  0  0  0  0  0  0  0  0  0  0
    3.7242    2.5974    0.0000 O   0  0  0  0  0  0  0  0  0  0  0  0
    2.9740    3.8963    0.0000 H   0  0  0  0  0  0  0  0  0  0  0  0
  1  2  1  0  0  0  0 
  1  3  1  0  0  0  0 
  1  4  1  0  0  0  0 
  1  5  1  0  0  0  0 
  5  6  2  0  0  0  0 
  6  7  1  0  0  0  0 
  6  8  1  0  0  0  0 
  8  9  1  0  0  0  0 
  8 10  2  0  0  0  0 
 10 11  1  0  0  0  0 
 10 12  1  0  0  0  0 
 12 13  2  0  0  0  0 
  5 13  1  0  0  0  0 
 13 14  1  0  0  0  0 
 12 15  1  0  0  0  0 
 15 16  1  0  0  0  0 
 15 17  1  0  0  0  0 
 15 18  1  0  0  0  0 
 18 19  1  0  0  0  0 
 19 20  1  0  0  0  0 
 19 21  1  0  0  0  0 
 19 22  1  0  0  0  0 
 22 23  1  0  0  0  0 
 22 24  1  0  0  0  0 
 22 25  1  0  0  0  0 
 25 26  1  0  0  0  0 
 26 27  1  0  0  0  0 
 26 28  1  0  0  0  0 
 26 29  1  0  0  0  0 
 18 29  1  0  0  0  0 
 29 30  1  0  0  0  0 
 29 31  1  0  0  0  0 
 25 32  1  0  0  0  0 
 32 33  1  0  0  0  0 
 32 34  1  0  0  0  0 
 34 35  2  0  0  0  0 
 35 36  1  0  0  0  0 
 35 37  1  0  0  0  0 
 37 38  1  0  0  0  0 
 37 39  2  0  0  0  0 
 39 40  1  0  0  0  0 
 40 41  1  0  0  0  0 
 40 42  2  0  0  0  0 
 34 42  1  0  0  0  0 
 42 43  1  0  0  0  0 
 39 44  1  0  0  0  0 
 32 45  1  0  0  0  0 
 45 46  2  0  0  0  0 
 46 47  1  0  0  0  0 
 46 48  1  0  0  0  0 
 48 49  1  0  0  0  0 
 48 50  2  0  0  0  0 
 50 51  1  0  0  0  0 
 51 52  2  0  0  0  0 
 45 52  1  0  0  0  0 
 52 53  1  0  0  0  0 
 51 54  1  0  0  0  0 
 54 55  1  0  0  0  0 
 55 56  1  0  0  0  0 
 55 57  1  0  0  0  0 
 55 58  1  0  0  0  0 
 50 59  1  0  0  0  0 
 59 60  1  0  0  0  0 
M  END
> <Rank>
13

> <Priority_score>
0.24776587178693094

> <Reaction_type>
aromatic_oxidation

> <Parent_ID>
64

> <Parent_InChI>
InChI=1S/C25H27ClN2/c1-20-6-5-7-21(18-20)19-27-14-16-28(17-15-27)25(22-8-3-2-4-9-22)23-10-12-24(26)13-11-23/h2-13,18,25H,14-17,19H2,1H3

> <Parent_SMILES>
Cc1cccc(CN2CCN(C(c3ccccc3)c3ccc(Cl)cc3)CC2)c1

$$$$
Molecule 64_metabolite 21
  CDK     0516241031

 54 57  0  0  0  0  0  0  0  0999 V2000
   -7.2182    5.5865    0.0000 C   0  0  0  0  0  0  0  0  0  0  0  0
   -8.7182    5.5838    0.0000 H   0  0  0  0  0  0  0  0  0  0  0  0
   -5.8096    6.1021    0.0000 H   0  0  0  0  0  0  0  0  0  0  0  0
   -7.4814    7.0632    0.0000 H   0  0  0  0  0  0  0  0  0  0  0  0
   -6.4658    4.2889    0.0000 C   0  0  0  0  0  0  0  0  0  0  0  0
   -7.2078    2.9942    0.0000 C   0  0  0  0  0  0  0  0  0  0  0  0
   -8.7078    2.9917    0.0000 H   0  0  0  0  0  0  0  0  0  0  0  0
   -6.4576    1.6953    0.0000 C   0  0  0  0  0  0  0  0  0  0  0  0
   -7.2093    0.3973    0.0000 H   0  0  0  0  0  0  0  0  0  0  0  0
   -4.9654    1.6910    0.0000 C   0  0  0  0  0  0  0  0  0  0  0  0
   -4.2174    0.3908    0.0000 H   0  0  0  0  0  0  0  0  0  0  0  0
   -4.2148    2.9907    0.0000 C   0  0  0  0  0  0  0  0  0  0  0  0
   -4.9650    4.2896    0.0000 C   0  0  0  0  0  0  0  0  0  0  0  0
   -4.2154    5.5889    0.0000 H   0  0  0  0  0  0  0  0  0  0  0  0
   -2.7148    2.9907    0.0000 C   0  0  0  0  0  0  0  0  0  0  0  0
   -1.3052    3.5037    0.0000 H   0  0  0  0  0  0  0  0  0  0  0  0
   -2.9752    4.4679    0.0000 H   0  0  0  0  0  0  0  0  0  0  0  0
   -1.7248    1.2759    0.0000 N   0  0  0  0  0  0  0  0  0  0  0  0
   -0.2239    1.2764    0.0000 C   0  0  0  0  0  0  0  0  0  0  0  0
    1.1856    1.7896    0.0000 H   0  0  0  0  0  0  0  0  0  0  0  0
   -0.4847    2.7536    0.0000 H   0  0  0  0  0  0  0  0  0  0  0  0
    0.5261   -0.0226    0.0000 C   0  0  0  0  0  0  0  0  0  0  0  0
    1.6749   -0.9871    0.0000 H   0  0  0  0  0  0  0  0  0  0  0  0
    1.6752    0.9414    0.0000 H   0  0  0  0  0  0  0  0  0  0  0  0
   -0.2248   -1.3222    0.0000 N   0  0  0  0  0  0  0  0  0  0  0  0
   -1.7256   -1.3226    0.0000 C   0  0  0  0  0  0  0  0  0  0  0  0
   -2.4754   -2.6218    0.0000 O   0  0  0  0  0  0  0  0  0  0  0  0
   -2.4756   -0.0236    0.0000 C   0  0  0  0  0  0  0  0  0  0  0  0
   -3.6245    0.9408    0.0000 H   0  0  0  0  0  0  0  0  0  0  0  0
   -3.6248   -0.9877    0.0000 H   0  0  0  0  0  0  0  0  0  0  0  0
    0.5252   -2.6212    0.0000 C   0  0  0  0  0  0  0  0  0  0  0  0
   -0.8843   -3.1342    0.0000 H   0  0  0  0  0  0  0  0  0  0  0  0
    3.4652   -2.6212    0.0000 C   0  0  0  0  0  0  0  0  0  0  0  0
    4.2152   -1.3212    0.0000 C   0  0  0  0  0  0  0  0  0  0  0  0
    3.4650   -0.0223    0.0000 H   0  0  0  0  0  0  0  0  0  0  0  0
    5.7152   -1.3212    0.0000 C   0  0  0  0  0  0  0  0  0  0  0  0
    6.4654   -0.0223    0.0000 H   0  0  0  0  0  0  0  0  0  0  0  0
    6.4652   -2.6212    0.0000 C   0  0  0  0  0  0  0  0  0  0  0  0
    7.9652   -2.6212    0.0000 H   0  0  0  0  0  0  0  0  0  0  0  0
    5.7152   -3.9212    0.0000 C   0  0  0  0  0  0  0  0  0  0  0  0
    6.4654   -5.2201    0.0000 H   0  0  0  0  0  0  0  0  0  0  0  0
    4.2152   -3.9212    0.0000 C   0  0  0  0  0  0  0  0  0  0  0  0
    3.4650   -5.2201    0.0000 H   0  0  0  0  0  0  0  0  0  0  0  0
    0.7857   -4.0984    0.0000 C   0  0  0  0  0  0  0  0  0  0  0  0
   -0.3494   -5.0536    0.0000 C   0  0  0  0  0  0  0  0  0  0  0  0
   -1.7580   -4.5380    0.0000 H   0  0  0  0  0  0  0  0  0  0  0  0
   -0.0964   -6.5321    0.0000 C   0  0  0  0  0  0  0  0  0  0  0  0
   -1.2561   -7.4834    0.0000 H   0  0  0  0  0  0  0  0  0  0  0  0
    1.2935   -7.0653    0.0000 C   0  0  0  0  0  0  0  0  0  0  0  0
    2.4565   -6.0952    0.0000 C   0  0  0  0  0  0  0  0  0  0  0  0
    3.8640   -6.6138    0.0000 H   0  0  0  0  0  0  0  0  0  0  0  0
    2.2035   -4.6167    0.0000 C   0  0  0  0  0  0  0  0  0  0  0  0
    3.3556   -3.6562    0.0000 H   0  0  0  0  0  0  0  0  0  0  0  0
    1.5391   -8.5450    0.0000 Cl  0  0  0  0  0  0  0  0  0  0  0  0
  1  2  1  0  0  0  0 
  1  3  1  0  0  0  0 
  1  4  1  0  0  0  0 
  1  5  1  0  0  0  0 
  5  6  2  0  0  0  0 
  6  7  1  0  0  0  0 
  6  8  1  0  0  0  0 
  8  9  1  0  0  0  0 
  8 10  2  0  0  0  0 
 10 11  1  0  0  0  0 
 10 12  1  0  0  0  0 
 12 13  2  0  0  0  0 
  5 13  1  0  0  0  0 
 13 14  1  0  0  0  0 
 12 15  1  0  0  0  0 
 15 16  1  0  0  0  0 
 15 17  1  0  0  0  0 
 15 18  1  0  0  0  0 
 18 19  1  0  0  0  0 
 19 20  1  0  0  0  0 
 19 21  1  0  0  0  0 
 19 22  1  0  0  0  0 
 22 23  1  0  0  0  0 
 22 24  1  0  0  0  0 
 22 25  1  0  0  0  0 
 25 26  1  0  0  0  0 
 26 27  2  0  0  0  0 
 26 28  1  0  0  0  0 
 18 28  1  0  0  0  0 
 28 29  1  0  0  0  0 
 28 30  1  0  0  0  0 
 25 31  1  0  0  0  0 
 31 32  1  0  0  0  0 
 31 33  1  0  0  0  0 
 33 34  2  0  0  0  0 
 34 35  1  0  0  0  0 
 34 36  1  0  0  0  0 
 36 37  1  0  0  0  0 
 36 38  2  0  0  0  0 
 38 39  1  0  0  0  0 
 38 40  1  0  0  0  0 
 40 41  1  0  0  0  0 
 40 42  2  0  0  0  0 
 33 42  1  0  0  0  0 
 42 43  1  0  0  0  0 
 31 44  1  0  0  0  0 
 44 45  2  0  0  0  0 
 45 46  1  0  0  0  0 
 45 47  1  0  0  0  0 
 47 48  1  0  0  0  0 
 47 49  2  0  0  0  0 
 49 50  1  0  0  0  0 
 50 51  1  0  0  0  0 
 50 52  2  0  0  0  0 
 44 52  1  0  0  0  0 
 52 53  1  0  0  0  0 
 49 54  1  0  0  0  0 
M  END
> <Rank>
21

> <Priority_score>
0.216

> <Reaction_type>
oxidation_(amine_in_a_ring)

> <Parent_ID>
64

> <Parent_InChI>
InChI=1S/C25H27ClN2/c1-20-6-5-7-21(18-20)19-27-14-16-28(17-15-27)25(22-8-3-2-4-9-22)23-10-12-24(26)13-11-23/h2-13,18,25H,14-17,19H2,1H3

> <Parent_SMILES>
Cc1cccc(CN2CCN(C(c3ccccc3)c3ccc(Cl)cc3)CC2)c1

$$$$
Molecule 64_metabolite 22
  CDK     0516241031

 56 59  0  0  0  0  0  0  0  0999 V2000
   -7.3382    5.5544    0.0000 C   0  0  0  0  0  0  0  0  0  0  0  0
   -8.8382    5.5516    0.0000 H   0  0  0  0  0  0  0  0  0  0  0  0
   -5.9296    6.0700    0.0000 H   0  0  0  0  0  0  0  0  0  0  0  0
   -7.6014    7.0311    0.0000 H   0  0  0  0  0  0  0  0  0  0  0  0
   -6.5858    4.2567    0.0000 C   0  0  0  0  0  0  0  0  0  0  0  0
   -7.3278    2.9621    0.0000 C   0  0  0  0  0  0  0  0  0  0  0  0
   -8.8278    2.9595    0.0000 H   0  0  0  0  0  0  0  0  0  0  0  0
   -6.5776    1.6631    0.0000 C   0  0  0  0  0  0  0  0  0  0  0  0
   -7.3293    0.3651    0.0000 H   0  0  0  0  0  0  0  0  0  0  0  0
   -5.0854    1.6589    0.0000 C   0  0  0  0  0  0  0  0  0  0  0  0
   -4.3374    0.3587    0.0000 H   0  0  0  0  0  0  0  0  0  0  0  0
   -4.3348    2.9585    0.0000 C   0  0  0  0  0  0  0  0  0  0  0  0
   -5.0850    4.2574    0.0000 C   0  0  0  0  0  0  0  0  0  0  0  0
   -4.3354    5.5567    0.0000 H   0  0  0  0  0  0  0  0  0  0  0  0
   -2.8348    2.9585    0.0000 C   0  0  0  0  0  0  0  0  0  0  0  0
   -1.4252    3.4715    0.0000 H   0  0  0  0  0  0  0  0  0  0  0  0
   -3.0952    4.4357    0.0000 H   0  0  0  0  0  0  0  0  0  0  0  0
   -1.8448    1.2438    0.0000 N   0  0  0  0  0  0  0  0  0  0  0  0
   -0.3439    1.2443    0.0000 C   0  0  0  0  0  0  0  0  0  0  0  0
    1.0656    1.7574    0.0000 H   0  0  0  0  0  0  0  0  0  0  0  0
   -0.6047    2.7214    0.0000 H   0  0  0  0  0  0  0  0  0  0  0  0
    0.4061   -0.0548    0.0000 C   0  0  0  0  0  0  0  0  0  0  0  0
    1.5549   -1.0192    0.0000 H   0  0  0  0  0  0  0  0  0  0  0  0
    1.5552    0.9093    0.0000 H   0  0  0  0  0  0  0  0  0  0  0  0
   -0.3448   -1.3543    0.0000 N   0  0  0  0  0  0  0  0  0  0  0  0
   -1.8456   -1.3548    0.0000 C   0  0  0  0  0  0  0  0  0  0  0  0
   -3.2551   -1.8680    0.0000 H   0  0  0  0  0  0  0  0  0  0  0  0
   -2.5956   -0.0557    0.0000 C   0  0  0  0  0  0  0  0  0  0  0  0
   -3.7445    0.9087    0.0000 H   0  0  0  0  0  0  0  0  0  0  0  0
   -3.7448   -1.0198    0.0000 H   0  0  0  0  0  0  0  0  0  0  0  0
   -1.5848   -2.8319    0.0000 O   0  0  0  0  0  0  0  0  0  0  0  0
   -2.7337   -3.7964    0.0000 H   0  0  0  0  0  0  0  0  0  0  0  0
    0.6452   -3.0690    0.0000 C   0  0  0  0  0  0  0  0  0  0  0  0
   -0.7643   -3.5821    0.0000 H   0  0  0  0  0  0  0  0  0  0  0  0
    3.5852   -3.0690    0.0000 C   0  0  0  0  0  0  0  0  0  0  0  0
    4.3352   -1.7690    0.0000 C   0  0  0  0  0  0  0  0  0  0  0  0
    3.5850   -0.4701    0.0000 H   0  0  0  0  0  0  0  0  0  0  0  0
    5.8352   -1.7690    0.0000 C   0  0  0  0  0  0  0  0  0  0  0  0
    6.5854   -0.4701    0.0000 H   0  0  0  0  0  0  0  0  0  0  0  0
    6.5852   -3.0690    0.0000 C   0  0  0  0  0  0  0  0  0  0  0  0
    8.0852   -3.0690    0.0000 H   0  0  0  0  0  0  0  0  0  0  0  0
    5.8352   -4.3690    0.0000 C   0  0  0  0  0  0  0  0  0  0  0  0
    6.5854   -5.6680    0.0000 H   0  0  0  0  0  0  0  0  0  0  0  0
    4.3352   -4.3690    0.0000 C   0  0  0  0  0  0  0  0  0  0  0  0
    3.5850   -5.6680    0.0000 H   0  0  0  0  0  0  0  0  0  0  0  0
    0.9057   -4.5462    0.0000 C   0  0  0  0  0  0  0  0  0  0  0  0
   -0.2294   -5.5014    0.0000 C   0  0  0  0  0  0  0  0  0  0  0  0
   -1.6380   -4.9858    0.0000 H   0  0  0  0  0  0  0  0  0  0  0  0
    0.0236   -6.9799    0.0000 C   0  0  0  0  0  0  0  0  0  0  0  0
   -1.1361   -7.9313    0.0000 H   0  0  0  0  0  0  0  0  0  0  0  0
    1.4135   -7.5131    0.0000 C   0  0  0  0  0  0  0  0  0  0  0  0
    2.5765   -6.5430    0.0000 C   0  0  0  0  0  0  0  0  0  0  0  0
    3.9840   -7.0616    0.0000 H   0  0  0  0  0  0  0  0  0  0  0  0
    2.3235   -5.0645    0.0000 C   0  0  0  0  0  0  0  0  0  0  0  0
    3.4756   -4.1040    0.0000 H   0  0  0  0  0  0  0  0  0  0  0  0
    1.6591   -8.9929    0.0000 Cl  0  0  0  0  0  0  0  0  0  0  0  0
  1  2  1  0  0  0  0 
  1  3  1  0  0  0  0 
  1  4  1  0  0  0  0 
  1  5  1  0  0  0  0 
  5  6  2  0  0  0  0 
  6  7  1  0  0  0  0 
  6  8  1  0  0  0  0 
  8  9  1  0  0  0  0 
  8 10  2  0  0  0  0 
 10 11  1  0  0  0  0 
 10 12  1  0  0  0  0 
 12 13  2  0  0  0  0 
  5 13  1  0  0  0  0 
 13 14  1  0  0  0  0 
 12 15  1  0  0  0  0 
 15 16  1  0  0  0  0 
 15 17  1  0  0  0  0 
 15 18  1  0  0  0  0 
 18 19  1  0  0  0  0 
 19 20  1  0  0  0  0 
 19 21  1  0  0  0  0 
 19 22  1  0  0  0  0 
 22 23  1  0  0  0  0 
 22 24  1  0  0  0  0 
 22 25  1  0  0  0  0 
 25 26  1  0  0  0  0 
 26 27  1  0  0  0  0 
 26 28  1  0  0  0  0 
 18 28  1  0  0  0  0 
 28 29  1  0  0  0  0 
 28 30  1  0  0  0  0 
 26 31  1  0  0  0  0 
 31 32  1  0  0  0  0 
 25 33  1  0  0  0  0 
 33 34  1  0  0  0  0 
 33 35  1  0  0  0  0 
 35 36  2  0  0  0  0 
 36 37  1  0  0  0  0 
 36 38  1  0  0  0  0 
 38 39  1  0  0  0  0 
 38 40  2  0  0  0  0 
 40 41  1  0  0  0  0 
 40 42  1  0  0  0  0 
 42 43  1  0  0  0  0 
 42 44  2  0  0  0  0 
 35 44  1  0  0  0  0 
 44 45  1  0  0  0  0 
 33 46  1  0  0  0  0 
 46 47  2  0  0  0  0 
 47 48  1  0  0  0  0 
 47 49  1  0  0  0  0 
 49 50  1  0  0  0  0 
 49 51  2  0  0  0  0 
 51 52  1  0  0  0  0 
 52 53  1  0  0  0  0 
 52 54  2  0  0  0  0 
 46 54  1  0  0  0  0 
 54 55  1  0  0  0  0 
 51 56  1  0  0  0  0 
M  END
> <Rank>
21

> <Priority_score>
0.216

> <Reaction_type>
aliphatic_hydroxylation_(sec_carbon_next_to_SP2,in_a_ring)

> <Parent_ID>
64

> <Parent_InChI>
InChI=1S/C25H27ClN2/c1-20-6-5-7-21(18-20)19-27-14-16-28(17-15-27)25(22-8-3-2-4-9-22)23-10-12-24(26)13-11-23/h2-13,18,25H,14-17,19H2,1H3

> <Parent_SMILES>
Cc1cccc(CN2CCN(C(c3ccccc3)c3ccc(Cl)cc3)CC2)c1

$$$$
Molecule 64_metabolite 23
  CDK     0516241031

 56 58  0  0  0  0  0  0  0  0999 V2000
   -3.4890    0.9819    0.0000 C   0  0  0  0  0  0  0  0  0  0  0  0
   -4.9890    0.9794    0.0000 H   0  0  0  0  0  0  0  0  0  0  0  0
   -2.0803    1.4973    0.0000 H   0  0  0  0  0  0  0  0  0  0  0  0
   -3.7519    2.4587    0.0000 H   0  0  0  0  0  0  0  0  0  0  0  0
   -2.7368   -0.3159    0.0000 C   0  0  0  0  0  0  0  0  0  0  0  0
   -3.4790   -1.6104    0.0000 C   0  0  0  0  0  0  0  0  0  0  0  0
   -4.9790   -1.6127    0.0000 H   0  0  0  0  0  0  0  0  0  0  0  0
   -2.7290   -2.9095    0.0000 C   0  0  0  0  0  0  0  0  0  0  0  0
   -3.4809   -4.2074    0.0000 H   0  0  0  0  0  0  0  0  0  0  0  0
   -1.2368   -2.9140    0.0000 C   0  0  0  0  0  0  0  0  0  0  0  0
   -0.4890   -4.2143    0.0000 H   0  0  0  0  0  0  0  0  0  0  0  0
   -0.4860   -1.6145    0.0000 C   0  0  0  0  0  0  0  0  0  0  0  0
   -1.2360   -0.3154    0.0000 C   0  0  0  0  0  0  0  0  0  0  0  0
   -0.4862    0.9837    0.0000 H   0  0  0  0  0  0  0  0  0  0  0  0
    1.0140   -1.6147    0.0000 C   0  0  0  0  0  0  0  0  0  0  0  0
    2.4237   -1.1019    0.0000 H   0  0  0  0  0  0  0  0  0  0  0  0
    0.7538   -0.1374    0.0000 H   0  0  0  0  0  0  0  0  0  0  0  0
    1.7638   -2.9139    0.0000 N   0  0  0  0  0  0  0  0  0  0  0  0
    3.7438   -2.9142    0.0000 C   0  0  0  0  0  0  0  0  0  0  0  0
    5.1535   -2.4014    0.0000 H   0  0  0  0  0  0  0  0  0  0  0  0
    3.4836   -1.4369    0.0000 H   0  0  0  0  0  0  0  0  0  0  0  0
    4.4936   -4.2133    0.0000 C   0  0  0  0  0  0  0  0  0  0  0  0
    3.0840   -4.7261    0.0000 H   0  0  0  0  0  0  0  0  0  0  0  0
    4.7539   -5.6906    0.0000 H   0  0  0  0  0  0  0  0  0  0  0  0
    5.9936   -4.2136    0.0000 N   0  0  0  0  0  0  0  0  0  0  0  0
    6.7438   -2.9147    0.0000 H   0  0  0  0  0  0  0  0  0  0  0  0
    6.9833   -5.9285    0.0000 C   0  0  0  0  0  0  0  0  0  0  0  0
    5.5737   -6.4413    0.0000 H   0  0  0  0  0  0  0  0  0  0  0  0
    8.4833   -5.9287    0.0000 C   0  0  0  0  0  0  0  0  0  0  0  0
    9.2336   -4.6288    0.0000 C   0  0  0  0  0  0  0  0  0  0  0  0
    8.4836   -3.3298    0.0000 H   0  0  0  0  0  0  0  0  0  0  0  0
   10.7336   -4.6291    0.0000 C   0  0  0  0  0  0  0  0  0  0  0  0
   11.4840   -3.3303    0.0000 H   0  0  0  0  0  0  0  0  0  0  0  0
   11.4833   -5.9292    0.0000 C   0  0  0  0  0  0  0  0  0  0  0  0
   12.9833   -5.9294    0.0000 H   0  0  0  0  0  0  0  0  0  0  0  0
   10.7331   -7.2291    0.0000 C   0  0  0  0  0  0  0  0  0  0  0  0
   11.4831   -8.5281    0.0000 H   0  0  0  0  0  0  0  0  0  0  0  0
    9.2331   -7.2288    0.0000 C   0  0  0  0  0  0  0  0  0  0  0  0
    8.2686   -8.3776    0.0000 H   0  0  0  0  0  0  0  0  0  0  0  0
    7.4934   -8.8239    0.0000 C   0  0  0  0  0  0  0  0  0  0  0  0
    6.3581   -9.7789    0.0000 C   0  0  0  0  0  0  0  0  0  0  0  0
    4.9496   -9.2631    0.0000 H   0  0  0  0  0  0  0  0  0  0  0  0
    6.6109  -11.2574    0.0000 C   0  0  0  0  0  0  0  0  0  0  0  0
    5.4511  -12.2086    0.0000 H   0  0  0  0  0  0  0  0  0  0  0  0
    8.0007  -11.7908    0.0000 C   0  0  0  0  0  0  0  0  0  0  0  0
    9.1639  -10.8209    0.0000 C   0  0  0  0  0  0  0  0  0  0  0  0
   10.5713  -11.3398    0.0000 H   0  0  0  0  0  0  0  0  0  0  0  0
    8.9111   -9.3424    0.0000 C   0  0  0  0  0  0  0  0  0  0  0  0
   10.0634   -8.3821    0.0000 H   0  0  0  0  0  0  0  0  0  0  0  0
    8.2460  -13.2706    0.0000 Cl  0  0  0  0  0  0  0  0  0  0  0  0
    1.0136   -4.2128    0.0000 C   0  0  0  0  0  0  0  0  0  0  0  0
   -0.1356   -5.1768    0.0000 H   0  0  0  0  0  0  0  0  0  0  0  0
   -0.1353   -3.2484    0.0000 H   0  0  0  0  0  0  0  0  0  0  0  0
    1.7634   -5.5119    0.0000 C   0  0  0  0  0  0  0  0  0  0  0  0
    3.2634   -5.5122    0.0000 H   0  0  0  0  0  0  0  0  0  0  0  0
    1.0132   -6.8109    0.0000 O   0  0  0  0  0  0  0  0  0  0  0  0
  1  2  1  0  0  0  0 
  1  3  1  0  0  0  0 
  1  4  1  0  0  0  0 
  1  5  1  0  0  0  0 
  5  6  2  0  0  0  0 
  6  7  1  0  0  0  0 
  6  8  1  0  0  0  0 
  8  9  1  0  0  0  0 
  8 10  2  0  0  0  0 
 10 11  1  0  0  0  0 
 10 12  1  0  0  0  0 
 12 13  2  0  0  0  0 
  5 13  1  0  0  0  0 
 13 14  1  0  0  0  0 
 12 15  1  0  0  0  0 
 15 16  1  0  0  0  0 
 15 17  1  0  0  0  0 
 15 18  1  0  0  0  0 
 18 19  1  0  0  0  0 
 19 20  1  0  0  0  0 
 19 21  1  0  0  0  0 
 19 22  1  0  0  0  0 
 22 23  1  0  0  0  0 
 22 24  1  0  0  0  0 
 22 25  1  0  0  0  0 
 25 26  1  0  0  0  0 
 25 27  1  0  0  0  0 
 27 28  1  0  0  0  0 
 27 29  1  0  0  0  0 
 29 30  2  0  0  0  0 
 30 31  1  0  0  0  0 
 30 32  1  0  0  0  0 
 32 33  1  0  0  0  0 
 32 34  2  0  0  0  0 
 34 35  1  0  0  0  0 
 34 36  1  0  0  0  0 
 36 37  1  0  0  0  0 
 36 38  2  0  0  0  0 
 29 38  1  0  0  0  0 
 38 39  1  0  0  0  0 
 27 40  1  0  0  0  0 
 40 41  2  0  0  0  0 
 41 42  1  0  0  0  0 
 41 43  1  0  0  0  0 
 43 44  1  0  0  0  0 
 43 45  2  0  0  0  0 
 45 46  1  0  0  0  0 
 46 47  1  0  0  0  0 
 46 48  2  0  0  0  0 
 40 48  1  0  0  0  0 
 48 49  1  0  0  0  0 
 45 50  1  0  0  0  0 
 18 51  1  0  0  0  0 
 51 52  1  0  0  0  0 
 51 53  1  0  0  0  0 
 51 54  1  0  0  0  0 
 54 55  1  0  0  0  0 
 54 56  2  0  0  0  0 
M  END
> <Rank>
21

> <Priority_score>
0.216

> <Reaction_type>
N-dealkylation

> <Parent_ID>
64

> <Parent_InChI>
InChI=1S/C25H27ClN2/c1-20-6-5-7-21(18-20)19-27-14-16-28(17-15-27)25(22-8-3-2-4-9-22)23-10-12-24(26)13-11-23/h2-13,18,25H,14-17,19H2,1H3

> <Parent_SMILES>
Cc1cccc(CN2CCN(C(c3ccccc3)c3ccc(Cl)cc3)CC2)c1

$$$$
Molecule 64_metabolite 24
  CDK     0516241031

 54 57  0  0  0  0  0  0  0  0999 V2000
   -5.9131    5.6022    0.0000 C   0  0  0  0  0  0  0  0  0  0  0  0
   -5.9103    7.1022    0.0000 H   0  0  0  0  0  0  0  0  0  0  0  0
   -6.4287    4.1936    0.0000 H   0  0  0  0  0  0  0  0  0  0  0  0
   -7.3898    5.8653    0.0000 H   0  0  0  0  0  0  0  0  0  0  0  0
   -4.6154    4.8498    0.0000 C   0  0  0  0  0  0  0  0  0  0  0  0
   -3.3208    5.5917    0.0000 C   0  0  0  0  0  0  0  0  0  0  0  0
   -3.3183    7.0917    0.0000 H   0  0  0  0  0  0  0  0  0  0  0  0
   -2.0218    4.8415    0.0000 C   0  0  0  0  0  0  0  0  0  0  0  0
   -0.7238    5.5933    0.0000 H   0  0  0  0  0  0  0  0  0  0  0  0
   -2.0176    3.3494    0.0000 C   0  0  0  0  0  0  0  0  0  0  0  0
   -0.7174    2.6013    0.0000 H   0  0  0  0  0  0  0  0  0  0  0  0
   -3.3172    2.5987    0.0000 C   0  0  0  0  0  0  0  0  0  0  0  0
   -4.6161    3.3489    0.0000 C   0  0  0  0  0  0  0  0  0  0  0  0
   -5.9154    2.5994    0.0000 H   0  0  0  0  0  0  0  0  0  0  0  0
   -3.3172    1.0987    0.0000 C   0  0  0  0  0  0  0  0  0  0  0  0
   -3.8302   -0.3108    0.0000 H   0  0  0  0  0  0  0  0  0  0  0  0
   -4.7944    1.3592    0.0000 H   0  0  0  0  0  0  0  0  0  0  0  0
   -2.0182    0.3487    0.0000 N   0  0  0  0  0  0  0  0  0  0  0  0
   -0.7187    1.0996    0.0000 C   0  0  0  0  0  0  0  0  0  0  0  0
    0.2454    2.2487    0.0000 H   0  0  0  0  0  0  0  0  0  0  0  0
   -1.6831    2.2484    0.0000 H   0  0  0  0  0  0  0  0  0  0  0  0
    0.5804    0.3496    0.0000 C   0  0  0  0  0  0  0  0  0  0  0  0
    2.0575    0.0888    0.0000 H   0  0  0  0  0  0  0  0  0  0  0  0
    1.0936    1.7591    0.0000 H   0  0  0  0  0  0  0  0  0  0  0  0
    0.5799   -1.1513    0.0000 N   0  0  0  0  0  0  0  0  0  0  0  0
   -0.7196   -1.9021    0.0000 C   0  0  0  0  0  0  0  0  0  0  0  0
   -1.6837   -3.0513    0.0000 H   0  0  0  0  0  0  0  0  0  0  0  0
    0.2448   -3.0510    0.0000 H   0  0  0  0  0  0  0  0  0  0  0  0
   -2.0187   -1.1521    0.0000 C   0  0  0  0  0  0  0  0  0  0  0  0
   -3.3178   -1.9019    0.0000 O   0  0  0  0  0  0  0  0  0  0  0  0
    2.2946   -2.1413    0.0000 C   0  0  0  0  0  0  0  0  0  0  0  0
    1.3305   -3.2903    0.0000 H   0  0  0  0  0  0  0  0  0  0  0  0
    4.8408   -0.6713    0.0000 C   0  0  0  0  0  0  0  0  0  0  0  0
    4.8403    0.8296    0.0000 C   0  0  0  0  0  0  0  0  0  0  0  0
    3.5411    1.5794    0.0000 H   0  0  0  0  0  0  0  0  0  0  0  0
    6.1393    1.5796    0.0000 C   0  0  0  0  0  0  0  0  0  0  0  0
    6.1395    3.0796    0.0000 H   0  0  0  0  0  0  0  0  0  0  0  0
    7.4388    0.8287    0.0000 C   0  0  0  0  0  0  0  0  0  0  0  0
    8.7379    1.5787    0.0000 H   0  0  0  0  0  0  0  0  0  0  0  0
    7.4393   -0.6721    0.0000 C   0  0  0  0  0  0  0  0  0  0  0  0
    8.7385   -1.4219    0.0000 H   0  0  0  0  0  0  0  0  0  0  0  0
    6.1403   -1.4221    0.0000 C   0  0  0  0  0  0  0  0  0  0  0  0
    6.1400   -2.9221    0.0000 H   0  0  0  0  0  0  0  0  0  0  0  0
    3.2588   -3.2903    0.0000 C   0  0  0  0  0  0  0  0  0  0  0  0
    2.7534   -4.6851    0.0000 C   0  0  0  0  0  0  0  0  0  0  0  0
    1.2757   -4.9429    0.0000 H   0  0  0  0  0  0  0  0  0  0  0  0
    3.7118   -5.8390    0.0000 C   0  0  0  0  0  0  0  0  0  0  0  0
    3.1831   -7.2427    0.0000 H   0  0  0  0  0  0  0  0  0  0  0  0
    5.1820   -5.6058    0.0000 C   0  0  0  0  0  0  0  0  0  0  0  0
    5.7041   -4.1842    0.0000 C   0  0  0  0  0  0  0  0  0  0  0  0
    7.1824   -3.9296    0.0000 H   0  0  0  0  0  0  0  0  0  0  0  0
    4.7458   -3.0303    0.0000 C   0  0  0  0  0  0  0  0  0  0  0  0
    5.2633   -1.6224    0.0000 H   0  0  0  0  0  0  0  0  0  0  0  0
    6.1346   -6.7645    0.0000 Cl  0  0  0  0  0  0  0  0  0  0  0  0
  1  2  1  0  0  0  0 
  1  3  1  0  0  0  0 
  1  4  1  0  0  0  0 
  1  5  1  0  0  0  0 
  5  6  2  0  0  0  0 
  6  7  1  0  0  0  0 
  6  8  1  0  0  0  0 
  8  9  1  0  0  0  0 
  8 10  2  0  0  0  0 
 10 11  1  0  0  0  0 
 10 12  1  0  0  0  0 
 12 13  2  0  0  0  0 
  5 13  1  0  0  0  0 
 13 14  1  0  0  0  0 
 12 15  1  0  0  0  0 
 15 16  1  0  0  0  0 
 15 17  1  0  0  0  0 
 15 18  1  0  0  0  0 
 18 19  1  0  0  0  0 
 19 20  1  0  0  0  0 
 19 21  1  0  0  0  0 
 19 22  1  0  0  0  0 
 22 23  1  0  0  0  0 
 22 24  1  0  0  0  0 
 22 25  1  0  0  0  0 
 25 26  1  0  0  0  0 
 26 27  1  0  0  0  0 
 26 28  1  0  0  0  0 
 26 29  1  0  0  0  0 
 18 29  1  0  0  0  0 
 29 30  2  0  0  0  0 
 25 31  1  0  0  0  0 
 31 32  1  0  0  0  0 
 31 33  1  0  0  0  0 
 33 34  2  0  0  0  0 
 34 35  1  0  0  0  0 
 34 36  1  0  0  0  0 
 36 37  1  0  0  0  0 
 36 38  2  0  0  0  0 
 38 39  1  0  0  0  0 
 38 40  1  0  0  0  0 
 40 41  1  0  0  0  0 
 40 42  2  0  0  0  0 
 33 42  1  0  0  0  0 
 42 43  1  0  0  0  0 
 31 44  1  0  0  0  0 
 44 45  2  0  0  0  0 
 45 46  1  0  0  0  0 
 45 47  1  0  0  0  0 
 47 48  1  0  0  0  0 
 47 49  2  0  0  0  0 
 49 50  1  0  0  0  0 
 50 51  1  0  0  0  0 
 50 52  2  0  0  0  0 
 44 52  1  0  0  0  0 
 52 53  1  0  0  0  0 
 49 54  1  0  0  0  0 
M  END
> <Rank>
24

> <Priority_score>
0.18

> <Reaction_type>
oxidation_(amine_in_a_ring)

> <Parent_ID>
64

> <Parent_InChI>
InChI=1S/C25H27ClN2/c1-20-6-5-7-21(18-20)19-27-14-16-28(17-15-27)25(22-8-3-2-4-9-22)23-10-12-24(26)13-11-23/h2-13,18,25H,14-17,19H2,1H3

> <Parent_SMILES>
Cc1cccc(CN2CCN(C(c3ccccc3)c3ccc(Cl)cc3)CC2)c1

$$$$
Molecule 64_metabolite 25
  CDK     0516241031

 56 59  0  0  0  0  0  0  0  0999 V2000
   -6.1209    5.4822    0.0000 C   0  0  0  0  0  0  0  0  0  0  0  0
   -6.1182    6.9822    0.0000 H   0  0  0  0  0  0  0  0  0  0  0  0
   -6.6365    4.0736    0.0000 H   0  0  0  0  0  0  0  0  0  0  0  0
   -7.5976    5.7453    0.0000 H   0  0  0  0  0  0  0  0  0  0  0  0
   -4.8232    4.7298    0.0000 C   0  0  0  0  0  0  0  0  0  0  0  0
   -3.5286    5.4717    0.0000 C   0  0  0  0  0  0  0  0  0  0  0  0
   -3.5261    6.9717    0.0000 H   0  0  0  0  0  0  0  0  0  0  0  0
   -2.2297    4.7215    0.0000 C   0  0  0  0  0  0  0  0  0  0  0  0
   -0.9317    5.4733    0.0000 H   0  0  0  0  0  0  0  0  0  0  0  0
   -2.2254    3.2294    0.0000 C   0  0  0  0  0  0  0  0  0  0  0  0
   -0.9252    2.4813    0.0000 H   0  0  0  0  0  0  0  0  0  0  0  0
   -3.5251    2.4787    0.0000 C   0  0  0  0  0  0  0  0  0  0  0  0
   -4.8240    3.2289    0.0000 C   0  0  0  0  0  0  0  0  0  0  0  0
   -6.1232    2.4794    0.0000 H   0  0  0  0  0  0  0  0  0  0  0  0
   -3.5251    0.9787    0.0000 C   0  0  0  0  0  0  0  0  0  0  0  0
   -4.0381   -0.4308    0.0000 H   0  0  0  0  0  0  0  0  0  0  0  0
   -5.0023    1.2392    0.0000 H   0  0  0  0  0  0  0  0  0  0  0  0
   -1.8103   -0.0113    0.0000 N   0  0  0  0  0  0  0  0  0  0  0  0
   -0.5108    0.7396    0.0000 C   0  0  0  0  0  0  0  0  0  0  0  0
    0.4533    1.8887    0.0000 H   0  0  0  0  0  0  0  0  0  0  0  0
   -1.4752    1.8884    0.0000 H   0  0  0  0  0  0  0  0  0  0  0  0
    0.7882   -0.0104    0.0000 C   0  0  0  0  0  0  0  0  0  0  0  0
    2.2654   -0.2712    0.0000 H   0  0  0  0  0  0  0  0  0  0  0  0
    1.3014    1.3991    0.0000 H   0  0  0  0  0  0  0  0  0  0  0  0
    0.7878   -1.5113    0.0000 N   0  0  0  0  0  0  0  0  0  0  0  0
   -0.5118   -2.2621    0.0000 C   0  0  0  0  0  0  0  0  0  0  0  0
   -1.4758   -3.4113    0.0000 H   0  0  0  0  0  0  0  0  0  0  0  0
    0.4527   -3.4110    0.0000 H   0  0  0  0  0  0  0  0  0  0  0  0
   -1.8108   -1.5121    0.0000 C   0  0  0  0  0  0  0  0  0  0  0  0
   -3.2880   -1.2513    0.0000 H   0  0  0  0  0  0  0  0  0  0  0  0
   -2.3240   -2.9216    0.0000 O   0  0  0  0  0  0  0  0  0  0  0  0
   -3.8012   -3.1819    0.0000 H   0  0  0  0  0  0  0  0  0  0  0  0
    2.5025   -2.5013    0.0000 C   0  0  0  0  0  0  0  0  0  0  0  0
    1.5383   -3.6503    0.0000 H   0  0  0  0  0  0  0  0  0  0  0  0
    5.0486   -1.0313    0.0000 C   0  0  0  0  0  0  0  0  0  0  0  0
    5.0481    0.4696    0.0000 C   0  0  0  0  0  0  0  0  0  0  0  0
    3.7490    1.2194    0.0000 H   0  0  0  0  0  0  0  0  0  0  0  0
    6.3472    1.2196    0.0000 C   0  0  0  0  0  0  0  0  0  0  0  0
    6.3474    2.7196    0.0000 H   0  0  0  0  0  0  0  0  0  0  0  0
    7.6467    0.4687    0.0000 C   0  0  0  0  0  0  0  0  0  0  0  0
    8.9457    1.2187    0.0000 H   0  0  0  0  0  0  0  0  0  0  0  0
    7.6472   -1.0321    0.0000 C   0  0  0  0  0  0  0  0  0  0  0  0
    8.9463   -1.7819    0.0000 H   0  0  0  0  0  0  0  0  0  0  0  0
    6.3481   -1.7821    0.0000 C   0  0  0  0  0  0  0  0  0  0  0  0
    6.3479   -3.2821    0.0000 H   0  0  0  0  0  0  0  0  0  0  0  0
    3.4667   -3.6503    0.0000 C   0  0  0  0  0  0  0  0  0  0  0  0
    2.9612   -5.0451    0.0000 C   0  0  0  0  0  0  0  0  0  0  0  0
    1.4835   -5.3029    0.0000 H   0  0  0  0  0  0  0  0  0  0  0  0
    3.9196   -6.1990    0.0000 C   0  0  0  0  0  0  0  0  0  0  0  0
    3.3909   -7.6027    0.0000 H   0  0  0  0  0  0  0  0  0  0  0  0
    5.3898   -5.9658    0.0000 C   0  0  0  0  0  0  0  0  0  0  0  0
    5.9120   -4.5442    0.0000 C   0  0  0  0  0  0  0  0  0  0  0  0
    7.3902   -4.2896    0.0000 H   0  0  0  0  0  0  0  0  0  0  0  0
    4.9536   -3.3903    0.0000 C   0  0  0  0  0  0  0  0  0  0  0  0
    5.4711   -1.9824    0.0000 H   0  0  0  0  0  0  0  0  0  0  0  0
    6.3424   -7.1245    0.0000 Cl  0  0  0  0  0  0  0  0  0  0  0  0
  1  2  1  0  0  0  0 
  1  3  1  0  0  0  0 
  1  4  1  0  0  0  0 
  1  5  1  0  0  0  0 
  5  6  2  0  0  0  0 
  6  7  1  0  0  0  0 
  6  8  1  0  0  0  0 
  8  9  1  0  0  0  0 
  8 10  2  0  0  0  0 
 10 11  1  0  0  0  0 
 10 12  1  0  0  0  0 
 12 13  2  0  0  0  0 
  5 13  1  0  0  0  0 
 13 14  1  0  0  0  0 
 12 15  1  0  0  0  0 
 15 16  1  0  0  0  0 
 15 17  1  0  0  0  0 
 15 18  1  0  0  0  0 
 18 19  1  0  0  0  0 
 19 20  1  0  0  0  0 
 19 21  1  0  0  0  0 
 19 22  1  0  0  0  0 
 22 23  1  0  0  0  0 
 22 24  1  0  0  0  0 
 22 25  1  0  0  0  0 
 25 26  1  0  0  0  0 
 26 27  1  0  0  0  0 
 26 28  1  0  0  0  0 
 26 29  1  0  0  0  0 
 18 29  1  0  0  0  0 
 29 30  1  0  0  0  0 
 29 31  1  0  0  0  0 
 31 32  1  0  0  0  0 
 25 33  1  0  0  0  0 
 33 34  1  0  0  0  0 
 33 35  1  0  0  0  0 
 35 36  2  0  0  0  0 
 36 37  1  0  0  0  0 
 36 38  1  0  0  0  0 
 38 39  1  0  0  0  0 
 38 40  2  0  0  0  0 
 40 41  1  0  0  0  0 
 40 42  1  0  0  0  0 
 42 43  1  0  0  0  0 
 42 44  2  0  0  0  0 
 35 44  1  0  0  0  0 
 44 45  1  0  0  0  0 
 33 46  1  0  0  0  0 
 46 47  2  0  0  0  0 
 47 48  1  0  0  0  0 
 47 49  1  0  0  0  0 
 49 50  1  0  0  0  0 
 49 51  2  0  0  0  0 
 51 52  1  0  0  0  0 
 52 53  1  0  0  0  0 
 52 54  2  0  0  0  0 
 46 54  1  0  0  0  0 
 54 55  1  0  0  0  0 
 51 56  1  0  0  0  0 
M  END
> <Rank>
24

> <Priority_score>
0.18

> <Reaction_type>
aliphatic_hydroxylation_(sec_carbon_next_to_SP2,in_a_ring)

> <Parent_ID>
64

> <Parent_InChI>
InChI=1S/C25H27ClN2/c1-20-6-5-7-21(18-20)19-27-14-16-28(17-15-27)25(22-8-3-2-4-9-22)23-10-12-24(26)13-11-23/h2-13,18,25H,14-17,19H2,1H3

> <Parent_SMILES>
Cc1cccc(CN2CCN(C(c3ccccc3)c3ccc(Cl)cc3)CC2)c1

$$$$
Molecule 64_metabolite 26
  CDK     0516241031

 56 58  0  0  0  0  0  0  0  0999 V2000
   -5.5917   -4.3898    0.0000 C   0  0  0  0  0  0  0  0  0  0  0  0
   -6.5536   -3.2388    0.0000 H   0  0  0  0  0  0  0  0  0  0  0  0
   -5.0815   -5.8004    0.0000 H   0  0  0  0  0  0  0  0  0  0  0  0
   -6.8923   -5.1372    0.0000 H   0  0  0  0  0  0  0  0  0  0  0  0
   -4.1140   -4.1323    0.0000 C   0  0  0  0  0  0  0  0  0  0  0  0
   -3.5990   -2.7318    0.0000 C   0  0  0  0  0  0  0  0  0  0  0  0
   -4.5610   -1.5810    0.0000 H   0  0  0  0  0  0  0  0  0  0  0  0
   -2.1217   -2.4718    0.0000 C   0  0  0  0  0  0  0  0  0  0  0  0
   -1.6103   -1.0616    0.0000 H   0  0  0  0  0  0  0  0  0  0  0  0
   -1.1594   -3.6123    0.0000 C   0  0  0  0  0  0  0  0  0  0  0  0
    0.3174   -3.3498    0.0000 H   0  0  0  0  0  0  0  0  0  0  0  0
   -1.6727   -5.0226    0.0000 C   0  0  0  0  0  0  0  0  0  0  0  0
   -3.1500   -5.2826    0.0000 C   0  0  0  0  0  0  0  0  0  0  0  0
   -3.6637   -6.6919    0.0000 H   0  0  0  0  0  0  0  0  0  0  0  0
   -0.7087   -6.1718    0.0000 C   0  0  0  0  0  0  0  0  0  0  0  0
   -0.1959   -7.5814    0.0000 H   0  0  0  0  0  0  0  0  0  0  0  0
   -2.0079   -6.9216    0.0000 H   0  0  0  0  0  0  0  0  0  0  0  0
    0.7685   -5.9116    0.0000 N   0  0  0  0  0  0  0  0  0  0  0  0
    1.7325   -7.0608    0.0000 H   0  0  0  0  0  0  0  0  0  0  0  0
    1.2818   -4.5021    0.0000 C   0  0  0  0  0  0  0  0  0  0  0  0
    1.2820   -3.0021    0.0000 H   0  0  0  0  0  0  0  0  0  0  0  0
   -0.1954   -4.2414    0.0000 H   0  0  0  0  0  0  0  0  0  0  0  0
    2.7590   -4.2419    0.0000 C   0  0  0  0  0  0  0  0  0  0  0  0
    2.2462   -2.8323    0.0000 H   0  0  0  0  0  0  0  0  0  0  0  0
    4.0582   -3.4921    0.0000 H   0  0  0  0  0  0  0  0  0  0  0  0
    3.7230   -5.3911    0.0000 N   0  0  0  0  0  0  0  0  0  0  0  0
    3.2098   -6.8006    0.0000 C   0  0  0  0  0  0  0  0  0  0  0  0
    1.9108   -6.0504    0.0000 H   0  0  0  0  0  0  0  0  0  0  0  0
    2.2454   -7.9495    0.0000 H   0  0  0  0  0  0  0  0  0  0  0  0
    4.1738   -7.9498    0.0000 C   0  0  0  0  0  0  0  0  0  0  0  0
    3.6605   -9.3592    0.0000 H   0  0  0  0  0  0  0  0  0  0  0  0
    6.1237   -7.6063    0.0000 O   0  0  0  0  0  0  0  0  0  0  0  0
    6.6184   -4.8810    0.0000 C   0  0  0  0  0  0  0  0  0  0  0  0
    8.0957   -4.6208    0.0000 H   0  0  0  0  0  0  0  0  0  0  0  0
    6.6188   -2.4210    0.0000 C   0  0  0  0  0  0  0  0  0  0  0  0
    7.9189   -1.6713    0.0000 C   0  0  0  0  0  0  0  0  0  0  0  0
    9.2177   -2.4217    0.0000 H   0  0  0  0  0  0  0  0  0  0  0  0
    7.9192   -0.1713    0.0000 C   0  0  0  0  0  0  0  0  0  0  0  0
    9.2182    0.5787    0.0000 H   0  0  0  0  0  0  0  0  0  0  0  0
    6.6193    0.5790    0.0000 C   0  0  0  0  0  0  0  0  0  0  0  0
    6.6195    2.0790    0.0000 H   0  0  0  0  0  0  0  0  0  0  0  0
    5.3192   -0.1708    0.0000 C   0  0  0  0  0  0  0  0  0  0  0  0
    4.0204    0.5796    0.0000 H   0  0  0  0  0  0  0  0  0  0  0  0
    5.3189   -1.6708    0.0000 C   0  0  0  0  0  0  0  0  0  0  0  0
    4.0199   -2.4208    0.0000 H   0  0  0  0  0  0  0  0  0  0  0  0
    7.6235   -7.6439    0.0000 C   0  0  0  0  0  0  0  0  0  0  0  0
    9.0841   -7.9038    0.0000 C   0  0  0  0  0  0  0  0  0  0  0  0
   10.0464   -6.7531    0.0000 H   0  0  0  0  0  0  0  0  0  0  0  0
    9.6040   -9.3108    0.0000 C   0  0  0  0  0  0  0  0  0  0  0  0
   11.0840   -9.5551    0.0000 H   0  0  0  0  0  0  0  0  0  0  0  0
    8.6667  -10.4673    0.0000 C   0  0  0  0  0  0  0  0  0  0  0  0
    7.1745  -10.2085    0.0000 C   0  0  0  0  0  0  0  0  0  0  0  0
    6.2147  -11.3612    0.0000 H   0  0  0  0  0  0  0  0  0  0  0  0
    6.6547   -8.8014    0.0000 C   0  0  0  0  0  0  0  0  0  0  0  0
    5.1767   -8.5455    0.0000 H   0  0  0  0  0  0  0  0  0  0  0  0
    9.1937  -11.8717    0.0000 Cl  0  0  0  0  0  0  0  0  0  0  0  0
  1  2  1  0  0  0  0 
  1  3  1  0  0  0  0 
  1  4  1  0  0  0  0 
  1  5  1  0  0  0  0 
  5  6  2  0  0  0  0 
  6  7  1  0  0  0  0 
  6  8  1  0  0  0  0 
  8  9  1  0  0  0  0 
  8 10  2  0  0  0  0 
 10 11  1  0  0  0  0 
 10 12  1  0  0  0  0 
 12 13  2  0  0  0  0 
  5 13  1  0  0  0  0 
 13 14  1  0  0  0  0 
 12 15  1  0  0  0  0 
 15 16  1  0  0  0  0 
 15 17  1  0  0  0  0 
 15 18  1  0  0  0  0 
 18 19  1  0  0  0  0 
 18 20  1  0  0  0  0 
 20 21  1  0  0  0  0 
 20 22  1  0  0  0  0 
 20 23  1  0  0  0  0 
 23 24  1  0  0  0  0 
 23 25  1  0  0  0  0 
 23 26  1  0  0  0  0 
 26 27  1  0  0  0  0 
 27 28  1  0  0  0  0 
 27 29  1  0  0  0  0 
 27 30  1  0  0  0  0 
 30 31  1  0  0  0  0 
 30 32  2  0  0  0  0 
 26 33  1  0  0  0  0 
 33 34  1  0  0  0  0 
 33 35  1  0  0  0  0 
 35 36  2  0  0  0  0 
 36 37  1  0  0  0  0 
 36 38  1  0  0  0  0 
 38 39  1  0  0  0  0 
 38 40  2  0  0  0  0 
 40 41  1  0  0  0  0 
 40 42  1  0  0  0  0 
 42 43  1  0  0  0  0 
 42 44  2  0  0  0  0 
 35 44  1  0  0  0  0 
 44 45  1  0  0  0  0 
 33 46  1  0  0  0  0 
 46 47  2  0  0  0  0 
 47 48  1  0  0  0  0 
 47 49  1  0  0  0  0 
 49 50  1  0  0  0  0 
 49 51  2  0  0  0  0 
 51 52  1  0  0  0  0 
 52 53  1  0  0  0  0 
 52 54  2  0  0  0  0 
 46 54  1  0  0  0  0 
 54 55  1  0  0  0  0 
 51 56  1  0  0  0  0 
M  END
> <Rank>
26

> <Priority_score>
0.176

> <Reaction_type>
N-dealkylation

> <Parent_ID>
64

> <Parent_InChI>
InChI=1S/C25H27ClN2/c1-20-6-5-7-21(18-20)19-27-14-16-28(17-15-27)25(22-8-3-2-4-9-22)23-10-12-24(26)13-11-23/h2-13,18,25H,14-17,19H2,1H3

> <Parent_SMILES>
Cc1cccc(CN2CCN(C(c3ccccc3)c3ccc(Cl)cc3)CC2)c1

$$$$
Molecule 64_metabolite 27
  CDK     0516241031

 54 57  0  0  0  0  0  0  0  0999 V2000
    4.0829    1.8571    0.0000 C   0  0  0  0  0  0  0  0  0  0  0  0
    5.3832    2.6049    0.0000 H   0  0  0  0  0  0  0  0  0  0  0  0
    2.6053    1.5991    0.0000 H   0  0  0  0  0  0  0  0  0  0  0  0
    3.5723    3.2675    0.0000 H   0  0  0  0  0  0  0  0  0  0  0  0
    4.0804    0.3571    0.0000 C   0  0  0  0  0  0  0  0  0  0  0  0
    5.3704   -0.3929    0.0000 C   0  0  0  0  0  0  0  0  0  0  0  0
    6.6706    0.3552    0.0000 H   0  0  0  0  0  0  0  0  0  0  0  0
    5.3704   -1.8929    0.0000 C   0  0  0  0  0  0  0  0  0  0  0  0
    6.6706   -2.6409    0.0000 H   0  0  0  0  0  0  0  0  0  0  0  0
    4.0804   -2.6429    0.0000 C   0  0  0  0  0  0  0  0  0  0  0  0
    4.0829   -4.1429    0.0000 H   0  0  0  0  0  0  0  0  0  0  0  0
    2.7804   -1.8929    0.0000 C   0  0  0  0  0  0  0  0  0  0  0  0
    2.7804   -0.3929    0.0000 C   0  0  0  0  0  0  0  0  0  0  0  0
    1.4815    0.3573    0.0000 H   0  0  0  0  0  0  0  0  0  0  0  0
    1.4815   -2.6431    0.0000 C   0  0  0  0  0  0  0  0  0  0  0  0
    1.4818   -4.1431    0.0000 H   0  0  0  0  0  0  0  0  0  0  0  0
    0.1824   -1.8933    0.0000 N   0  0  0  0  0  0  0  0  0  0  0  0
   -1.1174   -2.6437    0.0000 C   0  0  0  0  0  0  0  0  0  0  0  0
   -0.1530   -3.7926    0.0000 H   0  0  0  0  0  0  0  0  0  0  0  0
   -2.0811   -3.7932    0.0000 H   0  0  0  0  0  0  0  0  0  0  0  0
   -2.4176   -1.8941    0.0000 C   0  0  0  0  0  0  0  0  0  0  0  0
   -2.9299   -3.3039    0.0000 H   0  0  0  0  0  0  0  0  0  0  0  0
   -3.7170   -1.1447    0.0000 H   0  0  0  0  0  0  0  0  0  0  0  0
   -2.4181   -0.3941    0.0000 N   0  0  0  0  0  0  0  0  0  0  0  0
   -1.1184    0.3563    0.0000 C   0  0  0  0  0  0  0  0  0  0  0  0
   -2.0828    1.5051    0.0000 H   0  0  0  0  0  0  0  0  0  0  0  0
   -0.1547    1.5058    0.0000 H   0  0  0  0  0  0  0  0  0  0  0  0
    0.1819   -0.3933    0.0000 C   0  0  0  0  0  0  0  0  0  0  0  0
    0.6942    1.0165    0.0000 H   0  0  0  0  0  0  0  0  0  0  0  0
    1.6592   -0.6531    0.0000 H   0  0  0  0  0  0  0  0  0  0  0  0
   -4.5487    0.8355    0.0000 C   0  0  0  0  0  0  0  0  0  0  0  0
   -6.0260    1.0958    0.0000 H   0  0  0  0  0  0  0  0  0  0  0  0
   -4.5490    2.3355    0.0000 C   0  0  0  0  0  0  0  0  0  0  0  0
   -5.8491    3.0853    0.0000 C   0  0  0  0  0  0  0  0  0  0  0  0
   -7.1479    2.3349    0.0000 H   0  0  0  0  0  0  0  0  0  0  0  0
   -5.8493    4.5853    0.0000 C   0  0  0  0  0  0  0  0  0  0  0  0
   -7.1484    5.3353    0.0000 H   0  0  0  0  0  0  0  0  0  0  0  0
   -4.5495    5.3355    0.0000 C   0  0  0  0  0  0  0  0  0  0  0  0
   -4.5497    6.8355    0.0000 H   0  0  0  0  0  0  0  0  0  0  0  0
   -3.2493    4.5857    0.0000 C   0  0  0  0  0  0  0  0  0  0  0  0
   -1.9505    5.3362    0.0000 H   0  0  0  0  0  0  0  0  0  0  0  0
   -3.2491    3.0857    0.0000 C   0  0  0  0  0  0  0  0  0  0  0  0
   -1.9501    2.3357    0.0000 H   0  0  0  0  0  0  0  0  0  0  0  0
   -5.5385   -0.8794    0.0000 C   0  0  0  0  0  0  0  0  0  0  0  0
   -7.0220   -0.8817    0.0000 C   0  0  0  0  0  0  0  0  0  0  0  0
   -7.7699    0.4186    0.0000 H   0  0  0  0  0  0  0  0  0  0  0  0
   -7.7783   -2.1770    0.0000 C   0  0  0  0  0  0  0  0  0  0  0  0
   -9.2782   -2.1606    0.0000 H   0  0  0  0  0  0  0  0  0  0  0  0
   -7.0561   -3.4787    0.0000 C   0  0  0  0  0  0  0  0  0  0  0  0
   -5.5416   -3.4829    0.0000 C   0  0  0  0  0  0  0  0  0  0  0  0
   -4.7966   -4.7848    0.0000 H   0  0  0  0  0  0  0  0  0  0  0  0
   -4.7853   -2.1876    0.0000 C   0  0  0  0  0  0  0  0  0  0  0  0
   -3.2853   -2.1921    0.0000 H   0  0  0  0  0  0  0  0  0  0  0  0
   -7.8190   -4.7703    0.0000 Cl  0  0  0  0  0  0  0  0  0  0  0  0
  1  2  1  0  0  0  0 
  1  3  1  0  0  0  0 
  1  4  1  0  0  0  0 
  1  5  1  0  0  0  0 
  5  6  2  0  0  0  0 
  6  7  1  0  0  0  0 
  6  8  1  0  0  0  0 
  8  9  1  0  0  0  0 
  8 10  2  0  0  0  0 
 10 11  1  0  0  0  0 
 10 12  1  0  0  0  0 
 12 13  2  0  0  0  0 
  5 13  1  0  0  0  0 
 13 14  1  0  0  0  0 
 12 15  1  0  0  0  0 
 15 16  1  4  0  0  0 
 15 17  2  0  0  0  0 
 17 18  1  0  0  0  0 
 18 19  1  0  0  0  0 
 18 20  1  0  0  0  0 
 18 21  1  0  0  0  0 
 21 22  1  0  0  0  0 
 21 23  1  0  0  0  0 
 21 24  1  0  0  0  0 
 24 25  1  0  0  0  0 
 25 26  1  0  0  0  0 
 25 27  1  0  0  0  0 
 25 28  1  0  0  0  0 
 17 28  1  0  0  0  0 
 28 29  1  0  0  0  0 
 28 30  1  0  0  0  0 
 24 31  1  0  0  0  0 
 31 32  1  0  0  0  0 
 31 33  1  0  0  0  0 
 33 34  2  0  0  0  0 
 34 35  1  0  0  0  0 
 34 36  1  0  0  0  0 
 36 37  1  0  0  0  0 
 36 38  2  0  0  0  0 
 38 39  1  0  0  0  0 
 38 40  1  0  0  0  0 
 40 41  1  0  0  0  0 
 40 42  2  0  0  0  0 
 33 42  1  0  0  0  0 
 42 43  1  0  0  0  0 
 31 44  1  0  0  0  0 
 44 45  2  0  0  0  0 
 45 46  1  0  0  0  0 
 45 47  1  0  0  0  0 
 47 48  1  0  0  0  0 
 47 49  2  0  0  0  0 
 49 50  1  0  0  0  0 
 50 51  1  0  0  0  0 
 50 52  2  0  0  0  0 
 44 52  1  0  0  0  0 
 52 53  1  0  0  0  0 
 49 54  1  0  0  0  0 
M  CHG  1  17   1
M  END
> <Rank>
27

> <Priority_score>
0.08791152720889409

> <Reaction_type>
dehydration of N-C bond

> <Parent_ID>
64

> <Parent_InChI>
InChI=1S/C25H27ClN2/c1-20-6-5-7-21(18-20)19-27-14-16-28(17-15-27)25(22-8-3-2-4-9-22)23-10-12-24(26)13-11-23/h2-13,18,25H,14-17,19H2,1H3

> <Parent_SMILES>
Cc1cccc(CN2CCN(C(c3ccccc3)c3ccc(Cl)cc3)CC2)c1

$$$$
Molecule 64_metabolite 28
  CDK     0516241031

 56 59  0  0  0  0  0  0  0  0999 V2000
   -4.1551   -7.3379    0.0000 C   0  0  0  0  0  0  0  0  0  0  0  0
   -4.1576   -8.8379    0.0000 H   0  0  0  0  0  0  0  0  0  0  0  0
   -3.6397   -5.9292    0.0000 H   0  0  0  0  0  0  0  0  0  0  0  0
   -2.6783   -7.6008    0.0000 H   0  0  0  0  0  0  0  0  0  0  0  0
   -5.4529   -6.5857    0.0000 C   0  0  0  0  0  0  0  0  0  0  0  0
   -6.7474   -7.3279    0.0000 C   0  0  0  0  0  0  0  0  0  0  0  0
   -6.7497   -8.8279    0.0000 H   0  0  0  0  0  0  0  0  0  0  0  0
   -8.0464   -6.5779    0.0000 C   0  0  0  0  0  0  0  0  0  0  0  0
   -9.3443   -7.3298    0.0000 H   0  0  0  0  0  0  0  0  0  0  0  0
   -8.0509   -5.0857    0.0000 C   0  0  0  0  0  0  0  0  0  0  0  0
   -9.3512   -4.3379    0.0000 H   0  0  0  0  0  0  0  0  0  0  0  0
   -6.7514   -4.3349    0.0000 C   0  0  0  0  0  0  0  0  0  0  0  0
   -5.4524   -5.0849    0.0000 C   0  0  0  0  0  0  0  0  0  0  0  0
   -4.1532   -4.3351    0.0000 H   0  0  0  0  0  0  0  0  0  0  0  0
   -6.7517   -2.8349    0.0000 C   0  0  0  0  0  0  0  0  0  0  0  0
   -8.2288   -3.0956    0.0000 H   0  0  0  0  0  0  0  0  0  0  0  0
   -7.2649   -1.4254    0.0000 H   0  0  0  0  0  0  0  0  0  0  0  0
   -5.0371   -1.8446    0.0000 N   0  0  0  0  0  0  0  0  0  0  0  0
   -5.0371   -0.3438    0.0000 C   0  0  0  0  0  0  0  0  0  0  0  0
   -6.5142   -0.6045    0.0000 H   0  0  0  0  0  0  0  0  0  0  0  0
   -5.5507    1.0656    0.0000 H   0  0  0  0  0  0  0  0  0  0  0  0
   -3.7378    0.4075    0.0000 C   0  0  0  0  0  0  0  0  0  0  0  0
   -4.7026    1.5560    0.0000 H   0  0  0  0  0  0  0  0  0  0  0  0
   -2.4391    1.1581    0.0000 H   0  0  0  0  0  0  0  0  0  0  0  0
   -2.4385   -0.3421    0.0000 N   0  0  0  0  0  0  0  0  0  0  0  0
   -2.4385   -1.8429    0.0000 C   0  0  0  0  0  0  0  0  0  0  0  0
   -0.9614   -1.5821    0.0000 H   0  0  0  0  0  0  0  0  0  0  0  0
   -1.9249   -3.2522    0.0000 H   0  0  0  0  0  0  0  0  0  0  0  0
   -3.7378   -2.5942    0.0000 C   0  0  0  0  0  0  0  0  0  0  0  0
   -2.7730   -3.7427    0.0000 H   0  0  0  0  0  0  0  0  0  0  0  0
   -4.7015   -3.7436    0.0000 H   0  0  0  0  0  0  0  0  0  0  0  0
   -0.3083    0.8883    0.0000 C   0  0  0  0  0  0  0  0  0  0  0  0
    0.6557    2.0375    0.0000 H   0  0  0  0  0  0  0  0  0  0  0  0
    0.9909    0.1385    0.0000 C   0  0  0  0  0  0  0  0  0  0  0  0
    2.2903    0.8895    0.0000 C   0  0  0  0  0  0  0  0  0  0  0  0
    2.2898    2.3895    0.0000 H   0  0  0  0  0  0  0  0  0  0  0  0
    3.5894    0.1397    0.0000 C   0  0  0  0  0  0  0  0  0  0  0  0
    4.8884    0.8897    0.0000 H   0  0  0  0  0  0  0  0  0  0  0  0
    3.5892   -1.3611    0.0000 C   0  0  0  0  0  0  0  0  0  0  0  0
    4.8883   -2.1109    0.0000 H   0  0  0  0  0  0  0  0  0  0  0  0
    2.2898   -2.1122    0.0000 C   0  0  0  0  0  0  0  0  0  0  0  0
    2.2903   -3.6122    0.0000 H   0  0  0  0  0  0  0  0  0  0  0  0
    0.9906   -1.3624    0.0000 C   0  0  0  0  0  0  0  0  0  0  0  0
   -0.3084   -2.1124    0.0000 H   0  0  0  0  0  0  0  0  0  0  0  0
   -1.2986    2.6028    0.0000 C   0  0  0  0  0  0  0  0  0  0  0  0
   -2.8185    2.6156    0.0000 C   0  0  0  0  0  0  0  0  0  0  0  0
   -3.5904    1.3295    0.0000 H   0  0  0  0  0  0  0  0  0  0  0  0
   -3.5670    3.9919    0.0000 C   0  0  0  0  0  0  0  0  0  0  0  0
   -5.0666    4.0240    0.0000 H   0  0  0  0  0  0  0  0  0  0  0  0
   -2.7962    5.2755    0.0000 C   0  0  0  0  0  0  0  0  0  0  0  0
   -1.2762    5.2627    0.0000 C   0  0  0  0  0  0  0  0  0  0  0  0
   -0.5271    3.9664    0.0000 C   0  0  0  0  0  0  0  0  0  0  0  0
    0.9729    3.9732    0.0000 H   0  0  0  0  0  0  0  0  0  0  0  0
   -0.5210    6.5588    0.0000 Cl  0  0  0  0  0  0  0  0  0  0  0  0
   -3.5295    6.5840    0.0000 O   0  0  0  0  0  0  0  0  0  0  0  0
   -2.7629    7.8734    0.0000 H   0  0  0  0  0  0  0  0  0  0  0  0
  1  2  1  0  0  0  0 
  1  3  1  0  0  0  0 
  1  4  1  0  0  0  0 
  1  5  1  0  0  0  0 
  5  6  2  0  0  0  0 
  6  7  1  0  0  0  0 
  6  8  1  0  0  0  0 
  8  9  1  0  0  0  0 
  8 10  2  0  0  0  0 
 10 11  1  0  0  0  0 
 10 12  1  0  0  0  0 
 12 13  2  0  0  0  0 
  5 13  1  0  0  0  0 
 13 14  1  0  0  0  0 
 12 15  1  0  0  0  0 
 15 16  1  0  0  0  0 
 15 17  1  0  0  0  0 
 15 18  1  0  0  0  0 
 18 19  1  0  0  0  0 
 19 20  1  0  0  0  0 
 19 21  1  0  0  0  0 
 19 22  1  0  0  0  0 
 22 23  1  0  0  0  0 
 22 24  1  0  0  0  0 
 22 25  1  0  0  0  0 
 25 26  1  0  0  0  0 
 26 27  1  0  0  0  0 
 26 28  1  0  0  0  0 
 26 29  1  0  0  0  0 
 18 29  1  0  0  0  0 
 29 30  1  0  0  0  0 
 29 31  1  0  0  0  0 
 25 32  1  0  0  0  0 
 32 33  1  0  0  0  0 
 32 34  1  0  0  0  0 
 34 35  2  0  0  0  0 
 35 36  1  0  0  0  0 
 35 37  1  0  0  0  0 
 37 38  1  0  0  0  0 
 37 39  2  0  0  0  0 
 39 40  1  0  0  0  0 
 39 41  1  0  0  0  0 
 41 42  1  0  0  0  0 
 41 43  2  0  0  0  0 
 34 43  1  0  0  0  0 
 43 44  1  0  0  0  0 
 32 45  1  0  0  0  0 
 45 46  2  0  0  0  0 
 46 47  1  0  0  0  0 
 46 48  1  0  0  0  0 
 48 49  1  0  0  0  0 
 48 50  2  0  0  0  0 
 50 51  1  0  0  0  0 
 51 52  2  0  0  0  0 
 45 52  1  0  0  0  0 
 52 53  1  0  0  0  0 
 51 54  1  0  0  0  0 
 50 55  1  0  0  0  0 
 55 56  1  0  0  0  0 
M  END
> <Rank>
28

> <Priority_score>
0.06

> <Reaction_type>
aromatic hydroxylation with nih shift

> <Parent_ID>
64

> <Parent_InChI>
InChI=1S/C25H27ClN2/c1-20-6-5-7-21(18-20)19-27-14-16-28(17-15-27)25(22-8-3-2-4-9-22)23-10-12-24(26)13-11-23/h2-13,18,25H,14-17,19H2,1H3

> <Parent_SMILES>
Cc1cccc(CN2CCN(C(c3ccccc3)c3ccc(Cl)cc3)CC2)c1

$$$$
Molecule 64_metabolite 29
  CDK     0516241031

 54 57  0  0  0  0  0  0  0  0999 V2000
   -5.6242   -1.9909    0.0000 C   0  0  0  0  0  0  0  0  0  0  0  0
   -6.9248   -1.2435    0.0000 H   0  0  0  0  0  0  0  0  0  0  0  0
   -4.1465   -2.2484    0.0000 H   0  0  0  0  0  0  0  0  0  0  0  0
   -5.1140   -0.5803    0.0000 H   0  0  0  0  0  0  0  0  0  0  0  0
   -5.6212   -3.4909    0.0000 C   0  0  0  0  0  0  0  0  0  0  0  0
   -6.9110   -4.2413    0.0000 C   0  0  0  0  0  0  0  0  0  0  0  0
   -8.2114   -3.4937    0.0000 H   0  0  0  0  0  0  0  0  0  0  0  0
   -6.9105   -5.7413    0.0000 C   0  0  0  0  0  0  0  0  0  0  0  0
   -8.2104   -6.4897    0.0000 H   0  0  0  0  0  0  0  0  0  0  0  0
   -5.6203   -6.4909    0.0000 C   0  0  0  0  0  0  0  0  0  0  0  0
   -5.6223   -7.9909    0.0000 H   0  0  0  0  0  0  0  0  0  0  0  0
   -4.3205   -5.7404    0.0000 C   0  0  0  0  0  0  0  0  0  0  0  0
   -4.3210   -4.2404    0.0000 C   0  0  0  0  0  0  0  0  0  0  0  0
   -3.0223   -3.4898    0.0000 H   0  0  0  0  0  0  0  0  0  0  0  0
   -3.0214   -6.4902    0.0000 C   0  0  0  0  0  0  0  0  0  0  0  0
   -3.9853   -7.6395    0.0000 H   0  0  0  0  0  0  0  0  0  0  0  0
   -2.0570   -7.6391    0.0000 H   0  0  0  0  0  0  0  0  0  0  0  0
   -1.3068   -5.5000    0.0000 N   0  0  0  0  0  0  0  0  0  0  0  0
   -0.0068   -6.2500    0.0000 C   0  0  0  0  0  0  0  0  0  0  0  0
   -0.9708   -7.3991    0.0000 H   0  0  0  0  0  0  0  0  0  0  0  0
    0.9573   -7.3991    0.0000 H   0  0  0  0  0  0  0  0  0  0  0  0
    1.2932   -5.5000    0.0000 C   0  0  0  0  0  0  0  0  0  0  0  0
    1.8059   -6.9096    0.0000 H   0  0  0  0  0  0  0  0  0  0  0  0
    2.7705   -5.2396    0.0000 H   0  0  0  0  0  0  0  0  0  0  0  0
    1.2932   -4.0000    0.0000 N   0  0  0  0  0  0  0  0  0  0  0  0
    2.5921   -3.2497    0.0000 C   0  0  0  0  0  0  0  0  0  0  0  0
    4.7228   -4.4794    0.0000 C   0  0  0  0  0  0  0  0  0  0  0  0
    6.0222   -3.7284    0.0000 C   0  0  0  0  0  0  0  0  0  0  0  0
    6.0217   -2.2284    0.0000 H   0  0  0  0  0  0  0  0  0  0  0  0
    7.3213   -4.4782    0.0000 C   0  0  0  0  0  0  0  0  0  0  0  0
    8.6204   -3.7282    0.0000 H   0  0  0  0  0  0  0  0  0  0  0  0
    7.3211   -5.9790    0.0000 C   0  0  0  0  0  0  0  0  0  0  0  0
    8.6202   -6.7288    0.0000 H   0  0  0  0  0  0  0  0  0  0  0  0
    6.0217   -6.7300    0.0000 C   0  0  0  0  0  0  0  0  0  0  0  0
    6.0222   -8.2300    0.0000 H   0  0  0  0  0  0  0  0  0  0  0  0
    4.7225   -5.9802    0.0000 C   0  0  0  0  0  0  0  0  0  0  0  0
    3.4235   -6.7302    0.0000 H   0  0  0  0  0  0  0  0  0  0  0  0
    2.5918   -1.2697    0.0000 C   0  0  0  0  0  0  0  0  0  0  0  0
    3.8755   -0.5260    0.0000 C   0  0  0  0  0  0  0  0  0  0  0  0
    5.1732   -1.2781    0.0000 H   0  0  0  0  0  0  0  0  0  0  0  0
    3.8827    0.9740    0.0000 C   0  0  0  0  0  0  0  0  0  0  0  0
    5.1899    1.7097    0.0000 H   0  0  0  0  0  0  0  0  0  0  0  0
    2.6065    1.7402    0.0000 C   0  0  0  0  0  0  0  0  0  0  0  0
    1.2928    0.9866    0.0000 C   0  0  0  0  0  0  0  0  0  0  0  0
   -0.0034    1.7415    0.0000 H   0  0  0  0  0  0  0  0  0  0  0  0
    1.2855   -0.5134    0.0000 C   0  0  0  0  0  0  0  0  0  0  0  0
   -0.0158   -1.2594    0.0000 H   0  0  0  0  0  0  0  0  0  0  0  0
    2.6213    3.2401    0.0000 Cl  0  0  0  0  0  0  0  0  0  0  0  0
   -0.0068   -3.2500    0.0000 C   0  0  0  0  0  0  0  0  0  0  0  0
    0.9573   -2.1008    0.0000 H   0  0  0  0  0  0  0  0  0  0  0  0
   -0.9708   -2.1008    0.0000 H   0  0  0  0  0  0  0  0  0  0  0  0
   -1.3068   -4.0000    0.0000 C   0  0  0  0  0  0  0  0  0  0  0  0
   -1.8195   -2.5903    0.0000 H   0  0  0  0  0  0  0  0  0  0  0  0
   -2.7840   -4.2603    0.0000 H   0  0  0  0  0  0  0  0  0  0  0  0
  1  2  1  0  0  0  0 
  1  3  1  0  0  0  0 
  1  4  1  0  0  0  0 
  1  5  1  0  0  0  0 
  5  6  2  0  0  0  0 
  6  7  1  0  0  0  0 
  6  8  1  0  0  0  0 
  8  9  1  0  0  0  0 
  8 10  2  0  0  0  0 
 10 11  1  0  0  0  0 
 10 12  1  0  0  0  0 
 12 13  2  0  0  0  0 
  5 13  1  0  0  0  0 
 13 14  1  0  0  0  0 
 12 15  1  0  0  0  0 
 15 16  1  0  0  0  0 
 15 17  1  0  0  0  0 
 15 18  1  0  0  0  0 
 18 19  1  0  0  0  0 
 19 20  1  0  0  0  0 
 19 21  1  0  0  0  0 
 19 22  1  0  0  0  0 
 22 23  1  0  0  0  0 
 22 24  1  0  0  0  0 
 22 25  1  0  0  0  0 
 25 26  2  0  0  0  0 
 26 27  1  4  0  0  0 
 27 28  2  0  0  0  0 
 28 29  1  0  0  0  0 
 28 30  1  0  0  0  0 
 30 31  1  0  0  0  0 
 30 32  2  0  0  0  0 
 32 33  1  0  0  0  0 
 32 34  1  0  0  0  0 
 34 35  1  0  0  0  0 
 34 36  2  0  0  0  0 
 27 36  1  0  0  0  0 
 36 37  1  0  0  0  0 
 26 38  1  0  0  0  0 
 38 39  2  0  0  0  0 
 39 40  1  0  0  0  0 
 39 41  1  0  0  0  0 
 41 42  1  0  0  0  0 
 41 43  2  0  0  0  0 
 43 44  1  0  0  0  0 
 44 45  1  0  0  0  0 
 44 46  2  0  0  0  0 
 38 46  1  0  0  0  0 
 46 47  1  0  0  0  0 
 43 48  1  0  0  0  0 
 25 49  1  0  0  0  0 
 49 50  1  0  0  0  0 
 49 51  1  0  0  0  0 
 49 52  1  0  0  0  0 
 18 52  1  0  0  0  0 
 52 53  1  0  0  0  0 
 52 54  1  0  0  0  0 
M  CHG  1  25   1
M  END
> <Rank>
29

> <Priority_score>
0.04955317435738619

> <Reaction_type>
dehydration of N-C bond

> <Parent_ID>
64

> <Parent_InChI>
InChI=1S/C25H27ClN2/c1-20-6-5-7-21(18-20)19-27-14-16-28(17-15-27)25(22-8-3-2-4-9-22)23-10-12-24(26)13-11-23/h2-13,18,25H,14-17,19H2,1H3

> <Parent_SMILES>
Cc1cccc(CN2CCN(C(c3ccccc3)c3ccc(Cl)cc3)CC2)c1

$$$$
Molecule 64_metabolite 30
  CDK     0516241031

 54 57  0  0  0  0  0  0  0  0999 V2000
   -7.4618   -6.2403    0.0000 C   0  0  0  0  0  0  0  0  0  0  0  0
   -7.4588   -7.7403    0.0000 H   0  0  0  0  0  0  0  0  0  0  0  0
   -7.9776   -4.8318    0.0000 H   0  0  0  0  0  0  0  0  0  0  0  0
   -8.9385   -6.5037    0.0000 H   0  0  0  0  0  0  0  0  0  0  0  0
   -6.1642   -5.4877    0.0000 C   0  0  0  0  0  0  0  0  0  0  0  0
   -4.8695   -6.2294    0.0000 C   0  0  0  0  0  0  0  0  0  0  0  0
   -4.8667   -7.7294    0.0000 H   0  0  0  0  0  0  0  0  0  0  0  0
   -3.5707   -5.4790    0.0000 C   0  0  0  0  0  0  0  0  0  0  0  0
   -2.2725   -6.2306    0.0000 H   0  0  0  0  0  0  0  0  0  0  0  0
   -3.5666   -3.9869    0.0000 C   0  0  0  0  0  0  0  0  0  0  0  0
   -2.2666   -3.2386    0.0000 H   0  0  0  0  0  0  0  0  0  0  0  0
   -4.8664   -3.2364    0.0000 C   0  0  0  0  0  0  0  0  0  0  0  0
   -6.1652   -3.9869    0.0000 C   0  0  0  0  0  0  0  0  0  0  0  0
   -7.4646   -3.2375    0.0000 H   0  0  0  0  0  0  0  0  0  0  0  0
   -4.8666   -1.7364    0.0000 C   0  0  0  0  0  0  0  0  0  0  0  0
   -5.3799   -0.3270    0.0000 H   0  0  0  0  0  0  0  0  0  0  0  0
   -6.3438   -1.9971    0.0000 H   0  0  0  0  0  0  0  0  0  0  0  0
   -3.1521   -0.7462    0.0000 N   0  0  0  0  0  0  0  0  0  0  0  0
   -1.8521   -1.4962    0.0000 C   0  0  0  0  0  0  0  0  0  0  0  0
   -2.8161   -2.6453    0.0000 H   0  0  0  0  0  0  0  0  0  0  0  0
   -0.8880   -2.6453    0.0000 H   0  0  0  0  0  0  0  0  0  0  0  0
   -0.5521   -0.7462    0.0000 C   0  0  0  0  0  0  0  0  0  0  0  0
    0.7468   -1.4964    0.0000 H   0  0  0  0  0  0  0  0  0  0  0  0
   -0.5521    0.7538    0.0000 N   0  0  0  0  0  0  0  0  0  0  0  0
   -1.8521    1.5038    0.0000 C   0  0  0  0  0  0  0  0  0  0  0  0
   -0.8880    2.6530    0.0000 H   0  0  0  0  0  0  0  0  0  0  0  0
   -2.8161    2.6530    0.0000 H   0  0  0  0  0  0  0  0  0  0  0  0
   -3.1521    0.7538    0.0000 C   0  0  0  0  0  0  0  0  0  0  0  0
   -3.6648    2.1635    0.0000 H   0  0  0  0  0  0  0  0  0  0  0  0
   -4.6293    0.4935    0.0000 H   0  0  0  0  0  0  0  0  0  0  0  0
    0.7468    1.5040    0.0000 C   0  0  0  0  0  0  0  0  0  0  0  0
    1.2601    0.0946    0.0000 H   0  0  0  0  0  0  0  0  0  0  0  0
    0.7464    4.4440    0.0000 C   0  0  0  0  0  0  0  0  0  0  0  0
   -0.5538    5.1938    0.0000 C   0  0  0  0  0  0  0  0  0  0  0  0
   -1.8525    4.4434    0.0000 H   0  0  0  0  0  0  0  0  0  0  0  0
   -0.5540    6.6938    0.0000 C   0  0  0  0  0  0  0  0  0  0  0  0
   -1.8530    7.4438    0.0000 H   0  0  0  0  0  0  0  0  0  0  0  0
    0.7459    7.4440    0.0000 C   0  0  0  0  0  0  0  0  0  0  0  0
    0.7456    8.9440    0.0000 H   0  0  0  0  0  0  0  0  0  0  0  0
    2.0460    6.6943    0.0000 C   0  0  0  0  0  0  0  0  0  0  0  0
    3.3448    7.4447    0.0000 H   0  0  0  0  0  0  0  0  0  0  0  0
    2.0462    5.1943    0.0000 C   0  0  0  0  0  0  0  0  0  0  0  0
    3.3453    4.4443    0.0000 H   0  0  0  0  0  0  0  0  0  0  0  0
    2.2240    1.7648    0.0000 C   0  0  0  0  0  0  0  0  0  0  0  0
    3.1794    0.6298    0.0000 C   0  0  0  0  0  0  0  0  0  0  0  0
    2.6640   -0.7789    0.0000 H   0  0  0  0  0  0  0  0  0  0  0  0
    4.6578    0.8831    0.0000 C   0  0  0  0  0  0  0  0  0  0  0  0
    5.6094   -0.2765    0.0000 H   0  0  0  0  0  0  0  0  0  0  0  0
    5.1908    2.2730    0.0000 C   0  0  0  0  0  0  0  0  0  0  0  0
    4.2205    3.4359    0.0000 C   0  0  0  0  0  0  0  0  0  0  0  0
    4.7389    4.8434    0.0000 H   0  0  0  0  0  0  0  0  0  0  0  0
    2.7420    3.1826    0.0000 C   0  0  0  0  0  0  0  0  0  0  0  0
    1.7814    4.3346    0.0000 H   0  0  0  0  0  0  0  0  0  0  0  0
    6.6705    2.5188    0.0000 Cl  0  0  0  0  0  0  0  0  0  0  0  0
  1  2  1  0  0  0  0 
  1  3  1  0  0  0  0 
  1  4  1  0  0  0  0 
  1  5  1  0  0  0  0 
  5  6  2  0  0  0  0 
  6  7  1  0  0  0  0 
  6  8  1  0  0  0  0 
  8  9  1  0  0  0  0 
  8 10  2  0  0  0  0 
 10 11  1  0  0  0  0 
 10 12  1  0  0  0  0 
 12 13  2  0  0  0  0 
  5 13  1  0  0  0  0 
 13 14  1  0  0  0  0 
 12 15  1  0  0  0  0 
 15 16  1  0  0  0  0 
 15 17  1  0  0  0  0 
 15 18  1  0  0  0  0 
 18 19  1  0  0  0  0 
 19 20  1  0  0  0  0 
 19 21  1  0  0  0  0 
 19 22  1  0  0  0  0 
 22 23  1  0  0  0  0 
 22 24  2  0  0  0  0 
 24 25  1  0  0  0  0 
 25 26  1  0  0  0  0 
 25 27  1  0  0  0  0 
 25 28  1  0  0  0  0 
 18 28  1  0  0  0  0 
 28 29  1  0  0  0  0 
 28 30  1  0  0  0  0 
 24 31  1  0  0  0  0 
 31 32  1  0  0  0  0 
 31 33  1  0  0  0  0 
 33 34  2  0  0  0  0 
 34 35  1  0  0  0  0 
 34 36  1  0  0  0  0 
 36 37  1  0  0  0  0 
 36 38  2  0  0  0  0 
 38 39  1  0  0  0  0 
 38 40  1  0  0  0  0 
 40 41  1  0  0  0  0 
 40 42  2  0  0  0  0 
 33 42  1  0  0  0  0 
 42 43  1  0  0  0  0 
 31 44  1  0  0  0  0 
 44 45  2  0  0  0  0 
 45 46  1  0  0  0  0 
 45 47  1  0  0  0  0 
 47 48  1  0  0  0  0 
 47 49  2  0  0  0  0 
 49 50  1  0  0  0  0 
 50 51  1  0  0  0  0 
 50 52  2  0  0  0  0 
 44 52  1  0  0  0  0 
 52 53  1  0  0  0  0 
 49 54  1  0  0  0  0 
M  CHG  1  24   1
M  END
> <Rank>
30

> <Priority_score>
0.0432

> <Reaction_type>
dehydration of N-C bond

> <Parent_ID>
64

> <Parent_InChI>
InChI=1S/C25H27ClN2/c1-20-6-5-7-21(18-20)19-27-14-16-28(17-15-27)25(22-8-3-2-4-9-22)23-10-12-24(26)13-11-23/h2-13,18,25H,14-17,19H2,1H3

> <Parent_SMILES>
Cc1cccc(CN2CCN(C(c3ccccc3)c3ccc(Cl)cc3)CC2)c1

$$$$
Molecule 64_metabolite 31
  CDK     0516241031

 53 56  0  0  0  0  0  0  0  0999 V2000
    7.3471    4.1268    0.0000 C   0  0  0  0  0  0  0  0  0  0  0  0
    8.6449    3.3746    0.0000 H   0  0  0  0  0  0  0  0  0  0  0  0
    6.3849    5.2774    0.0000 H   0  0  0  0  0  0  0  0  0  0  0  0
    8.3132    5.2742    0.0000 H   0  0  0  0  0  0  0  0  0  0  0  0
    6.0468    3.3789    0.0000 C   0  0  0  0  0  0  0  0  0  0  0  0
    6.0423    1.8868    0.0000 C   0  0  0  0  0  0  0  0  0  0  0  0
    7.3402    1.1348    0.0000 H   0  0  0  0  0  0  0  0  0  0  0  0
    4.7433    1.1368    0.0000 C   0  0  0  0  0  0  0  0  0  0  0  0
    4.7456   -0.3632    0.0000 H   0  0  0  0  0  0  0  0  0  0  0  0
    3.4488    1.8789    0.0000 C   0  0  0  0  0  0  0  0  0  0  0  0
    2.1510    1.1268    0.0000 H   0  0  0  0  0  0  0  0  0  0  0  0
    3.4483    3.3798    0.0000 C   0  0  0  0  0  0  0  0  0  0  0  0
    4.7473    4.1298    0.0000 C   0  0  0  0  0  0  0  0  0  0  0  0
    4.7476    5.6298    0.0000 H   0  0  0  0  0  0  0  0  0  0  0  0
    2.1491    4.1296    0.0000 C   0  0  0  0  0  0  0  0  0  0  0  0
    1.1848    5.2785    0.0000 H   0  0  0  0  0  0  0  0  0  0  0  0
    3.1131    5.2788    0.0000 H   0  0  0  0  0  0  0  0  0  0  0  0
    0.8502    3.3793    0.0000 N   0  0  0  0  0  0  0  0  0  0  0  0
   -0.4498    4.1293    0.0000 C   0  0  0  0  0  0  0  0  0  0  0  0
   -0.4498    5.6293    0.0000 H   0  0  0  0  0  0  0  0  0  0  0  0
   -1.7498    3.3793    0.0000 C   0  0  0  0  0  0  0  0  0  0  0  0
   -3.0487    4.1296    0.0000 H   0  0  0  0  0  0  0  0  0  0  0  0
   -1.7498    1.8793    0.0000 N   0  0  0  0  0  0  0  0  0  0  0  0
   -0.4498    1.1293    0.0000 C   0  0  0  0  0  0  0  0  0  0  0  0
   -1.4138   -0.0198    0.0000 H   0  0  0  0  0  0  0  0  0  0  0  0
    0.5143   -0.0198    0.0000 H   0  0  0  0  0  0  0  0  0  0  0  0
    0.8502    1.8793    0.0000 C   0  0  0  0  0  0  0  0  0  0  0  0
    1.3629    0.4697    0.0000 H   0  0  0  0  0  0  0  0  0  0  0  0
    2.3275    2.1397    0.0000 H   0  0  0  0  0  0  0  0  0  0  0  0
   -3.0487    1.1291    0.0000 C   0  0  0  0  0  0  0  0  0  0  0  0
   -3.5620    2.5386    0.0000 H   0  0  0  0  0  0  0  0  0  0  0  0
   -3.0482   -1.8109    0.0000 C   0  0  0  0  0  0  0  0  0  0  0  0
   -1.7481   -2.5607    0.0000 C   0  0  0  0  0  0  0  0  0  0  0  0
   -0.4493   -1.8102    0.0000 H   0  0  0  0  0  0  0  0  0  0  0  0
   -1.7479   -4.0607    0.0000 C   0  0  0  0  0  0  0  0  0  0  0  0
   -0.4488   -4.8107    0.0000 H   0  0  0  0  0  0  0  0  0  0  0  0
   -3.0478   -4.8109    0.0000 C   0  0  0  0  0  0  0  0  0  0  0  0
   -3.0475   -6.3109    0.0000 H   0  0  0  0  0  0  0  0  0  0  0  0
   -4.3479   -4.0611    0.0000 C   0  0  0  0  0  0  0  0  0  0  0  0
   -5.6467   -4.8115    0.0000 H   0  0  0  0  0  0  0  0  0  0  0  0
   -4.3481   -2.5611    0.0000 C   0  0  0  0  0  0  0  0  0  0  0  0
   -5.6471   -1.8111    0.0000 H   0  0  0  0  0  0  0  0  0  0  0  0
   -4.9986    0.7850    0.0000 C   0  0  0  0  0  0  0  0  0  0  0  0
   -5.9539    1.9200    0.0000 C   0  0  0  0  0  0  0  0  0  0  0  0
   -5.4386    3.3287    0.0000 H   0  0  0  0  0  0  0  0  0  0  0  0
   -7.4324    1.6667    0.0000 C   0  0  0  0  0  0  0  0  0  0  0  0
   -8.3839    2.8263    0.0000 H   0  0  0  0  0  0  0  0  0  0  0  0
   -7.9653    0.2767    0.0000 C   0  0  0  0  0  0  0  0  0  0  0  0
   -6.9951   -0.8861    0.0000 C   0  0  0  0  0  0  0  0  0  0  0  0
   -7.5135   -2.2937    0.0000 H   0  0  0  0  0  0  0  0  0  0  0  0
   -5.5166   -0.6328    0.0000 C   0  0  0  0  0  0  0  0  0  0  0  0
   -3.6337   -2.8907    0.0000 H   0  0  0  0  0  0  0  0  0  0  0  0
   -9.4451    0.0309    0.0000 Cl  0  0  0  0  0  0  0  0  0  0  0  0
  1  2  1  0  0  0  0 
  1  3  1  0  0  0  0 
  1  4  1  0  0  0  0 
  1  5  1  0  0  0  0 
  5  6  2  0  0  0  0 
  6  7  1  0  0  0  0 
  6  8  1  0  0  0  0 
  8  9  1  0  0  0  0 
  8 10  2  0  0  0  0 
 10 11  1  0  0  0  0 
 10 12  1  0  0  0  0 
 12 13  2  0  0  0  0 
  5 13  1  0  0  0  0 
 13 14  1  0  0  0  0 
 12 15  1  0  0  0  0 
 15 16  1  0  0  0  0 
 15 17  1  0  0  0  0 
 15 18  1  0  0  0  0 
 18 19  1  0  0  0  0 
 19 20  1  0  0  0  0 
 19 21  2  0  0  0  0 
 21 22  1  0  0  0  0 
 21 23  1  0  0  0  0 
 23 24  1  0  0  0  0 
 24 25  1  0  0  0  0 
 24 26  1  0  0  0  0 
 24 27  1  0  0  0  0 
 18 27  1  0  0  0  0 
 27 28  1  0  0  0  0 
 27 29  1  0  0  0  0 
 23 30  1  0  0  0  0 
 30 31  1  0  0  0  0 
 30 32  1  0  0  0  0 
 32 33  2  0  0  0  0 
 33 34  1  0  0  0  0 
 33 35  1  0  0  0  0 
 35 36  1  0  0  0  0 
 35 37  2  0  0  0  0 
 37 38  1  0  0  0  0 
 37 39  1  0  0  0  0 
 39 40  1  0  0  0  0 
 39 41  2  0  0  0  0 
 32 41  1  0  0  0  0 
 41 42  1  0  0  0  0 
 30 43  1  0  0  0  0 
 43 44  2  0  0  0  0 
 44 45  1  0  0  0  0 
 44 46  1  0  0  0  0 
 46 47  1  0  0  0  0 
 46 48  2  0  0  0  0 
 48 49  1  0  0  0  0 
 49 50  1  0  0  0  0 
 49 51  2  0  0  0  0 
 43 51  1  0  0  0  0 
 51 52  1  0  0  0  0 
 48 53  1  0  0  0  0 
M  END
> <Rank>
31

> <Priority_score>
0.036

> <Reaction_type>
alkyl dehydrogenation

> <Parent_ID>
64

> <Parent_InChI>
InChI=1S/C25H27ClN2/c1-20-6-5-7-21(18-20)19-27-14-16-28(17-15-27)25(22-8-3-2-4-9-22)23-10-12-24(26)13-11-23/h2-13,18,25H,14-17,19H2,1H3

> <Parent_SMILES>
Cc1cccc(CN2CCN(C(c3ccccc3)c3ccc(Cl)cc3)CC2)c1

$$$$
Molecule 64_metabolite 32
  CDK     0516241031

 54 57  0  0  0  0  0  0  0  0999 V2000
    7.7967    2.9374    0.0000 C   0  0  0  0  0  0  0  0  0  0  0  0
    9.0945    2.1852    0.0000 H   0  0  0  0  0  0  0  0  0  0  0  0
    6.8344    4.0881    0.0000 H   0  0  0  0  0  0  0  0  0  0  0  0
    8.7628    4.0849    0.0000 H   0  0  0  0  0  0  0  0  0  0  0  0
    6.4964    2.1896    0.0000 C   0  0  0  0  0  0  0  0  0  0  0  0
    6.4919    0.6974    0.0000 C   0  0  0  0  0  0  0  0  0  0  0  0
    7.7898   -0.0546    0.0000 H   0  0  0  0  0  0  0  0  0  0  0  0
    5.1928   -0.0526    0.0000 C   0  0  0  0  0  0  0  0  0  0  0  0
    5.1951   -1.5526    0.0000 H   0  0  0  0  0  0  0  0  0  0  0  0
    3.8983    0.6896    0.0000 C   0  0  0  0  0  0  0  0  0  0  0  0
    2.6005   -0.0626    0.0000 H   0  0  0  0  0  0  0  0  0  0  0  0
    3.8978    2.1904    0.0000 C   0  0  0  0  0  0  0  0  0  0  0  0
    5.1969    2.9404    0.0000 C   0  0  0  0  0  0  0  0  0  0  0  0
    5.1971    4.4404    0.0000 H   0  0  0  0  0  0  0  0  0  0  0  0
    2.5987    2.9402    0.0000 C   0  0  0  0  0  0  0  0  0  0  0  0
    1.6343    4.0891    0.0000 H   0  0  0  0  0  0  0  0  0  0  0  0
    3.5627    4.0894    0.0000 H   0  0  0  0  0  0  0  0  0  0  0  0
    1.2998    2.1900    0.0000 N   0  0  0  0  0  0  0  0  0  0  0  0
   -0.0002    2.9400    0.0000 C   0  0  0  0  0  0  0  0  0  0  0  0
   -0.0002    4.4400    0.0000 H   0  0  0  0  0  0  0  0  0  0  0  0
   -1.3002    2.1900    0.0000 C   0  0  0  0  0  0  0  0  0  0  0  0
   -1.8130    3.5996    0.0000 H   0  0  0  0  0  0  0  0  0  0  0  0
   -2.7775    1.9297    0.0000 H   0  0  0  0  0  0  0  0  0  0  0  0
   -1.3002    0.6900    0.0000 N   0  0  0  0  0  0  0  0  0  0  0  0
   -0.0002   -0.0600    0.0000 C   0  0  0  0  0  0  0  0  0  0  0  0
   -0.9643   -1.2092    0.0000 H   0  0  0  0  0  0  0  0  0  0  0  0
    0.9638   -1.2092    0.0000 H   0  0  0  0  0  0  0  0  0  0  0  0
    1.2998    0.6900    0.0000 C   0  0  0  0  0  0  0  0  0  0  0  0
    1.8125   -0.7196    0.0000 H   0  0  0  0  0  0  0  0  0  0  0  0
    2.7770    0.9503    0.0000 H   0  0  0  0  0  0  0  0  0  0  0  0
   -3.0148   -0.3003    0.0000 C   0  0  0  0  0  0  0  0  0  0  0  0
   -3.5281    1.1092    0.0000 H   0  0  0  0  0  0  0  0  0  0  0  0
   -3.0143   -3.2403    0.0000 C   0  0  0  0  0  0  0  0  0  0  0  0
   -1.7142   -3.9901    0.0000 C   0  0  0  0  0  0  0  0  0  0  0  0
   -0.4154   -3.2397    0.0000 H   0  0  0  0  0  0  0  0  0  0  0  0
   -1.7140   -5.4901    0.0000 C   0  0  0  0  0  0  0  0  0  0  0  0
   -0.4149   -6.2401    0.0000 H   0  0  0  0  0  0  0  0  0  0  0  0
   -3.0139   -6.2403    0.0000 C   0  0  0  0  0  0  0  0  0  0  0  0
   -3.0136   -7.7403    0.0000 H   0  0  0  0  0  0  0  0  0  0  0  0
   -4.3140   -5.4905    0.0000 C   0  0  0  0  0  0  0  0  0  0  0  0
   -5.6128   -6.2409    0.0000 H   0  0  0  0  0  0  0  0  0  0  0  0
   -4.3142   -3.9905    0.0000 C   0  0  0  0  0  0  0  0  0  0  0  0
   -5.6132   -3.2405    0.0000 H   0  0  0  0  0  0  0  0  0  0  0  0
   -4.4920   -0.5610    0.0000 C   0  0  0  0  0  0  0  0  0  0  0  0
   -5.4473    0.5740    0.0000 C   0  0  0  0  0  0  0  0  0  0  0  0
   -4.9320    1.9827    0.0000 H   0  0  0  0  0  0  0  0  0  0  0  0
   -6.9258    0.3207    0.0000 C   0  0  0  0  0  0  0  0  0  0  0  0
   -7.8773    1.4803    0.0000 H   0  0  0  0  0  0  0  0  0  0  0  0
   -7.4588   -1.0692    0.0000 C   0  0  0  0  0  0  0  0  0  0  0  0
   -6.4885   -2.2321    0.0000 C   0  0  0  0  0  0  0  0  0  0  0  0
   -7.0069   -3.6397    0.0000 H   0  0  0  0  0  0  0  0  0  0  0  0
   -5.0100   -1.9788    0.0000 C   0  0  0  0  0  0  0  0  0  0  0  0
   -4.0493   -3.1308    0.0000 H   0  0  0  0  0  0  0  0  0  0  0  0
   -8.9385   -1.3150    0.0000 Cl  0  0  0  0  0  0  0  0  0  0  0  0
  1  2  1  0  0  0  0 
  1  3  1  0  0  0  0 
  1  4  1  0  0  0  0 
  1  5  1  0  0  0  0 
  5  6  2  0  0  0  0 
  6  7  1  0  0  0  0 
  6  8  1  0  0  0  0 
  8  9  1  0  0  0  0 
  8 10  2  0  0  0  0 
 10 11  1  0  0  0  0 
 10 12  1  0  0  0  0 
 12 13  2  0  0  0  0 
  5 13  1  0  0  0  0 
 13 14  1  0  0  0  0 
 12 15  1  0  0  0  0 
 15 16  1  0  0  0  0 
 15 17  1  0  0  0  0 
 15 18  1  0  0  0  0 
 18 19  2  0  0  0  0 
 19 20  1  0  0  0  0 
 19 21  1  0  0  0  0 
 21 22  1  0  0  0  0 
 21 23  1  0  0  0  0 
 21 24  1  0  0  0  0 
 24 25  1  0  0  0  0 
 25 26  1  0  0  0  0 
 25 27  1  0  0  0  0 
 25 28  1  0  0  0  0 
 18 28  1  0  0  0  0 
 28 29  1  0  0  0  0 
 28 30  1  0  0  0  0 
 24 31  1  0  0  0  0 
 31 32  1  0  0  0  0 
 31 33  1  0  0  0  0 
 33 34  2  0  0  0  0 
 34 35  1  0  0  0  0 
 34 36  1  0  0  0  0 
 36 37  1  0  0  0  0 
 36 38  2  0  0  0  0 
 38 39  1  0  0  0  0 
 38 40  1  0  0  0  0 
 40 41  1  0  0  0  0 
 40 42  2  0  0  0  0 
 33 42  1  0  0  0  0 
 42 43  1  0  0  0  0 
 31 44  1  0  0  0  0 
 44 45  2  0  0  0  0 
 45 46  1  0  0  0  0 
 45 47  1  0  0  0  0 
 47 48  1  0  0  0  0 
 47 49  2  0  0  0  0 
 49 50  1  0  0  0  0 
 50 51  1  0  0  0  0 
 50 52  2  0  0  0  0 
 44 52  1  0  0  0  0 
 52 53  1  0  0  0  0 
 49 54  1  0  0  0  0 
M  CHG  1  18   1
M  END
> <Rank>
32

> <Priority_score>
0.0352

> <Reaction_type>
dehydration of N-C bond

> <Parent_ID>
64

> <Parent_InChI>
InChI=1S/C25H27ClN2/c1-20-6-5-7-21(18-20)19-27-14-16-28(17-15-27)25(22-8-3-2-4-9-22)23-10-12-24(26)13-11-23/h2-13,18,25H,14-17,19H2,1H3

> <Parent_SMILES>
Cc1cccc(CN2CCN(C(c3ccccc3)c3ccc(Cl)cc3)CC2)c1

$$$$
Molecule 64_metabolite 33
  CDK     0516241031

 90 93  0  0  0  0  0  0  0  0999 V2000
   10.3470   -0.9177    0.0000 C   0  0  0  0  0  0  0  0  0  0  0  0
   11.6473   -0.1699    0.0000 H   0  0  0  0  0  0  0  0  0  0  0  0
    8.8694   -1.1757    0.0000 H   0  0  0  0  0  0  0  0  0  0  0  0
    9.8364    0.4927    0.0000 H   0  0  0  0  0  0  0  0  0  0  0  0
   10.3445   -2.4177    0.0000 C   0  0  0  0  0  0  0  0  0  0  0  0
   11.6345   -3.1677    0.0000 C   0  0  0  0  0  0  0  0  0  0  0  0
   12.9347   -2.4197    0.0000 H   0  0  0  0  0  0  0  0  0  0  0  0
   11.6345   -4.6677    0.0000 C   0  0  0  0  0  0  0  0  0  0  0  0
   12.9347   -5.4158    0.0000 H   0  0  0  0  0  0  0  0  0  0  0  0
   10.3445   -5.4177    0.0000 C   0  0  0  0  0  0  0  0  0  0  0  0
   10.3470   -6.9177    0.0000 H   0  0  0  0  0  0  0  0  0  0  0  0
    9.0445   -4.6677    0.0000 C   0  0  0  0  0  0  0  0  0  0  0  0
    9.0445   -3.1677    0.0000 C   0  0  0  0  0  0  0  0  0  0  0  0
    7.7456   -2.4175    0.0000 H   0  0  0  0  0  0  0  0  0  0  0  0
    7.7456   -5.4179    0.0000 C   0  0  0  0  0  0  0  0  0  0  0  0
    8.7100   -6.5668    0.0000 H   0  0  0  0  0  0  0  0  0  0  0  0
    6.7816   -6.5672    0.0000 H   0  0  0  0  0  0  0  0  0  0  0  0
    6.0307   -4.4282    0.0000 N   0  0  0  0  0  0  0  0  0  0  0  0
    4.7310   -5.1786    0.0000 C   0  0  0  0  0  0  0  0  0  0  0  0
    5.6954   -6.3275    0.0000 H   0  0  0  0  0  0  0  0  0  0  0  0
    3.7673   -6.3281    0.0000 H   0  0  0  0  0  0  0  0  0  0  0  0
    3.4307   -4.4290    0.0000 C   0  0  0  0  0  0  0  0  0  0  0  0
    2.9184   -5.8389    0.0000 H   0  0  0  0  0  0  0  0  0  0  0  0
    1.9534   -4.1692    0.0000 H   0  0  0  0  0  0  0  0  0  0  0  0
    3.4302   -2.9290    0.0000 N   0  0  0  0  0  0  0  0  0  0  0  0
    4.7300   -2.1786    0.0000 C   0  0  0  0  0  0  0  0  0  0  0  0
    3.7656   -1.0298    0.0000 H   0  0  0  0  0  0  0  0  0  0  0  0
    5.6937   -1.0291    0.0000 H   0  0  0  0  0  0  0  0  0  0  0  0
    6.0302   -2.9282    0.0000 C   0  0  0  0  0  0  0  0  0  0  0  0
    6.5425   -1.5184    0.0000 H   0  0  0  0  0  0  0  0  0  0  0  0
    7.5076   -3.1881    0.0000 H   0  0  0  0  0  0  0  0  0  0  0  0
    1.2996   -1.6994    0.0000 C   0  0  0  0  0  0  0  0  0  0  0  0
   -0.1776   -1.4391    0.0000 H   0  0  0  0  0  0  0  0  0  0  0  0
    1.2994   -0.1994    0.0000 C   0  0  0  0  0  0  0  0  0  0  0  0
   -0.0007    0.5504    0.0000 C   0  0  0  0  0  0  0  0  0  0  0  0
   -1.2995   -0.2000    0.0000 H   0  0  0  0  0  0  0  0  0  0  0  0
   -0.0010    2.0504    0.0000 C   0  0  0  0  0  0  0  0  0  0  0  0
   -1.3000    2.8004    0.0000 H   0  0  0  0  0  0  0  0  0  0  0  0
    1.2989    2.8006    0.0000 C   0  0  0  0  0  0  0  0  0  0  0  0
    1.2987    4.3006    0.0000 H   0  0  0  0  0  0  0  0  0  0  0  0
    2.5990    2.0508    0.0000 C   0  0  0  0  0  0  0  0  0  0  0  0
    3.8978    2.8012    0.0000 H   0  0  0  0  0  0  0  0  0  0  0  0
    2.5993    0.5508    0.0000 C   0  0  0  0  0  0  0  0  0  0  0  0
    3.8983   -0.1992    0.0000 H   0  0  0  0  0  0  0  0  0  0  0  0
    0.3099   -3.4143    0.0000 C   0  0  0  0  0  0  0  0  0  0  0  0
   -1.1909   -3.4148    0.0000 C   0  0  0  0  0  0  0  0  0  0  0  0
   -1.9409   -2.1157    0.0000 H   0  0  0  0  0  0  0  0  0  0  0  0
   -1.9418   -4.7143    0.0000 C   0  0  0  0  0  0  0  0  0  0  0  0
   -3.4418   -4.7140    0.0000 H   0  0  0  0  0  0  0  0  0  0  0  0
   -1.1918   -6.0133    0.0000 C   0  0  0  0  0  0  0  0  0  0  0  0
    0.3091   -6.0128    0.0000 C   0  0  0  0  0  0  0  0  0  0  0  0
    1.0591   -7.3119    0.0000 H   0  0  0  0  0  0  0  0  0  0  0  0
    1.0599   -4.7133    0.0000 C   0  0  0  0  0  0  0  0  0  0  0  0
    2.5599   -4.7136    0.0000 H   0  0  0  0  0  0  0  0  0  0  0  0
   -1.9416   -7.3125    0.0000 S   0  0  0  0  0  0  0  0  0  0  0  0
   -3.4416   -7.3127    0.0000 C   0  0  0  0  0  0  0  0  0  0  0  0
   -3.1813   -5.8355    0.0000 H   0  0  0  0  0  0  0  0  0  0  0  0
   -4.8512   -6.7999    0.0000 H   0  0  0  0  0  0  0  0  0  0  0  0
   -4.1914   -8.6119    0.0000 C   0  0  0  0  0  0  0  0  0  0  0  0
   -4.4516  -10.0891    0.0000 H   0  0  0  0  0  0  0  0  0  0  0  0
   -2.7817   -9.1247    0.0000 C   0  0  0  0  0  0  0  0  0  0  0  0
   -1.6328   -8.1603    0.0000 O   0  0  0  0  0  0  0  0  0  0  0  0
   -2.5210  -10.6018    0.0000 N   0  0  0  0  0  0  0  0  0  0  0  0
   -3.6699  -11.5662    0.0000 H   0  0  0  0  0  0  0  0  0  0  0  0
   -1.1114  -11.1146    0.0000 C   0  0  0  0  0  0  0  0  0  0  0  0
   -0.8512   -9.6374    0.0000 H   0  0  0  0  0  0  0  0  0  0  0  0
    0.3886  -11.1144    0.0000 H   0  0  0  0  0  0  0  0  0  0  0  0
   -0.8507  -12.5918    0.0000 C   0  0  0  0  0  0  0  0  0  0  0  0
   -1.9996  -13.5562    0.0000 O   0  0  0  0  0  0  0  0  0  0  0  0
    0.5589  -13.1046    0.0000 O   0  0  0  0  0  0  0  0  0  0  0  0
    0.8196  -14.5818    0.0000 H   0  0  0  0  0  0  0  0  0  0  0  0
   -5.6914   -8.6121    0.0000 N   0  0  0  0  0  0  0  0  0  0  0  0
   -6.4416   -7.3132    0.0000 H   0  0  0  0  0  0  0  0  0  0  0  0
   -6.4411   -9.9113    0.0000 C   0  0  0  0  0  0  0  0  0  0  0  0
   -5.6909  -11.2102    0.0000 O   0  0  0  0  0  0  0  0  0  0  0  0
   -7.9411   -9.9115    0.0000 C   0  0  0  0  0  0  0  0  0  0  0  0
   -7.6809   -8.4343    0.0000 H   0  0  0  0  0  0  0  0  0  0  0  0
   -9.3508   -9.3987    0.0000 H   0  0  0  0  0  0  0  0  0  0  0  0
   -8.9309  -11.6264    0.0000 C   0  0  0  0  0  0  0  0  0  0  0  0
   -9.1911  -13.1037    0.0000 H   0  0  0  0  0  0  0  0  0  0  0  0
   -7.5212  -12.1392    0.0000 H   0  0  0  0  0  0  0  0  0  0  0  0
  -10.4309  -11.6266    0.0000 C   0  0  0  0  0  0  0  0  0  0  0  0
  -10.1706  -10.1494    0.0000 H   0  0  0  0  0  0  0  0  0  0  0  0
  -11.1807  -12.9258    0.0000 C   0  0  0  0  0  0  0  0  0  0  0  0
  -10.4305  -14.2247    0.0000 O   0  0  0  0  0  0  0  0  0  0  0  0
  -12.6807  -12.9260    0.0000 O   0  0  0  0  0  0  0  0  0  0  0  0
  -13.4305  -14.2252    0.0000 H   0  0  0  0  0  0  0  0  0  0  0  0
  -11.8405  -11.1138    0.0000 N   0  0  0  0  0  0  0  0  0  0  0  0
  -12.9894  -12.0782    0.0000 H   0  0  0  0  0  0  0  0  0  0  0  0
  -12.1012   -9.6367    0.0000 H   0  0  0  0  0  0  0  0  0  0  0  0
  1  2  1  0  0  0  0 
  1  3  1  0  0  0  0 
  1  4  1  0  0  0  0 
  1  5  1  0  0  0  0 
  5  6  2  0  0  0  0 
  6  7  1  0  0  0  0 
  6  8  1  0  0  0  0 
  8  9  1  0  0  0  0 
  8 10  2  0  0  0  0 
 10 11  1  0  0  0  0 
 10 12  1  0  0  0  0 
 12 13  2  0  0  0  0 
  5 13  1  0  0  0  0 
 13 14  1  0  0  0  0 
 12 15  1  0  0  0  0 
 15 16  1  0  0  0  0 
 15 17  1  0  0  0  0 
 15 18  1  0  0  0  0 
 18 19  1  0  0  0  0 
 19 20  1  0  0  0  0 
 19 21  1  0  0  0  0 
 19 22  1  0  0  0  0 
 22 23  1  0  0  0  0 
 22 24  1  0  0  0  0 
 22 25  1  0  0  0  0 
 25 26  1  0  0  0  0 
 26 27  1  0  0  0  0 
 26 28  1  0  0  0  0 
 26 29  1  0  0  0  0 
 18 29  1  0  0  0  0 
 29 30  1  0  0  0  0 
 29 31  1  0  0  0  0 
 25 32  1  0  0  0  0 
 32 33  1  0  0  0  0 
 32 34  1  0  0  0  0 
 34 35  2  0  0  0  0 
 35 36  1  0  0  0  0 
 35 37  1  0  0  0  0 
 37 38  1  0  0  0  0 
 37 39  2  0  0  0  0 
 39 40  1  0  0  0  0 
 39 41  1  0  0  0  0 
 41 42  1  0  0  0  0 
 41 43  2  0  0  0  0 
 34 43  1  0  0  0  0 
 43 44  1  0  0  0  0 
 32 45  1  0  0  0  0 
 45 46  2  0  0  0  0 
 46 47  1  0  0  0  0 
 46 48  1  0  0  0  0 
 48 49  1  0  0  0  0 
 48 50  2  0  0  0  0 
 50 51  1  0  0  0  0 
 51 52  1  0  0  0  0 
 51 53  2  0  0  0  0 
 45 53  1  0  0  0  0 
 53 54  1  0  0  0  0 
 50 55  1  0  0  0  0 
 55 56  1  0  0  0  0 
 56 57  1  0  0  0  0 
 56 58  1  0  0  0  0 
 56 59  1  0  0  0  0 
 59 60  1  0  0  0  0 
 59 61  1  0  0  0  0 
 61 62  2  0  0  0  0 
 61 63  1  0  0  0  0 
 63 64  1  0  0  0  0 
 63 65  1  0  0  0  0 
 65 66  1  0  0  0  0 
 65 67  1  0  0  0  0 
 65 68  1  0  0  0  0 
 68 69  2  0  0  0  0 
 68 70  1  0  0  0  0 
 70 71  1  0  0  0  0 
 59 72  1  0  0  0  0 
 72 73  1  0  0  0  0 
 72 74  1  0  0  0  0 
 74 75  2  0  0  0  0 
 74 76  1  0  0  0  0 
 76 77  1  0  0  0  0 
 76 78  1  0  0  0  0 
 76 79  1  0  0  0  0 
 79 80  1  0  0  0  0 
 79 81  1  0  0  0  0 
 79 82  1  0  0  0  0 
 82 83  1  0  0  0  0 
 82 84  1  0  0  0  0 
 84 85  2  0  0  0  0 
 84 86  1  0  0  0  0 
 86 87  1  0  0  0  0 
 82 88  1  0  0  0  0 
 88 89  1  0  0  0  0 
 88 90  1  0  0  0  0 
M  END
> <Rank>
33

> <Priority_score>
0.032

> <Reaction_type>
glutathione_conjugation_(aromatic_nucleophilic_substitution)

> <Parent_ID>
64

> <Parent_InChI>
InChI=1S/C25H27ClN2/c1-20-6-5-7-21(18-20)19-27-14-16-28(17-15-27)25(22-8-3-2-4-9-22)23-10-12-24(26)13-11-23/h2-13,18,25H,14-17,19H2,1H3

> <Parent_SMILES>
Cc1cccc(CN2CCN(C(c3ccccc3)c3ccc(Cl)cc3)CC2)c1

$$$$
Molecule 64_metabolite 34
  CDK     0516241031

 56 59  0  0  0  0  0  0  0  0999 V2000
   -4.1629   -5.9652    0.0000 C   0  0  0  0  0  0  0  0  0  0  0  0
   -4.1655   -7.4652    0.0000 H   0  0  0  0  0  0  0  0  0  0  0  0
   -3.6476   -4.5565    0.0000 H   0  0  0  0  0  0  0  0  0  0  0  0
   -2.6862   -6.2281    0.0000 H   0  0  0  0  0  0  0  0  0  0  0  0
   -5.4607   -5.2130    0.0000 C   0  0  0  0  0  0  0  0  0  0  0  0
   -6.7552   -5.9552    0.0000 C   0  0  0  0  0  0  0  0  0  0  0  0
   -6.7575   -7.4552    0.0000 H   0  0  0  0  0  0  0  0  0  0  0  0
   -8.0543   -5.2052    0.0000 C   0  0  0  0  0  0  0  0  0  0  0  0
   -9.3522   -5.9571    0.0000 H   0  0  0  0  0  0  0  0  0  0  0  0
   -8.0588   -3.7130    0.0000 C   0  0  0  0  0  0  0  0  0  0  0  0
   -9.3591   -2.9652    0.0000 H   0  0  0  0  0  0  0  0  0  0  0  0
   -6.7593   -2.9622    0.0000 C   0  0  0  0  0  0  0  0  0  0  0  0
   -5.4602   -3.7122    0.0000 C   0  0  0  0  0  0  0  0  0  0  0  0
   -4.1611   -2.9624    0.0000 H   0  0  0  0  0  0  0  0  0  0  0  0
   -6.7595   -1.4622    0.0000 C   0  0  0  0  0  0  0  0  0  0  0  0
   -8.2367   -1.7229    0.0000 H   0  0  0  0  0  0  0  0  0  0  0  0
   -7.2728   -0.0527    0.0000 H   0  0  0  0  0  0  0  0  0  0  0  0
   -5.0450   -0.4719    0.0000 N   0  0  0  0  0  0  0  0  0  0  0  0
   -5.0450    1.0290    0.0000 C   0  0  0  0  0  0  0  0  0  0  0  0
   -6.5221    0.7682    0.0000 H   0  0  0  0  0  0  0  0  0  0  0  0
   -5.5586    2.4383    0.0000 H   0  0  0  0  0  0  0  0  0  0  0  0
   -3.7457    1.7802    0.0000 C   0  0  0  0  0  0  0  0  0  0  0  0
   -4.7105    2.9288    0.0000 H   0  0  0  0  0  0  0  0  0  0  0  0
   -2.4470    2.5308    0.0000 H   0  0  0  0  0  0  0  0  0  0  0  0
   -2.4464    1.0306    0.0000 N   0  0  0  0  0  0  0  0  0  0  0  0
   -2.4464   -0.4702    0.0000 C   0  0  0  0  0  0  0  0  0  0  0  0
   -0.9692   -0.2094    0.0000 H   0  0  0  0  0  0  0  0  0  0  0  0
   -1.9328   -1.8795    0.0000 H   0  0  0  0  0  0  0  0  0  0  0  0
   -3.7457   -1.2215    0.0000 C   0  0  0  0  0  0  0  0  0  0  0  0
   -2.7809   -2.3700    0.0000 H   0  0  0  0  0  0  0  0  0  0  0  0
   -4.7094   -2.3709    0.0000 H   0  0  0  0  0  0  0  0  0  0  0  0
   -0.3162    2.2610    0.0000 C   0  0  0  0  0  0  0  0  0  0  0  0
    0.6478    3.4102    0.0000 H   0  0  0  0  0  0  0  0  0  0  0  0
    0.9830    1.5112    0.0000 C   0  0  0  0  0  0  0  0  0  0  0  0
    0.9853    0.0276    0.0000 C   0  0  0  0  0  0  0  0  0  0  0  0
   -0.3150   -0.7202    0.0000 H   0  0  0  0  0  0  0  0  0  0  0  0
    2.2807   -0.7287    0.0000 C   0  0  0  0  0  0  0  0  0  0  0  0
    2.2642   -2.2286    0.0000 H   0  0  0  0  0  0  0  0  0  0  0  0
    3.5824   -0.0065    0.0000 C   0  0  0  0  0  0  0  0  0  0  0  0
    3.5866    1.5080    0.0000 C   0  0  0  0  0  0  0  0  0  0  0  0
    4.8884    2.2530    0.0000 H   0  0  0  0  0  0  0  0  0  0  0  0
    2.2912    2.2643    0.0000 C   0  0  0  0  0  0  0  0  0  0  0  0
    2.2958    3.7643    0.0000 H   0  0  0  0  0  0  0  0  0  0  0  0
    4.8739   -0.7693    0.0000 Cl  0  0  0  0  0  0  0  0  0  0  0  0
   -1.3064    3.9755    0.0000 C   0  0  0  0  0  0  0  0  0  0  0  0
   -0.5569    5.2748    0.0000 C   0  0  0  0  0  0  0  0  0  0  0  0
   -1.3081    6.5741    0.0000 C   0  0  0  0  0  0  0  0  0  0  0  0
   -0.5585    7.8734    0.0000 H   0  0  0  0  0  0  0  0  0  0  0  0
   -2.8089    6.5741    0.0000 C   0  0  0  0  0  0  0  0  0  0  0  0
   -3.5592    7.8730    0.0000 H   0  0  0  0  0  0  0  0  0  0  0  0
   -3.5585    5.2748    0.0000 C   0  0  0  0  0  0  0  0  0  0  0  0
   -5.0585    5.2741    0.0000 H   0  0  0  0  0  0  0  0  0  0  0  0
   -2.8073    3.9755    0.0000 C   0  0  0  0  0  0  0  0  0  0  0  0
   -3.5569    2.6763    0.0000 H   0  0  0  0  0  0  0  0  0  0  0  0
    0.9431    5.2755    0.0000 O   0  0  0  0  0  0  0  0  0  0  0  0
    1.6925    6.5749    0.0000 H   0  0  0  0  0  0  0  0  0  0  0  0
  1  2  1  0  0  0  0 
  1  3  1  0  0  0  0 
  1  4  1  0  0  0  0 
  1  5  1  0  0  0  0 
  5  6  2  0  0  0  0 
  6  7  1  0  0  0  0 
  6  8  1  0  0  0  0 
  8  9  1  0  0  0  0 
  8 10  2  0  0  0  0 
 10 11  1  0  0  0  0 
 10 12  1  0  0  0  0 
 12 13  2  0  0  0  0 
  5 13  1  0  0  0  0 
 13 14  1  0  0  0  0 
 12 15  1  0  0  0  0 
 15 16  1  0  0  0  0 
 15 17  1  0  0  0  0 
 15 18  1  0  0  0  0 
 18 19  1  0  0  0  0 
 19 20  1  0  0  0  0 
 19 21  1  0  0  0  0 
 19 22  1  0  0  0  0 
 22 23  1  0  0  0  0 
 22 24  1  0  0  0  0 
 22 25  1  0  0  0  0 
 25 26  1  0  0  0  0 
 26 27  1  0  0  0  0 
 26 28  1  0  0  0  0 
 26 29  1  0  0  0  0 
 18 29  1  0  0  0  0 
 29 30  1  0  0  0  0 
 29 31  1  0  0  0  0 
 25 32  1  0  0  0  0 
 32 33  1  0  0  0  0 
 32 34  1  0  0  0  0 
 34 35  2  0  0  0  0 
 35 36  1  0  0  0  0 
 35 37  1  0  0  0  0 
 37 38  1  0  0  0  0 
 37 39  2  0  0  0  0 
 39 40  1  0  0  0  0 
 40 41  1  0  0  0  0 
 40 42  2  0  0  0  0 
 34 42  1  0  0  0  0 
 42 43  1  0  0  0  0 
 39 44  1  0  0  0  0 
 32 45  1  0  0  0  0 
 45 46  2  0  0  0  0 
 46 47  1  0  0  0  0 
 47 48  1  0  0  0  0 
 47 49  2  0  0  0  0 
 49 50  1  0  0  0  0 
 49 51  1  0  0  0  0 
 51 52  1  0  0  0  0 
 51 53  2  0  0  0  0 
 45 53  1  0  0  0  0 
 53 54  1  0  0  0  0 
 46 55  1  0  0  0  0 
 55 56  1  0  0  0  0 
M  END
> <Rank>
33

> <Priority_score>
0.032

> <Reaction_type>
aromatic hydroxylation

> <Parent_ID>
64

> <Parent_InChI>
InChI=1S/C25H27ClN2/c1-20-6-5-7-21(18-20)19-27-14-16-28(17-15-27)25(22-8-3-2-4-9-22)23-10-12-24(26)13-11-23/h2-13,18,25H,14-17,19H2,1H3

> <Parent_SMILES>
Cc1cccc(CN2CCN(C(c3ccccc3)c3ccc(Cl)cc3)CC2)c1

$$$$
Molecule 64_metabolite 35
  CDK     0516241031

 56 59  0  0  0  0  0  0  0  0999 V2000
   -4.1551   -5.9652    0.0000 C   0  0  0  0  0  0  0  0  0  0  0  0
   -4.1576   -7.4652    0.0000 H   0  0  0  0  0  0  0  0  0  0  0  0
   -3.6397   -4.5565    0.0000 H   0  0  0  0  0  0  0  0  0  0  0  0
   -2.6783   -6.2281    0.0000 H   0  0  0  0  0  0  0  0  0  0  0  0
   -5.4529   -5.2130    0.0000 C   0  0  0  0  0  0  0  0  0  0  0  0
   -6.7474   -5.9552    0.0000 C   0  0  0  0  0  0  0  0  0  0  0  0
   -6.7497   -7.4552    0.0000 H   0  0  0  0  0  0  0  0  0  0  0  0
   -8.0464   -5.2052    0.0000 C   0  0  0  0  0  0  0  0  0  0  0  0
   -9.3443   -5.9571    0.0000 H   0  0  0  0  0  0  0  0  0  0  0  0
   -8.0509   -3.7130    0.0000 C   0  0  0  0  0  0  0  0  0  0  0  0
   -9.3512   -2.9652    0.0000 H   0  0  0  0  0  0  0  0  0  0  0  0
   -6.7514   -2.9622    0.0000 C   0  0  0  0  0  0  0  0  0  0  0  0
   -5.4524   -3.7122    0.0000 C   0  0  0  0  0  0  0  0  0  0  0  0
   -4.1532   -2.9624    0.0000 H   0  0  0  0  0  0  0  0  0  0  0  0
   -6.7517   -1.4622    0.0000 C   0  0  0  0  0  0  0  0  0  0  0  0
   -8.2288   -1.7229    0.0000 H   0  0  0  0  0  0  0  0  0  0  0  0
   -7.2649   -0.0527    0.0000 H   0  0  0  0  0  0  0  0  0  0  0  0
   -5.0371   -0.4719    0.0000 N   0  0  0  0  0  0  0  0  0  0  0  0
   -5.0371    1.0290    0.0000 C   0  0  0  0  0  0  0  0  0  0  0  0
   -6.5142    0.7682    0.0000 H   0  0  0  0  0  0  0  0  0  0  0  0
   -5.5507    2.4383    0.0000 H   0  0  0  0  0  0  0  0  0  0  0  0
   -3.7378    1.7802    0.0000 C   0  0  0  0  0  0  0  0  0  0  0  0
   -4.7026    2.9288    0.0000 H   0  0  0  0  0  0  0  0  0  0  0  0
   -2.4391    2.5308    0.0000 H   0  0  0  0  0  0  0  0  0  0  0  0
   -2.4385    1.0306    0.0000 N   0  0  0  0  0  0  0  0  0  0  0  0
   -2.4385   -0.4702    0.0000 C   0  0  0  0  0  0  0  0  0  0  0  0
   -0.9614   -0.2094    0.0000 H   0  0  0  0  0  0  0  0  0  0  0  0
   -1.9249   -1.8795    0.0000 H   0  0  0  0  0  0  0  0  0  0  0  0
   -3.7378   -1.2215    0.0000 C   0  0  0  0  0  0  0  0  0  0  0  0
   -2.7730   -2.3700    0.0000 H   0  0  0  0  0  0  0  0  0  0  0  0
   -4.7015   -2.3709    0.0000 H   0  0  0  0  0  0  0  0  0  0  0  0
   -0.3083    2.2610    0.0000 C   0  0  0  0  0  0  0  0  0  0  0  0
    0.6557    3.4102    0.0000 H   0  0  0  0  0  0  0  0  0  0  0  0
    0.9909    1.5112    0.0000 C   0  0  0  0  0  0  0  0  0  0  0  0
    2.2903    2.2622    0.0000 C   0  0  0  0  0  0  0  0  0  0  0  0
    2.2898    3.7622    0.0000 H   0  0  0  0  0  0  0  0  0  0  0  0
    3.5894    1.5124    0.0000 C   0  0  0  0  0  0  0  0  0  0  0  0
    4.8884    2.2624    0.0000 H   0  0  0  0  0  0  0  0  0  0  0  0
    3.5892    0.0116    0.0000 C   0  0  0  0  0  0  0  0  0  0  0  0
    4.8883   -0.7382    0.0000 H   0  0  0  0  0  0  0  0  0  0  0  0
    2.2898   -0.7395    0.0000 C   0  0  0  0  0  0  0  0  0  0  0  0
    2.2903   -2.2395    0.0000 H   0  0  0  0  0  0  0  0  0  0  0  0
    0.9906    0.0103    0.0000 C   0  0  0  0  0  0  0  0  0  0  0  0
   -0.3084   -0.7397    0.0000 H   0  0  0  0  0  0  0  0  0  0  0  0
   -1.2986    3.9755    0.0000 C   0  0  0  0  0  0  0  0  0  0  0  0
   -2.7994    3.9755    0.0000 C   0  0  0  0  0  0  0  0  0  0  0  0
   -3.5490    2.6763    0.0000 H   0  0  0  0  0  0  0  0  0  0  0  0
   -3.5507    5.2748    0.0000 C   0  0  0  0  0  0  0  0  0  0  0  0
   -5.0507    5.2741    0.0000 H   0  0  0  0  0  0  0  0  0  0  0  0
   -2.8011    6.5741    0.0000 C   0  0  0  0  0  0  0  0  0  0  0  0
   -1.3002    6.5741    0.0000 C   0  0  0  0  0  0  0  0  0  0  0  0
   -0.5507    7.8734    0.0000 H   0  0  0  0  0  0  0  0  0  0  0  0
   -0.5490    5.2748    0.0000 C   0  0  0  0  0  0  0  0  0  0  0  0
    0.9510    5.2755    0.0000 O   0  0  0  0  0  0  0  0  0  0  0  0
    1.7004    6.5749    0.0000 H   0  0  0  0  0  0  0  0  0  0  0  0
   -3.5513    7.8730    0.0000 Cl  0  0  0  0  0  0  0  0  0  0  0  0
  1  2  1  0  0  0  0 
  1  3  1  0  0  0  0 
  1  4  1  0  0  0  0 
  1  5  1  0  0  0  0 
  5  6  2  0  0  0  0 
  6  7  1  0  0  0  0 
  6  8  1  0  0  0  0 
  8  9  1  0  0  0  0 
  8 10  2  0  0  0  0 
 10 11  1  0  0  0  0 
 10 12  1  0  0  0  0 
 12 13  2  0  0  0  0 
  5 13  1  0  0  0  0 
 13 14  1  0  0  0  0 
 12 15  1  0  0  0  0 
 15 16  1  0  0  0  0 
 15 17  1  0  0  0  0 
 15 18  1  0  0  0  0 
 18 19  1  0  0  0  0 
 19 20  1  0  0  0  0 
 19 21  1  0  0  0  0 
 19 22  1  0  0  0  0 
 22 23  1  0  0  0  0 
 22 24  1  0  0  0  0 
 22 25  1  0  0  0  0 
 25 26  1  0  0  0  0 
 26 27  1  0  0  0  0 
 26 28  1  0  0  0  0 
 26 29  1  0  0  0  0 
 18 29  1  0  0  0  0 
 29 30  1  0  0  0  0 
 29 31  1  0  0  0  0 
 25 32  1  0  0  0  0 
 32 33  1  0  0  0  0 
 32 34  1  0  0  0  0 
 34 35  2  0  0  0  0 
 35 36  1  0  0  0  0 
 35 37  1  0  0  0  0 
 37 38  1  0  0  0  0 
 37 39  2  0  0  0  0 
 39 40  1  0  0  0  0 
 39 41  1  0  0  0  0 
 41 42  1  0  0  0  0 
 41 43  2  0  0  0  0 
 34 43  1  0  0  0  0 
 43 44  1  0  0  0  0 
 32 45  1  0  0  0  0 
 45 46  2  0  0  0  0 
 46 47  1  0  0  0  0 
 46 48  1  0  0  0  0 
 48 49  1  0  0  0  0 
 48 50  2  0  0  0  0 
 50 51  1  0  0  0  0 
 51 52  1  0  0  0  0 
 51 53  2  0  0  0  0 
 45 53  1  0  0  0  0 
 53 54  1  0  0  0  0 
 54 55  1  0  0  0  0 
 50 56  1  0  0  0  0 
M  END
> <Rank>
33

> <Priority_score>
0.032

> <Reaction_type>
aromatic hydroxylation

> <Parent_ID>
64

> <Parent_InChI>
InChI=1S/C25H27ClN2/c1-20-6-5-7-21(18-20)19-27-14-16-28(17-15-27)25(22-8-3-2-4-9-22)23-10-12-24(26)13-11-23/h2-13,18,25H,14-17,19H2,1H3

> <Parent_SMILES>
Cc1cccc(CN2CCN(C(c3ccccc3)c3ccc(Cl)cc3)CC2)c1

$$$$
Molecule 64_metabolite 36
  CDK     0516241031

 56 59  0  0  0  0  0  0  0  0999 V2000
   -4.1551   -7.2775    0.0000 C   0  0  0  0  0  0  0  0  0  0  0  0
   -4.1576   -8.7775    0.0000 H   0  0  0  0  0  0  0  0  0  0  0  0
   -3.6397   -5.8688    0.0000 H   0  0  0  0  0  0  0  0  0  0  0  0
   -2.6783   -7.5405    0.0000 H   0  0  0  0  0  0  0  0  0  0  0  0
   -5.4529   -6.5253    0.0000 C   0  0  0  0  0  0  0  0  0  0  0  0
   -6.7474   -7.2675    0.0000 C   0  0  0  0  0  0  0  0  0  0  0  0
   -6.7497   -8.7675    0.0000 H   0  0  0  0  0  0  0  0  0  0  0  0
   -8.0464   -6.5175    0.0000 C   0  0  0  0  0  0  0  0  0  0  0  0
   -9.3443   -7.2695    0.0000 H   0  0  0  0  0  0  0  0  0  0  0  0
   -8.0509   -5.0253    0.0000 C   0  0  0  0  0  0  0  0  0  0  0  0
   -9.3512   -4.2775    0.0000 H   0  0  0  0  0  0  0  0  0  0  0  0
   -6.7514   -4.2745    0.0000 C   0  0  0  0  0  0  0  0  0  0  0  0
   -5.4524   -5.0245    0.0000 C   0  0  0  0  0  0  0  0  0  0  0  0
   -4.1532   -4.2747    0.0000 H   0  0  0  0  0  0  0  0  0  0  0  0
   -6.7517   -2.7745    0.0000 C   0  0  0  0  0  0  0  0  0  0  0  0
   -8.2288   -3.0352    0.0000 H   0  0  0  0  0  0  0  0  0  0  0  0
   -7.2649   -1.3651    0.0000 H   0  0  0  0  0  0  0  0  0  0  0  0
   -5.0371   -1.7842    0.0000 N   0  0  0  0  0  0  0  0  0  0  0  0
   -5.0371   -0.2834    0.0000 C   0  0  0  0  0  0  0  0  0  0  0  0
   -6.5142   -0.5442    0.0000 H   0  0  0  0  0  0  0  0  0  0  0  0
   -5.5507    1.1259    0.0000 H   0  0  0  0  0  0  0  0  0  0  0  0
   -3.7378    0.4678    0.0000 C   0  0  0  0  0  0  0  0  0  0  0  0
   -4.7026    1.6164    0.0000 H   0  0  0  0  0  0  0  0  0  0  0  0
   -2.4391    1.2184    0.0000 H   0  0  0  0  0  0  0  0  0  0  0  0
   -2.4385   -0.2817    0.0000 N   0  0  0  0  0  0  0  0  0  0  0  0
   -2.4385   -1.7826    0.0000 C   0  0  0  0  0  0  0  0  0  0  0  0
   -0.9614   -1.5218    0.0000 H   0  0  0  0  0  0  0  0  0  0  0  0
   -1.9249   -3.1919    0.0000 H   0  0  0  0  0  0  0  0  0  0  0  0
   -3.7378   -2.5338    0.0000 C   0  0  0  0  0  0  0  0  0  0  0  0
   -2.7730   -3.6824    0.0000 H   0  0  0  0  0  0  0  0  0  0  0  0
   -4.7015   -3.6833    0.0000 H   0  0  0  0  0  0  0  0  0  0  0  0
   -0.3083    0.9486    0.0000 C   0  0  0  0  0  0  0  0  0  0  0  0
    0.6557    2.0978    0.0000 H   0  0  0  0  0  0  0  0  0  0  0  0
    0.9909    0.1988    0.0000 C   0  0  0  0  0  0  0  0  0  0  0  0
    2.2903    0.9499    0.0000 C   0  0  0  0  0  0  0  0  0  0  0  0
    2.2898    2.4499    0.0000 H   0  0  0  0  0  0  0  0  0  0  0  0
    3.5894    0.2001    0.0000 C   0  0  0  0  0  0  0  0  0  0  0  0
    4.8884    0.9501    0.0000 H   0  0  0  0  0  0  0  0  0  0  0  0
    3.5892   -1.3008    0.0000 C   0  0  0  0  0  0  0  0  0  0  0  0
    4.8883   -2.0506    0.0000 H   0  0  0  0  0  0  0  0  0  0  0  0
    2.2898   -2.0518    0.0000 C   0  0  0  0  0  0  0  0  0  0  0  0
    2.2903   -3.5518    0.0000 H   0  0  0  0  0  0  0  0  0  0  0  0
    0.9906   -1.3020    0.0000 C   0  0  0  0  0  0  0  0  0  0  0  0
   -0.3084   -2.0520    0.0000 H   0  0  0  0  0  0  0  0  0  0  0  0
   -1.2986    2.6632    0.0000 C   0  0  0  0  0  0  0  0  0  0  0  0
   -2.7986    2.6556    0.0000 C   0  0  0  0  0  0  0  0  0  0  0  0
   -3.5355    1.3491    0.0000 H   0  0  0  0  0  0  0  0  0  0  0  0
   -3.5550    3.9217    0.0000 C   0  0  0  0  0  0  0  0  0  0  0  0
   -5.0548    3.8943    0.0000 H   0  0  0  0  0  0  0  0  0  0  0  0
   -2.8119    5.2755    0.0000 C   0  0  0  0  0  0  0  0  0  0  0  0
   -1.3119    5.2831    0.0000 C   0  0  0  0  0  0  0  0  0  0  0  0
   -0.5578    6.5798    0.0000 H   0  0  0  0  0  0  0  0  0  0  0  0
   -0.5550    3.9370    0.0000 C   0  0  0  0  0  0  0  0  0  0  0  0
    0.9449    3.9248    0.0000 H   0  0  0  0  0  0  0  0  0  0  0  0
   -3.5791    6.5644    0.0000 O   0  0  0  0  0  0  0  0  0  0  0  0
   -2.8465    7.8734    0.0000 H   0  0  0  0  0  0  0  0  0  0  0  0
  1  2  1  0  0  0  0 
  1  3  1  0  0  0  0 
  1  4  1  0  0  0  0 
  1  5  1  0  0  0  0 
  5  6  2  0  0  0  0 
  6  7  1  0  0  0  0 
  6  8  1  0  0  0  0 
  8  9  1  0  0  0  0 
  8 10  2  0  0  0  0 
 10 11  1  0  0  0  0 
 10 12  1  0  0  0  0 
 12 13  2  0  0  0  0 
  5 13  1  0  0  0  0 
 13 14  1  0  0  0  0 
 12 15  1  0  0  0  0 
 15 16  1  0  0  0  0 
 15 17  1  0  0  0  0 
 15 18  1  0  0  0  0 
 18 19  1  0  0  0  0 
 19 20  1  0  0  0  0 
 19 21  1  0  0  0  0 
 19 22  1  0  0  0  0 
 22 23  1  0  0  0  0 
 22 24  1  0  0  0  0 
 22 25  1  0  0  0  0 
 25 26  1  0  0  0  0 
 26 27  1  0  0  0  0 
 26 28  1  0  0  0  0 
 26 29  1  0  0  0  0 
 18 29  1  0  0  0  0 
 29 30  1  0  0  0  0 
 29 31  1  0  0  0  0 
 25 32  1  0  0  0  0 
 32 33  1  0  0  0  0 
 32 34  1  0  0  0  0 
 34 35  2  0  0  0  0 
 35 36  1  0  0  0  0 
 35 37  1  0  0  0  0 
 37 38  1  0  0  0  0 
 37 39  2  0  0  0  0 
 39 40  1  0  0  0  0 
 39 41  1  0  0  0  0 
 41 42  1  0  0  0  0 
 41 43  2  0  0  0  0 
 34 43  1  0  0  0  0 
 43 44  1  0  0  0  0 
 32 45  1  0  0  0  0 
 45 46  2  0  0  0  0 
 46 47  1  0  0  0  0 
 46 48  1  0  0  0  0 
 48 49  1  0  0  0  0 
 48 50  2  0  0  0  0 
 50 51  1  0  0  0  0 
 51 52  1  0  0  0  0 
 51 53  2  0  0  0  0 
 45 53  1  0  0  0  0 
 53 54  1  0  0  0  0 
 50 55  1  0  0  0  0 
 55 56  1  0  0  0  0 
M  END
> <Rank>
36

> <Priority_score>
0.012

> <Reaction_type>
oxidative dehalogenation benzyl

> <Parent_ID>
64

> <Parent_InChI>
InChI=1S/C25H27ClN2/c1-20-6-5-7-21(18-20)19-27-14-16-28(17-15-27)25(22-8-3-2-4-9-22)23-10-12-24(26)13-11-23/h2-13,18,25H,14-17,19H2,1H3

> <Parent_SMILES>
Cc1cccc(CN2CCN(C(c3ccccc3)c3ccc(Cl)cc3)CC2)c1

$$$$
Molecule 65
  CDK     0516241031

 20 21  0  0  0  0  0  0  0  0999 V2000
   12.0239   -5.4091    0.0000 C   0  0  0  0  0  0  0  0  0  0  0  0
   12.0244   -3.9083    0.0000 C   0  0  0  0  0  0  0  0  0  0  0  0
   10.7254   -3.1583    0.0000 C   0  0  0  0  0  0  0  0  0  0  0  0
    9.4259   -3.9091    0.0000 N   0  0  0  0  0  0  0  0  0  0  0  0
    9.4254   -5.4099    0.0000 C   0  0  0  0  0  0  0  0  0  0  0  0
   10.7244   -6.1599    0.0000 C   0  0  0  0  0  0  0  0  0  0  0  0
    8.1268   -3.1591    0.0000 C   0  0  0  0  0  0  0  0  0  0  0  0
    6.8278   -3.9091    0.0000 C   0  0  0  0  0  0  0  0  0  0  0  0
    5.5288   -3.1591    0.0000 C   0  0  0  0  0  0  0  0  0  0  0  0
    4.2297   -3.9091    0.0000 O   0  0  0  0  0  0  0  0  0  0  0  0
    2.9307   -3.1591    0.0000 C   0  0  0  0  0  0  0  0  0  0  0  0
    1.6316   -3.9091    0.0000 C   0  0  0  0  0  0  0  0  0  0  0  0
    0.3326   -3.1591    0.0000 C   0  0  0  0  0  0  0  0  0  0  0  0
   -0.9664   -3.9091    0.0000 C   0  0  0  0  0  0  0  0  0  0  0  0
   -2.2523   -3.1691    0.0000 C   0  0  0  0  0  0  0  0  0  0  0  0
   -3.5550   -3.9126    0.0000 C   0  0  0  0  0  0  0  0  0  0  0  0
   -3.5807   -5.4010    0.0000 C   0  0  0  0  0  0  0  0  0  0  0  0
   -2.2713   -6.1621    0.0000 C   0  0  0  0  0  0  0  0  0  0  0  0
   -0.9685   -5.4186    0.0000 C   0  0  0  0  0  0  0  0  0  0  0  0
   -4.8872   -6.1379    0.0000 Cl  0  0  0  0  0  0  0  0  0  0  0  0
  1  2  1  0  0  0  0 
  2  3  1  0  0  0  0 
  3  4  1  0  0  0  0 
  4  5  1  0  0  0  0 
  5  6  1  0  0  0  0 
  1  6  1  0  0  0  0 
  4  7  1  0  0  0  0 
  7  8  1  0  0  0  0 
  8  9  1  0  0  0  0 
  9 10  1  0  0  0  0 
 10 11  1  0  0  0  0 
 11 12  1  0  0  0  0 
 12 13  1  0  0  0  0 
 13 14  1  0  0  0  0 
 14 15  2  0  0  0  0 
 15 16  1  0  0  0  0 
 16 17  2  0  0  0  0 
 17 18  1  0  0  0  0 
 18 19  2  0  0  0  0 
 14 19  1  0  0  0  0 
 17 20  1  0  0  0  0 
M  END
> <SMILES>
Clc1ccc(CCCOCCCN2CCCCC2)cc1

$$$$
Molecule 65_metabolite 1
  CDK     0516241031

 47 48  0  0  0  0  0  0  0  0999 V2000
   10.6627    0.9523    0.0000 C   0  0  0  0  0  0  0  0  0  0  0  0
   11.1759   -0.4571    0.0000 H   0  0  0  0  0  0  0  0  0  0  0  0
   12.1400    1.2127    0.0000 H   0  0  0  0  0  0  0  0  0  0  0  0
   10.6632    2.4532    0.0000 C   0  0  0  0  0  0  0  0  0  0  0  0
   12.1404    2.1924    0.0000 H   0  0  0  0  0  0  0  0  0  0  0  0
   11.1764    3.8627    0.0000 H   0  0  0  0  0  0  0  0  0  0  0  0
    9.3642    3.2032    0.0000 C   0  0  0  0  0  0  0  0  0  0  0  0
   10.3282    4.3523    0.0000 H   0  0  0  0  0  0  0  0  0  0  0  0
    8.8508    4.6126    0.0000 H   0  0  0  0  0  0  0  0  0  0  0  0
    8.0646    2.4523    0.0000 N   0  0  0  0  0  0  0  0  0  0  0  0
    8.0642    0.9515    0.0000 C   0  0  0  0  0  0  0  0  0  0  0  0
    6.5870    1.2123    0.0000 H   0  0  0  0  0  0  0  0  0  0  0  0
    7.5510   -0.4580    0.0000 H   0  0  0  0  0  0  0  0  0  0  0  0
    9.3632    0.2015    0.0000 C   0  0  0  0  0  0  0  0  0  0  0  0
    8.3991   -0.9477    0.0000 H   0  0  0  0  0  0  0  0  0  0  0  0
   10.3276   -0.9474    0.0000 H   0  0  0  0  0  0  0  0  0  0  0  0
    6.7656    3.2023    0.0000 C   0  0  0  0  0  0  0  0  0  0  0  0
    7.7298    4.3514    0.0000 H   0  0  0  0  0  0  0  0  0  0  0  0
    5.8014    4.3514    0.0000 H   0  0  0  0  0  0  0  0  0  0  0  0
    5.4666    2.4523    0.0000 C   0  0  0  0  0  0  0  0  0  0  0  0
    3.9894    2.1919    0.0000 H   0  0  0  0  0  0  0  0  0  0  0  0
    4.9535    3.8619    0.0000 H   0  0  0  0  0  0  0  0  0  0  0  0
    5.4666    0.4723    0.0000 C   0  0  0  0  0  0  0  0  0  0  0  0
    6.9438    0.2119    0.0000 H   0  0  0  0  0  0  0  0  0  0  0  0
    5.9796   -0.9372    0.0000 H   0  0  0  0  0  0  0  0  0  0  0  0
    3.7518   -0.5177    0.0000 O   0  0  0  0  0  0  0  0  0  0  0  0
    3.7518   -2.0177    0.0000 C   0  0  0  0  0  0  0  0  0  0  0  0
    5.2290   -1.7572    0.0000 H   0  0  0  0  0  0  0  0  0  0  0  0
    4.2649   -3.4272    0.0000 H   0  0  0  0  0  0  0  0  0  0  0  0
    2.4528   -2.7677    0.0000 C   0  0  0  0  0  0  0  0  0  0  0  0
    0.9756   -3.0281    0.0000 H   0  0  0  0  0  0  0  0  0  0  0  0
    2.4528   -4.7477    0.0000 C   0  0  0  0  0  0  0  0  0  0  0  0
    3.9300   -4.4872    0.0000 H   0  0  0  0  0  0  0  0  0  0  0  0
    2.9658   -6.1572    0.0000 H   0  0  0  0  0  0  0  0  0  0  0  0
    1.1538   -5.4977    0.0000 C   0  0  0  0  0  0  0  0  0  0  0  0
    1.1517   -6.9812    0.0000 C   0  0  0  0  0  0  0  0  0  0  0  0
    2.4521   -7.7288    0.0000 H   0  0  0  0  0  0  0  0  0  0  0  0
   -0.1436   -7.7377    0.0000 C   0  0  0  0  0  0  0  0  0  0  0  0
   -0.1269   -9.2376    0.0000 H   0  0  0  0  0  0  0  0  0  0  0  0
   -1.4454   -7.0157    0.0000 C   0  0  0  0  0  0  0  0  0  0  0  0
   -1.4498   -5.5013    0.0000 C   0  0  0  0  0  0  0  0  0  0  0  0
   -2.7518   -4.7564    0.0000 H   0  0  0  0  0  0  0  0  0  0  0  0
   -0.1546   -4.7447    0.0000 C   0  0  0  0  0  0  0  0  0  0  0  0
   -0.1594   -3.2447    0.0000 H   0  0  0  0  0  0  0  0  0  0  0  0
   -2.7368   -7.7788    0.0000 Cl  0  0  0  0  0  0  0  0  0  0  0  0
    1.9398   -1.3581    0.0000 O   0  0  0  0  0  0  0  0  0  0  0  0
    0.4626   -1.0977    0.0000 H   0  0  0  0  0  0  0  0  0  0  0  0
  1  2  1  0  0  0  0 
  1  3  1  0  0  0  0 
  1  4  1  0  0  0  0 
  4  5  1  0  0  0  0 
  4  6  1  0  0  0  0 
  4  7  1  0  0  0  0 
  7  8  1  0  0  0  0 
  7  9  1  0  0  0  0 
  7 10  1  0  0  0  0 
 10 11  1  0  0  0  0 
 11 12  1  0  0  0  0 
 11 13  1  0  0  0  0 
 11 14  1  0  0  0  0 
  1 14  1  0  0  0  0 
 14 15  1  0  0  0  0 
 14 16  1  0  0  0  0 
 10 17  1  0  0  0  0 
 17 18  1  0  0  0  0 
 17 19  1  0  0  0  0 
 17 20  1  0  0  0  0 
 20 21  1  0  0  0  0 
 20 22  1  0  0  0  0 
 20 23  1  0  0  0  0 
 23 24  1  0  0  0  0 
 23 25  1  0  0  0  0 
 23 26  1  0  0  0  0 
 26 27  1  0  0  0  0 
 27 28  1  0  0  0  0 
 27 29  1  0  0  0  0 
 27 30  1  0  0  0  0 
 30 31  1  0  0  0  0 
 30 32  1  0  0  0  0 
 32 33  1  0  0  0  0 
 32 34  1  0  0  0  0 
 32 35  1  0  0  0  0 
 35 36  2  0  0  0  0 
 36 37  1  0  0  0  0 
 36 38  1  0  0  0  0 
 38 39  1  0  0  0  0 
 38 40  2  0  0  0  0 
 40 41  1  0  0  0  0 
 41 42  1  0  0  0  0 
 41 43  2  0  0  0  0 
 35 43  1  0  0  0  0 
 43 44  1  0  0  0  0 
 40 45  1  0  0  0  0 
 30 46  1  0  0  0  0 
 46 47  1  0  0  0  0 
M  END
> <Rank>
1

> <Priority_score>
0.256

> <Reaction_type>
aliphatic hydroxylation

> <Parent_ID>
65

> <Parent_InChI>
InChI=1S/C17H26ClNO/c18-17-9-7-16(8-10-17)6-4-14-20-15-5-13-19-11-2-1-3-12-19/h7-10H,1-6,11-15H2

> <Parent_SMILES>
Clc1ccc(CCCOCCCN2CCCCC2)cc1

$$$$
Molecule 65_metabolite 2
  CDK     0516241031

 47 48  0  0  0  0  0  0  0  0999 V2000
   11.0784    1.1923    0.0000 C   0  0  0  0  0  0  0  0  0  0  0  0
   11.5916   -0.2171    0.0000 H   0  0  0  0  0  0  0  0  0  0  0  0
   12.5556    1.4527    0.0000 H   0  0  0  0  0  0  0  0  0  0  0  0
   11.0789    2.6932    0.0000 C   0  0  0  0  0  0  0  0  0  0  0  0
   12.5560    2.4324    0.0000 H   0  0  0  0  0  0  0  0  0  0  0  0
   11.5921    4.1027    0.0000 H   0  0  0  0  0  0  0  0  0  0  0  0
    9.7798    3.4432    0.0000 C   0  0  0  0  0  0  0  0  0  0  0  0
   10.7439    4.5923    0.0000 H   0  0  0  0  0  0  0  0  0  0  0  0
    9.2665    4.8526    0.0000 H   0  0  0  0  0  0  0  0  0  0  0  0
    8.4803    2.6923    0.0000 N   0  0  0  0  0  0  0  0  0  0  0  0
    8.4798    1.1915    0.0000 C   0  0  0  0  0  0  0  0  0  0  0  0
    7.0027    1.4523    0.0000 H   0  0  0  0  0  0  0  0  0  0  0  0
    7.9667   -0.2180    0.0000 H   0  0  0  0  0  0  0  0  0  0  0  0
    9.7789    0.4415    0.0000 C   0  0  0  0  0  0  0  0  0  0  0  0
    8.8148   -0.7077    0.0000 H   0  0  0  0  0  0  0  0  0  0  0  0
   10.7433   -0.7074    0.0000 H   0  0  0  0  0  0  0  0  0  0  0  0
    7.1813    3.4423    0.0000 C   0  0  0  0  0  0  0  0  0  0  0  0
    8.1455    4.5914    0.0000 H   0  0  0  0  0  0  0  0  0  0  0  0
    6.2171    4.5914    0.0000 H   0  0  0  0  0  0  0  0  0  0  0  0
    5.8823    2.6923    0.0000 C   0  0  0  0  0  0  0  0  0  0  0  0
    4.4050    2.4319    0.0000 H   0  0  0  0  0  0  0  0  0  0  0  0
    5.3692    4.1019    0.0000 H   0  0  0  0  0  0  0  0  0  0  0  0
    5.8823    0.7123    0.0000 C   0  0  0  0  0  0  0  0  0  0  0  0
    7.3595    0.4519    0.0000 H   0  0  0  0  0  0  0  0  0  0  0  0
    6.3953   -0.6972    0.0000 H   0  0  0  0  0  0  0  0  0  0  0  0
    4.1675   -0.2777    0.0000 O   0  0  0  0  0  0  0  0  0  0  0  0
    4.1675   -1.7777    0.0000 C   0  0  0  0  0  0  0  0  0  0  0  0
    5.6447   -1.5172    0.0000 H   0  0  0  0  0  0  0  0  0  0  0  0
    4.6806   -3.1872    0.0000 H   0  0  0  0  0  0  0  0  0  0  0  0
    2.8685   -2.5277    0.0000 C   0  0  0  0  0  0  0  0  0  0  0  0
    1.3913   -2.7881    0.0000 H   0  0  0  0  0  0  0  0  0  0  0  0
    2.3555   -1.1181    0.0000 H   0  0  0  0  0  0  0  0  0  0  0  0
    2.8685   -4.5077    0.0000 C   0  0  0  0  0  0  0  0  0  0  0  0
    4.3457   -4.2472    0.0000 H   0  0  0  0  0  0  0  0  0  0  0  0
    1.5694   -5.2577    0.0000 C   0  0  0  0  0  0  0  0  0  0  0  0
    1.5674   -6.7412    0.0000 C   0  0  0  0  0  0  0  0  0  0  0  0
    2.8678   -7.4888    0.0000 H   0  0  0  0  0  0  0  0  0  0  0  0
    0.2721   -7.4977    0.0000 C   0  0  0  0  0  0  0  0  0  0  0  0
    0.2888   -8.9976    0.0000 H   0  0  0  0  0  0  0  0  0  0  0  0
   -1.0297   -6.7757    0.0000 C   0  0  0  0  0  0  0  0  0  0  0  0
   -1.0341   -5.2613    0.0000 C   0  0  0  0  0  0  0  0  0  0  0  0
   -2.3361   -4.5164    0.0000 H   0  0  0  0  0  0  0  0  0  0  0  0
    0.2611   -4.5047    0.0000 C   0  0  0  0  0  0  0  0  0  0  0  0
    0.2563   -3.0047    0.0000 H   0  0  0  0  0  0  0  0  0  0  0  0
   -2.3211   -7.5388    0.0000 Cl  0  0  0  0  0  0  0  0  0  0  0  0
    3.3815   -5.9172    0.0000 O   0  0  0  0  0  0  0  0  0  0  0  0
    4.8587   -6.1777    0.0000 H   0  0  0  0  0  0  0  0  0  0  0  0
  1  2  1  0  0  0  0 
  1  3  1  0  0  0  0 
  1  4  1  0  0  0  0 
  4  5  1  0  0  0  0 
  4  6  1  0  0  0  0 
  4  7  1  0  0  0  0 
  7  8  1  0  0  0  0 
  7  9  1  0  0  0  0 
  7 10  1  0  0  0  0 
 10 11  1  0  0  0  0 
 11 12  1  0  0  0  0 
 11 13  1  0  0  0  0 
 11 14  1  0  0  0  0 
  1 14  1  0  0  0  0 
 14 15  1  0  0  0  0 
 14 16  1  0  0  0  0 
 10 17  1  0  0  0  0 
 17 18  1  0  0  0  0 
 17 19  1  0  0  0  0 
 17 20  1  0  0  0  0 
 20 21  1  0  0  0  0 
 20 22  1  0  0  0  0 
 20 23  1  0  0  0  0 
 23 24  1  0  0  0  0 
 23 25  1  0  0  0  0 
 23 26  1  0  0  0  0 
 26 27  1  0  0  0  0 
 27 28  1  0  0  0  0 
 27 29  1  0  0  0  0 
 27 30  1  0  0  0  0 
 30 31  1  0  0  0  0 
 30 32  1  0  0  0  0 
 30 33  1  0  0  0  0 
 33 34  1  0  0  0  0 
 33 35  1  0  0  0  0 
 35 36  2  0  0  0  0 
 36 37  1  0  0  0  0 
 36 38  1  0  0  0  0 
 38 39  1  0  0  0  0 
 38 40  2  0  0  0  0 
 40 41  1  0  0  0  0 
 41 42  1  0  0  0  0 
 41 43  2  0  0  0  0 
 35 43  1  0  0  0  0 
 43 44  1  0  0  0  0 
 40 45  1  0  0  0  0 
 33 46  1  0  0  0  0 
 46 47  1  0  0  0  0 
M  END
> <Rank>
1

> <Priority_score>
0.256

> <Reaction_type>
benzylic_hydroxylation_(c-CH2-CR)

> <Parent_ID>
65

> <Parent_InChI>
InChI=1S/C17H26ClNO/c18-17-9-7-16(8-10-17)6-4-14-20-15-5-13-19-11-2-1-3-12-19/h7-10H,1-6,11-15H2

> <Parent_SMILES>
Clc1ccc(CCCOCCCN2CCCCC2)cc1

$$$$
Molecule 65_metabolite 3
  CDK     0516241031

 47 48  0  0  0  0  0  0  0  0999 V2000
    8.3435   -2.9705    0.0000 C   0  0  0  0  0  0  0  0  0  0  0  0
    9.8208   -3.2309    0.0000 H   0  0  0  0  0  0  0  0  0  0  0  0
    8.8567   -1.5611    0.0000 H   0  0  0  0  0  0  0  0  0  0  0  0
    7.0440   -2.2197    0.0000 C   0  0  0  0  0  0  0  0  0  0  0  0
    8.0085   -1.0708    0.0000 H   0  0  0  0  0  0  0  0  0  0  0  0
    6.0800   -1.0705    0.0000 H   0  0  0  0  0  0  0  0  0  0  0  0
    5.7450   -2.9697    0.0000 C   0  0  0  0  0  0  0  0  0  0  0  0
    5.2318   -1.5602    0.0000 H   0  0  0  0  0  0  0  0  0  0  0  0
    4.2678   -3.2305    0.0000 H   0  0  0  0  0  0  0  0  0  0  0  0
    5.7455   -4.4705    0.0000 N   0  0  0  0  0  0  0  0  0  0  0  0
    7.0450   -5.2214    0.0000 C   0  0  0  0  0  0  0  0  0  0  0  0
    6.0806   -6.3702    0.0000 H   0  0  0  0  0  0  0  0  0  0  0  0
    8.0090   -6.3705    0.0000 H   0  0  0  0  0  0  0  0  0  0  0  0
    8.3440   -4.4714    0.0000 C   0  0  0  0  0  0  0  0  0  0  0  0
    8.8572   -5.8809    0.0000 H   0  0  0  0  0  0  0  0  0  0  0  0
    9.8212   -4.2106    0.0000 H   0  0  0  0  0  0  0  0  0  0  0  0
    3.7955   -4.1269    0.0000 C   0  0  0  0  0  0  0  0  0  0  0  0
    4.4725   -2.2663    0.0000 H   0  0  0  0  0  0  0  0  0  0  0  0
    2.4964   -3.3771    0.0000 H   0  0  0  0  0  0  0  0  0  0  0  0
    2.5230   -5.6438    0.0000 C   0  0  0  0  0  0  0  0  0  0  0  0
    2.0101   -7.0534    0.0000 H   0  0  0  0  0  0  0  0  0  0  0  0
    3.8221   -6.3937    0.0000 H   0  0  0  0  0  0  0  0  0  0  0  0
    0.5730   -5.3002    0.0000 C   0  0  0  0  0  0  0  0  0  0  0  0
    1.0859   -3.8906    0.0000 H   0  0  0  0  0  0  0  0  0  0  0  0
   -0.7261   -4.5504    0.0000 H   0  0  0  0  0  0  0  0  0  0  0  0
   -0.3911   -6.4494    0.0000 O   0  0  0  0  0  0  0  0  0  0  0  0
   -2.3410   -6.1058    0.0000 C   0  0  0  0  0  0  0  0  0  0  0  0
   -1.8281   -4.6962    0.0000 H   0  0  0  0  0  0  0  0  0  0  0  0
   -3.6401   -5.3559    0.0000 H   0  0  0  0  0  0  0  0  0  0  0  0
   -3.3051   -7.2549    0.0000 C   0  0  0  0  0  0  0  0  0  0  0  0
   -3.8180   -8.6645    0.0000 H   0  0  0  0  0  0  0  0  0  0  0  0
   -2.0060   -8.0048    0.0000 H   0  0  0  0  0  0  0  0  0  0  0  0
   -5.2550   -6.9113    0.0000 C   0  0  0  0  0  0  0  0  0  0  0  0
   -4.7422   -5.5017    0.0000 H   0  0  0  0  0  0  0  0  0  0  0  0
   -6.5541   -6.1615    0.0000 H   0  0  0  0  0  0  0  0  0  0  0  0
   -6.2191   -8.0605    0.0000 C   0  0  0  0  0  0  0  0  0  0  0  0
   -7.6805   -7.8051    0.0000 C   0  0  0  0  0  0  0  0  0  0  0  0
   -8.1911   -6.3947    0.0000 H   0  0  0  0  0  0  0  0  0  0  0  0
   -8.6503   -8.9494    0.0000 C   0  0  0  0  0  0  0  0  0  0  0  0
  -10.1245   -8.6726    0.0000 H   0  0  0  0  0  0  0  0  0  0  0  0
   -8.1652  -10.3567    0.0000 C   0  0  0  0  0  0  0  0  0  0  0  0
   -6.6745  -10.6239    0.0000 C   0  0  0  0  0  0  0  0  0  0  0  0
   -6.1669  -12.0354    0.0000 H   0  0  0  0  0  0  0  0  0  0  0  0
   -5.7046   -9.4796    0.0000 C   0  0  0  0  0  0  0  0  0  0  0  0
   -4.2282   -9.7447    0.0000 H   0  0  0  0  0  0  0  0  0  0  0  0
   -9.1408  -11.4961    0.0000 Cl  0  0  0  0  0  0  0  0  0  0  0  0
    5.2323   -5.8800    0.0000 O   0  0  0  0  0  0  0  0  0  0  0  0
  1  2  1  0  0  0  0 
  1  3  1  0  0  0  0 
  1  4  1  0  0  0  0 
  4  5  1  0  0  0  0 
  4  6  1  0  0  0  0 
  4  7  1  0  0  0  0 
  7  8  1  0  0  0  0 
  7  9  1  0  0  0  0 
  7 10  1  0  0  0  0 
 10 11  1  0  0  0  0 
 11 12  1  0  0  0  0 
 11 13  1  0  0  0  0 
 11 14  1  0  0  0  0 
  1 14  1  0  0  0  0 
 14 15  1  0  0  0  0 
 14 16  1  0  0  0  0 
 10 17  1  0  0  0  0 
 17 18  1  0  0  0  0 
 17 19  1  0  0  0  0 
 17 20  1  0  0  0  0 
 20 21  1  0  0  0  0 
 20 22  1  0  0  0  0 
 20 23  1  0  0  0  0 
 23 24  1  0  0  0  0 
 23 25  1  0  0  0  0 
 23 26  1  0  0  0  0 
 26 27  1  0  0  0  0 
 27 28  1  0  0  0  0 
 27 29  1  0  0  0  0 
 27 30  1  0  0  0  0 
 30 31  1  0  0  0  0 
 30 32  1  0  0  0  0 
 30 33  1  0  0  0  0 
 33 34  1  0  0  0  0 
 33 35  1  0  0  0  0 
 33 36  1  0  0  0  0 
 36 37  2  0  0  0  0 
 37 38  1  0  0  0  0 
 37 39  1  0  0  0  0 
 39 40  1  0  0  0  0 
 39 41  2  0  0  0  0 
 41 42  1  0  0  0  0 
 42 43  1  0  0  0  0 
 42 44  2  0  0  0  0 
 36 44  1  0  0  0  0 
 44 45  1  0  0  0  0 
 41 46  1  0  0  0  0 
 10 47  1  0  0  0  0 
M  CHG  1  10   1
M  CHG  1  47  -1
M  END
> <Rank>
3

> <Priority_score>
0.23555763604447047

> <Reaction_type>
N-oxidation_(tertiary_N)

> <Parent_ID>
65

> <Parent_InChI>
InChI=1S/C17H26ClNO/c18-17-9-7-16(8-10-17)6-4-14-20-15-5-13-19-11-2-1-3-12-19/h7-10H,1-6,11-15H2

> <Parent_SMILES>
Clc1ccc(CCCOCCCN2CCCCC2)cc1

$$$$
Molecule 65_metabolite 4
  CDK     0516241031

 47 48  0  0  0  0  0  0  0  0999 V2000
   -3.7127   -0.0693    0.0000 C   0  0  0  0  0  0  0  0  0  0  0  0
   -4.2259   -1.4788    0.0000 H   0  0  0  0  0  0  0  0  0  0  0  0
   -5.1899    0.1910    0.0000 H   0  0  0  0  0  0  0  0  0  0  0  0
   -3.7132    1.4315    0.0000 C   0  0  0  0  0  0  0  0  0  0  0  0
   -5.1903    1.1707    0.0000 H   0  0  0  0  0  0  0  0  0  0  0  0
   -4.2264    2.8410    0.0000 H   0  0  0  0  0  0  0  0  0  0  0  0
   -2.4142    2.1815    0.0000 C   0  0  0  0  0  0  0  0  0  0  0  0
   -3.3782    3.3307    0.0000 H   0  0  0  0  0  0  0  0  0  0  0  0
   -1.4497    3.3304    0.0000 H   0  0  0  0  0  0  0  0  0  0  0  0
   -1.1146    1.4307    0.0000 N   0  0  0  0  0  0  0  0  0  0  0  0
    0.6001    2.4207    0.0000 C   0  0  0  0  0  0  0  0  0  0  0  0
    0.0871    3.8302    0.0000 H   0  0  0  0  0  0  0  0  0  0  0  0
    1.5643    3.5697    0.0000 H   0  0  0  0  0  0  0  0  0  0  0  0
    1.8991    1.6707    0.0000 C   0  0  0  0  0  0  0  0  0  0  0  0
    2.8633    0.5216    0.0000 H   0  0  0  0  0  0  0  0  0  0  0  0
    0.9350    0.5216    0.0000 H   0  0  0  0  0  0  0  0  0  0  0  0
    3.6139    2.6607    0.0000 C   0  0  0  0  0  0  0  0  0  0  0  0
    2.6497    3.8097    0.0000 H   0  0  0  0  0  0  0  0  0  0  0  0
    4.5780    3.8097    0.0000 H   0  0  0  0  0  0  0  0  0  0  0  0
    5.3286    1.6707    0.0000 O   0  0  0  0  0  0  0  0  0  0  0  0
    6.6276    2.4207    0.0000 C   0  0  0  0  0  0  0  0  0  0  0  0
    5.6635    3.5697    0.0000 H   0  0  0  0  0  0  0  0  0  0  0  0
    7.5918    3.5697    0.0000 H   0  0  0  0  0  0  0  0  0  0  0  0
    7.9267    1.6707    0.0000 C   0  0  0  0  0  0  0  0  0  0  0  0
    9.4039    1.4102    0.0000 H   0  0  0  0  0  0  0  0  0  0  0  0
    8.4397    3.0802    0.0000 H   0  0  0  0  0  0  0  0  0  0  0  0
    7.9267    0.1707    0.0000 C   0  0  0  0  0  0  0  0  0  0  0  0
    6.4495    0.4312    0.0000 H   0  0  0  0  0  0  0  0  0  0  0  0
    7.4136   -1.2389    0.0000 H   0  0  0  0  0  0  0  0  0  0  0  0
    9.2257   -0.5793    0.0000 C   0  0  0  0  0  0  0  0  0  0  0  0
    9.2278   -2.0629    0.0000 C   0  0  0  0  0  0  0  0  0  0  0  0
    7.9274   -2.8105    0.0000 H   0  0  0  0  0  0  0  0  0  0  0  0
   10.5230   -2.8194    0.0000 C   0  0  0  0  0  0  0  0  0  0  0  0
   10.5063   -4.3193    0.0000 H   0  0  0  0  0  0  0  0  0  0  0  0
   11.8249   -2.0974    0.0000 C   0  0  0  0  0  0  0  0  0  0  0  0
   11.8293   -0.5829    0.0000 C   0  0  0  0  0  0  0  0  0  0  0  0
   13.1313    0.1619    0.0000 H   0  0  0  0  0  0  0  0  0  0  0  0
   10.5340    0.1736    0.0000 C   0  0  0  0  0  0  0  0  0  0  0  0
   10.5388    1.6736    0.0000 H   0  0  0  0  0  0  0  0  0  0  0  0
   13.1163   -2.8605    0.0000 Cl  0  0  0  0  0  0  0  0  0  0  0  0
   -1.1142   -0.0702    0.0000 C   0  0  0  0  0  0  0  0  0  0  0  0
    1.7811    0.4410    0.0000 H   0  0  0  0  0  0  0  0  0  0  0  0
   -2.4132   -0.8202    0.0000 C   0  0  0  0  0  0  0  0  0  0  0  0
   -1.4491   -1.9693    0.0000 H   0  0  0  0  0  0  0  0  0  0  0  0
   -3.3776   -1.9690    0.0000 H   0  0  0  0  0  0  0  0  0  0  0  0
   -0.4368   -1.9307    0.0000 O   0  0  0  0  0  0  0  0  0  0  0  0
   -1.4008   -3.0798    0.0000 H   0  0  0  0  0  0  0  0  0  0  0  0
  1  2  1  0  0  0  0 
  1  3  1  0  0  0  0 
  1  4  1  0  0  0  0 
  4  5  1  0  0  0  0 
  4  6  1  0  0  0  0 
  4  7  1  0  0  0  0 
  7  8  1  0  0  0  0 
  7  9  1  0  0  0  0 
  7 10  1  0  0  0  0 
 10 11  1  0  0  0  0 
 11 12  1  0  0  0  0 
 11 13  1  0  0  0  0 
 11 14  1  0  0  0  0 
 14 15  1  0  0  0  0 
 14 16  1  0  0  0  0 
 14 17  1  0  0  0  0 
 17 18  1  0  0  0  0 
 17 19  1  0  0  0  0 
 17 20  1  0  0  0  0 
 20 21  1  0  0  0  0 
 21 22  1  0  0  0  0 
 21 23  1  0  0  0  0 
 21 24  1  0  0  0  0 
 24 25  1  0  0  0  0 
 24 26  1  0  0  0  0 
 24 27  1  0  0  0  0 
 27 28  1  0  0  0  0 
 27 29  1  0  0  0  0 
 27 30  1  0  0  0  0 
 30 31  2  0  0  0  0 
 31 32  1  0  0  0  0 
 31 33  1  0  0  0  0 
 33 34  1  0  0  0  0 
 33 35  2  0  0  0  0 
 35 36  1  0  0  0  0 
 36 37  1  0  0  0  0 
 36 38  2  0  0  0  0 
 30 38  1  0  0  0  0 
 38 39  1  0  0  0  0 
 35 40  1  0  0  0  0 
 10 41  1  0  0  0  0 
 41 42  1  0  0  0  0 
 41 43  1  0  0  0  0 
  1 43  1  0  0  0  0 
 43 44  1  0  0  0  0 
 43 45  1  0  0  0  0 
 41 46  1  0  0  0  0 
 46 47  1  0  0  0  0 
M  END
> <Rank>
3

> <Priority_score>
0.23555763604447047

> <Reaction_type>
aliphatic_hydroxylation_(sec_carbon_next_to_SP2,in_a_ring)

> <Parent_ID>
65

> <Parent_InChI>
InChI=1S/C17H26ClNO/c18-17-9-7-16(8-10-17)6-4-14-20-15-5-13-19-11-2-1-3-12-19/h7-10H,1-6,11-15H2

> <Parent_SMILES>
Clc1ccc(CCCOCCCN2CCCCC2)cc1

$$$$
Molecule 65_metabolite 5
  CDK     0516241031

 45 46  0  0  0  0  0  0  0  0999 V2000
   -3.6162   -0.3150    0.0000 C   0  0  0  0  0  0  0  0  0  0  0  0
   -3.3559    1.1623    0.0000 H   0  0  0  0  0  0  0  0  0  0  0  0
   -5.0257    0.1982    0.0000 H   0  0  0  0  0  0  0  0  0  0  0  0
   -4.3670   -1.6145    0.0000 C   0  0  0  0  0  0  0  0  0  0  0  0
   -5.5159   -0.6501    0.0000 H   0  0  0  0  0  0  0  0  0  0  0  0
   -5.5162   -2.5786    0.0000 H   0  0  0  0  0  0  0  0  0  0  0  0
   -3.6170   -2.9135    0.0000 C   0  0  0  0  0  0  0  0  0  0  0  0
   -5.0265   -3.4267    0.0000 H   0  0  0  0  0  0  0  0  0  0  0  0
   -3.3562   -4.3907    0.0000 H   0  0  0  0  0  0  0  0  0  0  0  0
   -2.1162   -2.9131    0.0000 N   0  0  0  0  0  0  0  0  0  0  0  0
   -1.1262   -4.6278    0.0000 C   0  0  0  0  0  0  0  0  0  0  0  0
   -2.5357   -5.1408    0.0000 H   0  0  0  0  0  0  0  0  0  0  0  0
   -0.8657   -6.1050    0.0000 H   0  0  0  0  0  0  0  0  0  0  0  0
    0.8538   -4.6278    0.0000 C   0  0  0  0  0  0  0  0  0  0  0  0
    2.2633   -4.1148    0.0000 H   0  0  0  0  0  0  0  0  0  0  0  0
    0.5933   -3.1506    0.0000 H   0  0  0  0  0  0  0  0  0  0  0  0
    1.6038   -5.9268    0.0000 C   0  0  0  0  0  0  0  0  0  0  0  0
    0.1943   -6.4399    0.0000 H   0  0  0  0  0  0  0  0  0  0  0  0
    1.8643   -7.4040    0.0000 H   0  0  0  0  0  0  0  0  0  0  0  0
    3.1038   -5.9268    0.0000 O   0  0  0  0  0  0  0  0  0  0  0  0
    4.0938   -7.6416    0.0000 C   0  0  0  0  0  0  0  0  0  0  0  0
    2.6843   -8.1546    0.0000 H   0  0  0  0  0  0  0  0  0  0  0  0
    4.3543   -9.1188    0.0000 H   0  0  0  0  0  0  0  0  0  0  0  0
    5.5938   -7.6416    0.0000 C   0  0  0  0  0  0  0  0  0  0  0  0
    7.0033   -7.1285    0.0000 H   0  0  0  0  0  0  0  0  0  0  0  0
    5.3333   -6.1643    0.0000 H   0  0  0  0  0  0  0  0  0  0  0  0
    6.5838   -9.3563    0.0000 C   0  0  0  0  0  0  0  0  0  0  0  0
    5.1743   -9.8693    0.0000 H   0  0  0  0  0  0  0  0  0  0  0  0
    6.8443  -10.8335    0.0000 H   0  0  0  0  0  0  0  0  0  0  0  0
    8.0838   -9.3563    0.0000 C   0  0  0  0  0  0  0  0  0  0  0  0
    8.8274  -10.6400    0.0000 C   0  0  0  0  0  0  0  0  0  0  0  0
    8.0750  -11.9377    0.0000 H   0  0  0  0  0  0  0  0  0  0  0  0
   10.3273  -10.6476    0.0000 C   0  0  0  0  0  0  0  0  0  0  0  0
   11.0628  -11.9549    0.0000 H   0  0  0  0  0  0  0  0  0  0  0  0
   11.0938   -9.3714    0.0000 C   0  0  0  0  0  0  0  0  0  0  0  0
   10.3404   -8.0576    0.0000 C   0  0  0  0  0  0  0  0  0  0  0  0
   11.0955   -6.7616    0.0000 H   0  0  0  0  0  0  0  0  0  0  0  0
    8.8404   -8.0501    0.0000 C   0  0  0  0  0  0  0  0  0  0  0  0
    8.0946   -6.7486    0.0000 H   0  0  0  0  0  0  0  0  0  0  0  0
   12.5937   -9.3865    0.0000 Cl  0  0  0  0  0  0  0  0  0  0  0  0
   -1.3654   -1.6135    0.0000 C   0  0  0  0  0  0  0  0  0  0  0  0
    0.1346   -1.6138    0.0000 O   0  0  0  0  0  0  0  0  0  0  0  0
   -2.1154   -0.3145    0.0000 C   0  0  0  0  0  0  0  0  0  0  0  0
   -0.7059    0.1987    0.0000 H   0  0  0  0  0  0  0  0  0  0  0  0
   -2.3761    1.1627    0.0000 H   0  0  0  0  0  0  0  0  0  0  0  0
  1  2  1  0  0  0  0 
  1  3  1  0  0  0  0 
  1  4  1  0  0  0  0 
  4  5  1  0  0  0  0 
  4  6  1  0  0  0  0 
  4  7  1  0  0  0  0 
  7  8  1  0  0  0  0 
  7  9  1  0  0  0  0 
  7 10  1  0  0  0  0 
 10 11  1  0  0  0  0 
 11 12  1  0  0  0  0 
 11 13  1  0  0  0  0 
 11 14  1  0  0  0  0 
 14 15  1  0  0  0  0 
 14 16  1  0  0  0  0 
 14 17  1  0  0  0  0 
 17 18  1  0  0  0  0 
 17 19  1  0  0  0  0 
 17 20  1  0  0  0  0 
 20 21  1  0  0  0  0 
 21 22  1  0  0  0  0 
 21 23  1  0  0  0  0 
 21 24  1  0  0  0  0 
 24 25  1  0  0  0  0 
 24 26  1  0  0  0  0 
 24 27  1  0  0  0  0 
 27 28  1  0  0  0  0 
 27 29  1  0  0  0  0 
 27 30  1  0  0  0  0 
 30 31  2  0  0  0  0 
 31 32  1  0  0  0  0 
 31 33  1  0  0  0  0 
 33 34  1  0  0  0  0 
 33 35  2  0  0  0  0 
 35 36  1  0  0  0  0 
 36 37  1  0  0  0  0 
 36 38  2  0  0  0  0 
 30 38  1  0  0  0  0 
 38 39  1  0  0  0  0 
 35 40  1  0  0  0  0 
 10 41  1  0  0  0  0 
 41 42  2  0  0  0  0 
 41 43  1  0  0  0  0 
  1 43  1  0  0  0  0 
 43 44  1  0  0  0  0 
 43 45  1  0  0  0  0 
M  END
> <Rank>
3

> <Priority_score>
0.23555763604447047

> <Reaction_type>
oxidation_(amine_in_a_ring)

> <Parent_ID>
65

> <Parent_InChI>
InChI=1S/C17H26ClNO/c18-17-9-7-16(8-10-17)6-4-14-20-15-5-13-19-11-2-1-3-12-19/h7-10H,1-6,11-15H2

> <Parent_SMILES>
Clc1ccc(CCCOCCCN2CCCCC2)cc1

$$$$
Molecule 65_metabolite 6
  CDK     0516241031

 47 47  0  0  0  0  0  0  0  0999 V2000
  -10.0915   11.9288    0.0000 C   0  0  0  0  0  0  0  0  0  0  0  0
   -8.6846   12.4489    0.0000 H   0  0  0  0  0  0  0  0  0  0  0  0
  -10.3594   13.4047    0.0000 H   0  0  0  0  0  0  0  0  0  0  0  0
   -9.0929   10.2191    0.0000 C   0  0  0  0  0  0  0  0  0  0  0  0
  -10.4999    9.6990    0.0000 H   0  0  0  0  0  0  0  0  0  0  0  0
   -8.8251    8.7432    0.0000 H   0  0  0  0  0  0  0  0  0  0  0  0
   -7.5930   10.2266    0.0000 C   0  0  0  0  0  0  0  0  0  0  0  0
   -6.1860   10.7467    0.0000 H   0  0  0  0  0  0  0  0  0  0  0  0
   -7.8609   11.7025    0.0000 H   0  0  0  0  0  0  0  0  0  0  0  0
   -6.8364    8.9314    0.0000 N   0  0  0  0  0  0  0  0  0  0  0  0
   -7.5799    7.6286    0.0000 H   0  0  0  0  0  0  0  0  0  0  0  0
   -4.8565    8.9413    0.0000 C   0  0  0  0  0  0  0  0  0  0  0  0
   -3.4495    9.4614    0.0000 H   0  0  0  0  0  0  0  0  0  0  0  0
   -5.1244   10.4172    0.0000 H   0  0  0  0  0  0  0  0  0  0  0  0
   -3.8579    7.2316    0.0000 C   0  0  0  0  0  0  0  0  0  0  0  0
   -5.2648    6.7115    0.0000 H   0  0  0  0  0  0  0  0  0  0  0  0
   -3.5900    5.7557    0.0000 H   0  0  0  0  0  0  0  0  0  0  0  0
   -2.3579    7.2391    0.0000 C   0  0  0  0  0  0  0  0  0  0  0  0
   -0.9509    7.7592    0.0000 H   0  0  0  0  0  0  0  0  0  0  0  0
   -2.6258    8.7150    0.0000 H   0  0  0  0  0  0  0  0  0  0  0  0
   -1.3593    5.5294    0.0000 O   0  0  0  0  0  0  0  0  0  0  0  0
    0.1407    5.5369    0.0000 C   0  0  0  0  0  0  0  0  0  0  0  0
    1.5476    6.0570    0.0000 H   0  0  0  0  0  0  0  0  0  0  0  0
   -0.1272    7.0128    0.0000 H   0  0  0  0  0  0  0  0  0  0  0  0
    0.8972    4.2416    0.0000 C   0  0  0  0  0  0  0  0  0  0  0  0
   -0.5097    3.7215    0.0000 H   0  0  0  0  0  0  0  0  0  0  0  0
    1.1651    2.7658    0.0000 H   0  0  0  0  0  0  0  0  0  0  0  0
    2.8772    4.2516    0.0000 C   0  0  0  0  0  0  0  0  0  0  0  0
    4.2841    4.7717    0.0000 H   0  0  0  0  0  0  0  0  0  0  0  0
    2.6093    5.7275    0.0000 H   0  0  0  0  0  0  0  0  0  0  0  0
    3.6337    2.9563    0.0000 C   0  0  0  0  0  0  0  0  0  0  0  0
    2.9002    1.6668    0.0000 C   0  0  0  0  0  0  0  0  0  0  0  0
    1.4002    1.6620    0.0000 H   0  0  0  0  0  0  0  0  0  0  0  0
    3.6502    0.3678    0.0000 C   0  0  0  0  0  0  0  0  0  0  0  0
    2.8923   -0.9267    0.0000 H   0  0  0  0  0  0  0  0  0  0  0  0
    5.1387    0.3496    0.0000 C   0  0  0  0  0  0  0  0  0  0  0  0
    5.8932    1.6628    0.0000 C   0  0  0  0  0  0  0  0  0  0  0  0
    7.3932    1.6644    0.0000 H   0  0  0  0  0  0  0  0  0  0  0  0
    5.1432    2.9618    0.0000 C   0  0  0  0  0  0  0  0  0  0  0  0
    5.8908    4.2622    0.0000 H   0  0  0  0  0  0  0  0  0  0  0  0
    5.8821   -0.9532    0.0000 Cl  0  0  0  0  0  0  0  0  0  0  0  0
  -12.0715   11.9189    0.0000 C   0  0  0  0  0  0  0  0  0  0  0  0
  -13.4785   11.3988    0.0000 H   0  0  0  0  0  0  0  0  0  0  0  0
  -11.8036   10.4430    0.0000 H   0  0  0  0  0  0  0  0  0  0  0  0
  -12.8280   13.2141    0.0000 C   0  0  0  0  0  0  0  0  0  0  0  0
  -14.3280   13.2066    0.0000 H   0  0  0  0  0  0  0  0  0  0  0  0
  -12.0846   14.5169    0.0000 O   0  0  0  0  0  0  0  0  0  0  0  0
  1  2  1  0  0  0  0 
  1  3  1  0  0  0  0 
  1  4  1  0  0  0  0 
  4  5  1  0  0  0  0 
  4  6  1  0  0  0  0 
  4  7  1  0  0  0  0 
  7  8  1  0  0  0  0 
  7  9  1  0  0  0  0 
  7 10  1  0  0  0  0 
 10 11  1  0  0  0  0 
 10 12  1  0  0  0  0 
 12 13  1  0  0  0  0 
 12 14  1  0  0  0  0 
 12 15  1  0  0  0  0 
 15 16  1  0  0  0  0 
 15 17  1  0  0  0  0 
 15 18  1  0  0  0  0 
 18 19  1  0  0  0  0 
 18 20  1  0  0  0  0 
 18 21  1  0  0  0  0 
 21 22  1  0  0  0  0 
 22 23  1  0  0  0  0 
 22 24  1  0  0  0  0 
 22 25  1  0  0  0  0 
 25 26  1  0  0  0  0 
 25 27  1  0  0  0  0 
 25 28  1  0  0  0  0 
 28 29  1  0  0  0  0 
 28 30  1  0  0  0  0 
 28 31  1  0  0  0  0 
 31 32  2  0  0  0  0 
 32 33  1  0  0  0  0 
 32 34  1  0  0  0  0 
 34 35  1  0  0  0  0 
 34 36  2  0  0  0  0 
 36 37  1  0  0  0  0 
 37 38  1  0  0  0  0 
 37 39  2  0  0  0  0 
 31 39  1  0  0  0  0 
 39 40  1  0  0  0  0 
 36 41  1  0  0  0  0 
  1 42  1  0  0  0  0 
 42 43  1  0  0  0  0 
 42 44  1  0  0  0  0 
 42 45  1  0  0  0  0 
 45 46  1  0  0  0  0 
 45 47  2  0  0  0  0 
M  END
> <Rank>
3

> <Priority_score>
0.23555763604447047

> <Reaction_type>
N-dealkylation

> <Parent_ID>
65

> <Parent_InChI>
InChI=1S/C17H26ClNO/c18-17-9-7-16(8-10-17)6-4-14-20-15-5-13-19-11-2-1-3-12-19/h7-10H,1-6,11-15H2

> <Parent_SMILES>
Clc1ccc(CCCOCCCN2CCCCC2)cc1

$$$$
Molecule 65_metabolite 7
  CDK     0516241031

 47 48  0  0  0  0  0  0  0  0999 V2000
    9.5064   -3.4221    0.0000 C   0  0  0  0  0  0  0  0  0  0  0  0
    8.0969   -3.9353    0.0000 H   0  0  0  0  0  0  0  0  0  0  0  0
    9.7672   -4.8993    0.0000 H   0  0  0  0  0  0  0  0  0  0  0  0
   11.0072   -3.4216    0.0000 C   0  0  0  0  0  0  0  0  0  0  0  0
   10.7469   -4.8989    0.0000 H   0  0  0  0  0  0  0  0  0  0  0  0
   12.4167   -3.9348    0.0000 H   0  0  0  0  0  0  0  0  0  0  0  0
   11.7580   -2.1221    0.0000 C   0  0  0  0  0  0  0  0  0  0  0  0
   12.9069   -3.0866    0.0000 H   0  0  0  0  0  0  0  0  0  0  0  0
   11.0080   -0.8231    0.0000 C   0  0  0  0  0  0  0  0  0  0  0  0
   12.4175   -0.3099    0.0000 H   0  0  0  0  0  0  0  0  0  0  0  0
   11.2682    0.6542    0.0000 H   0  0  0  0  0  0  0  0  0  0  0  0
    9.5072   -0.8236    0.0000 N   0  0  0  0  0  0  0  0  0  0  0  0
    8.7564   -2.1231    0.0000 C   0  0  0  0  0  0  0  0  0  0  0  0
    7.6075   -1.1587    0.0000 H   0  0  0  0  0  0  0  0  0  0  0  0
    7.6072   -3.0871    0.0000 H   0  0  0  0  0  0  0  0  0  0  0  0
    8.7572    0.4755    0.0000 C   0  0  0  0  0  0  0  0  0  0  0  0
   10.1667    0.9885    0.0000 H   0  0  0  0  0  0  0  0  0  0  0  0
    8.4967    1.9527    0.0000 H   0  0  0  0  0  0  0  0  0  0  0  0
    7.2572    0.4755    0.0000 C   0  0  0  0  0  0  0  0  0  0  0  0
    5.8477    0.9885    0.0000 H   0  0  0  0  0  0  0  0  0  0  0  0
    7.5177    1.9527    0.0000 H   0  0  0  0  0  0  0  0  0  0  0  0
    6.2672   -1.2393    0.0000 C   0  0  0  0  0  0  0  0  0  0  0  0
    7.4163   -2.2034    0.0000 H   0  0  0  0  0  0  0  0  0  0  0  0
    6.0067   -2.7165    0.0000 H   0  0  0  0  0  0  0  0  0  0  0  0
    4.2872   -1.2393    0.0000 O   0  0  0  0  0  0  0  0  0  0  0  0
    3.5372   -2.5383    0.0000 C   0  0  0  0  0  0  0  0  0  0  0  0
    4.9467   -3.0513    0.0000 H   0  0  0  0  0  0  0  0  0  0  0  0
    3.2767   -4.0155    0.0000 H   0  0  0  0  0  0  0  0  0  0  0  0
    1.5572   -2.5383    0.0000 C   0  0  0  0  0  0  0  0  0  0  0  0
    0.1477   -2.0253    0.0000 H   0  0  0  0  0  0  0  0  0  0  0  0
    1.8177   -1.0611    0.0000 H   0  0  0  0  0  0  0  0  0  0  0  0
    0.8072   -3.8373    0.0000 C   0  0  0  0  0  0  0  0  0  0  0  0
    2.2167   -4.3504    0.0000 H   0  0  0  0  0  0  0  0  0  0  0  0
    0.5467   -5.3145    0.0000 H   0  0  0  0  0  0  0  0  0  0  0  0
   -0.6928   -3.8373    0.0000 C   0  0  0  0  0  0  0  0  0  0  0  0
   -1.4364   -5.1211    0.0000 C   0  0  0  0  0  0  0  0  0  0  0  0
   -0.6840   -6.4188    0.0000 H   0  0  0  0  0  0  0  0  0  0  0  0
   -2.9363   -5.1286    0.0000 C   0  0  0  0  0  0  0  0  0  0  0  0
   -3.6718   -6.4359    0.0000 H   0  0  0  0  0  0  0  0  0  0  0  0
   -3.7028   -3.8525    0.0000 C   0  0  0  0  0  0  0  0  0  0  0  0
   -2.9493   -2.5387    0.0000 C   0  0  0  0  0  0  0  0  0  0  0  0
   -3.7045   -1.2426    0.0000 H   0  0  0  0  0  0  0  0  0  0  0  0
   -1.4494   -2.5311    0.0000 C   0  0  0  0  0  0  0  0  0  0  0  0
   -0.7035   -1.2297    0.0000 H   0  0  0  0  0  0  0  0  0  0  0  0
   -5.2027   -3.8676    0.0000 Cl  0  0  0  0  0  0  0  0  0  0  0  0
   12.9072   -1.1581    0.0000 O   0  0  0  0  0  0  0  0  0  0  0  0
   14.3167   -1.6712    0.0000 H   0  0  0  0  0  0  0  0  0  0  0  0
  1  2  1  0  0  0  0 
  1  3  1  0  0  0  0 
  1  4  1  0  0  0  0 
  4  5  1  0  0  0  0 
  4  6  1  0  0  0  0 
  4  7  1  0  0  0  0 
  7  8  1  0  0  0  0 
  7  9  1  0  0  0  0 
  9 10  1  0  0  0  0 
  9 11  1  0  0  0  0 
  9 12  1  0  0  0  0 
 12 13  1  0  0  0  0 
  1 13  1  0  0  0  0 
 13 14  1  0  0  0  0 
 13 15  1  0  0  0  0 
 12 16  1  0  0  0  0 
 16 17  1  0  0  0  0 
 16 18  1  0  0  0  0 
 16 19  1  0  0  0  0 
 19 20  1  0  0  0  0 
 19 21  1  0  0  0  0 
 19 22  1  0  0  0  0 
 22 23  1  0  0  0  0 
 22 24  1  0  0  0  0 
 22 25  1  0  0  0  0 
 25 26  1  0  0  0  0 
 26 27  1  0  0  0  0 
 26 28  1  0  0  0  0 
 26 29  1  0  0  0  0 
 29 30  1  0  0  0  0 
 29 31  1  0  0  0  0 
 29 32  1  0  0  0  0 
 32 33  1  0  0  0  0 
 32 34  1  0  0  0  0 
 32 35  1  0  0  0  0 
 35 36  2  0  0  0  0 
 36 37  1  0  0  0  0 
 36 38  1  0  0  0  0 
 38 39  1  0  0  0  0 
 38 40  2  0  0  0  0 
 40 41  1  0  0  0  0 
 41 42  1  0  0  0  0 
 41 43  2  0  0  0  0 
 35 43  1  0  0  0  0 
 43 44  1  0  0  0  0 
 40 45  1  0  0  0  0 
  7 46  1  0  0  0  0 
 46 47  1  0  0  0  0 
M  END
> <Rank>
3

> <Priority_score>
0.23555763604447047

> <Reaction_type>
aliphatic_hydroxylation_(sec_carbon_in_a_ringA)

> <Parent_ID>
65

> <Parent_InChI>
InChI=1S/C17H26ClNO/c18-17-9-7-16(8-10-17)6-4-14-20-15-5-13-19-11-2-1-3-12-19/h7-10H,1-6,11-15H2

> <Parent_SMILES>
Clc1ccc(CCCOCCCN2CCCCC2)cc1

$$$$
Molecule 65_metabolite 8
  CDK     0516241031

 32 32  0  0  0  0  0  0  0  0999 V2000
   -0.9602    3.8892    0.0000 C   0  0  0  0  0  0  0  0  0  0  0  0
   -2.3671    3.3691    0.0000 H   0  0  0  0  0  0  0  0  0  0  0  0
   -0.6923    2.4133    0.0000 H   0  0  0  0  0  0  0  0  0  0  0  0
    1.0198    3.8992    0.0000 C   0  0  0  0  0  0  0  0  0  0  0  0
    2.4268    4.4193    0.0000 H   0  0  0  0  0  0  0  0  0  0  0  0
    0.7519    5.3751    0.0000 H   0  0  0  0  0  0  0  0  0  0  0  0
    1.7763    2.6039    0.0000 C   0  0  0  0  0  0  0  0  0  0  0  0
    1.0428    1.3144    0.0000 C   0  0  0  0  0  0  0  0  0  0  0  0
   -0.4572    1.3096    0.0000 H   0  0  0  0  0  0  0  0  0  0  0  0
    1.7928    0.0154    0.0000 C   0  0  0  0  0  0  0  0  0  0  0  0
    1.0349   -1.2791    0.0000 H   0  0  0  0  0  0  0  0  0  0  0  0
    3.2813   -0.0028    0.0000 C   0  0  0  0  0  0  0  0  0  0  0  0
    4.0358    1.3104    0.0000 C   0  0  0  0  0  0  0  0  0  0  0  0
    5.5358    1.3119    0.0000 H   0  0  0  0  0  0  0  0  0  0  0  0
    3.2858    2.6094    0.0000 C   0  0  0  0  0  0  0  0  0  0  0  0
    4.0335    3.9098    0.0000 H   0  0  0  0  0  0  0  0  0  0  0  0
    4.0248   -1.3056    0.0000 Cl  0  0  0  0  0  0  0  0  0  0  0  0
   -1.7167    5.1845    0.0000 C   0  0  0  0  0  0  0  0  0  0  0  0
   -0.3097    5.7046    0.0000 H   0  0  0  0  0  0  0  0  0  0  0  0
   -1.9846    6.6604    0.0000 H   0  0  0  0  0  0  0  0  0  0  0  0
   -3.6967    5.1745    0.0000 O   0  0  0  0  0  0  0  0  0  0  0  0
   -4.4532    6.4698    0.0000 C   0  0  0  0  0  0  0  0  0  0  0  0
   -3.0462    6.9899    0.0000 H   0  0  0  0  0  0  0  0  0  0  0  0
   -4.7211    7.9457    0.0000 H   0  0  0  0  0  0  0  0  0  0  0  0
   -5.9531    6.4623    0.0000 C   0  0  0  0  0  0  0  0  0  0  0  0
   -7.3601    5.9422    0.0000 H   0  0  0  0  0  0  0  0  0  0  0  0
   -5.6853    4.9864    0.0000 H   0  0  0  0  0  0  0  0  0  0  0  0
   -6.7097    7.7575    0.0000 C   0  0  0  0  0  0  0  0  0  0  0  0
   -7.8539    6.7876    0.0000 H   0  0  0  0  0  0  0  0  0  0  0  0
   -7.8636    8.7159    0.0000 H   0  0  0  0  0  0  0  0  0  0  0  0
   -5.9662    9.0603    0.0000 O   0  0  0  0  0  0  0  0  0  0  0  0
   -6.7227   10.3556    0.0000 H   0  0  0  0  0  0  0  0  0  0  0  0
  1  2  1  0  0  0  0 
  1  3  1  0  0  0  0 
  1  4  1  0  0  0  0 
  4  5  1  0  0  0  0 
  4  6  1  0  0  0  0 
  4  7  1  0  0  0  0 
  7  8  2  0  0  0  0 
  8  9  1  0  0  0  0 
  8 10  1  0  0  0  0 
 10 11  1  0  0  0  0 
 10 12  2  0  0  0  0 
 12 13  1  0  0  0  0 
 13 14  1  0  0  0  0 
 13 15  2  0  0  0  0 
  7 15  1  0  0  0  0 
 15 16  1  0  0  0  0 
 12 17  1  0  0  0  0 
  1 18  1  0  0  0  0 
 18 19  1  0  0  0  0 
 18 20  1  0  0  0  0 
 18 21  1  0  0  0  0 
 21 22  1  0  0  0  0 
 22 23  1  0  0  0  0 
 22 24  1  0  0  0  0 
 22 25  1  0  0  0  0 
 25 26  1  0  0  0  0 
 25 27  1  0  0  0  0 
 25 28  1  0  0  0  0 
 28 29  1  0  0  0  0 
 28 30  1  0  0  0  0 
 28 31  1  0  0  0  0 
 31 32  1  0  0  0  0 
M  END
> <Rank>
8

> <Priority_score>
0.216

> <Reaction_type>
N-dealkylation_(tertiaryN-CH2-alkyl)

> <Parent_ID>
65

> <Parent_InChI>
InChI=1S/C17H26ClNO/c18-17-9-7-16(8-10-17)6-4-14-20-15-5-13-19-11-2-1-3-12-19/h7-10H,1-6,11-15H2

> <Parent_SMILES>
Clc1ccc(CCCOCCCN2CCCCC2)cc1

$$$$
Molecule 65_metabolite 9
  CDK     0516241031

 17 17  0  0  0  0  0  0  0  0999 V2000
   -0.0000   -1.8508    0.0000 C   0  0  0  0  0  0  0  0  0  0  0  0
   -0.9641   -3.0000    0.0000 H   0  0  0  0  0  0  0  0  0  0  0  0
    0.9641   -3.0000    0.0000 H   0  0  0  0  0  0  0  0  0  0  0  0
    1.3000   -1.1008    0.0000 C   0  0  0  0  0  0  0  0  0  0  0  0
    1.8127   -2.5105    0.0000 H   0  0  0  0  0  0  0  0  0  0  0  0
    2.7772   -0.8405    0.0000 H   0  0  0  0  0  0  0  0  0  0  0  0
    1.3000    0.3992    0.0000 C   0  0  0  0  0  0  0  0  0  0  0  0
    2.7772    0.1389    0.0000 H   0  0  0  0  0  0  0  0  0  0  0  0
    1.8127    1.8088    0.0000 H   0  0  0  0  0  0  0  0  0  0  0  0
    0.0000    1.1492    0.0000 N   0  0  0  0  0  0  0  0  0  0  0  0
    0.0000    2.6492    0.0000 H   0  0  0  0  0  0  0  0  0  0  0  0
   -1.3000    0.3992    0.0000 C   0  0  0  0  0  0  0  0  0  0  0  0
   -1.8127    1.8088    0.0000 H   0  0  0  0  0  0  0  0  0  0  0  0
   -2.7772    0.1389    0.0000 H   0  0  0  0  0  0  0  0  0  0  0  0
   -1.3000   -1.1008    0.0000 C   0  0  0  0  0  0  0  0  0  0  0  0
   -2.7772   -0.8405    0.0000 H   0  0  0  0  0  0  0  0  0  0  0  0
   -1.8127   -2.5105    0.0000 H   0  0  0  0  0  0  0  0  0  0  0  0
  1  2  1  0  0  0  0 
  1  3  1  0  0  0  0 
  1  4  1  0  0  0  0 
  4  5  1  0  0  0  0 
  4  6  1  0  0  0  0 
  4  7  1  0  0  0  0 
  7  8  1  0  0  0  0 
  7  9  1  0  0  0  0 
  7 10  1  0  0  0  0 
 10 11  1  0  0  0  0 
 10 12  1  0  0  0  0 
 12 13  1  0  0  0  0 
 12 14  1  0  0  0  0 
 12 15  1  0  0  0  0 
  1 15  1  0  0  0  0 
 15 16  1  0  0  0  0 
 15 17  1  0  0  0  0 
M  END
> <Rank>
8

> <Priority_score>
0.216

> <Reaction_type>
N-dealkylation_(tertiaryN-CH2-alkyl)

> <Parent_ID>
65

> <Parent_InChI>
InChI=1S/C17H26ClNO/c18-17-9-7-16(8-10-17)6-4-14-20-15-5-13-19-11-2-1-3-12-19/h7-10H,1-6,11-15H2

> <Parent_SMILES>
Clc1ccc(CCCOCCCN2CCCCC2)cc1

$$$$
Molecule 65_metabolite 10
  CDK     0516241031

 30 30  0  0  0  0  0  0  0  0999 V2000
   -1.3348    3.7875    0.0000 C   0  0  0  0  0  0  0  0  0  0  0  0
   -2.7418    3.2674    0.0000 H   0  0  0  0  0  0  0  0  0  0  0  0
   -1.0669    2.3116    0.0000 H   0  0  0  0  0  0  0  0  0  0  0  0
    0.6451    3.7975    0.0000 C   0  0  0  0  0  0  0  0  0  0  0  0
    2.0521    4.3176    0.0000 H   0  0  0  0  0  0  0  0  0  0  0  0
    0.3773    5.2734    0.0000 H   0  0  0  0  0  0  0  0  0  0  0  0
    1.4017    2.5022    0.0000 C   0  0  0  0  0  0  0  0  0  0  0  0
    0.6682    1.2127    0.0000 C   0  0  0  0  0  0  0  0  0  0  0  0
   -0.8318    1.2079    0.0000 H   0  0  0  0  0  0  0  0  0  0  0  0
    1.4182   -0.0863    0.0000 C   0  0  0  0  0  0  0  0  0  0  0  0
    0.6602   -1.3808    0.0000 H   0  0  0  0  0  0  0  0  0  0  0  0
    2.9067   -0.1045    0.0000 C   0  0  0  0  0  0  0  0  0  0  0  0
    3.6612    1.2087    0.0000 C   0  0  0  0  0  0  0  0  0  0  0  0
    5.1612    1.2102    0.0000 H   0  0  0  0  0  0  0  0  0  0  0  0
    2.9112    2.5077    0.0000 C   0  0  0  0  0  0  0  0  0  0  0  0
    3.6588    3.8081    0.0000 H   0  0  0  0  0  0  0  0  0  0  0  0
    3.6501   -1.4073    0.0000 Cl  0  0  0  0  0  0  0  0  0  0  0  0
   -2.0913    5.0828    0.0000 C   0  0  0  0  0  0  0  0  0  0  0  0
   -0.6844    5.6029    0.0000 H   0  0  0  0  0  0  0  0  0  0  0  0
   -2.3592    6.5587    0.0000 H   0  0  0  0  0  0  0  0  0  0  0  0
   -4.0713    5.0728    0.0000 O   0  0  0  0  0  0  0  0  0  0  0  0
   -4.8278    6.3681    0.0000 C   0  0  0  0  0  0  0  0  0  0  0  0
   -3.4209    6.8882    0.0000 H   0  0  0  0  0  0  0  0  0  0  0  0
   -5.0957    7.8440    0.0000 H   0  0  0  0  0  0  0  0  0  0  0  0
   -6.3278    6.3605    0.0000 C   0  0  0  0  0  0  0  0  0  0  0  0
   -7.7348    5.8404    0.0000 H   0  0  0  0  0  0  0  0  0  0  0  0
   -6.0599    4.8847    0.0000 H   0  0  0  0  0  0  0  0  0  0  0  0
   -7.0843    7.6558    0.0000 C   0  0  0  0  0  0  0  0  0  0  0  0
   -8.5843    7.6483    0.0000 H   0  0  0  0  0  0  0  0  0  0  0  0
   -6.3409    8.9586    0.0000 O   0  0  0  0  0  0  0  0  0  0  0  0
  1  2  1  0  0  0  0 
  1  3  1  0  0  0  0 
  1  4  1  0  0  0  0 
  4  5  1  0  0  0  0 
  4  6  1  0  0  0  0 
  4  7  1  0  0  0  0 
  7  8  2  0  0  0  0 
  8  9  1  0  0  0  0 
  8 10  1  0  0  0  0 
 10 11  1  0  0  0  0 
 10 12  2  0  0  0  0 
 12 13  1  0  0  0  0 
 13 14  1  0  0  0  0 
 13 15  2  0  0  0  0 
  7 15  1  0  0  0  0 
 15 16  1  0  0  0  0 
 12 17  1  0  0  0  0 
  1 18  1  0  0  0  0 
 18 19  1  0  0  0  0 
 18 20  1  0  0  0  0 
 18 21  1  0  0  0  0 
 21 22  1  0  0  0  0 
 22 23  1  0  0  0  0 
 22 24  1  0  0  0  0 
 22 25  1  0  0  0  0 
 25 26  1  0  0  0  0 
 25 27  1  0  0  0  0 
 25 28  1  0  0  0  0 
 28 29  1  0  0  0  0 
 28 30  2  0  0  0  0 
M  END
> <Rank>
8

> <Priority_score>
0.216

> <Reaction_type>
N-dealkylation

> <Parent_ID>
65

> <Parent_InChI>
InChI=1S/C17H26ClNO/c18-17-9-7-16(8-10-17)6-4-14-20-15-5-13-19-11-2-1-3-12-19/h7-10H,1-6,11-15H2

> <Parent_SMILES>
Clc1ccc(CCCOCCCN2CCCCC2)cc1

$$$$
Molecule 65_metabolite 11
  CDK     0516241031

 47 48  0  0  0  0  0  0  0  0999 V2000
   -0.8314    1.9300    0.0000 C   0  0  0  0  0  0  0  0  0  0  0  0
    0.1327    3.0792    0.0000 H   0  0  0  0  0  0  0  0  0  0  0  0
   -1.7954    3.0792    0.0000 H   0  0  0  0  0  0  0  0  0  0  0  0
   -2.1314    1.1800    0.0000 C   0  0  0  0  0  0  0  0  0  0  0  0
   -2.6441    2.5896    0.0000 H   0  0  0  0  0  0  0  0  0  0  0  0
   -3.6086    0.9197    0.0000 H   0  0  0  0  0  0  0  0  0  0  0  0
   -2.1314   -0.3200    0.0000 C   0  0  0  0  0  0  0  0  0  0  0  0
   -3.6086   -0.0597    0.0000 H   0  0  0  0  0  0  0  0  0  0  0  0
   -3.0953   -1.4693    0.0000 H   0  0  0  0  0  0  0  0  0  0  0  0
   -0.8314   -1.0700    0.0000 N   0  0  0  0  0  0  0  0  0  0  0  0
    0.4686   -0.3200    0.0000 C   0  0  0  0  0  0  0  0  0  0  0  0
    0.9813   -1.7296    0.0000 H   0  0  0  0  0  0  0  0  0  0  0  0
    1.9459   -0.0597    0.0000 H   0  0  0  0  0  0  0  0  0  0  0  0
    0.4686    1.1800    0.0000 C   0  0  0  0  0  0  0  0  0  0  0  0
    1.9459    0.9197    0.0000 H   0  0  0  0  0  0  0  0  0  0  0  0
    0.9813    2.5896    0.0000 H   0  0  0  0  0  0  0  0  0  0  0  0
   -0.8314   -2.5700    0.0000 C   0  0  0  0  0  0  0  0  0  0  0  0
   -2.3086   -2.3095    0.0000 H   0  0  0  0  0  0  0  0  0  0  0  0
    0.4677   -3.3200    0.0000 C   0  0  0  0  0  0  0  0  0  0  0  0
    1.4318   -4.4691    0.0000 H   0  0  0  0  0  0  0  0  0  0  0  0
   -0.4965   -4.4691    0.0000 H   0  0  0  0  0  0  0  0  0  0  0  0
    2.1824   -2.3300    0.0000 C   0  0  0  0  0  0  0  0  0  0  0  0
    1.6694   -0.9205    0.0000 H   0  0  0  0  0  0  0  0  0  0  0  0
    3.1466   -1.1809    0.0000 H   0  0  0  0  0  0  0  0  0  0  0  0
    3.8971   -3.3200    0.0000 O   0  0  0  0  0  0  0  0  0  0  0  0
    5.1962   -2.5700    0.0000 C   0  0  0  0  0  0  0  0  0  0  0  0
    4.2320   -1.4209    0.0000 H   0  0  0  0  0  0  0  0  0  0  0  0
    6.1603   -1.4209    0.0000 H   0  0  0  0  0  0  0  0  0  0  0  0
    6.9109   -3.5600    0.0000 C   0  0  0  0  0  0  0  0  0  0  0  0
    7.8751   -4.7091    0.0000 H   0  0  0  0  0  0  0  0  0  0  0  0
    5.9467   -4.7091    0.0000 H   0  0  0  0  0  0  0  0  0  0  0  0
    8.2099   -2.8100    0.0000 C   0  0  0  0  0  0  0  0  0  0  0  0
    7.2457   -1.6609    0.0000 H   0  0  0  0  0  0  0  0  0  0  0  0
    9.1741   -1.6609    0.0000 H   0  0  0  0  0  0  0  0  0  0  0  0
    9.5090   -3.5600    0.0000 C   0  0  0  0  0  0  0  0  0  0  0  0
   10.7948   -2.8200    0.0000 C   0  0  0  0  0  0  0  0  0  0  0  0
   10.7921   -1.3200    0.0000 H   0  0  0  0  0  0  0  0  0  0  0  0
   12.0976   -3.5635    0.0000 C   0  0  0  0  0  0  0  0  0  0  0  0
   13.3882   -2.7991    0.0000 H   0  0  0  0  0  0  0  0  0  0  0  0
   12.1232   -5.0519    0.0000 C   0  0  0  0  0  0  0  0  0  0  0  0
   10.8139   -5.8130    0.0000 C   0  0  0  0  0  0  0  0  0  0  0  0
   10.8198   -7.3130    0.0000 H   0  0  0  0  0  0  0  0  0  0  0  0
    9.5111   -5.0695    0.0000 C   0  0  0  0  0  0  0  0  0  0  0  0
    8.2144   -5.8237    0.0000 H   0  0  0  0  0  0  0  0  0  0  0  0
   13.4298   -5.7888    0.0000 Cl  0  0  0  0  0  0  0  0  0  0  0  0
   -1.3444   -3.9795    0.0000 O   0  0  0  0  0  0  0  0  0  0  0  0
   -2.8216   -4.2400    0.0000 H   0  0  0  0  0  0  0  0  0  0  0  0
  1  2  1  0  0  0  0 
  1  3  1  0  0  0  0 
  1  4  1  0  0  0  0 
  4  5  1  0  0  0  0 
  4  6  1  0  0  0  0 
  4  7  1  0  0  0  0 
  7  8  1  0  0  0  0 
  7  9  1  0  0  0  0 
  7 10  1  0  0  0  0 
 10 11  1  0  0  0  0 
 11 12  1  0  0  0  0 
 11 13  1  0  0  0  0 
 11 14  1  0  0  0  0 
  1 14  1  0  0  0  0 
 14 15  1  0  0  0  0 
 14 16  1  0  0  0  0 
 10 17  1  0  0  0  0 
 17 18  1  0  0  0  0 
 17 19  1  0  0  0  0 
 19 20  1  0  0  0  0 
 19 21  1  0  0  0  0 
 19 22  1  0  0  0  0 
 22 23  1  0  0  0  0 
 22 24  1  0  0  0  0 
 22 25  1  0  0  0  0 
 25 26  1  0  0  0  0 
 26 27  1  0  0  0  0 
 26 28  1  0  0  0  0 
 26 29  1  0  0  0  0 
 29 30  1  0  0  0  0 
 29 31  1  0  0  0  0 
 29 32  1  0  0  0  0 
 32 33  1  0  0  0  0 
 32 34  1  0  0  0  0 
 32 35  1  0  0  0  0 
 35 36  2  0  0  0  0 
 36 37  1  0  0  0  0 
 36 38  1  0  0  0  0 
 38 39  1  0  0  0  0 
 38 40  2  0  0  0  0 
 40 41  1  0  0  0  0 
 41 42  1  0  0  0  0 
 41 43  2  0  0  0  0 
 35 43  1  0  0  0  0 
 43 44  1  0  0  0  0 
 40 45  1  0  0  0  0 
 17 46  1  0  0  0  0 
 46 47  1  0  0  0  0 
M  END
> <Rank>
11

> <Priority_score>
0.2

> <Reaction_type>
aliphatic hydroxylation

> <Parent_ID>
65

> <Parent_InChI>
InChI=1S/C17H26ClNO/c18-17-9-7-16(8-10-17)6-4-14-20-15-5-13-19-11-2-1-3-12-19/h7-10H,1-6,11-15H2

> <Parent_SMILES>
Clc1ccc(CCCOCCCN2CCCCC2)cc1

$$$$
Molecule 65_metabolite 12
  CDK     0516241031

 47 48  0  0  0  0  0  0  0  0999 V2000
    6.9109   -3.9900    0.0000 C   0  0  0  0  0  0  0  0  0  0  0  0
    7.8751   -5.1391    0.0000 H   0  0  0  0  0  0  0  0  0  0  0  0
    5.9467   -5.1391    0.0000 H   0  0  0  0  0  0  0  0  0  0  0  0
    8.2099   -3.2400    0.0000 C   0  0  0  0  0  0  0  0  0  0  0  0
    7.2457   -2.0909    0.0000 H   0  0  0  0  0  0  0  0  0  0  0  0
    9.1741   -2.0909    0.0000 H   0  0  0  0  0  0  0  0  0  0  0  0
    9.5090   -3.9900    0.0000 C   0  0  0  0  0  0  0  0  0  0  0  0
   10.7948   -3.2500    0.0000 C   0  0  0  0  0  0  0  0  0  0  0  0
   10.7921   -1.7500    0.0000 H   0  0  0  0  0  0  0  0  0  0  0  0
   12.0976   -3.9935    0.0000 C   0  0  0  0  0  0  0  0  0  0  0  0
   13.3882   -3.2291    0.0000 H   0  0  0  0  0  0  0  0  0  0  0  0
   12.1232   -5.4819    0.0000 C   0  0  0  0  0  0  0  0  0  0  0  0
   10.8139   -6.2430    0.0000 C   0  0  0  0  0  0  0  0  0  0  0  0
   10.8198   -7.7430    0.0000 H   0  0  0  0  0  0  0  0  0  0  0  0
    9.5111   -5.4995    0.0000 C   0  0  0  0  0  0  0  0  0  0  0  0
    8.2144   -6.2537    0.0000 H   0  0  0  0  0  0  0  0  0  0  0  0
   13.4298   -6.2188    0.0000 Cl  0  0  0  0  0  0  0  0  0  0  0  0
    5.1962   -3.0000    0.0000 C   0  0  0  0  0  0  0  0  0  0  0  0
    4.2320   -1.8509    0.0000 H   0  0  0  0  0  0  0  0  0  0  0  0
    6.1603   -1.8509    0.0000 H   0  0  0  0  0  0  0  0  0  0  0  0
    3.8971   -3.7500    0.0000 O   0  0  0  0  0  0  0  0  0  0  0  0
    2.1824   -2.7600    0.0000 C   0  0  0  0  0  0  0  0  0  0  0  0
    1.6694   -1.3505    0.0000 H   0  0  0  0  0  0  0  0  0  0  0  0
    3.1466   -1.6109    0.0000 H   0  0  0  0  0  0  0  0  0  0  0  0
    0.4677   -3.7500    0.0000 C   0  0  0  0  0  0  0  0  0  0  0  0
    1.4318   -4.8991    0.0000 H   0  0  0  0  0  0  0  0  0  0  0  0
   -0.4965   -4.8991    0.0000 H   0  0  0  0  0  0  0  0  0  0  0  0
   -0.8314   -3.0000    0.0000 C   0  0  0  0  0  0  0  0  0  0  0  0
   -2.3086   -2.7395    0.0000 H   0  0  0  0  0  0  0  0  0  0  0  0
   -1.3444   -4.4095    0.0000 H   0  0  0  0  0  0  0  0  0  0  0  0
   -0.8314   -1.5000    0.0000 N   0  0  0  0  0  0  0  0  0  0  0  0
   -2.1314   -0.7500    0.0000 C   0  0  0  0  0  0  0  0  0  0  0  0
   -3.6086   -0.4897    0.0000 H   0  0  0  0  0  0  0  0  0  0  0  0
   -3.0953   -1.8993    0.0000 H   0  0  0  0  0  0  0  0  0  0  0  0
   -2.1314    0.7500    0.0000 C   0  0  0  0  0  0  0  0  0  0  0  0
   -2.6441    2.1596    0.0000 H   0  0  0  0  0  0  0  0  0  0  0  0
   -3.6086    0.4897    0.0000 H   0  0  0  0  0  0  0  0  0  0  0  0
   -0.8314    1.5000    0.0000 C   0  0  0  0  0  0  0  0  0  0  0  0
    0.1327    2.6492    0.0000 H   0  0  0  0  0  0  0  0  0  0  0  0
    0.4686    0.7500    0.0000 C   0  0  0  0  0  0  0  0  0  0  0  0
    1.9459    0.4897    0.0000 H   0  0  0  0  0  0  0  0  0  0  0  0
    0.9813    2.1596    0.0000 H   0  0  0  0  0  0  0  0  0  0  0  0
    0.4686   -0.7500    0.0000 C   0  0  0  0  0  0  0  0  0  0  0  0
    0.9813   -2.1596    0.0000 H   0  0  0  0  0  0  0  0  0  0  0  0
    1.9459   -0.4897    0.0000 H   0  0  0  0  0  0  0  0  0  0  0  0
   -1.7954    2.6492    0.0000 O   0  0  0  0  0  0  0  0  0  0  0  0
   -1.2823    4.0587    0.0000 H   0  0  0  0  0  0  0  0  0  0  0  0
  1  2  1  0  0  0  0 
  1  3  1  0  0  0  0 
  1  4  1  0  0  0  0 
  4  5  1  0  0  0  0 
  4  6  1  0  0  0  0 
  4  7  1  0  0  0  0 
  7  8  2  0  0  0  0 
  8  9  1  0  0  0  0 
  8 10  1  0  0  0  0 
 10 11  1  0  0  0  0 
 10 12  2  0  0  0  0 
 12 13  1  0  0  0  0 
 13 14  1  0  0  0  0 
 13 15  2  0  0  0  0 
  7 15  1  0  0  0  0 
 15 16  1  0  0  0  0 
 12 17  1  0  0  0  0 
  1 18  1  0  0  0  0 
 18 19  1  0  0  0  0 
 18 20  1  0  0  0  0 
 18 21  1  0  0  0  0 
 21 22  1  0  0  0  0 
 22 23  1  0  0  0  0 
 22 24  1  0  0  0  0 
 22 25  1  0  0  0  0 
 25 26  1  0  0  0  0 
 25 27  1  0  0  0  0 
 25 28  1  0  0  0  0 
 28 29  1  0  0  0  0 
 28 30  1  0  0  0  0 
 28 31  1  0  0  0  0 
 31 32  1  0  0  0  0 
 32 33  1  0  0  0  0 
 32 34  1  0  0  0  0 
 32 35  1  0  0  0  0 
 35 36  1  0  0  0  0 
 35 37  1  0  0  0  0 
 35 38  1  0  0  0  0 
 38 39  1  0  0  0  0 
 38 40  1  0  0  0  0 
 40 41  1  0  0  0  0 
 40 42  1  0  0  0  0 
 40 43  1  0  0  0  0 
 31 43  1  0  0  0  0 
 43 44  1  0  0  0  0 
 43 45  1  0  0  0  0 
 38 46  1  0  0  0  0 
 46 47  1  0  0  0  0 
M  END
> <Rank>
12

> <Priority_score>
0.172

> <Reaction_type>
aliphatic_hydroxylation_(sec_carbon_in_a_ringA)

> <Parent_ID>
65

> <Parent_InChI>
InChI=1S/C17H26ClNO/c18-17-9-7-16(8-10-17)6-4-14-20-15-5-13-19-11-2-1-3-12-19/h7-10H,1-6,11-15H2

> <Parent_SMILES>
Clc1ccc(CCCOCCCN2CCCCC2)cc1

$$$$
Molecule 65_metabolite 13
  CDK     0516241031

 27 27  0  0  0  0  0  0  0  0999 V2000
   -4.3128   -5.0600    0.0000 C   0  0  0  0  0  0  0  0  0  0  0  0
   -4.8260   -6.4695    0.0000 H   0  0  0  0  0  0  0  0  0  0  0  0
   -5.7900   -4.7997    0.0000 H   0  0  0  0  0  0  0  0  0  0  0  0
   -4.3133   -3.5592    0.0000 C   0  0  0  0  0  0  0  0  0  0  0  0
   -5.7904   -3.8200    0.0000 H   0  0  0  0  0  0  0  0  0  0  0  0
   -4.8265   -2.1497    0.0000 H   0  0  0  0  0  0  0  0  0  0  0  0
   -3.0142   -2.8092    0.0000 C   0  0  0  0  0  0  0  0  0  0  0  0
   -3.9783   -1.6600    0.0000 H   0  0  0  0  0  0  0  0  0  0  0  0
   -2.0498   -1.6603    0.0000 H   0  0  0  0  0  0  0  0  0  0  0  0
   -1.7147   -3.5600    0.0000 N   0  0  0  0  0  0  0  0  0  0  0  0
   -1.7142   -5.0608    0.0000 C   0  0  0  0  0  0  0  0  0  0  0  0
   -0.2371   -4.8000    0.0000 H   0  0  0  0  0  0  0  0  0  0  0  0
   -1.2011   -6.4703    0.0000 H   0  0  0  0  0  0  0  0  0  0  0  0
   -3.0133   -5.8108    0.0000 C   0  0  0  0  0  0  0  0  0  0  0  0
   -2.0492   -6.9600    0.0000 H   0  0  0  0  0  0  0  0  0  0  0  0
   -3.9777   -6.9597    0.0000 H   0  0  0  0  0  0  0  0  0  0  0  0
   -0.0000   -2.5700    0.0000 C   0  0  0  0  0  0  0  0  0  0  0  0
   -0.9642   -1.4209    0.0000 H   0  0  0  0  0  0  0  0  0  0  0  0
    0.9642   -1.4209    0.0000 H   0  0  0  0  0  0  0  0  0  0  0  0
    1.2990   -3.3200    0.0000 C   0  0  0  0  0  0  0  0  0  0  0  0
    2.7762   -3.5805    0.0000 H   0  0  0  0  0  0  0  0  0  0  0  0
    1.8121   -1.9105    0.0000 H   0  0  0  0  0  0  0  0  0  0  0  0
    1.2990   -4.8200    0.0000 C   0  0  0  0  0  0  0  0  0  0  0  0
    2.7762   -4.5595    0.0000 H   0  0  0  0  0  0  0  0  0  0  0  0
    1.8121   -6.2295    0.0000 H   0  0  0  0  0  0  0  0  0  0  0  0
   -0.0000   -5.5700    0.0000 O   0  0  0  0  0  0  0  0  0  0  0  0
   -0.0000   -7.0700    0.0000 H   0  0  0  0  0  0  0  0  0  0  0  0
  1  2  1  0  0  0  0 
  1  3  1  0  0  0  0 
  1  4  1  0  0  0  0 
  4  5  1  0  0  0  0 
  4  6  1  0  0  0  0 
  4  7  1  0  0  0  0 
  7  8  1  0  0  0  0 
  7  9  1  0  0  0  0 
  7 10  1  0  0  0  0 
 10 11  1  0  0  0  0 
 11 12  1  0  0  0  0 
 11 13  1  0  0  0  0 
 11 14  1  0  0  0  0 
  1 14  1  0  0  0  0 
 14 15  1  0  0  0  0 
 14 16  1  0  0  0  0 
 10 17  1  0  0  0  0 
 17 18  1  0  0  0  0 
 17 19  1  0  0  0  0 
 17 20  1  0  0  0  0 
 20 21  1  0  0  0  0 
 20 22  1  0  0  0  0 
 20 23  1  0  0  0  0 
 23 24  1  0  0  0  0 
 23 25  1  0  0  0  0 
 23 26  1  0  0  0  0 
 26 27  1  0  0  0  0 
M  END
> <Rank>
13

> <Priority_score>
0.1309692437574262

> <Reaction_type>
O-dealkylation_(aliphatic)

> <Parent_ID>
65

> <Parent_InChI>
InChI=1S/C17H26ClNO/c18-17-9-7-16(8-10-17)6-4-14-20-15-5-13-19-11-2-1-3-12-19/h7-10H,1-6,11-15H2

> <Parent_SMILES>
Clc1ccc(CCCOCCCN2CCCCC2)cc1

$$$$
Molecule 65_metabolite 14
  CDK     0516241031

 47 48  0  0  0  0  0  0  0  0999 V2000
   -7.7423   -8.6000    0.0000 C   0  0  0  0  0  0  0  0  0  0  0  0
   -8.2554  -10.0095    0.0000 H   0  0  0  0  0  0  0  0  0  0  0  0
   -9.2195   -8.3397    0.0000 H   0  0  0  0  0  0  0  0  0  0  0  0
   -7.7427   -7.0992    0.0000 C   0  0  0  0  0  0  0  0  0  0  0  0
   -9.2199   -7.3600    0.0000 H   0  0  0  0  0  0  0  0  0  0  0  0
   -8.2559   -5.6897    0.0000 H   0  0  0  0  0  0  0  0  0  0  0  0
   -6.4437   -6.3492    0.0000 C   0  0  0  0  0  0  0  0  0  0  0  0
   -7.4078   -5.2000    0.0000 H   0  0  0  0  0  0  0  0  0  0  0  0
   -5.4793   -5.2003    0.0000 H   0  0  0  0  0  0  0  0  0  0  0  0
   -5.1442   -7.1000    0.0000 N   0  0  0  0  0  0  0  0  0  0  0  0
   -5.1437   -8.6008    0.0000 C   0  0  0  0  0  0  0  0  0  0  0  0
   -3.6666   -8.3400    0.0000 H   0  0  0  0  0  0  0  0  0  0  0  0
   -4.6305  -10.0103    0.0000 H   0  0  0  0  0  0  0  0  0  0  0  0
   -6.4427   -9.3508    0.0000 C   0  0  0  0  0  0  0  0  0  0  0  0
   -5.4787  -10.5000    0.0000 H   0  0  0  0  0  0  0  0  0  0  0  0
   -7.4072  -10.4997    0.0000 H   0  0  0  0  0  0  0  0  0  0  0  0
   -3.4295   -6.1100    0.0000 C   0  0  0  0  0  0  0  0  0  0  0  0
   -3.9425   -4.7005    0.0000 H   0  0  0  0  0  0  0  0  0  0  0  0
   -2.4653   -4.9609    0.0000 H   0  0  0  0  0  0  0  0  0  0  0  0
   -1.7147   -7.1000    0.0000 C   0  0  0  0  0  0  0  0  0  0  0  0
   -0.7505   -8.2491    0.0000 H   0  0  0  0  0  0  0  0  0  0  0  0
   -2.6789   -8.2491    0.0000 H   0  0  0  0  0  0  0  0  0  0  0  0
   -0.0000   -6.1100    0.0000 C   0  0  0  0  0  0  0  0  0  0  0  0
   -0.9642   -4.9609    0.0000 H   0  0  0  0  0  0  0  0  0  0  0  0
    0.9642   -4.9609    0.0000 H   0  0  0  0  0  0  0  0  0  0  0  0
    1.7147   -7.1000    0.0000 O   0  0  0  0  0  0  0  0  0  0  0  0
    3.0138   -6.3500    0.0000 C   0  0  0  0  0  0  0  0  0  0  0  0
    2.0496   -5.2009    0.0000 H   0  0  0  0  0  0  0  0  0  0  0  0
    4.3128   -7.1000    0.0000 C   0  0  0  0  0  0  0  0  0  0  0  0
    5.7900   -7.3605    0.0000 H   0  0  0  0  0  0  0  0  0  0  0  0
    4.8258   -5.6905    0.0000 H   0  0  0  0  0  0  0  0  0  0  0  0
    4.3128   -8.6000    0.0000 C   0  0  0  0  0  0  0  0  0  0  0  0
    2.8356   -8.3395    0.0000 H   0  0  0  0  0  0  0  0  0  0  0  0
    3.7998  -10.0095    0.0000 H   0  0  0  0  0  0  0  0  0  0  0  0
    5.6118   -9.3500    0.0000 C   0  0  0  0  0  0  0  0  0  0  0  0
    5.6139  -10.8335    0.0000 C   0  0  0  0  0  0  0  0  0  0  0  0
    4.3135  -11.5812    0.0000 H   0  0  0  0  0  0  0  0  0  0  0  0
    6.9092  -11.5901    0.0000 C   0  0  0  0  0  0  0  0  0  0  0  0
    6.8925  -13.0900    0.0000 H   0  0  0  0  0  0  0  0  0  0  0  0
    8.2110  -10.8681    0.0000 C   0  0  0  0  0  0  0  0  0  0  0  0
    8.2154   -9.3536    0.0000 C   0  0  0  0  0  0  0  0  0  0  0  0
    9.5174   -8.6088    0.0000 H   0  0  0  0  0  0  0  0  0  0  0  0
    6.9202   -8.5971    0.0000 C   0  0  0  0  0  0  0  0  0  0  0  0
    6.9250   -7.0971    0.0000 H   0  0  0  0  0  0  0  0  0  0  0  0
    9.5024  -11.6311    0.0000 Cl  0  0  0  0  0  0  0  0  0  0  0  0
    3.9779   -5.2009    0.0000 O   0  0  0  0  0  0  0  0  0  0  0  0
    3.4649   -3.7914    0.0000 H   0  0  0  0  0  0  0  0  0  0  0  0
  1  2  1  0  0  0  0 
  1  3  1  0  0  0  0 
  1  4  1  0  0  0  0 
  4  5  1  0  0  0  0 
  4  6  1  0  0  0  0 
  4  7  1  0  0  0  0 
  7  8  1  0  0  0  0 
  7  9  1  0  0  0  0 
  7 10  1  0  0  0  0 
 10 11  1  0  0  0  0 
 11 12  1  0  0  0  0 
 11 13  1  0  0  0  0 
 11 14  1  0  0  0  0 
  1 14  1  0  0  0  0 
 14 15  1  0  0  0  0 
 14 16  1  0  0  0  0 
 10 17  1  0  0  0  0 
 17 18  1  0  0  0  0 
 17 19  1  0  0  0  0 
 17 20  1  0  0  0  0 
 20 21  1  0  0  0  0 
 20 22  1  0  0  0  0 
 20 23  1  0  0  0  0 
 23 24  1  0  0  0  0 
 23 25  1  0  0  0  0 
 23 26  1  0  0  0  0 
 26 27  1  0  0  0  0 
 27 28  1  0  0  0  0 
 27 29  1  0  0  0  0 
 29 30  1  0  0  0  0 
 29 31  1  0  0  0  0 
 29 32  1  0  0  0  0 
 32 33  1  0  0  0  0 
 32 34  1  0  0  0  0 
 32 35  1  0  0  0  0 
 35 36  2  0  0  0  0 
 36 37  1  0  0  0  0 
 36 38  1  0  0  0  0 
 38 39  1  0  0  0  0 
 38 40  2  0  0  0  0 
 40 41  1  0  0  0  0 
 41 42  1  0  0  0  0 
 41 43  2  0  0  0  0 
 35 43  1  0  0  0  0 
 43 44  1  0  0  0  0 
 40 45  1  0  0  0  0 
 27 46  1  0  0  0  0 
 46 47  1  0  0  0  0 
M  END
> <Rank>
13

> <Priority_score>
0.1309692437574262

> <Reaction_type>
aliphatic hydroxylation

> <Parent_ID>
65

> <Parent_InChI>
InChI=1S/C17H26ClNO/c18-17-9-7-16(8-10-17)6-4-14-20-15-5-13-19-11-2-1-3-12-19/h7-10H,1-6,11-15H2

> <Parent_SMILES>
Clc1ccc(CCCOCCCN2CCCCC2)cc1

$$$$
Molecule 65_metabolite 15
  CDK     0516241031

 25 25  0  0  0  0  0  0  0  0999 V2000
   -2.2011    0.4926    0.0000 C   0  0  0  0  0  0  0  0  0  0  0  0
   -2.7143    1.9021    0.0000 H   0  0  0  0  0  0  0  0  0  0  0  0
   -3.6784    0.2323    0.0000 H   0  0  0  0  0  0  0  0  0  0  0  0
   -2.2016   -1.0082    0.0000 C   0  0  0  0  0  0  0  0  0  0  0  0
   -3.6788   -0.7474    0.0000 H   0  0  0  0  0  0  0  0  0  0  0  0
   -2.7148   -2.4177    0.0000 H   0  0  0  0  0  0  0  0  0  0  0  0
   -0.9026   -1.7582    0.0000 C   0  0  0  0  0  0  0  0  0  0  0  0
   -1.8667   -2.9074    0.0000 H   0  0  0  0  0  0  0  0  0  0  0  0
    0.0618   -2.9071    0.0000 H   0  0  0  0  0  0  0  0  0  0  0  0
    0.3969   -1.0074    0.0000 N   0  0  0  0  0  0  0  0  0  0  0  0
    0.3974    0.4934    0.0000 C   0  0  0  0  0  0  0  0  0  0  0  0
    1.8746    0.2327    0.0000 H   0  0  0  0  0  0  0  0  0  0  0  0
    0.9106    1.9029    0.0000 H   0  0  0  0  0  0  0  0  0  0  0  0
   -0.9016    1.2434    0.0000 C   0  0  0  0  0  0  0  0  0  0  0  0
    0.0624    2.3926    0.0000 H   0  0  0  0  0  0  0  0  0  0  0  0
   -1.8661    2.3923    0.0000 H   0  0  0  0  0  0  0  0  0  0  0  0
    2.1117   -1.9974    0.0000 C   0  0  0  0  0  0  0  0  0  0  0  0
    1.1475   -3.1465    0.0000 H   0  0  0  0  0  0  0  0  0  0  0  0
    3.0758   -3.1465    0.0000 H   0  0  0  0  0  0  0  0  0  0  0  0
    3.4107   -1.2474    0.0000 C   0  0  0  0  0  0  0  0  0  0  0  0
    4.8879   -0.9869    0.0000 H   0  0  0  0  0  0  0  0  0  0  0  0
    3.9237   -2.6569    0.0000 H   0  0  0  0  0  0  0  0  0  0  0  0
    3.4107    0.2526    0.0000 C   0  0  0  0  0  0  0  0  0  0  0  0
    4.7097    1.0026    0.0000 H   0  0  0  0  0  0  0  0  0  0  0  0
    2.1117    1.0026    0.0000 O   0  0  0  0  0  0  0  0  0  0  0  0
  1  2  1  0  0  0  0 
  1  3  1  0  0  0  0 
  1  4  1  0  0  0  0 
  4  5  1  0  0  0  0 
  4  6  1  0  0  0  0 
  4  7  1  0  0  0  0 
  7  8  1  0  0  0  0 
  7  9  1  0  0  0  0 
  7 10  1  0  0  0  0 
 10 11  1  0  0  0  0 
 11 12  1  0  0  0  0 
 11 13  1  0  0  0  0 
 11 14  1  0  0  0  0 
  1 14  1  0  0  0  0 
 14 15  1  0  0  0  0 
 14 16  1  0  0  0  0 
 10 17  1  0  0  0  0 
 17 18  1  0  0  0  0 
 17 19  1  0  0  0  0 
 17 20  1  0  0  0  0 
 20 21  1  0  0  0  0 
 20 22  1  0  0  0  0 
 20 23  1  0  0  0  0 
 23 24  1  0  0  0  0 
 23 25  2  0  0  0  0 
M  END
> <Rank>
13

> <Priority_score>
0.1309692437574262

> <Reaction_type>
oxidative ether cleavage to one alcohol and one aldehyde/ketone

> <Parent_ID>
65

> <Parent_InChI>
InChI=1S/C17H26ClNO/c18-17-9-7-16(8-10-17)6-4-14-20-15-5-13-19-11-2-1-3-12-19/h7-10H,1-6,11-15H2

> <Parent_SMILES>
Clc1ccc(CCCOCCCN2CCCCC2)cc1

$$$$
Molecule 65_metabolite 16
  CDK     0516241031

 22 22  0  0  0  0  0  0  0  0999 V2000
   -2.0089    1.9391    0.0000 C   0  0  0  0  0  0  0  0  0  0  0  0
   -2.9673    0.7852    0.0000 H   0  0  0  0  0  0  0  0  0  0  0  0
   -1.0389    0.7949    0.0000 H   0  0  0  0  0  0  0  0  0  0  0  0
   -0.7136    2.6956    0.0000 C   0  0  0  0  0  0  0  0  0  0  0  0
    0.2448    3.8495    0.0000 H   0  0  0  0  0  0  0  0  0  0  0  0
   -1.6835    3.8398    0.0000 H   0  0  0  0  0  0  0  0  0  0  0  0
    0.5892    1.9521    0.0000 C   0  0  0  0  0  0  0  0  0  0  0  0
    0.5987    0.4686    0.0000 C   0  0  0  0  0  0  0  0  0  0  0  0
   -0.6979   -0.2856    0.0000 H   0  0  0  0  0  0  0  0  0  0  0  0
    1.8977   -0.2814    0.0000 C   0  0  0  0  0  0  0  0  0  0  0  0
    1.8886   -1.7814    0.0000 H   0  0  0  0  0  0  0  0  0  0  0  0
    3.1959    0.4471    0.0000 C   0  0  0  0  0  0  0  0  0  0  0  0
    3.1927    1.9616    0.0000 C   0  0  0  0  0  0  0  0  0  0  0  0
    4.4910    2.7130    0.0000 H   0  0  0  0  0  0  0  0  0  0  0  0
    1.8937    2.7116    0.0000 C   0  0  0  0  0  0  0  0  0  0  0  0
    1.8910    4.2116    0.0000 H   0  0  0  0  0  0  0  0  0  0  0  0
    4.4911   -0.3094    0.0000 Cl  0  0  0  0  0  0  0  0  0  0  0  0
   -3.3116    2.6825    0.0000 C   0  0  0  0  0  0  0  0  0  0  0  0
   -3.8176    1.2704    0.0000 H   0  0  0  0  0  0  0  0  0  0  0  0
   -4.7902    2.9356    0.0000 H   0  0  0  0  0  0  0  0  0  0  0  0
   -3.3192    4.1825    0.0000 O   0  0  0  0  0  0  0  0  0  0  0  0
   -4.6220    4.9260    0.0000 H   0  0  0  0  0  0  0  0  0  0  0  0
  1  2  1  0  0  0  0 
  1  3  1  0  0  0  0 
  1  4  1  0  0  0  0 
  4  5  1  0  0  0  0 
  4  6  1  0  0  0  0 
  4  7  1  0  0  0  0 
  7  8  2  0  0  0  0 
  8  9  1  0  0  0  0 
  8 10  1  0  0  0  0 
 10 11  1  0  0  0  0 
 10 12  2  0  0  0  0 
 12 13  1  0  0  0  0 
 13 14  1  0  0  0  0 
 13 15  2  0  0  0  0 
  7 15  1  0  0  0  0 
 15 16  1  0  0  0  0 
 12 17  1  0  0  0  0 
  1 18  1  0  0  0  0 
 18 19  1  0  0  0  0 
 18 20  1  0  0  0  0 
 18 21  1  0  0  0  0 
 21 22  1  0  0  0  0 
M  END
> <Rank>
13

> <Priority_score>
0.1309692437574262

> <Reaction_type>
O-dealkylation_(aliphatic)

> <Parent_ID>
65

> <Parent_InChI>
InChI=1S/C17H26ClNO/c18-17-9-7-16(8-10-17)6-4-14-20-15-5-13-19-11-2-1-3-12-19/h7-10H,1-6,11-15H2

> <Parent_SMILES>
Clc1ccc(CCCOCCCN2CCCCC2)cc1

$$$$
Molecule 65_metabolite 17
  CDK     0516241031

 20 20  0  0  0  0  0  0  0  0999 V2000
   -2.6571    1.5619    0.0000 C   0  0  0  0  0  0  0  0  0  0  0  0
   -3.6155    0.4081    0.0000 H   0  0  0  0  0  0  0  0  0  0  0  0
   -1.6872    0.4177    0.0000 H   0  0  0  0  0  0  0  0  0  0  0  0
   -1.3619    2.3185    0.0000 C   0  0  0  0  0  0  0  0  0  0  0  0
   -0.4035    3.4724    0.0000 H   0  0  0  0  0  0  0  0  0  0  0  0
   -2.3318    3.4627    0.0000 H   0  0  0  0  0  0  0  0  0  0  0  0
   -0.0591    1.5750    0.0000 C   0  0  0  0  0  0  0  0  0  0  0  0
   -0.0496    0.0915    0.0000 C   0  0  0  0  0  0  0  0  0  0  0  0
   -1.3462   -0.6627    0.0000 H   0  0  0  0  0  0  0  0  0  0  0  0
    1.2495   -0.6585    0.0000 C   0  0  0  0  0  0  0  0  0  0  0  0
    1.2403   -2.1585    0.0000 H   0  0  0  0  0  0  0  0  0  0  0  0
    2.5476    0.0700    0.0000 C   0  0  0  0  0  0  0  0  0  0  0  0
    2.5445    1.5845    0.0000 C   0  0  0  0  0  0  0  0  0  0  0  0
    3.8427    2.3359    0.0000 H   0  0  0  0  0  0  0  0  0  0  0  0
    1.2454    2.3345    0.0000 C   0  0  0  0  0  0  0  0  0  0  0  0
    1.2427    3.8345    0.0000 H   0  0  0  0  0  0  0  0  0  0  0  0
    3.8429   -0.6866    0.0000 Cl  0  0  0  0  0  0  0  0  0  0  0  0
   -3.9599    2.3054    0.0000 C   0  0  0  0  0  0  0  0  0  0  0  0
   -5.2552    1.5489    0.0000 H   0  0  0  0  0  0  0  0  0  0  0  0
   -3.9675    3.8054    0.0000 O   0  0  0  0  0  0  0  0  0  0  0  0
  1  2  1  0  0  0  0 
  1  3  1  0  0  0  0 
  1  4  1  0  0  0  0 
  4  5  1  0  0  0  0 
  4  6  1  0  0  0  0 
  4  7  1  0  0  0  0 
  7  8  2  0  0  0  0 
  8  9  1  0  0  0  0 
  8 10  1  0  0  0  0 
 10 11  1  0  0  0  0 
 10 12  2  0  0  0  0 
 12 13  1  0  0  0  0 
 13 14  1  0  0  0  0 
 13 15  2  0  0  0  0 
  7 15  1  0  0  0  0 
 15 16  1  0  0  0  0 
 12 17  1  0  0  0  0 
  1 18  1  0  0  0  0 
 18 19  1  0  0  0  0 
 18 20  2  0  0  0  0 
M  END
> <Rank>
13

> <Priority_score>
0.1309692437574262

> <Reaction_type>
oxidative ether cleavage to one alcohol and one aldehyde/ketone

> <Parent_ID>
65

> <Parent_InChI>
InChI=1S/C17H26ClNO/c18-17-9-7-16(8-10-17)6-4-14-20-15-5-13-19-11-2-1-3-12-19/h7-10H,1-6,11-15H2

> <Parent_SMILES>
Clc1ccc(CCCOCCCN2CCCCC2)cc1

$$$$
Molecule 65_metabolite 18
  CDK     0516241031

 47 48  0  0  0  0  0  0  0  0999 V2000
   -3.1558    1.8282    0.0000 C   0  0  0  0  0  0  0  0  0  0  0  0
   -2.8955    3.3054    0.0000 H   0  0  0  0  0  0  0  0  0  0  0  0
   -4.5653    2.3414    0.0000 H   0  0  0  0  0  0  0  0  0  0  0  0
   -3.9067    0.5287    0.0000 C   0  0  0  0  0  0  0  0  0  0  0  0
   -5.0555    1.4931    0.0000 H   0  0  0  0  0  0  0  0  0  0  0  0
   -5.0558   -0.4354    0.0000 H   0  0  0  0  0  0  0  0  0  0  0  0
   -3.1567   -0.7704    0.0000 C   0  0  0  0  0  0  0  0  0  0  0  0
   -4.5662   -1.2836    0.0000 H   0  0  0  0  0  0  0  0  0  0  0  0
   -2.8959   -2.2475    0.0000 H   0  0  0  0  0  0  0  0  0  0  0  0
   -1.6558   -0.7699    0.0000 N   0  0  0  0  0  0  0  0  0  0  0  0
   -0.9050    0.5296    0.0000 C   0  0  0  0  0  0  0  0  0  0  0  0
    0.2439   -0.4348    0.0000 H   0  0  0  0  0  0  0  0  0  0  0  0
    0.2442    1.4937    0.0000 H   0  0  0  0  0  0  0  0  0  0  0  0
   -1.6550    1.8287    0.0000 C   0  0  0  0  0  0  0  0  0  0  0  0
   -0.2455    2.3418    0.0000 H   0  0  0  0  0  0  0  0  0  0  0  0
   -1.9158    3.3058    0.0000 H   0  0  0  0  0  0  0  0  0  0  0  0
   -0.6658   -2.4846    0.0000 C   0  0  0  0  0  0  0  0  0  0  0  0
   -1.8149   -3.4488    0.0000 H   0  0  0  0  0  0  0  0  0  0  0  0
   -0.4054   -3.9618    0.0000 H   0  0  0  0  0  0  0  0  0  0  0  0
    1.3142   -2.4846    0.0000 C   0  0  0  0  0  0  0  0  0  0  0  0
    2.7237   -1.9716    0.0000 H   0  0  0  0  0  0  0  0  0  0  0  0
    1.0537   -1.0074    0.0000 H   0  0  0  0  0  0  0  0  0  0  0  0
    2.3042   -4.1994    0.0000 C   0  0  0  0  0  0  0  0  0  0  0  0
    0.8946   -4.7124    0.0000 H   0  0  0  0  0  0  0  0  0  0  0  0
    2.8147   -7.0947    0.0000 O   0  0  0  0  0  0  0  0  0  0  0  0
    1.6656   -8.0589    0.0000 H   0  0  0  0  0  0  0  0  0  0  0  0
    3.8042   -4.1994    0.0000 O   0  0  0  0  0  0  0  0  0  0  0  0
    4.5542   -5.4984    0.0000 C   0  0  0  0  0  0  0  0  0  0  0  0
    3.4051   -6.4626    0.0000 H   0  0  0  0  0  0  0  0  0  0  0  0
    4.8146   -6.9756    0.0000 H   0  0  0  0  0  0  0  0  0  0  0  0
    6.5342   -5.4984    0.0000 C   0  0  0  0  0  0  0  0  0  0  0  0
    7.9437   -4.9854    0.0000 H   0  0  0  0  0  0  0  0  0  0  0  0
    6.2737   -4.0212    0.0000 H   0  0  0  0  0  0  0  0  0  0  0  0
    7.5242   -7.2131    0.0000 C   0  0  0  0  0  0  0  0  0  0  0  0
    6.1146   -7.7262    0.0000 H   0  0  0  0  0  0  0  0  0  0  0  0
    7.7846   -8.6903    0.0000 H   0  0  0  0  0  0  0  0  0  0  0  0
    9.0242   -7.2131    0.0000 C   0  0  0  0  0  0  0  0  0  0  0  0
    9.7677   -8.4969    0.0000 C   0  0  0  0  0  0  0  0  0  0  0  0
    9.0154   -9.7946    0.0000 H   0  0  0  0  0  0  0  0  0  0  0  0
   11.2677   -8.5044    0.0000 C   0  0  0  0  0  0  0  0  0  0  0  0
   12.0032   -9.8117    0.0000 H   0  0  0  0  0  0  0  0  0  0  0  0
   12.0341   -7.2283    0.0000 C   0  0  0  0  0  0  0  0  0  0  0  0
   11.2807   -5.9145    0.0000 C   0  0  0  0  0  0  0  0  0  0  0  0
   12.0359   -4.6184    0.0000 H   0  0  0  0  0  0  0  0  0  0  0  0
    9.7807   -5.9069    0.0000 C   0  0  0  0  0  0  0  0  0  0  0  0
    9.0349   -4.6055    0.0000 H   0  0  0  0  0  0  0  0  0  0  0  0
   13.5340   -7.2434    0.0000 Cl  0  0  0  0  0  0  0  0  0  0  0  0
  1  2  1  0  0  0  0 
  1  3  1  0  0  0  0 
  1  4  1  0  0  0  0 
  4  5  1  0  0  0  0 
  4  6  1  0  0  0  0 
  4  7  1  0  0  0  0 
  7  8  1  0  0  0  0 
  7  9  1  0  0  0  0 
  7 10  1  0  0  0  0 
 10 11  1  0  0  0  0 
 11 12  1  0  0  0  0 
 11 13  1  0  0  0  0 
 11 14  1  0  0  0  0 
  1 14  1  0  0  0  0 
 14 15  1  0  0  0  0 
 14 16  1  0  0  0  0 
 10 17  1  0  0  0  0 
 17 18  1  0  0  0  0 
 17 19  1  0  0  0  0 
 17 20  1  0  0  0  0 
 20 21  1  0  0  0  0 
 20 22  1  0  0  0  0 
 20 23  1  0  0  0  0 
 23 24  1  0  0  0  0 
 23 25  1  0  0  0  0 
 25 26  1  0  0  0  0 
 23 27  1  0  0  0  0 
 27 28  1  0  0  0  0 
 28 29  1  0  0  0  0 
 28 30  1  0  0  0  0 
 28 31  1  0  0  0  0 
 31 32  1  0  0  0  0 
 31 33  1  0  0  0  0 
 31 34  1  0  0  0  0 
 34 35  1  0  0  0  0 
 34 36  1  0  0  0  0 
 34 37  1  0  0  0  0 
 37 38  2  0  0  0  0 
 38 39  1  0  0  0  0 
 38 40  1  0  0  0  0 
 40 41  1  0  0  0  0 
 40 42  2  0  0  0  0 
 42 43  1  0  0  0  0 
 43 44  1  0  0  0  0 
 43 45  2  0  0  0  0 
 37 45  1  0  0  0  0 
 45 46  1  0  0  0  0 
 42 47  1  0  0  0  0 
M  END
> <Rank>
18

> <Priority_score>
0.1271152720889409

> <Reaction_type>
aliphatic hydroxylation

> <Parent_ID>
65

> <Parent_InChI>
InChI=1S/C17H26ClNO/c18-17-9-7-16(8-10-17)6-4-14-20-15-5-13-19-11-2-1-3-12-19/h7-10H,1-6,11-15H2

> <Parent_SMILES>
Clc1ccc(CCCOCCCN2CCCCC2)cc1

$$$$
Molecule 65_metabolite 19
  CDK     0516241031

 47 48  0  0  0  0  0  0  0  0999 V2000
   -0.8314    1.9300    0.0000 C   0  0  0  0  0  0  0  0  0  0  0  0
    0.1327    3.0792    0.0000 H   0  0  0  0  0  0  0  0  0  0  0  0
   -1.7954    3.0792    0.0000 H   0  0  0  0  0  0  0  0  0  0  0  0
   -2.1314    1.1800    0.0000 C   0  0  0  0  0  0  0  0  0  0  0  0
   -2.6441    2.5896    0.0000 H   0  0  0  0  0  0  0  0  0  0  0  0
   -3.6086    0.9197    0.0000 H   0  0  0  0  0  0  0  0  0  0  0  0
   -2.1314   -0.3200    0.0000 C   0  0  0  0  0  0  0  0  0  0  0  0
   -3.6086   -0.0597    0.0000 H   0  0  0  0  0  0  0  0  0  0  0  0
   -3.0953   -1.4693    0.0000 H   0  0  0  0  0  0  0  0  0  0  0  0
   -0.8314   -1.0700    0.0000 N   0  0  0  0  0  0  0  0  0  0  0  0
    0.4686   -0.3200    0.0000 C   0  0  0  0  0  0  0  0  0  0  0  0
    0.9813   -1.7296    0.0000 H   0  0  0  0  0  0  0  0  0  0  0  0
    1.9459   -0.0597    0.0000 H   0  0  0  0  0  0  0  0  0  0  0  0
    0.4686    1.1800    0.0000 C   0  0  0  0  0  0  0  0  0  0  0  0
    1.9459    0.9197    0.0000 H   0  0  0  0  0  0  0  0  0  0  0  0
    0.9813    2.5896    0.0000 H   0  0  0  0  0  0  0  0  0  0  0  0
   -0.8314   -2.5700    0.0000 C   0  0  0  0  0  0  0  0  0  0  0  0
   -2.3086   -2.3095    0.0000 H   0  0  0  0  0  0  0  0  0  0  0  0
   -1.3444   -3.9795    0.0000 H   0  0  0  0  0  0  0  0  0  0  0  0
    0.4677   -3.3200    0.0000 C   0  0  0  0  0  0  0  0  0  0  0  0
    1.4318   -4.4691    0.0000 H   0  0  0  0  0  0  0  0  0  0  0  0
   -0.4965   -4.4691    0.0000 H   0  0  0  0  0  0  0  0  0  0  0  0
    2.1824   -2.3300    0.0000 C   0  0  0  0  0  0  0  0  0  0  0  0
    1.6694   -0.9205    0.0000 H   0  0  0  0  0  0  0  0  0  0  0  0
    3.1466   -1.1809    0.0000 H   0  0  0  0  0  0  0  0  0  0  0  0
    3.8971   -3.3200    0.0000 O   0  0  0  0  0  0  0  0  0  0  0  0
    5.1962   -2.5700    0.0000 C   0  0  0  0  0  0  0  0  0  0  0  0
    4.2320   -1.4209    0.0000 H   0  0  0  0  0  0  0  0  0  0  0  0
    6.1603   -1.4209    0.0000 H   0  0  0  0  0  0  0  0  0  0  0  0
    6.9109   -3.5600    0.0000 C   0  0  0  0  0  0  0  0  0  0  0  0
    7.8751   -4.7091    0.0000 H   0  0  0  0  0  0  0  0  0  0  0  0
    5.9467   -4.7091    0.0000 H   0  0  0  0  0  0  0  0  0  0  0  0
    8.2099   -2.8100    0.0000 C   0  0  0  0  0  0  0  0  0  0  0  0
    7.2457   -1.6609    0.0000 H   0  0  0  0  0  0  0  0  0  0  0  0
    9.1741   -1.6609    0.0000 H   0  0  0  0  0  0  0  0  0  0  0  0
    9.5090   -3.5600    0.0000 C   0  0  0  0  0  0  0  0  0  0  0  0
    9.5092   -5.0608    0.0000 C   0  0  0  0  0  0  0  0  0  0  0  0
    8.2100   -5.8106    0.0000 H   0  0  0  0  0  0  0  0  0  0  0  0
   10.8086   -5.8119    0.0000 C   0  0  0  0  0  0  0  0  0  0  0  0
   10.8081   -7.3119    0.0000 H   0  0  0  0  0  0  0  0  0  0  0  0
   12.1078   -5.0621    0.0000 C   0  0  0  0  0  0  0  0  0  0  0  0
   12.1075   -3.5612    0.0000 C   0  0  0  0  0  0  0  0  0  0  0  0
   10.8081   -2.8102    0.0000 C   0  0  0  0  0  0  0  0  0  0  0  0
   10.8086   -1.3102    0.0000 H   0  0  0  0  0  0  0  0  0  0  0  0
   13.4067   -2.8115    0.0000 O   0  0  0  0  0  0  0  0  0  0  0  0
   14.7056   -3.5617    0.0000 H   0  0  0  0  0  0  0  0  0  0  0  0
   13.4068   -5.8121    0.0000 Cl  0  0  0  0  0  0  0  0  0  0  0  0
  1  2  1  0  0  0  0 
  1  3  1  0  0  0  0 
  1  4  1  0  0  0  0 
  4  5  1  0  0  0  0 
  4  6  1  0  0  0  0 
  4  7  1  0  0  0  0 
  7  8  1  0  0  0  0 
  7  9  1  0  0  0  0 
  7 10  1  0  0  0  0 
 10 11  1  0  0  0  0 
 11 12  1  0  0  0  0 
 11 13  1  0  0  0  0 
 11 14  1  0  0  0  0 
  1 14  1  0  0  0  0 
 14 15  1  0  0  0  0 
 14 16  1  0  0  0  0 
 10 17  1  0  0  0  0 
 17 18  1  0  0  0  0 
 17 19  1  0  0  0  0 
 17 20  1  0  0  0  0 
 20 21  1  0  0  0  0 
 20 22  1  0  0  0  0 
 20 23  1  0  0  0  0 
 23 24  1  0  0  0  0 
 23 25  1  0  0  0  0 
 23 26  1  0  0  0  0 
 26 27  1  0  0  0  0 
 27 28  1  0  0  0  0 
 27 29  1  0  0  0  0 
 27 30  1  0  0  0  0 
 30 31  1  0  0  0  0 
 30 32  1  0  0  0  0 
 30 33  1  0  0  0  0 
 33 34  1  0  0  0  0 
 33 35  1  0  0  0  0 
 33 36  1  0  0  0  0 
 36 37  2  0  0  0  0 
 37 38  1  0  0  0  0 
 37 39  1  0  0  0  0 
 39 40  1  0  0  0  0 
 39 41  2  0  0  0  0 
 41 42  1  0  0  0  0 
 42 43  2  0  0  0  0 
 36 43  1  0  0  0  0 
 43 44  1  0  0  0  0 
 42 45  1  0  0  0  0 
 45 46  1  0  0  0  0 
 41 47  1  0  0  0  0 
M  END
> <Rank>
19

> <Priority_score>
0.092

> <Reaction_type>
aromatic_hydroxylation_(meta_to_carbon)

> <Parent_ID>
65

> <Parent_InChI>
InChI=1S/C17H26ClNO/c18-17-9-7-16(8-10-17)6-4-14-20-15-5-13-19-11-2-1-3-12-19/h7-10H,1-6,11-15H2

> <Parent_SMILES>
Clc1ccc(CCCOCCCN2CCCCC2)cc1

$$$$
Molecule 65_metabolite 20
  CDK     0516241031

 47 48  0  0  0  0  0  0  0  0999 V2000
   -0.8314    1.9300    0.0000 C   0  0  0  0  0  0  0  0  0  0  0  0
    0.1327    3.0792    0.0000 H   0  0  0  0  0  0  0  0  0  0  0  0
   -1.7954    3.0792    0.0000 H   0  0  0  0  0  0  0  0  0  0  0  0
   -2.1314    1.1800    0.0000 C   0  0  0  0  0  0  0  0  0  0  0  0
   -2.6441    2.5896    0.0000 H   0  0  0  0  0  0  0  0  0  0  0  0
   -3.6086    0.9197    0.0000 H   0  0  0  0  0  0  0  0  0  0  0  0
   -2.1314   -0.3200    0.0000 C   0  0  0  0  0  0  0  0  0  0  0  0
   -3.6086   -0.0597    0.0000 H   0  0  0  0  0  0  0  0  0  0  0  0
   -3.0953   -1.4693    0.0000 H   0  0  0  0  0  0  0  0  0  0  0  0
   -0.8314   -1.0700    0.0000 N   0  0  0  0  0  0  0  0  0  0  0  0
    0.4686   -0.3200    0.0000 C   0  0  0  0  0  0  0  0  0  0  0  0
    0.9813   -1.7296    0.0000 H   0  0  0  0  0  0  0  0  0  0  0  0
    1.9459   -0.0597    0.0000 H   0  0  0  0  0  0  0  0  0  0  0  0
    0.4686    1.1800    0.0000 C   0  0  0  0  0  0  0  0  0  0  0  0
    1.9459    0.9197    0.0000 H   0  0  0  0  0  0  0  0  0  0  0  0
    0.9813    2.5896    0.0000 H   0  0  0  0  0  0  0  0  0  0  0  0
   -0.8314   -2.5700    0.0000 C   0  0  0  0  0  0  0  0  0  0  0  0
   -2.3086   -2.3095    0.0000 H   0  0  0  0  0  0  0  0  0  0  0  0
   -1.3444   -3.9795    0.0000 H   0  0  0  0  0  0  0  0  0  0  0  0
    0.4677   -3.3200    0.0000 C   0  0  0  0  0  0  0  0  0  0  0  0
    1.4318   -4.4691    0.0000 H   0  0  0  0  0  0  0  0  0  0  0  0
   -0.4965   -4.4691    0.0000 H   0  0  0  0  0  0  0  0  0  0  0  0
    2.1824   -2.3300    0.0000 C   0  0  0  0  0  0  0  0  0  0  0  0
    1.6694   -0.9205    0.0000 H   0  0  0  0  0  0  0  0  0  0  0  0
    3.1466   -1.1809    0.0000 H   0  0  0  0  0  0  0  0  0  0  0  0
    3.8971   -3.3200    0.0000 O   0  0  0  0  0  0  0  0  0  0  0  0
    5.1962   -2.5700    0.0000 C   0  0  0  0  0  0  0  0  0  0  0  0
    4.2320   -1.4209    0.0000 H   0  0  0  0  0  0  0  0  0  0  0  0
    6.1603   -1.4209    0.0000 H   0  0  0  0  0  0  0  0  0  0  0  0
    6.9109   -3.5600    0.0000 C   0  0  0  0  0  0  0  0  0  0  0  0
    7.8751   -4.7091    0.0000 H   0  0  0  0  0  0  0  0  0  0  0  0
    5.9467   -4.7091    0.0000 H   0  0  0  0  0  0  0  0  0  0  0  0
    8.2099   -2.8100    0.0000 C   0  0  0  0  0  0  0  0  0  0  0  0
    7.2457   -1.6609    0.0000 H   0  0  0  0  0  0  0  0  0  0  0  0
    9.1741   -1.6609    0.0000 H   0  0  0  0  0  0  0  0  0  0  0  0
    9.5090   -3.5600    0.0000 C   0  0  0  0  0  0  0  0  0  0  0  0
    9.5092   -5.0608    0.0000 C   0  0  0  0  0  0  0  0  0  0  0  0
    8.2100   -5.8106    0.0000 H   0  0  0  0  0  0  0  0  0  0  0  0
   10.8086   -5.8119    0.0000 C   0  0  0  0  0  0  0  0  0  0  0  0
   10.8081   -7.3119    0.0000 H   0  0  0  0  0  0  0  0  0  0  0  0
   12.1078   -5.0621    0.0000 C   0  0  0  0  0  0  0  0  0  0  0  0
   12.1075   -3.5612    0.0000 C   0  0  0  0  0  0  0  0  0  0  0  0
   13.4067   -2.8115    0.0000 H   0  0  0  0  0  0  0  0  0  0  0  0
   10.8081   -2.8102    0.0000 C   0  0  0  0  0  0  0  0  0  0  0  0
   10.8086   -1.3102    0.0000 O   0  0  0  0  0  0  0  0  0  0  0  0
   12.1079   -0.5606    0.0000 H   0  0  0  0  0  0  0  0  0  0  0  0
   13.4068   -5.8121    0.0000 Cl  0  0  0  0  0  0  0  0  0  0  0  0
  1  2  1  0  0  0  0 
  1  3  1  0  0  0  0 
  1  4  1  0  0  0  0 
  4  5  1  0  0  0  0 
  4  6  1  0  0  0  0 
  4  7  1  0  0  0  0 
  7  8  1  0  0  0  0 
  7  9  1  0  0  0  0 
  7 10  1  0  0  0  0 
 10 11  1  0  0  0  0 
 11 12  1  0  0  0  0 
 11 13  1  0  0  0  0 
 11 14  1  0  0  0  0 
  1 14  1  0  0  0  0 
 14 15  1  0  0  0  0 
 14 16  1  0  0  0  0 
 10 17  1  0  0  0  0 
 17 18  1  0  0  0  0 
 17 19  1  0  0  0  0 
 17 20  1  0  0  0  0 
 20 21  1  0  0  0  0 
 20 22  1  0  0  0  0 
 20 23  1  0  0  0  0 
 23 24  1  0  0  0  0 
 23 25  1  0  0  0  0 
 23 26  1  0  0  0  0 
 26 27  1  0  0  0  0 
 27 28  1  0  0  0  0 
 27 29  1  0  0  0  0 
 27 30  1  0  0  0  0 
 30 31  1  0  0  0  0 
 30 32  1  0  0  0  0 
 30 33  1  0  0  0  0 
 33 34  1  0  0  0  0 
 33 35  1  0  0  0  0 
 33 36  1  0  0  0  0 
 36 37  2  0  0  0  0 
 37 38  1  0  0  0  0 
 37 39  1  0  0  0  0 
 39 40  1  0  0  0  0 
 39 41  2  0  0  0  0 
 41 42  1  0  0  0  0 
 42 43  1  0  0  0  0 
 42 44  2  0  0  0  0 
 36 44  1  0  0  0  0 
 44 45  1  0  0  0  0 
 45 46  1  0  0  0  0 
 41 47  1  0  0  0  0 
M  END
> <Rank>
20

> <Priority_score>
0.05555763604447045

> <Reaction_type>
aromatic hydroxylation

> <Parent_ID>
65

> <Parent_InChI>
InChI=1S/C17H26ClNO/c18-17-9-7-16(8-10-17)6-4-14-20-15-5-13-19-11-2-1-3-12-19/h7-10H,1-6,11-15H2

> <Parent_SMILES>
Clc1ccc(CCCOCCCN2CCCCC2)cc1

$$$$
Molecule 65_metabolite 21
  CDK     0516241031

 44 45  0  0  0  0  0  0  0  0999 V2000
   -0.8314    1.9300    0.0000 C   0  0  0  0  0  0  0  0  0  0  0  0
    0.1327    3.0792    0.0000 H   0  0  0  0  0  0  0  0  0  0  0  0
   -1.7954    3.0792    0.0000 H   0  0  0  0  0  0  0  0  0  0  0  0
   -2.1314    1.1800    0.0000 C   0  0  0  0  0  0  0  0  0  0  0  0
   -2.6441    2.5896    0.0000 H   0  0  0  0  0  0  0  0  0  0  0  0
   -3.6086    0.9197    0.0000 H   0  0  0  0  0  0  0  0  0  0  0  0
   -2.1314   -0.3200    0.0000 C   0  0  0  0  0  0  0  0  0  0  0  0
   -3.6086   -0.0597    0.0000 H   0  0  0  0  0  0  0  0  0  0  0  0
   -3.0953   -1.4693    0.0000 H   0  0  0  0  0  0  0  0  0  0  0  0
   -0.8314   -1.0700    0.0000 N   0  0  0  0  0  0  0  0  0  0  0  0
    0.4686   -0.3200    0.0000 C   0  0  0  0  0  0  0  0  0  0  0  0
    0.9813   -1.7296    0.0000 H   0  0  0  0  0  0  0  0  0  0  0  0
    1.9459   -0.0597    0.0000 H   0  0  0  0  0  0  0  0  0  0  0  0
    0.4686    1.1800    0.0000 C   0  0  0  0  0  0  0  0  0  0  0  0
    1.9459    0.9197    0.0000 H   0  0  0  0  0  0  0  0  0  0  0  0
    0.9813    2.5896    0.0000 H   0  0  0  0  0  0  0  0  0  0  0  0
   -0.8314   -2.5700    0.0000 C   0  0  0  0  0  0  0  0  0  0  0  0
   -2.3086   -2.3095    0.0000 H   0  0  0  0  0  0  0  0  0  0  0  0
   -1.3444   -3.9795    0.0000 H   0  0  0  0  0  0  0  0  0  0  0  0
    0.4677   -3.3200    0.0000 C   0  0  0  0  0  0  0  0  0  0  0  0
    1.4318   -4.4691    0.0000 H   0  0  0  0  0  0  0  0  0  0  0  0
   -0.4965   -4.4691    0.0000 H   0  0  0  0  0  0  0  0  0  0  0  0
    2.1824   -2.3300    0.0000 C   0  0  0  0  0  0  0  0  0  0  0  0
    1.6694   -0.9205    0.0000 H   0  0  0  0  0  0  0  0  0  0  0  0
    3.1466   -1.1809    0.0000 H   0  0  0  0  0  0  0  0  0  0  0  0
    3.8971   -3.3200    0.0000 O   0  0  0  0  0  0  0  0  0  0  0  0
    5.1962   -2.5700    0.0000 C   0  0  0  0  0  0  0  0  0  0  0  0
    4.2320   -1.4209    0.0000 H   0  0  0  0  0  0  0  0  0  0  0  0
    6.1603   -1.4209    0.0000 H   0  0  0  0  0  0  0  0  0  0  0  0
    6.4952   -3.3200    0.0000 C   0  0  0  0  0  0  0  0  0  0  0  0
    6.4952   -4.8200    0.0000 H   0  0  0  0  0  0  0  0  0  0  0  0
    7.7942   -2.5700    0.0000 C   0  0  0  0  0  0  0  0  0  0  0  0
    7.7942   -1.0700    0.0000 H   0  0  0  0  0  0  0  0  0  0  0  0
    9.0933   -3.3200    0.0000 C   0  0  0  0  0  0  0  0  0  0  0  0
   10.3791   -2.5800    0.0000 C   0  0  0  0  0  0  0  0  0  0  0  0
   10.3764   -1.0800    0.0000 H   0  0  0  0  0  0  0  0  0  0  0  0
   11.6819   -3.3235    0.0000 C   0  0  0  0  0  0  0  0  0  0  0  0
   12.9725   -2.5591    0.0000 H   0  0  0  0  0  0  0  0  0  0  0  0
   11.7075   -4.8119    0.0000 C   0  0  0  0  0  0  0  0  0  0  0  0
   10.3982   -5.5730    0.0000 C   0  0  0  0  0  0  0  0  0  0  0  0
   10.4041   -7.0730    0.0000 H   0  0  0  0  0  0  0  0  0  0  0  0
    9.0954   -4.8295    0.0000 C   0  0  0  0  0  0  0  0  0  0  0  0
    7.7987   -5.5837    0.0000 H   0  0  0  0  0  0  0  0  0  0  0  0
   13.0141   -5.5488    0.0000 Cl  0  0  0  0  0  0  0  0  0  0  0  0
  1  2  1  0  0  0  0 
  1  3  1  0  0  0  0 
  1  4  1  0  0  0  0 
  4  5  1  0  0  0  0 
  4  6  1  0  0  0  0 
  4  7  1  0  0  0  0 
  7  8  1  0  0  0  0 
  7  9  1  0  0  0  0 
  7 10  1  0  0  0  0 
 10 11  1  0  0  0  0 
 11 12  1  0  0  0  0 
 11 13  1  0  0  0  0 
 11 14  1  0  0  0  0 
  1 14  1  0  0  0  0 
 14 15  1  0  0  0  0 
 14 16  1  0  0  0  0 
 10 17  1  0  0  0  0 
 17 18  1  0  0  0  0 
 17 19  1  0  0  0  0 
 17 20  1  0  0  0  0 
 20 21  1  0  0  0  0 
 20 22  1  0  0  0  0 
 20 23  1  0  0  0  0 
 23 24  1  0  0  0  0 
 23 25  1  0  0  0  0 
 23 26  1  0  0  0  0 
 26 27  1  0  0  0  0 
 27 28  1  0  0  0  0 
 27 29  1  0  0  0  0 
 27 30  1  0  0  0  0 
 30 31  1  4  0  0  0 
 30 32  2  0  0  0  0 
 32 33  1  0  0  0  0 
 32 34  1  0  0  0  0 
 34 35  2  0  0  0  0 
 35 36  1  0  0  0  0 
 35 37  1  0  0  0  0 
 37 38  1  0  0  0  0 
 37 39  2  0  0  0  0 
 39 40  1  0  0  0  0 
 40 41  1  0  0  0  0 
 40 42  2  0  0  0  0 
 34 42  1  0  0  0  0 
 42 43  1  0  0  0  0 
 39 44  1  0  0  0  0 
M  END
> <Rank>
21

> <Priority_score>
0.0512

> <Reaction_type>
alkyl dehydrogenation

> <Parent_ID>
65

> <Parent_InChI>
InChI=1S/C17H26ClNO/c18-17-9-7-16(8-10-17)6-4-14-20-15-5-13-19-11-2-1-3-12-19/h7-10H,1-6,11-15H2

> <Parent_SMILES>
Clc1ccc(CCCOCCCN2CCCCC2)cc1

$$$$
Molecule 65_metabolite 22
  CDK     0516241031

 44 45  0  0  0  0  0  0  0  0999 V2000
   -0.4157    1.6900    0.0000 C   0  0  0  0  0  0  0  0  0  0  0  0
    0.5484    2.8392    0.0000 H   0  0  0  0  0  0  0  0  0  0  0  0
   -1.3798    2.8392    0.0000 H   0  0  0  0  0  0  0  0  0  0  0  0
   -1.7157    0.9400    0.0000 C   0  0  0  0  0  0  0  0  0  0  0  0
   -2.2284    2.3496    0.0000 H   0  0  0  0  0  0  0  0  0  0  0  0
   -3.1929    0.6797    0.0000 H   0  0  0  0  0  0  0  0  0  0  0  0
   -1.7157   -0.5600    0.0000 C   0  0  0  0  0  0  0  0  0  0  0  0
   -3.1929   -0.2997    0.0000 H   0  0  0  0  0  0  0  0  0  0  0  0
   -2.6796   -1.7093    0.0000 H   0  0  0  0  0  0  0  0  0  0  0  0
   -0.4157   -1.3100    0.0000 N   0  0  0  0  0  0  0  0  0  0  0  0
    0.8843   -0.5600    0.0000 C   0  0  0  0  0  0  0  0  0  0  0  0
    1.3970   -1.9696    0.0000 H   0  0  0  0  0  0  0  0  0  0  0  0
    2.3615   -0.2997    0.0000 H   0  0  0  0  0  0  0  0  0  0  0  0
    0.8843    0.9400    0.0000 C   0  0  0  0  0  0  0  0  0  0  0  0
    2.3615    0.6797    0.0000 H   0  0  0  0  0  0  0  0  0  0  0  0
    1.3970    2.3496    0.0000 H   0  0  0  0  0  0  0  0  0  0  0  0
   -0.4157   -2.8100    0.0000 C   0  0  0  0  0  0  0  0  0  0  0  0
   -1.8929   -2.5495    0.0000 H   0  0  0  0  0  0  0  0  0  0  0  0
   -0.9287   -4.2195    0.0000 H   0  0  0  0  0  0  0  0  0  0  0  0
    0.8833   -3.5600    0.0000 C   0  0  0  0  0  0  0  0  0  0  0  0
    1.8475   -4.7091    0.0000 H   0  0  0  0  0  0  0  0  0  0  0  0
   -0.0808   -4.7091    0.0000 H   0  0  0  0  0  0  0  0  0  0  0  0
    2.5981   -2.5700    0.0000 C   0  0  0  0  0  0  0  0  0  0  0  0
    1.8481   -1.2710    0.0000 H   0  0  0  0  0  0  0  0  0  0  0  0
    3.5623   -1.4209    0.0000 H   0  0  0  0  0  0  0  0  0  0  0  0
    3.8971   -3.3200    0.0000 O   0  0  0  0  0  0  0  0  0  0  0  0
    5.1962   -2.5700    0.0000 C   0  0  0  0  0  0  0  0  0  0  0  0
    5.1962   -1.0700    0.0000 H   0  0  0  0  0  0  0  0  0  0  0  0
    6.4952   -3.3200    0.0000 C   0  0  0  0  0  0  0  0  0  0  0  0
    6.4952   -4.8200    0.0000 H   0  0  0  0  0  0  0  0  0  0  0  0
    7.7942   -2.5700    0.0000 C   0  0  0  0  0  0  0  0  0  0  0  0
    6.8300   -1.4209    0.0000 H   0  0  0  0  0  0  0  0  0  0  0  0
    8.7584   -1.4209    0.0000 H   0  0  0  0  0  0  0  0  0  0  0  0
    9.0933   -3.3200    0.0000 C   0  0  0  0  0  0  0  0  0  0  0  0
   10.3791   -2.5800    0.0000 C   0  0  0  0  0  0  0  0  0  0  0  0
   10.3764   -1.0800    0.0000 H   0  0  0  0  0  0  0  0  0  0  0  0
   11.6819   -3.3235    0.0000 C   0  0  0  0  0  0  0  0  0  0  0  0
   12.9725   -2.5591    0.0000 H   0  0  0  0  0  0  0  0  0  0  0  0
   11.7075   -4.8119    0.0000 C   0  0  0  0  0  0  0  0  0  0  0  0
   10.3982   -5.5730    0.0000 C   0  0  0  0  0  0  0  0  0  0  0  0
   10.4041   -7.0730    0.0000 H   0  0  0  0  0  0  0  0  0  0  0  0
    9.0954   -4.8295    0.0000 C   0  0  0  0  0  0  0  0  0  0  0  0
    7.7987   -5.5837    0.0000 H   0  0  0  0  0  0  0  0  0  0  0  0
   13.0141   -5.5488    0.0000 Cl  0  0  0  0  0  0  0  0  0  0  0  0
  1  2  1  0  0  0  0 
  1  3  1  0  0  0  0 
  1  4  1  0  0  0  0 
  4  5  1  0  0  0  0 
  4  6  1  0  0  0  0 
  4  7  1  0  0  0  0 
  7  8  1  0  0  0  0 
  7  9  1  0  0  0  0 
  7 10  1  0  0  0  0 
 10 11  1  0  0  0  0 
 11 12  1  0  0  0  0 
 11 13  1  0  0  0  0 
 11 14  1  0  0  0  0 
  1 14  1  0  0  0  0 
 14 15  1  0  0  0  0 
 14 16  1  0  0  0  0 
 10 17  1  0  0  0  0 
 17 18  1  0  0  0  0 
 17 19  1  0  0  0  0 
 17 20  1  0  0  0  0 
 20 21  1  0  0  0  0 
 20 22  1  0  0  0  0 
 20 23  1  0  0  0  0 
 23 24  1  0  0  0  0 
 23 25  1  0  0  0  0 
 23 26  1  0  0  0  0 
 26 27  1  0  0  0  0 
 27 28  1  4  0  0  0 
 27 29  2  0  0  0  0 
 29 30  1  0  0  0  0 
 29 31  1  0  0  0  0 
 31 32  1  0  0  0  0 
 31 33  1  0  0  0  0 
 31 34  1  0  0  0  0 
 34 35  2  0  0  0  0 
 35 36  1  0  0  0  0 
 35 37  1  0  0  0  0 
 37 38  1  0  0  0  0 
 37 39  2  0  0  0  0 
 39 40  1  0  0  0  0 
 40 41  1  0  0  0  0 
 40 42  2  0  0  0  0 
 34 42  1  0  0  0  0 
 42 43  1  0  0  0  0 
 39 44  1  0  0  0  0 
M  END
> <Rank>
21

> <Priority_score>
0.0512

> <Reaction_type>
alkyl dehydrogenation

> <Parent_ID>
65

> <Parent_InChI>
InChI=1S/C17H26ClNO/c18-17-9-7-16(8-10-17)6-4-14-20-15-5-13-19-11-2-1-3-12-19/h7-10H,1-6,11-15H2

> <Parent_SMILES>
Clc1ccc(CCCOCCCN2CCCCC2)cc1

$$$$
Molecule 65_metabolite 23
  CDK     0516241031

 47 48  0  0  0  0  0  0  0  0999 V2000
   -0.8314    1.9300    0.0000 C   0  0  0  0  0  0  0  0  0  0  0  0
    0.1327    3.0792    0.0000 H   0  0  0  0  0  0  0  0  0  0  0  0
   -1.7954    3.0792    0.0000 H   0  0  0  0  0  0  0  0  0  0  0  0
   -2.1314    1.1800    0.0000 C   0  0  0  0  0  0  0  0  0  0  0  0
   -2.6441    2.5896    0.0000 H   0  0  0  0  0  0  0  0  0  0  0  0
   -3.6086    0.9197    0.0000 H   0  0  0  0  0  0  0  0  0  0  0  0
   -2.1314   -0.3200    0.0000 C   0  0  0  0  0  0  0  0  0  0  0  0
   -3.6086   -0.0597    0.0000 H   0  0  0  0  0  0  0  0  0  0  0  0
   -3.0953   -1.4693    0.0000 H   0  0  0  0  0  0  0  0  0  0  0  0
   -0.8314   -1.0700    0.0000 N   0  0  0  0  0  0  0  0  0  0  0  0
    0.4686   -0.3200    0.0000 C   0  0  0  0  0  0  0  0  0  0  0  0
    0.9813   -1.7296    0.0000 H   0  0  0  0  0  0  0  0  0  0  0  0
    1.9459   -0.0597    0.0000 H   0  0  0  0  0  0  0  0  0  0  0  0
    0.4686    1.1800    0.0000 C   0  0  0  0  0  0  0  0  0  0  0  0
    1.9459    0.9197    0.0000 H   0  0  0  0  0  0  0  0  0  0  0  0
    0.9813    2.5896    0.0000 H   0  0  0  0  0  0  0  0  0  0  0  0
   -0.8314   -2.5700    0.0000 C   0  0  0  0  0  0  0  0  0  0  0  0
   -2.3086   -2.3095    0.0000 H   0  0  0  0  0  0  0  0  0  0  0  0
   -1.3444   -3.9795    0.0000 H   0  0  0  0  0  0  0  0  0  0  0  0
    0.4677   -3.3200    0.0000 C   0  0  0  0  0  0  0  0  0  0  0  0
    1.4318   -4.4691    0.0000 H   0  0  0  0  0  0  0  0  0  0  0  0
   -0.4965   -4.4691    0.0000 H   0  0  0  0  0  0  0  0  0  0  0  0
    2.1824   -2.3300    0.0000 C   0  0  0  0  0  0  0  0  0  0  0  0
    1.6694   -0.9205    0.0000 H   0  0  0  0  0  0  0  0  0  0  0  0
    3.1466   -1.1809    0.0000 H   0  0  0  0  0  0  0  0  0  0  0  0
    3.8971   -3.3200    0.0000 O   0  0  0  0  0  0  0  0  0  0  0  0
    5.1962   -2.5700    0.0000 C   0  0  0  0  0  0  0  0  0  0  0  0
    4.2320   -1.4209    0.0000 H   0  0  0  0  0  0  0  0  0  0  0  0
    6.1603   -1.4209    0.0000 H   0  0  0  0  0  0  0  0  0  0  0  0
    6.9109   -3.5600    0.0000 C   0  0  0  0  0  0  0  0  0  0  0  0
    7.8751   -4.7091    0.0000 H   0  0  0  0  0  0  0  0  0  0  0  0
    5.9467   -4.7091    0.0000 H   0  0  0  0  0  0  0  0  0  0  0  0
    8.2099   -2.8100    0.0000 C   0  0  0  0  0  0  0  0  0  0  0  0
    7.2457   -1.6609    0.0000 H   0  0  0  0  0  0  0  0  0  0  0  0
    9.1741   -1.6609    0.0000 H   0  0  0  0  0  0  0  0  0  0  0  0
    9.5090   -3.5600    0.0000 C   0  0  0  0  0  0  0  0  0  0  0  0
    9.5220   -5.0799    0.0000 C   0  0  0  0  0  0  0  0  0  0  0  0
    8.2360   -5.8521    0.0000 H   0  0  0  0  0  0  0  0  0  0  0  0
   10.8984   -5.8282    0.0000 C   0  0  0  0  0  0  0  0  0  0  0  0
   10.9307   -7.3278    0.0000 H   0  0  0  0  0  0  0  0  0  0  0  0
   12.1819   -5.0572    0.0000 C   0  0  0  0  0  0  0  0  0  0  0  0
   12.1689   -3.5372    0.0000 C   0  0  0  0  0  0  0  0  0  0  0  0
   10.8724   -2.7883    0.0000 C   0  0  0  0  0  0  0  0  0  0  0  0
   10.8790   -1.2883    0.0000 H   0  0  0  0  0  0  0  0  0  0  0  0
   13.4648   -2.7818    0.0000 Cl  0  0  0  0  0  0  0  0  0  0  0  0
   13.4905   -5.7903    0.0000 O   0  0  0  0  0  0  0  0  0  0  0  0
   14.7797   -5.0235    0.0000 H   0  0  0  0  0  0  0  0  0  0  0  0
  1  2  1  0  0  0  0 
  1  3  1  0  0  0  0 
  1  4  1  0  0  0  0 
  4  5  1  0  0  0  0 
  4  6  1  0  0  0  0 
  4  7  1  0  0  0  0 
  7  8  1  0  0  0  0 
  7  9  1  0  0  0  0 
  7 10  1  0  0  0  0 
 10 11  1  0  0  0  0 
 11 12  1  0  0  0  0 
 11 13  1  0  0  0  0 
 11 14  1  0  0  0  0 
  1 14  1  0  0  0  0 
 14 15  1  0  0  0  0 
 14 16  1  0  0  0  0 
 10 17  1  0  0  0  0 
 17 18  1  0  0  0  0 
 17 19  1  0  0  0  0 
 17 20  1  0  0  0  0 
 20 21  1  0  0  0  0 
 20 22  1  0  0  0  0 
 20 23  1  0  0  0  0 
 23 24  1  0  0  0  0 
 23 25  1  0  0  0  0 
 23 26  1  0  0  0  0 
 26 27  1  0  0  0  0 
 27 28  1  0  0  0  0 
 27 29  1  0  0  0  0 
 27 30  1  0  0  0  0 
 30 31  1  0  0  0  0 
 30 32  1  0  0  0  0 
 30 33  1  0  0  0  0 
 33 34  1  0  0  0  0 
 33 35  1  0  0  0  0 
 33 36  1  0  0  0  0 
 36 37  2  0  0  0  0 
 37 38  1  0  0  0  0 
 37 39  1  0  0  0  0 
 39 40  1  0  0  0  0 
 39 41  2  0  0  0  0 
 41 42  1  0  0  0  0 
 42 43  2  0  0  0  0 
 36 43  1  0  0  0  0 
 43 44  1  0  0  0  0 
 42 45  1  0  0  0  0 
 41 46  1  0  0  0  0 
 46 47  1  0  0  0  0 
M  END
> <Rank>
23

> <Priority_score>
0.048

> <Reaction_type>
aromatic hydroxylation with nih shift

> <Parent_ID>
65

> <Parent_InChI>
InChI=1S/C17H26ClNO/c18-17-9-7-16(8-10-17)6-4-14-20-15-5-13-19-11-2-1-3-12-19/h7-10H,1-6,11-15H2

> <Parent_SMILES>
Clc1ccc(CCCOCCCN2CCCCC2)cc1

$$$$
Molecule 65_metabolite 24
  CDK     0516241031

 45 46  0  0  0  0  0  0  0  0999 V2000
  -11.5196   -1.8742    0.0000 C   0  0  0  0  0  0  0  0  0  0  0  0
  -12.6688   -0.9101    0.0000 H   0  0  0  0  0  0  0  0  0  0  0  0
  -12.6688   -2.8383    0.0000 H   0  0  0  0  0  0  0  0  0  0  0  0
  -10.7696   -3.1742    0.0000 C   0  0  0  0  0  0  0  0  0  0  0  0
  -12.1792   -3.6869    0.0000 H   0  0  0  0  0  0  0  0  0  0  0  0
  -10.5093   -4.6514    0.0000 H   0  0  0  0  0  0  0  0  0  0  0  0
   -9.2696   -3.1742    0.0000 C   0  0  0  0  0  0  0  0  0  0  0  0
   -8.5194   -4.4731    0.0000 H   0  0  0  0  0  0  0  0  0  0  0  0
   -8.5196   -1.8742    0.0000 N   0  0  0  0  0  0  0  0  0  0  0  0
   -9.2696   -0.5742    0.0000 C   0  0  0  0  0  0  0  0  0  0  0  0
   -7.8599   -0.0615    0.0000 H   0  0  0  0  0  0  0  0  0  0  0  0
   -9.5299    0.9030    0.0000 H   0  0  0  0  0  0  0  0  0  0  0  0
  -10.7696   -0.5742    0.0000 C   0  0  0  0  0  0  0  0  0  0  0  0
  -10.5093    0.9030    0.0000 H   0  0  0  0  0  0  0  0  0  0  0  0
  -12.1792   -0.0615    0.0000 H   0  0  0  0  0  0  0  0  0  0  0  0
   -6.5396   -1.8742    0.0000 C   0  0  0  0  0  0  0  0  0  0  0  0
   -5.1301   -1.3612    0.0000 H   0  0  0  0  0  0  0  0  0  0  0  0
   -6.8001   -0.3970    0.0000 H   0  0  0  0  0  0  0  0  0  0  0  0
   -5.5496   -3.5889    0.0000 C   0  0  0  0  0  0  0  0  0  0  0  0
   -6.9591   -4.1020    0.0000 H   0  0  0  0  0  0  0  0  0  0  0  0
   -5.2891   -5.0661    0.0000 H   0  0  0  0  0  0  0  0  0  0  0  0
   -4.0496   -3.5889    0.0000 C   0  0  0  0  0  0  0  0  0  0  0  0
   -2.6401   -3.0759    0.0000 H   0  0  0  0  0  0  0  0  0  0  0  0
   -4.3101   -2.1117    0.0000 H   0  0  0  0  0  0  0  0  0  0  0  0
   -3.2996   -4.8880    0.0000 O   0  0  0  0  0  0  0  0  0  0  0  0
   -1.3196   -4.8880    0.0000 C   0  0  0  0  0  0  0  0  0  0  0  0
    0.0899   -4.3749    0.0000 H   0  0  0  0  0  0  0  0  0  0  0  0
   -1.5801   -3.4107    0.0000 H   0  0  0  0  0  0  0  0  0  0  0  0
   -0.5696   -6.1870    0.0000 C   0  0  0  0  0  0  0  0  0  0  0  0
   -1.9791   -6.7000    0.0000 H   0  0  0  0  0  0  0  0  0  0  0  0
   -0.3091   -7.6642    0.0000 H   0  0  0  0  0  0  0  0  0  0  0  0
    1.4104   -6.1870    0.0000 C   0  0  0  0  0  0  0  0  0  0  0  0
    2.8199   -5.6740    0.0000 H   0  0  0  0  0  0  0  0  0  0  0  0
    1.1499   -4.7098    0.0000 H   0  0  0  0  0  0  0  0  0  0  0  0
    2.1604   -7.4860    0.0000 C   0  0  0  0  0  0  0  0  0  0  0  0
    1.4204   -8.7719    0.0000 C   0  0  0  0  0  0  0  0  0  0  0  0
   -0.0796   -8.7691    0.0000 H   0  0  0  0  0  0  0  0  0  0  0  0
    2.1639  -10.0746    0.0000 C   0  0  0  0  0  0  0  0  0  0  0  0
    1.3995  -11.3653    0.0000 H   0  0  0  0  0  0  0  0  0  0  0  0
    3.6523  -10.1003    0.0000 C   0  0  0  0  0  0  0  0  0  0  0  0
    4.4134   -8.7909    0.0000 C   0  0  0  0  0  0  0  0  0  0  0  0
    5.9134   -8.7969    0.0000 H   0  0  0  0  0  0  0  0  0  0  0  0
    3.6699   -7.4881    0.0000 C   0  0  0  0  0  0  0  0  0  0  0  0
    4.4241   -6.1915    0.0000 H   0  0  0  0  0  0  0  0  0  0  0  0
    4.3892  -11.4068    0.0000 Cl  0  0  0  0  0  0  0  0  0  0  0  0
  1  2  1  0  0  0  0 
  1  3  1  0  0  0  0 
  1  4  1  0  0  0  0 
  4  5  1  0  0  0  0 
  4  6  1  0  0  0  0 
  4  7  1  0  0  0  0 
  7  8  1  0  0  0  0 
  7  9  2  0  0  0  0 
  9 10  1  0  0  0  0 
 10 11  1  0  0  0  0 
 10 12  1  0  0  0  0 
 10 13  1  0  0  0  0 
  1 13  1  0  0  0  0 
 13 14  1  0  0  0  0 
 13 15  1  0  0  0  0 
  9 16  1  0  0  0  0 
 16 17  1  0  0  0  0 
 16 18  1  0  0  0  0 
 16 19  1  0  0  0  0 
 19 20  1  0  0  0  0 
 19 21  1  0  0  0  0 
 19 22  1  0  0  0  0 
 22 23  1  0  0  0  0 
 22 24  1  0  0  0  0 
 22 25  1  0  0  0  0 
 25 26  1  0  0  0  0 
 26 27  1  0  0  0  0 
 26 28  1  0  0  0  0 
 26 29  1  0  0  0  0 
 29 30  1  0  0  0  0 
 29 31  1  0  0  0  0 
 29 32  1  0  0  0  0 
 32 33  1  0  0  0  0 
 32 34  1  0  0  0  0 
 32 35  1  0  0  0  0 
 35 36  2  0  0  0  0 
 36 37  1  0  0  0  0 
 36 38  1  0  0  0  0 
 38 39  1  0  0  0  0 
 38 40  2  0  0  0  0 
 40 41  1  0  0  0  0 
 41 42  1  0  0  0  0 
 41 43  2  0  0  0  0 
 35 43  1  0  0  0  0 
 43 44  1  0  0  0  0 
 40 45  1  0  0  0  0 
M  CHG  1   9   1
M  END
> <Rank>
24

> <Priority_score>
0.0471115272088941

> <Reaction_type>
dehydration of N-C bond

> <Parent_ID>
65

> <Parent_InChI>
InChI=1S/C17H26ClNO/c18-17-9-7-16(8-10-17)6-4-14-20-15-5-13-19-11-2-1-3-12-19/h7-10H,1-6,11-15H2

> <Parent_SMILES>
Clc1ccc(CCCOCCCN2CCCCC2)cc1

$$$$
Molecule 65_metabolite 25
  CDK     0516241031

 44 45  0  0  0  0  0  0  0  0999 V2000
  -11.4317   -2.2020    0.0000 C   0  0  0  0  0  0  0  0  0  0  0  0
  -12.5809   -1.2380    0.0000 H   0  0  0  0  0  0  0  0  0  0  0  0
  -12.5809   -3.1661    0.0000 H   0  0  0  0  0  0  0  0  0  0  0  0
  -10.6817   -3.5020    0.0000 C   0  0  0  0  0  0  0  0  0  0  0  0
  -11.4320   -4.8010    0.0000 H   0  0  0  0  0  0  0  0  0  0  0  0
   -9.1817   -3.5020    0.0000 C   0  0  0  0  0  0  0  0  0  0  0  0
   -8.4315   -4.8010    0.0000 H   0  0  0  0  0  0  0  0  0  0  0  0
   -8.4317   -2.2020    0.0000 N   0  0  0  0  0  0  0  0  0  0  0  0
   -9.1817   -0.9020    0.0000 C   0  0  0  0  0  0  0  0  0  0  0  0
   -7.7721   -0.3893    0.0000 H   0  0  0  0  0  0  0  0  0  0  0  0
   -9.4421    0.5752    0.0000 H   0  0  0  0  0  0  0  0  0  0  0  0
  -10.6817   -0.9020    0.0000 C   0  0  0  0  0  0  0  0  0  0  0  0
  -10.4214    0.5752    0.0000 H   0  0  0  0  0  0  0  0  0  0  0  0
  -12.0914   -0.3893    0.0000 H   0  0  0  0  0  0  0  0  0  0  0  0
   -6.4517   -2.2020    0.0000 C   0  0  0  0  0  0  0  0  0  0  0  0
   -5.0422   -1.6890    0.0000 H   0  0  0  0  0  0  0  0  0  0  0  0
   -6.7122   -0.7248    0.0000 H   0  0  0  0  0  0  0  0  0  0  0  0
   -5.7017   -3.5011    0.0000 C   0  0  0  0  0  0  0  0  0  0  0  0
   -7.1113   -4.0141    0.0000 H   0  0  0  0  0  0  0  0  0  0  0  0
   -5.4413   -4.9783    0.0000 H   0  0  0  0  0  0  0  0  0  0  0  0
   -3.7217   -3.5011    0.0000 C   0  0  0  0  0  0  0  0  0  0  0  0
   -2.3122   -2.9880    0.0000 H   0  0  0  0  0  0  0  0  0  0  0  0
   -3.9822   -2.0239    0.0000 H   0  0  0  0  0  0  0  0  0  0  0  0
   -2.9717   -4.8001    0.0000 O   0  0  0  0  0  0  0  0  0  0  0  0
   -0.9917   -4.8001    0.0000 C   0  0  0  0  0  0  0  0  0  0  0  0
    0.4178   -4.2871    0.0000 H   0  0  0  0  0  0  0  0  0  0  0  0
   -1.2522   -3.3229    0.0000 H   0  0  0  0  0  0  0  0  0  0  0  0
   -0.2417   -6.0992    0.0000 C   0  0  0  0  0  0  0  0  0  0  0  0
   -1.6513   -6.6122    0.0000 H   0  0  0  0  0  0  0  0  0  0  0  0
    0.0187   -7.5764    0.0000 H   0  0  0  0  0  0  0  0  0  0  0  0
    1.7383   -6.0992    0.0000 C   0  0  0  0  0  0  0  0  0  0  0  0
    3.1478   -5.5861    0.0000 H   0  0  0  0  0  0  0  0  0  0  0  0
    1.4778   -4.6219    0.0000 H   0  0  0  0  0  0  0  0  0  0  0  0
    2.4883   -7.3982    0.0000 C   0  0  0  0  0  0  0  0  0  0  0  0
    1.7483   -8.6840    0.0000 C   0  0  0  0  0  0  0  0  0  0  0  0
    0.2483   -8.6813    0.0000 H   0  0  0  0  0  0  0  0  0  0  0  0
    2.4917   -9.9868    0.0000 C   0  0  0  0  0  0  0  0  0  0  0  0
    1.7273  -11.2774    0.0000 H   0  0  0  0  0  0  0  0  0  0  0  0
    3.9801  -10.0125    0.0000 C   0  0  0  0  0  0  0  0  0  0  0  0
    4.7412   -8.7031    0.0000 C   0  0  0  0  0  0  0  0  0  0  0  0
    6.2412   -8.7090    0.0000 H   0  0  0  0  0  0  0  0  0  0  0  0
    3.9978   -7.4003    0.0000 C   0  0  0  0  0  0  0  0  0  0  0  0
    4.7519   -6.1037    0.0000 H   0  0  0  0  0  0  0  0  0  0  0  0
    4.7170  -11.3190    0.0000 Cl  0  0  0  0  0  0  0  0  0  0  0  0
  1  2  1  0  0  0  0 
  1  3  1  0  0  0  0 
  1  4  1  0  0  0  0 
  4  5  1  0  0  0  0 
  4  6  2  0  0  0  0 
  6  7  1  0  0  0  0 
  6  8  1  0  0  0  0 
  8  9  1  0  0  0  0 
  9 10  1  0  0  0  0 
  9 11  1  0  0  0  0 
  9 12  1  0  0  0  0 
  1 12  1  0  0  0  0 
 12 13  1  0  0  0  0 
 12 14  1  0  0  0  0 
  8 15  1  0  0  0  0 
 15 16  1  0  0  0  0 
 15 17  1  0  0  0  0 
 15 18  1  0  0  0  0 
 18 19  1  0  0  0  0 
 18 20  1  0  0  0  0 
 18 21  1  0  0  0  0 
 21 22  1  0  0  0  0 
 21 23  1  0  0  0  0 
 21 24  1  0  0  0  0 
 24 25  1  0  0  0  0 
 25 26  1  0  0  0  0 
 25 27  1  0  0  0  0 
 25 28  1  0  0  0  0 
 28 29  1  0  0  0  0 
 28 30  1  0  0  0  0 
 28 31  1  0  0  0  0 
 31 32  1  0  0  0  0 
 31 33  1  0  0  0  0 
 31 34  1  0  0  0  0 
 34 35  2  0  0  0  0 
 35 36  1  0  0  0  0 
 35 37  1  0  0  0  0 
 37 38  1  0  0  0  0 
 37 39  2  0  0  0  0 
 39 40  1  0  0  0  0 
 40 41  1  0  0  0  0 
 40 42  2  0  0  0  0 
 34 42  1  0  0  0  0 
 42 43  1  0  0  0  0 
 39 44  1  0  0  0  0 
M  END
> <Rank>
24

> <Priority_score>
0.0471115272088941

> <Reaction_type>
alkyl dehydrogenation

> <Parent_ID>
65

> <Parent_InChI>
InChI=1S/C17H26ClNO/c18-17-9-7-16(8-10-17)6-4-14-20-15-5-13-19-11-2-1-3-12-19/h7-10H,1-6,11-15H2

> <Parent_SMILES>
Clc1ccc(CCCOCCCN2CCCCC2)cc1

$$$$
Molecule 65_metabolite 26
  CDK     0516241031

 81 82  0  0  0  0  0  0  0  0999 V2000
   -1.2471    3.1300    0.0000 C   0  0  0  0  0  0  0  0  0  0  0  0
   -0.2830    4.2792    0.0000 H   0  0  0  0  0  0  0  0  0  0  0  0
   -2.2111    4.2792    0.0000 H   0  0  0  0  0  0  0  0  0  0  0  0
   -2.5471    2.3800    0.0000 C   0  0  0  0  0  0  0  0  0  0  0  0
   -3.0598    3.7896    0.0000 H   0  0  0  0  0  0  0  0  0  0  0  0
   -4.0243    2.1197    0.0000 H   0  0  0  0  0  0  0  0  0  0  0  0
   -2.5471    0.8800    0.0000 C   0  0  0  0  0  0  0  0  0  0  0  0
   -4.0243    1.1403    0.0000 H   0  0  0  0  0  0  0  0  0  0  0  0
   -3.0598   -0.5296    0.0000 H   0  0  0  0  0  0  0  0  0  0  0  0
   -1.2471    0.1300    0.0000 N   0  0  0  0  0  0  0  0  0  0  0  0
    0.0529    0.8800    0.0000 C   0  0  0  0  0  0  0  0  0  0  0  0
    0.5657   -0.5296    0.0000 H   0  0  0  0  0  0  0  0  0  0  0  0
    1.5302    1.1403    0.0000 H   0  0  0  0  0  0  0  0  0  0  0  0
    0.0529    2.3800    0.0000 C   0  0  0  0  0  0  0  0  0  0  0  0
    1.5302    2.1197    0.0000 H   0  0  0  0  0  0  0  0  0  0  0  0
    0.5657    3.7896    0.0000 H   0  0  0  0  0  0  0  0  0  0  0  0
   -1.2471   -2.3300    0.0000 C   0  0  0  0  0  0  0  0  0  0  0  0
   -2.7243   -2.0695    0.0000 H   0  0  0  0  0  0  0  0  0  0  0  0
   -1.7601   -3.7395    0.0000 H   0  0  0  0  0  0  0  0  0  0  0  0
    0.4677   -3.3200    0.0000 C   0  0  0  0  0  0  0  0  0  0  0  0
    1.4318   -4.4691    0.0000 H   0  0  0  0  0  0  0  0  0  0  0  0
   -0.4965   -4.4691    0.0000 H   0  0  0  0  0  0  0  0  0  0  0  0
    2.1824   -2.3300    0.0000 C   0  0  0  0  0  0  0  0  0  0  0  0
    1.2182   -1.1809    0.0000 H   0  0  0  0  0  0  0  0  0  0  0  0
    3.1466   -1.1809    0.0000 H   0  0  0  0  0  0  0  0  0  0  0  0
    3.8971   -3.3200    0.0000 O   0  0  0  0  0  0  0  0  0  0  0  0
    5.1962   -2.5700    0.0000 C   0  0  0  0  0  0  0  0  0  0  0  0
    4.2320   -1.4209    0.0000 H   0  0  0  0  0  0  0  0  0  0  0  0
    6.1603   -1.4209    0.0000 H   0  0  0  0  0  0  0  0  0  0  0  0
    6.9109   -3.5600    0.0000 C   0  0  0  0  0  0  0  0  0  0  0  0
    7.8751   -4.7091    0.0000 H   0  0  0  0  0  0  0  0  0  0  0  0
    5.9467   -4.7091    0.0000 H   0  0  0  0  0  0  0  0  0  0  0  0
    8.2099   -2.8100    0.0000 C   0  0  0  0  0  0  0  0  0  0  0  0
    7.2457   -1.6609    0.0000 H   0  0  0  0  0  0  0  0  0  0  0  0
    9.1741   -1.6609    0.0000 H   0  0  0  0  0  0  0  0  0  0  0  0
    9.5090   -3.5600    0.0000 C   0  0  0  0  0  0  0  0  0  0  0  0
   10.8088   -2.8098    0.0000 C   0  0  0  0  0  0  0  0  0  0  0  0
   10.8086   -1.3098    0.0000 H   0  0  0  0  0  0  0  0  0  0  0  0
   12.1090   -3.5596    0.0000 C   0  0  0  0  0  0  0  0  0  0  0  0
   13.4078   -2.8092    0.0000 H   0  0  0  0  0  0  0  0  0  0  0  0
   12.1092   -5.0596    0.0000 C   0  0  0  0  0  0  0  0  0  0  0  0
   10.8093   -5.8098    0.0000 C   0  0  0  0  0  0  0  0  0  0  0  0
   10.8096   -7.3098    0.0000 H   0  0  0  0  0  0  0  0  0  0  0  0
    9.5092   -5.0600    0.0000 C   0  0  0  0  0  0  0  0  0  0  0  0
    8.2104   -5.8104    0.0000 H   0  0  0  0  0  0  0  0  0  0  0  0
   13.4082   -5.8096    0.0000 S   0  0  0  0  0  0  0  0  0  0  0  0
   14.7073   -5.0596    0.0000 C   0  0  0  0  0  0  0  0  0  0  0  0
   13.7431   -3.9105    0.0000 H   0  0  0  0  0  0  0  0  0  0  0  0
   15.6715   -3.9105    0.0000 H   0  0  0  0  0  0  0  0  0  0  0  0
   16.0063   -5.8096    0.0000 C   0  0  0  0  0  0  0  0  0  0  0  0
   16.9705   -6.9587    0.0000 H   0  0  0  0  0  0  0  0  0  0  0  0
   15.0421   -6.9587    0.0000 C   0  0  0  0  0  0  0  0  0  0  0  0
   13.5649   -6.6982    0.0000 O   0  0  0  0  0  0  0  0  0  0  0  0
   15.5552   -8.3682    0.0000 N   0  0  0  0  0  0  0  0  0  0  0  0
   17.0324   -8.6287    0.0000 H   0  0  0  0  0  0  0  0  0  0  0  0
   14.5910   -9.5173    0.0000 C   0  0  0  0  0  0  0  0  0  0  0  0
   13.6268   -8.3682    0.0000 H   0  0  0  0  0  0  0  0  0  0  0  0
   13.2919  -10.2673    0.0000 H   0  0  0  0  0  0  0  0  0  0  0  0
   15.1040  -10.9268    0.0000 C   0  0  0  0  0  0  0  0  0  0  0  0
   16.5812  -11.1873    0.0000 O   0  0  0  0  0  0  0  0  0  0  0  0
   14.1398  -12.0759    0.0000 O   0  0  0  0  0  0  0  0  0  0  0  0
   14.6529  -13.4854    0.0000 H   0  0  0  0  0  0  0  0  0  0  0  0
   17.3054   -5.0596    0.0000 N   0  0  0  0  0  0  0  0  0  0  0  0
   17.3054   -3.5596    0.0000 H   0  0  0  0  0  0  0  0  0  0  0  0
   18.6044   -5.8096    0.0000 C   0  0  0  0  0  0  0  0  0  0  0  0
   18.6044   -7.3096    0.0000 O   0  0  0  0  0  0  0  0  0  0  0  0
   19.9034   -5.0596    0.0000 C   0  0  0  0  0  0  0  0  0  0  0  0
   18.9392   -3.9105    0.0000 H   0  0  0  0  0  0  0  0  0  0  0  0
   20.8676   -3.9105    0.0000 H   0  0  0  0  0  0  0  0  0  0  0  0
   21.6182   -6.0496    0.0000 C   0  0  0  0  0  0  0  0  0  0  0  0
   22.5823   -7.1986    0.0000 H   0  0  0  0  0  0  0  0  0  0  0  0
   20.6540   -7.1986    0.0000 H   0  0  0  0  0  0  0  0  0  0  0  0
   22.9172   -5.2996    0.0000 C   0  0  0  0  0  0  0  0  0  0  0  0
   21.9530   -4.1505    0.0000 H   0  0  0  0  0  0  0  0  0  0  0  0
   24.2162   -6.0496    0.0000 C   0  0  0  0  0  0  0  0  0  0  0  0
   24.2162   -7.5496    0.0000 O   0  0  0  0  0  0  0  0  0  0  0  0
   25.5153   -5.2996    0.0000 O   0  0  0  0  0  0  0  0  0  0  0  0
   26.8143   -6.0496    0.0000 H   0  0  0  0  0  0  0  0  0  0  0  0
   23.8814   -4.1505    0.0000 N   0  0  0  0  0  0  0  0  0  0  0  0
   25.3586   -4.4110    0.0000 H   0  0  0  0  0  0  0  0  0  0  0  0
   23.3683   -2.7410    0.0000 H   0  0  0  0  0  0  0  0  0  0  0  0
  1  2  1  0  0  0  0 
  1  3  1  0  0  0  0 
  1  4  1  0  0  0  0 
  4  5  1  0  0  0  0 
  4  6  1  0  0  0  0 
  4  7  1  0  0  0  0 
  7  8  1  0  0  0  0 
  7  9  1  0  0  0  0 
  7 10  1  0  0  0  0 
 10 11  1  0  0  0  0 
 11 12  1  0  0  0  0 
 11 13  1  0  0  0  0 
 11 14  1  0  0  0  0 
  1 14  1  0  0  0  0 
 14 15  1  0  0  0  0 
 14 16  1  0  0  0  0 
 10 17  1  0  0  0  0 
 17 18  1  0  0  0  0 
 17 19  1  0  0  0  0 
 17 20  1  0  0  0  0 
 20 21  1  0  0  0  0 
 20 22  1  0  0  0  0 
 20 23  1  0  0  0  0 
 23 24  1  0  0  0  0 
 23 25  1  0  0  0  0 
 23 26  1  0  0  0  0 
 26 27  1  0  0  0  0 
 27 28  1  0  0  0  0 
 27 29  1  0  0  0  0 
 27 30  1  0  0  0  0 
 30 31  1  0  0  0  0 
 30 32  1  0  0  0  0 
 30 33  1  0  0  0  0 
 33 34  1  0  0  0  0 
 33 35  1  0  0  0  0 
 33 36  1  0  0  0  0 
 36 37  2  0  0  0  0 
 37 38  1  0  0  0  0 
 37 39  1  0  0  0  0 
 39 40  1  0  0  0  0 
 39 41  2  0  0  0  0 
 41 42  1  0  0  0  0 
 42 43  1  0  0  0  0 
 42 44  2  0  0  0  0 
 36 44  1  0  0  0  0 
 44 45  1  0  0  0  0 
 41 46  1  0  0  0  0 
 46 47  1  0  0  0  0 
 47 48  1  0  0  0  0 
 47 49  1  0  0  0  0 
 47 50  1  0  0  0  0 
 50 51  1  0  0  0  0 
 50 52  1  0  0  0  0 
 52 53  2  0  0  0  0 
 52 54  1  0  0  0  0 
 54 55  1  0  0  0  0 
 54 56  1  0  0  0  0 
 56 57  1  0  0  0  0 
 56 58  1  0  0  0  0 
 56 59  1  0  0  0  0 
 59 60  2  0  0  0  0 
 59 61  1  0  0  0  0 
 61 62  1  0  0  0  0 
 50 63  1  0  0  0  0 
 63 64  1  0  0  0  0 
 63 65  1  0  0  0  0 
 65 66  2  0  0  0  0 
 65 67  1  0  0  0  0 
 67 68  1  0  0  0  0 
 67 69  1  0  0  0  0 
 67 70  1  0  0  0  0 
 70 71  1  0  0  0  0 
 70 72  1  0  0  0  0 
 70 73  1  0  0  0  0 
 73 74  1  0  0  0  0 
 73 75  1  0  0  0  0 
 75 76  2  0  0  0  0 
 75 77  1  0  0  0  0 
 77 78  1  0  0  0  0 
 73 79  1  0  0  0  0 
 79 80  1  0  0  0  0 
 79 81  1  0  0  0  0 
M  END
> <Rank>
26

> <Priority_score>
0.044

> <Reaction_type>
glutathione_conjugation_(aromatic_nucleophilic_substitution)

> <Parent_ID>
65

> <Parent_InChI>
InChI=1S/C17H26ClNO/c18-17-9-7-16(8-10-17)6-4-14-20-15-5-13-19-11-2-1-3-12-19/h7-10H,1-6,11-15H2

> <Parent_SMILES>
Clc1ccc(CCCOCCCN2CCCCC2)cc1

$$$$
Molecule 65_metabolite 27
  CDK     0516241031

 45 46  0  0  0  0  0  0  0  0999 V2000
   -4.7855   -3.7035    0.0000 C   0  0  0  0  0  0  0  0  0  0  0  0
   -5.2987   -5.1129    0.0000 H   0  0  0  0  0  0  0  0  0  0  0  0
   -6.2627   -3.4431    0.0000 H   0  0  0  0  0  0  0  0  0  0  0  0
   -4.7860   -2.2026    0.0000 C   0  0  0  0  0  0  0  0  0  0  0  0
   -6.2631   -2.4634    0.0000 H   0  0  0  0  0  0  0  0  0  0  0  0
   -5.2992   -0.7931    0.0000 H   0  0  0  0  0  0  0  0  0  0  0  0
   -3.4869   -1.4526    0.0000 C   0  0  0  0  0  0  0  0  0  0  0  0
   -4.4510   -0.3034    0.0000 H   0  0  0  0  0  0  0  0  0  0  0  0
   -2.5225   -0.3038    0.0000 H   0  0  0  0  0  0  0  0  0  0  0  0
   -2.1874   -2.2035    0.0000 N   0  0  0  0  0  0  0  0  0  0  0  0
   -0.8884   -1.4535    0.0000 C   0  0  0  0  0  0  0  0  0  0  0  0
   -0.8884    0.0465    0.0000 H   0  0  0  0  0  0  0  0  0  0  0  0
    0.4107   -2.2035    0.0000 C   0  0  0  0  0  0  0  0  0  0  0  0
    1.8879   -2.4639    0.0000 H   0  0  0  0  0  0  0  0  0  0  0  0
    0.9237   -0.7939    0.0000 H   0  0  0  0  0  0  0  0  0  0  0  0
    0.4107   -4.1835    0.0000 C   0  0  0  0  0  0  0  0  0  0  0  0
   -1.0666   -3.9230    0.0000 H   0  0  0  0  0  0  0  0  0  0  0  0
   -0.1024   -5.5930    0.0000 H   0  0  0  0  0  0  0  0  0  0  0  0
    2.1254   -5.1735    0.0000 O   0  0  0  0  0  0  0  0  0  0  0  0
    2.1254   -6.6735    0.0000 C   0  0  0  0  0  0  0  0  0  0  0  0
    0.6482   -6.4130    0.0000 H   0  0  0  0  0  0  0  0  0  0  0  0
    1.6124   -8.0830    0.0000 H   0  0  0  0  0  0  0  0  0  0  0  0
    3.4244   -7.4235    0.0000 C   0  0  0  0  0  0  0  0  0  0  0  0
    4.9016   -7.6839    0.0000 H   0  0  0  0  0  0  0  0  0  0  0  0
    3.9375   -6.0139    0.0000 H   0  0  0  0  0  0  0  0  0  0  0  0
    3.4244   -9.4035    0.0000 C   0  0  0  0  0  0  0  0  0  0  0  0
    1.9472   -9.1430    0.0000 H   0  0  0  0  0  0  0  0  0  0  0  0
    2.9114  -10.8130    0.0000 H   0  0  0  0  0  0  0  0  0  0  0  0
    4.7235  -10.1535    0.0000 C   0  0  0  0  0  0  0  0  0  0  0  0
    4.7255  -11.6370    0.0000 C   0  0  0  0  0  0  0  0  0  0  0  0
    3.4251  -12.3846    0.0000 H   0  0  0  0  0  0  0  0  0  0  0  0
    6.0208  -12.3935    0.0000 C   0  0  0  0  0  0  0  0  0  0  0  0
    6.0041  -13.8934    0.0000 H   0  0  0  0  0  0  0  0  0  0  0  0
    7.3226  -11.6715    0.0000 C   0  0  0  0  0  0  0  0  0  0  0  0
    7.3270  -10.1570    0.0000 C   0  0  0  0  0  0  0  0  0  0  0  0
    8.6290   -9.4122    0.0000 H   0  0  0  0  0  0  0  0  0  0  0  0
    6.0318   -9.4005    0.0000 C   0  0  0  0  0  0  0  0  0  0  0  0
    6.0366   -7.9005    0.0000 H   0  0  0  0  0  0  0  0  0  0  0  0
    8.6140  -12.4346    0.0000 Cl  0  0  0  0  0  0  0  0  0  0  0  0
   -2.1869   -3.7043    0.0000 C   0  0  0  0  0  0  0  0  0  0  0  0
   -0.2371   -3.3600    0.0000 H   0  0  0  0  0  0  0  0  0  0  0  0
   -1.6738   -5.1138    0.0000 H   0  0  0  0  0  0  0  0  0  0  0  0
   -3.4860   -4.4543    0.0000 C   0  0  0  0  0  0  0  0  0  0  0  0
   -2.5219   -5.6035    0.0000 H   0  0  0  0  0  0  0  0  0  0  0  0
   -4.4504   -5.6031    0.0000 H   0  0  0  0  0  0  0  0  0  0  0  0
  1  2  1  0  0  0  0 
  1  3  1  0  0  0  0 
  1  4  1  0  0  0  0 
  4  5  1  0  0  0  0 
  4  6  1  0  0  0  0 
  4  7  1  0  0  0  0 
  7  8  1  0  0  0  0 
  7  9  1  0  0  0  0 
  7 10  1  0  0  0  0 
 10 11  2  0  0  0  0 
 11 12  1  4  0  0  0 
 11 13  1  0  0  0  0 
 13 14  1  0  0  0  0 
 13 15  1  0  0  0  0 
 13 16  1  0  0  0  0 
 16 17  1  0  0  0  0 
 16 18  1  0  0  0  0 
 16 19  1  0  0  0  0 
 19 20  1  0  0  0  0 
 20 21  1  0  0  0  0 
 20 22  1  0  0  0  0 
 20 23  1  0  0  0  0 
 23 24  1  0  0  0  0 
 23 25  1  0  0  0  0 
 23 26  1  0  0  0  0 
 26 27  1  0  0  0  0 
 26 28  1  0  0  0  0 
 26 29  1  0  0  0  0 
 29 30  2  0  0  0  0 
 30 31  1  0  0  0  0 
 30 32  1  0  0  0  0 
 32 33  1  0  0  0  0 
 32 34  2  0  0  0  0 
 34 35  1  0  0  0  0 
 35 36  1  0  0  0  0 
 35 37  2  0  0  0  0 
 29 37  1  0  0  0  0 
 37 38  1  0  0  0  0 
 34 39  1  0  0  0  0 
 10 40  1  0  0  0  0 
 40 41  1  0  0  0  0 
 40 42  1  0  0  0  0 
 40 43  1  0  0  0  0 
  1 43  1  0  0  0  0 
 43 44  1  0  0  0  0 
 43 45  1  0  0  0  0 
M  CHG  1  10   1
M  END
> <Rank>
27

> <Priority_score>
0.0432

> <Reaction_type>
dehydration of N-C bond

> <Parent_ID>
65

> <Parent_InChI>
InChI=1S/C17H26ClNO/c18-17-9-7-16(8-10-17)6-4-14-20-15-5-13-19-11-2-1-3-12-19/h7-10H,1-6,11-15H2

> <Parent_SMILES>
Clc1ccc(CCCOCCCN2CCCCC2)cc1

$$$$
Molecule 65_metabolite 28
  CDK     0516241031

 44 45  0  0  0  0  0  0  0  0999 V2000
   -3.4640   -0.2128    0.0000 C   0  0  0  0  0  0  0  0  0  0  0  0
   -3.2037    1.2644    0.0000 H   0  0  0  0  0  0  0  0  0  0  0  0
   -4.8735    0.3004    0.0000 H   0  0  0  0  0  0  0  0  0  0  0  0
   -4.2149   -1.5123    0.0000 C   0  0  0  0  0  0  0  0  0  0  0  0
   -5.3637   -0.5479    0.0000 H   0  0  0  0  0  0  0  0  0  0  0  0
   -5.3640   -2.4764    0.0000 H   0  0  0  0  0  0  0  0  0  0  0  0
   -3.4649   -2.8114    0.0000 C   0  0  0  0  0  0  0  0  0  0  0  0
   -4.8744   -3.3246    0.0000 H   0  0  0  0  0  0  0  0  0  0  0  0
   -3.2041   -4.2885    0.0000 H   0  0  0  0  0  0  0  0  0  0  0  0
   -1.9640   -2.8109    0.0000 N   0  0  0  0  0  0  0  0  0  0  0  0
   -1.2132   -1.5114    0.0000 C   0  0  0  0  0  0  0  0  0  0  0  0
   -0.0643   -2.4758    0.0000 H   0  0  0  0  0  0  0  0  0  0  0  0
   -0.0640   -0.5473    0.0000 H   0  0  0  0  0  0  0  0  0  0  0  0
   -1.9632   -0.2123    0.0000 C   0  0  0  0  0  0  0  0  0  0  0  0
   -0.5537    0.3008    0.0000 H   0  0  0  0  0  0  0  0  0  0  0  0
   -2.2240    1.2648    0.0000 H   0  0  0  0  0  0  0  0  0  0  0  0
   -1.2140   -4.1099    0.0000 C   0  0  0  0  0  0  0  0  0  0  0  0
   -1.9640   -5.4090    0.0000 H   0  0  0  0  0  0  0  0  0  0  0  0
    0.2860   -4.1099    0.0000 C   0  0  0  0  0  0  0  0  0  0  0  0
    1.0360   -2.8109    0.0000 H   0  0  0  0  0  0  0  0  0  0  0  0
    1.0360   -5.4090    0.0000 C   0  0  0  0  0  0  0  0  0  0  0  0
   -0.3736   -5.9220    0.0000 H   0  0  0  0  0  0  0  0  0  0  0  0
    1.2964   -6.8862    0.0000 H   0  0  0  0  0  0  0  0  0  0  0  0
    2.5360   -5.4090    0.0000 O   0  0  0  0  0  0  0  0  0  0  0  0
    3.5260   -7.1237    0.0000 C   0  0  0  0  0  0  0  0  0  0  0  0
    2.1164   -7.6367    0.0000 H   0  0  0  0  0  0  0  0  0  0  0  0
    3.7864   -8.6009    0.0000 H   0  0  0  0  0  0  0  0  0  0  0  0
    5.0260   -7.1237    0.0000 C   0  0  0  0  0  0  0  0  0  0  0  0
    6.4355   -6.6107    0.0000 H   0  0  0  0  0  0  0  0  0  0  0  0
    4.7655   -5.6465    0.0000 H   0  0  0  0  0  0  0  0  0  0  0  0
    6.0160   -8.8384    0.0000 C   0  0  0  0  0  0  0  0  0  0  0  0
    4.6064   -9.3515    0.0000 H   0  0  0  0  0  0  0  0  0  0  0  0
    6.2764  -10.3157    0.0000 H   0  0  0  0  0  0  0  0  0  0  0  0
    7.5160   -8.8384    0.0000 C   0  0  0  0  0  0  0  0  0  0  0  0
    8.2595  -10.1222    0.0000 C   0  0  0  0  0  0  0  0  0  0  0  0
    7.5072  -11.4199    0.0000 H   0  0  0  0  0  0  0  0  0  0  0  0
    9.7595  -10.1297    0.0000 C   0  0  0  0  0  0  0  0  0  0  0  0
   10.4950  -11.4370    0.0000 H   0  0  0  0  0  0  0  0  0  0  0  0
   10.5259   -8.8536    0.0000 C   0  0  0  0  0  0  0  0  0  0  0  0
    9.7725   -7.5398    0.0000 C   0  0  0  0  0  0  0  0  0  0  0  0
   10.5277   -6.2437    0.0000 H   0  0  0  0  0  0  0  0  0  0  0  0
    8.2725   -7.5322    0.0000 C   0  0  0  0  0  0  0  0  0  0  0  0
    7.5267   -6.2308    0.0000 H   0  0  0  0  0  0  0  0  0  0  0  0
   12.0258   -8.8687    0.0000 Cl  0  0  0  0  0  0  0  0  0  0  0  0
  1  2  1  0  0  0  0 
  1  3  1  0  0  0  0 
  1  4  1  0  0  0  0 
  4  5  1  0  0  0  0 
  4  6  1  0  0  0  0 
  4  7  1  0  0  0  0 
  7  8  1  0  0  0  0 
  7  9  1  0  0  0  0 
  7 10  1  0  0  0  0 
 10 11  1  0  0  0  0 
 11 12  1  0  0  0  0 
 11 13  1  0  0  0  0 
 11 14  1  0  0  0  0 
  1 14  1  0  0  0  0 
 14 15  1  0  0  0  0 
 14 16  1  0  0  0  0 
 10 17  1  0  0  0  0 
 17 18  1  4  0  0  0 
 17 19  2  0  0  0  0 
 19 20  1  0  0  0  0 
 19 21  1  0  0  0  0 
 21 22  1  0  0  0  0 
 21 23  1  0  0  0  0 
 21 24  1  0  0  0  0 
 24 25  1  0  0  0  0 
 25 26  1  0  0  0  0 
 25 27  1  0  0  0  0 
 25 28  1  0  0  0  0 
 28 29  1  0  0  0  0 
 28 30  1  0  0  0  0 
 28 31  1  0  0  0  0 
 31 32  1  0  0  0  0 
 31 33  1  0  0  0  0 
 31 34  1  0  0  0  0 
 34 35  2  0  0  0  0 
 35 36  1  0  0  0  0 
 35 37  1  0  0  0  0 
 37 38  1  0  0  0  0 
 37 39  2  0  0  0  0 
 39 40  1  0  0  0  0 
 40 41  1  0  0  0  0 
 40 42  2  0  0  0  0 
 34 42  1  0  0  0  0 
 42 43  1  0  0  0  0 
 39 44  1  0  0  0  0 
M  END
> <Rank>
28

> <Priority_score>
0.04000000000000001

> <Reaction_type>
alkyl dehydrogenation

> <Parent_ID>
65

> <Parent_InChI>
InChI=1S/C17H26ClNO/c18-17-9-7-16(8-10-17)6-4-14-20-15-5-13-19-11-2-1-3-12-19/h7-10H,1-6,11-15H2

> <Parent_SMILES>
Clc1ccc(CCCOCCCN2CCCCC2)cc1

$$$$
Molecule 65_metabolite 29
  CDK     0516241031

 44 45  0  0  0  0  0  0  0  0999 V2000
  -10.5128   -2.0031    0.0000 C   0  0  0  0  0  0  0  0  0  0  0  0
  -12.0128   -2.0031    0.0000 H   0  0  0  0  0  0  0  0  0  0  0  0
   -9.7628   -3.3031    0.0000 C   0  0  0  0  0  0  0  0  0  0  0  0
  -10.5130   -4.6020    0.0000 H   0  0  0  0  0  0  0  0  0  0  0  0
   -8.2628   -3.3031    0.0000 C   0  0  0  0  0  0  0  0  0  0  0  0
   -8.5231   -4.7803    0.0000 H   0  0  0  0  0  0  0  0  0  0  0  0
   -6.8531   -3.8158    0.0000 H   0  0  0  0  0  0  0  0  0  0  0  0
   -7.5128   -2.0031    0.0000 N   0  0  0  0  0  0  0  0  0  0  0  0
   -8.2628   -0.7031    0.0000 C   0  0  0  0  0  0  0  0  0  0  0  0
   -6.8531   -0.1904    0.0000 H   0  0  0  0  0  0  0  0  0  0  0  0
   -8.5231    0.7742    0.0000 H   0  0  0  0  0  0  0  0  0  0  0  0
   -9.7628   -0.7031    0.0000 C   0  0  0  0  0  0  0  0  0  0  0  0
   -9.5025    0.7742    0.0000 H   0  0  0  0  0  0  0  0  0  0  0  0
  -11.1724   -0.1904    0.0000 H   0  0  0  0  0  0  0  0  0  0  0  0
   -5.5328   -2.0031    0.0000 C   0  0  0  0  0  0  0  0  0  0  0  0
   -4.1233   -1.4901    0.0000 H   0  0  0  0  0  0  0  0  0  0  0  0
   -5.2723   -0.5259    0.0000 H   0  0  0  0  0  0  0  0  0  0  0  0
   -4.5428   -3.7178    0.0000 C   0  0  0  0  0  0  0  0  0  0  0  0
   -5.9523   -4.2308    0.0000 H   0  0  0  0  0  0  0  0  0  0  0  0
   -4.2823   -5.1950    0.0000 H   0  0  0  0  0  0  0  0  0  0  0  0
   -2.5628   -3.7178    0.0000 C   0  0  0  0  0  0  0  0  0  0  0  0
   -1.1533   -3.2048    0.0000 H   0  0  0  0  0  0  0  0  0  0  0  0
   -2.8233   -2.2406    0.0000 H   0  0  0  0  0  0  0  0  0  0  0  0
   -1.5728   -5.4325    0.0000 O   0  0  0  0  0  0  0  0  0  0  0  0
   -0.0728   -5.4325    0.0000 C   0  0  0  0  0  0  0  0  0  0  0  0
    1.3367   -4.9195    0.0000 H   0  0  0  0  0  0  0  0  0  0  0  0
   -0.3333   -3.9553    0.0000 H   0  0  0  0  0  0  0  0  0  0  0  0
    0.9172   -7.1473    0.0000 C   0  0  0  0  0  0  0  0  0  0  0  0
   -0.4923   -7.6603    0.0000 H   0  0  0  0  0  0  0  0  0  0  0  0
    1.1777   -8.6245    0.0000 H   0  0  0  0  0  0  0  0  0  0  0  0
    2.4172   -7.1473    0.0000 C   0  0  0  0  0  0  0  0  0  0  0  0
    3.8267   -6.6342    0.0000 H   0  0  0  0  0  0  0  0  0  0  0  0
    2.1567   -5.6701    0.0000 H   0  0  0  0  0  0  0  0  0  0  0  0
    3.1672   -8.4463    0.0000 C   0  0  0  0  0  0  0  0  0  0  0  0
    2.4272   -9.7321    0.0000 C   0  0  0  0  0  0  0  0  0  0  0  0
    0.9272   -9.7294    0.0000 H   0  0  0  0  0  0  0  0  0  0  0  0
    3.1707  -11.0349    0.0000 C   0  0  0  0  0  0  0  0  0  0  0  0
    2.4063  -12.3255    0.0000 H   0  0  0  0  0  0  0  0  0  0  0  0
    4.6591  -11.0606    0.0000 C   0  0  0  0  0  0  0  0  0  0  0  0
    5.4202   -9.7512    0.0000 C   0  0  0  0  0  0  0  0  0  0  0  0
    6.9202   -9.7572    0.0000 H   0  0  0  0  0  0  0  0  0  0  0  0
    4.6767   -8.4484    0.0000 C   0  0  0  0  0  0  0  0  0  0  0  0
    5.4309   -7.1518    0.0000 H   0  0  0  0  0  0  0  0  0  0  0  0
    5.3960  -12.3671    0.0000 Cl  0  0  0  0  0  0  0  0  0  0  0  0
  1  2  1  0  0  0  0 
  1  3  2  0  0  0  0 
  3  4  1  0  0  0  0 
  3  5  1  0  0  0  0 
  5  6  1  0  0  0  0 
  5  7  1  0  0  0  0 
  5  8  1  0  0  0  0 
  8  9  1  0  0  0  0 
  9 10  1  0  0  0  0 
  9 11  1  0  0  0  0 
  9 12  1  0  0  0  0 
  1 12  1  0  0  0  0 
 12 13  1  0  0  0  0 
 12 14  1  0  0  0  0 
  8 15  1  0  0  0  0 
 15 16  1  0  0  0  0 
 15 17  1  0  0  0  0 
 15 18  1  0  0  0  0 
 18 19  1  0  0  0  0 
 18 20  1  0  0  0  0 
 18 21  1  0  0  0  0 
 21 22  1  0  0  0  0 
 21 23  1  0  0  0  0 
 21 24  1  0  0  0  0 
 24 25  1  0  0  0  0 
 25 26  1  0  0  0  0 
 25 27  1  0  0  0  0 
 25 28  1  0  0  0  0 
 28 29  1  0  0  0  0 
 28 30  1  0  0  0  0 
 28 31  1  0  0  0  0 
 31 32  1  0  0  0  0 
 31 33  1  0  0  0  0 
 31 34  1  0  0  0  0 
 34 35  2  0  0  0  0 
 35 36  1  0  0  0  0 
 35 37  1  0  0  0  0 
 37 38  1  0  0  0  0 
 37 39  2  0  0  0  0 
 39 40  1  0  0  0  0 
 40 41  1  0  0  0  0 
 40 42  2  0  0  0  0 
 34 42  1  0  0  0  0 
 42 43  1  0  0  0  0 
 39 44  1  0  0  0  0 
M  END
> <Rank>
29

> <Priority_score>
0.0344

> <Reaction_type>
alkyl dehydrogenation

> <Parent_ID>
65

> <Parent_InChI>
InChI=1S/C17H26ClNO/c18-17-9-7-16(8-10-17)6-4-14-20-15-5-13-19-11-2-1-3-12-19/h7-10H,1-6,11-15H2

> <Parent_SMILES>
Clc1ccc(CCCOCCCN2CCCCC2)cc1

$$$$
Molecule 65_metabolite 30
  CDK     0516241031

 44 45  0  0  0  0  0  0  0  0999 V2000
   -3.4640    0.2672    0.0000 C   0  0  0  0  0  0  0  0  0  0  0  0
   -3.2037    1.7444    0.0000 H   0  0  0  0  0  0  0  0  0  0  0  0
   -4.8735    0.7804    0.0000 H   0  0  0  0  0  0  0  0  0  0  0  0
   -4.2149   -1.0323    0.0000 C   0  0  0  0  0  0  0  0  0  0  0  0
   -5.3637   -0.0679    0.0000 H   0  0  0  0  0  0  0  0  0  0  0  0
   -5.3640   -1.9964    0.0000 H   0  0  0  0  0  0  0  0  0  0  0  0
   -3.4649   -2.3314    0.0000 C   0  0  0  0  0  0  0  0  0  0  0  0
   -4.8744   -2.8446    0.0000 H   0  0  0  0  0  0  0  0  0  0  0  0
   -3.2041   -3.8085    0.0000 H   0  0  0  0  0  0  0  0  0  0  0  0
   -1.9640   -2.3309    0.0000 N   0  0  0  0  0  0  0  0  0  0  0  0
   -1.2132   -1.0314    0.0000 C   0  0  0  0  0  0  0  0  0  0  0  0
   -0.0643   -1.9958    0.0000 H   0  0  0  0  0  0  0  0  0  0  0  0
   -0.0640   -0.0673    0.0000 H   0  0  0  0  0  0  0  0  0  0  0  0
   -1.9632    0.2677    0.0000 C   0  0  0  0  0  0  0  0  0  0  0  0
   -0.5537    0.7808    0.0000 H   0  0  0  0  0  0  0  0  0  0  0  0
   -2.2240    1.7448    0.0000 H   0  0  0  0  0  0  0  0  0  0  0  0
   -0.9740   -4.0456    0.0000 C   0  0  0  0  0  0  0  0  0  0  0  0
   -2.3836   -4.5587    0.0000 H   0  0  0  0  0  0  0  0  0  0  0  0
   -0.7136   -5.5228    0.0000 H   0  0  0  0  0  0  0  0  0  0  0  0
    0.5260   -4.0456    0.0000 C   0  0  0  0  0  0  0  0  0  0  0  0
    1.2760   -2.7466    0.0000 H   0  0  0  0  0  0  0  0  0  0  0  0
    1.2760   -5.3447    0.0000 C   0  0  0  0  0  0  0  0  0  0  0  0
    0.5260   -6.6437    0.0000 H   0  0  0  0  0  0  0  0  0  0  0  0
    2.7760   -5.3447    0.0000 O   0  0  0  0  0  0  0  0  0  0  0  0
    3.5260   -6.6437    0.0000 C   0  0  0  0  0  0  0  0  0  0  0  0
    2.1164   -7.1567    0.0000 H   0  0  0  0  0  0  0  0  0  0  0  0
    3.7864   -8.1209    0.0000 H   0  0  0  0  0  0  0  0  0  0  0  0
    5.0260   -6.6437    0.0000 C   0  0  0  0  0  0  0  0  0  0  0  0
    6.4355   -6.1307    0.0000 H   0  0  0  0  0  0  0  0  0  0  0  0
    4.7655   -5.1665    0.0000 H   0  0  0  0  0  0  0  0  0  0  0  0
    6.0160   -8.3584    0.0000 C   0  0  0  0  0  0  0  0  0  0  0  0
    4.6064   -8.8715    0.0000 H   0  0  0  0  0  0  0  0  0  0  0  0
    6.2764   -9.8357    0.0000 H   0  0  0  0  0  0  0  0  0  0  0  0
    7.5160   -8.3584    0.0000 C   0  0  0  0  0  0  0  0  0  0  0  0
    8.2595   -9.6422    0.0000 C   0  0  0  0  0  0  0  0  0  0  0  0
    7.5072  -10.9399    0.0000 H   0  0  0  0  0  0  0  0  0  0  0  0
    9.7595   -9.6497    0.0000 C   0  0  0  0  0  0  0  0  0  0  0  0
   10.4950  -10.9570    0.0000 H   0  0  0  0  0  0  0  0  0  0  0  0
   10.5259   -8.3736    0.0000 C   0  0  0  0  0  0  0  0  0  0  0  0
    9.7725   -7.0598    0.0000 C   0  0  0  0  0  0  0  0  0  0  0  0
   10.5277   -5.7637    0.0000 H   0  0  0  0  0  0  0  0  0  0  0  0
    8.2725   -7.0522    0.0000 C   0  0  0  0  0  0  0  0  0  0  0  0
    7.5267   -5.7508    0.0000 H   0  0  0  0  0  0  0  0  0  0  0  0
   12.0258   -8.3887    0.0000 Cl  0  0  0  0  0  0  0  0  0  0  0  0
  1  2  1  0  0  0  0 
  1  3  1  0  0  0  0 
  1  4  1  0  0  0  0 
  4  5  1  0  0  0  0 
  4  6  1  0  0  0  0 
  4  7  1  0  0  0  0 
  7  8  1  0  0  0  0 
  7  9  1  0  0  0  0 
  7 10  1  0  0  0  0 
 10 11  1  0  0  0  0 
 11 12  1  0  0  0  0 
 11 13  1  0  0  0  0 
 11 14  1  0  0  0  0 
  1 14  1  0  0  0  0 
 14 15  1  0  0  0  0 
 14 16  1  0  0  0  0 
 10 17  1  0  0  0  0 
 17 18  1  0  0  0  0 
 17 19  1  0  0  0  0 
 17 20  1  0  0  0  0 
 20 21  1  4  0  0  0 
 20 22  2  0  0  0  0 
 22 23  1  0  0  0  0 
 22 24  1  0  0  0  0 
 24 25  1  0  0  0  0 
 25 26  1  0  0  0  0 
 25 27  1  0  0  0  0 
 25 28  1  0  0  0  0 
 28 29  1  0  0  0  0 
 28 30  1  0  0  0  0 
 28 31  1  0  0  0  0 
 31 32  1  0  0  0  0 
 31 33  1  0  0  0  0 
 31 34  1  0  0  0  0 
 34 35  2  0  0  0  0 
 35 36  1  0  0  0  0 
 35 37  1  0  0  0  0 
 37 38  1  0  0  0  0 
 37 39  2  0  0  0  0 
 39 40  1  0  0  0  0 
 40 41  1  0  0  0  0 
 40 42  2  0  0  0  0 
 34 42  1  0  0  0  0 
 42 43  1  0  0  0  0 
 39 44  1  0  0  0  0 
M  END
> <Rank>
30

> <Priority_score>
0.025423054417788183

> <Reaction_type>
alkyl dehydrogenation

> <Parent_ID>
65

> <Parent_InChI>
InChI=1S/C17H26ClNO/c18-17-9-7-16(8-10-17)6-4-14-20-15-5-13-19-11-2-1-3-12-19/h7-10H,1-6,11-15H2

> <Parent_SMILES>
Clc1ccc(CCCOCCCN2CCCCC2)cc1

$$$$
Molecule 65_metabolite 31
  CDK     0516241031

 47 48  0  0  0  0  0  0  0  0999 V2000
   -3.9762    0.1472    0.0000 C   0  0  0  0  0  0  0  0  0  0  0  0
   -3.7159    1.6244    0.0000 H   0  0  0  0  0  0  0  0  0  0  0  0
   -5.3857    0.6604    0.0000 H   0  0  0  0  0  0  0  0  0  0  0  0
   -4.7270   -1.1523    0.0000 C   0  0  0  0  0  0  0  0  0  0  0  0
   -5.8759   -0.1879    0.0000 H   0  0  0  0  0  0  0  0  0  0  0  0
   -5.8762   -2.1164    0.0000 H   0  0  0  0  0  0  0  0  0  0  0  0
   -3.9770   -2.4514    0.0000 C   0  0  0  0  0  0  0  0  0  0  0  0
   -5.3865   -2.9646    0.0000 H   0  0  0  0  0  0  0  0  0  0  0  0
   -3.7162   -3.9285    0.0000 H   0  0  0  0  0  0  0  0  0  0  0  0
   -2.4762   -2.4509    0.0000 N   0  0  0  0  0  0  0  0  0  0  0  0
   -1.7254   -1.1514    0.0000 C   0  0  0  0  0  0  0  0  0  0  0  0
   -0.5765   -2.1158    0.0000 H   0  0  0  0  0  0  0  0  0  0  0  0
   -0.5762   -0.1873    0.0000 H   0  0  0  0  0  0  0  0  0  0  0  0
   -2.4754    0.1477    0.0000 C   0  0  0  0  0  0  0  0  0  0  0  0
   -1.0659    0.6608    0.0000 H   0  0  0  0  0  0  0  0  0  0  0  0
   -2.7361    1.6248    0.0000 H   0  0  0  0  0  0  0  0  0  0  0  0
   -1.4862   -4.1656    0.0000 C   0  0  0  0  0  0  0  0  0  0  0  0
   -2.6353   -5.1298    0.0000 H   0  0  0  0  0  0  0  0  0  0  0  0
   -1.2257   -5.6428    0.0000 H   0  0  0  0  0  0  0  0  0  0  0  0
    0.4938   -4.1656    0.0000 C   0  0  0  0  0  0  0  0  0  0  0  0
    1.9033   -3.6526    0.0000 H   0  0  0  0  0  0  0  0  0  0  0  0
    1.4838   -5.8804    0.0000 C   0  0  0  0  0  0  0  0  0  0  0  0
    0.0743   -6.3934    0.0000 H   0  0  0  0  0  0  0  0  0  0  0  0
    1.7443   -7.3576    0.0000 H   0  0  0  0  0  0  0  0  0  0  0  0
    3.4638   -5.8804    0.0000 O   0  0  0  0  0  0  0  0  0  0  0  0
    4.2138   -7.1794    0.0000 C   0  0  0  0  0  0  0  0  0  0  0  0
    2.8043   -7.6924    0.0000 H   0  0  0  0  0  0  0  0  0  0  0  0
    4.4743   -8.6566    0.0000 H   0  0  0  0  0  0  0  0  0  0  0  0
    6.1938   -7.1794    0.0000 C   0  0  0  0  0  0  0  0  0  0  0  0
    7.6033   -6.6664    0.0000 H   0  0  0  0  0  0  0  0  0  0  0  0
    5.9333   -5.7022    0.0000 H   0  0  0  0  0  0  0  0  0  0  0  0
    6.9438   -8.4784    0.0000 C   0  0  0  0  0  0  0  0  0  0  0  0
    5.5343   -8.9915    0.0000 H   0  0  0  0  0  0  0  0  0  0  0  0
    7.2043   -9.9557    0.0000 H   0  0  0  0  0  0  0  0  0  0  0  0
    8.4438   -8.4784    0.0000 C   0  0  0  0  0  0  0  0  0  0  0  0
    9.1874   -9.7622    0.0000 C   0  0  0  0  0  0  0  0  0  0  0  0
    8.4350  -11.0599    0.0000 H   0  0  0  0  0  0  0  0  0  0  0  0
   10.6873   -9.7697    0.0000 C   0  0  0  0  0  0  0  0  0  0  0  0
   11.4228  -11.0770    0.0000 H   0  0  0  0  0  0  0  0  0  0  0  0
   11.4538   -8.4936    0.0000 C   0  0  0  0  0  0  0  0  0  0  0  0
   10.7004   -7.1798    0.0000 C   0  0  0  0  0  0  0  0  0  0  0  0
   11.4555   -5.8837    0.0000 H   0  0  0  0  0  0  0  0  0  0  0  0
    9.2004   -7.1722    0.0000 C   0  0  0  0  0  0  0  0  0  0  0  0
    8.4546   -5.8708    0.0000 H   0  0  0  0  0  0  0  0  0  0  0  0
   12.9537   -8.5087    0.0000 Cl  0  0  0  0  0  0  0  0  0  0  0  0
    0.2333   -2.6884    0.0000 O   0  0  0  0  0  0  0  0  0  0  0  0
    1.3824   -1.7242    0.0000 H   0  0  0  0  0  0  0  0  0  0  0  0
  1  2  1  0  0  0  0 
  1  3  1  0  0  0  0 
  1  4  1  0  0  0  0 
  4  5  1  0  0  0  0 
  4  6  1  0  0  0  0 
  4  7  1  0  0  0  0 
  7  8  1  0  0  0  0 
  7  9  1  0  0  0  0 
  7 10  1  0  0  0  0 
 10 11  1  0  0  0  0 
 11 12  1  0  0  0  0 
 11 13  1  0  0  0  0 
 11 14  1  0  0  0  0 
  1 14  1  0  0  0  0 
 14 15  1  0  0  0  0 
 14 16  1  0  0  0  0 
 10 17  1  0  0  0  0 
 17 18  1  0  0  0  0 
 17 19  1  0  0  0  0 
 17 20  1  0  0  0  0 
 20 21  1  0  0  0  0 
 20 22  1  0  0  0  0 
 22 23  1  0  0  0  0 
 22 24  1  0  0  0  0 
 22 25  1  0  0  0  0 
 25 26  1  0  0  0  0 
 26 27  1  0  0  0  0 
 26 28  1  0  0  0  0 
 26 29  1  0  0  0  0 
 29 30  1  0  0  0  0 
 29 31  1  0  0  0  0 
 29 32  1  0  0  0  0 
 32 33  1  0  0  0  0 
 32 34  1  0  0  0  0 
 32 35  1  0  0  0  0 
 35 36  2  0  0  0  0 
 36 37  1  0  0  0  0 
 36 38  1  0  0  0  0 
 38 39  1  0  0  0  0 
 38 40  2  0  0  0  0 
 40 41  1  0  0  0  0 
 41 42  1  0  0  0  0 
 41 43  2  0  0  0  0 
 35 43  1  0  0  0  0 
 43 44  1  0  0  0  0 
 40 45  1  0  0  0  0 
 20 46  1  0  0  0  0 
 46 47  1  0  0  0  0 
M  END
> <Rank>
31

> <Priority_score>
0.02

> <Reaction_type>
aliphatic hydroxylation

> <Parent_ID>
65

> <Parent_InChI>
InChI=1S/C17H26ClNO/c18-17-9-7-16(8-10-17)6-4-14-20-15-5-13-19-11-2-1-3-12-19/h7-10H,1-6,11-15H2

> <Parent_SMILES>
Clc1ccc(CCCOCCCN2CCCCC2)cc1

$$$$
Molecule 65_metabolite 32
  CDK     0516241031

 47 48  0  0  0  0  0  0  0  0999 V2000
   -0.8314    1.9300    0.0000 C   0  0  0  0  0  0  0  0  0  0  0  0
    0.1327    3.0792    0.0000 H   0  0  0  0  0  0  0  0  0  0  0  0
   -1.7954    3.0792    0.0000 H   0  0  0  0  0  0  0  0  0  0  0  0
   -2.1314    1.1800    0.0000 C   0  0  0  0  0  0  0  0  0  0  0  0
   -2.6441    2.5896    0.0000 H   0  0  0  0  0  0  0  0  0  0  0  0
   -3.6086    0.9197    0.0000 H   0  0  0  0  0  0  0  0  0  0  0  0
   -2.1314   -0.3200    0.0000 C   0  0  0  0  0  0  0  0  0  0  0  0
   -3.6086   -0.0597    0.0000 H   0  0  0  0  0  0  0  0  0  0  0  0
   -3.0953   -1.4693    0.0000 H   0  0  0  0  0  0  0  0  0  0  0  0
   -0.8314   -1.0700    0.0000 N   0  0  0  0  0  0  0  0  0  0  0  0
    0.4686   -0.3200    0.0000 C   0  0  0  0  0  0  0  0  0  0  0  0
    0.9813   -1.7296    0.0000 H   0  0  0  0  0  0  0  0  0  0  0  0
    1.9459   -0.0597    0.0000 H   0  0  0  0  0  0  0  0  0  0  0  0
    0.4686    1.1800    0.0000 C   0  0  0  0  0  0  0  0  0  0  0  0
    1.9459    0.9197    0.0000 H   0  0  0  0  0  0  0  0  0  0  0  0
    0.9813    2.5896    0.0000 H   0  0  0  0  0  0  0  0  0  0  0  0
   -0.8314   -2.5700    0.0000 C   0  0  0  0  0  0  0  0  0  0  0  0
   -2.3086   -2.3095    0.0000 H   0  0  0  0  0  0  0  0  0  0  0  0
   -1.3444   -3.9795    0.0000 H   0  0  0  0  0  0  0  0  0  0  0  0
    0.4677   -3.3200    0.0000 C   0  0  0  0  0  0  0  0  0  0  0  0
    1.4318   -4.4691    0.0000 H   0  0  0  0  0  0  0  0  0  0  0  0
   -0.4965   -4.4691    0.0000 H   0  0  0  0  0  0  0  0  0  0  0  0
    2.1824   -2.3300    0.0000 C   0  0  0  0  0  0  0  0  0  0  0  0
    1.6694   -0.9205    0.0000 H   0  0  0  0  0  0  0  0  0  0  0  0
    3.1466   -1.1809    0.0000 H   0  0  0  0  0  0  0  0  0  0  0  0
    3.8971   -3.3200    0.0000 O   0  0  0  0  0  0  0  0  0  0  0  0
    5.1962   -2.5700    0.0000 C   0  0  0  0  0  0  0  0  0  0  0  0
    4.2320   -1.4209    0.0000 H   0  0  0  0  0  0  0  0  0  0  0  0
    6.1603   -1.4209    0.0000 H   0  0  0  0  0  0  0  0  0  0  0  0
    6.9109   -3.5600    0.0000 C   0  0  0  0  0  0  0  0  0  0  0  0
    7.8751   -4.7091    0.0000 H   0  0  0  0  0  0  0  0  0  0  0  0
    5.9467   -4.7091    0.0000 H   0  0  0  0  0  0  0  0  0  0  0  0
    8.2099   -2.8100    0.0000 C   0  0  0  0  0  0  0  0  0  0  0  0
    7.2457   -1.6609    0.0000 H   0  0  0  0  0  0  0  0  0  0  0  0
    9.1741   -1.6609    0.0000 H   0  0  0  0  0  0  0  0  0  0  0  0
    9.5090   -3.5600    0.0000 C   0  0  0  0  0  0  0  0  0  0  0  0
    9.5016   -5.0600    0.0000 C   0  0  0  0  0  0  0  0  0  0  0  0
    8.1952   -5.7972    0.0000 H   0  0  0  0  0  0  0  0  0  0  0  0
   10.7679   -5.8162    0.0000 C   0  0  0  0  0  0  0  0  0  0  0  0
   10.7407   -7.3160    0.0000 H   0  0  0  0  0  0  0  0  0  0  0  0
   12.1215   -5.0729    0.0000 C   0  0  0  0  0  0  0  0  0  0  0  0
   12.1289   -3.5729    0.0000 C   0  0  0  0  0  0  0  0  0  0  0  0
   13.4255   -2.8186    0.0000 H   0  0  0  0  0  0  0  0  0  0  0  0
   10.7826   -2.8163    0.0000 C   0  0  0  0  0  0  0  0  0  0  0  0
   10.7703   -1.3163    0.0000 H   0  0  0  0  0  0  0  0  0  0  0  0
   13.4106   -5.8399    0.0000 O   0  0  0  0  0  0  0  0  0  0  0  0
   14.7194   -5.1071    0.0000 H   0  0  0  0  0  0  0  0  0  0  0  0
  1  2  1  0  0  0  0 
  1  3  1  0  0  0  0 
  1  4  1  0  0  0  0 
  4  5  1  0  0  0  0 
  4  6  1  0  0  0  0 
  4  7  1  0  0  0  0 
  7  8  1  0  0  0  0 
  7  9  1  0  0  0  0 
  7 10  1  0  0  0  0 
 10 11  1  0  0  0  0 
 11 12  1  0  0  0  0 
 11 13  1  0  0  0  0 
 11 14  1  0  0  0  0 
  1 14  1  0  0  0  0 
 14 15  1  0  0  0  0 
 14 16  1  0  0  0  0 
 10 17  1  0  0  0  0 
 17 18  1  0  0  0  0 
 17 19  1  0  0  0  0 
 17 20  1  0  0  0  0 
 20 21  1  0  0  0  0 
 20 22  1  0  0  0  0 
 20 23  1  0  0  0  0 
 23 24  1  0  0  0  0 
 23 25  1  0  0  0  0 
 23 26  1  0  0  0  0 
 26 27  1  0  0  0  0 
 27 28  1  0  0  0  0 
 27 29  1  0  0  0  0 
 27 30  1  0  0  0  0 
 30 31  1  0  0  0  0 
 30 32  1  0  0  0  0 
 30 33  1  0  0  0  0 
 33 34  1  0  0  0  0 
 33 35  1  0  0  0  0 
 33 36  1  0  0  0  0 
 36 37  2  0  0  0  0 
 37 38  1  0  0  0  0 
 37 39  1  0  0  0  0 
 39 40  1  0  0  0  0 
 39 41  2  0  0  0  0 
 41 42  1  0  0  0  0 
 42 43  1  0  0  0  0 
 42 44  2  0  0  0  0 
 36 44  1  0  0  0  0 
 44 45  1  0  0  0  0 
 41 46  1  0  0  0  0 
 46 47  1  0  0  0  0 
M  END
> <Rank>
32

> <Priority_score>
0.0072

> <Reaction_type>
oxidative dehalogenation benzyl

> <Parent_ID>
65

> <Parent_InChI>
InChI=1S/C17H26ClNO/c18-17-9-7-16(8-10-17)6-4-14-20-15-5-13-19-11-2-1-3-12-19/h7-10H,1-6,11-15H2

> <Parent_SMILES>
Clc1ccc(CCCOCCCN2CCCCC2)cc1

$$$$
Molecule 66
  CDK     0516241031

 17 19  0  0  0  0  0  0  0  0999 V2000
   -7.5030    0.7417    0.0000 C   0  0  0  0  0  0  0  0  0  0  0  0
   -6.2107    1.5033    0.0000 C   0  0  0  0  0  0  0  0  0  0  0  0
   -4.9081    0.7504    0.0000 C   0  0  0  0  0  0  0  0  0  0  0  0
   -4.9079   -0.7468    0.0000 C   0  0  0  0  0  0  0  0  0  0  0  0
   -6.2002   -1.5084    0.0000 C   0  0  0  0  0  0  0  0  0  0  0  0
   -7.5114   -0.7606    0.0000 C   0  0  0  0  0  0  0  0  0  0  0  0
   -3.6054   -1.4909    0.0000 Cl  0  0  0  0  0  0  0  0  0  0  0  0
   -3.6089    1.5002    0.0000 C   0  0  0  0  0  0  0  0  0  0  0  0
   -2.3100    0.7500    0.0000 N   0  0  0  0  0  0  0  0  0  0  0  0
   -2.3100   -0.7500    0.0000 C   0  0  0  0  0  0  0  0  0  0  0  0
   -1.0100   -1.5000    0.0000 C   0  0  0  0  0  0  0  0  0  0  0  0
    0.2900   -0.7500    0.0000 C   0  0  0  0  0  0  0  0  0  0  0  0
    0.2900    0.7500    0.0000 C   0  0  0  0  0  0  0  0  0  0  0  0
    1.7200    1.2100    0.0000 C   0  0  0  0  0  0  0  0  0  0  0  0
    2.6000    0.0000    0.0000 C   0  0  0  0  0  0  0  0  0  0  0  0
    1.7200   -1.2100    0.0000 S   0  0  0  0  0  0  0  0  0  0  0  0
   -1.0100    1.5000    0.0000 C   0  0  0  0  0  0  0  0  0  0  0  0
  1  2  2  0  0  0  0 
  2  3  1  0  0  0  0 
  3  4  2  0  0  0  0 
  4  5  1  0  0  0  0 
  5  6  2  0  0  0  0 
  1  6  1  0  0  0  0 
  4  7  1  0  0  0  0 
  3  8  1  0  0  0  0 
  8  9  1  0  0  0  0 
  9 10  1  0  0  0  0 
 10 11  1  0  0  0  0 
 11 12  1  0  0  0  0 
 12 13  2  0  0  0  0 
 13 14  1  0  0  0  0 
 14 15  2  0  0  0  0 
 15 16  1  0  0  0  0 
 12 16  1  0  0  0  0 
 13 17  1  0  0  0  0 
  9 17  1  0  0  0  0 
M  END
> <SMILES>
Clc1ccccc1CN1CCc2sccc2C1

$$$$
Molecule 66_metabolite 1
  CDK     0516241031

 32 34  0  0  0  0  0  0  0  0999 V2000
   -5.9847    3.7141    0.0000 C   0  0  0  0  0  0  0  0  0  0  0  0
   -6.5000    5.1228    0.0000 H   0  0  0  0  0  0  0  0  0  0  0  0
   -4.5053    3.4668    0.0000 C   0  0  0  0  0  0  0  0  0  0  0  0
   -3.5459    4.6199    0.0000 H   0  0  0  0  0  0  0  0  0  0  0  0
   -3.9914    2.0527    0.0000 C   0  0  0  0  0  0  0  0  0  0  0  0
   -4.9537    0.9057    0.0000 C   0  0  0  0  0  0  0  0  0  0  0  0
   -6.4332    1.1530    0.0000 C   0  0  0  0  0  0  0  0  0  0  0  0
   -7.3892   -0.0028    0.0000 H   0  0  0  0  0  0  0  0  0  0  0  0
   -6.9569    2.5687    0.0000 C   0  0  0  0  0  0  0  0  0  0  0  0
   -8.4340    2.8295    0.0000 H   0  0  0  0  0  0  0  0  0  0  0  0
   -4.4343   -0.5015    0.0000 Cl  0  0  0  0  0  0  0  0  0  0  0  0
   -2.5142    1.7919    0.0000 C   0  0  0  0  0  0  0  0  0  0  0  0
   -1.0370    2.0521    0.0000 H   0  0  0  0  0  0  0  0  0  0  0  0
   -2.5139    3.2919    0.0000 H   0  0  0  0  0  0  0  0  0  0  0  0
   -1.5093   -0.9710    0.0000 N   0  0  0  0  0  0  0  0  0  0  0  0
   -1.5093   -2.4710    0.0000 C   0  0  0  0  0  0  0  0  0  0  0  0
   -2.9865   -2.2107    0.0000 H   0  0  0  0  0  0  0  0  0  0  0  0
   -2.0220   -3.8806    0.0000 H   0  0  0  0  0  0  0  0  0  0  0  0
   -0.2093   -3.2210    0.0000 C   0  0  0  0  0  0  0  0  0  0  0  0
   -1.1733   -4.3702    0.0000 H   0  0  0  0  0  0  0  0  0  0  0  0
    0.7548   -4.3702    0.0000 H   0  0  0  0  0  0  0  0  0  0  0  0
    1.0907   -2.4710    0.0000 C   0  0  0  0  0  0  0  0  0  0  0  0
    1.0907   -0.9710    0.0000 C   0  0  0  0  0  0  0  0  0  0  0  0
    2.5207   -0.5110    0.0000 C   0  0  0  0  0  0  0  0  0  0  0  0
    2.9860    0.9150    0.0000 H   0  0  0  0  0  0  0  0  0  0  0  0
    3.4007   -1.7210    0.0000 C   0  0  0  0  0  0  0  0  0  0  0  0
    4.9007   -1.7210    0.0000 H   0  0  0  0  0  0  0  0  0  0  0  0
    2.5207   -2.9310    0.0000 S   0  0  0  0  0  0  0  0  0  0  0  0
   -0.2093   -0.2210    0.0000 C   0  0  0  0  0  0  0  0  0  0  0  0
    0.7548    0.9282    0.0000 H   0  0  0  0  0  0  0  0  0  0  0  0
   -1.4818    1.2959    0.0000 H   0  0  0  0  0  0  0  0  0  0  0  0
   -2.9865   -1.2313    0.0000 O   0  0  0  0  0  0  0  0  0  0  0  0
  1  2  1  0  0  0  0 
  1  3  2  0  0  0  0 
  3  4  1  0  0  0  0 
  3  5  1  0  0  0  0 
  5  6  2  0  0  0  0 
  6  7  1  0  0  0  0 
  7  8  1  0  0  0  0 
  7  9  2  0  0  0  0 
  1  9  1  0  0  0  0 
  9 10  1  0  0  0  0 
  6 11  1  0  0  0  0 
  5 12  1  0  0  0  0 
 12 13  1  0  0  0  0 
 12 14  1  0  0  0  0 
 12 15  1  0  0  0  0 
 15 16  1  0  0  0  0 
 16 17  1  0  0  0  0 
 16 18  1  0  0  0  0 
 16 19  1  0  0  0  0 
 19 20  1  0  0  0  0 
 19 21  1  0  0  0  0 
 19 22  1  0  0  0  0 
 22 23  2  0  0  0  0 
 23 24  1  0  0  0  0 
 24 25  1  0  0  0  0 
 24 26  2  0  0  0  0 
 26 27  1  0  0  0  0 
 26 28  1  0  0  0  0 
 22 28  1  0  0  0  0 
 23 29  1  0  0  0  0 
 15 29  1  0  0  0  0 
 29 30  1  0  0  0  0 
 29 31  1  0  0  0  0 
 15 32  1  0  0  0  0 
M  CHG  1  15   1
M  CHG  1  32  -1
M  END
> <Rank>
1

> <Priority_score>
0.6793235078314014

> <Reaction_type>
N-oxidation_(tertiary_N)

> <Parent_ID>
66

> <Parent_InChI>
InChI=1S/C14H14ClNS/c15-13-4-2-1-3-11(13)9-16-7-5-14-12(10-16)6-8-17-14/h1-4,6,8H,5,7,9-10H2

> <Parent_SMILES>
Clc1ccccc1CN1CCc2sccc2C1

$$$$
Molecule 66_metabolite 2
  CDK     0516241031

 32 34  0  0  0  0  0  0  0  0999 V2000
   -6.2070   -1.5002    0.0000 C   0  0  0  0  0  0  0  0  0  0  0  0
   -6.2075   -3.0002    0.0000 H   0  0  0  0  0  0  0  0  0  0  0  0
   -7.5064   -0.7492    0.0000 C   0  0  0  0  0  0  0  0  0  0  0  0
   -8.8056   -1.4990    0.0000 H   0  0  0  0  0  0  0  0  0  0  0  0
   -7.5066    0.7517    0.0000 C   0  0  0  0  0  0  0  0  0  0  0  0
   -6.2075    1.5015    0.0000 C   0  0  0  0  0  0  0  0  0  0  0  0
   -4.9081    0.7504    0.0000 C   0  0  0  0  0  0  0  0  0  0  0  0
   -4.9078   -0.7504    0.0000 C   0  0  0  0  0  0  0  0  0  0  0  0
   -3.6088   -1.5004    0.0000 H   0  0  0  0  0  0  0  0  0  0  0  0
   -3.6089    1.5002    0.0000 C   0  0  0  0  0  0  0  0  0  0  0  0
   -2.6446    2.6491    0.0000 H   0  0  0  0  0  0  0  0  0  0  0  0
   -4.5729    2.6494    0.0000 H   0  0  0  0  0  0  0  0  0  0  0  0
   -1.8943    0.5099    0.0000 N   0  0  0  0  0  0  0  0  0  0  0  0
   -1.8943   -0.9901    0.0000 C   0  0  0  0  0  0  0  0  0  0  0  0
   -3.3716   -0.7298    0.0000 H   0  0  0  0  0  0  0  0  0  0  0  0
   -2.4071   -2.3997    0.0000 H   0  0  0  0  0  0  0  0  0  0  0  0
   -0.5943   -1.7401    0.0000 C   0  0  0  0  0  0  0  0  0  0  0  0
   -1.5584   -2.8892    0.0000 H   0  0  0  0  0  0  0  0  0  0  0  0
    0.3697   -2.8892    0.0000 H   0  0  0  0  0  0  0  0  0  0  0  0
    0.7057   -0.9901    0.0000 C   0  0  0  0  0  0  0  0  0  0  0  0
    0.7057    0.5099    0.0000 C   0  0  0  0  0  0  0  0  0  0  0  0
    2.1357    0.9699    0.0000 C   0  0  0  0  0  0  0  0  0  0  0  0
    2.6009    2.3959    0.0000 H   0  0  0  0  0  0  0  0  0  0  0  0
    3.0157   -0.2401    0.0000 C   0  0  0  0  0  0  0  0  0  0  0  0
    4.5157   -0.2401    0.0000 H   0  0  0  0  0  0  0  0  0  0  0  0
    2.1357   -1.4501    0.0000 S   0  0  0  0  0  0  0  0  0  0  0  0
   -0.5943    1.2599    0.0000 C   0  0  0  0  0  0  0  0  0  0  0  0
    0.3697    2.4091    0.0000 H   0  0  0  0  0  0  0  0  0  0  0  0
   -1.5584    2.4091    0.0000 H   0  0  0  0  0  0  0  0  0  0  0  0
   -6.2070    3.0015    0.0000 Cl  0  0  0  0  0  0  0  0  0  0  0  0
   -8.8057    1.5017    0.0000 O   0  0  0  0  0  0  0  0  0  0  0  0
  -10.1047    0.7517    0.0000 H   0  0  0  0  0  0  0  0  0  0  0  0
  1  2  1  0  0  0  0 
  1  3  2  0  0  0  0 
  3  4  1  0  0  0  0 
  3  5  1  0  0  0  0 
  5  6  2  0  0  0  0 
  6  7  1  0  0  0  0 
  7  8  2  0  0  0  0 
  1  8  1  0  0  0  0 
  8  9  1  0  0  0  0 
  7 10  1  0  0  0  0 
 10 11  1  0  0  0  0 
 10 12  1  0  0  0  0 
 10 13  1  0  0  0  0 
 13 14  1  0  0  0  0 
 14 15  1  0  0  0  0 
 14 16  1  0  0  0  0 
 14 17  1  0  0  0  0 
 17 18  1  0  0  0  0 
 17 19  1  0  0  0  0 
 17 20  1  0  0  0  0 
 20 21  2  0  0  0  0 
 21 22  1  0  0  0  0 
 22 23  1  0  0  0  0 
 22 24  2  0  0  0  0 
 24 25  1  0  0  0  0 
 24 26  1  0  0  0  0 
 20 26  1  0  0  0  0 
 21 27  1  0  0  0  0 
 13 27  1  0  0  0  0 
 27 28  1  0  0  0  0 
 27 29  1  0  0  0  0 
  6 30  1  0  0  0  0 
  5 31  1  0  0  0  0 
 31 32  1  0  0  0  0 
M  END
> <Rank>
1

> <Priority_score>
0.6793235078314014

> <Reaction_type>
aromatic_hydroxylation_(meta_to_carbon)

> <Parent_ID>
66

> <Parent_InChI>
InChI=1S/C14H14ClNS/c15-13-4-2-1-3-11(13)9-16-7-5-14-12(10-16)6-8-17-14/h1-4,6,8H,5,7,9-10H2

> <Parent_SMILES>
Clc1ccccc1CN1CCc2sccc2C1

$$$$
Molecule 66_metabolite 3
  CDK     0516241031

 14 14  0  0  0  0  0  0  0  0999 V2000
    0.9679    0.9318    0.0000 C   0  0  0  0  0  0  0  0  0  0  0  0
    2.2723    1.6723    0.0000 H   0  0  0  0  0  0  0  0  0  0  0  0
    0.9679   -0.5682    0.0000 C   0  0  0  0  0  0  0  0  0  0  0  0
    2.2634   -1.3243    0.0000 H   0  0  0  0  0  0  0  0  0  0  0  0
   -0.3421   -1.3082    0.0000 C   0  0  0  0  0  0  0  0  0  0  0  0
   -1.6321   -0.5482    0.0000 C   0  0  0  0  0  0  0  0  0  0  0  0
   -1.6321    0.9518    0.0000 C   0  0  0  0  0  0  0  0  0  0  0  0
   -2.9298    1.7041    0.0000 H   0  0  0  0  0  0  0  0  0  0  0  0
   -0.3221    1.7018    0.0000 C   0  0  0  0  0  0  0  0  0  0  0  0
   -0.3085    3.2017    0.0000 H   0  0  0  0  0  0  0  0  0  0  0  0
   -2.9345   -1.2925    0.0000 Cl  0  0  0  0  0  0  0  0  0  0  0  0
   -0.3558   -2.8081    0.0000 C   0  0  0  0  0  0  0  0  0  0  0  0
    0.9364   -3.5699    0.0000 H   0  0  0  0  0  0  0  0  0  0  0  0
   -1.6616   -3.5463    0.0000 O   0  0  0  0  0  0  0  0  0  0  0  0
  1  2  1  0  0  0  0 
  1  3  2  0  0  0  0 
  3  4  1  0  0  0  0 
  3  5  1  0  0  0  0 
  5  6  2  0  0  0  0 
  6  7  1  0  0  0  0 
  7  8  1  0  0  0  0 
  7  9  2  0  0  0  0 
  1  9  1  0  0  0  0 
  9 10  1  0  0  0  0 
  6 11  1  0  0  0  0 
  5 12  1  0  0  0  0 
 12 13  1  0  0  0  0 
 12 14  2  0  0  0  0 
M  END
> <Rank>
1

> <Priority_score>
0.6793235078314014

> <Reaction_type>
N-dealkylation

> <Parent_ID>
66

> <Parent_InChI>
InChI=1S/C14H14ClNS/c15-13-4-2-1-3-11(13)9-16-7-5-14-12(10-16)6-8-17-14/h1-4,6,8H,5,7,9-10H2

> <Parent_SMILES>
Clc1ccccc1CN1CCc2sccc2C1

$$$$
Molecule 66_metabolite 4
  CDK     0516241031

 18 19  0  0  0  0  0  0  0  0999 V2000
   -1.0100    1.5000    0.0000 C   0  0  0  0  0  0  0  0  0  0  0  0
   -0.0459    2.6492    0.0000 H   0  0  0  0  0  0  0  0  0  0  0  0
   -1.9741    2.6492    0.0000 H   0  0  0  0  0  0  0  0  0  0  0  0
   -2.3100    0.7500    0.0000 C   0  0  0  0  0  0  0  0  0  0  0  0
   -2.8227    2.1596    0.0000 H   0  0  0  0  0  0  0  0  0  0  0  0
   -3.7872    0.4897    0.0000 H   0  0  0  0  0  0  0  0  0  0  0  0
   -2.3100   -0.7500    0.0000 N   0  0  0  0  0  0  0  0  0  0  0  0
   -3.6089   -1.5002    0.0000 H   0  0  0  0  0  0  0  0  0  0  0  0
   -1.0100   -1.5000    0.0000 C   0  0  0  0  0  0  0  0  0  0  0  0
   -1.9741   -2.6492    0.0000 H   0  0  0  0  0  0  0  0  0  0  0  0
   -0.0459   -2.6492    0.0000 H   0  0  0  0  0  0  0  0  0  0  0  0
    0.2900   -0.7500    0.0000 C   0  0  0  0  0  0  0  0  0  0  0  0
    0.2900    0.7500    0.0000 C   0  0  0  0  0  0  0  0  0  0  0  0
    1.7200    1.2100    0.0000 S   0  0  0  0  0  0  0  0  0  0  0  0
    2.6000    0.0000    0.0000 C   0  0  0  0  0  0  0  0  0  0  0  0
    4.1000   -0.0000    0.0000 H   0  0  0  0  0  0  0  0  0  0  0  0
    1.7200   -1.2100    0.0000 C   0  0  0  0  0  0  0  0  0  0  0  0
    2.1853   -2.6360    0.0000 H   0  0  0  0  0  0  0  0  0  0  0  0
  1  2  1  0  0  0  0 
  1  3  1  0  0  0  0 
  1  4  1  0  0  0  0 
  4  5  1  0  0  0  0 
  4  6  1  0  0  0  0 
  4  7  1  0  0  0  0 
  7  8  1  0  0  0  0 
  7  9  1  0  0  0  0 
  9 10  1  0  0  0  0 
  9 11  1  0  0  0  0 
  9 12  1  0  0  0  0 
 12 13  2  0  0  0  0 
  1 13  1  0  0  0  0 
 13 14  1  0  0  0  0 
 14 15  1  0  0  0  0 
 15 16  1  0  0  0  0 
 15 17  2  0  0  0  0 
 12 17  1  0  0  0  0 
 17 18  1  0  0  0  0 
M  END
> <Rank>
1

> <Priority_score>
0.6793235078314014

> <Reaction_type>
N-dealkylation_(tertiaryN-CH2-alkyl)

> <Parent_ID>
66

> <Parent_InChI>
InChI=1S/C14H14ClNS/c15-13-4-2-1-3-11(13)9-16-7-5-14-12(10-16)6-8-17-14/h1-4,6,8H,5,7,9-10H2

> <Parent_SMILES>
Clc1ccccc1CN1CCc2sccc2C1

$$$$
Molecule 66_metabolite 5
  CDK     0516241031

 32 34  0  0  0  0  0  0  0  0999 V2000
   -6.2075    1.5015    0.0000 C   0  0  0  0  0  0  0  0  0  0  0  0
   -6.2070    3.0015    0.0000 H   0  0  0  0  0  0  0  0  0  0  0  0
   -4.9081    0.7504    0.0000 C   0  0  0  0  0  0  0  0  0  0  0  0
   -3.6089    1.5002    0.0000 C   0  0  0  0  0  0  0  0  0  0  0  0
   -2.6446    2.6491    0.0000 H   0  0  0  0  0  0  0  0  0  0  0  0
   -4.5729    2.6494    0.0000 H   0  0  0  0  0  0  0  0  0  0  0  0
   -1.8943    0.5099    0.0000 N   0  0  0  0  0  0  0  0  0  0  0  0
   -1.8943   -0.9901    0.0000 C   0  0  0  0  0  0  0  0  0  0  0  0
   -3.3716   -0.7298    0.0000 H   0  0  0  0  0  0  0  0  0  0  0  0
   -2.4071   -2.3997    0.0000 H   0  0  0  0  0  0  0  0  0  0  0  0
   -0.5943   -1.7401    0.0000 C   0  0  0  0  0  0  0  0  0  0  0  0
   -1.5584   -2.8892    0.0000 H   0  0  0  0  0  0  0  0  0  0  0  0
    0.3697   -2.8892    0.0000 H   0  0  0  0  0  0  0  0  0  0  0  0
    0.7057   -0.9901    0.0000 C   0  0  0  0  0  0  0  0  0  0  0  0
    0.7057    0.5099    0.0000 C   0  0  0  0  0  0  0  0  0  0  0  0
    2.1357    0.9699    0.0000 C   0  0  0  0  0  0  0  0  0  0  0  0
    2.6009    2.3959    0.0000 H   0  0  0  0  0  0  0  0  0  0  0  0
    3.0157   -0.2401    0.0000 C   0  0  0  0  0  0  0  0  0  0  0  0
    4.5157   -0.2401    0.0000 H   0  0  0  0  0  0  0  0  0  0  0  0
    2.1357   -1.4501    0.0000 S   0  0  0  0  0  0  0  0  0  0  0  0
   -0.5943    1.2599    0.0000 C   0  0  0  0  0  0  0  0  0  0  0  0
    0.3697    2.4091    0.0000 H   0  0  0  0  0  0  0  0  0  0  0  0
   -1.5584    2.4091    0.0000 H   0  0  0  0  0  0  0  0  0  0  0  0
   -4.9078   -0.7504    0.0000 C   0  0  0  0  0  0  0  0  0  0  0  0
   -6.2070   -1.5002    0.0000 C   0  0  0  0  0  0  0  0  0  0  0  0
   -6.2075   -3.0002    0.0000 H   0  0  0  0  0  0  0  0  0  0  0  0
   -7.5064   -0.7492    0.0000 C   0  0  0  0  0  0  0  0  0  0  0  0
   -7.5066    0.7517    0.0000 C   0  0  0  0  0  0  0  0  0  0  0  0
   -8.8057    1.5017    0.0000 H   0  0  0  0  0  0  0  0  0  0  0  0
   -8.8056   -1.4990    0.0000 O   0  0  0  0  0  0  0  0  0  0  0  0
  -10.1045   -0.7488    0.0000 H   0  0  0  0  0  0  0  0  0  0  0  0
   -3.6088   -1.5004    0.0000 Cl  0  0  0  0  0  0  0  0  0  0  0  0
  1  2  1  0  0  0  0 
  1  3  2  0  0  0  0 
  3  4  1  0  0  0  0 
  4  5  1  0  0  0  0 
  4  6  1  0  0  0  0 
  4  7  1  0  0  0  0 
  7  8  1  0  0  0  0 
  8  9  1  0  0  0  0 
  8 10  1  0  0  0  0 
  8 11  1  0  0  0  0 
 11 12  1  0  0  0  0 
 11 13  1  0  0  0  0 
 11 14  1  0  0  0  0 
 14 15  2  0  0  0  0 
 15 16  1  0  0  0  0 
 16 17  1  0  0  0  0 
 16 18  2  0  0  0  0 
 18 19  1  0  0  0  0 
 18 20  1  0  0  0  0 
 14 20  1  0  0  0  0 
 15 21  1  0  0  0  0 
  7 21  1  0  0  0  0 
 21 22  1  0  0  0  0 
 21 23  1  0  0  0  0 
  3 24  1  0  0  0  0 
 24 25  2  0  0  0  0 
 25 26  1  0  0  0  0 
 25 27  1  0  0  0  0 
 27 28  2  0  0  0  0 
  1 28  1  0  0  0  0 
 28 29  1  0  0  0  0 
 27 30  1  0  0  0  0 
 30 31  1  0  0  0  0 
 24 32  1  0  0  0  0 
M  END
> <Rank>
1

> <Priority_score>
0.6793235078314014

> <Reaction_type>
aromatic_hydroxylation_(para_to_carbon)

> <Parent_ID>
66

> <Parent_InChI>
InChI=1S/C14H14ClNS/c15-13-4-2-1-3-11(13)9-16-7-5-14-12(10-16)6-8-17-14/h1-4,6,8H,5,7,9-10H2

> <Parent_SMILES>
Clc1ccccc1CN1CCc2sccc2C1

$$$$
Molecule 66_metabolite 6
  CDK     0516241031

 32 34  0  0  0  0  0  0  0  0999 V2000
   -7.5030    0.7417    0.0000 C   0  0  0  0  0  0  0  0  0  0  0  0
   -8.8033    1.4895    0.0000 H   0  0  0  0  0  0  0  0  0  0  0  0
   -6.2107    1.5033    0.0000 C   0  0  0  0  0  0  0  0  0  0  0  0
   -6.2171    3.0033    0.0000 H   0  0  0  0  0  0  0  0  0  0  0  0
   -4.9081    0.7504    0.0000 C   0  0  0  0  0  0  0  0  0  0  0  0
   -4.9079   -0.7468    0.0000 C   0  0  0  0  0  0  0  0  0  0  0  0
   -6.2002   -1.5084    0.0000 C   0  0  0  0  0  0  0  0  0  0  0  0
   -6.1895   -3.0084    0.0000 H   0  0  0  0  0  0  0  0  0  0  0  0
   -7.5114   -0.7606    0.0000 C   0  0  0  0  0  0  0  0  0  0  0  0
   -8.8106   -1.5104    0.0000 H   0  0  0  0  0  0  0  0  0  0  0  0
   -3.6054   -1.4909    0.0000 Cl  0  0  0  0  0  0  0  0  0  0  0  0
   -3.6089    1.5002    0.0000 C   0  0  0  0  0  0  0  0  0  0  0  0
   -2.6446    2.6491    0.0000 H   0  0  0  0  0  0  0  0  0  0  0  0
   -1.8943    0.5099    0.0000 N   0  0  0  0  0  0  0  0  0  0  0  0
   -1.8943   -0.9901    0.0000 C   0  0  0  0  0  0  0  0  0  0  0  0
   -3.3716   -0.7298    0.0000 H   0  0  0  0  0  0  0  0  0  0  0  0
   -2.4071   -2.3997    0.0000 H   0  0  0  0  0  0  0  0  0  0  0  0
   -0.5943   -1.7401    0.0000 C   0  0  0  0  0  0  0  0  0  0  0  0
   -1.5584   -2.8892    0.0000 H   0  0  0  0  0  0  0  0  0  0  0  0
    0.3697   -2.8892    0.0000 H   0  0  0  0  0  0  0  0  0  0  0  0
    0.7057   -0.9901    0.0000 C   0  0  0  0  0  0  0  0  0  0  0  0
    0.7057    0.5099    0.0000 C   0  0  0  0  0  0  0  0  0  0  0  0
    2.1357    0.9699    0.0000 C   0  0  0  0  0  0  0  0  0  0  0  0
    2.6009    2.3959    0.0000 H   0  0  0  0  0  0  0  0  0  0  0  0
    3.0157   -0.2401    0.0000 C   0  0  0  0  0  0  0  0  0  0  0  0
    4.5157   -0.2401    0.0000 H   0  0  0  0  0  0  0  0  0  0  0  0
    2.1357   -1.4501    0.0000 S   0  0  0  0  0  0  0  0  0  0  0  0
   -0.5943    1.2599    0.0000 C   0  0  0  0  0  0  0  0  0  0  0  0
    0.3697    2.4091    0.0000 H   0  0  0  0  0  0  0  0  0  0  0  0
   -1.5584    2.4091    0.0000 H   0  0  0  0  0  0  0  0  0  0  0  0
   -4.5729    2.6494    0.0000 O   0  0  0  0  0  0  0  0  0  0  0  0
   -4.0597    4.0589    0.0000 H   0  0  0  0  0  0  0  0  0  0  0  0
  1  2  1  0  0  0  0 
  1  3  2  0  0  0  0 
  3  4  1  0  0  0  0 
  3  5  1  0  0  0  0 
  5  6  2  0  0  0  0 
  6  7  1  0  0  0  0 
  7  8  1  0  0  0  0 
  7  9  2  0  0  0  0 
  1  9  1  0  0  0  0 
  9 10  1  0  0  0  0 
  6 11  1  0  0  0  0 
  5 12  1  0  0  0  0 
 12 13  1  0  0  0  0 
 12 14  1  0  0  0  0 
 14 15  1  0  0  0  0 
 15 16  1  0  0  0  0 
 15 17  1  0  0  0  0 
 15 18  1  0  0  0  0 
 18 19  1  0  0  0  0 
 18 20  1  0  0  0  0 
 18 21  1  0  0  0  0 
 21 22  2  0  0  0  0 
 22 23  1  0  0  0  0 
 23 24  1  0  0  0  0 
 23 25  2  0  0  0  0 
 25 26  1  0  0  0  0 
 25 27  1  0  0  0  0 
 21 27  1  0  0  0  0 
 22 28  1  0  0  0  0 
 14 28  1  0  0  0  0 
 28 29  1  0  0  0  0 
 28 30  1  0  0  0  0 
 12 31  1  0  0  0  0 
 31 32  1  0  0  0  0 
M  END
> <Rank>
1

> <Priority_score>
0.6793235078314014

> <Reaction_type>
benzylic_hydroxylation_(c-CH2-N)

> <Parent_ID>
66

> <Parent_InChI>
InChI=1S/C14H14ClNS/c15-13-4-2-1-3-11(13)9-16-7-5-14-12(10-16)6-8-17-14/h1-4,6,8H,5,7,9-10H2

> <Parent_SMILES>
Clc1ccccc1CN1CCc2sccc2C1

$$$$
Molecule 66_metabolite 7
  CDK     0516241031

 32 34  0  0  0  0  0  0  0  0999 V2000
   -7.5071   -0.7512    0.0000 C   0  0  0  0  0  0  0  0  0  0  0  0
   -8.8063   -1.5010    0.0000 H   0  0  0  0  0  0  0  0  0  0  0  0
   -7.5066    0.7496    0.0000 C   0  0  0  0  0  0  0  0  0  0  0  0
   -6.2071    1.5004    0.0000 C   0  0  0  0  0  0  0  0  0  0  0  0
   -6.2074    3.0004    0.0000 H   0  0  0  0  0  0  0  0  0  0  0  0
   -4.9081    0.7504    0.0000 C   0  0  0  0  0  0  0  0  0  0  0  0
   -3.6089    1.5002    0.0000 C   0  0  0  0  0  0  0  0  0  0  0  0
   -2.6446    2.6491    0.0000 H   0  0  0  0  0  0  0  0  0  0  0  0
   -4.5729    2.6494    0.0000 H   0  0  0  0  0  0  0  0  0  0  0  0
   -1.8943    0.5099    0.0000 N   0  0  0  0  0  0  0  0  0  0  0  0
   -1.8943   -0.9901    0.0000 C   0  0  0  0  0  0  0  0  0  0  0  0
   -3.3716   -0.7298    0.0000 H   0  0  0  0  0  0  0  0  0  0  0  0
   -2.4071   -2.3997    0.0000 H   0  0  0  0  0  0  0  0  0  0  0  0
   -0.5943   -1.7401    0.0000 C   0  0  0  0  0  0  0  0  0  0  0  0
   -1.5584   -2.8892    0.0000 H   0  0  0  0  0  0  0  0  0  0  0  0
    0.3697   -2.8892    0.0000 H   0  0  0  0  0  0  0  0  0  0  0  0
    0.7057   -0.9901    0.0000 C   0  0  0  0  0  0  0  0  0  0  0  0
    0.7057    0.5099    0.0000 C   0  0  0  0  0  0  0  0  0  0  0  0
    2.1357    0.9699    0.0000 C   0  0  0  0  0  0  0  0  0  0  0  0
    2.6009    2.3959    0.0000 H   0  0  0  0  0  0  0  0  0  0  0  0
    3.0157   -0.2401    0.0000 C   0  0  0  0  0  0  0  0  0  0  0  0
    4.5157   -0.2401    0.0000 H   0  0  0  0  0  0  0  0  0  0  0  0
    2.1357   -1.4501    0.0000 S   0  0  0  0  0  0  0  0  0  0  0  0
   -0.5943    1.2599    0.0000 C   0  0  0  0  0  0  0  0  0  0  0  0
    0.3697    2.4091    0.0000 H   0  0  0  0  0  0  0  0  0  0  0  0
   -1.5584    2.4091    0.0000 H   0  0  0  0  0  0  0  0  0  0  0  0
   -4.9086   -0.7504    0.0000 C   0  0  0  0  0  0  0  0  0  0  0  0
   -6.2081   -1.5012    0.0000 C   0  0  0  0  0  0  0  0  0  0  0  0
   -6.2078   -3.0012    0.0000 H   0  0  0  0  0  0  0  0  0  0  0  0
   -3.6095   -1.5004    0.0000 Cl  0  0  0  0  0  0  0  0  0  0  0  0
   -8.8057    1.4996    0.0000 O   0  0  0  0  0  0  0  0  0  0  0  0
  -10.1047    0.7496    0.0000 H   0  0  0  0  0  0  0  0  0  0  0  0
  1  2  1  0  0  0  0 
  1  3  2  0  0  0  0 
  3  4  1  0  0  0  0 
  4  5  1  0  0  0  0 
  4  6  2  0  0  0  0 
  6  7  1  0  0  0  0 
  7  8  1  0  0  0  0 
  7  9  1  0  0  0  0 
  7 10  1  0  0  0  0 
 10 11  1  0  0  0  0 
 11 12  1  0  0  0  0 
 11 13  1  0  0  0  0 
 11 14  1  0  0  0  0 
 14 15  1  0  0  0  0 
 14 16  1  0  0  0  0 
 14 17  1  0  0  0  0 
 17 18  2  0  0  0  0 
 18 19  1  0  0  0  0 
 19 20  1  0  0  0  0 
 19 21  2  0  0  0  0 
 21 22  1  0  0  0  0 
 21 23  1  0  0  0  0 
 17 23  1  0  0  0  0 
 18 24  1  0  0  0  0 
 10 24  1  0  0  0  0 
 24 25  1  0  0  0  0 
 24 26  1  0  0  0  0 
  6 27  1  0  0  0  0 
 27 28  2  0  0  0  0 
  1 28  1  0  0  0  0 
 28 29  1  0  0  0  0 
 27 30  1  0  0  0  0 
  3 31  1  0  0  0  0 
 31 32  1  0  0  0  0 
M  END
> <Rank>
1

> <Priority_score>
0.6793235078314014

> <Reaction_type>
aromatic_hydroxylation_(meta_to_carbon)

> <Parent_ID>
66

> <Parent_InChI>
InChI=1S/C14H14ClNS/c15-13-4-2-1-3-11(13)9-16-7-5-14-12(10-16)6-8-17-14/h1-4,6,8H,5,7,9-10H2

> <Parent_SMILES>
Clc1ccccc1CN1CCc2sccc2C1

$$$$
Molecule 66_metabolite 8
  CDK     0516241031

 16 16  0  0  0  0  0  0  0  0999 V2000
   -1.2975    2.6237    0.0000 C   0  0  0  0  0  0  0  0  0  0  0  0
   -1.2866    4.1237    0.0000 H   0  0  0  0  0  0  0  0  0  0  0  0
    0.0016    1.8737    0.0000 C   0  0  0  0  0  0  0  0  0  0  0  0
    1.3041    2.6176    0.0000 H   0  0  0  0  0  0  0  0  0  0  0  0
   -0.0126    0.3692    0.0000 C   0  0  0  0  0  0  0  0  0  0  0  0
   -1.3158   -0.3680    0.0000 C   0  0  0  0  0  0  0  0  0  0  0  0
   -2.6148    0.3820    0.0000 C   0  0  0  0  0  0  0  0  0  0  0  0
   -3.9152   -0.3656    0.0000 H   0  0  0  0  0  0  0  0  0  0  0  0
   -2.6093    1.8915    0.0000 C   0  0  0  0  0  0  0  0  0  0  0  0
   -3.9015    2.6533    0.0000 H   0  0  0  0  0  0  0  0  0  0  0  0
   -1.3224   -1.8679    0.0000 Cl  0  0  0  0  0  0  0  0  0  0  0  0
    1.2796   -0.3926    0.0000 C   0  0  0  0  0  0  0  0  0  0  0  0
    0.3050   -1.5328    0.0000 H   0  0  0  0  0  0  0  0  0  0  0  0
    2.2333   -1.5504    0.0000 H   0  0  0  0  0  0  0  0  0  0  0  0
    2.5854    0.3456    0.0000 O   0  0  0  0  0  0  0  0  0  0  0  0
    3.8775   -0.4162    0.0000 H   0  0  0  0  0  0  0  0  0  0  0  0
  1  2  1  0  0  0  0 
  1  3  2  0  0  0  0 
  3  4  1  0  0  0  0 
  3  5  1  0  0  0  0 
  5  6  2  0  0  0  0 
  6  7  1  0  0  0  0 
  7  8  1  0  0  0  0 
  7  9  2  0  0  0  0 
  1  9  1  0  0  0  0 
  9 10  1  0  0  0  0 
  6 11  1  0  0  0  0 
  5 12  1  0  0  0  0 
 12 13  1  0  0  0  0 
 12 14  1  0  0  0  0 
 12 15  1  0  0  0  0 
 15 16  1  0  0  0  0 
M  END
> <Rank>
1

> <Priority_score>
0.6793235078314014

> <Reaction_type>
N-dealkylation_(tertiaryN-CH2-alkyl)

> <Parent_ID>
66

> <Parent_InChI>
InChI=1S/C14H14ClNS/c15-13-4-2-1-3-11(13)9-16-7-5-14-12(10-16)6-8-17-14/h1-4,6,8H,5,7,9-10H2

> <Parent_SMILES>
Clc1ccccc1CN1CCc2sccc2C1

$$$$
Molecule 66_metabolite 9
  CDK     0516241031

 32 34  0  0  0  0  0  0  0  0999 V2000
   -7.5030    0.7417    0.0000 C   0  0  0  0  0  0  0  0  0  0  0  0
   -8.8033    1.4895    0.0000 H   0  0  0  0  0  0  0  0  0  0  0  0
   -6.2107    1.5033    0.0000 C   0  0  0  0  0  0  0  0  0  0  0  0
   -6.2171    3.0033    0.0000 H   0  0  0  0  0  0  0  0  0  0  0  0
   -4.9081    0.7504    0.0000 C   0  0  0  0  0  0  0  0  0  0  0  0
   -4.9079   -0.7468    0.0000 C   0  0  0  0  0  0  0  0  0  0  0  0
   -6.2002   -1.5084    0.0000 C   0  0  0  0  0  0  0  0  0  0  0  0
   -6.1895   -3.0084    0.0000 H   0  0  0  0  0  0  0  0  0  0  0  0
   -7.5114   -0.7606    0.0000 C   0  0  0  0  0  0  0  0  0  0  0  0
   -8.8106   -1.5104    0.0000 H   0  0  0  0  0  0  0  0  0  0  0  0
   -3.6054   -1.4909    0.0000 Cl  0  0  0  0  0  0  0  0  0  0  0  0
   -3.6089    1.5002    0.0000 C   0  0  0  0  0  0  0  0  0  0  0  0
   -2.6446    2.6491    0.0000 H   0  0  0  0  0  0  0  0  0  0  0  0
   -4.5729    2.6494    0.0000 H   0  0  0  0  0  0  0  0  0  0  0  0
   -1.8943    0.5099    0.0000 N   0  0  0  0  0  0  0  0  0  0  0  0
   -1.8943   -0.9901    0.0000 C   0  0  0  0  0  0  0  0  0  0  0  0
   -3.3716   -0.7298    0.0000 H   0  0  0  0  0  0  0  0  0  0  0  0
   -2.4071   -2.3997    0.0000 H   0  0  0  0  0  0  0  0  0  0  0  0
   -0.5943   -1.7401    0.0000 C   0  0  0  0  0  0  0  0  0  0  0  0
   -1.5584   -2.8892    0.0000 H   0  0  0  0  0  0  0  0  0  0  0  0
    0.3697   -2.8892    0.0000 H   0  0  0  0  0  0  0  0  0  0  0  0
    0.7057   -0.9901    0.0000 C   0  0  0  0  0  0  0  0  0  0  0  0
    0.7057    0.5099    0.0000 C   0  0  0  0  0  0  0  0  0  0  0  0
    2.1357    0.9699    0.0000 C   0  0  0  0  0  0  0  0  0  0  0  0
    2.6009    2.3959    0.0000 H   0  0  0  0  0  0  0  0  0  0  0  0
    3.0157   -0.2401    0.0000 C   0  0  0  0  0  0  0  0  0  0  0  0
    4.5157   -0.2401    0.0000 O   0  0  0  0  0  0  0  0  0  0  0  0
    5.2657   -1.5391    0.0000 H   0  0  0  0  0  0  0  0  0  0  0  0
    2.1357   -1.4501    0.0000 S   0  0  0  0  0  0  0  0  0  0  0  0
   -0.5943    1.2599    0.0000 C   0  0  0  0  0  0  0  0  0  0  0  0
    0.3697    2.4091    0.0000 H   0  0  0  0  0  0  0  0  0  0  0  0
   -1.5584    2.4091    0.0000 H   0  0  0  0  0  0  0  0  0  0  0  0
  1  2  1  0  0  0  0 
  1  3  2  0  0  0  0 
  3  4  1  0  0  0  0 
  3  5  1  0  0  0  0 
  5  6  2  0  0  0  0 
  6  7  1  0  0  0  0 
  7  8  1  0  0  0  0 
  7  9  2  0  0  0  0 
  1  9  1  0  0  0  0 
  9 10  1  0  0  0  0 
  6 11  1  0  0  0  0 
  5 12  1  0  0  0  0 
 12 13  1  0  0  0  0 
 12 14  1  0  0  0  0 
 12 15  1  0  0  0  0 
 15 16  1  0  0  0  0 
 16 17  1  0  0  0  0 
 16 18  1  0  0  0  0 
 16 19  1  0  0  0  0 
 19 20  1  0  0  0  0 
 19 21  1  0  0  0  0 
 19 22  1  0  0  0  0 
 22 23  2  0  0  0  0 
 23 24  1  0  0  0  0 
 24 25  1  0  0  0  0 
 24 26  2  0  0  0  0 
 26 27  1  0  0  0  0 
 27 28  1  0  0  0  0 
 26 29  1  0  0  0  0 
 22 29  1  0  0  0  0 
 23 30  1  0  0  0  0 
 15 30  1  0  0  0  0 
 30 31  1  0  0  0  0 
 30 32  1  0  0  0  0 
M  END
> <Rank>
9

> <Priority_score>
0.544

> <Reaction_type>
aromatic_hydroxylation_(sulfur_containing_5ring)

> <Parent_ID>
66

> <Parent_InChI>
InChI=1S/C14H14ClNS/c15-13-4-2-1-3-11(13)9-16-7-5-14-12(10-16)6-8-17-14/h1-4,6,8H,5,7,9-10H2

> <Parent_SMILES>
Clc1ccccc1CN1CCc2sccc2C1

$$$$
Molecule 66_metabolite 10
  CDK     0516241031

 32 34  0  0  0  0  0  0  0  0999 V2000
   -7.5030    0.7417    0.0000 C   0  0  0  0  0  0  0  0  0  0  0  0
   -8.8033    1.4895    0.0000 H   0  0  0  0  0  0  0  0  0  0  0  0
   -6.2107    1.5033    0.0000 C   0  0  0  0  0  0  0  0  0  0  0  0
   -6.2171    3.0033    0.0000 H   0  0  0  0  0  0  0  0  0  0  0  0
   -4.9081    0.7504    0.0000 C   0  0  0  0  0  0  0  0  0  0  0  0
   -4.9079   -0.7468    0.0000 C   0  0  0  0  0  0  0  0  0  0  0  0
   -6.2002   -1.5084    0.0000 C   0  0  0  0  0  0  0  0  0  0  0  0
   -6.1895   -3.0084    0.0000 H   0  0  0  0  0  0  0  0  0  0  0  0
   -7.5114   -0.7606    0.0000 C   0  0  0  0  0  0  0  0  0  0  0  0
   -8.8106   -1.5104    0.0000 H   0  0  0  0  0  0  0  0  0  0  0  0
   -3.6054   -1.4909    0.0000 Cl  0  0  0  0  0  0  0  0  0  0  0  0
   -3.6089    1.5002    0.0000 C   0  0  0  0  0  0  0  0  0  0  0  0
   -2.6446    2.6491    0.0000 H   0  0  0  0  0  0  0  0  0  0  0  0
   -4.5729    2.6494    0.0000 H   0  0  0  0  0  0  0  0  0  0  0  0
   -1.8943    0.5099    0.0000 N   0  0  0  0  0  0  0  0  0  0  0  0
   -1.8943   -0.9901    0.0000 C   0  0  0  0  0  0  0  0  0  0  0  0
   -3.3716   -0.7298    0.0000 H   0  0  0  0  0  0  0  0  0  0  0  0
   -2.4071   -2.3997    0.0000 H   0  0  0  0  0  0  0  0  0  0  0  0
   -0.5943   -1.7401    0.0000 C   0  0  0  0  0  0  0  0  0  0  0  0
   -1.5584   -2.8892    0.0000 H   0  0  0  0  0  0  0  0  0  0  0  0
    0.3697   -2.8892    0.0000 H   0  0  0  0  0  0  0  0  0  0  0  0
    0.7057   -0.9901    0.0000 C   0  0  0  0  0  0  0  0  0  0  0  0
    0.7057    0.5099    0.0000 C   0  0  0  0  0  0  0  0  0  0  0  0
    2.1357    0.9699    0.0000 C   0  0  0  0  0  0  0  0  0  0  0  0
    2.6009    2.3959    0.0000 H   0  0  0  0  0  0  0  0  0  0  0  0
    3.0157   -0.2401    0.0000 C   0  0  0  0  0  0  0  0  0  0  0  0
    4.5157   -0.2401    0.0000 H   0  0  0  0  0  0  0  0  0  0  0  0
    2.1357   -1.4501    0.0000 S   0  0  0  0  0  0  0  0  0  0  0  0
    2.6009   -2.8761    0.0000 O   0  0  0  0  0  0  0  0  0  0  0  0
   -0.5943    1.2599    0.0000 C   0  0  0  0  0  0  0  0  0  0  0  0
    0.3697    2.4091    0.0000 H   0  0  0  0  0  0  0  0  0  0  0  0
   -1.5584    2.4091    0.0000 H   0  0  0  0  0  0  0  0  0  0  0  0
  1  2  1  0  0  0  0 
  1  3  2  0  0  0  0 
  3  4  1  0  0  0  0 
  3  5  1  0  0  0  0 
  5  6  2  0  0  0  0 
  6  7  1  0  0  0  0 
  7  8  1  0  0  0  0 
  7  9  2  0  0  0  0 
  1  9  1  0  0  0  0 
  9 10  1  0  0  0  0 
  6 11  1  0  0  0  0 
  5 12  1  0  0  0  0 
 12 13  1  0  0  0  0 
 12 14  1  0  0  0  0 
 12 15  1  0  0  0  0 
 15 16  1  0  0  0  0 
 16 17  1  0  0  0  0 
 16 18  1  0  0  0  0 
 16 19  1  0  0  0  0 
 19 20  1  0  0  0  0 
 19 21  1  0  0  0  0 
 19 22  1  0  0  0  0 
 22 23  2  0  0  0  0 
 23 24  1  0  0  0  0 
 24 25  1  0  0  0  0 
 24 26  2  0  0  0  0 
 26 27  1  0  0  0  0 
 26 28  1  0  0  0  0 
 22 28  1  0  0  0  0 
 28 29  2  0  0  0  0 
 23 30  1  0  0  0  0 
 15 30  1  0  0  0  0 
 30 31  1  0  0  0  0 
 30 32  1  0  0  0  0 
M  END
> <Rank>
9

> <Priority_score>
0.544

> <Reaction_type>
sulfide_oxidation_(c-S-c)

> <Parent_ID>
66

> <Parent_InChI>
InChI=1S/C14H14ClNS/c15-13-4-2-1-3-11(13)9-16-7-5-14-12(10-16)6-8-17-14/h1-4,6,8H,5,7,9-10H2

> <Parent_SMILES>
Clc1ccccc1CN1CCc2sccc2C1

$$$$
Molecule 66_metabolite 11
  CDK     0516241031

 32 34  0  0  0  0  0  0  0  0999 V2000
   -7.5030    0.7417    0.0000 C   0  0  0  0  0  0  0  0  0  0  0  0
   -8.8033    1.4895    0.0000 H   0  0  0  0  0  0  0  0  0  0  0  0
   -6.2107    1.5033    0.0000 C   0  0  0  0  0  0  0  0  0  0  0  0
   -6.2171    3.0033    0.0000 H   0  0  0  0  0  0  0  0  0  0  0  0
   -4.9081    0.7504    0.0000 C   0  0  0  0  0  0  0  0  0  0  0  0
   -4.9079   -0.7468    0.0000 C   0  0  0  0  0  0  0  0  0  0  0  0
   -6.2002   -1.5084    0.0000 C   0  0  0  0  0  0  0  0  0  0  0  0
   -6.1895   -3.0084    0.0000 H   0  0  0  0  0  0  0  0  0  0  0  0
   -7.5114   -0.7606    0.0000 C   0  0  0  0  0  0  0  0  0  0  0  0
   -8.8106   -1.5104    0.0000 H   0  0  0  0  0  0  0  0  0  0  0  0
   -3.6054   -1.4909    0.0000 Cl  0  0  0  0  0  0  0  0  0  0  0  0
   -3.6089    1.5002    0.0000 C   0  0  0  0  0  0  0  0  0  0  0  0
   -2.6446    2.6491    0.0000 H   0  0  0  0  0  0  0  0  0  0  0  0
   -4.5729    2.6494    0.0000 H   0  0  0  0  0  0  0  0  0  0  0  0
   -1.8943    0.5099    0.0000 N   0  0  0  0  0  0  0  0  0  0  0  0
   -1.8943   -0.9901    0.0000 C   0  0  0  0  0  0  0  0  0  0  0  0
   -3.3716   -0.7298    0.0000 H   0  0  0  0  0  0  0  0  0  0  0  0
   -2.4071   -2.3997    0.0000 H   0  0  0  0  0  0  0  0  0  0  0  0
   -0.5943   -1.7401    0.0000 C   0  0  0  0  0  0  0  0  0  0  0  0
   -1.5584   -2.8892    0.0000 H   0  0  0  0  0  0  0  0  0  0  0  0
    0.3697   -2.8892    0.0000 H   0  0  0  0  0  0  0  0  0  0  0  0
    0.7057   -0.9901    0.0000 C   0  0  0  0  0  0  0  0  0  0  0  0
    0.7057    0.5099    0.0000 C   0  0  0  0  0  0  0  0  0  0  0  0
    2.1357    0.9699    0.0000 C   0  0  0  0  0  0  0  0  0  0  0  0
    2.6009    2.3959    0.0000 H   0  0  0  0  0  0  0  0  0  0  0  0
    3.0157   -0.2401    0.0000 C   0  0  0  0  0  0  0  0  0  0  0  0
    4.5157   -0.2401    0.0000 H   0  0  0  0  0  0  0  0  0  0  0  0
    2.1357   -1.4501    0.0000 S   0  0  0  0  0  0  0  0  0  0  0  0
   -0.5943    1.2599    0.0000 C   0  0  0  0  0  0  0  0  0  0  0  0
    0.3697    2.4091    0.0000 H   0  0  0  0  0  0  0  0  0  0  0  0
   -1.5584    2.4091    0.0000 O   0  0  0  0  0  0  0  0  0  0  0  0
   -1.0452    3.8186    0.0000 H   0  0  0  0  0  0  0  0  0  0  0  0
  1  2  1  0  0  0  0 
  1  3  2  0  0  0  0 
  3  4  1  0  0  0  0 
  3  5  1  0  0  0  0 
  5  6  2  0  0  0  0 
  6  7  1  0  0  0  0 
  7  8  1  0  0  0  0 
  7  9  2  0  0  0  0 
  1  9  1  0  0  0  0 
  9 10  1  0  0  0  0 
  6 11  1  0  0  0  0 
  5 12  1  0  0  0  0 
 12 13  1  0  0  0  0 
 12 14  1  0  0  0  0 
 12 15  1  0  0  0  0 
 15 16  1  0  0  0  0 
 16 17  1  0  0  0  0 
 16 18  1  0  0  0  0 
 16 19  1  0  0  0  0 
 19 20  1  0  0  0  0 
 19 21  1  0  0  0  0 
 19 22  1  0  0  0  0 
 22 23  2  0  0  0  0 
 23 24  1  0  0  0  0 
 24 25  1  0  0  0  0 
 24 26  2  0  0  0  0 
 26 27  1  0  0  0  0 
 26 28  1  0  0  0  0 
 22 28  1  0  0  0  0 
 23 29  1  0  0  0  0 
 15 29  1  0  0  0  0 
 29 30  1  0  0  0  0 
 29 31  1  0  0  0  0 
 31 32  1  0  0  0  0 
M  END
> <Rank>
11

> <Priority_score>
0.524

> <Reaction_type>
benzylic_hydroxylation_(c-CH2-N)

> <Parent_ID>
66

> <Parent_InChI>
InChI=1S/C14H14ClNS/c15-13-4-2-1-3-11(13)9-16-7-5-14-12(10-16)6-8-17-14/h1-4,6,8H,5,7,9-10H2

> <Parent_SMILES>
Clc1ccccc1CN1CCc2sccc2C1

$$$$
Molecule 66_metabolite 12
  CDK     0516241031

 32 33  0  0  0  0  0  0  0  0999 V2000
    1.3429   -0.1815    0.0000 C   0  0  0  0  0  0  0  0  0  0  0  0
    2.4569   -1.1859    0.0000 H   0  0  0  0  0  0  0  0  0  0  0  0
   -0.0806   -0.6544    0.0000 C   0  0  0  0  0  0  0  0  0  0  0  0
   -0.3897   -2.1222    0.0000 H   0  0  0  0  0  0  0  0  0  0  0  0
   -1.1959    0.3554    0.0000 C   0  0  0  0  0  0  0  0  0  0  0  0
   -0.8814    1.8193    0.0000 C   0  0  0  0  0  0  0  0  0  0  0  0
    0.5421    2.2922    0.0000 C   0  0  0  0  0  0  0  0  0  0  0  0
    0.8469    3.7609    0.0000 H   0  0  0  0  0  0  0  0  0  0  0  0
    1.6669    1.2855    0.0000 C   0  0  0  0  0  0  0  0  0  0  0  0
    3.0946    1.7455    0.0000 H   0  0  0  0  0  0  0  0  0  0  0  0
   -1.9983    2.8205    0.0000 Cl  0  0  0  0  0  0  0  0  0  0  0  0
   -2.6236   -0.1045    0.0000 C   0  0  0  0  0  0  0  0  0  0  0  0
   -2.8287    1.3814    0.0000 H   0  0  0  0  0  0  0  0  0  0  0  0
   -4.1226   -0.0485    0.0000 H   0  0  0  0  0  0  0  0  0  0  0  0
   -2.9391   -1.5710    0.0000 N   0  0  0  0  0  0  0  0  0  0  0  0
   -1.8269   -2.5774    0.0000 H   0  0  0  0  0  0  0  0  0  0  0  0
   -4.8238   -2.1781    0.0000 C   0  0  0  0  0  0  0  0  0  0  0  0
   -5.0288   -0.6922    0.0000 H   0  0  0  0  0  0  0  0  0  0  0  0
   -6.3227   -2.1221    0.0000 H   0  0  0  0  0  0  0  0  0  0  0  0
   -5.1393   -3.6446    0.0000 C   0  0  0  0  0  0  0  0  0  0  0  0
   -4.9342   -5.1305    0.0000 H   0  0  0  0  0  0  0  0  0  0  0  0
   -3.6403   -3.7007    0.0000 H   0  0  0  0  0  0  0  0  0  0  0  0
   -6.5670   -4.1045    0.0000 C   0  0  0  0  0  0  0  0  0  0  0  0
   -7.0270   -5.5245    0.0000 C   0  0  0  0  0  0  0  0  0  0  0  0
   -8.5270   -5.5245    0.0000 C   0  0  0  0  0  0  0  0  0  0  0  0
   -9.4092   -6.7377    0.0000 H   0  0  0  0  0  0  0  0  0  0  0  0
   -8.9870   -4.1045    0.0000 C   0  0  0  0  0  0  0  0  0  0  0  0
  -10.4147   -3.6446    0.0000 H   0  0  0  0  0  0  0  0  0  0  0  0
   -7.7770   -3.2145    0.0000 S   0  0  0  0  0  0  0  0  0  0  0  0
   -6.1448   -6.7377    0.0000 C   0  0  0  0  0  0  0  0  0  0  0  0
   -6.7543   -8.1083    0.0000 H   0  0  0  0  0  0  0  0  0  0  0  0
   -4.6531   -6.5802    0.0000 O   0  0  0  0  0  0  0  0  0  0  0  0
  1  2  1  0  0  0  0 
  1  3  2  0  0  0  0 
  3  4  1  0  0  0  0 
  3  5  1  0  0  0  0 
  5  6  2  0  0  0  0 
  6  7  1  0  0  0  0 
  7  8  1  0  0  0  0 
  7  9  2  0  0  0  0 
  1  9  1  0  0  0  0 
  9 10  1  0  0  0  0 
  6 11  1  0  0  0  0 
  5 12  1  0  0  0  0 
 12 13  1  0  0  0  0 
 12 14  1  0  0  0  0 
 12 15  1  0  0  0  0 
 15 16  1  0  0  0  0 
 15 17  1  0  0  0  0 
 17 18  1  0  0  0  0 
 17 19  1  0  0  0  0 
 17 20  1  0  0  0  0 
 20 21  1  0  0  0  0 
 20 22  1  0  0  0  0 
 20 23  1  0  0  0  0 
 23 24  2  0  0  0  0 
 24 25  1  0  0  0  0 
 25 26  1  0  0  0  0 
 25 27  2  0  0  0  0 
 27 28  1  0  0  0  0 
 27 29  1  0  0  0  0 
 23 29  1  0  0  0  0 
 24 30  1  0  0  0  0 
 30 31  1  0  0  0  0 
 30 32  2  0  0  0  0 
M  END
> <Rank>
11

> <Priority_score>
0.524

> <Reaction_type>
N-dealkylation

> <Parent_ID>
66

> <Parent_InChI>
InChI=1S/C14H14ClNS/c15-13-4-2-1-3-11(13)9-16-7-5-14-12(10-16)6-8-17-14/h1-4,6,8H,5,7,9-10H2

> <Parent_SMILES>
Clc1ccccc1CN1CCc2sccc2C1

$$$$
Molecule 66_metabolite 13
  CDK     0516241031

 32 34  0  0  0  0  0  0  0  0999 V2000
   -7.3389    1.1928    0.0000 C   0  0  0  0  0  0  0  0  0  0  0  0
   -8.6392    1.9406    0.0000 H   0  0  0  0  0  0  0  0  0  0  0  0
   -6.0466    1.9544    0.0000 C   0  0  0  0  0  0  0  0  0  0  0  0
   -6.0530    3.4544    0.0000 H   0  0  0  0  0  0  0  0  0  0  0  0
   -4.7440    1.2015    0.0000 C   0  0  0  0  0  0  0  0  0  0  0  0
   -4.7438   -0.2957    0.0000 C   0  0  0  0  0  0  0  0  0  0  0  0
   -6.0361   -1.0573    0.0000 C   0  0  0  0  0  0  0  0  0  0  0  0
   -6.0254   -2.5573    0.0000 H   0  0  0  0  0  0  0  0  0  0  0  0
   -7.3473   -0.3095    0.0000 C   0  0  0  0  0  0  0  0  0  0  0  0
   -8.6465   -1.0593    0.0000 H   0  0  0  0  0  0  0  0  0  0  0  0
   -3.4414   -1.0398    0.0000 Cl  0  0  0  0  0  0  0  0  0  0  0  0
   -3.4448    1.9513    0.0000 C   0  0  0  0  0  0  0  0  0  0  0  0
   -2.4805    3.1002    0.0000 H   0  0  0  0  0  0  0  0  0  0  0  0
   -4.4088    3.1005    0.0000 H   0  0  0  0  0  0  0  0  0  0  0  0
   -1.7303    0.9610    0.0000 N   0  0  0  0  0  0  0  0  0  0  0  0
   -0.4303    1.7110    0.0000 C   0  0  0  0  0  0  0  0  0  0  0  0
    0.5338    2.8602    0.0000 H   0  0  0  0  0  0  0  0  0  0  0  0
   -1.3943    2.8602    0.0000 H   0  0  0  0  0  0  0  0  0  0  0  0
    0.8697    0.9610    0.0000 C   0  0  0  0  0  0  0  0  0  0  0  0
    0.8697   -0.5390    0.0000 C   0  0  0  0  0  0  0  0  0  0  0  0
   -0.4303   -1.2890    0.0000 C   0  0  0  0  0  0  0  0  0  0  0  0
   -1.3943   -2.4381    0.0000 H   0  0  0  0  0  0  0  0  0  0  0  0
    0.5338   -2.4381    0.0000 H   0  0  0  0  0  0  0  0  0  0  0  0
   -1.7303   -0.5390    0.0000 C   0  0  0  0  0  0  0  0  0  0  0  0
   -3.2075   -0.2787    0.0000 H   0  0  0  0  0  0  0  0  0  0  0  0
   -2.4071   -2.3997    0.0000 O   0  0  0  0  0  0  0  0  0  0  0  0
   -1.4426   -3.5486    0.0000 H   0  0  0  0  0  0  0  0  0  0  0  0
    2.2997   -0.9990    0.0000 S   0  0  0  0  0  0  0  0  0  0  0  0
    3.1797    0.2110    0.0000 C   0  0  0  0  0  0  0  0  0  0  0  0
    4.6797    0.2110    0.0000 H   0  0  0  0  0  0  0  0  0  0  0  0
    2.2997    1.4210    0.0000 C   0  0  0  0  0  0  0  0  0  0  0  0
    2.7650    2.8470    0.0000 H   0  0  0  0  0  0  0  0  0  0  0  0
  1  2  1  0  0  0  0 
  1  3  2  0  0  0  0 
  3  4  1  0  0  0  0 
  3  5  1  0  0  0  0 
  5  6  2  0  0  0  0 
  6  7  1  0  0  0  0 
  7  8  1  0  0  0  0 
  7  9  2  0  0  0  0 
  1  9  1  0  0  0  0 
  9 10  1  0  0  0  0 
  6 11  1  0  0  0  0 
  5 12  1  0  0  0  0 
 12 13  1  0  0  0  0 
 12 14  1  0  0  0  0 
 12 15  1  0  0  0  0 
 15 16  1  0  0  0  0 
 16 17  1  0  0  0  0 
 16 18  1  0  0  0  0 
 16 19  1  0  0  0  0 
 19 20  2  0  0  0  0 
 20 21  1  0  0  0  0 
 21 22  1  0  0  0  0 
 21 23  1  0  0  0  0 
 21 24  1  0  0  0  0 
 15 24  1  0  0  0  0 
 24 25  1  0  0  0  0 
 24 26  1  0  0  0  0 
 26 27  1  0  0  0  0 
 20 28  1  0  0  0  0 
 28 29  1  0  0  0  0 
 29 30  1  0  0  0  0 
 29 31  2  0  0  0  0 
 19 31  1  0  0  0  0 
 31 32  1  0  0  0  0 
M  END
> <Rank>
13

> <Priority_score>
0.48

> <Reaction_type>
aliphatic_hydroxylation_(sec_carbon_next_to_SP2,in_a_ring)

> <Parent_ID>
66

> <Parent_InChI>
InChI=1S/C14H14ClNS/c15-13-4-2-1-3-11(13)9-16-7-5-14-12(10-16)6-8-17-14/h1-4,6,8H,5,7,9-10H2

> <Parent_SMILES>
Clc1ccccc1CN1CCc2sccc2C1

$$$$
Molecule 66_metabolite 14
  CDK     0516241031

 32 33  0  0  0  0  0  0  0  0999 V2000
   -7.8726    4.1874    0.0000 C   0  0  0  0  0  0  0  0  0  0  0  0
   -8.7570    5.3990    0.0000 H   0  0  0  0  0  0  0  0  0  0  0  0
   -6.3824    4.3585    0.0000 C   0  0  0  0  0  0  0  0  0  0  0  0
   -5.7789    5.7317    0.0000 H   0  0  0  0  0  0  0  0  0  0  0  0
   -5.4979    3.1414    0.0000 C   0  0  0  0  0  0  0  0  0  0  0  0
   -6.1058    1.7731    0.0000 C   0  0  0  0  0  0  0  0  0  0  0  0
   -7.5960    1.6021    0.0000 C   0  0  0  0  0  0  0  0  0  0  0  0
   -8.1955    0.2271    0.0000 H   0  0  0  0  0  0  0  0  0  0  0  0
   -8.4905    2.8181    0.0000 C   0  0  0  0  0  0  0  0  0  0  0  0
   -9.9822    2.6606    0.0000 H   0  0  0  0  0  0  0  0  0  0  0  0
   -5.2179    0.5642    0.0000 Cl  0  0  0  0  0  0  0  0  0  0  0  0
   -4.0061    3.2988    0.0000 C   0  0  0  0  0  0  0  0  0  0  0  0
   -2.6582    3.9570    0.0000 H   0  0  0  0  0  0  0  0  0  0  0  0
   -4.4202    4.7405    0.0000 H   0  0  0  0  0  0  0  0  0  0  0  0
   -3.1239    2.0857    0.0000 N   0  0  0  0  0  0  0  0  0  0  0  0
   -3.7334    0.7151    0.0000 H   0  0  0  0  0  0  0  0  0  0  0  0
   -1.1549    2.2935    0.0000 C   0  0  0  0  0  0  0  0  0  0  0  0
    0.1930    2.9517    0.0000 H   0  0  0  0  0  0  0  0  0  0  0  0
   -1.5690    3.7352    0.0000 H   0  0  0  0  0  0  0  0  0  0  0  0
   -0.2727    1.0804    0.0000 C   0  0  0  0  0  0  0  0  0  0  0  0
   -0.7327   -0.3396    0.0000 C   0  0  0  0  0  0  0  0  0  0  0  0
   -2.1604   -0.7996    0.0000 C   0  0  0  0  0  0  0  0  0  0  0  0
   -2.3654    0.6863    0.0000 H   0  0  0  0  0  0  0  0  0  0  0  0
   -3.6593   -0.7435    0.0000 H   0  0  0  0  0  0  0  0  0  0  0  0
   -2.4759   -2.2660    0.0000 C   0  0  0  0  0  0  0  0  0  0  0  0
   -1.3637   -3.2725    0.0000 H   0  0  0  0  0  0  0  0  0  0  0  0
   -3.9036   -2.7260    0.0000 O   0  0  0  0  0  0  0  0  0  0  0  0
    0.4773   -1.2296    0.0000 S   0  0  0  0  0  0  0  0  0  0  0  0
    1.6873   -0.3396    0.0000 C   0  0  0  0  0  0  0  0  0  0  0  0
    3.1151   -0.7996    0.0000 H   0  0  0  0  0  0  0  0  0  0  0  0
    1.2273    1.0804    0.0000 C   0  0  0  0  0  0  0  0  0  0  0  0
    2.1096    2.2935    0.0000 H   0  0  0  0  0  0  0  0  0  0  0  0
  1  2  1  0  0  0  0 
  1  3  2  0  0  0  0 
  3  4  1  0  0  0  0 
  3  5  1  0  0  0  0 
  5  6  2  0  0  0  0 
  6  7  1  0  0  0  0 
  7  8  1  0  0  0  0 
  7  9  2  0  0  0  0 
  1  9  1  0  0  0  0 
  9 10  1  0  0  0  0 
  6 11  1  0  0  0  0 
  5 12  1  0  0  0  0 
 12 13  1  0  0  0  0 
 12 14  1  0  0  0  0 
 12 15  1  0  0  0  0 
 15 16  1  0  0  0  0 
 15 17  1  0  0  0  0 
 17 18  1  0  0  0  0 
 17 19  1  0  0  0  0 
 17 20  1  0  0  0  0 
 20 21  2  0  0  0  0 
 21 22  1  0  0  0  0 
 22 23  1  0  0  0  0 
 22 24  1  0  0  0  0 
 22 25  1  0  0  0  0 
 25 26  1  0  0  0  0 
 25 27  2  0  0  0  0 
 21 28  1  0  0  0  0 
 28 29  1  0  0  0  0 
 29 30  1  0  0  0  0 
 29 31  2  0  0  0  0 
 20 31  1  0  0  0  0 
 31 32  1  0  0  0  0 
M  END
> <Rank>
13

> <Priority_score>
0.48

> <Reaction_type>
N-dealkylation

> <Parent_ID>
66

> <Parent_InChI>
InChI=1S/C14H14ClNS/c15-13-4-2-1-3-11(13)9-16-7-5-14-12(10-16)6-8-17-14/h1-4,6,8H,5,7,9-10H2

> <Parent_SMILES>
Clc1ccccc1CN1CCc2sccc2C1

$$$$
Molecule 66_metabolite 15
  CDK     0516241031

 30 32  0  0  0  0  0  0  0  0999 V2000
   -4.8979    5.2522    0.0000 C   0  0  0  0  0  0  0  0  0  0  0  0
   -6.1954    6.0048    0.0000 H   0  0  0  0  0  0  0  0  0  0  0  0
   -4.9118    3.7523    0.0000 C   0  0  0  0  0  0  0  0  0  0  0  0
   -6.2142    3.0082    0.0000 H   0  0  0  0  0  0  0  0  0  0  0  0
   -3.6087    3.0002    0.0000 C   0  0  0  0  0  0  0  0  0  0  0  0
   -2.3117    3.7482    0.0000 C   0  0  0  0  0  0  0  0  0  0  0  0
   -2.2978    5.2482    0.0000 C   0  0  0  0  0  0  0  0  0  0  0  0
   -0.9932    5.9885    0.0000 H   0  0  0  0  0  0  0  0  0  0  0  0
   -3.6008    6.0103    0.0000 C   0  0  0  0  0  0  0  0  0  0  0  0
   -3.6005    7.5103    0.0000 H   0  0  0  0  0  0  0  0  0  0  0  0
   -1.0163    2.9919    0.0000 Cl  0  0  0  0  0  0  0  0  0  0  0  0
   -3.6089    1.5002    0.0000 C   0  0  0  0  0  0  0  0  0  0  0  0
   -4.1222    0.0908    0.0000 H   0  0  0  0  0  0  0  0  0  0  0  0
   -5.0861    1.7609    0.0000 H   0  0  0  0  0  0  0  0  0  0  0  0
   -2.3100    0.7500    0.0000 N   0  0  0  0  0  0  0  0  0  0  0  0
   -1.0100    1.5000    0.0000 C   0  0  0  0  0  0  0  0  0  0  0  0
   -0.0459    2.6492    0.0000 H   0  0  0  0  0  0  0  0  0  0  0  0
   -1.9741    2.6492    0.0000 H   0  0  0  0  0  0  0  0  0  0  0  0
    0.2900    0.7500    0.0000 C   0  0  0  0  0  0  0  0  0  0  0  0
    0.2900   -0.7500    0.0000 C   0  0  0  0  0  0  0  0  0  0  0  0
   -1.0100   -1.5000    0.0000 C   0  0  0  0  0  0  0  0  0  0  0  0
   -1.9741   -2.6492    0.0000 H   0  0  0  0  0  0  0  0  0  0  0  0
   -0.0459   -2.6492    0.0000 H   0  0  0  0  0  0  0  0  0  0  0  0
   -2.3100   -0.7500    0.0000 C   0  0  0  0  0  0  0  0  0  0  0  0
   -3.6089   -1.5002    0.0000 O   0  0  0  0  0  0  0  0  0  0  0  0
    1.7200   -1.2100    0.0000 S   0  0  0  0  0  0  0  0  0  0  0  0
    2.6000    0.0000    0.0000 C   0  0  0  0  0  0  0  0  0  0  0  0
    4.1000   -0.0000    0.0000 H   0  0  0  0  0  0  0  0  0  0  0  0
    1.7200    1.2100    0.0000 C   0  0  0  0  0  0  0  0  0  0  0  0
    2.1853    2.6360    0.0000 H   0  0  0  0  0  0  0  0  0  0  0  0
  1  2  1  0  0  0  0 
  1  3  2  0  0  0  0 
  3  4  1  0  0  0  0 
  3  5  1  0  0  0  0 
  5  6  2  0  0  0  0 
  6  7  1  0  0  0  0 
  7  8  1  0  0  0  0 
  7  9  2  0  0  0  0 
  1  9  1  0  0  0  0 
  9 10  1  0  0  0  0 
  6 11  1  0  0  0  0 
  5 12  1  0  0  0  0 
 12 13  1  0  0  0  0 
 12 14  1  0  0  0  0 
 12 15  1  0  0  0  0 
 15 16  1  0  0  0  0 
 16 17  1  0  0  0  0 
 16 18  1  0  0  0  0 
 16 19  1  0  0  0  0 
 19 20  2  0  0  0  0 
 20 21  1  0  0  0  0 
 21 22  1  0  0  0  0 
 21 23  1  0  0  0  0 
 21 24  1  0  0  0  0 
 15 24  1  0  0  0  0 
 24 25  2  0  0  0  0 
 20 26  1  0  0  0  0 
 26 27  1  0  0  0  0 
 27 28  1  0  0  0  0 
 27 29  2  0  0  0  0 
 19 29  1  0  0  0  0 
 29 30  1  0  0  0  0 
M  END
> <Rank>
13

> <Priority_score>
0.48

> <Reaction_type>
oxidation_(amine_in_a_ring)

> <Parent_ID>
66

> <Parent_InChI>
InChI=1S/C14H14ClNS/c15-13-4-2-1-3-11(13)9-16-7-5-14-12(10-16)6-8-17-14/h1-4,6,8H,5,7,9-10H2

> <Parent_SMILES>
Clc1ccccc1CN1CCc2sccc2C1

$$$$
Molecule 66_metabolite 16
  CDK     0516241031

 32 34  0  0  0  0  0  0  0  0999 V2000
   -7.5030    0.7417    0.0000 C   0  0  0  0  0  0  0  0  0  0  0  0
   -8.8033    1.4895    0.0000 H   0  0  0  0  0  0  0  0  0  0  0  0
   -6.2107    1.5033    0.0000 C   0  0  0  0  0  0  0  0  0  0  0  0
   -6.2171    3.0033    0.0000 H   0  0  0  0  0  0  0  0  0  0  0  0
   -4.9081    0.7504    0.0000 C   0  0  0  0  0  0  0  0  0  0  0  0
   -4.9079   -0.7468    0.0000 C   0  0  0  0  0  0  0  0  0  0  0  0
   -6.2002   -1.5084    0.0000 C   0  0  0  0  0  0  0  0  0  0  0  0
   -6.1895   -3.0084    0.0000 H   0  0  0  0  0  0  0  0  0  0  0  0
   -7.5114   -0.7606    0.0000 C   0  0  0  0  0  0  0  0  0  0  0  0
   -8.8106   -1.5104    0.0000 H   0  0  0  0  0  0  0  0  0  0  0  0
   -3.6054   -1.4909    0.0000 Cl  0  0  0  0  0  0  0  0  0  0  0  0
   -3.6089    1.5002    0.0000 C   0  0  0  0  0  0  0  0  0  0  0  0
   -2.6446    2.6491    0.0000 H   0  0  0  0  0  0  0  0  0  0  0  0
   -4.5729    2.6494    0.0000 H   0  0  0  0  0  0  0  0  0  0  0  0
   -1.8943    0.5099    0.0000 N   0  0  0  0  0  0  0  0  0  0  0  0
   -0.5943    1.2599    0.0000 C   0  0  0  0  0  0  0  0  0  0  0  0
    0.3697    2.4091    0.0000 H   0  0  0  0  0  0  0  0  0  0  0  0
   -1.5584    2.4091    0.0000 H   0  0  0  0  0  0  0  0  0  0  0  0
    0.7057    0.5099    0.0000 C   0  0  0  0  0  0  0  0  0  0  0  0
    0.7057   -0.9901    0.0000 C   0  0  0  0  0  0  0  0  0  0  0  0
   -0.5943   -1.7401    0.0000 C   0  0  0  0  0  0  0  0  0  0  0  0
   -1.5584   -2.8892    0.0000 H   0  0  0  0  0  0  0  0  0  0  0  0
   -1.8943   -0.9901    0.0000 C   0  0  0  0  0  0  0  0  0  0  0  0
   -3.3716   -0.7298    0.0000 H   0  0  0  0  0  0  0  0  0  0  0  0
   -2.4071   -2.3997    0.0000 H   0  0  0  0  0  0  0  0  0  0  0  0
    0.3697   -2.8892    0.0000 O   0  0  0  0  0  0  0  0  0  0  0  0
    1.8470   -2.6289    0.0000 H   0  0  0  0  0  0  0  0  0  0  0  0
    2.1357   -1.4501    0.0000 S   0  0  0  0  0  0  0  0  0  0  0  0
    3.0157   -0.2401    0.0000 C   0  0  0  0  0  0  0  0  0  0  0  0
    4.5157   -0.2401    0.0000 H   0  0  0  0  0  0  0  0  0  0  0  0
    2.1357    0.9699    0.0000 C   0  0  0  0  0  0  0  0  0  0  0  0
    2.6009    2.3959    0.0000 H   0  0  0  0  0  0  0  0  0  0  0  0
  1  2  1  0  0  0  0 
  1  3  2  0  0  0  0 
  3  4  1  0  0  0  0 
  3  5  1  0  0  0  0 
  5  6  2  0  0  0  0 
  6  7  1  0  0  0  0 
  7  8  1  0  0  0  0 
  7  9  2  0  0  0  0 
  1  9  1  0  0  0  0 
  9 10  1  0  0  0  0 
  6 11  1  0  0  0  0 
  5 12  1  0  0  0  0 
 12 13  1  0  0  0  0 
 12 14  1  0  0  0  0 
 12 15  1  0  0  0  0 
 15 16  1  0  0  0  0 
 16 17  1  0  0  0  0 
 16 18  1  0  0  0  0 
 16 19  1  0  0  0  0 
 19 20  2  0  0  0  0 
 20 21  1  0  0  0  0 
 21 22  1  0  0  0  0 
 21 23  1  0  0  0  0 
 15 23  1  0  0  0  0 
 23 24  1  0  0  0  0 
 23 25  1  0  0  0  0 
 21 26  1  0  0  0  0 
 26 27  1  0  0  0  0 
 20 28  1  0  0  0  0 
 28 29  1  0  0  0  0 
 29 30  1  0  0  0  0 
 29 31  2  0  0  0  0 
 19 31  1  0  0  0  0 
 31 32  1  0  0  0  0 
M  END
> <Rank>
16

> <Priority_score>
0.36

> <Reaction_type>
benzylic_hydroxylation_(c-CH2-CR)

> <Parent_ID>
66

> <Parent_InChI>
InChI=1S/C14H14ClNS/c15-13-4-2-1-3-11(13)9-16-7-5-14-12(10-16)6-8-17-14/h1-4,6,8H,5,7,9-10H2

> <Parent_SMILES>
Clc1ccccc1CN1CCc2sccc2C1

$$$$
Molecule 66_metabolite 17
  CDK     0516241031

 32 34  0  0  0  0  0  0  0  0999 V2000
   -7.5030    0.7417    0.0000 C   0  0  0  0  0  0  0  0  0  0  0  0
   -8.8033    1.4895    0.0000 H   0  0  0  0  0  0  0  0  0  0  0  0
   -6.2107    1.5033    0.0000 C   0  0  0  0  0  0  0  0  0  0  0  0
   -6.2171    3.0033    0.0000 H   0  0  0  0  0  0  0  0  0  0  0  0
   -4.9081    0.7504    0.0000 C   0  0  0  0  0  0  0  0  0  0  0  0
   -4.9079   -0.7468    0.0000 C   0  0  0  0  0  0  0  0  0  0  0  0
   -6.2002   -1.5084    0.0000 C   0  0  0  0  0  0  0  0  0  0  0  0
   -6.1895   -3.0084    0.0000 H   0  0  0  0  0  0  0  0  0  0  0  0
   -7.5114   -0.7606    0.0000 C   0  0  0  0  0  0  0  0  0  0  0  0
   -8.8106   -1.5104    0.0000 H   0  0  0  0  0  0  0  0  0  0  0  0
   -3.6054   -1.4909    0.0000 Cl  0  0  0  0  0  0  0  0  0  0  0  0
   -3.6089    1.5002    0.0000 C   0  0  0  0  0  0  0  0  0  0  0  0
   -2.6446    2.6491    0.0000 H   0  0  0  0  0  0  0  0  0  0  0  0
   -4.5729    2.6494    0.0000 H   0  0  0  0  0  0  0  0  0  0  0  0
   -1.8943    0.5099    0.0000 N   0  0  0  0  0  0  0  0  0  0  0  0
   -1.8943   -0.9901    0.0000 C   0  0  0  0  0  0  0  0  0  0  0  0
   -3.3716   -0.7298    0.0000 H   0  0  0  0  0  0  0  0  0  0  0  0
   -2.4071   -2.3997    0.0000 H   0  0  0  0  0  0  0  0  0  0  0  0
   -0.5943   -1.7401    0.0000 C   0  0  0  0  0  0  0  0  0  0  0  0
   -1.5584   -2.8892    0.0000 H   0  0  0  0  0  0  0  0  0  0  0  0
    0.3697   -2.8892    0.0000 H   0  0  0  0  0  0  0  0  0  0  0  0
    0.7057   -0.9901    0.0000 C   0  0  0  0  0  0  0  0  0  0  0  0
    0.7057    0.5099    0.0000 C   0  0  0  0  0  0  0  0  0  0  0  0
   -0.5943    1.2599    0.0000 C   0  0  0  0  0  0  0  0  0  0  0  0
    0.3697    2.4091    0.0000 H   0  0  0  0  0  0  0  0  0  0  0  0
   -1.5584    2.4091    0.0000 H   0  0  0  0  0  0  0  0  0  0  0  0
    2.1357    0.9699    0.0000 C   0  0  0  0  0  0  0  0  0  0  0  0
    3.0157   -0.2401    0.0000 C   0  0  0  0  0  0  0  0  0  0  0  0
    4.5157   -0.2401    0.0000 H   0  0  0  0  0  0  0  0  0  0  0  0
    2.1357   -1.4501    0.0000 S   0  0  0  0  0  0  0  0  0  0  0  0
    2.6009    2.3959    0.0000 O   0  0  0  0  0  0  0  0  0  0  0  0
    4.0685    2.7060    0.0000 H   0  0  0  0  0  0  0  0  0  0  0  0
  1  2  1  0  0  0  0 
  1  3  2  0  0  0  0 
  3  4  1  0  0  0  0 
  3  5  1  0  0  0  0 
  5  6  2  0  0  0  0 
  6  7  1  0  0  0  0 
  7  8  1  0  0  0  0 
  7  9  2  0  0  0  0 
  1  9  1  0  0  0  0 
  9 10  1  0  0  0  0 
  6 11  1  0  0  0  0 
  5 12  1  0  0  0  0 
 12 13  1  0  0  0  0 
 12 14  1  0  0  0  0 
 12 15  1  0  0  0  0 
 15 16  1  0  0  0  0 
 16 17  1  0  0  0  0 
 16 18  1  0  0  0  0 
 16 19  1  0  0  0  0 
 19 20  1  0  0  0  0 
 19 21  1  0  0  0  0 
 19 22  1  0  0  0  0 
 22 23  2  0  0  0  0 
 23 24  1  0  0  0  0 
 15 24  1  0  0  0  0 
 24 25  1  0  0  0  0 
 24 26  1  0  0  0  0 
 23 27  1  0  0  0  0 
 27 28  2  0  0  0  0 
 28 29  1  0  0  0  0 
 28 30  1  0  0  0  0 
 22 30  1  0  0  0  0 
 27 31  1  0  0  0  0 
 31 32  1  0  0  0  0 
M  END
> <Rank>
16

> <Priority_score>
0.36

> <Reaction_type>
aromatic hydroxylation

> <Parent_ID>
66

> <Parent_InChI>
InChI=1S/C14H14ClNS/c15-13-4-2-1-3-11(13)9-16-7-5-14-12(10-16)6-8-17-14/h1-4,6,8H,5,7,9-10H2

> <Parent_SMILES>
Clc1ccccc1CN1CCc2sccc2C1

$$$$
Molecule 66_metabolite 18
  CDK     0516241031

 66 68  0  0  0  0  0  0  0  0999 V2000
   -5.9002   -1.1256    0.0000 C   0  0  0  0  0  0  0  0  0  0  0  0
   -5.8957   -2.6256    0.0000 H   0  0  0  0  0  0  0  0  0  0  0  0
   -4.6023   -0.3736    0.0000 C   0  0  0  0  0  0  0  0  0  0  0  0
   -3.3033   -1.1236    0.0000 H   0  0  0  0  0  0  0  0  0  0  0  0
   -4.6000    1.1185    0.0000 C   0  0  0  0  0  0  0  0  0  0  0  0
   -5.9007    1.8674    0.0000 C   0  0  0  0  0  0  0  0  0  0  0  0
   -7.1986    1.1154    0.0000 C   0  0  0  0  0  0  0  0  0  0  0  0
   -8.4989    1.8633    0.0000 H   0  0  0  0  0  0  0  0  0  0  0  0
   -7.1958   -0.3854    0.0000 C   0  0  0  0  0  0  0  0  0  0  0  0
   -8.4925   -1.1395    0.0000 H   0  0  0  0  0  0  0  0  0  0  0  0
   -5.9027    3.3674    0.0000 S   0  0  0  0  0  0  0  0  0  0  0  0
   -7.2028    4.1156    0.0000 C   0  0  0  0  0  0  0  0  0  0  0  0
   -8.1685    5.2634    0.0000 H   0  0  0  0  0  0  0  0  0  0  0  0
   -6.2401    5.2660    0.0000 H   0  0  0  0  0  0  0  0  0  0  0  0
   -8.5008    3.3639    0.0000 C   0  0  0  0  0  0  0  0  0  0  0  0
   -7.5351    2.2161    0.0000 H   0  0  0  0  0  0  0  0  0  0  0  0
  -10.0795    1.4773    0.0000 C   0  0  0  0  0  0  0  0  0  0  0  0
   -9.5646    0.0684    0.0000 O   0  0  0  0  0  0  0  0  0  0  0  0
  -11.5571    1.7357    0.0000 N   0  0  0  0  0  0  0  0  0  0  0  0
  -12.0720    3.1446    0.0000 H   0  0  0  0  0  0  0  0  0  0  0  0
  -12.5197    0.5854    0.0000 C   0  0  0  0  0  0  0  0  0  0  0  0
  -11.2196   -0.1629    0.0000 H   0  0  0  0  0  0  0  0  0  0  0  0
  -13.0308   -0.8249    0.0000 H   0  0  0  0  0  0  0  0  0  0  0  0
  -13.9973    0.8438    0.0000 C   0  0  0  0  0  0  0  0  0  0  0  0
  -14.5122    2.2527    0.0000 O   0  0  0  0  0  0  0  0  0  0  0  0
  -14.9599   -0.3065    0.0000 O   0  0  0  0  0  0  0  0  0  0  0  0
  -16.4374   -0.0481    0.0000 H   0  0  0  0  0  0  0  0  0  0  0  0
   -9.8008    4.1121    0.0000 N   0  0  0  0  0  0  0  0  0  0  0  0
  -11.0989    3.3604    0.0000 H   0  0  0  0  0  0  0  0  0  0  0  0
   -9.8029    5.6121    0.0000 C   0  0  0  0  0  0  0  0  0  0  0  0
   -8.5049    6.3639    0.0000 O   0  0  0  0  0  0  0  0  0  0  0  0
  -11.1029    6.3604    0.0000 C   0  0  0  0  0  0  0  0  0  0  0  0
  -12.5805    6.6188    0.0000 H   0  0  0  0  0  0  0  0  0  0  0  0
  -11.6141    4.9501    0.0000 H   0  0  0  0  0  0  0  0  0  0  0  0
  -11.1050    7.8604    0.0000 C   0  0  0  0  0  0  0  0  0  0  0  0
   -9.6274    7.6019    0.0000 H   0  0  0  0  0  0  0  0  0  0  0  0
  -10.5938    9.2706    0.0000 H   0  0  0  0  0  0  0  0  0  0  0  0
  -12.4050    8.6086    0.0000 C   0  0  0  0  0  0  0  0  0  0  0  0
  -13.3708    9.7564    0.0000 H   0  0  0  0  0  0  0  0  0  0  0  0
  -13.7030    7.8568    0.0000 C   0  0  0  0  0  0  0  0  0  0  0  0
  -13.7010    6.3568    0.0000 O   0  0  0  0  0  0  0  0  0  0  0  0
  -15.0031    8.6051    0.0000 O   0  0  0  0  0  0  0  0  0  0  0  0
  -16.3011    7.8533    0.0000 H   0  0  0  0  0  0  0  0  0  0  0  0
  -11.1344   10.1271    0.0000 N   0  0  0  0  0  0  0  0  0  0  0  0
  -11.6493   11.5359    0.0000 H   0  0  0  0  0  0  0  0  0  0  0  0
   -9.6568    9.8686    0.0000 H   0  0  0  0  0  0  0  0  0  0  0  0
   -3.3009    1.8683    0.0000 C   0  0  0  0  0  0  0  0  0  0  0  0
   -2.3365    3.0172    0.0000 H   0  0  0  0  0  0  0  0  0  0  0  0
   -4.2649    3.0175    0.0000 H   0  0  0  0  0  0  0  0  0  0  0  0
   -1.5863    0.8781    0.0000 N   0  0  0  0  0  0  0  0  0  0  0  0
   -1.5863   -0.6219    0.0000 C   0  0  0  0  0  0  0  0  0  0  0  0
   -3.0635   -0.3616    0.0000 H   0  0  0  0  0  0  0  0  0  0  0  0
   -2.0990   -2.0316    0.0000 H   0  0  0  0  0  0  0  0  0  0  0  0
   -0.2863   -1.3719    0.0000 C   0  0  0  0  0  0  0  0  0  0  0  0
   -1.2504   -2.5211    0.0000 H   0  0  0  0  0  0  0  0  0  0  0  0
    0.6778   -2.5211    0.0000 H   0  0  0  0  0  0  0  0  0  0  0  0
    1.0137   -0.6219    0.0000 C   0  0  0  0  0  0  0  0  0  0  0  0
    1.0137    0.8781    0.0000 C   0  0  0  0  0  0  0  0  0  0  0  0
    2.4437    1.3381    0.0000 C   0  0  0  0  0  0  0  0  0  0  0  0
    2.9090    2.7641    0.0000 H   0  0  0  0  0  0  0  0  0  0  0  0
    3.3237    0.1281    0.0000 C   0  0  0  0  0  0  0  0  0  0  0  0
    4.8237    0.1281    0.0000 H   0  0  0  0  0  0  0  0  0  0  0  0
    2.4437   -1.0819    0.0000 S   0  0  0  0  0  0  0  0  0  0  0  0
   -0.2863    1.6281    0.0000 C   0  0  0  0  0  0  0  0  0  0  0  0
    0.6778    2.7772    0.0000 H   0  0  0  0  0  0  0  0  0  0  0  0
   -1.2504    2.7772    0.0000 H   0  0  0  0  0  0  0  0  0  0  0  0
  1  2  1  0  0  0  0 
  1  3  2  0  0  0  0 
  3  4  1  0  0  0  0 
  3  5  1  0  0  0  0 
  5  6  2  0  0  0  0 
  6  7  1  0  0  0  0 
  7  8  1  0  0  0  0 
  7  9  2  0  0  0  0 
  1  9  1  0  0  0  0 
  9 10  1  0  0  0  0 
  6 11  1  0  0  0  0 
 11 12  1  0  0  0  0 
 12 13  1  0  0  0  0 
 12 14  1  0  0  0  0 
 12 15  1  0  0  0  0 
 15 16  1  0  0  0  0 
 15 17  1  0  0  0  0 
 17 18  2  0  0  0  0 
 17 19  1  0  0  0  0 
 19 20  1  0  0  0  0 
 19 21  1  0  0  0  0 
 21 22  1  0  0  0  0 
 21 23  1  0  0  0  0 
 21 24  1  0  0  0  0 
 24 25  2  0  0  0  0 
 24 26  1  0  0  0  0 
 26 27  1  0  0  0  0 
 15 28  1  0  0  0  0 
 28 29  1  0  0  0  0 
 28 30  1  0  0  0  0 
 30 31  2  0  0  0  0 
 30 32  1  0  0  0  0 
 32 33  1  0  0  0  0 
 32 34  1  0  0  0  0 
 32 35  1  0  0  0  0 
 35 36  1  0  0  0  0 
 35 37  1  0  0  0  0 
 35 38  1  0  0  0  0 
 38 39  1  0  0  0  0 
 38 40  1  0  0  0  0 
 40 41  2  0  0  0  0 
 40 42  1  0  0  0  0 
 42 43  1  0  0  0  0 
 38 44  1  0  0  0  0 
 44 45  1  0  0  0  0 
 44 46  1  0  0  0  0 
  5 47  1  0  0  0  0 
 47 48  1  0  0  0  0 
 47 49  1  0  0  0  0 
 47 50  1  0  0  0  0 
 50 51  1  0  0  0  0 
 51 52  1  0  0  0  0 
 51 53  1  0  0  0  0 
 51 54  1  0  0  0  0 
 54 55  1  0  0  0  0 
 54 56  1  0  0  0  0 
 54 57  1  0  0  0  0 
 57 58  2  0  0  0  0 
 58 59  1  0  0  0  0 
 59 60  1  0  0  0  0 
 59 61  2  0  0  0  0 
 61 62  1  0  0  0  0 
 61 63  1  0  0  0  0 
 57 63  1  0  0  0  0 
 58 64  1  0  0  0  0 
 50 64  1  0  0  0  0 
 64 65  1  0  0  0  0 
 64 66  1  0  0  0  0 
M  END
> <Rank>
18

> <Priority_score>
0.204

> <Reaction_type>
glutathione_conjugation_(aromatic_nucleophilic_substitution)

> <Parent_ID>
66

> <Parent_InChI>
InChI=1S/C14H14ClNS/c15-13-4-2-1-3-11(13)9-16-7-5-14-12(10-16)6-8-17-14/h1-4,6,8H,5,7,9-10H2

> <Parent_SMILES>
Clc1ccccc1CN1CCc2sccc2C1

$$$$
Molecule 66_metabolite 19
  CDK     0516241031

 30 32  0  0  0  0  0  0  0  0999 V2000
   -7.5030    0.7417    0.0000 C   0  0  0  0  0  0  0  0  0  0  0  0
   -8.8033    1.4895    0.0000 H   0  0  0  0  0  0  0  0  0  0  0  0
   -6.2107    1.5033    0.0000 C   0  0  0  0  0  0  0  0  0  0  0  0
   -6.2171    3.0033    0.0000 H   0  0  0  0  0  0  0  0  0  0  0  0
   -4.9081    0.7504    0.0000 C   0  0  0  0  0  0  0  0  0  0  0  0
   -4.9079   -0.7468    0.0000 C   0  0  0  0  0  0  0  0  0  0  0  0
   -6.2002   -1.5084    0.0000 C   0  0  0  0  0  0  0  0  0  0  0  0
   -6.1895   -3.0084    0.0000 H   0  0  0  0  0  0  0  0  0  0  0  0
   -7.5114   -0.7606    0.0000 C   0  0  0  0  0  0  0  0  0  0  0  0
   -8.8106   -1.5104    0.0000 H   0  0  0  0  0  0  0  0  0  0  0  0
   -3.6054   -1.4909    0.0000 Cl  0  0  0  0  0  0  0  0  0  0  0  0
   -3.6089    1.5002    0.0000 C   0  0  0  0  0  0  0  0  0  0  0  0
   -3.6087    3.0002    0.0000 H   0  0  0  0  0  0  0  0  0  0  0  0
   -2.3100    0.7500    0.0000 N   0  0  0  0  0  0  0  0  0  0  0  0
   -2.3100   -0.7500    0.0000 C   0  0  0  0  0  0  0  0  0  0  0  0
   -3.7872   -0.4897    0.0000 H   0  0  0  0  0  0  0  0  0  0  0  0
   -2.8227   -2.1596    0.0000 H   0  0  0  0  0  0  0  0  0  0  0  0
   -1.0100   -1.5000    0.0000 C   0  0  0  0  0  0  0  0  0  0  0  0
   -1.9741   -2.6492    0.0000 H   0  0  0  0  0  0  0  0  0  0  0  0
   -0.0459   -2.6492    0.0000 H   0  0  0  0  0  0  0  0  0  0  0  0
    0.2900   -0.7500    0.0000 C   0  0  0  0  0  0  0  0  0  0  0  0
    0.2900    0.7500    0.0000 C   0  0  0  0  0  0  0  0  0  0  0  0
    1.7200    1.2100    0.0000 C   0  0  0  0  0  0  0  0  0  0  0  0
    2.1853    2.6360    0.0000 H   0  0  0  0  0  0  0  0  0  0  0  0
    2.6000    0.0000    0.0000 C   0  0  0  0  0  0  0  0  0  0  0  0
    4.1000   -0.0000    0.0000 H   0  0  0  0  0  0  0  0  0  0  0  0
    1.7200   -1.2100    0.0000 S   0  0  0  0  0  0  0  0  0  0  0  0
   -1.0100    1.5000    0.0000 C   0  0  0  0  0  0  0  0  0  0  0  0
   -0.0459    2.6492    0.0000 H   0  0  0  0  0  0  0  0  0  0  0  0
   -1.9741    2.6492    0.0000 H   0  0  0  0  0  0  0  0  0  0  0  0
  1  2  1  0  0  0  0 
  1  3  2  0  0  0  0 
  3  4  1  0  0  0  0 
  3  5  1  0  0  0  0 
  5  6  2  0  0  0  0 
  6  7  1  0  0  0  0 
  7  8  1  0  0  0  0 
  7  9  2  0  0  0  0 
  1  9  1  0  0  0  0 
  9 10  1  0  0  0  0 
  6 11  1  0  0  0  0 
  5 12  1  0  0  0  0 
 12 13  1  4  0  0  0 
 12 14  2  0  0  0  0 
 14 15  1  0  0  0  0 
 15 16  1  0  0  0  0 
 15 17  1  0  0  0  0 
 15 18  1  0  0  0  0 
 18 19  1  0  0  0  0 
 18 20  1  0  0  0  0 
 18 21  1  0  0  0  0 
 21 22  2  0  0  0  0 
 22 23  1  0  0  0  0 
 23 24  1  0  0  0  0 
 23 25  2  0  0  0  0 
 25 26  1  0  0  0  0 
 25 27  1  0  0  0  0 
 21 27  1  0  0  0  0 
 22 28  1  0  0  0  0 
 14 28  1  0  0  0  0 
 28 29  1  0  0  0  0 
 28 30  1  0  0  0  0 
M  CHG  1  14   1
M  END
> <Rank>
19

> <Priority_score>
0.13586470156628028

> <Reaction_type>
dehydration of N-C bond

> <Parent_ID>
66

> <Parent_InChI>
InChI=1S/C14H14ClNS/c15-13-4-2-1-3-11(13)9-16-7-5-14-12(10-16)6-8-17-14/h1-4,6,8H,5,7,9-10H2

> <Parent_SMILES>
Clc1ccccc1CN1CCc2sccc2C1

$$$$
Molecule 66_metabolite 20
  CDK     0516241031

 30 32  0  0  0  0  0  0  0  0999 V2000
   -7.5030    0.7417    0.0000 C   0  0  0  0  0  0  0  0  0  0  0  0
   -8.8033    1.4895    0.0000 H   0  0  0  0  0  0  0  0  0  0  0  0
   -6.2107    1.5033    0.0000 C   0  0  0  0  0  0  0  0  0  0  0  0
   -6.2171    3.0033    0.0000 H   0  0  0  0  0  0  0  0  0  0  0  0
   -4.9081    0.7504    0.0000 C   0  0  0  0  0  0  0  0  0  0  0  0
   -4.9079   -0.7468    0.0000 C   0  0  0  0  0  0  0  0  0  0  0  0
   -6.2002   -1.5084    0.0000 C   0  0  0  0  0  0  0  0  0  0  0  0
   -6.1895   -3.0084    0.0000 H   0  0  0  0  0  0  0  0  0  0  0  0
   -7.5114   -0.7606    0.0000 C   0  0  0  0  0  0  0  0  0  0  0  0
   -8.8106   -1.5104    0.0000 H   0  0  0  0  0  0  0  0  0  0  0  0
   -3.6054   -1.4909    0.0000 Cl  0  0  0  0  0  0  0  0  0  0  0  0
   -3.6089    1.5002    0.0000 C   0  0  0  0  0  0  0  0  0  0  0  0
   -2.6446    2.6491    0.0000 H   0  0  0  0  0  0  0  0  0  0  0  0
   -4.5729    2.6494    0.0000 H   0  0  0  0  0  0  0  0  0  0  0  0
   -2.3100    0.7500    0.0000 N   0  0  0  0  0  0  0  0  0  0  0  0
   -1.0100    1.5000    0.0000 C   0  0  0  0  0  0  0  0  0  0  0  0
   -1.0100    3.0000    0.0000 H   0  0  0  0  0  0  0  0  0  0  0  0
    0.2900    0.7500    0.0000 C   0  0  0  0  0  0  0  0  0  0  0  0
    0.2900   -0.7500    0.0000 C   0  0  0  0  0  0  0  0  0  0  0  0
   -1.0100   -1.5000    0.0000 C   0  0  0  0  0  0  0  0  0  0  0  0
   -1.9741   -2.6492    0.0000 H   0  0  0  0  0  0  0  0  0  0  0  0
   -0.0459   -2.6492    0.0000 H   0  0  0  0  0  0  0  0  0  0  0  0
   -2.3100   -0.7500    0.0000 C   0  0  0  0  0  0  0  0  0  0  0  0
   -3.7872   -0.4897    0.0000 H   0  0  0  0  0  0  0  0  0  0  0  0
   -2.8227   -2.1596    0.0000 H   0  0  0  0  0  0  0  0  0  0  0  0
    1.7200   -1.2100    0.0000 S   0  0  0  0  0  0  0  0  0  0  0  0
    2.6000    0.0000    0.0000 C   0  0  0  0  0  0  0  0  0  0  0  0
    4.1000   -0.0000    0.0000 H   0  0  0  0  0  0  0  0  0  0  0  0
    1.7200    1.2100    0.0000 C   0  0  0  0  0  0  0  0  0  0  0  0
    2.1853    2.6360    0.0000 H   0  0  0  0  0  0  0  0  0  0  0  0
  1  2  1  0  0  0  0 
  1  3  2  0  0  0  0 
  3  4  1  0  0  0  0 
  3  5  1  0  0  0  0 
  5  6  2  0  0  0  0 
  6  7  1  0  0  0  0 
  7  8  1  0  0  0  0 
  7  9  2  0  0  0  0 
  1  9  1  0  0  0  0 
  9 10  1  0  0  0  0 
  6 11  1  0  0  0  0 
  5 12  1  0  0  0  0 
 12 13  1  0  0  0  0 
 12 14  1  0  0  0  0 
 12 15  1  0  0  0  0 
 15 16  2  0  0  0  0 
 16 17  1  0  0  0  0 
 16 18  1  0  0  0  0 
 18 19  2  0  0  0  0 
 19 20  1  0  0  0  0 
 20 21  1  0  0  0  0 
 20 22  1  0  0  0  0 
 20 23  1  0  0  0  0 
 15 23  1  0  0  0  0 
 23 24  1  0  0  0  0 
 23 25  1  0  0  0  0 
 19 26  1  0  0  0  0 
 26 27  1  0  0  0  0 
 27 28  1  0  0  0  0 
 27 29  2  0  0  0  0 
 18 29  1  0  0  0  0 
 29 30  1  0  0  0  0 
M  CHG  1  15   1
M  END
> <Rank>
20

> <Priority_score>
0.1048

> <Reaction_type>
dehydration of N-C bond

> <Parent_ID>
66

> <Parent_InChI>
InChI=1S/C14H14ClNS/c15-13-4-2-1-3-11(13)9-16-7-5-14-12(10-16)6-8-17-14/h1-4,6,8H,5,7,9-10H2

> <Parent_SMILES>
Clc1ccccc1CN1CCc2sccc2C1

$$$$
Molecule 66_metabolite 21
  CDK     0516241031

 30 32  0  0  0  0  0  0  0  0999 V2000
   -4.8979    5.2522    0.0000 C   0  0  0  0  0  0  0  0  0  0  0  0
   -6.1954    6.0048    0.0000 H   0  0  0  0  0  0  0  0  0  0  0  0
   -4.9118    3.7523    0.0000 C   0  0  0  0  0  0  0  0  0  0  0  0
   -6.2142    3.0082    0.0000 H   0  0  0  0  0  0  0  0  0  0  0  0
   -3.6087    3.0002    0.0000 C   0  0  0  0  0  0  0  0  0  0  0  0
   -2.3117    3.7482    0.0000 C   0  0  0  0  0  0  0  0  0  0  0  0
   -2.2978    5.2482    0.0000 C   0  0  0  0  0  0  0  0  0  0  0  0
   -0.9932    5.9885    0.0000 H   0  0  0  0  0  0  0  0  0  0  0  0
   -3.6008    6.0103    0.0000 C   0  0  0  0  0  0  0  0  0  0  0  0
   -3.6005    7.5103    0.0000 H   0  0  0  0  0  0  0  0  0  0  0  0
   -1.0163    2.9919    0.0000 Cl  0  0  0  0  0  0  0  0  0  0  0  0
   -3.6089    1.5002    0.0000 C   0  0  0  0  0  0  0  0  0  0  0  0
   -4.1222    0.0908    0.0000 H   0  0  0  0  0  0  0  0  0  0  0  0
   -5.0861    1.7609    0.0000 H   0  0  0  0  0  0  0  0  0  0  0  0
   -2.3100    0.7500    0.0000 N   0  0  0  0  0  0  0  0  0  0  0  0
   -2.3100   -0.7500    0.0000 C   0  0  0  0  0  0  0  0  0  0  0  0
   -3.6089   -1.5002    0.0000 H   0  0  0  0  0  0  0  0  0  0  0  0
   -1.0100   -1.5000    0.0000 C   0  0  0  0  0  0  0  0  0  0  0  0
   -1.9741   -2.6492    0.0000 H   0  0  0  0  0  0  0  0  0  0  0  0
   -0.0459   -2.6492    0.0000 H   0  0  0  0  0  0  0  0  0  0  0  0
    0.2900   -0.7500    0.0000 C   0  0  0  0  0  0  0  0  0  0  0  0
    0.2900    0.7500    0.0000 C   0  0  0  0  0  0  0  0  0  0  0  0
    1.7200    1.2100    0.0000 C   0  0  0  0  0  0  0  0  0  0  0  0
    2.1853    2.6360    0.0000 H   0  0  0  0  0  0  0  0  0  0  0  0
    2.6000    0.0000    0.0000 C   0  0  0  0  0  0  0  0  0  0  0  0
    4.1000   -0.0000    0.0000 H   0  0  0  0  0  0  0  0  0  0  0  0
    1.7200   -1.2100    0.0000 S   0  0  0  0  0  0  0  0  0  0  0  0
   -1.0100    1.5000    0.0000 C   0  0  0  0  0  0  0  0  0  0  0  0
   -0.0459    2.6492    0.0000 H   0  0  0  0  0  0  0  0  0  0  0  0
   -1.9741    2.6492    0.0000 H   0  0  0  0  0  0  0  0  0  0  0  0
  1  2  1  0  0  0  0 
  1  3  2  0  0  0  0 
  3  4  1  0  0  0  0 
  3  5  1  0  0  0  0 
  5  6  2  0  0  0  0 
  6  7  1  0  0  0  0 
  7  8  1  0  0  0  0 
  7  9  2  0  0  0  0 
  1  9  1  0  0  0  0 
  9 10  1  0  0  0  0 
  6 11  1  0  0  0  0 
  5 12  1  0  0  0  0 
 12 13  1  0  0  0  0 
 12 14  1  0  0  0  0 
 12 15  1  0  0  0  0 
 15 16  2  0  0  0  0 
 16 17  1  0  0  0  0 
 16 18  1  0  0  0  0 
 18 19  1  0  0  0  0 
 18 20  1  0  0  0  0 
 18 21  1  0  0  0  0 
 21 22  2  0  0  0  0 
 22 23  1  0  0  0  0 
 23 24  1  0  0  0  0 
 23 25  2  0  0  0  0 
 25 26  1  0  0  0  0 
 25 27  1  0  0  0  0 
 21 27  1  0  0  0  0 
 22 28  1  0  0  0  0 
 15 28  1  0  0  0  0 
 28 29  1  0  0  0  0 
 28 30  1  0  0  0  0 
M  CHG  1  15   1
M  END
> <Rank>
21

> <Priority_score>
0.096

> <Reaction_type>
dehydration of N-C bond

> <Parent_ID>
66

> <Parent_InChI>
InChI=1S/C14H14ClNS/c15-13-4-2-1-3-11(13)9-16-7-5-14-12(10-16)6-8-17-14/h1-4,6,8H,5,7,9-10H2

> <Parent_SMILES>
Clc1ccccc1CN1CCc2sccc2C1

$$$$
Molecule 66_metabolite 22
  CDK     0516241031

 29 31  0  0  0  0  0  0  0  0999 V2000
   -4.8979    5.2522    0.0000 C   0  0  0  0  0  0  0  0  0  0  0  0
   -6.1954    6.0048    0.0000 H   0  0  0  0  0  0  0  0  0  0  0  0
   -4.9118    3.7523    0.0000 C   0  0  0  0  0  0  0  0  0  0  0  0
   -6.2142    3.0082    0.0000 H   0  0  0  0  0  0  0  0  0  0  0  0
   -3.6087    3.0002    0.0000 C   0  0  0  0  0  0  0  0  0  0  0  0
   -2.3117    3.7482    0.0000 C   0  0  0  0  0  0  0  0  0  0  0  0
   -2.2978    5.2482    0.0000 C   0  0  0  0  0  0  0  0  0  0  0  0
   -0.9932    5.9885    0.0000 H   0  0  0  0  0  0  0  0  0  0  0  0
   -3.6008    6.0103    0.0000 C   0  0  0  0  0  0  0  0  0  0  0  0
   -3.6005    7.5103    0.0000 H   0  0  0  0  0  0  0  0  0  0  0  0
   -1.0163    2.9919    0.0000 Cl  0  0  0  0  0  0  0  0  0  0  0  0
   -3.6089    1.5002    0.0000 C   0  0  0  0  0  0  0  0  0  0  0  0
   -4.1222    0.0908    0.0000 H   0  0  0  0  0  0  0  0  0  0  0  0
   -5.0861    1.7609    0.0000 H   0  0  0  0  0  0  0  0  0  0  0  0
   -2.3100    0.7500    0.0000 N   0  0  0  0  0  0  0  0  0  0  0  0
   -2.3100   -0.7500    0.0000 C   0  0  0  0  0  0  0  0  0  0  0  0
   -3.6089   -1.5002    0.0000 H   0  0  0  0  0  0  0  0  0  0  0  0
   -1.0100   -1.5000    0.0000 C   0  0  0  0  0  0  0  0  0  0  0  0
   -1.0100   -3.0000    0.0000 H   0  0  0  0  0  0  0  0  0  0  0  0
    0.2900   -0.7500    0.0000 C   0  0  0  0  0  0  0  0  0  0  0  0
    0.2900    0.7500    0.0000 C   0  0  0  0  0  0  0  0  0  0  0  0
    1.7200    1.2100    0.0000 C   0  0  0  0  0  0  0  0  0  0  0  0
    2.1853    2.6360    0.0000 H   0  0  0  0  0  0  0  0  0  0  0  0
    2.6000    0.0000    0.0000 C   0  0  0  0  0  0  0  0  0  0  0  0
    4.1000   -0.0000    0.0000 H   0  0  0  0  0  0  0  0  0  0  0  0
    1.7200   -1.2100    0.0000 S   0  0  0  0  0  0  0  0  0  0  0  0
   -1.0100    1.5000    0.0000 C   0  0  0  0  0  0  0  0  0  0  0  0
   -0.0459    2.6492    0.0000 H   0  0  0  0  0  0  0  0  0  0  0  0
   -1.9741    2.6492    0.0000 H   0  0  0  0  0  0  0  0  0  0  0  0
  1  2  1  0  0  0  0 
  1  3  2  0  0  0  0 
  3  4  1  0  0  0  0 
  3  5  1  0  0  0  0 
  5  6  2  0  0  0  0 
  6  7  1  0  0  0  0 
  7  8  1  0  0  0  0 
  7  9  2  0  0  0  0 
  1  9  1  0  0  0  0 
  9 10  1  0  0  0  0 
  6 11  1  0  0  0  0 
  5 12  1  0  0  0  0 
 12 13  1  0  0  0  0 
 12 14  1  0  0  0  0 
 12 15  1  0  0  0  0 
 15 16  1  0  0  0  0 
 16 17  1  0  0  0  0 
 16 18  2  0  0  0  0 
 18 19  1  0  0  0  0 
 18 20  1  0  0  0  0 
 20 21  2  0  0  0  0 
 21 22  1  0  0  0  0 
 22 23  1  0  0  0  0 
 22 24  2  0  0  0  0 
 24 25  1  0  0  0  0 
 24 26  1  0  0  0  0 
 20 26  1  0  0  0  0 
 21 27  1  0  0  0  0 
 15 27  1  0  0  0  0 
 27 28  1  0  0  0  0 
 27 29  1  0  0  0  0 
M  END
> <Rank>
22

> <Priority_score>
0.072

> <Reaction_type>
alkyl dehydrogenation

> <Parent_ID>
66

> <Parent_InChI>
InChI=1S/C14H14ClNS/c15-13-4-2-1-3-11(13)9-16-7-5-14-12(10-16)6-8-17-14/h1-4,6,8H,5,7,9-10H2

> <Parent_SMILES>
Clc1ccccc1CN1CCc2sccc2C1

$$$$
Molecule 66_metabolite 23
  CDK     0516241031

 32 34  0  0  0  0  0  0  0  0999 V2000
   -7.5071   -0.7512    0.0000 C   0  0  0  0  0  0  0  0  0  0  0  0
   -8.8063   -1.5010    0.0000 H   0  0  0  0  0  0  0  0  0  0  0  0
   -7.5066    0.7496    0.0000 C   0  0  0  0  0  0  0  0  0  0  0  0
   -8.8057    1.4996    0.0000 H   0  0  0  0  0  0  0  0  0  0  0  0
   -6.2071    1.5004    0.0000 C   0  0  0  0  0  0  0  0  0  0  0  0
   -4.9081    0.7504    0.0000 C   0  0  0  0  0  0  0  0  0  0  0  0
   -3.6089    1.5002    0.0000 C   0  0  0  0  0  0  0  0  0  0  0  0
   -2.6446    2.6491    0.0000 H   0  0  0  0  0  0  0  0  0  0  0  0
   -4.5729    2.6494    0.0000 H   0  0  0  0  0  0  0  0  0  0  0  0
   -1.8943    0.5099    0.0000 N   0  0  0  0  0  0  0  0  0  0  0  0
   -1.8943   -0.9901    0.0000 C   0  0  0  0  0  0  0  0  0  0  0  0
   -3.3716   -0.7298    0.0000 H   0  0  0  0  0  0  0  0  0  0  0  0
   -2.4071   -2.3997    0.0000 H   0  0  0  0  0  0  0  0  0  0  0  0
   -0.5943   -1.7401    0.0000 C   0  0  0  0  0  0  0  0  0  0  0  0
   -1.5584   -2.8892    0.0000 H   0  0  0  0  0  0  0  0  0  0  0  0
    0.3697   -2.8892    0.0000 H   0  0  0  0  0  0  0  0  0  0  0  0
    0.7057   -0.9901    0.0000 C   0  0  0  0  0  0  0  0  0  0  0  0
    0.7057    0.5099    0.0000 C   0  0  0  0  0  0  0  0  0  0  0  0
    2.1357    0.9699    0.0000 C   0  0  0  0  0  0  0  0  0  0  0  0
    2.6009    2.3959    0.0000 H   0  0  0  0  0  0  0  0  0  0  0  0
    3.0157   -0.2401    0.0000 C   0  0  0  0  0  0  0  0  0  0  0  0
    4.5157   -0.2401    0.0000 H   0  0  0  0  0  0  0  0  0  0  0  0
    2.1357   -1.4501    0.0000 S   0  0  0  0  0  0  0  0  0  0  0  0
   -0.5943    1.2599    0.0000 C   0  0  0  0  0  0  0  0  0  0  0  0
    0.3697    2.4091    0.0000 H   0  0  0  0  0  0  0  0  0  0  0  0
   -1.5584    2.4091    0.0000 H   0  0  0  0  0  0  0  0  0  0  0  0
   -4.9086   -0.7504    0.0000 C   0  0  0  0  0  0  0  0  0  0  0  0
   -6.2081   -1.5012    0.0000 C   0  0  0  0  0  0  0  0  0  0  0  0
   -6.2078   -3.0012    0.0000 H   0  0  0  0  0  0  0  0  0  0  0  0
   -3.6095   -1.5004    0.0000 Cl  0  0  0  0  0  0  0  0  0  0  0  0
   -6.2074    3.0004    0.0000 O   0  0  0  0  0  0  0  0  0  0  0  0
   -7.5065    3.7502    0.0000 H   0  0  0  0  0  0  0  0  0  0  0  0
  1  2  1  0  0  0  0 
  1  3  2  0  0  0  0 
  3  4  1  0  0  0  0 
  3  5  1  0  0  0  0 
  5  6  2  0  0  0  0 
  6  7  1  0  0  0  0 
  7  8  1  0  0  0  0 
  7  9  1  0  0  0  0 
  7 10  1  0  0  0  0 
 10 11  1  0  0  0  0 
 11 12  1  0  0  0  0 
 11 13  1  0  0  0  0 
 11 14  1  0  0  0  0 
 14 15  1  0  0  0  0 
 14 16  1  0  0  0  0 
 14 17  1  0  0  0  0 
 17 18  2  0  0  0  0 
 18 19  1  0  0  0  0 
 19 20  1  0  0  0  0 
 19 21  2  0  0  0  0 
 21 22  1  0  0  0  0 
 21 23  1  0  0  0  0 
 17 23  1  0  0  0  0 
 18 24  1  0  0  0  0 
 10 24  1  0  0  0  0 
 24 25  1  0  0  0  0 
 24 26  1  0  0  0  0 
  6 27  1  0  0  0  0 
 27 28  2  0  0  0  0 
  1 28  1  0  0  0  0 
 28 29  1  0  0  0  0 
 27 30  1  0  0  0  0 
  5 31  1  0  0  0  0 
 31 32  1  0  0  0  0 
M  END
> <Rank>
23

> <Priority_score>
0.04

> <Reaction_type>
aromatic hydroxylation

> <Parent_ID>
66

> <Parent_InChI>
InChI=1S/C14H14ClNS/c15-13-4-2-1-3-11(13)9-16-7-5-14-12(10-16)6-8-17-14/h1-4,6,8H,5,7,9-10H2

> <Parent_SMILES>
Clc1ccccc1CN1CCc2sccc2C1

$$$$
Molecule 66_metabolite 24
  CDK     0516241031

 32 34  0  0  0  0  0  0  0  0999 V2000
   -7.5081    0.7512    0.0000 C   0  0  0  0  0  0  0  0  0  0  0  0
   -8.8068    1.5019    0.0000 H   0  0  0  0  0  0  0  0  0  0  0  0
   -6.2078    1.5008    0.0000 C   0  0  0  0  0  0  0  0  0  0  0  0
   -6.2074    3.0008    0.0000 H   0  0  0  0  0  0  0  0  0  0  0  0
   -4.9081    0.7504    0.0000 C   0  0  0  0  0  0  0  0  0  0  0  0
   -4.9086   -0.7496    0.0000 C   0  0  0  0  0  0  0  0  0  0  0  0
   -6.2088   -1.4992    0.0000 C   0  0  0  0  0  0  0  0  0  0  0  0
   -6.2093   -2.9992    0.0000 H   0  0  0  0  0  0  0  0  0  0  0  0
   -7.5086   -0.7488    0.0000 C   0  0  0  0  0  0  0  0  0  0  0  0
   -8.8077   -1.4985    0.0000 H   0  0  0  0  0  0  0  0  0  0  0  0
   -3.6099   -1.5002    0.0000 O   0  0  0  0  0  0  0  0  0  0  0  0
   -3.6106   -3.0002    0.0000 H   0  0  0  0  0  0  0  0  0  0  0  0
   -3.6089    1.5002    0.0000 C   0  0  0  0  0  0  0  0  0  0  0  0
   -2.6446    2.6491    0.0000 H   0  0  0  0  0  0  0  0  0  0  0  0
   -4.5729    2.6494    0.0000 H   0  0  0  0  0  0  0  0  0  0  0  0
   -1.8943    0.5099    0.0000 N   0  0  0  0  0  0  0  0  0  0  0  0
   -1.8943   -0.9901    0.0000 C   0  0  0  0  0  0  0  0  0  0  0  0
   -3.3716   -0.7298    0.0000 H   0  0  0  0  0  0  0  0  0  0  0  0
   -2.4071   -2.3997    0.0000 H   0  0  0  0  0  0  0  0  0  0  0  0
   -0.5943   -1.7401    0.0000 C   0  0  0  0  0  0  0  0  0  0  0  0
   -1.5584   -2.8892    0.0000 H   0  0  0  0  0  0  0  0  0  0  0  0
    0.3697   -2.8892    0.0000 H   0  0  0  0  0  0  0  0  0  0  0  0
    0.7057   -0.9901    0.0000 C   0  0  0  0  0  0  0  0  0  0  0  0
    0.7057    0.5099    0.0000 C   0  0  0  0  0  0  0  0  0  0  0  0
    2.1357    0.9699    0.0000 C   0  0  0  0  0  0  0  0  0  0  0  0
    2.6009    2.3959    0.0000 H   0  0  0  0  0  0  0  0  0  0  0  0
    3.0157   -0.2401    0.0000 C   0  0  0  0  0  0  0  0  0  0  0  0
    4.5157   -0.2401    0.0000 H   0  0  0  0  0  0  0  0  0  0  0  0
    2.1357   -1.4501    0.0000 S   0  0  0  0  0  0  0  0  0  0  0  0
   -0.5943    1.2599    0.0000 C   0  0  0  0  0  0  0  0  0  0  0  0
    0.3697    2.4091    0.0000 H   0  0  0  0  0  0  0  0  0  0  0  0
   -1.5584    2.4091    0.0000 H   0  0  0  0  0  0  0  0  0  0  0  0
  1  2  1  0  0  0  0 
  1  3  2  0  0  0  0 
  3  4  1  0  0  0  0 
  3  5  1  0  0  0  0 
  5  6  2  0  0  0  0 
  6  7  1  0  0  0  0 
  7  8  1  0  0  0  0 
  7  9  2  0  0  0  0 
  1  9  1  0  0  0  0 
  9 10  1  0  0  0  0 
  6 11  1  0  0  0  0 
 11 12  1  0  0  0  0 
  5 13  1  0  0  0  0 
 13 14  1  0  0  0  0 
 13 15  1  0  0  0  0 
 13 16  1  0  0  0  0 
 16 17  1  0  0  0  0 
 17 18  1  0  0  0  0 
 17 19  1  0  0  0  0 
 17 20  1  0  0  0  0 
 20 21  1  0  0  0  0 
 20 22  1  0  0  0  0 
 20 23  1  0  0  0  0 
 23 24  2  0  0  0  0 
 24 25  1  0  0  0  0 
 25 26  1  0  0  0  0 
 25 27  2  0  0  0  0 
 27 28  1  0  0  0  0 
 27 29  1  0  0  0  0 
 23 29  1  0  0  0  0 
 24 30  1  0  0  0  0 
 16 30  1  0  0  0  0 
 30 31  1  0  0  0  0 
 30 32  1  0  0  0  0 
M  END
> <Rank>
24

> <Priority_score>
8.0E-4

> <Reaction_type>
oxidative dehalogenation benzyl

> <Parent_ID>
66

> <Parent_InChI>
InChI=1S/C14H14ClNS/c15-13-4-2-1-3-11(13)9-16-7-5-14-12(10-16)6-8-17-14/h1-4,6,8H,5,7,9-10H2

> <Parent_SMILES>
Clc1ccccc1CN1CCc2sccc2C1

$$$$
Molecule 67
  CDK     0516241031

 14 15  0  0  0  0  0  0  0  0999 V2000
    2.6838    2.4465    0.0000 C   0  0  0  0  0  0  0  0  0  0  0  0
    2.2200    1.0200    0.0000 N   0  0  0  0  0  0  0  0  0  0  0  0
    3.1000   -0.1900    0.0000 C   0  0  0  0  0  0  0  0  0  0  0  0
    2.2200   -1.4000    0.0000 N   0  0  0  0  0  0  0  0  0  0  0  0
    0.8000   -0.9400    0.0000 C   0  0  0  0  0  0  0  0  0  0  0  0
    0.8000    0.5600    0.0000 C   0  0  0  0  0  0  0  0  0  0  0  0
   -0.5000    1.3100    0.0000 C   0  0  0  0  0  0  0  0  0  0  0  0
   -0.5000    2.8100    0.0000 O   0  0  0  0  0  0  0  0  0  0  0  0
   -1.8000    0.5600    0.0000 N   0  0  0  0  0  0  0  0  0  0  0  0
   -3.0989    1.3102    0.0000 C   0  0  0  0  0  0  0  0  0  0  0  0
   -1.8000   -0.9400    0.0000 C   0  0  0  0  0  0  0  0  0  0  0  0
   -3.0989   -1.6902    0.0000 O   0  0  0  0  0  0  0  0  0  0  0  0
   -0.5000   -1.6900    0.0000 N   0  0  0  0  0  0  0  0  0  0  0  0
   -0.5000   -3.1900    0.0000 C   0  0  0  0  0  0  0  0  0  0  0  0
  1  2  1  0  0  0  0 
  2  3  1  0  0  0  0 
  3  4  2  0  0  0  0 
  4  5  1  0  0  0  0 
  5  6  2  0  0  0  0 
  2  6  1  0  0  0  0 
  6  7  1  0  0  0  0 
  7  8  2  0  0  0  0 
  7  9  1  0  0  0  0 
  9 10  1  0  0  0  0 
  9 11  1  0  0  0  0 
 11 12  2  0  0  0  0 
 11 13  1  0  0  0  0 
  5 13  1  0  0  0  0 
 13 14  1  0  0  0  0 
M  END
> <SMILES>
Cn1c(=O)c2c(ncn2C)n(C)c1=O

$$$$
Molecule 67_metabolite 1
  CDK     0516241031

 25 26  0  0  0  0  0  0  0  0999 V2000
    2.6838    2.4465    0.0000 C   0  0  0  0  0  0  0  0  0  0  0  0
    4.1511    2.7581    0.0000 H   0  0  0  0  0  0  0  0  0  0  0  0
    2.6318    3.9456    0.0000 H   0  0  0  0  0  0  0  0  0  0  0  0
    1.1985    2.6556    0.0000 H   0  0  0  0  0  0  0  0  0  0  0  0
    2.2200    1.0200    0.0000 N   0  0  0  0  0  0  0  0  0  0  0  0
    3.1000   -0.1900    0.0000 C   0  0  0  0  0  0  0  0  0  0  0  0
    4.6000   -0.1900    0.0000 H   0  0  0  0  0  0  0  0  0  0  0  0
    2.2200   -1.4000    0.0000 N   0  0  0  0  0  0  0  0  0  0  0  0
    0.8000   -0.9400    0.0000 C   0  0  0  0  0  0  0  0  0  0  0  0
    0.8000    0.5600    0.0000 C   0  0  0  0  0  0  0  0  0  0  0  0
   -0.5000    1.3100    0.0000 C   0  0  0  0  0  0  0  0  0  0  0  0
   -0.5000    2.8100    0.0000 O   0  0  0  0  0  0  0  0  0  0  0  0
   -1.8000    0.5600    0.0000 N   0  0  0  0  0  0  0  0  0  0  0  0
   -3.0989    1.3102    0.0000 C   0  0  0  0  0  0  0  0  0  0  0  0
   -2.1346    2.4591    0.0000 H   0  0  0  0  0  0  0  0  0  0  0  0
   -4.0629    2.4594    0.0000 H   0  0  0  0  0  0  0  0  0  0  0  0
   -4.3981    0.5604    0.0000 O   0  0  0  0  0  0  0  0  0  0  0  0
   -5.6970    1.3106    0.0000 H   0  0  0  0  0  0  0  0  0  0  0  0
   -1.8000   -0.9400    0.0000 C   0  0  0  0  0  0  0  0  0  0  0  0
   -3.0989   -1.6902    0.0000 O   0  0  0  0  0  0  0  0  0  0  0  0
   -0.5000   -1.6900    0.0000 N   0  0  0  0  0  0  0  0  0  0  0  0
   -0.5000   -3.1900    0.0000 C   0  0  0  0  0  0  0  0  0  0  0  0
   -1.7990   -3.9400    0.0000 H   0  0  0  0  0  0  0  0  0  0  0  0
    0.0130   -4.5995    0.0000 H   0  0  0  0  0  0  0  0  0  0  0  0
    0.9772   -2.9295    0.0000 H   0  0  0  0  0  0  0  0  0  0  0  0
  1  2  1  0  0  0  0 
  1  3  1  0  0  0  0 
  1  4  1  0  0  0  0 
  1  5  1  0  0  0  0 
  5  6  1  0  0  0  0 
  6  7  1  0  0  0  0 
  6  8  2  0  0  0  0 
  8  9  1  0  0  0  0 
  9 10  2  0  0  0  0 
  5 10  1  0  0  0  0 
 10 11  1  0  0  0  0 
 11 12  2  0  0  0  0 
 11 13  1  0  0  0  0 
 13 14  1  0  0  0  0 
 14 15  1  0  0  0  0 
 14 16  1  0  0  0  0 
 14 17  1  0  0  0  0 
 17 18  1  0  0  0  0 
 13 19  1  0  0  0  0 
 19 20  2  0  0  0  0 
 19 21  1  0  0  0  0 
  9 21  1  0  0  0  0 
 21 22  1  0  0  0  0 
 22 23  1  0  0  0  0 
 22 24  1  0  0  0  0 
 22 25  1  0  0  0  0 
M  END
> <Rank>
1

> <Priority_score>
0.6757658717869309

> <Reaction_type>
aliphatic hydroxylation

> <Parent_ID>
67

> <Parent_InChI>
InChI=1S/C8H10N4O2/c1-10-4-9-6-5(10)7(13)12(3)8(14)11(6)2/h4H,1-3H3

> <Parent_SMILES>
Cn1c(=O)c2c(ncn2C)n(C)c1=O

$$$$
Molecule 67_metabolite 2
  CDK     0516241031

 25 26  0  0  0  0  0  0  0  0999 V2000
    2.1853    2.6360    0.0000 C   0  0  0  0  0  0  0  0  0  0  0  0
    3.6529    2.9461    0.0000 H   0  0  0  0  0  0  0  0  0  0  0  0
    2.1348    4.1352    0.0000 H   0  0  0  0  0  0  0  0  0  0  0  0
    0.7001    2.8466    0.0000 H   0  0  0  0  0  0  0  0  0  0  0  0
    1.7200    1.2100    0.0000 N   0  0  0  0  0  0  0  0  0  0  0  0
    2.6000    0.0000    0.0000 C   0  0  0  0  0  0  0  0  0  0  0  0
    4.1000   -0.0000    0.0000 H   0  0  0  0  0  0  0  0  0  0  0  0
    1.7200   -1.2100    0.0000 N   0  0  0  0  0  0  0  0  0  0  0  0
    0.2900   -0.7500    0.0000 C   0  0  0  0  0  0  0  0  0  0  0  0
    0.2900    0.7500    0.0000 C   0  0  0  0  0  0  0  0  0  0  0  0
   -1.0100    1.5000    0.0000 C   0  0  0  0  0  0  0  0  0  0  0  0
   -1.0100    3.0000    0.0000 O   0  0  0  0  0  0  0  0  0  0  0  0
   -2.3100    0.7500    0.0000 N   0  0  0  0  0  0  0  0  0  0  0  0
   -2.8227    2.1596    0.0000 C   0  0  0  0  0  0  0  0  0  0  0  0
   -1.8583    3.3085    0.0000 H   0  0  0  0  0  0  0  0  0  0  0  0
   -4.1219    1.4099    0.0000 H   0  0  0  0  0  0  0  0  0  0  0  0
   -3.7867    3.3089    0.0000 H   0  0  0  0  0  0  0  0  0  0  0  0
   -2.3100   -0.7500    0.0000 C   0  0  0  0  0  0  0  0  0  0  0  0
   -3.6089   -1.5002    0.0000 O   0  0  0  0  0  0  0  0  0  0  0  0
   -1.0100   -1.5000    0.0000 N   0  0  0  0  0  0  0  0  0  0  0  0
   -1.0100   -3.0000    0.0000 C   0  0  0  0  0  0  0  0  0  0  0  0
   -2.3090   -3.7500    0.0000 H   0  0  0  0  0  0  0  0  0  0  0  0
   -0.4970   -4.4095    0.0000 H   0  0  0  0  0  0  0  0  0  0  0  0
    0.4672   -2.7395    0.0000 H   0  0  0  0  0  0  0  0  0  0  0  0
   -3.7872    0.4897    0.0000 O   0  0  0  0  0  0  0  0  0  0  0  0
  1  2  1  0  0  0  0 
  1  3  1  0  0  0  0 
  1  4  1  0  0  0  0 
  1  5  1  0  0  0  0 
  5  6  1  0  0  0  0 
  6  7  1  0  0  0  0 
  6  8  2  0  0  0  0 
  8  9  1  0  0  0  0 
  9 10  2  0  0  0  0 
  5 10  1  0  0  0  0 
 10 11  1  0  0  0  0 
 11 12  2  0  0  0  0 
 11 13  1  0  0  0  0 
 13 14  1  0  0  0  0 
 14 15  1  0  0  0  0 
 14 16  1  0  0  0  0 
 14 17  1  0  0  0  0 
 13 18  1  0  0  0  0 
 18 19  2  0  0  0  0 
 18 20  1  0  0  0  0 
  9 20  1  0  0  0  0 
 20 21  1  0  0  0  0 
 21 22  1  0  0  0  0 
 21 23  1  0  0  0  0 
 21 24  1  0  0  0  0 
 13 25  1  0  0  0  0 
M  CHG  1  13   1
M  CHG  1  25  -1
M  END
> <Rank>
1

> <Priority_score>
0.6757658717869309

> <Reaction_type>
N-oxidation

> <Parent_ID>
67

> <Parent_InChI>
InChI=1S/C8H10N4O2/c1-10-4-9-6-5(10)7(13)12(3)8(14)11(6)2/h4H,1-3H3

> <Parent_SMILES>
Cn1c(=O)c2c(ncn2C)n(C)c1=O

$$$$
Molecule 67_metabolite 3
  CDK     0516241031

 21 22  0  0  0  0  0  0  0  0999 V2000
    2.1853    2.6360    0.0000 C   0  0  0  0  0  0  0  0  0  0  0  0
    3.6529    2.9461    0.0000 H   0  0  0  0  0  0  0  0  0  0  0  0
    2.1348    4.1352    0.0000 H   0  0  0  0  0  0  0  0  0  0  0  0
    0.7001    2.8466    0.0000 H   0  0  0  0  0  0  0  0  0  0  0  0
    1.7200    1.2100    0.0000 N   0  0  0  0  0  0  0  0  0  0  0  0
    2.6000    0.0000    0.0000 C   0  0  0  0  0  0  0  0  0  0  0  0
    4.1000   -0.0000    0.0000 H   0  0  0  0  0  0  0  0  0  0  0  0
    1.7200   -1.2100    0.0000 N   0  0  0  0  0  0  0  0  0  0  0  0
    0.2900   -0.7500    0.0000 C   0  0  0  0  0  0  0  0  0  0  0  0
    0.2900    0.7500    0.0000 C   0  0  0  0  0  0  0  0  0  0  0  0
   -1.0100    1.5000    0.0000 C   0  0  0  0  0  0  0  0  0  0  0  0
   -1.0100    3.0000    0.0000 O   0  0  0  0  0  0  0  0  0  0  0  0
   -2.3100    0.7500    0.0000 N   0  0  0  0  0  0  0  0  0  0  0  0
   -3.6089    1.5002    0.0000 H   0  0  0  0  0  0  0  0  0  0  0  0
   -2.3100   -0.7500    0.0000 C   0  0  0  0  0  0  0  0  0  0  0  0
   -3.6089   -1.5002    0.0000 O   0  0  0  0  0  0  0  0  0  0  0  0
   -1.0100   -1.5000    0.0000 N   0  0  0  0  0  0  0  0  0  0  0  0
   -1.0100   -3.0000    0.0000 C   0  0  0  0  0  0  0  0  0  0  0  0
   -2.3090   -3.7500    0.0000 H   0  0  0  0  0  0  0  0  0  0  0  0
   -0.4970   -4.4095    0.0000 H   0  0  0  0  0  0  0  0  0  0  0  0
    0.4672   -2.7395    0.0000 H   0  0  0  0  0  0  0  0  0  0  0  0
  1  2  1  0  0  0  0 
  1  3  1  0  0  0  0 
  1  4  1  0  0  0  0 
  1  5  1  0  0  0  0 
  5  6  1  0  0  0  0 
  6  7  1  0  0  0  0 
  6  8  2  0  0  0  0 
  8  9  1  0  0  0  0 
  9 10  2  0  0  0  0 
  5 10  1  0  0  0  0 
 10 11  1  0  0  0  0 
 11 12  2  0  0  0  0 
 11 13  1  0  0  0  0 
 13 14  1  0  0  0  0 
 13 15  1  0  0  0  0 
 15 16  2  0  0  0  0 
 15 17  1  0  0  0  0 
  9 17  1  0  0  0  0 
 17 18  1  0  0  0  0 
 18 19  1  0  0  0  0 
 18 20  1  0  0  0  0 
 18 21  1  0  0  0  0 
M  END
> <Rank>
1

> <Priority_score>
0.6757658717869309

> <Reaction_type>
N-demethylation_(nCH3)

> <Parent_ID>
67

> <Parent_InChI>
InChI=1S/C8H10N4O2/c1-10-4-9-6-5(10)7(13)12(3)8(14)11(6)2/h4H,1-3H3

> <Parent_SMILES>
Cn1c(=O)c2c(ncn2C)n(C)c1=O

$$$$
Molecule 67_metabolite 4
  CDK     0516241031

 25 26  0  0  0  0  0  0  0  0999 V2000
   -1.0100   -3.0000    0.0000 C   0  0  0  0  0  0  0  0  0  0  0  0
   -2.3090   -3.7500    0.0000 H   0  0  0  0  0  0  0  0  0  0  0  0
   -0.4970   -4.4095    0.0000 H   0  0  0  0  0  0  0  0  0  0  0  0
    0.4672   -2.7395    0.0000 H   0  0  0  0  0  0  0  0  0  0  0  0
   -1.0100   -1.5000    0.0000 N   0  0  0  0  0  0  0  0  0  0  0  0
    0.2900   -0.7500    0.0000 C   0  0  0  0  0  0  0  0  0  0  0  0
    0.2900    0.7500    0.0000 C   0  0  0  0  0  0  0  0  0  0  0  0
   -1.0100    1.5000    0.0000 C   0  0  0  0  0  0  0  0  0  0  0  0
   -1.0100    3.0000    0.0000 O   0  0  0  0  0  0  0  0  0  0  0  0
   -2.3100    0.7500    0.0000 N   0  0  0  0  0  0  0  0  0  0  0  0
   -3.6089    1.5002    0.0000 C   0  0  0  0  0  0  0  0  0  0  0  0
   -4.9081    0.7504    0.0000 H   0  0  0  0  0  0  0  0  0  0  0  0
   -2.6446    2.6491    0.0000 H   0  0  0  0  0  0  0  0  0  0  0  0
   -4.5729    2.6494    0.0000 H   0  0  0  0  0  0  0  0  0  0  0  0
   -2.3100   -0.7500    0.0000 C   0  0  0  0  0  0  0  0  0  0  0  0
   -3.6089   -1.5002    0.0000 O   0  0  0  0  0  0  0  0  0  0  0  0
    1.7200    1.2100    0.0000 N   0  0  0  0  0  0  0  0  0  0  0  0
    3.0195    1.9591    0.0000 C   0  0  0  0  0  0  0  0  0  0  0  0
    4.3181    1.2083    0.0000 H   0  0  0  0  0  0  0  0  0  0  0  0
    3.9845    3.1076    0.0000 H   0  0  0  0  0  0  0  0  0  0  0  0
    2.0561    3.1088    0.0000 H   0  0  0  0  0  0  0  0  0  0  0  0
    2.6000    0.0000    0.0000 C   0  0  0  0  0  0  0  0  0  0  0  0
    4.1000   -0.0000    0.0000 H   0  0  0  0  0  0  0  0  0  0  0  0
    1.7200   -1.2100    0.0000 N   0  0  0  0  0  0  0  0  0  0  0  0
    1.1124    2.5814    0.0000 O   0  0  0  0  0  0  0  0  0  0  0  0
  1  2  1  0  0  0  0 
  1  3  1  0  0  0  0 
  1  4  1  0  0  0  0 
  1  5  1  0  0  0  0 
  5  6  1  0  0  0  0 
  6  7  2  0  0  0  0 
  7  8  1  0  0  0  0 
  8  9  2  0  0  0  0 
  8 10  1  0  0  0  0 
 10 11  1  0  0  0  0 
 11 12  1  0  0  0  0 
 11 13  1  0  0  0  0 
 11 14  1  0  0  0  0 
 10 15  1  0  0  0  0 
  5 15  1  0  0  0  0 
 15 16  2  0  0  0  0 
  7 17  1  0  0  0  0 
 17 18  1  0  0  0  0 
 18 19  1  0  0  0  0 
 18 20  1  0  0  0  0 
 18 21  1  0  0  0  0 
 17 22  1  0  0  0  0 
 22 23  1  0  0  0  0 
 22 24  2  0  0  0  0 
  6 24  1  0  0  0  0 
 17 25  1  0  0  0  0 
M  CHG  1  17   1
M  CHG  1  25  -1
M  END
> <Rank>
4

> <Priority_score>
0.612

> <Reaction_type>
N-oxidation

> <Parent_ID>
67

> <Parent_InChI>
InChI=1S/C8H10N4O2/c1-10-4-9-6-5(10)7(13)12(3)8(14)11(6)2/h4H,1-3H3

> <Parent_SMILES>
Cn1c(=O)c2c(ncn2C)n(C)c1=O

$$$$
Molecule 67_metabolite 5
  CDK     0516241031

 25 26  0  0  0  0  0  0  0  0999 V2000
    2.1853    2.6360    0.0000 C   0  0  0  0  0  0  0  0  0  0  0  0
    3.6529    2.9461    0.0000 H   0  0  0  0  0  0  0  0  0  0  0  0
    2.1348    4.1352    0.0000 H   0  0  0  0  0  0  0  0  0  0  0  0
    0.7001    2.8466    0.0000 H   0  0  0  0  0  0  0  0  0  0  0  0
    1.7200    1.2100    0.0000 N   0  0  0  0  0  0  0  0  0  0  0  0
    0.2900    0.7500    0.0000 C   0  0  0  0  0  0  0  0  0  0  0  0
    0.2900   -0.7500    0.0000 C   0  0  0  0  0  0  0  0  0  0  0  0
    1.7200   -1.2100    0.0000 N   0  0  0  0  0  0  0  0  0  0  0  0
    2.1853   -2.6360    0.0000 H   0  0  0  0  0  0  0  0  0  0  0  0
    2.6000    0.0000    0.0000 C   0  0  0  0  0  0  0  0  0  0  0  0
    4.1000   -0.0000    0.0000 O   0  0  0  0  0  0  0  0  0  0  0  0
   -1.0100   -1.5000    0.0000 N   0  0  0  0  0  0  0  0  0  0  0  0
   -1.0100   -3.0000    0.0000 C   0  0  0  0  0  0  0  0  0  0  0  0
   -2.3090   -3.7500    0.0000 H   0  0  0  0  0  0  0  0  0  0  0  0
   -0.4970   -4.4095    0.0000 H   0  0  0  0  0  0  0  0  0  0  0  0
    0.4672   -2.7395    0.0000 H   0  0  0  0  0  0  0  0  0  0  0  0
   -2.3100   -0.7500    0.0000 C   0  0  0  0  0  0  0  0  0  0  0  0
   -3.6089   -1.5002    0.0000 O   0  0  0  0  0  0  0  0  0  0  0  0
   -2.3100    0.7500    0.0000 N   0  0  0  0  0  0  0  0  0  0  0  0
   -3.6089    1.5002    0.0000 C   0  0  0  0  0  0  0  0  0  0  0  0
   -4.9081    0.7504    0.0000 H   0  0  0  0  0  0  0  0  0  0  0  0
   -2.6446    2.6491    0.0000 H   0  0  0  0  0  0  0  0  0  0  0  0
   -4.5729    2.6494    0.0000 H   0  0  0  0  0  0  0  0  0  0  0  0
   -1.0100    1.5000    0.0000 C   0  0  0  0  0  0  0  0  0  0  0  0
   -1.0100    3.0000    0.0000 O   0  0  0  0  0  0  0  0  0  0  0  0
  1  2  1  0  0  0  0 
  1  3  1  0  0  0  0 
  1  4  1  0  0  0  0 
  1  5  1  0  0  0  0 
  5  6  1  0  0  0  0 
  6  7  2  0  0  0  0 
  7  8  1  0  0  0  0 
  8  9  1  0  0  0  0 
  8 10  1  0  0  0  0 
  5 10  1  0  0  0  0 
 10 11  2  0  0  0  0 
  7 12  1  0  0  0  0 
 12 13  1  0  0  0  0 
 13 14  1  0  0  0  0 
 13 15  1  0  0  0  0 
 13 16  1  0  0  0  0 
 12 17  1  0  0  0  0 
 17 18  2  0  0  0  0 
 17 19  1  0  0  0  0 
 19 20  1  0  0  0  0 
 20 21  1  0  0  0  0 
 20 22  1  0  0  0  0 
 20 23  1  0  0  0  0 
 19 24  1  0  0  0  0 
  6 24  1  0  0  0  0 
 24 25  2  0  0  0  0 
M  END
> <Rank>
4

> <Priority_score>
0.612

> <Reaction_type>
aromatic_oxidation_(nitrogen_containing_5ring)

> <Parent_ID>
67

> <Parent_InChI>
InChI=1S/C8H10N4O2/c1-10-4-9-6-5(10)7(13)12(3)8(14)11(6)2/h4H,1-3H3

> <Parent_SMILES>
Cn1c(=O)c2c(ncn2C)n(C)c1=O

$$$$
Molecule 67_metabolite 6
  CDK     0516241031

 25 26  0  0  0  0  0  0  0  0999 V2000
    2.1853    2.6360    0.0000 C   0  0  0  0  0  0  0  0  0  0  0  0
    3.6529    2.9461    0.0000 H   0  0  0  0  0  0  0  0  0  0  0  0
    2.1348    4.1352    0.0000 H   0  0  0  0  0  0  0  0  0  0  0  0
    0.7001    2.8466    0.0000 H   0  0  0  0  0  0  0  0  0  0  0  0
    1.7200    1.2100    0.0000 N   0  0  0  0  0  0  0  0  0  0  0  0
    2.6000    0.0000    0.0000 C   0  0  0  0  0  0  0  0  0  0  0  0
    4.1000   -0.0000    0.0000 H   0  0  0  0  0  0  0  0  0  0  0  0
    1.7200   -1.2100    0.0000 N   0  0  0  0  0  0  0  0  0  0  0  0
    0.2900   -0.7500    0.0000 C   0  0  0  0  0  0  0  0  0  0  0  0
    0.2900    0.7500    0.0000 C   0  0  0  0  0  0  0  0  0  0  0  0
   -1.0100    1.5000    0.0000 C   0  0  0  0  0  0  0  0  0  0  0  0
   -1.0100    3.0000    0.0000 O   0  0  0  0  0  0  0  0  0  0  0  0
   -2.3100    0.7500    0.0000 N   0  0  0  0  0  0  0  0  0  0  0  0
   -3.6089    1.5002    0.0000 C   0  0  0  0  0  0  0  0  0  0  0  0
   -4.9081    0.7504    0.0000 H   0  0  0  0  0  0  0  0  0  0  0  0
   -2.6446    2.6491    0.0000 H   0  0  0  0  0  0  0  0  0  0  0  0
   -4.5729    2.6494    0.0000 H   0  0  0  0  0  0  0  0  0  0  0  0
   -2.3100   -0.7500    0.0000 C   0  0  0  0  0  0  0  0  0  0  0  0
   -3.6089   -1.5002    0.0000 O   0  0  0  0  0  0  0  0  0  0  0  0
   -1.0100   -1.5000    0.0000 N   0  0  0  0  0  0  0  0  0  0  0  0
   -1.0100   -3.0000    0.0000 C   0  0  0  0  0  0  0  0  0  0  0  0
   -2.3090   -3.7500    0.0000 H   0  0  0  0  0  0  0  0  0  0  0  0
   -0.4970   -4.4095    0.0000 H   0  0  0  0  0  0  0  0  0  0  0  0
    0.4672   -2.7395    0.0000 H   0  0  0  0  0  0  0  0  0  0  0  0
    2.1853   -2.6360    0.0000 O   0  0  0  0  0  0  0  0  0  0  0  0
  1  2  1  0  0  0  0 
  1  3  1  0  0  0  0 
  1  4  1  0  0  0  0 
  1  5  1  0  0  0  0 
  5  6  1  0  0  0  0 
  6  7  1  0  0  0  0 
  6  8  2  0  0  0  0 
  8  9  1  0  0  0  0 
  9 10  2  0  0  0  0 
  5 10  1  0  0  0  0 
 10 11  1  0  0  0  0 
 11 12  2  0  0  0  0 
 11 13  1  0  0  0  0 
 13 14  1  0  0  0  0 
 14 15  1  0  0  0  0 
 14 16  1  0  0  0  0 
 14 17  1  0  0  0  0 
 13 18  1  0  0  0  0 
 18 19  2  0  0  0  0 
 18 20  1  0  0  0  0 
  9 20  1  0  0  0  0 
 20 21  1  0  0  0  0 
 21 22  1  0  0  0  0 
 21 23  1  0  0  0  0 
 21 24  1  0  0  0  0 
  8 25  1  0  0  0  0 
M  CHG  1   8   1
M  CHG  1  25  -1
M  END
> <Rank>
4

> <Priority_score>
0.612

> <Reaction_type>
N-oxidation_(-N=)

> <Parent_ID>
67

> <Parent_InChI>
InChI=1S/C8H10N4O2/c1-10-4-9-6-5(10)7(13)12(3)8(14)11(6)2/h4H,1-3H3

> <Parent_SMILES>
Cn1c(=O)c2c(ncn2C)n(C)c1=O

$$$$
Molecule 67_metabolite 7
  CDK     0516241031

 25 26  0  0  0  0  0  0  0  0999 V2000
    2.6838    2.4465    0.0000 C   0  0  0  0  0  0  0  0  0  0  0  0
    4.1511    2.7581    0.0000 H   0  0  0  0  0  0  0  0  0  0  0  0
    2.6318    3.9456    0.0000 H   0  0  0  0  0  0  0  0  0  0  0  0
    1.1985    2.6556    0.0000 H   0  0  0  0  0  0  0  0  0  0  0  0
    2.2200    1.0200    0.0000 N   0  0  0  0  0  0  0  0  0  0  0  0
    3.1000   -0.1900    0.0000 C   0  0  0  0  0  0  0  0  0  0  0  0
    4.6000   -0.1900    0.0000 H   0  0  0  0  0  0  0  0  0  0  0  0
    2.2200   -1.4000    0.0000 N   0  0  0  0  0  0  0  0  0  0  0  0
    0.8000   -0.9400    0.0000 C   0  0  0  0  0  0  0  0  0  0  0  0
    0.8000    0.5600    0.0000 C   0  0  0  0  0  0  0  0  0  0  0  0
   -0.5000    1.3100    0.0000 C   0  0  0  0  0  0  0  0  0  0  0  0
   -0.5000    2.8100    0.0000 O   0  0  0  0  0  0  0  0  0  0  0  0
   -1.8000    0.5600    0.0000 N   0  0  0  0  0  0  0  0  0  0  0  0
   -3.0989    1.3102    0.0000 C   0  0  0  0  0  0  0  0  0  0  0  0
   -4.3981    0.5604    0.0000 H   0  0  0  0  0  0  0  0  0  0  0  0
   -2.1346    2.4591    0.0000 H   0  0  0  0  0  0  0  0  0  0  0  0
   -4.0629    2.4594    0.0000 H   0  0  0  0  0  0  0  0  0  0  0  0
   -1.8000   -0.9400    0.0000 C   0  0  0  0  0  0  0  0  0  0  0  0
   -3.0989   -1.6902    0.0000 O   0  0  0  0  0  0  0  0  0  0  0  0
   -0.5000   -1.6900    0.0000 N   0  0  0  0  0  0  0  0  0  0  0  0
   -0.5000   -3.1900    0.0000 C   0  0  0  0  0  0  0  0  0  0  0  0
    0.0130   -4.5995    0.0000 H   0  0  0  0  0  0  0  0  0  0  0  0
    0.9772   -2.9295    0.0000 H   0  0  0  0  0  0  0  0  0  0  0  0
   -1.7990   -3.9400    0.0000 O   0  0  0  0  0  0  0  0  0  0  0  0
   -1.7990   -5.4400    0.0000 H   0  0  0  0  0  0  0  0  0  0  0  0
  1  2  1  0  0  0  0 
  1  3  1  0  0  0  0 
  1  4  1  0  0  0  0 
  1  5  1  0  0  0  0 
  5  6  1  0  0  0  0 
  6  7  1  0  0  0  0 
  6  8  2  0  0  0  0 
  8  9  1  0  0  0  0 
  9 10  2  0  0  0  0 
  5 10  1  0  0  0  0 
 10 11  1  0  0  0  0 
 11 12  2  0  0  0  0 
 11 13  1  0  0  0  0 
 13 14  1  0  0  0  0 
 14 15  1  0  0  0  0 
 14 16  1  0  0  0  0 
 14 17  1  0  0  0  0 
 13 18  1  0  0  0  0 
 18 19  2  0  0  0  0 
 18 20  1  0  0  0  0 
  9 20  1  0  0  0  0 
 20 21  1  0  0  0  0 
 21 22  1  0  0  0  0 
 21 23  1  0  0  0  0 
 21 24  1  0  0  0  0 
 24 25  1  0  0  0  0 
M  END
> <Rank>
7

> <Priority_score>
0.591765871786931

> <Reaction_type>
aliphatic hydroxylation

> <Parent_ID>
67

> <Parent_InChI>
InChI=1S/C8H10N4O2/c1-10-4-9-6-5(10)7(13)12(3)8(14)11(6)2/h4H,1-3H3

> <Parent_SMILES>
Cn1c(=O)c2c(ncn2C)n(C)c1=O

$$$$
Molecule 67_metabolite 8
  CDK     0516241031

 25 26  0  0  0  0  0  0  0  0999 V2000
    2.1853    2.6360    0.0000 C   0  0  0  0  0  0  0  0  0  0  0  0
    3.6529    2.9461    0.0000 H   0  0  0  0  0  0  0  0  0  0  0  0
    2.1348    4.1352    0.0000 H   0  0  0  0  0  0  0  0  0  0  0  0
    0.7001    2.8466    0.0000 H   0  0  0  0  0  0  0  0  0  0  0  0
    1.7200    1.2100    0.0000 N   0  0  0  0  0  0  0  0  0  0  0  0
    2.6000    0.0000    0.0000 C   0  0  0  0  0  0  0  0  0  0  0  0
    4.1000   -0.0000    0.0000 H   0  0  0  0  0  0  0  0  0  0  0  0
    1.7200   -1.2100    0.0000 N   0  0  0  0  0  0  0  0  0  0  0  0
    0.2900   -0.7500    0.0000 C   0  0  0  0  0  0  0  0  0  0  0  0
    0.2900    0.7500    0.0000 C   0  0  0  0  0  0  0  0  0  0  0  0
   -1.0100    1.5000    0.0000 C   0  0  0  0  0  0  0  0  0  0  0  0
   -1.0100    3.0000    0.0000 O   0  0  0  0  0  0  0  0  0  0  0  0
   -2.3100    0.7500    0.0000 N   0  0  0  0  0  0  0  0  0  0  0  0
   -3.6089    1.5002    0.0000 C   0  0  0  0  0  0  0  0  0  0  0  0
   -4.9081    0.7504    0.0000 H   0  0  0  0  0  0  0  0  0  0  0  0
   -2.6446    2.6491    0.0000 H   0  0  0  0  0  0  0  0  0  0  0  0
   -4.5729    2.6494    0.0000 H   0  0  0  0  0  0  0  0  0  0  0  0
   -2.3100   -0.7500    0.0000 C   0  0  0  0  0  0  0  0  0  0  0  0
   -3.6089   -1.5002    0.0000 O   0  0  0  0  0  0  0  0  0  0  0  0
   -1.0100   -1.5000    0.0000 N   0  0  0  0  0  0  0  0  0  0  0  0
   -1.9741   -2.6492    0.0000 C   0  0  0  0  0  0  0  0  0  0  0  0
   -3.4513   -2.3889    0.0000 H   0  0  0  0  0  0  0  0  0  0  0  0
   -0.6749   -3.3990    0.0000 H   0  0  0  0  0  0  0  0  0  0  0  0
   -2.4869   -4.0588    0.0000 H   0  0  0  0  0  0  0  0  0  0  0  0
   -0.0459   -2.6492    0.0000 O   0  0  0  0  0  0  0  0  0  0  0  0
  1  2  1  0  0  0  0 
  1  3  1  0  0  0  0 
  1  4  1  0  0  0  0 
  1  5  1  0  0  0  0 
  5  6  1  0  0  0  0 
  6  7  1  0  0  0  0 
  6  8  2  0  0  0  0 
  8  9  1  0  0  0  0 
  9 10  2  0  0  0  0 
  5 10  1  0  0  0  0 
 10 11  1  0  0  0  0 
 11 12  2  0  0  0  0 
 11 13  1  0  0  0  0 
 13 14  1  0  0  0  0 
 14 15  1  0  0  0  0 
 14 16  1  0  0  0  0 
 14 17  1  0  0  0  0 
 13 18  1  0  0  0  0 
 18 19  2  0  0  0  0 
 18 20  1  0  0  0  0 
  9 20  1  0  0  0  0 
 20 21  1  0  0  0  0 
 21 22  1  0  0  0  0 
 21 23  1  0  0  0  0 
 21 24  1  0  0  0  0 
 20 25  1  0  0  0  0 
M  CHG  1  20   1
M  CHG  1  25  -1
M  END
> <Rank>
7

> <Priority_score>
0.591765871786931

> <Reaction_type>
N-oxidation

> <Parent_ID>
67

> <Parent_InChI>
InChI=1S/C8H10N4O2/c1-10-4-9-6-5(10)7(13)12(3)8(14)11(6)2/h4H,1-3H3

> <Parent_SMILES>
Cn1c(=O)c2c(ncn2C)n(C)c1=O

$$$$
Molecule 67_metabolite 9
  CDK     0516241031

 21 22  0  0  0  0  0  0  0  0999 V2000
    2.1853    2.6360    0.0000 C   0  0  0  0  0  0  0  0  0  0  0  0
    3.6529    2.9461    0.0000 H   0  0  0  0  0  0  0  0  0  0  0  0
    2.1348    4.1352    0.0000 H   0  0  0  0  0  0  0  0  0  0  0  0
    0.7001    2.8466    0.0000 H   0  0  0  0  0  0  0  0  0  0  0  0
    1.7200    1.2100    0.0000 N   0  0  0  0  0  0  0  0  0  0  0  0
    2.6000    0.0000    0.0000 C   0  0  0  0  0  0  0  0  0  0  0  0
    4.1000   -0.0000    0.0000 H   0  0  0  0  0  0  0  0  0  0  0  0
    1.7200   -1.2100    0.0000 N   0  0  0  0  0  0  0  0  0  0  0  0
    0.2900   -0.7500    0.0000 C   0  0  0  0  0  0  0  0  0  0  0  0
    0.2900    0.7500    0.0000 C   0  0  0  0  0  0  0  0  0  0  0  0
   -1.0100    1.5000    0.0000 C   0  0  0  0  0  0  0  0  0  0  0  0
   -1.0100    3.0000    0.0000 O   0  0  0  0  0  0  0  0  0  0  0  0
   -2.3100    0.7500    0.0000 N   0  0  0  0  0  0  0  0  0  0  0  0
   -3.6089    1.5002    0.0000 C   0  0  0  0  0  0  0  0  0  0  0  0
   -4.9081    0.7504    0.0000 H   0  0  0  0  0  0  0  0  0  0  0  0
   -2.6446    2.6491    0.0000 H   0  0  0  0  0  0  0  0  0  0  0  0
   -4.5729    2.6494    0.0000 H   0  0  0  0  0  0  0  0  0  0  0  0
   -2.3100   -0.7500    0.0000 C   0  0  0  0  0  0  0  0  0  0  0  0
   -3.6089   -1.5002    0.0000 O   0  0  0  0  0  0  0  0  0  0  0  0
   -1.0100   -1.5000    0.0000 N   0  0  0  0  0  0  0  0  0  0  0  0
   -1.0100   -3.0000    0.0000 H   0  0  0  0  0  0  0  0  0  0  0  0
  1  2  1  0  0  0  0 
  1  3  1  0  0  0  0 
  1  4  1  0  0  0  0 
  1  5  1  0  0  0  0 
  5  6  1  0  0  0  0 
  6  7  1  0  0  0  0 
  6  8  2  0  0  0  0 
  8  9  1  0  0  0  0 
  9 10  2  0  0  0  0 
  5 10  1  0  0  0  0 
 10 11  1  0  0  0  0 
 11 12  2  0  0  0  0 
 11 13  1  0  0  0  0 
 13 14  1  0  0  0  0 
 14 15  1  0  0  0  0 
 14 16  1  0  0  0  0 
 14 17  1  0  0  0  0 
 13 18  1  0  0  0  0 
 18 19  2  0  0  0  0 
 18 20  1  0  0  0  0 
  9 20  1  0  0  0  0 
 20 21  1  0  0  0  0 
M  END
> <Rank>
7

> <Priority_score>
0.591765871786931

> <Reaction_type>
N-demethylation_(nCH3)

> <Parent_ID>
67

> <Parent_InChI>
InChI=1S/C8H10N4O2/c1-10-4-9-6-5(10)7(13)12(3)8(14)11(6)2/h4H,1-3H3

> <Parent_SMILES>
Cn1c(=O)c2c(ncn2C)n(C)c1=O

$$$$
Molecule 67_metabolite 10
  CDK     0516241031

 25 26  0  0  0  0  0  0  0  0999 V2000
   -0.5000   -3.1900    0.0000 C   0  0  0  0  0  0  0  0  0  0  0  0
   -1.7990   -3.9400    0.0000 H   0  0  0  0  0  0  0  0  0  0  0  0
    0.0130   -4.5995    0.0000 H   0  0  0  0  0  0  0  0  0  0  0  0
    0.9772   -2.9295    0.0000 H   0  0  0  0  0  0  0  0  0  0  0  0
   -0.5000   -1.6900    0.0000 N   0  0  0  0  0  0  0  0  0  0  0  0
    0.8000   -0.9400    0.0000 C   0  0  0  0  0  0  0  0  0  0  0  0
    0.8000    0.5600    0.0000 C   0  0  0  0  0  0  0  0  0  0  0  0
   -0.5000    1.3100    0.0000 C   0  0  0  0  0  0  0  0  0  0  0  0
   -0.5000    2.8100    0.0000 O   0  0  0  0  0  0  0  0  0  0  0  0
   -1.8000    0.5600    0.0000 N   0  0  0  0  0  0  0  0  0  0  0  0
   -3.0989    1.3102    0.0000 C   0  0  0  0  0  0  0  0  0  0  0  0
   -3.0987    2.8102    0.0000 H   0  0  0  0  0  0  0  0  0  0  0  0
   -4.5761    1.5709    0.0000 H   0  0  0  0  0  0  0  0  0  0  0  0
   -3.6122   -0.0992    0.0000 H   0  0  0  0  0  0  0  0  0  0  0  0
   -1.8000   -0.9400    0.0000 C   0  0  0  0  0  0  0  0  0  0  0  0
   -3.0989   -1.6902    0.0000 O   0  0  0  0  0  0  0  0  0  0  0  0
    2.2200    1.0200    0.0000 N   0  0  0  0  0  0  0  0  0  0  0  0
    3.1000   -0.1900    0.0000 C   0  0  0  0  0  0  0  0  0  0  0  0
    4.6000   -0.1900    0.0000 H   0  0  0  0  0  0  0  0  0  0  0  0
    2.2200   -1.4000    0.0000 N   0  0  0  0  0  0  0  0  0  0  0  0
    2.6838    2.4465    0.0000 C   0  0  0  0  0  0  0  0  0  0  0  0
    2.6318    3.9456    0.0000 H   0  0  0  0  0  0  0  0  0  0  0  0
    1.1985    2.6556    0.0000 H   0  0  0  0  0  0  0  0  0  0  0  0
    4.1511    2.7581    0.0000 O   0  0  0  0  0  0  0  0  0  0  0  0
    4.6149    4.1846    0.0000 H   0  0  0  0  0  0  0  0  0  0  0  0
  1  2  1  0  0  0  0 
  1  3  1  0  0  0  0 
  1  4  1  0  0  0  0 
  1  5  1  0  0  0  0 
  5  6  1  0  0  0  0 
  6  7  2  0  0  0  0 
  7  8  1  0  0  0  0 
  8  9  2  0  0  0  0 
  8 10  1  0  0  0  0 
 10 11  1  0  0  0  0 
 11 12  1  0  0  0  0 
 11 13  1  0  0  0  0 
 11 14  1  0  0  0  0 
 10 15  1  0  0  0  0 
  5 15  1  0  0  0  0 
 15 16  2  0  0  0  0 
  7 17  1  0  0  0  0 
 17 18  1  0  0  0  0 
 18 19  1  0  0  0  0 
 18 20  2  0  0  0  0 
  6 20  1  0  0  0  0 
 17 21  1  0  0  0  0 
 21 22  1  0  0  0  0 
 21 23  1  0  0  0  0 
 21 24  1  0  0  0  0 
 24 25  1  0  0  0  0 
M  END
> <Rank>
10

> <Priority_score>
0.52

> <Reaction_type>
aliphatic hydroxylation

> <Parent_ID>
67

> <Parent_InChI>
InChI=1S/C8H10N4O2/c1-10-4-9-6-5(10)7(13)12(3)8(14)11(6)2/h4H,1-3H3

> <Parent_SMILES>
Cn1c(=O)c2c(ncn2C)n(C)c1=O

$$$$
Molecule 67_metabolite 11
  CDK     0516241031

 21 22  0  0  0  0  0  0  0  0999 V2000
   -0.3000   -3.0000    0.0000 C   0  0  0  0  0  0  0  0  0  0  0  0
   -1.5990   -3.7500    0.0000 H   0  0  0  0  0  0  0  0  0  0  0  0
    0.2130   -4.4095    0.0000 H   0  0  0  0  0  0  0  0  0  0  0  0
    1.1772   -2.7395    0.0000 H   0  0  0  0  0  0  0  0  0  0  0  0
   -0.3000   -1.5000    0.0000 N   0  0  0  0  0  0  0  0  0  0  0  0
    1.0000   -0.7500    0.0000 C   0  0  0  0  0  0  0  0  0  0  0  0
    1.0000    0.7500    0.0000 C   0  0  0  0  0  0  0  0  0  0  0  0
   -0.3000    1.5000    0.0000 C   0  0  0  0  0  0  0  0  0  0  0  0
   -0.3000    3.0000    0.0000 O   0  0  0  0  0  0  0  0  0  0  0  0
   -1.6000    0.7500    0.0000 N   0  0  0  0  0  0  0  0  0  0  0  0
   -2.8989    1.5002    0.0000 C   0  0  0  0  0  0  0  0  0  0  0  0
   -2.8987    3.0002    0.0000 H   0  0  0  0  0  0  0  0  0  0  0  0
   -4.3761    1.7609    0.0000 H   0  0  0  0  0  0  0  0  0  0  0  0
   -3.4122    0.0908    0.0000 H   0  0  0  0  0  0  0  0  0  0  0  0
   -1.6000   -0.7500    0.0000 C   0  0  0  0  0  0  0  0  0  0  0  0
   -2.8989   -1.5002    0.0000 O   0  0  0  0  0  0  0  0  0  0  0  0
    2.4300    1.2100    0.0000 N   0  0  0  0  0  0  0  0  0  0  0  0
    2.8953    2.6360    0.0000 H   0  0  0  0  0  0  0  0  0  0  0  0
    3.3100    0.0000    0.0000 C   0  0  0  0  0  0  0  0  0  0  0  0
    4.8100   -0.0000    0.0000 H   0  0  0  0  0  0  0  0  0  0  0  0
    2.4300   -1.2100    0.0000 N   0  0  0  0  0  0  0  0  0  0  0  0
  1  2  1  0  0  0  0 
  1  3  1  0  0  0  0 
  1  4  1  0  0  0  0 
  1  5  1  0  0  0  0 
  5  6  1  0  0  0  0 
  6  7  2  0  0  0  0 
  7  8  1  0  0  0  0 
  8  9  2  0  0  0  0 
  8 10  1  0  0  0  0 
 10 11  1  0  0  0  0 
 11 12  1  0  0  0  0 
 11 13  1  0  0  0  0 
 11 14  1  0  0  0  0 
 10 15  1  0  0  0  0 
  5 15  1  0  0  0  0 
 15 16  2  0  0  0  0 
  7 17  1  0  0  0  0 
 17 18  1  0  0  0  0 
 17 19  1  0  0  0  0 
 19 20  1  0  0  0  0 
 19 21  2  0  0  0  0 
  6 21  1  0  0  0  0 
M  END
> <Rank>
10

> <Priority_score>
0.52

> <Reaction_type>
N-demethylation_(nCH3)

> <Parent_ID>
67

> <Parent_InChI>
InChI=1S/C8H10N4O2/c1-10-4-9-6-5(10)7(13)12(3)8(14)11(6)2/h4H,1-3H3

> <Parent_SMILES>
Cn1c(=O)c2c(ncn2C)n(C)c1=O

$$$$
Molecule 67_metabolite 12
  CDK     0516241031

 45 47  0  0  0  0  0  0  0  0999 V2000
    1.8271    1.7453    0.0000 C   0  0  0  0  0  0  0  0  0  0  0  0
    3.2947    2.0554    0.0000 H   0  0  0  0  0  0  0  0  0  0  0  0
    1.7766    3.2445    0.0000 H   0  0  0  0  0  0  0  0  0  0  0  0
    0.3420    1.9559    0.0000 H   0  0  0  0  0  0  0  0  0  0  0  0
    1.3619    0.3193    0.0000 N   0  0  0  0  0  0  0  0  0  0  0  0
    2.2419   -0.8907    0.0000 C   0  0  0  0  0  0  0  0  0  0  0  0
    3.7419   -0.8907    0.0000 H   0  0  0  0  0  0  0  0  0  0  0  0
    1.3619   -2.1007    0.0000 N   0  0  0  0  0  0  0  0  0  0  0  0
   -0.0681   -1.6407    0.0000 C   0  0  0  0  0  0  0  0  0  0  0  0
   -0.0681   -0.1407    0.0000 C   0  0  0  0  0  0  0  0  0  0  0  0
   -1.3681    0.6093    0.0000 C   0  0  0  0  0  0  0  0  0  0  0  0
   -1.3681    2.1093    0.0000 O   0  0  0  0  0  0  0  0  0  0  0  0
   -2.6681   -0.1407    0.0000 N   0  0  0  0  0  0  0  0  0  0  0  0
   -3.9671    0.6095    0.0000 C   0  0  0  0  0  0  0  0  0  0  0  0
   -5.2662   -0.1403    0.0000 H   0  0  0  0  0  0  0  0  0  0  0  0
   -3.0027    1.7584    0.0000 H   0  0  0  0  0  0  0  0  0  0  0  0
   -4.9311    1.7587    0.0000 H   0  0  0  0  0  0  0  0  0  0  0  0
   -2.6681   -1.6407    0.0000 C   0  0  0  0  0  0  0  0  0  0  0  0
   -3.9671   -2.3909    0.0000 O   0  0  0  0  0  0  0  0  0  0  0  0
   -1.3681   -2.3907    0.0000 N   0  0  0  0  0  0  0  0  0  0  0  0
   -1.6286   -3.8679    0.0000 C   0  0  0  0  0  0  0  0  0  0  0  0
   -0.4796   -4.8321    0.0000 H   0  0  0  0  0  0  0  0  0  0  0  0
   -2.3786   -5.1669    0.0000 H   0  0  0  0  0  0  0  0  0  0  0  0
   -3.0382   -3.3549    0.0000 H   0  0  0  0  0  0  0  0  0  0  0  0
    2.2936   -3.8478    0.0000 C   0  0  0  0  0  0  0  0  0  0  0  0
    0.8676   -4.3132    0.0000 H   0  0  0  0  0  0  0  0  0  0  0  0
    2.5045   -5.3329    0.0000 C   0  0  0  0  0  0  0  0  0  0  0  0
    1.0053   -5.2829    0.0000 H   0  0  0  0  0  0  0  0  0  0  0  0
    3.8970   -5.8927    0.0000 C   0  0  0  0  0  0  0  0  0  0  0  0
    3.1041   -7.1660    0.0000 H   0  0  0  0  0  0  0  0  0  0  0  0
    5.0786   -4.9673    0.0000 C   0  0  0  0  0  0  0  0  0  0  0  0
    5.7845   -6.2909    0.0000 H   0  0  0  0  0  0  0  0  0  0  0  0
    4.8677   -3.4822    0.0000 C   0  0  0  0  0  0  0  0  0  0  0  0
    6.3669   -3.5322    0.0000 H   0  0  0  0  0  0  0  0  0  0  0  0
    5.3752   -1.0751    0.0000 C   0  0  0  0  0  0  0  0  0  0  0  0
    4.2588   -0.0733    0.0000 O   0  0  0  0  0  0  0  0  0  0  0  0
    6.8010   -0.6092    0.0000 O   0  0  0  0  0  0  0  0  0  0  0  0
    7.9174   -1.6111    0.0000 H   0  0  0  0  0  0  0  0  0  0  0  0
    3.4752   -2.9225    0.0000 O   0  0  0  0  0  0  0  0  0  0  0  0
    6.5046   -4.5019    0.0000 O   0  0  0  0  0  0  0  0  0  0  0  0
    7.6206   -5.5041    0.0000 H   0  0  0  0  0  0  0  0  0  0  0  0
    5.0130   -6.8949    0.0000 O   0  0  0  0  0  0  0  0  0  0  0  0
    4.7031   -8.3625    0.0000 H   0  0  0  0  0  0  0  0  0  0  0  0
    2.1950   -6.8006    0.0000 O   0  0  0  0  0  0  0  0  0  0  0  0
    0.7692   -7.2665    0.0000 H   0  0  0  0  0  0  0  0  0  0  0  0
  1  2  1  0  0  0  0 
  1  3  1  0  0  0  0 
  1  4  1  0  0  0  0 
  1  5  1  0  0  0  0 
  5  6  1  0  0  0  0 
  6  7  1  0  0  0  0 
  6  8  2  0  0  0  0 
  8  9  1  0  0  0  0 
  9 10  2  0  0  0  0 
  5 10  1  0  0  0  0 
 10 11  1  0  0  0  0 
 11 12  2  0  0  0  0 
 11 13  1  0  0  0  0 
 13 14  1  0  0  0  0 
 14 15  1  0  0  0  0 
 14 16  1  0  0  0  0 
 14 17  1  0  0  0  0 
 13 18  1  0  0  0  0 
 18 19  2  0  0  0  0 
 18 20  1  0  0  0  0 
  9 20  1  0  0  0  0 
 20 21  1  0  0  0  0 
 21 22  1  0  0  0  0 
 21 23  1  0  0  0  0 
 21 24  1  0  0  0  0 
  8 25  1  0  0  0  0 
 25 26  1  0  0  0  0 
 25 27  1  0  0  0  0 
 27 28  1  0  0  0  0 
 27 29  1  0  0  0  0 
 29 30  1  0  0  0  0 
 29 31  1  0  0  0  0 
 31 32  1  0  0  0  0 
 31 33  1  0  0  0  0 
 33 34  1  0  0  0  0 
 33 35  1  0  0  0  0 
 35 36  2  0  0  0  0 
 35 37  1  0  0  0  0 
 37 38  1  0  0  0  0 
 33 39  1  0  0  0  0 
 25 39  1  0  0  0  0 
 31 40  1  0  0  0  0 
 40 41  1  0  0  0  0 
 29 42  1  0  0  0  0 
 42 43  1  0  0  0  0 
 27 44  1  0  0  0  0 
 44 45  1  0  0  0  0 
M  CHG  1   8   1
M  END
> <Rank>
12

> <Priority_score>
0.144

> <Reaction_type>
N-glucuronidation_(aromatic_=n-)

> <Parent_ID>
67

> <Parent_InChI>
InChI=1S/C8H10N4O2/c1-10-4-9-6-5(10)7(13)12(3)8(14)11(6)2/h4H,1-3H3

> <Parent_SMILES>
Cn1c(=O)c2c(ncn2C)n(C)c1=O

$$$$
Molecule 68
  CDK     0516241031

 16 17  0  0  0  0  0  0  0  0999 V2000
    1.3000   -3.0000    0.0000 C   0  0  0  0  0  0  0  0  0  0  0  0
    1.3000   -1.5000    0.0000 N   0  0  0  0  0  0  0  0  0  0  0  0
    2.6000   -0.7500    0.0000 C   0  0  0  0  0  0  0  0  0  0  0  0
    2.6000    0.7500    0.0000 C   0  0  0  0  0  0  0  0  0  0  0  0
    1.3000    1.5000    0.0000 C   0  0  0  0  0  0  0  0  0  0  0  0
    1.3000    3.0000    0.0000 O   0  0  0  0  0  0  0  0  0  0  0  0
   -0.0000    0.7500    0.0000 C   0  0  0  0  0  0  0  0  0  0  0  0
   -1.3000    1.5000    0.0000 C   0  0  0  0  0  0  0  0  0  0  0  0
   -2.6000    0.7500    0.0000 C   0  0  0  0  0  0  0  0  0  0  0  0
   -2.6000   -0.7500    0.0000 C   0  0  0  0  0  0  0  0  0  0  0  0
   -1.3000   -1.5000    0.0000 C   0  0  0  0  0  0  0  0  0  0  0  0
   -0.0000   -0.7500    0.0000 C   0  0  0  0  0  0  0  0  0  0  0  0
   -3.8989   -1.5002    0.0000 F   0  0  0  0  0  0  0  0  0  0  0  0
    3.8989    1.5002    0.0000 S   0  0  0  0  0  0  0  0  0  0  0  0
    3.8987    3.0002    0.0000 O   0  0  0  0  0  0  0  0  0  0  0  0
    5.1981    0.7504    0.0000 C   0  0  0  0  0  0  0  0  0  0  0  0
  1  2  1  0  0  0  0 
  2  3  1  0  0  0  0 
  3  4  2  0  0  0  0 
  4  5  1  0  0  0  0 
  5  6  2  0  0  0  0 
  5  7  1  0  0  0  0 
  7  8  2  0  0  0  0 
  8  9  1  0  0  0  0 
  9 10  2  0  0  0  0 
 10 11  1  0  0  0  0 
 11 12  2  0  0  0  0 
  7 12  1  0  0  0  0 
  2 12  1  0  0  0  0 
 10 13  1  0  0  0  0 
  4 14  1  0  0  0  0 
 14 15  2  0  0  0  0 
 14 16  1  0  0  0  0 
M  END
> <SMILES>
Cn1cc(S(C)=O)c(=O)c2ccc(F)cc21

$$$$
Molecule 68_metabolite 1
  CDK     0516241031

 23 24  0  0  0  0  0  0  0  0999 V2000
    5.1981    0.7504    0.0000 C   0  0  0  0  0  0  0  0  0  0  0  0
    6.4970    1.5006    0.0000 H   0  0  0  0  0  0  0  0  0  0  0  0
    4.2341   -0.3988    0.0000 H   0  0  0  0  0  0  0  0  0  0  0  0
    6.1624   -0.3985    0.0000 H   0  0  0  0  0  0  0  0  0  0  0  0
    3.8989    1.5002    0.0000 S   0  0  0  0  0  0  0  0  0  0  0  0
    3.8987    3.0002    0.0000 O   0  0  0  0  0  0  0  0  0  0  0  0
    2.6000    0.7500    0.0000 C   0  0  0  0  0  0  0  0  0  0  0  0
    2.6000   -0.7500    0.0000 C   0  0  0  0  0  0  0  0  0  0  0  0
    3.8989   -1.5002    0.0000 H   0  0  0  0  0  0  0  0  0  0  0  0
    1.3000   -1.5000    0.0000 N   0  0  0  0  0  0  0  0  0  0  0  0
    1.3000   -3.0000    0.0000 H   0  0  0  0  0  0  0  0  0  0  0  0
   -0.0000   -0.7500    0.0000 C   0  0  0  0  0  0  0  0  0  0  0  0
   -1.3000   -1.5000    0.0000 C   0  0  0  0  0  0  0  0  0  0  0  0
   -1.3000   -3.0000    0.0000 H   0  0  0  0  0  0  0  0  0  0  0  0
   -2.6000   -0.7500    0.0000 C   0  0  0  0  0  0  0  0  0  0  0  0
   -2.6000    0.7500    0.0000 C   0  0  0  0  0  0  0  0  0  0  0  0
   -3.8989    1.5002    0.0000 H   0  0  0  0  0  0  0  0  0  0  0  0
   -1.3000    1.5000    0.0000 C   0  0  0  0  0  0  0  0  0  0  0  0
   -1.3000    3.0000    0.0000 H   0  0  0  0  0  0  0  0  0  0  0  0
   -0.0000    0.7500    0.0000 C   0  0  0  0  0  0  0  0  0  0  0  0
    1.3000    1.5000    0.0000 C   0  0  0  0  0  0  0  0  0  0  0  0
    1.3000    3.0000    0.0000 O   0  0  0  0  0  0  0  0  0  0  0  0
   -3.8989   -1.5002    0.0000 F   0  0  0  0  0  0  0  0  0  0  0  0
  1  2  1  0  0  0  0 
  1  3  1  0  0  0  0 
  1  4  1  0  0  0  0 
  1  5  1  0  0  0  0 
  5  6  2  0  0  0  0 
  5  7  1  0  0  0  0 
  7  8  2  0  0  0  0 
  8  9  1  0  0  0  0 
  8 10  1  0  0  0  0 
 10 11  1  0  0  0  0 
 10 12  1  0  0  0  0 
 12 13  2  0  0  0  0 
 13 14  1  0  0  0  0 
 13 15  1  0  0  0  0 
 15 16  2  0  0  0  0 
 16 17  1  0  0  0  0 
 16 18  1  0  0  0  0 
 18 19  1  0  0  0  0 
 18 20  2  0  0  0  0 
 12 20  1  0  0  0  0 
 20 21  1  0  0  0  0 
  7 21  1  0  0  0  0 
 21 22  2  0  0  0  0 
 15 23  1  0  0  0  0 
M  END
> <Rank>
1

> <Priority_score>
0.3666070757993271

> <Reaction_type>
N-demethylation_(nCH3)

> <Parent_ID>
68

> <Parent_InChI>
InChI=1S/C11H10FNO2S/c1-13-6-10(16(2)15)11(14)8-4-3-7(12)5-9(8)13/h3-6H,1-2H3

> <Parent_SMILES>
Cn1cc(S(C)=O)c(=O)c2ccc(F)cc21

$$$$
Molecule 68_metabolite 2
  CDK     0516241031

 27 28  0  0  0  0  0  0  0  0999 V2000
    5.1981    0.7504    0.0000 C   0  0  0  0  0  0  0  0  0  0  0  0
    6.4970    1.5006    0.0000 H   0  0  0  0  0  0  0  0  0  0  0  0
    4.2341   -0.3988    0.0000 H   0  0  0  0  0  0  0  0  0  0  0  0
    6.1624   -0.3985    0.0000 H   0  0  0  0  0  0  0  0  0  0  0  0
    3.8989    1.5002    0.0000 S   0  0  0  0  0  0  0  0  0  0  0  0
    3.8987    3.0002    0.0000 O   0  0  0  0  0  0  0  0  0  0  0  0
    2.6000    0.7500    0.0000 C   0  0  0  0  0  0  0  0  0  0  0  0
    2.6000   -0.7500    0.0000 C   0  0  0  0  0  0  0  0  0  0  0  0
    3.8989   -1.5002    0.0000 H   0  0  0  0  0  0  0  0  0  0  0  0
    1.3000   -1.5000    0.0000 N   0  0  0  0  0  0  0  0  0  0  0  0
    1.3000   -3.0000    0.0000 C   0  0  0  0  0  0  0  0  0  0  0  0
   -0.1772   -2.7395    0.0000 H   0  0  0  0  0  0  0  0  0  0  0  0
    0.7870   -4.4095    0.0000 H   0  0  0  0  0  0  0  0  0  0  0  0
    2.5990   -3.7500    0.0000 O   0  0  0  0  0  0  0  0  0  0  0  0
    2.5990   -5.2500    0.0000 H   0  0  0  0  0  0  0  0  0  0  0  0
   -0.0000   -0.7500    0.0000 C   0  0  0  0  0  0  0  0  0  0  0  0
   -1.3000   -1.5000    0.0000 C   0  0  0  0  0  0  0  0  0  0  0  0
   -1.3000   -3.0000    0.0000 H   0  0  0  0  0  0  0  0  0  0  0  0
   -2.6000   -0.7500    0.0000 C   0  0  0  0  0  0  0  0  0  0  0  0
   -2.6000    0.7500    0.0000 C   0  0  0  0  0  0  0  0  0  0  0  0
   -3.8989    1.5002    0.0000 H   0  0  0  0  0  0  0  0  0  0  0  0
   -1.3000    1.5000    0.0000 C   0  0  0  0  0  0  0  0  0  0  0  0
   -1.3000    3.0000    0.0000 H   0  0  0  0  0  0  0  0  0  0  0  0
   -0.0000    0.7500    0.0000 C   0  0  0  0  0  0  0  0  0  0  0  0
    1.3000    1.5000    0.0000 C   0  0  0  0  0  0  0  0  0  0  0  0
    1.3000    3.0000    0.0000 O   0  0  0  0  0  0  0  0  0  0  0  0
   -3.8989   -1.5002    0.0000 F   0  0  0  0  0  0  0  0  0  0  0  0
  1  2  1  0  0  0  0 
  1  3  1  0  0  0  0 
  1  4  1  0  0  0  0 
  1  5  1  0  0  0  0 
  5  6  2  0  0  0  0 
  5  7  1  0  0  0  0 
  7  8  2  0  0  0  0 
  8  9  1  0  0  0  0 
  8 10  1  0  0  0  0 
 10 11  1  0  0  0  0 
 11 12  1  0  0  0  0 
 11 13  1  0  0  0  0 
 11 14  1  0  0  0  0 
 14 15  1  0  0  0  0 
 10 16  1  0  0  0  0 
 16 17  2  0  0  0  0 
 17 18  1  0  0  0  0 
 17 19  1  0  0  0  0 
 19 20  2  0  0  0  0 
 20 21  1  0  0  0  0 
 20 22  1  0  0  0  0 
 22 23  1  0  0  0  0 
 22 24  2  0  0  0  0 
 16 24  1  0  0  0  0 
 24 25  1  0  0  0  0 
  7 25  1  0  0  0  0 
 25 26  2  0  0  0  0 
 19 27  1  0  0  0  0 
M  END
> <Rank>
1

> <Priority_score>
0.3666070757993271

> <Reaction_type>
aliphatic hydroxylation

> <Parent_ID>
68

> <Parent_InChI>
InChI=1S/C11H10FNO2S/c1-13-6-10(16(2)15)11(14)8-4-3-7(12)5-9(8)13/h3-6H,1-2H3

> <Parent_SMILES>
Cn1cc(S(C)=O)c(=O)c2ccc(F)cc21

$$$$
Molecule 68_metabolite 3
  CDK     0516241031

 27 28  0  0  0  0  0  0  0  0999 V2000
    0.3359   -2.1692    0.0000 C   0  0  0  0  0  0  0  0  0  0  0  0
   -1.1413   -1.9089    0.0000 H   0  0  0  0  0  0  0  0  0  0  0  0
    1.6351   -2.9190    0.0000 H   0  0  0  0  0  0  0  0  0  0  0  0
   -0.1769   -3.5788    0.0000 H   0  0  0  0  0  0  0  0  0  0  0  0
    1.3000   -1.0200    0.0000 N   0  0  0  0  0  0  0  0  0  0  0  0
    2.6000   -0.2700    0.0000 C   0  0  0  0  0  0  0  0  0  0  0  0
    3.8989   -1.0202    0.0000 H   0  0  0  0  0  0  0  0  0  0  0  0
    2.6000    1.2300    0.0000 C   0  0  0  0  0  0  0  0  0  0  0  0
    1.3000    1.9800    0.0000 C   0  0  0  0  0  0  0  0  0  0  0  0
    1.3000    3.4800    0.0000 O   0  0  0  0  0  0  0  0  0  0  0  0
    0.0000    1.2300    0.0000 C   0  0  0  0  0  0  0  0  0  0  0  0
   -1.3000    1.9800    0.0000 C   0  0  0  0  0  0  0  0  0  0  0  0
   -1.3000    3.4800    0.0000 H   0  0  0  0  0  0  0  0  0  0  0  0
   -2.6000    1.2300    0.0000 C   0  0  0  0  0  0  0  0  0  0  0  0
   -3.8989    1.9802    0.0000 H   0  0  0  0  0  0  0  0  0  0  0  0
   -2.6000   -0.2700    0.0000 C   0  0  0  0  0  0  0  0  0  0  0  0
   -1.3000   -1.0200    0.0000 C   0  0  0  0  0  0  0  0  0  0  0  0
   -1.3000   -3.0000    0.0000 H   0  0  0  0  0  0  0  0  0  0  0  0
    0.0000   -0.2700    0.0000 C   0  0  0  0  0  0  0  0  0  0  0  0
   -3.8989   -1.0202    0.0000 F   0  0  0  0  0  0  0  0  0  0  0  0
    3.8989    1.9802    0.0000 S   0  0  0  0  0  0  0  0  0  0  0  0
    3.8987    3.4802    0.0000 O   0  0  0  0  0  0  0  0  0  0  0  0
    5.1981    1.2304    0.0000 C   0  0  0  0  0  0  0  0  0  0  0  0
    6.4970    1.9806    0.0000 H   0  0  0  0  0  0  0  0  0  0  0  0
    4.2341    0.0812    0.0000 H   0  0  0  0  0  0  0  0  0  0  0  0
    6.1624    0.0815    0.0000 H   0  0  0  0  0  0  0  0  0  0  0  0
    2.2641   -2.1692    0.0000 O   0  0  0  0  0  0  0  0  0  0  0  0
  1  2  1  0  0  0  0 
  1  3  1  0  0  0  0 
  1  4  1  0  0  0  0 
  1  5  1  0  0  0  0 
  5  6  1  0  0  0  0 
  6  7  1  0  0  0  0 
  6  8  2  0  0  0  0 
  8  9  1  0  0  0  0 
  9 10  2  0  0  0  0 
  9 11  1  0  0  0  0 
 11 12  2  0  0  0  0 
 12 13  1  0  0  0  0 
 12 14  1  0  0  0  0 
 14 15  1  0  0  0  0 
 14 16  2  0  0  0  0 
 16 17  1  0  0  0  0 
 17 18  1  0  0  0  0 
 17 19  2  0  0  0  0 
 11 19  1  0  0  0  0 
  5 19  1  0  0  0  0 
 16 20  1  0  0  0  0 
  8 21  1  0  0  0  0 
 21 22  2  0  0  0  0 
 21 23  1  0  0  0  0 
 23 24  1  0  0  0  0 
 23 25  1  0  0  0  0 
 23 26  1  0  0  0  0 
  5 27  1  0  0  0  0 
M  CHG  1   5   1
M  CHG  1  27  -1
M  END
> <Rank>
1

> <Priority_score>
0.3666070757993271

> <Reaction_type>
N-oxidation

> <Parent_ID>
68

> <Parent_InChI>
InChI=1S/C11H10FNO2S/c1-13-6-10(16(2)15)11(14)8-4-3-7(12)5-9(8)13/h3-6H,1-2H3

> <Parent_SMILES>
Cn1cc(S(C)=O)c(=O)c2ccc(F)cc21

$$$$
Molecule 68_metabolite 4
  CDK     0516241031

 27 28  0  0  0  0  0  0  0  0999 V2000
    1.3000   -3.0000    0.0000 C   0  0  0  0  0  0  0  0  0  0  0  0
    2.5990   -3.7500    0.0000 H   0  0  0  0  0  0  0  0  0  0  0  0
   -0.1772   -2.7395    0.0000 H   0  0  0  0  0  0  0  0  0  0  0  0
    0.7870   -4.4095    0.0000 H   0  0  0  0  0  0  0  0  0  0  0  0
    1.3000   -1.5000    0.0000 N   0  0  0  0  0  0  0  0  0  0  0  0
   -0.0000   -0.7500    0.0000 C   0  0  0  0  0  0  0  0  0  0  0  0
   -1.3000   -1.5000    0.0000 C   0  0  0  0  0  0  0  0  0  0  0  0
   -1.3000   -3.0000    0.0000 H   0  0  0  0  0  0  0  0  0  0  0  0
   -2.6000   -0.7500    0.0000 C   0  0  0  0  0  0  0  0  0  0  0  0
   -2.6000    0.7500    0.0000 C   0  0  0  0  0  0  0  0  0  0  0  0
   -3.8989    1.5002    0.0000 H   0  0  0  0  0  0  0  0  0  0  0  0
   -1.3000    1.5000    0.0000 C   0  0  0  0  0  0  0  0  0  0  0  0
   -1.3000    3.0000    0.0000 H   0  0  0  0  0  0  0  0  0  0  0  0
   -0.0000    0.7500    0.0000 C   0  0  0  0  0  0  0  0  0  0  0  0
    1.3000    1.5000    0.0000 C   0  0  0  0  0  0  0  0  0  0  0  0
    1.3000    3.0000    0.0000 O   0  0  0  0  0  0  0  0  0  0  0  0
    2.6000    0.7500    0.0000 C   0  0  0  0  0  0  0  0  0  0  0  0
    2.6000   -0.7500    0.0000 C   0  0  0  0  0  0  0  0  0  0  0  0
    3.8989   -1.5002    0.0000 O   0  0  0  0  0  0  0  0  0  0  0  0
    5.1981   -0.7504    0.0000 H   0  0  0  0  0  0  0  0  0  0  0  0
    3.8989    1.5002    0.0000 S   0  0  0  0  0  0  0  0  0  0  0  0
    3.8987    3.0002    0.0000 O   0  0  0  0  0  0  0  0  0  0  0  0
    5.1981    0.7504    0.0000 C   0  0  0  0  0  0  0  0  0  0  0  0
    6.4970    1.5006    0.0000 H   0  0  0  0  0  0  0  0  0  0  0  0
    4.2341   -0.3988    0.0000 H   0  0  0  0  0  0  0  0  0  0  0  0
    6.1624   -0.3985    0.0000 H   0  0  0  0  0  0  0  0  0  0  0  0
   -3.8989   -1.5002    0.0000 F   0  0  0  0  0  0  0  0  0  0  0  0
  1  2  1  0  0  0  0 
  1  3  1  0  0  0  0 
  1  4  1  0  0  0  0 
  1  5  1  0  0  0  0 
  5  6  1  0  0  0  0 
  6  7  2  0  0  0  0 
  7  8  1  0  0  0  0 
  7  9  1  0  0  0  0 
  9 10  2  0  0  0  0 
 10 11  1  0  0  0  0 
 10 12  1  0  0  0  0 
 12 13  1  0  0  0  0 
 12 14  2  0  0  0  0 
  6 14  1  0  0  0  0 
 14 15  1  0  0  0  0 
 15 16  2  0  0  0  0 
 15 17  1  0  0  0  0 
 17 18  2  0  0  0  0 
  5 18  1  0  0  0  0 
 18 19  1  0  0  0  0 
 19 20  1  0  0  0  0 
 17 21  1  0  0  0  0 
 21 22  2  0  0  0  0 
 21 23  1  0  0  0  0 
 23 24  1  0  0  0  0 
 23 25  1  0  0  0  0 
 23 26  1  0  0  0  0 
  9 27  1  0  0  0  0 
M  END
> <Rank>
4

> <Priority_score>
0.312

> <Reaction_type>
aromatic_hydroxylation_(para_to_carbon)

> <Parent_ID>
68

> <Parent_InChI>
InChI=1S/C11H10FNO2S/c1-13-6-10(16(2)15)11(14)8-4-3-7(12)5-9(8)13/h3-6H,1-2H3

> <Parent_SMILES>
Cn1cc(S(C)=O)c(=O)c2ccc(F)cc21

$$$$
Molecule 68_metabolite 5
  CDK     0516241031

 28 29  0  0  0  0  0  0  0  0999 V2000
    1.3000   -3.0000    0.0000 C   0  0  0  0  0  0  0  0  0  0  0  0
    2.5990   -3.7500    0.0000 H   0  0  0  0  0  0  0  0  0  0  0  0
   -0.1772   -2.7395    0.0000 H   0  0  0  0  0  0  0  0  0  0  0  0
    0.7870   -4.4095    0.0000 H   0  0  0  0  0  0  0  0  0  0  0  0
    1.3000   -1.5000    0.0000 N   0  0  0  0  0  0  0  0  0  0  0  0
    2.6000   -0.7500    0.0000 C   0  0  0  0  0  0  0  0  0  0  0  0
    3.1127   -2.1596    0.0000 H   0  0  0  0  0  0  0  0  0  0  0  0
    4.0772   -0.4897    0.0000 H   0  0  0  0  0  0  0  0  0  0  0  0
    2.6000    0.7500    0.0000 C   0  0  0  0  0  0  0  0  0  0  0  0
    4.0772    0.4897    0.0000 H   0  0  0  0  0  0  0  0  0  0  0  0
    1.3000    1.5000    0.0000 C   0  0  0  0  0  0  0  0  0  0  0  0
    1.3000    3.0000    0.0000 O   0  0  0  0  0  0  0  0  0  0  0  0
   -0.0000    0.7500    0.0000 C   0  0  0  0  0  0  0  0  0  0  0  0
   -1.3000    1.5000    0.0000 C   0  0  0  0  0  0  0  0  0  0  0  0
   -1.3000    3.0000    0.0000 H   0  0  0  0  0  0  0  0  0  0  0  0
   -2.6000    0.7500    0.0000 C   0  0  0  0  0  0  0  0  0  0  0  0
   -3.8989    1.5002    0.0000 H   0  0  0  0  0  0  0  0  0  0  0  0
   -2.6000   -0.7500    0.0000 C   0  0  0  0  0  0  0  0  0  0  0  0
   -1.3000   -1.5000    0.0000 C   0  0  0  0  0  0  0  0  0  0  0  0
   -1.3000   -3.0000    0.0000 H   0  0  0  0  0  0  0  0  0  0  0  0
   -0.0000   -0.7500    0.0000 C   0  0  0  0  0  0  0  0  0  0  0  0
   -3.8989   -1.5002    0.0000 F   0  0  0  0  0  0  0  0  0  0  0  0
    3.1127    2.1596    0.0000 S   0  0  0  0  0  0  0  0  0  0  0  0
    2.1483    3.3085    0.0000 O   0  0  0  0  0  0  0  0  0  0  0  0
    4.5899    2.4204    0.0000 C   0  0  0  0  0  0  0  0  0  0  0  0
    5.5543    1.2716    0.0000 H   0  0  0  0  0  0  0  0  0  0  0  0
    4.0766    3.8299    0.0000 H   0  0  0  0  0  0  0  0  0  0  0  0
    5.8888    3.1707    0.0000 H   0  0  0  0  0  0  0  0  0  0  0  0
  1  2  1  0  0  0  0 
  1  3  1  0  0  0  0 
  1  4  1  0  0  0  0 
  1  5  1  0  0  0  0 
  5  6  1  0  0  0  0 
  6  7  1  0  0  0  0 
  6  8  1  0  0  0  0 
  6  9  1  0  0  0  0 
  9 10  1  0  0  0  0 
  9 11  1  0  0  0  0 
 11 12  2  0  0  0  0 
 11 13  1  0  0  0  0 
 13 14  2  0  0  0  0 
 14 15  1  0  0  0  0 
 14 16  1  0  0  0  0 
 16 17  1  0  0  0  0 
 16 18  2  0  0  0  0 
 18 19  1  0  0  0  0 
 19 20  1  0  0  0  0 
 19 21  2  0  0  0  0 
 13 21  1  0  0  0  0 
  5 21  1  0  0  0  0 
 18 22  1  0  0  0  0 
  9 23  1  0  0  0  0 
 23 24  2  0  0  0  0 
 23 25  1  0  0  0  0 
 25 26  1  0  0  0  0 
 25 27  1  0  0  0  0 
 25 28  1  0  0  0  0 
M  END
> <Rank>
4

> <Priority_score>
0.312

> <Reaction_type>
double_bond_reduction_(aromatic)

> <Parent_ID>
68

> <Parent_InChI>
InChI=1S/C11H10FNO2S/c1-13-6-10(16(2)15)11(14)8-4-3-7(12)5-9(8)13/h3-6H,1-2H3

> <Parent_SMILES>
Cn1cc(S(C)=O)c(=O)c2ccc(F)cc21

$$$$
Molecule 68_metabolite 6
  CDK     0516241031

 27 28  0  0  0  0  0  0  0  0999 V2000
    1.3000   -3.0000    0.0000 C   0  0  0  0  0  0  0  0  0  0  0  0
    2.5990   -3.7500    0.0000 H   0  0  0  0  0  0  0  0  0  0  0  0
   -0.1772   -2.7395    0.0000 H   0  0  0  0  0  0  0  0  0  0  0  0
    0.7870   -4.4095    0.0000 H   0  0  0  0  0  0  0  0  0  0  0  0
    1.3000   -1.5000    0.0000 N   0  0  0  0  0  0  0  0  0  0  0  0
    2.6000   -0.7500    0.0000 C   0  0  0  0  0  0  0  0  0  0  0  0
    3.8989   -1.5002    0.0000 H   0  0  0  0  0  0  0  0  0  0  0  0
    2.6000    0.7500    0.0000 C   0  0  0  0  0  0  0  0  0  0  0  0
    1.3000    1.5000    0.0000 C   0  0  0  0  0  0  0  0  0  0  0  0
    1.3000    3.0000    0.0000 O   0  0  0  0  0  0  0  0  0  0  0  0
   -0.0000    0.7500    0.0000 C   0  0  0  0  0  0  0  0  0  0  0  0
   -1.3000    1.5000    0.0000 C   0  0  0  0  0  0  0  0  0  0  0  0
   -1.3000    3.0000    0.0000 H   0  0  0  0  0  0  0  0  0  0  0  0
   -2.6000    0.7500    0.0000 C   0  0  0  0  0  0  0  0  0  0  0  0
   -3.8989    1.5002    0.0000 H   0  0  0  0  0  0  0  0  0  0  0  0
   -2.6000   -0.7500    0.0000 C   0  0  0  0  0  0  0  0  0  0  0  0
   -1.3000   -1.5000    0.0000 C   0  0  0  0  0  0  0  0  0  0  0  0
   -1.3000   -3.0000    0.0000 H   0  0  0  0  0  0  0  0  0  0  0  0
   -0.0000   -0.7500    0.0000 C   0  0  0  0  0  0  0  0  0  0  0  0
   -3.8989   -1.5002    0.0000 F   0  0  0  0  0  0  0  0  0  0  0  0
    3.8989    1.5002    0.0000 S   0  0  0  0  0  0  0  0  0  0  0  0
    4.8629    2.6494    0.0000 O   0  0  0  0  0  0  0  0  0  0  0  0
    2.9346    2.6491    0.0000 O   0  0  0  0  0  0  0  0  0  0  0  0
    5.1981    0.7504    0.0000 C   0  0  0  0  0  0  0  0  0  0  0  0
    6.4970    1.5006    0.0000 H   0  0  0  0  0  0  0  0  0  0  0  0
    4.2341   -0.3988    0.0000 H   0  0  0  0  0  0  0  0  0  0  0  0
    6.1624   -0.3985    0.0000 H   0  0  0  0  0  0  0  0  0  0  0  0
  1  2  1  0  0  0  0 
  1  3  1  0  0  0  0 
  1  4  1  0  0  0  0 
  1  5  1  0  0  0  0 
  5  6  1  0  0  0  0 
  6  7  1  0  0  0  0 
  6  8  2  0  0  0  0 
  8  9  1  0  0  0  0 
  9 10  2  0  0  0  0 
  9 11  1  0  0  0  0 
 11 12  2  0  0  0  0 
 12 13  1  0  0  0  0 
 12 14  1  0  0  0  0 
 14 15  1  0  0  0  0 
 14 16  2  0  0  0  0 
 16 17  1  0  0  0  0 
 17 18  1  0  0  0  0 
 17 19  2  0  0  0  0 
 11 19  1  0  0  0  0 
  5 19  1  0  0  0  0 
 16 20  1  0  0  0  0 
  8 21  1  0  0  0  0 
 21 22  2  0  0  0  0 
 21 23  2  0  0  0  0 
 21 24  1  0  0  0  0 
 24 25  1  0  0  0  0 
 24 26  1  0  0  0  0 
 24 27  1  0  0  0  0 
M  END
> <Rank>
6

> <Priority_score>
0.296

> <Reaction_type>
sulfoxide_oxidation_(c-S-C)

> <Parent_ID>
68

> <Parent_InChI>
InChI=1S/C11H10FNO2S/c1-13-6-10(16(2)15)11(14)8-4-3-7(12)5-9(8)13/h3-6H,1-2H3

> <Parent_SMILES>
Cn1cc(S(C)=O)c(=O)c2ccc(F)cc21

$$$$
Molecule 68_metabolite 7
  CDK     0516241031

 25 26  0  0  0  0  0  0  0  0999 V2000
    1.3000   -3.0000    0.0000 C   0  0  0  0  0  0  0  0  0  0  0  0
    2.5990   -3.7500    0.0000 H   0  0  0  0  0  0  0  0  0  0  0  0
   -0.1772   -2.7395    0.0000 H   0  0  0  0  0  0  0  0  0  0  0  0
    0.7870   -4.4095    0.0000 H   0  0  0  0  0  0  0  0  0  0  0  0
    1.3000   -1.5000    0.0000 N   0  0  0  0  0  0  0  0  0  0  0  0
    2.6000   -0.7500    0.0000 C   0  0  0  0  0  0  0  0  0  0  0  0
    3.8989   -1.5002    0.0000 H   0  0  0  0  0  0  0  0  0  0  0  0
    2.6000    0.7500    0.0000 C   0  0  0  0  0  0  0  0  0  0  0  0
    1.3000    1.5000    0.0000 C   0  0  0  0  0  0  0  0  0  0  0  0
    1.3000    3.0000    0.0000 O   0  0  0  0  0  0  0  0  0  0  0  0
   -0.0000    0.7500    0.0000 C   0  0  0  0  0  0  0  0  0  0  0  0
   -1.3000    1.5000    0.0000 C   0  0  0  0  0  0  0  0  0  0  0  0
   -1.3000    3.0000    0.0000 H   0  0  0  0  0  0  0  0  0  0  0  0
   -2.6000    0.7500    0.0000 C   0  0  0  0  0  0  0  0  0  0  0  0
   -3.8989    1.5002    0.0000 H   0  0  0  0  0  0  0  0  0  0  0  0
   -2.6000   -0.7500    0.0000 C   0  0  0  0  0  0  0  0  0  0  0  0
   -1.3000   -1.5000    0.0000 C   0  0  0  0  0  0  0  0  0  0  0  0
   -1.3000   -3.0000    0.0000 H   0  0  0  0  0  0  0  0  0  0  0  0
   -0.0000   -0.7500    0.0000 C   0  0  0  0  0  0  0  0  0  0  0  0
   -3.8989   -1.5002    0.0000 F   0  0  0  0  0  0  0  0  0  0  0  0
    3.8989    1.5002    0.0000 S   0  0  0  0  0  0  0  0  0  0  0  0
    5.1981    0.7504    0.0000 C   0  0  0  0  0  0  0  0  0  0  0  0
    6.4970    1.5006    0.0000 H   0  0  0  0  0  0  0  0  0  0  0  0
    4.2341   -0.3988    0.0000 H   0  0  0  0  0  0  0  0  0  0  0  0
    6.1624   -0.3985    0.0000 H   0  0  0  0  0  0  0  0  0  0  0  0
  1  2  1  0  0  0  0 
  1  3  1  0  0  0  0 
  1  4  1  0  0  0  0 
  1  5  1  0  0  0  0 
  5  6  1  0  0  0  0 
  6  7  1  0  0  0  0 
  6  8  2  0  0  0  0 
  8  9  1  0  0  0  0 
  9 10  2  0  0  0  0 
  9 11  1  0  0  0  0 
 11 12  2  0  0  0  0 
 12 13  1  0  0  0  0 
 12 14  1  0  0  0  0 
 14 15  1  0  0  0  0 
 14 16  2  0  0  0  0 
 16 17  1  0  0  0  0 
 17 18  1  0  0  0  0 
 17 19  2  0  0  0  0 
 11 19  1  0  0  0  0 
  5 19  1  0  0  0  0 
 16 20  1  0  0  0  0 
  8 21  1  0  0  0  0 
 21 22  1  0  0  0  0 
 22 23  1  0  0  0  0 
 22 24  1  0  0  0  0 
 22 25  1  0  0  0  0 
M  END
> <Rank>
6

> <Priority_score>
0.296

> <Reaction_type>
sulfoxide_reduction

> <Parent_ID>
68

> <Parent_InChI>
InChI=1S/C11H10FNO2S/c1-13-6-10(16(2)15)11(14)8-4-3-7(12)5-9(8)13/h3-6H,1-2H3

> <Parent_SMILES>
Cn1cc(S(C)=O)c(=O)c2ccc(F)cc21

$$$$
Molecule 68_metabolite 8
  CDK     0516241031

 27 28  0  0  0  0  0  0  0  0999 V2000
    1.3000   -3.0000    0.0000 C   0  0  0  0  0  0  0  0  0  0  0  0
    2.5990   -3.7500    0.0000 H   0  0  0  0  0  0  0  0  0  0  0  0
   -0.1772   -2.7395    0.0000 H   0  0  0  0  0  0  0  0  0  0  0  0
    0.7870   -4.4095    0.0000 H   0  0  0  0  0  0  0  0  0  0  0  0
    1.3000   -1.5000    0.0000 N   0  0  0  0  0  0  0  0  0  0  0  0
    2.6000   -0.7500    0.0000 C   0  0  0  0  0  0  0  0  0  0  0  0
    3.8989   -1.5002    0.0000 H   0  0  0  0  0  0  0  0  0  0  0  0
    2.6000    0.7500    0.0000 C   0  0  0  0  0  0  0  0  0  0  0  0
    1.3000    1.5000    0.0000 C   0  0  0  0  0  0  0  0  0  0  0  0
    1.3000    3.0000    0.0000 O   0  0  0  0  0  0  0  0  0  0  0  0
   -0.0000    0.7500    0.0000 C   0  0  0  0  0  0  0  0  0  0  0  0
   -1.3000    1.5000    0.0000 C   0  0  0  0  0  0  0  0  0  0  0  0
   -1.3000    3.0000    0.0000 H   0  0  0  0  0  0  0  0  0  0  0  0
   -2.6000    0.7500    0.0000 C   0  0  0  0  0  0  0  0  0  0  0  0
   -3.8989    1.5002    0.0000 H   0  0  0  0  0  0  0  0  0  0  0  0
   -2.6000   -0.7500    0.0000 C   0  0  0  0  0  0  0  0  0  0  0  0
   -1.3000   -1.5000    0.0000 C   0  0  0  0  0  0  0  0  0  0  0  0
   -0.0000   -0.7500    0.0000 C   0  0  0  0  0  0  0  0  0  0  0  0
   -1.3000   -3.0000    0.0000 O   0  0  0  0  0  0  0  0  0  0  0  0
   -2.5990   -3.7500    0.0000 H   0  0  0  0  0  0  0  0  0  0  0  0
   -3.8989   -1.5002    0.0000 F   0  0  0  0  0  0  0  0  0  0  0  0
    3.8989    1.5002    0.0000 S   0  0  0  0  0  0  0  0  0  0  0  0
    3.8987    3.0002    0.0000 O   0  0  0  0  0  0  0  0  0  0  0  0
    5.1981    0.7504    0.0000 C   0  0  0  0  0  0  0  0  0  0  0  0
    6.4970    1.5006    0.0000 H   0  0  0  0  0  0  0  0  0  0  0  0
    4.2341   -0.3988    0.0000 H   0  0  0  0  0  0  0  0  0  0  0  0
    6.1624   -0.3985    0.0000 H   0  0  0  0  0  0  0  0  0  0  0  0
  1  2  1  0  0  0  0 
  1  3  1  0  0  0  0 
  1  4  1  0  0  0  0 
  1  5  1  0  0  0  0 
  5  6  1  0  0  0  0 
  6  7  1  0  0  0  0 
  6  8  2  0  0  0  0 
  8  9  1  0  0  0  0 
  9 10  2  0  0  0  0 
  9 11  1  0  0  0  0 
 11 12  2  0  0  0  0 
 12 13  1  0  0  0  0 
 12 14  1  0  0  0  0 
 14 15  1  0  0  0  0 
 14 16  2  0  0  0  0 
 16 17  1  0  0  0  0 
 17 18  2  0  0  0  0 
 11 18  1  0  0  0  0 
  5 18  1  0  0  0  0 
 17 19  1  0  0  0  0 
 19 20  1  0  0  0  0 
 16 21  1  0  0  0  0 
  8 22  1  0  0  0  0 
 22 23  2  0  0  0  0 
 22 24  1  0  0  0  0 
 24 25  1  0  0  0  0 
 24 26  1  0  0  0  0 
 24 27  1  0  0  0  0 
M  END
> <Rank>
8

> <Priority_score>
0.216

> <Reaction_type>
aromatic_hydroxylation_(ortho_to_nitrogen)

> <Parent_ID>
68

> <Parent_InChI>
InChI=1S/C11H10FNO2S/c1-13-6-10(16(2)15)11(14)8-4-3-7(12)5-9(8)13/h3-6H,1-2H3

> <Parent_SMILES>
Cn1cc(S(C)=O)c(=O)c2ccc(F)cc21

$$$$
Molecule 68_metabolite 9
  CDK     0516241031

 27 28  0  0  0  0  0  0  0  0999 V2000
    1.3000   -3.0000    0.0000 C   0  0  0  0  0  0  0  0  0  0  0  0
    2.5990   -3.7500    0.0000 H   0  0  0  0  0  0  0  0  0  0  0  0
   -0.1772   -2.7395    0.0000 H   0  0  0  0  0  0  0  0  0  0  0  0
    0.7870   -4.4095    0.0000 H   0  0  0  0  0  0  0  0  0  0  0  0
    1.3000   -1.5000    0.0000 N   0  0  0  0  0  0  0  0  0  0  0  0
    2.6000   -0.7500    0.0000 C   0  0  0  0  0  0  0  0  0  0  0  0
    3.8989   -1.5002    0.0000 H   0  0  0  0  0  0  0  0  0  0  0  0
    2.6000    0.7500    0.0000 C   0  0  0  0  0  0  0  0  0  0  0  0
    1.3000    1.5000    0.0000 C   0  0  0  0  0  0  0  0  0  0  0  0
    1.3000    3.0000    0.0000 O   0  0  0  0  0  0  0  0  0  0  0  0
   -0.0000    0.7500    0.0000 C   0  0  0  0  0  0  0  0  0  0  0  0
   -0.0000   -0.7500    0.0000 C   0  0  0  0  0  0  0  0  0  0  0  0
   -1.3000   -1.5000    0.0000 C   0  0  0  0  0  0  0  0  0  0  0  0
   -1.3000   -3.0000    0.0000 H   0  0  0  0  0  0  0  0  0  0  0  0
   -2.6000   -0.7500    0.0000 C   0  0  0  0  0  0  0  0  0  0  0  0
   -2.6000    0.7500    0.0000 C   0  0  0  0  0  0  0  0  0  0  0  0
   -1.3000    1.5000    0.0000 C   0  0  0  0  0  0  0  0  0  0  0  0
   -1.3000    3.0000    0.0000 H   0  0  0  0  0  0  0  0  0  0  0  0
   -3.8989    1.5002    0.0000 O   0  0  0  0  0  0  0  0  0  0  0  0
   -5.1981    0.7504    0.0000 H   0  0  0  0  0  0  0  0  0  0  0  0
   -3.8989   -1.5002    0.0000 F   0  0  0  0  0  0  0  0  0  0  0  0
    3.8989    1.5002    0.0000 S   0  0  0  0  0  0  0  0  0  0  0  0
    3.8987    3.0002    0.0000 O   0  0  0  0  0  0  0  0  0  0  0  0
    5.1981    0.7504    0.0000 C   0  0  0  0  0  0  0  0  0  0  0  0
    6.4970    1.5006    0.0000 H   0  0  0  0  0  0  0  0  0  0  0  0
    4.2341   -0.3988    0.0000 H   0  0  0  0  0  0  0  0  0  0  0  0
    6.1624   -0.3985    0.0000 H   0  0  0  0  0  0  0  0  0  0  0  0
  1  2  1  0  0  0  0 
  1  3  1  0  0  0  0 
  1  4  1  0  0  0  0 
  1  5  1  0  0  0  0 
  5  6  1  0  0  0  0 
  6  7  1  0  0  0  0 
  6  8  2  0  0  0  0 
  8  9  1  0  0  0  0 
  9 10  2  0  0  0  0 
  9 11  1  0  0  0  0 
 11 12  2  0  0  0  0 
  5 12  1  0  0  0  0 
 12 13  1  0  0  0  0 
 13 14  1  0  0  0  0 
 13 15  2  0  0  0  0 
 15 16  1  0  0  0  0 
 16 17  2  0  0  0  0 
 11 17  1  0  0  0  0 
 17 18  1  0  0  0  0 
 16 19  1  0  0  0  0 
 19 20  1  0  0  0  0 
 15 21  1  0  0  0  0 
  8 22  1  0  0  0  0 
 22 23  2  0  0  0  0 
 22 24  1  0  0  0  0 
 24 25  1  0  0  0  0 
 24 26  1  0  0  0  0 
 24 27  1  0  0  0  0 
M  END
> <Rank>
8

> <Priority_score>
0.216

> <Reaction_type>
aromatic_hydroxylation_(para_to_nitrogen)

> <Parent_ID>
68

> <Parent_InChI>
InChI=1S/C11H10FNO2S/c1-13-6-10(16(2)15)11(14)8-4-3-7(12)5-9(8)13/h3-6H,1-2H3

> <Parent_SMILES>
Cn1cc(S(C)=O)c(=O)c2ccc(F)cc21

$$$$
Molecule 68_metabolite 10
  CDK     0516241031

 27 28  0  0  0  0  0  0  0  0999 V2000
    1.3000   -3.0000    0.0000 C   0  0  0  0  0  0  0  0  0  0  0  0
    2.5990   -3.7500    0.0000 H   0  0  0  0  0  0  0  0  0  0  0  0
   -0.1772   -2.7395    0.0000 H   0  0  0  0  0  0  0  0  0  0  0  0
    0.7870   -4.4095    0.0000 H   0  0  0  0  0  0  0  0  0  0  0  0
    1.3000   -1.5000    0.0000 N   0  0  0  0  0  0  0  0  0  0  0  0
    2.6000   -0.7500    0.0000 C   0  0  0  0  0  0  0  0  0  0  0  0
    3.8989   -1.5002    0.0000 H   0  0  0  0  0  0  0  0  0  0  0  0
    2.6000    0.7500    0.0000 C   0  0  0  0  0  0  0  0  0  0  0  0
    1.3000    1.5000    0.0000 C   0  0  0  0  0  0  0  0  0  0  0  0
    1.3000    3.0000    0.0000 O   0  0  0  0  0  0  0  0  0  0  0  0
   -0.0000    0.7500    0.0000 C   0  0  0  0  0  0  0  0  0  0  0  0
   -1.3000    1.5000    0.0000 C   0  0  0  0  0  0  0  0  0  0  0  0
   -1.3000    3.0000    0.0000 H   0  0  0  0  0  0  0  0  0  0  0  0
   -2.6000    0.7500    0.0000 C   0  0  0  0  0  0  0  0  0  0  0  0
   -3.8989    1.5002    0.0000 H   0  0  0  0  0  0  0  0  0  0  0  0
   -2.6000   -0.7500    0.0000 C   0  0  0  0  0  0  0  0  0  0  0  0
   -1.3000   -1.5000    0.0000 C   0  0  0  0  0  0  0  0  0  0  0  0
   -1.3000   -3.0000    0.0000 H   0  0  0  0  0  0  0  0  0  0  0  0
   -0.0000   -0.7500    0.0000 C   0  0  0  0  0  0  0  0  0  0  0  0
   -3.8989   -1.5002    0.0000 F   0  0  0  0  0  0  0  0  0  0  0  0
    3.8989    1.5002    0.0000 S   0  0  0  0  0  0  0  0  0  0  0  0
    3.8987    3.0002    0.0000 O   0  0  0  0  0  0  0  0  0  0  0  0
    5.1981    0.7504    0.0000 C   0  0  0  0  0  0  0  0  0  0  0  0
    4.2341   -0.3988    0.0000 H   0  0  0  0  0  0  0  0  0  0  0  0
    6.1624   -0.3985    0.0000 H   0  0  0  0  0  0  0  0  0  0  0  0
    6.4970    1.5006    0.0000 O   0  0  0  0  0  0  0  0  0  0  0  0
    7.7962    0.7508    0.0000 H   0  0  0  0  0  0  0  0  0  0  0  0
  1  2  1  0  0  0  0 
  1  3  1  0  0  0  0 
  1  4  1  0  0  0  0 
  1  5  1  0  0  0  0 
  5  6  1  0  0  0  0 
  6  7  1  0  0  0  0 
  6  8  2  0  0  0  0 
  8  9  1  0  0  0  0 
  9 10  2  0  0  0  0 
  9 11  1  0  0  0  0 
 11 12  2  0  0  0  0 
 12 13  1  0  0  0  0 
 12 14  1  0  0  0  0 
 14 15  1  0  0  0  0 
 14 16  2  0  0  0  0 
 16 17  1  0  0  0  0 
 17 18  1  0  0  0  0 
 17 19  2  0  0  0  0 
 11 19  1  0  0  0  0 
  5 19  1  0  0  0  0 
 16 20  1  0  0  0  0 
  8 21  1  0  0  0  0 
 21 22  2  0  0  0  0 
 21 23  1  0  0  0  0 
 23 24  1  0  0  0  0 
 23 25  1  0  0  0  0 
 23 26  1  0  0  0  0 
 26 27  1  0  0  0  0 
M  END
> <Rank>
10

> <Priority_score>
0.124

> <Reaction_type>
aliphatic hydroxylation

> <Parent_ID>
68

> <Parent_InChI>
InChI=1S/C11H10FNO2S/c1-13-6-10(16(2)15)11(14)8-4-3-7(12)5-9(8)13/h3-6H,1-2H3

> <Parent_SMILES>
Cn1cc(S(C)=O)c(=O)c2ccc(F)cc21

$$$$
Molecule 68_metabolite 11
  CDK     0516241031

 27 28  0  0  0  0  0  0  0  0999 V2000
    1.3000   -3.0000    0.0000 C   0  0  0  0  0  0  0  0  0  0  0  0
    2.5990   -3.7500    0.0000 H   0  0  0  0  0  0  0  0  0  0  0  0
   -0.1772   -2.7395    0.0000 H   0  0  0  0  0  0  0  0  0  0  0  0
    0.7870   -4.4095    0.0000 H   0  0  0  0  0  0  0  0  0  0  0  0
    1.3000   -1.5000    0.0000 N   0  0  0  0  0  0  0  0  0  0  0  0
    2.6000   -0.7500    0.0000 C   0  0  0  0  0  0  0  0  0  0  0  0
    3.8989   -1.5002    0.0000 H   0  0  0  0  0  0  0  0  0  0  0  0
    2.6000    0.7500    0.0000 C   0  0  0  0  0  0  0  0  0  0  0  0
    1.3000    1.5000    0.0000 C   0  0  0  0  0  0  0  0  0  0  0  0
    1.3000    3.0000    0.0000 O   0  0  0  0  0  0  0  0  0  0  0  0
   -0.0000    0.7500    0.0000 C   0  0  0  0  0  0  0  0  0  0  0  0
   -1.3000    1.5000    0.0000 C   0  0  0  0  0  0  0  0  0  0  0  0
   -2.6000    0.7500    0.0000 C   0  0  0  0  0  0  0  0  0  0  0  0
   -3.8989    1.5002    0.0000 H   0  0  0  0  0  0  0  0  0  0  0  0
   -2.6000   -0.7500    0.0000 C   0  0  0  0  0  0  0  0  0  0  0  0
   -1.3000   -1.5000    0.0000 C   0  0  0  0  0  0  0  0  0  0  0  0
   -1.3000   -3.0000    0.0000 H   0  0  0  0  0  0  0  0  0  0  0  0
   -0.0000   -0.7500    0.0000 C   0  0  0  0  0  0  0  0  0  0  0  0
   -3.8989   -1.5002    0.0000 F   0  0  0  0  0  0  0  0  0  0  0  0
   -1.3000    3.0000    0.0000 O   0  0  0  0  0  0  0  0  0  0  0  0
   -2.5990    3.7500    0.0000 H   0  0  0  0  0  0  0  0  0  0  0  0
    3.8989    1.5002    0.0000 S   0  0  0  0  0  0  0  0  0  0  0  0
    3.8987    3.0002    0.0000 O   0  0  0  0  0  0  0  0  0  0  0  0
    5.1981    0.7504    0.0000 C   0  0  0  0  0  0  0  0  0  0  0  0
    6.4970    1.5006    0.0000 H   0  0  0  0  0  0  0  0  0  0  0  0
    4.2341   -0.3988    0.0000 H   0  0  0  0  0  0  0  0  0  0  0  0
    6.1624   -0.3985    0.0000 H   0  0  0  0  0  0  0  0  0  0  0  0
  1  2  1  0  0  0  0 
  1  3  1  0  0  0  0 
  1  4  1  0  0  0  0 
  1  5  1  0  0  0  0 
  5  6  1  0  0  0  0 
  6  7  1  0  0  0  0 
  6  8  2  0  0  0  0 
  8  9  1  0  0  0  0 
  9 10  2  0  0  0  0 
  9 11  1  0  0  0  0 
 11 12  2  0  0  0  0 
 12 13  1  0  0  0  0 
 13 14  1  0  0  0  0 
 13 15  2  0  0  0  0 
 15 16  1  0  0  0  0 
 16 17  1  0  0  0  0 
 16 18  2  0  0  0  0 
 11 18  1  0  0  0  0 
  5 18  1  0  0  0  0 
 15 19  1  0  0  0  0 
 12 20  1  0  0  0  0 
 20 21  1  0  0  0  0 
  8 22  1  0  0  0  0 
 22 23  2  0  0  0  0 
 22 24  1  0  0  0  0 
 24 25  1  0  0  0  0 
 24 26  1  0  0  0  0 
 24 27  1  0  0  0  0 
M  END
> <Rank>
11

> <Priority_score>
0.056

> <Reaction_type>
aromatic hydroxylation

> <Parent_ID>
68

> <Parent_InChI>
InChI=1S/C11H10FNO2S/c1-13-6-10(16(2)15)11(14)8-4-3-7(12)5-9(8)13/h3-6H,1-2H3

> <Parent_SMILES>
Cn1cc(S(C)=O)c(=O)c2ccc(F)cc21

$$$$
Molecule 68_metabolite 12
  CDK     0516241031

 27 28  0  0  0  0  0  0  0  0999 V2000
    1.3000   -3.0000    0.0000 C   0  0  0  0  0  0  0  0  0  0  0  0
    2.5990   -3.7500    0.0000 H   0  0  0  0  0  0  0  0  0  0  0  0
   -0.1772   -2.7395    0.0000 H   0  0  0  0  0  0  0  0  0  0  0  0
    0.7870   -4.4095    0.0000 H   0  0  0  0  0  0  0  0  0  0  0  0
    1.3000   -1.5000    0.0000 N   0  0  0  0  0  0  0  0  0  0  0  0
    2.6000   -0.7500    0.0000 C   0  0  0  0  0  0  0  0  0  0  0  0
    3.8989   -1.5002    0.0000 H   0  0  0  0  0  0  0  0  0  0  0  0
    2.6000    0.7500    0.0000 C   0  0  0  0  0  0  0  0  0  0  0  0
    1.3000    1.5000    0.0000 C   0  0  0  0  0  0  0  0  0  0  0  0
    1.3000    3.0000    0.0000 O   0  0  0  0  0  0  0  0  0  0  0  0
   -0.0000    0.7500    0.0000 C   0  0  0  0  0  0  0  0  0  0  0  0
   -1.3000    1.5000    0.0000 C   0  0  0  0  0  0  0  0  0  0  0  0
   -1.3000    3.0000    0.0000 H   0  0  0  0  0  0  0  0  0  0  0  0
   -2.6000    0.7500    0.0000 C   0  0  0  0  0  0  0  0  0  0  0  0
   -3.8989    1.5002    0.0000 H   0  0  0  0  0  0  0  0  0  0  0  0
   -2.6000   -0.7500    0.0000 C   0  0  0  0  0  0  0  0  0  0  0  0
   -1.3000   -1.5000    0.0000 C   0  0  0  0  0  0  0  0  0  0  0  0
   -1.3000   -3.0000    0.0000 H   0  0  0  0  0  0  0  0  0  0  0  0
   -0.0000   -0.7500    0.0000 C   0  0  0  0  0  0  0  0  0  0  0  0
   -3.8989   -1.5002    0.0000 O   0  0  0  0  0  0  0  0  0  0  0  0
   -5.1981   -0.7504    0.0000 H   0  0  0  0  0  0  0  0  0  0  0  0
    3.8989    1.5002    0.0000 S   0  0  0  0  0  0  0  0  0  0  0  0
    3.8987    3.0002    0.0000 O   0  0  0  0  0  0  0  0  0  0  0  0
    5.1981    0.7504    0.0000 C   0  0  0  0  0  0  0  0  0  0  0  0
    6.4970    1.5006    0.0000 H   0  0  0  0  0  0  0  0  0  0  0  0
    4.2341   -0.3988    0.0000 H   0  0  0  0  0  0  0  0  0  0  0  0
    6.1624   -0.3985    0.0000 H   0  0  0  0  0  0  0  0  0  0  0  0
  1  2  1  0  0  0  0 
  1  3  1  0  0  0  0 
  1  4  1  0  0  0  0 
  1  5  1  0  0  0  0 
  5  6  1  0  0  0  0 
  6  7  1  0  0  0  0 
  6  8  2  0  0  0  0 
  8  9  1  0  0  0  0 
  9 10  2  0  0  0  0 
  9 11  1  0  0  0  0 
 11 12  2  0  0  0  0 
 12 13  1  0  0  0  0 
 12 14  1  0  0  0  0 
 14 15  1  0  0  0  0 
 14 16  2  0  0  0  0 
 16 17  1  0  0  0  0 
 17 18  1  0  0  0  0 
 17 19  2  0  0  0  0 
 11 19  1  0  0  0  0 
  5 19  1  0  0  0  0 
 16 20  1  0  0  0  0 
 20 21  1  0  0  0  0 
  8 22  1  0  0  0  0 
 22 23  2  0  0  0  0 
 22 24  1  0  0  0  0 
 24 25  1  0  0  0  0 
 24 26  1  0  0  0  0 
 24 27  1  0  0  0  0 
M  END
> <Rank>
12

> <Priority_score>
0.024800000000000003

> <Reaction_type>
oxidative dehalogenation benzyl

> <Parent_ID>
68

> <Parent_InChI>
InChI=1S/C11H10FNO2S/c1-13-6-10(16(2)15)11(14)8-4-3-7(12)5-9(8)13/h3-6H,1-2H3

> <Parent_SMILES>
Cn1cc(S(C)=O)c(=O)c2ccc(F)cc21

$$$$
Molecule 69
  CDK     0516241031

 27 30  0  0  0  0  0  0  0  0999 V2000
    2.6377    0.8500    0.0000 C   0  0  0  0  0  0  0  0  0  0  0  0
    1.2100    0.3900    0.0000 N   0  0  0  0  0  0  0  0  0  0  0  0
    0.0000    1.2800    0.0000 N   0  0  0  0  0  0  0  0  0  0  0  0
   -1.2100    0.3900    0.0000 C   0  0  0  0  0  0  0  0  0  0  0  0
   -2.6377    0.8500    0.0000 C   0  0  0  0  0  0  0  0  0  0  0  0
   -3.7507   -0.1569    0.0000 N   0  0  0  0  0  0  0  0  0  0  0  0
   -5.1795    0.3027    0.0000 C   0  0  0  0  0  0  0  0  0  0  0  0
   -5.4952    1.7691    0.0000 C   0  0  0  0  0  0  0  0  0  0  0  0
   -4.3822    2.7759    0.0000 C   0  0  0  0  0  0  0  0  0  0  0  0
   -2.9535    2.3164    0.0000 C   0  0  0  0  0  0  0  0  0  0  0  0
   -6.9230    2.2290    0.0000 C   0  0  0  0  0  0  0  0  0  0  0  0
   -8.0360    1.2222    0.0000 C   0  0  0  0  0  0  0  0  0  0  0  0
   -9.4647    1.6817    0.0000 C   0  0  0  0  0  0  0  0  0  0  0  0
   -9.7805    3.1481    0.0000 C   0  0  0  0  0  0  0  0  0  0  0  0
   -8.6675    4.1550    0.0000 C   0  0  0  0  0  0  0  0  0  0  0  0
   -7.2387    3.6954    0.0000 C   0  0  0  0  0  0  0  0  0  0  0  0
  -11.2082    3.6081    0.0000 N   0  0  0  0  0  0  0  0  0  0  0  0
  -12.4199    2.7239    0.0000 C   0  0  0  0  0  0  0  0  0  0  0  0
  -13.6285    3.5999    0.0000 C   0  0  2  0  0  0  0  0  0  0  0  0
  -15.0530    3.1299    0.0000 C   0  0  0  0  0  0  0  0  0  0  0  0
  -16.1722    4.1285    0.0000 O   0  0  0  0  0  0  0  0  0  0  0  0
  -13.1757    5.0320    0.0000 O   0  0  0  0  0  0  0  0  0  0  0  0
  -11.6736    5.0263    0.0000 C   0  0  0  0  0  0  0  0  0  0  0  0
  -10.7914    6.2395    0.0000 O   0  0  0  0  0  0  0  0  0  0  0  0
   -7.7202   -0.2442    0.0000 F   0  0  0  0  0  0  0  0  0  0  0  0
   -0.7500   -1.0300    0.0000 N   0  0  0  0  0  0  0  0  0  0  0  0
    0.7500   -1.0300    0.0000 N   0  0  0  0  0  0  0  0  0  0  0  0
  1  2  1  0  0  0  0 
  2  3  1  0  0  0  0 
  3  4  2  0  0  0  0 
  4  5  1  0  0  0  0 
  5  6  2  0  0  0  0 
  6  7  1  0  0  0  0 
  7  8  2  0  0  0  0 
  8  9  1  0  0  0  0 
  9 10  2  0  0  0  0 
  5 10  1  0  0  0  0 
  8 11  1  0  0  0  0 
 11 12  2  0  0  0  0 
 12 13  1  0  0  0  0 
 13 14  2  0  0  0  0 
 14 15  1  0  0  0  0 
 15 16  2  0  0  0  0 
 11 16  1  0  0  0  0 
 14 17  1  0  0  0  0 
 17 18  1  0  0  0  0 
 18 19  1  0  0  0  0 
 19 20  1  6  0  0  0 
 20 21  1  0  0  0  0 
 19 22  1  0  0  0  0 
 22 23  1  0  0  0  0 
 17 23  1  0  0  0  0 
 23 24  2  0  0  0  0 
 12 25  1  0  0  0  0 
  4 26  1  0  0  0  0 
 26 27  2  0  0  0  0 
  2 27  1  0  0  0  0 
M  END
> <SMILES>
Cn1nnc(-c2ccc(-c3ccc(N4C[C@H](CO)OC4=O)cc3F)cn2)n1

$$$$
Molecule 69_metabolite 1
  CDK     0516241031

 46 49  0  0  0  0  0  0  0  0999 V2000
  -13.6141    8.0302    0.0000 C   0  0  0  0  0  0  0  0  0  0  0  0
  -14.0741    9.4579    0.0000 H   0  0  0  0  0  0  0  0  0  0  0  0
  -15.1000    7.8251    0.0000 H   0  0  0  0  0  0  0  0  0  0  0  0
  -13.6702    6.5313    0.0000 H   0  0  0  0  0  0  0  0  0  0  0  0
  -12.1477    7.7147    0.0000 N   0  0  0  0  0  0  0  0  0  0  0  0
  -11.5448    6.3389    0.0000 N   0  0  0  0  0  0  0  0  0  0  0  0
  -10.0519    6.5047    0.0000 C   0  0  0  0  0  0  0  0  0  0  0  0
   -9.0454    5.3925    0.0000 C   0  0  0  0  0  0  0  0  0  0  0  0
   -7.5781    5.7079    0.0000 N   0  0  0  0  0  0  0  0  0  0  0  0
   -6.5706    4.5956    0.0000 C   0  0  0  0  0  0  0  0  0  0  0  0
   -5.1042    4.9116    0.0000 H   0  0  0  0  0  0  0  0  0  0  0  0
   -7.0303    3.1678    0.0000 C   0  0  0  0  0  0  0  0  0  0  0  0
   -8.4976    2.8523    0.0000 C   0  0  0  0  0  0  0  0  0  0  0  0
   -8.9573    1.4245    0.0000 H   0  0  0  0  0  0  0  0  0  0  0  0
   -9.5052    3.9647    0.0000 C   0  0  0  0  0  0  0  0  0  0  0  0
  -10.9715    3.6487    0.0000 H   0  0  0  0  0  0  0  0  0  0  0  0
   -6.0238    2.0556    0.0000 C   0  0  0  0  0  0  0  0  0  0  0  0
   -4.5565    2.3710    0.0000 C   0  0  0  0  0  0  0  0  0  0  0  0
   -3.5490    1.2587    0.0000 C   0  0  0  0  0  0  0  0  0  0  0  0
   -2.0826    1.5747    0.0000 H   0  0  0  0  0  0  0  0  0  0  0  0
   -4.0087   -0.1691    0.0000 C   0  0  0  0  0  0  0  0  0  0  0  0
   -5.4760   -0.4846    0.0000 C   0  0  0  0  0  0  0  0  0  0  0  0
   -5.9358   -1.9124    0.0000 H   0  0  0  0  0  0  0  0  0  0  0  0
   -6.4836    0.6278    0.0000 C   0  0  0  0  0  0  0  0  0  0  0  0
   -7.9499    0.3118    0.0000 H   0  0  0  0  0  0  0  0  0  0  0  0
   -3.0022   -1.2814    0.0000 N   0  0  0  0  0  0  0  0  0  0  0  0
   -1.5108   -1.1215    0.0000 C   0  0  0  0  0  0  0  0  0  0  0  0
   -0.0849   -0.6559    0.0000 H   0  0  0  0  0  0  0  0  0  0  0  0
   -1.8252    0.3452    0.0000 H   0  0  0  0  0  0  0  0  0  0  0  0
   -0.9021   -2.4844    0.0000 C   0  0  2  0  0  0  0  0  0  0  0  0
   -0.0135   -3.6929    0.0000 H   0  0  0  0  0  0  0  0  0  0  0  0
    0.8093   -1.4886    0.0000 C   0  0  0  0  0  0  0  0  0  0  0  0
    2.2856   -1.2230    0.0000 H   0  0  0  0  0  0  0  0  0  0  0  0
    1.3271   -2.8963    0.0000 H   0  0  0  0  0  0  0  0  0  0  0  0
    0.8041    0.0114    0.0000 O   0  0  0  0  0  0  0  0  0  0  0  0
    2.1006    0.7659    0.0000 S   0  0  0  0  0  0  0  0  0  0  0  0
    1.1325    1.9116    0.0000 O   0  0  0  0  0  0  0  0  0  0  0  0
    3.0609    1.9182    0.0000 O   0  0  0  0  0  0  0  0  0  0  0  0
    3.4022    0.0203    0.0000 O   0  0  0  0  0  0  0  0  0  0  0  0
    4.6987    0.7747    0.0000 H   0  0  0  0  0  0  0  0  0  0  0  0
   -2.0103   -3.4983    0.0000 O   0  0  0  0  0  0  0  0  0  0  0  0
   -3.3083   -2.7423    0.0000 C   0  0  0  0  0  0  0  0  0  0  0  0
   -4.6789   -3.3518    0.0000 O   0  0  0  0  0  0  0  0  0  0  0  0
   -4.0968    3.7988    0.0000 F   0  0  0  0  0  0  0  0  0  0  0  0
   -9.7403    7.9644    0.0000 N   0  0  0  0  0  0  0  0  0  0  0  0
  -11.0393    8.7144    0.0000 N   0  0  0  0  0  0  0  0  0  0  0  0
  1  2  1  0  0  0  0 
  1  3  1  0  0  0  0 
  1  4  1  0  0  0  0 
  1  5  1  0  0  0  0 
  5  6  1  0  0  0  0 
  6  7  2  0  0  0  0 
  7  8  1  0  0  0  0 
  8  9  2  0  0  0  0 
  9 10  1  0  0  0  0 
 10 11  1  0  0  0  0 
 10 12  2  0  0  0  0 
 12 13  1  0  0  0  0 
 13 14  1  0  0  0  0 
 13 15  2  0  0  0  0 
  8 15  1  0  0  0  0 
 15 16  1  0  0  0  0 
 12 17  1  0  0  0  0 
 17 18  2  0  0  0  0 
 18 19  1  0  0  0  0 
 19 20  1  0  0  0  0 
 19 21  2  0  0  0  0 
 21 22  1  0  0  0  0 
 22 23  1  0  0  0  0 
 22 24  2  0  0  0  0 
 17 24  1  0  0  0  0 
 24 25  1  0  0  0  0 
 21 26  1  0  0  0  0 
 26 27  1  0  0  0  0 
 27 28  1  0  0  0  0 
 27 29  1  0  0  0  0 
 27 30  1  0  0  0  0 
 30 31  1  1  0  0  0 
 30 32  1  0  0  0  0 
 32 33  1  0  0  0  0 
 32 34  1  0  0  0  0 
 32 35  1  0  0  0  0 
 35 36  1  0  0  0  0 
 36 37  2  0  0  0  0 
 36 38  2  0  0  0  0 
 36 39  1  0  0  0  0 
 39 40  1  0  0  0  0 
 30 41  1  6  0  0  0 
 41 42  1  0  0  0  0 
 26 42  1  0  0  0  0 
 42 43  2  0  0  0  0 
 18 44  1  0  0  0  0 
  7 45  1  0  0  0  0 
 45 46  2  0  0  0  0 
  5 46  1  0  0  0  0 
M  END
> <Rank>
1

> <Priority_score>
0.944

> <Reaction_type>
sulfation_(aliphatic_hydroxyl)

> <Parent_ID>
69

> <Parent_InChI>
InChI=1S/C17H15FN6O3/c1-23-21-16(20-22-23)15-5-2-10(7-19-15)13-4-3-11(6-14(13)18)24-8-12(9-25)27-17(24)26/h2-7,12,25H,8-9H2,1H3

> <Parent_SMILES>
Cn1nnc(-c2ccc(-c3ccc(N4C[C@H](CO)OC4=O)cc3F)cn2)n1

$$$$
Molecule 69_metabolite 2
  CDK     0516241031

 62 66  0  0  0  0  0  0  0  0999 V2000
    2.0652   -3.1905    0.0000 C   0  0  0  0  0  0  0  0  0  0  0  0
    2.5251   -4.6182    0.0000 H   0  0  0  0  0  0  0  0  0  0  0  0
    3.5511   -2.9854    0.0000 H   0  0  0  0  0  0  0  0  0  0  0  0
    2.1212   -1.6916    0.0000 H   0  0  0  0  0  0  0  0  0  0  0  0
    0.5987   -2.8750    0.0000 N   0  0  0  0  0  0  0  0  0  0  0  0
   -0.0042   -1.4992    0.0000 N   0  0  0  0  0  0  0  0  0  0  0  0
   -1.4971   -1.6650    0.0000 C   0  0  0  0  0  0  0  0  0  0  0  0
   -2.5035   -0.5528    0.0000 C   0  0  0  0  0  0  0  0  0  0  0  0
   -3.9708   -0.8682    0.0000 N   0  0  0  0  0  0  0  0  0  0  0  0
   -4.9784    0.2441    0.0000 C   0  0  0  0  0  0  0  0  0  0  0  0
   -6.4447   -0.0719    0.0000 H   0  0  0  0  0  0  0  0  0  0  0  0
   -4.5187    1.6719    0.0000 C   0  0  0  0  0  0  0  0  0  0  0  0
   -3.0513    1.9874    0.0000 C   0  0  0  0  0  0  0  0  0  0  0  0
   -2.5916    3.4152    0.0000 H   0  0  0  0  0  0  0  0  0  0  0  0
   -2.0438    0.8750    0.0000 C   0  0  0  0  0  0  0  0  0  0  0  0
   -0.5774    1.1910    0.0000 H   0  0  0  0  0  0  0  0  0  0  0  0
   -5.5251    2.7841    0.0000 C   0  0  0  0  0  0  0  0  0  0  0  0
   -6.9924    2.4687    0.0000 C   0  0  0  0  0  0  0  0  0  0  0  0
   -8.0000    3.5810    0.0000 C   0  0  0  0  0  0  0  0  0  0  0  0
   -9.4663    3.2650    0.0000 H   0  0  0  0  0  0  0  0  0  0  0  0
   -7.5402    5.0088    0.0000 C   0  0  0  0  0  0  0  0  0  0  0  0
   -6.0729    5.3243    0.0000 C   0  0  0  0  0  0  0  0  0  0  0  0
   -5.6132    6.7521    0.0000 H   0  0  0  0  0  0  0  0  0  0  0  0
   -5.0654    4.2120    0.0000 C   0  0  0  0  0  0  0  0  0  0  0  0
   -3.5990    4.5279    0.0000 H   0  0  0  0  0  0  0  0  0  0  0  0
   -8.5467    6.1211    0.0000 N   0  0  0  0  0  0  0  0  0  0  0  0
  -10.0382    5.9612    0.0000 C   0  0  0  0  0  0  0  0  0  0  0  0
  -11.9204    5.3466    0.0000 H   0  0  0  0  0  0  0  0  0  0  0  0
   -9.7237    4.4945    0.0000 H   0  0  0  0  0  0  0  0  0  0  0  0
  -10.6469    7.3241    0.0000 C   0  0  2  0  0  0  0  0  0  0  0  0
  -11.5354    8.5326    0.0000 H   0  0  0  0  0  0  0  0  0  0  0  0
  -13.1880    5.8454    0.0000 C   0  0  0  0  0  0  0  0  0  0  0  0
  -14.1482    4.6931    0.0000 H   0  0  0  0  0  0  0  0  0  0  0  0
  -11.6003    3.9664    0.0000 H   0  0  0  0  0  0  0  0  0  0  0  0
  -14.9061    6.8296    0.0000 O   0  0  0  0  0  0  0  0  0  0  0  0
  -16.2025    6.0751    0.0000 C   0  0  0  0  0  0  0  0  0  0  0  0
  -15.2371    4.9271    0.0000 H   0  0  0  0  0  0  0  0  0  0  0  0
  -16.7201    7.4723    0.0000 C   0  0  0  0  0  0  0  0  0  0  0  0
  -16.7299    8.9723    0.0000 H   0  0  0  0  0  0  0  0  0  0  0  0
  -18.2219    7.7265    0.0000 C   0  0  0  0  0  0  0  0  0  0  0  0
  -19.5282    8.4638    0.0000 H   0  0  0  0  0  0  0  0  0  0  0  0
  -19.1770    6.5622    0.0000 C   0  0  0  0  0  0  0  0  0  0  0  0
  -20.4703    5.8024    0.0000 H   0  0  0  0  0  0  0  0  0  0  0  0
  -18.6594    5.1650    0.0000 C   0  0  0  0  0  0  0  0  0  0  0  0
  -18.6505    3.6650    0.0000 H   0  0  0  0  0  0  0  0  0  0  0  0
  -20.6072    4.8098    0.0000 C   0  0  0  0  0  0  0  0  0  0  0  0
  -21.1121    3.3973    0.0000 O   0  0  0  0  0  0  0  0  0  0  0  0
  -21.5781    5.9533    0.0000 O   0  0  0  0  0  0  0  0  0  0  0  0
  -23.0538    5.6842    0.0000 H   0  0  0  0  0  0  0  0  0  0  0  0
  -17.1798    4.9133    0.0000 O   0  0  0  0  0  0  0  0  0  0  0  0
  -20.1518    7.7022    0.0000 O   0  0  0  0  0  0  0  0  0  0  0  0
  -21.6265    7.4280    0.0000 H   0  0  0  0  0  0  0  0  0  0  0  0
  -17.7207    9.1402    0.0000 O   0  0  0  0  0  0  0  0  0  0  0  0
  -18.6944   10.2812    0.0000 H   0  0  0  0  0  0  0  0  0  0  0  0
  -15.2445    7.7418    0.0000 O   0  0  0  0  0  0  0  0  0  0  0  0
  -14.7401    9.1545    0.0000 H   0  0  0  0  0  0  0  0  0  0  0  0
   -9.5386    8.3380    0.0000 O   0  0  0  0  0  0  0  0  0  0  0  0
   -8.2407    7.5820    0.0000 C   0  0  0  0  0  0  0  0  0  0  0  0
   -6.8701    8.1915    0.0000 O   0  0  0  0  0  0  0  0  0  0  0  0
   -7.4522    1.0409    0.0000 F   0  0  0  0  0  0  0  0  0  0  0  0
   -1.8087   -3.1247    0.0000 N   0  0  0  0  0  0  0  0  0  0  0  0
   -0.5097   -3.8747    0.0000 N   0  0  0  0  0  0  0  0  0  0  0  0
  1  2  1  0  0  0  0 
  1  3  1  0  0  0  0 
  1  4  1  0  0  0  0 
  1  5  1  0  0  0  0 
  5  6  1  0  0  0  0 
  6  7  2  0  0  0  0 
  7  8  1  0  0  0  0 
  8  9  2  0  0  0  0 
  9 10  1  0  0  0  0 
 10 11  1  0  0  0  0 
 10 12  2  0  0  0  0 
 12 13  1  0  0  0  0 
 13 14  1  0  0  0  0 
 13 15  2  0  0  0  0 
  8 15  1  0  0  0  0 
 15 16  1  0  0  0  0 
 12 17  1  0  0  0  0 
 17 18  2  0  0  0  0 
 18 19  1  0  0  0  0 
 19 20  1  0  0  0  0 
 19 21  2  0  0  0  0 
 21 22  1  0  0  0  0 
 22 23  1  0  0  0  0 
 22 24  2  0  0  0  0 
 17 24  1  0  0  0  0 
 24 25  1  0  0  0  0 
 21 26  1  0  0  0  0 
 26 27  1  0  0  0  0 
 27 28  1  0  0  0  0 
 27 29  1  0  0  0  0 
 27 30  1  0  0  0  0 
 30 31  1  1  0  0  0 
 30 32  1  0  0  0  0 
 32 33  1  0  0  0  0 
 32 34  1  0  0  0  0 
 32 35  1  0  0  0  0 
 35 36  1  0  0  0  0 
 36 37  1  0  0  0  0 
 36 38  1  0  0  0  0 
 38 39  1  0  0  0  0 
 38 40  1  0  0  0  0 
 40 41  1  0  0  0  0 
 40 42  1  0  0  0  0 
 42 43  1  0  0  0  0 
 42 44  1  0  0  0  0 
 44 45  1  0  0  0  0 
 44 46  1  0  0  0  0 
 46 47  2  0  0  0  0 
 46 48  1  0  0  0  0 
 48 49  1  0  0  0  0 
 44 50  1  0  0  0  0 
 36 50  1  0  0  0  0 
 42 51  1  0  0  0  0 
 51 52  1  0  0  0  0 
 40 53  1  0  0  0  0 
 53 54  1  0  0  0  0 
 38 55  1  0  0  0  0 
 55 56  1  0  0  0  0 
 30 57  1  6  0  0  0 
 57 58  1  0  0  0  0 
 26 58  1  0  0  0  0 
 58 59  2  0  0  0  0 
 18 60  1  0  0  0  0 
  7 61  1  0  0  0  0 
 61 62  2  0  0  0  0 
  5 62  1  0  0  0  0 
M  END
> <Rank>
2

> <Priority_score>
0.64

> <Reaction_type>
O-glucuronidation_(aliphatic_hydroxyl)

> <Parent_ID>
69

> <Parent_InChI>
InChI=1S/C17H15FN6O3/c1-23-21-16(20-22-23)15-5-2-10(7-19-15)13-4-3-11(6-14(13)18)24-8-12(9-25)27-17(24)26/h2-7,12,25H,8-9H2,1H3

> <Parent_SMILES>
Cn1nnc(-c2ccc(-c3ccc(N4C[C@H](CO)OC4=O)cc3F)cn2)n1

$$$$
Molecule 69_metabolite 3
  CDK     0516241031

 43 46  0  0  0  0  0  0  0  0999 V2000
   -7.1995    4.2029    0.0000 C   0  0  0  0  0  0  0  0  0  0  0  0
   -6.8838    2.7365    0.0000 H   0  0  0  0  0  0  0  0  0  0  0  0
   -8.6283    4.6624    0.0000 C   0  0  0  0  0  0  0  0  0  0  0  0
   -9.7402    3.6556    0.0000 H   0  0  0  0  0  0  0  0  0  0  0  0
   -8.9440    6.1288    0.0000 C   0  0  0  0  0  0  0  0  0  0  0  0
   -7.8310    7.1357    0.0000 N   0  0  0  0  0  0  0  0  0  0  0  0
   -6.4023    6.6761    0.0000 C   0  0  0  0  0  0  0  0  0  0  0  0
   -5.2904    7.6829    0.0000 H   0  0  0  0  0  0  0  0  0  0  0  0
   -6.0865    5.2097    0.0000 C   0  0  0  0  0  0  0  0  0  0  0  0
   -4.6588    4.7498    0.0000 C   0  0  0  0  0  0  0  0  0  0  0  0
   -3.5458    5.7566    0.0000 C   0  0  0  0  0  0  0  0  0  0  0  0
   -2.1171    5.2971    0.0000 C   0  0  0  0  0  0  0  0  0  0  0  0
   -1.0052    6.3039    0.0000 H   0  0  0  0  0  0  0  0  0  0  0  0
   -1.8013    3.8307    0.0000 C   0  0  0  0  0  0  0  0  0  0  0  0
   -2.9143    2.8238    0.0000 C   0  0  0  0  0  0  0  0  0  0  0  0
   -2.5985    1.3574    0.0000 H   0  0  0  0  0  0  0  0  0  0  0  0
   -4.3430    3.2834    0.0000 C   0  0  0  0  0  0  0  0  0  0  0  0
   -5.4549    2.2765    0.0000 H   0  0  0  0  0  0  0  0  0  0  0  0
   -0.3736    3.3707    0.0000 N   0  0  0  0  0  0  0  0  0  0  0  0
    0.8382    4.2549    0.0000 C   0  0  0  0  0  0  0  0  0  0  0  0
    2.1609    5.7282    0.0000 H   0  0  0  0  0  0  0  0  0  0  0  0
   -0.1675    5.3678    0.0000 H   0  0  0  0  0  0  0  0  0  0  0  0
    2.0468    3.3789    0.0000 C   0  0  2  0  0  0  0  0  0  0  0  0
    3.4205    2.7766    0.0000 H   0  0  0  0  0  0  0  0  0  0  0  0
    3.5081    5.9300    0.0000 C   0  0  0  0  0  0  0  0  0  0  0  0
    3.7635    7.4081    0.0000 H   0  0  0  0  0  0  0  0  0  0  0  0
    1.6452    6.6009    0.0000 H   0  0  0  0  0  0  0  0  0  0  0  0
    5.0080    5.9352    0.0000 O   0  0  0  0  0  0  0  0  0  0  0  0
    5.7625    4.6387    0.0000 H   0  0  0  0  0  0  0  0  0  0  0  0
    1.5939    1.9467    0.0000 O   0  0  0  0  0  0  0  0  0  0  0  0
    0.0918    1.9525    0.0000 C   0  0  0  0  0  0  0  0  0  0  0  0
   -0.7904    0.7393    0.0000 O   0  0  0  0  0  0  0  0  0  0  0  0
   -3.8616    7.2230    0.0000 F   0  0  0  0  0  0  0  0  0  0  0  0
  -10.3718    6.5888    0.0000 C   0  0  0  0  0  0  0  0  0  0  0  0
  -11.5818    5.6988    0.0000 N   0  0  0  0  0  0  0  0  0  0  0  0
  -12.7918    6.5888    0.0000 N   0  0  0  0  0  0  0  0  0  0  0  0
  -14.2195    6.1288    0.0000 C   0  0  0  0  0  0  0  0  0  0  0  0
  -15.4038    5.2083    0.0000 H   0  0  0  0  0  0  0  0  0  0  0  0
  -13.5186    4.8026    0.0000 H   0  0  0  0  0  0  0  0  0  0  0  0
  -15.3317    7.1353    0.0000 O   0  0  0  0  0  0  0  0  0  0  0  0
  -16.7594    6.6753    0.0000 H   0  0  0  0  0  0  0  0  0  0  0  0
  -12.3318    8.0088    0.0000 N   0  0  0  0  0  0  0  0  0  0  0  0
  -10.8318    8.0088    0.0000 N   0  0  0  0  0  0  0  0  0  0  0  0
  1  2  1  0  0  0  0 
  1  3  2  0  0  0  0 
  3  4  1  0  0  0  0 
  3  5  1  0  0  0  0 
  5  6  2  0  0  0  0 
  6  7  1  0  0  0  0 
  7  8  1  0  0  0  0 
  7  9  2  0  0  0  0 
  1  9  1  0  0  0  0 
  9 10  1  0  0  0  0 
 10 11  2  0  0  0  0 
 11 12  1  0  0  0  0 
 12 13  1  0  0  0  0 
 12 14  2  0  0  0  0 
 14 15  1  0  0  0  0 
 15 16  1  0  0  0  0 
 15 17  2  0  0  0  0 
 10 17  1  0  0  0  0 
 17 18  1  0  0  0  0 
 14 19  1  0  0  0  0 
 19 20  1  0  0  0  0 
 20 21  1  0  0  0  0 
 20 22  1  0  0  0  0 
 20 23  1  0  0  0  0 
 23 24  1  1  0  0  0 
 23 25  1  0  0  0  0 
 25 26  1  0  0  0  0 
 25 27  1  0  0  0  0 
 25 28  1  0  0  0  0 
 28 29  1  0  0  0  0 
 23 30  1  6  0  0  0 
 30 31  1  0  0  0  0 
 19 31  1  0  0  0  0 
 31 32  2  0  0  0  0 
 11 33  1  0  0  0  0 
  5 34  1  0  0  0  0 
 34 35  2  0  0  0  0 
 35 36  1  0  0  0  0 
 36 37  1  0  0  0  0 
 37 38  1  0  0  0  0 
 37 39  1  0  0  0  0 
 37 40  1  0  0  0  0 
 40 41  1  0  0  0  0 
 36 42  1  0  0  0  0 
 42 43  2  0  0  0  0 
 34 43  1  0  0  0  0 
M  END
> <Rank>
3

> <Priority_score>
0.308

> <Reaction_type>
aliphatic hydroxylation

> <Parent_ID>
69

> <Parent_InChI>
InChI=1S/C17H15FN6O3/c1-23-21-16(20-22-23)15-5-2-10(7-19-15)13-4-3-11(6-14(13)18)24-8-12(9-25)27-17(24)26/h2-7,12,25H,8-9H2,1H3

> <Parent_SMILES>
Cn1nnc(-c2ccc(-c3ccc(N4C[C@H](CO)OC4=O)cc3F)cn2)n1

$$$$
Molecule 69_metabolite 4
  CDK     0516241031

 39 42  0  0  0  0  0  0  0  0999 V2000
   -9.2558    2.7403    0.0000 C   0  0  0  0  0  0  0  0  0  0  0  0
   -8.2492    1.6283    0.0000 H   0  0  0  0  0  0  0  0  0  0  0  0
  -10.7229    2.4239    0.0000 C   0  0  0  0  0  0  0  0  0  0  0  0
  -11.1825    0.9960    0.0000 H   0  0  0  0  0  0  0  0  0  0  0  0
  -11.7296    3.5360    0.0000 C   0  0  0  0  0  0  0  0  0  0  0  0
  -11.2691    4.9644    0.0000 N   0  0  0  0  0  0  0  0  0  0  0  0
   -9.8020    5.2808    0.0000 C   0  0  0  0  0  0  0  0  0  0  0  0
   -9.3425    6.7087    0.0000 H   0  0  0  0  0  0  0  0  0  0  0  0
   -8.7954    4.1688    0.0000 C   0  0  0  0  0  0  0  0  0  0  0  0
   -7.3289    4.4843    0.0000 C   0  0  0  0  0  0  0  0  0  0  0  0
   -6.8685    5.9127    0.0000 C   0  0  0  0  0  0  0  0  0  0  0  0
   -5.4014    6.2291    0.0000 C   0  0  0  0  0  0  0  0  0  0  0  0
   -4.9419    7.6570    0.0000 H   0  0  0  0  0  0  0  0  0  0  0  0
   -4.3947    5.1171    0.0000 C   0  0  0  0  0  0  0  0  0  0  0  0
   -4.8552    3.6886    0.0000 C   0  0  0  0  0  0  0  0  0  0  0  0
   -3.8486    2.5766    0.0000 H   0  0  0  0  0  0  0  0  0  0  0  0
   -6.3223    3.3722    0.0000 C   0  0  0  0  0  0  0  0  0  0  0  0
   -6.7818    1.9443    0.0000 H   0  0  0  0  0  0  0  0  0  0  0  0
   -2.9283    5.4326    0.0000 N   0  0  0  0  0  0  0  0  0  0  0  0
   -2.3210    6.8042    0.0000 C   0  0  0  0  0  0  0  0  0  0  0  0
   -1.9122    8.7415    0.0000 H   0  0  0  0  0  0  0  0  0  0  0  0
   -3.7484    7.2652    0.0000 H   0  0  0  0  0  0  0  0  0  0  0  0
   -0.8363    6.6499    0.0000 C   0  0  2  0  0  0  0  0  0  0  0  0
    0.6545    6.8151    0.0000 H   0  0  0  0  0  0  0  0  0  0  0  0
   -0.8464    9.5899    0.0000 C   0  0  0  0  0  0  0  0  0  0  0  0
   -1.3642   10.9976    0.0000 H   0  0  0  0  0  0  0  0  0  0  0  0
   -2.7951    9.2394    0.0000 H   0  0  0  0  0  0  0  0  0  0  0  0
    0.4501   10.3443    0.0000 O   0  0  0  0  0  0  0  0  0  0  0  0
    1.7517    9.5987    0.0000 H   0  0  0  0  0  0  0  0  0  0  0  0
   -0.5124    5.1831    0.0000 O   0  0  0  0  0  0  0  0  0  0  0  0
   -1.8161    4.4371    0.0000 C   0  0  0  0  0  0  0  0  0  0  0  0
   -1.9736    2.9454    0.0000 O   0  0  0  0  0  0  0  0  0  0  0  0
   -7.8751    7.0248    0.0000 F   0  0  0  0  0  0  0  0  0  0  0  0
  -13.1960    3.2204    0.0000 C   0  0  0  0  0  0  0  0  0  0  0  0
  -13.7989    1.8447    0.0000 N   0  0  0  0  0  0  0  0  0  0  0  0
  -15.2918    2.0104    0.0000 N   0  0  0  0  0  0  0  0  0  0  0  0
  -16.2983    0.8982    0.0000 H   0  0  0  0  0  0  0  0  0  0  0  0
  -15.6034    3.4702    0.0000 N   0  0  0  0  0  0  0  0  0  0  0  0
  -14.3044    4.2202    0.0000 N   0  0  0  0  0  0  0  0  0  0  0  0
  1  2  1  0  0  0  0 
  1  3  2  0  0  0  0 
  3  4  1  0  0  0  0 
  3  5  1  0  0  0  0 
  5  6  2  0  0  0  0 
  6  7  1  0  0  0  0 
  7  8  1  0  0  0  0 
  7  9  2  0  0  0  0 
  1  9  1  0  0  0  0 
  9 10  1  0  0  0  0 
 10 11  2  0  0  0  0 
 11 12  1  0  0  0  0 
 12 13  1  0  0  0  0 
 12 14  2  0  0  0  0 
 14 15  1  0  0  0  0 
 15 16  1  0  0  0  0 
 15 17  2  0  0  0  0 
 10 17  1  0  0  0  0 
 17 18  1  0  0  0  0 
 14 19  1  0  0  0  0 
 19 20  1  0  0  0  0 
 20 21  1  0  0  0  0 
 20 22  1  0  0  0  0 
 20 23  1  0  0  0  0 
 23 24  1  1  0  0  0 
 23 25  1  0  0  0  0 
 25 26  1  0  0  0  0 
 25 27  1  0  0  0  0 
 25 28  1  0  0  0  0 
 28 29  1  0  0  0  0 
 23 30  1  6  0  0  0 
 30 31  1  0  0  0  0 
 19 31  1  0  0  0  0 
 31 32  2  0  0  0  0 
 11 33  1  0  0  0  0 
  5 34  1  0  0  0  0 
 34 35  2  0  0  0  0 
 35 36  1  0  0  0  0 
 36 37  1  0  0  0  0 
 36 38  1  0  0  0  0 
 38 39  2  0  0  0  0 
 34 39  1  0  0  0  0 
M  END
> <Rank>
3

> <Priority_score>
0.308

> <Reaction_type>
N-demethylation_(nCH3)

> <Parent_ID>
69

> <Parent_InChI>
InChI=1S/C17H15FN6O3/c1-23-21-16(20-22-23)15-5-2-10(7-19-15)13-4-3-11(6-14(13)18)24-8-12(9-25)27-17(24)26/h2-7,12,25H,8-9H2,1H3

> <Parent_SMILES>
Cn1nnc(-c2ccc(-c3ccc(N4C[C@H](CO)OC4=O)cc3F)cn2)n1

$$$$
Molecule 69_metabolite 5
  CDK     0516241031

 43 46  0  0  0  0  0  0  0  0999 V2000
  -15.5962    1.7395    0.0000 C   0  0  0  0  0  0  0  0  0  0  0  0
  -16.2082    0.3700    0.0000 H   0  0  0  0  0  0  0  0  0  0  0  0
  -15.4895    3.2357    0.0000 H   0  0  0  0  0  0  0  0  0  0  0  0
  -17.0512    2.1044    0.0000 H   0  0  0  0  0  0  0  0  0  0  0  0
  -14.1042    1.8943    0.0000 N   0  0  0  0  0  0  0  0  0  0  0  0
  -12.6113    1.7285    0.0000 N   0  0  0  0  0  0  0  0  0  0  0  0
  -12.0084    3.1043    0.0000 C   0  0  0  0  0  0  0  0  0  0  0  0
  -10.5420    3.4198    0.0000 C   0  0  0  0  0  0  0  0  0  0  0  0
  -10.0815    4.8483    0.0000 N   0  0  0  0  0  0  0  0  0  0  0  0
   -8.6144    5.1647    0.0000 C   0  0  0  0  0  0  0  0  0  0  0  0
   -8.1549    6.5925    0.0000 H   0  0  0  0  0  0  0  0  0  0  0  0
   -7.6078    4.0526    0.0000 C   0  0  0  0  0  0  0  0  0  0  0  0
   -8.0682    2.6241    0.0000 C   0  0  0  0  0  0  0  0  0  0  0  0
   -7.0616    1.5121    0.0000 H   0  0  0  0  0  0  0  0  0  0  0  0
   -9.5353    2.3077    0.0000 C   0  0  0  0  0  0  0  0  0  0  0  0
   -9.9949    0.8799    0.0000 H   0  0  0  0  0  0  0  0  0  0  0  0
   -6.1413    4.3681    0.0000 C   0  0  0  0  0  0  0  0  0  0  0  0
   -5.6809    5.7966    0.0000 C   0  0  0  0  0  0  0  0  0  0  0  0
   -4.2138    6.1130    0.0000 C   0  0  0  0  0  0  0  0  0  0  0  0
   -3.7543    7.5409    0.0000 H   0  0  0  0  0  0  0  0  0  0  0  0
   -3.2071    5.0009    0.0000 C   0  0  0  0  0  0  0  0  0  0  0  0
   -3.6676    3.5725    0.0000 C   0  0  0  0  0  0  0  0  0  0  0  0
   -2.6609    2.4604    0.0000 H   0  0  0  0  0  0  0  0  0  0  0  0
   -5.1347    3.2561    0.0000 C   0  0  0  0  0  0  0  0  0  0  0  0
   -5.5942    1.8282    0.0000 H   0  0  0  0  0  0  0  0  0  0  0  0
   -1.7407    5.3164    0.0000 N   0  0  0  0  0  0  0  0  0  0  0  0
   -1.1334    6.6880    0.0000 C   0  0  0  0  0  0  0  0  0  0  0  0
   -0.7246    8.6253    0.0000 H   0  0  0  0  0  0  0  0  0  0  0  0
   -2.5608    7.1490    0.0000 H   0  0  0  0  0  0  0  0  0  0  0  0
    0.3513    6.5337    0.0000 C   0  0  2  0  0  0  0  0  0  0  0  0
    1.8421    6.6989    0.0000 H   0  0  0  0  0  0  0  0  0  0  0  0
    0.3412    9.4737    0.0000 C   0  0  0  0  0  0  0  0  0  0  0  0
   -0.1766   10.8815    0.0000 H   0  0  0  0  0  0  0  0  0  0  0  0
   -1.6075    9.1232    0.0000 H   0  0  0  0  0  0  0  0  0  0  0  0
    1.6377   10.2281    0.0000 O   0  0  0  0  0  0  0  0  0  0  0  0
    2.9393    9.4826    0.0000 H   0  0  0  0  0  0  0  0  0  0  0  0
    0.6752    5.0670    0.0000 O   0  0  0  0  0  0  0  0  0  0  0  0
   -0.6285    4.3209    0.0000 C   0  0  0  0  0  0  0  0  0  0  0  0
   -0.7860    2.8292    0.0000 O   0  0  0  0  0  0  0  0  0  0  0  0
   -6.6875    6.9086    0.0000 F   0  0  0  0  0  0  0  0  0  0  0  0
  -13.1168    4.1040    0.0000 N   0  0  0  0  0  0  0  0  0  0  0  0
  -14.4158    3.3540    0.0000 N   0  0  0  0  0  0  0  0  0  0  0  0
  -14.1096    0.3943    0.0000 O   0  0  0  0  0  0  0  0  0  0  0  0
  1  2  1  0  0  0  0 
  1  3  1  0  0  0  0 
  1  4  1  0  0  0  0 
  1  5  1  0  0  0  0 
  5  6  1  0  0  0  0 
  6  7  2  0  0  0  0 
  7  8  1  0  0  0  0 
  8  9  2  0  0  0  0 
  9 10  1  0  0  0  0 
 10 11  1  0  0  0  0 
 10 12  2  0  0  0  0 
 12 13  1  0  0  0  0 
 13 14  1  0  0  0  0 
 13 15  2  0  0  0  0 
  8 15  1  0  0  0  0 
 15 16  1  0  0  0  0 
 12 17  1  0  0  0  0 
 17 18  2  0  0  0  0 
 18 19  1  0  0  0  0 
 19 20  1  0  0  0  0 
 19 21  2  0  0  0  0 
 21 22  1  0  0  0  0 
 22 23  1  0  0  0  0 
 22 24  2  0  0  0  0 
 17 24  1  0  0  0  0 
 24 25  1  0  0  0  0 
 21 26  1  0  0  0  0 
 26 27  1  0  0  0  0 
 27 28  1  0  0  0  0 
 27 29  1  0  0  0  0 
 27 30  1  0  0  0  0 
 30 31  1  1  0  0  0 
 30 32  1  0  0  0  0 
 32 33  1  0  0  0  0 
 32 34  1  0  0  0  0 
 32 35  1  0  0  0  0 
 35 36  1  0  0  0  0 
 30 37  1  6  0  0  0 
 37 38  1  0  0  0  0 
 26 38  1  0  0  0  0 
 38 39  2  0  0  0  0 
 18 40  1  0  0  0  0 
  7 41  1  0  0  0  0 
 41 42  2  0  0  0  0 
  5 42  1  0  0  0  0 
  5 43  1  0  0  0  0 
M  CHG  1   5   1
M  CHG  1  43  -1
M  END
> <Rank>
3

> <Priority_score>
0.308

> <Reaction_type>
N-oxidation

> <Parent_ID>
69

> <Parent_InChI>
InChI=1S/C17H15FN6O3/c1-23-21-16(20-22-23)15-5-2-10(7-19-15)13-4-3-11(6-14(13)18)24-8-12(9-25)27-17(24)26/h2-7,12,25H,8-9H2,1H3

> <Parent_SMILES>
Cn1nnc(-c2ccc(-c3ccc(N4C[C@H](CO)OC4=O)cc3F)cn2)n1

$$$$
Molecule 69_metabolite 6
  CDK     0516241031

 40 43  0  0  0  0  0  0  0  0999 V2000
  -12.6357    8.9324    0.0000 C   0  0  0  0  0  0  0  0  0  0  0  0
  -13.0956   10.3602    0.0000 H   0  0  0  0  0  0  0  0  0  0  0  0
  -14.1216    8.7274    0.0000 H   0  0  0  0  0  0  0  0  0  0  0  0
  -12.6918    7.4335    0.0000 H   0  0  0  0  0  0  0  0  0  0  0  0
  -11.1692    8.6169    0.0000 N   0  0  0  0  0  0  0  0  0  0  0  0
  -10.5663    7.2411    0.0000 N   0  0  0  0  0  0  0  0  0  0  0  0
   -9.0735    7.4069    0.0000 C   0  0  0  0  0  0  0  0  0  0  0  0
   -8.0670    6.2947    0.0000 C   0  0  0  0  0  0  0  0  0  0  0  0
   -6.5997    6.6101    0.0000 N   0  0  0  0  0  0  0  0  0  0  0  0
   -5.5921    5.4978    0.0000 C   0  0  0  0  0  0  0  0  0  0  0  0
   -4.1258    5.8138    0.0000 H   0  0  0  0  0  0  0  0  0  0  0  0
   -6.0519    4.0700    0.0000 C   0  0  0  0  0  0  0  0  0  0  0  0
   -7.5192    3.7545    0.0000 C   0  0  0  0  0  0  0  0  0  0  0  0
   -7.9789    2.3267    0.0000 H   0  0  0  0  0  0  0  0  0  0  0  0
   -8.5267    4.8669    0.0000 C   0  0  0  0  0  0  0  0  0  0  0  0
   -9.9931    4.5509    0.0000 H   0  0  0  0  0  0  0  0  0  0  0  0
   -5.0454    2.9578    0.0000 C   0  0  0  0  0  0  0  0  0  0  0  0
   -3.5781    3.2732    0.0000 C   0  0  0  0  0  0  0  0  0  0  0  0
   -2.5705    2.1609    0.0000 C   0  0  0  0  0  0  0  0  0  0  0  0
   -1.1042    2.4769    0.0000 H   0  0  0  0  0  0  0  0  0  0  0  0
   -3.0303    0.7331    0.0000 C   0  0  0  0  0  0  0  0  0  0  0  0
   -4.4976    0.4176    0.0000 C   0  0  0  0  0  0  0  0  0  0  0  0
   -4.9573   -1.0102    0.0000 H   0  0  0  0  0  0  0  0  0  0  0  0
   -5.5051    1.5300    0.0000 C   0  0  0  0  0  0  0  0  0  0  0  0
   -6.9715    1.2140    0.0000 H   0  0  0  0  0  0  0  0  0  0  0  0
   -2.0238   -0.3791    0.0000 N   0  0  0  0  0  0  0  0  0  0  0  0
   -0.5323   -0.2193    0.0000 C   0  0  0  0  0  0  0  0  0  0  0  0
    0.8936    0.2463    0.0000 H   0  0  0  0  0  0  0  0  0  0  0  0
   -0.8468    1.2474    0.0000 H   0  0  0  0  0  0  0  0  0  0  0  0
    0.0764   -1.5822    0.0000 C   0  0  2  0  0  0  0  0  0  0  0  0
    0.9649   -2.7907    0.0000 H   0  0  0  0  0  0  0  0  0  0  0  0
    1.7877   -0.5863    0.0000 C   0  0  0  0  0  0  0  0  0  0  0  0
    3.0893   -1.3319    0.0000 H   0  0  0  0  0  0  0  0  0  0  0  0
    1.7826    0.9136    0.0000 O   0  0  0  0  0  0  0  0  0  0  0  0
   -1.0319   -2.5961    0.0000 O   0  0  0  0  0  0  0  0  0  0  0  0
   -2.3299   -1.8401    0.0000 C   0  0  0  0  0  0  0  0  0  0  0  0
   -3.7004   -2.4496    0.0000 O   0  0  0  0  0  0  0  0  0  0  0  0
   -3.1183    4.7010    0.0000 F   0  0  0  0  0  0  0  0  0  0  0  0
   -8.7618    8.8667    0.0000 N   0  0  0  0  0  0  0  0  0  0  0  0
  -10.0609    9.6167    0.0000 N   0  0  0  0  0  0  0  0  0  0  0  0
  1  2  1  0  0  0  0 
  1  3  1  0  0  0  0 
  1  4  1  0  0  0  0 
  1  5  1  0  0  0  0 
  5  6  1  0  0  0  0 
  6  7  2  0  0  0  0 
  7  8  1  0  0  0  0 
  8  9  2  0  0  0  0 
  9 10  1  0  0  0  0 
 10 11  1  0  0  0  0 
 10 12  2  0  0  0  0 
 12 13  1  0  0  0  0 
 13 14  1  0  0  0  0 
 13 15  2  0  0  0  0 
  8 15  1  0  0  0  0 
 15 16  1  0  0  0  0 
 12 17  1  0  0  0  0 
 17 18  2  0  0  0  0 
 18 19  1  0  0  0  0 
 19 20  1  0  0  0  0 
 19 21  2  0  0  0  0 
 21 22  1  0  0  0  0 
 22 23  1  0  0  0  0 
 22 24  2  0  0  0  0 
 17 24  1  0  0  0  0 
 24 25  1  0  0  0  0 
 21 26  1  0  0  0  0 
 26 27  1  0  0  0  0 
 27 28  1  0  0  0  0 
 27 29  1  0  0  0  0 
 27 30  1  0  0  0  0 
 30 31  1  1  0  0  0 
 30 32  1  6  0  0  0 
 32 33  1  0  0  0  0 
 32 34  2  0  0  0  0 
 30 35  1  0  0  0  0 
 35 36  1  0  0  0  0 
 26 36  1  0  0  0  0 
 36 37  2  0  0  0  0 
 18 38  1  0  0  0  0 
  7 39  1  0  0  0  0 
 39 40  2  0  0  0  0 
  5 40  1  0  0  0  0 
M  END
> <Rank>
6

> <Priority_score>
0.20376587178693095

> <Reaction_type>
alcohol oxidation

> <Parent_ID>
69

> <Parent_InChI>
InChI=1S/C17H15FN6O3/c1-23-21-16(20-22-23)15-5-2-10(7-19-15)13-4-3-11(6-14(13)18)24-8-12(9-25)27-17(24)26/h2-7,12,25H,8-9H2,1H3

> <Parent_SMILES>
Cn1nnc(-c2ccc(-c3ccc(N4C[C@H](CO)OC4=O)cc3F)cn2)n1

$$$$
Molecule 69_metabolite 7
  CDK     0516241031

 43 46  0  0  0  0  0  0  0  0999 V2000
  -15.7499    4.7760    0.0000 C   0  0  0  0  0  0  0  0  0  0  0  0
  -16.8621    5.7825    0.0000 H   0  0  0  0  0  0  0  0  0  0  0  0
  -16.9342    3.8554    0.0000 H   0  0  0  0  0  0  0  0  0  0  0  0
  -15.0490    3.4498    0.0000 H   0  0  0  0  0  0  0  0  0  0  0  0
  -14.3222    5.2360    0.0000 N   0  0  0  0  0  0  0  0  0  0  0  0
  -13.1122    4.3460    0.0000 N   0  0  0  0  0  0  0  0  0  0  0  0
  -11.9022    5.2360    0.0000 C   0  0  0  0  0  0  0  0  0  0  0  0
  -10.4744    4.7760    0.0000 C   0  0  0  0  0  0  0  0  0  0  0  0
   -9.3614    5.7828    0.0000 N   0  0  0  0  0  0  0  0  0  0  0  0
   -7.9327    5.3233    0.0000 C   0  0  0  0  0  0  0  0  0  0  0  0
   -6.8208    6.3301    0.0000 H   0  0  0  0  0  0  0  0  0  0  0  0
   -7.6169    3.8569    0.0000 C   0  0  0  0  0  0  0  0  0  0  0  0
   -8.7299    2.8501    0.0000 C   0  0  0  0  0  0  0  0  0  0  0  0
   -8.4142    1.3837    0.0000 H   0  0  0  0  0  0  0  0  0  0  0  0
  -10.1587    3.3096    0.0000 C   0  0  0  0  0  0  0  0  0  0  0  0
  -11.2706    2.3028    0.0000 H   0  0  0  0  0  0  0  0  0  0  0  0
   -6.1892    3.3969    0.0000 C   0  0  0  0  0  0  0  0  0  0  0  0
   -5.0762    4.4038    0.0000 C   0  0  0  0  0  0  0  0  0  0  0  0
   -3.6475    3.9442    0.0000 C   0  0  0  0  0  0  0  0  0  0  0  0
   -2.5356    4.9511    0.0000 H   0  0  0  0  0  0  0  0  0  0  0  0
   -3.3317    2.4779    0.0000 C   0  0  0  0  0  0  0  0  0  0  0  0
   -4.4447    1.4710    0.0000 C   0  0  0  0  0  0  0  0  0  0  0  0
   -4.1289    0.0046    0.0000 H   0  0  0  0  0  0  0  0  0  0  0  0
   -5.8734    1.9305    0.0000 C   0  0  0  0  0  0  0  0  0  0  0  0
   -6.9853    0.9237    0.0000 H   0  0  0  0  0  0  0  0  0  0  0  0
   -1.9040    2.0179    0.0000 N   0  0  0  0  0  0  0  0  0  0  0  0
   -0.6922    2.9020    0.0000 C   0  0  0  0  0  0  0  0  0  0  0  0
    0.3098    4.0182    0.0000 H   0  0  0  0  0  0  0  0  0  0  0  0
   -1.6979    4.0150    0.0000 H   0  0  0  0  0  0  0  0  0  0  0  0
    0.5164    2.0261    0.0000 C   0  0  2  0  0  0  0  0  0  0  0  0
    1.8901    1.4238    0.0000 H   0  0  0  0  0  0  0  0  0  0  0  0
    1.5005    3.7442    0.0000 C   0  0  0  0  0  0  0  0  0  0  0  0
    2.6463    4.7123    0.0000 H   0  0  0  0  0  0  0  0  0  0  0  0
    0.7461    5.0407    0.0000 O   0  0  0  0  0  0  0  0  0  0  0  0
   -0.7539    5.0355    0.0000 H   0  0  0  0  0  0  0  0  0  0  0  0
    2.6528    2.7839    0.0000 O   0  0  0  0  0  0  0  0  0  0  0  0
    4.0606    3.3018    0.0000 H   0  0  0  0  0  0  0  0  0  0  0  0
    0.0635    0.5939    0.0000 O   0  0  0  0  0  0  0  0  0  0  0  0
   -1.4386    0.5996    0.0000 C   0  0  0  0  0  0  0  0  0  0  0  0
   -2.3208   -0.6135    0.0000 O   0  0  0  0  0  0  0  0  0  0  0  0
   -5.3920    5.8702    0.0000 F   0  0  0  0  0  0  0  0  0  0  0  0
  -12.3622    6.6560    0.0000 N   0  0  0  0  0  0  0  0  0  0  0  0
  -13.8622    6.6560    0.0000 N   0  0  0  0  0  0  0  0  0  0  0  0
  1  2  1  0  0  0  0 
  1  3  1  0  0  0  0 
  1  4  1  0  0  0  0 
  1  5  1  0  0  0  0 
  5  6  1  0  0  0  0 
  6  7  2  0  0  0  0 
  7  8  1  0  0  0  0 
  8  9  2  0  0  0  0 
  9 10  1  0  0  0  0 
 10 11  1  0  0  0  0 
 10 12  2  0  0  0  0 
 12 13  1  0  0  0  0 
 13 14  1  0  0  0  0 
 13 15  2  0  0  0  0 
  8 15  1  0  0  0  0 
 15 16  1  0  0  0  0 
 12 17  1  0  0  0  0 
 17 18  2  0  0  0  0 
 18 19  1  0  0  0  0 
 19 20  1  0  0  0  0 
 19 21  2  0  0  0  0 
 21 22  1  0  0  0  0 
 22 23  1  0  0  0  0 
 22 24  2  0  0  0  0 
 17 24  1  0  0  0  0 
 24 25  1  0  0  0  0 
 21 26  1  0  0  0  0 
 26 27  1  0  0  0  0 
 27 28  1  0  0  0  0 
 27 29  1  0  0  0  0 
 27 30  1  0  0  0  0 
 30 31  1  1  0  0  0 
 30 32  1  0  0  0  0 
 32 33  1  0  0  0  0 
 32 34  1  0  0  0  0 
 34 35  1  0  0  0  0 
 32 36  1  0  0  0  0 
 36 37  1  0  0  0  0 
 30 38  1  6  0  0  0 
 38 39  1  0  0  0  0 
 26 39  1  0  0  0  0 
 39 40  2  0  0  0  0 
 18 41  1  0  0  0  0 
  7 42  1  0  0  0  0 
 42 43  2  0  0  0  0 
  5 43  1  0  0  0  0 
M  END
> <Rank>
6

> <Priority_score>
0.20376587178693095

> <Reaction_type>
aliphatic hydroxylation

> <Parent_ID>
69

> <Parent_InChI>
InChI=1S/C17H15FN6O3/c1-23-21-16(20-22-23)15-5-2-10(7-19-15)13-4-3-11(6-14(13)18)24-8-12(9-25)27-17(24)26/h2-7,12,25H,8-9H2,1H3

> <Parent_SMILES>
Cn1nnc(-c2ccc(-c3ccc(N4C[C@H](CO)OC4=O)cc3F)cn2)n1

$$$$
Molecule 69_metabolite 8
  CDK     0516241031

 41 44  0  0  0  0  0  0  0  0999 V2000
  -15.0943   -0.0392    0.0000 C   0  0  0  0  0  0  0  0  0  0  0  0
  -16.5608    0.2763    0.0000 H   0  0  0  0  0  0  0  0  0  0  0  0
  -15.6597   -1.4286    0.0000 H   0  0  0  0  0  0  0  0  0  0  0  0
  -13.8242   -0.8373    0.0000 H   0  0  0  0  0  0  0  0  0  0  0  0
  -14.0879    1.0730    0.0000 N   0  0  0  0  0  0  0  0  0  0  0  0
  -12.5950    0.9072    0.0000 N   0  0  0  0  0  0  0  0  0  0  0  0
  -11.9921    2.2830    0.0000 C   0  0  0  0  0  0  0  0  0  0  0  0
  -10.5256    2.5985    0.0000 C   0  0  0  0  0  0  0  0  0  0  0  0
  -10.0652    4.0270    0.0000 N   0  0  0  0  0  0  0  0  0  0  0  0
   -8.5981    4.3434    0.0000 C   0  0  0  0  0  0  0  0  0  0  0  0
   -8.1386    5.7712    0.0000 H   0  0  0  0  0  0  0  0  0  0  0  0
   -7.5914    3.2313    0.0000 C   0  0  0  0  0  0  0  0  0  0  0  0
   -8.0519    1.8029    0.0000 C   0  0  0  0  0  0  0  0  0  0  0  0
   -7.0452    0.6908    0.0000 H   0  0  0  0  0  0  0  0  0  0  0  0
   -9.5190    1.4865    0.0000 C   0  0  0  0  0  0  0  0  0  0  0  0
   -9.9785    0.0586    0.0000 H   0  0  0  0  0  0  0  0  0  0  0  0
   -6.1250    3.5468    0.0000 C   0  0  0  0  0  0  0  0  0  0  0  0
   -5.6645    4.9753    0.0000 C   0  0  0  0  0  0  0  0  0  0  0  0
   -4.1974    5.2917    0.0000 C   0  0  0  0  0  0  0  0  0  0  0  0
   -3.7379    6.7196    0.0000 H   0  0  0  0  0  0  0  0  0  0  0  0
   -3.1908    4.1796    0.0000 C   0  0  0  0  0  0  0  0  0  0  0  0
   -3.6512    2.7512    0.0000 C   0  0  0  0  0  0  0  0  0  0  0  0
   -2.6446    1.6391    0.0000 H   0  0  0  0  0  0  0  0  0  0  0  0
   -5.1183    2.4348    0.0000 C   0  0  0  0  0  0  0  0  0  0  0  0
   -5.5779    1.0069    0.0000 H   0  0  0  0  0  0  0  0  0  0  0  0
   -1.7243    4.4951    0.0000 N   0  0  0  0  0  0  0  0  0  0  0  0
   -1.1170    5.8667    0.0000 C   0  0  0  0  0  0  0  0  0  0  0  0
   -0.8073    7.3344    0.0000 H   0  0  0  0  0  0  0  0  0  0  0  0
   -2.5444    6.3277    0.0000 H   0  0  0  0  0  0  0  0  0  0  0  0
    0.3676    5.7124    0.0000 C   0  0  2  0  0  0  0  0  0  0  0  0
    1.8585    5.8777    0.0000 H   0  0  0  0  0  0  0  0  0  0  0  0
    0.3609    7.6924    0.0000 C   0  0  0  0  0  0  0  0  0  0  0  0
   -0.9407    8.4380    0.0000 O   0  0  0  0  0  0  0  0  0  0  0  0
    1.6573    8.4468    0.0000 O   0  0  0  0  0  0  0  0  0  0  0  0
    2.9589    7.7013    0.0000 H   0  0  0  0  0  0  0  0  0  0  0  0
    0.6915    4.2457    0.0000 O   0  0  0  0  0  0  0  0  0  0  0  0
   -0.6122    3.4996    0.0000 C   0  0  0  0  0  0  0  0  0  0  0  0
   -0.7696    2.0079    0.0000 O   0  0  0  0  0  0  0  0  0  0  0  0
   -6.6712    6.0873    0.0000 F   0  0  0  0  0  0  0  0  0  0  0  0
  -13.1004    3.2827    0.0000 N   0  0  0  0  0  0  0  0  0  0  0  0
  -14.3995    2.5327    0.0000 N   0  0  0  0  0  0  0  0  0  0  0  0
  1  2  1  0  0  0  0 
  1  3  1  0  0  0  0 
  1  4  1  0  0  0  0 
  1  5  1  0  0  0  0 
  5  6  1  0  0  0  0 
  6  7  2  0  0  0  0 
  7  8  1  0  0  0  0 
  8  9  2  0  0  0  0 
  9 10  1  0  0  0  0 
 10 11  1  0  0  0  0 
 10 12  2  0  0  0  0 
 12 13  1  0  0  0  0 
 13 14  1  0  0  0  0 
 13 15  2  0  0  0  0 
  8 15  1  0  0  0  0 
 15 16  1  0  0  0  0 
 12 17  1  0  0  0  0 
 17 18  2  0  0  0  0 
 18 19  1  0  0  0  0 
 19 20  1  0  0  0  0 
 19 21  2  0  0  0  0 
 21 22  1  0  0  0  0 
 22 23  1  0  0  0  0 
 22 24  2  0  0  0  0 
 17 24  1  0  0  0  0 
 24 25  1  0  0  0  0 
 21 26  1  0  0  0  0 
 26 27  1  0  0  0  0 
 27 28  1  0  0  0  0 
 27 29  1  0  0  0  0 
 27 30  1  0  0  0  0 
 30 31  1  1  0  0  0 
 30 32  1  6  0  0  0 
 32 33  2  0  0  0  0 
 32 34  1  0  0  0  0 
 34 35  1  0  0  0  0 
 30 36  1  0  0  0  0 
 36 37  1  0  0  0  0 
 26 37  1  0  0  0  0 
 37 38  2  0  0  0  0 
 18 39  1  0  0  0  0 
  7 40  1  0  0  0  0 
 40 41  2  0  0  0  0 
  5 41  1  0  0  0  0 
M  END
> <Rank>
6

> <Priority_score>
0.20376587178693095

> <Reaction_type>
primary_alcohol_oxidation_(aliphatic)

> <Parent_ID>
69

> <Parent_InChI>
InChI=1S/C17H15FN6O3/c1-23-21-16(20-22-23)15-5-2-10(7-19-15)13-4-3-11(6-14(13)18)24-8-12(9-25)27-17(24)26/h2-7,12,25H,8-9H2,1H3

> <Parent_SMILES>
Cn1nnc(-c2ccc(-c3ccc(N4C[C@H](CO)OC4=O)cc3F)cn2)n1

$$$$
Molecule 69_metabolite 9
  CDK     0516241031

 63 67  0  0  0  0  0  0  0  0999 V2000
  -12.9824   12.9878    0.0000 C   0  0  0  0  0  0  0  0  0  0  0  0
  -13.4424   14.4155    0.0000 H   0  0  0  0  0  0  0  0  0  0  0  0
  -14.4683   12.7827    0.0000 H   0  0  0  0  0  0  0  0  0  0  0  0
  -13.0385   11.4888    0.0000 H   0  0  0  0  0  0  0  0  0  0  0  0
  -11.5160   12.6723    0.0000 N   0  0  0  0  0  0  0  0  0  0  0  0
  -10.9131   11.2965    0.0000 N   0  0  0  0  0  0  0  0  0  0  0  0
   -9.4202   11.4623    0.0000 C   0  0  0  0  0  0  0  0  0  0  0  0
   -8.4137   10.3500    0.0000 C   0  0  0  0  0  0  0  0  0  0  0  0
   -8.8737    8.9214    0.0000 N   0  0  0  0  0  0  0  0  0  0  0  0
   -7.8672    7.8081    0.0000 C   0  0  0  0  0  0  0  0  0  0  0  0
   -8.3277    6.3805    0.0000 H   0  0  0  0  0  0  0  0  0  0  0  0
   -6.4008    8.1234    0.0000 C   0  0  0  0  0  0  0  0  0  0  0  0
   -5.9408    9.5520    0.0000 C   0  0  0  0  0  0  0  0  0  0  0  0
   -4.4743    9.8673    0.0000 H   0  0  0  0  0  0  0  0  0  0  0  0
   -6.9473   10.6653    0.0000 C   0  0  0  0  0  0  0  0  0  0  0  0
   -6.4868   12.0929    0.0000 H   0  0  0  0  0  0  0  0  0  0  0  0
   -5.3943    7.0112    0.0000 C   0  0  0  0  0  0  0  0  0  0  0  0
   -3.9270    7.3267    0.0000 C   0  0  0  0  0  0  0  0  0  0  0  0
   -2.9194    6.2143    0.0000 C   0  0  0  0  0  0  0  0  0  0  0  0
   -1.4531    6.5303    0.0000 H   0  0  0  0  0  0  0  0  0  0  0  0
   -3.3792    4.7865    0.0000 C   0  0  0  0  0  0  0  0  0  0  0  0
   -4.8465    4.4710    0.0000 C   0  0  0  0  0  0  0  0  0  0  0  0
   -5.3062    3.0432    0.0000 H   0  0  0  0  0  0  0  0  0  0  0  0
   -5.8540    5.5834    0.0000 C   0  0  0  0  0  0  0  0  0  0  0  0
   -7.3204    5.2674    0.0000 H   0  0  0  0  0  0  0  0  0  0  0  0
   -2.3727    3.6743    0.0000 N   0  0  0  0  0  0  0  0  0  0  0  0
   -0.8812    3.8341    0.0000 C   0  0  0  0  0  0  0  0  0  0  0  0
    1.0010    4.4487    0.0000 H   0  0  0  0  0  0  0  0  0  0  0  0
   -1.1957    5.3008    0.0000 H   0  0  0  0  0  0  0  0  0  0  0  0
   -0.2725    2.4712    0.0000 C   0  0  2  0  0  0  0  0  0  0  0  0
    0.6160    1.2627    0.0000 H   0  0  0  0  0  0  0  0  0  0  0  0
    2.6210    2.9916    0.0000 C   0  0  0  0  0  0  0  0  0  0  0  0
    3.9175    3.7461    0.0000 H   0  0  0  0  0  0  0  0  0  0  0  0
    2.1032    4.3994    0.0000 H   0  0  0  0  0  0  0  0  0  0  0  0
    3.5891    1.8459    0.0000 O   0  0  0  0  0  0  0  0  0  0  0  0
    3.0809    0.4346    0.0000 H   0  0  0  0  0  0  0  0  0  0  0  0
   -1.3808    1.4574    0.0000 O   0  0  0  0  0  0  0  0  0  0  0  0
   -2.6788    2.2134    0.0000 C   0  0  0  0  0  0  0  0  0  0  0  0
   -4.0493    1.6039    0.0000 O   0  0  0  0  0  0  0  0  0  0  0  0
   -3.4672    8.7545    0.0000 F   0  0  0  0  0  0  0  0  0  0  0  0
  -11.2788    8.4044    0.0000 C   0  0  0  0  0  0  0  0  0  0  0  0
  -11.3348    9.9033    0.0000 H   0  0  0  0  0  0  0  0  0  0  0  0
  -12.7647    8.6094    0.0000 C   0  0  0  0  0  0  0  0  0  0  0  0
  -12.3050   10.0372    0.0000 H   0  0  0  0  0  0  0  0  0  0  0  0
  -13.6853    7.4241    0.0000 C   0  0  0  0  0  0  0  0  0  0  0  0
  -14.6920    8.5361    0.0000 H   0  0  0  0  0  0  0  0  0  0  0  0
  -13.1200    6.0338    0.0000 C   0  0  0  0  0  0  0  0  0  0  0  0
  -14.5865    5.7185    0.0000 H   0  0  0  0  0  0  0  0  0  0  0  0
  -11.6341    5.8288    0.0000 C   0  0  0  0  0  0  0  0  0  0  0  0
  -12.0938    4.4010    0.0000 H   0  0  0  0  0  0  0  0  0  0  0  0
  -10.3077    5.1282    0.0000 C   0  0  0  0  0  0  0  0  0  0  0  0
   -9.0379    5.9266    0.0000 O   0  0  0  0  0  0  0  0  0  0  0  0
  -10.2513    3.6293    0.0000 O   0  0  0  0  0  0  0  0  0  0  0  0
  -11.5211    2.8309    0.0000 H   0  0  0  0  0  0  0  0  0  0  0  0
  -10.7135    7.0141    0.0000 O   0  0  0  0  0  0  0  0  0  0  0  0
  -13.0640    4.5348    0.0000 O   0  0  0  0  0  0  0  0  0  0  0  0
  -14.3341    3.7368    0.0000 H   0  0  0  0  0  0  0  0  0  0  0  0
  -14.9555    6.6261    0.0000 O   0  0  0  0  0  0  0  0  0  0  0  0
  -16.2816    7.3271    0.0000 H   0  0  0  0  0  0  0  0  0  0  0  0
  -14.5155    9.5341    0.0000 O   0  0  0  0  0  0  0  0  0  0  0  0
  -15.7854    8.7357    0.0000 H   0  0  0  0  0  0  0  0  0  0  0  0
   -9.1086   12.9220    0.0000 N   0  0  0  0  0  0  0  0  0  0  0  0
  -10.4076   13.6720    0.0000 N   0  0  0  0  0  0  0  0  0  0  0  0
  1  2  1  0  0  0  0 
  1  3  1  0  0  0  0 
  1  4  1  0  0  0  0 
  1  5  1  0  0  0  0 
  5  6  1  0  0  0  0 
  6  7  2  0  0  0  0 
  7  8  1  0  0  0  0 
  8  9  2  0  0  0  0 
  9 10  1  0  0  0  0 
 10 11  1  0  0  0  0 
 10 12  2  0  0  0  0 
 12 13  1  0  0  0  0 
 13 14  1  0  0  0  0 
 13 15  2  0  0  0  0 
  8 15  1  0  0  0  0 
 15 16  1  0  0  0  0 
 12 17  1  0  0  0  0 
 17 18  2  0  0  0  0 
 18 19  1  0  0  0  0 
 19 20  1  0  0  0  0 
 19 21  2  0  0  0  0 
 21 22  1  0  0  0  0 
 22 23  1  0  0  0  0 
 22 24  2  0  0  0  0 
 17 24  1  0  0  0  0 
 24 25  1  0  0  0  0 
 21 26  1  0  0  0  0 
 26 27  1  0  0  0  0 
 27 28  1  0  0  0  0 
 27 29  1  0  0  0  0 
 27 30  1  0  0  0  0 
 30 31  1  1  0  0  0 
 30 32  1  0  0  0  0 
 32 33  1  0  0  0  0 
 32 34  1  0  0  0  0 
 32 35  1  0  0  0  0 
 35 36  1  0  0  0  0 
 30 37  1  6  0  0  0 
 37 38  1  0  0  0  0 
 26 38  1  0  0  0  0 
 38 39  2  0  0  0  0 
 18 40  1  0  0  0  0 
  9 41  1  0  0  0  0 
 41 42  1  0  0  0  0 
 41 43  1  0  0  0  0 
 43 44  1  0  0  0  0 
 43 45  1  0  0  0  0 
 45 46  1  0  0  0  0 
 45 47  1  0  0  0  0 
 47 48  1  0  0  0  0 
 47 49  1  0  0  0  0 
 49 50  1  0  0  0  0 
 49 51  1  0  0  0  0 
 51 52  2  0  0  0  0 
 51 53  1  0  0  0  0 
 53 54  1  0  0  0  0 
 49 55  1  0  0  0  0 
 41 55  1  0  0  0  0 
 47 56  1  0  0  0  0 
 56 57  1  0  0  0  0 
 45 58  1  0  0  0  0 
 58 59  1  0  0  0  0 
 43 60  1  0  0  0  0 
 60 61  1  0  0  0  0 
  7 62  1  0  0  0  0 
 62 63  2  0  0  0  0 
  5 63  1  0  0  0  0 
M  CHG  1   9   1
M  END
> <Rank>
9

> <Priority_score>
0.12

> <Reaction_type>
N-glucuronidation_(aromatic_=n-)

> <Parent_ID>
69

> <Parent_InChI>
InChI=1S/C17H15FN6O3/c1-23-21-16(20-22-23)15-5-2-10(7-19-15)13-4-3-11(6-14(13)18)24-8-12(9-25)27-17(24)26/h2-7,12,25H,8-9H2,1H3

> <Parent_SMILES>
Cn1nnc(-c2ccc(-c3ccc(N4C[C@H](CO)OC4=O)cc3F)cn2)n1

$$$$
Molecule 69_metabolite 10
  CDK     0516241031

 43 46  0  0  0  0  0  0  0  0999 V2000
  -12.8003    9.0684    0.0000 C   0  0  0  0  0  0  0  0  0  0  0  0
  -13.2603   10.4961    0.0000 H   0  0  0  0  0  0  0  0  0  0  0  0
  -14.2863    8.8633    0.0000 H   0  0  0  0  0  0  0  0  0  0  0  0
  -12.8564    7.5694    0.0000 H   0  0  0  0  0  0  0  0  0  0  0  0
  -11.3339    8.7529    0.0000 N   0  0  0  0  0  0  0  0  0  0  0  0
  -10.7310    7.3771    0.0000 N   0  0  0  0  0  0  0  0  0  0  0  0
   -9.2381    7.5429    0.0000 C   0  0  0  0  0  0  0  0  0  0  0  0
   -8.2317    6.4307    0.0000 C   0  0  0  0  0  0  0  0  0  0  0  0
   -6.7643    6.7461    0.0000 N   0  0  0  0  0  0  0  0  0  0  0  0
   -5.7568    5.6338    0.0000 C   0  0  0  0  0  0  0  0  0  0  0  0
   -4.2904    5.9498    0.0000 H   0  0  0  0  0  0  0  0  0  0  0  0
   -6.2165    4.2060    0.0000 C   0  0  0  0  0  0  0  0  0  0  0  0
   -7.6838    3.8905    0.0000 C   0  0  0  0  0  0  0  0  0  0  0  0
   -8.1436    2.4627    0.0000 H   0  0  0  0  0  0  0  0  0  0  0  0
   -8.6914    5.0028    0.0000 C   0  0  0  0  0  0  0  0  0  0  0  0
  -10.1577    4.6869    0.0000 H   0  0  0  0  0  0  0  0  0  0  0  0
   -5.2101    3.0937    0.0000 C   0  0  0  0  0  0  0  0  0  0  0  0
   -3.7428    3.4092    0.0000 C   0  0  0  0  0  0  0  0  0  0  0  0
   -2.7352    2.2968    0.0000 C   0  0  0  0  0  0  0  0  0  0  0  0
   -1.2689    2.6128    0.0000 H   0  0  0  0  0  0  0  0  0  0  0  0
   -3.1949    0.8690    0.0000 C   0  0  0  0  0  0  0  0  0  0  0  0
   -4.6622    0.5536    0.0000 C   0  0  0  0  0  0  0  0  0  0  0  0
   -5.1220   -0.8742    0.0000 H   0  0  0  0  0  0  0  0  0  0  0  0
   -5.6698    1.6659    0.0000 C   0  0  0  0  0  0  0  0  0  0  0  0
   -7.1361    1.3499    0.0000 H   0  0  0  0  0  0  0  0  0  0  0  0
   -1.8664   -0.5991    0.0000 N   0  0  0  0  0  0  0  0  0  0  0  0
   -0.8652    0.5178    0.0000 C   0  0  0  0  0  0  0  0  0  0  0  0
    0.1221    2.2342    0.0000 H   0  0  0  0  0  0  0  0  0  0  0  0
   -2.0804    1.3972    0.0000 H   0  0  0  0  0  0  0  0  0  0  0  0
    0.4992   -0.0875    0.0000 C   0  0  2  0  0  0  0  0  0  0  0  0
    1.9683   -0.3908    0.0000 H   0  0  0  0  0  0  0  0  0  0  0  0
    1.3978    2.7118    0.0000 C   0  0  0  0  0  0  0  0  0  0  0  0
    1.3401    4.2107    0.0000 H   0  0  0  0  0  0  0  0  0  0  0  0
   -0.0304    3.1703    0.0000 H   0  0  0  0  0  0  0  0  0  0  0  0
    2.8639    3.0289    0.0000 O   0  0  0  0  0  0  0  0  0  0  0  0
    3.8716    1.9178    0.0000 H   0  0  0  0  0  0  0  0  0  0  0  0
    0.3543   -1.5825    0.0000 O   0  0  0  0  0  0  0  0  0  0  0  0
   -1.1161   -1.8895    0.0000 C   0  0  0  0  0  0  0  0  0  0  0  0
   -1.7266   -3.2596    0.0000 O   0  0  0  0  0  0  0  0  0  0  0  0
   -3.0775   -1.4841    0.0000 O   0  0  0  0  0  0  0  0  0  0  0  0
   -3.2830    4.8370    0.0000 F   0  0  0  0  0  0  0  0  0  0  0  0
   -8.9265    9.0026    0.0000 N   0  0  0  0  0  0  0  0  0  0  0  0
  -10.2255    9.7526    0.0000 N   0  0  0  0  0  0  0  0  0  0  0  0
  1  2  1  0  0  0  0 
  1  3  1  0  0  0  0 
  1  4  1  0  0  0  0 
  1  5  1  0  0  0  0 
  5  6  1  0  0  0  0 
  6  7  2  0  0  0  0 
  7  8  1  0  0  0  0 
  8  9  2  0  0  0  0 
  9 10  1  0  0  0  0 
 10 11  1  0  0  0  0 
 10 12  2  0  0  0  0 
 12 13  1  0  0  0  0 
 13 14  1  0  0  0  0 
 13 15  2  0  0  0  0 
  8 15  1  0  0  0  0 
 15 16  1  0  0  0  0 
 12 17  1  0  0  0  0 
 17 18  2  0  0  0  0 
 18 19  1  0  0  0  0 
 19 20  1  0  0  0  0 
 19 21  2  0  0  0  0 
 21 22  1  0  0  0  0 
 22 23  1  0  0  0  0 
 22 24  2  0  0  0  0 
 17 24  1  0  0  0  0 
 24 25  1  0  0  0  0 
 21 26  1  0  0  0  0 
 26 27  1  0  0  0  0 
 27 28  1  0  0  0  0 
 27 29  1  0  0  0  0 
 27 30  1  0  0  0  0 
 30 31  1  1  0  0  0 
 30 32  1  0  0  0  0 
 32 33  1  0  0  0  0 
 32 34  1  0  0  0  0 
 32 35  1  0  0  0  0 
 35 36  1  0  0  0  0 
 30 37  1  6  0  0  0 
 37 38  1  0  0  0  0 
 26 38  1  0  0  0  0 
 38 39  2  0  0  0  0 
 26 40  1  0  0  0  0 
 18 41  1  0  0  0  0 
  7 42  1  0  0  0  0 
 42 43  2  0  0  0  0 
  5 43  1  0  0  0  0 
M  CHG  1  26   1
M  CHG  1  40  -1
M  END
> <Rank>
10

> <Priority_score>
0.116

> <Reaction_type>
N-oxidation

> <Parent_ID>
69

> <Parent_InChI>
InChI=1S/C17H15FN6O3/c1-23-21-16(20-22-23)15-5-2-10(7-19-15)13-4-3-11(6-14(13)18)24-8-12(9-25)27-17(24)26/h2-7,12,25H,8-9H2,1H3

> <Parent_SMILES>
Cn1nnc(-c2ccc(-c3ccc(N4C[C@H](CO)OC4=O)cc3F)cn2)n1

$$$$
Molecule 69_metabolite 11
  CDK     0516241031

 43 45  0  0  0  0  0  0  0  0999 V2000
  -12.8118    9.2607    0.0000 C   0  0  0  0  0  0  0  0  0  0  0  0
  -13.2718   10.6884    0.0000 H   0  0  0  0  0  0  0  0  0  0  0  0
  -14.2977    9.0556    0.0000 H   0  0  0  0  0  0  0  0  0  0  0  0
  -12.8679    7.7617    0.0000 H   0  0  0  0  0  0  0  0  0  0  0  0
  -11.3453    8.9451    0.0000 N   0  0  0  0  0  0  0  0  0  0  0  0
  -10.7425    7.5694    0.0000 N   0  0  0  0  0  0  0  0  0  0  0  0
   -9.2496    7.7351    0.0000 C   0  0  0  0  0  0  0  0  0  0  0  0
   -8.2431    6.6229    0.0000 C   0  0  0  0  0  0  0  0  0  0  0  0
   -6.7758    6.9384    0.0000 N   0  0  0  0  0  0  0  0  0  0  0  0
   -5.7682    5.8260    0.0000 C   0  0  0  0  0  0  0  0  0  0  0  0
   -4.3019    6.1420    0.0000 H   0  0  0  0  0  0  0  0  0  0  0  0
   -6.2280    4.3982    0.0000 C   0  0  0  0  0  0  0  0  0  0  0  0
   -7.6953    4.0828    0.0000 C   0  0  0  0  0  0  0  0  0  0  0  0
   -8.1550    2.6550    0.0000 H   0  0  0  0  0  0  0  0  0  0  0  0
   -8.7028    5.1951    0.0000 C   0  0  0  0  0  0  0  0  0  0  0  0
  -10.1692    4.8791    0.0000 H   0  0  0  0  0  0  0  0  0  0  0  0
   -5.2215    3.2860    0.0000 C   0  0  0  0  0  0  0  0  0  0  0  0
   -3.7542    3.6015    0.0000 C   0  0  0  0  0  0  0  0  0  0  0  0
   -2.7466    2.4891    0.0000 C   0  0  0  0  0  0  0  0  0  0  0  0
   -1.2803    2.8051    0.0000 H   0  0  0  0  0  0  0  0  0  0  0  0
   -3.2064    1.0613    0.0000 C   0  0  0  0  0  0  0  0  0  0  0  0
   -4.6737    0.7458    0.0000 C   0  0  0  0  0  0  0  0  0  0  0  0
   -5.1334   -0.6820    0.0000 H   0  0  0  0  0  0  0  0  0  0  0  0
   -5.6813    1.8582    0.0000 C   0  0  0  0  0  0  0  0  0  0  0  0
   -7.1476    1.5422    0.0000 H   0  0  0  0  0  0  0  0  0  0  0  0
   -2.1999   -0.0509    0.0000 N   0  0  0  0  0  0  0  0  0  0  0  0
   -0.7335    0.2646    0.0000 C   0  0  0  0  0  0  0  0  0  0  0  0
    0.5366    1.0627    0.0000 H   0  0  0  0  0  0  0  0  0  0  0  0
   -1.2988    1.6540    0.0000 H   0  0  0  0  0  0  0  0  0  0  0  0
    0.2730   -0.8476    0.0000 C   0  0  0  0  0  0  0  0  0  0  0  0
   -0.1870   -2.2753    0.0000 O   0  0  0  0  0  0  0  0  0  0  0  0
    1.7394   -0.5321    0.0000 C   0  0  0  0  0  0  0  0  0  0  0  0
    3.2254   -0.7371    0.0000 H   0  0  0  0  0  0  0  0  0  0  0  0
    1.7955   -2.0310    0.0000 H   0  0  0  0  0  0  0  0  0  0  0  0
    2.1994    0.8956    0.0000 O   0  0  0  0  0  0  0  0  0  0  0  0
    3.6658    1.2112    0.0000 H   0  0  0  0  0  0  0  0  0  0  0  0
   -2.6599   -1.4786    0.0000 C   0  0  0  0  0  0  0  0  0  0  0  0
   -4.1263   -1.7942    0.0000 O   0  0  0  0  0  0  0  0  0  0  0  0
   -1.6534   -2.5909    0.0000 O   0  0  0  0  0  0  0  0  0  0  0  0
   -2.1134   -4.0186    0.0000 H   0  0  0  0  0  0  0  0  0  0  0  0
   -3.2945    5.0293    0.0000 F   0  0  0  0  0  0  0  0  0  0  0  0
   -8.9379    9.1949    0.0000 N   0  0  0  0  0  0  0  0  0  0  0  0
  -10.2370    9.9449    0.0000 N   0  0  0  0  0  0  0  0  0  0  0  0
  1  2  1  0  0  0  0 
  1  3  1  0  0  0  0 
  1  4  1  0  0  0  0 
  1  5  1  0  0  0  0 
  5  6  1  0  0  0  0 
  6  7  2  0  0  0  0 
  7  8  1  0  0  0  0 
  8  9  2  0  0  0  0 
  9 10  1  0  0  0  0 
 10 11  1  0  0  0  0 
 10 12  2  0  0  0  0 
 12 13  1  0  0  0  0 
 13 14  1  0  0  0  0 
 13 15  2  0  0  0  0 
  8 15  1  0  0  0  0 
 15 16  1  0  0  0  0 
 12 17  1  0  0  0  0 
 17 18  2  0  0  0  0 
 18 19  1  0  0  0  0 
 19 20  1  0  0  0  0 
 19 21  2  0  0  0  0 
 21 22  1  0  0  0  0 
 22 23  1  0  0  0  0 
 22 24  2  0  0  0  0 
 17 24  1  0  0  0  0 
 24 25  1  0  0  0  0 
 21 26  1  0  0  0  0 
 26 27  1  0  0  0  0 
 27 28  1  0  0  0  0 
 27 29  1  0  0  0  0 
 27 30  1  0  0  0  0 
 30 31  2  0  0  0  0 
 30 32  1  0  0  0  0 
 32 33  1  0  0  0  0 
 32 34  1  0  0  0  0 
 32 35  1  0  0  0  0 
 35 36  1  0  0  0  0 
 26 37  1  0  0  0  0 
 37 38  2  0  0  0  0 
 37 39  1  0  0  0  0 
 39 40  1  0  0  0  0 
 18 41  1  0  0  0  0 
  7 42  1  0  0  0  0 
 42 43  2  0  0  0  0 
  5 43  1  0  0  0  0 
M  END
> <Rank>
10

> <Priority_score>
0.116

> <Reaction_type>
oxidative ether cleavage to one alcohol and one aldehyde/ketone

> <Parent_ID>
69

> <Parent_InChI>
InChI=1S/C17H15FN6O3/c1-23-21-16(20-22-23)15-5-2-10(7-19-15)13-4-3-11(6-14(13)18)24-8-12(9-25)27-17(24)26/h2-7,12,25H,8-9H2,1H3

> <Parent_SMILES>
Cn1nnc(-c2ccc(-c3ccc(N4C[C@H](CO)OC4=O)cc3F)cn2)n1

$$$$
Molecule 69_metabolite 12
  CDK     0516241031

 45 47  0  0  0  0  0  0  0  0999 V2000
  -15.5611   -1.9892    0.0000 C   0  0  0  0  0  0  0  0  0  0  0  0
  -17.0275   -1.6737    0.0000 H   0  0  0  0  0  0  0  0  0  0  0  0
  -16.1264   -3.3786    0.0000 H   0  0  0  0  0  0  0  0  0  0  0  0
  -14.2910   -2.7873    0.0000 H   0  0  0  0  0  0  0  0  0  0  0  0
  -14.5546   -0.8770    0.0000 N   0  0  0  0  0  0  0  0  0  0  0  0
  -13.0617   -1.0428    0.0000 N   0  0  0  0  0  0  0  0  0  0  0  0
  -12.4588    0.3330    0.0000 C   0  0  0  0  0  0  0  0  0  0  0  0
  -10.9924    0.6485    0.0000 C   0  0  0  0  0  0  0  0  0  0  0  0
  -10.5319    2.0770    0.0000 N   0  0  0  0  0  0  0  0  0  0  0  0
   -9.0648    2.3934    0.0000 C   0  0  0  0  0  0  0  0  0  0  0  0
   -8.6053    3.8213    0.0000 H   0  0  0  0  0  0  0  0  0  0  0  0
   -8.0582    1.2813    0.0000 C   0  0  0  0  0  0  0  0  0  0  0  0
   -8.5186   -0.1471    0.0000 C   0  0  0  0  0  0  0  0  0  0  0  0
   -7.5120   -1.2592    0.0000 H   0  0  0  0  0  0  0  0  0  0  0  0
   -9.9857   -0.4635    0.0000 C   0  0  0  0  0  0  0  0  0  0  0  0
  -10.4453   -1.8914    0.0000 H   0  0  0  0  0  0  0  0  0  0  0  0
   -6.5917    1.5968    0.0000 C   0  0  0  0  0  0  0  0  0  0  0  0
   -6.1313    3.0253    0.0000 C   0  0  0  0  0  0  0  0  0  0  0  0
   -4.6642    3.3417    0.0000 C   0  0  0  0  0  0  0  0  0  0  0  0
   -4.2047    4.7696    0.0000 H   0  0  0  0  0  0  0  0  0  0  0  0
   -3.6575    2.2296    0.0000 C   0  0  0  0  0  0  0  0  0  0  0  0
   -4.1180    0.8012    0.0000 C   0  0  0  0  0  0  0  0  0  0  0  0
   -3.1113   -0.3109    0.0000 H   0  0  0  0  0  0  0  0  0  0  0  0
   -5.5851    0.4848    0.0000 C   0  0  0  0  0  0  0  0  0  0  0  0
   -6.0446   -0.9431    0.0000 H   0  0  0  0  0  0  0  0  0  0  0  0
   -2.1911    2.5452    0.0000 N   0  0  0  0  0  0  0  0  0  0  0  0
   -1.1846    1.4329    0.0000 H   0  0  0  0  0  0  0  0  0  0  0  0
   -1.7311    3.9729    0.0000 C   0  0  0  0  0  0  0  0  0  0  0  0
   -1.7872    5.4718    0.0000 H   0  0  0  0  0  0  0  0  0  0  0  0
   -3.2170    4.1780    0.0000 H   0  0  0  0  0  0  0  0  0  0  0  0
   -0.2647    4.2884    0.0000 C   0  0  2  0  0  0  0  0  0  0  0  0
   -0.2086    2.7895    0.0000 H   0  0  0  0  0  0  0  0  0  0  0  0
    1.2212    4.0834    0.0000 C   0  0  0  0  0  0  0  0  0  0  0  0
    0.7613    2.6556    0.0000 H   0  0  0  0  0  0  0  0  0  0  0  0
    2.5474    3.3824    0.0000 H   0  0  0  0  0  0  0  0  0  0  0  0
    2.1418    5.2677    0.0000 O   0  0  0  0  0  0  0  0  0  0  0  0
    3.6277    5.0626    0.0000 H   0  0  0  0  0  0  0  0  0  0  0  0
    0.1953    5.7162    0.0000 O   0  0  0  0  0  0  0  0  0  0  0  0
   -0.8112    6.8284    0.0000 C   0  0  0  0  0  0  0  0  0  0  0  0
   -2.2776    6.5128    0.0000 O   0  0  0  0  0  0  0  0  0  0  0  0
   -0.3512    8.2561    0.0000 O   0  0  0  0  0  0  0  0  0  0  0  0
   -1.3577    9.3683    0.0000 H   0  0  0  0  0  0  0  0  0  0  0  0
   -7.1379    4.1374    0.0000 F   0  0  0  0  0  0  0  0  0  0  0  0
  -13.5672    1.3328    0.0000 N   0  0  0  0  0  0  0  0  0  0  0  0
  -14.8662    0.5828    0.0000 N   0  0  0  0  0  0  0  0  0  0  0  0
  1  2  1  0  0  0  0 
  1  3  1  0  0  0  0 
  1  4  1  0  0  0  0 
  1  5  1  0  0  0  0 
  5  6  1  0  0  0  0 
  6  7  2  0  0  0  0 
  7  8  1  0  0  0  0 
  8  9  2  0  0  0  0 
  9 10  1  0  0  0  0 
 10 11  1  0  0  0  0 
 10 12  2  0  0  0  0 
 12 13  1  0  0  0  0 
 13 14  1  0  0  0  0 
 13 15  2  0  0  0  0 
  8 15  1  0  0  0  0 
 15 16  1  0  0  0  0 
 12 17  1  0  0  0  0 
 17 18  2  0  0  0  0 
 18 19  1  0  0  0  0 
 19 20  1  0  0  0  0 
 19 21  2  0  0  0  0 
 21 22  1  0  0  0  0 
 22 23  1  0  0  0  0 
 22 24  2  0  0  0  0 
 17 24  1  0  0  0  0 
 24 25  1  0  0  0  0 
 21 26  1  0  0  0  0 
 26 27  1  0  0  0  0 
 26 28  1  0  0  0  0 
 28 29  1  0  0  0  0 
 28 30  1  0  0  0  0 
 31 28  1  1  0  0  0 
 31 32  1  6  0  0  0 
 31 33  1  0  0  0  0 
 33 34  1  0  0  0  0 
 33 35  1  0  0  0  0 
 33 36  1  0  0  0  0 
 36 37  1  0  0  0  0 
 31 38  1  0  0  0  0 
 38 39  1  0  0  0  0 
 39 40  2  0  0  0  0 
 39 41  1  0  0  0  0 
 41 42  1  0  0  0  0 
 18 43  1  0  0  0  0 
  7 44  1  0  0  0  0 
 44 45  2  0  0  0  0 
  5 45  1  0  0  0  0 
M  END
> <Rank>
10

> <Priority_score>
0.116

> <Reaction_type>
hydrolysis_(urea_or_carbonate)

> <Parent_ID>
69

> <Parent_InChI>
InChI=1S/C17H15FN6O3/c1-23-21-16(20-22-23)15-5-2-10(7-19-15)13-4-3-11(6-14(13)18)24-8-12(9-25)27-17(24)26/h2-7,12,25H,8-9H2,1H3

> <Parent_SMILES>
Cn1nnc(-c2ccc(-c3ccc(N4C[C@H](CO)OC4=O)cc3F)cn2)n1

$$$$
Molecule 69_metabolite 13
  CDK     0516241031

 45 47  0  0  0  0  0  0  0  0999 V2000
  -15.9969    0.3545    0.0000 C   0  0  0  0  0  0  0  0  0  0  0  0
  -17.4634    0.6700    0.0000 H   0  0  0  0  0  0  0  0  0  0  0  0
  -16.5623   -1.0349    0.0000 H   0  0  0  0  0  0  0  0  0  0  0  0
  -14.7269   -0.4435    0.0000 H   0  0  0  0  0  0  0  0  0  0  0  0
  -14.9905    1.4667    0.0000 N   0  0  0  0  0  0  0  0  0  0  0  0
  -13.4976    1.3010    0.0000 N   0  0  0  0  0  0  0  0  0  0  0  0
  -12.8947    2.6767    0.0000 C   0  0  0  0  0  0  0  0  0  0  0  0
  -11.4283    2.9923    0.0000 C   0  0  0  0  0  0  0  0  0  0  0  0
  -10.9678    4.4207    0.0000 N   0  0  0  0  0  0  0  0  0  0  0  0
   -9.5007    4.7371    0.0000 C   0  0  0  0  0  0  0  0  0  0  0  0
   -9.0412    6.1650    0.0000 H   0  0  0  0  0  0  0  0  0  0  0  0
   -8.4940    3.6251    0.0000 C   0  0  0  0  0  0  0  0  0  0  0  0
   -8.9545    2.1966    0.0000 C   0  0  0  0  0  0  0  0  0  0  0  0
   -7.9479    1.0845    0.0000 H   0  0  0  0  0  0  0  0  0  0  0  0
  -10.4216    1.8802    0.0000 C   0  0  0  0  0  0  0  0  0  0  0  0
  -10.8811    0.4523    0.0000 H   0  0  0  0  0  0  0  0  0  0  0  0
   -7.0276    3.9406    0.0000 C   0  0  0  0  0  0  0  0  0  0  0  0
   -6.5672    5.3690    0.0000 C   0  0  0  0  0  0  0  0  0  0  0  0
   -5.1000    5.6854    0.0000 C   0  0  0  0  0  0  0  0  0  0  0  0
   -4.6405    7.1133    0.0000 H   0  0  0  0  0  0  0  0  0  0  0  0
   -4.0934    4.5734    0.0000 C   0  0  0  0  0  0  0  0  0  0  0  0
   -4.5539    3.1449    0.0000 C   0  0  0  0  0  0  0  0  0  0  0  0
   -3.5472    2.0329    0.0000 H   0  0  0  0  0  0  0  0  0  0  0  0
   -6.0210    2.8285    0.0000 C   0  0  0  0  0  0  0  0  0  0  0  0
   -6.4805    1.4006    0.0000 H   0  0  0  0  0  0  0  0  0  0  0  0
   -2.6270    4.8889    0.0000 N   0  0  0  0  0  0  0  0  0  0  0  0
   -2.1670    6.3166    0.0000 C   0  0  0  0  0  0  0  0  0  0  0  0
   -2.2231    7.8156    0.0000 H   0  0  0  0  0  0  0  0  0  0  0  0
   -3.6529    6.5217    0.0000 H   0  0  0  0  0  0  0  0  0  0  0  0
   -0.7005    6.6321    0.0000 C   0  0  2  0  0  0  0  0  0  0  0  0
   -0.6445    5.1332    0.0000 H   0  0  0  0  0  0  0  0  0  0  0  0
   -0.0934    8.5168    0.0000 C   0  0  0  0  0  0  0  0  0  0  0  0
   -0.1495   10.0157    0.0000 H   0  0  0  0  0  0  0  0  0  0  0  0
   -1.5793    8.7218    0.0000 H   0  0  0  0  0  0  0  0  0  0  0  0
    1.3731    8.8323    0.0000 O   0  0  0  0  0  0  0  0  0  0  0  0
    1.8330   10.2600    0.0000 H   0  0  0  0  0  0  0  0  0  0  0  0
    0.7854    6.4271    0.0000 O   0  0  0  0  0  0  0  0  0  0  0  0
    1.7059    7.6114    0.0000 H   0  0  0  0  0  0  0  0  0  0  0  0
   -1.6205    3.7767    0.0000 C   0  0  0  0  0  0  0  0  0  0  0  0
   -2.0805    2.3489    0.0000 O   0  0  0  0  0  0  0  0  0  0  0  0
   -0.1541    4.0922    0.0000 O   0  0  0  0  0  0  0  0  0  0  0  0
    0.8524    2.9800    0.0000 H   0  0  0  0  0  0  0  0  0  0  0  0
   -7.5738    6.4811    0.0000 F   0  0  0  0  0  0  0  0  0  0  0  0
  -14.0031    3.6765    0.0000 N   0  0  0  0  0  0  0  0  0  0  0  0
  -15.3021    2.9265    0.0000 N   0  0  0  0  0  0  0  0  0  0  0  0
  1  2  1  0  0  0  0 
  1  3  1  0  0  0  0 
  1  4  1  0  0  0  0 
  1  5  1  0  0  0  0 
  5  6  1  0  0  0  0 
  6  7  2  0  0  0  0 
  7  8  1  0  0  0  0 
  8  9  2  0  0  0  0 
  9 10  1  0  0  0  0 
 10 11  1  0  0  0  0 
 10 12  2  0  0  0  0 
 12 13  1  0  0  0  0 
 13 14  1  0  0  0  0 
 13 15  2  0  0  0  0 
  8 15  1  0  0  0  0 
 15 16  1  0  0  0  0 
 12 17  1  0  0  0  0 
 17 18  2  0  0  0  0 
 18 19  1  0  0  0  0 
 19 20  1  0  0  0  0 
 19 21  2  0  0  0  0 
 21 22  1  0  0  0  0 
 22 23  1  0  0  0  0 
 22 24  2  0  0  0  0 
 17 24  1  0  0  0  0 
 24 25  1  0  0  0  0 
 21 26  1  0  0  0  0 
 26 27  1  0  0  0  0 
 27 28  1  0  0  0  0 
 27 29  1  0  0  0  0 
 27 30  1  0  0  0  0 
 30 31  1  1  0  0  0 
 30 32  1  0  0  0  0 
 32 33  1  0  0  0  0 
 32 34  1  0  0  0  0 
 32 35  1  0  0  0  0 
 35 36  1  0  0  0  0 
 30 37  1  6  0  0  0 
 37 38  1  0  0  0  0 
 26 39  1  0  0  0  0 
 39 40  2  0  0  0  0 
 39 41  1  0  0  0  0 
 41 42  1  0  0  0  0 
 18 43  1  0  0  0  0 
  7 44  1  0  0  0  0 
 44 45  2  0  0  0  0 
  5 45  1  0  0  0  0 
M  END
> <Rank>
10

> <Priority_score>
0.116

> <Reaction_type>
hydrolysis_(urea_or_carbonate)

> <Parent_ID>
69

> <Parent_InChI>
InChI=1S/C17H15FN6O3/c1-23-21-16(20-22-23)15-5-2-10(7-19-15)13-4-3-11(6-14(13)18)24-8-12(9-25)27-17(24)26/h2-7,12,25H,8-9H2,1H3

> <Parent_SMILES>
Cn1nnc(-c2ccc(-c3ccc(N4C[C@H](CO)OC4=O)cc3F)cn2)n1

$$$$
Molecule 69_metabolite 14
  CDK     0516241031

 43 46  0  0  0  0  0  0  0  0999 V2000
  -15.1933    1.1943    0.0000 C   0  0  0  0  0  0  0  0  0  0  0  0
  -16.6597    1.5098    0.0000 H   0  0  0  0  0  0  0  0  0  0  0  0
  -15.7587   -0.1951    0.0000 H   0  0  0  0  0  0  0  0  0  0  0  0
  -13.9232    0.3963    0.0000 H   0  0  0  0  0  0  0  0  0  0  0  0
  -14.1868    2.3065    0.0000 N   0  0  0  0  0  0  0  0  0  0  0  0
  -14.4985    3.7663    0.0000 N   0  0  0  0  0  0  0  0  0  0  0  0
  -13.1994    4.5163    0.0000 N   0  0  0  0  0  0  0  0  0  0  0  0
  -12.0911    3.5165    0.0000 C   0  0  0  0  0  0  0  0  0  0  0  0
  -12.6939    2.1408    0.0000 N   0  0  0  0  0  0  0  0  0  0  0  0
  -11.9439    0.8417    0.0000 O   0  0  0  0  0  0  0  0  0  0  0  0
  -10.6246    3.8320    0.0000 C   0  0  0  0  0  0  0  0  0  0  0  0
   -9.6180    2.7200    0.0000 C   0  0  0  0  0  0  0  0  0  0  0  0
  -10.0775    1.2921    0.0000 H   0  0  0  0  0  0  0  0  0  0  0  0
   -8.1509    3.0364    0.0000 C   0  0  0  0  0  0  0  0  0  0  0  0
   -7.1442    1.9243    0.0000 H   0  0  0  0  0  0  0  0  0  0  0  0
   -7.6904    4.4648    0.0000 C   0  0  0  0  0  0  0  0  0  0  0  0
   -8.6971    5.5769    0.0000 C   0  0  0  0  0  0  0  0  0  0  0  0
   -8.2375    7.0048    0.0000 H   0  0  0  0  0  0  0  0  0  0  0  0
  -10.1642    5.2605    0.0000 N   0  0  0  0  0  0  0  0  0  0  0  0
   -6.2240    4.7804    0.0000 C   0  0  0  0  0  0  0  0  0  0  0  0
   -5.7635    6.2088    0.0000 C   0  0  0  0  0  0  0  0  0  0  0  0
   -4.2964    6.5252    0.0000 C   0  0  0  0  0  0  0  0  0  0  0  0
   -3.8369    7.9531    0.0000 H   0  0  0  0  0  0  0  0  0  0  0  0
   -3.2898    5.4132    0.0000 C   0  0  0  0  0  0  0  0  0  0  0  0
   -3.7502    3.9847    0.0000 C   0  0  0  0  0  0  0  0  0  0  0  0
   -2.7436    2.8727    0.0000 H   0  0  0  0  0  0  0  0  0  0  0  0
   -5.2173    3.6683    0.0000 C   0  0  0  0  0  0  0  0  0  0  0  0
   -5.6768    2.2404    0.0000 H   0  0  0  0  0  0  0  0  0  0  0  0
   -1.8233    5.7287    0.0000 N   0  0  0  0  0  0  0  0  0  0  0  0
   -1.2160    7.1002    0.0000 C   0  0  0  0  0  0  0  0  0  0  0  0
   -0.8072    9.0376    0.0000 H   0  0  0  0  0  0  0  0  0  0  0  0
   -2.6434    7.5613    0.0000 H   0  0  0  0  0  0  0  0  0  0  0  0
    0.2686    6.9459    0.0000 C   0  0  2  0  0  0  0  0  0  0  0  0
    1.7595    7.1112    0.0000 H   0  0  0  0  0  0  0  0  0  0  0  0
    0.2586    9.8859    0.0000 C   0  0  0  0  0  0  0  0  0  0  0  0
   -0.2592   11.2937    0.0000 H   0  0  0  0  0  0  0  0  0  0  0  0
   -1.6901    9.5355    0.0000 H   0  0  0  0  0  0  0  0  0  0  0  0
    1.5551   10.6404    0.0000 O   0  0  0  0  0  0  0  0  0  0  0  0
    2.8567    9.8948    0.0000 H   0  0  0  0  0  0  0  0  0  0  0  0
    0.5925    5.4792    0.0000 O   0  0  0  0  0  0  0  0  0  0  0  0
   -0.7111    4.7332    0.0000 C   0  0  0  0  0  0  0  0  0  0  0  0
   -0.8686    3.2414    0.0000 O   0  0  0  0  0  0  0  0  0  0  0  0
   -6.7702    7.3209    0.0000 F   0  0  0  0  0  0  0  0  0  0  0  0
  1  2  1  0  0  0  0 
  1  3  1  0  0  0  0 
  1  4  1  0  0  0  0 
  1  5  1  0  0  0  0 
  5  6  1  0  0  0  0 
  6  7  2  0  0  0  0 
  7  8  1  0  0  0  0 
  8  9  2  0  0  0  0 
  5  9  1  0  0  0  0 
  9 10  1  0  0  0  0 
  8 11  1  0  0  0  0 
 11 12  2  0  0  0  0 
 12 13  1  0  0  0  0 
 12 14  1  0  0  0  0 
 14 15  1  0  0  0  0 
 14 16  2  0  0  0  0 
 16 17  1  0  0  0  0 
 17 18  1  0  0  0  0 
 17 19  2  0  0  0  0 
 11 19  1  0  0  0  0 
 16 20  1  0  0  0  0 
 20 21  2  0  0  0  0 
 21 22  1  0  0  0  0 
 22 23  1  0  0  0  0 
 22 24  2  0  0  0  0 
 24 25  1  0  0  0  0 
 25 26  1  0  0  0  0 
 25 27  2  0  0  0  0 
 20 27  1  0  0  0  0 
 27 28  1  0  0  0  0 
 24 29  1  0  0  0  0 
 29 30  1  0  0  0  0 
 30 31  1  0  0  0  0 
 30 32  1  0  0  0  0 
 30 33  1  0  0  0  0 
 33 34  1  1  0  0  0 
 33 35  1  0  0  0  0 
 35 36  1  0  0  0  0 
 35 37  1  0  0  0  0 
 35 38  1  0  0  0  0 
 38 39  1  0  0  0  0 
 33 40  1  6  0  0  0 
 40 41  1  0  0  0  0 
 29 41  1  0  0  0  0 
 41 42  2  0  0  0  0 
 21 43  1  0  0  0  0 
M  CHG  1   9   1
M  CHG  1  10  -1
M  END
> <Rank>
14

> <Priority_score>
0.096

> <Reaction_type>
N-oxidation

> <Parent_ID>
69

> <Parent_InChI>
InChI=1S/C17H15FN6O3/c1-23-21-16(20-22-23)15-5-2-10(7-19-15)13-4-3-11(6-14(13)18)24-8-12(9-25)27-17(24)26/h2-7,12,25H,8-9H2,1H3

> <Parent_SMILES>
Cn1nnc(-c2ccc(-c3ccc(N4C[C@H](CO)OC4=O)cc3F)cn2)n1

$$$$
Molecule 69_metabolite 15
  CDK     0516241031

 47 50  0  0  0  0  0  0  0  0999 V2000
  -13.7436    7.5471    0.0000 C   0  0  0  0  0  0  0  0  0  0  0  0
  -14.2035    8.9748    0.0000 H   0  0  0  0  0  0  0  0  0  0  0  0
  -15.2295    7.3420    0.0000 H   0  0  0  0  0  0  0  0  0  0  0  0
  -13.7997    6.0481    0.0000 H   0  0  0  0  0  0  0  0  0  0  0  0
  -12.2771    7.2315    0.0000 N   0  0  0  0  0  0  0  0  0  0  0  0
  -11.6742    5.8558    0.0000 N   0  0  0  0  0  0  0  0  0  0  0  0
  -10.1814    6.0215    0.0000 C   0  0  0  0  0  0  0  0  0  0  0  0
   -9.1749    4.9093    0.0000 C   0  0  0  0  0  0  0  0  0  0  0  0
   -7.7076    5.2248    0.0000 N   0  0  0  0  0  0  0  0  0  0  0  0
   -6.7000    4.1124    0.0000 C   0  0  0  0  0  0  0  0  0  0  0  0
   -5.2337    4.4284    0.0000 H   0  0  0  0  0  0  0  0  0  0  0  0
   -7.1598    2.6846    0.0000 C   0  0  0  0  0  0  0  0  0  0  0  0
   -8.6271    2.3692    0.0000 C   0  0  0  0  0  0  0  0  0  0  0  0
   -9.0868    0.9414    0.0000 H   0  0  0  0  0  0  0  0  0  0  0  0
   -9.6346    3.4815    0.0000 C   0  0  0  0  0  0  0  0  0  0  0  0
  -11.1010    3.1655    0.0000 H   0  0  0  0  0  0  0  0  0  0  0  0
   -6.1533    1.5724    0.0000 C   0  0  0  0  0  0  0  0  0  0  0  0
   -4.6860    1.8879    0.0000 C   0  0  0  0  0  0  0  0  0  0  0  0
   -3.6784    0.7755    0.0000 C   0  0  0  0  0  0  0  0  0  0  0  0
   -2.2121    1.0915    0.0000 H   0  0  0  0  0  0  0  0  0  0  0  0
   -4.1382   -0.6523    0.0000 C   0  0  0  0  0  0  0  0  0  0  0  0
   -5.6055   -0.9677    0.0000 C   0  0  0  0  0  0  0  0  0  0  0  0
   -6.0652   -2.3956    0.0000 H   0  0  0  0  0  0  0  0  0  0  0  0
   -6.6130    0.1446    0.0000 C   0  0  0  0  0  0  0  0  0  0  0  0
   -8.0794   -0.1714    0.0000 H   0  0  0  0  0  0  0  0  0  0  0  0
   -3.1317   -1.7645    0.0000 N   0  0  0  0  0  0  0  0  0  0  0  0
   -1.6402   -1.6047    0.0000 C   0  0  0  0  0  0  0  0  0  0  0  0
   -0.2143   -1.1390    0.0000 H   0  0  0  0  0  0  0  0  0  0  0  0
   -1.9547   -0.1380    0.0000 H   0  0  0  0  0  0  0  0  0  0  0  0
   -1.0315   -2.9675    0.0000 C   0  0  2  0  0  0  0  0  0  0  0  0
   -0.1430   -4.1761    0.0000 H   0  0  0  0  0  0  0  0  0  0  0  0
    0.6798   -1.9717    0.0000 C   0  0  0  0  0  0  0  0  0  0  0  0
    2.1561   -1.7062    0.0000 H   0  0  0  0  0  0  0  0  0  0  0  0
    1.1976   -3.3795    0.0000 H   0  0  0  0  0  0  0  0  0  0  0  0
    0.6747   -0.4717    0.0000 O   0  0  0  0  0  0  0  0  0  0  0  0
    1.9712    0.2827    0.0000 P   0  0  0  0  0  0  0  0  0  0  0  0
    1.0031    1.4285    0.0000 O   0  0  0  0  0  0  0  0  0  0  0  0
    3.2727   -0.4628    0.0000 O   0  0  0  0  0  0  0  0  0  0  0  0
    4.5692    0.2916    0.0000 H   0  0  0  0  0  0  0  0  0  0  0  0
    2.9314    1.4351    0.0000 O   0  0  0  0  0  0  0  0  0  0  0  0
    4.4095    1.1796    0.0000 H   0  0  0  0  0  0  0  0  0  0  0  0
   -2.1398   -3.9814    0.0000 O   0  0  0  0  0  0  0  0  0  0  0  0
   -3.4378   -3.2254    0.0000 C   0  0  0  0  0  0  0  0  0  0  0  0
   -4.8083   -3.8349    0.0000 O   0  0  0  0  0  0  0  0  0  0  0  0
   -4.2262    3.3157    0.0000 F   0  0  0  0  0  0  0  0  0  0  0  0
   -9.8697    7.4813    0.0000 N   0  0  0  0  0  0  0  0  0  0  0  0
  -11.1688    8.2313    0.0000 N   0  0  0  0  0  0  0  0  0  0  0  0
  1  2  1  0  0  0  0 
  1  3  1  0  0  0  0 
  1  4  1  0  0  0  0 
  1  5  1  0  0  0  0 
  5  6  1  0  0  0  0 
  6  7  2  0  0  0  0 
  7  8  1  0  0  0  0 
  8  9  2  0  0  0  0 
  9 10  1  0  0  0  0 
 10 11  1  0  0  0  0 
 10 12  2  0  0  0  0 
 12 13  1  0  0  0  0 
 13 14  1  0  0  0  0 
 13 15  2  0  0  0  0 
  8 15  1  0  0  0  0 
 15 16  1  0  0  0  0 
 12 17  1  0  0  0  0 
 17 18  2  0  0  0  0 
 18 19  1  0  0  0  0 
 19 20  1  0  0  0  0 
 19 21  2  0  0  0  0 
 21 22  1  0  0  0  0 
 22 23  1  0  0  0  0 
 22 24  2  0  0  0  0 
 17 24  1  0  0  0  0 
 24 25  1  0  0  0  0 
 21 26  1  0  0  0  0 
 26 27  1  0  0  0  0 
 27 28  1  0  0  0  0 
 27 29  1  0  0  0  0 
 27 30  1  0  0  0  0 
 30 31  1  1  0  0  0 
 30 32  1  0  0  0  0 
 32 33  1  0  0  0  0 
 32 34  1  0  0  0  0 
 32 35  1  0  0  0  0 
 35 36  1  0  0  0  0 
 36 37  2  0  0  0  0 
 36 38  1  0  0  0  0 
 38 39  1  0  0  0  0 
 36 40  1  0  0  0  0 
 40 41  1  0  0  0  0 
 30 42  1  6  0  0  0 
 42 43  1  0  0  0  0 
 26 43  1  0  0  0  0 
 43 44  2  0  0  0  0 
 18 45  1  0  0  0  0 
  7 46  1  0  0  0  0 
 46 47  2  0  0  0  0 
  5 47  1  0  0  0  0 
M  END
> <Rank>
15

> <Priority_score>
0.09360000000000002

> <Reaction_type>
phosphorylation

> <Parent_ID>
69

> <Parent_InChI>
InChI=1S/C17H15FN6O3/c1-23-21-16(20-22-23)15-5-2-10(7-19-15)13-4-3-11(6-14(13)18)24-8-12(9-25)27-17(24)26/h2-7,12,25H,8-9H2,1H3

> <Parent_SMILES>
Cn1nnc(-c2ccc(-c3ccc(N4C[C@H](CO)OC4=O)cc3F)cn2)n1

$$$$
Molecule 69_metabolite 16
  CDK     0516241031

 43 46  0  0  0  0  0  0  0  0999 V2000
  -14.7417    1.0317    0.0000 C   0  0  0  0  0  0  0  0  0  0  0  0
  -16.2081    1.3472    0.0000 H   0  0  0  0  0  0  0  0  0  0  0  0
  -15.3071   -0.3577    0.0000 H   0  0  0  0  0  0  0  0  0  0  0  0
  -13.4716    0.2336    0.0000 H   0  0  0  0  0  0  0  0  0  0  0  0
  -13.7352    2.1439    0.0000 N   0  0  0  0  0  0  0  0  0  0  0  0
  -12.2423    1.9781    0.0000 N   0  0  0  0  0  0  0  0  0  0  0  0
  -11.6394    3.3539    0.0000 C   0  0  0  0  0  0  0  0  0  0  0  0
  -10.1730    3.6694    0.0000 C   0  0  0  0  0  0  0  0  0  0  0  0
   -9.7125    5.0979    0.0000 N   0  0  0  0  0  0  0  0  0  0  0  0
   -8.2454    5.4143    0.0000 C   0  0  0  0  0  0  0  0  0  0  0  0
   -7.7859    6.8421    0.0000 H   0  0  0  0  0  0  0  0  0  0  0  0
   -7.2388    4.3022    0.0000 C   0  0  0  0  0  0  0  0  0  0  0  0
   -7.6993    2.8738    0.0000 C   0  0  0  0  0  0  0  0  0  0  0  0
   -6.6926    1.7617    0.0000 H   0  0  0  0  0  0  0  0  0  0  0  0
   -9.1664    2.5574    0.0000 C   0  0  0  0  0  0  0  0  0  0  0  0
   -9.6259    1.1295    0.0000 H   0  0  0  0  0  0  0  0  0  0  0  0
   -5.7724    4.6177    0.0000 C   0  0  0  0  0  0  0  0  0  0  0  0
   -5.3119    6.0462    0.0000 C   0  0  0  0  0  0  0  0  0  0  0  0
   -3.8448    6.3626    0.0000 C   0  0  0  0  0  0  0  0  0  0  0  0
   -3.3853    7.7905    0.0000 H   0  0  0  0  0  0  0  0  0  0  0  0
   -2.8382    5.2505    0.0000 C   0  0  0  0  0  0  0  0  0  0  0  0
   -3.2986    3.8221    0.0000 C   0  0  0  0  0  0  0  0  0  0  0  0
   -2.2920    2.7100    0.0000 H   0  0  0  0  0  0  0  0  0  0  0  0
   -4.7657    3.5057    0.0000 C   0  0  0  0  0  0  0  0  0  0  0  0
   -5.2252    2.0778    0.0000 H   0  0  0  0  0  0  0  0  0  0  0  0
   -1.3717    5.5661    0.0000 N   0  0  0  0  0  0  0  0  0  0  0  0
   -0.7644    6.9376    0.0000 C   0  0  0  0  0  0  0  0  0  0  0  0
   -0.3556    8.8749    0.0000 H   0  0  0  0  0  0  0  0  0  0  0  0
    0.7202    6.7833    0.0000 C   0  0  2  0  0  0  0  0  0  0  0  0
    2.2111    6.9486    0.0000 H   0  0  0  0  0  0  0  0  0  0  0  0
    0.7102    9.7233    0.0000 C   0  0  0  0  0  0  0  0  0  0  0  0
    0.1924   11.1311    0.0000 H   0  0  0  0  0  0  0  0  0  0  0  0
   -0.7898    9.7182    0.0000 H   0  0  0  0  0  0  0  0  0  0  0  0
    2.0067   10.4777    0.0000 O   0  0  0  0  0  0  0  0  0  0  0  0
    3.3083    9.7322    0.0000 H   0  0  0  0  0  0  0  0  0  0  0  0
    1.0441    5.3166    0.0000 O   0  0  0  0  0  0  0  0  0  0  0  0
   -0.2595    4.5705    0.0000 C   0  0  0  0  0  0  0  0  0  0  0  0
   -0.4170    3.0788    0.0000 O   0  0  0  0  0  0  0  0  0  0  0  0
   -2.1918    7.3986    0.0000 O   0  0  0  0  0  0  0  0  0  0  0  0
   -2.5062    8.8653    0.0000 H   0  0  0  0  0  0  0  0  0  0  0  0
   -6.3185    7.1582    0.0000 F   0  0  0  0  0  0  0  0  0  0  0  0
  -12.7478    4.3537    0.0000 N   0  0  0  0  0  0  0  0  0  0  0  0
  -14.0469    3.6037    0.0000 N   0  0  0  0  0  0  0  0  0  0  0  0
  1  2  1  0  0  0  0 
  1  3  1  0  0  0  0 
  1  4  1  0  0  0  0 
  1  5  1  0  0  0  0 
  5  6  1  0  0  0  0 
  6  7  2  0  0  0  0 
  7  8  1  0  0  0  0 
  8  9  2  0  0  0  0 
  9 10  1  0  0  0  0 
 10 11  1  0  0  0  0 
 10 12  2  0  0  0  0 
 12 13  1  0  0  0  0 
 13 14  1  0  0  0  0 
 13 15  2  0  0  0  0 
  8 15  1  0  0  0  0 
 15 16  1  0  0  0  0 
 12 17  1  0  0  0  0 
 17 18  2  0  0  0  0 
 18 19  1  0  0  0  0 
 19 20  1  0  0  0  0 
 19 21  2  0  0  0  0 
 21 22  1  0  0  0  0 
 22 23  1  0  0  0  0 
 22 24  2  0  0  0  0 
 17 24  1  0  0  0  0 
 24 25  1  0  0  0  0 
 21 26  1  0  0  0  0 
 26 27  1  0  0  0  0 
 27 28  1  0  0  0  0 
 27 29  1  0  0  0  0 
 29 30  1  1  0  0  0 
 29 31  1  0  0  0  0 
 31 32  1  0  0  0  0 
 31 33  1  0  0  0  0 
 31 34  1  0  0  0  0 
 34 35  1  0  0  0  0 
 29 36  1  6  0  0  0 
 36 37  1  0  0  0  0 
 26 37  1  0  0  0  0 
 37 38  2  0  0  0  0 
 27 39  1  0  0  0  0 
 39 40  1  0  0  0  0 
 18 41  1  0  0  0  0 
  7 42  1  0  0  0  0 
 42 43  2  0  0  0  0 
  5 43  1  0  0  0  0 
M  END
> <Rank>
16

> <Priority_score>
0.092

> <Reaction_type>
aliphatic_hydroxylation_(sec_carbon_next_to_SP2,in_a_ring)

> <Parent_ID>
69

> <Parent_InChI>
InChI=1S/C17H15FN6O3/c1-23-21-16(20-22-23)15-5-2-10(7-19-15)13-4-3-11(6-14(13)18)24-8-12(9-25)27-17(24)26/h2-7,12,25H,8-9H2,1H3

> <Parent_SMILES>
Cn1nnc(-c2ccc(-c3ccc(N4C[C@H](CO)OC4=O)cc3F)cn2)n1

$$$$
Molecule 69_metabolite 17
  CDK     0516241031

 43 46  0  0  0  0  0  0  0  0999 V2000
  -16.0023   -0.6351    0.0000 C   0  0  0  0  0  0  0  0  0  0  0  0
  -17.4687   -0.3196    0.0000 H   0  0  0  0  0  0  0  0  0  0  0  0
  -16.5677   -2.0245    0.0000 H   0  0  0  0  0  0  0  0  0  0  0  0
  -14.7322   -1.4331    0.0000 H   0  0  0  0  0  0  0  0  0  0  0  0
  -14.9958    0.4771    0.0000 N   0  0  0  0  0  0  0  0  0  0  0  0
  -13.5029    0.3114    0.0000 N   0  0  0  0  0  0  0  0  0  0  0  0
  -12.9000    1.6871    0.0000 C   0  0  0  0  0  0  0  0  0  0  0  0
  -11.4336    2.0026    0.0000 C   0  0  0  0  0  0  0  0  0  0  0  0
  -10.9731    3.4311    0.0000 N   0  0  0  0  0  0  0  0  0  0  0  0
   -9.5060    3.7475    0.0000 C   0  0  0  0  0  0  0  0  0  0  0  0
   -9.0465    5.1754    0.0000 H   0  0  0  0  0  0  0  0  0  0  0  0
   -8.4994    2.6354    0.0000 C   0  0  0  0  0  0  0  0  0  0  0  0
   -8.9599    1.2070    0.0000 C   0  0  0  0  0  0  0  0  0  0  0  0
   -7.9532    0.0949    0.0000 H   0  0  0  0  0  0  0  0  0  0  0  0
  -10.4270    0.8906    0.0000 C   0  0  0  0  0  0  0  0  0  0  0  0
  -10.8865   -0.5373    0.0000 H   0  0  0  0  0  0  0  0  0  0  0  0
   -7.0330    2.9510    0.0000 C   0  0  0  0  0  0  0  0  0  0  0  0
   -6.5725    4.3794    0.0000 C   0  0  0  0  0  0  0  0  0  0  0  0
   -5.1054    4.6958    0.0000 C   0  0  0  0  0  0  0  0  0  0  0  0
   -4.6459    6.1237    0.0000 H   0  0  0  0  0  0  0  0  0  0  0  0
   -4.0988    3.5838    0.0000 C   0  0  0  0  0  0  0  0  0  0  0  0
   -4.5592    2.1553    0.0000 C   0  0  0  0  0  0  0  0  0  0  0  0
   -3.5526    1.0432    0.0000 H   0  0  0  0  0  0  0  0  0  0  0  0
   -6.0263    1.8389    0.0000 C   0  0  0  0  0  0  0  0  0  0  0  0
   -6.4858    0.4110    0.0000 H   0  0  0  0  0  0  0  0  0  0  0  0
   -2.6323    3.8993    0.0000 N   0  0  0  0  0  0  0  0  0  0  0  0
   -2.0250    5.2708    0.0000 C   0  0  0  0  0  0  0  0  0  0  0  0
   -1.7153    6.7385    0.0000 H   0  0  0  0  0  0  0  0  0  0  0  0
   -3.4524    5.7319    0.0000 H   0  0  0  0  0  0  0  0  0  0  0  0
   -0.5404    5.1165    0.0000 C   0  0  1  0  0  0  0  0  0  0  0  0
    0.9505    5.2818    0.0000 C   0  0  0  0  0  0  0  0  0  0  0  0
    0.8543    3.7849    0.0000 H   0  0  0  0  0  0  0  0  0  0  0  0
    2.4080    4.9271    0.0000 H   0  0  0  0  0  0  0  0  0  0  0  0
    1.5528    6.6555    0.0000 O   0  0  0  0  0  0  0  0  0  0  0  0
    3.0437    6.8208    0.0000 H   0  0  0  0  0  0  0  0  0  0  0  0
   -0.5455    6.6165    0.0000 O   0  0  0  0  0  0  0  0  0  0  0  0
    0.7510    7.3710    0.0000 H   0  0  0  0  0  0  0  0  0  0  0  0
   -0.2165    3.6498    0.0000 O   0  0  0  0  0  0  0  0  0  0  0  0
   -1.5201    2.9038    0.0000 C   0  0  0  0  0  0  0  0  0  0  0  0
   -1.6776    1.4120    0.0000 O   0  0  0  0  0  0  0  0  0  0  0  0
   -7.5791    5.4915    0.0000 F   0  0  0  0  0  0  0  0  0  0  0  0
  -14.0084    2.6869    0.0000 N   0  0  0  0  0  0  0  0  0  0  0  0
  -15.3075    1.9369    0.0000 N   0  0  0  0  0  0  0  0  0  0  0  0
  1  2  1  0  0  0  0 
  1  3  1  0  0  0  0 
  1  4  1  0  0  0  0 
  1  5  1  0  0  0  0 
  5  6  1  0  0  0  0 
  6  7  2  0  0  0  0 
  7  8  1  0  0  0  0 
  8  9  2  0  0  0  0 
  9 10  1  0  0  0  0 
 10 11  1  0  0  0  0 
 10 12  2  0  0  0  0 
 12 13  1  0  0  0  0 
 13 14  1  0  0  0  0 
 13 15  2  0  0  0  0 
  8 15  1  0  0  0  0 
 15 16  1  0  0  0  0 
 12 17  1  0  0  0  0 
 17 18  2  0  0  0  0 
 18 19  1  0  0  0  0 
 19 20  1  0  0  0  0 
 19 21  2  0  0  0  0 
 21 22  1  0  0  0  0 
 22 23  1  0  0  0  0 
 22 24  2  0  0  0  0 
 17 24  1  0  0  0  0 
 24 25  1  0  0  0  0 
 21 26  1  0  0  0  0 
 26 27  1  0  0  0  0 
 27 28  1  0  0  0  0 
 27 29  1  0  0  0  0 
 27 30  1  0  0  0  0 
 30 31  1  6  0  0  0 
 31 32  1  0  0  0  0 
 31 33  1  0  0  0  0 
 31 34  1  0  0  0  0 
 34 35  1  0  0  0  0 
 30 36  1  1  0  0  0 
 36 37  1  0  0  0  0 
 30 38  1  0  0  0  0 
 38 39  1  0  0  0  0 
 26 39  1  0  0  0  0 
 39 40  2  0  0  0  0 
 18 41  1  0  0  0  0 
  7 42  1  0  0  0  0 
 42 43  2  0  0  0  0 
  5 43  1  0  0  0  0 
M  END
> <Rank>
16

> <Priority_score>
0.092

> <Reaction_type>
aliphatic hydroxylation

> <Parent_ID>
69

> <Parent_InChI>
InChI=1S/C17H15FN6O3/c1-23-21-16(20-22-23)15-5-2-10(7-19-15)13-4-3-11(6-14(13)18)24-8-12(9-25)27-17(24)26/h2-7,12,25H,8-9H2,1H3

> <Parent_SMILES>
Cn1nnc(-c2ccc(-c3ccc(N4C[C@H](CO)OC4=O)cc3F)cn2)n1

$$$$
Molecule 69_metabolite 18
  CDK     0516241031

 43 46  0  0  0  0  0  0  0  0999 V2000
  -14.7417    1.0317    0.0000 C   0  0  0  0  0  0  0  0  0  0  0  0
  -16.2081    1.3472    0.0000 H   0  0  0  0  0  0  0  0  0  0  0  0
  -15.3071   -0.3577    0.0000 H   0  0  0  0  0  0  0  0  0  0  0  0
  -13.4716    0.2336    0.0000 H   0  0  0  0  0  0  0  0  0  0  0  0
  -13.7352    2.1439    0.0000 N   0  0  0  0  0  0  0  0  0  0  0  0
  -12.2423    1.9781    0.0000 N   0  0  0  0  0  0  0  0  0  0  0  0
  -11.6394    3.3539    0.0000 C   0  0  0  0  0  0  0  0  0  0  0  0
  -10.1730    3.6694    0.0000 C   0  0  0  0  0  0  0  0  0  0  0  0
   -9.7125    5.0979    0.0000 N   0  0  0  0  0  0  0  0  0  0  0  0
   -8.2454    5.4143    0.0000 C   0  0  0  0  0  0  0  0  0  0  0  0
   -7.7859    6.8421    0.0000 H   0  0  0  0  0  0  0  0  0  0  0  0
   -7.2388    4.3022    0.0000 C   0  0  0  0  0  0  0  0  0  0  0  0
   -7.6993    2.8738    0.0000 C   0  0  0  0  0  0  0  0  0  0  0  0
   -6.6926    1.7617    0.0000 H   0  0  0  0  0  0  0  0  0  0  0  0
   -9.1664    2.5574    0.0000 C   0  0  0  0  0  0  0  0  0  0  0  0
   -9.6259    1.1295    0.0000 H   0  0  0  0  0  0  0  0  0  0  0  0
   -5.7724    4.6177    0.0000 C   0  0  0  0  0  0  0  0  0  0  0  0
   -5.3119    6.0462    0.0000 C   0  0  0  0  0  0  0  0  0  0  0  0
   -3.8448    6.3626    0.0000 C   0  0  0  0  0  0  0  0  0  0  0  0
   -2.8382    5.2505    0.0000 C   0  0  0  0  0  0  0  0  0  0  0  0
   -3.2986    3.8221    0.0000 C   0  0  0  0  0  0  0  0  0  0  0  0
   -2.2920    2.7100    0.0000 H   0  0  0  0  0  0  0  0  0  0  0  0
   -4.7657    3.5057    0.0000 C   0  0  0  0  0  0  0  0  0  0  0  0
   -5.2252    2.0778    0.0000 H   0  0  0  0  0  0  0  0  0  0  0  0
   -1.3717    5.5661    0.0000 N   0  0  0  0  0  0  0  0  0  0  0  0
   -0.7644    6.9376    0.0000 C   0  0  0  0  0  0  0  0  0  0  0  0
   -0.3556    8.8749    0.0000 H   0  0  0  0  0  0  0  0  0  0  0  0
   -2.1918    7.3986    0.0000 H   0  0  0  0  0  0  0  0  0  0  0  0
    0.7202    6.7833    0.0000 C   0  0  2  0  0  0  0  0  0  0  0  0
    2.2111    6.9486    0.0000 H   0  0  0  0  0  0  0  0  0  0  0  0
    0.7102    9.7233    0.0000 C   0  0  0  0  0  0  0  0  0  0  0  0
    0.1924   11.1311    0.0000 H   0  0  0  0  0  0  0  0  0  0  0  0
   -0.7898    9.7182    0.0000 H   0  0  0  0  0  0  0  0  0  0  0  0
    2.0067   10.4777    0.0000 O   0  0  0  0  0  0  0  0  0  0  0  0
    3.3083    9.7322    0.0000 H   0  0  0  0  0  0  0  0  0  0  0  0
    1.0441    5.3166    0.0000 O   0  0  0  0  0  0  0  0  0  0  0  0
   -0.2595    4.5705    0.0000 C   0  0  0  0  0  0  0  0  0  0  0  0
   -0.4170    3.0788    0.0000 O   0  0  0  0  0  0  0  0  0  0  0  0
   -3.3853    7.7905    0.0000 O   0  0  0  0  0  0  0  0  0  0  0  0
   -1.9189    8.1065    0.0000 H   0  0  0  0  0  0  0  0  0  0  0  0
   -6.3185    7.1582    0.0000 F   0  0  0  0  0  0  0  0  0  0  0  0
  -12.7478    4.3537    0.0000 N   0  0  0  0  0  0  0  0  0  0  0  0
  -14.0469    3.6037    0.0000 N   0  0  0  0  0  0  0  0  0  0  0  0
  1  2  1  0  0  0  0 
  1  3  1  0  0  0  0 
  1  4  1  0  0  0  0 
  1  5  1  0  0  0  0 
  5  6  1  0  0  0  0 
  6  7  2  0  0  0  0 
  7  8  1  0  0  0  0 
  8  9  2  0  0  0  0 
  9 10  1  0  0  0  0 
 10 11  1  0  0  0  0 
 10 12  2  0  0  0  0 
 12 13  1  0  0  0  0 
 13 14  1  0  0  0  0 
 13 15  2  0  0  0  0 
  8 15  1  0  0  0  0 
 15 16  1  0  0  0  0 
 12 17  1  0  0  0  0 
 17 18  2  0  0  0  0 
 18 19  1  0  0  0  0 
 19 20  2  0  0  0  0 
 20 21  1  0  0  0  0 
 21 22  1  0  0  0  0 
 21 23  2  0  0  0  0 
 17 23  1  0  0  0  0 
 23 24  1  0  0  0  0 
 20 25  1  0  0  0  0 
 25 26  1  0  0  0  0 
 26 27  1  0  0  0  0 
 26 28  1  0  0  0  0 
 26 29  1  0  0  0  0 
 29 30  1  1  0  0  0 
 29 31  1  0  0  0  0 
 31 32  1  0  0  0  0 
 31 33  1  0  0  0  0 
 31 34  1  0  0  0  0 
 34 35  1  0  0  0  0 
 29 36  1  6  0  0  0 
 36 37  1  0  0  0  0 
 25 37  1  0  0  0  0 
 37 38  2  0  0  0  0 
 19 39  1  0  0  0  0 
 39 40  1  0  0  0  0 
 18 41  1  0  0  0  0 
  7 42  1  0  0  0  0 
 42 43  2  0  0  0  0 
  5 43  1  0  0  0  0 
M  END
> <Rank>
18

> <Priority_score>
0.084

> <Reaction_type>
aromatic_hydroxylation_(ortho_to_nitrogen)

> <Parent_ID>
69

> <Parent_InChI>
InChI=1S/C17H15FN6O3/c1-23-21-16(20-22-23)15-5-2-10(7-19-15)13-4-3-11(6-14(13)18)24-8-12(9-25)27-17(24)26/h2-7,12,25H,8-9H2,1H3

> <Parent_SMILES>
Cn1nnc(-c2ccc(-c3ccc(N4C[C@H](CO)OC4=O)cc3F)cn2)n1

$$$$
Molecule 69_metabolite 19
  CDK     0516241031

 43 45  0  0  0  0  0  0  0  0999 V2000
   -6.4366   14.5050    0.0000 C   0  0  0  0  0  0  0  0  0  0  0  0
   -5.8368   15.8799    0.0000 H   0  0  0  0  0  0  0  0  0  0  0  0
   -4.9785   14.1530    0.0000 H   0  0  0  0  0  0  0  0  0  0  0  0
   -6.5301   13.0079    0.0000 H   0  0  0  0  0  0  0  0  0  0  0  0
   -7.9272   14.3371    0.0000 N   0  0  0  0  0  0  0  0  0  0  0  0
   -8.6641   13.0282    0.0000 N   0  0  0  0  0  0  0  0  0  0  0  0
  -10.1330   13.3418    0.0000 C   0  0  0  0  0  0  0  0  0  0  0  0
  -11.2452   12.3353    0.0000 C   0  0  0  0  0  0  0  0  0  0  0  0
  -12.6739   12.7953    0.0000 N   0  0  0  0  0  0  0  0  0  0  0  0
  -13.7872   11.7888    0.0000 C   0  0  0  0  0  0  0  0  0  0  0  0
  -15.2148   12.2493    0.0000 H   0  0  0  0  0  0  0  0  0  0  0  0
  -13.4719   10.3224    0.0000 C   0  0  0  0  0  0  0  0  0  0  0  0
  -12.0433    9.8624    0.0000 C   0  0  0  0  0  0  0  0  0  0  0  0
  -11.7280    8.3959    0.0000 H   0  0  0  0  0  0  0  0  0  0  0  0
  -10.9300   10.8688    0.0000 C   0  0  0  0  0  0  0  0  0  0  0  0
   -9.5024   10.4084    0.0000 H   0  0  0  0  0  0  0  0  0  0  0  0
  -14.5841    9.3159    0.0000 C   0  0  0  0  0  0  0  0  0  0  0  0
  -16.0127    9.7759    0.0000 C   0  0  0  0  0  0  0  0  0  0  0  0
  -17.1260    8.7694    0.0000 C   0  0  0  0  0  0  0  0  0  0  0  0
  -18.5536    9.2298    0.0000 H   0  0  0  0  0  0  0  0  0  0  0  0
  -16.8107    7.3029    0.0000 C   0  0  0  0  0  0  0  0  0  0  0  0
  -15.3821    6.8429    0.0000 C   0  0  0  0  0  0  0  0  0  0  0  0
  -15.0668    5.3764    0.0000 H   0  0  0  0  0  0  0  0  0  0  0  0
  -14.2688    7.8494    0.0000 C   0  0  0  0  0  0  0  0  0  0  0  0
  -12.8412    7.3890    0.0000 H   0  0  0  0  0  0  0  0  0  0  0  0
  -17.9229    6.2964    0.0000 N   0  0  0  0  0  0  0  0  0  0  0  0
  -17.6074    4.8300    0.0000 H   0  0  0  0  0  0  0  0  0  0  0  0
  -19.3507    6.7564    0.0000 C   0  0  0  0  0  0  0  0  0  0  0  0
  -19.6662    8.2228    0.0000 O   0  0  0  0  0  0  0  0  0  0  0  0
  -20.4629    5.7499    0.0000 O   0  0  0  0  0  0  0  0  0  0  0  0
  -21.8906    6.2099    0.0000 C   0  0  2  0  0  0  0  0  0  0  0  0
  -23.3896    6.1538    0.0000 H   0  0  0  0  0  0  0  0  0  0  0  0
  -22.0957    4.7240    0.0000 C   0  0  0  0  0  0  0  0  0  0  0  0
  -23.4851    4.1586    0.0000 H   0  0  0  0  0  0  0  0  0  0  0  0
  -20.9114    3.8034    0.0000 O   0  0  0  0  0  0  0  0  0  0  0  0
  -22.2062    7.6764    0.0000 C   0  0  0  0  0  0  0  0  0  0  0  0
  -20.7072    7.7324    0.0000 H   0  0  0  0  0  0  0  0  0  0  0  0
  -22.0011    9.1623    0.0000 H   0  0  0  0  0  0  0  0  0  0  0  0
  -23.6339    8.1363    0.0000 O   0  0  0  0  0  0  0  0  0  0  0  0
  -23.9494    9.6028    0.0000 H   0  0  0  0  0  0  0  0  0  0  0  0
  -16.3280   11.2424    0.0000 F   0  0  0  0  0  0  0  0  0  0  0  0
  -10.2978   14.8253    0.0000 N   0  0  0  0  0  0  0  0  0  0  0  0
   -8.9305   15.4423    0.0000 N   0  0  0  0  0  0  0  0  0  0  0  0
  1  2  1  0  0  0  0 
  1  3  1  0  0  0  0 
  1  4  1  0  0  0  0 
  1  5  1  0  0  0  0 
  5  6  1  0  0  0  0 
  6  7  2  0  0  0  0 
  7  8  1  0  0  0  0 
  8  9  2  0  0  0  0 
  9 10  1  0  0  0  0 
 10 11  1  0  0  0  0 
 10 12  2  0  0  0  0 
 12 13  1  0  0  0  0 
 13 14  1  0  0  0  0 
 13 15  2  0  0  0  0 
  8 15  1  0  0  0  0 
 15 16  1  0  0  0  0 
 12 17  1  0  0  0  0 
 17 18  2  0  0  0  0 
 18 19  1  0  0  0  0 
 19 20  1  0  0  0  0 
 19 21  2  0  0  0  0 
 21 22  1  0  0  0  0 
 22 23  1  0  0  0  0 
 22 24  2  0  0  0  0 
 17 24  1  0  0  0  0 
 24 25  1  0  0  0  0 
 21 26  1  0  0  0  0 
 26 27  1  0  0  0  0 
 26 28  1  0  0  0  0 
 28 29  2  0  0  0  0 
 28 30  1  0  0  0  0 
 30 31  1  0  0  0  0 
 31 32  1  1  0  0  0 
 31 33  1  6  0  0  0 
 33 34  1  0  0  0  0 
 33 35  2  0  0  0  0 
 31 36  1  0  0  0  0 
 36 37  1  0  0  0  0 
 36 38  1  0  0  0  0 
 36 39  1  0  0  0  0 
 39 40  1  0  0  0  0 
 18 41  1  0  0  0  0 
  7 42  1  0  0  0  0 
 42 43  2  0  0  0  0 
  5 43  1  0  0  0  0 
M  END
> <Rank>
18

> <Priority_score>
0.084

> <Reaction_type>
N-dealkylation

> <Parent_ID>
69

> <Parent_InChI>
InChI=1S/C17H15FN6O3/c1-23-21-16(20-22-23)15-5-2-10(7-19-15)13-4-3-11(6-14(13)18)24-8-12(9-25)27-17(24)26/h2-7,12,25H,8-9H2,1H3

> <Parent_SMILES>
Cn1nnc(-c2ccc(-c3ccc(N4C[C@H](CO)OC4=O)cc3F)cn2)n1

$$$$
Molecule 69_metabolite 20
  CDK     0516241031

 43 46  0  0  0  0  0  0  0  0999 V2000
  -15.4041    1.5617    0.0000 C   0  0  0  0  0  0  0  0  0  0  0  0
  -16.6110    0.6710    0.0000 H   0  0  0  0  0  0  0  0  0  0  0  0
  -16.4909    2.5956    0.0000 H   0  0  0  0  0  0  0  0  0  0  0  0
  -14.5746    2.8115    0.0000 H   0  0  0  0  0  0  0  0  0  0  0  0
  -14.0293    0.9619    0.0000 N   0  0  0  0  0  0  0  0  0  0  0  0
  -12.7366    1.7270    0.0000 N   0  0  0  0  0  0  0  0  0  0  0  0
  -11.6213    0.7209    0.0000 C   0  0  0  0  0  0  0  0  0  0  0  0
  -10.1548    1.0364    0.0000 C   0  0  0  0  0  0  0  0  0  0  0  0
   -9.1476   -0.0763    0.0000 N   0  0  0  0  0  0  0  0  0  0  0  0
   -7.6802    0.2387    0.0000 C   0  0  0  0  0  0  0  0  0  0  0  0
   -6.6741   -0.8738    0.0000 H   0  0  0  0  0  0  0  0  0  0  0  0
   -7.2200    1.6664    0.0000 C   0  0  0  0  0  0  0  0  0  0  0  0
   -8.2272    2.7791    0.0000 C   0  0  0  0  0  0  0  0  0  0  0  0
   -7.7670    4.2067    0.0000 H   0  0  0  0  0  0  0  0  0  0  0  0
   -9.6946    2.4641    0.0000 C   0  0  0  0  0  0  0  0  0  0  0  0
  -10.7008    3.5766    0.0000 H   0  0  0  0  0  0  0  0  0  0  0  0
   -5.7536    1.9819    0.0000 C   0  0  0  0  0  0  0  0  0  0  0  0
   -4.7464    0.8692    0.0000 C   0  0  0  0  0  0  0  0  0  0  0  0
   -3.2790    1.1842    0.0000 C   0  0  0  0  0  0  0  0  0  0  0  0
   -2.2729    0.0717    0.0000 H   0  0  0  0  0  0  0  0  0  0  0  0
   -2.8188    2.6119    0.0000 C   0  0  0  0  0  0  0  0  0  0  0  0
   -3.8260    3.7246    0.0000 C   0  0  0  0  0  0  0  0  0  0  0  0
   -5.2934    3.4096    0.0000 C   0  0  0  0  0  0  0  0  0  0  0  0
   -6.2995    4.5221    0.0000 H   0  0  0  0  0  0  0  0  0  0  0  0
   -3.3658    5.1522    0.0000 O   0  0  0  0  0  0  0  0  0  0  0  0
   -1.8993    5.4675    0.0000 H   0  0  0  0  0  0  0  0  0  0  0  0
   -1.3523    2.9274    0.0000 N   0  0  0  0  0  0  0  0  0  0  0  0
   -0.7450    4.2990    0.0000 C   0  0  0  0  0  0  0  0  0  0  0  0
   -0.3362    6.2363    0.0000 H   0  0  0  0  0  0  0  0  0  0  0  0
   -2.1724    4.7600    0.0000 H   0  0  0  0  0  0  0  0  0  0  0  0
    0.7396    4.1447    0.0000 C   0  0  2  0  0  0  0  0  0  0  0  0
    2.2305    4.3099    0.0000 H   0  0  0  0  0  0  0  0  0  0  0  0
    0.7296    7.0847    0.0000 C   0  0  0  0  0  0  0  0  0  0  0  0
    0.2117    8.4924    0.0000 H   0  0  0  0  0  0  0  0  0  0  0  0
   -0.7704    7.0795    0.0000 H   0  0  0  0  0  0  0  0  0  0  0  0
    2.0260    7.8391    0.0000 O   0  0  0  0  0  0  0  0  0  0  0  0
    3.3276    7.0935    0.0000 H   0  0  0  0  0  0  0  0  0  0  0  0
    1.0635    2.6779    0.0000 O   0  0  0  0  0  0  0  0  0  0  0  0
   -0.2402    1.9319    0.0000 C   0  0  0  0  0  0  0  0  0  0  0  0
   -0.3976    0.4402    0.0000 O   0  0  0  0  0  0  0  0  0  0  0  0
   -5.2066   -0.5584    0.0000 F   0  0  0  0  0  0  0  0  0  0  0  0
  -12.2204   -0.6462    0.0000 N   0  0  0  0  0  0  0  0  0  0  0  0
  -13.7129   -0.4969    0.0000 N   0  0  0  0  0  0  0  0  0  0  0  0
  1  2  1  0  0  0  0 
  1  3  1  0  0  0  0 
  1  4  1  0  0  0  0 
  1  5  1  0  0  0  0 
  5  6  1  0  0  0  0 
  6  7  2  0  0  0  0 
  7  8  1  0  0  0  0 
  8  9  2  0  0  0  0 
  9 10  1  0  0  0  0 
 10 11  1  0  0  0  0 
 10 12  2  0  0  0  0 
 12 13  1  0  0  0  0 
 13 14  1  0  0  0  0 
 13 15  2  0  0  0  0 
  8 15  1  0  0  0  0 
 15 16  1  0  0  0  0 
 12 17  1  0  0  0  0 
 17 18  2  0  0  0  0 
 18 19  1  0  0  0  0 
 19 20  1  0  0  0  0 
 19 21  2  0  0  0  0 
 21 22  1  0  0  0  0 
 22 23  2  0  0  0  0 
 17 23  1  0  0  0  0 
 23 24  1  0  0  0  0 
 22 25  1  0  0  0  0 
 25 26  1  0  0  0  0 
 21 27  1  0  0  0  0 
 27 28  1  0  0  0  0 
 28 29  1  0  0  0  0 
 28 30  1  0  0  0  0 
 28 31  1  0  0  0  0 
 31 32  1  1  0  0  0 
 31 33  1  0  0  0  0 
 33 34  1  0  0  0  0 
 33 35  1  0  0  0  0 
 33 36  1  0  0  0  0 
 36 37  1  0  0  0  0 
 31 38  1  6  0  0  0 
 38 39  1  0  0  0  0 
 27 39  1  0  0  0  0 
 39 40  2  0  0  0  0 
 18 41  1  0  0  0  0 
  7 42  1  0  0  0  0 
 42 43  2  0  0  0  0 
  5 43  1  0  0  0  0 
M  END
> <Rank>
18

> <Priority_score>
0.084

> <Reaction_type>
aromatic_hydroxylation_(ortho_to_nitrogen)

> <Parent_ID>
69

> <Parent_InChI>
InChI=1S/C17H15FN6O3/c1-23-21-16(20-22-23)15-5-2-10(7-19-15)13-4-3-11(6-14(13)18)24-8-12(9-25)27-17(24)26/h2-7,12,25H,8-9H2,1H3

> <Parent_SMILES>
Cn1nnc(-c2ccc(-c3ccc(N4C[C@H](CO)OC4=O)cc3F)cn2)n1

$$$$
Molecule 69_metabolite 21
  CDK     0516241031

 43 46  0  0  0  0  0  0  0  0999 V2000
    2.6932    7.5141    0.0000 C   0  0  0  0  0  0  0  0  0  0  0  0
    4.1597    7.1985    0.0000 H   0  0  0  0  0  0  0  0  0  0  0  0
    3.2586    8.9034    0.0000 H   0  0  0  0  0  0  0  0  0  0  0  0
    1.4231    8.3121    0.0000 H   0  0  0  0  0  0  0  0  0  0  0  0
    1.6868    6.4018    0.0000 N   0  0  0  0  0  0  0  0  0  0  0  0
    0.1939    6.5676    0.0000 N   0  0  0  0  0  0  0  0  0  0  0  0
   -0.4090    5.1918    0.0000 C   0  0  0  0  0  0  0  0  0  0  0  0
   -1.8755    4.8763    0.0000 C   0  0  0  0  0  0  0  0  0  0  0  0
   -2.8827    5.9890    0.0000 N   0  0  0  0  0  0  0  0  0  0  0  0
   -4.3501    5.6740    0.0000 C   0  0  0  0  0  0  0  0  0  0  0  0
   -4.8103    4.2463    0.0000 C   0  0  0  0  0  0  0  0  0  0  0  0
   -3.8031    3.1337    0.0000 C   0  0  0  0  0  0  0  0  0  0  0  0
   -4.2633    1.7060    0.0000 H   0  0  0  0  0  0  0  0  0  0  0  0
   -2.3357    3.4487    0.0000 C   0  0  0  0  0  0  0  0  0  0  0  0
   -1.3296    2.3361    0.0000 H   0  0  0  0  0  0  0  0  0  0  0  0
   -6.2767    3.9308    0.0000 C   0  0  0  0  0  0  0  0  0  0  0  0
   -6.7372    2.5024    0.0000 C   0  0  0  0  0  0  0  0  0  0  0  0
   -8.2043    2.1860    0.0000 C   0  0  0  0  0  0  0  0  0  0  0  0
   -8.6638    0.7581    0.0000 H   0  0  0  0  0  0  0  0  0  0  0  0
   -9.2109    3.2980    0.0000 C   0  0  0  0  0  0  0  0  0  0  0  0
   -8.7505    4.7265    0.0000 C   0  0  0  0  0  0  0  0  0  0  0  0
   -9.7571    5.8385    0.0000 H   0  0  0  0  0  0  0  0  0  0  0  0
   -7.2834    5.0429    0.0000 C   0  0  0  0  0  0  0  0  0  0  0  0
   -6.8238    6.4708    0.0000 H   0  0  0  0  0  0  0  0  0  0  0  0
  -10.6774    2.9825    0.0000 N   0  0  0  0  0  0  0  0  0  0  0  0
  -11.2847    1.6109    0.0000 C   0  0  0  0  0  0  0  0  0  0  0  0
  -11.6935   -0.3264    0.0000 H   0  0  0  0  0  0  0  0  0  0  0  0
   -9.8573    1.1499    0.0000 H   0  0  0  0  0  0  0  0  0  0  0  0
  -12.7693    1.7652    0.0000 C   0  0  2  0  0  0  0  0  0  0  0  0
  -14.2602    1.6000    0.0000 H   0  0  0  0  0  0  0  0  0  0  0  0
  -12.7593   -1.1747    0.0000 C   0  0  0  0  0  0  0  0  0  0  0  0
  -12.2414   -2.5825    0.0000 H   0  0  0  0  0  0  0  0  0  0  0  0
  -10.8105   -0.8243    0.0000 H   0  0  0  0  0  0  0  0  0  0  0  0
  -14.0557   -1.9292    0.0000 O   0  0  0  0  0  0  0  0  0  0  0  0
  -15.3573   -1.1836    0.0000 H   0  0  0  0  0  0  0  0  0  0  0  0
  -13.0932    3.2320    0.0000 O   0  0  0  0  0  0  0  0  0  0  0  0
  -11.7895    3.9780    0.0000 C   0  0  0  0  0  0  0  0  0  0  0  0
  -11.6321    5.4697    0.0000 O   0  0  0  0  0  0  0  0  0  0  0  0
   -5.7305    1.3903    0.0000 F   0  0  0  0  0  0  0  0  0  0  0  0
   -5.3562    6.7865    0.0000 O   0  0  0  0  0  0  0  0  0  0  0  0
   -4.8958    8.2141    0.0000 H   0  0  0  0  0  0  0  0  0  0  0  0
    0.6994    4.1921    0.0000 N   0  0  0  0  0  0  0  0  0  0  0  0
    1.9984    4.9421    0.0000 N   0  0  0  0  0  0  0  0  0  0  0  0
  1  2  1  0  0  0  0 
  1  3  1  0  0  0  0 
  1  4  1  0  0  0  0 
  1  5  1  0  0  0  0 
  5  6  1  0  0  0  0 
  6  7  2  0  0  0  0 
  7  8  1  0  0  0  0 
  8  9  2  0  0  0  0 
  9 10  1  0  0  0  0 
 10 11  2  0  0  0  0 
 11 12  1  0  0  0  0 
 12 13  1  0  0  0  0 
 12 14  2  0  0  0  0 
  8 14  1  0  0  0  0 
 14 15  1  0  0  0  0 
 11 16  1  0  0  0  0 
 16 17  2  0  0  0  0 
 17 18  1  0  0  0  0 
 18 19  1  0  0  0  0 
 18 20  2  0  0  0  0 
 20 21  1  0  0  0  0 
 21 22  1  0  0  0  0 
 21 23  2  0  0  0  0 
 16 23  1  0  0  0  0 
 23 24  1  0  0  0  0 
 20 25  1  0  0  0  0 
 25 26  1  0  0  0  0 
 26 27  1  0  0  0  0 
 26 28  1  0  0  0  0 
 26 29  1  0  0  0  0 
 29 30  1  1  0  0  0 
 29 31  1  0  0  0  0 
 31 32  1  0  0  0  0 
 31 33  1  0  0  0  0 
 31 34  1  0  0  0  0 
 34 35  1  0  0  0  0 
 29 36  1  6  0  0  0 
 36 37  1  0  0  0  0 
 25 37  1  0  0  0  0 
 37 38  2  0  0  0  0 
 17 39  1  0  0  0  0 
 10 40  1  0  0  0  0 
 40 41  1  0  0  0  0 
  7 42  1  0  0  0  0 
 42 43  2  0  0  0  0 
  5 43  1  0  0  0  0 
M  END
> <Rank>
21

> <Priority_score>
0.07955763604447046

> <Reaction_type>
aromatic hydroxylation

> <Parent_ID>
69

> <Parent_InChI>
InChI=1S/C17H15FN6O3/c1-23-21-16(20-22-23)15-5-2-10(7-19-15)13-4-3-11(6-14(13)18)24-8-12(9-25)27-17(24)26/h2-7,12,25H,8-9H2,1H3

> <Parent_SMILES>
Cn1nnc(-c2ccc(-c3ccc(N4C[C@H](CO)OC4=O)cc3F)cn2)n1

$$$$
Molecule 69_metabolite 22
  CDK     0516241031

 43 46  0  0  0  0  0  0  0  0999 V2000
    2.6932    7.5141    0.0000 C   0  0  0  0  0  0  0  0  0  0  0  0
    4.1597    7.1985    0.0000 H   0  0  0  0  0  0  0  0  0  0  0  0
    3.2586    8.9034    0.0000 H   0  0  0  0  0  0  0  0  0  0  0  0
    1.4231    8.3121    0.0000 H   0  0  0  0  0  0  0  0  0  0  0  0
    1.6868    6.4018    0.0000 N   0  0  0  0  0  0  0  0  0  0  0  0
    0.1939    6.5676    0.0000 N   0  0  0  0  0  0  0  0  0  0  0  0
   -0.4090    5.1918    0.0000 C   0  0  0  0  0  0  0  0  0  0  0  0
   -1.8755    4.8763    0.0000 C   0  0  0  0  0  0  0  0  0  0  0  0
   -2.8827    5.9890    0.0000 N   0  0  0  0  0  0  0  0  0  0  0  0
   -4.3501    5.6740    0.0000 C   0  0  0  0  0  0  0  0  0  0  0  0
   -5.3562    6.7865    0.0000 H   0  0  0  0  0  0  0  0  0  0  0  0
   -4.8103    4.2463    0.0000 C   0  0  0  0  0  0  0  0  0  0  0  0
   -3.8031    3.1337    0.0000 C   0  0  0  0  0  0  0  0  0  0  0  0
   -4.2633    1.7060    0.0000 H   0  0  0  0  0  0  0  0  0  0  0  0
   -2.3357    3.4487    0.0000 C   0  0  0  0  0  0  0  0  0  0  0  0
   -1.3296    2.3361    0.0000 H   0  0  0  0  0  0  0  0  0  0  0  0
   -6.2767    3.9308    0.0000 C   0  0  0  0  0  0  0  0  0  0  0  0
   -6.7372    2.5024    0.0000 C   0  0  0  0  0  0  0  0  0  0  0  0
   -8.2043    2.1860    0.0000 C   0  0  0  0  0  0  0  0  0  0  0  0
   -8.6638    0.7581    0.0000 H   0  0  0  0  0  0  0  0  0  0  0  0
   -9.2109    3.2980    0.0000 C   0  0  0  0  0  0  0  0  0  0  0  0
   -8.7505    4.7265    0.0000 C   0  0  0  0  0  0  0  0  0  0  0  0
   -9.7571    5.8385    0.0000 H   0  0  0  0  0  0  0  0  0  0  0  0
   -7.2834    5.0429    0.0000 C   0  0  0  0  0  0  0  0  0  0  0  0
   -6.8238    6.4708    0.0000 H   0  0  0  0  0  0  0  0  0  0  0  0
  -10.6774    2.9825    0.0000 N   0  0  0  0  0  0  0  0  0  0  0  0
  -11.2847    1.6109    0.0000 C   0  0  0  0  0  0  0  0  0  0  0  0
  -11.6935   -0.3264    0.0000 H   0  0  0  0  0  0  0  0  0  0  0  0
   -9.8573    1.1499    0.0000 H   0  0  0  0  0  0  0  0  0  0  0  0
  -12.7693    1.7652    0.0000 C   0  0  2  0  0  0  0  0  0  0  0  0
  -14.2602    1.6000    0.0000 H   0  0  0  0  0  0  0  0  0  0  0  0
  -12.7593   -1.1747    0.0000 C   0  0  0  0  0  0  0  0  0  0  0  0
  -12.2414   -2.5825    0.0000 H   0  0  0  0  0  0  0  0  0  0  0  0
  -10.8105   -0.8243    0.0000 H   0  0  0  0  0  0  0  0  0  0  0  0
  -14.0557   -1.9292    0.0000 O   0  0  0  0  0  0  0  0  0  0  0  0
  -15.3573   -1.1836    0.0000 H   0  0  0  0  0  0  0  0  0  0  0  0
  -13.0932    3.2320    0.0000 O   0  0  0  0  0  0  0  0  0  0  0  0
  -11.7895    3.9780    0.0000 C   0  0  0  0  0  0  0  0  0  0  0  0
  -11.6321    5.4697    0.0000 O   0  0  0  0  0  0  0  0  0  0  0  0
   -5.7305    1.3903    0.0000 F   0  0  0  0  0  0  0  0  0  0  0  0
   -2.4225    7.4167    0.0000 O   0  0  0  0  0  0  0  0  0  0  0  0
    0.6994    4.1921    0.0000 N   0  0  0  0  0  0  0  0  0  0  0  0
    1.9984    4.9421    0.0000 N   0  0  0  0  0  0  0  0  0  0  0  0
  1  2  1  0  0  0  0 
  1  3  1  0  0  0  0 
  1  4  1  0  0  0  0 
  1  5  1  0  0  0  0 
  5  6  1  0  0  0  0 
  6  7  2  0  0  0  0 
  7  8  1  0  0  0  0 
  8  9  2  0  0  0  0 
  9 10  1  0  0  0  0 
 10 11  1  0  0  0  0 
 10 12  2  0  0  0  0 
 12 13  1  0  0  0  0 
 13 14  1  0  0  0  0 
 13 15  2  0  0  0  0 
  8 15  1  0  0  0  0 
 15 16  1  0  0  0  0 
 12 17  1  0  0  0  0 
 17 18  2  0  0  0  0 
 18 19  1  0  0  0  0 
 19 20  1  0  0  0  0 
 19 21  2  0  0  0  0 
 21 22  1  0  0  0  0 
 22 23  1  0  0  0  0 
 22 24  2  0  0  0  0 
 17 24  1  0  0  0  0 
 24 25  1  0  0  0  0 
 21 26  1  0  0  0  0 
 26 27  1  0  0  0  0 
 27 28  1  0  0  0  0 
 27 29  1  0  0  0  0 
 27 30  1  0  0  0  0 
 30 31  1  1  0  0  0 
 30 32  1  0  0  0  0 
 32 33  1  0  0  0  0 
 32 34  1  0  0  0  0 
 32 35  1  0  0  0  0 
 35 36  1  0  0  0  0 
 30 37  1  6  0  0  0 
 37 38  1  0  0  0  0 
 26 38  1  0  0  0  0 
 38 39  2  0  0  0  0 
 18 40  1  0  0  0  0 
  9 41  1  0  0  0  0 
  7 42  1  0  0  0  0 
 42 43  2  0  0  0  0 
  5 43  1  0  0  0  0 
M  CHG  1   9   1
M  CHG  1  41  -1
M  END
> <Rank>
21

> <Priority_score>
0.07955763604447046

> <Reaction_type>
N-oxidation_(-N=)

> <Parent_ID>
69

> <Parent_InChI>
InChI=1S/C17H15FN6O3/c1-23-21-16(20-22-23)15-5-2-10(7-19-15)13-4-3-11(6-14(13)18)24-8-12(9-25)27-17(24)26/h2-7,12,25H,8-9H2,1H3

> <Parent_SMILES>
Cn1nnc(-c2ccc(-c3ccc(N4C[C@H](CO)OC4=O)cc3F)cn2)n1

$$$$
Molecule 69_metabolite 23
  CDK     0516241031

 43 46  0  0  0  0  0  0  0  0999 V2000
  -14.5965    0.1411    0.0000 C   0  0  0  0  0  0  0  0  0  0  0  0
  -14.1365   -1.2866    0.0000 H   0  0  0  0  0  0  0  0  0  0  0  0
  -15.5170    1.3254    0.0000 H   0  0  0  0  0  0  0  0  0  0  0  0
  -15.9226   -0.5598    0.0000 H   0  0  0  0  0  0  0  0  0  0  0  0
  -13.5900    1.2533    0.0000 N   0  0  0  0  0  0  0  0  0  0  0  0
  -12.0971    1.0876    0.0000 N   0  0  0  0  0  0  0  0  0  0  0  0
  -11.4942    2.4633    0.0000 C   0  0  0  0  0  0  0  0  0  0  0  0
  -10.0278    2.7788    0.0000 C   0  0  0  0  0  0  0  0  0  0  0  0
   -9.5673    4.2073    0.0000 N   0  0  0  0  0  0  0  0  0  0  0  0
   -8.1002    4.5237    0.0000 C   0  0  0  0  0  0  0  0  0  0  0  0
   -7.6407    5.9516    0.0000 H   0  0  0  0  0  0  0  0  0  0  0  0
   -7.0936    3.4116    0.0000 C   0  0  0  0  0  0  0  0  0  0  0  0
   -7.5540    1.9832    0.0000 C   0  0  0  0  0  0  0  0  0  0  0  0
   -6.5474    0.8711    0.0000 H   0  0  0  0  0  0  0  0  0  0  0  0
   -9.0211    1.6668    0.0000 C   0  0  0  0  0  0  0  0  0  0  0  0
   -9.4806    0.2389    0.0000 H   0  0  0  0  0  0  0  0  0  0  0  0
   -5.6271    3.7272    0.0000 C   0  0  0  0  0  0  0  0  0  0  0  0
   -5.1667    5.1556    0.0000 C   0  0  0  0  0  0  0  0  0  0  0  0
   -3.6996    5.4720    0.0000 C   0  0  0  0  0  0  0  0  0  0  0  0
   -3.2400    6.8999    0.0000 H   0  0  0  0  0  0  0  0  0  0  0  0
   -2.6929    4.3599    0.0000 C   0  0  0  0  0  0  0  0  0  0  0  0
   -3.1534    2.9315    0.0000 C   0  0  0  0  0  0  0  0  0  0  0  0
   -2.1467    1.8194    0.0000 H   0  0  0  0  0  0  0  0  0  0  0  0
   -4.6205    2.6151    0.0000 C   0  0  0  0  0  0  0  0  0  0  0  0
   -5.0800    1.1872    0.0000 H   0  0  0  0  0  0  0  0  0  0  0  0
   -1.2265    4.6755    0.0000 N   0  0  0  0  0  0  0  0  0  0  0  0
   -0.6192    6.0470    0.0000 C   0  0  0  0  0  0  0  0  0  0  0  0
   -0.2103    7.9844    0.0000 H   0  0  0  0  0  0  0  0  0  0  0  0
   -2.0466    6.5081    0.0000 H   0  0  0  0  0  0  0  0  0  0  0  0
    0.8655    5.8927    0.0000 C   0  0  2  0  0  0  0  0  0  0  0  0
    2.3563    6.0580    0.0000 H   0  0  0  0  0  0  0  0  0  0  0  0
    0.8554    8.8327    0.0000 C   0  0  0  0  0  0  0  0  0  0  0  0
    0.3376   10.2405    0.0000 H   0  0  0  0  0  0  0  0  0  0  0  0
   -1.0933    8.4822    0.0000 H   0  0  0  0  0  0  0  0  0  0  0  0
    2.1519    9.5872    0.0000 O   0  0  0  0  0  0  0  0  0  0  0  0
    3.4535    8.8416    0.0000 H   0  0  0  0  0  0  0  0  0  0  0  0
    1.1894    4.4260    0.0000 O   0  0  0  0  0  0  0  0  0  0  0  0
   -0.1143    3.6799    0.0000 C   0  0  0  0  0  0  0  0  0  0  0  0
   -0.2717    2.1882    0.0000 O   0  0  0  0  0  0  0  0  0  0  0  0
   -6.1733    6.2677    0.0000 F   0  0  0  0  0  0  0  0  0  0  0  0
  -12.6026    3.4631    0.0000 N   0  0  0  0  0  0  0  0  0  0  0  0
  -13.9016    2.7131    0.0000 N   0  0  0  0  0  0  0  0  0  0  0  0
  -12.4451    4.9548    0.0000 O   0  0  0  0  0  0  0  0  0  0  0  0
  1  2  1  0  0  0  0 
  1  3  1  0  0  0  0 
  1  4  1  0  0  0  0 
  1  5  1  0  0  0  0 
  5  6  1  0  0  0  0 
  6  7  2  0  0  0  0 
  7  8  1  0  0  0  0 
  8  9  2  0  0  0  0 
  9 10  1  0  0  0  0 
 10 11  1  0  0  0  0 
 10 12  2  0  0  0  0 
 12 13  1  0  0  0  0 
 13 14  1  0  0  0  0 
 13 15  2  0  0  0  0 
  8 15  1  0  0  0  0 
 15 16  1  0  0  0  0 
 12 17  1  0  0  0  0 
 17 18  2  0  0  0  0 
 18 19  1  0  0  0  0 
 19 20  1  0  0  0  0 
 19 21  2  0  0  0  0 
 21 22  1  0  0  0  0 
 22 23  1  0  0  0  0 
 22 24  2  0  0  0  0 
 17 24  1  0  0  0  0 
 24 25  1  0  0  0  0 
 21 26  1  0  0  0  0 
 26 27  1  0  0  0  0 
 27 28  1  0  0  0  0 
 27 29  1  0  0  0  0 
 27 30  1  0  0  0  0 
 30 31  1  1  0  0  0 
 30 32  1  0  0  0  0 
 32 33  1  0  0  0  0 
 32 34  1  0  0  0  0 
 32 35  1  0  0  0  0 
 35 36  1  0  0  0  0 
 30 37  1  6  0  0  0 
 37 38  1  0  0  0  0 
 26 38  1  0  0  0  0 
 38 39  2  0  0  0  0 
 18 40  1  0  0  0  0 
  7 41  1  0  0  0  0 
 41 42  2  0  0  0  0 
  5 42  1  0  0  0  0 
 41 43  1  0  0  0  0 
M  CHG  1  41   1
M  CHG  1  43  -1
M  END
> <Rank>
23

> <Priority_score>
0.072

> <Reaction_type>
N-oxidation

> <Parent_ID>
69

> <Parent_InChI>
InChI=1S/C17H15FN6O3/c1-23-21-16(20-22-23)15-5-2-10(7-19-15)13-4-3-11(6-14(13)18)24-8-12(9-25)27-17(24)26/h2-7,12,25H,8-9H2,1H3

> <Parent_SMILES>
Cn1nnc(-c2ccc(-c3ccc(N4C[C@H](CO)OC4=O)cc3F)cn2)n1

$$$$
Molecule 69_metabolite 24
  CDK     0516241031

 63 67  0  0  0  0  0  0  0  0999 V2000
    1.6174    6.9135    0.0000 C   0  0  0  0  0  0  0  0  0  0  0  0
    1.1574    8.3412    0.0000 H   0  0  0  0  0  0  0  0  0  0  0  0
    2.5379    5.7292    0.0000 H   0  0  0  0  0  0  0  0  0  0  0  0
    2.9436    7.6144    0.0000 H   0  0  0  0  0  0  0  0  0  0  0  0
    0.6109    5.8013    0.0000 N   0  0  0  0  0  0  0  0  0  0  0  0
   -0.8820    5.9670    0.0000 N   0  0  0  0  0  0  0  0  0  0  0  0
   -1.4849    4.5913    0.0000 C   0  0  0  0  0  0  0  0  0  0  0  0
   -2.9513    4.2758    0.0000 C   0  0  0  0  0  0  0  0  0  0  0  0
   -3.4118    2.8473    0.0000 N   0  0  0  0  0  0  0  0  0  0  0  0
   -4.8789    2.5309    0.0000 C   0  0  0  0  0  0  0  0  0  0  0  0
   -5.3384    1.1030    0.0000 H   0  0  0  0  0  0  0  0  0  0  0  0
   -5.8855    3.6430    0.0000 C   0  0  0  0  0  0  0  0  0  0  0  0
   -5.4251    5.0714    0.0000 C   0  0  0  0  0  0  0  0  0  0  0  0
   -6.4317    6.1835    0.0000 H   0  0  0  0  0  0  0  0  0  0  0  0
   -3.9579    5.3878    0.0000 C   0  0  0  0  0  0  0  0  0  0  0  0
   -3.4984    6.8157    0.0000 H   0  0  0  0  0  0  0  0  0  0  0  0
   -7.3519    3.3274    0.0000 C   0  0  0  0  0  0  0  0  0  0  0  0
   -7.8124    1.8990    0.0000 C   0  0  0  0  0  0  0  0  0  0  0  0
   -9.2795    1.5826    0.0000 C   0  0  0  0  0  0  0  0  0  0  0  0
   -9.7390    0.1547    0.0000 H   0  0  0  0  0  0  0  0  0  0  0  0
  -10.2862    2.6946    0.0000 C   0  0  0  0  0  0  0  0  0  0  0  0
   -9.8257    4.1231    0.0000 C   0  0  0  0  0  0  0  0  0  0  0  0
  -10.8323    5.2351    0.0000 H   0  0  0  0  0  0  0  0  0  0  0  0
   -8.3586    4.4395    0.0000 C   0  0  0  0  0  0  0  0  0  0  0  0
   -7.8991    5.8674    0.0000 H   0  0  0  0  0  0  0  0  0  0  0  0
  -11.7526    2.3791    0.0000 N   0  0  0  0  0  0  0  0  0  0  0  0
  -12.3599    1.0076    0.0000 C   0  0  0  0  0  0  0  0  0  0  0  0
  -12.7687   -0.9298    0.0000 H   0  0  0  0  0  0  0  0  0  0  0  0
  -10.9325    0.5465    0.0000 H   0  0  0  0  0  0  0  0  0  0  0  0
  -13.8445    1.1618    0.0000 C   0  0  2  0  0  0  0  0  0  0  0  0
  -15.3354    0.9966    0.0000 H   0  0  0  0  0  0  0  0  0  0  0  0
  -14.8406   -1.6043    0.0000 C   0  0  0  0  0  0  0  0  0  0  0  0
  -14.8355   -3.1043    0.0000 H   0  0  0  0  0  0  0  0  0  0  0  0
  -13.3626   -1.8597    0.0000 H   0  0  0  0  0  0  0  0  0  0  0  0
  -16.3170   -1.8698    0.0000 O   0  0  0  0  0  0  0  0  0  0  0  0
  -17.2851   -0.7240    0.0000 H   0  0  0  0  0  0  0  0  0  0  0  0
  -14.1685    2.6286    0.0000 O   0  0  0  0  0  0  0  0  0  0  0  0
  -12.8648    3.3746    0.0000 C   0  0  0  0  0  0  0  0  0  0  0  0
  -12.7073    4.8664    0.0000 O   0  0  0  0  0  0  0  0  0  0  0  0
   -6.8058    0.7869    0.0000 F   0  0  0  0  0  0  0  0  0  0  0  0
   -0.3765    3.5915    0.0000 N   0  0  0  0  0  0  0  0  0  0  0  0
    0.9225    4.3415    0.0000 N   0  0  0  0  0  0  0  0  0  0  0  0
   -0.5339    2.0998    0.0000 C   0  0  0  0  0  0  0  0  0  0  0  0
   -1.9757    2.5137    0.0000 H   0  0  0  0  0  0  0  0  0  0  0  0
   -1.1918    0.7518    0.0000 C   0  0  0  0  0  0  0  0  0  0  0  0
   -2.4052    1.6336    0.0000 H   0  0  0  0  0  0  0  0  0  0  0  0
   -0.3524   -0.4924    0.0000 C   0  0  0  0  0  0  0  0  0  0  0  0
   -1.7228   -1.1023    0.0000 H   0  0  0  0  0  0  0  0  0  0  0  0
    1.1448   -0.3885    0.0000 C   0  0  0  0  0  0  0  0  0  0  0  0
    0.9873   -1.8802    0.0000 H   0  0  0  0  0  0  0  0  0  0  0  0
    1.8027    0.9595    0.0000 C   0  0  0  0  0  0  0  0  0  0  0  0
    3.0161    0.0777    0.0000 H   0  0  0  0  0  0  0  0  0  0  0  0
    2.8817    2.0015    0.0000 C   0  0  0  0  0  0  0  0  0  0  0  0
    2.5188    3.4569    0.0000 O   0  0  0  0  0  0  0  0  0  0  0  0
    4.3236    1.5880    0.0000 O   0  0  0  0  0  0  0  0  0  0  0  0
    5.4026    2.6300    0.0000 H   0  0  0  0  0  0  0  0  0  0  0  0
    0.9633    2.2037    0.0000 O   0  0  0  0  0  0  0  0  0  0  0  0
    2.5866   -0.8025    0.0000 O   0  0  0  0  0  0  0  0  0  0  0  0
    2.9489   -2.2580    0.0000 H   0  0  0  0  0  0  0  0  0  0  0  0
    0.0100   -1.9480    0.0000 O   0  0  0  0  0  0  0  0  0  0  0  0
   -1.0694   -2.9896    0.0000 H   0  0  0  0  0  0  0  0  0  0  0  0
   -2.2708   -0.2902    0.0000 O   0  0  0  0  0  0  0  0  0  0  0  0
   -3.7127    0.1233    0.0000 H   0  0  0  0  0  0  0  0  0  0  0  0
  1  2  1  0  0  0  0 
  1  3  1  0  0  0  0 
  1  4  1  0  0  0  0 
  1  5  1  0  0  0  0 
  5  6  1  0  0  0  0 
  6  7  2  0  0  0  0 
  7  8  1  0  0  0  0 
  8  9  2  0  0  0  0 
  9 10  1  0  0  0  0 
 10 11  1  0  0  0  0 
 10 12  2  0  0  0  0 
 12 13  1  0  0  0  0 
 13 14  1  0  0  0  0 
 13 15  2  0  0  0  0 
  8 15  1  0  0  0  0 
 15 16  1  0  0  0  0 
 12 17  1  0  0  0  0 
 17 18  2  0  0  0  0 
 18 19  1  0  0  0  0 
 19 20  1  0  0  0  0 
 19 21  2  0  0  0  0 
 21 22  1  0  0  0  0 
 22 23  1  0  0  0  0 
 22 24  2  0  0  0  0 
 17 24  1  0  0  0  0 
 24 25  1  0  0  0  0 
 21 26  1  0  0  0  0 
 26 27  1  0  0  0  0 
 27 28  1  0  0  0  0 
 27 29  1  0  0  0  0 
 27 30  1  0  0  0  0 
 30 31  1  1  0  0  0 
 30 32  1  0  0  0  0 
 32 33  1  0  0  0  0 
 32 34  1  0  0  0  0 
 32 35  1  0  0  0  0 
 35 36  1  0  0  0  0 
 30 37  1  6  0  0  0 
 37 38  1  0  0  0  0 
 26 38  1  0  0  0  0 
 38 39  2  0  0  0  0 
 18 40  1  0  0  0  0 
  7 41  1  0  0  0  0 
 41 42  2  0  0  0  0 
  5 42  1  0  0  0  0 
 41 43  1  0  0  0  0 
 43 44  1  0  0  0  0 
 43 45  1  0  0  0  0 
 45 46  1  0  0  0  0 
 45 47  1  0  0  0  0 
 47 48  1  0  0  0  0 
 47 49  1  0  0  0  0 
 49 50  1  0  0  0  0 
 49 51  1  0  0  0  0 
 51 52  1  0  0  0  0 
 51 53  1  0  0  0  0 
 53 54  2  0  0  0  0 
 53 55  1  0  0  0  0 
 55 56  1  0  0  0  0 
 51 57  1  0  0  0  0 
 43 57  1  0  0  0  0 
 49 58  1  0  0  0  0 
 58 59  1  0  0  0  0 
 47 60  1  0  0  0  0 
 60 61  1  0  0  0  0 
 45 62  1  0  0  0  0 
 62 63  1  0  0  0  0 
M  CHG  1  41   1
M  END
> <Rank>
24

> <Priority_score>
0.06

> <Reaction_type>
N-glucuronidation_(aromatic_=n-)

> <Parent_ID>
69

> <Parent_InChI>
InChI=1S/C17H15FN6O3/c1-23-21-16(20-22-23)15-5-2-10(7-19-15)13-4-3-11(6-14(13)18)24-8-12(9-25)27-17(24)26/h2-7,12,25H,8-9H2,1H3

> <Parent_SMILES>
Cn1nnc(-c2ccc(-c3ccc(N4C[C@H](CO)OC4=O)cc3F)cn2)n1

$$$$
Molecule 69_metabolite 25
  CDK     0516241031

 63 67  0  0  0  0  0  0  0  0999 V2000
   -4.5171   13.4575    0.0000 C   0  0  0  0  0  0  0  0  0  0  0  0
   -6.0094   13.6092    0.0000 H   0  0  0  0  0  0  0  0  0  0  0  0
   -3.0629   13.8253    0.0000 H   0  0  0  0  0  0  0  0  0  0  0  0
   -4.6267   14.9534    0.0000 H   0  0  0  0  0  0  0  0  0  0  0  0
   -3.9023   12.0892    0.0000 N   0  0  0  0  0  0  0  0  0  0  0  0
   -2.4310   11.7868    0.0000 N   0  0  0  0  0  0  0  0  0  0  0  0
   -2.2815   10.2922    0.0000 C   0  0  0  0  0  0  0  0  0  0  0  0
   -0.9836    9.5401    0.0000 C   0  0  0  0  0  0  0  0  0  0  0  0
   -0.9858    8.0393    0.0000 N   0  0  0  0  0  0  0  0  0  0  0  0
    0.3124    7.2862    0.0000 C   0  0  0  0  0  0  0  0  0  0  0  0
    0.3095    5.7862    0.0000 H   0  0  0  0  0  0  0  0  0  0  0  0
    1.6128    8.0339    0.0000 C   0  0  0  0  0  0  0  0  0  0  0  0
    1.6149    9.5347    0.0000 C   0  0  0  0  0  0  0  0  0  0  0  0
    2.9153   10.2824    0.0000 H   0  0  0  0  0  0  0  0  0  0  0  0
    0.3167   10.2879    0.0000 C   0  0  0  0  0  0  0  0  0  0  0  0
    0.3196   11.7878    0.0000 H   0  0  0  0  0  0  0  0  0  0  0  0
    2.9106    7.2818    0.0000 C   0  0  0  0  0  0  0  0  0  0  0  0
    2.9084    5.7810    0.0000 C   0  0  0  0  0  0  0  0  0  0  0  0
    4.2066    5.0278    0.0000 C   0  0  0  0  0  0  0  0  0  0  0  0
    4.2037    3.5278    0.0000 H   0  0  0  0  0  0  0  0  0  0  0  0
    5.5070    5.7756    0.0000 C   0  0  0  0  0  0  0  0  0  0  0  0
    5.5091    7.2764    0.0000 C   0  0  0  0  0  0  0  0  0  0  0  0
    6.8095    8.0241    0.0000 H   0  0  0  0  0  0  0  0  0  0  0  0
    4.2109    8.0295    0.0000 C   0  0  0  0  0  0  0  0  0  0  0  0
    4.2138    9.5295    0.0000 H   0  0  0  0  0  0  0  0  0  0  0  0
    6.8048    5.0235    0.0000 N   0  0  0  0  0  0  0  0  0  0  0  0
    6.9599    3.5315    0.0000 C   0  0  0  0  0  0  0  0  0  0  0  0
    6.7518    1.5625    0.0000 H   0  0  0  0  0  0  0  0  0  0  0  0
    5.4599    3.5328    0.0000 H   0  0  0  0  0  0  0  0  0  0  0  0
    8.4198    3.2207    0.0000 C   0  0  2  0  0  0  0  0  0  0  0  0
    9.7872    2.6041    0.0000 H   0  0  0  0  0  0  0  0  0  0  0  0
    7.5042    0.4270    0.0000 C   0  0  0  0  0  0  0  0  0  0  0  0
    6.5777   -0.7527    0.0000 H   0  0  0  0  0  0  0  0  0  0  0  0
    4.9118    1.8138    0.0000 H   0  0  0  0  0  0  0  0  0  0  0  0
    8.5051   -0.6903    0.0000 O   0  0  0  0  0  0  0  0  0  0  0  0
    9.9731   -0.3821    0.0000 H   0  0  0  0  0  0  0  0  0  0  0  0
    9.1799    4.5163    0.0000 O   0  0  0  0  0  0  0  0  0  0  0  0
    8.1696    5.6278    0.0000 C   0  0  0  0  0  0  0  0  0  0  0  0
    8.4796    7.0954    0.0000 O   0  0  0  0  0  0  0  0  0  0  0  0
    1.6081    5.0333    0.0000 F   0  0  0  0  0  0  0  0  0  0  0  0
   -3.6440    9.6827    0.0000 N   0  0  0  0  0  0  0  0  0  0  0  0
   -4.6487   10.7965    0.0000 N   0  0  0  0  0  0  0  0  0  0  0  0
   -6.1404   10.6391    0.0000 C   0  0  0  0  0  0  0  0  0  0  0  0
   -6.0366   12.1355    0.0000 H   0  0  0  0  0  0  0  0  0  0  0  0
   -7.5961   11.0010    0.0000 C   0  0  0  0  0  0  0  0  0  0  0  0
   -6.9870   12.3718    0.0000 H   0  0  0  0  0  0  0  0  0  0  0  0
   -8.6376    9.9204    0.0000 C   0  0  0  0  0  0  0  0  0  0  0  0
   -9.5202   11.1332    0.0000 H   0  0  0  0  0  0  0  0  0  0  0  0
   -8.2234    8.4778    0.0000 C   0  0  0  0  0  0  0  0  0  0  0  0
   -9.7151    8.3204    0.0000 H   0  0  0  0  0  0  0  0  0  0  0  0
   -6.7677    8.1159    0.0000 C   0  0  0  0  0  0  0  0  0  0  0  0
   -7.3768    6.7451    0.0000 H   0  0  0  0  0  0  0  0  0  0  0  0
   -5.5234    7.2782    0.0000 C   0  0  0  0  0  0  0  0  0  0  0  0
   -4.1758    7.9369    0.0000 O   0  0  0  0  0  0  0  0  0  0  0  0
   -5.6268    5.7818    0.0000 O   0  0  0  0  0  0  0  0  0  0  0  0
   -6.9744    5.1230    0.0000 H   0  0  0  0  0  0  0  0  0  0  0  0
   -5.7262    9.1965    0.0000 O   0  0  0  0  0  0  0  0  0  0  0  0
   -8.3272    6.9814    0.0000 O   0  0  0  0  0  0  0  0  0  0  0  0
   -9.6751    6.3231    0.0000 H   0  0  0  0  0  0  0  0  0  0  0  0
   -9.9854    9.2621    0.0000 O   0  0  0  0  0  0  0  0  0  0  0  0
  -11.2294   10.1002    0.0000 H   0  0  0  0  0  0  0  0  0  0  0  0
   -8.8403   11.8387    0.0000 O   0  0  0  0  0  0  0  0  0  0  0  0
   -8.7370   13.3352    0.0000 H   0  0  0  0  0  0  0  0  0  0  0  0
  1  2  1  0  0  0  0 
  1  3  1  0  0  0  0 
  1  4  1  0  0  0  0 
  1  5  1  0  0  0  0 
  5  6  1  0  0  0  0 
  6  7  2  0  0  0  0 
  7  8  1  0  0  0  0 
  8  9  2  0  0  0  0 
  9 10  1  0  0  0  0 
 10 11  1  0  0  0  0 
 10 12  2  0  0  0  0 
 12 13  1  0  0  0  0 
 13 14  1  0  0  0  0 
 13 15  2  0  0  0  0 
  8 15  1  0  0  0  0 
 15 16  1  0  0  0  0 
 12 17  1  0  0  0  0 
 17 18  2  0  0  0  0 
 18 19  1  0  0  0  0 
 19 20  1  0  0  0  0 
 19 21  2  0  0  0  0 
 21 22  1  0  0  0  0 
 22 23  1  0  0  0  0 
 22 24  2  0  0  0  0 
 17 24  1  0  0  0  0 
 24 25  1  0  0  0  0 
 21 26  1  0  0  0  0 
 26 27  1  0  0  0  0 
 27 28  1  0  0  0  0 
 27 29  1  0  0  0  0 
 27 30  1  0  0  0  0 
 30 31  1  6  0  0  0 
 30 32  1  0  0  0  0 
 32 33  1  0  0  0  0 
 32 34  1  0  0  0  0 
 32 35  1  0  0  0  0 
 35 36  1  0  0  0  0 
 30 37  1  1  0  0  0 
 37 38  1  0  0  0  0 
 26 38  1  0  0  0  0 
 38 39  2  0  0  0  0 
 18 40  1  0  0  0  0 
  7 41  1  0  0  0  0 
 41 42  2  0  0  0  0 
  5 42  1  0  0  0  0 
 42 43  1  0  0  0  0 
 43 44  1  0  0  0  0 
 43 45  1  0  0  0  0 
 45 46  1  0  0  0  0 
 45 47  1  0  0  0  0 
 47 48  1  0  0  0  0 
 47 49  1  0  0  0  0 
 49 50  1  0  0  0  0 
 49 51  1  0  0  0  0 
 51 52  1  0  0  0  0 
 51 53  1  0  0  0  0 
 53 54  2  0  0  0  0 
 53 55  1  0  0  0  0 
 55 56  1  0  0  0  0 
 51 57  1  0  0  0  0 
 43 57  1  0  0  0  0 
 49 58  1  0  0  0  0 
 58 59  1  0  0  0  0 
 47 60  1  0  0  0  0 
 60 61  1  0  0  0  0 
 45 62  1  0  0  0  0 
 62 63  1  0  0  0  0 
M  CHG  1  42   1
M  END
> <Rank>
25

> <Priority_score>
0.044

> <Reaction_type>
N-glucuronidation_(aromatic_=n-)

> <Parent_ID>
69

> <Parent_InChI>
InChI=1S/C17H15FN6O3/c1-23-21-16(20-22-23)15-5-2-10(7-19-15)13-4-3-11(6-14(13)18)24-8-12(9-25)27-17(24)26/h2-7,12,25H,8-9H2,1H3

> <Parent_SMILES>
Cn1nnc(-c2ccc(-c3ccc(N4C[C@H](CO)OC4=O)cc3F)cn2)n1

$$$$
Molecule 69_metabolite 26
  CDK     0516241031

 40 43  0  0  0  0  0  0  0  0999 V2000
  -16.4124    4.3595    0.0000 C   0  0  0  0  0  0  0  0  0  0  0  0
  -17.5246    5.3660    0.0000 H   0  0  0  0  0  0  0  0  0  0  0  0
  -17.5967    3.4389    0.0000 H   0  0  0  0  0  0  0  0  0  0  0  0
  -15.7115    3.0333    0.0000 H   0  0  0  0  0  0  0  0  0  0  0  0
  -14.9847    4.8195    0.0000 N   0  0  0  0  0  0  0  0  0  0  0  0
  -13.7747    3.9295    0.0000 N   0  0  0  0  0  0  0  0  0  0  0  0
  -12.5647    4.8195    0.0000 C   0  0  0  0  0  0  0  0  0  0  0  0
  -11.1369    4.3595    0.0000 C   0  0  0  0  0  0  0  0  0  0  0  0
  -10.0239    5.3663    0.0000 N   0  0  0  0  0  0  0  0  0  0  0  0
   -8.5952    4.9068    0.0000 C   0  0  0  0  0  0  0  0  0  0  0  0
   -7.4833    5.9136    0.0000 H   0  0  0  0  0  0  0  0  0  0  0  0
   -8.2794    3.4404    0.0000 C   0  0  0  0  0  0  0  0  0  0  0  0
   -9.3924    2.4336    0.0000 C   0  0  0  0  0  0  0  0  0  0  0  0
   -9.0767    0.9672    0.0000 H   0  0  0  0  0  0  0  0  0  0  0  0
  -10.8212    2.8931    0.0000 C   0  0  0  0  0  0  0  0  0  0  0  0
  -11.9331    1.8863    0.0000 H   0  0  0  0  0  0  0  0  0  0  0  0
   -6.8517    2.9804    0.0000 C   0  0  0  0  0  0  0  0  0  0  0  0
   -5.7387    3.9873    0.0000 C   0  0  0  0  0  0  0  0  0  0  0  0
   -4.3100    3.5277    0.0000 C   0  0  0  0  0  0  0  0  0  0  0  0
   -3.1981    4.5346    0.0000 H   0  0  0  0  0  0  0  0  0  0  0  0
   -3.9942    2.0613    0.0000 C   0  0  0  0  0  0  0  0  0  0  0  0
   -5.1072    1.0545    0.0000 C   0  0  0  0  0  0  0  0  0  0  0  0
   -4.7914   -0.4119    0.0000 H   0  0  0  0  0  0  0  0  0  0  0  0
   -6.5359    1.5140    0.0000 C   0  0  0  0  0  0  0  0  0  0  0  0
   -7.6478    0.5072    0.0000 H   0  0  0  0  0  0  0  0  0  0  0  0
   -2.5665    1.6014    0.0000 N   0  0  0  0  0  0  0  0  0  0  0  0
   -1.3547    2.4855    0.0000 C   0  0  0  0  0  0  0  0  0  0  0  0
   -0.3527    3.6017    0.0000 H   0  0  0  0  0  0  0  0  0  0  0  0
   -2.3604    3.5985    0.0000 H   0  0  0  0  0  0  0  0  0  0  0  0
   -0.1461    1.6096    0.0000 C   0  0  0  0  0  0  0  0  0  0  0  0
    1.2783    2.0796    0.0000 C   0  0  0  0  0  0  0  0  0  0  0  0
    1.5835    3.5482    0.0000 H   0  0  0  0  0  0  0  0  0  0  0  0
    2.3976    1.0809    0.0000 O   0  0  0  0  0  0  0  0  0  0  0  0
    3.8220    1.5509    0.0000 H   0  0  0  0  0  0  0  0  0  0  0  0
   -0.5990    0.1774    0.0000 O   0  0  0  0  0  0  0  0  0  0  0  0
   -2.1011    0.1831    0.0000 C   0  0  0  0  0  0  0  0  0  0  0  0
   -2.9833   -1.0300    0.0000 O   0  0  0  0  0  0  0  0  0  0  0  0
   -6.0545    5.4537    0.0000 F   0  0  0  0  0  0  0  0  0  0  0  0
  -13.0247    6.2395    0.0000 N   0  0  0  0  0  0  0  0  0  0  0  0
  -14.5247    6.2395    0.0000 N   0  0  0  0  0  0  0  0  0  0  0  0
  1  2  1  0  0  0  0 
  1  3  1  0  0  0  0 
  1  4  1  0  0  0  0 
  1  5  1  0  0  0  0 
  5  6  1  0  0  0  0 
  6  7  2  0  0  0  0 
  7  8  1  0  0  0  0 
  8  9  2  0  0  0  0 
  9 10  1  0  0  0  0 
 10 11  1  0  0  0  0 
 10 12  2  0  0  0  0 
 12 13  1  0  0  0  0 
 13 14  1  0  0  0  0 
 13 15  2  0  0  0  0 
  8 15  1  0  0  0  0 
 15 16  1  0  0  0  0 
 12 17  1  0  0  0  0 
 17 18  2  0  0  0  0 
 18 19  1  0  0  0  0 
 19 20  1  0  0  0  0 
 19 21  2  0  0  0  0 
 21 22  1  0  0  0  0 
 22 23  1  0  0  0  0 
 22 24  2  0  0  0  0 
 17 24  1  0  0  0  0 
 24 25  1  0  0  0  0 
 21 26  1  0  0  0  0 
 26 27  1  0  0  0  0 
 27 28  1  0  0  0  0 
 27 29  1  0  0  0  0 
 27 30  1  0  0  0  0 
 30 31  2  0  0  0  0 
 31 32  1  4  0  0  0 
 31 33  1  0  0  0  0 
 33 34  1  0  0  0  0 
 30 35  1  0  0  0  0 
 35 36  1  0  0  0  0 
 26 36  1  0  0  0  0 
 36 37  2  0  0  0  0 
 18 38  1  0  0  0  0 
  7 39  1  0  0  0  0 
 39 40  2  0  0  0  0 
  5 40  1  0  0  0  0 
M  END
> <Rank>
26

> <Priority_score>
0.04075317435738619

> <Reaction_type>
alkyl dehydrogenation

> <Parent_ID>
69

> <Parent_InChI>
InChI=1S/C17H15FN6O3/c1-23-21-16(20-22-23)15-5-2-10(7-19-15)13-4-3-11(6-14(13)18)24-8-12(9-25)27-17(24)26/h2-7,12,25H,8-9H2,1H3

> <Parent_SMILES>
Cn1nnc(-c2ccc(-c3ccc(N4C[C@H](CO)OC4=O)cc3F)cn2)n1

$$$$
Molecule 69_metabolite 27
  CDK     0516241031

 63 67  0  0  0  0  0  0  0  0999 V2000
   11.4728    6.1566    0.0000 C   0  0  0  0  0  0  0  0  0  0  0  0
   12.5851    7.1630    0.0000 H   0  0  0  0  0  0  0  0  0  0  0  0
   12.6572    5.2360    0.0000 H   0  0  0  0  0  0  0  0  0  0  0  0
   10.7719    4.8304    0.0000 H   0  0  0  0  0  0  0  0  0  0  0  0
   10.0451    6.6165    0.0000 N   0  0  0  0  0  0  0  0  0  0  0  0
    9.5851    8.0365    0.0000 N   0  0  0  0  0  0  0  0  0  0  0  0
    8.0851    8.0365    0.0000 N   0  0  0  0  0  0  0  0  0  0  0  0
    7.6251    6.6165    0.0000 C   0  0  0  0  0  0  0  0  0  0  0  0
    8.8351    5.7265    0.0000 N   0  0  0  0  0  0  0  0  0  0  0  0
    8.8351    3.7465    0.0000 C   0  0  0  0  0  0  0  0  0  0  0  0
    7.3579    4.0069    0.0000 H   0  0  0  0  0  0  0  0  0  0  0  0
    8.3224    2.3369    0.0000 C   0  0  0  0  0  0  0  0  0  0  0  0
    7.0231    3.0865    0.0000 H   0  0  0  0  0  0  0  0  0  0  0  0
    9.2877    1.1877    0.0000 C   0  0  0  0  0  0  0  0  0  0  0  0
    7.9889    0.4373    0.0000 H   0  0  0  0  0  0  0  0  0  0  0  0
   10.7658    1.4482    0.0000 C   0  0  0  0  0  0  0  0  0  0  0  0
   10.7658   -0.0518    0.0000 H   0  0  0  0  0  0  0  0  0  0  0  0
   11.2785    2.8578    0.0000 C   0  0  0  0  0  0  0  0  0  0  0  0
   12.5778    2.1082    0.0000 H   0  0  0  0  0  0  0  0  0  0  0  0
   12.2422    4.0073    0.0000 C   0  0  0  0  0  0  0  0  0  0  0  0
   11.7286    5.4166    0.0000 O   0  0  0  0  0  0  0  0  0  0  0  0
   13.7195    3.7475    0.0000 O   0  0  0  0  0  0  0  0  0  0  0  0
   14.6832    4.8969    0.0000 H   0  0  0  0  0  0  0  0  0  0  0  0
   10.3132    4.0070    0.0000 O   0  0  0  0  0  0  0  0  0  0  0  0
   12.2430    1.1879    0.0000 O   0  0  0  0  0  0  0  0  0  0  0  0
   12.7562   -0.2216    0.0000 H   0  0  0  0  0  0  0  0  0  0  0  0
    9.8009   -0.2218    0.0000 O   0  0  0  0  0  0  0  0  0  0  0  0
    8.8368   -1.3709    0.0000 H   0  0  0  0  0  0  0  0  0  0  0  0
    7.3587    1.1874    0.0000 O   0  0  0  0  0  0  0  0  0  0  0  0
    5.8814    1.4473    0.0000 H   0  0  0  0  0  0  0  0  0  0  0  0
    6.1974    6.1566    0.0000 C   0  0  0  0  0  0  0  0  0  0  0  0
    5.0850    7.1629    0.0000 C   0  0  0  0  0  0  0  0  0  0  0  0
    5.4000    8.6294    0.0000 H   0  0  0  0  0  0  0  0  0  0  0  0
    3.6567    6.7020    0.0000 C   0  0  0  0  0  0  0  0  0  0  0  0
    2.5443    7.7082    0.0000 H   0  0  0  0  0  0  0  0  0  0  0  0
    3.3408    5.2347    0.0000 C   0  0  0  0  0  0  0  0  0  0  0  0
    4.4531    4.2285    0.0000 C   0  0  0  0  0  0  0  0  0  0  0  0
    4.1381    2.7619    0.0000 H   0  0  0  0  0  0  0  0  0  0  0  0
    5.8814    4.6894    0.0000 N   0  0  0  0  0  0  0  0  0  0  0  0
    1.9130    4.7748    0.0000 C   0  0  0  0  0  0  0  0  0  0  0  0
    1.5971    3.3076    0.0000 C   0  0  0  0  0  0  0  0  0  0  0  0
    0.1688    2.8467    0.0000 C   0  0  0  0  0  0  0  0  0  0  0  0
   -0.1463    1.3801    0.0000 H   0  0  0  0  0  0  0  0  0  0  0  0
   -0.9436    3.8529    0.0000 C   0  0  0  0  0  0  0  0  0  0  0  0
   -0.6277    5.3201    0.0000 C   0  0  0  0  0  0  0  0  0  0  0  0
   -1.7400    6.3264    0.0000 H   0  0  0  0  0  0  0  0  0  0  0  0
    0.8007    5.7811    0.0000 C   0  0  0  0  0  0  0  0  0  0  0  0
    1.1157    7.2476    0.0000 H   0  0  0  0  0  0  0  0  0  0  0  0
   -2.3713    3.3930    0.0000 N   0  0  0  0  0  0  0  0  0  0  0  0
   -2.8390    1.9678    0.0000 C   0  0  0  0  0  0  0  0  0  0  0  0
   -3.0011    0.4765    0.0000 H   0  0  0  0  0  0  0  0  0  0  0  0
   -1.3728    1.6512    0.0000 H   0  0  0  0  0  0  0  0  0  0  0  0
   -4.3317    1.9734    0.0000 C   0  0  2  0  0  0  0  0  0  0  0  0
   -5.7987    1.6606    0.0000 H   0  0  0  0  0  0  0  0  0  0  0  0
   -4.1278    0.0040    0.0000 C   0  0  0  0  0  0  0  0  0  0  0  0
   -4.4929   -1.4509    0.0000 H   0  0  0  0  0  0  0  0  0  0  0  0
   -5.6240    0.1109    0.0000 H   0  0  0  0  0  0  0  0  0  0  0  0
   -2.7584   -0.6083    0.0000 O   0  0  0  0  0  0  0  0  0  0  0  0
   -2.6040   -2.1003    0.0000 H   0  0  0  0  0  0  0  0  0  0  0  0
   -4.8000    3.4006    0.0000 O   0  0  0  0  0  0  0  0  0  0  0  0
   -3.5771    4.2728    0.0000 C   0  0  0  0  0  0  0  0  0  0  0  0
   -3.5690    5.7728    0.0000 O   0  0  0  0  0  0  0  0  0  0  0  0
    2.7095    2.3013    0.0000 F   0  0  0  0  0  0  0  0  0  0  0  0
  1  2  1  0  0  0  0 
  1  3  1  0  0  0  0 
  1  4  1  0  0  0  0 
  1  5  1  0  0  0  0 
  5  6  1  0  0  0  0 
  6  7  2  0  0  0  0 
  7  8  1  0  0  0  0 
  8  9  2  0  0  0  0 
  5  9  1  0  0  0  0 
  9 10  1  0  0  0  0 
 10 11  1  0  0  0  0 
 10 12  1  0  0  0  0 
 12 13  1  0  0  0  0 
 12 14  1  0  0  0  0 
 14 15  1  0  0  0  0 
 14 16  1  0  0  0  0 
 16 17  1  0  0  0  0 
 16 18  1  0  0  0  0 
 18 19  1  0  0  0  0 
 18 20  1  0  0  0  0 
 20 21  2  0  0  0  0 
 20 22  1  0  0  0  0 
 22 23  1  0  0  0  0 
 18 24  1  0  0  0  0 
 10 24  1  0  0  0  0 
 16 25  1  0  0  0  0 
 25 26  1  0  0  0  0 
 14 27  1  0  0  0  0 
 27 28  1  0  0  0  0 
 12 29  1  0  0  0  0 
 29 30  1  0  0  0  0 
  8 31  1  0  0  0  0 
 31 32  2  0  0  0  0 
 32 33  1  0  0  0  0 
 32 34  1  0  0  0  0 
 34 35  1  0  0  0  0 
 34 36  2  0  0  0  0 
 36 37  1  0  0  0  0 
 37 38  1  0  0  0  0 
 37 39  2  0  0  0  0 
 31 39  1  0  0  0  0 
 36 40  1  0  0  0  0 
 40 41  2  0  0  0  0 
 41 42  1  0  0  0  0 
 42 43  1  0  0  0  0 
 42 44  2  0  0  0  0 
 44 45  1  0  0  0  0 
 45 46  1  0  0  0  0 
 45 47  2  0  0  0  0 
 40 47  1  0  0  0  0 
 47 48  1  0  0  0  0 
 44 49  1  0  0  0  0 
 49 50  1  0  0  0  0 
 50 51  1  0  0  0  0 
 50 52  1  0  0  0  0 
 50 53  1  0  0  0  0 
 53 54  1  1  0  0  0 
 53 55  1  0  0  0  0 
 55 56  1  0  0  0  0 
 55 57  1  0  0  0  0 
 55 58  1  0  0  0  0 
 58 59  1  0  0  0  0 
 53 60  1  6  0  0  0 
 60 61  1  0  0  0  0 
 49 61  1  0  0  0  0 
 61 62  2  0  0  0  0 
 41 63  1  0  0  0  0 
M  CHG  1   9   1
M  END
> <Rank>
27

> <Priority_score>
0.04

> <Reaction_type>
N-glucuronidation_(aromatic_=n-)

> <Parent_ID>
69

> <Parent_InChI>
InChI=1S/C17H15FN6O3/c1-23-21-16(20-22-23)15-5-2-10(7-19-15)13-4-3-11(6-14(13)18)24-8-12(9-25)27-17(24)26/h2-7,12,25H,8-9H2,1H3

> <Parent_SMILES>
Cn1nnc(-c2ccc(-c3ccc(N4C[C@H](CO)OC4=O)cc3F)cn2)n1

$$$$
Molecule 69_metabolite 28
  CDK     0516241031

  3  2  0  0  0  0  0  0  0  0999 V2000
    1.2990   -0.7500    0.0000 C   0  0  0  0  0  0  0  0  0  0  0  0
   -0.2010   -0.7500    0.0000 O   0  0  0  0  0  0  0  0  0  0  0  0
    2.7990   -0.7500    0.0000 O   0  0  0  0  0  0  0  0  0  0  0  0
  1  2  2  0  0  0  0 
  1  3  2  0  0  0  0 
M  END
> <Rank>
28

> <Priority_score>
0.023200000000000002

> <Reaction_type>
carbamate cleavage

> <Parent_ID>
69

> <Parent_InChI>
InChI=1S/C17H15FN6O3/c1-23-21-16(20-22-23)15-5-2-10(7-19-15)13-4-3-11(6-14(13)18)24-8-12(9-25)27-17(24)26/h2-7,12,25H,8-9H2,1H3

> <Parent_SMILES>
Cn1nnc(-c2ccc(-c3ccc(N4C[C@H](CO)OC4=O)cc3F)cn2)n1

$$$$
Molecule 69_metabolite 29
  CDK     0516241031

 42 44  0  0  0  0  0  0  0  0999 V2000
  -15.6520   -0.9327    0.0000 C   0  0  0  0  0  0  0  0  0  0  0  0
  -17.1185   -0.6171    0.0000 H   0  0  0  0  0  0  0  0  0  0  0  0
  -16.2174   -2.3220    0.0000 H   0  0  0  0  0  0  0  0  0  0  0  0
  -14.3820   -1.7307    0.0000 H   0  0  0  0  0  0  0  0  0  0  0  0
  -14.6456    0.1796    0.0000 N   0  0  0  0  0  0  0  0  0  0  0  0
  -13.1527    0.0138    0.0000 N   0  0  0  0  0  0  0  0  0  0  0  0
  -12.5498    1.3896    0.0000 C   0  0  0  0  0  0  0  0  0  0  0  0
  -11.0834    1.7051    0.0000 C   0  0  0  0  0  0  0  0  0  0  0  0
  -10.6229    3.1335    0.0000 N   0  0  0  0  0  0  0  0  0  0  0  0
   -9.1558    3.4499    0.0000 C   0  0  0  0  0  0  0  0  0  0  0  0
   -8.6963    4.8778    0.0000 H   0  0  0  0  0  0  0  0  0  0  0  0
   -8.1492    2.3379    0.0000 C   0  0  0  0  0  0  0  0  0  0  0  0
   -8.6096    0.9094    0.0000 C   0  0  0  0  0  0  0  0  0  0  0  0
   -7.6030   -0.2026    0.0000 H   0  0  0  0  0  0  0  0  0  0  0  0
  -10.0767    0.5930    0.0000 C   0  0  0  0  0  0  0  0  0  0  0  0
  -10.5362   -0.8349    0.0000 H   0  0  0  0  0  0  0  0  0  0  0  0
   -6.6827    2.6534    0.0000 C   0  0  0  0  0  0  0  0  0  0  0  0
   -6.2223    4.0819    0.0000 C   0  0  0  0  0  0  0  0  0  0  0  0
   -4.7552    4.3983    0.0000 C   0  0  0  0  0  0  0  0  0  0  0  0
   -4.2956    5.8261    0.0000 H   0  0  0  0  0  0  0  0  0  0  0  0
   -3.7485    3.2862    0.0000 C   0  0  0  0  0  0  0  0  0  0  0  0
   -4.2090    1.8577    0.0000 C   0  0  0  0  0  0  0  0  0  0  0  0
   -3.2023    0.7457    0.0000 H   0  0  0  0  0  0  0  0  0  0  0  0
   -5.6761    1.5413    0.0000 C   0  0  0  0  0  0  0  0  0  0  0  0
   -6.1356    0.1135    0.0000 H   0  0  0  0  0  0  0  0  0  0  0  0
   -2.2821    3.6017    0.0000 N   0  0  0  0  0  0  0  0  0  0  0  0
   -1.2756    2.4895    0.0000 H   0  0  0  0  0  0  0  0  0  0  0  0
   -1.8221    5.0295    0.0000 C   0  0  0  0  0  0  0  0  0  0  0  0
   -1.8782    6.5284    0.0000 H   0  0  0  0  0  0  0  0  0  0  0  0
   -3.3080    5.2345    0.0000 H   0  0  0  0  0  0  0  0  0  0  0  0
   -0.3557    5.3450    0.0000 C   0  0  2  0  0  0  0  0  0  0  0  0
   -0.2996    3.8460    0.0000 H   0  0  0  0  0  0  0  0  0  0  0  0
    0.2515    7.2296    0.0000 C   0  0  0  0  0  0  0  0  0  0  0  0
    0.1954    8.7285    0.0000 H   0  0  0  0  0  0  0  0  0  0  0  0
   -1.2344    7.4346    0.0000 H   0  0  0  0  0  0  0  0  0  0  0  0
    1.7180    7.5451    0.0000 O   0  0  0  0  0  0  0  0  0  0  0  0
    2.1779    8.9728    0.0000 H   0  0  0  0  0  0  0  0  0  0  0  0
    1.1303    5.1399    0.0000 O   0  0  0  0  0  0  0  0  0  0  0  0
    2.0508    6.3242    0.0000 H   0  0  0  0  0  0  0  0  0  0  0  0
   -7.2289    5.1939    0.0000 F   0  0  0  0  0  0  0  0  0  0  0  0
  -13.6582    2.3893    0.0000 N   0  0  0  0  0  0  0  0  0  0  0  0
  -14.9572    1.6393    0.0000 N   0  0  0  0  0  0  0  0  0  0  0  0
  1  2  1  0  0  0  0 
  1  3  1  0  0  0  0 
  1  4  1  0  0  0  0 
  1  5  1  0  0  0  0 
  5  6  1  0  0  0  0 
  6  7  2  0  0  0  0 
  7  8  1  0  0  0  0 
  8  9  2  0  0  0  0 
  9 10  1  0  0  0  0 
 10 11  1  0  0  0  0 
 10 12  2  0  0  0  0 
 12 13  1  0  0  0  0 
 13 14  1  0  0  0  0 
 13 15  2  0  0  0  0 
  8 15  1  0  0  0  0 
 15 16  1  0  0  0  0 
 12 17  1  0  0  0  0 
 17 18  2  0  0  0  0 
 18 19  1  0  0  0  0 
 19 20  1  0  0  0  0 
 19 21  2  0  0  0  0 
 21 22  1  0  0  0  0 
 22 23  1  0  0  0  0 
 22 24  2  0  0  0  0 
 17 24  1  0  0  0  0 
 24 25  1  0  0  0  0 
 21 26  1  0  0  0  0 
 26 27  1  0  0  0  0 
 26 28  1  0  0  0  0 
 28 29  1  0  0  0  0 
 28 30  1  0  0  0  0 
 28 31  1  0  0  0  0 
 31 32  1  1  0  0  0 
 31 33  1  0  0  0  0 
 33 34  1  0  0  0  0 
 33 35  1  0  0  0  0 
 33 36  1  0  0  0  0 
 36 37  1  0  0  0  0 
 31 38  1  6  0  0  0 
 38 39  1  0  0  0  0 
 18 40  1  0  0  0  0 
  7 41  1  0  0  0  0 
 41 42  2  0  0  0  0 
  5 42  1  0  0  0  0 
M  END
> <Rank>
28

> <Priority_score>
0.023200000000000002

> <Reaction_type>
carbamate cleavage

> <Parent_ID>
69

> <Parent_InChI>
InChI=1S/C17H15FN6O3/c1-23-21-16(20-22-23)15-5-2-10(7-19-15)13-4-3-11(6-14(13)18)24-8-12(9-25)27-17(24)26/h2-7,12,25H,8-9H2,1H3

> <Parent_SMILES>
Cn1nnc(-c2ccc(-c3ccc(N4C[C@H](CO)OC4=O)cc3F)cn2)n1

$$$$
Molecule 69_metabolite 30
  CDK     0516241031

 40 43  0  0  0  0  0  0  0  0999 V2000
    2.6377    0.8500    0.0000 C   0  0  0  0  0  0  0  0  0  0  0  0
    3.7499   -0.1565    0.0000 H   0  0  0  0  0  0  0  0  0  0  0  0
    3.8220    1.7705    0.0000 H   0  0  0  0  0  0  0  0  0  0  0  0
    1.9368    2.1761    0.0000 H   0  0  0  0  0  0  0  0  0  0  0  0
    1.2100    0.3900    0.0000 N   0  0  0  0  0  0  0  0  0  0  0  0
    0.0000    1.2800    0.0000 N   0  0  0  0  0  0  0  0  0  0  0  0
   -1.2100    0.3900    0.0000 C   0  0  0  0  0  0  0  0  0  0  0  0
   -2.6377    0.8500    0.0000 C   0  0  0  0  0  0  0  0  0  0  0  0
   -3.7507   -0.1569    0.0000 N   0  0  0  0  0  0  0  0  0  0  0  0
   -5.1795    0.3027    0.0000 C   0  0  0  0  0  0  0  0  0  0  0  0
   -6.2914   -0.7042    0.0000 H   0  0  0  0  0  0  0  0  0  0  0  0
   -5.4952    1.7691    0.0000 C   0  0  0  0  0  0  0  0  0  0  0  0
   -4.3822    2.7759    0.0000 C   0  0  0  0  0  0  0  0  0  0  0  0
   -4.6980    4.2423    0.0000 H   0  0  0  0  0  0  0  0  0  0  0  0
   -2.9535    2.3164    0.0000 C   0  0  0  0  0  0  0  0  0  0  0  0
   -1.8416    3.3232    0.0000 H   0  0  0  0  0  0  0  0  0  0  0  0
   -6.9230    2.2290    0.0000 C   0  0  0  0  0  0  0  0  0  0  0  0
   -8.0360    1.2222    0.0000 C   0  0  0  0  0  0  0  0  0  0  0  0
   -9.4647    1.6817    0.0000 C   0  0  0  0  0  0  0  0  0  0  0  0
  -10.5766    0.6749    0.0000 H   0  0  0  0  0  0  0  0  0  0  0  0
   -9.7805    3.1481    0.0000 C   0  0  0  0  0  0  0  0  0  0  0  0
   -8.6675    4.1550    0.0000 C   0  0  0  0  0  0  0  0  0  0  0  0
   -8.9832    5.6213    0.0000 H   0  0  0  0  0  0  0  0  0  0  0  0
   -7.2387    3.6954    0.0000 C   0  0  0  0  0  0  0  0  0  0  0  0
   -6.1268    4.7022    0.0000 H   0  0  0  0  0  0  0  0  0  0  0  0
  -11.2082    3.6081    0.0000 N   0  0  0  0  0  0  0  0  0  0  0  0
  -12.4199    2.7239    0.0000 C   0  0  0  0  0  0  0  0  0  0  0  0
  -12.4175    1.2239    0.0000 H   0  0  0  0  0  0  0  0  0  0  0  0
  -13.6285    3.5999    0.0000 C   0  0  0  0  0  0  0  0  0  0  0  0
  -15.0530    3.1299    0.0000 C   0  0  0  0  0  0  0  0  0  0  0  0
  -16.2308    2.2010    0.0000 H   0  0  0  0  0  0  0  0  0  0  0  0
  -14.3428    1.8087    0.0000 H   0  0  0  0  0  0  0  0  0  0  0  0
  -16.1722    4.1285    0.0000 O   0  0  0  0  0  0  0  0  0  0  0  0
  -17.5967    3.6585    0.0000 H   0  0  0  0  0  0  0  0  0  0  0  0
  -13.1757    5.0320    0.0000 O   0  0  0  0  0  0  0  0  0  0  0  0
  -11.6736    5.0263    0.0000 C   0  0  0  0  0  0  0  0  0  0  0  0
  -10.7914    6.2395    0.0000 O   0  0  0  0  0  0  0  0  0  0  0  0
   -7.7202   -0.2442    0.0000 F   0  0  0  0  0  0  0  0  0  0  0  0
   -0.7500   -1.0300    0.0000 N   0  0  0  0  0  0  0  0  0  0  0  0
    0.7500   -1.0300    0.0000 N   0  0  0  0  0  0  0  0  0  0  0  0
  1  2  1  0  0  0  0 
  1  3  1  0  0  0  0 
  1  4  1  0  0  0  0 
  1  5  1  0  0  0  0 
  5  6  1  0  0  0  0 
  6  7  2  0  0  0  0 
  7  8  1  0  0  0  0 
  8  9  2  0  0  0  0 
  9 10  1  0  0  0  0 
 10 11  1  0  0  0  0 
 10 12  2  0  0  0  0 
 12 13  1  0  0  0  0 
 13 14  1  0  0  0  0 
 13 15  2  0  0  0  0 
  8 15  1  0  0  0  0 
 15 16  1  0  0  0  0 
 12 17  1  0  0  0  0 
 17 18  2  0  0  0  0 
 18 19  1  0  0  0  0 
 19 20  1  0  0  0  0 
 19 21  2  0  0  0  0 
 21 22  1  0  0  0  0 
 22 23  1  0  0  0  0 
 22 24  2  0  0  0  0 
 17 24  1  0  0  0  0 
 24 25  1  0  0  0  0 
 21 26  1  0  0  0  0 
 26 27  1  0  0  0  0 
 27 28  1  0  0  0  0 
 27 29  2  0  0  0  0 
 29 30  1  0  0  0  0 
 30 31  1  0  0  0  0 
 30 32  1  0  0  0  0 
 30 33  1  0  0  0  0 
 33 34  1  0  0  0  0 
 29 35  1  0  0  0  0 
 35 36  1  0  0  0  0 
 26 36  1  0  0  0  0 
 36 37  2  0  0  0  0 
 18 38  1  0  0  0  0 
  7 39  1  0  0  0  0 
 39 40  2  0  0  0  0 
  5 40  1  0  0  0  0 
M  END
> <Rank>
30

> <Priority_score>
0.0184

> <Reaction_type>
alkyl dehydrogenation

> <Parent_ID>
69

> <Parent_InChI>
InChI=1S/C17H15FN6O3/c1-23-21-16(20-22-23)15-5-2-10(7-19-15)13-4-3-11(6-14(13)18)24-8-12(9-25)27-17(24)26/h2-7,12,25H,8-9H2,1H3

> <Parent_SMILES>
Cn1nnc(-c2ccc(-c3ccc(N4C[C@H](CO)OC4=O)cc3F)cn2)n1

$$$$
Molecule 69_metabolite 31
  CDK     0516241031

 41 44  0  0  0  0  0  0  0  0999 V2000
  -15.1103   -0.3961    0.0000 C   0  0  0  0  0  0  0  0  0  0  0  0
  -16.5767   -0.0806    0.0000 H   0  0  0  0  0  0  0  0  0  0  0  0
  -15.6757   -1.7855    0.0000 H   0  0  0  0  0  0  0  0  0  0  0  0
  -13.8402   -1.1941    0.0000 H   0  0  0  0  0  0  0  0  0  0  0  0
  -14.1038    0.7161    0.0000 N   0  0  0  0  0  0  0  0  0  0  0  0
  -12.6109    0.5504    0.0000 N   0  0  0  0  0  0  0  0  0  0  0  0
  -12.0081    1.9261    0.0000 C   0  0  0  0  0  0  0  0  0  0  0  0
  -10.5416    2.2416    0.0000 C   0  0  0  0  0  0  0  0  0  0  0  0
  -10.0812    3.6701    0.0000 N   0  0  0  0  0  0  0  0  0  0  0  0
   -8.6141    3.9865    0.0000 C   0  0  0  0  0  0  0  0  0  0  0  0
   -8.1545    5.4144    0.0000 H   0  0  0  0  0  0  0  0  0  0  0  0
   -7.6074    2.8744    0.0000 C   0  0  0  0  0  0  0  0  0  0  0  0
   -8.0679    1.4460    0.0000 C   0  0  0  0  0  0  0  0  0  0  0  0
   -7.0612    0.3339    0.0000 H   0  0  0  0  0  0  0  0  0  0  0  0
   -9.5350    1.1296    0.0000 C   0  0  0  0  0  0  0  0  0  0  0  0
   -9.9945   -0.2983    0.0000 H   0  0  0  0  0  0  0  0  0  0  0  0
   -6.1410    3.1900    0.0000 C   0  0  0  0  0  0  0  0  0  0  0  0
   -5.6805    4.6184    0.0000 C   0  0  0  0  0  0  0  0  0  0  0  0
   -4.2134    4.9348    0.0000 C   0  0  0  0  0  0  0  0  0  0  0  0
   -3.7539    6.3627    0.0000 H   0  0  0  0  0  0  0  0  0  0  0  0
   -3.2068    3.8228    0.0000 C   0  0  0  0  0  0  0  0  0  0  0  0
   -3.6672    2.3943    0.0000 C   0  0  0  0  0  0  0  0  0  0  0  0
   -2.6606    1.2823    0.0000 H   0  0  0  0  0  0  0  0  0  0  0  0
   -5.1343    2.0779    0.0000 C   0  0  0  0  0  0  0  0  0  0  0  0
   -5.5938    0.6500    0.0000 H   0  0  0  0  0  0  0  0  0  0  0  0
   -1.7403    4.1383    0.0000 N   0  0  0  0  0  0  0  0  0  0  0  0
   -1.1330    5.5098    0.0000 C   0  0  0  0  0  0  0  0  0  0  0  0
   -1.8851    6.8077    0.0000 H   0  0  0  0  0  0  0  0  0  0  0  0
    0.3516    5.3556    0.0000 C   0  0  2  0  0  0  0  0  0  0  0  0
    1.8425    5.5208    0.0000 H   0  0  0  0  0  0  0  0  0  0  0  0
    0.3465    6.8555    0.0000 C   0  0  0  0  0  0  0  0  0  0  0  0
   -0.1713    8.2633    0.0000 H   0  0  0  0  0  0  0  0  0  0  0  0
   -1.1298    6.5900    0.0000 H   0  0  0  0  0  0  0  0  0  0  0  0
    1.6430    7.6100    0.0000 O   0  0  0  0  0  0  0  0  0  0  0  0
    2.9446    6.8644    0.0000 H   0  0  0  0  0  0  0  0  0  0  0  0
    0.6755    3.8888    0.0000 O   0  0  0  0  0  0  0  0  0  0  0  0
   -0.6281    3.1428    0.0000 C   0  0  0  0  0  0  0  0  0  0  0  0
   -0.7856    1.6510    0.0000 O   0  0  0  0  0  0  0  0  0  0  0  0
   -6.6872    5.7305    0.0000 F   0  0  0  0  0  0  0  0  0  0  0  0
  -13.1164    2.9259    0.0000 N   0  0  0  0  0  0  0  0  0  0  0  0
  -14.4155    2.1759    0.0000 N   0  0  0  0  0  0  0  0  0  0  0  0
  1  2  1  0  0  0  0 
  1  3  1  0  0  0  0 
  1  4  1  0  0  0  0 
  1  5  1  0  0  0  0 
  5  6  1  0  0  0  0 
  6  7  2  0  0  0  0 
  7  8  1  0  0  0  0 
  8  9  2  0  0  0  0 
  9 10  1  0  0  0  0 
 10 11  1  0  0  0  0 
 10 12  2  0  0  0  0 
 12 13  1  0  0  0  0 
 13 14  1  0  0  0  0 
 13 15  2  0  0  0  0 
  8 15  1  0  0  0  0 
 15 16  1  0  0  0  0 
 12 17  1  0  0  0  0 
 17 18  2  0  0  0  0 
 18 19  1  0  0  0  0 
 19 20  1  0  0  0  0 
 19 21  2  0  0  0  0 
 21 22  1  0  0  0  0 
 22 23  1  0  0  0  0 
 22 24  2  0  0  0  0 
 17 24  1  0  0  0  0 
 24 25  1  0  0  0  0 
 21 26  1  0  0  0  0 
 26 27  2  0  0  0  0 
 27 28  1  0  0  0  0 
 27 29  1  0  0  0  0 
 29 30  1  1  0  0  0 
 29 31  1  0  0  0  0 
 31 32  1  0  0  0  0 
 31 33  1  0  0  0  0 
 31 34  1  0  0  0  0 
 34 35  1  0  0  0  0 
 29 36  1  6  0  0  0 
 36 37  1  0  0  0  0 
 26 37  1  0  0  0  0 
 37 38  2  0  0  0  0 
 18 39  1  0  0  0  0 
  7 40  1  0  0  0  0 
 40 41  2  0  0  0  0 
  5 41  1  0  0  0  0 
M  CHG  1  26   1
M  END
> <Rank>
31

> <Priority_score>
0.016800000000000002

> <Reaction_type>
dehydration of N-C bond

> <Parent_ID>
69

> <Parent_InChI>
InChI=1S/C17H15FN6O3/c1-23-21-16(20-22-23)15-5-2-10(7-19-15)13-4-3-11(6-14(13)18)24-8-12(9-25)27-17(24)26/h2-7,12,25H,8-9H2,1H3

> <Parent_SMILES>
Cn1nnc(-c2ccc(-c3ccc(N4C[C@H](CO)OC4=O)cc3F)cn2)n1

$$$$
Molecule 69_metabolite 32
  CDK     0516241031

 43 46  0  0  0  0  0  0  0  0999 V2000
  -14.7934   -0.2948    0.0000 C   0  0  0  0  0  0  0  0  0  0  0  0
  -16.2599    0.0208    0.0000 H   0  0  0  0  0  0  0  0  0  0  0  0
  -15.3588   -1.6841    0.0000 H   0  0  0  0  0  0  0  0  0  0  0  0
  -13.5233   -1.0928    0.0000 H   0  0  0  0  0  0  0  0  0  0  0  0
  -13.7870    0.8174    0.0000 N   0  0  0  0  0  0  0  0  0  0  0  0
  -12.2941    0.6517    0.0000 N   0  0  0  0  0  0  0  0  0  0  0  0
  -11.6912    2.0274    0.0000 C   0  0  0  0  0  0  0  0  0  0  0  0
  -10.2247    2.3430    0.0000 C   0  0  0  0  0  0  0  0  0  0  0  0
   -9.2175    1.2303    0.0000 N   0  0  0  0  0  0  0  0  0  0  0  0
   -7.7501    1.5453    0.0000 C   0  0  0  0  0  0  0  0  0  0  0  0
   -6.7440    0.4327    0.0000 H   0  0  0  0  0  0  0  0  0  0  0  0
   -7.2899    2.9729    0.0000 C   0  0  0  0  0  0  0  0  0  0  0  0
   -8.2971    4.0856    0.0000 C   0  0  0  0  0  0  0  0  0  0  0  0
   -7.8369    5.5133    0.0000 H   0  0  0  0  0  0  0  0  0  0  0  0
   -9.7645    3.7706    0.0000 C   0  0  0  0  0  0  0  0  0  0  0  0
  -10.7706    4.8832    0.0000 O   0  0  0  0  0  0  0  0  0  0  0  0
  -10.3102    6.3108    0.0000 H   0  0  0  0  0  0  0  0  0  0  0  0
   -5.8235    3.2885    0.0000 C   0  0  0  0  0  0  0  0  0  0  0  0
   -5.3630    4.7169    0.0000 C   0  0  0  0  0  0  0  0  0  0  0  0
   -3.8959    5.0333    0.0000 C   0  0  0  0  0  0  0  0  0  0  0  0
   -3.4364    6.4612    0.0000 H   0  0  0  0  0  0  0  0  0  0  0  0
   -2.8893    3.9213    0.0000 C   0  0  0  0  0  0  0  0  0  0  0  0
   -3.3497    2.4928    0.0000 C   0  0  0  0  0  0  0  0  0  0  0  0
   -2.3431    1.3808    0.0000 H   0  0  0  0  0  0  0  0  0  0  0  0
   -4.8168    2.1764    0.0000 C   0  0  0  0  0  0  0  0  0  0  0  0
   -5.2763    0.7485    0.0000 H   0  0  0  0  0  0  0  0  0  0  0  0
   -1.4228    4.2368    0.0000 N   0  0  0  0  0  0  0  0  0  0  0  0
   -0.8155    5.6083    0.0000 C   0  0  0  0  0  0  0  0  0  0  0  0
   -0.4067    7.5457    0.0000 H   0  0  0  0  0  0  0  0  0  0  0  0
   -2.2429    6.0694    0.0000 H   0  0  0  0  0  0  0  0  0  0  0  0
    0.6691    5.4541    0.0000 C   0  0  2  0  0  0  0  0  0  0  0  0
    2.1600    5.6193    0.0000 H   0  0  0  0  0  0  0  0  0  0  0  0
    0.6591    8.3940    0.0000 C   0  0  0  0  0  0  0  0  0  0  0  0
    0.1412    9.8018    0.0000 H   0  0  0  0  0  0  0  0  0  0  0  0
   -1.2897    8.0436    0.0000 H   0  0  0  0  0  0  0  0  0  0  0  0
    1.9556    9.1485    0.0000 O   0  0  0  0  0  0  0  0  0  0  0  0
    3.2571    8.4029    0.0000 H   0  0  0  0  0  0  0  0  0  0  0  0
    0.9930    3.9873    0.0000 O   0  0  0  0  0  0  0  0  0  0  0  0
   -0.3107    3.2413    0.0000 C   0  0  0  0  0  0  0  0  0  0  0  0
   -0.4681    1.7495    0.0000 O   0  0  0  0  0  0  0  0  0  0  0  0
   -6.3697    5.8290    0.0000 F   0  0  0  0  0  0  0  0  0  0  0  0
  -12.7995    3.0272    0.0000 N   0  0  0  0  0  0  0  0  0  0  0  0
  -14.0986    2.2772    0.0000 N   0  0  0  0  0  0  0  0  0  0  0  0
  1  2  1  0  0  0  0 
  1  3  1  0  0  0  0 
  1  4  1  0  0  0  0 
  1  5  1  0  0  0  0 
  5  6  1  0  0  0  0 
  6  7  2  0  0  0  0 
  7  8  1  0  0  0  0 
  8  9  2  0  0  0  0 
  9 10  1  0  0  0  0 
 10 11  1  0  0  0  0 
 10 12  2  0  0  0  0 
 12 13  1  0  0  0  0 
 13 14  1  0  0  0  0 
 13 15  2  0  0  0  0 
  8 15  1  0  0  0  0 
 15 16  1  0  0  0  0 
 16 17  1  0  0  0  0 
 12 18  1  0  0  0  0 
 18 19  2  0  0  0  0 
 19 20  1  0  0  0  0 
 20 21  1  0  0  0  0 
 20 22  2  0  0  0  0 
 22 23  1  0  0  0  0 
 23 24  1  0  0  0  0 
 23 25  2  0  0  0  0 
 18 25  1  0  0  0  0 
 25 26  1  0  0  0  0 
 22 27  1  0  0  0  0 
 27 28  1  0  0  0  0 
 28 29  1  0  0  0  0 
 28 30  1  0  0  0  0 
 28 31  1  0  0  0  0 
 31 32  1  1  0  0  0 
 31 33  1  0  0  0  0 
 33 34  1  0  0  0  0 
 33 35  1  0  0  0  0 
 33 36  1  0  0  0  0 
 36 37  1  0  0  0  0 
 31 38  1  6  0  0  0 
 38 39  1  0  0  0  0 
 27 39  1  0  0  0  0 
 39 40  2  0  0  0  0 
 19 41  1  0  0  0  0 
  7 42  1  0  0  0  0 
 42 43  2  0  0  0  0 
  5 43  1  0  0  0  0 
M  END
> <Rank>
32

> <Priority_score>
0.016

> <Reaction_type>
aromatic hydroxylation

> <Parent_ID>
69

> <Parent_InChI>
InChI=1S/C17H15FN6O3/c1-23-21-16(20-22-23)15-5-2-10(7-19-15)13-4-3-11(6-14(13)18)24-8-12(9-25)27-17(24)26/h2-7,12,25H,8-9H2,1H3

> <Parent_SMILES>
Cn1nnc(-c2ccc(-c3ccc(N4C[C@H](CO)OC4=O)cc3F)cn2)n1

$$$$
Molecule 69_metabolite 33
  CDK     0516241031

 43 46  0  0  0  0  0  0  0  0999 V2000
  -15.5751    5.9080    0.0000 C   0  0  0  0  0  0  0  0  0  0  0  0
  -16.6873    6.9144    0.0000 H   0  0  0  0  0  0  0  0  0  0  0  0
  -16.7594    4.9874    0.0000 H   0  0  0  0  0  0  0  0  0  0  0  0
  -14.8742    4.5818    0.0000 H   0  0  0  0  0  0  0  0  0  0  0  0
  -14.1474    6.3679    0.0000 N   0  0  0  0  0  0  0  0  0  0  0  0
  -12.9374    5.4779    0.0000 N   0  0  0  0  0  0  0  0  0  0  0  0
  -11.7274    6.3679    0.0000 C   0  0  0  0  0  0  0  0  0  0  0  0
  -10.2997    5.9080    0.0000 C   0  0  0  0  0  0  0  0  0  0  0  0
   -9.1867    6.9148    0.0000 N   0  0  0  0  0  0  0  0  0  0  0  0
   -7.7579    6.4553    0.0000 C   0  0  0  0  0  0  0  0  0  0  0  0
   -6.6460    7.4621    0.0000 H   0  0  0  0  0  0  0  0  0  0  0  0
   -7.4422    4.9889    0.0000 C   0  0  0  0  0  0  0  0  0  0  0  0
   -8.5552    3.9820    0.0000 C   0  0  0  0  0  0  0  0  0  0  0  0
   -8.2394    2.5156    0.0000 H   0  0  0  0  0  0  0  0  0  0  0  0
   -9.9839    4.4416    0.0000 C   0  0  0  0  0  0  0  0  0  0  0  0
  -11.0958    3.4347    0.0000 H   0  0  0  0  0  0  0  0  0  0  0  0
   -6.0144    4.5289    0.0000 C   0  0  0  0  0  0  0  0  0  0  0  0
   -4.9014    5.5358    0.0000 C   0  0  0  0  0  0  0  0  0  0  0  0
   -3.4727    5.0762    0.0000 C   0  0  0  0  0  0  0  0  0  0  0  0
   -2.3608    6.0830    0.0000 H   0  0  0  0  0  0  0  0  0  0  0  0
   -3.1569    3.6098    0.0000 C   0  0  0  0  0  0  0  0  0  0  0  0
   -4.2699    2.6030    0.0000 C   0  0  0  0  0  0  0  0  0  0  0  0
   -3.9542    1.1366    0.0000 H   0  0  0  0  0  0  0  0  0  0  0  0
   -5.6987    3.0625    0.0000 C   0  0  0  0  0  0  0  0  0  0  0  0
   -6.8106    2.0557    0.0000 F   0  0  0  0  0  0  0  0  0  0  0  0
   -1.7292    3.1498    0.0000 N   0  0  0  0  0  0  0  0  0  0  0  0
   -0.5175    4.0340    0.0000 C   0  0  0  0  0  0  0  0  0  0  0  0
    0.8052    5.5074    0.0000 H   0  0  0  0  0  0  0  0  0  0  0  0
   -1.5231    5.1470    0.0000 H   0  0  0  0  0  0  0  0  0  0  0  0
    0.6911    3.1581    0.0000 C   0  0  2  0  0  0  0  0  0  0  0  0
    2.0649    2.5557    0.0000 H   0  0  0  0  0  0  0  0  0  0  0  0
    2.1524    5.7092    0.0000 C   0  0  0  0  0  0  0  0  0  0  0  0
    2.4078    7.1873    0.0000 H   0  0  0  0  0  0  0  0  0  0  0  0
    0.2895    6.3800    0.0000 H   0  0  0  0  0  0  0  0  0  0  0  0
    3.6524    5.7143    0.0000 O   0  0  0  0  0  0  0  0  0  0  0  0
    4.4068    4.4178    0.0000 H   0  0  0  0  0  0  0  0  0  0  0  0
    0.2383    1.7259    0.0000 O   0  0  0  0  0  0  0  0  0  0  0  0
   -1.2638    1.7316    0.0000 C   0  0  0  0  0  0  0  0  0  0  0  0
   -2.1460    0.5185    0.0000 O   0  0  0  0  0  0  0  0  0  0  0  0
   -5.2172    7.0021    0.0000 O   0  0  0  0  0  0  0  0  0  0  0  0
   -4.1051    8.0088    0.0000 H   0  0  0  0  0  0  0  0  0  0  0  0
  -12.1874    7.7879    0.0000 N   0  0  0  0  0  0  0  0  0  0  0  0
  -13.6874    7.7879    0.0000 N   0  0  0  0  0  0  0  0  0  0  0  0
  1  2  1  0  0  0  0 
  1  3  1  0  0  0  0 
  1  4  1  0  0  0  0 
  1  5  1  0  0  0  0 
  5  6  1  0  0  0  0 
  6  7  2  0  0  0  0 
  7  8  1  0  0  0  0 
  8  9  2  0  0  0  0 
  9 10  1  0  0  0  0 
 10 11  1  0  0  0  0 
 10 12  2  0  0  0  0 
 12 13  1  0  0  0  0 
 13 14  1  0  0  0  0 
 13 15  2  0  0  0  0 
  8 15  1  0  0  0  0 
 15 16  1  0  0  0  0 
 12 17  1  0  0  0  0 
 17 18  2  0  0  0  0 
 18 19  1  0  0  0  0 
 19 20  1  0  0  0  0 
 19 21  2  0  0  0  0 
 21 22  1  0  0  0  0 
 22 23  1  0  0  0  0 
 22 24  2  0  0  0  0 
 17 24  1  0  0  0  0 
 24 25  1  0  0  0  0 
 21 26  1  0  0  0  0 
 26 27  1  0  0  0  0 
 27 28  1  0  0  0  0 
 27 29  1  0  0  0  0 
 27 30  1  0  0  0  0 
 30 31  1  1  0  0  0 
 30 32  1  0  0  0  0 
 32 33  1  0  0  0  0 
 32 34  1  0  0  0  0 
 32 35  1  0  0  0  0 
 35 36  1  0  0  0  0 
 30 37  1  6  0  0  0 
 37 38  1  0  0  0  0 
 26 38  1  0  0  0  0 
 38 39  2  0  0  0  0 
 18 40  1  0  0  0  0 
 40 41  1  0  0  0  0 
  7 42  1  0  0  0  0 
 42 43  2  0  0  0  0 
  5 43  1  0  0  0  0 
M  END
> <Rank>
33

> <Priority_score>
0.008

> <Reaction_type>
aromatic hydroxylation

> <Parent_ID>
69

> <Parent_InChI>
InChI=1S/C17H15FN6O3/c1-23-21-16(20-22-23)15-5-2-10(7-19-15)13-4-3-11(6-14(13)18)24-8-12(9-25)27-17(24)26/h2-7,12,25H,8-9H2,1H3

> <Parent_SMILES>
Cn1nnc(-c2ccc(-c3ccc(N4C[C@H](CO)OC4=O)cc3F)cn2)n1

$$$$
Molecule 69_metabolite 34
  CDK     0516241031

 43 46  0  0  0  0  0  0  0  0999 V2000
  -14.9086    0.1352    0.0000 C   0  0  0  0  0  0  0  0  0  0  0  0
  -16.3751    0.4507    0.0000 H   0  0  0  0  0  0  0  0  0  0  0  0
  -15.4740   -1.2542    0.0000 H   0  0  0  0  0  0  0  0  0  0  0  0
  -13.6385   -0.6629    0.0000 H   0  0  0  0  0  0  0  0  0  0  0  0
  -13.9022    1.2474    0.0000 N   0  0  0  0  0  0  0  0  0  0  0  0
  -12.4093    1.0816    0.0000 N   0  0  0  0  0  0  0  0  0  0  0  0
  -11.8064    2.4574    0.0000 C   0  0  0  0  0  0  0  0  0  0  0  0
  -10.3399    2.7729    0.0000 C   0  0  0  0  0  0  0  0  0  0  0  0
   -9.3327    1.6602    0.0000 N   0  0  0  0  0  0  0  0  0  0  0  0
   -7.8653    1.9752    0.0000 C   0  0  0  0  0  0  0  0  0  0  0  0
   -6.8592    0.8627    0.0000 H   0  0  0  0  0  0  0  0  0  0  0  0
   -7.4051    3.4029    0.0000 C   0  0  0  0  0  0  0  0  0  0  0  0
   -5.9387    3.7184    0.0000 C   0  0  0  0  0  0  0  0  0  0  0  0
   -5.4782    5.1468    0.0000 C   0  0  0  0  0  0  0  0  0  0  0  0
   -4.0111    5.4632    0.0000 C   0  0  0  0  0  0  0  0  0  0  0  0
   -3.5516    6.8911    0.0000 H   0  0  0  0  0  0  0  0  0  0  0  0
   -3.0045    4.3512    0.0000 C   0  0  0  0  0  0  0  0  0  0  0  0
   -3.4649    2.9227    0.0000 C   0  0  0  0  0  0  0  0  0  0  0  0
   -2.4583    1.8107    0.0000 H   0  0  0  0  0  0  0  0  0  0  0  0
   -4.9320    2.6063    0.0000 C   0  0  0  0  0  0  0  0  0  0  0  0
   -5.3915    1.1785    0.0000 H   0  0  0  0  0  0  0  0  0  0  0  0
   -1.5380    4.6667    0.0000 N   0  0  0  0  0  0  0  0  0  0  0  0
   -0.9307    6.0383    0.0000 C   0  0  0  0  0  0  0  0  0  0  0  0
   -0.5219    7.9756    0.0000 H   0  0  0  0  0  0  0  0  0  0  0  0
   -2.3581    6.4993    0.0000 H   0  0  0  0  0  0  0  0  0  0  0  0
    0.5539    5.8840    0.0000 C   0  0  2  0  0  0  0  0  0  0  0  0
    2.0448    6.0492    0.0000 H   0  0  0  0  0  0  0  0  0  0  0  0
    0.5439    8.8240    0.0000 C   0  0  0  0  0  0  0  0  0  0  0  0
    0.0260   10.2317    0.0000 H   0  0  0  0  0  0  0  0  0  0  0  0
   -1.4048    8.4735    0.0000 H   0  0  0  0  0  0  0  0  0  0  0  0
    1.8404    9.5784    0.0000 O   0  0  0  0  0  0  0  0  0  0  0  0
    3.1419    8.8328    0.0000 H   0  0  0  0  0  0  0  0  0  0  0  0
    0.8778    4.4172    0.0000 O   0  0  0  0  0  0  0  0  0  0  0  0
   -0.4259    3.6712    0.0000 C   0  0  0  0  0  0  0  0  0  0  0  0
   -0.5833    2.1795    0.0000 O   0  0  0  0  0  0  0  0  0  0  0  0
   -6.4849    6.2589    0.0000 F   0  0  0  0  0  0  0  0  0  0  0  0
   -8.4123    4.5155    0.0000 C   0  0  0  0  0  0  0  0  0  0  0  0
   -9.8797    4.2005    0.0000 C   0  0  0  0  0  0  0  0  0  0  0  0
  -10.8858    5.3131    0.0000 H   0  0  0  0  0  0  0  0  0  0  0  0
   -7.9521    5.9432    0.0000 O   0  0  0  0  0  0  0  0  0  0  0  0
   -8.9584    7.0556    0.0000 H   0  0  0  0  0  0  0  0  0  0  0  0
  -12.9147    3.4571    0.0000 N   0  0  0  0  0  0  0  0  0  0  0  0
  -14.2138    2.7071    0.0000 N   0  0  0  0  0  0  0  0  0  0  0  0
  1  2  1  0  0  0  0 
  1  3  1  0  0  0  0 
  1  4  1  0  0  0  0 
  1  5  1  0  0  0  0 
  5  6  1  0  0  0  0 
  6  7  2  0  0  0  0 
  7  8  1  0  0  0  0 
  8  9  2  0  0  0  0 
  9 10  1  0  0  0  0 
 10 11  1  0  0  0  0 
 10 12  2  0  0  0  0 
 12 13  1  0  0  0  0 
 13 14  2  0  0  0  0 
 14 15  1  0  0  0  0 
 15 16  1  0  0  0  0 
 15 17  2  0  0  0  0 
 17 18  1  0  0  0  0 
 18 19  1  0  0  0  0 
 18 20  2  0  0  0  0 
 13 20  1  0  0  0  0 
 20 21  1  0  0  0  0 
 17 22  1  0  0  0  0 
 22 23  1  0  0  0  0 
 23 24  1  0  0  0  0 
 23 25  1  0  0  0  0 
 23 26  1  0  0  0  0 
 26 27  1  1  0  0  0 
 26 28  1  0  0  0  0 
 28 29  1  0  0  0  0 
 28 30  1  0  0  0  0 
 28 31  1  0  0  0  0 
 31 32  1  0  0  0  0 
 26 33  1  6  0  0  0 
 33 34  1  0  0  0  0 
 22 34  1  0  0  0  0 
 34 35  2  0  0  0  0 
 14 36  1  0  0  0  0 
 12 37  1  0  0  0  0 
 37 38  2  0  0  0  0 
  8 38  1  0  0  0  0 
 38 39  1  0  0  0  0 
 37 40  1  0  0  0  0 
 40 41  1  0  0  0  0 
  7 42  1  0  0  0  0 
 42 43  2  0  0  0  0 
  5 43  1  0  0  0  0 
M  END
> <Rank>
33

> <Priority_score>
0.008

> <Reaction_type>
aromatic hydroxylation

> <Parent_ID>
69

> <Parent_InChI>
InChI=1S/C17H15FN6O3/c1-23-21-16(20-22-23)15-5-2-10(7-19-15)13-4-3-11(6-14(13)18)24-8-12(9-25)27-17(24)26/h2-7,12,25H,8-9H2,1H3

> <Parent_SMILES>
Cn1nnc(-c2ccc(-c3ccc(N4C[C@H](CO)OC4=O)cc3F)cn2)n1

$$$$
Molecule 69_metabolite 35
  CDK     0516241031

 43 46  0  0  0  0  0  0  0  0999 V2000
  -15.5751    5.9080    0.0000 C   0  0  0  0  0  0  0  0  0  0  0  0
  -16.6873    6.9144    0.0000 H   0  0  0  0  0  0  0  0  0  0  0  0
  -16.7594    4.9874    0.0000 H   0  0  0  0  0  0  0  0  0  0  0  0
  -14.8742    4.5818    0.0000 H   0  0  0  0  0  0  0  0  0  0  0  0
  -14.1474    6.3679    0.0000 N   0  0  0  0  0  0  0  0  0  0  0  0
  -12.9374    5.4779    0.0000 N   0  0  0  0  0  0  0  0  0  0  0  0
  -11.7274    6.3679    0.0000 C   0  0  0  0  0  0  0  0  0  0  0  0
  -10.2997    5.9080    0.0000 C   0  0  0  0  0  0  0  0  0  0  0  0
   -9.1867    6.9148    0.0000 N   0  0  0  0  0  0  0  0  0  0  0  0
   -7.7579    6.4553    0.0000 C   0  0  0  0  0  0  0  0  0  0  0  0
   -6.6460    7.4621    0.0000 H   0  0  0  0  0  0  0  0  0  0  0  0
   -7.4422    4.9889    0.0000 C   0  0  0  0  0  0  0  0  0  0  0  0
   -8.5552    3.9820    0.0000 C   0  0  0  0  0  0  0  0  0  0  0  0
   -8.2394    2.5156    0.0000 H   0  0  0  0  0  0  0  0  0  0  0  0
   -9.9839    4.4416    0.0000 C   0  0  0  0  0  0  0  0  0  0  0  0
  -11.0958    3.4347    0.0000 H   0  0  0  0  0  0  0  0  0  0  0  0
   -6.0144    4.5289    0.0000 C   0  0  0  0  0  0  0  0  0  0  0  0
   -4.9014    5.5358    0.0000 C   0  0  0  0  0  0  0  0  0  0  0  0
   -3.4727    5.0762    0.0000 C   0  0  0  0  0  0  0  0  0  0  0  0
   -2.3608    6.0830    0.0000 H   0  0  0  0  0  0  0  0  0  0  0  0
   -3.1569    3.6098    0.0000 C   0  0  0  0  0  0  0  0  0  0  0  0
   -4.2699    2.6030    0.0000 C   0  0  0  0  0  0  0  0  0  0  0  0
   -3.9542    1.1366    0.0000 H   0  0  0  0  0  0  0  0  0  0  0  0
   -5.6987    3.0625    0.0000 C   0  0  0  0  0  0  0  0  0  0  0  0
   -6.8106    2.0557    0.0000 H   0  0  0  0  0  0  0  0  0  0  0  0
   -1.7292    3.1498    0.0000 N   0  0  0  0  0  0  0  0  0  0  0  0
   -0.5175    4.0340    0.0000 C   0  0  0  0  0  0  0  0  0  0  0  0
    0.8052    5.5074    0.0000 H   0  0  0  0  0  0  0  0  0  0  0  0
   -1.5231    5.1470    0.0000 H   0  0  0  0  0  0  0  0  0  0  0  0
    0.6911    3.1581    0.0000 C   0  0  2  0  0  0  0  0  0  0  0  0
    2.0649    2.5557    0.0000 H   0  0  0  0  0  0  0  0  0  0  0  0
    2.1524    5.7092    0.0000 C   0  0  0  0  0  0  0  0  0  0  0  0
    2.4078    7.1873    0.0000 H   0  0  0  0  0  0  0  0  0  0  0  0
    0.2895    6.3800    0.0000 H   0  0  0  0  0  0  0  0  0  0  0  0
    3.6524    5.7143    0.0000 O   0  0  0  0  0  0  0  0  0  0  0  0
    4.4068    4.4178    0.0000 H   0  0  0  0  0  0  0  0  0  0  0  0
    0.2383    1.7259    0.0000 O   0  0  0  0  0  0  0  0  0  0  0  0
   -1.2638    1.7316    0.0000 C   0  0  0  0  0  0  0  0  0  0  0  0
   -2.1460    0.5185    0.0000 O   0  0  0  0  0  0  0  0  0  0  0  0
   -5.2172    7.0021    0.0000 O   0  0  0  0  0  0  0  0  0  0  0  0
   -4.1051    8.0088    0.0000 H   0  0  0  0  0  0  0  0  0  0  0  0
  -12.1874    7.7879    0.0000 N   0  0  0  0  0  0  0  0  0  0  0  0
  -13.6874    7.7879    0.0000 N   0  0  0  0  0  0  0  0  0  0  0  0
  1  2  1  0  0  0  0 
  1  3  1  0  0  0  0 
  1  4  1  0  0  0  0 
  1  5  1  0  0  0  0 
  5  6  1  0  0  0  0 
  6  7  2  0  0  0  0 
  7  8  1  0  0  0  0 
  8  9  2  0  0  0  0 
  9 10  1  0  0  0  0 
 10 11  1  0  0  0  0 
 10 12  2  0  0  0  0 
 12 13  1  0  0  0  0 
 13 14  1  0  0  0  0 
 13 15  2  0  0  0  0 
  8 15  1  0  0  0  0 
 15 16  1  0  0  0  0 
 12 17  1  0  0  0  0 
 17 18  2  0  0  0  0 
 18 19  1  0  0  0  0 
 19 20  1  0  0  0  0 
 19 21  2  0  0  0  0 
 21 22  1  0  0  0  0 
 22 23  1  0  0  0  0 
 22 24  2  0  0  0  0 
 17 24  1  0  0  0  0 
 24 25  1  0  0  0  0 
 21 26  1  0  0  0  0 
 26 27  1  0  0  0  0 
 27 28  1  0  0  0  0 
 27 29  1  0  0  0  0 
 27 30  1  0  0  0  0 
 30 31  1  1  0  0  0 
 30 32  1  0  0  0  0 
 32 33  1  0  0  0  0 
 32 34  1  0  0  0  0 
 32 35  1  0  0  0  0 
 35 36  1  0  0  0  0 
 30 37  1  6  0  0  0 
 37 38  1  0  0  0  0 
 26 38  1  0  0  0  0 
 38 39  2  0  0  0  0 
 18 40  1  0  0  0  0 
 40 41  1  0  0  0  0 
  7 42  1  0  0  0  0 
 42 43  2  0  0  0  0 
  5 43  1  0  0  0  0 
M  END
> <Rank>
35

> <Priority_score>
0.0024000000000000002

> <Reaction_type>
oxidative dehalogenation benzyl

> <Parent_ID>
69

> <Parent_InChI>
InChI=1S/C17H15FN6O3/c1-23-21-16(20-22-23)15-5-2-10(7-19-15)13-4-3-11(6-14(13)18)24-8-12(9-25)27-17(24)26/h2-7,12,25H,8-9H2,1H3

> <Parent_SMILES>
Cn1nnc(-c2ccc(-c3ccc(N4C[C@H](CO)OC4=O)cc3F)cn2)n1

$$$$
Molecule 70
  CDK     0516241031

 17 18  0  0  0  0  0  0  0  0999 V2000
    6.2226    0.9579    0.0000 C   0  0  0  0  0  0  0  0  0  0  0  0
    5.9067   -0.5094    0.0000 C   0  0  0  0  0  0  0  0  0  0  0  0
    4.4784   -0.9703    0.0000 C   0  0  0  0  0  0  0  0  0  0  0  0
    3.3660    0.0360    0.0000 C   0  0  0  0  0  0  0  0  0  0  0  0
    1.9383   -0.4239    0.0000 C   0  0  0  0  0  0  0  0  0  0  0  0
    0.8261    0.5825    0.0000 N   0  0  0  0  0  0  0  0  0  0  0  0
   -0.6337    0.2709    0.0000 C   0  0  0  0  0  0  0  0  0  0  0  0
   -1.3837    1.5699    0.0000 C   0  0  0  0  0  0  0  0  0  0  0  0
   -2.8754    1.7274    0.0000 C   0  0  0  0  0  0  0  0  0  0  0  0
   -3.7576    0.5142    0.0000 O   0  0  0  0  0  0  0  0  0  0  0  0
   -3.4849    3.0980    0.0000 N   0  0  0  0  0  0  0  0  0  0  0  0
   -0.3839    2.6783    0.0000 N   0  0  0  0  0  0  0  0  0  0  0  0
    0.9918    2.0754    0.0000 N   0  0  0  0  0  0  0  0  0  0  0  0
    3.6820    1.5032    0.0000 C   0  0  0  0  0  0  0  0  0  0  0  0
    5.1103    1.9641    0.0000 C   0  0  0  0  0  0  0  0  0  0  0  0
    2.5696    2.5095    0.0000 F   0  0  0  0  0  0  0  0  0  0  0  0
    4.1633   -2.4368    0.0000 F   0  0  0  0  0  0  0  0  0  0  0  0
  1  2  2  0  0  0  0 
  2  3  1  0  0  0  0 
  3  4  2  0  0  0  0 
  4  5  1  0  0  0  0 
  5  6  1  0  0  0  0 
  6  7  1  0  0  0  0 
  7  8  2  0  0  0  0 
  8  9  1  0  0  0  0 
  9 10  2  0  0  0  0 
  9 11  1  0  0  0  0 
  8 12  1  0  0  0  0 
 12 13  2  0  0  0  0 
  6 13  1  0  0  0  0 
  4 14  1  0  0  0  0 
 14 15  2  0  0  0  0 
  1 15  1  0  0  0  0 
 14 16  1  0  0  0  0 
  3 17  1  0  0  0  0 
M  END
> <SMILES>
NC(=O)c1cn(Cc2c(F)cccc2F)nn1

$$$$
Molecule 70_metabolite 1
  CDK     0516241031

 26 27  0  0  0  0  0  0  0  0999 V2000
    4.9947    3.1204    0.0000 C   0  0  0  0  0  0  0  0  0  0  0  0
    6.0012    4.2326    0.0000 H   0  0  0  0  0  0  0  0  0  0  0  0
    5.4547    1.6918    0.0000 C   0  0  0  0  0  0  0  0  0  0  0  0
    6.9212    1.3765    0.0000 H   0  0  0  0  0  0  0  0  0  0  0  0
    4.4482    0.5785    0.0000 C   0  0  0  0  0  0  0  0  0  0  0  0
    2.9817    0.8938    0.0000 C   0  0  0  0  0  0  0  0  0  0  0  0
    1.9753   -0.2184    0.0000 C   0  0  0  0  0  0  0  0  0  0  0  0
    1.4099   -1.6078    0.0000 H   0  0  0  0  0  0  0  0  0  0  0  0
    3.2453   -1.0165    0.0000 H   0  0  0  0  0  0  0  0  0  0  0  0
    0.5088    0.0971    0.0000 N   0  0  0  0  0  0  0  0  0  0  0  0
   -0.5996   -0.9027    0.0000 C   0  0  0  0  0  0  0  0  0  0  0  0
   -0.4421   -2.3944    0.0000 H   0  0  0  0  0  0  0  0  0  0  0  0
   -1.8986   -0.1527    0.0000 C   0  0  0  0  0  0  0  0  0  0  0  0
   -3.2692   -0.7622    0.0000 C   0  0  0  0  0  0  0  0  0  0  0  0
   -3.4266   -2.2539    0.0000 O   0  0  0  0  0  0  0  0  0  0  0  0
   -4.4823    0.1201    0.0000 N   0  0  0  0  0  0  0  0  0  0  0  0
   -4.3249    1.6118    0.0000 H   0  0  0  0  0  0  0  0  0  0  0  0
   -5.8529   -0.4894    0.0000 O   0  0  0  0  0  0  0  0  0  0  0  0
   -7.0660    0.3928    0.0000 H   0  0  0  0  0  0  0  0  0  0  0  0
   -1.5870    1.3071    0.0000 N   0  0  0  0  0  0  0  0  0  0  0  0
   -0.0941    1.4729    0.0000 N   0  0  0  0  0  0  0  0  0  0  0  0
    2.5217    2.3224    0.0000 C   0  0  0  0  0  0  0  0  0  0  0  0
    3.5282    3.4357    0.0000 C   0  0  0  0  0  0  0  0  0  0  0  0
    3.0678    4.8633    0.0000 H   0  0  0  0  0  0  0  0  0  0  0  0
    1.0552    2.6377    0.0000 F   0  0  0  0  0  0  0  0  0  0  0  0
    4.9086   -0.8491    0.0000 F   0  0  0  0  0  0  0  0  0  0  0  0
  1  2  1  0  0  0  0 
  1  3  2  0  0  0  0 
  3  4  1  0  0  0  0 
  3  5  1  0  0  0  0 
  5  6  2  0  0  0  0 
  6  7  1  0  0  0  0 
  7  8  1  0  0  0  0 
  7  9  1  0  0  0  0 
  7 10  1  0  0  0  0 
 10 11  1  0  0  0  0 
 11 12  1  0  0  0  0 
 11 13  2  0  0  0  0 
 13 14  1  0  0  0  0 
 14 15  2  0  0  0  0 
 14 16  1  0  0  0  0 
 16 17  1  0  0  0  0 
 16 18  1  0  0  0  0 
 18 19  1  0  0  0  0 
 13 20  1  0  0  0  0 
 20 21  2  0  0  0  0 
 10 21  1  0  0  0  0 
  6 22  1  0  0  0  0 
 22 23  2  0  0  0  0 
  1 23  1  0  0  0  0 
 23 24  1  0  0  0  0 
 22 25  1  0  0  0  0 
  5 26  1  0  0  0  0 
M  END
> <Rank>
1

> <Priority_score>
0.256

> <Reaction_type>
amine hydroxylation

> <Parent_ID>
70

> <Parent_InChI>
InChI=1S/C10H8F2N4O/c11-7-2-1-3-8(12)6(7)4-16-5-9(10(13)17)14-15-16/h1-3,5H,4H2,(H2,13,17)

> <Parent_SMILES>
NC(=O)c1cn(Cc2c(F)cccc2F)nn1

$$$$
Molecule 70_metabolite 2
  CDK     0516241031

 24 25  0  0  0  0  0  0  0  0999 V2000
    5.5246    1.2153    0.0000 C   0  0  0  0  0  0  0  0  0  0  0  0
    6.9524    1.6753    0.0000 H   0  0  0  0  0  0  0  0  0  0  0  0
    5.2087   -0.2519    0.0000 C   0  0  0  0  0  0  0  0  0  0  0  0
    6.3211   -1.2582    0.0000 H   0  0  0  0  0  0  0  0  0  0  0  0
    3.7804   -0.7128    0.0000 C   0  0  0  0  0  0  0  0  0  0  0  0
    2.6680    0.2935    0.0000 C   0  0  0  0  0  0  0  0  0  0  0  0
    1.2403   -0.1665    0.0000 C   0  0  0  0  0  0  0  0  0  0  0  0
    0.0560   -1.0870    0.0000 H   0  0  0  0  0  0  0  0  0  0  0  0
    1.9412   -1.4927    0.0000 H   0  0  0  0  0  0  0  0  0  0  0  0
    0.1281    0.8400    0.0000 N   0  0  0  0  0  0  0  0  0  0  0  0
   -1.3317    0.5283    0.0000 C   0  0  0  0  0  0  0  0  0  0  0  0
   -1.9412   -0.8422    0.0000 H   0  0  0  0  0  0  0  0  0  0  0  0
   -2.0817    1.8274    0.0000 C   0  0  0  0  0  0  0  0  0  0  0  0
   -3.5734    1.9848    0.0000 C   0  0  0  0  0  0  0  0  0  0  0  0
   -4.4556    0.7717    0.0000 O   0  0  0  0  0  0  0  0  0  0  0  0
   -4.1829    3.3554    0.0000 O   0  0  0  0  0  0  0  0  0  0  0  0
   -5.6746    3.5129    0.0000 H   0  0  0  0  0  0  0  0  0  0  0  0
   -1.0819    2.9357    0.0000 N   0  0  0  0  0  0  0  0  0  0  0  0
    0.2938    2.3329    0.0000 N   0  0  0  0  0  0  0  0  0  0  0  0
    2.9839    1.7607    0.0000 C   0  0  0  0  0  0  0  0  0  0  0  0
    4.4122    2.2216    0.0000 C   0  0  0  0  0  0  0  0  0  0  0  0
    4.7273    3.6881    0.0000 H   0  0  0  0  0  0  0  0  0  0  0  0
    1.8716    2.7670    0.0000 F   0  0  0  0  0  0  0  0  0  0  0  0
    3.4653   -2.1794    0.0000 F   0  0  0  0  0  0  0  0  0  0  0  0
  1  2  1  0  0  0  0 
  1  3  2  0  0  0  0 
  3  4  1  0  0  0  0 
  3  5  1  0  0  0  0 
  5  6  2  0  0  0  0 
  6  7  1  0  0  0  0 
  7  8  1  0  0  0  0 
  7  9  1  0  0  0  0 
  7 10  1  0  0  0  0 
 10 11  1  0  0  0  0 
 11 12  1  0  0  0  0 
 11 13  2  0  0  0  0 
 13 14  1  0  0  0  0 
 14 15  2  0  0  0  0 
 14 16  1  0  0  0  0 
 16 17  1  0  0  0  0 
 13 18  1  0  0  0  0 
 18 19  2  0  0  0  0 
 10 19  1  0  0  0  0 
  6 20  1  0  0  0  0 
 20 21  2  0  0  0  0 
  1 21  1  0  0  0  0 
 21 22  1  0  0  0  0 
 20 23  1  0  0  0  0 
  5 24  1  0  0  0  0 
M  END
> <Rank>
1

> <Priority_score>
0.256

> <Reaction_type>
hydrolysis_(primary_amide)

> <Parent_ID>
70

> <Parent_InChI>
InChI=1S/C10H8F2N4O/c11-7-2-1-3-8(12)6(7)4-16-5-9(10(13)17)14-15-16/h1-3,5H,4H2,(H2,13,17)

> <Parent_SMILES>
NC(=O)c1cn(Cc2c(F)cccc2F)nn1

$$$$
Molecule 70_metabolite 3
  CDK     0516241031

 45 47  0  0  0  0  0  0  0  0999 V2000
   -8.8892    4.1120    0.0000 C   0  0  0  0  0  0  0  0  0  0  0  0
   -9.6413    5.4098    0.0000 H   0  0  0  0  0  0  0  0  0  0  0  0
   -9.6374    2.8109    0.0000 C   0  0  0  0  0  0  0  0  0  0  0  0
  -11.1374    2.8087    0.0000 H   0  0  0  0  0  0  0  0  0  0  0  0
   -8.8855    1.5120    0.0000 C   0  0  0  0  0  0  0  0  0  0  0  0
   -7.3855    1.5142    0.0000 C   0  0  0  0  0  0  0  0  0  0  0  0
   -6.6334    0.2163    0.0000 C   0  0  0  0  0  0  0  0  0  0  0  0
   -6.3706   -1.2605    0.0000 H   0  0  0  0  0  0  0  0  0  0  0  0
   -8.0421   -0.2990    0.0000 H   0  0  0  0  0  0  0  0  0  0  0  0
   -5.1334    0.2187    0.0000 N   0  0  0  0  0  0  0  0  0  0  0  0
   -4.2582   -0.9904    0.0000 C   0  0  0  0  0  0  0  0  0  0  0  0
   -4.7236   -2.4164    0.0000 H   0  0  0  0  0  0  0  0  0  0  0  0
   -2.8312   -0.5281    0.0000 C   0  0  0  0  0  0  0  0  0  0  0  0
   -1.6180   -1.4103    0.0000 C   0  0  0  0  0  0  0  0  0  0  0  0
   -1.7755   -2.9020    0.0000 O   0  0  0  0  0  0  0  0  0  0  0  0
   -0.2475   -0.8008    0.0000 N   0  0  0  0  0  0  0  0  0  0  0  0
   -0.0900    0.6909    0.0000 H   0  0  0  0  0  0  0  0  0  0  0  0
    0.9657   -1.6830    0.0000 C   0  0  0  0  0  0  0  0  0  0  0  0
   -0.1137   -2.7247    0.0000 H   0  0  0  0  0  0  0  0  0  0  0  0
    1.8042   -2.9268    0.0000 C   0  0  0  0  0  0  0  0  0  0  0  0
    0.4338   -3.5367    0.0000 H   0  0  0  0  0  0  0  0  0  0  0  0
    3.3013   -2.8220    0.0000 C   0  0  0  0  0  0  0  0  0  0  0  0
    3.1444   -4.3137    0.0000 H   0  0  0  0  0  0  0  0  0  0  0  0
    3.9600   -1.4734    0.0000 C   0  0  0  0  0  0  0  0  0  0  0  0
    5.1731   -2.3556    0.0000 H   0  0  0  0  0  0  0  0  0  0  0  0
    3.1215   -0.2296    0.0000 C   0  0  0  0  0  0  0  0  0  0  0  0
    4.4919    0.3803    0.0000 H   0  0  0  0  0  0  0  0  0  0  0  0
    2.7586    1.2258    0.0000 C   0  0  0  0  0  0  0  0  0  0  0  0
    1.3168    1.6393    0.0000 O   0  0  0  0  0  0  0  0  0  0  0  0
    3.8377    2.2678    0.0000 O   0  0  0  0  0  0  0  0  0  0  0  0
    5.2796    1.8543    0.0000 H   0  0  0  0  0  0  0  0  0  0  0  0
    1.6243   -0.3345    0.0000 O   0  0  0  0  0  0  0  0  0  0  0  0
    5.0394   -0.4318    0.0000 O   0  0  0  0  0  0  0  0  0  0  0  0
    6.4811   -0.8457    0.0000 H   0  0  0  0  0  0  0  0  0  0  0  0
    4.7431   -3.2359    0.0000 O   0  0  0  0  0  0  0  0  0  0  0  0
    5.1055   -4.6915    0.0000 H   0  0  0  0  0  0  0  0  0  0  0  0
    2.1670   -4.3822    0.0000 O   0  0  0  0  0  0  0  0  0  0  0  0
    1.0880   -5.4242    0.0000 H   0  0  0  0  0  0  0  0  0  0  0  0
   -2.8312    0.9645    0.0000 N   0  0  0  0  0  0  0  0  0  0  0  0
   -4.2566    1.4383    0.0000 N   0  0  0  0  0  0  0  0  0  0  0  0
   -6.6374    2.8152    0.0000 C   0  0  0  0  0  0  0  0  0  0  0  0
   -7.3892    4.1142    0.0000 C   0  0  0  0  0  0  0  0  0  0  0  0
   -6.6409    5.4142    0.0000 H   0  0  0  0  0  0  0  0  0  0  0  0
   -5.1374    2.8174    0.0000 F   0  0  0  0  0  0  0  0  0  0  0  0
   -9.6338    0.2120    0.0000 F   0  0  0  0  0  0  0  0  0  0  0  0
  1  2  1  0  0  0  0 
  1  3  2  0  0  0  0 
  3  4  1  0  0  0  0 
  3  5  1  0  0  0  0 
  5  6  2  0  0  0  0 
  6  7  1  0  0  0  0 
  7  8  1  0  0  0  0 
  7  9  1  0  0  0  0 
  7 10  1  0  0  0  0 
 10 11  1  0  0  0  0 
 11 12  1  0  0  0  0 
 11 13  2  0  0  0  0 
 13 14  1  0  0  0  0 
 14 15  2  0  0  0  0 
 14 16  1  0  0  0  0 
 16 17  1  0  0  0  0 
 16 18  1  0  0  0  0 
 18 19  1  0  0  0  0 
 18 20  1  0  0  0  0 
 20 21  1  0  0  0  0 
 20 22  1  0  0  0  0 
 22 23  1  0  0  0  0 
 22 24  1  0  0  0  0 
 24 25  1  0  0  0  0 
 24 26  1  0  0  0  0 
 26 27  1  0  0  0  0 
 26 28  1  0  0  0  0 
 28 29  2  0  0  0  0 
 28 30  1  0  0  0  0 
 30 31  1  0  0  0  0 
 26 32  1  0  0  0  0 
 18 32  1  0  0  0  0 
 24 33  1  0  0  0  0 
 33 34  1  0  0  0  0 
 22 35  1  0  0  0  0 
 35 36  1  0  0  0  0 
 20 37  1  0  0  0  0 
 37 38  1  0  0  0  0 
 13 39  1  0  0  0  0 
 39 40  2  0  0  0  0 
 10 40  1  0  0  0  0 
  6 41  1  0  0  0  0 
 41 42  2  0  0  0  0 
  1 42  1  0  0  0  0 
 42 43  1  0  0  0  0 
 41 44  1  0  0  0  0 
  5 45  1  0  0  0  0 
M  END
> <Rank>
3

> <Priority_score>
0.232

> <Reaction_type>
N-glucuronidation_(aliphatic_NH2)

> <Parent_ID>
70

> <Parent_InChI>
InChI=1S/C10H8F2N4O/c11-7-2-1-3-8(12)6(7)4-16-5-9(10(13)17)14-15-16/h1-3,5H,4H2,(H2,13,17)

> <Parent_SMILES>
NC(=O)c1cn(Cc2c(F)cccc2F)nn1

$$$$
Molecule 70_metabolite 4
  CDK     0516241031

 26 27  0  0  0  0  0  0  0  0999 V2000
   -1.4024    5.4198    0.0000 C   0  0  0  0  0  0  0  0  0  0  0  0
   -1.8619    6.8477    0.0000 H   0  0  0  0  0  0  0  0  0  0  0  0
    0.0647    5.1034    0.0000 C   0  0  0  0  0  0  0  0  0  0  0  0
    0.5252    3.6750    0.0000 C   0  0  0  0  0  0  0  0  0  0  0  0
   -0.4815    2.5629    0.0000 C   0  0  0  0  0  0  0  0  0  0  0  0
   -1.9486    2.8793    0.0000 C   0  0  0  0  0  0  0  0  0  0  0  0
   -2.9552    1.7673    0.0000 H   0  0  0  0  0  0  0  0  0  0  0  0
   -2.4090    4.3078    0.0000 C   0  0  0  0  0  0  0  0  0  0  0  0
   -3.8755    4.6233    0.0000 O   0  0  0  0  0  0  0  0  0  0  0  0
   -4.3355    6.0510    0.0000 H   0  0  0  0  0  0  0  0  0  0  0  0
   -0.0220    1.1350    0.0000 F   0  0  0  0  0  0  0  0  0  0  0  0
    1.9916    3.3595    0.0000 C   0  0  0  0  0  0  0  0  0  0  0  0
    3.4775    3.5645    0.0000 H   0  0  0  0  0  0  0  0  0  0  0  0
    2.0477    4.8584    0.0000 H   0  0  0  0  0  0  0  0  0  0  0  0
    2.4516    1.9317    0.0000 N   0  0  0  0  0  0  0  0  0  0  0  0
    3.8716    1.4717    0.0000 C   0  0  0  0  0  0  0  0  0  0  0  0
    5.0847    2.3539    0.0000 H   0  0  0  0  0  0  0  0  0  0  0  0
    3.8716   -0.0283    0.0000 C   0  0  0  0  0  0  0  0  0  0  0  0
    5.0847   -0.9105    0.0000 C   0  0  0  0  0  0  0  0  0  0  0  0
    6.4553   -0.3010    0.0000 O   0  0  0  0  0  0  0  0  0  0  0  0
    4.9273   -2.4022    0.0000 N   0  0  0  0  0  0  0  0  0  0  0  0
    6.1404   -3.2844    0.0000 H   0  0  0  0  0  0  0  0  0  0  0  0
    3.5567   -3.0117    0.0000 H   0  0  0  0  0  0  0  0  0  0  0  0
    2.4516   -0.4883    0.0000 N   0  0  0  0  0  0  0  0  0  0  0  0
    1.5616    0.7217    0.0000 N   0  0  0  0  0  0  0  0  0  0  0  0
    1.0714    6.2155    0.0000 F   0  0  0  0  0  0  0  0  0  0  0  0
  1  2  1  0  0  0  0 
  1  3  2  0  0  0  0 
  3  4  1  0  0  0  0 
  4  5  2  0  0  0  0 
  5  6  1  0  0  0  0 
  6  7  1  0  0  0  0 
  6  8  2  0  0  0  0 
  1  8  1  0  0  0  0 
  8  9  1  0  0  0  0 
  9 10  1  0  0  0  0 
  5 11  1  0  0  0  0 
  4 12  1  0  0  0  0 
 12 13  1  0  0  0  0 
 12 14  1  0  0  0  0 
 12 15  1  0  0  0  0 
 15 16  1  0  0  0  0 
 16 17  1  0  0  0  0 
 16 18  2  0  0  0  0 
 18 19  1  0  0  0  0 
 19 20  2  0  0  0  0 
 19 21  1  0  0  0  0 
 21 22  1  0  0  0  0 
 21 23  1  0  0  0  0 
 18 24  1  0  0  0  0 
 24 25  2  0  0  0  0 
 15 25  1  0  0  0  0 
  3 26  1  0  0  0  0 
M  END
> <Rank>
4

> <Priority_score>
0.216

> <Reaction_type>
aromatic_hydroxylation_(para_to_carbon)

> <Parent_ID>
70

> <Parent_InChI>
InChI=1S/C10H8F2N4O/c11-7-2-1-3-8(12)6(7)4-16-5-9(10(13)17)14-15-16/h1-3,5H,4H2,(H2,13,17)

> <Parent_SMILES>
NC(=O)c1cn(Cc2c(F)cccc2F)nn1

$$$$
Molecule 70_metabolite 5
  CDK     0516241031

 26 27  0  0  0  0  0  0  0  0999 V2000
   -1.3593    5.4629    0.0000 C   0  0  0  0  0  0  0  0  0  0  0  0
   -1.8188    6.8908    0.0000 H   0  0  0  0  0  0  0  0  0  0  0  0
    0.1078    5.1465    0.0000 C   0  0  0  0  0  0  0  0  0  0  0  0
    0.5682    3.7181    0.0000 C   0  0  0  0  0  0  0  0  0  0  0  0
   -0.4384    2.6060    0.0000 C   0  0  0  0  0  0  0  0  0  0  0  0
   -1.9055    2.9224    0.0000 C   0  0  0  0  0  0  0  0  0  0  0  0
   -2.3660    4.3509    0.0000 C   0  0  0  0  0  0  0  0  0  0  0  0
   -3.8324    4.6664    0.0000 H   0  0  0  0  0  0  0  0  0  0  0  0
   -2.9121    1.8104    0.0000 O   0  0  0  0  0  0  0  0  0  0  0  0
   -4.3785    2.1261    0.0000 H   0  0  0  0  0  0  0  0  0  0  0  0
    0.0211    1.1781    0.0000 F   0  0  0  0  0  0  0  0  0  0  0  0
    2.0347    3.4025    0.0000 C   0  0  0  0  0  0  0  0  0  0  0  0
    3.5206    3.6076    0.0000 H   0  0  0  0  0  0  0  0  0  0  0  0
    2.0908    4.9015    0.0000 H   0  0  0  0  0  0  0  0  0  0  0  0
    2.4947    1.9748    0.0000 N   0  0  0  0  0  0  0  0  0  0  0  0
    3.9147    1.5148    0.0000 C   0  0  0  0  0  0  0  0  0  0  0  0
    5.1278    2.3970    0.0000 H   0  0  0  0  0  0  0  0  0  0  0  0
    3.9147    0.0148    0.0000 C   0  0  0  0  0  0  0  0  0  0  0  0
    5.1278   -0.8674    0.0000 C   0  0  0  0  0  0  0  0  0  0  0  0
    6.4984   -0.2579    0.0000 O   0  0  0  0  0  0  0  0  0  0  0  0
    4.9703   -2.3591    0.0000 N   0  0  0  0  0  0  0  0  0  0  0  0
    6.1835   -3.2413    0.0000 H   0  0  0  0  0  0  0  0  0  0  0  0
    3.5998   -2.9686    0.0000 H   0  0  0  0  0  0  0  0  0  0  0  0
    2.4947   -0.4452    0.0000 N   0  0  0  0  0  0  0  0  0  0  0  0
    1.6047    0.7648    0.0000 N   0  0  0  0  0  0  0  0  0  0  0  0
    1.1144    6.2586    0.0000 F   0  0  0  0  0  0  0  0  0  0  0  0
  1  2  1  0  0  0  0 
  1  3  2  0  0  0  0 
  3  4  1  0  0  0  0 
  4  5  2  0  0  0  0 
  5  6  1  0  0  0  0 
  6  7  2  0  0  0  0 
  1  7  1  0  0  0  0 
  7  8  1  0  0  0  0 
  6  9  1  0  0  0  0 
  9 10  1  0  0  0  0 
  5 11  1  0  0  0  0 
  4 12  1  0  0  0  0 
 12 13  1  0  0  0  0 
 12 14  1  0  0  0  0 
 12 15  1  0  0  0  0 
 15 16  1  0  0  0  0 
 16 17  1  0  0  0  0 
 16 18  2  0  0  0  0 
 18 19  1  0  0  0  0 
 19 20  2  0  0  0  0 
 19 21  1  0  0  0  0 
 21 22  1  0  0  0  0 
 21 23  1  0  0  0  0 
 18 24  1  0  0  0  0 
 24 25  2  0  0  0  0 
 15 25  1  0  0  0  0 
  3 26  1  0  0  0  0 
M  END
> <Rank>
4

> <Priority_score>
0.216

> <Reaction_type>
aromatic_hydroxylation_(meta_to_carbon)

> <Parent_ID>
70

> <Parent_InChI>
InChI=1S/C10H8F2N4O/c11-7-2-1-3-8(12)6(7)4-16-5-9(10(13)17)14-15-16/h1-3,5H,4H2,(H2,13,17)

> <Parent_SMILES>
NC(=O)c1cn(Cc2c(F)cccc2F)nn1

$$$$
Molecule 70_metabolite 6
  CDK     0516241031

 26 27  0  0  0  0  0  0  0  0999 V2000
    4.7580   -0.9725    0.0000 C   0  0  0  0  0  0  0  0  0  0  0  0
    6.2244   -1.2881    0.0000 H   0  0  0  0  0  0  0  0  0  0  0  0
    3.7508   -2.0852    0.0000 C   0  0  0  0  0  0  0  0  0  0  0  0
    4.2110   -3.5129    0.0000 H   0  0  0  0  0  0  0  0  0  0  0  0
    2.2834   -1.7702    0.0000 C   0  0  0  0  0  0  0  0  0  0  0  0
    1.8232   -0.3426    0.0000 C   0  0  0  0  0  0  0  0  0  0  0  0
    0.3567   -0.0271    0.0000 C   0  0  0  0  0  0  0  0  0  0  0  0
   -1.1292   -0.2321    0.0000 H   0  0  0  0  0  0  0  0  0  0  0  0
    0.3006   -1.5260    0.0000 H   0  0  0  0  0  0  0  0  0  0  0  0
   -0.1033    1.4007    0.0000 N   0  0  0  0  0  0  0  0  0  0  0  0
   -1.5233    1.8607    0.0000 C   0  0  0  0  0  0  0  0  0  0  0  0
   -1.5233    3.3607    0.0000 C   0  0  0  0  0  0  0  0  0  0  0  0
   -2.7364    4.2429    0.0000 C   0  0  0  0  0  0  0  0  0  0  0  0
   -4.1070    3.6334    0.0000 O   0  0  0  0  0  0  0  0  0  0  0  0
   -2.5789    5.7346    0.0000 N   0  0  0  0  0  0  0  0  0  0  0  0
   -3.7921    6.6168    0.0000 H   0  0  0  0  0  0  0  0  0  0  0  0
   -1.2084    6.3441    0.0000 H   0  0  0  0  0  0  0  0  0  0  0  0
   -0.1033    3.8207    0.0000 N   0  0  0  0  0  0  0  0  0  0  0  0
    0.7867    2.6107    0.0000 N   0  0  0  0  0  0  0  0  0  0  0  0
   -2.7364    0.9785    0.0000 O   0  0  0  0  0  0  0  0  0  0  0  0
   -4.1070    1.5880    0.0000 H   0  0  0  0  0  0  0  0  0  0  0  0
    2.8304    0.7701    0.0000 C   0  0  0  0  0  0  0  0  0  0  0  0
    4.2978    0.4551    0.0000 C   0  0  0  0  0  0  0  0  0  0  0  0
    5.3039    1.5676    0.0000 H   0  0  0  0  0  0  0  0  0  0  0  0
    2.3702    2.1978    0.0000 F   0  0  0  0  0  0  0  0  0  0  0  0
    1.2772   -2.8828    0.0000 F   0  0  0  0  0  0  0  0  0  0  0  0
  1  2  1  0  0  0  0 
  1  3  2  0  0  0  0 
  3  4  1  0  0  0  0 
  3  5  1  0  0  0  0 
  5  6  2  0  0  0  0 
  6  7  1  0  0  0  0 
  7  8  1  0  0  0  0 
  7  9  1  0  0  0  0 
  7 10  1  0  0  0  0 
 10 11  1  0  0  0  0 
 11 12  2  0  0  0  0 
 12 13  1  0  0  0  0 
 13 14  2  0  0  0  0 
 13 15  1  0  0  0  0 
 15 16  1  0  0  0  0 
 15 17  1  0  0  0  0 
 12 18  1  0  0  0  0 
 18 19  2  0  0  0  0 
 10 19  1  0  0  0  0 
 11 20  1  0  0  0  0 
 20 21  1  0  0  0  0 
  6 22  1  0  0  0  0 
 22 23  2  0  0  0  0 
  1 23  1  0  0  0  0 
 23 24  1  0  0  0  0 
 22 25  1  0  0  0  0 
  5 26  1  0  0  0  0 
M  END
> <Rank>
6

> <Priority_score>
0.16

> <Reaction_type>
aromatic hydroxylation

> <Parent_ID>
70

> <Parent_InChI>
InChI=1S/C10H8F2N4O/c11-7-2-1-3-8(12)6(7)4-16-5-9(10(13)17)14-15-16/h1-3,5H,4H2,(H2,13,17)

> <Parent_SMILES>
NC(=O)c1cn(Cc2c(F)cccc2F)nn1

$$$$
Molecule 70_metabolite 7
  CDK     0516241031

 26 27  0  0  0  0  0  0  0  0999 V2000
    6.6235   -0.0196    0.0000 C   0  0  0  0  0  0  0  0  0  0  0  0
    8.1155    0.1352    0.0000 H   0  0  0  0  0  0  0  0  0  0  0  0
    6.0110   -1.3897    0.0000 C   0  0  0  0  0  0  0  0  0  0  0  0
    6.8912   -2.6043    0.0000 H   0  0  0  0  0  0  0  0  0  0  0  0
    4.5182   -1.5453    0.0000 C   0  0  0  0  0  0  0  0  0  0  0  0
    3.6380   -0.3307    0.0000 C   0  0  0  0  0  0  0  0  0  0  0  0
    2.1460   -0.4855    0.0000 C   0  0  0  0  0  0  0  0  0  0  0  0
    0.7970   -1.1412    0.0000 H   0  0  0  0  0  0  0  0  0  0  0  0
    2.5575   -1.9279    0.0000 H   0  0  0  0  0  0  0  0  0  0  0  0
    1.2660    0.7293    0.0000 N   0  0  0  0  0  0  0  0  0  0  0  0
    0.1576   -0.2705    0.0000 C   0  0  0  0  0  0  0  0  0  0  0  0
    0.3151   -1.7622    0.0000 H   0  0  0  0  0  0  0  0  0  0  0  0
   -1.1414    0.4795    0.0000 C   0  0  0  0  0  0  0  0  0  0  0  0
   -2.5120   -0.1300    0.0000 C   0  0  0  0  0  0  0  0  0  0  0  0
   -2.6694   -1.6217    0.0000 O   0  0  0  0  0  0  0  0  0  0  0  0
   -3.7251    0.7522    0.0000 N   0  0  0  0  0  0  0  0  0  0  0  0
   -5.0957    0.1427    0.0000 H   0  0  0  0  0  0  0  0  0  0  0  0
   -3.5677    2.2439    0.0000 H   0  0  0  0  0  0  0  0  0  0  0  0
   -0.8298    1.9393    0.0000 N   0  0  0  0  0  0  0  0  0  0  0  0
    0.6631    2.1050    0.0000 N   0  0  0  0  0  0  0  0  0  0  0  0
    2.5678    1.4746    0.0000 O   0  0  0  0  0  0  0  0  0  0  0  0
    4.2506    1.0395    0.0000 C   0  0  0  0  0  0  0  0  0  0  0  0
    5.7433    1.1950    0.0000 C   0  0  0  0  0  0  0  0  0  0  0  0
    6.3549    2.5647    0.0000 H   0  0  0  0  0  0  0  0  0  0  0  0
    3.3704    2.2540    0.0000 F   0  0  0  0  0  0  0  0  0  0  0  0
    3.9067   -2.9150    0.0000 F   0  0  0  0  0  0  0  0  0  0  0  0
  1  2  1  0  0  0  0 
  1  3  2  0  0  0  0 
  3  4  1  0  0  0  0 
  3  5  1  0  0  0  0 
  5  6  2  0  0  0  0 
  6  7  1  0  0  0  0 
  7  8  1  0  0  0  0 
  7  9  1  0  0  0  0 
  7 10  1  0  0  0  0 
 10 11  1  0  0  0  0 
 11 12  1  0  0  0  0 
 11 13  2  0  0  0  0 
 13 14  1  0  0  0  0 
 14 15  2  0  0  0  0 
 14 16  1  0  0  0  0 
 16 17  1  0  0  0  0 
 16 18  1  0  0  0  0 
 13 19  1  0  0  0  0 
 19 20  2  0  0  0  0 
 10 20  1  0  0  0  0 
 10 21  1  0  0  0  0 
  6 22  1  0  0  0  0 
 22 23  2  0  0  0  0 
  1 23  1  0  0  0  0 
 23 24  1  0  0  0  0 
 22 25  1  0  0  0  0 
  5 26  1  0  0  0  0 
M  CHG  1  10   1
M  CHG  1  21  -1
M  END
> <Rank>
6

> <Priority_score>
0.16

> <Reaction_type>
N-oxidation

> <Parent_ID>
70

> <Parent_InChI>
InChI=1S/C10H8F2N4O/c11-7-2-1-3-8(12)6(7)4-16-5-9(10(13)17)14-15-16/h1-3,5H,4H2,(H2,13,17)

> <Parent_SMILES>
NC(=O)c1cn(Cc2c(F)cccc2F)nn1

$$$$
Molecule 70_metabolite 8
  CDK     0516241031

 14 14  0  0  0  0  0  0  0  0999 V2000
   -1.3000    0.7500    0.0000 C   0  0  0  0  0  0  0  0  0  0  0  0
   -2.5989    1.5002    0.0000 H   0  0  0  0  0  0  0  0  0  0  0  0
    0.0000    1.5000    0.0000 C   0  0  0  0  0  0  0  0  0  0  0  0
    0.0000    3.0000    0.0000 H   0  0  0  0  0  0  0  0  0  0  0  0
    1.3000    0.7500    0.0000 C   0  0  0  0  0  0  0  0  0  0  0  0
    1.3000   -0.7500    0.0000 C   0  0  0  0  0  0  0  0  0  0  0  0
    2.5989   -1.5002    0.0000 C   0  0  0  0  0  0  0  0  0  0  0  0
    3.8981   -0.7504    0.0000 H   0  0  0  0  0  0  0  0  0  0  0  0
    2.5987   -3.0002    0.0000 O   0  0  0  0  0  0  0  0  0  0  0  0
    0.0000   -1.5000    0.0000 C   0  0  0  0  0  0  0  0  0  0  0  0
   -1.3000   -0.7500    0.0000 C   0  0  0  0  0  0  0  0  0  0  0  0
   -2.5989   -1.5002    0.0000 H   0  0  0  0  0  0  0  0  0  0  0  0
   -0.0000   -3.0000    0.0000 F   0  0  0  0  0  0  0  0  0  0  0  0
    2.5989    1.5002    0.0000 F   0  0  0  0  0  0  0  0  0  0  0  0
  1  2  1  0  0  0  0 
  1  3  2  0  0  0  0 
  3  4  1  0  0  0  0 
  3  5  1  0  0  0  0 
  5  6  2  0  0  0  0 
  6  7  1  0  0  0  0 
  7  8  1  0  0  0  0 
  7  9  2  0  0  0  0 
  6 10  1  0  0  0  0 
 10 11  2  0  0  0  0 
  1 11  1  0  0  0  0 
 11 12  1  0  0  0  0 
 10 13  1  0  0  0  0 
  5 14  1  0  0  0  0 
M  END
> <Rank>
8

> <Priority_score>
0.128

> <Reaction_type>
N-dealkylation

> <Parent_ID>
70

> <Parent_InChI>
InChI=1S/C10H8F2N4O/c11-7-2-1-3-8(12)6(7)4-16-5-9(10(13)17)14-15-16/h1-3,5H,4H2,(H2,13,17)

> <Parent_SMILES>
NC(=O)c1cn(Cc2c(F)cccc2F)nn1

$$$$
Molecule 70_metabolite 9
  CDK     0516241031

 16 16  0  0  0  0  0  0  0  0999 V2000
    3.8981   -0.7500    0.0000 C   0  0  0  0  0  0  0  0  0  0  0  0
    5.1970   -1.5002    0.0000 H   0  0  0  0  0  0  0  0  0  0  0  0
    2.5981   -1.5000    0.0000 C   0  0  0  0  0  0  0  0  0  0  0  0
    2.5981   -3.0000    0.0000 H   0  0  0  0  0  0  0  0  0  0  0  0
    1.2981   -0.7500    0.0000 C   0  0  0  0  0  0  0  0  0  0  0  0
    1.2981    0.7500    0.0000 C   0  0  0  0  0  0  0  0  0  0  0  0
   -0.0008    1.5002    0.0000 C   0  0  0  0  0  0  0  0  0  0  0  0
    0.9635    2.6491    0.0000 H   0  0  0  0  0  0  0  0  0  0  0  0
   -0.9648    2.6494    0.0000 H   0  0  0  0  0  0  0  0  0  0  0  0
   -1.3000    0.7504    0.0000 O   0  0  0  0  0  0  0  0  0  0  0  0
   -2.5989    1.5006    0.0000 H   0  0  0  0  0  0  0  0  0  0  0  0
    2.5981    1.5000    0.0000 C   0  0  0  0  0  0  0  0  0  0  0  0
    3.8981    0.7500    0.0000 C   0  0  0  0  0  0  0  0  0  0  0  0
    5.1970    1.5002    0.0000 H   0  0  0  0  0  0  0  0  0  0  0  0
    2.5981    3.0000    0.0000 F   0  0  0  0  0  0  0  0  0  0  0  0
   -0.0008   -1.5002    0.0000 F   0  0  0  0  0  0  0  0  0  0  0  0
  1  2  1  0  0  0  0 
  1  3  2  0  0  0  0 
  3  4  1  0  0  0  0 
  3  5  1  0  0  0  0 
  5  6  2  0  0  0  0 
  6  7  1  0  0  0  0 
  7  8  1  0  0  0  0 
  7  9  1  0  0  0  0 
  7 10  1  0  0  0  0 
 10 11  1  0  0  0  0 
  6 12  1  0  0  0  0 
 12 13  2  0  0  0  0 
  1 13  1  0  0  0  0 
 13 14  1  0  0  0  0 
 12 15  1  0  0  0  0 
  5 16  1  0  0  0  0 
M  END
> <Rank>
8

> <Priority_score>
0.128

> <Reaction_type>
N-dealkylation_(nCH2)

> <Parent_ID>
70

> <Parent_InChI>
InChI=1S/C10H8F2N4O/c11-7-2-1-3-8(12)6(7)4-16-5-9(10(13)17)14-15-16/h1-3,5H,4H2,(H2,13,17)

> <Parent_SMILES>
NC(=O)c1cn(Cc2c(F)cccc2F)nn1

$$$$
Molecule 70_metabolite 10
  CDK     0516241031

 26 27  0  0  0  0  0  0  0  0999 V2000
   -3.4072    1.8886    0.0000 C   0  0  0  0  0  0  0  0  0  0  0  0
   -4.8349    1.4287    0.0000 H   0  0  0  0  0  0  0  0  0  0  0  0
   -3.0913    3.3558    0.0000 C   0  0  0  0  0  0  0  0  0  0  0  0
   -4.2036    4.3621    0.0000 H   0  0  0  0  0  0  0  0  0  0  0  0
   -1.6630    3.8168    0.0000 C   0  0  0  0  0  0  0  0  0  0  0  0
   -0.5506    2.8105    0.0000 C   0  0  0  0  0  0  0  0  0  0  0  0
   -0.8665    1.3433    0.0000 C   0  0  0  0  0  0  0  0  0  0  0  0
   -2.2948    0.8824    0.0000 C   0  0  0  0  0  0  0  0  0  0  0  0
   -2.6099   -0.5842    0.0000 H   0  0  0  0  0  0  0  0  0  0  0  0
    0.2459    0.3370    0.0000 F   0  0  0  0  0  0  0  0  0  0  0  0
    0.8771    3.2704    0.0000 C   0  0  0  0  0  0  0  0  0  0  0  0
    2.0615    4.1910    0.0000 H   0  0  0  0  0  0  0  0  0  0  0  0
    1.9894    2.2640    0.0000 N   0  0  0  0  0  0  0  0  0  0  0  0
    3.4491    2.5756    0.0000 C   0  0  0  0  0  0  0  0  0  0  0  0
    4.0586    3.9462    0.0000 H   0  0  0  0  0  0  0  0  0  0  0  0
    4.1991    1.2766    0.0000 C   0  0  0  0  0  0  0  0  0  0  0  0
    5.6908    1.1191    0.0000 C   0  0  0  0  0  0  0  0  0  0  0  0
    6.5730    2.3323    0.0000 O   0  0  0  0  0  0  0  0  0  0  0  0
    6.3003   -0.2515    0.0000 N   0  0  0  0  0  0  0  0  0  0  0  0
    7.7920   -0.4089    0.0000 H   0  0  0  0  0  0  0  0  0  0  0  0
    5.4181   -1.4646    0.0000 H   0  0  0  0  0  0  0  0  0  0  0  0
    3.1994    0.1682    0.0000 N   0  0  0  0  0  0  0  0  0  0  0  0
    1.8236    0.7711    0.0000 N   0  0  0  0  0  0  0  0  0  0  0  0
    0.1762    4.5966    0.0000 O   0  0  0  0  0  0  0  0  0  0  0  0
    0.9743    5.8667    0.0000 H   0  0  0  0  0  0  0  0  0  0  0  0
   -1.3479    5.2833    0.0000 F   0  0  0  0  0  0  0  0  0  0  0  0
  1  2  1  0  0  0  0 
  1  3  2  0  0  0  0 
  3  4  1  0  0  0  0 
  3  5  1  0  0  0  0 
  5  6  2  0  0  0  0 
  6  7  1  0  0  0  0 
  7  8  2  0  0  0  0 
  1  8  1  0  0  0  0 
  8  9  1  0  0  0  0 
  7 10  1  0  0  0  0 
  6 11  1  0  0  0  0 
 11 12  1  0  0  0  0 
 11 13  1  0  0  0  0 
 13 14  1  0  0  0  0 
 14 15  1  0  0  0  0 
 14 16  2  0  0  0  0 
 16 17  1  0  0  0  0 
 17 18  2  0  0  0  0 
 17 19  1  0  0  0  0 
 19 20  1  0  0  0  0 
 19 21  1  0  0  0  0 
 16 22  1  0  0  0  0 
 22 23  2  0  0  0  0 
 13 23  1  0  0  0  0 
 11 24  1  0  0  0  0 
 24 25  1  0  0  0  0 
  5 26  1  0  0  0  0 
M  END
> <Rank>
8

> <Priority_score>
0.128

> <Reaction_type>
aliphatic hydroxylation

> <Parent_ID>
70

> <Parent_InChI>
InChI=1S/C10H8F2N4O/c11-7-2-1-3-8(12)6(7)4-16-5-9(10(13)17)14-15-16/h1-3,5H,4H2,(H2,13,17)

> <Parent_SMILES>
NC(=O)c1cn(Cc2c(F)cccc2F)nn1

$$$$
Molecule 70_metabolite 11
  CDK     0516241031

 12 12  0  0  0  0  0  0  0  0999 V2000
   -0.6263   -1.7654    0.0000 C   0  0  0  0  0  0  0  0  0  0  0  0
   -0.7837   -3.2572    0.0000 H   0  0  0  0  0  0  0  0  0  0  0  0
    0.6728   -1.0154    0.0000 C   0  0  0  0  0  0  0  0  0  0  0  0
    2.0433   -1.6249    0.0000 C   0  0  0  0  0  0  0  0  0  0  0  0
    2.2008   -3.1167    0.0000 O   0  0  0  0  0  0  0  0  0  0  0  0
    3.2565   -0.7427    0.0000 N   0  0  0  0  0  0  0  0  0  0  0  0
    4.6271   -1.3522    0.0000 H   0  0  0  0  0  0  0  0  0  0  0  0
    3.0990    0.7490    0.0000 H   0  0  0  0  0  0  0  0  0  0  0  0
    0.3611    0.4443    0.0000 N   0  0  0  0  0  0  0  0  0  0  0  0
   -1.1318    0.6101    0.0000 N   0  0  0  0  0  0  0  0  0  0  0  0
   -1.7347   -0.7657    0.0000 N   0  0  0  0  0  0  0  0  0  0  0  0
   -3.2011   -1.0812    0.0000 H   0  0  0  0  0  0  0  0  0  0  0  0
  1  2  1  0  0  0  0 
  1  3  2  0  0  0  0 
  3  4  1  0  0  0  0 
  4  5  2  0  0  0  0 
  4  6  1  0  0  0  0 
  6  7  1  0  0  0  0 
  6  8  1  0  0  0  0 
  3  9  1  0  0  0  0 
  9 10  2  0  0  0  0 
 10 11  1  0  0  0  0 
  1 11  1  0  0  0  0 
 11 12  1  0  0  0  0 
M  END
> <Rank>
8

> <Priority_score>
0.128

> <Reaction_type>
N-dealkylation_(nCH2)

> <Parent_ID>
70

> <Parent_InChI>
InChI=1S/C10H8F2N4O/c11-7-2-1-3-8(12)6(7)4-16-5-9(10(13)17)14-15-16/h1-3,5H,4H2,(H2,13,17)

> <Parent_SMILES>
NC(=O)c1cn(Cc2c(F)cccc2F)nn1

$$$$
Molecule 70_metabolite 12
  CDK     0516241031

 46 48  0  0  0  0  0  0  0  0999 V2000
    2.0565   -4.6006    0.0000 C   0  0  0  0  0  0  0  0  0  0  0  0
    2.2245   -6.0912    0.0000 H   0  0  0  0  0  0  0  0  0  0  0  0
    3.2640   -3.7092    0.0000 C   0  0  0  0  0  0  0  0  0  0  0  0
    4.6387   -4.3093    0.0000 H   0  0  0  0  0  0  0  0  0  0  0  0
    3.0967   -2.2177    0.0000 C   0  0  0  0  0  0  0  0  0  0  0  0
    1.7219   -1.6176    0.0000 C   0  0  0  0  0  0  0  0  0  0  0  0
    1.5540   -0.1271    0.0000 C   0  0  0  0  0  0  0  0  0  0  0  0
    1.9060    1.3311    0.0000 H   0  0  0  0  0  0  0  0  0  0  0  0
    3.0511   -0.2205    0.0000 H   0  0  0  0  0  0  0  0  0  0  0  0
    0.1792    0.4728    0.0000 N   0  0  0  0  0  0  0  0  0  0  0  0
   -0.1372    1.9315    0.0000 C   0  0  0  0  0  0  0  0  0  0  0  0
    0.8615    3.0508    0.0000 H   0  0  0  0  0  0  0  0  0  0  0  0
   -1.6297    2.0809    0.0000 C   0  0  0  0  0  0  0  0  0  0  0  0
   -2.3867    3.3759    0.0000 C   0  0  0  0  0  0  0  0  0  0  0  0
   -3.8867    3.3677    0.0000 O   0  0  0  0  0  0  0  0  0  0  0  0
   -1.6438    4.6789    0.0000 N   0  0  0  0  0  0  0  0  0  0  0  0
   -2.4008    5.9739    0.0000 H   0  0  0  0  0  0  0  0  0  0  0  0
   -0.1438    4.6871    0.0000 H   0  0  0  0  0  0  0  0  0  0  0  0
   -2.2288    0.7138    0.0000 N   0  0  0  0  0  0  0  0  0  0  0  0
   -1.1134   -0.2923    0.0000 N   0  0  0  0  0  0  0  0  0  0  0  0
   -4.1645    0.2973    0.0000 C   0  0  0  0  0  0  0  0  0  0  0  0
   -4.2207    1.7962    0.0000 H   0  0  0  0  0  0  0  0  0  0  0  0
   -5.6505    0.5020    0.0000 C   0  0  0  0  0  0  0  0  0  0  0  0
   -5.1910    1.9299    0.0000 H   0  0  0  0  0  0  0  0  0  0  0  0
   -6.5709   -0.6834    0.0000 C   0  0  0  0  0  0  0  0  0  0  0  0
   -7.5777    0.4285    0.0000 H   0  0  0  0  0  0  0  0  0  0  0  0
   -6.0054   -2.0736    0.0000 C   0  0  0  0  0  0  0  0  0  0  0  0
   -7.4718   -2.3892    0.0000 H   0  0  0  0  0  0  0  0  0  0  0  0
   -4.5194   -2.2784    0.0000 C   0  0  0  0  0  0  0  0  0  0  0  0
   -4.9789   -3.7063    0.0000 H   0  0  0  0  0  0  0  0  0  0  0  0
   -3.1929   -2.9787    0.0000 C   0  0  0  0  0  0  0  0  0  0  0  0
   -1.9232   -2.1801    0.0000 O   0  0  0  0  0  0  0  0  0  0  0  0
   -3.1362   -4.4777    0.0000 O   0  0  0  0  0  0  0  0  0  0  0  0
   -4.4060   -5.2762    0.0000 H   0  0  0  0  0  0  0  0  0  0  0  0
   -3.5990   -1.0929    0.0000 O   0  0  0  0  0  0  0  0  0  0  0  0
   -5.9491   -3.5726    0.0000 O   0  0  0  0  0  0  0  0  0  0  0  0
   -7.2191   -4.3708    0.0000 H   0  0  0  0  0  0  0  0  0  0  0  0
   -7.8409   -1.4816    0.0000 O   0  0  0  0  0  0  0  0  0  0  0  0
   -9.1671   -0.7808    0.0000 H   0  0  0  0  0  0  0  0  0  0  0  0
   -6.9769    1.2024    0.0000 O   0  0  0  0  0  0  0  0  0  0  0  0
   -7.0337    2.7013    0.0000 H   0  0  0  0  0  0  0  0  0  0  0  0
    0.5145   -2.5090    0.0000 C   0  0  0  0  0  0  0  0  0  0  0  0
    0.6818   -4.0005    0.0000 C   0  0  0  0  0  0  0  0  0  0  0  0
   -0.5254   -4.8908    0.0000 H   0  0  0  0  0  0  0  0  0  0  0  0
   -0.8602   -1.9090    0.0000 F   0  0  0  0  0  0  0  0  0  0  0  0
    4.3039   -1.3274    0.0000 F   0  0  0  0  0  0  0  0  0  0  0  0
  1  2  1  0  0  0  0 
  1  3  2  0  0  0  0 
  3  4  1  0  0  0  0 
  3  5  1  0  0  0  0 
  5  6  2  0  0  0  0 
  6  7  1  0  0  0  0 
  7  8  1  0  0  0  0 
  7  9  1  0  0  0  0 
  7 10  1  0  0  0  0 
 10 11  1  0  0  0  0 
 11 12  1  0  0  0  0 
 11 13  2  0  0  0  0 
 13 14  1  0  0  0  0 
 14 15  2  0  0  0  0 
 14 16  1  0  0  0  0 
 16 17  1  0  0  0  0 
 16 18  1  0  0  0  0 
 13 19  1  0  0  0  0 
 19 20  2  0  0  0  0 
 10 20  1  0  0  0  0 
 19 21  1  0  0  0  0 
 21 22  1  0  0  0  0 
 21 23  1  0  0  0  0 
 23 24  1  0  0  0  0 
 23 25  1  0  0  0  0 
 25 26  1  0  0  0  0 
 25 27  1  0  0  0  0 
 27 28  1  0  0  0  0 
 27 29  1  0  0  0  0 
 29 30  1  0  0  0  0 
 29 31  1  0  0  0  0 
 31 32  2  0  0  0  0 
 31 33  1  0  0  0  0 
 33 34  1  0  0  0  0 
 29 35  1  0  0  0  0 
 21 35  1  0  0  0  0 
 27 36  1  0  0  0  0 
 36 37  1  0  0  0  0 
 25 38  1  0  0  0  0 
 38 39  1  0  0  0  0 
 23 40  1  0  0  0  0 
 40 41  1  0  0  0  0 
  6 42  1  0  0  0  0 
 42 43  2  0  0  0  0 
  1 43  1  0  0  0  0 
 43 44  1  0  0  0  0 
 42 45  1  0  0  0  0 
  5 46  1  0  0  0  0 
M  CHG  1  19   1
M  END
> <Rank>
12

> <Priority_score>
0.124

> <Reaction_type>
N-glucuronidation_(aromatic_=n-)

> <Parent_ID>
70

> <Parent_InChI>
InChI=1S/C10H8F2N4O/c11-7-2-1-3-8(12)6(7)4-16-5-9(10(13)17)14-15-16/h1-3,5H,4H2,(H2,13,17)

> <Parent_SMILES>
NC(=O)c1cn(Cc2c(F)cccc2F)nn1

$$$$
Molecule 70_metabolite 13
  CDK     0516241031

 26 27  0  0  0  0  0  0  0  0999 V2000
    5.0946    3.4934    0.0000 C   0  0  0  0  0  0  0  0  0  0  0  0
    6.1011    4.6056    0.0000 H   0  0  0  0  0  0  0  0  0  0  0  0
    5.5546    2.0648    0.0000 C   0  0  0  0  0  0  0  0  0  0  0  0
    7.0211    1.7495    0.0000 H   0  0  0  0  0  0  0  0  0  0  0  0
    4.5481    0.9514    0.0000 C   0  0  0  0  0  0  0  0  0  0  0  0
    3.0817    1.2667    0.0000 C   0  0  0  0  0  0  0  0  0  0  0  0
    2.0752    0.1545    0.0000 C   0  0  0  0  0  0  0  0  0  0  0  0
    1.5098   -1.2349    0.0000 H   0  0  0  0  0  0  0  0  0  0  0  0
    3.3453   -0.6435    0.0000 H   0  0  0  0  0  0  0  0  0  0  0  0
    0.6087    0.4700    0.0000 N   0  0  0  0  0  0  0  0  0  0  0  0
   -0.4996   -0.5297    0.0000 C   0  0  0  0  0  0  0  0  0  0  0  0
   -0.3422   -2.0214    0.0000 H   0  0  0  0  0  0  0  0  0  0  0  0
   -1.7987    0.2203    0.0000 C   0  0  0  0  0  0  0  0  0  0  0  0
   -3.1693   -0.3892    0.0000 C   0  0  0  0  0  0  0  0  0  0  0  0
   -3.3267   -1.8809    0.0000 O   0  0  0  0  0  0  0  0  0  0  0  0
   -4.3824    0.4930    0.0000 N   0  0  0  0  0  0  0  0  0  0  0  0
   -5.7530   -0.1165    0.0000 H   0  0  0  0  0  0  0  0  0  0  0  0
   -4.2249    1.9847    0.0000 H   0  0  0  0  0  0  0  0  0  0  0  0
   -1.4870    1.6800    0.0000 N   0  0  0  0  0  0  0  0  0  0  0  0
    0.0059    1.8458    0.0000 N   0  0  0  0  0  0  0  0  0  0  0  0
   -2.4935    2.7922    0.0000 O   0  0  0  0  0  0  0  0  0  0  0  0
    2.6217    2.6953    0.0000 C   0  0  0  0  0  0  0  0  0  0  0  0
    3.6281    3.8086    0.0000 C   0  0  0  0  0  0  0  0  0  0  0  0
    3.1677    5.2362    0.0000 H   0  0  0  0  0  0  0  0  0  0  0  0
    1.1552    3.0106    0.0000 F   0  0  0  0  0  0  0  0  0  0  0  0
    5.0086   -0.4761    0.0000 F   0  0  0  0  0  0  0  0  0  0  0  0
  1  2  1  0  0  0  0 
  1  3  2  0  0  0  0 
  3  4  1  0  0  0  0 
  3  5  1  0  0  0  0 
  5  6  2  0  0  0  0 
  6  7  1  0  0  0  0 
  7  8  1  0  0  0  0 
  7  9  1  0  0  0  0 
  7 10  1  0  0  0  0 
 10 11  1  0  0  0  0 
 11 12  1  0  0  0  0 
 11 13  2  0  0  0  0 
 13 14  1  0  0  0  0 
 14 15  2  0  0  0  0 
 14 16  1  0  0  0  0 
 16 17  1  0  0  0  0 
 16 18  1  0  0  0  0 
 13 19  1  0  0  0  0 
 19 20  2  0  0  0  0 
 10 20  1  0  0  0  0 
 19 21  1  0  0  0  0 
  6 22  1  0  0  0  0 
 22 23  2  0  0  0  0 
  1 23  1  0  0  0  0 
 23 24  1  0  0  0  0 
 22 25  1  0  0  0  0 
  5 26  1  0  0  0  0 
M  CHG  1  19   1
M  CHG  1  21  -1
M  END
> <Rank>
13

> <Priority_score>
0.08

> <Reaction_type>
N-oxidation

> <Parent_ID>
70

> <Parent_InChI>
InChI=1S/C10H8F2N4O/c11-7-2-1-3-8(12)6(7)4-16-5-9(10(13)17)14-15-16/h1-3,5H,4H2,(H2,13,17)

> <Parent_SMILES>
NC(=O)c1cn(Cc2c(F)cccc2F)nn1

$$$$
Molecule 70_metabolite 14
  CDK     0516241031

 46 48  0  0  0  0  0  0  0  0999 V2000
   -5.5978   -0.3771    0.0000 C   0  0  0  0  0  0  0  0  0  0  0  0
   -7.0255   -0.8371    0.0000 H   0  0  0  0  0  0  0  0  0  0  0  0
   -4.4848   -1.3840    0.0000 C   0  0  0  0  0  0  0  0  0  0  0  0
   -4.8005   -2.8504    0.0000 H   0  0  0  0  0  0  0  0  0  0  0  0
   -3.0560   -0.9244    0.0000 C   0  0  0  0  0  0  0  0  0  0  0  0
   -2.7403    0.5420    0.0000 C   0  0  0  0  0  0  0  0  0  0  0  0
   -1.3125    1.0019    0.0000 C   0  0  0  0  0  0  0  0  0  0  0  0
    0.1864    0.9459    0.0000 H   0  0  0  0  0  0  0  0  0  0  0  0
   -1.1075   -0.4840    0.0000 H   0  0  0  0  0  0  0  0  0  0  0  0
   -0.8960    2.9376    0.0000 N   0  0  0  0  0  0  0  0  0  0  0  0
   -1.8958    4.0460    0.0000 C   0  0  0  0  0  0  0  0  0  0  0  0
   -3.3875    3.8886    0.0000 H   0  0  0  0  0  0  0  0  0  0  0  0
   -1.1458    5.3451    0.0000 C   0  0  0  0  0  0  0  0  0  0  0  0
   -1.7553    6.7156    0.0000 C   0  0  0  0  0  0  0  0  0  0  0  0
   -3.2470    6.8731    0.0000 O   0  0  0  0  0  0  0  0  0  0  0  0
   -0.8731    7.9288    0.0000 N   0  0  0  0  0  0  0  0  0  0  0  0
   -1.4826    9.2994    0.0000 H   0  0  0  0  0  0  0  0  0  0  0  0
    0.6186    7.7713    0.0000 H   0  0  0  0  0  0  0  0  0  0  0  0
    0.3140    5.0334    0.0000 N   0  0  0  0  0  0  0  0  0  0  0  0
    0.4797    3.5405    0.0000 N   0  0  0  0  0  0  0  0  0  0  0  0
    2.1944    2.5505    0.0000 C   0  0  0  0  0  0  0  0  0  0  0  0
    1.2304    1.4014    0.0000 H   0  0  0  0  0  0  0  0  0  0  0  0
    3.1589    1.4017    0.0000 C   0  0  0  0  0  0  0  0  0  0  0  0
    1.8601    0.6513    0.0000 H   0  0  0  0  0  0  0  0  0  0  0  0
    4.6368    1.6631    0.0000 C   0  0  0  0  0  0  0  0  0  0  0  0
    4.6372    0.1631    0.0000 H   0  0  0  0  0  0  0  0  0  0  0  0
    5.1502    3.0733    0.0000 C   0  0  0  0  0  0  0  0  0  0  0  0
    6.4493    2.3233    0.0000 H   0  0  0  0  0  0  0  0  0  0  0  0
    4.1858    4.2222    0.0000 C   0  0  0  0  0  0  0  0  0  0  0  0
    5.4846    4.9726    0.0000 H   0  0  0  0  0  0  0  0  0  0  0  0
    3.6722    5.6315    0.0000 C   0  0  0  0  0  0  0  0  0  0  0  0
    2.1949    5.8914    0.0000 O   0  0  0  0  0  0  0  0  0  0  0  0
    4.6359    6.7810    0.0000 O   0  0  0  0  0  0  0  0  0  0  0  0
    4.1222    8.1903    0.0000 H   0  0  0  0  0  0  0  0  0  0  0  0
    2.7079    3.9608    0.0000 O   0  0  0  0  0  0  0  0  0  0  0  0
    6.1143    4.2225    0.0000 O   0  0  0  0  0  0  0  0  0  0  0  0
    7.5915    3.9622    0.0000 H   0  0  0  0  0  0  0  0  0  0  0  0
    6.1140    1.4028    0.0000 O   0  0  0  0  0  0  0  0  0  0  0  0
    6.6272   -0.0067    0.0000 H   0  0  0  0  0  0  0  0  0  0  0  0
    3.6725   -0.0076    0.0000 O   0  0  0  0  0  0  0  0  0  0  0  0
    2.7088   -1.1571    0.0000 H   0  0  0  0  0  0  0  0  0  0  0  0
   -3.8533    1.5488    0.0000 C   0  0  0  0  0  0  0  0  0  0  0  0
   -5.2820    1.0893    0.0000 C   0  0  0  0  0  0  0  0  0  0  0  0
   -6.3939    2.0961    0.0000 H   0  0  0  0  0  0  0  0  0  0  0  0
   -3.5375    3.0152    0.0000 F   0  0  0  0  0  0  0  0  0  0  0  0
   -1.9441   -1.9312    0.0000 F   0  0  0  0  0  0  0  0  0  0  0  0
  1  2  1  0  0  0  0 
  1  3  2  0  0  0  0 
  3  4  1  0  0  0  0 
  3  5  1  0  0  0  0 
  5  6  2  0  0  0  0 
  6  7  1  0  0  0  0 
  7  8  1  0  0  0  0 
  7  9  1  0  0  0  0 
  7 10  1  0  0  0  0 
 10 11  1  0  0  0  0 
 11 12  1  0  0  0  0 
 11 13  2  0  0  0  0 
 13 14  1  0  0  0  0 
 14 15  2  0  0  0  0 
 14 16  1  0  0  0  0 
 16 17  1  0  0  0  0 
 16 18  1  0  0  0  0 
 13 19  1  0  0  0  0 
 19 20  2  0  0  0  0 
 10 20  1  0  0  0  0 
 20 21  1  0  0  0  0 
 21 22  1  0  0  0  0 
 21 23  1  0  0  0  0 
 23 24  1  0  0  0  0 
 23 25  1  0  0  0  0 
 25 26  1  0  0  0  0 
 25 27  1  0  0  0  0 
 27 28  1  0  0  0  0 
 27 29  1  0  0  0  0 
 29 30  1  0  0  0  0 
 29 31  1  0  0  0  0 
 31 32  2  0  0  0  0 
 31 33  1  0  0  0  0 
 33 34  1  0  0  0  0 
 29 35  1  0  0  0  0 
 21 35  1  0  0  0  0 
 27 36  1  0  0  0  0 
 36 37  1  0  0  0  0 
 25 38  1  0  0  0  0 
 38 39  1  0  0  0  0 
 23 40  1  0  0  0  0 
 40 41  1  0  0  0  0 
  6 42  1  0  0  0  0 
 42 43  2  0  0  0  0 
  1 43  1  0  0  0  0 
 43 44  1  0  0  0  0 
 42 45  1  0  0  0  0 
  5 46  1  0  0  0  0 
M  CHG  1  20   1
M  END
> <Rank>
14

> <Priority_score>
0.05591646749990205

> <Reaction_type>
N-glucuronidation_(aromatic_=n-)

> <Parent_ID>
70

> <Parent_InChI>
InChI=1S/C10H8F2N4O/c11-7-2-1-3-8(12)6(7)4-16-5-9(10(13)17)14-15-16/h1-3,5H,4H2,(H2,13,17)

> <Parent_SMILES>
NC(=O)c1cn(Cc2c(F)cccc2F)nn1

$$$$
Molecule 70_metabolite 15
  CDK     0516241031

 26 27  0  0  0  0  0  0  0  0999 V2000
   -0.6683   -2.1473    0.0000 C   0  0  0  0  0  0  0  0  0  0  0  0
   -0.9839   -3.6137    0.0000 H   0  0  0  0  0  0  0  0  0  0  0  0
   -1.7810   -1.1401    0.0000 C   0  0  0  0  0  0  0  0  0  0  0  0
   -3.2087   -1.6003    0.0000 H   0  0  0  0  0  0  0  0  0  0  0  0
   -1.4660    0.3273    0.0000 C   0  0  0  0  0  0  0  0  0  0  0  0
   -0.0384    0.7875    0.0000 C   0  0  0  0  0  0  0  0  0  0  0  0
    0.2772    2.2540    0.0000 C   0  0  0  0  0  0  0  0  0  0  0  0
    0.0721    3.7399    0.0000 H   0  0  0  0  0  0  0  0  0  0  0  0
   -1.2218    2.3101    0.0000 H   0  0  0  0  0  0  0  0  0  0  0  0
    1.7049    2.7139    0.0000 N   0  0  0  0  0  0  0  0  0  0  0  0
    2.1649    4.1339    0.0000 C   0  0  0  0  0  0  0  0  0  0  0  0
    1.2827    5.3471    0.0000 H   0  0  0  0  0  0  0  0  0  0  0  0
    3.6649    4.1339    0.0000 C   0  0  0  0  0  0  0  0  0  0  0  0
    4.5471    5.3471    0.0000 C   0  0  0  0  0  0  0  0  0  0  0  0
    3.9376    6.7177    0.0000 O   0  0  0  0  0  0  0  0  0  0  0  0
    6.0388    5.1896    0.0000 N   0  0  0  0  0  0  0  0  0  0  0  0
    6.9210    6.4028    0.0000 H   0  0  0  0  0  0  0  0  0  0  0  0
    6.6483    3.8190    0.0000 H   0  0  0  0  0  0  0  0  0  0  0  0
    4.1249    2.7139    0.0000 N   0  0  0  0  0  0  0  0  0  0  0  0
    2.9149    1.8239    0.0000 N   0  0  0  0  0  0  0  0  0  0  0  0
    1.0743   -0.2197    0.0000 C   0  0  0  0  0  0  0  0  0  0  0  0
    0.7593   -1.6871    0.0000 C   0  0  0  0  0  0  0  0  0  0  0  0
    1.8719   -2.6932    0.0000 H   0  0  0  0  0  0  0  0  0  0  0  0
    2.5020    0.2405    0.0000 F   0  0  0  0  0  0  0  0  0  0  0  0
   -2.5786    1.3334    0.0000 O   0  0  0  0  0  0  0  0  0  0  0  0
   -4.0061    0.8730    0.0000 H   0  0  0  0  0  0  0  0  0  0  0  0
  1  2  1  0  0  0  0 
  1  3  2  0  0  0  0 
  3  4  1  0  0  0  0 
  3  5  1  0  0  0  0 
  5  6  2  0  0  0  0 
  6  7  1  0  0  0  0 
  7  8  1  0  0  0  0 
  7  9  1  0  0  0  0 
  7 10  1  0  0  0  0 
 10 11  1  0  0  0  0 
 11 12  1  0  0  0  0 
 11 13  2  0  0  0  0 
 13 14  1  0  0  0  0 
 14 15  2  0  0  0  0 
 14 16  1  0  0  0  0 
 16 17  1  0  0  0  0 
 16 18  1  0  0  0  0 
 13 19  1  0  0  0  0 
 19 20  2  0  0  0  0 
 10 20  1  0  0  0  0 
  6 21  1  0  0  0  0 
 21 22  2  0  0  0  0 
  1 22  1  0  0  0  0 
 22 23  1  0  0  0  0 
 21 24  1  0  0  0  0 
  5 25  1  0  0  0  0 
 25 26  1  0  0  0  0 
M  END
> <Rank>
15

> <Priority_score>
0.005600000000000001

> <Reaction_type>
oxidative dehalogenation benzyl

> <Parent_ID>
70

> <Parent_InChI>
InChI=1S/C10H8F2N4O/c11-7-2-1-3-8(12)6(7)4-16-5-9(10(13)17)14-15-16/h1-3,5H,4H2,(H2,13,17)

> <Parent_SMILES>
NC(=O)c1cn(Cc2c(F)cccc2F)nn1

$$$$
Molecule 71
  CDK     0516241031

 11 11  0  0  0  0  0  0  0  0999 V2000
   -2.5992   -2.2500    0.0000 C   0  0  0  0  0  0  0  0  0  0  0  0
   -1.2992   -3.0000    0.0000 N   0  0  0  0  0  0  0  0  0  0  0  0
    0.0008   -2.2500    0.0000 C   0  0  0  0  0  0  0  0  0  0  0  0
    0.0008   -0.7500    0.0000 C   0  0  0  0  0  0  0  0  0  0  0  0
    1.2998    0.0002    0.0000 C   0  0  0  0  0  0  0  0  0  0  0  0
    1.2995    1.5002    0.0000 O   0  0  0  0  0  0  0  0  0  0  0  0
    2.5989   -0.7496    0.0000 N   0  0  0  0  0  0  0  0  0  0  0  0
   -1.2992    0.0000    0.0000 N   0  0  0  0  0  0  0  0  0  0  0  0
   -2.5992   -0.7500    0.0000 C   0  0  0  0  0  0  0  0  0  0  0  0
   -3.8981    0.0002    0.0000 F   0  0  0  0  0  0  0  0  0  0  0  0
    1.2998   -3.0002    0.0000 O   0  0  0  0  0  0  0  0  0  0  0  0
  1  2  2  0  0  0  0 
  2  3  1  0  0  0  0 
  3  4  2  0  0  0  0 
  4  5  1  0  0  0  0 
  5  6  2  0  0  0  0 
  5  7  1  0  0  0  0 
  4  8  1  0  0  0  0 
  8  9  2  0  0  0  0 
  1  9  1  0  0  0  0 
  9 10  1  0  0  0  0 
  3 11  1  0  0  0  0 
M  END
> <SMILES>
NC(=O)c1nc(F)cnc1O

$$$$
Molecule 71_metabolite 1
  CDK     0516241031

 35 36  0  0  0  0  0  0  0  0999 V2000
    0.0942    6.4182    0.0000 C   0  0  0  0  0  0  0  0  0  0  0  0
   -0.6560    7.7171    0.0000 H   0  0  0  0  0  0  0  0  0  0  0  0
   -0.6558    5.1182    0.0000 N   0  0  0  0  0  0  0  0  0  0  0  0
    0.0942    3.8182    0.0000 C   0  0  0  0  0  0  0  0  0  0  0  0
    1.5942    3.8182    0.0000 C   0  0  0  0  0  0  0  0  0  0  0  0
    2.3444    2.5192    0.0000 C   0  0  0  0  0  0  0  0  0  0  0  0
    1.5947    1.2201    0.0000 O   0  0  0  0  0  0  0  0  0  0  0  0
    3.8444    2.5195    0.0000 N   0  0  0  0  0  0  0  0  0  0  0  0
    4.5947    1.2206    0.0000 H   0  0  0  0  0  0  0  0  0  0  0  0
    4.5942    3.8186    0.0000 H   0  0  0  0  0  0  0  0  0  0  0  0
    2.3442    5.1182    0.0000 N   0  0  0  0  0  0  0  0  0  0  0  0
    1.5942    6.4182    0.0000 C   0  0  0  0  0  0  0  0  0  0  0  0
    2.3444    7.7171    0.0000 F   0  0  0  0  0  0  0  0  0  0  0  0
   -0.6560    2.5192    0.0000 O   0  0  0  0  0  0  0  0  0  0  0  0
   -2.1560    2.5195    0.0000 C   0  0  0  0  0  0  0  0  0  0  0  0
   -1.8987    3.9973    0.0000 H   0  0  0  0  0  0  0  0  0  0  0  0
   -1.9008    1.0515    0.0000 C   0  0  0  0  0  0  0  0  0  0  0  0
   -1.1551   -0.2500    0.0000 H   0  0  0  0  0  0  0  0  0  0  0  0
   -3.0712    0.0767    0.0000 C   0  0  0  0  0  0  0  0  0  0  0  0
   -3.8296   -1.2174    0.0000 H   0  0  0  0  0  0  0  0  0  0  0  0
   -4.4822    0.6029    0.0000 C   0  0  0  0  0  0  0  0  0  0  0  0
   -5.9821    0.6093    0.0000 H   0  0  0  0  0  0  0  0  0  0  0  0
   -4.7373    2.0709    0.0000 C   0  0  0  0  0  0  0  0  0  0  0  0
   -5.4838    3.3719    0.0000 H   0  0  0  0  0  0  0  0  0  0  0  0
   -6.5996    1.3985    0.0000 C   0  0  0  0  0  0  0  0  0  0  0  0
   -6.8639   -0.0781    0.0000 O   0  0  0  0  0  0  0  0  0  0  0  0
   -7.7462    2.3656    0.0000 O   0  0  0  0  0  0  0  0  0  0  0  0
   -9.1570    1.8562    0.0000 H   0  0  0  0  0  0  0  0  0  0  0  0
   -3.5849    3.0324    0.0000 O   0  0  0  0  0  0  0  0  0  0  0  0
   -4.7516   -0.8727    0.0000 O   0  0  0  0  0  0  0  0  0  0  0  0
   -6.1642   -1.3772    0.0000 H   0  0  0  0  0  0  0  0  0  0  0  0
   -1.9271   -0.8933    0.0000 O   0  0  0  0  0  0  0  0  0  0  0  0
   -2.1950   -2.3692    0.0000 H   0  0  0  0  0  0  0  0  0  0  0  0
   -0.4898    1.5605    0.0000 O   0  0  0  0  0  0  0  0  0  0  0  0
    0.6565    0.5930    0.0000 H   0  0  0  0  0  0  0  0  0  0  0  0
  1  2  1  0  0  0  0 
  1  3  2  0  0  0  0 
  3  4  1  0  0  0  0 
  4  5  2  0  0  0  0 
  5  6  1  0  0  0  0 
  6  7  2  0  0  0  0 
  6  8  1  0  0  0  0 
  8  9  1  0  0  0  0 
  8 10  1  0  0  0  0 
  5 11  1  0  0  0  0 
 11 12  2  0  0  0  0 
  1 12  1  0  0  0  0 
 12 13  1  0  0  0  0 
  4 14  1  0  0  0  0 
 14 15  1  0  0  0  0 
 15 16  1  0  0  0  0 
 15 17  1  0  0  0  0 
 17 18  1  0  0  0  0 
 17 19  1  0  0  0  0 
 19 20  1  0  0  0  0 
 19 21  1  0  0  0  0 
 21 22  1  0  0  0  0 
 21 23  1  0  0  0  0 
 23 24  1  0  0  0  0 
 23 25  1  0  0  0  0 
 25 26  2  0  0  0  0 
 25 27  1  0  0  0  0 
 27 28  1  0  0  0  0 
 23 29  1  0  0  0  0 
 15 29  1  0  0  0  0 
 21 30  1  0  0  0  0 
 30 31  1  0  0  0  0 
 19 32  1  0  0  0  0 
 32 33  1  0  0  0  0 
 17 34  1  0  0  0  0 
 34 35  1  0  0  0  0 
M  END
> <Rank>
1

> <Priority_score>
0.576

> <Reaction_type>
O-glucuronidation_(aromatic_hydroxyl)

> <Parent_ID>
71

> <Parent_InChI>
InChI=1S/C5H4FN3O2/c6-2-1-8-5(11)3(9-2)4(7)10/h1H,(H2,7,10)(H,8,11)

> <Parent_SMILES>
NC(=O)c1nc(F)cnc1O

$$$$
Molecule 71_metabolite 2
  CDK     0516241031

 19 19  0  0  0  0  0  0  0  0999 V2000
    0.3253    3.1884    0.0000 C   0  0  0  0  0  0  0  0  0  0  0  0
    0.3251    4.6884    0.0000 H   0  0  0  0  0  0  0  0  0  0  0  0
   -0.9742    2.4376    0.0000 N   0  0  0  0  0  0  0  0  0  0  0  0
   -0.9747    0.9367    0.0000 C   0  0  0  0  0  0  0  0  0  0  0  0
    0.3244    0.1867    0.0000 C   0  0  0  0  0  0  0  0  0  0  0  0
    0.3246   -1.3133    0.0000 C   0  0  0  0  0  0  0  0  0  0  0  0
    1.6238   -2.0631    0.0000 O   0  0  0  0  0  0  0  0  0  0  0  0
   -0.9743   -2.0635    0.0000 N   0  0  0  0  0  0  0  0  0  0  0  0
   -0.9741   -3.5635    0.0000 H   0  0  0  0  0  0  0  0  0  0  0  0
   -2.2735   -1.3137    0.0000 H   0  0  0  0  0  0  0  0  0  0  0  0
    1.6239    0.9376    0.0000 N   0  0  0  0  0  0  0  0  0  0  0  0
    1.6244    2.4384    0.0000 C   0  0  0  0  0  0  0  0  0  0  0  0
    2.9235    3.1882    0.0000 F   0  0  0  0  0  0  0  0  0  0  0  0
   -2.2738    0.1869    0.0000 O   0  0  0  0  0  0  0  0  0  0  0  0
   -3.5727    0.9371    0.0000 S   0  0  0  0  0  0  0  0  0  0  0  0
   -2.6084    2.0860    0.0000 O   0  0  0  0  0  0  0  0  0  0  0  0
   -4.5367    2.0864    0.0000 O   0  0  0  0  0  0  0  0  0  0  0  0
   -4.8719    0.1873    0.0000 O   0  0  0  0  0  0  0  0  0  0  0  0
   -6.1708    0.9376    0.0000 H   0  0  0  0  0  0  0  0  0  0  0  0
  1  2  1  0  0  0  0 
  1  3  2  0  0  0  0 
  3  4  1  0  0  0  0 
  4  5  2  0  0  0  0 
  5  6  1  0  0  0  0 
  6  7  2  0  0  0  0 
  6  8  1  0  0  0  0 
  8  9  1  0  0  0  0 
  8 10  1  0  0  0  0 
  5 11  1  0  0  0  0 
 11 12  2  0  0  0  0 
  1 12  1  0  0  0  0 
 12 13  1  0  0  0  0 
  4 14  1  0  0  0  0 
 14 15  1  0  0  0  0 
 15 16  2  0  0  0  0 
 15 17  2  0  0  0  0 
 15 18  1  0  0  0  0 
 18 19  1  0  0  0  0 
M  END
> <Rank>
2

> <Priority_score>
0.568

> <Reaction_type>
sulfation_(aromatic_hydroxyl)

> <Parent_ID>
71

> <Parent_InChI>
InChI=1S/C5H4FN3O2/c6-2-1-8-5(11)3(9-2)4(7)10/h1H,(H2,7,10)(H,8,11)

> <Parent_SMILES>
NC(=O)c1nc(F)cnc1O

$$$$
Molecule 71_metabolite 3
  CDK     0516241031

 18 18  0  0  0  0  0  0  0  0999 V2000
   -1.3000    3.0002    0.0000 C   0  0  0  0  0  0  0  0  0  0  0  0
   -2.5989    3.7504    0.0000 H   0  0  0  0  0  0  0  0  0  0  0  0
   -2.2644    1.8513    0.0000 H   0  0  0  0  0  0  0  0  0  0  0  0
   -0.3360    1.8510    0.0000 H   0  0  0  0  0  0  0  0  0  0  0  0
   -0.0008    3.7500    0.0000 O   0  0  0  0  0  0  0  0  0  0  0  0
    1.2981    2.9998    0.0000 C   0  0  0  0  0  0  0  0  0  0  0  0
    1.2981    1.4998    0.0000 C   0  0  0  0  0  0  0  0  0  0  0  0
   -0.0008    0.7496    0.0000 C   0  0  0  0  0  0  0  0  0  0  0  0
   -1.3000    1.4994    0.0000 O   0  0  0  0  0  0  0  0  0  0  0  0
   -0.0006   -0.7504    0.0000 N   0  0  0  0  0  0  0  0  0  0  0  0
   -1.2995   -1.5006    0.0000 H   0  0  0  0  0  0  0  0  0  0  0  0
    1.2986   -1.5002    0.0000 H   0  0  0  0  0  0  0  0  0  0  0  0
    2.5981    0.7498    0.0000 N   0  0  0  0  0  0  0  0  0  0  0  0
    3.8981    1.4998    0.0000 C   0  0  0  0  0  0  0  0  0  0  0  0
    3.8981    2.9998    0.0000 C   0  0  0  0  0  0  0  0  0  0  0  0
    5.1970    3.7500    0.0000 H   0  0  0  0  0  0  0  0  0  0  0  0
    2.5981    3.7498    0.0000 N   0  0  0  0  0  0  0  0  0  0  0  0
    5.1970    0.7496    0.0000 F   0  0  0  0  0  0  0  0  0  0  0  0
  1  2  1  0  0  0  0 
  1  3  1  0  0  0  0 
  1  4  1  0  0  0  0 
  1  5  1  0  0  0  0 
  5  6  1  0  0  0  0 
  6  7  2  0  0  0  0 
  7  8  1  0  0  0  0 
  8  9  2  0  0  0  0 
  8 10  1  0  0  0  0 
 10 11  1  0  0  0  0 
 10 12  1  0  0  0  0 
  7 13  1  0  0  0  0 
 13 14  2  0  0  0  0 
 14 15  1  0  0  0  0 
 15 16  1  0  0  0  0 
 15 17  2  0  0  0  0 
  6 17  1  0  0  0  0 
 14 18  1  0  0  0  0 
M  END
> <Rank>
3

> <Priority_score>
0.324

> <Reaction_type>
methylation_(aromatic_OH)

> <Parent_ID>
71

> <Parent_InChI>
InChI=1S/C5H4FN3O2/c6-2-1-8-5(11)3(9-2)4(7)10/h1H,(H2,7,10)(H,8,11)

> <Parent_SMILES>
NC(=O)c1nc(F)cnc1O

$$$$
Molecule 71_metabolite 4
  CDK     0516241031

 16 16  0  0  0  0  0  0  0  0999 V2000
    1.3000    0.7500    0.0000 C   0  0  0  0  0  0  0  0  0  0  0  0
    0.0000    1.5000    0.0000 N   0  0  0  0  0  0  0  0  0  0  0  0
   -1.3000    0.7500    0.0000 C   0  0  0  0  0  0  0  0  0  0  0  0
   -1.3000   -0.7500    0.0000 C   0  0  0  0  0  0  0  0  0  0  0  0
    0.0000   -1.5000    0.0000 N   0  0  0  0  0  0  0  0  0  0  0  0
    1.3000   -0.7500    0.0000 C   0  0  0  0  0  0  0  0  0  0  0  0
    2.5989   -1.5002    0.0000 O   0  0  0  0  0  0  0  0  0  0  0  0
    3.8981   -0.7504    0.0000 H   0  0  0  0  0  0  0  0  0  0  0  0
   -2.5989   -1.5002    0.0000 O   0  0  0  0  0  0  0  0  0  0  0  0
   -3.8981   -0.7504    0.0000 H   0  0  0  0  0  0  0  0  0  0  0  0
   -2.5989    1.5002    0.0000 F   0  0  0  0  0  0  0  0  0  0  0  0
    2.5989    1.5002    0.0000 C   0  0  0  0  0  0  0  0  0  0  0  0
    3.8981    0.7504    0.0000 O   0  0  0  0  0  0  0  0  0  0  0  0
    2.5987    3.0002    0.0000 N   0  0  0  0  0  0  0  0  0  0  0  0
    3.8976    3.7504    0.0000 H   0  0  0  0  0  0  0  0  0  0  0  0
    1.2995    3.7500    0.0000 H   0  0  0  0  0  0  0  0  0  0  0  0
  1  2  2  0  0  0  0 
  2  3  1  0  0  0  0 
  3  4  2  0  0  0  0 
  4  5  1  0  0  0  0 
  5  6  2  0  0  0  0 
  1  6  1  0  0  0  0 
  6  7  1  0  0  0  0 
  7  8  1  0  0  0  0 
  4  9  1  0  0  0  0 
  9 10  1  0  0  0  0 
  3 11  1  0  0  0  0 
  1 12  1  0  0  0  0 
 12 13  2  0  0  0  0 
 12 14  1  0  0  0  0 
 14 15  1  0  0  0  0 
 14 16  1  0  0  0  0 
M  END
> <Rank>
4

> <Priority_score>
0.244

> <Reaction_type>
aromatic_hydroxylation_(para_to_carbon)

> <Parent_ID>
71

> <Parent_InChI>
InChI=1S/C5H4FN3O2/c6-2-1-8-5(11)3(9-2)4(7)10/h1H,(H2,7,10)(H,8,11)

> <Parent_SMILES>
NC(=O)c1nc(F)cnc1O

$$$$
Molecule 71_metabolite 5
  CDK     0516241031

 16 16  0  0  0  0  0  0  0  0999 V2000
   -2.5992   -1.5002    0.0000 C   0  0  0  0  0  0  0  0  0  0  0  0
   -3.8981   -2.2504    0.0000 H   0  0  0  0  0  0  0  0  0  0  0  0
   -1.2992   -2.2502    0.0000 N   0  0  0  0  0  0  0  0  0  0  0  0
    0.0008   -1.5002    0.0000 C   0  0  0  0  0  0  0  0  0  0  0  0
    0.0008   -0.0002    0.0000 C   0  0  0  0  0  0  0  0  0  0  0  0
    1.2998    0.7500    0.0000 C   0  0  0  0  0  0  0  0  0  0  0  0
    2.5989    0.0002    0.0000 O   0  0  0  0  0  0  0  0  0  0  0  0
    1.2995    2.2500    0.0000 N   0  0  0  0  0  0  0  0  0  0  0  0
    2.5984    3.0002    0.0000 H   0  0  0  0  0  0  0  0  0  0  0  0
    0.0004    2.9998    0.0000 H   0  0  0  0  0  0  0  0  0  0  0  0
   -1.2992    0.7498    0.0000 N   0  0  0  0  0  0  0  0  0  0  0  0
   -2.5992   -0.0002    0.0000 C   0  0  0  0  0  0  0  0  0  0  0  0
   -3.8981    0.7500    0.0000 F   0  0  0  0  0  0  0  0  0  0  0  0
    1.2998   -2.2504    0.0000 O   0  0  0  0  0  0  0  0  0  0  0  0
    1.2995   -3.7504    0.0000 H   0  0  0  0  0  0  0  0  0  0  0  0
   -1.2992   -3.7502    0.0000 O   0  0  0  0  0  0  0  0  0  0  0  0
  1  2  1  0  0  0  0 
  1  3  2  0  0  0  0 
  3  4  1  0  0  0  0 
  4  5  2  0  0  0  0 
  5  6  1  0  0  0  0 
  6  7  2  0  0  0  0 
  6  8  1  0  0  0  0 
  8  9  1  0  0  0  0 
  8 10  1  0  0  0  0 
  5 11  1  0  0  0  0 
 11 12  2  0  0  0  0 
  1 12  1  0  0  0  0 
 12 13  1  0  0  0  0 
  4 14  1  0  0  0  0 
 14 15  1  0  0  0  0 
  3 16  1  0  0  0  0 
M  CHG  1   3   1
M  CHG  1  16  -1
M  END
> <Rank>
4

> <Priority_score>
0.244

> <Reaction_type>
N-oxidation_(-N=)

> <Parent_ID>
71

> <Parent_InChI>
InChI=1S/C5H4FN3O2/c6-2-1-8-5(11)3(9-2)4(7)10/h1H,(H2,7,10)(H,8,11)

> <Parent_SMILES>
NC(=O)c1nc(F)cnc1O

$$$$
Molecule 71_metabolite 6
  CDK     0516241031

 16 16  0  0  0  0  0  0  0  0999 V2000
   -3.8981   -0.7500    0.0000 C   0  0  0  0  0  0  0  0  0  0  0  0
   -5.1970   -1.5002    0.0000 H   0  0  0  0  0  0  0  0  0  0  0  0
   -2.5981   -1.5000    0.0000 N   0  0  0  0  0  0  0  0  0  0  0  0
   -1.2981   -0.7500    0.0000 C   0  0  0  0  0  0  0  0  0  0  0  0
   -1.2981    0.7500    0.0000 C   0  0  0  0  0  0  0  0  0  0  0  0
    0.0008    1.5002    0.0000 C   0  0  0  0  0  0  0  0  0  0  0  0
    0.0006    3.0002    0.0000 O   0  0  0  0  0  0  0  0  0  0  0  0
    1.3000    0.7504    0.0000 N   0  0  0  0  0  0  0  0  0  0  0  0
    2.5989    1.5006    0.0000 H   0  0  0  0  0  0  0  0  0  0  0  0
    1.3002   -0.7496    0.0000 H   0  0  0  0  0  0  0  0  0  0  0  0
   -2.5981    1.5000    0.0000 N   0  0  0  0  0  0  0  0  0  0  0  0
   -3.8981    0.7500    0.0000 C   0  0  0  0  0  0  0  0  0  0  0  0
   -5.1970    1.5002    0.0000 F   0  0  0  0  0  0  0  0  0  0  0  0
   -2.5981    3.0000    0.0000 O   0  0  0  0  0  0  0  0  0  0  0  0
    0.0008   -1.5002    0.0000 O   0  0  0  0  0  0  0  0  0  0  0  0
    0.0006   -3.0002    0.0000 H   0  0  0  0  0  0  0  0  0  0  0  0
  1  2  1  0  0  0  0 
  1  3  2  0  0  0  0 
  3  4  1  0  0  0  0 
  4  5  2  0  0  0  0 
  5  6  1  0  0  0  0 
  6  7  2  0  0  0  0 
  6  8  1  0  0  0  0 
  8  9  1  0  0  0  0 
  8 10  1  0  0  0  0 
  5 11  1  0  0  0  0 
 11 12  2  0  0  0  0 
  1 12  1  0  0  0  0 
 12 13  1  0  0  0  0 
 11 14  1  0  0  0  0 
  4 15  1  0  0  0  0 
 15 16  1  0  0  0  0 
M  CHG  1  11   1
M  CHG  1  14  -1
M  END
> <Rank>
6

> <Priority_score>
0.236

> <Reaction_type>
N-oxidation_(-N=)

> <Parent_ID>
71

> <Parent_InChI>
InChI=1S/C5H4FN3O2/c6-2-1-8-5(11)3(9-2)4(7)10/h1H,(H2,7,10)(H,8,11)

> <Parent_SMILES>
NC(=O)c1nc(F)cnc1O

$$$$
Molecule 71_metabolite 7
  CDK     0516241031

 35 36  0  0  0  0  0  0  0  0999 V2000
    1.2226   -2.5121    0.0000 C   0  0  0  0  0  0  0  0  0  0  0  0
    2.5217   -3.2619    0.0000 H   0  0  0  0  0  0  0  0  0  0  0  0
   -0.0772   -3.2625    0.0000 N   0  0  0  0  0  0  0  0  0  0  0  0
   -1.3774   -2.5130    0.0000 C   0  0  0  0  0  0  0  0  0  0  0  0
   -1.3779   -1.0130    0.0000 C   0  0  0  0  0  0  0  0  0  0  0  0
   -2.6771   -0.2632    0.0000 C   0  0  0  0  0  0  0  0  0  0  0  0
   -2.6773    1.2368    0.0000 O   0  0  0  0  0  0  0  0  0  0  0  0
   -3.9760   -1.0134    0.0000 N   0  0  0  0  0  0  0  0  0  0  0  0
   -3.9758   -2.5134    0.0000 H   0  0  0  0  0  0  0  0  0  0  0  0
   -5.2752   -0.2636    0.0000 C   0  0  0  0  0  0  0  0  0  0  0  0
   -4.3113    0.8857    0.0000 H   0  0  0  0  0  0  0  0  0  0  0  0
   -6.2398    0.8851    0.0000 C   0  0  0  0  0  0  0  0  0  0  0  0
   -4.9411    1.6357    0.0000 H   0  0  0  0  0  0  0  0  0  0  0  0
   -7.7176    0.6235    0.0000 C   0  0  0  0  0  0  0  0  0  0  0  0
   -7.7183    2.1235    0.0000 H   0  0  0  0  0  0  0  0  0  0  0  0
   -8.2309   -0.7869    0.0000 C   0  0  0  0  0  0  0  0  0  0  0  0
   -9.5300   -0.0371    0.0000 H   0  0  0  0  0  0  0  0  0  0  0  0
   -7.2662   -1.9356    0.0000 C   0  0  0  0  0  0  0  0  0  0  0  0
   -8.5649   -2.6862    0.0000 H   0  0  0  0  0  0  0  0  0  0  0  0
   -6.7524   -3.3448    0.0000 C   0  0  0  0  0  0  0  0  0  0  0  0
   -5.2750   -3.6044    0.0000 O   0  0  0  0  0  0  0  0  0  0  0  0
   -7.7159   -4.4944    0.0000 O   0  0  0  0  0  0  0  0  0  0  0  0
   -9.1933   -4.2348    0.0000 H   0  0  0  0  0  0  0  0  0  0  0  0
   -5.7884   -1.6739    0.0000 O   0  0  0  0  0  0  0  0  0  0  0  0
   -9.1947   -1.9362    0.0000 O   0  0  0  0  0  0  0  0  0  0  0  0
  -10.6720   -1.6761    0.0000 H   0  0  0  0  0  0  0  0  0  0  0  0
   -9.1949    0.8836    0.0000 O   0  0  0  0  0  0  0  0  0  0  0  0
   -9.7083    2.2930    0.0000 H   0  0  0  0  0  0  0  0  0  0  0  0
   -6.7536    2.2944    0.0000 O   0  0  0  0  0  0  0  0  0  0  0  0
   -5.7901    3.4440    0.0000 H   0  0  0  0  0  0  0  0  0  0  0  0
   -0.0782   -0.2625    0.0000 N   0  0  0  0  0  0  0  0  0  0  0  0
    1.2221   -1.0121    0.0000 C   0  0  0  0  0  0  0  0  0  0  0  0
    2.5208   -0.2615    0.0000 F   0  0  0  0  0  0  0  0  0  0  0  0
   -2.6761   -3.2636    0.0000 O   0  0  0  0  0  0  0  0  0  0  0  0
   -2.6754   -4.7636    0.0000 H   0  0  0  0  0  0  0  0  0  0  0  0
  1  2  1  0  0  0  0 
  1  3  2  0  0  0  0 
  3  4  1  0  0  0  0 
  4  5  2  0  0  0  0 
  5  6  1  0  0  0  0 
  6  7  2  0  0  0  0 
  6  8  1  0  0  0  0 
  8  9  1  0  0  0  0 
  8 10  1  0  0  0  0 
 10 11  1  0  0  0  0 
 10 12  1  0  0  0  0 
 12 13  1  0  0  0  0 
 12 14  1  0  0  0  0 
 14 15  1  0  0  0  0 
 14 16  1  0  0  0  0 
 16 17  1  0  0  0  0 
 16 18  1  0  0  0  0 
 18 19  1  0  0  0  0 
 18 20  1  0  0  0  0 
 20 21  2  0  0  0  0 
 20 22  1  0  0  0  0 
 22 23  1  0  0  0  0 
 18 24  1  0  0  0  0 
 10 24  1  0  0  0  0 
 16 25  1  0  0  0  0 
 25 26  1  0  0  0  0 
 14 27  1  0  0  0  0 
 27 28  1  0  0  0  0 
 12 29  1  0  0  0  0 
 29 30  1  0  0  0  0 
  5 31  1  0  0  0  0 
 31 32  2  0  0  0  0 
  1 32  1  0  0  0  0 
 32 33  1  0  0  0  0 
  4 34  1  0  0  0  0 
 34 35  1  0  0  0  0 
M  END
> <Rank>
7

> <Priority_score>
0.1957594493963669

> <Reaction_type>
N-glucuronidation_(aliphatic_NH2)

> <Parent_ID>
71

> <Parent_InChI>
InChI=1S/C5H4FN3O2/c6-2-1-8-5(11)3(9-2)4(7)10/h1H,(H2,7,10)(H,8,11)

> <Parent_SMILES>
NC(=O)c1nc(F)cnc1O

$$$$
Molecule 71_metabolite 8
  CDK     0516241031

 14 14  0  0  0  0  0  0  0  0999 V2000
   -3.8981   -0.7500    0.0000 C   0  0  0  0  0  0  0  0  0  0  0  0
   -5.1970   -1.5002    0.0000 H   0  0  0  0  0  0  0  0  0  0  0  0
   -2.5981   -1.5000    0.0000 N   0  0  0  0  0  0  0  0  0  0  0  0
   -1.2981   -0.7500    0.0000 C   0  0  0  0  0  0  0  0  0  0  0  0
   -1.2981    0.7500    0.0000 C   0  0  0  0  0  0  0  0  0  0  0  0
    0.0008    1.5002    0.0000 C   0  0  0  0  0  0  0  0  0  0  0  0
    0.0006    3.0002    0.0000 O   0  0  0  0  0  0  0  0  0  0  0  0
    1.3000    0.7504    0.0000 O   0  0  0  0  0  0  0  0  0  0  0  0
    2.5989    1.5006    0.0000 H   0  0  0  0  0  0  0  0  0  0  0  0
   -2.5981    1.5000    0.0000 N   0  0  0  0  0  0  0  0  0  0  0  0
   -3.8981    0.7500    0.0000 C   0  0  0  0  0  0  0  0  0  0  0  0
   -5.1970    1.5002    0.0000 F   0  0  0  0  0  0  0  0  0  0  0  0
    0.0008   -1.5002    0.0000 O   0  0  0  0  0  0  0  0  0  0  0  0
    0.0006   -3.0002    0.0000 H   0  0  0  0  0  0  0  0  0  0  0  0
  1  2  1  0  0  0  0 
  1  3  2  0  0  0  0 
  3  4  1  0  0  0  0 
  4  5  2  0  0  0  0 
  5  6  1  0  0  0  0 
  6  7  2  0  0  0  0 
  6  8  1  0  0  0  0 
  8  9  1  0  0  0  0 
  5 10  1  0  0  0  0 
 10 11  2  0  0  0  0 
  1 11  1  0  0  0  0 
 11 12  1  0  0  0  0 
  4 13  1  0  0  0  0 
 13 14  1  0  0  0  0 
M  END
> <Rank>
8

> <Priority_score>
0.1792514392036442

> <Reaction_type>
hydrolysis_(primary_amide)

> <Parent_ID>
71

> <Parent_InChI>
InChI=1S/C5H4FN3O2/c6-2-1-8-5(11)3(9-2)4(7)10/h1H,(H2,7,10)(H,8,11)

> <Parent_SMILES>
NC(=O)c1nc(F)cnc1O

$$$$
Molecule 71_metabolite 9
  CDK     0516241031

 16 16  0  0  0  0  0  0  0  0999 V2000
   -5.1972   -0.7500    0.0000 C   0  0  0  0  0  0  0  0  0  0  0  0
   -6.4962   -1.5002    0.0000 H   0  0  0  0  0  0  0  0  0  0  0  0
   -3.8972   -1.5000    0.0000 N   0  0  0  0  0  0  0  0  0  0  0  0
   -2.5972   -0.7500    0.0000 C   0  0  0  0  0  0  0  0  0  0  0  0
   -2.5972    0.7500    0.0000 C   0  0  0  0  0  0  0  0  0  0  0  0
   -1.2983    1.5002    0.0000 C   0  0  0  0  0  0  0  0  0  0  0  0
   -1.2986    3.0002    0.0000 O   0  0  0  0  0  0  0  0  0  0  0  0
    0.0008    0.7504    0.0000 N   0  0  0  0  0  0  0  0  0  0  0  0
    0.0011   -0.7496    0.0000 H   0  0  0  0  0  0  0  0  0  0  0  0
    1.2998    1.5006    0.0000 O   0  0  0  0  0  0  0  0  0  0  0  0
    2.5989    0.7508    0.0000 H   0  0  0  0  0  0  0  0  0  0  0  0
   -3.8972    1.5000    0.0000 N   0  0  0  0  0  0  0  0  0  0  0  0
   -5.1972    0.7500    0.0000 C   0  0  0  0  0  0  0  0  0  0  0  0
   -6.4962    1.5002    0.0000 F   0  0  0  0  0  0  0  0  0  0  0  0
   -1.2983   -1.5002    0.0000 O   0  0  0  0  0  0  0  0  0  0  0  0
   -1.2986   -3.0002    0.0000 H   0  0  0  0  0  0  0  0  0  0  0  0
  1  2  1  0  0  0  0 
  1  3  2  0  0  0  0 
  3  4  1  0  0  0  0 
  4  5  2  0  0  0  0 
  5  6  1  0  0  0  0 
  6  7  2  0  0  0  0 
  6  8  1  0  0  0  0 
  8  9  1  0  0  0  0 
  8 10  1  0  0  0  0 
 10 11  1  0  0  0  0 
  5 12  1  0  0  0  0 
 12 13  2  0  0  0  0 
  1 13  1  0  0  0  0 
 13 14  1  0  0  0  0 
  4 15  1  0  0  0  0 
 15 16  1  0  0  0  0 
M  END
> <Rank>
8

> <Priority_score>
0.1792514392036442

> <Reaction_type>
amine hydroxylation

> <Parent_ID>
71

> <Parent_InChI>
InChI=1S/C5H4FN3O2/c6-2-1-8-5(11)3(9-2)4(7)10/h1H,(H2,7,10)(H,8,11)

> <Parent_SMILES>
NC(=O)c1nc(F)cnc1O

$$$$
Molecule 71_metabolite 10
  CDK     0516241031

 36 37  0  0  0  0  0  0  0  0999 V2000
    2.6266   -5.2912    0.0000 C   0  0  0  0  0  0  0  0  0  0  0  0
    2.6268   -6.7912    0.0000 H   0  0  0  0  0  0  0  0  0  0  0  0
    3.9261   -4.5403    0.0000 N   0  0  0  0  0  0  0  0  0  0  0  0
    3.9266   -3.0395    0.0000 C   0  0  0  0  0  0  0  0  0  0  0  0
    2.6276   -2.2895    0.0000 C   0  0  0  0  0  0  0  0  0  0  0  0
    2.6273   -0.7895    0.0000 C   0  0  0  0  0  0  0  0  0  0  0  0
    1.3282   -0.0397    0.0000 O   0  0  0  0  0  0  0  0  0  0  0  0
    3.9262   -0.0393    0.0000 N   0  0  0  0  0  0  0  0  0  0  0  0
    3.9260    1.4607    0.0000 H   0  0  0  0  0  0  0  0  0  0  0  0
    5.2254   -0.7891    0.0000 H   0  0  0  0  0  0  0  0  0  0  0  0
    1.3280   -3.0403    0.0000 N   0  0  0  0  0  0  0  0  0  0  0  0
    1.3276   -4.5412    0.0000 C   0  0  0  0  0  0  0  0  0  0  0  0
    0.0284   -5.2910    0.0000 F   0  0  0  0  0  0  0  0  0  0  0  0
    0.0290   -2.2903    0.0000 C   0  0  0  0  0  0  0  0  0  0  0  0
    0.9931   -1.1412    0.0000 H   0  0  0  0  0  0  0  0  0  0  0  0
   -0.9354   -1.1415    0.0000 C   0  0  0  0  0  0  0  0  0  0  0  0
    0.3634   -0.3911    0.0000 H   0  0  0  0  0  0  0  0  0  0  0  0
   -2.4133   -1.4029    0.0000 C   0  0  0  0  0  0  0  0  0  0  0  0
   -2.4138    0.0971    0.0000 H   0  0  0  0  0  0  0  0  0  0  0  0
   -2.9268   -2.8131    0.0000 C   0  0  0  0  0  0  0  0  0  0  0  0
   -4.2258   -2.0631    0.0000 H   0  0  0  0  0  0  0  0  0  0  0  0
   -1.9624   -3.9620    0.0000 C   0  0  0  0  0  0  0  0  0  0  0  0
   -3.2612   -4.7124    0.0000 H   0  0  0  0  0  0  0  0  0  0  0  0
   -1.2844   -5.8223    0.0000 C   0  0  0  0  0  0  0  0  0  0  0  0
    0.1930   -6.0821    0.0000 O   0  0  0  0  0  0  0  0  0  0  0  0
   -2.2481   -6.9718    0.0000 O   0  0  0  0  0  0  0  0  0  0  0  0
   -1.7344   -8.3811    0.0000 H   0  0  0  0  0  0  0  0  0  0  0  0
   -0.4845   -3.7006    0.0000 O   0  0  0  0  0  0  0  0  0  0  0  0
   -3.8908   -3.9623    0.0000 O   0  0  0  0  0  0  0  0  0  0  0  0
   -5.3681   -3.7020    0.0000 H   0  0  0  0  0  0  0  0  0  0  0  0
   -3.8906   -1.1426    0.0000 O   0  0  0  0  0  0  0  0  0  0  0  0
   -4.4037    0.2669    0.0000 H   0  0  0  0  0  0  0  0  0  0  0  0
   -1.4491    0.2679    0.0000 O   0  0  0  0  0  0  0  0  0  0  0  0
   -0.4854    1.4173    0.0000 H   0  0  0  0  0  0  0  0  0  0  0  0
    5.2258   -2.2897    0.0000 O   0  0  0  0  0  0  0  0  0  0  0  0
    6.5247   -3.0399    0.0000 H   0  0  0  0  0  0  0  0  0  0  0  0
  1  2  1  0  0  0  0 
  1  3  2  0  0  0  0 
  3  4  1  0  0  0  0 
  4  5  2  0  0  0  0 
  5  6  1  0  0  0  0 
  6  7  2  0  0  0  0 
  6  8  1  0  0  0  0 
  8  9  1  0  0  0  0 
  8 10  1  0  0  0  0 
  5 11  1  0  0  0  0 
 11 12  2  0  0  0  0 
  1 12  1  0  0  0  0 
 12 13  1  0  0  0  0 
 11 14  1  0  0  0  0 
 14 15  1  0  0  0  0 
 14 16  1  0  0  0  0 
 16 17  1  0  0  0  0 
 16 18  1  0  0  0  0 
 18 19  1  0  0  0  0 
 18 20  1  0  0  0  0 
 20 21  1  0  0  0  0 
 20 22  1  0  0  0  0 
 22 23  1  0  0  0  0 
 22 24  1  0  0  0  0 
 24 25  2  0  0  0  0 
 24 26  1  0  0  0  0 
 26 27  1  0  0  0  0 
 22 28  1  0  0  0  0 
 14 28  1  0  0  0  0 
 20 29  1  0  0  0  0 
 29 30  1  0  0  0  0 
 18 31  1  0  0  0  0 
 31 32  1  0  0  0  0 
 16 33  1  0  0  0  0 
 33 34  1  0  0  0  0 
  4 35  1  0  0  0  0 
 35 36  1  0  0  0  0 
M  CHG  1  11   1
M  END
> <Rank>
10

> <Priority_score>
0.116

> <Reaction_type>
N-glucuronidation_(aromatic_=n-)

> <Parent_ID>
71

> <Parent_InChI>
InChI=1S/C5H4FN3O2/c6-2-1-8-5(11)3(9-2)4(7)10/h1H,(H2,7,10)(H,8,11)

> <Parent_SMILES>
NC(=O)c1nc(F)cnc1O

$$$$
Molecule 71_metabolite 11
  CDK     0516241031

 36 37  0  0  0  0  0  0  0  0999 V2000
    0.4478    1.4918    0.0000 C   0  0  0  0  0  0  0  0  0  0  0  0
   -0.8514    0.7420    0.0000 H   0  0  0  0  0  0  0  0  0  0  0  0
    0.4483    2.9926    0.0000 N   0  0  0  0  0  0  0  0  0  0  0  0
    1.7478    3.7435    0.0000 C   0  0  0  0  0  0  0  0  0  0  0  0
    3.0468    2.9935    0.0000 C   0  0  0  0  0  0  0  0  0  0  0  0
    4.3460    3.7433    0.0000 C   0  0  0  0  0  0  0  0  0  0  0  0
    4.3462    5.2433    0.0000 O   0  0  0  0  0  0  0  0  0  0  0  0
    5.6449    2.9931    0.0000 N   0  0  0  0  0  0  0  0  0  0  0  0
    6.9440    3.7428    0.0000 H   0  0  0  0  0  0  0  0  0  0  0  0
    5.6446    1.4931    0.0000 H   0  0  0  0  0  0  0  0  0  0  0  0
    3.0463    1.4926    0.0000 N   0  0  0  0  0  0  0  0  0  0  0  0
    1.7468    0.7418    0.0000 C   0  0  0  0  0  0  0  0  0  0  0  0
    1.7471   -0.7582    0.0000 F   0  0  0  0  0  0  0  0  0  0  0  0
    1.7475    5.2435    0.0000 O   0  0  0  0  0  0  0  0  0  0  0  0
    0.4484    5.9933    0.0000 H   0  0  0  0  0  0  0  0  0  0  0  0
   -0.8508    3.7426    0.0000 C   0  0  0  0  0  0  0  0  0  0  0  0
    0.1133    4.8918    0.0000 H   0  0  0  0  0  0  0  0  0  0  0  0
   -1.8152    4.8915    0.0000 C   0  0  0  0  0  0  0  0  0  0  0  0
   -0.5164    5.6419    0.0000 H   0  0  0  0  0  0  0  0  0  0  0  0
   -3.2931    4.6301    0.0000 C   0  0  0  0  0  0  0  0  0  0  0  0
   -3.2936    6.1301    0.0000 H   0  0  0  0  0  0  0  0  0  0  0  0
   -3.8066    3.2198    0.0000 C   0  0  0  0  0  0  0  0  0  0  0  0
   -5.1056    3.9698    0.0000 H   0  0  0  0  0  0  0  0  0  0  0  0
   -2.8421    2.0710    0.0000 C   0  0  0  0  0  0  0  0  0  0  0  0
   -4.1409    1.3205    0.0000 H   0  0  0  0  0  0  0  0  0  0  0  0
   -2.1641    0.2107    0.0000 C   0  0  0  0  0  0  0  0  0  0  0  0
   -0.6868   -0.0492    0.0000 O   0  0  0  0  0  0  0  0  0  0  0  0
   -3.1278   -0.9388    0.0000 O   0  0  0  0  0  0  0  0  0  0  0  0
   -4.6052   -0.6790    0.0000 H   0  0  0  0  0  0  0  0  0  0  0  0
   -1.3642    2.3324    0.0000 O   0  0  0  0  0  0  0  0  0  0  0  0
   -4.7706    2.0707    0.0000 O   0  0  0  0  0  0  0  0  0  0  0  0
   -6.2479    2.3310    0.0000 H   0  0  0  0  0  0  0  0  0  0  0  0
   -4.7703    4.8904    0.0000 O   0  0  0  0  0  0  0  0  0  0  0  0
   -5.2835    6.2999    0.0000 H   0  0  0  0  0  0  0  0  0  0  0  0
   -2.3288    6.3008    0.0000 O   0  0  0  0  0  0  0  0  0  0  0  0
   -1.3652    7.4503    0.0000 H   0  0  0  0  0  0  0  0  0  0  0  0
  1  2  1  0  0  0  0 
  1  3  2  0  0  0  0 
  3  4  1  0  0  0  0 
  4  5  2  0  0  0  0 
  5  6  1  0  0  0  0 
  6  7  2  0  0  0  0 
  6  8  1  0  0  0  0 
  8  9  1  0  0  0  0 
  8 10  1  0  0  0  0 
  5 11  1  0  0  0  0 
 11 12  2  0  0  0  0 
  1 12  1  0  0  0  0 
 12 13  1  0  0  0  0 
  4 14  1  0  0  0  0 
 14 15  1  0  0  0  0 
  3 16  1  0  0  0  0 
 16 17  1  0  0  0  0 
 16 18  1  0  0  0  0 
 18 19  1  0  0  0  0 
 18 20  1  0  0  0  0 
 20 21  1  0  0  0  0 
 20 22  1  0  0  0  0 
 22 23  1  0  0  0  0 
 22 24  1  0  0  0  0 
 24 25  1  0  0  0  0 
 24 26  1  0  0  0  0 
 26 27  2  0  0  0  0 
 26 28  1  0  0  0  0 
 28 29  1  0  0  0  0 
 24 30  1  0  0  0  0 
 16 30  1  0  0  0  0 
 22 31  1  0  0  0  0 
 31 32  1  0  0  0  0 
 20 33  1  0  0  0  0 
 33 34  1  0  0  0  0 
 18 35  1  0  0  0  0 
 35 36  1  0  0  0  0 
M  CHG  1   3   1
M  END
> <Rank>
11

> <Priority_score>
0.036

> <Reaction_type>
N-glucuronidation_(aromatic_=n-)

> <Parent_ID>
71

> <Parent_InChI>
InChI=1S/C5H4FN3O2/c6-2-1-8-5(11)3(9-2)4(7)10/h1H,(H2,7,10)(H,8,11)

> <Parent_SMILES>
NC(=O)c1nc(F)cnc1O

$$$$
Molecule 72
  CDK     0516241031

 20 20  0  0  0  0  0  0  0  0999 V2000
   -5.8426    1.6742    0.0000 C   0  0  0  0  0  0  0  0  0  0  0  0
   -4.6294    2.5564    0.0000 C   0  0  0  0  0  0  0  0  0  0  0  0
   -3.2588    1.9469    0.0000 S   0  0  0  0  0  0  0  0  0  0  0  0
   -2.0457    2.8291    0.0000 C   0  0  0  0  0  0  0  0  0  0  0  0
   -0.6751    2.2196    0.0000 C   0  0  0  0  0  0  0  0  0  0  0  0
   -0.3635    0.7598    0.0000 C   0  0  0  0  0  0  0  0  0  0  0  0
    1.1294    0.5941    0.0000 S   0  0  0  0  0  0  0  0  0  0  0  0
    1.7323    1.9698    0.0000 C   0  0  0  0  0  0  0  0  0  0  0  0
    0.6239    2.9696    0.0000 N   0  0  0  0  0  0  0  0  0  0  0  0
    3.1987    2.2853    0.0000 N   0  0  0  0  0  0  0  0  0  0  0  0
    4.2052    1.1731    0.0000 C   0  0  0  0  0  0  0  0  0  0  0  0
    5.6716    1.4887    0.0000 N   0  0  0  0  0  0  0  0  0  0  0  0
    3.7452   -0.2546    0.0000 N   0  0  0  0  0  0  0  0  0  0  0  0
   -7.2132    2.2837    0.0000 C   0  0  0  0  0  0  0  0  0  0  0  0
   -8.4263    1.4014    0.0000 N   0  0  0  0  0  0  0  0  0  0  0  0
   -9.7969    2.0109    0.0000 S   0  0  0  0  0  0  0  0  0  0  0  0
   -8.9586    3.2549    0.0000 O   0  0  0  0  0  0  0  0  0  0  0  0
  -10.8764    3.0525    0.0000 O   0  0  0  0  0  0  0  0  0  0  0  0
  -11.0100    1.1287    0.0000 N   0  0  0  0  0  0  0  0  0  0  0  0
   -7.3706    3.7754    0.0000 N   0  0  0  0  0  0  0  0  0  0  0  0
  1  2  1  0  0  0  0 
  2  3  1  0  0  0  0 
  3  4  1  0  0  0  0 
  4  5  1  0  0  0  0 
  5  6  2  0  0  0  0 
  6  7  1  0  0  0  0 
  7  8  1  0  0  0  0 
  8  9  2  0  0  0  0 
  5  9  1  0  0  0  0 
  8 10  1  0  0  0  0 
 10 11  2  0  0  0  0 
 11 12  1  0  0  0  0 
 11 13  1  0  0  0  0 
  1 14  1  0  0  0  0 
 14 15  2  0  0  0  0 
 15 16  1  0  0  0  0 
 16 17  2  0  0  0  0 
 16 18  2  0  0  0  0 
 16 19  1  0  0  0  0 
 14 20  1  4  0  0  0 
M  END
> <SMILES>
NC(N)=Nc1nc(CSCCC(N)=NS(N)(=O)=O)cs1

$$$$
Molecule 72_metabolite 1
  CDK     0516241031

 40 40  0  0  0  0  0  0  0  0999 V2000
    9.4490    3.2625    0.0000 C   0  0  0  0  0  0  0  0  0  0  0  0
   10.9407    3.4199    0.0000 H   0  0  0  0  0  0  0  0  0  0  0  0
    8.1011    2.6043    0.0000 H   0  0  0  0  0  0  0  0  0  0  0  0
    9.8631    1.8207    0.0000 H   0  0  0  0  0  0  0  0  0  0  0  0
    8.5668    4.4756    0.0000 C   0  0  0  0  0  0  0  0  0  0  0  0
    9.1763    5.8462    0.0000 O   0  0  0  0  0  0  0  0  0  0  0  0
    7.0751    4.3181    0.0000 N   0  0  0  0  0  0  0  0  0  0  0  0
    6.4656    2.9476    0.0000 H   0  0  0  0  0  0  0  0  0  0  0  0
    6.1929    5.5313    0.0000 S   0  0  0  0  0  0  0  0  0  0  0  0
    7.5408    6.1894    0.0000 O   0  0  0  0  0  0  0  0  0  0  0  0
    5.7788    6.9730    0.0000 O   0  0  0  0  0  0  0  0  0  0  0  0
    4.7011    5.3738    0.0000 N   0  0  0  0  0  0  0  0  0  0  0  0
    3.8189    6.5870    0.0000 C   0  0  0  0  0  0  0  0  0  0  0  0
    2.3272    6.4295    0.0000 C   0  0  0  0  0  0  0  0  0  0  0  0
    0.9793    5.7714    0.0000 H   0  0  0  0  0  0  0  0  0  0  0  0
    2.7413    4.9878    0.0000 H   0  0  0  0  0  0  0  0  0  0  0  0
    1.4450    7.6426    0.0000 C   0  0  0  0  0  0  0  0  0  0  0  0
    2.7929    8.3008    0.0000 H   0  0  0  0  0  0  0  0  0  0  0  0
    1.0309    9.0844    0.0000 H   0  0  0  0  0  0  0  0  0  0  0  0
   -0.5241    7.4348    0.0000 S   0  0  0  0  0  0  0  0  0  0  0  0
   -1.4063    8.6479    0.0000 C   0  0  0  0  0  0  0  0  0  0  0  0
   -0.0584    9.3061    0.0000 H   0  0  0  0  0  0  0  0  0  0  0  0
   -1.8204   10.0897    0.0000 H   0  0  0  0  0  0  0  0  0  0  0  0
   -2.8980    8.4905    0.0000 C   0  0  0  0  0  0  0  0  0  0  0  0
   -3.8977    9.5989    0.0000 C   0  0  0  0  0  0  0  0  0  0  0  0
   -3.5822   11.0653    0.0000 H   0  0  0  0  0  0  0  0  0  0  0  0
   -5.2735    8.9960    0.0000 S   0  0  0  0  0  0  0  0  0  0  0  0
   -5.1077    7.5031    0.0000 C   0  0  0  0  0  0  0  0  0  0  0  0
   -3.6480    7.1915    0.0000 N   0  0  0  0  0  0  0  0  0  0  0  0
   -6.2200    6.4966    0.0000 N   0  0  0  0  0  0  0  0  0  0  0  0
   -7.6477    6.9566    0.0000 C   0  0  0  0  0  0  0  0  0  0  0  0
   -8.7599    5.9501    0.0000 N   0  0  0  0  0  0  0  0  0  0  0  0
  -10.1876    6.4101    0.0000 H   0  0  0  0  0  0  0  0  0  0  0  0
   -8.4444    4.4837    0.0000 H   0  0  0  0  0  0  0  0  0  0  0  0
   -7.9632    8.4230    0.0000 N   0  0  0  0  0  0  0  0  0  0  0  0
   -9.3910    8.8830    0.0000 H   0  0  0  0  0  0  0  0  0  0  0  0
   -6.8510    9.4295    0.0000 H   0  0  0  0  0  0  0  0  0  0  0  0
    4.4284    7.9575    0.0000 N   0  0  0  0  0  0  0  0  0  0  0  0
    5.9201    8.1150    0.0000 H   0  0  0  0  0  0  0  0  0  0  0  0
    3.5462    9.1707    0.0000 H   0  0  0  0  0  0  0  0  0  0  0  0
  1  2  1  0  0  0  0 
  1  3  1  0  0  0  0 
  1  4  1  0  0  0  0 
  1  5  1  0  0  0  0 
  5  6  2  0  0  0  0 
  5  7  1  0  0  0  0 
  7  8  1  0  0  0  0 
  7  9  1  0  0  0  0 
  9 10  2  0  0  0  0 
  9 11  2  0  0  0  0 
  9 12  1  0  0  0  0 
 12 13  2  0  0  0  0 
 13 14  1  0  0  0  0 
 14 15  1  0  0  0  0 
 14 16  1  0  0  0  0 
 14 17  1  0  0  0  0 
 17 18  1  0  0  0  0 
 17 19  1  0  0  0  0 
 17 20  1  0  0  0  0 
 20 21  1  0  0  0  0 
 21 22  1  0  0  0  0 
 21 23  1  0  0  0  0 
 21 24  1  0  0  0  0 
 24 25  2  0  0  0  0 
 25 26  1  0  0  0  0 
 25 27  1  0  0  0  0 
 27 28  1  0  0  0  0 
 28 29  2  0  0  0  0 
 24 29  1  0  0  0  0 
 28 30  1  0  0  0  0 
 30 31  2  0  0  0  0 
 31 32  1  0  0  0  0 
 32 33  1  0  0  0  0 
 32 34  1  0  0  0  0 
 31 35  1  0  0  0  0 
 35 36  1  0  0  0  0 
 35 37  1  0  0  0  0 
 13 38  1  4  0  0  0 
 38 39  1  0  0  0  0 
 38 40  1  0  0  0  0 
M  END
> <Rank>
1

> <Priority_score>
0.652

> <Reaction_type>
N-acetylation_(heteroatom_bonded_NH2)

> <Parent_ID>
72

> <Parent_InChI>
InChI=1S/C8H15N7O2S3/c9-6(15-20(12,16)17)1-2-18-3-5-4-19-8(13-5)14-7(10)11/h4H,1-3H2,(H2,9,15)(H2,12,16,17)(H4,10,11,13,14)

> <Parent_SMILES>
NC(N)=Nc1nc(CSCCC(N)=NS(N)(=O)=O)cs1

$$$$
Molecule 72_metabolite 2
  CDK     0516241031

 19 19  0  0  0  0  0  0  0  0999 V2000
    4.7053    1.4533    0.0000 C   0  0  0  0  0  0  0  0  0  0  0  0
    6.0532    2.1115    0.0000 H   0  0  0  0  0  0  0  0  0  0  0  0
    4.2912    2.8951    0.0000 H   0  0  0  0  0  0  0  0  0  0  0  0
    3.2135    1.2959    0.0000 C   0  0  0  0  0  0  0  0  0  0  0  0
    2.2138    2.4043    0.0000 C   0  0  0  0  0  0  0  0  0  0  0  0
    2.5293    3.8707    0.0000 H   0  0  0  0  0  0  0  0  0  0  0  0
    0.8380    1.8014    0.0000 S   0  0  0  0  0  0  0  0  0  0  0  0
    1.0038    0.3085    0.0000 C   0  0  0  0  0  0  0  0  0  0  0  0
    2.4635   -0.0031    0.0000 N   0  0  0  0  0  0  0  0  0  0  0  0
   -0.1084   -0.6980    0.0000 N   0  0  0  0  0  0  0  0  0  0  0  0
   -1.5362   -0.2380    0.0000 C   0  0  0  0  0  0  0  0  0  0  0  0
   -2.6484   -1.2445    0.0000 N   0  0  0  0  0  0  0  0  0  0  0  0
   -4.0761   -0.7845    0.0000 H   0  0  0  0  0  0  0  0  0  0  0  0
   -2.3329   -2.7109    0.0000 H   0  0  0  0  0  0  0  0  0  0  0  0
   -1.8517    1.2284    0.0000 N   0  0  0  0  0  0  0  0  0  0  0  0
   -3.2794    1.6884    0.0000 H   0  0  0  0  0  0  0  0  0  0  0  0
   -0.7395    2.2349    0.0000 H   0  0  0  0  0  0  0  0  0  0  0  0
    5.5875    0.2402    0.0000 S   0  0  0  0  0  0  0  0  0  0  0  0
    7.0792    0.3977    0.0000 H   0  0  0  0  0  0  0  0  0  0  0  0
  1  2  1  0  0  0  0 
  1  3  1  0  0  0  0 
  1  4  1  0  0  0  0 
  4  5  2  0  0  0  0 
  5  6  1  0  0  0  0 
  5  7  1  0  0  0  0 
  7  8  1  0  0  0  0 
  8  9  2  0  0  0  0 
  4  9  1  0  0  0  0 
  8 10  1  0  0  0  0 
 10 11  2  0  0  0  0 
 11 12  1  0  0  0  0 
 12 13  1  0  0  0  0 
 12 14  1  0  0  0  0 
 11 15  1  0  0  0  0 
 15 16  1  0  0  0  0 
 15 17  1  0  0  0  0 
  1 18  1  0  0  0  0 
 18 19  1  0  0  0  0 
M  END
> <Rank>
2

> <Priority_score>
0.42355763604447044

> <Reaction_type>
S-dealkylation

> <Parent_ID>
72

> <Parent_InChI>
InChI=1S/C8H15N7O2S3/c9-6(15-20(12,16)17)1-2-18-3-5-4-19-8(13-5)14-7(10)11/h4H,1-3H2,(H2,9,15)(H2,12,16,17)(H4,10,11,13,14)

> <Parent_SMILES>
NC(N)=Nc1nc(CSCCC(N)=NS(N)(=O)=O)cs1

$$$$
Molecule 72_metabolite 3
  CDK     0516241031

 17 16  0  0  0  0  0  0  0  0999 V2000
    2.5981   -0.0000    0.0000 C   0  0  0  0  0  0  0  0  0  0  0  0
    3.5623    1.1491    0.0000 H   0  0  0  0  0  0  0  0  0  0  0  0
    1.6339    1.1491    0.0000 H   0  0  0  0  0  0  0  0  0  0  0  0
    1.2990   -0.7500    0.0000 C   0  0  0  0  0  0  0  0  0  0  0  0
    0.0000    0.0000    0.0000 H   0  0  0  0  0  0  0  0  0  0  0  0
    1.2990   -2.2500    0.0000 O   0  0  0  0  0  0  0  0  0  0  0  0
    3.8971   -0.7500    0.0000 C   0  0  0  0  0  0  0  0  0  0  0  0
    5.1962   -0.0000    0.0000 N   0  0  0  0  0  0  0  0  0  0  0  0
    6.4952   -0.7500    0.0000 S   0  0  0  0  0  0  0  0  0  0  0  0
    5.5310   -1.8991    0.0000 O   0  0  0  0  0  0  0  0  0  0  0  0
    7.4594   -1.8991    0.0000 O   0  0  0  0  0  0  0  0  0  0  0  0
    7.7942   -0.0000    0.0000 N   0  0  0  0  0  0  0  0  0  0  0  0
    9.0933   -0.7500    0.0000 H   0  0  0  0  0  0  0  0  0  0  0  0
    7.7942    1.5000    0.0000 H   0  0  0  0  0  0  0  0  0  0  0  0
    3.8971   -2.2500    0.0000 N   0  0  0  0  0  0  0  0  0  0  0  0
    2.5981   -3.0000    0.0000 H   0  0  0  0  0  0  0  0  0  0  0  0
    5.1962   -3.0000    0.0000 H   0  0  0  0  0  0  0  0  0  0  0  0
  1  2  1  0  0  0  0 
  1  3  1  0  0  0  0 
  1  4  1  0  0  0  0 
  4  5  1  0  0  0  0 
  4  6  2  0  0  0  0 
  1  7  1  0  0  0  0 
  7  8  2  0  0  0  0 
  8  9  1  0  0  0  0 
  9 10  2  0  0  0  0 
  9 11  2  0  0  0  0 
  9 12  1  0  0  0  0 
 12 13  1  0  0  0  0 
 12 14  1  0  0  0  0 
  7 15  1  4  0  0  0 
 15 16  1  0  0  0  0 
 15 17  1  0  0  0  0 
M  END
> <Rank>
2

> <Priority_score>
0.42355763604447044

> <Reaction_type>
S-dealkylation

> <Parent_ID>
72

> <Parent_InChI>
InChI=1S/C8H15N7O2S3/c9-6(15-20(12,16)17)1-2-18-3-5-4-19-8(13-5)14-7(10)11/h4H,1-3H2,(H2,9,15)(H2,12,16,17)(H4,10,11,13,14)

> <Parent_SMILES>
NC(N)=Nc1nc(CSCCC(N)=NS(N)(=O)=O)cs1

$$$$
Molecule 72_metabolite 4
  CDK     0516241031

 19 18  0  0  0  0  0  0  0  0999 V2000
    6.4952    0.7500    0.0000 C   0  0  0  0  0  0  0  0  0  0  0  0
    7.4594    1.8991    0.0000 H   0  0  0  0  0  0  0  0  0  0  0  0
    5.5310    1.8991    0.0000 H   0  0  0  0  0  0  0  0  0  0  0  0
    7.7942   -0.0000    0.0000 C   0  0  0  0  0  0  0  0  0  0  0  0
    6.8300   -1.1491    0.0000 H   0  0  0  0  0  0  0  0  0  0  0  0
    8.7584   -1.1491    0.0000 H   0  0  0  0  0  0  0  0  0  0  0  0
    9.0933    0.7500    0.0000 S   0  0  0  0  0  0  0  0  0  0  0  0
   10.3923   -0.0000    0.0000 H   0  0  0  0  0  0  0  0  0  0  0  0
    5.1962   -0.0000    0.0000 C   0  0  0  0  0  0  0  0  0  0  0  0
    3.8971    0.7500    0.0000 N   0  0  0  0  0  0  0  0  0  0  0  0
    2.5981   -0.0000    0.0000 S   0  0  0  0  0  0  0  0  0  0  0  0
    1.6339   -1.1491    0.0000 O   0  0  0  0  0  0  0  0  0  0  0  0
    3.5623   -1.1491    0.0000 O   0  0  0  0  0  0  0  0  0  0  0  0
    1.2990    0.7500    0.0000 N   0  0  0  0  0  0  0  0  0  0  0  0
   -0.0000    0.0000    0.0000 H   0  0  0  0  0  0  0  0  0  0  0  0
    1.2990    2.2500    0.0000 H   0  0  0  0  0  0  0  0  0  0  0  0
    5.1962   -1.5000    0.0000 N   0  0  0  0  0  0  0  0  0  0  0  0
    6.4952   -2.2500    0.0000 H   0  0  0  0  0  0  0  0  0  0  0  0
    3.8971   -2.2500    0.0000 H   0  0  0  0  0  0  0  0  0  0  0  0
  1  2  1  0  0  0  0 
  1  3  1  0  0  0  0 
  1  4  1  0  0  0  0 
  4  5  1  0  0  0  0 
  4  6  1  0  0  0  0 
  4  7  1  0  0  0  0 
  7  8  1  0  0  0  0 
  1  9  1  0  0  0  0 
  9 10  2  0  0  0  0 
 10 11  1  0  0  0  0 
 11 12  2  0  0  0  0 
 11 13  2  0  0  0  0 
 11 14  1  0  0  0  0 
 14 15  1  0  0  0  0 
 14 16  1  0  0  0  0 
  9 17  1  4  0  0  0 
 17 18  1  0  0  0  0 
 17 19  1  0  0  0  0 
M  END
> <Rank>
2

> <Priority_score>
0.42355763604447044

> <Reaction_type>
S-dealkylation

> <Parent_ID>
72

> <Parent_InChI>
InChI=1S/C8H15N7O2S3/c9-6(15-20(12,16)17)1-2-18-3-5-4-19-8(13-5)14-7(10)11/h4H,1-3H2,(H2,9,15)(H2,12,16,17)(H4,10,11,13,14)

> <Parent_SMILES>
NC(N)=Nc1nc(CSCCC(N)=NS(N)(=O)=O)cs1

$$$$
Molecule 72_metabolite 5
  CDK     0516241031

 17 17  0  0  0  0  0  0  0  0999 V2000
   -2.6703    0.4554    0.0000 C   0  0  0  0  0  0  0  0  0  0  0  0
   -2.8277    1.9472    0.0000 H   0  0  0  0  0  0  0  0  0  0  0  0
   -3.8834   -0.4268    0.0000 O   0  0  0  0  0  0  0  0  0  0  0  0
   -1.2997   -0.1541    0.0000 C   0  0  0  0  0  0  0  0  0  0  0  0
   -0.9881   -1.6138    0.0000 C   0  0  0  0  0  0  0  0  0  0  0  0
   -1.9945   -2.7260    0.0000 H   0  0  0  0  0  0  0  0  0  0  0  0
    0.5048   -1.7796    0.0000 S   0  0  0  0  0  0  0  0  0  0  0  0
    1.1077   -0.4038    0.0000 C   0  0  0  0  0  0  0  0  0  0  0  0
   -0.0007    0.5959    0.0000 N   0  0  0  0  0  0  0  0  0  0  0  0
    2.5741   -0.0883    0.0000 N   0  0  0  0  0  0  0  0  0  0  0  0
    3.5806   -1.2005    0.0000 C   0  0  0  0  0  0  0  0  0  0  0  0
    5.0471   -0.8850    0.0000 N   0  0  0  0  0  0  0  0  0  0  0  0
    6.0535   -1.9972    0.0000 H   0  0  0  0  0  0  0  0  0  0  0  0
    5.5070    0.5427    0.0000 H   0  0  0  0  0  0  0  0  0  0  0  0
    3.1206   -2.6282    0.0000 N   0  0  0  0  0  0  0  0  0  0  0  0
    4.1271   -3.7405    0.0000 H   0  0  0  0  0  0  0  0  0  0  0  0
    1.6542   -2.9438    0.0000 H   0  0  0  0  0  0  0  0  0  0  0  0
  1  2  1  0  0  0  0 
  1  3  2  0  0  0  0 
  1  4  1  0  0  0  0 
  4  5  2  0  0  0  0 
  5  6  1  0  0  0  0 
  5  7  1  0  0  0  0 
  7  8  1  0  0  0  0 
  8  9  2  0  0  0  0 
  4  9  1  0  0  0  0 
  8 10  1  0  0  0  0 
 10 11  2  0  0  0  0 
 11 12  1  0  0  0  0 
 12 13  1  0  0  0  0 
 12 14  1  0  0  0  0 
 11 15  1  0  0  0  0 
 15 16  1  0  0  0  0 
 15 17  1  0  0  0  0 
M  END
> <Rank>
2

> <Priority_score>
0.42355763604447044

> <Reaction_type>
S-dealkylation

> <Parent_ID>
72

> <Parent_InChI>
InChI=1S/C8H15N7O2S3/c9-6(15-20(12,16)17)1-2-18-3-5-4-19-8(13-5)14-7(10)11/h4H,1-3H2,(H2,9,15)(H2,12,16,17)(H4,10,11,13,14)

> <Parent_SMILES>
NC(N)=Nc1nc(CSCCC(N)=NS(N)(=O)=O)cs1

$$$$
Molecule 72_metabolite 6
  CDK     0516241031

 36 36  0  0  0  0  0  0  0  0999 V2000
    3.4460    4.4917    0.0000 C   0  0  0  0  0  0  0  0  0  0  0  0
    2.0981    3.8336    0.0000 H   0  0  0  0  0  0  0  0  0  0  0  0
    3.8601    3.0500    0.0000 H   0  0  0  0  0  0  0  0  0  0  0  0
    2.5638    5.7049    0.0000 C   0  0  0  0  0  0  0  0  0  0  0  0
    3.9117    6.3630    0.0000 H   0  0  0  0  0  0  0  0  0  0  0  0
    2.1497    7.1466    0.0000 H   0  0  0  0  0  0  0  0  0  0  0  0
    0.5947    5.4970    0.0000 S   0  0  0  0  0  0  0  0  0  0  0  0
   -0.0148    4.1264    0.0000 O   0  0  0  0  0  0  0  0  0  0  0  0
   -0.2875    6.7102    0.0000 C   0  0  0  0  0  0  0  0  0  0  0  0
    1.0604    7.3683    0.0000 H   0  0  0  0  0  0  0  0  0  0  0  0
   -0.7016    8.1519    0.0000 H   0  0  0  0  0  0  0  0  0  0  0  0
   -1.7792    6.5527    0.0000 C   0  0  0  0  0  0  0  0  0  0  0  0
   -2.7790    7.6611    0.0000 C   0  0  0  0  0  0  0  0  0  0  0  0
   -2.4634    9.1275    0.0000 H   0  0  0  0  0  0  0  0  0  0  0  0
   -4.1547    7.0582    0.0000 S   0  0  0  0  0  0  0  0  0  0  0  0
   -3.9890    5.5653    0.0000 C   0  0  0  0  0  0  0  0  0  0  0  0
   -2.5292    5.2537    0.0000 N   0  0  0  0  0  0  0  0  0  0  0  0
   -5.1012    4.5588    0.0000 N   0  0  0  0  0  0  0  0  0  0  0  0
   -6.5289    5.0188    0.0000 C   0  0  0  0  0  0  0  0  0  0  0  0
   -7.6411    4.0123    0.0000 N   0  0  0  0  0  0  0  0  0  0  0  0
   -9.0689    4.4723    0.0000 H   0  0  0  0  0  0  0  0  0  0  0  0
   -7.3256    2.5459    0.0000 H   0  0  0  0  0  0  0  0  0  0  0  0
   -6.8444    6.4852    0.0000 N   0  0  0  0  0  0  0  0  0  0  0  0
   -8.2722    6.9452    0.0000 H   0  0  0  0  0  0  0  0  0  0  0  0
   -5.7322    7.4917    0.0000 H   0  0  0  0  0  0  0  0  0  0  0  0
    4.9377    4.6492    0.0000 C   0  0  0  0  0  0  0  0  0  0  0  0
    5.8199    3.4360    0.0000 N   0  0  0  0  0  0  0  0  0  0  0  0
    7.3116    3.5935    0.0000 S   0  0  0  0  0  0  0  0  0  0  0  0
    8.6595    4.2516    0.0000 O   0  0  0  0  0  0  0  0  0  0  0  0
    6.8975    5.0352    0.0000 O   0  0  0  0  0  0  0  0  0  0  0  0
    8.1939    2.3803    0.0000 N   0  0  0  0  0  0  0  0  0  0  0  0
    9.6856    2.5378    0.0000 H   0  0  0  0  0  0  0  0  0  0  0  0
    7.5844    1.0098    0.0000 H   0  0  0  0  0  0  0  0  0  0  0  0
    5.5472    6.0198    0.0000 N   0  0  0  0  0  0  0  0  0  0  0  0
    7.0389    6.1772    0.0000 H   0  0  0  0  0  0  0  0  0  0  0  0
    4.6650    7.2329    0.0000 H   0  0  0  0  0  0  0  0  0  0  0  0
  1  2  1  0  0  0  0 
  1  3  1  0  0  0  0 
  1  4  1  0  0  0  0 
  4  5  1  0  0  0  0 
  4  6  1  0  0  0  0 
  4  7  1  0  0  0  0 
  7  8  2  0  0  0  0 
  7  9  1  0  0  0  0 
  9 10  1  0  0  0  0 
  9 11  1  0  0  0  0 
  9 12  1  0  0  0  0 
 12 13  2  0  0  0  0 
 13 14  1  0  0  0  0 
 13 15  1  0  0  0  0 
 15 16  1  0  0  0  0 
 16 17  2  0  0  0  0 
 12 17  1  0  0  0  0 
 16 18  1  0  0  0  0 
 18 19  2  0  0  0  0 
 19 20  1  0  0  0  0 
 20 21  1  0  0  0  0 
 20 22  1  0  0  0  0 
 19 23  1  0  0  0  0 
 23 24  1  0  0  0  0 
 23 25  1  0  0  0  0 
  1 26  1  0  0  0  0 
 26 27  2  0  0  0  0 
 27 28  1  0  0  0  0 
 28 29  2  0  0  0  0 
 28 30  2  0  0  0  0 
 28 31  1  0  0  0  0 
 31 32  1  0  0  0  0 
 31 33  1  0  0  0  0 
 26 34  1  4  0  0  0 
 34 35  1  0  0  0  0 
 34 36  1  0  0  0  0 
M  END
> <Rank>
2

> <Priority_score>
0.42355763604447044

> <Reaction_type>
sulfide_oxidation_(C-S-C)

> <Parent_ID>
72

> <Parent_InChI>
InChI=1S/C8H15N7O2S3/c9-6(15-20(12,16)17)1-2-18-3-5-4-19-8(13-5)14-7(10)11/h4H,1-3H2,(H2,9,15)(H2,12,16,17)(H4,10,11,13,14)

> <Parent_SMILES>
NC(N)=Nc1nc(CSCCC(N)=NS(N)(=O)=O)cs1

$$$$
Molecule 72_metabolite 7
  CDK     0516241031

 55 56  0  0  0  0  0  0  0  0999 V2000
   -0.7346    1.6769    0.0000 C   0  0  0  0  0  0  0  0  0  0  0  0
   -2.0825    1.0188    0.0000 H   0  0  0  0  0  0  0  0  0  0  0  0
   -0.3205    0.2352    0.0000 H   0  0  0  0  0  0  0  0  0  0  0  0
   -1.6168    2.8901    0.0000 C   0  0  0  0  0  0  0  0  0  0  0  0
   -0.2689    3.5482    0.0000 H   0  0  0  0  0  0  0  0  0  0  0  0
   -2.0309    4.3318    0.0000 H   0  0  0  0  0  0  0  0  0  0  0  0
   -3.5859    2.6822    0.0000 S   0  0  0  0  0  0  0  0  0  0  0  0
   -4.4681    3.8954    0.0000 C   0  0  0  0  0  0  0  0  0  0  0  0
   -3.1202    4.5535    0.0000 H   0  0  0  0  0  0  0  0  0  0  0  0
   -4.8822    5.3371    0.0000 H   0  0  0  0  0  0  0  0  0  0  0  0
   -5.9598    3.7379    0.0000 C   0  0  0  0  0  0  0  0  0  0  0  0
   -6.9596    4.8463    0.0000 C   0  0  0  0  0  0  0  0  0  0  0  0
   -6.6440    6.3127    0.0000 H   0  0  0  0  0  0  0  0  0  0  0  0
   -8.3353    4.2434    0.0000 S   0  0  0  0  0  0  0  0  0  0  0  0
   -8.1696    2.7505    0.0000 C   0  0  0  0  0  0  0  0  0  0  0  0
   -6.7098    2.4389    0.0000 N   0  0  0  0  0  0  0  0  0  0  0  0
   -9.2818    1.7440    0.0000 N   0  0  0  0  0  0  0  0  0  0  0  0
  -10.7095    2.2040    0.0000 C   0  0  0  0  0  0  0  0  0  0  0  0
  -11.8217    1.1975    0.0000 N   0  0  0  0  0  0  0  0  0  0  0  0
  -13.2495    1.6575    0.0000 H   0  0  0  0  0  0  0  0  0  0  0  0
  -11.5062   -0.2689    0.0000 H   0  0  0  0  0  0  0  0  0  0  0  0
  -11.0250    3.6704    0.0000 N   0  0  0  0  0  0  0  0  0  0  0  0
  -12.4528    4.1304    0.0000 H   0  0  0  0  0  0  0  0  0  0  0  0
   -9.9128    4.6769    0.0000 H   0  0  0  0  0  0  0  0  0  0  0  0
    0.7571    1.8344    0.0000 C   0  0  0  0  0  0  0  0  0  0  0  0
    1.6393    0.6212    0.0000 N   0  0  0  0  0  0  0  0  0  0  0  0
    3.1310    0.7787    0.0000 S   0  0  0  0  0  0  0  0  0  0  0  0
    4.4789    1.4368    0.0000 O   0  0  0  0  0  0  0  0  0  0  0  0
    2.5844    2.6817    0.0000 O   0  0  0  0  0  0  0  0  0  0  0  0
    4.0133   -0.4345    0.0000 N   0  0  0  0  0  0  0  0  0  0  0  0
    5.5050   -0.2770    0.0000 H   0  0  0  0  0  0  0  0  0  0  0  0
    3.4038   -1.8050    0.0000 H   0  0  0  0  0  0  0  0  0  0  0  0
    1.5617    3.6435    0.0000 N   0  0  0  0  0  0  0  0  0  0  0  0
    0.6794    4.8567    0.0000 H   0  0  0  0  0  0  0  0  0  0  0  0
    3.0534    3.8010    0.0000 C   0  0  0  0  0  0  0  0  0  0  0  0
    2.9163    1.8257    0.0000 H   0  0  0  0  0  0  0  0  0  0  0  0
    4.5091    3.4391    0.0000 C   0  0  0  0  0  0  0  0  0  0  0  0
    3.9000    2.0683    0.0000 H   0  0  0  0  0  0  0  0  0  0  0  0
    5.5506    4.5197    0.0000 C   0  0  0  0  0  0  0  0  0  0  0  0
    6.4332    3.3068    0.0000 H   0  0  0  0  0  0  0  0  0  0  0  0
    5.1364    5.9622    0.0000 C   0  0  0  0  0  0  0  0  0  0  0  0
    6.6281    6.1197    0.0000 H   0  0  0  0  0  0  0  0  0  0  0  0
    3.6807    6.3242    0.0000 C   0  0  0  0  0  0  0  0  0  0  0  0
    4.2898    7.6950    0.0000 H   0  0  0  0  0  0  0  0  0  0  0  0
    2.4364    7.1619    0.0000 C   0  0  0  0  0  0  0  0  0  0  0  0
    1.0888    6.5032    0.0000 O   0  0  0  0  0  0  0  0  0  0  0  0
    2.5398    8.6583    0.0000 O   0  0  0  0  0  0  0  0  0  0  0  0
    3.8874    9.3170    0.0000 H   0  0  0  0  0  0  0  0  0  0  0  0
    2.6392    5.2435    0.0000 O   0  0  0  0  0  0  0  0  0  0  0  0
    5.2402    7.4586    0.0000 O   0  0  0  0  0  0  0  0  0  0  0  0
    6.5880    8.1169    0.0000 H   0  0  0  0  0  0  0  0  0  0  0  0
    6.8984    5.1780    0.0000 O   0  0  0  0  0  0  0  0  0  0  0  0
    8.1424    4.3399    0.0000 H   0  0  0  0  0  0  0  0  0  0  0  0
    6.1515    2.3333    0.0000 O   0  0  0  0  0  0  0  0  0  0  0  0
    7.4991    2.9920    0.0000 H   0  0  0  0  0  0  0  0  0  0  0  0
  1  2  1  0  0  0  0 
  1  3  1  0  0  0  0 
  1  4  1  0  0  0  0 
  4  5  1  0  0  0  0 
  4  6  1  0  0  0  0 
  4  7  1  0  0  0  0 
  7  8  1  0  0  0  0 
  8  9  1  0  0  0  0 
  8 10  1  0  0  0  0 
  8 11  1  0  0  0  0 
 11 12  2  0  0  0  0 
 12 13  1  0  0  0  0 
 12 14  1  0  0  0  0 
 14 15  1  0  0  0  0 
 15 16  2  0  0  0  0 
 11 16  1  0  0  0  0 
 15 17  1  0  0  0  0 
 17 18  2  0  0  0  0 
 18 19  1  0  0  0  0 
 19 20  1  0  0  0  0 
 19 21  1  0  0  0  0 
 18 22  1  0  0  0  0 
 22 23  1  0  0  0  0 
 22 24  1  0  0  0  0 
  1 25  1  0  0  0  0 
 25 26  2  0  0  0  0 
 26 27  1  0  0  0  0 
 27 28  2  0  0  0  0 
 27 29  2  0  0  0  0 
 27 30  1  0  0  0  0 
 30 31  1  0  0  0  0 
 30 32  1  0  0  0  0 
 25 33  1  4  0  0  0 
 33 34  1  0  0  0  0 
 33 35  1  0  0  0  0 
 35 36  1  0  0  0  0 
 35 37  1  0  0  0  0 
 37 38  1  0  0  0  0 
 37 39  1  0  0  0  0 
 39 40  1  0  0  0  0 
 39 41  1  0  0  0  0 
 41 42  1  0  0  0  0 
 41 43  1  0  0  0  0 
 43 44  1  0  0  0  0 
 43 45  1  0  0  0  0 
 45 46  2  0  0  0  0 
 45 47  1  0  0  0  0 
 47 48  1  0  0  0  0 
 43 49  1  0  0  0  0 
 35 49  1  0  0  0  0 
 41 50  1  0  0  0  0 
 50 51  1  0  0  0  0 
 39 52  1  0  0  0  0 
 52 53  1  0  0  0  0 
 37 54  1  0  0  0  0 
 54 55  1  0  0  0  0 
M  END
> <Rank>
7

> <Priority_score>
0.3877594493963669

> <Reaction_type>
N-glucuronidation_(aliphatic_NH2)

> <Parent_ID>
72

> <Parent_InChI>
InChI=1S/C8H15N7O2S3/c9-6(15-20(12,16)17)1-2-18-3-5-4-19-8(13-5)14-7(10)11/h4H,1-3H2,(H2,9,15)(H2,12,16,17)(H4,10,11,13,14)

> <Parent_SMILES>
NC(N)=Nc1nc(CSCCC(N)=NS(N)(=O)=O)cs1

$$$$
Molecule 72_metabolite 8
  CDK     0516241031

 55 56  0  0  0  0  0  0  0  0999 V2000
    8.9582    3.2180    0.0000 C   0  0  0  0  0  0  0  0  0  0  0  0
    7.6103    2.5599    0.0000 H   0  0  0  0  0  0  0  0  0  0  0  0
    9.3723    1.7763    0.0000 H   0  0  0  0  0  0  0  0  0  0  0  0
    8.0760    4.4312    0.0000 C   0  0  0  0  0  0  0  0  0  0  0  0
    9.4239    5.0893    0.0000 H   0  0  0  0  0  0  0  0  0  0  0  0
    7.6619    5.8729    0.0000 H   0  0  0  0  0  0  0  0  0  0  0  0
    6.1069    4.2233    0.0000 S   0  0  0  0  0  0  0  0  0  0  0  0
    5.2247    5.4365    0.0000 C   0  0  0  0  0  0  0  0  0  0  0  0
    6.5726    6.0946    0.0000 H   0  0  0  0  0  0  0  0  0  0  0  0
    4.8106    6.8782    0.0000 H   0  0  0  0  0  0  0  0  0  0  0  0
    3.7330    5.2790    0.0000 C   0  0  0  0  0  0  0  0  0  0  0  0
    2.7332    6.3874    0.0000 C   0  0  0  0  0  0  0  0  0  0  0  0
    3.0487    7.8538    0.0000 H   0  0  0  0  0  0  0  0  0  0  0  0
    1.3575    5.7845    0.0000 S   0  0  0  0  0  0  0  0  0  0  0  0
    1.5232    4.2916    0.0000 C   0  0  0  0  0  0  0  0  0  0  0  0
    2.9830    3.9800    0.0000 N   0  0  0  0  0  0  0  0  0  0  0  0
    0.4110    3.2851    0.0000 N   0  0  0  0  0  0  0  0  0  0  0  0
   -1.0167    3.7451    0.0000 C   0  0  0  0  0  0  0  0  0  0  0  0
   -1.3322    5.2116    0.0000 N   0  0  0  0  0  0  0  0  0  0  0  0
   -2.7600    5.6715    0.0000 H   0  0  0  0  0  0  0  0  0  0  0  0
   -0.2200    6.2180    0.0000 H   0  0  0  0  0  0  0  0  0  0  0  0
   -2.1289    2.7386    0.0000 N   0  0  0  0  0  0  0  0  0  0  0  0
   -1.8134    1.2722    0.0000 H   0  0  0  0  0  0  0  0  0  0  0  0
   -3.5567    3.1986    0.0000 C   0  0  0  0  0  0  0  0  0  0  0  0
   -2.8559    4.5249    0.0000 H   0  0  0  0  0  0  0  0  0  0  0  0
   -4.7412    4.1189    0.0000 C   0  0  0  0  0  0  0  0  0  0  0  0
   -3.6293    5.1257    0.0000 H   0  0  0  0  0  0  0  0  0  0  0  0
   -6.1310    3.5525    0.0000 C   0  0  0  0  0  0  0  0  0  0  0  0
   -6.4470    5.0188    0.0000 H   0  0  0  0  0  0  0  0  0  0  0  0
   -6.3364    2.0658    0.0000 C   0  0  0  0  0  0  0  0  0  0  0  0
   -7.7641    2.5257    0.0000 H   0  0  0  0  0  0  0  0  0  0  0  0
   -5.1519    1.1455    0.0000 C   0  0  0  0  0  0  0  0  0  0  0  0
   -6.2637    0.1386    0.0000 H   0  0  0  0  0  0  0  0  0  0  0  0
   -4.3533   -0.1243    0.0000 C   0  0  0  0  0  0  0  0  0  0  0  0
   -2.8543   -0.0676    0.0000 O   0  0  0  0  0  0  0  0  0  0  0  0
   -5.0536   -1.4507    0.0000 O   0  0  0  0  0  0  0  0  0  0  0  0
   -6.5525   -1.5075    0.0000 H   0  0  0  0  0  0  0  0  0  0  0  0
   -3.7620    1.7119    0.0000 O   0  0  0  0  0  0  0  0  0  0  0  0
   -7.0371    0.7395    0.0000 O   0  0  0  0  0  0  0  0  0  0  0  0
   -8.5361    0.6833    0.0000 H   0  0  0  0  0  0  0  0  0  0  0  0
   -7.6300    3.4962    0.0000 O   0  0  0  0  0  0  0  0  0  0  0  0
   -8.4282    4.7663    0.0000 H   0  0  0  0  0  0  0  0  0  0  0  0
   -5.5398    5.3887    0.0000 O   0  0  0  0  0  0  0  0  0  0  0  0
   -4.8394    6.7151    0.0000 H   0  0  0  0  0  0  0  0  0  0  0  0
   10.4499    3.3755    0.0000 C   0  0  0  0  0  0  0  0  0  0  0  0
   11.3321    2.1624    0.0000 N   0  0  0  0  0  0  0  0  0  0  0  0
   12.8238    2.3198    0.0000 S   0  0  0  0  0  0  0  0  0  0  0  0
   14.1717    2.9780    0.0000 O   0  0  0  0  0  0  0  0  0  0  0  0
   12.4097    3.7615    0.0000 O   0  0  0  0  0  0  0  0  0  0  0  0
   13.7060    1.1067    0.0000 N   0  0  0  0  0  0  0  0  0  0  0  0
   15.1977    1.2641    0.0000 H   0  0  0  0  0  0  0  0  0  0  0  0
   13.0965   -0.2639    0.0000 H   0  0  0  0  0  0  0  0  0  0  0  0
   11.0594    4.7461    0.0000 N   0  0  0  0  0  0  0  0  0  0  0  0
   12.5511    4.9035    0.0000 H   0  0  0  0  0  0  0  0  0  0  0  0
   10.1772    5.9592    0.0000 H   0  0  0  0  0  0  0  0  0  0  0  0
  1  2  1  0  0  0  0 
  1  3  1  0  0  0  0 
  1  4  1  0  0  0  0 
  4  5  1  0  0  0  0 
  4  6  1  0  0  0  0 
  4  7  1  0  0  0  0 
  7  8  1  0  0  0  0 
  8  9  1  0  0  0  0 
  8 10  1  0  0  0  0 
  8 11  1  0  0  0  0 
 11 12  2  0  0  0  0 
 12 13  1  0  0  0  0 
 12 14  1  0  0  0  0 
 14 15  1  0  0  0  0 
 15 16  2  0  0  0  0 
 11 16  1  0  0  0  0 
 15 17  1  0  0  0  0 
 17 18  2  0  0  0  0 
 18 19  1  4  0  0  0 
 19 20  1  0  0  0  0 
 19 21  1  0  0  0  0 
 18 22  1  0  0  0  0 
 22 23  1  0  0  0  0 
 22 24  1  0  0  0  0 
 24 25  1  0  0  0  0 
 24 26  1  0  0  0  0 
 26 27  1  0  0  0  0 
 26 28  1  0  0  0  0 
 28 29  1  0  0  0  0 
 28 30  1  0  0  0  0 
 30 31  1  0  0  0  0 
 30 32  1  0  0  0  0 
 32 33  1  0  0  0  0 
 32 34  1  0  0  0  0 
 34 35  2  0  0  0  0 
 34 36  1  0  0  0  0 
 36 37  1  0  0  0  0 
 32 38  1  0  0  0  0 
 24 38  1  0  0  0  0 
 30 39  1  0  0  0  0 
 39 40  1  0  0  0  0 
 28 41  1  0  0  0  0 
 41 42  1  0  0  0  0 
 26 43  1  0  0  0  0 
 43 44  1  0  0  0  0 
  1 45  1  0  0  0  0 
 45 46  2  0  0  0  0 
 46 47  1  0  0  0  0 
 47 48  2  0  0  0  0 
 47 49  2  0  0  0  0 
 47 50  1  0  0  0  0 
 50 51  1  0  0  0  0 
 50 52  1  0  0  0  0 
 45 53  1  4  0  0  0 
 53 54  1  0  0  0  0 
 53 55  1  0  0  0  0 
M  END
> <Rank>
8

> <Priority_score>
0.29550150602409636

> <Reaction_type>
N-glucuronidation_(aliphatic_NH2)

> <Parent_ID>
72

> <Parent_InChI>
InChI=1S/C8H15N7O2S3/c9-6(15-20(12,16)17)1-2-18-3-5-4-19-8(13-5)14-7(10)11/h4H,1-3H2,(H2,9,15)(H2,12,16,17)(H4,10,11,13,14)

> <Parent_SMILES>
NC(N)=Nc1nc(CSCCC(N)=NS(N)(=O)=O)cs1

$$$$
Molecule 72_metabolite 9
  CDK     0516241031

 36 36  0  0  0  0  0  0  0  0999 V2000
    3.1735    6.3437    0.0000 C   0  0  0  0  0  0  0  0  0  0  0  0
    1.8256    5.6855    0.0000 H   0  0  0  0  0  0  0  0  0  0  0  0
    3.5875    4.9020    0.0000 H   0  0  0  0  0  0  0  0  0  0  0  0
    2.2912    7.5568    0.0000 C   0  0  0  0  0  0  0  0  0  0  0  0
    3.6391    8.2150    0.0000 H   0  0  0  0  0  0  0  0  0  0  0  0
    1.8772    8.9985    0.0000 H   0  0  0  0  0  0  0  0  0  0  0  0
    0.3222    7.3490    0.0000 S   0  0  0  0  0  0  0  0  0  0  0  0
   -0.5600    8.5621    0.0000 C   0  0  0  0  0  0  0  0  0  0  0  0
    0.7879    9.2203    0.0000 H   0  0  0  0  0  0  0  0  0  0  0  0
   -0.9741   10.0038    0.0000 H   0  0  0  0  0  0  0  0  0  0  0  0
   -2.0517    8.4047    0.0000 C   0  0  0  0  0  0  0  0  0  0  0  0
   -3.0515    9.5130    0.0000 C   0  0  0  0  0  0  0  0  0  0  0  0
   -2.7360   10.9795    0.0000 H   0  0  0  0  0  0  0  0  0  0  0  0
   -4.4273    8.9102    0.0000 S   0  0  0  0  0  0  0  0  0  0  0  0
   -5.7263    9.6602    0.0000 O   0  0  0  0  0  0  0  0  0  0  0  0
   -4.2615    7.4173    0.0000 C   0  0  0  0  0  0  0  0  0  0  0  0
   -2.8017    7.1056    0.0000 N   0  0  0  0  0  0  0  0  0  0  0  0
   -5.3737    6.4108    0.0000 N   0  0  0  0  0  0  0  0  0  0  0  0
   -5.0582    4.9444    0.0000 C   0  0  0  0  0  0  0  0  0  0  0  0
   -6.1704    3.9379    0.0000 N   0  0  0  0  0  0  0  0  0  0  0  0
   -5.8549    2.4714    0.0000 H   0  0  0  0  0  0  0  0  0  0  0  0
   -7.5981    4.3979    0.0000 H   0  0  0  0  0  0  0  0  0  0  0  0
   -3.6305    4.4844    0.0000 N   0  0  0  0  0  0  0  0  0  0  0  0
   -3.3149    3.0179    0.0000 H   0  0  0  0  0  0  0  0  0  0  0  0
   -2.5182    5.4908    0.0000 H   0  0  0  0  0  0  0  0  0  0  0  0
    4.6652    6.5011    0.0000 C   0  0  0  0  0  0  0  0  0  0  0  0
    5.5474    5.2880    0.0000 N   0  0  0  0  0  0  0  0  0  0  0  0
    7.0391    5.4455    0.0000 S   0  0  0  0  0  0  0  0  0  0  0  0
    8.3870    6.1036    0.0000 O   0  0  0  0  0  0  0  0  0  0  0  0
    6.6250    6.8872    0.0000 O   0  0  0  0  0  0  0  0  0  0  0  0
    7.9213    4.2323    0.0000 N   0  0  0  0  0  0  0  0  0  0  0  0
    9.4130    4.3898    0.0000 H   0  0  0  0  0  0  0  0  0  0  0  0
    7.3118    2.8617    0.0000 H   0  0  0  0  0  0  0  0  0  0  0  0
    5.2747    7.8717    0.0000 N   0  0  0  0  0  0  0  0  0  0  0  0
    6.7664    8.0292    0.0000 H   0  0  0  0  0  0  0  0  0  0  0  0
    4.3925    9.0849    0.0000 H   0  0  0  0  0  0  0  0  0  0  0  0
  1  2  1  0  0  0  0 
  1  3  1  0  0  0  0 
  1  4  1  0  0  0  0 
  4  5  1  0  0  0  0 
  4  6  1  0  0  0  0 
  4  7  1  0  0  0  0 
  7  8  1  0  0  0  0 
  8  9  1  0  0  0  0 
  8 10  1  0  0  0  0 
  8 11  1  0  0  0  0 
 11 12  2  0  0  0  0 
 12 13  1  0  0  0  0 
 12 14  1  0  0  0  0 
 14 15  2  0  0  0  0 
 14 16  1  0  0  0  0 
 16 17  2  0  0  0  0 
 11 17  1  0  0  0  0 
 16 18  1  0  0  0  0 
 18 19  2  0  0  0  0 
 19 20  1  0  0  0  0 
 20 21  1  0  0  0  0 
 20 22  1  0  0  0  0 
 19 23  1  0  0  0  0 
 23 24  1  0  0  0  0 
 23 25  1  0  0  0  0 
  1 26  1  0  0  0  0 
 26 27  2  0  0  0  0 
 27 28  1  0  0  0  0 
 28 29  2  0  0  0  0 
 28 30  2  0  0  0  0 
 28 31  1  0  0  0  0 
 31 32  1  0  0  0  0 
 31 33  1  0  0  0  0 
 26 34  1  4  0  0  0 
 34 35  1  0  0  0  0 
 34 36  1  0  0  0  0 
M  END
> <Rank>
9

> <Priority_score>
0.196

> <Reaction_type>
sulfide_oxidation_(c-S-c)

> <Parent_ID>
72

> <Parent_InChI>
InChI=1S/C8H15N7O2S3/c9-6(15-20(12,16)17)1-2-18-3-5-4-19-8(13-5)14-7(10)11/h4H,1-3H2,(H2,9,15)(H2,12,16,17)(H4,10,11,13,14)

> <Parent_SMILES>
NC(N)=Nc1nc(CSCCC(N)=NS(N)(=O)=O)cs1

$$$$
Molecule 72_metabolite 10
  CDK     0516241031

 36 36  0  0  0  0  0  0  0  0999 V2000
    3.4460    4.4917    0.0000 C   0  0  0  0  0  0  0  0  0  0  0  0
    2.0981    3.8336    0.0000 H   0  0  0  0  0  0  0  0  0  0  0  0
    3.8601    3.0500    0.0000 H   0  0  0  0  0  0  0  0  0  0  0  0
    2.5638    5.7049    0.0000 C   0  0  0  0  0  0  0  0  0  0  0  0
    3.9117    6.3630    0.0000 H   0  0  0  0  0  0  0  0  0  0  0  0
    2.1497    7.1466    0.0000 H   0  0  0  0  0  0  0  0  0  0  0  0
    0.5947    5.4970    0.0000 S   0  0  0  0  0  0  0  0  0  0  0  0
   -0.2875    6.7102    0.0000 C   0  0  0  0  0  0  0  0  0  0  0  0
    1.0604    7.3683    0.0000 H   0  0  0  0  0  0  0  0  0  0  0  0
   -0.7016    8.1519    0.0000 H   0  0  0  0  0  0  0  0  0  0  0  0
   -1.7792    6.5527    0.0000 C   0  0  0  0  0  0  0  0  0  0  0  0
   -2.7790    7.6611    0.0000 C   0  0  0  0  0  0  0  0  0  0  0  0
   -2.4634    9.1275    0.0000 H   0  0  0  0  0  0  0  0  0  0  0  0
   -4.1547    7.0582    0.0000 S   0  0  0  0  0  0  0  0  0  0  0  0
   -3.9890    5.5653    0.0000 C   0  0  0  0  0  0  0  0  0  0  0  0
   -2.5292    5.2537    0.0000 N   0  0  0  0  0  0  0  0  0  0  0  0
   -5.1012    4.5588    0.0000 N   0  0  0  0  0  0  0  0  0  0  0  0
   -6.5289    5.0188    0.0000 C   0  0  0  0  0  0  0  0  0  0  0  0
   -7.6411    4.0123    0.0000 N   0  0  0  0  0  0  0  0  0  0  0  0
   -9.0689    4.4723    0.0000 H   0  0  0  0  0  0  0  0  0  0  0  0
   -7.3256    2.5459    0.0000 H   0  0  0  0  0  0  0  0  0  0  0  0
   -6.8444    6.4852    0.0000 N   0  0  0  0  0  0  0  0  0  0  0  0
   -8.2722    6.9452    0.0000 H   0  0  0  0  0  0  0  0  0  0  0  0
   -5.7322    7.4917    0.0000 H   0  0  0  0  0  0  0  0  0  0  0  0
    4.9377    4.6492    0.0000 C   0  0  0  0  0  0  0  0  0  0  0  0
    5.8199    3.4360    0.0000 N   0  0  0  0  0  0  0  0  0  0  0  0
    7.3116    3.5935    0.0000 S   0  0  0  0  0  0  0  0  0  0  0  0
    8.8034    3.7509    0.0000 O   0  0  0  0  0  0  0  0  0  0  0  0
    7.9211    4.9641    0.0000 O   0  0  0  0  0  0  0  0  0  0  0  0
    6.4294    4.8066    0.0000 O   0  0  0  0  0  0  0  0  0  0  0  0
    8.1939    2.3803    0.0000 N   0  0  0  0  0  0  0  0  0  0  0  0
    9.6856    2.5378    0.0000 H   0  0  0  0  0  0  0  0  0  0  0  0
    7.5844    1.0098    0.0000 H   0  0  0  0  0  0  0  0  0  0  0  0
    5.5472    6.0198    0.0000 N   0  0  0  0  0  0  0  0  0  0  0  0
    7.0389    6.1772    0.0000 H   0  0  0  0  0  0  0  0  0  0  0  0
    4.6650    7.2329    0.0000 H   0  0  0  0  0  0  0  0  0  0  0  0
  1  2  1  0  0  0  0 
  1  3  1  0  0  0  0 
  1  4  1  0  0  0  0 
  4  5  1  0  0  0  0 
  4  6  1  0  0  0  0 
  4  7  1  0  0  0  0 
  7  8  1  0  0  0  0 
  8  9  1  0  0  0  0 
  8 10  1  0  0  0  0 
  8 11  1  0  0  0  0 
 11 12  2  0  0  0  0 
 12 13  1  0  0  0  0 
 12 14  1  0  0  0  0 
 14 15  1  0  0  0  0 
 15 16  2  0  0  0  0 
 11 16  1  0  0  0  0 
 15 17  1  0  0  0  0 
 17 18  2  0  0  0  0 
 18 19  1  0  0  0  0 
 19 20  1  0  0  0  0 
 19 21  1  0  0  0  0 
 18 22  1  0  0  0  0 
 22 23  1  0  0  0  0 
 22 24  1  0  0  0  0 
  1 25  1  0  0  0  0 
 25 26  2  0  0  0  0 
 26 27  1  0  0  0  0 
 27 28  2  0  0  0  0 
 27 29  2  0  0  0  0 
 27 30  2  0  0  0  0 
 27 31  1  0  0  0  0 
 31 32  1  0  0  0  0 
 31 33  1  0  0  0  0 
 25 34  1  4  0  0  0 
 34 35  1  0  0  0  0 
 34 36  1  0  0  0  0 
M  END
> <Rank>
9

> <Priority_score>
0.196

> <Reaction_type>
S-oxidation

> <Parent_ID>
72

> <Parent_InChI>
InChI=1S/C8H15N7O2S3/c9-6(15-20(12,16)17)1-2-18-3-5-4-19-8(13-5)14-7(10)11/h4H,1-3H2,(H2,9,15)(H2,12,16,17)(H4,10,11,13,14)

> <Parent_SMILES>
NC(N)=Nc1nc(CSCCC(N)=NS(N)(=O)=O)cs1

$$$$
Molecule 72_metabolite 11
  CDK     0516241031

 36 36  0  0  0  0  0  0  0  0999 V2000
    2.6713    3.0574    0.0000 C   0  0  0  0  0  0  0  0  0  0  0  0
    1.3234    2.3992    0.0000 H   0  0  0  0  0  0  0  0  0  0  0  0
    3.0854    1.6157    0.0000 H   0  0  0  0  0  0  0  0  0  0  0  0
    1.7891    4.2705    0.0000 C   0  0  0  0  0  0  0  0  0  0  0  0
    3.1370    4.9287    0.0000 H   0  0  0  0  0  0  0  0  0  0  0  0
    1.3750    5.7122    0.0000 H   0  0  0  0  0  0  0  0  0  0  0  0
   -0.1800    4.0627    0.0000 S   0  0  0  0  0  0  0  0  0  0  0  0
   -1.0622    5.2758    0.0000 C   0  0  0  0  0  0  0  0  0  0  0  0
    0.2857    5.9340    0.0000 H   0  0  0  0  0  0  0  0  0  0  0  0
   -2.5539    5.1183    0.0000 C   0  0  0  0  0  0  0  0  0  0  0  0
   -3.3003    3.8257    0.0000 C   0  0  0  0  0  0  0  0  0  0  0  0
   -2.6855    2.4574    0.0000 H   0  0  0  0  0  0  0  0  0  0  0  0
   -4.7716    4.1281    0.0000 S   0  0  0  0  0  0  0  0  0  0  0  0
   -4.9211    5.6227    0.0000 C   0  0  0  0  0  0  0  0  0  0  0  0
   -3.5586    6.2322    0.0000 N   0  0  0  0  0  0  0  0  0  0  0  0
   -6.2190    6.3747    0.0000 N   0  0  0  0  0  0  0  0  0  0  0  0
   -7.5192    5.6268    0.0000 C   0  0  0  0  0  0  0  0  0  0  0  0
   -8.8170    6.3789    0.0000 N   0  0  0  0  0  0  0  0  0  0  0  0
  -10.1173    5.6310    0.0000 H   0  0  0  0  0  0  0  0  0  0  0  0
   -8.8146    7.8789    0.0000 H   0  0  0  0  0  0  0  0  0  0  0  0
   -7.5216    4.1268    0.0000 N   0  0  0  0  0  0  0  0  0  0  0  0
   -8.8219    3.3789    0.0000 H   0  0  0  0  0  0  0  0  0  0  0  0
   -6.2238    3.3747    0.0000 H   0  0  0  0  0  0  0  0  0  0  0  0
   -1.4763    6.7175    0.0000 O   0  0  0  0  0  0  0  0  0  0  0  0
   -2.9319    7.0798    0.0000 H   0  0  0  0  0  0  0  0  0  0  0  0
    4.1630    3.2148    0.0000 C   0  0  0  0  0  0  0  0  0  0  0  0
    5.0452    2.0017    0.0000 N   0  0  0  0  0  0  0  0  0  0  0  0
    6.5369    2.1591    0.0000 S   0  0  0  0  0  0  0  0  0  0  0  0
    7.8848    2.8173    0.0000 O   0  0  0  0  0  0  0  0  0  0  0  0
    6.1228    3.6008    0.0000 O   0  0  0  0  0  0  0  0  0  0  0  0
    7.4191    0.9460    0.0000 N   0  0  0  0  0  0  0  0  0  0  0  0
    8.9108    1.1034    0.0000 H   0  0  0  0  0  0  0  0  0  0  0  0
    6.8096   -0.4246    0.0000 H   0  0  0  0  0  0  0  0  0  0  0  0
    4.7725    4.5854    0.0000 N   0  0  0  0  0  0  0  0  0  0  0  0
    6.2642    4.7429    0.0000 H   0  0  0  0  0  0  0  0  0  0  0  0
    3.8903    5.7985    0.0000 H   0  0  0  0  0  0  0  0  0  0  0  0
  1  2  1  0  0  0  0 
  1  3  1  0  0  0  0 
  1  4  1  0  0  0  0 
  4  5  1  0  0  0  0 
  4  6  1  0  0  0  0 
  4  7  1  0  0  0  0 
  7  8  1  0  0  0  0 
  8  9  1  0  0  0  0 
  8 10  1  0  0  0  0 
 10 11  2  0  0  0  0 
 11 12  1  0  0  0  0 
 11 13  1  0  0  0  0 
 13 14  1  0  0  0  0 
 14 15  2  0  0  0  0 
 10 15  1  0  0  0  0 
 14 16  1  0  0  0  0 
 16 17  2  0  0  0  0 
 17 18  1  0  0  0  0 
 18 19  1  0  0  0  0 
 18 20  1  0  0  0  0 
 17 21  1  0  0  0  0 
 21 22  1  0  0  0  0 
 21 23  1  0  0  0  0 
  8 24  1  0  0  0  0 
 24 25  1  0  0  0  0 
  1 26  1  0  0  0  0 
 26 27  2  0  0  0  0 
 27 28  1  0  0  0  0 
 28 29  2  0  0  0  0 
 28 30  2  0  0  0  0 
 28 31  1  0  0  0  0 
 31 32  1  0  0  0  0 
 31 33  1  0  0  0  0 
 26 34  1  4  0  0  0 
 34 35  1  0  0  0  0 
 34 36  1  0  0  0  0 
M  END
> <Rank>
11

> <Priority_score>
0.192

> <Reaction_type>
aliphatic hydroxylation

> <Parent_ID>
72

> <Parent_InChI>
InChI=1S/C8H15N7O2S3/c9-6(15-20(12,16)17)1-2-18-3-5-4-19-8(13-5)14-7(10)11/h4H,1-3H2,(H2,9,15)(H2,12,16,17)(H4,10,11,13,14)

> <Parent_SMILES>
NC(N)=Nc1nc(CSCCC(N)=NS(N)(=O)=O)cs1

$$$$
Molecule 72_metabolite 12
  CDK     0516241031

 36 36  0  0  0  0  0  0  0  0999 V2000
    3.4460    4.4917    0.0000 C   0  0  0  0  0  0  0  0  0  0  0  0
    2.0981    3.8336    0.0000 H   0  0  0  0  0  0  0  0  0  0  0  0
    3.8601    3.0500    0.0000 H   0  0  0  0  0  0  0  0  0  0  0  0
    4.9377    4.6492    0.0000 C   0  0  0  0  0  0  0  0  0  0  0  0
    5.8199    3.4360    0.0000 N   0  0  0  0  0  0  0  0  0  0  0  0
    7.3116    3.5935    0.0000 S   0  0  0  0  0  0  0  0  0  0  0  0
    8.6595    4.2516    0.0000 O   0  0  0  0  0  0  0  0  0  0  0  0
    6.8975    5.0352    0.0000 O   0  0  0  0  0  0  0  0  0  0  0  0
    8.1939    2.3803    0.0000 N   0  0  0  0  0  0  0  0  0  0  0  0
    9.6856    2.5378    0.0000 H   0  0  0  0  0  0  0  0  0  0  0  0
    7.5844    1.0098    0.0000 H   0  0  0  0  0  0  0  0  0  0  0  0
    5.5472    6.0198    0.0000 N   0  0  0  0  0  0  0  0  0  0  0  0
    7.0389    6.1772    0.0000 H   0  0  0  0  0  0  0  0  0  0  0  0
    4.6650    7.2329    0.0000 H   0  0  0  0  0  0  0  0  0  0  0  0
    2.5638    5.7049    0.0000 C   0  0  0  0  0  0  0  0  0  0  0  0
    3.9117    6.3630    0.0000 H   0  0  0  0  0  0  0  0  0  0  0  0
    2.1497    7.1466    0.0000 O   0  0  0  0  0  0  0  0  0  0  0  0
    3.1912    8.2260    0.0000 H   0  0  0  0  0  0  0  0  0  0  0  0
    0.5947    5.4970    0.0000 S   0  0  0  0  0  0  0  0  0  0  0  0
   -0.2875    6.7102    0.0000 C   0  0  0  0  0  0  0  0  0  0  0  0
    1.0604    7.3683    0.0000 H   0  0  0  0  0  0  0  0  0  0  0  0
   -0.7016    8.1519    0.0000 H   0  0  0  0  0  0  0  0  0  0  0  0
   -1.7792    6.5527    0.0000 C   0  0  0  0  0  0  0  0  0  0  0  0
   -2.7790    7.6611    0.0000 C   0  0  0  0  0  0  0  0  0  0  0  0
   -2.4634    9.1275    0.0000 H   0  0  0  0  0  0  0  0  0  0  0  0
   -4.1547    7.0582    0.0000 S   0  0  0  0  0  0  0  0  0  0  0  0
   -3.9890    5.5653    0.0000 C   0  0  0  0  0  0  0  0  0  0  0  0
   -2.5292    5.2537    0.0000 N   0  0  0  0  0  0  0  0  0  0  0  0
   -5.1012    4.5588    0.0000 N   0  0  0  0  0  0  0  0  0  0  0  0
   -6.5289    5.0188    0.0000 C   0  0  0  0  0  0  0  0  0  0  0  0
   -7.6411    4.0123    0.0000 N   0  0  0  0  0  0  0  0  0  0  0  0
   -9.0689    4.4723    0.0000 H   0  0  0  0  0  0  0  0  0  0  0  0
   -7.3256    2.5459    0.0000 H   0  0  0  0  0  0  0  0  0  0  0  0
   -6.8444    6.4852    0.0000 N   0  0  0  0  0  0  0  0  0  0  0  0
   -8.2722    6.9452    0.0000 H   0  0  0  0  0  0  0  0  0  0  0  0
   -5.7322    7.4917    0.0000 H   0  0  0  0  0  0  0  0  0  0  0  0
  1  2  1  0  0  0  0 
  1  3  1  0  0  0  0 
  1  4  1  0  0  0  0 
  4  5  2  0  0  0  0 
  5  6  1  0  0  0  0 
  6  7  2  0  0  0  0 
  6  8  2  0  0  0  0 
  6  9  1  0  0  0  0 
  9 10  1  0  0  0  0 
  9 11  1  0  0  0  0 
  4 12  1  4  0  0  0 
 12 13  1  0  0  0  0 
 12 14  1  0  0  0  0 
  1 15  1  0  0  0  0 
 15 16  1  0  0  0  0 
 15 17  1  0  0  0  0 
 17 18  1  0  0  0  0 
 15 19  1  0  0  0  0 
 19 20  1  0  0  0  0 
 20 21  1  0  0  0  0 
 20 22  1  0  0  0  0 
 20 23  1  0  0  0  0 
 23 24  2  0  0  0  0 
 24 25  1  0  0  0  0 
 24 26  1  0  0  0  0 
 26 27  1  0  0  0  0 
 27 28  2  0  0  0  0 
 23 28  1  0  0  0  0 
 27 29  1  0  0  0  0 
 29 30  2  0  0  0  0 
 30 31  1  0  0  0  0 
 31 32  1  0  0  0  0 
 31 33  1  0  0  0  0 
 30 34  1  0  0  0  0 
 34 35  1  0  0  0  0 
 34 36  1  0  0  0  0 
M  END
> <Rank>
12

> <Priority_score>
0.18337122262267813

> <Reaction_type>
aliphatic hydroxylation

> <Parent_ID>
72

> <Parent_InChI>
InChI=1S/C8H15N7O2S3/c9-6(15-20(12,16)17)1-2-18-3-5-4-19-8(13-5)14-7(10)11/h4H,1-3H2,(H2,9,15)(H2,12,16,17)(H4,10,11,13,14)

> <Parent_SMILES>
NC(N)=Nc1nc(CSCCC(N)=NS(N)(=O)=O)cs1

$$$$
Molecule 72_metabolite 13
  CDK     0516241031

 36 36  0  0  0  0  0  0  0  0999 V2000
   -0.2875    6.7102    0.0000 C   0  0  0  0  0  0  0  0  0  0  0  0
    1.0604    7.3683    0.0000 H   0  0  0  0  0  0  0  0  0  0  0  0
   -0.7016    8.1519    0.0000 H   0  0  0  0  0  0  0  0  0  0  0  0
   -1.7792    6.5527    0.0000 C   0  0  0  0  0  0  0  0  0  0  0  0
   -2.7790    7.6611    0.0000 C   0  0  0  0  0  0  0  0  0  0  0  0
   -2.4634    9.1275    0.0000 H   0  0  0  0  0  0  0  0  0  0  0  0
   -4.1547    7.0582    0.0000 S   0  0  0  0  0  0  0  0  0  0  0  0
   -3.9890    5.5653    0.0000 C   0  0  0  0  0  0  0  0  0  0  0  0
   -2.5292    5.2537    0.0000 N   0  0  0  0  0  0  0  0  0  0  0  0
   -5.1012    4.5588    0.0000 N   0  0  0  0  0  0  0  0  0  0  0  0
   -6.5289    5.0188    0.0000 C   0  0  0  0  0  0  0  0  0  0  0  0
   -7.6411    4.0123    0.0000 N   0  0  0  0  0  0  0  0  0  0  0  0
   -9.0689    4.4723    0.0000 H   0  0  0  0  0  0  0  0  0  0  0  0
   -7.3256    2.5459    0.0000 H   0  0  0  0  0  0  0  0  0  0  0  0
   -6.8444    6.4852    0.0000 N   0  0  0  0  0  0  0  0  0  0  0  0
   -8.2722    6.9452    0.0000 H   0  0  0  0  0  0  0  0  0  0  0  0
   -5.7322    7.4917    0.0000 H   0  0  0  0  0  0  0  0  0  0  0  0
    0.5947    5.4970    0.0000 S   0  0  0  0  0  0  0  0  0  0  0  0
    2.5638    5.7049    0.0000 C   0  0  0  0  0  0  0  0  0  0  0  0
    3.9117    6.3630    0.0000 H   0  0  0  0  0  0  0  0  0  0  0  0
    2.1497    7.1466    0.0000 H   0  0  0  0  0  0  0  0  0  0  0  0
    3.4460    4.4917    0.0000 C   0  0  0  0  0  0  0  0  0  0  0  0
    2.0981    3.8336    0.0000 H   0  0  0  0  0  0  0  0  0  0  0  0
    4.9377    4.6492    0.0000 C   0  0  0  0  0  0  0  0  0  0  0  0
    5.8199    3.4360    0.0000 N   0  0  0  0  0  0  0  0  0  0  0  0
    7.3116    3.5935    0.0000 S   0  0  0  0  0  0  0  0  0  0  0  0
    8.6595    4.2516    0.0000 O   0  0  0  0  0  0  0  0  0  0  0  0
    6.8975    5.0352    0.0000 O   0  0  0  0  0  0  0  0  0  0  0  0
    8.1939    2.3803    0.0000 N   0  0  0  0  0  0  0  0  0  0  0  0
    9.6856    2.5378    0.0000 H   0  0  0  0  0  0  0  0  0  0  0  0
    7.5844    1.0098    0.0000 H   0  0  0  0  0  0  0  0  0  0  0  0
    5.5472    6.0198    0.0000 N   0  0  0  0  0  0  0  0  0  0  0  0
    7.0389    6.1772    0.0000 H   0  0  0  0  0  0  0  0  0  0  0  0
    4.6650    7.2329    0.0000 H   0  0  0  0  0  0  0  0  0  0  0  0
    3.8601    3.0500    0.0000 O   0  0  0  0  0  0  0  0  0  0  0  0
    5.3157    2.6878    0.0000 H   0  0  0  0  0  0  0  0  0  0  0  0
  1  2  1  0  0  0  0 
  1  3  1  0  0  0  0 
  1  4  1  0  0  0  0 
  4  5  2  0  0  0  0 
  5  6  1  0  0  0  0 
  5  7  1  0  0  0  0 
  7  8  1  0  0  0  0 
  8  9  2  0  0  0  0 
  4  9  1  0  0  0  0 
  8 10  1  0  0  0  0 
 10 11  2  0  0  0  0 
 11 12  1  0  0  0  0 
 12 13  1  0  0  0  0 
 12 14  1  0  0  0  0 
 11 15  1  0  0  0  0 
 15 16  1  0  0  0  0 
 15 17  1  0  0  0  0 
  1 18  1  0  0  0  0 
 18 19  1  0  0  0  0 
 19 20  1  0  0  0  0 
 19 21  1  0  0  0  0 
 19 22  1  0  0  0  0 
 22 23  1  0  0  0  0 
 22 24  1  0  0  0  0 
 24 25  2  0  0  0  0 
 25 26  1  0  0  0  0 
 26 27  2  0  0  0  0 
 26 28  2  0  0  0  0 
 26 29  1  0  0  0  0 
 29 30  1  0  0  0  0 
 29 31  1  0  0  0  0 
 24 32  1  4  0  0  0 
 32 33  1  0  0  0  0 
 32 34  1  0  0  0  0 
 22 35  1  0  0  0  0 
 35 36  1  0  0  0  0 
M  END
> <Rank>
12

> <Priority_score>
0.18337122262267813

> <Reaction_type>
aliphatic_hydroxylation_(sec_carbon_next_to_SP2,not_in_a_ring)

> <Parent_ID>
72

> <Parent_InChI>
InChI=1S/C8H15N7O2S3/c9-6(15-20(12,16)17)1-2-18-3-5-4-19-8(13-5)14-7(10)11/h4H,1-3H2,(H2,9,15)(H2,12,16,17)(H4,10,11,13,14)

> <Parent_SMILES>
NC(N)=Nc1nc(CSCCC(N)=NS(N)(=O)=O)cs1

$$$$
Molecule 72_metabolite 14
  CDK     0516241031

 36 36  0  0  0  0  0  0  0  0999 V2000
    2.3272    3.8458    0.0000 C   0  0  0  0  0  0  0  0  0  0  0  0
    0.9793    3.1876    0.0000 H   0  0  0  0  0  0  0  0  0  0  0  0
    2.7413    2.4041    0.0000 H   0  0  0  0  0  0  0  0  0  0  0  0
    1.4450    5.0589    0.0000 C   0  0  0  0  0  0  0  0  0  0  0  0
    2.7929    5.7171    0.0000 H   0  0  0  0  0  0  0  0  0  0  0  0
    1.0309    6.5006    0.0000 H   0  0  0  0  0  0  0  0  0  0  0  0
   -0.5241    4.8511    0.0000 S   0  0  0  0  0  0  0  0  0  0  0  0
   -1.4063    6.0642    0.0000 C   0  0  0  0  0  0  0  0  0  0  0  0
   -0.0584    6.7224    0.0000 H   0  0  0  0  0  0  0  0  0  0  0  0
   -1.8204    7.5059    0.0000 H   0  0  0  0  0  0  0  0  0  0  0  0
   -2.8980    5.9068    0.0000 C   0  0  0  0  0  0  0  0  0  0  0  0
   -3.8977    7.0151    0.0000 C   0  0  0  0  0  0  0  0  0  0  0  0
   -3.5822    8.4816    0.0000 H   0  0  0  0  0  0  0  0  0  0  0  0
   -5.2735    6.4123    0.0000 S   0  0  0  0  0  0  0  0  0  0  0  0
   -5.1077    4.9194    0.0000 C   0  0  0  0  0  0  0  0  0  0  0  0
   -3.6480    4.6077    0.0000 N   0  0  0  0  0  0  0  0  0  0  0  0
   -6.2200    3.9129    0.0000 N   0  0  0  0  0  0  0  0  0  0  0  0
   -7.6477    4.3729    0.0000 C   0  0  0  0  0  0  0  0  0  0  0  0
   -8.7599    3.3664    0.0000 N   0  0  0  0  0  0  0  0  0  0  0  0
  -10.1876    3.8264    0.0000 H   0  0  0  0  0  0  0  0  0  0  0  0
   -8.4444    1.9000    0.0000 H   0  0  0  0  0  0  0  0  0  0  0  0
   -7.9632    5.8393    0.0000 N   0  0  0  0  0  0  0  0  0  0  0  0
   -9.3910    6.2993    0.0000 H   0  0  0  0  0  0  0  0  0  0  0  0
   -6.8510    6.8458    0.0000 H   0  0  0  0  0  0  0  0  0  0  0  0
    3.8189    4.0032    0.0000 C   0  0  0  0  0  0  0  0  0  0  0  0
    4.7011    2.7901    0.0000 N   0  0  0  0  0  0  0  0  0  0  0  0
    6.1929    2.9476    0.0000 S   0  0  0  0  0  0  0  0  0  0  0  0
    7.5408    3.6057    0.0000 O   0  0  0  0  0  0  0  0  0  0  0  0
    5.7788    4.3893    0.0000 O   0  0  0  0  0  0  0  0  0  0  0  0
    7.0751    1.7344    0.0000 N   0  0  0  0  0  0  0  0  0  0  0  0
    8.5668    1.8919    0.0000 H   0  0  0  0  0  0  0  0  0  0  0  0
    6.4656    0.3638    0.0000 H   0  0  0  0  0  0  0  0  0  0  0  0
    4.4284    5.3738    0.0000 N   0  0  0  0  0  0  0  0  0  0  0  0
    3.5462    6.5870    0.0000 H   0  0  0  0  0  0  0  0  0  0  0  0
    5.9201    5.5313    0.0000 O   0  0  0  0  0  0  0  0  0  0  0  0
    6.5296    6.9019    0.0000 H   0  0  0  0  0  0  0  0  0  0  0  0
  1  2  1  0  0  0  0 
  1  3  1  0  0  0  0 
  1  4  1  0  0  0  0 
  4  5  1  0  0  0  0 
  4  6  1  0  0  0  0 
  4  7  1  0  0  0  0 
  7  8  1  0  0  0  0 
  8  9  1  0  0  0  0 
  8 10  1  0  0  0  0 
  8 11  1  0  0  0  0 
 11 12  2  0  0  0  0 
 12 13  1  0  0  0  0 
 12 14  1  0  0  0  0 
 14 15  1  0  0  0  0 
 15 16  2  0  0  0  0 
 11 16  1  0  0  0  0 
 15 17  1  0  0  0  0 
 17 18  2  0  0  0  0 
 18 19  1  0  0  0  0 
 19 20  1  0  0  0  0 
 19 21  1  0  0  0  0 
 18 22  1  0  0  0  0 
 22 23  1  0  0  0  0 
 22 24  1  0  0  0  0 
  1 25  1  0  0  0  0 
 25 26  2  0  0  0  0 
 26 27  1  0  0  0  0 
 27 28  2  0  0  0  0 
 27 29  2  0  0  0  0 
 27 30  1  0  0  0  0 
 30 31  1  0  0  0  0 
 30 32  1  0  0  0  0 
 25 33  1  4  0  0  0 
 33 34  1  0  0  0  0 
 33 35  1  0  0  0  0 
 35 36  1  0  0  0  0 
M  END
> <Rank>
14

> <Priority_score>
0.16

> <Reaction_type>
amine hydroxylation

> <Parent_ID>
72

> <Parent_InChI>
InChI=1S/C8H15N7O2S3/c9-6(15-20(12,16)17)1-2-18-3-5-4-19-8(13-5)14-7(10)11/h4H,1-3H2,(H2,9,15)(H2,12,16,17)(H4,10,11,13,14)

> <Parent_SMILES>
NC(N)=Nc1nc(CSCCC(N)=NS(N)(=O)=O)cs1

$$$$
Molecule 72_metabolite 15
  CDK     0516241031

 36 36  0  0  0  0  0  0  0  0999 V2000
    3.9193    4.7650    0.0000 C   0  0  0  0  0  0  0  0  0  0  0  0
    2.5714    4.1068    0.0000 H   0  0  0  0  0  0  0  0  0  0  0  0
    4.3334    3.3233    0.0000 H   0  0  0  0  0  0  0  0  0  0  0  0
    3.0371    5.9781    0.0000 C   0  0  0  0  0  0  0  0  0  0  0  0
    4.3850    6.6363    0.0000 H   0  0  0  0  0  0  0  0  0  0  0  0
    2.6230    7.4198    0.0000 H   0  0  0  0  0  0  0  0  0  0  0  0
    1.0680    5.7703    0.0000 S   0  0  0  0  0  0  0  0  0  0  0  0
    0.1858    6.9834    0.0000 C   0  0  0  0  0  0  0  0  0  0  0  0
    1.5337    7.6416    0.0000 H   0  0  0  0  0  0  0  0  0  0  0  0
   -0.2283    8.4251    0.0000 H   0  0  0  0  0  0  0  0  0  0  0  0
   -1.3059    6.8259    0.0000 C   0  0  0  0  0  0  0  0  0  0  0  0
   -2.3057    7.9343    0.0000 C   0  0  0  0  0  0  0  0  0  0  0  0
   -1.9902    9.4008    0.0000 H   0  0  0  0  0  0  0  0  0  0  0  0
   -3.6814    7.3314    0.0000 S   0  0  0  0  0  0  0  0  0  0  0  0
   -3.5157    5.8385    0.0000 C   0  0  0  0  0  0  0  0  0  0  0  0
   -2.0559    5.5269    0.0000 N   0  0  0  0  0  0  0  0  0  0  0  0
   -4.6279    4.8321    0.0000 N   0  0  0  0  0  0  0  0  0  0  0  0
   -6.0556    5.2920    0.0000 C   0  0  0  0  0  0  0  0  0  0  0  0
   -6.3712    6.7585    0.0000 N   0  0  0  0  0  0  0  0  0  0  0  0
   -7.7989    7.2185    0.0000 H   0  0  0  0  0  0  0  0  0  0  0  0
   -5.2589    7.7650    0.0000 H   0  0  0  0  0  0  0  0  0  0  0  0
   -7.1678    4.2856    0.0000 N   0  0  0  0  0  0  0  0  0  0  0  0
   -6.8523    2.8191    0.0000 H   0  0  0  0  0  0  0  0  0  0  0  0
   -8.5956    4.7455    0.0000 O   0  0  0  0  0  0  0  0  0  0  0  0
   -9.7078    3.7391    0.0000 H   0  0  0  0  0  0  0  0  0  0  0  0
    5.4110    4.9224    0.0000 C   0  0  0  0  0  0  0  0  0  0  0  0
    6.2932    3.7093    0.0000 N   0  0  0  0  0  0  0  0  0  0  0  0
    7.7849    3.8667    0.0000 S   0  0  0  0  0  0  0  0  0  0  0  0
    9.1328    4.5249    0.0000 O   0  0  0  0  0  0  0  0  0  0  0  0
    7.3708    5.3084    0.0000 O   0  0  0  0  0  0  0  0  0  0  0  0
    8.6671    2.6536    0.0000 N   0  0  0  0  0  0  0  0  0  0  0  0
   10.1588    2.8110    0.0000 H   0  0  0  0  0  0  0  0  0  0  0  0
    8.0576    1.2830    0.0000 H   0  0  0  0  0  0  0  0  0  0  0  0
    6.0205    6.2930    0.0000 N   0  0  0  0  0  0  0  0  0  0  0  0
    7.5122    6.4505    0.0000 H   0  0  0  0  0  0  0  0  0  0  0  0
    5.1383    7.5061    0.0000 H   0  0  0  0  0  0  0  0  0  0  0  0
  1  2  1  0  0  0  0 
  1  3  1  0  0  0  0 
  1  4  1  0  0  0  0 
  4  5  1  0  0  0  0 
  4  6  1  0  0  0  0 
  4  7  1  0  0  0  0 
  7  8  1  0  0  0  0 
  8  9  1  0  0  0  0 
  8 10  1  0  0  0  0 
  8 11  1  0  0  0  0 
 11 12  2  0  0  0  0 
 12 13  1  0  0  0  0 
 12 14  1  0  0  0  0 
 14 15  1  0  0  0  0 
 15 16  2  0  0  0  0 
 11 16  1  0  0  0  0 
 15 17  1  0  0  0  0 
 17 18  2  0  0  0  0 
 18 19  1  4  0  0  0 
 19 20  1  0  0  0  0 
 19 21  1  0  0  0  0 
 18 22  1  0  0  0  0 
 22 23  1  0  0  0  0 
 22 24  1  0  0  0  0 
 24 25  1  0  0  0  0 
  1 26  1  0  0  0  0 
 26 27  2  0  0  0  0 
 27 28  1  0  0  0  0 
 28 29  2  0  0  0  0 
 28 30  2  0  0  0  0 
 28 31  1  0  0  0  0 
 31 32  1  0  0  0  0 
 31 33  1  0  0  0  0 
 26 34  1  4  0  0  0 
 34 35  1  0  0  0  0 
 34 36  1  0  0  0  0 
M  END
> <Rank>
15

> <Priority_score>
0.156

> <Reaction_type>
amine hydroxylation

> <Parent_ID>
72

> <Parent_InChI>
InChI=1S/C8H15N7O2S3/c9-6(15-20(12,16)17)1-2-18-3-5-4-19-8(13-5)14-7(10)11/h4H,1-3H2,(H2,9,15)(H2,12,16,17)(H4,10,11,13,14)

> <Parent_SMILES>
NC(N)=Nc1nc(CSCCC(N)=NS(N)(=O)=O)cs1

$$$$
Molecule 72_metabolite 16
  CDK     0516241031

 36 36  0  0  0  0  0  0  0  0999 V2000
    3.4460    4.4917    0.0000 C   0  0  0  0  0  0  0  0  0  0  0  0
    2.0981    3.8336    0.0000 H   0  0  0  0  0  0  0  0  0  0  0  0
    3.8601    3.0500    0.0000 H   0  0  0  0  0  0  0  0  0  0  0  0
    2.5638    5.7049    0.0000 C   0  0  0  0  0  0  0  0  0  0  0  0
    3.9117    6.3630    0.0000 H   0  0  0  0  0  0  0  0  0  0  0  0
    2.1497    7.1466    0.0000 H   0  0  0  0  0  0  0  0  0  0  0  0
    0.5947    5.4970    0.0000 S   0  0  0  0  0  0  0  0  0  0  0  0
   -0.2875    6.7102    0.0000 C   0  0  0  0  0  0  0  0  0  0  0  0
    1.0604    7.3683    0.0000 H   0  0  0  0  0  0  0  0  0  0  0  0
   -0.7016    8.1519    0.0000 H   0  0  0  0  0  0  0  0  0  0  0  0
   -1.7792    6.5527    0.0000 C   0  0  0  0  0  0  0  0  0  0  0  0
   -2.7790    7.6611    0.0000 C   0  0  0  0  0  0  0  0  0  0  0  0
   -2.4634    9.1275    0.0000 H   0  0  0  0  0  0  0  0  0  0  0  0
   -4.1547    7.0582    0.0000 S   0  0  0  0  0  0  0  0  0  0  0  0
   -3.9890    5.5653    0.0000 C   0  0  0  0  0  0  0  0  0  0  0  0
   -2.5292    5.2537    0.0000 N   0  0  0  0  0  0  0  0  0  0  0  0
   -5.1012    4.5588    0.0000 N   0  0  0  0  0  0  0  0  0  0  0  0
   -6.5289    5.0188    0.0000 C   0  0  0  0  0  0  0  0  0  0  0  0
   -7.6411    4.0123    0.0000 N   0  0  0  0  0  0  0  0  0  0  0  0
   -9.0689    4.4723    0.0000 H   0  0  0  0  0  0  0  0  0  0  0  0
   -7.3256    2.5459    0.0000 H   0  0  0  0  0  0  0  0  0  0  0  0
   -6.8444    6.4852    0.0000 N   0  0  0  0  0  0  0  0  0  0  0  0
   -8.2722    6.9452    0.0000 H   0  0  0  0  0  0  0  0  0  0  0  0
   -5.7322    7.4917    0.0000 H   0  0  0  0  0  0  0  0  0  0  0  0
   -4.7857    3.0924    0.0000 O   0  0  0  0  0  0  0  0  0  0  0  0
    4.9377    4.6492    0.0000 C   0  0  0  0  0  0  0  0  0  0  0  0
    5.8199    3.4360    0.0000 N   0  0  0  0  0  0  0  0  0  0  0  0
    7.3116    3.5935    0.0000 S   0  0  0  0  0  0  0  0  0  0  0  0
    8.6595    4.2516    0.0000 O   0  0  0  0  0  0  0  0  0  0  0  0
    6.8975    5.0352    0.0000 O   0  0  0  0  0  0  0  0  0  0  0  0
    8.1939    2.3803    0.0000 N   0  0  0  0  0  0  0  0  0  0  0  0
    9.6856    2.5378    0.0000 H   0  0  0  0  0  0  0  0  0  0  0  0
    7.5844    1.0098    0.0000 H   0  0  0  0  0  0  0  0  0  0  0  0
    5.5472    6.0198    0.0000 N   0  0  0  0  0  0  0  0  0  0  0  0
    7.0389    6.1772    0.0000 H   0  0  0  0  0  0  0  0  0  0  0  0
    4.6650    7.2329    0.0000 H   0  0  0  0  0  0  0  0  0  0  0  0
  1  2  1  0  0  0  0 
  1  3  1  0  0  0  0 
  1  4  1  0  0  0  0 
  4  5  1  0  0  0  0 
  4  6  1  0  0  0  0 
  4  7  1  0  0  0  0 
  7  8  1  0  0  0  0 
  8  9  1  0  0  0  0 
  8 10  1  0  0  0  0 
  8 11  1  0  0  0  0 
 11 12  2  0  0  0  0 
 12 13  1  0  0  0  0 
 12 14  1  0  0  0  0 
 14 15  1  0  0  0  0 
 15 16  2  0  0  0  0 
 11 16  1  0  0  0  0 
 15 17  1  0  0  0  0 
 17 18  2  0  0  0  0 
 18 19  1  0  0  0  0 
 19 20  1  0  0  0  0 
 19 21  1  0  0  0  0 
 18 22  1  0  0  0  0 
 22 23  1  0  0  0  0 
 22 24  1  0  0  0  0 
 17 25  1  0  0  0  0 
  1 26  1  0  0  0  0 
 26 27  2  0  0  0  0 
 27 28  1  0  0  0  0 
 28 29  2  0  0  0  0 
 28 30  2  0  0  0  0 
 28 31  1  0  0  0  0 
 31 32  1  0  0  0  0 
 31 33  1  0  0  0  0 
 26 34  1  4  0  0  0 
 34 35  1  0  0  0  0 
 34 36  1  0  0  0  0 
M  CHG  1  17   1
M  CHG  1  25  -1
M  END
> <Rank>
16

> <Priority_score>
0.14

> <Reaction_type>
N-oxidation

> <Parent_ID>
72

> <Parent_InChI>
InChI=1S/C8H15N7O2S3/c9-6(15-20(12,16)17)1-2-18-3-5-4-19-8(13-5)14-7(10)11/h4H,1-3H2,(H2,9,15)(H2,12,16,17)(H4,10,11,13,14)

> <Parent_SMILES>
NC(N)=Nc1nc(CSCCC(N)=NS(N)(=O)=O)cs1

$$$$
Molecule 72_metabolite 17
  CDK     0516241031

 29 29  0  0  0  0  0  0  0  0999 V2000
   -5.7802    3.5296    0.0000 C   0  0  0  0  0  0  0  0  0  0  0  0
   -7.1281    2.8714    0.0000 H   0  0  0  0  0  0  0  0  0  0  0  0
   -5.3661    2.0879    0.0000 H   0  0  0  0  0  0  0  0  0  0  0  0
   -4.2884    3.6870    0.0000 C   0  0  0  0  0  0  0  0  0  0  0  0
   -2.9405    4.3452    0.0000 H   0  0  0  0  0  0  0  0  0  0  0  0
   -4.7025    5.1287    0.0000 H   0  0  0  0  0  0  0  0  0  0  0  0
   -3.1239    2.0857    0.0000 S   0  0  0  0  0  0  0  0  0  0  0  0
   -1.6322    2.2431    0.0000 C   0  0  0  0  0  0  0  0  0  0  0  0
   -0.2843    2.9013    0.0000 H   0  0  0  0  0  0  0  0  0  0  0  0
   -2.0463    3.6848    0.0000 H   0  0  0  0  0  0  0  0  0  0  0  0
   -0.7500    1.0300    0.0000 C   0  0  0  0  0  0  0  0  0  0  0  0
   -1.2100   -0.3900    0.0000 C   0  0  0  0  0  0  0  0  0  0  0  0
   -2.6377   -0.8500    0.0000 H   0  0  0  0  0  0  0  0  0  0  0  0
    0.0000   -1.2800    0.0000 S   0  0  0  0  0  0  0  0  0  0  0  0
    1.2100   -0.3900    0.0000 C   0  0  0  0  0  0  0  0  0  0  0  0
    2.6377   -0.8500    0.0000 O   0  0  0  0  0  0  0  0  0  0  0  0
    0.7500    1.0300    0.0000 N   0  0  0  0  0  0  0  0  0  0  0  0
    1.6322    2.2431    0.0000 H   0  0  0  0  0  0  0  0  0  0  0  0
   -6.6624    4.7427    0.0000 C   0  0  0  0  0  0  0  0  0  0  0  0
   -8.1541    4.5853    0.0000 N   0  0  0  0  0  0  0  0  0  0  0  0
   -9.0363    5.7984    0.0000 S   0  0  0  0  0  0  0  0  0  0  0  0
   -7.6884    6.4565    0.0000 O   0  0  0  0  0  0  0  0  0  0  0  0
   -9.4504    7.2401    0.0000 O   0  0  0  0  0  0  0  0  0  0  0  0
  -10.5280    5.6409    0.0000 N   0  0  0  0  0  0  0  0  0  0  0  0
  -11.4102    6.8541    0.0000 H   0  0  0  0  0  0  0  0  0  0  0  0
  -11.1375    4.2704    0.0000 H   0  0  0  0  0  0  0  0  0  0  0  0
   -6.0529    6.1133    0.0000 N   0  0  0  0  0  0  0  0  0  0  0  0
   -6.9351    7.3264    0.0000 H   0  0  0  0  0  0  0  0  0  0  0  0
   -4.5612    6.2707    0.0000 H   0  0  0  0  0  0  0  0  0  0  0  0
  1  2  1  0  0  0  0 
  1  3  1  0  0  0  0 
  1  4  1  0  0  0  0 
  4  5  1  0  0  0  0 
  4  6  1  0  0  0  0 
  4  7  1  0  0  0  0 
  7  8  1  0  0  0  0 
  8  9  1  0  0  0  0 
  8 10  1  0  0  0  0 
  8 11  1  0  0  0  0 
 11 12  2  0  0  0  0 
 12 13  1  0  0  0  0 
 12 14  1  0  0  0  0 
 14 15  1  0  0  0  0 
 15 16  2  0  0  0  0 
 15 17  1  0  0  0  0 
 11 17  1  0  0  0  0 
 17 18  1  0  0  0  0 
  1 19  1  0  0  0  0 
 19 20  2  0  0  0  0 
 20 21  1  0  0  0  0 
 21 22  2  0  0  0  0 
 21 23  2  0  0  0  0 
 21 24  1  0  0  0  0 
 24 25  1  0  0  0  0 
 24 26  1  0  0  0  0 
 19 27  1  4  0  0  0 
 27 28  1  0  0  0  0 
 27 29  1  0  0  0  0 
M  END
> <Rank>
16

> <Priority_score>
0.14

> <Reaction_type>
oxidative_deamination_(aromatic)

> <Parent_ID>
72

> <Parent_InChI>
InChI=1S/C8H15N7O2S3/c9-6(15-20(12,16)17)1-2-18-3-5-4-19-8(13-5)14-7(10)11/h4H,1-3H2,(H2,9,15)(H2,12,16,17)(H4,10,11,13,14)

> <Parent_SMILES>
NC(N)=Nc1nc(CSCCC(N)=NS(N)(=O)=O)cs1

$$$$
Molecule 72_metabolite 18
  CDK     0516241031

  9  8  0  0  0  0  0  0  0  0999 V2000
    2.5981   -0.0000    0.0000 C   0  0  0  0  0  0  0  0  0  0  0  0
    1.2990   -0.7500    0.0000 N   0  0  0  0  0  0  0  0  0  0  0  0
    0.0000    0.0000    0.0000 H   0  0  0  0  0  0  0  0  0  0  0  0
    3.8971   -0.7500    0.0000 N   0  0  0  0  0  0  0  0  0  0  0  0
    5.1962   -0.0000    0.0000 H   0  0  0  0  0  0  0  0  0  0  0  0
    3.8971   -2.2500    0.0000 H   0  0  0  0  0  0  0  0  0  0  0  0
    2.5981    1.5000    0.0000 N   0  0  0  0  0  0  0  0  0  0  0  0
    1.2990    2.2500    0.0000 H   0  0  0  0  0  0  0  0  0  0  0  0
    3.8971    2.2500    0.0000 H   0  0  0  0  0  0  0  0  0  0  0  0
  1  2  2  0  0  0  0 
  2  3  1  0  0  0  0 
  1  4  1  0  0  0  0 
  4  5  1  0  0  0  0 
  4  6  1  0  0  0  0 
  1  7  1  0  0  0  0 
  7  8  1  0  0  0  0 
  7  9  1  0  0  0  0 
M  END
> <Rank>
16

> <Priority_score>
0.14

> <Reaction_type>
oxidative_deamination_(aromatic)

> <Parent_ID>
72

> <Parent_InChI>
InChI=1S/C8H15N7O2S3/c9-6(15-20(12,16)17)1-2-18-3-5-4-19-8(13-5)14-7(10)11/h4H,1-3H2,(H2,9,15)(H2,12,16,17)(H4,10,11,13,14)

> <Parent_SMILES>
NC(N)=Nc1nc(CSCCC(N)=NS(N)(=O)=O)cs1

$$$$
Molecule 72_metabolite 19
  CDK     0516241031

 36 36  0  0  0  0  0  0  0  0999 V2000
   -5.7802    3.5296    0.0000 C   0  0  0  0  0  0  0  0  0  0  0  0
   -7.1281    2.8714    0.0000 H   0  0  0  0  0  0  0  0  0  0  0  0
   -5.3661    2.0879    0.0000 H   0  0  0  0  0  0  0  0  0  0  0  0
   -4.2884    3.6870    0.0000 C   0  0  0  0  0  0  0  0  0  0  0  0
   -2.9405    4.3452    0.0000 H   0  0  0  0  0  0  0  0  0  0  0  0
   -4.7025    5.1287    0.0000 H   0  0  0  0  0  0  0  0  0  0  0  0
   -3.1239    2.0857    0.0000 S   0  0  0  0  0  0  0  0  0  0  0  0
   -1.6322    2.2431    0.0000 C   0  0  0  0  0  0  0  0  0  0  0  0
   -0.2843    2.9013    0.0000 H   0  0  0  0  0  0  0  0  0  0  0  0
   -2.0463    3.6848    0.0000 H   0  0  0  0  0  0  0  0  0  0  0  0
   -0.7500    1.0300    0.0000 C   0  0  0  0  0  0  0  0  0  0  0  0
   -1.2100   -0.3900    0.0000 C   0  0  0  0  0  0  0  0  0  0  0  0
   -2.6377   -0.8500    0.0000 H   0  0  0  0  0  0  0  0  0  0  0  0
    0.0000   -1.2800    0.0000 S   0  0  0  0  0  0  0  0  0  0  0  0
    1.2100   -0.3900    0.0000 C   0  0  0  0  0  0  0  0  0  0  0  0
    0.7500    1.0300    0.0000 N   0  0  0  0  0  0  0  0  0  0  0  0
    1.6322    2.2431    0.0000 O   0  0  0  0  0  0  0  0  0  0  0  0
    2.6377   -0.8500    0.0000 N   0  0  0  0  0  0  0  0  0  0  0  0
    2.9533   -2.3164    0.0000 C   0  0  0  0  0  0  0  0  0  0  0  0
    4.3810   -2.7764    0.0000 N   0  0  0  0  0  0  0  0  0  0  0  0
    4.6965   -4.2428    0.0000 H   0  0  0  0  0  0  0  0  0  0  0  0
    5.4932   -1.7699    0.0000 H   0  0  0  0  0  0  0  0  0  0  0  0
    1.8410   -3.3229    0.0000 N   0  0  0  0  0  0  0  0  0  0  0  0
    2.1566   -4.7893    0.0000 H   0  0  0  0  0  0  0  0  0  0  0  0
    0.4133   -2.8629    0.0000 H   0  0  0  0  0  0  0  0  0  0  0  0
   -6.6624    4.7427    0.0000 C   0  0  0  0  0  0  0  0  0  0  0  0
   -8.1541    4.5853    0.0000 N   0  0  0  0  0  0  0  0  0  0  0  0
   -9.0363    5.7984    0.0000 S   0  0  0  0  0  0  0  0  0  0  0  0
   -7.6884    6.4565    0.0000 O   0  0  0  0  0  0  0  0  0  0  0  0
   -9.4504    7.2401    0.0000 O   0  0  0  0  0  0  0  0  0  0  0  0
  -10.5280    5.6409    0.0000 N   0  0  0  0  0  0  0  0  0  0  0  0
  -11.4102    6.8541    0.0000 H   0  0  0  0  0  0  0  0  0  0  0  0
  -11.1375    4.2704    0.0000 H   0  0  0  0  0  0  0  0  0  0  0  0
   -6.0529    6.1133    0.0000 N   0  0  0  0  0  0  0  0  0  0  0  0
   -6.9351    7.3264    0.0000 H   0  0  0  0  0  0  0  0  0  0  0  0
   -4.5612    6.2707    0.0000 H   0  0  0  0  0  0  0  0  0  0  0  0
  1  2  1  0  0  0  0 
  1  3  1  0  0  0  0 
  1  4  1  0  0  0  0 
  4  5  1  0  0  0  0 
  4  6  1  0  0  0  0 
  4  7  1  0  0  0  0 
  7  8  1  0  0  0  0 
  8  9  1  0  0  0  0 
  8 10  1  0  0  0  0 
  8 11  1  0  0  0  0 
 11 12  2  0  0  0  0 
 12 13  1  0  0  0  0 
 12 14  1  0  0  0  0 
 14 15  1  0  0  0  0 
 15 16  2  0  0  0  0 
 11 16  1  0  0  0  0 
 16 17  1  0  0  0  0 
 15 18  1  0  0  0  0 
 18 19  2  0  0  0  0 
 19 20  1  0  0  0  0 
 20 21  1  0  0  0  0 
 20 22  1  0  0  0  0 
 19 23  1  0  0  0  0 
 23 24  1  0  0  0  0 
 23 25  1  0  0  0  0 
  1 26  1  0  0  0  0 
 26 27  2  0  0  0  0 
 27 28  1  0  0  0  0 
 28 29  2  0  0  0  0 
 28 30  2  0  0  0  0 
 28 31  1  0  0  0  0 
 31 32  1  0  0  0  0 
 31 33  1  0  0  0  0 
 26 34  1  4  0  0  0 
 34 35  1  0  0  0  0 
 34 36  1  0  0  0  0 
M  CHG  1  16   1
M  CHG  1  17  -1
M  END
> <Rank>
19

> <Priority_score>
0.08384080859128239

> <Reaction_type>
N-oxidation_(-N=)

> <Parent_ID>
72

> <Parent_InChI>
InChI=1S/C8H15N7O2S3/c9-6(15-20(12,16)17)1-2-18-3-5-4-19-8(13-5)14-7(10)11/h4H,1-3H2,(H2,9,15)(H2,12,16,17)(H4,10,11,13,14)

> <Parent_SMILES>
NC(N)=Nc1nc(CSCCC(N)=NS(N)(=O)=O)cs1

$$$$
Molecule 72_metabolite 20
  CDK     0516241031

 36 36  0  0  0  0  0  0  0  0999 V2000
    3.4460    4.4917    0.0000 C   0  0  0  0  0  0  0  0  0  0  0  0
    2.0981    3.8336    0.0000 H   0  0  0  0  0  0  0  0  0  0  0  0
    3.8601    3.0500    0.0000 H   0  0  0  0  0  0  0  0  0  0  0  0
    2.5638    5.7049    0.0000 C   0  0  0  0  0  0  0  0  0  0  0  0
    3.9117    6.3630    0.0000 H   0  0  0  0  0  0  0  0  0  0  0  0
    2.1497    7.1466    0.0000 H   0  0  0  0  0  0  0  0  0  0  0  0
    0.5947    5.4970    0.0000 S   0  0  0  0  0  0  0  0  0  0  0  0
   -0.2875    6.7102    0.0000 C   0  0  0  0  0  0  0  0  0  0  0  0
    1.0604    7.3683    0.0000 H   0  0  0  0  0  0  0  0  0  0  0  0
   -0.7016    8.1519    0.0000 H   0  0  0  0  0  0  0  0  0  0  0  0
   -1.7792    6.5527    0.0000 C   0  0  0  0  0  0  0  0  0  0  0  0
   -2.7790    7.6611    0.0000 C   0  0  0  0  0  0  0  0  0  0  0  0
   -2.4634    9.1275    0.0000 O   0  0  0  0  0  0  0  0  0  0  0  0
   -3.5757   10.1340    0.0000 H   0  0  0  0  0  0  0  0  0  0  0  0
   -4.1547    7.0582    0.0000 S   0  0  0  0  0  0  0  0  0  0  0  0
   -3.9890    5.5653    0.0000 C   0  0  0  0  0  0  0  0  0  0  0  0
   -2.5292    5.2537    0.0000 N   0  0  0  0  0  0  0  0  0  0  0  0
   -5.1012    4.5588    0.0000 N   0  0  0  0  0  0  0  0  0  0  0  0
   -6.5289    5.0188    0.0000 C   0  0  0  0  0  0  0  0  0  0  0  0
   -7.6411    4.0123    0.0000 N   0  0  0  0  0  0  0  0  0  0  0  0
   -9.0689    4.4723    0.0000 H   0  0  0  0  0  0  0  0  0  0  0  0
   -7.3256    2.5459    0.0000 H   0  0  0  0  0  0  0  0  0  0  0  0
   -6.8444    6.4852    0.0000 N   0  0  0  0  0  0  0  0  0  0  0  0
   -8.2722    6.9452    0.0000 H   0  0  0  0  0  0  0  0  0  0  0  0
   -5.7322    7.4917    0.0000 H   0  0  0  0  0  0  0  0  0  0  0  0
    4.9377    4.6492    0.0000 C   0  0  0  0  0  0  0  0  0  0  0  0
    5.8199    3.4360    0.0000 N   0  0  0  0  0  0  0  0  0  0  0  0
    7.3116    3.5935    0.0000 S   0  0  0  0  0  0  0  0  0  0  0  0
    8.6595    4.2516    0.0000 O   0  0  0  0  0  0  0  0  0  0  0  0
    6.8975    5.0352    0.0000 O   0  0  0  0  0  0  0  0  0  0  0  0
    8.1939    2.3803    0.0000 N   0  0  0  0  0  0  0  0  0  0  0  0
    9.6856    2.5378    0.0000 H   0  0  0  0  0  0  0  0  0  0  0  0
    7.5844    1.0098    0.0000 H   0  0  0  0  0  0  0  0  0  0  0  0
    5.5472    6.0198    0.0000 N   0  0  0  0  0  0  0  0  0  0  0  0
    7.0389    6.1772    0.0000 H   0  0  0  0  0  0  0  0  0  0  0  0
    4.6650    7.2329    0.0000 H   0  0  0  0  0  0  0  0  0  0  0  0
  1  2  1  0  0  0  0 
  1  3  1  0  0  0  0 
  1  4  1  0  0  0  0 
  4  5  1  0  0  0  0 
  4  6  1  0  0  0  0 
  4  7  1  0  0  0  0 
  7  8  1  0  0  0  0 
  8  9  1  0  0  0  0 
  8 10  1  0  0  0  0 
  8 11  1  0  0  0  0 
 11 12  2  0  0  0  0 
 12 13  1  0  0  0  0 
 13 14  1  0  0  0  0 
 12 15  1  0  0  0  0 
 15 16  1  0  0  0  0 
 16 17  2  0  0  0  0 
 11 17  1  0  0  0  0 
 16 18  1  0  0  0  0 
 18 19  2  0  0  0  0 
 19 20  1  0  0  0  0 
 20 21  1  0  0  0  0 
 20 22  1  0  0  0  0 
 19 23  1  0  0  0  0 
 23 24  1  0  0  0  0 
 23 25  1  0  0  0  0 
  1 26  1  0  0  0  0 
 26 27  2  0  0  0  0 
 27 28  1  0  0  0  0 
 28 29  2  0  0  0  0 
 28 30  2  0  0  0  0 
 28 31  1  0  0  0  0 
 31 32  1  0  0  0  0 
 31 33  1  0  0  0  0 
 26 34  1  4  0  0  0 
 34 35  1  0  0  0  0 
 34 36  1  0  0  0  0 
M  END
> <Rank>
20

> <Priority_score>
0.08

> <Reaction_type>
aromatic_hydroxylation_(sulfur_containing_5ring)

> <Parent_ID>
72

> <Parent_InChI>
InChI=1S/C8H15N7O2S3/c9-6(15-20(12,16)17)1-2-18-3-5-4-19-8(13-5)14-7(10)11/h4H,1-3H2,(H2,9,15)(H2,12,16,17)(H4,10,11,13,14)

> <Parent_SMILES>
NC(N)=Nc1nc(CSCCC(N)=NS(N)(=O)=O)cs1

$$$$
Molecule 72_metabolite 21
  CDK     0516241031

 56 57  0  0  0  0  0  0  0  0999 V2000
   -1.7247   -4.0008    0.0000 C   0  0  0  0  0  0  0  0  0  0  0  0
   -3.2098   -3.7901    0.0000 H   0  0  0  0  0  0  0  0  0  0  0  0
   -1.7750   -2.5017    0.0000 H   0  0  0  0  0  0  0  0  0  0  0  0
   -0.2570   -3.6909    0.0000 C   0  0  0  0  0  0  0  0  0  0  0  0
    1.2281   -3.9016    0.0000 H   0  0  0  0  0  0  0  0  0  0  0  0
   -0.2067   -5.1900    0.0000 H   0  0  0  0  0  0  0  0  0  0  0  0
    0.2084   -2.2649    0.0000 S   0  0  0  0  0  0  0  0  0  0  0  0
    2.1457   -1.8558    0.0000 C   0  0  0  0  0  0  0  0  0  0  0  0
    3.6308   -2.0665    0.0000 H   0  0  0  0  0  0  0  0  0  0  0  0
    2.1960   -3.3550    0.0000 H   0  0  0  0  0  0  0  0  0  0  0  0
    2.6111   -0.4298    0.0000 C   0  0  0  0  0  0  0  0  0  0  0  0
    1.7358    0.7793    0.0000 C   0  0  0  0  0  0  0  0  0  0  0  0
    0.2358    0.7769    0.0000 H   0  0  0  0  0  0  0  0  0  0  0  0
    2.6127    1.9989    0.0000 S   0  0  0  0  0  0  0  0  0  0  0  0
    4.0381    1.5251    0.0000 C   0  0  0  0  0  0  0  0  0  0  0  0
    4.0381    0.0324    0.0000 N   0  0  0  0  0  0  0  0  0  0  0  0
    5.6394   -1.1321    0.0000 C   0  0  0  0  0  0  0  0  0  0  0  0
    4.5600   -2.1737    0.0000 H   0  0  0  0  0  0  0  0  0  0  0  0
    6.4779   -2.3759    0.0000 C   0  0  0  0  0  0  0  0  0  0  0  0
    5.1075   -2.9858    0.0000 H   0  0  0  0  0  0  0  0  0  0  0  0
    7.9751   -2.2710    0.0000 C   0  0  0  0  0  0  0  0  0  0  0  0
    7.8181   -3.7628    0.0000 H   0  0  0  0  0  0  0  0  0  0  0  0
    8.6337   -0.9224    0.0000 C   0  0  0  0  0  0  0  0  0  0  0  0
    9.8469   -1.8047    0.0000 H   0  0  0  0  0  0  0  0  0  0  0  0
    7.7952    0.3213    0.0000 C   0  0  0  0  0  0  0  0  0  0  0  0
    9.1656    0.9312    0.0000 H   0  0  0  0  0  0  0  0  0  0  0  0
    7.4324    1.7768    0.0000 C   0  0  0  0  0  0  0  0  0  0  0  0
    5.9905    2.1902    0.0000 O   0  0  0  0  0  0  0  0  0  0  0  0
    8.5114    2.8187    0.0000 O   0  0  0  0  0  0  0  0  0  0  0  0
    9.9533    2.4052    0.0000 H   0  0  0  0  0  0  0  0  0  0  0  0
    6.2981    0.2165    0.0000 O   0  0  0  0  0  0  0  0  0  0  0  0
    9.7131    0.1192    0.0000 O   0  0  0  0  0  0  0  0  0  0  0  0
   11.1549   -0.2948    0.0000 H   0  0  0  0  0  0  0  0  0  0  0  0
    9.4168   -2.6850    0.0000 O   0  0  0  0  0  0  0  0  0  0  0  0
    9.7792   -4.1405    0.0000 H   0  0  0  0  0  0  0  0  0  0  0  0
    6.8408   -3.8313    0.0000 O   0  0  0  0  0  0  0  0  0  0  0  0
    5.7617   -4.8733    0.0000 H   0  0  0  0  0  0  0  0  0  0  0  0
    6.0331    2.9643    0.0000 N   0  0  0  0  0  0  0  0  0  0  0  0
    5.8814    4.4566    0.0000 C   0  0  0  0  0  0  0  0  0  0  0  0
    7.0978    5.3342    0.0000 N   0  0  0  0  0  0  0  0  0  0  0  0
    6.9461    6.8265    0.0000 H   0  0  0  0  0  0  0  0  0  0  0  0
    8.4661    4.7195    0.0000 H   0  0  0  0  0  0  0  0  0  0  0  0
    4.5131    5.0713    0.0000 N   0  0  0  0  0  0  0  0  0  0  0  0
    4.3613    6.5636    0.0000 H   0  0  0  0  0  0  0  0  0  0  0  0
    3.2966    4.1937    0.0000 H   0  0  0  0  0  0  0  0  0  0  0  0
   -2.1901   -5.4268    0.0000 C   0  0  0  0  0  0  0  0  0  0  0  0
   -3.6577   -5.7367    0.0000 N   0  0  0  0  0  0  0  0  0  0  0  0
   -4.1231   -7.1627    0.0000 S   0  0  0  0  0  0  0  0  0  0  0  0
   -2.6380   -7.3734    0.0000 O   0  0  0  0  0  0  0  0  0  0  0  0
   -4.0728   -8.6618    0.0000 O   0  0  0  0  0  0  0  0  0  0  0  0
   -5.5908   -7.4726    0.0000 N   0  0  0  0  0  0  0  0  0  0  0  0
   -6.0562   -8.8986    0.0000 H   0  0  0  0  0  0  0  0  0  0  0  0
   -6.5930   -6.3566    0.0000 H   0  0  0  0  0  0  0  0  0  0  0  0
   -1.1879   -6.5428    0.0000 N   0  0  0  0  0  0  0  0  0  0  0  0
   -1.6533   -7.9688    0.0000 H   0  0  0  0  0  0  0  0  0  0  0  0
    0.2798   -6.2329    0.0000 H   0  0  0  0  0  0  0  0  0  0  0  0
  1  2  1  0  0  0  0 
  1  3  1  0  0  0  0 
  1  4  1  0  0  0  0 
  4  5  1  0  0  0  0 
  4  6  1  0  0  0  0 
  4  7  1  0  0  0  0 
  7  8  1  0  0  0  0 
  8  9  1  0  0  0  0 
  8 10  1  0  0  0  0 
  8 11  1  0  0  0  0 
 11 12  2  0  0  0  0 
 12 13  1  0  0  0  0 
 12 14  1  0  0  0  0 
 14 15  1  0  0  0  0 
 15 16  2  0  0  0  0 
 11 16  1  0  0  0  0 
 16 17  1  0  0  0  0 
 17 18  1  0  0  0  0 
 17 19  1  0  0  0  0 
 19 20  1  0  0  0  0 
 19 21  1  0  0  0  0 
 21 22  1  0  0  0  0 
 21 23  1  0  0  0  0 
 23 24  1  0  0  0  0 
 23 25  1  0  0  0  0 
 25 26  1  0  0  0  0 
 25 27  1  0  0  0  0 
 27 28  2  0  0  0  0 
 27 29  1  0  0  0  0 
 29 30  1  0  0  0  0 
 25 31  1  0  0  0  0 
 17 31  1  0  0  0  0 
 23 32  1  0  0  0  0 
 32 33  1  0  0  0  0 
 21 34  1  0  0  0  0 
 34 35  1  0  0  0  0 
 19 36  1  0  0  0  0 
 36 37  1  0  0  0  0 
 15 38  1  0  0  0  0 
 38 39  2  0  0  0  0 
 39 40  1  0  0  0  0 
 40 41  1  0  0  0  0 
 40 42  1  0  0  0  0 
 39 43  1  0  0  0  0 
 43 44  1  0  0  0  0 
 43 45  1  0  0  0  0 
  1 46  1  0  0  0  0 
 46 47  2  0  0  0  0 
 47 48  1  0  0  0  0 
 48 49  2  0  0  0  0 
 48 50  2  0  0  0  0 
 48 51  1  0  0  0  0 
 51 52  1  0  0  0  0 
 51 53  1  0  0  0  0 
 46 54  1  4  0  0  0 
 54 55  1  0  0  0  0 
 54 56  1  0  0  0  0 
M  CHG  1  16   1
M  END
> <Rank>
21

> <Priority_score>
0.076

> <Reaction_type>
N-glucuronidation_(aromatic_=n-)

> <Parent_ID>
72

> <Parent_InChI>
InChI=1S/C8H15N7O2S3/c9-6(15-20(12,16)17)1-2-18-3-5-4-19-8(13-5)14-7(10)11/h4H,1-3H2,(H2,9,15)(H2,12,16,17)(H4,10,11,13,14)

> <Parent_SMILES>
NC(N)=Nc1nc(CSCCC(N)=NS(N)(=O)=O)cs1

$$$$
Molecule 72_metabolite 22
  CDK     0516241031

 33 33  0  0  0  0  0  0  0  0999 V2000
    3.3485    4.2724    0.0000 C   0  0  0  0  0  0  0  0  0  0  0  0
    2.7390    2.9018    0.0000 H   0  0  0  0  0  0  0  0  0  0  0  0
    2.4663    5.4856    0.0000 C   0  0  0  0  0  0  0  0  0  0  0  0
    3.0758    6.8561    0.0000 H   0  0  0  0  0  0  0  0  0  0  0  0
    0.9745    5.3281    0.0000 S   0  0  0  0  0  0  0  0  0  0  0  0
    0.0923    6.5412    0.0000 C   0  0  0  0  0  0  0  0  0  0  0  0
    1.4402    7.1994    0.0000 H   0  0  0  0  0  0  0  0  0  0  0  0
   -0.3218    7.9830    0.0000 H   0  0  0  0  0  0  0  0  0  0  0  0
   -1.3994    6.3838    0.0000 C   0  0  0  0  0  0  0  0  0  0  0  0
   -2.3991    7.4922    0.0000 C   0  0  0  0  0  0  0  0  0  0  0  0
   -2.0836    8.9586    0.0000 H   0  0  0  0  0  0  0  0  0  0  0  0
   -3.7749    6.8893    0.0000 S   0  0  0  0  0  0  0  0  0  0  0  0
   -3.6091    5.3964    0.0000 C   0  0  0  0  0  0  0  0  0  0  0  0
   -2.1494    5.0848    0.0000 N   0  0  0  0  0  0  0  0  0  0  0  0
   -4.7213    4.3899    0.0000 N   0  0  0  0  0  0  0  0  0  0  0  0
   -6.1491    4.8499    0.0000 C   0  0  0  0  0  0  0  0  0  0  0  0
   -7.2613    3.8434    0.0000 N   0  0  0  0  0  0  0  0  0  0  0  0
   -8.6890    4.3034    0.0000 H   0  0  0  0  0  0  0  0  0  0  0  0
   -6.9458    2.3770    0.0000 H   0  0  0  0  0  0  0  0  0  0  0  0
   -6.4646    6.3163    0.0000 N   0  0  0  0  0  0  0  0  0  0  0  0
   -7.8923    6.7763    0.0000 H   0  0  0  0  0  0  0  0  0  0  0  0
   -5.3524    7.3228    0.0000 H   0  0  0  0  0  0  0  0  0  0  0  0
    4.8402    4.4299    0.0000 C   0  0  0  0  0  0  0  0  0  0  0  0
    5.7224    3.2167    0.0000 N   0  0  0  0  0  0  0  0  0  0  0  0
    7.2141    3.3742    0.0000 S   0  0  0  0  0  0  0  0  0  0  0  0
    8.5620    4.0323    0.0000 O   0  0  0  0  0  0  0  0  0  0  0  0
    6.8000    4.8159    0.0000 O   0  0  0  0  0  0  0  0  0  0  0  0
    8.0963    2.1611    0.0000 N   0  0  0  0  0  0  0  0  0  0  0  0
    9.5880    2.3185    0.0000 H   0  0  0  0  0  0  0  0  0  0  0  0
    7.4868    0.7905    0.0000 H   0  0  0  0  0  0  0  0  0  0  0  0
    5.4497    5.8005    0.0000 N   0  0  0  0  0  0  0  0  0  0  0  0
    6.9414    5.9579    0.0000 H   0  0  0  0  0  0  0  0  0  0  0  0
    4.5675    7.0136    0.0000 H   0  0  0  0  0  0  0  0  0  0  0  0
  1  2  1  4  0  0  0 
  1  3  2  0  0  0  0 
  3  4  1  0  0  0  0 
  3  5  1  0  0  0  0 
  5  6  1  0  0  0  0 
  6  7  1  0  0  0  0 
  6  8  1  0  0  0  0 
  6  9  1  0  0  0  0 
  9 10  2  0  0  0  0 
 10 11  1  0  0  0  0 
 10 12  1  0  0  0  0 
 12 13  1  0  0  0  0 
 13 14  2  0  0  0  0 
  9 14  1  0  0  0  0 
 13 15  1  0  0  0  0 
 15 16  2  0  0  0  0 
 16 17  1  0  0  0  0 
 17 18  1  0  0  0  0 
 17 19  1  0  0  0  0 
 16 20  1  0  0  0  0 
 20 21  1  0  0  0  0 
 20 22  1  0  0  0  0 
  1 23  1  0  0  0  0 
 23 24  2  0  0  0  0 
 24 25  1  0  0  0  0 
 25 26  2  0  0  0  0 
 25 27  2  0  0  0  0 
 25 28  1  0  0  0  0 
 28 29  1  0  0  0  0 
 28 30  1  0  0  0  0 
 23 31  1  4  0  0  0 
 31 32  1  0  0  0  0 
 31 33  1  0  0  0  0 
M  END
> <Rank>
22

> <Priority_score>
0.036674244524535625

> <Reaction_type>
alkyl dehydrogenation

> <Parent_ID>
72

> <Parent_InChI>
InChI=1S/C8H15N7O2S3/c9-6(15-20(12,16)17)1-2-18-3-5-4-19-8(13-5)14-7(10)11/h4H,1-3H2,(H2,9,15)(H2,12,16,17)(H4,10,11,13,14)

> <Parent_SMILES>
NC(N)=Nc1nc(CSCCC(N)=NS(N)(=O)=O)cs1

$$$$
Molecule 73
  CDK     0516241031

 15 15  0  0  0  0  0  0  0  0999 V2000
   -0.3245   -0.1865    0.0000 C   0  0  0  0  0  0  0  0  0  0  0  0
   -1.6237   -0.9363    0.0000 C   0  0  0  0  0  0  0  0  0  0  0  0
   -1.6242   -2.4371    0.0000 C   0  0  0  0  0  0  0  0  0  0  0  0
   -2.9237   -3.1879    0.0000 C   0  0  0  0  0  0  0  0  0  0  0  0
   -4.2227   -2.4379    0.0000 C   0  0  0  0  0  0  0  0  0  0  0  0
   -4.2222   -0.9371    0.0000 C   0  0  0  0  0  0  0  0  0  0  0  0
   -2.9227   -0.1863    0.0000 C   0  0  0  0  0  0  0  0  0  0  0  0
   -5.5213   -0.1871    0.0000 O   0  0  0  0  0  0  0  0  0  0  0  0
   -5.5219   -3.1877    0.0000 O   0  0  0  0  0  0  0  0  0  0  0  0
   -0.3251   -3.1871    0.0000 F   0  0  0  0  0  0  0  0  0  0  0  0
   -0.3243    1.3135    0.0000 C   0  0  1  0  0  0  0  0  0  0  0  0
    0.9749    2.0633    0.0000 C   0  0  0  0  0  0  0  0  0  0  0  0
    2.2738    1.3131    0.0000 O   0  0  0  0  0  0  0  0  0  0  0  0
    0.9751    3.5633    0.0000 O   0  0  0  0  0  0  0  0  0  0  0  0
   -1.6232    2.0637    0.0000 N   0  0  0  0  0  0  0  0  0  0  0  0
  1  2  1  0  0  0  0 
  2  3  2  0  0  0  0 
  3  4  1  0  0  0  0 
  4  5  2  0  0  0  0 
  5  6  1  0  0  0  0 
  6  7  2  0  0  0  0 
  2  7  1  0  0  0  0 
  6  8  1  0  0  0  0 
  5  9  1  0  0  0  0 
  3 10  1  0  0  0  0 
  1 11  1  0  0  0  0 
 11 12  1  0  0  0  0 
 12 13  2  0  0  0  0 
 12 14  1  0  0  0  0 
 11 15  1  6  0  0  0 
M  ISO  1  10  18
M  END
> <SMILES>
N[C@@H](Cc1cc(O)c(O)cc1[18F])C(=O)O

$$$$
Molecule 73_metabolite 1
  CDK     0516241031

 45 46  0  0  0  0  0  0  0  0999 V2000
    6.1885    2.9740    0.0000 C   0  0  0  0  0  0  0  0  0  0  0  0
    6.6983    4.3847    0.0000 H   0  0  0  0  0  0  0  0  0  0  0  0
    4.8877    3.7210    0.0000 H   0  0  0  0  0  0  0  0  0  0  0  0
    8.1392    2.6346    0.0000 C   0  0  0  0  0  0  0  0  0  0  0  0
    9.1015    3.7864    0.0000 C   0  0  0  0  0  0  0  0  0  0  0  0
   10.5802    3.5299    0.0000 C   0  0  0  0  0  0  0  0  0  0  0  0
   11.5414    4.6815    0.0000 H   0  0  0  0  0  0  0  0  0  0  0  0
   11.0967    2.1216    0.0000 C   0  0  0  0  0  0  0  0  0  0  0  0
   10.1345    0.9699    0.0000 C   0  0  0  0  0  0  0  0  0  0  0  0
    8.6557    1.2264    0.0000 C   0  0  0  0  0  0  0  0  0  0  0  0
    7.6945    0.0748    0.0000 H   0  0  0  0  0  0  0  0  0  0  0  0
   10.6510   -0.4384    0.0000 O   0  0  0  0  0  0  0  0  0  0  0  0
   12.1288   -0.6952    0.0000 H   0  0  0  0  0  0  0  0  0  0  0  0
   12.5745    1.8646    0.0000 O   0  0  0  0  0  0  0  0  0  0  0  0
   13.5361    3.0159    0.0000 H   0  0  0  0  0  0  0  0  0  0  0  0
    8.5850    5.1947    0.0000 F   0  0  0  0  0  0  0  0  0  0  0  0
    5.2270    1.8227    0.0000 C   0  0  1  0  0  0  0  0  0  0  0  0
    4.7172    0.4120    0.0000 H   0  0  0  0  0  0  0  0  0  0  0  0
    3.7492    2.0798    0.0000 C   0  0  0  0  0  0  0  0  0  0  0  0
    3.2329    3.4881    0.0000 O   0  0  0  0  0  0  0  0  0  0  0  0
    2.7876    0.9285    0.0000 O   0  0  0  0  0  0  0  0  0  0  0  0
    1.3098    1.1856    0.0000 C   0  0  0  0  0  0  0  0  0  0  0  0
    1.8164    2.5974    0.0000 H   0  0  0  0  0  0  0  0  0  0  0  0
    1.3098   -0.3044    0.0000 C   0  0  0  0  0  0  0  0  0  0  0  0
    1.8217   -1.7144    0.0000 H   0  0  0  0  0  0  0  0  0  0  0  0
   -0.0102   -1.0644    0.0000 C   0  0  0  0  0  0  0  0  0  0  0  0
   -0.9790   -2.2096    0.0000 H   0  0  0  0  0  0  0  0  0  0  0  0
   -1.3102   -0.3044    0.0000 C   0  0  0  0  0  0  0  0  0  0  0  0
   -2.7869   -0.0413    0.0000 H   0  0  0  0  0  0  0  0  0  0  0  0
   -1.3102    1.1856    0.0000 C   0  0  0  0  0  0  0  0  0  0  0  0
   -1.8229    2.5952    0.0000 H   0  0  0  0  0  0  0  0  0  0  0  0
   -3.2601    0.8419    0.0000 C   0  0  0  0  0  0  0  0  0  0  0  0
   -3.7733   -0.5675    0.0000 O   0  0  0  0  0  0  0  0  0  0  0  0
   -4.2242    1.9911    0.0000 O   0  0  0  0  0  0  0  0  0  0  0  0
   -5.7014    1.7308    0.0000 H   0  0  0  0  0  0  0  0  0  0  0  0
   -0.0102    1.9356    0.0000 O   0  0  0  0  0  0  0  0  0  0  0  0
   -1.8283   -1.7121    0.0000 O   0  0  0  0  0  0  0  0  0  0  0  0
   -3.3065   -1.9672    0.0000 H   0  0  0  0  0  0  0  0  0  0  0  0
    0.9510   -2.2160    0.0000 O   0  0  0  0  0  0  0  0  0  0  0  0
    0.4343   -3.6242    0.0000 H   0  0  0  0  0  0  0  0  0  0  0  0
    2.7871   -0.0446    0.0000 O   0  0  0  0  0  0  0  0  0  0  0  0
    3.7509   -1.1940    0.0000 H   0  0  0  0  0  0  0  0  0  0  0  0
    6.5277    1.0757    0.0000 N   0  0  0  0  0  0  0  0  0  0  0  0
    7.8250    1.8287    0.0000 H   0  0  0  0  0  0  0  0  0  0  0  0
    6.5312   -0.4243    0.0000 H   0  0  0  0  0  0  0  0  0  0  0  0
  1  2  1  0  0  0  0 
  1  3  1  0  0  0  0 
  1  4  1  0  0  0  0 
  4  5  2  0  0  0  0 
  5  6  1  0  0  0  0 
  6  7  1  0  0  0  0 
  6  8  2  0  0  0  0 
  8  9  1  0  0  0  0 
  9 10  2  0  0  0  0 
  4 10  1  0  0  0  0 
 10 11  1  0  0  0  0 
  9 12  1  0  0  0  0 
 12 13  1  0  0  0  0 
  8 14  1  0  0  0  0 
 14 15  1  0  0  0  0 
  5 16  1  0  0  0  0 
  1 17  1  0  0  0  0 
 17 18  1  1  0  0  0 
 17 19  1  0  0  0  0 
 19 20  2  0  0  0  0 
 19 21  1  0  0  0  0 
 21 22  1  0  0  0  0 
 22 23  1  0  0  0  0 
 22 24  1  0  0  0  0 
 24 25  1  0  0  0  0 
 24 26  1  0  0  0  0 
 26 27  1  0  0  0  0 
 26 28  1  0  0  0  0 
 28 29  1  0  0  0  0 
 28 30  1  0  0  0  0 
 30 31  1  0  0  0  0 
 30 32  1  0  0  0  0 
 32 33  2  0  0  0  0 
 32 34  1  0  0  0  0 
 34 35  1  0  0  0  0 
 30 36  1  0  0  0  0 
 22 36  1  0  0  0  0 
 28 37  1  0  0  0  0 
 37 38  1  0  0  0  0 
 26 39  1  0  0  0  0 
 39 40  1  0  0  0  0 
 24 41  1  0  0  0  0 
 41 42  1  0  0  0  0 
 17 43  1  6  0  0  0 
 43 44  1  0  0  0  0 
 43 45  1  0  0  0  0 
M  ISO  1  16  18
M  END
> <Rank>
1

> <Priority_score>
0.976

> <Reaction_type>
O-glucuronidation_(aliphatic_carboxyl)

> <Parent_ID>
73

> <Parent_InChI>
InChI=1S/C9H10FNO4/c10-5-3-8(13)7(12)2-4(5)1-6(11)9(14)15/h2-3,6,12-13H,1,11H2,(H,14,15)/i10-1

> <Parent_SMILES>
N[C@@H](Cc1cc(O)c(O)cc1[18F])C(=O)O

$$$$
Molecule 73_metabolite 2
  CDK     0516241031

 30 30  0  0  0  0  0  0  0  0999 V2000
    2.5989   -2.2504    0.0000 C   0  0  0  0  0  0  0  0  0  0  0  0
    3.8981   -1.5006    0.0000 H   0  0  0  0  0  0  0  0  0  0  0  0
    1.6346   -3.3993    0.0000 H   0  0  0  0  0  0  0  0  0  0  0  0
    3.5629   -3.3996    0.0000 H   0  0  0  0  0  0  0  0  0  0  0  0
    1.3000   -1.5002    0.0000 C   0  0  0  0  0  0  0  0  0  0  0  0
    1.3002   -0.0002    0.0000 O   0  0  0  0  0  0  0  0  0  0  0  0
    0.0008   -2.2500    0.0000 N   0  0  0  0  0  0  0  0  0  0  0  0
    0.0006   -3.7500    0.0000 H   0  0  0  0  0  0  0  0  0  0  0  0
   -1.2981   -1.4998    0.0000 C   0  0  1  0  0  0  0  0  0  0  0  0
   -0.3337   -0.3509    0.0000 H   0  0  0  0  0  0  0  0  0  0  0  0
   -2.5972   -2.2496    0.0000 C   0  0  0  0  0  0  0  0  0  0  0  0
   -3.5616   -3.3985    0.0000 H   0  0  0  0  0  0  0  0  0  0  0  0
   -1.6332   -3.3988    0.0000 H   0  0  0  0  0  0  0  0  0  0  0  0
   -4.3118   -1.2593    0.0000 C   0  0  0  0  0  0  0  0  0  0  0  0
   -5.6118   -2.0093    0.0000 C   0  0  0  0  0  0  0  0  0  0  0  0
   -6.9118   -1.2593    0.0000 C   0  0  0  0  0  0  0  0  0  0  0  0
   -8.2107   -2.0095    0.0000 H   0  0  0  0  0  0  0  0  0  0  0  0
   -6.9118    0.2407    0.0000 C   0  0  0  0  0  0  0  0  0  0  0  0
   -5.6118    0.9907    0.0000 C   0  0  0  0  0  0  0  0  0  0  0  0
   -4.3118    0.2407    0.0000 C   0  0  0  0  0  0  0  0  0  0  0  0
   -3.0129    0.9909    0.0000 H   0  0  0  0  0  0  0  0  0  0  0  0
   -5.6118    2.4907    0.0000 O   0  0  0  0  0  0  0  0  0  0  0  0
   -6.9108    3.2407    0.0000 H   0  0  0  0  0  0  0  0  0  0  0  0
   -8.2107    0.9909    0.0000 O   0  0  0  0  0  0  0  0  0  0  0  0
   -9.5099    0.2411    0.0000 H   0  0  0  0  0  0  0  0  0  0  0  0
   -5.6118   -3.5093    0.0000 F   0  0  0  0  0  0  0  0  0  0  0  0
   -2.2621   -0.3506    0.0000 C   0  0  0  0  0  0  0  0  0  0  0  0
   -3.7393   -0.6108    0.0000 O   0  0  0  0  0  0  0  0  0  0  0  0
   -1.7488    1.0589    0.0000 O   0  0  0  0  0  0  0  0  0  0  0  0
   -2.7128    2.2081    0.0000 H   0  0  0  0  0  0  0  0  0  0  0  0
  1  2  1  0  0  0  0 
  1  3  1  0  0  0  0 
  1  4  1  0  0  0  0 
  1  5  1  0  0  0  0 
  5  6  2  0  0  0  0 
  5  7  1  0  0  0  0 
  7  8  1  0  0  0  0 
  9  7  1  1  0  0  0 
  9 10  1  6  0  0  0 
  9 11  1  0  0  0  0 
 11 12  1  0  0  0  0 
 11 13  1  0  0  0  0 
 11 14  1  0  0  0  0 
 14 15  2  0  0  0  0 
 15 16  1  0  0  0  0 
 16 17  1  0  0  0  0 
 16 18  2  0  0  0  0 
 18 19  1  0  0  0  0 
 19 20  2  0  0  0  0 
 14 20  1  0  0  0  0 
 20 21  1  0  0  0  0 
 19 22  1  0  0  0  0 
 22 23  1  0  0  0  0 
 18 24  1  0  0  0  0 
 24 25  1  0  0  0  0 
 15 26  1  0  0  0  0 
  9 27  1  0  0  0  0 
 27 28  2  0  0  0  0 
 27 29  1  0  0  0  0 
 29 30  1  0  0  0  0 
M  ISO  1  26  18
M  END
> <Rank>
2

> <Priority_score>
0.952

> <Reaction_type>
N-acetylation_(aliphatic_NH2)

> <Parent_ID>
73

> <Parent_InChI>
InChI=1S/C9H10FNO4/c10-5-3-8(13)7(12)2-4(5)1-6(11)9(14)15/h2-3,6,12-13H,1,11H2,(H,14,15)/i10-1

> <Parent_SMILES>
N[C@@H](Cc1cc(O)c(O)cc1[18F])C(=O)O

$$$$
Molecule 73_metabolite 3
  CDK     0516241031

 29 29  0  0  0  0  0  0  0  0999 V2000
   -3.0146    1.7403    0.0000 C   0  0  0  0  0  0  0  0  0  0  0  0
   -2.0502    2.8892    0.0000 H   0  0  0  0  0  0  0  0  0  0  0  0
   -3.9786    2.8895    0.0000 H   0  0  0  0  0  0  0  0  0  0  0  0
   -1.3000    0.7500    0.0000 C   0  0  0  0  0  0  0  0  0  0  0  0
    0.0000    1.5000    0.0000 C   0  0  0  0  0  0  0  0  0  0  0  0
    1.3000    0.7500    0.0000 C   0  0  0  0  0  0  0  0  0  0  0  0
    2.5989    1.5002    0.0000 H   0  0  0  0  0  0  0  0  0  0  0  0
    1.3000   -0.7500    0.0000 C   0  0  0  0  0  0  0  0  0  0  0  0
    0.0000   -1.5000    0.0000 C   0  0  0  0  0  0  0  0  0  0  0  0
   -1.3000   -0.7500    0.0000 C   0  0  0  0  0  0  0  0  0  0  0  0
   -2.5989   -1.5002    0.0000 H   0  0  0  0  0  0  0  0  0  0  0  0
   -0.0000   -3.0000    0.0000 O   0  0  0  0  0  0  0  0  0  0  0  0
    1.2990   -3.7500    0.0000 S   0  0  0  0  0  0  0  0  0  0  0  0
    2.7762   -4.0105    0.0000 O   0  0  0  0  0  0  0  0  0  0  0  0
    1.8121   -2.3405    0.0000 O   0  0  0  0  0  0  0  0  0  0  0  0
    1.2990   -5.2500    0.0000 O   0  0  0  0  0  0  0  0  0  0  0  0
    2.5981   -6.0000    0.0000 H   0  0  0  0  0  0  0  0  0  0  0  0
    2.5989   -1.5002    0.0000 O   0  0  0  0  0  0  0  0  0  0  0  0
    3.8981   -0.7504    0.0000 H   0  0  0  0  0  0  0  0  0  0  0  0
    0.0000    3.0000    0.0000 F   0  0  0  0  0  0  0  0  0  0  0  0
   -4.3137    0.9905    0.0000 C   0  0  1  0  0  0  0  0  0  0  0  0
   -5.2781   -0.1584    0.0000 H   0  0  0  0  0  0  0  0  0  0  0  0
   -5.6126    1.7407    0.0000 C   0  0  0  0  0  0  0  0  0  0  0  0
   -5.6124    3.2407    0.0000 O   0  0  0  0  0  0  0  0  0  0  0  0
   -6.9118    0.9909    0.0000 O   0  0  0  0  0  0  0  0  0  0  0  0
   -8.2107    1.7411    0.0000 H   0  0  0  0  0  0  0  0  0  0  0  0
   -3.3497   -0.1587    0.0000 N   0  0  0  0  0  0  0  0  0  0  0  0
   -3.8630   -1.5682    0.0000 H   0  0  0  0  0  0  0  0  0  0  0  0
   -1.8725    0.1015    0.0000 H   0  0  0  0  0  0  0  0  0  0  0  0
  1  2  1  0  0  0  0 
  1  3  1  0  0  0  0 
  1  4  1  0  0  0  0 
  4  5  2  0  0  0  0 
  5  6  1  0  0  0  0 
  6  7  1  0  0  0  0 
  6  8  2  0  0  0  0 
  8  9  1  0  0  0  0 
  9 10  2  0  0  0  0 
  4 10  1  0  0  0  0 
 10 11  1  0  0  0  0 
  9 12  1  0  0  0  0 
 12 13  1  0  0  0  0 
 13 14  2  0  0  0  0 
 13 15  2  0  0  0  0 
 13 16  1  0  0  0  0 
 16 17  1  0  0  0  0 
  8 18  1  0  0  0  0 
 18 19  1  0  0  0  0 
  5 20  1  0  0  0  0 
  1 21  1  0  0  0  0 
 21 22  1  1  0  0  0 
 21 23  1  0  0  0  0 
 23 24  2  0  0  0  0 
 23 25  1  0  0  0  0 
 25 26  1  0  0  0  0 
 21 27  1  6  0  0  0 
 27 28  1  0  0  0  0 
 27 29  1  0  0  0  0 
M  ISO  1  20  18
M  END
> <Rank>
3

> <Priority_score>
0.928

> <Reaction_type>
sulfation_(aromatic_hydroxyl)

> <Parent_ID>
73

> <Parent_InChI>
InChI=1S/C9H10FNO4/c10-5-3-8(13)7(12)2-4(5)1-6(11)9(14)15/h2-3,6,12-13H,1,11H2,(H,14,15)/i10-1

> <Parent_SMILES>
N[C@@H](Cc1cc(O)c(O)cc1[18F])C(=O)O

$$$$
Molecule 73_metabolite 4
  CDK     0516241031

 45 46  0  0  0  0  0  0  0  0999 V2000
   -0.7882    1.4127    0.0000 C   0  0  0  0  0  0  0  0  0  0  0  0
    0.1784    0.2657    0.0000 H   0  0  0  0  0  0  0  0  0  0  0  0
    0.5092    2.1654    0.0000 H   0  0  0  0  0  0  0  0  0  0  0  0
   -1.3043    2.8211    0.0000 C   0  0  0  0  0  0  0  0  0  0  0  0
   -2.7828    3.0788    0.0000 C   0  0  0  0  0  0  0  0  0  0  0  0
   -3.2998    4.4878    0.0000 C   0  0  0  0  0  0  0  0  0  0  0  0
   -4.7777    4.7446    0.0000 H   0  0  0  0  0  0  0  0  0  0  0  0
   -2.3383    5.6390    0.0000 C   0  0  0  0  0  0  0  0  0  0  0  0
   -0.8597    5.3813    0.0000 C   0  0  0  0  0  0  0  0  0  0  0  0
   -0.3427    3.9724    0.0000 C   0  0  0  0  0  0  0  0  0  0  0  0
    1.1351    3.7155    0.0000 H   0  0  0  0  0  0  0  0  0  0  0  0
    0.1018    6.5326    0.0000 O   0  0  0  0  0  0  0  0  0  0  0  0
    1.5796    6.2756    0.0000 C   0  0  0  0  0  0  0  0  0  0  0  0
    1.0731    4.8637    0.0000 H   0  0  0  0  0  0  0  0  0  0  0  0
    1.5796    7.7656    0.0000 C   0  0  0  0  0  0  0  0  0  0  0  0
    1.0677    9.1755    0.0000 H   0  0  0  0  0  0  0  0  0  0  0  0
    2.8996    8.5256    0.0000 C   0  0  0  0  0  0  0  0  0  0  0  0
    3.8684    9.6707    0.0000 H   0  0  0  0  0  0  0  0  0  0  0  0
    4.1996    7.7656    0.0000 C   0  0  0  0  0  0  0  0  0  0  0  0
    5.6763    7.5024    0.0000 H   0  0  0  0  0  0  0  0  0  0  0  0
    4.1996    6.2756    0.0000 C   0  0  0  0  0  0  0  0  0  0  0  0
    4.7123    4.8659    0.0000 H   0  0  0  0  0  0  0  0  0  0  0  0
    6.1496    6.6192    0.0000 C   0  0  0  0  0  0  0  0  0  0  0  0
    7.1136    5.4700    0.0000 O   0  0  0  0  0  0  0  0  0  0  0  0
    6.6627    8.0287    0.0000 O   0  0  0  0  0  0  0  0  0  0  0  0
    8.1400    8.2890    0.0000 H   0  0  0  0  0  0  0  0  0  0  0  0
    2.8996    5.5256    0.0000 O   0  0  0  0  0  0  0  0  0  0  0  0
    4.7177    9.1732    0.0000 O   0  0  0  0  0  0  0  0  0  0  0  0
    6.1959    9.4284    0.0000 H   0  0  0  0  0  0  0  0  0  0  0  0
    1.9384    9.6771    0.0000 O   0  0  0  0  0  0  0  0  0  0  0  0
    2.4551   11.0853    0.0000 H   0  0  0  0  0  0  0  0  0  0  0  0
    0.1023    7.5057    0.0000 O   0  0  0  0  0  0  0  0  0  0  0  0
   -0.8614    8.6551    0.0000 H   0  0  0  0  0  0  0  0  0  0  0  0
   -2.8543    7.0475    0.0000 O   0  0  0  0  0  0  0  0  0  0  0  0
   -4.3321    7.3048    0.0000 H   0  0  0  0  0  0  0  0  0  0  0  0
   -3.7443    1.9275    0.0000 F   0  0  0  0  0  0  0  0  0  0  0  0
   -1.7499    0.2615    0.0000 C   0  0  1  0  0  0  0  0  0  0  0  0
   -2.7166    1.4085    0.0000 H   0  0  0  0  0  0  0  0  0  0  0  0
   -1.2339   -1.1469    0.0000 C   0  0  0  0  0  0  0  0  0  0  0  0
    0.2439   -1.4042    0.0000 O   0  0  0  0  0  0  0  0  0  0  0  0
   -2.1956   -2.2980    0.0000 O   0  0  0  0  0  0  0  0  0  0  0  0
   -1.6796   -3.7065    0.0000 H   0  0  0  0  0  0  0  0  0  0  0  0
   -3.0474   -0.4912    0.0000 N   0  0  0  0  0  0  0  0  0  0  0  0
   -3.0441   -1.9912    0.0000 H   0  0  0  0  0  0  0  0  0  0  0  0
   -4.3480    0.2560    0.0000 H   0  0  0  0  0  0  0  0  0  0  0  0
  1  2  1  0  0  0  0 
  1  3  1  0  0  0  0 
  1  4  1  0  0  0  0 
  4  5  2  0  0  0  0 
  5  6  1  0  0  0  0 
  6  7  1  0  0  0  0 
  6  8  2  0  0  0  0 
  8  9  1  0  0  0  0 
  9 10  2  0  0  0  0 
  4 10  1  0  0  0  0 
 10 11  1  0  0  0  0 
  9 12  1  0  0  0  0 
 12 13  1  0  0  0  0 
 13 14  1  0  0  0  0 
 13 15  1  0  0  0  0 
 15 16  1  0  0  0  0 
 15 17  1  0  0  0  0 
 17 18  1  0  0  0  0 
 17 19  1  0  0  0  0 
 19 20  1  0  0  0  0 
 19 21  1  0  0  0  0 
 21 22  1  0  0  0  0 
 21 23  1  0  0  0  0 
 23 24  2  0  0  0  0 
 23 25  1  0  0  0  0 
 25 26  1  0  0  0  0 
 21 27  1  0  0  0  0 
 13 27  1  0  0  0  0 
 19 28  1  0  0  0  0 
 28 29  1  0  0  0  0 
 17 30  1  0  0  0  0 
 30 31  1  0  0  0  0 
 15 32  1  0  0  0  0 
 32 33  1  0  0  0  0 
  8 34  1  0  0  0  0 
 34 35  1  0  0  0  0 
  5 36  1  0  0  0  0 
  1 37  1  0  0  0  0 
 37 38  1  6  0  0  0 
 37 39  1  0  0  0  0 
 39 40  2  0  0  0  0 
 39 41  1  0  0  0  0 
 41 42  1  0  0  0  0 
 37 43  1  1  0  0  0 
 43 44  1  0  0  0  0 
 43 45  1  0  0  0  0 
M  ISO  1  36  18
M  END
> <Rank>
4

> <Priority_score>
0.868

> <Reaction_type>
O-glucuronidation_(aromatic_hydroxyl)

> <Parent_ID>
73

> <Parent_InChI>
InChI=1S/C9H10FNO4/c10-5-3-8(13)7(12)2-4(5)1-6(11)9(14)15/h2-3,6,12-13H,1,11H2,(H,14,15)/i10-1

> <Parent_SMILES>
N[C@@H](Cc1cc(O)c(O)cc1[18F])C(=O)O

$$$$
Molecule 73_metabolite 5
  CDK     0516241031

 45 46  0  0  0  0  0  0  0  0999 V2000
    0.1010   -1.4039    0.0000 C   0  0  0  0  0  0  0  0  0  0  0  0
   -0.4088   -2.8146    0.0000 H   0  0  0  0  0  0  0  0  0  0  0  0
    1.4018   -2.1509    0.0000 H   0  0  0  0  0  0  0  0  0  0  0  0
    1.0626   -0.2526    0.0000 C   0  0  0  0  0  0  0  0  0  0  0  0
    0.5462    1.1566    0.0000 C   0  0  0  0  0  0  0  0  0  0  0  0
    1.5077    2.3090    0.0000 C   0  0  0  0  0  0  0  0  0  0  0  0
    0.9910    3.7172    0.0000 H   0  0  0  0  0  0  0  0  0  0  0  0
    2.9856    2.0521    0.0000 C   0  0  0  0  0  0  0  0  0  0  0  0
    3.5019    0.6429    0.0000 C   0  0  0  0  0  0  0  0  0  0  0  0
    2.5404   -0.5095    0.0000 C   0  0  0  0  0  0  0  0  0  0  0  0
    3.0571   -1.9176    0.0000 H   0  0  0  0  0  0  0  0  0  0  0  0
    4.9798    0.3861    0.0000 O   0  0  0  0  0  0  0  0  0  0  0  0
    5.4963   -1.0222    0.0000 H   0  0  0  0  0  0  0  0  0  0  0  0
    3.9471    3.2034    0.0000 O   0  0  0  0  0  0  0  0  0  0  0  0
    5.4249    2.9464    0.0000 C   0  0  0  0  0  0  0  0  0  0  0  0
    4.9184    1.5345    0.0000 H   0  0  0  0  0  0  0  0  0  0  0  0
    5.4249    4.4364    0.0000 C   0  0  0  0  0  0  0  0  0  0  0  0
    4.9130    5.8463    0.0000 H   0  0  0  0  0  0  0  0  0  0  0  0
    6.7449    5.1964    0.0000 C   0  0  0  0  0  0  0  0  0  0  0  0
    7.7137    6.3415    0.0000 H   0  0  0  0  0  0  0  0  0  0  0  0
    8.0449    4.4364    0.0000 C   0  0  0  0  0  0  0  0  0  0  0  0
    9.5217    4.1732    0.0000 H   0  0  0  0  0  0  0  0  0  0  0  0
    8.0449    2.9464    0.0000 C   0  0  0  0  0  0  0  0  0  0  0  0
    8.5577    1.5367    0.0000 H   0  0  0  0  0  0  0  0  0  0  0  0
    9.9949    3.2900    0.0000 C   0  0  0  0  0  0  0  0  0  0  0  0
   10.9589    2.1408    0.0000 O   0  0  0  0  0  0  0  0  0  0  0  0
   10.5081    4.6995    0.0000 O   0  0  0  0  0  0  0  0  0  0  0  0
   11.9853    4.9598    0.0000 H   0  0  0  0  0  0  0  0  0  0  0  0
    6.7449    2.1964    0.0000 O   0  0  0  0  0  0  0  0  0  0  0  0
    8.5631    5.8440    0.0000 O   0  0  0  0  0  0  0  0  0  0  0  0
   10.0412    6.0991    0.0000 H   0  0  0  0  0  0  0  0  0  0  0  0
    5.7837    6.3479    0.0000 O   0  0  0  0  0  0  0  0  0  0  0  0
    6.3005    7.7561    0.0000 H   0  0  0  0  0  0  0  0  0  0  0  0
    3.9476    4.1765    0.0000 O   0  0  0  0  0  0  0  0  0  0  0  0
    2.9839    5.3259    0.0000 H   0  0  0  0  0  0  0  0  0  0  0  0
   -0.9316    1.4134    0.0000 F   0  0  0  0  0  0  0  0  0  0  0  0
   -1.3768   -1.1468    0.0000 C   0  0  1  0  0  0  0  0  0  0  0  0
   -0.8670    0.2639    0.0000 H   0  0  0  0  0  0  0  0  0  0  0  0
   -2.3383   -2.2981    0.0000 C   0  0  0  0  0  0  0  0  0  0  0  0
   -1.8220   -3.7065    0.0000 O   0  0  0  0  0  0  0  0  0  0  0  0
   -3.8161   -2.0410    0.0000 O   0  0  0  0  0  0  0  0  0  0  0  0
   -4.7777   -3.1923    0.0000 H   0  0  0  0  0  0  0  0  0  0  0  0
   -2.6775   -0.3998    0.0000 N   0  0  0  0  0  0  0  0  0  0  0  0
   -3.9749   -1.1528    0.0000 H   0  0  0  0  0  0  0  0  0  0  0  0
   -2.6810    1.1002    0.0000 H   0  0  0  0  0  0  0  0  0  0  0  0
  1  2  1  0  0  0  0 
  1  3  1  0  0  0  0 
  1  4  1  0  0  0  0 
  4  5  2  0  0  0  0 
  5  6  1  0  0  0  0 
  6  7  1  0  0  0  0 
  6  8  2  0  0  0  0 
  8  9  1  0  0  0  0 
  9 10  2  0  0  0  0 
  4 10  1  0  0  0  0 
 10 11  1  0  0  0  0 
  9 12  1  0  0  0  0 
 12 13  1  0  0  0  0 
  8 14  1  0  0  0  0 
 14 15  1  0  0  0  0 
 15 16  1  0  0  0  0 
 15 17  1  0  0  0  0 
 17 18  1  0  0  0  0 
 17 19  1  0  0  0  0 
 19 20  1  0  0  0  0 
 19 21  1  0  0  0  0 
 21 22  1  0  0  0  0 
 21 23  1  0  0  0  0 
 23 24  1  0  0  0  0 
 23 25  1  0  0  0  0 
 25 26  2  0  0  0  0 
 25 27  1  0  0  0  0 
 27 28  1  0  0  0  0 
 23 29  1  0  0  0  0 
 15 29  1  0  0  0  0 
 21 30  1  0  0  0  0 
 30 31  1  0  0  0  0 
 19 32  1  0  0  0  0 
 32 33  1  0  0  0  0 
 17 34  1  0  0  0  0 
 34 35  1  0  0  0  0 
  5 36  1  0  0  0  0 
  1 37  1  0  0  0  0 
 37 38  1  6  0  0  0 
 37 39  1  0  0  0  0 
 39 40  2  0  0  0  0 
 39 41  1  0  0  0  0 
 41 42  1  0  0  0  0 
 37 43  1  1  0  0  0 
 43 44  1  0  0  0  0 
 43 45  1  0  0  0  0 
M  ISO  1  36  18
M  END
> <Rank>
5

> <Priority_score>
0.7

> <Reaction_type>
O-glucuronidation_(aromatic_hydroxyl)

> <Parent_ID>
73

> <Parent_InChI>
InChI=1S/C9H10FNO4/c10-5-3-8(13)7(12)2-4(5)1-6(11)9(14)15/h2-3,6,12-13H,1,11H2,(H,14,15)/i10-1

> <Parent_SMILES>
N[C@@H](Cc1cc(O)c(O)cc1[18F])C(=O)O

$$$$
Molecule 73_metabolite 6
  CDK     0516241031

 28 28  0  0  0  0  0  0  0  0999 V2000
   -3.8981    0.7504    0.0000 C   0  0  0  0  0  0  0  0  0  0  0  0
   -5.1970    1.5006    0.0000 H   0  0  0  0  0  0  0  0  0  0  0  0
   -4.8624   -0.3985    0.0000 H   0  0  0  0  0  0  0  0  0  0  0  0
   -2.9341   -0.3988    0.0000 H   0  0  0  0  0  0  0  0  0  0  0  0
   -2.5989    1.5002    0.0000 O   0  0  0  0  0  0  0  0  0  0  0  0
   -1.3000    0.7500    0.0000 C   0  0  0  0  0  0  0  0  0  0  0  0
    0.0000    1.5000    0.0000 C   0  0  0  0  0  0  0  0  0  0  0  0
    0.0000    3.0000    0.0000 H   0  0  0  0  0  0  0  0  0  0  0  0
    1.3000    0.7500    0.0000 C   0  0  0  0  0  0  0  0  0  0  0  0
    1.3000   -0.7500    0.0000 C   0  0  0  0  0  0  0  0  0  0  0  0
    0.0000   -1.5000    0.0000 C   0  0  0  0  0  0  0  0  0  0  0  0
   -0.0000   -3.0000    0.0000 H   0  0  0  0  0  0  0  0  0  0  0  0
   -1.3000   -0.7500    0.0000 C   0  0  0  0  0  0  0  0  0  0  0  0
   -2.5989   -1.5002    0.0000 O   0  0  0  0  0  0  0  0  0  0  0  0
   -2.5987   -3.0002    0.0000 H   0  0  0  0  0  0  0  0  0  0  0  0
    2.5989   -1.5002    0.0000 F   0  0  0  0  0  0  0  0  0  0  0  0
    2.5989    1.5002    0.0000 C   0  0  0  0  0  0  0  0  0  0  0  0
    3.5629    2.6494    0.0000 H   0  0  0  0  0  0  0  0  0  0  0  0
    1.6346    2.6491    0.0000 H   0  0  0  0  0  0  0  0  0  0  0  0
    3.8981    0.7504    0.0000 C   0  0  1  0  0  0  0  0  0  0  0  0
    2.9341   -0.3988    0.0000 H   0  0  0  0  0  0  0  0  0  0  0  0
    5.1970    1.5006    0.0000 C   0  0  0  0  0  0  0  0  0  0  0  0
    5.1968    3.0006    0.0000 O   0  0  0  0  0  0  0  0  0  0  0  0
    6.4962    0.7508    0.0000 O   0  0  0  0  0  0  0  0  0  0  0  0
    7.7951    1.5010    0.0000 H   0  0  0  0  0  0  0  0  0  0  0  0
    4.8624   -0.3985    0.0000 N   0  0  0  0  0  0  0  0  0  0  0  0
    6.3396   -0.1378    0.0000 H   0  0  0  0  0  0  0  0  0  0  0  0
    4.3496   -1.8081    0.0000 H   0  0  0  0  0  0  0  0  0  0  0  0
  1  2  1  0  0  0  0 
  1  3  1  0  0  0  0 
  1  4  1  0  0  0  0 
  1  5  1  0  0  0  0 
  5  6  1  0  0  0  0 
  6  7  2  0  0  0  0 
  7  8  1  0  0  0  0 
  7  9  1  0  0  0  0 
  9 10  2  0  0  0  0 
 10 11  1  0  0  0  0 
 11 12  1  0  0  0  0 
 11 13  2  0  0  0  0 
  6 13  1  0  0  0  0 
 13 14  1  0  0  0  0 
 14 15  1  0  0  0  0 
 10 16  1  0  0  0  0 
  9 17  1  0  0  0  0 
 17 18  1  0  0  0  0 
 17 19  1  0  0  0  0 
 17 20  1  0  0  0  0 
 20 21  1  6  0  0  0 
 20 22  1  0  0  0  0 
 22 23  2  0  0  0  0 
 22 24  1  0  0  0  0 
 24 25  1  0  0  0  0 
 20 26  1  1  0  0  0 
 26 27  1  0  0  0  0 
 26 28  1  0  0  0  0 
M  ISO  1  16  18
M  END
> <Rank>
6

> <Priority_score>
0.488

> <Reaction_type>
methylation_(aromatic_OH)

> <Parent_ID>
73

> <Parent_InChI>
InChI=1S/C9H10FNO4/c10-5-3-8(13)7(12)2-4(5)1-6(11)9(14)15/h2-3,6,12-13H,1,11H2,(H,14,15)/i10-1

> <Parent_SMILES>
N[C@@H](Cc1cc(O)c(O)cc1[18F])C(=O)O

$$$$
Molecule 73_metabolite 7
  CDK     0516241031

 45 46  0  0  0  0  0  0  0  0999 V2000
    4.9326   -1.9502    0.0000 C   0  0  0  0  0  0  0  0  0  0  0  0
    4.4192   -3.3596    0.0000 H   0  0  0  0  0  0  0  0  0  0  0  0
    6.2314   -2.7004    0.0000 H   0  0  0  0  0  0  0  0  0  0  0  0
    5.8970   -0.8013    0.0000 C   0  0  0  0  0  0  0  0  0  0  0  0
    5.3842    0.6092    0.0000 C   0  0  0  0  0  0  0  0  0  0  0  0
    6.3486    1.7592    0.0000 C   0  0  0  0  0  0  0  0  0  0  0  0
    5.8354    3.1687    0.0000 H   0  0  0  0  0  0  0  0  0  0  0  0
    7.8258    1.4986    0.0000 C   0  0  0  0  0  0  0  0  0  0  0  0
    8.3386    0.0881    0.0000 C   0  0  0  0  0  0  0  0  0  0  0  0
    7.3742   -1.0618    0.0000 C   0  0  0  0  0  0  0  0  0  0  0  0
    7.8874   -2.4713    0.0000 H   0  0  0  0  0  0  0  0  0  0  0  0
    9.8158   -0.1724    0.0000 O   0  0  0  0  0  0  0  0  0  0  0  0
   10.7800    0.9766    0.0000 H   0  0  0  0  0  0  0  0  0  0  0  0
    8.7902    2.6475    0.0000 O   0  0  0  0  0  0  0  0  0  0  0  0
   10.2674    2.3867    0.0000 H   0  0  0  0  0  0  0  0  0  0  0  0
    3.9070    0.8698    0.0000 F   0  0  0  0  0  0  0  0  0  0  0  0
    3.4554   -1.6894    0.0000 C   0  0  1  0  0  0  0  0  0  0  0  0
    3.9687   -0.2799    0.0000 H   0  0  0  0  0  0  0  0  0  0  0  0
    2.1565   -0.9391    0.0000 C   0  0  0  0  0  0  0  0  0  0  0  0
    0.8573   -1.6888    0.0000 O   0  0  0  0  0  0  0  0  0  0  0  0
    2.1568    0.5609    0.0000 O   0  0  0  0  0  0  0  0  0  0  0  0
    0.8580    1.3112    0.0000 H   0  0  0  0  0  0  0  0  0  0  0  0
    2.4910   -2.8382    0.0000 N   0  0  0  0  0  0  0  0  0  0  0  0
    3.0037   -4.2479    0.0000 H   0  0  0  0  0  0  0  0  0  0  0  0
    0.5411   -2.4940    0.0000 C   0  0  0  0  0  0  0  0  0  0  0  0
    1.2185   -0.6335    0.0000 H   0  0  0  0  0  0  0  0  0  0  0  0
   -0.7579   -1.7440    0.0000 C   0  0  0  0  0  0  0  0  0  0  0  0
    0.2062   -0.5948    0.0000 H   0  0  0  0  0  0  0  0  0  0  0  0
   -2.0574   -2.4948    0.0000 C   0  0  0  0  0  0  0  0  0  0  0  0
   -2.5706   -1.0853    0.0000 H   0  0  0  0  0  0  0  0  0  0  0  0
   -2.0579   -3.9957    0.0000 C   0  0  0  0  0  0  0  0  0  0  0  0
   -3.5351   -3.7349    0.0000 H   0  0  0  0  0  0  0  0  0  0  0  0
   -0.7589   -4.7457    0.0000 C   0  0  0  0  0  0  0  0  0  0  0  0
   -1.7229   -5.8948    0.0000 H   0  0  0  0  0  0  0  0  0  0  0  0
    0.2056   -5.8945    0.0000 C   0  0  0  0  0  0  0  0  0  0  0  0
    1.6827   -5.6337    0.0000 O   0  0  0  0  0  0  0  0  0  0  0  0
   -0.3072   -7.3042    0.0000 O   0  0  0  0  0  0  0  0  0  0  0  0
   -1.7843   -7.5649    0.0000 H   0  0  0  0  0  0  0  0  0  0  0  0
    0.5407   -3.9948    0.0000 O   0  0  0  0  0  0  0  0  0  0  0  0
   -2.5711   -5.4051    0.0000 O   0  0  0  0  0  0  0  0  0  0  0  0
   -4.0483   -5.6654    0.0000 H   0  0  0  0  0  0  0  0  0  0  0  0
   -3.5347   -2.7551    0.0000 O   0  0  0  0  0  0  0  0  0  0  0  0
   -4.4987   -1.6060    0.0000 H   0  0  0  0  0  0  0  0  0  0  0  0
   -1.7223   -0.5951    0.0000 O   0  0  0  0  0  0  0  0  0  0  0  0
   -1.2096    0.8145    0.0000 H   0  0  0  0  0  0  0  0  0  0  0  0
  1  2  1  0  0  0  0 
  1  3  1  0  0  0  0 
  1  4  1  0  0  0  0 
  4  5  2  0  0  0  0 
  5  6  1  0  0  0  0 
  6  7  1  0  0  0  0 
  6  8  2  0  0  0  0 
  8  9  1  0  0  0  0 
  9 10  2  0  0  0  0 
  4 10  1  0  0  0  0 
 10 11  1  0  0  0  0 
  9 12  1  0  0  0  0 
 12 13  1  0  0  0  0 
  8 14  1  0  0  0  0 
 14 15  1  0  0  0  0 
  5 16  1  0  0  0  0 
  1 17  1  0  0  0  0 
 17 18  1  1  0  0  0 
 17 19  1  6  0  0  0 
 19 20  2  0  0  0  0 
 19 21  1  0  0  0  0 
 21 22  1  0  0  0  0 
 17 23  1  0  0  0  0 
 23 24  1  0  0  0  0 
 23 25  1  0  0  0  0 
 25 26  1  0  0  0  0 
 25 27  1  0  0  0  0 
 27 28  1  0  0  0  0 
 27 29  1  0  0  0  0 
 29 30  1  0  0  0  0 
 29 31  1  0  0  0  0 
 31 32  1  0  0  0  0 
 31 33  1  0  0  0  0 
 33 34  1  0  0  0  0 
 33 35  1  0  0  0  0 
 35 36  2  0  0  0  0 
 35 37  1  0  0  0  0 
 37 38  1  0  0  0  0 
 33 39  1  0  0  0  0 
 25 39  1  0  0  0  0 
 31 40  1  0  0  0  0 
 40 41  1  0  0  0  0 
 29 42  1  0  0  0  0 
 42 43  1  0  0  0  0 
 27 44  1  0  0  0  0 
 44 45  1  0  0  0  0 
M  ISO  1  16  18
M  END
> <Rank>
7

> <Priority_score>
0.46

> <Reaction_type>
N-glucuronidation_(aliphatic_NH2)

> <Parent_ID>
73

> <Parent_InChI>
InChI=1S/C9H10FNO4/c10-5-3-8(13)7(12)2-4(5)1-6(11)9(14)15/h2-3,6,12-13H,1,11H2,(H,14,15)/i10-1

> <Parent_SMILES>
N[C@@H](Cc1cc(O)c(O)cc1[18F])C(=O)O

$$$$
Molecule 73_metabolite 8
  CDK     0516241031

 24 24  0  0  0  0  0  0  0  0999 V2000
   -1.3000    0.7500    0.0000 C   0  0  0  0  0  0  0  0  0  0  0  0
   -2.5989    1.5002    0.0000 H   0  0  0  0  0  0  0  0  0  0  0  0
    0.0000    1.5000    0.0000 C   0  0  0  0  0  0  0  0  0  0  0  0
    1.3000    0.7500    0.0000 C   0  0  0  0  0  0  0  0  0  0  0  0
    2.5989    1.5002    0.0000 H   0  0  0  0  0  0  0  0  0  0  0  0
    1.3000   -0.7500    0.0000 C   0  0  0  0  0  0  0  0  0  0  0  0
    3.0146   -1.7403    0.0000 C   0  0  0  0  0  0  0  0  0  0  0  0
    2.0502   -2.8892    0.0000 H   0  0  0  0  0  0  0  0  0  0  0  0
    3.9786   -2.8895    0.0000 H   0  0  0  0  0  0  0  0  0  0  0  0
    4.3137   -0.9905    0.0000 C   0  0  1  0  0  0  0  0  0  0  0  0
    5.2781    0.1584    0.0000 H   0  0  0  0  0  0  0  0  0  0  0  0
    5.6126   -1.7407    0.0000 C   0  0  0  0  0  0  0  0  0  0  0  0
    5.6124   -3.2407    0.0000 O   0  0  0  0  0  0  0  0  0  0  0  0
    6.9118   -0.9909    0.0000 O   0  0  0  0  0  0  0  0  0  0  0  0
    8.2107   -1.7411    0.0000 H   0  0  0  0  0  0  0  0  0  0  0  0
    3.3497    0.1587    0.0000 N   0  0  0  0  0  0  0  0  0  0  0  0
    3.8630    1.5682    0.0000 H   0  0  0  0  0  0  0  0  0  0  0  0
    1.8725   -0.1015    0.0000 H   0  0  0  0  0  0  0  0  0  0  0  0
    0.0000   -1.5000    0.0000 C   0  0  0  0  0  0  0  0  0  0  0  0
   -1.3000   -0.7500    0.0000 C   0  0  0  0  0  0  0  0  0  0  0  0
   -2.5989   -1.5002    0.0000 H   0  0  0  0  0  0  0  0  0  0  0  0
   -0.0000   -3.0000    0.0000 F   0  0  0  0  0  0  0  0  0  0  0  0
    0.0000    3.0000    0.0000 O   0  0  0  0  0  0  0  0  0  0  0  0
   -1.2990    3.7500    0.0000 H   0  0  0  0  0  0  0  0  0  0  0  0
  1  2  1  0  0  0  0 
  1  3  2  0  0  0  0 
  3  4  1  0  0  0  0 
  4  5  1  0  0  0  0 
  4  6  2  0  0  0  0 
  6  7  1  0  0  0  0 
  7  8  1  0  0  0  0 
  7  9  1  0  0  0  0 
  7 10  1  0  0  0  0 
 10 11  1  1  0  0  0 
 10 12  1  0  0  0  0 
 12 13  2  0  0  0  0 
 12 14  1  0  0  0  0 
 14 15  1  0  0  0  0 
 10 16  1  6  0  0  0 
 16 17  1  0  0  0  0 
 16 18  1  0  0  0  0 
  6 19  1  0  0  0  0 
 19 20  2  0  0  0  0 
  1 20  1  0  0  0  0 
 20 21  1  0  0  0  0 
 19 22  1  0  0  0  0 
  3 23  1  0  0  0  0 
 23 24  1  0  0  0  0 
M  ISO  1  22  18
M  END
> <Rank>
8

> <Priority_score>
0.408

> <Reaction_type>
aromatic_dehydroxylation

> <Parent_ID>
73

> <Parent_InChI>
InChI=1S/C9H10FNO4/c10-5-3-8(13)7(12)2-4(5)1-6(11)9(14)15/h2-3,6,12-13H,1,11H2,(H,14,15)/i10-1

> <Parent_SMILES>
N[C@@H](Cc1cc(O)c(O)cc1[18F])C(=O)O

$$$$
Molecule 73_metabolite 9
  CDK     0516241031

 26 26  0  0  0  0  0  0  0  0999 V2000
   -3.0146    1.7403    0.0000 C   0  0  0  0  0  0  0  0  0  0  0  0
   -2.0502    2.8892    0.0000 H   0  0  0  0  0  0  0  0  0  0  0  0
   -3.9786    2.8895    0.0000 H   0  0  0  0  0  0  0  0  0  0  0  0
   -1.3000    0.7500    0.0000 C   0  0  0  0  0  0  0  0  0  0  0  0
    0.0000    1.5000    0.0000 C   0  0  0  0  0  0  0  0  0  0  0  0
    1.3000    0.7500    0.0000 C   0  0  0  0  0  0  0  0  0  0  0  0
    1.3000   -0.7500    0.0000 C   0  0  0  0  0  0  0  0  0  0  0  0
    0.0000   -1.5000    0.0000 C   0  0  0  0  0  0  0  0  0  0  0  0
   -1.3000   -0.7500    0.0000 C   0  0  0  0  0  0  0  0  0  0  0  0
   -2.5989   -1.5002    0.0000 H   0  0  0  0  0  0  0  0  0  0  0  0
   -0.0000   -3.0000    0.0000 O   0  0  0  0  0  0  0  0  0  0  0  0
    1.2990   -3.7500    0.0000 H   0  0  0  0  0  0  0  0  0  0  0  0
    2.5989   -1.5002    0.0000 O   0  0  0  0  0  0  0  0  0  0  0  0
    3.8981   -0.7504    0.0000 H   0  0  0  0  0  0  0  0  0  0  0  0
    2.5989    1.5002    0.0000 O   0  0  0  0  0  0  0  0  0  0  0  0
    3.8981    0.7504    0.0000 H   0  0  0  0  0  0  0  0  0  0  0  0
    0.0000    3.0000    0.0000 F   0  0  0  0  0  0  0  0  0  0  0  0
   -4.3137    0.9905    0.0000 C   0  0  1  0  0  0  0  0  0  0  0  0
   -5.2781   -0.1584    0.0000 H   0  0  0  0  0  0  0  0  0  0  0  0
   -5.6126    1.7407    0.0000 C   0  0  0  0  0  0  0  0  0  0  0  0
   -5.6124    3.2407    0.0000 O   0  0  0  0  0  0  0  0  0  0  0  0
   -6.9118    0.9909    0.0000 O   0  0  0  0  0  0  0  0  0  0  0  0
   -8.2107    1.7411    0.0000 H   0  0  0  0  0  0  0  0  0  0  0  0
   -3.3497   -0.1587    0.0000 N   0  0  0  0  0  0  0  0  0  0  0  0
   -3.8630   -1.5682    0.0000 H   0  0  0  0  0  0  0  0  0  0  0  0
   -1.8725    0.1015    0.0000 H   0  0  0  0  0  0  0  0  0  0  0  0
  1  2  1  0  0  0  0 
  1  3  1  0  0  0  0 
  1  4  1  0  0  0  0 
  4  5  2  0  0  0  0 
  5  6  1  0  0  0  0 
  6  7  2  0  0  0  0 
  7  8  1  0  0  0  0 
  8  9  2  0  0  0  0 
  4  9  1  0  0  0  0 
  9 10  1  0  0  0  0 
  8 11  1  0  0  0  0 
 11 12  1  0  0  0  0 
  7 13  1  0  0  0  0 
 13 14  1  0  0  0  0 
  6 15  1  0  0  0  0 
 15 16  1  0  0  0  0 
  5 17  1  0  0  0  0 
  1 18  1  0  0  0  0 
 18 19  1  1  0  0  0 
 18 20  1  0  0  0  0 
 20 21  2  0  0  0  0 
 20 22  1  0  0  0  0 
 22 23  1  0  0  0  0 
 18 24  1  6  0  0  0 
 24 25  1  0  0  0  0 
 24 26  1  0  0  0  0 
M  ISO  1  17  18
M  END
> <Rank>
8

> <Priority_score>
0.408

> <Reaction_type>
aromatic_hydroxylation_(ortho_to_oxygen)

> <Parent_ID>
73

> <Parent_InChI>
InChI=1S/C9H10FNO4/c10-5-3-8(13)7(12)2-4(5)1-6(11)9(14)15/h2-3,6,12-13H,1,11H2,(H,14,15)/i10-1

> <Parent_SMILES>
N[C@@H](Cc1cc(O)c(O)cc1[18F])C(=O)O

$$$$
Molecule 73_metabolite 10
  CDK     0516241031

 28 28  0  0  0  0  0  0  0  0999 V2000
    6.9118   -0.9911    0.0000 C   0  0  0  0  0  0  0  0  0  0  0  0
    8.2107   -1.7413    0.0000 H   0  0  0  0  0  0  0  0  0  0  0  0
    7.8762    0.1578    0.0000 H   0  0  0  0  0  0  0  0  0  0  0  0
    5.9478    0.1581    0.0000 H   0  0  0  0  0  0  0  0  0  0  0  0
    5.6126   -1.7409    0.0000 O   0  0  0  0  0  0  0  0  0  0  0  0
    4.3137   -0.9907    0.0000 C   0  0  0  0  0  0  0  0  0  0  0  0
    3.0137   -1.7407    0.0000 C   0  0  0  0  0  0  0  0  0  0  0  0
    3.0137   -3.2407    0.0000 H   0  0  0  0  0  0  0  0  0  0  0  0
    1.7137   -0.9907    0.0000 C   0  0  0  0  0  0  0  0  0  0  0  0
    1.7137    0.5093    0.0000 C   0  0  0  0  0  0  0  0  0  0  0  0
   -0.0008    1.4996    0.0000 C   0  0  0  0  0  0  0  0  0  0  0  0
    0.9635    2.6485    0.0000 H   0  0  0  0  0  0  0  0  0  0  0  0
   -0.9648    2.6488    0.0000 H   0  0  0  0  0  0  0  0  0  0  0  0
   -1.3000    0.7498    0.0000 C   0  0  1  0  0  0  0  0  0  0  0  0
   -2.2644   -0.3991    0.0000 H   0  0  0  0  0  0  0  0  0  0  0  0
   -2.5989    1.5000    0.0000 C   0  0  0  0  0  0  0  0  0  0  0  0
   -2.5987    3.0000    0.0000 O   0  0  0  0  0  0  0  0  0  0  0  0
   -3.8981    0.7502    0.0000 O   0  0  0  0  0  0  0  0  0  0  0  0
   -5.1970    1.5004    0.0000 H   0  0  0  0  0  0  0  0  0  0  0  0
   -0.3360   -0.3994    0.0000 N   0  0  0  0  0  0  0  0  0  0  0  0
   -0.8493   -1.8089    0.0000 H   0  0  0  0  0  0  0  0  0  0  0  0
    1.1413   -0.1392    0.0000 H   0  0  0  0  0  0  0  0  0  0  0  0
    3.0137    1.2593    0.0000 C   0  0  0  0  0  0  0  0  0  0  0  0
    3.0137    2.7593    0.0000 H   0  0  0  0  0  0  0  0  0  0  0  0
    4.3137    0.5093    0.0000 C   0  0  0  0  0  0  0  0  0  0  0  0
    5.6126    1.2595    0.0000 O   0  0  0  0  0  0  0  0  0  0  0  0
    6.9118    0.5097    0.0000 H   0  0  0  0  0  0  0  0  0  0  0  0
    0.4148   -1.7409    0.0000 F   0  0  0  0  0  0  0  0  0  0  0  0
  1  2  1  0  0  0  0 
  1  3  1  0  0  0  0 
  1  4  1  0  0  0  0 
  1  5  1  0  0  0  0 
  5  6  1  0  0  0  0 
  6  7  2  0  0  0  0 
  7  8  1  0  0  0  0 
  7  9  1  0  0  0  0 
  9 10  2  0  0  0  0 
 10 11  1  0  0  0  0 
 11 12  1  0  0  0  0 
 11 13  1  0  0  0  0 
 11 14  1  0  0  0  0 
 14 15  1  1  0  0  0 
 14 16  1  0  0  0  0 
 16 17  2  0  0  0  0 
 16 18  1  0  0  0  0 
 18 19  1  0  0  0  0 
 14 20  1  6  0  0  0 
 20 21  1  0  0  0  0 
 20 22  1  0  0  0  0 
 10 23  1  0  0  0  0 
 23 24  1  0  0  0  0 
 23 25  2  0  0  0  0 
  6 25  1  0  0  0  0 
 25 26  1  0  0  0  0 
 26 27  1  0  0  0  0 
  9 28  1  0  0  0  0 
M  ISO  1  28  18
M  END
> <Rank>
10

> <Priority_score>
0.36

> <Reaction_type>
methylation_(aromatic_OH)

> <Parent_ID>
73

> <Parent_InChI>
InChI=1S/C9H10FNO4/c10-5-3-8(13)7(12)2-4(5)1-6(11)9(14)15/h2-3,6,12-13H,1,11H2,(H,14,15)/i10-1

> <Parent_SMILES>
N[C@@H](Cc1cc(O)c(O)cc1[18F])C(=O)O

$$$$
Molecule 73_metabolite 11
  CDK     0516241031

 29 29  0  0  0  0  0  0  0  0999 V2000
   -3.0146    1.7403    0.0000 C   0  0  0  0  0  0  0  0  0  0  0  0
   -2.0502    2.8892    0.0000 H   0  0  0  0  0  0  0  0  0  0  0  0
   -3.9786    2.8895    0.0000 H   0  0  0  0  0  0  0  0  0  0  0  0
   -1.3000    0.7500    0.0000 C   0  0  0  0  0  0  0  0  0  0  0  0
    0.0000    1.5000    0.0000 C   0  0  0  0  0  0  0  0  0  0  0  0
    1.3000    0.7500    0.0000 C   0  0  0  0  0  0  0  0  0  0  0  0
    2.5989    1.5002    0.0000 H   0  0  0  0  0  0  0  0  0  0  0  0
    1.3000   -0.7500    0.0000 C   0  0  0  0  0  0  0  0  0  0  0  0
    0.0000   -1.5000    0.0000 C   0  0  0  0  0  0  0  0  0  0  0  0
   -1.3000   -0.7500    0.0000 C   0  0  0  0  0  0  0  0  0  0  0  0
   -2.5989   -1.5002    0.0000 H   0  0  0  0  0  0  0  0  0  0  0  0
   -0.0000   -3.0000    0.0000 O   0  0  0  0  0  0  0  0  0  0  0  0
    1.2990   -3.7500    0.0000 H   0  0  0  0  0  0  0  0  0  0  0  0
    2.5989   -1.5002    0.0000 O   0  0  0  0  0  0  0  0  0  0  0  0
    3.8981   -0.7504    0.0000 S   0  0  0  0  0  0  0  0  0  0  0  0
    4.8624    0.3985    0.0000 O   0  0  0  0  0  0  0  0  0  0  0  0
    2.9341    0.3988    0.0000 O   0  0  0  0  0  0  0  0  0  0  0  0
    5.1970   -1.5006    0.0000 O   0  0  0  0  0  0  0  0  0  0  0  0
    6.4962   -0.7508    0.0000 H   0  0  0  0  0  0  0  0  0  0  0  0
    0.0000    3.0000    0.0000 F   0  0  0  0  0  0  0  0  0  0  0  0
   -4.3137    0.9905    0.0000 C   0  0  1  0  0  0  0  0  0  0  0  0
   -5.2781   -0.1584    0.0000 H   0  0  0  0  0  0  0  0  0  0  0  0
   -5.6126    1.7407    0.0000 C   0  0  0  0  0  0  0  0  0  0  0  0
   -5.6124    3.2407    0.0000 O   0  0  0  0  0  0  0  0  0  0  0  0
   -6.9118    0.9909    0.0000 O   0  0  0  0  0  0  0  0  0  0  0  0
   -8.2107    1.7411    0.0000 H   0  0  0  0  0  0  0  0  0  0  0  0
   -3.3497   -0.1587    0.0000 N   0  0  0  0  0  0  0  0  0  0  0  0
   -3.8630   -1.5682    0.0000 H   0  0  0  0  0  0  0  0  0  0  0  0
   -1.8725    0.1015    0.0000 H   0  0  0  0  0  0  0  0  0  0  0  0
  1  2  1  0  0  0  0 
  1  3  1  0  0  0  0 
  1  4  1  0  0  0  0 
  4  5  2  0  0  0  0 
  5  6  1  0  0  0  0 
  6  7  1  0  0  0  0 
  6  8  2  0  0  0  0 
  8  9  1  0  0  0  0 
  9 10  2  0  0  0  0 
  4 10  1  0  0  0  0 
 10 11  1  0  0  0  0 
  9 12  1  0  0  0  0 
 12 13  1  0  0  0  0 
  8 14  1  0  0  0  0 
 14 15  1  0  0  0  0 
 15 16  2  0  0  0  0 
 15 17  2  0  0  0  0 
 15 18  1  0  0  0  0 
 18 19  1  0  0  0  0 
  5 20  1  0  0  0  0 
  1 21  1  0  0  0  0 
 21 22  1  1  0  0  0 
 21 23  1  0  0  0  0 
 23 24  2  0  0  0  0 
 23 25  1  0  0  0  0 
 25 26  1  0  0  0  0 
 21 27  1  6  0  0  0 
 27 28  1  0  0  0  0 
 27 29  1  0  0  0  0 
M  ISO  1  20  18
M  END
> <Rank>
11

> <Priority_score>
0.336

> <Reaction_type>
sulfation_(aromatic_hydroxyl)

> <Parent_ID>
73

> <Parent_InChI>
InChI=1S/C9H10FNO4/c10-5-3-8(13)7(12)2-4(5)1-6(11)9(14)15/h2-3,6,12-13H,1,11H2,(H,14,15)/i10-1

> <Parent_SMILES>
N[C@@H](Cc1cc(O)c(O)cc1[18F])C(=O)O

$$$$
Molecule 73_metabolite 12
  CDK     0516241031

 22 22  0  0  0  0  0  0  0  0999 V2000
   -2.5989    1.5002    0.0000 C   0  0  0  0  0  0  0  0  0  0  0  0
   -1.6346    2.6491    0.0000 H   0  0  0  0  0  0  0  0  0  0  0  0
   -3.5629    2.6494    0.0000 H   0  0  0  0  0  0  0  0  0  0  0  0
   -3.8981    0.7504    0.0000 C   0  0  0  0  0  0  0  0  0  0  0  0
   -4.8624   -0.3985    0.0000 H   0  0  0  0  0  0  0  0  0  0  0  0
   -2.9341   -0.3988    0.0000 H   0  0  0  0  0  0  0  0  0  0  0  0
   -5.1970    1.5006    0.0000 N   0  0  0  0  0  0  0  0  0  0  0  0
   -6.4962    0.7508    0.0000 H   0  0  0  0  0  0  0  0  0  0  0  0
   -5.1968    3.0006    0.0000 H   0  0  0  0  0  0  0  0  0  0  0  0
   -1.3000    0.7500    0.0000 C   0  0  0  0  0  0  0  0  0  0  0  0
    0.0000    1.5000    0.0000 C   0  0  0  0  0  0  0  0  0  0  0  0
    1.3000    0.7500    0.0000 C   0  0  0  0  0  0  0  0  0  0  0  0
    2.5989    1.5002    0.0000 H   0  0  0  0  0  0  0  0  0  0  0  0
    1.3000   -0.7500    0.0000 C   0  0  0  0  0  0  0  0  0  0  0  0
    0.0000   -1.5000    0.0000 C   0  0  0  0  0  0  0  0  0  0  0  0
   -1.3000   -0.7500    0.0000 C   0  0  0  0  0  0  0  0  0  0  0  0
   -2.5989   -1.5002    0.0000 H   0  0  0  0  0  0  0  0  0  0  0  0
   -0.0000   -3.0000    0.0000 O   0  0  0  0  0  0  0  0  0  0  0  0
    1.2990   -3.7500    0.0000 H   0  0  0  0  0  0  0  0  0  0  0  0
    2.5989   -1.5002    0.0000 O   0  0  0  0  0  0  0  0  0  0  0  0
    3.8981   -0.7504    0.0000 H   0  0  0  0  0  0  0  0  0  0  0  0
    0.0000    3.0000    0.0000 F   0  0  0  0  0  0  0  0  0  0  0  0
  1  2  1  0  0  0  0 
  1  3  1  0  0  0  0 
  1  4  1  0  0  0  0 
  4  5  1  0  0  0  0 
  4  6  1  0  0  0  0 
  4  7  1  0  0  0  0 
  7  8  1  0  0  0  0 
  7  9  1  0  0  0  0 
  1 10  1  0  0  0  0 
 10 11  2  0  0  0  0 
 11 12  1  0  0  0  0 
 12 13  1  0  0  0  0 
 12 14  2  0  0  0  0 
 14 15  1  0  0  0  0 
 15 16  2  0  0  0  0 
 10 16  1  0  0  0  0 
 16 17  1  0  0  0  0 
 15 18  1  0  0  0  0 
 18 19  1  0  0  0  0 
 14 20  1  0  0  0  0 
 20 21  1  0  0  0  0 
 11 22  1  0  0  0  0 
M  ISO  1  22  18
M  END
> <Rank>
12

> <Priority_score>
0.312

> <Reaction_type>
decarboxylation

> <Parent_ID>
73

> <Parent_InChI>
InChI=1S/C9H10FNO4/c10-5-3-8(13)7(12)2-4(5)1-6(11)9(14)15/h2-3,6,12-13H,1,11H2,(H,14,15)/i10-1

> <Parent_SMILES>
N[C@@H](Cc1cc(O)c(O)cc1[18F])C(=O)O

$$$$
Molecule 73_metabolite 13
  CDK     0516241031

 22 22  0  0  0  0  0  0  0  0999 V2000
   -2.5970   -0.0006    0.0000 C   0  0  0  0  0  0  0  0  0  0  0  0
   -1.2981   -0.7508    0.0000 H   0  0  0  0  0  0  0  0  0  0  0  0
   -3.8970   -0.7506    0.0000 C   0  0  0  0  0  0  0  0  0  0  0  0
   -5.1970   -0.0006    0.0000 C   0  0  0  0  0  0  0  0  0  0  0  0
   -5.1970    1.4994    0.0000 C   0  0  0  0  0  0  0  0  0  0  0  0
   -6.4959    2.2496    0.0000 H   0  0  0  0  0  0  0  0  0  0  0  0
   -3.8970    2.2494    0.0000 C   0  0  0  0  0  0  0  0  0  0  0  0
   -2.5970    1.4994    0.0000 C   0  0  0  0  0  0  0  0  0  0  0  0
   -1.2981    2.2496    0.0000 C   0  0  0  0  0  0  0  0  0  0  0  0
   -0.3341    3.3988    0.0000 H   0  0  0  0  0  0  0  0  0  0  0  0
   -2.2624    3.3985    0.0000 H   0  0  0  0  0  0  0  0  0  0  0  0
    0.0011    1.4998    0.0000 C   0  0  0  0  0  0  0  0  0  0  0  0
    0.0013   -0.0002    0.0000 O   0  0  0  0  0  0  0  0  0  0  0  0
    1.3000    2.2500    0.0000 C   0  0  0  0  0  0  0  0  0  0  0  0
    1.2998    3.7500    0.0000 O   0  0  0  0  0  0  0  0  0  0  0  0
    2.5992    1.5002    0.0000 O   0  0  0  0  0  0  0  0  0  0  0  0
    3.8981    2.2504    0.0000 H   0  0  0  0  0  0  0  0  0  0  0  0
   -3.8970    3.7494    0.0000 F   0  0  0  0  0  0  0  0  0  0  0  0
   -6.4959   -0.7508    0.0000 O   0  0  0  0  0  0  0  0  0  0  0  0
   -7.7951   -0.0010    0.0000 H   0  0  0  0  0  0  0  0  0  0  0  0
   -3.8970   -2.2506    0.0000 O   0  0  0  0  0  0  0  0  0  0  0  0
   -5.1960   -3.0006    0.0000 H   0  0  0  0  0  0  0  0  0  0  0  0
  1  2  1  0  0  0  0 
  1  3  2  0  0  0  0 
  3  4  1  0  0  0  0 
  4  5  2  0  0  0  0 
  5  6  1  0  0  0  0 
  5  7  1  0  0  0  0 
  7  8  2  0  0  0  0 
  1  8  1  0  0  0  0 
  8  9  1  0  0  0  0 
  9 10  1  0  0  0  0 
  9 11  1  0  0  0  0 
  9 12  1  0  0  0  0 
 12 13  2  0  0  0  0 
 12 14  1  0  0  0  0 
 14 15  2  0  0  0  0 
 14 16  1  0  0  0  0 
 16 17  1  0  0  0  0 
  7 18  1  0  0  0  0 
  4 19  1  0  0  0  0 
 19 20  1  0  0  0  0 
  3 21  1  0  0  0  0 
 21 22  1  0  0  0  0 
M  ISO  1  18  18
M  END
> <Rank>
12

> <Priority_score>
0.312

> <Reaction_type>
oxidative_deamination_(on_secondary_carbon)

> <Parent_ID>
73

> <Parent_InChI>
InChI=1S/C9H10FNO4/c10-5-3-8(13)7(12)2-4(5)1-6(11)9(14)15/h2-3,6,12-13H,1,11H2,(H,14,15)/i10-1

> <Parent_SMILES>
N[C@@H](Cc1cc(O)c(O)cc1[18F])C(=O)O

$$$$
Molecule 73_metabolite 14
  CDK     0516241031

 26 26  0  0  0  0  0  0  0  0999 V2000
   -3.0126   -0.2407    0.0000 C   0  0  0  0  0  0  0  0  0  0  0  0
   -1.7137   -0.9909    0.0000 H   0  0  0  0  0  0  0  0  0  0  0  0
   -4.3126   -0.9907    0.0000 C   0  0  0  0  0  0  0  0  0  0  0  0
   -5.6126   -0.2407    0.0000 C   0  0  0  0  0  0  0  0  0  0  0  0
   -5.6126    1.2593    0.0000 C   0  0  0  0  0  0  0  0  0  0  0  0
   -6.9116    2.0095    0.0000 H   0  0  0  0  0  0  0  0  0  0  0  0
   -4.3126    2.0093    0.0000 C   0  0  0  0  0  0  0  0  0  0  0  0
   -3.0126    1.2593    0.0000 C   0  0  0  0  0  0  0  0  0  0  0  0
   -1.2981    2.2496    0.0000 C   0  0  0  0  0  0  0  0  0  0  0  0
   -0.3341    3.3988    0.0000 H   0  0  0  0  0  0  0  0  0  0  0  0
   -2.2624    3.3985    0.0000 H   0  0  0  0  0  0  0  0  0  0  0  0
    0.0011    1.4998    0.0000 C   0  0  1  0  0  0  0  0  0  0  0  0
    1.3000    2.2500    0.0000 C   0  0  0  0  0  0  0  0  0  0  0  0
    1.2998    3.7500    0.0000 O   0  0  0  0  0  0  0  0  0  0  0  0
    2.5992    1.5002    0.0000 O   0  0  0  0  0  0  0  0  0  0  0  0
    3.8981    2.2504    0.0000 H   0  0  0  0  0  0  0  0  0  0  0  0
   -0.9629    0.3506    0.0000 N   0  0  0  0  0  0  0  0  0  0  0  0
   -0.4497   -1.0589    0.0000 H   0  0  0  0  0  0  0  0  0  0  0  0
   -2.4402    0.6108    0.0000 H   0  0  0  0  0  0  0  0  0  0  0  0
    0.9654    0.3509    0.0000 O   0  0  0  0  0  0  0  0  0  0  0  0
    2.4426    0.6116    0.0000 H   0  0  0  0  0  0  0  0  0  0  0  0
   -4.3126    3.5093    0.0000 F   0  0  0  0  0  0  0  0  0  0  0  0
   -6.9116   -0.9909    0.0000 O   0  0  0  0  0  0  0  0  0  0  0  0
   -8.2107   -0.2411    0.0000 H   0  0  0  0  0  0  0  0  0  0  0  0
   -4.3126   -2.4907    0.0000 O   0  0  0  0  0  0  0  0  0  0  0  0
   -5.6117   -3.2407    0.0000 H   0  0  0  0  0  0  0  0  0  0  0  0
  1  2  1  0  0  0  0 
  1  3  2  0  0  0  0 
  3  4  1  0  0  0  0 
  4  5  2  0  0  0  0 
  5  6  1  0  0  0  0 
  5  7  1  0  0  0  0 
  7  8  2  0  0  0  0 
  1  8  1  0  0  0  0 
  8  9  1  0  0  0  0 
  9 10  1  0  0  0  0 
  9 11  1  0  0  0  0 
  9 12  1  0  0  0  0 
 12 13  1  0  0  0  0 
 13 14  2  0  0  0  0 
 13 15  1  0  0  0  0 
 15 16  1  0  0  0  0 
 12 17  1  1  0  0  0 
 17 18  1  0  0  0  0 
 17 19  1  0  0  0  0 
 12 20  1  6  0  0  0 
 20 21  1  0  0  0  0 
  7 22  1  0  0  0  0 
  4 23  1  0  0  0  0 
 23 24  1  0  0  0  0 
  3 25  1  0  0  0  0 
 25 26  1  0  0  0  0 
M  ISO  1  22  18
M  END
> <Rank>
12

> <Priority_score>
0.312

> <Reaction_type>
aliphatic_hydroxylation_(tert_carbon_next_to_SP2)

> <Parent_ID>
73

> <Parent_InChI>
InChI=1S/C9H10FNO4/c10-5-3-8(13)7(12)2-4(5)1-6(11)9(14)15/h2-3,6,12-13H,1,11H2,(H,14,15)/i10-1

> <Parent_SMILES>
N[C@@H](Cc1cc(O)c(O)cc1[18F])C(=O)O

$$$$
Molecule 73_metabolite 15
  CDK     0516241031

 26 26  0  0  0  0  0  0  0  0999 V2000
   -3.0146    1.7403    0.0000 C   0  0  0  0  0  0  0  0  0  0  0  0
   -2.0502    2.8892    0.0000 H   0  0  0  0  0  0  0  0  0  0  0  0
   -3.9786    2.8895    0.0000 H   0  0  0  0  0  0  0  0  0  0  0  0
   -1.3000    0.7500    0.0000 C   0  0  0  0  0  0  0  0  0  0  0  0
    0.0000    1.5000    0.0000 C   0  0  0  0  0  0  0  0  0  0  0  0
    1.3000    0.7500    0.0000 C   0  0  0  0  0  0  0  0  0  0  0  0
    2.5989    1.5002    0.0000 H   0  0  0  0  0  0  0  0  0  0  0  0
    1.3000   -0.7500    0.0000 C   0  0  0  0  0  0  0  0  0  0  0  0
    0.0000   -1.5000    0.0000 C   0  0  0  0  0  0  0  0  0  0  0  0
   -1.3000   -0.7500    0.0000 C   0  0  0  0  0  0  0  0  0  0  0  0
   -2.5989   -1.5002    0.0000 O   0  0  0  0  0  0  0  0  0  0  0  0
   -2.5987   -3.0002    0.0000 H   0  0  0  0  0  0  0  0  0  0  0  0
   -0.0000   -3.0000    0.0000 O   0  0  0  0  0  0  0  0  0  0  0  0
    1.2990   -3.7500    0.0000 H   0  0  0  0  0  0  0  0  0  0  0  0
    2.5989   -1.5002    0.0000 O   0  0  0  0  0  0  0  0  0  0  0  0
    3.8981   -0.7504    0.0000 H   0  0  0  0  0  0  0  0  0  0  0  0
    0.0000    3.0000    0.0000 F   0  0  0  0  0  0  0  0  0  0  0  0
   -4.3137    0.9905    0.0000 C   0  0  1  0  0  0  0  0  0  0  0  0
   -5.2781   -0.1584    0.0000 H   0  0  0  0  0  0  0  0  0  0  0  0
   -5.6126    1.7407    0.0000 C   0  0  0  0  0  0  0  0  0  0  0  0
   -5.6124    3.2407    0.0000 O   0  0  0  0  0  0  0  0  0  0  0  0
   -6.9118    0.9909    0.0000 O   0  0  0  0  0  0  0  0  0  0  0  0
   -8.2107    1.7411    0.0000 H   0  0  0  0  0  0  0  0  0  0  0  0
   -3.3497   -0.1587    0.0000 N   0  0  0  0  0  0  0  0  0  0  0  0
   -3.8630   -1.5682    0.0000 H   0  0  0  0  0  0  0  0  0  0  0  0
   -1.8725    0.1015    0.0000 H   0  0  0  0  0  0  0  0  0  0  0  0
  1  2  1  0  0  0  0 
  1  3  1  0  0  0  0 
  1  4  1  0  0  0  0 
  4  5  2  0  0  0  0 
  5  6  1  0  0  0  0 
  6  7  1  0  0  0  0 
  6  8  2  0  0  0  0 
  8  9  1  0  0  0  0 
  9 10  2  0  0  0  0 
  4 10  1  0  0  0  0 
 10 11  1  0  0  0  0 
 11 12  1  0  0  0  0 
  9 13  1  0  0  0  0 
 13 14  1  0  0  0  0 
  8 15  1  0  0  0  0 
 15 16  1  0  0  0  0 
  5 17  1  0  0  0  0 
  1 18  1  0  0  0  0 
 18 19  1  1  0  0  0 
 18 20  1  0  0  0  0 
 20 21  2  0  0  0  0 
 20 22  1  0  0  0  0 
 22 23  1  0  0  0  0 
 18 24  1  6  0  0  0 
 24 25  1  0  0  0  0 
 24 26  1  0  0  0  0 
M  ISO  1  17  18
M  END
> <Rank>
12

> <Priority_score>
0.312

> <Reaction_type>
aromatic_hydroxylation_(ortho_to_2_substituents)

> <Parent_ID>
73

> <Parent_InChI>
InChI=1S/C9H10FNO4/c10-5-3-8(13)7(12)2-4(5)1-6(11)9(14)15/h2-3,6,12-13H,1,11H2,(H,14,15)/i10-1

> <Parent_SMILES>
N[C@@H](Cc1cc(O)c(O)cc1[18F])C(=O)O

$$$$
Molecule 73_metabolite 16
  CDK     0516241031

 24 24  0  0  0  0  0  0  0  0999 V2000
   -0.4896    0.4555    0.0000 C   0  0  0  0  0  0  0  0  0  0  0  0
   -1.9896    0.4557    0.0000 H   0  0  0  0  0  0  0  0  0  0  0  0
    0.2613    1.7550    0.0000 C   0  0  0  0  0  0  0  0  0  0  0  0
   -0.7287    3.4697    0.0000 C   0  0  0  0  0  0  0  0  0  0  0  0
    0.6808    3.9827    0.0000 H   0  0  0  0  0  0  0  0  0  0  0  0
   -0.9892    4.9469    0.0000 H   0  0  0  0  0  0  0  0  0  0  0  0
   -2.2287    3.4697    0.0000 C   0  0  1  0  0  0  0  0  0  0  0  0
   -3.6383    2.9567    0.0000 H   0  0  0  0  0  0  0  0  0  0  0  0
   -2.9787    4.7688    0.0000 C   0  0  0  0  0  0  0  0  0  0  0  0
   -2.2287    6.0678    0.0000 O   0  0  0  0  0  0  0  0  0  0  0  0
   -4.4787    4.7688    0.0000 O   0  0  0  0  0  0  0  0  0  0  0  0
   -5.2287    6.0678    0.0000 H   0  0  0  0  0  0  0  0  0  0  0  0
   -1.9683    1.9925    0.0000 N   0  0  0  0  0  0  0  0  0  0  0  0
   -3.1173    1.0283    0.0000 H   0  0  0  0  0  0  0  0  0  0  0  0
   -0.5587    1.4795    0.0000 H   0  0  0  0  0  0  0  0  0  0  0  0
    1.7621    1.7555    0.0000 C   0  0  0  0  0  0  0  0  0  0  0  0
    2.5121    0.4564    0.0000 C   0  0  0  0  0  0  0  0  0  0  0  0
    4.0121    0.4562    0.0000 H   0  0  0  0  0  0  0  0  0  0  0  0
    1.7613   -0.8431    0.0000 C   0  0  0  0  0  0  0  0  0  0  0  0
    0.2604   -0.8436    0.0000 C   0  0  0  0  0  0  0  0  0  0  0  0
   -0.4894   -2.1427    0.0000 H   0  0  0  0  0  0  0  0  0  0  0  0
    2.5113   -2.1421    0.0000 O   0  0  0  0  0  0  0  0  0  0  0  0
    4.0113   -2.1421    0.0000 H   0  0  0  0  0  0  0  0  0  0  0  0
    2.5119    3.0546    0.0000 F   0  0  0  0  0  0  0  0  0  0  0  0
  1  2  1  0  0  0  0 
  1  3  2  0  0  0  0 
  3  4  1  0  0  0  0 
  4  5  1  0  0  0  0 
  4  6  1  0  0  0  0 
  4  7  1  0  0  0  0 
  7  8  1  1  0  0  0 
  7  9  1  0  0  0  0 
  9 10  2  0  0  0  0 
  9 11  1  0  0  0  0 
 11 12  1  0  0  0  0 
  7 13  1  6  0  0  0 
 13 14  1  0  0  0  0 
 13 15  1  0  0  0  0 
  3 16  1  0  0  0  0 
 16 17  2  0  0  0  0 
 17 18  1  0  0  0  0 
 17 19  1  0  0  0  0 
 19 20  2  0  0  0  0 
  1 20  1  0  0  0  0 
 20 21  1  0  0  0  0 
 19 22  1  0  0  0  0 
 22 23  1  0  0  0  0 
 16 24  1  0  0  0  0 
M  ISO  1  24  18
M  END
> <Rank>
12

> <Priority_score>
0.312

> <Reaction_type>
aromatic_dehydroxylation

> <Parent_ID>
73

> <Parent_InChI>
InChI=1S/C9H10FNO4/c10-5-3-8(13)7(12)2-4(5)1-6(11)9(14)15/h2-3,6,12-13H,1,11H2,(H,14,15)/i10-1

> <Parent_SMILES>
N[C@@H](Cc1cc(O)c(O)cc1[18F])C(=O)O

$$$$
Molecule 73_metabolite 17
  CDK     0516241031

 26 26  0  0  0  0  0  0  0  0999 V2000
   -2.5970   -1.0587    0.0000 C   0  0  0  0  0  0  0  0  0  0  0  0
   -1.2981   -1.8089    0.0000 H   0  0  0  0  0  0  0  0  0  0  0  0
   -3.8970   -1.8087    0.0000 C   0  0  0  0  0  0  0  0  0  0  0  0
   -5.1970   -1.0587    0.0000 C   0  0  0  0  0  0  0  0  0  0  0  0
   -5.1970    0.4413    0.0000 C   0  0  0  0  0  0  0  0  0  0  0  0
   -6.4959    1.1915    0.0000 H   0  0  0  0  0  0  0  0  0  0  0  0
   -3.8970    1.1913    0.0000 C   0  0  0  0  0  0  0  0  0  0  0  0
   -2.5970    0.4413    0.0000 C   0  0  0  0  0  0  0  0  0  0  0  0
   -1.2981    1.1915    0.0000 C   0  0  0  0  0  0  0  0  0  0  0  0
   -0.3341    2.3407    0.0000 H   0  0  0  0  0  0  0  0  0  0  0  0
    0.0011    0.4417    0.0000 C   0  0  1  0  0  0  0  0  0  0  0  0
   -0.9629   -0.7075    0.0000 H   0  0  0  0  0  0  0  0  0  0  0  0
    1.3000    1.1919    0.0000 C   0  0  0  0  0  0  0  0  0  0  0  0
    1.2998    2.6919    0.0000 O   0  0  0  0  0  0  0  0  0  0  0  0
    2.5992    0.4421    0.0000 O   0  0  0  0  0  0  0  0  0  0  0  0
    3.8981    1.1923    0.0000 H   0  0  0  0  0  0  0  0  0  0  0  0
    0.9654   -0.7072    0.0000 N   0  0  0  0  0  0  0  0  0  0  0  0
    2.4426   -0.4465    0.0000 H   0  0  0  0  0  0  0  0  0  0  0  0
    0.4526   -2.1169    0.0000 H   0  0  0  0  0  0  0  0  0  0  0  0
   -2.2624    2.3404    0.0000 O   0  0  0  0  0  0  0  0  0  0  0  0
   -1.7496    3.7500    0.0000 H   0  0  0  0  0  0  0  0  0  0  0  0
   -3.8970    2.6913    0.0000 F   0  0  0  0  0  0  0  0  0  0  0  0
   -6.4959   -1.8089    0.0000 O   0  0  0  0  0  0  0  0  0  0  0  0
   -7.7951   -1.0592    0.0000 H   0  0  0  0  0  0  0  0  0  0  0  0
   -3.8970   -3.3087    0.0000 O   0  0  0  0  0  0  0  0  0  0  0  0
   -5.1960   -4.0587    0.0000 H   0  0  0  0  0  0  0  0  0  0  0  0
  1  2  1  0  0  0  0 
  1  3  2  0  0  0  0 
  3  4  1  0  0  0  0 
  4  5  2  0  0  0  0 
  5  6  1  0  0  0  0 
  5  7  1  0  0  0  0 
  7  8  2  0  0  0  0 
  1  8  1  0  0  0  0 
  8  9  1  0  0  0  0 
  9 10  1  0  0  0  0 
  9 11  1  0  0  0  0 
 11 12  1  6  0  0  0 
 11 13  1  0  0  0  0 
 13 14  2  0  0  0  0 
 13 15  1  0  0  0  0 
 15 16  1  0  0  0  0 
 11 17  1  1  0  0  0 
 17 18  1  0  0  0  0 
 17 19  1  0  0  0  0 
  9 20  1  0  0  0  0 
 20 21  1  0  0  0  0 
  7 22  1  0  0  0  0 
  4 23  1  0  0  0  0 
 23 24  1  0  0  0  0 
  3 25  1  0  0  0  0 
 25 26  1  0  0  0  0 
M  ISO  1  22  18
M  END
> <Rank>
17

> <Priority_score>
0.08765879344064992

> <Reaction_type>
benzylic_hydroxylation_(c-CH2-CR)

> <Parent_ID>
73

> <Parent_InChI>
InChI=1S/C9H10FNO4/c10-5-3-8(13)7(12)2-4(5)1-6(11)9(14)15/h2-3,6,12-13H,1,11H2,(H,14,15)/i10-1

> <Parent_SMILES>
N[C@@H](Cc1cc(O)c(O)cc1[18F])C(=O)O

$$$$
Molecule 73_metabolite 18
  CDK     0516241031

 26 26  0  0  0  0  0  0  0  0999 V2000
   -3.0146    1.7403    0.0000 C   0  0  0  0  0  0  0  0  0  0  0  0
   -2.0502    2.8892    0.0000 H   0  0  0  0  0  0  0  0  0  0  0  0
   -3.9786    2.8895    0.0000 H   0  0  0  0  0  0  0  0  0  0  0  0
   -1.3000    0.7500    0.0000 C   0  0  0  0  0  0  0  0  0  0  0  0
    0.0000    1.5000    0.0000 C   0  0  0  0  0  0  0  0  0  0  0  0
    1.3000    0.7500    0.0000 C   0  0  0  0  0  0  0  0  0  0  0  0
    2.5989    1.5002    0.0000 H   0  0  0  0  0  0  0  0  0  0  0  0
    1.3000   -0.7500    0.0000 C   0  0  0  0  0  0  0  0  0  0  0  0
    0.0000   -1.5000    0.0000 C   0  0  0  0  0  0  0  0  0  0  0  0
   -1.3000   -0.7500    0.0000 C   0  0  0  0  0  0  0  0  0  0  0  0
   -2.5989   -1.5002    0.0000 H   0  0  0  0  0  0  0  0  0  0  0  0
   -0.0000   -3.0000    0.0000 O   0  0  0  0  0  0  0  0  0  0  0  0
    1.2990   -3.7500    0.0000 H   0  0  0  0  0  0  0  0  0  0  0  0
    2.5989   -1.5002    0.0000 O   0  0  0  0  0  0  0  0  0  0  0  0
    3.8981   -0.7504    0.0000 H   0  0  0  0  0  0  0  0  0  0  0  0
    0.0000    3.0000    0.0000 F   0  0  0  0  0  0  0  0  0  0  0  0
   -4.3137    0.9905    0.0000 C   0  0  1  0  0  0  0  0  0  0  0  0
   -5.2781   -0.1584    0.0000 H   0  0  0  0  0  0  0  0  0  0  0  0
   -5.6126    1.7407    0.0000 C   0  0  0  0  0  0  0  0  0  0  0  0
   -5.6124    3.2407    0.0000 O   0  0  0  0  0  0  0  0  0  0  0  0
   -6.9118    0.9909    0.0000 O   0  0  0  0  0  0  0  0  0  0  0  0
   -8.2107    1.7411    0.0000 H   0  0  0  0  0  0  0  0  0  0  0  0
   -3.3497   -0.1587    0.0000 N   0  0  0  0  0  0  0  0  0  0  0  0
   -1.8725    0.1015    0.0000 H   0  0  0  0  0  0  0  0  0  0  0  0
   -3.8630   -1.5682    0.0000 O   0  0  0  0  0  0  0  0  0  0  0  0
   -5.3402   -1.8284    0.0000 H   0  0  0  0  0  0  0  0  0  0  0  0
  1  2  1  0  0  0  0 
  1  3  1  0  0  0  0 
  1  4  1  0  0  0  0 
  4  5  2  0  0  0  0 
  5  6  1  0  0  0  0 
  6  7  1  0  0  0  0 
  6  8  2  0  0  0  0 
  8  9  1  0  0  0  0 
  9 10  2  0  0  0  0 
  4 10  1  0  0  0  0 
 10 11  1  0  0  0  0 
  9 12  1  0  0  0  0 
 12 13  1  0  0  0  0 
  8 14  1  0  0  0  0 
 14 15  1  0  0  0  0 
  5 16  1  0  0  0  0 
  1 17  1  0  0  0  0 
 17 18  1  1  0  0  0 
 17 19  1  0  0  0  0 
 19 20  2  0  0  0  0 
 19 21  1  0  0  0  0 
 21 22  1  0  0  0  0 
 17 23  1  6  0  0  0 
 23 24  1  0  0  0  0 
 23 25  1  0  0  0  0 
 25 26  1  0  0  0  0 
M  ISO  1  16  18
M  END
> <Rank>
17

> <Priority_score>
0.08765879344064992

> <Reaction_type>
amine hydroxylation

> <Parent_ID>
73

> <Parent_InChI>
InChI=1S/C9H10FNO4/c10-5-3-8(13)7(12)2-4(5)1-6(11)9(14)15/h2-3,6,12-13H,1,11H2,(H,14,15)/i10-1

> <Parent_SMILES>
N[C@@H](Cc1cc(O)c(O)cc1[18F])C(=O)O

$$$$
Molecule 73_metabolite 19
  CDK     0516241031

 26 26  0  0  0  0  0  0  0  0999 V2000
    4.8839    1.4747    0.0000 C   0  0  0  0  0  0  0  0  0  0  0  0
    6.1828    0.7245    0.0000 H   0  0  0  0  0  0  0  0  0  0  0  0
    3.5839    0.7247    0.0000 C   0  0  0  0  0  0  0  0  0  0  0  0
    2.2839    1.4747    0.0000 C   0  0  0  0  0  0  0  0  0  0  0  0
   -0.6115    1.9849    0.0000 C   0  0  0  0  0  0  0  0  0  0  0  0
   -0.0986    3.3945    0.0000 H   0  0  0  0  0  0  0  0  0  0  0  0
   -1.9106    2.7347    0.0000 H   0  0  0  0  0  0  0  0  0  0  0  0
   -1.5756    0.8357    0.0000 C   0  0  1  0  0  0  0  0  0  0  0  0
   -2.8745    0.0856    0.0000 H   0  0  0  0  0  0  0  0  0  0  0  0
   -1.0624   -0.5738    0.0000 C   0  0  0  0  0  0  0  0  0  0  0  0
    0.4148   -0.8341    0.0000 O   0  0  0  0  0  0  0  0  0  0  0  0
   -2.0265   -1.7229    0.0000 O   0  0  0  0  0  0  0  0  0  0  0  0
   -1.5133   -3.1324    0.0000 H   0  0  0  0  0  0  0  0  0  0  0  0
   -2.8485    2.3523    0.0000 N   0  0  0  0  0  0  0  0  0  0  0  0
   -4.3256    2.0917    0.0000 H   0  0  0  0  0  0  0  0  0  0  0  0
   -2.3356    3.7619    0.0000 H   0  0  0  0  0  0  0  0  0  0  0  0
    2.2839    2.9747    0.0000 C   0  0  0  0  0  0  0  0  0  0  0  0
    0.9850    3.7249    0.0000 H   0  0  0  0  0  0  0  0  0  0  0  0
    3.5839    3.7247    0.0000 C   0  0  0  0  0  0  0  0  0  0  0  0
    4.8839    2.9747    0.0000 C   0  0  0  0  0  0  0  0  0  0  0  0
    6.1828    3.7249    0.0000 O   0  0  0  0  0  0  0  0  0  0  0  0
    3.5839    5.2247    0.0000 O   0  0  0  0  0  0  0  0  0  0  0  0
    4.8829    5.9747    0.0000 H   0  0  0  0  0  0  0  0  0  0  0  0
    1.7711    0.0650    0.0000 O   0  0  0  0  0  0  0  0  0  0  0  0
    2.7356   -1.0838    0.0000 H   0  0  0  0  0  0  0  0  0  0  0  0
    3.5839   -0.7753    0.0000 F   0  0  0  0  0  0  0  0  0  0  0  0
  1  2  1  0  0  0  0 
  1  3  2  0  0  0  0 
  3  4  1  0  0  0  0 
  4  5  1  0  0  0  0 
  5  6  1  0  0  0  0 
  5  7  1  0  0  0  0 
  5  8  1  0  0  0  0 
  8  9  1  6  0  0  0 
  8 10  1  0  0  0  0 
 10 11  2  0  0  0  0 
 10 12  1  0  0  0  0 
 12 13  1  0  0  0  0 
  8 14  1  1  0  0  0 
 14 15  1  0  0  0  0 
 14 16  1  0  0  0  0 
  4 17  1  0  0  0  0 
 17 18  1  0  0  0  0 
 17 19  2  0  0  0  0 
 19 20  1  0  0  0  0 
  1 20  1  0  0  0  0 
 20 21  2  0  0  0  0 
 19 22  1  0  0  0  0 
 22 23  1  0  0  0  0 
  4 24  1  0  0  0  0 
 24 25  1  0  0  0  0 
  3 26  1  0  0  0  0 
M  ISO  1  26  18
M  END
> <Rank>
19

> <Priority_score>
0.0816

> <Reaction_type>
oxidation of 4-substituted phenol to quinone (substituent not a leaving group)

> <Parent_ID>
73

> <Parent_InChI>
InChI=1S/C9H10FNO4/c10-5-3-8(13)7(12)2-4(5)1-6(11)9(14)15/h2-3,6,12-13H,1,11H2,(H,14,15)/i10-1

> <Parent_SMILES>
N[C@@H](Cc1cc(O)c(O)cc1[18F])C(=O)O

$$$$
Molecule 73_metabolite 20
  CDK     0516241031

 24 24  0  0  0  0  0  0  0  0999 V2000
    1.2981   -1.4996    0.0000 C   0  0  0  0  0  0  0  0  0  0  0  0
    0.3341   -2.6488    0.0000 H   0  0  0  0  0  0  0  0  0  0  0  0
    2.2624   -2.6485    0.0000 H   0  0  0  0  0  0  0  0  0  0  0  0
    2.5970   -0.7494    0.0000 C   0  0  0  0  0  0  0  0  0  0  0  0
    2.5970    0.7506    0.0000 C   0  0  0  0  0  0  0  0  0  0  0  0
    1.2981    1.5008    0.0000 H   0  0  0  0  0  0  0  0  0  0  0  0
    3.8970    1.5006    0.0000 C   0  0  0  0  0  0  0  0  0  0  0  0
    3.8970    3.0006    0.0000 O   0  0  0  0  0  0  0  0  0  0  0  0
    5.1970    0.7506    0.0000 C   0  0  0  0  0  0  0  0  0  0  0  0
    5.1970   -0.7494    0.0000 C   0  0  0  0  0  0  0  0  0  0  0  0
    6.4959   -1.4996    0.0000 H   0  0  0  0  0  0  0  0  0  0  0  0
    3.8970   -1.4994    0.0000 C   0  0  0  0  0  0  0  0  0  0  0  0
    3.8970   -2.9994    0.0000 O   0  0  0  0  0  0  0  0  0  0  0  0
    6.4959    1.5008    0.0000 O   0  0  0  0  0  0  0  0  0  0  0  0
    7.7951    0.7510    0.0000 H   0  0  0  0  0  0  0  0  0  0  0  0
   -0.0011   -0.7498    0.0000 C   0  0  1  0  0  0  0  0  0  0  0  0
    0.9629    0.3994    0.0000 H   0  0  0  0  0  0  0  0  0  0  0  0
   -1.3000   -1.5000    0.0000 C   0  0  0  0  0  0  0  0  0  0  0  0
   -1.2998   -3.0000    0.0000 O   0  0  0  0  0  0  0  0  0  0  0  0
   -2.5992   -0.7502    0.0000 O   0  0  0  0  0  0  0  0  0  0  0  0
   -3.8981   -1.5004    0.0000 H   0  0  0  0  0  0  0  0  0  0  0  0
   -0.9654    0.3991    0.0000 N   0  0  0  0  0  0  0  0  0  0  0  0
   -2.4426    0.1384    0.0000 H   0  0  0  0  0  0  0  0  0  0  0  0
   -0.4526    1.8087    0.0000 H   0  0  0  0  0  0  0  0  0  0  0  0
  1  2  1  0  0  0  0 
  1  3  1  0  0  0  0 
  1  4  1  0  0  0  0 
  4  5  2  0  0  0  0 
  5  6  1  0  0  0  0 
  5  7  1  0  0  0  0 
  7  8  2  0  0  0  0 
  7  9  1  0  0  0  0 
  9 10  2  0  0  0  0 
 10 11  1  0  0  0  0 
 10 12  1  0  0  0  0 
  4 12  1  0  0  0  0 
 12 13  2  0  0  0  0 
  9 14  1  0  0  0  0 
 14 15  1  0  0  0  0 
  1 16  1  0  0  0  0 
 16 17  1  6  0  0  0 
 16 18  1  0  0  0  0 
 18 19  2  0  0  0  0 
 18 20  1  0  0  0  0 
 20 21  1  0  0  0  0 
 16 22  1  1  0  0  0 
 22 23  1  0  0  0  0 
 22 24  1  0  0  0  0 
M  END
> <Rank>
20

> <Priority_score>
0.062400000000000004

> <Reaction_type>
oxidation of 4-substituted phenol to quinone

> <Parent_ID>
73

> <Parent_InChI>
InChI=1S/C9H10FNO4/c10-5-3-8(13)7(12)2-4(5)1-6(11)9(14)15/h2-3,6,12-13H,1,11H2,(H,14,15)/i10-1

> <Parent_SMILES>
N[C@@H](Cc1cc(O)c(O)cc1[18F])C(=O)O

$$$$
Molecule 73_metabolite 21
  CDK     0516241031

  5  4  0  0  0  0  0  0  0  0999 V2000
    1.2990   -0.7500    0.0000 C   0  0  0  0  0  0  0  0  0  0  0  0
    0.0000    0.0000    0.0000 H   0  0  0  0  0  0  0  0  0  0  0  0
    1.2990   -2.2500    0.0000 O   0  0  0  0  0  0  0  0  0  0  0  0
    2.5981   -0.0000    0.0000 O   0  0  0  0  0  0  0  0  0  0  0  0
    3.8971   -0.7500    0.0000 H   0  0  0  0  0  0  0  0  0  0  0  0
  1  2  1  0  0  0  0 
  1  3  2  0  0  0  0 
  1  4  1  0  0  0  0 
  4  5  1  0  0  0  0 
M  END
> <Rank>
20

> <Priority_score>
0.062400000000000004

> <Reaction_type>
deformylation

> <Parent_ID>
73

> <Parent_InChI>
InChI=1S/C9H10FNO4/c10-5-3-8(13)7(12)2-4(5)1-6(11)9(14)15/h2-3,6,12-13H,1,11H2,(H,14,15)/i10-1

> <Parent_SMILES>
N[C@@H](Cc1cc(O)c(O)cc1[18F])C(=O)O

$$$$
Molecule 73_metabolite 22
  CDK     0516241031

 20 20  0  0  0  0  0  0  0  0999 V2000
   -2.5989    1.5002    0.0000 C   0  0  0  0  0  0  0  0  0  0  0  0
   -2.5987    3.0002    0.0000 H   0  0  0  0  0  0  0  0  0  0  0  0
   -3.8981    0.7504    0.0000 C   0  0  0  0  0  0  0  0  0  0  0  0
   -3.8983   -0.7496    0.0000 H   0  0  0  0  0  0  0  0  0  0  0  0
   -5.1970    1.5006    0.0000 N   0  0  0  0  0  0  0  0  0  0  0  0
   -6.4962    0.7508    0.0000 H   0  0  0  0  0  0  0  0  0  0  0  0
   -5.1968    3.0006    0.0000 H   0  0  0  0  0  0  0  0  0  0  0  0
   -1.3000    0.7500    0.0000 C   0  0  0  0  0  0  0  0  0  0  0  0
    0.0000    1.5000    0.0000 C   0  0  0  0  0  0  0  0  0  0  0  0
    1.3000    0.7500    0.0000 C   0  0  0  0  0  0  0  0  0  0  0  0
    2.5989    1.5002    0.0000 H   0  0  0  0  0  0  0  0  0  0  0  0
    1.3000   -0.7500    0.0000 C   0  0  0  0  0  0  0  0  0  0  0  0
    0.0000   -1.5000    0.0000 C   0  0  0  0  0  0  0  0  0  0  0  0
   -1.3000   -0.7500    0.0000 C   0  0  0  0  0  0  0  0  0  0  0  0
   -2.5989   -1.5002    0.0000 H   0  0  0  0  0  0  0  0  0  0  0  0
   -0.0000   -3.0000    0.0000 O   0  0  0  0  0  0  0  0  0  0  0  0
    1.2990   -3.7500    0.0000 H   0  0  0  0  0  0  0  0  0  0  0  0
    2.5989   -1.5002    0.0000 O   0  0  0  0  0  0  0  0  0  0  0  0
    3.8981   -0.7504    0.0000 H   0  0  0  0  0  0  0  0  0  0  0  0
    0.0000    3.0000    0.0000 F   0  0  0  0  0  0  0  0  0  0  0  0
  1  2  1  4  0  0  0 
  1  3  2  0  0  0  0 
  3  4  1  0  0  0  0 
  3  5  1  0  0  0  0 
  5  6  1  0  0  0  0 
  5  7  1  0  0  0  0 
  1  8  1  0  0  0  0 
  8  9  2  0  0  0  0 
  9 10  1  0  0  0  0 
 10 11  1  0  0  0  0 
 10 12  2  0  0  0  0 
 12 13  1  0  0  0  0 
 13 14  2  0  0  0  0 
  8 14  1  0  0  0  0 
 14 15  1  0  0  0  0 
 13 16  1  0  0  0  0 
 16 17  1  0  0  0  0 
 12 18  1  0  0  0  0 
 18 19  1  0  0  0  0 
  9 20  1  0  0  0  0 
M  ISO  1  20  18
M  END
> <Rank>
20

> <Priority_score>
0.062400000000000004

> <Reaction_type>
deformylation

> <Parent_ID>
73

> <Parent_InChI>
InChI=1S/C9H10FNO4/c10-5-3-8(13)7(12)2-4(5)1-6(11)9(14)15/h2-3,6,12-13H,1,11H2,(H,14,15)/i10-1

> <Parent_SMILES>
N[C@@H](Cc1cc(O)c(O)cc1[18F])C(=O)O

$$$$
Molecule 73_metabolite 23
  CDK     0516241031

 24 24  0  0  0  0  0  0  0  0999 V2000
   -1.2981   -2.2496    0.0000 C   0  0  0  0  0  0  0  0  0  0  0  0
   -2.2624   -3.3985    0.0000 H   0  0  0  0  0  0  0  0  0  0  0  0
   -0.3341   -3.3988    0.0000 H   0  0  0  0  0  0  0  0  0  0  0  0
   -3.4283   -1.0192    0.0000 C   0  0  0  0  0  0  0  0  0  0  0  0
   -4.7283   -1.7692    0.0000 C   0  0  0  0  0  0  0  0  0  0  0  0
   -6.0283   -1.0192    0.0000 C   0  0  0  0  0  0  0  0  0  0  0  0
   -7.3272   -1.7695    0.0000 H   0  0  0  0  0  0  0  0  0  0  0  0
   -6.0283    0.4808    0.0000 C   0  0  0  0  0  0  0  0  0  0  0  0
   -4.7283    1.2308    0.0000 C   0  0  0  0  0  0  0  0  0  0  0  0
   -3.4283    0.4808    0.0000 C   0  0  0  0  0  0  0  0  0  0  0  0
   -2.1294    1.2310    0.0000 H   0  0  0  0  0  0  0  0  0  0  0  0
   -4.7283    2.7308    0.0000 O   0  0  0  0  0  0  0  0  0  0  0  0
   -6.0273    3.4808    0.0000 H   0  0  0  0  0  0  0  0  0  0  0  0
   -7.3272    1.2310    0.0000 O   0  0  0  0  0  0  0  0  0  0  0  0
   -8.6264    0.4812    0.0000 H   0  0  0  0  0  0  0  0  0  0  0  0
   -4.7283   -3.2692    0.0000 F   0  0  0  0  0  0  0  0  0  0  0  0
    0.0011   -1.4998    0.0000 C   0  0  0  0  0  0  0  0  0  0  0  0
    0.0013    0.0002    0.0000 N   0  0  0  0  0  0  0  0  0  0  0  0
    1.3005    0.7500    0.0000 H   0  0  0  0  0  0  0  0  0  0  0  0
   -1.2976    0.7504    0.0000 H   0  0  0  0  0  0  0  0  0  0  0  0
    1.3000   -2.2500    0.0000 C   0  0  0  0  0  0  0  0  0  0  0  0
    1.2998   -3.7500    0.0000 O   0  0  0  0  0  0  0  0  0  0  0  0
    2.5992   -1.5002    0.0000 O   0  0  0  0  0  0  0  0  0  0  0  0
    3.8981   -2.2504    0.0000 H   0  0  0  0  0  0  0  0  0  0  0  0
  1  2  1  0  0  0  0 
  1  3  1  0  0  0  0 
  1  4  1  0  0  0  0 
  4  5  2  0  0  0  0 
  5  6  1  0  0  0  0 
  6  7  1  0  0  0  0 
  6  8  2  0  0  0  0 
  8  9  1  0  0  0  0 
  9 10  2  0  0  0  0 
  4 10  1  0  0  0  0 
 10 11  1  0  0  0  0 
  9 12  1  0  0  0  0 
 12 13  1  0  0  0  0 
  8 14  1  0  0  0  0 
 14 15  1  0  0  0  0 
  5 16  1  0  0  0  0 
  1 17  1  0  0  0  0 
 17 18  2  0  0  0  0 
 18 19  1  0  0  0  0 
 18 20  1  0  0  0  0 
 17 21  1  0  0  0  0 
 21 22  2  0  0  0  0 
 21 23  1  0  0  0  0 
 23 24  1  0  0  0  0 
M  CHG  1  18   1
M  ISO  1  16  18
M  END
> <Rank>
23

> <Priority_score>
0.017531758688129985

> <Reaction_type>
dehydration of N-C bond

> <Parent_ID>
73

> <Parent_InChI>
InChI=1S/C9H10FNO4/c10-5-3-8(13)7(12)2-4(5)1-6(11)9(14)15/h2-3,6,12-13H,1,11H2,(H,14,15)/i10-1

> <Parent_SMILES>
N[C@@H](Cc1cc(O)c(O)cc1[18F])C(=O)O

$$$$
Molecule 73_metabolite 24
  CDK     0516241031

 23 23  0  0  0  0  0  0  0  0999 V2000
   -2.5989    1.5002    0.0000 C   0  0  0  0  0  0  0  0  0  0  0  0
   -2.5987    3.0002    0.0000 H   0  0  0  0  0  0  0  0  0  0  0  0
   -4.0085    0.9874    0.0000 C   0  0  0  0  0  0  0  0  0  0  0  0
   -5.1575    1.9518    0.0000 C   0  0  0  0  0  0  0  0  0  0  0  0
   -4.8967    3.4289    0.0000 O   0  0  0  0  0  0  0  0  0  0  0  0
   -6.5671    1.4390    0.0000 O   0  0  0  0  0  0  0  0  0  0  0  0
   -7.7160    2.4033    0.0000 H   0  0  0  0  0  0  0  0  0  0  0  0
   -4.2692   -0.4898    0.0000 N   0  0  0  0  0  0  0  0  0  0  0  0
   -5.6789   -1.0026    0.0000 H   0  0  0  0  0  0  0  0  0  0  0  0
   -3.1203   -1.4541    0.0000 H   0  0  0  0  0  0  0  0  0  0  0  0
   -0.8843    0.5099    0.0000 C   0  0  0  0  0  0  0  0  0  0  0  0
    0.4157    1.2599    0.0000 C   0  0  0  0  0  0  0  0  0  0  0  0
    1.7157    0.5099    0.0000 C   0  0  0  0  0  0  0  0  0  0  0  0
    3.0146    1.2601    0.0000 H   0  0  0  0  0  0  0  0  0  0  0  0
    1.7157   -0.9901    0.0000 C   0  0  0  0  0  0  0  0  0  0  0  0
    0.4157   -1.7401    0.0000 C   0  0  0  0  0  0  0  0  0  0  0  0
   -0.8843   -0.9901    0.0000 C   0  0  0  0  0  0  0  0  0  0  0  0
   -2.1833   -1.7403    0.0000 H   0  0  0  0  0  0  0  0  0  0  0  0
    0.4157   -3.2401    0.0000 O   0  0  0  0  0  0  0  0  0  0  0  0
    1.7147   -3.9901    0.0000 H   0  0  0  0  0  0  0  0  0  0  0  0
    3.0146   -1.7403    0.0000 O   0  0  0  0  0  0  0  0  0  0  0  0
    4.3137   -0.9905    0.0000 H   0  0  0  0  0  0  0  0  0  0  0  0
    0.4157    2.7599    0.0000 F   0  0  0  0  0  0  0  0  0  0  0  0
  1  2  1  4  0  0  0 
  1  3  2  0  0  0  0 
  3  4  1  0  0  0  0 
  4  5  2  0  0  0  0 
  4  6  1  0  0  0  0 
  6  7  1  0  0  0  0 
  3  8  1  0  0  0  0 
  8  9  1  0  0  0  0 
  8 10  1  0  0  0  0 
  1 11  1  0  0  0  0 
 11 12  2  0  0  0  0 
 12 13  1  0  0  0  0 
 13 14  1  0  0  0  0 
 13 15  2  0  0  0  0 
 15 16  1  0  0  0  0 
 16 17  2  0  0  0  0 
 11 17  1  0  0  0  0 
 17 18  1  0  0  0  0 
 16 19  1  0  0  0  0 
 19 20  1  0  0  0  0 
 15 21  1  0  0  0  0 
 21 22  1  0  0  0  0 
 12 23  1  0  0  0  0 
M  ISO  1  23  18
M  END
> <Rank>
23

> <Priority_score>
0.017531758688129985

> <Reaction_type>
alkyl dehydrogenation

> <Parent_ID>
73

> <Parent_InChI>
InChI=1S/C9H10FNO4/c10-5-3-8(13)7(12)2-4(5)1-6(11)9(14)15/h2-3,6,12-13H,1,11H2,(H,14,15)/i10-1

> <Parent_SMILES>
N[C@@H](Cc1cc(O)c(O)cc1[18F])C(=O)O

$$$$
Molecule 73_metabolite 25
  CDK     0516241031

 23 23  0  0  0  0  0  0  0  0999 V2000
   -2.5989    1.5002    0.0000 C   0  0  0  0  0  0  0  0  0  0  0  0
   -1.6346    2.6491    0.0000 H   0  0  0  0  0  0  0  0  0  0  0  0
   -3.5629    2.6494    0.0000 H   0  0  0  0  0  0  0  0  0  0  0  0
   -1.3000    0.7500    0.0000 C   0  0  0  0  0  0  0  0  0  0  0  0
    0.0000    1.5000    0.0000 C   0  0  0  0  0  0  0  0  0  0  0  0
    1.3000    0.7500    0.0000 C   0  0  0  0  0  0  0  0  0  0  0  0
    2.5989    1.5002    0.0000 H   0  0  0  0  0  0  0  0  0  0  0  0
    1.3000   -0.7500    0.0000 C   0  0  0  0  0  0  0  0  0  0  0  0
    0.0000   -1.5000    0.0000 C   0  0  0  0  0  0  0  0  0  0  0  0
   -1.3000   -0.7500    0.0000 C   0  0  0  0  0  0  0  0  0  0  0  0
   -2.5989   -1.5002    0.0000 H   0  0  0  0  0  0  0  0  0  0  0  0
   -0.0000   -3.0000    0.0000 O   0  0  0  0  0  0  0  0  0  0  0  0
    1.2990   -3.7500    0.0000 H   0  0  0  0  0  0  0  0  0  0  0  0
    2.5989   -1.5002    0.0000 O   0  0  0  0  0  0  0  0  0  0  0  0
    3.8981   -0.7504    0.0000 H   0  0  0  0  0  0  0  0  0  0  0  0
    0.0000    3.0000    0.0000 F   0  0  0  0  0  0  0  0  0  0  0  0
   -3.8981    0.7504    0.0000 C   0  0  0  0  0  0  0  0  0  0  0  0
   -3.8983   -0.7496    0.0000 N   0  0  0  0  0  0  0  0  0  0  0  0
   -5.1975   -1.4994    0.0000 H   0  0  0  0  0  0  0  0  0  0  0  0
   -5.1970    1.5006    0.0000 C   0  0  0  0  0  0  0  0  0  0  0  0
   -5.1968    3.0006    0.0000 O   0  0  0  0  0  0  0  0  0  0  0  0
   -6.4962    0.7508    0.0000 O   0  0  0  0  0  0  0  0  0  0  0  0
   -7.7951    1.5010    0.0000 H   0  0  0  0  0  0  0  0  0  0  0  0
  1  2  1  0  0  0  0 
  1  3  1  0  0  0  0 
  1  4  1  0  0  0  0 
  4  5  2  0  0  0  0 
  5  6  1  0  0  0  0 
  6  7  1  0  0  0  0 
  6  8  2  0  0  0  0 
  8  9  1  0  0  0  0 
  9 10  2  0  0  0  0 
  4 10  1  0  0  0  0 
 10 11  1  0  0  0  0 
  9 12  1  0  0  0  0 
 12 13  1  0  0  0  0 
  8 14  1  0  0  0  0 
 14 15  1  0  0  0  0 
  5 16  1  0  0  0  0 
  1 17  1  0  0  0  0 
 17 18  2  0  0  0  0 
 18 19  1  4  0  0  0 
 17 20  1  0  0  0  0 
 20 21  2  0  0  0  0 
 20 22  1  0  0  0  0 
 22 23  1  0  0  0  0 
M  ISO  1  16  18
M  END
> <Rank>
23

> <Priority_score>
0.017531758688129985

> <Reaction_type>
dehydration of N-C bond

> <Parent_ID>
73

> <Parent_InChI>
InChI=1S/C9H10FNO4/c10-5-3-8(13)7(12)2-4(5)1-6(11)9(14)15/h2-3,6,12-13H,1,11H2,(H,14,15)/i10-1

> <Parent_SMILES>
N[C@@H](Cc1cc(O)c(O)cc1[18F])C(=O)O

$$$$
Molecule 73_metabolite 26
  CDK     0516241031

 26 26  0  0  0  0  0  0  0  0999 V2000
    1.2981   -1.5002    0.0000 C   0  0  0  0  0  0  0  0  0  0  0  0
    0.3341   -2.6494    0.0000 H   0  0  0  0  0  0  0  0  0  0  0  0
    2.2624   -2.6491    0.0000 H   0  0  0  0  0  0  0  0  0  0  0  0
    2.5970   -0.7500    0.0000 C   0  0  0  0  0  0  0  0  0  0  0  0
    3.8970   -1.5000    0.0000 C   0  0  0  0  0  0  0  0  0  0  0  0
    5.1970   -0.7500    0.0000 C   0  0  0  0  0  0  0  0  0  0  0  0
    6.4959   -1.5002    0.0000 H   0  0  0  0  0  0  0  0  0  0  0  0
    5.1970    0.7500    0.0000 C   0  0  0  0  0  0  0  0  0  0  0  0
    3.8970    1.5000    0.0000 C   0  0  0  0  0  0  0  0  0  0  0  0
    2.5970    0.7500    0.0000 C   0  0  0  0  0  0  0  0  0  0  0  0
    1.2981    1.5002    0.0000 H   0  0  0  0  0  0  0  0  0  0  0  0
    3.8970    3.0000    0.0000 O   0  0  0  0  0  0  0  0  0  0  0  0
    5.1960    3.7500    0.0000 H   0  0  0  0  0  0  0  0  0  0  0  0
    6.4959    1.5002    0.0000 O   0  0  0  0  0  0  0  0  0  0  0  0
    7.7951    0.7504    0.0000 H   0  0  0  0  0  0  0  0  0  0  0  0
    3.8970   -3.0000    0.0000 O   0  0  0  0  0  0  0  0  0  0  0  0
    5.1960   -3.7500    0.0000 H   0  0  0  0  0  0  0  0  0  0  0  0
   -0.0011   -0.7504    0.0000 C   0  0  1  0  0  0  0  0  0  0  0  0
    0.9629    0.3988    0.0000 H   0  0  0  0  0  0  0  0  0  0  0  0
   -1.3000   -1.5006    0.0000 C   0  0  0  0  0  0  0  0  0  0  0  0
   -1.2998   -3.0006    0.0000 O   0  0  0  0  0  0  0  0  0  0  0  0
   -2.5992   -0.7508    0.0000 O   0  0  0  0  0  0  0  0  0  0  0  0
   -3.8981   -1.5010    0.0000 H   0  0  0  0  0  0  0  0  0  0  0  0
   -0.9654    0.3985    0.0000 N   0  0  0  0  0  0  0  0  0  0  0  0
   -2.4426    0.1378    0.0000 H   0  0  0  0  0  0  0  0  0  0  0  0
   -0.4526    1.8081    0.0000 H   0  0  0  0  0  0  0  0  0  0  0  0
  1  2  1  0  0  0  0 
  1  3  1  0  0  0  0 
  1  4  1  0  0  0  0 
  4  5  2  0  0  0  0 
  5  6  1  0  0  0  0 
  6  7  1  0  0  0  0 
  6  8  2  0  0  0  0 
  8  9  1  0  0  0  0 
  9 10  2  0  0  0  0 
  4 10  1  0  0  0  0 
 10 11  1  0  0  0  0 
  9 12  1  0  0  0  0 
 12 13  1  0  0  0  0 
  8 14  1  0  0  0  0 
 14 15  1  0  0  0  0 
  5 16  1  0  0  0  0 
 16 17  1  0  0  0  0 
  1 18  1  0  0  0  0 
 18 19  1  6  0  0  0 
 18 20  1  0  0  0  0 
 20 21  2  0  0  0  0 
 20 22  1  0  0  0  0 
 22 23  1  0  0  0  0 
 18 24  1  1  0  0  0 
 24 25  1  0  0  0  0 
 24 26  1  0  0  0  0 
M  END
> <Rank>
26

> <Priority_score>
0.01591152720889409

> <Reaction_type>
oxidative dehalogenation benzyl

> <Parent_ID>
73

> <Parent_InChI>
InChI=1S/C9H10FNO4/c10-5-3-8(13)7(12)2-4(5)1-6(11)9(14)15/h2-3,6,12-13H,1,11H2,(H,14,15)/i10-1

> <Parent_SMILES>
N[C@@H](Cc1cc(O)c(O)cc1[18F])C(=O)O

$$$$
Molecule 74
  CDK     0516241031

  8  8  0  0  0  0  0  0  0  0999 V2000
    1.3000    0.7500    0.0000 C   0  0  0  0  0  0  0  0  0  0  0  0
   -0.0000    1.5000    0.0000 C   0  0  0  0  0  0  0  0  0  0  0  0
   -1.3000    0.7500    0.0000 C   0  0  0  0  0  0  0  0  0  0  0  0
   -1.3000   -0.7500    0.0000 C   0  0  0  0  0  0  0  0  0  0  0  0
   -0.0000   -1.5000    0.0000 N   0  0  0  0  0  0  0  0  0  0  0  0
    1.3000   -0.7500    0.0000 C   0  0  0  0  0  0  0  0  0  0  0  0
   -2.5989    1.5002    0.0000 N   0  0  0  0  0  0  0  0  0  0  0  0
    0.0000    3.0000    0.0000 N   0  0  0  0  0  0  0  0  0  0  0  0
  1  2  2  0  0  0  0 
  2  3  1  0  0  0  0 
  3  4  2  0  0  0  0 
  4  5  1  0  0  0  0 
  5  6  2  0  0  0  0 
  1  6  1  0  0  0  0 
  3  7  1  0  0  0  0 
  2  8  1  0  0  0  0 
M  END
> <SMILES>
Nc1ccncc1N

$$$$
Molecule 74_metabolite 1
  CDK     0516241031

 19 19  0  0  0  0  0  0  0  0999 V2000
    1.3000    0.7500    0.0000 C   0  0  0  0  0  0  0  0  0  0  0  0
    2.5989    1.5002    0.0000 H   0  0  0  0  0  0  0  0  0  0  0  0
   -0.0000    1.5000    0.0000 C   0  0  0  0  0  0  0  0  0  0  0  0
   -1.3000    0.7500    0.0000 C   0  0  0  0  0  0  0  0  0  0  0  0
   -1.3000   -0.7500    0.0000 C   0  0  0  0  0  0  0  0  0  0  0  0
   -2.5989   -1.5002    0.0000 H   0  0  0  0  0  0  0  0  0  0  0  0
   -0.0000   -1.5000    0.0000 N   0  0  0  0  0  0  0  0  0  0  0  0
    1.3000   -0.7500    0.0000 C   0  0  0  0  0  0  0  0  0  0  0  0
    2.5989   -1.5002    0.0000 H   0  0  0  0  0  0  0  0  0  0  0  0
   -2.5989    1.5002    0.0000 N   0  0  0  0  0  0  0  0  0  0  0  0
   -2.5987    3.0002    0.0000 H   0  0  0  0  0  0  0  0  0  0  0  0
   -3.8981    0.7504    0.0000 S   0  0  0  0  0  0  0  0  0  0  0  0
   -4.8624   -0.3985    0.0000 O   0  0  0  0  0  0  0  0  0  0  0  0
   -2.9341   -0.3988    0.0000 O   0  0  0  0  0  0  0  0  0  0  0  0
   -5.1970    1.5006    0.0000 O   0  0  0  0  0  0  0  0  0  0  0  0
   -6.4962    0.7508    0.0000 H   0  0  0  0  0  0  0  0  0  0  0  0
    0.0000    3.0000    0.0000 N   0  0  0  0  0  0  0  0  0  0  0  0
    1.2990    3.7500    0.0000 H   0  0  0  0  0  0  0  0  0  0  0  0
   -1.2990    3.7500    0.0000 H   0  0  0  0  0  0  0  0  0  0  0  0
  1  2  1  0  0  0  0 
  1  3  2  0  0  0  0 
  3  4  1  0  0  0  0 
  4  5  2  0  0  0  0 
  5  6  1  0  0  0  0 
  5  7  1  0  0  0  0 
  7  8  2  0  0  0  0 
  1  8  1  0  0  0  0 
  8  9  1  0  0  0  0 
  4 10  1  0  0  0  0 
 10 11  1  0  0  0  0 
 10 12  1  0  0  0  0 
 12 13  2  0  0  0  0 
 12 14  2  0  0  0  0 
 12 15  1  0  0  0  0 
 15 16  1  0  0  0  0 
  3 17  1  0  0  0  0 
 17 18  1  0  0  0  0 
 17 19  1  0  0  0  0 
M  END
> <Rank>
1

> <Priority_score>
0.704

> <Reaction_type>
sulfation_(aniline)

> <Parent_ID>
74

> <Parent_InChI>
InChI=1S/C5H7N3/c6-4-1-2-8-3-5(4)7/h1-3H,7H2,(H2,6,8)

> <Parent_SMILES>
Nc1ccncc1N

$$$$
Molecule 74_metabolite 2
  CDK     0516241031

 20 20  0  0  0  0  0  0  0  0999 V2000
   -5.1970    1.5006    0.0000 C   0  0  0  0  0  0  0  0  0  0  0  0
   -6.4962    0.7508    0.0000 H   0  0  0  0  0  0  0  0  0  0  0  0
   -4.2326    2.6495    0.0000 H   0  0  0  0  0  0  0  0  0  0  0  0
   -6.1610    2.6498    0.0000 H   0  0  0  0  0  0  0  0  0  0  0  0
   -3.8981    0.7504    0.0000 C   0  0  0  0  0  0  0  0  0  0  0  0
   -3.8983   -0.7496    0.0000 O   0  0  0  0  0  0  0  0  0  0  0  0
   -2.5989    1.5002    0.0000 N   0  0  0  0  0  0  0  0  0  0  0  0
   -2.5987    3.0002    0.0000 H   0  0  0  0  0  0  0  0  0  0  0  0
   -1.3000    0.7500    0.0000 C   0  0  0  0  0  0  0  0  0  0  0  0
   -1.3000   -0.7500    0.0000 C   0  0  0  0  0  0  0  0  0  0  0  0
   -2.5989   -1.5002    0.0000 H   0  0  0  0  0  0  0  0  0  0  0  0
   -0.0000   -1.5000    0.0000 N   0  0  0  0  0  0  0  0  0  0  0  0
    1.3000   -0.7500    0.0000 C   0  0  0  0  0  0  0  0  0  0  0  0
    2.5989   -1.5002    0.0000 H   0  0  0  0  0  0  0  0  0  0  0  0
    1.3000    0.7500    0.0000 C   0  0  0  0  0  0  0  0  0  0  0  0
    2.5989    1.5002    0.0000 H   0  0  0  0  0  0  0  0  0  0  0  0
   -0.0000    1.5000    0.0000 C   0  0  0  0  0  0  0  0  0  0  0  0
    0.0000    3.0000    0.0000 N   0  0  0  0  0  0  0  0  0  0  0  0
    1.2990    3.7500    0.0000 H   0  0  0  0  0  0  0  0  0  0  0  0
   -1.2990    3.7500    0.0000 H   0  0  0  0  0  0  0  0  0  0  0  0
  1  2  1  0  0  0  0 
  1  3  1  0  0  0  0 
  1  4  1  0  0  0  0 
  1  5  1  0  0  0  0 
  5  6  2  0  0  0  0 
  5  7  1  0  0  0  0 
  7  8  1  0  0  0  0 
  7  9  1  0  0  0  0 
  9 10  2  0  0  0  0 
 10 11  1  0  0  0  0 
 10 12  1  0  0  0  0 
 12 13  2  0  0  0  0 
 13 14  1  0  0  0  0 
 13 15  1  0  0  0  0 
 15 16  1  0  0  0  0 
 15 17  2  0  0  0  0 
  9 17  1  0  0  0  0 
 17 18  1  0  0  0  0 
 18 19  1  0  0  0  0 
 18 20  1  0  0  0  0 
M  END
> <Rank>
2

> <Priority_score>
0.68

> <Reaction_type>
N-acetylation_(aniline)

> <Parent_ID>
74

> <Parent_InChI>
InChI=1S/C5H7N3/c6-4-1-2-8-3-5(4)7/h1-3H,7H2,(H2,6,8)

> <Parent_SMILES>
Nc1ccncc1N

$$$$
Molecule 74_metabolite 3
  CDK     0516241031

 19 19  0  0  0  0  0  0  0  0999 V2000
   -2.4218    3.7498    0.0000 C   0  0  0  0  0  0  0  0  0  0  0  0
   -3.7207    2.9996    0.0000 H   0  0  0  0  0  0  0  0  0  0  0  0
   -1.1218    2.9998    0.0000 C   0  0  0  0  0  0  0  0  0  0  0  0
    0.1782    3.7498    0.0000 C   0  0  0  0  0  0  0  0  0  0  0  0
    0.1782    5.2498    0.0000 C   0  0  0  0  0  0  0  0  0  0  0  0
    1.4771    6.0000    0.0000 H   0  0  0  0  0  0  0  0  0  0  0  0
   -1.1218    5.9998    0.0000 N   0  0  0  0  0  0  0  0  0  0  0  0
   -2.4218    5.2498    0.0000 C   0  0  0  0  0  0  0  0  0  0  0  0
   -3.7207    6.0000    0.0000 H   0  0  0  0  0  0  0  0  0  0  0  0
    1.4771    2.9996    0.0000 N   0  0  0  0  0  0  0  0  0  0  0  0
    2.7762    3.7494    0.0000 H   0  0  0  0  0  0  0  0  0  0  0  0
    1.4769    1.4996    0.0000 H   0  0  0  0  0  0  0  0  0  0  0  0
   -1.1218    1.4998    0.0000 N   0  0  0  0  0  0  0  0  0  0  0  0
    0.1772    0.7498    0.0000 H   0  0  0  0  0  0  0  0  0  0  0  0
   -2.4209    0.7498    0.0000 S   0  0  0  0  0  0  0  0  0  0  0  0
   -2.9339    2.1593    0.0000 O   0  0  0  0  0  0  0  0  0  0  0  0
   -3.8981    0.4893    0.0000 O   0  0  0  0  0  0  0  0  0  0  0  0
   -2.4209   -0.7502    0.0000 O   0  0  0  0  0  0  0  0  0  0  0  0
   -3.7199   -1.5002    0.0000 H   0  0  0  0  0  0  0  0  0  0  0  0
  1  2  1  0  0  0  0 
  1  3  2  0  0  0  0 
  3  4  1  0  0  0  0 
  4  5  2  0  0  0  0 
  5  6  1  0  0  0  0 
  5  7  1  0  0  0  0 
  7  8  2  0  0  0  0 
  1  8  1  0  0  0  0 
  8  9  1  0  0  0  0 
  4 10  1  0  0  0  0 
 10 11  1  0  0  0  0 
 10 12  1  0  0  0  0 
  3 13  1  0  0  0  0 
 13 14  1  0  0  0  0 
 13 15  1  0  0  0  0 
 15 16  2  0  0  0  0 
 15 17  2  0  0  0  0 
 15 18  1  0  0  0  0 
 18 19  1  0  0  0  0 
M  END
> <Rank>
3

> <Priority_score>
0.648

> <Reaction_type>
sulfation_(aniline)

> <Parent_ID>
74

> <Parent_InChI>
InChI=1S/C5H7N3/c6-4-1-2-8-3-5(4)7/h1-3H,7H2,(H2,6,8)

> <Parent_SMILES>
Nc1ccncc1N

$$$$
Molecule 74_metabolite 4
  CDK     0516241031

 20 20  0  0  0  0  0  0  0  0999 V2000
    2.5982   -0.0907    0.0000 C   0  0  0  0  0  0  0  0  0  0  0  0
    3.8972   -0.8407    0.0000 H   0  0  0  0  0  0  0  0  0  0  0  0
    1.1210    0.1698    0.0000 H   0  0  0  0  0  0  0  0  0  0  0  0
    2.0852   -1.5002    0.0000 H   0  0  0  0  0  0  0  0  0  0  0  0
    2.5982    1.4093    0.0000 C   0  0  0  0  0  0  0  0  0  0  0  0
    3.8972    2.1593    0.0000 O   0  0  0  0  0  0  0  0  0  0  0  0
    1.2992    2.1593    0.0000 N   0  0  0  0  0  0  0  0  0  0  0  0
    0.0001    1.4093    0.0000 H   0  0  0  0  0  0  0  0  0  0  0  0
    1.2992    3.6593    0.0000 C   0  0  0  0  0  0  0  0  0  0  0  0
    2.5992    4.4093    0.0000 C   0  0  0  0  0  0  0  0  0  0  0  0
    3.8981    3.6591    0.0000 H   0  0  0  0  0  0  0  0  0  0  0  0
    2.5992    5.9093    0.0000 C   0  0  0  0  0  0  0  0  0  0  0  0
    3.8981    6.6595    0.0000 H   0  0  0  0  0  0  0  0  0  0  0  0
    1.2992    6.6593    0.0000 N   0  0  0  0  0  0  0  0  0  0  0  0
   -0.0008    5.9093    0.0000 C   0  0  0  0  0  0  0  0  0  0  0  0
   -1.2998    6.6595    0.0000 H   0  0  0  0  0  0  0  0  0  0  0  0
   -0.0008    4.4093    0.0000 C   0  0  0  0  0  0  0  0  0  0  0  0
   -1.2998    3.6591    0.0000 N   0  0  0  0  0  0  0  0  0  0  0  0
   -2.5989    4.4089    0.0000 H   0  0  0  0  0  0  0  0  0  0  0  0
   -1.2995    2.1591    0.0000 H   0  0  0  0  0  0  0  0  0  0  0  0
  1  2  1  0  0  0  0 
  1  3  1  0  0  0  0 
  1  4  1  0  0  0  0 
  1  5  1  0  0  0  0 
  5  6  2  0  0  0  0 
  5  7  1  0  0  0  0 
  7  8  1  0  0  0  0 
  7  9  1  0  0  0  0 
  9 10  2  0  0  0  0 
 10 11  1  0  0  0  0 
 10 12  1  0  0  0  0 
 12 13  1  0  0  0  0 
 12 14  2  0  0  0  0 
 14 15  1  0  0  0  0 
 15 16  1  0  0  0  0 
 15 17  2  0  0  0  0 
  9 17  1  0  0  0  0 
 17 18  1  0  0  0  0 
 18 19  1  0  0  0  0 
 18 20  1  0  0  0  0 
M  END
> <Rank>
4

> <Priority_score>
0.596

> <Reaction_type>
N-acetylation_(aniline)

> <Parent_ID>
74

> <Parent_InChI>
InChI=1S/C5H7N3/c6-4-1-2-8-3-5(4)7/h1-3H,7H2,(H2,6,8)

> <Parent_SMILES>
Nc1ccncc1N

$$$$
Molecule 74_metabolite 5
  CDK     0516241031

 35 36  0  0  0  0  0  0  0  0999 V2000
    0.5320    6.8796    0.0000 C   0  0  0  0  0  0  0  0  0  0  0  0
   -0.7669    6.1294    0.0000 H   0  0  0  0  0  0  0  0  0  0  0  0
    1.8320    6.1296    0.0000 C   0  0  0  0  0  0  0  0  0  0  0  0
    3.1320    6.8796    0.0000 C   0  0  0  0  0  0  0  0  0  0  0  0
    3.1320    8.3796    0.0000 C   0  0  0  0  0  0  0  0  0  0  0  0
    4.4309    9.1298    0.0000 H   0  0  0  0  0  0  0  0  0  0  0  0
    1.8320    9.1296    0.0000 N   0  0  0  0  0  0  0  0  0  0  0  0
    0.5320    8.3796    0.0000 C   0  0  0  0  0  0  0  0  0  0  0  0
   -0.7669    9.1298    0.0000 H   0  0  0  0  0  0  0  0  0  0  0  0
    4.4309    6.1294    0.0000 N   0  0  0  0  0  0  0  0  0  0  0  0
    5.7301    6.8792    0.0000 H   0  0  0  0  0  0  0  0  0  0  0  0
    4.4307    4.6294    0.0000 H   0  0  0  0  0  0  0  0  0  0  0  0
    1.8320    4.6296    0.0000 N   0  0  0  0  0  0  0  0  0  0  0  0
    3.1310    3.8796    0.0000 H   0  0  0  0  0  0  0  0  0  0  0  0
    0.5329    3.8796    0.0000 C   0  0  0  0  0  0  0  0  0  0  0  0
    0.0198    5.2891    0.0000 H   0  0  0  0  0  0  0  0  0  0  0  0
   -0.9442    3.6188    0.0000 C   0  0  0  0  0  0  0  0  0  0  0  0
   -0.9447    5.1188    0.0000 H   0  0  0  0  0  0  0  0  0  0  0  0
   -1.4568    2.2083    0.0000 C   0  0  0  0  0  0  0  0  0  0  0  0
   -2.7561    2.9578    0.0000 H   0  0  0  0  0  0  0  0  0  0  0  0
   -0.4922    1.0584    0.0000 C   0  0  0  0  0  0  0  0  0  0  0  0
   -1.7912    0.3084    0.0000 H   0  0  0  0  0  0  0  0  0  0  0  0
    0.9850    1.3192    0.0000 C   0  0  0  0  0  0  0  0  0  0  0  0
    0.9855   -0.1808    0.0000 H   0  0  0  0  0  0  0  0  0  0  0  0
    2.4623    1.0594    0.0000 C   0  0  0  0  0  0  0  0  0  0  0  0
    3.4260    2.2089    0.0000 O   0  0  0  0  0  0  0  0  0  0  0  0
    2.9759   -0.3499    0.0000 O   0  0  0  0  0  0  0  0  0  0  0  0
    4.4532   -0.6098    0.0000 H   0  0  0  0  0  0  0  0  0  0  0  0
    1.4975    2.7298    0.0000 O   0  0  0  0  0  0  0  0  0  0  0  0
    0.0210   -0.3510    0.0000 O   0  0  0  0  0  0  0  0  0  0  0  0
   -0.9431   -1.5002    0.0000 H   0  0  0  0  0  0  0  0  0  0  0  0
   -2.4208    1.0591    0.0000 O   0  0  0  0  0  0  0  0  0  0  0  0
   -3.8981    1.3194    0.0000 H   0  0  0  0  0  0  0  0  0  0  0  0
   -2.4215    3.8787    0.0000 O   0  0  0  0  0  0  0  0  0  0  0  0
   -2.9352    5.2880    0.0000 H   0  0  0  0  0  0  0  0  0  0  0  0
  1  2  1  0  0  0  0 
  1  3  2  0  0  0  0 
  3  4  1  0  0  0  0 
  4  5  2  0  0  0  0 
  5  6  1  0  0  0  0 
  5  7  1  0  0  0  0 
  7  8  2  0  0  0  0 
  1  8  1  0  0  0  0 
  8  9  1  0  0  0  0 
  4 10  1  0  0  0  0 
 10 11  1  0  0  0  0 
 10 12  1  0  0  0  0 
  3 13  1  0  0  0  0 
 13 14  1  0  0  0  0 
 13 15  1  0  0  0  0 
 15 16  1  0  0  0  0 
 15 17  1  0  0  0  0 
 17 18  1  0  0  0  0 
 17 19  1  0  0  0  0 
 19 20  1  0  0  0  0 
 19 21  1  0  0  0  0 
 21 22  1  0  0  0  0 
 21 23  1  0  0  0  0 
 23 24  1  0  0  0  0 
 23 25  1  0  0  0  0 
 25 26  2  0  0  0  0 
 25 27  1  0  0  0  0 
 27 28  1  0  0  0  0 
 23 29  1  0  0  0  0 
 15 29  1  0  0  0  0 
 21 30  1  0  0  0  0 
 30 31  1  0  0  0  0 
 19 32  1  0  0  0  0 
 32 33  1  0  0  0  0 
 17 34  1  0  0  0  0 
 34 35  1  0  0  0  0 
M  END
> <Rank>
5

> <Priority_score>
0.528

> <Reaction_type>
N-glucuronidation_(aniline)

> <Parent_ID>
74

> <Parent_InChI>
InChI=1S/C5H7N3/c6-4-1-2-8-3-5(4)7/h1-3H,7H2,(H2,6,8)

> <Parent_SMILES>
Nc1ccncc1N

$$$$
Molecule 74_metabolite 6
  CDK     0516241031

 35 36  0  0  0  0  0  0  0  0999 V2000
   -5.7106    5.2641    0.0000 C   0  0  0  0  0  0  0  0  0  0  0  0
   -5.7098    6.7641    0.0000 H   0  0  0  0  0  0  0  0  0  0  0  0
   -4.4113    4.5128    0.0000 C   0  0  0  0  0  0  0  0  0  0  0  0
   -4.4113    3.0120    0.0000 C   0  0  0  0  0  0  0  0  0  0  0  0
   -5.7106    2.2624    0.0000 C   0  0  0  0  0  0  0  0  0  0  0  0
   -5.7113    0.7624    0.0000 H   0  0  0  0  0  0  0  0  0  0  0  0
   -7.0098    3.0136    0.0000 N   0  0  0  0  0  0  0  0  0  0  0  0
   -7.0098    4.5145    0.0000 C   0  0  0  0  0  0  0  0  0  0  0  0
   -8.3087    5.2647    0.0000 H   0  0  0  0  0  0  0  0  0  0  0  0
   -3.1124    2.2618    0.0000 N   0  0  0  0  0  0  0  0  0  0  0  0
   -1.8132    3.0116    0.0000 H   0  0  0  0  0  0  0  0  0  0  0  0
   -3.1126    0.7618    0.0000 C   0  0  0  0  0  0  0  0  0  0  0  0
   -4.5898    1.0223    0.0000 H   0  0  0  0  0  0  0  0  0  0  0  0
   -3.6256   -0.6478    0.0000 C   0  0  0  0  0  0  0  0  0  0  0  0
   -4.9247    0.1020    0.0000 H   0  0  0  0  0  0  0  0  0  0  0  0
   -2.6604   -1.7971    0.0000 C   0  0  0  0  0  0  0  0  0  0  0  0
   -3.9593   -2.5473    0.0000 H   0  0  0  0  0  0  0  0  0  0  0  0
   -1.1823   -1.5369    0.0000 C   0  0  0  0  0  0  0  0  0  0  0  0
   -1.1825   -3.0369    0.0000 H   0  0  0  0  0  0  0  0  0  0  0  0
   -0.6693   -0.1273    0.0000 C   0  0  0  0  0  0  0  0  0  0  0  0
    0.6298   -0.8771    0.0000 H   0  0  0  0  0  0  0  0  0  0  0  0
    0.2945    1.0220    0.0000 C   0  0  0  0  0  0  0  0  0  0  0  0
   -0.2189    2.4314    0.0000 O   0  0  0  0  0  0  0  0  0  0  0  0
    1.7718    0.7619    0.0000 O   0  0  0  0  0  0  0  0  0  0  0  0
    2.7357    1.9112    0.0000 H   0  0  0  0  0  0  0  0  0  0  0  0
   -1.6345    1.0220    0.0000 O   0  0  0  0  0  0  0  0  0  0  0  0
    0.2949   -1.7975    0.0000 O   0  0  0  0  0  0  0  0  0  0  0  0
    0.8078   -3.2070    0.0000 H   0  0  0  0  0  0  0  0  0  0  0  0
   -2.1474   -3.2067    0.0000 O   0  0  0  0  0  0  0  0  0  0  0  0
   -3.1117   -4.3557    0.0000 H   0  0  0  0  0  0  0  0  0  0  0  0
   -4.5894   -1.7971    0.0000 O   0  0  0  0  0  0  0  0  0  0  0  0
   -6.0667   -1.5370    0.0000 H   0  0  0  0  0  0  0  0  0  0  0  0
   -3.1120    5.2624    0.0000 N   0  0  0  0  0  0  0  0  0  0  0  0
   -3.1115    6.7624    0.0000 H   0  0  0  0  0  0  0  0  0  0  0  0
   -1.8132    4.5120    0.0000 H   0  0  0  0  0  0  0  0  0  0  0  0
  1  2  1  0  0  0  0 
  1  3  2  0  0  0  0 
  3  4  1  0  0  0  0 
  4  5  2  0  0  0  0 
  5  6  1  0  0  0  0 
  5  7  1  0  0  0  0 
  7  8  2  0  0  0  0 
  1  8  1  0  0  0  0 
  8  9  1  0  0  0  0 
  4 10  1  0  0  0  0 
 10 11  1  0  0  0  0 
 10 12  1  0  0  0  0 
 12 13  1  0  0  0  0 
 12 14  1  0  0  0  0 
 14 15  1  0  0  0  0 
 14 16  1  0  0  0  0 
 16 17  1  0  0  0  0 
 16 18  1  0  0  0  0 
 18 19  1  0  0  0  0 
 18 20  1  0  0  0  0 
 20 21  1  0  0  0  0 
 20 22  1  0  0  0  0 
 22 23  2  0  0  0  0 
 22 24  1  0  0  0  0 
 24 25  1  0  0  0  0 
 20 26  1  0  0  0  0 
 12 26  1  0  0  0  0 
 18 27  1  0  0  0  0 
 27 28  1  0  0  0  0 
 16 29  1  0  0  0  0 
 29 30  1  0  0  0  0 
 14 31  1  0  0  0  0 
 31 32  1  0  0  0  0 
  3 33  1  0  0  0  0 
 33 34  1  0  0  0  0 
 33 35  1  0  0  0  0 
M  END
> <Rank>
6

> <Priority_score>
0.416

> <Reaction_type>
N-glucuronidation_(aniline)

> <Parent_ID>
74

> <Parent_InChI>
InChI=1S/C5H7N3/c6-4-1-2-8-3-5(4)7/h1-3H,7H2,(H2,6,8)

> <Parent_SMILES>
Nc1ccncc1N

$$$$
Molecule 74_metabolite 7
  CDK     0516241031

 16 16  0  0  0  0  0  0  0  0999 V2000
    1.3000    2.9998    0.0000 C   0  0  0  0  0  0  0  0  0  0  0  0
    2.5989    3.7500    0.0000 H   0  0  0  0  0  0  0  0  0  0  0  0
    0.0000    3.7498    0.0000 N   0  0  0  0  0  0  0  0  0  0  0  0
   -1.3000    2.9998    0.0000 C   0  0  0  0  0  0  0  0  0  0  0  0
   -2.5989    3.7500    0.0000 H   0  0  0  0  0  0  0  0  0  0  0  0
   -1.3000    1.4998    0.0000 C   0  0  0  0  0  0  0  0  0  0  0  0
   -0.0000    0.7498    0.0000 C   0  0  0  0  0  0  0  0  0  0  0  0
    1.3000    1.4998    0.0000 C   0  0  0  0  0  0  0  0  0  0  0  0
    2.5989    0.7496    0.0000 N   0  0  0  0  0  0  0  0  0  0  0  0
    3.8981    1.4994    0.0000 H   0  0  0  0  0  0  0  0  0  0  0  0
    2.5987   -0.7504    0.0000 H   0  0  0  0  0  0  0  0  0  0  0  0
   -0.0000   -0.7502    0.0000 N   0  0  0  0  0  0  0  0  0  0  0  0
   -1.2990   -1.5002    0.0000 H   0  0  0  0  0  0  0  0  0  0  0  0
    1.2990   -1.5002    0.0000 H   0  0  0  0  0  0  0  0  0  0  0  0
   -2.5989    0.7496    0.0000 O   0  0  0  0  0  0  0  0  0  0  0  0
   -3.8981    1.4994    0.0000 H   0  0  0  0  0  0  0  0  0  0  0  0
  1  2  1  0  0  0  0 
  1  3  2  0  0  0  0 
  3  4  1  0  0  0  0 
  4  5  1  0  0  0  0 
  4  6  2  0  0  0  0 
  6  7  1  0  0  0  0 
  7  8  2  0  0  0  0 
  1  8  1  0  0  0  0 
  8  9  1  0  0  0  0 
  9 10  1  0  0  0  0 
  9 11  1  0  0  0  0 
  7 12  1  0  0  0  0 
 12 13  1  0  0  0  0 
 12 14  1  0  0  0  0 
  6 15  1  0  0  0  0 
 15 16  1  0  0  0  0 
M  END
> <Rank>
7

> <Priority_score>
0.28755763604447043

> <Reaction_type>
aromatic_hydroxylation_(ortho_to_nitrogen)

> <Parent_ID>
74

> <Parent_InChI>
InChI=1S/C5H7N3/c6-4-1-2-8-3-5(4)7/h1-3H,7H2,(H2,6,8)

> <Parent_SMILES>
Nc1ccncc1N

$$$$
Molecule 74_metabolite 8
  CDK     0516241031

 16 16  0  0  0  0  0  0  0  0999 V2000
    1.3000    0.7500    0.0000 C   0  0  0  0  0  0  0  0  0  0  0  0
    2.5989    1.5002    0.0000 H   0  0  0  0  0  0  0  0  0  0  0  0
   -0.0000    1.5000    0.0000 C   0  0  0  0  0  0  0  0  0  0  0  0
   -1.3000    0.7500    0.0000 C   0  0  0  0  0  0  0  0  0  0  0  0
   -1.3000   -0.7500    0.0000 C   0  0  0  0  0  0  0  0  0  0  0  0
   -2.5989   -1.5002    0.0000 H   0  0  0  0  0  0  0  0  0  0  0  0
   -0.0000   -1.5000    0.0000 N   0  0  0  0  0  0  0  0  0  0  0  0
    1.3000   -0.7500    0.0000 C   0  0  0  0  0  0  0  0  0  0  0  0
    2.5989   -1.5002    0.0000 H   0  0  0  0  0  0  0  0  0  0  0  0
   -0.0000   -3.0000    0.0000 O   0  0  0  0  0  0  0  0  0  0  0  0
   -2.5989    1.5002    0.0000 N   0  0  0  0  0  0  0  0  0  0  0  0
   -3.8981    0.7504    0.0000 H   0  0  0  0  0  0  0  0  0  0  0  0
   -2.5987    3.0002    0.0000 H   0  0  0  0  0  0  0  0  0  0  0  0
    0.0000    3.0000    0.0000 N   0  0  0  0  0  0  0  0  0  0  0  0
    1.2990    3.7500    0.0000 H   0  0  0  0  0  0  0  0  0  0  0  0
   -1.2990    3.7500    0.0000 H   0  0  0  0  0  0  0  0  0  0  0  0
  1  2  1  0  0  0  0 
  1  3  2  0  0  0  0 
  3  4  1  0  0  0  0 
  4  5  2  0  0  0  0 
  5  6  1  0  0  0  0 
  5  7  1  0  0  0  0 
  7  8  2  0  0  0  0 
  1  8  1  0  0  0  0 
  8  9  1  0  0  0  0 
  7 10  1  0  0  0  0 
  4 11  1  0  0  0  0 
 11 12  1  0  0  0  0 
 11 13  1  0  0  0  0 
  3 14  1  0  0  0  0 
 14 15  1  0  0  0  0 
 14 16  1  0  0  0  0 
M  CHG  1   7   1
M  CHG  1  10  -1
M  END
> <Rank>
7

> <Priority_score>
0.28755763604447043

> <Reaction_type>
N-oxidation_(-N=)

> <Parent_ID>
74

> <Parent_InChI>
InChI=1S/C5H7N3/c6-4-1-2-8-3-5(4)7/h1-3H,7H2,(H2,6,8)

> <Parent_SMILES>
Nc1ccncc1N

$$$$
Molecule 74_metabolite 9
  CDK     0516241031

 16 16  0  0  0  0  0  0  0  0999 V2000
    2.5992   -0.0002    0.0000 C   0  0  0  0  0  0  0  0  0  0  0  0
    3.8981   -0.7504    0.0000 H   0  0  0  0  0  0  0  0  0  0  0  0
    2.5992    1.4998    0.0000 C   0  0  0  0  0  0  0  0  0  0  0  0
    1.2992    2.2498    0.0000 N   0  0  0  0  0  0  0  0  0  0  0  0
   -0.0008    1.4998    0.0000 C   0  0  0  0  0  0  0  0  0  0  0  0
   -1.2998    2.2500    0.0000 H   0  0  0  0  0  0  0  0  0  0  0  0
   -0.0008   -0.0002    0.0000 C   0  0  0  0  0  0  0  0  0  0  0  0
    1.2992   -0.7502    0.0000 C   0  0  0  0  0  0  0  0  0  0  0  0
    1.2992   -2.2502    0.0000 N   0  0  0  0  0  0  0  0  0  0  0  0
    2.5982   -3.0002    0.0000 H   0  0  0  0  0  0  0  0  0  0  0  0
    0.0001   -3.0002    0.0000 H   0  0  0  0  0  0  0  0  0  0  0  0
   -1.2998   -0.7504    0.0000 N   0  0  0  0  0  0  0  0  0  0  0  0
   -2.5989   -0.0006    0.0000 H   0  0  0  0  0  0  0  0  0  0  0  0
   -1.2995   -2.2504    0.0000 H   0  0  0  0  0  0  0  0  0  0  0  0
    3.8981    2.2500    0.0000 O   0  0  0  0  0  0  0  0  0  0  0  0
    3.8978    3.7500    0.0000 H   0  0  0  0  0  0  0  0  0  0  0  0
  1  2  1  0  0  0  0 
  1  3  2  0  0  0  0 
  3  4  1  0  0  0  0 
  4  5  2  0  0  0  0 
  5  6  1  0  0  0  0 
  5  7  1  0  0  0  0 
  7  8  2  0  0  0  0 
  1  8  1  0  0  0  0 
  8  9  1  0  0  0  0 
  9 10  1  0  0  0  0 
  9 11  1  0  0  0  0 
  7 12  1  0  0  0  0 
 12 13  1  0  0  0  0 
 12 14  1  0  0  0  0 
  3 15  1  0  0  0  0 
 15 16  1  0  0  0  0 
M  END
> <Rank>
7

> <Priority_score>
0.28755763604447043

> <Reaction_type>
aromatic_hydroxylation_(para_to_nitrogen)

> <Parent_ID>
74

> <Parent_InChI>
InChI=1S/C5H7N3/c6-4-1-2-8-3-5(4)7/h1-3H,7H2,(H2,6,8)

> <Parent_SMILES>
Nc1ccncc1N

$$$$
Molecule 74_metabolite 10
  CDK     0516241031

 16 16  0  0  0  0  0  0  0  0999 V2000
    0.6501   -1.1259    0.0000 C   0  0  0  0  0  0  0  0  0  0  0  0
    1.9492   -1.8757    0.0000 H   0  0  0  0  0  0  0  0  0  0  0  0
    0.6496    0.3749    0.0000 C   0  0  0  0  0  0  0  0  0  0  0  0
   -0.6499    1.1257    0.0000 C   0  0  0  0  0  0  0  0  0  0  0  0
   -1.9490    0.3757    0.0000 C   0  0  0  0  0  0  0  0  0  0  0  0
   -1.9485   -1.1251    0.0000 N   0  0  0  0  0  0  0  0  0  0  0  0
   -0.6490   -1.8759    0.0000 C   0  0  0  0  0  0  0  0  0  0  0  0
   -0.6492   -3.3759    0.0000 H   0  0  0  0  0  0  0  0  0  0  0  0
   -3.2481    1.1255    0.0000 O   0  0  0  0  0  0  0  0  0  0  0  0
   -4.5471    0.3753    0.0000 H   0  0  0  0  0  0  0  0  0  0  0  0
   -0.6497    2.6257    0.0000 N   0  0  0  0  0  0  0  0  0  0  0  0
    0.6495    3.3755    0.0000 H   0  0  0  0  0  0  0  0  0  0  0  0
   -1.9486    3.3759    0.0000 H   0  0  0  0  0  0  0  0  0  0  0  0
    1.9486    1.1249    0.0000 N   0  0  0  0  0  0  0  0  0  0  0  0
    3.2477    0.3749    0.0000 H   0  0  0  0  0  0  0  0  0  0  0  0
    1.9486    2.6249    0.0000 H   0  0  0  0  0  0  0  0  0  0  0  0
  1  2  1  0  0  0  0 
  1  3  2  0  0  0  0 
  3  4  1  0  0  0  0 
  4  5  2  0  0  0  0 
  5  6  1  0  0  0  0 
  6  7  2  0  0  0  0 
  1  7  1  0  0  0  0 
  7  8  1  0  0  0  0 
  5  9  1  0  0  0  0 
  9 10  1  0  0  0  0 
  4 11  1  0  0  0  0 
 11 12  1  0  0  0  0 
 11 13  1  0  0  0  0 
  3 14  1  0  0  0  0 
 14 15  1  0  0  0  0 
 14 16  1  0  0  0  0 
M  END
> <Rank>
7

> <Priority_score>
0.28755763604447043

> <Reaction_type>
aromatic_hydroxylation_(ortho_to_nitrogen)

> <Parent_ID>
74

> <Parent_InChI>
InChI=1S/C5H7N3/c6-4-1-2-8-3-5(4)7/h1-3H,7H2,(H2,6,8)

> <Parent_SMILES>
Nc1ccncc1N

$$$$
Molecule 74_metabolite 11
  CDK     0516241031

 36 37  0  0  0  0  0  0  0  0999 V2000
    0.9916    0.3822    0.0000 C   0  0  0  0  0  0  0  0  0  0  0  0
    2.2905    1.1324    0.0000 H   0  0  0  0  0  0  0  0  0  0  0  0
   -0.3084    1.1322    0.0000 C   0  0  0  0  0  0  0  0  0  0  0  0
   -1.6084    0.3822    0.0000 C   0  0  0  0  0  0  0  0  0  0  0  0
   -1.6084   -1.1178    0.0000 C   0  0  0  0  0  0  0  0  0  0  0  0
   -2.9073   -1.8680    0.0000 H   0  0  0  0  0  0  0  0  0  0  0  0
   -0.3084   -1.8678    0.0000 N   0  0  0  0  0  0  0  0  0  0  0  0
    0.9916   -1.1178    0.0000 C   0  0  0  0  0  0  0  0  0  0  0  0
    2.2905   -1.8680    0.0000 H   0  0  0  0  0  0  0  0  0  0  0  0
   -0.3084   -3.3678    0.0000 C   0  0  0  0  0  0  0  0  0  0  0  0
   -1.7856   -3.1075    0.0000 H   0  0  0  0  0  0  0  0  0  0  0  0
   -0.8211   -4.7775    0.0000 C   0  0  0  0  0  0  0  0  0  0  0  0
   -2.1204   -4.0279    0.0000 H   0  0  0  0  0  0  0  0  0  0  0  0
    0.1442   -5.9267    0.0000 C   0  0  0  0  0  0  0  0  0  0  0  0
   -1.1546   -6.6771    0.0000 H   0  0  0  0  0  0  0  0  0  0  0  0
    1.6223   -5.6662    0.0000 C   0  0  0  0  0  0  0  0  0  0  0  0
    1.6223   -7.1662    0.0000 H   0  0  0  0  0  0  0  0  0  0  0  0
    2.1350   -4.2566    0.0000 C   0  0  0  0  0  0  0  0  0  0  0  0
    3.4343   -5.0061    0.0000 H   0  0  0  0  0  0  0  0  0  0  0  0
    3.4071   -2.7393    0.0000 C   0  0  0  0  0  0  0  0  0  0  0  0
    2.8934   -1.3299    0.0000 O   0  0  0  0  0  0  0  0  0  0  0  0
    4.8844   -2.9991    0.0000 O   0  0  0  0  0  0  0  0  0  0  0  0
    5.8481   -1.8496    0.0000 H   0  0  0  0  0  0  0  0  0  0  0  0
    1.1697   -3.1074    0.0000 O   0  0  0  0  0  0  0  0  0  0  0  0
    3.0995   -5.9265    0.0000 O   0  0  0  0  0  0  0  0  0  0  0  0
    3.6127   -7.3360    0.0000 H   0  0  0  0  0  0  0  0  0  0  0  0
    0.6574   -7.3362    0.0000 O   0  0  0  0  0  0  0  0  0  0  0  0
   -0.3067   -8.4853    0.0000 H   0  0  0  0  0  0  0  0  0  0  0  0
   -1.7848   -5.9270    0.0000 O   0  0  0  0  0  0  0  0  0  0  0  0
   -3.2621   -5.6671    0.0000 H   0  0  0  0  0  0  0  0  0  0  0  0
   -2.9073    1.1324    0.0000 N   0  0  0  0  0  0  0  0  0  0  0  0
   -2.9071    2.6324    0.0000 H   0  0  0  0  0  0  0  0  0  0  0  0
   -4.2065    0.3826    0.0000 H   0  0  0  0  0  0  0  0  0  0  0  0
   -0.3084    2.6322    0.0000 N   0  0  0  0  0  0  0  0  0  0  0  0
   -1.6074    3.3822    0.0000 H   0  0  0  0  0  0  0  0  0  0  0  0
    0.9907    3.3822    0.0000 H   0  0  0  0  0  0  0  0  0  0  0  0
  1  2  1  0  0  0  0 
  1  3  2  0  0  0  0 
  3  4  1  0  0  0  0 
  4  5  2  0  0  0  0 
  5  6  1  0  0  0  0 
  5  7  1  0  0  0  0 
  7  8  2  0  0  0  0 
  1  8  1  0  0  0  0 
  8  9  1  0  0  0  0 
  7 10  1  0  0  0  0 
 10 11  1  0  0  0  0 
 10 12  1  0  0  0  0 
 12 13  1  0  0  0  0 
 12 14  1  0  0  0  0 
 14 15  1  0  0  0  0 
 14 16  1  0  0  0  0 
 16 17  1  0  0  0  0 
 16 18  1  0  0  0  0 
 18 19  1  0  0  0  0 
 18 20  1  0  0  0  0 
 20 21  2  0  0  0  0 
 20 22  1  0  0  0  0 
 22 23  1  0  0  0  0 
 18 24  1  0  0  0  0 
 10 24  1  0  0  0  0 
 16 25  1  0  0  0  0 
 25 26  1  0  0  0  0 
 14 27  1  0  0  0  0 
 27 28  1  0  0  0  0 
 12 29  1  0  0  0  0 
 29 30  1  0  0  0  0 
  4 31  1  0  0  0  0 
 31 32  1  0  0  0  0 
 31 33  1  0  0  0  0 
  3 34  1  0  0  0  0 
 34 35  1  0  0  0  0 
 34 36  1  0  0  0  0 
M  CHG  1   7   1
M  END
> <Rank>
11

> <Priority_score>
0.228

> <Reaction_type>
N-glucuronidation_(aromatic_=n-)

> <Parent_ID>
74

> <Parent_InChI>
InChI=1S/C5H7N3/c6-4-1-2-8-3-5(4)7/h1-3H,7H2,(H2,6,8)

> <Parent_SMILES>
Nc1ccncc1N

$$$$
Molecule 74_metabolite 12
  CDK     0516241031

 16 16  0  0  0  0  0  0  0  0999 V2000
   -0.6502    4.1257    0.0000 C   0  0  0  0  0  0  0  0  0  0  0  0
   -1.9493    4.8755    0.0000 H   0  0  0  0  0  0  0  0  0  0  0  0
   -0.6497    2.6249    0.0000 C   0  0  0  0  0  0  0  0  0  0  0  0
    0.6498    1.8741    0.0000 C   0  0  0  0  0  0  0  0  0  0  0  0
    1.9489    2.6241    0.0000 C   0  0  0  0  0  0  0  0  0  0  0  0
    3.2480    1.8743    0.0000 H   0  0  0  0  0  0  0  0  0  0  0  0
    1.9484    4.1249    0.0000 N   0  0  0  0  0  0  0  0  0  0  0  0
    0.6489    4.8757    0.0000 C   0  0  0  0  0  0  0  0  0  0  0  0
    0.6491    6.3757    0.0000 H   0  0  0  0  0  0  0  0  0  0  0  0
    0.6496    0.3741    0.0000 N   0  0  0  0  0  0  0  0  0  0  0  0
    1.9485   -0.3761    0.0000 H   0  0  0  0  0  0  0  0  0  0  0  0
   -0.6496   -0.3757    0.0000 H   0  0  0  0  0  0  0  0  0  0  0  0
   -1.9487    1.8749    0.0000 N   0  0  0  0  0  0  0  0  0  0  0  0
   -1.9487    0.3749    0.0000 H   0  0  0  0  0  0  0  0  0  0  0  0
   -3.2478    2.6249    0.0000 O   0  0  0  0  0  0  0  0  0  0  0  0
   -4.5468    1.8749    0.0000 H   0  0  0  0  0  0  0  0  0  0  0  0
  1  2  1  0  0  0  0 
  1  3  2  0  0  0  0 
  3  4  1  0  0  0  0 
  4  5  2  0  0  0  0 
  5  6  1  0  0  0  0 
  5  7  1  0  0  0  0 
  7  8  2  0  0  0  0 
  1  8  1  0  0  0  0 
  8  9  1  0  0  0  0 
  4 10  1  0  0  0  0 
 10 11  1  0  0  0  0 
 10 12  1  0  0  0  0 
  3 13  1  0  0  0  0 
 13 14  1  0  0  0  0 
 13 15  1  0  0  0  0 
 15 16  1  0  0  0  0 
M  END
> <Rank>
12

> <Priority_score>
0.216

> <Reaction_type>
N-oxidation_(aniline)

> <Parent_ID>
74

> <Parent_InChI>
InChI=1S/C5H7N3/c6-4-1-2-8-3-5(4)7/h1-3H,7H2,(H2,6,8)

> <Parent_SMILES>
Nc1ccncc1N

$$$$
Molecule 74_metabolite 13
  CDK     0516241031

 16 16  0  0  0  0  0  0  0  0999 V2000
   -3.8981    1.4998    0.0000 C   0  0  0  0  0  0  0  0  0  0  0  0
   -5.1970    0.7496    0.0000 H   0  0  0  0  0  0  0  0  0  0  0  0
   -2.5981    0.7498    0.0000 C   0  0  0  0  0  0  0  0  0  0  0  0
   -1.2981    1.4998    0.0000 C   0  0  0  0  0  0  0  0  0  0  0  0
   -1.2981    2.9998    0.0000 C   0  0  0  0  0  0  0  0  0  0  0  0
    0.0008    3.7500    0.0000 H   0  0  0  0  0  0  0  0  0  0  0  0
   -2.5981    3.7498    0.0000 N   0  0  0  0  0  0  0  0  0  0  0  0
   -3.8981    2.9998    0.0000 C   0  0  0  0  0  0  0  0  0  0  0  0
   -5.1970    3.7500    0.0000 H   0  0  0  0  0  0  0  0  0  0  0  0
    0.0008    0.7496    0.0000 N   0  0  0  0  0  0  0  0  0  0  0  0
    0.0006   -0.7504    0.0000 H   0  0  0  0  0  0  0  0  0  0  0  0
    1.3000    1.4994    0.0000 O   0  0  0  0  0  0  0  0  0  0  0  0
    2.5989    0.7492    0.0000 H   0  0  0  0  0  0  0  0  0  0  0  0
   -2.5981   -0.7502    0.0000 N   0  0  0  0  0  0  0  0  0  0  0  0
   -3.8971   -1.5002    0.0000 H   0  0  0  0  0  0  0  0  0  0  0  0
   -1.2990   -1.5002    0.0000 H   0  0  0  0  0  0  0  0  0  0  0  0
  1  2  1  0  0  0  0 
  1  3  2  0  0  0  0 
  3  4  1  0  0  0  0 
  4  5  2  0  0  0  0 
  5  6  1  0  0  0  0 
  5  7  1  0  0  0  0 
  7  8  2  0  0  0  0 
  1  8  1  0  0  0  0 
  8  9  1  0  0  0  0 
  4 10  1  0  0  0  0 
 10 11  1  0  0  0  0 
 10 12  1  0  0  0  0 
 12 13  1  0  0  0  0 
  3 14  1  0  0  0  0 
 14 15  1  0  0  0  0 
 14 16  1  0  0  0  0 
M  END
> <Rank>
13

> <Priority_score>
0.1676587934406499

> <Reaction_type>
N-oxidation_(aniline)

> <Parent_ID>
74

> <Parent_InChI>
InChI=1S/C5H7N3/c6-4-1-2-8-3-5(4)7/h1-3H,7H2,(H2,6,8)

> <Parent_SMILES>
Nc1ccncc1N

$$$$
Molecule 75
  CDK     0516241031

 16 17  0  0  0  0  0  0  0  0999 V2000
   -3.8982    3.7523    0.0000 C   0  0  0  0  0  0  0  0  0  0  0  0
   -2.5989    3.0010    0.0000 C   0  0  0  0  0  0  0  0  0  0  0  0
   -2.5989    1.5002    0.0000 C   0  0  0  0  0  0  0  0  0  0  0  0
   -3.8982    0.7506    0.0000 C   0  0  0  0  0  0  0  0  0  0  0  0
   -5.1975    1.5019    0.0000 C   0  0  0  0  0  0  0  0  0  0  0  0
   -5.1975    3.0027    0.0000 C   0  0  0  0  0  0  0  0  0  0  0  0
   -6.4968    0.7523    0.0000 Cl  0  0  0  0  0  0  0  0  0  0  0  0
   -3.8989   -0.7494    0.0000 Cl  0  0  0  0  0  0  0  0  0  0  0  0
   -1.3000    0.7500    0.0000 C   0  0  0  0  0  0  0  0  0  0  0  0
   -1.3000   -0.7500    0.0000 C   0  0  0  0  0  0  0  0  0  0  0  0
   -2.5989   -1.5002    0.0000 N   0  0  0  0  0  0  0  0  0  0  0  0
    0.0000   -1.5000    0.0000 N   0  0  0  0  0  0  0  0  0  0  0  0
    1.3000   -0.7500    0.0000 C   0  0  0  0  0  0  0  0  0  0  0  0
    2.5989   -1.5002    0.0000 N   0  0  0  0  0  0  0  0  0  0  0  0
    1.3000    0.7500    0.0000 N   0  0  0  0  0  0  0  0  0  0  0  0
    0.0000    1.5000    0.0000 N   0  0  0  0  0  0  0  0  0  0  0  0
  1  2  2  0  0  0  0 
  2  3  1  0  0  0  0 
  3  4  2  0  0  0  0 
  4  5  1  0  0  0  0 
  5  6  2  0  0  0  0 
  1  6  1  0  0  0  0 
  5  7  1  0  0  0  0 
  4  8  1  0  0  0  0 
  3  9  1  0  0  0  0 
  9 10  2  0  0  0  0 
 10 11  1  0  0  0  0 
 10 12  1  0  0  0  0 
 12 13  2  0  0  0  0 
 13 14  1  0  0  0  0 
 13 15  1  0  0  0  0 
 15 16  2  0  0  0  0 
  9 16  1  0  0  0  0 
M  END
> <SMILES>
Nc1nnc(-c2cccc(Cl)c2Cl)c(N)n1

$$$$
Molecule 75_metabolite 1
  CDK     0516241031

 43 45  0  0  0  0  0  0  0  0999 V2000
   -7.5467    2.7595    0.0000 C   0  0  0  0  0  0  0  0  0  0  0  0
   -8.8463    3.5084    0.0000 H   0  0  0  0  0  0  0  0  0  0  0  0
   -7.5453    1.2587    0.0000 C   0  0  0  0  0  0  0  0  0  0  0  0
   -8.8438    0.5078    0.0000 H   0  0  0  0  0  0  0  0  0  0  0  0
   -6.2453    0.5087    0.0000 C   0  0  0  0  0  0  0  0  0  0  0  0
   -4.9467    1.2595    0.0000 C   0  0  0  0  0  0  0  0  0  0  0  0
   -4.9481    2.7603    0.0000 C   0  0  0  0  0  0  0  0  0  0  0  0
   -6.2481    3.5103    0.0000 C   0  0  0  0  0  0  0  0  0  0  0  0
   -6.2489    5.0103    0.0000 H   0  0  0  0  0  0  0  0  0  0  0  0
   -3.6496    3.5112    0.0000 Cl  0  0  0  0  0  0  0  0  0  0  0  0
   -3.6471    0.5105    0.0000 Cl  0  0  0  0  0  0  0  0  0  0  0  0
   -6.2445   -0.9913    0.0000 C   0  0  0  0  0  0  0  0  0  0  0  0
   -4.9453   -1.7409    0.0000 C   0  0  0  0  0  0  0  0  0  0  0  0
   -2.8150   -0.5106    0.0000 N   0  0  0  0  0  0  0  0  0  0  0  0
   -2.8153    0.9894    0.0000 H   0  0  0  0  0  0  0  0  0  0  0  0
   -1.5159   -1.2604    0.0000 C   0  0  0  0  0  0  0  0  0  0  0  0
   -2.4798   -2.4097    0.0000 H   0  0  0  0  0  0  0  0  0  0  0  0
   -0.5513   -2.4091    0.0000 C   0  0  0  0  0  0  0  0  0  0  0  0
   -1.8499   -3.1597    0.0000 H   0  0  0  0  0  0  0  0  0  0  0  0
    0.9266   -2.1474    0.0000 C   0  0  0  0  0  0  0  0  0  0  0  0
    0.9273   -3.6474    0.0000 H   0  0  0  0  0  0  0  0  0  0  0  0
    1.4398   -0.7371    0.0000 C   0  0  0  0  0  0  0  0  0  0  0  0
    2.7390   -1.4869    0.0000 H   0  0  0  0  0  0  0  0  0  0  0  0
    0.4752    0.4116    0.0000 C   0  0  0  0  0  0  0  0  0  0  0  0
    1.7739    1.1622    0.0000 H   0  0  0  0  0  0  0  0  0  0  0  0
   -0.0386    1.8209    0.0000 C   0  0  0  0  0  0  0  0  0  0  0  0
   -1.5160    2.0805    0.0000 O   0  0  0  0  0  0  0  0  0  0  0  0
    0.9249    2.9705    0.0000 O   0  0  0  0  0  0  0  0  0  0  0  0
    2.4022    2.7109    0.0000 H   0  0  0  0  0  0  0  0  0  0  0  0
   -1.0026    0.1500    0.0000 O   0  0  0  0  0  0  0  0  0  0  0  0
    2.4037    0.4122    0.0000 O   0  0  0  0  0  0  0  0  0  0  0  0
    3.8810    0.1522    0.0000 H   0  0  0  0  0  0  0  0  0  0  0  0
    2.4039   -2.4075    0.0000 O   0  0  0  0  0  0  0  0  0  0  0  0
    2.9173   -3.8169    0.0000 H   0  0  0  0  0  0  0  0  0  0  0  0
   -0.0374   -3.8183    0.0000 O   0  0  0  0  0  0  0  0  0  0  0  0
   -1.0009   -4.9680    0.0000 H   0  0  0  0  0  0  0  0  0  0  0  0
   -4.9453   -3.2418    0.0000 N   0  0  0  0  0  0  0  0  0  0  0  0
   -6.2445   -3.9930    0.0000 C   0  0  0  0  0  0  0  0  0  0  0  0
   -6.2438   -5.4930    0.0000 N   0  0  0  0  0  0  0  0  0  0  0  0
   -7.5425   -6.2436    0.0000 H   0  0  0  0  0  0  0  0  0  0  0  0
   -4.9444   -6.2424    0.0000 H   0  0  0  0  0  0  0  0  0  0  0  0
   -7.5438   -3.2434    0.0000 N   0  0  0  0  0  0  0  0  0  0  0  0
   -7.5438   -1.7426    0.0000 N   0  0  0  0  0  0  0  0  0  0  0  0
  1  2  1  0  0  0  0 
  1  3  2  0  0  0  0 
  3  4  1  0  0  0  0 
  3  5  1  0  0  0  0 
  5  6  2  0  0  0  0 
  6  7  1  0  0  0  0 
  7  8  2  0  0  0  0 
  1  8  1  0  0  0  0 
  8  9  1  0  0  0  0 
  7 10  1  0  0  0  0 
  6 11  1  0  0  0  0 
  5 12  1  0  0  0  0 
 12 13  2  0  0  0  0 
 13 14  1  0  0  0  0 
 14 15  1  0  0  0  0 
 14 16  1  0  0  0  0 
 16 17  1  0  0  0  0 
 16 18  1  0  0  0  0 
 18 19  1  0  0  0  0 
 18 20  1  0  0  0  0 
 20 21  1  0  0  0  0 
 20 22  1  0  0  0  0 
 22 23  1  0  0  0  0 
 22 24  1  0  0  0  0 
 24 25  1  0  0  0  0 
 24 26  1  0  0  0  0 
 26 27  2  0  0  0  0 
 26 28  1  0  0  0  0 
 28 29  1  0  0  0  0 
 24 30  1  0  0  0  0 
 16 30  1  0  0  0  0 
 22 31  1  0  0  0  0 
 31 32  1  0  0  0  0 
 20 33  1  0  0  0  0 
 33 34  1  0  0  0  0 
 18 35  1  0  0  0  0 
 35 36  1  0  0  0  0 
 13 37  1  0  0  0  0 
 37 38  2  0  0  0  0 
 38 39  1  0  0  0  0 
 39 40  1  0  0  0  0 
 39 41  1  0  0  0  0 
 38 42  1  0  0  0  0 
 42 43  2  0  0  0  0 
 12 43  1  0  0  0  0 
M  END
> <Rank>
1

> <Priority_score>
0.664

> <Reaction_type>
N-glucuronidation_(aniline)

> <Parent_ID>
75

> <Parent_InChI>
InChI=1S/C9H7Cl2N5/c10-5-3-1-2-4(6(5)11)7-8(12)14-9(13)16-15-7/h1-3H,(H4,12,13,14,16)

> <Parent_SMILES>
Nc1nnc(-c2cccc(Cl)c2Cl)c(N)n1

$$$$
Molecule 75_metabolite 2
  CDK     0516241031

 27 28  0  0  0  0  0  0  0  0999 V2000
   -4.7295    4.2324    0.0000 C   0  0  0  0  0  0  0  0  0  0  0  0
   -4.7288    5.7324    0.0000 H   0  0  0  0  0  0  0  0  0  0  0  0
   -3.4302    3.4812    0.0000 C   0  0  0  0  0  0  0  0  0  0  0  0
   -2.1309    4.2308    0.0000 H   0  0  0  0  0  0  0  0  0  0  0  0
   -3.4302    1.9803    0.0000 C   0  0  0  0  0  0  0  0  0  0  0  0
   -4.7295    1.2308    0.0000 C   0  0  0  0  0  0  0  0  0  0  0  0
   -6.0288    1.9820    0.0000 C   0  0  0  0  0  0  0  0  0  0  0  0
   -6.0288    3.4828    0.0000 C   0  0  0  0  0  0  0  0  0  0  0  0
   -7.3277    4.2330    0.0000 H   0  0  0  0  0  0  0  0  0  0  0  0
   -7.3281    1.2324    0.0000 Cl  0  0  0  0  0  0  0  0  0  0  0  0
   -4.7302   -0.2692    0.0000 Cl  0  0  0  0  0  0  0  0  0  0  0  0
   -1.3000    0.7500    0.0000 C   0  0  0  0  0  0  0  0  0  0  0  0
   -1.3000   -0.7500    0.0000 C   0  0  0  0  0  0  0  0  0  0  0  0
   -2.5989   -1.5002    0.0000 N   0  0  0  0  0  0  0  0  0  0  0  0
   -2.5987   -3.0002    0.0000 H   0  0  0  0  0  0  0  0  0  0  0  0
   -3.8981   -0.7504    0.0000 H   0  0  0  0  0  0  0  0  0  0  0  0
    0.0000   -1.5000    0.0000 N   0  0  0  0  0  0  0  0  0  0  0  0
    1.3000   -0.7500    0.0000 C   0  0  0  0  0  0  0  0  0  0  0  0
    1.3000    0.7500    0.0000 N   0  0  0  0  0  0  0  0  0  0  0  0
    0.0000    1.5000    0.0000 N   0  0  0  0  0  0  0  0  0  0  0  0
    2.5989   -1.5002    0.0000 N   0  0  0  0  0  0  0  0  0  0  0  0
    2.5987   -3.0002    0.0000 H   0  0  0  0  0  0  0  0  0  0  0  0
    3.8981   -0.7504    0.0000 S   0  0  0  0  0  0  0  0  0  0  0  0
    4.8624    0.3985    0.0000 O   0  0  0  0  0  0  0  0  0  0  0  0
    2.9341    0.3988    0.0000 O   0  0  0  0  0  0  0  0  0  0  0  0
    5.1970   -1.5006    0.0000 O   0  0  0  0  0  0  0  0  0  0  0  0
    6.4962   -0.7508    0.0000 H   0  0  0  0  0  0  0  0  0  0  0  0
  1  2  1  0  0  0  0 
  1  3  2  0  0  0  0 
  3  4  1  0  0  0  0 
  3  5  1  0  0  0  0 
  5  6  2  0  0  0  0 
  6  7  1  0  0  0  0 
  7  8  2  0  0  0  0 
  1  8  1  0  0  0  0 
  8  9  1  0  0  0  0 
  7 10  1  0  0  0  0 
  6 11  1  0  0  0  0 
  5 12  1  0  0  0  0 
 12 13  2  0  0  0  0 
 13 14  1  0  0  0  0 
 14 15  1  0  0  0  0 
 14 16  1  0  0  0  0 
 13 17  1  0  0  0  0 
 17 18  2  0  0  0  0 
 18 19  1  0  0  0  0 
 19 20  2  0  0  0  0 
 12 20  1  0  0  0  0 
 18 21  1  0  0  0  0 
 21 22  1  0  0  0  0 
 21 23  1  0  0  0  0 
 23 24  2  0  0  0  0 
 23 25  2  0  0  0  0 
 23 26  1  0  0  0  0 
 26 27  1  0  0  0  0 
M  END
> <Rank>
2

> <Priority_score>
0.632

> <Reaction_type>
sulfation_(aniline)

> <Parent_ID>
75

> <Parent_InChI>
InChI=1S/C9H7Cl2N5/c10-5-3-1-2-4(6(5)11)7-8(12)14-9(13)16-15-7/h1-3H,(H4,12,13,14,16)

> <Parent_SMILES>
Nc1nnc(-c2cccc(Cl)c2Cl)c(N)n1

$$$$
Molecule 75_metabolite 3
  CDK     0516241031

 28 29  0  0  0  0  0  0  0  0999 V2000
   -6.0300    4.2308    0.0000 C   0  0  0  0  0  0  0  0  0  0  0  0
   -7.3291    3.4810    0.0000 H   0  0  0  0  0  0  0  0  0  0  0  0
   -5.0656    5.3797    0.0000 H   0  0  0  0  0  0  0  0  0  0  0  0
   -6.9940    5.3800    0.0000 H   0  0  0  0  0  0  0  0  0  0  0  0
   -4.7311    3.4805    0.0000 C   0  0  0  0  0  0  0  0  0  0  0  0
   -4.7313    1.9805    0.0000 O   0  0  0  0  0  0  0  0  0  0  0  0
   -3.4319    4.2303    0.0000 N   0  0  0  0  0  0  0  0  0  0  0  0
   -3.4317    5.7303    0.0000 H   0  0  0  0  0  0  0  0  0  0  0  0
   -2.1330    3.4801    0.0000 C   0  0  0  0  0  0  0  0  0  0  0  0
   -0.8330    4.2301    0.0000 N   0  0  0  0  0  0  0  0  0  0  0  0
    0.4670    3.4801    0.0000 C   0  0  0  0  0  0  0  0  0  0  0  0
    0.4670    1.9801    0.0000 C   0  0  0  0  0  0  0  0  0  0  0  0
    2.5972    0.7498    0.0000 C   0  0  0  0  0  0  0  0  0  0  0  0
    3.8972    1.4998    0.0000 C   0  0  0  0  0  0  0  0  0  0  0  0
    5.1972    0.7498    0.0000 C   0  0  0  0  0  0  0  0  0  0  0  0
    5.1972   -0.7502    0.0000 C   0  0  0  0  0  0  0  0  0  0  0  0
    6.4962   -1.5004    0.0000 H   0  0  0  0  0  0  0  0  0  0  0  0
    3.8972   -1.5002    0.0000 C   0  0  0  0  0  0  0  0  0  0  0  0
    3.8972   -3.0002    0.0000 H   0  0  0  0  0  0  0  0  0  0  0  0
    2.5972   -0.7502    0.0000 C   0  0  0  0  0  0  0  0  0  0  0  0
    1.2983   -1.5004    0.0000 H   0  0  0  0  0  0  0  0  0  0  0  0
    6.4962    1.5000    0.0000 Cl  0  0  0  0  0  0  0  0  0  0  0  0
    3.8972    2.9998    0.0000 Cl  0  0  0  0  0  0  0  0  0  0  0  0
   -0.8330    1.2301    0.0000 N   0  0  0  0  0  0  0  0  0  0  0  0
   -2.1330    1.9801    0.0000 N   0  0  0  0  0  0  0  0  0  0  0  0
    1.7659    4.2303    0.0000 N   0  0  0  0  0  0  0  0  0  0  0  0
    1.7657    5.7303    0.0000 H   0  0  0  0  0  0  0  0  0  0  0  0
    3.0651    3.4805    0.0000 H   0  0  0  0  0  0  0  0  0  0  0  0
  1  2  1  0  0  0  0 
  1  3  1  0  0  0  0 
  1  4  1  0  0  0  0 
  1  5  1  0  0  0  0 
  5  6  2  0  0  0  0 
  5  7  1  0  0  0  0 
  7  8  1  0  0  0  0 
  7  9  1  0  0  0  0 
  9 10  2  0  0  0  0 
 10 11  1  0  0  0  0 
 11 12  2  0  0  0  0 
 12 13  1  0  0  0  0 
 13 14  2  0  0  0  0 
 14 15  1  0  0  0  0 
 15 16  2  0  0  0  0 
 16 17  1  0  0  0  0 
 16 18  1  0  0  0  0 
 18 19  1  0  0  0  0 
 18 20  2  0  0  0  0 
 13 20  1  0  0  0  0 
 20 21  1  0  0  0  0 
 15 22  1  0  0  0  0 
 14 23  1  0  0  0  0 
 12 24  1  0  0  0  0 
 24 25  2  0  0  0  0 
  9 25  1  0  0  0  0 
 11 26  1  0  0  0  0 
 26 27  1  0  0  0  0 
 26 28  1  0  0  0  0 
M  END
> <Rank>
3

> <Priority_score>
0.584

> <Reaction_type>
N-acetylation_(aniline)

> <Parent_ID>
75

> <Parent_InChI>
InChI=1S/C9H7Cl2N5/c10-5-3-1-2-4(6(5)11)7-8(12)14-9(13)16-15-7/h1-3H,(H4,12,13,14,16)

> <Parent_SMILES>
Nc1nnc(-c2cccc(Cl)c2Cl)c(N)n1

$$$$
Molecule 75_metabolite 4
  CDK     0516241031

 58 59  0  0  0  0  0  0  0  0999 V2000
   -4.7295    4.2324    0.0000 C   0  0  0  0  0  0  0  0  0  0  0  0
   -4.7288    5.7324    0.0000 H   0  0  0  0  0  0  0  0  0  0  0  0
   -3.4302    3.4812    0.0000 C   0  0  0  0  0  0  0  0  0  0  0  0
   -2.1309    4.2308    0.0000 H   0  0  0  0  0  0  0  0  0  0  0  0
   -3.4302    1.9803    0.0000 C   0  0  0  0  0  0  0  0  0  0  0  0
   -4.7295    1.2308    0.0000 C   0  0  0  0  0  0  0  0  0  0  0  0
   -6.0288    1.9820    0.0000 C   0  0  0  0  0  0  0  0  0  0  0  0
   -6.0288    3.4828    0.0000 C   0  0  0  0  0  0  0  0  0  0  0  0
   -7.3277    4.2330    0.0000 H   0  0  0  0  0  0  0  0  0  0  0  0
   -7.3281    1.2324    0.0000 S   0  0  0  0  0  0  0  0  0  0  0  0
   -8.6269    1.9828    0.0000 C   0  0  0  0  0  0  0  0  0  0  0  0
   -7.6623    3.1316    0.0000 H   0  0  0  0  0  0  0  0  0  0  0  0
   -9.5907    3.1322    0.0000 H   0  0  0  0  0  0  0  0  0  0  0  0
   -9.9261    1.2333    0.0000 C   0  0  0  0  0  0  0  0  0  0  0  0
  -10.8907    0.0845    0.0000 H   0  0  0  0  0  0  0  0  0  0  0  0
   -8.9623    0.0839    0.0000 C   0  0  0  0  0  0  0  0  0  0  0  0
   -7.4850    0.3439    0.0000 O   0  0  0  0  0  0  0  0  0  0  0  0
   -9.4758   -1.3255    0.0000 N   0  0  0  0  0  0  0  0  0  0  0  0
  -10.9531   -1.5855    0.0000 H   0  0  0  0  0  0  0  0  0  0  0  0
   -8.5120   -2.4749    0.0000 C   0  0  0  0  0  0  0  0  0  0  0  0
   -7.5474   -1.3261    0.0000 H   0  0  0  0  0  0  0  0  0  0  0  0
   -7.2132   -3.2253    0.0000 H   0  0  0  0  0  0  0  0  0  0  0  0
   -9.0255   -3.8842    0.0000 C   0  0  0  0  0  0  0  0  0  0  0  0
  -10.5028   -4.1442    0.0000 O   0  0  0  0  0  0  0  0  0  0  0  0
   -8.0617   -5.0336    0.0000 O   0  0  0  0  0  0  0  0  0  0  0  0
   -8.5751   -6.4430    0.0000 H   0  0  0  0  0  0  0  0  0  0  0  0
  -11.2249    1.9837    0.0000 N   0  0  0  0  0  0  0  0  0  0  0  0
  -11.2245    3.4837    0.0000 H   0  0  0  0  0  0  0  0  0  0  0  0
  -12.5242    1.2341    0.0000 C   0  0  0  0  0  0  0  0  0  0  0  0
  -12.5247   -0.2659    0.0000 O   0  0  0  0  0  0  0  0  0  0  0  0
  -13.8230    1.9845    0.0000 C   0  0  0  0  0  0  0  0  0  0  0  0
  -12.8585    3.1333    0.0000 H   0  0  0  0  0  0  0  0  0  0  0  0
  -14.7868    3.1339    0.0000 H   0  0  0  0  0  0  0  0  0  0  0  0
  -15.5381    0.9951    0.0000 C   0  0  0  0  0  0  0  0  0  0  0  0
  -16.5026   -0.1537    0.0000 H   0  0  0  0  0  0  0  0  0  0  0  0
  -14.5742   -0.1543    0.0000 H   0  0  0  0  0  0  0  0  0  0  0  0
  -16.8369    1.7455    0.0000 C   0  0  0  0  0  0  0  0  0  0  0  0
  -15.8723    2.8942    0.0000 H   0  0  0  0  0  0  0  0  0  0  0  0
  -18.1361    0.9959    0.0000 C   0  0  0  0  0  0  0  0  0  0  0  0
  -18.1366   -0.5041    0.0000 O   0  0  0  0  0  0  0  0  0  0  0  0
  -19.4349    1.7463    0.0000 O   0  0  0  0  0  0  0  0  0  0  0  0
  -20.7342    0.9967    0.0000 H   0  0  0  0  0  0  0  0  0  0  0  0
  -17.8007    2.8948    0.0000 N   0  0  0  0  0  0  0  0  0  0  0  0
  -19.2780    2.6348    0.0000 H   0  0  0  0  0  0  0  0  0  0  0  0
  -17.2872    4.3042    0.0000 H   0  0  0  0  0  0  0  0  0  0  0  0
   -4.7302   -0.2692    0.0000 Cl  0  0  0  0  0  0  0  0  0  0  0  0
   -1.3000    0.7500    0.0000 C   0  0  0  0  0  0  0  0  0  0  0  0
   -0.0007    1.4996    0.0000 C   0  0  0  0  0  0  0  0  0  0  0  0
   -0.0000    2.9996    0.0000 N   0  0  0  0  0  0  0  0  0  0  0  0
    1.2994    3.7490    0.0000 H   0  0  0  0  0  0  0  0  0  0  0  0
   -1.2987    3.7502    0.0000 H   0  0  0  0  0  0  0  0  0  0  0  0
    1.2986    0.7483    0.0000 N   0  0  0  0  0  0  0  0  0  0  0  0
    1.2986   -0.7525    0.0000 C   0  0  0  0  0  0  0  0  0  0  0  0
    2.5975   -1.5027    0.0000 N   0  0  0  0  0  0  0  0  0  0  0  0
    2.5972   -3.0027    0.0000 H   0  0  0  0  0  0  0  0  0  0  0  0
    3.8966   -0.7529    0.0000 H   0  0  0  0  0  0  0  0  0  0  0  0
   -0.0007   -1.5021    0.0000 N   0  0  0  0  0  0  0  0  0  0  0  0
   -1.3000   -0.7508    0.0000 N   0  0  0  0  0  0  0  0  0  0  0  0
  1  2  1  0  0  0  0 
  1  3  2  0  0  0  0 
  3  4  1  0  0  0  0 
  3  5  1  0  0  0  0 
  5  6  2  0  0  0  0 
  6  7  1  0  0  0  0 
  7  8  2  0  0  0  0 
  1  8  1  0  0  0  0 
  8  9  1  0  0  0  0 
  7 10  1  0  0  0  0 
 10 11  1  0  0  0  0 
 11 12  1  0  0  0  0 
 11 13  1  0  0  0  0 
 11 14  1  0  0  0  0 
 14 15  1  0  0  0  0 
 14 16  1  0  0  0  0 
 16 17  2  0  0  0  0 
 16 18  1  0  0  0  0 
 18 19  1  0  0  0  0 
 18 20  1  0  0  0  0 
 20 21  1  0  0  0  0 
 20 22  1  0  0  0  0 
 20 23  1  0  0  0  0 
 23 24  2  0  0  0  0 
 23 25  1  0  0  0  0 
 25 26  1  0  0  0  0 
 14 27  1  0  0  0  0 
 27 28  1  0  0  0  0 
 27 29  1  0  0  0  0 
 29 30  2  0  0  0  0 
 29 31  1  0  0  0  0 
 31 32  1  0  0  0  0 
 31 33  1  0  0  0  0 
 31 34  1  0  0  0  0 
 34 35  1  0  0  0  0 
 34 36  1  0  0  0  0 
 34 37  1  0  0  0  0 
 37 38  1  0  0  0  0 
 37 39  1  0  0  0  0 
 39 40  2  0  0  0  0 
 39 41  1  0  0  0  0 
 41 42  1  0  0  0  0 
 37 43  1  0  0  0  0 
 43 44  1  0  0  0  0 
 43 45  1  0  0  0  0 
  6 46  1  0  0  0  0 
  5 47  1  0  0  0  0 
 47 48  2  0  0  0  0 
 48 49  1  0  0  0  0 
 49 50  1  0  0  0  0 
 49 51  1  0  0  0  0 
 48 52  1  0  0  0  0 
 52 53  2  0  0  0  0 
 53 54  1  0  0  0  0 
 54 55  1  0  0  0  0 
 54 56  1  0  0  0  0 
 53 57  1  0  0  0  0 
 57 58  2  0  0  0  0 
 47 58  1  0  0  0  0 
M  END
> <Rank>
4

> <Priority_score>
0.572

> <Reaction_type>
glutathione_conjugation_(aromatic_nucleophilic_substitution)

> <Parent_ID>
75

> <Parent_InChI>
InChI=1S/C9H7Cl2N5/c10-5-3-1-2-4(6(5)11)7-8(12)14-9(13)16-15-7/h1-3H,(H4,12,13,14,16)

> <Parent_SMILES>
Nc1nnc(-c2cccc(Cl)c2Cl)c(N)n1

$$$$
Molecule 75_metabolite 5
  CDK     0516241031

 28 29  0  0  0  0  0  0  0  0999 V2000
   -3.8976   -3.7504    0.0000 C   0  0  0  0  0  0  0  0  0  0  0  0
   -3.8974   -5.2504    0.0000 H   0  0  0  0  0  0  0  0  0  0  0  0
   -5.3748   -4.0111    0.0000 H   0  0  0  0  0  0  0  0  0  0  0  0
   -4.4109   -2.3410    0.0000 H   0  0  0  0  0  0  0  0  0  0  0  0
   -2.5987   -3.0002    0.0000 C   0  0  0  0  0  0  0  0  0  0  0  0
   -1.2995   -3.7500    0.0000 O   0  0  0  0  0  0  0  0  0  0  0  0
   -2.5989   -1.5002    0.0000 N   0  0  0  0  0  0  0  0  0  0  0  0
   -3.8981   -0.7504    0.0000 H   0  0  0  0  0  0  0  0  0  0  0  0
   -1.3000   -0.7500    0.0000 C   0  0  0  0  0  0  0  0  0  0  0  0
   -1.3000    0.7500    0.0000 C   0  0  0  0  0  0  0  0  0  0  0  0
   -3.4302    1.9803    0.0000 C   0  0  0  0  0  0  0  0  0  0  0  0
   -4.7302    1.2303    0.0000 C   0  0  0  0  0  0  0  0  0  0  0  0
   -6.0302    1.9803    0.0000 C   0  0  0  0  0  0  0  0  0  0  0  0
   -6.0302    3.4803    0.0000 C   0  0  0  0  0  0  0  0  0  0  0  0
   -7.3291    4.2305    0.0000 H   0  0  0  0  0  0  0  0  0  0  0  0
   -4.7302    4.2303    0.0000 C   0  0  0  0  0  0  0  0  0  0  0  0
   -4.7302    5.7303    0.0000 H   0  0  0  0  0  0  0  0  0  0  0  0
   -3.4302    3.4803    0.0000 C   0  0  0  0  0  0  0  0  0  0  0  0
   -2.1313    4.2305    0.0000 H   0  0  0  0  0  0  0  0  0  0  0  0
   -7.3291    1.2301    0.0000 Cl  0  0  0  0  0  0  0  0  0  0  0  0
   -4.7302   -0.2697    0.0000 Cl  0  0  0  0  0  0  0  0  0  0  0  0
    0.0000    1.5000    0.0000 N   0  0  0  0  0  0  0  0  0  0  0  0
    1.3000    0.7500    0.0000 N   0  0  0  0  0  0  0  0  0  0  0  0
    1.3000   -0.7500    0.0000 C   0  0  0  0  0  0  0  0  0  0  0  0
    0.0000   -1.5000    0.0000 N   0  0  0  0  0  0  0  0  0  0  0  0
    2.5989   -1.5002    0.0000 N   0  0  0  0  0  0  0  0  0  0  0  0
    3.8981   -0.7504    0.0000 H   0  0  0  0  0  0  0  0  0  0  0  0
    2.5987   -3.0002    0.0000 H   0  0  0  0  0  0  0  0  0  0  0  0
  1  2  1  0  0  0  0 
  1  3  1  0  0  0  0 
  1  4  1  0  0  0  0 
  1  5  1  0  0  0  0 
  5  6  2  0  0  0  0 
  5  7  1  0  0  0  0 
  7  8  1  0  0  0  0 
  7  9  1  0  0  0  0 
  9 10  2  0  0  0  0 
 10 11  1  0  0  0  0 
 11 12  2  0  0  0  0 
 12 13  1  0  0  0  0 
 13 14  2  0  0  0  0 
 14 15  1  0  0  0  0 
 14 16  1  0  0  0  0 
 16 17  1  0  0  0  0 
 16 18  2  0  0  0  0 
 11 18  1  0  0  0  0 
 18 19  1  0  0  0  0 
 13 20  1  0  0  0  0 
 12 21  1  0  0  0  0 
 10 22  1  0  0  0  0 
 22 23  2  0  0  0  0 
 23 24  1  0  0  0  0 
 24 25  2  0  0  0  0 
  9 25  1  0  0  0  0 
 24 26  1  0  0  0  0 
 26 27  1  0  0  0  0 
 26 28  1  0  0  0  0 
M  END
> <Rank>
5

> <Priority_score>
0.568

> <Reaction_type>
N-acetylation_(aniline)

> <Parent_ID>
75

> <Parent_InChI>
InChI=1S/C9H7Cl2N5/c10-5-3-1-2-4(6(5)11)7-8(12)14-9(13)16-15-7/h1-3H,(H4,12,13,14,16)

> <Parent_SMILES>
Nc1nnc(-c2cccc(Cl)c2Cl)c(N)n1

$$$$
Molecule 75_metabolite 6
  CDK     0516241031

 27 28  0  0  0  0  0  0  0  0999 V2000
    3.2489    0.8559    0.0000 C   0  0  0  0  0  0  0  0  0  0  0  0
    4.5476    0.1053    0.0000 H   0  0  0  0  0  0  0  0  0  0  0  0
    1.9487    0.1064    0.0000 C   0  0  0  0  0  0  0  0  0  0  0  0
    1.9482   -1.3936    0.0000 H   0  0  0  0  0  0  0  0  0  0  0  0
    0.6489    0.8568    0.0000 C   0  0  0  0  0  0  0  0  0  0  0  0
    0.6494    2.3568    0.0000 C   0  0  0  0  0  0  0  0  0  0  0  0
    1.9497    3.1064    0.0000 C   0  0  0  0  0  0  0  0  0  0  0  0
    3.2494    2.3559    0.0000 C   0  0  0  0  0  0  0  0  0  0  0  0
    4.5486    3.1057    0.0000 H   0  0  0  0  0  0  0  0  0  0  0  0
    1.9501    4.6064    0.0000 Cl  0  0  0  0  0  0  0  0  0  0  0  0
   -0.6493    3.1074    0.0000 Cl  0  0  0  0  0  0  0  0  0  0  0  0
   -1.4817   -0.3729    0.0000 C   0  0  0  0  0  0  0  0  0  0  0  0
   -2.7807    0.3771    0.0000 C   0  0  0  0  0  0  0  0  0  0  0  0
   -4.0802   -0.3737    0.0000 N   0  0  0  0  0  0  0  0  0  0  0  0
   -4.0807   -1.8746    0.0000 C   0  0  0  0  0  0  0  0  0  0  0  0
   -5.3799   -2.6243    0.0000 N   0  0  0  0  0  0  0  0  0  0  0  0
   -5.3801   -4.1243    0.0000 H   0  0  0  0  0  0  0  0  0  0  0  0
   -6.6788   -1.8741    0.0000 H   0  0  0  0  0  0  0  0  0  0  0  0
   -2.7817   -2.6246    0.0000 N   0  0  0  0  0  0  0  0  0  0  0  0
   -1.4822   -1.8737    0.0000 N   0  0  0  0  0  0  0  0  0  0  0  0
   -2.7810    1.8771    0.0000 N   0  0  0  0  0  0  0  0  0  0  0  0
   -1.4820    2.6273    0.0000 H   0  0  0  0  0  0  0  0  0  0  0  0
   -4.0801    2.6269    0.0000 S   0  0  0  0  0  0  0  0  0  0  0  0
   -5.5574    2.8871    0.0000 O   0  0  0  0  0  0  0  0  0  0  0  0
   -4.5929    1.2173    0.0000 O   0  0  0  0  0  0  0  0  0  0  0  0
   -4.0804    4.1269    0.0000 O   0  0  0  0  0  0  0  0  0  0  0  0
   -5.3795    4.8767    0.0000 H   0  0  0  0  0  0  0  0  0  0  0  0
  1  2  1  0  0  0  0 
  1  3  2  0  0  0  0 
  3  4  1  0  0  0  0 
  3  5  1  0  0  0  0 
  5  6  2  0  0  0  0 
  6  7  1  0  0  0  0 
  7  8  2  0  0  0  0 
  1  8  1  0  0  0  0 
  8  9  1  0  0  0  0 
  7 10  1  0  0  0  0 
  6 11  1  0  0  0  0 
  5 12  1  0  0  0  0 
 12 13  2  0  0  0  0 
 13 14  1  0  0  0  0 
 14 15  2  0  0  0  0 
 15 16  1  0  0  0  0 
 16 17  1  0  0  0  0 
 16 18  1  0  0  0  0 
 15 19  1  0  0  0  0 
 19 20  2  0  0  0  0 
 12 20  1  0  0  0  0 
 13 21  1  0  0  0  0 
 21 22  1  0  0  0  0 
 21 23  1  0  0  0  0 
 23 24  2  0  0  0  0 
 23 25  2  0  0  0  0 
 23 26  1  0  0  0  0 
 26 27  1  0  0  0  0 
M  END
> <Rank>
6

> <Priority_score>
0.5

> <Reaction_type>
sulfation_(aniline)

> <Parent_ID>
75

> <Parent_InChI>
InChI=1S/C9H7Cl2N5/c10-5-3-1-2-4(6(5)11)7-8(12)14-9(13)16-15-7/h1-3H,(H4,12,13,14,16)

> <Parent_SMILES>
Nc1nnc(-c2cccc(Cl)c2Cl)c(N)n1

$$$$
Molecule 75_metabolite 7
  CDK     0516241031

 22 23  0  0  0  0  0  0  0  0999 V2000
    1.2996    0.7512    0.0000 C   0  0  0  0  0  0  0  0  0  0  0  0
    2.5989    1.5008    0.0000 H   0  0  0  0  0  0  0  0  0  0  0  0
    1.2989   -0.7496    0.0000 C   0  0  0  0  0  0  0  0  0  0  0  0
    2.5978   -1.4998    0.0000 H   0  0  0  0  0  0  0  0  0  0  0  0
   -0.0007   -1.5002    0.0000 C   0  0  0  0  0  0  0  0  0  0  0  0
   -1.2996   -0.7500    0.0000 C   0  0  0  0  0  0  0  0  0  0  0  0
   -1.2989    0.7508    0.0000 C   0  0  0  0  0  0  0  0  0  0  0  0
    0.0007    1.5015    0.0000 C   0  0  0  0  0  0  0  0  0  0  0  0
    0.0007    3.0015    0.0000 H   0  0  0  0  0  0  0  0  0  0  0  0
   -3.4291    1.9812    0.0000 C   0  0  0  0  0  0  0  0  0  0  0  0
   -4.7291    1.2312    0.0000 N   0  0  0  0  0  0  0  0  0  0  0  0
   -6.0291    1.9812    0.0000 N   0  0  0  0  0  0  0  0  0  0  0  0
   -7.3281    1.2310    0.0000 H   0  0  0  0  0  0  0  0  0  0  0  0
   -6.0291    3.4812    0.0000 C   0  0  0  0  0  0  0  0  0  0  0  0
   -7.3281    4.2314    0.0000 O   0  0  0  0  0  0  0  0  0  0  0  0
   -4.7291    4.2312    0.0000 N   0  0  0  0  0  0  0  0  0  0  0  0
   -3.4291    3.4812    0.0000 C   0  0  0  0  0  0  0  0  0  0  0  0
   -2.1302    4.2314    0.0000 N   0  0  0  0  0  0  0  0  0  0  0  0
   -2.1305    5.7314    0.0000 H   0  0  0  0  0  0  0  0  0  0  0  0
   -0.8311    3.4816    0.0000 H   0  0  0  0  0  0  0  0  0  0  0  0
   -2.5989   -1.4996    0.0000 Cl  0  0  0  0  0  0  0  0  0  0  0  0
   -0.0007   -3.0002    0.0000 Cl  0  0  0  0  0  0  0  0  0  0  0  0
  1  2  1  0  0  0  0 
  1  3  2  0  0  0  0 
  3  4  1  0  0  0  0 
  3  5  1  0  0  0  0 
  5  6  2  0  0  0  0 
  6  7  1  0  0  0  0 
  7  8  2  0  0  0  0 
  1  8  1  0  0  0  0 
  8  9  1  0  0  0  0 
  7 10  1  0  0  0  0 
 10 11  2  0  0  0  0 
 11 12  1  0  0  0  0 
 12 13  1  0  0  0  0 
 12 14  1  0  0  0  0 
 14 15  2  0  0  0  0 
 14 16  1  0  0  0  0 
 16 17  2  0  0  0  0 
 10 17  1  0  0  0  0 
 17 18  1  0  0  0  0 
 18 19  1  0  0  0  0 
 18 20  1  0  0  0  0 
  6 21  1  0  0  0  0 
  5 22  1  0  0  0  0 
M  END
> <Rank>
7

> <Priority_score>
0.468

> <Reaction_type>
oxidative_deamination_(aromatic)

> <Parent_ID>
75

> <Parent_InChI>
InChI=1S/C9H7Cl2N5/c10-5-3-1-2-4(6(5)11)7-8(12)14-9(13)16-15-7/h1-3H,(H4,12,13,14,16)

> <Parent_SMILES>
Nc1nnc(-c2cccc(Cl)c2Cl)c(N)n1

$$$$
Molecule 75_metabolite 8
  CDK     0516241031

 24 25  0  0  0  0  0  0  0  0999 V2000
   -4.7295    4.2324    0.0000 C   0  0  0  0  0  0  0  0  0  0  0  0
   -4.7288    5.7324    0.0000 H   0  0  0  0  0  0  0  0  0  0  0  0
   -3.4302    3.4812    0.0000 C   0  0  0  0  0  0  0  0  0  0  0  0
   -2.1309    4.2308    0.0000 H   0  0  0  0  0  0  0  0  0  0  0  0
   -3.4302    1.9803    0.0000 C   0  0  0  0  0  0  0  0  0  0  0  0
   -4.7295    1.2308    0.0000 C   0  0  0  0  0  0  0  0  0  0  0  0
   -6.0288    1.9820    0.0000 C   0  0  0  0  0  0  0  0  0  0  0  0
   -6.0288    3.4828    0.0000 C   0  0  0  0  0  0  0  0  0  0  0  0
   -7.3277    4.2330    0.0000 H   0  0  0  0  0  0  0  0  0  0  0  0
   -7.3281    1.2324    0.0000 Cl  0  0  0  0  0  0  0  0  0  0  0  0
   -4.7302   -0.2692    0.0000 Cl  0  0  0  0  0  0  0  0  0  0  0  0
   -1.3000    0.7500    0.0000 C   0  0  0  0  0  0  0  0  0  0  0  0
   -1.3000   -0.7500    0.0000 C   0  0  0  0  0  0  0  0  0  0  0  0
   -2.5989   -1.5002    0.0000 N   0  0  0  0  0  0  0  0  0  0  0  0
   -2.5987   -3.0002    0.0000 H   0  0  0  0  0  0  0  0  0  0  0  0
   -3.8981   -0.7504    0.0000 H   0  0  0  0  0  0  0  0  0  0  0  0
    0.0000   -1.5000    0.0000 N   0  0  0  0  0  0  0  0  0  0  0  0
    1.3000   -0.7500    0.0000 C   0  0  0  0  0  0  0  0  0  0  0  0
    2.5989   -1.5002    0.0000 N   0  0  0  0  0  0  0  0  0  0  0  0
    3.8981   -0.7504    0.0000 H   0  0  0  0  0  0  0  0  0  0  0  0
    2.5987   -3.0002    0.0000 H   0  0  0  0  0  0  0  0  0  0  0  0
    1.3000    0.7500    0.0000 N   0  0  0  0  0  0  0  0  0  0  0  0
    0.0000    1.5000    0.0000 N   0  0  0  0  0  0  0  0  0  0  0  0
    2.5989    1.5002    0.0000 O   0  0  0  0  0  0  0  0  0  0  0  0
  1  2  1  0  0  0  0 
  1  3  2  0  0  0  0 
  3  4  1  0  0  0  0 
  3  5  1  0  0  0  0 
  5  6  2  0  0  0  0 
  6  7  1  0  0  0  0 
  7  8  2  0  0  0  0 
  1  8  1  0  0  0  0 
  8  9  1  0  0  0  0 
  7 10  1  0  0  0  0 
  6 11  1  0  0  0  0 
  5 12  1  0  0  0  0 
 12 13  2  0  0  0  0 
 13 14  1  0  0  0  0 
 14 15  1  0  0  0  0 
 14 16  1  0  0  0  0 
 13 17  1  0  0  0  0 
 17 18  2  0  0  0  0 
 18 19  1  0  0  0  0 
 19 20  1  0  0  0  0 
 19 21  1  0  0  0  0 
 18 22  1  0  0  0  0 
 22 23  2  0  0  0  0 
 12 23  1  0  0  0  0 
 22 24  1  0  0  0  0 
M  CHG  1  22   1
M  CHG  1  24  -1
M  END
> <Rank>
7

> <Priority_score>
0.468

> <Reaction_type>
N-oxidation

> <Parent_ID>
75

> <Parent_InChI>
InChI=1S/C9H7Cl2N5/c10-5-3-1-2-4(6(5)11)7-8(12)14-9(13)16-15-7/h1-3H,(H4,12,13,14,16)

> <Parent_SMILES>
Nc1nnc(-c2cccc(Cl)c2Cl)c(N)n1

$$$$
Molecule 75_metabolite 9
  CDK     0516241031

 22 23  0  0  0  0  0  0  0  0999 V2000
    2.2745    2.0636    0.0000 C   0  0  0  0  0  0  0  0  0  0  0  0
    3.5732    1.3130    0.0000 H   0  0  0  0  0  0  0  0  0  0  0  0
    0.9742    1.3140    0.0000 C   0  0  0  0  0  0  0  0  0  0  0  0
    0.9738   -0.1860    0.0000 H   0  0  0  0  0  0  0  0  0  0  0  0
   -0.3255    2.0644    0.0000 C   0  0  0  0  0  0  0  0  0  0  0  0
   -0.3250    3.5644    0.0000 C   0  0  0  0  0  0  0  0  0  0  0  0
    0.9752    4.3140    0.0000 C   0  0  0  0  0  0  0  0  0  0  0  0
    2.2750    3.5636    0.0000 C   0  0  0  0  0  0  0  0  0  0  0  0
    3.5741    4.3134    0.0000 H   0  0  0  0  0  0  0  0  0  0  0  0
    0.9757    5.8140    0.0000 Cl  0  0  0  0  0  0  0  0  0  0  0  0
   -1.6237    4.3151    0.0000 Cl  0  0  0  0  0  0  0  0  0  0  0  0
   -1.6247    1.3146    0.0000 C   0  0  0  0  0  0  0  0  0  0  0  0
   -1.6251   -0.1862    0.0000 N   0  0  0  0  0  0  0  0  0  0  0  0
   -2.9247   -0.9370    0.0000 N   0  0  0  0  0  0  0  0  0  0  0  0
   -4.2237   -0.1870    0.0000 C   0  0  0  0  0  0  0  0  0  0  0  0
   -5.5229   -0.9368    0.0000 N   0  0  0  0  0  0  0  0  0  0  0  0
   -5.5231   -2.4368    0.0000 H   0  0  0  0  0  0  0  0  0  0  0  0
   -6.8218   -0.1866    0.0000 H   0  0  0  0  0  0  0  0  0  0  0  0
   -4.2232    1.3138    0.0000 N   0  0  0  0  0  0  0  0  0  0  0  0
   -5.5223    2.0638    0.0000 H   0  0  0  0  0  0  0  0  0  0  0  0
   -2.9237    2.0646    0.0000 C   0  0  0  0  0  0  0  0  0  0  0  0
   -2.9239    3.5646    0.0000 O   0  0  0  0  0  0  0  0  0  0  0  0
  1  2  1  0  0  0  0 
  1  3  2  0  0  0  0 
  3  4  1  0  0  0  0 
  3  5  1  0  0  0  0 
  5  6  2  0  0  0  0 
  6  7  1  0  0  0  0 
  7  8  2  0  0  0  0 
  1  8  1  0  0  0  0 
  8  9  1  0  0  0  0 
  7 10  1  0  0  0  0 
  6 11  1  0  0  0  0 
  5 12  1  0  0  0  0 
 12 13  2  0  0  0  0 
 13 14  1  0  0  0  0 
 14 15  2  0  0  0  0 
 15 16  1  0  0  0  0 
 16 17  1  0  0  0  0 
 16 18  1  0  0  0  0 
 15 19  1  0  0  0  0 
 19 20  1  0  0  0  0 
 19 21  1  0  0  0  0 
 12 21  1  0  0  0  0 
 21 22  2  0  0  0  0 
M  END
> <Rank>
7

> <Priority_score>
0.468

> <Reaction_type>
oxidative_deamination_(aromatic)

> <Parent_ID>
75

> <Parent_InChI>
InChI=1S/C9H7Cl2N5/c10-5-3-1-2-4(6(5)11)7-8(12)14-9(13)16-15-7/h1-3H,(H4,12,13,14,16)

> <Parent_SMILES>
Nc1nnc(-c2cccc(Cl)c2Cl)c(N)n1

$$$$
Molecule 75_metabolite 10
  CDK     0516241031

 24 25  0  0  0  0  0  0  0  0999 V2000
   -0.0005   -0.7500    0.0000 C   0  0  0  0  0  0  0  0  0  0  0  0
   -1.2998   -1.4996    0.0000 H   0  0  0  0  0  0  0  0  0  0  0  0
    0.0002    0.7508    0.0000 C   0  0  0  0  0  0  0  0  0  0  0  0
    1.2999    1.5015    0.0000 C   0  0  0  0  0  0  0  0  0  0  0  0
    2.5988    0.7512    0.0000 C   0  0  0  0  0  0  0  0  0  0  0  0
    2.5981   -0.7496    0.0000 C   0  0  0  0  0  0  0  0  0  0  0  0
    1.2984   -1.5002    0.0000 C   0  0  0  0  0  0  0  0  0  0  0  0
    1.2984   -3.0002    0.0000 H   0  0  0  0  0  0  0  0  0  0  0  0
    3.8970   -1.4998    0.0000 O   0  0  0  0  0  0  0  0  0  0  0  0
    3.8968   -2.9998    0.0000 H   0  0  0  0  0  0  0  0  0  0  0  0
    3.8981    1.5008    0.0000 Cl  0  0  0  0  0  0  0  0  0  0  0  0
    1.2999    3.0015    0.0000 Cl  0  0  0  0  0  0  0  0  0  0  0  0
   -2.1300    1.9812    0.0000 C   0  0  0  0  0  0  0  0  0  0  0  0
   -3.4300    1.2312    0.0000 N   0  0  0  0  0  0  0  0  0  0  0  0
   -4.7300    1.9812    0.0000 N   0  0  0  0  0  0  0  0  0  0  0  0
   -4.7300    3.4812    0.0000 C   0  0  0  0  0  0  0  0  0  0  0  0
   -6.0289    4.2314    0.0000 N   0  0  0  0  0  0  0  0  0  0  0  0
   -7.3281    3.4816    0.0000 H   0  0  0  0  0  0  0  0  0  0  0  0
   -6.0287    5.7314    0.0000 H   0  0  0  0  0  0  0  0  0  0  0  0
   -3.4300    4.2312    0.0000 N   0  0  0  0  0  0  0  0  0  0  0  0
   -2.1300    3.4812    0.0000 C   0  0  0  0  0  0  0  0  0  0  0  0
   -0.8311    4.2314    0.0000 N   0  0  0  0  0  0  0  0  0  0  0  0
   -0.8313    5.7314    0.0000 H   0  0  0  0  0  0  0  0  0  0  0  0
    0.4681    3.4816    0.0000 H   0  0  0  0  0  0  0  0  0  0  0  0
  1  2  1  0  0  0  0 
  1  3  2  0  0  0  0 
  3  4  1  0  0  0  0 
  4  5  2  0  0  0  0 
  5  6  1  0  0  0  0 
  6  7  2  0  0  0  0 
  1  7  1  0  0  0  0 
  7  8  1  0  0  0  0 
  6  9  1  0  0  0  0 
  9 10  1  0  0  0  0 
  5 11  1  0  0  0  0 
  4 12  1  0  0  0  0 
  3 13  1  0  0  0  0 
 13 14  2  0  0  0  0 
 14 15  1  0  0  0  0 
 15 16  2  0  0  0  0 
 16 17  1  0  0  0  0 
 17 18  1  0  0  0  0 
 17 19  1  0  0  0  0 
 16 20  1  0  0  0  0 
 20 21  2  0  0  0  0 
 13 21  1  0  0  0  0 
 21 22  1  0  0  0  0 
 22 23  1  0  0  0  0 
 22 24  1  0  0  0  0 
M  END
> <Rank>
10

> <Priority_score>
0.46

> <Reaction_type>
aromatic_hydroxylation_(para_to_carbon)

> <Parent_ID>
75

> <Parent_InChI>
InChI=1S/C9H7Cl2N5/c10-5-3-1-2-4(6(5)11)7-8(12)14-9(13)16-15-7/h1-3H,(H4,12,13,14,16)

> <Parent_SMILES>
Nc1nnc(-c2cccc(Cl)c2Cl)c(N)n1

$$$$
Molecule 75_metabolite 11
  CDK     0516241031

 24 25  0  0  0  0  0  0  0  0999 V2000
   -4.0796    1.1261    0.0000 C   0  0  0  0  0  0  0  0  0  0  0  0
   -4.0792    2.6261    0.0000 H   0  0  0  0  0  0  0  0  0  0  0  0
   -2.7802    0.3750    0.0000 C   0  0  0  0  0  0  0  0  0  0  0  0
   -2.7800   -1.1258    0.0000 C   0  0  0  0  0  0  0  0  0  0  0  0
   -4.0792   -1.8756    0.0000 C   0  0  0  0  0  0  0  0  0  0  0  0
   -5.3786   -1.1246    0.0000 C   0  0  0  0  0  0  0  0  0  0  0  0
   -6.6777   -1.8743    0.0000 H   0  0  0  0  0  0  0  0  0  0  0  0
   -5.3788    0.3763    0.0000 C   0  0  0  0  0  0  0  0  0  0  0  0
   -6.6778    1.1263    0.0000 O   0  0  0  0  0  0  0  0  0  0  0  0
   -7.9769    0.3763    0.0000 H   0  0  0  0  0  0  0  0  0  0  0  0
   -4.0796   -3.3756    0.0000 Cl  0  0  0  0  0  0  0  0  0  0  0  0
   -1.4810   -1.8758    0.0000 Cl  0  0  0  0  0  0  0  0  0  0  0  0
   -0.6496    1.6047    0.0000 C   0  0  0  0  0  0  0  0  0  0  0  0
   -0.6491    3.1055    0.0000 N   0  0  0  0  0  0  0  0  0  0  0  0
    0.6504    3.8564    0.0000 N   0  0  0  0  0  0  0  0  0  0  0  0
    1.9494    3.1064    0.0000 C   0  0  0  0  0  0  0  0  0  0  0  0
    3.2486    3.8561    0.0000 N   0  0  0  0  0  0  0  0  0  0  0  0
    3.2488    5.3561    0.0000 H   0  0  0  0  0  0  0  0  0  0  0  0
    4.5475    3.1059    0.0000 H   0  0  0  0  0  0  0  0  0  0  0  0
    1.9489    1.6055    0.0000 N   0  0  0  0  0  0  0  0  0  0  0  0
    0.6494    0.8547    0.0000 C   0  0  0  0  0  0  0  0  0  0  0  0
    0.6497   -0.6453    0.0000 N   0  0  0  0  0  0  0  0  0  0  0  0
    1.9488   -1.3951    0.0000 H   0  0  0  0  0  0  0  0  0  0  0  0
   -0.6493   -1.3955    0.0000 H   0  0  0  0  0  0  0  0  0  0  0  0
  1  2  1  0  0  0  0 
  1  3  2  0  0  0  0 
  3  4  1  0  0  0  0 
  4  5  2  0  0  0  0 
  5  6  1  0  0  0  0 
  6  7  1  0  0  0  0 
  6  8  2  0  0  0  0 
  1  8  1  0  0  0  0 
  8  9  1  0  0  0  0 
  9 10  1  0  0  0  0 
  5 11  1  0  0  0  0 
  4 12  1  0  0  0  0 
  3 13  1  0  0  0  0 
 13 14  2  0  0  0  0 
 14 15  1  0  0  0  0 
 15 16  2  0  0  0  0 
 16 17  1  0  0  0  0 
 17 18  1  0  0  0  0 
 17 19  1  0  0  0  0 
 16 20  1  0  0  0  0 
 20 21  2  0  0  0  0 
 13 21  1  0  0  0  0 
 21 22  1  0  0  0  0 
 22 23  1  0  0  0  0 
 22 24  1  0  0  0  0 
M  END
> <Rank>
10

> <Priority_score>
0.46

> <Reaction_type>
aromatic_hydroxylation_(meta_to_carbon)

> <Parent_ID>
75

> <Parent_InChI>
InChI=1S/C9H7Cl2N5/c10-5-3-1-2-4(6(5)11)7-8(12)14-9(13)16-15-7/h1-3H,(H4,12,13,14,16)

> <Parent_SMILES>
Nc1nnc(-c2cccc(Cl)c2Cl)c(N)n1

$$$$
Molecule 75_metabolite 12
  CDK     0516241031

 44 46  0  0  0  0  0  0  0  0999 V2000
   -0.4541    7.0528    0.0000 C   0  0  0  0  0  0  0  0  0  0  0  0
    0.8453    7.8022    0.0000 H   0  0  0  0  0  0  0  0  0  0  0  0
   -0.4551    5.5520    0.0000 C   0  0  0  0  0  0  0  0  0  0  0  0
    0.8437    4.8016    0.0000 H   0  0  0  0  0  0  0  0  0  0  0  0
   -1.7548    4.8016    0.0000 C   0  0  0  0  0  0  0  0  0  0  0  0
   -3.0536    5.5520    0.0000 C   0  0  0  0  0  0  0  0  0  0  0  0
   -3.0527    7.0528    0.0000 C   0  0  0  0  0  0  0  0  0  0  0  0
   -1.7529    7.8032    0.0000 C   0  0  0  0  0  0  0  0  0  0  0  0
   -1.7527    9.3032    0.0000 H   0  0  0  0  0  0  0  0  0  0  0  0
   -4.3515    7.8032    0.0000 Cl  0  0  0  0  0  0  0  0  0  0  0  0
   -4.3530    4.8026    0.0000 Cl  0  0  0  0  0  0  0  0  0  0  0  0
   -1.7552    2.3416    0.0000 C   0  0  0  0  0  0  0  0  0  0  0  0
   -3.0543    1.5916    0.0000 C   0  0  0  0  0  0  0  0  0  0  0  0
   -4.3534    2.3414    0.0000 N   0  0  0  0  0  0  0  0  0  0  0  0
   -5.6524    1.5912    0.0000 H   0  0  0  0  0  0  0  0  0  0  0  0
   -4.3537    3.8414    0.0000 H   0  0  0  0  0  0  0  0  0  0  0  0
   -3.0538    0.0908    0.0000 N   0  0  0  0  0  0  0  0  0  0  0  0
   -1.7543   -0.6601    0.0000 C   0  0  0  0  0  0  0  0  0  0  0  0
   -1.7545   -2.1601    0.0000 N   0  0  0  0  0  0  0  0  0  0  0  0
   -0.4556   -2.9103    0.0000 H   0  0  0  0  0  0  0  0  0  0  0  0
   -3.0537   -2.9099    0.0000 H   0  0  0  0  0  0  0  0  0  0  0  0
   -0.4552    0.0899    0.0000 N   0  0  0  0  0  0  0  0  0  0  0  0
   -0.4557    1.5908    0.0000 N   0  0  0  0  0  0  0  0  0  0  0  0
    0.8439   -0.6599    0.0000 C   0  0  0  0  0  0  0  0  0  0  0  0
   -0.1200   -1.8092    0.0000 H   0  0  0  0  0  0  0  0  0  0  0  0
    1.8085   -1.8086    0.0000 C   0  0  0  0  0  0  0  0  0  0  0  0
    0.5099   -2.5592    0.0000 H   0  0  0  0  0  0  0  0  0  0  0  0
    3.2864   -1.5469    0.0000 C   0  0  0  0  0  0  0  0  0  0  0  0
    3.2871   -3.0469    0.0000 H   0  0  0  0  0  0  0  0  0  0  0  0
    3.7996   -0.1366    0.0000 C   0  0  0  0  0  0  0  0  0  0  0  0
    5.0988   -0.8864    0.0000 H   0  0  0  0  0  0  0  0  0  0  0  0
    2.8350    1.0121    0.0000 C   0  0  0  0  0  0  0  0  0  0  0  0
    4.1337    1.7627    0.0000 H   0  0  0  0  0  0  0  0  0  0  0  0
    2.3212    2.4214    0.0000 C   0  0  0  0  0  0  0  0  0  0  0  0
    0.8438    2.6810    0.0000 O   0  0  0  0  0  0  0  0  0  0  0  0
    3.2847    3.5710    0.0000 O   0  0  0  0  0  0  0  0  0  0  0  0
    4.7620    3.3114    0.0000 H   0  0  0  0  0  0  0  0  0  0  0  0
    1.3572    0.7505    0.0000 O   0  0  0  0  0  0  0  0  0  0  0  0
    4.7635    1.0127    0.0000 O   0  0  0  0  0  0  0  0  0  0  0  0
    6.2408    0.7527    0.0000 H   0  0  0  0  0  0  0  0  0  0  0  0
    4.7637   -1.8070    0.0000 O   0  0  0  0  0  0  0  0  0  0  0  0
    5.2771   -3.2164    0.0000 H   0  0  0  0  0  0  0  0  0  0  0  0
    2.3224   -3.2178    0.0000 O   0  0  0  0  0  0  0  0  0  0  0  0
    1.3589   -4.3675    0.0000 H   0  0  0  0  0  0  0  0  0  0  0  0
  1  2  1  0  0  0  0 
  1  3  2  0  0  0  0 
  3  4  1  0  0  0  0 
  3  5  1  0  0  0  0 
  5  6  2  0  0  0  0 
  6  7  1  0  0  0  0 
  7  8  2  0  0  0  0 
  1  8  1  0  0  0  0 
  8  9  1  0  0  0  0 
  7 10  1  0  0  0  0 
  6 11  1  0  0  0  0 
  5 12  1  0  0  0  0 
 12 13  2  0  0  0  0 
 13 14  1  0  0  0  0 
 14 15  1  0  0  0  0 
 14 16  1  0  0  0  0 
 13 17  1  0  0  0  0 
 17 18  2  0  0  0  0 
 18 19  1  0  0  0  0 
 19 20  1  0  0  0  0 
 19 21  1  0  0  0  0 
 18 22  1  0  0  0  0 
 22 23  2  0  0  0  0 
 12 23  1  0  0  0  0 
 22 24  1  0  0  0  0 
 24 25  1  0  0  0  0 
 24 26  1  0  0  0  0 
 26 27  1  0  0  0  0 
 26 28  1  0  0  0  0 
 28 29  1  0  0  0  0 
 28 30  1  0  0  0  0 
 30 31  1  0  0  0  0 
 30 32  1  0  0  0  0 
 32 33  1  0  0  0  0 
 32 34  1  0  0  0  0 
 34 35  2  0  0  0  0 
 34 36  1  0  0  0  0 
 36 37  1  0  0  0  0 
 32 38  1  0  0  0  0 
 24 38  1  0  0  0  0 
 30 39  1  0  0  0  0 
 39 40  1  0  0  0  0 
 28 41  1  0  0  0  0 
 41 42  1  0  0  0  0 
 26 43  1  0  0  0  0 
 43 44  1  0  0  0  0 
M  CHG  1  22   1
M  END
> <Rank>
12

> <Priority_score>
0.432

> <Reaction_type>
N-glucuronidation_(aromatic_=n-)

> <Parent_ID>
75

> <Parent_InChI>
InChI=1S/C9H7Cl2N5/c10-5-3-1-2-4(6(5)11)7-8(12)14-9(13)16-15-7/h1-3H,(H4,12,13,14,16)

> <Parent_SMILES>
Nc1nnc(-c2cccc(Cl)c2Cl)c(N)n1

$$$$
Molecule 75_metabolite 13
  CDK     0516241031

 43 45  0  0  0  0  0  0  0  0999 V2000
    8.9932   -0.5635    0.0000 C   0  0  0  0  0  0  0  0  0  0  0  0
    8.9929    0.9365    0.0000 H   0  0  0  0  0  0  0  0  0  0  0  0
    7.6937   -1.3143    0.0000 C   0  0  0  0  0  0  0  0  0  0  0  0
    6.3946   -0.5643    0.0000 H   0  0  0  0  0  0  0  0  0  0  0  0
    7.6932   -2.8151    0.0000 C   0  0  0  0  0  0  0  0  0  0  0  0
    8.9922   -3.5651    0.0000 C   0  0  0  0  0  0  0  0  0  0  0  0
   10.2917   -2.8143    0.0000 C   0  0  0  0  0  0  0  0  0  0  0  0
   10.2922   -1.3135    0.0000 C   0  0  0  0  0  0  0  0  0  0  0  0
   11.5914   -0.5637    0.0000 H   0  0  0  0  0  0  0  0  0  0  0  0
   11.5908   -3.5643    0.0000 Cl  0  0  0  0  0  0  0  0  0  0  0  0
    8.9925   -5.0651    0.0000 Cl  0  0  0  0  0  0  0  0  0  0  0  0
    5.5626   -4.0448    0.0000 C   0  0  0  0  0  0  0  0  0  0  0  0
    5.5621   -5.5448    0.0000 C   0  0  0  0  0  0  0  0  0  0  0  0
    6.8608   -6.2954    0.0000 N   0  0  0  0  0  0  0  0  0  0  0  0
    6.8600   -7.7954    0.0000 H   0  0  0  0  0  0  0  0  0  0  0  0
    8.1602   -5.5460    0.0000 H   0  0  0  0  0  0  0  0  0  0  0  0
    4.2618   -6.2944    0.0000 N   0  0  0  0  0  0  0  0  0  0  0  0
    2.9621   -5.5439    0.0000 C   0  0  0  0  0  0  0  0  0  0  0  0
    1.6629   -6.2937    0.0000 N   0  0  0  0  0  0  0  0  0  0  0  0
    1.6627   -7.7937    0.0000 H   0  0  0  0  0  0  0  0  0  0  0  0
    0.3640   -5.5435    0.0000 C   0  0  0  0  0  0  0  0  0  0  0  0
    1.3282   -4.3945    0.0000 H   0  0  0  0  0  0  0  0  0  0  0  0
   -0.6002   -4.3945    0.0000 C   0  0  0  0  0  0  0  0  0  0  0  0
    0.6987   -3.6443    0.0000 H   0  0  0  0  0  0  0  0  0  0  0  0
   -2.0782   -4.6557    0.0000 C   0  0  0  0  0  0  0  0  0  0  0  0
   -2.0784   -3.1557    0.0000 H   0  0  0  0  0  0  0  0  0  0  0  0
   -2.5919   -6.0659    0.0000 C   0  0  0  0  0  0  0  0  0  0  0  0
   -3.8908   -5.3157    0.0000 H   0  0  0  0  0  0  0  0  0  0  0  0
   -1.6276   -7.2149    0.0000 C   0  0  0  0  0  0  0  0  0  0  0  0
   -2.9265   -7.9651    0.0000 H   0  0  0  0  0  0  0  0  0  0  0  0
   -1.1142   -8.6243    0.0000 C   0  0  0  0  0  0  0  0  0  0  0  0
    0.3631   -8.8844    0.0000 O   0  0  0  0  0  0  0  0  0  0  0  0
   -2.0781   -9.7736    0.0000 O   0  0  0  0  0  0  0  0  0  0  0  0
   -3.5554   -9.5135    0.0000 H   0  0  0  0  0  0  0  0  0  0  0  0
   -0.1497   -6.9537    0.0000 O   0  0  0  0  0  0  0  0  0  0  0  0
   -3.5561   -7.2149    0.0000 O   0  0  0  0  0  0  0  0  0  0  0  0
   -5.0333   -6.9543    0.0000 H   0  0  0  0  0  0  0  0  0  0  0  0
   -3.5554   -4.3951    0.0000 O   0  0  0  0  0  0  0  0  0  0  0  0
   -4.0683   -2.9856    0.0000 H   0  0  0  0  0  0  0  0  0  0  0  0
   -1.1136   -2.9851    0.0000 O   0  0  0  0  0  0  0  0  0  0  0  0
   -0.1498   -1.8358    0.0000 H   0  0  0  0  0  0  0  0  0  0  0  0
    2.9626   -4.0439    0.0000 N   0  0  0  0  0  0  0  0  0  0  0  0
    4.2628   -3.2944    0.0000 N   0  0  0  0  0  0  0  0  0  0  0  0
  1  2  1  0  0  0  0 
  1  3  2  0  0  0  0 
  3  4  1  0  0  0  0 
  3  5  1  0  0  0  0 
  5  6  2  0  0  0  0 
  6  7  1  0  0  0  0 
  7  8  2  0  0  0  0 
  1  8  1  0  0  0  0 
  8  9  1  0  0  0  0 
  7 10  1  0  0  0  0 
  6 11  1  0  0  0  0 
  5 12  1  0  0  0  0 
 12 13  2  0  0  0  0 
 13 14  1  0  0  0  0 
 14 15  1  0  0  0  0 
 14 16  1  0  0  0  0 
 13 17  1  0  0  0  0 
 17 18  2  0  0  0  0 
 18 19  1  0  0  0  0 
 19 20  1  0  0  0  0 
 19 21  1  0  0  0  0 
 21 22  1  0  0  0  0 
 21 23  1  0  0  0  0 
 23 24  1  0  0  0  0 
 23 25  1  0  0  0  0 
 25 26  1  0  0  0  0 
 25 27  1  0  0  0  0 
 27 28  1  0  0  0  0 
 27 29  1  0  0  0  0 
 29 30  1  0  0  0  0 
 29 31  1  0  0  0  0 
 31 32  2  0  0  0  0 
 31 33  1  0  0  0  0 
 33 34  1  0  0  0  0 
 29 35  1  0  0  0  0 
 21 35  1  0  0  0  0 
 27 36  1  0  0  0  0 
 36 37  1  0  0  0  0 
 25 38  1  0  0  0  0 
 38 39  1  0  0  0  0 
 23 40  1  0  0  0  0 
 40 41  1  0  0  0  0 
 18 42  1  0  0  0  0 
 42 43  2  0  0  0  0 
 12 43  1  0  0  0  0 
M  END
> <Rank>
13

> <Priority_score>
0.42

> <Reaction_type>
N-glucuronidation_(aniline)

> <Parent_ID>
75

> <Parent_InChI>
InChI=1S/C9H7Cl2N5/c10-5-3-1-2-4(6(5)11)7-8(12)14-9(13)16-15-7/h1-3H,(H4,12,13,14,16)

> <Parent_SMILES>
Nc1nnc(-c2cccc(Cl)c2Cl)c(N)n1

$$$$
Molecule 75_metabolite 14
  CDK     0516241031

 24 25  0  0  0  0  0  0  0  0999 V2000
   -4.7295    4.2324    0.0000 C   0  0  0  0  0  0  0  0  0  0  0  0
   -4.7288    5.7324    0.0000 H   0  0  0  0  0  0  0  0  0  0  0  0
   -3.4302    3.4812    0.0000 C   0  0  0  0  0  0  0  0  0  0  0  0
   -2.1309    4.2308    0.0000 H   0  0  0  0  0  0  0  0  0  0  0  0
   -3.4302    1.9803    0.0000 C   0  0  0  0  0  0  0  0  0  0  0  0
   -4.7295    1.2308    0.0000 C   0  0  0  0  0  0  0  0  0  0  0  0
   -6.0288    1.9820    0.0000 C   0  0  0  0  0  0  0  0  0  0  0  0
   -6.0288    3.4828    0.0000 C   0  0  0  0  0  0  0  0  0  0  0  0
   -7.3277    4.2330    0.0000 H   0  0  0  0  0  0  0  0  0  0  0  0
   -7.3281    1.2324    0.0000 Cl  0  0  0  0  0  0  0  0  0  0  0  0
   -4.7302   -0.2692    0.0000 Cl  0  0  0  0  0  0  0  0  0  0  0  0
   -1.3000    0.7500    0.0000 C   0  0  0  0  0  0  0  0  0  0  0  0
   -1.3000   -0.7500    0.0000 C   0  0  0  0  0  0  0  0  0  0  0  0
   -2.5989   -1.5002    0.0000 N   0  0  0  0  0  0  0  0  0  0  0  0
   -2.5987   -3.0002    0.0000 H   0  0  0  0  0  0  0  0  0  0  0  0
   -3.8981   -0.7504    0.0000 H   0  0  0  0  0  0  0  0  0  0  0  0
    0.0000   -1.5000    0.0000 N   0  0  0  0  0  0  0  0  0  0  0  0
    1.3000   -0.7500    0.0000 C   0  0  0  0  0  0  0  0  0  0  0  0
    1.3000    0.7500    0.0000 N   0  0  0  0  0  0  0  0  0  0  0  0
    0.0000    1.5000    0.0000 N   0  0  0  0  0  0  0  0  0  0  0  0
    2.5989   -1.5002    0.0000 N   0  0  0  0  0  0  0  0  0  0  0  0
    2.5987   -3.0002    0.0000 H   0  0  0  0  0  0  0  0  0  0  0  0
    3.8981   -0.7504    0.0000 O   0  0  0  0  0  0  0  0  0  0  0  0
    5.1970   -1.5006    0.0000 H   0  0  0  0  0  0  0  0  0  0  0  0
  1  2  1  0  0  0  0 
  1  3  2  0  0  0  0 
  3  4  1  0  0  0  0 
  3  5  1  0  0  0  0 
  5  6  2  0  0  0  0 
  6  7  1  0  0  0  0 
  7  8  2  0  0  0  0 
  1  8  1  0  0  0  0 
  8  9  1  0  0  0  0 
  7 10  1  0  0  0  0 
  6 11  1  0  0  0  0 
  5 12  1  0  0  0  0 
 12 13  2  0  0  0  0 
 13 14  1  0  0  0  0 
 14 15  1  0  0  0  0 
 14 16  1  0  0  0  0 
 13 17  1  0  0  0  0 
 17 18  2  0  0  0  0 
 18 19  1  0  0  0  0 
 19 20  2  0  0  0  0 
 12 20  1  0  0  0  0 
 18 21  1  0  0  0  0 
 21 22  1  0  0  0  0 
 21 23  1  0  0  0  0 
 23 24  1  0  0  0  0 
M  END
> <Rank>
14

> <Priority_score>
0.39969380315917374

> <Reaction_type>
N-oxidation_(aniline)

> <Parent_ID>
75

> <Parent_InChI>
InChI=1S/C9H7Cl2N5/c10-5-3-1-2-4(6(5)11)7-8(12)14-9(13)16-15-7/h1-3H,(H4,12,13,14,16)

> <Parent_SMILES>
Nc1nnc(-c2cccc(Cl)c2Cl)c(N)n1

$$$$
Molecule 75_metabolite 15
  CDK     0516241031

 24 25  0  0  0  0  0  0  0  0999 V2000
   -6.0302    3.4803    0.0000 C   0  0  0  0  0  0  0  0  0  0  0  0
   -7.3291    4.2305    0.0000 H   0  0  0  0  0  0  0  0  0  0  0  0
   -4.7302    4.2303    0.0000 C   0  0  0  0  0  0  0  0  0  0  0  0
   -3.4302    3.4803    0.0000 C   0  0  0  0  0  0  0  0  0  0  0  0
   -3.4302    1.9803    0.0000 C   0  0  0  0  0  0  0  0  0  0  0  0
   -4.7302    1.2303    0.0000 C   0  0  0  0  0  0  0  0  0  0  0  0
   -6.0302    1.9803    0.0000 C   0  0  0  0  0  0  0  0  0  0  0  0
   -7.3291    1.2301    0.0000 H   0  0  0  0  0  0  0  0  0  0  0  0
   -4.7302   -0.2697    0.0000 O   0  0  0  0  0  0  0  0  0  0  0  0
   -6.0293   -1.0197    0.0000 H   0  0  0  0  0  0  0  0  0  0  0  0
   -1.3000    0.7500    0.0000 C   0  0  0  0  0  0  0  0  0  0  0  0
    0.0000    1.5000    0.0000 N   0  0  0  0  0  0  0  0  0  0  0  0
    1.3000    0.7500    0.0000 N   0  0  0  0  0  0  0  0  0  0  0  0
    1.3000   -0.7500    0.0000 C   0  0  0  0  0  0  0  0  0  0  0  0
    2.5989   -1.5002    0.0000 N   0  0  0  0  0  0  0  0  0  0  0  0
    3.8981   -0.7504    0.0000 H   0  0  0  0  0  0  0  0  0  0  0  0
    2.5987   -3.0002    0.0000 H   0  0  0  0  0  0  0  0  0  0  0  0
    0.0000   -1.5000    0.0000 N   0  0  0  0  0  0  0  0  0  0  0  0
   -1.3000   -0.7500    0.0000 C   0  0  0  0  0  0  0  0  0  0  0  0
   -2.5989   -1.5002    0.0000 N   0  0  0  0  0  0  0  0  0  0  0  0
   -2.5987   -3.0002    0.0000 H   0  0  0  0  0  0  0  0  0  0  0  0
   -3.8981   -0.7504    0.0000 H   0  0  0  0  0  0  0  0  0  0  0  0
   -2.1313    4.2305    0.0000 Cl  0  0  0  0  0  0  0  0  0  0  0  0
   -4.7302    5.7303    0.0000 Cl  0  0  0  0  0  0  0  0  0  0  0  0
  1  2  1  0  0  0  0 
  1  3  2  0  0  0  0 
  3  4  1  0  0  0  0 
  4  5  2  0  0  0  0 
  5  6  1  0  0  0  0 
  6  7  2  0  0  0  0 
  1  7  1  0  0  0  0 
  7  8  1  0  0  0  0 
  6  9  1  0  0  0  0 
  9 10  1  0  0  0  0 
  5 11  1  0  0  0  0 
 11 12  2  0  0  0  0 
 12 13  1  0  0  0  0 
 13 14  2  0  0  0  0 
 14 15  1  0  0  0  0 
 15 16  1  0  0  0  0 
 15 17  1  0  0  0  0 
 14 18  1  0  0  0  0 
 18 19  2  0  0  0  0 
 11 19  1  0  0  0  0 
 19 20  1  0  0  0  0 
 20 21  1  0  0  0  0 
 20 22  1  0  0  0  0 
  4 23  1  0  0  0  0 
  3 24  1  0  0  0  0 
M  END
> <Rank>
15

> <Priority_score>
0.34

> <Reaction_type>
aromatic hydroxylation

> <Parent_ID>
75

> <Parent_InChI>
InChI=1S/C9H7Cl2N5/c10-5-3-1-2-4(6(5)11)7-8(12)14-9(13)16-15-7/h1-3H,(H4,12,13,14,16)

> <Parent_SMILES>
Nc1nnc(-c2cccc(Cl)c2Cl)c(N)n1

$$$$
Molecule 75_metabolite 16
  CDK     0516241031

 58 59  0  0  0  0  0  0  0  0999 V2000
  -10.3688   -7.2403    0.0000 C   0  0  0  0  0  0  0  0  0  0  0  0
  -11.6682   -7.9896    0.0000 H   0  0  0  0  0  0  0  0  0  0  0  0
  -10.3678   -5.7394    0.0000 C   0  0  0  0  0  0  0  0  0  0  0  0
  -11.6666   -4.9890    0.0000 H   0  0  0  0  0  0  0  0  0  0  0  0
   -9.0681   -4.9890    0.0000 C   0  0  0  0  0  0  0  0  0  0  0  0
   -7.7693   -5.7394    0.0000 C   0  0  0  0  0  0  0  0  0  0  0  0
   -7.7702   -7.2403    0.0000 C   0  0  0  0  0  0  0  0  0  0  0  0
   -9.0700   -7.9907    0.0000 C   0  0  0  0  0  0  0  0  0  0  0  0
   -9.0702   -9.4907    0.0000 H   0  0  0  0  0  0  0  0  0  0  0  0
   -6.4714   -7.9907    0.0000 Cl  0  0  0  0  0  0  0  0  0  0  0  0
   -6.4699   -4.9901    0.0000 S   0  0  0  0  0  0  0  0  0  0  0  0
   -5.1712   -5.7407    0.0000 C   0  0  0  0  0  0  0  0  0  0  0  0
   -6.1359   -6.8893    0.0000 H   0  0  0  0  0  0  0  0  0  0  0  0
   -4.2076   -6.8902    0.0000 H   0  0  0  0  0  0  0  0  0  0  0  0
   -3.8718   -4.9913    0.0000 C   0  0  0  0  0  0  0  0  0  0  0  0
   -2.9071   -3.8427    0.0000 H   0  0  0  0  0  0  0  0  0  0  0  0
   -4.8354   -3.8418    0.0000 C   0  0  0  0  0  0  0  0  0  0  0  0
   -6.3128   -4.1015    0.0000 O   0  0  0  0  0  0  0  0  0  0  0  0
   -4.3217   -2.4325    0.0000 N   0  0  0  0  0  0  0  0  0  0  0  0
   -2.8444   -2.1727    0.0000 H   0  0  0  0  0  0  0  0  0  0  0  0
   -5.2854   -1.2830    0.0000 C   0  0  0  0  0  0  0  0  0  0  0  0
   -6.2501   -2.4316    0.0000 H   0  0  0  0  0  0  0  0  0  0  0  0
   -6.5840   -0.5323    0.0000 H   0  0  0  0  0  0  0  0  0  0  0  0
   -4.7717    0.1263    0.0000 C   0  0  0  0  0  0  0  0  0  0  0  0
   -3.2943    0.3861    0.0000 O   0  0  0  0  0  0  0  0  0  0  0  0
   -5.7353    1.2759    0.0000 O   0  0  0  0  0  0  0  0  0  0  0  0
   -5.2216    2.6852    0.0000 H   0  0  0  0  0  0  0  0  0  0  0  0
   -2.5731   -5.7419    0.0000 N   0  0  0  0  0  0  0  0  0  0  0  0
   -2.5739   -7.2419    0.0000 H   0  0  0  0  0  0  0  0  0  0  0  0
   -1.2737   -4.9926    0.0000 C   0  0  0  0  0  0  0  0  0  0  0  0
   -1.2730   -3.4926    0.0000 O   0  0  0  0  0  0  0  0  0  0  0  0
    0.0249   -5.7432    0.0000 C   0  0  0  0  0  0  0  0  0  0  0  0
   -0.9398   -6.8918    0.0000 H   0  0  0  0  0  0  0  0  0  0  0  0
    0.9886   -6.8927    0.0000 H   0  0  0  0  0  0  0  0  0  0  0  0
    1.7401   -4.7540    0.0000 C   0  0  0  0  0  0  0  0  0  0  0  0
    2.7049   -3.6054    0.0000 H   0  0  0  0  0  0  0  0  0  0  0  0
    0.7765   -3.6045    0.0000 H   0  0  0  0  0  0  0  0  0  0  0  0
    3.0388   -5.5046    0.0000 C   0  0  0  0  0  0  0  0  0  0  0  0
    2.0741   -6.6532    0.0000 H   0  0  0  0  0  0  0  0  0  0  0  0
    4.3382   -4.7553    0.0000 C   0  0  0  0  0  0  0  0  0  0  0  0
    4.3389   -3.2553    0.0000 O   0  0  0  0  0  0  0  0  0  0  0  0
    5.6369   -5.5059    0.0000 O   0  0  0  0  0  0  0  0  0  0  0  0
    6.9363   -4.7565    0.0000 H   0  0  0  0  0  0  0  0  0  0  0  0
    4.0025   -6.6542    0.0000 N   0  0  0  0  0  0  0  0  0  0  0  0
    5.4798   -6.3944    0.0000 H   0  0  0  0  0  0  0  0  0  0  0  0
    3.4887   -8.0635    0.0000 H   0  0  0  0  0  0  0  0  0  0  0  0
   -9.0677   -2.5290    0.0000 C   0  0  0  0  0  0  0  0  0  0  0  0
  -10.3665   -1.7786    0.0000 C   0  0  0  0  0  0  0  0  0  0  0  0
  -11.6659   -2.5280    0.0000 N   0  0  0  0  0  0  0  0  0  0  0  0
  -11.6666   -4.0280    0.0000 H   0  0  0  0  0  0  0  0  0  0  0  0
  -12.9646   -1.7774    0.0000 H   0  0  0  0  0  0  0  0  0  0  0  0
  -10.3655   -0.2778    0.0000 N   0  0  0  0  0  0  0  0  0  0  0  0
   -9.0658    0.4726    0.0000 C   0  0  0  0  0  0  0  0  0  0  0  0
   -9.0655    1.9726    0.0000 N   0  0  0  0  0  0  0  0  0  0  0  0
   -7.7664    2.7224    0.0000 H   0  0  0  0  0  0  0  0  0  0  0  0
  -10.3644    2.7229    0.0000 H   0  0  0  0  0  0  0  0  0  0  0  0
   -7.7670   -0.2778    0.0000 N   0  0  0  0  0  0  0  0  0  0  0  0
   -7.7679   -1.7786    0.0000 N   0  0  0  0  0  0  0  0  0  0  0  0
  1  2  1  0  0  0  0 
  1  3  2  0  0  0  0 
  3  4  1  0  0  0  0 
  3  5  1  0  0  0  0 
  5  6  2  0  0  0  0 
  6  7  1  0  0  0  0 
  7  8  2  0  0  0  0 
  1  8  1  0  0  0  0 
  8  9  1  0  0  0  0 
  7 10  1  0  0  0  0 
  6 11  1  0  0  0  0 
 11 12  1  0  0  0  0 
 12 13  1  0  0  0  0 
 12 14  1  0  0  0  0 
 12 15  1  0  0  0  0 
 15 16  1  0  0  0  0 
 15 17  1  0  0  0  0 
 17 18  2  0  0  0  0 
 17 19  1  0  0  0  0 
 19 20  1  0  0  0  0 
 19 21  1  0  0  0  0 
 21 22  1  0  0  0  0 
 21 23  1  0  0  0  0 
 21 24  1  0  0  0  0 
 24 25  2  0  0  0  0 
 24 26  1  0  0  0  0 
 26 27  1  0  0  0  0 
 15 28  1  0  0  0  0 
 28 29  1  0  0  0  0 
 28 30  1  0  0  0  0 
 30 31  2  0  0  0  0 
 30 32  1  0  0  0  0 
 32 33  1  0  0  0  0 
 32 34  1  0  0  0  0 
 32 35  1  0  0  0  0 
 35 36  1  0  0  0  0 
 35 37  1  0  0  0  0 
 35 38  1  0  0  0  0 
 38 39  1  0  0  0  0 
 38 40  1  0  0  0  0 
 40 41  2  0  0  0  0 
 40 42  1  0  0  0  0 
 42 43  1  0  0  0  0 
 38 44  1  0  0  0  0 
 44 45  1  0  0  0  0 
 44 46  1  0  0  0  0 
  5 47  1  0  0  0  0 
 47 48  2  0  0  0  0 
 48 49  1  0  0  0  0 
 49 50  1  0  0  0  0 
 49 51  1  0  0  0  0 
 48 52  1  0  0  0  0 
 52 53  2  0  0  0  0 
 53 54  1  0  0  0  0 
 54 55  1  0  0  0  0 
 54 56  1  0  0  0  0 
 53 57  1  0  0  0  0 
 57 58  2  0  0  0  0 
 47 58  1  0  0  0  0 
M  END
> <Rank>
16

> <Priority_score>
0.312

> <Reaction_type>
glutathione_conjugation_(aromatic_nucleophilic_substitution)

> <Parent_ID>
75

> <Parent_InChI>
InChI=1S/C9H7Cl2N5/c10-5-3-1-2-4(6(5)11)7-8(12)14-9(13)16-15-7/h1-3H,(H4,12,13,14,16)

> <Parent_SMILES>
Nc1nnc(-c2cccc(Cl)c2Cl)c(N)n1

$$$$
Molecule 75_metabolite 17
  CDK     0516241031

 24 25  0  0  0  0  0  0  0  0999 V2000
   -4.7295    4.2324    0.0000 C   0  0  0  0  0  0  0  0  0  0  0  0
   -4.7288    5.7324    0.0000 H   0  0  0  0  0  0  0  0  0  0  0  0
   -3.4302    3.4812    0.0000 C   0  0  0  0  0  0  0  0  0  0  0  0
   -2.1309    4.2308    0.0000 H   0  0  0  0  0  0  0  0  0  0  0  0
   -3.4302    1.9803    0.0000 C   0  0  0  0  0  0  0  0  0  0  0  0
   -4.7295    1.2308    0.0000 C   0  0  0  0  0  0  0  0  0  0  0  0
   -6.0288    1.9820    0.0000 C   0  0  0  0  0  0  0  0  0  0  0  0
   -6.0288    3.4828    0.0000 C   0  0  0  0  0  0  0  0  0  0  0  0
   -7.3277    4.2330    0.0000 H   0  0  0  0  0  0  0  0  0  0  0  0
   -7.3281    1.2324    0.0000 Cl  0  0  0  0  0  0  0  0  0  0  0  0
   -4.7302   -0.2692    0.0000 Cl  0  0  0  0  0  0  0  0  0  0  0  0
   -1.3000    0.7500    0.0000 C   0  0  0  0  0  0  0  0  0  0  0  0
   -1.3000   -0.7500    0.0000 C   0  0  0  0  0  0  0  0  0  0  0  0
    0.0000   -1.5000    0.0000 N   0  0  0  0  0  0  0  0  0  0  0  0
    1.3000   -0.7500    0.0000 C   0  0  0  0  0  0  0  0  0  0  0  0
    2.5989   -1.5002    0.0000 N   0  0  0  0  0  0  0  0  0  0  0  0
    3.8981   -0.7504    0.0000 H   0  0  0  0  0  0  0  0  0  0  0  0
    2.5987   -3.0002    0.0000 H   0  0  0  0  0  0  0  0  0  0  0  0
    1.3000    0.7500    0.0000 N   0  0  0  0  0  0  0  0  0  0  0  0
    0.0000    1.5000    0.0000 N   0  0  0  0  0  0  0  0  0  0  0  0
   -2.5989   -1.5002    0.0000 N   0  0  0  0  0  0  0  0  0  0  0  0
   -3.8981   -0.7504    0.0000 H   0  0  0  0  0  0  0  0  0  0  0  0
   -2.5987   -3.0002    0.0000 O   0  0  0  0  0  0  0  0  0  0  0  0
   -3.8976   -3.7504    0.0000 H   0  0  0  0  0  0  0  0  0  0  0  0
  1  2  1  0  0  0  0 
  1  3  2  0  0  0  0 
  3  4  1  0  0  0  0 
  3  5  1  0  0  0  0 
  5  6  2  0  0  0  0 
  6  7  1  0  0  0  0 
  7  8  2  0  0  0  0 
  1  8  1  0  0  0  0 
  8  9  1  0  0  0  0 
  7 10  1  0  0  0  0 
  6 11  1  0  0  0  0 
  5 12  1  0  0  0  0 
 12 13  2  0  0  0  0 
 13 14  1  0  0  0  0 
 14 15  2  0  0  0  0 
 15 16  1  0  0  0  0 
 16 17  1  0  0  0  0 
 16 18  1  0  0  0  0 
 15 19  1  0  0  0  0 
 19 20  2  0  0  0  0 
 12 20  1  0  0  0  0 
 13 21  1  0  0  0  0 
 21 22  1  0  0  0  0 
 21 23  1  0  0  0  0 
 23 24  1  0  0  0  0 
M  END
> <Rank>
17

> <Priority_score>
0.19955763604447047

> <Reaction_type>
N-oxidation_(aniline)

> <Parent_ID>
75

> <Parent_InChI>
InChI=1S/C9H7Cl2N5/c10-5-3-1-2-4(6(5)11)7-8(12)14-9(13)16-15-7/h1-3H,(H4,12,13,14,16)

> <Parent_SMILES>
Nc1nnc(-c2cccc(Cl)c2Cl)c(N)n1

$$$$
Molecule 75_metabolite 18
  CDK     0516241031

 44 46  0  0  0  0  0  0  0  0999 V2000
   -7.3895   -0.6805    0.0000 C   0  0  0  0  0  0  0  0  0  0  0  0
   -8.1389    0.6189    0.0000 H   0  0  0  0  0  0  0  0  0  0  0  0
   -5.8886   -0.6815    0.0000 C   0  0  0  0  0  0  0  0  0  0  0  0
   -5.1382    0.6173    0.0000 H   0  0  0  0  0  0  0  0  0  0  0  0
   -5.1382   -1.9812    0.0000 C   0  0  0  0  0  0  0  0  0  0  0  0
   -5.8886   -3.2800    0.0000 C   0  0  0  0  0  0  0  0  0  0  0  0
   -7.3895   -3.2791    0.0000 C   0  0  0  0  0  0  0  0  0  0  0  0
   -8.1399   -1.9793    0.0000 C   0  0  0  0  0  0  0  0  0  0  0  0
   -9.6399   -1.9791    0.0000 H   0  0  0  0  0  0  0  0  0  0  0  0
   -8.1399   -4.5779    0.0000 Cl  0  0  0  0  0  0  0  0  0  0  0  0
   -5.1393   -4.5794    0.0000 Cl  0  0  0  0  0  0  0  0  0  0  0  0
   -2.6782   -1.9816    0.0000 C   0  0  0  0  0  0  0  0  0  0  0  0
   -1.9282   -3.2807    0.0000 C   0  0  0  0  0  0  0  0  0  0  0  0
   -2.6780   -4.5798    0.0000 N   0  0  0  0  0  0  0  0  0  0  0  0
   -1.9278   -5.8787    0.0000 H   0  0  0  0  0  0  0  0  0  0  0  0
   -4.1780   -4.5801    0.0000 H   0  0  0  0  0  0  0  0  0  0  0  0
   -0.4274   -3.2802    0.0000 N   0  0  0  0  0  0  0  0  0  0  0  0
    0.3234   -1.9807    0.0000 C   0  0  0  0  0  0  0  0  0  0  0  0
    1.8234   -1.9809    0.0000 N   0  0  0  0  0  0  0  0  0  0  0  0
    2.5736   -0.6820    0.0000 H   0  0  0  0  0  0  0  0  0  0  0  0
    2.5732   -3.2801    0.0000 H   0  0  0  0  0  0  0  0  0  0  0  0
   -0.4266   -0.6816    0.0000 N   0  0  0  0  0  0  0  0  0  0  0  0
   -1.9274   -0.6821    0.0000 N   0  0  0  0  0  0  0  0  0  0  0  0
    1.0426   -5.8263    0.0000 C   0  0  0  0  0  0  0  0  0  0  0  0
   -0.3669   -6.3395    0.0000 H   0  0  0  0  0  0  0  0  0  0  0  0
    1.3034   -7.3035    0.0000 C   0  0  0  0  0  0  0  0  0  0  0  0
   -0.1966   -7.3039    0.0000 H   0  0  0  0  0  0  0  0  0  0  0  0
    2.7140   -7.8160    0.0000 C   0  0  0  0  0  0  0  0  0  0  0  0
    1.9644   -9.1153    0.0000 H   0  0  0  0  0  0  0  0  0  0  0  0
    3.8638   -6.8514    0.0000 C   0  0  0  0  0  0  0  0  0  0  0  0
    4.6138   -8.1505    0.0000 H   0  0  0  0  0  0  0  0  0  0  0  0
    3.6030   -5.3743    0.0000 C   0  0  0  0  0  0  0  0  0  0  0  0
    5.1030   -5.3738    0.0000 H   0  0  0  0  0  0  0  0  0  0  0  0
    4.8321   -3.2433    0.0000 C   0  0  0  0  0  0  0  0  0  0  0  0
    3.8254   -0.4811    0.0000 O   0  0  0  0  0  0  0  0  0  0  0  0
    6.3321   -3.2427    0.0000 O   0  0  0  0  0  0  0  0  0  0  0  0
    7.0827   -4.5414    0.0000 H   0  0  0  0  0  0  0  0  0  0  0  0
    2.1924   -4.8617    0.0000 O   0  0  0  0  0  0  0  0  0  0  0  0
    5.2733   -6.3382    0.0000 O   0  0  0  0  0  0  0  0  0  0  0  0
    6.4225   -7.3023    0.0000 H   0  0  0  0  0  0  0  0  0  0  0  0
    3.8632   -8.7801    0.0000 O   0  0  0  0  0  0  0  0  0  0  0  0
    3.6028  -10.2573    0.0000 H   0  0  0  0  0  0  0  0  0  0  0  0
    1.0436   -8.7808    0.0000 O   0  0  0  0  0  0  0  0  0  0  0  0
   -0.3658   -9.2944    0.0000 H   0  0  0  0  0  0  0  0  0  0  0  0
  1  2  1  0  0  0  0 
  1  3  2  0  0  0  0 
  3  4  1  0  0  0  0 
  3  5  1  0  0  0  0 
  5  6  2  0  0  0  0 
  6  7  1  0  0  0  0 
  7  8  2  0  0  0  0 
  1  8  1  0  0  0  0 
  8  9  1  0  0  0  0 
  7 10  1  0  0  0  0 
  6 11  1  0  0  0  0 
  5 12  1  0  0  0  0 
 12 13  2  0  0  0  0 
 13 14  1  0  0  0  0 
 14 15  1  0  0  0  0 
 14 16  1  0  0  0  0 
 13 17  1  0  0  0  0 
 17 18  2  0  0  0  0 
 18 19  1  0  0  0  0 
 19 20  1  0  0  0  0 
 19 21  1  0  0  0  0 
 18 22  1  0  0  0  0 
 22 23  2  0  0  0  0 
 12 23  1  0  0  0  0 
 17 24  1  0  0  0  0 
 24 25  1  0  0  0  0 
 24 26  1  0  0  0  0 
 26 27  1  0  0  0  0 
 26 28  1  0  0  0  0 
 28 29  1  0  0  0  0 
 28 30  1  0  0  0  0 
 30 31  1  0  0  0  0 
 30 32  1  0  0  0  0 
 32 33  1  0  0  0  0 
 32 34  1  0  0  0  0 
 34 35  2  0  0  0  0 
 34 36  1  0  0  0  0 
 36 37  1  0  0  0  0 
 32 38  1  0  0  0  0 
 24 38  1  0  0  0  0 
 30 39  1  0  0  0  0 
 39 40  1  0  0  0  0 
 28 41  1  0  0  0  0 
 41 42  1  0  0  0  0 
 26 43  1  0  0  0  0 
 43 44  1  0  0  0  0 
M  CHG  1  17   1
M  END
> <Rank>
18

> <Priority_score>
0.196

> <Reaction_type>
N-glucuronidation_(aromatic_=n-)

> <Parent_ID>
75

> <Parent_InChI>
InChI=1S/C9H7Cl2N5/c10-5-3-1-2-4(6(5)11)7-8(12)14-9(13)16-15-7/h1-3H,(H4,12,13,14,16)

> <Parent_SMILES>
Nc1nnc(-c2cccc(Cl)c2Cl)c(N)n1

$$$$
Molecule 75_metabolite 19
  CDK     0516241031

 24 25  0  0  0  0  0  0  0  0999 V2000
   -4.7295    4.2324    0.0000 C   0  0  0  0  0  0  0  0  0  0  0  0
   -4.7288    5.7324    0.0000 H   0  0  0  0  0  0  0  0  0  0  0  0
   -3.4302    3.4812    0.0000 C   0  0  0  0  0  0  0  0  0  0  0  0
   -2.1309    4.2308    0.0000 H   0  0  0  0  0  0  0  0  0  0  0  0
   -3.4302    1.9803    0.0000 C   0  0  0  0  0  0  0  0  0  0  0  0
   -4.7295    1.2308    0.0000 C   0  0  0  0  0  0  0  0  0  0  0  0
   -6.0288    1.9820    0.0000 C   0  0  0  0  0  0  0  0  0  0  0  0
   -6.0288    3.4828    0.0000 C   0  0  0  0  0  0  0  0  0  0  0  0
   -7.3277    4.2330    0.0000 H   0  0  0  0  0  0  0  0  0  0  0  0
   -7.3281    1.2324    0.0000 Cl  0  0  0  0  0  0  0  0  0  0  0  0
   -4.7302   -0.2692    0.0000 Cl  0  0  0  0  0  0  0  0  0  0  0  0
   -1.3000    0.7500    0.0000 C   0  0  0  0  0  0  0  0  0  0  0  0
   -1.3000   -0.7500    0.0000 C   0  0  0  0  0  0  0  0  0  0  0  0
   -2.5989   -1.5002    0.0000 N   0  0  0  0  0  0  0  0  0  0  0  0
   -2.5987   -3.0002    0.0000 H   0  0  0  0  0  0  0  0  0  0  0  0
   -3.8981   -0.7504    0.0000 H   0  0  0  0  0  0  0  0  0  0  0  0
    0.0000   -1.5000    0.0000 N   0  0  0  0  0  0  0  0  0  0  0  0
    1.3000   -0.7500    0.0000 C   0  0  0  0  0  0  0  0  0  0  0  0
    2.5989   -1.5002    0.0000 N   0  0  0  0  0  0  0  0  0  0  0  0
    3.8981   -0.7504    0.0000 H   0  0  0  0  0  0  0  0  0  0  0  0
    2.5987   -3.0002    0.0000 H   0  0  0  0  0  0  0  0  0  0  0  0
    1.3000    0.7500    0.0000 N   0  0  0  0  0  0  0  0  0  0  0  0
    0.0000    1.5000    0.0000 N   0  0  0  0  0  0  0  0  0  0  0  0
    0.0000    3.0000    0.0000 O   0  0  0  0  0  0  0  0  0  0  0  0
  1  2  1  0  0  0  0 
  1  3  2  0  0  0  0 
  3  4  1  0  0  0  0 
  3  5  1  0  0  0  0 
  5  6  2  0  0  0  0 
  6  7  1  0  0  0  0 
  7  8  2  0  0  0  0 
  1  8  1  0  0  0  0 
  8  9  1  0  0  0  0 
  7 10  1  0  0  0  0 
  6 11  1  0  0  0  0 
  5 12  1  0  0  0  0 
 12 13  2  0  0  0  0 
 13 14  1  0  0  0  0 
 14 15  1  0  0  0  0 
 14 16  1  0  0  0  0 
 13 17  1  0  0  0  0 
 17 18  2  0  0  0  0 
 18 19  1  0  0  0  0 
 19 20  1  0  0  0  0 
 19 21  1  0  0  0  0 
 18 22  1  0  0  0  0 
 22 23  2  0  0  0  0 
 12 23  1  0  0  0  0 
 23 24  1  0  0  0  0 
M  CHG  1  23   1
M  CHG  1  24  -1
M  END
> <Rank>
19

> <Priority_score>
0.164

> <Reaction_type>
N-oxidation

> <Parent_ID>
75

> <Parent_InChI>
InChI=1S/C9H7Cl2N5/c10-5-3-1-2-4(6(5)11)7-8(12)14-9(13)16-15-7/h1-3H,(H4,12,13,14,16)

> <Parent_SMILES>
Nc1nnc(-c2cccc(Cl)c2Cl)c(N)n1

$$$$
Molecule 75_metabolite 20
  CDK     0516241031

 24 25  0  0  0  0  0  0  0  0999 V2000
   -4.7295    4.2324    0.0000 C   0  0  0  0  0  0  0  0  0  0  0  0
   -4.7288    5.7324    0.0000 H   0  0  0  0  0  0  0  0  0  0  0  0
   -3.4302    3.4812    0.0000 C   0  0  0  0  0  0  0  0  0  0  0  0
   -2.1309    4.2308    0.0000 H   0  0  0  0  0  0  0  0  0  0  0  0
   -3.4302    1.9803    0.0000 C   0  0  0  0  0  0  0  0  0  0  0  0
   -4.7295    1.2308    0.0000 C   0  0  0  0  0  0  0  0  0  0  0  0
   -6.0288    1.9820    0.0000 C   0  0  0  0  0  0  0  0  0  0  0  0
   -6.0288    3.4828    0.0000 C   0  0  0  0  0  0  0  0  0  0  0  0
   -7.3277    4.2330    0.0000 H   0  0  0  0  0  0  0  0  0  0  0  0
   -7.3281    1.2324    0.0000 Cl  0  0  0  0  0  0  0  0  0  0  0  0
   -4.7302   -0.2692    0.0000 Cl  0  0  0  0  0  0  0  0  0  0  0  0
   -1.3000    0.7500    0.0000 C   0  0  0  0  0  0  0  0  0  0  0  0
   -1.3000   -0.7500    0.0000 C   0  0  0  0  0  0  0  0  0  0  0  0
   -2.5989   -1.5002    0.0000 N   0  0  0  0  0  0  0  0  0  0  0  0
   -2.5987   -3.0002    0.0000 H   0  0  0  0  0  0  0  0  0  0  0  0
   -3.8981   -0.7504    0.0000 H   0  0  0  0  0  0  0  0  0  0  0  0
    0.0000   -1.5000    0.0000 N   0  0  0  0  0  0  0  0  0  0  0  0
    1.3000   -0.7500    0.0000 C   0  0  0  0  0  0  0  0  0  0  0  0
    2.5989   -1.5002    0.0000 N   0  0  0  0  0  0  0  0  0  0  0  0
    3.8981   -0.7504    0.0000 H   0  0  0  0  0  0  0  0  0  0  0  0
    2.5987   -3.0002    0.0000 H   0  0  0  0  0  0  0  0  0  0  0  0
    1.3000    0.7500    0.0000 N   0  0  0  0  0  0  0  0  0  0  0  0
    0.0000    1.5000    0.0000 N   0  0  0  0  0  0  0  0  0  0  0  0
   -0.0000   -3.0000    0.0000 O   0  0  0  0  0  0  0  0  0  0  0  0
  1  2  1  0  0  0  0 
  1  3  2  0  0  0  0 
  3  4  1  0  0  0  0 
  3  5  1  0  0  0  0 
  5  6  2  0  0  0  0 
  6  7  1  0  0  0  0 
  7  8  2  0  0  0  0 
  1  8  1  0  0  0  0 
  8  9  1  0  0  0  0 
  7 10  1  0  0  0  0 
  6 11  1  0  0  0  0 
  5 12  1  0  0  0  0 
 12 13  2  0  0  0  0 
 13 14  1  0  0  0  0 
 14 15  1  0  0  0  0 
 14 16  1  0  0  0  0 
 13 17  1  0  0  0  0 
 17 18  2  0  0  0  0 
 18 19  1  0  0  0  0 
 19 20  1  0  0  0  0 
 19 21  1  0  0  0  0 
 18 22  1  0  0  0  0 
 22 23  2  0  0  0  0 
 12 23  1  0  0  0  0 
 17 24  1  0  0  0  0 
M  CHG  1  17   1
M  CHG  1  24  -1
M  END
> <Rank>
20

> <Priority_score>
0.14699467869286498

> <Reaction_type>
N-oxidation_(-N=)

> <Parent_ID>
75

> <Parent_InChI>
InChI=1S/C9H7Cl2N5/c10-5-3-1-2-4(6(5)11)7-8(12)14-9(13)16-15-7/h1-3H,(H4,12,13,14,16)

> <Parent_SMILES>
Nc1nnc(-c2cccc(Cl)c2Cl)c(N)n1

$$$$
Molecule 75_metabolite 21
  CDK     0516241031

 44 46  0  0  0  0  0  0  0  0999 V2000
    3.4827    3.9926    0.0000 C   0  0  0  0  0  0  0  0  0  0  0  0
    3.4819    5.4926    0.0000 H   0  0  0  0  0  0  0  0  0  0  0  0
    2.1834    3.2413    0.0000 C   0  0  0  0  0  0  0  0  0  0  0  0
    0.4683    4.2308    0.0000 H   0  0  0  0  0  0  0  0  0  0  0  0
    2.1834    1.7405    0.0000 C   0  0  0  0  0  0  0  0  0  0  0  0
    3.4827    0.9909    0.0000 C   0  0  0  0  0  0  0  0  0  0  0  0
    4.7819    1.7421    0.0000 C   0  0  0  0  0  0  0  0  0  0  0  0
    4.7819    3.2430    0.0000 C   0  0  0  0  0  0  0  0  0  0  0  0
    6.0809    3.9932    0.0000 H   0  0  0  0  0  0  0  0  0  0  0  0
    6.0812    0.9926    0.0000 Cl  0  0  0  0  0  0  0  0  0  0  0  0
    3.4834   -0.5091    0.0000 Cl  0  0  0  0  0  0  0  0  0  0  0  0
    0.8845    0.9903    0.0000 C   0  0  0  0  0  0  0  0  0  0  0  0
    0.8845   -0.5097    0.0000 C   0  0  0  0  0  0  0  0  0  0  0  0
    3.0147   -1.7401    0.0000 N   0  0  0  0  0  0  0  0  0  0  0  0
    3.0144   -3.2401    0.0000 H   0  0  0  0  0  0  0  0  0  0  0  0
    4.3138   -0.9903    0.0000 H   0  0  0  0  0  0  0  0  0  0  0  0
   -0.4155   -1.2597    0.0000 N   0  0  0  0  0  0  0  0  0  0  0  0
   -1.7155   -0.5097    0.0000 C   0  0  0  0  0  0  0  0  0  0  0  0
   -3.0145   -1.2599    0.0000 N   0  0  0  0  0  0  0  0  0  0  0  0
   -4.3136   -0.5101    0.0000 H   0  0  0  0  0  0  0  0  0  0  0  0
   -3.0142   -2.7599    0.0000 H   0  0  0  0  0  0  0  0  0  0  0  0
   -1.7155    0.9903    0.0000 N   0  0  0  0  0  0  0  0  0  0  0  0
   -0.4155    1.7403    0.0000 N   0  0  0  0  0  0  0  0  0  0  0  0
   -0.4155    3.7203    0.0000 C   0  0  0  0  0  0  0  0  0  0  0  0
    1.0617    3.4600    0.0000 H   0  0  0  0  0  0  0  0  0  0  0  0
    0.0972    5.1299    0.0000 C   0  0  0  0  0  0  0  0  0  0  0  0
    1.3965    4.3803    0.0000 H   0  0  0  0  0  0  0  0  0  0  0  0
   -0.8681    6.2791    0.0000 C   0  0  0  0  0  0  0  0  0  0  0  0
    0.4307    7.0295    0.0000 H   0  0  0  0  0  0  0  0  0  0  0  0
   -2.3462    6.0186    0.0000 C   0  0  0  0  0  0  0  0  0  0  0  0
   -2.3462    7.5186    0.0000 H   0  0  0  0  0  0  0  0  0  0  0  0
   -2.8589    4.6090    0.0000 C   0  0  0  0  0  0  0  0  0  0  0  0
   -4.1582    5.3586    0.0000 H   0  0  0  0  0  0  0  0  0  0  0  0
   -3.8226    3.4595    0.0000 C   0  0  0  0  0  0  0  0  0  0  0  0
   -3.3090    2.0502    0.0000 O   0  0  0  0  0  0  0  0  0  0  0  0
   -5.2999    3.7194    0.0000 O   0  0  0  0  0  0  0  0  0  0  0  0
   -5.8136    5.1287    0.0000 H   0  0  0  0  0  0  0  0  0  0  0  0
   -1.8936    3.4598    0.0000 O   0  0  0  0  0  0  0  0  0  0  0  0
   -3.8234    6.2790    0.0000 O   0  0  0  0  0  0  0  0  0  0  0  0
   -4.3366    7.6884    0.0000 H   0  0  0  0  0  0  0  0  0  0  0  0
   -1.3813    7.6886    0.0000 O   0  0  0  0  0  0  0  0  0  0  0  0
   -0.4173    8.8378    0.0000 H   0  0  0  0  0  0  0  0  0  0  0  0
    1.0609    6.2794    0.0000 O   0  0  0  0  0  0  0  0  0  0  0  0
    2.5382    6.0196    0.0000 H   0  0  0  0  0  0  0  0  0  0  0  0
  1  2  1  0  0  0  0 
  1  3  2  0  0  0  0 
  3  4  1  0  0  0  0 
  3  5  1  0  0  0  0 
  5  6  2  0  0  0  0 
  6  7  1  0  0  0  0 
  7  8  2  0  0  0  0 
  1  8  1  0  0  0  0 
  8  9  1  0  0  0  0 
  7 10  1  0  0  0  0 
  6 11  1  0  0  0  0 
  5 12  1  0  0  0  0 
 12 13  2  0  0  0  0 
 13 14  1  0  0  0  0 
 14 15  1  0  0  0  0 
 14 16  1  0  0  0  0 
 13 17  1  0  0  0  0 
 17 18  2  0  0  0  0 
 18 19  1  0  0  0  0 
 19 20  1  0  0  0  0 
 19 21  1  0  0  0  0 
 18 22  1  0  0  0  0 
 22 23  2  0  0  0  0 
 12 23  1  0  0  0  0 
 23 24  1  0  0  0  0 
 24 25  1  0  0  0  0 
 24 26  1  0  0  0  0 
 26 27  1  0  0  0  0 
 26 28  1  0  0  0  0 
 28 29  1  0  0  0  0 
 28 30  1  0  0  0  0 
 30 31  1  0  0  0  0 
 30 32  1  0  0  0  0 
 32 33  1  0  0  0  0 
 32 34  1  0  0  0  0 
 34 35  2  0  0  0  0 
 34 36  1  0  0  0  0 
 36 37  1  0  0  0  0 
 32 38  1  0  0  0  0 
 24 38  1  0  0  0  0 
 30 39  1  0  0  0  0 
 39 40  1  0  0  0  0 
 28 41  1  0  0  0  0 
 41 42  1  0  0  0  0 
 26 43  1  0  0  0  0 
 43 44  1  0  0  0  0 
M  CHG  1  23   1
M  END
> <Rank>
21

> <Priority_score>
0.096

> <Reaction_type>
N-glucuronidation_(aromatic_=n-)

> <Parent_ID>
75

> <Parent_InChI>
InChI=1S/C9H7Cl2N5/c10-5-3-1-2-4(6(5)11)7-8(12)14-9(13)16-15-7/h1-3H,(H4,12,13,14,16)

> <Parent_SMILES>
Nc1nnc(-c2cccc(Cl)c2Cl)c(N)n1

$$$$
Molecule 75_metabolite 22
  CDK     0516241031

 24 25  0  0  0  0  0  0  0  0999 V2000
   -4.7295    4.2324    0.0000 C   0  0  0  0  0  0  0  0  0  0  0  0
   -4.7288    5.7324    0.0000 H   0  0  0  0  0  0  0  0  0  0  0  0
   -3.4302    3.4812    0.0000 C   0  0  0  0  0  0  0  0  0  0  0  0
   -2.1309    4.2308    0.0000 H   0  0  0  0  0  0  0  0  0  0  0  0
   -3.4302    1.9803    0.0000 C   0  0  0  0  0  0  0  0  0  0  0  0
   -4.7295    1.2308    0.0000 C   0  0  0  0  0  0  0  0  0  0  0  0
   -6.0288    1.9820    0.0000 C   0  0  0  0  0  0  0  0  0  0  0  0
   -6.0288    3.4828    0.0000 C   0  0  0  0  0  0  0  0  0  0  0  0
   -7.3277    4.2330    0.0000 H   0  0  0  0  0  0  0  0  0  0  0  0
   -7.3281    1.2324    0.0000 O   0  0  0  0  0  0  0  0  0  0  0  0
   -8.6269    1.9828    0.0000 H   0  0  0  0  0  0  0  0  0  0  0  0
   -4.7302   -0.2692    0.0000 Cl  0  0  0  0  0  0  0  0  0  0  0  0
   -1.3000    0.7500    0.0000 C   0  0  0  0  0  0  0  0  0  0  0  0
   -1.3000   -0.7500    0.0000 C   0  0  0  0  0  0  0  0  0  0  0  0
   -2.5989   -1.5002    0.0000 N   0  0  0  0  0  0  0  0  0  0  0  0
   -2.5987   -3.0002    0.0000 H   0  0  0  0  0  0  0  0  0  0  0  0
   -3.8981   -0.7504    0.0000 H   0  0  0  0  0  0  0  0  0  0  0  0
    0.0000   -1.5000    0.0000 N   0  0  0  0  0  0  0  0  0  0  0  0
    1.3000   -0.7500    0.0000 C   0  0  0  0  0  0  0  0  0  0  0  0
    2.5989   -1.5002    0.0000 N   0  0  0  0  0  0  0  0  0  0  0  0
    3.8981   -0.7504    0.0000 H   0  0  0  0  0  0  0  0  0  0  0  0
    2.5987   -3.0002    0.0000 H   0  0  0  0  0  0  0  0  0  0  0  0
    1.3000    0.7500    0.0000 N   0  0  0  0  0  0  0  0  0  0  0  0
    0.0000    1.5000    0.0000 N   0  0  0  0  0  0  0  0  0  0  0  0
  1  2  1  0  0  0  0 
  1  3  2  0  0  0  0 
  3  4  1  0  0  0  0 
  3  5  1  0  0  0  0 
  5  6  2  0  0  0  0 
  6  7  1  0  0  0  0 
  7  8  2  0  0  0  0 
  1  8  1  0  0  0  0 
  8  9  1  0  0  0  0 
  7 10  1  0  0  0  0 
 10 11  1  0  0  0  0 
  6 12  1  0  0  0  0 
  5 13  1  0  0  0  0 
 13 14  2  0  0  0  0 
 14 15  1  0  0  0  0 
 15 16  1  0  0  0  0 
 15 17  1  0  0  0  0 
 14 18  1  0  0  0  0 
 18 19  2  0  0  0  0 
 19 20  1  0  0  0  0 
 20 21  1  0  0  0  0 
 20 22  1  0  0  0  0 
 19 23  1  0  0  0  0 
 23 24  2  0  0  0  0 
 13 24  1  0  0  0  0 
M  END
> <Rank>
22

> <Priority_score>
0.0104

> <Reaction_type>
oxidative dehalogenation benzyl

> <Parent_ID>
75

> <Parent_InChI>
InChI=1S/C9H7Cl2N5/c10-5-3-1-2-4(6(5)11)7-8(12)14-9(13)16-15-7/h1-3H,(H4,12,13,14,16)

> <Parent_SMILES>
Nc1nnc(-c2cccc(Cl)c2Cl)c(N)n1

$$$$
Molecule 75_metabolite 23
  CDK     0516241031

 24 25  0  0  0  0  0  0  0  0999 V2000
   -4.7295    4.2324    0.0000 C   0  0  0  0  0  0  0  0  0  0  0  0
   -4.7288    5.7324    0.0000 H   0  0  0  0  0  0  0  0  0  0  0  0
   -3.4302    3.4812    0.0000 C   0  0  0  0  0  0  0  0  0  0  0  0
   -2.1309    4.2308    0.0000 H   0  0  0  0  0  0  0  0  0  0  0  0
   -3.4302    1.9803    0.0000 C   0  0  0  0  0  0  0  0  0  0  0  0
   -4.7295    1.2308    0.0000 C   0  0  0  0  0  0  0  0  0  0  0  0
   -6.0288    1.9820    0.0000 C   0  0  0  0  0  0  0  0  0  0  0  0
   -6.0288    3.4828    0.0000 C   0  0  0  0  0  0  0  0  0  0  0  0
   -7.3277    4.2330    0.0000 H   0  0  0  0  0  0  0  0  0  0  0  0
   -7.3281    1.2324    0.0000 Cl  0  0  0  0  0  0  0  0  0  0  0  0
   -4.7302   -0.2692    0.0000 O   0  0  0  0  0  0  0  0  0  0  0  0
   -6.0296   -1.0186    0.0000 H   0  0  0  0  0  0  0  0  0  0  0  0
   -1.3000    0.7500    0.0000 C   0  0  0  0  0  0  0  0  0  0  0  0
   -1.3000   -0.7500    0.0000 C   0  0  0  0  0  0  0  0  0  0  0  0
   -2.5989   -1.5002    0.0000 N   0  0  0  0  0  0  0  0  0  0  0  0
   -2.5987   -3.0002    0.0000 H   0  0  0  0  0  0  0  0  0  0  0  0
   -3.8981   -0.7504    0.0000 H   0  0  0  0  0  0  0  0  0  0  0  0
    0.0000   -1.5000    0.0000 N   0  0  0  0  0  0  0  0  0  0  0  0
    1.3000   -0.7500    0.0000 C   0  0  0  0  0  0  0  0  0  0  0  0
    2.5989   -1.5002    0.0000 N   0  0  0  0  0  0  0  0  0  0  0  0
    3.8981   -0.7504    0.0000 H   0  0  0  0  0  0  0  0  0  0  0  0
    2.5987   -3.0002    0.0000 H   0  0  0  0  0  0  0  0  0  0  0  0
    1.3000    0.7500    0.0000 N   0  0  0  0  0  0  0  0  0  0  0  0
    0.0000    1.5000    0.0000 N   0  0  0  0  0  0  0  0  0  0  0  0
  1  2  1  0  0  0  0 
  1  3  2  0  0  0  0 
  3  4  1  0  0  0  0 
  3  5  1  0  0  0  0 
  5  6  2  0  0  0  0 
  6  7  1  0  0  0  0 
  7  8  2  0  0  0  0 
  1  8  1  0  0  0  0 
  8  9  1  0  0  0  0 
  7 10  1  0  0  0  0 
  6 11  1  0  0  0  0 
 11 12  1  0  0  0  0 
  5 13  1  0  0  0  0 
 13 14  2  0  0  0  0 
 14 15  1  0  0  0  0 
 15 16  1  0  0  0  0 
 15 17  1  0  0  0  0 
 14 18  1  0  0  0  0 
 18 19  2  0  0  0  0 
 19 20  1  0  0  0  0 
 20 21  1  0  0  0  0 
 20 22  1  0  0  0  0 
 19 23  1  0  0  0  0 
 23 24  2  0  0  0  0 
 13 24  1  0  0  0  0 
M  END
> <Rank>
23

> <Priority_score>
0.009600000000000001

> <Reaction_type>
oxidative dehalogenation benzyl

> <Parent_ID>
75

> <Parent_InChI>
InChI=1S/C9H7Cl2N5/c10-5-3-1-2-4(6(5)11)7-8(12)14-9(13)16-15-7/h1-3H,(H4,12,13,14,16)

> <Parent_SMILES>
Nc1nnc(-c2cccc(Cl)c2Cl)c(N)n1

$$$$
Molecule 76
  CDK     0516241031

 25 27  0  0  0  0  0  0  0  0999 V2000
    2.8876    3.7492    0.0000 C   0  0  0  0  0  0  0  0  0  0  0  0
    2.8871    5.2500    0.0000 C   0  0  0  0  0  0  0  0  0  0  0  0
    1.5876    6.0008    0.0000 C   0  0  0  0  0  0  0  0  0  0  0  0
    0.2886    5.2508    0.0000 C   0  0  0  0  0  0  0  0  0  0  0  0
    0.2890    3.7500    0.0000 C   0  0  0  0  0  0  0  0  0  0  0  0
    1.5886    2.9992    0.0000 C   0  0  0  0  0  0  0  0  0  0  0  0
   -1.0100    3.0000    0.0000 N   0  0  0  0  0  0  0  0  0  0  0  0
   -1.0100    1.5000    0.0000 C   0  0  0  0  0  0  0  0  0  0  0  0
   -2.3100    0.7500    0.0000 C   0  0  0  0  0  0  0  0  0  0  0  0
   -2.3100   -0.7500    0.0000 C   0  0  0  0  0  0  0  0  0  0  0  0
   -1.0100   -1.5000    0.0000 C   0  0  0  0  0  0  0  0  0  0  0  0
    0.2900   -0.7500    0.0000 C   0  0  0  0  0  0  0  0  0  0  0  0
    1.7200   -1.2100    0.0000 C   0  0  0  0  0  0  0  0  0  0  0  0
    2.6000    0.0000    0.0000 N   0  0  0  0  0  0  0  0  0  0  0  0
    1.7200    1.2100    0.0000 C   0  0  0  0  0  0  0  0  0  0  0  0
    0.2900    0.7500    0.0000 N   0  0  0  0  0  0  0  0  0  0  0  0
   -3.6089    1.5002    0.0000 C   0  0  0  0  0  0  0  0  0  0  0  0
   -3.6087    3.0002    0.0000 O   0  0  0  0  0  0  0  0  0  0  0  0
   -4.9081    0.7504    0.0000 N   0  0  0  0  0  0  0  0  0  0  0  0
   -6.2070    1.5006    0.0000 O   0  0  0  0  0  0  0  0  0  0  0  0
   -7.5062    0.7508    0.0000 C   0  0  0  0  0  0  0  0  0  0  0  0
   -8.8051    1.5010    0.0000 C   0  0  0  0  0  0  0  0  0  0  0  0
  -10.1042    0.7512    0.0000 O   0  0  0  0  0  0  0  0  0  0  0  0
   -1.0106    6.0006    0.0000 F   0  0  0  0  0  0  0  0  0  0  0  0
    4.1862    6.0000    0.0000 I   0  0  0  0  0  0  0  0  0  0  0  0
  1  2  2  0  0  0  0 
  2  3  1  0  0  0  0 
  3  4  2  0  0  0  0 
  4  5  1  0  0  0  0 
  5  6  2  0  0  0  0 
  1  6  1  0  0  0  0 
  5  7  1  0  0  0  0 
  7  8  1  0  0  0  0 
  8  9  2  0  0  0  0 
  9 10  1  0  0  0  0 
 10 11  2  0  0  0  0 
 11 12  1  0  0  0  0 
 12 13  2  0  0  0  0 
 13 14  1  0  0  0  0 
 14 15  2  0  0  0  0 
 15 16  1  0  0  0  0 
 12 16  1  0  0  0  0 
  8 16  1  0  0  0  0 
  9 17  1  0  0  0  0 
 17 18  2  0  0  0  0 
 17 19  1  0  0  0  0 
 19 20  1  0  0  0  0 
 20 21  1  0  0  0  0 
 21 22  1  0  0  0  0 
 22 23  1  0  0  0  0 
  4 24  1  0  0  0  0 
  2 25  1  0  0  0  0 
M  END
> <SMILES>
O=C(NOCCO)c1ccc2cncn2c1Nc1ccc(I)cc1F

$$$$
Molecule 76_metabolite 1
  CDK     0516241031

 43 45  0  0  0  0  0  0  0  0999 V2000
   -6.2087  -12.0002    0.0000 C   0  0  0  0  0  0  0  0  0  0  0  0
   -4.9100  -12.7508    0.0000 H   0  0  0  0  0  0  0  0  0  0  0  0
   -7.5089  -12.7498    0.0000 C   0  0  0  0  0  0  0  0  0  0  0  0
   -8.8087  -11.9994    0.0000 C   0  0  0  0  0  0  0  0  0  0  0  0
  -10.1078  -12.7492    0.0000 H   0  0  0  0  0  0  0  0  0  0  0  0
   -8.8082  -10.4994    0.0000 C   0  0  0  0  0  0  0  0  0  0  0  0
   -7.5080   -9.7498    0.0000 C   0  0  0  0  0  0  0  0  0  0  0  0
   -6.2082  -10.5002    0.0000 C   0  0  0  0  0  0  0  0  0  0  0  0
   -4.9090   -9.7504    0.0000 H   0  0  0  0  0  0  0  0  0  0  0  0
   -7.5075   -8.2498    0.0000 N   0  0  0  0  0  0  0  0  0  0  0  0
   -8.8063   -7.4994    0.0000 H   0  0  0  0  0  0  0  0  0  0  0  0
   -5.7924   -7.2603    0.0000 C   0  0  0  0  0  0  0  0  0  0  0  0
   -5.7924   -5.7595    0.0000 C   0  0  0  0  0  0  0  0  0  0  0  0
   -4.4931   -5.0099    0.0000 C   0  0  0  0  0  0  0  0  0  0  0  0
   -4.4924   -3.5099    0.0000 H   0  0  0  0  0  0  0  0  0  0  0  0
   -3.1939   -5.7612    0.0000 C   0  0  0  0  0  0  0  0  0  0  0  0
   -1.8946   -5.0116    0.0000 H   0  0  0  0  0  0  0  0  0  0  0  0
   -3.1939   -7.2620    0.0000 C   0  0  0  0  0  0  0  0  0  0  0  0
   -2.0808   -8.2708    0.0000 C   0  0  0  0  0  0  0  0  0  0  0  0
   -0.6131   -7.9612    0.0000 H   0  0  0  0  0  0  0  0  0  0  0  0
   -2.6892   -9.6377    0.0000 N   0  0  0  0  0  0  0  0  0  0  0  0
   -4.1770   -9.4801    0.0000 C   0  0  0  0  0  0  0  0  0  0  0  0
   -5.1797  -10.5957    0.0000 H   0  0  0  0  0  0  0  0  0  0  0  0
   -4.4931   -8.0116    0.0000 N   0  0  0  0  0  0  0  0  0  0  0  0
   -7.0913   -5.0093    0.0000 C   0  0  0  0  0  0  0  0  0  0  0  0
   -8.3905   -5.7591    0.0000 O   0  0  0  0  0  0  0  0  0  0  0  0
   -7.0911   -3.5093    0.0000 N   0  0  0  0  0  0  0  0  0  0  0  0
   -5.7919   -2.7595    0.0000 H   0  0  0  0  0  0  0  0  0  0  0  0
   -8.3900   -2.7591    0.0000 O   0  0  0  0  0  0  0  0  0  0  0  0
   -8.3898   -1.2591    0.0000 C   0  0  0  0  0  0  0  0  0  0  0  0
   -7.8765    0.1504    0.0000 H   0  0  0  0  0  0  0  0  0  0  0  0
   -6.9126   -1.5198    0.0000 H   0  0  0  0  0  0  0  0  0  0  0  0
   -9.6887   -0.5089    0.0000 C   0  0  0  0  0  0  0  0  0  0  0  0
  -10.2020   -1.9183    0.0000 H   0  0  0  0  0  0  0  0  0  0  0  0
  -11.1659   -0.2482    0.0000 H   0  0  0  0  0  0  0  0  0  0  0  0
   -9.6885    0.9911    0.0000 O   0  0  0  0  0  0  0  0  0  0  0  0
  -10.9874    1.7413    0.0000 S   0  0  0  0  0  0  0  0  0  0  0  0
  -10.0230    2.8902    0.0000 O   0  0  0  0  0  0  0  0  0  0  0  0
  -11.9514    2.8905    0.0000 O   0  0  0  0  0  0  0  0  0  0  0  0
  -12.2865    0.9915    0.0000 O   0  0  0  0  0  0  0  0  0  0  0  0
  -13.5855    1.7417    0.0000 H   0  0  0  0  0  0  0  0  0  0  0  0
  -10.1069   -9.7488    0.0000 F   0  0  0  0  0  0  0  0  0  0  0  0
   -7.5094  -14.2498    0.0000 I   0  0  0  0  0  0  0  0  0  0  0  0
  1  2  1  0  0  0  0 
  1  3  2  0  0  0  0 
  3  4  1  0  0  0  0 
  4  5  1  0  0  0  0 
  4  6  2  0  0  0  0 
  6  7  1  0  0  0  0 
  7  8  2  0  0  0  0 
  1  8  1  0  0  0  0 
  8  9  1  0  0  0  0 
  7 10  1  0  0  0  0 
 10 11  1  0  0  0  0 
 10 12  1  0  0  0  0 
 12 13  2  0  0  0  0 
 13 14  1  0  0  0  0 
 14 15  1  0  0  0  0 
 14 16  2  0  0  0  0 
 16 17  1  0  0  0  0 
 16 18  1  0  0  0  0 
 18 19  2  0  0  0  0 
 19 20  1  0  0  0  0 
 19 21  1  0  0  0  0 
 21 22  2  0  0  0  0 
 22 23  1  0  0  0  0 
 22 24  1  0  0  0  0 
 18 24  1  0  0  0  0 
 12 24  1  0  0  0  0 
 13 25  1  0  0  0  0 
 25 26  2  0  0  0  0 
 25 27  1  0  0  0  0 
 27 28  1  0  0  0  0 
 27 29  1  0  0  0  0 
 29 30  1  0  0  0  0 
 30 31  1  0  0  0  0 
 30 32  1  0  0  0  0 
 30 33  1  0  0  0  0 
 33 34  1  0  0  0  0 
 33 35  1  0  0  0  0 
 33 36  1  0  0  0  0 
 36 37  1  0  0  0  0 
 37 38  2  0  0  0  0 
 37 39  2  0  0  0  0 
 37 40  1  0  0  0  0 
 40 41  1  0  0  0  0 
  6 42  1  0  0  0  0 
  3 43  1  0  0  0  0 
M  END
> <Rank>
1

> <Priority_score>
0.984

> <Reaction_type>
sulfation_(aliphatic_hydroxyl)

> <Parent_ID>
76

> <Parent_InChI>
InChI=1S/C16H14FIN4O3/c17-13-7-10(18)1-4-14(13)20-15-12(16(24)21-25-6-5-23)3-2-11-8-19-9-22(11)15/h1-4,7-9,20,23H,5-6H2,(H,21,24)

> <Parent_SMILES>
O=C(NOCCO)c1ccc2cncn2c1Nc1ccc(I)cc1F

$$$$
Molecule 76_metabolite 2
  CDK     0516241031

 59 62  0  0  0  0  0  0  0  0999 V2000
    3.7758    3.9045    0.0000 C   0  0  0  0  0  0  0  0  0  0  0  0
    5.0750    3.1547    0.0000 H   0  0  0  0  0  0  0  0  0  0  0  0
    3.7753    5.4054    0.0000 C   0  0  0  0  0  0  0  0  0  0  0  0
    2.4758    6.1562    0.0000 C   0  0  0  0  0  0  0  0  0  0  0  0
    2.4761    7.6562    0.0000 H   0  0  0  0  0  0  0  0  0  0  0  0
    1.1768    5.4062    0.0000 C   0  0  0  0  0  0  0  0  0  0  0  0
    1.1773    3.9054    0.0000 C   0  0  0  0  0  0  0  0  0  0  0  0
    2.4768    3.1545    0.0000 C   0  0  0  0  0  0  0  0  0  0  0  0
    2.4765    1.6545    0.0000 H   0  0  0  0  0  0  0  0  0  0  0  0
   -0.1218    3.1554    0.0000 N   0  0  0  0  0  0  0  0  0  0  0  0
   -1.4208    3.9054    0.0000 H   0  0  0  0  0  0  0  0  0  0  0  0
   -0.1218    1.1754    0.0000 C   0  0  0  0  0  0  0  0  0  0  0  0
   -1.4218    0.4254    0.0000 C   0  0  0  0  0  0  0  0  0  0  0  0
   -1.4218   -1.0746    0.0000 C   0  0  0  0  0  0  0  0  0  0  0  0
   -2.7207   -1.8248    0.0000 H   0  0  0  0  0  0  0  0  0  0  0  0
   -0.1218   -1.8246    0.0000 C   0  0  0  0  0  0  0  0  0  0  0  0
   -0.1218   -3.3246    0.0000 H   0  0  0  0  0  0  0  0  0  0  0  0
    1.1782   -1.0746    0.0000 C   0  0  0  0  0  0  0  0  0  0  0  0
    2.6082   -1.5346    0.0000 C   0  0  0  0  0  0  0  0  0  0  0  0
    3.0735   -2.9606    0.0000 H   0  0  0  0  0  0  0  0  0  0  0  0
    3.4882   -0.3246    0.0000 N   0  0  0  0  0  0  0  0  0  0  0  0
    2.6082    0.8854    0.0000 C   0  0  0  0  0  0  0  0  0  0  0  0
    3.7242    1.8877    0.0000 H   0  0  0  0  0  0  0  0  0  0  0  0
    1.1782    0.4254    0.0000 N   0  0  0  0  0  0  0  0  0  0  0  0
   -2.7207    1.1756    0.0000 C   0  0  0  0  0  0  0  0  0  0  0  0
   -2.7205    2.6756    0.0000 O   0  0  0  0  0  0  0  0  0  0  0  0
   -4.0199    0.4258    0.0000 N   0  0  0  0  0  0  0  0  0  0  0  0
   -4.0201   -1.0742    0.0000 H   0  0  0  0  0  0  0  0  0  0  0  0
   -5.3188    1.1760    0.0000 O   0  0  0  0  0  0  0  0  0  0  0  0
   -6.6179    0.4262    0.0000 C   0  0  0  0  0  0  0  0  0  0  0  0
   -7.5823   -0.7227    0.0000 H   0  0  0  0  0  0  0  0  0  0  0  0
   -5.6539   -0.7230    0.0000 H   0  0  0  0  0  0  0  0  0  0  0  0
   -7.9168    1.1764    0.0000 C   0  0  0  0  0  0  0  0  0  0  0  0
   -6.9525    2.3253    0.0000 H   0  0  0  0  0  0  0  0  0  0  0  0
   -8.8808    2.3256    0.0000 H   0  0  0  0  0  0  0  0  0  0  0  0
   -9.6317    0.1867    0.0000 O   0  0  0  0  0  0  0  0  0  0  0  0
  -10.9307    0.9369    0.0000 C   0  0  0  0  0  0  0  0  0  0  0  0
   -9.9689    2.0880    0.0000 H   0  0  0  0  0  0  0  0  0  0  0  0
  -11.4437   -0.4620    0.0000 C   0  0  0  0  0  0  0  0  0  0  0  0
  -11.4486   -1.9620    0.0000 H   0  0  0  0  0  0  0  0  0  0  0  0
  -12.9447   -0.7210    0.0000 C   0  0  0  0  0  0  0  0  0  0  0  0
  -14.2486   -1.4626    0.0000 H   0  0  0  0  0  0  0  0  0  0  0  0
  -13.9035    0.4402    0.0000 C   0  0  0  0  0  0  0  0  0  0  0  0
  -15.1993    1.1957    0.0000 H   0  0  0  0  0  0  0  0  0  0  0  0
  -13.3904    1.8390    0.0000 C   0  0  0  0  0  0  0  0  0  0  0  0
  -13.3864    3.3390    0.0000 H   0  0  0  0  0  0  0  0  0  0  0  0
  -15.3395    2.1879    0.0000 C   0  0  0  0  0  0  0  0  0  0  0  0
  -15.8489    3.5987    0.0000 O   0  0  0  0  0  0  0  0  0  0  0  0
  -16.3066    1.0413    0.0000 O   0  0  0  0  0  0  0  0  0  0  0  0
  -17.7831    1.3056    0.0000 H   0  0  0  0  0  0  0  0  0  0  0  0
  -11.9117    2.0955    0.0000 O   0  0  0  0  0  0  0  0  0  0  0  0
  -14.8746   -0.7030    0.0000 O   0  0  0  0  0  0  0  0  0  0  0  0
  -16.3502   -0.4336    0.0000 H   0  0  0  0  0  0  0  0  0  0  0  0
  -12.4388   -2.1331    0.0000 O   0  0  0  0  0  0  0  0  0  0  0  0
  -13.4088   -3.2773    0.0000 H   0  0  0  0  0  0  0  0  0  0  0  0
   -9.9672   -0.7267    0.0000 O   0  0  0  0  0  0  0  0  0  0  0  0
   -9.4583   -2.1377    0.0000 H   0  0  0  0  0  0  0  0  0  0  0  0
   -0.1224    6.1560    0.0000 F   0  0  0  0  0  0  0  0  0  0  0  0
    5.0744    6.1554    0.0000 I   0  0  0  0  0  0  0  0  0  0  0  0
  1  2  1  0  0  0  0 
  1  3  2  0  0  0  0 
  3  4  1  0  0  0  0 
  4  5  1  0  0  0  0 
  4  6  2  0  0  0  0 
  6  7  1  0  0  0  0 
  7  8  2  0  0  0  0 
  1  8  1  0  0  0  0 
  8  9  1  0  0  0  0 
  7 10  1  0  0  0  0 
 10 11  1  0  0  0  0 
 10 12  1  0  0  0  0 
 12 13  2  0  0  0  0 
 13 14  1  0  0  0  0 
 14 15  1  0  0  0  0 
 14 16  2  0  0  0  0 
 16 17  1  0  0  0  0 
 16 18  1  0  0  0  0 
 18 19  2  0  0  0  0 
 19 20  1  0  0  0  0 
 19 21  1  0  0  0  0 
 21 22  2  0  0  0  0 
 22 23  1  0  0  0  0 
 22 24  1  0  0  0  0 
 18 24  1  0  0  0  0 
 12 24  1  0  0  0  0 
 13 25  1  0  0  0  0 
 25 26  2  0  0  0  0 
 25 27  1  0  0  0  0 
 27 28  1  0  0  0  0 
 27 29  1  0  0  0  0 
 29 30  1  0  0  0  0 
 30 31  1  0  0  0  0 
 30 32  1  0  0  0  0 
 30 33  1  0  0  0  0 
 33 34  1  0  0  0  0 
 33 35  1  0  0  0  0 
 33 36  1  0  0  0  0 
 36 37  1  0  0  0  0 
 37 38  1  0  0  0  0 
 37 39  1  0  0  0  0 
 39 40  1  0  0  0  0 
 39 41  1  0  0  0  0 
 41 42  1  0  0  0  0 
 41 43  1  0  0  0  0 
 43 44  1  0  0  0  0 
 43 45  1  0  0  0  0 
 45 46  1  0  0  0  0 
 45 47  1  0  0  0  0 
 47 48  2  0  0  0  0 
 47 49  1  0  0  0  0 
 49 50  1  0  0  0  0 
 45 51  1  0  0  0  0 
 37 51  1  0  0  0  0 
 43 52  1  0  0  0  0 
 52 53  1  0  0  0  0 
 41 54  1  0  0  0  0 
 54 55  1  0  0  0  0 
 39 56  1  0  0  0  0 
 56 57  1  0  0  0  0 
  6 58  1  0  0  0  0 
  3 59  1  0  0  0  0 
M  END
> <Rank>
2

> <Priority_score>
0.7511958968618402

> <Reaction_type>
O-glucuronidation_(aliphatic_hydroxyl)

> <Parent_ID>
76

> <Parent_InChI>
InChI=1S/C16H14FIN4O3/c17-13-7-10(18)1-4-14(13)20-15-12(16(24)21-25-6-5-23)3-2-11-8-19-9-22(11)15/h1-4,7-9,20,23H,5-6H2,(H,21,24)

> <Parent_SMILES>
O=C(NOCCO)c1ccc2cncn2c1Nc1ccc(I)cc1F

$$$$
Molecule 76_metabolite 3
  CDK     0516241031

 38 40  0  0  0  0  0  0  0  0999 V2000
    2.8876    3.7492    0.0000 C   0  0  0  0  0  0  0  0  0  0  0  0
    4.1868    2.9994    0.0000 H   0  0  0  0  0  0  0  0  0  0  0  0
    2.8871    5.2500    0.0000 C   0  0  0  0  0  0  0  0  0  0  0  0
    1.5876    6.0008    0.0000 C   0  0  0  0  0  0  0  0  0  0  0  0
    1.5878    7.5008    0.0000 H   0  0  0  0  0  0  0  0  0  0  0  0
    0.2886    5.2508    0.0000 C   0  0  0  0  0  0  0  0  0  0  0  0
    0.2890    3.7500    0.0000 C   0  0  0  0  0  0  0  0  0  0  0  0
    1.5886    2.9992    0.0000 C   0  0  0  0  0  0  0  0  0  0  0  0
    1.5883    1.4992    0.0000 H   0  0  0  0  0  0  0  0  0  0  0  0
   -1.0100    3.0000    0.0000 N   0  0  0  0  0  0  0  0  0  0  0  0
   -2.3090    3.7500    0.0000 H   0  0  0  0  0  0  0  0  0  0  0  0
   -1.0100    1.0200    0.0000 C   0  0  0  0  0  0  0  0  0  0  0  0
   -2.3100    0.2700    0.0000 C   0  0  0  0  0  0  0  0  0  0  0  0
   -2.3100   -1.2300    0.0000 C   0  0  0  0  0  0  0  0  0  0  0  0
   -3.6089   -1.9802    0.0000 H   0  0  0  0  0  0  0  0  0  0  0  0
   -1.0100   -1.9800    0.0000 C   0  0  0  0  0  0  0  0  0  0  0  0
   -1.0100   -3.4800    0.0000 H   0  0  0  0  0  0  0  0  0  0  0  0
    0.2900   -1.2300    0.0000 C   0  0  0  0  0  0  0  0  0  0  0  0
    1.7200   -1.6900    0.0000 C   0  0  0  0  0  0  0  0  0  0  0  0
    2.1853   -3.1160    0.0000 H   0  0  0  0  0  0  0  0  0  0  0  0
    2.6000   -0.4800    0.0000 N   0  0  0  0  0  0  0  0  0  0  0  0
    1.7200    0.7300    0.0000 C   0  0  0  0  0  0  0  0  0  0  0  0
    2.6449    1.9109    0.0000 H   0  0  0  0  0  0  0  0  0  0  0  0
    0.2900    0.2700    0.0000 N   0  0  0  0  0  0  0  0  0  0  0  0
   -3.6089    1.0202    0.0000 C   0  0  0  0  0  0  0  0  0  0  0  0
   -3.6087    2.5202    0.0000 O   0  0  0  0  0  0  0  0  0  0  0  0
   -4.9081    0.2704    0.0000 N   0  0  0  0  0  0  0  0  0  0  0  0
   -4.9083   -1.2296    0.0000 H   0  0  0  0  0  0  0  0  0  0  0  0
   -6.2070    1.0206    0.0000 O   0  0  0  0  0  0  0  0  0  0  0  0
   -7.5062    0.2708    0.0000 C   0  0  0  0  0  0  0  0  0  0  0  0
   -8.4705   -0.8781    0.0000 H   0  0  0  0  0  0  0  0  0  0  0  0
   -6.5422   -0.8784    0.0000 H   0  0  0  0  0  0  0  0  0  0  0  0
   -8.8051    1.0210    0.0000 C   0  0  0  0  0  0  0  0  0  0  0  0
   -8.8048    2.5210    0.0000 O   0  0  0  0  0  0  0  0  0  0  0  0
  -10.1042    0.2712    0.0000 O   0  0  0  0  0  0  0  0  0  0  0  0
  -11.4031    1.0215    0.0000 H   0  0  0  0  0  0  0  0  0  0  0  0
   -1.0106    6.0006    0.0000 F   0  0  0  0  0  0  0  0  0  0  0  0
    4.1862    6.0000    0.0000 I   0  0  0  0  0  0  0  0  0  0  0  0
  1  2  1  0  0  0  0 
  1  3  2  0  0  0  0 
  3  4  1  0  0  0  0 
  4  5  1  0  0  0  0 
  4  6  2  0  0  0  0 
  6  7  1  0  0  0  0 
  7  8  2  0  0  0  0 
  1  8  1  0  0  0  0 
  8  9  1  0  0  0  0 
  7 10  1  0  0  0  0 
 10 11  1  0  0  0  0 
 10 12  1  0  0  0  0 
 12 13  2  0  0  0  0 
 13 14  1  0  0  0  0 
 14 15  1  0  0  0  0 
 14 16  2  0  0  0  0 
 16 17  1  0  0  0  0 
 16 18  1  0  0  0  0 
 18 19  2  0  0  0  0 
 19 20  1  0  0  0  0 
 19 21  1  0  0  0  0 
 21 22  2  0  0  0  0 
 22 23  1  0  0  0  0 
 22 24  1  0  0  0  0 
 18 24  1  0  0  0  0 
 12 24  1  0  0  0  0 
 13 25  1  0  0  0  0 
 25 26  2  0  0  0  0 
 25 27  1  0  0  0  0 
 27 28  1  0  0  0  0 
 27 29  1  0  0  0  0 
 29 30  1  0  0  0  0 
 30 31  1  0  0  0  0 
 30 32  1  0  0  0  0 
 30 33  1  0  0  0  0 
 33 34  2  0  0  0  0 
 33 35  1  0  0  0  0 
 35 36  1  0  0  0  0 
  6 37  1  0  0  0  0 
  3 38  1  0  0  0  0 
M  END
> <Rank>
3

> <Priority_score>
0.64

> <Reaction_type>
primary_alcohol_oxidation_(aliphatic)

> <Parent_ID>
76

> <Parent_InChI>
InChI=1S/C16H14FIN4O3/c17-13-7-10(18)1-4-14(13)20-15-12(16(24)21-25-6-5-23)3-2-11-8-19-9-22(11)15/h1-4,7-9,20,23H,5-6H2,(H,21,24)

> <Parent_SMILES>
O=C(NOCCO)c1ccc2cncn2c1Nc1ccc(I)cc1F

$$$$
Molecule 76_metabolite 4
  CDK     0516241031

 40 42  0  0  0  0  0  0  0  0999 V2000
    2.8876    3.7492    0.0000 C   0  0  0  0  0  0  0  0  0  0  0  0
    4.1868    2.9994    0.0000 H   0  0  0  0  0  0  0  0  0  0  0  0
    2.8871    5.2500    0.0000 C   0  0  0  0  0  0  0  0  0  0  0  0
    1.5876    6.0008    0.0000 C   0  0  0  0  0  0  0  0  0  0  0  0
    1.5878    7.5008    0.0000 H   0  0  0  0  0  0  0  0  0  0  0  0
    0.2886    5.2508    0.0000 C   0  0  0  0  0  0  0  0  0  0  0  0
    0.2890    3.7500    0.0000 C   0  0  0  0  0  0  0  0  0  0  0  0
    1.5886    2.9992    0.0000 C   0  0  0  0  0  0  0  0  0  0  0  0
    1.5883    1.4992    0.0000 H   0  0  0  0  0  0  0  0  0  0  0  0
   -1.0100    3.0000    0.0000 N   0  0  0  0  0  0  0  0  0  0  0  0
   -2.3090    3.7500    0.0000 H   0  0  0  0  0  0  0  0  0  0  0  0
   -1.0100    1.0200    0.0000 C   0  0  0  0  0  0  0  0  0  0  0  0
   -2.3100    0.2700    0.0000 C   0  0  0  0  0  0  0  0  0  0  0  0
   -2.3100   -1.2300    0.0000 C   0  0  0  0  0  0  0  0  0  0  0  0
   -3.6089   -1.9802    0.0000 H   0  0  0  0  0  0  0  0  0  0  0  0
   -1.0100   -1.9800    0.0000 C   0  0  0  0  0  0  0  0  0  0  0  0
   -1.0100   -3.4800    0.0000 H   0  0  0  0  0  0  0  0  0  0  0  0
    0.2900   -1.2300    0.0000 C   0  0  0  0  0  0  0  0  0  0  0  0
    1.7200   -1.6900    0.0000 C   0  0  0  0  0  0  0  0  0  0  0  0
    2.1853   -3.1160    0.0000 H   0  0  0  0  0  0  0  0  0  0  0  0
    2.6000   -0.4800    0.0000 N   0  0  0  0  0  0  0  0  0  0  0  0
    1.7200    0.7300    0.0000 C   0  0  0  0  0  0  0  0  0  0  0  0
    2.6449    1.9109    0.0000 H   0  0  0  0  0  0  0  0  0  0  0  0
    0.2900    0.2700    0.0000 N   0  0  0  0  0  0  0  0  0  0  0  0
   -3.6089    1.0202    0.0000 C   0  0  0  0  0  0  0  0  0  0  0  0
   -3.6087    2.5202    0.0000 O   0  0  0  0  0  0  0  0  0  0  0  0
   -4.9081    0.2704    0.0000 N   0  0  0  0  0  0  0  0  0  0  0  0
   -4.9083   -1.2296    0.0000 H   0  0  0  0  0  0  0  0  0  0  0  0
   -6.2070    1.0206    0.0000 O   0  0  0  0  0  0  0  0  0  0  0  0
   -7.5062    0.2708    0.0000 C   0  0  0  0  0  0  0  0  0  0  0  0
   -8.4705   -0.8781    0.0000 H   0  0  0  0  0  0  0  0  0  0  0  0
   -8.8051    1.0210    0.0000 C   0  0  0  0  0  0  0  0  0  0  0  0
   -7.8407    2.1700    0.0000 H   0  0  0  0  0  0  0  0  0  0  0  0
   -9.7691    2.1703    0.0000 H   0  0  0  0  0  0  0  0  0  0  0  0
  -10.1042    0.2712    0.0000 O   0  0  0  0  0  0  0  0  0  0  0  0
  -11.4031    1.0215    0.0000 H   0  0  0  0  0  0  0  0  0  0  0  0
   -6.5422   -0.8784    0.0000 O   0  0  0  0  0  0  0  0  0  0  0  0
   -7.0554   -2.2878    0.0000 H   0  0  0  0  0  0  0  0  0  0  0  0
   -1.0106    6.0006    0.0000 F   0  0  0  0  0  0  0  0  0  0  0  0
    4.1862    6.0000    0.0000 I   0  0  0  0  0  0  0  0  0  0  0  0
  1  2  1  0  0  0  0 
  1  3  2  0  0  0  0 
  3  4  1  0  0  0  0 
  4  5  1  0  0  0  0 
  4  6  2  0  0  0  0 
  6  7  1  0  0  0  0 
  7  8  2  0  0  0  0 
  1  8  1  0  0  0  0 
  8  9  1  0  0  0  0 
  7 10  1  0  0  0  0 
 10 11  1  0  0  0  0 
 10 12  1  0  0  0  0 
 12 13  2  0  0  0  0 
 13 14  1  0  0  0  0 
 14 15  1  0  0  0  0 
 14 16  2  0  0  0  0 
 16 17  1  0  0  0  0 
 16 18  1  0  0  0  0 
 18 19  2  0  0  0  0 
 19 20  1  0  0  0  0 
 19 21  1  0  0  0  0 
 21 22  2  0  0  0  0 
 22 23  1  0  0  0  0 
 22 24  1  0  0  0  0 
 18 24  1  0  0  0  0 
 12 24  1  0  0  0  0 
 13 25  1  0  0  0  0 
 25 26  2  0  0  0  0 
 25 27  1  0  0  0  0 
 27 28  1  0  0  0  0 
 27 29  1  0  0  0  0 
 29 30  1  0  0  0  0 
 30 31  1  0  0  0  0 
 30 32  1  0  0  0  0 
 32 33  1  0  0  0  0 
 32 34  1  0  0  0  0 
 32 35  1  0  0  0  0 
 35 36  1  0  0  0  0 
 30 37  1  0  0  0  0 
 37 38  1  0  0  0  0 
  6 39  1  0  0  0  0 
  3 40  1  0  0  0  0 
M  END
> <Rank>
3

> <Priority_score>
0.64

> <Reaction_type>
aliphatic hydroxylation

> <Parent_ID>
76

> <Parent_InChI>
InChI=1S/C16H14FIN4O3/c17-13-7-10(18)1-4-14(13)20-15-12(16(24)21-25-6-5-23)3-2-11-8-19-9-22(11)15/h1-4,7-9,20,23H,5-6H2,(H,21,24)

> <Parent_SMILES>
O=C(NOCCO)c1ccc2cncn2c1Nc1ccc(I)cc1F

$$$$
Molecule 76_metabolite 5
  CDK     0516241031

 60 63  0  0  0  0  0  0  0  0999 V2000
    2.8876   -3.7492    0.0000 C   0  0  0  0  0  0  0  0  0  0  0  0
    4.1868   -2.9994    0.0000 H   0  0  0  0  0  0  0  0  0  0  0  0
    2.8871   -5.2500    0.0000 C   0  0  0  0  0  0  0  0  0  0  0  0
    1.5876   -6.0008    0.0000 C   0  0  0  0  0  0  0  0  0  0  0  0
    1.5878   -7.5008    0.0000 H   0  0  0  0  0  0  0  0  0  0  0  0
    0.2886   -5.2508    0.0000 C   0  0  0  0  0  0  0  0  0  0  0  0
    0.2890   -3.7500    0.0000 C   0  0  0  0  0  0  0  0  0  0  0  0
    1.5886   -2.9992    0.0000 C   0  0  0  0  0  0  0  0  0  0  0  0
    1.5883   -1.4992    0.0000 H   0  0  0  0  0  0  0  0  0  0  0  0
   -1.0100   -3.0000    0.0000 N   0  0  0  0  0  0  0  0  0  0  0  0
   -2.3090   -3.7500    0.0000 H   0  0  0  0  0  0  0  0  0  0  0  0
   -1.0100   -1.0200    0.0000 C   0  0  0  0  0  0  0  0  0  0  0  0
   -2.3100   -0.2700    0.0000 C   0  0  0  0  0  0  0  0  0  0  0  0
   -2.3100    1.2300    0.0000 C   0  0  0  0  0  0  0  0  0  0  0  0
   -3.6089    1.9802    0.0000 H   0  0  0  0  0  0  0  0  0  0  0  0
   -1.0100    1.9800    0.0000 C   0  0  0  0  0  0  0  0  0  0  0  0
   -1.0100    3.4800    0.0000 H   0  0  0  0  0  0  0  0  0  0  0  0
    0.2900    1.2300    0.0000 C   0  0  0  0  0  0  0  0  0  0  0  0
    1.7200    1.6900    0.0000 C   0  0  0  0  0  0  0  0  0  0  0  0
    2.1853    3.1160    0.0000 H   0  0  0  0  0  0  0  0  0  0  0  0
    2.6000    0.4800    0.0000 N   0  0  0  0  0  0  0  0  0  0  0  0
    1.7200   -0.7300    0.0000 C   0  0  0  0  0  0  0  0  0  0  0  0
    2.1853   -2.1560    0.0000 H   0  0  0  0  0  0  0  0  0  0  0  0
    0.2900   -0.2700    0.0000 N   0  0  0  0  0  0  0  0  0  0  0  0
    4.5800    0.4800    0.0000 C   0  0  0  0  0  0  0  0  0  0  0  0
    4.3197   -0.9972    0.0000 H   0  0  0  0  0  0  0  0  0  0  0  0
    5.9896   -0.0327    0.0000 C   0  0  0  0  0  0  0  0  0  0  0  0
    5.2401   -1.3320    0.0000 H   0  0  0  0  0  0  0  0  0  0  0  0
    7.1388    0.9326    0.0000 C   0  0  0  0  0  0  0  0  0  0  0  0
    7.8893   -0.3662    0.0000 H   0  0  0  0  0  0  0  0  0  0  0  0
    6.8784    2.4107    0.0000 C   0  0  0  0  0  0  0  0  0  0  0  0
    8.3784    2.4107    0.0000 H   0  0  0  0  0  0  0  0  0  0  0  0
    5.4687    2.9234    0.0000 C   0  0  0  0  0  0  0  0  0  0  0  0
    6.2183    4.2227    0.0000 H   0  0  0  0  0  0  0  0  0  0  0  0
    4.3193    3.8871    0.0000 C   0  0  0  0  0  0  0  0  0  0  0  0
    2.9099    3.3734    0.0000 O   0  0  0  0  0  0  0  0  0  0  0  0
    4.5791    5.3644    0.0000 O   0  0  0  0  0  0  0  0  0  0  0  0
    5.9884    5.8780    0.0000 H   0  0  0  0  0  0  0  0  0  0  0  0
    4.3195    1.9581    0.0000 O   0  0  0  0  0  0  0  0  0  0  0  0
    7.1387    3.8879    0.0000 O   0  0  0  0  0  0  0  0  0  0  0  0
    8.5482    4.4011    0.0000 H   0  0  0  0  0  0  0  0  0  0  0  0
    8.5483    1.4458    0.0000 O   0  0  0  0  0  0  0  0  0  0  0  0
    9.6975    0.4817    0.0000 H   0  0  0  0  0  0  0  0  0  0  0  0
    7.1391   -0.9964    0.0000 O   0  0  0  0  0  0  0  0  0  0  0  0
    6.8793   -2.4737    0.0000 H   0  0  0  0  0  0  0  0  0  0  0  0
   -3.6089   -1.0202    0.0000 C   0  0  0  0  0  0  0  0  0  0  0  0
   -3.6087   -2.5202    0.0000 O   0  0  0  0  0  0  0  0  0  0  0  0
   -4.9081   -0.2704    0.0000 N   0  0  0  0  0  0  0  0  0  0  0  0
   -4.9083    1.2296    0.0000 H   0  0  0  0  0  0  0  0  0  0  0  0
   -6.2070   -1.0206    0.0000 O   0  0  0  0  0  0  0  0  0  0  0  0
   -7.5062   -0.2708    0.0000 C   0  0  0  0  0  0  0  0  0  0  0  0
   -8.4705    0.8781    0.0000 H   0  0  0  0  0  0  0  0  0  0  0  0
   -6.5422    0.8784    0.0000 H   0  0  0  0  0  0  0  0  0  0  0  0
   -8.8051   -1.0210    0.0000 C   0  0  0  0  0  0  0  0  0  0  0  0
   -7.8407   -2.1700    0.0000 H   0  0  0  0  0  0  0  0  0  0  0  0
   -9.7691   -2.1703    0.0000 H   0  0  0  0  0  0  0  0  0  0  0  0
  -10.1042   -0.2712    0.0000 O   0  0  0  0  0  0  0  0  0  0  0  0
  -11.4031   -1.0215    0.0000 H   0  0  0  0  0  0  0  0  0  0  0  0
   -1.0106   -6.0006    0.0000 F   0  0  0  0  0  0  0  0  0  0  0  0
    4.1862   -6.0000    0.0000 I   0  0  0  0  0  0  0  0  0  0  0  0
  1  2  1  0  0  0  0 
  1  3  2  0  0  0  0 
  3  4  1  0  0  0  0 
  4  5  1  0  0  0  0 
  4  6  2  0  0  0  0 
  6  7  1  0  0  0  0 
  7  8  2  0  0  0  0 
  1  8  1  0  0  0  0 
  8  9  1  0  0  0  0 
  7 10  1  0  0  0  0 
 10 11  1  0  0  0  0 
 10 12  1  0  0  0  0 
 12 13  2  0  0  0  0 
 13 14  1  0  0  0  0 
 14 15  1  0  0  0  0 
 14 16  2  0  0  0  0 
 16 17  1  0  0  0  0 
 16 18  1  0  0  0  0 
 18 19  2  0  0  0  0 
 19 20  1  0  0  0  0 
 19 21  1  0  0  0  0 
 21 22  2  0  0  0  0 
 22 23  1  0  0  0  0 
 22 24  1  0  0  0  0 
 18 24  1  0  0  0  0 
 12 24  1  0  0  0  0 
 21 25  1  0  0  0  0 
 25 26  1  0  0  0  0 
 25 27  1  0  0  0  0 
 27 28  1  0  0  0  0 
 27 29  1  0  0  0  0 
 29 30  1  0  0  0  0 
 29 31  1  0  0  0  0 
 31 32  1  0  0  0  0 
 31 33  1  0  0  0  0 
 33 34  1  0  0  0  0 
 33 35  1  0  0  0  0 
 35 36  2  0  0  0  0 
 35 37  1  0  0  0  0 
 37 38  1  0  0  0  0 
 33 39  1  0  0  0  0 
 25 39  1  0  0  0  0 
 31 40  1  0  0  0  0 
 40 41  1  0  0  0  0 
 29 42  1  0  0  0  0 
 42 43  1  0  0  0  0 
 27 44  1  0  0  0  0 
 44 45  1  0  0  0  0 
 13 46  1  0  0  0  0 
 46 47  2  0  0  0  0 
 46 48  1  0  0  0  0 
 48 49  1  0  0  0  0 
 48 50  1  0  0  0  0 
 50 51  1  0  0  0  0 
 51 52  1  0  0  0  0 
 51 53  1  0  0  0  0 
 51 54  1  0  0  0  0 
 54 55  1  0  0  0  0 
 54 56  1  0  0  0  0 
 54 57  1  0  0  0  0 
 57 58  1  0  0  0  0 
  6 59  1  0  0  0  0 
  3 60  1  0  0  0  0 
M  CHG  1  21   1
M  END
> <Rank>
5

> <Priority_score>
0.136

> <Reaction_type>
N-glucuronidation_(aromatic_=n-)

> <Parent_ID>
76

> <Parent_InChI>
InChI=1S/C16H14FIN4O3/c17-13-7-10(18)1-4-14(13)20-15-12(16(24)21-25-6-5-23)3-2-11-8-19-9-22(11)15/h1-4,7-9,20,23H,5-6H2,(H,21,24)

> <Parent_SMILES>
O=C(NOCCO)c1ccc2cncn2c1Nc1ccc(I)cc1F

$$$$
Molecule 76_metabolite 6
  CDK     0516241031

 40 42  0  0  0  0  0  0  0  0999 V2000
   -1.0100    1.9800    0.0000 C   0  0  0  0  0  0  0  0  0  0  0  0
   -1.0100    3.4800    0.0000 H   0  0  0  0  0  0  0  0  0  0  0  0
   -2.3100    1.2300    0.0000 C   0  0  0  0  0  0  0  0  0  0  0  0
   -3.6089    1.9802    0.0000 H   0  0  0  0  0  0  0  0  0  0  0  0
   -2.3100   -0.2700    0.0000 C   0  0  0  0  0  0  0  0  0  0  0  0
   -1.0100   -1.0200    0.0000 C   0  0  0  0  0  0  0  0  0  0  0  0
   -1.0100   -3.0000    0.0000 N   0  0  0  0  0  0  0  0  0  0  0  0
   -2.3090   -3.7500    0.0000 H   0  0  0  0  0  0  0  0  0  0  0  0
    0.2890   -3.7500    0.0000 C   0  0  0  0  0  0  0  0  0  0  0  0
    0.2893   -5.2508    0.0000 C   0  0  0  0  0  0  0  0  0  0  0  0
   -1.0099   -6.0006    0.0000 H   0  0  0  0  0  0  0  0  0  0  0  0
    1.5887   -6.0019    0.0000 C   0  0  0  0  0  0  0  0  0  0  0  0
    1.5882   -7.5019    0.0000 H   0  0  0  0  0  0  0  0  0  0  0  0
    2.8878   -5.2521    0.0000 C   0  0  0  0  0  0  0  0  0  0  0  0
    2.8876   -3.7512    0.0000 C   0  0  0  0  0  0  0  0  0  0  0  0
    1.5882   -3.0002    0.0000 C   0  0  0  0  0  0  0  0  0  0  0  0
    1.5887   -1.5002    0.0000 F   0  0  0  0  0  0  0  0  0  0  0  0
    4.1868   -3.0015    0.0000 O   0  0  0  0  0  0  0  0  0  0  0  0
    5.4857   -3.7517    0.0000 H   0  0  0  0  0  0  0  0  0  0  0  0
    4.1869   -6.0021    0.0000 I   0  0  0  0  0  0  0  0  0  0  0  0
    0.2900   -0.2700    0.0000 N   0  0  0  0  0  0  0  0  0  0  0  0
    1.7200   -0.7300    0.0000 C   0  0  0  0  0  0  0  0  0  0  0  0
    2.1853   -2.1560    0.0000 H   0  0  0  0  0  0  0  0  0  0  0  0
    2.6000    0.4800    0.0000 N   0  0  0  0  0  0  0  0  0  0  0  0
    1.7200    1.6900    0.0000 C   0  0  0  0  0  0  0  0  0  0  0  0
    2.1853    3.1160    0.0000 H   0  0  0  0  0  0  0  0  0  0  0  0
    0.2900    1.2300    0.0000 C   0  0  0  0  0  0  0  0  0  0  0  0
   -3.6089   -1.0202    0.0000 C   0  0  0  0  0  0  0  0  0  0  0  0
   -3.6087   -2.5202    0.0000 O   0  0  0  0  0  0  0  0  0  0  0  0
   -4.9081   -0.2704    0.0000 N   0  0  0  0  0  0  0  0  0  0  0  0
   -4.9083    1.2296    0.0000 H   0  0  0  0  0  0  0  0  0  0  0  0
   -6.2070   -1.0206    0.0000 O   0  0  0  0  0  0  0  0  0  0  0  0
   -7.5062   -0.2708    0.0000 C   0  0  0  0  0  0  0  0  0  0  0  0
   -6.5422    0.8784    0.0000 H   0  0  0  0  0  0  0  0  0  0  0  0
   -8.4705    0.8781    0.0000 H   0  0  0  0  0  0  0  0  0  0  0  0
   -8.8051   -1.0210    0.0000 C   0  0  0  0  0  0  0  0  0  0  0  0
   -9.7691   -2.1703    0.0000 H   0  0  0  0  0  0  0  0  0  0  0  0
   -7.8407   -2.1700    0.0000 H   0  0  0  0  0  0  0  0  0  0  0  0
  -10.1042   -0.2712    0.0000 O   0  0  0  0  0  0  0  0  0  0  0  0
  -11.4031   -1.0215    0.0000 H   0  0  0  0  0  0  0  0  0  0  0  0
  1  2  1  0  0  0  0 
  1  3  2  0  0  0  0 
  3  4  1  0  0  0  0 
  3  5  1  0  0  0  0 
  5  6  2  0  0  0  0 
  6  7  1  0  0  0  0 
  7  8  1  0  0  0  0 
  7  9  1  0  0  0  0 
  9 10  2  0  0  0  0 
 10 11  1  0  0  0  0 
 10 12  1  0  0  0  0 
 12 13  1  0  0  0  0 
 12 14  2  0  0  0  0 
 14 15  1  0  0  0  0 
 15 16  2  0  0  0  0 
  9 16  1  0  0  0  0 
 16 17  1  0  0  0  0 
 15 18  1  0  0  0  0 
 18 19  1  0  0  0  0 
 14 20  1  0  0  0  0 
  6 21  1  0  0  0  0 
 21 22  1  0  0  0  0 
 22 23  1  0  0  0  0 
 22 24  2  0  0  0  0 
 24 25  1  0  0  0  0 
 25 26  1  0  0  0  0 
 25 27  2  0  0  0  0 
  1 27  1  0  0  0  0 
 21 27  1  0  0  0  0 
  5 28  1  0  0  0  0 
 28 29  2  0  0  0  0 
 28 30  1  0  0  0  0 
 30 31  1  0  0  0  0 
 30 32  1  0  0  0  0 
 32 33  1  0  0  0  0 
 33 34  1  0  0  0  0 
 33 35  1  0  0  0  0 
 33 36  1  0  0  0  0 
 36 37  1  0  0  0  0 
 36 38  1  0  0  0  0 
 36 39  1  0  0  0  0 
 39 40  1  0  0  0  0 
M  END
> <Rank>
6

> <Priority_score>
0.132

> <Reaction_type>
aromatic hydroxylation

> <Parent_ID>
76

> <Parent_InChI>
InChI=1S/C16H14FIN4O3/c17-13-7-10(18)1-4-14(13)20-15-12(16(24)21-25-6-5-23)3-2-11-8-19-9-22(11)15/h1-4,7-9,20,23H,5-6H2,(H,21,24)

> <Parent_SMILES>
O=C(NOCCO)c1ccc2cncn2c1Nc1ccc(I)cc1F

$$$$
Molecule 76_metabolite 7
  CDK     0516241031

 40 42  0  0  0  0  0  0  0  0999 V2000
   -1.0100    1.9800    0.0000 C   0  0  0  0  0  0  0  0  0  0  0  0
   -1.0100    3.4800    0.0000 H   0  0  0  0  0  0  0  0  0  0  0  0
   -2.3100    1.2300    0.0000 C   0  0  0  0  0  0  0  0  0  0  0  0
   -3.6089    1.9802    0.0000 H   0  0  0  0  0  0  0  0  0  0  0  0
   -2.3100   -0.2700    0.0000 C   0  0  0  0  0  0  0  0  0  0  0  0
   -1.0100   -1.0200    0.0000 C   0  0  0  0  0  0  0  0  0  0  0  0
   -1.0100   -3.0000    0.0000 N   0  0  0  0  0  0  0  0  0  0  0  0
   -2.3090   -3.7500    0.0000 H   0  0  0  0  0  0  0  0  0  0  0  0
    0.2890   -3.7500    0.0000 C   0  0  0  0  0  0  0  0  0  0  0  0
    0.2893   -5.2508    0.0000 C   0  0  0  0  0  0  0  0  0  0  0  0
    1.5887   -6.0019    0.0000 C   0  0  0  0  0  0  0  0  0  0  0  0
    1.5882   -7.5019    0.0000 H   0  0  0  0  0  0  0  0  0  0  0  0
    2.8878   -5.2521    0.0000 C   0  0  0  0  0  0  0  0  0  0  0  0
    2.8876   -3.7512    0.0000 C   0  0  0  0  0  0  0  0  0  0  0  0
    4.1868   -3.0015    0.0000 H   0  0  0  0  0  0  0  0  0  0  0  0
    1.5882   -3.0002    0.0000 C   0  0  0  0  0  0  0  0  0  0  0  0
    1.5887   -1.5002    0.0000 F   0  0  0  0  0  0  0  0  0  0  0  0
    4.1869   -6.0021    0.0000 I   0  0  0  0  0  0  0  0  0  0  0  0
   -1.0099   -6.0006    0.0000 O   0  0  0  0  0  0  0  0  0  0  0  0
   -1.0101   -7.5006    0.0000 H   0  0  0  0  0  0  0  0  0  0  0  0
    0.2900   -0.2700    0.0000 N   0  0  0  0  0  0  0  0  0  0  0  0
    1.7200   -0.7300    0.0000 C   0  0  0  0  0  0  0  0  0  0  0  0
    2.1853   -2.1560    0.0000 H   0  0  0  0  0  0  0  0  0  0  0  0
    2.6000    0.4800    0.0000 N   0  0  0  0  0  0  0  0  0  0  0  0
    1.7200    1.6900    0.0000 C   0  0  0  0  0  0  0  0  0  0  0  0
    2.1853    3.1160    0.0000 H   0  0  0  0  0  0  0  0  0  0  0  0
    0.2900    1.2300    0.0000 C   0  0  0  0  0  0  0  0  0  0  0  0
   -3.6089   -1.0202    0.0000 C   0  0  0  0  0  0  0  0  0  0  0  0
   -3.6087   -2.5202    0.0000 O   0  0  0  0  0  0  0  0  0  0  0  0
   -4.9081   -0.2704    0.0000 N   0  0  0  0  0  0  0  0  0  0  0  0
   -4.9083    1.2296    0.0000 H   0  0  0  0  0  0  0  0  0  0  0  0
   -6.2070   -1.0206    0.0000 O   0  0  0  0  0  0  0  0  0  0  0  0
   -7.5062   -0.2708    0.0000 C   0  0  0  0  0  0  0  0  0  0  0  0
   -6.5422    0.8784    0.0000 H   0  0  0  0  0  0  0  0  0  0  0  0
   -8.4705    0.8781    0.0000 H   0  0  0  0  0  0  0  0  0  0  0  0
   -8.8051   -1.0210    0.0000 C   0  0  0  0  0  0  0  0  0  0  0  0
   -9.7691   -2.1703    0.0000 H   0  0  0  0  0  0  0  0  0  0  0  0
   -7.8407   -2.1700    0.0000 H   0  0  0  0  0  0  0  0  0  0  0  0
  -10.1042   -0.2712    0.0000 O   0  0  0  0  0  0  0  0  0  0  0  0
  -11.4031   -1.0215    0.0000 H   0  0  0  0  0  0  0  0  0  0  0  0
  1  2  1  0  0  0  0 
  1  3  2  0  0  0  0 
  3  4  1  0  0  0  0 
  3  5  1  0  0  0  0 
  5  6  2  0  0  0  0 
  6  7  1  0  0  0  0 
  7  8  1  0  0  0  0 
  7  9  1  0  0  0  0 
  9 10  2  0  0  0  0 
 10 11  1  0  0  0  0 
 11 12  1  0  0  0  0 
 11 13  2  0  0  0  0 
 13 14  1  0  0  0  0 
 14 15  1  0  0  0  0 
 14 16  2  0  0  0  0 
  9 16  1  0  0  0  0 
 16 17  1  0  0  0  0 
 13 18  1  0  0  0  0 
 10 19  1  0  0  0  0 
 19 20  1  0  0  0  0 
  6 21  1  0  0  0  0 
 21 22  1  0  0  0  0 
 22 23  1  0  0  0  0 
 22 24  2  0  0  0  0 
 24 25  1  0  0  0  0 
 25 26  1  0  0  0  0 
 25 27  2  0  0  0  0 
  1 27  1  0  0  0  0 
 21 27  1  0  0  0  0 
  5 28  1  0  0  0  0 
 28 29  2  0  0  0  0 
 28 30  1  0  0  0  0 
 30 31  1  0  0  0  0 
 30 32  1  0  0  0  0 
 32 33  1  0  0  0  0 
 33 34  1  0  0  0  0 
 33 35  1  0  0  0  0 
 33 36  1  0  0  0  0 
 36 37  1  0  0  0  0 
 36 38  1  0  0  0  0 
 36 39  1  0  0  0  0 
 39 40  1  0  0  0  0 
M  END
> <Rank>
6

> <Priority_score>
0.132

> <Reaction_type>
aromatic_hydroxylation_(ortho_to_nitrogen)

> <Parent_ID>
76

> <Parent_InChI>
InChI=1S/C16H14FIN4O3/c17-13-7-10(18)1-4-14(13)20-15-12(16(24)21-25-6-5-23)3-2-11-8-19-9-22(11)15/h1-4,7-9,20,23H,5-6H2,(H,21,24)

> <Parent_SMILES>
O=C(NOCCO)c1ccc2cncn2c1Nc1ccc(I)cc1F

$$$$
Molecule 76_metabolite 8
  CDK     0516241031

 37 39  0  0  0  0  0  0  0  0999 V2000
    2.8876    3.7492    0.0000 C   0  0  0  0  0  0  0  0  0  0  0  0
    4.1868    2.9994    0.0000 H   0  0  0  0  0  0  0  0  0  0  0  0
    2.8871    5.2500    0.0000 C   0  0  0  0  0  0  0  0  0  0  0  0
    1.5876    6.0008    0.0000 C   0  0  0  0  0  0  0  0  0  0  0  0
    1.5878    7.5008    0.0000 H   0  0  0  0  0  0  0  0  0  0  0  0
    0.2886    5.2508    0.0000 C   0  0  0  0  0  0  0  0  0  0  0  0
    0.2890    3.7500    0.0000 C   0  0  0  0  0  0  0  0  0  0  0  0
    1.5886    2.9992    0.0000 C   0  0  0  0  0  0  0  0  0  0  0  0
    1.5883    1.4992    0.0000 H   0  0  0  0  0  0  0  0  0  0  0  0
   -1.0100    3.0000    0.0000 N   0  0  0  0  0  0  0  0  0  0  0  0
   -2.3090    3.7500    0.0000 H   0  0  0  0  0  0  0  0  0  0  0  0
   -1.0100    1.0200    0.0000 C   0  0  0  0  0  0  0  0  0  0  0  0
   -2.3100    0.2700    0.0000 C   0  0  0  0  0  0  0  0  0  0  0  0
   -2.3100   -1.2300    0.0000 C   0  0  0  0  0  0  0  0  0  0  0  0
   -3.6089   -1.9802    0.0000 H   0  0  0  0  0  0  0  0  0  0  0  0
   -1.0100   -1.9800    0.0000 C   0  0  0  0  0  0  0  0  0  0  0  0
   -1.0100   -3.4800    0.0000 H   0  0  0  0  0  0  0  0  0  0  0  0
    0.2900   -1.2300    0.0000 C   0  0  0  0  0  0  0  0  0  0  0  0
    1.7200   -1.6900    0.0000 C   0  0  0  0  0  0  0  0  0  0  0  0
    2.1853   -3.1160    0.0000 H   0  0  0  0  0  0  0  0  0  0  0  0
    2.6000   -0.4800    0.0000 N   0  0  0  0  0  0  0  0  0  0  0  0
    1.7200    0.7300    0.0000 C   0  0  0  0  0  0  0  0  0  0  0  0
    2.6449    1.9109    0.0000 H   0  0  0  0  0  0  0  0  0  0  0  0
    0.2900    0.2700    0.0000 N   0  0  0  0  0  0  0  0  0  0  0  0
   -3.6089    1.0202    0.0000 C   0  0  0  0  0  0  0  0  0  0  0  0
   -3.6087    2.5202    0.0000 O   0  0  0  0  0  0  0  0  0  0  0  0
   -4.9081    0.2704    0.0000 N   0  0  0  0  0  0  0  0  0  0  0  0
   -4.9083   -1.2296    0.0000 H   0  0  0  0  0  0  0  0  0  0  0  0
   -6.2070    1.0206    0.0000 O   0  0  0  0  0  0  0  0  0  0  0  0
   -7.5062    0.2708    0.0000 C   0  0  0  0  0  0  0  0  0  0  0  0
   -7.5064   -1.2292    0.0000 H   0  0  0  0  0  0  0  0  0  0  0  0
   -8.8051    1.0210    0.0000 C   0  0  0  0  0  0  0  0  0  0  0  0
   -8.8048    2.5210    0.0000 H   0  0  0  0  0  0  0  0  0  0  0  0
  -10.1042    0.2712    0.0000 O   0  0  0  0  0  0  0  0  0  0  0  0
  -11.4031    1.0215    0.0000 H   0  0  0  0  0  0  0  0  0  0  0  0
   -1.0106    6.0006    0.0000 F   0  0  0  0  0  0  0  0  0  0  0  0
    4.1862    6.0000    0.0000 I   0  0  0  0  0  0  0  0  0  0  0  0
  1  2  1  0  0  0  0 
  1  3  2  0  0  0  0 
  3  4  1  0  0  0  0 
  4  5  1  0  0  0  0 
  4  6  2  0  0  0  0 
  6  7  1  0  0  0  0 
  7  8  2  0  0  0  0 
  1  8  1  0  0  0  0 
  8  9  1  0  0  0  0 
  7 10  1  0  0  0  0 
 10 11  1  0  0  0  0 
 10 12  1  0  0  0  0 
 12 13  2  0  0  0  0 
 13 14  1  0  0  0  0 
 14 15  1  0  0  0  0 
 14 16  2  0  0  0  0 
 16 17  1  0  0  0  0 
 16 18  1  0  0  0  0 
 18 19  2  0  0  0  0 
 19 20  1  0  0  0  0 
 19 21  1  0  0  0  0 
 21 22  2  0  0  0  0 
 22 23  1  0  0  0  0 
 22 24  1  0  0  0  0 
 18 24  1  0  0  0  0 
 12 24  1  0  0  0  0 
 13 25  1  0  0  0  0 
 25 26  2  0  0  0  0 
 25 27  1  0  0  0  0 
 27 28  1  0  0  0  0 
 27 29  1  0  0  0  0 
 29 30  1  0  0  0  0 
 30 31  1  4  0  0  0 
 30 32  2  0  0  0  0 
 32 33  1  0  0  0  0 
 32 34  1  0  0  0  0 
 34 35  1  0  0  0  0 
  6 36  1  0  0  0  0 
  3 37  1  0  0  0  0 
M  END
> <Rank>
8

> <Priority_score>
0.128

> <Reaction_type>
alkyl dehydrogenation

> <Parent_ID>
76

> <Parent_InChI>
InChI=1S/C16H14FIN4O3/c17-13-7-10(18)1-4-14(13)20-15-12(16(24)21-25-6-5-23)3-2-11-8-19-9-22(11)15/h1-4,7-9,20,23H,5-6H2,(H,21,24)

> <Parent_SMILES>
O=C(NOCCO)c1ccc2cncn2c1Nc1ccc(I)cc1F

$$$$
Molecule 76_metabolite 9
  CDK     0516241031

 37 39  0  0  0  0  0  0  0  0999 V2000
    2.8876    3.7492    0.0000 C   0  0  0  0  0  0  0  0  0  0  0  0
    4.1868    2.9994    0.0000 H   0  0  0  0  0  0  0  0  0  0  0  0
    2.8871    5.2500    0.0000 C   0  0  0  0  0  0  0  0  0  0  0  0
    1.5876    6.0008    0.0000 C   0  0  0  0  0  0  0  0  0  0  0  0
    1.5878    7.5008    0.0000 H   0  0  0  0  0  0  0  0  0  0  0  0
    0.2886    5.2508    0.0000 C   0  0  0  0  0  0  0  0  0  0  0  0
    0.2890    3.7500    0.0000 C   0  0  0  0  0  0  0  0  0  0  0  0
    1.5886    2.9992    0.0000 C   0  0  0  0  0  0  0  0  0  0  0  0
    1.5883    1.4992    0.0000 H   0  0  0  0  0  0  0  0  0  0  0  0
   -1.0100    3.0000    0.0000 N   0  0  0  0  0  0  0  0  0  0  0  0
   -2.3090    3.7500    0.0000 H   0  0  0  0  0  0  0  0  0  0  0  0
   -1.0100    1.0200    0.0000 C   0  0  0  0  0  0  0  0  0  0  0  0
   -2.3100    0.2700    0.0000 C   0  0  0  0  0  0  0  0  0  0  0  0
   -2.3100   -1.2300    0.0000 C   0  0  0  0  0  0  0  0  0  0  0  0
   -3.6089   -1.9802    0.0000 H   0  0  0  0  0  0  0  0  0  0  0  0
   -1.0100   -1.9800    0.0000 C   0  0  0  0  0  0  0  0  0  0  0  0
   -1.0100   -3.4800    0.0000 H   0  0  0  0  0  0  0  0  0  0  0  0
    0.2900   -1.2300    0.0000 C   0  0  0  0  0  0  0  0  0  0  0  0
    1.7200   -1.6900    0.0000 C   0  0  0  0  0  0  0  0  0  0  0  0
    2.1853   -3.1160    0.0000 H   0  0  0  0  0  0  0  0  0  0  0  0
    2.6000   -0.4800    0.0000 N   0  0  0  0  0  0  0  0  0  0  0  0
    1.7200    0.7300    0.0000 C   0  0  0  0  0  0  0  0  0  0  0  0
    2.6449    1.9109    0.0000 H   0  0  0  0  0  0  0  0  0  0  0  0
    0.2900    0.2700    0.0000 N   0  0  0  0  0  0  0  0  0  0  0  0
   -3.6089    1.0202    0.0000 C   0  0  0  0  0  0  0  0  0  0  0  0
   -3.6087    2.5202    0.0000 O   0  0  0  0  0  0  0  0  0  0  0  0
   -4.9081    0.2704    0.0000 N   0  0  0  0  0  0  0  0  0  0  0  0
   -4.9083   -1.2296    0.0000 H   0  0  0  0  0  0  0  0  0  0  0  0
   -6.2070    1.0206    0.0000 O   0  0  0  0  0  0  0  0  0  0  0  0
   -7.5062    0.2708    0.0000 C   0  0  0  0  0  0  0  0  0  0  0  0
   -8.4705   -0.8781    0.0000 H   0  0  0  0  0  0  0  0  0  0  0  0
   -6.5422   -0.8784    0.0000 H   0  0  0  0  0  0  0  0  0  0  0  0
   -8.8051    1.0210    0.0000 C   0  0  0  0  0  0  0  0  0  0  0  0
  -10.1042    0.2712    0.0000 H   0  0  0  0  0  0  0  0  0  0  0  0
   -8.8048    2.5210    0.0000 O   0  0  0  0  0  0  0  0  0  0  0  0
   -1.0106    6.0006    0.0000 F   0  0  0  0  0  0  0  0  0  0  0  0
    4.1862    6.0000    0.0000 I   0  0  0  0  0  0  0  0  0  0  0  0
  1  2  1  0  0  0  0 
  1  3  2  0  0  0  0 
  3  4  1  0  0  0  0 
  4  5  1  0  0  0  0 
  4  6  2  0  0  0  0 
  6  7  1  0  0  0  0 
  7  8  2  0  0  0  0 
  1  8  1  0  0  0  0 
  8  9  1  0  0  0  0 
  7 10  1  0  0  0  0 
 10 11  1  0  0  0  0 
 10 12  1  0  0  0  0 
 12 13  2  0  0  0  0 
 13 14  1  0  0  0  0 
 14 15  1  0  0  0  0 
 14 16  2  0  0  0  0 
 16 17  1  0  0  0  0 
 16 18  1  0  0  0  0 
 18 19  2  0  0  0  0 
 19 20  1  0  0  0  0 
 19 21  1  0  0  0  0 
 21 22  2  0  0  0  0 
 22 23  1  0  0  0  0 
 22 24  1  0  0  0  0 
 18 24  1  0  0  0  0 
 12 24  1  0  0  0  0 
 13 25  1  0  0  0  0 
 25 26  2  0  0  0  0 
 25 27  1  0  0  0  0 
 27 28  1  0  0  0  0 
 27 29  1  0  0  0  0 
 29 30  1  0  0  0  0 
 30 31  1  0  0  0  0 
 30 32  1  0  0  0  0 
 30 33  1  0  0  0  0 
 33 34  1  0  0  0  0 
 33 35  2  0  0  0  0 
  6 36  1  0  0  0  0 
  3 37  1  0  0  0  0 
M  END
> <Rank>
9

> <Priority_score>
0.124

> <Reaction_type>
alcohol oxidation

> <Parent_ID>
76

> <Parent_InChI>
InChI=1S/C16H14FIN4O3/c17-13-7-10(18)1-4-14(13)20-15-12(16(24)21-25-6-5-23)3-2-11-8-19-9-22(11)15/h1-4,7-9,20,23H,5-6H2,(H,21,24)

> <Parent_SMILES>
O=C(NOCCO)c1ccc2cncn2c1Nc1ccc(I)cc1F

$$$$
Molecule 76_metabolite 10
  CDK     0516241031

 40 42  0  0  0  0  0  0  0  0999 V2000
   -1.0100    1.9800    0.0000 C   0  0  0  0  0  0  0  0  0  0  0  0
   -1.0100    3.4800    0.0000 H   0  0  0  0  0  0  0  0  0  0  0  0
   -2.3100    1.2300    0.0000 C   0  0  0  0  0  0  0  0  0  0  0  0
   -3.6089    1.9802    0.0000 H   0  0  0  0  0  0  0  0  0  0  0  0
   -2.3100   -0.2700    0.0000 C   0  0  0  0  0  0  0  0  0  0  0  0
   -1.0100   -1.0200    0.0000 C   0  0  0  0  0  0  0  0  0  0  0  0
   -1.0100   -3.0000    0.0000 N   0  0  0  0  0  0  0  0  0  0  0  0
   -2.3090   -3.7500    0.0000 H   0  0  0  0  0  0  0  0  0  0  0  0
    0.2890   -3.7500    0.0000 C   0  0  0  0  0  0  0  0  0  0  0  0
    0.2893   -5.2508    0.0000 C   0  0  0  0  0  0  0  0  0  0  0  0
    1.5887   -6.0019    0.0000 C   0  0  0  0  0  0  0  0  0  0  0  0
    1.5882   -7.5019    0.0000 H   0  0  0  0  0  0  0  0  0  0  0  0
    2.8878   -5.2521    0.0000 C   0  0  0  0  0  0  0  0  0  0  0  0
    2.8876   -3.7512    0.0000 C   0  0  0  0  0  0  0  0  0  0  0  0
    1.5882   -3.0002    0.0000 C   0  0  0  0  0  0  0  0  0  0  0  0
    1.5887   -1.5002    0.0000 H   0  0  0  0  0  0  0  0  0  0  0  0
    4.1868   -3.0015    0.0000 O   0  0  0  0  0  0  0  0  0  0  0  0
    5.4857   -3.7517    0.0000 H   0  0  0  0  0  0  0  0  0  0  0  0
    4.1869   -6.0021    0.0000 I   0  0  0  0  0  0  0  0  0  0  0  0
   -1.0099   -6.0006    0.0000 F   0  0  0  0  0  0  0  0  0  0  0  0
    0.2900   -0.2700    0.0000 N   0  0  0  0  0  0  0  0  0  0  0  0
    1.7200   -0.7300    0.0000 C   0  0  0  0  0  0  0  0  0  0  0  0
    2.1853   -2.1560    0.0000 H   0  0  0  0  0  0  0  0  0  0  0  0
    2.6000    0.4800    0.0000 N   0  0  0  0  0  0  0  0  0  0  0  0
    1.7200    1.6900    0.0000 C   0  0  0  0  0  0  0  0  0  0  0  0
    2.1853    3.1160    0.0000 H   0  0  0  0  0  0  0  0  0  0  0  0
    0.2900    1.2300    0.0000 C   0  0  0  0  0  0  0  0  0  0  0  0
   -3.6089   -1.0202    0.0000 C   0  0  0  0  0  0  0  0  0  0  0  0
   -3.6087   -2.5202    0.0000 O   0  0  0  0  0  0  0  0  0  0  0  0
   -4.9081   -0.2704    0.0000 N   0  0  0  0  0  0  0  0  0  0  0  0
   -4.9083    1.2296    0.0000 H   0  0  0  0  0  0  0  0  0  0  0  0
   -6.2070   -1.0206    0.0000 O   0  0  0  0  0  0  0  0  0  0  0  0
   -7.5062   -0.2708    0.0000 C   0  0  0  0  0  0  0  0  0  0  0  0
   -6.5422    0.8784    0.0000 H   0  0  0  0  0  0  0  0  0  0  0  0
   -8.4705    0.8781    0.0000 H   0  0  0  0  0  0  0  0  0  0  0  0
   -8.8051   -1.0210    0.0000 C   0  0  0  0  0  0  0  0  0  0  0  0
   -9.7691   -2.1703    0.0000 H   0  0  0  0  0  0  0  0  0  0  0  0
   -7.8407   -2.1700    0.0000 H   0  0  0  0  0  0  0  0  0  0  0  0
  -10.1042   -0.2712    0.0000 O   0  0  0  0  0  0  0  0  0  0  0  0
  -11.4031   -1.0215    0.0000 H   0  0  0  0  0  0  0  0  0  0  0  0
  1  2  1  0  0  0  0 
  1  3  2  0  0  0  0 
  3  4  1  0  0  0  0 
  3  5  1  0  0  0  0 
  5  6  2  0  0  0  0 
  6  7  1  0  0  0  0 
  7  8  1  0  0  0  0 
  7  9  1  0  0  0  0 
  9 10  2  0  0  0  0 
 10 11  1  0  0  0  0 
 11 12  1  0  0  0  0 
 11 13  2  0  0  0  0 
 13 14  1  0  0  0  0 
 14 15  2  0  0  0  0 
  9 15  1  0  0  0  0 
 15 16  1  0  0  0  0 
 14 17  1  0  0  0  0 
 17 18  1  0  0  0  0 
 13 19  1  0  0  0  0 
 10 20  1  0  0  0  0 
  6 21  1  0  0  0  0 
 21 22  1  0  0  0  0 
 22 23  1  0  0  0  0 
 22 24  2  0  0  0  0 
 24 25  1  0  0  0  0 
 25 26  1  0  0  0  0 
 25 27  2  0  0  0  0 
  1 27  1  0  0  0  0 
 21 27  1  0  0  0  0 
  5 28  1  0  0  0  0 
 28 29  2  0  0  0  0 
 28 30  1  0  0  0  0 
 30 31  1  0  0  0  0 
 30 32  1  0  0  0  0 
 32 33  1  0  0  0  0 
 33 34  1  0  0  0  0 
 33 35  1  0  0  0  0 
 33 36  1  0  0  0  0 
 36 37  1  0  0  0  0 
 36 38  1  0  0  0  0 
 36 39  1  0  0  0  0 
 39 40  1  0  0  0  0 
M  END
> <Rank>
10

> <Priority_score>
0.116

> <Reaction_type>
aromatic hydroxylation

> <Parent_ID>
76

> <Parent_InChI>
InChI=1S/C16H14FIN4O3/c17-13-7-10(18)1-4-14(13)20-15-12(16(24)21-25-6-5-23)3-2-11-8-19-9-22(11)15/h1-4,7-9,20,23H,5-6H2,(H,21,24)

> <Parent_SMILES>
O=C(NOCCO)c1ccc2cncn2c1Nc1ccc(I)cc1F

$$$$
Molecule 76_metabolite 11
  CDK     0516241031

 30 32  0  0  0  0  0  0  0  0999 V2000
    2.8876    3.7492    0.0000 C   0  0  0  0  0  0  0  0  0  0  0  0
    4.1868    2.9994    0.0000 H   0  0  0  0  0  0  0  0  0  0  0  0
    2.8871    5.2500    0.0000 C   0  0  0  0  0  0  0  0  0  0  0  0
    1.5876    6.0008    0.0000 C   0  0  0  0  0  0  0  0  0  0  0  0
    1.5878    7.5008    0.0000 H   0  0  0  0  0  0  0  0  0  0  0  0
    0.2886    5.2508    0.0000 C   0  0  0  0  0  0  0  0  0  0  0  0
    0.2890    3.7500    0.0000 C   0  0  0  0  0  0  0  0  0  0  0  0
    1.5886    2.9992    0.0000 C   0  0  0  0  0  0  0  0  0  0  0  0
    1.5883    1.4992    0.0000 H   0  0  0  0  0  0  0  0  0  0  0  0
   -1.0100    3.0000    0.0000 N   0  0  0  0  0  0  0  0  0  0  0  0
   -2.3090    3.7500    0.0000 H   0  0  0  0  0  0  0  0  0  0  0  0
   -1.0100    1.0200    0.0000 C   0  0  0  0  0  0  0  0  0  0  0  0
   -2.3100    0.2700    0.0000 C   0  0  0  0  0  0  0  0  0  0  0  0
   -2.3100   -1.2300    0.0000 C   0  0  0  0  0  0  0  0  0  0  0  0
   -3.6089   -1.9802    0.0000 H   0  0  0  0  0  0  0  0  0  0  0  0
   -1.0100   -1.9800    0.0000 C   0  0  0  0  0  0  0  0  0  0  0  0
   -1.0100   -3.4800    0.0000 H   0  0  0  0  0  0  0  0  0  0  0  0
    0.2900   -1.2300    0.0000 C   0  0  0  0  0  0  0  0  0  0  0  0
    1.7200   -1.6900    0.0000 C   0  0  0  0  0  0  0  0  0  0  0  0
    2.1853   -3.1160    0.0000 H   0  0  0  0  0  0  0  0  0  0  0  0
    2.6000   -0.4800    0.0000 N   0  0  0  0  0  0  0  0  0  0  0  0
    1.7200    0.7300    0.0000 C   0  0  0  0  0  0  0  0  0  0  0  0
    2.4258    2.0536    0.0000 H   0  0  0  0  0  0  0  0  0  0  0  0
    0.2900    0.2700    0.0000 N   0  0  0  0  0  0  0  0  0  0  0  0
   -3.6089    1.0202    0.0000 C   0  0  0  0  0  0  0  0  0  0  0  0
   -3.6087    2.5202    0.0000 O   0  0  0  0  0  0  0  0  0  0  0  0
   -4.9081    0.2704    0.0000 O   0  0  0  0  0  0  0  0  0  0  0  0
   -6.2070    1.0206    0.0000 H   0  0  0  0  0  0  0  0  0  0  0  0
   -1.0106    6.0006    0.0000 F   0  0  0  0  0  0  0  0  0  0  0  0
    4.1862    6.0000    0.0000 I   0  0  0  0  0  0  0  0  0  0  0  0
  1  2  1  0  0  0  0 
  1  3  2  0  0  0  0 
  3  4  1  0  0  0  0 
  4  5  1  0  0  0  0 
  4  6  2  0  0  0  0 
  6  7  1  0  0  0  0 
  7  8  2  0  0  0  0 
  1  8  1  0  0  0  0 
  8  9  1  0  0  0  0 
  7 10  1  0  0  0  0 
 10 11  1  0  0  0  0 
 10 12  1  0  0  0  0 
 12 13  2  0  0  0  0 
 13 14  1  0  0  0  0 
 14 15  1  0  0  0  0 
 14 16  2  0  0  0  0 
 16 17  1  0  0  0  0 
 16 18  1  0  0  0  0 
 18 19  2  0  0  0  0 
 19 20  1  0  0  0  0 
 19 21  1  0  0  0  0 
 21 22  2  0  0  0  0 
 22 23  1  0  0  0  0 
 22 24  1  0  0  0  0 
 18 24  1  0  0  0  0 
 12 24  1  0  0  0  0 
 13 25  1  0  0  0  0 
 25 26  2  0  0  0  0 
 25 27  1  0  0  0  0 
 27 28  1  0  0  0  0 
  6 29  1  0  0  0  0 
  3 30  1  0  0  0  0 
M  END
> <Rank>
11

> <Priority_score>
0.108

> <Reaction_type>
hydrolysis_(heteroatom_bonded_amide)

> <Parent_ID>
76

> <Parent_InChI>
InChI=1S/C16H14FIN4O3/c17-13-7-10(18)1-4-14(13)20-15-12(16(24)21-25-6-5-23)3-2-11-8-19-9-22(11)15/h1-4,7-9,20,23H,5-6H2,(H,21,24)

> <Parent_SMILES>
O=C(NOCCO)c1ccc2cncn2c1Nc1ccc(I)cc1F

$$$$
Molecule 76_metabolite 12
  CDK     0516241031

 12 11  0  0  0  0  0  0  0  0999 V2000
    5.1962   -0.0000    0.0000 C   0  0  0  0  0  0  0  0  0  0  0  0
    6.1603    1.1491    0.0000 H   0  0  0  0  0  0  0  0  0  0  0  0
    4.2320    1.1491    0.0000 H   0  0  0  0  0  0  0  0  0  0  0  0
    3.8971   -0.7500    0.0000 C   0  0  0  0  0  0  0  0  0  0  0  0
    2.9329   -1.8991    0.0000 H   0  0  0  0  0  0  0  0  0  0  0  0
    4.8613   -1.8991    0.0000 H   0  0  0  0  0  0  0  0  0  0  0  0
    2.5981   -0.0000    0.0000 O   0  0  0  0  0  0  0  0  0  0  0  0
    1.2990   -0.7500    0.0000 N   0  0  0  0  0  0  0  0  0  0  0  0
    0.0000    0.0000    0.0000 H   0  0  0  0  0  0  0  0  0  0  0  0
    1.2990   -2.2500    0.0000 H   0  0  0  0  0  0  0  0  0  0  0  0
    6.4952   -0.7500    0.0000 O   0  0  0  0  0  0  0  0  0  0  0  0
    7.7942   -0.0000    0.0000 H   0  0  0  0  0  0  0  0  0  0  0  0
  1  2  1  0  0  0  0 
  1  3  1  0  0  0  0 
  1  4  1  0  0  0  0 
  4  5  1  0  0  0  0 
  4  6  1  0  0  0  0 
  4  7  1  0  0  0  0 
  7  8  1  0  0  0  0 
  8  9  1  0  0  0  0 
  8 10  1  0  0  0  0 
  1 11  1  0  0  0  0 
 11 12  1  0  0  0  0 
M  END
> <Rank>
11

> <Priority_score>
0.108

> <Reaction_type>
hydrolysis_(heteroatom_bonded_amide)

> <Parent_ID>
76

> <Parent_InChI>
InChI=1S/C16H14FIN4O3/c17-13-7-10(18)1-4-14(13)20-15-12(16(24)21-25-6-5-23)3-2-11-8-19-9-22(11)15/h1-4,7-9,20,23H,5-6H2,(H,21,24)

> <Parent_SMILES>
O=C(NOCCO)c1ccc2cncn2c1Nc1ccc(I)cc1F

$$$$
Molecule 76_metabolite 13
  CDK     0516241031

 40 42  0  0  0  0  0  0  0  0999 V2000
    2.8876    3.7492    0.0000 C   0  0  0  0  0  0  0  0  0  0  0  0
    4.1868    2.9994    0.0000 H   0  0  0  0  0  0  0  0  0  0  0  0
    2.8871    5.2500    0.0000 C   0  0  0  0  0  0  0  0  0  0  0  0
    1.5876    6.0008    0.0000 C   0  0  0  0  0  0  0  0  0  0  0  0
    1.5878    7.5008    0.0000 H   0  0  0  0  0  0  0  0  0  0  0  0
    0.2886    5.2508    0.0000 C   0  0  0  0  0  0  0  0  0  0  0  0
    0.2890    3.7500    0.0000 C   0  0  0  0  0  0  0  0  0  0  0  0
    1.5886    2.9992    0.0000 C   0  0  0  0  0  0  0  0  0  0  0  0
    1.5883    1.4992    0.0000 H   0  0  0  0  0  0  0  0  0  0  0  0
   -1.0100    3.0000    0.0000 N   0  0  0  0  0  0  0  0  0  0  0  0
   -2.3090    3.7500    0.0000 H   0  0  0  0  0  0  0  0  0  0  0  0
   -1.0100    1.0200    0.0000 C   0  0  0  0  0  0  0  0  0  0  0  0
   -2.3100    0.2700    0.0000 C   0  0  0  0  0  0  0  0  0  0  0  0
   -2.3100   -1.2300    0.0000 C   0  0  0  0  0  0  0  0  0  0  0  0
   -3.6089   -1.9802    0.0000 H   0  0  0  0  0  0  0  0  0  0  0  0
   -1.0100   -1.9800    0.0000 C   0  0  0  0  0  0  0  0  0  0  0  0
   -1.0100   -3.4800    0.0000 H   0  0  0  0  0  0  0  0  0  0  0  0
    0.2900   -1.2300    0.0000 C   0  0  0  0  0  0  0  0  0  0  0  0
    1.7200   -1.6900    0.0000 C   0  0  0  0  0  0  0  0  0  0  0  0
    2.1853   -3.1160    0.0000 H   0  0  0  0  0  0  0  0  0  0  0  0
    2.6000   -0.4800    0.0000 N   0  0  0  0  0  0  0  0  0  0  0  0
    1.7200    0.7300    0.0000 C   0  0  0  0  0  0  0  0  0  0  0  0
    2.6449    1.9109    0.0000 H   0  0  0  0  0  0  0  0  0  0  0  0
    0.2900    0.2700    0.0000 N   0  0  0  0  0  0  0  0  0  0  0  0
   -3.6089    1.0202    0.0000 C   0  0  0  0  0  0  0  0  0  0  0  0
   -3.6087    2.5202    0.0000 O   0  0  0  0  0  0  0  0  0  0  0  0
   -4.9081    0.2704    0.0000 N   0  0  0  0  0  0  0  0  0  0  0  0
   -4.9083   -1.2296    0.0000 O   0  0  0  0  0  0  0  0  0  0  0  0
   -6.2075   -1.9794    0.0000 H   0  0  0  0  0  0  0  0  0  0  0  0
   -6.2070    1.0206    0.0000 O   0  0  0  0  0  0  0  0  0  0  0  0
   -7.5062    0.2708    0.0000 C   0  0  0  0  0  0  0  0  0  0  0  0
   -8.4705   -0.8781    0.0000 H   0  0  0  0  0  0  0  0  0  0  0  0
   -6.5422   -0.8784    0.0000 H   0  0  0  0  0  0  0  0  0  0  0  0
   -8.8051    1.0210    0.0000 C   0  0  0  0  0  0  0  0  0  0  0  0
   -7.8407    2.1700    0.0000 H   0  0  0  0  0  0  0  0  0  0  0  0
   -9.7691    2.1703    0.0000 H   0  0  0  0  0  0  0  0  0  0  0  0
  -10.1042    0.2712    0.0000 O   0  0  0  0  0  0  0  0  0  0  0  0
  -11.4031    1.0215    0.0000 H   0  0  0  0  0  0  0  0  0  0  0  0
   -1.0106    6.0006    0.0000 F   0  0  0  0  0  0  0  0  0  0  0  0
    4.1862    6.0000    0.0000 I   0  0  0  0  0  0  0  0  0  0  0  0
  1  2  1  0  0  0  0 
  1  3  2  0  0  0  0 
  3  4  1  0  0  0  0 
  4  5  1  0  0  0  0 
  4  6  2  0  0  0  0 
  6  7  1  0  0  0  0 
  7  8  2  0  0  0  0 
  1  8  1  0  0  0  0 
  8  9  1  0  0  0  0 
  7 10  1  0  0  0  0 
 10 11  1  0  0  0  0 
 10 12  1  0  0  0  0 
 12 13  2  0  0  0  0 
 13 14  1  0  0  0  0 
 14 15  1  0  0  0  0 
 14 16  2  0  0  0  0 
 16 17  1  0  0  0  0 
 16 18  1  0  0  0  0 
 18 19  2  0  0  0  0 
 19 20  1  0  0  0  0 
 19 21  1  0  0  0  0 
 21 22  2  0  0  0  0 
 22 23  1  0  0  0  0 
 22 24  1  0  0  0  0 
 18 24  1  0  0  0  0 
 12 24  1  0  0  0  0 
 13 25  1  0  0  0  0 
 25 26  2  0  0  0  0 
 25 27  1  0  0  0  0 
 27 28  1  0  0  0  0 
 28 29  1  0  0  0  0 
 27 30  1  0  0  0  0 
 30 31  1  0  0  0  0 
 31 32  1  0  0  0  0 
 31 33  1  0  0  0  0 
 31 34  1  0  0  0  0 
 34 35  1  0  0  0  0 
 34 36  1  0  0  0  0 
 34 37  1  0  0  0  0 
 37 38  1  0  0  0  0 
  6 39  1  0  0  0  0 
  3 40  1  0  0  0  0 
M  END
> <Rank>
11

> <Priority_score>
0.108

> <Reaction_type>
amine hydroxylation

> <Parent_ID>
76

> <Parent_InChI>
InChI=1S/C16H14FIN4O3/c17-13-7-10(18)1-4-14(13)20-15-12(16(24)21-25-6-5-23)3-2-11-8-19-9-22(11)15/h1-4,7-9,20,23H,5-6H2,(H,21,24)

> <Parent_SMILES>
O=C(NOCCO)c1ccc2cncn2c1Nc1ccc(I)cc1F

$$$$
Molecule 76_metabolite 14
  CDK     0516241031

 39 41  0  0  0  0  0  0  0  0999 V2000
    2.8893    5.2496    0.0000 C   0  0  0  0  0  0  0  0  0  0  0  0
    4.1883    5.9996    0.0000 H   0  0  0  0  0  0  0  0  0  0  0  0
    1.5894    5.9998    0.0000 C   0  0  0  0  0  0  0  0  0  0  0  0
    1.5896    7.4998    0.0000 H   0  0  0  0  0  0  0  0  0  0  0  0
    0.2893    5.2500    0.0000 C   0  0  0  0  0  0  0  0  0  0  0  0
    0.2890    3.7500    0.0000 C   0  0  0  0  0  0  0  0  0  0  0  0
    1.5889    2.9998    0.0000 C   0  0  0  0  0  0  0  0  0  0  0  0
    1.5887    1.4998    0.0000 H   0  0  0  0  0  0  0  0  0  0  0  0
    2.8890    3.7496    0.0000 C   0  0  0  0  0  0  0  0  0  0  0  0
    4.1878    2.9992    0.0000 H   0  0  0  0  0  0  0  0  0  0  0  0
   -1.0100    3.0000    0.0000 N   0  0  0  0  0  0  0  0  0  0  0  0
   -2.3090    3.7500    0.0000 H   0  0  0  0  0  0  0  0  0  0  0  0
   -1.0100    1.0200    0.0000 C   0  0  0  0  0  0  0  0  0  0  0  0
   -2.3100    0.2700    0.0000 C   0  0  0  0  0  0  0  0  0  0  0  0
   -2.3100   -1.2300    0.0000 C   0  0  0  0  0  0  0  0  0  0  0  0
   -3.6089   -1.9802    0.0000 H   0  0  0  0  0  0  0  0  0  0  0  0
   -1.0100   -1.9800    0.0000 C   0  0  0  0  0  0  0  0  0  0  0  0
   -1.0100   -3.4800    0.0000 H   0  0  0  0  0  0  0  0  0  0  0  0
    0.2900   -1.2300    0.0000 C   0  0  0  0  0  0  0  0  0  0  0  0
    1.7200   -1.6900    0.0000 C   0  0  0  0  0  0  0  0  0  0  0  0
    2.1853   -3.1160    0.0000 H   0  0  0  0  0  0  0  0  0  0  0  0
    2.6000   -0.4800    0.0000 N   0  0  0  0  0  0  0  0  0  0  0  0
    1.7200    0.7300    0.0000 C   0  0  0  0  0  0  0  0  0  0  0  0
    2.6449    1.9109    0.0000 H   0  0  0  0  0  0  0  0  0  0  0  0
    0.2900    0.2700    0.0000 N   0  0  0  0  0  0  0  0  0  0  0  0
   -3.6089    1.0202    0.0000 C   0  0  0  0  0  0  0  0  0  0  0  0
   -3.6087    2.5202    0.0000 O   0  0  0  0  0  0  0  0  0  0  0  0
   -4.9081    0.2704    0.0000 N   0  0  0  0  0  0  0  0  0  0  0  0
   -4.9083   -1.2296    0.0000 H   0  0  0  0  0  0  0  0  0  0  0  0
   -6.2070    1.0206    0.0000 O   0  0  0  0  0  0  0  0  0  0  0  0
   -7.5062    0.2708    0.0000 C   0  0  0  0  0  0  0  0  0  0  0  0
   -8.4705   -0.8781    0.0000 H   0  0  0  0  0  0  0  0  0  0  0  0
   -6.5422   -0.8784    0.0000 H   0  0  0  0  0  0  0  0  0  0  0  0
   -8.8051    1.0210    0.0000 C   0  0  0  0  0  0  0  0  0  0  0  0
   -7.8407    2.1700    0.0000 H   0  0  0  0  0  0  0  0  0  0  0  0
   -9.7691    2.1703    0.0000 H   0  0  0  0  0  0  0  0  0  0  0  0
  -10.1042    0.2712    0.0000 O   0  0  0  0  0  0  0  0  0  0  0  0
  -11.4031    1.0215    0.0000 H   0  0  0  0  0  0  0  0  0  0  0  0
   -1.0095    6.0004    0.0000 F   0  0  0  0  0  0  0  0  0  0  0  0
  1  2  1  0  0  0  0 
  1  3  2  0  0  0  0 
  3  4  1  0  0  0  0 
  3  5  1  0  0  0  0 
  5  6  2  0  0  0  0 
  6  7  1  0  0  0  0 
  7  8  1  0  0  0  0 
  7  9  2  0  0  0  0 
  1  9  1  0  0  0  0 
  9 10  1  0  0  0  0 
  6 11  1  0  0  0  0 
 11 12  1  0  0  0  0 
 11 13  1  0  0  0  0 
 13 14  2  0  0  0  0 
 14 15  1  0  0  0  0 
 15 16  1  0  0  0  0 
 15 17  2  0  0  0  0 
 17 18  1  0  0  0  0 
 17 19  1  0  0  0  0 
 19 20  2  0  0  0  0 
 20 21  1  0  0  0  0 
 20 22  1  0  0  0  0 
 22 23  2  0  0  0  0 
 23 24  1  0  0  0  0 
 23 25  1  0  0  0  0 
 19 25  1  0  0  0  0 
 13 25  1  0  0  0  0 
 14 26  1  0  0  0  0 
 26 27  2  0  0  0  0 
 26 28  1  0  0  0  0 
 28 29  1  0  0  0  0 
 28 30  1  0  0  0  0 
 30 31  1  0  0  0  0 
 31 32  1  0  0  0  0 
 31 33  1  0  0  0  0 
 31 34  1  0  0  0  0 
 34 35  1  0  0  0  0 
 34 36  1  0  0  0  0 
 34 37  1  0  0  0  0 
 37 38  1  0  0  0  0 
  5 39  1  0  0  0  0 
M  END
> <Rank>
14

> <Priority_score>
0.092

> <Reaction_type>
deiodonidation

> <Parent_ID>
76

> <Parent_InChI>
InChI=1S/C16H14FIN4O3/c17-13-7-10(18)1-4-14(13)20-15-12(16(24)21-25-6-5-23)3-2-11-8-19-9-22(11)15/h1-4,7-9,20,23H,5-6H2,(H,21,24)

> <Parent_SMILES>
O=C(NOCCO)c1ccc2cncn2c1Nc1ccc(I)cc1F

$$$$
Molecule 76_metabolite 15
  CDK     0516241031

 40 42  0  0  0  0  0  0  0  0999 V2000
    2.8876    3.7492    0.0000 C   0  0  0  0  0  0  0  0  0  0  0  0
    4.1868    2.9994    0.0000 H   0  0  0  0  0  0  0  0  0  0  0  0
    2.8871    5.2500    0.0000 C   0  0  0  0  0  0  0  0  0  0  0  0
    1.5876    6.0008    0.0000 C   0  0  0  0  0  0  0  0  0  0  0  0
    1.5878    7.5008    0.0000 H   0  0  0  0  0  0  0  0  0  0  0  0
    0.2886    5.2508    0.0000 C   0  0  0  0  0  0  0  0  0  0  0  0
    0.2890    3.7500    0.0000 C   0  0  0  0  0  0  0  0  0  0  0  0
    1.5886    2.9992    0.0000 C   0  0  0  0  0  0  0  0  0  0  0  0
    1.5883    1.4992    0.0000 H   0  0  0  0  0  0  0  0  0  0  0  0
   -1.0100    3.0000    0.0000 N   0  0  0  0  0  0  0  0  0  0  0  0
   -2.3090    3.7500    0.0000 H   0  0  0  0  0  0  0  0  0  0  0  0
   -1.0100    1.0200    0.0000 C   0  0  0  0  0  0  0  0  0  0  0  0
   -2.3100    0.2700    0.0000 C   0  0  0  0  0  0  0  0  0  0  0  0
   -2.3100   -1.2300    0.0000 C   0  0  0  0  0  0  0  0  0  0  0  0
   -3.6089   -1.9802    0.0000 H   0  0  0  0  0  0  0  0  0  0  0  0
   -1.0100   -1.9800    0.0000 C   0  0  0  0  0  0  0  0  0  0  0  0
   -1.0100   -3.4800    0.0000 H   0  0  0  0  0  0  0  0  0  0  0  0
    0.2900   -1.2300    0.0000 C   0  0  0  0  0  0  0  0  0  0  0  0
    1.7200   -1.6900    0.0000 C   0  0  0  0  0  0  0  0  0  0  0  0
    2.1853   -3.1160    0.0000 H   0  0  0  0  0  0  0  0  0  0  0  0
    2.6000   -0.4800    0.0000 N   0  0  0  0  0  0  0  0  0  0  0  0
    1.7200    0.7300    0.0000 C   0  0  0  0  0  0  0  0  0  0  0  0
    2.6449    1.9109    0.0000 H   0  0  0  0  0  0  0  0  0  0  0  0
    0.2900    0.2700    0.0000 N   0  0  0  0  0  0  0  0  0  0  0  0
    4.1000   -0.4800    0.0000 O   0  0  0  0  0  0  0  0  0  0  0  0
   -3.6089    1.0202    0.0000 C   0  0  0  0  0  0  0  0  0  0  0  0
   -3.6087    2.5202    0.0000 O   0  0  0  0  0  0  0  0  0  0  0  0
   -4.9081    0.2704    0.0000 N   0  0  0  0  0  0  0  0  0  0  0  0
   -4.9083   -1.2296    0.0000 H   0  0  0  0  0  0  0  0  0  0  0  0
   -6.2070    1.0206    0.0000 O   0  0  0  0  0  0  0  0  0  0  0  0
   -7.5062    0.2708    0.0000 C   0  0  0  0  0  0  0  0  0  0  0  0
   -8.4705   -0.8781    0.0000 H   0  0  0  0  0  0  0  0  0  0  0  0
   -6.5422   -0.8784    0.0000 H   0  0  0  0  0  0  0  0  0  0  0  0
   -8.8051    1.0210    0.0000 C   0  0  0  0  0  0  0  0  0  0  0  0
   -7.8407    2.1700    0.0000 H   0  0  0  0  0  0  0  0  0  0  0  0
   -9.7691    2.1703    0.0000 H   0  0  0  0  0  0  0  0  0  0  0  0
  -10.1042    0.2712    0.0000 O   0  0  0  0  0  0  0  0  0  0  0  0
  -11.4031    1.0215    0.0000 H   0  0  0  0  0  0  0  0  0  0  0  0
   -1.0106    6.0006    0.0000 F   0  0  0  0  0  0  0  0  0  0  0  0
    4.1862    6.0000    0.0000 I   0  0  0  0  0  0  0  0  0  0  0  0
  1  2  1  0  0  0  0 
  1  3  2  0  0  0  0 
  3  4  1  0  0  0  0 
  4  5  1  0  0  0  0 
  4  6  2  0  0  0  0 
  6  7  1  0  0  0  0 
  7  8  2  0  0  0  0 
  1  8  1  0  0  0  0 
  8  9  1  0  0  0  0 
  7 10  1  0  0  0  0 
 10 11  1  0  0  0  0 
 10 12  1  0  0  0  0 
 12 13  2  0  0  0  0 
 13 14  1  0  0  0  0 
 14 15  1  0  0  0  0 
 14 16  2  0  0  0  0 
 16 17  1  0  0  0  0 
 16 18  1  0  0  0  0 
 18 19  2  0  0  0  0 
 19 20  1  0  0  0  0 
 19 21  1  0  0  0  0 
 21 22  2  0  0  0  0 
 22 23  1  0  0  0  0 
 22 24  1  0  0  0  0 
 18 24  1  0  0  0  0 
 12 24  1  0  0  0  0 
 21 25  1  0  0  0  0 
 13 26  1  0  0  0  0 
 26 27  2  0  0  0  0 
 26 28  1  0  0  0  0 
 28 29  1  0  0  0  0 
 28 30  1  0  0  0  0 
 30 31  1  0  0  0  0 
 31 32  1  0  0  0  0 
 31 33  1  0  0  0  0 
 31 34  1  0  0  0  0 
 34 35  1  0  0  0  0 
 34 36  1  0  0  0  0 
 34 37  1  0  0  0  0 
 37 38  1  0  0  0  0 
  6 39  1  0  0  0  0 
  3 40  1  0  0  0  0 
M  CHG  1  21   1
M  CHG  1  25  -1
M  END
> <Rank>
15

> <Priority_score>
0.088

> <Reaction_type>
N-oxidation_(-N=)

> <Parent_ID>
76

> <Parent_InChI>
InChI=1S/C16H14FIN4O3/c17-13-7-10(18)1-4-14(13)20-15-12(16(24)21-25-6-5-23)3-2-11-8-19-9-22(11)15/h1-4,7-9,20,23H,5-6H2,(H,21,24)

> <Parent_SMILES>
O=C(NOCCO)c1ccc2cncn2c1Nc1ccc(I)cc1F

$$$$
Molecule 76_metabolite 16
  CDK     0516241031

 40 42  0  0  0  0  0  0  0  0999 V2000
    2.8876    3.7492    0.0000 C   0  0  0  0  0  0  0  0  0  0  0  0
    4.1868    2.9994    0.0000 H   0  0  0  0  0  0  0  0  0  0  0  0
    2.8871    5.2500    0.0000 C   0  0  0  0  0  0  0  0  0  0  0  0
    1.5876    6.0008    0.0000 C   0  0  0  0  0  0  0  0  0  0  0  0
    1.5878    7.5008    0.0000 H   0  0  0  0  0  0  0  0  0  0  0  0
    0.2886    5.2508    0.0000 C   0  0  0  0  0  0  0  0  0  0  0  0
    0.2890    3.7500    0.0000 C   0  0  0  0  0  0  0  0  0  0  0  0
    1.5886    2.9992    0.0000 C   0  0  0  0  0  0  0  0  0  0  0  0
    1.5883    1.4992    0.0000 H   0  0  0  0  0  0  0  0  0  0  0  0
   -1.0100    3.0000    0.0000 N   0  0  0  0  0  0  0  0  0  0  0  0
   -2.3090    3.7500    0.0000 H   0  0  0  0  0  0  0  0  0  0  0  0
   -1.0100    1.0200    0.0000 C   0  0  0  0  0  0  0  0  0  0  0  0
   -2.3100    0.2700    0.0000 C   0  0  0  0  0  0  0  0  0  0  0  0
   -2.3100   -1.2300    0.0000 C   0  0  0  0  0  0  0  0  0  0  0  0
   -3.6089   -1.9802    0.0000 H   0  0  0  0  0  0  0  0  0  0  0  0
   -1.0100   -1.9800    0.0000 C   0  0  0  0  0  0  0  0  0  0  0  0
   -1.0100   -3.4800    0.0000 H   0  0  0  0  0  0  0  0  0  0  0  0
    0.2900   -1.2300    0.0000 C   0  0  0  0  0  0  0  0  0  0  0  0
    1.7200   -1.6900    0.0000 C   0  0  0  0  0  0  0  0  0  0  0  0
    2.1853   -3.1160    0.0000 H   0  0  0  0  0  0  0  0  0  0  0  0
    2.6000   -0.4800    0.0000 N   0  0  0  0  0  0  0  0  0  0  0  0
    4.1000   -0.4800    0.0000 H   0  0  0  0  0  0  0  0  0  0  0  0
    1.7200    0.7300    0.0000 C   0  0  0  0  0  0  0  0  0  0  0  0
    2.6449    1.9109    0.0000 O   0  0  0  0  0  0  0  0  0  0  0  0
    0.2900    0.2700    0.0000 N   0  0  0  0  0  0  0  0  0  0  0  0
   -3.6089    1.0202    0.0000 C   0  0  0  0  0  0  0  0  0  0  0  0
   -3.6087    2.5202    0.0000 O   0  0  0  0  0  0  0  0  0  0  0  0
   -4.9081    0.2704    0.0000 N   0  0  0  0  0  0  0  0  0  0  0  0
   -4.9083   -1.2296    0.0000 H   0  0  0  0  0  0  0  0  0  0  0  0
   -6.2070    1.0206    0.0000 O   0  0  0  0  0  0  0  0  0  0  0  0
   -7.5062    0.2708    0.0000 C   0  0  0  0  0  0  0  0  0  0  0  0
   -8.4705   -0.8781    0.0000 H   0  0  0  0  0  0  0  0  0  0  0  0
   -6.5422   -0.8784    0.0000 H   0  0  0  0  0  0  0  0  0  0  0  0
   -8.8051    1.0210    0.0000 C   0  0  0  0  0  0  0  0  0  0  0  0
   -7.8407    2.1700    0.0000 H   0  0  0  0  0  0  0  0  0  0  0  0
   -9.7691    2.1703    0.0000 H   0  0  0  0  0  0  0  0  0  0  0  0
  -10.1042    0.2712    0.0000 O   0  0  0  0  0  0  0  0  0  0  0  0
  -11.4031    1.0215    0.0000 H   0  0  0  0  0  0  0  0  0  0  0  0
   -1.0106    6.0006    0.0000 F   0  0  0  0  0  0  0  0  0  0  0  0
    4.1862    6.0000    0.0000 I   0  0  0  0  0  0  0  0  0  0  0  0
  1  2  1  0  0  0  0 
  1  3  2  0  0  0  0 
  3  4  1  0  0  0  0 
  4  5  1  0  0  0  0 
  4  6  2  0  0  0  0 
  6  7  1  0  0  0  0 
  7  8  2  0  0  0  0 
  1  8  1  0  0  0  0 
  8  9  1  0  0  0  0 
  7 10  1  0  0  0  0 
 10 11  1  0  0  0  0 
 10 12  1  0  0  0  0 
 12 13  2  0  0  0  0 
 13 14  1  0  0  0  0 
 14 15  1  0  0  0  0 
 14 16  2  0  0  0  0 
 16 17  1  0  0  0  0 
 16 18  1  0  0  0  0 
 18 19  2  0  0  0  0 
 19 20  1  0  0  0  0 
 19 21  1  0  0  0  0 
 21 22  1  0  0  0  0 
 21 23  1  0  0  0  0 
 23 24  2  0  0  0  0 
 23 25  1  0  0  0  0 
 18 25  1  0  0  0  0 
 12 25  1  0  0  0  0 
 13 26  1  0  0  0  0 
 26 27  2  0  0  0  0 
 26 28  1  0  0  0  0 
 28 29  1  0  0  0  0 
 28 30  1  0  0  0  0 
 30 31  1  0  0  0  0 
 31 32  1  0  0  0  0 
 31 33  1  0  0  0  0 
 31 34  1  0  0  0  0 
 34 35  1  0  0  0  0 
 34 36  1  0  0  0  0 
 34 37  1  0  0  0  0 
 37 38  1  0  0  0  0 
  6 39  1  0  0  0  0 
  3 40  1  0  0  0  0 
M  END
> <Rank>
15

> <Priority_score>
0.088

> <Reaction_type>
aromatic_oxidation_(nitrogen_containing_5ring)

> <Parent_ID>
76

> <Parent_InChI>
InChI=1S/C16H14FIN4O3/c17-13-7-10(18)1-4-14(13)20-15-12(16(24)21-25-6-5-23)3-2-11-8-19-9-22(11)15/h1-4,7-9,20,23H,5-6H2,(H,21,24)

> <Parent_SMILES>
O=C(NOCCO)c1ccc2cncn2c1Nc1ccc(I)cc1F

$$$$
Molecule 76_metabolite 17
  CDK     0516241031

 59 62  0  0  0  0  0  0  0  0999 V2000
   -3.0698   -0.6251    0.0000 C   0  0  0  0  0  0  0  0  0  0  0  0
   -4.4792   -1.1384    0.0000 H   0  0  0  0  0  0  0  0  0  0  0  0
   -1.9198   -1.5895    0.0000 C   0  0  0  0  0  0  0  0  0  0  0  0
   -0.5093   -1.0766    0.0000 C   0  0  0  0  0  0  0  0  0  0  0  0
    0.6396   -2.0410    0.0000 H   0  0  0  0  0  0  0  0  0  0  0  0
   -0.2488    0.4006    0.0000 C   0  0  0  0  0  0  0  0  0  0  0  0
   -1.3988    1.3649    0.0000 C   0  0  0  0  0  0  0  0  0  0  0  0
   -2.8093    0.8521    0.0000 C   0  0  0  0  0  0  0  0  0  0  0  0
   -3.9582    1.8164    0.0000 H   0  0  0  0  0  0  0  0  0  0  0  0
   -0.8883    4.2603    0.0000 N   0  0  0  0  0  0  0  0  0  0  0  0
    0.5212    4.7733    0.0000 C   0  0  0  0  0  0  0  0  0  0  0  0
    0.7814    6.2514    0.0000 C   0  0  0  0  0  0  0  0  0  0  0  0
    2.1909    6.7644    0.0000 C   0  0  0  0  0  0  0  0  0  0  0  0
    2.4516    8.2416    0.0000 H   0  0  0  0  0  0  0  0  0  0  0  0
    3.3403    5.7994    0.0000 C   0  0  0  0  0  0  0  0  0  0  0  0
    4.7499    6.3124    0.0000 H   0  0  0  0  0  0  0  0  0  0  0  0
    3.0802    4.3212    0.0000 C   0  0  0  0  0  0  0  0  0  0  0  0
    4.0015    3.1348    0.0000 C   0  0  0  0  0  0  0  0  0  0  0  0
    5.5007    3.1853    0.0000 H   0  0  0  0  0  0  0  0  0  0  0  0
    3.1655    1.8940    0.0000 N   0  0  0  0  0  0  0  0  0  0  0  0
    1.7275    2.3071    0.0000 C   0  0  0  0  0  0  0  0  0  0  0  0
    0.5466    1.3822    0.0000 H   0  0  0  0  0  0  0  0  0  0  0  0
    1.6706    3.8082    0.0000 N   0  0  0  0  0  0  0  0  0  0  0  0
   -0.3678    7.2154    0.0000 C   0  0  0  0  0  0  0  0  0  0  0  0
   -2.2283    6.5379    0.0000 O   0  0  0  0  0  0  0  0  0  0  0  0
   -0.1076    8.6927    0.0000 N   0  0  0  0  0  0  0  0  0  0  0  0
    1.3019    9.2059    0.0000 H   0  0  0  0  0  0  0  0  0  0  0  0
   -1.2568    9.6567    0.0000 O   0  0  0  0  0  0  0  0  0  0  0  0
   -0.9966   11.1339    0.0000 C   0  0  0  0  0  0  0  0  0  0  0  0
   -0.2468   12.4331    0.0000 H   0  0  0  0  0  0  0  0  0  0  0  0
    0.4130   10.6211    0.0000 H   0  0  0  0  0  0  0  0  0  0  0  0
   -2.1458   12.0979    0.0000 C   0  0  0  0  0  0  0  0  0  0  0  0
   -2.8956   10.7988    0.0000 H   0  0  0  0  0  0  0  0  0  0  0  0
   -3.5554   12.6107    0.0000 H   0  0  0  0  0  0  0  0  0  0  0  0
   -1.8856   13.5752    0.0000 O   0  0  0  0  0  0  0  0  0  0  0  0
   -3.0348   14.5392    0.0000 H   0  0  0  0  0  0  0  0  0  0  0  0
   -3.1405    6.1501    0.0000 C   0  0  0  0  0  0  0  0  0  0  0  0
   -2.1764    7.2992    0.0000 H   0  0  0  0  0  0  0  0  0  0  0  0
   -4.1049    7.2989    0.0000 C   0  0  0  0  0  0  0  0  0  0  0  0
   -2.8061    8.0493    0.0000 H   0  0  0  0  0  0  0  0  0  0  0  0
   -5.5828    7.0375    0.0000 C   0  0  0  0  0  0  0  0  0  0  0  0
   -5.5833    8.5375    0.0000 H   0  0  0  0  0  0  0  0  0  0  0  0
   -6.0962    5.6273    0.0000 C   0  0  0  0  0  0  0  0  0  0  0  0
   -7.3953    6.3773    0.0000 H   0  0  0  0  0  0  0  0  0  0  0  0
   -5.1318    4.4784    0.0000 C   0  0  0  0  0  0  0  0  0  0  0  0
   -6.4306    3.7280    0.0000 H   0  0  0  0  0  0  0  0  0  0  0  0
   -5.3917    3.0011    0.0000 C   0  0  0  0  0  0  0  0  0  0  0  0
   -4.8780    1.5918    0.0000 O   0  0  0  0  0  0  0  0  0  0  0  0
   -6.8010    2.4874    0.0000 O   0  0  0  0  0  0  0  0  0  0  0  0
   -7.9505    3.4511    0.0000 H   0  0  0  0  0  0  0  0  0  0  0  0
   -3.6539    4.7398    0.0000 O   0  0  0  0  0  0  0  0  0  0  0  0
   -7.0603    4.4781    0.0000 O   0  0  0  0  0  0  0  0  0  0  0  0
   -8.5375    4.7384    0.0000 H   0  0  0  0  0  0  0  0  0  0  0  0
   -7.0600    7.2978    0.0000 O   0  0  0  0  0  0  0  0  0  0  0  0
   -7.5732    8.7073    0.0000 H   0  0  0  0  0  0  0  0  0  0  0  0
   -4.6185    8.7082    0.0000 O   0  0  0  0  0  0  0  0  0  0  0  0
   -3.6548    9.8577    0.0000 H   0  0  0  0  0  0  0  0  0  0  0  0
    1.2285    0.1404    0.0000 F   0  0  0  0  0  0  0  0  0  0  0  0
   -2.1802   -3.0667    0.0000 I   0  0  0  0  0  0  0  0  0  0  0  0
  1  2  1  0  0  0  0 
  1  3  2  0  0  0  0 
  3  4  1  0  0  0  0 
  4  5  1  0  0  0  0 
  4  6  2  0  0  0  0 
  6  7  1  0  0  0  0 
  7  8  2  0  0  0  0 
  1  8  1  0  0  0  0 
  8  9  1  0  0  0  0 
  7 10  1  0  0  0  0 
 10 11  1  0  0  0  0 
 11 12  2  0  0  0  0 
 12 13  1  0  0  0  0 
 13 14  1  0  0  0  0 
 13 15  2  0  0  0  0 
 15 16  1  0  0  0  0 
 15 17  1  0  0  0  0 
 17 18  2  0  0  0  0 
 18 19  1  0  0  0  0 
 18 20  1  0  0  0  0 
 20 21  2  0  0  0  0 
 21 22  1  0  0  0  0 
 21 23  1  0  0  0  0 
 17 23  1  0  0  0  0 
 11 23  1  0  0  0  0 
 12 24  1  0  0  0  0 
 24 25  2  0  0  0  0 
 24 26  1  0  0  0  0 
 26 27  1  0  0  0  0 
 26 28  1  0  0  0  0 
 28 29  1  0  0  0  0 
 29 30  1  0  0  0  0 
 29 31  1  0  0  0  0 
 29 32  1  0  0  0  0 
 32 33  1  0  0  0  0 
 32 34  1  0  0  0  0 
 32 35  1  0  0  0  0 
 35 36  1  0  0  0  0 
 10 37  1  0  0  0  0 
 37 38  1  0  0  0  0 
 37 39  1  0  0  0  0 
 39 40  1  0  0  0  0 
 39 41  1  0  0  0  0 
 41 42  1  0  0  0  0 
 41 43  1  0  0  0  0 
 43 44  1  0  0  0  0 
 43 45  1  0  0  0  0 
 45 46  1  0  0  0  0 
 45 47  1  0  0  0  0 
 47 48  2  0  0  0  0 
 47 49  1  0  0  0  0 
 49 50  1  0  0  0  0 
 45 51  1  0  0  0  0 
 37 51  1  0  0  0  0 
 43 52  1  0  0  0  0 
 52 53  1  0  0  0  0 
 41 54  1  0  0  0  0 
 54 55  1  0  0  0  0 
 39 56  1  0  0  0  0 
 56 57  1  0  0  0  0 
  6 58  1  0  0  0  0 
  3 59  1  0  0  0  0 
M  END
> <Rank>
17

> <Priority_score>
0.084

> <Reaction_type>
N-glucuronidation_(aniline_NH1-R)

> <Parent_ID>
76

> <Parent_InChI>
InChI=1S/C16H14FIN4O3/c17-13-7-10(18)1-4-14(13)20-15-12(16(24)21-25-6-5-23)3-2-11-8-19-9-22(11)15/h1-4,7-9,20,23H,5-6H2,(H,21,24)

> <Parent_SMILES>
O=C(NOCCO)c1ccc2cncn2c1Nc1ccc(I)cc1F

$$$$
Molecule 76_metabolite 18
  CDK     0516241031

 40 42  0  0  0  0  0  0  0  0999 V2000
    2.8876    3.7492    0.0000 C   0  0  0  0  0  0  0  0  0  0  0  0
    4.1868    2.9994    0.0000 H   0  0  0  0  0  0  0  0  0  0  0  0
    2.8871    5.2500    0.0000 C   0  0  0  0  0  0  0  0  0  0  0  0
    1.5876    6.0008    0.0000 C   0  0  0  0  0  0  0  0  0  0  0  0
    1.5878    7.5008    0.0000 H   0  0  0  0  0  0  0  0  0  0  0  0
    0.2886    5.2508    0.0000 C   0  0  0  0  0  0  0  0  0  0  0  0
    0.2890    3.7500    0.0000 C   0  0  0  0  0  0  0  0  0  0  0  0
    1.5886    2.9992    0.0000 C   0  0  0  0  0  0  0  0  0  0  0  0
    1.5883    1.4992    0.0000 H   0  0  0  0  0  0  0  0  0  0  0  0
   -1.0100    3.0000    0.0000 N   0  0  0  0  0  0  0  0  0  0  0  0
   -1.0100    1.0200    0.0000 C   0  0  0  0  0  0  0  0  0  0  0  0
   -2.3100    0.2700    0.0000 C   0  0  0  0  0  0  0  0  0  0  0  0
   -2.3100   -1.2300    0.0000 C   0  0  0  0  0  0  0  0  0  0  0  0
   -3.6089   -1.9802    0.0000 H   0  0  0  0  0  0  0  0  0  0  0  0
   -1.0100   -1.9800    0.0000 C   0  0  0  0  0  0  0  0  0  0  0  0
   -1.0100   -3.4800    0.0000 H   0  0  0  0  0  0  0  0  0  0  0  0
    0.2900   -1.2300    0.0000 C   0  0  0  0  0  0  0  0  0  0  0  0
    1.7200   -1.6900    0.0000 C   0  0  0  0  0  0  0  0  0  0  0  0
    2.1853   -3.1160    0.0000 H   0  0  0  0  0  0  0  0  0  0  0  0
    2.6000   -0.4800    0.0000 N   0  0  0  0  0  0  0  0  0  0  0  0
    1.7200    0.7300    0.0000 C   0  0  0  0  0  0  0  0  0  0  0  0
    2.6449    1.9109    0.0000 H   0  0  0  0  0  0  0  0  0  0  0  0
    0.2900    0.2700    0.0000 N   0  0  0  0  0  0  0  0  0  0  0  0
   -3.6089    1.0202    0.0000 C   0  0  0  0  0  0  0  0  0  0  0  0
   -3.6087    2.5202    0.0000 O   0  0  0  0  0  0  0  0  0  0  0  0
   -4.9081    0.2704    0.0000 N   0  0  0  0  0  0  0  0  0  0  0  0
   -4.9083   -1.2296    0.0000 H   0  0  0  0  0  0  0  0  0  0  0  0
   -6.2070    1.0206    0.0000 O   0  0  0  0  0  0  0  0  0  0  0  0
   -7.5062    0.2708    0.0000 C   0  0  0  0  0  0  0  0  0  0  0  0
   -8.4705   -0.8781    0.0000 H   0  0  0  0  0  0  0  0  0  0  0  0
   -6.5422   -0.8784    0.0000 H   0  0  0  0  0  0  0  0  0  0  0  0
   -8.8051    1.0210    0.0000 C   0  0  0  0  0  0  0  0  0  0  0  0
   -7.8407    2.1700    0.0000 H   0  0  0  0  0  0  0  0  0  0  0  0
   -9.7691    2.1703    0.0000 H   0  0  0  0  0  0  0  0  0  0  0  0
  -10.1042    0.2712    0.0000 O   0  0  0  0  0  0  0  0  0  0  0  0
  -11.4031    1.0215    0.0000 H   0  0  0  0  0  0  0  0  0  0  0  0
   -2.3090    3.7500    0.0000 O   0  0  0  0  0  0  0  0  0  0  0  0
   -2.3090    5.2500    0.0000 H   0  0  0  0  0  0  0  0  0  0  0  0
   -1.0106    6.0006    0.0000 F   0  0  0  0  0  0  0  0  0  0  0  0
    4.1862    6.0000    0.0000 I   0  0  0  0  0  0  0  0  0  0  0  0
  1  2  1  0  0  0  0 
  1  3  2  0  0  0  0 
  3  4  1  0  0  0  0 
  4  5  1  0  0  0  0 
  4  6  2  0  0  0  0 
  6  7  1  0  0  0  0 
  7  8  2  0  0  0  0 
  1  8  1  0  0  0  0 
  8  9  1  0  0  0  0 
  7 10  1  0  0  0  0 
 10 11  1  0  0  0  0 
 11 12  2  0  0  0  0 
 12 13  1  0  0  0  0 
 13 14  1  0  0  0  0 
 13 15  2  0  0  0  0 
 15 16  1  0  0  0  0 
 15 17  1  0  0  0  0 
 17 18  2  0  0  0  0 
 18 19  1  0  0  0  0 
 18 20  1  0  0  0  0 
 20 21  2  0  0  0  0 
 21 22  1  0  0  0  0 
 21 23  1  0  0  0  0 
 17 23  1  0  0  0  0 
 11 23  1  0  0  0  0 
 12 24  1  0  0  0  0 
 24 25  2  0  0  0  0 
 24 26  1  0  0  0  0 
 26 27  1  0  0  0  0 
 26 28  1  0  0  0  0 
 28 29  1  0  0  0  0 
 29 30  1  0  0  0  0 
 29 31  1  0  0  0  0 
 29 32  1  0  0  0  0 
 32 33  1  0  0  0  0 
 32 34  1  0  0  0  0 
 32 35  1  0  0  0  0 
 35 36  1  0  0  0  0 
 10 37  1  0  0  0  0 
 37 38  1  0  0  0  0 
  6 39  1  0  0  0  0 
  3 40  1  0  0  0  0 
M  END
> <Rank>
18

> <Priority_score>
0.076

> <Reaction_type>
amine hydroxylation

> <Parent_ID>
76

> <Parent_InChI>
InChI=1S/C16H14FIN4O3/c17-13-7-10(18)1-4-14(13)20-15-12(16(24)21-25-6-5-23)3-2-11-8-19-9-22(11)15/h1-4,7-9,20,23H,5-6H2,(H,21,24)

> <Parent_SMILES>
O=C(NOCCO)c1ccc2cncn2c1Nc1ccc(I)cc1F

$$$$
Molecule 76_metabolite 19
  CDK     0516241031

 40 42  0  0  0  0  0  0  0  0999 V2000
    2.8876    3.7492    0.0000 C   0  0  0  0  0  0  0  0  0  0  0  0
    4.1868    2.9994    0.0000 H   0  0  0  0  0  0  0  0  0  0  0  0
    2.8871    5.2500    0.0000 C   0  0  0  0  0  0  0  0  0  0  0  0
    1.5876    6.0008    0.0000 C   0  0  0  0  0  0  0  0  0  0  0  0
    1.5878    7.5008    0.0000 H   0  0  0  0  0  0  0  0  0  0  0  0
    0.2886    5.2508    0.0000 C   0  0  0  0  0  0  0  0  0  0  0  0
    0.2890    3.7500    0.0000 C   0  0  0  0  0  0  0  0  0  0  0  0
    1.5886    2.9992    0.0000 C   0  0  0  0  0  0  0  0  0  0  0  0
    1.5883    1.4992    0.0000 H   0  0  0  0  0  0  0  0  0  0  0  0
   -1.0100    3.0000    0.0000 N   0  0  0  0  0  0  0  0  0  0  0  0
   -2.3090    3.7500    0.0000 H   0  0  0  0  0  0  0  0  0  0  0  0
   -1.0100    1.0200    0.0000 C   0  0  0  0  0  0  0  0  0  0  0  0
   -2.3100    0.2700    0.0000 C   0  0  0  0  0  0  0  0  0  0  0  0
   -2.3100   -1.2300    0.0000 C   0  0  0  0  0  0  0  0  0  0  0  0
   -3.6089   -1.9802    0.0000 H   0  0  0  0  0  0  0  0  0  0  0  0
   -1.0100   -1.9800    0.0000 C   0  0  0  0  0  0  0  0  0  0  0  0
    0.2900   -1.2300    0.0000 C   0  0  0  0  0  0  0  0  0  0  0  0
    1.7200   -1.6900    0.0000 C   0  0  0  0  0  0  0  0  0  0  0  0
    2.1853   -3.1160    0.0000 H   0  0  0  0  0  0  0  0  0  0  0  0
    2.6000   -0.4800    0.0000 N   0  0  0  0  0  0  0  0  0  0  0  0
    1.7200    0.7300    0.0000 C   0  0  0  0  0  0  0  0  0  0  0  0
    2.6449    1.9109    0.0000 H   0  0  0  0  0  0  0  0  0  0  0  0
    0.2900    0.2700    0.0000 N   0  0  0  0  0  0  0  0  0  0  0  0
   -1.0100   -3.4800    0.0000 O   0  0  0  0  0  0  0  0  0  0  0  0
    0.2890   -4.2300    0.0000 H   0  0  0  0  0  0  0  0  0  0  0  0
   -3.6089    1.0202    0.0000 C   0  0  0  0  0  0  0  0  0  0  0  0
   -3.6087    2.5202    0.0000 O   0  0  0  0  0  0  0  0  0  0  0  0
   -4.9081    0.2704    0.0000 N   0  0  0  0  0  0  0  0  0  0  0  0
   -4.9083   -1.2296    0.0000 H   0  0  0  0  0  0  0  0  0  0  0  0
   -6.2070    1.0206    0.0000 O   0  0  0  0  0  0  0  0  0  0  0  0
   -7.5062    0.2708    0.0000 C   0  0  0  0  0  0  0  0  0  0  0  0
   -8.4705   -0.8781    0.0000 H   0  0  0  0  0  0  0  0  0  0  0  0
   -6.5422   -0.8784    0.0000 H   0  0  0  0  0  0  0  0  0  0  0  0
   -8.8051    1.0210    0.0000 C   0  0  0  0  0  0  0  0  0  0  0  0
   -7.8407    2.1700    0.0000 H   0  0  0  0  0  0  0  0  0  0  0  0
   -9.7691    2.1703    0.0000 H   0  0  0  0  0  0  0  0  0  0  0  0
  -10.1042    0.2712    0.0000 O   0  0  0  0  0  0  0  0  0  0  0  0
  -11.4031    1.0215    0.0000 H   0  0  0  0  0  0  0  0  0  0  0  0
   -1.0106    6.0006    0.0000 F   0  0  0  0  0  0  0  0  0  0  0  0
    4.1862    6.0000    0.0000 I   0  0  0  0  0  0  0  0  0  0  0  0
  1  2  1  0  0  0  0 
  1  3  2  0  0  0  0 
  3  4  1  0  0  0  0 
  4  5  1  0  0  0  0 
  4  6  2  0  0  0  0 
  6  7  1  0  0  0  0 
  7  8  2  0  0  0  0 
  1  8  1  0  0  0  0 
  8  9  1  0  0  0  0 
  7 10  1  0  0  0  0 
 10 11  1  0  0  0  0 
 10 12  1  0  0  0  0 
 12 13  2  0  0  0  0 
 13 14  1  0  0  0  0 
 14 15  1  0  0  0  0 
 14 16  2  0  0  0  0 
 16 17  1  0  0  0  0 
 17 18  2  0  0  0  0 
 18 19  1  0  0  0  0 
 18 20  1  0  0  0  0 
 20 21  2  0  0  0  0 
 21 22  1  0  0  0  0 
 21 23  1  0  0  0  0 
 17 23  1  0  0  0  0 
 12 23  1  0  0  0  0 
 16 24  1  0  0  0  0 
 24 25  1  0  0  0  0 
 13 26  1  0  0  0  0 
 26 27  2  0  0  0  0 
 26 28  1  0  0  0  0 
 28 29  1  0  0  0  0 
 28 30  1  0  0  0  0 
 30 31  1  0  0  0  0 
 31 32  1  0  0  0  0 
 31 33  1  0  0  0  0 
 31 34  1  0  0  0  0 
 34 35  1  0  0  0  0 
 34 36  1  0  0  0  0 
 34 37  1  0  0  0  0 
 37 38  1  0  0  0  0 
  6 39  1  0  0  0  0 
  3 40  1  0  0  0  0 
M  END
> <Rank>
18

> <Priority_score>
0.076

> <Reaction_type>
aromatic_hydroxylation_(para_to_nitrogen)

> <Parent_ID>
76

> <Parent_InChI>
InChI=1S/C16H14FIN4O3/c17-13-7-10(18)1-4-14(13)20-15-12(16(24)21-25-6-5-23)3-2-11-8-19-9-22(11)15/h1-4,7-9,20,23H,5-6H2,(H,21,24)

> <Parent_SMILES>
O=C(NOCCO)c1ccc2cncn2c1Nc1ccc(I)cc1F

$$$$
Molecule 76_metabolite 20
  CDK     0516241031

 40 42  0  0  0  0  0  0  0  0999 V2000
    2.8876    3.7492    0.0000 C   0  0  0  0  0  0  0  0  0  0  0  0
    4.1868    2.9994    0.0000 H   0  0  0  0  0  0  0  0  0  0  0  0
    2.8871    5.2500    0.0000 C   0  0  0  0  0  0  0  0  0  0  0  0
    1.5876    6.0008    0.0000 C   0  0  0  0  0  0  0  0  0  0  0  0
    1.5878    7.5008    0.0000 H   0  0  0  0  0  0  0  0  0  0  0  0
    0.2886    5.2508    0.0000 C   0  0  0  0  0  0  0  0  0  0  0  0
    0.2890    3.7500    0.0000 C   0  0  0  0  0  0  0  0  0  0  0  0
    1.5886    2.9992    0.0000 C   0  0  0  0  0  0  0  0  0  0  0  0
    1.5883    1.4992    0.0000 H   0  0  0  0  0  0  0  0  0  0  0  0
   -1.0100    3.0000    0.0000 N   0  0  0  0  0  0  0  0  0  0  0  0
   -2.3090    3.7500    0.0000 H   0  0  0  0  0  0  0  0  0  0  0  0
   -1.0100    1.0200    0.0000 C   0  0  0  0  0  0  0  0  0  0  0  0
   -2.3100    0.2700    0.0000 C   0  0  0  0  0  0  0  0  0  0  0  0
   -2.3100   -1.2300    0.0000 C   0  0  0  0  0  0  0  0  0  0  0  0
   -3.6089   -1.9802    0.0000 H   0  0  0  0  0  0  0  0  0  0  0  0
   -1.0100   -1.9800    0.0000 C   0  0  0  0  0  0  0  0  0  0  0  0
   -1.0100   -3.4800    0.0000 H   0  0  0  0  0  0  0  0  0  0  0  0
    0.2900   -1.2300    0.0000 C   0  0  0  0  0  0  0  0  0  0  0  0
    1.7200   -1.6900    0.0000 C   0  0  0  0  0  0  0  0  0  0  0  0
    2.1853   -3.1160    0.0000 H   0  0  0  0  0  0  0  0  0  0  0  0
    2.6000   -0.4800    0.0000 N   0  0  0  0  0  0  0  0  0  0  0  0
    1.7200    0.7300    0.0000 C   0  0  0  0  0  0  0  0  0  0  0  0
    2.6449    1.9109    0.0000 H   0  0  0  0  0  0  0  0  0  0  0  0
    0.2900    0.2700    0.0000 N   0  0  0  0  0  0  0  0  0  0  0  0
    0.4487    1.7616    0.0000 O   0  0  0  0  0  0  0  0  0  0  0  0
   -3.6089    1.0202    0.0000 C   0  0  0  0  0  0  0  0  0  0  0  0
   -3.6087    2.5202    0.0000 O   0  0  0  0  0  0  0  0  0  0  0  0
   -4.9081    0.2704    0.0000 N   0  0  0  0  0  0  0  0  0  0  0  0
   -4.9083   -1.2296    0.0000 H   0  0  0  0  0  0  0  0  0  0  0  0
   -6.2070    1.0206    0.0000 O   0  0  0  0  0  0  0  0  0  0  0  0
   -7.5062    0.2708    0.0000 C   0  0  0  0  0  0  0  0  0  0  0  0
   -8.4705   -0.8781    0.0000 H   0  0  0  0  0  0  0  0  0  0  0  0
   -6.5422   -0.8784    0.0000 H   0  0  0  0  0  0  0  0  0  0  0  0
   -8.8051    1.0210    0.0000 C   0  0  0  0  0  0  0  0  0  0  0  0
   -7.8407    2.1700    0.0000 H   0  0  0  0  0  0  0  0  0  0  0  0
   -9.7691    2.1703    0.0000 H   0  0  0  0  0  0  0  0  0  0  0  0
  -10.1042    0.2712    0.0000 O   0  0  0  0  0  0  0  0  0  0  0  0
  -11.4031    1.0215    0.0000 H   0  0  0  0  0  0  0  0  0  0  0  0
   -1.0106    6.0006    0.0000 F   0  0  0  0  0  0  0  0  0  0  0  0
    4.1862    6.0000    0.0000 I   0  0  0  0  0  0  0  0  0  0  0  0
  1  2  1  0  0  0  0 
  1  3  2  0  0  0  0 
  3  4  1  0  0  0  0 
  4  5  1  0  0  0  0 
  4  6  2  0  0  0  0 
  6  7  1  0  0  0  0 
  7  8  2  0  0  0  0 
  1  8  1  0  0  0  0 
  8  9  1  0  0  0  0 
  7 10  1  0  0  0  0 
 10 11  1  0  0  0  0 
 10 12  1  0  0  0  0 
 12 13  2  0  0  0  0 
 13 14  1  0  0  0  0 
 14 15  1  0  0  0  0 
 14 16  2  0  0  0  0 
 16 17  1  0  0  0  0 
 16 18  1  0  0  0  0 
 18 19  2  0  0  0  0 
 19 20  1  0  0  0  0 
 19 21  1  0  0  0  0 
 21 22  2  0  0  0  0 
 22 23  1  0  0  0  0 
 22 24  1  0  0  0  0 
 18 24  1  0  0  0  0 
 12 24  1  0  0  0  0 
 24 25  1  0  0  0  0 
 13 26  1  0  0  0  0 
 26 27  2  0  0  0  0 
 26 28  1  0  0  0  0 
 28 29  1  0  0  0  0 
 28 30  1  0  0  0  0 
 30 31  1  0  0  0  0 
 31 32  1  0  0  0  0 
 31 33  1  0  0  0  0 
 31 34  1  0  0  0  0 
 34 35  1  0  0  0  0 
 34 36  1  0  0  0  0 
 34 37  1  0  0  0  0 
 37 38  1  0  0  0  0 
  6 39  1  0  0  0  0 
  3 40  1  0  0  0  0 
M  CHG  1  24   1
M  CHG  1  25  -1
M  END
> <Rank>
20

> <Priority_score>
0.072

> <Reaction_type>
N-oxidation

> <Parent_ID>
76

> <Parent_InChI>
InChI=1S/C16H14FIN4O3/c17-13-7-10(18)1-4-14(13)20-15-12(16(24)21-25-6-5-23)3-2-11-8-19-9-22(11)15/h1-4,7-9,20,23H,5-6H2,(H,21,24)

> <Parent_SMILES>
O=C(NOCCO)c1ccc2cncn2c1Nc1ccc(I)cc1F

$$$$
Molecule 76_metabolite 21
  CDK     0516241031

 40 42  0  0  0  0  0  0  0  0999 V2000
    2.8876    3.7492    0.0000 C   0  0  0  0  0  0  0  0  0  0  0  0
    4.1868    2.9994    0.0000 H   0  0  0  0  0  0  0  0  0  0  0  0
    2.8871    5.2500    0.0000 C   0  0  0  0  0  0  0  0  0  0  0  0
    1.5876    6.0008    0.0000 C   0  0  0  0  0  0  0  0  0  0  0  0
    1.5878    7.5008    0.0000 H   0  0  0  0  0  0  0  0  0  0  0  0
    0.2886    5.2508    0.0000 C   0  0  0  0  0  0  0  0  0  0  0  0
    0.2890    3.7500    0.0000 C   0  0  0  0  0  0  0  0  0  0  0  0
    1.5886    2.9992    0.0000 C   0  0  0  0  0  0  0  0  0  0  0  0
    1.5883    1.4992    0.0000 H   0  0  0  0  0  0  0  0  0  0  0  0
   -1.0100    3.0000    0.0000 N   0  0  0  0  0  0  0  0  0  0  0  0
   -2.3090    3.7500    0.0000 H   0  0  0  0  0  0  0  0  0  0  0  0
   -1.0100    1.0200    0.0000 C   0  0  0  0  0  0  0  0  0  0  0  0
   -2.3100    0.2700    0.0000 C   0  0  0  0  0  0  0  0  0  0  0  0
   -2.3100   -1.2300    0.0000 C   0  0  0  0  0  0  0  0  0  0  0  0
   -1.0100   -1.9800    0.0000 C   0  0  0  0  0  0  0  0  0  0  0  0
   -1.0100   -3.4800    0.0000 H   0  0  0  0  0  0  0  0  0  0  0  0
    0.2900   -1.2300    0.0000 C   0  0  0  0  0  0  0  0  0  0  0  0
    1.7200   -1.6900    0.0000 C   0  0  0  0  0  0  0  0  0  0  0  0
    2.1853   -3.1160    0.0000 H   0  0  0  0  0  0  0  0  0  0  0  0
    2.6000   -0.4800    0.0000 N   0  0  0  0  0  0  0  0  0  0  0  0
    1.7200    0.7300    0.0000 C   0  0  0  0  0  0  0  0  0  0  0  0
    2.6449    1.9109    0.0000 H   0  0  0  0  0  0  0  0  0  0  0  0
    0.2900    0.2700    0.0000 N   0  0  0  0  0  0  0  0  0  0  0  0
   -3.6089   -1.9802    0.0000 O   0  0  0  0  0  0  0  0  0  0  0  0
   -3.6087   -3.4802    0.0000 H   0  0  0  0  0  0  0  0  0  0  0  0
   -3.6089    1.0202    0.0000 C   0  0  0  0  0  0  0  0  0  0  0  0
   -3.6087    2.5202    0.0000 O   0  0  0  0  0  0  0  0  0  0  0  0
   -4.9081    0.2704    0.0000 N   0  0  0  0  0  0  0  0  0  0  0  0
   -4.9083   -1.2296    0.0000 H   0  0  0  0  0  0  0  0  0  0  0  0
   -6.2070    1.0206    0.0000 O   0  0  0  0  0  0  0  0  0  0  0  0
   -7.5062    0.2708    0.0000 C   0  0  0  0  0  0  0  0  0  0  0  0
   -8.4705   -0.8781    0.0000 H   0  0  0  0  0  0  0  0  0  0  0  0
   -6.5422   -0.8784    0.0000 H   0  0  0  0  0  0  0  0  0  0  0  0
   -8.8051    1.0210    0.0000 C   0  0  0  0  0  0  0  0  0  0  0  0
   -7.8407    2.1700    0.0000 H   0  0  0  0  0  0  0  0  0  0  0  0
   -9.7691    2.1703    0.0000 H   0  0  0  0  0  0  0  0  0  0  0  0
  -10.1042    0.2712    0.0000 O   0  0  0  0  0  0  0  0  0  0  0  0
  -11.4031    1.0215    0.0000 H   0  0  0  0  0  0  0  0  0  0  0  0
   -1.0106    6.0006    0.0000 F   0  0  0  0  0  0  0  0  0  0  0  0
    4.1862    6.0000    0.0000 I   0  0  0  0  0  0  0  0  0  0  0  0
  1  2  1  0  0  0  0 
  1  3  2  0  0  0  0 
  3  4  1  0  0  0  0 
  4  5  1  0  0  0  0 
  4  6  2  0  0  0  0 
  6  7  1  0  0  0  0 
  7  8  2  0  0  0  0 
  1  8  1  0  0  0  0 
  8  9  1  0  0  0  0 
  7 10  1  0  0  0  0 
 10 11  1  0  0  0  0 
 10 12  1  0  0  0  0 
 12 13  2  0  0  0  0 
 13 14  1  0  0  0  0 
 14 15  2  0  0  0  0 
 15 16  1  0  0  0  0 
 15 17  1  0  0  0  0 
 17 18  2  0  0  0  0 
 18 19  1  0  0  0  0 
 18 20  1  0  0  0  0 
 20 21  2  0  0  0  0 
 21 22  1  0  0  0  0 
 21 23  1  0  0  0  0 
 17 23  1  0  0  0  0 
 12 23  1  0  0  0  0 
 14 24  1  0  0  0  0 
 24 25  1  0  0  0  0 
 13 26  1  0  0  0  0 
 26 27  2  0  0  0  0 
 26 28  1  0  0  0  0 
 28 29  1  0  0  0  0 
 28 30  1  0  0  0  0 
 30 31  1  0  0  0  0 
 31 32  1  0  0  0  0 
 31 33  1  0  0  0  0 
 31 34  1  0  0  0  0 
 34 35  1  0  0  0  0 
 34 36  1  0  0  0  0 
 34 37  1  0  0  0  0 
 37 38  1  0  0  0  0 
  6 39  1  0  0  0  0 
  3 40  1  0  0  0  0 
M  END
> <Rank>
20

> <Priority_score>
0.072

> <Reaction_type>
aromatic_hydroxylation_(para_to_carbon)

> <Parent_ID>
76

> <Parent_InChI>
InChI=1S/C16H14FIN4O3/c17-13-7-10(18)1-4-14(13)20-15-12(16(24)21-25-6-5-23)3-2-11-8-19-9-22(11)15/h1-4,7-9,20,23H,5-6H2,(H,21,24)

> <Parent_SMILES>
O=C(NOCCO)c1ccc2cncn2c1Nc1ccc(I)cc1F

$$$$
Molecule 76_metabolite 22
  CDK     0516241031

 40 42  0  0  0  0  0  0  0  0999 V2000
    2.8876    3.7492    0.0000 C   0  0  0  0  0  0  0  0  0  0  0  0
    4.1868    2.9994    0.0000 H   0  0  0  0  0  0  0  0  0  0  0  0
    2.8871    5.2500    0.0000 C   0  0  0  0  0  0  0  0  0  0  0  0
    1.5876    6.0008    0.0000 C   0  0  0  0  0  0  0  0  0  0  0  0
    1.5878    7.5008    0.0000 H   0  0  0  0  0  0  0  0  0  0  0  0
    0.2886    5.2508    0.0000 C   0  0  0  0  0  0  0  0  0  0  0  0
    0.2890    3.7500    0.0000 C   0  0  0  0  0  0  0  0  0  0  0  0
    1.5886    2.9992    0.0000 C   0  0  0  0  0  0  0  0  0  0  0  0
    1.5883    1.4992    0.0000 H   0  0  0  0  0  0  0  0  0  0  0  0
   -1.0100    3.0000    0.0000 N   0  0  0  0  0  0  0  0  0  0  0  0
   -2.3090    3.7500    0.0000 H   0  0  0  0  0  0  0  0  0  0  0  0
   -1.0100    1.0200    0.0000 C   0  0  0  0  0  0  0  0  0  0  0  0
   -2.3100    0.2700    0.0000 C   0  0  0  0  0  0  0  0  0  0  0  0
   -2.3100   -1.2300    0.0000 C   0  0  0  0  0  0  0  0  0  0  0  0
   -3.6089   -1.9802    0.0000 H   0  0  0  0  0  0  0  0  0  0  0  0
   -1.0100   -1.9800    0.0000 C   0  0  0  0  0  0  0  0  0  0  0  0
   -1.0100   -3.4800    0.0000 H   0  0  0  0  0  0  0  0  0  0  0  0
    0.2900   -1.2300    0.0000 C   0  0  0  0  0  0  0  0  0  0  0  0
    1.7200   -1.6900    0.0000 C   0  0  0  0  0  0  0  0  0  0  0  0
    2.6000   -0.4800    0.0000 N   0  0  0  0  0  0  0  0  0  0  0  0
    1.7200    0.7300    0.0000 C   0  0  0  0  0  0  0  0  0  0  0  0
    2.6449    1.9109    0.0000 H   0  0  0  0  0  0  0  0  0  0  0  0
    0.2900    0.2700    0.0000 N   0  0  0  0  0  0  0  0  0  0  0  0
    2.1853   -3.1160    0.0000 O   0  0  0  0  0  0  0  0  0  0  0  0
    3.6529   -3.4261    0.0000 H   0  0  0  0  0  0  0  0  0  0  0  0
   -3.6089    1.0202    0.0000 C   0  0  0  0  0  0  0  0  0  0  0  0
   -3.6087    2.5202    0.0000 O   0  0  0  0  0  0  0  0  0  0  0  0
   -4.9081    0.2704    0.0000 N   0  0  0  0  0  0  0  0  0  0  0  0
   -4.9083   -1.2296    0.0000 H   0  0  0  0  0  0  0  0  0  0  0  0
   -6.2070    1.0206    0.0000 O   0  0  0  0  0  0  0  0  0  0  0  0
   -7.5062    0.2708    0.0000 C   0  0  0  0  0  0  0  0  0  0  0  0
   -8.4705   -0.8781    0.0000 H   0  0  0  0  0  0  0  0  0  0  0  0
   -6.5422   -0.8784    0.0000 H   0  0  0  0  0  0  0  0  0  0  0  0
   -8.8051    1.0210    0.0000 C   0  0  0  0  0  0  0  0  0  0  0  0
   -7.8407    2.1700    0.0000 H   0  0  0  0  0  0  0  0  0  0  0  0
   -9.7691    2.1703    0.0000 H   0  0  0  0  0  0  0  0  0  0  0  0
  -10.1042    0.2712    0.0000 O   0  0  0  0  0  0  0  0  0  0  0  0
  -11.4031    1.0215    0.0000 H   0  0  0  0  0  0  0  0  0  0  0  0
   -1.0106    6.0006    0.0000 F   0  0  0  0  0  0  0  0  0  0  0  0
    4.1862    6.0000    0.0000 I   0  0  0  0  0  0  0  0  0  0  0  0
  1  2  1  0  0  0  0 
  1  3  2  0  0  0  0 
  3  4  1  0  0  0  0 
  4  5  1  0  0  0  0 
  4  6  2  0  0  0  0 
  6  7  1  0  0  0  0 
  7  8  2  0  0  0  0 
  1  8  1  0  0  0  0 
  8  9  1  0  0  0  0 
  7 10  1  0  0  0  0 
 10 11  1  0  0  0  0 
 10 12  1  0  0  0  0 
 12 13  2  0  0  0  0 
 13 14  1  0  0  0  0 
 14 15  1  0  0  0  0 
 14 16  2  0  0  0  0 
 16 17  1  0  0  0  0 
 16 18  1  0  0  0  0 
 18 19  2  0  0  0  0 
 19 20  1  0  0  0  0 
 20 21  2  0  0  0  0 
 21 22  1  0  0  0  0 
 21 23  1  0  0  0  0 
 18 23  1  0  0  0  0 
 12 23  1  0  0  0  0 
 19 24  1  0  0  0  0 
 24 25  1  0  0  0  0 
 13 26  1  0  0  0  0 
 26 27  2  0  0  0  0 
 26 28  1  0  0  0  0 
 28 29  1  0  0  0  0 
 28 30  1  0  0  0  0 
 30 31  1  0  0  0  0 
 31 32  1  0  0  0  0 
 31 33  1  0  0  0  0 
 31 34  1  0  0  0  0 
 34 35  1  0  0  0  0 
 34 36  1  0  0  0  0 
 34 37  1  0  0  0  0 
 37 38  1  0  0  0  0 
  6 39  1  0  0  0  0 
  3 40  1  0  0  0  0 
M  END
> <Rank>
22

> <Priority_score>
0.068

> <Reaction_type>
aromatic hydroxylation

> <Parent_ID>
76

> <Parent_InChI>
InChI=1S/C16H14FIN4O3/c17-13-7-10(18)1-4-14(13)20-15-12(16(24)21-25-6-5-23)3-2-11-8-19-9-22(11)15/h1-4,7-9,20,23H,5-6H2,(H,21,24)

> <Parent_SMILES>
O=C(NOCCO)c1ccc2cncn2c1Nc1ccc(I)cc1F

$$$$
Molecule 76_metabolite 23
  CDK     0516241031

 74 76  0  0  0  0  0  0  0  0999 V2000
   -9.2797    1.8952    0.0000 C   0  0  0  0  0  0  0  0  0  0  0  0
   -9.2802    3.3952    0.0000 H   0  0  0  0  0  0  0  0  0  0  0  0
   -7.9795    1.1457    0.0000 C   0  0  0  0  0  0  0  0  0  0  0  0
   -6.6808    1.8963    0.0000 H   0  0  0  0  0  0  0  0  0  0  0  0
   -7.9790   -0.3543    0.0000 C   0  0  0  0  0  0  0  0  0  0  0  0
   -9.2787   -1.1048    0.0000 C   0  0  0  0  0  0  0  0  0  0  0  0
   -9.2781   -3.0848    0.0000 N   0  0  0  0  0  0  0  0  0  0  0  0
   -7.9788   -3.8343    0.0000 H   0  0  0  0  0  0  0  0  0  0  0  0
  -10.5769   -3.8352    0.0000 C   0  0  0  0  0  0  0  0  0  0  0  0
  -10.5767   -5.3360    0.0000 C   0  0  0  0  0  0  0  0  0  0  0  0
   -9.2773   -6.0854    0.0000 H   0  0  0  0  0  0  0  0  0  0  0  0
  -11.8758   -6.0875    0.0000 C   0  0  0  0  0  0  0  0  0  0  0  0
  -11.8749   -7.5875    0.0000 H   0  0  0  0  0  0  0  0  0  0  0  0
  -13.1752   -5.3381    0.0000 C   0  0  0  0  0  0  0  0  0  0  0  0
  -13.1755   -3.8372    0.0000 C   0  0  0  0  0  0  0  0  0  0  0  0
  -14.4749   -3.0879    0.0000 H   0  0  0  0  0  0  0  0  0  0  0  0
  -11.8763   -3.0858    0.0000 C   0  0  0  0  0  0  0  0  0  0  0  0
  -11.8773   -1.5858    0.0000 F   0  0  0  0  0  0  0  0  0  0  0  0
  -14.4740   -6.0885    0.0000 S   0  0  0  0  0  0  0  0  0  0  0  0
  -14.4735   -7.5885    0.0000 C   0  0  0  0  0  0  0  0  0  0  0  0
  -13.9601   -8.9979    0.0000 H   0  0  0  0  0  0  0  0  0  0  0  0
  -12.9964   -7.3276    0.0000 H   0  0  0  0  0  0  0  0  0  0  0  0
  -15.7723   -8.3389    0.0000 C   0  0  0  0  0  0  0  0  0  0  0  0
  -16.2858   -6.9295    0.0000 H   0  0  0  0  0  0  0  0  0  0  0  0
  -17.2495   -8.5999    0.0000 C   0  0  0  0  0  0  0  0  0  0  0  0
  -17.7620  -10.0096    0.0000 O   0  0  0  0  0  0  0  0  0  0  0  0
  -18.2140   -7.4511    0.0000 N   0  0  0  0  0  0  0  0  0  0  0  0
  -17.7014   -6.0414    0.0000 H   0  0  0  0  0  0  0  0  0  0  0  0
  -19.6911   -7.7120    0.0000 C   0  0  0  0  0  0  0  0  0  0  0  0
  -19.1777   -9.1214    0.0000 H   0  0  0  0  0  0  0  0  0  0  0  0
  -20.9899   -8.4625    0.0000 H   0  0  0  0  0  0  0  0  0  0  0  0
  -20.6557   -6.5633    0.0000 C   0  0  0  0  0  0  0  0  0  0  0  0
  -20.1431   -5.1536    0.0000 O   0  0  0  0  0  0  0  0  0  0  0  0
  -22.1328   -6.8242    0.0000 O   0  0  0  0  0  0  0  0  0  0  0  0
  -23.0974   -5.6755    0.0000 H   0  0  0  0  0  0  0  0  0  0  0  0
  -15.7719   -9.8389    0.0000 N   0  0  0  0  0  0  0  0  0  0  0  0
  -17.0707  -10.5893    0.0000 H   0  0  0  0  0  0  0  0  0  0  0  0
  -14.4726  -10.5885    0.0000 C   0  0  0  0  0  0  0  0  0  0  0  0
  -13.1738   -9.8381    0.0000 O   0  0  0  0  0  0  0  0  0  0  0  0
  -14.4721  -12.0885    0.0000 C   0  0  0  0  0  0  0  0  0  0  0  0
  -14.9847  -13.4982    0.0000 H   0  0  0  0  0  0  0  0  0  0  0  0
  -15.9494  -11.8285    0.0000 H   0  0  0  0  0  0  0  0  0  0  0  0
  -13.1728  -12.8381    0.0000 C   0  0  0  0  0  0  0  0  0  0  0  0
  -12.6602  -11.4284    0.0000 H   0  0  0  0  0  0  0  0  0  0  0  0
  -11.6955  -13.0981    0.0000 H   0  0  0  0  0  0  0  0  0  0  0  0
  -13.1723  -14.3381    0.0000 C   0  0  0  0  0  0  0  0  0  0  0  0
  -12.6589  -15.7475    0.0000 H   0  0  0  0  0  0  0  0  0  0  0  0
  -14.4711  -15.0885    0.0000 C   0  0  0  0  0  0  0  0  0  0  0  0
  -15.7704  -14.3389    0.0000 O   0  0  0  0  0  0  0  0  0  0  0  0
  -14.4707  -16.5885    0.0000 O   0  0  0  0  0  0  0  0  0  0  0  0
  -15.7695  -17.3389    0.0000 H   0  0  0  0  0  0  0  0  0  0  0  0
  -11.2225  -13.9936    0.0000 N   0  0  0  0  0  0  0  0  0  0  0  0
  -10.2580  -15.1424    0.0000 H   0  0  0  0  0  0  0  0  0  0  0  0
  -10.7100  -12.5839    0.0000 H   0  0  0  0  0  0  0  0  0  0  0  0
  -10.5790   -0.3552    0.0000 N   0  0  0  0  0  0  0  0  0  0  0  0
  -12.0088   -0.8156    0.0000 C   0  0  0  0  0  0  0  0  0  0  0  0
  -12.4737   -2.2418    0.0000 H   0  0  0  0  0  0  0  0  0  0  0  0
  -12.8892    0.3941    0.0000 N   0  0  0  0  0  0  0  0  0  0  0  0
  -12.0096    1.6044    0.0000 C   0  0  0  0  0  0  0  0  0  0  0  0
  -12.4753    3.0302    0.0000 H   0  0  0  0  0  0  0  0  0  0  0  0
  -10.5795    1.1448    0.0000 C   0  0  0  0  0  0  0  0  0  0  0  0
   -6.6798   -1.1041    0.0000 C   0  0  0  0  0  0  0  0  0  0  0  0
   -6.6796   -2.6041    0.0000 O   0  0  0  0  0  0  0  0  0  0  0  0
   -5.3809   -0.3539    0.0000 N   0  0  0  0  0  0  0  0  0  0  0  0
   -4.0818   -1.1037    0.0000 H   0  0  0  0  0  0  0  0  0  0  0  0
   -5.3812    1.1461    0.0000 O   0  0  0  0  0  0  0  0  0  0  0  0
   -4.0822    1.8963    0.0000 C   0  0  0  0  0  0  0  0  0  0  0  0
   -3.5690    0.4868    0.0000 H   0  0  0  0  0  0  0  0  0  0  0  0
   -2.6051    2.1570    0.0000 H   0  0  0  0  0  0  0  0  0  0  0  0
   -4.0825    3.3963    0.0000 C   0  0  0  0  0  0  0  0  0  0  0  0
   -4.5957    4.8057    0.0000 H   0  0  0  0  0  0  0  0  0  0  0  0
   -5.5596    3.1356    0.0000 H   0  0  0  0  0  0  0  0  0  0  0  0
   -2.7836    4.1465    0.0000 O   0  0  0  0  0  0  0  0  0  0  0  0
   -2.7838    5.6465    0.0000 H   0  0  0  0  0  0  0  0  0  0  0  0
  1  2  1  0  0  0  0 
  1  3  2  0  0  0  0 
  3  4  1  0  0  0  0 
  3  5  1  0  0  0  0 
  5  6  2  0  0  0  0 
  6  7  1  0  0  0  0 
  7  8  1  0  0  0  0 
  7  9  1  0  0  0  0 
  9 10  2  0  0  0  0 
 10 11  1  0  0  0  0 
 10 12  1  0  0  0  0 
 12 13  1  0  0  0  0 
 12 14  2  0  0  0  0 
 14 15  1  0  0  0  0 
 15 16  1  0  0  0  0 
 15 17  2  0  0  0  0 
  9 17  1  0  0  0  0 
 17 18  1  0  0  0  0 
 14 19  1  0  0  0  0 
 19 20  1  0  0  0  0 
 20 21  1  0  0  0  0 
 20 22  1  0  0  0  0 
 20 23  1  0  0  0  0 
 23 24  1  0  0  0  0 
 23 25  1  0  0  0  0 
 25 26  2  0  0  0  0 
 25 27  1  0  0  0  0 
 27 28  1  0  0  0  0 
 27 29  1  0  0  0  0 
 29 30  1  0  0  0  0 
 29 31  1  0  0  0  0 
 29 32  1  0  0  0  0 
 32 33  2  0  0  0  0 
 32 34  1  0  0  0  0 
 34 35  1  0  0  0  0 
 23 36  1  0  0  0  0 
 36 37  1  0  0  0  0 
 36 38  1  0  0  0  0 
 38 39  2  0  0  0  0 
 38 40  1  0  0  0  0 
 40 41  1  0  0  0  0 
 40 42  1  0  0  0  0 
 40 43  1  0  0  0  0 
 43 44  1  0  0  0  0 
 43 45  1  0  0  0  0 
 43 46  1  0  0  0  0 
 46 47  1  0  0  0  0 
 46 48  1  0  0  0  0 
 48 49  2  0  0  0  0 
 48 50  1  0  0  0  0 
 50 51  1  0  0  0  0 
 46 52  1  0  0  0  0 
 52 53  1  0  0  0  0 
 52 54  1  0  0  0  0 
  6 55  1  0  0  0  0 
 55 56  1  0  0  0  0 
 56 57  1  0  0  0  0 
 56 58  2  0  0  0  0 
 58 59  1  0  0  0  0 
 59 60  1  0  0  0  0 
 59 61  2  0  0  0  0 
  1 61  1  0  0  0  0 
 55 61  1  0  0  0  0 
  5 62  1  0  0  0  0 
 62 63  2  0  0  0  0 
 62 64  1  0  0  0  0 
 64 65  1  0  0  0  0 
 64 66  1  0  0  0  0 
 66 67  1  0  0  0  0 
 67 68  1  0  0  0  0 
 67 69  1  0  0  0  0 
 67 70  1  0  0  0  0 
 70 71  1  0  0  0  0 
 70 72  1  0  0  0  0 
 70 73  1  0  0  0  0 
 73 74  1  0  0  0  0 
M  END
> <Rank>
23

> <Priority_score>
0.048

> <Reaction_type>
glutathione_conjugation_(aromatic_nucleophilic_substitution)

> <Parent_ID>
76

> <Parent_InChI>
InChI=1S/C16H14FIN4O3/c17-13-7-10(18)1-4-14(13)20-15-12(16(24)21-25-6-5-23)3-2-11-8-19-9-22(11)15/h1-4,7-9,20,23H,5-6H2,(H,21,24)

> <Parent_SMILES>
O=C(NOCCO)c1ccc2cncn2c1Nc1ccc(I)cc1F

$$$$
Molecule 76_metabolite 24
  CDK     0516241031

 40 42  0  0  0  0  0  0  0  0999 V2000
    2.8876    3.7492    0.0000 C   0  0  0  0  0  0  0  0  0  0  0  0
    4.1868    2.9994    0.0000 H   0  0  0  0  0  0  0  0  0  0  0  0
    2.8871    5.2500    0.0000 C   0  0  0  0  0  0  0  0  0  0  0  0
    1.5876    6.0008    0.0000 C   0  0  0  0  0  0  0  0  0  0  0  0
    1.5878    7.5008    0.0000 H   0  0  0  0  0  0  0  0  0  0  0  0
    0.2886    5.2508    0.0000 C   0  0  0  0  0  0  0  0  0  0  0  0
    0.2890    3.7500    0.0000 C   0  0  0  0  0  0  0  0  0  0  0  0
    1.5886    2.9992    0.0000 C   0  0  0  0  0  0  0  0  0  0  0  0
    1.5883    1.4992    0.0000 H   0  0  0  0  0  0  0  0  0  0  0  0
   -1.0100    3.0000    0.0000 N   0  0  0  0  0  0  0  0  0  0  0  0
   -2.3090    3.7500    0.0000 H   0  0  0  0  0  0  0  0  0  0  0  0
   -1.0100    1.0200    0.0000 C   0  0  0  0  0  0  0  0  0  0  0  0
   -2.3100    0.2700    0.0000 C   0  0  0  0  0  0  0  0  0  0  0  0
   -2.3100   -1.2300    0.0000 C   0  0  0  0  0  0  0  0  0  0  0  0
   -3.6089   -1.9802    0.0000 H   0  0  0  0  0  0  0  0  0  0  0  0
   -1.0100   -1.9800    0.0000 C   0  0  0  0  0  0  0  0  0  0  0  0
   -1.0100   -3.4800    0.0000 H   0  0  0  0  0  0  0  0  0  0  0  0
    0.2900   -1.2300    0.0000 C   0  0  0  0  0  0  0  0  0  0  0  0
    1.7200   -1.6900    0.0000 C   0  0  0  0  0  0  0  0  0  0  0  0
    2.1853   -3.1160    0.0000 H   0  0  0  0  0  0  0  0  0  0  0  0
    2.6000   -0.4800    0.0000 N   0  0  0  0  0  0  0  0  0  0  0  0
    1.7200    0.7300    0.0000 C   0  0  0  0  0  0  0  0  0  0  0  0
    2.6449    1.9109    0.0000 H   0  0  0  0  0  0  0  0  0  0  0  0
    0.2900    0.2700    0.0000 N   0  0  0  0  0  0  0  0  0  0  0  0
   -3.6089    1.0202    0.0000 C   0  0  0  0  0  0  0  0  0  0  0  0
   -3.6087    2.5202    0.0000 O   0  0  0  0  0  0  0  0  0  0  0  0
   -4.9081    0.2704    0.0000 N   0  0  0  0  0  0  0  0  0  0  0  0
   -4.9083   -1.2296    0.0000 H   0  0  0  0  0  0  0  0  0  0  0  0
   -6.2070    1.0206    0.0000 O   0  0  0  0  0  0  0  0  0  0  0  0
   -7.5062    0.2708    0.0000 C   0  0  0  0  0  0  0  0  0  0  0  0
   -8.4705   -0.8781    0.0000 H   0  0  0  0  0  0  0  0  0  0  0  0
   -6.5422   -0.8784    0.0000 H   0  0  0  0  0  0  0  0  0  0  0  0
   -8.8051    1.0210    0.0000 C   0  0  0  0  0  0  0  0  0  0  0  0
   -7.8407    2.1700    0.0000 H   0  0  0  0  0  0  0  0  0  0  0  0
  -10.1042    0.2712    0.0000 O   0  0  0  0  0  0  0  0  0  0  0  0
  -11.4031    1.0215    0.0000 H   0  0  0  0  0  0  0  0  0  0  0  0
   -9.7691    2.1703    0.0000 O   0  0  0  0  0  0  0  0  0  0  0  0
  -11.2463    1.9100    0.0000 H   0  0  0  0  0  0  0  0  0  0  0  0
   -1.0106    6.0006    0.0000 F   0  0  0  0  0  0  0  0  0  0  0  0
    4.1862    6.0000    0.0000 I   0  0  0  0  0  0  0  0  0  0  0  0
  1  2  1  0  0  0  0 
  1  3  2  0  0  0  0 
  3  4  1  0  0  0  0 
  4  5  1  0  0  0  0 
  4  6  2  0  0  0  0 
  6  7  1  0  0  0  0 
  7  8  2  0  0  0  0 
  1  8  1  0  0  0  0 
  8  9  1  0  0  0  0 
  7 10  1  0  0  0  0 
 10 11  1  0  0  0  0 
 10 12  1  0  0  0  0 
 12 13  2  0  0  0  0 
 13 14  1  0  0  0  0 
 14 15  1  0  0  0  0 
 14 16  2  0  0  0  0 
 16 17  1  0  0  0  0 
 16 18  1  0  0  0  0 
 18 19  2  0  0  0  0 
 19 20  1  0  0  0  0 
 19 21  1  0  0  0  0 
 21 22  2  0  0  0  0 
 22 23  1  0  0  0  0 
 22 24  1  0  0  0  0 
 18 24  1  0  0  0  0 
 12 24  1  0  0  0  0 
 13 25  1  0  0  0  0 
 25 26  2  0  0  0  0 
 25 27  1  0  0  0  0 
 27 28  1  0  0  0  0 
 27 29  1  0  0  0  0 
 29 30  1  0  0  0  0 
 30 31  1  0  0  0  0 
 30 32  1  0  0  0  0 
 30 33  1  0  0  0  0 
 33 34  1  0  0  0  0 
 33 35  1  0  0  0  0 
 35 36  1  0  0  0  0 
 33 37  1  0  0  0  0 
 37 38  1  0  0  0  0 
  6 39  1  0  0  0  0 
  3 40  1  0  0  0  0 
M  END
> <Rank>
24

> <Priority_score>
0.044

> <Reaction_type>
aliphatic hydroxylation

> <Parent_ID>
76

> <Parent_InChI>
InChI=1S/C16H14FIN4O3/c17-13-7-10(18)1-4-14(13)20-15-12(16(24)21-25-6-5-23)3-2-11-8-19-9-22(11)15/h1-4,7-9,20,23H,5-6H2,(H,21,24)

> <Parent_SMILES>
O=C(NOCCO)c1ccc2cncn2c1Nc1ccc(I)cc1F

$$$$
Molecule 76_metabolite 25
  CDK     0516241031

 29 30  0  0  0  0  0  0  0  0999 V2000
   -1.0100    1.5000    0.0000 C   0  0  0  0  0  0  0  0  0  0  0  0
   -1.0100    3.0000    0.0000 H   0  0  0  0  0  0  0  0  0  0  0  0
   -2.3100    0.7500    0.0000 C   0  0  0  0  0  0  0  0  0  0  0  0
   -3.6089    1.5002    0.0000 H   0  0  0  0  0  0  0  0  0  0  0  0
   -2.3100   -0.7500    0.0000 C   0  0  0  0  0  0  0  0  0  0  0  0
   -1.0100   -1.5000    0.0000 C   0  0  0  0  0  0  0  0  0  0  0  0
   -1.0100   -3.0000    0.0000 N   0  0  0  0  0  0  0  0  0  0  0  0
   -2.3090   -3.7500    0.0000 H   0  0  0  0  0  0  0  0  0  0  0  0
    0.2890   -3.7500    0.0000 H   0  0  0  0  0  0  0  0  0  0  0  0
    0.2900   -0.7500    0.0000 N   0  0  0  0  0  0  0  0  0  0  0  0
    1.7200   -1.2100    0.0000 C   0  0  0  0  0  0  0  0  0  0  0  0
    2.1853   -2.6360    0.0000 H   0  0  0  0  0  0  0  0  0  0  0  0
    2.6000    0.0000    0.0000 N   0  0  0  0  0  0  0  0  0  0  0  0
    1.7200    1.2100    0.0000 C   0  0  0  0  0  0  0  0  0  0  0  0
    2.1853    2.6360    0.0000 H   0  0  0  0  0  0  0  0  0  0  0  0
    0.2900    0.7500    0.0000 C   0  0  0  0  0  0  0  0  0  0  0  0
   -3.6089   -1.5002    0.0000 C   0  0  0  0  0  0  0  0  0  0  0  0
   -3.6087   -3.0002    0.0000 O   0  0  0  0  0  0  0  0  0  0  0  0
   -4.9081   -0.7504    0.0000 N   0  0  0  0  0  0  0  0  0  0  0  0
   -4.9083    0.7496    0.0000 H   0  0  0  0  0  0  0  0  0  0  0  0
   -6.2070   -1.5006    0.0000 O   0  0  0  0  0  0  0  0  0  0  0  0
   -7.5062   -0.7508    0.0000 C   0  0  0  0  0  0  0  0  0  0  0  0
   -6.5422    0.3984    0.0000 H   0  0  0  0  0  0  0  0  0  0  0  0
   -8.4705    0.3981    0.0000 H   0  0  0  0  0  0  0  0  0  0  0  0
   -8.8051   -1.5010    0.0000 C   0  0  0  0  0  0  0  0  0  0  0  0
   -9.7691   -2.6503    0.0000 H   0  0  0  0  0  0  0  0  0  0  0  0
   -7.8407   -2.6500    0.0000 H   0  0  0  0  0  0  0  0  0  0  0  0
  -10.1042   -0.7512    0.0000 O   0  0  0  0  0  0  0  0  0  0  0  0
  -11.4031   -1.5015    0.0000 H   0  0  0  0  0  0  0  0  0  0  0  0
  1  2  1  0  0  0  0 
  1  3  2  0  0  0  0 
  3  4  1  0  0  0  0 
  3  5  1  0  0  0  0 
  5  6  2  0  0  0  0 
  6  7  1  0  0  0  0 
  7  8  1  0  0  0  0 
  7  9  1  0  0  0  0 
  6 10  1  0  0  0  0 
 10 11  1  0  0  0  0 
 11 12  1  0  0  0  0 
 11 13  2  0  0  0  0 
 13 14  1  0  0  0  0 
 14 15  1  0  0  0  0 
 14 16  2  0  0  0  0 
  1 16  1  0  0  0  0 
 10 16  1  0  0  0  0 
  5 17  1  0  0  0  0 
 17 18  2  0  0  0  0 
 17 19  1  0  0  0  0 
 19 20  1  0  0  0  0 
 19 21  1  0  0  0  0 
 21 22  1  0  0  0  0 
 22 23  1  0  0  0  0 
 22 24  1  0  0  0  0 
 22 25  1  0  0  0  0 
 25 26  1  0  0  0  0 
 25 27  1  0  0  0  0 
 25 28  1  0  0  0  0 
 28 29  1  0  0  0  0 
M  END
> <Rank>
25

> <Priority_score>
0.026400000000000003

> <Reaction_type>
N-dearylation

> <Parent_ID>
76

> <Parent_InChI>
InChI=1S/C16H14FIN4O3/c17-13-7-10(18)1-4-14(13)20-15-12(16(24)21-25-6-5-23)3-2-11-8-19-9-22(11)15/h1-4,7-9,20,23H,5-6H2,(H,21,24)

> <Parent_SMILES>
O=C(NOCCO)c1ccc2cncn2c1Nc1ccc(I)cc1F

$$$$
Molecule 76_metabolite 26
  CDK     0516241031

 13 13  0  0  0  0  0  0  0  0999 V2000
    1.1217   -0.7500    0.0000 C   0  0  0  0  0  0  0  0  0  0  0  0
    2.4206   -1.5002    0.0000 H   0  0  0  0  0  0  0  0  0  0  0  0
   -0.1783   -1.5000    0.0000 C   0  0  0  0  0  0  0  0  0  0  0  0
   -0.1783   -3.0000    0.0000 H   0  0  0  0  0  0  0  0  0  0  0  0
   -1.4783   -0.7500    0.0000 C   0  0  0  0  0  0  0  0  0  0  0  0
   -2.7772   -1.5002    0.0000 O   0  0  0  0  0  0  0  0  0  0  0  0
   -1.4783    0.7500    0.0000 C   0  0  0  0  0  0  0  0  0  0  0  0
   -0.1783    1.5000    0.0000 C   0  0  0  0  0  0  0  0  0  0  0  0
   -0.1783    3.0000    0.0000 H   0  0  0  0  0  0  0  0  0  0  0  0
    1.1217    0.7500    0.0000 C   0  0  0  0  0  0  0  0  0  0  0  0
    2.5989    0.4897    0.0000 H   0  0  0  0  0  0  0  0  0  0  0  0
    1.6344    2.1596    0.0000 I   0  0  0  0  0  0  0  0  0  0  0  0
   -2.7772    1.5002    0.0000 F   0  0  0  0  0  0  0  0  0  0  0  0
  1  2  1  0  0  0  0 
  1  3  2  0  0  0  0 
  3  4  1  0  0  0  0 
  3  5  1  0  0  0  0 
  5  6  2  0  0  0  0 
  5  7  1  0  0  0  0 
  7  8  2  0  0  0  0 
  8  9  1  0  0  0  0 
  8 10  1  0  0  0  0 
  1 10  1  0  0  0  0 
 10 11  1  0  0  0  0 
 10 12  1  0  0  0  0 
  7 13  1  0  0  0  0 
M  END
> <Rank>
25

> <Priority_score>
0.026400000000000003

> <Reaction_type>
N-dearylation

> <Parent_ID>
76

> <Parent_InChI>
InChI=1S/C16H14FIN4O3/c17-13-7-10(18)1-4-14(13)20-15-12(16(24)21-25-6-5-23)3-2-11-8-19-9-22(11)15/h1-4,7-9,20,23H,5-6H2,(H,21,24)

> <Parent_SMILES>
O=C(NOCCO)c1ccc2cncn2c1Nc1ccc(I)cc1F

$$$$
Molecule 76_metabolite 27
  CDK     0516241031

 31 33  0  0  0  0  0  0  0  0999 V2000
    2.8876    3.7492    0.0000 C   0  0  0  0  0  0  0  0  0  0  0  0
    4.1868    2.9994    0.0000 H   0  0  0  0  0  0  0  0  0  0  0  0
    2.8871    5.2500    0.0000 C   0  0  0  0  0  0  0  0  0  0  0  0
    1.5876    6.0008    0.0000 C   0  0  0  0  0  0  0  0  0  0  0  0
    1.5878    7.5008    0.0000 H   0  0  0  0  0  0  0  0  0  0  0  0
    0.2886    5.2508    0.0000 C   0  0  0  0  0  0  0  0  0  0  0  0
    0.2890    3.7500    0.0000 C   0  0  0  0  0  0  0  0  0  0  0  0
    1.5886    2.9992    0.0000 C   0  0  0  0  0  0  0  0  0  0  0  0
    1.5883    1.4992    0.0000 H   0  0  0  0  0  0  0  0  0  0  0  0
   -1.0100    3.0000    0.0000 N   0  0  0  0  0  0  0  0  0  0  0  0
   -2.3090    3.7500    0.0000 H   0  0  0  0  0  0  0  0  0  0  0  0
   -1.0100    1.0200    0.0000 C   0  0  0  0  0  0  0  0  0  0  0  0
   -2.3100    0.2700    0.0000 C   0  0  0  0  0  0  0  0  0  0  0  0
   -2.3100   -1.2300    0.0000 C   0  0  0  0  0  0  0  0  0  0  0  0
   -3.6089   -1.9802    0.0000 H   0  0  0  0  0  0  0  0  0  0  0  0
   -1.0100   -1.9800    0.0000 C   0  0  0  0  0  0  0  0  0  0  0  0
   -1.0100   -3.4800    0.0000 H   0  0  0  0  0  0  0  0  0  0  0  0
    0.2900   -1.2300    0.0000 C   0  0  0  0  0  0  0  0  0  0  0  0
    1.7200   -1.6900    0.0000 C   0  0  0  0  0  0  0  0  0  0  0  0
    2.1853   -3.1160    0.0000 H   0  0  0  0  0  0  0  0  0  0  0  0
    2.6000   -0.4800    0.0000 N   0  0  0  0  0  0  0  0  0  0  0  0
    1.7200    0.7300    0.0000 C   0  0  0  0  0  0  0  0  0  0  0  0
    2.4258    2.0536    0.0000 H   0  0  0  0  0  0  0  0  0  0  0  0
    0.2900    0.2700    0.0000 N   0  0  0  0  0  0  0  0  0  0  0  0
   -3.6089    1.0202    0.0000 C   0  0  0  0  0  0  0  0  0  0  0  0
   -3.6087    2.5202    0.0000 O   0  0  0  0  0  0  0  0  0  0  0  0
   -4.9081    0.2704    0.0000 N   0  0  0  0  0  0  0  0  0  0  0  0
   -6.2070    1.0206    0.0000 H   0  0  0  0  0  0  0  0  0  0  0  0
   -4.9083   -1.2296    0.0000 H   0  0  0  0  0  0  0  0  0  0  0  0
   -1.0106    6.0006    0.0000 F   0  0  0  0  0  0  0  0  0  0  0  0
    4.1862    6.0000    0.0000 I   0  0  0  0  0  0  0  0  0  0  0  0
  1  2  1  0  0  0  0 
  1  3  2  0  0  0  0 
  3  4  1  0  0  0  0 
  4  5  1  0  0  0  0 
  4  6  2  0  0  0  0 
  6  7  1  0  0  0  0 
  7  8  2  0  0  0  0 
  1  8  1  0  0  0  0 
  8  9  1  0  0  0  0 
  7 10  1  0  0  0  0 
 10 11  1  0  0  0  0 
 10 12  1  0  0  0  0 
 12 13  2  0  0  0  0 
 13 14  1  0  0  0  0 
 14 15  1  0  0  0  0 
 14 16  2  0  0  0  0 
 16 17  1  0  0  0  0 
 16 18  1  0  0  0  0 
 18 19  2  0  0  0  0 
 19 20  1  0  0  0  0 
 19 21  1  0  0  0  0 
 21 22  2  0  0  0  0 
 22 23  1  0  0  0  0 
 22 24  1  0  0  0  0 
 18 24  1  0  0  0  0 
 12 24  1  0  0  0  0 
 13 25  1  0  0  0  0 
 25 26  2  0  0  0  0 
 25 27  1  0  0  0  0 
 27 28  1  0  0  0  0 
 27 29  1  0  0  0  0 
  6 30  1  0  0  0  0 
  3 31  1  0  0  0  0 
M  END
> <Rank>
27

> <Priority_score>
0.020000000000000004

> <Reaction_type>
reduction of RNOR

> <Parent_ID>
76

> <Parent_InChI>
InChI=1S/C16H14FIN4O3/c17-13-7-10(18)1-4-14(13)20-15-12(16(24)21-25-6-5-23)3-2-11-8-19-9-22(11)15/h1-4,7-9,20,23H,5-6H2,(H,21,24)

> <Parent_SMILES>
O=C(NOCCO)c1ccc2cncn2c1Nc1ccc(I)cc1F

$$$$
Molecule 76_metabolite 28
  CDK     0516241031

 10  9  0  0  0  0  0  0  0  0999 V2000
    2.5981   -0.0000    0.0000 C   0  0  0  0  0  0  0  0  0  0  0  0
    3.5623    1.1491    0.0000 H   0  0  0  0  0  0  0  0  0  0  0  0
    1.6339    1.1491    0.0000 H   0  0  0  0  0  0  0  0  0  0  0  0
    3.8971   -0.7500    0.0000 C   0  0  0  0  0  0  0  0  0  0  0  0
    2.9329   -1.8991    0.0000 H   0  0  0  0  0  0  0  0  0  0  0  0
    4.8613   -1.8991    0.0000 H   0  0  0  0  0  0  0  0  0  0  0  0
    5.1962   -0.0000    0.0000 O   0  0  0  0  0  0  0  0  0  0  0  0
    6.4952   -0.7500    0.0000 H   0  0  0  0  0  0  0  0  0  0  0  0
    1.2990   -0.7500    0.0000 O   0  0  0  0  0  0  0  0  0  0  0  0
   -0.0000    0.0000    0.0000 H   0  0  0  0  0  0  0  0  0  0  0  0
  1  2  1  0  0  0  0 
  1  3  1  0  0  0  0 
  1  4  1  0  0  0  0 
  4  5  1  0  0  0  0 
  4  6  1  0  0  0  0 
  4  7  1  0  0  0  0 
  7  8  1  0  0  0  0 
  1  9  1  0  0  0  0 
  9 10  1  0  0  0  0 
M  END
> <Rank>
27

> <Priority_score>
0.020000000000000004

> <Reaction_type>
reduction of RNOR

> <Parent_ID>
76

> <Parent_InChI>
InChI=1S/C16H14FIN4O3/c17-13-7-10(18)1-4-14(13)20-15-12(16(24)21-25-6-5-23)3-2-11-8-19-9-22(11)15/h1-4,7-9,20,23H,5-6H2,(H,21,24)

> <Parent_SMILES>
O=C(NOCCO)c1ccc2cncn2c1Nc1ccc(I)cc1F

$$$$
Molecule 76_metabolite 29
  CDK     0516241031

 40 42  0  0  0  0  0  0  0  0999 V2000
   -1.0100    1.9800    0.0000 C   0  0  0  0  0  0  0  0  0  0  0  0
   -1.0100    3.4800    0.0000 H   0  0  0  0  0  0  0  0  0  0  0  0
   -2.3100    1.2300    0.0000 C   0  0  0  0  0  0  0  0  0  0  0  0
   -3.6089    1.9802    0.0000 H   0  0  0  0  0  0  0  0  0  0  0  0
   -2.3100   -0.2700    0.0000 C   0  0  0  0  0  0  0  0  0  0  0  0
   -1.0100   -1.0200    0.0000 C   0  0  0  0  0  0  0  0  0  0  0  0
   -1.0100   -3.0000    0.0000 N   0  0  0  0  0  0  0  0  0  0  0  0
   -2.3090   -3.7500    0.0000 H   0  0  0  0  0  0  0  0  0  0  0  0
    0.2890   -3.7500    0.0000 C   0  0  0  0  0  0  0  0  0  0  0  0
    0.2893   -5.2508    0.0000 C   0  0  0  0  0  0  0  0  0  0  0  0
   -1.0099   -6.0006    0.0000 H   0  0  0  0  0  0  0  0  0  0  0  0
    1.5887   -6.0019    0.0000 C   0  0  0  0  0  0  0  0  0  0  0  0
    1.5882   -7.5019    0.0000 H   0  0  0  0  0  0  0  0  0  0  0  0
    2.8878   -5.2521    0.0000 C   0  0  0  0  0  0  0  0  0  0  0  0
    2.8876   -3.7512    0.0000 C   0  0  0  0  0  0  0  0  0  0  0  0
    4.1868   -3.0015    0.0000 H   0  0  0  0  0  0  0  0  0  0  0  0
    1.5882   -3.0002    0.0000 C   0  0  0  0  0  0  0  0  0  0  0  0
    1.5887   -1.5002    0.0000 F   0  0  0  0  0  0  0  0  0  0  0  0
    4.1869   -6.0021    0.0000 O   0  0  0  0  0  0  0  0  0  0  0  0
    4.1869   -7.5021    0.0000 H   0  0  0  0  0  0  0  0  0  0  0  0
    0.2900   -0.2700    0.0000 N   0  0  0  0  0  0  0  0  0  0  0  0
    1.7200   -0.7300    0.0000 C   0  0  0  0  0  0  0  0  0  0  0  0
    2.1853   -2.1560    0.0000 H   0  0  0  0  0  0  0  0  0  0  0  0
    2.6000    0.4800    0.0000 N   0  0  0  0  0  0  0  0  0  0  0  0
    1.7200    1.6900    0.0000 C   0  0  0  0  0  0  0  0  0  0  0  0
    2.1853    3.1160    0.0000 H   0  0  0  0  0  0  0  0  0  0  0  0
    0.2900    1.2300    0.0000 C   0  0  0  0  0  0  0  0  0  0  0  0
   -3.6089   -1.0202    0.0000 C   0  0  0  0  0  0  0  0  0  0  0  0
   -3.6087   -2.5202    0.0000 O   0  0  0  0  0  0  0  0  0  0  0  0
   -4.9081   -0.2704    0.0000 N   0  0  0  0  0  0  0  0  0  0  0  0
   -4.9083    1.2296    0.0000 H   0  0  0  0  0  0  0  0  0  0  0  0
   -6.2070   -1.0206    0.0000 O   0  0  0  0  0  0  0  0  0  0  0  0
   -7.5062   -0.2708    0.0000 C   0  0  0  0  0  0  0  0  0  0  0  0
   -6.5422    0.8784    0.0000 H   0  0  0  0  0  0  0  0  0  0  0  0
   -8.4705    0.8781    0.0000 H   0  0  0  0  0  0  0  0  0  0  0  0
   -8.8051   -1.0210    0.0000 C   0  0  0  0  0  0  0  0  0  0  0  0
   -9.7691   -2.1703    0.0000 H   0  0  0  0  0  0  0  0  0  0  0  0
   -7.8407   -2.1700    0.0000 H   0  0  0  0  0  0  0  0  0  0  0  0
  -10.1042   -0.2712    0.0000 O   0  0  0  0  0  0  0  0  0  0  0  0
  -11.4031   -1.0215    0.0000 H   0  0  0  0  0  0  0  0  0  0  0  0
  1  2  1  0  0  0  0 
  1  3  2  0  0  0  0 
  3  4  1  0  0  0  0 
  3  5  1  0  0  0  0 
  5  6  2  0  0  0  0 
  6  7  1  0  0  0  0 
  7  8  1  0  0  0  0 
  7  9  1  0  0  0  0 
  9 10  2  0  0  0  0 
 10 11  1  0  0  0  0 
 10 12  1  0  0  0  0 
 12 13  1  0  0  0  0 
 12 14  2  0  0  0  0 
 14 15  1  0  0  0  0 
 15 16  1  0  0  0  0 
 15 17  2  0  0  0  0 
  9 17  1  0  0  0  0 
 17 18  1  0  0  0  0 
 14 19  1  0  0  0  0 
 19 20  1  0  0  0  0 
  6 21  1  0  0  0  0 
 21 22  1  0  0  0  0 
 22 23  1  0  0  0  0 
 22 24  2  0  0  0  0 
 24 25  1  0  0  0  0 
 25 26  1  0  0  0  0 
 25 27  2  0  0  0  0 
  1 27  1  0  0  0  0 
 21 27  1  0  0  0  0 
  5 28  1  0  0  0  0 
 28 29  2  0  0  0  0 
 28 30  1  0  0  0  0 
 30 31  1  0  0  0  0 
 30 32  1  0  0  0  0 
 32 33  1  0  0  0  0 
 33 34  1  0  0  0  0 
 33 35  1  0  0  0  0 
 33 36  1  0  0  0  0 
 36 37  1  0  0  0  0 
 36 38  1  0  0  0  0 
 36 39  1  0  0  0  0 
 39 40  1  0  0  0  0 
M  END
> <Rank>
29

> <Priority_score>
0.0184

> <Reaction_type>
oxidative dehalogenation benzyl

> <Parent_ID>
76

> <Parent_InChI>
InChI=1S/C16H14FIN4O3/c17-13-7-10(18)1-4-14(13)20-15-12(16(24)21-25-6-5-23)3-2-11-8-19-9-22(11)15/h1-4,7-9,20,23H,5-6H2,(H,21,24)

> <Parent_SMILES>
O=C(NOCCO)c1ccc2cncn2c1Nc1ccc(I)cc1F

$$$$
Molecule 76_metabolite 30
  CDK     0516241031

 40 42  0  0  0  0  0  0  0  0999 V2000
    2.8876    3.7492    0.0000 C   0  0  0  0  0  0  0  0  0  0  0  0
    4.1868    2.9994    0.0000 H   0  0  0  0  0  0  0  0  0  0  0  0
    2.8871    5.2500    0.0000 C   0  0  0  0  0  0  0  0  0  0  0  0
    1.5876    6.0008    0.0000 C   0  0  0  0  0  0  0  0  0  0  0  0
    1.5878    7.5008    0.0000 H   0  0  0  0  0  0  0  0  0  0  0  0
    0.2886    5.2508    0.0000 C   0  0  0  0  0  0  0  0  0  0  0  0
    0.2890    3.7500    0.0000 C   0  0  0  0  0  0  0  0  0  0  0  0
    1.5886    2.9992    0.0000 C   0  0  0  0  0  0  0  0  0  0  0  0
    1.5883    1.4992    0.0000 H   0  0  0  0  0  0  0  0  0  0  0  0
   -1.0100    3.0000    0.0000 N   0  0  0  0  0  0  0  0  0  0  0  0
   -2.3090    3.7500    0.0000 H   0  0  0  0  0  0  0  0  0  0  0  0
   -1.0100    1.0200    0.0000 C   0  0  0  0  0  0  0  0  0  0  0  0
   -2.3100    0.2700    0.0000 C   0  0  0  0  0  0  0  0  0  0  0  0
   -2.3100   -1.2300    0.0000 C   0  0  0  0  0  0  0  0  0  0  0  0
   -3.6089   -1.9802    0.0000 H   0  0  0  0  0  0  0  0  0  0  0  0
   -1.0100   -1.9800    0.0000 C   0  0  0  0  0  0  0  0  0  0  0  0
   -1.0100   -3.4800    0.0000 H   0  0  0  0  0  0  0  0  0  0  0  0
    0.2900   -1.2300    0.0000 C   0  0  0  0  0  0  0  0  0  0  0  0
    1.7200   -1.6900    0.0000 C   0  0  0  0  0  0  0  0  0  0  0  0
    2.1853   -3.1160    0.0000 H   0  0  0  0  0  0  0  0  0  0  0  0
    2.6000   -0.4800    0.0000 N   0  0  0  0  0  0  0  0  0  0  0  0
    1.7200    0.7300    0.0000 C   0  0  0  0  0  0  0  0  0  0  0  0
    2.6449    1.9109    0.0000 H   0  0  0  0  0  0  0  0  0  0  0  0
    0.2900    0.2700    0.0000 N   0  0  0  0  0  0  0  0  0  0  0  0
   -3.6089    1.0202    0.0000 C   0  0  0  0  0  0  0  0  0  0  0  0
   -3.6087    2.5202    0.0000 O   0  0  0  0  0  0  0  0  0  0  0  0
   -4.9081    0.2704    0.0000 N   0  0  0  0  0  0  0  0  0  0  0  0
   -4.9083   -1.2296    0.0000 H   0  0  0  0  0  0  0  0  0  0  0  0
   -6.2070    1.0206    0.0000 O   0  0  0  0  0  0  0  0  0  0  0  0
   -7.5062    0.2708    0.0000 C   0  0  0  0  0  0  0  0  0  0  0  0
   -8.4705   -0.8781    0.0000 H   0  0  0  0  0  0  0  0  0  0  0  0
   -6.5422   -0.8784    0.0000 H   0  0  0  0  0  0  0  0  0  0  0  0
   -8.8051    1.0210    0.0000 C   0  0  0  0  0  0  0  0  0  0  0  0
   -7.8407    2.1700    0.0000 H   0  0  0  0  0  0  0  0  0  0  0  0
   -9.7691    2.1703    0.0000 H   0  0  0  0  0  0  0  0  0  0  0  0
  -10.1042    0.2712    0.0000 O   0  0  0  0  0  0  0  0  0  0  0  0
  -11.4031    1.0215    0.0000 H   0  0  0  0  0  0  0  0  0  0  0  0
   -1.0106    6.0006    0.0000 O   0  0  0  0  0  0  0  0  0  0  0  0
   -1.0108    7.5006    0.0000 H   0  0  0  0  0  0  0  0  0  0  0  0
    4.1862    6.0000    0.0000 I   0  0  0  0  0  0  0  0  0  0  0  0
  1  2  1  0  0  0  0 
  1  3  2  0  0  0  0 
  3  4  1  0  0  0  0 
  4  5  1  0  0  0  0 
  4  6  2  0  0  0  0 
  6  7  1  0  0  0  0 
  7  8  2  0  0  0  0 
  1  8  1  0  0  0  0 
  8  9  1  0  0  0  0 
  7 10  1  0  0  0  0 
 10 11  1  0  0  0  0 
 10 12  1  0  0  0  0 
 12 13  2  0  0  0  0 
 13 14  1  0  0  0  0 
 14 15  1  0  0  0  0 
 14 16  2  0  0  0  0 
 16 17  1  0  0  0  0 
 16 18  1  0  0  0  0 
 18 19  2  0  0  0  0 
 19 20  1  0  0  0  0 
 19 21  1  0  0  0  0 
 21 22  2  0  0  0  0 
 22 23  1  0  0  0  0 
 22 24  1  0  0  0  0 
 18 24  1  0  0  0  0 
 12 24  1  0  0  0  0 
 13 25  1  0  0  0  0 
 25 26  2  0  0  0  0 
 25 27  1  0  0  0  0 
 27 28  1  0  0  0  0 
 27 29  1  0  0  0  0 
 29 30  1  0  0  0  0 
 30 31  1  0  0  0  0 
 30 32  1  0  0  0  0 
 30 33  1  0  0  0  0 
 33 34  1  0  0  0  0 
 33 35  1  0  0  0  0 
 33 36  1  0  0  0  0 
 36 37  1  0  0  0  0 
  6 38  1  0  0  0  0 
 38 39  1  0  0  0  0 
  3 40  1  0  0  0  0 
M  END
> <Rank>
30

> <Priority_score>
0.0032

> <Reaction_type>
oxidative dehalogenation benzyl

> <Parent_ID>
76

> <Parent_InChI>
InChI=1S/C16H14FIN4O3/c17-13-7-10(18)1-4-14(13)20-15-12(16(24)21-25-6-5-23)3-2-11-8-19-9-22(11)15/h1-4,7-9,20,23H,5-6H2,(H,21,24)

> <Parent_SMILES>
O=C(NOCCO)c1ccc2cncn2c1Nc1ccc(I)cc1F

$$$$
Molecule 77
  CDK     0516241031

 20 20  0  0  0  0  0  0  0  0999 V2000
    0.0000    1.5000    0.0000 C   0  0  0  0  0  0  0  0  0  0  0  0
   -1.3000    0.7500    0.0000 C   0  0  0  0  0  0  0  0  0  0  0  0
   -1.3000   -0.7500    0.0000 C   0  0  0  0  0  0  0  0  0  0  0  0
    0.0000   -1.5000    0.0000 C   0  0  0  0  0  0  0  0  0  0  0  0
    1.3000   -0.7500    0.0000 C   0  0  0  0  0  0  0  0  0  0  0  0
    1.3000    0.7500    0.0000 C   0  0  0  0  0  0  0  0  0  0  0  0
    2.5989   -1.5002    0.0000 N   0  0  0  0  0  0  0  0  0  0  0  0
    3.8981   -0.7504    0.0000 O   0  0  0  0  0  0  0  0  0  0  0  0
    2.5987   -3.0002    0.0000 O   0  0  0  0  0  0  0  0  0  0  0  0
   -2.5989    1.5002    0.0000 C   0  0  2  0  0  0  0  0  0  0  0  0
   -3.8981    0.7504    0.0000 C   0  0  1  0  0  0  0  0  0  0  0  0
   -3.8983   -0.7496    0.0000 C   0  0  0  0  0  0  0  0  0  0  0  0
   -5.1975   -1.4994    0.0000 O   0  0  0  0  0  0  0  0  0  0  0  0
   -5.1970    1.5006    0.0000 N   0  0  0  0  0  0  0  0  0  0  0  0
   -6.4962    0.7508    0.0000 C   0  0  0  0  0  0  0  0  0  0  0  0
   -6.4964   -0.7492    0.0000 O   0  0  0  0  0  0  0  0  0  0  0  0
   -7.7951    1.5010    0.0000 C   0  0  0  0  0  0  0  0  0  0  0  0
   -9.0942    0.7512    0.0000 Cl  0  0  0  0  0  0  0  0  0  0  0  0
   -7.7948    3.0010    0.0000 Cl  0  0  0  0  0  0  0  0  0  0  0  0
   -2.5987    3.0002    0.0000 O   0  0  0  0  0  0  0  0  0  0  0  0
  1  2  2  0  0  0  0 
  2  3  1  0  0  0  0 
  3  4  2  0  0  0  0 
  4  5  1  0  0  0  0 
  5  6  2  0  0  0  0 
  1  6  1  0  0  0  0 
  5  7  1  0  0  0  0 
  7  8  2  0  0  0  0 
  7  9  1  0  0  0  0 
  2 10  1  0  0  0  0 
 10 11  1  0  0  0  0 
 11 12  1  0  0  0  0 
 12 13  1  0  0  0  0 
 11 14  1  1  0  0  0 
 14 15  1  0  0  0  0 
 15 16  2  0  0  0  0 
 15 17  1  0  0  0  0 
 17 18  1  0  0  0  0 
 17 19  1  0  0  0  0 
 10 20  1  6  0  0  0 
M  CHG  1   7   1
M  CHG  1   9  -1
M  END
> <SMILES>
O=C(N[C@H](CO)[C@H](O)c1ccc([N+](=O)[O-])cc1)C(Cl)Cl

$$$$
Molecule 77_metabolite 1
  CDK     0516241031

 52 53  0  0  0  0  0  0  0  0999 V2000
    1.8988    1.0113    0.0000 C   0  0  0  0  0  0  0  0  0  0  0  0
    0.5982    1.7586    0.0000 H   0  0  0  0  0  0  0  0  0  0  0  0
    3.1967    1.7650    0.0000 C   0  0  0  0  0  0  0  0  0  0  0  0
    4.4973    1.0177    0.0000 C   0  0  0  0  0  0  0  0  0  0  0  0
    5.6445    1.9842    0.0000 H   0  0  0  0  0  0  0  0  0  0  0  0
    4.5001   -0.4831    0.0000 C   0  0  0  0  0  0  0  0  0  0  0  0
    5.8007   -1.2303    0.0000 H   0  0  0  0  0  0  0  0  0  0  0  0
    3.2022   -1.2367    0.0000 C   0  0  0  0  0  0  0  0  0  0  0  0
    1.9015   -0.4895    0.0000 C   0  0  0  0  0  0  0  0  0  0  0  0
    0.6040   -1.2421    0.0000 H   0  0  0  0  0  0  0  0  0  0  0  0
    3.2056   -2.7367    0.0000 N   0  0  0  0  0  0  0  0  0  0  0  0
    4.5064   -3.4837    0.0000 O   0  0  0  0  0  0  0  0  0  0  0  0
    1.9083   -3.4897    0.0000 O   0  0  0  0  0  0  0  0  0  0  0  0
    3.1932    3.2650    0.0000 C   0  0  2  0  0  0  0  0  0  0  0  0
    1.7166    3.0011    0.0000 H   0  0  0  0  0  0  0  0  0  0  0  0
    6.0897    2.7611    0.0000 C   0  0  1  0  0  0  0  0  0  0  0  0
    5.2537    0.4475    0.0000 H   0  0  0  0  0  0  0  0  0  0  0  0
    8.2230    1.5360    0.0000 C   0  0  0  0  0  0  0  0  0  0  0  0
    7.2615    0.3847    0.0000 H   0  0  0  0  0  0  0  0  0  0  0  0
    9.1898    0.3892    0.0000 H   0  0  0  0  0  0  0  0  0  0  0  0
   10.3506    2.7709    0.0000 O   0  0  0  0  0  0  0  0  0  0  0  0
   11.6513    2.0239    0.0000 H   0  0  0  0  0  0  0  0  0  0  0  0
    7.0513    3.9124    0.0000 N   0  0  0  0  0  0  0  0  0  0  0  0
    6.5350    5.3207    0.0000 H   0  0  0  0  0  0  0  0  0  0  0  0
    8.5291    3.6553    0.0000 C   0  0  0  0  0  0  0  0  0  0  0  0
    9.0454    2.2469    0.0000 O   0  0  0  0  0  0  0  0  0  0  0  0
    9.4906    4.8066    0.0000 C   0  0  0  0  0  0  0  0  0  0  0  0
   10.9684    4.5495    0.0000 H   0  0  0  0  0  0  0  0  0  0  0  0
   10.0004    6.2173    0.0000 Cl  0  0  0  0  0  0  0  0  0  0  0  0
    8.1899    5.5536    0.0000 Cl  0  0  0  0  0  0  0  0  0  0  0  0
    2.5118    5.1240    0.0000 O   0  0  0  0  0  0  0  0  0  0  0  0
    1.0340    5.3811    0.0000 C   0  0  0  0  0  0  0  0  0  0  0  0
    1.0340    3.8811    0.0000 H   0  0  0  0  0  0  0  0  0  0  0  0
    1.5371    6.7835    0.0000 C   0  0  0  0  0  0  0  0  0  0  0  0
    2.4951    7.9378    0.0000 H   0  0  0  0  0  0  0  0  0  0  0  0
    0.5513    7.9446    0.0000 C   0  0  0  0  0  0  0  0  0  0  0  0
    0.0261    9.3497    0.0000 H   0  0  0  0  0  0  0  0  0  0  0  0
   -0.9290    7.6683    0.0000 C   0  0  0  0  0  0  0  0  0  0  0  0
   -2.4078    7.9193    0.0000 H   0  0  0  0  0  0  0  0  0  0  0  0
   -1.4321    6.2658    0.0000 C   0  0  0  0  0  0  0  0  0  0  0  0
   -2.3908    5.1121    0.0000 H   0  0  0  0  0  0  0  0  0  0  0  0
   -3.1515    7.2477    0.0000 C   0  0  0  0  0  0  0  0  0  0  0  0
   -4.4470    6.4916    0.0000 O   0  0  0  0  0  0  0  0  0  0  0  0
   -3.1586    8.7477    0.0000 O   0  0  0  0  0  0  0  0  0  0  0  0
   -4.4611    9.4916    0.0000 H   0  0  0  0  0  0  0  0  0  0  0  0
   -0.4618    5.1209    0.0000 O   0  0  0  0  0  0  0  0  0  0  0  0
   -0.9413    9.1682    0.0000 O   0  0  0  0  0  0  0  0  0  0  0  0
   -2.2465    9.9075    0.0000 H   0  0  0  0  0  0  0  0  0  0  0  0
    1.8449    8.7040    0.0000 O   0  0  0  0  0  0  0  0  0  0  0  0
    1.8341   10.2039    0.0000 H   0  0  0  0  0  0  0  0  0  0  0  0
    2.8399    6.0400    0.0000 O   0  0  0  0  0  0  0  0  0  0  0  0
    4.1352    6.7965    0.0000 H   0  0  0  0  0  0  0  0  0  0  0  0
  1  2  1  0  0  0  0 
  1  3  2  0  0  0  0 
  3  4  1  0  0  0  0 
  4  5  1  0  0  0  0 
  4  6  2  0  0  0  0 
  6  7  1  0  0  0  0 
  6  8  1  0  0  0  0 
  8  9  2  0  0  0  0 
  1  9  1  0  0  0  0 
  9 10  1  0  0  0  0 
  8 11  1  0  0  0  0 
 11 12  2  0  0  0  0 
 11 13  1  0  0  0  0 
  3 14  1  0  0  0  0 
 14 15  1  6  0  0  0 
 14 16  1  0  0  0  0 
 16 17  1  1  0  0  0 
 16 18  1  6  0  0  0 
 18 19  1  0  0  0  0 
 18 20  1  0  0  0  0 
 18 21  1  0  0  0  0 
 21 22  1  0  0  0  0 
 16 23  1  0  0  0  0 
 23 24  1  0  0  0  0 
 23 25  1  0  0  0  0 
 25 26  2  0  0  0  0 
 25 27  1  0  0  0  0 
 27 28  1  0  0  0  0 
 27 29  1  0  0  0  0 
 27 30  1  0  0  0  0 
 14 31  1  1  0  0  0 
 31 32  1  0  0  0  0 
 32 33  1  0  0  0  0 
 32 34  1  0  0  0  0 
 34 35  1  0  0  0  0 
 34 36  1  0  0  0  0 
 36 37  1  0  0  0  0 
 36 38  1  0  0  0  0 
 38 39  1  0  0  0  0 
 38 40  1  0  0  0  0 
 40 41  1  0  0  0  0 
 40 42  1  0  0  0  0 
 42 43  2  0  0  0  0 
 42 44  1  0  0  0  0 
 44 45  1  0  0  0  0 
 40 46  1  0  0  0  0 
 32 46  1  0  0  0  0 
 38 47  1  0  0  0  0 
 47 48  1  0  0  0  0 
 36 49  1  0  0  0  0 
 49 50  1  0  0  0  0 
 34 51  1  0  0  0  0 
 51 52  1  0  0  0  0 
M  CHG  1  11   1
M  CHG  1  13  -1
M  END
> <Rank>
1

> <Priority_score>
0.788

> <Reaction_type>
O-glucuronidation_(aliphatic_hydroxyl)

> <Parent_ID>
77

> <Parent_InChI>
InChI=1S/C11H12Cl2N2O5/c12-10(13)11(18)14-8(5-16)9(17)6-1-3-7(4-2-6)15(19)20/h1-4,8-10,16-17H,5H2,(H,14,18)

> <Parent_SMILES>
O=C(N[C@H](CO)[C@H](O)c1ccc([N+](=O)[O-])cc1)C(Cl)Cl

$$$$
Molecule 77_metabolite 2
  CDK     0516241031

 52 53  0  0  0  0  0  0  0  0999 V2000
    8.6602    1.8257    0.0000 C   0  0  0  0  0  0  0  0  0  0  0  0
    8.3961    3.3023    0.0000 H   0  0  0  0  0  0  0  0  0  0  0  0
    7.5126    0.8585    0.0000 C   0  0  0  0  0  0  0  0  0  0  0  0
    7.7767   -0.6180    0.0000 C   0  0  0  0  0  0  0  0  0  0  0  0
    6.6302   -1.5852    0.0000 H   0  0  0  0  0  0  0  0  0  0  0  0
    9.1884   -1.1274    0.0000 C   0  0  0  0  0  0  0  0  0  0  0  0
    9.4525   -2.6040    0.0000 H   0  0  0  0  0  0  0  0  0  0  0  0
   10.3361   -0.1602    0.0000 C   0  0  0  0  0  0  0  0  0  0  0  0
   10.0720    1.3163    0.0000 C   0  0  0  0  0  0  0  0  0  0  0  0
   11.2185    2.2835    0.0000 H   0  0  0  0  0  0  0  0  0  0  0  0
   11.7468   -0.6700    0.0000 N   0  0  0  0  0  0  0  0  0  0  0  0
   12.8936    0.2968    0.0000 O   0  0  0  0  0  0  0  0  0  0  0  0
   12.0107   -2.1466    0.0000 O   0  0  0  0  0  0  0  0  0  0  0  0
    5.6504    1.5315    0.0000 C   0  0  2  0  0  0  0  0  0  0  0  0
    4.1504    1.5280    0.0000 H   0  0  0  0  0  0  0  0  0  0  0  0
    5.1332    4.4256    0.0000 C   0  0  1  0  0  0  0  0  0  0  0  0
    6.6332    4.4291    0.0000 H   0  0  0  0  0  0  0  0  0  0  0  0
    3.7249    3.9093    0.0000 C   0  0  0  0  0  0  0  0  0  0  0  0
    4.7188    2.1969    0.0000 H   0  0  0  0  0  0  0  0  0  0  0  0
    2.5780    2.9425    0.0000 H   0  0  0  0  0  0  0  0  0  0  0  0
    2.2052    5.1786    0.0000 O   0  0  0  0  0  0  0  0  0  0  0  0
    0.7968    4.6623    0.0000 C   0  0  0  0  0  0  0  0  0  0  0  0
    1.5468    3.3632    0.0000 H   0  0  0  0  0  0  0  0  0  0  0  0
    0.5314    6.1284    0.0000 C   0  0  0  0  0  0  0  0  0  0  0  0
    0.7839    7.6070    0.0000 H   0  0  0  0  0  0  0  0  0  0  0  0
   -0.9029    6.6411    0.0000 C   0  0  0  0  0  0  0  0  0  0  0  0
   -2.0603    7.5953    0.0000 H   0  0  0  0  0  0  0  0  0  0  0  0
   -2.0467    5.6616    0.0000 C   0  0  0  0  0  0  0  0  0  0  0  0
   -3.4529    5.1396    0.0000 H   0  0  0  0  0  0  0  0  0  0  0  0
   -1.7812    4.1955    0.0000 C   0  0  0  0  0  0  0  0  0  0  0  0
   -2.0346    2.7170    0.0000 H   0  0  0  0  0  0  0  0  0  0  0  0
   -3.7612    4.1861    0.0000 C   0  0  0  0  0  0  0  0  0  0  0  0
   -4.5173    5.4816    0.0000 O   0  0  0  0  0  0  0  0  0  0  0  0
   -4.5051    2.8836    0.0000 O   0  0  0  0  0  0  0  0  0  0  0  0
   -6.0051    2.8765    0.0000 H   0  0  0  0  0  0  0  0  0  0  0  0
   -0.3684    3.6891    0.0000 O   0  0  0  0  0  0  0  0  0  0  0  0
   -2.8074    6.9544    0.0000 O   0  0  0  0  0  0  0  0  0  0  0  0
   -4.3073    6.9421    0.0000 H   0  0  0  0  0  0  0  0  0  0  0  0
   -0.1623    7.9455    0.0000 O   0  0  0  0  0  0  0  0  0  0  0  0
   -0.9217    9.2391    0.0000 H   0  0  0  0  0  0  0  0  0  0  0  0
    2.0313    6.1359    0.0000 O   0  0  0  0  0  0  0  0  0  0  0  0
    2.7748    7.4387    0.0000 H   0  0  0  0  0  0  0  0  0  0  0  0
    5.3903    5.9034    0.0000 N   0  0  0  0  0  0  0  0  0  0  0  0
    4.2390    6.8649    0.0000 H   0  0  0  0  0  0  0  0  0  0  0  0
    6.7987    6.4197    0.0000 C   0  0  0  0  0  0  0  0  0  0  0  0
    7.9500    5.4581    0.0000 O   0  0  0  0  0  0  0  0  0  0  0  0
    7.0557    7.8975    0.0000 C   0  0  0  0  0  0  0  0  0  0  0  0
    8.4641    8.4138    0.0000 H   0  0  0  0  0  0  0  0  0  0  0  0
    6.7919    9.3741    0.0000 Cl  0  0  0  0  0  0  0  0  0  0  0  0
    5.5558    7.8940    0.0000 Cl  0  0  0  0  0  0  0  0  0  0  0  0
    5.3934    0.0536    0.0000 O   0  0  0  0  0  0  0  0  0  0  0  0
    3.9850   -0.4626    0.0000 H   0  0  0  0  0  0  0  0  0  0  0  0
  1  2  1  0  0  0  0 
  1  3  2  0  0  0  0 
  3  4  1  0  0  0  0 
  4  5  1  0  0  0  0 
  4  6  2  0  0  0  0 
  6  7  1  0  0  0  0 
  6  8  1  0  0  0  0 
  8  9  2  0  0  0  0 
  1  9  1  0  0  0  0 
  9 10  1  0  0  0  0 
  8 11  1  0  0  0  0 
 11 12  2  0  0  0  0 
 11 13  1  0  0  0  0 
  3 14  1  0  0  0  0 
 14 15  1  6  0  0  0 
 14 16  1  0  0  0  0 
 16 17  1  6  0  0  0 
 16 18  1  0  0  0  0 
 18 19  1  0  0  0  0 
 18 20  1  0  0  0  0 
 18 21  1  0  0  0  0 
 21 22  1  0  0  0  0 
 22 23  1  0  0  0  0 
 22 24  1  0  0  0  0 
 24 25  1  0  0  0  0 
 24 26  1  0  0  0  0 
 26 27  1  0  0  0  0 
 26 28  1  0  0  0  0 
 28 29  1  0  0  0  0 
 28 30  1  0  0  0  0 
 30 31  1  0  0  0  0 
 30 32  1  0  0  0  0 
 32 33  2  0  0  0  0 
 32 34  1  0  0  0  0 
 34 35  1  0  0  0  0 
 30 36  1  0  0  0  0 
 22 36  1  0  0  0  0 
 28 37  1  0  0  0  0 
 37 38  1  0  0  0  0 
 26 39  1  0  0  0  0 
 39 40  1  0  0  0  0 
 24 41  1  0  0  0  0 
 41 42  1  0  0  0  0 
 16 43  1  1  0  0  0 
 43 44  1  0  0  0  0 
 43 45  1  0  0  0  0 
 45 46  2  0  0  0  0 
 45 47  1  0  0  0  0 
 47 48  1  0  0  0  0 
 47 49  1  0  0  0  0 
 47 50  1  0  0  0  0 
 14 51  1  1  0  0  0 
 51 52  1  0  0  0  0 
M  CHG  1  11   1
M  CHG  1  13  -1
M  END
> <Rank>
2

> <Priority_score>
0.7077594493963669

> <Reaction_type>
O-glucuronidation_(aliphatic_hydroxyl)

> <Parent_ID>
77

> <Parent_InChI>
InChI=1S/C11H12Cl2N2O5/c12-10(13)11(18)14-8(5-16)9(17)6-1-3-7(4-2-6)15(19)20/h1-4,8-10,16-17H,5H2,(H,14,18)

> <Parent_SMILES>
O=C(N[C@H](CO)[C@H](O)c1ccc([N+](=O)[O-])cc1)C(Cl)Cl

$$$$
Molecule 77_metabolite 3
  CDK     0516241031

 33 33  0  0  0  0  0  0  0  0999 V2000
   -1.2470    2.2202    0.0000 C   0  0  0  0  0  0  0  0  0  0  0  0
   -1.2470    3.7202    0.0000 H   0  0  0  0  0  0  0  0  0  0  0  0
   -2.5470    1.4702    0.0000 C   0  0  0  0  0  0  0  0  0  0  0  0
   -2.5470   -0.0298    0.0000 C   0  0  0  0  0  0  0  0  0  0  0  0
   -3.8459   -0.7800    0.0000 H   0  0  0  0  0  0  0  0  0  0  0  0
   -1.2470   -0.7798    0.0000 C   0  0  0  0  0  0  0  0  0  0  0  0
   -1.2470   -2.2798    0.0000 H   0  0  0  0  0  0  0  0  0  0  0  0
    0.0530   -0.0298    0.0000 C   0  0  0  0  0  0  0  0  0  0  0  0
    0.0530    1.4702    0.0000 C   0  0  0  0  0  0  0  0  0  0  0  0
    1.3520    2.2204    0.0000 H   0  0  0  0  0  0  0  0  0  0  0  0
    1.3520   -0.7800    0.0000 N   0  0  0  0  0  0  0  0  0  0  0  0
    2.6511   -0.0302    0.0000 O   0  0  0  0  0  0  0  0  0  0  0  0
    1.3517   -2.2800    0.0000 O   0  0  0  0  0  0  0  0  0  0  0  0
   -4.2615    2.4605    0.0000 C   0  0  2  0  0  0  0  0  0  0  0  0
   -3.2972    3.6094    0.0000 H   0  0  0  0  0  0  0  0  0  0  0  0
   -6.3922    1.2308    0.0000 C   0  0  1  0  0  0  0  0  0  0  0  0
   -7.3565    0.0819    0.0000 H   0  0  0  0  0  0  0  0  0  0  0  0
   -5.4282    0.0816    0.0000 C   0  0  0  0  0  0  0  0  0  0  0  0
   -3.9586   -2.4648    0.0000 H   0  0  0  0  0  0  0  0  0  0  0  0
   -4.4638    1.2305    0.0000 H   0  0  0  0  0  0  0  0  0  0  0  0
   -5.9414   -1.3279    0.0000 O   0  0  0  0  0  0  0  0  0  0  0  0
   -7.4187   -1.5881    0.0000 H   0  0  0  0  0  0  0  0  0  0  0  0
   -7.6911    1.9810    0.0000 N   0  0  0  0  0  0  0  0  0  0  0  0
   -7.6908    3.4810    0.0000 H   0  0  0  0  0  0  0  0  0  0  0  0
   -8.9902    1.2312    0.0000 C   0  0  0  0  0  0  0  0  0  0  0  0
   -8.9905   -0.2688    0.0000 O   0  0  0  0  0  0  0  0  0  0  0  0
  -10.2891    1.9814    0.0000 C   0  0  0  0  0  0  0  0  0  0  0  0
   -9.3248    3.1304    0.0000 H   0  0  0  0  0  0  0  0  0  0  0  0
  -11.2531    3.1307    0.0000 Cl  0  0  0  0  0  0  0  0  0  0  0  0
  -11.5883    1.2316    0.0000 O   0  0  0  0  0  0  0  0  0  0  0  0
  -12.8872    1.9819    0.0000 H   0  0  0  0  0  0  0  0  0  0  0  0
   -5.2255    3.6097    0.0000 O   0  0  0  0  0  0  0  0  0  0  0  0
   -4.7123    5.0192    0.0000 H   0  0  0  0  0  0  0  0  0  0  0  0
  1  2  1  0  0  0  0 
  1  3  2  0  0  0  0 
  3  4  1  0  0  0  0 
  4  5  1  0  0  0  0 
  4  6  2  0  0  0  0 
  6  7  1  0  0  0  0 
  6  8  1  0  0  0  0 
  8  9  2  0  0  0  0 
  1  9  1  0  0  0  0 
  9 10  1  0  0  0  0 
  8 11  1  0  0  0  0 
 11 12  2  0  0  0  0 
 11 13  1  0  0  0  0 
  3 14  1  0  0  0  0 
 14 15  1  1  0  0  0 
 14 16  1  0  0  0  0 
 16 17  1  6  0  0  0 
 16 18  1  0  0  0  0 
 18 19  1  0  0  0  0 
 18 20  1  0  0  0  0 
 18 21  1  0  0  0  0 
 21 22  1  0  0  0  0 
 16 23  1  1  0  0  0 
 23 24  1  0  0  0  0 
 23 25  1  0  0  0  0 
 25 26  2  0  0  0  0 
 25 27  1  0  0  0  0 
 27 28  1  0  0  0  0 
 27 29  1  0  0  0  0 
 27 30  1  0  0  0  0 
 30 31  1  0  0  0  0 
 14 32  1  6  0  0  0 
 32 33  1  0  0  0  0 
M  CHG  1  11   1
M  CHG  1  13  -1
M  END
> <Rank>
3

> <Priority_score>
0.6956938031591737

> <Reaction_type>
aliphatic_dehalogenation

> <Parent_ID>
77

> <Parent_InChI>
InChI=1S/C11H12Cl2N2O5/c12-10(13)11(18)14-8(5-16)9(17)6-1-3-7(4-2-6)15(19)20/h1-4,8-10,16-17H,5H2,(H,14,18)

> <Parent_SMILES>
O=C(N[C@H](CO)[C@H](O)c1ccc([N+](=O)[O-])cc1)C(Cl)Cl

$$$$
Molecule 77_metabolite 4
  CDK     0516241031

 33 33  0  0  0  0  0  0  0  0999 V2000
   -1.2470    2.2202    0.0000 C   0  0  0  0  0  0  0  0  0  0  0  0
   -1.2470    3.7202    0.0000 H   0  0  0  0  0  0  0  0  0  0  0  0
   -2.5470    1.4702    0.0000 C   0  0  0  0  0  0  0  0  0  0  0  0
   -2.5470   -0.0298    0.0000 C   0  0  0  0  0  0  0  0  0  0  0  0
   -3.8459   -0.7800    0.0000 H   0  0  0  0  0  0  0  0  0  0  0  0
   -1.2470   -0.7798    0.0000 C   0  0  0  0  0  0  0  0  0  0  0  0
   -1.2470   -2.2798    0.0000 H   0  0  0  0  0  0  0  0  0  0  0  0
    0.0530   -0.0298    0.0000 C   0  0  0  0  0  0  0  0  0  0  0  0
    0.0530    1.4702    0.0000 C   0  0  0  0  0  0  0  0  0  0  0  0
    1.3520    2.2204    0.0000 H   0  0  0  0  0  0  0  0  0  0  0  0
    1.3520   -0.7800    0.0000 N   0  0  0  0  0  0  0  0  0  0  0  0
    2.6511   -0.0302    0.0000 O   0  0  0  0  0  0  0  0  0  0  0  0
    1.3517   -2.2800    0.0000 O   0  0  0  0  0  0  0  0  0  0  0  0
   -4.2615    2.4605    0.0000 C   0  0  2  0  0  0  0  0  0  0  0  0
   -3.2972    3.6094    0.0000 H   0  0  0  0  0  0  0  0  0  0  0  0
   -6.3922    1.2308    0.0000 C   0  0  1  0  0  0  0  0  0  0  0  0
   -7.3565    0.0819    0.0000 H   0  0  0  0  0  0  0  0  0  0  0  0
   -5.4282    0.0816    0.0000 C   0  0  0  0  0  0  0  0  0  0  0  0
   -3.9586   -2.4648    0.0000 H   0  0  0  0  0  0  0  0  0  0  0  0
   -4.4638    1.2305    0.0000 H   0  0  0  0  0  0  0  0  0  0  0  0
   -5.9414   -1.3279    0.0000 O   0  0  0  0  0  0  0  0  0  0  0  0
   -7.4187   -1.5881    0.0000 H   0  0  0  0  0  0  0  0  0  0  0  0
   -7.6911    1.9810    0.0000 N   0  0  0  0  0  0  0  0  0  0  0  0
   -7.6908    3.4810    0.0000 H   0  0  0  0  0  0  0  0  0  0  0  0
   -8.9902    1.2312    0.0000 C   0  0  0  0  0  0  0  0  0  0  0  0
   -8.9905   -0.2688    0.0000 O   0  0  0  0  0  0  0  0  0  0  0  0
  -10.2891    1.9814    0.0000 C   0  0  0  0  0  0  0  0  0  0  0  0
   -9.3248    3.1304    0.0000 Cl  0  0  0  0  0  0  0  0  0  0  0  0
  -11.2531    3.1307    0.0000 Cl  0  0  0  0  0  0  0  0  0  0  0  0
  -11.5883    1.2316    0.0000 O   0  0  0  0  0  0  0  0  0  0  0  0
  -12.8872    1.9819    0.0000 H   0  0  0  0  0  0  0  0  0  0  0  0
   -5.2255    3.6097    0.0000 O   0  0  0  0  0  0  0  0  0  0  0  0
   -4.7123    5.0192    0.0000 H   0  0  0  0  0  0  0  0  0  0  0  0
  1  2  1  0  0  0  0 
  1  3  2  0  0  0  0 
  3  4  1  0  0  0  0 
  4  5  1  0  0  0  0 
  4  6  2  0  0  0  0 
  6  7  1  0  0  0  0 
  6  8  1  0  0  0  0 
  8  9  2  0  0  0  0 
  1  9  1  0  0  0  0 
  9 10  1  0  0  0  0 
  8 11  1  0  0  0  0 
 11 12  2  0  0  0  0 
 11 13  1  0  0  0  0 
  3 14  1  0  0  0  0 
 14 15  1  1  0  0  0 
 14 16  1  0  0  0  0 
 16 17  1  6  0  0  0 
 16 18  1  0  0  0  0 
 18 19  1  0  0  0  0 
 18 20  1  0  0  0  0 
 18 21  1  0  0  0  0 
 21 22  1  0  0  0  0 
 16 23  1  1  0  0  0 
 23 24  1  0  0  0  0 
 23 25  1  0  0  0  0 
 25 26  2  0  0  0  0 
 25 27  1  0  0  0  0 
 27 28  1  0  0  0  0 
 27 29  1  0  0  0  0 
 27 30  1  0  0  0  0 
 30 31  1  0  0  0  0 
 14 32  1  6  0  0  0 
 32 33  1  0  0  0  0 
M  CHG  1  11   1
M  CHG  1  13  -1
M  END
> <Rank>
3

> <Priority_score>
0.6956938031591737

> <Reaction_type>
aliphatic hydroxylation

> <Parent_ID>
77

> <Parent_InChI>
InChI=1S/C11H12Cl2N2O5/c12-10(13)11(18)14-8(5-16)9(17)6-1-3-7(4-2-6)15(19)20/h1-4,8-10,16-17H,5H2,(H,14,18)

> <Parent_SMILES>
O=C(N[C@H](CO)[C@H](O)c1ccc([N+](=O)[O-])cc1)C(Cl)Cl

$$$$
Molecule 77_metabolite 5
  CDK     0516241031

 31 31  0  0  0  0  0  0  0  0999 V2000
   -7.6902    0.3342    0.0000 C   0  0  0  0  0  0  0  0  0  0  0  0
   -7.6902   -1.1658    0.0000 H   0  0  0  0  0  0  0  0  0  0  0  0
   -6.3902    1.0842    0.0000 C   0  0  0  0  0  0  0  0  0  0  0  0
   -6.3902    2.5842    0.0000 C   0  0  0  0  0  0  0  0  0  0  0  0
   -5.0913    3.3344    0.0000 H   0  0  0  0  0  0  0  0  0  0  0  0
   -7.6902    3.3342    0.0000 C   0  0  0  0  0  0  0  0  0  0  0  0
   -7.6902    4.8342    0.0000 H   0  0  0  0  0  0  0  0  0  0  0  0
   -8.9902    2.5842    0.0000 C   0  0  0  0  0  0  0  0  0  0  0  0
   -8.9902    1.0842    0.0000 C   0  0  0  0  0  0  0  0  0  0  0  0
  -10.2891    0.3340    0.0000 H   0  0  0  0  0  0  0  0  0  0  0  0
  -10.2891    3.3344    0.0000 N   0  0  0  0  0  0  0  0  0  0  0  0
  -11.5883    2.5846    0.0000 O   0  0  0  0  0  0  0  0  0  0  0  0
  -10.2889    4.8344    0.0000 O   0  0  0  0  0  0  0  0  0  0  0  0
   -4.6757    0.0939    0.0000 C   0  0  2  0  0  0  0  0  0  0  0  0
   -5.6400   -1.0550    0.0000 H   0  0  0  0  0  0  0  0  0  0  0  0
   -2.5450    1.3236    0.0000 C   0  0  1  0  0  0  0  0  0  0  0  0
   -1.5807    2.4725    0.0000 H   0  0  0  0  0  0  0  0  0  0  0  0
   -3.5090    2.4728    0.0000 C   0  0  0  0  0  0  0  0  0  0  0  0
   -4.9786    5.0192    0.0000 H   0  0  0  0  0  0  0  0  0  0  0  0
   -4.4734    1.3239    0.0000 H   0  0  0  0  0  0  0  0  0  0  0  0
   -2.9958    3.8823    0.0000 O   0  0  0  0  0  0  0  0  0  0  0  0
   -1.5185    4.1425    0.0000 H   0  0  0  0  0  0  0  0  0  0  0  0
   -1.2461    0.5734    0.0000 N   0  0  0  0  0  0  0  0  0  0  0  0
   -1.2464   -0.9266    0.0000 H   0  0  0  0  0  0  0  0  0  0  0  0
    0.0530    1.3232    0.0000 C   0  0  0  0  0  0  0  0  0  0  0  0
    0.0533    2.8232    0.0000 O   0  0  0  0  0  0  0  0  0  0  0  0
    1.3520    0.5730    0.0000 C   0  0  0  0  0  0  0  0  0  0  0  0
    2.6511    1.3227    0.0000 O   0  0  0  0  0  0  0  0  0  0  0  0
    1.3517   -0.9270    0.0000 Cl  0  0  0  0  0  0  0  0  0  0  0  0
   -3.7117   -1.0553    0.0000 O   0  0  0  0  0  0  0  0  0  0  0  0
   -4.2249   -2.4648    0.0000 H   0  0  0  0  0  0  0  0  0  0  0  0
  1  2  1  0  0  0  0 
  1  3  2  0  0  0  0 
  3  4  1  0  0  0  0 
  4  5  1  0  0  0  0 
  4  6  2  0  0  0  0 
  6  7  1  0  0  0  0 
  6  8  1  0  0  0  0 
  8  9  2  0  0  0  0 
  1  9  1  0  0  0  0 
  9 10  1  0  0  0  0 
  8 11  1  0  0  0  0 
 11 12  2  0  0  0  0 
 11 13  1  0  0  0  0 
  3 14  1  0  0  0  0 
 14 15  1  1  0  0  0 
 14 16  1  0  0  0  0 
 16 17  1  6  0  0  0 
 16 18  1  0  0  0  0 
 18 19  1  0  0  0  0 
 18 20  1  0  0  0  0 
 18 21  1  0  0  0  0 
 21 22  1  0  0  0  0 
 16 23  1  1  0  0  0 
 23 24  1  0  0  0  0 
 23 25  1  0  0  0  0 
 25 26  2  0  0  0  0 
 25 27  1  0  0  0  0 
 27 28  2  0  0  0  0 
 27 29  1  0  0  0  0 
 14 30  1  6  0  0  0 
 30 31  1  0  0  0  0 
M  CHG  1  11   1
M  CHG  1  13  -1
M  END
> <Rank>
3

> <Priority_score>
0.6956938031591737

> <Reaction_type>
oxidative dehalogenation alkyl

> <Parent_ID>
77

> <Parent_InChI>
InChI=1S/C11H12Cl2N2O5/c12-10(13)11(18)14-8(5-16)9(17)6-1-3-7(4-2-6)15(19)20/h1-4,8-10,16-17H,5H2,(H,14,18)

> <Parent_SMILES>
O=C(N[C@H](CO)[C@H](O)c1ccc([N+](=O)[O-])cc1)C(Cl)Cl

$$$$
Molecule 77_metabolite 6
  CDK     0516241031

 36 36  0  0  0  0  0  0  0  0999 V2000
   -3.0973   -4.0497    0.0000 C   0  0  0  0  0  0  0  0  0  0  0  0
   -1.7982   -3.2997    0.0000 H   0  0  0  0  0  0  0  0  0  0  0  0
   -4.3968   -3.2989    0.0000 C   0  0  0  0  0  0  0  0  0  0  0  0
   -5.6958   -4.0489    0.0000 C   0  0  0  0  0  0  0  0  0  0  0  0
   -6.9950   -3.2991    0.0000 H   0  0  0  0  0  0  0  0  0  0  0  0
   -5.6953   -5.5497    0.0000 C   0  0  0  0  0  0  0  0  0  0  0  0
   -6.9944   -6.2997    0.0000 H   0  0  0  0  0  0  0  0  0  0  0  0
   -4.3958   -6.3005    0.0000 C   0  0  0  0  0  0  0  0  0  0  0  0
   -3.0968   -5.5505    0.0000 C   0  0  0  0  0  0  0  0  0  0  0  0
   -1.7976   -6.3003    0.0000 H   0  0  0  0  0  0  0  0  0  0  0  0
   -4.3961   -7.8005    0.0000 N   0  0  0  0  0  0  0  0  0  0  0  0
   -3.0971   -8.5507    0.0000 O   0  0  0  0  0  0  0  0  0  0  0  0
   -5.6952   -8.5503    0.0000 O   0  0  0  0  0  0  0  0  0  0  0  0
   -4.3965   -1.7989    0.0000 C   0  0  2  0  0  0  0  0  0  0  0  0
   -2.9194   -2.0596    0.0000 H   0  0  0  0  0  0  0  0  0  0  0  0
   -6.9424   -0.3285    0.0000 C   0  0  1  0  0  0  0  0  0  0  0  0
   -7.9064    0.8208    0.0000 H   0  0  0  0  0  0  0  0  0  0  0  0
   -8.2416   -1.0782    0.0000 C   0  0  0  0  0  0  0  0  0  0  0  0
   -7.2776   -2.2275    0.0000 H   0  0  0  0  0  0  0  0  0  0  0  0
   -9.2059   -2.2272    0.0000 H   0  0  0  0  0  0  0  0  0  0  0  0
   -9.5405   -0.3280    0.0000 O   0  0  0  0  0  0  0  0  0  0  0  0
  -10.8397   -1.0778    0.0000 S   0  0  0  0  0  0  0  0  0  0  0  0
  -11.3525    0.3318    0.0000 O   0  0  0  0  0  0  0  0  0  0  0  0
  -12.3169   -1.3381    0.0000 O   0  0  0  0  0  0  0  0  0  0  0  0
  -10.8399   -2.5778    0.0000 O   0  0  0  0  0  0  0  0  0  0  0  0
  -12.1391   -3.3276    0.0000 H   0  0  0  0  0  0  0  0  0  0  0  0
   -5.9781    0.8205    0.0000 N   0  0  0  0  0  0  0  0  0  0  0  0
   -4.5009    0.5597    0.0000 H   0  0  0  0  0  0  0  0  0  0  0  0
   -6.4909    2.2301    0.0000 C   0  0  0  0  0  0  0  0  0  0  0  0
   -7.9680    2.4908    0.0000 O   0  0  0  0  0  0  0  0  0  0  0  0
   -5.5265    3.3790    0.0000 C   0  0  0  0  0  0  0  0  0  0  0  0
   -6.0393    4.7886    0.0000 H   0  0  0  0  0  0  0  0  0  0  0  0
   -4.5625    2.2298    0.0000 Cl  0  0  0  0  0  0  0  0  0  0  0  0
   -4.2273    4.1288    0.0000 Cl  0  0  0  0  0  0  0  0  0  0  0  0
   -3.8833   -0.3894    0.0000 O   0  0  0  0  0  0  0  0  0  0  0  0
   -2.4060   -0.1292    0.0000 H   0  0  0  0  0  0  0  0  0  0  0  0
  1  2  1  0  0  0  0 
  1  3  2  0  0  0  0 
  3  4  1  0  0  0  0 
  4  5  1  0  0  0  0 
  4  6  2  0  0  0  0 
  6  7  1  0  0  0  0 
  6  8  1  0  0  0  0 
  8  9  2  0  0  0  0 
  1  9  1  0  0  0  0 
  9 10  1  0  0  0  0 
  8 11  1  0  0  0  0 
 11 12  2  0  0  0  0 
 11 13  1  0  0  0  0 
  3 14  1  0  0  0  0 
 14 15  1  1  0  0  0 
 14 16  1  0  0  0  0 
 16 17  1  6  0  0  0 
 16 18  1  0  0  0  0 
 18 19  1  0  0  0  0 
 18 20  1  0  0  0  0 
 18 21  1  0  0  0  0 
 21 22  1  0  0  0  0 
 22 23  2  0  0  0  0 
 22 24  2  0  0  0  0 
 22 25  1  0  0  0  0 
 25 26  1  0  0  0  0 
 16 27  1  1  0  0  0 
 27 28  1  0  0  0  0 
 27 29  1  0  0  0  0 
 29 30  2  0  0  0  0 
 29 31  1  0  0  0  0 
 31 32  1  0  0  0  0 
 31 33  1  0  0  0  0 
 31 34  1  0  0  0  0 
 14 35  1  6  0  0  0 
 35 36  1  0  0  0  0 
M  CHG  1  11   1
M  CHG  1  13  -1
M  END
> <Rank>
6

> <Priority_score>
0.52

> <Reaction_type>
sulfation_(aliphatic_hydroxyl)

> <Parent_ID>
77

> <Parent_InChI>
InChI=1S/C11H12Cl2N2O5/c12-10(13)11(18)14-8(5-16)9(17)6-1-3-7(4-2-6)15(19)20/h1-4,8-10,16-17H,5H2,(H,14,18)

> <Parent_SMILES>
O=C(N[C@H](CO)[C@H](O)c1ccc([N+](=O)[O-])cc1)C(Cl)Cl

$$$$
Molecule 77_metabolite 7
  CDK     0516241031

 36 36  0  0  0  0  0  0  0  0999 V2000
   -7.2745    2.1886    0.0000 C   0  0  0  0  0  0  0  0  0  0  0  0
   -7.2745    0.6886    0.0000 H   0  0  0  0  0  0  0  0  0  0  0  0
   -5.9745    2.9386    0.0000 C   0  0  0  0  0  0  0  0  0  0  0  0
   -5.9745    4.4386    0.0000 C   0  0  0  0  0  0  0  0  0  0  0  0
   -4.6756    5.1888    0.0000 H   0  0  0  0  0  0  0  0  0  0  0  0
   -7.2745    5.1886    0.0000 C   0  0  0  0  0  0  0  0  0  0  0  0
   -7.2745    6.6886    0.0000 H   0  0  0  0  0  0  0  0  0  0  0  0
   -8.5745    4.4386    0.0000 C   0  0  0  0  0  0  0  0  0  0  0  0
   -8.5745    2.9386    0.0000 C   0  0  0  0  0  0  0  0  0  0  0  0
   -9.8734    2.1884    0.0000 H   0  0  0  0  0  0  0  0  0  0  0  0
   -9.8734    5.1888    0.0000 N   0  0  0  0  0  0  0  0  0  0  0  0
  -11.1726    4.4391    0.0000 O   0  0  0  0  0  0  0  0  0  0  0  0
   -9.8732    6.6888    0.0000 O   0  0  0  0  0  0  0  0  0  0  0  0
   -4.2599    1.9484    0.0000 C   0  0  2  0  0  0  0  0  0  0  0  0
   -5.2243    0.7994    0.0000 H   0  0  0  0  0  0  0  0  0  0  0  0
   -2.5450    2.9381    0.0000 C   0  0  1  0  0  0  0  0  0  0  0  0
   -1.5807    4.0870    0.0000 H   0  0  0  0  0  0  0  0  0  0  0  0
   -3.5090    4.0873    0.0000 C   0  0  0  0  0  0  0  0  0  0  0  0
   -5.3985    6.3398    0.0000 H   0  0  0  0  0  0  0  0  0  0  0  0
   -4.4734    2.9384    0.0000 H   0  0  0  0  0  0  0  0  0  0  0  0
   -2.9958    5.4968    0.0000 O   0  0  0  0  0  0  0  0  0  0  0  0
   -1.5185    5.7570    0.0000 H   0  0  0  0  0  0  0  0  0  0  0  0
   -1.2461    2.1879    0.0000 N   0  0  0  0  0  0  0  0  0  0  0  0
   -1.2464    0.6879    0.0000 H   0  0  0  0  0  0  0  0  0  0  0  0
    0.0530    2.9377    0.0000 C   0  0  0  0  0  0  0  0  0  0  0  0
    0.0533    4.4377    0.0000 O   0  0  0  0  0  0  0  0  0  0  0  0
    1.3520    2.1875    0.0000 C   0  0  0  0  0  0  0  0  0  0  0  0
    2.6511    2.9373    0.0000 H   0  0  0  0  0  0  0  0  0  0  0  0
    0.3876    1.0386    0.0000 Cl  0  0  0  0  0  0  0  0  0  0  0  0
    2.3160    1.0382    0.0000 Cl  0  0  0  0  0  0  0  0  0  0  0  0
   -3.2959    0.7991    0.0000 O   0  0  0  0  0  0  0  0  0  0  0  0
   -3.8092   -0.6103    0.0000 S   0  0  0  0  0  0  0  0  0  0  0  0
   -3.8094   -2.1103    0.0000 O   0  0  0  0  0  0  0  0  0  0  0  0
   -2.3320   -0.8710    0.0000 O   0  0  0  0  0  0  0  0  0  0  0  0
   -5.2864   -0.8706    0.0000 O   0  0  0  0  0  0  0  0  0  0  0  0
   -5.7997   -2.2800    0.0000 H   0  0  0  0  0  0  0  0  0  0  0  0
  1  2  1  0  0  0  0 
  1  3  2  0  0  0  0 
  3  4  1  0  0  0  0 
  4  5  1  0  0  0  0 
  4  6  2  0  0  0  0 
  6  7  1  0  0  0  0 
  6  8  1  0  0  0  0 
  8  9  2  0  0  0  0 
  1  9  1  0  0  0  0 
  9 10  1  0  0  0  0 
  8 11  1  0  0  0  0 
 11 12  2  0  0  0  0 
 11 13  1  0  0  0  0 
  3 14  1  0  0  0  0 
 14 15  1  1  0  0  0 
 14 16  1  0  0  0  0 
 16 17  1  6  0  0  0 
 16 18  1  0  0  0  0 
 18 19  1  0  0  0  0 
 18 20  1  0  0  0  0 
 18 21  1  0  0  0  0 
 21 22  1  0  0  0  0 
 16 23  1  1  0  0  0 
 23 24  1  0  0  0  0 
 23 25  1  0  0  0  0 
 25 26  2  0  0  0  0 
 25 27  1  0  0  0  0 
 27 28  1  0  0  0  0 
 27 29  1  0  0  0  0 
 27 30  1  0  0  0  0 
 14 31  1  6  0  0  0 
 31 32  1  0  0  0  0 
 32 33  2  0  0  0  0 
 32 34  2  0  0  0  0 
 32 35  1  0  0  0  0 
 35 36  1  0  0  0  0 
M  CHG  1  11   1
M  CHG  1  13  -1
M  END
> <Rank>
7

> <Priority_score>
0.46323836389280676

> <Reaction_type>
sulfation_(aliphatic_hydroxyl)

> <Parent_ID>
77

> <Parent_InChI>
InChI=1S/C11H12Cl2N2O5/c12-10(13)11(18)14-8(5-16)9(17)6-1-3-7(4-2-6)15(19)20/h1-4,8-10,16-17H,5H2,(H,14,18)

> <Parent_SMILES>
O=C(N[C@H](CO)[C@H](O)c1ccc([N+](=O)[O-])cc1)C(Cl)Cl

$$$$
Molecule 77_metabolite 8
  CDK     0516241031

 33 33  0  0  0  0  0  0  0  0999 V2000
   -7.6902    0.3342    0.0000 C   0  0  0  0  0  0  0  0  0  0  0  0
   -7.6902   -1.1658    0.0000 H   0  0  0  0  0  0  0  0  0  0  0  0
   -6.3902    1.0842    0.0000 C   0  0  0  0  0  0  0  0  0  0  0  0
   -6.3902    2.5842    0.0000 C   0  0  0  0  0  0  0  0  0  0  0  0
   -5.0913    3.3344    0.0000 H   0  0  0  0  0  0  0  0  0  0  0  0
   -7.6902    3.3342    0.0000 C   0  0  0  0  0  0  0  0  0  0  0  0
   -7.6902    4.8342    0.0000 H   0  0  0  0  0  0  0  0  0  0  0  0
   -8.9902    2.5842    0.0000 C   0  0  0  0  0  0  0  0  0  0  0  0
   -8.9902    1.0842    0.0000 C   0  0  0  0  0  0  0  0  0  0  0  0
  -10.2891    0.3340    0.0000 H   0  0  0  0  0  0  0  0  0  0  0  0
  -10.2891    3.3344    0.0000 N   0  0  0  0  0  0  0  0  0  0  0  0
  -11.5883    2.5846    0.0000 O   0  0  0  0  0  0  0  0  0  0  0  0
  -10.2889    4.8344    0.0000 O   0  0  0  0  0  0  0  0  0  0  0  0
   -4.6757    0.0939    0.0000 C   0  0  2  0  0  0  0  0  0  0  0  0
   -5.6400   -1.0550    0.0000 H   0  0  0  0  0  0  0  0  0  0  0  0
   -2.5450    1.3236    0.0000 C   0  0  1  0  0  0  0  0  0  0  0  0
   -1.5807    2.4725    0.0000 H   0  0  0  0  0  0  0  0  0  0  0  0
   -3.5090    2.4728    0.0000 C   0  0  0  0  0  0  0  0  0  0  0  0
   -4.9786    5.0192    0.0000 H   0  0  0  0  0  0  0  0  0  0  0  0
   -4.4734    1.3239    0.0000 H   0  0  0  0  0  0  0  0  0  0  0  0
   -2.9958    3.8823    0.0000 O   0  0  0  0  0  0  0  0  0  0  0  0
   -1.5185    4.1425    0.0000 H   0  0  0  0  0  0  0  0  0  0  0  0
   -1.2461    0.5734    0.0000 N   0  0  0  0  0  0  0  0  0  0  0  0
    0.0530    1.3232    0.0000 C   0  0  0  0  0  0  0  0  0  0  0  0
    0.0533    2.8232    0.0000 O   0  0  0  0  0  0  0  0  0  0  0  0
    1.3520    0.5730    0.0000 C   0  0  0  0  0  0  0  0  0  0  0  0
    2.6511    1.3227    0.0000 H   0  0  0  0  0  0  0  0  0  0  0  0
    0.3876   -0.5760    0.0000 Cl  0  0  0  0  0  0  0  0  0  0  0  0
    2.3160   -0.5763    0.0000 Cl  0  0  0  0  0  0  0  0  0  0  0  0
   -1.2464   -0.9266    0.0000 O   0  0  0  0  0  0  0  0  0  0  0  0
    0.0526   -1.6768    0.0000 H   0  0  0  0  0  0  0  0  0  0  0  0
   -3.7117   -1.0553    0.0000 O   0  0  0  0  0  0  0  0  0  0  0  0
   -4.2249   -2.4648    0.0000 H   0  0  0  0  0  0  0  0  0  0  0  0
  1  2  1  0  0  0  0 
  1  3  2  0  0  0  0 
  3  4  1  0  0  0  0 
  4  5  1  0  0  0  0 
  4  6  2  0  0  0  0 
  6  7  1  0  0  0  0 
  6  8  1  0  0  0  0 
  8  9  2  0  0  0  0 
  1  9  1  0  0  0  0 
  9 10  1  0  0  0  0 
  8 11  1  0  0  0  0 
 11 12  2  0  0  0  0 
 11 13  1  0  0  0  0 
  3 14  1  0  0  0  0 
 14 15  1  1  0  0  0 
 14 16  1  0  0  0  0 
 16 17  1  6  0  0  0 
 16 18  1  0  0  0  0 
 18 19  1  0  0  0  0 
 18 20  1  0  0  0  0 
 18 21  1  0  0  0  0 
 21 22  1  0  0  0  0 
 16 23  1  1  0  0  0 
 23 24  1  0  0  0  0 
 24 25  2  0  0  0  0 
 24 26  1  0  0  0  0 
 26 27  1  0  0  0  0 
 26 28  1  0  0  0  0 
 26 29  1  0  0  0  0 
 23 30  1  0  0  0  0 
 30 31  1  0  0  0  0 
 14 32  1  6  0  0  0 
 32 33  1  0  0  0  0 
M  CHG  1  11   1
M  CHG  1  13  -1
M  END
> <Rank>
8

> <Priority_score>
0.12

> <Reaction_type>
amine hydroxylation

> <Parent_ID>
77

> <Parent_InChI>
InChI=1S/C11H12Cl2N2O5/c12-10(13)11(18)14-8(5-16)9(17)6-1-3-7(4-2-6)15(19)20/h1-4,8-10,16-17H,5H2,(H,14,18)

> <Parent_SMILES>
O=C(N[C@H](CO)[C@H](O)c1ccc([N+](=O)[O-])cc1)C(Cl)Cl

$$$$
Molecule 77_metabolite 9
  CDK     0516241031

 27 27  0  0  0  0  0  0  0  0999 V2000
    0.0000    1.5000    0.0000 C   0  0  0  0  0  0  0  0  0  0  0  0
    0.0000    3.0000    0.0000 H   0  0  0  0  0  0  0  0  0  0  0  0
   -1.3000    0.7500    0.0000 C   0  0  0  0  0  0  0  0  0  0  0  0
   -1.3000   -0.7500    0.0000 C   0  0  0  0  0  0  0  0  0  0  0  0
   -2.5989   -1.5002    0.0000 H   0  0  0  0  0  0  0  0  0  0  0  0
    0.0000   -1.5000    0.0000 C   0  0  0  0  0  0  0  0  0  0  0  0
   -0.0000   -3.0000    0.0000 H   0  0  0  0  0  0  0  0  0  0  0  0
    1.3000   -0.7500    0.0000 C   0  0  0  0  0  0  0  0  0  0  0  0
    1.3000    0.7500    0.0000 C   0  0  0  0  0  0  0  0  0  0  0  0
    2.5989    1.5002    0.0000 H   0  0  0  0  0  0  0  0  0  0  0  0
    2.5989   -1.5002    0.0000 N   0  0  0  0  0  0  0  0  0  0  0  0
    3.8981   -0.7504    0.0000 O   0  0  0  0  0  0  0  0  0  0  0  0
    2.5987   -3.0002    0.0000 O   0  0  0  0  0  0  0  0  0  0  0  0
   -3.0146    1.7403    0.0000 C   0  0  2  0  0  0  0  0  0  0  0  0
   -2.0502    2.8892    0.0000 H   0  0  0  0  0  0  0  0  0  0  0  0
   -4.7295    0.7505    0.0000 C   0  0  1  0  0  0  0  0  0  0  0  0
   -5.6938   -0.3984    0.0000 H   0  0  0  0  0  0  0  0  0  0  0  0
   -6.0284    1.5008    0.0000 C   0  0  0  0  0  0  0  0  0  0  0  0
   -5.0640    2.6497    0.0000 H   0  0  0  0  0  0  0  0  0  0  0  0
   -6.9924    2.6500    0.0000 H   0  0  0  0  0  0  0  0  0  0  0  0
   -7.3275    0.7510    0.0000 O   0  0  0  0  0  0  0  0  0  0  0  0
   -8.6265    1.5012    0.0000 H   0  0  0  0  0  0  0  0  0  0  0  0
   -3.7655   -0.3987    0.0000 N   0  0  0  0  0  0  0  0  0  0  0  0
   -4.2787   -1.8081    0.0000 H   0  0  0  0  0  0  0  0  0  0  0  0
   -2.2882   -0.1384    0.0000 H   0  0  0  0  0  0  0  0  0  0  0  0
   -3.9786    2.8895    0.0000 O   0  0  0  0  0  0  0  0  0  0  0  0
   -3.4653    4.2990    0.0000 H   0  0  0  0  0  0  0  0  0  0  0  0
  1  2  1  0  0  0  0 
  1  3  2  0  0  0  0 
  3  4  1  0  0  0  0 
  4  5  1  0  0  0  0 
  4  6  2  0  0  0  0 
  6  7  1  0  0  0  0 
  6  8  1  0  0  0  0 
  8  9  2  0  0  0  0 
  1  9  1  0  0  0  0 
  9 10  1  0  0  0  0 
  8 11  1  0  0  0  0 
 11 12  2  0  0  0  0 
 11 13  1  0  0  0  0 
  3 14  1  0  0  0  0 
 14 15  1  1  0  0  0 
 14 16  1  0  0  0  0 
 16 17  1  1  0  0  0 
 16 18  1  0  0  0  0 
 18 19  1  0  0  0  0 
 18 20  1  0  0  0  0 
 18 21  1  0  0  0  0 
 21 22  1  0  0  0  0 
 16 23  1  6  0  0  0 
 23 24  1  0  0  0  0 
 23 25  1  0  0  0  0 
 14 26  1  6  0  0  0 
 26 27  1  0  0  0  0 
M  CHG  1  11   1
M  CHG  1  13  -1
M  END
> <Rank>
8

> <Priority_score>
0.12

> <Reaction_type>
hydrolysis_(secondary_amide)

> <Parent_ID>
77

> <Parent_InChI>
InChI=1S/C11H12Cl2N2O5/c12-10(13)11(18)14-8(5-16)9(17)6-1-3-7(4-2-6)15(19)20/h1-4,8-10,16-17H,5H2,(H,14,18)

> <Parent_SMILES>
O=C(N[C@H](CO)[C@H](O)c1ccc([N+](=O)[O-])cc1)C(Cl)Cl

$$$$
Molecule 77_metabolite 10
  CDK     0516241031

  8  7  0  0  0  0  0  0  0  0999 V2000
    3.8971    0.3509    0.0000 C   0  0  0  0  0  0  0  0  0  0  0  0
    5.1962   -0.3991    0.0000 H   0  0  0  0  0  0  0  0  0  0  0  0
    2.5981   -0.3991    0.0000 C   0  0  0  0  0  0  0  0  0  0  0  0
    2.5981   -1.8991    0.0000 O   0  0  0  0  0  0  0  0  0  0  0  0
    1.2990    0.3509    0.0000 O   0  0  0  0  0  0  0  0  0  0  0  0
    0.0000   -0.3991    0.0000 H   0  0  0  0  0  0  0  0  0  0  0  0
    4.8613    1.5000    0.0000 Cl  0  0  0  0  0  0  0  0  0  0  0  0
    2.9329    1.5000    0.0000 Cl  0  0  0  0  0  0  0  0  0  0  0  0
  1  2  1  0  0  0  0 
  1  3  1  0  0  0  0 
  3  4  2  0  0  0  0 
  3  5  1  0  0  0  0 
  5  6  1  0  0  0  0 
  1  7  1  0  0  0  0 
  1  8  1  0  0  0  0 
M  END
> <Rank>
8

> <Priority_score>
0.12

> <Reaction_type>
hydrolysis_(secondary_amide)

> <Parent_ID>
77

> <Parent_InChI>
InChI=1S/C11H12Cl2N2O5/c12-10(13)11(18)14-8(5-16)9(17)6-1-3-7(4-2-6)15(19)20/h1-4,8-10,16-17H,5H2,(H,14,18)

> <Parent_SMILES>
O=C(N[C@H](CO)[C@H](O)c1ccc([N+](=O)[O-])cc1)C(Cl)Cl

$$$$
Molecule 77_metabolite 11
  CDK     0516241031

 33 33  0  0  0  0  0  0  0  0999 V2000
   -3.3419    0.5389    0.0000 C   0  0  0  0  0  0  0  0  0  0  0  0
   -2.0428   -0.2111    0.0000 H   0  0  0  0  0  0  0  0  0  0  0  0
   -3.3414    2.0397    0.0000 C   0  0  0  0  0  0  0  0  0  0  0  0
   -4.6404    2.7897    0.0000 C   0  0  0  0  0  0  0  0  0  0  0  0
   -4.6407    4.2897    0.0000 H   0  0  0  0  0  0  0  0  0  0  0  0
   -5.9399    2.0389    0.0000 C   0  0  0  0  0  0  0  0  0  0  0  0
   -7.2390    2.7889    0.0000 H   0  0  0  0  0  0  0  0  0  0  0  0
   -5.9404    0.5381    0.0000 C   0  0  0  0  0  0  0  0  0  0  0  0
   -4.6414   -0.2119    0.0000 C   0  0  0  0  0  0  0  0  0  0  0  0
   -4.6411   -1.7119    0.0000 H   0  0  0  0  0  0  0  0  0  0  0  0
   -7.2396   -0.2117    0.0000 N   0  0  0  0  0  0  0  0  0  0  0  0
   -7.2398   -1.7117    0.0000 O   0  0  0  0  0  0  0  0  0  0  0  0
   -7.7524    1.1979    0.0000 O   0  0  0  0  0  0  0  0  0  0  0  0
   -8.7168   -0.4719    0.0000 O   0  0  0  0  0  0  0  0  0  0  0  0
   -2.0422    2.7895    0.0000 C   0  0  2  0  0  0  0  0  0  0  0  0
   -1.0779    3.9385    0.0000 H   0  0  0  0  0  0  0  0  0  0  0  0
   -0.7433    2.0393    0.0000 C   0  0  1  0  0  0  0  0  0  0  0  0
   -1.7077    0.8904    0.0000 H   0  0  0  0  0  0  0  0  0  0  0  0
    0.2207    0.8901    0.0000 C   0  0  0  0  0  0  0  0  0  0  0  0
   -1.0785    0.1403    0.0000 H   0  0  0  0  0  0  0  0  0  0  0  0
    0.7335   -0.5195    0.0000 H   0  0  0  0  0  0  0  0  0  0  0  0
    1.6979    1.1503    0.0000 O   0  0  0  0  0  0  0  0  0  0  0  0
    2.6619    0.0011    0.0000 H   0  0  0  0  0  0  0  0  0  0  0  0
    0.5558    2.7891    0.0000 N   0  0  0  0  0  0  0  0  0  0  0  0
    1.8548    2.0389    0.0000 H   0  0  0  0  0  0  0  0  0  0  0  0
    0.5561    4.2891    0.0000 C   0  0  0  0  0  0  0  0  0  0  0  0
   -0.7428    5.0393    0.0000 O   0  0  0  0  0  0  0  0  0  0  0  0
    1.8552    5.0389    0.0000 C   0  0  0  0  0  0  0  0  0  0  0  0
    1.8555    6.5389    0.0000 H   0  0  0  0  0  0  0  0  0  0  0  0
    3.3325    5.2991    0.0000 Cl  0  0  0  0  0  0  0  0  0  0  0  0
    2.3680    3.6293    0.0000 Cl  0  0  0  0  0  0  0  0  0  0  0  0
   -3.0062    3.9388    0.0000 O   0  0  0  0  0  0  0  0  0  0  0  0
   -2.4930    5.3482    0.0000 H   0  0  0  0  0  0  0  0  0  0  0  0
  1  2  1  0  0  0  0 
  1  3  2  0  0  0  0 
  3  4  1  0  0  0  0 
  4  5  1  0  0  0  0 
  4  6  2  0  0  0  0 
  6  7  1  0  0  0  0 
  6  8  1  0  0  0  0 
  8  9  2  0  0  0  0 
  1  9  1  0  0  0  0 
  9 10  1  0  0  0  0 
  8 11  1  0  0  0  0 
 11 12  2  0  0  0  0 
 11 13  1  0  0  0  0 
 11 14  1  0  0  0  0 
  3 15  1  0  0  0  0 
 15 16  1  6  0  0  0 
 15 17  1  0  0  0  0 
 17 18  1  1  0  0  0 
 17 19  1  6  0  0  0 
 19 20  1  0  0  0  0 
 19 21  1  0  0  0  0 
 19 22  1  0  0  0  0 
 22 23  1  0  0  0  0 
 17 24  1  0  0  0  0 
 24 25  1  0  0  0  0 
 24 26  1  0  0  0  0 
 26 27  2  0  0  0  0 
 26 28  1  0  0  0  0 
 28 29  1  0  0  0  0 
 28 30  1  0  0  0  0 
 28 31  1  0  0  0  0 
 15 32  1  1  0  0  0 
 32 33  1  0  0  0  0 
M  CHG  1  11   1
M  CHG  1  13  -1
M  CHG  1  14  -1
M  END
> <Rank>
11

> <Priority_score>
0.068

> <Reaction_type>
N-oxidation

> <Parent_ID>
77

> <Parent_InChI>
InChI=1S/C11H12Cl2N2O5/c12-10(13)11(18)14-8(5-16)9(17)6-1-3-7(4-2-6)15(19)20/h1-4,8-10,16-17H,5H2,(H,14,18)

> <Parent_SMILES>
O=C(N[C@H](CO)[C@H](O)c1ccc([N+](=O)[O-])cc1)C(Cl)Cl

$$$$
Molecule 77_metabolite 12
  CDK     0516241031

 29 29  0  0  0  0  0  0  0  0999 V2000
    0.0000    1.5000    0.0000 C   0  0  0  0  0  0  0  0  0  0  0  0
    0.0000    3.0000    0.0000 H   0  0  0  0  0  0  0  0  0  0  0  0
   -1.3000    0.7500    0.0000 C   0  0  0  0  0  0  0  0  0  0  0  0
   -1.3000   -0.7500    0.0000 C   0  0  0  0  0  0  0  0  0  0  0  0
   -2.5989   -1.5002    0.0000 H   0  0  0  0  0  0  0  0  0  0  0  0
    0.0000   -1.5000    0.0000 C   0  0  0  0  0  0  0  0  0  0  0  0
   -0.0000   -3.0000    0.0000 H   0  0  0  0  0  0  0  0  0  0  0  0
    1.3000   -0.7500    0.0000 C   0  0  0  0  0  0  0  0  0  0  0  0
    1.3000    0.7500    0.0000 C   0  0  0  0  0  0  0  0  0  0  0  0
    2.5989    1.5002    0.0000 H   0  0  0  0  0  0  0  0  0  0  0  0
    2.5989   -1.5002    0.0000 N   0  0  0  0  0  0  0  0  0  0  0  0
    3.8981   -0.7504    0.0000 O   0  0  0  0  0  0  0  0  0  0  0  0
    2.5987   -3.0002    0.0000 O   0  0  0  0  0  0  0  0  0  0  0  0
   -2.5989    1.5002    0.0000 C   0  0  0  0  0  0  0  0  0  0  0  0
   -2.5987    3.0002    0.0000 H   0  0  0  0  0  0  0  0  0  0  0  0
   -3.8981    0.7504    0.0000 C   0  0  0  0  0  0  0  0  0  0  0  0
   -3.8983   -0.7496    0.0000 C   0  0  0  0  0  0  0  0  0  0  0  0
   -3.3855   -2.1592    0.0000 H   0  0  0  0  0  0  0  0  0  0  0  0
   -2.4211   -0.4893    0.0000 H   0  0  0  0  0  0  0  0  0  0  0  0
   -5.1975   -1.4994    0.0000 O   0  0  0  0  0  0  0  0  0  0  0  0
   -6.4964   -0.7492    0.0000 H   0  0  0  0  0  0  0  0  0  0  0  0
   -5.1970    1.5006    0.0000 N   0  0  0  0  0  0  0  0  0  0  0  0
   -6.4962    0.7508    0.0000 H   0  0  0  0  0  0  0  0  0  0  0  0
   -5.1968    3.0006    0.0000 C   0  0  0  0  0  0  0  0  0  0  0  0
   -3.8976    3.7504    0.0000 O   0  0  0  0  0  0  0  0  0  0  0  0
   -6.4957    3.7508    0.0000 C   0  0  0  0  0  0  0  0  0  0  0  0
   -6.4954    5.2508    0.0000 H   0  0  0  0  0  0  0  0  0  0  0  0
   -7.0089    2.3414    0.0000 Cl  0  0  0  0  0  0  0  0  0  0  0  0
   -7.9728    4.0115    0.0000 Cl  0  0  0  0  0  0  0  0  0  0  0  0
  1  2  1  0  0  0  0 
  1  3  2  0  0  0  0 
  3  4  1  0  0  0  0 
  4  5  1  0  0  0  0 
  4  6  2  0  0  0  0 
  6  7  1  0  0  0  0 
  6  8  1  0  0  0  0 
  8  9  2  0  0  0  0 
  1  9  1  0  0  0  0 
  9 10  1  0  0  0  0 
  8 11  1  0  0  0  0 
 11 12  2  0  0  0  0 
 11 13  1  0  0  0  0 
  3 14  1  0  0  0  0 
 14 15  1  4  0  0  0 
 14 16  2  0  0  0  0 
 16 17  1  0  0  0  0 
 17 18  1  0  0  0  0 
 17 19  1  0  0  0  0 
 17 20  1  0  0  0  0 
 20 21  1  0  0  0  0 
 16 22  1  0  0  0  0 
 22 23  1  0  0  0  0 
 22 24  1  0  0  0  0 
 24 25  2  0  0  0  0 
 24 26  1  0  0  0  0 
 26 27  1  0  0  0  0 
 26 28  1  0  0  0  0 
 26 29  1  0  0  0  0 
M  CHG  1  11   1
M  CHG  1  13  -1
M  END
> <Rank>
11

> <Priority_score>
0.068

> <Reaction_type>
dehydration_next_to_SP2_both_sides

> <Parent_ID>
77

> <Parent_InChI>
InChI=1S/C11H12Cl2N2O5/c12-10(13)11(18)14-8(5-16)9(17)6-1-3-7(4-2-6)15(19)20/h1-4,8-10,16-17H,5H2,(H,14,18)

> <Parent_SMILES>
O=C(N[C@H](CO)[C@H](O)c1ccc([N+](=O)[O-])cc1)C(Cl)Cl

$$$$
Molecule 77_metabolite 13
  CDK     0516241031

 33 33  0  0  0  0  0  0  0  0999 V2000
   -0.3450    2.3186    0.0000 C   0  0  0  0  0  0  0  0  0  0  0  0
   -1.8450    2.3163    0.0000 H   0  0  0  0  0  0  0  0  0  0  0  0
    0.3971    3.6131    0.0000 C   0  0  0  0  0  0  0  0  0  0  0  0
    1.9066    3.6186    0.0000 C   0  0  0  0  0  0  0  0  0  0  0  0
    2.6543    4.9190    0.0000 H   0  0  0  0  0  0  0  0  0  0  0  0
    2.6566    2.3195    0.0000 C   0  0  0  0  0  0  0  0  0  0  0  0
    1.9071    0.9977    0.0000 C   0  0  0  0  0  0  0  0  0  0  0  0
    0.4050    1.0195    0.0000 C   0  0  0  0  0  0  0  0  0  0  0  0
   -0.3545   -0.2740    0.0000 H   0  0  0  0  0  0  0  0  0  0  0  0
    2.6527   -0.3039    0.0000 N   0  0  0  0  0  0  0  0  0  0  0  0
    1.8984   -1.6004    0.0000 O   0  0  0  0  0  0  0  0  0  0  0  0
    4.1527   -0.3089    0.0000 O   0  0  0  0  0  0  0  0  0  0  0  0
    4.1566    2.3254    0.0000 O   0  0  0  0  0  0  0  0  0  0  0  0
    4.9015    3.6273    0.0000 H   0  0  0  0  0  0  0  0  0  0  0  0
   -0.5986    5.3245    0.0000 C   0  0  2  0  0  0  0  0  0  0  0  0
    0.8092    5.8422    0.0000 H   0  0  0  0  0  0  0  0  0  0  0  0
   -3.0586    5.3163    0.0000 C   0  0  1  0  0  0  0  0  0  0  0  0
   -4.4664    4.7986    0.0000 H   0  0  0  0  0  0  0  0  0  0  0  0
   -2.7932    3.8400    0.0000 C   0  0  0  0  0  0  0  0  0  0  0  0
   -2.7834    0.9000    0.0000 H   0  0  0  0  0  0  0  0  0  0  0  0
   -1.3853    4.3577    0.0000 H   0  0  0  0  0  0  0  0  0  0  0  0
   -3.9390    2.8720    0.0000 O   0  0  0  0  0  0  0  0  0  0  0  0
   -5.3503    3.3803    0.0000 H   0  0  0  0  0  0  0  0  0  0  0  0
   -3.8129    6.6129    0.0000 N   0  0  0  0  0  0  0  0  0  0  0  0
   -3.0672    7.9144    0.0000 H   0  0  0  0  0  0  0  0  0  0  0  0
   -5.3129    6.6079    0.0000 C   0  0  0  0  0  0  0  0  0  0  0  0
   -6.0585    5.3063    0.0000 O   0  0  0  0  0  0  0  0  0  0  0  0
   -6.0672    7.9044    0.0000 C   0  0  0  0  0  0  0  0  0  0  0  0
   -7.5672    7.8994    0.0000 H   0  0  0  0  0  0  0  0  0  0  0  0
   -4.6594    8.4221    0.0000 Cl  0  0  0  0  0  0  0  0  0  0  0  0
   -6.3326    9.3807    0.0000 Cl  0  0  0  0  0  0  0  0  0  0  0  0
   -0.8640    6.8009    0.0000 O   0  0  0  0  0  0  0  0  0  0  0  0
    0.2819    7.7689    0.0000 H   0  0  0  0  0  0  0  0  0  0  0  0
  1  2  1  0  0  0  0 
  1  3  2  0  0  0  0 
  3  4  1  0  0  0  0 
  4  5  1  0  0  0  0 
  4  6  2  0  0  0  0 
  6  7  1  0  0  0  0 
  7  8  2  0  0  0  0 
  1  8  1  0  0  0  0 
  8  9  1  0  0  0  0 
  7 10  1  0  0  0  0 
 10 11  2  0  0  0  0 
 10 12  1  0  0  0  0 
  6 13  1  0  0  0  0 
 13 14  1  0  0  0  0 
  3 15  1  0  0  0  0 
 15 16  1  1  0  0  0 
 15 17  1  0  0  0  0 
 17 18  1  6  0  0  0 
 17 19  1  0  0  0  0 
 19 20  1  0  0  0  0 
 19 21  1  0  0  0  0 
 19 22  1  0  0  0  0 
 22 23  1  0  0  0  0 
 17 24  1  1  0  0  0 
 24 25  1  0  0  0  0 
 24 26  1  0  0  0  0 
 26 27  2  0  0  0  0 
 26 28  1  0  0  0  0 
 28 29  1  0  0  0  0 
 28 30  1  0  0  0  0 
 28 31  1  0  0  0  0 
 15 32  1  6  0  0  0 
 32 33  1  0  0  0  0 
M  CHG  1  10   1
M  CHG  1  12  -1
M  END
> <Rank>
11

> <Priority_score>
0.068

> <Reaction_type>
aromatic_hydroxylation_(ortho_to_nitrogen)

> <Parent_ID>
77

> <Parent_InChI>
InChI=1S/C11H12Cl2N2O5/c12-10(13)11(18)14-8(5-16)9(17)6-1-3-7(4-2-6)15(19)20/h1-4,8-10,16-17H,5H2,(H,14,18)

> <Parent_SMILES>
O=C(N[C@H](CO)[C@H](O)c1ccc([N+](=O)[O-])cc1)C(Cl)Cl

$$$$
Molecule 77_metabolite 14
  CDK     0516241031

 30 30  0  0  0  0  0  0  0  0999 V2000
  -10.3700    3.9212    0.0000 C   0  0  0  0  0  0  0  0  0  0  0  0
  -10.8825    5.3309    0.0000 H   0  0  0  0  0  0  0  0  0  0  0  0
   -8.8919    3.6606    0.0000 C   0  0  0  0  0  0  0  0  0  0  0  0
   -8.3793    2.2509    0.0000 C   0  0  0  0  0  0  0  0  0  0  0  0
   -6.9023    1.9897    0.0000 H   0  0  0  0  0  0  0  0  0  0  0  0
   -9.3448    1.1018    0.0000 C   0  0  0  0  0  0  0  0  0  0  0  0
   -8.8322   -0.3079    0.0000 H   0  0  0  0  0  0  0  0  0  0  0  0
  -10.8228    1.3624    0.0000 C   0  0  0  0  0  0  0  0  0  0  0  0
  -11.3354    2.7721    0.0000 C   0  0  0  0  0  0  0  0  0  0  0  0
  -12.8125    3.0333    0.0000 H   0  0  0  0  0  0  0  0  0  0  0  0
  -11.7872    0.2135    0.0000 N   0  0  0  0  0  0  0  0  0  0  0  0
  -13.2644    0.4742    0.0000 O   0  0  0  0  0  0  0  0  0  0  0  0
  -11.2744   -1.1961    0.0000 O   0  0  0  0  0  0  0  0  0  0  0  0
   -7.3104    5.5448    0.0000 C   0  0  0  0  0  0  0  0  0  0  0  0
   -7.8232    6.9544    0.0000 O   0  0  0  0  0  0  0  0  0  0  0  0
   -5.3605    5.2007    0.0000 C   0  0  1  0  0  0  0  0  0  0  0  0
   -3.9509    5.7135    0.0000 H   0  0  0  0  0  0  0  0  0  0  0  0
   -5.7040    7.1507    0.0000 C   0  0  0  0  0  0  0  0  0  0  0  0
   -6.7091    9.9135    0.0000 H   0  0  0  0  0  0  0  0  0  0  0  0
   -8.5993    7.6617    0.0000 H   0  0  0  0  0  0  0  0  0  0  0  0
   -4.5548    8.1147    0.0000 O   0  0  0  0  0  0  0  0  0  0  0  0
   -3.1453    7.6014    0.0000 H   0  0  0  0  0  0  0  0  0  0  0  0
   -4.6107    3.9015    0.0000 N   0  0  0  0  0  0  0  0  0  0  0  0
   -5.3609    2.6026    0.0000 H   0  0  0  0  0  0  0  0  0  0  0  0
   -3.1107    3.9013    0.0000 C   0  0  0  0  0  0  0  0  0  0  0  0
   -2.3605    5.2002    0.0000 O   0  0  0  0  0  0  0  0  0  0  0  0
   -2.3609    2.6021    0.0000 C   0  0  0  0  0  0  0  0  0  0  0  0
   -0.8609    2.6019    0.0000 H   0  0  0  0  0  0  0  0  0  0  0  0
   -3.7705    2.0893    0.0000 Cl  0  0  0  0  0  0  0  0  0  0  0  0
   -2.1007    1.1249    0.0000 Cl  0  0  0  0  0  0  0  0  0  0  0  0
  1  2  1  0  0  0  0 
  1  3  2  0  0  0  0 
  3  4  1  0  0  0  0 
  4  5  1  0  0  0  0 
  4  6  2  0  0  0  0 
  6  7  1  0  0  0  0 
  6  8  1  0  0  0  0 
  8  9  2  0  0  0  0 
  1  9  1  0  0  0  0 
  9 10  1  0  0  0  0 
  8 11  1  0  0  0  0 
 11 12  2  0  0  0  0 
 11 13  1  0  0  0  0 
  3 14  1  0  0  0  0 
 14 15  2  0  0  0  0 
 14 16  1  0  0  0  0 
 16 17  1  6  0  0  0 
 16 18  1  0  0  0  0 
 18 19  1  0  0  0  0 
 18 20  1  0  0  0  0 
 18 21  1  0  0  0  0 
 21 22  1  0  0  0  0 
 16 23  1  1  0  0  0 
 23 24  1  0  0  0  0 
 23 25  1  0  0  0  0 
 25 26  2  0  0  0  0 
 25 27  1  0  0  0  0 
 27 28  1  0  0  0  0 
 27 29  1  0  0  0  0 
 27 30  1  0  0  0  0 
M  CHG  1  11   1
M  CHG  1  13  -1
M  END
> <Rank>
11

> <Priority_score>
0.068

> <Reaction_type>
secondary_alcohol_oxidation_(benzylic)

> <Parent_ID>
77

> <Parent_InChI>
InChI=1S/C11H12Cl2N2O5/c12-10(13)11(18)14-8(5-16)9(17)6-1-3-7(4-2-6)15(19)20/h1-4,8-10,16-17H,5H2,(H,14,18)

> <Parent_SMILES>
O=C(N[C@H](CO)[C@H](O)c1ccc([N+](=O)[O-])cc1)C(Cl)Cl

$$$$
Molecule 77_metabolite 15
  CDK     0516241031

 33 33  0  0  0  0  0  0  0  0999 V2000
   -7.6902    0.3342    0.0000 C   0  0  0  0  0  0  0  0  0  0  0  0
   -7.6902   -1.1658    0.0000 H   0  0  0  0  0  0  0  0  0  0  0  0
   -6.3902    1.0842    0.0000 C   0  0  0  0  0  0  0  0  0  0  0  0
   -6.3902    2.5842    0.0000 C   0  0  0  0  0  0  0  0  0  0  0  0
   -5.0913    3.3344    0.0000 H   0  0  0  0  0  0  0  0  0  0  0  0
   -7.6902    3.3342    0.0000 C   0  0  0  0  0  0  0  0  0  0  0  0
   -7.6902    4.8342    0.0000 H   0  0  0  0  0  0  0  0  0  0  0  0
   -8.9902    2.5842    0.0000 C   0  0  0  0  0  0  0  0  0  0  0  0
   -8.9902    1.0842    0.0000 C   0  0  0  0  0  0  0  0  0  0  0  0
  -10.2891    0.3340    0.0000 H   0  0  0  0  0  0  0  0  0  0  0  0
  -10.2891    3.3344    0.0000 N   0  0  0  0  0  0  0  0  0  0  0  0
  -11.5883    2.5846    0.0000 O   0  0  0  0  0  0  0  0  0  0  0  0
  -10.2889    4.8344    0.0000 O   0  0  0  0  0  0  0  0  0  0  0  0
   -4.6757    0.0939    0.0000 C   0  0  2  0  0  0  0  0  0  0  0  0
   -2.5450    1.3236    0.0000 C   0  0  1  0  0  0  0  0  0  0  0  0
   -1.5807    2.4725    0.0000 H   0  0  0  0  0  0  0  0  0  0  0  0
   -3.5090    2.4728    0.0000 C   0  0  0  0  0  0  0  0  0  0  0  0
   -4.9786    5.0192    0.0000 H   0  0  0  0  0  0  0  0  0  0  0  0
   -4.4734    1.3239    0.0000 H   0  0  0  0  0  0  0  0  0  0  0  0
   -2.9958    3.8823    0.0000 O   0  0  0  0  0  0  0  0  0  0  0  0
   -1.5185    4.1425    0.0000 H   0  0  0  0  0  0  0  0  0  0  0  0
   -1.2461    0.5734    0.0000 N   0  0  0  0  0  0  0  0  0  0  0  0
   -1.2464   -0.9266    0.0000 H   0  0  0  0  0  0  0  0  0  0  0  0
    0.0530    1.3232    0.0000 C   0  0  0  0  0  0  0  0  0  0  0  0
    0.0533    2.8232    0.0000 O   0  0  0  0  0  0  0  0  0  0  0  0
    1.3520    0.5730    0.0000 C   0  0  0  0  0  0  0  0  0  0  0  0
    2.6511    1.3227    0.0000 H   0  0  0  0  0  0  0  0  0  0  0  0
    0.3876   -0.5760    0.0000 Cl  0  0  0  0  0  0  0  0  0  0  0  0
    2.3160   -0.5763    0.0000 Cl  0  0  0  0  0  0  0  0  0  0  0  0
   -5.6400   -1.0550    0.0000 O   0  0  0  0  0  0  0  0  0  0  0  0
   -5.1272   -2.4646    0.0000 H   0  0  0  0  0  0  0  0  0  0  0  0
   -3.7117   -1.0553    0.0000 O   0  0  0  0  0  0  0  0  0  0  0  0
   -4.2249   -2.4648    0.0000 H   0  0  0  0  0  0  0  0  0  0  0  0
  1  2  1  0  0  0  0 
  1  3  2  0  0  0  0 
  3  4  1  0  0  0  0 
  4  5  1  0  0  0  0 
  4  6  2  0  0  0  0 
  6  7  1  0  0  0  0 
  6  8  1  0  0  0  0 
  8  9  2  0  0  0  0 
  1  9  1  0  0  0  0 
  9 10  1  0  0  0  0 
  8 11  1  0  0  0  0 
 11 12  2  0  0  0  0 
 11 13  1  0  0  0  0 
  3 14  1  0  0  0  0 
 14 15  1  0  0  0  0 
 15 16  1  6  0  0  0 
 15 17  1  0  0  0  0 
 17 18  1  0  0  0  0 
 17 19  1  0  0  0  0 
 17 20  1  0  0  0  0 
 20 21  1  0  0  0  0 
 15 22  1  1  0  0  0 
 22 23  1  0  0  0  0 
 22 24  1  0  0  0  0 
 24 25  2  0  0  0  0 
 24 26  1  0  0  0  0 
 26 27  1  0  0  0  0 
 26 28  1  0  0  0  0 
 26 29  1  0  0  0  0 
 14 30  1  6  0  0  0 
 30 31  1  0  0  0  0 
 14 32  1  1  0  0  0 
 32 33  1  0  0  0  0 
M  CHG  1  11   1
M  CHG  1  13  -1
M  END
> <Rank>
11

> <Priority_score>
0.068

> <Reaction_type>
aliphatic hydroxylation

> <Parent_ID>
77

> <Parent_InChI>
InChI=1S/C11H12Cl2N2O5/c12-10(13)11(18)14-8(5-16)9(17)6-1-3-7(4-2-6)15(19)20/h1-4,8-10,16-17H,5H2,(H,14,18)

> <Parent_SMILES>
O=C(N[C@H](CO)[C@H](O)c1ccc([N+](=O)[O-])cc1)C(Cl)Cl

$$$$
Molecule 77_metabolite 16
  CDK     0516241031

 33 33  0  0  0  0  0  0  0  0999 V2000
    0.1642    1.9510    0.0000 C   0  0  0  0  0  0  0  0  0  0  0  0
    0.1642    3.4510    0.0000 H   0  0  0  0  0  0  0  0  0  0  0  0
   -1.1358    1.2010    0.0000 C   0  0  0  0  0  0  0  0  0  0  0  0
   -1.1358   -0.2990    0.0000 C   0  0  0  0  0  0  0  0  0  0  0  0
   -2.4347   -1.0492    0.0000 H   0  0  0  0  0  0  0  0  0  0  0  0
    0.1642   -1.0490    0.0000 C   0  0  0  0  0  0  0  0  0  0  0  0
    0.1642   -2.5490    0.0000 H   0  0  0  0  0  0  0  0  0  0  0  0
    1.4642   -0.2990    0.0000 C   0  0  0  0  0  0  0  0  0  0  0  0
    1.4642    1.2010    0.0000 C   0  0  0  0  0  0  0  0  0  0  0  0
    2.7632    1.9512    0.0000 H   0  0  0  0  0  0  0  0  0  0  0  0
    2.7632   -1.0492    0.0000 N   0  0  0  0  0  0  0  0  0  0  0  0
    4.0623   -0.2994    0.0000 O   0  0  0  0  0  0  0  0  0  0  0  0
    2.7629   -2.5492    0.0000 O   0  0  0  0  0  0  0  0  0  0  0  0
   -2.4347    1.9512    0.0000 C   0  0  2  0  0  0  0  0  0  0  0  0
   -1.4703    3.1001    0.0000 H   0  0  0  0  0  0  0  0  0  0  0  0
   -3.7338    1.2014    0.0000 C   0  0  1  0  0  0  0  0  0  0  0  0
   -4.6982    0.0525    0.0000 C   0  0  0  0  0  0  0  0  0  0  0  0
   -5.2115   -1.3569    0.0000 H   0  0  0  0  0  0  0  0  0  0  0  0
   -3.3993   -0.6977    0.0000 H   0  0  0  0  0  0  0  0  0  0  0  0
   -6.1754    0.3132    0.0000 O   0  0  0  0  0  0  0  0  0  0  0  0
   -7.1397   -0.8357    0.0000 H   0  0  0  0  0  0  0  0  0  0  0  0
   -5.0328    1.9517    0.0000 N   0  0  0  0  0  0  0  0  0  0  0  0
   -6.3319    1.2019    0.0000 H   0  0  0  0  0  0  0  0  0  0  0  0
   -5.0325    3.4517    0.0000 C   0  0  0  0  0  0  0  0  0  0  0  0
   -3.7334    4.2014    0.0000 O   0  0  0  0  0  0  0  0  0  0  0  0
   -6.3314    4.2019    0.0000 C   0  0  0  0  0  0  0  0  0  0  0  0
   -6.3312    5.7019    0.0000 H   0  0  0  0  0  0  0  0  0  0  0  0
   -6.8447    2.7924    0.0000 Cl  0  0  0  0  0  0  0  0  0  0  0  0
   -7.8086    4.4626    0.0000 Cl  0  0  0  0  0  0  0  0  0  0  0  0
   -2.7698    0.0522    0.0000 O   0  0  0  0  0  0  0  0  0  0  0  0
   -3.4473   -1.8083    0.0000 H   0  0  0  0  0  0  0  0  0  0  0  0
   -3.3987    3.1005    0.0000 O   0  0  0  0  0  0  0  0  0  0  0  0
   -2.8854    4.5099    0.0000 H   0  0  0  0  0  0  0  0  0  0  0  0
  1  2  1  0  0  0  0 
  1  3  2  0  0  0  0 
  3  4  1  0  0  0  0 
  4  5  1  0  0  0  0 
  4  6  2  0  0  0  0 
  6  7  1  0  0  0  0 
  6  8  1  0  0  0  0 
  8  9  2  0  0  0  0 
  1  9  1  0  0  0  0 
  9 10  1  0  0  0  0 
  8 11  1  0  0  0  0 
 11 12  2  0  0  0  0 
 11 13  1  0  0  0  0 
  3 14  1  0  0  0  0 
 14 15  1  1  0  0  0 
 14 16  1  0  0  0  0 
 16 17  1  1  0  0  0 
 17 18  1  0  0  0  0 
 17 19  1  0  0  0  0 
 17 20  1  0  0  0  0 
 20 21  1  0  0  0  0 
 16 22  1  6  0  0  0 
 22 23  1  0  0  0  0 
 22 24  1  0  0  0  0 
 24 25  2  0  0  0  0 
 24 26  1  0  0  0  0 
 26 27  1  0  0  0  0 
 26 28  1  0  0  0  0 
 26 29  1  0  0  0  0 
 16 30  1  0  0  0  0 
 30 31  1  0  0  0  0 
 14 32  1  6  0  0  0 
 32 33  1  0  0  0  0 
M  CHG  1  11   1
M  CHG  1  13  -1
M  END
> <Rank>
11

> <Priority_score>
0.068

> <Reaction_type>
aliphatic_hydroxylation_(tert_carbon_next_to_SP2)

> <Parent_ID>
77

> <Parent_InChI>
InChI=1S/C11H12Cl2N2O5/c12-10(13)11(18)14-8(5-16)9(17)6-1-3-7(4-2-6)15(19)20/h1-4,8-10,16-17H,5H2,(H,14,18)

> <Parent_SMILES>
O=C(N[C@H](CO)[C@H](O)c1ccc([N+](=O)[O-])cc1)C(Cl)Cl

$$$$
Molecule 77_metabolite 17
  CDK     0516241031

 32 32  0  0  0  0  0  0  0  0999 V2000
   -7.6902    0.3342    0.0000 C   0  0  0  0  0  0  0  0  0  0  0  0
   -7.6902   -1.1658    0.0000 H   0  0  0  0  0  0  0  0  0  0  0  0
   -6.3902    1.0842    0.0000 C   0  0  0  0  0  0  0  0  0  0  0  0
   -6.3902    2.5842    0.0000 C   0  0  0  0  0  0  0  0  0  0  0  0
   -5.0913    3.3344    0.0000 H   0  0  0  0  0  0  0  0  0  0  0  0
   -7.6902    3.3342    0.0000 C   0  0  0  0  0  0  0  0  0  0  0  0
   -7.6902    4.8342    0.0000 H   0  0  0  0  0  0  0  0  0  0  0  0
   -8.9902    2.5842    0.0000 C   0  0  0  0  0  0  0  0  0  0  0  0
   -8.9902    1.0842    0.0000 C   0  0  0  0  0  0  0  0  0  0  0  0
  -10.2891    0.3340    0.0000 H   0  0  0  0  0  0  0  0  0  0  0  0
  -10.2891    3.3344    0.0000 N   0  0  0  0  0  0  0  0  0  0  0  0
  -11.5883    2.5846    0.0000 H   0  0  0  0  0  0  0  0  0  0  0  0
  -10.2889    4.8344    0.0000 H   0  0  0  0  0  0  0  0  0  0  0  0
   -4.6757    0.0939    0.0000 C   0  0  2  0  0  0  0  0  0  0  0  0
   -5.6400   -1.0550    0.0000 H   0  0  0  0  0  0  0  0  0  0  0  0
   -2.5450    1.3236    0.0000 C   0  0  1  0  0  0  0  0  0  0  0  0
   -1.5807    2.4725    0.0000 H   0  0  0  0  0  0  0  0  0  0  0  0
   -3.5090    2.4728    0.0000 C   0  0  0  0  0  0  0  0  0  0  0  0
   -4.9786    5.0192    0.0000 H   0  0  0  0  0  0  0  0  0  0  0  0
   -4.4734    1.3239    0.0000 H   0  0  0  0  0  0  0  0  0  0  0  0
   -2.9958    3.8823    0.0000 O   0  0  0  0  0  0  0  0  0  0  0  0
   -1.5185    4.1425    0.0000 H   0  0  0  0  0  0  0  0  0  0  0  0
   -1.2461    0.5734    0.0000 N   0  0  0  0  0  0  0  0  0  0  0  0
   -1.2464   -0.9266    0.0000 H   0  0  0  0  0  0  0  0  0  0  0  0
    0.0530    1.3232    0.0000 C   0  0  0  0  0  0  0  0  0  0  0  0
    0.0533    2.8232    0.0000 O   0  0  0  0  0  0  0  0  0  0  0  0
    1.3520    0.5730    0.0000 C   0  0  0  0  0  0  0  0  0  0  0  0
    2.6511    1.3227    0.0000 H   0  0  0  0  0  0  0  0  0  0  0  0
    0.3876   -0.5760    0.0000 Cl  0  0  0  0  0  0  0  0  0  0  0  0
    2.3160   -0.5763    0.0000 Cl  0  0  0  0  0  0  0  0  0  0  0  0
   -3.7117   -1.0553    0.0000 O   0  0  0  0  0  0  0  0  0  0  0  0
   -4.2249   -2.4648    0.0000 H   0  0  0  0  0  0  0  0  0  0  0  0
  1  2  1  0  0  0  0 
  1  3  2  0  0  0  0 
  3  4  1  0  0  0  0 
  4  5  1  0  0  0  0 
  4  6  2  0  0  0  0 
  6  7  1  0  0  0  0 
  6  8  1  0  0  0  0 
  8  9  2  0  0  0  0 
  1  9  1  0  0  0  0 
  9 10  1  0  0  0  0 
  8 11  1  0  0  0  0 
 11 12  1  0  0  0  0 
 11 13  1  0  0  0  0 
  3 14  1  0  0  0  0 
 14 15  1  1  0  0  0 
 14 16  1  0  0  0  0 
 16 17  1  6  0  0  0 
 16 18  1  0  0  0  0 
 18 19  1  0  0  0  0 
 18 20  1  0  0  0  0 
 18 21  1  0  0  0  0 
 21 22  1  0  0  0  0 
 16 23  1  1  0  0  0 
 23 24  1  0  0  0  0 
 23 25  1  0  0  0  0 
 25 26  2  0  0  0  0 
 25 27  1  0  0  0  0 
 27 28  1  0  0  0  0 
 27 29  1  0  0  0  0 
 27 30  1  0  0  0  0 
 14 31  1  6  0  0  0 
 31 32  1  0  0  0  0 
M  END
> <Rank>
11

> <Priority_score>
0.068

> <Reaction_type>
nitro_to_aniline

> <Parent_ID>
77

> <Parent_InChI>
InChI=1S/C11H12Cl2N2O5/c12-10(13)11(18)14-8(5-16)9(17)6-1-3-7(4-2-6)15(19)20/h1-4,8-10,16-17H,5H2,(H,14,18)

> <Parent_SMILES>
O=C(N[C@H](CO)[C@H](O)c1ccc([N+](=O)[O-])cc1)C(Cl)Cl

$$$$
Molecule 77_metabolite 18
  CDK     0516241031

 29 29  0  0  0  0  0  0  0  0999 V2000
   -0.4664    2.7680    0.0000 C   0  0  0  0  0  0  0  0  0  0  0  0
    0.8328    3.5178    0.0000 H   0  0  0  0  0  0  0  0  0  0  0  0
   -1.7653    3.5182    0.0000 H   0  0  0  0  0  0  0  0  0  0  0  0
   -0.4666    1.2680    0.0000 C   0  0  0  0  0  0  0  0  0  0  0  0
   -2.5972    0.0383    0.0000 C   0  0  1  0  0  0  0  0  0  0  0  0
   -3.5616   -1.1106    0.0000 H   0  0  0  0  0  0  0  0  0  0  0  0
   -3.8962    0.7885    0.0000 C   0  0  0  0  0  0  0  0  0  0  0  0
   -3.8962    2.2885    0.0000 C   0  0  0  0  0  0  0  0  0  0  0  0
   -2.5972    3.0388    0.0000 H   0  0  0  0  0  0  0  0  0  0  0  0
   -5.1962    3.0385    0.0000 C   0  0  0  0  0  0  0  0  0  0  0  0
   -5.1962    4.5385    0.0000 H   0  0  0  0  0  0  0  0  0  0  0  0
   -6.4962    2.2885    0.0000 C   0  0  0  0  0  0  0  0  0  0  0  0
   -6.4962    0.7885    0.0000 C   0  0  0  0  0  0  0  0  0  0  0  0
   -7.7951    0.0383    0.0000 H   0  0  0  0  0  0  0  0  0  0  0  0
   -5.1962    0.0385    0.0000 C   0  0  0  0  0  0  0  0  0  0  0  0
   -5.1962   -1.4615    0.0000 H   0  0  0  0  0  0  0  0  0  0  0  0
   -7.7951    3.0388    0.0000 N   0  0  0  0  0  0  0  0  0  0  0  0
   -9.0942    2.2890    0.0000 O   0  0  0  0  0  0  0  0  0  0  0  0
   -7.7948    4.5388    0.0000 O   0  0  0  0  0  0  0  0  0  0  0  0
   -1.6332   -1.1109    0.0000 O   0  0  0  0  0  0  0  0  0  0  0  0
   -2.1465   -2.5203    0.0000 H   0  0  0  0  0  0  0  0  0  0  0  0
    0.8323    0.5178    0.0000 N   0  0  0  0  0  0  0  0  0  0  0  0
    0.8321   -0.9822    0.0000 H   0  0  0  0  0  0  0  0  0  0  0  0
    2.1315    1.2676    0.0000 C   0  0  0  0  0  0  0  0  0  0  0  0
    2.1317    2.7676    0.0000 O   0  0  0  0  0  0  0  0  0  0  0  0
    3.4304    0.5174    0.0000 C   0  0  0  0  0  0  0  0  0  0  0  0
    4.7295    1.2672    0.0000 H   0  0  0  0  0  0  0  0  0  0  0  0
    2.4660   -0.6315    0.0000 Cl  0  0  0  0  0  0  0  0  0  0  0  0
    4.3944   -0.6319    0.0000 Cl  0  0  0  0  0  0  0  0  0  0  0  0
  1  2  1  0  0  0  0 
  1  3  1  0  0  0  0 
  1  4  2  0  0  0  0 
  4  5  1  0  0  0  0 
  5  6  1  1  0  0  0 
  5  7  1  0  0  0  0 
  7  8  2  0  0  0  0 
  8  9  1  0  0  0  0 
  8 10  1  0  0  0  0 
 10 11  1  0  0  0  0 
 10 12  2  0  0  0  0 
 12 13  1  0  0  0  0 
 13 14  1  0  0  0  0 
 13 15  2  0  0  0  0 
  7 15  1  0  0  0  0 
 15 16  1  0  0  0  0 
 12 17  1  0  0  0  0 
 17 18  2  0  0  0  0 
 17 19  1  0  0  0  0 
  5 20  1  6  0  0  0 
 20 21  1  0  0  0  0 
  4 22  1  0  0  0  0 
 22 23  1  0  0  0  0 
 22 24  1  0  0  0  0 
 24 25  2  0  0  0  0 
 24 26  1  0  0  0  0 
 26 27  1  0  0  0  0 
 26 28  1  0  0  0  0 
 26 29  1  0  0  0  0 
M  CHG  1  17   1
M  CHG  1  19  -1
M  END
> <Rank>
18

> <Priority_score>
0.047840808591282376

> <Reaction_type>
dehydration_next_to_SP2_b

> <Parent_ID>
77

> <Parent_InChI>
InChI=1S/C11H12Cl2N2O5/c12-10(13)11(18)14-8(5-16)9(17)6-1-3-7(4-2-6)15(19)20/h1-4,8-10,16-17H,5H2,(H,14,18)

> <Parent_SMILES>
O=C(N[C@H](CO)[C@H](O)c1ccc([N+](=O)[O-])cc1)C(Cl)Cl

$$$$
Molecule 77_metabolite 19
  CDK     0516241031

 31 31  0  0  0  0  0  0  0  0999 V2000
   -5.6118   -0.2013    0.0000 C   0  0  0  0  0  0  0  0  0  0  0  0
   -5.6118   -1.7013    0.0000 H   0  0  0  0  0  0  0  0  0  0  0  0
   -4.3118    0.5487    0.0000 C   0  0  0  0  0  0  0  0  0  0  0  0
   -4.3118    2.0487    0.0000 C   0  0  0  0  0  0  0  0  0  0  0  0
   -3.0129    2.7990    0.0000 H   0  0  0  0  0  0  0  0  0  0  0  0
   -5.6118    2.7987    0.0000 C   0  0  0  0  0  0  0  0  0  0  0  0
   -5.6118    4.2987    0.0000 H   0  0  0  0  0  0  0  0  0  0  0  0
   -6.9118    2.0487    0.0000 C   0  0  0  0  0  0  0  0  0  0  0  0
   -6.9118    0.5487    0.0000 C   0  0  0  0  0  0  0  0  0  0  0  0
   -8.2107   -0.2015    0.0000 H   0  0  0  0  0  0  0  0  0  0  0  0
   -8.2107    2.7990    0.0000 N   0  0  0  0  0  0  0  0  0  0  0  0
   -9.5099    2.0492    0.0000 O   0  0  0  0  0  0  0  0  0  0  0  0
   -8.2105    4.2990    0.0000 O   0  0  0  0  0  0  0  0  0  0  0  0
   -2.5972   -0.4415    0.0000 C   0  0  2  0  0  0  0  0  0  0  0  0
   -3.5616   -1.5904    0.0000 H   0  0  0  0  0  0  0  0  0  0  0  0
   -1.2981    0.3083    0.0000 C   0  0  1  0  0  0  0  0  0  0  0  0
   -0.3337    1.4572    0.0000 H   0  0  0  0  0  0  0  0  0  0  0  0
   -2.2621    1.4575    0.0000 C   0  0  0  0  0  0  0  0  0  0  0  0
   -3.7393    1.1972    0.0000 O   0  0  0  0  0  0  0  0  0  0  0  0
   -1.7488    2.8669    0.0000 O   0  0  0  0  0  0  0  0  0  0  0  0
   -0.2716    3.1272    0.0000 H   0  0  0  0  0  0  0  0  0  0  0  0
    0.0008   -0.4419    0.0000 N   0  0  0  0  0  0  0  0  0  0  0  0
    0.0006   -1.9419    0.0000 H   0  0  0  0  0  0  0  0  0  0  0  0
    1.3000    0.3078    0.0000 C   0  0  0  0  0  0  0  0  0  0  0  0
    1.3002    1.8078    0.0000 O   0  0  0  0  0  0  0  0  0  0  0  0
    2.5989   -0.4424    0.0000 C   0  0  0  0  0  0  0  0  0  0  0  0
    3.8981    0.3074    0.0000 H   0  0  0  0  0  0  0  0  0  0  0  0
    1.6346   -1.5913    0.0000 Cl  0  0  0  0  0  0  0  0  0  0  0  0
    3.5629   -1.5916    0.0000 Cl  0  0  0  0  0  0  0  0  0  0  0  0
   -1.6332   -1.5908    0.0000 O   0  0  0  0  0  0  0  0  0  0  0  0
   -2.1465   -3.0002    0.0000 H   0  0  0  0  0  0  0  0  0  0  0  0
  1  2  1  0  0  0  0 
  1  3  2  0  0  0  0 
  3  4  1  0  0  0  0 
  4  5  1  0  0  0  0 
  4  6  2  0  0  0  0 
  6  7  1  0  0  0  0 
  6  8  1  0  0  0  0 
  8  9  2  0  0  0  0 
  1  9  1  0  0  0  0 
  9 10  1  0  0  0  0 
  8 11  1  0  0  0  0 
 11 12  2  0  0  0  0 
 11 13  1  0  0  0  0 
  3 14  1  0  0  0  0 
 14 15  1  1  0  0  0 
 14 16  1  0  0  0  0 
 16 17  1  6  0  0  0 
 16 18  1  0  0  0  0 
 18 19  2  0  0  0  0 
 18 20  1  0  0  0  0 
 20 21  1  0  0  0  0 
 16 22  1  1  0  0  0 
 22 23  1  0  0  0  0 
 22 24  1  0  0  0  0 
 24 25  2  0  0  0  0 
 24 26  1  0  0  0  0 
 26 27  1  0  0  0  0 
 26 28  1  0  0  0  0 
 26 29  1  0  0  0  0 
 14 30  1  6  0  0  0 
 30 31  1  0  0  0  0 
M  CHG  1  11   1
M  CHG  1  13  -1
M  END
> <Rank>
18

> <Priority_score>
0.047840808591282376

> <Reaction_type>
primary_alcohol_oxidation_(aliphatic)

> <Parent_ID>
77

> <Parent_InChI>
InChI=1S/C11H12Cl2N2O5/c12-10(13)11(18)14-8(5-16)9(17)6-1-3-7(4-2-6)15(19)20/h1-4,8-10,16-17H,5H2,(H,14,18)

> <Parent_SMILES>
O=C(N[C@H](CO)[C@H](O)c1ccc([N+](=O)[O-])cc1)C(Cl)Cl

$$$$
Molecule 77_metabolite 20
  CDK     0516241031

 30 30  0  0  0  0  0  0  0  0999 V2000
   -5.6118   -0.2013    0.0000 C   0  0  0  0  0  0  0  0  0  0  0  0
   -5.6118   -1.7013    0.0000 H   0  0  0  0  0  0  0  0  0  0  0  0
   -4.3118    0.5487    0.0000 C   0  0  0  0  0  0  0  0  0  0  0  0
   -4.3118    2.0487    0.0000 C   0  0  0  0  0  0  0  0  0  0  0  0
   -3.0129    2.7990    0.0000 H   0  0  0  0  0  0  0  0  0  0  0  0
   -5.6118    2.7987    0.0000 C   0  0  0  0  0  0  0  0  0  0  0  0
   -5.6118    4.2987    0.0000 H   0  0  0  0  0  0  0  0  0  0  0  0
   -6.9118    2.0487    0.0000 C   0  0  0  0  0  0  0  0  0  0  0  0
   -6.9118    0.5487    0.0000 C   0  0  0  0  0  0  0  0  0  0  0  0
   -8.2107   -0.2015    0.0000 H   0  0  0  0  0  0  0  0  0  0  0  0
   -8.2107    2.7990    0.0000 N   0  0  0  0  0  0  0  0  0  0  0  0
   -9.5099    2.0492    0.0000 O   0  0  0  0  0  0  0  0  0  0  0  0
   -8.2105    4.2990    0.0000 O   0  0  0  0  0  0  0  0  0  0  0  0
   -2.5972   -0.4415    0.0000 C   0  0  2  0  0  0  0  0  0  0  0  0
   -3.5616   -1.5904    0.0000 H   0  0  0  0  0  0  0  0  0  0  0  0
   -1.2981    0.3083    0.0000 C   0  0  1  0  0  0  0  0  0  0  0  0
   -0.3337    1.4572    0.0000 H   0  0  0  0  0  0  0  0  0  0  0  0
   -2.2621    1.4575    0.0000 C   0  0  0  0  0  0  0  0  0  0  0  0
   -1.7488    2.8669    0.0000 H   0  0  0  0  0  0  0  0  0  0  0  0
   -3.7393    1.1972    0.0000 O   0  0  0  0  0  0  0  0  0  0  0  0
    0.0008   -0.4419    0.0000 N   0  0  0  0  0  0  0  0  0  0  0  0
    0.0006   -1.9419    0.0000 H   0  0  0  0  0  0  0  0  0  0  0  0
    1.3000    0.3078    0.0000 C   0  0  0  0  0  0  0  0  0  0  0  0
    1.3002    1.8078    0.0000 O   0  0  0  0  0  0  0  0  0  0  0  0
    2.5989   -0.4424    0.0000 C   0  0  0  0  0  0  0  0  0  0  0  0
    3.8981    0.3074    0.0000 H   0  0  0  0  0  0  0  0  0  0  0  0
    1.6346   -1.5913    0.0000 Cl  0  0  0  0  0  0  0  0  0  0  0  0
    3.5629   -1.5916    0.0000 Cl  0  0  0  0  0  0  0  0  0  0  0  0
   -1.6332   -1.5908    0.0000 O   0  0  0  0  0  0  0  0  0  0  0  0
   -2.1465   -3.0002    0.0000 H   0  0  0  0  0  0  0  0  0  0  0  0
  1  2  1  0  0  0  0 
  1  3  2  0  0  0  0 
  3  4  1  0  0  0  0 
  4  5  1  0  0  0  0 
  4  6  2  0  0  0  0 
  6  7  1  0  0  0  0 
  6  8  1  0  0  0  0 
  8  9  2  0  0  0  0 
  1  9  1  0  0  0  0 
  9 10  1  0  0  0  0 
  8 11  1  0  0  0  0 
 11 12  2  0  0  0  0 
 11 13  1  0  0  0  0 
  3 14  1  0  0  0  0 
 14 15  1  1  0  0  0 
 14 16  1  0  0  0  0 
 16 17  1  6  0  0  0 
 16 18  1  0  0  0  0 
 18 19  1  0  0  0  0 
 18 20  2  0  0  0  0 
 16 21  1  1  0  0  0 
 21 22  1  0  0  0  0 
 21 23  1  0  0  0  0 
 23 24  2  0  0  0  0 
 23 25  1  0  0  0  0 
 25 26  1  0  0  0  0 
 25 27  1  0  0  0  0 
 25 28  1  0  0  0  0 
 14 29  1  6  0  0  0 
 29 30  1  0  0  0  0 
M  CHG  1  11   1
M  CHG  1  13  -1
M  END
> <Rank>
18

> <Priority_score>
0.047840808591282376

> <Reaction_type>
alcohol oxidation

> <Parent_ID>
77

> <Parent_InChI>
InChI=1S/C11H12Cl2N2O5/c12-10(13)11(18)14-8(5-16)9(17)6-1-3-7(4-2-6)15(19)20/h1-4,8-10,16-17H,5H2,(H,14,18)

> <Parent_SMILES>
O=C(N[C@H](CO)[C@H](O)c1ccc([N+](=O)[O-])cc1)C(Cl)Cl

$$$$
Molecule 77_metabolite 21
  CDK     0516241031

 33 33  0  0  0  0  0  0  0  0999 V2000
   -8.1629    0.7702    0.0000 C   0  0  0  0  0  0  0  0  0  0  0  0
   -8.1629   -0.7298    0.0000 H   0  0  0  0  0  0  0  0  0  0  0  0
   -6.8629    1.5202    0.0000 C   0  0  0  0  0  0  0  0  0  0  0  0
   -6.8629    3.0202    0.0000 C   0  0  0  0  0  0  0  0  0  0  0  0
   -5.1484    4.0105    0.0000 H   0  0  0  0  0  0  0  0  0  0  0  0
   -8.1629    3.7702    0.0000 C   0  0  0  0  0  0  0  0  0  0  0  0
   -8.1629    5.2702    0.0000 H   0  0  0  0  0  0  0  0  0  0  0  0
   -9.4629    3.0202    0.0000 C   0  0  0  0  0  0  0  0  0  0  0  0
   -9.4629    1.5202    0.0000 C   0  0  0  0  0  0  0  0  0  0  0  0
  -10.7618    0.7700    0.0000 H   0  0  0  0  0  0  0  0  0  0  0  0
  -10.7618    3.7704    0.0000 N   0  0  0  0  0  0  0  0  0  0  0  0
  -12.0610    3.0206    0.0000 O   0  0  0  0  0  0  0  0  0  0  0  0
  -10.7616    5.2704    0.0000 O   0  0  0  0  0  0  0  0  0  0  0  0
   -4.7327    0.2899    0.0000 C   0  0  2  0  0  0  0  0  0  0  0  0
   -5.6971   -0.8591    0.0000 H   0  0  0  0  0  0  0  0  0  0  0  0
   -2.6021    1.5195    0.0000 C   0  0  1  0  0  0  0  0  0  0  0  0
   -1.6377    2.6684    0.0000 H   0  0  0  0  0  0  0  0  0  0  0  0
   -3.5661    2.6687    0.0000 C   0  0  0  0  0  0  0  0  0  0  0  0
   -4.5712    5.4316    0.0000 H   0  0  0  0  0  0  0  0  0  0  0  0
   -5.0433    2.4085    0.0000 O   0  0  0  0  0  0  0  0  0  0  0  0
   -5.5566    0.9990    0.0000 H   0  0  0  0  0  0  0  0  0  0  0  0
   -2.4169    3.6327    0.0000 O   0  0  0  0  0  0  0  0  0  0  0  0
   -2.7604    5.5827    0.0000 H   0  0  0  0  0  0  0  0  0  0  0  0
   -1.3032    0.7693    0.0000 N   0  0  0  0  0  0  0  0  0  0  0  0
   -1.3034   -0.7307    0.0000 H   0  0  0  0  0  0  0  0  0  0  0  0
   -0.0040    1.5191    0.0000 C   0  0  0  0  0  0  0  0  0  0  0  0
   -0.0038    3.0191    0.0000 O   0  0  0  0  0  0  0  0  0  0  0  0
    1.2949    0.7689    0.0000 C   0  0  0  0  0  0  0  0  0  0  0  0
    2.5941    1.5187    0.0000 H   0  0  0  0  0  0  0  0  0  0  0  0
    0.3306   -0.3800    0.0000 Cl  0  0  0  0  0  0  0  0  0  0  0  0
    2.2589   -0.3803    0.0000 Cl  0  0  0  0  0  0  0  0  0  0  0  0
   -3.7687   -0.8594    0.0000 O   0  0  0  0  0  0  0  0  0  0  0  0
   -4.2820   -2.2688    0.0000 H   0  0  0  0  0  0  0  0  0  0  0  0
  1  2  1  0  0  0  0 
  1  3  2  0  0  0  0 
  3  4  1  0  0  0  0 
  4  5  1  0  0  0  0 
  4  6  2  0  0  0  0 
  6  7  1  0  0  0  0 
  6  8  1  0  0  0  0 
  8  9  2  0  0  0  0 
  1  9  1  0  0  0  0 
  9 10  1  0  0  0  0 
  8 11  1  0  0  0  0 
 11 12  2  0  0  0  0 
 11 13  1  0  0  0  0 
  3 14  1  0  0  0  0 
 14 15  1  1  0  0  0 
 14 16  1  0  0  0  0 
 16 17  1  6  0  0  0 
 16 18  1  0  0  0  0 
 18 19  1  0  0  0  0 
 18 20  1  0  0  0  0 
 20 21  1  0  0  0  0 
 18 22  1  0  0  0  0 
 22 23  1  0  0  0  0 
 16 24  1  1  0  0  0 
 24 25  1  0  0  0  0 
 24 26  1  0  0  0  0 
 26 27  2  0  0  0  0 
 26 28  1  0  0  0  0 
 28 29  1  0  0  0  0 
 28 30  1  0  0  0  0 
 28 31  1  0  0  0  0 
 14 32  1  6  0  0  0 
 32 33  1  0  0  0  0 
M  CHG  1  11   1
M  CHG  1  13  -1
M  END
> <Rank>
18

> <Priority_score>
0.047840808591282376

> <Reaction_type>
aliphatic hydroxylation

> <Parent_ID>
77

> <Parent_InChI>
InChI=1S/C11H12Cl2N2O5/c12-10(13)11(18)14-8(5-16)9(17)6-1-3-7(4-2-6)15(19)20/h1-4,8-10,16-17H,5H2,(H,14,18)

> <Parent_SMILES>
O=C(N[C@H](CO)[C@H](O)c1ccc([N+](=O)[O-])cc1)C(Cl)Cl

$$$$
Molecule 77_metabolite 22
  CDK     0516241031

  9  8  0  0  0  0  0  0  0  0999 V2000
    1.2990   -0.7500    0.0000 C   0  0  0  0  0  0  0  0  0  0  0  0
    0.0000    0.0000    0.0000 H   0  0  0  0  0  0  0  0  0  0  0  0
    2.5981   -0.0000    0.0000 C   0  0  0  0  0  0  0  0  0  0  0  0
    2.5981    1.5000    0.0000 O   0  0  0  0  0  0  0  0  0  0  0  0
    3.8971   -0.7500    0.0000 N   0  0  0  0  0  0  0  0  0  0  0  0
    5.1962   -0.0000    0.0000 H   0  0  0  0  0  0  0  0  0  0  0  0
    3.8971   -2.2500    0.0000 H   0  0  0  0  0  0  0  0  0  0  0  0
    0.3349   -1.8991    0.0000 Cl  0  0  0  0  0  0  0  0  0  0  0  0
    2.2632   -1.8991    0.0000 Cl  0  0  0  0  0  0  0  0  0  0  0  0
  1  2  1  0  0  0  0 
  1  3  1  0  0  0  0 
  3  4  2  0  0  0  0 
  3  5  1  0  0  0  0 
  5  6  1  0  0  0  0 
  5  7  1  0  0  0  0 
  1  8  1  0  0  0  0 
  1  9  1  0  0  0  0 
M  END
> <Rank>
22

> <Priority_score>
0.044

> <Reaction_type>
N-dealkylation

> <Parent_ID>
77

> <Parent_InChI>
InChI=1S/C11H12Cl2N2O5/c12-10(13)11(18)14-8(5-16)9(17)6-1-3-7(4-2-6)15(19)20/h1-4,8-10,16-17H,5H2,(H,14,18)

> <Parent_SMILES>
O=C(N[C@H](CO)[C@H](O)c1ccc([N+](=O)[O-])cc1)C(Cl)Cl

$$$$
Molecule 77_metabolite 23
  CDK     0516241031

 24 24  0  0  0  0  0  0  0  0999 V2000
    0.0000    1.5000    0.0000 C   0  0  0  0  0  0  0  0  0  0  0  0
    0.0000    3.0000    0.0000 H   0  0  0  0  0  0  0  0  0  0  0  0
   -1.3000    0.7500    0.0000 C   0  0  0  0  0  0  0  0  0  0  0  0
   -1.3000   -0.7500    0.0000 C   0  0  0  0  0  0  0  0  0  0  0  0
   -2.5989   -1.5002    0.0000 H   0  0  0  0  0  0  0  0  0  0  0  0
    0.0000   -1.5000    0.0000 C   0  0  0  0  0  0  0  0  0  0  0  0
   -0.0000   -3.0000    0.0000 H   0  0  0  0  0  0  0  0  0  0  0  0
    1.3000   -0.7500    0.0000 C   0  0  0  0  0  0  0  0  0  0  0  0
    1.3000    0.7500    0.0000 C   0  0  0  0  0  0  0  0  0  0  0  0
    2.5989    1.5002    0.0000 H   0  0  0  0  0  0  0  0  0  0  0  0
    2.5989   -1.5002    0.0000 N   0  0  0  0  0  0  0  0  0  0  0  0
    3.8981   -0.7504    0.0000 O   0  0  0  0  0  0  0  0  0  0  0  0
    2.5987   -3.0002    0.0000 O   0  0  0  0  0  0  0  0  0  0  0  0
   -2.5989    1.5002    0.0000 C   0  0  2  0  0  0  0  0  0  0  0  0
   -1.6346    2.6491    0.0000 H   0  0  0  0  0  0  0  0  0  0  0  0
   -3.8981    0.7504    0.0000 C   0  0  0  0  0  0  0  0  0  0  0  0
   -3.8983   -0.7496    0.0000 O   0  0  0  0  0  0  0  0  0  0  0  0
   -5.1970    1.5006    0.0000 C   0  0  0  0  0  0  0  0  0  0  0  0
   -5.7103    0.0912    0.0000 H   0  0  0  0  0  0  0  0  0  0  0  0
   -6.6742    1.7613    0.0000 H   0  0  0  0  0  0  0  0  0  0  0  0
   -5.1968    3.0006    0.0000 O   0  0  0  0  0  0  0  0  0  0  0  0
   -6.4957    3.7508    0.0000 H   0  0  0  0  0  0  0  0  0  0  0  0
   -3.5629    2.6494    0.0000 O   0  0  0  0  0  0  0  0  0  0  0  0
   -3.0497    4.0589    0.0000 H   0  0  0  0  0  0  0  0  0  0  0  0
  1  2  1  0  0  0  0 
  1  3  2  0  0  0  0 
  3  4  1  0  0  0  0 
  4  5  1  0  0  0  0 
  4  6  2  0  0  0  0 
  6  7  1  0  0  0  0 
  6  8  1  0  0  0  0 
  8  9  2  0  0  0  0 
  1  9  1  0  0  0  0 
  9 10  1  0  0  0  0 
  8 11  1  0  0  0  0 
 11 12  2  0  0  0  0 
 11 13  1  0  0  0  0 
  3 14  1  0  0  0  0 
 14 15  1  1  0  0  0 
 14 16  1  0  0  0  0 
 16 17  2  0  0  0  0 
 16 18  1  0  0  0  0 
 18 19  1  0  0  0  0 
 18 20  1  0  0  0  0 
 18 21  1  0  0  0  0 
 21 22  1  0  0  0  0 
 14 23  1  6  0  0  0 
 23 24  1  0  0  0  0 
M  CHG  1  11   1
M  CHG  1  13  -1
M  END
> <Rank>
22

> <Priority_score>
0.044

> <Reaction_type>
N-dealkylation

> <Parent_ID>
77

> <Parent_InChI>
InChI=1S/C11H12Cl2N2O5/c12-10(13)11(18)14-8(5-16)9(17)6-1-3-7(4-2-6)15(19)20/h1-4,8-10,16-17H,5H2,(H,14,18)

> <Parent_SMILES>
O=C(N[C@H](CO)[C@H](O)c1ccc([N+](=O)[O-])cc1)C(Cl)Cl

$$$$
Molecule 77_metabolite 24
  CDK     0516241031

 30 30  0  0  0  0  0  0  0  0999 V2000
    0.0000    1.5000    0.0000 C   0  0  0  0  0  0  0  0  0  0  0  0
    0.0000    3.0000    0.0000 H   0  0  0  0  0  0  0  0  0  0  0  0
   -1.3000    0.7500    0.0000 C   0  0  0  0  0  0  0  0  0  0  0  0
   -1.3000   -0.7500    0.0000 C   0  0  0  0  0  0  0  0  0  0  0  0
   -2.5989   -1.5002    0.0000 H   0  0  0  0  0  0  0  0  0  0  0  0
    0.0000   -1.5000    0.0000 C   0  0  0  0  0  0  0  0  0  0  0  0
   -0.0000   -3.0000    0.0000 H   0  0  0  0  0  0  0  0  0  0  0  0
    1.3000   -0.7500    0.0000 C   0  0  0  0  0  0  0  0  0  0  0  0
    1.3000    0.7500    0.0000 C   0  0  0  0  0  0  0  0  0  0  0  0
    2.5989    1.5002    0.0000 H   0  0  0  0  0  0  0  0  0  0  0  0
    2.5989   -1.5002    0.0000 N   0  0  0  0  0  0  0  0  0  0  0  0
    3.8981   -0.7504    0.0000 O   0  0  0  0  0  0  0  0  0  0  0  0
    2.5987   -3.0002    0.0000 O   0  0  0  0  0  0  0  0  0  0  0  0
   -2.5989    1.5002    0.0000 C   0  0  0  0  0  0  0  0  0  0  0  0
   -3.8981    0.7504    0.0000 C   0  0  0  0  0  0  0  0  0  0  0  0
   -3.8983   -0.7496    0.0000 C   0  0  0  0  0  0  0  0  0  0  0  0
   -3.3855   -2.1592    0.0000 H   0  0  0  0  0  0  0  0  0  0  0  0
   -2.4211   -0.4893    0.0000 H   0  0  0  0  0  0  0  0  0  0  0  0
   -5.1975   -1.4994    0.0000 O   0  0  0  0  0  0  0  0  0  0  0  0
   -6.4964   -0.7492    0.0000 H   0  0  0  0  0  0  0  0  0  0  0  0
   -5.1970    1.5006    0.0000 N   0  0  0  0  0  0  0  0  0  0  0  0
   -6.4962    0.7508    0.0000 H   0  0  0  0  0  0  0  0  0  0  0  0
   -5.1968    3.0006    0.0000 C   0  0  0  0  0  0  0  0  0  0  0  0
   -3.8976    3.7504    0.0000 O   0  0  0  0  0  0  0  0  0  0  0  0
   -6.4957    3.7508    0.0000 C   0  0  0  0  0  0  0  0  0  0  0  0
   -6.4954    5.2508    0.0000 H   0  0  0  0  0  0  0  0  0  0  0  0
   -7.0089    2.3414    0.0000 Cl  0  0  0  0  0  0  0  0  0  0  0  0
   -7.9728    4.0115    0.0000 Cl  0  0  0  0  0  0  0  0  0  0  0  0
   -2.5987    3.0002    0.0000 O   0  0  0  0  0  0  0  0  0  0  0  0
   -1.2995    3.7500    0.0000 H   0  0  0  0  0  0  0  0  0  0  0  0
  1  2  1  0  0  0  0 
  1  3  2  0  0  0  0 
  3  4  1  0  0  0  0 
  4  5  1  0  0  0  0 
  4  6  2  0  0  0  0 
  6  7  1  0  0  0  0 
  6  8  1  0  0  0  0 
  8  9  2  0  0  0  0 
  1  9  1  0  0  0  0 
  9 10  1  0  0  0  0 
  8 11  1  0  0  0  0 
 11 12  2  0  0  0  0 
 11 13  1  0  0  0  0 
  3 14  1  0  0  0  0 
 14 15  2  0  0  0  0 
 15 16  1  0  0  0  0 
 16 17  1  0  0  0  0 
 16 18  1  0  0  0  0 
 16 19  1  0  0  0  0 
 19 20  1  0  0  0  0 
 15 21  1  4  0  0  0 
 21 22  1  0  0  0  0 
 21 23  1  0  0  0  0 
 23 24  2  0  0  0  0 
 23 25  1  0  0  0  0 
 25 26  1  0  0  0  0 
 25 27  1  0  0  0  0 
 25 28  1  0  0  0  0 
 14 29  1  0  0  0  0 
 29 30  1  0  0  0  0 
M  CHG  1  11   1
M  CHG  1  13  -1
M  END
> <Rank>
24

> <Priority_score>
0.013600000000000001

> <Reaction_type>
alkyl dehydrogenation

> <Parent_ID>
77

> <Parent_InChI>
InChI=1S/C11H12Cl2N2O5/c12-10(13)11(18)14-8(5-16)9(17)6-1-3-7(4-2-6)15(19)20/h1-4,8-10,16-17H,5H2,(H,14,18)

> <Parent_SMILES>
O=C(N[C@H](CO)[C@H](O)c1ccc([N+](=O)[O-])cc1)C(Cl)Cl

$$$$
Molecule 77_metabolite 25
  CDK     0516241031

 33 33  0  0  0  0  0  0  0  0999 V2000
   -2.3527   -1.9829    0.0000 C   0  0  0  0  0  0  0  0  0  0  0  0
   -2.3529   -0.4829    0.0000 H   0  0  0  0  0  0  0  0  0  0  0  0
   -3.6522   -2.7338    0.0000 C   0  0  0  0  0  0  0  0  0  0  0  0
   -3.6527   -4.2346    0.0000 C   0  0  0  0  0  0  0  0  0  0  0  0
   -4.9518   -4.9844    0.0000 H   0  0  0  0  0  0  0  0  0  0  0  0
   -2.3536   -4.9846    0.0000 C   0  0  0  0  0  0  0  0  0  0  0  0
   -1.0541   -4.2338    0.0000 C   0  0  0  0  0  0  0  0  0  0  0  0
   -1.0536   -2.7329    0.0000 C   0  0  0  0  0  0  0  0  0  0  0  0
    0.2455   -1.9831    0.0000 H   0  0  0  0  0  0  0  0  0  0  0  0
    0.6606   -5.2238    0.0000 C   0  0  2  0  0  0  0  0  0  0  0  0
   -0.3036   -6.3728    0.0000 H   0  0  0  0  0  0  0  0  0  0  0  0
    2.7910   -3.9938    0.0000 C   0  0  1  0  0  0  0  0  0  0  0  0
    3.7552   -2.8447    0.0000 H   0  0  0  0  0  0  0  0  0  0  0  0
    1.8269   -2.8447    0.0000 C   0  0  0  0  0  0  0  0  0  0  0  0
    0.3569   -0.2986    0.0000 H   0  0  0  0  0  0  0  0  0  0  0  0
    0.8627   -3.9938    0.0000 H   0  0  0  0  0  0  0  0  0  0  0  0
    2.3399   -1.4352    0.0000 O   0  0  0  0  0  0  0  0  0  0  0  0
    3.8171   -1.1747    0.0000 H   0  0  0  0  0  0  0  0  0  0  0  0
    4.0901   -4.7438    0.0000 N   0  0  0  0  0  0  0  0  0  0  0  0
    4.0901   -6.2438    0.0000 H   0  0  0  0  0  0  0  0  0  0  0  0
    5.3891   -3.9938    0.0000 C   0  0  0  0  0  0  0  0  0  0  0  0
    5.3891   -2.4938    0.0000 O   0  0  0  0  0  0  0  0  0  0  0  0
    6.6882   -4.7438    0.0000 C   0  0  0  0  0  0  0  0  0  0  0  0
    7.9872   -3.9938    0.0000 H   0  0  0  0  0  0  0  0  0  0  0  0
    5.7240   -5.8928    0.0000 Cl  0  0  0  0  0  0  0  0  0  0  0  0
    7.6523   -5.8928    0.0000 Cl  0  0  0  0  0  0  0  0  0  0  0  0
    1.6248   -6.3728    0.0000 O   0  0  0  0  0  0  0  0  0  0  0  0
    1.1118   -7.7824    0.0000 H   0  0  0  0  0  0  0  0  0  0  0  0
   -2.3534   -6.4846    0.0000 O   0  0  0  0  0  0  0  0  0  0  0  0
   -3.6523   -7.2348    0.0000 H   0  0  0  0  0  0  0  0  0  0  0  0
   -4.9512   -1.9838    0.0000 N   0  0  0  0  0  0  0  0  0  0  0  0
   -4.9512   -0.4838    0.0000 O   0  0  0  0  0  0  0  0  0  0  0  0
   -6.2503   -2.7338    0.0000 O   0  0  0  0  0  0  0  0  0  0  0  0
  1  2  1  0  0  0  0 
  1  3  2  0  0  0  0 
  3  4  1  0  0  0  0 
  4  5  1  0  0  0  0 
  4  6  2  0  0  0  0 
  6  7  1  0  0  0  0 
  7  8  2  0  0  0  0 
  1  8  1  0  0  0  0 
  8  9  1  0  0  0  0 
  7 10  1  0  0  0  0 
 10 11  1  1  0  0  0 
 10 12  1  0  0  0  0 
 12 13  1  6  0  0  0 
 12 14  1  0  0  0  0 
 14 15  1  0  0  0  0 
 14 16  1  0  0  0  0 
 14 17  1  0  0  0  0 
 17 18  1  0  0  0  0 
 12 19  1  1  0  0  0 
 19 20  1  0  0  0  0 
 19 21  1  0  0  0  0 
 21 22  2  0  0  0  0 
 21 23  1  0  0  0  0 
 23 24  1  0  0  0  0 
 23 25  1  0  0  0  0 
 23 26  1  0  0  0  0 
 10 27  1  6  0  0  0 
 27 28  1  0  0  0  0 
  6 29  1  0  0  0  0 
 29 30  1  0  0  0  0 
  3 31  1  0  0  0  0 
 31 32  2  0  0  0  0 
 31 33  1  0  0  0  0 
M  CHG  1  31   1
M  CHG  1  33  -1
M  END
> <Rank>
25

> <Priority_score>
0.012

> <Reaction_type>
aromatic hydroxylation

> <Parent_ID>
77

> <Parent_InChI>
InChI=1S/C11H12Cl2N2O5/c12-10(13)11(18)14-8(5-16)9(17)6-1-3-7(4-2-6)15(19)20/h1-4,8-10,16-17H,5H2,(H,14,18)

> <Parent_SMILES>
O=C(N[C@H](CO)[C@H](O)c1ccc([N+](=O)[O-])cc1)C(Cl)Cl

$$$$
Molecule 77_metabolite 26
  CDK     0516241031

 30 30  0  0  0  0  0  0  0  0999 V2000
    0.8315    1.9799    0.0000 C   0  0  0  0  0  0  0  0  0  0  0  0
    0.8315    3.4799    0.0000 H   0  0  0  0  0  0  0  0  0  0  0  0
   -0.4685    1.2299    0.0000 C   0  0  0  0  0  0  0  0  0  0  0  0
   -0.4685   -0.2701    0.0000 C   0  0  0  0  0  0  0  0  0  0  0  0
   -1.7675   -1.0203    0.0000 H   0  0  0  0  0  0  0  0  0  0  0  0
    0.8315   -1.0201    0.0000 C   0  0  0  0  0  0  0  0  0  0  0  0
    0.8315   -2.5201    0.0000 H   0  0  0  0  0  0  0  0  0  0  0  0
    2.1315   -0.2701    0.0000 C   0  0  0  0  0  0  0  0  0  0  0  0
    2.1315    1.2299    0.0000 C   0  0  0  0  0  0  0  0  0  0  0  0
    3.4304    1.9801    0.0000 H   0  0  0  0  0  0  0  0  0  0  0  0
    3.4304   -1.0203    0.0000 N   0  0  0  0  0  0  0  0  0  0  0  0
    4.7295   -0.2705    0.0000 O   0  0  0  0  0  0  0  0  0  0  0  0
    3.4301   -2.5203    0.0000 O   0  0  0  0  0  0  0  0  0  0  0  0
   -1.7675    1.9801    0.0000 C   0  0  2  0  0  0  0  0  0  0  0  0
   -0.8031    3.1290    0.0000 H   0  0  0  0  0  0  0  0  0  0  0  0
   -3.8981    0.7504    0.0000 C   0  0  0  0  0  0  0  0  0  0  0  0
   -3.8983   -0.7496    0.0000 C   0  0  0  0  0  0  0  0  0  0  0  0
   -2.5994   -1.4998    0.0000 H   0  0  0  0  0  0  0  0  0  0  0  0
   -5.1975   -1.4994    0.0000 O   0  0  0  0  0  0  0  0  0  0  0  0
   -6.4964   -0.7492    0.0000 H   0  0  0  0  0  0  0  0  0  0  0  0
   -5.1970    1.5006    0.0000 N   0  0  0  0  0  0  0  0  0  0  0  0
   -6.4962    0.7508    0.0000 H   0  0  0  0  0  0  0  0  0  0  0  0
   -5.1968    3.0006    0.0000 C   0  0  0  0  0  0  0  0  0  0  0  0
   -3.8976    3.7504    0.0000 O   0  0  0  0  0  0  0  0  0  0  0  0
   -6.4957    3.7508    0.0000 C   0  0  0  0  0  0  0  0  0  0  0  0
   -6.4954    5.2508    0.0000 H   0  0  0  0  0  0  0  0  0  0  0  0
   -7.0089    2.3414    0.0000 Cl  0  0  0  0  0  0  0  0  0  0  0  0
   -7.9728    4.0115    0.0000 Cl  0  0  0  0  0  0  0  0  0  0  0  0
   -2.7315    3.1293    0.0000 O   0  0  0  0  0  0  0  0  0  0  0  0
   -2.2182    4.5388    0.0000 H   0  0  0  0  0  0  0  0  0  0  0  0
  1  2  1  0  0  0  0 
  1  3  2  0  0  0  0 
  3  4  1  0  0  0  0 
  4  5  1  0  0  0  0 
  4  6  2  0  0  0  0 
  6  7  1  0  0  0  0 
  6  8  1  0  0  0  0 
  8  9  2  0  0  0  0 
  1  9  1  0  0  0  0 
  9 10  1  0  0  0  0 
  8 11  1  0  0  0  0 
 11 12  2  0  0  0  0 
 11 13  1  0  0  0  0 
  3 14  1  0  0  0  0 
 14 15  1  1  0  0  0 
 14 16  1  0  0  0  0 
 16 17  2  0  0  0  0 
 17 18  1  4  0  0  0 
 17 19  1  0  0  0  0 
 19 20  1  0  0  0  0 
 16 21  1  0  0  0  0 
 21 22  1  0  0  0  0 
 21 23  1  0  0  0  0 
 23 24  2  0  0  0  0 
 23 25  1  0  0  0  0 
 25 26  1  0  0  0  0 
 25 27  1  0  0  0  0 
 25 28  1  0  0  0  0 
 14 29  1  6  0  0  0 
 29 30  1  0  0  0  0 
M  CHG  1  11   1
M  CHG  1  13  -1
M  END
> <Rank>
26

> <Priority_score>
0.009568161718256476

> <Reaction_type>
alkyl dehydrogenation

> <Parent_ID>
77

> <Parent_InChI>
InChI=1S/C11H12Cl2N2O5/c12-10(13)11(18)14-8(5-16)9(17)6-1-3-7(4-2-6)15(19)20/h1-4,8-10,16-17H,5H2,(H,14,18)

> <Parent_SMILES>
O=C(N[C@H](CO)[C@H](O)c1ccc([N+](=O)[O-])cc1)C(Cl)Cl

$$$$
Molecule 77_metabolite 27
  CDK     0516241031

 31 31  0  0  0  0  0  0  0  0999 V2000
   -5.1962   -0.4413    0.0000 C   0  0  0  0  0  0  0  0  0  0  0  0
   -5.1962   -1.9413    0.0000 H   0  0  0  0  0  0  0  0  0  0  0  0
   -3.8962    0.3087    0.0000 C   0  0  0  0  0  0  0  0  0  0  0  0
   -3.8962    1.8087    0.0000 C   0  0  0  0  0  0  0  0  0  0  0  0
   -2.5972    2.5589    0.0000 H   0  0  0  0  0  0  0  0  0  0  0  0
   -5.1962    2.5587    0.0000 C   0  0  0  0  0  0  0  0  0  0  0  0
   -5.1962    4.0587    0.0000 H   0  0  0  0  0  0  0  0  0  0  0  0
   -6.4962    1.8087    0.0000 C   0  0  0  0  0  0  0  0  0  0  0  0
   -6.4962    0.3087    0.0000 C   0  0  0  0  0  0  0  0  0  0  0  0
   -7.7951   -0.4415    0.0000 H   0  0  0  0  0  0  0  0  0  0  0  0
   -7.7951    2.5589    0.0000 N   0  0  0  0  0  0  0  0  0  0  0  0
   -9.0942    1.8091    0.0000 O   0  0  0  0  0  0  0  0  0  0  0  0
   -7.7948    4.0589    0.0000 O   0  0  0  0  0  0  0  0  0  0  0  0
   -2.5972   -0.4415    0.0000 C   0  0  2  0  0  0  0  0  0  0  0  0
   -3.5616   -1.5904    0.0000 H   0  0  0  0  0  0  0  0  0  0  0  0
   -1.2981    0.3083    0.0000 C   0  0  0  0  0  0  0  0  0  0  0  0
    0.0008   -0.4419    0.0000 N   0  0  0  0  0  0  0  0  0  0  0  0
    0.0006   -1.9419    0.0000 H   0  0  0  0  0  0  0  0  0  0  0  0
    1.3000    0.3078    0.0000 C   0  0  0  0  0  0  0  0  0  0  0  0
    1.3002    1.8078    0.0000 O   0  0  0  0  0  0  0  0  0  0  0  0
    2.5989   -0.4424    0.0000 C   0  0  0  0  0  0  0  0  0  0  0  0
    3.8981    0.3074    0.0000 H   0  0  0  0  0  0  0  0  0  0  0  0
    1.6346   -1.5913    0.0000 Cl  0  0  0  0  0  0  0  0  0  0  0  0
    3.5629   -1.5916    0.0000 Cl  0  0  0  0  0  0  0  0  0  0  0  0
   -1.2978    1.8083    0.0000 C   0  0  0  0  0  0  0  0  0  0  0  0
   -1.8106    3.2179    0.0000 H   0  0  0  0  0  0  0  0  0  0  0  0
   -2.7751    1.5480    0.0000 H   0  0  0  0  0  0  0  0  0  0  0  0
    0.0013    2.5581    0.0000 O   0  0  0  0  0  0  0  0  0  0  0  0
    0.0016    4.0581    0.0000 H   0  0  0  0  0  0  0  0  0  0  0  0
   -1.6332   -1.5908    0.0000 O   0  0  0  0  0  0  0  0  0  0  0  0
   -2.1465   -3.0002    0.0000 H   0  0  0  0  0  0  0  0  0  0  0  0
  1  2  1  0  0  0  0 
  1  3  2  0  0  0  0 
  3  4  1  0  0  0  0 
  4  5  1  0  0  0  0 
  4  6  2  0  0  0  0 
  6  7  1  0  0  0  0 
  6  8  1  0  0  0  0 
  8  9  2  0  0  0  0 
  1  9  1  0  0  0  0 
  9 10  1  0  0  0  0 
  8 11  1  0  0  0  0 
 11 12  2  0  0  0  0 
 11 13  1  0  0  0  0 
  3 14  1  0  0  0  0 
 14 15  1  1  0  0  0 
 14 16  1  0  0  0  0 
 16 17  2  0  0  0  0 
 17 18  1  4  0  0  0 
 17 19  1  0  0  0  0 
 19 20  2  0  0  0  0 
 19 21  1  0  0  0  0 
 21 22  1  0  0  0  0 
 21 23  1  0  0  0  0 
 21 24  1  0  0  0  0 
 16 25  1  0  0  0  0 
 25 26  1  0  0  0  0 
 25 27  1  0  0  0  0 
 25 28  1  0  0  0  0 
 28 29  1  0  0  0  0 
 14 30  1  6  0  0  0 
 30 31  1  0  0  0  0 
M  CHG  1  11   1
M  CHG  1  13  -1
M  CHG  1  17   1
M  END
> <Rank>
27

> <Priority_score>
0.0088

> <Reaction_type>
dehydration of N-C bond

> <Parent_ID>
77

> <Parent_InChI>
InChI=1S/C11H12Cl2N2O5/c12-10(13)11(18)14-8(5-16)9(17)6-1-3-7(4-2-6)15(19)20/h1-4,8-10,16-17H,5H2,(H,14,18)

> <Parent_SMILES>
O=C(N[C@H](CO)[C@H](O)c1ccc([N+](=O)[O-])cc1)C(Cl)Cl

$$$$
Molecule 77_metabolite 28
  CDK     0516241031

 30 30  0  0  0  0  0  0  0  0999 V2000
    0.0000    1.5000    0.0000 C   0  0  0  0  0  0  0  0  0  0  0  0
    0.0000    3.0000    0.0000 H   0  0  0  0  0  0  0  0  0  0  0  0
   -1.3000    0.7500    0.0000 C   0  0  0  0  0  0  0  0  0  0  0  0
   -1.3000   -0.7500    0.0000 C   0  0  0  0  0  0  0  0  0  0  0  0
   -2.5989   -1.5002    0.0000 H   0  0  0  0  0  0  0  0  0  0  0  0
    0.0000   -1.5000    0.0000 C   0  0  0  0  0  0  0  0  0  0  0  0
   -0.0000   -3.0000    0.0000 H   0  0  0  0  0  0  0  0  0  0  0  0
    1.3000   -0.7500    0.0000 C   0  0  0  0  0  0  0  0  0  0  0  0
    1.3000    0.7500    0.0000 C   0  0  0  0  0  0  0  0  0  0  0  0
    2.5989    1.5002    0.0000 H   0  0  0  0  0  0  0  0  0  0  0  0
    2.5989   -1.5002    0.0000 N   0  0  0  0  0  0  0  0  0  0  0  0
    3.8981   -0.7504    0.0000 O   0  0  0  0  0  0  0  0  0  0  0  0
    2.5987   -3.0002    0.0000 O   0  0  0  0  0  0  0  0  0  0  0  0
   -2.5989    1.5002    0.0000 C   0  0  2  0  0  0  0  0  0  0  0  0
   -1.6346    2.6491    0.0000 H   0  0  0  0  0  0  0  0  0  0  0  0
   -3.8981    0.7504    0.0000 C   0  0  0  0  0  0  0  0  0  0  0  0
   -5.1970    1.5006    0.0000 N   0  0  0  0  0  0  0  0  0  0  0  0
   -6.4962    0.7508    0.0000 C   0  0  0  0  0  0  0  0  0  0  0  0
   -6.4964   -0.7492    0.0000 O   0  0  0  0  0  0  0  0  0  0  0  0
   -7.7951    1.5010    0.0000 C   0  0  0  0  0  0  0  0  0  0  0  0
   -9.0942    0.7512    0.0000 H   0  0  0  0  0  0  0  0  0  0  0  0
   -6.8307    2.6500    0.0000 Cl  0  0  0  0  0  0  0  0  0  0  0  0
   -8.7591    2.6503    0.0000 Cl  0  0  0  0  0  0  0  0  0  0  0  0
   -3.8983   -0.7496    0.0000 C   0  0  0  0  0  0  0  0  0  0  0  0
   -3.3855   -2.1592    0.0000 H   0  0  0  0  0  0  0  0  0  0  0  0
   -2.4211   -0.4893    0.0000 H   0  0  0  0  0  0  0  0  0  0  0  0
   -5.1975   -1.4994    0.0000 O   0  0  0  0  0  0  0  0  0  0  0  0
   -5.1977   -2.9994    0.0000 H   0  0  0  0  0  0  0  0  0  0  0  0
   -3.5629    2.6494    0.0000 O   0  0  0  0  0  0  0  0  0  0  0  0
   -5.0402    2.3892    0.0000 H   0  0  0  0  0  0  0  0  0  0  0  0
  1  2  1  0  0  0  0 
  1  3  2  0  0  0  0 
  3  4  1  0  0  0  0 
  4  5  1  0  0  0  0 
  4  6  2  0  0  0  0 
  6  7  1  0  0  0  0 
  6  8  1  0  0  0  0 
  8  9  2  0  0  0  0 
  1  9  1  0  0  0  0 
  9 10  1  0  0  0  0 
  8 11  1  0  0  0  0 
 11 12  2  0  0  0  0 
 11 13  1  0  0  0  0 
  3 14  1  0  0  0  0 
 14 15  1  1  0  0  0 
 14 16  1  0  0  0  0 
 16 17  2  0  0  0  0 
 17 18  1  4  0  0  0 
 18 19  2  0  0  0  0 
 18 20  1  0  0  0  0 
 20 21  1  0  0  0  0 
 20 22  1  0  0  0  0 
 20 23  1  0  0  0  0 
 16 24  1  0  0  0  0 
 24 25  1  0  0  0  0 
 24 26  1  0  0  0  0 
 24 27  1  0  0  0  0 
 27 28  1  0  0  0  0 
 14 29  1  6  0  0  0 
 29 30  1  0  0  0  0 
M  CHG  1  11   1
M  CHG  1  13  -1
M  END
> <Rank>
27

> <Priority_score>
0.0088

> <Reaction_type>
dehydration of N-C bond

> <Parent_ID>
77

> <Parent_InChI>
InChI=1S/C11H12Cl2N2O5/c12-10(13)11(18)14-8(5-16)9(17)6-1-3-7(4-2-6)15(19)20/h1-4,8-10,16-17H,5H2,(H,14,18)

> <Parent_SMILES>
O=C(N[C@H](CO)[C@H](O)c1ccc([N+](=O)[O-])cc1)C(Cl)Cl

$$$$
Molecule 78
  CDK     0516241031

 27 27  0  0  0  0  0  0  0  0999 V2000
  -12.9897    0.7515    0.0000 C   0  0  0  0  0  0  0  0  0  0  0  0
  -11.6899    1.5019    0.0000 C   0  0  0  0  0  0  0  0  0  0  0  0
  -10.3911    0.7515    0.0000 C   0  0  0  0  0  0  0  0  0  0  0  0
  -10.3921   -0.7494    0.0000 C   0  0  0  0  0  0  0  0  0  0  0  0
  -11.6918   -1.4998    0.0000 C   0  0  0  0  0  0  0  0  0  0  0  0
  -12.9906   -0.7494    0.0000 C   0  0  0  0  0  0  0  0  0  0  0  0
  -11.6921   -2.9998    0.0000 N   0  0  0  0  0  0  0  0  0  0  0  0
  -12.9912   -3.7496    0.0000 O   0  0  0  0  0  0  0  0  0  0  0  0
  -10.3931   -3.7500    0.0000 O   0  0  0  0  0  0  0  0  0  0  0  0
  -11.6897    3.0019    0.0000 C   0  0  2  0  0  0  0  0  0  0  0  0
  -10.3905    3.7517    0.0000 C   0  0  1  0  0  0  0  0  0  0  0  0
   -9.0916    3.0015    0.0000 C   0  0  0  0  0  0  0  0  0  0  0  0
   -7.7924    3.7512    0.0000 O   0  0  0  0  0  0  0  0  0  0  0  0
   -6.4935    3.0010    0.0000 C   0  0  0  0  0  0  0  0  0  0  0  0
   -6.4937    1.5010    0.0000 O   0  0  0  0  0  0  0  0  0  0  0  0
   -5.1943    3.7508    0.0000 C   0  0  0  0  0  0  0  0  0  0  0  0
   -3.8954    3.0006    0.0000 C   0  0  0  0  0  0  0  0  0  0  0  0
   -2.5963    3.7504    0.0000 C   0  0  0  0  0  0  0  0  0  0  0  0
   -2.5960    5.2504    0.0000 O   0  0  0  0  0  0  0  0  0  0  0  0
   -1.2974    3.0002    0.0000 O   0  0  0  0  0  0  0  0  0  0  0  0
  -10.3903    5.2517    0.0000 N   0  0  0  0  0  0  0  0  0  0  0  0
  -11.6892    6.0019    0.0000 C   0  0  0  0  0  0  0  0  0  0  0  0
  -12.9883    5.2521    0.0000 O   0  0  0  0  0  0  0  0  0  0  0  0
  -11.6889    7.5019    0.0000 C   0  0  0  0  0  0  0  0  0  0  0  0
  -12.9879    8.2521    0.0000 Cl  0  0  0  0  0  0  0  0  0  0  0  0
  -10.3898    8.2517    0.0000 Cl  0  0  0  0  0  0  0  0  0  0  0  0
  -12.9886    3.7521    0.0000 O   0  0  0  0  0  0  0  0  0  0  0  0
  1  2  2  0  0  0  0 
  2  3  1  0  0  0  0 
  3  4  2  0  0  0  0 
  4  5  1  0  0  0  0 
  5  6  2  0  0  0  0 
  1  6  1  0  0  0  0 
  5  7  1  0  0  0  0 
  7  8  2  0  0  0  0 
  7  9  1  0  0  0  0 
  2 10  1  0  0  0  0 
 10 11  1  0  0  0  0 
 11 12  1  0  0  0  0 
 12 13  1  0  0  0  0 
 13 14  1  0  0  0  0 
 14 15  2  0  0  0  0 
 14 16  1  0  0  0  0 
 16 17  1  0  0  0  0 
 17 18  1  0  0  0  0 
 18 19  2  0  0  0  0 
 18 20  1  0  0  0  0 
 11 21  1  6  0  0  0 
 21 22  1  0  0  0  0 
 22 23  2  0  0  0  0 
 22 24  1  0  0  0  0 
 24 25  1  0  0  0  0 
 24 26  1  0  0  0  0 
 10 27  1  1  0  0  0 
M  CHG  1   7   1
M  CHG  1   9  -1
M  END
> <SMILES>
O=C(O)CCC(=O)OC[C@@H](NC(=O)C(Cl)Cl)[C@H](O)c1ccc([N+](=O)[O-])cc1

$$$$
Molecule 78_metabolite 1
  CDK     0516241031

 63 64  0  0  0  0  0  0  0  0999 V2000
   11.1200    8.7315    0.0000 C   0  0  0  0  0  0  0  0  0  0  0  0
   12.5966    8.9952    0.0000 H   0  0  0  0  0  0  0  0  0  0  0  0
   10.6101    7.3200    0.0000 C   0  0  0  0  0  0  0  0  0  0  0  0
    9.1335    7.0563    0.0000 C   0  0  0  0  0  0  0  0  0  0  0  0
    8.6233    5.6458    0.0000 H   0  0  0  0  0  0  0  0  0  0  0  0
    8.1667    8.2043    0.0000 C   0  0  0  0  0  0  0  0  0  0  0  0
    6.6900    7.9406    0.0000 H   0  0  0  0  0  0  0  0  0  0  0  0
    8.6765    9.6159    0.0000 C   0  0  0  0  0  0  0  0  0  0  0  0
   10.1532    9.8795    0.0000 C   0  0  0  0  0  0  0  0  0  0  0  0
   10.6634   11.2900    0.0000 H   0  0  0  0  0  0  0  0  0  0  0  0
    7.7097   10.7627    0.0000 N   0  0  0  0  0  0  0  0  0  0  0  0
    8.2195   12.1734    0.0000 O   0  0  0  0  0  0  0  0  0  0  0  0
    6.2331   10.4988    0.0000 O   0  0  0  0  0  0  0  0  0  0  0  0
   11.5770    6.1731    0.0000 C   0  0  2  0  0  0  0  0  0  0  0  0
   12.5385    7.3244    0.0000 H   0  0  0  0  0  0  0  0  0  0  0  0
   10.9041    4.3110    0.0000 C   0  0  1  0  0  0  0  0  0  0  0  0
    9.6033    5.0580    0.0000 H   0  0  0  0  0  0  0  0  0  0  0  0
    9.9425    3.1597    0.0000 C   0  0  0  0  0  0  0  0  0  0  0  0
    9.4327    1.7490    0.0000 H   0  0  0  0  0  0  0  0  0  0  0  0
   11.2433    2.4127    0.0000 H   0  0  0  0  0  0  0  0  0  0  0  0
    8.4647    3.4168    0.0000 O   0  0  0  0  0  0  0  0  0  0  0  0
    7.5032    2.2655    0.0000 C   0  0  0  0  0  0  0  0  0  0  0  0
    8.0195    0.8571    0.0000 O   0  0  0  0  0  0  0  0  0  0  0  0
    6.0254    2.5226    0.0000 C   0  0  0  0  0  0  0  0  0  0  0  0
    6.5352    3.9333    0.0000 H   0  0  0  0  0  0  0  0  0  0  0  0
    4.7246    3.2696    0.0000 H   0  0  0  0  0  0  0  0  0  0  0  0
    5.0638    1.3713    0.0000 C   0  0  0  0  0  0  0  0  0  0  0  0
    4.5541   -0.0394    0.0000 H   0  0  0  0  0  0  0  0  0  0  0  0
    6.3646    0.6243    0.0000 H   0  0  0  0  0  0  0  0  0  0  0  0
    3.5860    1.6283    0.0000 C   0  0  0  0  0  0  0  0  0  0  0  0
    3.0698    3.0367    0.0000 O   0  0  0  0  0  0  0  0  0  0  0  0
    2.6245    0.4771    0.0000 O   0  0  0  0  0  0  0  0  0  0  0  0
    1.1467    0.7341    0.0000 C   0  0  0  0  0  0  0  0  0  0  0  0
    1.6532    2.1460    0.0000 H   0  0  0  0  0  0  0  0  0  0  0  0
    1.1467   -0.7559    0.0000 C   0  0  0  0  0  0  0  0  0  0  0  0
    1.6586   -2.1658    0.0000 H   0  0  0  0  0  0  0  0  0  0  0  0
   -0.1733   -1.5159    0.0000 C   0  0  0  0  0  0  0  0  0  0  0  0
   -1.1421   -2.6610    0.0000 H   0  0  0  0  0  0  0  0  0  0  0  0
   -1.4733   -0.7559    0.0000 C   0  0  0  0  0  0  0  0  0  0  0  0
   -2.9501   -0.4927    0.0000 H   0  0  0  0  0  0  0  0  0  0  0  0
   -1.4733    0.7341    0.0000 C   0  0  0  0  0  0  0  0  0  0  0  0
   -1.9860    2.1438    0.0000 H   0  0  0  0  0  0  0  0  0  0  0  0
   -3.4233    0.3905    0.0000 C   0  0  0  0  0  0  0  0  0  0  0  0
   -4.3873    1.5397    0.0000 O   0  0  0  0  0  0  0  0  0  0  0  0
   -3.9364   -1.0190    0.0000 O   0  0  0  0  0  0  0  0  0  0  0  0
   -5.4137   -1.2793    0.0000 H   0  0  0  0  0  0  0  0  0  0  0  0
   -0.1733    1.4841    0.0000 O   0  0  0  0  0  0  0  0  0  0  0  0
   -1.9914   -2.1635    0.0000 O   0  0  0  0  0  0  0  0  0  0  0  0
   -3.4696   -2.4187    0.0000 H   0  0  0  0  0  0  0  0  0  0  0  0
    0.7879   -2.6674    0.0000 O   0  0  0  0  0  0  0  0  0  0  0  0
    0.2712   -4.0756    0.0000 H   0  0  0  0  0  0  0  0  0  0  0  0
    2.6240   -0.4960    0.0000 O   0  0  0  0  0  0  0  0  0  0  0  0
    3.5877   -1.6454    0.0000 H   0  0  0  0  0  0  0  0  0  0  0  0
   12.8548    3.9716    0.0000 N   0  0  0  0  0  0  0  0  0  0  0  0
   13.8163    5.1229    0.0000 H   0  0  0  0  0  0  0  0  0  0  0  0
   13.3710    2.5633    0.0000 C   0  0  0  0  0  0  0  0  0  0  0  0
   12.4095    1.4120    0.0000 O   0  0  0  0  0  0  0  0  0  0  0  0
   14.8488    2.3062    0.0000 C   0  0  0  0  0  0  0  0  0  0  0  0
   15.3651    0.8979    0.0000 H   0  0  0  0  0  0  0  0  0  0  0  0
   14.8454    3.8062    0.0000 Cl  0  0  0  0  0  0  0  0  0  0  0  0
   16.3254    2.5701    0.0000 Cl  0  0  0  0  0  0  0  0  0  0  0  0
   12.8777    5.4261    0.0000 O   0  0  0  0  0  0  0  0  0  0  0  0
   14.1750    6.1791    0.0000 H   0  0  0  0  0  0  0  0  0  0  0  0
  1  2  1  0  0  0  0 
  1  3  2  0  0  0  0 
  3  4  1  0  0  0  0 
  4  5  1  0  0  0  0 
  4  6  2  0  0  0  0 
  6  7  1  0  0  0  0 
  6  8  1  0  0  0  0 
  8  9  2  0  0  0  0 
  1  9  1  0  0  0  0 
  9 10  1  0  0  0  0 
  8 11  1  0  0  0  0 
 11 12  2  0  0  0  0 
 11 13  1  0  0  0  0 
  3 14  1  0  0  0  0 
 14 15  1  6  0  0  0 
 14 16  1  0  0  0  0 
 16 17  1  1  0  0  0 
 16 18  1  6  0  0  0 
 18 19  1  0  0  0  0 
 18 20  1  0  0  0  0 
 18 21  1  0  0  0  0 
 21 22  1  0  0  0  0 
 22 23  2  0  0  0  0 
 22 24  1  0  0  0  0 
 24 25  1  0  0  0  0 
 24 26  1  0  0  0  0 
 24 27  1  0  0  0  0 
 27 28  1  0  0  0  0 
 27 29  1  0  0  0  0 
 27 30  1  0  0  0  0 
 30 31  2  0  0  0  0 
 30 32  1  0  0  0  0 
 32 33  1  0  0  0  0 
 33 34  1  0  0  0  0 
 33 35  1  0  0  0  0 
 35 36  1  0  0  0  0 
 35 37  1  0  0  0  0 
 37 38  1  0  0  0  0 
 37 39  1  0  0  0  0 
 39 40  1  0  0  0  0 
 39 41  1  0  0  0  0 
 41 42  1  0  0  0  0 
 41 43  1  0  0  0  0 
 43 44  2  0  0  0  0 
 43 45  1  0  0  0  0 
 45 46  1  0  0  0  0 
 41 47  1  0  0  0  0 
 33 47  1  0  0  0  0 
 39 48  1  0  0  0  0 
 48 49  1  0  0  0  0 
 37 50  1  0  0  0  0 
 50 51  1  0  0  0  0 
 35 52  1  0  0  0  0 
 52 53  1  0  0  0  0 
 16 54  1  0  0  0  0 
 54 55  1  0  0  0  0 
 54 56  1  0  0  0  0 
 56 57  2  0  0  0  0 
 56 58  1  0  0  0  0 
 58 59  1  0  0  0  0 
 58 60  1  0  0  0  0 
 58 61  1  0  0  0  0 
 14 62  1  1  0  0  0 
 62 63  1  0  0  0  0 
M  CHG  1  11   1
M  CHG  1  13  -1
M  END
> <Rank>
1

> <Priority_score>
0.8264378618568946

> <Reaction_type>
O-glucuronidation_(aliphatic_carboxyl)

> <Parent_ID>
78

> <Parent_InChI>
InChI=1S/C15H16Cl2N2O8/c16-14(17)15(24)18-10(7-27-12(22)6-5-11(20)21)13(23)8-1-3-9(4-2-8)19(25)26/h1-4,10,13-14,23H,5-7H2,(H,18,24)(H,20,21)

> <Parent_SMILES>
O=C(O)CCC(=O)OC[C@@H](NC(=O)C(Cl)Cl)[C@H](O)c1ccc([N+](=O)[O-])cc1

$$$$
Molecule 78_metabolite 2
  CDK     0516241031

 63 64  0  0  0  0  0  0  0  0999 V2000
    9.5783    3.2849    0.0000 C   0  0  0  0  0  0  0  0  0  0  0  0
   10.7294    2.3232    0.0000 H   0  0  0  0  0  0  0  0  0  0  0  0
    8.1692    2.7681    0.0000 C   0  0  0  0  0  0  0  0  0  0  0  0
    7.0181    3.7299    0.0000 C   0  0  0  0  0  0  0  0  0  0  0  0
    5.6096    3.2140    0.0000 H   0  0  0  0  0  0  0  0  0  0  0  0
    7.2760    5.2084    0.0000 C   0  0  0  0  0  0  0  0  0  0  0  0
    6.1249    6.1701    0.0000 H   0  0  0  0  0  0  0  0  0  0  0  0
    8.6851    5.7251    0.0000 C   0  0  0  0  0  0  0  0  0  0  0  0
    9.8362    4.7634    0.0000 C   0  0  0  0  0  0  0  0  0  0  0  0
   11.2447    5.2792    0.0000 H   0  0  0  0  0  0  0  0  0  0  0  0
    8.9422    7.2030    0.0000 N   0  0  0  0  0  0  0  0  0  0  0  0
   10.3505    7.7192    0.0000 O   0  0  0  0  0  0  0  0  0  0  0  0
    7.7909    8.1645    0.0000 O   0  0  0  0  0  0  0  0  0  0  0  0
    7.9122    1.2903    0.0000 C   0  0  2  0  0  0  0  0  0  0  0  0
    9.3888    1.5542    0.0000 H   0  0  0  0  0  0  0  0  0  0  0  0
    6.4344    1.5474    0.0000 C   0  0  1  0  0  0  0  0  0  0  0  0
    6.9441    2.9581    0.0000 H   0  0  0  0  0  0  0  0  0  0  0  0
    5.4728    0.3961    0.0000 C   0  0  0  0  0  0  0  0  0  0  0  0
    4.9630   -1.0146    0.0000 H   0  0  0  0  0  0  0  0  0  0  0  0
    6.7736   -0.3509    0.0000 H   0  0  0  0  0  0  0  0  0  0  0  0
    3.9950    0.6532    0.0000 O   0  0  0  0  0  0  0  0  0  0  0  0
    3.0335   -0.4981    0.0000 C   0  0  0  0  0  0  0  0  0  0  0  0
    3.5498   -1.9064    0.0000 O   0  0  0  0  0  0  0  0  0  0  0  0
    1.5557   -0.2410    0.0000 C   0  0  0  0  0  0  0  0  0  0  0  0
    2.0655    1.1697    0.0000 H   0  0  0  0  0  0  0  0  0  0  0  0
    0.2549    0.5060    0.0000 H   0  0  0  0  0  0  0  0  0  0  0  0
    0.5941   -1.3923    0.0000 C   0  0  0  0  0  0  0  0  0  0  0  0
    0.0844   -2.8030    0.0000 H   0  0  0  0  0  0  0  0  0  0  0  0
    1.8949   -2.1393    0.0000 H   0  0  0  0  0  0  0  0  0  0  0  0
   -0.8837   -1.1352    0.0000 C   0  0  0  0  0  0  0  0  0  0  0  0
   -1.3999    0.2731    0.0000 O   0  0  0  0  0  0  0  0  0  0  0  0
   -1.8452   -2.2865    0.0000 O   0  0  0  0  0  0  0  0  0  0  0  0
   -3.3230   -2.0294    0.0000 H   0  0  0  0  0  0  0  0  0  0  0  0
    5.1336    2.2944    0.0000 N   0  0  0  0  0  0  0  0  0  0  0  0
    3.8363    1.5414    0.0000 H   0  0  0  0  0  0  0  0  0  0  0  0
    5.1301    3.7944    0.0000 C   0  0  0  0  0  0  0  0  0  0  0  0
    6.4275    4.5474    0.0000 O   0  0  0  0  0  0  0  0  0  0  0  0
    3.8294    4.5414    0.0000 C   0  0  0  0  0  0  0  0  0  0  0  0
    3.8259    6.0414    0.0000 H   0  0  0  0  0  0  0  0  0  0  0  0
    2.3516    4.7985    0.0000 Cl  0  0  0  0  0  0  0  0  0  0  0  0
    3.3196    3.1307    0.0000 Cl  0  0  0  0  0  0  0  0  0  0  0  0
    8.5936   -0.5687    0.0000 O   0  0  0  0  0  0  0  0  0  0  0  0
   10.0715   -0.8258    0.0000 C   0  0  0  0  0  0  0  0  0  0  0  0
   10.0715    0.6742    0.0000 H   0  0  0  0  0  0  0  0  0  0  0  0
    9.5683   -2.2282    0.0000 C   0  0  0  0  0  0  0  0  0  0  0  0
    8.6103   -3.3825    0.0000 H   0  0  0  0  0  0  0  0  0  0  0  0
   10.5541   -3.3894    0.0000 C   0  0  0  0  0  0  0  0  0  0  0  0
   11.0793   -4.7944    0.0000 H   0  0  0  0  0  0  0  0  0  0  0  0
   12.0344   -3.1130    0.0000 C   0  0  0  0  0  0  0  0  0  0  0  0
   13.5132   -3.3640    0.0000 H   0  0  0  0  0  0  0  0  0  0  0  0
   12.5375   -1.7105    0.0000 C   0  0  0  0  0  0  0  0  0  0  0  0
   13.4962   -0.5568    0.0000 H   0  0  0  0  0  0  0  0  0  0  0  0
   14.2569   -2.6924    0.0000 C   0  0  0  0  0  0  0  0  0  0  0  0
   15.5524   -1.9363    0.0000 O   0  0  0  0  0  0  0  0  0  0  0  0
   14.2640   -4.1924    0.0000 O   0  0  0  0  0  0  0  0  0  0  0  0
   15.5665   -4.9363    0.0000 H   0  0  0  0  0  0  0  0  0  0  0  0
   11.5672   -0.5656    0.0000 O   0  0  0  0  0  0  0  0  0  0  0  0
   12.0467   -4.6129    0.0000 O   0  0  0  0  0  0  0  0  0  0  0  0
   13.3519   -5.3522    0.0000 H   0  0  0  0  0  0  0  0  0  0  0  0
    9.2605   -4.1487    0.0000 O   0  0  0  0  0  0  0  0  0  0  0  0
    9.2713   -5.6487    0.0000 H   0  0  0  0  0  0  0  0  0  0  0  0
    8.2655   -1.4848    0.0000 O   0  0  0  0  0  0  0  0  0  0  0  0
    6.9703   -2.2412    0.0000 H   0  0  0  0  0  0  0  0  0  0  0  0
  1  2  1  0  0  0  0 
  1  3  2  0  0  0  0 
  3  4  1  0  0  0  0 
  4  5  1  0  0  0  0 
  4  6  2  0  0  0  0 
  6  7  1  0  0  0  0 
  6  8  1  0  0  0  0 
  8  9  2  0  0  0  0 
  1  9  1  0  0  0  0 
  9 10  1  0  0  0  0 
  8 11  1  0  0  0  0 
 11 12  2  0  0  0  0 
 11 13  1  0  0  0  0 
  3 14  1  0  0  0  0 
 14 15  1  6  0  0  0 
 14 16  1  0  0  0  0 
 16 17  1  6  0  0  0 
 16 18  1  0  0  0  0 
 18 19  1  0  0  0  0 
 18 20  1  0  0  0  0 
 18 21  1  0  0  0  0 
 21 22  1  0  0  0  0 
 22 23  2  0  0  0  0 
 22 24  1  0  0  0  0 
 24 25  1  0  0  0  0 
 24 26  1  0  0  0  0 
 24 27  1  0  0  0  0 
 27 28  1  0  0  0  0 
 27 29  1  0  0  0  0 
 27 30  1  0  0  0  0 
 30 31  2  0  0  0  0 
 30 32  1  0  0  0  0 
 32 33  1  0  0  0  0 
 16 34  1  1  0  0  0 
 34 35  1  0  0  0  0 
 34 36  1  0  0  0  0 
 36 37  2  0  0  0  0 
 36 38  1  0  0  0  0 
 38 39  1  0  0  0  0 
 38 40  1  0  0  0  0 
 38 41  1  0  0  0  0 
 14 42  1  1  0  0  0 
 42 43  1  0  0  0  0 
 43 44  1  0  0  0  0 
 43 45  1  0  0  0  0 
 45 46  1  0  0  0  0 
 45 47  1  0  0  0  0 
 47 48  1  0  0  0  0 
 47 49  1  0  0  0  0 
 49 50  1  0  0  0  0 
 49 51  1  0  0  0  0 
 51 52  1  0  0  0  0 
 51 53  1  0  0  0  0 
 53 54  2  0  0  0  0 
 53 55  1  0  0  0  0 
 55 56  1  0  0  0  0 
 51 57  1  0  0  0  0 
 43 57  1  0  0  0  0 
 49 58  1  0  0  0  0 
 58 59  1  0  0  0  0 
 47 60  1  0  0  0  0 
 60 61  1  0  0  0  0 
 45 62  1  0  0  0  0 
 62 63  1  0  0  0  0 
M  CHG  1  11   1
M  CHG  1  13  -1
M  END
> <Rank>
2

> <Priority_score>
0.5235188987927338

> <Reaction_type>
O-glucuronidation_(aliphatic_hydroxyl)

> <Parent_ID>
78

> <Parent_InChI>
InChI=1S/C15H16Cl2N2O8/c16-14(17)15(24)18-10(7-27-12(22)6-5-11(20)21)13(23)8-1-3-9(4-2-8)19(25)26/h1-4,10,13-14,23H,5-7H2,(H,18,24)(H,20,21)

> <Parent_SMILES>
O=C(O)CCC(=O)OC[C@@H](NC(=O)C(Cl)Cl)[C@H](O)c1ccc([N+](=O)[O-])cc1

$$$$
Molecule 78_metabolite 3
  CDK     0516241031

 44 44  0  0  0  0  0  0  0  0999 V2000
  -14.2372   -0.5853    0.0000 C   0  0  0  0  0  0  0  0  0  0  0  0
  -15.5360    0.1651    0.0000 H   0  0  0  0  0  0  0  0  0  0  0  0
  -12.9375    0.1651    0.0000 C   0  0  0  0  0  0  0  0  0  0  0  0
  -11.6387   -0.5853    0.0000 C   0  0  0  0  0  0  0  0  0  0  0  0
  -10.3393    0.1641    0.0000 H   0  0  0  0  0  0  0  0  0  0  0  0
  -11.6396   -2.0861    0.0000 C   0  0  0  0  0  0  0  0  0  0  0  0
  -10.3408   -2.8365    0.0000 H   0  0  0  0  0  0  0  0  0  0  0  0
  -12.9394   -2.8365    0.0000 C   0  0  0  0  0  0  0  0  0  0  0  0
  -14.2382   -2.0861    0.0000 C   0  0  0  0  0  0  0  0  0  0  0  0
  -15.5376   -2.8355    0.0000 H   0  0  0  0  0  0  0  0  0  0  0  0
  -12.9396   -4.3365    0.0000 N   0  0  0  0  0  0  0  0  0  0  0  0
  -14.2388   -5.0863    0.0000 O   0  0  0  0  0  0  0  0  0  0  0  0
  -11.6407   -5.0867    0.0000 O   0  0  0  0  0  0  0  0  0  0  0  0
  -12.9372    1.6651    0.0000 C   0  0  2  0  0  0  0  0  0  0  0  0
  -14.4145    1.4049    0.0000 H   0  0  0  0  0  0  0  0  0  0  0  0
  -10.3909    3.1347    0.0000 C   0  0  1  0  0  0  0  0  0  0  0  0
   -9.4265    4.2836    0.0000 H   0  0  0  0  0  0  0  0  0  0  0  0
   -9.0919    2.3845    0.0000 C   0  0  0  0  0  0  0  0  0  0  0  0
  -10.0563    1.2356    0.0000 H   0  0  0  0  0  0  0  0  0  0  0  0
   -8.1279    1.2353    0.0000 H   0  0  0  0  0  0  0  0  0  0  0  0
   -7.7928    3.1343    0.0000 O   0  0  0  0  0  0  0  0  0  0  0  0
   -6.4939    2.3841    0.0000 C   0  0  0  0  0  0  0  0  0  0  0  0
   -6.4941    0.8841    0.0000 O   0  0  0  0  0  0  0  0  0  0  0  0
   -5.1947    3.1339    0.0000 C   0  0  0  0  0  0  0  0  0  0  0  0
   -4.2303    4.2828    0.0000 H   0  0  0  0  0  0  0  0  0  0  0  0
   -6.1587    4.2831    0.0000 H   0  0  0  0  0  0  0  0  0  0  0  0
   -3.8958    2.3837    0.0000 C   0  0  0  0  0  0  0  0  0  0  0  0
   -4.8602    1.2348    0.0000 H   0  0  0  0  0  0  0  0  0  0  0  0
   -2.5966    3.1335    0.0000 C   0  0  0  0  0  0  0  0  0  0  0  0
   -2.5964    4.6335    0.0000 O   0  0  0  0  0  0  0  0  0  0  0  0
   -1.2977    2.3833    0.0000 O   0  0  0  0  0  0  0  0  0  0  0  0
    0.0014    3.1331    0.0000 H   0  0  0  0  0  0  0  0  0  0  0  0
   -2.9318    1.2345    0.0000 O   0  0  0  0  0  0  0  0  0  0  0  0
   -1.4545    1.4947    0.0000 H   0  0  0  0  0  0  0  0  0  0  0  0
  -11.3549    4.2839    0.0000 N   0  0  0  0  0  0  0  0  0  0  0  0
  -12.8321    4.0237    0.0000 H   0  0  0  0  0  0  0  0  0  0  0  0
  -10.8416    5.6934    0.0000 C   0  0  0  0  0  0  0  0  0  0  0  0
   -9.3644    5.9536    0.0000 O   0  0  0  0  0  0  0  0  0  0  0  0
  -11.8056    6.8426    0.0000 C   0  0  0  0  0  0  0  0  0  0  0  0
  -11.2923    8.2521    0.0000 H   0  0  0  0  0  0  0  0  0  0  0  0
  -13.1045    7.5928    0.0000 Cl  0  0  0  0  0  0  0  0  0  0  0  0
  -12.7700    5.6937    0.0000 Cl  0  0  0  0  0  0  0  0  0  0  0  0
  -13.4500    3.0748    0.0000 O   0  0  0  0  0  0  0  0  0  0  0  0
  -14.9272    3.3355    0.0000 H   0  0  0  0  0  0  0  0  0  0  0  0
  1  2  1  0  0  0  0 
  1  3  2  0  0  0  0 
  3  4  1  0  0  0  0 
  4  5  1  0  0  0  0 
  4  6  2  0  0  0  0 
  6  7  1  0  0  0  0 
  6  8  1  0  0  0  0 
  8  9  2  0  0  0  0 
  1  9  1  0  0  0  0 
  9 10  1  0  0  0  0 
  8 11  1  0  0  0  0 
 11 12  2  0  0  0  0 
 11 13  1  0  0  0  0 
  3 14  1  0  0  0  0 
 14 15  1  6  0  0  0 
 14 16  1  0  0  0  0 
 16 17  1  1  0  0  0 
 16 18  1  0  0  0  0 
 18 19  1  0  0  0  0 
 18 20  1  0  0  0  0 
 18 21  1  0  0  0  0 
 21 22  1  0  0  0  0 
 22 23  2  0  0  0  0 
 22 24  1  0  0  0  0 
 24 25  1  0  0  0  0 
 24 26  1  0  0  0  0 
 24 27  1  0  0  0  0 
 27 28  1  0  0  0  0 
 27 29  1  0  0  0  0 
 29 30  2  0  0  0  0 
 29 31  1  0  0  0  0 
 31 32  1  0  0  0  0 
 27 33  1  0  0  0  0 
 33 34  1  0  0  0  0 
 16 35  1  6  0  0  0 
 35 36  1  0  0  0  0 
 35 37  1  0  0  0  0 
 37 38  2  0  0  0  0 
 37 39  1  0  0  0  0 
 39 40  1  0  0  0  0 
 39 41  1  0  0  0  0 
 39 42  1  0  0  0  0 
 14 43  1  1  0  0  0 
 43 44  1  0  0  0  0 
M  CHG  1  11   1
M  CHG  1  13  -1
M  END
> <Rank>
3

> <Priority_score>
0.316

> <Reaction_type>
aliphatic_hydroxylation_(sec_carbon_next_to_SP2,not_in_a_ring)

> <Parent_ID>
78

> <Parent_InChI>
InChI=1S/C15H16Cl2N2O8/c16-14(17)15(24)18-10(7-27-12(22)6-5-11(20)21)13(23)8-1-3-9(4-2-8)19(25)26/h1-4,10,13-14,23H,5-7H2,(H,18,24)(H,20,21)

> <Parent_SMILES>
O=C(O)CCC(=O)OC[C@@H](NC(=O)C(Cl)Cl)[C@H](O)c1ccc([N+](=O)[O-])cc1

$$$$
Molecule 78_metabolite 4
  CDK     0516241031

 41 41  0  0  0  0  0  0  0  0999 V2000
  -14.2372   -0.5853    0.0000 C   0  0  0  0  0  0  0  0  0  0  0  0
  -15.5360    0.1651    0.0000 H   0  0  0  0  0  0  0  0  0  0  0  0
  -12.9375    0.1651    0.0000 C   0  0  0  0  0  0  0  0  0  0  0  0
  -11.6387   -0.5853    0.0000 C   0  0  0  0  0  0  0  0  0  0  0  0
  -10.3393    0.1641    0.0000 H   0  0  0  0  0  0  0  0  0  0  0  0
  -11.6396   -2.0861    0.0000 C   0  0  0  0  0  0  0  0  0  0  0  0
  -10.3408   -2.8365    0.0000 H   0  0  0  0  0  0  0  0  0  0  0  0
  -12.9394   -2.8365    0.0000 C   0  0  0  0  0  0  0  0  0  0  0  0
  -14.2382   -2.0861    0.0000 C   0  0  0  0  0  0  0  0  0  0  0  0
  -15.5376   -2.8355    0.0000 H   0  0  0  0  0  0  0  0  0  0  0  0
  -12.9396   -4.3365    0.0000 N   0  0  0  0  0  0  0  0  0  0  0  0
  -14.2388   -5.0863    0.0000 O   0  0  0  0  0  0  0  0  0  0  0  0
  -11.6407   -5.0867    0.0000 O   0  0  0  0  0  0  0  0  0  0  0  0
  -12.9372    1.6651    0.0000 C   0  0  2  0  0  0  0  0  0  0  0  0
  -14.4145    1.4049    0.0000 H   0  0  0  0  0  0  0  0  0  0  0  0
  -10.3909    3.1347    0.0000 C   0  0  1  0  0  0  0  0  0  0  0  0
   -9.4265    4.2836    0.0000 H   0  0  0  0  0  0  0  0  0  0  0  0
   -9.0919    2.3845    0.0000 C   0  0  0  0  0  0  0  0  0  0  0  0
  -10.0563    1.2356    0.0000 H   0  0  0  0  0  0  0  0  0  0  0  0
   -8.1279    1.2353    0.0000 H   0  0  0  0  0  0  0  0  0  0  0  0
   -7.7928    3.1343    0.0000 O   0  0  0  0  0  0  0  0  0  0  0  0
   -6.4939    2.3841    0.0000 C   0  0  0  0  0  0  0  0  0  0  0  0
   -6.4941    0.8841    0.0000 O   0  0  0  0  0  0  0  0  0  0  0  0
   -5.1947    3.1339    0.0000 C   0  0  0  0  0  0  0  0  0  0  0  0
   -5.1945    4.6339    0.0000 H   0  0  0  0  0  0  0  0  0  0  0  0
   -3.8958    2.3837    0.0000 C   0  0  0  0  0  0  0  0  0  0  0  0
   -3.8960    0.8837    0.0000 H   0  0  0  0  0  0  0  0  0  0  0  0
   -2.5966    3.1335    0.0000 C   0  0  0  0  0  0  0  0  0  0  0  0
   -2.5964    4.6335    0.0000 O   0  0  0  0  0  0  0  0  0  0  0  0
   -1.2977    2.3833    0.0000 O   0  0  0  0  0  0  0  0  0  0  0  0
    0.0014    3.1331    0.0000 H   0  0  0  0  0  0  0  0  0  0  0  0
  -11.3549    4.2839    0.0000 N   0  0  0  0  0  0  0  0  0  0  0  0
  -12.8321    4.0237    0.0000 H   0  0  0  0  0  0  0  0  0  0  0  0
  -10.8416    5.6934    0.0000 C   0  0  0  0  0  0  0  0  0  0  0  0
   -9.3644    5.9536    0.0000 O   0  0  0  0  0  0  0  0  0  0  0  0
  -11.8056    6.8426    0.0000 C   0  0  0  0  0  0  0  0  0  0  0  0
  -11.2923    8.2521    0.0000 H   0  0  0  0  0  0  0  0  0  0  0  0
  -13.1045    7.5928    0.0000 Cl  0  0  0  0  0  0  0  0  0  0  0  0
  -12.7700    5.6937    0.0000 Cl  0  0  0  0  0  0  0  0  0  0  0  0
  -13.4500    3.0748    0.0000 O   0  0  0  0  0  0  0  0  0  0  0  0
  -14.9272    3.3355    0.0000 H   0  0  0  0  0  0  0  0  0  0  0  0
  1  2  1  0  0  0  0 
  1  3  2  0  0  0  0 
  3  4  1  0  0  0  0 
  4  5  1  0  0  0  0 
  4  6  2  0  0  0  0 
  6  7  1  0  0  0  0 
  6  8  1  0  0  0  0 
  8  9  2  0  0  0  0 
  1  9  1  0  0  0  0 
  9 10  1  0  0  0  0 
  8 11  1  0  0  0  0 
 11 12  2  0  0  0  0 
 11 13  1  0  0  0  0 
  3 14  1  0  0  0  0 
 14 15  1  6  0  0  0 
 14 16  1  0  0  0  0 
 16 17  1  1  0  0  0 
 16 18  1  0  0  0  0 
 18 19  1  0  0  0  0 
 18 20  1  0  0  0  0 
 18 21  1  0  0  0  0 
 21 22  1  0  0  0  0 
 22 23  2  0  0  0  0 
 22 24  1  0  0  0  0 
 24 25  1  4  0  0  0 
 24 26  2  0  0  0  0 
 26 27  1  0  0  0  0 
 26 28  1  0  0  0  0 
 28 29  2  0  0  0  0 
 28 30  1  0  0  0  0 
 30 31  1  0  0  0  0 
 16 32  1  6  0  0  0 
 32 33  1  0  0  0  0 
 32 34  1  0  0  0  0 
 34 35  2  0  0  0  0 
 34 36  1  0  0  0  0 
 36 37  1  0  0  0  0 
 36 38  1  0  0  0  0 
 36 39  1  0  0  0  0 
 14 40  1  1  0  0  0 
 40 41  1  0  0  0  0 
M  CHG  1  11   1
M  CHG  1  13  -1
M  END
> <Rank>
3

> <Priority_score>
0.316

> <Reaction_type>
dehydrogenation_(alpha,beta_to_SP2_both_sides)

> <Parent_ID>
78

> <Parent_InChI>
InChI=1S/C15H16Cl2N2O8/c16-14(17)15(24)18-10(7-27-12(22)6-5-11(20)21)13(23)8-1-3-9(4-2-8)19(25)26/h1-4,10,13-14,23H,5-7H2,(H,18,24)(H,20,21)

> <Parent_SMILES>
O=C(O)CCC(=O)OC[C@@H](NC(=O)C(Cl)Cl)[C@H](O)c1ccc([N+](=O)[O-])cc1

$$$$
Molecule 78_metabolite 5
  CDK     0516241031

 37 37  0  0  0  0  0  0  0  0999 V2000
  -11.6391   -0.5853    0.0000 C   0  0  0  0  0  0  0  0  0  0  0  0
  -12.9379    0.1651    0.0000 H   0  0  0  0  0  0  0  0  0  0  0  0
  -10.3394    0.1651    0.0000 C   0  0  0  0  0  0  0  0  0  0  0  0
   -9.0406   -0.5853    0.0000 C   0  0  0  0  0  0  0  0  0  0  0  0
   -7.7412    0.1641    0.0000 H   0  0  0  0  0  0  0  0  0  0  0  0
   -9.0415   -2.0861    0.0000 C   0  0  0  0  0  0  0  0  0  0  0  0
   -7.7427   -2.8365    0.0000 H   0  0  0  0  0  0  0  0  0  0  0  0
  -10.3413   -2.8365    0.0000 C   0  0  0  0  0  0  0  0  0  0  0  0
  -11.6401   -2.0861    0.0000 C   0  0  0  0  0  0  0  0  0  0  0  0
  -12.9395   -2.8355    0.0000 H   0  0  0  0  0  0  0  0  0  0  0  0
  -10.3415   -4.3365    0.0000 N   0  0  0  0  0  0  0  0  0  0  0  0
  -11.6407   -5.0863    0.0000 O   0  0  0  0  0  0  0  0  0  0  0  0
   -9.0426   -5.0867    0.0000 O   0  0  0  0  0  0  0  0  0  0  0  0
  -10.3391    1.6651    0.0000 C   0  0  2  0  0  0  0  0  0  0  0  0
  -11.8164    1.4049    0.0000 H   0  0  0  0  0  0  0  0  0  0  0  0
   -7.7928    3.1347    0.0000 C   0  0  1  0  0  0  0  0  0  0  0  0
   -6.8284    4.2836    0.0000 H   0  0  0  0  0  0  0  0  0  0  0  0
   -6.4939    2.3845    0.0000 C   0  0  0  0  0  0  0  0  0  0  0  0
   -7.4582    1.2356    0.0000 H   0  0  0  0  0  0  0  0  0  0  0  0
   -5.5299    1.2353    0.0000 H   0  0  0  0  0  0  0  0  0  0  0  0
   -5.1947    3.1343    0.0000 O   0  0  0  0  0  0  0  0  0  0  0  0
   -3.8958    2.3841    0.0000 C   0  0  0  0  0  0  0  0  0  0  0  0
   -3.8960    0.8841    0.0000 O   0  0  0  0  0  0  0  0  0  0  0  0
   -2.5966    3.1339    0.0000 C   0  0  0  0  0  0  0  0  0  0  0  0
   -2.5964    4.6339    0.0000 O   0  0  0  0  0  0  0  0  0  0  0  0
   -1.2977    2.3837    0.0000 O   0  0  0  0  0  0  0  0  0  0  0  0
    0.0014    3.1335    0.0000 H   0  0  0  0  0  0  0  0  0  0  0  0
   -8.7568    4.2839    0.0000 N   0  0  0  0  0  0  0  0  0  0  0  0
  -10.2340    4.0237    0.0000 H   0  0  0  0  0  0  0  0  0  0  0  0
   -8.2435    5.6934    0.0000 C   0  0  0  0  0  0  0  0  0  0  0  0
   -6.7663    5.9536    0.0000 O   0  0  0  0  0  0  0  0  0  0  0  0
   -9.2075    6.8426    0.0000 C   0  0  0  0  0  0  0  0  0  0  0  0
   -8.6943    8.2521    0.0000 H   0  0  0  0  0  0  0  0  0  0  0  0
  -10.1719    5.6937    0.0000 Cl  0  0  0  0  0  0  0  0  0  0  0  0
  -10.5064    7.5928    0.0000 Cl  0  0  0  0  0  0  0  0  0  0  0  0
  -10.8519    3.0748    0.0000 O   0  0  0  0  0  0  0  0  0  0  0  0
  -12.3291    3.3355    0.0000 H   0  0  0  0  0  0  0  0  0  0  0  0
  1  2  1  0  0  0  0 
  1  3  2  0  0  0  0 
  3  4  1  0  0  0  0 
  4  5  1  0  0  0  0 
  4  6  2  0  0  0  0 
  6  7  1  0  0  0  0 
  6  8  1  0  0  0  0 
  8  9  2  0  0  0  0 
  1  9  1  0  0  0  0 
  9 10  1  0  0  0  0 
  8 11  1  0  0  0  0 
 11 12  2  0  0  0  0 
 11 13  1  0  0  0  0 
  3 14  1  0  0  0  0 
 14 15  1  6  0  0  0 
 14 16  1  0  0  0  0 
 16 17  1  1  0  0  0 
 16 18  1  0  0  0  0 
 18 19  1  0  0  0  0 
 18 20  1  0  0  0  0 
 18 21  1  0  0  0  0 
 21 22  1  0  0  0  0 
 22 23  2  0  0  0  0 
 22 24  1  0  0  0  0 
 24 25  2  0  0  0  0 
 24 26  1  0  0  0  0 
 26 27  1  0  0  0  0 
 16 28  1  6  0  0  0 
 28 29  1  0  0  0  0 
 28 30  1  0  0  0  0 
 30 31  2  0  0  0  0 
 30 32  1  0  0  0  0 
 32 33  1  0  0  0  0 
 32 34  1  0  0  0  0 
 32 35  1  0  0  0  0 
 14 36  1  1  0  0  0 
 36 37  1  0  0  0  0 
M  CHG  1  11   1
M  CHG  1  13  -1
M  END
> <Rank>
3

> <Priority_score>
0.316

> <Reaction_type>
beta-oxidation

> <Parent_ID>
78

> <Parent_InChI>
InChI=1S/C15H16Cl2N2O8/c16-14(17)15(24)18-10(7-27-12(22)6-5-11(20)21)13(23)8-1-3-9(4-2-8)19(25)26/h1-4,10,13-14,23H,5-7H2,(H,18,24)(H,20,21)

> <Parent_SMILES>
O=C(O)CCC(=O)OC[C@@H](NC(=O)C(Cl)Cl)[C@H](O)c1ccc([N+](=O)[O-])cc1

$$$$
Molecule 78_metabolite 6
  CDK     0516241031

 44 44  0  0  0  0  0  0  0  0999 V2000
  -14.2372   -0.5853    0.0000 C   0  0  0  0  0  0  0  0  0  0  0  0
  -15.5360    0.1651    0.0000 H   0  0  0  0  0  0  0  0  0  0  0  0
  -12.9375    0.1651    0.0000 C   0  0  0  0  0  0  0  0  0  0  0  0
  -11.6387   -0.5853    0.0000 C   0  0  0  0  0  0  0  0  0  0  0  0
  -10.3393    0.1641    0.0000 H   0  0  0  0  0  0  0  0  0  0  0  0
  -11.6396   -2.0861    0.0000 C   0  0  0  0  0  0  0  0  0  0  0  0
  -10.3408   -2.8365    0.0000 H   0  0  0  0  0  0  0  0  0  0  0  0
  -12.9394   -2.8365    0.0000 C   0  0  0  0  0  0  0  0  0  0  0  0
  -14.2382   -2.0861    0.0000 C   0  0  0  0  0  0  0  0  0  0  0  0
  -15.5376   -2.8355    0.0000 H   0  0  0  0  0  0  0  0  0  0  0  0
  -12.9396   -4.3365    0.0000 N   0  0  0  0  0  0  0  0  0  0  0  0
  -14.2388   -5.0863    0.0000 O   0  0  0  0  0  0  0  0  0  0  0  0
  -11.6407   -5.0867    0.0000 O   0  0  0  0  0  0  0  0  0  0  0  0
  -12.9372    1.6651    0.0000 C   0  0  2  0  0  0  0  0  0  0  0  0
  -14.4145    1.4049    0.0000 H   0  0  0  0  0  0  0  0  0  0  0  0
  -10.3909    3.1347    0.0000 C   0  0  1  0  0  0  0  0  0  0  0  0
   -9.4265    4.2836    0.0000 H   0  0  0  0  0  0  0  0  0  0  0  0
   -9.0919    2.3845    0.0000 C   0  0  0  0  0  0  0  0  0  0  0  0
  -10.0563    1.2356    0.0000 H   0  0  0  0  0  0  0  0  0  0  0  0
   -8.1279    1.2353    0.0000 H   0  0  0  0  0  0  0  0  0  0  0  0
   -7.7928    3.1343    0.0000 O   0  0  0  0  0  0  0  0  0  0  0  0
   -6.4939    2.3841    0.0000 C   0  0  0  0  0  0  0  0  0  0  0  0
   -6.4941    0.8841    0.0000 O   0  0  0  0  0  0  0  0  0  0  0  0
   -5.1947    3.1339    0.0000 C   0  0  0  0  0  0  0  0  0  0  0  0
   -4.2303    4.2828    0.0000 H   0  0  0  0  0  0  0  0  0  0  0  0
   -6.1587    4.2831    0.0000 H   0  0  0  0  0  0  0  0  0  0  0  0
   -3.8958    2.3837    0.0000 C   0  0  0  0  0  0  0  0  0  0  0  0
   -4.8602    1.2348    0.0000 H   0  0  0  0  0  0  0  0  0  0  0  0
   -2.9318    1.2345    0.0000 H   0  0  0  0  0  0  0  0  0  0  0  0
   -2.5966    3.1335    0.0000 C   0  0  0  0  0  0  0  0  0  0  0  0
   -2.5964    4.6335    0.0000 O   0  0  0  0  0  0  0  0  0  0  0  0
   -1.2977    2.3833    0.0000 O   0  0  0  0  0  0  0  0  0  0  0  0
    0.0014    3.1331    0.0000 H   0  0  0  0  0  0  0  0  0  0  0  0
  -11.3549    4.2839    0.0000 N   0  0  0  0  0  0  0  0  0  0  0  0
  -10.8416    5.6934    0.0000 C   0  0  0  0  0  0  0  0  0  0  0  0
   -9.3644    5.9536    0.0000 O   0  0  0  0  0  0  0  0  0  0  0  0
  -11.8056    6.8426    0.0000 C   0  0  0  0  0  0  0  0  0  0  0  0
  -11.2923    8.2521    0.0000 H   0  0  0  0  0  0  0  0  0  0  0  0
  -13.1045    7.5928    0.0000 Cl  0  0  0  0  0  0  0  0  0  0  0  0
  -12.7700    5.6937    0.0000 Cl  0  0  0  0  0  0  0  0  0  0  0  0
  -12.8321    4.0237    0.0000 O   0  0  0  0  0  0  0  0  0  0  0  0
  -13.7961    5.1729    0.0000 H   0  0  0  0  0  0  0  0  0  0  0  0
  -13.4500    3.0748    0.0000 O   0  0  0  0  0  0  0  0  0  0  0  0
  -14.9272    3.3355    0.0000 H   0  0  0  0  0  0  0  0  0  0  0  0
  1  2  1  0  0  0  0 
  1  3  2  0  0  0  0 
  3  4  1  0  0  0  0 
  4  5  1  0  0  0  0 
  4  6  2  0  0  0  0 
  6  7  1  0  0  0  0 
  6  8  1  0  0  0  0 
  8  9  2  0  0  0  0 
  1  9  1  0  0  0  0 
  9 10  1  0  0  0  0 
  8 11  1  0  0  0  0 
 11 12  2  0  0  0  0 
 11 13  1  0  0  0  0 
  3 14  1  0  0  0  0 
 14 15  1  6  0  0  0 
 14 16  1  0  0  0  0 
 16 17  1  1  0  0  0 
 16 18  1  0  0  0  0 
 18 19  1  0  0  0  0 
 18 20  1  0  0  0  0 
 18 21  1  0  0  0  0 
 21 22  1  0  0  0  0 
 22 23  2  0  0  0  0 
 22 24  1  0  0  0  0 
 24 25  1  0  0  0  0 
 24 26  1  0  0  0  0 
 24 27  1  0  0  0  0 
 27 28  1  0  0  0  0 
 27 29  1  0  0  0  0 
 27 30  1  0  0  0  0 
 30 31  2  0  0  0  0 
 30 32  1  0  0  0  0 
 32 33  1  0  0  0  0 
 16 34  1  6  0  0  0 
 34 35  1  0  0  0  0 
 35 36  2  0  0  0  0 
 35 37  1  0  0  0  0 
 37 38  1  0  0  0  0 
 37 39  1  0  0  0  0 
 37 40  1  0  0  0  0 
 34 41  1  0  0  0  0 
 41 42  1  0  0  0  0 
 14 43  1  1  0  0  0 
 43 44  1  0  0  0  0 
M  CHG  1  11   1
M  CHG  1  13  -1
M  END
> <Rank>
6

> <Priority_score>
0.228

> <Reaction_type>
amine hydroxylation

> <Parent_ID>
78

> <Parent_InChI>
InChI=1S/C15H16Cl2N2O8/c16-14(17)15(24)18-10(7-27-12(22)6-5-11(20)21)13(23)8-1-3-9(4-2-8)19(25)26/h1-4,10,13-14,23H,5-7H2,(H,18,24)(H,20,21)

> <Parent_SMILES>
O=C(O)CCC(=O)OC[C@@H](NC(=O)C(Cl)Cl)[C@H](O)c1ccc([N+](=O)[O-])cc1

$$$$
Molecule 78_metabolite 7
  CDK     0516241031

  8  7  0  0  0  0  0  0  0  0999 V2000
    3.8971    0.3509    0.0000 C   0  0  0  0  0  0  0  0  0  0  0  0
    5.1962   -0.3991    0.0000 H   0  0  0  0  0  0  0  0  0  0  0  0
    2.5981   -0.3991    0.0000 C   0  0  0  0  0  0  0  0  0  0  0  0
    2.5981   -1.8991    0.0000 O   0  0  0  0  0  0  0  0  0  0  0  0
    1.2990    0.3509    0.0000 O   0  0  0  0  0  0  0  0  0  0  0  0
    0.0000   -0.3991    0.0000 H   0  0  0  0  0  0  0  0  0  0  0  0
    4.8613    1.5000    0.0000 Cl  0  0  0  0  0  0  0  0  0  0  0  0
    2.9329    1.5000    0.0000 Cl  0  0  0  0  0  0  0  0  0  0  0  0
  1  2  1  0  0  0  0 
  1  3  1  0  0  0  0 
  3  4  2  0  0  0  0 
  3  5  1  0  0  0  0 
  5  6  1  0  0  0  0 
  1  7  1  0  0  0  0 
  1  8  1  0  0  0  0 
M  END
> <Rank>
6

> <Priority_score>
0.228

> <Reaction_type>
hydrolysis_(secondary_amide)

> <Parent_ID>
78

> <Parent_InChI>
InChI=1S/C15H16Cl2N2O8/c16-14(17)15(24)18-10(7-27-12(22)6-5-11(20)21)13(23)8-1-3-9(4-2-8)19(25)26/h1-4,10,13-14,23H,5-7H2,(H,18,24)(H,20,21)

> <Parent_SMILES>
O=C(O)CCC(=O)OC[C@@H](NC(=O)C(Cl)Cl)[C@H](O)c1ccc([N+](=O)[O-])cc1

$$$$
Molecule 78_metabolite 8
  CDK     0516241031

 38 38  0  0  0  0  0  0  0  0999 V2000
    0.0000    1.5000    0.0000 C   0  0  0  0  0  0  0  0  0  0  0  0
    0.0000    3.0000    0.0000 H   0  0  0  0  0  0  0  0  0  0  0  0
   -1.3000    0.7500    0.0000 C   0  0  0  0  0  0  0  0  0  0  0  0
   -1.3000   -0.7500    0.0000 C   0  0  0  0  0  0  0  0  0  0  0  0
   -2.5989   -1.5002    0.0000 H   0  0  0  0  0  0  0  0  0  0  0  0
    0.0000   -1.5000    0.0000 C   0  0  0  0  0  0  0  0  0  0  0  0
   -0.0000   -3.0000    0.0000 H   0  0  0  0  0  0  0  0  0  0  0  0
    1.3000   -0.7500    0.0000 C   0  0  0  0  0  0  0  0  0  0  0  0
    1.3000    0.7500    0.0000 C   0  0  0  0  0  0  0  0  0  0  0  0
    2.5989    1.5002    0.0000 H   0  0  0  0  0  0  0  0  0  0  0  0
    2.5989   -1.5002    0.0000 N   0  0  0  0  0  0  0  0  0  0  0  0
    3.8981   -0.7504    0.0000 O   0  0  0  0  0  0  0  0  0  0  0  0
    2.5987   -3.0002    0.0000 O   0  0  0  0  0  0  0  0  0  0  0  0
   -3.0146    1.7403    0.0000 C   0  0  2  0  0  0  0  0  0  0  0  0
   -2.0502    2.8892    0.0000 H   0  0  0  0  0  0  0  0  0  0  0  0
   -4.7295    0.7505    0.0000 C   0  0  1  0  0  0  0  0  0  0  0  0
   -5.6938   -0.3984    0.0000 H   0  0  0  0  0  0  0  0  0  0  0  0
   -6.0284    1.5008    0.0000 C   0  0  0  0  0  0  0  0  0  0  0  0
   -5.0640    2.6497    0.0000 H   0  0  0  0  0  0  0  0  0  0  0  0
   -6.9924    2.6500    0.0000 H   0  0  0  0  0  0  0  0  0  0  0  0
   -7.3275    0.7510    0.0000 O   0  0  0  0  0  0  0  0  0  0  0  0
   -8.6265    1.5012    0.0000 C   0  0  0  0  0  0  0  0  0  0  0  0
   -8.6262    3.0012    0.0000 O   0  0  0  0  0  0  0  0  0  0  0  0
   -9.9256    0.7514    0.0000 C   0  0  0  0  0  0  0  0  0  0  0  0
  -10.8900   -0.3975    0.0000 H   0  0  0  0  0  0  0  0  0  0  0  0
   -8.9616   -0.3978    0.0000 H   0  0  0  0  0  0  0  0  0  0  0  0
  -11.2245    1.5016    0.0000 C   0  0  0  0  0  0  0  0  0  0  0  0
  -10.2602    2.6505    0.0000 H   0  0  0  0  0  0  0  0  0  0  0  0
  -12.1885    2.6508    0.0000 H   0  0  0  0  0  0  0  0  0  0  0  0
  -12.5237    0.7518    0.0000 C   0  0  0  0  0  0  0  0  0  0  0  0
  -12.5239   -0.7482    0.0000 O   0  0  0  0  0  0  0  0  0  0  0  0
  -13.8226    1.5020    0.0000 O   0  0  0  0  0  0  0  0  0  0  0  0
  -15.1218    0.7522    0.0000 H   0  0  0  0  0  0  0  0  0  0  0  0
   -3.7655   -0.3987    0.0000 N   0  0  0  0  0  0  0  0  0  0  0  0
   -4.2787   -1.8081    0.0000 H   0  0  0  0  0  0  0  0  0  0  0  0
   -2.2882   -0.1384    0.0000 H   0  0  0  0  0  0  0  0  0  0  0  0
   -3.9786    2.8895    0.0000 O   0  0  0  0  0  0  0  0  0  0  0  0
   -3.4653    4.2990    0.0000 H   0  0  0  0  0  0  0  0  0  0  0  0
  1  2  1  0  0  0  0 
  1  3  2  0  0  0  0 
  3  4  1  0  0  0  0 
  4  5  1  0  0  0  0 
  4  6  2  0  0  0  0 
  6  7  1  0  0  0  0 
  6  8  1  0  0  0  0 
  8  9  2  0  0  0  0 
  1  9  1  0  0  0  0 
  9 10  1  0  0  0  0 
  8 11  1  0  0  0  0 
 11 12  2  0  0  0  0 
 11 13  1  0  0  0  0 
  3 14  1  0  0  0  0 
 14 15  1  1  0  0  0 
 14 16  1  0  0  0  0 
 16 17  1  1  0  0  0 
 16 18  1  0  0  0  0 
 18 19  1  0  0  0  0 
 18 20  1  0  0  0  0 
 18 21  1  0  0  0  0 
 21 22  1  0  0  0  0 
 22 23  2  0  0  0  0 
 22 24  1  0  0  0  0 
 24 25  1  0  0  0  0 
 24 26  1  0  0  0  0 
 24 27  1  0  0  0  0 
 27 28  1  0  0  0  0 
 27 29  1  0  0  0  0 
 27 30  1  0  0  0  0 
 30 31  2  0  0  0  0 
 30 32  1  0  0  0  0 
 32 33  1  0  0  0  0 
 16 34  1  6  0  0  0 
 34 35  1  0  0  0  0 
 34 36  1  0  0  0  0 
 14 37  1  6  0  0  0 
 37 38  1  0  0  0  0 
M  CHG  1  11   1
M  CHG  1  13  -1
M  END
> <Rank>
6

> <Priority_score>
0.228

> <Reaction_type>
hydrolysis_(secondary_amide)

> <Parent_ID>
78

> <Parent_InChI>
InChI=1S/C15H16Cl2N2O8/c16-14(17)15(24)18-10(7-27-12(22)6-5-11(20)21)13(23)8-1-3-9(4-2-8)19(25)26/h1-4,10,13-14,23H,5-7H2,(H,18,24)(H,20,21)

> <Parent_SMILES>
O=C(O)CCC(=O)OC[C@@H](NC(=O)C(Cl)Cl)[C@H](O)c1ccc([N+](=O)[O-])cc1

$$$$
Molecule 78_metabolite 9
  CDK     0516241031

 47 47  0  0  0  0  0  0  0  0999 V2000
   -1.2989    3.7506    0.0000 C   0  0  0  0  0  0  0  0  0  0  0  0
   -0.0001    3.0002    0.0000 H   0  0  0  0  0  0  0  0  0  0  0  0
   -2.5987    3.0002    0.0000 C   0  0  0  0  0  0  0  0  0  0  0  0
   -3.8975    3.7506    0.0000 C   0  0  0  0  0  0  0  0  0  0  0  0
   -5.1969    3.0012    0.0000 H   0  0  0  0  0  0  0  0  0  0  0  0
   -3.8965    5.2515    0.0000 C   0  0  0  0  0  0  0  0  0  0  0  0
   -5.1953    6.0019    0.0000 H   0  0  0  0  0  0  0  0  0  0  0  0
   -2.5968    6.0019    0.0000 C   0  0  0  0  0  0  0  0  0  0  0  0
   -1.2980    5.2515    0.0000 C   0  0  0  0  0  0  0  0  0  0  0  0
    0.0014    6.0008    0.0000 H   0  0  0  0  0  0  0  0  0  0  0  0
   -2.5965    7.5019    0.0000 N   0  0  0  0  0  0  0  0  0  0  0  0
   -1.2974    8.2517    0.0000 O   0  0  0  0  0  0  0  0  0  0  0  0
   -3.8954    8.2521    0.0000 O   0  0  0  0  0  0  0  0  0  0  0  0
   -2.5989    1.5002    0.0000 C   0  0  2  0  0  0  0  0  0  0  0  0
   -1.1217    1.7604    0.0000 H   0  0  0  0  0  0  0  0  0  0  0  0
   -5.1453    0.0306    0.0000 C   0  0  1  0  0  0  0  0  0  0  0  0
   -6.1096   -1.1183    0.0000 H   0  0  0  0  0  0  0  0  0  0  0  0
   -6.4442    0.7808    0.0000 C   0  0  0  0  0  0  0  0  0  0  0  0
   -5.4798    1.9297    0.0000 H   0  0  0  0  0  0  0  0  0  0  0  0
   -7.4082    1.9300    0.0000 H   0  0  0  0  0  0  0  0  0  0  0  0
   -7.7433    0.0310    0.0000 O   0  0  0  0  0  0  0  0  0  0  0  0
   -9.0423    0.7812    0.0000 C   0  0  0  0  0  0  0  0  0  0  0  0
   -9.0420    2.2812    0.0000 O   0  0  0  0  0  0  0  0  0  0  0  0
  -10.3414    0.0314    0.0000 C   0  0  0  0  0  0  0  0  0  0  0  0
  -11.3058   -1.1175    0.0000 H   0  0  0  0  0  0  0  0  0  0  0  0
   -9.3774   -1.1178    0.0000 H   0  0  0  0  0  0  0  0  0  0  0  0
  -11.6403    0.7817    0.0000 C   0  0  0  0  0  0  0  0  0  0  0  0
  -10.6760    1.9306    0.0000 H   0  0  0  0  0  0  0  0  0  0  0  0
  -12.6043    1.9309    0.0000 H   0  0  0  0  0  0  0  0  0  0  0  0
  -12.9395    0.0319    0.0000 C   0  0  0  0  0  0  0  0  0  0  0  0
  -12.9397   -1.4681    0.0000 O   0  0  0  0  0  0  0  0  0  0  0  0
  -14.2384    0.7821    0.0000 O   0  0  0  0  0  0  0  0  0  0  0  0
  -15.5376    0.0323    0.0000 H   0  0  0  0  0  0  0  0  0  0  0  0
   -4.1813   -1.1186    0.0000 N   0  0  0  0  0  0  0  0  0  0  0  0
   -2.7040   -0.8584    0.0000 H   0  0  0  0  0  0  0  0  0  0  0  0
   -4.6945   -2.5281    0.0000 C   0  0  0  0  0  0  0  0  0  0  0  0
   -6.1718   -2.7883    0.0000 O   0  0  0  0  0  0  0  0  0  0  0  0
   -3.7305   -3.6773    0.0000 C   0  0  0  0  0  0  0  0  0  0  0  0
   -4.2438   -5.0867    0.0000 H   0  0  0  0  0  0  0  0  0  0  0  0
   -2.4316   -4.4275    0.0000 Cl  0  0  0  0  0  0  0  0  0  0  0  0
   -2.7662   -2.5284    0.0000 Cl  0  0  0  0  0  0  0  0  0  0  0  0
   -2.0861    0.0906    0.0000 O   0  0  0  0  0  0  0  0  0  0  0  0
   -0.1362   -0.2535    0.0000 S   0  0  0  0  0  0  0  0  0  0  0  0
   -0.1360    1.2465    0.0000 O   0  0  0  0  0  0  0  0  0  0  0  0
    1.3410    0.0067    0.0000 O   0  0  0  0  0  0  0  0  0  0  0  0
    0.3766   -1.6632    0.0000 O   0  0  0  0  0  0  0  0  0  0  0  0
    1.8537   -1.9239    0.0000 H   0  0  0  0  0  0  0  0  0  0  0  0
  1  2  1  0  0  0  0 
  1  3  2  0  0  0  0 
  3  4  1  0  0  0  0 
  4  5  1  0  0  0  0 
  4  6  2  0  0  0  0 
  6  7  1  0  0  0  0 
  6  8  1  0  0  0  0 
  8  9  2  0  0  0  0 
  1  9  1  0  0  0  0 
  9 10  1  0  0  0  0 
  8 11  1  0  0  0  0 
 11 12  2  0  0  0  0 
 11 13  1  0  0  0  0 
  3 14  1  0  0  0  0 
 14 15  1  6  0  0  0 
 14 16  1  0  0  0  0 
 16 17  1  1  0  0  0 
 16 18  1  0  0  0  0 
 18 19  1  0  0  0  0 
 18 20  1  0  0  0  0 
 18 21  1  0  0  0  0 
 21 22  1  0  0  0  0 
 22 23  2  0  0  0  0 
 22 24  1  0  0  0  0 
 24 25  1  0  0  0  0 
 24 26  1  0  0  0  0 
 24 27  1  0  0  0  0 
 27 28  1  0  0  0  0 
 27 29  1  0  0  0  0 
 27 30  1  0  0  0  0 
 30 31  2  0  0  0  0 
 30 32  1  0  0  0  0 
 32 33  1  0  0  0  0 
 16 34  1  6  0  0  0 
 34 35  1  0  0  0  0 
 34 36  1  0  0  0  0 
 36 37  2  0  0  0  0 
 36 38  1  0  0  0  0 
 38 39  1  0  0  0  0 
 38 40  1  0  0  0  0 
 38 41  1  0  0  0  0 
 14 42  1  1  0  0  0 
 42 43  1  0  0  0  0 
 43 44  2  0  0  0  0 
 43 45  2  0  0  0  0 
 43 46  1  0  0  0  0 
 46 47  1  0  0  0  0 
M  CHG  1  11   1
M  CHG  1  13  -1
M  END
> <Rank>
9

> <Priority_score>
0.192

> <Reaction_type>
sulfation_(aliphatic_hydroxyl)

> <Parent_ID>
78

> <Parent_InChI>
InChI=1S/C15H16Cl2N2O8/c16-14(17)15(24)18-10(7-27-12(22)6-5-11(20)21)13(23)8-1-3-9(4-2-8)19(25)26/h1-4,10,13-14,23H,5-7H2,(H,18,24)(H,20,21)

> <Parent_SMILES>
O=C(O)CCC(=O)OC[C@@H](NC(=O)C(Cl)Cl)[C@H](O)c1ccc([N+](=O)[O-])cc1

$$$$
Molecule 78_metabolite 10
  CDK     0516241031

 30 30  0  0  0  0  0  0  0  0999 V2000
   -5.6118   -0.2013    0.0000 C   0  0  0  0  0  0  0  0  0  0  0  0
   -5.6118   -1.7013    0.0000 H   0  0  0  0  0  0  0  0  0  0  0  0
   -4.3118    0.5487    0.0000 C   0  0  0  0  0  0  0  0  0  0  0  0
   -4.3118    2.0487    0.0000 C   0  0  0  0  0  0  0  0  0  0  0  0
   -3.0129    2.7990    0.0000 H   0  0  0  0  0  0  0  0  0  0  0  0
   -5.6118    2.7987    0.0000 C   0  0  0  0  0  0  0  0  0  0  0  0
   -5.6118    4.2987    0.0000 H   0  0  0  0  0  0  0  0  0  0  0  0
   -6.9118    2.0487    0.0000 C   0  0  0  0  0  0  0  0  0  0  0  0
   -6.9118    0.5487    0.0000 C   0  0  0  0  0  0  0  0  0  0  0  0
   -8.2107   -0.2015    0.0000 H   0  0  0  0  0  0  0  0  0  0  0  0
   -8.2107    2.7990    0.0000 N   0  0  0  0  0  0  0  0  0  0  0  0
   -9.5099    2.0492    0.0000 O   0  0  0  0  0  0  0  0  0  0  0  0
   -8.2105    4.2990    0.0000 O   0  0  0  0  0  0  0  0  0  0  0  0
   -2.5972   -0.4415    0.0000 C   0  0  2  0  0  0  0  0  0  0  0  0
   -3.5616   -1.5904    0.0000 H   0  0  0  0  0  0  0  0  0  0  0  0
   -1.2981    0.3083    0.0000 C   0  0  1  0  0  0  0  0  0  0  0  0
   -0.3337    1.4572    0.0000 H   0  0  0  0  0  0  0  0  0  0  0  0
   -2.2621    1.4575    0.0000 C   0  0  0  0  0  0  0  0  0  0  0  0
   -1.7488    2.8669    0.0000 H   0  0  0  0  0  0  0  0  0  0  0  0
   -3.7393    1.1972    0.0000 O   0  0  0  0  0  0  0  0  0  0  0  0
    0.0008   -0.4419    0.0000 N   0  0  0  0  0  0  0  0  0  0  0  0
    0.0006   -1.9419    0.0000 H   0  0  0  0  0  0  0  0  0  0  0  0
    1.3000    0.3078    0.0000 C   0  0  0  0  0  0  0  0  0  0  0  0
    1.3002    1.8078    0.0000 O   0  0  0  0  0  0  0  0  0  0  0  0
    2.5989   -0.4424    0.0000 C   0  0  0  0  0  0  0  0  0  0  0  0
    3.8981    0.3074    0.0000 H   0  0  0  0  0  0  0  0  0  0  0  0
    1.6346   -1.5913    0.0000 Cl  0  0  0  0  0  0  0  0  0  0  0  0
    3.5629   -1.5916    0.0000 Cl  0  0  0  0  0  0  0  0  0  0  0  0
   -1.6332   -1.5908    0.0000 O   0  0  0  0  0  0  0  0  0  0  0  0
   -2.1465   -3.0002    0.0000 H   0  0  0  0  0  0  0  0  0  0  0  0
  1  2  1  0  0  0  0 
  1  3  2  0  0  0  0 
  3  4  1  0  0  0  0 
  4  5  1  0  0  0  0 
  4  6  2  0  0  0  0 
  6  7  1  0  0  0  0 
  6  8  1  0  0  0  0 
  8  9  2  0  0  0  0 
  1  9  1  0  0  0  0 
  9 10  1  0  0  0  0 
  8 11  1  0  0  0  0 
 11 12  2  0  0  0  0 
 11 13  1  0  0  0  0 
  3 14  1  0  0  0  0 
 14 15  1  1  0  0  0 
 14 16  1  0  0  0  0 
 16 17  1  6  0  0  0 
 16 18  1  0  0  0  0 
 18 19  1  0  0  0  0 
 18 20  2  0  0  0  0 
 16 21  1  1  0  0  0 
 21 22  1  0  0  0  0 
 21 23  1  0  0  0  0 
 23 24  2  0  0  0  0 
 23 25  1  0  0  0  0 
 25 26  1  0  0  0  0 
 25 27  1  0  0  0  0 
 25 28  1  0  0  0  0 
 14 29  1  6  0  0  0 
 29 30  1  0  0  0  0 
M  CHG  1  11   1
M  CHG  1  13  -1
M  END
> <Rank>
10

> <Priority_score>
0.14720337197049527

> <Reaction_type>
oxidative ether cleavage to one alcohol and one aldehyde/ketone

> <Parent_ID>
78

> <Parent_InChI>
InChI=1S/C15H16Cl2N2O8/c16-14(17)15(24)18-10(7-27-12(22)6-5-11(20)21)13(23)8-1-3-9(4-2-8)19(25)26/h1-4,10,13-14,23H,5-7H2,(H,18,24)(H,20,21)

> <Parent_SMILES>
O=C(O)CCC(=O)OC[C@@H](NC(=O)C(Cl)Cl)[C@H](O)c1ccc([N+](=O)[O-])cc1

$$$$
Molecule 78_metabolite 11
  CDK     0516241031

 14 13  0  0  0  0  0  0  0  0999 V2000
    5.1962   -0.0000    0.0000 C   0  0  0  0  0  0  0  0  0  0  0  0
    6.1603    1.1491    0.0000 H   0  0  0  0  0  0  0  0  0  0  0  0
    4.2320    1.1491    0.0000 H   0  0  0  0  0  0  0  0  0  0  0  0
    3.8971   -0.7500    0.0000 C   0  0  0  0  0  0  0  0  0  0  0  0
    2.9329   -1.8991    0.0000 H   0  0  0  0  0  0  0  0  0  0  0  0
    4.8613   -1.8991    0.0000 H   0  0  0  0  0  0  0  0  0  0  0  0
    2.5981   -0.0000    0.0000 C   0  0  0  0  0  0  0  0  0  0  0  0
    2.5981    1.5000    0.0000 O   0  0  0  0  0  0  0  0  0  0  0  0
    1.2990   -0.7500    0.0000 O   0  0  0  0  0  0  0  0  0  0  0  0
    0.0000    0.0000    0.0000 H   0  0  0  0  0  0  0  0  0  0  0  0
    6.4952   -0.7500    0.0000 C   0  0  0  0  0  0  0  0  0  0  0  0
    6.4952   -2.2500    0.0000 O   0  0  0  0  0  0  0  0  0  0  0  0
    7.7942   -0.0000    0.0000 O   0  0  0  0  0  0  0  0  0  0  0  0
    9.0933   -0.7500    0.0000 H   0  0  0  0  0  0  0  0  0  0  0  0
  1  2  1  0  0  0  0 
  1  3  1  0  0  0  0 
  1  4  1  0  0  0  0 
  4  5  1  0  0  0  0 
  4  6  1  0  0  0  0 
  4  7  1  0  0  0  0 
  7  8  2  0  0  0  0 
  7  9  1  0  0  0  0 
  9 10  1  0  0  0  0 
  1 11  1  0  0  0  0 
 11 12  2  0  0  0  0 
 11 13  1  0  0  0  0 
 13 14  1  0  0  0  0 
M  END
> <Rank>
10

> <Priority_score>
0.14720337197049527

> <Reaction_type>
hydrolysis_(ester)

> <Parent_ID>
78

> <Parent_InChI>
InChI=1S/C15H16Cl2N2O8/c16-14(17)15(24)18-10(7-27-12(22)6-5-11(20)21)13(23)8-1-3-9(4-2-8)19(25)26/h1-4,10,13-14,23H,5-7H2,(H,18,24)(H,20,21)

> <Parent_SMILES>
O=C(O)CCC(=O)OC[C@@H](NC(=O)C(Cl)Cl)[C@H](O)c1ccc([N+](=O)[O-])cc1

$$$$
Molecule 78_metabolite 12
  CDK     0516241031

 44 44  0  0  0  0  0  0  0  0999 V2000
  -14.2372   -0.5853    0.0000 C   0  0  0  0  0  0  0  0  0  0  0  0
  -15.5360    0.1651    0.0000 H   0  0  0  0  0  0  0  0  0  0  0  0
  -12.9375    0.1651    0.0000 C   0  0  0  0  0  0  0  0  0  0  0  0
  -11.6387   -0.5853    0.0000 C   0  0  0  0  0  0  0  0  0  0  0  0
  -10.3393    0.1641    0.0000 H   0  0  0  0  0  0  0  0  0  0  0  0
  -11.6396   -2.0861    0.0000 C   0  0  0  0  0  0  0  0  0  0  0  0
  -10.3408   -2.8365    0.0000 H   0  0  0  0  0  0  0  0  0  0  0  0
  -12.9394   -2.8365    0.0000 C   0  0  0  0  0  0  0  0  0  0  0  0
  -14.2382   -2.0861    0.0000 C   0  0  0  0  0  0  0  0  0  0  0  0
  -15.5376   -2.8355    0.0000 H   0  0  0  0  0  0  0  0  0  0  0  0
  -12.9396   -4.3365    0.0000 N   0  0  0  0  0  0  0  0  0  0  0  0
  -14.2388   -5.0863    0.0000 O   0  0  0  0  0  0  0  0  0  0  0  0
  -11.6407   -5.0867    0.0000 O   0  0  0  0  0  0  0  0  0  0  0  0
  -12.9372    1.6651    0.0000 C   0  0  2  0  0  0  0  0  0  0  0  0
  -14.4145    1.4049    0.0000 H   0  0  0  0  0  0  0  0  0  0  0  0
  -10.3909    3.1347    0.0000 C   0  0  1  0  0  0  0  0  0  0  0  0
   -9.4265    4.2836    0.0000 H   0  0  0  0  0  0  0  0  0  0  0  0
   -9.0919    2.3845    0.0000 C   0  0  0  0  0  0  0  0  0  0  0  0
  -10.0563    1.2356    0.0000 H   0  0  0  0  0  0  0  0  0  0  0  0
   -8.1279    1.2353    0.0000 H   0  0  0  0  0  0  0  0  0  0  0  0
   -7.7928    3.1343    0.0000 O   0  0  0  0  0  0  0  0  0  0  0  0
   -6.4939    2.3841    0.0000 C   0  0  0  0  0  0  0  0  0  0  0  0
   -6.4941    0.8841    0.0000 O   0  0  0  0  0  0  0  0  0  0  0  0
   -5.1947    3.1339    0.0000 C   0  0  0  0  0  0  0  0  0  0  0  0
   -4.2303    4.2828    0.0000 H   0  0  0  0  0  0  0  0  0  0  0  0
   -3.8958    2.3837    0.0000 C   0  0  0  0  0  0  0  0  0  0  0  0
   -4.8602    1.2348    0.0000 H   0  0  0  0  0  0  0  0  0  0  0  0
   -2.9318    1.2345    0.0000 H   0  0  0  0  0  0  0  0  0  0  0  0
   -2.5966    3.1335    0.0000 C   0  0  0  0  0  0  0  0  0  0  0  0
   -2.5964    4.6335    0.0000 O   0  0  0  0  0  0  0  0  0  0  0  0
   -1.2977    2.3833    0.0000 O   0  0  0  0  0  0  0  0  0  0  0  0
    0.0014    3.1331    0.0000 H   0  0  0  0  0  0  0  0  0  0  0  0
   -6.1587    4.2831    0.0000 O   0  0  0  0  0  0  0  0  0  0  0  0
   -5.6455    5.6926    0.0000 H   0  0  0  0  0  0  0  0  0  0  0  0
  -11.3549    4.2839    0.0000 N   0  0  0  0  0  0  0  0  0  0  0  0
  -12.8321    4.0237    0.0000 H   0  0  0  0  0  0  0  0  0  0  0  0
  -10.8416    5.6934    0.0000 C   0  0  0  0  0  0  0  0  0  0  0  0
   -9.3644    5.9536    0.0000 O   0  0  0  0  0  0  0  0  0  0  0  0
  -11.8056    6.8426    0.0000 C   0  0  0  0  0  0  0  0  0  0  0  0
  -11.2923    8.2521    0.0000 H   0  0  0  0  0  0  0  0  0  0  0  0
  -13.1045    7.5928    0.0000 Cl  0  0  0  0  0  0  0  0  0  0  0  0
  -12.7700    5.6937    0.0000 Cl  0  0  0  0  0  0  0  0  0  0  0  0
  -13.4500    3.0748    0.0000 O   0  0  0  0  0  0  0  0  0  0  0  0
  -14.9272    3.3355    0.0000 H   0  0  0  0  0  0  0  0  0  0  0  0
  1  2  1  0  0  0  0 
  1  3  2  0  0  0  0 
  3  4  1  0  0  0  0 
  4  5  1  0  0  0  0 
  4  6  2  0  0  0  0 
  6  7  1  0  0  0  0 
  6  8  1  0  0  0  0 
  8  9  2  0  0  0  0 
  1  9  1  0  0  0  0 
  9 10  1  0  0  0  0 
  8 11  1  0  0  0  0 
 11 12  2  0  0  0  0 
 11 13  1  0  0  0  0 
  3 14  1  0  0  0  0 
 14 15  1  6  0  0  0 
 14 16  1  0  0  0  0 
 16 17  1  1  0  0  0 
 16 18  1  0  0  0  0 
 18 19  1  0  0  0  0 
 18 20  1  0  0  0  0 
 18 21  1  0  0  0  0 
 21 22  1  0  0  0  0 
 22 23  2  0  0  0  0 
 22 24  1  0  0  0  0 
 24 25  1  0  0  0  0 
 24 26  1  0  0  0  0 
 26 27  1  0  0  0  0 
 26 28  1  0  0  0  0 
 26 29  1  0  0  0  0 
 29 30  2  0  0  0  0 
 29 31  1  0  0  0  0 
 31 32  1  0  0  0  0 
 24 33  1  0  0  0  0 
 33 34  1  0  0  0  0 
 16 35  1  6  0  0  0 
 35 36  1  0  0  0  0 
 35 37  1  0  0  0  0 
 37 38  2  0  0  0  0 
 37 39  1  0  0  0  0 
 39 40  1  0  0  0  0 
 39 41  1  0  0  0  0 
 39 42  1  0  0  0  0 
 14 43  1  1  0  0  0 
 43 44  1  0  0  0  0 
M  CHG  1  11   1
M  CHG  1  13  -1
M  END
> <Rank>
10

> <Priority_score>
0.14720337197049527

> <Reaction_type>
aliphatic_hydroxylation_(sec_carbon_next_to_SP2,not_in_a_ring)

> <Parent_ID>
78

> <Parent_InChI>
InChI=1S/C15H16Cl2N2O8/c16-14(17)15(24)18-10(7-27-12(22)6-5-11(20)21)13(23)8-1-3-9(4-2-8)19(25)26/h1-4,10,13-14,23H,5-7H2,(H,18,24)(H,20,21)

> <Parent_SMILES>
O=C(O)CCC(=O)OC[C@@H](NC(=O)C(Cl)Cl)[C@H](O)c1ccc([N+](=O)[O-])cc1

$$$$
Molecule 78_metabolite 13
  CDK     0516241031

 32 32  0  0  0  0  0  0  0  0999 V2000
   -7.6902    0.3342    0.0000 C   0  0  0  0  0  0  0  0  0  0  0  0
   -7.6902   -1.1658    0.0000 H   0  0  0  0  0  0  0  0  0  0  0  0
   -6.3902    1.0842    0.0000 C   0  0  0  0  0  0  0  0  0  0  0  0
   -6.3902    2.5842    0.0000 C   0  0  0  0  0  0  0  0  0  0  0  0
   -5.0913    3.3344    0.0000 H   0  0  0  0  0  0  0  0  0  0  0  0
   -7.6902    3.3342    0.0000 C   0  0  0  0  0  0  0  0  0  0  0  0
   -7.6902    4.8342    0.0000 H   0  0  0  0  0  0  0  0  0  0  0  0
   -8.9902    2.5842    0.0000 C   0  0  0  0  0  0  0  0  0  0  0  0
   -8.9902    1.0842    0.0000 C   0  0  0  0  0  0  0  0  0  0  0  0
  -10.2891    0.3340    0.0000 H   0  0  0  0  0  0  0  0  0  0  0  0
  -10.2891    3.3344    0.0000 N   0  0  0  0  0  0  0  0  0  0  0  0
  -11.5883    2.5846    0.0000 O   0  0  0  0  0  0  0  0  0  0  0  0
  -10.2889    4.8344    0.0000 O   0  0  0  0  0  0  0  0  0  0  0  0
   -4.6757    0.0939    0.0000 C   0  0  2  0  0  0  0  0  0  0  0  0
   -5.6400   -1.0550    0.0000 H   0  0  0  0  0  0  0  0  0  0  0  0
   -2.5450    1.3236    0.0000 C   0  0  1  0  0  0  0  0  0  0  0  0
   -1.5807    2.4725    0.0000 H   0  0  0  0  0  0  0  0  0  0  0  0
   -3.5090    2.4728    0.0000 C   0  0  0  0  0  0  0  0  0  0  0  0
   -4.9786    5.0192    0.0000 H   0  0  0  0  0  0  0  0  0  0  0  0
   -4.4734    1.3239    0.0000 H   0  0  0  0  0  0  0  0  0  0  0  0
   -2.9958    3.8823    0.0000 O   0  0  0  0  0  0  0  0  0  0  0  0
   -1.5185    4.1425    0.0000 H   0  0  0  0  0  0  0  0  0  0  0  0
   -1.2461    0.5734    0.0000 N   0  0  0  0  0  0  0  0  0  0  0  0
   -1.2464   -0.9266    0.0000 H   0  0  0  0  0  0  0  0  0  0  0  0
    0.0530    1.3232    0.0000 C   0  0  0  0  0  0  0  0  0  0  0  0
    0.0533    2.8232    0.0000 O   0  0  0  0  0  0  0  0  0  0  0  0
    1.3520    0.5730    0.0000 C   0  0  0  0  0  0  0  0  0  0  0  0
    2.6511    1.3227    0.0000 H   0  0  0  0  0  0  0  0  0  0  0  0
    0.3876   -0.5760    0.0000 Cl  0  0  0  0  0  0  0  0  0  0  0  0
    2.3160   -0.5763    0.0000 Cl  0  0  0  0  0  0  0  0  0  0  0  0
   -3.7117   -1.0553    0.0000 O   0  0  0  0  0  0  0  0  0  0  0  0
   -4.2249   -2.4648    0.0000 H   0  0  0  0  0  0  0  0  0  0  0  0
  1  2  1  0  0  0  0 
  1  3  2  0  0  0  0 
  3  4  1  0  0  0  0 
  4  5  1  0  0  0  0 
  4  6  2  0  0  0  0 
  6  7  1  0  0  0  0 
  6  8  1  0  0  0  0 
  8  9  2  0  0  0  0 
  1  9  1  0  0  0  0 
  9 10  1  0  0  0  0 
  8 11  1  0  0  0  0 
 11 12  2  0  0  0  0 
 11 13  1  0  0  0  0 
  3 14  1  0  0  0  0 
 14 15  1  1  0  0  0 
 14 16  1  0  0  0  0 
 16 17  1  6  0  0  0 
 16 18  1  0  0  0  0 
 18 19  1  0  0  0  0 
 18 20  1  0  0  0  0 
 18 21  1  0  0  0  0 
 21 22  1  0  0  0  0 
 16 23  1  1  0  0  0 
 23 24  1  0  0  0  0 
 23 25  1  0  0  0  0 
 25 26  2  0  0  0  0 
 25 27  1  0  0  0  0 
 27 28  1  0  0  0  0 
 27 29  1  0  0  0  0 
 27 30  1  0  0  0  0 
 14 31  1  6  0  0  0 
 31 32  1  0  0  0  0 
M  CHG  1  11   1
M  CHG  1  13  -1
M  END
> <Rank>
10

> <Priority_score>
0.14720337197049527

> <Reaction_type>
hydrolysis_(ester)

> <Parent_ID>
78

> <Parent_InChI>
InChI=1S/C15H16Cl2N2O8/c16-14(17)15(24)18-10(7-27-12(22)6-5-11(20)21)13(23)8-1-3-9(4-2-8)19(25)26/h1-4,10,13-14,23H,5-7H2,(H,18,24)(H,20,21)

> <Parent_SMILES>
O=C(O)CCC(=O)OC[C@@H](NC(=O)C(Cl)Cl)[C@H](O)c1ccc([N+](=O)[O-])cc1

$$$$
Molecule 78_metabolite 14
  CDK     0516241031

 50 50  0  0  0  0  0  0  0  0999 V2000
  -18.1342   -0.5853    0.0000 C   0  0  0  0  0  0  0  0  0  0  0  0
  -19.4330    0.1651    0.0000 H   0  0  0  0  0  0  0  0  0  0  0  0
  -16.8344    0.1651    0.0000 C   0  0  0  0  0  0  0  0  0  0  0  0
  -15.5356   -0.5853    0.0000 C   0  0  0  0  0  0  0  0  0  0  0  0
  -14.2363    0.1641    0.0000 H   0  0  0  0  0  0  0  0  0  0  0  0
  -15.5366   -2.0861    0.0000 C   0  0  0  0  0  0  0  0  0  0  0  0
  -14.2378   -2.8365    0.0000 H   0  0  0  0  0  0  0  0  0  0  0  0
  -16.8364   -2.8365    0.0000 C   0  0  0  0  0  0  0  0  0  0  0  0
  -18.1352   -2.0861    0.0000 C   0  0  0  0  0  0  0  0  0  0  0  0
  -19.4346   -2.8355    0.0000 H   0  0  0  0  0  0  0  0  0  0  0  0
  -16.8366   -4.3365    0.0000 N   0  0  0  0  0  0  0  0  0  0  0  0
  -18.1358   -5.0863    0.0000 O   0  0  0  0  0  0  0  0  0  0  0  0
  -15.5377   -5.0867    0.0000 O   0  0  0  0  0  0  0  0  0  0  0  0
  -16.8342    1.6651    0.0000 C   0  0  2  0  0  0  0  0  0  0  0  0
  -18.3115    1.4049    0.0000 H   0  0  0  0  0  0  0  0  0  0  0  0
  -14.2879    3.1347    0.0000 C   0  0  1  0  0  0  0  0  0  0  0  0
  -13.3235    4.2836    0.0000 H   0  0  0  0  0  0  0  0  0  0  0  0
  -12.9889    2.3845    0.0000 C   0  0  0  0  0  0  0  0  0  0  0  0
  -13.9533    1.2356    0.0000 H   0  0  0  0  0  0  0  0  0  0  0  0
  -12.0249    1.2353    0.0000 H   0  0  0  0  0  0  0  0  0  0  0  0
  -11.6898    3.1343    0.0000 O   0  0  0  0  0  0  0  0  0  0  0  0
  -10.3909    2.3841    0.0000 C   0  0  0  0  0  0  0  0  0  0  0  0
  -10.3911    0.8841    0.0000 O   0  0  0  0  0  0  0  0  0  0  0  0
   -9.0917    3.1339    0.0000 C   0  0  0  0  0  0  0  0  0  0  0  0
   -8.1273    4.2828    0.0000 H   0  0  0  0  0  0  0  0  0  0  0  0
  -10.0557    4.2831    0.0000 H   0  0  0  0  0  0  0  0  0  0  0  0
   -7.7928    2.3837    0.0000 C   0  0  0  0  0  0  0  0  0  0  0  0
   -8.7572    1.2348    0.0000 H   0  0  0  0  0  0  0  0  0  0  0  0
   -6.8288    1.2345    0.0000 H   0  0  0  0  0  0  0  0  0  0  0  0
   -6.4936    3.1335    0.0000 C   0  0  0  0  0  0  0  0  0  0  0  0
   -6.4934    4.6335    0.0000 O   0  0  0  0  0  0  0  0  0  0  0  0
   -5.1947    2.3833    0.0000 N   0  0  0  0  0  0  0  0  0  0  0  0
   -5.1950    0.8833    0.0000 H   0  0  0  0  0  0  0  0  0  0  0  0
   -3.8956    3.1331    0.0000 C   0  0  0  0  0  0  0  0  0  0  0  0
   -2.9312    4.2820    0.0000 H   0  0  0  0  0  0  0  0  0  0  0  0
   -4.8595    4.2823    0.0000 H   0  0  0  0  0  0  0  0  0  0  0  0
   -2.5966    2.3829    0.0000 C   0  0  0  0  0  0  0  0  0  0  0  0
   -2.5969    0.8829    0.0000 O   0  0  0  0  0  0  0  0  0  0  0  0
   -1.2975    3.1326    0.0000 O   0  0  0  0  0  0  0  0  0  0  0  0
    0.0014    2.3824    0.0000 H   0  0  0  0  0  0  0  0  0  0  0  0
  -15.2519    4.2839    0.0000 N   0  0  0  0  0  0  0  0  0  0  0  0
  -16.7291    4.0237    0.0000 H   0  0  0  0  0  0  0  0  0  0  0  0
  -14.7386    5.6934    0.0000 C   0  0  0  0  0  0  0  0  0  0  0  0
  -13.2613    5.9536    0.0000 O   0  0  0  0  0  0  0  0  0  0  0  0
  -15.7026    6.8426    0.0000 C   0  0  0  0  0  0  0  0  0  0  0  0
  -15.1893    8.2521    0.0000 H   0  0  0  0  0  0  0  0  0  0  0  0
  -16.6670    5.6937    0.0000 Cl  0  0  0  0  0  0  0  0  0  0  0  0
  -17.0015    7.5928    0.0000 Cl  0  0  0  0  0  0  0  0  0  0  0  0
  -17.3470    3.0748    0.0000 O   0  0  0  0  0  0  0  0  0  0  0  0
  -18.8242    3.3355    0.0000 H   0  0  0  0  0  0  0  0  0  0  0  0
  1  2  1  0  0  0  0 
  1  3  2  0  0  0  0 
  3  4  1  0  0  0  0 
  4  5  1  0  0  0  0 
  4  6  2  0  0  0  0 
  6  7  1  0  0  0  0 
  6  8  1  0  0  0  0 
  8  9  2  0  0  0  0 
  1  9  1  0  0  0  0 
  9 10  1  0  0  0  0 
  8 11  1  0  0  0  0 
 11 12  2  0  0  0  0 
 11 13  1  0  0  0  0 
  3 14  1  0  0  0  0 
 14 15  1  6  0  0  0 
 14 16  1  0  0  0  0 
 16 17  1  1  0  0  0 
 16 18  1  0  0  0  0 
 18 19  1  0  0  0  0 
 18 20  1  0  0  0  0 
 18 21  1  0  0  0  0 
 21 22  1  0  0  0  0 
 22 23  2  0  0  0  0 
 22 24  1  0  0  0  0 
 24 25  1  0  0  0  0 
 24 26  1  0  0  0  0 
 24 27  1  0  0  0  0 
 27 28  1  0  0  0  0 
 27 29  1  0  0  0  0 
 27 30  1  0  0  0  0 
 30 31  2  0  0  0  0 
 30 32  1  0  0  0  0 
 32 33  1  0  0  0  0 
 32 34  1  0  0  0  0 
 34 35  1  0  0  0  0 
 34 36  1  0  0  0  0 
 34 37  1  0  0  0  0 
 37 38  2  0  0  0  0 
 37 39  1  0  0  0  0 
 39 40  1  0  0  0  0 
 16 41  1  6  0  0  0 
 41 42  1  0  0  0  0 
 41 43  1  0  0  0  0 
 43 44  2  0  0  0  0 
 43 45  1  0  0  0  0 
 45 46  1  0  0  0  0 
 45 47  1  0  0  0  0 
 45 48  1  0  0  0  0 
 14 49  1  1  0  0  0 
 49 50  1  0  0  0  0 
M  CHG  1  11   1
M  CHG  1  13  -1
M  END
> <Rank>
14

> <Priority_score>
0.1276239144104652

> <Reaction_type>
glycination_(aliphatic_carboxyl)

> <Parent_ID>
78

> <Parent_InChI>
InChI=1S/C15H16Cl2N2O8/c16-14(17)15(24)18-10(7-27-12(22)6-5-11(20)21)13(23)8-1-3-9(4-2-8)19(25)26/h1-4,10,13-14,23H,5-7H2,(H,18,24)(H,20,21)

> <Parent_SMILES>
O=C(O)CCC(=O)OC[C@@H](NC(=O)C(Cl)Cl)[C@H](O)c1ccc([N+](=O)[O-])cc1

$$$$
Molecule 78_metabolite 15
  CDK     0516241031

 44 44  0  0  0  0  0  0  0  0999 V2000
  -14.2372   -0.5853    0.0000 C   0  0  0  0  0  0  0  0  0  0  0  0
  -15.5360    0.1651    0.0000 H   0  0  0  0  0  0  0  0  0  0  0  0
  -12.9375    0.1651    0.0000 C   0  0  0  0  0  0  0  0  0  0  0  0
  -11.6387   -0.5853    0.0000 C   0  0  0  0  0  0  0  0  0  0  0  0
  -10.3393    0.1641    0.0000 H   0  0  0  0  0  0  0  0  0  0  0  0
  -11.6396   -2.0861    0.0000 C   0  0  0  0  0  0  0  0  0  0  0  0
  -10.3408   -2.8365    0.0000 H   0  0  0  0  0  0  0  0  0  0  0  0
  -12.9394   -2.8365    0.0000 C   0  0  0  0  0  0  0  0  0  0  0  0
  -14.2382   -2.0861    0.0000 C   0  0  0  0  0  0  0  0  0  0  0  0
  -15.5376   -2.8355    0.0000 H   0  0  0  0  0  0  0  0  0  0  0  0
  -12.9396   -4.3365    0.0000 N   0  0  0  0  0  0  0  0  0  0  0  0
  -14.2388   -5.0863    0.0000 O   0  0  0  0  0  0  0  0  0  0  0  0
  -11.6407   -5.0867    0.0000 O   0  0  0  0  0  0  0  0  0  0  0  0
  -12.9372    1.6651    0.0000 C   0  0  2  0  0  0  0  0  0  0  0  0
  -14.4145    1.4049    0.0000 H   0  0  0  0  0  0  0  0  0  0  0  0
  -10.3909    3.1347    0.0000 C   0  0  1  0  0  0  0  0  0  0  0  0
   -9.4265    4.2836    0.0000 H   0  0  0  0  0  0  0  0  0  0  0  0
   -9.0919    2.3845    0.0000 C   0  0  0  0  0  0  0  0  0  0  0  0
  -10.0563    1.2356    0.0000 H   0  0  0  0  0  0  0  0  0  0  0  0
   -8.1279    1.2353    0.0000 O   0  0  0  0  0  0  0  0  0  0  0  0
   -8.6412   -0.1742    0.0000 H   0  0  0  0  0  0  0  0  0  0  0  0
   -7.7928    3.1343    0.0000 O   0  0  0  0  0  0  0  0  0  0  0  0
   -6.4939    2.3841    0.0000 C   0  0  0  0  0  0  0  0  0  0  0  0
   -6.4941    0.8841    0.0000 O   0  0  0  0  0  0  0  0  0  0  0  0
   -5.1947    3.1339    0.0000 C   0  0  0  0  0  0  0  0  0  0  0  0
   -4.2303    4.2828    0.0000 H   0  0  0  0  0  0  0  0  0  0  0  0
   -6.1587    4.2831    0.0000 H   0  0  0  0  0  0  0  0  0  0  0  0
   -3.8958    2.3837    0.0000 C   0  0  0  0  0  0  0  0  0  0  0  0
   -4.8602    1.2348    0.0000 H   0  0  0  0  0  0  0  0  0  0  0  0
   -2.9318    1.2345    0.0000 H   0  0  0  0  0  0  0  0  0  0  0  0
   -2.5966    3.1335    0.0000 C   0  0  0  0  0  0  0  0  0  0  0  0
   -2.5964    4.6335    0.0000 O   0  0  0  0  0  0  0  0  0  0  0  0
   -1.2977    2.3833    0.0000 O   0  0  0  0  0  0  0  0  0  0  0  0
    0.0014    3.1331    0.0000 H   0  0  0  0  0  0  0  0  0  0  0  0
  -11.3549    4.2839    0.0000 N   0  0  0  0  0  0  0  0  0  0  0  0
  -12.8321    4.0237    0.0000 H   0  0  0  0  0  0  0  0  0  0  0  0
  -10.8416    5.6934    0.0000 C   0  0  0  0  0  0  0  0  0  0  0  0
   -9.3644    5.9536    0.0000 O   0  0  0  0  0  0  0  0  0  0  0  0
  -11.8056    6.8426    0.0000 C   0  0  0  0  0  0  0  0  0  0  0  0
  -11.2923    8.2521    0.0000 H   0  0  0  0  0  0  0  0  0  0  0  0
  -13.1045    7.5928    0.0000 Cl  0  0  0  0  0  0  0  0  0  0  0  0
  -12.7700    5.6937    0.0000 Cl  0  0  0  0  0  0  0  0  0  0  0  0
  -13.4500    3.0748    0.0000 O   0  0  0  0  0  0  0  0  0  0  0  0
  -14.9272    3.3355    0.0000 H   0  0  0  0  0  0  0  0  0  0  0  0
  1  2  1  0  0  0  0 
  1  3  2  0  0  0  0 
  3  4  1  0  0  0  0 
  4  5  1  0  0  0  0 
  4  6  2  0  0  0  0 
  6  7  1  0  0  0  0 
  6  8  1  0  0  0  0 
  8  9  2  0  0  0  0 
  1  9  1  0  0  0  0 
  9 10  1  0  0  0  0 
  8 11  1  0  0  0  0 
 11 12  2  0  0  0  0 
 11 13  1  0  0  0  0 
  3 14  1  0  0  0  0 
 14 15  1  6  0  0  0 
 14 16  1  0  0  0  0 
 16 17  1  1  0  0  0 
 16 18  1  0  0  0  0 
 18 19  1  0  0  0  0 
 18 20  1  0  0  0  0 
 20 21  1  0  0  0  0 
 18 22  1  0  0  0  0 
 22 23  1  0  0  0  0 
 23 24  2  0  0  0  0 
 23 25  1  0  0  0  0 
 25 26  1  0  0  0  0 
 25 27  1  0  0  0  0 
 25 28  1  0  0  0  0 
 28 29  1  0  0  0  0 
 28 30  1  0  0  0  0 
 28 31  1  0  0  0  0 
 31 32  2  0  0  0  0 
 31 33  1  0  0  0  0 
 33 34  1  0  0  0  0 
 16 35  1  6  0  0  0 
 35 36  1  0  0  0  0 
 35 37  1  0  0  0  0 
 37 38  2  0  0  0  0 
 37 39  1  0  0  0  0 
 39 40  1  0  0  0  0 
 39 41  1  0  0  0  0 
 39 42  1  0  0  0  0 
 14 43  1  1  0  0  0 
 43 44  1  0  0  0  0 
M  CHG  1  11   1
M  CHG  1  13  -1
M  END
> <Rank>
15

> <Priority_score>
0.10384080859128238

> <Reaction_type>
aliphatic hydroxylation

> <Parent_ID>
78

> <Parent_InChI>
InChI=1S/C15H16Cl2N2O8/c16-14(17)15(24)18-10(7-27-12(22)6-5-11(20)21)13(23)8-1-3-9(4-2-8)19(25)26/h1-4,10,13-14,23H,5-7H2,(H,18,24)(H,20,21)

> <Parent_SMILES>
O=C(O)CCC(=O)OC[C@@H](NC(=O)C(Cl)Cl)[C@H](O)c1ccc([N+](=O)[O-])cc1

$$$$
Molecule 78_metabolite 16
  CDK     0516241031

 44 44  0  0  0  0  0  0  0  0999 V2000
    0.0000    1.5000    0.0000 C   0  0  0  0  0  0  0  0  0  0  0  0
    0.0000    3.0000    0.0000 H   0  0  0  0  0  0  0  0  0  0  0  0
   -1.3000    0.7500    0.0000 C   0  0  0  0  0  0  0  0  0  0  0  0
   -1.3000   -0.7500    0.0000 C   0  0  0  0  0  0  0  0  0  0  0  0
   -2.5989   -1.5002    0.0000 H   0  0  0  0  0  0  0  0  0  0  0  0
    0.0000   -1.5000    0.0000 C   0  0  0  0  0  0  0  0  0  0  0  0
   -0.0000   -3.0000    0.0000 H   0  0  0  0  0  0  0  0  0  0  0  0
    1.3000   -0.7500    0.0000 C   0  0  0  0  0  0  0  0  0  0  0  0
    1.3000    0.7500    0.0000 C   0  0  0  0  0  0  0  0  0  0  0  0
    2.5989    1.5002    0.0000 H   0  0  0  0  0  0  0  0  0  0  0  0
    2.5989   -1.5002    0.0000 N   0  0  0  0  0  0  0  0  0  0  0  0
    3.8981   -0.7504    0.0000 O   0  0  0  0  0  0  0  0  0  0  0  0
    2.5987   -3.0002    0.0000 O   0  0  0  0  0  0  0  0  0  0  0  0
   -3.0146    1.7403    0.0000 C   0  0  2  0  0  0  0  0  0  0  0  0
   -2.0502    2.8892    0.0000 H   0  0  0  0  0  0  0  0  0  0  0  0
   -4.7295    0.7505    0.0000 C   0  0  1  0  0  0  0  0  0  0  0  0
   -6.0284    1.5008    0.0000 C   0  0  0  0  0  0  0  0  0  0  0  0
   -5.0640    2.6497    0.0000 H   0  0  0  0  0  0  0  0  0  0  0  0
   -6.9924    2.6500    0.0000 H   0  0  0  0  0  0  0  0  0  0  0  0
   -7.3275    0.7510    0.0000 O   0  0  0  0  0  0  0  0  0  0  0  0
   -8.6265    1.5012    0.0000 C   0  0  0  0  0  0  0  0  0  0  0  0
   -8.6262    3.0012    0.0000 O   0  0  0  0  0  0  0  0  0  0  0  0
   -9.9256    0.7514    0.0000 C   0  0  0  0  0  0  0  0  0  0  0  0
  -10.8900   -0.3975    0.0000 H   0  0  0  0  0  0  0  0  0  0  0  0
   -8.9616   -0.3978    0.0000 H   0  0  0  0  0  0  0  0  0  0  0  0
  -11.2245    1.5016    0.0000 C   0  0  0  0  0  0  0  0  0  0  0  0
  -10.2602    2.6505    0.0000 H   0  0  0  0  0  0  0  0  0  0  0  0
  -12.1885    2.6508    0.0000 H   0  0  0  0  0  0  0  0  0  0  0  0
  -12.5237    0.7518    0.0000 C   0  0  0  0  0  0  0  0  0  0  0  0
  -12.5239   -0.7482    0.0000 O   0  0  0  0  0  0  0  0  0  0  0  0
  -13.8226    1.5020    0.0000 O   0  0  0  0  0  0  0  0  0  0  0  0
  -15.1218    0.7522    0.0000 H   0  0  0  0  0  0  0  0  0  0  0  0
   -5.6938   -0.3984    0.0000 N   0  0  0  0  0  0  0  0  0  0  0  0
   -7.1710   -0.1377    0.0000 H   0  0  0  0  0  0  0  0  0  0  0  0
   -5.1810   -1.8080    0.0000 C   0  0  0  0  0  0  0  0  0  0  0  0
   -3.7039   -2.0687    0.0000 O   0  0  0  0  0  0  0  0  0  0  0  0
   -6.1454   -2.9569    0.0000 C   0  0  0  0  0  0  0  0  0  0  0  0
   -5.6326   -4.3665    0.0000 H   0  0  0  0  0  0  0  0  0  0  0  0
   -7.1094   -1.8077    0.0000 Cl  0  0  0  0  0  0  0  0  0  0  0  0
   -7.4445   -3.7067    0.0000 Cl  0  0  0  0  0  0  0  0  0  0  0  0
   -3.7655   -0.3987    0.0000 O   0  0  0  0  0  0  0  0  0  0  0  0
   -2.2882   -0.1384    0.0000 H   0  0  0  0  0  0  0  0  0  0  0  0
   -3.9786    2.8895    0.0000 O   0  0  0  0  0  0  0  0  0  0  0  0
   -3.4653    4.2990    0.0000 H   0  0  0  0  0  0  0  0  0  0  0  0
  1  2  1  0  0  0  0 
  1  3  2  0  0  0  0 
  3  4  1  0  0  0  0 
  4  5  1  0  0  0  0 
  4  6  2  0  0  0  0 
  6  7  1  0  0  0  0 
  6  8  1  0  0  0  0 
  8  9  2  0  0  0  0 
  1  9  1  0  0  0  0 
  9 10  1  0  0  0  0 
  8 11  1  0  0  0  0 
 11 12  2  0  0  0  0 
 11 13  1  0  0  0  0 
  3 14  1  0  0  0  0 
 14 15  1  1  0  0  0 
 14 16  1  0  0  0  0 
 16 17  1  0  0  0  0 
 17 18  1  0  0  0  0 
 17 19  1  0  0  0  0 
 17 20  1  0  0  0  0 
 20 21  1  0  0  0  0 
 21 22  2  0  0  0  0 
 21 23  1  0  0  0  0 
 23 24  1  0  0  0  0 
 23 25  1  0  0  0  0 
 23 26  1  0  0  0  0 
 26 27  1  0  0  0  0 
 26 28  1  0  0  0  0 
 26 29  1  0  0  0  0 
 29 30  2  0  0  0  0 
 29 31  1  0  0  0  0 
 31 32  1  0  0  0  0 
 16 33  1  6  0  0  0 
 33 34  1  0  0  0  0 
 33 35  1  0  0  0  0 
 35 36  2  0  0  0  0 
 35 37  1  0  0  0  0 
 37 38  1  0  0  0  0 
 37 39  1  0  0  0  0 
 37 40  1  0  0  0  0 
 16 41  1  1  0  0  0 
 41 42  1  0  0  0  0 
 14 43  1  6  0  0  0 
 43 44  1  0  0  0  0 
M  CHG  1  11   1
M  CHG  1  13  -1
M  END
> <Rank>
15

> <Priority_score>
0.10384080859128238

> <Reaction_type>
aliphatic_hydroxylation_(tert_carbon_next_to_SP2)

> <Parent_ID>
78

> <Parent_InChI>
InChI=1S/C15H16Cl2N2O8/c16-14(17)15(24)18-10(7-27-12(22)6-5-11(20)21)13(23)8-1-3-9(4-2-8)19(25)26/h1-4,10,13-14,23H,5-7H2,(H,18,24)(H,20,21)

> <Parent_SMILES>
O=C(O)CCC(=O)OC[C@@H](NC(=O)C(Cl)Cl)[C@H](O)c1ccc([N+](=O)[O-])cc1

$$$$
Molecule 78_metabolite 17
  CDK     0516241031

 41 41  0  0  0  0  0  0  0  0999 V2000
  -12.9900    0.1345    0.0000 C   0  0  0  0  0  0  0  0  0  0  0  0
  -14.2888    0.8849    0.0000 H   0  0  0  0  0  0  0  0  0  0  0  0
  -11.6903    0.8849    0.0000 C   0  0  0  0  0  0  0  0  0  0  0  0
  -10.3915    0.1345    0.0000 C   0  0  0  0  0  0  0  0  0  0  0  0
   -9.0921    0.8839    0.0000 H   0  0  0  0  0  0  0  0  0  0  0  0
  -10.3924   -1.3663    0.0000 C   0  0  0  0  0  0  0  0  0  0  0  0
   -9.0936   -2.1167    0.0000 H   0  0  0  0  0  0  0  0  0  0  0  0
  -11.6922   -2.1167    0.0000 C   0  0  0  0  0  0  0  0  0  0  0  0
  -12.9910   -1.3663    0.0000 C   0  0  0  0  0  0  0  0  0  0  0  0
  -14.2904   -2.1157    0.0000 H   0  0  0  0  0  0  0  0  0  0  0  0
  -11.6924   -3.6167    0.0000 N   0  0  0  0  0  0  0  0  0  0  0  0
  -12.9916   -4.3665    0.0000 O   0  0  0  0  0  0  0  0  0  0  0  0
  -10.3935   -4.3669    0.0000 O   0  0  0  0  0  0  0  0  0  0  0  0
  -11.6900    2.3849    0.0000 C   0  0  0  0  0  0  0  0  0  0  0  0
  -12.9889    3.1351    0.0000 O   0  0  0  0  0  0  0  0  0  0  0  0
  -10.3909    3.1347    0.0000 C   0  0  1  0  0  0  0  0  0  0  0  0
   -9.4265    4.2836    0.0000 H   0  0  0  0  0  0  0  0  0  0  0  0
   -9.0919    2.3845    0.0000 C   0  0  0  0  0  0  0  0  0  0  0  0
  -10.0563    1.2356    0.0000 H   0  0  0  0  0  0  0  0  0  0  0  0
   -8.1279    1.2353    0.0000 H   0  0  0  0  0  0  0  0  0  0  0  0
   -7.7928    3.1343    0.0000 O   0  0  0  0  0  0  0  0  0  0  0  0
   -6.4939    2.3841    0.0000 C   0  0  0  0  0  0  0  0  0  0  0  0
   -6.4941    0.8841    0.0000 O   0  0  0  0  0  0  0  0  0  0  0  0
   -5.1947    3.1339    0.0000 C   0  0  0  0  0  0  0  0  0  0  0  0
   -4.2303    4.2828    0.0000 H   0  0  0  0  0  0  0  0  0  0  0  0
   -6.1587    4.2831    0.0000 H   0  0  0  0  0  0  0  0  0  0  0  0
   -3.8958    2.3837    0.0000 C   0  0  0  0  0  0  0  0  0  0  0  0
   -4.8602    1.2348    0.0000 H   0  0  0  0  0  0  0  0  0  0  0  0
   -2.9318    1.2345    0.0000 H   0  0  0  0  0  0  0  0  0  0  0  0
   -2.5966    3.1335    0.0000 C   0  0  0  0  0  0  0  0  0  0  0  0
   -2.5964    4.6335    0.0000 O   0  0  0  0  0  0  0  0  0  0  0  0
   -1.2977    2.3833    0.0000 O   0  0  0  0  0  0  0  0  0  0  0  0
    0.0014    3.1331    0.0000 H   0  0  0  0  0  0  0  0  0  0  0  0
  -11.3549    4.2839    0.0000 N   0  0  0  0  0  0  0  0  0  0  0  0
  -12.8321    4.0237    0.0000 H   0  0  0  0  0  0  0  0  0  0  0  0
  -10.8416    5.6934    0.0000 C   0  0  0  0  0  0  0  0  0  0  0  0
   -9.3644    5.9536    0.0000 O   0  0  0  0  0  0  0  0  0  0  0  0
  -11.8056    6.8426    0.0000 C   0  0  0  0  0  0  0  0  0  0  0  0
  -11.2923    8.2521    0.0000 H   0  0  0  0  0  0  0  0  0  0  0  0
  -13.1045    7.5928    0.0000 Cl  0  0  0  0  0  0  0  0  0  0  0  0
  -12.7700    5.6937    0.0000 Cl  0  0  0  0  0  0  0  0  0  0  0  0
  1  2  1  0  0  0  0 
  1  3  2  0  0  0  0 
  3  4  1  0  0  0  0 
  4  5  1  0  0  0  0 
  4  6  2  0  0  0  0 
  6  7  1  0  0  0  0 
  6  8  1  0  0  0  0 
  8  9  2  0  0  0  0 
  1  9  1  0  0  0  0 
  9 10  1  0  0  0  0 
  8 11  1  0  0  0  0 
 11 12  2  0  0  0  0 
 11 13  1  0  0  0  0 
  3 14  1  0  0  0  0 
 14 15  2  0  0  0  0 
 14 16  1  0  0  0  0 
 16 17  1  1  0  0  0 
 16 18  1  0  0  0  0 
 18 19  1  0  0  0  0 
 18 20  1  0  0  0  0 
 18 21  1  0  0  0  0 
 21 22  1  0  0  0  0 
 22 23  2  0  0  0  0 
 22 24  1  0  0  0  0 
 24 25  1  0  0  0  0 
 24 26  1  0  0  0  0 
 24 27  1  0  0  0  0 
 27 28  1  0  0  0  0 
 27 29  1  0  0  0  0 
 27 30  1  0  0  0  0 
 30 31  2  0  0  0  0 
 30 32  1  0  0  0  0 
 32 33  1  0  0  0  0 
 16 34  1  6  0  0  0 
 34 35  1  0  0  0  0 
 34 36  1  0  0  0  0 
 36 37  2  0  0  0  0 
 36 38  1  0  0  0  0 
 38 39  1  0  0  0  0 
 38 40  1  0  0  0  0 
 38 41  1  0  0  0  0 
M  CHG  1  11   1
M  CHG  1  13  -1
M  END
> <Rank>
17

> <Priority_score>
0.096

> <Reaction_type>
secondary_alcohol_oxidation_(benzylic)

> <Parent_ID>
78

> <Parent_InChI>
InChI=1S/C15H16Cl2N2O8/c16-14(17)15(24)18-10(7-27-12(22)6-5-11(20)21)13(23)8-1-3-9(4-2-8)19(25)26/h1-4,10,13-14,23H,5-7H2,(H,18,24)(H,20,21)

> <Parent_SMILES>
O=C(O)CCC(=O)OC[C@@H](NC(=O)C(Cl)Cl)[C@H](O)c1ccc([N+](=O)[O-])cc1

$$$$
Molecule 78_metabolite 18
  CDK     0516241031

 44 44  0  0  0  0  0  0  0  0999 V2000
  -14.2372   -0.5853    0.0000 C   0  0  0  0  0  0  0  0  0  0  0  0
  -15.5360    0.1651    0.0000 H   0  0  0  0  0  0  0  0  0  0  0  0
  -12.9375    0.1651    0.0000 C   0  0  0  0  0  0  0  0  0  0  0  0
  -11.6387   -0.5853    0.0000 C   0  0  0  0  0  0  0  0  0  0  0  0
  -10.3393    0.1641    0.0000 H   0  0  0  0  0  0  0  0  0  0  0  0
  -11.6396   -2.0861    0.0000 C   0  0  0  0  0  0  0  0  0  0  0  0
  -10.3408   -2.8365    0.0000 H   0  0  0  0  0  0  0  0  0  0  0  0
  -12.9394   -2.8365    0.0000 C   0  0  0  0  0  0  0  0  0  0  0  0
  -14.2382   -2.0861    0.0000 C   0  0  0  0  0  0  0  0  0  0  0  0
  -15.5376   -2.8355    0.0000 H   0  0  0  0  0  0  0  0  0  0  0  0
  -12.9396   -4.3365    0.0000 N   0  0  0  0  0  0  0  0  0  0  0  0
  -14.2388   -5.0863    0.0000 O   0  0  0  0  0  0  0  0  0  0  0  0
  -11.6407   -5.0867    0.0000 O   0  0  0  0  0  0  0  0  0  0  0  0
  -12.9372    1.6651    0.0000 C   0  0  2  0  0  0  0  0  0  0  0  0
  -10.3909    3.1347    0.0000 C   0  0  1  0  0  0  0  0  0  0  0  0
   -9.4265    4.2836    0.0000 H   0  0  0  0  0  0  0  0  0  0  0  0
   -9.0919    2.3845    0.0000 C   0  0  0  0  0  0  0  0  0  0  0  0
  -10.0563    1.2356    0.0000 H   0  0  0  0  0  0  0  0  0  0  0  0
   -8.1279    1.2353    0.0000 H   0  0  0  0  0  0  0  0  0  0  0  0
   -7.7928    3.1343    0.0000 O   0  0  0  0  0  0  0  0  0  0  0  0
   -6.4939    2.3841    0.0000 C   0  0  0  0  0  0  0  0  0  0  0  0
   -6.4941    0.8841    0.0000 O   0  0  0  0  0  0  0  0  0  0  0  0
   -5.1947    3.1339    0.0000 C   0  0  0  0  0  0  0  0  0  0  0  0
   -4.2303    4.2828    0.0000 H   0  0  0  0  0  0  0  0  0  0  0  0
   -6.1587    4.2831    0.0000 H   0  0  0  0  0  0  0  0  0  0  0  0
   -3.8958    2.3837    0.0000 C   0  0  0  0  0  0  0  0  0  0  0  0
   -4.8602    1.2348    0.0000 H   0  0  0  0  0  0  0  0  0  0  0  0
   -2.9318    1.2345    0.0000 H   0  0  0  0  0  0  0  0  0  0  0  0
   -2.5966    3.1335    0.0000 C   0  0  0  0  0  0  0  0  0  0  0  0
   -2.5964    4.6335    0.0000 O   0  0  0  0  0  0  0  0  0  0  0  0
   -1.2977    2.3833    0.0000 O   0  0  0  0  0  0  0  0  0  0  0  0
    0.0014    3.1331    0.0000 H   0  0  0  0  0  0  0  0  0  0  0  0
  -11.3549    4.2839    0.0000 N   0  0  0  0  0  0  0  0  0  0  0  0
  -12.8321    4.0237    0.0000 H   0  0  0  0  0  0  0  0  0  0  0  0
  -10.8416    5.6934    0.0000 C   0  0  0  0  0  0  0  0  0  0  0  0
   -9.3644    5.9536    0.0000 O   0  0  0  0  0  0  0  0  0  0  0  0
  -11.8056    6.8426    0.0000 C   0  0  0  0  0  0  0  0  0  0  0  0
  -11.2923    8.2521    0.0000 H   0  0  0  0  0  0  0  0  0  0  0  0
  -13.1045    7.5928    0.0000 Cl  0  0  0  0  0  0  0  0  0  0  0  0
  -12.7700    5.6937    0.0000 Cl  0  0  0  0  0  0  0  0  0  0  0  0
  -14.4145    1.4049    0.0000 O   0  0  0  0  0  0  0  0  0  0  0  0
  -15.3785    2.5541    0.0000 H   0  0  0  0  0  0  0  0  0  0  0  0
  -13.4500    3.0748    0.0000 O   0  0  0  0  0  0  0  0  0  0  0  0
  -14.9272    3.3355    0.0000 H   0  0  0  0  0  0  0  0  0  0  0  0
  1  2  1  0  0  0  0 
  1  3  2  0  0  0  0 
  3  4  1  0  0  0  0 
  4  5  1  0  0  0  0 
  4  6  2  0  0  0  0 
  6  7  1  0  0  0  0 
  6  8  1  0  0  0  0 
  8  9  2  0  0  0  0 
  1  9  1  0  0  0  0 
  9 10  1  0  0  0  0 
  8 11  1  0  0  0  0 
 11 12  2  0  0  0  0 
 11 13  1  0  0  0  0 
  3 14  1  0  0  0  0 
 14 15  1  0  0  0  0 
 15 16  1  1  0  0  0 
 15 17  1  0  0  0  0 
 17 18  1  0  0  0  0 
 17 19  1  0  0  0  0 
 17 20  1  0  0  0  0 
 20 21  1  0  0  0  0 
 21 22  2  0  0  0  0 
 21 23  1  0  0  0  0 
 23 24  1  0  0  0  0 
 23 25  1  0  0  0  0 
 23 26  1  0  0  0  0 
 26 27  1  0  0  0  0 
 26 28  1  0  0  0  0 
 26 29  1  0  0  0  0 
 29 30  2  0  0  0  0 
 29 31  1  0  0  0  0 
 31 32  1  0  0  0  0 
 15 33  1  6  0  0  0 
 33 34  1  0  0  0  0 
 33 35  1  0  0  0  0 
 35 36  2  0  0  0  0 
 35 37  1  0  0  0  0 
 37 38  1  0  0  0  0 
 37 39  1  0  0  0  0 
 37 40  1  0  0  0  0 
 14 41  1  1  0  0  0 
 41 42  1  0  0  0  0 
 14 43  1  6  0  0  0 
 43 44  1  0  0  0  0 
M  CHG  1  11   1
M  CHG  1  13  -1
M  END
> <Rank>
17

> <Priority_score>
0.096

> <Reaction_type>
aliphatic hydroxylation

> <Parent_ID>
78

> <Parent_InChI>
InChI=1S/C15H16Cl2N2O8/c16-14(17)15(24)18-10(7-27-12(22)6-5-11(20)21)13(23)8-1-3-9(4-2-8)19(25)26/h1-4,10,13-14,23H,5-7H2,(H,18,24)(H,20,21)

> <Parent_SMILES>
O=C(O)CCC(=O)OC[C@@H](NC(=O)C(Cl)Cl)[C@H](O)c1ccc([N+](=O)[O-])cc1

$$$$
Molecule 78_metabolite 19
  CDK     0516241031

 40 40  0  0  0  0  0  0  0  0999 V2000
    0.0000    1.5000    0.0000 C   0  0  0  0  0  0  0  0  0  0  0  0
    0.0000    3.0000    0.0000 H   0  0  0  0  0  0  0  0  0  0  0  0
   -1.3000    0.7500    0.0000 C   0  0  0  0  0  0  0  0  0  0  0  0
   -1.3000   -0.7500    0.0000 C   0  0  0  0  0  0  0  0  0  0  0  0
   -2.5989   -1.5002    0.0000 H   0  0  0  0  0  0  0  0  0  0  0  0
    0.0000   -1.5000    0.0000 C   0  0  0  0  0  0  0  0  0  0  0  0
   -0.0000   -3.0000    0.0000 H   0  0  0  0  0  0  0  0  0  0  0  0
    1.3000   -0.7500    0.0000 C   0  0  0  0  0  0  0  0  0  0  0  0
    1.3000    0.7500    0.0000 C   0  0  0  0  0  0  0  0  0  0  0  0
    2.5989    1.5002    0.0000 H   0  0  0  0  0  0  0  0  0  0  0  0
    2.5989   -1.5002    0.0000 N   0  0  0  0  0  0  0  0  0  0  0  0
    3.8981   -0.7504    0.0000 O   0  0  0  0  0  0  0  0  0  0  0  0
    2.5987   -3.0002    0.0000 O   0  0  0  0  0  0  0  0  0  0  0  0
   -2.5989    1.5002    0.0000 C   0  0  0  0  0  0  0  0  0  0  0  0
   -2.5987    3.0002    0.0000 H   0  0  0  0  0  0  0  0  0  0  0  0
   -4.7295    0.2705    0.0000 C   0  0  0  0  0  0  0  0  0  0  0  0
   -6.0285    1.0208    0.0000 C   0  0  0  0  0  0  0  0  0  0  0  0
   -5.0641    2.1697    0.0000 H   0  0  0  0  0  0  0  0  0  0  0  0
   -6.9925    2.1700    0.0000 H   0  0  0  0  0  0  0  0  0  0  0  0
   -7.3276    0.2710    0.0000 O   0  0  0  0  0  0  0  0  0  0  0  0
   -8.6265    1.0212    0.0000 C   0  0  0  0  0  0  0  0  0  0  0  0
   -8.6263    2.5212    0.0000 O   0  0  0  0  0  0  0  0  0  0  0  0
   -9.9257    0.2714    0.0000 C   0  0  0  0  0  0  0  0  0  0  0  0
  -10.8901   -0.8775    0.0000 H   0  0  0  0  0  0  0  0  0  0  0  0
   -8.9617   -0.8778    0.0000 H   0  0  0  0  0  0  0  0  0  0  0  0
  -11.2246    1.0216    0.0000 C   0  0  0  0  0  0  0  0  0  0  0  0
  -10.2602    2.1705    0.0000 H   0  0  0  0  0  0  0  0  0  0  0  0
  -12.1886    2.1708    0.0000 H   0  0  0  0  0  0  0  0  0  0  0  0
  -12.5238    0.2718    0.0000 C   0  0  0  0  0  0  0  0  0  0  0  0
  -12.5240   -1.2282    0.0000 O   0  0  0  0  0  0  0  0  0  0  0  0
  -13.8227    1.0220    0.0000 O   0  0  0  0  0  0  0  0  0  0  0  0
  -15.1218    0.2722    0.0000 H   0  0  0  0  0  0  0  0  0  0  0  0
   -4.7298   -1.2295    0.0000 N   0  0  0  0  0  0  0  0  0  0  0  0
   -3.4309   -1.9797    0.0000 H   0  0  0  0  0  0  0  0  0  0  0  0
   -6.0289   -1.9792    0.0000 C   0  0  0  0  0  0  0  0  0  0  0  0
   -7.3279   -1.2290    0.0000 O   0  0  0  0  0  0  0  0  0  0  0  0
   -6.0292   -3.4792    0.0000 C   0  0  0  0  0  0  0  0  0  0  0  0
   -7.3283   -4.2290    0.0000 H   0  0  0  0  0  0  0  0  0  0  0  0
   -4.5519   -3.2190    0.0000 Cl  0  0  0  0  0  0  0  0  0  0  0  0
   -5.5164   -4.8889    0.0000 Cl  0  0  0  0  0  0  0  0  0  0  0  0
  1  2  1  0  0  0  0 
  1  3  2  0  0  0  0 
  3  4  1  0  0  0  0 
  4  5  1  0  0  0  0 
  4  6  2  0  0  0  0 
  6  7  1  0  0  0  0 
  6  8  1  0  0  0  0 
  8  9  2  0  0  0  0 
  1  9  1  0  0  0  0 
  9 10  1  0  0  0  0 
  8 11  1  0  0  0  0 
 11 12  2  0  0  0  0 
 11 13  1  0  0  0  0 
  3 14  1  0  0  0  0 
 14 15  1  4  0  0  0 
 14 16  2  0  0  0  0 
 16 17  1  0  0  0  0 
 17 18  1  0  0  0  0 
 17 19  1  0  0  0  0 
 17 20  1  0  0  0  0 
 20 21  1  0  0  0  0 
 21 22  2  0  0  0  0 
 21 23  1  0  0  0  0 
 23 24  1  0  0  0  0 
 23 25  1  0  0  0  0 
 23 26  1  0  0  0  0 
 26 27  1  0  0  0  0 
 26 28  1  0  0  0  0 
 26 29  1  0  0  0  0 
 29 30  2  0  0  0  0 
 29 31  1  0  0  0  0 
 31 32  1  0  0  0  0 
 16 33  1  0  0  0  0 
 33 34  1  0  0  0  0 
 33 35  1  0  0  0  0 
 35 36  2  0  0  0  0 
 35 37  1  0  0  0  0 
 37 38  1  0  0  0  0 
 37 39  1  0  0  0  0 
 37 40  1  0  0  0  0 
M  CHG  1  11   1
M  CHG  1  13  -1
M  END
> <Rank>
17

> <Priority_score>
0.096

> <Reaction_type>
dehydration_next_to_SP2_both_sides

> <Parent_ID>
78

> <Parent_InChI>
InChI=1S/C15H16Cl2N2O8/c16-14(17)15(24)18-10(7-27-12(22)6-5-11(20)21)13(23)8-1-3-9(4-2-8)19(25)26/h1-4,10,13-14,23H,5-7H2,(H,18,24)(H,20,21)

> <Parent_SMILES>
O=C(O)CCC(=O)OC[C@@H](NC(=O)C(Cl)Cl)[C@H](O)c1ccc([N+](=O)[O-])cc1

$$$$
Molecule 78_metabolite 20
  CDK     0516241031

 44 44  0  0  0  0  0  0  0  0999 V2000
    0.9961    5.4165    0.0000 C   0  0  0  0  0  0  0  0  0  0  0  0
   -0.3068    6.1598    0.0000 H   0  0  0  0  0  0  0  0  0  0  0  0
    1.0015    3.9243    0.0000 C   0  0  0  0  0  0  0  0  0  0  0  0
    2.3111    3.1735    0.0000 C   0  0  0  0  0  0  0  0  0  0  0  0
    2.3184    1.6735    0.0000 H   0  0  0  0  0  0  0  0  0  0  0  0
    3.6051    3.9322    0.0000 C   0  0  0  0  0  0  0  0  0  0  0  0
    3.6068    5.4517    0.0000 C   0  0  0  0  0  0  0  0  0  0  0  0
    2.2901    6.1751    0.0000 C   0  0  0  0  0  0  0  0  0  0  0  0
    2.2692    7.6750    0.0000 H   0  0  0  0  0  0  0  0  0  0  0  0
    4.8983    6.2147    0.0000 N   0  0  0  0  0  0  0  0  0  0  0  0
    4.8832    7.7146    0.0000 O   0  0  0  0  0  0  0  0  0  0  0  0
    6.2048    5.4778    0.0000 O   0  0  0  0  0  0  0  0  0  0  0  0
    4.9062    3.1858    0.0000 O   0  0  0  0  0  0  0  0  0  0  0  0
    4.9104    1.6858    0.0000 H   0  0  0  0  0  0  0  0  0  0  0  0
   -0.2950    3.1700    0.0000 C   0  0  2  0  0  0  0  0  0  0  0  0
    0.6730    2.0241    0.0000 H   0  0  0  0  0  0  0  0  0  0  0  0
   -2.8460    4.6315    0.0000 C   0  0  1  0  0  0  0  0  0  0  0  0
   -4.3241    4.8871    0.0000 H   0  0  0  0  0  0  0  0  0  0  0  0
   -2.8510    6.1315    0.0000 C   0  0  0  0  0  0  0  0  0  0  0  0
   -1.3729    5.8759    0.0000 H   0  0  0  0  0  0  0  0  0  0  0  0
   -2.3427    7.5427    0.0000 H   0  0  0  0  0  0  0  0  0  0  0  0
   -4.1525    6.8772    0.0000 O   0  0  0  0  0  0  0  0  0  0  0  0
   -4.1575    8.3772    0.0000 C   0  0  0  0  0  0  0  0  0  0  0  0
   -2.8610    9.1315    0.0000 O   0  0  0  0  0  0  0  0  0  0  0  0
   -5.4590    9.1228    0.0000 C   0  0  0  0  0  0  0  0  0  0  0  0
   -6.9371    9.3784    0.0000 H   0  0  0  0  0  0  0  0  0  0  0  0
   -5.9674    7.7116    0.0000 H   0  0  0  0  0  0  0  0  0  0  0  0
   -5.4640   10.6228    0.0000 C   0  0  0  0  0  0  0  0  0  0  0  0
   -3.9860   10.3673    0.0000 H   0  0  0  0  0  0  0  0  0  0  0  0
   -4.9557   12.0341    0.0000 H   0  0  0  0  0  0  0  0  0  0  0  0
   -6.7656   11.3685    0.0000 C   0  0  0  0  0  0  0  0  0  0  0  0
   -8.0621   10.6142    0.0000 O   0  0  0  0  0  0  0  0  0  0  0  0
   -6.7706   12.8685    0.0000 O   0  0  0  0  0  0  0  0  0  0  0  0
   -8.0721   13.6142    0.0000 H   0  0  0  0  0  0  0  0  0  0  0  0
   -3.3543    3.2203    0.0000 N   0  0  0  0  0  0  0  0  0  0  0  0
   -2.3863    2.0744    0.0000 H   0  0  0  0  0  0  0  0  0  0  0  0
   -4.8307    2.9549    0.0000 C   0  0  0  0  0  0  0  0  0  0  0  0
   -5.7987    4.1007    0.0000 O   0  0  0  0  0  0  0  0  0  0  0  0
   -5.3390    1.5436    0.0000 C   0  0  0  0  0  0  0  0  0  0  0  0
   -6.8153    1.2782    0.0000 H   0  0  0  0  0  0  0  0  0  0  0  0
   -5.3340    0.0436    0.0000 Cl  0  0  0  0  0  0  0  0  0  0  0  0
   -3.8609    1.2881    0.0000 Cl  0  0  0  0  0  0  0  0  0  0  0  0
   -1.2553    2.0177    0.0000 O   0  0  0  0  0  0  0  0  0  0  0  0
   -0.7376    0.6099    0.0000 H   0  0  0  0  0  0  0  0  0  0  0  0
  1  2  1  0  0  0  0 
  1  3  2  0  0  0  0 
  3  4  1  0  0  0  0 
  4  5  1  0  0  0  0 
  4  6  2  0  0  0  0 
  6  7  1  0  0  0  0 
  7  8  2  0  0  0  0 
  1  8  1  0  0  0  0 
  8  9  1  0  0  0  0 
  7 10  1  0  0  0  0 
 10 11  2  0  0  0  0 
 10 12  1  0  0  0  0 
  6 13  1  0  0  0  0 
 13 14  1  0  0  0  0 
  3 15  1  0  0  0  0 
 15 16  1  6  0  0  0 
 15 17  1  0  0  0  0 
 17 18  1  1  0  0  0 
 17 19  1  0  0  0  0 
 19 20  1  0  0  0  0 
 19 21  1  0  0  0  0 
 19 22  1  0  0  0  0 
 22 23  1  0  0  0  0 
 23 24  2  0  0  0  0 
 23 25  1  0  0  0  0 
 25 26  1  0  0  0  0 
 25 27  1  0  0  0  0 
 25 28  1  0  0  0  0 
 28 29  1  0  0  0  0 
 28 30  1  0  0  0  0 
 28 31  1  0  0  0  0 
 31 32  2  0  0  0  0 
 31 33  1  0  0  0  0 
 33 34  1  0  0  0  0 
 17 35  1  6  0  0  0 
 35 36  1  0  0  0  0 
 35 37  1  0  0  0  0 
 37 38  2  0  0  0  0 
 37 39  1  0  0  0  0 
 39 40  1  0  0  0  0 
 39 41  1  0  0  0  0 
 39 42  1  0  0  0  0 
 15 43  1  1  0  0  0 
 43 44  1  0  0  0  0 
M  CHG  1  10   1
M  CHG  1  12  -1
M  END
> <Rank>
20

> <Priority_score>
0.08

> <Reaction_type>
aromatic_hydroxylation_(ortho_to_nitrogen)

> <Parent_ID>
78

> <Parent_InChI>
InChI=1S/C15H16Cl2N2O8/c16-14(17)15(24)18-10(7-27-12(22)6-5-11(20)21)13(23)8-1-3-9(4-2-8)19(25)26/h1-4,10,13-14,23H,5-7H2,(H,18,24)(H,20,21)

> <Parent_SMILES>
O=C(O)CCC(=O)OC[C@@H](NC(=O)C(Cl)Cl)[C@H](O)c1ccc([N+](=O)[O-])cc1

$$$$
Molecule 78_metabolite 21
  CDK     0516241031

 44 44  0  0  0  0  0  0  0  0999 V2000
   -0.1642    1.0490    0.0000 C   0  0  0  0  0  0  0  0  0  0  0  0
   -0.1642    2.5490    0.0000 H   0  0  0  0  0  0  0  0  0  0  0  0
   -1.4642    0.2990    0.0000 C   0  0  0  0  0  0  0  0  0  0  0  0
   -1.4642   -1.2010    0.0000 C   0  0  0  0  0  0  0  0  0  0  0  0
   -2.7632   -1.9512    0.0000 H   0  0  0  0  0  0  0  0  0  0  0  0
   -0.1642   -1.9510    0.0000 C   0  0  0  0  0  0  0  0  0  0  0  0
   -0.1642   -3.4510    0.0000 H   0  0  0  0  0  0  0  0  0  0  0  0
    1.1358   -1.2010    0.0000 C   0  0  0  0  0  0  0  0  0  0  0  0
    1.1358    0.2990    0.0000 C   0  0  0  0  0  0  0  0  0  0  0  0
    2.4347    1.0492    0.0000 H   0  0  0  0  0  0  0  0  0  0  0  0
    2.4347   -1.9512    0.0000 N   0  0  0  0  0  0  0  0  0  0  0  0
    3.7338   -1.2014    0.0000 O   0  0  0  0  0  0  0  0  0  0  0  0
    1.4703   -3.1001    0.0000 O   0  0  0  0  0  0  0  0  0  0  0  0
    3.3987   -3.1005    0.0000 O   0  0  0  0  0  0  0  0  0  0  0  0
   -2.7632    1.0492    0.0000 C   0  0  2  0  0  0  0  0  0  0  0  0
   -4.2403    1.3099    0.0000 H   0  0  0  0  0  0  0  0  0  0  0  0
   -2.7628    3.0292    0.0000 C   0  0  1  0  0  0  0  0  0  0  0  0
   -1.2857    2.7685    0.0000 H   0  0  0  0  0  0  0  0  0  0  0  0
   -4.0618    3.7794    0.0000 C   0  0  0  0  0  0  0  0  0  0  0  0
   -5.0258    4.9286    0.0000 H   0  0  0  0  0  0  0  0  0  0  0  0
   -3.0974    4.9283    0.0000 H   0  0  0  0  0  0  0  0  0  0  0  0
   -5.3609    3.0296    0.0000 O   0  0  0  0  0  0  0  0  0  0  0  0
   -6.6598    3.7798    0.0000 C   0  0  0  0  0  0  0  0  0  0  0  0
   -6.6596    5.2798    0.0000 O   0  0  0  0  0  0  0  0  0  0  0  0
   -7.9590    3.0300    0.0000 C   0  0  0  0  0  0  0  0  0  0  0  0
   -6.9950    1.8808    0.0000 H   0  0  0  0  0  0  0  0  0  0  0  0
   -8.9234    1.8811    0.0000 H   0  0  0  0  0  0  0  0  0  0  0  0
   -9.2579    3.7802    0.0000 C   0  0  0  0  0  0  0  0  0  0  0  0
  -10.2219    4.9294    0.0000 H   0  0  0  0  0  0  0  0  0  0  0  0
   -8.2935    4.9291    0.0000 H   0  0  0  0  0  0  0  0  0  0  0  0
  -10.5571    3.0304    0.0000 C   0  0  0  0  0  0  0  0  0  0  0  0
  -10.5573    1.5304    0.0000 O   0  0  0  0  0  0  0  0  0  0  0  0
  -11.8560    3.7806    0.0000 O   0  0  0  0  0  0  0  0  0  0  0  0
  -13.1551    3.0308    0.0000 H   0  0  0  0  0  0  0  0  0  0  0  0
   -2.0853    4.8897    0.0000 N   0  0  0  0  0  0  0  0  0  0  0  0
   -3.0493    6.0389    0.0000 H   0  0  0  0  0  0  0  0  0  0  0  0
   -0.6081    5.1499    0.0000 C   0  0  0  0  0  0  0  0  0  0  0  0
    0.3559    4.0007    0.0000 O   0  0  0  0  0  0  0  0  0  0  0  0
   -0.0948    6.5594    0.0000 C   0  0  0  0  0  0  0  0  0  0  0  0
    1.3824    6.8196    0.0000 H   0  0  0  0  0  0  0  0  0  0  0  0
   -1.5720    6.8201    0.0000 Cl  0  0  0  0  0  0  0  0  0  0  0  0
   -0.0946    8.0594    0.0000 Cl  0  0  0  0  0  0  0  0  0  0  0  0
   -3.2764   -0.3603    0.0000 O   0  0  0  0  0  0  0  0  0  0  0  0
   -4.7537   -0.6205    0.0000 H   0  0  0  0  0  0  0  0  0  0  0  0
  1  2  1  0  0  0  0 
  1  3  2  0  0  0  0 
  3  4  1  0  0  0  0 
  4  5  1  0  0  0  0 
  4  6  2  0  0  0  0 
  6  7  1  0  0  0  0 
  6  8  1  0  0  0  0 
  8  9  2  0  0  0  0 
  1  9  1  0  0  0  0 
  9 10  1  0  0  0  0 
  8 11  1  0  0  0  0 
 11 12  2  0  0  0  0 
 11 13  1  0  0  0  0 
 11 14  1  0  0  0  0 
  3 15  1  0  0  0  0 
 15 16  1  6  0  0  0 
 15 17  1  0  0  0  0 
 17 18  1  6  0  0  0 
 17 19  1  0  0  0  0 
 19 20  1  0  0  0  0 
 19 21  1  0  0  0  0 
 19 22  1  0  0  0  0 
 22 23  1  0  0  0  0 
 23 24  2  0  0  0  0 
 23 25  1  0  0  0  0 
 25 26  1  0  0  0  0 
 25 27  1  0  0  0  0 
 25 28  1  0  0  0  0 
 28 29  1  0  0  0  0 
 28 30  1  0  0  0  0 
 28 31  1  0  0  0  0 
 31 32  2  0  0  0  0 
 31 33  1  0  0  0  0 
 33 34  1  0  0  0  0 
 17 35  1  1  0  0  0 
 35 36  1  0  0  0  0 
 35 37  1  0  0  0  0 
 37 38  2  0  0  0  0 
 37 39  1  0  0  0  0 
 39 40  1  0  0  0  0 
 39 41  1  0  0  0  0 
 39 42  1  0  0  0  0 
 15 43  1  1  0  0  0 
 43 44  1  0  0  0  0 
M  CHG  1  11   1
M  CHG  1  13  -1
M  CHG  1  14  -1
M  END
> <Rank>
20

> <Priority_score>
0.08

> <Reaction_type>
N-oxidation

> <Parent_ID>
78

> <Parent_InChI>
InChI=1S/C15H16Cl2N2O8/c16-14(17)15(24)18-10(7-27-12(22)6-5-11(20)21)13(23)8-1-3-9(4-2-8)19(25)26/h1-4,10,13-14,23H,5-7H2,(H,18,24)(H,20,21)

> <Parent_SMILES>
O=C(O)CCC(=O)OC[C@@H](NC(=O)C(Cl)Cl)[C@H](O)c1ccc([N+](=O)[O-])cc1

$$$$
Molecule 78_metabolite 22
  CDK     0516241031

 43 43  0  0  0  0  0  0  0  0999 V2000
  -14.2372   -0.5853    0.0000 C   0  0  0  0  0  0  0  0  0  0  0  0
  -15.5360    0.1651    0.0000 H   0  0  0  0  0  0  0  0  0  0  0  0
  -12.9375    0.1651    0.0000 C   0  0  0  0  0  0  0  0  0  0  0  0
  -11.6387   -0.5853    0.0000 C   0  0  0  0  0  0  0  0  0  0  0  0
  -10.3393    0.1641    0.0000 H   0  0  0  0  0  0  0  0  0  0  0  0
  -11.6396   -2.0861    0.0000 C   0  0  0  0  0  0  0  0  0  0  0  0
  -10.3408   -2.8365    0.0000 H   0  0  0  0  0  0  0  0  0  0  0  0
  -12.9394   -2.8365    0.0000 C   0  0  0  0  0  0  0  0  0  0  0  0
  -14.2382   -2.0861    0.0000 C   0  0  0  0  0  0  0  0  0  0  0  0
  -15.5376   -2.8355    0.0000 H   0  0  0  0  0  0  0  0  0  0  0  0
  -12.9396   -4.3365    0.0000 N   0  0  0  0  0  0  0  0  0  0  0  0
  -14.2388   -5.0863    0.0000 H   0  0  0  0  0  0  0  0  0  0  0  0
  -11.6407   -5.0867    0.0000 H   0  0  0  0  0  0  0  0  0  0  0  0
  -12.9372    1.6651    0.0000 C   0  0  2  0  0  0  0  0  0  0  0  0
  -14.4145    1.4049    0.0000 H   0  0  0  0  0  0  0  0  0  0  0  0
  -10.3909    3.1347    0.0000 C   0  0  1  0  0  0  0  0  0  0  0  0
   -9.4265    4.2836    0.0000 H   0  0  0  0  0  0  0  0  0  0  0  0
   -9.0919    2.3845    0.0000 C   0  0  0  0  0  0  0  0  0  0  0  0
  -10.0563    1.2356    0.0000 H   0  0  0  0  0  0  0  0  0  0  0  0
   -8.1279    1.2353    0.0000 H   0  0  0  0  0  0  0  0  0  0  0  0
   -7.7928    3.1343    0.0000 O   0  0  0  0  0  0  0  0  0  0  0  0
   -6.4939    2.3841    0.0000 C   0  0  0  0  0  0  0  0  0  0  0  0
   -6.4941    0.8841    0.0000 O   0  0  0  0  0  0  0  0  0  0  0  0
   -5.1947    3.1339    0.0000 C   0  0  0  0  0  0  0  0  0  0  0  0
   -4.2303    4.2828    0.0000 H   0  0  0  0  0  0  0  0  0  0  0  0
   -6.1587    4.2831    0.0000 H   0  0  0  0  0  0  0  0  0  0  0  0
   -3.8958    2.3837    0.0000 C   0  0  0  0  0  0  0  0  0  0  0  0
   -4.8602    1.2348    0.0000 H   0  0  0  0  0  0  0  0  0  0  0  0
   -2.9318    1.2345    0.0000 H   0  0  0  0  0  0  0  0  0  0  0  0
   -2.5966    3.1335    0.0000 C   0  0  0  0  0  0  0  0  0  0  0  0
   -2.5964    4.6335    0.0000 O   0  0  0  0  0  0  0  0  0  0  0  0
   -1.2977    2.3833    0.0000 O   0  0  0  0  0  0  0  0  0  0  0  0
    0.0014    3.1331    0.0000 H   0  0  0  0  0  0  0  0  0  0  0  0
  -11.3549    4.2839    0.0000 N   0  0  0  0  0  0  0  0  0  0  0  0
  -12.8321    4.0237    0.0000 H   0  0  0  0  0  0  0  0  0  0  0  0
  -10.8416    5.6934    0.0000 C   0  0  0  0  0  0  0  0  0  0  0  0
   -9.3644    5.9536    0.0000 O   0  0  0  0  0  0  0  0  0  0  0  0
  -11.8056    6.8426    0.0000 C   0  0  0  0  0  0  0  0  0  0  0  0
  -11.2923    8.2521    0.0000 H   0  0  0  0  0  0  0  0  0  0  0  0
  -13.1045    7.5928    0.0000 Cl  0  0  0  0  0  0  0  0  0  0  0  0
  -12.7700    5.6937    0.0000 Cl  0  0  0  0  0  0  0  0  0  0  0  0
  -13.4500    3.0748    0.0000 O   0  0  0  0  0  0  0  0  0  0  0  0
  -14.9272    3.3355    0.0000 H   0  0  0  0  0  0  0  0  0  0  0  0
  1  2  1  0  0  0  0 
  1  3  2  0  0  0  0 
  3  4  1  0  0  0  0 
  4  5  1  0  0  0  0 
  4  6  2  0  0  0  0 
  6  7  1  0  0  0  0 
  6  8  1  0  0  0  0 
  8  9  2  0  0  0  0 
  1  9  1  0  0  0  0 
  9 10  1  0  0  0  0 
  8 11  1  0  0  0  0 
 11 12  1  0  0  0  0 
 11 13  1  0  0  0  0 
  3 14  1  0  0  0  0 
 14 15  1  6  0  0  0 
 14 16  1  0  0  0  0 
 16 17  1  1  0  0  0 
 16 18  1  0  0  0  0 
 18 19  1  0  0  0  0 
 18 20  1  0  0  0  0 
 18 21  1  0  0  0  0 
 21 22  1  0  0  0  0 
 22 23  2  0  0  0  0 
 22 24  1  0  0  0  0 
 24 25  1  0  0  0  0 
 24 26  1  0  0  0  0 
 24 27  1  0  0  0  0 
 27 28  1  0  0  0  0 
 27 29  1  0  0  0  0 
 27 30  1  0  0  0  0 
 30 31  2  0  0  0  0 
 30 32  1  0  0  0  0 
 32 33  1  0  0  0  0 
 16 34  1  6  0  0  0 
 34 35  1  0  0  0  0 
 34 36  1  0  0  0  0 
 36 37  2  0  0  0  0 
 36 38  1  0  0  0  0 
 38 39  1  0  0  0  0 
 38 40  1  0  0  0  0 
 38 41  1  0  0  0  0 
 14 42  1  1  0  0  0 
 42 43  1  0  0  0  0 
M  END
> <Rank>
20

> <Priority_score>
0.08

> <Reaction_type>
nitro_to_aniline

> <Parent_ID>
78

> <Parent_InChI>
InChI=1S/C15H16Cl2N2O8/c16-14(17)15(24)18-10(7-27-12(22)6-5-11(20)21)13(23)8-1-3-9(4-2-8)19(25)26/h1-4,10,13-14,23H,5-7H2,(H,18,24)(H,20,21)

> <Parent_SMILES>
O=C(O)CCC(=O)OC[C@@H](NC(=O)C(Cl)Cl)[C@H](O)c1ccc([N+](=O)[O-])cc1

$$$$
Molecule 78_metabolite 23
  CDK     0516241031

  5  4  0  0  0  0  0  0  0  0999 V2000
    1.2990   -0.7500    0.0000 C   0  0  0  0  0  0  0  0  0  0  0  0
    0.0000    0.0000    0.0000 H   0  0  0  0  0  0  0  0  0  0  0  0
    1.2990   -2.2500    0.0000 O   0  0  0  0  0  0  0  0  0  0  0  0
    2.5981   -0.0000    0.0000 O   0  0  0  0  0  0  0  0  0  0  0  0
    3.8971   -0.7500    0.0000 H   0  0  0  0  0  0  0  0  0  0  0  0
  1  2  1  0  0  0  0 
  1  3  2  0  0  0  0 
  1  4  1  0  0  0  0 
  4  5  1  0  0  0  0 
M  END
> <Rank>
23

> <Priority_score>
0.0632

> <Reaction_type>
deformylation

> <Parent_ID>
78

> <Parent_InChI>
InChI=1S/C15H16Cl2N2O8/c16-14(17)15(24)18-10(7-27-12(22)6-5-11(20)21)13(23)8-1-3-9(4-2-8)19(25)26/h1-4,10,13-14,23H,5-7H2,(H,18,24)(H,20,21)

> <Parent_SMILES>
O=C(O)CCC(=O)OC[C@@H](NC(=O)C(Cl)Cl)[C@H](O)c1ccc([N+](=O)[O-])cc1

$$$$
Molecule 78_metabolite 24
  CDK     0516241031

 38 38  0  0  0  0  0  0  0  0999 V2000
   -1.2977    2.3837    0.0000 C   0  0  0  0  0  0  0  0  0  0  0  0
    0.0014    3.1335    0.0000 H   0  0  0  0  0  0  0  0  0  0  0  0
   -1.2980    0.8837    0.0000 H   0  0  0  0  0  0  0  0  0  0  0  0
   -2.5966    3.1339    0.0000 C   0  0  0  0  0  0  0  0  0  0  0  0
   -2.5964    4.6339    0.0000 H   0  0  0  0  0  0  0  0  0  0  0  0
   -3.8958    2.3841    0.0000 C   0  0  0  0  0  0  0  0  0  0  0  0
   -3.8960    0.8841    0.0000 O   0  0  0  0  0  0  0  0  0  0  0  0
   -5.1947    3.1343    0.0000 O   0  0  0  0  0  0  0  0  0  0  0  0
   -6.4939    2.3845    0.0000 C   0  0  0  0  0  0  0  0  0  0  0  0
   -7.4582    1.2356    0.0000 H   0  0  0  0  0  0  0  0  0  0  0  0
   -5.5299    1.2353    0.0000 H   0  0  0  0  0  0  0  0  0  0  0  0
   -7.7928    3.1347    0.0000 C   0  0  2  0  0  0  0  0  0  0  0  0
   -6.8284    4.2836    0.0000 H   0  0  0  0  0  0  0  0  0  0  0  0
  -10.3391    1.6651    0.0000 C   0  0  1  0  0  0  0  0  0  0  0  0
  -11.8164    1.4049    0.0000 H   0  0  0  0  0  0  0  0  0  0  0  0
  -10.3394    0.1651    0.0000 C   0  0  0  0  0  0  0  0  0  0  0  0
   -9.0406   -0.5853    0.0000 C   0  0  0  0  0  0  0  0  0  0  0  0
   -7.7412    0.1641    0.0000 H   0  0  0  0  0  0  0  0  0  0  0  0
   -9.0415   -2.0861    0.0000 C   0  0  0  0  0  0  0  0  0  0  0  0
   -7.7427   -2.8365    0.0000 H   0  0  0  0  0  0  0  0  0  0  0  0
  -10.3413   -2.8365    0.0000 C   0  0  0  0  0  0  0  0  0  0  0  0
  -11.6401   -2.0861    0.0000 C   0  0  0  0  0  0  0  0  0  0  0  0
  -12.9395   -2.8355    0.0000 H   0  0  0  0  0  0  0  0  0  0  0  0
  -11.6391   -0.5853    0.0000 C   0  0  0  0  0  0  0  0  0  0  0  0
  -12.9379    0.1651    0.0000 H   0  0  0  0  0  0  0  0  0  0  0  0
  -10.3415   -4.3365    0.0000 N   0  0  0  0  0  0  0  0  0  0  0  0
  -11.6407   -5.0863    0.0000 O   0  0  0  0  0  0  0  0  0  0  0  0
   -9.0426   -5.0867    0.0000 O   0  0  0  0  0  0  0  0  0  0  0  0
  -10.8519    3.0748    0.0000 O   0  0  0  0  0  0  0  0  0  0  0  0
  -12.3291    3.3355    0.0000 H   0  0  0  0  0  0  0  0  0  0  0  0
   -8.7568    4.2839    0.0000 N   0  0  0  0  0  0  0  0  0  0  0  0
  -10.2340    4.0237    0.0000 H   0  0  0  0  0  0  0  0  0  0  0  0
   -8.2435    5.6934    0.0000 C   0  0  0  0  0  0  0  0  0  0  0  0
   -6.7663    5.9536    0.0000 O   0  0  0  0  0  0  0  0  0  0  0  0
   -9.2075    6.8426    0.0000 C   0  0  0  0  0  0  0  0  0  0  0  0
   -8.6943    8.2521    0.0000 H   0  0  0  0  0  0  0  0  0  0  0  0
  -10.1719    5.6937    0.0000 Cl  0  0  0  0  0  0  0  0  0  0  0  0
  -10.5064    7.5928    0.0000 Cl  0  0  0  0  0  0  0  0  0  0  0  0
  1  2  1  0  0  0  0 
  1  3  1  0  0  0  0 
  1  4  2  0  0  0  0 
  4  5  1  0  0  0  0 
  4  6  1  0  0  0  0 
  6  7  2  0  0  0  0 
  6  8  1  0  0  0  0 
  8  9  1  0  0  0  0 
  9 10  1  0  0  0  0 
  9 11  1  0  0  0  0 
  9 12  1  0  0  0  0 
 12 13  1  1  0  0  0 
 12 14  1  0  0  0  0 
 14 15  1  6  0  0  0 
 14 16  1  0  0  0  0 
 16 17  2  0  0  0  0 
 17 18  1  0  0  0  0 
 17 19  1  0  0  0  0 
 19 20  1  0  0  0  0 
 19 21  2  0  0  0  0 
 21 22  1  0  0  0  0 
 22 23  1  0  0  0  0 
 22 24  2  0  0  0  0 
 16 24  1  0  0  0  0 
 24 25  1  0  0  0  0 
 21 26  1  0  0  0  0 
 26 27  2  0  0  0  0 
 26 28  1  0  0  0  0 
 14 29  1  1  0  0  0 
 29 30  1  0  0  0  0 
 12 31  1  6  0  0  0 
 31 32  1  0  0  0  0 
 31 33  1  0  0  0  0 
 33 34  2  0  0  0  0 
 33 35  1  0  0  0  0 
 35 36  1  0  0  0  0 
 35 37  1  0  0  0  0 
 35 38  1  0  0  0  0 
M  CHG  1  26   1
M  CHG  1  28  -1
M  END
> <Rank>
23

> <Priority_score>
0.0632

> <Reaction_type>
deformylation

> <Parent_ID>
78

> <Parent_InChI>
InChI=1S/C15H16Cl2N2O8/c16-14(17)15(24)18-10(7-27-12(22)6-5-11(20)21)13(23)8-1-3-9(4-2-8)19(25)26/h1-4,10,13-14,23H,5-7H2,(H,18,24)(H,20,21)

> <Parent_SMILES>
O=C(O)CCC(=O)OC[C@@H](NC(=O)C(Cl)Cl)[C@H](O)c1ccc([N+](=O)[O-])cc1

$$$$
Molecule 78_metabolite 25
  CDK     0516241031

 44 44  0  0  0  0  0  0  0  0999 V2000
  -14.2372   -1.7345    0.0000 C   0  0  0  0  0  0  0  0  0  0  0  0
  -15.5360   -0.9841    0.0000 H   0  0  0  0  0  0  0  0  0  0  0  0
  -12.9375   -0.9841    0.0000 C   0  0  0  0  0  0  0  0  0  0  0  0
  -11.6387   -1.7345    0.0000 C   0  0  0  0  0  0  0  0  0  0  0  0
  -10.3393   -0.9851    0.0000 H   0  0  0  0  0  0  0  0  0  0  0  0
  -11.6396   -3.2353    0.0000 C   0  0  0  0  0  0  0  0  0  0  0  0
  -10.3408   -3.9858    0.0000 H   0  0  0  0  0  0  0  0  0  0  0  0
  -12.9394   -3.9858    0.0000 C   0  0  0  0  0  0  0  0  0  0  0  0
  -14.2382   -3.2353    0.0000 C   0  0  0  0  0  0  0  0  0  0  0  0
  -15.5376   -3.9847    0.0000 H   0  0  0  0  0  0  0  0  0  0  0  0
  -12.9396   -5.4858    0.0000 N   0  0  0  0  0  0  0  0  0  0  0  0
  -14.2388   -6.2355    0.0000 O   0  0  0  0  0  0  0  0  0  0  0  0
  -11.6407   -6.2360    0.0000 O   0  0  0  0  0  0  0  0  0  0  0  0
  -12.9372    0.5159    0.0000 C   0  0  2  0  0  0  0  0  0  0  0  0
  -14.4145    0.2557    0.0000 H   0  0  0  0  0  0  0  0  0  0  0  0
  -10.3909    1.9855    0.0000 C   0  0  1  0  0  0  0  0  0  0  0  0
   -9.4265    3.1344    0.0000 H   0  0  0  0  0  0  0  0  0  0  0  0
   -9.0919    1.2353    0.0000 C   0  0  0  0  0  0  0  0  0  0  0  0
  -10.0563    0.0864    0.0000 H   0  0  0  0  0  0  0  0  0  0  0  0
   -8.1279    0.0861    0.0000 H   0  0  0  0  0  0  0  0  0  0  0  0
   -7.7928    1.9851    0.0000 O   0  0  0  0  0  0  0  0  0  0  0  0
   -6.4939    1.2349    0.0000 C   0  0  0  0  0  0  0  0  0  0  0  0
   -6.4941   -0.2651    0.0000 O   0  0  0  0  0  0  0  0  0  0  0  0
   -5.1947    1.9847    0.0000 C   0  0  0  0  0  0  0  0  0  0  0  0
   -4.2303    3.1336    0.0000 H   0  0  0  0  0  0  0  0  0  0  0  0
   -6.1587    3.1339    0.0000 H   0  0  0  0  0  0  0  0  0  0  0  0
   -3.8958    1.2345    0.0000 C   0  0  0  0  0  0  0  0  0  0  0  0
   -4.8602    0.0856    0.0000 H   0  0  0  0  0  0  0  0  0  0  0  0
   -2.9318    0.0852    0.0000 H   0  0  0  0  0  0  0  0  0  0  0  0
   -2.5966    1.9843    0.0000 C   0  0  0  0  0  0  0  0  0  0  0  0
   -2.5964    3.4843    0.0000 O   0  0  0  0  0  0  0  0  0  0  0  0
   -1.2977    1.2340    0.0000 O   0  0  0  0  0  0  0  0  0  0  0  0
    0.0014    1.9838    0.0000 H   0  0  0  0  0  0  0  0  0  0  0  0
  -11.3549    3.1347    0.0000 N   0  0  0  0  0  0  0  0  0  0  0  0
  -12.8321    2.8745    0.0000 H   0  0  0  0  0  0  0  0  0  0  0  0
  -10.8416    4.5442    0.0000 C   0  0  0  0  0  0  0  0  0  0  0  0
   -9.3644    4.8044    0.0000 O   0  0  0  0  0  0  0  0  0  0  0  0
  -11.8056    5.6934    0.0000 C   0  0  0  0  0  0  0  0  0  0  0  0
  -13.1045    6.4436    0.0000 H   0  0  0  0  0  0  0  0  0  0  0  0
  -12.7700    4.5445    0.0000 Cl  0  0  0  0  0  0  0  0  0  0  0  0
  -11.2923    7.1029    0.0000 O   0  0  0  0  0  0  0  0  0  0  0  0
  -12.2563    8.2521    0.0000 H   0  0  0  0  0  0  0  0  0  0  0  0
  -13.4500    1.9255    0.0000 O   0  0  0  0  0  0  0  0  0  0  0  0
  -14.9272    2.1862    0.0000 H   0  0  0  0  0  0  0  0  0  0  0  0
  1  2  1  0  0  0  0 
  1  3  2  0  0  0  0 
  3  4  1  0  0  0  0 
  4  5  1  0  0  0  0 
  4  6  2  0  0  0  0 
  6  7  1  0  0  0  0 
  6  8  1  0  0  0  0 
  8  9  2  0  0  0  0 
  1  9  1  0  0  0  0 
  9 10  1  0  0  0  0 
  8 11  1  0  0  0  0 
 11 12  2  0  0  0  0 
 11 13  1  0  0  0  0 
  3 14  1  0  0  0  0 
 14 15  1  6  0  0  0 
 14 16  1  0  0  0  0 
 16 17  1  1  0  0  0 
 16 18  1  0  0  0  0 
 18 19  1  0  0  0  0 
 18 20  1  0  0  0  0 
 18 21  1  0  0  0  0 
 21 22  1  0  0  0  0 
 22 23  2  0  0  0  0 
 22 24  1  0  0  0  0 
 24 25  1  0  0  0  0 
 24 26  1  0  0  0  0 
 24 27  1  0  0  0  0 
 27 28  1  0  0  0  0 
 27 29  1  0  0  0  0 
 27 30  1  0  0  0  0 
 30 31  2  0  0  0  0 
 30 32  1  0  0  0  0 
 32 33  1  0  0  0  0 
 16 34  1  6  0  0  0 
 34 35  1  0  0  0  0 
 34 36  1  0  0  0  0 
 36 37  2  0  0  0  0 
 36 38  1  0  0  0  0 
 38 39  1  0  0  0  0 
 38 40  1  0  0  0  0 
 38 41  1  0  0  0  0 
 41 42  1  0  0  0  0 
 14 43  1  1  0  0  0 
 43 44  1  0  0  0  0 
M  CHG  1  11   1
M  CHG  1  13  -1
M  END
> <Rank>
25

> <Priority_score>
0.052

> <Reaction_type>
aliphatic_dehalogenation

> <Parent_ID>
78

> <Parent_InChI>
InChI=1S/C15H16Cl2N2O8/c16-14(17)15(24)18-10(7-27-12(22)6-5-11(20)21)13(23)8-1-3-9(4-2-8)19(25)26/h1-4,10,13-14,23H,5-7H2,(H,18,24)(H,20,21)

> <Parent_SMILES>
O=C(O)CCC(=O)OC[C@@H](NC(=O)C(Cl)Cl)[C@H](O)c1ccc([N+](=O)[O-])cc1

$$$$
Molecule 78_metabolite 26
  CDK     0516241031

 42 42  0  0  0  0  0  0  0  0999 V2000
  -14.2372   -0.5853    0.0000 C   0  0  0  0  0  0  0  0  0  0  0  0
  -15.5360    0.1651    0.0000 H   0  0  0  0  0  0  0  0  0  0  0  0
  -12.9375    0.1651    0.0000 C   0  0  0  0  0  0  0  0  0  0  0  0
  -11.6387   -0.5853    0.0000 C   0  0  0  0  0  0  0  0  0  0  0  0
  -10.3393    0.1641    0.0000 H   0  0  0  0  0  0  0  0  0  0  0  0
  -11.6396   -2.0861    0.0000 C   0  0  0  0  0  0  0  0  0  0  0  0
  -10.3408   -2.8365    0.0000 H   0  0  0  0  0  0  0  0  0  0  0  0
  -12.9394   -2.8365    0.0000 C   0  0  0  0  0  0  0  0  0  0  0  0
  -14.2382   -2.0861    0.0000 C   0  0  0  0  0  0  0  0  0  0  0  0
  -15.5376   -2.8355    0.0000 H   0  0  0  0  0  0  0  0  0  0  0  0
  -12.9396   -4.3365    0.0000 N   0  0  0  0  0  0  0  0  0  0  0  0
  -14.2388   -5.0863    0.0000 O   0  0  0  0  0  0  0  0  0  0  0  0
  -11.6407   -5.0867    0.0000 O   0  0  0  0  0  0  0  0  0  0  0  0
  -12.9372    1.6651    0.0000 C   0  0  2  0  0  0  0  0  0  0  0  0
  -14.4145    1.4049    0.0000 H   0  0  0  0  0  0  0  0  0  0  0  0
  -10.3909    3.1347    0.0000 C   0  0  1  0  0  0  0  0  0  0  0  0
   -9.4265    4.2836    0.0000 H   0  0  0  0  0  0  0  0  0  0  0  0
   -9.0919    2.3845    0.0000 C   0  0  0  0  0  0  0  0  0  0  0  0
  -10.0563    1.2356    0.0000 H   0  0  0  0  0  0  0  0  0  0  0  0
   -8.1279    1.2353    0.0000 H   0  0  0  0  0  0  0  0  0  0  0  0
   -7.7928    3.1343    0.0000 O   0  0  0  0  0  0  0  0  0  0  0  0
   -6.4939    2.3841    0.0000 C   0  0  0  0  0  0  0  0  0  0  0  0
   -6.4941    0.8841    0.0000 O   0  0  0  0  0  0  0  0  0  0  0  0
   -5.1947    3.1339    0.0000 C   0  0  0  0  0  0  0  0  0  0  0  0
   -4.2303    4.2828    0.0000 H   0  0  0  0  0  0  0  0  0  0  0  0
   -6.1587    4.2831    0.0000 H   0  0  0  0  0  0  0  0  0  0  0  0
   -3.8958    2.3837    0.0000 C   0  0  0  0  0  0  0  0  0  0  0  0
   -4.8602    1.2348    0.0000 H   0  0  0  0  0  0  0  0  0  0  0  0
   -2.9318    1.2345    0.0000 H   0  0  0  0  0  0  0  0  0  0  0  0
   -2.5966    3.1335    0.0000 C   0  0  0  0  0  0  0  0  0  0  0  0
   -2.5964    4.6335    0.0000 O   0  0  0  0  0  0  0  0  0  0  0  0
   -1.2977    2.3833    0.0000 O   0  0  0  0  0  0  0  0  0  0  0  0
    0.0014    3.1331    0.0000 H   0  0  0  0  0  0  0  0  0  0  0  0
  -11.3549    4.2839    0.0000 N   0  0  0  0  0  0  0  0  0  0  0  0
  -12.8321    4.0237    0.0000 H   0  0  0  0  0  0  0  0  0  0  0  0
  -10.8416    5.6934    0.0000 C   0  0  0  0  0  0  0  0  0  0  0  0
   -9.3644    5.9536    0.0000 O   0  0  0  0  0  0  0  0  0  0  0  0
  -11.8056    6.8426    0.0000 C   0  0  0  0  0  0  0  0  0  0  0  0
  -11.2923    8.2521    0.0000 O   0  0  0  0  0  0  0  0  0  0  0  0
  -13.2829    6.5824    0.0000 Cl  0  0  0  0  0  0  0  0  0  0  0  0
  -13.4500    3.0748    0.0000 O   0  0  0  0  0  0  0  0  0  0  0  0
  -14.9272    3.3355    0.0000 H   0  0  0  0  0  0  0  0  0  0  0  0
  1  2  1  0  0  0  0 
  1  3  2  0  0  0  0 
  3  4  1  0  0  0  0 
  4  5  1  0  0  0  0 
  4  6  2  0  0  0  0 
  6  7  1  0  0  0  0 
  6  8  1  0  0  0  0 
  8  9  2  0  0  0  0 
  1  9  1  0  0  0  0 
  9 10  1  0  0  0  0 
  8 11  1  0  0  0  0 
 11 12  2  0  0  0  0 
 11 13  1  0  0  0  0 
  3 14  1  0  0  0  0 
 14 15  1  6  0  0  0 
 14 16  1  0  0  0  0 
 16 17  1  1  0  0  0 
 16 18  1  0  0  0  0 
 18 19  1  0  0  0  0 
 18 20  1  0  0  0  0 
 18 21  1  0  0  0  0 
 21 22  1  0  0  0  0 
 22 23  2  0  0  0  0 
 22 24  1  0  0  0  0 
 24 25  1  0  0  0  0 
 24 26  1  0  0  0  0 
 24 27  1  0  0  0  0 
 27 28  1  0  0  0  0 
 27 29  1  0  0  0  0 
 27 30  1  0  0  0  0 
 30 31  2  0  0  0  0 
 30 32  1  0  0  0  0 
 32 33  1  0  0  0  0 
 16 34  1  6  0  0  0 
 34 35  1  0  0  0  0 
 34 36  1  0  0  0  0 
 36 37  2  0  0  0  0 
 36 38  1  0  0  0  0 
 38 39  2  0  0  0  0 
 38 40  1  0  0  0  0 
 14 41  1  1  0  0  0 
 41 42  1  0  0  0  0 
M  CHG  1  11   1
M  CHG  1  13  -1
M  END
> <Rank>
25

> <Priority_score>
0.052

> <Reaction_type>
oxidative dehalogenation alkyl

> <Parent_ID>
78

> <Parent_InChI>
InChI=1S/C15H16Cl2N2O8/c16-14(17)15(24)18-10(7-27-12(22)6-5-11(20)21)13(23)8-1-3-9(4-2-8)19(25)26/h1-4,10,13-14,23H,5-7H2,(H,18,24)(H,20,21)

> <Parent_SMILES>
O=C(O)CCC(=O)OC[C@@H](NC(=O)C(Cl)Cl)[C@H](O)c1ccc([N+](=O)[O-])cc1

$$$$
Molecule 78_metabolite 27
  CDK     0516241031

 44 44  0  0  0  0  0  0  0  0999 V2000
  -14.2372   -1.7345    0.0000 C   0  0  0  0  0  0  0  0  0  0  0  0
  -15.5360   -0.9841    0.0000 H   0  0  0  0  0  0  0  0  0  0  0  0
  -12.9375   -0.9841    0.0000 C   0  0  0  0  0  0  0  0  0  0  0  0
  -11.6387   -1.7345    0.0000 C   0  0  0  0  0  0  0  0  0  0  0  0
  -10.3393   -0.9851    0.0000 H   0  0  0  0  0  0  0  0  0  0  0  0
  -11.6396   -3.2353    0.0000 C   0  0  0  0  0  0  0  0  0  0  0  0
  -10.3408   -3.9858    0.0000 H   0  0  0  0  0  0  0  0  0  0  0  0
  -12.9394   -3.9858    0.0000 C   0  0  0  0  0  0  0  0  0  0  0  0
  -14.2382   -3.2353    0.0000 C   0  0  0  0  0  0  0  0  0  0  0  0
  -15.5376   -3.9847    0.0000 H   0  0  0  0  0  0  0  0  0  0  0  0
  -12.9396   -5.4858    0.0000 N   0  0  0  0  0  0  0  0  0  0  0  0
  -14.2388   -6.2355    0.0000 O   0  0  0  0  0  0  0  0  0  0  0  0
  -11.6407   -6.2360    0.0000 O   0  0  0  0  0  0  0  0  0  0  0  0
  -12.9372    0.5159    0.0000 C   0  0  2  0  0  0  0  0  0  0  0  0
  -14.4145    0.2557    0.0000 H   0  0  0  0  0  0  0  0  0  0  0  0
  -10.3909    1.9855    0.0000 C   0  0  1  0  0  0  0  0  0  0  0  0
   -9.4265    3.1344    0.0000 H   0  0  0  0  0  0  0  0  0  0  0  0
   -9.0919    1.2353    0.0000 C   0  0  0  0  0  0  0  0  0  0  0  0
  -10.0563    0.0864    0.0000 H   0  0  0  0  0  0  0  0  0  0  0  0
   -8.1279    0.0861    0.0000 H   0  0  0  0  0  0  0  0  0  0  0  0
   -7.7928    1.9851    0.0000 O   0  0  0  0  0  0  0  0  0  0  0  0
   -6.4939    1.2349    0.0000 C   0  0  0  0  0  0  0  0  0  0  0  0
   -6.4941   -0.2651    0.0000 O   0  0  0  0  0  0  0  0  0  0  0  0
   -5.1947    1.9847    0.0000 C   0  0  0  0  0  0  0  0  0  0  0  0
   -4.2303    3.1336    0.0000 H   0  0  0  0  0  0  0  0  0  0  0  0
   -6.1587    3.1339    0.0000 H   0  0  0  0  0  0  0  0  0  0  0  0
   -3.8958    1.2345    0.0000 C   0  0  0  0  0  0  0  0  0  0  0  0
   -4.8602    0.0856    0.0000 H   0  0  0  0  0  0  0  0  0  0  0  0
   -2.9318    0.0852    0.0000 H   0  0  0  0  0  0  0  0  0  0  0  0
   -2.5966    1.9843    0.0000 C   0  0  0  0  0  0  0  0  0  0  0  0
   -2.5964    3.4843    0.0000 O   0  0  0  0  0  0  0  0  0  0  0  0
   -1.2977    1.2340    0.0000 O   0  0  0  0  0  0  0  0  0  0  0  0
    0.0014    1.9838    0.0000 H   0  0  0  0  0  0  0  0  0  0  0  0
  -11.3549    3.1347    0.0000 N   0  0  0  0  0  0  0  0  0  0  0  0
  -12.8321    2.8745    0.0000 H   0  0  0  0  0  0  0  0  0  0  0  0
  -10.8416    4.5442    0.0000 C   0  0  0  0  0  0  0  0  0  0  0  0
   -9.3644    4.8044    0.0000 O   0  0  0  0  0  0  0  0  0  0  0  0
  -11.8056    5.6934    0.0000 C   0  0  0  0  0  0  0  0  0  0  0  0
  -13.1045    6.4436    0.0000 Cl  0  0  0  0  0  0  0  0  0  0  0  0
  -12.7700    4.5445    0.0000 Cl  0  0  0  0  0  0  0  0  0  0  0  0
  -11.2923    7.1029    0.0000 O   0  0  0  0  0  0  0  0  0  0  0  0
  -12.2563    8.2521    0.0000 H   0  0  0  0  0  0  0  0  0  0  0  0
  -13.4500    1.9255    0.0000 O   0  0  0  0  0  0  0  0  0  0  0  0
  -14.9272    2.1862    0.0000 H   0  0  0  0  0  0  0  0  0  0  0  0
  1  2  1  0  0  0  0 
  1  3  2  0  0  0  0 
  3  4  1  0  0  0  0 
  4  5  1  0  0  0  0 
  4  6  2  0  0  0  0 
  6  7  1  0  0  0  0 
  6  8  1  0  0  0  0 
  8  9  2  0  0  0  0 
  1  9  1  0  0  0  0 
  9 10  1  0  0  0  0 
  8 11  1  0  0  0  0 
 11 12  2  0  0  0  0 
 11 13  1  0  0  0  0 
  3 14  1  0  0  0  0 
 14 15  1  6  0  0  0 
 14 16  1  0  0  0  0 
 16 17  1  1  0  0  0 
 16 18  1  0  0  0  0 
 18 19  1  0  0  0  0 
 18 20  1  0  0  0  0 
 18 21  1  0  0  0  0 
 21 22  1  0  0  0  0 
 22 23  2  0  0  0  0 
 22 24  1  0  0  0  0 
 24 25  1  0  0  0  0 
 24 26  1  0  0  0  0 
 24 27  1  0  0  0  0 
 27 28  1  0  0  0  0 
 27 29  1  0  0  0  0 
 27 30  1  0  0  0  0 
 30 31  2  0  0  0  0 
 30 32  1  0  0  0  0 
 32 33  1  0  0  0  0 
 16 34  1  6  0  0  0 
 34 35  1  0  0  0  0 
 34 36  1  0  0  0  0 
 36 37  2  0  0  0  0 
 36 38  1  0  0  0  0 
 38 39  1  0  0  0  0 
 38 40  1  0  0  0  0 
 38 41  1  0  0  0  0 
 41 42  1  0  0  0  0 
 14 43  1  1  0  0  0 
 43 44  1  0  0  0  0 
M  CHG  1  11   1
M  CHG  1  13  -1
M  END
> <Rank>
25

> <Priority_score>
0.052

> <Reaction_type>
aliphatic hydroxylation

> <Parent_ID>
78

> <Parent_InChI>
InChI=1S/C15H16Cl2N2O8/c16-14(17)15(24)18-10(7-27-12(22)6-5-11(20)21)13(23)8-1-3-9(4-2-8)19(25)26/h1-4,10,13-14,23H,5-7H2,(H,18,24)(H,20,21)

> <Parent_SMILES>
O=C(O)CCC(=O)OC[C@@H](NC(=O)C(Cl)Cl)[C@H](O)c1ccc([N+](=O)[O-])cc1

$$$$
Molecule 78_metabolite 28
  CDK     0516241031

 35 35  0  0  0  0  0  0  0  0999 V2000
   -9.0937    0.7492    0.0000 C   0  0  0  0  0  0  0  0  0  0  0  0
   -7.7945    1.4988    0.0000 H   0  0  0  0  0  0  0  0  0  0  0  0
   -9.0937   -0.7517    0.0000 C   0  0  0  0  0  0  0  0  0  0  0  0
  -10.3930   -1.5012    0.0000 C   0  0  0  0  0  0  0  0  0  0  0  0
  -10.3937   -3.0012    0.0000 H   0  0  0  0  0  0  0  0  0  0  0  0
  -11.6923   -0.7500    0.0000 C   0  0  0  0  0  0  0  0  0  0  0  0
  -12.9916   -1.4996    0.0000 H   0  0  0  0  0  0  0  0  0  0  0  0
  -11.6923    0.7508    0.0000 C   0  0  0  0  0  0  0  0  0  0  0  0
  -10.3930    1.5004    0.0000 C   0  0  0  0  0  0  0  0  0  0  0  0
  -10.3923    3.0004    0.0000 H   0  0  0  0  0  0  0  0  0  0  0  0
  -12.9912    1.5010    0.0000 N   0  0  0  0  0  0  0  0  0  0  0  0
  -12.9910    3.0010    0.0000 O   0  0  0  0  0  0  0  0  0  0  0  0
  -14.2904    0.7512    0.0000 O   0  0  0  0  0  0  0  0  0  0  0  0
   -7.7948   -1.5019    0.0000 C   0  0  2  0  0  0  0  0  0  0  0  0
   -7.2816   -0.0924    0.0000 H   0  0  0  0  0  0  0  0  0  0  0  0
   -7.7951   -3.0019    0.0000 C   0  0  0  0  0  0  0  0  0  0  0  0
   -9.0942   -3.7517    0.0000 O   0  0  0  0  0  0  0  0  0  0  0  0
   -6.4962   -3.7521    0.0000 C   0  0  0  0  0  0  0  0  0  0  0  0
   -7.4605   -4.9010    0.0000 H   0  0  0  0  0  0  0  0  0  0  0  0
   -5.5322   -4.9013    0.0000 H   0  0  0  0  0  0  0  0  0  0  0  0
   -5.1970   -3.0023    0.0000 O   0  0  0  0  0  0  0  0  0  0  0  0
   -3.8981   -3.7525    0.0000 C   0  0  0  0  0  0  0  0  0  0  0  0
   -3.8983   -5.2525    0.0000 O   0  0  0  0  0  0  0  0  0  0  0  0
   -2.5989   -3.0027    0.0000 C   0  0  0  0  0  0  0  0  0  0  0  0
   -1.6346   -1.8538    0.0000 H   0  0  0  0  0  0  0  0  0  0  0  0
   -3.5629   -1.8535    0.0000 H   0  0  0  0  0  0  0  0  0  0  0  0
   -1.3000   -3.7529    0.0000 C   0  0  0  0  0  0  0  0  0  0  0  0
   -2.2644   -4.9018    0.0000 H   0  0  0  0  0  0  0  0  0  0  0  0
   -0.3360   -4.9021    0.0000 H   0  0  0  0  0  0  0  0  0  0  0  0
   -0.0008   -3.0031    0.0000 C   0  0  0  0  0  0  0  0  0  0  0  0
   -0.0006   -1.5031    0.0000 O   0  0  0  0  0  0  0  0  0  0  0  0
    1.2981   -3.7533    0.0000 O   0  0  0  0  0  0  0  0  0  0  0  0
    2.5972   -3.0035    0.0000 H   0  0  0  0  0  0  0  0  0  0  0  0
   -6.3177   -1.7626    0.0000 O   0  0  0  0  0  0  0  0  0  0  0  0
   -5.3533   -0.6137    0.0000 H   0  0  0  0  0  0  0  0  0  0  0  0
  1  2  1  0  0  0  0 
  1  3  2  0  0  0  0 
  3  4  1  0  0  0  0 
  4  5  1  0  0  0  0 
  4  6  2  0  0  0  0 
  6  7  1  0  0  0  0 
  6  8  1  0  0  0  0 
  8  9  2  0  0  0  0 
  1  9  1  0  0  0  0 
  9 10  1  0  0  0  0 
  8 11  1  0  0  0  0 
 11 12  2  0  0  0  0 
 11 13  1  0  0  0  0 
  3 14  1  0  0  0  0 
 14 15  1  6  0  0  0 
 14 16  1  0  0  0  0 
 16 17  2  0  0  0  0 
 16 18  1  0  0  0  0 
 18 19  1  0  0  0  0 
 18 20  1  0  0  0  0 
 18 21  1  0  0  0  0 
 21 22  1  0  0  0  0 
 22 23  2  0  0  0  0 
 22 24  1  0  0  0  0 
 24 25  1  0  0  0  0 
 24 26  1  0  0  0  0 
 24 27  1  0  0  0  0 
 27 28  1  0  0  0  0 
 27 29  1  0  0  0  0 
 27 30  1  0  0  0  0 
 30 31  2  0  0  0  0 
 30 32  1  0  0  0  0 
 32 33  1  0  0  0  0 
 14 34  1  1  0  0  0 
 34 35  1  0  0  0  0 
M  CHG  1  11   1
M  CHG  1  13  -1
M  END
> <Rank>
28

> <Priority_score>
0.036

> <Reaction_type>
N-dealkylation

> <Parent_ID>
78

> <Parent_InChI>
InChI=1S/C15H16Cl2N2O8/c16-14(17)15(24)18-10(7-27-12(22)6-5-11(20)21)13(23)8-1-3-9(4-2-8)19(25)26/h1-4,10,13-14,23H,5-7H2,(H,18,24)(H,20,21)

> <Parent_SMILES>
O=C(O)CCC(=O)OC[C@@H](NC(=O)C(Cl)Cl)[C@H](O)c1ccc([N+](=O)[O-])cc1

$$$$
Molecule 78_metabolite 29
  CDK     0516241031

  9  8  0  0  0  0  0  0  0  0999 V2000
    1.2990   -0.7500    0.0000 C   0  0  0  0  0  0  0  0  0  0  0  0
    0.0000    0.0000    0.0000 H   0  0  0  0  0  0  0  0  0  0  0  0
    2.5981   -0.0000    0.0000 C   0  0  0  0  0  0  0  0  0  0  0  0
    2.5981    1.5000    0.0000 O   0  0  0  0  0  0  0  0  0  0  0  0
    3.8971   -0.7500    0.0000 N   0  0  0  0  0  0  0  0  0  0  0  0
    5.1962   -0.0000    0.0000 H   0  0  0  0  0  0  0  0  0  0  0  0
    3.8971   -2.2500    0.0000 H   0  0  0  0  0  0  0  0  0  0  0  0
    0.3349   -1.8991    0.0000 Cl  0  0  0  0  0  0  0  0  0  0  0  0
    2.2632   -1.8991    0.0000 Cl  0  0  0  0  0  0  0  0  0  0  0  0
  1  2  1  0  0  0  0 
  1  3  1  0  0  0  0 
  3  4  2  0  0  0  0 
  3  5  1  0  0  0  0 
  5  6  1  0  0  0  0 
  5  7  1  0  0  0  0 
  1  8  1  0  0  0  0 
  1  9  1  0  0  0  0 
M  END
> <Rank>
28

> <Priority_score>
0.036

> <Reaction_type>
N-dealkylation

> <Parent_ID>
78

> <Parent_InChI>
InChI=1S/C15H16Cl2N2O8/c16-14(17)15(24)18-10(7-27-12(22)6-5-11(20)21)13(23)8-1-3-9(4-2-8)19(25)26/h1-4,10,13-14,23H,5-7H2,(H,18,24)(H,20,21)

> <Parent_SMILES>
O=C(O)CCC(=O)OC[C@@H](NC(=O)C(Cl)Cl)[C@H](O)c1ccc([N+](=O)[O-])cc1

$$$$
Molecule 78_metabolite 30
  CDK     0516241031

  9  8  0  0  0  0  0  0  0  0999 V2000
    5.1962   -0.0000    0.0000 C   0  0  0  0  0  0  0  0  0  0  0  0
    6.4952   -0.7500    0.0000 H   0  0  0  0  0  0  0  0  0  0  0  0
    5.1962    1.5000    0.0000 H   0  0  0  0  0  0  0  0  0  0  0  0
    3.8971   -0.7500    0.0000 C   0  0  0  0  0  0  0  0  0  0  0  0
    3.8971   -2.2500    0.0000 H   0  0  0  0  0  0  0  0  0  0  0  0
    2.5981   -0.0000    0.0000 C   0  0  0  0  0  0  0  0  0  0  0  0
    2.5981    1.5000    0.0000 O   0  0  0  0  0  0  0  0  0  0  0  0
    1.2990   -0.7500    0.0000 O   0  0  0  0  0  0  0  0  0  0  0  0
   -0.0000    0.0000    0.0000 H   0  0  0  0  0  0  0  0  0  0  0  0
  1  2  1  0  0  0  0 
  1  3  1  0  0  0  0 
  1  4  2  0  0  0  0 
  4  5  1  0  0  0  0 
  4  6  1  0  0  0  0 
  6  7  2  0  0  0  0 
  6  8  1  0  0  0  0 
  8  9  1  0  0  0  0 
M  END
> <Rank>
30

> <Priority_score>
0.029440674394099055

> <Reaction_type>
deformylation

> <Parent_ID>
78

> <Parent_InChI>
InChI=1S/C15H16Cl2N2O8/c16-14(17)15(24)18-10(7-27-12(22)6-5-11(20)21)13(23)8-1-3-9(4-2-8)19(25)26/h1-4,10,13-14,23H,5-7H2,(H,18,24)(H,20,21)

> <Parent_SMILES>
O=C(O)CCC(=O)OC[C@@H](NC(=O)C(Cl)Cl)[C@H](O)c1ccc([N+](=O)[O-])cc1

$$$$
Molecule 78_metabolite 31
  CDK     0516241031

 34 34  0  0  0  0  0  0  0  0999 V2000
   -2.9843   -3.0509    0.0000 C   0  0  0  0  0  0  0  0  0  0  0  0
   -1.6853   -3.8009    0.0000 H   0  0  0  0  0  0  0  0  0  0  0  0
   -2.9838   -1.5501    0.0000 C   0  0  0  0  0  0  0  0  0  0  0  0
   -4.2829   -0.8001    0.0000 C   0  0  0  0  0  0  0  0  0  0  0  0
   -4.2831    0.6999    0.0000 H   0  0  0  0  0  0  0  0  0  0  0  0
   -5.5824   -1.5509    0.0000 C   0  0  0  0  0  0  0  0  0  0  0  0
   -6.8814   -0.8009    0.0000 H   0  0  0  0  0  0  0  0  0  0  0  0
   -5.5829   -3.0518    0.0000 C   0  0  0  0  0  0  0  0  0  0  0  0
   -4.2838   -3.8018    0.0000 C   0  0  0  0  0  0  0  0  0  0  0  0
   -4.2836   -5.3018    0.0000 H   0  0  0  0  0  0  0  0  0  0  0  0
   -6.8820   -3.8015    0.0000 N   0  0  0  0  0  0  0  0  0  0  0  0
   -6.8823   -5.3015    0.0000 O   0  0  0  0  0  0  0  0  0  0  0  0
   -8.1810   -3.0513    0.0000 O   0  0  0  0  0  0  0  0  0  0  0  0
   -1.2690   -0.5604    0.0000 C   0  0  2  0  0  0  0  0  0  0  0  0
   -0.7562   -1.9700    0.0000 H   0  0  0  0  0  0  0  0  0  0  0  0
   -1.2687    0.9396    0.0000 C   0  0  1  0  0  0  0  0  0  0  0  0
   -1.7815    2.3493    0.0000 H   0  0  0  0  0  0  0  0  0  0  0  0
   -2.7460    0.6794    0.0000 C   0  0  0  0  0  0  0  0  0  0  0  0
   -4.0451   -0.0704    0.0000 H   0  0  0  0  0  0  0  0  0  0  0  0
   -2.2332   -0.7302    0.0000 H   0  0  0  0  0  0  0  0  0  0  0  0
   -3.7100    1.8286    0.0000 O   0  0  0  0  0  0  0  0  0  0  0  0
   -5.1872    1.5684    0.0000 C   0  0  0  0  0  0  0  0  0  0  0  0
   -6.1512    2.7176    0.0000 H   0  0  0  0  0  0  0  0  0  0  0  0
   -5.7005    0.1589    0.0000 O   0  0  0  0  0  0  0  0  0  0  0  0
    0.0304    1.6894    0.0000 N   0  0  0  0  0  0  0  0  0  0  0  0
    1.3294    0.9392    0.0000 H   0  0  0  0  0  0  0  0  0  0  0  0
    0.0307    3.1894    0.0000 C   0  0  0  0  0  0  0  0  0  0  0  0
   -1.2682    3.9396    0.0000 O   0  0  0  0  0  0  0  0  0  0  0  0
    1.3298    3.9392    0.0000 C   0  0  0  0  0  0  0  0  0  0  0  0
    1.3301    5.4392    0.0000 H   0  0  0  0  0  0  0  0  0  0  0  0
    1.8426    2.5296    0.0000 Cl  0  0  0  0  0  0  0  0  0  0  0  0
    2.8071    4.1995    0.0000 Cl  0  0  0  0  0  0  0  0  0  0  0  0
    0.2083   -0.3001    0.0000 O   0  0  0  0  0  0  0  0  0  0  0  0
    1.1723   -1.4494    0.0000 H   0  0  0  0  0  0  0  0  0  0  0  0
  1  2  1  0  0  0  0 
  1  3  2  0  0  0  0 
  3  4  1  0  0  0  0 
  4  5  1  0  0  0  0 
  4  6  2  0  0  0  0 
  6  7  1  0  0  0  0 
  6  8  1  0  0  0  0 
  8  9  2  0  0  0  0 
  1  9  1  0  0  0  0 
  9 10  1  0  0  0  0 
  8 11  1  0  0  0  0 
 11 12  2  0  0  0  0 
 11 13  1  0  0  0  0 
  3 14  1  0  0  0  0 
 14 15  1  1  0  0  0 
 14 16  1  0  0  0  0 
 16 17  1  6  0  0  0 
 16 18  1  0  0  0  0 
 18 19  1  0  0  0  0 
 18 20  1  0  0  0  0 
 18 21  1  0  0  0  0 
 21 22  1  0  0  0  0 
 22 23  1  0  0  0  0 
 22 24  2  0  0  0  0 
 16 25  1  1  0  0  0 
 25 26  1  0  0  0  0 
 25 27  1  0  0  0  0 
 27 28  2  0  0  0  0 
 27 29  1  0  0  0  0 
 29 30  1  0  0  0  0 
 29 31  1  0  0  0  0 
 29 32  1  0  0  0  0 
 14 33  1  6  0  0  0 
 33 34  1  0  0  0  0 
M  CHG  1  11   1
M  CHG  1  13  -1
M  END
> <Rank>
30

> <Priority_score>
0.029440674394099055

> <Reaction_type>
deformylation

> <Parent_ID>
78

> <Parent_InChI>
InChI=1S/C15H16Cl2N2O8/c16-14(17)15(24)18-10(7-27-12(22)6-5-11(20)21)13(23)8-1-3-9(4-2-8)19(25)26/h1-4,10,13-14,23H,5-7H2,(H,18,24)(H,20,21)

> <Parent_SMILES>
O=C(O)CCC(=O)OC[C@@H](NC(=O)C(Cl)Cl)[C@H](O)c1ccc([N+](=O)[O-])cc1

$$$$
Molecule 78_metabolite 32
  CDK     0516241031

 44 44  0  0  0  0  0  0  0  0999 V2000
   -2.5976   -6.0008    0.0000 C   0  0  0  0  0  0  0  0  0  0  0  0
   -2.5978   -7.5008    0.0000 H   0  0  0  0  0  0  0  0  0  0  0  0
   -3.8971   -5.2500    0.0000 C   0  0  0  0  0  0  0  0  0  0  0  0
   -3.8976   -3.7492    0.0000 C   0  0  0  0  0  0  0  0  0  0  0  0
   -5.1968   -2.9994    0.0000 H   0  0  0  0  0  0  0  0  0  0  0  0
   -2.5986   -2.9992    0.0000 C   0  0  0  0  0  0  0  0  0  0  0  0
   -1.2990   -3.7500    0.0000 C   0  0  0  0  0  0  0  0  0  0  0  0
   -1.2986   -5.2508    0.0000 C   0  0  0  0  0  0  0  0  0  0  0  0
    0.0006   -6.0006    0.0000 H   0  0  0  0  0  0  0  0  0  0  0  0
   -0.0000   -3.0000    0.0000 C   0  0  2  0  0  0  0  0  0  0  0  0
   -0.9642   -1.8509    0.0000 H   0  0  0  0  0  0  0  0  0  0  0  0
    2.5461   -4.4700    0.0000 C   0  0  1  0  0  0  0  0  0  0  0  0
    4.0233   -4.7305    0.0000 H   0  0  0  0  0  0  0  0  0  0  0  0
    2.5461   -5.9700    0.0000 C   0  0  0  0  0  0  0  0  0  0  0  0
    1.0689   -5.7095    0.0000 H   0  0  0  0  0  0  0  0  0  0  0  0
    2.0331   -7.3795    0.0000 H   0  0  0  0  0  0  0  0  0  0  0  0
    3.8452   -6.7200    0.0000 O   0  0  0  0  0  0  0  0  0  0  0  0
    3.8452   -8.2200    0.0000 C   0  0  0  0  0  0  0  0  0  0  0  0
    2.5461   -8.9700    0.0000 O   0  0  0  0  0  0  0  0  0  0  0  0
    5.1442   -8.9700    0.0000 C   0  0  0  0  0  0  0  0  0  0  0  0
    6.6214   -9.2305    0.0000 H   0  0  0  0  0  0  0  0  0  0  0  0
    5.6572   -7.5605    0.0000 H   0  0  0  0  0  0  0  0  0  0  0  0
    5.1442  -10.4700    0.0000 C   0  0  0  0  0  0  0  0  0  0  0  0
    3.6670  -10.2095    0.0000 H   0  0  0  0  0  0  0  0  0  0  0  0
    4.6312  -11.8795    0.0000 H   0  0  0  0  0  0  0  0  0  0  0  0
    6.4432  -11.2200    0.0000 C   0  0  0  0  0  0  0  0  0  0  0  0
    7.7423  -10.4700    0.0000 O   0  0  0  0  0  0  0  0  0  0  0  0
    6.4432  -12.7200    0.0000 O   0  0  0  0  0  0  0  0  0  0  0  0
    7.7423  -13.4700    0.0000 H   0  0  0  0  0  0  0  0  0  0  0  0
    3.0591   -3.0605    0.0000 N   0  0  0  0  0  0  0  0  0  0  0  0
    2.0950   -1.9114    0.0000 H   0  0  0  0  0  0  0  0  0  0  0  0
    4.5364   -2.8000    0.0000 C   0  0  0  0  0  0  0  0  0  0  0  0
    5.5005   -3.9491    0.0000 O   0  0  0  0  0  0  0  0  0  0  0  0
    5.0494   -1.3904    0.0000 C   0  0  0  0  0  0  0  0  0  0  0  0
    6.5266   -1.1300    0.0000 H   0  0  0  0  0  0  0  0  0  0  0  0
    5.0494    0.1096    0.0000 Cl  0  0  0  0  0  0  0  0  0  0  0  0
    3.5722   -1.1300    0.0000 Cl  0  0  0  0  0  0  0  0  0  0  0  0
    0.9642   -1.8509    0.0000 O   0  0  0  0  0  0  0  0  0  0  0  0
    0.4512   -0.4414    0.0000 H   0  0  0  0  0  0  0  0  0  0  0  0
   -2.5983   -1.4992    0.0000 O   0  0  0  0  0  0  0  0  0  0  0  0
   -3.8972   -0.7490    0.0000 H   0  0  0  0  0  0  0  0  0  0  0  0
   -5.1962   -6.0000    0.0000 N   0  0  0  0  0  0  0  0  0  0  0  0
   -5.1962   -7.5000    0.0000 O   0  0  0  0  0  0  0  0  0  0  0  0
   -6.4952   -5.2500    0.0000 O   0  0  0  0  0  0  0  0  0  0  0  0
  1  2  1  0  0  0  0 
  1  3  2  0  0  0  0 
  3  4  1  0  0  0  0 
  4  5  1  0  0  0  0 
  4  6  2  0  0  0  0 
  6  7  1  0  0  0  0 
  7  8  2  0  0  0  0 
  1  8  1  0  0  0  0 
  8  9  1  0  0  0  0 
  7 10  1  0  0  0  0 
 10 11  1  6  0  0  0 
 10 12  1  0  0  0  0 
 12 13  1  1  0  0  0 
 12 14  1  0  0  0  0 
 14 15  1  0  0  0  0 
 14 16  1  0  0  0  0 
 14 17  1  0  0  0  0 
 17 18  1  0  0  0  0 
 18 19  2  0  0  0  0 
 18 20  1  0  0  0  0 
 20 21  1  0  0  0  0 
 20 22  1  0  0  0  0 
 20 23  1  0  0  0  0 
 23 24  1  0  0  0  0 
 23 25  1  0  0  0  0 
 23 26  1  0  0  0  0 
 26 27  2  0  0  0  0 
 26 28  1  0  0  0  0 
 28 29  1  0  0  0  0 
 12 30  1  6  0  0  0 
 30 31  1  0  0  0  0 
 30 32  1  0  0  0  0 
 32 33  2  0  0  0  0 
 32 34  1  0  0  0  0 
 34 35  1  0  0  0  0 
 34 36  1  0  0  0  0 
 34 37  1  0  0  0  0 
 10 38  1  1  0  0  0 
 38 39  1  0  0  0  0 
  6 40  1  0  0  0  0 
 40 41  1  0  0  0  0 
  3 42  1  0  0  0  0 
 42 43  2  0  0  0  0 
 42 44  1  0  0  0  0 
M  CHG  1  42   1
M  CHG  1  44  -1
M  END
> <Rank>
32

> <Priority_score>
0.024

> <Reaction_type>
aromatic hydroxylation

> <Parent_ID>
78

> <Parent_InChI>
InChI=1S/C15H16Cl2N2O8/c16-14(17)15(24)18-10(7-27-12(22)6-5-11(20)21)13(23)8-1-3-9(4-2-8)19(25)26/h1-4,10,13-14,23H,5-7H2,(H,18,24)(H,20,21)

> <Parent_SMILES>
O=C(O)CCC(=O)OC[C@@H](NC(=O)C(Cl)Cl)[C@H](O)c1ccc([N+](=O)[O-])cc1

$$$$
Molecule 78_metabolite 33
  CDK     0516241031

 41 41  0  0  0  0  0  0  0  0999 V2000
   -6.7031   -0.6277    0.0000 C   0  0  0  0  0  0  0  0  0  0  0  0
   -8.0021   -1.3777    0.0000 H   0  0  0  0  0  0  0  0  0  0  0  0
   -5.4036   -1.3785    0.0000 C   0  0  0  0  0  0  0  0  0  0  0  0
   -4.1045   -0.6285    0.0000 C   0  0  0  0  0  0  0  0  0  0  0  0
   -2.8054   -1.3783    0.0000 H   0  0  0  0  0  0  0  0  0  0  0  0
   -4.1050    0.8723    0.0000 C   0  0  0  0  0  0  0  0  0  0  0  0
   -2.8060    1.6223    0.0000 H   0  0  0  0  0  0  0  0  0  0  0  0
   -5.4045    1.6231    0.0000 C   0  0  0  0  0  0  0  0  0  0  0  0
   -6.7036    0.8731    0.0000 C   0  0  0  0  0  0  0  0  0  0  0  0
   -8.0027    1.6229    0.0000 H   0  0  0  0  0  0  0  0  0  0  0  0
   -5.4043    3.1231    0.0000 N   0  0  0  0  0  0  0  0  0  0  0  0
   -6.7032    3.8733    0.0000 O   0  0  0  0  0  0  0  0  0  0  0  0
   -4.1051    3.8729    0.0000 O   0  0  0  0  0  0  0  0  0  0  0  0
   -5.4038   -2.8785    0.0000 C   0  0  2  0  0  0  0  0  0  0  0  0
   -6.8810   -2.6178    0.0000 H   0  0  0  0  0  0  0  0  0  0  0  0
   -3.2736   -4.1089    0.0000 C   0  0  0  0  0  0  0  0  0  0  0  0
   -1.9744   -3.3591    0.0000 C   0  0  0  0  0  0  0  0  0  0  0  0
   -1.9742   -1.8591    0.0000 H   0  0  0  0  0  0  0  0  0  0  0  0
   -0.6755   -4.1093    0.0000 O   0  0  0  0  0  0  0  0  0  0  0  0
    0.6237   -3.3595    0.0000 C   0  0  0  0  0  0  0  0  0  0  0  0
    0.6239   -1.8595    0.0000 O   0  0  0  0  0  0  0  0  0  0  0  0
    1.9226   -4.1097    0.0000 C   0  0  0  0  0  0  0  0  0  0  0  0
    2.8866   -5.2589    0.0000 H   0  0  0  0  0  0  0  0  0  0  0  0
    0.9582   -5.2586    0.0000 H   0  0  0  0  0  0  0  0  0  0  0  0
    3.2217   -3.3599    0.0000 C   0  0  0  0  0  0  0  0  0  0  0  0
    2.2577   -2.2107    0.0000 H   0  0  0  0  0  0  0  0  0  0  0  0
    4.1861   -2.2110    0.0000 H   0  0  0  0  0  0  0  0  0  0  0  0
    4.5207   -4.1101    0.0000 C   0  0  0  0  0  0  0  0  0  0  0  0
    4.5204   -5.6101    0.0000 O   0  0  0  0  0  0  0  0  0  0  0  0
    5.8198   -3.3603    0.0000 O   0  0  0  0  0  0  0  0  0  0  0  0
    7.1187   -4.1106    0.0000 H   0  0  0  0  0  0  0  0  0  0  0  0
   -3.2738   -5.6089    0.0000 N   0  0  0  0  0  0  0  0  0  0  0  0
   -1.9749   -6.3591    0.0000 H   0  0  0  0  0  0  0  0  0  0  0  0
   -4.5730   -6.3587    0.0000 C   0  0  0  0  0  0  0  0  0  0  0  0
   -5.8719   -5.6085    0.0000 O   0  0  0  0  0  0  0  0  0  0  0  0
   -4.5732   -7.8587    0.0000 C   0  0  0  0  0  0  0  0  0  0  0  0
   -5.8724   -8.6085    0.0000 H   0  0  0  0  0  0  0  0  0  0  0  0
   -3.0960   -7.5984    0.0000 Cl  0  0  0  0  0  0  0  0  0  0  0  0
   -4.0604   -9.2683    0.0000 Cl  0  0  0  0  0  0  0  0  0  0  0  0
   -5.9171   -4.2880    0.0000 O   0  0  0  0  0  0  0  0  0  0  0  0
   -7.3943   -4.5482    0.0000 H   0  0  0  0  0  0  0  0  0  0  0  0
  1  2  1  0  0  0  0 
  1  3  2  0  0  0  0 
  3  4  1  0  0  0  0 
  4  5  1  0  0  0  0 
  4  6  2  0  0  0  0 
  6  7  1  0  0  0  0 
  6  8  1  0  0  0  0 
  8  9  2  0  0  0  0 
  1  9  1  0  0  0  0 
  9 10  1  0  0  0  0 
  8 11  1  0  0  0  0 
 11 12  2  0  0  0  0 
 11 13  1  0  0  0  0 
  3 14  1  0  0  0  0 
 14 15  1  1  0  0  0 
 14 16  1  0  0  0  0 
 16 17  2  0  0  0  0 
 17 18  1  4  0  0  0 
 17 19  1  0  0  0  0 
 19 20  1  0  0  0  0 
 20 21  2  0  0  0  0 
 20 22  1  0  0  0  0 
 22 23  1  0  0  0  0 
 22 24  1  0  0  0  0 
 22 25  1  0  0  0  0 
 25 26  1  0  0  0  0 
 25 27  1  0  0  0  0 
 25 28  1  0  0  0  0 
 28 29  2  0  0  0  0 
 28 30  1  0  0  0  0 
 30 31  1  0  0  0  0 
 16 32  1  0  0  0  0 
 32 33  1  0  0  0  0 
 32 34  1  0  0  0  0 
 34 35  2  0  0  0  0 
 34 36  1  0  0  0  0 
 36 37  1  0  0  0  0 
 36 38  1  0  0  0  0 
 36 39  1  0  0  0  0 
 14 40  1  6  0  0  0 
 40 41  1  0  0  0  0 
M  CHG  1  11   1
M  CHG  1  13  -1
M  END
> <Rank>
33

> <Priority_score>
0.020768161718256475

> <Reaction_type>
alkyl dehydrogenation

> <Parent_ID>
78

> <Parent_InChI>
InChI=1S/C15H16Cl2N2O8/c16-14(17)15(24)18-10(7-27-12(22)6-5-11(20)21)13(23)8-1-3-9(4-2-8)19(25)26/h1-4,10,13-14,23H,5-7H2,(H,18,24)(H,20,21)

> <Parent_SMILES>
O=C(O)CCC(=O)OC[C@@H](NC(=O)C(Cl)Cl)[C@H](O)c1ccc([N+](=O)[O-])cc1

$$$$
Molecule 78_metabolite 34
  CDK     0516241031

 41 41  0  0  0  0  0  0  0  0999 V2000
    0.0000    1.5000    0.0000 C   0  0  0  0  0  0  0  0  0  0  0  0
    0.0000    3.0000    0.0000 H   0  0  0  0  0  0  0  0  0  0  0  0
   -1.3000    0.7500    0.0000 C   0  0  0  0  0  0  0  0  0  0  0  0
   -1.3000   -0.7500    0.0000 C   0  0  0  0  0  0  0  0  0  0  0  0
   -2.5989   -1.5002    0.0000 H   0  0  0  0  0  0  0  0  0  0  0  0
    0.0000   -1.5000    0.0000 C   0  0  0  0  0  0  0  0  0  0  0  0
   -0.0000   -3.0000    0.0000 H   0  0  0  0  0  0  0  0  0  0  0  0
    1.3000   -0.7500    0.0000 C   0  0  0  0  0  0  0  0  0  0  0  0
    1.3000    0.7500    0.0000 C   0  0  0  0  0  0  0  0  0  0  0  0
    2.5989    1.5002    0.0000 H   0  0  0  0  0  0  0  0  0  0  0  0
    2.5989   -1.5002    0.0000 N   0  0  0  0  0  0  0  0  0  0  0  0
    3.8981   -0.7504    0.0000 O   0  0  0  0  0  0  0  0  0  0  0  0
    2.5987   -3.0002    0.0000 O   0  0  0  0  0  0  0  0  0  0  0  0
   -2.5989    1.5002    0.0000 C   0  0  0  0  0  0  0  0  0  0  0  0
   -4.7295    0.2705    0.0000 C   0  0  0  0  0  0  0  0  0  0  0  0
   -6.0285    1.0208    0.0000 C   0  0  0  0  0  0  0  0  0  0  0  0
   -5.0641    2.1697    0.0000 H   0  0  0  0  0  0  0  0  0  0  0  0
   -6.9925    2.1700    0.0000 H   0  0  0  0  0  0  0  0  0  0  0  0
   -7.3276    0.2710    0.0000 O   0  0  0  0  0  0  0  0  0  0  0  0
   -8.6265    1.0212    0.0000 C   0  0  0  0  0  0  0  0  0  0  0  0
   -8.6263    2.5212    0.0000 O   0  0  0  0  0  0  0  0  0  0  0  0
   -9.9257    0.2714    0.0000 C   0  0  0  0  0  0  0  0  0  0  0  0
  -10.8901   -0.8775    0.0000 H   0  0  0  0  0  0  0  0  0  0  0  0
   -8.9617   -0.8778    0.0000 H   0  0  0  0  0  0  0  0  0  0  0  0
  -11.2246    1.0216    0.0000 C   0  0  0  0  0  0  0  0  0  0  0  0
  -10.2602    2.1705    0.0000 H   0  0  0  0  0  0  0  0  0  0  0  0
  -12.1886    2.1708    0.0000 H   0  0  0  0  0  0  0  0  0  0  0  0
  -12.5238    0.2718    0.0000 C   0  0  0  0  0  0  0  0  0  0  0  0
  -12.5240   -1.2282    0.0000 O   0  0  0  0  0  0  0  0  0  0  0  0
  -13.8227    1.0220    0.0000 O   0  0  0  0  0  0  0  0  0  0  0  0
  -15.1218    0.2722    0.0000 H   0  0  0  0  0  0  0  0  0  0  0  0
   -4.7298   -1.2295    0.0000 N   0  0  0  0  0  0  0  0  0  0  0  0
   -3.4309   -1.9797    0.0000 H   0  0  0  0  0  0  0  0  0  0  0  0
   -6.0289   -1.9792    0.0000 C   0  0  0  0  0  0  0  0  0  0  0  0
   -7.3279   -1.2290    0.0000 O   0  0  0  0  0  0  0  0  0  0  0  0
   -6.0292   -3.4792    0.0000 C   0  0  0  0  0  0  0  0  0  0  0  0
   -7.3283   -4.2290    0.0000 H   0  0  0  0  0  0  0  0  0  0  0  0
   -4.5519   -3.2190    0.0000 Cl  0  0  0  0  0  0  0  0  0  0  0  0
   -5.5164   -4.8889    0.0000 Cl  0  0  0  0  0  0  0  0  0  0  0  0
   -2.5987    3.0002    0.0000 O   0  0  0  0  0  0  0  0  0  0  0  0
   -1.2995    3.7500    0.0000 H   0  0  0  0  0  0  0  0  0  0  0  0
  1  2  1  0  0  0  0 
  1  3  2  0  0  0  0 
  3  4  1  0  0  0  0 
  4  5  1  0  0  0  0 
  4  6  2  0  0  0  0 
  6  7  1  0  0  0  0 
  6  8  1  0  0  0  0 
  8  9  2  0  0  0  0 
  1  9  1  0  0  0  0 
  9 10  1  0  0  0  0 
  8 11  1  0  0  0  0 
 11 12  2  0  0  0  0 
 11 13  1  0  0  0  0 
  3 14  1  0  0  0  0 
 14 15  2  0  0  0  0 
 15 16  1  0  0  0  0 
 16 17  1  0  0  0  0 
 16 18  1  0  0  0  0 
 16 19  1  0  0  0  0 
 19 20  1  0  0  0  0 
 20 21  2  0  0  0  0 
 20 22  1  0  0  0  0 
 22 23  1  0  0  0  0 
 22 24  1  0  0  0  0 
 22 25  1  0  0  0  0 
 25 26  1  0  0  0  0 
 25 27  1  0  0  0  0 
 25 28  1  0  0  0  0 
 28 29  2  0  0  0  0 
 28 30  1  0  0  0  0 
 30 31  1  0  0  0  0 
 15 32  1  4  0  0  0 
 32 33  1  0  0  0  0 
 32 34  1  0  0  0  0 
 34 35  2  0  0  0  0 
 34 36  1  0  0  0  0 
 36 37  1  0  0  0  0 
 36 38  1  0  0  0  0 
 36 39  1  0  0  0  0 
 14 40  1  0  0  0  0 
 40 41  1  0  0  0  0 
M  CHG  1  11   1
M  CHG  1  13  -1
M  END
> <Rank>
34

> <Priority_score>
0.019200000000000002

> <Reaction_type>
alkyl dehydrogenation

> <Parent_ID>
78

> <Parent_InChI>
InChI=1S/C15H16Cl2N2O8/c16-14(17)15(24)18-10(7-27-12(22)6-5-11(20)21)13(23)8-1-3-9(4-2-8)19(25)26/h1-4,10,13-14,23H,5-7H2,(H,18,24)(H,20,21)

> <Parent_SMILES>
O=C(O)CCC(=O)OC[C@@H](NC(=O)C(Cl)Cl)[C@H](O)c1ccc([N+](=O)[O-])cc1

$$$$
Molecule 78_metabolite 35
  CDK     0516241031

 42 42  0  0  0  0  0  0  0  0999 V2000
   -7.0115   -1.6418    0.0000 C   0  0  0  0  0  0  0  0  0  0  0  0
   -8.3105   -2.3918    0.0000 H   0  0  0  0  0  0  0  0  0  0  0  0
   -5.7120   -2.3926    0.0000 C   0  0  0  0  0  0  0  0  0  0  0  0
   -4.4129   -1.6426    0.0000 C   0  0  0  0  0  0  0  0  0  0  0  0
   -3.1138   -2.3924    0.0000 H   0  0  0  0  0  0  0  0  0  0  0  0
   -4.4134   -0.1418    0.0000 C   0  0  0  0  0  0  0  0  0  0  0  0
   -3.1144    0.6082    0.0000 H   0  0  0  0  0  0  0  0  0  0  0  0
   -5.7129    0.6091    0.0000 C   0  0  0  0  0  0  0  0  0  0  0  0
   -7.0120   -0.1409    0.0000 C   0  0  0  0  0  0  0  0  0  0  0  0
   -8.3111    0.6089    0.0000 H   0  0  0  0  0  0  0  0  0  0  0  0
   -5.7127    2.1091    0.0000 N   0  0  0  0  0  0  0  0  0  0  0  0
   -7.0116    2.8593    0.0000 O   0  0  0  0  0  0  0  0  0  0  0  0
   -4.4135    2.8589    0.0000 O   0  0  0  0  0  0  0  0  0  0  0  0
   -5.7122   -3.8926    0.0000 C   0  0  2  0  0  0  0  0  0  0  0  0
   -7.1894   -3.6319    0.0000 H   0  0  0  0  0  0  0  0  0  0  0  0
   -4.4133   -4.6428    0.0000 C   0  0  0  0  0  0  0  0  0  0  0  0
   -4.4135   -6.1428    0.0000 N   0  0  0  0  0  0  0  0  0  0  0  0
   -5.7127   -6.8926    0.0000 H   0  0  0  0  0  0  0  0  0  0  0  0
   -3.1146   -6.8930    0.0000 C   0  0  0  0  0  0  0  0  0  0  0  0
   -1.8155   -6.1432    0.0000 O   0  0  0  0  0  0  0  0  0  0  0  0
   -3.1149   -8.3930    0.0000 C   0  0  0  0  0  0  0  0  0  0  0  0
   -1.8159   -9.1432    0.0000 H   0  0  0  0  0  0  0  0  0  0  0  0
   -3.6281   -9.8025    0.0000 Cl  0  0  0  0  0  0  0  0  0  0  0  0
   -4.5920   -8.1323    0.0000 Cl  0  0  0  0  0  0  0  0  0  0  0  0
   -3.1141   -3.8930    0.0000 C   0  0  0  0  0  0  0  0  0  0  0  0
   -4.0781   -2.7438    0.0000 H   0  0  0  0  0  0  0  0  0  0  0  0
   -2.1498   -2.7441    0.0000 H   0  0  0  0  0  0  0  0  0  0  0  0
   -1.8152   -4.6432    0.0000 O   0  0  0  0  0  0  0  0  0  0  0  0
   -0.5161   -3.8934    0.0000 C   0  0  0  0  0  0  0  0  0  0  0  0
   -0.5158   -2.3934    0.0000 O   0  0  0  0  0  0  0  0  0  0  0  0
    0.7829   -4.6436    0.0000 C   0  0  0  0  0  0  0  0  0  0  0  0
    1.7468   -5.7929    0.0000 H   0  0  0  0  0  0  0  0  0  0  0  0
   -0.1815   -5.7926    0.0000 H   0  0  0  0  0  0  0  0  0  0  0  0
    2.0820   -3.8939    0.0000 C   0  0  0  0  0  0  0  0  0  0  0  0
    1.1180   -2.7446    0.0000 H   0  0  0  0  0  0  0  0  0  0  0  0
    3.0464   -2.7449    0.0000 H   0  0  0  0  0  0  0  0  0  0  0  0
    3.3809   -4.6441    0.0000 C   0  0  0  0  0  0  0  0  0  0  0  0
    3.3807   -6.1441    0.0000 O   0  0  0  0  0  0  0  0  0  0  0  0
    4.6801   -3.8943    0.0000 O   0  0  0  0  0  0  0  0  0  0  0  0
    5.9790   -4.6445    0.0000 H   0  0  0  0  0  0  0  0  0  0  0  0
   -6.2255   -5.3021    0.0000 O   0  0  0  0  0  0  0  0  0  0  0  0
   -7.7027   -5.5623    0.0000 H   0  0  0  0  0  0  0  0  0  0  0  0
  1  2  1  0  0  0  0 
  1  3  2  0  0  0  0 
  3  4  1  0  0  0  0 
  4  5  1  0  0  0  0 
  4  6  2  0  0  0  0 
  6  7  1  0  0  0  0 
  6  8  1  0  0  0  0 
  8  9  2  0  0  0  0 
  1  9  1  0  0  0  0 
  9 10  1  0  0  0  0 
  8 11  1  0  0  0  0 
 11 12  2  0  0  0  0 
 11 13  1  0  0  0  0 
  3 14  1  0  0  0  0 
 14 15  1  1  0  0  0 
 14 16  1  0  0  0  0 
 16 17  2  0  0  0  0 
 17 18  1  4  0  0  0 
 17 19  1  0  0  0  0 
 19 20  2  0  0  0  0 
 19 21  1  0  0  0  0 
 21 22  1  0  0  0  0 
 21 23  1  0  0  0  0 
 21 24  1  0  0  0  0 
 16 25  1  0  0  0  0 
 25 26  1  0  0  0  0 
 25 27  1  0  0  0  0 
 25 28  1  0  0  0  0 
 28 29  1  0  0  0  0 
 29 30  2  0  0  0  0 
 29 31  1  0  0  0  0 
 31 32  1  0  0  0  0 
 31 33  1  0  0  0  0 
 31 34  1  0  0  0  0 
 34 35  1  0  0  0  0 
 34 36  1  0  0  0  0 
 34 37  1  0  0  0  0 
 37 38  2  0  0  0  0 
 37 39  1  0  0  0  0 
 39 40  1  0  0  0  0 
 14 41  1  6  0  0  0 
 41 42  1  0  0  0  0 
M  CHG  1  11   1
M  CHG  1  13  -1
M  CHG  1  17   1
M  END
> <Rank>
35

> <Priority_score>
0.0072

> <Reaction_type>
dehydration of N-C bond

> <Parent_ID>
78

> <Parent_InChI>
InChI=1S/C15H16Cl2N2O8/c16-14(17)15(24)18-10(7-27-12(22)6-5-11(20)21)13(23)8-1-3-9(4-2-8)19(25)26/h1-4,10,13-14,23H,5-7H2,(H,18,24)(H,20,21)

> <Parent_SMILES>
O=C(O)CCC(=O)OC[C@@H](NC(=O)C(Cl)Cl)[C@H](O)c1ccc([N+](=O)[O-])cc1

$$$$
Molecule 78_metabolite 36
  CDK     0516241031

 41 41  0  0  0  0  0  0  0  0999 V2000
    0.2256    3.0003    0.0000 C   0  0  0  0  0  0  0  0  0  0  0  0
   -0.5244    4.2993    0.0000 H   0  0  0  0  0  0  0  0  0  0  0  0
   -0.5252    1.7007    0.0000 C   0  0  0  0  0  0  0  0  0  0  0  0
    0.2248    0.4017    0.0000 C   0  0  0  0  0  0  0  0  0  0  0  0
   -0.5250   -0.8975    0.0000 H   0  0  0  0  0  0  0  0  0  0  0  0
    1.7256    0.4022    0.0000 C   0  0  0  0  0  0  0  0  0  0  0  0
    2.4756   -0.8969    0.0000 H   0  0  0  0  0  0  0  0  0  0  0  0
    2.4764    1.7017    0.0000 C   0  0  0  0  0  0  0  0  0  0  0  0
    1.7264    3.0007    0.0000 C   0  0  0  0  0  0  0  0  0  0  0  0
    2.4762    4.2999    0.0000 H   0  0  0  0  0  0  0  0  0  0  0  0
    3.9764    1.7015    0.0000 N   0  0  0  0  0  0  0  0  0  0  0  0
    4.7267    3.0004    0.0000 O   0  0  0  0  0  0  0  0  0  0  0  0
    4.7262    0.4023    0.0000 O   0  0  0  0  0  0  0  0  0  0  0  0
   -2.0252    1.7010    0.0000 C   0  0  2  0  0  0  0  0  0  0  0  0
   -1.7645    3.1782    0.0000 H   0  0  0  0  0  0  0  0  0  0  0  0
   -2.7754    0.4021    0.0000 C   0  0  0  0  0  0  0  0  0  0  0  0
   -2.0256   -0.8971    0.0000 N   0  0  0  0  0  0  0  0  0  0  0  0
   -2.7758   -2.1960    0.0000 C   0  0  0  0  0  0  0  0  0  0  0  0
   -4.2758   -2.1958    0.0000 O   0  0  0  0  0  0  0  0  0  0  0  0
   -2.0261   -3.4952    0.0000 C   0  0  0  0  0  0  0  0  0  0  0  0
   -2.7763   -4.7941    0.0000 H   0  0  0  0  0  0  0  0  0  0  0  0
   -0.8771   -4.4595    0.0000 Cl  0  0  0  0  0  0  0  0  0  0  0  0
   -0.8768   -2.5312    0.0000 Cl  0  0  0  0  0  0  0  0  0  0  0  0
   -4.2754    0.4023    0.0000 C   0  0  0  0  0  0  0  0  0  0  0  0
   -4.0152   -1.0749    0.0000 H   0  0  0  0  0  0  0  0  0  0  0  0
   -5.6851   -0.1105    0.0000 H   0  0  0  0  0  0  0  0  0  0  0  0
   -5.0252    1.7015    0.0000 O   0  0  0  0  0  0  0  0  0  0  0  0
   -6.5252    1.7017    0.0000 C   0  0  0  0  0  0  0  0  0  0  0  0
   -7.2754    0.4028    0.0000 O   0  0  0  0  0  0  0  0  0  0  0  0
   -7.2750    3.0009    0.0000 C   0  0  0  0  0  0  0  0  0  0  0  0
   -7.5352    4.4781    0.0000 H   0  0  0  0  0  0  0  0  0  0  0  0
   -5.8654    3.5137    0.0000 H   0  0  0  0  0  0  0  0  0  0  0  0
   -8.7750    3.0011    0.0000 C   0  0  0  0  0  0  0  0  0  0  0  0
   -8.5148    1.5238    0.0000 H   0  0  0  0  0  0  0  0  0  0  0  0
  -10.1846    2.4883    0.0000 H   0  0  0  0  0  0  0  0  0  0  0  0
   -9.5248    4.3003    0.0000 C   0  0  0  0  0  0  0  0  0  0  0  0
   -8.7746    5.5992    0.0000 O   0  0  0  0  0  0  0  0  0  0  0  0
  -11.0248    4.3005    0.0000 O   0  0  0  0  0  0  0  0  0  0  0  0
  -11.7746    5.5997    0.0000 H   0  0  0  0  0  0  0  0  0  0  0  0
   -3.4347    2.2142    0.0000 O   0  0  0  0  0  0  0  0  0  0  0  0
   -3.6949    3.6915    0.0000 H   0  0  0  0  0  0  0  0  0  0  0  0
  1  2  1  0  0  0  0 
  1  3  2  0  0  0  0 
  3  4  1  0  0  0  0 
  4  5  1  0  0  0  0 
  4  6  2  0  0  0  0 
  6  7  1  0  0  0  0 
  6  8  1  0  0  0  0 
  8  9  2  0  0  0  0 
  1  9  1  0  0  0  0 
  9 10  1  0  0  0  0 
  8 11  1  0  0  0  0 
 11 12  2  0  0  0  0 
 11 13  1  0  0  0  0 
  3 14  1  0  0  0  0 
 14 15  1  1  0  0  0 
 14 16  1  0  0  0  0 
 16 17  2  0  0  0  0 
 17 18  1  4  0  0  0 
 18 19  2  0  0  0  0 
 18 20  1  0  0  0  0 
 20 21  1  0  0  0  0 
 20 22  1  0  0  0  0 
 20 23  1  0  0  0  0 
 16 24  1  0  0  0  0 
 24 25  1  0  0  0  0 
 24 26  1  0  0  0  0 
 24 27  1  0  0  0  0 
 27 28  1  0  0  0  0 
 28 29  2  0  0  0  0 
 28 30  1  0  0  0  0 
 30 31  1  0  0  0  0 
 30 32  1  0  0  0  0 
 30 33  1  0  0  0  0 
 33 34  1  0  0  0  0 
 33 35  1  0  0  0  0 
 33 36  1  0  0  0  0 
 36 37  2  0  0  0  0 
 36 38  1  0  0  0  0 
 38 39  1  0  0  0  0 
 14 40  1  6  0  0  0 
 40 41  1  0  0  0  0 
M  CHG  1  11   1
M  CHG  1  13  -1
M  END
> <Rank>
35

> <Priority_score>
0.0072

> <Reaction_type>
dehydration of N-C bond

> <Parent_ID>
78

> <Parent_InChI>
InChI=1S/C15H16Cl2N2O8/c16-14(17)15(24)18-10(7-27-12(22)6-5-11(20)21)13(23)8-1-3-9(4-2-8)19(25)26/h1-4,10,13-14,23H,5-7H2,(H,18,24)(H,20,21)

> <Parent_SMILES>
O=C(O)CCC(=O)OC[C@@H](NC(=O)C(Cl)Cl)[C@H](O)c1ccc([N+](=O)[O-])cc1

$$$$
Molecule 79
  CDK     0516241031

 62 69  0  0  0  0  0  0  0  0999 V2000
    3.9000    0.7500    0.0000 C   0  0  0  0  0  0  0  0  0  0  0  0
    3.9000   -0.7500    0.0000 C   0  0  0  0  0  0  0  0  0  0  0  0
    2.6000   -1.5000    0.0000 C   0  0  0  0  0  0  0  0  0  0  0  0
    1.3000   -0.7500    0.0000 C   0  0  0  0  0  0  0  0  0  0  0  0
    1.3000    0.7500    0.0000 C   0  0  0  0  0  0  0  0  0  0  0  0
    2.6000    1.5000    0.0000 C   0  0  0  0  0  0  0  0  0  0  0  0
    0.0000    1.5000    0.0000 C   0  0  0  0  0  0  0  0  0  0  0  0
   -1.3000    0.7500    0.0000 C   0  0  0  0  0  0  0  0  0  0  0  0
   -2.6000    1.5000    0.0000 C   0  0  0  0  0  0  0  0  0  0  0  0
   -3.9000    0.7500    0.0000 C   0  0  0  0  0  0  0  0  0  0  0  0
   -3.9000   -0.7500    0.0000 C   0  0  0  0  0  0  0  0  0  0  0  0
   -2.6000   -1.5000    0.0000 C   0  0  0  0  0  0  0  0  0  0  0  0
   -1.3000   -0.7500    0.0000 C   0  0  0  0  0  0  0  0  0  0  0  0
   -0.0000   -1.5000    0.0000 C   0  0  0  0  0  0  0  0  0  0  0  0
   -0.0000   -3.0000    0.0000 O   0  0  0  0  0  0  0  0  0  0  0  0
   -2.6000   -3.0000    0.0000 O   0  0  0  0  0  0  0  0  0  0  0  0
   -5.1989    1.5002    0.0000 C   0  0  0  0  0  0  0  0  0  0  0  0
   -5.1987    3.0002    0.0000 O   0  0  0  0  0  0  0  0  0  0  0  0
   -6.4981    0.7504    0.0000 O   0  0  0  0  0  0  0  0  0  0  0  0
    0.0000    3.0000    0.0000 C   0  0  0  0  0  0  0  0  0  0  0  0
   -1.3000    3.7500    0.0000 C   0  0  0  0  0  0  0  0  0  0  0  0
   -2.6000    3.0000    0.0000 C   0  0  0  0  0  0  0  0  0  0  0  0
   -3.9000    3.7500    0.0000 C   0  0  0  0  0  0  0  0  0  0  0  0
   -3.9000    5.2500    0.0000 C   0  0  0  0  0  0  0  0  0  0  0  0
   -2.6000    6.0000    0.0000 C   0  0  0  0  0  0  0  0  0  0  0  0
   -1.3000    5.2500    0.0000 C   0  0  0  0  0  0  0  0  0  0  0  0
   -0.0000    6.0000    0.0000 C   0  0  0  0  0  0  0  0  0  0  0  0
    0.0000    7.5000    0.0000 O   0  0  0  0  0  0  0  0  0  0  0  0
    1.3000    5.2500    0.0000 C   0  0  0  0  0  0  0  0  0  0  0  0
    2.6000    6.0000    0.0000 C   0  0  0  0  0  0  0  0  0  0  0  0
    3.9000    5.2500    0.0000 C   0  0  0  0  0  0  0  0  0  0  0  0
    3.9000    3.7500    0.0000 C   0  0  0  0  0  0  0  0  0  0  0  0
    2.6000    3.0000    0.0000 C   0  0  0  0  0  0  0  0  0  0  0  0
    1.3000    3.7500    0.0000 C   0  0  0  0  0  0  0  0  0  0  0  0
    5.1989    2.9998    0.0000 C   0  0  0  0  0  0  0  0  0  0  0  0
    5.1987    1.4998    0.0000 O   0  0  0  0  0  0  0  0  0  0  0  0
    6.4981    3.7496    0.0000 O   0  0  0  0  0  0  0  0  0  0  0  0
    2.6000    7.5000    0.0000 O   0  0  0  0  0  0  0  0  0  0  0  0
   -2.6000    7.5000    0.0000 O   0  0  0  0  0  0  0  0  0  0  0  0
   -3.8990    8.2500    0.0000 C   0  0  0  0  0  0  0  0  0  0  0  0
   -5.1920    7.5095    0.0000 C   0  0  0  0  0  0  0  0  0  0  0  0
   -6.5075    8.2772    0.0000 C   0  0  0  0  0  0  0  0  0  0  0  0
   -6.4941    9.7830    0.0000 C   0  0  0  0  0  0  0  0  0  0  0  0
   -5.2012   10.5235    0.0000 C   0  0  0  0  0  0  0  0  0  0  0  0
   -5.1958   12.0235    0.0000 C   0  0  0  0  0  0  0  0  0  0  0  0
   -6.4921   12.7782    0.0000 O   0  0  0  0  0  0  0  0  0  0  0  0
   -3.9043    9.7682    0.0000 O   0  0  0  0  0  0  0  0  0  0  0  0
   -7.7885   10.5410    0.0000 O   0  0  0  0  0  0  0  0  0  0  0  0
   -7.8116    7.5360    0.0000 O   0  0  0  0  0  0  0  0  0  0  0  0
   -5.1981    6.0095    0.0000 O   0  0  0  0  0  0  0  0  0  0  0  0
    2.6000   -3.0000    0.0000 O   0  0  0  0  0  0  0  0  0  0  0  0
    3.8990   -3.7500    0.0000 C   0  0  0  0  0  0  0  0  0  0  0  0
    5.1920   -3.0095    0.0000 C   0  0  0  0  0  0  0  0  0  0  0  0
    6.5075   -3.7772    0.0000 C   0  0  0  0  0  0  0  0  0  0  0  0
    6.4941   -5.2830    0.0000 C   0  0  0  0  0  0  0  0  0  0  0  0
    5.2012   -6.0235    0.0000 C   0  0  0  0  0  0  0  0  0  0  0  0
    5.1958   -7.5235    0.0000 C   0  0  0  0  0  0  0  0  0  0  0  0
    6.4921   -8.2782    0.0000 O   0  0  0  0  0  0  0  0  0  0  0  0
    3.9043   -5.2682    0.0000 O   0  0  0  0  0  0  0  0  0  0  0  0
    7.7885   -6.0410    0.0000 O   0  0  0  0  0  0  0  0  0  0  0  0
    7.8116   -3.0360    0.0000 O   0  0  0  0  0  0  0  0  0  0  0  0
    5.1981   -1.5095    0.0000 O   0  0  0  0  0  0  0  0  0  0  0  0
  1  2  2  0  0  0  0 
  2  3  1  0  0  0  0 
  3  4  2  0  0  0  0 
  4  5  1  0  0  0  0 
  5  6  2  0  0  0  0 
  1  6  1  0  0  0  0 
  5  7  1  0  0  0  0 
  7  8  1  0  0  0  0 
  8  9  2  0  0  0  0 
  9 10  1  0  0  0  0 
 10 11  2  0  0  0  0 
 11 12  1  0  0  0  0 
 12 13  2  0  0  0  0 
  8 13  1  0  0  0  0 
 13 14  1  0  0  0  0 
  4 14  1  0  0  0  0 
 14 15  2  0  0  0  0 
 12 16  1  0  0  0  0 
 10 17  1  0  0  0  0 
 17 18  2  0  0  0  0 
 17 19  1  0  0  0  0 
  7 20  1  0  0  0  0 
 20 21  1  0  0  0  0 
 21 22  2  0  0  0  0 
 22 23  1  0  0  0  0 
 23 24  2  0  0  0  0 
 24 25  1  0  0  0  0 
 25 26  2  0  0  0  0 
 21 26  1  0  0  0  0 
 26 27  1  0  0  0  0 
 27 28  2  0  0  0  0 
 27 29  1  0  0  0  0 
 29 30  2  0  0  0  0 
 30 31  1  0  0  0  0 
 31 32  2  0  0  0  0 
 32 33  1  0  0  0  0 
 33 34  2  0  0  0  0 
 20 34  1  0  0  0  0 
 29 34  1  0  0  0  0 
 32 35  1  0  0  0  0 
 35 36  2  0  0  0  0 
 35 37  1  0  0  0  0 
 30 38  1  0  0  0  0 
 25 39  1  0  0  0  0 
 39 40  1  0  0  0  0 
 40 41  1  0  0  0  0 
 41 42  1  0  0  0  0 
 42 43  1  0  0  0  0 
 43 44  1  0  0  0  0 
 44 45  1  0  0  0  0 
 45 46  1  0  0  0  0 
 44 47  1  0  0  0  0 
 40 47  1  0  0  0  0 
 43 48  1  0  0  0  0 
 42 49  1  0  0  0  0 
 41 50  1  0  0  0  0 
  3 51  1  0  0  0  0 
 51 52  1  0  0  0  0 
 52 53  1  0  0  0  0 
 53 54  1  0  0  0  0 
 54 55  1  0  0  0  0 
 55 56  1  0  0  0  0 
 56 57  1  0  0  0  0 
 57 58  1  0  0  0  0 
 56 59  1  0  0  0  0 
 52 59  1  0  0  0  0 
 55 60  1  0  0  0  0 
 54 61  1  0  0  0  0 
 53 62  1  0  0  0  0 
M  END
> <SMILES>
O=C(O)c1cc(O)c2c(c1)C(C1c3cc(C(=O)O)cc(O)c3C(=O)c3c(OC4OC(CO)C(O)C(O)C4O)cccc31)c1cccc(OC3OC(CO)C(O)C(O)C3O)c1C2=O

$$$$
Molecule 79_metabolite 1
  CDK     0516241031

120128  0  0  0  0  0  0  0  0999 V2000
  -11.0172    4.0111    0.0000 C   0  0  0  0  0  0  0  0  0  0  0  0
  -10.5042    5.4207    0.0000 H   0  0  0  0  0  0  0  0  0  0  0  0
  -12.4943    3.7503    0.0000 C   0  0  0  0  0  0  0  0  0  0  0  0
  -13.4589    4.8990    0.0000 H   0  0  0  0  0  0  0  0  0  0  0  0
  -13.0069    2.3397    0.0000 C   0  0  0  0  0  0  0  0  0  0  0  0
  -12.0423    1.1899    0.0000 C   0  0  0  0  0  0  0  0  0  0  0  0
  -10.5651    1.4507    0.0000 C   0  0  0  0  0  0  0  0  0  0  0  0
  -10.0526    2.8613    0.0000 C   0  0  0  0  0  0  0  0  0  0  0  0
   -8.5754    3.1221    0.0000 H   0  0  0  0  0  0  0  0  0  0  0  0
   -9.6005    0.3009    0.0000 C   0  0  0  0  0  0  0  0  0  0  0  0
   -8.6365    1.4501    0.0000 H   0  0  0  0  0  0  0  0  0  0  0  0
  -10.1131   -1.1097    0.0000 C   0  0  0  0  0  0  0  0  0  0  0  0
   -9.1485   -2.2595    0.0000 C   0  0  0  0  0  0  0  0  0  0  0  0
   -7.6713   -1.9987    0.0000 H   0  0  0  0  0  0  0  0  0  0  0  0
   -9.6611   -3.6701    0.0000 C   0  0  0  0  0  0  0  0  0  0  0  0
  -11.1382   -3.9309    0.0000 C   0  0  0  0  0  0  0  0  0  0  0  0
  -11.6512   -5.3404    0.0000 H   0  0  0  0  0  0  0  0  0  0  0  0
  -12.1028   -2.7811    0.0000 C   0  0  0  0  0  0  0  0  0  0  0  0
  -11.5903   -1.3705    0.0000 C   0  0  0  0  0  0  0  0  0  0  0  0
  -12.5548   -0.2207    0.0000 C   0  0  0  0  0  0  0  0  0  0  0  0
  -14.0320   -0.4815    0.0000 O   0  0  0  0  0  0  0  0  0  0  0  0
  -13.5800   -3.0419    0.0000 O   0  0  0  0  0  0  0  0  0  0  0  0
  -14.0927   -4.4515    0.0000 H   0  0  0  0  0  0  0  0  0  0  0  0
   -8.6965   -4.8188    0.0000 C   0  0  0  0  0  0  0  0  0  0  0  0
   -9.2090   -6.2285    0.0000 O   0  0  0  0  0  0  0  0  0  0  0  0
   -7.2193   -4.5578    0.0000 O   0  0  0  0  0  0  0  0  0  0  0  0
   -6.2547   -5.7065    0.0000 H   0  0  0  0  0  0  0  0  0  0  0  0
   -7.4697   -0.9284    0.0000 C   0  0  0  0  0  0  0  0  0  0  0  0
   -8.4338   -2.0776    0.0000 H   0  0  0  0  0  0  0  0  0  0  0  0
   -6.9572    0.4822    0.0000 C   0  0  0  0  0  0  0  0  0  0  0  0
   -7.9217    1.6320    0.0000 C   0  0  0  0  0  0  0  0  0  0  0  0
   -9.3989    1.3712    0.0000 H   0  0  0  0  0  0  0  0  0  0  0  0
   -7.4092    3.0426    0.0000 C   0  0  0  0  0  0  0  0  0  0  0  0
   -8.3738    4.1913    0.0000 H   0  0  0  0  0  0  0  0  0  0  0  0
   -5.9320    3.3034    0.0000 C   0  0  0  0  0  0  0  0  0  0  0  0
   -5.4191    4.7129    0.0000 H   0  0  0  0  0  0  0  0  0  0  0  0
   -4.9674    2.1536    0.0000 C   0  0  0  0  0  0  0  0  0  0  0  0
   -5.4800    0.7430    0.0000 C   0  0  0  0  0  0  0  0  0  0  0  0
   -4.5154   -0.4068    0.0000 C   0  0  0  0  0  0  0  0  0  0  0  0
   -3.0382   -0.1460    0.0000 O   0  0  0  0  0  0  0  0  0  0  0  0
   -5.0280   -1.8174    0.0000 C   0  0  0  0  0  0  0  0  0  0  0  0
   -4.0634   -2.9672    0.0000 C   0  0  0  0  0  0  0  0  0  0  0  0
   -4.5759   -4.3778    0.0000 C   0  0  0  0  0  0  0  0  0  0  0  0
   -3.6113   -5.5265    0.0000 H   0  0  0  0  0  0  0  0  0  0  0  0
   -6.0531   -4.6386    0.0000 C   0  0  0  0  0  0  0  0  0  0  0  0
   -7.0177   -3.4888    0.0000 C   0  0  0  0  0  0  0  0  0  0  0  0
   -8.4948   -3.7496    0.0000 H   0  0  0  0  0  0  0  0  0  0  0  0
   -6.5051   -2.0782    0.0000 C   0  0  0  0  0  0  0  0  0  0  0  0
   -6.8943   -6.9503    0.0000 C   0  0  0  0  0  0  0  0  0  0  0  0
   -8.3715   -7.2109    0.0000 O   0  0  0  0  0  0  0  0  0  0  0  0
   -5.9301   -8.0993    0.0000 O   0  0  0  0  0  0  0  0  0  0  0  0
   -6.4430   -9.5089    0.0000 C   0  0  0  0  0  0  0  0  0  0  0  0
   -7.7438   -8.7620    0.0000 H   0  0  0  0  0  0  0  0  0  0  0  0
   -4.9763   -9.7709    0.0000 C   0  0  0  0  0  0  0  0  0  0  0  0
   -3.4983   -9.5149    0.0000 H   0  0  0  0  0  0  0  0  0  0  0  0
   -4.4603  -11.2040    0.0000 C   0  0  0  0  0  0  0  0  0  0  0  0
   -3.5033  -12.3591    0.0000 H   0  0  0  0  0  0  0  0  0  0  0  0
   -5.4370  -12.3501    0.0000 C   0  0  0  0  0  0  0  0  0  0  0  0
   -5.9558  -13.7575    0.0000 H   0  0  0  0  0  0  0  0  0  0  0  0
   -6.9038  -12.0881    0.0000 C   0  0  0  0  0  0  0  0  0  0  0  0
   -8.3817  -12.3449    0.0000 H   0  0  0  0  0  0  0  0  0  0  0  0
   -6.9107  -15.0280    0.0000 C   0  0  0  0  0  0  0  0  0  0  0  0
   -8.2115  -15.7750    0.0000 O   0  0  0  0  0  0  0  0  0  0  0  0
   -5.6135  -15.7811    0.0000 O   0  0  0  0  0  0  0  0  0  0  0  0
   -5.6170  -17.2811    0.0000 H   0  0  0  0  0  0  0  0  0  0  0  0
   -7.4135  -10.6764    0.0000 O   0  0  0  0  0  0  0  0  0  0  0  0
   -4.1424  -13.1077    0.0000 O   0  0  0  0  0  0  0  0  0  0  0  0
   -4.1512  -14.6077    0.0000 H   0  0  0  0  0  0  0  0  0  0  0  0
   -3.1576  -10.4603    0.0000 O   0  0  0  0  0  0  0  0  0  0  0  0
   -1.8622  -11.2166    0.0000 H   0  0  0  0  0  0  0  0  0  0  0  0
   -4.9723   -8.2709    0.0000 O   0  0  0  0  0  0  0  0  0  0  0  0
   -3.6713   -7.5244    0.0000 H   0  0  0  0  0  0  0  0  0  0  0  0
   -2.5862   -2.7064    0.0000 O   0  0  0  0  0  0  0  0  0  0  0  0
   -1.6218   -3.8553    0.0000 H   0  0  0  0  0  0  0  0  0  0  0  0
   -3.4903    2.4144    0.0000 O   0  0  0  0  0  0  0  0  0  0  0  0
   -2.9776    3.8240    0.0000 C   0  0  0  0  0  0  0  0  0  0  0  0
   -4.4542    4.0876    0.0000 H   0  0  0  0  0  0  0  0  0  0  0  0
   -1.6853    3.0823    0.0000 C   0  0  0  0  0  0  0  0  0  0  0  0
   -0.7173    1.9364    0.0000 H   0  0  0  0  0  0  0  0  0  0  0  0
   -0.3690    3.8487    0.0000 C   0  0  0  0  0  0  0  0  0  0  0  0
    1.1064    4.1188    0.0000 H   0  0  0  0  0  0  0  0  0  0  0  0
   -0.3810    5.3545    0.0000 C   0  0  0  0  0  0  0  0  0  0  0  0
    0.1259    6.7663    0.0000 H   0  0  0  0  0  0  0  0  0  0  0  0
   -1.6733    6.0963    0.0000 C   0  0  0  0  0  0  0  0  0  0  0  0
   -2.6406    7.2427    0.0000 H   0  0  0  0  0  0  0  0  0  0  0  0
    0.2106    8.3534    0.0000 C   0  0  0  0  0  0  0  0  0  0  0  0
    1.5077    9.1068    0.0000 H   0  0  0  0  0  0  0  0  0  0  0  0
    1.1778    7.2069    0.0000 H   0  0  0  0  0  0  0  0  0  0  0  0
   -0.3061    9.7616    0.0000 O   0  0  0  0  0  0  0  0  0  0  0  0
    0.6551   10.9132    0.0000 H   0  0  0  0  0  0  0  0  0  0  0  0
   -2.9709    5.3422    0.0000 O   0  0  0  0  0  0  0  0  0  0  0  0
    1.0978    5.1031    0.0000 O   0  0  0  0  0  0  0  0  0  0  0  0
    2.0549    6.2581    0.0000 H   0  0  0  0  0  0  0  0  0  0  0  0
    0.1512    2.4418    0.0000 O   0  0  0  0  0  0  0  0  0  0  0  0
    1.6297    2.1889    0.0000 H   0  0  0  0  0  0  0  0  0  0  0  0
   -2.6461    1.9304    0.0000 O   0  0  0  0  0  0  0  0  0  0  0  0
   -2.1290    0.5223    0.0000 H   0  0  0  0  0  0  0  0  0  0  0  0
  -14.4840    2.0789    0.0000 O   0  0  0  0  0  0  0  0  0  0  0  0
  -15.4485    3.2278    0.0000 C   0  0  0  0  0  0  0  0  0  0  0  0
  -14.1513    3.9811    0.0000 H   0  0  0  0  0  0  0  0  0  0  0  0
  -16.4086    2.0884    0.0000 C   0  0  0  0  0  0  0  0  0  0  0  0
  -16.9257    0.6804    0.0000 H   0  0  0  0  0  0  0  0  0  0  0  0
  -17.9077    2.3578    0.0000 C   0  0  0  0  0  0  0  0  0  0  0  0
  -19.3865    2.1064    0.0000 H   0  0  0  0  0  0  0  0  0  0  0  0
  -18.4121    3.7767    0.0000 C   0  0  0  0  0  0  0  0  0  0  0  0
  -19.3718    4.9295    0.0000 H   0  0  0  0  0  0  0  0  0  0  0  0
  -17.4520    4.9161    0.0000 C   0  0  0  0  0  0  0  0  0  0  0  0
  -16.9357    6.3245    0.0000 H   0  0  0  0  0  0  0  0  0  0  0  0
  -19.9949    6.3917    0.0000 C   0  0  0  0  0  0  0  0  0  0  0  0
  -21.4715    6.6554    0.0000 H   0  0  0  0  0  0  0  0  0  0  0  0
  -20.5110    4.9833    0.0000 H   0  0  0  0  0  0  0  0  0  0  0  0
  -19.9916    7.8917    0.0000 O   0  0  0  0  0  0  0  0  0  0  0  0
  -21.2890    8.6445    0.0000 H   0  0  0  0  0  0  0  0  0  0  0  0
  -15.9746    4.6519    0.0000 O   0  0  0  0  0  0  0  0  0  0  0  0
  -19.7154    3.0341    0.0000 O   0  0  0  0  0  0  0  0  0  0  0  0
  -21.0101    3.7915    0.0000 H   0  0  0  0  0  0  0  0  0  0  0  0
  -17.9148    0.8578    0.0000 O   0  0  0  0  0  0  0  0  0  0  0  0
  -19.2173    0.1139    0.0000 H   0  0  0  0  0  0  0  0  0  0  0  0
  -15.1114    1.3352    0.0000 O   0  0  0  0  0  0  0  0  0  0  0  0
  -15.1152   -0.1648    0.0000 H   0  0  0  0  0  0  0  0  0  0  0  0
  1  2  1  0  0  0  0 
  1  3  2  0  0  0  0 
  3  4  1  0  0  0  0 
  3  5  1  0  0  0  0 
  5  6  2  0  0  0  0 
  6  7  1  0  0  0  0 
  7  8  2  0  0  0  0 
  1  8  1  0  0  0  0 
  8  9  1  0  0  0  0 
  7 10  1  0  0  0  0 
 10 11  1  0  0  0  0 
 10 12  1  0  0  0  0 
 12 13  2  0  0  0  0 
 13 14  1  0  0  0  0 
 13 15  1  0  0  0  0 
 15 16  2  0  0  0  0 
 16 17  1  0  0  0  0 
 16 18  1  0  0  0  0 
 18 19  2  0  0  0  0 
 12 19  1  0  0  0  0 
 19 20  1  0  0  0  0 
  6 20  1  0  0  0  0 
 20 21  2  0  0  0  0 
 18 22  1  0  0  0  0 
 22 23  1  0  0  0  0 
 15 24  1  0  0  0  0 
 24 25  2  0  0  0  0 
 24 26  1  0  0  0  0 
 26 27  1  0  0  0  0 
 10 28  1  0  0  0  0 
 28 29  1  0  0  0  0 
 28 30  1  0  0  0  0 
 30 31  2  0  0  0  0 
 31 32  1  0  0  0  0 
 31 33  1  0  0  0  0 
 33 34  1  0  0  0  0 
 33 35  2  0  0  0  0 
 35 36  1  0  0  0  0 
 35 37  1  0  0  0  0 
 37 38  2  0  0  0  0 
 30 38  1  0  0  0  0 
 38 39  1  0  0  0  0 
 39 40  2  0  0  0  0 
 39 41  1  0  0  0  0 
 41 42  2  0  0  0  0 
 42 43  1  0  0  0  0 
 43 44  1  0  0  0  0 
 43 45  2  0  0  0  0 
 45 46  1  0  0  0  0 
 46 47  1  0  0  0  0 
 46 48  2  0  0  0  0 
 28 48  1  0  0  0  0 
 41 48  1  0  0  0  0 
 45 49  1  0  0  0  0 
 49 50  2  0  0  0  0 
 49 51  1  0  0  0  0 
 51 52  1  0  0  0  0 
 52 53  1  0  0  0  0 
 52 54  1  0  0  0  0 
 54 55  1  0  0  0  0 
 54 56  1  0  0  0  0 
 56 57  1  0  0  0  0 
 56 58  1  0  0  0  0 
 58 59  1  0  0  0  0 
 58 60  1  0  0  0  0 
 60 61  1  0  0  0  0 
 60 62  1  0  0  0  0 
 62 63  2  0  0  0  0 
 62 64  1  0  0  0  0 
 64 65  1  0  0  0  0 
 60 66  1  0  0  0  0 
 52 66  1  0  0  0  0 
 58 67  1  0  0  0  0 
 67 68  1  0  0  0  0 
 56 69  1  0  0  0  0 
 69 70  1  0  0  0  0 
 54 71  1  0  0  0  0 
 71 72  1  0  0  0  0 
 42 73  1  0  0  0  0 
 73 74  1  0  0  0  0 
 37 75  1  0  0  0  0 
 75 76  1  0  0  0  0 
 76 77  1  0  0  0  0 
 76 78  1  0  0  0  0 
 78 79  1  0  0  0  0 
 78 80  1  0  0  0  0 
 80 81  1  0  0  0  0 
 80 82  1  0  0  0  0 
 82 83  1  0  0  0  0 
 82 84  1  0  0  0  0 
 84 85  1  0  0  0  0 
 84 86  1  0  0  0  0 
 86 87  1  0  0  0  0 
 86 88  1  0  0  0  0 
 86 89  1  0  0  0  0 
 89 90  1  0  0  0  0 
 84 91  1  0  0  0  0 
 76 91  1  0  0  0  0 
 82 92  1  0  0  0  0 
 92 93  1  0  0  0  0 
 80 94  1  0  0  0  0 
 94 95  1  0  0  0  0 
 78 96  1  0  0  0  0 
 96 97  1  0  0  0  0 
  5 98  1  0  0  0  0 
 98 99  1  0  0  0  0 
 99100  1  0  0  0  0 
 99101  1  0  0  0  0 
101102  1  0  0  0  0 
101103  1  0  0  0  0 
103104  1  0  0  0  0 
103105  1  0  0  0  0 
105106  1  0  0  0  0 
105107  1  0  0  0  0 
107108  1  0  0  0  0 
107109  1  0  0  0  0 
109110  1  0  0  0  0 
109111  1  0  0  0  0 
109112  1  0  0  0  0 
112113  1  0  0  0  0 
107114  1  0  0  0  0 
 99114  1  0  0  0  0 
105115  1  0  0  0  0 
115116  1  0  0  0  0 
103117  1  0  0  0  0 
117118  1  0  0  0  0 
101119  1  0  0  0  0 
119120  1  0  0  0  0 
M  END
> <Rank>
1

> <Priority_score>
0.608

> <Reaction_type>
O-glucuronidation_(aromatic_carboxyl)

> <Parent_ID>
79

> <Parent_InChI>
InChI=1S/C42H38O20/c43-11-23-31(47)35(51)37(53)41(61-23)59-21-5-1-3-15-25(17-7-13(39(55)56)9-19(45)27(17)33(49)29(15)21)26-16-4-2-6-22(60-42-38(54)36(52)32(48)24(12-44)62-42)30(16)34(50)28-18(26)8-14(40(57)58)10-20(28)46/h1-10,23-26,31-32,35-38,41-48,51-54H,11-12H2,(H,55,56)(H,57,58)

> <Parent_SMILES>
O=C(O)c1cc(O)c2c(c1)C(C1c3cc(C(=O)O)cc(O)c3C(=O)c3c(OC4OC(CO)C(O)C(O)C4O)cccc31)c1cccc(OC3OC(CO)C(O)C(O)C3O)c1C2=O

$$$$
Molecule 79_metabolite 2
  CDK     0516241031

 22 22  0  0  0  0  0  0  0  0999 V2000
   -1.8227    2.4296    0.0000 C   0  0  0  0  0  0  0  0  0  0  0  0
   -0.3455    2.6898    0.0000 H   0  0  0  0  0  0  0  0  0  0  0  0
   -1.8224    3.9296    0.0000 H   0  0  0  0  0  0  0  0  0  0  0  0
   -1.3100    1.0200    0.0000 C   0  0  0  0  0  0  0  0  0  0  0  0
   -2.7872    0.7597    0.0000 H   0  0  0  0  0  0  0  0  0  0  0  0
   -1.3100   -0.4700    0.0000 C   0  0  0  0  0  0  0  0  0  0  0  0
   -2.7867   -0.2069    0.0000 H   0  0  0  0  0  0  0  0  0  0  0  0
   -0.0100   -1.2300    0.0000 C   0  0  0  0  0  0  0  0  0  0  0  0
   -0.9788   -2.3752    0.0000 H   0  0  0  0  0  0  0  0  0  0  0  0
    1.3100   -0.4700    0.0000 C   0  0  0  0  0  0  0  0  0  0  0  0
    1.8219   -1.8799    0.0000 H   0  0  0  0  0  0  0  0  0  0  0  0
    1.3100    1.0200    0.0000 C   0  0  0  0  0  0  0  0  0  0  0  0
    2.6064    1.7745    0.0000 O   0  0  0  0  0  0  0  0  0  0  0  0
   -0.0100    1.7700    0.0000 O   0  0  0  0  0  0  0  0  0  0  0  0
    2.7873   -0.2101    0.0000 O   0  0  0  0  0  0  0  0  0  0  0  0
    3.7510   -1.3596    0.0000 H   0  0  0  0  0  0  0  0  0  0  0  0
    0.9512   -2.3816    0.0000 O   0  0  0  0  0  0  0  0  0  0  0  0
    0.4345   -3.7898    0.0000 H   0  0  0  0  0  0  0  0  0  0  0  0
   -1.8281   -1.8777    0.0000 O   0  0  0  0  0  0  0  0  0  0  0  0
   -3.3063   -2.1328    0.0000 H   0  0  0  0  0  0  0  0  0  0  0  0
   -3.2999    2.6904    0.0000 O   0  0  0  0  0  0  0  0  0  0  0  0
   -3.8126    4.1001    0.0000 H   0  0  0  0  0  0  0  0  0  0  0  0
  1  2  1  0  0  0  0 
  1  3  1  0  0  0  0 
  1  4  1  0  0  0  0 
  4  5  1  0  0  0  0 
  4  6  1  0  0  0  0 
  6  7  1  0  0  0  0 
  6  8  1  0  0  0  0 
  8  9  1  0  0  0  0 
  8 10  1  0  0  0  0 
 10 11  1  0  0  0  0 
 10 12  1  0  0  0  0 
 12 13  2  0  0  0  0 
 12 14  1  0  0  0  0 
  4 14  1  0  0  0  0 
 10 15  1  0  0  0  0 
 15 16  1  0  0  0  0 
  8 17  1  0  0  0  0 
 17 18  1  0  0  0  0 
  6 19  1  0  0  0  0 
 19 20  1  0  0  0  0 
  1 21  1  0  0  0  0 
 21 22  1  0  0  0  0 
M  END
> <Rank>
2

> <Priority_score>
0.448

> <Reaction_type>
oxidative ether cleavage to one alcohol and one aldehyde/ketone

> <Parent_ID>
79

> <Parent_InChI>
InChI=1S/C42H38O20/c43-11-23-31(47)35(51)37(53)41(61-23)59-21-5-1-3-15-25(17-7-13(39(55)56)9-19(45)27(17)33(49)29(15)21)26-16-4-2-6-22(60-42-38(54)36(52)32(48)24(12-44)62-42)30(16)34(50)28-18(26)8-14(40(57)58)10-20(28)46/h1-10,23-26,31-32,35-38,41-48,51-54H,11-12H2,(H,55,56)(H,57,58)

> <Parent_SMILES>
O=C(O)c1cc(O)c2c(c1)C(C1c3cc(C(=O)O)cc(O)c3C(=O)c3c(OC4OC(CO)C(O)C(O)C4O)cccc31)c1cccc(OC3OC(CO)C(O)C(O)C3O)c1C2=O

$$$$
Molecule 79_metabolite 3
  CDK     0516241031

101107  0  0  0  0  0  0  0  0999 V2000
   -9.3397    5.6589    0.0000 C   0  0  0  0  0  0  0  0  0  0  0  0
  -10.3039    4.5099    0.0000 H   0  0  0  0  0  0  0  0  0  0  0  0
   -9.8524    7.0686    0.0000 C   0  0  0  0  0  0  0  0  0  0  0  0
  -11.3295    7.3296    0.0000 H   0  0  0  0  0  0  0  0  0  0  0  0
   -8.8871    8.2178    0.0000 C   0  0  0  0  0  0  0  0  0  0  0  0
   -7.4090    7.9573    0.0000 C   0  0  0  0  0  0  0  0  0  0  0  0
   -6.8963    6.5477    0.0000 C   0  0  0  0  0  0  0  0  0  0  0  0
   -7.8616    5.3985    0.0000 C   0  0  0  0  0  0  0  0  0  0  0  0
   -7.3489    3.9888    0.0000 H   0  0  0  0  0  0  0  0  0  0  0  0
   -5.4182    6.2872    0.0000 C   0  0  0  0  0  0  0  0  0  0  0  0
   -5.9314    4.8777    0.0000 H   0  0  0  0  0  0  0  0  0  0  0  0
   -4.4529    7.4364    0.0000 C   0  0  0  0  0  0  0  0  0  0  0  0
   -2.9748    7.1759    0.0000 C   0  0  0  0  0  0  0  0  0  0  0  0
   -2.4621    5.7663    0.0000 H   0  0  0  0  0  0  0  0  0  0  0  0
   -2.0095    8.3251    0.0000 C   0  0  0  0  0  0  0  0  0  0  0  0
   -2.5222    9.7348    0.0000 C   0  0  0  0  0  0  0  0  0  0  0  0
   -1.5580   10.8838    0.0000 H   0  0  0  0  0  0  0  0  0  0  0  0
   -4.0003    9.9952    0.0000 C   0  0  0  0  0  0  0  0  0  0  0  0
   -4.9656    8.8460    0.0000 C   0  0  0  0  0  0  0  0  0  0  0  0
   -6.4437    9.1065    0.0000 C   0  0  0  0  0  0  0  0  0  0  0  0
   -6.9564   10.5161    0.0000 O   0  0  0  0  0  0  0  0  0  0  0  0
   -4.5130   11.4049    0.0000 O   0  0  0  0  0  0  0  0  0  0  0  0
   -3.5486   12.5537    0.0000 H   0  0  0  0  0  0  0  0  0  0  0  0
   -0.5324    8.0641    0.0000 C   0  0  0  0  0  0  0  0  0  0  0  0
   -0.0199    6.6544    0.0000 O   0  0  0  0  0  0  0  0  0  0  0  0
    0.4322    9.2128    0.0000 O   0  0  0  0  0  0  0  0  0  0  0  0
    1.9093    8.9518    0.0000 H   0  0  0  0  0  0  0  0  0  0  0  0
   -3.2882    5.0565    0.0000 C   0  0  0  0  0  0  0  0  0  0  0  0
   -2.7750    6.4660    0.0000 H   0  0  0  0  0  0  0  0  0  0  0  0
   -4.2535    3.9073    0.0000 C   0  0  0  0  0  0  0  0  0  0  0  0
   -5.7316    4.1678    0.0000 C   0  0  0  0  0  0  0  0  0  0  0  0
   -6.2443    5.5774    0.0000 H   0  0  0  0  0  0  0  0  0  0  0  0
   -6.6969    3.0186    0.0000 C   0  0  0  0  0  0  0  0  0  0  0  0
   -8.1740    3.2796    0.0000 H   0  0  0  0  0  0  0  0  0  0  0  0
   -6.1842    1.6089    0.0000 C   0  0  0  0  0  0  0  0  0  0  0  0
   -7.1484    0.4599    0.0000 H   0  0  0  0  0  0  0  0  0  0  0  0
   -4.7061    1.3485    0.0000 C   0  0  0  0  0  0  0  0  0  0  0  0
   -3.7408    2.4977    0.0000 C   0  0  0  0  0  0  0  0  0  0  0  0
   -2.2627    2.2372    0.0000 C   0  0  0  0  0  0  0  0  0  0  0  0
   -1.7500    0.8276    0.0000 O   0  0  0  0  0  0  0  0  0  0  0  0
   -1.2974    3.3864    0.0000 C   0  0  0  0  0  0  0  0  0  0  0  0
    0.1806    3.1260    0.0000 C   0  0  0  0  0  0  0  0  0  0  0  0
    1.1460    4.2751    0.0000 C   0  0  0  0  0  0  0  0  0  0  0  0
    2.6231    4.0141    0.0000 H   0  0  0  0  0  0  0  0  0  0  0  0
    0.6332    5.6848    0.0000 C   0  0  0  0  0  0  0  0  0  0  0  0
   -0.8448    5.9452    0.0000 C   0  0  0  0  0  0  0  0  0  0  0  0
   -1.3575    7.3549    0.0000 H   0  0  0  0  0  0  0  0  0  0  0  0
   -1.8101    4.7961    0.0000 C   0  0  0  0  0  0  0  0  0  0  0  0
    1.5975    6.8338    0.0000 C   0  0  0  0  0  0  0  0  0  0  0  0
    1.0845    8.2434    0.0000 O   0  0  0  0  0  0  0  0  0  0  0  0
    3.0747    6.5733    0.0000 O   0  0  0  0  0  0  0  0  0  0  0  0
    4.0389    7.7223    0.0000 H   0  0  0  0  0  0  0  0  0  0  0  0
    0.6934    1.7163    0.0000 O   0  0  0  0  0  0  0  0  0  0  0  0
    2.1705    1.4555    0.0000 H   0  0  0  0  0  0  0  0  0  0  0  0
   -4.1934   -0.0612    0.0000 O   0  0  0  0  0  0  0  0  0  0  0  0
   -5.1578   -1.2100    0.0000 C   0  0  0  0  0  0  0  0  0  0  0  0
   -6.1244   -0.0630    0.0000 H   0  0  0  0  0  0  0  0  0  0  0  0
   -3.8693   -1.9583    0.0000 C   0  0  0  0  0  0  0  0  0  0  0  0
   -2.3930   -2.2236    0.0000 H   0  0  0  0  0  0  0  0  0  0  0  0
   -3.8750   -3.4814    0.0000 C   0  0  0  0  0  0  0  0  0  0  0  0
   -3.3712   -4.8943    0.0000 H   0  0  0  0  0  0  0  0  0  0  0  0
   -5.1850   -4.2239    0.0000 C   0  0  0  0  0  0  0  0  0  0  0  0
   -6.1542   -5.3688    0.0000 H   0  0  0  0  0  0  0  0  0  0  0  0
   -6.4735   -3.4757    0.0000 C   0  0  0  0  0  0  0  0  0  0  0  0
   -7.9500   -3.2112    0.0000 H   0  0  0  0  0  0  0  0  0  0  0  0
   -7.3210   -5.7851    0.0000 C   0  0  0  0  0  0  0  0  0  0  0  0
   -8.2882   -6.9317    0.0000 H   0  0  0  0  0  0  0  0  0  0  0  0
   -8.6180   -5.0317    0.0000 H   0  0  0  0  0  0  0  0  0  0  0  0
   -6.3598   -6.9367    0.0000 O   0  0  0  0  0  0  0  0  0  0  0  0
   -6.8765   -8.3449    0.0000 H   0  0  0  0  0  0  0  0  0  0  0  0
   -6.4693   -1.9749    0.0000 O   0  0  0  0  0  0  0  0  0  0  0  0
   -4.2279   -5.3789    0.0000 O   0  0  0  0  0  0  0  0  0  0  0  0
   -4.7496   -6.7853    0.0000 H   0  0  0  0  0  0  0  0  0  0  0  0
   -2.3965   -3.2285    0.0000 O   0  0  0  0  0  0  0  0  0  0  0  0
   -1.4382   -4.3825    0.0000 H   0  0  0  0  0  0  0  0  0  0  0  0
   -3.3522   -0.5502    0.0000 O   0  0  0  0  0  0  0  0  0  0  0  0
   -1.8742   -0.2941    0.0000 H   0  0  0  0  0  0  0  0  0  0  0  0
   -9.3998    9.6274    0.0000 O   0  0  0  0  0  0  0  0  0  0  0  0
  -10.8770    9.8882    0.0000 C   0  0  0  0  0  0  0  0  0  0  0  0
  -12.3542    9.6280    0.0000 H   0  0  0  0  0  0  0  0  0  0  0  0
  -11.3897   11.2979    0.0000 C   0  0  0  0  0  0  0  0  0  0  0  0
   -9.9124   11.5580    0.0000 H   0  0  0  0  0  0  0  0  0  0  0  0
  -13.3395   11.6421    0.0000 C   0  0  0  0  0  0  0  0  0  0  0  0
  -14.8168   11.3819    0.0000 H   0  0  0  0  0  0  0  0  0  0  0  0
  -14.3445   14.4050    0.0000 C   0  0  0  0  0  0  0  0  0  0  0  0
  -12.8672   14.6652    0.0000 H   0  0  0  0  0  0  0  0  0  0  0  0
  -15.8216   14.6658    0.0000 C   0  0  0  0  0  0  0  0  0  0  0  0
  -16.7861   13.5169    0.0000 O   0  0  0  0  0  0  0  0  0  0  0  0
  -16.3344   16.0754    0.0000 C   0  0  0  0  0  0  0  0  0  0  0  0
  -17.6336   15.3257    0.0000 H   0  0  0  0  0  0  0  0  0  0  0  0
  -17.2983   17.2247    0.0000 H   0  0  0  0  0  0  0  0  0  0  0  0
  -15.3699   17.2243    0.0000 O   0  0  0  0  0  0  0  0  0  0  0  0
  -15.8827   18.6339    0.0000 H   0  0  0  0  0  0  0  0  0  0  0  0
  -14.3442   15.9050    0.0000 O   0  0  0  0  0  0  0  0  0  0  0  0
  -13.0450   16.6547    0.0000 H   0  0  0  0  0  0  0  0  0  0  0  0
  -13.3399   10.1421    0.0000 O   0  0  0  0  0  0  0  0  0  0  0  0
  -14.6391    9.3924    0.0000 H   0  0  0  0  0  0  0  0  0  0  0  0
  -11.3894   12.7979    0.0000 O   0  0  0  0  0  0  0  0  0  0  0  0
  -10.0902   13.5476    0.0000 H   0  0  0  0  0  0  0  0  0  0  0  0
  -10.8773    8.3882    0.0000 O   0  0  0  0  0  0  0  0  0  0  0  0
  -12.1765    7.6385    0.0000 H   0  0  0  0  0  0  0  0  0  0  0  0
  1  2  1  0  0  0  0 
  1  3  2  0  0  0  0 
  3  4  1  0  0  0  0 
  3  5  1  0  0  0  0 
  5  6  2  0  0  0  0 
  6  7  1  0  0  0  0 
  7  8  2  0  0  0  0 
  1  8  1  0  0  0  0 
  8  9  1  0  0  0  0 
  7 10  1  0  0  0  0 
 10 11  1  0  0  0  0 
 10 12  1  0  0  0  0 
 12 13  2  0  0  0  0 
 13 14  1  0  0  0  0 
 13 15  1  0  0  0  0 
 15 16  2  0  0  0  0 
 16 17  1  0  0  0  0 
 16 18  1  0  0  0  0 
 18 19  2  0  0  0  0 
 12 19  1  0  0  0  0 
 19 20  1  0  0  0  0 
  6 20  1  0  0  0  0 
 20 21  2  0  0  0  0 
 18 22  1  0  0  0  0 
 22 23  1  0  0  0  0 
 15 24  1  0  0  0  0 
 24 25  2  0  0  0  0 
 24 26  1  0  0  0  0 
 26 27  1  0  0  0  0 
 10 28  1  0  0  0  0 
 28 29  1  0  0  0  0 
 28 30  1  0  0  0  0 
 30 31  2  0  0  0  0 
 31 32  1  0  0  0  0 
 31 33  1  0  0  0  0 
 33 34  1  0  0  0  0 
 33 35  2  0  0  0  0 
 35 36  1  0  0  0  0 
 35 37  1  0  0  0  0 
 37 38  2  0  0  0  0 
 30 38  1  0  0  0  0 
 38 39  1  0  0  0  0 
 39 40  2  0  0  0  0 
 39 41  1  0  0  0  0 
 41 42  2  0  0  0  0 
 42 43  1  0  0  0  0 
 43 44  1  0  0  0  0 
 43 45  2  0  0  0  0 
 45 46  1  0  0  0  0 
 46 47  1  0  0  0  0 
 46 48  2  0  0  0  0 
 28 48  1  0  0  0  0 
 41 48  1  0  0  0  0 
 45 49  1  0  0  0  0 
 49 50  2  0  0  0  0 
 49 51  1  0  0  0  0 
 51 52  1  0  0  0  0 
 42 53  1  0  0  0  0 
 53 54  1  0  0  0  0 
 37 55  1  0  0  0  0 
 55 56  1  0  0  0  0 
 56 57  1  0  0  0  0 
 56 58  1  0  0  0  0 
 58 59  1  0  0  0  0 
 58 60  1  0  0  0  0 
 60 61  1  0  0  0  0 
 60 62  1  0  0  0  0 
 62 63  1  0  0  0  0 
 62 64  1  0  0  0  0 
 64 65  1  0  0  0  0 
 64 66  1  0  0  0  0 
 66 67  1  0  0  0  0 
 66 68  1  0  0  0  0 
 66 69  1  0  0  0  0 
 69 70  1  0  0  0  0 
 64 71  1  0  0  0  0 
 56 71  1  0  0  0  0 
 62 72  1  0  0  0  0 
 72 73  1  0  0  0  0 
 60 74  1  0  0  0  0 
 74 75  1  0  0  0  0 
 58 76  1  0  0  0  0 
 76 77  1  0  0  0  0 
  5 78  1  0  0  0  0 
 78 79  1  0  0  0  0 
 79 80  1  0  0  0  0 
 79 81  1  0  0  0  0 
 81 82  1  0  0  0  0 
 81 83  1  0  0  0  0 
 83 84  1  0  0  0  0 
 83 85  1  0  0  0  0 
 85 86  1  0  0  0  0 
 85 87  1  0  0  0  0 
 87 88  2  0  0  0  0 
 87 89  1  0  0  0  0 
 89 90  1  0  0  0  0 
 89 91  1  0  0  0  0 
 89 92  1  0  0  0  0 
 92 93  1  0  0  0  0 
 85 94  1  0  0  0  0 
 94 95  1  0  0  0  0 
 83 96  1  0  0  0  0 
 96 97  1  0  0  0  0 
 81 98  1  0  0  0  0 
 98 99  1  0  0  0  0 
 79100  1  0  0  0  0 
100101  1  0  0  0  0 
M  END
> <Rank>
2

> <Priority_score>
0.448

> <Reaction_type>
oxidative ether cleavage to one alcohol and one aldehyde/ketone

> <Parent_ID>
79

> <Parent_InChI>
InChI=1S/C42H38O20/c43-11-23-31(47)35(51)37(53)41(61-23)59-21-5-1-3-15-25(17-7-13(39(55)56)9-19(45)27(17)33(49)29(15)21)26-16-4-2-6-22(60-42-38(54)36(52)32(48)24(12-44)62-42)30(16)34(50)28-18(26)8-14(40(57)58)10-20(28)46/h1-10,23-26,31-32,35-38,41-48,51-54H,11-12H2,(H,55,56)(H,57,58)

> <Parent_SMILES>
O=C(O)c1cc(O)c2c(c1)C(C1c3cc(C(=O)O)cc(O)c3C(=O)c3c(OC4OC(CO)C(O)C(O)C4O)cccc31)c1cccc(OC3OC(CO)C(O)C(O)C3O)c1C2=O

$$$$
Molecule 79_metabolite 4
  CDK     0516241031

101108  0  0  0  0  0  0  0  0999 V2000
  -10.4261    2.7745    0.0000 C   0  0  0  0  0  0  0  0  0  0  0  0
   -9.9132    4.1841    0.0000 H   0  0  0  0  0  0  0  0  0  0  0  0
  -11.9033    2.5137    0.0000 C   0  0  0  0  0  0  0  0  0  0  0  0
  -12.8679    3.6624    0.0000 H   0  0  0  0  0  0  0  0  0  0  0  0
  -12.4158    1.1031    0.0000 C   0  0  0  0  0  0  0  0  0  0  0  0
  -11.4512   -0.0467    0.0000 C   0  0  0  0  0  0  0  0  0  0  0  0
   -9.9741    0.2141    0.0000 C   0  0  0  0  0  0  0  0  0  0  0  0
   -9.4615    1.6247    0.0000 C   0  0  0  0  0  0  0  0  0  0  0  0
   -7.9844    1.8855    0.0000 H   0  0  0  0  0  0  0  0  0  0  0  0
   -9.0095   -0.9357    0.0000 C   0  0  0  0  0  0  0  0  0  0  0  0
   -8.0454    0.2135    0.0000 H   0  0  0  0  0  0  0  0  0  0  0  0
   -9.5221   -2.3463    0.0000 C   0  0  0  0  0  0  0  0  0  0  0  0
   -8.5575   -3.4961    0.0000 C   0  0  0  0  0  0  0  0  0  0  0  0
   -7.0803   -3.2353    0.0000 H   0  0  0  0  0  0  0  0  0  0  0  0
   -9.0700   -4.9067    0.0000 C   0  0  0  0  0  0  0  0  0  0  0  0
  -10.5472   -5.1675    0.0000 C   0  0  0  0  0  0  0  0  0  0  0  0
  -11.0601   -6.5770    0.0000 H   0  0  0  0  0  0  0  0  0  0  0  0
  -11.5118   -4.0177    0.0000 C   0  0  0  0  0  0  0  0  0  0  0  0
  -10.9992   -2.6071    0.0000 C   0  0  0  0  0  0  0  0  0  0  0  0
  -11.9638   -1.4573    0.0000 C   0  0  0  0  0  0  0  0  0  0  0  0
  -13.4410   -1.7180    0.0000 O   0  0  0  0  0  0  0  0  0  0  0  0
  -12.9889   -4.2785    0.0000 O   0  0  0  0  0  0  0  0  0  0  0  0
  -13.5017   -5.6881    0.0000 H   0  0  0  0  0  0  0  0  0  0  0  0
   -8.1054   -6.0554    0.0000 C   0  0  0  0  0  0  0  0  0  0  0  0
   -6.6283   -5.7944    0.0000 O   0  0  0  0  0  0  0  0  0  0  0  0
   -8.6179   -7.4651    0.0000 O   0  0  0  0  0  0  0  0  0  0  0  0
   -7.6533   -8.6138    0.0000 H   0  0  0  0  0  0  0  0  0  0  0  0
   -6.8787   -2.1650    0.0000 C   0  0  0  0  0  0  0  0  0  0  0  0
   -7.8427   -3.3142    0.0000 H   0  0  0  0  0  0  0  0  0  0  0  0
   -6.3661   -0.7544    0.0000 C   0  0  0  0  0  0  0  0  0  0  0  0
   -7.3307    0.3954    0.0000 C   0  0  0  0  0  0  0  0  0  0  0  0
   -8.8079    0.1346    0.0000 H   0  0  0  0  0  0  0  0  0  0  0  0
   -6.8182    1.8060    0.0000 C   0  0  0  0  0  0  0  0  0  0  0  0
   -7.7828    2.9547    0.0000 H   0  0  0  0  0  0  0  0  0  0  0  0
   -5.3410    2.0668    0.0000 C   0  0  0  0  0  0  0  0  0  0  0  0
   -4.8280    3.4764    0.0000 H   0  0  0  0  0  0  0  0  0  0  0  0
   -4.3764    0.9170    0.0000 C   0  0  0  0  0  0  0  0  0  0  0  0
   -4.8890   -0.4936    0.0000 C   0  0  0  0  0  0  0  0  0  0  0  0
   -3.9244   -1.6434    0.0000 C   0  0  0  0  0  0  0  0  0  0  0  0
   -2.4472   -1.3826    0.0000 O   0  0  0  0  0  0  0  0  0  0  0  0
   -4.4369   -3.0540    0.0000 C   0  0  0  0  0  0  0  0  0  0  0  0
   -3.4723   -4.2038    0.0000 C   0  0  0  0  0  0  0  0  0  0  0  0
   -3.9849   -5.6144    0.0000 C   0  0  0  0  0  0  0  0  0  0  0  0
   -3.0203   -6.7631    0.0000 H   0  0  0  0  0  0  0  0  0  0  0  0
   -5.4621   -5.8752    0.0000 C   0  0  0  0  0  0  0  0  0  0  0  0
   -6.4266   -4.7254    0.0000 C   0  0  0  0  0  0  0  0  0  0  0  0
   -7.9038   -4.9862    0.0000 H   0  0  0  0  0  0  0  0  0  0  0  0
   -5.9141   -3.3148    0.0000 C   0  0  0  0  0  0  0  0  0  0  0  0
   -5.9750   -7.2848    0.0000 C   0  0  0  0  0  0  0  0  0  0  0  0
   -7.4522   -7.5453    0.0000 O   0  0  0  0  0  0  0  0  0  0  0  0
   -5.0108   -8.4338    0.0000 O   0  0  0  0  0  0  0  0  0  0  0  0
   -5.5237   -9.8434    0.0000 H   0  0  0  0  0  0  0  0  0  0  0  0
   -1.9952   -3.9430    0.0000 O   0  0  0  0  0  0  0  0  0  0  0  0
   -1.0308   -5.0919    0.0000 H   0  0  0  0  0  0  0  0  0  0  0  0
   -2.8992    1.1778    0.0000 O   0  0  0  0  0  0  0  0  0  0  0  0
   -2.3865    2.5874    0.0000 C   0  0  0  0  0  0  0  0  0  0  0  0
   -2.3865    4.0874    0.0000 C   0  0  0  0  0  0  0  0  0  0  0  0
   -3.8638    3.8271    0.0000 H   0  0  0  0  0  0  0  0  0  0  0  0
   -1.0865    4.8374    0.0000 C   0  0  0  0  0  0  0  0  0  0  0  0
   -2.0506    5.9866    0.0000 H   0  0  0  0  0  0  0  0  0  0  0  0
    0.2135    4.0874    0.0000 C   0  0  0  0  0  0  0  0  0  0  0  0
    0.7262    5.4971    0.0000 H   0  0  0  0  0  0  0  0  0  0  0  0
    0.2135    2.5874    0.0000 C   0  0  0  0  0  0  0  0  0  0  0  0
    1.6907    2.8477    0.0000 H   0  0  0  0  0  0  0  0  0  0  0  0
    0.7262    1.1778    0.0000 C   0  0  0  0  0  0  0  0  0  0  0  0
    0.7259   -0.3222    0.0000 H   0  0  0  0  0  0  0  0  0  0  0  0
   -0.7511    0.9176    0.0000 H   0  0  0  0  0  0  0  0  0  0  0  0
    2.2034    0.9170    0.0000 O   0  0  0  0  0  0  0  0  0  0  0  0
    3.1678    2.0658    0.0000 H   0  0  0  0  0  0  0  0  0  0  0  0
   -1.0865    1.8374    0.0000 O   0  0  0  0  0  0  0  0  0  0  0  0
    1.6907    3.8271    0.0000 O   0  0  0  0  0  0  0  0  0  0  0  0
    2.6548    4.9763    0.0000 H   0  0  0  0  0  0  0  0  0  0  0  0
   -0.1225    5.9866    0.0000 O   0  0  0  0  0  0  0  0  0  0  0  0
   -0.6356    7.3961    0.0000 H   0  0  0  0  0  0  0  0  0  0  0  0
   -2.8992    5.4971    0.0000 O   0  0  0  0  0  0  0  0  0  0  0  0
   -4.3764    5.7579    0.0000 H   0  0  0  0  0  0  0  0  0  0  0  0
   -3.8638    2.8477    0.0000 O   0  0  0  0  0  0  0  0  0  0  0  0
   -4.3769    4.2572    0.0000 H   0  0  0  0  0  0  0  0  0  0  0  0
  -13.8930    0.8424    0.0000 O   0  0  0  0  0  0  0  0  0  0  0  0
  -14.8574    1.9912    0.0000 C   0  0  0  0  0  0  0  0  0  0  0  0
  -13.5603    2.7445    0.0000 H   0  0  0  0  0  0  0  0  0  0  0  0
  -15.8176    0.8518    0.0000 C   0  0  0  0  0  0  0  0  0  0  0  0
  -16.3347   -0.5562    0.0000 H   0  0  0  0  0  0  0  0  0  0  0  0
  -17.3167    1.1212    0.0000 C   0  0  0  0  0  0  0  0  0  0  0  0
  -18.7955    0.8698    0.0000 H   0  0  0  0  0  0  0  0  0  0  0  0
  -17.8211    2.5401    0.0000 C   0  0  0  0  0  0  0  0  0  0  0  0
  -18.7808    3.6929    0.0000 H   0  0  0  0  0  0  0  0  0  0  0  0
  -16.8609    3.6795    0.0000 C   0  0  0  0  0  0  0  0  0  0  0  0
  -16.3447    5.0879    0.0000 H   0  0  0  0  0  0  0  0  0  0  0  0
  -19.4038    5.1551    0.0000 C   0  0  0  0  0  0  0  0  0  0  0  0
  -20.8805    5.4188    0.0000 H   0  0  0  0  0  0  0  0  0  0  0  0
  -19.9199    3.7467    0.0000 H   0  0  0  0  0  0  0  0  0  0  0  0
  -19.4005    6.6551    0.0000 O   0  0  0  0  0  0  0  0  0  0  0  0
  -20.6979    7.4079    0.0000 H   0  0  0  0  0  0  0  0  0  0  0  0
  -15.3835    3.4153    0.0000 O   0  0  0  0  0  0  0  0  0  0  0  0
  -19.1244    1.7975    0.0000 O   0  0  0  0  0  0  0  0  0  0  0  0
  -20.4191    2.5549    0.0000 H   0  0  0  0  0  0  0  0  0  0  0  0
  -17.3237   -0.3788    0.0000 O   0  0  0  0  0  0  0  0  0  0  0  0
  -18.6263   -1.1226    0.0000 H   0  0  0  0  0  0  0  0  0  0  0  0
  -14.5204    0.0986    0.0000 O   0  0  0  0  0  0  0  0  0  0  0  0
  -14.5241   -1.4014    0.0000 H   0  0  0  0  0  0  0  0  0  0  0  0
  1  2  1  0  0  0  0 
  1  3  2  0  0  0  0 
  3  4  1  0  0  0  0 
  3  5  1  0  0  0  0 
  5  6  2  0  0  0  0 
  6  7  1  0  0  0  0 
  7  8  2  0  0  0  0 
  1  8  1  0  0  0  0 
  8  9  1  0  0  0  0 
  7 10  1  0  0  0  0 
 10 11  1  0  0  0  0 
 10 12  1  0  0  0  0 
 12 13  2  0  0  0  0 
 13 14  1  0  0  0  0 
 13 15  1  0  0  0  0 
 15 16  2  0  0  0  0 
 16 17  1  0  0  0  0 
 16 18  1  0  0  0  0 
 18 19  2  0  0  0  0 
 12 19  1  0  0  0  0 
 19 20  1  0  0  0  0 
  6 20  1  0  0  0  0 
 20 21  2  0  0  0  0 
 18 22  1  0  0  0  0 
 22 23  1  0  0  0  0 
 15 24  1  0  0  0  0 
 24 25  2  0  0  0  0 
 24 26  1  0  0  0  0 
 26 27  1  0  0  0  0 
 10 28  1  0  0  0  0 
 28 29  1  0  0  0  0 
 28 30  1  0  0  0  0 
 30 31  2  0  0  0  0 
 31 32  1  0  0  0  0 
 31 33  1  0  0  0  0 
 33 34  1  0  0  0  0 
 33 35  2  0  0  0  0 
 35 36  1  0  0  0  0 
 35 37  1  0  0  0  0 
 37 38  2  0  0  0  0 
 30 38  1  0  0  0  0 
 38 39  1  0  0  0  0 
 39 40  2  0  0  0  0 
 39 41  1  0  0  0  0 
 41 42  2  0  0  0  0 
 42 43  1  0  0  0  0 
 43 44  1  0  0  0  0 
 43 45  2  0  0  0  0 
 45 46  1  0  0  0  0 
 46 47  1  0  0  0  0 
 46 48  2  0  0  0  0 
 28 48  1  0  0  0  0 
 41 48  1  0  0  0  0 
 45 49  1  0  0  0  0 
 49 50  2  0  0  0  0 
 49 51  1  0  0  0  0 
 51 52  1  0  0  0  0 
 42 53  1  0  0  0  0 
 53 54  1  0  0  0  0 
 37 55  1  0  0  0  0 
 55 56  1  0  0  0  0 
 56 57  1  0  0  0  0 
 57 58  1  0  0  0  0 
 57 59  1  0  0  0  0 
 59 60  1  0  0  0  0 
 59 61  1  0  0  0  0 
 61 62  1  0  0  0  0 
 61 63  1  0  0  0  0 
 63 64  1  0  0  0  0 
 63 65  1  0  0  0  0 
 65 66  1  0  0  0  0 
 65 67  1  0  0  0  0 
 65 68  1  0  0  0  0 
 68 69  1  0  0  0  0 
 63 70  1  0  0  0  0 
 56 70  1  0  0  0  0 
 61 71  1  0  0  0  0 
 71 72  1  0  0  0  0 
 59 73  1  0  0  0  0 
 73 74  1  0  0  0  0 
 57 75  1  0  0  0  0 
 75 76  1  0  0  0  0 
 56 77  1  0  0  0  0 
 77 78  1  0  0  0  0 
  5 79  1  0  0  0  0 
 79 80  1  0  0  0  0 
 80 81  1  0  0  0  0 
 80 82  1  0  0  0  0 
 82 83  1  0  0  0  0 
 82 84  1  0  0  0  0 
 84 85  1  0  0  0  0 
 84 86  1  0  0  0  0 
 86 87  1  0  0  0  0 
 86 88  1  0  0  0  0 
 88 89  1  0  0  0  0 
 88 90  1  0  0  0  0 
 90 91  1  0  0  0  0 
 90 92  1  0  0  0  0 
 90 93  1  0  0  0  0 
 93 94  1  0  0  0  0 
 88 95  1  0  0  0  0 
 80 95  1  0  0  0  0 
 86 96  1  0  0  0  0 
 96 97  1  0  0  0  0 
 84 98  1  0  0  0  0 
 98 99  1  0  0  0  0 
 82100  1  0  0  0  0 
100101  1  0  0  0  0 
M  END
> <Rank>
2

> <Priority_score>
0.448

> <Reaction_type>
aliphatic hydroxylation

> <Parent_ID>
79

> <Parent_InChI>
InChI=1S/C42H38O20/c43-11-23-31(47)35(51)37(53)41(61-23)59-21-5-1-3-15-25(17-7-13(39(55)56)9-19(45)27(17)33(49)29(15)21)26-16-4-2-6-22(60-42-38(54)36(52)32(48)24(12-44)62-42)30(16)34(50)28-18(26)8-14(40(57)58)10-20(28)46/h1-10,23-26,31-32,35-38,41-48,51-54H,11-12H2,(H,55,56)(H,57,58)

> <Parent_SMILES>
O=C(O)c1cc(O)c2c(c1)C(C1c3cc(C(=O)O)cc(O)c3C(=O)c3c(OC4OC(CO)C(O)C(O)C4O)cccc31)c1cccc(OC3OC(CO)C(O)C(O)C3O)c1C2=O

$$$$
Molecule 79_metabolite 5
  CDK     0516241031

 79 85  0  0  0  0  0  0  0  0999 V2000
  -10.7579    5.9094    0.0000 C   0  0  0  0  0  0  0  0  0  0  0  0
  -11.7222    4.7604    0.0000 H   0  0  0  0  0  0  0  0  0  0  0  0
  -11.2707    7.3191    0.0000 C   0  0  0  0  0  0  0  0  0  0  0  0
  -12.7478    7.5801    0.0000 H   0  0  0  0  0  0  0  0  0  0  0  0
  -10.3053    8.4683    0.0000 C   0  0  0  0  0  0  0  0  0  0  0  0
   -8.8273    8.2078    0.0000 C   0  0  0  0  0  0  0  0  0  0  0  0
   -8.3145    6.7982    0.0000 C   0  0  0  0  0  0  0  0  0  0  0  0
   -9.2799    5.6490    0.0000 C   0  0  0  0  0  0  0  0  0  0  0  0
   -8.7671    4.2393    0.0000 H   0  0  0  0  0  0  0  0  0  0  0  0
   -6.8365    6.5377    0.0000 C   0  0  0  0  0  0  0  0  0  0  0  0
   -7.3497    5.1282    0.0000 H   0  0  0  0  0  0  0  0  0  0  0  0
   -5.8711    7.6869    0.0000 C   0  0  0  0  0  0  0  0  0  0  0  0
   -4.3931    7.4264    0.0000 C   0  0  0  0  0  0  0  0  0  0  0  0
   -3.8804    6.0168    0.0000 H   0  0  0  0  0  0  0  0  0  0  0  0
   -3.4278    8.5756    0.0000 C   0  0  0  0  0  0  0  0  0  0  0  0
   -3.9405    9.9853    0.0000 C   0  0  0  0  0  0  0  0  0  0  0  0
   -2.9762   11.1343    0.0000 H   0  0  0  0  0  0  0  0  0  0  0  0
   -5.4185   10.2457    0.0000 C   0  0  0  0  0  0  0  0  0  0  0  0
   -6.3839    9.0965    0.0000 C   0  0  0  0  0  0  0  0  0  0  0  0
   -7.8619    9.3570    0.0000 C   0  0  0  0  0  0  0  0  0  0  0  0
   -8.3747   10.7667    0.0000 O   0  0  0  0  0  0  0  0  0  0  0  0
   -5.9313   11.6554    0.0000 O   0  0  0  0  0  0  0  0  0  0  0  0
   -4.9668   12.8042    0.0000 H   0  0  0  0  0  0  0  0  0  0  0  0
   -1.9506    8.3146    0.0000 C   0  0  0  0  0  0  0  0  0  0  0  0
   -1.4381    6.9049    0.0000 O   0  0  0  0  0  0  0  0  0  0  0  0
   -0.0600   10.5661    0.0000 O   0  0  0  0  0  0  0  0  0  0  0  0
    1.4171   10.3050    0.0000 H   0  0  0  0  0  0  0  0  0  0  0  0
   -4.7064    5.3070    0.0000 C   0  0  0  0  0  0  0  0  0  0  0  0
   -4.1933    6.7165    0.0000 H   0  0  0  0  0  0  0  0  0  0  0  0
   -5.6718    4.1578    0.0000 C   0  0  0  0  0  0  0  0  0  0  0  0
   -7.1498    4.4183    0.0000 C   0  0  0  0  0  0  0  0  0  0  0  0
   -7.6626    5.8279    0.0000 H   0  0  0  0  0  0  0  0  0  0  0  0
   -8.1152    3.2691    0.0000 C   0  0  0  0  0  0  0  0  0  0  0  0
   -9.5923    3.5301    0.0000 H   0  0  0  0  0  0  0  0  0  0  0  0
   -7.6024    1.8595    0.0000 C   0  0  0  0  0  0  0  0  0  0  0  0
   -8.5667    0.7104    0.0000 H   0  0  0  0  0  0  0  0  0  0  0  0
   -6.1244    1.5990    0.0000 C   0  0  0  0  0  0  0  0  0  0  0  0
   -5.1590    2.7482    0.0000 C   0  0  0  0  0  0  0  0  0  0  0  0
   -3.6810    2.4877    0.0000 C   0  0  0  0  0  0  0  0  0  0  0  0
   -3.1683    1.0781    0.0000 O   0  0  0  0  0  0  0  0  0  0  0  0
   -2.7157    3.6369    0.0000 C   0  0  0  0  0  0  0  0  0  0  0  0
   -1.2376    3.3765    0.0000 C   0  0  0  0  0  0  0  0  0  0  0  0
   -0.2723    4.5256    0.0000 C   0  0  0  0  0  0  0  0  0  0  0  0
    1.2048    4.2646    0.0000 H   0  0  0  0  0  0  0  0  0  0  0  0
   -0.7850    5.9353    0.0000 C   0  0  0  0  0  0  0  0  0  0  0  0
   -2.2631    6.1958    0.0000 C   0  0  0  0  0  0  0  0  0  0  0  0
   -2.7758    7.6054    0.0000 H   0  0  0  0  0  0  0  0  0  0  0  0
   -3.2284    5.0466    0.0000 C   0  0  0  0  0  0  0  0  0  0  0  0
    0.1792    7.0843    0.0000 C   0  0  0  0  0  0  0  0  0  0  0  0
   -0.3337    8.4939    0.0000 O   0  0  0  0  0  0  0  0  0  0  0  0
    1.6564    6.8238    0.0000 O   0  0  0  0  0  0  0  0  0  0  0  0
    2.6207    7.9728    0.0000 H   0  0  0  0  0  0  0  0  0  0  0  0
   -0.7249    1.9668    0.0000 O   0  0  0  0  0  0  0  0  0  0  0  0
    0.7523    1.7060    0.0000 H   0  0  0  0  0  0  0  0  0  0  0  0
   -5.6117    0.1893    0.0000 O   0  0  0  0  0  0  0  0  0  0  0  0
   -6.5761   -0.9595    0.0000 C   0  0  0  0  0  0  0  0  0  0  0  0
   -7.5427    0.1875    0.0000 H   0  0  0  0  0  0  0  0  0  0  0  0
   -5.2876   -1.7078    0.0000 C   0  0  0  0  0  0  0  0  0  0  0  0
   -3.8112   -1.9731    0.0000 H   0  0  0  0  0  0  0  0  0  0  0  0
   -5.2932   -3.2309    0.0000 C   0  0  0  0  0  0  0  0  0  0  0  0
   -4.7894   -4.6438    0.0000 H   0  0  0  0  0  0  0  0  0  0  0  0
   -6.6033   -3.9734    0.0000 C   0  0  0  0  0  0  0  0  0  0  0  0
   -7.5724   -5.1183    0.0000 H   0  0  0  0  0  0  0  0  0  0  0  0
   -7.8918   -3.2252    0.0000 C   0  0  0  0  0  0  0  0  0  0  0  0
   -9.3683   -2.9607    0.0000 H   0  0  0  0  0  0  0  0  0  0  0  0
   -8.7392   -5.5346    0.0000 C   0  0  0  0  0  0  0  0  0  0  0  0
   -9.7064   -6.6812    0.0000 H   0  0  0  0  0  0  0  0  0  0  0  0
  -10.0363   -4.7812    0.0000 H   0  0  0  0  0  0  0  0  0  0  0  0
   -7.7780   -6.6862    0.0000 O   0  0  0  0  0  0  0  0  0  0  0  0
   -8.2948   -8.0944    0.0000 H   0  0  0  0  0  0  0  0  0  0  0  0
   -7.8875   -1.7244    0.0000 O   0  0  0  0  0  0  0  0  0  0  0  0
   -5.6462   -5.1284    0.0000 O   0  0  0  0  0  0  0  0  0  0  0  0
   -6.1678   -6.5348    0.0000 H   0  0  0  0  0  0  0  0  0  0  0  0
   -3.8147   -2.9780    0.0000 O   0  0  0  0  0  0  0  0  0  0  0  0
   -2.8564   -4.1320    0.0000 H   0  0  0  0  0  0  0  0  0  0  0  0
   -4.7704   -0.2997    0.0000 O   0  0  0  0  0  0  0  0  0  0  0  0
   -3.2925   -0.0436    0.0000 H   0  0  0  0  0  0  0  0  0  0  0  0
  -10.8181    9.8779    0.0000 O   0  0  0  0  0  0  0  0  0  0  0  0
  -12.2952   10.1387    0.0000 H   0  0  0  0  0  0  0  0  0  0  0  0
  1  2  1  0  0  0  0 
  1  3  2  0  0  0  0 
  3  4  1  0  0  0  0 
  3  5  1  0  0  0  0 
  5  6  2  0  0  0  0 
  6  7  1  0  0  0  0 
  7  8  2  0  0  0  0 
  1  8  1  0  0  0  0 
  8  9  1  0  0  0  0 
  7 10  1  0  0  0  0 
 10 11  1  0  0  0  0 
 10 12  1  0  0  0  0 
 12 13  2  0  0  0  0 
 13 14  1  0  0  0  0 
 13 15  1  0  0  0  0 
 15 16  2  0  0  0  0 
 16 17  1  0  0  0  0 
 16 18  1  0  0  0  0 
 18 19  2  0  0  0  0 
 12 19  1  0  0  0  0 
 19 20  1  0  0  0  0 
  6 20  1  0  0  0  0 
 20 21  2  0  0  0  0 
 18 22  1  0  0  0  0 
 22 23  1  0  0  0  0 
 15 24  1  0  0  0  0 
 24 25  2  0  0  0  0 
 24 26  1  0  0  0  0 
 26 27  1  0  0  0  0 
 10 28  1  0  0  0  0 
 28 29  1  0  0  0  0 
 28 30  1  0  0  0  0 
 30 31  2  0  0  0  0 
 31 32  1  0  0  0  0 
 31 33  1  0  0  0  0 
 33 34  1  0  0  0  0 
 33 35  2  0  0  0  0 
 35 36  1  0  0  0  0 
 35 37  1  0  0  0  0 
 37 38  2  0  0  0  0 
 30 38  1  0  0  0  0 
 38 39  1  0  0  0  0 
 39 40  2  0  0  0  0 
 39 41  1  0  0  0  0 
 41 42  2  0  0  0  0 
 42 43  1  0  0  0  0 
 43 44  1  0  0  0  0 
 43 45  2  0  0  0  0 
 45 46  1  0  0  0  0 
 46 47  1  0  0  0  0 
 46 48  2  0  0  0  0 
 28 48  1  0  0  0  0 
 41 48  1  0  0  0  0 
 45 49  1  0  0  0  0 
 49 50  2  0  0  0  0 
 49 51  1  0  0  0  0 
 51 52  1  0  0  0  0 
 42 53  1  0  0  0  0 
 53 54  1  0  0  0  0 
 37 55  1  0  0  0  0 
 55 56  1  0  0  0  0 
 56 57  1  0  0  0  0 
 56 58  1  0  0  0  0 
 58 59  1  0  0  0  0 
 58 60  1  0  0  0  0 
 60 61  1  0  0  0  0 
 60 62  1  0  0  0  0 
 62 63  1  0  0  0  0 
 62 64  1  0  0  0  0 
 64 65  1  0  0  0  0 
 64 66  1  0  0  0  0 
 66 67  1  0  0  0  0 
 66 68  1  0  0  0  0 
 66 69  1  0  0  0  0 
 69 70  1  0  0  0  0 
 64 71  1  0  0  0  0 
 56 71  1  0  0  0  0 
 62 72  1  0  0  0  0 
 72 73  1  0  0  0  0 
 60 74  1  0  0  0  0 
 74 75  1  0  0  0  0 
 58 76  1  0  0  0  0 
 76 77  1  0  0  0  0 
  5 78  1  0  0  0  0 
 78 79  1  0  0  0  0 
M  END
> <Rank>
2

> <Priority_score>
0.448

> <Reaction_type>
O-deglycosidation

> <Parent_ID>
79

> <Parent_InChI>
InChI=1S/C42H38O20/c43-11-23-31(47)35(51)37(53)41(61-23)59-21-5-1-3-15-25(17-7-13(39(55)56)9-19(45)27(17)33(49)29(15)21)26-16-4-2-6-22(60-42-38(54)36(52)32(48)24(12-44)62-42)30(16)34(50)28-18(26)8-14(40(57)58)10-20(28)46/h1-10,23-26,31-32,35-38,41-48,51-54H,11-12H2,(H,55,56)(H,57,58)

> <Parent_SMILES>
O=C(O)c1cc(O)c2c(c1)C(C1c3cc(C(=O)O)cc(O)c3C(=O)c3c(OC4OC(CO)C(O)C(O)C4O)cccc31)c1cccc(OC3OC(CO)C(O)C(O)C3O)c1C2=O

$$$$
Molecule 79_metabolite 6
  CDK     0516241031

 24 24  0  0  0  0  0  0  0  0999 V2000
   -1.8227    2.4296    0.0000 C   0  0  0  0  0  0  0  0  0  0  0  0
   -0.3455    2.6898    0.0000 H   0  0  0  0  0  0  0  0  0  0  0  0
   -1.8224    3.9296    0.0000 H   0  0  0  0  0  0  0  0  0  0  0  0
   -1.3100    1.0200    0.0000 C   0  0  0  0  0  0  0  0  0  0  0  0
   -2.7872    0.7597    0.0000 H   0  0  0  0  0  0  0  0  0  0  0  0
   -1.3100   -0.4700    0.0000 C   0  0  0  0  0  0  0  0  0  0  0  0
   -2.7867   -0.2069    0.0000 H   0  0  0  0  0  0  0  0  0  0  0  0
   -0.0100   -1.2300    0.0000 C   0  0  0  0  0  0  0  0  0  0  0  0
   -0.9788   -2.3752    0.0000 H   0  0  0  0  0  0  0  0  0  0  0  0
    1.3100   -0.4700    0.0000 C   0  0  0  0  0  0  0  0  0  0  0  0
    1.8219   -1.8799    0.0000 H   0  0  0  0  0  0  0  0  0  0  0  0
    1.3100    1.0200    0.0000 C   0  0  0  0  0  0  0  0  0  0  0  0
    2.7878    0.7629    0.0000 H   0  0  0  0  0  0  0  0  0  0  0  0
    1.8165    2.4319    0.0000 O   0  0  0  0  0  0  0  0  0  0  0  0
    3.2925    2.6992    0.0000 H   0  0  0  0  0  0  0  0  0  0  0  0
   -0.0100    1.7700    0.0000 O   0  0  0  0  0  0  0  0  0  0  0  0
    2.7873   -0.2101    0.0000 O   0  0  0  0  0  0  0  0  0  0  0  0
    3.7510   -1.3596    0.0000 H   0  0  0  0  0  0  0  0  0  0  0  0
    0.9512   -2.3816    0.0000 O   0  0  0  0  0  0  0  0  0  0  0  0
    0.4345   -3.7898    0.0000 H   0  0  0  0  0  0  0  0  0  0  0  0
   -1.8281   -1.8777    0.0000 O   0  0  0  0  0  0  0  0  0  0  0  0
   -3.3063   -2.1328    0.0000 H   0  0  0  0  0  0  0  0  0  0  0  0
   -3.2999    2.6904    0.0000 O   0  0  0  0  0  0  0  0  0  0  0  0
   -3.8126    4.1001    0.0000 H   0  0  0  0  0  0  0  0  0  0  0  0
  1  2  1  0  0  0  0 
  1  3  1  0  0  0  0 
  1  4  1  0  0  0  0 
  4  5  1  0  0  0  0 
  4  6  1  0  0  0  0 
  6  7  1  0  0  0  0 
  6  8  1  0  0  0  0 
  8  9  1  0  0  0  0 
  8 10  1  0  0  0  0 
 10 11  1  0  0  0  0 
 10 12  1  0  0  0  0 
 12 13  1  0  0  0  0 
 12 14  1  0  0  0  0 
 14 15  1  0  0  0  0 
 12 16  1  0  0  0  0 
  4 16  1  0  0  0  0 
 10 17  1  0  0  0  0 
 17 18  1  0  0  0  0 
  8 19  1  0  0  0  0 
 19 20  1  0  0  0  0 
  6 21  1  0  0  0  0 
 21 22  1  0  0  0  0 
  1 23  1  0  0  0  0 
 23 24  1  0  0  0  0 
M  END
> <Rank>
2

> <Priority_score>
0.448

> <Reaction_type>
O-deglycosidation

> <Parent_ID>
79

> <Parent_InChI>
InChI=1S/C42H38O20/c43-11-23-31(47)35(51)37(53)41(61-23)59-21-5-1-3-15-25(17-7-13(39(55)56)9-19(45)27(17)33(49)29(15)21)26-16-4-2-6-22(60-42-38(54)36(52)32(48)24(12-44)62-42)30(16)34(50)28-18(26)8-14(40(57)58)10-20(28)46/h1-10,23-26,31-32,35-38,41-48,51-54H,11-12H2,(H,55,56)(H,57,58)

> <Parent_SMILES>
O=C(O)c1cc(O)c2c(c1)C(C1c3cc(C(=O)O)cc(O)c3C(=O)c3c(OC4OC(CO)C(O)C(O)C4O)cccc31)c1cccc(OC3OC(CO)C(O)C(O)C3O)c1C2=O

$$$$
Molecule 79_metabolite 7
  CDK     0516241031

101107  0  0  0  0  0  0  0  0999 V2000
   -9.5038    6.1100    0.0000 C   0  0  0  0  0  0  0  0  0  0  0  0
  -10.4680    4.9610    0.0000 H   0  0  0  0  0  0  0  0  0  0  0  0
  -10.0165    7.5197    0.0000 C   0  0  0  0  0  0  0  0  0  0  0  0
  -11.4936    7.7807    0.0000 H   0  0  0  0  0  0  0  0  0  0  0  0
   -9.0512    8.6689    0.0000 C   0  0  0  0  0  0  0  0  0  0  0  0
   -7.5731    8.4084    0.0000 C   0  0  0  0  0  0  0  0  0  0  0  0
   -7.0604    6.9987    0.0000 C   0  0  0  0  0  0  0  0  0  0  0  0
   -8.0257    5.8496    0.0000 C   0  0  0  0  0  0  0  0  0  0  0  0
   -7.5130    4.4399    0.0000 H   0  0  0  0  0  0  0  0  0  0  0  0
   -5.5823    6.7383    0.0000 C   0  0  0  0  0  0  0  0  0  0  0  0
   -6.0955    5.3288    0.0000 H   0  0  0  0  0  0  0  0  0  0  0  0
   -4.6170    7.8875    0.0000 C   0  0  0  0  0  0  0  0  0  0  0  0
   -3.1389    7.6270    0.0000 C   0  0  0  0  0  0  0  0  0  0  0  0
   -2.6262    6.2174    0.0000 H   0  0  0  0  0  0  0  0  0  0  0  0
   -2.1736    8.7762    0.0000 C   0  0  0  0  0  0  0  0  0  0  0  0
   -2.6863   10.1859    0.0000 C   0  0  0  0  0  0  0  0  0  0  0  0
   -1.7221   11.3349    0.0000 H   0  0  0  0  0  0  0  0  0  0  0  0
   -4.1644   10.4463    0.0000 C   0  0  0  0  0  0  0  0  0  0  0  0
   -5.1297    9.2971    0.0000 C   0  0  0  0  0  0  0  0  0  0  0  0
   -6.6078    9.5576    0.0000 C   0  0  0  0  0  0  0  0  0  0  0  0
   -7.1205   10.9672    0.0000 O   0  0  0  0  0  0  0  0  0  0  0  0
   -4.6771   11.8560    0.0000 O   0  0  0  0  0  0  0  0  0  0  0  0
   -3.7127   13.0048    0.0000 H   0  0  0  0  0  0  0  0  0  0  0  0
   -0.6965    8.5152    0.0000 C   0  0  0  0  0  0  0  0  0  0  0  0
   -0.1840    7.1055    0.0000 O   0  0  0  0  0  0  0  0  0  0  0  0
    0.2681    9.6639    0.0000 O   0  0  0  0  0  0  0  0  0  0  0  0
    1.7453    9.4029    0.0000 H   0  0  0  0  0  0  0  0  0  0  0  0
   -3.4523    5.5076    0.0000 C   0  0  0  0  0  0  0  0  0  0  0  0
   -2.9391    6.9171    0.0000 H   0  0  0  0  0  0  0  0  0  0  0  0
   -4.4176    4.3584    0.0000 C   0  0  0  0  0  0  0  0  0  0  0  0
   -5.8957    4.6189    0.0000 C   0  0  0  0  0  0  0  0  0  0  0  0
   -6.4084    6.0285    0.0000 H   0  0  0  0  0  0  0  0  0  0  0  0
   -6.8610    3.4697    0.0000 C   0  0  0  0  0  0  0  0  0  0  0  0
   -8.3381    3.7307    0.0000 H   0  0  0  0  0  0  0  0  0  0  0  0
   -6.3483    2.0600    0.0000 C   0  0  0  0  0  0  0  0  0  0  0  0
   -7.3125    0.9110    0.0000 H   0  0  0  0  0  0  0  0  0  0  0  0
   -4.8702    1.7996    0.0000 C   0  0  0  0  0  0  0  0  0  0  0  0
   -3.9049    2.9488    0.0000 C   0  0  0  0  0  0  0  0  0  0  0  0
   -2.4268    2.6883    0.0000 C   0  0  0  0  0  0  0  0  0  0  0  0
   -1.9141    1.2787    0.0000 O   0  0  0  0  0  0  0  0  0  0  0  0
   -1.4615    3.8375    0.0000 C   0  0  0  0  0  0  0  0  0  0  0  0
    0.0166    3.5770    0.0000 C   0  0  0  0  0  0  0  0  0  0  0  0
    0.9819    4.7262    0.0000 C   0  0  0  0  0  0  0  0  0  0  0  0
    2.4590    4.4652    0.0000 H   0  0  0  0  0  0  0  0  0  0  0  0
    0.4692    6.1359    0.0000 C   0  0  0  0  0  0  0  0  0  0  0  0
   -1.0089    6.3963    0.0000 C   0  0  0  0  0  0  0  0  0  0  0  0
   -1.5216    7.8060    0.0000 H   0  0  0  0  0  0  0  0  0  0  0  0
   -1.9742    5.2471    0.0000 C   0  0  0  0  0  0  0  0  0  0  0  0
    1.4334    7.2849    0.0000 C   0  0  0  0  0  0  0  0  0  0  0  0
    0.9205    8.6945    0.0000 O   0  0  0  0  0  0  0  0  0  0  0  0
    2.9106    7.0243    0.0000 O   0  0  0  0  0  0  0  0  0  0  0  0
    3.8749    8.1734    0.0000 H   0  0  0  0  0  0  0  0  0  0  0  0
    0.5293    2.1674    0.0000 O   0  0  0  0  0  0  0  0  0  0  0  0
    2.0065    1.9066    0.0000 H   0  0  0  0  0  0  0  0  0  0  0  0
   -4.3575    0.3899    0.0000 O   0  0  0  0  0  0  0  0  0  0  0  0
   -5.3219   -0.7589    0.0000 C   0  0  0  0  0  0  0  0  0  0  0  0
   -6.2885    0.3881    0.0000 H   0  0  0  0  0  0  0  0  0  0  0  0
   -4.0334   -1.5072    0.0000 C   0  0  0  0  0  0  0  0  0  0  0  0
   -2.5571   -1.7725    0.0000 H   0  0  0  0  0  0  0  0  0  0  0  0
   -4.0391   -3.0303    0.0000 C   0  0  0  0  0  0  0  0  0  0  0  0
   -3.5352   -4.4432    0.0000 H   0  0  0  0  0  0  0  0  0  0  0  0
   -5.3491   -3.7729    0.0000 C   0  0  0  0  0  0  0  0  0  0  0  0
   -6.3182   -4.9177    0.0000 H   0  0  0  0  0  0  0  0  0  0  0  0
   -6.6376   -3.0246    0.0000 C   0  0  0  0  0  0  0  0  0  0  0  0
   -8.1141   -2.7601    0.0000 H   0  0  0  0  0  0  0  0  0  0  0  0
   -7.4850   -5.3340    0.0000 C   0  0  0  0  0  0  0  0  0  0  0  0
   -8.4522   -6.4806    0.0000 H   0  0  0  0  0  0  0  0  0  0  0  0
   -8.7821   -4.5806    0.0000 H   0  0  0  0  0  0  0  0  0  0  0  0
   -6.5239   -6.4856    0.0000 O   0  0  0  0  0  0  0  0  0  0  0  0
   -7.0406   -7.8938    0.0000 H   0  0  0  0  0  0  0  0  0  0  0  0
   -6.6334   -1.5238    0.0000 O   0  0  0  0  0  0  0  0  0  0  0  0
   -4.3920   -4.9278    0.0000 O   0  0  0  0  0  0  0  0  0  0  0  0
   -4.9137   -6.3342    0.0000 H   0  0  0  0  0  0  0  0  0  0  0  0
   -2.5605   -2.7774    0.0000 O   0  0  0  0  0  0  0  0  0  0  0  0
   -1.6022   -3.9314    0.0000 H   0  0  0  0  0  0  0  0  0  0  0  0
   -3.5163   -0.0991    0.0000 O   0  0  0  0  0  0  0  0  0  0  0  0
   -2.0383    0.1570    0.0000 H   0  0  0  0  0  0  0  0  0  0  0  0
   -9.5639   10.0785    0.0000 O   0  0  0  0  0  0  0  0  0  0  0  0
  -11.0410   10.3393    0.0000 C   0  0  0  0  0  0  0  0  0  0  0  0
  -12.0055    9.1904    0.0000 O   0  0  0  0  0  0  0  0  0  0  0  0
  -11.5538   11.7489    0.0000 C   0  0  0  0  0  0  0  0  0  0  0  0
  -10.0765   12.0091    0.0000 H   0  0  0  0  0  0  0  0  0  0  0  0
  -13.0309   12.0097    0.0000 C   0  0  0  0  0  0  0  0  0  0  0  0
  -14.5082   11.7496    0.0000 H   0  0  0  0  0  0  0  0  0  0  0  0
  -13.7077   13.8705    0.0000 C   0  0  0  0  0  0  0  0  0  0  0  0
  -12.2305   14.1306    0.0000 H   0  0  0  0  0  0  0  0  0  0  0  0
  -15.1849   14.1313    0.0000 C   0  0  0  0  0  0  0  0  0  0  0  0
  -16.6621   13.8711    0.0000 H   0  0  0  0  0  0  0  0  0  0  0  0
  -16.0258   16.4431    0.0000 C   0  0  0  0  0  0  0  0  0  0  0  0
  -14.5485   16.7032    0.0000 H   0  0  0  0  0  0  0  0  0  0  0  0
  -16.0254   17.9431    0.0000 H   0  0  0  0  0  0  0  0  0  0  0  0
  -17.5029   16.7039    0.0000 O   0  0  0  0  0  0  0  0  0  0  0  0
  -18.0156   18.1135    0.0000 H   0  0  0  0  0  0  0  0  0  0  0  0
  -15.1852   12.6313    0.0000 O   0  0  0  0  0  0  0  0  0  0  0  0
  -16.4844   11.8815    0.0000 H   0  0  0  0  0  0  0  0  0  0  0  0
  -13.7074   15.3705    0.0000 O   0  0  0  0  0  0  0  0  0  0  0  0
  -12.4082   16.1202    0.0000 H   0  0  0  0  0  0  0  0  0  0  0  0
  -13.0312   10.5097    0.0000 O   0  0  0  0  0  0  0  0  0  0  0  0
  -14.3304    9.7600    0.0000 H   0  0  0  0  0  0  0  0  0  0  0  0
  -11.5534   13.2489    0.0000 O   0  0  0  0  0  0  0  0  0  0  0  0
  -10.2542   13.9987    0.0000 H   0  0  0  0  0  0  0  0  0  0  0  0
  1  2  1  0  0  0  0 
  1  3  2  0  0  0  0 
  3  4  1  0  0  0  0 
  3  5  1  0  0  0  0 
  5  6  2  0  0  0  0 
  6  7  1  0  0  0  0 
  7  8  2  0  0  0  0 
  1  8  1  0  0  0  0 
  8  9  1  0  0  0  0 
  7 10  1  0  0  0  0 
 10 11  1  0  0  0  0 
 10 12  1  0  0  0  0 
 12 13  2  0  0  0  0 
 13 14  1  0  0  0  0 
 13 15  1  0  0  0  0 
 15 16  2  0  0  0  0 
 16 17  1  0  0  0  0 
 16 18  1  0  0  0  0 
 18 19  2  0  0  0  0 
 12 19  1  0  0  0  0 
 19 20  1  0  0  0  0 
  6 20  1  0  0  0  0 
 20 21  2  0  0  0  0 
 18 22  1  0  0  0  0 
 22 23  1  0  0  0  0 
 15 24  1  0  0  0  0 
 24 25  2  0  0  0  0 
 24 26  1  0  0  0  0 
 26 27  1  0  0  0  0 
 10 28  1  0  0  0  0 
 28 29  1  0  0  0  0 
 28 30  1  0  0  0  0 
 30 31  2  0  0  0  0 
 31 32  1  0  0  0  0 
 31 33  1  0  0  0  0 
 33 34  1  0  0  0  0 
 33 35  2  0  0  0  0 
 35 36  1  0  0  0  0 
 35 37  1  0  0  0  0 
 37 38  2  0  0  0  0 
 30 38  1  0  0  0  0 
 38 39  1  0  0  0  0 
 39 40  2  0  0  0  0 
 39 41  1  0  0  0  0 
 41 42  2  0  0  0  0 
 42 43  1  0  0  0  0 
 43 44  1  0  0  0  0 
 43 45  2  0  0  0  0 
 45 46  1  0  0  0  0 
 46 47  1  0  0  0  0 
 46 48  2  0  0  0  0 
 28 48  1  0  0  0  0 
 41 48  1  0  0  0  0 
 45 49  1  0  0  0  0 
 49 50  2  0  0  0  0 
 49 51  1  0  0  0  0 
 51 52  1  0  0  0  0 
 42 53  1  0  0  0  0 
 53 54  1  0  0  0  0 
 37 55  1  0  0  0  0 
 55 56  1  0  0  0  0 
 56 57  1  0  0  0  0 
 56 58  1  0  0  0  0 
 58 59  1  0  0  0  0 
 58 60  1  0  0  0  0 
 60 61  1  0  0  0  0 
 60 62  1  0  0  0  0 
 62 63  1  0  0  0  0 
 62 64  1  0  0  0  0 
 64 65  1  0  0  0  0 
 64 66  1  0  0  0  0 
 66 67  1  0  0  0  0 
 66 68  1  0  0  0  0 
 66 69  1  0  0  0  0 
 69 70  1  0  0  0  0 
 64 71  1  0  0  0  0 
 56 71  1  0  0  0  0 
 62 72  1  0  0  0  0 
 72 73  1  0  0  0  0 
 60 74  1  0  0  0  0 
 74 75  1  0  0  0  0 
 58 76  1  0  0  0  0 
 76 77  1  0  0  0  0 
  5 78  1  0  0  0  0 
 78 79  1  0  0  0  0 
 79 80  2  0  0  0  0 
 79 81  1  0  0  0  0 
 81 82  1  0  0  0  0 
 81 83  1  0  0  0  0 
 83 84  1  0  0  0  0 
 83 85  1  0  0  0  0 
 85 86  1  0  0  0  0 
 85 87  1  0  0  0  0 
 87 88  1  0  0  0  0 
 87 89  1  0  0  0  0 
 89 90  1  0  0  0  0 
 89 91  1  0  0  0  0 
 89 92  1  0  0  0  0 
 92 93  1  0  0  0  0 
 87 94  1  0  0  0  0 
 94 95  1  0  0  0  0 
 85 96  1  0  0  0  0 
 96 97  1  0  0  0  0 
 83 98  1  0  0  0  0 
 98 99  1  0  0  0  0 
 81100  1  0  0  0  0 
100101  1  0  0  0  0 
M  END
> <Rank>
2

> <Priority_score>
0.448

> <Reaction_type>
oxidative ether cleavage to one alcohol and one aldehyde/ketone

> <Parent_ID>
79

> <Parent_InChI>
InChI=1S/C42H38O20/c43-11-23-31(47)35(51)37(53)41(61-23)59-21-5-1-3-15-25(17-7-13(39(55)56)9-19(45)27(17)33(49)29(15)21)26-16-4-2-6-22(60-42-38(54)36(52)32(48)24(12-44)62-42)30(16)34(50)28-18(26)8-14(40(57)58)10-20(28)46/h1-10,23-26,31-32,35-38,41-48,51-54H,11-12H2,(H,55,56)(H,57,58)

> <Parent_SMILES>
O=C(O)c1cc(O)c2c(c1)C(C1c3cc(C(=O)O)cc(O)c3C(=O)c3c(OC4OC(CO)C(O)C(O)C4O)cccc31)c1cccc(OC3OC(CO)C(O)C(O)C3O)c1C2=O

$$$$
Molecule 79_metabolite 8
  CDK     0516241031

120128  0  0  0  0  0  0  0  0999 V2000
  -12.5943    2.3917    0.0000 C   0  0  0  0  0  0  0  0  0  0  0  0
  -12.0814    3.8013    0.0000 H   0  0  0  0  0  0  0  0  0  0  0  0
  -14.0715    2.1309    0.0000 C   0  0  0  0  0  0  0  0  0  0  0  0
  -15.0361    3.2797    0.0000 H   0  0  0  0  0  0  0  0  0  0  0  0
  -14.5841    0.7204    0.0000 C   0  0  0  0  0  0  0  0  0  0  0  0
  -13.6195   -0.4295    0.0000 C   0  0  0  0  0  0  0  0  0  0  0  0
  -12.1423   -0.1687    0.0000 C   0  0  0  0  0  0  0  0  0  0  0  0
  -11.6297    1.2419    0.0000 C   0  0  0  0  0  0  0  0  0  0  0  0
  -10.1526    1.5027    0.0000 H   0  0  0  0  0  0  0  0  0  0  0  0
  -11.1777   -1.3185    0.0000 C   0  0  0  0  0  0  0  0  0  0  0  0
  -10.2136   -0.1693    0.0000 H   0  0  0  0  0  0  0  0  0  0  0  0
  -11.6903   -2.7291    0.0000 C   0  0  0  0  0  0  0  0  0  0  0  0
  -10.7257   -3.8789    0.0000 C   0  0  0  0  0  0  0  0  0  0  0  0
   -9.2485   -3.6181    0.0000 H   0  0  0  0  0  0  0  0  0  0  0  0
  -11.2382   -5.2895    0.0000 C   0  0  0  0  0  0  0  0  0  0  0  0
  -12.7154   -5.5503    0.0000 C   0  0  0  0  0  0  0  0  0  0  0  0
  -13.2283   -6.9598    0.0000 H   0  0  0  0  0  0  0  0  0  0  0  0
  -13.6800   -4.4005    0.0000 C   0  0  0  0  0  0  0  0  0  0  0  0
  -13.1674   -2.9899    0.0000 C   0  0  0  0  0  0  0  0  0  0  0  0
  -14.1320   -1.8401    0.0000 C   0  0  0  0  0  0  0  0  0  0  0  0
  -15.6092   -2.1008    0.0000 O   0  0  0  0  0  0  0  0  0  0  0  0
  -15.1571   -4.6612    0.0000 O   0  0  0  0  0  0  0  0  0  0  0  0
  -15.6699   -6.0709    0.0000 H   0  0  0  0  0  0  0  0  0  0  0  0
  -10.2736   -6.4382    0.0000 C   0  0  0  0  0  0  0  0  0  0  0  0
   -8.7965   -6.1772    0.0000 O   0  0  0  0  0  0  0  0  0  0  0  0
  -10.7861   -7.8479    0.0000 O   0  0  0  0  0  0  0  0  0  0  0  0
   -9.8215   -8.9966    0.0000 H   0  0  0  0  0  0  0  0  0  0  0  0
   -9.0469   -2.5478    0.0000 C   0  0  0  0  0  0  0  0  0  0  0  0
  -10.0110   -3.6970    0.0000 H   0  0  0  0  0  0  0  0  0  0  0  0
   -8.5343   -1.1372    0.0000 C   0  0  0  0  0  0  0  0  0  0  0  0
   -9.4989    0.0126    0.0000 C   0  0  0  0  0  0  0  0  0  0  0  0
  -10.9761   -0.2482    0.0000 H   0  0  0  0  0  0  0  0  0  0  0  0
   -8.9864    1.4232    0.0000 C   0  0  0  0  0  0  0  0  0  0  0  0
   -9.9510    2.5719    0.0000 H   0  0  0  0  0  0  0  0  0  0  0  0
   -7.5092    1.6840    0.0000 C   0  0  0  0  0  0  0  0  0  0  0  0
   -6.9963    3.0936    0.0000 H   0  0  0  0  0  0  0  0  0  0  0  0
   -6.5446    0.5342    0.0000 C   0  0  0  0  0  0  0  0  0  0  0  0
   -7.0572   -0.8764    0.0000 C   0  0  0  0  0  0  0  0  0  0  0  0
   -6.0926   -2.0262    0.0000 C   0  0  0  0  0  0  0  0  0  0  0  0
   -4.6154   -1.7654    0.0000 O   0  0  0  0  0  0  0  0  0  0  0  0
   -6.6051   -3.4368    0.0000 C   0  0  0  0  0  0  0  0  0  0  0  0
   -5.6405   -4.5866    0.0000 C   0  0  0  0  0  0  0  0  0  0  0  0
   -6.1531   -5.9972    0.0000 C   0  0  0  0  0  0  0  0  0  0  0  0
   -5.1885   -7.1459    0.0000 H   0  0  0  0  0  0  0  0  0  0  0  0
   -7.6303   -6.2580    0.0000 C   0  0  0  0  0  0  0  0  0  0  0  0
   -8.5949   -5.1082    0.0000 C   0  0  0  0  0  0  0  0  0  0  0  0
  -10.0720   -5.3690    0.0000 H   0  0  0  0  0  0  0  0  0  0  0  0
   -8.0823   -3.6976    0.0000 C   0  0  0  0  0  0  0  0  0  0  0  0
   -8.1432   -7.6676    0.0000 C   0  0  0  0  0  0  0  0  0  0  0  0
   -9.6204   -7.9281    0.0000 O   0  0  0  0  0  0  0  0  0  0  0  0
   -7.1790   -8.8166    0.0000 O   0  0  0  0  0  0  0  0  0  0  0  0
   -7.6919  -10.2262    0.0000 H   0  0  0  0  0  0  0  0  0  0  0  0
   -4.1634   -4.3258    0.0000 O   0  0  0  0  0  0  0  0  0  0  0  0
   -3.1990   -5.4747    0.0000 C   0  0  0  0  0  0  0  0  0  0  0  0
   -4.4961   -6.2280    0.0000 H   0  0  0  0  0  0  0  0  0  0  0  0
   -2.2388   -4.3353    0.0000 C   0  0  0  0  0  0  0  0  0  0  0  0
   -1.7217   -2.9272    0.0000 H   0  0  0  0  0  0  0  0  0  0  0  0
   -0.7397   -4.6047    0.0000 C   0  0  0  0  0  0  0  0  0  0  0  0
    0.7391   -4.3533    0.0000 H   0  0  0  0  0  0  0  0  0  0  0  0
   -0.2353   -6.0236    0.0000 C   0  0  0  0  0  0  0  0  0  0  0  0
    0.7244   -7.1764    0.0000 H   0  0  0  0  0  0  0  0  0  0  0  0
   -1.1954   -7.1630    0.0000 C   0  0  0  0  0  0  0  0  0  0  0  0
   -1.7117   -8.5713    0.0000 H   0  0  0  0  0  0  0  0  0  0  0  0
    1.3474   -8.6386    0.0000 C   0  0  0  0  0  0  0  0  0  0  0  0
    2.6481   -7.8914    0.0000 O   0  0  0  0  0  0  0  0  0  0  0  0
    1.3441  -10.1386    0.0000 O   0  0  0  0  0  0  0  0  0  0  0  0
    2.6415  -10.8914    0.0000 H   0  0  0  0  0  0  0  0  0  0  0  0
   -2.6728   -6.8988    0.0000 O   0  0  0  0  0  0  0  0  0  0  0  0
    1.0680   -5.2810    0.0000 O   0  0  0  0  0  0  0  0  0  0  0  0
    2.3627   -6.0384    0.0000 H   0  0  0  0  0  0  0  0  0  0  0  0
   -0.7327   -3.1047    0.0000 O   0  0  0  0  0  0  0  0  0  0  0  0
    0.5699   -2.3608    0.0000 H   0  0  0  0  0  0  0  0  0  0  0  0
   -3.5360   -3.5821    0.0000 O   0  0  0  0  0  0  0  0  0  0  0  0
   -3.5323   -2.0821    0.0000 H   0  0  0  0  0  0  0  0  0  0  0  0
   -5.0675    0.7950    0.0000 O   0  0  0  0  0  0  0  0  0  0  0  0
   -4.5547    2.2046    0.0000 C   0  0  0  0  0  0  0  0  0  0  0  0
   -6.0314    2.4682    0.0000 H   0  0  0  0  0  0  0  0  0  0  0  0
   -3.2625    1.4629    0.0000 C   0  0  0  0  0  0  0  0  0  0  0  0
   -2.2945    0.3170    0.0000 H   0  0  0  0  0  0  0  0  0  0  0  0
   -1.9462    2.2293    0.0000 C   0  0  0  0  0  0  0  0  0  0  0  0
   -0.4707    2.4995    0.0000 H   0  0  0  0  0  0  0  0  0  0  0  0
   -1.9582    3.7351    0.0000 C   0  0  0  0  0  0  0  0  0  0  0  0
   -1.4513    5.1469    0.0000 H   0  0  0  0  0  0  0  0  0  0  0  0
   -3.2504    4.4769    0.0000 C   0  0  0  0  0  0  0  0  0  0  0  0
   -4.2178    5.6233    0.0000 H   0  0  0  0  0  0  0  0  0  0  0  0
   -1.3666    6.7340    0.0000 C   0  0  0  0  0  0  0  0  0  0  0  0
   -0.0695    7.4874    0.0000 H   0  0  0  0  0  0  0  0  0  0  0  0
   -0.3994    5.5875    0.0000 H   0  0  0  0  0  0  0  0  0  0  0  0
   -1.8833    8.1422    0.0000 O   0  0  0  0  0  0  0  0  0  0  0  0
   -0.9221    9.2938    0.0000 H   0  0  0  0  0  0  0  0  0  0  0  0
   -4.5481    3.7228    0.0000 O   0  0  0  0  0  0  0  0  0  0  0  0
   -0.4794    3.4837    0.0000 O   0  0  0  0  0  0  0  0  0  0  0  0
    0.4777    4.6387    0.0000 H   0  0  0  0  0  0  0  0  0  0  0  0
   -1.4260    0.8224    0.0000 O   0  0  0  0  0  0  0  0  0  0  0  0
    0.0525    0.5695    0.0000 H   0  0  0  0  0  0  0  0  0  0  0  0
   -4.2233    0.3110    0.0000 O   0  0  0  0  0  0  0  0  0  0  0  0
   -3.7062   -1.0970    0.0000 H   0  0  0  0  0  0  0  0  0  0  0  0
  -16.0612    0.4596    0.0000 O   0  0  0  0  0  0  0  0  0  0  0  0
  -17.0256    1.6084    0.0000 C   0  0  0  0  0  0  0  0  0  0  0  0
  -15.7285    2.3617    0.0000 H   0  0  0  0  0  0  0  0  0  0  0  0
  -17.9858    0.4690    0.0000 C   0  0  0  0  0  0  0  0  0  0  0  0
  -18.5029   -0.9390    0.0000 H   0  0  0  0  0  0  0  0  0  0  0  0
  -19.4849    0.7384    0.0000 C   0  0  0  0  0  0  0  0  0  0  0  0
  -20.9637    0.4870    0.0000 H   0  0  0  0  0  0  0  0  0  0  0  0
  -19.9893    2.1573    0.0000 C   0  0  0  0  0  0  0  0  0  0  0  0
  -20.9490    3.3101    0.0000 H   0  0  0  0  0  0  0  0  0  0  0  0
  -19.0292    3.2967    0.0000 C   0  0  0  0  0  0  0  0  0  0  0  0
  -18.5129    4.7051    0.0000 H   0  0  0  0  0  0  0  0  0  0  0  0
  -21.5720    4.7723    0.0000 C   0  0  0  0  0  0  0  0  0  0  0  0
  -23.0487    5.0360    0.0000 H   0  0  0  0  0  0  0  0  0  0  0  0
  -22.0882    3.3639    0.0000 H   0  0  0  0  0  0  0  0  0  0  0  0
  -21.5687    6.2723    0.0000 O   0  0  0  0  0  0  0  0  0  0  0  0
  -22.8661    7.0251    0.0000 H   0  0  0  0  0  0  0  0  0  0  0  0
  -17.5518    3.0325    0.0000 O   0  0  0  0  0  0  0  0  0  0  0  0
  -21.2926    1.4147    0.0000 O   0  0  0  0  0  0  0  0  0  0  0  0
  -22.5873    2.1721    0.0000 H   0  0  0  0  0  0  0  0  0  0  0  0
  -19.4920   -0.7615    0.0000 O   0  0  0  0  0  0  0  0  0  0  0  0
  -20.7945   -1.5054    0.0000 H   0  0  0  0  0  0  0  0  0  0  0  0
  -16.6886   -0.2842    0.0000 O   0  0  0  0  0  0  0  0  0  0  0  0
  -16.6923   -1.7842    0.0000 H   0  0  0  0  0  0  0  0  0  0  0  0
  1  2  1  0  0  0  0 
  1  3  2  0  0  0  0 
  3  4  1  0  0  0  0 
  3  5  1  0  0  0  0 
  5  6  2  0  0  0  0 
  6  7  1  0  0  0  0 
  7  8  2  0  0  0  0 
  1  8  1  0  0  0  0 
  8  9  1  0  0  0  0 
  7 10  1  0  0  0  0 
 10 11  1  0  0  0  0 
 10 12  1  0  0  0  0 
 12 13  2  0  0  0  0 
 13 14  1  0  0  0  0 
 13 15  1  0  0  0  0 
 15 16  2  0  0  0  0 
 16 17  1  0  0  0  0 
 16 18  1  0  0  0  0 
 18 19  2  0  0  0  0 
 12 19  1  0  0  0  0 
 19 20  1  0  0  0  0 
  6 20  1  0  0  0  0 
 20 21  2  0  0  0  0 
 18 22  1  0  0  0  0 
 22 23  1  0  0  0  0 
 15 24  1  0  0  0  0 
 24 25  2  0  0  0  0 
 24 26  1  0  0  0  0 
 26 27  1  0  0  0  0 
 10 28  1  0  0  0  0 
 28 29  1  0  0  0  0 
 28 30  1  0  0  0  0 
 30 31  2  0  0  0  0 
 31 32  1  0  0  0  0 
 31 33  1  0  0  0  0 
 33 34  1  0  0  0  0 
 33 35  2  0  0  0  0 
 35 36  1  0  0  0  0 
 35 37  1  0  0  0  0 
 37 38  2  0  0  0  0 
 30 38  1  0  0  0  0 
 38 39  1  0  0  0  0 
 39 40  2  0  0  0  0 
 39 41  1  0  0  0  0 
 41 42  2  0  0  0  0 
 42 43  1  0  0  0  0 
 43 44  1  0  0  0  0 
 43 45  2  0  0  0  0 
 45 46  1  0  0  0  0 
 46 47  1  0  0  0  0 
 46 48  2  0  0  0  0 
 28 48  1  0  0  0  0 
 41 48  1  0  0  0  0 
 45 49  1  0  0  0  0 
 49 50  2  0  0  0  0 
 49 51  1  0  0  0  0 
 51 52  1  0  0  0  0 
 42 53  1  0  0  0  0 
 53 54  1  0  0  0  0 
 54 55  1  0  0  0  0 
 54 56  1  0  0  0  0 
 56 57  1  0  0  0  0 
 56 58  1  0  0  0  0 
 58 59  1  0  0  0  0 
 58 60  1  0  0  0  0 
 60 61  1  0  0  0  0 
 60 62  1  0  0  0  0 
 62 63  1  0  0  0  0 
 62 64  1  0  0  0  0 
 64 65  2  0  0  0  0 
 64 66  1  0  0  0  0 
 66 67  1  0  0  0  0 
 62 68  1  0  0  0  0 
 54 68  1  0  0  0  0 
 60 69  1  0  0  0  0 
 69 70  1  0  0  0  0 
 58 71  1  0  0  0  0 
 71 72  1  0  0  0  0 
 56 73  1  0  0  0  0 
 73 74  1  0  0  0  0 
 37 75  1  0  0  0  0 
 75 76  1  0  0  0  0 
 76 77  1  0  0  0  0 
 76 78  1  0  0  0  0 
 78 79  1  0  0  0  0 
 78 80  1  0  0  0  0 
 80 81  1  0  0  0  0 
 80 82  1  0  0  0  0 
 82 83  1  0  0  0  0 
 82 84  1  0  0  0  0 
 84 85  1  0  0  0  0 
 84 86  1  0  0  0  0 
 86 87  1  0  0  0  0 
 86 88  1  0  0  0  0 
 86 89  1  0  0  0  0 
 89 90  1  0  0  0  0 
 84 91  1  0  0  0  0 
 76 91  1  0  0  0  0 
 82 92  1  0  0  0  0 
 92 93  1  0  0  0  0 
 80 94  1  0  0  0  0 
 94 95  1  0  0  0  0 
 78 96  1  0  0  0  0 
 96 97  1  0  0  0  0 
  5 98  1  0  0  0  0 
 98 99  1  0  0  0  0 
 99100  1  0  0  0  0 
 99101  1  0  0  0  0 
101102  1  0  0  0  0 
101103  1  0  0  0  0 
103104  1  0  0  0  0 
103105  1  0  0  0  0 
105106  1  0  0  0  0 
105107  1  0  0  0  0 
107108  1  0  0  0  0 
107109  1  0  0  0  0 
109110  1  0  0  0  0 
109111  1  0  0  0  0 
109112  1  0  0  0  0 
112113  1  0  0  0  0 
107114  1  0  0  0  0 
 99114  1  0  0  0  0 
105115  1  0  0  0  0 
115116  1  0  0  0  0 
103117  1  0  0  0  0 
117118  1  0  0  0  0 
101119  1  0  0  0  0 
119120  1  0  0  0  0 
M  END
> <Rank>
8

> <Priority_score>
0.364

> <Reaction_type>
O-glucuronidation_(aromatic_hydroxyl)

> <Parent_ID>
79

> <Parent_InChI>
InChI=1S/C42H38O20/c43-11-23-31(47)35(51)37(53)41(61-23)59-21-5-1-3-15-25(17-7-13(39(55)56)9-19(45)27(17)33(49)29(15)21)26-16-4-2-6-22(60-42-38(54)36(52)32(48)24(12-44)62-42)30(16)34(50)28-18(26)8-14(40(57)58)10-20(28)46/h1-10,23-26,31-32,35-38,41-48,51-54H,11-12H2,(H,55,56)(H,57,58)

> <Parent_SMILES>
O=C(O)c1cc(O)c2c(c1)C(C1c3cc(C(=O)O)cc(O)c3C(=O)c3c(OC4OC(CO)C(O)C(O)C4O)cccc31)c1cccc(OC3OC(CO)C(O)C(O)C3O)c1C2=O

$$$$
Molecule 79_metabolite 9
  CDK     0516241031

103110  0  0  0  0  0  0  0  0999 V2000
    5.7537   -4.4855    0.0000 C   0  0  0  0  0  0  0  0  0  0  0  0
    5.7537   -5.9855    0.0000 H   0  0  0  0  0  0  0  0  0  0  0  0
    7.2309   -4.7459    0.0000 H   0  0  0  0  0  0  0  0  0  0  0  0
    6.2668   -3.0759    0.0000 H   0  0  0  0  0  0  0  0  0  0  0  0
    4.4547   -3.7355    0.0000 O   0  0  0  0  0  0  0  0  0  0  0  0
    4.4547   -2.2355    0.0000 C   0  0  0  0  0  0  0  0  0  0  0  0
    3.1547   -1.4855    0.0000 C   0  0  0  0  0  0  0  0  0  0  0  0
    3.1547    0.0145    0.0000 C   0  0  0  0  0  0  0  0  0  0  0  0
    4.4547    0.7645    0.0000 C   0  0  0  0  0  0  0  0  0  0  0  0
    4.4547    2.2645    0.0000 H   0  0  0  0  0  0  0  0  0  0  0  0
    5.7547    0.0145    0.0000 C   0  0  0  0  0  0  0  0  0  0  0  0
    5.7547   -1.4855    0.0000 C   0  0  0  0  0  0  0  0  0  0  0  0
    7.0536   -2.2357    0.0000 H   0  0  0  0  0  0  0  0  0  0  0  0
    7.0536    0.7647    0.0000 C   0  0  0  0  0  0  0  0  0  0  0  0
    7.0534    2.2647    0.0000 O   0  0  0  0  0  0  0  0  0  0  0  0
    8.3528    0.0149    0.0000 O   0  0  0  0  0  0  0  0  0  0  0  0
    9.6517    0.7652    0.0000 H   0  0  0  0  0  0  0  0  0  0  0  0
    1.8547    0.7645    0.0000 C   0  0  0  0  0  0  0  0  0  0  0  0
    2.8187    1.9137    0.0000 H   0  0  0  0  0  0  0  0  0  0  0  0
    0.5547    0.0145    0.0000 C   0  0  0  0  0  0  0  0  0  0  0  0
   -0.7453    0.7645    0.0000 C   0  0  0  0  0  0  0  0  0  0  0  0
   -0.7453    2.2645    0.0000 H   0  0  0  0  0  0  0  0  0  0  0  0
   -2.0453    0.0145    0.0000 C   0  0  0  0  0  0  0  0  0  0  0  0
   -3.3442    0.7647    0.0000 H   0  0  0  0  0  0  0  0  0  0  0  0
   -2.0453   -1.4855    0.0000 C   0  0  0  0  0  0  0  0  0  0  0  0
   -3.3442   -2.2357    0.0000 H   0  0  0  0  0  0  0  0  0  0  0  0
   -0.7453   -2.2355    0.0000 C   0  0  0  0  0  0  0  0  0  0  0  0
    0.5547   -1.4855    0.0000 C   0  0  0  0  0  0  0  0  0  0  0  0
    1.8547   -2.2355    0.0000 C   0  0  0  0  0  0  0  0  0  0  0  0
    1.8547   -3.7355    0.0000 O   0  0  0  0  0  0  0  0  0  0  0  0
   -0.7453   -3.7355    0.0000 O   0  0  0  0  0  0  0  0  0  0  0  0
   -2.0444   -4.4855    0.0000 C   0  0  0  0  0  0  0  0  0  0  0  0
   -2.5606   -3.0771    0.0000 H   0  0  0  0  0  0  0  0  0  0  0  0
   -1.0892   -5.6291    0.0000 C   0  0  0  0  0  0  0  0  0  0  0  0
    0.2075   -6.3831    0.0000 H   0  0  0  0  0  0  0  0  0  0  0  0
   -1.6152   -7.0585    0.0000 C   0  0  0  0  0  0  0  0  0  0  0  0
   -1.6247   -8.5585    0.0000 H   0  0  0  0  0  0  0  0  0  0  0  0
   -3.1001   -7.3086    0.0000 C   0  0  0  0  0  0  0  0  0  0  0  0
   -4.4022   -8.0532    0.0000 H   0  0  0  0  0  0  0  0  0  0  0  0
   -4.0553   -6.1649    0.0000 C   0  0  0  0  0  0  0  0  0  0  0  0
   -5.3524   -5.4117    0.0000 H   0  0  0  0  0  0  0  0  0  0  0  0
   -5.6410   -8.0456    0.0000 C   0  0  0  0  0  0  0  0  0  0  0  0
   -6.9419   -8.7925    0.0000 H   0  0  0  0  0  0  0  0  0  0  0  0
   -6.6025   -6.8942    0.0000 H   0  0  0  0  0  0  0  0  0  0  0  0
   -5.1314   -9.4564    0.0000 O   0  0  0  0  0  0  0  0  0  0  0  0
   -6.0984  -10.6031    0.0000 H   0  0  0  0  0  0  0  0  0  0  0  0
   -3.5382   -4.7560    0.0000 O   0  0  0  0  0  0  0  0  0  0  0  0
   -2.5955   -8.7211    0.0000 O   0  0  0  0  0  0  0  0  0  0  0  0
   -3.5664   -9.8644    0.0000 H   0  0  0  0  0  0  0  0  0  0  0  0
   -0.1393   -7.3263    0.0000 O   0  0  0  0  0  0  0  0  0  0  0  0
    0.3668   -8.7383    0.0000 H   0  0  0  0  0  0  0  0  0  0  0  0
   -0.1219   -4.4826    0.0000 O   0  0  0  0  0  0  0  0  0  0  0  0
    1.3546   -4.7471    0.0000 H   0  0  0  0  0  0  0  0  0  0  0  0
    0.2736    2.6492    0.0000 C   0  0  0  0  0  0  0  0  0  0  0  0
   -0.6904    1.5000    0.0000 H   0  0  0  0  0  0  0  0  0  0  0  0
    1.5736    3.3992    0.0000 C   0  0  0  0  0  0  0  0  0  0  0  0
    2.8736    2.6492    0.0000 C   0  0  0  0  0  0  0  0  0  0  0  0
    2.8736    1.1492    0.0000 H   0  0  0  0  0  0  0  0  0  0  0  0
    4.1736    3.3992    0.0000 C   0  0  0  0  0  0  0  0  0  0  0  0
    5.4725    2.6490    0.0000 H   0  0  0  0  0  0  0  0  0  0  0  0
    4.1736    4.8992    0.0000 C   0  0  0  0  0  0  0  0  0  0  0  0
    5.4725    5.6494    0.0000 H   0  0  0  0  0  0  0  0  0  0  0  0
    2.8736    5.6492    0.0000 C   0  0  0  0  0  0  0  0  0  0  0  0
    1.5736    4.8992    0.0000 C   0  0  0  0  0  0  0  0  0  0  0  0
    0.2736    5.6492    0.0000 C   0  0  0  0  0  0  0  0  0  0  0  0
    0.2736    7.1492    0.0000 O   0  0  0  0  0  0  0  0  0  0  0  0
   -1.0264    4.8992    0.0000 C   0  0  0  0  0  0  0  0  0  0  0  0
   -2.3264    5.6492    0.0000 C   0  0  0  0  0  0  0  0  0  0  0  0
   -3.6264    4.8992    0.0000 C   0  0  0  0  0  0  0  0  0  0  0  0
   -4.9253    5.6494    0.0000 H   0  0  0  0  0  0  0  0  0  0  0  0
   -3.6264    3.3992    0.0000 C   0  0  0  0  0  0  0  0  0  0  0  0
   -2.3264    2.6492    0.0000 C   0  0  0  0  0  0  0  0  0  0  0  0
   -2.3264    1.1492    0.0000 H   0  0  0  0  0  0  0  0  0  0  0  0
   -1.0264    3.3992    0.0000 C   0  0  0  0  0  0  0  0  0  0  0  0
   -4.9253    2.6490    0.0000 C   0  0  0  0  0  0  0  0  0  0  0  0
   -4.9250    1.1490    0.0000 O   0  0  0  0  0  0  0  0  0  0  0  0
   -6.2244    3.3988    0.0000 O   0  0  0  0  0  0  0  0  0  0  0  0
   -7.5234    2.6485    0.0000 H   0  0  0  0  0  0  0  0  0  0  0  0
   -2.3264    7.1492    0.0000 O   0  0  0  0  0  0  0  0  0  0  0  0
   -3.6254    7.8992    0.0000 H   0  0  0  0  0  0  0  0  0  0  0  0
    2.8736    7.1492    0.0000 O   0  0  0  0  0  0  0  0  0  0  0  0
    1.5746    7.8992    0.0000 C   0  0  0  0  0  0  0  0  0  0  0  0
    1.0583    6.4908    0.0000 H   0  0  0  0  0  0  0  0  0  0  0  0
    2.5297    9.0428    0.0000 C   0  0  0  0  0  0  0  0  0  0  0  0
    3.8264    9.7968    0.0000 H   0  0  0  0  0  0  0  0  0  0  0  0
    2.0038   10.4722    0.0000 C   0  0  0  0  0  0  0  0  0  0  0  0
    1.9943   11.9722    0.0000 H   0  0  0  0  0  0  0  0  0  0  0  0
    0.5188   10.7223    0.0000 C   0  0  0  0  0  0  0  0  0  0  0  0
   -0.7833   11.4669    0.0000 H   0  0  0  0  0  0  0  0  0  0  0  0
   -0.4363    9.5787    0.0000 C   0  0  0  0  0  0  0  0  0  0  0  0
   -1.7335    8.8254    0.0000 H   0  0  0  0  0  0  0  0  0  0  0  0
   -2.0221   11.4593    0.0000 C   0  0  0  0  0  0  0  0  0  0  0  0
   -2.9835   10.3079    0.0000 H   0  0  0  0  0  0  0  0  0  0  0  0
   -3.3229   12.2062    0.0000 H   0  0  0  0  0  0  0  0  0  0  0  0
   -1.5125   12.8701    0.0000 O   0  0  0  0  0  0  0  0  0  0  0  0
   -2.4794   14.0168    0.0000 H   0  0  0  0  0  0  0  0  0  0  0  0
    0.0807    8.1697    0.0000 O   0  0  0  0  0  0  0  0  0  0  0  0
    1.0235   12.1348    0.0000 O   0  0  0  0  0  0  0  0  0  0  0  0
    0.0525   13.2781    0.0000 H   0  0  0  0  0  0  0  0  0  0  0  0
    3.4797   10.7400    0.0000 O   0  0  0  0  0  0  0  0  0  0  0  0
    3.9858   12.1520    0.0000 H   0  0  0  0  0  0  0  0  0  0  0  0
    3.4970    7.8963    0.0000 O   0  0  0  0  0  0  0  0  0  0  0  0
    4.9735    8.1608    0.0000 H   0  0  0  0  0  0  0  0  0  0  0  0
  1  2  1  0  0  0  0 
  1  3  1  0  0  0  0 
  1  4  1  0  0  0  0 
  1  5  1  0  0  0  0 
  5  6  1  0  0  0  0 
  6  7  2  0  0  0  0 
  7  8  1  0  0  0  0 
  8  9  2  0  0  0  0 
  9 10  1  0  0  0  0 
  9 11  1  0  0  0  0 
 11 12  2  0  0  0  0 
  6 12  1  0  0  0  0 
 12 13  1  0  0  0  0 
 11 14  1  0  0  0  0 
 14 15  2  0  0  0  0 
 14 16  1  0  0  0  0 
 16 17  1  0  0  0  0 
  8 18  1  0  0  0  0 
 18 19  1  0  0  0  0 
 18 20  1  0  0  0  0 
 20 21  2  0  0  0  0 
 21 22  1  0  0  0  0 
 21 23  1  0  0  0  0 
 23 24  1  0  0  0  0 
 23 25  2  0  0  0  0 
 25 26  1  0  0  0  0 
 25 27  1  0  0  0  0 
 27 28  2  0  0  0  0 
 20 28  1  0  0  0  0 
 28 29  1  0  0  0  0 
  7 29  1  0  0  0  0 
 29 30  2  0  0  0  0 
 27 31  1  0  0  0  0 
 31 32  1  0  0  0  0 
 32 33  1  0  0  0  0 
 32 34  1  0  0  0  0 
 34 35  1  0  0  0  0 
 34 36  1  0  0  0  0 
 36 37  1  0  0  0  0 
 36 38  1  0  0  0  0 
 38 39  1  0  0  0  0 
 38 40  1  0  0  0  0 
 40 41  1  0  0  0  0 
 40 42  1  0  0  0  0 
 42 43  1  0  0  0  0 
 42 44  1  0  0  0  0 
 42 45  1  0  0  0  0 
 45 46  1  0  0  0  0 
 40 47  1  0  0  0  0 
 32 47  1  0  0  0  0 
 38 48  1  0  0  0  0 
 48 49  1  0  0  0  0 
 36 50  1  0  0  0  0 
 50 51  1  0  0  0  0 
 34 52  1  0  0  0  0 
 52 53  1  0  0  0  0 
 18 54  1  0  0  0  0 
 54 55  1  0  0  0  0 
 54 56  1  0  0  0  0 
 56 57  2  0  0  0  0 
 57 58  1  0  0  0  0 
 57 59  1  0  0  0  0 
 59 60  1  0  0  0  0 
 59 61  2  0  0  0  0 
 61 62  1  0  0  0  0 
 61 63  1  0  0  0  0 
 63 64  2  0  0  0  0 
 56 64  1  0  0  0  0 
 64 65  1  0  0  0  0 
 65 66  2  0  0  0  0 
 65 67  1  0  0  0  0 
 67 68  2  0  0  0  0 
 68 69  1  0  0  0  0 
 69 70  1  0  0  0  0 
 69 71  2  0  0  0  0 
 71 72  1  0  0  0  0 
 72 73  1  0  0  0  0 
 72 74  2  0  0  0  0 
 54 74  1  0  0  0  0 
 67 74  1  0  0  0  0 
 71 75  1  0  0  0  0 
 75 76  2  0  0  0  0 
 75 77  1  0  0  0  0 
 77 78  1  0  0  0  0 
 68 79  1  0  0  0  0 
 79 80  1  0  0  0  0 
 63 81  1  0  0  0  0 
 81 82  1  0  0  0  0 
 82 83  1  0  0  0  0 
 82 84  1  0  0  0  0 
 84 85  1  0  0  0  0 
 84 86  1  0  0  0  0 
 86 87  1  0  0  0  0 
 86 88  1  0  0  0  0 
 88 89  1  0  0  0  0 
 88 90  1  0  0  0  0 
 90 91  1  0  0  0  0 
 90 92  1  0  0  0  0 
 92 93  1  0  0  0  0 
 92 94  1  0  0  0  0 
 92 95  1  0  0  0  0 
 95 96  1  0  0  0  0 
 90 97  1  0  0  0  0 
 82 97  1  0  0  0  0 
 88 98  1  0  0  0  0 
 98 99  1  0  0  0  0 
 86100  1  0  0  0  0 
100101  1  0  0  0  0 
 84102  1  0  0  0  0 
102103  1  0  0  0  0 
M  END
> <Rank>
9

> <Priority_score>
0.3075247524752475

> <Reaction_type>
methylation_(aromatic_OH)

> <Parent_ID>
79

> <Parent_InChI>
InChI=1S/C42H38O20/c43-11-23-31(47)35(51)37(53)41(61-23)59-21-5-1-3-15-25(17-7-13(39(55)56)9-19(45)27(17)33(49)29(15)21)26-16-4-2-6-22(60-42-38(54)36(52)32(48)24(12-44)62-42)30(16)34(50)28-18(26)8-14(40(57)58)10-20(28)46/h1-10,23-26,31-32,35-38,41-48,51-54H,11-12H2,(H,55,56)(H,57,58)

> <Parent_SMILES>
O=C(O)c1cc(O)c2c(c1)C(C1c3cc(C(=O)O)cc(O)c3C(=O)c3c(OC4OC(CO)C(O)C(O)C4O)cccc31)c1cccc(OC3OC(CO)C(O)C(O)C3O)c1C2=O

$$$$
Molecule 79_metabolite 10
  CDK     0516241031

104111  0  0  0  0  0  0  0  0999 V2000
  -11.0413    2.0375    0.0000 C   0  0  0  0  0  0  0  0  0  0  0  0
  -10.5283    3.4471    0.0000 H   0  0  0  0  0  0  0  0  0  0  0  0
  -12.5184    1.7767    0.0000 C   0  0  0  0  0  0  0  0  0  0  0  0
  -13.4830    2.9254    0.0000 H   0  0  0  0  0  0  0  0  0  0  0  0
  -13.0310    0.3661    0.0000 C   0  0  0  0  0  0  0  0  0  0  0  0
  -12.0664   -0.7837    0.0000 C   0  0  0  0  0  0  0  0  0  0  0  0
  -10.5892   -0.5229    0.0000 C   0  0  0  0  0  0  0  0  0  0  0  0
  -10.0767    0.8877    0.0000 C   0  0  0  0  0  0  0  0  0  0  0  0
   -8.5995    1.1485    0.0000 H   0  0  0  0  0  0  0  0  0  0  0  0
   -9.6246   -1.6727    0.0000 C   0  0  0  0  0  0  0  0  0  0  0  0
   -8.6606   -0.5235    0.0000 H   0  0  0  0  0  0  0  0  0  0  0  0
  -10.1372   -3.0833    0.0000 C   0  0  0  0  0  0  0  0  0  0  0  0
   -9.1726   -4.2331    0.0000 C   0  0  0  0  0  0  0  0  0  0  0  0
   -7.6955   -3.9723    0.0000 H   0  0  0  0  0  0  0  0  0  0  0  0
   -9.6852   -5.6437    0.0000 C   0  0  0  0  0  0  0  0  0  0  0  0
  -11.1623   -5.9045    0.0000 C   0  0  0  0  0  0  0  0  0  0  0  0
  -11.6753   -7.3141    0.0000 H   0  0  0  0  0  0  0  0  0  0  0  0
  -12.1269   -4.7547    0.0000 C   0  0  0  0  0  0  0  0  0  0  0  0
  -11.6144   -3.3441    0.0000 C   0  0  0  0  0  0  0  0  0  0  0  0
  -12.5790   -2.1943    0.0000 C   0  0  0  0  0  0  0  0  0  0  0  0
  -14.0561   -2.4551    0.0000 O   0  0  0  0  0  0  0  0  0  0  0  0
  -13.6041   -5.0155    0.0000 O   0  0  0  0  0  0  0  0  0  0  0  0
  -14.1168   -6.4251    0.0000 H   0  0  0  0  0  0  0  0  0  0  0  0
   -8.7206   -6.7924    0.0000 C   0  0  0  0  0  0  0  0  0  0  0  0
   -7.2434   -6.5314    0.0000 O   0  0  0  0  0  0  0  0  0  0  0  0
   -9.2331   -8.2021    0.0000 O   0  0  0  0  0  0  0  0  0  0  0  0
   -8.2685   -9.3508    0.0000 H   0  0  0  0  0  0  0  0  0  0  0  0
   -7.4938   -2.9020    0.0000 C   0  0  0  0  0  0  0  0  0  0  0  0
   -8.4579   -4.0512    0.0000 H   0  0  0  0  0  0  0  0  0  0  0  0
   -6.9813   -1.4914    0.0000 C   0  0  0  0  0  0  0  0  0  0  0  0
   -7.9459   -0.3416    0.0000 C   0  0  0  0  0  0  0  0  0  0  0  0
   -9.4230   -0.6024    0.0000 H   0  0  0  0  0  0  0  0  0  0  0  0
   -7.4333    1.0690    0.0000 C   0  0  0  0  0  0  0  0  0  0  0  0
   -8.3979    2.2177    0.0000 H   0  0  0  0  0  0  0  0  0  0  0  0
   -5.9561    1.3298    0.0000 C   0  0  0  0  0  0  0  0  0  0  0  0
   -5.4432    2.7393    0.0000 H   0  0  0  0  0  0  0  0  0  0  0  0
   -4.9915    0.1800    0.0000 C   0  0  0  0  0  0  0  0  0  0  0  0
   -5.5041   -1.2306    0.0000 C   0  0  0  0  0  0  0  0  0  0  0  0
   -4.5395   -2.3804    0.0000 C   0  0  0  0  0  0  0  0  0  0  0  0
   -3.0624   -2.1197    0.0000 O   0  0  0  0  0  0  0  0  0  0  0  0
   -5.0521   -3.7910    0.0000 C   0  0  0  0  0  0  0  0  0  0  0  0
   -4.0875   -4.9408    0.0000 C   0  0  0  0  0  0  0  0  0  0  0  0
   -4.6000   -6.3514    0.0000 C   0  0  0  0  0  0  0  0  0  0  0  0
   -3.6354   -7.5001    0.0000 H   0  0  0  0  0  0  0  0  0  0  0  0
   -6.0772   -6.6122    0.0000 C   0  0  0  0  0  0  0  0  0  0  0  0
   -7.0418   -5.4624    0.0000 C   0  0  0  0  0  0  0  0  0  0  0  0
   -8.5189   -5.7232    0.0000 H   0  0  0  0  0  0  0  0  0  0  0  0
   -6.5292   -4.0518    0.0000 C   0  0  0  0  0  0  0  0  0  0  0  0
   -6.5902   -8.0218    0.0000 C   0  0  0  0  0  0  0  0  0  0  0  0
   -8.0674   -8.2823    0.0000 O   0  0  0  0  0  0  0  0  0  0  0  0
   -5.6259   -9.1708    0.0000 O   0  0  0  0  0  0  0  0  0  0  0  0
   -6.1389  -10.5804    0.0000 H   0  0  0  0  0  0  0  0  0  0  0  0
   -2.6103   -4.6801    0.0000 O   0  0  0  0  0  0  0  0  0  0  0  0
   -1.6459   -5.8289    0.0000 H   0  0  0  0  0  0  0  0  0  0  0  0
   -3.5144    0.4407    0.0000 O   0  0  0  0  0  0  0  0  0  0  0  0
   -3.0017    1.8504    0.0000 C   0  0  0  0  0  0  0  0  0  0  0  0
   -4.4783    2.1140    0.0000 H   0  0  0  0  0  0  0  0  0  0  0  0
   -1.7094    1.1086    0.0000 C   0  0  0  0  0  0  0  0  0  0  0  0
   -0.7414   -0.0372    0.0000 H   0  0  0  0  0  0  0  0  0  0  0  0
   -0.3932    1.8751    0.0000 C   0  0  0  0  0  0  0  0  0  0  0  0
    1.0823    2.1452    0.0000 H   0  0  0  0  0  0  0  0  0  0  0  0
   -0.4051    3.3809    0.0000 C   0  0  0  0  0  0  0  0  0  0  0  0
    0.1018    4.7927    0.0000 H   0  0  0  0  0  0  0  0  0  0  0  0
   -1.6974    4.1227    0.0000 C   0  0  0  0  0  0  0  0  0  0  0  0
   -2.6647    5.2691    0.0000 H   0  0  0  0  0  0  0  0  0  0  0  0
   -0.1211    6.0113    0.0000 C   0  0  0  0  0  0  0  0  0  0  0  0
    1.1760    6.7647    0.0000 H   0  0  0  0  0  0  0  0  0  0  0  0
    0.8461    4.8647    0.0000 H   0  0  0  0  0  0  0  0  0  0  0  0
   -0.6378    7.4195    0.0000 O   0  0  0  0  0  0  0  0  0  0  0  0
    0.3234    8.5711    0.0000 S   0  0  0  0  0  0  0  0  0  0  0  0
    0.8327    9.9819    0.0000 O   0  0  0  0  0  0  0  0  0  0  0  0
   -0.9776    9.3177    0.0000 O   0  0  0  0  0  0  0  0  0  0  0  0
    1.8013    8.3145    0.0000 O   0  0  0  0  0  0  0  0  0  0  0  0
    2.7624    9.4661    0.0000 H   0  0  0  0  0  0  0  0  0  0  0  0
   -2.9950    3.3686    0.0000 O   0  0  0  0  0  0  0  0  0  0  0  0
    1.0737    3.1295    0.0000 O   0  0  0  0  0  0  0  0  0  0  0  0
    2.0308    4.2845    0.0000 H   0  0  0  0  0  0  0  0  0  0  0  0
    0.1271    0.4682    0.0000 O   0  0  0  0  0  0  0  0  0  0  0  0
    1.6056    0.2153    0.0000 H   0  0  0  0  0  0  0  0  0  0  0  0
   -2.6702   -0.0432    0.0000 O   0  0  0  0  0  0  0  0  0  0  0  0
   -2.1531   -1.4513    0.0000 H   0  0  0  0  0  0  0  0  0  0  0  0
  -14.5081    0.1053    0.0000 O   0  0  0  0  0  0  0  0  0  0  0  0
  -15.4726    1.2542    0.0000 C   0  0  0  0  0  0  0  0  0  0  0  0
  -14.1754    2.0075    0.0000 H   0  0  0  0  0  0  0  0  0  0  0  0
  -16.4327    0.1148    0.0000 C   0  0  0  0  0  0  0  0  0  0  0  0
  -16.9498   -1.2933    0.0000 H   0  0  0  0  0  0  0  0  0  0  0  0
  -17.9318    0.3842    0.0000 C   0  0  0  0  0  0  0  0  0  0  0  0
  -19.4106    0.1328    0.0000 H   0  0  0  0  0  0  0  0  0  0  0  0
  -18.4362    1.8031    0.0000 C   0  0  0  0  0  0  0  0  0  0  0  0
  -19.3959    2.9559    0.0000 H   0  0  0  0  0  0  0  0  0  0  0  0
  -17.4761    2.9425    0.0000 C   0  0  0  0  0  0  0  0  0  0  0  0
  -16.9598    4.3508    0.0000 H   0  0  0  0  0  0  0  0  0  0  0  0
  -20.0190    4.4181    0.0000 C   0  0  0  0  0  0  0  0  0  0  0  0
  -21.4956    4.6818    0.0000 H   0  0  0  0  0  0  0  0  0  0  0  0
  -20.5351    3.0097    0.0000 H   0  0  0  0  0  0  0  0  0  0  0  0
  -20.0157    5.9181    0.0000 O   0  0  0  0  0  0  0  0  0  0  0  0
  -21.3131    6.6709    0.0000 H   0  0  0  0  0  0  0  0  0  0  0  0
  -15.9987    2.6783    0.0000 O   0  0  0  0  0  0  0  0  0  0  0  0
  -19.7395    1.0605    0.0000 O   0  0  0  0  0  0  0  0  0  0  0  0
  -21.0343    1.8179    0.0000 H   0  0  0  0  0  0  0  0  0  0  0  0
  -17.9389   -1.1158    0.0000 O   0  0  0  0  0  0  0  0  0  0  0  0
  -19.2414   -1.8597    0.0000 H   0  0  0  0  0  0  0  0  0  0  0  0
  -15.1355   -0.6384    0.0000 O   0  0  0  0  0  0  0  0  0  0  0  0
  -15.1393   -2.1384    0.0000 H   0  0  0  0  0  0  0  0  0  0  0  0
  1  2  1  0  0  0  0 
  1  3  2  0  0  0  0 
  3  4  1  0  0  0  0 
  3  5  1  0  0  0  0 
  5  6  2  0  0  0  0 
  6  7  1  0  0  0  0 
  7  8  2  0  0  0  0 
  1  8  1  0  0  0  0 
  8  9  1  0  0  0  0 
  7 10  1  0  0  0  0 
 10 11  1  0  0  0  0 
 10 12  1  0  0  0  0 
 12 13  2  0  0  0  0 
 13 14  1  0  0  0  0 
 13 15  1  0  0  0  0 
 15 16  2  0  0  0  0 
 16 17  1  0  0  0  0 
 16 18  1  0  0  0  0 
 18 19  2  0  0  0  0 
 12 19  1  0  0  0  0 
 19 20  1  0  0  0  0 
  6 20  1  0  0  0  0 
 20 21  2  0  0  0  0 
 18 22  1  0  0  0  0 
 22 23  1  0  0  0  0 
 15 24  1  0  0  0  0 
 24 25  2  0  0  0  0 
 24 26  1  0  0  0  0 
 26 27  1  0  0  0  0 
 10 28  1  0  0  0  0 
 28 29  1  0  0  0  0 
 28 30  1  0  0  0  0 
 30 31  2  0  0  0  0 
 31 32  1  0  0  0  0 
 31 33  1  0  0  0  0 
 33 34  1  0  0  0  0 
 33 35  2  0  0  0  0 
 35 36  1  0  0  0  0 
 35 37  1  0  0  0  0 
 37 38  2  0  0  0  0 
 30 38  1  0  0  0  0 
 38 39  1  0  0  0  0 
 39 40  2  0  0  0  0 
 39 41  1  0  0  0  0 
 41 42  2  0  0  0  0 
 42 43  1  0  0  0  0 
 43 44  1  0  0  0  0 
 43 45  2  0  0  0  0 
 45 46  1  0  0  0  0 
 46 47  1  0  0  0  0 
 46 48  2  0  0  0  0 
 28 48  1  0  0  0  0 
 41 48  1  0  0  0  0 
 45 49  1  0  0  0  0 
 49 50  2  0  0  0  0 
 49 51  1  0  0  0  0 
 51 52  1  0  0  0  0 
 42 53  1  0  0  0  0 
 53 54  1  0  0  0  0 
 37 55  1  0  0  0  0 
 55 56  1  0  0  0  0 
 56 57  1  0  0  0  0 
 56 58  1  0  0  0  0 
 58 59  1  0  0  0  0 
 58 60  1  0  0  0  0 
 60 61  1  0  0  0  0 
 60 62  1  0  0  0  0 
 62 63  1  0  0  0  0 
 62 64  1  0  0  0  0 
 64 65  1  0  0  0  0 
 64 66  1  0  0  0  0 
 66 67  1  0  0  0  0 
 66 68  1  0  0  0  0 
 66 69  1  0  0  0  0 
 69 70  1  0  0  0  0 
 70 71  2  0  0  0  0 
 70 72  2  0  0  0  0 
 70 73  1  0  0  0  0 
 73 74  1  0  0  0  0 
 64 75  1  0  0  0  0 
 56 75  1  0  0  0  0 
 62 76  1  0  0  0  0 
 76 77  1  0  0  0  0 
 60 78  1  0  0  0  0 
 78 79  1  0  0  0  0 
 58 80  1  0  0  0  0 
 80 81  1  0  0  0  0 
  5 82  1  0  0  0  0 
 82 83  1  0  0  0  0 
 83 84  1  0  0  0  0 
 83 85  1  0  0  0  0 
 85 86  1  0  0  0  0 
 85 87  1  0  0  0  0 
 87 88  1  0  0  0  0 
 87 89  1  0  0  0  0 
 89 90  1  0  0  0  0 
 89 91  1  0  0  0  0 
 91 92  1  0  0  0  0 
 91 93  1  0  0  0  0 
 93 94  1  0  0  0  0 
 93 95  1  0  0  0  0 
 93 96  1  0  0  0  0 
 96 97  1  0  0  0  0 
 91 98  1  0  0  0  0 
 83 98  1  0  0  0  0 
 89 99  1  0  0  0  0 
 99100  1  0  0  0  0 
 87101  1  0  0  0  0 
101102  1  0  0  0  0 
 85103  1  0  0  0  0 
103104  1  0  0  0  0 
M  END
> <Rank>
10

> <Priority_score>
0.2464040329878273

> <Reaction_type>
sulfation_(aliphatic_hydroxyl)

> <Parent_ID>
79

> <Parent_InChI>
InChI=1S/C42H38O20/c43-11-23-31(47)35(51)37(53)41(61-23)59-21-5-1-3-15-25(17-7-13(39(55)56)9-19(45)27(17)33(49)29(15)21)26-16-4-2-6-22(60-42-38(54)36(52)32(48)24(12-44)62-42)30(16)34(50)28-18(26)8-14(40(57)58)10-20(28)46/h1-10,23-26,31-32,35-38,41-48,51-54H,11-12H2,(H,55,56)(H,57,58)

> <Parent_SMILES>
O=C(O)c1cc(O)c2c(c1)C(C1c3cc(C(=O)O)cc(O)c3C(=O)c3c(OC4OC(CO)C(O)C(O)C4O)cccc31)c1cccc(OC3OC(CO)C(O)C(O)C3O)c1C2=O

$$$$
Molecule 79_metabolite 11
  CDK     0516241031

104111  0  0  0  0  0  0  0  0999 V2000
  -11.4564    2.2784    0.0000 C   0  0  0  0  0  0  0  0  0  0  0  0
  -10.9435    3.6880    0.0000 H   0  0  0  0  0  0  0  0  0  0  0  0
  -12.9336    2.0176    0.0000 C   0  0  0  0  0  0  0  0  0  0  0  0
  -13.8982    3.1663    0.0000 H   0  0  0  0  0  0  0  0  0  0  0  0
  -13.4462    0.6070    0.0000 C   0  0  0  0  0  0  0  0  0  0  0  0
  -12.4816   -0.5428    0.0000 C   0  0  0  0  0  0  0  0  0  0  0  0
  -11.0044   -0.2820    0.0000 C   0  0  0  0  0  0  0  0  0  0  0  0
  -10.4918    1.1286    0.0000 C   0  0  0  0  0  0  0  0  0  0  0  0
   -9.0147    1.3894    0.0000 H   0  0  0  0  0  0  0  0  0  0  0  0
  -10.0398   -1.4318    0.0000 C   0  0  0  0  0  0  0  0  0  0  0  0
   -9.0757   -0.2826    0.0000 H   0  0  0  0  0  0  0  0  0  0  0  0
  -10.5524   -2.8424    0.0000 C   0  0  0  0  0  0  0  0  0  0  0  0
   -9.5878   -3.9922    0.0000 C   0  0  0  0  0  0  0  0  0  0  0  0
   -8.1106   -3.7314    0.0000 H   0  0  0  0  0  0  0  0  0  0  0  0
  -10.1003   -5.4028    0.0000 C   0  0  0  0  0  0  0  0  0  0  0  0
  -11.5775   -5.6636    0.0000 C   0  0  0  0  0  0  0  0  0  0  0  0
  -12.0904   -7.0731    0.0000 H   0  0  0  0  0  0  0  0  0  0  0  0
  -12.5421   -4.5138    0.0000 C   0  0  0  0  0  0  0  0  0  0  0  0
  -12.0295   -3.1032    0.0000 C   0  0  0  0  0  0  0  0  0  0  0  0
  -12.9941   -1.9534    0.0000 C   0  0  0  0  0  0  0  0  0  0  0  0
  -14.4713   -2.2142    0.0000 O   0  0  0  0  0  0  0  0  0  0  0  0
  -14.0192   -4.7746    0.0000 O   0  0  0  0  0  0  0  0  0  0  0  0
  -14.5320   -6.1842    0.0000 H   0  0  0  0  0  0  0  0  0  0  0  0
   -9.1357   -6.5515    0.0000 C   0  0  0  0  0  0  0  0  0  0  0  0
   -7.6586   -6.2905    0.0000 O   0  0  0  0  0  0  0  0  0  0  0  0
   -9.6482   -7.9612    0.0000 O   0  0  0  0  0  0  0  0  0  0  0  0
   -8.6836   -9.1099    0.0000 H   0  0  0  0  0  0  0  0  0  0  0  0
   -7.9090   -2.6611    0.0000 C   0  0  0  0  0  0  0  0  0  0  0  0
   -8.8730   -3.8103    0.0000 H   0  0  0  0  0  0  0  0  0  0  0  0
   -7.3964   -1.2505    0.0000 C   0  0  0  0  0  0  0  0  0  0  0  0
   -8.3610   -0.1007    0.0000 C   0  0  0  0  0  0  0  0  0  0  0  0
   -9.8382   -0.3615    0.0000 H   0  0  0  0  0  0  0  0  0  0  0  0
   -7.8485    1.3099    0.0000 C   0  0  0  0  0  0  0  0  0  0  0  0
   -8.8131    2.4586    0.0000 H   0  0  0  0  0  0  0  0  0  0  0  0
   -6.3713    1.5707    0.0000 C   0  0  0  0  0  0  0  0  0  0  0  0
   -5.8583    2.9802    0.0000 H   0  0  0  0  0  0  0  0  0  0  0  0
   -5.4067    0.4209    0.0000 C   0  0  0  0  0  0  0  0  0  0  0  0
   -5.9193   -0.9897    0.0000 C   0  0  0  0  0  0  0  0  0  0  0  0
   -4.9547   -2.1395    0.0000 C   0  0  0  0  0  0  0  0  0  0  0  0
   -3.4775   -1.8787    0.0000 O   0  0  0  0  0  0  0  0  0  0  0  0
   -5.4672   -3.5501    0.0000 C   0  0  0  0  0  0  0  0  0  0  0  0
   -4.5026   -4.6999    0.0000 C   0  0  0  0  0  0  0  0  0  0  0  0
   -5.0152   -6.1105    0.0000 C   0  0  0  0  0  0  0  0  0  0  0  0
   -4.0506   -7.2592    0.0000 H   0  0  0  0  0  0  0  0  0  0  0  0
   -6.4924   -6.3713    0.0000 C   0  0  0  0  0  0  0  0  0  0  0  0
   -7.4570   -5.2215    0.0000 C   0  0  0  0  0  0  0  0  0  0  0  0
   -8.9341   -5.4823    0.0000 H   0  0  0  0  0  0  0  0  0  0  0  0
   -6.9444   -3.8109    0.0000 C   0  0  0  0  0  0  0  0  0  0  0  0
   -7.0053   -7.7809    0.0000 C   0  0  0  0  0  0  0  0  0  0  0  0
   -8.4825   -8.0414    0.0000 O   0  0  0  0  0  0  0  0  0  0  0  0
   -6.0411   -8.9299    0.0000 O   0  0  0  0  0  0  0  0  0  0  0  0
   -6.5540  -10.3395    0.0000 H   0  0  0  0  0  0  0  0  0  0  0  0
   -3.0255   -4.4391    0.0000 O   0  0  0  0  0  0  0  0  0  0  0  0
   -2.0611   -5.5880    0.0000 S   0  0  0  0  0  0  0  0  0  0  0  0
   -3.3599   -6.3383    0.0000 O   0  0  0  0  0  0  0  0  0  0  0  0
   -1.5477   -6.9974    0.0000 O   0  0  0  0  0  0  0  0  0  0  0  0
   -0.5839   -5.3272    0.0000 O   0  0  0  0  0  0  0  0  0  0  0  0
    0.3805   -6.4761    0.0000 H   0  0  0  0  0  0  0  0  0  0  0  0
   -3.9296    0.6817    0.0000 O   0  0  0  0  0  0  0  0  0  0  0  0
   -3.4168    2.0913    0.0000 C   0  0  0  0  0  0  0  0  0  0  0  0
   -4.8935    2.3549    0.0000 H   0  0  0  0  0  0  0  0  0  0  0  0
   -2.1246    1.3496    0.0000 C   0  0  0  0  0  0  0  0  0  0  0  0
   -1.1566    0.2037    0.0000 H   0  0  0  0  0  0  0  0  0  0  0  0
   -0.8083    2.1160    0.0000 C   0  0  0  0  0  0  0  0  0  0  0  0
    0.6672    2.3861    0.0000 H   0  0  0  0  0  0  0  0  0  0  0  0
   -0.8203    3.6218    0.0000 C   0  0  0  0  0  0  0  0  0  0  0  0
   -0.3134    5.0336    0.0000 H   0  0  0  0  0  0  0  0  0  0  0  0
   -2.1125    4.3636    0.0000 C   0  0  0  0  0  0  0  0  0  0  0  0
   -3.0798    5.5100    0.0000 H   0  0  0  0  0  0  0  0  0  0  0  0
   -0.5362    6.2522    0.0000 C   0  0  0  0  0  0  0  0  0  0  0  0
   -0.0269    7.6631    0.0000 H   0  0  0  0  0  0  0  0  0  0  0  0
   -1.8372    6.9988    0.0000 H   0  0  0  0  0  0  0  0  0  0  0  0
    0.9417    5.9956    0.0000 O   0  0  0  0  0  0  0  0  0  0  0  0
    1.9028    7.1472    0.0000 H   0  0  0  0  0  0  0  0  0  0  0  0
   -3.4102    3.6095    0.0000 O   0  0  0  0  0  0  0  0  0  0  0  0
    0.6585    3.3704    0.0000 O   0  0  0  0  0  0  0  0  0  0  0  0
    1.6156    4.5254    0.0000 H   0  0  0  0  0  0  0  0  0  0  0  0
   -0.2881    0.7091    0.0000 O   0  0  0  0  0  0  0  0  0  0  0  0
    1.1904    0.4562    0.0000 H   0  0  0  0  0  0  0  0  0  0  0  0
   -3.0854    0.1977    0.0000 O   0  0  0  0  0  0  0  0  0  0  0  0
   -2.5683   -1.2104    0.0000 H   0  0  0  0  0  0  0  0  0  0  0  0
  -14.9233    0.3463    0.0000 O   0  0  0  0  0  0  0  0  0  0  0  0
  -15.8877    1.4951    0.0000 C   0  0  0  0  0  0  0  0  0  0  0  0
  -14.5906    2.2484    0.0000 H   0  0  0  0  0  0  0  0  0  0  0  0
  -16.8479    0.3557    0.0000 C   0  0  0  0  0  0  0  0  0  0  0  0
  -17.3650   -1.0523    0.0000 H   0  0  0  0  0  0  0  0  0  0  0  0
  -18.3470    0.6251    0.0000 C   0  0  0  0  0  0  0  0  0  0  0  0
  -19.8258    0.3737    0.0000 H   0  0  0  0  0  0  0  0  0  0  0  0
  -18.8514    2.0440    0.0000 C   0  0  0  0  0  0  0  0  0  0  0  0
  -19.8111    3.1968    0.0000 H   0  0  0  0  0  0  0  0  0  0  0  0
  -17.8913    3.1834    0.0000 C   0  0  0  0  0  0  0  0  0  0  0  0
  -17.3750    4.5918    0.0000 H   0  0  0  0  0  0  0  0  0  0  0  0
  -20.0190    4.4181    0.0000 C   0  0  0  0  0  0  0  0  0  0  0  0
  -20.9806    5.5693    0.0000 H   0  0  0  0  0  0  0  0  0  0  0  0
  -19.0523    5.5650    0.0000 H   0  0  0  0  0  0  0  0  0  0  0  0
  -21.3196    3.6709    0.0000 O   0  0  0  0  0  0  0  0  0  0  0  0
  -22.6170    4.4238    0.0000 H   0  0  0  0  0  0  0  0  0  0  0  0
  -16.4139    2.9192    0.0000 O   0  0  0  0  0  0  0  0  0  0  0  0
  -20.1547    1.3014    0.0000 O   0  0  0  0  0  0  0  0  0  0  0  0
  -21.4494    2.0588    0.0000 H   0  0  0  0  0  0  0  0  0  0  0  0
  -18.3540   -0.8749    0.0000 O   0  0  0  0  0  0  0  0  0  0  0  0
  -19.6566   -1.6188    0.0000 H   0  0  0  0  0  0  0  0  0  0  0  0
  -15.5507   -0.3975    0.0000 O   0  0  0  0  0  0  0  0  0  0  0  0
  -15.5544   -1.8975    0.0000 H   0  0  0  0  0  0  0  0  0  0  0  0
  1  2  1  0  0  0  0 
  1  3  2  0  0  0  0 
  3  4  1  0  0  0  0 
  3  5  1  0  0  0  0 
  5  6  2  0  0  0  0 
  6  7  1  0  0  0  0 
  7  8  2  0  0  0  0 
  1  8  1  0  0  0  0 
  8  9  1  0  0  0  0 
  7 10  1  0  0  0  0 
 10 11  1  0  0  0  0 
 10 12  1  0  0  0  0 
 12 13  2  0  0  0  0 
 13 14  1  0  0  0  0 
 13 15  1  0  0  0  0 
 15 16  2  0  0  0  0 
 16 17  1  0  0  0  0 
 16 18  1  0  0  0  0 
 18 19  2  0  0  0  0 
 12 19  1  0  0  0  0 
 19 20  1  0  0  0  0 
  6 20  1  0  0  0  0 
 20 21  2  0  0  0  0 
 18 22  1  0  0  0  0 
 22 23  1  0  0  0  0 
 15 24  1  0  0  0  0 
 24 25  2  0  0  0  0 
 24 26  1  0  0  0  0 
 26 27  1  0  0  0  0 
 10 28  1  0  0  0  0 
 28 29  1  0  0  0  0 
 28 30  1  0  0  0  0 
 30 31  2  0  0  0  0 
 31 32  1  0  0  0  0 
 31 33  1  0  0  0  0 
 33 34  1  0  0  0  0 
 33 35  2  0  0  0  0 
 35 36  1  0  0  0  0 
 35 37  1  0  0  0  0 
 37 38  2  0  0  0  0 
 30 38  1  0  0  0  0 
 38 39  1  0  0  0  0 
 39 40  2  0  0  0  0 
 39 41  1  0  0  0  0 
 41 42  2  0  0  0  0 
 42 43  1  0  0  0  0 
 43 44  1  0  0  0  0 
 43 45  2  0  0  0  0 
 45 46  1  0  0  0  0 
 46 47  1  0  0  0  0 
 46 48  2  0  0  0  0 
 28 48  1  0  0  0  0 
 41 48  1  0  0  0  0 
 45 49  1  0  0  0  0 
 49 50  2  0  0  0  0 
 49 51  1  0  0  0  0 
 51 52  1  0  0  0  0 
 42 53  1  0  0  0  0 
 53 54  1  0  0  0  0 
 54 55  2  0  0  0  0 
 54 56  2  0  0  0  0 
 54 57  1  0  0  0  0 
 57 58  1  0  0  0  0 
 37 59  1  0  0  0  0 
 59 60  1  0  0  0  0 
 60 61  1  0  0  0  0 
 60 62  1  0  0  0  0 
 62 63  1  0  0  0  0 
 62 64  1  0  0  0  0 
 64 65  1  0  0  0  0 
 64 66  1  0  0  0  0 
 66 67  1  0  0  0  0 
 66 68  1  0  0  0  0 
 68 69  1  0  0  0  0 
 68 70  1  0  0  0  0 
 70 71  1  0  0  0  0 
 70 72  1  0  0  0  0 
 70 73  1  0  0  0  0 
 73 74  1  0  0  0  0 
 68 75  1  0  0  0  0 
 60 75  1  0  0  0  0 
 66 76  1  0  0  0  0 
 76 77  1  0  0  0  0 
 64 78  1  0  0  0  0 
 78 79  1  0  0  0  0 
 62 80  1  0  0  0  0 
 80 81  1  0  0  0  0 
  5 82  1  0  0  0  0 
 82 83  1  0  0  0  0 
 83 84  1  0  0  0  0 
 83 85  1  0  0  0  0 
 85 86  1  0  0  0  0 
 85 87  1  0  0  0  0 
 87 88  1  0  0  0  0 
 87 89  1  0  0  0  0 
 89 90  1  0  0  0  0 
 89 91  1  0  0  0  0 
 91 92  1  0  0  0  0 
 91 93  1  0  0  0  0 
 93 94  1  0  0  0  0 
 93 95  1  0  0  0  0 
 93 96  1  0  0  0  0 
 96 97  1  0  0  0  0 
 91 98  1  0  0  0  0 
 83 98  1  0  0  0  0 
 89 99  1  0  0  0  0 
 99100  1  0  0  0  0 
 87101  1  0  0  0  0 
101102  1  0  0  0  0 
 85103  1  0  0  0  0 
103104  1  0  0  0  0 
M  END
> <Rank>
11

> <Priority_score>
0.227355963753145

> <Reaction_type>
sulfation_(aromatic_hydroxyl)

> <Parent_ID>
79

> <Parent_InChI>
InChI=1S/C42H38O20/c43-11-23-31(47)35(51)37(53)41(61-23)59-21-5-1-3-15-25(17-7-13(39(55)56)9-19(45)27(17)33(49)29(15)21)26-16-4-2-6-22(60-42-38(54)36(52)32(48)24(12-44)62-42)30(16)34(50)28-18(26)8-14(40(57)58)10-20(28)46/h1-10,23-26,31-32,35-38,41-48,51-54H,11-12H2,(H,55,56)(H,57,58)

> <Parent_SMILES>
O=C(O)c1cc(O)c2c(c1)C(C1c3cc(C(=O)O)cc(O)c3C(=O)c3c(OC4OC(CO)C(O)C(O)C4O)cccc31)c1cccc(OC3OC(CO)C(O)C(O)C3O)c1C2=O

$$$$
Molecule 79_metabolite 12
  CDK     0516241031

101108  0  0  0  0  0  0  0  0999 V2000
  -10.8004    4.0829    0.0000 C   0  0  0  0  0  0  0  0  0  0  0  0
  -10.2874    5.4924    0.0000 H   0  0  0  0  0  0  0  0  0  0  0  0
  -12.2775    3.8221    0.0000 C   0  0  0  0  0  0  0  0  0  0  0  0
  -13.2421    4.9708    0.0000 H   0  0  0  0  0  0  0  0  0  0  0  0
  -12.7901    2.4115    0.0000 C   0  0  0  0  0  0  0  0  0  0  0  0
  -11.8255    1.2617    0.0000 C   0  0  0  0  0  0  0  0  0  0  0  0
  -10.3483    1.5224    0.0000 C   0  0  0  0  0  0  0  0  0  0  0  0
   -9.8358    2.9330    0.0000 C   0  0  0  0  0  0  0  0  0  0  0  0
   -8.3586    3.1938    0.0000 H   0  0  0  0  0  0  0  0  0  0  0  0
   -9.3837    0.3726    0.0000 C   0  0  0  0  0  0  0  0  0  0  0  0
   -8.4197    1.5218    0.0000 H   0  0  0  0  0  0  0  0  0  0  0  0
   -9.8963   -1.0380    0.0000 C   0  0  0  0  0  0  0  0  0  0  0  0
   -8.9317   -2.1878    0.0000 C   0  0  0  0  0  0  0  0  0  0  0  0
   -7.4545   -1.9270    0.0000 H   0  0  0  0  0  0  0  0  0  0  0  0
   -9.4443   -3.5984    0.0000 C   0  0  0  0  0  0  0  0  0  0  0  0
  -10.9214   -3.8591    0.0000 C   0  0  0  0  0  0  0  0  0  0  0  0
  -11.4344   -5.2687    0.0000 H   0  0  0  0  0  0  0  0  0  0  0  0
  -11.8860   -2.7093    0.0000 C   0  0  0  0  0  0  0  0  0  0  0  0
  -11.3734   -1.2987    0.0000 C   0  0  0  0  0  0  0  0  0  0  0  0
  -12.3380   -0.1489    0.0000 C   0  0  0  0  0  0  0  0  0  0  0  0
  -13.8152   -0.4097    0.0000 O   0  0  0  0  0  0  0  0  0  0  0  0
  -13.3632   -2.9701    0.0000 O   0  0  0  0  0  0  0  0  0  0  0  0
  -13.8759   -4.3798    0.0000 H   0  0  0  0  0  0  0  0  0  0  0  0
   -8.4796   -4.7471    0.0000 C   0  0  0  0  0  0  0  0  0  0  0  0
   -7.0025   -4.4860    0.0000 O   0  0  0  0  0  0  0  0  0  0  0  0
   -9.4842   -7.5101    0.0000 O   0  0  0  0  0  0  0  0  0  0  0  0
   -8.5195   -8.6588    0.0000 H   0  0  0  0  0  0  0  0  0  0  0  0
   -7.2529   -0.8567    0.0000 C   0  0  0  0  0  0  0  0  0  0  0  0
   -8.2170   -2.0058    0.0000 H   0  0  0  0  0  0  0  0  0  0  0  0
   -6.7404    0.5539    0.0000 C   0  0  0  0  0  0  0  0  0  0  0  0
   -7.7049    1.7037    0.0000 C   0  0  0  0  0  0  0  0  0  0  0  0
   -9.1821    1.4429    0.0000 H   0  0  0  0  0  0  0  0  0  0  0  0
   -7.1924    3.1143    0.0000 C   0  0  0  0  0  0  0  0  0  0  0  0
   -8.1570    4.2630    0.0000 H   0  0  0  0  0  0  0  0  0  0  0  0
   -5.7152    3.3751    0.0000 C   0  0  0  0  0  0  0  0  0  0  0  0
   -5.2023    4.7847    0.0000 H   0  0  0  0  0  0  0  0  0  0  0  0
   -4.7506    2.2253    0.0000 C   0  0  0  0  0  0  0  0  0  0  0  0
   -5.2632    0.8147    0.0000 C   0  0  0  0  0  0  0  0  0  0  0  0
   -4.2986   -0.3351    0.0000 C   0  0  0  0  0  0  0  0  0  0  0  0
   -2.8214   -0.0743    0.0000 O   0  0  0  0  0  0  0  0  0  0  0  0
   -4.8112   -1.7457    0.0000 C   0  0  0  0  0  0  0  0  0  0  0  0
   -6.2883   -2.0065    0.0000 C   0  0  0  0  0  0  0  0  0  0  0  0
   -6.8009   -3.4171    0.0000 C   0  0  0  0  0  0  0  0  0  0  0  0
   -5.8363   -4.5669    0.0000 C   0  0  0  0  0  0  0  0  0  0  0  0
   -4.3591   -4.3061    0.0000 C   0  0  0  0  0  0  0  0  0  0  0  0
   -3.3945   -5.4548    0.0000 H   0  0  0  0  0  0  0  0  0  0  0  0
   -3.8466   -2.8955    0.0000 C   0  0  0  0  0  0  0  0  0  0  0  0
   -2.3694   -2.6347    0.0000 O   0  0  0  0  0  0  0  0  0  0  0  0
   -1.4050   -3.7836    0.0000 H   0  0  0  0  0  0  0  0  0  0  0  0
   -6.3492   -5.9765    0.0000 C   0  0  0  0  0  0  0  0  0  0  0  0
   -7.8264   -6.2370    0.0000 O   0  0  0  0  0  0  0  0  0  0  0  0
   -5.3850   -7.1255    0.0000 O   0  0  0  0  0  0  0  0  0  0  0  0
   -5.8980   -8.5350    0.0000 H   0  0  0  0  0  0  0  0  0  0  0  0
   -8.2780   -3.6779    0.0000 O   0  0  0  0  0  0  0  0  0  0  0  0
   -8.9548   -5.5386    0.0000 H   0  0  0  0  0  0  0  0  0  0  0  0
   -3.2735    2.4861    0.0000 O   0  0  0  0  0  0  0  0  0  0  0  0
   -2.7607    3.8957    0.0000 C   0  0  0  0  0  0  0  0  0  0  0  0
   -4.2374    4.1593    0.0000 H   0  0  0  0  0  0  0  0  0  0  0  0
   -1.4685    3.1540    0.0000 C   0  0  0  0  0  0  0  0  0  0  0  0
   -0.5005    2.0081    0.0000 H   0  0  0  0  0  0  0  0  0  0  0  0
   -0.1522    3.9205    0.0000 C   0  0  0  0  0  0  0  0  0  0  0  0
    1.3232    4.1906    0.0000 H   0  0  0  0  0  0  0  0  0  0  0  0
   -0.1642    5.4263    0.0000 C   0  0  0  0  0  0  0  0  0  0  0  0
    0.3427    6.8380    0.0000 H   0  0  0  0  0  0  0  0  0  0  0  0
   -1.4565    6.1680    0.0000 C   0  0  0  0  0  0  0  0  0  0  0  0
   -2.4238    7.3144    0.0000 H   0  0  0  0  0  0  0  0  0  0  0  0
    0.1199    8.0566    0.0000 C   0  0  0  0  0  0  0  0  0  0  0  0
    0.6292    9.4675    0.0000 H   0  0  0  0  0  0  0  0  0  0  0  0
   -1.1811    8.8032    0.0000 H   0  0  0  0  0  0  0  0  0  0  0  0
    1.5977    7.8000    0.0000 O   0  0  0  0  0  0  0  0  0  0  0  0
    2.5589    8.9516    0.0000 H   0  0  0  0  0  0  0  0  0  0  0  0
   -2.7541    5.4139    0.0000 O   0  0  0  0  0  0  0  0  0  0  0  0
    1.3146    5.1749    0.0000 O   0  0  0  0  0  0  0  0  0  0  0  0
    2.2717    6.3298    0.0000 H   0  0  0  0  0  0  0  0  0  0  0  0
    0.3680    2.5136    0.0000 O   0  0  0  0  0  0  0  0  0  0  0  0
    1.8465    2.2607    0.0000 H   0  0  0  0  0  0  0  0  0  0  0  0
   -2.4293    2.0021    0.0000 O   0  0  0  0  0  0  0  0  0  0  0  0
   -1.9122    0.5941    0.0000 H   0  0  0  0  0  0  0  0  0  0  0  0
  -14.2672    2.1507    0.0000 O   0  0  0  0  0  0  0  0  0  0  0  0
  -15.2317    3.2995    0.0000 C   0  0  0  0  0  0  0  0  0  0  0  0
  -13.9345    4.0528    0.0000 H   0  0  0  0  0  0  0  0  0  0  0  0
  -16.1918    2.1601    0.0000 C   0  0  0  0  0  0  0  0  0  0  0  0
  -16.7089    0.7521    0.0000 H   0  0  0  0  0  0  0  0  0  0  0  0
  -17.6909    2.4296    0.0000 C   0  0  0  0  0  0  0  0  0  0  0  0
  -19.1697    2.1781    0.0000 H   0  0  0  0  0  0  0  0  0  0  0  0
  -18.1953    3.8484    0.0000 C   0  0  0  0  0  0  0  0  0  0  0  0
  -19.1550    5.0012    0.0000 H   0  0  0  0  0  0  0  0  0  0  0  0
  -17.2352    4.9878    0.0000 C   0  0  0  0  0  0  0  0  0  0  0  0
  -16.7189    6.3962    0.0000 H   0  0  0  0  0  0  0  0  0  0  0  0
  -19.3629    6.2225    0.0000 C   0  0  0  0  0  0  0  0  0  0  0  0
  -20.3245    7.3737    0.0000 H   0  0  0  0  0  0  0  0  0  0  0  0
  -18.3962    7.3695    0.0000 H   0  0  0  0  0  0  0  0  0  0  0  0
  -20.6636    5.4754    0.0000 O   0  0  0  0  0  0  0  0  0  0  0  0
  -21.9610    6.2282    0.0000 H   0  0  0  0  0  0  0  0  0  0  0  0
  -15.7578    4.7237    0.0000 O   0  0  0  0  0  0  0  0  0  0  0  0
  -19.4986    3.1059    0.0000 O   0  0  0  0  0  0  0  0  0  0  0  0
  -20.7933    3.8633    0.0000 H   0  0  0  0  0  0  0  0  0  0  0  0
  -17.6980    0.9296    0.0000 O   0  0  0  0  0  0  0  0  0  0  0  0
  -19.0005    0.1857    0.0000 H   0  0  0  0  0  0  0  0  0  0  0  0
  -14.8946    1.4069    0.0000 O   0  0  0  0  0  0  0  0  0  0  0  0
  -14.8984   -0.0931    0.0000 H   0  0  0  0  0  0  0  0  0  0  0  0
  1  2  1  0  0  0  0 
  1  3  2  0  0  0  0 
  3  4  1  0  0  0  0 
  3  5  1  0  0  0  0 
  5  6  2  0  0  0  0 
  6  7  1  0  0  0  0 
  7  8  2  0  0  0  0 
  1  8  1  0  0  0  0 
  8  9  1  0  0  0  0 
  7 10  1  0  0  0  0 
 10 11  1  0  0  0  0 
 10 12  1  0  0  0  0 
 12 13  2  0  0  0  0 
 13 14  1  0  0  0  0 
 13 15  1  0  0  0  0 
 15 16  2  0  0  0  0 
 16 17  1  0  0  0  0 
 16 18  1  0  0  0  0 
 18 19  2  0  0  0  0 
 12 19  1  0  0  0  0 
 19 20  1  0  0  0  0 
  6 20  1  0  0  0  0 
 20 21  2  0  0  0  0 
 18 22  1  0  0  0  0 
 22 23  1  0  0  0  0 
 15 24  1  0  0  0  0 
 24 25  2  0  0  0  0 
 24 26  1  0  0  0  0 
 26 27  1  0  0  0  0 
 10 28  1  0  0  0  0 
 28 29  1  0  0  0  0 
 28 30  1  0  0  0  0 
 30 31  2  0  0  0  0 
 31 32  1  0  0  0  0 
 31 33  1  0  0  0  0 
 33 34  1  0  0  0  0 
 33 35  2  0  0  0  0 
 35 36  1  0  0  0  0 
 35 37  1  0  0  0  0 
 37 38  2  0  0  0  0 
 30 38  1  0  0  0  0 
 38 39  1  0  0  0  0 
 39 40  2  0  0  0  0 
 39 41  1  0  0  0  0 
 41 42  2  0  0  0  0 
 28 42  1  0  0  0  0 
 42 43  1  0  0  0  0 
 43 44  2  0  0  0  0 
 44 45  1  0  0  0  0 
 45 46  1  0  0  0  0 
 45 47  2  0  0  0  0 
 41 47  1  0  0  0  0 
 47 48  1  0  0  0  0 
 48 49  1  0  0  0  0 
 44 50  1  0  0  0  0 
 50 51  2  0  0  0  0 
 50 52  1  0  0  0  0 
 52 53  1  0  0  0  0 
 43 54  1  0  0  0  0 
 54 55  1  0  0  0  0 
 37 56  1  0  0  0  0 
 56 57  1  0  0  0  0 
 57 58  1  0  0  0  0 
 57 59  1  0  0  0  0 
 59 60  1  0  0  0  0 
 59 61  1  0  0  0  0 
 61 62  1  0  0  0  0 
 61 63  1  0  0  0  0 
 63 64  1  0  0  0  0 
 63 65  1  0  0  0  0 
 65 66  1  0  0  0  0 
 65 67  1  0  0  0  0 
 67 68  1  0  0  0  0 
 67 69  1  0  0  0  0 
 67 70  1  0  0  0  0 
 70 71  1  0  0  0  0 
 65 72  1  0  0  0  0 
 57 72  1  0  0  0  0 
 63 73  1  0  0  0  0 
 73 74  1  0  0  0  0 
 61 75  1  0  0  0  0 
 75 76  1  0  0  0  0 
 59 77  1  0  0  0  0 
 77 78  1  0  0  0  0 
  5 79  1  0  0  0  0 
 79 80  1  0  0  0  0 
 80 81  1  0  0  0  0 
 80 82  1  0  0  0  0 
 82 83  1  0  0  0  0 
 82 84  1  0  0  0  0 
 84 85  1  0  0  0  0 
 84 86  1  0  0  0  0 
 86 87  1  0  0  0  0 
 86 88  1  0  0  0  0 
 88 89  1  0  0  0  0 
 88 90  1  0  0  0  0 
 90 91  1  0  0  0  0 
 90 92  1  0  0  0  0 
 90 93  1  0  0  0  0 
 93 94  1  0  0  0  0 
 88 95  1  0  0  0  0 
 80 95  1  0  0  0  0 
 86 96  1  0  0  0  0 
 96 97  1  0  0  0  0 
 84 98  1  0  0  0  0 
 98 99  1  0  0  0  0 
 82100  1  0  0  0  0 
100101  1  0  0  0  0 
M  END
> <Rank>
12

> <Priority_score>
0.18

> <Reaction_type>
aromatic_hydroxylation_(para_to_oxygen)

> <Parent_ID>
79

> <Parent_InChI>
InChI=1S/C42H38O20/c43-11-23-31(47)35(51)37(53)41(61-23)59-21-5-1-3-15-25(17-7-13(39(55)56)9-19(45)27(17)33(49)29(15)21)26-16-4-2-6-22(60-42-38(54)36(52)32(48)24(12-44)62-42)30(16)34(50)28-18(26)8-14(40(57)58)10-20(28)46/h1-10,23-26,31-32,35-38,41-48,51-54H,11-12H2,(H,55,56)(H,57,58)

> <Parent_SMILES>
O=C(O)c1cc(O)c2c(c1)C(C1c3cc(C(=O)O)cc(O)c3C(=O)c3c(OC4OC(CO)C(O)C(O)C4O)cccc31)c1cccc(OC3OC(CO)C(O)C(O)C3O)c1C2=O

$$$$
Molecule 79_metabolite 13
  CDK     0516241031

101108  0  0  0  0  0  0  0  0999 V2000
  -11.4564    2.2784    0.0000 C   0  0  0  0  0  0  0  0  0  0  0  0
  -10.9435    3.6880    0.0000 H   0  0  0  0  0  0  0  0  0  0  0  0
  -12.9336    2.0176    0.0000 C   0  0  0  0  0  0  0  0  0  0  0  0
  -13.8982    3.1663    0.0000 H   0  0  0  0  0  0  0  0  0  0  0  0
  -13.4462    0.6070    0.0000 C   0  0  0  0  0  0  0  0  0  0  0  0
  -12.4816   -0.5428    0.0000 C   0  0  0  0  0  0  0  0  0  0  0  0
  -11.0044   -0.2820    0.0000 C   0  0  0  0  0  0  0  0  0  0  0  0
  -10.4918    1.1286    0.0000 C   0  0  0  0  0  0  0  0  0  0  0  0
   -9.0147    1.3894    0.0000 H   0  0  0  0  0  0  0  0  0  0  0  0
  -10.0398   -1.4318    0.0000 C   0  0  0  0  0  0  0  0  0  0  0  0
   -9.0757   -0.2826    0.0000 H   0  0  0  0  0  0  0  0  0  0  0  0
  -10.5524   -2.8424    0.0000 C   0  0  0  0  0  0  0  0  0  0  0  0
   -9.5878   -3.9922    0.0000 C   0  0  0  0  0  0  0  0  0  0  0  0
   -8.1106   -3.7314    0.0000 H   0  0  0  0  0  0  0  0  0  0  0  0
  -10.1003   -5.4028    0.0000 C   0  0  0  0  0  0  0  0  0  0  0  0
  -11.5775   -5.6636    0.0000 C   0  0  0  0  0  0  0  0  0  0  0  0
  -12.0904   -7.0731    0.0000 H   0  0  0  0  0  0  0  0  0  0  0  0
  -12.5421   -4.5138    0.0000 C   0  0  0  0  0  0  0  0  0  0  0  0
  -12.0295   -3.1032    0.0000 C   0  0  0  0  0  0  0  0  0  0  0  0
  -12.9941   -1.9534    0.0000 C   0  0  0  0  0  0  0  0  0  0  0  0
  -14.4713   -2.2142    0.0000 O   0  0  0  0  0  0  0  0  0  0  0  0
  -14.0192   -4.7746    0.0000 O   0  0  0  0  0  0  0  0  0  0  0  0
  -14.5320   -6.1842    0.0000 H   0  0  0  0  0  0  0  0  0  0  0  0
   -9.1357   -6.5515    0.0000 C   0  0  0  0  0  0  0  0  0  0  0  0
   -7.6586   -6.2905    0.0000 O   0  0  0  0  0  0  0  0  0  0  0  0
   -9.6482   -7.9612    0.0000 O   0  0  0  0  0  0  0  0  0  0  0  0
   -8.6836   -9.1099    0.0000 H   0  0  0  0  0  0  0  0  0  0  0  0
   -7.9090   -2.6611    0.0000 C   0  0  0  0  0  0  0  0  0  0  0  0
   -8.8730   -3.8103    0.0000 H   0  0  0  0  0  0  0  0  0  0  0  0
   -7.3964   -1.2505    0.0000 C   0  0  0  0  0  0  0  0  0  0  0  0
   -8.3610   -0.1007    0.0000 C   0  0  0  0  0  0  0  0  0  0  0  0
   -9.8382   -0.3615    0.0000 H   0  0  0  0  0  0  0  0  0  0  0  0
   -7.8485    1.3099    0.0000 C   0  0  0  0  0  0  0  0  0  0  0  0
   -8.8131    2.4586    0.0000 H   0  0  0  0  0  0  0  0  0  0  0  0
   -6.3713    1.5707    0.0000 C   0  0  0  0  0  0  0  0  0  0  0  0
   -5.8583    2.9802    0.0000 H   0  0  0  0  0  0  0  0  0  0  0  0
   -5.4067    0.4209    0.0000 C   0  0  0  0  0  0  0  0  0  0  0  0
   -5.9193   -0.9897    0.0000 C   0  0  0  0  0  0  0  0  0  0  0  0
   -4.9547   -2.1395    0.0000 C   0  0  0  0  0  0  0  0  0  0  0  0
   -3.4775   -1.8787    0.0000 O   0  0  0  0  0  0  0  0  0  0  0  0
   -5.4672   -3.5501    0.0000 C   0  0  0  0  0  0  0  0  0  0  0  0
   -6.9444   -3.8109    0.0000 C   0  0  0  0  0  0  0  0  0  0  0  0
   -7.4570   -5.2215    0.0000 C   0  0  0  0  0  0  0  0  0  0  0  0
   -8.9341   -5.4823    0.0000 H   0  0  0  0  0  0  0  0  0  0  0  0
   -6.4924   -6.3713    0.0000 C   0  0  0  0  0  0  0  0  0  0  0  0
   -5.0152   -6.1105    0.0000 C   0  0  0  0  0  0  0  0  0  0  0  0
   -4.5026   -4.6999    0.0000 C   0  0  0  0  0  0  0  0  0  0  0  0
   -3.0255   -4.4391    0.0000 O   0  0  0  0  0  0  0  0  0  0  0  0
   -2.0611   -5.5880    0.0000 H   0  0  0  0  0  0  0  0  0  0  0  0
   -4.0506   -7.2592    0.0000 O   0  0  0  0  0  0  0  0  0  0  0  0
   -4.5631   -8.6690    0.0000 H   0  0  0  0  0  0  0  0  0  0  0  0
   -7.0053   -7.7809    0.0000 C   0  0  0  0  0  0  0  0  0  0  0  0
   -8.4825   -8.0414    0.0000 O   0  0  0  0  0  0  0  0  0  0  0  0
   -6.0411   -8.9299    0.0000 O   0  0  0  0  0  0  0  0  0  0  0  0
   -6.5540  -10.3395    0.0000 H   0  0  0  0  0  0  0  0  0  0  0  0
   -3.9296    0.6817    0.0000 O   0  0  0  0  0  0  0  0  0  0  0  0
   -3.4168    2.0913    0.0000 C   0  0  0  0  0  0  0  0  0  0  0  0
   -4.8935    2.3549    0.0000 H   0  0  0  0  0  0  0  0  0  0  0  0
   -2.1246    1.3496    0.0000 C   0  0  0  0  0  0  0  0  0  0  0  0
   -1.1566    0.2037    0.0000 H   0  0  0  0  0  0  0  0  0  0  0  0
   -0.8083    2.1160    0.0000 C   0  0  0  0  0  0  0  0  0  0  0  0
    0.6672    2.3861    0.0000 H   0  0  0  0  0  0  0  0  0  0  0  0
   -0.8203    3.6218    0.0000 C   0  0  0  0  0  0  0  0  0  0  0  0
   -0.3134    5.0336    0.0000 H   0  0  0  0  0  0  0  0  0  0  0  0
   -2.1125    4.3636    0.0000 C   0  0  0  0  0  0  0  0  0  0  0  0
   -3.0798    5.5100    0.0000 H   0  0  0  0  0  0  0  0  0  0  0  0
   -0.5362    6.2522    0.0000 C   0  0  0  0  0  0  0  0  0  0  0  0
   -0.0269    7.6631    0.0000 H   0  0  0  0  0  0  0  0  0  0  0  0
   -1.8372    6.9988    0.0000 H   0  0  0  0  0  0  0  0  0  0  0  0
    0.9417    5.9956    0.0000 O   0  0  0  0  0  0  0  0  0  0  0  0
    1.9028    7.1472    0.0000 H   0  0  0  0  0  0  0  0  0  0  0  0
   -3.4102    3.6095    0.0000 O   0  0  0  0  0  0  0  0  0  0  0  0
    0.6585    3.3704    0.0000 O   0  0  0  0  0  0  0  0  0  0  0  0
    1.6156    4.5254    0.0000 H   0  0  0  0  0  0  0  0  0  0  0  0
   -0.2881    0.7091    0.0000 O   0  0  0  0  0  0  0  0  0  0  0  0
    1.1904    0.4562    0.0000 H   0  0  0  0  0  0  0  0  0  0  0  0
   -3.0854    0.1977    0.0000 O   0  0  0  0  0  0  0  0  0  0  0  0
   -2.5683   -1.2104    0.0000 H   0  0  0  0  0  0  0  0  0  0  0  0
  -14.9233    0.3463    0.0000 O   0  0  0  0  0  0  0  0  0  0  0  0
  -15.8877    1.4951    0.0000 C   0  0  0  0  0  0  0  0  0  0  0  0
  -14.5906    2.2484    0.0000 H   0  0  0  0  0  0  0  0  0  0  0  0
  -16.8479    0.3557    0.0000 C   0  0  0  0  0  0  0  0  0  0  0  0
  -17.3650   -1.0523    0.0000 H   0  0  0  0  0  0  0  0  0  0  0  0
  -18.3470    0.6251    0.0000 C   0  0  0  0  0  0  0  0  0  0  0  0
  -19.8258    0.3737    0.0000 H   0  0  0  0  0  0  0  0  0  0  0  0
  -18.8514    2.0440    0.0000 C   0  0  0  0  0  0  0  0  0  0  0  0
  -19.8111    3.1968    0.0000 H   0  0  0  0  0  0  0  0  0  0  0  0
  -17.8913    3.1834    0.0000 C   0  0  0  0  0  0  0  0  0  0  0  0
  -17.3750    4.5918    0.0000 H   0  0  0  0  0  0  0  0  0  0  0  0
  -20.0190    4.4181    0.0000 C   0  0  0  0  0  0  0  0  0  0  0  0
  -20.9806    5.5693    0.0000 H   0  0  0  0  0  0  0  0  0  0  0  0
  -19.0523    5.5650    0.0000 H   0  0  0  0  0  0  0  0  0  0  0  0
  -21.3196    3.6709    0.0000 O   0  0  0  0  0  0  0  0  0  0  0  0
  -22.6170    4.4238    0.0000 H   0  0  0  0  0  0  0  0  0  0  0  0
  -16.4139    2.9192    0.0000 O   0  0  0  0  0  0  0  0  0  0  0  0
  -20.1547    1.3014    0.0000 O   0  0  0  0  0  0  0  0  0  0  0  0
  -21.4494    2.0588    0.0000 H   0  0  0  0  0  0  0  0  0  0  0  0
  -18.3540   -0.8749    0.0000 O   0  0  0  0  0  0  0  0  0  0  0  0
  -19.6566   -1.6188    0.0000 H   0  0  0  0  0  0  0  0  0  0  0  0
  -15.5507   -0.3975    0.0000 O   0  0  0  0  0  0  0  0  0  0  0  0
  -15.5544   -1.8975    0.0000 H   0  0  0  0  0  0  0  0  0  0  0  0
  1  2  1  0  0  0  0 
  1  3  2  0  0  0  0 
  3  4  1  0  0  0  0 
  3  5  1  0  0  0  0 
  5  6  2  0  0  0  0 
  6  7  1  0  0  0  0 
  7  8  2  0  0  0  0 
  1  8  1  0  0  0  0 
  8  9  1  0  0  0  0 
  7 10  1  0  0  0  0 
 10 11  1  0  0  0  0 
 10 12  1  0  0  0  0 
 12 13  2  0  0  0  0 
 13 14  1  0  0  0  0 
 13 15  1  0  0  0  0 
 15 16  2  0  0  0  0 
 16 17  1  0  0  0  0 
 16 18  1  0  0  0  0 
 18 19  2  0  0  0  0 
 12 19  1  0  0  0  0 
 19 20  1  0  0  0  0 
  6 20  1  0  0  0  0 
 20 21  2  0  0  0  0 
 18 22  1  0  0  0  0 
 22 23  1  0  0  0  0 
 15 24  1  0  0  0  0 
 24 25  2  0  0  0  0 
 24 26  1  0  0  0  0 
 26 27  1  0  0  0  0 
 10 28  1  0  0  0  0 
 28 29  1  0  0  0  0 
 28 30  1  0  0  0  0 
 30 31  2  0  0  0  0 
 31 32  1  0  0  0  0 
 31 33  1  0  0  0  0 
 33 34  1  0  0  0  0 
 33 35  2  0  0  0  0 
 35 36  1  0  0  0  0 
 35 37  1  0  0  0  0 
 37 38  2  0  0  0  0 
 30 38  1  0  0  0  0 
 38 39  1  0  0  0  0 
 39 40  2  0  0  0  0 
 39 41  1  0  0  0  0 
 41 42  2  0  0  0  0 
 28 42  1  0  0  0  0 
 42 43  1  0  0  0  0 
 43 44  1  0  0  0  0 
 43 45  2  0  0  0  0 
 45 46  1  0  0  0  0 
 46 47  2  0  0  0  0 
 41 47  1  0  0  0  0 
 47 48  1  0  0  0  0 
 48 49  1  0  0  0  0 
 46 50  1  0  0  0  0 
 50 51  1  0  0  0  0 
 45 52  1  0  0  0  0 
 52 53  2  0  0  0  0 
 52 54  1  0  0  0  0 
 54 55  1  0  0  0  0 
 37 56  1  0  0  0  0 
 56 57  1  0  0  0  0 
 57 58  1  0  0  0  0 
 57 59  1  0  0  0  0 
 59 60  1  0  0  0  0 
 59 61  1  0  0  0  0 
 61 62  1  0  0  0  0 
 61 63  1  0  0  0  0 
 63 64  1  0  0  0  0 
 63 65  1  0  0  0  0 
 65 66  1  0  0  0  0 
 65 67  1  0  0  0  0 
 67 68  1  0  0  0  0 
 67 69  1  0  0  0  0 
 67 70  1  0  0  0  0 
 70 71  1  0  0  0  0 
 65 72  1  0  0  0  0 
 57 72  1  0  0  0  0 
 63 73  1  0  0  0  0 
 73 74  1  0  0  0  0 
 61 75  1  0  0  0  0 
 75 76  1  0  0  0  0 
 59 77  1  0  0  0  0 
 77 78  1  0  0  0  0 
  5 79  1  0  0  0  0 
 79 80  1  0  0  0  0 
 80 81  1  0  0  0  0 
 80 82  1  0  0  0  0 
 82 83  1  0  0  0  0 
 82 84  1  0  0  0  0 
 84 85  1  0  0  0  0 
 84 86  1  0  0  0  0 
 86 87  1  0  0  0  0 
 86 88  1  0  0  0  0 
 88 89  1  0  0  0  0 
 88 90  1  0  0  0  0 
 90 91  1  0  0  0  0 
 90 92  1  0  0  0  0 
 90 93  1  0  0  0  0 
 93 94  1  0  0  0  0 
 88 95  1  0  0  0  0 
 80 95  1  0  0  0  0 
 86 96  1  0  0  0  0 
 96 97  1  0  0  0  0 
 84 98  1  0  0  0  0 
 98 99  1  0  0  0  0 
 82100  1  0  0  0  0 
100101  1  0  0  0  0 
M  END
> <Rank>
13

> <Priority_score>
0.116

> <Reaction_type>
aromatic_hydroxylation_(para_to_carbon)

> <Parent_ID>
79

> <Parent_InChI>
InChI=1S/C42H38O20/c43-11-23-31(47)35(51)37(53)41(61-23)59-21-5-1-3-15-25(17-7-13(39(55)56)9-19(45)27(17)33(49)29(15)21)26-16-4-2-6-22(60-42-38(54)36(52)32(48)24(12-44)62-42)30(16)34(50)28-18(26)8-14(40(57)58)10-20(28)46/h1-10,23-26,31-32,35-38,41-48,51-54H,11-12H2,(H,55,56)(H,57,58)

> <Parent_SMILES>
O=C(O)c1cc(O)c2c(c1)C(C1c3cc(C(=O)O)cc(O)c3C(=O)c3c(OC4OC(CO)C(O)C(O)C4O)cccc31)c1cccc(OC3OC(CO)C(O)C(O)C3O)c1C2=O

$$$$
Molecule 79_metabolite 14
  CDK     0516241031

101108  0  0  0  0  0  0  0  0999 V2000
  -11.4564    2.2784    0.0000 C   0  0  0  0  0  0  0  0  0  0  0  0
  -10.9435    3.6880    0.0000 H   0  0  0  0  0  0  0  0  0  0  0  0
  -12.9336    2.0176    0.0000 C   0  0  0  0  0  0  0  0  0  0  0  0
  -13.8982    3.1663    0.0000 H   0  0  0  0  0  0  0  0  0  0  0  0
  -13.4462    0.6070    0.0000 C   0  0  0  0  0  0  0  0  0  0  0  0
  -12.4816   -0.5428    0.0000 C   0  0  0  0  0  0  0  0  0  0  0  0
  -11.0044   -0.2820    0.0000 C   0  0  0  0  0  0  0  0  0  0  0  0
  -10.4918    1.1286    0.0000 C   0  0  0  0  0  0  0  0  0  0  0  0
   -9.0147    1.3894    0.0000 H   0  0  0  0  0  0  0  0  0  0  0  0
  -10.0398   -1.4318    0.0000 C   0  0  0  0  0  0  0  0  0  0  0  0
   -9.0757   -0.2826    0.0000 H   0  0  0  0  0  0  0  0  0  0  0  0
  -10.5524   -2.8424    0.0000 C   0  0  0  0  0  0  0  0  0  0  0  0
   -9.5878   -3.9922    0.0000 C   0  0  0  0  0  0  0  0  0  0  0  0
   -8.1106   -3.7314    0.0000 H   0  0  0  0  0  0  0  0  0  0  0  0
  -10.1003   -5.4028    0.0000 C   0  0  0  0  0  0  0  0  0  0  0  0
  -11.5775   -5.6636    0.0000 C   0  0  0  0  0  0  0  0  0  0  0  0
  -12.0904   -7.0731    0.0000 H   0  0  0  0  0  0  0  0  0  0  0  0
  -12.5421   -4.5138    0.0000 C   0  0  0  0  0  0  0  0  0  0  0  0
  -12.0295   -3.1032    0.0000 C   0  0  0  0  0  0  0  0  0  0  0  0
  -12.9941   -1.9534    0.0000 C   0  0  0  0  0  0  0  0  0  0  0  0
  -14.4713   -2.2142    0.0000 O   0  0  0  0  0  0  0  0  0  0  0  0
  -14.0192   -4.7746    0.0000 O   0  0  0  0  0  0  0  0  0  0  0  0
  -14.5320   -6.1842    0.0000 H   0  0  0  0  0  0  0  0  0  0  0  0
   -9.1357   -6.5515    0.0000 C   0  0  0  0  0  0  0  0  0  0  0  0
   -7.6586   -6.2905    0.0000 O   0  0  0  0  0  0  0  0  0  0  0  0
   -9.6482   -7.9612    0.0000 O   0  0  0  0  0  0  0  0  0  0  0  0
   -8.6836   -9.1099    0.0000 H   0  0  0  0  0  0  0  0  0  0  0  0
   -7.4932   -2.9010    0.0000 C   0  0  0  0  0  0  0  0  0  0  0  0
   -6.9807   -1.4904    0.0000 C   0  0  0  0  0  0  0  0  0  0  0  0
   -7.9453   -0.3406    0.0000 C   0  0  0  0  0  0  0  0  0  0  0  0
   -9.4224   -0.6014    0.0000 H   0  0  0  0  0  0  0  0  0  0  0  0
   -7.4327    1.0700    0.0000 C   0  0  0  0  0  0  0  0  0  0  0  0
   -8.3973    2.2187    0.0000 H   0  0  0  0  0  0  0  0  0  0  0  0
   -5.9555    1.3308    0.0000 C   0  0  0  0  0  0  0  0  0  0  0  0
   -5.4426    2.7404    0.0000 H   0  0  0  0  0  0  0  0  0  0  0  0
   -4.9909    0.1810    0.0000 C   0  0  0  0  0  0  0  0  0  0  0  0
   -5.5035   -1.2296    0.0000 C   0  0  0  0  0  0  0  0  0  0  0  0
   -4.5389   -2.3794    0.0000 C   0  0  0  0  0  0  0  0  0  0  0  0
   -3.0618   -2.1186    0.0000 O   0  0  0  0  0  0  0  0  0  0  0  0
   -5.0515   -3.7900    0.0000 C   0  0  0  0  0  0  0  0  0  0  0  0
   -4.0869   -4.9398    0.0000 C   0  0  0  0  0  0  0  0  0  0  0  0
   -4.5994   -6.3504    0.0000 C   0  0  0  0  0  0  0  0  0  0  0  0
   -3.6348   -7.4991    0.0000 H   0  0  0  0  0  0  0  0  0  0  0  0
   -6.0766   -6.6112    0.0000 C   0  0  0  0  0  0  0  0  0  0  0  0
   -7.0412   -5.4614    0.0000 C   0  0  0  0  0  0  0  0  0  0  0  0
   -8.5183   -5.7222    0.0000 H   0  0  0  0  0  0  0  0  0  0  0  0
   -6.5286   -4.0508    0.0000 C   0  0  0  0  0  0  0  0  0  0  0  0
   -6.5895   -8.0208    0.0000 C   0  0  0  0  0  0  0  0  0  0  0  0
   -8.0667   -8.2813    0.0000 O   0  0  0  0  0  0  0  0  0  0  0  0
   -5.6253   -9.1698    0.0000 O   0  0  0  0  0  0  0  0  0  0  0  0
   -6.1383  -10.5793    0.0000 H   0  0  0  0  0  0  0  0  0  0  0  0
   -2.6097   -4.6790    0.0000 O   0  0  0  0  0  0  0  0  0  0  0  0
   -1.6453   -5.8279    0.0000 H   0  0  0  0  0  0  0  0  0  0  0  0
   -3.5138    0.4418    0.0000 O   0  0  0  0  0  0  0  0  0  0  0  0
   -3.0011    1.8514    0.0000 C   0  0  0  0  0  0  0  0  0  0  0  0
   -4.4777    2.1150    0.0000 H   0  0  0  0  0  0  0  0  0  0  0  0
   -1.7088    1.1097    0.0000 C   0  0  0  0  0  0  0  0  0  0  0  0
   -0.7408   -0.0362    0.0000 H   0  0  0  0  0  0  0  0  0  0  0  0
   -0.3926    1.8762    0.0000 C   0  0  0  0  0  0  0  0  0  0  0  0
    1.0829    2.1463    0.0000 H   0  0  0  0  0  0  0  0  0  0  0  0
   -0.4045    3.3820    0.0000 C   0  0  0  0  0  0  0  0  0  0  0  0
    0.1024    4.7937    0.0000 H   0  0  0  0  0  0  0  0  0  0  0  0
   -1.6968    4.1237    0.0000 C   0  0  0  0  0  0  0  0  0  0  0  0
   -2.6641    5.2701    0.0000 H   0  0  0  0  0  0  0  0  0  0  0  0
   -0.1205    6.0123    0.0000 C   0  0  0  0  0  0  0  0  0  0  0  0
    0.3889    7.4232    0.0000 H   0  0  0  0  0  0  0  0  0  0  0  0
   -1.4215    6.7589    0.0000 H   0  0  0  0  0  0  0  0  0  0  0  0
    1.3574    5.7557    0.0000 O   0  0  0  0  0  0  0  0  0  0  0  0
    2.3186    6.9073    0.0000 H   0  0  0  0  0  0  0  0  0  0  0  0
   -2.9944    3.3696    0.0000 O   0  0  0  0  0  0  0  0  0  0  0  0
    1.0743    3.1306    0.0000 O   0  0  0  0  0  0  0  0  0  0  0  0
    2.0314    4.2855    0.0000 H   0  0  0  0  0  0  0  0  0  0  0  0
    0.1277    0.4693    0.0000 O   0  0  0  0  0  0  0  0  0  0  0  0
    1.6062    0.2164    0.0000 H   0  0  0  0  0  0  0  0  0  0  0  0
   -2.6696   -0.0422    0.0000 O   0  0  0  0  0  0  0  0  0  0  0  0
   -2.1525   -1.4502    0.0000 H   0  0  0  0  0  0  0  0  0  0  0  0
   -8.9027   -3.4142    0.0000 O   0  0  0  0  0  0  0  0  0  0  0  0
  -10.0519   -2.4501    0.0000 H   0  0  0  0  0  0  0  0  0  0  0  0
  -14.9233    0.3463    0.0000 O   0  0  0  0  0  0  0  0  0  0  0  0
  -15.8877    1.4951    0.0000 C   0  0  0  0  0  0  0  0  0  0  0  0
  -14.5906    2.2484    0.0000 H   0  0  0  0  0  0  0  0  0  0  0  0
  -16.8479    0.3557    0.0000 C   0  0  0  0  0  0  0  0  0  0  0  0
  -17.3650   -1.0523    0.0000 H   0  0  0  0  0  0  0  0  0  0  0  0
  -18.3470    0.6251    0.0000 C   0  0  0  0  0  0  0  0  0  0  0  0
  -19.8258    0.3737    0.0000 H   0  0  0  0  0  0  0  0  0  0  0  0
  -18.8514    2.0440    0.0000 C   0  0  0  0  0  0  0  0  0  0  0  0
  -19.8111    3.1968    0.0000 H   0  0  0  0  0  0  0  0  0  0  0  0
  -17.8913    3.1834    0.0000 C   0  0  0  0  0  0  0  0  0  0  0  0
  -17.3750    4.5918    0.0000 H   0  0  0  0  0  0  0  0  0  0  0  0
  -20.0190    4.4181    0.0000 C   0  0  0  0  0  0  0  0  0  0  0  0
  -20.9806    5.5693    0.0000 H   0  0  0  0  0  0  0  0  0  0  0  0
  -19.0523    5.5650    0.0000 H   0  0  0  0  0  0  0  0  0  0  0  0
  -21.3196    3.6709    0.0000 O   0  0  0  0  0  0  0  0  0  0  0  0
  -22.6170    4.4238    0.0000 H   0  0  0  0  0  0  0  0  0  0  0  0
  -16.4139    2.9192    0.0000 O   0  0  0  0  0  0  0  0  0  0  0  0
  -20.1547    1.3014    0.0000 O   0  0  0  0  0  0  0  0  0  0  0  0
  -21.4494    2.0588    0.0000 H   0  0  0  0  0  0  0  0  0  0  0  0
  -18.3540   -0.8749    0.0000 O   0  0  0  0  0  0  0  0  0  0  0  0
  -19.6566   -1.6188    0.0000 H   0  0  0  0  0  0  0  0  0  0  0  0
  -15.5507   -0.3975    0.0000 O   0  0  0  0  0  0  0  0  0  0  0  0
  -15.5544   -1.8975    0.0000 H   0  0  0  0  0  0  0  0  0  0  0  0
  1  2  1  0  0  0  0 
  1  3  2  0  0  0  0 
  3  4  1  0  0  0  0 
  3  5  1  0  0  0  0 
  5  6  2  0  0  0  0 
  6  7  1  0  0  0  0 
  7  8  2  0  0  0  0 
  1  8  1  0  0  0  0 
  8  9  1  0  0  0  0 
  7 10  1  0  0  0  0 
 10 11  1  0  0  0  0 
 10 12  1  0  0  0  0 
 12 13  2  0  0  0  0 
 13 14  1  0  0  0  0 
 13 15  1  0  0  0  0 
 15 16  2  0  0  0  0 
 16 17  1  0  0  0  0 
 16 18  1  0  0  0  0 
 18 19  2  0  0  0  0 
 12 19  1  0  0  0  0 
 19 20  1  0  0  0  0 
  6 20  1  0  0  0  0 
 20 21  2  0  0  0  0 
 18 22  1  0  0  0  0 
 22 23  1  0  0  0  0 
 15 24  1  0  0  0  0 
 24 25  2  0  0  0  0 
 24 26  1  0  0  0  0 
 26 27  1  0  0  0  0 
 10 28  1  0  0  0  0 
 28 29  1  0  0  0  0 
 29 30  2  0  0  0  0 
 30 31  1  0  0  0  0 
 30 32  1  0  0  0  0 
 32 33  1  0  0  0  0 
 32 34  2  0  0  0  0 
 34 35  1  0  0  0  0 
 34 36  1  0  0  0  0 
 36 37  2  0  0  0  0 
 29 37  1  0  0  0  0 
 37 38  1  0  0  0  0 
 38 39  2  0  0  0  0 
 38 40  1  0  0  0  0 
 40 41  2  0  0  0  0 
 41 42  1  0  0  0  0 
 42 43  1  0  0  0  0 
 42 44  2  0  0  0  0 
 44 45  1  0  0  0  0 
 45 46  1  0  0  0  0 
 45 47  2  0  0  0  0 
 40 47  1  0  0  0  0 
 28 47  1  0  0  0  0 
 44 48  1  0  0  0  0 
 48 49  2  0  0  0  0 
 48 50  1  0  0  0  0 
 50 51  1  0  0  0  0 
 41 52  1  0  0  0  0 
 52 53  1  0  0  0  0 
 36 54  1  0  0  0  0 
 54 55  1  0  0  0  0 
 55 56  1  0  0  0  0 
 55 57  1  0  0  0  0 
 57 58  1  0  0  0  0 
 57 59  1  0  0  0  0 
 59 60  1  0  0  0  0 
 59 61  1  0  0  0  0 
 61 62  1  0  0  0  0 
 61 63  1  0  0  0  0 
 63 64  1  0  0  0  0 
 63 65  1  0  0  0  0 
 65 66  1  0  0  0  0 
 65 67  1  0  0  0  0 
 65 68  1  0  0  0  0 
 68 69  1  0  0  0  0 
 63 70  1  0  0  0  0 
 55 70  1  0  0  0  0 
 61 71  1  0  0  0  0 
 71 72  1  0  0  0  0 
 59 73  1  0  0  0  0 
 73 74  1  0  0  0  0 
 57 75  1  0  0  0  0 
 75 76  1  0  0  0  0 
 28 77  1  0  0  0  0 
 77 78  1  0  0  0  0 
  5 79  1  0  0  0  0 
 79 80  1  0  0  0  0 
 80 81  1  0  0  0  0 
 80 82  1  0  0  0  0 
 82 83  1  0  0  0  0 
 82 84  1  0  0  0  0 
 84 85  1  0  0  0  0 
 84 86  1  0  0  0  0 
 86 87  1  0  0  0  0 
 86 88  1  0  0  0  0 
 88 89  1  0  0  0  0 
 88 90  1  0  0  0  0 
 90 91  1  0  0  0  0 
 90 92  1  0  0  0  0 
 90 93  1  0  0  0  0 
 93 94  1  0  0  0  0 
 88 95  1  0  0  0  0 
 80 95  1  0  0  0  0 
 86 96  1  0  0  0  0 
 96 97  1  0  0  0  0 
 84 98  1  0  0  0  0 
 98 99  1  0  0  0  0 
 82100  1  0  0  0  0 
100101  1  0  0  0  0 
M  END
> <Rank>
13

> <Priority_score>
0.116

> <Reaction_type>
benzylic_hydroxylation_(c-CH1-CR)

> <Parent_ID>
79

> <Parent_InChI>
InChI=1S/C42H38O20/c43-11-23-31(47)35(51)37(53)41(61-23)59-21-5-1-3-15-25(17-7-13(39(55)56)9-19(45)27(17)33(49)29(15)21)26-16-4-2-6-22(60-42-38(54)36(52)32(48)24(12-44)62-42)30(16)34(50)28-18(26)8-14(40(57)58)10-20(28)46/h1-10,23-26,31-32,35-38,41-48,51-54H,11-12H2,(H,55,56)(H,57,58)

> <Parent_SMILES>
O=C(O)c1cc(O)c2c(c1)C(C1c3cc(C(=O)O)cc(O)c3C(=O)c3c(OC4OC(CO)C(O)C(O)C4O)cccc31)c1cccc(OC3OC(CO)C(O)C(O)C3O)c1C2=O

$$$$
Molecule 79_metabolite 15
  CDK     0516241031

101108  0  0  0  0  0  0  0  0999 V2000
   -7.3865   13.0738    0.0000 C   0  0  0  0  0  0  0  0  0  0  0  0
   -7.8990   14.4835    0.0000 H   0  0  0  0  0  0  0  0  0  0  0  0
   -8.3509   11.9249    0.0000 C   0  0  0  0  0  0  0  0  0  0  0  0
   -9.8281   12.1855    0.0000 H   0  0  0  0  0  0  0  0  0  0  0  0
   -7.8374   10.5146    0.0000 C   0  0  0  0  0  0  0  0  0  0  0  0
   -6.3595   10.2532    0.0000 C   0  0  0  0  0  0  0  0  0  0  0  0
   -5.3951   11.4021    0.0000 C   0  0  0  0  0  0  0  0  0  0  0  0
   -5.9086   12.8124    0.0000 C   0  0  0  0  0  0  0  0  0  0  0  0
   -4.9441   13.9612    0.0000 H   0  0  0  0  0  0  0  0  0  0  0  0
   -3.9172   11.1407    0.0000 C   0  0  0  0  0  0  0  0  0  0  0  0
   -3.9167   12.6407    0.0000 H   0  0  0  0  0  0  0  0  0  0  0  0
   -3.4037    9.7304    0.0000 C   0  0  0  0  0  0  0  0  0  0  0  0
   -1.9259    9.4690    0.0000 C   0  0  0  0  0  0  0  0  0  0  0  0
   -0.9614   10.6179    0.0000 H   0  0  0  0  0  0  0  0  0  0  0  0
   -1.4124    8.0587    0.0000 C   0  0  0  0  0  0  0  0  0  0  0  0
   -2.3768    6.9099    0.0000 C   0  0  0  0  0  0  0  0  0  0  0  0
   -1.8643    5.5002    0.0000 H   0  0  0  0  0  0  0  0  0  0  0  0
   -3.8547    7.1713    0.0000 C   0  0  0  0  0  0  0  0  0  0  0  0
   -4.3682    8.5816    0.0000 C   0  0  0  0  0  0  0  0  0  0  0  0
   -5.8461    8.8430    0.0000 C   0  0  0  0  0  0  0  0  0  0  0  0
   -6.8105    7.6941    0.0000 O   0  0  0  0  0  0  0  0  0  0  0  0
   -4.8191    6.0224    0.0000 O   0  0  0  0  0  0  0  0  0  0  0  0
   -4.3064    4.6128    0.0000 H   0  0  0  0  0  0  0  0  0  0  0  0
    0.0648    7.7982    0.0000 C   0  0  0  0  0  0  0  0  0  0  0  0
    1.0291    8.9472    0.0000 O   0  0  0  0  0  0  0  0  0  0  0  0
    0.5778    6.3886    0.0000 O   0  0  0  0  0  0  0  0  0  0  0  0
    2.0550    6.1281    0.0000 H   0  0  0  0  0  0  0  0  0  0  0  0
   -1.4945   11.5676    0.0000 C   0  0  0  0  0  0  0  0  0  0  0  0
   -1.4950   10.0676    0.0000 H   0  0  0  0  0  0  0  0  0  0  0  0
   -2.0080   12.9779    0.0000 C   0  0  0  0  0  0  0  0  0  0  0  0
   -3.4859   13.2393    0.0000 C   0  0  0  0  0  0  0  0  0  0  0  0
   -4.4503   12.0904    0.0000 H   0  0  0  0  0  0  0  0  0  0  0  0
   -3.9994   14.6495    0.0000 C   0  0  0  0  0  0  0  0  0  0  0  0
   -5.4766   14.9101    0.0000 H   0  0  0  0  0  0  0  0  0  0  0  0
   -3.0349   15.7984    0.0000 C   0  0  0  0  0  0  0  0  0  0  0  0
   -1.5570   15.5370    0.0000 C   0  0  0  0  0  0  0  0  0  0  0  0
   -1.0436   14.1267    0.0000 C   0  0  0  0  0  0  0  0  0  0  0  0
    0.4343   13.8653    0.0000 C   0  0  0  0  0  0  0  0  0  0  0  0
    1.3987   15.0142    0.0000 O   0  0  0  0  0  0  0  0  0  0  0  0
    0.9478   12.4551    0.0000 C   0  0  0  0  0  0  0  0  0  0  0  0
    2.4257   12.1936    0.0000 C   0  0  0  0  0  0  0  0  0  0  0  0
    2.9391   10.7834    0.0000 C   0  0  0  0  0  0  0  0  0  0  0  0
    4.4163   10.5228    0.0000 H   0  0  0  0  0  0  0  0  0  0  0  0
    1.9747    9.6345    0.0000 C   0  0  0  0  0  0  0  0  0  0  0  0
    0.4968    9.8959    0.0000 C   0  0  0  0  0  0  0  0  0  0  0  0
   -0.4676    8.7471    0.0000 H   0  0  0  0  0  0  0  0  0  0  0  0
   -0.0166   11.3062    0.0000 C   0  0  0  0  0  0  0  0  0  0  0  0
    2.4872    8.2248    0.0000 C   0  0  0  0  0  0  0  0  0  0  0  0
    1.5226    7.0761    0.0000 O   0  0  0  0  0  0  0  0  0  0  0  0
    3.9643    7.9638    0.0000 O   0  0  0  0  0  0  0  0  0  0  0  0
    4.4768    6.5540    0.0000 H   0  0  0  0  0  0  0  0  0  0  0  0
    3.3901   13.3425    0.0000 O   0  0  0  0  0  0  0  0  0  0  0  0
    4.8673   13.0817    0.0000 H   0  0  0  0  0  0  0  0  0  0  0  0
   -0.5926   16.6859    0.0000 O   0  0  0  0  0  0  0  0  0  0  0  0
   -1.1053   18.0955    0.0000 C   0  0  0  0  0  0  0  0  0  0  0  0
   -2.4063   17.3488    0.0000 H   0  0  0  0  0  0  0  0  0  0  0  0
    0.3615   18.3573    0.0000 C   0  0  0  0  0  0  0  0  0  0  0  0
    1.8394   18.1011    0.0000 H   0  0  0  0  0  0  0  0  0  0  0  0
    0.8777   19.7903    0.0000 C   0  0  0  0  0  0  0  0  0  0  0  0
    1.8349   20.9452    0.0000 H   0  0  0  0  0  0  0  0  0  0  0  0
   -0.0989   20.9365    0.0000 C   0  0  0  0  0  0  0  0  0  0  0  0
   -0.6174   22.3441    0.0000 H   0  0  0  0  0  0  0  0  0  0  0  0
   -1.5657   20.6747    0.0000 C   0  0  0  0  0  0  0  0  0  0  0  0
   -3.0435   20.9318    0.0000 H   0  0  0  0  0  0  0  0  0  0  0  0
   -1.5711   23.1347    0.0000 C   0  0  0  0  0  0  0  0  0  0  0  0
   -2.0872   24.5431    0.0000 H   0  0  0  0  0  0  0  0  0  0  0  0
   -3.0477   22.8710    0.0000 H   0  0  0  0  0  0  0  0  0  0  0  0
   -0.2737   23.8876    0.0000 O   0  0  0  0  0  0  0  0  0  0  0  0
   -0.2770   25.3876    0.0000 H   0  0  0  0  0  0  0  0  0  0  0  0
   -2.0756   19.2632    0.0000 O   0  0  0  0  0  0  0  0  0  0  0  0
    1.1959   21.6939    0.0000 O   0  0  0  0  0  0  0  0  0  0  0  0
    1.1873   23.1939    0.0000 H   0  0  0  0  0  0  0  0  0  0  0  0
    2.1803   19.0464    0.0000 O   0  0  0  0  0  0  0  0  0  0  0  0
    3.4758   19.8025    0.0000 H   0  0  0  0  0  0  0  0  0  0  0  0
    0.3652   16.8573    0.0000 O   0  0  0  0  0  0  0  0  0  0  0  0
    1.6661   16.1105    0.0000 H   0  0  0  0  0  0  0  0  0  0  0  0
   -3.5474   17.2081    0.0000 O   0  0  0  0  0  0  0  0  0  0  0  0
   -5.0246   17.4692    0.0000 H   0  0  0  0  0  0  0  0  0  0  0  0
   -8.8019    9.3658    0.0000 O   0  0  0  0  0  0  0  0  0  0  0  0
  -10.2790    9.6266    0.0000 C   0  0  0  0  0  0  0  0  0  0  0  0
   -9.7689   11.0372    0.0000 H   0  0  0  0  0  0  0  0  0  0  0  0
  -10.2828    8.1366    0.0000 C   0  0  0  0  0  0  0  0  0  0  0  0
   -9.7744    6.7253    0.0000 H   0  0  0  0  0  0  0  0  0  0  0  0
  -11.6047    7.3799    0.0000 C   0  0  0  0  0  0  0  0  0  0  0  0
  -12.5763    6.2371    0.0000 H   0  0  0  0  0  0  0  0  0  0  0  0
  -12.9027    8.1432    0.0000 C   0  0  0  0  0  0  0  0  0  0  0  0
  -14.3788    8.4100    0.0000 H   0  0  0  0  0  0  0  0  0  0  0  0
  -12.8990    9.6332    0.0000 C   0  0  0  0  0  0  0  0  0  0  0  0
  -13.4082   11.0441    0.0000 H   0  0  0  0  0  0  0  0  0  0  0  0
  -15.7957    9.1302    0.0000 C   0  0  0  0  0  0  0  0  0  0  0  0
  -17.0967    8.3836    0.0000 H   0  0  0  0  0  0  0  0  0  0  0  0
  -15.2863    7.7193    0.0000 H   0  0  0  0  0  0  0  0  0  0  0  0
  -16.7568   10.2818    0.0000 O   0  0  0  0  0  0  0  0  0  0  0  0
  -18.2347   10.0252    0.0000 H   0  0  0  0  0  0  0  0  0  0  0  0
  -11.5971   10.3799    0.0000 O   0  0  0  0  0  0  0  0  0  0  0  0
  -13.4244    6.7368    0.0000 O   0  0  0  0  0  0  0  0  0  0  0  0
  -14.9032    6.4854    0.0000 H   0  0  0  0  0  0  0  0  0  0  0  0
  -10.6464    6.2259    0.0000 O   0  0  0  0  0  0  0  0  0  0  0  0
  -11.1666    4.8190    0.0000 H   0  0  0  0  0  0  0  0  0  0  0  0
   -8.8048    8.3927    0.0000 O   0  0  0  0  0  0  0  0  0  0  0  0
   -7.8440    7.2409    0.0000 H   0  0  0  0  0  0  0  0  0  0  0  0
  1  2  1  0  0  0  0 
  1  3  2  0  0  0  0 
  3  4  1  0  0  0  0 
  3  5  1  0  0  0  0 
  5  6  2  0  0  0  0 
  6  7  1  0  0  0  0 
  7  8  2  0  0  0  0 
  1  8  1  0  0  0  0 
  8  9  1  0  0  0  0 
  7 10  1  0  0  0  0 
 10 11  1  0  0  0  0 
 10 12  1  0  0  0  0 
 12 13  2  0  0  0  0 
 13 14  1  0  0  0  0 
 13 15  1  0  0  0  0 
 15 16  2  0  0  0  0 
 16 17  1  0  0  0  0 
 16 18  1  0  0  0  0 
 18 19  2  0  0  0  0 
 12 19  1  0  0  0  0 
 19 20  1  0  0  0  0 
  6 20  1  0  0  0  0 
 20 21  2  0  0  0  0 
 18 22  1  0  0  0  0 
 22 23  1  0  0  0  0 
 15 24  1  0  0  0  0 
 24 25  2  0  0  0  0 
 24 26  1  0  0  0  0 
 26 27  1  0  0  0  0 
 10 28  1  0  0  0  0 
 28 29  1  0  0  0  0 
 28 30  1  0  0  0  0 
 30 31  2  0  0  0  0 
 31 32  1  0  0  0  0 
 31 33  1  0  0  0  0 
 33 34  1  0  0  0  0 
 33 35  2  0  0  0  0 
 35 36  1  0  0  0  0 
 36 37  2  0  0  0  0 
 30 37  1  0  0  0  0 
 37 38  1  0  0  0  0 
 38 39  2  0  0  0  0 
 38 40  1  0  0  0  0 
 40 41  2  0  0  0  0 
 41 42  1  0  0  0  0 
 42 43  1  0  0  0  0 
 42 44  2  0  0  0  0 
 44 45  1  0  0  0  0 
 45 46  1  0  0  0  0 
 45 47  2  0  0  0  0 
 28 47  1  0  0  0  0 
 40 47  1  0  0  0  0 
 44 48  1  0  0  0  0 
 48 49  2  0  0  0  0 
 48 50  1  0  0  0  0 
 50 51  1  0  0  0  0 
 41 52  1  0  0  0  0 
 52 53  1  0  0  0  0 
 36 54  1  0  0  0  0 
 54 55  1  0  0  0  0 
 55 56  1  0  0  0  0 
 55 57  1  0  0  0  0 
 57 58  1  0  0  0  0 
 57 59  1  0  0  0  0 
 59 60  1  0  0  0  0 
 59 61  1  0  0  0  0 
 61 62  1  0  0  0  0 
 61 63  1  0  0  0  0 
 63 64  1  0  0  0  0 
 63 65  1  0  0  0  0 
 65 66  1  0  0  0  0 
 65 67  1  0  0  0  0 
 65 68  1  0  0  0  0 
 68 69  1  0  0  0  0 
 63 70  1  0  0  0  0 
 55 70  1  0  0  0  0 
 61 71  1  0  0  0  0 
 71 72  1  0  0  0  0 
 59 73  1  0  0  0  0 
 73 74  1  0  0  0  0 
 57 75  1  0  0  0  0 
 75 76  1  0  0  0  0 
 35 77  1  0  0  0  0 
 77 78  1  0  0  0  0 
  5 79  1  0  0  0  0 
 79 80  1  0  0  0  0 
 80 81  1  0  0  0  0 
 80 82  1  0  0  0  0 
 82 83  1  0  0  0  0 
 82 84  1  0  0  0  0 
 84 85  1  0  0  0  0 
 84 86  1  0  0  0  0 
 86 87  1  0  0  0  0 
 86 88  1  0  0  0  0 
 88 89  1  0  0  0  0 
 88 90  1  0  0  0  0 
 90 91  1  0  0  0  0 
 90 92  1  0  0  0  0 
 90 93  1  0  0  0  0 
 93 94  1  0  0  0  0 
 88 95  1  0  0  0  0 
 80 95  1  0  0  0  0 
 86 96  1  0  0  0  0 
 96 97  1  0  0  0  0 
 84 98  1  0  0  0  0 
 98 99  1  0  0  0  0 
 82100  1  0  0  0  0 
100101  1  0  0  0  0 
M  END
> <Rank>
13

> <Priority_score>
0.116

> <Reaction_type>
aromatic_hydroxylation_(para_to_carbon)

> <Parent_ID>
79

> <Parent_InChI>
InChI=1S/C42H38O20/c43-11-23-31(47)35(51)37(53)41(61-23)59-21-5-1-3-15-25(17-7-13(39(55)56)9-19(45)27(17)33(49)29(15)21)26-16-4-2-6-22(60-42-38(54)36(52)32(48)24(12-44)62-42)30(16)34(50)28-18(26)8-14(40(57)58)10-20(28)46/h1-10,23-26,31-32,35-38,41-48,51-54H,11-12H2,(H,55,56)(H,57,58)

> <Parent_SMILES>
O=C(O)c1cc(O)c2c(c1)C(C1c3cc(C(=O)O)cc(O)c3C(=O)c3c(OC4OC(CO)C(O)C(O)C4O)cccc31)c1cccc(OC3OC(CO)C(O)C(O)C3O)c1C2=O

$$$$
Molecule 79_metabolite 16
  CDK     0516241031

 97104  0  0  0  0  0  0  0  0999 V2000
   -0.4622   -3.3213    0.0000 C   0  0  0  0  0  0  0  0  0  0  0  0
   -1.4268   -4.4700    0.0000 H   0  0  0  0  0  0  0  0  0  0  0  0
    1.0149   -3.5821    0.0000 C   0  0  0  0  0  0  0  0  0  0  0  0
    1.5279   -4.9917    0.0000 H   0  0  0  0  0  0  0  0  0  0  0  0
    1.9795   -2.4323    0.0000 C   0  0  0  0  0  0  0  0  0  0  0  0
    1.4670   -1.0217    0.0000 C   0  0  0  0  0  0  0  0  0  0  0  0
   -0.0102   -0.7609    0.0000 C   0  0  0  0  0  0  0  0  0  0  0  0
   -0.9748   -1.9107    0.0000 C   0  0  0  0  0  0  0  0  0  0  0  0
   -2.4519   -1.6499    0.0000 H   0  0  0  0  0  0  0  0  0  0  0  0
   -0.5228    0.6497    0.0000 C   0  0  0  0  0  0  0  0  0  0  0  0
   -1.8220   -0.0999    0.0000 H   0  0  0  0  0  0  0  0  0  0  0  0
    0.4418    1.7995    0.0000 C   0  0  0  0  0  0  0  0  0  0  0  0
   -0.0707    3.2101    0.0000 C   0  0  0  0  0  0  0  0  0  0  0  0
   -1.5479    3.4709    0.0000 H   0  0  0  0  0  0  0  0  0  0  0  0
    0.8939    4.3599    0.0000 C   0  0  0  0  0  0  0  0  0  0  0  0
    0.3809    5.7694    0.0000 H   0  0  0  0  0  0  0  0  0  0  0  0
    2.3710    4.0991    0.0000 C   0  0  0  0  0  0  0  0  0  0  0  0
    3.3356    5.2478    0.0000 H   0  0  0  0  0  0  0  0  0  0  0  0
    2.8836    2.6885    0.0000 C   0  0  0  0  0  0  0  0  0  0  0  0
    1.9190    1.5387    0.0000 C   0  0  0  0  0  0  0  0  0  0  0  0
    2.4316    0.1281    0.0000 C   0  0  0  0  0  0  0  0  0  0  0  0
    3.9087   -0.1327    0.0000 O   0  0  0  0  0  0  0  0  0  0  0  0
    4.3607    2.4277    0.0000 O   0  0  0  0  0  0  0  0  0  0  0  0
    5.3252    3.5766    0.0000 C   0  0  0  0  0  0  0  0  0  0  0  0
    4.0280    4.3298    0.0000 H   0  0  0  0  0  0  0  0  0  0  0  0
    6.2853    2.4372    0.0000 C   0  0  0  0  0  0  0  0  0  0  0  0
    6.8024    1.0291    0.0000 H   0  0  0  0  0  0  0  0  0  0  0  0
    7.7844    2.7066    0.0000 C   0  0  0  0  0  0  0  0  0  0  0  0
    9.2632    2.4551    0.0000 H   0  0  0  0  0  0  0  0  0  0  0  0
    8.2888    4.1255    0.0000 C   0  0  0  0  0  0  0  0  0  0  0  0
    9.2485    5.2783    0.0000 H   0  0  0  0  0  0  0  0  0  0  0  0
    7.3287    5.2649    0.0000 C   0  0  0  0  0  0  0  0  0  0  0  0
    6.8124    6.6732    0.0000 H   0  0  0  0  0  0  0  0  0  0  0  0
    9.4564    6.4995    0.0000 C   0  0  0  0  0  0  0  0  0  0  0  0
   10.4181    7.6507    0.0000 H   0  0  0  0  0  0  0  0  0  0  0  0
    8.4897    7.6465    0.0000 H   0  0  0  0  0  0  0  0  0  0  0  0
   10.7571    5.7524    0.0000 O   0  0  0  0  0  0  0  0  0  0  0  0
   12.0545    6.5052    0.0000 H   0  0  0  0  0  0  0  0  0  0  0  0
    5.8513    5.0007    0.0000 O   0  0  0  0  0  0  0  0  0  0  0  0
    9.5921    3.3829    0.0000 O   0  0  0  0  0  0  0  0  0  0  0  0
   10.8869    4.1403    0.0000 H   0  0  0  0  0  0  0  0  0  0  0  0
    7.7915    1.2066    0.0000 O   0  0  0  0  0  0  0  0  0  0  0  0
    9.0940    0.4627    0.0000 H   0  0  0  0  0  0  0  0  0  0  0  0
    4.9881    1.6839    0.0000 O   0  0  0  0  0  0  0  0  0  0  0  0
    4.9919    0.1839    0.0000 H   0  0  0  0  0  0  0  0  0  0  0  0
   -2.1038    2.5343    0.0000 C   0  0  0  0  0  0  0  0  0  0  0  0
   -0.8045    3.2839    0.0000 H   0  0  0  0  0  0  0  0  0  0  0  0
   -3.0684    1.3845    0.0000 C   0  0  0  0  0  0  0  0  0  0  0  0
   -2.5558   -0.0261    0.0000 C   0  0  0  0  0  0  0  0  0  0  0  0
   -1.0787   -0.2869    0.0000 H   0  0  0  0  0  0  0  0  0  0  0  0
   -3.5204   -1.1759    0.0000 C   0  0  0  0  0  0  0  0  0  0  0  0
   -3.0075   -2.5855    0.0000 H   0  0  0  0  0  0  0  0  0  0  0  0
   -4.9976   -0.9151    0.0000 C   0  0  0  0  0  0  0  0  0  0  0  0
   -5.9622   -2.0638    0.0000 H   0  0  0  0  0  0  0  0  0  0  0  0
   -5.5102    0.4955    0.0000 C   0  0  0  0  0  0  0  0  0  0  0  0
   -4.5456    1.6453    0.0000 C   0  0  0  0  0  0  0  0  0  0  0  0
   -5.0581    3.0559    0.0000 C   0  0  0  0  0  0  0  0  0  0  0  0
   -6.5353    3.3167    0.0000 O   0  0  0  0  0  0  0  0  0  0  0  0
   -4.0935    4.2057    0.0000 C   0  0  0  0  0  0  0  0  0  0  0  0
   -4.6061    5.6163    0.0000 C   0  0  0  0  0  0  0  0  0  0  0  0
   -3.6415    6.7661    0.0000 C   0  0  0  0  0  0  0  0  0  0  0  0
   -4.1545    8.1757    0.0000 H   0  0  0  0  0  0  0  0  0  0  0  0
   -2.1643    6.5053    0.0000 C   0  0  0  0  0  0  0  0  0  0  0  0
   -1.6518    5.0947    0.0000 C   0  0  0  0  0  0  0  0  0  0  0  0
   -0.1746    4.8339    0.0000 H   0  0  0  0  0  0  0  0  0  0  0  0
   -2.6164    3.9449    0.0000 C   0  0  0  0  0  0  0  0  0  0  0  0
   -1.1997    7.6540    0.0000 C   0  0  0  0  0  0  0  0  0  0  0  0
    0.2774    7.3930    0.0000 O   0  0  0  0  0  0  0  0  0  0  0  0
   -1.7122    9.0637    0.0000 O   0  0  0  0  0  0  0  0  0  0  0  0
   -0.7476   10.2124    0.0000 H   0  0  0  0  0  0  0  0  0  0  0  0
   -6.0832    5.8771    0.0000 O   0  0  0  0  0  0  0  0  0  0  0  0
   -6.5960    7.2867    0.0000 H   0  0  0  0  0  0  0  0  0  0  0  0
   -6.9873    0.7563    0.0000 O   0  0  0  0  0  0  0  0  0  0  0  0
   -7.5000    2.1659    0.0000 C   0  0  0  0  0  0  0  0  0  0  0  0
   -6.0234    2.4295    0.0000 H   0  0  0  0  0  0  0  0  0  0  0  0
   -8.7923    1.4242    0.0000 C   0  0  0  0  0  0  0  0  0  0  0  0
   -9.7603    0.2783    0.0000 H   0  0  0  0  0  0  0  0  0  0  0  0
  -10.1085    2.1906    0.0000 C   0  0  0  0  0  0  0  0  0  0  0  0
  -11.5840    2.4607    0.0000 H   0  0  0  0  0  0  0  0  0  0  0  0
  -10.0966    3.6964    0.0000 C   0  0  0  0  0  0  0  0  0  0  0  0
  -10.6035    5.1082    0.0000 H   0  0  0  0  0  0  0  0  0  0  0  0
   -8.8043    4.4382    0.0000 C   0  0  0  0  0  0  0  0  0  0  0  0
   -7.8370    5.5846    0.0000 H   0  0  0  0  0  0  0  0  0  0  0  0
  -10.0731    5.9583    0.0000 C   0  0  0  0  0  0  0  0  0  0  0  0
   -8.7721    6.7049    0.0000 H   0  0  0  0  0  0  0  0  0  0  0  0
  -10.5824    7.3692    0.0000 H   0  0  0  0  0  0  0  0  0  0  0  0
  -11.5510    5.7017    0.0000 O   0  0  0  0  0  0  0  0  0  0  0  0
  -12.5121    6.8533    0.0000 H   0  0  0  0  0  0  0  0  0  0  0  0
   -7.5067    3.6841    0.0000 O   0  0  0  0  0  0  0  0  0  0  0  0
  -11.5754    3.4450    0.0000 O   0  0  0  0  0  0  0  0  0  0  0  0
  -12.5325    4.6000    0.0000 H   0  0  0  0  0  0  0  0  0  0  0  0
  -10.6288    0.7837    0.0000 O   0  0  0  0  0  0  0  0  0  0  0  0
  -12.1073    0.5308    0.0000 H   0  0  0  0  0  0  0  0  0  0  0  0
   -7.8315    0.2723    0.0000 O   0  0  0  0  0  0  0  0  0  0  0  0
   -8.3486   -1.1357    0.0000 H   0  0  0  0  0  0  0  0  0  0  0  0
    3.4567   -2.6931    0.0000 O   0  0  0  0  0  0  0  0  0  0  0  0
    3.9694   -4.1027    0.0000 H   0  0  0  0  0  0  0  0  0  0  0  0
  1  2  1  0  0  0  0 
  1  3  2  0  0  0  0 
  3  4  1  0  0  0  0 
  3  5  1  0  0  0  0 
  5  6  2  0  0  0  0 
  6  7  1  0  0  0  0 
  7  8  2  0  0  0  0 
  1  8  1  0  0  0  0 
  8  9  1  0  0  0  0 
  7 10  1  0  0  0  0 
 10 11  1  0  0  0  0 
 10 12  1  0  0  0  0 
 12 13  2  0  0  0  0 
 13 14  1  0  0  0  0 
 13 15  1  0  0  0  0 
 15 16  1  0  0  0  0 
 15 17  2  0  0  0  0 
 17 18  1  0  0  0  0 
 17 19  1  0  0  0  0 
 19 20  2  0  0  0  0 
 12 20  1  0  0  0  0 
 20 21  1  0  0  0  0 
  6 21  1  0  0  0  0 
 21 22  2  0  0  0  0 
 19 23  1  0  0  0  0 
 23 24  1  0  0  0  0 
 24 25  1  0  0  0  0 
 24 26  1  0  0  0  0 
 26 27  1  0  0  0  0 
 26 28  1  0  0  0  0 
 28 29  1  0  0  0  0 
 28 30  1  0  0  0  0 
 30 31  1  0  0  0  0 
 30 32  1  0  0  0  0 
 32 33  1  0  0  0  0 
 32 34  1  0  0  0  0 
 34 35  1  0  0  0  0 
 34 36  1  0  0  0  0 
 34 37  1  0  0  0  0 
 37 38  1  0  0  0  0 
 32 39  1  0  0  0  0 
 24 39  1  0  0  0  0 
 30 40  1  0  0  0  0 
 40 41  1  0  0  0  0 
 28 42  1  0  0  0  0 
 42 43  1  0  0  0  0 
 26 44  1  0  0  0  0 
 44 45  1  0  0  0  0 
 10 46  1  0  0  0  0 
 46 47  1  0  0  0  0 
 46 48  1  0  0  0  0 
 48 49  2  0  0  0  0 
 49 50  1  0  0  0  0 
 49 51  1  0  0  0  0 
 51 52  1  0  0  0  0 
 51 53  2  0  0  0  0 
 53 54  1  0  0  0  0 
 53 55  1  0  0  0  0 
 55 56  2  0  0  0  0 
 48 56  1  0  0  0  0 
 56 57  1  0  0  0  0 
 57 58  2  0  0  0  0 
 57 59  1  0  0  0  0 
 59 60  2  0  0  0  0 
 60 61  1  0  0  0  0 
 61 62  1  0  0  0  0 
 61 63  2  0  0  0  0 
 63 64  1  0  0  0  0 
 64 65  1  0  0  0  0 
 64 66  2  0  0  0  0 
 46 66  1  0  0  0  0 
 59 66  1  0  0  0  0 
 63 67  1  0  0  0  0 
 67 68  2  0  0  0  0 
 67 69  1  0  0  0  0 
 69 70  1  0  0  0  0 
 60 71  1  0  0  0  0 
 71 72  1  0  0  0  0 
 55 73  1  0  0  0  0 
 73 74  1  0  0  0  0 
 74 75  1  0  0  0  0 
 74 76  1  0  0  0  0 
 76 77  1  0  0  0  0 
 76 78  1  0  0  0  0 
 78 79  1  0  0  0  0 
 78 80  1  0  0  0  0 
 80 81  1  0  0  0  0 
 80 82  1  0  0  0  0 
 82 83  1  0  0  0  0 
 82 84  1  0  0  0  0 
 84 85  1  0  0  0  0 
 84 86  1  0  0  0  0 
 84 87  1  0  0  0  0 
 87 88  1  0  0  0  0 
 82 89  1  0  0  0  0 
 74 89  1  0  0  0  0 
 80 90  1  0  0  0  0 
 90 91  1  0  0  0  0 
 78 92  1  0  0  0  0 
 92 93  1  0  0  0  0 
 76 94  1  0  0  0  0 
 94 95  1  0  0  0  0 
  5 96  1  0  0  0  0 
 96 97  1  0  0  0  0 
M  END
> <Rank>
16

> <Priority_score>
0.1

> <Reaction_type>
decarboxylation

> <Parent_ID>
79

> <Parent_InChI>
InChI=1S/C42H38O20/c43-11-23-31(47)35(51)37(53)41(61-23)59-21-5-1-3-15-25(17-7-13(39(55)56)9-19(45)27(17)33(49)29(15)21)26-16-4-2-6-22(60-42-38(54)36(52)32(48)24(12-44)62-42)30(16)34(50)28-18(26)8-14(40(57)58)10-20(28)46/h1-10,23-26,31-32,35-38,41-48,51-54H,11-12H2,(H,55,56)(H,57,58)

> <Parent_SMILES>
O=C(O)c1cc(O)c2c(c1)C(C1c3cc(C(=O)O)cc(O)c3C(=O)c3c(OC4OC(CO)C(O)C(O)C4O)cccc31)c1cccc(OC3OC(CO)C(O)C(O)C3O)c1C2=O

$$$$
Molecule 79_metabolite 17
  CDK     0516241031

107114  0  0  0  0  0  0  0  0999 V2000
   -9.1827   -8.3064    0.0000 C   0  0  0  0  0  0  0  0  0  0  0  0
  -10.1471   -9.4553    0.0000 H   0  0  0  0  0  0  0  0  0  0  0  0
   -7.7055   -8.5669    0.0000 C   0  0  0  0  0  0  0  0  0  0  0  0
   -7.1923   -9.9763    0.0000 H   0  0  0  0  0  0  0  0  0  0  0  0
   -6.7412   -7.4169    0.0000 C   0  0  0  0  0  0  0  0  0  0  0  0
   -7.2540   -6.0064    0.0000 C   0  0  0  0  0  0  0  0  0  0  0  0
   -8.7313   -5.7459    0.0000 C   0  0  0  0  0  0  0  0  0  0  0  0
   -9.6956   -6.8959    0.0000 C   0  0  0  0  0  0  0  0  0  0  0  0
  -11.1728   -6.6355    0.0000 H   0  0  0  0  0  0  0  0  0  0  0  0
   -9.2441   -4.3354    0.0000 C   0  0  0  0  0  0  0  0  0  0  0  0
  -10.5432   -5.0853    0.0000 H   0  0  0  0  0  0  0  0  0  0  0  0
   -8.2798   -3.1854    0.0000 C   0  0  0  0  0  0  0  0  0  0  0  0
   -8.7926   -1.7749    0.0000 C   0  0  0  0  0  0  0  0  0  0  0  0
  -10.2698   -1.5145    0.0000 H   0  0  0  0  0  0  0  0  0  0  0  0
   -7.8283   -0.6249    0.0000 C   0  0  0  0  0  0  0  0  0  0  0  0
   -6.3511   -0.8854    0.0000 C   0  0  0  0  0  0  0  0  0  0  0  0
   -5.3867    0.2635    0.0000 H   0  0  0  0  0  0  0  0  0  0  0  0
   -5.8382   -2.2959    0.0000 C   0  0  0  0  0  0  0  0  0  0  0  0
   -6.8026   -3.4459    0.0000 C   0  0  0  0  0  0  0  0  0  0  0  0
   -6.2897   -4.8564    0.0000 C   0  0  0  0  0  0  0  0  0  0  0  0
   -4.8125   -5.1168    0.0000 O   0  0  0  0  0  0  0  0  0  0  0  0
   -4.3610   -2.5563    0.0000 O   0  0  0  0  0  0  0  0  0  0  0  0
   -3.8480   -3.9659    0.0000 H   0  0  0  0  0  0  0  0  0  0  0  0
   -8.8343    2.1376    0.0000 C   0  0  0  0  0  0  0  0  0  0  0  0
  -10.3115    2.3979    0.0000 O   0  0  0  0  0  0  0  0  0  0  0  0
   -6.9448    4.3901    0.0000 N   0  0  0  0  0  0  0  0  0  0  0  0
   -5.4676    4.1299    0.0000 H   0  0  0  0  0  0  0  0  0  0  0  0
   -7.4581    5.7996    0.0000 C   0  0  0  0  0  0  0  0  0  0  0  0
   -8.7570    5.0493    0.0000 H   0  0  0  0  0  0  0  0  0  0  0  0
   -8.4225    6.9485    0.0000 H   0  0  0  0  0  0  0  0  0  0  0  0
   -6.4941    6.9488    0.0000 C   0  0  0  0  0  0  0  0  0  0  0  0
   -5.0168    6.6885    0.0000 O   0  0  0  0  0  0  0  0  0  0  0  0
   -7.0074    8.3582    0.0000 O   0  0  0  0  0  0  0  0  0  0  0  0
   -6.0434    9.5075    0.0000 H   0  0  0  0  0  0  0  0  0  0  0  0
   -9.9943   -3.0365    0.0000 C   0  0  0  0  0  0  0  0  0  0  0  0
  -11.1430   -4.0010    0.0000 H   0  0  0  0  0  0  0  0  0  0  0  0
   -8.5839   -2.5233    0.0000 C   0  0  0  0  0  0  0  0  0  0  0  0
   -7.4337   -3.4874    0.0000 C   0  0  0  0  0  0  0  0  0  0  0  0
   -7.6938   -4.9647    0.0000 H   0  0  0  0  0  0  0  0  0  0  0  0
   -6.0233   -2.9742    0.0000 C   0  0  0  0  0  0  0  0  0  0  0  0
   -4.8742   -3.9384    0.0000 H   0  0  0  0  0  0  0  0  0  0  0  0
   -5.7631   -1.4970    0.0000 C   0  0  0  0  0  0  0  0  0  0  0  0
   -4.3538   -0.9834    0.0000 H   0  0  0  0  0  0  0  0  0  0  0  0
   -6.9134   -0.5329    0.0000 C   0  0  0  0  0  0  0  0  0  0  0  0
   -8.3237   -1.0460    0.0000 C   0  0  0  0  0  0  0  0  0  0  0  0
   -9.4739   -0.0819    0.0000 C   0  0  0  0  0  0  0  0  0  0  0  0
   -9.2138    1.3953    0.0000 O   0  0  0  0  0  0  0  0  0  0  0  0
  -10.8843   -0.5951    0.0000 C   0  0  0  0  0  0  0  0  0  0  0  0
  -12.0345    0.3690    0.0000 C   0  0  0  0  0  0  0  0  0  0  0  0
  -13.4449   -0.1442    0.0000 C   0  0  0  0  0  0  0  0  0  0  0  0
  -14.5940    0.8200    0.0000 H   0  0  0  0  0  0  0  0  0  0  0  0
  -13.7051   -1.6214    0.0000 C   0  0  0  0  0  0  0  0  0  0  0  0
  -12.5549   -2.5855    0.0000 C   0  0  0  0  0  0  0  0  0  0  0  0
  -12.8150   -4.0628    0.0000 H   0  0  0  0  0  0  0  0  0  0  0  0
  -11.1445   -2.0724    0.0000 C   0  0  0  0  0  0  0  0  0  0  0  0
  -15.1144   -2.1350    0.0000 C   0  0  0  0  0  0  0  0  0  0  0  0
  -15.3743   -3.6123    0.0000 O   0  0  0  0  0  0  0  0  0  0  0  0
  -16.2639   -1.1712    0.0000 O   0  0  0  0  0  0  0  0  0  0  0  0
  -17.6732   -1.6848    0.0000 H   0  0  0  0  0  0  0  0  0  0  0  0
  -11.7744    1.8463    0.0000 O   0  0  0  0  0  0  0  0  0  0  0  0
  -12.9237    2.8102    0.0000 H   0  0  0  0  0  0  0  0  0  0  0  0
   -6.5699    1.4171    0.0000 O   0  0  0  0  0  0  0  0  0  0  0  0
   -3.8075    2.4233    0.0000 C   0  0  0  0  0  0  0  0  0  0  0  0
   -5.2159    2.9392    0.0000 H   0  0  0  0  0  0  0  0  0  0  0  0
   -2.6637    1.4684    0.0000 C   0  0  0  0  0  0  0  0  0  0  0  0
   -1.9094    0.1718    0.0000 H   0  0  0  0  0  0  0  0  0  0  0  0
   -1.2343    1.9946    0.0000 C   0  0  0  0  0  0  0  0  0  0  0  0
    0.2657    2.0044    0.0000 H   0  0  0  0  0  0  0  0  0  0  0  0
   -0.9846    3.4796    0.0000 C   0  0  0  0  0  0  0  0  0  0  0  0
   -0.2402    4.7819    0.0000 H   0  0  0  0  0  0  0  0  0  0  0  0
   -2.1284    4.4345    0.0000 C   0  0  0  0  0  0  0  0  0  0  0  0
   -2.8820    5.7315    0.0000 H   0  0  0  0  0  0  0  0  0  0  0  0
    0.1188    6.3302    0.0000 C   0  0  0  0  0  0  0  0  0  0  0  0
    1.5270    6.8469    0.0000 H   0  0  0  0  0  0  0  0  0  0  0  0
    0.8722    5.0331    0.0000 H   0  0  0  0  0  0  0  0  0  0  0  0
   -0.1455    7.8067    0.0000 O   0  0  0  0  0  0  0  0  0  0  0  0
    1.0010    8.7739    0.0000 H   0  0  0  0  0  0  0  0  0  0  0  0
   -3.5373    3.9172    0.0000 O   0  0  0  0  0  0  0  0  0  0  0  0
    0.4281    2.9753    0.0000 O   0  0  0  0  0  0  0  0  0  0  0  0
    1.5712    3.9465    0.0000 H   0  0  0  0  0  0  0  0  0  0  0  0
   -0.9663    0.5188    0.0000 O   0  0  0  0  0  0  0  0  0  0  0  0
    0.4459    0.0130    0.0000 H   0  0  0  0  0  0  0  0  0  0  0  0
   -3.9605    0.7146    0.0000 O   0  0  0  0  0  0  0  0  0  0  0  0
   -5.2617    1.4608    0.0000 H   0  0  0  0  0  0  0  0  0  0  0  0
   -5.2640   -7.6773    0.0000 O   0  0  0  0  0  0  0  0  0  0  0  0
   -4.7509   -9.0869    0.0000 C   0  0  0  0  0  0  0  0  0  0  0  0
   -6.2276   -9.3507    0.0000 H   0  0  0  0  0  0  0  0  0  0  0  0
   -3.4589   -8.3449    0.0000 C   0  0  0  0  0  0  0  0  0  0  0  0
   -2.4911   -7.1988    0.0000 H   0  0  0  0  0  0  0  0  0  0  0  0
   -2.1424   -9.1110    0.0000 C   0  0  0  0  0  0  0  0  0  0  0  0
   -0.6669   -9.3808    0.0000 H   0  0  0  0  0  0  0  0  0  0  0  0
   -2.1541  -10.6168    0.0000 C   0  0  0  0  0  0  0  0  0  0  0  0
   -1.6468  -12.0285    0.0000 H   0  0  0  0  0  0  0  0  0  0  0  0
   -3.4462  -11.3589    0.0000 C   0  0  0  0  0  0  0  0  0  0  0  0
   -4.4132  -12.5055    0.0000 H   0  0  0  0  0  0  0  0  0  0  0  0
   -1.5618  -13.6156    0.0000 C   0  0  0  0  0  0  0  0  0  0  0  0
   -0.2646  -14.3687    0.0000 H   0  0  0  0  0  0  0  0  0  0  0  0
   -0.5949  -12.4688    0.0000 H   0  0  0  0  0  0  0  0  0  0  0  0
   -2.0782  -15.0239    0.0000 O   0  0  0  0  0  0  0  0  0  0  0  0
   -1.1168  -16.1753    0.0000 H   0  0  0  0  0  0  0  0  0  0  0  0
   -4.7440  -10.6051    0.0000 O   0  0  0  0  0  0  0  0  0  0  0  0
   -0.6754  -10.3651    0.0000 O   0  0  0  0  0  0  0  0  0  0  0  0
    0.2820  -11.5199    0.0000 H   0  0  0  0  0  0  0  0  0  0  0  0
   -1.6225   -7.7040    0.0000 O   0  0  0  0  0  0  0  0  0  0  0  0
   -0.1440   -7.4508    0.0000 H   0  0  0  0  0  0  0  0  0  0  0  0
   -4.4199   -7.1932    0.0000 O   0  0  0  0  0  0  0  0  0  0  0  0
   -3.9031   -5.7850    0.0000 H   0  0  0  0  0  0  0  0  0  0  0  0
  1  2  1  0  0  0  0 
  1  3  2  0  0  0  0 
  3  4  1  0  0  0  0 
  3  5  1  0  0  0  0 
  5  6  2  0  0  0  0 
  6  7  1  0  0  0  0 
  7  8  2  0  0  0  0 
  1  8  1  0  0  0  0 
  8  9  1  0  0  0  0 
  7 10  1  0  0  0  0 
 10 11  1  0  0  0  0 
 10 12  1  0  0  0  0 
 12 13  2  0  0  0  0 
 13 14  1  0  0  0  0 
 13 15  1  0  0  0  0 
 15 16  2  0  0  0  0 
 16 17  1  0  0  0  0 
 16 18  1  0  0  0  0 
 18 19  2  0  0  0  0 
 12 19  1  0  0  0  0 
 19 20  1  0  0  0  0 
  6 20  1  0  0  0  0 
 20 21  2  0  0  0  0 
 18 22  1  0  0  0  0 
 22 23  1  0  0  0  0 
 15 24  1  0  0  0  0 
 24 25  2  0  0  0  0 
 24 26  1  0  0  0  0 
 26 27  1  0  0  0  0 
 26 28  1  0  0  0  0 
 28 29  1  0  0  0  0 
 28 30  1  0  0  0  0 
 28 31  1  0  0  0  0 
 31 32  2  0  0  0  0 
 31 33  1  0  0  0  0 
 33 34  1  0  0  0  0 
 10 35  1  0  0  0  0 
 35 36  1  0  0  0  0 
 35 37  1  0  0  0  0 
 37 38  2  0  0  0  0 
 38 39  1  0  0  0  0 
 38 40  1  0  0  0  0 
 40 41  1  0  0  0  0 
 40 42  2  0  0  0  0 
 42 43  1  0  0  0  0 
 42 44  1  0  0  0  0 
 44 45  2  0  0  0  0 
 37 45  1  0  0  0  0 
 45 46  1  0  0  0  0 
 46 47  2  0  0  0  0 
 46 48  1  0  0  0  0 
 48 49  2  0  0  0  0 
 49 50  1  0  0  0  0 
 50 51  1  0  0  0  0 
 50 52  2  0  0  0  0 
 52 53  1  0  0  0  0 
 53 54  1  0  0  0  0 
 53 55  2  0  0  0  0 
 35 55  1  0  0  0  0 
 48 55  1  0  0  0  0 
 52 56  1  0  0  0  0 
 56 57  2  0  0  0  0 
 56 58  1  0  0  0  0 
 58 59  1  0  0  0  0 
 49 60  1  0  0  0  0 
 60 61  1  0  0  0  0 
 44 62  1  0  0  0  0 
 62 63  1  0  0  0  0 
 63 64  1  0  0  0  0 
 63 65  1  0  0  0  0 
 65 66  1  0  0  0  0 
 65 67  1  0  0  0  0 
 67 68  1  0  0  0  0 
 67 69  1  0  0  0  0 
 69 70  1  0  0  0  0 
 69 71  1  0  0  0  0 
 71 72  1  0  0  0  0 
 71 73  1  0  0  0  0 
 73 74  1  0  0  0  0 
 73 75  1  0  0  0  0 
 73 76  1  0  0  0  0 
 76 77  1  0  0  0  0 
 71 78  1  0  0  0  0 
 63 78  1  0  0  0  0 
 69 79  1  0  0  0  0 
 79 80  1  0  0  0  0 
 67 81  1  0  0  0  0 
 81 82  1  0  0  0  0 
 65 83  1  0  0  0  0 
 83 84  1  0  0  0  0 
  5 85  1  0  0  0  0 
 85 86  1  0  0  0  0 
 86 87  1  0  0  0  0 
 86 88  1  0  0  0  0 
 88 89  1  0  0  0  0 
 88 90  1  0  0  0  0 
 90 91  1  0  0  0  0 
 90 92  1  0  0  0  0 
 92 93  1  0  0  0  0 
 92 94  1  0  0  0  0 
 94 95  1  0  0  0  0 
 94 96  1  0  0  0  0 
 96 97  1  0  0  0  0 
 96 98  1  0  0  0  0 
 96 99  1  0  0  0  0 
 99100  1  0  0  0  0 
 94101  1  0  0  0  0 
 86101  1  0  0  0  0 
 92102  1  0  0  0  0 
102103  1  0  0  0  0 
 90104  1  0  0  0  0 
104105  1  0  0  0  0 
 88106  1  0  0  0  0 
106107  1  0  0  0  0 
M  END
> <Rank>
17

> <Priority_score>
0.0968

> <Reaction_type>
glycination_(aromatic_carboxyl)

> <Parent_ID>
79

> <Parent_InChI>
InChI=1S/C42H38O20/c43-11-23-31(47)35(51)37(53)41(61-23)59-21-5-1-3-15-25(17-7-13(39(55)56)9-19(45)27(17)33(49)29(15)21)26-16-4-2-6-22(60-42-38(54)36(52)32(48)24(12-44)62-42)30(16)34(50)28-18(26)8-14(40(57)58)10-20(28)46/h1-10,23-26,31-32,35-38,41-48,51-54H,11-12H2,(H,55,56)(H,57,58)

> <Parent_SMILES>
O=C(O)c1cc(O)c2c(c1)C(C1c3cc(C(=O)O)cc(O)c3C(=O)c3c(OC4OC(CO)C(O)C(O)C4O)cccc31)c1cccc(OC3OC(CO)C(O)C(O)C3O)c1C2=O

$$$$
Molecule 79_metabolite 18
  CDK     0516241031

 23 23  0  0  0  0  0  0  0  0999 V2000
   -1.5807    2.5830    0.0000 C   0  0  0  0  0  0  0  0  0  0  0  0
   -0.1068    2.8620    0.0000 H   0  0  0  0  0  0  0  0  0  0  0  0
   -1.5995    4.0829    0.0000 H   0  0  0  0  0  0  0  0  0  0  0  0
   -1.0500    1.1800    0.0000 C   0  0  0  0  0  0  0  0  0  0  0  0
   -2.5228    0.8955    0.0000 H   0  0  0  0  0  0  0  0  0  0  0  0
   -1.0200   -0.3200    0.0000 C   0  0  0  0  0  0  0  0  0  0  0  0
   -2.5022   -0.0893    0.0000 H   0  0  0  0  0  0  0  0  0  0  0  0
    0.2700   -1.0300    0.0000 C   0  0  0  0  0  0  0  0  0  0  0  0
   -0.6701   -2.1989    0.0000 H   0  0  0  0  0  0  0  0  0  0  0  0
    1.5400   -0.2600    0.0000 C   0  0  0  0  0  0  0  0  0  0  0  0
    2.0763   -1.6609    0.0000 H   0  0  0  0  0  0  0  0  0  0  0  0
    1.5300    1.2300    0.0000 C   0  0  0  0  0  0  0  0  0  0  0  0
    3.0101    0.9862    0.0000 H   0  0  0  0  0  0  0  0  0  0  0  0
    2.0206    2.6475    0.0000 H   0  0  0  0  0  0  0  0  0  0  0  0
    0.2400    1.9400    0.0000 O   0  0  0  0  0  0  0  0  0  0  0  0
    3.0141    0.0176    0.0000 O   0  0  0  0  0  0  0  0  0  0  0  0
    3.9916   -1.1202    0.0000 H   0  0  0  0  0  0  0  0  0  0  0  0
    1.2582   -2.1585    0.0000 O   0  0  0  0  0  0  0  0  0  0  0  0
    0.7751   -3.5785    0.0000 H   0  0  0  0  0  0  0  0  0  0  0  0
   -1.5043   -1.7397    0.0000 O   0  0  0  0  0  0  0  0  0  0  0  0
   -2.9759   -2.0301    0.0000 H   0  0  0  0  0  0  0  0  0  0  0  0
   -3.0610    2.8249    0.0000 O   0  0  0  0  0  0  0  0  0  0  0  0
   -3.5917    4.2279    0.0000 H   0  0  0  0  0  0  0  0  0  0  0  0
  1  2  1  0  0  0  0 
  1  3  1  0  0  0  0 
  1  4  1  0  0  0  0 
  4  5  1  0  0  0  0 
  4  6  1  0  0  0  0 
  6  7  1  0  0  0  0 
  6  8  1  0  0  0  0 
  8  9  1  0  0  0  0 
  8 10  1  0  0  0  0 
 10 11  1  0  0  0  0 
 10 12  1  0  0  0  0 
 12 13  1  0  0  0  0 
 12 14  1  0  0  0  0 
 12 15  1  0  0  0  0 
  4 15  1  0  0  0  0 
 10 16  1  0  0  0  0 
 16 17  1  0  0  0  0 
  8 18  1  0  0  0  0 
 18 19  1  0  0  0  0 
  6 20  1  0  0  0  0 
 20 21  1  0  0  0  0 
  1 22  1  0  0  0  0 
 22 23  1  0  0  0  0 
M  END
> <Rank>
18

> <Priority_score>
0.08960000000000001

> <Reaction_type>
oxidation of 4-substituted anisole to quinone

> <Parent_ID>
79

> <Parent_InChI>
InChI=1S/C42H38O20/c43-11-23-31(47)35(51)37(53)41(61-23)59-21-5-1-3-15-25(17-7-13(39(55)56)9-19(45)27(17)33(49)29(15)21)26-16-4-2-6-22(60-42-38(54)36(52)32(48)24(12-44)62-42)30(16)34(50)28-18(26)8-14(40(57)58)10-20(28)46/h1-10,23-26,31-32,35-38,41-48,51-54H,11-12H2,(H,55,56)(H,57,58)

> <Parent_SMILES>
O=C(O)c1cc(O)c2c(c1)C(C1c3cc(C(=O)O)cc(O)c3C(=O)c3c(OC4OC(CO)C(O)C(O)C4O)cccc31)c1cccc(OC3OC(CO)C(O)C(O)C3O)c1C2=O

$$$$
Molecule 79_metabolite 19
  CDK     0516241031

 78 84  0  0  0  0  0  0  0  0999 V2000
    0.0028   -5.9985    0.0000 C   0  0  0  0  0  0  0  0  0  0  0  0
    0.0026   -7.4985    0.0000 H   0  0  0  0  0  0  0  0  0  0  0  0
    1.3019   -5.2485    0.0000 C   0  0  0  0  0  0  0  0  0  0  0  0
    2.6010   -5.9982    0.0000 H   0  0  0  0  0  0  0  0  0  0  0  0
    1.3014   -3.7476    0.0000 C   0  0  0  0  0  0  0  0  0  0  0  0
    0.0019   -2.9968    0.0000 C   0  0  0  0  0  0  0  0  0  0  0  0
   -1.2972   -3.7468    0.0000 C   0  0  0  0  0  0  0  0  0  0  0  0
   -1.2967   -5.2476    0.0000 C   0  0  0  0  0  0  0  0  0  0  0  0
   -2.5957   -5.9976    0.0000 H   0  0  0  0  0  0  0  0  0  0  0  0
   -2.5967   -2.9960    0.0000 C   0  0  0  0  0  0  0  0  0  0  0  0
   -3.1099   -4.4054    0.0000 H   0  0  0  0  0  0  0  0  0  0  0  0
   -2.5972   -1.4951    0.0000 C   0  0  0  0  0  0  0  0  0  0  0  0
   -3.8967   -0.7443    0.0000 C   0  0  0  0  0  0  0  0  0  0  0  0
   -5.1957   -1.4943    0.0000 H   0  0  0  0  0  0  0  0  0  0  0  0
   -3.8972    0.7565    0.0000 C   0  0  0  0  0  0  0  0  0  0  0  0
   -2.5981    1.5065    0.0000 C   0  0  0  0  0  0  0  0  0  0  0  0
   -2.5979    3.0065    0.0000 H   0  0  0  0  0  0  0  0  0  0  0  0
   -1.2986    0.7557    0.0000 C   0  0  0  0  0  0  0  0  0  0  0  0
   -1.2981   -0.7451    0.0000 C   0  0  0  0  0  0  0  0  0  0  0  0
    0.0014   -1.4960    0.0000 C   0  0  0  0  0  0  0  0  0  0  0  0
    1.3004   -0.7460    0.0000 O   0  0  0  0  0  0  0  0  0  0  0  0
    0.0004    1.5057    0.0000 O   0  0  0  0  0  0  0  0  0  0  0  0
    0.0004    3.0057    0.0000 H   0  0  0  0  0  0  0  0  0  0  0  0
   -5.1963    1.5063    0.0000 C   0  0  0  0  0  0  0  0  0  0  0  0
   -6.4952    0.7561    0.0000 O   0  0  0  0  0  0  0  0  0  0  0  0
   -5.1966    3.0063    0.0000 O   0  0  0  0  0  0  0  0  0  0  0  0
   -6.4957    3.7561    0.0000 H   0  0  0  0  0  0  0  0  0  0  0  0
   -5.0194   -2.5690    0.0000 C   0  0  0  0  0  0  0  0  0  0  0  0
   -4.5062   -1.1596    0.0000 H   0  0  0  0  0  0  0  0  0  0  0  0
   -5.0189   -4.0699    0.0000 C   0  0  0  0  0  0  0  0  0  0  0  0
   -3.7194   -4.8207    0.0000 C   0  0  0  0  0  0  0  0  0  0  0  0
   -2.4203   -4.0707    0.0000 H   0  0  0  0  0  0  0  0  0  0  0  0
   -3.7189   -6.3215    0.0000 C   0  0  0  0  0  0  0  0  0  0  0  0
   -5.0179   -7.0715    0.0000 C   0  0  0  0  0  0  0  0  0  0  0  0
   -5.0182   -8.5715    0.0000 H   0  0  0  0  0  0  0  0  0  0  0  0
   -6.3174   -6.3207    0.0000 C   0  0  0  0  0  0  0  0  0  0  0  0
   -6.3179   -4.8199    0.0000 C   0  0  0  0  0  0  0  0  0  0  0  0
   -7.6174   -4.0690    0.0000 C   0  0  0  0  0  0  0  0  0  0  0  0
   -8.9165   -4.8190    0.0000 O   0  0  0  0  0  0  0  0  0  0  0  0
   -7.6179   -2.5682    0.0000 C   0  0  0  0  0  0  0  0  0  0  0  0
   -6.3189   -1.8182    0.0000 C   0  0  0  0  0  0  0  0  0  0  0  0
   -6.3194   -0.3174    0.0000 C   0  0  0  0  0  0  0  0  0  0  0  0
   -5.0203    0.4326    0.0000 O   0  0  0  0  0  0  0  0  0  0  0  0
   -7.6189    0.4335    0.0000 C   0  0  0  0  0  0  0  0  0  0  0  0
   -7.6186    1.9335    0.0000 H   0  0  0  0  0  0  0  0  0  0  0  0
   -8.9179   -0.3165    0.0000 C   0  0  0  0  0  0  0  0  0  0  0  0
  -10.2171    0.4332    0.0000 H   0  0  0  0  0  0  0  0  0  0  0  0
   -8.9174   -1.8174    0.0000 C   0  0  0  0  0  0  0  0  0  0  0  0
  -10.2165   -2.5674    0.0000 O   0  0  0  0  0  0  0  0  0  0  0  0
   -7.6165   -7.0707    0.0000 O   0  0  0  0  0  0  0  0  0  0  0  0
   -7.6165   -8.5707    0.0000 H   0  0  0  0  0  0  0  0  0  0  0  0
   -2.9687   -7.6205    0.0000 C   0  0  0  0  0  0  0  0  0  0  0  0
   -1.4687   -7.6202    0.0000 O   0  0  0  0  0  0  0  0  0  0  0  0
   -3.7185   -8.9196    0.0000 O   0  0  0  0  0  0  0  0  0  0  0  0
   -2.9683  -10.2185    0.0000 H   0  0  0  0  0  0  0  0  0  0  0  0
    2.6004   -2.9976    0.0000 O   0  0  0  0  0  0  0  0  0  0  0  0
    3.8995   -3.7476    0.0000 C   0  0  0  0  0  0  0  0  0  0  0  0
    2.9379   -4.8989    0.0000 H   0  0  0  0  0  0  0  0  0  0  0  0
    4.4123   -2.3487    0.0000 C   0  0  0  0  0  0  0  0  0  0  0  0
    4.4169   -0.8487    0.0000 H   0  0  0  0  0  0  0  0  0  0  0  0
    5.9132   -2.0894    0.0000 C   0  0  0  0  0  0  0  0  0  0  0  0
    7.2170   -1.3476    0.0000 H   0  0  0  0  0  0  0  0  0  0  0  0
    6.8722   -3.2504    0.0000 C   0  0  0  0  0  0  0  0  0  0  0  0
    8.1682   -4.0057    0.0000 H   0  0  0  0  0  0  0  0  0  0  0  0
    6.3594   -4.6494    0.0000 C   0  0  0  0  0  0  0  0  0  0  0  0
    6.3556   -6.1494    0.0000 H   0  0  0  0  0  0  0  0  0  0  0  0
    8.7810   -5.0824    0.0000 C   0  0  0  0  0  0  0  0  0  0  0  0
   10.0782   -5.8355    0.0000 H   0  0  0  0  0  0  0  0  0  0  0  0
    8.2646   -6.4907    0.0000 H   0  0  0  0  0  0  0  0  0  0  0  0
    9.7479   -3.9356    0.0000 O   0  0  0  0  0  0  0  0  0  0  0  0
   11.2245   -4.1997    0.0000 H   0  0  0  0  0  0  0  0  0  0  0  0
    4.8807   -4.9061    0.0000 O   0  0  0  0  0  0  0  0  0  0  0  0
    7.8432   -2.1071    0.0000 O   0  0  0  0  0  0  0  0  0  0  0  0
    9.3188   -2.3763    0.0000 H   0  0  0  0  0  0  0  0  0  0  0  0
    5.4071   -0.6774    0.0000 O   0  0  0  0  0  0  0  0  0  0  0  0
    6.3769    0.4669    0.0000 H   0  0  0  0  0  0  0  0  0  0  0  0
    2.9358   -2.0842    0.0000 O   0  0  0  0  0  0  0  0  0  0  0  0
    2.4266   -0.6733    0.0000 H   0  0  0  0  0  0  0  0  0  0  0  0
  1  2  1  0  0  0  0 
  1  3  2  0  0  0  0 
  3  4  1  0  0  0  0 
  3  5  1  0  0  0  0 
  5  6  2  0  0  0  0 
  6  7  1  0  0  0  0 
  7  8  2  0  0  0  0 
  1  8  1  0  0  0  0 
  8  9  1  0  0  0  0 
  7 10  1  0  0  0  0 
 10 11  1  0  0  0  0 
 10 12  1  0  0  0  0 
 12 13  2  0  0  0  0 
 13 14  1  0  0  0  0 
 13 15  1  0  0  0  0 
 15 16  2  0  0  0  0 
 16 17  1  0  0  0  0 
 16 18  1  0  0  0  0 
 18 19  2  0  0  0  0 
 12 19  1  0  0  0  0 
 19 20  1  0  0  0  0 
  6 20  1  0  0  0  0 
 20 21  2  0  0  0  0 
 18 22  1  0  0  0  0 
 22 23  1  0  0  0  0 
 15 24  1  0  0  0  0 
 24 25  2  0  0  0  0 
 24 26  1  0  0  0  0 
 26 27  1  0  0  0  0 
 10 28  1  0  0  0  0 
 28 29  1  0  0  0  0 
 28 30  1  0  0  0  0 
 30 31  2  0  0  0  0 
 31 32  1  0  0  0  0 
 31 33  1  0  0  0  0 
 33 34  2  0  0  0  0 
 34 35  1  0  0  0  0 
 34 36  1  0  0  0  0 
 36 37  2  0  0  0  0 
 30 37  1  0  0  0  0 
 37 38  1  0  0  0  0 
 38 39  2  0  0  0  0 
 38 40  1  0  0  0  0 
 40 41  2  0  0  0  0 
 28 41  1  0  0  0  0 
 41 42  1  0  0  0  0 
 42 43  2  0  0  0  0 
 42 44  1  0  0  0  0 
 44 45  1  0  0  0  0 
 44 46  2  0  0  0  0 
 46 47  1  0  0  0  0 
 46 48  1  0  0  0  0 
 40 48  1  0  0  0  0 
 48 49  2  0  0  0  0 
 36 50  1  0  0  0  0 
 50 51  1  0  0  0  0 
 33 52  1  0  0  0  0 
 52 53  2  0  0  0  0 
 52 54  1  0  0  0  0 
 54 55  1  0  0  0  0 
  5 56  1  0  0  0  0 
 56 57  1  0  0  0  0 
 57 58  1  0  0  0  0 
 57 59  1  0  0  0  0 
 59 60  1  0  0  0  0 
 59 61  1  0  0  0  0 
 61 62  1  0  0  0  0 
 61 63  1  0  0  0  0 
 63 64  1  0  0  0  0 
 63 65  1  0  0  0  0 
 65 66  1  0  0  0  0 
 65 67  1  0  0  0  0 
 67 68  1  0  0  0  0 
 67 69  1  0  0  0  0 
 67 70  1  0  0  0  0 
 70 71  1  0  0  0  0 
 65 72  1  0  0  0  0 
 57 72  1  0  0  0  0 
 63 73  1  0  0  0  0 
 73 74  1  0  0  0  0 
 61 75  1  0  0  0  0 
 75 76  1  0  0  0  0 
 59 77  1  0  0  0  0 
 77 78  1  0  0  0  0 
M  END
> <Rank>
18

> <Priority_score>
0.08960000000000001

> <Reaction_type>
oxidation of 4-substituted anisole to quinone

> <Parent_ID>
79

> <Parent_InChI>
InChI=1S/C42H38O20/c43-11-23-31(47)35(51)37(53)41(61-23)59-21-5-1-3-15-25(17-7-13(39(55)56)9-19(45)27(17)33(49)29(15)21)26-16-4-2-6-22(60-42-38(54)36(52)32(48)24(12-44)62-42)30(16)34(50)28-18(26)8-14(40(57)58)10-20(28)46/h1-10,23-26,31-32,35-38,41-48,51-54H,11-12H2,(H,55,56)(H,57,58)

> <Parent_SMILES>
O=C(O)c1cc(O)c2c(c1)C(C1c3cc(C(=O)O)cc(O)c3C(=O)c3c(OC4OC(CO)C(O)C(O)C4O)cccc31)c1cccc(OC3OC(CO)C(O)C(O)C3O)c1C2=O

$$$$
Molecule 79_metabolite 20
  CDK     0516241031

 98105  0  0  0  0  0  0  0  0999 V2000
  -13.0142   -5.0975    0.0000 C   0  0  0  0  0  0  0  0  0  0  0  0
  -13.0140   -6.5975    0.0000 H   0  0  0  0  0  0  0  0  0  0  0  0
  -14.3133   -4.3475    0.0000 C   0  0  0  0  0  0  0  0  0  0  0  0
  -15.6124   -5.0973    0.0000 H   0  0  0  0  0  0  0  0  0  0  0  0
  -14.3128   -2.8467    0.0000 C   0  0  0  0  0  0  0  0  0  0  0  0
  -13.0133   -2.0959    0.0000 C   0  0  0  0  0  0  0  0  0  0  0  0
  -11.7142   -2.8459    0.0000 C   0  0  0  0  0  0  0  0  0  0  0  0
  -11.7147   -4.3467    0.0000 C   0  0  0  0  0  0  0  0  0  0  0  0
  -10.4157   -5.0967    0.0000 H   0  0  0  0  0  0  0  0  0  0  0  0
  -10.4147   -2.0950    0.0000 C   0  0  0  0  0  0  0  0  0  0  0  0
   -9.9015   -3.5045    0.0000 H   0  0  0  0  0  0  0  0  0  0  0  0
  -10.4142   -0.5942    0.0000 C   0  0  0  0  0  0  0  0  0  0  0  0
   -9.1147    0.1566    0.0000 C   0  0  0  0  0  0  0  0  0  0  0  0
   -7.8157   -0.5934    0.0000 H   0  0  0  0  0  0  0  0  0  0  0  0
   -9.1142    1.6575    0.0000 C   0  0  0  0  0  0  0  0  0  0  0  0
  -10.4133    2.4075    0.0000 C   0  0  0  0  0  0  0  0  0  0  0  0
  -10.4135    3.9075    0.0000 H   0  0  0  0  0  0  0  0  0  0  0  0
  -11.7128    1.6566    0.0000 C   0  0  0  0  0  0  0  0  0  0  0  0
  -11.7133    0.1558    0.0000 C   0  0  0  0  0  0  0  0  0  0  0  0
  -13.0128   -0.5950    0.0000 C   0  0  0  0  0  0  0  0  0  0  0  0
  -14.3118    0.1550    0.0000 O   0  0  0  0  0  0  0  0  0  0  0  0
  -13.0118    2.4066    0.0000 O   0  0  0  0  0  0  0  0  0  0  0  0
  -13.0118    3.9066    0.0000 H   0  0  0  0  0  0  0  0  0  0  0  0
   -7.8151    2.4073    0.0000 C   0  0  0  0  0  0  0  0  0  0  0  0
   -6.5161    1.6571    0.0000 O   0  0  0  0  0  0  0  0  0  0  0  0
   -7.8148    3.9073    0.0000 O   0  0  0  0  0  0  0  0  0  0  0  0
   -6.5157    4.6571    0.0000 H   0  0  0  0  0  0  0  0  0  0  0  0
   -7.9920   -1.6681    0.0000 C   0  0  0  0  0  0  0  0  0  0  0  0
   -8.5052   -0.2586    0.0000 H   0  0  0  0  0  0  0  0  0  0  0  0
   -7.9925   -3.1689    0.0000 C   0  0  0  0  0  0  0  0  0  0  0  0
   -9.2920   -3.9198    0.0000 C   0  0  0  0  0  0  0  0  0  0  0  0
  -10.5911   -3.1698    0.0000 H   0  0  0  0  0  0  0  0  0  0  0  0
   -9.2925   -5.4206    0.0000 C   0  0  0  0  0  0  0  0  0  0  0  0
  -10.5917   -6.1704    0.0000 H   0  0  0  0  0  0  0  0  0  0  0  0
   -7.9935   -6.1706    0.0000 C   0  0  0  0  0  0  0  0  0  0  0  0
   -7.9932   -7.6706    0.0000 H   0  0  0  0  0  0  0  0  0  0  0  0
   -6.6939   -5.4198    0.0000 C   0  0  0  0  0  0  0  0  0  0  0  0
   -6.6935   -3.9189    0.0000 C   0  0  0  0  0  0  0  0  0  0  0  0
   -5.3939   -3.1681    0.0000 C   0  0  0  0  0  0  0  0  0  0  0  0
   -4.0949   -3.9181    0.0000 O   0  0  0  0  0  0  0  0  0  0  0  0
   -5.3935   -1.6673    0.0000 C   0  0  0  0  0  0  0  0  0  0  0  0
   -4.0939   -0.9164    0.0000 C   0  0  0  0  0  0  0  0  0  0  0  0
   -4.0935    0.5844    0.0000 C   0  0  0  0  0  0  0  0  0  0  0  0
   -2.7943    1.3342    0.0000 H   0  0  0  0  0  0  0  0  0  0  0  0
   -5.3925    1.3344    0.0000 C   0  0  0  0  0  0  0  0  0  0  0  0
   -6.6920    0.5836    0.0000 C   0  0  0  0  0  0  0  0  0  0  0  0
   -7.9911    1.3336    0.0000 H   0  0  0  0  0  0  0  0  0  0  0  0
   -6.6925   -0.9173    0.0000 C   0  0  0  0  0  0  0  0  0  0  0  0
   -5.3927    2.8344    0.0000 C   0  0  0  0  0  0  0  0  0  0  0  0
   -6.6919    3.5842    0.0000 O   0  0  0  0  0  0  0  0  0  0  0  0
   -4.0938    3.5846    0.0000 O   0  0  0  0  0  0  0  0  0  0  0  0
   -4.0941    5.0846    0.0000 H   0  0  0  0  0  0  0  0  0  0  0  0
   -2.7949   -1.6664    0.0000 O   0  0  0  0  0  0  0  0  0  0  0  0
   -1.4959   -0.9164    0.0000 H   0  0  0  0  0  0  0  0  0  0  0  0
   -5.3949   -6.1698    0.0000 O   0  0  0  0  0  0  0  0  0  0  0  0
   -5.3949   -7.6698    0.0000 C   0  0  0  0  0  0  0  0  0  0  0  0
   -4.1071   -8.4192    0.0000 C   0  0  0  0  0  0  0  0  0  0  0  0
   -4.1142   -9.9424    0.0000 C   0  0  0  0  0  0  0  0  0  0  0  0
   -3.6117  -11.3557    0.0000 H   0  0  0  0  0  0  0  0  0  0  0  0
   -5.4249  -10.6837    0.0000 C   0  0  0  0  0  0  0  0  0  0  0  0
   -6.3951  -11.8277    0.0000 H   0  0  0  0  0  0  0  0  0  0  0  0
   -6.7127   -9.9342    0.0000 C   0  0  0  0  0  0  0  0  0  0  0  0
   -8.1890   -9.6683    0.0000 H   0  0  0  0  0  0  0  0  0  0  0  0
   -7.5623  -12.2429    0.0000 C   0  0  0  0  0  0  0  0  0  0  0  0
   -8.5306  -13.3885    0.0000 H   0  0  0  0  0  0  0  0  0  0  0  0
   -8.8587  -11.4882    0.0000 H   0  0  0  0  0  0  0  0  0  0  0  0
   -6.6022  -13.3954    0.0000 O   0  0  0  0  0  0  0  0  0  0  0  0
   -7.1203  -14.8031    0.0000 H   0  0  0  0  0  0  0  0  0  0  0  0
   -6.7071   -8.4334    0.0000 O   0  0  0  0  0  0  0  0  0  0  0  0
   -4.4689  -11.8395    0.0000 O   0  0  0  0  0  0  0  0  0  0  0  0
   -4.9919  -13.2454    0.0000 H   0  0  0  0  0  0  0  0  0  0  0  0
   -2.6354   -9.6908    0.0000 O   0  0  0  0  0  0  0  0  0  0  0  0
   -1.6782  -10.8457    0.0000 H   0  0  0  0  0  0  0  0  0  0  0  0
   -2.8050   -7.6745    0.0000 O   0  0  0  0  0  0  0  0  0  0  0  0
   -1.5091   -8.4297    0.0000 H   0  0  0  0  0  0  0  0  0  0  0  0
  -15.6118   -2.0967    0.0000 O   0  0  0  0  0  0  0  0  0  0  0  0
  -16.9108   -2.8467    0.0000 C   0  0  0  0  0  0  0  0  0  0  0  0
  -15.9493   -3.9980    0.0000 H   0  0  0  0  0  0  0  0  0  0  0  0
  -17.4237   -1.4477    0.0000 C   0  0  0  0  0  0  0  0  0  0  0  0
  -17.4283    0.0523    0.0000 H   0  0  0  0  0  0  0  0  0  0  0  0
  -18.9246   -1.1885    0.0000 C   0  0  0  0  0  0  0  0  0  0  0  0
  -20.2284   -0.4467    0.0000 H   0  0  0  0  0  0  0  0  0  0  0  0
  -19.8836   -2.3495    0.0000 C   0  0  0  0  0  0  0  0  0  0  0  0
  -21.1795   -3.1048    0.0000 H   0  0  0  0  0  0  0  0  0  0  0  0
  -19.3708   -3.7484    0.0000 C   0  0  0  0  0  0  0  0  0  0  0  0
  -19.3670   -5.2484    0.0000 H   0  0  0  0  0  0  0  0  0  0  0  0
  -21.7924   -4.1815    0.0000 C   0  0  0  0  0  0  0  0  0  0  0  0
  -23.0896   -4.9346    0.0000 H   0  0  0  0  0  0  0  0  0  0  0  0
  -21.2759   -5.5898    0.0000 H   0  0  0  0  0  0  0  0  0  0  0  0
  -22.7593   -3.0347    0.0000 O   0  0  0  0  0  0  0  0  0  0  0  0
  -24.2359   -3.2987    0.0000 H   0  0  0  0  0  0  0  0  0  0  0  0
  -17.8921   -4.0052    0.0000 O   0  0  0  0  0  0  0  0  0  0  0  0
  -20.8546   -1.2061    0.0000 O   0  0  0  0  0  0  0  0  0  0  0  0
  -22.3302   -1.4754    0.0000 H   0  0  0  0  0  0  0  0  0  0  0  0
  -18.4185    0.2236    0.0000 O   0  0  0  0  0  0  0  0  0  0  0  0
  -19.3883    1.3679    0.0000 H   0  0  0  0  0  0  0  0  0  0  0  0
  -15.9472   -1.1833    0.0000 O   0  0  0  0  0  0  0  0  0  0  0  0
  -15.4380    0.2277    0.0000 H   0  0  0  0  0  0  0  0  0  0  0  0
  1  2  1  0  0  0  0 
  1  3  2  0  0  0  0 
  3  4  1  0  0  0  0 
  3  5  1  0  0  0  0 
  5  6  2  0  0  0  0 
  6  7  1  0  0  0  0 
  7  8  2  0  0  0  0 
  1  8  1  0  0  0  0 
  8  9  1  0  0  0  0 
  7 10  1  0  0  0  0 
 10 11  1  0  0  0  0 
 10 12  1  0  0  0  0 
 12 13  2  0  0  0  0 
 13 14  1  0  0  0  0 
 13 15  1  0  0  0  0 
 15 16  2  0  0  0  0 
 16 17  1  0  0  0  0 
 16 18  1  0  0  0  0 
 18 19  2  0  0  0  0 
 12 19  1  0  0  0  0 
 19 20  1  0  0  0  0 
  6 20  1  0  0  0  0 
 20 21  2  0  0  0  0 
 18 22  1  0  0  0  0 
 22 23  1  0  0  0  0 
 15 24  1  0  0  0  0 
 24 25  2  0  0  0  0 
 24 26  1  0  0  0  0 
 26 27  1  0  0  0  0 
 10 28  1  0  0  0  0 
 28 29  1  0  0  0  0 
 28 30  1  0  0  0  0 
 30 31  2  0  0  0  0 
 31 32  1  0  0  0  0 
 31 33  1  0  0  0  0 
 33 34  1  0  0  0  0 
 33 35  2  0  0  0  0 
 35 36  1  0  0  0  0 
 35 37  1  0  0  0  0 
 37 38  2  0  0  0  0 
 30 38  1  0  0  0  0 
 38 39  1  0  0  0  0 
 39 40  2  0  0  0  0 
 39 41  1  0  0  0  0 
 41 42  2  0  0  0  0 
 42 43  1  0  0  0  0 
 43 44  1  0  0  0  0 
 43 45  2  0  0  0  0 
 45 46  1  0  0  0  0 
 46 47  1  0  0  0  0 
 46 48  2  0  0  0  0 
 28 48  1  0  0  0  0 
 41 48  1  0  0  0  0 
 45 49  1  0  0  0  0 
 49 50  2  0  0  0  0 
 49 51  1  0  0  0  0 
 51 52  1  0  0  0  0 
 42 53  1  0  0  0  0 
 53 54  1  0  0  0  0 
 37 55  1  0  0  0  0 
 55 56  1  0  0  0  0 
 56 57  2  0  0  0  0 
 57 58  1  0  0  0  0 
 58 59  1  0  0  0  0 
 58 60  1  0  0  0  0 
 60 61  1  0  0  0  0 
 60 62  1  0  0  0  0 
 62 63  1  0  0  0  0 
 62 64  1  0  0  0  0 
 64 65  1  0  0  0  0 
 64 66  1  0  0  0  0 
 64 67  1  0  0  0  0 
 67 68  1  0  0  0  0 
 62 69  1  0  0  0  0 
 56 69  1  0  0  0  0 
 60 70  1  0  0  0  0 
 70 71  1  0  0  0  0 
 58 72  1  0  0  0  0 
 72 73  1  0  0  0  0 
 57 74  1  0  0  0  0 
 74 75  1  0  0  0  0 
  5 76  1  0  0  0  0 
 76 77  1  0  0  0  0 
 77 78  1  0  0  0  0 
 77 79  1  0  0  0  0 
 79 80  1  0  0  0  0 
 79 81  1  0  0  0  0 
 81 82  1  0  0  0  0 
 81 83  1  0  0  0  0 
 83 84  1  0  0  0  0 
 83 85  1  0  0  0  0 
 85 86  1  0  0  0  0 
 85 87  1  0  0  0  0 
 87 88  1  0  0  0  0 
 87 89  1  0  0  0  0 
 87 90  1  0  0  0  0 
 90 91  1  0  0  0  0 
 85 92  1  0  0  0  0 
 77 92  1  0  0  0  0 
 83 93  1  0  0  0  0 
 93 94  1  0  0  0  0 
 81 95  1  0  0  0  0 
 95 96  1  0  0  0  0 
 79 97  1  0  0  0  0 
 97 98  1  0  0  0  0 
M  END
> <Rank>
18

> <Priority_score>
0.08960000000000001

> <Reaction_type>
alkyl dehydrogenation

> <Parent_ID>
79

> <Parent_InChI>
InChI=1S/C42H38O20/c43-11-23-31(47)35(51)37(53)41(61-23)59-21-5-1-3-15-25(17-7-13(39(55)56)9-19(45)27(17)33(49)29(15)21)26-16-4-2-6-22(60-42-38(54)36(52)32(48)24(12-44)62-42)30(16)34(50)28-18(26)8-14(40(57)58)10-20(28)46/h1-10,23-26,31-32,35-38,41-48,51-54H,11-12H2,(H,55,56)(H,57,58)

> <Parent_SMILES>
O=C(O)c1cc(O)c2c(c1)C(C1c3cc(C(=O)O)cc(O)c3C(=O)c3c(OC4OC(CO)C(O)C(O)C4O)cccc31)c1cccc(OC3OC(CO)C(O)C(O)C3O)c1C2=O

$$$$
Molecule 79_metabolite 21
  CDK     0516241031

102109  0  0  0  0  0  0  0  0999 V2000
  -13.1994   -5.0111    0.0000 C   0  0  0  0  0  0  0  0  0  0  0  0
  -13.1992   -6.5111    0.0000 H   0  0  0  0  0  0  0  0  0  0  0  0
  -14.4985   -4.2611    0.0000 C   0  0  0  0  0  0  0  0  0  0  0  0
  -15.7976   -5.0109    0.0000 H   0  0  0  0  0  0  0  0  0  0  0  0
  -14.4980   -2.7602    0.0000 C   0  0  0  0  0  0  0  0  0  0  0  0
  -13.1985   -2.0094    0.0000 C   0  0  0  0  0  0  0  0  0  0  0  0
  -11.8994   -2.7594    0.0000 C   0  0  0  0  0  0  0  0  0  0  0  0
  -11.8999   -4.2602    0.0000 C   0  0  0  0  0  0  0  0  0  0  0  0
  -10.6009   -5.0102    0.0000 H   0  0  0  0  0  0  0  0  0  0  0  0
  -10.5999   -2.0086    0.0000 C   0  0  0  0  0  0  0  0  0  0  0  0
  -10.0867   -3.4181    0.0000 H   0  0  0  0  0  0  0  0  0  0  0  0
  -10.5994   -0.5077    0.0000 C   0  0  0  0  0  0  0  0  0  0  0  0
   -9.2999    0.2431    0.0000 C   0  0  0  0  0  0  0  0  0  0  0  0
   -8.0009   -0.5069    0.0000 H   0  0  0  0  0  0  0  0  0  0  0  0
   -9.2994    1.7439    0.0000 C   0  0  0  0  0  0  0  0  0  0  0  0
  -10.5985    2.4939    0.0000 C   0  0  0  0  0  0  0  0  0  0  0  0
  -10.5987    3.9939    0.0000 H   0  0  0  0  0  0  0  0  0  0  0  0
  -11.8980    1.7431    0.0000 C   0  0  0  0  0  0  0  0  0  0  0  0
  -11.8985    0.2423    0.0000 C   0  0  0  0  0  0  0  0  0  0  0  0
  -13.1980   -0.5086    0.0000 C   0  0  0  0  0  0  0  0  0  0  0  0
  -13.7112    0.9009    0.0000 H   0  0  0  0  0  0  0  0  0  0  0  0
  -14.6752   -0.7689    0.0000 O   0  0  0  0  0  0  0  0  0  0  0  0
  -15.6393    0.3803    0.0000 H   0  0  0  0  0  0  0  0  0  0  0  0
  -13.1970    2.4931    0.0000 O   0  0  0  0  0  0  0  0  0  0  0  0
  -13.1970    3.9931    0.0000 H   0  0  0  0  0  0  0  0  0  0  0  0
   -8.0003    2.4937    0.0000 C   0  0  0  0  0  0  0  0  0  0  0  0
   -6.7013    1.7435    0.0000 O   0  0  0  0  0  0  0  0  0  0  0  0
   -8.0000    3.9937    0.0000 O   0  0  0  0  0  0  0  0  0  0  0  0
   -6.7009    4.7435    0.0000 H   0  0  0  0  0  0  0  0  0  0  0  0
   -8.1772   -1.5817    0.0000 C   0  0  0  0  0  0  0  0  0  0  0  0
   -8.6904   -0.1722    0.0000 H   0  0  0  0  0  0  0  0  0  0  0  0
   -8.1777   -3.0825    0.0000 C   0  0  0  0  0  0  0  0  0  0  0  0
   -9.4772   -3.8333    0.0000 C   0  0  0  0  0  0  0  0  0  0  0  0
  -10.7763   -3.0833    0.0000 H   0  0  0  0  0  0  0  0  0  0  0  0
   -9.4777   -5.3342    0.0000 C   0  0  0  0  0  0  0  0  0  0  0  0
  -10.7769   -6.0840    0.0000 H   0  0  0  0  0  0  0  0  0  0  0  0
   -8.1787   -6.0842    0.0000 C   0  0  0  0  0  0  0  0  0  0  0  0
   -8.1784   -7.5842    0.0000 H   0  0  0  0  0  0  0  0  0  0  0  0
   -6.8792   -5.3333    0.0000 C   0  0  0  0  0  0  0  0  0  0  0  0
   -6.8787   -3.8325    0.0000 C   0  0  0  0  0  0  0  0  0  0  0  0
   -5.5792   -3.0817    0.0000 C   0  0  0  0  0  0  0  0  0  0  0  0
   -4.2801   -3.8317    0.0000 O   0  0  0  0  0  0  0  0  0  0  0  0
   -5.5787   -1.5808    0.0000 C   0  0  0  0  0  0  0  0  0  0  0  0
   -4.2792   -0.8300    0.0000 C   0  0  0  0  0  0  0  0  0  0  0  0
   -4.2787    0.6708    0.0000 C   0  0  0  0  0  0  0  0  0  0  0  0
   -2.9795    1.4206    0.0000 H   0  0  0  0  0  0  0  0  0  0  0  0
   -5.5777    1.4208    0.0000 C   0  0  0  0  0  0  0  0  0  0  0  0
   -6.8772    0.6700    0.0000 C   0  0  0  0  0  0  0  0  0  0  0  0
   -8.1763    1.4200    0.0000 H   0  0  0  0  0  0  0  0  0  0  0  0
   -6.8777   -0.8308    0.0000 C   0  0  0  0  0  0  0  0  0  0  0  0
   -5.5780    2.9208    0.0000 C   0  0  0  0  0  0  0  0  0  0  0  0
   -6.8771    3.6706    0.0000 O   0  0  0  0  0  0  0  0  0  0  0  0
   -4.2790    3.6710    0.0000 O   0  0  0  0  0  0  0  0  0  0  0  0
   -4.2793    5.1710    0.0000 H   0  0  0  0  0  0  0  0  0  0  0  0
   -2.9801   -1.5800    0.0000 O   0  0  0  0  0  0  0  0  0  0  0  0
   -1.6811   -0.8300    0.0000 H   0  0  0  0  0  0  0  0  0  0  0  0
   -5.5801   -6.0833    0.0000 O   0  0  0  0  0  0  0  0  0  0  0  0
   -5.5801   -7.5833    0.0000 C   0  0  0  0  0  0  0  0  0  0  0  0
   -7.0579   -7.3263    0.0000 H   0  0  0  0  0  0  0  0  0  0  0  0
   -4.1122   -7.3280    0.0000 C   0  0  0  0  0  0  0  0  0  0  0  0
   -2.8108   -6.5820    0.0000 H   0  0  0  0  0  0  0  0  0  0  0  0
   -3.1372   -8.4982    0.0000 C   0  0  0  0  0  0  0  0  0  0  0  0
   -1.8429   -9.2564    0.0000 H   0  0  0  0  0  0  0  0  0  0  0  0
   -3.6631   -9.9092    0.0000 C   0  0  0  0  0  0  0  0  0  0  0  0
   -3.6693  -11.4092    0.0000 H   0  0  0  0  0  0  0  0  0  0  0  0
   -5.1311  -10.1646    0.0000 C   0  0  0  0  0  0  0  0  0  0  0  0
   -6.4320  -10.9113    0.0000 H   0  0  0  0  0  0  0  0  0  0  0  0
   -4.2953  -12.4782    0.0000 C   0  0  0  0  0  0  0  0  0  0  0  0
   -4.2989  -13.9782    0.0000 H   0  0  0  0  0  0  0  0  0  0  0  0
   -5.7731  -12.7351    0.0000 H   0  0  0  0  0  0  0  0  0  0  0  0
   -2.8187  -12.7423    0.0000 O   0  0  0  0  0  0  0  0  0  0  0  0
   -2.3091  -14.1530    0.0000 H   0  0  0  0  0  0  0  0  0  0  0  0
   -6.0928   -9.0123    0.0000 O   0  0  0  0  0  0  0  0  0  0  0  0
   -2.1875  -10.1784    0.0000 O   0  0  0  0  0  0  0  0  0  0  0  0
   -1.6828  -11.5910    0.0000 H   0  0  0  0  0  0  0  0  0  0  0  0
   -2.1674   -7.3539    0.0000 O   0  0  0  0  0  0  0  0  0  0  0  0
   -0.6915   -7.6216    0.0000 H   0  0  0  0  0  0  0  0  0  0  0  0
   -4.6214   -5.9170    0.0000 O   0  0  0  0  0  0  0  0  0  0  0  0
   -3.6541   -4.7706    0.0000 H   0  0  0  0  0  0  0  0  0  0  0  0
  -15.7970   -2.0102    0.0000 O   0  0  0  0  0  0  0  0  0  0  0  0
  -17.9274   -3.2402    0.0000 C   0  0  0  0  0  0  0  0  0  0  0  0
  -16.9659   -4.3915    0.0000 H   0  0  0  0  0  0  0  0  0  0  0  0
  -18.4403   -1.8413    0.0000 C   0  0  0  0  0  0  0  0  0  0  0  0
  -18.4449   -0.3413    0.0000 H   0  0  0  0  0  0  0  0  0  0  0  0
  -19.9412   -1.5820    0.0000 C   0  0  0  0  0  0  0  0  0  0  0  0
  -21.2450   -0.8403    0.0000 H   0  0  0  0  0  0  0  0  0  0  0  0
  -20.9002   -2.7430    0.0000 C   0  0  0  0  0  0  0  0  0  0  0  0
  -22.1961   -3.4984    0.0000 H   0  0  0  0  0  0  0  0  0  0  0  0
  -20.3874   -4.1420    0.0000 C   0  0  0  0  0  0  0  0  0  0  0  0
  -20.3836   -5.6420    0.0000 H   0  0  0  0  0  0  0  0  0  0  0  0
  -23.2815   -4.6595    0.0000 C   0  0  0  0  0  0  0  0  0  0  0  0
  -24.7593   -4.4026    0.0000 H   0  0  0  0  0  0  0  0  0  0  0  0
  -23.2851   -3.1595    0.0000 H   0  0  0  0  0  0  0  0  0  0  0  0
  -23.7911   -6.0703    0.0000 O   0  0  0  0  0  0  0  0  0  0  0  0
  -25.2677   -6.3343    0.0000 H   0  0  0  0  0  0  0  0  0  0  0  0
  -18.9087   -4.3987    0.0000 O   0  0  0  0  0  0  0  0  0  0  0  0
  -21.8712   -1.5997    0.0000 O   0  0  0  0  0  0  0  0  0  0  0  0
  -23.3468   -1.8689    0.0000 H   0  0  0  0  0  0  0  0  0  0  0  0
  -19.4351   -0.1700    0.0000 O   0  0  0  0  0  0  0  0  0  0  0  0
  -20.4049    0.9743    0.0000 H   0  0  0  0  0  0  0  0  0  0  0  0
  -16.9638   -1.5768    0.0000 O   0  0  0  0  0  0  0  0  0  0  0  0
  -16.4545   -0.1659    0.0000 H   0  0  0  0  0  0  0  0  0  0  0  0
  1  2  1  0  0  0  0 
  1  3  2  0  0  0  0 
  3  4  1  0  0  0  0 
  3  5  1  0  0  0  0 
  5  6  2  0  0  0  0 
  6  7  1  0  0  0  0 
  7  8  2  0  0  0  0 
  1  8  1  0  0  0  0 
  8  9  1  0  0  0  0 
  7 10  1  0  0  0  0 
 10 11  1  0  0  0  0 
 10 12  1  0  0  0  0 
 12 13  2  0  0  0  0 
 13 14  1  0  0  0  0 
 13 15  1  0  0  0  0 
 15 16  2  0  0  0  0 
 16 17  1  0  0  0  0 
 16 18  1  0  0  0  0 
 18 19  2  0  0  0  0 
 12 19  1  0  0  0  0 
 19 20  1  0  0  0  0 
  6 20  1  0  0  0  0 
 20 21  1  0  0  0  0 
 20 22  1  0  0  0  0 
 22 23  1  0  0  0  0 
 18 24  1  0  0  0  0 
 24 25  1  0  0  0  0 
 15 26  1  0  0  0  0 
 26 27  2  0  0  0  0 
 26 28  1  0  0  0  0 
 28 29  1  0  0  0  0 
 10 30  1  0  0  0  0 
 30 31  1  0  0  0  0 
 30 32  1  0  0  0  0 
 32 33  2  0  0  0  0 
 33 34  1  0  0  0  0 
 33 35  1  0  0  0  0 
 35 36  1  0  0  0  0 
 35 37  2  0  0  0  0 
 37 38  1  0  0  0  0 
 37 39  1  0  0  0  0 
 39 40  2  0  0  0  0 
 32 40  1  0  0  0  0 
 40 41  1  0  0  0  0 
 41 42  2  0  0  0  0 
 41 43  1  0  0  0  0 
 43 44  2  0  0  0  0 
 44 45  1  0  0  0  0 
 45 46  1  0  0  0  0 
 45 47  2  0  0  0  0 
 47 48  1  0  0  0  0 
 48 49  1  0  0  0  0 
 48 50  2  0  0  0  0 
 30 50  1  0  0  0  0 
 43 50  1  0  0  0  0 
 47 51  1  0  0  0  0 
 51 52  2  0  0  0  0 
 51 53  1  0  0  0  0 
 53 54  1  0  0  0  0 
 44 55  1  0  0  0  0 
 55 56  1  0  0  0  0 
 39 57  1  0  0  0  0 
 57 58  1  0  0  0  0 
 58 59  1  0  0  0  0 
 58 60  1  0  0  0  0 
 60 61  1  0  0  0  0 
 60 62  1  0  0  0  0 
 62 63  1  0  0  0  0 
 62 64  1  0  0  0  0 
 64 65  1  0  0  0  0 
 64 66  1  0  0  0  0 
 66 67  1  0  0  0  0 
 66 68  1  0  0  0  0 
 68 69  1  0  0  0  0 
 68 70  1  0  0  0  0 
 68 71  1  0  0  0  0 
 71 72  1  0  0  0  0 
 66 73  1  0  0  0  0 
 58 73  1  0  0  0  0 
 64 74  1  0  0  0  0 
 74 75  1  0  0  0  0 
 62 76  1  0  0  0  0 
 76 77  1  0  0  0  0 
 60 78  1  0  0  0  0 
 78 79  1  0  0  0  0 
  5 80  1  0  0  0  0 
 80 81  1  0  0  0  0 
 81 82  1  0  0  0  0 
 81 83  1  0  0  0  0 
 83 84  1  0  0  0  0 
 83 85  1  0  0  0  0 
 85 86  1  0  0  0  0 
 85 87  1  0  0  0  0 
 87 88  1  0  0  0  0 
 87 89  1  0  0  0  0 
 89 90  1  0  0  0  0 
 89 91  1  0  0  0  0 
 91 92  1  0  0  0  0 
 91 93  1  0  0  0  0 
 91 94  1  0  0  0  0 
 94 95  1  0  0  0  0 
 89 96  1  0  0  0  0 
 81 96  1  0  0  0  0 
 87 97  1  0  0  0  0 
 97 98  1  0  0  0  0 
 85 99  1  0  0  0  0 
 99100  1  0  0  0  0 
 83101  1  0  0  0  0 
101102  1  0  0  0  0 
M  END
> <Rank>
21

> <Priority_score>
0.072

> <Reaction_type>
carbonyl_reduction_(both_sides_next_to_aromatic_carbon)

> <Parent_ID>
79

> <Parent_InChI>
InChI=1S/C42H38O20/c43-11-23-31(47)35(51)37(53)41(61-23)59-21-5-1-3-15-25(17-7-13(39(55)56)9-19(45)27(17)33(49)29(15)21)26-16-4-2-6-22(60-42-38(54)36(52)32(48)24(12-44)62-42)30(16)34(50)28-18(26)8-14(40(57)58)10-20(28)46/h1-10,23-26,31-32,35-38,41-48,51-54H,11-12H2,(H,55,56)(H,57,58)

> <Parent_SMILES>
O=C(O)c1cc(O)c2c(c1)C(C1c3cc(C(=O)O)cc(O)c3C(=O)c3c(OC4OC(CO)C(O)C(O)C4O)cccc31)c1cccc(OC3OC(CO)C(O)C(O)C3O)c1C2=O

$$$$
Molecule 79_metabolite 22
  CDK     0516241031

101108  0  0  0  0  0  0  0  0999 V2000
    7.3862    0.1935    0.0000 C   0  0  0  0  0  0  0  0  0  0  0  0
    8.8634   -0.0670    0.0000 H   0  0  0  0  0  0  0  0  0  0  0  0
    6.4218   -0.9553    0.0000 C   0  0  0  0  0  0  0  0  0  0  0  0
    6.9343   -2.3650    0.0000 H   0  0  0  0  0  0  0  0  0  0  0  0
    4.9439   -0.6939    0.0000 C   0  0  0  0  0  0  0  0  0  0  0  0
    4.4304    0.7164    0.0000 C   0  0  0  0  0  0  0  0  0  0  0  0
    5.3948    1.8652    0.0000 C   0  0  0  0  0  0  0  0  0  0  0  0
    6.8727    1.6038    0.0000 C   0  0  0  0  0  0  0  0  0  0  0  0
    7.8371    2.7527    0.0000 H   0  0  0  0  0  0  0  0  0  0  0  0
    4.8814    3.2755    0.0000 C   0  0  0  0  0  0  0  0  0  0  0  0
    6.3586    3.5358    0.0000 H   0  0  0  0  0  0  0  0  0  0  0  0
    3.4035    3.5369    0.0000 C   0  0  0  0  0  0  0  0  0  0  0  0
    2.8900    4.9472    0.0000 C   0  0  0  0  0  0  0  0  0  0  0  0
    3.8544    6.0960    0.0000 H   0  0  0  0  0  0  0  0  0  0  0  0
    1.4121    5.2086    0.0000 C   0  0  0  0  0  0  0  0  0  0  0  0
    0.4477    4.0597    0.0000 C   0  0  0  0  0  0  0  0  0  0  0  0
   -1.0295    4.3203    0.0000 H   0  0  0  0  0  0  0  0  0  0  0  0
    0.9611    2.6494    0.0000 C   0  0  0  0  0  0  0  0  0  0  0  0
    2.4390    2.3880    0.0000 C   0  0  0  0  0  0  0  0  0  0  0  0
    2.9525    0.9778    0.0000 C   0  0  0  0  0  0  0  0  0  0  0  0
    1.9881   -0.1711    0.0000 O   0  0  0  0  0  0  0  0  0  0  0  0
   -0.0033    1.5006    0.0000 O   0  0  0  0  0  0  0  0  0  0  0  0
   -1.4804    1.7614    0.0000 H   0  0  0  0  0  0  0  0  0  0  0  0
    0.8996    6.6183    0.0000 C   0  0  0  0  0  0  0  0  0  0  0  0
    1.8642    7.7670    0.0000 O   0  0  0  0  0  0  0  0  0  0  0  0
   -0.5775    6.8793    0.0000 O   0  0  0  0  0  0  0  0  0  0  0  0
   -1.0900    8.2891    0.0000 H   0  0  0  0  0  0  0  0  0  0  0  0
    4.8821    5.7355    0.0000 C   0  0  0  0  0  0  0  0  0  0  0  0
    3.4049    5.4752    0.0000 H   0  0  0  0  0  0  0  0  0  0  0  0
    6.3600    5.4741    0.0000 C   0  0  0  0  0  0  0  0  0  0  0  0
    6.8735    4.0638    0.0000 C   0  0  0  0  0  0  0  0  0  0  0  0
    5.9091    2.9150    0.0000 H   0  0  0  0  0  0  0  0  0  0  0  0
    8.3514    3.8024    0.0000 C   0  0  0  0  0  0  0  0  0  0  0  0
    9.3158    4.9513    0.0000 C   0  0  0  0  0  0  0  0  0  0  0  0
   10.7930    4.6907    0.0000 H   0  0  0  0  0  0  0  0  0  0  0  0
    8.8024    6.3615    0.0000 C   0  0  0  0  0  0  0  0  0  0  0  0
    7.3245    6.6229    0.0000 C   0  0  0  0  0  0  0  0  0  0  0  0
    6.8110    8.0332    0.0000 C   0  0  0  0  0  0  0  0  0  0  0  0
    7.7754    9.1821    0.0000 O   0  0  0  0  0  0  0  0  0  0  0  0
    5.3331    8.2946    0.0000 C   0  0  0  0  0  0  0  0  0  0  0  0
    4.8196    9.7049    0.0000 C   0  0  0  0  0  0  0  0  0  0  0  0
    3.3417    9.9663    0.0000 C   0  0  0  0  0  0  0  0  0  0  0  0
    2.8292   11.3760    0.0000 H   0  0  0  0  0  0  0  0  0  0  0  0
    2.3773    8.8174    0.0000 C   0  0  0  0  0  0  0  0  0  0  0  0
    2.8908    7.4072    0.0000 C   0  0  0  0  0  0  0  0  0  0  0  0
    1.9264    6.2583    0.0000 H   0  0  0  0  0  0  0  0  0  0  0  0
    4.3687    7.1458    0.0000 C   0  0  0  0  0  0  0  0  0  0  0  0
    0.9001    9.0780    0.0000 O   0  0  0  0  0  0  0  0  0  0  0  0
    0.3872   10.4875    0.0000 H   0  0  0  0  0  0  0  0  0  0  0  0
    5.7841   10.8537    0.0000 O   0  0  0  0  0  0  0  0  0  0  0  0
    5.2713   12.2634    0.0000 C   0  0  0  0  0  0  0  0  0  0  0  0
    3.9704   11.5167    0.0000 H   0  0  0  0  0  0  0  0  0  0  0  0
    6.7382   12.5252    0.0000 C   0  0  0  0  0  0  0  0  0  0  0  0
    8.2161   12.2690    0.0000 H   0  0  0  0  0  0  0  0  0  0  0  0
    7.2544   13.9582    0.0000 C   0  0  0  0  0  0  0  0  0  0  0  0
    8.2116   15.1131    0.0000 H   0  0  0  0  0  0  0  0  0  0  0  0
    6.2778   15.1044    0.0000 C   0  0  0  0  0  0  0  0  0  0  0  0
    5.7593   16.5120    0.0000 H   0  0  0  0  0  0  0  0  0  0  0  0
    4.8110   14.8426    0.0000 C   0  0  0  0  0  0  0  0  0  0  0  0
    3.3332   15.0997    0.0000 H   0  0  0  0  0  0  0  0  0  0  0  0
    4.8056   17.3026    0.0000 C   0  0  0  0  0  0  0  0  0  0  0  0
    4.2895   18.7110    0.0000 H   0  0  0  0  0  0  0  0  0  0  0  0
    3.3290   17.0389    0.0000 H   0  0  0  0  0  0  0  0  0  0  0  0
    6.1030   18.0555    0.0000 O   0  0  0  0  0  0  0  0  0  0  0  0
    6.0997   19.5555    0.0000 H   0  0  0  0  0  0  0  0  0  0  0  0
    4.3011   13.4311    0.0000 O   0  0  0  0  0  0  0  0  0  0  0  0
    7.5726   15.8618    0.0000 O   0  0  0  0  0  0  0  0  0  0  0  0
    7.5640   17.3618    0.0000 H   0  0  0  0  0  0  0  0  0  0  0  0
    8.5570   13.2143    0.0000 O   0  0  0  0  0  0  0  0  0  0  0  0
    9.8525   13.9704    0.0000 H   0  0  0  0  0  0  0  0  0  0  0  0
    6.7419   11.0252    0.0000 O   0  0  0  0  0  0  0  0  0  0  0  0
    8.0428   10.2784    0.0000 H   0  0  0  0  0  0  0  0  0  0  0  0
    9.7668    7.5104    0.0000 O   0  0  0  0  0  0  0  0  0  0  0  0
   11.2439    7.2496    0.0000 H   0  0  0  0  0  0  0  0  0  0  0  0
    8.8639    2.3927    0.0000 C   0  0  0  0  0  0  0  0  0  0  0  0
    7.8993    1.2440    0.0000 O   0  0  0  0  0  0  0  0  0  0  0  0
   10.3410    2.1317    0.0000 O   0  0  0  0  0  0  0  0  0  0  0  0
   10.8535    0.7219    0.0000 H   0  0  0  0  0  0  0  0  0  0  0  0
    3.9794   -1.8428    0.0000 O   0  0  0  0  0  0  0  0  0  0  0  0
    4.4922   -3.2524    0.0000 C   0  0  0  0  0  0  0  0  0  0  0  0
    5.7931   -2.5057    0.0000 H   0  0  0  0  0  0  0  0  0  0  0  0
    3.0253   -3.5142    0.0000 C   0  0  0  0  0  0  0  0  0  0  0  0
    1.5474   -3.2580    0.0000 H   0  0  0  0  0  0  0  0  0  0  0  0
    2.5091   -4.9472    0.0000 C   0  0  0  0  0  0  0  0  0  0  0  0
    1.5520   -6.1021    0.0000 H   0  0  0  0  0  0  0  0  0  0  0  0
    3.4857   -6.0935    0.0000 C   0  0  0  0  0  0  0  0  0  0  0  0
    4.0042   -7.5010    0.0000 H   0  0  0  0  0  0  0  0  0  0  0  0
    4.9525   -5.8317    0.0000 C   0  0  0  0  0  0  0  0  0  0  0  0
    6.4303   -6.0887    0.0000 H   0  0  0  0  0  0  0  0  0  0  0  0
    4.9579   -8.2917    0.0000 C   0  0  0  0  0  0  0  0  0  0  0  0
    5.4740   -9.7001    0.0000 H   0  0  0  0  0  0  0  0  0  0  0  0
    6.4345   -8.0279    0.0000 H   0  0  0  0  0  0  0  0  0  0  0  0
    3.6605   -9.0445    0.0000 O   0  0  0  0  0  0  0  0  0  0  0  0
    3.6638  -10.5445    0.0000 H   0  0  0  0  0  0  0  0  0  0  0  0
    5.4624   -4.4201    0.0000 O   0  0  0  0  0  0  0  0  0  0  0  0
    2.1910   -6.8509    0.0000 O   0  0  0  0  0  0  0  0  0  0  0  0
    2.1995   -8.3508    0.0000 H   0  0  0  0  0  0  0  0  0  0  0  0
    1.2066   -4.2033    0.0000 O   0  0  0  0  0  0  0  0  0  0  0  0
   -0.0890   -4.9594    0.0000 H   0  0  0  0  0  0  0  0  0  0  0  0
    3.0216   -2.0142    0.0000 O   0  0  0  0  0  0  0  0  0  0  0  0
    1.7207   -1.2675    0.0000 H   0  0  0  0  0  0  0  0  0  0  0  0
  1  2  1  0  0  0  0 
  1  3  2  0  0  0  0 
  3  4  1  0  0  0  0 
  3  5  1  0  0  0  0 
  5  6  2  0  0  0  0 
  6  7  1  0  0  0  0 
  7  8  2  0  0  0  0 
  1  8  1  0  0  0  0 
  8  9  1  0  0  0  0 
  7 10  1  0  0  0  0 
 10 11  1  0  0  0  0 
 10 12  1  0  0  0  0 
 12 13  2  0  0  0  0 
 13 14  1  0  0  0  0 
 13 15  1  0  0  0  0 
 15 16  2  0  0  0  0 
 16 17  1  0  0  0  0 
 16 18  1  0  0  0  0 
 18 19  2  0  0  0  0 
 12 19  1  0  0  0  0 
 19 20  1  0  0  0  0 
  6 20  1  0  0  0  0 
 20 21  2  0  0  0  0 
 18 22  1  0  0  0  0 
 22 23  1  0  0  0  0 
 15 24  1  0  0  0  0 
 24 25  2  0  0  0  0 
 24 26  1  0  0  0  0 
 26 27  1  0  0  0  0 
 10 28  1  0  0  0  0 
 28 29  1  0  0  0  0 
 28 30  1  0  0  0  0 
 30 31  2  0  0  0  0 
 31 32  1  0  0  0  0 
 31 33  1  0  0  0  0 
 33 34  2  0  0  0  0 
 34 35  1  0  0  0  0 
 34 36  1  0  0  0  0 
 36 37  2  0  0  0  0 
 30 37  1  0  0  0  0 
 37 38  1  0  0  0  0 
 38 39  2  0  0  0  0 
 38 40  1  0  0  0  0 
 40 41  2  0  0  0  0 
 41 42  1  0  0  0  0 
 42 43  1  0  0  0  0 
 42 44  2  0  0  0  0 
 44 45  1  0  0  0  0 
 45 46  1  0  0  0  0 
 45 47  2  0  0  0  0 
 28 47  1  0  0  0  0 
 40 47  1  0  0  0  0 
 44 48  1  0  0  0  0 
 48 49  1  0  0  0  0 
 41 50  1  0  0  0  0 
 50 51  1  0  0  0  0 
 51 52  1  0  0  0  0 
 51 53  1  0  0  0  0 
 53 54  1  0  0  0  0 
 53 55  1  0  0  0  0 
 55 56  1  0  0  0  0 
 55 57  1  0  0  0  0 
 57 58  1  0  0  0  0 
 57 59  1  0  0  0  0 
 59 60  1  0  0  0  0 
 59 61  1  0  0  0  0 
 61 62  1  0  0  0  0 
 61 63  1  0  0  0  0 
 61 64  1  0  0  0  0 
 64 65  1  0  0  0  0 
 59 66  1  0  0  0  0 
 51 66  1  0  0  0  0 
 57 67  1  0  0  0  0 
 67 68  1  0  0  0  0 
 55 69  1  0  0  0  0 
 69 70  1  0  0  0  0 
 53 71  1  0  0  0  0 
 71 72  1  0  0  0  0 
 36 73  1  0  0  0  0 
 73 74  1  0  0  0  0 
 33 75  1  0  0  0  0 
 75 76  2  0  0  0  0 
 75 77  1  0  0  0  0 
 77 78  1  0  0  0  0 
  5 79  1  0  0  0  0 
 79 80  1  0  0  0  0 
 80 81  1  0  0  0  0 
 80 82  1  0  0  0  0 
 82 83  1  0  0  0  0 
 82 84  1  0  0  0  0 
 84 85  1  0  0  0  0 
 84 86  1  0  0  0  0 
 86 87  1  0  0  0  0 
 86 88  1  0  0  0  0 
 88 89  1  0  0  0  0 
 88 90  1  0  0  0  0 
 90 91  1  0  0  0  0 
 90 92  1  0  0  0  0 
 90 93  1  0  0  0  0 
 93 94  1  0  0  0  0 
 88 95  1  0  0  0  0 
 80 95  1  0  0  0  0 
 86 96  1  0  0  0  0 
 96 97  1  0  0  0  0 
 84 98  1  0  0  0  0 
 98 99  1  0  0  0  0 
 82100  1  0  0  0  0 
100101  1  0  0  0  0 
M  END
> <Rank>
22

> <Priority_score>
0.056

> <Reaction_type>
aromatic_hydroxylation_(para_to_carbon)

> <Parent_ID>
79

> <Parent_InChI>
InChI=1S/C42H38O20/c43-11-23-31(47)35(51)37(53)41(61-23)59-21-5-1-3-15-25(17-7-13(39(55)56)9-19(45)27(17)33(49)29(15)21)26-16-4-2-6-22(60-42-38(54)36(52)32(48)24(12-44)62-42)30(16)34(50)28-18(26)8-14(40(57)58)10-20(28)46/h1-10,23-26,31-32,35-38,41-48,51-54H,11-12H2,(H,55,56)(H,57,58)

> <Parent_SMILES>
O=C(O)c1cc(O)c2c(c1)C(C1c3cc(C(=O)O)cc(O)c3C(=O)c3c(OC4OC(CO)C(O)C(O)C4O)cccc31)c1cccc(OC3OC(CO)C(O)C(O)C3O)c1C2=O

$$$$
Molecule 79_metabolite 23
  CDK     0516241031

120128  0  0  0  0  0  0  0  0999 V2000
   -8.9477   -1.4739    0.0000 C   0  0  0  0  0  0  0  0  0  0  0  0
   -7.6526   -0.7172    0.0000 H   0  0  0  0  0  0  0  0  0  0  0  0
   -8.9402   -2.9739    0.0000 C   0  0  0  0  0  0  0  0  0  0  0  0
   -7.6375   -3.7176    0.0000 H   0  0  0  0  0  0  0  0  0  0  0  0
  -10.2364   -3.7305    0.0000 C   0  0  0  0  0  0  0  0  0  0  0  0
  -11.5401   -2.9870    0.0000 C   0  0  0  0  0  0  0  0  0  0  0  0
  -11.5477   -1.4870    0.0000 C   0  0  0  0  0  0  0  0  0  0  0  0
  -10.2515   -0.7305    0.0000 C   0  0  0  0  0  0  0  0  0  0  0  0
  -10.2590    0.7695    0.0000 H   0  0  0  0  0  0  0  0  0  0  0  0
  -12.8514   -0.7436    0.0000 C   0  0  0  0  0  0  0  0  0  0  0  0
  -11.8932    0.4104    0.0000 H   0  0  0  0  0  0  0  0  0  0  0  0
  -14.1477   -1.5001    0.0000 C   0  0  0  0  0  0  0  0  0  0  0  0
  -15.4514   -0.7566    0.0000 C   0  0  0  0  0  0  0  0  0  0  0  0
  -15.4590    0.7433    0.0000 H   0  0  0  0  0  0  0  0  0  0  0  0
  -16.7476   -1.5132    0.0000 C   0  0  0  0  0  0  0  0  0  0  0  0
  -16.7401   -3.0132    0.0000 C   0  0  0  0  0  0  0  0  0  0  0  0
  -18.0352   -3.7699    0.0000 H   0  0  0  0  0  0  0  0  0  0  0  0
  -15.4363   -3.7566    0.0000 C   0  0  0  0  0  0  0  0  0  0  0  0
  -14.1401   -3.0001    0.0000 C   0  0  0  0  0  0  0  0  0  0  0  0
  -12.8364   -3.7435    0.0000 C   0  0  0  0  0  0  0  0  0  0  0  0
  -12.8288   -5.2435    0.0000 O   0  0  0  0  0  0  0  0  0  0  0  0
  -15.4288   -5.2566    0.0000 O   0  0  0  0  0  0  0  0  0  0  0  0
  -16.7240   -6.0131    0.0000 H   0  0  0  0  0  0  0  0  0  0  0  0
  -18.0503   -0.7695    0.0000 C   0  0  0  0  0  0  0  0  0  0  0  0
  -18.0576    0.7305    0.0000 O   0  0  0  0  0  0  0  0  0  0  0  0
  -19.3457   -1.5258    0.0000 O   0  0  0  0  0  0  0  0  0  0  0  0
  -20.6483   -0.7822    0.0000 H   0  0  0  0  0  0  0  0  0  0  0  0
  -14.4420    1.1331    0.0000 C   0  0  0  0  0  0  0  0  0  0  0  0
  -15.4002   -0.0209    0.0000 H   0  0  0  0  0  0  0  0  0  0  0  0
  -13.1457    1.8896    0.0000 C   0  0  0  0  0  0  0  0  0  0  0  0
  -11.8420    1.1462    0.0000 C   0  0  0  0  0  0  0  0  0  0  0  0
  -11.8344   -0.3538    0.0000 H   0  0  0  0  0  0  0  0  0  0  0  0
  -10.5458    1.9027    0.0000 C   0  0  0  0  0  0  0  0  0  0  0  0
   -9.2431    1.1590    0.0000 H   0  0  0  0  0  0  0  0  0  0  0  0
  -10.5533    3.4027    0.0000 C   0  0  0  0  0  0  0  0  0  0  0  0
   -9.2582    4.1594    0.0000 H   0  0  0  0  0  0  0  0  0  0  0  0
  -11.8571    4.1461    0.0000 C   0  0  0  0  0  0  0  0  0  0  0  0
  -13.1533    3.3896    0.0000 C   0  0  0  0  0  0  0  0  0  0  0  0
  -14.4570    4.1331    0.0000 C   0  0  0  0  0  0  0  0  0  0  0  0
  -14.4646    5.6330    0.0000 O   0  0  0  0  0  0  0  0  0  0  0  0
  -15.7533    3.3765    0.0000 C   0  0  0  0  0  0  0  0  0  0  0  0
  -17.0570    4.1200    0.0000 C   0  0  0  0  0  0  0  0  0  0  0  0
  -18.3532    3.3634    0.0000 C   0  0  0  0  0  0  0  0  0  0  0  0
  -19.6559    4.1071    0.0000 H   0  0  0  0  0  0  0  0  0  0  0  0
  -18.3457    1.8635    0.0000 C   0  0  0  0  0  0  0  0  0  0  0  0
  -17.0419    1.1200    0.0000 C   0  0  0  0  0  0  0  0  0  0  0  0
  -17.0344   -0.3800    0.0000 H   0  0  0  0  0  0  0  0  0  0  0  0
  -15.7457    1.8765    0.0000 C   0  0  0  0  0  0  0  0  0  0  0  0
  -19.6408    1.1067    0.0000 C   0  0  0  0  0  0  0  0  0  0  0  0
  -19.6330   -0.3932    0.0000 O   0  0  0  0  0  0  0  0  0  0  0  0
  -20.9437    1.8500    0.0000 O   0  0  0  0  0  0  0  0  0  0  0  0
  -22.2388    1.0933    0.0000 H   0  0  0  0  0  0  0  0  0  0  0  0
  -17.0646    5.6200    0.0000 O   0  0  0  0  0  0  0  0  0  0  0  0
  -18.3673    6.3634    0.0000 H   0  0  0  0  0  0  0  0  0  0  0  0
  -11.8646    5.6461    0.0000 O   0  0  0  0  0  0  0  0  0  0  0  0
  -10.5694    6.4026    0.0000 C   0  0  0  0  0  0  0  0  0  0  0  0
  -10.0460    4.9969    0.0000 H   0  0  0  0  0  0  0  0  0  0  0  0
  -11.5302    7.5414    0.0000 C   0  0  0  0  0  0  0  0  0  0  0  0
  -12.8307    8.2889    0.0000 H   0  0  0  0  0  0  0  0  0  0  0  0
  -11.0115    8.9735    0.0000 C   0  0  0  0  0  0  0  0  0  0  0  0
  -11.0095   10.4735    0.0000 H   0  0  0  0  0  0  0  0  0  0  0  0
   -9.5278    9.2310    0.0000 C   0  0  0  0  0  0  0  0  0  0  0  0
   -8.2295    9.9822    0.0000 H   0  0  0  0  0  0  0  0  0  0  0  0
   -8.5669    8.0922    0.0000 C   0  0  0  0  0  0  0  0  0  0  0  0
   -7.2660    7.3455    0.0000 H   0  0  0  0  0  0  0  0  0  0  0  0
   -6.9906    9.9808    0.0000 C   0  0  0  0  0  0  0  0  0  0  0  0
   -6.4813   11.3917    0.0000 H   0  0  0  0  0  0  0  0  0  0  0  0
   -8.2916   10.7274    0.0000 H   0  0  0  0  0  0  0  0  0  0  0  0
   -5.5127    9.7242    0.0000 O   0  0  0  0  0  0  0  0  0  0  0  0
   -3.9364   11.6128    0.0000 C   0  0  0  0  0  0  0  0  0  0  0  0
   -5.2357   12.3624    0.0000 H   0  0  0  0  0  0  0  0  0  0  0  0
   -2.9731   10.4762    0.0000 C   0  0  0  0  0  0  0  0  0  0  0  0
   -2.4520    9.0696    0.0000 H   0  0  0  0  0  0  0  0  0  0  0  0
   -1.4747   10.7498    0.0000 C   0  0  0  0  0  0  0  0  0  0  0  0
    0.0048   10.5026    0.0000 H   0  0  0  0  0  0  0  0  0  0  0  0
   -0.9743   12.1701    0.0000 C   0  0  0  0  0  0  0  0  0  0  0  0
   -0.0179   13.3256    0.0000 H   0  0  0  0  0  0  0  0  0  0  0  0
   -1.9377   13.3068    0.0000 C   0  0  0  0  0  0  0  0  0  0  0  0
   -2.4580   14.7137    0.0000 H   0  0  0  0  0  0  0  0  0  0  0  0
    0.6010   14.7896    0.0000 C   0  0  0  0  0  0  0  0  0  0  0  0
    1.9038   14.0461    0.0000 O   0  0  0  0  0  0  0  0  0  0  0  0
    0.5934   16.2896    0.0000 O   0  0  0  0  0  0  0  0  0  0  0  0
    1.8887   17.0461    0.0000 H   0  0  0  0  0  0  0  0  0  0  0  0
   -3.4143   13.0384    0.0000 O   0  0  0  0  0  0  0  0  0  0  0  0
    0.3311   11.4312    0.0000 O   0  0  0  0  0  0  0  0  0  0  0  0
    1.6236   12.1923    0.0000 H   0  0  0  0  0  0  0  0  0  0  0  0
   -1.4634    9.2499    0.0000 O   0  0  0  0  0  0  0  0  0  0  0  0
   -0.1588    8.5097    0.0000 H   0  0  0  0  0  0  0  0  0  0  0  0
   -4.2681    9.7192    0.0000 O   0  0  0  0  0  0  0  0  0  0  0  0
   -4.2601    8.2193    0.0000 H   0  0  0  0  0  0  0  0  0  0  0  0
   -9.0769    6.6807    0.0000 O   0  0  0  0  0  0  0  0  0  0  0  0
  -10.0396   10.6410    0.0000 O   0  0  0  0  0  0  0  0  0  0  0  0
   -9.0744   11.7892    0.0000 H   0  0  0  0  0  0  0  0  0  0  0  0
  -12.4887    9.2338    0.0000 O   0  0  0  0  0  0  0  0  0  0  0  0
  -13.0019   10.6433    0.0000 H   0  0  0  0  0  0  0  0  0  0  0  0
  -12.4917    6.3901    0.0000 O   0  0  0  0  0  0  0  0  0  0  0  0
  -13.9696    6.6471    0.0000 H   0  0  0  0  0  0  0  0  0  0  0  0
  -10.2288   -5.2304    0.0000 O   0  0  0  0  0  0  0  0  0  0  0  0
   -8.9260   -5.9739    0.0000 C   0  0  0  0  0  0  0  0  0  0  0  0
   -8.4169   -4.5630    0.0000 H   0  0  0  0  0  0  0  0  0  0  0  0
   -9.8754   -7.1223    0.0000 C   0  0  0  0  0  0  0  0  0  0  0  0
  -11.1683   -7.8828    0.0000 H   0  0  0  0  0  0  0  0  0  0  0  0
   -9.3423   -8.5491    0.0000 C   0  0  0  0  0  0  0  0  0  0  0  0
   -9.3252  -10.0490    0.0000 H   0  0  0  0  0  0  0  0  0  0  0  0
   -7.8561   -8.7916    0.0000 C   0  0  0  0  0  0  0  0  0  0  0  0
   -6.5502   -9.5297    0.0000 H   0  0  0  0  0  0  0  0  0  0  0  0
   -6.9067   -7.6432    0.0000 C   0  0  0  0  0  0  0  0  0  0  0  0
   -5.6134   -6.8835    0.0000 H   0  0  0  0  0  0  0  0  0  0  0  0
   -5.0002   -9.8813    0.0000 C   0  0  0  0  0  0  0  0  0  0  0  0
   -4.4767  -11.2870    0.0000 H   0  0  0  0  0  0  0  0  0  0  0  0
   -6.2936  -10.6409    0.0000 H   0  0  0  0  0  0  0  0  0  0  0  0
   -3.5250   -9.6098    0.0000 O   0  0  0  0  0  0  0  0  0  0  0  0
   -2.5523  -10.7517    0.0000 H   0  0  0  0  0  0  0  0  0  0  0  0
   -7.4308   -6.2369    0.0000 O   0  0  0  0  0  0  0  0  0  0  0  0
   -8.3536  -10.2067    0.0000 O   0  0  0  0  0  0  0  0  0  0  0  0
   -7.3769  -11.3451    0.0000 H   0  0  0  0  0  0  0  0  0  0  0  0
  -10.8168   -8.8242    0.0000 O   0  0  0  0  0  0  0  0  0  0  0  0
  -11.3158  -10.2388    0.0000 H   0  0  0  0  0  0  0  0  0  0  0  0
  -10.8484   -5.9807    0.0000 O   0  0  0  0  0  0  0  0  0  0  0  0
  -12.3236   -6.2526    0.0000 H   0  0  0  0  0  0  0  0  0  0  0  0
  1  2  1  0  0  0  0 
  1  3  2  0  0  0  0 
  3  4  1  0  0  0  0 
  3  5  1  0  0  0  0 
  5  6  2  0  0  0  0 
  6  7  1  0  0  0  0 
  7  8  2  0  0  0  0 
  1  8  1  0  0  0  0 
  8  9  1  0  0  0  0 
  7 10  1  0  0  0  0 
 10 11  1  0  0  0  0 
 10 12  1  0  0  0  0 
 12 13  2  0  0  0  0 
 13 14  1  0  0  0  0 
 13 15  1  0  0  0  0 
 15 16  2  0  0  0  0 
 16 17  1  0  0  0  0 
 16 18  1  0  0  0  0 
 18 19  2  0  0  0  0 
 12 19  1  0  0  0  0 
 19 20  1  0  0  0  0 
  6 20  1  0  0  0  0 
 20 21  2  0  0  0  0 
 18 22  1  0  0  0  0 
 22 23  1  0  0  0  0 
 15 24  1  0  0  0  0 
 24 25  2  0  0  0  0 
 24 26  1  0  0  0  0 
 26 27  1  0  0  0  0 
 10 28  1  0  0  0  0 
 28 29  1  0  0  0  0 
 28 30  1  0  0  0  0 
 30 31  2  0  0  0  0 
 31 32  1  0  0  0  0 
 31 33  1  0  0  0  0 
 33 34  1  0  0  0  0 
 33 35  2  0  0  0  0 
 35 36  1  0  0  0  0 
 35 37  1  0  0  0  0 
 37 38  2  0  0  0  0 
 30 38  1  0  0  0  0 
 38 39  1  0  0  0  0 
 39 40  2  0  0  0  0 
 39 41  1  0  0  0  0 
 41 42  2  0  0  0  0 
 42 43  1  0  0  0  0 
 43 44  1  0  0  0  0 
 43 45  2  0  0  0  0 
 45 46  1  0  0  0  0 
 46 47  1  0  0  0  0 
 46 48  2  0  0  0  0 
 28 48  1  0  0  0  0 
 41 48  1  0  0  0  0 
 45 49  1  0  0  0  0 
 49 50  2  0  0  0  0 
 49 51  1  0  0  0  0 
 51 52  1  0  0  0  0 
 42 53  1  0  0  0  0 
 53 54  1  0  0  0  0 
 37 55  1  0  0  0  0 
 55 56  1  0  0  0  0 
 56 57  1  0  0  0  0 
 56 58  1  0  0  0  0 
 58 59  1  0  0  0  0 
 58 60  1  0  0  0  0 
 60 61  1  0  0  0  0 
 60 62  1  0  0  0  0 
 62 63  1  0  0  0  0 
 62 64  1  0  0  0  0 
 64 65  1  0  0  0  0 
 64 66  1  0  0  0  0 
 66 67  1  0  0  0  0 
 66 68  1  0  0  0  0 
 66 69  1  0  0  0  0 
 69 70  1  0  0  0  0 
 70 71  1  0  0  0  0 
 70 72  1  0  0  0  0 
 72 73  1  0  0  0  0 
 72 74  1  0  0  0  0 
 74 75  1  0  0  0  0 
 74 76  1  0  0  0  0 
 76 77  1  0  0  0  0 
 76 78  1  0  0  0  0 
 78 79  1  0  0  0  0 
 78 80  1  0  0  0  0 
 80 81  2  0  0  0  0 
 80 82  1  0  0  0  0 
 82 83  1  0  0  0  0 
 78 84  1  0  0  0  0 
 70 84  1  0  0  0  0 
 76 85  1  0  0  0  0 
 85 86  1  0  0  0  0 
 74 87  1  0  0  0  0 
 87 88  1  0  0  0  0 
 72 89  1  0  0  0  0 
 89 90  1  0  0  0  0 
 64 91  1  0  0  0  0 
 56 91  1  0  0  0  0 
 62 92  1  0  0  0  0 
 92 93  1  0  0  0  0 
 60 94  1  0  0  0  0 
 94 95  1  0  0  0  0 
 58 96  1  0  0  0  0 
 96 97  1  0  0  0  0 
  5 98  1  0  0  0  0 
 98 99  1  0  0  0  0 
 99100  1  0  0  0  0 
 99101  1  0  0  0  0 
101102  1  0  0  0  0 
101103  1  0  0  0  0 
103104  1  0  0  0  0 
103105  1  0  0  0  0 
105106  1  0  0  0  0 
105107  1  0  0  0  0 
107108  1  0  0  0  0 
107109  1  0  0  0  0 
109110  1  0  0  0  0 
109111  1  0  0  0  0 
109112  1  0  0  0  0 
112113  1  0  0  0  0 
107114  1  0  0  0  0 
 99114  1  0  0  0  0 
105115  1  0  0  0  0 
115116  1  0  0  0  0 
103117  1  0  0  0  0 
117118  1  0  0  0  0 
101119  1  0  0  0  0 
119120  1  0  0  0  0 
M  END
> <Rank>
22

> <Priority_score>
0.056

> <Reaction_type>
O-glucuronidation_(aliphatic_hydroxyl)

> <Parent_ID>
79

> <Parent_InChI>
InChI=1S/C42H38O20/c43-11-23-31(47)35(51)37(53)41(61-23)59-21-5-1-3-15-25(17-7-13(39(55)56)9-19(45)27(17)33(49)29(15)21)26-16-4-2-6-22(60-42-38(54)36(52)32(48)24(12-44)62-42)30(16)34(50)28-18(26)8-14(40(57)58)10-20(28)46/h1-10,23-26,31-32,35-38,41-48,51-54H,11-12H2,(H,55,56)(H,57,58)

> <Parent_SMILES>
O=C(O)c1cc(O)c2c(c1)C(C1c3cc(C(=O)O)cc(O)c3C(=O)c3c(OC4OC(CO)C(O)C(O)C4O)cccc31)c1cccc(OC3OC(CO)C(O)C(O)C3O)c1C2=O

$$$$
Molecule 79_metabolite 24
  CDK     0516241031

101108  0  0  0  0  0  0  0  0999 V2000
    7.7142   -0.7087    0.0000 C   0  0  0  0  0  0  0  0  0  0  0  0
    9.1914   -0.9692    0.0000 H   0  0  0  0  0  0  0  0  0  0  0  0
    6.7498   -1.8575    0.0000 C   0  0  0  0  0  0  0  0  0  0  0  0
    7.2623   -3.2673    0.0000 H   0  0  0  0  0  0  0  0  0  0  0  0
    5.2719   -1.5961    0.0000 C   0  0  0  0  0  0  0  0  0  0  0  0
    4.7584   -0.1859    0.0000 C   0  0  0  0  0  0  0  0  0  0  0  0
    5.7228    0.9630    0.0000 C   0  0  0  0  0  0  0  0  0  0  0  0
    7.2007    0.7016    0.0000 C   0  0  0  0  0  0  0  0  0  0  0  0
    8.1651    1.8504    0.0000 H   0  0  0  0  0  0  0  0  0  0  0  0
    5.2094    2.3733    0.0000 C   0  0  0  0  0  0  0  0  0  0  0  0
    6.6866    2.6336    0.0000 H   0  0  0  0  0  0  0  0  0  0  0  0
    3.7315    2.6347    0.0000 C   0  0  0  0  0  0  0  0  0  0  0  0
    3.2180    4.0449    0.0000 C   0  0  0  0  0  0  0  0  0  0  0  0
    4.1824    5.1938    0.0000 H   0  0  0  0  0  0  0  0  0  0  0  0
    1.7401    4.3063    0.0000 C   0  0  0  0  0  0  0  0  0  0  0  0
    0.7757    3.1575    0.0000 C   0  0  0  0  0  0  0  0  0  0  0  0
   -0.7015    3.4180    0.0000 H   0  0  0  0  0  0  0  0  0  0  0  0
    1.2891    1.7472    0.0000 C   0  0  0  0  0  0  0  0  0  0  0  0
    2.7670    1.4858    0.0000 C   0  0  0  0  0  0  0  0  0  0  0  0
    3.2805    0.0755    0.0000 C   0  0  0  0  0  0  0  0  0  0  0  0
    2.3161   -1.0733    0.0000 O   0  0  0  0  0  0  0  0  0  0  0  0
    0.3247    0.5984    0.0000 O   0  0  0  0  0  0  0  0  0  0  0  0
   -1.1524    0.8591    0.0000 H   0  0  0  0  0  0  0  0  0  0  0  0
    0.8996    6.6183    0.0000 C   0  0  0  0  0  0  0  0  0  0  0  0
    1.8642    7.7670    0.0000 O   0  0  0  0  0  0  0  0  0  0  0  0
   -0.5775    6.8793    0.0000 O   0  0  0  0  0  0  0  0  0  0  0  0
   -1.0900    8.2891    0.0000 H   0  0  0  0  0  0  0  0  0  0  0  0
    5.2101    4.8333    0.0000 C   0  0  0  0  0  0  0  0  0  0  0  0
    3.7329    4.5729    0.0000 H   0  0  0  0  0  0  0  0  0  0  0  0
    6.6880    4.5719    0.0000 C   0  0  0  0  0  0  0  0  0  0  0  0
    7.2015    3.1616    0.0000 C   0  0  0  0  0  0  0  0  0  0  0  0
    6.2371    2.0127    0.0000 H   0  0  0  0  0  0  0  0  0  0  0  0
    8.6794    2.9002    0.0000 C   0  0  0  0  0  0  0  0  0  0  0  0
    9.6438    4.0490    0.0000 C   0  0  0  0  0  0  0  0  0  0  0  0
   11.1210    3.7885    0.0000 H   0  0  0  0  0  0  0  0  0  0  0  0
    9.1304    5.4593    0.0000 C   0  0  0  0  0  0  0  0  0  0  0  0
    7.6525    5.7207    0.0000 C   0  0  0  0  0  0  0  0  0  0  0  0
    7.1390    7.1310    0.0000 C   0  0  0  0  0  0  0  0  0  0  0  0
    8.1034    8.2798    0.0000 O   0  0  0  0  0  0  0  0  0  0  0  0
    5.6611    7.3924    0.0000 C   0  0  0  0  0  0  0  0  0  0  0  0
    4.6967    6.2435    0.0000 C   0  0  0  0  0  0  0  0  0  0  0  0
    3.2188    6.5049    0.0000 C   0  0  0  0  0  0  0  0  0  0  0  0
    2.7053    7.9152    0.0000 C   0  0  0  0  0  0  0  0  0  0  0  0
    1.2281    8.1758    0.0000 H   0  0  0  0  0  0  0  0  0  0  0  0
    3.6698    9.0641    0.0000 C   0  0  0  0  0  0  0  0  0  0  0  0
    3.1572   10.4738    0.0000 H   0  0  0  0  0  0  0  0  0  0  0  0
    5.1476    8.8027    0.0000 C   0  0  0  0  0  0  0  0  0  0  0  0
    6.1121    9.9515    0.0000 O   0  0  0  0  0  0  0  0  0  0  0  0
    5.5993   11.3612    0.0000 C   0  0  0  0  0  0  0  0  0  0  0  0
    4.2984   10.6144    0.0000 H   0  0  0  0  0  0  0  0  0  0  0  0
    7.0662   11.6230    0.0000 C   0  0  0  0  0  0  0  0  0  0  0  0
    8.5441   11.3668    0.0000 H   0  0  0  0  0  0  0  0  0  0  0  0
    7.5824   13.0560    0.0000 C   0  0  0  0  0  0  0  0  0  0  0  0
    8.5396   14.2109    0.0000 H   0  0  0  0  0  0  0  0  0  0  0  0
    6.6058   14.2022    0.0000 C   0  0  0  0  0  0  0  0  0  0  0  0
    6.0873   15.6097    0.0000 H   0  0  0  0  0  0  0  0  0  0  0  0
    5.1390   13.9404    0.0000 C   0  0  0  0  0  0  0  0  0  0  0  0
    3.6612   14.1975    0.0000 H   0  0  0  0  0  0  0  0  0  0  0  0
    5.1336   16.4004    0.0000 C   0  0  0  0  0  0  0  0  0  0  0  0
    4.6175   17.8088    0.0000 H   0  0  0  0  0  0  0  0  0  0  0  0
    3.6570   16.1367    0.0000 H   0  0  0  0  0  0  0  0  0  0  0  0
    6.4310   17.1532    0.0000 O   0  0  0  0  0  0  0  0  0  0  0  0
    6.4277   18.6532    0.0000 H   0  0  0  0  0  0  0  0  0  0  0  0
    4.6291   12.5289    0.0000 O   0  0  0  0  0  0  0  0  0  0  0  0
    7.9006   14.9596    0.0000 O   0  0  0  0  0  0  0  0  0  0  0  0
    7.8920   16.4596    0.0000 H   0  0  0  0  0  0  0  0  0  0  0  0
    8.8850   12.3121    0.0000 O   0  0  0  0  0  0  0  0  0  0  0  0
   10.1805   13.0682    0.0000 H   0  0  0  0  0  0  0  0  0  0  0  0
    7.0699   10.1230    0.0000 O   0  0  0  0  0  0  0  0  0  0  0  0
    8.3708    9.3762    0.0000 H   0  0  0  0  0  0  0  0  0  0  0  0
    2.2544    5.3561    0.0000 O   0  0  0  0  0  0  0  0  0  0  0  0
    0.7772    5.6169    0.0000 H   0  0  0  0  0  0  0  0  0  0  0  0
   10.0948    6.6082    0.0000 O   0  0  0  0  0  0  0  0  0  0  0  0
   11.5719    6.3474    0.0000 H   0  0  0  0  0  0  0  0  0  0  0  0
    9.1919    1.4905    0.0000 C   0  0  0  0  0  0  0  0  0  0  0  0
    8.2273    0.3417    0.0000 O   0  0  0  0  0  0  0  0  0  0  0  0
   10.6690    1.2294    0.0000 O   0  0  0  0  0  0  0  0  0  0  0  0
   11.1815   -0.1803    0.0000 H   0  0  0  0  0  0  0  0  0  0  0  0
    4.3074   -2.7450    0.0000 O   0  0  0  0  0  0  0  0  0  0  0  0
    4.8202   -4.1546    0.0000 C   0  0  0  0  0  0  0  0  0  0  0  0
    6.1211   -3.4079    0.0000 H   0  0  0  0  0  0  0  0  0  0  0  0
    3.3533   -4.4164    0.0000 C   0  0  0  0  0  0  0  0  0  0  0  0
    1.8754   -4.1602    0.0000 H   0  0  0  0  0  0  0  0  0  0  0  0
    2.8371   -5.8494    0.0000 C   0  0  0  0  0  0  0  0  0  0  0  0
    1.8800   -7.0044    0.0000 H   0  0  0  0  0  0  0  0  0  0  0  0
    3.8137   -6.9957    0.0000 C   0  0  0  0  0  0  0  0  0  0  0  0
    4.3322   -8.4032    0.0000 H   0  0  0  0  0  0  0  0  0  0  0  0
    5.2805   -6.7339    0.0000 C   0  0  0  0  0  0  0  0  0  0  0  0
    6.7583   -6.9910    0.0000 H   0  0  0  0  0  0  0  0  0  0  0  0
    5.2859   -9.1939    0.0000 C   0  0  0  0  0  0  0  0  0  0  0  0
    5.8020  -10.6023    0.0000 H   0  0  0  0  0  0  0  0  0  0  0  0
    6.7625   -8.9302    0.0000 H   0  0  0  0  0  0  0  0  0  0  0  0
    3.9885   -9.9467    0.0000 O   0  0  0  0  0  0  0  0  0  0  0  0
    3.9918  -11.4467    0.0000 H   0  0  0  0  0  0  0  0  0  0  0  0
    5.7904   -5.3223    0.0000 O   0  0  0  0  0  0  0  0  0  0  0  0
    2.5190   -7.7531    0.0000 O   0  0  0  0  0  0  0  0  0  0  0  0
    2.5275   -9.2531    0.0000 H   0  0  0  0  0  0  0  0  0  0  0  0
    1.5346   -5.1055    0.0000 O   0  0  0  0  0  0  0  0  0  0  0  0
    0.2391   -5.8616    0.0000 H   0  0  0  0  0  0  0  0  0  0  0  0
    3.3496   -2.9164    0.0000 O   0  0  0  0  0  0  0  0  0  0  0  0
    2.0487   -2.1697    0.0000 H   0  0  0  0  0  0  0  0  0  0  0  0
  1  2  1  0  0  0  0 
  1  3  2  0  0  0  0 
  3  4  1  0  0  0  0 
  3  5  1  0  0  0  0 
  5  6  2  0  0  0  0 
  6  7  1  0  0  0  0 
  7  8  2  0  0  0  0 
  1  8  1  0  0  0  0 
  8  9  1  0  0  0  0 
  7 10  1  0  0  0  0 
 10 11  1  0  0  0  0 
 10 12  1  0  0  0  0 
 12 13  2  0  0  0  0 
 13 14  1  0  0  0  0 
 13 15  1  0  0  0  0 
 15 16  2  0  0  0  0 
 16 17  1  0  0  0  0 
 16 18  1  0  0  0  0 
 18 19  2  0  0  0  0 
 12 19  1  0  0  0  0 
 19 20  1  0  0  0  0 
  6 20  1  0  0  0  0 
 20 21  2  0  0  0  0 
 18 22  1  0  0  0  0 
 22 23  1  0  0  0  0 
 15 24  1  0  0  0  0 
 24 25  2  0  0  0  0 
 24 26  1  0  0  0  0 
 26 27  1  0  0  0  0 
 10 28  1  0  0  0  0 
 28 29  1  0  0  0  0 
 28 30  1  0  0  0  0 
 30 31  2  0  0  0  0 
 31 32  1  0  0  0  0 
 31 33  1  0  0  0  0 
 33 34  2  0  0  0  0 
 34 35  1  0  0  0  0 
 34 36  1  0  0  0  0 
 36 37  2  0  0  0  0 
 30 37  1  0  0  0  0 
 37 38  1  0  0  0  0 
 38 39  2  0  0  0  0 
 38 40  1  0  0  0  0 
 40 41  2  0  0  0  0 
 28 41  1  0  0  0  0 
 41 42  1  0  0  0  0 
 42 43  2  0  0  0  0 
 43 44  1  0  0  0  0 
 43 45  1  0  0  0  0 
 45 46  1  0  0  0  0 
 45 47  2  0  0  0  0 
 40 47  1  0  0  0  0 
 47 48  1  0  0  0  0 
 48 49  1  0  0  0  0 
 49 50  1  0  0  0  0 
 49 51  1  0  0  0  0 
 51 52  1  0  0  0  0 
 51 53  1  0  0  0  0 
 53 54  1  0  0  0  0 
 53 55  1  0  0  0  0 
 55 56  1  0  0  0  0 
 55 57  1  0  0  0  0 
 57 58  1  0  0  0  0 
 57 59  1  0  0  0  0 
 59 60  1  0  0  0  0 
 59 61  1  0  0  0  0 
 59 62  1  0  0  0  0 
 62 63  1  0  0  0  0 
 57 64  1  0  0  0  0 
 49 64  1  0  0  0  0 
 55 65  1  0  0  0  0 
 65 66  1  0  0  0  0 
 53 67  1  0  0  0  0 
 67 68  1  0  0  0  0 
 51 69  1  0  0  0  0 
 69 70  1  0  0  0  0 
 42 71  1  0  0  0  0 
 71 72  1  0  0  0  0 
 36 73  1  0  0  0  0 
 73 74  1  0  0  0  0 
 33 75  1  0  0  0  0 
 75 76  2  0  0  0  0 
 75 77  1  0  0  0  0 
 77 78  1  0  0  0  0 
  5 79  1  0  0  0  0 
 79 80  1  0  0  0  0 
 80 81  1  0  0  0  0 
 80 82  1  0  0  0  0 
 82 83  1  0  0  0  0 
 82 84  1  0  0  0  0 
 84 85  1  0  0  0  0 
 84 86  1  0  0  0  0 
 86 87  1  0  0  0  0 
 86 88  1  0  0  0  0 
 88 89  1  0  0  0  0 
 88 90  1  0  0  0  0 
 90 91  1  0  0  0  0 
 90 92  1  0  0  0  0 
 90 93  1  0  0  0  0 
 93 94  1  0  0  0  0 
 88 95  1  0  0  0  0 
 80 95  1  0  0  0  0 
 86 96  1  0  0  0  0 
 96 97  1  0  0  0  0 
 84 98  1  0  0  0  0 
 98 99  1  0  0  0  0 
 82100  1  0  0  0  0 
100101  1  0  0  0  0 
M  END
> <Rank>
24

> <Priority_score>
0.044

> <Reaction_type>
aromatic_hydroxylation_(para_to_oxygen)

> <Parent_ID>
79

> <Parent_InChI>
InChI=1S/C42H38O20/c43-11-23-31(47)35(51)37(53)41(61-23)59-21-5-1-3-15-25(17-7-13(39(55)56)9-19(45)27(17)33(49)29(15)21)26-16-4-2-6-22(60-42-38(54)36(52)32(48)24(12-44)62-42)30(16)34(50)28-18(26)8-14(40(57)58)10-20(28)46/h1-10,23-26,31-32,35-38,41-48,51-54H,11-12H2,(H,55,56)(H,57,58)

> <Parent_SMILES>
O=C(O)c1cc(O)c2c(c1)C(C1c3cc(C(=O)O)cc(O)c3C(=O)c3c(OC4OC(CO)C(O)C(O)C4O)cccc31)c1cccc(OC3OC(CO)C(O)C(O)C3O)c1C2=O

$$$$
Molecule 79_metabolite 25
  CDK     0516241031

 99106  0  0  0  0  0  0  0  0999 V2000
  -13.6719   -5.0956    0.0000 C   0  0  0  0  0  0  0  0  0  0  0  0
  -13.6717   -6.5956    0.0000 H   0  0  0  0  0  0  0  0  0  0  0  0
  -14.9710   -4.3456    0.0000 C   0  0  0  0  0  0  0  0  0  0  0  0
  -16.2701   -5.0954    0.0000 H   0  0  0  0  0  0  0  0  0  0  0  0
  -14.9705   -2.8447    0.0000 C   0  0  0  0  0  0  0  0  0  0  0  0
  -13.6710   -2.0939    0.0000 C   0  0  0  0  0  0  0  0  0  0  0  0
  -12.3719   -2.8439    0.0000 C   0  0  0  0  0  0  0  0  0  0  0  0
  -12.3724   -4.3447    0.0000 C   0  0  0  0  0  0  0  0  0  0  0  0
  -11.0734   -5.0947    0.0000 H   0  0  0  0  0  0  0  0  0  0  0  0
  -11.0724   -2.0931    0.0000 C   0  0  0  0  0  0  0  0  0  0  0  0
  -10.5592   -3.5025    0.0000 H   0  0  0  0  0  0  0  0  0  0  0  0
  -11.0719   -0.5922    0.0000 C   0  0  0  0  0  0  0  0  0  0  0  0
   -9.7724    0.1586    0.0000 C   0  0  0  0  0  0  0  0  0  0  0  0
   -8.4734   -0.5914    0.0000 H   0  0  0  0  0  0  0  0  0  0  0  0
   -9.7719    1.6594    0.0000 C   0  0  0  0  0  0  0  0  0  0  0  0
  -11.0710    2.4094    0.0000 C   0  0  0  0  0  0  0  0  0  0  0  0
  -11.0712    3.9094    0.0000 H   0  0  0  0  0  0  0  0  0  0  0  0
  -12.3705    1.6586    0.0000 C   0  0  0  0  0  0  0  0  0  0  0  0
  -12.3710    0.1578    0.0000 C   0  0  0  0  0  0  0  0  0  0  0  0
  -13.6705   -0.5931    0.0000 C   0  0  0  0  0  0  0  0  0  0  0  0
  -14.9695    0.1569    0.0000 O   0  0  0  0  0  0  0  0  0  0  0  0
  -13.6695    2.4086    0.0000 O   0  0  0  0  0  0  0  0  0  0  0  0
  -13.6695    3.9086    0.0000 H   0  0  0  0  0  0  0  0  0  0  0  0
   -8.4728    2.4092    0.0000 C   0  0  0  0  0  0  0  0  0  0  0  0
   -7.1739    1.6590    0.0000 O   0  0  0  0  0  0  0  0  0  0  0  0
   -8.4725    3.9092    0.0000 O   0  0  0  0  0  0  0  0  0  0  0  0
   -7.1734    4.6590    0.0000 H   0  0  0  0  0  0  0  0  0  0  0  0
   -8.6497   -1.6661    0.0000 C   0  0  0  0  0  0  0  0  0  0  0  0
   -9.1629   -0.2567    0.0000 H   0  0  0  0  0  0  0  0  0  0  0  0
   -8.6502   -3.1670    0.0000 C   0  0  0  0  0  0  0  0  0  0  0  0
   -9.9497   -3.9178    0.0000 C   0  0  0  0  0  0  0  0  0  0  0  0
  -11.2488   -3.1678    0.0000 H   0  0  0  0  0  0  0  0  0  0  0  0
   -9.9502   -5.4186    0.0000 C   0  0  0  0  0  0  0  0  0  0  0  0
  -11.2494   -6.1684    0.0000 H   0  0  0  0  0  0  0  0  0  0  0  0
   -8.6512   -6.1686    0.0000 C   0  0  0  0  0  0  0  0  0  0  0  0
   -8.6509   -7.6686    0.0000 H   0  0  0  0  0  0  0  0  0  0  0  0
   -7.3517   -5.4178    0.0000 C   0  0  0  0  0  0  0  0  0  0  0  0
   -7.3512   -3.9170    0.0000 C   0  0  0  0  0  0  0  0  0  0  0  0
   -6.0517   -3.1661    0.0000 C   0  0  0  0  0  0  0  0  0  0  0  0
   -4.7526   -3.9161    0.0000 O   0  0  0  0  0  0  0  0  0  0  0  0
   -6.0512   -1.6653    0.0000 C   0  0  0  0  0  0  0  0  0  0  0  0
   -7.3502   -0.9153    0.0000 C   0  0  0  0  0  0  0  0  0  0  0  0
   -7.3497    0.5855    0.0000 C   0  0  0  0  0  0  0  0  0  0  0  0
   -8.6488    1.3355    0.0000 O   0  0  0  0  0  0  0  0  0  0  0  0
   -6.0502    1.3364    0.0000 C   0  0  0  0  0  0  0  0  0  0  0  0
   -4.7512    0.5864    0.0000 C   0  0  0  0  0  0  0  0  0  0  0  0
   -3.4520    1.3361    0.0000 H   0  0  0  0  0  0  0  0  0  0  0  0
   -4.7517   -0.9145    0.0000 C   0  0  0  0  0  0  0  0  0  0  0  0
   -3.4526   -1.6645    0.0000 O   0  0  0  0  0  0  0  0  0  0  0  0
   -6.0505    2.8364    0.0000 C   0  0  0  0  0  0  0  0  0  0  0  0
   -7.3496    3.5861    0.0000 O   0  0  0  0  0  0  0  0  0  0  0  0
   -4.7515    3.5866    0.0000 O   0  0  0  0  0  0  0  0  0  0  0  0
   -4.7518    5.0866    0.0000 H   0  0  0  0  0  0  0  0  0  0  0  0
   -6.0526   -6.1678    0.0000 O   0  0  0  0  0  0  0  0  0  0  0  0
   -6.0526   -7.6678    0.0000 C   0  0  0  0  0  0  0  0  0  0  0  0
   -7.5304   -7.4107    0.0000 H   0  0  0  0  0  0  0  0  0  0  0  0
   -4.5847   -7.4125    0.0000 C   0  0  0  0  0  0  0  0  0  0  0  0
   -3.2833   -6.6665    0.0000 H   0  0  0  0  0  0  0  0  0  0  0  0
   -3.6097   -8.5827    0.0000 C   0  0  0  0  0  0  0  0  0  0  0  0
   -2.3154   -9.3409    0.0000 H   0  0  0  0  0  0  0  0  0  0  0  0
   -4.1356   -9.9937    0.0000 C   0  0  0  0  0  0  0  0  0  0  0  0
   -4.1418  -11.4937    0.0000 H   0  0  0  0  0  0  0  0  0  0  0  0
   -5.6036  -10.2491    0.0000 C   0  0  0  0  0  0  0  0  0  0  0  0
   -6.9045  -10.9958    0.0000 H   0  0  0  0  0  0  0  0  0  0  0  0
   -4.7678  -12.5627    0.0000 C   0  0  0  0  0  0  0  0  0  0  0  0
   -4.7714  -14.0627    0.0000 H   0  0  0  0  0  0  0  0  0  0  0  0
   -6.2456  -12.8196    0.0000 H   0  0  0  0  0  0  0  0  0  0  0  0
   -3.2912  -12.8267    0.0000 O   0  0  0  0  0  0  0  0  0  0  0  0
   -2.7816  -14.2375    0.0000 H   0  0  0  0  0  0  0  0  0  0  0  0
   -6.5653   -9.0968    0.0000 O   0  0  0  0  0  0  0  0  0  0  0  0
   -2.6600  -10.2629    0.0000 O   0  0  0  0  0  0  0  0  0  0  0  0
   -2.1553  -11.6755    0.0000 H   0  0  0  0  0  0  0  0  0  0  0  0
   -2.6399   -7.4384    0.0000 O   0  0  0  0  0  0  0  0  0  0  0  0
   -1.1640   -7.7061    0.0000 H   0  0  0  0  0  0  0  0  0  0  0  0
   -5.0939   -6.0015    0.0000 O   0  0  0  0  0  0  0  0  0  0  0  0
   -4.1266   -4.8551    0.0000 H   0  0  0  0  0  0  0  0  0  0  0  0
  -16.2695   -2.0947    0.0000 O   0  0  0  0  0  0  0  0  0  0  0  0
  -17.5686   -2.8447    0.0000 C   0  0  0  0  0  0  0  0  0  0  0  0
  -16.6070   -3.9960    0.0000 H   0  0  0  0  0  0  0  0  0  0  0  0
  -18.0814   -1.4458    0.0000 C   0  0  0  0  0  0  0  0  0  0  0  0
  -18.0860    0.0542    0.0000 H   0  0  0  0  0  0  0  0  0  0  0  0
  -19.5823   -1.1865    0.0000 C   0  0  0  0  0  0  0  0  0  0  0  0
  -20.8861   -0.4447    0.0000 H   0  0  0  0  0  0  0  0  0  0  0  0
  -20.5413   -2.3475    0.0000 C   0  0  0  0  0  0  0  0  0  0  0  0
  -21.8373   -3.1029    0.0000 H   0  0  0  0  0  0  0  0  0  0  0  0
  -20.0285   -3.7465    0.0000 C   0  0  0  0  0  0  0  0  0  0  0  0
  -20.0247   -5.2465    0.0000 H   0  0  0  0  0  0  0  0  0  0  0  0
  -22.4501   -4.1795    0.0000 C   0  0  0  0  0  0  0  0  0  0  0  0
  -23.7473   -4.9326    0.0000 H   0  0  0  0  0  0  0  0  0  0  0  0
  -21.9337   -5.5878    0.0000 H   0  0  0  0  0  0  0  0  0  0  0  0
  -23.4170   -3.0328    0.0000 O   0  0  0  0  0  0  0  0  0  0  0  0
  -24.8936   -3.2968    0.0000 H   0  0  0  0  0  0  0  0  0  0  0  0
  -18.5498   -4.0032    0.0000 O   0  0  0  0  0  0  0  0  0  0  0  0
  -21.5123   -1.2042    0.0000 O   0  0  0  0  0  0  0  0  0  0  0  0
  -22.9879   -1.4734    0.0000 H   0  0  0  0  0  0  0  0  0  0  0  0
  -19.0762    0.2255    0.0000 O   0  0  0  0  0  0  0  0  0  0  0  0
  -20.0460    1.3698    0.0000 H   0  0  0  0  0  0  0  0  0  0  0  0
  -16.6049   -1.1813    0.0000 O   0  0  0  0  0  0  0  0  0  0  0  0
  -16.0957    0.2296    0.0000 H   0  0  0  0  0  0  0  0  0  0  0  0
  1  2  1  0  0  0  0 
  1  3  2  0  0  0  0 
  3  4  1  0  0  0  0 
  3  5  1  0  0  0  0 
  5  6  2  0  0  0  0 
  6  7  1  0  0  0  0 
  7  8  2  0  0  0  0 
  1  8  1  0  0  0  0 
  8  9  1  0  0  0  0 
  7 10  1  0  0  0  0 
 10 11  1  0  0  0  0 
 10 12  1  0  0  0  0 
 12 13  2  0  0  0  0 
 13 14  1  0  0  0  0 
 13 15  1  0  0  0  0 
 15 16  2  0  0  0  0 
 16 17  1  0  0  0  0 
 16 18  1  0  0  0  0 
 18 19  2  0  0  0  0 
 12 19  1  0  0  0  0 
 19 20  1  0  0  0  0 
  6 20  1  0  0  0  0 
 20 21  2  0  0  0  0 
 18 22  1  0  0  0  0 
 22 23  1  0  0  0  0 
 15 24  1  0  0  0  0 
 24 25  2  0  0  0  0 
 24 26  1  0  0  0  0 
 26 27  1  0  0  0  0 
 10 28  1  0  0  0  0 
 28 29  1  0  0  0  0 
 28 30  1  0  0  0  0 
 30 31  2  0  0  0  0 
 31 32  1  0  0  0  0 
 31 33  1  0  0  0  0 
 33 34  1  0  0  0  0 
 33 35  2  0  0  0  0 
 35 36  1  0  0  0  0 
 35 37  1  0  0  0  0 
 37 38  2  0  0  0  0 
 30 38  1  0  0  0  0 
 38 39  1  0  0  0  0 
 39 40  2  0  0  0  0 
 39 41  1  0  0  0  0 
 41 42  2  0  0  0  0 
 28 42  1  0  0  0  0 
 42 43  1  0  0  0  0 
 43 44  2  0  0  0  0 
 43 45  1  0  0  0  0 
 45 46  2  0  0  0  0 
 46 47  1  0  0  0  0 
 46 48  1  0  0  0  0 
 41 48  1  0  0  0  0 
 48 49  2  0  0  0  0 
 45 50  1  0  0  0  0 
 50 51  2  0  0  0  0 
 50 52  1  0  0  0  0 
 52 53  1  0  0  0  0 
 37 54  1  0  0  0  0 
 54 55  1  0  0  0  0 
 55 56  1  0  0  0  0 
 55 57  1  0  0  0  0 
 57 58  1  0  0  0  0 
 57 59  1  0  0  0  0 
 59 60  1  0  0  0  0 
 59 61  1  0  0  0  0 
 61 62  1  0  0  0  0 
 61 63  1  0  0  0  0 
 63 64  1  0  0  0  0 
 63 65  1  0  0  0  0 
 65 66  1  0  0  0  0 
 65 67  1  0  0  0  0 
 65 68  1  0  0  0  0 
 68 69  1  0  0  0  0 
 63 70  1  0  0  0  0 
 55 70  1  0  0  0  0 
 61 71  1  0  0  0  0 
 71 72  1  0  0  0  0 
 59 73  1  0  0  0  0 
 73 74  1  0  0  0  0 
 57 75  1  0  0  0  0 
 75 76  1  0  0  0  0 
  5 77  1  0  0  0  0 
 77 78  1  0  0  0  0 
 78 79  1  0  0  0  0 
 78 80  1  0  0  0  0 
 80 81  1  0  0  0  0 
 80 82  1  0  0  0  0 
 82 83  1  0  0  0  0 
 82 84  1  0  0  0  0 
 84 85  1  0  0  0  0 
 84 86  1  0  0  0  0 
 86 87  1  0  0  0  0 
 86 88  1  0  0  0  0 
 88 89  1  0  0  0  0 
 88 90  1  0  0  0  0 
 88 91  1  0  0  0  0 
 91 92  1  0  0  0  0 
 86 93  1  0  0  0  0 
 78 93  1  0  0  0  0 
 84 94  1  0  0  0  0 
 94 95  1  0  0  0  0 
 82 96  1  0  0  0  0 
 96 97  1  0  0  0  0 
 80 98  1  0  0  0  0 
 98 99  1  0  0  0  0 
M  END
> <Rank>
25

> <Priority_score>
0.036

> <Reaction_type>
oxidation of 4-substituted phenol to quinone

> <Parent_ID>
79

> <Parent_InChI>
InChI=1S/C42H38O20/c43-11-23-31(47)35(51)37(53)41(61-23)59-21-5-1-3-15-25(17-7-13(39(55)56)9-19(45)27(17)33(49)29(15)21)26-16-4-2-6-22(60-42-38(54)36(52)32(48)24(12-44)62-42)30(16)34(50)28-18(26)8-14(40(57)58)10-20(28)46/h1-10,23-26,31-32,35-38,41-48,51-54H,11-12H2,(H,55,56)(H,57,58)

> <Parent_SMILES>
O=C(O)c1cc(O)c2c(c1)C(C1c3cc(C(=O)O)cc(O)c3C(=O)c3c(OC4OC(CO)C(O)C(O)C4O)cccc31)c1cccc(OC3OC(CO)C(O)C(O)C3O)c1C2=O

$$$$
Molecule 79_metabolite 26
  CDK     0516241031

 98105  0  0  0  0  0  0  0  0999 V2000
  -13.6719   -5.0956    0.0000 C   0  0  0  0  0  0  0  0  0  0  0  0
  -13.6717   -6.5956    0.0000 H   0  0  0  0  0  0  0  0  0  0  0  0
  -14.9710   -4.3456    0.0000 C   0  0  0  0  0  0  0  0  0  0  0  0
  -16.2701   -5.0954    0.0000 H   0  0  0  0  0  0  0  0  0  0  0  0
  -14.9705   -2.8447    0.0000 C   0  0  0  0  0  0  0  0  0  0  0  0
  -13.6710   -2.0939    0.0000 C   0  0  0  0  0  0  0  0  0  0  0  0
  -12.3719   -2.8439    0.0000 C   0  0  0  0  0  0  0  0  0  0  0  0
  -12.3724   -4.3447    0.0000 C   0  0  0  0  0  0  0  0  0  0  0  0
  -11.0734   -5.0947    0.0000 H   0  0  0  0  0  0  0  0  0  0  0  0
  -11.0724   -2.0931    0.0000 C   0  0  0  0  0  0  0  0  0  0  0  0
  -10.5592   -3.5025    0.0000 H   0  0  0  0  0  0  0  0  0  0  0  0
  -11.0719   -0.5922    0.0000 C   0  0  0  0  0  0  0  0  0  0  0  0
   -9.7724    0.1586    0.0000 C   0  0  0  0  0  0  0  0  0  0  0  0
   -8.4734   -0.5914    0.0000 H   0  0  0  0  0  0  0  0  0  0  0  0
   -9.7719    1.6594    0.0000 C   0  0  0  0  0  0  0  0  0  0  0  0
  -11.0710    2.4094    0.0000 C   0  0  0  0  0  0  0  0  0  0  0  0
  -11.0712    3.9094    0.0000 H   0  0  0  0  0  0  0  0  0  0  0  0
  -12.3705    1.6586    0.0000 C   0  0  0  0  0  0  0  0  0  0  0  0
  -12.3710    0.1578    0.0000 C   0  0  0  0  0  0  0  0  0  0  0  0
  -13.6705   -0.5931    0.0000 C   0  0  0  0  0  0  0  0  0  0  0  0
  -14.9695    0.1569    0.0000 O   0  0  0  0  0  0  0  0  0  0  0  0
  -13.6695    2.4086    0.0000 O   0  0  0  0  0  0  0  0  0  0  0  0
  -13.6695    3.9086    0.0000 H   0  0  0  0  0  0  0  0  0  0  0  0
   -8.4728    2.4092    0.0000 C   0  0  0  0  0  0  0  0  0  0  0  0
   -7.1739    1.6590    0.0000 O   0  0  0  0  0  0  0  0  0  0  0  0
   -8.4725    3.9092    0.0000 O   0  0  0  0  0  0  0  0  0  0  0  0
   -7.1734    4.6590    0.0000 H   0  0  0  0  0  0  0  0  0  0  0  0
   -8.6497   -1.6661    0.0000 C   0  0  0  0  0  0  0  0  0  0  0  0
   -9.1629   -0.2567    0.0000 H   0  0  0  0  0  0  0  0  0  0  0  0
   -8.6502   -3.1670    0.0000 C   0  0  0  0  0  0  0  0  0  0  0  0
   -9.9497   -3.9178    0.0000 C   0  0  0  0  0  0  0  0  0  0  0  0
  -11.2488   -3.1678    0.0000 H   0  0  0  0  0  0  0  0  0  0  0  0
   -9.9502   -5.4186    0.0000 C   0  0  0  0  0  0  0  0  0  0  0  0
  -11.2494   -6.1684    0.0000 H   0  0  0  0  0  0  0  0  0  0  0  0
   -8.6512   -6.1686    0.0000 C   0  0  0  0  0  0  0  0  0  0  0  0
   -8.6509   -7.6686    0.0000 H   0  0  0  0  0  0  0  0  0  0  0  0
   -7.3517   -5.4178    0.0000 C   0  0  0  0  0  0  0  0  0  0  0  0
   -7.3512   -3.9170    0.0000 C   0  0  0  0  0  0  0  0  0  0  0  0
   -6.0517   -3.1661    0.0000 C   0  0  0  0  0  0  0  0  0  0  0  0
   -4.7526   -3.9161    0.0000 O   0  0  0  0  0  0  0  0  0  0  0  0
   -6.0512   -1.6653    0.0000 C   0  0  0  0  0  0  0  0  0  0  0  0
   -4.7517   -0.9145    0.0000 C   0  0  0  0  0  0  0  0  0  0  0  0
   -4.7512    0.5864    0.0000 C   0  0  0  0  0  0  0  0  0  0  0  0
   -3.4520    1.3361    0.0000 H   0  0  0  0  0  0  0  0  0  0  0  0
   -6.0502    1.3364    0.0000 C   0  0  0  0  0  0  0  0  0  0  0  0
   -7.3497    0.5855    0.0000 C   0  0  0  0  0  0  0  0  0  0  0  0
   -8.6488    1.3355    0.0000 H   0  0  0  0  0  0  0  0  0  0  0  0
   -7.3502   -0.9153    0.0000 C   0  0  0  0  0  0  0  0  0  0  0  0
   -6.0505    2.8364    0.0000 C   0  0  0  0  0  0  0  0  0  0  0  0
   -7.3496    3.5861    0.0000 O   0  0  0  0  0  0  0  0  0  0  0  0
   -4.7515    3.5866    0.0000 O   0  0  0  0  0  0  0  0  0  0  0  0
   -4.7518    5.0866    0.0000 H   0  0  0  0  0  0  0  0  0  0  0  0
   -3.4526   -1.6645    0.0000 O   0  0  0  0  0  0  0  0  0  0  0  0
   -2.1536   -0.9145    0.0000 H   0  0  0  0  0  0  0  0  0  0  0  0
   -6.0526   -6.1678    0.0000 O   0  0  0  0  0  0  0  0  0  0  0  0
   -6.0526   -7.6678    0.0000 C   0  0  0  0  0  0  0  0  0  0  0  0
   -7.5304   -7.4107    0.0000 H   0  0  0  0  0  0  0  0  0  0  0  0
   -4.5847   -7.4125    0.0000 C   0  0  0  0  0  0  0  0  0  0  0  0
   -4.0676   -6.0044    0.0000 O   0  0  0  0  0  0  0  0  0  0  0  0
   -3.6097   -8.5827    0.0000 C   0  0  0  0  0  0  0  0  0  0  0  0
   -2.3154   -9.3409    0.0000 H   0  0  0  0  0  0  0  0  0  0  0  0
   -4.1356   -9.9937    0.0000 C   0  0  0  0  0  0  0  0  0  0  0  0
   -4.1418  -11.4937    0.0000 H   0  0  0  0  0  0  0  0  0  0  0  0
   -5.6036  -10.2491    0.0000 C   0  0  0  0  0  0  0  0  0  0  0  0
   -6.9045  -10.9958    0.0000 H   0  0  0  0  0  0  0  0  0  0  0  0
   -4.7678  -12.5627    0.0000 C   0  0  0  0  0  0  0  0  0  0  0  0
   -4.7714  -14.0627    0.0000 H   0  0  0  0  0  0  0  0  0  0  0  0
   -6.2456  -12.8196    0.0000 H   0  0  0  0  0  0  0  0  0  0  0  0
   -3.2912  -12.8267    0.0000 O   0  0  0  0  0  0  0  0  0  0  0  0
   -2.7816  -14.2375    0.0000 H   0  0  0  0  0  0  0  0  0  0  0  0
   -6.5653   -9.0968    0.0000 O   0  0  0  0  0  0  0  0  0  0  0  0
   -2.6600  -10.2629    0.0000 O   0  0  0  0  0  0  0  0  0  0  0  0
   -2.1553  -11.6755    0.0000 H   0  0  0  0  0  0  0  0  0  0  0  0
   -2.6399   -7.4384    0.0000 O   0  0  0  0  0  0  0  0  0  0  0  0
   -1.1640   -7.7061    0.0000 H   0  0  0  0  0  0  0  0  0  0  0  0
  -16.2695   -2.0947    0.0000 O   0  0  0  0  0  0  0  0  0  0  0  0
  -17.5686   -2.8447    0.0000 C   0  0  0  0  0  0  0  0  0  0  0  0
  -16.6070   -3.9960    0.0000 H   0  0  0  0  0  0  0  0  0  0  0  0
  -18.0814   -1.4458    0.0000 C   0  0  0  0  0  0  0  0  0  0  0  0
  -18.0860    0.0542    0.0000 H   0  0  0  0  0  0  0  0  0  0  0  0
  -19.5823   -1.1865    0.0000 C   0  0  0  0  0  0  0  0  0  0  0  0
  -20.8861   -0.4447    0.0000 H   0  0  0  0  0  0  0  0  0  0  0  0
  -20.5413   -2.3475    0.0000 C   0  0  0  0  0  0  0  0  0  0  0  0
  -21.8373   -3.1029    0.0000 H   0  0  0  0  0  0  0  0  0  0  0  0
  -20.0285   -3.7465    0.0000 C   0  0  0  0  0  0  0  0  0  0  0  0
  -20.0247   -5.2465    0.0000 H   0  0  0  0  0  0  0  0  0  0  0  0
  -22.4501   -4.1795    0.0000 C   0  0  0  0  0  0  0  0  0  0  0  0
  -23.7473   -4.9326    0.0000 H   0  0  0  0  0  0  0  0  0  0  0  0
  -21.9337   -5.5878    0.0000 H   0  0  0  0  0  0  0  0  0  0  0  0
  -23.4170   -3.0328    0.0000 O   0  0  0  0  0  0  0  0  0  0  0  0
  -24.8936   -3.2968    0.0000 H   0  0  0  0  0  0  0  0  0  0  0  0
  -18.5498   -4.0032    0.0000 O   0  0  0  0  0  0  0  0  0  0  0  0
  -21.5123   -1.2042    0.0000 O   0  0  0  0  0  0  0  0  0  0  0  0
  -22.9879   -1.4734    0.0000 H   0  0  0  0  0  0  0  0  0  0  0  0
  -19.0762    0.2255    0.0000 O   0  0  0  0  0  0  0  0  0  0  0  0
  -20.0460    1.3698    0.0000 H   0  0  0  0  0  0  0  0  0  0  0  0
  -16.6049   -1.1813    0.0000 O   0  0  0  0  0  0  0  0  0  0  0  0
  -16.0957    0.2296    0.0000 H   0  0  0  0  0  0  0  0  0  0  0  0
  1  2  1  0  0  0  0 
  1  3  2  0  0  0  0 
  3  4  1  0  0  0  0 
  3  5  1  0  0  0  0 
  5  6  2  0  0  0  0 
  6  7  1  0  0  0  0 
  7  8  2  0  0  0  0 
  1  8  1  0  0  0  0 
  8  9  1  0  0  0  0 
  7 10  1  0  0  0  0 
 10 11  1  0  0  0  0 
 10 12  1  0  0  0  0 
 12 13  2  0  0  0  0 
 13 14  1  0  0  0  0 
 13 15  1  0  0  0  0 
 15 16  2  0  0  0  0 
 16 17  1  0  0  0  0 
 16 18  1  0  0  0  0 
 18 19  2  0  0  0  0 
 12 19  1  0  0  0  0 
 19 20  1  0  0  0  0 
  6 20  1  0  0  0  0 
 20 21  2  0  0  0  0 
 18 22  1  0  0  0  0 
 22 23  1  0  0  0  0 
 15 24  1  0  0  0  0 
 24 25  2  0  0  0  0 
 24 26  1  0  0  0  0 
 26 27  1  0  0  0  0 
 10 28  1  0  0  0  0 
 28 29  1  0  0  0  0 
 28 30  1  0  0  0  0 
 30 31  2  0  0  0  0 
 31 32  1  0  0  0  0 
 31 33  1  0  0  0  0 
 33 34  1  0  0  0  0 
 33 35  2  0  0  0  0 
 35 36  1  0  0  0  0 
 35 37  1  0  0  0  0 
 37 38  2  0  0  0  0 
 30 38  1  0  0  0  0 
 38 39  1  0  0  0  0 
 39 40  2  0  0  0  0 
 39 41  1  0  0  0  0 
 41 42  2  0  0  0  0 
 42 43  1  0  0  0  0 
 43 44  1  0  0  0  0 
 43 45  2  0  0  0  0 
 45 46  1  0  0  0  0 
 46 47  1  0  0  0  0 
 46 48  2  0  0  0  0 
 28 48  1  0  0  0  0 
 41 48  1  0  0  0  0 
 45 49  1  0  0  0  0 
 49 50  2  0  0  0  0 
 49 51  1  0  0  0  0 
 51 52  1  0  0  0  0 
 42 53  1  0  0  0  0 
 53 54  1  0  0  0  0 
 37 55  1  0  0  0  0 
 55 56  1  0  0  0  0 
 56 57  1  0  0  0  0 
 56 58  1  0  0  0  0 
 58 59  2  0  0  0  0 
 58 60  1  0  0  0  0 
 60 61  1  0  0  0  0 
 60 62  1  0  0  0  0 
 62 63  1  0  0  0  0 
 62 64  1  0  0  0  0 
 64 65  1  0  0  0  0 
 64 66  1  0  0  0  0 
 66 67  1  0  0  0  0 
 66 68  1  0  0  0  0 
 66 69  1  0  0  0  0 
 69 70  1  0  0  0  0 
 64 71  1  0  0  0  0 
 56 71  1  0  0  0  0 
 62 72  1  0  0  0  0 
 72 73  1  0  0  0  0 
 60 74  1  0  0  0  0 
 74 75  1  0  0  0  0 
  5 76  1  0  0  0  0 
 76 77  1  0  0  0  0 
 77 78  1  0  0  0  0 
 77 79  1  0  0  0  0 
 79 80  1  0  0  0  0 
 79 81  1  0  0  0  0 
 81 82  1  0  0  0  0 
 81 83  1  0  0  0  0 
 83 84  1  0  0  0  0 
 83 85  1  0  0  0  0 
 85 86  1  0  0  0  0 
 85 87  1  0  0  0  0 
 87 88  1  0  0  0  0 
 87 89  1  0  0  0  0 
 87 90  1  0  0  0  0 
 90 91  1  0  0  0  0 
 85 92  1  0  0  0  0 
 77 92  1  0  0  0  0 
 83 93  1  0  0  0  0 
 93 94  1  0  0  0  0 
 81 95  1  0  0  0  0 
 95 96  1  0  0  0  0 
 79 97  1  0  0  0  0 
 97 98  1  0  0  0  0 
M  END
> <Rank>
26

> <Priority_score>
0.024

> <Reaction_type>
alcohol oxidation

> <Parent_ID>
79

> <Parent_InChI>
InChI=1S/C42H38O20/c43-11-23-31(47)35(51)37(53)41(61-23)59-21-5-1-3-15-25(17-7-13(39(55)56)9-19(45)27(17)33(49)29(15)21)26-16-4-2-6-22(60-42-38(54)36(52)32(48)24(12-44)62-42)30(16)34(50)28-18(26)8-14(40(57)58)10-20(28)46/h1-10,23-26,31-32,35-38,41-48,51-54H,11-12H2,(H,55,56)(H,57,58)

> <Parent_SMILES>
O=C(O)c1cc(O)c2c(c1)C(C1c3cc(C(=O)O)cc(O)c3C(=O)c3c(OC4OC(CO)C(O)C(O)C4O)cccc31)c1cccc(OC3OC(CO)C(O)C(O)C3O)c1C2=O

$$$$
Molecule 79_metabolite 27
  CDK     0516241031

101108  0  0  0  0  0  0  0  0999 V2000
  -10.8413    3.0154    0.0000 C   0  0  0  0  0  0  0  0  0  0  0  0
  -10.3283    4.4250    0.0000 H   0  0  0  0  0  0  0  0  0  0  0  0
  -12.3184    2.7547    0.0000 C   0  0  0  0  0  0  0  0  0  0  0  0
  -13.2831    3.9034    0.0000 H   0  0  0  0  0  0  0  0  0  0  0  0
  -12.8310    1.3441    0.0000 C   0  0  0  0  0  0  0  0  0  0  0  0
  -11.8664    0.1942    0.0000 C   0  0  0  0  0  0  0  0  0  0  0  0
  -10.3893    0.4550    0.0000 C   0  0  0  0  0  0  0  0  0  0  0  0
   -9.8767    1.8656    0.0000 C   0  0  0  0  0  0  0  0  0  0  0  0
   -8.3995    2.1264    0.0000 H   0  0  0  0  0  0  0  0  0  0  0  0
   -9.4247   -0.6948    0.0000 C   0  0  0  0  0  0  0  0  0  0  0  0
   -8.4606    0.4544    0.0000 H   0  0  0  0  0  0  0  0  0  0  0  0
   -9.9372   -2.1054    0.0000 C   0  0  0  0  0  0  0  0  0  0  0  0
   -8.9726   -3.2552    0.0000 C   0  0  0  0  0  0  0  0  0  0  0  0
   -7.4955   -2.9944    0.0000 H   0  0  0  0  0  0  0  0  0  0  0  0
   -9.4852   -4.6658    0.0000 C   0  0  0  0  0  0  0  0  0  0  0  0
  -10.9623   -4.9266    0.0000 C   0  0  0  0  0  0  0  0  0  0  0  0
  -11.4753   -6.3361    0.0000 H   0  0  0  0  0  0  0  0  0  0  0  0
  -11.9269   -3.7768    0.0000 C   0  0  0  0  0  0  0  0  0  0  0  0
  -11.4144   -2.3662    0.0000 C   0  0  0  0  0  0  0  0  0  0  0  0
  -12.3790   -1.2163    0.0000 C   0  0  0  0  0  0  0  0  0  0  0  0
  -13.8561   -1.4771    0.0000 O   0  0  0  0  0  0  0  0  0  0  0  0
  -13.4041   -4.0375    0.0000 O   0  0  0  0  0  0  0  0  0  0  0  0
  -13.9168   -5.4472    0.0000 H   0  0  0  0  0  0  0  0  0  0  0  0
   -8.5206   -5.8145    0.0000 C   0  0  0  0  0  0  0  0  0  0  0  0
   -7.0435   -5.5535    0.0000 O   0  0  0  0  0  0  0  0  0  0  0  0
   -9.0331   -7.2242    0.0000 O   0  0  0  0  0  0  0  0  0  0  0  0
   -8.0685   -8.3729    0.0000 H   0  0  0  0  0  0  0  0  0  0  0  0
   -7.2938   -1.9241    0.0000 C   0  0  0  0  0  0  0  0  0  0  0  0
   -8.2579   -3.0733    0.0000 H   0  0  0  0  0  0  0  0  0  0  0  0
   -6.7813   -0.5135    0.0000 C   0  0  0  0  0  0  0  0  0  0  0  0
   -7.7459    0.6363    0.0000 C   0  0  0  0  0  0  0  0  0  0  0  0
   -9.2230    0.3755    0.0000 H   0  0  0  0  0  0  0  0  0  0  0  0
   -7.2333    2.0469    0.0000 C   0  0  0  0  0  0  0  0  0  0  0  0
   -8.1979    3.1956    0.0000 H   0  0  0  0  0  0  0  0  0  0  0  0
   -5.7562    2.3077    0.0000 C   0  0  0  0  0  0  0  0  0  0  0  0
   -5.2432    3.7173    0.0000 H   0  0  0  0  0  0  0  0  0  0  0  0
   -4.7916    1.1579    0.0000 C   0  0  0  0  0  0  0  0  0  0  0  0
   -5.3041   -0.2527    0.0000 C   0  0  0  0  0  0  0  0  0  0  0  0
   -4.3395   -1.4025    0.0000 C   0  0  0  0  0  0  0  0  0  0  0  0
   -2.8624   -1.1417    0.0000 O   0  0  0  0  0  0  0  0  0  0  0  0
   -4.8521   -2.8131    0.0000 C   0  0  0  0  0  0  0  0  0  0  0  0
   -3.8875   -3.9629    0.0000 C   0  0  0  0  0  0  0  0  0  0  0  0
   -4.4001   -5.3735    0.0000 C   0  0  0  0  0  0  0  0  0  0  0  0
   -3.4355   -6.5222    0.0000 H   0  0  0  0  0  0  0  0  0  0  0  0
   -5.8772   -5.6343    0.0000 C   0  0  0  0  0  0  0  0  0  0  0  0
   -6.8418   -4.4845    0.0000 C   0  0  0  0  0  0  0  0  0  0  0  0
   -8.3190   -4.7453    0.0000 H   0  0  0  0  0  0  0  0  0  0  0  0
   -6.3293   -3.0739    0.0000 C   0  0  0  0  0  0  0  0  0  0  0  0
   -6.3902   -7.0439    0.0000 C   0  0  0  0  0  0  0  0  0  0  0  0
   -7.8674   -7.3044    0.0000 O   0  0  0  0  0  0  0  0  0  0  0  0
   -5.4259   -8.1929    0.0000 O   0  0  0  0  0  0  0  0  0  0  0  0
   -5.9389   -9.6024    0.0000 H   0  0  0  0  0  0  0  0  0  0  0  0
   -2.4103   -3.7021    0.0000 O   0  0  0  0  0  0  0  0  0  0  0  0
   -1.4459   -4.8510    0.0000 H   0  0  0  0  0  0  0  0  0  0  0  0
   -3.3144    1.4187    0.0000 O   0  0  0  0  0  0  0  0  0  0  0  0
   -2.8017    2.8283    0.0000 C   0  0  0  0  0  0  0  0  0  0  0  0
   -4.2789    3.0886    0.0000 H   0  0  0  0  0  0  0  0  0  0  0  0
   -2.8017    4.3283    0.0000 C   0  0  0  0  0  0  0  0  0  0  0  0
   -1.5017    5.0783    0.0000 C   0  0  0  0  0  0  0  0  0  0  0  0
   -2.4657    6.2275    0.0000 H   0  0  0  0  0  0  0  0  0  0  0  0
   -0.2017    4.3283    0.0000 C   0  0  0  0  0  0  0  0  0  0  0  0
    0.3110    5.7380    0.0000 H   0  0  0  0  0  0  0  0  0  0  0  0
   -0.2017    2.8283    0.0000 C   0  0  0  0  0  0  0  0  0  0  0  0
    1.2756    3.0886    0.0000 H   0  0  0  0  0  0  0  0  0  0  0  0
    0.3110    1.4187    0.0000 C   0  0  0  0  0  0  0  0  0  0  0  0
    0.3107   -0.0813    0.0000 H   0  0  0  0  0  0  0  0  0  0  0  0
   -1.1662    1.1585    0.0000 H   0  0  0  0  0  0  0  0  0  0  0  0
    1.7882    1.1579    0.0000 O   0  0  0  0  0  0  0  0  0  0  0  0
    2.7526    2.3068    0.0000 H   0  0  0  0  0  0  0  0  0  0  0  0
   -1.5017    2.0783    0.0000 O   0  0  0  0  0  0  0  0  0  0  0  0
    1.2756    4.0680    0.0000 O   0  0  0  0  0  0  0  0  0  0  0  0
    2.2396    5.2172    0.0000 H   0  0  0  0  0  0  0  0  0  0  0  0
   -0.5376    6.2275    0.0000 O   0  0  0  0  0  0  0  0  0  0  0  0
   -1.0508    7.6370    0.0000 H   0  0  0  0  0  0  0  0  0  0  0  0
   -4.2789    4.0680    0.0000 O   0  0  0  0  0  0  0  0  0  0  0  0
   -5.2430    5.2172    0.0000 H   0  0  0  0  0  0  0  0  0  0  0  0
   -3.3144    5.7380    0.0000 O   0  0  0  0  0  0  0  0  0  0  0  0
   -4.7916    5.9988    0.0000 H   0  0  0  0  0  0  0  0  0  0  0  0
  -14.3082    1.0833    0.0000 O   0  0  0  0  0  0  0  0  0  0  0  0
  -15.2726    2.2321    0.0000 C   0  0  0  0  0  0  0  0  0  0  0  0
  -13.9754    2.9854    0.0000 H   0  0  0  0  0  0  0  0  0  0  0  0
  -16.2327    1.0927    0.0000 C   0  0  0  0  0  0  0  0  0  0  0  0
  -16.7498   -0.3153    0.0000 H   0  0  0  0  0  0  0  0  0  0  0  0
  -17.7319    1.3621    0.0000 C   0  0  0  0  0  0  0  0  0  0  0  0
  -19.2106    1.1107    0.0000 H   0  0  0  0  0  0  0  0  0  0  0  0
  -18.2362    2.7810    0.0000 C   0  0  0  0  0  0  0  0  0  0  0  0
  -19.1959    3.9338    0.0000 H   0  0  0  0  0  0  0  0  0  0  0  0
  -17.2761    3.9204    0.0000 C   0  0  0  0  0  0  0  0  0  0  0  0
  -16.7598    5.3288    0.0000 H   0  0  0  0  0  0  0  0  0  0  0  0
  -19.4038    5.1551    0.0000 C   0  0  0  0  0  0  0  0  0  0  0  0
  -20.3655    6.3063    0.0000 H   0  0  0  0  0  0  0  0  0  0  0  0
  -18.4371    6.3020    0.0000 H   0  0  0  0  0  0  0  0  0  0  0  0
  -20.7045    4.4079    0.0000 O   0  0  0  0  0  0  0  0  0  0  0  0
  -22.0019    5.1608    0.0000 H   0  0  0  0  0  0  0  0  0  0  0  0
  -15.7987    3.6562    0.0000 O   0  0  0  0  0  0  0  0  0  0  0  0
  -19.5395    2.0384    0.0000 O   0  0  0  0  0  0  0  0  0  0  0  0
  -20.8343    2.7958    0.0000 H   0  0  0  0  0  0  0  0  0  0  0  0
  -17.7389   -0.1378    0.0000 O   0  0  0  0  0  0  0  0  0  0  0  0
  -19.0414   -0.8817    0.0000 H   0  0  0  0  0  0  0  0  0  0  0  0
  -14.9356    0.3395    0.0000 O   0  0  0  0  0  0  0  0  0  0  0  0
  -14.9393   -1.1605    0.0000 H   0  0  0  0  0  0  0  0  0  0  0  0
  1  2  1  0  0  0  0 
  1  3  2  0  0  0  0 
  3  4  1  0  0  0  0 
  3  5  1  0  0  0  0 
  5  6  2  0  0  0  0 
  6  7  1  0  0  0  0 
  7  8  2  0  0  0  0 
  1  8  1  0  0  0  0 
  8  9  1  0  0  0  0 
  7 10  1  0  0  0  0 
 10 11  1  0  0  0  0 
 10 12  1  0  0  0  0 
 12 13  2  0  0  0  0 
 13 14  1  0  0  0  0 
 13 15  1  0  0  0  0 
 15 16  2  0  0  0  0 
 16 17  1  0  0  0  0 
 16 18  1  0  0  0  0 
 18 19  2  0  0  0  0 
 12 19  1  0  0  0  0 
 19 20  1  0  0  0  0 
  6 20  1  0  0  0  0 
 20 21  2  0  0  0  0 
 18 22  1  0  0  0  0 
 22 23  1  0  0  0  0 
 15 24  1  0  0  0  0 
 24 25  2  0  0  0  0 
 24 26  1  0  0  0  0 
 26 27  1  0  0  0  0 
 10 28  1  0  0  0  0 
 28 29  1  0  0  0  0 
 28 30  1  0  0  0  0 
 30 31  2  0  0  0  0 
 31 32  1  0  0  0  0 
 31 33  1  0  0  0  0 
 33 34  1  0  0  0  0 
 33 35  2  0  0  0  0 
 35 36  1  0  0  0  0 
 35 37  1  0  0  0  0 
 37 38  2  0  0  0  0 
 30 38  1  0  0  0  0 
 38 39  1  0  0  0  0 
 39 40  2  0  0  0  0 
 39 41  1  0  0  0  0 
 41 42  2  0  0  0  0 
 42 43  1  0  0  0  0 
 43 44  1  0  0  0  0 
 43 45  2  0  0  0  0 
 45 46  1  0  0  0  0 
 46 47  1  0  0  0  0 
 46 48  2  0  0  0  0 
 28 48  1  0  0  0  0 
 41 48  1  0  0  0  0 
 45 49  1  0  0  0  0 
 49 50  2  0  0  0  0 
 49 51  1  0  0  0  0 
 51 52  1  0  0  0  0 
 42 53  1  0  0  0  0 
 53 54  1  0  0  0  0 
 37 55  1  0  0  0  0 
 55 56  1  0  0  0  0 
 56 57  1  0  0  0  0 
 56 58  1  0  0  0  0 
 58 59  1  0  0  0  0 
 59 60  1  0  0  0  0 
 59 61  1  0  0  0  0 
 61 62  1  0  0  0  0 
 61 63  1  0  0  0  0 
 63 64  1  0  0  0  0 
 63 65  1  0  0  0  0 
 65 66  1  0  0  0  0 
 65 67  1  0  0  0  0 
 65 68  1  0  0  0  0 
 68 69  1  0  0  0  0 
 63 70  1  0  0  0  0 
 56 70  1  0  0  0  0 
 61 71  1  0  0  0  0 
 71 72  1  0  0  0  0 
 59 73  1  0  0  0  0 
 73 74  1  0  0  0  0 
 58 75  1  0  0  0  0 
 75 76  1  0  0  0  0 
 58 77  1  0  0  0  0 
 77 78  1  0  0  0  0 
  5 79  1  0  0  0  0 
 79 80  1  0  0  0  0 
 80 81  1  0  0  0  0 
 80 82  1  0  0  0  0 
 82 83  1  0  0  0  0 
 82 84  1  0  0  0  0 
 84 85  1  0  0  0  0 
 84 86  1  0  0  0  0 
 86 87  1  0  0  0  0 
 86 88  1  0  0  0  0 
 88 89  1  0  0  0  0 
 88 90  1  0  0  0  0 
 90 91  1  0  0  0  0 
 90 92  1  0  0  0  0 
 90 93  1  0  0  0  0 
 93 94  1  0  0  0  0 
 88 95  1  0  0  0  0 
 80 95  1  0  0  0  0 
 86 96  1  0  0  0  0 
 96 97  1  0  0  0  0 
 84 98  1  0  0  0  0 
 98 99  1  0  0  0  0 
 82100  1  0  0  0  0 
100101  1  0  0  0  0 
M  END
> <Rank>
26

> <Priority_score>
0.024

> <Reaction_type>
aliphatic hydroxylation

> <Parent_ID>
79

> <Parent_InChI>
InChI=1S/C42H38O20/c43-11-23-31(47)35(51)37(53)41(61-23)59-21-5-1-3-15-25(17-7-13(39(55)56)9-19(45)27(17)33(49)29(15)21)26-16-4-2-6-22(60-42-38(54)36(52)32(48)24(12-44)62-42)30(16)34(50)28-18(26)8-14(40(57)58)10-20(28)46/h1-10,23-26,31-32,35-38,41-48,51-54H,11-12H2,(H,55,56)(H,57,58)

> <Parent_SMILES>
O=C(O)c1cc(O)c2c(c1)C(C1c3cc(C(=O)O)cc(O)c3C(=O)c3c(OC4OC(CO)C(O)C(O)C4O)cccc31)c1cccc(OC3OC(CO)C(O)C(O)C3O)c1C2=O

$$$$
Molecule 79_metabolite 28
  CDK     0516241031

 98105  0  0  0  0  0  0  0  0999 V2000
   -1.7620  -10.9768    0.0000 C   0  0  0  0  0  0  0  0  0  0  0  0
   -0.4630  -10.2266    0.0000 H   0  0  0  0  0  0  0  0  0  0  0  0
   -3.0620  -10.2268    0.0000 C   0  0  0  0  0  0  0  0  0  0  0  0
   -3.0620   -8.7268    0.0000 H   0  0  0  0  0  0  0  0  0  0  0  0
   -4.3620  -10.9768    0.0000 C   0  0  0  0  0  0  0  0  0  0  0  0
   -4.3620  -12.4768    0.0000 C   0  0  0  0  0  0  0  0  0  0  0  0
   -3.0620  -13.2268    0.0000 C   0  0  0  0  0  0  0  0  0  0  0  0
   -1.7620  -12.4768    0.0000 C   0  0  0  0  0  0  0  0  0  0  0  0
   -0.4630  -13.2270    0.0000 H   0  0  0  0  0  0  0  0  0  0  0  0
   -3.0620  -14.7268    0.0000 O   0  0  0  0  0  0  0  0  0  0  0  0
   -1.7629  -15.4768    0.0000 C   0  0  0  0  0  0  0  0  0  0  0  0
   -1.2466  -14.0684    0.0000 H   0  0  0  0  0  0  0  0  0  0  0  0
   -2.7180  -16.6204    0.0000 C   0  0  0  0  0  0  0  0  0  0  0  0
   -4.0148  -17.3744    0.0000 H   0  0  0  0  0  0  0  0  0  0  0  0
   -2.1921  -18.0499    0.0000 C   0  0  0  0  0  0  0  0  0  0  0  0
   -2.1826  -19.5498    0.0000 H   0  0  0  0  0  0  0  0  0  0  0  0
   -0.7071  -18.2999    0.0000 C   0  0  0  0  0  0  0  0  0  0  0  0
    0.5950  -19.0445    0.0000 H   0  0  0  0  0  0  0  0  0  0  0  0
    0.2480  -17.1563    0.0000 C   0  0  0  0  0  0  0  0  0  0  0  0
    1.5451  -16.4030    0.0000 H   0  0  0  0  0  0  0  0  0  0  0  0
    1.8338  -19.0369    0.0000 C   0  0  0  0  0  0  0  0  0  0  0  0
    3.1346  -19.7838    0.0000 H   0  0  0  0  0  0  0  0  0  0  0  0
    2.7952  -17.8856    0.0000 H   0  0  0  0  0  0  0  0  0  0  0  0
    1.3241  -20.4477    0.0000 O   0  0  0  0  0  0  0  0  0  0  0  0
    2.2911  -21.5944    0.0000 H   0  0  0  0  0  0  0  0  0  0  0  0
   -0.2690  -15.7473    0.0000 O   0  0  0  0  0  0  0  0  0  0  0  0
   -1.2118  -19.7124    0.0000 O   0  0  0  0  0  0  0  0  0  0  0  0
   -0.2408  -20.8558    0.0000 H   0  0  0  0  0  0  0  0  0  0  0  0
   -3.6680  -18.3176    0.0000 O   0  0  0  0  0  0  0  0  0  0  0  0
   -4.1741  -19.7296    0.0000 H   0  0  0  0  0  0  0  0  0  0  0  0
   -3.6853  -15.4739    0.0000 O   0  0  0  0  0  0  0  0  0  0  0  0
   -5.1618  -15.7384    0.0000 H   0  0  0  0  0  0  0  0  0  0  0  0
   -5.6620  -13.2268    0.0000 C   0  0  0  0  0  0  0  0  0  0  0  0
   -5.6620  -14.7268    0.0000 O   0  0  0  0  0  0  0  0  0  0  0  0
   -6.9620  -12.4768    0.0000 C   0  0  0  0  0  0  0  0  0  0  0  0
   -6.9620  -10.9768    0.0000 C   0  0  0  0  0  0  0  0  0  0  0  0
   -8.2620  -10.2268    0.0000 C   0  0  0  0  0  0  0  0  0  0  0  0
   -8.2620   -8.7268    0.0000 H   0  0  0  0  0  0  0  0  0  0  0  0
   -9.5620  -10.9768    0.0000 C   0  0  0  0  0  0  0  0  0  0  0  0
   -9.5620  -12.4768    0.0000 C   0  0  0  0  0  0  0  0  0  0  0  0
  -10.8609  -13.2270    0.0000 H   0  0  0  0  0  0  0  0  0  0  0  0
   -8.2620  -13.2268    0.0000 C   0  0  0  0  0  0  0  0  0  0  0  0
   -8.2620  -14.7268    0.0000 O   0  0  0  0  0  0  0  0  0  0  0  0
   -9.5610  -15.4768    0.0000 H   0  0  0  0  0  0  0  0  0  0  0  0
  -11.6922   -9.7465    0.0000 C   0  0  0  0  0  0  0  0  0  0  0  0
  -11.6919   -8.2465    0.0000 O   0  0  0  0  0  0  0  0  0  0  0  0
  -12.9913  -10.4963    0.0000 O   0  0  0  0  0  0  0  0  0  0  0  0
  -14.2903   -9.7460    0.0000 H   0  0  0  0  0  0  0  0  0  0  0  0
   -5.6620  -10.2268    0.0000 C   0  0  0  0  0  0  0  0  0  0  0  0
   -5.6620   -7.7668    0.0000 C   0  0  0  0  0  0  0  0  0  0  0  0
   -6.9620   -7.0168    0.0000 C   0  0  0  0  0  0  0  0  0  0  0  0
   -8.2620   -7.7668    0.0000 C   0  0  0  0  0  0  0  0  0  0  0  0
   -9.0120   -9.0658    0.0000 H   0  0  0  0  0  0  0  0  0  0  0  0
   -9.5620   -7.0168    0.0000 C   0  0  0  0  0  0  0  0  0  0  0  0
  -10.8609   -7.7670    0.0000 H   0  0  0  0  0  0  0  0  0  0  0  0
   -9.5620   -5.5168    0.0000 C   0  0  0  0  0  0  0  0  0  0  0  0
  -10.8609   -4.7666    0.0000 H   0  0  0  0  0  0  0  0  0  0  0  0
   -8.2620   -4.7668    0.0000 C   0  0  0  0  0  0  0  0  0  0  0  0
   -6.9620   -5.5168    0.0000 C   0  0  0  0  0  0  0  0  0  0  0  0
   -5.6620   -4.7668    0.0000 C   0  0  0  0  0  0  0  0  0  0  0  0
   -5.6620   -3.2668    0.0000 O   0  0  0  0  0  0  0  0  0  0  0  0
   -4.3620   -5.5168    0.0000 C   0  0  0  0  0  0  0  0  0  0  0  0
   -3.0620   -4.7668    0.0000 C   0  0  0  0  0  0  0  0  0  0  0  0
   -1.7620   -5.5168    0.0000 C   0  0  0  0  0  0  0  0  0  0  0  0
   -0.4630   -4.7666    0.0000 H   0  0  0  0  0  0  0  0  0  0  0  0
   -1.7620   -7.0168    0.0000 C   0  0  0  0  0  0  0  0  0  0  0  0
   -3.0620   -7.7668    0.0000 C   0  0  0  0  0  0  0  0  0  0  0  0
   -3.0620   -9.2668    0.0000 H   0  0  0  0  0  0  0  0  0  0  0  0
   -4.3620   -7.0168    0.0000 C   0  0  0  0  0  0  0  0  0  0  0  0
   -0.4630   -7.7670    0.0000 C   0  0  0  0  0  0  0  0  0  0  0  0
   -0.4633   -9.2670    0.0000 O   0  0  0  0  0  0  0  0  0  0  0  0
    0.8361   -7.0172    0.0000 O   0  0  0  0  0  0  0  0  0  0  0  0
    0.8364   -5.5172    0.0000 H   0  0  0  0  0  0  0  0  0  0  0  0
   -3.0620   -3.2668    0.0000 O   0  0  0  0  0  0  0  0  0  0  0  0
   -1.7629   -2.5168    0.0000 H   0  0  0  0  0  0  0  0  0  0  0  0
   -8.2620   -3.2668    0.0000 O   0  0  0  0  0  0  0  0  0  0  0  0
   -9.5610   -2.5168    0.0000 C   0  0  0  0  0  0  0  0  0  0  0  0
  -10.0773   -3.9252    0.0000 H   0  0  0  0  0  0  0  0  0  0  0  0
   -8.6059   -1.3732    0.0000 C   0  0  0  0  0  0  0  0  0  0  0  0
   -7.3092   -0.6192    0.0000 H   0  0  0  0  0  0  0  0  0  0  0  0
   -9.1318    0.0563    0.0000 C   0  0  0  0  0  0  0  0  0  0  0  0
   -9.1413    1.5562    0.0000 H   0  0  0  0  0  0  0  0  0  0  0  0
  -10.6168    0.3063    0.0000 C   0  0  0  0  0  0  0  0  0  0  0  0
  -11.9189    1.0509    0.0000 H   0  0  0  0  0  0  0  0  0  0  0  0
  -11.5719   -0.8373    0.0000 C   0  0  0  0  0  0  0  0  0  0  0  0
  -12.8691   -1.5906    0.0000 H   0  0  0  0  0  0  0  0  0  0  0  0
  -13.1577    1.0433    0.0000 C   0  0  0  0  0  0  0  0  0  0  0  0
  -14.4585    1.7902    0.0000 H   0  0  0  0  0  0  0  0  0  0  0  0
  -14.1191   -0.1080    0.0000 H   0  0  0  0  0  0  0  0  0  0  0  0
  -12.6481    2.4541    0.0000 O   0  0  0  0  0  0  0  0  0  0  0  0
  -13.6150    3.6008    0.0000 H   0  0  0  0  0  0  0  0  0  0  0  0
  -11.0549   -2.2463    0.0000 O   0  0  0  0  0  0  0  0  0  0  0  0
  -10.1121    1.7188    0.0000 O   0  0  0  0  0  0  0  0  0  0  0  0
  -11.0831    2.8622    0.0000 H   0  0  0  0  0  0  0  0  0  0  0  0
   -7.6559    0.3240    0.0000 O   0  0  0  0  0  0  0  0  0  0  0  0
   -7.1498    1.7360    0.0000 H   0  0  0  0  0  0  0  0  0  0  0  0
   -7.6386   -2.5197    0.0000 O   0  0  0  0  0  0  0  0  0  0  0  0
   -6.1621   -2.2552    0.0000 H   0  0  0  0  0  0  0  0  0  0  0  0
  1  2  1  0  0  0  0 
  1  3  2  0  0  0  0 
  3  4  1  0  0  0  0 
  3  5  1  0  0  0  0 
  5  6  2  0  0  0  0 
  6  7  1  0  0  0  0 
  7  8  2  0  0  0  0 
  1  8  1  0  0  0  0 
  8  9  1  0  0  0  0 
  7 10  1  0  0  0  0 
 10 11  1  0  0  0  0 
 11 12  1  0  0  0  0 
 11 13  1  0  0  0  0 
 13 14  1  0  0  0  0 
 13 15  1  0  0  0  0 
 15 16  1  0  0  0  0 
 15 17  1  0  0  0  0 
 17 18  1  0  0  0  0 
 17 19  1  0  0  0  0 
 19 20  1  0  0  0  0 
 19 21  1  0  0  0  0 
 21 22  1  0  0  0  0 
 21 23  1  0  0  0  0 
 21 24  1  0  0  0  0 
 24 25  1  0  0  0  0 
 19 26  1  0  0  0  0 
 11 26  1  0  0  0  0 
 17 27  1  0  0  0  0 
 27 28  1  0  0  0  0 
 15 29  1  0  0  0  0 
 29 30  1  0  0  0  0 
 13 31  1  0  0  0  0 
 31 32  1  0  0  0  0 
  6 33  1  0  0  0  0 
 33 34  2  0  0  0  0 
 33 35  1  0  0  0  0 
 35 36  2  0  0  0  0 
 36 37  1  0  0  0  0 
 37 38  1  0  0  0  0 
 37 39  2  0  0  0  0 
 39 40  1  0  0  0  0 
 40 41  1  0  0  0  0 
 40 42  2  0  0  0  0 
 35 42  1  0  0  0  0 
 42 43  1  0  0  0  0 
 43 44  1  0  0  0  0 
 39 45  1  0  0  0  0 
 45 46  2  0  0  0  0 
 45 47  1  0  0  0  0 
 47 48  1  0  0  0  0 
 36 49  1  4  0  0  0 
  5 49  1  0  0  0  0 
 49 50  2  0  0  0  0 
 50 51  1  0  0  0  0 
 51 52  2  0  0  0  0 
 52 53  1  0  0  0  0 
 52 54  1  0  0  0  0 
 54 55  1  0  0  0  0 
 54 56  2  0  0  0  0 
 56 57  1  0  0  0  0 
 56 58  1  0  0  0  0 
 58 59  2  0  0  0  0 
 51 59  1  0  0  0  0 
 59 60  1  0  0  0  0 
 60 61  2  0  0  0  0 
 60 62  1  0  0  0  0 
 62 63  2  0  0  0  0 
 63 64  1  0  0  0  0 
 64 65  1  0  0  0  0 
 64 66  2  0  0  0  0 
 66 67  1  0  0  0  0 
 67 68  1  0  0  0  0 
 67 69  2  0  0  0  0 
 50 69  1  0  0  0  0 
 62 69  1  0  0  0  0 
 66 70  1  0  0  0  0 
 70 71  2  0  0  0  0 
 70 72  1  0  0  0  0 
 72 73  1  0  0  0  0 
 63 74  1  0  0  0  0 
 74 75  1  0  0  0  0 
 58 76  1  0  0  0  0 
 76 77  1  0  0  0  0 
 77 78  1  0  0  0  0 
 77 79  1  0  0  0  0 
 79 80  1  0  0  0  0 
 79 81  1  0  0  0  0 
 81 82  1  0  0  0  0 
 81 83  1  0  0  0  0 
 83 84  1  0  0  0  0 
 83 85  1  0  0  0  0 
 85 86  1  0  0  0  0 
 85 87  1  0  0  0  0 
 87 88  1  0  0  0  0 
 87 89  1  0  0  0  0 
 87 90  1  0  0  0  0 
 90 91  1  0  0  0  0 
 85 92  1  0  0  0  0 
 77 92  1  0  0  0  0 
 83 93  1  0  0  0  0 
 93 94  1  0  0  0  0 
 81 95  1  0  0  0  0 
 95 96  1  0  0  0  0 
 79 97  1  0  0  0  0 
 97 98  1  0  0  0  0 
M  END
> <Rank>
28

> <Priority_score>
0.023200000000000002

> <Reaction_type>
alkyl dehydrogenation

> <Parent_ID>
79

> <Parent_InChI>
InChI=1S/C42H38O20/c43-11-23-31(47)35(51)37(53)41(61-23)59-21-5-1-3-15-25(17-7-13(39(55)56)9-19(45)27(17)33(49)29(15)21)26-16-4-2-6-22(60-42-38(54)36(52)32(48)24(12-44)62-42)30(16)34(50)28-18(26)8-14(40(57)58)10-20(28)46/h1-10,23-26,31-32,35-38,41-48,51-54H,11-12H2,(H,55,56)(H,57,58)

> <Parent_SMILES>
O=C(O)c1cc(O)c2c(c1)C(C1c3cc(C(=O)O)cc(O)c3C(=O)c3c(OC4OC(CO)C(O)C(O)C4O)cccc31)c1cccc(OC3OC(CO)C(O)C(O)C3O)c1C2=O

$$$$
Molecule 79_metabolite 29
  CDK     0516241031

101108  0  0  0  0  0  0  0  0999 V2000
  -11.0413    2.0375    0.0000 C   0  0  0  0  0  0  0  0  0  0  0  0
  -10.5283    3.4471    0.0000 H   0  0  0  0  0  0  0  0  0  0  0  0
  -12.5184    1.7767    0.0000 C   0  0  0  0  0  0  0  0  0  0  0  0
  -13.4830    2.9254    0.0000 H   0  0  0  0  0  0  0  0  0  0  0  0
  -13.0310    0.3661    0.0000 C   0  0  0  0  0  0  0  0  0  0  0  0
  -12.0664   -0.7837    0.0000 C   0  0  0  0  0  0  0  0  0  0  0  0
  -10.5892   -0.5229    0.0000 C   0  0  0  0  0  0  0  0  0  0  0  0
  -10.0767    0.8877    0.0000 C   0  0  0  0  0  0  0  0  0  0  0  0
   -8.5995    1.1485    0.0000 H   0  0  0  0  0  0  0  0  0  0  0  0
   -9.6246   -1.6727    0.0000 C   0  0  0  0  0  0  0  0  0  0  0  0
   -8.6606   -0.5235    0.0000 H   0  0  0  0  0  0  0  0  0  0  0  0
  -10.1372   -3.0833    0.0000 C   0  0  0  0  0  0  0  0  0  0  0  0
   -9.1726   -4.2331    0.0000 C   0  0  0  0  0  0  0  0  0  0  0  0
   -7.6955   -3.9723    0.0000 H   0  0  0  0  0  0  0  0  0  0  0  0
   -9.6852   -5.6437    0.0000 C   0  0  0  0  0  0  0  0  0  0  0  0
  -11.1623   -5.9045    0.0000 C   0  0  0  0  0  0  0  0  0  0  0  0
  -11.6753   -7.3141    0.0000 H   0  0  0  0  0  0  0  0  0  0  0  0
  -12.1269   -4.7547    0.0000 C   0  0  0  0  0  0  0  0  0  0  0  0
  -11.6144   -3.3441    0.0000 C   0  0  0  0  0  0  0  0  0  0  0  0
  -12.5790   -2.1943    0.0000 C   0  0  0  0  0  0  0  0  0  0  0  0
  -14.0561   -2.4551    0.0000 O   0  0  0  0  0  0  0  0  0  0  0  0
  -13.6041   -5.0155    0.0000 O   0  0  0  0  0  0  0  0  0  0  0  0
  -14.1168   -6.4251    0.0000 H   0  0  0  0  0  0  0  0  0  0  0  0
   -8.7206   -6.7924    0.0000 C   0  0  0  0  0  0  0  0  0  0  0  0
   -7.2434   -6.5314    0.0000 O   0  0  0  0  0  0  0  0  0  0  0  0
   -9.2331   -8.2021    0.0000 O   0  0  0  0  0  0  0  0  0  0  0  0
   -8.2685   -9.3508    0.0000 H   0  0  0  0  0  0  0  0  0  0  0  0
   -7.4938   -2.9020    0.0000 C   0  0  0  0  0  0  0  0  0  0  0  0
   -8.4579   -4.0512    0.0000 H   0  0  0  0  0  0  0  0  0  0  0  0
   -6.9813   -1.4914    0.0000 C   0  0  0  0  0  0  0  0  0  0  0  0
   -7.9459   -0.3416    0.0000 C   0  0  0  0  0  0  0  0  0  0  0  0
   -9.4230   -0.6024    0.0000 H   0  0  0  0  0  0  0  0  0  0  0  0
   -7.4333    1.0690    0.0000 C   0  0  0  0  0  0  0  0  0  0  0  0
   -8.3979    2.2177    0.0000 H   0  0  0  0  0  0  0  0  0  0  0  0
   -5.9561    1.3298    0.0000 C   0  0  0  0  0  0  0  0  0  0  0  0
   -5.4432    2.7393    0.0000 H   0  0  0  0  0  0  0  0  0  0  0  0
   -4.9915    0.1800    0.0000 C   0  0  0  0  0  0  0  0  0  0  0  0
   -5.5041   -1.2306    0.0000 C   0  0  0  0  0  0  0  0  0  0  0  0
   -4.5395   -2.3804    0.0000 C   0  0  0  0  0  0  0  0  0  0  0  0
   -3.0624   -2.1197    0.0000 O   0  0  0  0  0  0  0  0  0  0  0  0
   -5.0521   -3.7910    0.0000 C   0  0  0  0  0  0  0  0  0  0  0  0
   -4.0875   -4.9408    0.0000 C   0  0  0  0  0  0  0  0  0  0  0  0
   -4.6000   -6.3514    0.0000 C   0  0  0  0  0  0  0  0  0  0  0  0
   -3.6354   -7.5001    0.0000 H   0  0  0  0  0  0  0  0  0  0  0  0
   -6.0772   -6.6122    0.0000 C   0  0  0  0  0  0  0  0  0  0  0  0
   -7.0418   -5.4624    0.0000 C   0  0  0  0  0  0  0  0  0  0  0  0
   -8.5189   -5.7232    0.0000 H   0  0  0  0  0  0  0  0  0  0  0  0
   -6.5292   -4.0518    0.0000 C   0  0  0  0  0  0  0  0  0  0  0  0
   -6.5902   -8.0218    0.0000 C   0  0  0  0  0  0  0  0  0  0  0  0
   -8.0674   -8.2823    0.0000 O   0  0  0  0  0  0  0  0  0  0  0  0
   -5.6259   -9.1708    0.0000 O   0  0  0  0  0  0  0  0  0  0  0  0
   -6.1389  -10.5804    0.0000 H   0  0  0  0  0  0  0  0  0  0  0  0
   -2.6103   -4.6801    0.0000 O   0  0  0  0  0  0  0  0  0  0  0  0
   -1.6459   -5.8289    0.0000 H   0  0  0  0  0  0  0  0  0  0  0  0
   -3.5144    0.4407    0.0000 O   0  0  0  0  0  0  0  0  0  0  0  0
   -3.0017    1.8504    0.0000 C   0  0  0  0  0  0  0  0  0  0  0  0
   -4.4783    2.1140    0.0000 H   0  0  0  0  0  0  0  0  0  0  0  0
   -1.7094    1.1086    0.0000 C   0  0  0  0  0  0  0  0  0  0  0  0
   -0.7414   -0.0372    0.0000 H   0  0  0  0  0  0  0  0  0  0  0  0
   -0.3932    1.8751    0.0000 C   0  0  0  0  0  0  0  0  0  0  0  0
    1.0823    2.1452    0.0000 H   0  0  0  0  0  0  0  0  0  0  0  0
   -0.4051    3.3809    0.0000 C   0  0  0  0  0  0  0  0  0  0  0  0
    0.1018    4.7927    0.0000 H   0  0  0  0  0  0  0  0  0  0  0  0
   -1.6974    4.1227    0.0000 C   0  0  0  0  0  0  0  0  0  0  0  0
   -2.6647    5.2691    0.0000 H   0  0  0  0  0  0  0  0  0  0  0  0
   -0.1211    6.0113    0.0000 C   0  0  0  0  0  0  0  0  0  0  0  0
    0.3883    7.4222    0.0000 H   0  0  0  0  0  0  0  0  0  0  0  0
    1.3568    5.7547    0.0000 O   0  0  0  0  0  0  0  0  0  0  0  0
    2.3180    6.9063    0.0000 H   0  0  0  0  0  0  0  0  0  0  0  0
   -1.4221    6.7579    0.0000 O   0  0  0  0  0  0  0  0  0  0  0  0
   -1.4260    8.2579    0.0000 H   0  0  0  0  0  0  0  0  0  0  0  0
   -2.9950    3.3686    0.0000 O   0  0  0  0  0  0  0  0  0  0  0  0
    1.0737    3.1295    0.0000 O   0  0  0  0  0  0  0  0  0  0  0  0
    2.0308    4.2845    0.0000 H   0  0  0  0  0  0  0  0  0  0  0  0
    0.1271    0.4682    0.0000 O   0  0  0  0  0  0  0  0  0  0  0  0
    1.6056    0.2153    0.0000 H   0  0  0  0  0  0  0  0  0  0  0  0
   -2.6702   -0.0432    0.0000 O   0  0  0  0  0  0  0  0  0  0  0  0
   -2.1531   -1.4513    0.0000 H   0  0  0  0  0  0  0  0  0  0  0  0
  -14.5081    0.1053    0.0000 O   0  0  0  0  0  0  0  0  0  0  0  0
  -15.4726    1.2542    0.0000 C   0  0  0  0  0  0  0  0  0  0  0  0
  -14.1754    2.0075    0.0000 H   0  0  0  0  0  0  0  0  0  0  0  0
  -16.4327    0.1148    0.0000 C   0  0  0  0  0  0  0  0  0  0  0  0
  -16.9498   -1.2933    0.0000 H   0  0  0  0  0  0  0  0  0  0  0  0
  -17.9318    0.3842    0.0000 C   0  0  0  0  0  0  0  0  0  0  0  0
  -19.4106    0.1328    0.0000 H   0  0  0  0  0  0  0  0  0  0  0  0
  -18.4362    1.8031    0.0000 C   0  0  0  0  0  0  0  0  0  0  0  0
  -19.3959    2.9559    0.0000 H   0  0  0  0  0  0  0  0  0  0  0  0
  -17.4761    2.9425    0.0000 C   0  0  0  0  0  0  0  0  0  0  0  0
  -16.9598    4.3508    0.0000 H   0  0  0  0  0  0  0  0  0  0  0  0
  -20.0190    4.4181    0.0000 C   0  0  0  0  0  0  0  0  0  0  0  0
  -21.4956    4.6818    0.0000 H   0  0  0  0  0  0  0  0  0  0  0  0
  -20.5351    3.0097    0.0000 H   0  0  0  0  0  0  0  0  0  0  0  0
  -20.0157    5.9181    0.0000 O   0  0  0  0  0  0  0  0  0  0  0  0
  -21.3131    6.6709    0.0000 H   0  0  0  0  0  0  0  0  0  0  0  0
  -15.9987    2.6783    0.0000 O   0  0  0  0  0  0  0  0  0  0  0  0
  -19.7395    1.0605    0.0000 O   0  0  0  0  0  0  0  0  0  0  0  0
  -21.0343    1.8179    0.0000 H   0  0  0  0  0  0  0  0  0  0  0  0
  -17.9389   -1.1158    0.0000 O   0  0  0  0  0  0  0  0  0  0  0  0
  -19.2414   -1.8597    0.0000 H   0  0  0  0  0  0  0  0  0  0  0  0
  -15.1355   -0.6384    0.0000 O   0  0  0  0  0  0  0  0  0  0  0  0
  -15.1393   -2.1384    0.0000 H   0  0  0  0  0  0  0  0  0  0  0  0
  1  2  1  0  0  0  0 
  1  3  2  0  0  0  0 
  3  4  1  0  0  0  0 
  3  5  1  0  0  0  0 
  5  6  2  0  0  0  0 
  6  7  1  0  0  0  0 
  7  8  2  0  0  0  0 
  1  8  1  0  0  0  0 
  8  9  1  0  0  0  0 
  7 10  1  0  0  0  0 
 10 11  1  0  0  0  0 
 10 12  1  0  0  0  0 
 12 13  2  0  0  0  0 
 13 14  1  0  0  0  0 
 13 15  1  0  0  0  0 
 15 16  2  0  0  0  0 
 16 17  1  0  0  0  0 
 16 18  1  0  0  0  0 
 18 19  2  0  0  0  0 
 12 19  1  0  0  0  0 
 19 20  1  0  0  0  0 
  6 20  1  0  0  0  0 
 20 21  2  0  0  0  0 
 18 22  1  0  0  0  0 
 22 23  1  0  0  0  0 
 15 24  1  0  0  0  0 
 24 25  2  0  0  0  0 
 24 26  1  0  0  0  0 
 26 27  1  0  0  0  0 
 10 28  1  0  0  0  0 
 28 29  1  0  0  0  0 
 28 30  1  0  0  0  0 
 30 31  2  0  0  0  0 
 31 32  1  0  0  0  0 
 31 33  1  0  0  0  0 
 33 34  1  0  0  0  0 
 33 35  2  0  0  0  0 
 35 36  1  0  0  0  0 
 35 37  1  0  0  0  0 
 37 38  2  0  0  0  0 
 30 38  1  0  0  0  0 
 38 39  1  0  0  0  0 
 39 40  2  0  0  0  0 
 39 41  1  0  0  0  0 
 41 42  2  0  0  0  0 
 42 43  1  0  0  0  0 
 43 44  1  0  0  0  0 
 43 45  2  0  0  0  0 
 45 46  1  0  0  0  0 
 46 47  1  0  0  0  0 
 46 48  2  0  0  0  0 
 28 48  1  0  0  0  0 
 41 48  1  0  0  0  0 
 45 49  1  0  0  0  0 
 49 50  2  0  0  0  0 
 49 51  1  0  0  0  0 
 51 52  1  0  0  0  0 
 42 53  1  0  0  0  0 
 53 54  1  0  0  0  0 
 37 55  1  0  0  0  0 
 55 56  1  0  0  0  0 
 56 57  1  0  0  0  0 
 56 58  1  0  0  0  0 
 58 59  1  0  0  0  0 
 58 60  1  0  0  0  0 
 60 61  1  0  0  0  0 
 60 62  1  0  0  0  0 
 62 63  1  0  0  0  0 
 62 64  1  0  0  0  0 
 64 65  1  0  0  0  0 
 64 66  1  0  0  0  0 
 66 67  1  0  0  0  0 
 66 68  1  0  0  0  0 
 68 69  1  0  0  0  0 
 66 70  1  0  0  0  0 
 70 71  1  0  0  0  0 
 64 72  1  0  0  0  0 
 56 72  1  0  0  0  0 
 62 73  1  0  0  0  0 
 73 74  1  0  0  0  0 
 60 75  1  0  0  0  0 
 75 76  1  0  0  0  0 
 58 77  1  0  0  0  0 
 77 78  1  0  0  0  0 
  5 79  1  0  0  0  0 
 79 80  1  0  0  0  0 
 80 81  1  0  0  0  0 
 80 82  1  0  0  0  0 
 82 83  1  0  0  0  0 
 82 84  1  0  0  0  0 
 84 85  1  0  0  0  0 
 84 86  1  0  0  0  0 
 86 87  1  0  0  0  0 
 86 88  1  0  0  0  0 
 88 89  1  0  0  0  0 
 88 90  1  0  0  0  0 
 90 91  1  0  0  0  0 
 90 92  1  0  0  0  0 
 90 93  1  0  0  0  0 
 93 94  1  0  0  0  0 
 88 95  1  0  0  0  0 
 80 95  1  0  0  0  0 
 86 96  1  0  0  0  0 
 96 97  1  0  0  0  0 
 84 98  1  0  0  0  0 
 98 99  1  0  0  0  0 
 82100  1  0  0  0  0 
100101  1  0  0  0  0 
M  END
> <Rank>
29

> <Priority_score>
0.012

> <Reaction_type>
aliphatic hydroxylation

> <Parent_ID>
79

> <Parent_InChI>
InChI=1S/C42H38O20/c43-11-23-31(47)35(51)37(53)41(61-23)59-21-5-1-3-15-25(17-7-13(39(55)56)9-19(45)27(17)33(49)29(15)21)26-16-4-2-6-22(60-42-38(54)36(52)32(48)24(12-44)62-42)30(16)34(50)28-18(26)8-14(40(57)58)10-20(28)46/h1-10,23-26,31-32,35-38,41-48,51-54H,11-12H2,(H,55,56)(H,57,58)

> <Parent_SMILES>
O=C(O)c1cc(O)c2c(c1)C(C1c3cc(C(=O)O)cc(O)c3C(=O)c3c(OC4OC(CO)C(O)C(O)C4O)cccc31)c1cccc(OC3OC(CO)C(O)C(O)C3O)c1C2=O

$$$$
Molecule 79_metabolite 30
  CDK     0516241031

 98105  0  0  0  0  0  0  0  0999 V2000
  -11.4564    2.2784    0.0000 C   0  0  0  0  0  0  0  0  0  0  0  0
  -10.9435    3.6880    0.0000 H   0  0  0  0  0  0  0  0  0  0  0  0
  -12.9336    2.0176    0.0000 C   0  0  0  0  0  0  0  0  0  0  0  0
  -13.8982    3.1663    0.0000 H   0  0  0  0  0  0  0  0  0  0  0  0
  -13.4462    0.6070    0.0000 C   0  0  0  0  0  0  0  0  0  0  0  0
  -12.4816   -0.5428    0.0000 C   0  0  0  0  0  0  0  0  0  0  0  0
  -11.0044   -0.2820    0.0000 C   0  0  0  0  0  0  0  0  0  0  0  0
  -10.4918    1.1286    0.0000 C   0  0  0  0  0  0  0  0  0  0  0  0
   -9.0147    1.3894    0.0000 H   0  0  0  0  0  0  0  0  0  0  0  0
  -10.0398   -1.4318    0.0000 C   0  0  0  0  0  0  0  0  0  0  0  0
   -9.0757   -0.2826    0.0000 H   0  0  0  0  0  0  0  0  0  0  0  0
  -10.5524   -2.8424    0.0000 C   0  0  0  0  0  0  0  0  0  0  0  0
   -9.5878   -3.9922    0.0000 C   0  0  0  0  0  0  0  0  0  0  0  0
   -8.1106   -3.7314    0.0000 H   0  0  0  0  0  0  0  0  0  0  0  0
  -10.1003   -5.4028    0.0000 C   0  0  0  0  0  0  0  0  0  0  0  0
  -11.5775   -5.6636    0.0000 C   0  0  0  0  0  0  0  0  0  0  0  0
  -12.0904   -7.0731    0.0000 H   0  0  0  0  0  0  0  0  0  0  0  0
  -12.5421   -4.5138    0.0000 C   0  0  0  0  0  0  0  0  0  0  0  0
  -12.0295   -3.1032    0.0000 C   0  0  0  0  0  0  0  0  0  0  0  0
  -12.9941   -1.9534    0.0000 C   0  0  0  0  0  0  0  0  0  0  0  0
  -14.4713   -2.2142    0.0000 O   0  0  0  0  0  0  0  0  0  0  0  0
  -14.0192   -4.7746    0.0000 O   0  0  0  0  0  0  0  0  0  0  0  0
  -14.5320   -6.1842    0.0000 H   0  0  0  0  0  0  0  0  0  0  0  0
   -9.1357   -6.5515    0.0000 C   0  0  0  0  0  0  0  0  0  0  0  0
   -7.6586   -6.2905    0.0000 O   0  0  0  0  0  0  0  0  0  0  0  0
   -9.6482   -7.9612    0.0000 O   0  0  0  0  0  0  0  0  0  0  0  0
   -8.6836   -9.1099    0.0000 H   0  0  0  0  0  0  0  0  0  0  0  0
   -7.9090   -2.6611    0.0000 C   0  0  0  0  0  0  0  0  0  0  0  0
   -8.8730   -3.8103    0.0000 H   0  0  0  0  0  0  0  0  0  0  0  0
   -7.3964   -1.2505    0.0000 C   0  0  0  0  0  0  0  0  0  0  0  0
   -8.3610   -0.1007    0.0000 C   0  0  0  0  0  0  0  0  0  0  0  0
   -9.8382   -0.3615    0.0000 H   0  0  0  0  0  0  0  0  0  0  0  0
   -7.8485    1.3099    0.0000 C   0  0  0  0  0  0  0  0  0  0  0  0
   -8.8131    2.4586    0.0000 H   0  0  0  0  0  0  0  0  0  0  0  0
   -6.3713    1.5707    0.0000 C   0  0  0  0  0  0  0  0  0  0  0  0
   -5.8583    2.9802    0.0000 H   0  0  0  0  0  0  0  0  0  0  0  0
   -5.4067    0.4209    0.0000 C   0  0  0  0  0  0  0  0  0  0  0  0
   -5.9193   -0.9897    0.0000 C   0  0  0  0  0  0  0  0  0  0  0  0
   -4.9547   -2.1395    0.0000 C   0  0  0  0  0  0  0  0  0  0  0  0
   -3.4775   -1.8787    0.0000 O   0  0  0  0  0  0  0  0  0  0  0  0
   -5.4672   -3.5501    0.0000 C   0  0  0  0  0  0  0  0  0  0  0  0
   -4.5026   -4.6999    0.0000 C   0  0  0  0  0  0  0  0  0  0  0  0
   -5.0152   -6.1105    0.0000 C   0  0  0  0  0  0  0  0  0  0  0  0
   -4.0506   -7.2592    0.0000 H   0  0  0  0  0  0  0  0  0  0  0  0
   -6.4924   -6.3713    0.0000 C   0  0  0  0  0  0  0  0  0  0  0  0
   -7.4570   -5.2215    0.0000 C   0  0  0  0  0  0  0  0  0  0  0  0
   -8.9341   -5.4823    0.0000 H   0  0  0  0  0  0  0  0  0  0  0  0
   -6.9444   -3.8109    0.0000 C   0  0  0  0  0  0  0  0  0  0  0  0
   -7.0053   -7.7809    0.0000 C   0  0  0  0  0  0  0  0  0  0  0  0
   -8.4825   -8.0414    0.0000 O   0  0  0  0  0  0  0  0  0  0  0  0
   -6.0411   -8.9299    0.0000 O   0  0  0  0  0  0  0  0  0  0  0  0
   -6.5540  -10.3395    0.0000 H   0  0  0  0  0  0  0  0  0  0  0  0
   -3.0255   -4.4391    0.0000 O   0  0  0  0  0  0  0  0  0  0  0  0
   -2.0611   -5.5880    0.0000 H   0  0  0  0  0  0  0  0  0  0  0  0
   -3.9296    0.6817    0.0000 O   0  0  0  0  0  0  0  0  0  0  0  0
   -3.4168    2.0913    0.0000 C   0  0  0  0  0  0  0  0  0  0  0  0
   -4.8935    2.3549    0.0000 H   0  0  0  0  0  0  0  0  0  0  0  0
   -2.1246    1.3496    0.0000 C   0  0  0  0  0  0  0  0  0  0  0  0
   -1.1566    0.2037    0.0000 H   0  0  0  0  0  0  0  0  0  0  0  0
   -0.8083    2.1160    0.0000 C   0  0  0  0  0  0  0  0  0  0  0  0
    0.6672    2.3861    0.0000 H   0  0  0  0  0  0  0  0  0  0  0  0
   -0.8203    3.6218    0.0000 C   0  0  0  0  0  0  0  0  0  0  0  0
   -0.3134    5.0336    0.0000 H   0  0  0  0  0  0  0  0  0  0  0  0
   -2.1125    4.3636    0.0000 C   0  0  0  0  0  0  0  0  0  0  0  0
   -3.0798    5.5100    0.0000 H   0  0  0  0  0  0  0  0  0  0  0  0
   -0.5362    6.2522    0.0000 C   0  0  0  0  0  0  0  0  0  0  0  0
   -0.0269    7.6631    0.0000 H   0  0  0  0  0  0  0  0  0  0  0  0
   -1.8372    6.9988    0.0000 H   0  0  0  0  0  0  0  0  0  0  0  0
    0.9417    5.9956    0.0000 O   0  0  0  0  0  0  0  0  0  0  0  0
    1.9028    7.1472    0.0000 H   0  0  0  0  0  0  0  0  0  0  0  0
   -3.4102    3.6095    0.0000 O   0  0  0  0  0  0  0  0  0  0  0  0
    0.6585    3.3704    0.0000 O   0  0  0  0  0  0  0  0  0  0  0  0
    1.6156    4.5254    0.0000 H   0  0  0  0  0  0  0  0  0  0  0  0
   -0.2881    0.7091    0.0000 O   0  0  0  0  0  0  0  0  0  0  0  0
    1.1904    0.4562    0.0000 H   0  0  0  0  0  0  0  0  0  0  0  0
   -3.0854    0.1977    0.0000 O   0  0  0  0  0  0  0  0  0  0  0  0
   -2.5683   -1.2104    0.0000 H   0  0  0  0  0  0  0  0  0  0  0  0
  -14.9233    0.3463    0.0000 O   0  0  0  0  0  0  0  0  0  0  0  0
  -15.8877    1.4951    0.0000 C   0  0  0  0  0  0  0  0  0  0  0  0
  -14.5906    2.2484    0.0000 H   0  0  0  0  0  0  0  0  0  0  0  0
  -16.8479    0.3557    0.0000 C   0  0  0  0  0  0  0  0  0  0  0  0
  -17.3650   -1.0523    0.0000 H   0  0  0  0  0  0  0  0  0  0  0  0
  -18.3470    0.6251    0.0000 C   0  0  0  0  0  0  0  0  0  0  0  0
  -19.8258    0.3737    0.0000 H   0  0  0  0  0  0  0  0  0  0  0  0
  -18.8514    2.0440    0.0000 C   0  0  0  0  0  0  0  0  0  0  0  0
  -19.8111    3.1968    0.0000 H   0  0  0  0  0  0  0  0  0  0  0  0
  -17.8913    3.1834    0.0000 C   0  0  0  0  0  0  0  0  0  0  0  0
  -17.3750    4.5918    0.0000 H   0  0  0  0  0  0  0  0  0  0  0  0
  -20.0190    4.4181    0.0000 C   0  0  0  0  0  0  0  0  0  0  0  0
  -20.0157    5.9181    0.0000 H   0  0  0  0  0  0  0  0  0  0  0  0
  -21.3196    3.6709    0.0000 O   0  0  0  0  0  0  0  0  0  0  0  0
  -16.4139    2.9192    0.0000 O   0  0  0  0  0  0  0  0  0  0  0  0
  -20.1547    1.3014    0.0000 O   0  0  0  0  0  0  0  0  0  0  0  0
  -21.4494    2.0588    0.0000 H   0  0  0  0  0  0  0  0  0  0  0  0
  -18.3540   -0.8749    0.0000 O   0  0  0  0  0  0  0  0  0  0  0  0
  -19.6566   -1.6188    0.0000 H   0  0  0  0  0  0  0  0  0  0  0  0
  -15.5507   -0.3975    0.0000 O   0  0  0  0  0  0  0  0  0  0  0  0
  -15.5544   -1.8975    0.0000 H   0  0  0  0  0  0  0  0  0  0  0  0
  1  2  1  0  0  0  0 
  1  3  2  0  0  0  0 
  3  4  1  0  0  0  0 
  3  5  1  0  0  0  0 
  5  6  2  0  0  0  0 
  6  7  1  0  0  0  0 
  7  8  2  0  0  0  0 
  1  8  1  0  0  0  0 
  8  9  1  0  0  0  0 
  7 10  1  0  0  0  0 
 10 11  1  0  0  0  0 
 10 12  1  0  0  0  0 
 12 13  2  0  0  0  0 
 13 14  1  0  0  0  0 
 13 15  1  0  0  0  0 
 15 16  2  0  0  0  0 
 16 17  1  0  0  0  0 
 16 18  1  0  0  0  0 
 18 19  2  0  0  0  0 
 12 19  1  0  0  0  0 
 19 20  1  0  0  0  0 
  6 20  1  0  0  0  0 
 20 21  2  0  0  0  0 
 18 22  1  0  0  0  0 
 22 23  1  0  0  0  0 
 15 24  1  0  0  0  0 
 24 25  2  0  0  0  0 
 24 26  1  0  0  0  0 
 26 27  1  0  0  0  0 
 10 28  1  0  0  0  0 
 28 29  1  0  0  0  0 
 28 30  1  0  0  0  0 
 30 31  2  0  0  0  0 
 31 32  1  0  0  0  0 
 31 33  1  0  0  0  0 
 33 34  1  0  0  0  0 
 33 35  2  0  0  0  0 
 35 36  1  0  0  0  0 
 35 37  1  0  0  0  0 
 37 38  2  0  0  0  0 
 30 38  1  0  0  0  0 
 38 39  1  0  0  0  0 
 39 40  2  0  0  0  0 
 39 41  1  0  0  0  0 
 41 42  2  0  0  0  0 
 42 43  1  0  0  0  0 
 43 44  1  0  0  0  0 
 43 45  2  0  0  0  0 
 45 46  1  0  0  0  0 
 46 47  1  0  0  0  0 
 46 48  2  0  0  0  0 
 28 48  1  0  0  0  0 
 41 48  1  0  0  0  0 
 45 49  1  0  0  0  0 
 49 50  2  0  0  0  0 
 49 51  1  0  0  0  0 
 51 52  1  0  0  0  0 
 42 53  1  0  0  0  0 
 53 54  1  0  0  0  0 
 37 55  1  0  0  0  0 
 55 56  1  0  0  0  0 
 56 57  1  0  0  0  0 
 56 58  1  0  0  0  0 
 58 59  1  0  0  0  0 
 58 60  1  0  0  0  0 
 60 61  1  0  0  0  0 
 60 62  1  0  0  0  0 
 62 63  1  0  0  0  0 
 62 64  1  0  0  0  0 
 64 65  1  0  0  0  0 
 64 66  1  0  0  0  0 
 66 67  1  0  0  0  0 
 66 68  1  0  0  0  0 
 66 69  1  0  0  0  0 
 69 70  1  0  0  0  0 
 64 71  1  0  0  0  0 
 56 71  1  0  0  0  0 
 62 72  1  0  0  0  0 
 72 73  1  0  0  0  0 
 60 74  1  0  0  0  0 
 74 75  1  0  0  0  0 
 58 76  1  0  0  0  0 
 76 77  1  0  0  0  0 
  5 78  1  0  0  0  0 
 78 79  1  0  0  0  0 
 79 80  1  0  0  0  0 
 79 81  1  0  0  0  0 
 81 82  1  0  0  0  0 
 81 83  1  0  0  0  0 
 83 84  1  0  0  0  0 
 83 85  1  0  0  0  0 
 85 86  1  0  0  0  0 
 85 87  1  0  0  0  0 
 87 88  1  0  0  0  0 
 87 89  1  0  0  0  0 
 89 90  1  0  0  0  0 
 89 91  2  0  0  0  0 
 87 92  1  0  0  0  0 
 79 92  1  0  0  0  0 
 85 93  1  0  0  0  0 
 93 94  1  0  0  0  0 
 83 95  1  0  0  0  0 
 95 96  1  0  0  0  0 
 81 97  1  0  0  0  0 
 97 98  1  0  0  0  0 
M  END
> <Rank>
29

> <Priority_score>
0.012

> <Reaction_type>
alcohol oxidation

> <Parent_ID>
79

> <Parent_InChI>
InChI=1S/C42H38O20/c43-11-23-31(47)35(51)37(53)41(61-23)59-21-5-1-3-15-25(17-7-13(39(55)56)9-19(45)27(17)33(49)29(15)21)26-16-4-2-6-22(60-42-38(54)36(52)32(48)24(12-44)62-42)30(16)34(50)28-18(26)8-14(40(57)58)10-20(28)46/h1-10,23-26,31-32,35-38,41-48,51-54H,11-12H2,(H,55,56)(H,57,58)

> <Parent_SMILES>
O=C(O)c1cc(O)c2c(c1)C(C1c3cc(C(=O)O)cc(O)c3C(=O)c3c(OC4OC(CO)C(O)C(O)C4O)cccc31)c1cccc(OC3OC(CO)C(O)C(O)C3O)c1C2=O

$$$$
Molecule 79_metabolite 31
  CDK     0516241031

 99106  0  0  0  0  0  0  0  0999 V2000
  -13.6719   -5.0956    0.0000 C   0  0  0  0  0  0  0  0  0  0  0  0
  -13.6717   -6.5956    0.0000 H   0  0  0  0  0  0  0  0  0  0  0  0
  -14.9710   -4.3456    0.0000 C   0  0  0  0  0  0  0  0  0  0  0  0
  -16.2701   -5.0954    0.0000 H   0  0  0  0  0  0  0  0  0  0  0  0
  -14.9705   -2.8447    0.0000 C   0  0  0  0  0  0  0  0  0  0  0  0
  -13.6710   -2.0939    0.0000 C   0  0  0  0  0  0  0  0  0  0  0  0
  -12.3719   -2.8439    0.0000 C   0  0  0  0  0  0  0  0  0  0  0  0
  -12.3724   -4.3447    0.0000 C   0  0  0  0  0  0  0  0  0  0  0  0
  -11.0734   -5.0947    0.0000 H   0  0  0  0  0  0  0  0  0  0  0  0
  -11.0724   -2.0931    0.0000 C   0  0  0  0  0  0  0  0  0  0  0  0
  -10.5592   -3.5025    0.0000 H   0  0  0  0  0  0  0  0  0  0  0  0
  -11.0719   -0.5922    0.0000 C   0  0  0  0  0  0  0  0  0  0  0  0
   -9.7724    0.1586    0.0000 C   0  0  0  0  0  0  0  0  0  0  0  0
   -8.4734   -0.5914    0.0000 H   0  0  0  0  0  0  0  0  0  0  0  0
   -9.7719    1.6594    0.0000 C   0  0  0  0  0  0  0  0  0  0  0  0
  -11.0710    2.4094    0.0000 C   0  0  0  0  0  0  0  0  0  0  0  0
  -11.0712    3.9094    0.0000 H   0  0  0  0  0  0  0  0  0  0  0  0
  -12.3705    1.6586    0.0000 C   0  0  0  0  0  0  0  0  0  0  0  0
  -12.3710    0.1578    0.0000 C   0  0  0  0  0  0  0  0  0  0  0  0
  -13.6705   -0.5931    0.0000 C   0  0  0  0  0  0  0  0  0  0  0  0
  -14.9695    0.1569    0.0000 O   0  0  0  0  0  0  0  0  0  0  0  0
  -13.6695    2.4086    0.0000 O   0  0  0  0  0  0  0  0  0  0  0  0
  -13.6695    3.9086    0.0000 H   0  0  0  0  0  0  0  0  0  0  0  0
   -8.4728    2.4092    0.0000 C   0  0  0  0  0  0  0  0  0  0  0  0
   -7.1739    1.6590    0.0000 O   0  0  0  0  0  0  0  0  0  0  0  0
   -8.4725    3.9092    0.0000 O   0  0  0  0  0  0  0  0  0  0  0  0
   -7.1734    4.6590    0.0000 H   0  0  0  0  0  0  0  0  0  0  0  0
   -8.6497   -1.6661    0.0000 C   0  0  0  0  0  0  0  0  0  0  0  0
   -9.1629   -0.2567    0.0000 H   0  0  0  0  0  0  0  0  0  0  0  0
   -8.6502   -3.1670    0.0000 C   0  0  0  0  0  0  0  0  0  0  0  0
   -9.9497   -3.9178    0.0000 C   0  0  0  0  0  0  0  0  0  0  0  0
  -11.2488   -3.1678    0.0000 H   0  0  0  0  0  0  0  0  0  0  0  0
   -9.9502   -5.4186    0.0000 C   0  0  0  0  0  0  0  0  0  0  0  0
  -11.2494   -6.1684    0.0000 H   0  0  0  0  0  0  0  0  0  0  0  0
   -8.6512   -6.1686    0.0000 C   0  0  0  0  0  0  0  0  0  0  0  0
   -8.6509   -7.6686    0.0000 H   0  0  0  0  0  0  0  0  0  0  0  0
   -7.3517   -5.4178    0.0000 C   0  0  0  0  0  0  0  0  0  0  0  0
   -7.3512   -3.9170    0.0000 C   0  0  0  0  0  0  0  0  0  0  0  0
   -6.0517   -3.1661    0.0000 C   0  0  0  0  0  0  0  0  0  0  0  0
   -4.7526   -3.9161    0.0000 O   0  0  0  0  0  0  0  0  0  0  0  0
   -6.0512   -1.6653    0.0000 C   0  0  0  0  0  0  0  0  0  0  0  0
   -4.7517   -0.9145    0.0000 C   0  0  0  0  0  0  0  0  0  0  0  0
   -4.7512    0.5864    0.0000 C   0  0  0  0  0  0  0  0  0  0  0  0
   -3.4520    1.3361    0.0000 H   0  0  0  0  0  0  0  0  0  0  0  0
   -6.0502    1.3364    0.0000 C   0  0  0  0  0  0  0  0  0  0  0  0
   -7.3497    0.5855    0.0000 C   0  0  0  0  0  0  0  0  0  0  0  0
   -8.6488    1.3355    0.0000 H   0  0  0  0  0  0  0  0  0  0  0  0
   -7.3502   -0.9153    0.0000 C   0  0  0  0  0  0  0  0  0  0  0  0
   -6.0505    2.8364    0.0000 C   0  0  0  0  0  0  0  0  0  0  0  0
   -7.3496    3.5861    0.0000 O   0  0  0  0  0  0  0  0  0  0  0  0
   -4.7515    3.5866    0.0000 O   0  0  0  0  0  0  0  0  0  0  0  0
   -4.7518    5.0866    0.0000 H   0  0  0  0  0  0  0  0  0  0  0  0
   -3.4526   -1.6645    0.0000 O   0  0  0  0  0  0  0  0  0  0  0  0
   -2.1536   -0.9145    0.0000 H   0  0  0  0  0  0  0  0  0  0  0  0
   -6.0526   -6.1678    0.0000 O   0  0  0  0  0  0  0  0  0  0  0  0
   -6.0526   -7.6678    0.0000 C   0  0  0  0  0  0  0  0  0  0  0  0
   -7.5304   -7.4107    0.0000 H   0  0  0  0  0  0  0  0  0  0  0  0
   -4.5847   -7.4125    0.0000 C   0  0  0  0  0  0  0  0  0  0  0  0
   -3.2833   -6.6665    0.0000 H   0  0  0  0  0  0  0  0  0  0  0  0
   -3.6097   -8.5827    0.0000 C   0  0  0  0  0  0  0  0  0  0  0  0
   -2.3154   -9.3409    0.0000 H   0  0  0  0  0  0  0  0  0  0  0  0
   -4.1356   -9.9937    0.0000 C   0  0  0  0  0  0  0  0  0  0  0  0
   -4.1418  -11.4937    0.0000 H   0  0  0  0  0  0  0  0  0  0  0  0
   -5.6036  -10.2491    0.0000 C   0  0  0  0  0  0  0  0  0  0  0  0
   -6.9045  -10.9958    0.0000 H   0  0  0  0  0  0  0  0  0  0  0  0
   -4.7678  -12.5627    0.0000 C   0  0  0  0  0  0  0  0  0  0  0  0
   -3.2912  -12.8267    0.0000 O   0  0  0  0  0  0  0  0  0  0  0  0
   -5.7347  -13.7095    0.0000 O   0  0  0  0  0  0  0  0  0  0  0  0
   -5.2251  -15.1202    0.0000 H   0  0  0  0  0  0  0  0  0  0  0  0
   -6.5653   -9.0968    0.0000 O   0  0  0  0  0  0  0  0  0  0  0  0
   -2.6600  -10.2629    0.0000 O   0  0  0  0  0  0  0  0  0  0  0  0
   -2.1553  -11.6755    0.0000 H   0  0  0  0  0  0  0  0  0  0  0  0
   -2.6399   -7.4384    0.0000 O   0  0  0  0  0  0  0  0  0  0  0  0
   -1.1640   -7.7061    0.0000 H   0  0  0  0  0  0  0  0  0  0  0  0
   -5.0939   -6.0015    0.0000 O   0  0  0  0  0  0  0  0  0  0  0  0
   -4.1266   -4.8551    0.0000 H   0  0  0  0  0  0  0  0  0  0  0  0
  -16.2695   -2.0947    0.0000 O   0  0  0  0  0  0  0  0  0  0  0  0
  -17.5686   -2.8447    0.0000 C   0  0  0  0  0  0  0  0  0  0  0  0
  -16.6070   -3.9960    0.0000 H   0  0  0  0  0  0  0  0  0  0  0  0
  -18.0814   -1.4458    0.0000 C   0  0  0  0  0  0  0  0  0  0  0  0
  -18.0860    0.0542    0.0000 H   0  0  0  0  0  0  0  0  0  0  0  0
  -19.5823   -1.1865    0.0000 C   0  0  0  0  0  0  0  0  0  0  0  0
  -20.8861   -0.4447    0.0000 H   0  0  0  0  0  0  0  0  0  0  0  0
  -20.5413   -2.3475    0.0000 C   0  0  0  0  0  0  0  0  0  0  0  0
  -21.8373   -3.1029    0.0000 H   0  0  0  0  0  0  0  0  0  0  0  0
  -20.0285   -3.7465    0.0000 C   0  0  0  0  0  0  0  0  0  0  0  0
  -20.0247   -5.2465    0.0000 H   0  0  0  0  0  0  0  0  0  0  0  0
  -22.4501   -4.1795    0.0000 C   0  0  0  0  0  0  0  0  0  0  0  0
  -23.7473   -4.9326    0.0000 H   0  0  0  0  0  0  0  0  0  0  0  0
  -21.9337   -5.5878    0.0000 H   0  0  0  0  0  0  0  0  0  0  0  0
  -23.4170   -3.0328    0.0000 O   0  0  0  0  0  0  0  0  0  0  0  0
  -24.8936   -3.2968    0.0000 H   0  0  0  0  0  0  0  0  0  0  0  0
  -18.5498   -4.0032    0.0000 O   0  0  0  0  0  0  0  0  0  0  0  0
  -21.5123   -1.2042    0.0000 O   0  0  0  0  0  0  0  0  0  0  0  0
  -22.9879   -1.4734    0.0000 H   0  0  0  0  0  0  0  0  0  0  0  0
  -19.0762    0.2255    0.0000 O   0  0  0  0  0  0  0  0  0  0  0  0
  -20.0460    1.3698    0.0000 H   0  0  0  0  0  0  0  0  0  0  0  0
  -16.6049   -1.1813    0.0000 O   0  0  0  0  0  0  0  0  0  0  0  0
  -16.0957    0.2296    0.0000 H   0  0  0  0  0  0  0  0  0  0  0  0
  1  2  1  0  0  0  0 
  1  3  2  0  0  0  0 
  3  4  1  0  0  0  0 
  3  5  1  0  0  0  0 
  5  6  2  0  0  0  0 
  6  7  1  0  0  0  0 
  7  8  2  0  0  0  0 
  1  8  1  0  0  0  0 
  8  9  1  0  0  0  0 
  7 10  1  0  0  0  0 
 10 11  1  0  0  0  0 
 10 12  1  0  0  0  0 
 12 13  2  0  0  0  0 
 13 14  1  0  0  0  0 
 13 15  1  0  0  0  0 
 15 16  2  0  0  0  0 
 16 17  1  0  0  0  0 
 16 18  1  0  0  0  0 
 18 19  2  0  0  0  0 
 12 19  1  0  0  0  0 
 19 20  1  0  0  0  0 
  6 20  1  0  0  0  0 
 20 21  2  0  0  0  0 
 18 22  1  0  0  0  0 
 22 23  1  0  0  0  0 
 15 24  1  0  0  0  0 
 24 25  2  0  0  0  0 
 24 26  1  0  0  0  0 
 26 27  1  0  0  0  0 
 10 28  1  0  0  0  0 
 28 29  1  0  0  0  0 
 28 30  1  0  0  0  0 
 30 31  2  0  0  0  0 
 31 32  1  0  0  0  0 
 31 33  1  0  0  0  0 
 33 34  1  0  0  0  0 
 33 35  2  0  0  0  0 
 35 36  1  0  0  0  0 
 35 37  1  0  0  0  0 
 37 38  2  0  0  0  0 
 30 38  1  0  0  0  0 
 38 39  1  0  0  0  0 
 39 40  2  0  0  0  0 
 39 41  1  0  0  0  0 
 41 42  2  0  0  0  0 
 42 43  1  0  0  0  0 
 43 44  1  0  0  0  0 
 43 45  2  0  0  0  0 
 45 46  1  0  0  0  0 
 46 47  1  0  0  0  0 
 46 48  2  0  0  0  0 
 28 48  1  0  0  0  0 
 41 48  1  0  0  0  0 
 45 49  1  0  0  0  0 
 49 50  2  0  0  0  0 
 49 51  1  0  0  0  0 
 51 52  1  0  0  0  0 
 42 53  1  0  0  0  0 
 53 54  1  0  0  0  0 
 37 55  1  0  0  0  0 
 55 56  1  0  0  0  0 
 56 57  1  0  0  0  0 
 56 58  1  0  0  0  0 
 58 59  1  0  0  0  0 
 58 60  1  0  0  0  0 
 60 61  1  0  0  0  0 
 60 62  1  0  0  0  0 
 62 63  1  0  0  0  0 
 62 64  1  0  0  0  0 
 64 65  1  0  0  0  0 
 64 66  1  0  0  0  0 
 66 67  2  0  0  0  0 
 66 68  1  0  0  0  0 
 68 69  1  0  0  0  0 
 64 70  1  0  0  0  0 
 56 70  1  0  0  0  0 
 62 71  1  0  0  0  0 
 71 72  1  0  0  0  0 
 60 73  1  0  0  0  0 
 73 74  1  0  0  0  0 
 58 75  1  0  0  0  0 
 75 76  1  0  0  0  0 
  5 77  1  0  0  0  0 
 77 78  1  0  0  0  0 
 78 79  1  0  0  0  0 
 78 80  1  0  0  0  0 
 80 81  1  0  0  0  0 
 80 82  1  0  0  0  0 
 82 83  1  0  0  0  0 
 82 84  1  0  0  0  0 
 84 85  1  0  0  0  0 
 84 86  1  0  0  0  0 
 86 87  1  0  0  0  0 
 86 88  1  0  0  0  0 
 88 89  1  0  0  0  0 
 88 90  1  0  0  0  0 
 88 91  1  0  0  0  0 
 91 92  1  0  0  0  0 
 86 93  1  0  0  0  0 
 78 93  1  0  0  0  0 
 84 94  1  0  0  0  0 
 94 95  1  0  0  0  0 
 82 96  1  0  0  0  0 
 96 97  1  0  0  0  0 
 80 98  1  0  0  0  0 
 98 99  1  0  0  0  0 
M  END
> <Rank>
29

> <Priority_score>
0.012

> <Reaction_type>
primary_alcohol_oxidation_(aliphatic)

> <Parent_ID>
79

> <Parent_InChI>
InChI=1S/C42H38O20/c43-11-23-31(47)35(51)37(53)41(61-23)59-21-5-1-3-15-25(17-7-13(39(55)56)9-19(45)27(17)33(49)29(15)21)26-16-4-2-6-22(60-42-38(54)36(52)32(48)24(12-44)62-42)30(16)34(50)28-18(26)8-14(40(57)58)10-20(28)46/h1-10,23-26,31-32,35-38,41-48,51-54H,11-12H2,(H,55,56)(H,57,58)

> <Parent_SMILES>
O=C(O)c1cc(O)c2c(c1)C(C1c3cc(C(=O)O)cc(O)c3C(=O)c3c(OC4OC(CO)C(O)C(O)C4O)cccc31)c1cccc(OC3OC(CO)C(O)C(O)C3O)c1C2=O

$$$$
Molecule 79_metabolite 32
  CDK     0516241031

 98105  0  0  0  0  0  0  0  0999 V2000
  -13.6719   -5.0956    0.0000 C   0  0  0  0  0  0  0  0  0  0  0  0
  -13.6717   -6.5956    0.0000 H   0  0  0  0  0  0  0  0  0  0  0  0
  -14.9710   -4.3456    0.0000 C   0  0  0  0  0  0  0  0  0  0  0  0
  -16.2701   -5.0954    0.0000 H   0  0  0  0  0  0  0  0  0  0  0  0
  -14.9705   -2.8447    0.0000 C   0  0  0  0  0  0  0  0  0  0  0  0
  -13.6710   -2.0939    0.0000 C   0  0  0  0  0  0  0  0  0  0  0  0
  -12.3719   -2.8439    0.0000 C   0  0  0  0  0  0  0  0  0  0  0  0
  -12.3724   -4.3447    0.0000 C   0  0  0  0  0  0  0  0  0  0  0  0
  -11.0734   -5.0947    0.0000 H   0  0  0  0  0  0  0  0  0  0  0  0
  -11.0724   -2.0931    0.0000 C   0  0  0  0  0  0  0  0  0  0  0  0
  -10.5592   -3.5025    0.0000 H   0  0  0  0  0  0  0  0  0  0  0  0
  -11.0719   -0.5922    0.0000 C   0  0  0  0  0  0  0  0  0  0  0  0
   -9.7724    0.1586    0.0000 C   0  0  0  0  0  0  0  0  0  0  0  0
   -8.4734   -0.5914    0.0000 H   0  0  0  0  0  0  0  0  0  0  0  0
   -9.7719    1.6594    0.0000 C   0  0  0  0  0  0  0  0  0  0  0  0
  -11.0710    2.4094    0.0000 C   0  0  0  0  0  0  0  0  0  0  0  0
  -11.0712    3.9094    0.0000 H   0  0  0  0  0  0  0  0  0  0  0  0
  -12.3705    1.6586    0.0000 C   0  0  0  0  0  0  0  0  0  0  0  0
  -12.3710    0.1578    0.0000 C   0  0  0  0  0  0  0  0  0  0  0  0
  -13.6705   -0.5931    0.0000 C   0  0  0  0  0  0  0  0  0  0  0  0
  -14.9695    0.1569    0.0000 O   0  0  0  0  0  0  0  0  0  0  0  0
  -13.6695    2.4086    0.0000 O   0  0  0  0  0  0  0  0  0  0  0  0
  -13.6695    3.9086    0.0000 H   0  0  0  0  0  0  0  0  0  0  0  0
   -8.4728    2.4092    0.0000 C   0  0  0  0  0  0  0  0  0  0  0  0
   -7.1739    1.6590    0.0000 O   0  0  0  0  0  0  0  0  0  0  0  0
   -8.4725    3.9092    0.0000 O   0  0  0  0  0  0  0  0  0  0  0  0
   -7.1734    4.6590    0.0000 H   0  0  0  0  0  0  0  0  0  0  0  0
   -8.6497   -1.6661    0.0000 C   0  0  0  0  0  0  0  0  0  0  0  0
   -9.1629   -0.2567    0.0000 H   0  0  0  0  0  0  0  0  0  0  0  0
   -8.6502   -3.1670    0.0000 C   0  0  0  0  0  0  0  0  0  0  0  0
   -9.9497   -3.9178    0.0000 C   0  0  0  0  0  0  0  0  0  0  0  0
  -11.2488   -3.1678    0.0000 H   0  0  0  0  0  0  0  0  0  0  0  0
   -9.9502   -5.4186    0.0000 C   0  0  0  0  0  0  0  0  0  0  0  0
  -11.2494   -6.1684    0.0000 H   0  0  0  0  0  0  0  0  0  0  0  0
   -8.6512   -6.1686    0.0000 C   0  0  0  0  0  0  0  0  0  0  0  0
   -8.6509   -7.6686    0.0000 H   0  0  0  0  0  0  0  0  0  0  0  0
   -7.3517   -5.4178    0.0000 C   0  0  0  0  0  0  0  0  0  0  0  0
   -7.3512   -3.9170    0.0000 C   0  0  0  0  0  0  0  0  0  0  0  0
   -6.0517   -3.1661    0.0000 C   0  0  0  0  0  0  0  0  0  0  0  0
   -4.7526   -3.9161    0.0000 O   0  0  0  0  0  0  0  0  0  0  0  0
   -6.0512   -1.6653    0.0000 C   0  0  0  0  0  0  0  0  0  0  0  0
   -4.7517   -0.9145    0.0000 C   0  0  0  0  0  0  0  0  0  0  0  0
   -4.7512    0.5864    0.0000 C   0  0  0  0  0  0  0  0  0  0  0  0
   -3.4520    1.3361    0.0000 H   0  0  0  0  0  0  0  0  0  0  0  0
   -6.0502    1.3364    0.0000 C   0  0  0  0  0  0  0  0  0  0  0  0
   -7.3497    0.5855    0.0000 C   0  0  0  0  0  0  0  0  0  0  0  0
   -8.6488    1.3355    0.0000 H   0  0  0  0  0  0  0  0  0  0  0  0
   -7.3502   -0.9153    0.0000 C   0  0  0  0  0  0  0  0  0  0  0  0
   -6.0505    2.8364    0.0000 C   0  0  0  0  0  0  0  0  0  0  0  0
   -7.3496    3.5861    0.0000 O   0  0  0  0  0  0  0  0  0  0  0  0
   -4.7515    3.5866    0.0000 O   0  0  0  0  0  0  0  0  0  0  0  0
   -4.7518    5.0866    0.0000 H   0  0  0  0  0  0  0  0  0  0  0  0
   -3.4526   -1.6645    0.0000 O   0  0  0  0  0  0  0  0  0  0  0  0
   -2.1536   -0.9145    0.0000 H   0  0  0  0  0  0  0  0  0  0  0  0
   -6.0526   -6.1678    0.0000 O   0  0  0  0  0  0  0  0  0  0  0  0
   -6.0526   -7.6678    0.0000 C   0  0  0  0  0  0  0  0  0  0  0  0
   -7.5304   -7.4107    0.0000 H   0  0  0  0  0  0  0  0  0  0  0  0
   -4.5847   -7.4125    0.0000 C   0  0  0  0  0  0  0  0  0  0  0  0
   -3.6097   -8.5827    0.0000 C   0  0  0  0  0  0  0  0  0  0  0  0
   -4.1356   -9.9937    0.0000 C   0  0  0  0  0  0  0  0  0  0  0  0
   -4.1418  -11.4937    0.0000 H   0  0  0  0  0  0  0  0  0  0  0  0
   -5.6036  -10.2491    0.0000 C   0  0  0  0  0  0  0  0  0  0  0  0
   -6.9045  -10.9958    0.0000 H   0  0  0  0  0  0  0  0  0  0  0  0
   -4.7678  -12.5627    0.0000 C   0  0  0  0  0  0  0  0  0  0  0  0
   -4.7714  -14.0627    0.0000 H   0  0  0  0  0  0  0  0  0  0  0  0
   -6.2456  -12.8196    0.0000 H   0  0  0  0  0  0  0  0  0  0  0  0
   -3.2912  -12.8267    0.0000 O   0  0  0  0  0  0  0  0  0  0  0  0
   -2.7816  -14.2375    0.0000 H   0  0  0  0  0  0  0  0  0  0  0  0
   -6.5653   -9.0968    0.0000 O   0  0  0  0  0  0  0  0  0  0  0  0
   -2.6600  -10.2629    0.0000 O   0  0  0  0  0  0  0  0  0  0  0  0
   -2.1553  -11.6755    0.0000 H   0  0  0  0  0  0  0  0  0  0  0  0
   -2.1310   -8.3305    0.0000 O   0  0  0  0  0  0  0  0  0  0  0  0
   -1.1733   -9.4850    0.0000 H   0  0  0  0  0  0  0  0  0  0  0  0
   -4.0676   -6.0044    0.0000 O   0  0  0  0  0  0  0  0  0  0  0  0
   -2.5896   -5.7482    0.0000 H   0  0  0  0  0  0  0  0  0  0  0  0
  -16.2695   -2.0947    0.0000 O   0  0  0  0  0  0  0  0  0  0  0  0
  -17.5686   -2.8447    0.0000 C   0  0  0  0  0  0  0  0  0  0  0  0
  -16.6070   -3.9960    0.0000 H   0  0  0  0  0  0  0  0  0  0  0  0
  -18.0814   -1.4458    0.0000 C   0  0  0  0  0  0  0  0  0  0  0  0
  -18.0860    0.0542    0.0000 H   0  0  0  0  0  0  0  0  0  0  0  0
  -19.5823   -1.1865    0.0000 C   0  0  0  0  0  0  0  0  0  0  0  0
  -20.8861   -0.4447    0.0000 H   0  0  0  0  0  0  0  0  0  0  0  0
  -20.5413   -2.3475    0.0000 C   0  0  0  0  0  0  0  0  0  0  0  0
  -21.8373   -3.1029    0.0000 H   0  0  0  0  0  0  0  0  0  0  0  0
  -20.0285   -3.7465    0.0000 C   0  0  0  0  0  0  0  0  0  0  0  0
  -20.0247   -5.2465    0.0000 H   0  0  0  0  0  0  0  0  0  0  0  0
  -22.4501   -4.1795    0.0000 C   0  0  0  0  0  0  0  0  0  0  0  0
  -23.7473   -4.9326    0.0000 H   0  0  0  0  0  0  0  0  0  0  0  0
  -21.9337   -5.5878    0.0000 H   0  0  0  0  0  0  0  0  0  0  0  0
  -23.4170   -3.0328    0.0000 O   0  0  0  0  0  0  0  0  0  0  0  0
  -24.8936   -3.2968    0.0000 H   0  0  0  0  0  0  0  0  0  0  0  0
  -18.5498   -4.0032    0.0000 O   0  0  0  0  0  0  0  0  0  0  0  0
  -21.5123   -1.2042    0.0000 O   0  0  0  0  0  0  0  0  0  0  0  0
  -22.9879   -1.4734    0.0000 H   0  0  0  0  0  0  0  0  0  0  0  0
  -19.0762    0.2255    0.0000 O   0  0  0  0  0  0  0  0  0  0  0  0
  -20.0460    1.3698    0.0000 H   0  0  0  0  0  0  0  0  0  0  0  0
  -16.6049   -1.1813    0.0000 O   0  0  0  0  0  0  0  0  0  0  0  0
  -16.0957    0.2296    0.0000 H   0  0  0  0  0  0  0  0  0  0  0  0
  1  2  1  0  0  0  0 
  1  3  2  0  0  0  0 
  3  4  1  0  0  0  0 
  3  5  1  0  0  0  0 
  5  6  2  0  0  0  0 
  6  7  1  0  0  0  0 
  7  8  2  0  0  0  0 
  1  8  1  0  0  0  0 
  8  9  1  0  0  0  0 
  7 10  1  0  0  0  0 
 10 11  1  0  0  0  0 
 10 12  1  0  0  0  0 
 12 13  2  0  0  0  0 
 13 14  1  0  0  0  0 
 13 15  1  0  0  0  0 
 15 16  2  0  0  0  0 
 16 17  1  0  0  0  0 
 16 18  1  0  0  0  0 
 18 19  2  0  0  0  0 
 12 19  1  0  0  0  0 
 19 20  1  0  0  0  0 
  6 20  1  0  0  0  0 
 20 21  2  0  0  0  0 
 18 22  1  0  0  0  0 
 22 23  1  0  0  0  0 
 15 24  1  0  0  0  0 
 24 25  2  0  0  0  0 
 24 26  1  0  0  0  0 
 26 27  1  0  0  0  0 
 10 28  1  0  0  0  0 
 28 29  1  0  0  0  0 
 28 30  1  0  0  0  0 
 30 31  2  0  0  0  0 
 31 32  1  0  0  0  0 
 31 33  1  0  0  0  0 
 33 34  1  0  0  0  0 
 33 35  2  0  0  0  0 
 35 36  1  0  0  0  0 
 35 37  1  0  0  0  0 
 37 38  2  0  0  0  0 
 30 38  1  0  0  0  0 
 38 39  1  0  0  0  0 
 39 40  2  0  0  0  0 
 39 41  1  0  0  0  0 
 41 42  2  0  0  0  0 
 42 43  1  0  0  0  0 
 43 44  1  0  0  0  0 
 43 45  2  0  0  0  0 
 45 46  1  0  0  0  0 
 46 47  1  0  0  0  0 
 46 48  2  0  0  0  0 
 28 48  1  0  0  0  0 
 41 48  1  0  0  0  0 
 45 49  1  0  0  0  0 
 49 50  2  0  0  0  0 
 49 51  1  0  0  0  0 
 51 52  1  0  0  0  0 
 42 53  1  0  0  0  0 
 53 54  1  0  0  0  0 
 37 55  1  0  0  0  0 
 55 56  1  0  0  0  0 
 56 57  1  0  0  0  0 
 56 58  1  0  0  0  0 
 58 59  2  0  0  0  0 
 59 60  1  0  0  0  0 
 60 61  1  0  0  0  0 
 60 62  1  0  0  0  0 
 62 63  1  0  0  0  0 
 62 64  1  0  0  0  0 
 64 65  1  0  0  0  0 
 64 66  1  0  0  0  0 
 64 67  1  0  0  0  0 
 67 68  1  0  0  0  0 
 62 69  1  0  0  0  0 
 56 69  1  0  0  0  0 
 60 70  1  0  0  0  0 
 70 71  1  0  0  0  0 
 59 72  1  0  0  0  0 
 72 73  1  0  0  0  0 
 58 74  1  0  0  0  0 
 74 75  1  0  0  0  0 
  5 76  1  0  0  0  0 
 76 77  1  0  0  0  0 
 77 78  1  0  0  0  0 
 77 79  1  0  0  0  0 
 79 80  1  0  0  0  0 
 79 81  1  0  0  0  0 
 81 82  1  0  0  0  0 
 81 83  1  0  0  0  0 
 83 84  1  0  0  0  0 
 83 85  1  0  0  0  0 
 85 86  1  0  0  0  0 
 85 87  1  0  0  0  0 
 87 88  1  0  0  0  0 
 87 89  1  0  0  0  0 
 87 90  1  0  0  0  0 
 90 91  1  0  0  0  0 
 85 92  1  0  0  0  0 
 77 92  1  0  0  0  0 
 83 93  1  0  0  0  0 
 93 94  1  0  0  0  0 
 81 95  1  0  0  0  0 
 95 96  1  0  0  0  0 
 79 97  1  0  0  0  0 
 97 98  1  0  0  0  0 
M  END
> <Rank>
32

> <Priority_score>
0.0048000000000000004

> <Reaction_type>
alkyl dehydrogenation

> <Parent_ID>
79

> <Parent_InChI>
InChI=1S/C42H38O20/c43-11-23-31(47)35(51)37(53)41(61-23)59-21-5-1-3-15-25(17-7-13(39(55)56)9-19(45)27(17)33(49)29(15)21)26-16-4-2-6-22(60-42-38(54)36(52)32(48)24(12-44)62-42)30(16)34(50)28-18(26)8-14(40(57)58)10-20(28)46/h1-10,23-26,31-32,35-38,41-48,51-54H,11-12H2,(H,55,56)(H,57,58)

> <Parent_SMILES>
O=C(O)c1cc(O)c2c(c1)C(C1c3cc(C(=O)O)cc(O)c3C(=O)c3c(OC4OC(CO)C(O)C(O)C4O)cccc31)c1cccc(OC3OC(CO)C(O)C(O)C3O)c1C2=O

$$$$
Molecule 79_metabolite 33
  CDK     0516241031

 98105  0  0  0  0  0  0  0  0999 V2000
  -12.2868    2.7602    0.0000 C   0  0  0  0  0  0  0  0  0  0  0  0
  -11.7738    4.1698    0.0000 H   0  0  0  0  0  0  0  0  0  0  0  0
  -13.7639    2.4995    0.0000 C   0  0  0  0  0  0  0  0  0  0  0  0
  -14.7285    3.6482    0.0000 H   0  0  0  0  0  0  0  0  0  0  0  0
  -14.2765    1.0889    0.0000 C   0  0  0  0  0  0  0  0  0  0  0  0
  -13.3119   -0.0609    0.0000 C   0  0  0  0  0  0  0  0  0  0  0  0
  -11.8347    0.1998    0.0000 C   0  0  0  0  0  0  0  0  0  0  0  0
  -11.3222    1.6104    0.0000 C   0  0  0  0  0  0  0  0  0  0  0  0
   -9.8450    1.8712    0.0000 H   0  0  0  0  0  0  0  0  0  0  0  0
  -10.8701   -0.9500    0.0000 C   0  0  0  0  0  0  0  0  0  0  0  0
   -9.9061    0.1992    0.0000 H   0  0  0  0  0  0  0  0  0  0  0  0
  -11.3827   -2.3606    0.0000 C   0  0  0  0  0  0  0  0  0  0  0  0
  -10.4181   -3.5104    0.0000 C   0  0  0  0  0  0  0  0  0  0  0  0
   -8.9409   -3.2496    0.0000 H   0  0  0  0  0  0  0  0  0  0  0  0
  -10.9307   -4.9210    0.0000 C   0  0  0  0  0  0  0  0  0  0  0  0
  -12.4078   -5.1818    0.0000 C   0  0  0  0  0  0  0  0  0  0  0  0
  -12.9208   -6.5913    0.0000 H   0  0  0  0  0  0  0  0  0  0  0  0
  -13.3724   -4.0319    0.0000 C   0  0  0  0  0  0  0  0  0  0  0  0
  -12.8599   -2.6213    0.0000 C   0  0  0  0  0  0  0  0  0  0  0  0
  -13.8244   -1.4715    0.0000 C   0  0  0  0  0  0  0  0  0  0  0  0
  -15.3016   -1.7323    0.0000 O   0  0  0  0  0  0  0  0  0  0  0  0
  -14.8496   -4.2927    0.0000 O   0  0  0  0  0  0  0  0  0  0  0  0
  -15.3623   -5.7024    0.0000 H   0  0  0  0  0  0  0  0  0  0  0  0
   -9.9661   -6.0697    0.0000 C   0  0  0  0  0  0  0  0  0  0  0  0
   -8.4889   -5.8086    0.0000 O   0  0  0  0  0  0  0  0  0  0  0  0
  -10.4786   -7.4794    0.0000 O   0  0  0  0  0  0  0  0  0  0  0  0
   -9.5139   -8.6281    0.0000 H   0  0  0  0  0  0  0  0  0  0  0  0
   -8.7393   -2.1793    0.0000 C   0  0  0  0  0  0  0  0  0  0  0  0
   -9.7034   -3.3285    0.0000 H   0  0  0  0  0  0  0  0  0  0  0  0
   -8.2268   -0.7687    0.0000 C   0  0  0  0  0  0  0  0  0  0  0  0
   -9.1914    0.3811    0.0000 C   0  0  0  0  0  0  0  0  0  0  0  0
  -10.6685    0.1203    0.0000 H   0  0  0  0  0  0  0  0  0  0  0  0
   -8.6788    1.7917    0.0000 C   0  0  0  0  0  0  0  0  0  0  0  0
   -9.6434    2.9404    0.0000 H   0  0  0  0  0  0  0  0  0  0  0  0
   -7.2016    2.0525    0.0000 C   0  0  0  0  0  0  0  0  0  0  0  0
   -6.6887    3.4621    0.0000 H   0  0  0  0  0  0  0  0  0  0  0  0
   -6.2370    0.9027    0.0000 C   0  0  0  0  0  0  0  0  0  0  0  0
   -6.7496   -0.5079    0.0000 C   0  0  0  0  0  0  0  0  0  0  0  0
   -5.7850   -1.6577    0.0000 C   0  0  0  0  0  0  0  0  0  0  0  0
   -4.3079   -1.3969    0.0000 O   0  0  0  0  0  0  0  0  0  0  0  0
   -6.2976   -3.0683    0.0000 C   0  0  0  0  0  0  0  0  0  0  0  0
   -5.3330   -4.2181    0.0000 C   0  0  0  0  0  0  0  0  0  0  0  0
   -5.8455   -5.6287    0.0000 C   0  0  0  0  0  0  0  0  0  0  0  0
   -4.8809   -6.7774    0.0000 H   0  0  0  0  0  0  0  0  0  0  0  0
   -7.3227   -5.8895    0.0000 C   0  0  0  0  0  0  0  0  0  0  0  0
   -8.2873   -4.7397    0.0000 C   0  0  0  0  0  0  0  0  0  0  0  0
   -9.7644   -5.0005    0.0000 H   0  0  0  0  0  0  0  0  0  0  0  0
   -7.7747   -3.3291    0.0000 C   0  0  0  0  0  0  0  0  0  0  0  0
   -7.8356   -7.2991    0.0000 C   0  0  0  0  0  0  0  0  0  0  0  0
   -9.3128   -7.5596    0.0000 O   0  0  0  0  0  0  0  0  0  0  0  0
   -6.8714   -8.4481    0.0000 O   0  0  0  0  0  0  0  0  0  0  0  0
   -7.3844   -9.8576    0.0000 H   0  0  0  0  0  0  0  0  0  0  0  0
   -3.8558   -3.9573    0.0000 O   0  0  0  0  0  0  0  0  0  0  0  0
   -2.8914   -5.1062    0.0000 H   0  0  0  0  0  0  0  0  0  0  0  0
   -4.7599    1.1635    0.0000 O   0  0  0  0  0  0  0  0  0  0  0  0
   -4.2472    2.5731    0.0000 C   0  0  0  0  0  0  0  0  0  0  0  0
   -5.7238    2.8367    0.0000 H   0  0  0  0  0  0  0  0  0  0  0  0
   -2.9549    1.8314    0.0000 C   0  0  0  0  0  0  0  0  0  0  0  0
   -1.9869    0.6855    0.0000 H   0  0  0  0  0  0  0  0  0  0  0  0
   -1.6387    2.5978    0.0000 C   0  0  0  0  0  0  0  0  0  0  0  0
   -0.1632    2.8680    0.0000 H   0  0  0  0  0  0  0  0  0  0  0  0
   -1.6506    4.1037    0.0000 C   0  0  0  0  0  0  0  0  0  0  0  0
   -1.1437    5.5154    0.0000 H   0  0  0  0  0  0  0  0  0  0  0  0
   -2.9429    4.8454    0.0000 C   0  0  0  0  0  0  0  0  0  0  0  0
   -3.9102    5.9918    0.0000 H   0  0  0  0  0  0  0  0  0  0  0  0
   -1.3666    6.7340    0.0000 C   0  0  0  0  0  0  0  0  0  0  0  0
   -0.8572    8.1449    0.0000 H   0  0  0  0  0  0  0  0  0  0  0  0
   -2.6676    7.4806    0.0000 H   0  0  0  0  0  0  0  0  0  0  0  0
    0.1113    6.4774    0.0000 O   0  0  0  0  0  0  0  0  0  0  0  0
    1.0725    7.6290    0.0000 H   0  0  0  0  0  0  0  0  0  0  0  0
   -4.2405    4.0913    0.0000 O   0  0  0  0  0  0  0  0  0  0  0  0
   -0.1718    3.8523    0.0000 O   0  0  0  0  0  0  0  0  0  0  0  0
    0.7853    5.0072    0.0000 H   0  0  0  0  0  0  0  0  0  0  0  0
   -1.1184    1.1910    0.0000 O   0  0  0  0  0  0  0  0  0  0  0  0
    0.3601    0.9381    0.0000 H   0  0  0  0  0  0  0  0  0  0  0  0
   -3.9157    0.6795    0.0000 O   0  0  0  0  0  0  0  0  0  0  0  0
   -3.3986   -0.7285    0.0000 H   0  0  0  0  0  0  0  0  0  0  0  0
  -15.7536    0.8281    0.0000 O   0  0  0  0  0  0  0  0  0  0  0  0
  -16.7181    1.9769    0.0000 C   0  0  0  0  0  0  0  0  0  0  0  0
  -15.4209    2.7302    0.0000 H   0  0  0  0  0  0  0  0  0  0  0  0
  -17.6782    0.8375    0.0000 C   0  0  0  0  0  0  0  0  0  0  0  0
  -18.1953   -0.5705    0.0000 H   0  0  0  0  0  0  0  0  0  0  0  0
  -19.1773    1.1069    0.0000 C   0  0  0  0  0  0  0  0  0  0  0  0
  -20.6561    0.8555    0.0000 H   0  0  0  0  0  0  0  0  0  0  0  0
  -19.6817    2.5258    0.0000 C   0  0  0  0  0  0  0  0  0  0  0  0
  -20.6414    3.6786    0.0000 H   0  0  0  0  0  0  0  0  0  0  0  0
  -18.7216    3.6652    0.0000 C   0  0  0  0  0  0  0  0  0  0  0  0
  -19.2314    5.0759    0.0000 C   0  0  0  0  0  0  0  0  0  0  0  0
  -18.2647    6.2228    0.0000 H   0  0  0  0  0  0  0  0  0  0  0  0
  -20.7081    5.3397    0.0000 O   0  0  0  0  0  0  0  0  0  0  0  0
  -21.2179    6.7504    0.0000 H   0  0  0  0  0  0  0  0  0  0  0  0
  -17.2442    3.4010    0.0000 O   0  0  0  0  0  0  0  0  0  0  0  0
  -20.9850    1.7832    0.0000 O   0  0  0  0  0  0  0  0  0  0  0  0
  -22.2797    2.5407    0.0000 H   0  0  0  0  0  0  0  0  0  0  0  0
  -19.1844   -0.3930    0.0000 O   0  0  0  0  0  0  0  0  0  0  0  0
  -20.4869   -1.1369    0.0000 H   0  0  0  0  0  0  0  0  0  0  0  0
  -16.3810    0.0843    0.0000 O   0  0  0  0  0  0  0  0  0  0  0  0
  -16.3848   -1.4157    0.0000 H   0  0  0  0  0  0  0  0  0  0  0  0
  1  2  1  0  0  0  0 
  1  3  2  0  0  0  0 
  3  4  1  0  0  0  0 
  3  5  1  0  0  0  0 
  5  6  2  0  0  0  0 
  6  7  1  0  0  0  0 
  7  8  2  0  0  0  0 
  1  8  1  0  0  0  0 
  8  9  1  0  0  0  0 
  7 10  1  0  0  0  0 
 10 11  1  0  0  0  0 
 10 12  1  0  0  0  0 
 12 13  2  0  0  0  0 
 13 14  1  0  0  0  0 
 13 15  1  0  0  0  0 
 15 16  2  0  0  0  0 
 16 17  1  0  0  0  0 
 16 18  1  0  0  0  0 
 18 19  2  0  0  0  0 
 12 19  1  0  0  0  0 
 19 20  1  0  0  0  0 
  6 20  1  0  0  0  0 
 20 21  2  0  0  0  0 
 18 22  1  0  0  0  0 
 22 23  1  0  0  0  0 
 15 24  1  0  0  0  0 
 24 25  2  0  0  0  0 
 24 26  1  0  0  0  0 
 26 27  1  0  0  0  0 
 10 28  1  0  0  0  0 
 28 29  1  0  0  0  0 
 28 30  1  0  0  0  0 
 30 31  2  0  0  0  0 
 31 32  1  0  0  0  0 
 31 33  1  0  0  0  0 
 33 34  1  0  0  0  0 
 33 35  2  0  0  0  0 
 35 36  1  0  0  0  0 
 35 37  1  0  0  0  0 
 37 38  2  0  0  0  0 
 30 38  1  0  0  0  0 
 38 39  1  0  0  0  0 
 39 40  2  0  0  0  0 
 39 41  1  0  0  0  0 
 41 42  2  0  0  0  0 
 42 43  1  0  0  0  0 
 43 44  1  0  0  0  0 
 43 45  2  0  0  0  0 
 45 46  1  0  0  0  0 
 46 47  1  0  0  0  0 
 46 48  2  0  0  0  0 
 28 48  1  0  0  0  0 
 41 48  1  0  0  0  0 
 45 49  1  0  0  0  0 
 49 50  2  0  0  0  0 
 49 51  1  0  0  0  0 
 51 52  1  0  0  0  0 
 42 53  1  0  0  0  0 
 53 54  1  0  0  0  0 
 37 55  1  0  0  0  0 
 55 56  1  0  0  0  0 
 56 57  1  0  0  0  0 
 56 58  1  0  0  0  0 
 58 59  1  0  0  0  0 
 58 60  1  0  0  0  0 
 60 61  1  0  0  0  0 
 60 62  1  0  0  0  0 
 62 63  1  0  0  0  0 
 62 64  1  0  0  0  0 
 64 65  1  0  0  0  0 
 64 66  1  0  0  0  0 
 66 67  1  0  0  0  0 
 66 68  1  0  0  0  0 
 66 69  1  0  0  0  0 
 69 70  1  0  0  0  0 
 64 71  1  0  0  0  0 
 56 71  1  0  0  0  0 
 62 72  1  0  0  0  0 
 72 73  1  0  0  0  0 
 60 74  1  0  0  0  0 
 74 75  1  0  0  0  0 
 58 76  1  0  0  0  0 
 76 77  1  0  0  0  0 
  5 78  1  0  0  0  0 
 78 79  1  0  0  0  0 
 79 80  1  0  0  0  0 
 79 81  1  0  0  0  0 
 81 82  1  0  0  0  0 
 81 83  1  0  0  0  0 
 83 84  1  0  0  0  0 
 83 85  1  0  0  0  0 
 85 86  1  0  0  0  0 
 85 87  1  0  0  0  0 
 87 88  2  0  0  0  0 
 88 89  1  4  0  0  0 
 88 90  1  0  0  0  0 
 90 91  1  0  0  0  0 
 87 92  1  0  0  0  0 
 79 92  1  0  0  0  0 
 85 93  1  0  0  0  0 
 93 94  1  0  0  0  0 
 83 95  1  0  0  0  0 
 95 96  1  0  0  0  0 
 81 97  1  0  0  0  0 
 97 98  1  0  0  0  0 
M  END
> <Rank>
33

> <Priority_score>
0.0024000000000000002

> <Reaction_type>
alkyl dehydrogenation

> <Parent_ID>
79

> <Parent_InChI>
InChI=1S/C42H38O20/c43-11-23-31(47)35(51)37(53)41(61-23)59-21-5-1-3-15-25(17-7-13(39(55)56)9-19(45)27(17)33(49)29(15)21)26-16-4-2-6-22(60-42-38(54)36(52)32(48)24(12-44)62-42)30(16)34(50)28-18(26)8-14(40(57)58)10-20(28)46/h1-10,23-26,31-32,35-38,41-48,51-54H,11-12H2,(H,55,56)(H,57,58)

> <Parent_SMILES>
O=C(O)c1cc(O)c2c(c1)C(C1c3cc(C(=O)O)cc(O)c3C(=O)c3c(OC4OC(CO)C(O)C(O)C4O)cccc31)c1cccc(OC3OC(CO)C(O)C(O)C3O)c1C2=O

$$$$
Molecule 79_metabolite 34
  CDK     0516241031

101108  0  0  0  0  0  0  0  0999 V2000
  -10.8413    3.0154    0.0000 C   0  0  0  0  0  0  0  0  0  0  0  0
  -10.3283    4.4250    0.0000 H   0  0  0  0  0  0  0  0  0  0  0  0
  -12.3184    2.7547    0.0000 C   0  0  0  0  0  0  0  0  0  0  0  0
  -13.2831    3.9034    0.0000 H   0  0  0  0  0  0  0  0  0  0  0  0
  -12.8310    1.3441    0.0000 C   0  0  0  0  0  0  0  0  0  0  0  0
  -11.8664    0.1942    0.0000 C   0  0  0  0  0  0  0  0  0  0  0  0
  -10.3893    0.4550    0.0000 C   0  0  0  0  0  0  0  0  0  0  0  0
   -9.8767    1.8656    0.0000 C   0  0  0  0  0  0  0  0  0  0  0  0
   -8.3995    2.1264    0.0000 H   0  0  0  0  0  0  0  0  0  0  0  0
   -9.4247   -0.6948    0.0000 C   0  0  0  0  0  0  0  0  0  0  0  0
   -8.4606    0.4544    0.0000 H   0  0  0  0  0  0  0  0  0  0  0  0
   -9.9372   -2.1054    0.0000 C   0  0  0  0  0  0  0  0  0  0  0  0
   -8.9726   -3.2552    0.0000 C   0  0  0  0  0  0  0  0  0  0  0  0
   -7.4955   -2.9944    0.0000 H   0  0  0  0  0  0  0  0  0  0  0  0
   -9.4852   -4.6658    0.0000 C   0  0  0  0  0  0  0  0  0  0  0  0
  -10.9623   -4.9266    0.0000 C   0  0  0  0  0  0  0  0  0  0  0  0
  -11.4753   -6.3361    0.0000 H   0  0  0  0  0  0  0  0  0  0  0  0
  -11.9269   -3.7768    0.0000 C   0  0  0  0  0  0  0  0  0  0  0  0
  -11.4144   -2.3662    0.0000 C   0  0  0  0  0  0  0  0  0  0  0  0
  -12.3790   -1.2163    0.0000 C   0  0  0  0  0  0  0  0  0  0  0  0
  -13.8561   -1.4771    0.0000 O   0  0  0  0  0  0  0  0  0  0  0  0
  -13.4041   -4.0375    0.0000 O   0  0  0  0  0  0  0  0  0  0  0  0
  -13.9168   -5.4472    0.0000 H   0  0  0  0  0  0  0  0  0  0  0  0
   -8.5206   -5.8145    0.0000 C   0  0  0  0  0  0  0  0  0  0  0  0
   -7.0435   -5.5535    0.0000 O   0  0  0  0  0  0  0  0  0  0  0  0
   -9.0331   -7.2242    0.0000 O   0  0  0  0  0  0  0  0  0  0  0  0
   -8.0685   -8.3729    0.0000 H   0  0  0  0  0  0  0  0  0  0  0  0
   -7.2938   -1.9241    0.0000 C   0  0  0  0  0  0  0  0  0  0  0  0
   -8.2579   -3.0733    0.0000 H   0  0  0  0  0  0  0  0  0  0  0  0
   -6.7813   -0.5135    0.0000 C   0  0  0  0  0  0  0  0  0  0  0  0
   -7.7459    0.6363    0.0000 C   0  0  0  0  0  0  0  0  0  0  0  0
   -9.2230    0.3755    0.0000 H   0  0  0  0  0  0  0  0  0  0  0  0
   -7.2333    2.0469    0.0000 C   0  0  0  0  0  0  0  0  0  0  0  0
   -8.1979    3.1956    0.0000 H   0  0  0  0  0  0  0  0  0  0  0  0
   -5.7562    2.3077    0.0000 C   0  0  0  0  0  0  0  0  0  0  0  0
   -5.2432    3.7173    0.0000 H   0  0  0  0  0  0  0  0  0  0  0  0
   -4.7916    1.1579    0.0000 C   0  0  0  0  0  0  0  0  0  0  0  0
   -5.3041   -0.2527    0.0000 C   0  0  0  0  0  0  0  0  0  0  0  0
   -4.3395   -1.4025    0.0000 C   0  0  0  0  0  0  0  0  0  0  0  0
   -2.8624   -1.1417    0.0000 O   0  0  0  0  0  0  0  0  0  0  0  0
   -4.8521   -2.8131    0.0000 C   0  0  0  0  0  0  0  0  0  0  0  0
   -3.8875   -3.9629    0.0000 C   0  0  0  0  0  0  0  0  0  0  0  0
   -4.4001   -5.3735    0.0000 C   0  0  0  0  0  0  0  0  0  0  0  0
   -3.4355   -6.5222    0.0000 H   0  0  0  0  0  0  0  0  0  0  0  0
   -5.8772   -5.6343    0.0000 C   0  0  0  0  0  0  0  0  0  0  0  0
   -6.8418   -4.4845    0.0000 C   0  0  0  0  0  0  0  0  0  0  0  0
   -8.3190   -4.7453    0.0000 H   0  0  0  0  0  0  0  0  0  0  0  0
   -6.3293   -3.0739    0.0000 C   0  0  0  0  0  0  0  0  0  0  0  0
   -6.3902   -7.0439    0.0000 C   0  0  0  0  0  0  0  0  0  0  0  0
   -7.8674   -7.3044    0.0000 O   0  0  0  0  0  0  0  0  0  0  0  0
   -5.4259   -8.1929    0.0000 O   0  0  0  0  0  0  0  0  0  0  0  0
   -5.9389   -9.6024    0.0000 H   0  0  0  0  0  0  0  0  0  0  0  0
   -2.4103   -3.7021    0.0000 O   0  0  0  0  0  0  0  0  0  0  0  0
   -1.4459   -4.8510    0.0000 H   0  0  0  0  0  0  0  0  0  0  0  0
   -3.3144    1.4187    0.0000 O   0  0  0  0  0  0  0  0  0  0  0  0
   -2.8017    2.8283    0.0000 C   0  0  0  0  0  0  0  0  0  0  0  0
   -4.2789    3.0886    0.0000 H   0  0  0  0  0  0  0  0  0  0  0  0
   -2.8017    4.3283    0.0000 C   0  0  0  0  0  0  0  0  0  0  0  0
   -4.2789    4.0680    0.0000 H   0  0  0  0  0  0  0  0  0  0  0  0
   -1.5017    5.0783    0.0000 C   0  0  0  0  0  0  0  0  0  0  0  0
   -0.2017    4.3283    0.0000 C   0  0  0  0  0  0  0  0  0  0  0  0
    0.3110    5.7380    0.0000 H   0  0  0  0  0  0  0  0  0  0  0  0
   -0.2017    2.8283    0.0000 C   0  0  0  0  0  0  0  0  0  0  0  0
    1.2756    3.0886    0.0000 H   0  0  0  0  0  0  0  0  0  0  0  0
    0.3110    1.4187    0.0000 C   0  0  0  0  0  0  0  0  0  0  0  0
    0.3107   -0.0813    0.0000 H   0  0  0  0  0  0  0  0  0  0  0  0
   -1.1662    1.1585    0.0000 H   0  0  0  0  0  0  0  0  0  0  0  0
    1.7882    1.1579    0.0000 O   0  0  0  0  0  0  0  0  0  0  0  0
    2.7526    2.3068    0.0000 H   0  0  0  0  0  0  0  0  0  0  0  0
   -1.5017    2.0783    0.0000 O   0  0  0  0  0  0  0  0  0  0  0  0
    1.2756    4.0680    0.0000 O   0  0  0  0  0  0  0  0  0  0  0  0
    2.2396    5.2172    0.0000 H   0  0  0  0  0  0  0  0  0  0  0  0
   -2.4657    6.2275    0.0000 O   0  0  0  0  0  0  0  0  0  0  0  0
   -1.9526    7.6370    0.0000 H   0  0  0  0  0  0  0  0  0  0  0  0
   -0.5376    6.2275    0.0000 O   0  0  0  0  0  0  0  0  0  0  0  0
   -1.0508    7.6370    0.0000 H   0  0  0  0  0  0  0  0  0  0  0  0
   -3.3144    5.7380    0.0000 O   0  0  0  0  0  0  0  0  0  0  0  0
   -4.7916    5.9988    0.0000 H   0  0  0  0  0  0  0  0  0  0  0  0
  -14.3082    1.0833    0.0000 O   0  0  0  0  0  0  0  0  0  0  0  0
  -15.2726    2.2321    0.0000 C   0  0  0  0  0  0  0  0  0  0  0  0
  -13.9754    2.9854    0.0000 H   0  0  0  0  0  0  0  0  0  0  0  0
  -16.2327    1.0927    0.0000 C   0  0  0  0  0  0  0  0  0  0  0  0
  -16.7498   -0.3153    0.0000 H   0  0  0  0  0  0  0  0  0  0  0  0
  -17.7319    1.3621    0.0000 C   0  0  0  0  0  0  0  0  0  0  0  0
  -19.2106    1.1107    0.0000 H   0  0  0  0  0  0  0  0  0  0  0  0
  -18.2362    2.7810    0.0000 C   0  0  0  0  0  0  0  0  0  0  0  0
  -19.1959    3.9338    0.0000 H   0  0  0  0  0  0  0  0  0  0  0  0
  -17.2761    3.9204    0.0000 C   0  0  0  0  0  0  0  0  0  0  0  0
  -16.7598    5.3288    0.0000 H   0  0  0  0  0  0  0  0  0  0  0  0
  -19.4038    5.1551    0.0000 C   0  0  0  0  0  0  0  0  0  0  0  0
  -20.3655    6.3063    0.0000 H   0  0  0  0  0  0  0  0  0  0  0  0
  -18.4371    6.3020    0.0000 H   0  0  0  0  0  0  0  0  0  0  0  0
  -20.7045    4.4079    0.0000 O   0  0  0  0  0  0  0  0  0  0  0  0
  -22.0019    5.1608    0.0000 H   0  0  0  0  0  0  0  0  0  0  0  0
  -15.7987    3.6562    0.0000 O   0  0  0  0  0  0  0  0  0  0  0  0
  -19.5395    2.0384    0.0000 O   0  0  0  0  0  0  0  0  0  0  0  0
  -20.8343    2.7958    0.0000 H   0  0  0  0  0  0  0  0  0  0  0  0
  -17.7389   -0.1378    0.0000 O   0  0  0  0  0  0  0  0  0  0  0  0
  -19.0414   -0.8817    0.0000 H   0  0  0  0  0  0  0  0  0  0  0  0
  -14.9356    0.3395    0.0000 O   0  0  0  0  0  0  0  0  0  0  0  0
  -14.9393   -1.1605    0.0000 H   0  0  0  0  0  0  0  0  0  0  0  0
  1  2  1  0  0  0  0 
  1  3  2  0  0  0  0 
  3  4  1  0  0  0  0 
  3  5  1  0  0  0  0 
  5  6  2  0  0  0  0 
  6  7  1  0  0  0  0 
  7  8  2  0  0  0  0 
  1  8  1  0  0  0  0 
  8  9  1  0  0  0  0 
  7 10  1  0  0  0  0 
 10 11  1  0  0  0  0 
 10 12  1  0  0  0  0 
 12 13  2  0  0  0  0 
 13 14  1  0  0  0  0 
 13 15  1  0  0  0  0 
 15 16  2  0  0  0  0 
 16 17  1  0  0  0  0 
 16 18  1  0  0  0  0 
 18 19  2  0  0  0  0 
 12 19  1  0  0  0  0 
 19 20  1  0  0  0  0 
  6 20  1  0  0  0  0 
 20 21  2  0  0  0  0 
 18 22  1  0  0  0  0 
 22 23  1  0  0  0  0 
 15 24  1  0  0  0  0 
 24 25  2  0  0  0  0 
 24 26  1  0  0  0  0 
 26 27  1  0  0  0  0 
 10 28  1  0  0  0  0 
 28 29  1  0  0  0  0 
 28 30  1  0  0  0  0 
 30 31  2  0  0  0  0 
 31 32  1  0  0  0  0 
 31 33  1  0  0  0  0 
 33 34  1  0  0  0  0 
 33 35  2  0  0  0  0 
 35 36  1  0  0  0  0 
 35 37  1  0  0  0  0 
 37 38  2  0  0  0  0 
 30 38  1  0  0  0  0 
 38 39  1  0  0  0  0 
 39 40  2  0  0  0  0 
 39 41  1  0  0  0  0 
 41 42  2  0  0  0  0 
 42 43  1  0  0  0  0 
 43 44  1  0  0  0  0 
 43 45  2  0  0  0  0 
 45 46  1  0  0  0  0 
 46 47  1  0  0  0  0 
 46 48  2  0  0  0  0 
 28 48  1  0  0  0  0 
 41 48  1  0  0  0  0 
 45 49  1  0  0  0  0 
 49 50  2  0  0  0  0 
 49 51  1  0  0  0  0 
 51 52  1  0  0  0  0 
 42 53  1  0  0  0  0 
 53 54  1  0  0  0  0 
 37 55  1  0  0  0  0 
 55 56  1  0  0  0  0 
 56 57  1  0  0  0  0 
 56 58  1  0  0  0  0 
 58 59  1  0  0  0  0 
 58 60  1  0  0  0  0 
 60 61  1  0  0  0  0 
 61 62  1  0  0  0  0 
 61 63  1  0  0  0  0 
 63 64  1  0  0  0  0 
 63 65  1  0  0  0  0 
 65 66  1  0  0  0  0 
 65 67  1  0  0  0  0 
 65 68  1  0  0  0  0 
 68 69  1  0  0  0  0 
 63 70  1  0  0  0  0 
 56 70  1  0  0  0  0 
 61 71  1  0  0  0  0 
 71 72  1  0  0  0  0 
 60 73  1  0  0  0  0 
 73 74  1  0  0  0  0 
 60 75  1  0  0  0  0 
 75 76  1  0  0  0  0 
 58 77  1  0  0  0  0 
 77 78  1  0  0  0  0 
  5 79  1  0  0  0  0 
 79 80  1  0  0  0  0 
 80 81  1  0  0  0  0 
 80 82  1  0  0  0  0 
 82 83  1  0  0  0  0 
 82 84  1  0  0  0  0 
 84 85  1  0  0  0  0 
 84 86  1  0  0  0  0 
 86 87  1  0  0  0  0 
 86 88  1  0  0  0  0 
 88 89  1  0  0  0  0 
 88 90  1  0  0  0  0 
 90 91  1  0  0  0  0 
 90 92  1  0  0  0  0 
 90 93  1  0  0  0  0 
 93 94  1  0  0  0  0 
 88 95  1  0  0  0  0 
 80 95  1  0  0  0  0 
 86 96  1  0  0  0  0 
 96 97  1  0  0  0  0 
 84 98  1  0  0  0  0 
 98 99  1  0  0  0  0 
 82100  1  0  0  0  0 
100101  1  0  0  0  0 
M  END
> <Rank>
34

> <Priority_score>
0.0

> <Reaction_type>
aliphatic hydroxylation

> <Parent_ID>
79

> <Parent_InChI>
InChI=1S/C42H38O20/c43-11-23-31(47)35(51)37(53)41(61-23)59-21-5-1-3-15-25(17-7-13(39(55)56)9-19(45)27(17)33(49)29(15)21)26-16-4-2-6-22(60-42-38(54)36(52)32(48)24(12-44)62-42)30(16)34(50)28-18(26)8-14(40(57)58)10-20(28)46/h1-10,23-26,31-32,35-38,41-48,51-54H,11-12H2,(H,55,56)(H,57,58)

> <Parent_SMILES>
O=C(O)c1cc(O)c2c(c1)C(C1c3cc(C(=O)O)cc(O)c3C(=O)c3c(OC4OC(CO)C(O)C(O)C4O)cccc31)c1cccc(OC3OC(CO)C(O)C(O)C3O)c1C2=O

$$$$
Molecule 79_metabolite 35
  CDK     0516241031

 98105  0  0  0  0  0  0  0  0999 V2000
  -13.3458   -5.9985    0.0000 C   0  0  0  0  0  0  0  0  0  0  0  0
  -13.3455   -7.4985    0.0000 H   0  0  0  0  0  0  0  0  0  0  0  0
  -14.6448   -5.2485    0.0000 C   0  0  0  0  0  0  0  0  0  0  0  0
  -15.9440   -5.9982    0.0000 H   0  0  0  0  0  0  0  0  0  0  0  0
  -14.6443   -3.7476    0.0000 C   0  0  0  0  0  0  0  0  0  0  0  0
  -13.3448   -2.9968    0.0000 C   0  0  0  0  0  0  0  0  0  0  0  0
  -12.0458   -3.7468    0.0000 C   0  0  0  0  0  0  0  0  0  0  0  0
  -12.0462   -5.2476    0.0000 C   0  0  0  0  0  0  0  0  0  0  0  0
  -10.7472   -5.9976    0.0000 H   0  0  0  0  0  0  0  0  0  0  0  0
  -10.7462   -2.9960    0.0000 C   0  0  0  0  0  0  0  0  0  0  0  0
  -10.2331   -4.4054    0.0000 H   0  0  0  0  0  0  0  0  0  0  0  0
  -10.7458   -1.4951    0.0000 C   0  0  0  0  0  0  0  0  0  0  0  0
   -9.4462   -0.7443    0.0000 C   0  0  0  0  0  0  0  0  0  0  0  0
   -8.1472   -1.4943    0.0000 H   0  0  0  0  0  0  0  0  0  0  0  0
   -9.4458    0.7565    0.0000 C   0  0  0  0  0  0  0  0  0  0  0  0
  -10.7448    1.5065    0.0000 C   0  0  0  0  0  0  0  0  0  0  0  0
  -10.7450    3.0065    0.0000 H   0  0  0  0  0  0  0  0  0  0  0  0
  -12.0443    0.7557    0.0000 C   0  0  0  0  0  0  0  0  0  0  0  0
  -12.0448   -0.7451    0.0000 C   0  0  0  0  0  0  0  0  0  0  0  0
  -13.3443   -1.4960    0.0000 C   0  0  0  0  0  0  0  0  0  0  0  0
  -14.6434   -0.7460    0.0000 O   0  0  0  0  0  0  0  0  0  0  0  0
  -13.3434    1.5057    0.0000 O   0  0  0  0  0  0  0  0  0  0  0  0
  -13.3434    3.0057    0.0000 H   0  0  0  0  0  0  0  0  0  0  0  0
   -8.1466    1.5063    0.0000 C   0  0  0  0  0  0  0  0  0  0  0  0
   -6.8477    0.7561    0.0000 O   0  0  0  0  0  0  0  0  0  0  0  0
   -8.1464    3.0063    0.0000 O   0  0  0  0  0  0  0  0  0  0  0  0
   -6.8472    3.7561    0.0000 H   0  0  0  0  0  0  0  0  0  0  0  0
   -8.3236   -2.5690    0.0000 C   0  0  0  0  0  0  0  0  0  0  0  0
   -8.8368   -1.1596    0.0000 H   0  0  0  0  0  0  0  0  0  0  0  0
   -8.3241   -4.0699    0.0000 C   0  0  0  0  0  0  0  0  0  0  0  0
   -9.6236   -4.8207    0.0000 C   0  0  0  0  0  0  0  0  0  0  0  0
  -10.9226   -4.0707    0.0000 H   0  0  0  0  0  0  0  0  0  0  0  0
   -9.6241   -6.3215    0.0000 C   0  0  0  0  0  0  0  0  0  0  0  0
  -10.9232   -7.0713    0.0000 H   0  0  0  0  0  0  0  0  0  0  0  0
   -8.3250   -7.0715    0.0000 C   0  0  0  0  0  0  0  0  0  0  0  0
   -8.3248   -8.5715    0.0000 H   0  0  0  0  0  0  0  0  0  0  0  0
   -7.0255   -6.3207    0.0000 C   0  0  0  0  0  0  0  0  0  0  0  0
   -7.0250   -4.8199    0.0000 C   0  0  0  0  0  0  0  0  0  0  0  0
   -5.7255   -4.0690    0.0000 C   0  0  0  0  0  0  0  0  0  0  0  0
   -4.4265   -4.8190    0.0000 O   0  0  0  0  0  0  0  0  0  0  0  0
   -5.7250   -2.5682    0.0000 C   0  0  0  0  0  0  0  0  0  0  0  0
   -4.4255   -1.8174    0.0000 C   0  0  0  0  0  0  0  0  0  0  0  0
   -4.4250   -0.3165    0.0000 C   0  0  0  0  0  0  0  0  0  0  0  0
   -3.1259    0.4332    0.0000 H   0  0  0  0  0  0  0  0  0  0  0  0
   -5.7241    0.4335    0.0000 C   0  0  0  0  0  0  0  0  0  0  0  0
   -7.0236   -0.3174    0.0000 C   0  0  0  0  0  0  0  0  0  0  0  0
   -8.3226    0.4326    0.0000 H   0  0  0  0  0  0  0  0  0  0  0  0
   -7.0241   -1.8182    0.0000 C   0  0  0  0  0  0  0  0  0  0  0  0
   -5.7243    1.9335    0.0000 C   0  0  0  0  0  0  0  0  0  0  0  0
   -7.0235    2.6832    0.0000 O   0  0  0  0  0  0  0  0  0  0  0  0
   -4.4254    2.6837    0.0000 O   0  0  0  0  0  0  0  0  0  0  0  0
   -4.4256    4.1837    0.0000 H   0  0  0  0  0  0  0  0  0  0  0  0
   -3.1265   -2.5674    0.0000 O   0  0  0  0  0  0  0  0  0  0  0  0
   -1.8274   -1.8174    0.0000 H   0  0  0  0  0  0  0  0  0  0  0  0
   -5.7265   -7.0707    0.0000 O   0  0  0  0  0  0  0  0  0  0  0  0
   -5.7265   -8.5707    0.0000 C   0  0  0  0  0  0  0  0  0  0  0  0
   -7.2043   -8.3136    0.0000 H   0  0  0  0  0  0  0  0  0  0  0  0
   -4.2585   -8.3153    0.0000 C   0  0  0  0  0  0  0  0  0  0  0  0
   -2.9571   -7.5694    0.0000 H   0  0  0  0  0  0  0  0  0  0  0  0
   -3.2835   -9.4856    0.0000 C   0  0  0  0  0  0  0  0  0  0  0  0
   -3.8095  -10.8966    0.0000 C   0  0  0  0  0  0  0  0  0  0  0  0
   -5.2774  -11.1519    0.0000 C   0  0  0  0  0  0  0  0  0  0  0  0
   -6.5784  -11.8987    0.0000 H   0  0  0  0  0  0  0  0  0  0  0  0
   -4.7678  -12.5627    0.0000 C   0  0  0  0  0  0  0  0  0  0  0  0
   -4.7714  -14.0627    0.0000 H   0  0  0  0  0  0  0  0  0  0  0  0
   -6.2456  -12.8196    0.0000 H   0  0  0  0  0  0  0  0  0  0  0  0
   -3.2912  -12.8267    0.0000 O   0  0  0  0  0  0  0  0  0  0  0  0
   -2.7816  -14.2375    0.0000 H   0  0  0  0  0  0  0  0  0  0  0  0
   -6.2391   -9.9997    0.0000 O   0  0  0  0  0  0  0  0  0  0  0  0
   -2.8511  -12.0505    0.0000 O   0  0  0  0  0  0  0  0  0  0  0  0
   -1.3726  -11.7974    0.0000 H   0  0  0  0  0  0  0  0  0  0  0  0
   -1.8049   -9.2334    0.0000 O   0  0  0  0  0  0  0  0  0  0  0  0
   -0.8472  -10.3879    0.0000 H   0  0  0  0  0  0  0  0  0  0  0  0
   -4.7677   -6.9044    0.0000 O   0  0  0  0  0  0  0  0  0  0  0  0
   -3.8004   -5.7580    0.0000 H   0  0  0  0  0  0  0  0  0  0  0  0
  -15.9434   -2.9976    0.0000 O   0  0  0  0  0  0  0  0  0  0  0  0
  -17.2424   -3.7476    0.0000 C   0  0  0  0  0  0  0  0  0  0  0  0
  -16.2809   -4.8989    0.0000 H   0  0  0  0  0  0  0  0  0  0  0  0
  -17.7552   -2.3487    0.0000 C   0  0  0  0  0  0  0  0  0  0  0  0
  -17.7599   -0.8487    0.0000 H   0  0  0  0  0  0  0  0  0  0  0  0
  -19.2562   -2.0894    0.0000 C   0  0  0  0  0  0  0  0  0  0  0  0
  -20.5599   -1.3476    0.0000 H   0  0  0  0  0  0  0  0  0  0  0  0
  -20.2152   -3.2504    0.0000 C   0  0  0  0  0  0  0  0  0  0  0  0
  -21.5111   -4.0057    0.0000 H   0  0  0  0  0  0  0  0  0  0  0  0
  -19.7023   -4.6494    0.0000 C   0  0  0  0  0  0  0  0  0  0  0  0
  -19.6985   -6.1494    0.0000 H   0  0  0  0  0  0  0  0  0  0  0  0
  -22.1239   -5.0824    0.0000 C   0  0  0  0  0  0  0  0  0  0  0  0
  -23.4211   -5.8355    0.0000 H   0  0  0  0  0  0  0  0  0  0  0  0
  -21.6075   -6.4907    0.0000 H   0  0  0  0  0  0  0  0  0  0  0  0
  -23.0909   -3.9356    0.0000 O   0  0  0  0  0  0  0  0  0  0  0  0
  -24.5674   -4.1997    0.0000 H   0  0  0  0  0  0  0  0  0  0  0  0
  -18.2236   -4.9061    0.0000 O   0  0  0  0  0  0  0  0  0  0  0  0
  -21.1861   -2.1071    0.0000 O   0  0  0  0  0  0  0  0  0  0  0  0
  -22.6618   -2.3763    0.0000 H   0  0  0  0  0  0  0  0  0  0  0  0
  -18.7501   -0.6774    0.0000 O   0  0  0  0  0  0  0  0  0  0  0  0
  -19.7199    0.4669    0.0000 H   0  0  0  0  0  0  0  0  0  0  0  0
  -16.2787   -2.0842    0.0000 O   0  0  0  0  0  0  0  0  0  0  0  0
  -15.7695   -0.6733    0.0000 H   0  0  0  0  0  0  0  0  0  0  0  0
  1  2  1  0  0  0  0 
  1  3  2  0  0  0  0 
  3  4  1  0  0  0  0 
  3  5  1  0  0  0  0 
  5  6  2  0  0  0  0 
  6  7  1  0  0  0  0 
  7  8  2  0  0  0  0 
  1  8  1  0  0  0  0 
  8  9  1  0  0  0  0 
  7 10  1  0  0  0  0 
 10 11  1  0  0  0  0 
 10 12  1  0  0  0  0 
 12 13  2  0  0  0  0 
 13 14  1  0  0  0  0 
 13 15  1  0  0  0  0 
 15 16  2  0  0  0  0 
 16 17  1  0  0  0  0 
 16 18  1  0  0  0  0 
 18 19  2  0  0  0  0 
 12 19  1  0  0  0  0 
 19 20  1  0  0  0  0 
  6 20  1  0  0  0  0 
 20 21  2  0  0  0  0 
 18 22  1  0  0  0  0 
 22 23  1  0  0  0  0 
 15 24  1  0  0  0  0 
 24 25  2  0  0  0  0 
 24 26  1  0  0  0  0 
 26 27  1  0  0  0  0 
 10 28  1  0  0  0  0 
 28 29  1  0  0  0  0 
 28 30  1  0  0  0  0 
 30 31  2  0  0  0  0 
 31 32  1  0  0  0  0 
 31 33  1  0  0  0  0 
 33 34  1  0  0  0  0 
 33 35  2  0  0  0  0 
 35 36  1  0  0  0  0 
 35 37  1  0  0  0  0 
 37 38  2  0  0  0  0 
 30 38  1  0  0  0  0 
 38 39  1  0  0  0  0 
 39 40  2  0  0  0  0 
 39 41  1  0  0  0  0 
 41 42  2  0  0  0  0 
 42 43  1  0  0  0  0 
 43 44  1  0  0  0  0 
 43 45  2  0  0  0  0 
 45 46  1  0  0  0  0 
 46 47  1  0  0  0  0 
 46 48  2  0  0  0  0 
 28 48  1  0  0  0  0 
 41 48  1  0  0  0  0 
 45 49  1  0  0  0  0 
 49 50  2  0  0  0  0 
 49 51  1  0  0  0  0 
 51 52  1  0  0  0  0 
 42 53  1  0  0  0  0 
 53 54  1  0  0  0  0 
 37 55  1  0  0  0  0 
 55 56  1  0  0  0  0 
 56 57  1  0  0  0  0 
 56 58  1  0  0  0  0 
 58 59  1  0  0  0  0 
 58 60  1  0  0  0  0 
 60 61  2  0  0  0  0 
 61 62  1  0  0  0  0 
 62 63  1  0  0  0  0 
 62 64  1  0  0  0  0 
 64 65  1  0  0  0  0 
 64 66  1  0  0  0  0 
 64 67  1  0  0  0  0 
 67 68  1  0  0  0  0 
 62 69  1  0  0  0  0 
 56 69  1  0  0  0  0 
 61 70  1  0  0  0  0 
 70 71  1  0  0  0  0 
 60 72  1  0  0  0  0 
 72 73  1  0  0  0  0 
 58 74  1  0  0  0  0 
 74 75  1  0  0  0  0 
  5 76  1  0  0  0  0 
 76 77  1  0  0  0  0 
 77 78  1  0  0  0  0 
 77 79  1  0  0  0  0 
 79 80  1  0  0  0  0 
 79 81  1  0  0  0  0 
 81 82  1  0  0  0  0 
 81 83  1  0  0  0  0 
 83 84  1  0  0  0  0 
 83 85  1  0  0  0  0 
 85 86  1  0  0  0  0 
 85 87  1  0  0  0  0 
 87 88  1  0  0  0  0 
 87 89  1  0  0  0  0 
 87 90  1  0  0  0  0 
 90 91  1  0  0  0  0 
 85 92  1  0  0  0  0 
 77 92  1  0  0  0  0 
 83 93  1  0  0  0  0 
 93 94  1  0  0  0  0 
 81 95  1  0  0  0  0 
 95 96  1  0  0  0  0 
 79 97  1  0  0  0  0 
 97 98  1  0  0  0  0 
M  END
> <Rank>
34

> <Priority_score>
0.0

> <Reaction_type>
alkyl dehydrogenation

> <Parent_ID>
79

> <Parent_InChI>
InChI=1S/C42H38O20/c43-11-23-31(47)35(51)37(53)41(61-23)59-21-5-1-3-15-25(17-7-13(39(55)56)9-19(45)27(17)33(49)29(15)21)26-16-4-2-6-22(60-42-38(54)36(52)32(48)24(12-44)62-42)30(16)34(50)28-18(26)8-14(40(57)58)10-20(28)46/h1-10,23-26,31-32,35-38,41-48,51-54H,11-12H2,(H,55,56)(H,57,58)

> <Parent_SMILES>
O=C(O)c1cc(O)c2c(c1)C(C1c3cc(C(=O)O)cc(O)c3C(=O)c3c(OC4OC(CO)C(O)C(O)C4O)cccc31)c1cccc(OC3OC(CO)C(O)C(O)C3O)c1C2=O

$$$$
Molecule 79_metabolite 36
  CDK     0516241031

 98105  0  0  0  0  0  0  0  0999 V2000
  -11.4564    2.2784    0.0000 C   0  0  0  0  0  0  0  0  0  0  0  0
  -10.9435    3.6880    0.0000 H   0  0  0  0  0  0  0  0  0  0  0  0
  -12.9336    2.0176    0.0000 C   0  0  0  0  0  0  0  0  0  0  0  0
  -13.8982    3.1663    0.0000 H   0  0  0  0  0  0  0  0  0  0  0  0
  -13.4462    0.6070    0.0000 C   0  0  0  0  0  0  0  0  0  0  0  0
  -12.4816   -0.5428    0.0000 C   0  0  0  0  0  0  0  0  0  0  0  0
  -11.0044   -0.2820    0.0000 C   0  0  0  0  0  0  0  0  0  0  0  0
  -10.4918    1.1286    0.0000 C   0  0  0  0  0  0  0  0  0  0  0  0
   -9.0147    1.3894    0.0000 H   0  0  0  0  0  0  0  0  0  0  0  0
  -10.0398   -1.4318    0.0000 C   0  0  0  0  0  0  0  0  0  0  0  0
   -9.0757   -0.2826    0.0000 H   0  0  0  0  0  0  0  0  0  0  0  0
  -10.5524   -2.8424    0.0000 C   0  0  0  0  0  0  0  0  0  0  0  0
   -9.5878   -3.9922    0.0000 C   0  0  0  0  0  0  0  0  0  0  0  0
   -8.1106   -3.7314    0.0000 H   0  0  0  0  0  0  0  0  0  0  0  0
  -10.1003   -5.4028    0.0000 C   0  0  0  0  0  0  0  0  0  0  0  0
  -11.5775   -5.6636    0.0000 C   0  0  0  0  0  0  0  0  0  0  0  0
  -12.0904   -7.0731    0.0000 H   0  0  0  0  0  0  0  0  0  0  0  0
  -12.5421   -4.5138    0.0000 C   0  0  0  0  0  0  0  0  0  0  0  0
  -12.0295   -3.1032    0.0000 C   0  0  0  0  0  0  0  0  0  0  0  0
  -12.9941   -1.9534    0.0000 C   0  0  0  0  0  0  0  0  0  0  0  0
  -14.4713   -2.2142    0.0000 O   0  0  0  0  0  0  0  0  0  0  0  0
  -14.0192   -4.7746    0.0000 O   0  0  0  0  0  0  0  0  0  0  0  0
  -14.5320   -6.1842    0.0000 H   0  0  0  0  0  0  0  0  0  0  0  0
   -9.1357   -6.5515    0.0000 C   0  0  0  0  0  0  0  0  0  0  0  0
   -7.6586   -6.2905    0.0000 O   0  0  0  0  0  0  0  0  0  0  0  0
   -9.6482   -7.9612    0.0000 O   0  0  0  0  0  0  0  0  0  0  0  0
   -8.6836   -9.1099    0.0000 H   0  0  0  0  0  0  0  0  0  0  0  0
   -7.9090   -2.6611    0.0000 C   0  0  0  0  0  0  0  0  0  0  0  0
   -8.8730   -3.8103    0.0000 H   0  0  0  0  0  0  0  0  0  0  0  0
   -7.3964   -1.2505    0.0000 C   0  0  0  0  0  0  0  0  0  0  0  0
   -8.3610   -0.1007    0.0000 C   0  0  0  0  0  0  0  0  0  0  0  0
   -9.8382   -0.3615    0.0000 H   0  0  0  0  0  0  0  0  0  0  0  0
   -7.8485    1.3099    0.0000 C   0  0  0  0  0  0  0  0  0  0  0  0
   -8.8131    2.4586    0.0000 H   0  0  0  0  0  0  0  0  0  0  0  0
   -6.3713    1.5707    0.0000 C   0  0  0  0  0  0  0  0  0  0  0  0
   -5.8583    2.9802    0.0000 H   0  0  0  0  0  0  0  0  0  0  0  0
   -5.4067    0.4209    0.0000 C   0  0  0  0  0  0  0  0  0  0  0  0
   -5.9193   -0.9897    0.0000 C   0  0  0  0  0  0  0  0  0  0  0  0
   -4.9547   -2.1395    0.0000 C   0  0  0  0  0  0  0  0  0  0  0  0
   -3.4775   -1.8787    0.0000 O   0  0  0  0  0  0  0  0  0  0  0  0
   -5.4672   -3.5501    0.0000 C   0  0  0  0  0  0  0  0  0  0  0  0
   -4.5026   -4.6999    0.0000 C   0  0  0  0  0  0  0  0  0  0  0  0
   -5.0152   -6.1105    0.0000 C   0  0  0  0  0  0  0  0  0  0  0  0
   -4.0506   -7.2592    0.0000 H   0  0  0  0  0  0  0  0  0  0  0  0
   -6.4924   -6.3713    0.0000 C   0  0  0  0  0  0  0  0  0  0  0  0
   -7.4570   -5.2215    0.0000 C   0  0  0  0  0  0  0  0  0  0  0  0
   -8.9341   -5.4823    0.0000 H   0  0  0  0  0  0  0  0  0  0  0  0
   -6.9444   -3.8109    0.0000 C   0  0  0  0  0  0  0  0  0  0  0  0
   -7.0053   -7.7809    0.0000 C   0  0  0  0  0  0  0  0  0  0  0  0
   -8.4825   -8.0414    0.0000 O   0  0  0  0  0  0  0  0  0  0  0  0
   -6.0411   -8.9299    0.0000 O   0  0  0  0  0  0  0  0  0  0  0  0
   -6.5540  -10.3395    0.0000 H   0  0  0  0  0  0  0  0  0  0  0  0
   -3.0255   -4.4391    0.0000 O   0  0  0  0  0  0  0  0  0  0  0  0
   -2.0611   -5.5880    0.0000 H   0  0  0  0  0  0  0  0  0  0  0  0
   -3.9296    0.6817    0.0000 O   0  0  0  0  0  0  0  0  0  0  0  0
   -3.4168    2.0913    0.0000 C   0  0  0  0  0  0  0  0  0  0  0  0
   -4.8935    2.3549    0.0000 H   0  0  0  0  0  0  0  0  0  0  0  0
   -2.1246    1.3496    0.0000 C   0  0  0  0  0  0  0  0  0  0  0  0
   -1.1566    0.2037    0.0000 H   0  0  0  0  0  0  0  0  0  0  0  0
   -0.8083    2.1160    0.0000 C   0  0  0  0  0  0  0  0  0  0  0  0
    0.4951    1.3736    0.0000 O   0  0  0  0  0  0  0  0  0  0  0  0
   -0.8203    3.6218    0.0000 C   0  0  0  0  0  0  0  0  0  0  0  0
   -0.3134    5.0336    0.0000 H   0  0  0  0  0  0  0  0  0  0  0  0
   -2.1125    4.3636    0.0000 C   0  0  0  0  0  0  0  0  0  0  0  0
   -3.0798    5.5100    0.0000 H   0  0  0  0  0  0  0  0  0  0  0  0
   -0.5362    6.2522    0.0000 C   0  0  0  0  0  0  0  0  0  0  0  0
   -0.0269    7.6631    0.0000 H   0  0  0  0  0  0  0  0  0  0  0  0
   -1.8372    6.9988    0.0000 H   0  0  0  0  0  0  0  0  0  0  0  0
    0.9417    5.9956    0.0000 O   0  0  0  0  0  0  0  0  0  0  0  0
    1.9028    7.1472    0.0000 H   0  0  0  0  0  0  0  0  0  0  0  0
   -3.4102    3.6095    0.0000 O   0  0  0  0  0  0  0  0  0  0  0  0
    0.6585    3.3704    0.0000 O   0  0  0  0  0  0  0  0  0  0  0  0
    1.6156    4.5254    0.0000 H   0  0  0  0  0  0  0  0  0  0  0  0
   -3.0854    0.1977    0.0000 O   0  0  0  0  0  0  0  0  0  0  0  0
   -2.5683   -1.2104    0.0000 H   0  0  0  0  0  0  0  0  0  0  0  0
  -14.9233    0.3463    0.0000 O   0  0  0  0  0  0  0  0  0  0  0  0
  -15.8877    1.4951    0.0000 C   0  0  0  0  0  0  0  0  0  0  0  0
  -14.5906    2.2484    0.0000 H   0  0  0  0  0  0  0  0  0  0  0  0
  -16.8479    0.3557    0.0000 C   0  0  0  0  0  0  0  0  0  0  0  0
  -17.3650   -1.0523    0.0000 H   0  0  0  0  0  0  0  0  0  0  0  0
  -18.3470    0.6251    0.0000 C   0  0  0  0  0  0  0  0  0  0  0  0
  -19.8258    0.3737    0.0000 H   0  0  0  0  0  0  0  0  0  0  0  0
  -18.8514    2.0440    0.0000 C   0  0  0  0  0  0  0  0  0  0  0  0
  -19.8111    3.1968    0.0000 H   0  0  0  0  0  0  0  0  0  0  0  0
  -17.8913    3.1834    0.0000 C   0  0  0  0  0  0  0  0  0  0  0  0
  -17.3750    4.5918    0.0000 H   0  0  0  0  0  0  0  0  0  0  0  0
  -20.0190    4.4181    0.0000 C   0  0  0  0  0  0  0  0  0  0  0  0
  -20.9806    5.5693    0.0000 H   0  0  0  0  0  0  0  0  0  0  0  0
  -19.0523    5.5650    0.0000 H   0  0  0  0  0  0  0  0  0  0  0  0
  -21.3196    3.6709    0.0000 O   0  0  0  0  0  0  0  0  0  0  0  0
  -22.6170    4.4238    0.0000 H   0  0  0  0  0  0  0  0  0  0  0  0
  -16.4139    2.9192    0.0000 O   0  0  0  0  0  0  0  0  0  0  0  0
  -20.1547    1.3014    0.0000 O   0  0  0  0  0  0  0  0  0  0  0  0
  -21.4494    2.0588    0.0000 H   0  0  0  0  0  0  0  0  0  0  0  0
  -18.3540   -0.8749    0.0000 O   0  0  0  0  0  0  0  0  0  0  0  0
  -19.6566   -1.6188    0.0000 H   0  0  0  0  0  0  0  0  0  0  0  0
  -15.5507   -0.3975    0.0000 O   0  0  0  0  0  0  0  0  0  0  0  0
  -15.5544   -1.8975    0.0000 H   0  0  0  0  0  0  0  0  0  0  0  0
  1  2  1  0  0  0  0 
  1  3  2  0  0  0  0 
  3  4  1  0  0  0  0 
  3  5  1  0  0  0  0 
  5  6  2  0  0  0  0 
  6  7  1  0  0  0  0 
  7  8  2  0  0  0  0 
  1  8  1  0  0  0  0 
  8  9  1  0  0  0  0 
  7 10  1  0  0  0  0 
 10 11  1  0  0  0  0 
 10 12  1  0  0  0  0 
 12 13  2  0  0  0  0 
 13 14  1  0  0  0  0 
 13 15  1  0  0  0  0 
 15 16  2  0  0  0  0 
 16 17  1  0  0  0  0 
 16 18  1  0  0  0  0 
 18 19  2  0  0  0  0 
 12 19  1  0  0  0  0 
 19 20  1  0  0  0  0 
  6 20  1  0  0  0  0 
 20 21  2  0  0  0  0 
 18 22  1  0  0  0  0 
 22 23  1  0  0  0  0 
 15 24  1  0  0  0  0 
 24 25  2  0  0  0  0 
 24 26  1  0  0  0  0 
 26 27  1  0  0  0  0 
 10 28  1  0  0  0  0 
 28 29  1  0  0  0  0 
 28 30  1  0  0  0  0 
 30 31  2  0  0  0  0 
 31 32  1  0  0  0  0 
 31 33  1  0  0  0  0 
 33 34  1  0  0  0  0 
 33 35  2  0  0  0  0 
 35 36  1  0  0  0  0 
 35 37  1  0  0  0  0 
 37 38  2  0  0  0  0 
 30 38  1  0  0  0  0 
 38 39  1  0  0  0  0 
 39 40  2  0  0  0  0 
 39 41  1  0  0  0  0 
 41 42  2  0  0  0  0 
 42 43  1  0  0  0  0 
 43 44  1  0  0  0  0 
 43 45  2  0  0  0  0 
 45 46  1  0  0  0  0 
 46 47  1  0  0  0  0 
 46 48  2  0  0  0  0 
 28 48  1  0  0  0  0 
 41 48  1  0  0  0  0 
 45 49  1  0  0  0  0 
 49 50  2  0  0  0  0 
 49 51  1  0  0  0  0 
 51 52  1  0  0  0  0 
 42 53  1  0  0  0  0 
 53 54  1  0  0  0  0 
 37 55  1  0  0  0  0 
 55 56  1  0  0  0  0 
 56 57  1  0  0  0  0 
 56 58  1  0  0  0  0 
 58 59  1  0  0  0  0 
 58 60  1  0  0  0  0 
 60 61  2  0  0  0  0 
 60 62  1  0  0  0  0 
 62 63  1  0  0  0  0 
 62 64  1  0  0  0  0 
 64 65  1  0  0  0  0 
 64 66  1  0  0  0  0 
 66 67  1  0  0  0  0 
 66 68  1  0  0  0  0 
 66 69  1  0  0  0  0 
 69 70  1  0  0  0  0 
 64 71  1  0  0  0  0 
 56 71  1  0  0  0  0 
 62 72  1  0  0  0  0 
 72 73  1  0  0  0  0 
 58 74  1  0  0  0  0 
 74 75  1  0  0  0  0 
  5 76  1  0  0  0  0 
 76 77  1  0  0  0  0 
 77 78  1  0  0  0  0 
 77 79  1  0  0  0  0 
 79 80  1  0  0  0  0 
 79 81  1  0  0  0  0 
 81 82  1  0  0  0  0 
 81 83  1  0  0  0  0 
 83 84  1  0  0  0  0 
 83 85  1  0  0  0  0 
 85 86  1  0  0  0  0 
 85 87  1  0  0  0  0 
 87 88  1  0  0  0  0 
 87 89  1  0  0  0  0 
 87 90  1  0  0  0  0 
 90 91  1  0  0  0  0 
 85 92  1  0  0  0  0 
 77 92  1  0  0  0  0 
 83 93  1  0  0  0  0 
 93 94  1  0  0  0  0 
 81 95  1  0  0  0  0 
 95 96  1  0  0  0  0 
 79 97  1  0  0  0  0 
 97 98  1  0  0  0  0 
M  END
> <Rank>
34

> <Priority_score>
0.0

> <Reaction_type>
alcohol oxidation

> <Parent_ID>
79

> <Parent_InChI>
InChI=1S/C42H38O20/c43-11-23-31(47)35(51)37(53)41(61-23)59-21-5-1-3-15-25(17-7-13(39(55)56)9-19(45)27(17)33(49)29(15)21)26-16-4-2-6-22(60-42-38(54)36(52)32(48)24(12-44)62-42)30(16)34(50)28-18(26)8-14(40(57)58)10-20(28)46/h1-10,23-26,31-32,35-38,41-48,51-54H,11-12H2,(H,55,56)(H,57,58)

> <Parent_SMILES>
O=C(O)c1cc(O)c2c(c1)C(C1c3cc(C(=O)O)cc(O)c3C(=O)c3c(OC4OC(CO)C(O)C(O)C4O)cccc31)c1cccc(OC3OC(CO)C(O)C(O)C3O)c1C2=O

$$$$
Molecule 79_metabolite 37
  CDK     0516241031

101108  0  0  0  0  0  0  0  0999 V2000
  -10.8413    3.0154    0.0000 C   0  0  0  0  0  0  0  0  0  0  0  0
  -10.3283    4.4250    0.0000 H   0  0  0  0  0  0  0  0  0  0  0  0
  -12.3184    2.7547    0.0000 C   0  0  0  0  0  0  0  0  0  0  0  0
  -13.2831    3.9034    0.0000 H   0  0  0  0  0  0  0  0  0  0  0  0
  -12.8310    1.3441    0.0000 C   0  0  0  0  0  0  0  0  0  0  0  0
  -11.8664    0.1942    0.0000 C   0  0  0  0  0  0  0  0  0  0  0  0
  -10.3893    0.4550    0.0000 C   0  0  0  0  0  0  0  0  0  0  0  0
   -9.8767    1.8656    0.0000 C   0  0  0  0  0  0  0  0  0  0  0  0
   -8.3995    2.1264    0.0000 H   0  0  0  0  0  0  0  0  0  0  0  0
   -9.4247   -0.6948    0.0000 C   0  0  0  0  0  0  0  0  0  0  0  0
   -8.4606    0.4544    0.0000 H   0  0  0  0  0  0  0  0  0  0  0  0
   -9.9372   -2.1054    0.0000 C   0  0  0  0  0  0  0  0  0  0  0  0
   -8.9726   -3.2552    0.0000 C   0  0  0  0  0  0  0  0  0  0  0  0
   -7.4955   -2.9944    0.0000 H   0  0  0  0  0  0  0  0  0  0  0  0
   -9.4852   -4.6658    0.0000 C   0  0  0  0  0  0  0  0  0  0  0  0
  -10.9623   -4.9266    0.0000 C   0  0  0  0  0  0  0  0  0  0  0  0
  -11.4753   -6.3361    0.0000 H   0  0  0  0  0  0  0  0  0  0  0  0
  -11.9269   -3.7768    0.0000 C   0  0  0  0  0  0  0  0  0  0  0  0
  -11.4144   -2.3662    0.0000 C   0  0  0  0  0  0  0  0  0  0  0  0
  -12.3790   -1.2163    0.0000 C   0  0  0  0  0  0  0  0  0  0  0  0
  -13.8561   -1.4771    0.0000 O   0  0  0  0  0  0  0  0  0  0  0  0
  -13.4041   -4.0375    0.0000 O   0  0  0  0  0  0  0  0  0  0  0  0
  -13.9168   -5.4472    0.0000 H   0  0  0  0  0  0  0  0  0  0  0  0
   -8.5206   -5.8145    0.0000 C   0  0  0  0  0  0  0  0  0  0  0  0
   -7.0435   -5.5535    0.0000 O   0  0  0  0  0  0  0  0  0  0  0  0
   -9.0331   -7.2242    0.0000 O   0  0  0  0  0  0  0  0  0  0  0  0
   -8.0685   -8.3729    0.0000 H   0  0  0  0  0  0  0  0  0  0  0  0
   -7.2938   -1.9241    0.0000 C   0  0  0  0  0  0  0  0  0  0  0  0
   -8.2579   -3.0733    0.0000 H   0  0  0  0  0  0  0  0  0  0  0  0
   -6.7813   -0.5135    0.0000 C   0  0  0  0  0  0  0  0  0  0  0  0
   -7.7459    0.6363    0.0000 C   0  0  0  0  0  0  0  0  0  0  0  0
   -9.2230    0.3755    0.0000 H   0  0  0  0  0  0  0  0  0  0  0  0
   -7.2333    2.0469    0.0000 C   0  0  0  0  0  0  0  0  0  0  0  0
   -8.1979    3.1956    0.0000 H   0  0  0  0  0  0  0  0  0  0  0  0
   -5.7562    2.3077    0.0000 C   0  0  0  0  0  0  0  0  0  0  0  0
   -5.2432    3.7173    0.0000 H   0  0  0  0  0  0  0  0  0  0  0  0
   -4.7916    1.1579    0.0000 C   0  0  0  0  0  0  0  0  0  0  0  0
   -5.3041   -0.2527    0.0000 C   0  0  0  0  0  0  0  0  0  0  0  0
   -4.3395   -1.4025    0.0000 C   0  0  0  0  0  0  0  0  0  0  0  0
   -2.8624   -1.1417    0.0000 O   0  0  0  0  0  0  0  0  0  0  0  0
   -4.8521   -2.8131    0.0000 C   0  0  0  0  0  0  0  0  0  0  0  0
   -3.8875   -3.9629    0.0000 C   0  0  0  0  0  0  0  0  0  0  0  0
   -4.4001   -5.3735    0.0000 C   0  0  0  0  0  0  0  0  0  0  0  0
   -3.4355   -6.5222    0.0000 H   0  0  0  0  0  0  0  0  0  0  0  0
   -5.8772   -5.6343    0.0000 C   0  0  0  0  0  0  0  0  0  0  0  0
   -6.8418   -4.4845    0.0000 C   0  0  0  0  0  0  0  0  0  0  0  0
   -8.3190   -4.7453    0.0000 H   0  0  0  0  0  0  0  0  0  0  0  0
   -6.3293   -3.0739    0.0000 C   0  0  0  0  0  0  0  0  0  0  0  0
   -6.3902   -7.0439    0.0000 C   0  0  0  0  0  0  0  0  0  0  0  0
   -7.8674   -7.3044    0.0000 O   0  0  0  0  0  0  0  0  0  0  0  0
   -5.4259   -8.1929    0.0000 O   0  0  0  0  0  0  0  0  0  0  0  0
   -5.9389   -9.6024    0.0000 H   0  0  0  0  0  0  0  0  0  0  0  0
   -2.4103   -3.7021    0.0000 O   0  0  0  0  0  0  0  0  0  0  0  0
   -1.4459   -4.8510    0.0000 H   0  0  0  0  0  0  0  0  0  0  0  0
   -3.3144    1.4187    0.0000 O   0  0  0  0  0  0  0  0  0  0  0  0
   -2.8017    2.8283    0.0000 C   0  0  0  0  0  0  0  0  0  0  0  0
   -4.2789    3.0886    0.0000 H   0  0  0  0  0  0  0  0  0  0  0  0
   -2.8017    4.3283    0.0000 C   0  0  0  0  0  0  0  0  0  0  0  0
   -4.2789    4.0680    0.0000 H   0  0  0  0  0  0  0  0  0  0  0  0
   -1.5017    5.0783    0.0000 C   0  0  0  0  0  0  0  0  0  0  0  0
   -2.4657    6.2275    0.0000 H   0  0  0  0  0  0  0  0  0  0  0  0
   -0.2017    4.3283    0.0000 C   0  0  0  0  0  0  0  0  0  0  0  0
   -0.2017    2.8283    0.0000 C   0  0  0  0  0  0  0  0  0  0  0  0
    1.2756    3.0886    0.0000 H   0  0  0  0  0  0  0  0  0  0  0  0
    0.3110    1.4187    0.0000 C   0  0  0  0  0  0  0  0  0  0  0  0
    0.3107   -0.0813    0.0000 H   0  0  0  0  0  0  0  0  0  0  0  0
   -1.1662    1.1585    0.0000 H   0  0  0  0  0  0  0  0  0  0  0  0
    1.7882    1.1579    0.0000 O   0  0  0  0  0  0  0  0  0  0  0  0
    2.7526    2.3068    0.0000 H   0  0  0  0  0  0  0  0  0  0  0  0
   -1.5017    2.0783    0.0000 O   0  0  0  0  0  0  0  0  0  0  0  0
    0.3110    5.7380    0.0000 O   0  0  0  0  0  0  0  0  0  0  0  0
    1.7882    5.9988    0.0000 H   0  0  0  0  0  0  0  0  0  0  0  0
    1.2756    4.0680    0.0000 O   0  0  0  0  0  0  0  0  0  0  0  0
    2.2396    5.2172    0.0000 H   0  0  0  0  0  0  0  0  0  0  0  0
   -0.5376    6.2275    0.0000 O   0  0  0  0  0  0  0  0  0  0  0  0
   -1.0508    7.6370    0.0000 H   0  0  0  0  0  0  0  0  0  0  0  0
   -3.3144    5.7380    0.0000 O   0  0  0  0  0  0  0  0  0  0  0  0
   -4.7916    5.9988    0.0000 H   0  0  0  0  0  0  0  0  0  0  0  0
  -14.3082    1.0833    0.0000 O   0  0  0  0  0  0  0  0  0  0  0  0
  -15.2726    2.2321    0.0000 C   0  0  0  0  0  0  0  0  0  0  0  0
  -13.9754    2.9854    0.0000 H   0  0  0  0  0  0  0  0  0  0  0  0
  -16.2327    1.0927    0.0000 C   0  0  0  0  0  0  0  0  0  0  0  0
  -16.7498   -0.3153    0.0000 H   0  0  0  0  0  0  0  0  0  0  0  0
  -17.7319    1.3621    0.0000 C   0  0  0  0  0  0  0  0  0  0  0  0
  -19.2106    1.1107    0.0000 H   0  0  0  0  0  0  0  0  0  0  0  0
  -18.2362    2.7810    0.0000 C   0  0  0  0  0  0  0  0  0  0  0  0
  -19.1959    3.9338    0.0000 H   0  0  0  0  0  0  0  0  0  0  0  0
  -17.2761    3.9204    0.0000 C   0  0  0  0  0  0  0  0  0  0  0  0
  -16.7598    5.3288    0.0000 H   0  0  0  0  0  0  0  0  0  0  0  0
  -19.4038    5.1551    0.0000 C   0  0  0  0  0  0  0  0  0  0  0  0
  -20.3655    6.3063    0.0000 H   0  0  0  0  0  0  0  0  0  0  0  0
  -18.4371    6.3020    0.0000 H   0  0  0  0  0  0  0  0  0  0  0  0
  -20.7045    4.4079    0.0000 O   0  0  0  0  0  0  0  0  0  0  0  0
  -22.0019    5.1608    0.0000 H   0  0  0  0  0  0  0  0  0  0  0  0
  -15.7987    3.6562    0.0000 O   0  0  0  0  0  0  0  0  0  0  0  0
  -19.5395    2.0384    0.0000 O   0  0  0  0  0  0  0  0  0  0  0  0
  -20.8343    2.7958    0.0000 H   0  0  0  0  0  0  0  0  0  0  0  0
  -17.7389   -0.1378    0.0000 O   0  0  0  0  0  0  0  0  0  0  0  0
  -19.0414   -0.8817    0.0000 H   0  0  0  0  0  0  0  0  0  0  0  0
  -14.9356    0.3395    0.0000 O   0  0  0  0  0  0  0  0  0  0  0  0
  -14.9393   -1.1605    0.0000 H   0  0  0  0  0  0  0  0  0  0  0  0
  1  2  1  0  0  0  0 
  1  3  2  0  0  0  0 
  3  4  1  0  0  0  0 
  3  5  1  0  0  0  0 
  5  6  2  0  0  0  0 
  6  7  1  0  0  0  0 
  7  8  2  0  0  0  0 
  1  8  1  0  0  0  0 
  8  9  1  0  0  0  0 
  7 10  1  0  0  0  0 
 10 11  1  0  0  0  0 
 10 12  1  0  0  0  0 
 12 13  2  0  0  0  0 
 13 14  1  0  0  0  0 
 13 15  1  0  0  0  0 
 15 16  2  0  0  0  0 
 16 17  1  0  0  0  0 
 16 18  1  0  0  0  0 
 18 19  2  0  0  0  0 
 12 19  1  0  0  0  0 
 19 20  1  0  0  0  0 
  6 20  1  0  0  0  0 
 20 21  2  0  0  0  0 
 18 22  1  0  0  0  0 
 22 23  1  0  0  0  0 
 15 24  1  0  0  0  0 
 24 25  2  0  0  0  0 
 24 26  1  0  0  0  0 
 26 27  1  0  0  0  0 
 10 28  1  0  0  0  0 
 28 29  1  0  0  0  0 
 28 30  1  0  0  0  0 
 30 31  2  0  0  0  0 
 31 32  1  0  0  0  0 
 31 33  1  0  0  0  0 
 33 34  1  0  0  0  0 
 33 35  2  0  0  0  0 
 35 36  1  0  0  0  0 
 35 37  1  0  0  0  0 
 37 38  2  0  0  0  0 
 30 38  1  0  0  0  0 
 38 39  1  0  0  0  0 
 39 40  2  0  0  0  0 
 39 41  1  0  0  0  0 
 41 42  2  0  0  0  0 
 42 43  1  0  0  0  0 
 43 44  1  0  0  0  0 
 43 45  2  0  0  0  0 
 45 46  1  0  0  0  0 
 46 47  1  0  0  0  0 
 46 48  2  0  0  0  0 
 28 48  1  0  0  0  0 
 41 48  1  0  0  0  0 
 45 49  1  0  0  0  0 
 49 50  2  0  0  0  0 
 49 51  1  0  0  0  0 
 51 52  1  0  0  0  0 
 42 53  1  0  0  0  0 
 53 54  1  0  0  0  0 
 37 55  1  0  0  0  0 
 55 56  1  0  0  0  0 
 56 57  1  0  0  0  0 
 56 58  1  0  0  0  0 
 58 59  1  0  0  0  0 
 58 60  1  0  0  0  0 
 60 61  1  0  0  0  0 
 60 62  1  0  0  0  0 
 62 63  1  0  0  0  0 
 63 64  1  0  0  0  0 
 63 65  1  0  0  0  0 
 65 66  1  0  0  0  0 
 65 67  1  0  0  0  0 
 65 68  1  0  0  0  0 
 68 69  1  0  0  0  0 
 63 70  1  0  0  0  0 
 56 70  1  0  0  0  0 
 62 71  1  0  0  0  0 
 71 72  1  0  0  0  0 
 62 73  1  0  0  0  0 
 73 74  1  0  0  0  0 
 60 75  1  0  0  0  0 
 75 76  1  0  0  0  0 
 58 77  1  0  0  0  0 
 77 78  1  0  0  0  0 
  5 79  1  0  0  0  0 
 79 80  1  0  0  0  0 
 80 81  1  0  0  0  0 
 80 82  1  0  0  0  0 
 82 83  1  0  0  0  0 
 82 84  1  0  0  0  0 
 84 85  1  0  0  0  0 
 84 86  1  0  0  0  0 
 86 87  1  0  0  0  0 
 86 88  1  0  0  0  0 
 88 89  1  0  0  0  0 
 88 90  1  0  0  0  0 
 90 91  1  0  0  0  0 
 90 92  1  0  0  0  0 
 90 93  1  0  0  0  0 
 93 94  1  0  0  0  0 
 88 95  1  0  0  0  0 
 80 95  1  0  0  0  0 
 86 96  1  0  0  0  0 
 96 97  1  0  0  0  0 
 84 98  1  0  0  0  0 
 98 99  1  0  0  0  0 
 82100  1  0  0  0  0 
100101  1  0  0  0  0 
M  END
> <Rank>
34

> <Priority_score>
0.0

> <Reaction_type>
aliphatic hydroxylation

> <Parent_ID>
79

> <Parent_InChI>
InChI=1S/C42H38O20/c43-11-23-31(47)35(51)37(53)41(61-23)59-21-5-1-3-15-25(17-7-13(39(55)56)9-19(45)27(17)33(49)29(15)21)26-16-4-2-6-22(60-42-38(54)36(52)32(48)24(12-44)62-42)30(16)34(50)28-18(26)8-14(40(57)58)10-20(28)46/h1-10,23-26,31-32,35-38,41-48,51-54H,11-12H2,(H,55,56)(H,57,58)

> <Parent_SMILES>
O=C(O)c1cc(O)c2c(c1)C(C1c3cc(C(=O)O)cc(O)c3C(=O)c3c(OC4OC(CO)C(O)C(O)C4O)cccc31)c1cccc(OC3OC(CO)C(O)C(O)C3O)c1C2=O

$$$$
Molecule 79_metabolite 38
  CDK     0516241031

 98105  0  0  0  0  0  0  0  0999 V2000
  -13.3458   -5.9985    0.0000 C   0  0  0  0  0  0  0  0  0  0  0  0
  -13.3455   -7.4985    0.0000 H   0  0  0  0  0  0  0  0  0  0  0  0
  -14.6448   -5.2485    0.0000 C   0  0  0  0  0  0  0  0  0  0  0  0
  -15.9440   -5.9982    0.0000 H   0  0  0  0  0  0  0  0  0  0  0  0
  -14.6443   -3.7476    0.0000 C   0  0  0  0  0  0  0  0  0  0  0  0
  -13.3448   -2.9968    0.0000 C   0  0  0  0  0  0  0  0  0  0  0  0
  -12.0458   -3.7468    0.0000 C   0  0  0  0  0  0  0  0  0  0  0  0
  -12.0462   -5.2476    0.0000 C   0  0  0  0  0  0  0  0  0  0  0  0
  -10.7472   -5.9976    0.0000 H   0  0  0  0  0  0  0  0  0  0  0  0
  -10.7462   -2.9960    0.0000 C   0  0  0  0  0  0  0  0  0  0  0  0
  -10.2331   -4.4054    0.0000 H   0  0  0  0  0  0  0  0  0  0  0  0
  -10.7458   -1.4951    0.0000 C   0  0  0  0  0  0  0  0  0  0  0  0
   -9.4462   -0.7443    0.0000 C   0  0  0  0  0  0  0  0  0  0  0  0
   -8.1472   -1.4943    0.0000 H   0  0  0  0  0  0  0  0  0  0  0  0
   -9.4458    0.7565    0.0000 C   0  0  0  0  0  0  0  0  0  0  0  0
  -10.7448    1.5065    0.0000 C   0  0  0  0  0  0  0  0  0  0  0  0
  -10.7450    3.0065    0.0000 H   0  0  0  0  0  0  0  0  0  0  0  0
  -12.0443    0.7557    0.0000 C   0  0  0  0  0  0  0  0  0  0  0  0
  -12.0448   -0.7451    0.0000 C   0  0  0  0  0  0  0  0  0  0  0  0
  -13.3443   -1.4960    0.0000 C   0  0  0  0  0  0  0  0  0  0  0  0
  -14.6434   -0.7460    0.0000 O   0  0  0  0  0  0  0  0  0  0  0  0
  -13.3434    1.5057    0.0000 O   0  0  0  0  0  0  0  0  0  0  0  0
  -13.3434    3.0057    0.0000 H   0  0  0  0  0  0  0  0  0  0  0  0
   -8.1466    1.5063    0.0000 C   0  0  0  0  0  0  0  0  0  0  0  0
   -6.8477    0.7561    0.0000 O   0  0  0  0  0  0  0  0  0  0  0  0
   -8.1464    3.0063    0.0000 O   0  0  0  0  0  0  0  0  0  0  0  0
   -6.8472    3.7561    0.0000 H   0  0  0  0  0  0  0  0  0  0  0  0
   -8.3236   -2.5690    0.0000 C   0  0  0  0  0  0  0  0  0  0  0  0
   -8.8368   -1.1596    0.0000 H   0  0  0  0  0  0  0  0  0  0  0  0
   -8.3241   -4.0699    0.0000 C   0  0  0  0  0  0  0  0  0  0  0  0
   -9.6236   -4.8207    0.0000 C   0  0  0  0  0  0  0  0  0  0  0  0
  -10.9226   -4.0707    0.0000 H   0  0  0  0  0  0  0  0  0  0  0  0
   -9.6241   -6.3215    0.0000 C   0  0  0  0  0  0  0  0  0  0  0  0
  -10.9232   -7.0713    0.0000 H   0  0  0  0  0  0  0  0  0  0  0  0
   -8.3250   -7.0715    0.0000 C   0  0  0  0  0  0  0  0  0  0  0  0
   -8.3248   -8.5715    0.0000 H   0  0  0  0  0  0  0  0  0  0  0  0
   -7.0255   -6.3207    0.0000 C   0  0  0  0  0  0  0  0  0  0  0  0
   -7.0250   -4.8199    0.0000 C   0  0  0  0  0  0  0  0  0  0  0  0
   -5.7255   -4.0690    0.0000 C   0  0  0  0  0  0  0  0  0  0  0  0
   -4.4265   -4.8190    0.0000 O   0  0  0  0  0  0  0  0  0  0  0  0
   -5.7250   -2.5682    0.0000 C   0  0  0  0  0  0  0  0  0  0  0  0
   -4.4255   -1.8174    0.0000 C   0  0  0  0  0  0  0  0  0  0  0  0
   -4.4250   -0.3165    0.0000 C   0  0  0  0  0  0  0  0  0  0  0  0
   -3.1259    0.4332    0.0000 H   0  0  0  0  0  0  0  0  0  0  0  0
   -5.7241    0.4335    0.0000 C   0  0  0  0  0  0  0  0  0  0  0  0
   -7.0236   -0.3174    0.0000 C   0  0  0  0  0  0  0  0  0  0  0  0
   -8.3226    0.4326    0.0000 H   0  0  0  0  0  0  0  0  0  0  0  0
   -7.0241   -1.8182    0.0000 C   0  0  0  0  0  0  0  0  0  0  0  0
   -5.7243    1.9335    0.0000 C   0  0  0  0  0  0  0  0  0  0  0  0
   -7.0235    2.6832    0.0000 O   0  0  0  0  0  0  0  0  0  0  0  0
   -4.4254    2.6837    0.0000 O   0  0  0  0  0  0  0  0  0  0  0  0
   -4.4256    4.1837    0.0000 H   0  0  0  0  0  0  0  0  0  0  0  0
   -3.1265   -2.5674    0.0000 O   0  0  0  0  0  0  0  0  0  0  0  0
   -1.8274   -1.8174    0.0000 H   0  0  0  0  0  0  0  0  0  0  0  0
   -5.7265   -7.0707    0.0000 O   0  0  0  0  0  0  0  0  0  0  0  0
   -5.7265   -8.5707    0.0000 C   0  0  0  0  0  0  0  0  0  0  0  0
   -7.2043   -8.3136    0.0000 H   0  0  0  0  0  0  0  0  0  0  0  0
   -4.2585   -8.3153    0.0000 C   0  0  0  0  0  0  0  0  0  0  0  0
   -2.9571   -7.5694    0.0000 H   0  0  0  0  0  0  0  0  0  0  0  0
   -3.2835   -9.4856    0.0000 C   0  0  0  0  0  0  0  0  0  0  0  0
   -1.9893  -10.2438    0.0000 H   0  0  0  0  0  0  0  0  0  0  0  0
   -3.8095  -10.8966    0.0000 C   0  0  0  0  0  0  0  0  0  0  0  0
   -2.8511  -12.0505    0.0000 O   0  0  0  0  0  0  0  0  0  0  0  0
   -5.2774  -11.1519    0.0000 C   0  0  0  0  0  0  0  0  0  0  0  0
   -6.5784  -11.8987    0.0000 H   0  0  0  0  0  0  0  0  0  0  0  0
   -4.7678  -12.5627    0.0000 C   0  0  0  0  0  0  0  0  0  0  0  0
   -4.7714  -14.0627    0.0000 H   0  0  0  0  0  0  0  0  0  0  0  0
   -6.2456  -12.8196    0.0000 H   0  0  0  0  0  0  0  0  0  0  0  0
   -3.2912  -12.8267    0.0000 O   0  0  0  0  0  0  0  0  0  0  0  0
   -2.7816  -14.2375    0.0000 H   0  0  0  0  0  0  0  0  0  0  0  0
   -6.2391   -9.9997    0.0000 O   0  0  0  0  0  0  0  0  0  0  0  0
   -2.3137   -8.3412    0.0000 O   0  0  0  0  0  0  0  0  0  0  0  0
   -0.8378   -8.6090    0.0000 H   0  0  0  0  0  0  0  0  0  0  0  0
   -4.7677   -6.9044    0.0000 O   0  0  0  0  0  0  0  0  0  0  0  0
   -3.8004   -5.7580    0.0000 H   0  0  0  0  0  0  0  0  0  0  0  0
  -15.9434   -2.9976    0.0000 O   0  0  0  0  0  0  0  0  0  0  0  0
  -17.2424   -3.7476    0.0000 C   0  0  0  0  0  0  0  0  0  0  0  0
  -16.2809   -4.8989    0.0000 H   0  0  0  0  0  0  0  0  0  0  0  0
  -17.7552   -2.3487    0.0000 C   0  0  0  0  0  0  0  0  0  0  0  0
  -17.7599   -0.8487    0.0000 H   0  0  0  0  0  0  0  0  0  0  0  0
  -19.2562   -2.0894    0.0000 C   0  0  0  0  0  0  0  0  0  0  0  0
  -20.5599   -1.3476    0.0000 H   0  0  0  0  0  0  0  0  0  0  0  0
  -20.2152   -3.2504    0.0000 C   0  0  0  0  0  0  0  0  0  0  0  0
  -21.5111   -4.0057    0.0000 H   0  0  0  0  0  0  0  0  0  0  0  0
  -19.7023   -4.6494    0.0000 C   0  0  0  0  0  0  0  0  0  0  0  0
  -19.6985   -6.1494    0.0000 H   0  0  0  0  0  0  0  0  0  0  0  0
  -22.1239   -5.0824    0.0000 C   0  0  0  0  0  0  0  0  0  0  0  0
  -23.4211   -5.8355    0.0000 H   0  0  0  0  0  0  0  0  0  0  0  0
  -21.6075   -6.4907    0.0000 H   0  0  0  0  0  0  0  0  0  0  0  0
  -23.0909   -3.9356    0.0000 O   0  0  0  0  0  0  0  0  0  0  0  0
  -24.5674   -4.1997    0.0000 H   0  0  0  0  0  0  0  0  0  0  0  0
  -18.2236   -4.9061    0.0000 O   0  0  0  0  0  0  0  0  0  0  0  0
  -21.1861   -2.1071    0.0000 O   0  0  0  0  0  0  0  0  0  0  0  0
  -22.6618   -2.3763    0.0000 H   0  0  0  0  0  0  0  0  0  0  0  0
  -18.7501   -0.6774    0.0000 O   0  0  0  0  0  0  0  0  0  0  0  0
  -19.7199    0.4669    0.0000 H   0  0  0  0  0  0  0  0  0  0  0  0
  -16.2787   -2.0842    0.0000 O   0  0  0  0  0  0  0  0  0  0  0  0
  -15.7695   -0.6733    0.0000 H   0  0  0  0  0  0  0  0  0  0  0  0
  1  2  1  0  0  0  0 
  1  3  2  0  0  0  0 
  3  4  1  0  0  0  0 
  3  5  1  0  0  0  0 
  5  6  2  0  0  0  0 
  6  7  1  0  0  0  0 
  7  8  2  0  0  0  0 
  1  8  1  0  0  0  0 
  8  9  1  0  0  0  0 
  7 10  1  0  0  0  0 
 10 11  1  0  0  0  0 
 10 12  1  0  0  0  0 
 12 13  2  0  0  0  0 
 13 14  1  0  0  0  0 
 13 15  1  0  0  0  0 
 15 16  2  0  0  0  0 
 16 17  1  0  0  0  0 
 16 18  1  0  0  0  0 
 18 19  2  0  0  0  0 
 12 19  1  0  0  0  0 
 19 20  1  0  0  0  0 
  6 20  1  0  0  0  0 
 20 21  2  0  0  0  0 
 18 22  1  0  0  0  0 
 22 23  1  0  0  0  0 
 15 24  1  0  0  0  0 
 24 25  2  0  0  0  0 
 24 26  1  0  0  0  0 
 26 27  1  0  0  0  0 
 10 28  1  0  0  0  0 
 28 29  1  0  0  0  0 
 28 30  1  0  0  0  0 
 30 31  2  0  0  0  0 
 31 32  1  0  0  0  0 
 31 33  1  0  0  0  0 
 33 34  1  0  0  0  0 
 33 35  2  0  0  0  0 
 35 36  1  0  0  0  0 
 35 37  1  0  0  0  0 
 37 38  2  0  0  0  0 
 30 38  1  0  0  0  0 
 38 39  1  0  0  0  0 
 39 40  2  0  0  0  0 
 39 41  1  0  0  0  0 
 41 42  2  0  0  0  0 
 42 43  1  0  0  0  0 
 43 44  1  0  0  0  0 
 43 45  2  0  0  0  0 
 45 46  1  0  0  0  0 
 46 47  1  0  0  0  0 
 46 48  2  0  0  0  0 
 28 48  1  0  0  0  0 
 41 48  1  0  0  0  0 
 45 49  1  0  0  0  0 
 49 50  2  0  0  0  0 
 49 51  1  0  0  0  0 
 51 52  1  0  0  0  0 
 42 53  1  0  0  0  0 
 53 54  1  0  0  0  0 
 37 55  1  0  0  0  0 
 55 56  1  0  0  0  0 
 56 57  1  0  0  0  0 
 56 58  1  0  0  0  0 
 58 59  1  0  0  0  0 
 58 60  1  0  0  0  0 
 60 61  1  0  0  0  0 
 60 62  1  0  0  0  0 
 62 63  2  0  0  0  0 
 62 64  1  0  0  0  0 
 64 65  1  0  0  0  0 
 64 66  1  0  0  0  0 
 66 67  1  0  0  0  0 
 66 68  1  0  0  0  0 
 66 69  1  0  0  0  0 
 69 70  1  0  0  0  0 
 64 71  1  0  0  0  0 
 56 71  1  0  0  0  0 
 60 72  1  0  0  0  0 
 72 73  1  0  0  0  0 
 58 74  1  0  0  0  0 
 74 75  1  0  0  0  0 
  5 76  1  0  0  0  0 
 76 77  1  0  0  0  0 
 77 78  1  0  0  0  0 
 77 79  1  0  0  0  0 
 79 80  1  0  0  0  0 
 79 81  1  0  0  0  0 
 81 82  1  0  0  0  0 
 81 83  1  0  0  0  0 
 83 84  1  0  0  0  0 
 83 85  1  0  0  0  0 
 85 86  1  0  0  0  0 
 85 87  1  0  0  0  0 
 87 88  1  0  0  0  0 
 87 89  1  0  0  0  0 
 87 90  1  0  0  0  0 
 90 91  1  0  0  0  0 
 85 92  1  0  0  0  0 
 77 92  1  0  0  0  0 
 83 93  1  0  0  0  0 
 93 94  1  0  0  0  0 
 81 95  1  0  0  0  0 
 95 96  1  0  0  0  0 
 79 97  1  0  0  0  0 
 97 98  1  0  0  0  0 
M  END
> <Rank>
34

> <Priority_score>
0.0

> <Reaction_type>
alcohol oxidation

> <Parent_ID>
79

> <Parent_InChI>
InChI=1S/C42H38O20/c43-11-23-31(47)35(51)37(53)41(61-23)59-21-5-1-3-15-25(17-7-13(39(55)56)9-19(45)27(17)33(49)29(15)21)26-16-4-2-6-22(60-42-38(54)36(52)32(48)24(12-44)62-42)30(16)34(50)28-18(26)8-14(40(57)58)10-20(28)46/h1-10,23-26,31-32,35-38,41-48,51-54H,11-12H2,(H,55,56)(H,57,58)

> <Parent_SMILES>
O=C(O)c1cc(O)c2c(c1)C(C1c3cc(C(=O)O)cc(O)c3C(=O)c3c(OC4OC(CO)C(O)C(O)C4O)cccc31)c1cccc(OC3OC(CO)C(O)C(O)C3O)c1C2=O

$$$$
Molecule 79_metabolite 39
  CDK     0516241031

 98105  0  0  0  0  0  0  0  0999 V2000
  -13.3458   -5.9985    0.0000 C   0  0  0  0  0  0  0  0  0  0  0  0
  -13.3455   -7.4985    0.0000 H   0  0  0  0  0  0  0  0  0  0  0  0
  -14.6448   -5.2485    0.0000 C   0  0  0  0  0  0  0  0  0  0  0  0
  -15.9440   -5.9982    0.0000 H   0  0  0  0  0  0  0  0  0  0  0  0
  -14.6443   -3.7476    0.0000 C   0  0  0  0  0  0  0  0  0  0  0  0
  -13.3448   -2.9968    0.0000 C   0  0  0  0  0  0  0  0  0  0  0  0
  -12.0458   -3.7468    0.0000 C   0  0  0  0  0  0  0  0  0  0  0  0
  -12.0462   -5.2476    0.0000 C   0  0  0  0  0  0  0  0  0  0  0  0
  -10.7472   -5.9976    0.0000 H   0  0  0  0  0  0  0  0  0  0  0  0
  -10.7462   -2.9960    0.0000 C   0  0  0  0  0  0  0  0  0  0  0  0
  -10.2331   -4.4054    0.0000 H   0  0  0  0  0  0  0  0  0  0  0  0
  -10.7458   -1.4951    0.0000 C   0  0  0  0  0  0  0  0  0  0  0  0
   -9.4462   -0.7443    0.0000 C   0  0  0  0  0  0  0  0  0  0  0  0
   -8.1472   -1.4943    0.0000 H   0  0  0  0  0  0  0  0  0  0  0  0
   -9.4458    0.7565    0.0000 C   0  0  0  0  0  0  0  0  0  0  0  0
  -10.7448    1.5065    0.0000 C   0  0  0  0  0  0  0  0  0  0  0  0
  -10.7450    3.0065    0.0000 H   0  0  0  0  0  0  0  0  0  0  0  0
  -12.0443    0.7557    0.0000 C   0  0  0  0  0  0  0  0  0  0  0  0
  -12.0448   -0.7451    0.0000 C   0  0  0  0  0  0  0  0  0  0  0  0
  -13.3443   -1.4960    0.0000 C   0  0  0  0  0  0  0  0  0  0  0  0
  -14.6434   -0.7460    0.0000 O   0  0  0  0  0  0  0  0  0  0  0  0
  -13.3434    1.5057    0.0000 O   0  0  0  0  0  0  0  0  0  0  0  0
  -13.3434    3.0057    0.0000 H   0  0  0  0  0  0  0  0  0  0  0  0
   -8.1466    1.5063    0.0000 C   0  0  0  0  0  0  0  0  0  0  0  0
   -6.8477    0.7561    0.0000 O   0  0  0  0  0  0  0  0  0  0  0  0
   -8.1464    3.0063    0.0000 O   0  0  0  0  0  0  0  0  0  0  0  0
   -6.8472    3.7561    0.0000 H   0  0  0  0  0  0  0  0  0  0  0  0
   -8.3236   -2.5690    0.0000 C   0  0  0  0  0  0  0  0  0  0  0  0
   -8.8368   -1.1596    0.0000 H   0  0  0  0  0  0  0  0  0  0  0  0
   -8.3241   -4.0699    0.0000 C   0  0  0  0  0  0  0  0  0  0  0  0
   -9.6236   -4.8207    0.0000 C   0  0  0  0  0  0  0  0  0  0  0  0
  -10.9226   -4.0707    0.0000 H   0  0  0  0  0  0  0  0  0  0  0  0
   -9.6241   -6.3215    0.0000 C   0  0  0  0  0  0  0  0  0  0  0  0
  -10.9232   -7.0713    0.0000 H   0  0  0  0  0  0  0  0  0  0  0  0
   -8.3250   -7.0715    0.0000 C   0  0  0  0  0  0  0  0  0  0  0  0
   -8.3248   -8.5715    0.0000 H   0  0  0  0  0  0  0  0  0  0  0  0
   -7.0255   -6.3207    0.0000 C   0  0  0  0  0  0  0  0  0  0  0  0
   -7.0250   -4.8199    0.0000 C   0  0  0  0  0  0  0  0  0  0  0  0
   -5.7255   -4.0690    0.0000 C   0  0  0  0  0  0  0  0  0  0  0  0
   -4.4265   -4.8190    0.0000 O   0  0  0  0  0  0  0  0  0  0  0  0
   -5.7250   -2.5682    0.0000 C   0  0  0  0  0  0  0  0  0  0  0  0
   -4.4255   -1.8174    0.0000 C   0  0  0  0  0  0  0  0  0  0  0  0
   -4.4250   -0.3165    0.0000 C   0  0  0  0  0  0  0  0  0  0  0  0
   -3.1259    0.4332    0.0000 H   0  0  0  0  0  0  0  0  0  0  0  0
   -5.7241    0.4335    0.0000 C   0  0  0  0  0  0  0  0  0  0  0  0
   -7.0236   -0.3174    0.0000 C   0  0  0  0  0  0  0  0  0  0  0  0
   -8.3226    0.4326    0.0000 H   0  0  0  0  0  0  0  0  0  0  0  0
   -7.0241   -1.8182    0.0000 C   0  0  0  0  0  0  0  0  0  0  0  0
   -5.7243    1.9335    0.0000 C   0  0  0  0  0  0  0  0  0  0  0  0
   -7.0235    2.6832    0.0000 O   0  0  0  0  0  0  0  0  0  0  0  0
   -4.4254    2.6837    0.0000 O   0  0  0  0  0  0  0  0  0  0  0  0
   -4.4256    4.1837    0.0000 H   0  0  0  0  0  0  0  0  0  0  0  0
   -3.1265   -2.5674    0.0000 O   0  0  0  0  0  0  0  0  0  0  0  0
   -1.8274   -1.8174    0.0000 H   0  0  0  0  0  0  0  0  0  0  0  0
   -5.7265   -7.0707    0.0000 O   0  0  0  0  0  0  0  0  0  0  0  0
   -5.7265   -8.5707    0.0000 C   0  0  0  0  0  0  0  0  0  0  0  0
   -7.2043   -8.3136    0.0000 H   0  0  0  0  0  0  0  0  0  0  0  0
   -4.2585   -8.3153    0.0000 C   0  0  0  0  0  0  0  0  0  0  0  0
   -2.9571   -7.5694    0.0000 H   0  0  0  0  0  0  0  0  0  0  0  0
   -3.2835   -9.4856    0.0000 C   0  0  0  0  0  0  0  0  0  0  0  0
   -1.9893  -10.2438    0.0000 H   0  0  0  0  0  0  0  0  0  0  0  0
   -3.8095  -10.8966    0.0000 C   0  0  0  0  0  0  0  0  0  0  0  0
   -5.2774  -11.1519    0.0000 C   0  0  0  0  0  0  0  0  0  0  0  0
   -5.7939  -12.5602    0.0000 C   0  0  0  0  0  0  0  0  0  0  0  0
   -7.0911  -11.8070    0.0000 H   0  0  0  0  0  0  0  0  0  0  0  0
   -6.7609  -13.7069    0.0000 H   0  0  0  0  0  0  0  0  0  0  0  0
   -4.8326  -13.7117    0.0000 O   0  0  0  0  0  0  0  0  0  0  0  0
   -5.3491  -15.1199    0.0000 H   0  0  0  0  0  0  0  0  0  0  0  0
   -6.2391   -9.9997    0.0000 O   0  0  0  0  0  0  0  0  0  0  0  0
   -2.8511  -12.0505    0.0000 O   0  0  0  0  0  0  0  0  0  0  0  0
   -3.3712  -13.4574    0.0000 H   0  0  0  0  0  0  0  0  0  0  0  0
   -2.3137   -8.3412    0.0000 O   0  0  0  0  0  0  0  0  0  0  0  0
   -0.8378   -8.6090    0.0000 H   0  0  0  0  0  0  0  0  0  0  0  0
   -4.7677   -6.9044    0.0000 O   0  0  0  0  0  0  0  0  0  0  0  0
   -3.8004   -5.7580    0.0000 H   0  0  0  0  0  0  0  0  0  0  0  0
  -15.9434   -2.9976    0.0000 O   0  0  0  0  0  0  0  0  0  0  0  0
  -17.2424   -3.7476    0.0000 C   0  0  0  0  0  0  0  0  0  0  0  0
  -16.2809   -4.8989    0.0000 H   0  0  0  0  0  0  0  0  0  0  0  0
  -17.7552   -2.3487    0.0000 C   0  0  0  0  0  0  0  0  0  0  0  0
  -17.7599   -0.8487    0.0000 H   0  0  0  0  0  0  0  0  0  0  0  0
  -19.2562   -2.0894    0.0000 C   0  0  0  0  0  0  0  0  0  0  0  0
  -20.5599   -1.3476    0.0000 H   0  0  0  0  0  0  0  0  0  0  0  0
  -20.2152   -3.2504    0.0000 C   0  0  0  0  0  0  0  0  0  0  0  0
  -21.5111   -4.0057    0.0000 H   0  0  0  0  0  0  0  0  0  0  0  0
  -19.7023   -4.6494    0.0000 C   0  0  0  0  0  0  0  0  0  0  0  0
  -19.6985   -6.1494    0.0000 H   0  0  0  0  0  0  0  0  0  0  0  0
  -22.1239   -5.0824    0.0000 C   0  0  0  0  0  0  0  0  0  0  0  0
  -23.4211   -5.8355    0.0000 H   0  0  0  0  0  0  0  0  0  0  0  0
  -21.6075   -6.4907    0.0000 H   0  0  0  0  0  0  0  0  0  0  0  0
  -23.0909   -3.9356    0.0000 O   0  0  0  0  0  0  0  0  0  0  0  0
  -24.5674   -4.1997    0.0000 H   0  0  0  0  0  0  0  0  0  0  0  0
  -18.2236   -4.9061    0.0000 O   0  0  0  0  0  0  0  0  0  0  0  0
  -21.1861   -2.1071    0.0000 O   0  0  0  0  0  0  0  0  0  0  0  0
  -22.6618   -2.3763    0.0000 H   0  0  0  0  0  0  0  0  0  0  0  0
  -18.7501   -0.6774    0.0000 O   0  0  0  0  0  0  0  0  0  0  0  0
  -19.7199    0.4669    0.0000 H   0  0  0  0  0  0  0  0  0  0  0  0
  -16.2787   -2.0842    0.0000 O   0  0  0  0  0  0  0  0  0  0  0  0
  -15.7695   -0.6733    0.0000 H   0  0  0  0  0  0  0  0  0  0  0  0
  1  2  1  0  0  0  0 
  1  3  2  0  0  0  0 
  3  4  1  0  0  0  0 
  3  5  1  0  0  0  0 
  5  6  2  0  0  0  0 
  6  7  1  0  0  0  0 
  7  8  2  0  0  0  0 
  1  8  1  0  0  0  0 
  8  9  1  0  0  0  0 
  7 10  1  0  0  0  0 
 10 11  1  0  0  0  0 
 10 12  1  0  0  0  0 
 12 13  2  0  0  0  0 
 13 14  1  0  0  0  0 
 13 15  1  0  0  0  0 
 15 16  2  0  0  0  0 
 16 17  1  0  0  0  0 
 16 18  1  0  0  0  0 
 18 19  2  0  0  0  0 
 12 19  1  0  0  0  0 
 19 20  1  0  0  0  0 
  6 20  1  0  0  0  0 
 20 21  2  0  0  0  0 
 18 22  1  0  0  0  0 
 22 23  1  0  0  0  0 
 15 24  1  0  0  0  0 
 24 25  2  0  0  0  0 
 24 26  1  0  0  0  0 
 26 27  1  0  0  0  0 
 10 28  1  0  0  0  0 
 28 29  1  0  0  0  0 
 28 30  1  0  0  0  0 
 30 31  2  0  0  0  0 
 31 32  1  0  0  0  0 
 31 33  1  0  0  0  0 
 33 34  1  0  0  0  0 
 33 35  2  0  0  0  0 
 35 36  1  0  0  0  0 
 35 37  1  0  0  0  0 
 37 38  2  0  0  0  0 
 30 38  1  0  0  0  0 
 38 39  1  0  0  0  0 
 39 40  2  0  0  0  0 
 39 41  1  0  0  0  0 
 41 42  2  0  0  0  0 
 42 43  1  0  0  0  0 
 43 44  1  0  0  0  0 
 43 45  2  0  0  0  0 
 45 46  1  0  0  0  0 
 46 47  1  0  0  0  0 
 46 48  2  0  0  0  0 
 28 48  1  0  0  0  0 
 41 48  1  0  0  0  0 
 45 49  1  0  0  0  0 
 49 50  2  0  0  0  0 
 49 51  1  0  0  0  0 
 51 52  1  0  0  0  0 
 42 53  1  0  0  0  0 
 53 54  1  0  0  0  0 
 37 55  1  0  0  0  0 
 55 56  1  0  0  0  0 
 56 57  1  0  0  0  0 
 56 58  1  0  0  0  0 
 58 59  1  0  0  0  0 
 58 60  1  0  0  0  0 
 60 61  1  0  0  0  0 
 60 62  1  0  0  0  0 
 62 63  2  0  0  0  0 
 63 64  1  0  0  0  0 
 64 65  1  0  0  0  0 
 64 66  1  0  0  0  0 
 64 67  1  0  0  0  0 
 67 68  1  0  0  0  0 
 63 69  1  0  0  0  0 
 56 69  1  0  0  0  0 
 62 70  1  0  0  0  0 
 70 71  1  0  0  0  0 
 60 72  1  0  0  0  0 
 72 73  1  0  0  0  0 
 58 74  1  0  0  0  0 
 74 75  1  0  0  0  0 
  5 76  1  0  0  0  0 
 76 77  1  0  0  0  0 
 77 78  1  0  0  0  0 
 77 79  1  0  0  0  0 
 79 80  1  0  0  0  0 
 79 81  1  0  0  0  0 
 81 82  1  0  0  0  0 
 81 83  1  0  0  0  0 
 83 84  1  0  0  0  0 
 83 85  1  0  0  0  0 
 85 86  1  0  0  0  0 
 85 87  1  0  0  0  0 
 87 88  1  0  0  0  0 
 87 89  1  0  0  0  0 
 87 90  1  0  0  0  0 
 90 91  1  0  0  0  0 
 85 92  1  0  0  0  0 
 77 92  1  0  0  0  0 
 83 93  1  0  0  0  0 
 93 94  1  0  0  0  0 
 81 95  1  0  0  0  0 
 95 96  1  0  0  0  0 
 79 97  1  0  0  0  0 
 97 98  1  0  0  0  0 
M  END
> <Rank>
34

> <Priority_score>
0.0

> <Reaction_type>
alkyl dehydrogenation

> <Parent_ID>
79

> <Parent_InChI>
InChI=1S/C42H38O20/c43-11-23-31(47)35(51)37(53)41(61-23)59-21-5-1-3-15-25(17-7-13(39(55)56)9-19(45)27(17)33(49)29(15)21)26-16-4-2-6-22(60-42-38(54)36(52)32(48)24(12-44)62-42)30(16)34(50)28-18(26)8-14(40(57)58)10-20(28)46/h1-10,23-26,31-32,35-38,41-48,51-54H,11-12H2,(H,55,56)(H,57,58)

> <Parent_SMILES>
O=C(O)c1cc(O)c2c(c1)C(C1c3cc(C(=O)O)cc(O)c3C(=O)c3c(OC4OC(CO)C(O)C(O)C4O)cccc31)c1cccc(OC3OC(CO)C(O)C(O)C3O)c1C2=O

$$$$
Molecule 79_metabolite 40
  CDK     0516241031

101108  0  0  0  0  0  0  0  0999 V2000
  -11.7867    2.8488    0.0000 C   0  0  0  0  0  0  0  0  0  0  0  0
  -11.2738    4.2584    0.0000 H   0  0  0  0  0  0  0  0  0  0  0  0
  -13.2639    2.5881    0.0000 C   0  0  0  0  0  0  0  0  0  0  0  0
  -14.2285    3.7368    0.0000 H   0  0  0  0  0  0  0  0  0  0  0  0
  -13.7764    1.1775    0.0000 C   0  0  0  0  0  0  0  0  0  0  0  0
  -12.8118    0.0276    0.0000 C   0  0  0  0  0  0  0  0  0  0  0  0
  -11.3347    0.2884    0.0000 C   0  0  0  0  0  0  0  0  0  0  0  0
  -10.8221    1.6990    0.0000 C   0  0  0  0  0  0  0  0  0  0  0  0
   -9.3450    1.9598    0.0000 H   0  0  0  0  0  0  0  0  0  0  0  0
  -10.3701   -0.8614    0.0000 C   0  0  0  0  0  0  0  0  0  0  0  0
   -9.4060    0.2878    0.0000 H   0  0  0  0  0  0  0  0  0  0  0  0
  -10.8827   -2.2720    0.0000 C   0  0  0  0  0  0  0  0  0  0  0  0
   -9.9181   -3.4218    0.0000 C   0  0  0  0  0  0  0  0  0  0  0  0
   -8.4409   -3.1610    0.0000 H   0  0  0  0  0  0  0  0  0  0  0  0
  -10.4306   -4.8324    0.0000 C   0  0  0  0  0  0  0  0  0  0  0  0
  -11.9078   -5.0932    0.0000 C   0  0  0  0  0  0  0  0  0  0  0  0
  -12.4207   -6.5027    0.0000 H   0  0  0  0  0  0  0  0  0  0  0  0
  -12.8724   -3.9434    0.0000 C   0  0  0  0  0  0  0  0  0  0  0  0
  -12.3598   -2.5328    0.0000 C   0  0  0  0  0  0  0  0  0  0  0  0
  -13.3244   -1.3829    0.0000 C   0  0  0  0  0  0  0  0  0  0  0  0
  -14.8016   -1.6437    0.0000 O   0  0  0  0  0  0  0  0  0  0  0  0
  -14.3495   -4.2041    0.0000 O   0  0  0  0  0  0  0  0  0  0  0  0
  -14.8623   -5.6138    0.0000 H   0  0  0  0  0  0  0  0  0  0  0  0
   -9.4660   -5.9811    0.0000 C   0  0  0  0  0  0  0  0  0  0  0  0
   -7.9889   -5.7201    0.0000 O   0  0  0  0  0  0  0  0  0  0  0  0
   -9.9785   -7.3908    0.0000 O   0  0  0  0  0  0  0  0  0  0  0  0
   -9.0139   -8.5395    0.0000 H   0  0  0  0  0  0  0  0  0  0  0  0
   -8.2393   -2.0907    0.0000 C   0  0  0  0  0  0  0  0  0  0  0  0
   -9.2033   -3.2399    0.0000 H   0  0  0  0  0  0  0  0  0  0  0  0
   -7.7267   -0.6801    0.0000 C   0  0  0  0  0  0  0  0  0  0  0  0
   -8.6913    0.4697    0.0000 C   0  0  0  0  0  0  0  0  0  0  0  0
  -10.1685    0.2089    0.0000 H   0  0  0  0  0  0  0  0  0  0  0  0
   -8.1787    1.8803    0.0000 C   0  0  0  0  0  0  0  0  0  0  0  0
   -9.1434    3.0290    0.0000 H   0  0  0  0  0  0  0  0  0  0  0  0
   -6.7016    2.1411    0.0000 C   0  0  0  0  0  0  0  0  0  0  0  0
   -6.1886    3.5507    0.0000 H   0  0  0  0  0  0  0  0  0  0  0  0
   -5.7370    0.9913    0.0000 C   0  0  0  0  0  0  0  0  0  0  0  0
   -6.2496   -0.4193    0.0000 C   0  0  0  0  0  0  0  0  0  0  0  0
   -5.2850   -1.5691    0.0000 C   0  0  0  0  0  0  0  0  0  0  0  0
   -3.8078   -1.3083    0.0000 O   0  0  0  0  0  0  0  0  0  0  0  0
   -5.7975   -2.9797    0.0000 C   0  0  0  0  0  0  0  0  0  0  0  0
   -4.8329   -4.1295    0.0000 C   0  0  0  0  0  0  0  0  0  0  0  0
   -5.3455   -5.5401    0.0000 C   0  0  0  0  0  0  0  0  0  0  0  0
   -4.3809   -6.6888    0.0000 H   0  0  0  0  0  0  0  0  0  0  0  0
   -6.8227   -5.8009    0.0000 C   0  0  0  0  0  0  0  0  0  0  0  0
   -7.7872   -4.6511    0.0000 C   0  0  0  0  0  0  0  0  0  0  0  0
   -9.2644   -4.9119    0.0000 H   0  0  0  0  0  0  0  0  0  0  0  0
   -7.2747   -3.2405    0.0000 C   0  0  0  0  0  0  0  0  0  0  0  0
   -7.3356   -7.2105    0.0000 C   0  0  0  0  0  0  0  0  0  0  0  0
   -8.8128   -7.4710    0.0000 O   0  0  0  0  0  0  0  0  0  0  0  0
   -6.3714   -8.3595    0.0000 O   0  0  0  0  0  0  0  0  0  0  0  0
   -6.8843   -9.7690    0.0000 H   0  0  0  0  0  0  0  0  0  0  0  0
   -3.3558   -3.8687    0.0000 O   0  0  0  0  0  0  0  0  0  0  0  0
   -2.3914   -5.0176    0.0000 H   0  0  0  0  0  0  0  0  0  0  0  0
   -4.2598    1.2521    0.0000 O   0  0  0  0  0  0  0  0  0  0  0  0
   -3.7471    2.6617    0.0000 C   0  0  0  0  0  0  0  0  0  0  0  0
   -5.2244    2.9220    0.0000 H   0  0  0  0  0  0  0  0  0  0  0  0
   -3.7471    4.1617    0.0000 C   0  0  0  0  0  0  0  0  0  0  0  0
   -5.2244    3.9014    0.0000 H   0  0  0  0  0  0  0  0  0  0  0  0
   -2.4471    4.9117    0.0000 C   0  0  0  0  0  0  0  0  0  0  0  0
   -3.4112    6.0609    0.0000 H   0  0  0  0  0  0  0  0  0  0  0  0
   -1.1471    4.1617    0.0000 C   0  0  0  0  0  0  0  0  0  0  0  0
   -0.6344    5.5714    0.0000 H   0  0  0  0  0  0  0  0  0  0  0  0
   -1.1471    2.6617    0.0000 C   0  0  0  0  0  0  0  0  0  0  0  0
    1.2756    3.0886    0.0000 C   0  0  0  0  0  0  0  0  0  0  0  0
    2.7527    2.8280    0.0000 H   0  0  0  0  0  0  0  0  0  0  0  0
    1.2754    1.5886    0.0000 H   0  0  0  0  0  0  0  0  0  0  0  0
    1.7887    4.4981    0.0000 O   0  0  0  0  0  0  0  0  0  0  0  0
    3.2660    4.7584    0.0000 H   0  0  0  0  0  0  0  0  0  0  0  0
   -0.6344    1.2521    0.0000 O   0  0  0  0  0  0  0  0  0  0  0  0
   -1.5988    0.1032    0.0000 H   0  0  0  0  0  0  0  0  0  0  0  0
   -2.4471    1.9117    0.0000 O   0  0  0  0  0  0  0  0  0  0  0  0
    0.3301    3.9014    0.0000 O   0  0  0  0  0  0  0  0  0  0  0  0
    1.2942    5.0506    0.0000 H   0  0  0  0  0  0  0  0  0  0  0  0
   -1.4831    6.0609    0.0000 O   0  0  0  0  0  0  0  0  0  0  0  0
   -1.9962    7.4704    0.0000 H   0  0  0  0  0  0  0  0  0  0  0  0
   -4.2598    5.5714    0.0000 O   0  0  0  0  0  0  0  0  0  0  0  0
   -5.7370    5.8322    0.0000 H   0  0  0  0  0  0  0  0  0  0  0  0
  -15.2536    0.9167    0.0000 O   0  0  0  0  0  0  0  0  0  0  0  0
  -16.2180    2.0655    0.0000 C   0  0  0  0  0  0  0  0  0  0  0  0
  -14.9209    2.8188    0.0000 H   0  0  0  0  0  0  0  0  0  0  0  0
  -17.1782    0.9261    0.0000 C   0  0  0  0  0  0  0  0  0  0  0  0
  -17.6952   -0.4819    0.0000 H   0  0  0  0  0  0  0  0  0  0  0  0
  -18.6773    1.1955    0.0000 C   0  0  0  0  0  0  0  0  0  0  0  0
  -20.1561    0.9441    0.0000 H   0  0  0  0  0  0  0  0  0  0  0  0
  -19.1817    2.6144    0.0000 C   0  0  0  0  0  0  0  0  0  0  0  0
  -20.1414    3.7672    0.0000 H   0  0  0  0  0  0  0  0  0  0  0  0
  -18.2215    3.7538    0.0000 C   0  0  0  0  0  0  0  0  0  0  0  0
  -17.7053    5.1622    0.0000 H   0  0  0  0  0  0  0  0  0  0  0  0
  -20.3493    4.9885    0.0000 C   0  0  0  0  0  0  0  0  0  0  0  0
  -21.3109    6.1397    0.0000 H   0  0  0  0  0  0  0  0  0  0  0  0
  -19.3826    6.1354    0.0000 H   0  0  0  0  0  0  0  0  0  0  0  0
  -21.6499    4.2413    0.0000 O   0  0  0  0  0  0  0  0  0  0  0  0
  -22.9473    4.9942    0.0000 H   0  0  0  0  0  0  0  0  0  0  0  0
  -16.7441    3.4896    0.0000 O   0  0  0  0  0  0  0  0  0  0  0  0
  -20.4850    1.8718    0.0000 O   0  0  0  0  0  0  0  0  0  0  0  0
  -21.7797    2.6292    0.0000 H   0  0  0  0  0  0  0  0  0  0  0  0
  -18.6843   -0.3044    0.0000 O   0  0  0  0  0  0  0  0  0  0  0  0
  -19.9869   -1.0483    0.0000 H   0  0  0  0  0  0  0  0  0  0  0  0
  -15.8810    0.1729    0.0000 O   0  0  0  0  0  0  0  0  0  0  0  0
  -15.8847   -1.3271    0.0000 H   0  0  0  0  0  0  0  0  0  0  0  0
  1  2  1  0  0  0  0 
  1  3  2  0  0  0  0 
  3  4  1  0  0  0  0 
  3  5  1  0  0  0  0 
  5  6  2  0  0  0  0 
  6  7  1  0  0  0  0 
  7  8  2  0  0  0  0 
  1  8  1  0  0  0  0 
  8  9  1  0  0  0  0 
  7 10  1  0  0  0  0 
 10 11  1  0  0  0  0 
 10 12  1  0  0  0  0 
 12 13  2  0  0  0  0 
 13 14  1  0  0  0  0 
 13 15  1  0  0  0  0 
 15 16  2  0  0  0  0 
 16 17  1  0  0  0  0 
 16 18  1  0  0  0  0 
 18 19  2  0  0  0  0 
 12 19  1  0  0  0  0 
 19 20  1  0  0  0  0 
  6 20  1  0  0  0  0 
 20 21  2  0  0  0  0 
 18 22  1  0  0  0  0 
 22 23  1  0  0  0  0 
 15 24  1  0  0  0  0 
 24 25  2  0  0  0  0 
 24 26  1  0  0  0  0 
 26 27  1  0  0  0  0 
 10 28  1  0  0  0  0 
 28 29  1  0  0  0  0 
 28 30  1  0  0  0  0 
 30 31  2  0  0  0  0 
 31 32  1  0  0  0  0 
 31 33  1  0  0  0  0 
 33 34  1  0  0  0  0 
 33 35  2  0  0  0  0 
 35 36  1  0  0  0  0 
 35 37  1  0  0  0  0 
 37 38  2  0  0  0  0 
 30 38  1  0  0  0  0 
 38 39  1  0  0  0  0 
 39 40  2  0  0  0  0 
 39 41  1  0  0  0  0 
 41 42  2  0  0  0  0 
 42 43  1  0  0  0  0 
 43 44  1  0  0  0  0 
 43 45  2  0  0  0  0 
 45 46  1  0  0  0  0 
 46 47  1  0  0  0  0 
 46 48  2  0  0  0  0 
 28 48  1  0  0  0  0 
 41 48  1  0  0  0  0 
 45 49  1  0  0  0  0 
 49 50  2  0  0  0  0 
 49 51  1  0  0  0  0 
 51 52  1  0  0  0  0 
 42 53  1  0  0  0  0 
 53 54  1  0  0  0  0 
 37 55  1  0  0  0  0 
 55 56  1  0  0  0  0 
 56 57  1  0  0  0  0 
 56 58  1  0  0  0  0 
 58 59  1  0  0  0  0 
 58 60  1  0  0  0  0 
 60 61  1  0  0  0  0 
 60 62  1  0  0  0  0 
 62 63  1  0  0  0  0 
 62 64  1  0  0  0  0 
 64 65  1  0  0  0  0 
 65 66  1  0  0  0  0 
 65 67  1  0  0  0  0 
 65 68  1  0  0  0  0 
 68 69  1  0  0  0  0 
 64 70  1  0  0  0  0 
 70 71  1  0  0  0  0 
 64 72  1  0  0  0  0 
 56 72  1  0  0  0  0 
 62 73  1  0  0  0  0 
 73 74  1  0  0  0  0 
 60 75  1  0  0  0  0 
 75 76  1  0  0  0  0 
 58 77  1  0  0  0  0 
 77 78  1  0  0  0  0 
  5 79  1  0  0  0  0 
 79 80  1  0  0  0  0 
 80 81  1  0  0  0  0 
 80 82  1  0  0  0  0 
 82 83  1  0  0  0  0 
 82 84  1  0  0  0  0 
 84 85  1  0  0  0  0 
 84 86  1  0  0  0  0 
 86 87  1  0  0  0  0 
 86 88  1  0  0  0  0 
 88 89  1  0  0  0  0 
 88 90  1  0  0  0  0 
 90 91  1  0  0  0  0 
 90 92  1  0  0  0  0 
 90 93  1  0  0  0  0 
 93 94  1  0  0  0  0 
 88 95  1  0  0  0  0 
 80 95  1  0  0  0  0 
 86 96  1  0  0  0  0 
 96 97  1  0  0  0  0 
 84 98  1  0  0  0  0 
 98 99  1  0  0  0  0 
 82100  1  0  0  0  0 
100101  1  0  0  0  0 
M  END
> <Rank>
34

> <Priority_score>
0.0

> <Reaction_type>
aliphatic hydroxylation

> <Parent_ID>
79

> <Parent_InChI>
InChI=1S/C42H38O20/c43-11-23-31(47)35(51)37(53)41(61-23)59-21-5-1-3-15-25(17-7-13(39(55)56)9-19(45)27(17)33(49)29(15)21)26-16-4-2-6-22(60-42-38(54)36(52)32(48)24(12-44)62-42)30(16)34(50)28-18(26)8-14(40(57)58)10-20(28)46/h1-10,23-26,31-32,35-38,41-48,51-54H,11-12H2,(H,55,56)(H,57,58)

> <Parent_SMILES>
O=C(O)c1cc(O)c2c(c1)C(C1c3cc(C(=O)O)cc(O)c3C(=O)c3c(OC4OC(CO)C(O)C(O)C4O)cccc31)c1cccc(OC3OC(CO)C(O)C(O)C3O)c1C2=O

$$$$
Molecule 80
  CDK     0516241031

 24 27  0  0  0  0  0  0  0  0999 V2000
    2.0502   -4.2989    0.0000 C   0  0  0  0  0  0  0  0  0  0  0  0
    0.5494   -4.2996    0.0000 C   0  0  0  0  0  0  0  0  0  0  0  0
    1.3000   -3.0000    0.0000 C   0  0  0  0  0  0  0  0  0  0  0  0
    1.3000   -1.5000    0.0000 N   0  0  0  0  0  0  0  0  0  0  0  0
    2.6000   -0.7500    0.0000 C   0  0  0  0  0  0  0  0  0  0  0  0
    2.6000    0.7500    0.0000 C   0  0  0  0  0  0  0  0  0  0  0  0
    1.3000    1.5000    0.0000 C   0  0  0  0  0  0  0  0  0  0  0  0
    1.3000    3.0000    0.0000 O   0  0  0  0  0  0  0  0  0  0  0  0
   -0.0000    0.7500    0.0000 C   0  0  0  0  0  0  0  0  0  0  0  0
   -0.0000   -0.7500    0.0000 C   0  0  0  0  0  0  0  0  0  0  0  0
   -1.3000   -1.5000    0.0000 C   0  0  0  0  0  0  0  0  0  0  0  0
   -2.6000   -0.7500    0.0000 C   0  0  0  0  0  0  0  0  0  0  0  0
   -2.6000    0.7500    0.0000 C   0  0  0  0  0  0  0  0  0  0  0  0
   -1.3000    1.5000    0.0000 C   0  0  0  0  0  0  0  0  0  0  0  0
   -3.8989    1.5002    0.0000 F   0  0  0  0  0  0  0  0  0  0  0  0
   -3.8989   -1.5002    0.0000 N   0  0  0  0  0  0  0  0  0  0  0  0
   -3.8982   -3.0010    0.0000 C   0  0  0  0  0  0  0  0  0  0  0  0
   -5.1971   -3.7512    0.0000 C   0  0  0  0  0  0  0  0  0  0  0  0
   -6.4968   -3.0006    0.0000 N   0  0  0  0  0  0  0  0  0  0  0  0
   -6.4975   -1.4998    0.0000 C   0  0  0  0  0  0  0  0  0  0  0  0
   -5.1986   -0.7496    0.0000 C   0  0  0  0  0  0  0  0  0  0  0  0
    3.8989    1.5002    0.0000 C   0  0  0  0  0  0  0  0  0  0  0  0
    3.8987    3.0002    0.0000 O   0  0  0  0  0  0  0  0  0  0  0  0
    5.1981    0.7504    0.0000 O   0  0  0  0  0  0  0  0  0  0  0  0
  1  2  1  0  0  0  0 
  2  3  1  0  0  0  0 
  1  3  1  0  0  0  0 
  3  4  1  0  0  0  0 
  4  5  1  0  0  0  0 
  5  6  2  0  0  0  0 
  6  7  1  0  0  0  0 
  7  8  2  0  0  0  0 
  7  9  1  0  0  0  0 
  9 10  2  0  0  0  0 
  4 10  1  0  0  0  0 
 10 11  1  0  0  0  0 
 11 12  2  0  0  0  0 
 12 13  1  0  0  0  0 
 13 14  2  0  0  0  0 
  9 14  1  0  0  0  0 
 13 15  1  0  0  0  0 
 12 16  1  0  0  0  0 
 16 17  1  0  0  0  0 
 17 18  1  0  0  0  0 
 18 19  1  0  0  0  0 
 19 20  1  0  0  0  0 
 20 21  1  0  0  0  0 
 16 21  1  0  0  0  0 
  6 22  1  0  0  0  0 
 22 23  2  0  0  0  0 
 22 24  1  0  0  0  0 
M  END
> <SMILES>
O=C(O)c1cn(C2CC2)c2cc(N3CCNCC3)c(F)cc2c1=O

$$$$
Molecule 80_metabolite 1
  CDK     0516241031

 62 66  0  0  0  0  0  0  0  0999 V2000
   -1.7286    0.1998    0.0000 C   0  0  0  0  0  0  0  0  0  0  0  0
   -3.2058   -0.0605    0.0000 H   0  0  0  0  0  0  0  0  0  0  0  0
   -1.7286    1.6998    0.0000 H   0  0  0  0  0  0  0  0  0  0  0  0
   -1.2156   -1.2106    0.0000 C   0  0  0  0  0  0  0  0  0  0  0  0
   -0.2511   -2.3595    0.0000 H   0  0  0  0  0  0  0  0  0  0  0  0
   -2.5146   -1.9606    0.0000 H   0  0  0  0  0  0  0  0  0  0  0  0
   -0.2513   -0.0605    0.0000 C   0  0  0  0  0  0  0  0  0  0  0  0
    0.2614    1.3492    0.0000 H   0  0  0  0  0  0  0  0  0  0  0  0
    1.4637   -1.0499    0.0000 N   0  0  0  0  0  0  0  0  0  0  0  0
    1.4637   -2.5508    0.0000 C   0  0  0  0  0  0  0  0  0  0  0  0
    0.1648   -3.3010    0.0000 H   0  0  0  0  0  0  0  0  0  0  0  0
    2.7630   -3.3003    0.0000 C   0  0  0  0  0  0  0  0  0  0  0  0
    4.0623   -2.5491    0.0000 C   0  0  0  0  0  0  0  0  0  0  0  0
    5.3615   -3.2987    0.0000 O   0  0  0  0  0  0  0  0  0  0  0  0
    4.0623   -1.0483    0.0000 C   0  0  0  0  0  0  0  0  0  0  0  0
    2.7630   -0.2987    0.0000 C   0  0  0  0  0  0  0  0  0  0  0  0
    2.7630    1.2021    0.0000 C   0  0  0  0  0  0  0  0  0  0  0  0
    1.4637    1.9517    0.0000 H   0  0  0  0  0  0  0  0  0  0  0  0
    4.0623    1.9534    0.0000 C   0  0  0  0  0  0  0  0  0  0  0  0
    5.3615    1.2038    0.0000 C   0  0  0  0  0  0  0  0  0  0  0  0
    5.3615   -0.2970    0.0000 C   0  0  0  0  0  0  0  0  0  0  0  0
    6.6608   -1.0466    0.0000 H   0  0  0  0  0  0  0  0  0  0  0  0
    6.6605    1.9540    0.0000 F   0  0  0  0  0  0  0  0  0  0  0  0
    4.0615    3.4534    0.0000 N   0  0  0  0  0  0  0  0  0  0  0  0
    2.7612    4.2028    0.0000 C   0  0  0  0  0  0  0  0  0  0  0  0
    1.2838    4.4624    0.0000 H   0  0  0  0  0  0  0  0  0  0  0  0
    2.2491    2.7929    0.0000 H   0  0  0  0  0  0  0  0  0  0  0  0
    2.7605    5.7028    0.0000 C   0  0  0  0  0  0  0  0  0  0  0  0
    2.2471    7.1122    0.0000 H   0  0  0  0  0  0  0  0  0  0  0  0
    1.2833    5.4417    0.0000 H   0  0  0  0  0  0  0  0  0  0  0  0
    4.0601    6.4534    0.0000 N   0  0  0  0  0  0  0  0  0  0  0  0
    4.0594    7.9534    0.0000 H   0  0  0  0  0  0  0  0  0  0  0  0
    5.3605    5.7040    0.0000 C   0  0  0  0  0  0  0  0  0  0  0  0
    6.8378    5.4444    0.0000 H   0  0  0  0  0  0  0  0  0  0  0  0
    5.8725    7.1139    0.0000 H   0  0  0  0  0  0  0  0  0  0  0  0
    5.3612    4.2040    0.0000 C   0  0  0  0  0  0  0  0  0  0  0  0
    5.8746    2.7946    0.0000 H   0  0  0  0  0  0  0  0  0  0  0  0
    6.8383    4.4650    0.0000 H   0  0  0  0  0  0  0  0  0  0  0  0
    2.7637   -4.8003    0.0000 C   0  0  0  0  0  0  0  0  0  0  0  0
    4.0631   -5.5497    0.0000 O   0  0  0  0  0  0  0  0  0  0  0  0
    1.4650   -5.5510    0.0000 O   0  0  0  0  0  0  0  0  0  0  0  0
    1.4658   -7.0510    0.0000 C   0  0  0  0  0  0  0  0  0  0  0  0
    2.9434   -6.7932    0.0000 H   0  0  0  0  0  0  0  0  0  0  0  0
   -0.0023   -6.7963    0.0000 C   0  0  0  0  0  0  0  0  0  0  0  0
   -1.3040   -6.0510    0.0000 H   0  0  0  0  0  0  0  0  0  0  0  0
   -0.9767   -7.9670    0.0000 C   0  0  0  0  0  0  0  0  0  0  0  0
   -2.2707   -8.7258    0.0000 H   0  0  0  0  0  0  0  0  0  0  0  0
   -0.4501   -9.3778    0.0000 C   0  0  0  0  0  0  0  0  0  0  0  0
   -0.4432  -10.8778    0.0000 H   0  0  0  0  0  0  0  0  0  0  0  0
    1.0180   -9.6324    0.0000 C   0  0  0  0  0  0  0  0  0  0  0  0
    2.3193  -10.3785    0.0000 H   0  0  0  0  0  0  0  0  0  0  0  0
    0.3461  -11.4950    0.0000 C   0  0  0  0  0  0  0  0  0  0  0  0
   -1.1303  -11.7597    0.0000 O   0  0  0  0  0  0  0  0  0  0  0  0
    1.3136  -12.6412    0.0000 O   0  0  0  0  0  0  0  0  0  0  0  0
    0.8047  -14.0523    0.0000 H   0  0  0  0  0  0  0  0  0  0  0  0
    1.9791   -8.4797    0.0000 O   0  0  0  0  0  0  0  0  0  0  0  0
   -1.9256   -9.6477    0.0000 O   0  0  0  0  0  0  0  0  0  0  0  0
   -2.4296  -11.0605    0.0000 H   0  0  0  0  0  0  0  0  0  0  0  0
   -1.9471   -6.8232    0.0000 O   0  0  0  0  0  0  0  0  0  0  0  0
   -3.4229   -7.0916    0.0000 H   0  0  0  0  0  0  0  0  0  0  0  0
    0.5062   -5.3852    0.0000 O   0  0  0  0  0  0  0  0  0  0  0  0
   -0.4616   -4.2392    0.0000 H   0  0  0  0  0  0  0  0  0  0  0  0
  1  2  1  0  0  0  0 
  1  3  1  0  0  0  0 
  1  4  1  0  0  0  0 
  4  5  1  0  0  0  0 
  4  6  1  0  0  0  0 
  4  7  1  0  0  0  0 
  1  7  1  0  0  0  0 
  7  8  1  0  0  0  0 
  7  9  1  0  0  0  0 
  9 10  1  0  0  0  0 
 10 11  1  0  0  0  0 
 10 12  2  0  0  0  0 
 12 13  1  0  0  0  0 
 13 14  2  0  0  0  0 
 13 15  1  0  0  0  0 
 15 16  2  0  0  0  0 
  9 16  1  0  0  0  0 
 16 17  1  0  0  0  0 
 17 18  1  0  0  0  0 
 17 19  2  0  0  0  0 
 19 20  1  0  0  0  0 
 20 21  2  0  0  0  0 
 15 21  1  0  0  0  0 
 21 22  1  0  0  0  0 
 20 23  1  0  0  0  0 
 19 24  1  0  0  0  0 
 24 25  1  0  0  0  0 
 25 26  1  0  0  0  0 
 25 27  1  0  0  0  0 
 25 28  1  0  0  0  0 
 28 29  1  0  0  0  0 
 28 30  1  0  0  0  0 
 28 31  1  0  0  0  0 
 31 32  1  0  0  0  0 
 31 33  1  0  0  0  0 
 33 34  1  0  0  0  0 
 33 35  1  0  0  0  0 
 33 36  1  0  0  0  0 
 24 36  1  0  0  0  0 
 36 37  1  0  0  0  0 
 36 38  1  0  0  0  0 
 12 39  1  0  0  0  0 
 39 40  2  0  0  0  0 
 39 41  1  0  0  0  0 
 41 42  1  0  0  0  0 
 42 43  1  0  0  0  0 
 42 44  1  0  0  0  0 
 44 45  1  0  0  0  0 
 44 46  1  0  0  0  0 
 46 47  1  0  0  0  0 
 46 48  1  0  0  0  0 
 48 49  1  0  0  0  0 
 48 50  1  0  0  0  0 
 50 51  1  0  0  0  0 
 50 52  1  0  0  0  0 
 52 53  2  0  0  0  0 
 52 54  1  0  0  0  0 
 54 55  1  0  0  0  0 
 50 56  1  0  0  0  0 
 42 56  1  0  0  0  0 
 48 57  1  0  0  0  0 
 57 58  1  0  0  0  0 
 46 59  1  0  0  0  0 
 59 60  1  0  0  0  0 
 44 61  1  0  0  0  0 
 61 62  1  0  0  0  0 
M  END
> <Rank>
1

> <Priority_score>
0.976

> <Reaction_type>
O-glucuronidation_(aromatic_carboxyl)

> <Parent_ID>
80

> <Parent_InChI>
InChI=1S/C17H18FN3O3/c18-13-7-11-14(8-15(13)20-5-3-19-4-6-20)21(10-1-2-10)9-12(16(11)22)17(23)24/h7-10,19H,1-6H2,(H,23,24)

> <Parent_SMILES>
O=C(O)c1cn(C2CC2)c2cc(N3CCNCC3)c(F)cc2c1=O

$$$$
Molecule 80_metabolite 2
  CDK     0516241031

 47 50  0  0  0  0  0  0  0  0999 V2000
   -9.0970   -3.0006    0.0000 C   0  0  0  0  0  0  0  0  0  0  0  0
   -9.0972   -1.5006    0.0000 H   0  0  0  0  0  0  0  0  0  0  0  0
   -9.6098   -4.4102    0.0000 H   0  0  0  0  0  0  0  0  0  0  0  0
  -10.5742   -2.7404    0.0000 H   0  0  0  0  0  0  0  0  0  0  0  0
   -7.7978   -3.7504    0.0000 C   0  0  0  0  0  0  0  0  0  0  0  0
   -7.7976   -5.2504    0.0000 O   0  0  0  0  0  0  0  0  0  0  0  0
   -6.4989   -3.0002    0.0000 N   0  0  0  0  0  0  0  0  0  0  0  0
   -5.1989   -3.7502    0.0000 C   0  0  0  0  0  0  0  0  0  0  0  0
   -6.1630   -4.8994    0.0000 H   0  0  0  0  0  0  0  0  0  0  0  0
   -4.2349   -4.8994    0.0000 H   0  0  0  0  0  0  0  0  0  0  0  0
   -3.8989   -3.0002    0.0000 C   0  0  0  0  0  0  0  0  0  0  0  0
   -3.3862   -4.4099    0.0000 H   0  0  0  0  0  0  0  0  0  0  0  0
   -2.4217   -2.7399    0.0000 H   0  0  0  0  0  0  0  0  0  0  0  0
   -3.8989   -1.5002    0.0000 N   0  0  0  0  0  0  0  0  0  0  0  0
   -5.1989   -0.7502    0.0000 C   0  0  0  0  0  0  0  0  0  0  0  0
   -4.2349    0.3990    0.0000 H   0  0  0  0  0  0  0  0  0  0  0  0
   -6.1630    0.3990    0.0000 H   0  0  0  0  0  0  0  0  0  0  0  0
   -6.4989   -1.5002    0.0000 C   0  0  0  0  0  0  0  0  0  0  0  0
   -7.0116   -0.0906    0.0000 H   0  0  0  0  0  0  0  0  0  0  0  0
   -7.9762   -1.7605    0.0000 H   0  0  0  0  0  0  0  0  0  0  0  0
   -2.6000   -0.7500    0.0000 C   0  0  0  0  0  0  0  0  0  0  0  0
   -1.3000   -1.5000    0.0000 C   0  0  0  0  0  0  0  0  0  0  0  0
   -1.3000   -3.0000    0.0000 H   0  0  0  0  0  0  0  0  0  0  0  0
   -0.0000   -0.7500    0.0000 C   0  0  0  0  0  0  0  0  0  0  0  0
   -0.0000    0.7500    0.0000 C   0  0  0  0  0  0  0  0  0  0  0  0
   -1.3000    1.5000    0.0000 C   0  0  0  0  0  0  0  0  0  0  0  0
   -1.3000    3.0000    0.0000 H   0  0  0  0  0  0  0  0  0  0  0  0
   -2.6000    0.7500    0.0000 C   0  0  0  0  0  0  0  0  0  0  0  0
   -3.8989    1.5002    0.0000 F   0  0  0  0  0  0  0  0  0  0  0  0
    1.3000    1.5000    0.0000 C   0  0  0  0  0  0  0  0  0  0  0  0
    1.3000    3.0000    0.0000 O   0  0  0  0  0  0  0  0  0  0  0  0
    2.6000    0.7500    0.0000 C   0  0  0  0  0  0  0  0  0  0  0  0
    2.6000   -0.7500    0.0000 C   0  0  0  0  0  0  0  0  0  0  0  0
    3.8989   -1.5002    0.0000 H   0  0  0  0  0  0  0  0  0  0  0  0
    1.3000   -1.5000    0.0000 N   0  0  0  0  0  0  0  0  0  0  0  0
    1.3000   -3.4800    0.0000 C   0  0  0  0  0  0  0  0  0  0  0  0
   -0.1772   -3.7403    0.0000 H   0  0  0  0  0  0  0  0  0  0  0  0
    2.7781   -3.7405    0.0000 C   0  0  0  0  0  0  0  0  0  0  0  0
    4.0769   -4.4909    0.0000 H   0  0  0  0  0  0  0  0  0  0  0  0
    3.2912   -2.3310    0.0000 H   0  0  0  0  0  0  0  0  0  0  0  0
    1.8127   -4.8896    0.0000 C   0  0  0  0  0  0  0  0  0  0  0  0
    0.5135   -5.6392    0.0000 H   0  0  0  0  0  0  0  0  0  0  0  0
    2.7764   -6.0391    0.0000 H   0  0  0  0  0  0  0  0  0  0  0  0
    3.8989    1.5002    0.0000 C   0  0  0  0  0  0  0  0  0  0  0  0
    3.8987    3.0002    0.0000 O   0  0  0  0  0  0  0  0  0  0  0  0
    5.1981    0.7504    0.0000 O   0  0  0  0  0  0  0  0  0  0  0  0
    6.4970    1.5006    0.0000 H   0  0  0  0  0  0  0  0  0  0  0  0
  1  2  1  0  0  0  0 
  1  3  1  0  0  0  0 
  1  4  1  0  0  0  0 
  1  5  1  0  0  0  0 
  5  6  2  0  0  0  0 
  5  7  1  0  0  0  0 
  7  8  1  0  0  0  0 
  8  9  1  0  0  0  0 
  8 10  1  0  0  0  0 
  8 11  1  0  0  0  0 
 11 12  1  0  0  0  0 
 11 13  1  0  0  0  0 
 11 14  1  0  0  0  0 
 14 15  1  0  0  0  0 
 15 16  1  0  0  0  0 
 15 17  1  0  0  0  0 
 15 18  1  0  0  0  0 
  7 18  1  0  0  0  0 
 18 19  1  0  0  0  0 
 18 20  1  0  0  0  0 
 14 21  1  0  0  0  0 
 21 22  2  0  0  0  0 
 22 23  1  0  0  0  0 
 22 24  1  0  0  0  0 
 24 25  2  0  0  0  0 
 25 26  1  0  0  0  0 
 26 27  1  0  0  0  0 
 26 28  2  0  0  0  0 
 21 28  1  0  0  0  0 
 28 29  1  0  0  0  0 
 25 30  1  0  0  0  0 
 30 31  2  0  0  0  0 
 30 32  1  0  0  0  0 
 32 33  2  0  0  0  0 
 33 34  1  0  0  0  0 
 33 35  1  0  0  0  0 
 24 35  1  0  0  0  0 
 35 36  1  0  0  0  0 
 36 37  1  0  0  0  0 
 36 38  1  0  0  0  0 
 38 39  1  0  0  0  0 
 38 40  1  0  0  0  0 
 38 41  1  0  0  0  0 
 36 41  1  0  0  0  0 
 41 42  1  0  0  0  0 
 41 43  1  0  0  0  0 
 32 44  1  0  0  0  0 
 44 45  2  0  0  0  0 
 44 46  1  0  0  0  0 
 46 47  1  0  0  0  0 
M  END
> <Rank>
2

> <Priority_score>
0.948

> <Reaction_type>
N-acetylation_(NH1)

> <Parent_ID>
80

> <Parent_InChI>
InChI=1S/C17H18FN3O3/c18-13-7-11-14(8-15(13)20-5-3-19-4-6-20)21(10-1-2-10)9-12(16(11)22)17(23)24/h7-10,19H,1-6H2,(H,23,24)

> <Parent_SMILES>
O=C(O)c1cn(C2CC2)c2cc(N3CCNCC3)c(F)cc2c1=O

$$$$
Molecule 80_metabolite 3
  CDK     0516241031

 43 46  0  0  0  0  0  0  0  0999 V2000
    0.7873   -4.8896    0.0000 C   0  0  0  0  0  0  0  0  0  0  0  0
   -0.1764   -6.0391    0.0000 H   0  0  0  0  0  0  0  0  0  0  0  0
    2.0865   -5.6392    0.0000 H   0  0  0  0  0  0  0  0  0  0  0  0
   -0.1781   -3.7405    0.0000 C   0  0  0  0  0  0  0  0  0  0  0  0
   -0.6912   -2.3310    0.0000 H   0  0  0  0  0  0  0  0  0  0  0  0
   -1.4769   -4.4909    0.0000 H   0  0  0  0  0  0  0  0  0  0  0  0
    1.3000   -3.4800    0.0000 C   0  0  0  0  0  0  0  0  0  0  0  0
    2.7772   -3.7403    0.0000 H   0  0  0  0  0  0  0  0  0  0  0  0
    1.3000   -1.5000    0.0000 N   0  0  0  0  0  0  0  0  0  0  0  0
    0.0000   -0.7500    0.0000 C   0  0  0  0  0  0  0  0  0  0  0  0
   -1.2989   -1.5002    0.0000 H   0  0  0  0  0  0  0  0  0  0  0  0
    0.0000    0.7500    0.0000 C   0  0  0  0  0  0  0  0  0  0  0  0
    1.3000    1.5000    0.0000 C   0  0  0  0  0  0  0  0  0  0  0  0
    1.3000    3.0000    0.0000 O   0  0  0  0  0  0  0  0  0  0  0  0
    2.6000    0.7500    0.0000 C   0  0  0  0  0  0  0  0  0  0  0  0
    2.6000   -0.7500    0.0000 C   0  0  0  0  0  0  0  0  0  0  0  0
    3.9000   -1.5000    0.0000 C   0  0  0  0  0  0  0  0  0  0  0  0
    3.9000   -3.0000    0.0000 H   0  0  0  0  0  0  0  0  0  0  0  0
    5.2000   -0.7500    0.0000 C   0  0  0  0  0  0  0  0  0  0  0  0
    5.2000    0.7500    0.0000 C   0  0  0  0  0  0  0  0  0  0  0  0
    3.9000    1.5000    0.0000 C   0  0  0  0  0  0  0  0  0  0  0  0
    3.9000    3.0000    0.0000 H   0  0  0  0  0  0  0  0  0  0  0  0
    6.4989    1.5002    0.0000 F   0  0  0  0  0  0  0  0  0  0  0  0
    6.4989   -1.5002    0.0000 N   0  0  0  0  0  0  0  0  0  0  0  0
    6.4982   -3.0010    0.0000 C   0  0  0  0  0  0  0  0  0  0  0  0
    5.9848   -4.4104    0.0000 H   0  0  0  0  0  0  0  0  0  0  0  0
    5.0211   -2.7400    0.0000 H   0  0  0  0  0  0  0  0  0  0  0  0
    7.7971   -3.7512    0.0000 C   0  0  0  0  0  0  0  0  0  0  0  0
    8.7614   -4.9003    0.0000 H   0  0  0  0  0  0  0  0  0  0  0  0
    6.8329   -4.9003    0.0000 H   0  0  0  0  0  0  0  0  0  0  0  0
    9.0968   -3.0006    0.0000 N   0  0  0  0  0  0  0  0  0  0  0  0
   10.3957   -3.7508    0.0000 H   0  0  0  0  0  0  0  0  0  0  0  0
    9.0975   -1.4998    0.0000 C   0  0  0  0  0  0  0  0  0  0  0  0
    9.6109   -0.0904    0.0000 H   0  0  0  0  0  0  0  0  0  0  0  0
    7.7986   -0.7496    0.0000 C   0  0  0  0  0  0  0  0  0  0  0  0
    6.8343    0.3994    0.0000 H   0  0  0  0  0  0  0  0  0  0  0  0
    8.7628    0.3994    0.0000 H   0  0  0  0  0  0  0  0  0  0  0  0
   10.5746   -1.7608    0.0000 O   0  0  0  0  0  0  0  0  0  0  0  0
   11.5392   -0.6121    0.0000 H   0  0  0  0  0  0  0  0  0  0  0  0
   -1.2989    1.5002    0.0000 C   0  0  0  0  0  0  0  0  0  0  0  0
   -1.2987    3.0002    0.0000 O   0  0  0  0  0  0  0  0  0  0  0  0
   -2.5981    0.7504    0.0000 O   0  0  0  0  0  0  0  0  0  0  0  0
   -3.8970    1.5006    0.0000 H   0  0  0  0  0  0  0  0  0  0  0  0
  1  2  1  0  0  0  0 
  1  3  1  0  0  0  0 
  1  4  1  0  0  0  0 
  4  5  1  0  0  0  0 
  4  6  1  0  0  0  0 
  4  7  1  0  0  0  0 
  1  7  1  0  0  0  0 
  7  8  1  0  0  0  0 
  7  9  1  0  0  0  0 
  9 10  1  0  0  0  0 
 10 11  1  0  0  0  0 
 10 12  2  0  0  0  0 
 12 13  1  0  0  0  0 
 13 14  2  0  0  0  0 
 13 15  1  0  0  0  0 
 15 16  2  0  0  0  0 
  9 16  1  0  0  0  0 
 16 17  1  0  0  0  0 
 17 18  1  0  0  0  0 
 17 19  2  0  0  0  0 
 19 20  1  0  0  0  0 
 20 21  2  0  0  0  0 
 15 21  1  0  0  0  0 
 21 22  1  0  0  0  0 
 20 23  1  0  0  0  0 
 19 24  1  0  0  0  0 
 24 25  1  0  0  0  0 
 25 26  1  0  0  0  0 
 25 27  1  0  0  0  0 
 25 28  1  0  0  0  0 
 28 29  1  0  0  0  0 
 28 30  1  0  0  0  0 
 28 31  1  0  0  0  0 
 31 32  1  0  0  0  0 
 31 33  1  0  0  0  0 
 33 34  1  0  0  0  0 
 33 35  1  0  0  0  0 
 24 35  1  0  0  0  0 
 35 36  1  0  0  0  0 
 35 37  1  0  0  0  0 
 33 38  1  0  0  0  0 
 38 39  1  0  0  0  0 
 12 40  1  0  0  0  0 
 40 41  2  0  0  0  0 
 40 42  1  0  0  0  0 
 42 43  1  0  0  0  0 
M  END
> <Rank>
3

> <Priority_score>
0.66

> <Reaction_type>
aliphatic_hydroxylation_(sec_carbon_next_to_SP2,in_a_ring)

> <Parent_ID>
80

> <Parent_InChI>
InChI=1S/C17H18FN3O3/c18-13-7-11-14(8-15(13)20-5-3-19-4-6-20)21(10-1-2-10)9-12(16(11)22)17(23)24/h7-10,19H,1-6H2,(H,23,24)

> <Parent_SMILES>
O=C(O)c1cn(C2CC2)c2cc(N3CCNCC3)c(F)cc2c1=O

$$$$
Molecule 80_metabolite 4
  CDK     0516241031

 41 44  0  0  0  0  0  0  0  0999 V2000
    0.7873   -4.8896    0.0000 C   0  0  0  0  0  0  0  0  0  0  0  0
   -0.1764   -6.0391    0.0000 H   0  0  0  0  0  0  0  0  0  0  0  0
    2.0865   -5.6392    0.0000 H   0  0  0  0  0  0  0  0  0  0  0  0
   -0.1781   -3.7405    0.0000 C   0  0  0  0  0  0  0  0  0  0  0  0
   -0.6912   -2.3310    0.0000 H   0  0  0  0  0  0  0  0  0  0  0  0
   -1.4769   -4.4909    0.0000 H   0  0  0  0  0  0  0  0  0  0  0  0
    1.3000   -3.4800    0.0000 C   0  0  0  0  0  0  0  0  0  0  0  0
    2.7772   -3.7403    0.0000 H   0  0  0  0  0  0  0  0  0  0  0  0
    1.3000   -1.5000    0.0000 N   0  0  0  0  0  0  0  0  0  0  0  0
    0.0000   -0.7500    0.0000 C   0  0  0  0  0  0  0  0  0  0  0  0
   -1.2989   -1.5002    0.0000 H   0  0  0  0  0  0  0  0  0  0  0  0
    0.0000    0.7500    0.0000 C   0  0  0  0  0  0  0  0  0  0  0  0
    1.3000    1.5000    0.0000 C   0  0  0  0  0  0  0  0  0  0  0  0
    1.3000    3.0000    0.0000 O   0  0  0  0  0  0  0  0  0  0  0  0
    2.6000    0.7500    0.0000 C   0  0  0  0  0  0  0  0  0  0  0  0
    2.6000   -0.7500    0.0000 C   0  0  0  0  0  0  0  0  0  0  0  0
    3.9000   -1.5000    0.0000 C   0  0  0  0  0  0  0  0  0  0  0  0
    3.9000   -3.0000    0.0000 H   0  0  0  0  0  0  0  0  0  0  0  0
    5.2000   -0.7500    0.0000 C   0  0  0  0  0  0  0  0  0  0  0  0
    5.2000    0.7500    0.0000 C   0  0  0  0  0  0  0  0  0  0  0  0
    3.9000    1.5000    0.0000 C   0  0  0  0  0  0  0  0  0  0  0  0
    3.9000    3.0000    0.0000 H   0  0  0  0  0  0  0  0  0  0  0  0
    6.4989    1.5002    0.0000 F   0  0  0  0  0  0  0  0  0  0  0  0
    6.4989   -1.5002    0.0000 N   0  0  0  0  0  0  0  0  0  0  0  0
    6.4982   -3.0010    0.0000 C   0  0  0  0  0  0  0  0  0  0  0  0
    5.9848   -4.4104    0.0000 H   0  0  0  0  0  0  0  0  0  0  0  0
    5.0211   -2.7400    0.0000 H   0  0  0  0  0  0  0  0  0  0  0  0
    7.7971   -3.7512    0.0000 C   0  0  0  0  0  0  0  0  0  0  0  0
    8.7614   -4.9003    0.0000 H   0  0  0  0  0  0  0  0  0  0  0  0
    6.8329   -4.9003    0.0000 H   0  0  0  0  0  0  0  0  0  0  0  0
    9.0968   -3.0006    0.0000 N   0  0  0  0  0  0  0  0  0  0  0  0
   10.3957   -3.7508    0.0000 H   0  0  0  0  0  0  0  0  0  0  0  0
    9.0975   -1.4998    0.0000 C   0  0  0  0  0  0  0  0  0  0  0  0
   10.3968   -0.7502    0.0000 O   0  0  0  0  0  0  0  0  0  0  0  0
    7.7986   -0.7496    0.0000 C   0  0  0  0  0  0  0  0  0  0  0  0
    6.8343    0.3994    0.0000 H   0  0  0  0  0  0  0  0  0  0  0  0
    8.7628    0.3994    0.0000 H   0  0  0  0  0  0  0  0  0  0  0  0
   -1.2989    1.5002    0.0000 C   0  0  0  0  0  0  0  0  0  0  0  0
   -1.2987    3.0002    0.0000 O   0  0  0  0  0  0  0  0  0  0  0  0
   -2.5981    0.7504    0.0000 O   0  0  0  0  0  0  0  0  0  0  0  0
   -3.8970    1.5006    0.0000 H   0  0  0  0  0  0  0  0  0  0  0  0
  1  2  1  0  0  0  0 
  1  3  1  0  0  0  0 
  1  4  1  0  0  0  0 
  4  5  1  0  0  0  0 
  4  6  1  0  0  0  0 
  4  7  1  0  0  0  0 
  1  7  1  0  0  0  0 
  7  8  1  0  0  0  0 
  7  9  1  0  0  0  0 
  9 10  1  0  0  0  0 
 10 11  1  0  0  0  0 
 10 12  2  0  0  0  0 
 12 13  1  0  0  0  0 
 13 14  2  0  0  0  0 
 13 15  1  0  0  0  0 
 15 16  2  0  0  0  0 
  9 16  1  0  0  0  0 
 16 17  1  0  0  0  0 
 17 18  1  0  0  0  0 
 17 19  2  0  0  0  0 
 19 20  1  0  0  0  0 
 20 21  2  0  0  0  0 
 15 21  1  0  0  0  0 
 21 22  1  0  0  0  0 
 20 23  1  0  0  0  0 
 19 24  1  0  0  0  0 
 24 25  1  0  0  0  0 
 25 26  1  0  0  0  0 
 25 27  1  0  0  0  0 
 25 28  1  0  0  0  0 
 28 29  1  0  0  0  0 
 28 30  1  0  0  0  0 
 28 31  1  0  0  0  0 
 31 32  1  0  0  0  0 
 31 33  1  0  0  0  0 
 33 34  2  0  0  0  0 
 33 35  1  0  0  0  0 
 24 35  1  0  0  0  0 
 35 36  1  0  0  0  0 
 35 37  1  0  0  0  0 
 12 38  1  0  0  0  0 
 38 39  2  0  0  0  0 
 38 40  1  0  0  0  0 
 40 41  1  0  0  0  0 
M  END
> <Rank>
3

> <Priority_score>
0.66

> <Reaction_type>
oxidation_(amine_in_a_ring)

> <Parent_ID>
80

> <Parent_InChI>
InChI=1S/C17H18FN3O3/c18-13-7-11-14(8-15(13)20-5-3-19-4-6-20)21(10-1-2-10)9-12(16(11)22)17(23)24/h7-10,19H,1-6H2,(H,23,24)

> <Parent_SMILES>
O=C(O)c1cn(C2CC2)c2cc(N3CCNCC3)c(F)cc2c1=O

$$$$
Molecule 80_metabolite 5
  CDK     0516241031

 43 45  0  0  0  0  0  0  0  0999 V2000
    0.7873   -4.8896    0.0000 C   0  0  0  0  0  0  0  0  0  0  0  0
   -0.1764   -6.0391    0.0000 H   0  0  0  0  0  0  0  0  0  0  0  0
    2.0865   -5.6392    0.0000 H   0  0  0  0  0  0  0  0  0  0  0  0
   -0.1781   -3.7405    0.0000 C   0  0  0  0  0  0  0  0  0  0  0  0
   -0.6912   -2.3310    0.0000 H   0  0  0  0  0  0  0  0  0  0  0  0
   -1.4769   -4.4909    0.0000 H   0  0  0  0  0  0  0  0  0  0  0  0
    1.3000   -3.4800    0.0000 C   0  0  0  0  0  0  0  0  0  0  0  0
    2.7772   -3.7403    0.0000 H   0  0  0  0  0  0  0  0  0  0  0  0
    1.3000   -1.5000    0.0000 N   0  0  0  0  0  0  0  0  0  0  0  0
    0.0000   -0.7500    0.0000 C   0  0  0  0  0  0  0  0  0  0  0  0
   -1.2989   -1.5002    0.0000 H   0  0  0  0  0  0  0  0  0  0  0  0
    0.0000    0.7500    0.0000 C   0  0  0  0  0  0  0  0  0  0  0  0
    1.3000    1.5000    0.0000 C   0  0  0  0  0  0  0  0  0  0  0  0
    1.3000    3.0000    0.0000 O   0  0  0  0  0  0  0  0  0  0  0  0
    2.6000    0.7500    0.0000 C   0  0  0  0  0  0  0  0  0  0  0  0
    2.6000   -0.7500    0.0000 C   0  0  0  0  0  0  0  0  0  0  0  0
    3.9000   -1.5000    0.0000 C   0  0  0  0  0  0  0  0  0  0  0  0
    3.9000   -3.0000    0.0000 H   0  0  0  0  0  0  0  0  0  0  0  0
    5.2000   -0.7500    0.0000 C   0  0  0  0  0  0  0  0  0  0  0  0
    5.2000    0.7500    0.0000 C   0  0  0  0  0  0  0  0  0  0  0  0
    3.9000    1.5000    0.0000 C   0  0  0  0  0  0  0  0  0  0  0  0
    3.9000    3.0000    0.0000 H   0  0  0  0  0  0  0  0  0  0  0  0
    6.4989    1.5002    0.0000 F   0  0  0  0  0  0  0  0  0  0  0  0
    6.4989   -1.5002    0.0000 N   0  0  0  0  0  0  0  0  0  0  0  0
    7.7981   -0.7504    0.0000 C   0  0  0  0  0  0  0  0  0  0  0  0
    6.8341    0.3988    0.0000 H   0  0  0  0  0  0  0  0  0  0  0  0
    8.7624    0.3985    0.0000 H   0  0  0  0  0  0  0  0  0  0  0  0
    9.0970   -1.5006    0.0000 C   0  0  0  0  0  0  0  0  0  0  0  0
   10.0610   -2.6498    0.0000 H   0  0  0  0  0  0  0  0  0  0  0  0
    8.1326   -2.6495    0.0000 H   0  0  0  0  0  0  0  0  0  0  0  0
   10.3962   -0.7508    0.0000 N   0  0  0  0  0  0  0  0  0  0  0  0
   11.6951   -1.5010    0.0000 H   0  0  0  0  0  0  0  0  0  0  0  0
   10.3964    0.7492    0.0000 H   0  0  0  0  0  0  0  0  0  0  0  0
    6.4987   -3.0002    0.0000 C   0  0  0  0  0  0  0  0  0  0  0  0
    5.9854   -4.4097    0.0000 H   0  0  0  0  0  0  0  0  0  0  0  0
    5.0215   -2.7395    0.0000 H   0  0  0  0  0  0  0  0  0  0  0  0
    7.7976   -3.7504    0.0000 C   0  0  0  0  0  0  0  0  0  0  0  0
    7.7974   -5.2504    0.0000 H   0  0  0  0  0  0  0  0  0  0  0  0
    9.0968   -3.0006    0.0000 O   0  0  0  0  0  0  0  0  0  0  0  0
   -1.2989    1.5002    0.0000 C   0  0  0  0  0  0  0  0  0  0  0  0
   -1.2987    3.0002    0.0000 O   0  0  0  0  0  0  0  0  0  0  0  0
   -2.5981    0.7504    0.0000 O   0  0  0  0  0  0  0  0  0  0  0  0
   -3.8970    1.5006    0.0000 H   0  0  0  0  0  0  0  0  0  0  0  0
  1  2  1  0  0  0  0 
  1  3  1  0  0  0  0 
  1  4  1  0  0  0  0 
  4  5  1  0  0  0  0 
  4  6  1  0  0  0  0 
  4  7  1  0  0  0  0 
  1  7  1  0  0  0  0 
  7  8  1  0  0  0  0 
  7  9  1  0  0  0  0 
  9 10  1  0  0  0  0 
 10 11  1  0  0  0  0 
 10 12  2  0  0  0  0 
 12 13  1  0  0  0  0 
 13 14  2  0  0  0  0 
 13 15  1  0  0  0  0 
 15 16  2  0  0  0  0 
  9 16  1  0  0  0  0 
 16 17  1  0  0  0  0 
 17 18  1  0  0  0  0 
 17 19  2  0  0  0  0 
 19 20  1  0  0  0  0 
 20 21  2  0  0  0  0 
 15 21  1  0  0  0  0 
 21 22  1  0  0  0  0 
 20 23  1  0  0  0  0 
 19 24  1  0  0  0  0 
 24 25  1  0  0  0  0 
 25 26  1  0  0  0  0 
 25 27  1  0  0  0  0 
 25 28  1  0  0  0  0 
 28 29  1  0  0  0  0 
 28 30  1  0  0  0  0 
 28 31  1  0  0  0  0 
 31 32  1  0  0  0  0 
 31 33  1  0  0  0  0 
 24 34  1  0  0  0  0 
 34 35  1  0  0  0  0 
 34 36  1  0  0  0  0 
 34 37  1  0  0  0  0 
 37 38  1  0  0  0  0 
 37 39  2  0  0  0  0 
 12 40  1  0  0  0  0 
 40 41  2  0  0  0  0 
 40 42  1  0  0  0  0 
 42 43  1  0  0  0  0 
M  END
> <Rank>
3

> <Priority_score>
0.66

> <Reaction_type>
N-dealkylation

> <Parent_ID>
80

> <Parent_InChI>
InChI=1S/C17H18FN3O3/c18-13-7-11-14(8-15(13)20-5-3-19-4-6-20)21(10-1-2-10)9-12(16(11)22)17(23)24/h7-10,19H,1-6H2,(H,23,24)

> <Parent_SMILES>
O=C(O)c1cn(C2CC2)c2cc(N3CCNCC3)c(F)cc2c1=O

$$$$
Molecule 80_metabolite 6
  CDK     0516241031

 43 46  0  0  0  0  0  0  0  0999 V2000
    0.7873   -4.8896    0.0000 C   0  0  0  0  0  0  0  0  0  0  0  0
   -0.1764   -6.0391    0.0000 H   0  0  0  0  0  0  0  0  0  0  0  0
    2.0865   -5.6392    0.0000 H   0  0  0  0  0  0  0  0  0  0  0  0
   -0.1781   -3.7405    0.0000 C   0  0  0  0  0  0  0  0  0  0  0  0
   -0.6912   -2.3310    0.0000 H   0  0  0  0  0  0  0  0  0  0  0  0
   -1.4769   -4.4909    0.0000 H   0  0  0  0  0  0  0  0  0  0  0  0
    1.3000   -3.4800    0.0000 C   0  0  0  0  0  0  0  0  0  0  0  0
    2.7772   -3.7403    0.0000 H   0  0  0  0  0  0  0  0  0  0  0  0
    1.3000   -1.5000    0.0000 N   0  0  0  0  0  0  0  0  0  0  0  0
    0.0000   -0.7500    0.0000 C   0  0  0  0  0  0  0  0  0  0  0  0
   -1.2989   -1.5002    0.0000 H   0  0  0  0  0  0  0  0  0  0  0  0
    0.0000    0.7500    0.0000 C   0  0  0  0  0  0  0  0  0  0  0  0
    1.3000    1.5000    0.0000 C   0  0  0  0  0  0  0  0  0  0  0  0
    1.3000    3.0000    0.0000 O   0  0  0  0  0  0  0  0  0  0  0  0
    2.6000    0.7500    0.0000 C   0  0  0  0  0  0  0  0  0  0  0  0
    2.6000   -0.7500    0.0000 C   0  0  0  0  0  0  0  0  0  0  0  0
    3.9000   -1.5000    0.0000 C   0  0  0  0  0  0  0  0  0  0  0  0
    3.9000   -3.0000    0.0000 H   0  0  0  0  0  0  0  0  0  0  0  0
    5.2000   -0.7500    0.0000 C   0  0  0  0  0  0  0  0  0  0  0  0
    5.2000    0.7500    0.0000 C   0  0  0  0  0  0  0  0  0  0  0  0
    3.9000    1.5000    0.0000 C   0  0  0  0  0  0  0  0  0  0  0  0
    3.9000    3.0000    0.0000 H   0  0  0  0  0  0  0  0  0  0  0  0
    6.4989    1.5002    0.0000 F   0  0  0  0  0  0  0  0  0  0  0  0
    6.4989   -1.5002    0.0000 N   0  0  0  0  0  0  0  0  0  0  0  0
    6.4982   -3.0010    0.0000 C   0  0  0  0  0  0  0  0  0  0  0  0
    5.9848   -4.4104    0.0000 H   0  0  0  0  0  0  0  0  0  0  0  0
    5.0211   -2.7400    0.0000 H   0  0  0  0  0  0  0  0  0  0  0  0
    7.7971   -3.7512    0.0000 C   0  0  0  0  0  0  0  0  0  0  0  0
    8.7614   -4.9003    0.0000 H   0  0  0  0  0  0  0  0  0  0  0  0
    6.8329   -4.9003    0.0000 H   0  0  0  0  0  0  0  0  0  0  0  0
    9.0968   -3.0006    0.0000 N   0  0  0  0  0  0  0  0  0  0  0  0
    9.0975   -1.4998    0.0000 C   0  0  0  0  0  0  0  0  0  0  0  0
    9.6109   -0.0904    0.0000 H   0  0  0  0  0  0  0  0  0  0  0  0
   10.5746   -1.7608    0.0000 H   0  0  0  0  0  0  0  0  0  0  0  0
    7.7986   -0.7496    0.0000 C   0  0  0  0  0  0  0  0  0  0  0  0
    6.8343    0.3994    0.0000 H   0  0  0  0  0  0  0  0  0  0  0  0
    8.7628    0.3994    0.0000 H   0  0  0  0  0  0  0  0  0  0  0  0
   10.3957   -3.7508    0.0000 O   0  0  0  0  0  0  0  0  0  0  0  0
   11.6948   -3.0010    0.0000 H   0  0  0  0  0  0  0  0  0  0  0  0
   -1.2989    1.5002    0.0000 C   0  0  0  0  0  0  0  0  0  0  0  0
   -1.2987    3.0002    0.0000 O   0  0  0  0  0  0  0  0  0  0  0  0
   -2.5981    0.7504    0.0000 O   0  0  0  0  0  0  0  0  0  0  0  0
   -3.8970    1.5006    0.0000 H   0  0  0  0  0  0  0  0  0  0  0  0
  1  2  1  0  0  0  0 
  1  3  1  0  0  0  0 
  1  4  1  0  0  0  0 
  4  5  1  0  0  0  0 
  4  6  1  0  0  0  0 
  4  7  1  0  0  0  0 
  1  7  1  0  0  0  0 
  7  8  1  0  0  0  0 
  7  9  1  0  0  0  0 
  9 10  1  0  0  0  0 
 10 11  1  0  0  0  0 
 10 12  2  0  0  0  0 
 12 13  1  0  0  0  0 
 13 14  2  0  0  0  0 
 13 15  1  0  0  0  0 
 15 16  2  0  0  0  0 
  9 16  1  0  0  0  0 
 16 17  1  0  0  0  0 
 17 18  1  0  0  0  0 
 17 19  2  0  0  0  0 
 19 20  1  0  0  0  0 
 20 21  2  0  0  0  0 
 15 21  1  0  0  0  0 
 21 22  1  0  0  0  0 
 20 23  1  0  0  0  0 
 19 24  1  0  0  0  0 
 24 25  1  0  0  0  0 
 25 26  1  0  0  0  0 
 25 27  1  0  0  0  0 
 25 28  1  0  0  0  0 
 28 29  1  0  0  0  0 
 28 30  1  0  0  0  0 
 28 31  1  0  0  0  0 
 31 32  1  0  0  0  0 
 32 33  1  0  0  0  0 
 32 34  1  0  0  0  0 
 32 35  1  0  0  0  0 
 24 35  1  0  0  0  0 
 35 36  1  0  0  0  0 
 35 37  1  0  0  0  0 
 31 38  1  0  0  0  0 
 38 39  1  0  0  0  0 
 12 40  1  0  0  0  0 
 40 41  2  0  0  0  0 
 40 42  1  0  0  0  0 
 42 43  1  0  0  0  0 
M  END
> <Rank>
3

> <Priority_score>
0.66

> <Reaction_type>
amine hydroxylation

> <Parent_ID>
80

> <Parent_InChI>
InChI=1S/C17H18FN3O3/c18-13-7-11-14(8-15(13)20-5-3-19-4-6-20)21(10-1-2-10)9-12(16(11)22)17(23)24/h7-10,19H,1-6H2,(H,23,24)

> <Parent_SMILES>
O=C(O)c1cn(C2CC2)c2cc(N3CCNCC3)c(F)cc2c1=O

$$$$
Molecule 80_metabolite 7
  CDK     0516241031

 38 40  0  0  0  0  0  0  0  0999 V2000
    0.7873   -4.8896    0.0000 C   0  0  0  0  0  0  0  0  0  0  0  0
   -0.1764   -6.0391    0.0000 H   0  0  0  0  0  0  0  0  0  0  0  0
    2.0865   -5.6392    0.0000 H   0  0  0  0  0  0  0  0  0  0  0  0
   -0.1781   -3.7405    0.0000 C   0  0  0  0  0  0  0  0  0  0  0  0
   -0.6912   -2.3310    0.0000 H   0  0  0  0  0  0  0  0  0  0  0  0
   -1.4769   -4.4909    0.0000 H   0  0  0  0  0  0  0  0  0  0  0  0
    1.3000   -3.4800    0.0000 C   0  0  0  0  0  0  0  0  0  0  0  0
    2.7772   -3.7403    0.0000 H   0  0  0  0  0  0  0  0  0  0  0  0
    1.3000   -1.5000    0.0000 N   0  0  0  0  0  0  0  0  0  0  0  0
    0.0000   -0.7500    0.0000 C   0  0  0  0  0  0  0  0  0  0  0  0
   -1.2989   -1.5002    0.0000 H   0  0  0  0  0  0  0  0  0  0  0  0
    0.0000    0.7500    0.0000 C   0  0  0  0  0  0  0  0  0  0  0  0
    1.3000    1.5000    0.0000 C   0  0  0  0  0  0  0  0  0  0  0  0
    1.3000    3.0000    0.0000 O   0  0  0  0  0  0  0  0  0  0  0  0
    2.6000    0.7500    0.0000 C   0  0  0  0  0  0  0  0  0  0  0  0
    2.6000   -0.7500    0.0000 C   0  0  0  0  0  0  0  0  0  0  0  0
    3.9000   -1.5000    0.0000 C   0  0  0  0  0  0  0  0  0  0  0  0
    3.9000   -3.0000    0.0000 H   0  0  0  0  0  0  0  0  0  0  0  0
    5.2000   -0.7500    0.0000 C   0  0  0  0  0  0  0  0  0  0  0  0
    5.2000    0.7500    0.0000 C   0  0  0  0  0  0  0  0  0  0  0  0
    3.9000    1.5000    0.0000 C   0  0  0  0  0  0  0  0  0  0  0  0
    3.9000    3.0000    0.0000 H   0  0  0  0  0  0  0  0  0  0  0  0
    6.4989    1.5002    0.0000 F   0  0  0  0  0  0  0  0  0  0  0  0
    6.4989   -1.5002    0.0000 N   0  0  0  0  0  0  0  0  0  0  0  0
    6.4987   -3.0002    0.0000 H   0  0  0  0  0  0  0  0  0  0  0  0
    7.7981   -0.7504    0.0000 C   0  0  0  0  0  0  0  0  0  0  0  0
    6.8341    0.3988    0.0000 H   0  0  0  0  0  0  0  0  0  0  0  0
    8.7624    0.3985    0.0000 H   0  0  0  0  0  0  0  0  0  0  0  0
    9.0970   -1.5006    0.0000 C   0  0  0  0  0  0  0  0  0  0  0  0
   10.0610   -2.6498    0.0000 H   0  0  0  0  0  0  0  0  0  0  0  0
    8.1326   -2.6495    0.0000 H   0  0  0  0  0  0  0  0  0  0  0  0
   10.3962   -0.7508    0.0000 N   0  0  0  0  0  0  0  0  0  0  0  0
   11.6951   -1.5010    0.0000 H   0  0  0  0  0  0  0  0  0  0  0  0
   10.3964    0.7492    0.0000 H   0  0  0  0  0  0  0  0  0  0  0  0
   -1.2989    1.5002    0.0000 C   0  0  0  0  0  0  0  0  0  0  0  0
   -1.2987    3.0002    0.0000 O   0  0  0  0  0  0  0  0  0  0  0  0
   -2.5981    0.7504    0.0000 O   0  0  0  0  0  0  0  0  0  0  0  0
   -3.8970    1.5006    0.0000 H   0  0  0  0  0  0  0  0  0  0  0  0
  1  2  1  0  0  0  0 
  1  3  1  0  0  0  0 
  1  4  1  0  0  0  0 
  4  5  1  0  0  0  0 
  4  6  1  0  0  0  0 
  4  7  1  0  0  0  0 
  1  7  1  0  0  0  0 
  7  8  1  0  0  0  0 
  7  9  1  0  0  0  0 
  9 10  1  0  0  0  0 
 10 11  1  0  0  0  0 
 10 12  2  0  0  0  0 
 12 13  1  0  0  0  0 
 13 14  2  0  0  0  0 
 13 15  1  0  0  0  0 
 15 16  2  0  0  0  0 
  9 16  1  0  0  0  0 
 16 17  1  0  0  0  0 
 17 18  1  0  0  0  0 
 17 19  2  0  0  0  0 
 19 20  1  0  0  0  0 
 20 21  2  0  0  0  0 
 15 21  1  0  0  0  0 
 21 22  1  0  0  0  0 
 20 23  1  0  0  0  0 
 19 24  1  0  0  0  0 
 24 25  1  0  0  0  0 
 24 26  1  0  0  0  0 
 26 27  1  0  0  0  0 
 26 28  1  0  0  0  0 
 26 29  1  0  0  0  0 
 29 30  1  0  0  0  0 
 29 31  1  0  0  0  0 
 29 32  1  0  0  0  0 
 32 33  1  0  0  0  0 
 32 34  1  0  0  0  0 
 12 35  1  0  0  0  0 
 35 36  2  0  0  0  0 
 35 37  1  0  0  0  0 
 37 38  1  0  0  0  0 
M  END
> <Rank>
3

> <Priority_score>
0.66

> <Reaction_type>
N-dealkylation_(piperazine)

> <Parent_ID>
80

> <Parent_InChI>
InChI=1S/C17H18FN3O3/c18-13-7-11-14(8-15(13)20-5-3-19-4-6-20)21(10-1-2-10)9-12(16(11)22)17(23)24/h7-10,19H,1-6H2,(H,23,24)

> <Parent_SMILES>
O=C(O)c1cn(C2CC2)c2cc(N3CCNCC3)c(F)cc2c1=O

$$$$
Molecule 80_metabolite 8
  CDK     0516241031

 43 46  0  0  0  0  0  0  0  0999 V2000
    0.7873   -4.8896    0.0000 C   0  0  0  0  0  0  0  0  0  0  0  0
   -0.1764   -6.0391    0.0000 H   0  0  0  0  0  0  0  0  0  0  0  0
    2.0865   -5.6392    0.0000 H   0  0  0  0  0  0  0  0  0  0  0  0
   -0.1781   -3.7405    0.0000 C   0  0  0  0  0  0  0  0  0  0  0  0
   -0.6912   -2.3310    0.0000 H   0  0  0  0  0  0  0  0  0  0  0  0
   -1.4769   -4.4909    0.0000 H   0  0  0  0  0  0  0  0  0  0  0  0
    1.3000   -3.4800    0.0000 C   0  0  0  0  0  0  0  0  0  0  0  0
    2.7772   -3.7403    0.0000 H   0  0  0  0  0  0  0  0  0  0  0  0
    1.3000   -1.5000    0.0000 N   0  0  0  0  0  0  0  0  0  0  0  0
    0.0000   -0.7500    0.0000 C   0  0  0  0  0  0  0  0  0  0  0  0
   -1.2989   -1.5002    0.0000 H   0  0  0  0  0  0  0  0  0  0  0  0
    0.0000    0.7500    0.0000 C   0  0  0  0  0  0  0  0  0  0  0  0
    1.3000    1.5000    0.0000 C   0  0  0  0  0  0  0  0  0  0  0  0
    1.3000    3.0000    0.0000 O   0  0  0  0  0  0  0  0  0  0  0  0
    2.6000    0.7500    0.0000 C   0  0  0  0  0  0  0  0  0  0  0  0
    2.6000   -0.7500    0.0000 C   0  0  0  0  0  0  0  0  0  0  0  0
    3.9000   -1.5000    0.0000 C   0  0  0  0  0  0  0  0  0  0  0  0
    3.9000   -3.0000    0.0000 H   0  0  0  0  0  0  0  0  0  0  0  0
    5.2000   -0.7500    0.0000 C   0  0  0  0  0  0  0  0  0  0  0  0
    5.2000    0.7500    0.0000 C   0  0  0  0  0  0  0  0  0  0  0  0
    3.9000    1.5000    0.0000 C   0  0  0  0  0  0  0  0  0  0  0  0
    3.9000    3.0000    0.0000 H   0  0  0  0  0  0  0  0  0  0  0  0
    6.4989    1.5002    0.0000 F   0  0  0  0  0  0  0  0  0  0  0  0
    6.4989   -1.5002    0.0000 N   0  0  0  0  0  0  0  0  0  0  0  0
    6.4982   -3.0010    0.0000 C   0  0  0  0  0  0  0  0  0  0  0  0
    5.9848   -4.4104    0.0000 H   0  0  0  0  0  0  0  0  0  0  0  0
    5.0211   -2.7400    0.0000 H   0  0  0  0  0  0  0  0  0  0  0  0
    7.7971   -3.7512    0.0000 C   0  0  0  0  0  0  0  0  0  0  0  0
    8.7614   -4.9003    0.0000 H   0  0  0  0  0  0  0  0  0  0  0  0
    6.8329   -4.9003    0.0000 H   0  0  0  0  0  0  0  0  0  0  0  0
    9.0968   -3.0006    0.0000 N   0  0  0  0  0  0  0  0  0  0  0  0
   10.3957   -3.7508    0.0000 H   0  0  0  0  0  0  0  0  0  0  0  0
    9.0975   -1.4998    0.0000 C   0  0  0  0  0  0  0  0  0  0  0  0
    9.6109   -0.0904    0.0000 H   0  0  0  0  0  0  0  0  0  0  0  0
   10.5746   -1.7608    0.0000 H   0  0  0  0  0  0  0  0  0  0  0  0
    7.7986   -0.7496    0.0000 C   0  0  0  0  0  0  0  0  0  0  0  0
    6.8343    0.3994    0.0000 H   0  0  0  0  0  0  0  0  0  0  0  0
    8.7628    0.3994    0.0000 O   0  0  0  0  0  0  0  0  0  0  0  0
    8.2498    1.8090    0.0000 H   0  0  0  0  0  0  0  0  0  0  0  0
   -1.2989    1.5002    0.0000 C   0  0  0  0  0  0  0  0  0  0  0  0
   -1.2987    3.0002    0.0000 O   0  0  0  0  0  0  0  0  0  0  0  0
   -2.5981    0.7504    0.0000 O   0  0  0  0  0  0  0  0  0  0  0  0
   -3.8970    1.5006    0.0000 H   0  0  0  0  0  0  0  0  0  0  0  0
  1  2  1  0  0  0  0 
  1  3  1  0  0  0  0 
  1  4  1  0  0  0  0 
  4  5  1  0  0  0  0 
  4  6  1  0  0  0  0 
  4  7  1  0  0  0  0 
  1  7  1  0  0  0  0 
  7  8  1  0  0  0  0 
  7  9  1  0  0  0  0 
  9 10  1  0  0  0  0 
 10 11  1  0  0  0  0 
 10 12  2  0  0  0  0 
 12 13  1  0  0  0  0 
 13 14  2  0  0  0  0 
 13 15  1  0  0  0  0 
 15 16  2  0  0  0  0 
  9 16  1  0  0  0  0 
 16 17  1  0  0  0  0 
 17 18  1  0  0  0  0 
 17 19  2  0  0  0  0 
 19 20  1  0  0  0  0 
 20 21  2  0  0  0  0 
 15 21  1  0  0  0  0 
 21 22  1  0  0  0  0 
 20 23  1  0  0  0  0 
 19 24  1  0  0  0  0 
 24 25  1  0  0  0  0 
 25 26  1  0  0  0  0 
 25 27  1  0  0  0  0 
 25 28  1  0  0  0  0 
 28 29  1  0  0  0  0 
 28 30  1  0  0  0  0 
 28 31  1  0  0  0  0 
 31 32  1  0  0  0  0 
 31 33  1  0  0  0  0 
 33 34  1  0  0  0  0 
 33 35  1  0  0  0  0 
 33 36  1  0  0  0  0 
 24 36  1  0  0  0  0 
 36 37  1  0  0  0  0 
 36 38  1  0  0  0  0 
 38 39  1  0  0  0  0 
 12 40  1  0  0  0  0 
 40 41  2  0  0  0  0 
 40 42  1  0  0  0  0 
 42 43  1  0  0  0  0 
M  END
> <Rank>
8

> <Priority_score>
0.352

> <Reaction_type>
aliphatic_hydroxylation_(sec_carbon_next_to_SP2,in_a_ring)

> <Parent_ID>
80

> <Parent_InChI>
InChI=1S/C17H18FN3O3/c18-13-7-11-14(8-15(13)20-5-3-19-4-6-20)21(10-1-2-10)9-12(16(11)22)17(23)24/h7-10,19H,1-6H2,(H,23,24)

> <Parent_SMILES>
O=C(O)c1cn(C2CC2)c2cc(N3CCNCC3)c(F)cc2c1=O

$$$$
Molecule 80_metabolite 9
  CDK     0516241031

 41 44  0  0  0  0  0  0  0  0999 V2000
    0.7873   -4.8896    0.0000 C   0  0  0  0  0  0  0  0  0  0  0  0
   -0.1764   -6.0391    0.0000 H   0  0  0  0  0  0  0  0  0  0  0  0
    2.0865   -5.6392    0.0000 H   0  0  0  0  0  0  0  0  0  0  0  0
   -0.1781   -3.7405    0.0000 C   0  0  0  0  0  0  0  0  0  0  0  0
   -0.6912   -2.3310    0.0000 H   0  0  0  0  0  0  0  0  0  0  0  0
   -1.4769   -4.4909    0.0000 H   0  0  0  0  0  0  0  0  0  0  0  0
    1.3000   -3.4800    0.0000 C   0  0  0  0  0  0  0  0  0  0  0  0
    2.7772   -3.7403    0.0000 H   0  0  0  0  0  0  0  0  0  0  0  0
    1.3000   -1.5000    0.0000 N   0  0  0  0  0  0  0  0  0  0  0  0
    0.0000   -0.7500    0.0000 C   0  0  0  0  0  0  0  0  0  0  0  0
   -1.2989   -1.5002    0.0000 H   0  0  0  0  0  0  0  0  0  0  0  0
    0.0000    0.7500    0.0000 C   0  0  0  0  0  0  0  0  0  0  0  0
    1.3000    1.5000    0.0000 C   0  0  0  0  0  0  0  0  0  0  0  0
    1.3000    3.0000    0.0000 O   0  0  0  0  0  0  0  0  0  0  0  0
    2.6000    0.7500    0.0000 C   0  0  0  0  0  0  0  0  0  0  0  0
    2.6000   -0.7500    0.0000 C   0  0  0  0  0  0  0  0  0  0  0  0
    3.9000   -1.5000    0.0000 C   0  0  0  0  0  0  0  0  0  0  0  0
    3.9000   -3.0000    0.0000 H   0  0  0  0  0  0  0  0  0  0  0  0
    5.2000   -0.7500    0.0000 C   0  0  0  0  0  0  0  0  0  0  0  0
    5.2000    0.7500    0.0000 C   0  0  0  0  0  0  0  0  0  0  0  0
    3.9000    1.5000    0.0000 C   0  0  0  0  0  0  0  0  0  0  0  0
    3.9000    3.0000    0.0000 H   0  0  0  0  0  0  0  0  0  0  0  0
    6.4989    1.5002    0.0000 F   0  0  0  0  0  0  0  0  0  0  0  0
    6.4989   -1.5002    0.0000 N   0  0  0  0  0  0  0  0  0  0  0  0
    6.4982   -3.0010    0.0000 C   0  0  0  0  0  0  0  0  0  0  0  0
    5.9848   -4.4104    0.0000 H   0  0  0  0  0  0  0  0  0  0  0  0
    5.0211   -2.7400    0.0000 H   0  0  0  0  0  0  0  0  0  0  0  0
    7.7971   -3.7512    0.0000 C   0  0  0  0  0  0  0  0  0  0  0  0
    8.7614   -4.9003    0.0000 H   0  0  0  0  0  0  0  0  0  0  0  0
    6.8329   -4.9003    0.0000 H   0  0  0  0  0  0  0  0  0  0  0  0
    9.0968   -3.0006    0.0000 N   0  0  0  0  0  0  0  0  0  0  0  0
   10.3957   -3.7508    0.0000 H   0  0  0  0  0  0  0  0  0  0  0  0
    9.0975   -1.4998    0.0000 C   0  0  0  0  0  0  0  0  0  0  0  0
    9.6109   -0.0904    0.0000 H   0  0  0  0  0  0  0  0  0  0  0  0
   10.5746   -1.7608    0.0000 H   0  0  0  0  0  0  0  0  0  0  0  0
    7.7986   -0.7496    0.0000 C   0  0  0  0  0  0  0  0  0  0  0  0
    7.7986    0.7504    0.0000 O   0  0  0  0  0  0  0  0  0  0  0  0
   -1.2989    1.5002    0.0000 C   0  0  0  0  0  0  0  0  0  0  0  0
   -1.2987    3.0002    0.0000 O   0  0  0  0  0  0  0  0  0  0  0  0
   -2.5981    0.7504    0.0000 O   0  0  0  0  0  0  0  0  0  0  0  0
   -3.8970    1.5006    0.0000 H   0  0  0  0  0  0  0  0  0  0  0  0
  1  2  1  0  0  0  0 
  1  3  1  0  0  0  0 
  1  4  1  0  0  0  0 
  4  5  1  0  0  0  0 
  4  6  1  0  0  0  0 
  4  7  1  0  0  0  0 
  1  7  1  0  0  0  0 
  7  8  1  0  0  0  0 
  7  9  1  0  0  0  0 
  9 10  1  0  0  0  0 
 10 11  1  0  0  0  0 
 10 12  2  0  0  0  0 
 12 13  1  0  0  0  0 
 13 14  2  0  0  0  0 
 13 15  1  0  0  0  0 
 15 16  2  0  0  0  0 
  9 16  1  0  0  0  0 
 16 17  1  0  0  0  0 
 17 18  1  0  0  0  0 
 17 19  2  0  0  0  0 
 19 20  1  0  0  0  0 
 20 21  2  0  0  0  0 
 15 21  1  0  0  0  0 
 21 22  1  0  0  0  0 
 20 23  1  0  0  0  0 
 19 24  1  0  0  0  0 
 24 25  1  0  0  0  0 
 25 26  1  0  0  0  0 
 25 27  1  0  0  0  0 
 25 28  1  0  0  0  0 
 28 29  1  0  0  0  0 
 28 30  1  0  0  0  0 
 28 31  1  0  0  0  0 
 31 32  1  0  0  0  0 
 31 33  1  0  0  0  0 
 33 34  1  0  0  0  0 
 33 35  1  0  0  0  0 
 33 36  1  0  0  0  0 
 24 36  1  0  0  0  0 
 36 37  2  0  0  0  0 
 12 38  1  0  0  0  0 
 38 39  2  0  0  0  0 
 38 40  1  0  0  0  0 
 40 41  1  0  0  0  0 
M  END
> <Rank>
8

> <Priority_score>
0.352

> <Reaction_type>
oxidation_(amine_in_a_ring)

> <Parent_ID>
80

> <Parent_InChI>
InChI=1S/C17H18FN3O3/c18-13-7-11-14(8-15(13)20-5-3-19-4-6-20)21(10-1-2-10)9-12(16(11)22)17(23)24/h7-10,19H,1-6H2,(H,23,24)

> <Parent_SMILES>
O=C(O)c1cn(C2CC2)c2cc(N3CCNCC3)c(F)cc2c1=O

$$$$
Molecule 80_metabolite 10
  CDK     0516241031

 62 66  0  0  0  0  0  0  0  0999 V2000
    0.7873   -4.8896    0.0000 C   0  0  0  0  0  0  0  0  0  0  0  0
   -0.1764   -6.0391    0.0000 H   0  0  0  0  0  0  0  0  0  0  0  0
    2.0865   -5.6392    0.0000 H   0  0  0  0  0  0  0  0  0  0  0  0
   -0.1781   -3.7405    0.0000 C   0  0  0  0  0  0  0  0  0  0  0  0
   -0.6912   -2.3310    0.0000 H   0  0  0  0  0  0  0  0  0  0  0  0
   -1.4769   -4.4909    0.0000 H   0  0  0  0  0  0  0  0  0  0  0  0
    1.3000   -3.4800    0.0000 C   0  0  0  0  0  0  0  0  0  0  0  0
    2.7772   -3.7403    0.0000 H   0  0  0  0  0  0  0  0  0  0  0  0
    1.3000   -1.5000    0.0000 N   0  0  0  0  0  0  0  0  0  0  0  0
    0.0000   -0.7500    0.0000 C   0  0  0  0  0  0  0  0  0  0  0  0
   -1.2989   -1.5002    0.0000 H   0  0  0  0  0  0  0  0  0  0  0  0
    0.0000    0.7500    0.0000 C   0  0  0  0  0  0  0  0  0  0  0  0
    1.3000    1.5000    0.0000 C   0  0  0  0  0  0  0  0  0  0  0  0
    1.3000    3.0000    0.0000 O   0  0  0  0  0  0  0  0  0  0  0  0
    2.6000    0.7500    0.0000 C   0  0  0  0  0  0  0  0  0  0  0  0
    2.6000   -0.7500    0.0000 C   0  0  0  0  0  0  0  0  0  0  0  0
    3.9000   -1.5000    0.0000 C   0  0  0  0  0  0  0  0  0  0  0  0
    3.9000   -3.0000    0.0000 H   0  0  0  0  0  0  0  0  0  0  0  0
    5.2000   -0.7500    0.0000 C   0  0  0  0  0  0  0  0  0  0  0  0
    5.2000    0.7500    0.0000 C   0  0  0  0  0  0  0  0  0  0  0  0
    3.9000    1.5000    0.0000 C   0  0  0  0  0  0  0  0  0  0  0  0
    3.9000    3.0000    0.0000 H   0  0  0  0  0  0  0  0  0  0  0  0
    6.4989    1.5002    0.0000 F   0  0  0  0  0  0  0  0  0  0  0  0
    6.4989   -1.5002    0.0000 N   0  0  0  0  0  0  0  0  0  0  0  0
    7.7989   -0.7502    0.0000 C   0  0  0  0  0  0  0  0  0  0  0  0
    6.8349    0.3990    0.0000 H   0  0  0  0  0  0  0  0  0  0  0  0
    8.7630    0.3990    0.0000 H   0  0  0  0  0  0  0  0  0  0  0  0
    9.0989   -1.5002    0.0000 C   0  0  0  0  0  0  0  0  0  0  0  0
    9.6116   -0.0906    0.0000 H   0  0  0  0  0  0  0  0  0  0  0  0
   10.5762   -1.7605    0.0000 H   0  0  0  0  0  0  0  0  0  0  0  0
    9.0989   -3.0002    0.0000 N   0  0  0  0  0  0  0  0  0  0  0  0
    7.7989   -3.7502    0.0000 C   0  0  0  0  0  0  0  0  0  0  0  0
    8.7630   -4.8994    0.0000 H   0  0  0  0  0  0  0  0  0  0  0  0
    6.8349   -4.8994    0.0000 H   0  0  0  0  0  0  0  0  0  0  0  0
    6.4989   -3.0002    0.0000 C   0  0  0  0  0  0  0  0  0  0  0  0
    5.9862   -4.4099    0.0000 H   0  0  0  0  0  0  0  0  0  0  0  0
    5.0217   -2.7399    0.0000 H   0  0  0  0  0  0  0  0  0  0  0  0
   10.8135   -3.9905    0.0000 C   0  0  0  0  0  0  0  0  0  0  0  0
   11.3269   -2.5811    0.0000 H   0  0  0  0  0  0  0  0  0  0  0  0
   12.2906   -4.2515    0.0000 C   0  0  0  0  0  0  0  0  0  0  0  0
   12.2913   -2.7515    0.0000 H   0  0  0  0  0  0  0  0  0  0  0  0
   12.8029   -5.6622    0.0000 C   0  0  0  0  0  0  0  0  0  0  0  0
   14.1023   -4.9128    0.0000 H   0  0  0  0  0  0  0  0  0  0  0  0
   11.8382   -6.8118    0.0000 C   0  0  0  0  0  0  0  0  0  0  0  0
   13.1371   -7.5620    0.0000 H   0  0  0  0  0  0  0  0  0  0  0  0
   10.3610   -6.5508    0.0000 C   0  0  0  0  0  0  0  0  0  0  0  0
   10.3603   -8.0508    0.0000 H   0  0  0  0  0  0  0  0  0  0  0  0
    8.8837   -6.8104    0.0000 C   0  0  0  0  0  0  0  0  0  0  0  0
    7.9202   -5.6608    0.0000 O   0  0  0  0  0  0  0  0  0  0  0  0
    8.3698   -8.2197    0.0000 O   0  0  0  0  0  0  0  0  0  0  0  0
    9.3333   -9.3693    0.0000 H   0  0  0  0  0  0  0  0  0  0  0  0
    9.8487   -5.1401    0.0000 O   0  0  0  0  0  0  0  0  0  0  0  0
   11.3248   -8.2212    0.0000 O   0  0  0  0  0  0  0  0  0  0  0  0
   12.2886   -9.3706    0.0000 H   0  0  0  0  0  0  0  0  0  0  0  0
   13.7668   -6.8115    0.0000 O   0  0  0  0  0  0  0  0  0  0  0  0
   15.2441   -6.5514    0.0000 H   0  0  0  0  0  0  0  0  0  0  0  0
   13.7680   -3.9919    0.0000 O   0  0  0  0  0  0  0  0  0  0  0  0
   14.2818   -2.5827    0.0000 H   0  0  0  0  0  0  0  0  0  0  0  0
   -1.2989    1.5002    0.0000 C   0  0  0  0  0  0  0  0  0  0  0  0
   -1.2987    3.0002    0.0000 O   0  0  0  0  0  0  0  0  0  0  0  0
   -2.5981    0.7504    0.0000 O   0  0  0  0  0  0  0  0  0  0  0  0
   -3.8970    1.5006    0.0000 H   0  0  0  0  0  0  0  0  0  0  0  0
  1  2  1  0  0  0  0 
  1  3  1  0  0  0  0 
  1  4  1  0  0  0  0 
  4  5  1  0  0  0  0 
  4  6  1  0  0  0  0 
  4  7  1  0  0  0  0 
  1  7  1  0  0  0  0 
  7  8  1  0  0  0  0 
  7  9  1  0  0  0  0 
  9 10  1  0  0  0  0 
 10 11  1  0  0  0  0 
 10 12  2  0  0  0  0 
 12 13  1  0  0  0  0 
 13 14  2  0  0  0  0 
 13 15  1  0  0  0  0 
 15 16  2  0  0  0  0 
  9 16  1  0  0  0  0 
 16 17  1  0  0  0  0 
 17 18  1  0  0  0  0 
 17 19  2  0  0  0  0 
 19 20  1  0  0  0  0 
 20 21  2  0  0  0  0 
 15 21  1  0  0  0  0 
 21 22  1  0  0  0  0 
 20 23  1  0  0  0  0 
 19 24  1  0  0  0  0 
 24 25  1  0  0  0  0 
 25 26  1  0  0  0  0 
 25 27  1  0  0  0  0 
 25 28  1  0  0  0  0 
 28 29  1  0  0  0  0 
 28 30  1  0  0  0  0 
 28 31  1  0  0  0  0 
 31 32  1  0  0  0  0 
 32 33  1  0  0  0  0 
 32 34  1  0  0  0  0 
 32 35  1  0  0  0  0 
 24 35  1  0  0  0  0 
 35 36  1  0  0  0  0 
 35 37  1  0  0  0  0 
 31 38  1  0  0  0  0 
 38 39  1  0  0  0  0 
 38 40  1  0  0  0  0 
 40 41  1  0  0  0  0 
 40 42  1  0  0  0  0 
 42 43  1  0  0  0  0 
 42 44  1  0  0  0  0 
 44 45  1  0  0  0  0 
 44 46  1  0  0  0  0 
 46 47  1  0  0  0  0 
 46 48  1  0  0  0  0 
 48 49  2  0  0  0  0 
 48 50  1  0  0  0  0 
 50 51  1  0  0  0  0 
 46 52  1  0  0  0  0 
 38 52  1  0  0  0  0 
 44 53  1  0  0  0  0 
 53 54  1  0  0  0  0 
 42 55  1  0  0  0  0 
 55 56  1  0  0  0  0 
 40 57  1  0  0  0  0 
 57 58  1  0  0  0  0 
 12 59  1  0  0  0  0 
 59 60  2  0  0  0  0 
 59 61  1  0  0  0  0 
 61 62  1  0  0  0  0 
M  END
> <Rank>
10

> <Priority_score>
0.26

> <Reaction_type>
N-glucuronidation_(NH_in_a_ring)

> <Parent_ID>
80

> <Parent_InChI>
InChI=1S/C17H18FN3O3/c18-13-7-11-14(8-15(13)20-5-3-19-4-6-20)21(10-1-2-10)9-12(16(11)22)17(23)24/h7-10,19H,1-6H2,(H,23,24)

> <Parent_SMILES>
O=C(O)c1cn(C2CC2)c2cc(N3CCNCC3)c(F)cc2c1=O

$$$$
Molecule 80_metabolite 11
  CDK     0516241031

 43 45  0  0  0  0  0  0  0  0999 V2000
    0.3715   -5.1296    0.0000 C   0  0  0  0  0  0  0  0  0  0  0  0
   -0.5922   -6.2791    0.0000 H   0  0  0  0  0  0  0  0  0  0  0  0
    1.6708   -5.8792    0.0000 H   0  0  0  0  0  0  0  0  0  0  0  0
   -0.5938   -3.9804    0.0000 C   0  0  0  0  0  0  0  0  0  0  0  0
   -1.1070   -2.5709    0.0000 H   0  0  0  0  0  0  0  0  0  0  0  0
   -1.8926   -4.7308    0.0000 H   0  0  0  0  0  0  0  0  0  0  0  0
    0.8843   -3.7199    0.0000 C   0  0  0  0  0  0  0  0  0  0  0  0
    2.3615   -3.9802    0.0000 H   0  0  0  0  0  0  0  0  0  0  0  0
    0.8843   -1.7399    0.0000 N   0  0  0  0  0  0  0  0  0  0  0  0
   -0.4157   -0.9899    0.0000 C   0  0  0  0  0  0  0  0  0  0  0  0
   -1.7146   -1.7401    0.0000 H   0  0  0  0  0  0  0  0  0  0  0  0
   -0.4157    0.5101    0.0000 C   0  0  0  0  0  0  0  0  0  0  0  0
    0.8843    1.2601    0.0000 C   0  0  0  0  0  0  0  0  0  0  0  0
    0.8843    2.7601    0.0000 O   0  0  0  0  0  0  0  0  0  0  0  0
    2.1843    0.5101    0.0000 C   0  0  0  0  0  0  0  0  0  0  0  0
    2.1843   -0.9899    0.0000 C   0  0  0  0  0  0  0  0  0  0  0  0
    3.4843   -1.7399    0.0000 C   0  0  0  0  0  0  0  0  0  0  0  0
    3.4843   -3.2399    0.0000 H   0  0  0  0  0  0  0  0  0  0  0  0
    4.7843   -0.9899    0.0000 C   0  0  0  0  0  0  0  0  0  0  0  0
    4.7843    0.5101    0.0000 C   0  0  0  0  0  0  0  0  0  0  0  0
    3.4843    1.2601    0.0000 C   0  0  0  0  0  0  0  0  0  0  0  0
    3.4843    2.7601    0.0000 H   0  0  0  0  0  0  0  0  0  0  0  0
    6.0832    1.2603    0.0000 F   0  0  0  0  0  0  0  0  0  0  0  0
    6.0832   -1.7401    0.0000 N   0  0  0  0  0  0  0  0  0  0  0  0
    6.0829   -3.2401    0.0000 H   0  0  0  0  0  0  0  0  0  0  0  0
    7.3823   -0.9903    0.0000 C   0  0  0  0  0  0  0  0  0  0  0  0
    6.4183    0.1589    0.0000 H   0  0  0  0  0  0  0  0  0  0  0  0
    8.3467    0.1586    0.0000 H   0  0  0  0  0  0  0  0  0  0  0  0
    8.6813   -1.7406    0.0000 C   0  0  0  0  0  0  0  0  0  0  0  0
    9.6453   -2.8898    0.0000 H   0  0  0  0  0  0  0  0  0  0  0  0
    7.7169   -2.8895    0.0000 H   0  0  0  0  0  0  0  0  0  0  0  0
   10.3962   -0.7508    0.0000 N   0  0  0  0  0  0  0  0  0  0  0  0
   10.3964    0.7492    0.0000 H   0  0  0  0  0  0  0  0  0  0  0  0
   11.6951   -1.5010    0.0000 C   0  0  0  0  0  0  0  0  0  0  0  0
   12.6591   -2.6503    0.0000 H   0  0  0  0  0  0  0  0  0  0  0  0
   10.7307   -2.6500    0.0000 H   0  0  0  0  0  0  0  0  0  0  0  0
   12.9942   -0.7512    0.0000 C   0  0  0  0  0  0  0  0  0  0  0  0
   14.2931   -1.5015    0.0000 H   0  0  0  0  0  0  0  0  0  0  0  0
   12.9945    0.7488    0.0000 O   0  0  0  0  0  0  0  0  0  0  0  0
   -1.7146    1.2603    0.0000 C   0  0  0  0  0  0  0  0  0  0  0  0
   -1.7144    2.7603    0.0000 O   0  0  0  0  0  0  0  0  0  0  0  0
   -3.0138    0.5105    0.0000 O   0  0  0  0  0  0  0  0  0  0  0  0
   -4.3127    1.2607    0.0000 H   0  0  0  0  0  0  0  0  0  0  0  0
  1  2  1  0  0  0  0 
  1  3  1  0  0  0  0 
  1  4  1  0  0  0  0 
  4  5  1  0  0  0  0 
  4  6  1  0  0  0  0 
  4  7  1  0  0  0  0 
  1  7  1  0  0  0  0 
  7  8  1  0  0  0  0 
  7  9  1  0  0  0  0 
  9 10  1  0  0  0  0 
 10 11  1  0  0  0  0 
 10 12  2  0  0  0  0 
 12 13  1  0  0  0  0 
 13 14  2  0  0  0  0 
 13 15  1  0  0  0  0 
 15 16  2  0  0  0  0 
  9 16  1  0  0  0  0 
 16 17  1  0  0  0  0 
 17 18  1  0  0  0  0 
 17 19  2  0  0  0  0 
 19 20  1  0  0  0  0 
 20 21  2  0  0  0  0 
 15 21  1  0  0  0  0 
 21 22  1  0  0  0  0 
 20 23  1  0  0  0  0 
 19 24  1  0  0  0  0 
 24 25  1  0  0  0  0 
 24 26  1  0  0  0  0 
 26 27  1  0  0  0  0 
 26 28  1  0  0  0  0 
 26 29  1  0  0  0  0 
 29 30  1  0  0  0  0 
 29 31  1  0  0  0  0 
 29 32  1  0  0  0  0 
 32 33  1  0  0  0  0 
 32 34  1  0  0  0  0 
 34 35  1  0  0  0  0 
 34 36  1  0  0  0  0 
 34 37  1  0  0  0  0 
 37 38  1  0  0  0  0 
 37 39  2  0  0  0  0 
 12 40  1  0  0  0  0 
 40 41  2  0  0  0  0 
 40 42  1  0  0  0  0 
 42 43  1  0  0  0  0 
M  END
> <Rank>
11

> <Priority_score>
0.228

> <Reaction_type>
N-dealkylation

> <Parent_ID>
80

> <Parent_InChI>
InChI=1S/C17H18FN3O3/c18-13-7-11-14(8-15(13)20-5-3-19-4-6-20)21(10-1-2-10)9-12(16(11)22)17(23)24/h7-10,19H,1-6H2,(H,23,24)

> <Parent_SMILES>
O=C(O)c1cn(C2CC2)c2cc(N3CCNCC3)c(F)cc2c1=O

$$$$
Molecule 80_metabolite 12
  CDK     0516241031

 43 46  0  0  0  0  0  0  0  0999 V2000
   -4.4930    4.2527    0.0000 C   0  0  0  0  0  0  0  0  0  0  0  0
   -5.9702    3.9924    0.0000 H   0  0  0  0  0  0  0  0  0  0  0  0
   -4.4930    5.7527    0.0000 H   0  0  0  0  0  0  0  0  0  0  0  0
   -3.9800    2.8422    0.0000 C   0  0  0  0  0  0  0  0  0  0  0  0
   -3.0156    1.6934    0.0000 H   0  0  0  0  0  0  0  0  0  0  0  0
   -5.2790    2.0922    0.0000 H   0  0  0  0  0  0  0  0  0  0  0  0
   -3.0158    3.9924    0.0000 C   0  0  0  0  0  0  0  0  0  0  0  0
   -2.5030    5.4020    0.0000 H   0  0  0  0  0  0  0  0  0  0  0  0
   -1.3007    3.0029    0.0000 N   0  0  0  0  0  0  0  0  0  0  0  0
   -1.3007    1.5021    0.0000 C   0  0  0  0  0  0  0  0  0  0  0  0
   -2.5996    0.7519    0.0000 H   0  0  0  0  0  0  0  0  0  0  0  0
   -0.0014    0.7525    0.0000 C   0  0  0  0  0  0  0  0  0  0  0  0
    1.2978    1.5037    0.0000 C   0  0  0  0  0  0  0  0  0  0  0  0
    2.5971    0.7542    0.0000 O   0  0  0  0  0  0  0  0  0  0  0  0
    1.2978    3.0046    0.0000 C   0  0  0  0  0  0  0  0  0  0  0  0
   -0.0014    3.7542    0.0000 C   0  0  0  0  0  0  0  0  0  0  0  0
   -0.0014    5.2550    0.0000 C   0  0  0  0  0  0  0  0  0  0  0  0
   -1.3007    6.0046    0.0000 H   0  0  0  0  0  0  0  0  0  0  0  0
    1.2978    6.0062    0.0000 C   0  0  0  0  0  0  0  0  0  0  0  0
    2.5971    5.2567    0.0000 C   0  0  0  0  0  0  0  0  0  0  0  0
    2.5971    3.7558    0.0000 C   0  0  0  0  0  0  0  0  0  0  0  0
    3.8964    3.0062    0.0000 H   0  0  0  0  0  0  0  0  0  0  0  0
    3.8960    6.0069    0.0000 F   0  0  0  0  0  0  0  0  0  0  0  0
    1.2969    7.9862    0.0000 N   0  0  0  0  0  0  0  0  0  0  0  0
    2.7750    7.7260    0.0000 C   0  0  0  0  0  0  0  0  0  0  0  0
    4.0744    6.9766    0.0000 H   0  0  0  0  0  0  0  0  0  0  0  0
    2.2625    6.3163    0.0000 H   0  0  0  0  0  0  0  0  0  0  0  0
    3.7385    8.8757    0.0000 C   0  0  0  0  0  0  0  0  0  0  0  0
    5.0369    9.6267    0.0000 H   0  0  0  0  0  0  0  0  0  0  0  0
    4.7035    7.7273    0.0000 H   0  0  0  0  0  0  0  0  0  0  0  0
    3.2239   10.2855    0.0000 N   0  0  0  0  0  0  0  0  0  0  0  0
    4.1874   11.4351    0.0000 H   0  0  0  0  0  0  0  0  0  0  0  0
    1.7458   10.5457    0.0000 C   0  0  0  0  0  0  0  0  0  0  0  0
    0.4464   11.2951    0.0000 H   0  0  0  0  0  0  0  0  0  0  0  0
    2.2583   11.9555    0.0000 H   0  0  0  0  0  0  0  0  0  0  0  0
    0.7823    9.3961    0.0000 C   0  0  0  0  0  0  0  0  0  0  0  0
   -0.5161    8.6451    0.0000 H   0  0  0  0  0  0  0  0  0  0  0  0
   -0.1827   10.5445    0.0000 H   0  0  0  0  0  0  0  0  0  0  0  0
   -0.1801    7.7247    0.0000 O   0  0  0  0  0  0  0  0  0  0  0  0
   -0.0007   -0.7475    0.0000 C   0  0  0  0  0  0  0  0  0  0  0  0
   -1.2994   -1.4981    0.0000 O   0  0  0  0  0  0  0  0  0  0  0  0
    1.2987   -1.4969    0.0000 O   0  0  0  0  0  0  0  0  0  0  0  0
    1.2994   -2.9969    0.0000 H   0  0  0  0  0  0  0  0  0  0  0  0
  1  2  1  0  0  0  0 
  1  3  1  0  0  0  0 
  1  4  1  0  0  0  0 
  4  5  1  0  0  0  0 
  4  6  1  0  0  0  0 
  4  7  1  0  0  0  0 
  1  7  1  0  0  0  0 
  7  8  1  0  0  0  0 
  7  9  1  0  0  0  0 
  9 10  1  0  0  0  0 
 10 11  1  0  0  0  0 
 10 12  2  0  0  0  0 
 12 13  1  0  0  0  0 
 13 14  2  0  0  0  0 
 13 15  1  0  0  0  0 
 15 16  2  0  0  0  0 
  9 16  1  0  0  0  0 
 16 17  1  0  0  0  0 
 17 18  1  0  0  0  0 
 17 19  2  0  0  0  0 
 19 20  1  0  0  0  0 
 20 21  2  0  0  0  0 
 15 21  1  0  0  0  0 
 21 22  1  0  0  0  0 
 20 23  1  0  0  0  0 
 19 24  1  0  0  0  0 
 24 25  1  0  0  0  0 
 25 26  1  0  0  0  0 
 25 27  1  0  0  0  0 
 25 28  1  0  0  0  0 
 28 29  1  0  0  0  0 
 28 30  1  0  0  0  0 
 28 31  1  0  0  0  0 
 31 32  1  0  0  0  0 
 31 33  1  0  0  0  0 
 33 34  1  0  0  0  0 
 33 35  1  0  0  0  0 
 33 36  1  0  0  0  0 
 24 36  1  0  0  0  0 
 36 37  1  0  0  0  0 
 36 38  1  0  0  0  0 
 24 39  1  0  0  0  0 
 12 40  1  0  0  0  0 
 40 41  2  0  0  0  0 
 40 42  1  0  0  0  0 
 42 43  1  0  0  0  0 
M  CHG  1  24   1
M  CHG  1  39  -1
M  END
> <Rank>
11

> <Priority_score>
0.228

> <Reaction_type>
N-oxidation

> <Parent_ID>
80

> <Parent_InChI>
InChI=1S/C17H18FN3O3/c18-13-7-11-14(8-15(13)20-5-3-19-4-6-20)21(10-1-2-10)9-12(16(11)22)17(23)24/h7-10,19H,1-6H2,(H,23,24)

> <Parent_SMILES>
O=C(O)c1cn(C2CC2)c2cc(N3CCNCC3)c(F)cc2c1=O

$$$$
Molecule 80_metabolite 13
  CDK     0516241031

 39 42  0  0  0  0  0  0  0  0999 V2000
    0.7873   -4.8896    0.0000 C   0  0  0  0  0  0  0  0  0  0  0  0
   -0.1764   -6.0391    0.0000 H   0  0  0  0  0  0  0  0  0  0  0  0
    2.0865   -5.6392    0.0000 H   0  0  0  0  0  0  0  0  0  0  0  0
   -0.1781   -3.7405    0.0000 C   0  0  0  0  0  0  0  0  0  0  0  0
   -0.6912   -2.3310    0.0000 H   0  0  0  0  0  0  0  0  0  0  0  0
   -1.4769   -4.4909    0.0000 H   0  0  0  0  0  0  0  0  0  0  0  0
    1.3000   -3.4800    0.0000 C   0  0  0  0  0  0  0  0  0  0  0  0
    2.7772   -3.7403    0.0000 H   0  0  0  0  0  0  0  0  0  0  0  0
    1.3000   -1.5000    0.0000 N   0  0  0  0  0  0  0  0  0  0  0  0
    0.0000   -0.7500    0.0000 C   0  0  0  0  0  0  0  0  0  0  0  0
   -1.2989   -1.5002    0.0000 H   0  0  0  0  0  0  0  0  0  0  0  0
    0.0000    0.7500    0.0000 C   0  0  0  0  0  0  0  0  0  0  0  0
   -1.2989    1.5002    0.0000 H   0  0  0  0  0  0  0  0  0  0  0  0
    1.3000    1.5000    0.0000 C   0  0  0  0  0  0  0  0  0  0  0  0
    1.3000    3.0000    0.0000 O   0  0  0  0  0  0  0  0  0  0  0  0
    2.6000    0.7500    0.0000 C   0  0  0  0  0  0  0  0  0  0  0  0
    2.6000   -0.7500    0.0000 C   0  0  0  0  0  0  0  0  0  0  0  0
    3.9000   -1.5000    0.0000 C   0  0  0  0  0  0  0  0  0  0  0  0
    3.9000   -3.0000    0.0000 H   0  0  0  0  0  0  0  0  0  0  0  0
    5.2000   -0.7500    0.0000 C   0  0  0  0  0  0  0  0  0  0  0  0
    5.2000    0.7500    0.0000 C   0  0  0  0  0  0  0  0  0  0  0  0
    3.9000    1.5000    0.0000 C   0  0  0  0  0  0  0  0  0  0  0  0
    3.9000    3.0000    0.0000 H   0  0  0  0  0  0  0  0  0  0  0  0
    6.4989    1.5002    0.0000 F   0  0  0  0  0  0  0  0  0  0  0  0
    6.4989   -1.5002    0.0000 N   0  0  0  0  0  0  0  0  0  0  0  0
    6.4982   -3.0010    0.0000 C   0  0  0  0  0  0  0  0  0  0  0  0
    5.9848   -4.4104    0.0000 H   0  0  0  0  0  0  0  0  0  0  0  0
    5.0211   -2.7400    0.0000 H   0  0  0  0  0  0  0  0  0  0  0  0
    7.7971   -3.7512    0.0000 C   0  0  0  0  0  0  0  0  0  0  0  0
    8.7614   -4.9003    0.0000 H   0  0  0  0  0  0  0  0  0  0  0  0
    6.8329   -4.9003    0.0000 H   0  0  0  0  0  0  0  0  0  0  0  0
    9.0968   -3.0006    0.0000 N   0  0  0  0  0  0  0  0  0  0  0  0
   10.3957   -3.7508    0.0000 H   0  0  0  0  0  0  0  0  0  0  0  0
    9.0975   -1.4998    0.0000 C   0  0  0  0  0  0  0  0  0  0  0  0
    9.6109   -0.0904    0.0000 H   0  0  0  0  0  0  0  0  0  0  0  0
   10.5746   -1.7608    0.0000 H   0  0  0  0  0  0  0  0  0  0  0  0
    7.7986   -0.7496    0.0000 C   0  0  0  0  0  0  0  0  0  0  0  0
    6.8343    0.3994    0.0000 H   0  0  0  0  0  0  0  0  0  0  0  0
    8.7628    0.3994    0.0000 H   0  0  0  0  0  0  0  0  0  0  0  0
  1  2  1  0  0  0  0 
  1  3  1  0  0  0  0 
  1  4  1  0  0  0  0 
  4  5  1  0  0  0  0 
  4  6  1  0  0  0  0 
  4  7  1  0  0  0  0 
  1  7  1  0  0  0  0 
  7  8  1  0  0  0  0 
  7  9  1  0  0  0  0 
  9 10  1  0  0  0  0 
 10 11  1  0  0  0  0 
 10 12  2  0  0  0  0 
 12 13  1  0  0  0  0 
 12 14  1  0  0  0  0 
 14 15  2  0  0  0  0 
 14 16  1  0  0  0  0 
 16 17  2  0  0  0  0 
  9 17  1  0  0  0  0 
 17 18  1  0  0  0  0 
 18 19  1  0  0  0  0 
 18 20  2  0  0  0  0 
 20 21  1  0  0  0  0 
 21 22  2  0  0  0  0 
 16 22  1  0  0  0  0 
 22 23  1  0  0  0  0 
 21 24  1  0  0  0  0 
 20 25  1  0  0  0  0 
 25 26  1  0  0  0  0 
 26 27  1  0  0  0  0 
 26 28  1  0  0  0  0 
 26 29  1  0  0  0  0 
 29 30  1  0  0  0  0 
 29 31  1  0  0  0  0 
 29 32  1  0  0  0  0 
 32 33  1  0  0  0  0 
 32 34  1  0  0  0  0 
 34 35  1  0  0  0  0 
 34 36  1  0  0  0  0 
 34 37  1  0  0  0  0 
 25 37  1  0  0  0  0 
 37 38  1  0  0  0  0 
 37 39  1  0  0  0  0 
M  END
> <Rank>
13

> <Priority_score>
0.22720337197049525

> <Reaction_type>
decarboxylation

> <Parent_ID>
80

> <Parent_InChI>
InChI=1S/C17H18FN3O3/c18-13-7-11-14(8-15(13)20-5-3-19-4-6-20)21(10-1-2-10)9-12(16(11)22)17(23)24/h7-10,19H,1-6H2,(H,23,24)

> <Parent_SMILES>
O=C(O)c1cn(C2CC2)c2cc(N3CCNCC3)c(F)cc2c1=O

$$$$
Molecule 80_metabolite 14
  CDK     0516241031

 40 44  0  0  0  0  0  0  0  0999 V2000
    5.9972   -2.6002    0.0000 C   0  0  0  0  0  0  0  0  0  0  0  0
    5.0407   -3.7556    0.0000 H   0  0  0  0  0  0  0  0  0  0  0  0
    7.3011   -3.3417    0.0000 H   0  0  0  0  0  0  0  0  0  0  0  0
    5.0247   -1.4570    0.0000 C   0  0  0  0  0  0  0  0  0  0  0  0
    4.5028   -0.0508    0.0000 H   0  0  0  0  0  0  0  0  0  0  0  0
    3.7306   -2.2155    0.0000 H   0  0  0  0  0  0  0  0  0  0  0  0
    6.5011   -1.1874    0.0000 C   0  0  0  0  0  0  0  0  0  0  0  0
    7.9800   -1.4385    0.0000 H   0  0  0  0  0  0  0  0  0  0  0  0
    6.4888    0.7926    0.0000 N   0  0  0  0  0  0  0  0  0  0  0  0
    5.1842    1.5345    0.0000 C   0  0  0  0  0  0  0  0  0  0  0  0
    3.8899    0.7762    0.0000 H   0  0  0  0  0  0  0  0  0  0  0  0
    5.1748    3.0344    0.0000 C   0  0  0  0  0  0  0  0  0  0  0  0
    6.4701    3.7925    0.0000 C   0  0  0  0  0  0  0  0  0  0  0  0
    6.4608    5.2925    0.0000 O   0  0  0  0  0  0  0  0  0  0  0  0
    7.7748    3.0506    0.0000 C   0  0  0  0  0  0  0  0  0  0  0  0
    7.7841    1.5507    0.0000 C   0  0  0  0  0  0  0  0  0  0  0  0
    9.0888    0.8088    0.0000 C   0  0  0  0  0  0  0  0  0  0  0  0
    9.0981   -0.6912    0.0000 H   0  0  0  0  0  0  0  0  0  0  0  0
   10.3841    1.5669    0.0000 C   0  0  0  0  0  0  0  0  0  0  0  0
   10.3747    3.0668    0.0000 C   0  0  0  0  0  0  0  0  0  0  0  0
    9.0701    3.8087    0.0000 C   0  0  0  0  0  0  0  0  0  0  0  0
    9.0607    5.3087    0.0000 H   0  0  0  0  0  0  0  0  0  0  0  0
   11.6689    3.8251    0.0000 F   0  0  0  0  0  0  0  0  0  0  0  0
   11.6876    0.8248    0.0000 N   0  0  0  0  0  0  0  0  0  0  0  0
   11.6963   -0.6752    0.0000 C   0  0  0  0  0  0  0  0  0  0  0  0
   11.1926   -2.0881    0.0000 H   0  0  0  0  0  0  0  0  0  0  0  0
   10.2175   -0.4239    0.0000 H   0  0  0  0  0  0  0  0  0  0  0  0
   13.0057   -1.4190    0.0000 C   0  0  0  0  0  0  0  0  0  0  0  0
   13.9895   -2.5513    0.0000 H   0  0  0  0  0  0  0  0  0  0  0  0
   12.0555   -2.5797    0.0000 H   0  0  0  0  0  0  0  0  0  0  0  0
   14.2662   -0.6532    0.0000 N   0  0  0  0  0  0  0  0  0  0  0  0
   14.2877    0.8372    0.0000 C   0  0  0  0  0  0  0  0  0  0  0  0
   14.8009    2.2466    0.0000 H   0  0  0  0  0  0  0  0  0  0  0  0
   15.7630    0.5660    0.0000 H   0  0  0  0  0  0  0  0  0  0  0  0
   12.9783    1.5809    0.0000 C   0  0  0  0  0  0  0  0  0  0  0  0
   12.9683    3.0809    0.0000 H   0  0  0  0  0  0  0  0  0  0  0  0
    3.8713    3.7766    0.0000 C   0  0  0  0  0  0  0  0  0  0  0  0
    3.8622    5.2765    0.0000 O   0  0  0  0  0  0  0  0  0  0  0  0
    2.5768    3.0187    0.0000 O   0  0  0  0  0  0  0  0  0  0  0  0
    1.2732    3.7608    0.0000 H   0  0  0  0  0  0  0  0  0  0  0  0
  1  2  1  0  0  0  0 
  1  3  1  0  0  0  0 
  1  4  1  0  0  0  0 
  4  5  1  0  0  0  0 
  4  6  1  0  0  0  0 
  4  7  1  0  0  0  0 
  1  7  1  0  0  0  0 
  7  8  1  0  0  0  0 
  7  9  1  0  0  0  0 
  9 10  1  0  0  0  0 
 10 11  1  0  0  0  0 
 10 12  2  0  0  0  0 
 12 13  1  0  0  0  0 
 13 14  2  0  0  0  0 
 13 15  1  0  0  0  0 
 15 16  2  0  0  0  0 
  9 16  1  0  0  0  0 
 16 17  1  0  0  0  0 
 17 18  1  0  0  0  0 
 17 19  2  0  0  0  0 
 19 20  1  0  0  0  0 
 20 21  2  0  0  0  0 
 15 21  1  0  0  0  0 
 21 22  1  0  0  0  0 
 20 23  1  0  0  0  0 
 19 24  1  0  0  0  0 
 24 25  1  0  0  0  0 
 25 26  1  0  0  0  0 
 25 27  1  0  0  0  0 
 25 28  1  0  0  0  0 
 28 29  1  0  0  0  0 
 28 30  1  0  0  0  0 
 28 31  1  0  0  0  0 
 31 32  1  0  0  0  0 
 32 33  1  0  0  0  0 
 32 34  1  0  0  0  0 
 32 35  1  0  0  0  0 
 31 35  1  0  0  0  0 
 24 35  1  0  0  0  0 
 35 36  1  0  0  0  0 
 12 37  1  0  0  0  0 
 37 38  2  0  0  0  0 
 37 39  1  0  0  0  0 
 39 40  1  0  0  0  0 
M  END
> <Rank>
14

> <Priority_score>
0.132

> <Reaction_type>
cyclization to 5-membered NCN ring

> <Parent_ID>
80

> <Parent_InChI>
InChI=1S/C17H18FN3O3/c18-13-7-11-14(8-15(13)20-5-3-19-4-6-20)21(10-1-2-10)9-12(16(11)22)17(23)24/h7-10,19H,1-6H2,(H,23,24)

> <Parent_SMILES>
O=C(O)c1cn(C2CC2)c2cc(N3CCNCC3)c(F)cc2c1=O

$$$$
Molecule 80_metabolite 15
  CDK     0516241031

 40 43  0  0  0  0  0  0  0  0999 V2000
    0.7873   -4.8896    0.0000 C   0  0  0  0  0  0  0  0  0  0  0  0
   -0.1764   -6.0391    0.0000 H   0  0  0  0  0  0  0  0  0  0  0  0
    2.0865   -5.6392    0.0000 H   0  0  0  0  0  0  0  0  0  0  0  0
   -0.1781   -3.7405    0.0000 C   0  0  0  0  0  0  0  0  0  0  0  0
   -0.6912   -2.3310    0.0000 H   0  0  0  0  0  0  0  0  0  0  0  0
   -1.4769   -4.4909    0.0000 H   0  0  0  0  0  0  0  0  0  0  0  0
    1.3000   -3.4800    0.0000 C   0  0  0  0  0  0  0  0  0  0  0  0
    2.7772   -3.7403    0.0000 H   0  0  0  0  0  0  0  0  0  0  0  0
    1.3000   -1.5000    0.0000 N   0  0  0  0  0  0  0  0  0  0  0  0
    0.0000   -0.7500    0.0000 C   0  0  0  0  0  0  0  0  0  0  0  0
   -1.2989   -1.5002    0.0000 H   0  0  0  0  0  0  0  0  0  0  0  0
    0.0000    0.7500    0.0000 C   0  0  0  0  0  0  0  0  0  0  0  0
    1.3000    1.5000    0.0000 C   0  0  0  0  0  0  0  0  0  0  0  0
    1.3000    3.0000    0.0000 O   0  0  0  0  0  0  0  0  0  0  0  0
    2.6000    0.7500    0.0000 C   0  0  0  0  0  0  0  0  0  0  0  0
    2.6000   -0.7500    0.0000 C   0  0  0  0  0  0  0  0  0  0  0  0
    3.9000   -1.5000    0.0000 C   0  0  0  0  0  0  0  0  0  0  0  0
    3.9000   -3.0000    0.0000 H   0  0  0  0  0  0  0  0  0  0  0  0
    5.2000   -0.7500    0.0000 C   0  0  0  0  0  0  0  0  0  0  0  0
    5.2000    0.7500    0.0000 C   0  0  0  0  0  0  0  0  0  0  0  0
    3.9000    1.5000    0.0000 C   0  0  0  0  0  0  0  0  0  0  0  0
    3.9000    3.0000    0.0000 H   0  0  0  0  0  0  0  0  0  0  0  0
    6.4989    1.5002    0.0000 F   0  0  0  0  0  0  0  0  0  0  0  0
    6.4989   -1.5002    0.0000 N   0  0  0  0  0  0  0  0  0  0  0  0
    6.4982   -3.0010    0.0000 C   0  0  0  0  0  0  0  0  0  0  0  0
    5.9848   -4.4104    0.0000 H   0  0  0  0  0  0  0  0  0  0  0  0
    5.0211   -2.7400    0.0000 H   0  0  0  0  0  0  0  0  0  0  0  0
    7.7971   -3.7512    0.0000 C   0  0  0  0  0  0  0  0  0  0  0  0
    7.7971   -5.2512    0.0000 H   0  0  0  0  0  0  0  0  0  0  0  0
    9.0968   -3.0006    0.0000 N   0  0  0  0  0  0  0  0  0  0  0  0
    9.0975   -1.4998    0.0000 C   0  0  0  0  0  0  0  0  0  0  0  0
    9.6109   -0.0904    0.0000 H   0  0  0  0  0  0  0  0  0  0  0  0
   10.5746   -1.7608    0.0000 H   0  0  0  0  0  0  0  0  0  0  0  0
    7.7986   -0.7496    0.0000 C   0  0  0  0  0  0  0  0  0  0  0  0
    6.8343    0.3994    0.0000 H   0  0  0  0  0  0  0  0  0  0  0  0
    8.7628    0.3994    0.0000 H   0  0  0  0  0  0  0  0  0  0  0  0
   -1.2989    1.5002    0.0000 C   0  0  0  0  0  0  0  0  0  0  0  0
   -1.2987    3.0002    0.0000 O   0  0  0  0  0  0  0  0  0  0  0  0
   -2.5981    0.7504    0.0000 O   0  0  0  0  0  0  0  0  0  0  0  0
   -3.8970    1.5006    0.0000 H   0  0  0  0  0  0  0  0  0  0  0  0
  1  2  1  0  0  0  0 
  1  3  1  0  0  0  0 
  1  4  1  0  0  0  0 
  4  5  1  0  0  0  0 
  4  6  1  0  0  0  0 
  4  7  1  0  0  0  0 
  1  7  1  0  0  0  0 
  7  8  1  0  0  0  0 
  7  9  1  0  0  0  0 
  9 10  1  0  0  0  0 
 10 11  1  0  0  0  0 
 10 12  2  0  0  0  0 
 12 13  1  0  0  0  0 
 13 14  2  0  0  0  0 
 13 15  1  0  0  0  0 
 15 16  2  0  0  0  0 
  9 16  1  0  0  0  0 
 16 17  1  0  0  0  0 
 17 18  1  0  0  0  0 
 17 19  2  0  0  0  0 
 19 20  1  0  0  0  0 
 20 21  2  0  0  0  0 
 15 21  1  0  0  0  0 
 21 22  1  0  0  0  0 
 20 23  1  0  0  0  0 
 19 24  1  0  0  0  0 
 24 25  1  0  0  0  0 
 25 26  1  0  0  0  0 
 25 27  1  0  0  0  0 
 25 28  1  0  0  0  0 
 28 29  1  0  0  0  0 
 28 30  2  0  0  0  0 
 30 31  1  0  0  0  0 
 31 32  1  0  0  0  0 
 31 33  1  0  0  0  0 
 31 34  1  0  0  0  0 
 24 34  1  0  0  0  0 
 34 35  1  0  0  0  0 
 34 36  1  0  0  0  0 
 12 37  1  0  0  0  0 
 37 38  2  0  0  0  0 
 37 39  1  0  0  0  0 
 39 40  1  0  0  0  0 
M  END
> <Rank>
14

> <Priority_score>
0.132

> <Reaction_type>
dehydration of N-C bond

> <Parent_ID>
80

> <Parent_InChI>
InChI=1S/C17H18FN3O3/c18-13-7-11-14(8-15(13)20-5-3-19-4-6-20)21(10-1-2-10)9-12(16(11)22)17(23)24/h7-10,19H,1-6H2,(H,23,24)

> <Parent_SMILES>
O=C(O)c1cn(C2CC2)c2cc(N3CCNCC3)c(F)cc2c1=O

$$$$
Molecule 80_metabolite 16
  CDK     0516241031

 41 44  0  0  0  0  0  0  0  0999 V2000
    0.7873   -4.8896    0.0000 C   0  0  0  0  0  0  0  0  0  0  0  0
   -0.1764   -6.0391    0.0000 H   0  0  0  0  0  0  0  0  0  0  0  0
    2.0865   -5.6392    0.0000 H   0  0  0  0  0  0  0  0  0  0  0  0
   -0.1781   -3.7405    0.0000 C   0  0  0  0  0  0  0  0  0  0  0  0
   -0.6912   -2.3310    0.0000 H   0  0  0  0  0  0  0  0  0  0  0  0
   -1.4769   -4.4909    0.0000 H   0  0  0  0  0  0  0  0  0  0  0  0
    1.3000   -3.4800    0.0000 C   0  0  0  0  0  0  0  0  0  0  0  0
    2.7772   -3.7403    0.0000 H   0  0  0  0  0  0  0  0  0  0  0  0
    1.3000   -1.5000    0.0000 N   0  0  0  0  0  0  0  0  0  0  0  0
    0.0000   -0.7500    0.0000 C   0  0  0  0  0  0  0  0  0  0  0  0
   -1.2989   -1.5002    0.0000 H   0  0  0  0  0  0  0  0  0  0  0  0
    0.0000    0.7500    0.0000 C   0  0  0  0  0  0  0  0  0  0  0  0
    1.3000    1.5000    0.0000 C   0  0  0  0  0  0  0  0  0  0  0  0
    1.3000    3.0000    0.0000 O   0  0  0  0  0  0  0  0  0  0  0  0
    2.6000    0.7500    0.0000 C   0  0  0  0  0  0  0  0  0  0  0  0
    2.6000   -0.7500    0.0000 C   0  0  0  0  0  0  0  0  0  0  0  0
    3.9000   -1.5000    0.0000 C   0  0  0  0  0  0  0  0  0  0  0  0
    3.9000   -3.0000    0.0000 H   0  0  0  0  0  0  0  0  0  0  0  0
    5.2000   -0.7500    0.0000 C   0  0  0  0  0  0  0  0  0  0  0  0
    5.2000    0.7500    0.0000 C   0  0  0  0  0  0  0  0  0  0  0  0
    3.9000    1.5000    0.0000 C   0  0  0  0  0  0  0  0  0  0  0  0
    3.9000    3.0000    0.0000 H   0  0  0  0  0  0  0  0  0  0  0  0
    6.4989    1.5002    0.0000 F   0  0  0  0  0  0  0  0  0  0  0  0
    6.4989   -1.5002    0.0000 N   0  0  0  0  0  0  0  0  0  0  0  0
    6.4982   -3.0010    0.0000 C   0  0  0  0  0  0  0  0  0  0  0  0
    5.9848   -4.4104    0.0000 H   0  0  0  0  0  0  0  0  0  0  0  0
    5.0211   -2.7400    0.0000 H   0  0  0  0  0  0  0  0  0  0  0  0
    7.7971   -3.7512    0.0000 C   0  0  0  0  0  0  0  0  0  0  0  0
    7.7971   -5.2512    0.0000 H   0  0  0  0  0  0  0  0  0  0  0  0
    9.0968   -3.0006    0.0000 N   0  0  0  0  0  0  0  0  0  0  0  0
   10.3957   -3.7508    0.0000 H   0  0  0  0  0  0  0  0  0  0  0  0
    9.0975   -1.4998    0.0000 C   0  0  0  0  0  0  0  0  0  0  0  0
    9.6109   -0.0904    0.0000 H   0  0  0  0  0  0  0  0  0  0  0  0
   10.5746   -1.7608    0.0000 H   0  0  0  0  0  0  0  0  0  0  0  0
    7.7986   -0.7496    0.0000 C   0  0  0  0  0  0  0  0  0  0  0  0
    6.8343    0.3994    0.0000 H   0  0  0  0  0  0  0  0  0  0  0  0
    8.7628    0.3994    0.0000 H   0  0  0  0  0  0  0  0  0  0  0  0
   -1.2989    1.5002    0.0000 C   0  0  0  0  0  0  0  0  0  0  0  0
   -1.2987    3.0002    0.0000 O   0  0  0  0  0  0  0  0  0  0  0  0
   -2.5981    0.7504    0.0000 O   0  0  0  0  0  0  0  0  0  0  0  0
   -3.8970    1.5006    0.0000 H   0  0  0  0  0  0  0  0  0  0  0  0
  1  2  1  0  0  0  0 
  1  3  1  0  0  0  0 
  1  4  1  0  0  0  0 
  4  5  1  0  0  0  0 
  4  6  1  0  0  0  0 
  4  7  1  0  0  0  0 
  1  7  1  0  0  0  0 
  7  8  1  0  0  0  0 
  7  9  1  0  0  0  0 
  9 10  1  0  0  0  0 
 10 11  1  0  0  0  0 
 10 12  2  0  0  0  0 
 12 13  1  0  0  0  0 
 13 14  2  0  0  0  0 
 13 15  1  0  0  0  0 
 15 16  2  0  0  0  0 
  9 16  1  0  0  0  0 
 16 17  1  0  0  0  0 
 17 18  1  0  0  0  0 
 17 19  2  0  0  0  0 
 19 20  1  0  0  0  0 
 20 21  2  0  0  0  0 
 15 21  1  0  0  0  0 
 21 22  1  0  0  0  0 
 20 23  1  0  0  0  0 
 19 24  1  0  0  0  0 
 24 25  1  0  0  0  0 
 25 26  1  0  0  0  0 
 25 27  1  0  0  0  0 
 25 28  1  0  0  0  0 
 28 29  1  0  0  0  0 
 28 30  2  0  0  0  0 
 30 31  1  0  0  0  0 
 30 32  1  0  0  0  0 
 32 33  1  0  0  0  0 
 32 34  1  0  0  0  0 
 32 35  1  0  0  0  0 
 24 35  1  0  0  0  0 
 35 36  1  0  0  0  0 
 35 37  1  0  0  0  0 
 12 38  1  0  0  0  0 
 38 39  2  0  0  0  0 
 38 40  1  0  0  0  0 
 40 41  1  0  0  0  0 
M  CHG  1  30   1
M  END
> <Rank>
14

> <Priority_score>
0.132

> <Reaction_type>
dehydration of N-C bond

> <Parent_ID>
80

> <Parent_InChI>
InChI=1S/C17H18FN3O3/c18-13-7-11-14(8-15(13)20-5-3-19-4-6-20)21(10-1-2-10)9-12(16(11)22)17(23)24/h7-10,19H,1-6H2,(H,23,24)

> <Parent_SMILES>
O=C(O)c1cn(C2CC2)c2cc(N3CCNCC3)c(F)cc2c1=O

$$$$
Molecule 80_metabolite 17
  CDK     0516241031

 43 46  0  0  0  0  0  0  0  0999 V2000
    0.7873   -4.8896    0.0000 C   0  0  0  0  0  0  0  0  0  0  0  0
   -0.1764   -6.0391    0.0000 H   0  0  0  0  0  0  0  0  0  0  0  0
    2.0865   -5.6392    0.0000 H   0  0  0  0  0  0  0  0  0  0  0  0
   -0.1781   -3.7405    0.0000 C   0  0  0  0  0  0  0  0  0  0  0  0
   -0.6912   -2.3310    0.0000 H   0  0  0  0  0  0  0  0  0  0  0  0
   -1.4769   -4.4909    0.0000 H   0  0  0  0  0  0  0  0  0  0  0  0
    1.3000   -3.4800    0.0000 C   0  0  0  0  0  0  0  0  0  0  0  0
    2.7772   -3.7403    0.0000 H   0  0  0  0  0  0  0  0  0  0  0  0
    1.3000   -1.5000    0.0000 N   0  0  0  0  0  0  0  0  0  0  0  0
    2.6000   -0.7500    0.0000 C   0  0  0  0  0  0  0  0  0  0  0  0
    2.6000    0.7500    0.0000 C   0  0  0  0  0  0  0  0  0  0  0  0
    3.9000    1.5000    0.0000 C   0  0  0  0  0  0  0  0  0  0  0  0
    3.9000    3.0000    0.0000 H   0  0  0  0  0  0  0  0  0  0  0  0
    5.2000    0.7500    0.0000 C   0  0  0  0  0  0  0  0  0  0  0  0
    5.2000   -0.7500    0.0000 C   0  0  0  0  0  0  0  0  0  0  0  0
    3.9000   -1.5000    0.0000 C   0  0  0  0  0  0  0  0  0  0  0  0
    3.9000   -3.0000    0.0000 H   0  0  0  0  0  0  0  0  0  0  0  0
    6.4989   -1.5002    0.0000 N   0  0  0  0  0  0  0  0  0  0  0  0
    6.4982   -3.0010    0.0000 C   0  0  0  0  0  0  0  0  0  0  0  0
    5.9848   -4.4104    0.0000 H   0  0  0  0  0  0  0  0  0  0  0  0
    5.0211   -2.7400    0.0000 H   0  0  0  0  0  0  0  0  0  0  0  0
    7.7971   -3.7512    0.0000 C   0  0  0  0  0  0  0  0  0  0  0  0
    8.7614   -4.9003    0.0000 H   0  0  0  0  0  0  0  0  0  0  0  0
    6.8329   -4.9003    0.0000 H   0  0  0  0  0  0  0  0  0  0  0  0
    9.0968   -3.0006    0.0000 N   0  0  0  0  0  0  0  0  0  0  0  0
   10.3957   -3.7508    0.0000 H   0  0  0  0  0  0  0  0  0  0  0  0
    9.0975   -1.4998    0.0000 C   0  0  0  0  0  0  0  0  0  0  0  0
    9.6109   -0.0904    0.0000 H   0  0  0  0  0  0  0  0  0  0  0  0
   10.5746   -1.7608    0.0000 H   0  0  0  0  0  0  0  0  0  0  0  0
    7.7986   -0.7496    0.0000 C   0  0  0  0  0  0  0  0  0  0  0  0
    6.8343    0.3994    0.0000 H   0  0  0  0  0  0  0  0  0  0  0  0
    8.7628    0.3994    0.0000 H   0  0  0  0  0  0  0  0  0  0  0  0
    6.4989    1.5002    0.0000 F   0  0  0  0  0  0  0  0  0  0  0  0
    1.3000    1.5000    0.0000 C   0  0  0  0  0  0  0  0  0  0  0  0
    1.3000    3.0000    0.0000 O   0  0  0  0  0  0  0  0  0  0  0  0
    0.0000    0.7500    0.0000 C   0  0  0  0  0  0  0  0  0  0  0  0
    0.0000   -0.7500    0.0000 C   0  0  0  0  0  0  0  0  0  0  0  0
   -1.2989   -1.5002    0.0000 O   0  0  0  0  0  0  0  0  0  0  0  0
   -2.5981   -0.7504    0.0000 H   0  0  0  0  0  0  0  0  0  0  0  0
   -1.2989    1.5002    0.0000 C   0  0  0  0  0  0  0  0  0  0  0  0
   -1.2987    3.0002    0.0000 O   0  0  0  0  0  0  0  0  0  0  0  0
   -2.5981    0.7504    0.0000 O   0  0  0  0  0  0  0  0  0  0  0  0
   -3.8970    1.5006    0.0000 H   0  0  0  0  0  0  0  0  0  0  0  0
  1  2  1  0  0  0  0 
  1  3  1  0  0  0  0 
  1  4  1  0  0  0  0 
  4  5  1  0  0  0  0 
  4  6  1  0  0  0  0 
  4  7  1  0  0  0  0 
  1  7  1  0  0  0  0 
  7  8  1  0  0  0  0 
  7  9  1  0  0  0  0 
  9 10  1  0  0  0  0 
 10 11  2  0  0  0  0 
 11 12  1  0  0  0  0 
 12 13  1  0  0  0  0 
 12 14  2  0  0  0  0 
 14 15  1  0  0  0  0 
 15 16  2  0  0  0  0 
 10 16  1  0  0  0  0 
 16 17  1  0  0  0  0 
 15 18  1  0  0  0  0 
 18 19  1  0  0  0  0 
 19 20  1  0  0  0  0 
 19 21  1  0  0  0  0 
 19 22  1  0  0  0  0 
 22 23  1  0  0  0  0 
 22 24  1  0  0  0  0 
 22 25  1  0  0  0  0 
 25 26  1  0  0  0  0 
 25 27  1  0  0  0  0 
 27 28  1  0  0  0  0 
 27 29  1  0  0  0  0 
 27 30  1  0  0  0  0 
 18 30  1  0  0  0  0 
 30 31  1  0  0  0  0 
 30 32  1  0  0  0  0 
 14 33  1  0  0  0  0 
 11 34  1  0  0  0  0 
 34 35  2  0  0  0  0 
 34 36  1  0  0  0  0 
 36 37  2  0  0  0  0 
  9 37  1  0  0  0  0 
 37 38  1  0  0  0  0 
 38 39  1  0  0  0  0 
 36 40  1  0  0  0  0 
 40 41  2  0  0  0  0 
 40 42  1  0  0  0  0 
 42 43  1  0  0  0  0 
M  END
> <Rank>
17

> <Priority_score>
0.116

> <Reaction_type>
aromatic_hydroxylation_(para_to_carbon)

> <Parent_ID>
80

> <Parent_InChI>
InChI=1S/C17H18FN3O3/c18-13-7-11-14(8-15(13)20-5-3-19-4-6-20)21(10-1-2-10)9-12(16(11)22)17(23)24/h7-10,19H,1-6H2,(H,23,24)

> <Parent_SMILES>
O=C(O)c1cn(C2CC2)c2cc(N3CCNCC3)c(F)cc2c1=O

$$$$
Molecule 80_metabolite 18
  CDK     0516241031

 43 46  0  0  0  0  0  0  0  0999 V2000
   -1.2714   -3.7673    0.0000 C   0  0  0  0  0  0  0  0  0  0  0  0
   -2.7484   -4.0286    0.0000 H   0  0  0  0  0  0  0  0  0  0  0  0
   -0.7577   -5.1766    0.0000 H   0  0  0  0  0  0  0  0  0  0  0  0
   -1.2723   -2.2665    0.0000 C   0  0  0  0  0  0  0  0  0  0  0  0
   -0.7596   -0.8568    0.0000 H   0  0  0  0  0  0  0  0  0  0  0  0
   -2.7496   -2.0066    0.0000 H   0  0  0  0  0  0  0  0  0  0  0  0
    0.0274   -3.0169    0.0000 C   0  0  0  0  0  0  0  0  0  0  0  0
    0.9919   -4.1658    0.0000 H   0  0  0  0  0  0  0  0  0  0  0  0
    1.3000   -1.5000    0.0000 N   0  0  0  0  0  0  0  0  0  0  0  0
    1.8126   -0.0894    0.0000 C   0  0  0  0  0  0  0  0  0  0  0  0
    0.8480    1.0593    0.0000 H   0  0  0  0  0  0  0  0  0  0  0  0
    3.2897    0.1714    0.0000 C   0  0  0  0  0  0  0  0  0  0  0  0
    4.2543   -0.9784    0.0000 C   0  0  0  0  0  0  0  0  0  0  0  0
    5.7315   -0.7176    0.0000 O   0  0  0  0  0  0  0  0  0  0  0  0
    3.7418   -2.3890    0.0000 C   0  0  0  0  0  0  0  0  0  0  0  0
    2.2646   -2.6498    0.0000 C   0  0  0  0  0  0  0  0  0  0  0  0
    1.7520   -4.0604    0.0000 C   0  0  0  0  0  0  0  0  0  0  0  0
    0.2749   -4.3212    0.0000 H   0  0  0  0  0  0  0  0  0  0  0  0
    2.7166   -5.2102    0.0000 C   0  0  0  0  0  0  0  0  0  0  0  0
    4.1938   -4.9494    0.0000 C   0  0  0  0  0  0  0  0  0  0  0  0
    4.7063   -3.5388    0.0000 C   0  0  0  0  0  0  0  0  0  0  0  0
    6.1835   -3.2780    0.0000 H   0  0  0  0  0  0  0  0  0  0  0  0
    5.1584   -6.0981    0.0000 F   0  0  0  0  0  0  0  0  0  0  0  0
    2.2037   -6.6198    0.0000 N   0  0  0  0  0  0  0  0  0  0  0  0
    0.7256   -6.8800    0.0000 C   0  0  0  0  0  0  0  0  0  0  0  0
   -0.7516   -6.6194    0.0000 H   0  0  0  0  0  0  0  0  0  0  0  0
    0.7258   -5.3800    0.0000 H   0  0  0  0  0  0  0  0  0  0  0  0
    0.2126   -8.2896    0.0000 C   0  0  0  0  0  0  0  0  0  0  0  0
   -0.7513   -9.4389    0.0000 H   0  0  0  0  0  0  0  0  0  0  0  0
   -1.0865   -7.5398    0.0000 H   0  0  0  0  0  0  0  0  0  0  0  0
    1.1778   -9.4389    0.0000 N   0  0  0  0  0  0  0  0  0  0  0  0
    0.6648  -10.8485    0.0000 H   0  0  0  0  0  0  0  0  0  0  0  0
    2.6559   -9.1787    0.0000 C   0  0  0  0  0  0  0  0  0  0  0  0
    4.1331   -9.4392    0.0000 H   0  0  0  0  0  0  0  0  0  0  0  0
    2.6556  -10.6787    0.0000 H   0  0  0  0  0  0  0  0  0  0  0  0
    3.1688   -7.7691    0.0000 C   0  0  0  0  0  0  0  0  0  0  0  0
    4.1327   -6.6198    0.0000 H   0  0  0  0  0  0  0  0  0  0  0  0
    4.4680   -8.5189    0.0000 H   0  0  0  0  0  0  0  0  0  0  0  0
    3.8027    1.5809    0.0000 C   0  0  0  0  0  0  0  0  0  0  0  0
    5.2799    1.8415    0.0000 O   0  0  0  0  0  0  0  0  0  0  0  0
    2.8384    2.7300    0.0000 O   0  0  0  0  0  0  0  0  0  0  0  0
    3.3514    4.1395    0.0000 H   0  0  0  0  0  0  0  0  0  0  0  0
    0.0007   -0.7504    0.0000 O   0  0  0  0  0  0  0  0  0  0  0  0
  1  2  1  0  0  0  0 
  1  3  1  0  0  0  0 
  1  4  1  0  0  0  0 
  4  5  1  0  0  0  0 
  4  6  1  0  0  0  0 
  4  7  1  0  0  0  0 
  1  7  1  0  0  0  0 
  7  8  1  0  0  0  0 
  7  9  1  0  0  0  0 
  9 10  1  0  0  0  0 
 10 11  1  0  0  0  0 
 10 12  2  0  0  0  0 
 12 13  1  0  0  0  0 
 13 14  2  0  0  0  0 
 13 15  1  0  0  0  0 
 15 16  2  0  0  0  0 
  9 16  1  0  0  0  0 
 16 17  1  0  0  0  0 
 17 18  1  0  0  0  0 
 17 19  2  0  0  0  0 
 19 20  1  0  0  0  0 
 20 21  2  0  0  0  0 
 15 21  1  0  0  0  0 
 21 22  1  0  0  0  0 
 20 23  1  0  0  0  0 
 19 24  1  0  0  0  0 
 24 25  1  0  0  0  0 
 25 26  1  0  0  0  0 
 25 27  1  0  0  0  0 
 25 28  1  0  0  0  0 
 28 29  1  0  0  0  0 
 28 30  1  0  0  0  0 
 28 31  1  0  0  0  0 
 31 32  1  0  0  0  0 
 31 33  1  0  0  0  0 
 33 34  1  0  0  0  0 
 33 35  1  0  0  0  0 
 33 36  1  0  0  0  0 
 24 36  1  0  0  0  0 
 36 37  1  0  0  0  0 
 36 38  1  0  0  0  0 
 12 39  1  0  0  0  0 
 39 40  2  0  0  0  0 
 39 41  1  0  0  0  0 
 41 42  1  0  0  0  0 
  9 43  1  0  0  0  0 
M  CHG  1   9   1
M  CHG  1  43  -1
M  END
> <Rank>
17

> <Priority_score>
0.116

> <Reaction_type>
N-oxidation

> <Parent_ID>
80

> <Parent_InChI>
InChI=1S/C17H18FN3O3/c18-13-7-11-14(8-15(13)20-5-3-19-4-6-20)21(10-1-2-10)9-12(16(11)22)17(23)24/h7-10,19H,1-6H2,(H,23,24)

> <Parent_SMILES>
O=C(O)c1cn(C2CC2)c2cc(N3CCNCC3)c(F)cc2c1=O

$$$$
Molecule 80_metabolite 19
  CDK     0516241031

 44 47  0  0  0  0  0  0  0  0999 V2000
    0.7873   -4.8896    0.0000 C   0  0  0  0  0  0  0  0  0  0  0  0
   -0.1764   -6.0391    0.0000 H   0  0  0  0  0  0  0  0  0  0  0  0
    2.0865   -5.6392    0.0000 H   0  0  0  0  0  0  0  0  0  0  0  0
   -0.1781   -3.7405    0.0000 C   0  0  0  0  0  0  0  0  0  0  0  0
   -0.6912   -2.3310    0.0000 H   0  0  0  0  0  0  0  0  0  0  0  0
   -1.4769   -4.4909    0.0000 H   0  0  0  0  0  0  0  0  0  0  0  0
    1.3000   -3.4800    0.0000 C   0  0  0  0  0  0  0  0  0  0  0  0
    2.7772   -3.7403    0.0000 H   0  0  0  0  0  0  0  0  0  0  0  0
    1.3000   -1.5000    0.0000 N   0  0  0  0  0  0  0  0  0  0  0  0
    2.6000   -0.7500    0.0000 C   0  0  0  0  0  0  0  0  0  0  0  0
    3.1127   -2.1596    0.0000 H   0  0  0  0  0  0  0  0  0  0  0  0
    4.0772   -0.4897    0.0000 H   0  0  0  0  0  0  0  0  0  0  0  0
    2.6000    0.7500    0.0000 C   0  0  0  0  0  0  0  0  0  0  0  0
    4.0772    0.4897    0.0000 H   0  0  0  0  0  0  0  0  0  0  0  0
    1.3000    1.5000    0.0000 C   0  0  0  0  0  0  0  0  0  0  0  0
    1.3000    3.0000    0.0000 O   0  0  0  0  0  0  0  0  0  0  0  0
   -0.0000    0.7500    0.0000 C   0  0  0  0  0  0  0  0  0  0  0  0
   -0.0000   -0.7500    0.0000 C   0  0  0  0  0  0  0  0  0  0  0  0
   -1.3000   -1.5000    0.0000 C   0  0  0  0  0  0  0  0  0  0  0  0
   -1.3000   -3.0000    0.0000 H   0  0  0  0  0  0  0  0  0  0  0  0
   -2.6000   -0.7500    0.0000 C   0  0  0  0  0  0  0  0  0  0  0  0
   -2.6000    0.7500    0.0000 C   0  0  0  0  0  0  0  0  0  0  0  0
   -1.3000    1.5000    0.0000 C   0  0  0  0  0  0  0  0  0  0  0  0
   -1.3000    3.0000    0.0000 H   0  0  0  0  0  0  0  0  0  0  0  0
   -3.8989    1.5002    0.0000 F   0  0  0  0  0  0  0  0  0  0  0  0
   -3.8989   -1.5002    0.0000 N   0  0  0  0  0  0  0  0  0  0  0  0
   -3.8982   -3.0010    0.0000 C   0  0  0  0  0  0  0  0  0  0  0  0
   -3.3848   -4.4104    0.0000 H   0  0  0  0  0  0  0  0  0  0  0  0
   -2.4211   -2.7400    0.0000 H   0  0  0  0  0  0  0  0  0  0  0  0
   -5.1971   -3.7512    0.0000 C   0  0  0  0  0  0  0  0  0  0  0  0
   -6.1614   -4.9003    0.0000 H   0  0  0  0  0  0  0  0  0  0  0  0
   -4.2329   -4.9003    0.0000 H   0  0  0  0  0  0  0  0  0  0  0  0
   -6.4968   -3.0006    0.0000 N   0  0  0  0  0  0  0  0  0  0  0  0
   -7.7957   -3.7508    0.0000 H   0  0  0  0  0  0  0  0  0  0  0  0
   -6.4975   -1.4998    0.0000 C   0  0  0  0  0  0  0  0  0  0  0  0
   -7.0109   -0.0904    0.0000 H   0  0  0  0  0  0  0  0  0  0  0  0
   -7.9746   -1.7608    0.0000 H   0  0  0  0  0  0  0  0  0  0  0  0
   -5.1986   -0.7496    0.0000 C   0  0  0  0  0  0  0  0  0  0  0  0
   -4.2343    0.3994    0.0000 H   0  0  0  0  0  0  0  0  0  0  0  0
   -6.1628    0.3994    0.0000 H   0  0  0  0  0  0  0  0  0  0  0  0
    3.1127    2.1596    0.0000 C   0  0  0  0  0  0  0  0  0  0  0  0
    2.1483    3.3085    0.0000 O   0  0  0  0  0  0  0  0  0  0  0  0
    4.5899    2.4204    0.0000 O   0  0  0  0  0  0  0  0  0  0  0  0
    5.1026    3.8301    0.0000 H   0  0  0  0  0  0  0  0  0  0  0  0
  1  2  1  0  0  0  0 
  1  3  1  0  0  0  0 
  1  4  1  0  0  0  0 
  4  5  1  0  0  0  0 
  4  6  1  0  0  0  0 
  4  7  1  0  0  0  0 
  1  7  1  0  0  0  0 
  7  8  1  0  0  0  0 
  7  9  1  0  0  0  0 
  9 10  1  0  0  0  0 
 10 11  1  0  0  0  0 
 10 12  1  0  0  0  0 
 10 13  1  0  0  0  0 
 13 14  1  0  0  0  0 
 13 15  1  0  0  0  0 
 15 16  2  0  0  0  0 
 15 17  1  0  0  0  0 
 17 18  2  0  0  0  0 
  9 18  1  0  0  0  0 
 18 19  1  0  0  0  0 
 19 20  1  0  0  0  0 
 19 21  2  0  0  0  0 
 21 22  1  0  0  0  0 
 22 23  2  0  0  0  0 
 17 23  1  0  0  0  0 
 23 24  1  0  0  0  0 
 22 25  1  0  0  0  0 
 21 26  1  0  0  0  0 
 26 27  1  0  0  0  0 
 27 28  1  0  0  0  0 
 27 29  1  0  0  0  0 
 27 30  1  0  0  0  0 
 30 31  1  0  0  0  0 
 30 32  1  0  0  0  0 
 30 33  1  0  0  0  0 
 33 34  1  0  0  0  0 
 33 35  1  0  0  0  0 
 35 36  1  0  0  0  0 
 35 37  1  0  0  0  0 
 35 38  1  0  0  0  0 
 26 38  1  0  0  0  0 
 38 39  1  0  0  0  0 
 38 40  1  0  0  0  0 
 13 41  1  0  0  0  0 
 41 42  2  0  0  0  0 
 41 43  1  0  0  0  0 
 43 44  1  0  0  0  0 
M  END
> <Rank>
17

> <Priority_score>
0.116

> <Reaction_type>
double_bond_reduction_(aromatic)

> <Parent_ID>
80

> <Parent_InChI>
InChI=1S/C17H18FN3O3/c18-13-7-11-14(8-15(13)20-5-3-19-4-6-20)21(10-1-2-10)9-12(16(11)22)17(23)24/h7-10,19H,1-6H2,(H,23,24)

> <Parent_SMILES>
O=C(O)c1cn(C2CC2)c2cc(N3CCNCC3)c(F)cc2c1=O

$$$$
Molecule 80_metabolite 20
  CDK     0516241031

 49 52  0  0  0  0  0  0  0  0999 V2000
    0.7873   -4.8896    0.0000 C   0  0  0  0  0  0  0  0  0  0  0  0
   -0.1764   -6.0391    0.0000 H   0  0  0  0  0  0  0  0  0  0  0  0
    2.0865   -5.6392    0.0000 H   0  0  0  0  0  0  0  0  0  0  0  0
   -0.1781   -3.7405    0.0000 C   0  0  0  0  0  0  0  0  0  0  0  0
   -0.6912   -2.3310    0.0000 H   0  0  0  0  0  0  0  0  0  0  0  0
   -1.4769   -4.4909    0.0000 H   0  0  0  0  0  0  0  0  0  0  0  0
    1.3000   -3.4800    0.0000 C   0  0  0  0  0  0  0  0  0  0  0  0
    2.7772   -3.7403    0.0000 H   0  0  0  0  0  0  0  0  0  0  0  0
    1.3000   -1.5000    0.0000 N   0  0  0  0  0  0  0  0  0  0  0  0
    0.0000   -0.7500    0.0000 C   0  0  0  0  0  0  0  0  0  0  0  0
   -1.2989   -1.5002    0.0000 H   0  0  0  0  0  0  0  0  0  0  0  0
    0.0000    0.7500    0.0000 C   0  0  0  0  0  0  0  0  0  0  0  0
    1.3000    1.5000    0.0000 C   0  0  0  0  0  0  0  0  0  0  0  0
    1.3000    3.0000    0.0000 O   0  0  0  0  0  0  0  0  0  0  0  0
    2.6000    0.7500    0.0000 C   0  0  0  0  0  0  0  0  0  0  0  0
    2.6000   -0.7500    0.0000 C   0  0  0  0  0  0  0  0  0  0  0  0
    3.9000   -1.5000    0.0000 C   0  0  0  0  0  0  0  0  0  0  0  0
    3.9000   -3.0000    0.0000 H   0  0  0  0  0  0  0  0  0  0  0  0
    5.2000   -0.7500    0.0000 C   0  0  0  0  0  0  0  0  0  0  0  0
    5.2000    0.7500    0.0000 C   0  0  0  0  0  0  0  0  0  0  0  0
    3.9000    1.5000    0.0000 C   0  0  0  0  0  0  0  0  0  0  0  0
    3.9000    3.0000    0.0000 H   0  0  0  0  0  0  0  0  0  0  0  0
    6.4989    1.5002    0.0000 F   0  0  0  0  0  0  0  0  0  0  0  0
    6.4989   -1.5002    0.0000 N   0  0  0  0  0  0  0  0  0  0  0  0
    6.4982   -3.0010    0.0000 C   0  0  0  0  0  0  0  0  0  0  0  0
    5.9848   -4.4104    0.0000 H   0  0  0  0  0  0  0  0  0  0  0  0
    5.0211   -2.7400    0.0000 H   0  0  0  0  0  0  0  0  0  0  0  0
    7.7971   -3.7512    0.0000 C   0  0  0  0  0  0  0  0  0  0  0  0
    8.7614   -4.9003    0.0000 H   0  0  0  0  0  0  0  0  0  0  0  0
    6.8329   -4.9003    0.0000 H   0  0  0  0  0  0  0  0  0  0  0  0
    9.0968   -3.0006    0.0000 N   0  0  0  0  0  0  0  0  0  0  0  0
   10.3957   -3.7508    0.0000 H   0  0  0  0  0  0  0  0  0  0  0  0
    9.0975   -1.4998    0.0000 C   0  0  0  0  0  0  0  0  0  0  0  0
    9.6109   -0.0904    0.0000 H   0  0  0  0  0  0  0  0  0  0  0  0
   10.5746   -1.7608    0.0000 H   0  0  0  0  0  0  0  0  0  0  0  0
    7.7986   -0.7496    0.0000 C   0  0  0  0  0  0  0  0  0  0  0  0
    6.8343    0.3994    0.0000 H   0  0  0  0  0  0  0  0  0  0  0  0
    8.7628    0.3994    0.0000 H   0  0  0  0  0  0  0  0  0  0  0  0
   -1.2989    1.5002    0.0000 C   0  0  0  0  0  0  0  0  0  0  0  0
   -1.2987    3.0002    0.0000 O   0  0  0  0  0  0  0  0  0  0  0  0
   -2.5981    0.7504    0.0000 N   0  0  0  0  0  0  0  0  0  0  0  0
   -2.5983   -0.7496    0.0000 H   0  0  0  0  0  0  0  0  0  0  0  0
   -3.8970    1.5006    0.0000 C   0  0  0  0  0  0  0  0  0  0  0  0
   -4.8610    2.6498    0.0000 H   0  0  0  0  0  0  0  0  0  0  0  0
   -2.9326    2.6495    0.0000 H   0  0  0  0  0  0  0  0  0  0  0  0
   -5.1962    0.7508    0.0000 C   0  0  0  0  0  0  0  0  0  0  0  0
   -5.1964   -0.7492    0.0000 O   0  0  0  0  0  0  0  0  0  0  0  0
   -6.4951    1.5010    0.0000 O   0  0  0  0  0  0  0  0  0  0  0  0
   -7.7942    0.7512    0.0000 H   0  0  0  0  0  0  0  0  0  0  0  0
  1  2  1  0  0  0  0 
  1  3  1  0  0  0  0 
  1  4  1  0  0  0  0 
  4  5  1  0  0  0  0 
  4  6  1  0  0  0  0 
  4  7  1  0  0  0  0 
  1  7  1  0  0  0  0 
  7  8  1  0  0  0  0 
  7  9  1  0  0  0  0 
  9 10  1  0  0  0  0 
 10 11  1  0  0  0  0 
 10 12  2  0  0  0  0 
 12 13  1  0  0  0  0 
 13 14  2  0  0  0  0 
 13 15  1  0  0  0  0 
 15 16  2  0  0  0  0 
  9 16  1  0  0  0  0 
 16 17  1  0  0  0  0 
 17 18  1  0  0  0  0 
 17 19  2  0  0  0  0 
 19 20  1  0  0  0  0 
 20 21  2  0  0  0  0 
 15 21  1  0  0  0  0 
 21 22  1  0  0  0  0 
 20 23  1  0  0  0  0 
 19 24  1  0  0  0  0 
 24 25  1  0  0  0  0 
 25 26  1  0  0  0  0 
 25 27  1  0  0  0  0 
 25 28  1  0  0  0  0 
 28 29  1  0  0  0  0 
 28 30  1  0  0  0  0 
 28 31  1  0  0  0  0 
 31 32  1  0  0  0  0 
 31 33  1  0  0  0  0 
 33 34  1  0  0  0  0 
 33 35  1  0  0  0  0 
 33 36  1  0  0  0  0 
 24 36  1  0  0  0  0 
 36 37  1  0  0  0  0 
 36 38  1  0  0  0  0 
 12 39  1  0  0  0  0 
 39 40  2  0  0  0  0 
 39 41  1  0  0  0  0 
 41 42  1  0  0  0  0 
 41 43  1  0  0  0  0 
 43 44  1  0  0  0  0 
 43 45  1  0  0  0  0 
 43 46  1  0  0  0  0 
 46 47  2  0  0  0  0 
 46 48  1  0  0  0  0 
 48 49  1  0  0  0  0 
M  END
> <Rank>
20

> <Priority_score>
0.10390030120481929

> <Reaction_type>
glycination_(aromatic_carboxyl)

> <Parent_ID>
80

> <Parent_InChI>
InChI=1S/C17H18FN3O3/c18-13-7-11-14(8-15(13)20-5-3-19-4-6-20)21(10-1-2-10)9-12(16(11)22)17(23)24/h7-10,19H,1-6H2,(H,23,24)

> <Parent_SMILES>
O=C(O)c1cn(C2CC2)c2cc(N3CCNCC3)c(F)cc2c1=O

$$$$
Molecule 80_metabolite 21
  CDK     0516241031

 43 46  0  0  0  0  0  0  0  0999 V2000
   -5.1971   -3.7512    0.0000 C   0  0  0  0  0  0  0  0  0  0  0  0
   -6.1614   -4.9003    0.0000 H   0  0  0  0  0  0  0  0  0  0  0  0
   -4.2329   -4.9003    0.0000 H   0  0  0  0  0  0  0  0  0  0  0  0
   -3.8982   -3.0010    0.0000 C   0  0  0  0  0  0  0  0  0  0  0  0
   -3.3848   -4.4104    0.0000 H   0  0  0  0  0  0  0  0  0  0  0  0
   -2.4211   -2.7400    0.0000 H   0  0  0  0  0  0  0  0  0  0  0  0
   -3.8989   -1.5002    0.0000 N   0  0  0  0  0  0  0  0  0  0  0  0
   -5.1986   -0.7496    0.0000 C   0  0  0  0  0  0  0  0  0  0  0  0
   -4.2343    0.3994    0.0000 H   0  0  0  0  0  0  0  0  0  0  0  0
   -6.1628    0.3994    0.0000 H   0  0  0  0  0  0  0  0  0  0  0  0
   -6.4975   -1.4998    0.0000 C   0  0  0  0  0  0  0  0  0  0  0  0
   -7.0109   -0.0904    0.0000 H   0  0  0  0  0  0  0  0  0  0  0  0
   -7.9746   -1.7608    0.0000 H   0  0  0  0  0  0  0  0  0  0  0  0
   -6.4968   -3.0006    0.0000 N   0  0  0  0  0  0  0  0  0  0  0  0
   -7.7957   -3.7508    0.0000 H   0  0  0  0  0  0  0  0  0  0  0  0
   -2.6000   -0.7500    0.0000 C   0  0  0  0  0  0  0  0  0  0  0  0
   -1.3000   -1.5000    0.0000 C   0  0  0  0  0  0  0  0  0  0  0  0
   -1.3000   -3.0000    0.0000 H   0  0  0  0  0  0  0  0  0  0  0  0
   -0.0000   -0.7500    0.0000 C   0  0  0  0  0  0  0  0  0  0  0  0
   -0.0000    0.7500    0.0000 C   0  0  0  0  0  0  0  0  0  0  0  0
   -1.3000    1.5000    0.0000 C   0  0  0  0  0  0  0  0  0  0  0  0
   -1.3000    3.0000    0.0000 H   0  0  0  0  0  0  0  0  0  0  0  0
   -2.6000    0.7500    0.0000 C   0  0  0  0  0  0  0  0  0  0  0  0
   -3.8989    1.5002    0.0000 F   0  0  0  0  0  0  0  0  0  0  0  0
    1.3000    1.5000    0.0000 C   0  0  0  0  0  0  0  0  0  0  0  0
    1.3000    3.0000    0.0000 O   0  0  0  0  0  0  0  0  0  0  0  0
    2.6000    0.7500    0.0000 C   0  0  0  0  0  0  0  0  0  0  0  0
    2.6000   -0.7500    0.0000 C   0  0  0  0  0  0  0  0  0  0  0  0
    3.8989   -1.5002    0.0000 H   0  0  0  0  0  0  0  0  0  0  0  0
    1.3000   -1.5000    0.0000 N   0  0  0  0  0  0  0  0  0  0  0  0
    1.3000   -3.4800    0.0000 C   0  0  0  0  0  0  0  0  0  0  0  0
   -0.1772   -3.7403    0.0000 H   0  0  0  0  0  0  0  0  0  0  0  0
    2.7781   -3.7405    0.0000 C   0  0  0  0  0  0  0  0  0  0  0  0
    4.0769   -4.4909    0.0000 H   0  0  0  0  0  0  0  0  0  0  0  0
    3.2912   -2.3310    0.0000 H   0  0  0  0  0  0  0  0  0  0  0  0
    1.8127   -4.8896    0.0000 C   0  0  0  0  0  0  0  0  0  0  0  0
    0.5135   -5.6392    0.0000 H   0  0  0  0  0  0  0  0  0  0  0  0
    2.7764   -6.0391    0.0000 O   0  0  0  0  0  0  0  0  0  0  0  0
    4.2537   -5.7793    0.0000 H   0  0  0  0  0  0  0  0  0  0  0  0
    3.8989    1.5002    0.0000 C   0  0  0  0  0  0  0  0  0  0  0  0
    5.1981    0.7504    0.0000 O   0  0  0  0  0  0  0  0  0  0  0  0
    3.8987    3.0002    0.0000 O   0  0  0  0  0  0  0  0  0  0  0  0
    5.1976    3.7504    0.0000 H   0  0  0  0  0  0  0  0  0  0  0  0
  1  2  1  0  0  0  0 
  1  3  1  0  0  0  0 
  1  4  1  0  0  0  0 
  4  5  1  0  0  0  0 
  4  6  1  0  0  0  0 
  4  7  1  0  0  0  0 
  7  8  1  0  0  0  0 
  8  9  1  0  0  0  0 
  8 10  1  0  0  0  0 
  8 11  1  0  0  0  0 
 11 12  1  0  0  0  0 
 11 13  1  0  0  0  0 
 11 14  1  0  0  0  0 
  1 14  1  0  0  0  0 
 14 15  1  0  0  0  0 
  7 16  1  0  0  0  0 
 16 17  2  0  0  0  0 
 17 18  1  0  0  0  0 
 17 19  1  0  0  0  0 
 19 20  2  0  0  0  0 
 20 21  1  0  0  0  0 
 21 22  1  0  0  0  0 
 21 23  2  0  0  0  0 
 16 23  1  0  0  0  0 
 23 24  1  0  0  0  0 
 20 25  1  0  0  0  0 
 25 26  2  0  0  0  0 
 25 27  1  0  0  0  0 
 27 28  2  0  0  0  0 
 28 29  1  0  0  0  0 
 28 30  1  0  0  0  0 
 19 30  1  0  0  0  0 
 30 31  1  0  0  0  0 
 31 32  1  0  0  0  0 
 31 33  1  0  0  0  0 
 33 34  1  0  0  0  0 
 33 35  1  0  0  0  0 
 33 36  1  0  0  0  0 
 31 36  1  0  0  0  0 
 36 37  1  0  0  0  0 
 36 38  1  0  0  0  0 
 38 39  1  0  0  0  0 
 27 40  1  0  0  0  0 
 40 41  2  0  0  0  0 
 40 42  1  0  0  0  0 
 42 43  1  0  0  0  0 
M  END
> <Rank>
21

> <Priority_score>
0.09584080859128238

> <Reaction_type>
aliphatic_hydroxylation_(sec_carbon_in_a_ringB)

> <Parent_ID>
80

> <Parent_InChI>
InChI=1S/C17H18FN3O3/c18-13-7-11-14(8-15(13)20-5-3-19-4-6-20)21(10-1-2-10)9-12(16(11)22)17(23)24/h7-10,19H,1-6H2,(H,23,24)

> <Parent_SMILES>
O=C(O)c1cn(C2CC2)c2cc(N3CCNCC3)c(F)cc2c1=O

$$$$
Molecule 80_metabolite 22
  CDK     0516241031

  8  8  0  0  0  0  0  0  0  0999 V2000
   -0.4602   -0.7246    0.0000 C   0  0  0  0  0  0  0  0  0  0  0  0
   -1.9374   -0.9854    0.0000 H   0  0  0  0  0  0  0  0  0  0  0  0
    0.0529   -2.1341    0.0000 H   0  0  0  0  0  0  0  0  0  0  0  0
   -0.4607    0.7762    0.0000 C   0  0  0  0  0  0  0  0  0  0  0  0
    0.0525    2.1857    0.0000 H   0  0  0  0  0  0  0  0  0  0  0  0
   -1.9380    1.0365    0.0000 H   0  0  0  0  0  0  0  0  0  0  0  0
    0.8388    0.0254    0.0000 C   0  0  0  0  0  0  0  0  0  0  0  0
    2.3388    0.0251    0.0000 O   0  0  0  0  0  0  0  0  0  0  0  0
  1  2  1  0  0  0  0 
  1  3  1  0  0  0  0 
  1  4  1  0  0  0  0 
  4  5  1  0  0  0  0 
  4  6  1  0  0  0  0 
  4  7  1  0  0  0  0 
  1  7  1  0  0  0  0 
  7  8  2  0  0  0  0 
M  END
> <Rank>
21

> <Priority_score>
0.09584080859128238

> <Reaction_type>
N-dealkylation

> <Parent_ID>
80

> <Parent_InChI>
InChI=1S/C17H18FN3O3/c18-13-7-11-14(8-15(13)20-5-3-19-4-6-20)21(10-1-2-10)9-12(16(11)22)17(23)24/h7-10,19H,1-6H2,(H,23,24)

> <Parent_SMILES>
O=C(O)c1cn(C2CC2)c2cc(N3CCNCC3)c(F)cc2c1=O

$$$$
Molecule 80_metabolite 23
  CDK     0516241031

 35 37  0  0  0  0  0  0  0  0999 V2000
   -5.1971   -3.7512    0.0000 C   0  0  0  0  0  0  0  0  0  0  0  0
   -6.1614   -4.9003    0.0000 H   0  0  0  0  0  0  0  0  0  0  0  0
   -4.2329   -4.9003    0.0000 H   0  0  0  0  0  0  0  0  0  0  0  0
   -3.8982   -3.0010    0.0000 C   0  0  0  0  0  0  0  0  0  0  0  0
   -3.3848   -4.4104    0.0000 H   0  0  0  0  0  0  0  0  0  0  0  0
   -2.4211   -2.7400    0.0000 H   0  0  0  0  0  0  0  0  0  0  0  0
   -3.8989   -1.5002    0.0000 N   0  0  0  0  0  0  0  0  0  0  0  0
   -5.1986   -0.7496    0.0000 C   0  0  0  0  0  0  0  0  0  0  0  0
   -4.2343    0.3994    0.0000 H   0  0  0  0  0  0  0  0  0  0  0  0
   -6.1628    0.3994    0.0000 H   0  0  0  0  0  0  0  0  0  0  0  0
   -6.4975   -1.4998    0.0000 C   0  0  0  0  0  0  0  0  0  0  0  0
   -7.0109   -0.0904    0.0000 H   0  0  0  0  0  0  0  0  0  0  0  0
   -7.9746   -1.7608    0.0000 H   0  0  0  0  0  0  0  0  0  0  0  0
   -6.4968   -3.0006    0.0000 N   0  0  0  0  0  0  0  0  0  0  0  0
   -7.7957   -3.7508    0.0000 H   0  0  0  0  0  0  0  0  0  0  0  0
   -2.6000   -0.7500    0.0000 C   0  0  0  0  0  0  0  0  0  0  0  0
   -1.3000   -1.5000    0.0000 C   0  0  0  0  0  0  0  0  0  0  0  0
   -1.3000   -3.0000    0.0000 H   0  0  0  0  0  0  0  0  0  0  0  0
   -0.0000   -0.7500    0.0000 C   0  0  0  0  0  0  0  0  0  0  0  0
   -0.0000    0.7500    0.0000 C   0  0  0  0  0  0  0  0  0  0  0  0
   -1.3000    1.5000    0.0000 C   0  0  0  0  0  0  0  0  0  0  0  0
   -1.3000    3.0000    0.0000 H   0  0  0  0  0  0  0  0  0  0  0  0
   -2.6000    0.7500    0.0000 C   0  0  0  0  0  0  0  0  0  0  0  0
   -3.8989    1.5002    0.0000 F   0  0  0  0  0  0  0  0  0  0  0  0
    1.3000    1.5000    0.0000 C   0  0  0  0  0  0  0  0  0  0  0  0
    1.3000    3.0000    0.0000 O   0  0  0  0  0  0  0  0  0  0  0  0
    2.6000    0.7500    0.0000 C   0  0  0  0  0  0  0  0  0  0  0  0
    2.6000   -0.7500    0.0000 C   0  0  0  0  0  0  0  0  0  0  0  0
    3.8989   -1.5002    0.0000 H   0  0  0  0  0  0  0  0  0  0  0  0
    1.3000   -1.5000    0.0000 N   0  0  0  0  0  0  0  0  0  0  0  0
    1.3000   -3.0000    0.0000 H   0  0  0  0  0  0  0  0  0  0  0  0
    3.8989    1.5002    0.0000 C   0  0  0  0  0  0  0  0  0  0  0  0
    3.8987    3.0002    0.0000 O   0  0  0  0  0  0  0  0  0  0  0  0
    5.1981    0.7504    0.0000 O   0  0  0  0  0  0  0  0  0  0  0  0
    6.4970    1.5006    0.0000 H   0  0  0  0  0  0  0  0  0  0  0  0
  1  2  1  0  0  0  0 
  1  3  1  0  0  0  0 
  1  4  1  0  0  0  0 
  4  5  1  0  0  0  0 
  4  6  1  0  0  0  0 
  4  7  1  0  0  0  0 
  7  8  1  0  0  0  0 
  8  9  1  0  0  0  0 
  8 10  1  0  0  0  0 
  8 11  1  0  0  0  0 
 11 12  1  0  0  0  0 
 11 13  1  0  0  0  0 
 11 14  1  0  0  0  0 
  1 14  1  0  0  0  0 
 14 15  1  0  0  0  0 
  7 16  1  0  0  0  0 
 16 17  2  0  0  0  0 
 17 18  1  0  0  0  0 
 17 19  1  0  0  0  0 
 19 20  2  0  0  0  0 
 20 21  1  0  0  0  0 
 21 22  1  0  0  0  0 
 21 23  2  0  0  0  0 
 16 23  1  0  0  0  0 
 23 24  1  0  0  0  0 
 20 25  1  0  0  0  0 
 25 26  2  0  0  0  0 
 25 27  1  0  0  0  0 
 27 28  2  0  0  0  0 
 28 29  1  0  0  0  0 
 28 30  1  0  0  0  0 
 19 30  1  0  0  0  0 
 30 31  1  0  0  0  0 
 27 32  1  0  0  0  0 
 32 33  2  0  0  0  0 
 32 34  1  0  0  0  0 
 34 35  1  0  0  0  0 
M  END
> <Rank>
21

> <Priority_score>
0.09584080859128238

> <Reaction_type>
N-dealkylation

> <Parent_ID>
80

> <Parent_InChI>
InChI=1S/C17H18FN3O3/c18-13-7-11-14(8-15(13)20-5-3-19-4-6-20)21(10-1-2-10)9-12(16(11)22)17(23)24/h7-10,19H,1-6H2,(H,23,24)

> <Parent_SMILES>
O=C(O)c1cn(C2CC2)c2cc(N3CCNCC3)c(F)cc2c1=O

$$$$
Molecule 80_metabolite 24
  CDK     0516241031

 43 46  0  0  0  0  0  0  0  0999 V2000
    2.7772   -3.7403    0.0000 C   0  0  0  0  0  0  0  0  0  0  0  0
    4.0765   -4.4899    0.0000 H   0  0  0  0  0  0  0  0  0  0  0  0
    3.2900   -2.3307    0.0000 H   0  0  0  0  0  0  0  0  0  0  0  0
    1.8130   -4.8904    0.0000 C   0  0  0  0  0  0  0  0  0  0  0  0
    0.5140   -5.6404    0.0000 H   0  0  0  0  0  0  0  0  0  0  0  0
    2.7774   -6.0393    0.0000 H   0  0  0  0  0  0  0  0  0  0  0  0
    1.3000   -3.4800    0.0000 C   0  0  0  0  0  0  0  0  0  0  0  0
    1.3000   -1.5000    0.0000 N   0  0  0  0  0  0  0  0  0  0  0  0
    2.6000   -0.7500    0.0000 C   0  0  0  0  0  0  0  0  0  0  0  0
    3.8989   -1.5002    0.0000 H   0  0  0  0  0  0  0  0  0  0  0  0
    2.6000    0.7500    0.0000 C   0  0  0  0  0  0  0  0  0  0  0  0
    1.3000    1.5000    0.0000 C   0  0  0  0  0  0  0  0  0  0  0  0
    1.3000    3.0000    0.0000 O   0  0  0  0  0  0  0  0  0  0  0  0
   -0.0000    0.7500    0.0000 C   0  0  0  0  0  0  0  0  0  0  0  0
   -0.0000   -0.7500    0.0000 C   0  0  0  0  0  0  0  0  0  0  0  0
   -1.3000   -1.5000    0.0000 C   0  0  0  0  0  0  0  0  0  0  0  0
   -1.3000   -3.0000    0.0000 H   0  0  0  0  0  0  0  0  0  0  0  0
   -2.6000   -0.7500    0.0000 C   0  0  0  0  0  0  0  0  0  0  0  0
   -2.6000    0.7500    0.0000 C   0  0  0  0  0  0  0  0  0  0  0  0
   -1.3000    1.5000    0.0000 C   0  0  0  0  0  0  0  0  0  0  0  0
   -1.3000    3.0000    0.0000 H   0  0  0  0  0  0  0  0  0  0  0  0
   -3.8989    1.5002    0.0000 F   0  0  0  0  0  0  0  0  0  0  0  0
   -3.8989   -1.5002    0.0000 N   0  0  0  0  0  0  0  0  0  0  0  0
   -3.8982   -3.0010    0.0000 C   0  0  0  0  0  0  0  0  0  0  0  0
   -3.3848   -4.4104    0.0000 H   0  0  0  0  0  0  0  0  0  0  0  0
   -2.4211   -2.7400    0.0000 H   0  0  0  0  0  0  0  0  0  0  0  0
   -5.1971   -3.7512    0.0000 C   0  0  0  0  0  0  0  0  0  0  0  0
   -6.1614   -4.9003    0.0000 H   0  0  0  0  0  0  0  0  0  0  0  0
   -4.2329   -4.9003    0.0000 H   0  0  0  0  0  0  0  0  0  0  0  0
   -6.4968   -3.0006    0.0000 N   0  0  0  0  0  0  0  0  0  0  0  0
   -7.7957   -3.7508    0.0000 H   0  0  0  0  0  0  0  0  0  0  0  0
   -6.4975   -1.4998    0.0000 C   0  0  0  0  0  0  0  0  0  0  0  0
   -7.0109   -0.0904    0.0000 H   0  0  0  0  0  0  0  0  0  0  0  0
   -7.9746   -1.7608    0.0000 H   0  0  0  0  0  0  0  0  0  0  0  0
   -5.1986   -0.7496    0.0000 C   0  0  0  0  0  0  0  0  0  0  0  0
   -4.2343    0.3994    0.0000 H   0  0  0  0  0  0  0  0  0  0  0  0
   -6.1628    0.3994    0.0000 H   0  0  0  0  0  0  0  0  0  0  0  0
    3.8989    1.5002    0.0000 C   0  0  0  0  0  0  0  0  0  0  0  0
    3.8987    3.0002    0.0000 O   0  0  0  0  0  0  0  0  0  0  0  0
    5.1981    0.7504    0.0000 O   0  0  0  0  0  0  0  0  0  0  0  0
    6.4970    1.5006    0.0000 H   0  0  0  0  0  0  0  0  0  0  0  0
   -0.1772   -3.7403    0.0000 O   0  0  0  0  0  0  0  0  0  0  0  0
   -0.6904   -5.1498    0.0000 H   0  0  0  0  0  0  0  0  0  0  0  0
  1  2  1  0  0  0  0 
  1  3  1  0  0  0  0 
  1  4  1  0  0  0  0 
  4  5  1  0  0  0  0 
  4  6  1  0  0  0  0 
  4  7  1  0  0  0  0 
  1  7  1  0  0  0  0 
  7  8  1  0  0  0  0 
  8  9  1  0  0  0  0 
  9 10  1  0  0  0  0 
  9 11  2  0  0  0  0 
 11 12  1  0  0  0  0 
 12 13  2  0  0  0  0 
 12 14  1  0  0  0  0 
 14 15  2  0  0  0  0 
  8 15  1  0  0  0  0 
 15 16  1  0  0  0  0 
 16 17  1  0  0  0  0 
 16 18  2  0  0  0  0 
 18 19  1  0  0  0  0 
 19 20  2  0  0  0  0 
 14 20  1  0  0  0  0 
 20 21  1  0  0  0  0 
 19 22  1  0  0  0  0 
 18 23  1  0  0  0  0 
 23 24  1  0  0  0  0 
 24 25  1  0  0  0  0 
 24 26  1  0  0  0  0 
 24 27  1  0  0  0  0 
 27 28  1  0  0  0  0 
 27 29  1  0  0  0  0 
 27 30  1  0  0  0  0 
 30 31  1  0  0  0  0 
 30 32  1  0  0  0  0 
 32 33  1  0  0  0  0 
 32 34  1  0  0  0  0 
 32 35  1  0  0  0  0 
 23 35  1  0  0  0  0 
 35 36  1  0  0  0  0 
 35 37  1  0  0  0  0 
 11 38  1  0  0  0  0 
 38 39  2  0  0  0  0 
 38 40  1  0  0  0  0 
 40 41  1  0  0  0  0 
  7 42  1  0  0  0  0 
 42 43  1  0  0  0  0 
M  END
> <Rank>
21

> <Priority_score>
0.09584080859128238

> <Reaction_type>
aliphatic hydroxylation

> <Parent_ID>
80

> <Parent_InChI>
InChI=1S/C17H18FN3O3/c18-13-7-11-14(8-15(13)20-5-3-19-4-6-20)21(10-1-2-10)9-12(16(11)22)17(23)24/h7-10,19H,1-6H2,(H,23,24)

> <Parent_SMILES>
O=C(O)c1cn(C2CC2)c2cc(N3CCNCC3)c(F)cc2c1=O

$$$$
Molecule 80_metabolite 25
  CDK     0516241031

 43 46  0  0  0  0  0  0  0  0999 V2000
    0.7873   -4.8896    0.0000 C   0  0  0  0  0  0  0  0  0  0  0  0
   -0.1764   -6.0391    0.0000 H   0  0  0  0  0  0  0  0  0  0  0  0
    2.0865   -5.6392    0.0000 H   0  0  0  0  0  0  0  0  0  0  0  0
   -0.1781   -3.7405    0.0000 C   0  0  0  0  0  0  0  0  0  0  0  0
   -0.6912   -2.3310    0.0000 H   0  0  0  0  0  0  0  0  0  0  0  0
   -1.4769   -4.4909    0.0000 H   0  0  0  0  0  0  0  0  0  0  0  0
    1.3000   -3.4800    0.0000 C   0  0  0  0  0  0  0  0  0  0  0  0
    2.7772   -3.7403    0.0000 H   0  0  0  0  0  0  0  0  0  0  0  0
    1.3000   -1.5000    0.0000 N   0  0  0  0  0  0  0  0  0  0  0  0
    0.0000   -0.7500    0.0000 C   0  0  0  0  0  0  0  0  0  0  0  0
   -1.2989   -1.5002    0.0000 H   0  0  0  0  0  0  0  0  0  0  0  0
    0.0000    0.7500    0.0000 C   0  0  0  0  0  0  0  0  0  0  0  0
    1.3000    1.5000    0.0000 C   0  0  0  0  0  0  0  0  0  0  0  0
    1.3000    3.0000    0.0000 O   0  0  0  0  0  0  0  0  0  0  0  0
    2.6000    0.7500    0.0000 C   0  0  0  0  0  0  0  0  0  0  0  0
    2.6000   -0.7500    0.0000 C   0  0  0  0  0  0  0  0  0  0  0  0
    3.9000   -1.5000    0.0000 C   0  0  0  0  0  0  0  0  0  0  0  0
    5.2000   -0.7500    0.0000 C   0  0  0  0  0  0  0  0  0  0  0  0
    5.2000    0.7500    0.0000 C   0  0  0  0  0  0  0  0  0  0  0  0
    3.9000    1.5000    0.0000 C   0  0  0  0  0  0  0  0  0  0  0  0
    3.9000    3.0000    0.0000 H   0  0  0  0  0  0  0  0  0  0  0  0
    6.4989    1.5002    0.0000 F   0  0  0  0  0  0  0  0  0  0  0  0
    6.4989   -1.5002    0.0000 N   0  0  0  0  0  0  0  0  0  0  0  0
    6.4982   -3.0010    0.0000 C   0  0  0  0  0  0  0  0  0  0  0  0
    5.9848   -4.4104    0.0000 H   0  0  0  0  0  0  0  0  0  0  0  0
    5.0211   -2.7400    0.0000 H   0  0  0  0  0  0  0  0  0  0  0  0
    7.7971   -3.7512    0.0000 C   0  0  0  0  0  0  0  0  0  0  0  0
    8.7614   -4.9003    0.0000 H   0  0  0  0  0  0  0  0  0  0  0  0
    6.8329   -4.9003    0.0000 H   0  0  0  0  0  0  0  0  0  0  0  0
    9.0968   -3.0006    0.0000 N   0  0  0  0  0  0  0  0  0  0  0  0
   10.3957   -3.7508    0.0000 H   0  0  0  0  0  0  0  0  0  0  0  0
    9.0975   -1.4998    0.0000 C   0  0  0  0  0  0  0  0  0  0  0  0
    9.6109   -0.0904    0.0000 H   0  0  0  0  0  0  0  0  0  0  0  0
   10.5746   -1.7608    0.0000 H   0  0  0  0  0  0  0  0  0  0  0  0
    7.7986   -0.7496    0.0000 C   0  0  0  0  0  0  0  0  0  0  0  0
    6.8343    0.3994    0.0000 H   0  0  0  0  0  0  0  0  0  0  0  0
    8.7628    0.3994    0.0000 H   0  0  0  0  0  0  0  0  0  0  0  0
    3.9000   -3.0000    0.0000 O   0  0  0  0  0  0  0  0  0  0  0  0
    5.1990   -3.7500    0.0000 H   0  0  0  0  0  0  0  0  0  0  0  0
   -1.2989    1.5002    0.0000 C   0  0  0  0  0  0  0  0  0  0  0  0
   -1.2987    3.0002    0.0000 O   0  0  0  0  0  0  0  0  0  0  0  0
   -2.5981    0.7504    0.0000 O   0  0  0  0  0  0  0  0  0  0  0  0
   -3.8970    1.5006    0.0000 H   0  0  0  0  0  0  0  0  0  0  0  0
  1  2  1  0  0  0  0 
  1  3  1  0  0  0  0 
  1  4  1  0  0  0  0 
  4  5  1  0  0  0  0 
  4  6  1  0  0  0  0 
  4  7  1  0  0  0  0 
  1  7  1  0  0  0  0 
  7  8  1  0  0  0  0 
  7  9  1  0  0  0  0 
  9 10  1  0  0  0  0 
 10 11  1  0  0  0  0 
 10 12  2  0  0  0  0 
 12 13  1  0  0  0  0 
 13 14  2  0  0  0  0 
 13 15  1  0  0  0  0 
 15 16  2  0  0  0  0 
  9 16  1  0  0  0  0 
 16 17  1  0  0  0  0 
 17 18  2  0  0  0  0 
 18 19  1  0  0  0  0 
 19 20  2  0  0  0  0 
 15 20  1  0  0  0  0 
 20 21  1  0  0  0  0 
 19 22  1  0  0  0  0 
 18 23  1  0  0  0  0 
 23 24  1  0  0  0  0 
 24 25  1  0  0  0  0 
 24 26  1  0  0  0  0 
 24 27  1  0  0  0  0 
 27 28  1  0  0  0  0 
 27 29  1  0  0  0  0 
 27 30  1  0  0  0  0 
 30 31  1  0  0  0  0 
 30 32  1  0  0  0  0 
 32 33  1  0  0  0  0 
 32 34  1  0  0  0  0 
 32 35  1  0  0  0  0 
 23 35  1  0  0  0  0 
 35 36  1  0  0  0  0 
 35 37  1  0  0  0  0 
 17 38  1  0  0  0  0 
 38 39  1  0  0  0  0 
 12 40  1  0  0  0  0 
 40 41  2  0  0  0  0 
 40 42  1  0  0  0  0 
 42 43  1  0  0  0  0 
M  END
> <Rank>
25

> <Priority_score>
0.088

> <Reaction_type>
aromatic_hydroxylation_(ortho_to_2_substituents)

> <Parent_ID>
80

> <Parent_InChI>
InChI=1S/C17H18FN3O3/c18-13-7-11-14(8-15(13)20-5-3-19-4-6-20)21(10-1-2-10)9-12(16(11)22)17(23)24/h7-10,19H,1-6H2,(H,23,24)

> <Parent_SMILES>
O=C(O)c1cn(C2CC2)c2cc(N3CCNCC3)c(F)cc2c1=O

$$$$
Molecule 80_metabolite 26
  CDK     0516241031

 40 43  0  0  0  0  0  0  0  0999 V2000
    0.7873   -4.8896    0.0000 C   0  0  0  0  0  0  0  0  0  0  0  0
   -0.1764   -6.0391    0.0000 H   0  0  0  0  0  0  0  0  0  0  0  0
    2.0865   -5.6392    0.0000 H   0  0  0  0  0  0  0  0  0  0  0  0
   -0.1781   -3.7405    0.0000 C   0  0  0  0  0  0  0  0  0  0  0  0
   -0.6912   -2.3310    0.0000 H   0  0  0  0  0  0  0  0  0  0  0  0
   -1.4769   -4.4909    0.0000 H   0  0  0  0  0  0  0  0  0  0  0  0
    1.3000   -3.4800    0.0000 C   0  0  0  0  0  0  0  0  0  0  0  0
    2.7772   -3.7403    0.0000 H   0  0  0  0  0  0  0  0  0  0  0  0
    1.3000   -1.5000    0.0000 N   0  0  0  0  0  0  0  0  0  0  0  0
    0.0000   -0.7500    0.0000 C   0  0  0  0  0  0  0  0  0  0  0  0
   -1.2989   -1.5002    0.0000 H   0  0  0  0  0  0  0  0  0  0  0  0
    0.0000    0.7500    0.0000 C   0  0  0  0  0  0  0  0  0  0  0  0
    1.3000    1.5000    0.0000 C   0  0  0  0  0  0  0  0  0  0  0  0
    1.3000    3.0000    0.0000 O   0  0  0  0  0  0  0  0  0  0  0  0
    2.6000    0.7500    0.0000 C   0  0  0  0  0  0  0  0  0  0  0  0
    2.6000   -0.7500    0.0000 C   0  0  0  0  0  0  0  0  0  0  0  0
    3.9000   -1.5000    0.0000 C   0  0  0  0  0  0  0  0  0  0  0  0
    3.9000   -3.0000    0.0000 H   0  0  0  0  0  0  0  0  0  0  0  0
    5.2000   -0.7500    0.0000 C   0  0  0  0  0  0  0  0  0  0  0  0
    5.2000    0.7500    0.0000 C   0  0  0  0  0  0  0  0  0  0  0  0
    3.9000    1.5000    0.0000 C   0  0  0  0  0  0  0  0  0  0  0  0
    3.9000    3.0000    0.0000 H   0  0  0  0  0  0  0  0  0  0  0  0
    6.4989    1.5002    0.0000 F   0  0  0  0  0  0  0  0  0  0  0  0
    6.4989   -1.5002    0.0000 N   0  0  0  0  0  0  0  0  0  0  0  0
    6.4982   -3.0010    0.0000 C   0  0  0  0  0  0  0  0  0  0  0  0
    5.1989   -3.7506    0.0000 H   0  0  0  0  0  0  0  0  0  0  0  0
    7.7971   -3.7512    0.0000 C   0  0  0  0  0  0  0  0  0  0  0  0
    7.7971   -5.2512    0.0000 H   0  0  0  0  0  0  0  0  0  0  0  0
    9.0968   -3.0006    0.0000 N   0  0  0  0  0  0  0  0  0  0  0  0
   10.3957   -3.7508    0.0000 H   0  0  0  0  0  0  0  0  0  0  0  0
    9.0975   -1.4998    0.0000 C   0  0  0  0  0  0  0  0  0  0  0  0
    9.6109   -0.0904    0.0000 H   0  0  0  0  0  0  0  0  0  0  0  0
   10.5746   -1.7608    0.0000 H   0  0  0  0  0  0  0  0  0  0  0  0
    7.7986   -0.7496    0.0000 C   0  0  0  0  0  0  0  0  0  0  0  0
    6.8343    0.3994    0.0000 H   0  0  0  0  0  0  0  0  0  0  0  0
    8.7628    0.3994    0.0000 H   0  0  0  0  0  0  0  0  0  0  0  0
   -1.2989    1.5002    0.0000 C   0  0  0  0  0  0  0  0  0  0  0  0
   -1.2987    3.0002    0.0000 O   0  0  0  0  0  0  0  0  0  0  0  0
   -2.5981    0.7504    0.0000 O   0  0  0  0  0  0  0  0  0  0  0  0
   -3.8970    1.5006    0.0000 H   0  0  0  0  0  0  0  0  0  0  0  0
  1  2  1  0  0  0  0 
  1  3  1  0  0  0  0 
  1  4  1  0  0  0  0 
  4  5  1  0  0  0  0 
  4  6  1  0  0  0  0 
  4  7  1  0  0  0  0 
  1  7  1  0  0  0  0 
  7  8  1  0  0  0  0 
  7  9  1  0  0  0  0 
  9 10  1  0  0  0  0 
 10 11  1  0  0  0  0 
 10 12  2  0  0  0  0 
 12 13  1  0  0  0  0 
 13 14  2  0  0  0  0 
 13 15  1  0  0  0  0 
 15 16  2  0  0  0  0 
  9 16  1  0  0  0  0 
 16 17  1  0  0  0  0 
 17 18  1  0  0  0  0 
 17 19  2  0  0  0  0 
 19 20  1  0  0  0  0 
 20 21  2  0  0  0  0 
 15 21  1  0  0  0  0 
 21 22  1  0  0  0  0 
 20 23  1  0  0  0  0 
 19 24  1  0  0  0  0 
 24 25  1  0  0  0  0 
 25 26  1  0  0  0  0 
 25 27  2  0  0  0  0 
 27 28  1  0  0  0  0 
 27 29  1  0  0  0  0 
 29 30  1  0  0  0  0 
 29 31  1  0  0  0  0 
 31 32  1  0  0  0  0 
 31 33  1  0  0  0  0 
 31 34  1  0  0  0  0 
 24 34  1  0  0  0  0 
 34 35  1  0  0  0  0 
 34 36  1  0  0  0  0 
 12 37  1  0  0  0  0 
 37 38  2  0  0  0  0 
 37 39  1  0  0  0  0 
 39 40  1  0  0  0  0 
M  END
> <Rank>
26

> <Priority_score>
0.0704

> <Reaction_type>
alkyl dehydrogenation

> <Parent_ID>
80

> <Parent_InChI>
InChI=1S/C17H18FN3O3/c18-13-7-11-14(8-15(13)20-5-3-19-4-6-20)21(10-1-2-10)9-12(16(11)22)17(23)24/h7-10,19H,1-6H2,(H,23,24)

> <Parent_SMILES>
O=C(O)c1cn(C2CC2)c2cc(N3CCNCC3)c(F)cc2c1=O

$$$$
Molecule 80_metabolite 27
  CDK     0516241031

 41 44  0  0  0  0  0  0  0  0999 V2000
    0.7873   -4.8896    0.0000 C   0  0  0  0  0  0  0  0  0  0  0  0
   -0.1764   -6.0391    0.0000 H   0  0  0  0  0  0  0  0  0  0  0  0
    2.0865   -5.6392    0.0000 H   0  0  0  0  0  0  0  0  0  0  0  0
   -0.1781   -3.7405    0.0000 C   0  0  0  0  0  0  0  0  0  0  0  0
   -0.6912   -2.3310    0.0000 H   0  0  0  0  0  0  0  0  0  0  0  0
   -1.4769   -4.4909    0.0000 H   0  0  0  0  0  0  0  0  0  0  0  0
    1.3000   -3.4800    0.0000 C   0  0  0  0  0  0  0  0  0  0  0  0
    2.7772   -3.7403    0.0000 H   0  0  0  0  0  0  0  0  0  0  0  0
    1.3000   -1.5000    0.0000 N   0  0  0  0  0  0  0  0  0  0  0  0
    0.0000   -0.7500    0.0000 C   0  0  0  0  0  0  0  0  0  0  0  0
   -1.2989   -1.5002    0.0000 H   0  0  0  0  0  0  0  0  0  0  0  0
    0.0000    0.7500    0.0000 C   0  0  0  0  0  0  0  0  0  0  0  0
    1.3000    1.5000    0.0000 C   0  0  0  0  0  0  0  0  0  0  0  0
    1.3000    3.0000    0.0000 O   0  0  0  0  0  0  0  0  0  0  0  0
    2.6000    0.7500    0.0000 C   0  0  0  0  0  0  0  0  0  0  0  0
    3.9000    1.5000    0.0000 C   0  0  0  0  0  0  0  0  0  0  0  0
    3.9000    3.0000    0.0000 H   0  0  0  0  0  0  0  0  0  0  0  0
    5.2000    0.7500    0.0000 C   0  0  0  0  0  0  0  0  0  0  0  0
    5.2000   -0.7500    0.0000 C   0  0  0  0  0  0  0  0  0  0  0  0
    3.9000   -1.5000    0.0000 C   0  0  0  0  0  0  0  0  0  0  0  0
    3.9000   -3.0000    0.0000 H   0  0  0  0  0  0  0  0  0  0  0  0
    2.6000   -0.7500    0.0000 C   0  0  0  0  0  0  0  0  0  0  0  0
    6.4989   -1.5002    0.0000 N   0  0  0  0  0  0  0  0  0  0  0  0
    6.4982   -3.0010    0.0000 C   0  0  0  0  0  0  0  0  0  0  0  0
    5.1989   -3.7506    0.0000 H   0  0  0  0  0  0  0  0  0  0  0  0
    7.7971   -3.7512    0.0000 C   0  0  0  0  0  0  0  0  0  0  0  0
    8.7614   -4.9003    0.0000 H   0  0  0  0  0  0  0  0  0  0  0  0
    6.8329   -4.9003    0.0000 H   0  0  0  0  0  0  0  0  0  0  0  0
    9.0968   -3.0006    0.0000 N   0  0  0  0  0  0  0  0  0  0  0  0
   10.3957   -3.7508    0.0000 H   0  0  0  0  0  0  0  0  0  0  0  0
    9.0975   -1.4998    0.0000 C   0  0  0  0  0  0  0  0  0  0  0  0
    9.6109   -0.0904    0.0000 H   0  0  0  0  0  0  0  0  0  0  0  0
   10.5746   -1.7608    0.0000 H   0  0  0  0  0  0  0  0  0  0  0  0
    7.7986   -0.7496    0.0000 C   0  0  0  0  0  0  0  0  0  0  0  0
    6.8343    0.3994    0.0000 H   0  0  0  0  0  0  0  0  0  0  0  0
    8.7628    0.3994    0.0000 H   0  0  0  0  0  0  0  0  0  0  0  0
    6.4989    1.5002    0.0000 F   0  0  0  0  0  0  0  0  0  0  0  0
   -1.2989    1.5002    0.0000 C   0  0  0  0  0  0  0  0  0  0  0  0
   -1.2987    3.0002    0.0000 O   0  0  0  0  0  0  0  0  0  0  0  0
   -2.5981    0.7504    0.0000 O   0  0  0  0  0  0  0  0  0  0  0  0
   -3.8970    1.5006    0.0000 H   0  0  0  0  0  0  0  0  0  0  0  0
  1  2  1  0  0  0  0 
  1  3  1  0  0  0  0 
  1  4  1  0  0  0  0 
  4  5  1  0  0  0  0 
  4  6  1  0  0  0  0 
  4  7  1  0  0  0  0 
  1  7  1  0  0  0  0 
  7  8  1  0  0  0  0 
  7  9  1  0  0  0  0 
  9 10  1  0  0  0  0 
 10 11  1  0  0  0  0 
 10 12  2  0  0  0  0 
 12 13  1  0  0  0  0 
 13 14  2  0  0  0  0 
 13 15  1  0  0  0  0 
 15 16  2  0  0  0  0 
 16 17  1  0  0  0  0 
 16 18  1  0  0  0  0 
 18 19  2  0  0  0  0 
 19 20  1  0  0  0  0 
 20 21  1  0  0  0  0 
 20 22  2  0  0  0  0 
 15 22  1  0  0  0  0 
  9 22  1  0  0  0  0 
 19 23  1  0  0  0  0 
 23 24  2  0  0  0  0 
 24 25  1  0  0  0  0 
 24 26  1  0  0  0  0 
 26 27  1  0  0  0  0 
 26 28  1  0  0  0  0 
 26 29  1  0  0  0  0 
 29 30  1  0  0  0  0 
 29 31  1  0  0  0  0 
 31 32  1  0  0  0  0 
 31 33  1  0  0  0  0 
 31 34  1  0  0  0  0 
 23 34  1  0  0  0  0 
 34 35  1  0  0  0  0 
 34 36  1  0  0  0  0 
 18 37  1  0  0  0  0 
 12 38  1  0  0  0  0 
 38 39  2  0  0  0  0 
 38 40  1  0  0  0  0 
 40 41  1  0  0  0  0 
M  CHG  1  23   1
M  END
> <Rank>
27

> <Priority_score>
0.0456

> <Reaction_type>
dehydration of N-C bond

> <Parent_ID>
80

> <Parent_InChI>
InChI=1S/C17H18FN3O3/c18-13-7-11-14(8-15(13)20-5-3-19-4-6-20)21(10-1-2-10)9-12(16(11)22)17(23)24/h7-10,19H,1-6H2,(H,23,24)

> <Parent_SMILES>
O=C(O)c1cn(C2CC2)c2cc(N3CCNCC3)c(F)cc2c1=O

$$$$
Molecule 80_metabolite 28
  CDK     0516241031

 43 46  0  0  0  0  0  0  0  0999 V2000
    0.7873   -4.8896    0.0000 C   0  0  0  0  0  0  0  0  0  0  0  0
   -0.1764   -6.0391    0.0000 H   0  0  0  0  0  0  0  0  0  0  0  0
    2.0865   -5.6392    0.0000 H   0  0  0  0  0  0  0  0  0  0  0  0
   -0.1781   -3.7405    0.0000 C   0  0  0  0  0  0  0  0  0  0  0  0
   -0.6912   -2.3310    0.0000 H   0  0  0  0  0  0  0  0  0  0  0  0
   -1.4769   -4.4909    0.0000 H   0  0  0  0  0  0  0  0  0  0  0  0
    1.3000   -3.4800    0.0000 C   0  0  0  0  0  0  0  0  0  0  0  0
    2.7772   -3.7403    0.0000 H   0  0  0  0  0  0  0  0  0  0  0  0
    1.3000   -1.5000    0.0000 N   0  0  0  0  0  0  0  0  0  0  0  0
    0.0000   -0.7500    0.0000 C   0  0  0  0  0  0  0  0  0  0  0  0
   -1.2989   -1.5002    0.0000 H   0  0  0  0  0  0  0  0  0  0  0  0
    0.0000    0.7500    0.0000 C   0  0  0  0  0  0  0  0  0  0  0  0
    1.3000    1.5000    0.0000 C   0  0  0  0  0  0  0  0  0  0  0  0
    1.3000    3.0000    0.0000 O   0  0  0  0  0  0  0  0  0  0  0  0
    2.6000    0.7500    0.0000 C   0  0  0  0  0  0  0  0  0  0  0  0
    2.6000   -0.7500    0.0000 C   0  0  0  0  0  0  0  0  0  0  0  0
    3.9000   -1.5000    0.0000 C   0  0  0  0  0  0  0  0  0  0  0  0
    3.9000   -3.0000    0.0000 H   0  0  0  0  0  0  0  0  0  0  0  0
    5.2000   -0.7500    0.0000 C   0  0  0  0  0  0  0  0  0  0  0  0
    5.2000    0.7500    0.0000 C   0  0  0  0  0  0  0  0  0  0  0  0
    3.9000    1.5000    0.0000 C   0  0  0  0  0  0  0  0  0  0  0  0
    3.9000    3.0000    0.0000 O   0  0  0  0  0  0  0  0  0  0  0  0
    5.1990    3.7500    0.0000 H   0  0  0  0  0  0  0  0  0  0  0  0
    6.4989    1.5002    0.0000 F   0  0  0  0  0  0  0  0  0  0  0  0
    6.4989   -1.5002    0.0000 N   0  0  0  0  0  0  0  0  0  0  0  0
    6.4982   -3.0010    0.0000 C   0  0  0  0  0  0  0  0  0  0  0  0
    5.9848   -4.4104    0.0000 H   0  0  0  0  0  0  0  0  0  0  0  0
    5.0211   -2.7400    0.0000 H   0  0  0  0  0  0  0  0  0  0  0  0
    7.7971   -3.7512    0.0000 C   0  0  0  0  0  0  0  0  0  0  0  0
    8.7614   -4.9003    0.0000 H   0  0  0  0  0  0  0  0  0  0  0  0
    6.8329   -4.9003    0.0000 H   0  0  0  0  0  0  0  0  0  0  0  0
    9.0968   -3.0006    0.0000 N   0  0  0  0  0  0  0  0  0  0  0  0
   10.3957   -3.7508    0.0000 H   0  0  0  0  0  0  0  0  0  0  0  0
    9.0975   -1.4998    0.0000 C   0  0  0  0  0  0  0  0  0  0  0  0
    9.6109   -0.0904    0.0000 H   0  0  0  0  0  0  0  0  0  0  0  0
   10.5746   -1.7608    0.0000 H   0  0  0  0  0  0  0  0  0  0  0  0
    7.7986   -0.7496    0.0000 C   0  0  0  0  0  0  0  0  0  0  0  0
    6.8343    0.3994    0.0000 H   0  0  0  0  0  0  0  0  0  0  0  0
    8.7628    0.3994    0.0000 H   0  0  0  0  0  0  0  0  0  0  0  0
   -1.2989    1.5002    0.0000 C   0  0  0  0  0  0  0  0  0  0  0  0
   -1.2987    3.0002    0.0000 O   0  0  0  0  0  0  0  0  0  0  0  0
   -2.5981    0.7504    0.0000 O   0  0  0  0  0  0  0  0  0  0  0  0
   -3.8970    1.5006    0.0000 H   0  0  0  0  0  0  0  0  0  0  0  0
  1  2  1  0  0  0  0 
  1  3  1  0  0  0  0 
  1  4  1  0  0  0  0 
  4  5  1  0  0  0  0 
  4  6  1  0  0  0  0 
  4  7  1  0  0  0  0 
  1  7  1  0  0  0  0 
  7  8  1  0  0  0  0 
  7  9  1  0  0  0  0 
  9 10  1  0  0  0  0 
 10 11  1  0  0  0  0 
 10 12  2  0  0  0  0 
 12 13  1  0  0  0  0 
 13 14  2  0  0  0  0 
 13 15  1  0  0  0  0 
 15 16  2  0  0  0  0 
  9 16  1  0  0  0  0 
 16 17  1  0  0  0  0 
 17 18  1  0  0  0  0 
 17 19  2  0  0  0  0 
 19 20  1  0  0  0  0 
 20 21  2  0  0  0  0 
 15 21  1  0  0  0  0 
 21 22  1  0  0  0  0 
 22 23  1  0  0  0  0 
 20 24  1  0  0  0  0 
 19 25  1  0  0  0  0 
 25 26  1  0  0  0  0 
 26 27  1  0  0  0  0 
 26 28  1  0  0  0  0 
 26 29  1  0  0  0  0 
 29 30  1  0  0  0  0 
 29 31  1  0  0  0  0 
 29 32  1  0  0  0  0 
 32 33  1  0  0  0  0 
 32 34  1  0  0  0  0 
 34 35  1  0  0  0  0 
 34 36  1  0  0  0  0 
 34 37  1  0  0  0  0 
 25 37  1  0  0  0  0 
 37 38  1  0  0  0  0 
 37 39  1  0  0  0  0 
 12 40  1  0  0  0  0 
 40 41  2  0  0  0  0 
 40 42  1  0  0  0  0 
 42 43  1  0  0  0  0 
M  END
> <Rank>
28

> <Priority_score>
0.02

> <Reaction_type>
aromatic hydroxylation

> <Parent_ID>
80

> <Parent_InChI>
InChI=1S/C17H18FN3O3/c18-13-7-11-14(8-15(13)20-5-3-19-4-6-20)21(10-1-2-10)9-12(16(11)22)17(23)24/h7-10,19H,1-6H2,(H,23,24)

> <Parent_SMILES>
O=C(O)c1cn(C2CC2)c2cc(N3CCNCC3)c(F)cc2c1=O

$$$$
Molecule 80_metabolite 29
  CDK     0516241031

 40 43  0  0  0  0  0  0  0  0999 V2000
    0.5500   -4.3000    0.0000 C   0  0  0  0  0  0  0  0  0  0  0  0
   -0.7489   -5.0502    0.0000 H   0  0  0  0  0  0  0  0  0  0  0  0
    1.3000   -3.0000    0.0000 C   0  0  0  0  0  0  0  0  0  0  0  0
    2.0500   -4.3000    0.0000 C   0  0  0  0  0  0  0  0  0  0  0  0
    2.3103   -5.7772    0.0000 H   0  0  0  0  0  0  0  0  0  0  0  0
    3.4596   -3.7873    0.0000 H   0  0  0  0  0  0  0  0  0  0  0  0
    1.3000   -1.5000    0.0000 N   0  0  0  0  0  0  0  0  0  0  0  0
    2.6000   -0.7500    0.0000 C   0  0  0  0  0  0  0  0  0  0  0  0
    3.8989   -1.5002    0.0000 H   0  0  0  0  0  0  0  0  0  0  0  0
    2.6000    0.7500    0.0000 C   0  0  0  0  0  0  0  0  0  0  0  0
    1.3000    1.5000    0.0000 C   0  0  0  0  0  0  0  0  0  0  0  0
    1.3000    3.0000    0.0000 O   0  0  0  0  0  0  0  0  0  0  0  0
   -0.0000    0.7500    0.0000 C   0  0  0  0  0  0  0  0  0  0  0  0
   -0.0000   -0.7500    0.0000 C   0  0  0  0  0  0  0  0  0  0  0  0
   -1.3000   -1.5000    0.0000 C   0  0  0  0  0  0  0  0  0  0  0  0
   -1.3000   -3.0000    0.0000 H   0  0  0  0  0  0  0  0  0  0  0  0
   -2.6000   -0.7500    0.0000 C   0  0  0  0  0  0  0  0  0  0  0  0
   -2.6000    0.7500    0.0000 C   0  0  0  0  0  0  0  0  0  0  0  0
   -1.3000    1.5000    0.0000 C   0  0  0  0  0  0  0  0  0  0  0  0
   -1.3000    3.0000    0.0000 H   0  0  0  0  0  0  0  0  0  0  0  0
   -3.8989    1.5002    0.0000 F   0  0  0  0  0  0  0  0  0  0  0  0
   -3.8989   -1.5002    0.0000 N   0  0  0  0  0  0  0  0  0  0  0  0
   -3.8982   -3.0010    0.0000 C   0  0  0  0  0  0  0  0  0  0  0  0
   -3.3848   -4.4104    0.0000 H   0  0  0  0  0  0  0  0  0  0  0  0
   -2.4211   -2.7400    0.0000 H   0  0  0  0  0  0  0  0  0  0  0  0
   -5.1971   -3.7512    0.0000 C   0  0  0  0  0  0  0  0  0  0  0  0
   -6.1614   -4.9003    0.0000 H   0  0  0  0  0  0  0  0  0  0  0  0
   -4.2329   -4.9003    0.0000 H   0  0  0  0  0  0  0  0  0  0  0  0
   -6.4968   -3.0006    0.0000 N   0  0  0  0  0  0  0  0  0  0  0  0
   -7.7957   -3.7508    0.0000 H   0  0  0  0  0  0  0  0  0  0  0  0
   -6.4975   -1.4998    0.0000 C   0  0  0  0  0  0  0  0  0  0  0  0
   -7.0109   -0.0904    0.0000 H   0  0  0  0  0  0  0  0  0  0  0  0
   -7.9746   -1.7608    0.0000 H   0  0  0  0  0  0  0  0  0  0  0  0
   -5.1986   -0.7496    0.0000 C   0  0  0  0  0  0  0  0  0  0  0  0
   -4.2343    0.3994    0.0000 H   0  0  0  0  0  0  0  0  0  0  0  0
   -6.1628    0.3994    0.0000 H   0  0  0  0  0  0  0  0  0  0  0  0
    3.8989    1.5002    0.0000 C   0  0  0  0  0  0  0  0  0  0  0  0
    3.8987    3.0002    0.0000 O   0  0  0  0  0  0  0  0  0  0  0  0
    5.1981    0.7504    0.0000 O   0  0  0  0  0  0  0  0  0  0  0  0
    6.4970    1.5006    0.0000 H   0  0  0  0  0  0  0  0  0  0  0  0
  1  2  1  0  0  0  0 
  1  3  2  0  0  0  0 
  3  4  1  0  0  0  0 
  1  4  1  0  0  0  0 
  4  5  1  0  0  0  0 
  4  6  1  0  0  0  0 
  3  7  1  0  0  0  0 
  7  8  1  0  0  0  0 
  8  9  1  0  0  0  0 
  8 10  2  0  0  0  0 
 10 11  1  0  0  0  0 
 11 12  2  0  0  0  0 
 11 13  1  0  0  0  0 
 13 14  2  0  0  0  0 
  7 14  1  0  0  0  0 
 14 15  1  0  0  0  0 
 15 16  1  0  0  0  0 
 15 17  2  0  0  0  0 
 17 18  1  0  0  0  0 
 18 19  2  0  0  0  0 
 13 19  1  0  0  0  0 
 19 20  1  0  0  0  0 
 18 21  1  0  0  0  0 
 17 22  1  0  0  0  0 
 22 23  1  0  0  0  0 
 23 24  1  0  0  0  0 
 23 25  1  0  0  0  0 
 23 26  1  0  0  0  0 
 26 27  1  0  0  0  0 
 26 28  1  0  0  0  0 
 26 29  1  0  0  0  0 
 29 30  1  0  0  0  0 
 29 31  1  0  0  0  0 
 31 32  1  0  0  0  0 
 31 33  1  0  0  0  0 
 31 34  1  0  0  0  0 
 22 34  1  0  0  0  0 
 34 35  1  0  0  0  0 
 34 36  1  0  0  0  0 
 10 37  1  0  0  0  0 
 37 38  2  0  0  0  0 
 37 39  1  0  0  0  0 
 39 40  1  0  0  0  0 
M  END
> <Rank>
29

> <Priority_score>
0.019168161718256478

> <Reaction_type>
alkyl dehydrogenation

> <Parent_ID>
80

> <Parent_InChI>
InChI=1S/C17H18FN3O3/c18-13-7-11-14(8-15(13)20-5-3-19-4-6-20)21(10-1-2-10)9-12(16(11)22)17(23)24/h7-10,19H,1-6H2,(H,23,24)

> <Parent_SMILES>
O=C(O)c1cn(C2CC2)c2cc(N3CCNCC3)c(F)cc2c1=O

$$$$
Molecule 80_metabolite 30
  CDK     0516241031

 40 43  0  0  0  0  0  0  0  0999 V2000
    0.7873   -4.4096    0.0000 C   0  0  0  0  0  0  0  0  0  0  0  0
    1.0483   -5.8868    0.0000 H   0  0  0  0  0  0  0  0  0  0  0  0
   -0.1781   -3.2605    0.0000 C   0  0  0  0  0  0  0  0  0  0  0  0
   -1.5877   -2.7477    0.0000 H   0  0  0  0  0  0  0  0  0  0  0  0
    1.3000   -3.0000    0.0000 C   0  0  0  0  0  0  0  0  0  0  0  0
    2.7772   -3.2603    0.0000 H   0  0  0  0  0  0  0  0  0  0  0  0
    1.3000   -1.5000    0.0000 N   0  0  0  0  0  0  0  0  0  0  0  0
    0.0000   -0.7500    0.0000 C   0  0  0  0  0  0  0  0  0  0  0  0
   -1.2989   -1.5002    0.0000 H   0  0  0  0  0  0  0  0  0  0  0  0
    0.0000    0.7500    0.0000 C   0  0  0  0  0  0  0  0  0  0  0  0
    1.3000    1.5000    0.0000 C   0  0  0  0  0  0  0  0  0  0  0  0
    1.3000    3.0000    0.0000 O   0  0  0  0  0  0  0  0  0  0  0  0
    2.6000    0.7500    0.0000 C   0  0  0  0  0  0  0  0  0  0  0  0
    2.6000   -0.7500    0.0000 C   0  0  0  0  0  0  0  0  0  0  0  0
    3.9000   -1.5000    0.0000 C   0  0  0  0  0  0  0  0  0  0  0  0
    3.9000   -3.0000    0.0000 H   0  0  0  0  0  0  0  0  0  0  0  0
    5.2000   -0.7500    0.0000 C   0  0  0  0  0  0  0  0  0  0  0  0
    5.2000    0.7500    0.0000 C   0  0  0  0  0  0  0  0  0  0  0  0
    3.9000    1.5000    0.0000 C   0  0  0  0  0  0  0  0  0  0  0  0
    3.9000    3.0000    0.0000 H   0  0  0  0  0  0  0  0  0  0  0  0
    6.4989    1.5002    0.0000 F   0  0  0  0  0  0  0  0  0  0  0  0
    6.4989   -1.5002    0.0000 N   0  0  0  0  0  0  0  0  0  0  0  0
    6.4982   -3.0010    0.0000 C   0  0  0  0  0  0  0  0  0  0  0  0
    5.9848   -4.4104    0.0000 H   0  0  0  0  0  0  0  0  0  0  0  0
    5.0211   -2.7400    0.0000 H   0  0  0  0  0  0  0  0  0  0  0  0
    7.7971   -3.7512    0.0000 C   0  0  0  0  0  0  0  0  0  0  0  0
    8.7614   -4.9003    0.0000 H   0  0  0  0  0  0  0  0  0  0  0  0
    6.8329   -4.9003    0.0000 H   0  0  0  0  0  0  0  0  0  0  0  0
    9.0968   -3.0006    0.0000 N   0  0  0  0  0  0  0  0  0  0  0  0
   10.3957   -3.7508    0.0000 H   0  0  0  0  0  0  0  0  0  0  0  0
    9.0975   -1.4998    0.0000 C   0  0  0  0  0  0  0  0  0  0  0  0
    9.6109   -0.0904    0.0000 H   0  0  0  0  0  0  0  0  0  0  0  0
   10.5746   -1.7608    0.0000 H   0  0  0  0  0  0  0  0  0  0  0  0
    7.7986   -0.7496    0.0000 C   0  0  0  0  0  0  0  0  0  0  0  0
    6.8343    0.3994    0.0000 H   0  0  0  0  0  0  0  0  0  0  0  0
    8.7628    0.3994    0.0000 H   0  0  0  0  0  0  0  0  0  0  0  0
   -1.2989    1.5002    0.0000 C   0  0  0  0  0  0  0  0  0  0  0  0
   -1.2987    3.0002    0.0000 O   0  0  0  0  0  0  0  0  0  0  0  0
   -2.5981    0.7504    0.0000 O   0  0  0  0  0  0  0  0  0  0  0  0
   -3.8970    1.5006    0.0000 H   0  0  0  0  0  0  0  0  0  0  0  0
  1  2  1  0  0  0  0 
  1  3  2  0  0  0  0 
  3  4  1  0  0  0  0 
  3  5  1  0  0  0  0 
  1  5  1  0  0  0  0 
  5  6  1  0  0  0  0 
  5  7  1  0  0  0  0 
  7  8  1  0  0  0  0 
  8  9  1  0  0  0  0 
  8 10  2  0  0  0  0 
 10 11  1  0  0  0  0 
 11 12  2  0  0  0  0 
 11 13  1  0  0  0  0 
 13 14  2  0  0  0  0 
  7 14  1  0  0  0  0 
 14 15  1  0  0  0  0 
 15 16  1  0  0  0  0 
 15 17  2  0  0  0  0 
 17 18  1  0  0  0  0 
 18 19  2  0  0  0  0 
 13 19  1  0  0  0  0 
 19 20  1  0  0  0  0 
 18 21  1  0  0  0  0 
 17 22  1  0  0  0  0 
 22 23  1  0  0  0  0 
 23 24  1  0  0  0  0 
 23 25  1  0  0  0  0 
 23 26  1  0  0  0  0 
 26 27  1  0  0  0  0 
 26 28  1  0  0  0  0 
 26 29  1  0  0  0  0 
 29 30  1  0  0  0  0 
 29 31  1  0  0  0  0 
 31 32  1  0  0  0  0 
 31 33  1  0  0  0  0 
 31 34  1  0  0  0  0 
 22 34  1  0  0  0  0 
 34 35  1  0  0  0  0 
 34 36  1  0  0  0  0 
 10 37  1  0  0  0  0 
 37 38  2  0  0  0  0 
 37 39  1  0  0  0  0 
 39 40  1  0  0  0  0 
M  END
> <Rank>
30

> <Priority_score>
0.016

> <Reaction_type>
alkyl dehydrogenation

> <Parent_ID>
80

> <Parent_InChI>
InChI=1S/C17H18FN3O3/c18-13-7-11-14(8-15(13)20-5-3-19-4-6-20)21(10-1-2-10)9-12(16(11)22)17(23)24/h7-10,19H,1-6H2,(H,23,24)

> <Parent_SMILES>
O=C(O)c1cn(C2CC2)c2cc(N3CCNCC3)c(F)cc2c1=O

$$$$
Molecule 80_metabolite 31
  CDK     0516241031

 43 46  0  0  0  0  0  0  0  0999 V2000
    0.7873   -4.8896    0.0000 C   0  0  0  0  0  0  0  0  0  0  0  0
   -0.1764   -6.0391    0.0000 H   0  0  0  0  0  0  0  0  0  0  0  0
    2.0865   -5.6392    0.0000 H   0  0  0  0  0  0  0  0  0  0  0  0
   -0.1781   -3.7405    0.0000 C   0  0  0  0  0  0  0  0  0  0  0  0
   -0.6912   -2.3310    0.0000 H   0  0  0  0  0  0  0  0  0  0  0  0
   -1.4769   -4.4909    0.0000 H   0  0  0  0  0  0  0  0  0  0  0  0
    1.3000   -3.4800    0.0000 C   0  0  0  0  0  0  0  0  0  0  0  0
    2.7772   -3.7403    0.0000 H   0  0  0  0  0  0  0  0  0  0  0  0
    1.3000   -1.5000    0.0000 N   0  0  0  0  0  0  0  0  0  0  0  0
    0.0000   -0.7500    0.0000 C   0  0  0  0  0  0  0  0  0  0  0  0
   -1.2989   -1.5002    0.0000 H   0  0  0  0  0  0  0  0  0  0  0  0
    0.0000    0.7500    0.0000 C   0  0  0  0  0  0  0  0  0  0  0  0
    1.3000    1.5000    0.0000 C   0  0  0  0  0  0  0  0  0  0  0  0
    1.3000    3.0000    0.0000 O   0  0  0  0  0  0  0  0  0  0  0  0
    2.6000    0.7500    0.0000 C   0  0  0  0  0  0  0  0  0  0  0  0
    2.6000   -0.7500    0.0000 C   0  0  0  0  0  0  0  0  0  0  0  0
    3.9000   -1.5000    0.0000 C   0  0  0  0  0  0  0  0  0  0  0  0
    3.9000   -3.0000    0.0000 H   0  0  0  0  0  0  0  0  0  0  0  0
    5.2000   -0.7500    0.0000 C   0  0  0  0  0  0  0  0  0  0  0  0
    5.2000    0.7500    0.0000 C   0  0  0  0  0  0  0  0  0  0  0  0
    3.9000    1.5000    0.0000 C   0  0  0  0  0  0  0  0  0  0  0  0
    3.9000    3.0000    0.0000 H   0  0  0  0  0  0  0  0  0  0  0  0
    6.4989    1.5002    0.0000 O   0  0  0  0  0  0  0  0  0  0  0  0
    6.4987    3.0002    0.0000 H   0  0  0  0  0  0  0  0  0  0  0  0
    6.4989   -1.5002    0.0000 N   0  0  0  0  0  0  0  0  0  0  0  0
    6.4982   -3.0010    0.0000 C   0  0  0  0  0  0  0  0  0  0  0  0
    5.9848   -4.4104    0.0000 H   0  0  0  0  0  0  0  0  0  0  0  0
    5.0211   -2.7400    0.0000 H   0  0  0  0  0  0  0  0  0  0  0  0
    7.7971   -3.7512    0.0000 C   0  0  0  0  0  0  0  0  0  0  0  0
    8.7614   -4.9003    0.0000 H   0  0  0  0  0  0  0  0  0  0  0  0
    6.8329   -4.9003    0.0000 H   0  0  0  0  0  0  0  0  0  0  0  0
    9.0968   -3.0006    0.0000 N   0  0  0  0  0  0  0  0  0  0  0  0
   10.3957   -3.7508    0.0000 H   0  0  0  0  0  0  0  0  0  0  0  0
    9.0975   -1.4998    0.0000 C   0  0  0  0  0  0  0  0  0  0  0  0
    9.6109   -0.0904    0.0000 H   0  0  0  0  0  0  0  0  0  0  0  0
   10.5746   -1.7608    0.0000 H   0  0  0  0  0  0  0  0  0  0  0  0
    7.7986   -0.7496    0.0000 C   0  0  0  0  0  0  0  0  0  0  0  0
    6.8343    0.3994    0.0000 H   0  0  0  0  0  0  0  0  0  0  0  0
    8.7628    0.3994    0.0000 H   0  0  0  0  0  0  0  0  0  0  0  0
   -1.2989    1.5002    0.0000 C   0  0  0  0  0  0  0  0  0  0  0  0
   -1.2987    3.0002    0.0000 O   0  0  0  0  0  0  0  0  0  0  0  0
   -2.5981    0.7504    0.0000 O   0  0  0  0  0  0  0  0  0  0  0  0
   -3.8970    1.5006    0.0000 H   0  0  0  0  0  0  0  0  0  0  0  0
  1  2  1  0  0  0  0 
  1  3  1  0  0  0  0 
  1  4  1  0  0  0  0 
  4  5  1  0  0  0  0 
  4  6  1  0  0  0  0 
  4  7  1  0  0  0  0 
  1  7  1  0  0  0  0 
  7  8  1  0  0  0  0 
  7  9  1  0  0  0  0 
  9 10  1  0  0  0  0 
 10 11  1  0  0  0  0 
 10 12  2  0  0  0  0 
 12 13  1  0  0  0  0 
 13 14  2  0  0  0  0 
 13 15  1  0  0  0  0 
 15 16  2  0  0  0  0 
  9 16  1  0  0  0  0 
 16 17  1  0  0  0  0 
 17 18  1  0  0  0  0 
 17 19  2  0  0  0  0 
 19 20  1  0  0  0  0 
 20 21  2  0  0  0  0 
 15 21  1  0  0  0  0 
 21 22  1  0  0  0  0 
 20 23  1  0  0  0  0 
 23 24  1  0  0  0  0 
 19 25  1  0  0  0  0 
 25 26  1  0  0  0  0 
 26 27  1  0  0  0  0 
 26 28  1  0  0  0  0 
 26 29  1  0  0  0  0 
 29 30  1  0  0  0  0 
 29 31  1  0  0  0  0 
 29 32  1  0  0  0  0 
 32 33  1  0  0  0  0 
 32 34  1  0  0  0  0 
 34 35  1  0  0  0  0 
 34 36  1  0  0  0  0 
 34 37  1  0  0  0  0 
 25 37  1  0  0  0  0 
 37 38  1  0  0  0  0 
 37 39  1  0  0  0  0 
 12 40  1  0  0  0  0 
 40 41  2  0  0  0  0 
 40 42  1  0  0  0  0 
 42 43  1  0  0  0  0 
M  END
> <Rank>
31

> <Priority_score>
0.0032

> <Reaction_type>
oxidative dehalogenation benzyl

> <Parent_ID>
80

> <Parent_InChI>
InChI=1S/C17H18FN3O3/c18-13-7-11-14(8-15(13)20-5-3-19-4-6-20)21(10-1-2-10)9-12(16(11)22)17(23)24/h7-10,19H,1-6H2,(H,23,24)

> <Parent_SMILES>
O=C(O)c1cn(C2CC2)c2cc(N3CCNCC3)c(F)cc2c1=O

$$$$
Molecule 81
  CDK     0516241031

 34 38  0  0  0  0  0  0  0  0999 V2000
   -1.0854  -13.9288    0.0000 C   0  0  0  0  0  0  0  0  0  0  0  0
   -2.5497  -13.5997    0.0000 C   0  0  0  0  0  0  0  0  0  0  0  0
   -2.9961  -12.1677    0.0000 C   0  0  0  0  0  0  0  0  0  0  0  0
   -1.9783  -11.0647    0.0000 N   0  0  0  0  0  0  0  0  0  0  0  0
   -0.5140  -11.3938    0.0000 C   0  0  0  0  0  0  0  0  0  0  0  0
   -0.0675  -12.8258    0.0000 C   0  0  0  0  0  0  0  0  0  0  0  0
   -2.4247   -9.6327    0.0000 C   0  0  0  0  0  0  0  0  0  0  0  0
   -1.4078   -8.5301    0.0000 C   0  0  0  0  0  0  0  0  0  0  0  0
   -1.8542   -7.0980    0.0000 O   0  0  0  0  0  0  0  0  0  0  0  0
   -0.8373   -5.9954    0.0000 C   0  0  0  0  0  0  0  0  0  0  0  0
   -1.2848   -4.5173    0.0000 C   0  0  0  0  0  0  0  0  0  0  0  0
   -0.2831   -3.4347    0.0000 C   0  0  0  0  0  0  0  0  0  0  0  0
    1.1830   -3.7520    0.0000 C   0  0  0  0  0  0  0  0  0  0  0  0
    1.6473   -5.1519    0.0000 C   0  0  0  0  0  0  0  0  0  0  0  0
    0.6288   -6.3127    0.0000 C   0  0  0  0  0  0  0  0  0  0  0  0
    2.1853   -2.6360    0.0000 C   0  0  0  0  0  0  0  0  0  0  0  0
    3.6529   -2.9461    0.0000 O   0  0  0  0  0  0  0  0  0  0  0  0
    1.7200   -1.2100    0.0000 C   0  0  0  0  0  0  0  0  0  0  0  0
    2.6000    0.0000    0.0000 C   0  0  0  0  0  0  0  0  0  0  0  0
    4.1000   -0.0000    0.0000 C   0  0  0  0  0  0  0  0  0  0  0  0
    4.8436    1.3027    0.0000 C   0  0  0  0  0  0  0  0  0  0  0  0
    6.3184    1.3245    0.0000 C   0  0  0  0  0  0  0  0  0  0  0  0
    7.1190    0.0039    0.0000 C   0  0  0  0  0  0  0  0  0  0  0  0
    6.3754   -1.2988    0.0000 C   0  0  0  0  0  0  0  0  0  0  0  0
    4.8312   -1.2809    0.0000 C   0  0  0  0  0  0  0  0  0  0  0  0
    8.6189    0.0237    0.0000 O   0  0  0  0  0  0  0  0  0  0  0  0
    1.7200    1.2100    0.0000 S   0  0  0  0  0  0  0  0  0  0  0  0
    0.2900    0.7500    0.0000 C   0  0  0  0  0  0  0  0  0  0  0  0
    0.2900   -0.7500    0.0000 C   0  0  0  0  0  0  0  0  0  0  0  0
   -1.0100   -1.5000    0.0000 C   0  0  0  0  0  0  0  0  0  0  0  0
   -2.3100   -0.7500    0.0000 C   0  0  0  0  0  0  0  0  0  0  0  0
   -2.3100    0.7500    0.0000 C   0  0  0  0  0  0  0  0  0  0  0  0
   -1.0100    1.5000    0.0000 C   0  0  0  0  0  0  0  0  0  0  0  0
   -3.6089    1.5002    0.0000 O   0  0  0  0  0  0  0  0  0  0  0  0
  1  2  1  0  0  0  0 
  2  3  1  0  0  0  0 
  3  4  1  0  0  0  0 
  4  5  1  0  0  0  0 
  5  6  1  0  0  0  0 
  1  6  1  0  0  0  0 
  4  7  1  0  0  0  0 
  7  8  1  0  0  0  0 
  8  9  1  0  0  0  0 
  9 10  1  0  0  0  0 
 10 11  2  0  0  0  0 
 11 12  1  0  0  0  0 
 12 13  2  0  0  0  0 
 13 14  1  0  0  0  0 
 14 15  2  0  0  0  0 
 10 15  1  0  0  0  0 
 13 16  1  0  0  0  0 
 16 17  2  0  0  0  0 
 16 18  1  0  0  0  0 
 18 19  2  0  0  0  0 
 19 20  1  0  0  0  0 
 20 21  2  0  0  0  0 
 21 22  1  0  0  0  0 
 22 23  2  0  0  0  0 
 23 24  1  0  0  0  0 
 24 25  2  0  0  0  0 
 20 25  1  0  0  0  0 
 23 26  1  0  0  0  0 
 19 27  1  0  0  0  0 
 27 28  1  0  0  0  0 
 28 29  2  0  0  0  0 
 18 29  1  0  0  0  0 
 29 30  1  0  0  0  0 
 30 31  2  0  0  0  0 
 31 32  1  0  0  0  0 
 32 33  2  0  0  0  0 
 28 33  1  0  0  0  0 
 32 34  1  0  0  0  0 
M  END
> <SMILES>
O=C(c1ccc(OCCN2CCCCC2)cc1)c1c(-c2ccc(O)cc2)sc2cc(O)ccc12

$$$$
Molecule 81_metabolite 1
  CDK     0516241031

 65 69  0  0  0  0  0  0  0  0999 V2000
   -1.9326  -15.4326    0.0000 C   0  0  0  0  0  0  0  0  0  0  0  0
   -0.6702  -16.2428    0.0000 H   0  0  0  0  0  0  0  0  0  0  0  0
   -2.5109  -16.8166    0.0000 H   0  0  0  0  0  0  0  0  0  0  0  0
   -3.3969  -15.1035    0.0000 C   0  0  0  0  0  0  0  0  0  0  0  0
   -3.4669  -16.6019    0.0000 H   0  0  0  0  0  0  0  0  0  0  0  0
   -4.8847  -15.2947    0.0000 H   0  0  0  0  0  0  0  0  0  0  0  0
   -3.8434  -13.6715    0.0000 C   0  0  0  0  0  0  0  0  0  0  0  0
   -5.1762  -14.3597    0.0000 H   0  0  0  0  0  0  0  0  0  0  0  0
   -4.7524  -12.4784    0.0000 H   0  0  0  0  0  0  0  0  0  0  0  0
   -2.8255  -12.5686    0.0000 N   0  0  0  0  0  0  0  0  0  0  0  0
   -1.3612  -12.8977    0.0000 C   0  0  0  0  0  0  0  0  0  0  0  0
   -1.2913  -11.3993    0.0000 H   0  0  0  0  0  0  0  0  0  0  0  0
    0.1266  -12.7065    0.0000 H   0  0  0  0  0  0  0  0  0  0  0  0
   -0.9148  -14.3297    0.0000 C   0  0  0  0  0  0  0  0  0  0  0  0
    0.4181  -13.6415    0.0000 H   0  0  0  0  0  0  0  0  0  0  0  0
   -0.0057  -15.5228    0.0000 H   0  0  0  0  0  0  0  0  0  0  0  0
   -3.4148  -10.6783    0.0000 C   0  0  0  0  0  0  0  0  0  0  0  0
   -4.7476  -11.3666    0.0000 H   0  0  0  0  0  0  0  0  0  0  0  0
   -4.3241   -9.4853    0.0000 H   0  0  0  0  0  0  0  0  0  0  0  0
   -2.3979   -9.5757    0.0000 C   0  0  0  0  0  0  0  0  0  0  0  0
   -1.8194   -8.1917    0.0000 H   0  0  0  0  0  0  0  0  0  0  0  0
   -3.6604   -8.7656    0.0000 H   0  0  0  0  0  0  0  0  0  0  0  0
   -0.9345   -9.9050    0.0000 O   0  0  0  0  0  0  0  0  0  0  0  0
    0.0824   -8.8024    0.0000 C   0  0  0  0  0  0  0  0  0  0  0  0
    1.5918   -9.1290    0.0000 C   0  0  0  0  0  0  0  0  0  0  0  0
    2.0453  -10.5588    0.0000 H   0  0  0  0  0  0  0  0  0  0  0  0
    2.5900   -8.0432    0.0000 C   0  0  0  0  0  0  0  0  0  0  0  0
    4.0523   -8.3775    0.0000 H   0  0  0  0  0  0  0  0  0  0  0  0
    2.1554   -6.6076    0.0000 C   0  0  0  0  0  0  0  0  0  0  0  0
    0.7226   -6.2577    0.0000 C   0  0  0  0  0  0  0  0  0  0  0  0
    0.3069   -4.8165    0.0000 H   0  0  0  0  0  0  0  0  0  0  0  0
   -0.3522   -7.3667    0.0000 C   0  0  0  0  0  0  0  0  0  0  0  0
   -1.8100   -7.0133    0.0000 H   0  0  0  0  0  0  0  0  0  0  0  0
    4.1769   -4.4728    0.0000 C   0  0  0  0  0  0  0  0  0  0  0  0
    3.7494   -3.0351    0.0000 O   0  0  0  0  0  0  0  0  0  0  0  0
    6.1027   -4.9330    0.0000 C   0  0  0  0  0  0  0  0  0  0  0  0
    7.2377   -3.9582    0.0000 C   0  0  0  0  0  0  0  0  0  0  0  0
    7.1166   -2.4631    0.0000 C   0  0  0  0  0  0  0  0  0  0  0  0
    8.3550   -1.6167    0.0000 C   0  0  0  0  0  0  0  0  0  0  0  0
    9.7039   -2.2727    0.0000 H   0  0  0  0  0  0  0  0  0  0  0  0
    8.2576   -0.1450    0.0000 C   0  0  0  0  0  0  0  0  0  0  0  0
    9.5071    0.6850    0.0000 H   0  0  0  0  0  0  0  0  0  0  0  0
    6.8767    0.5464    0.0000 C   0  0  0  0  0  0  0  0  0  0  0  0
    5.6383   -0.3000    0.0000 C   0  0  0  0  0  0  0  0  0  0  0  0
    4.2808    0.3382    0.0000 H   0  0  0  0  0  0  0  0  0  0  0  0
    5.7808   -1.8377    0.0000 C   0  0  0  0  0  0  0  0  0  0  0  0
    4.5536   -2.7003    0.0000 H   0  0  0  0  0  0  0  0  0  0  0  0
    6.7753    2.0430    0.0000 O   0  0  0  0  0  0  0  0  0  0  0  0
    8.0206    2.8791    0.0000 S   0  0  0  0  0  0  0  0  0  0  0  0
    9.4769    3.2388    0.0000 O   0  0  0  0  0  0  0  0  0  0  0  0
    8.6278    1.5074    0.0000 O   0  0  0  0  0  0  0  0  0  0  0  0
    7.9192    4.3756    0.0000 O   0  0  0  0  0  0  0  0  0  0  0  0
    9.1646    5.2117    0.0000 H   0  0  0  0  0  0  0  0  0  0  0  0
    8.5148   -4.7376    0.0000 S   0  0  0  0  0  0  0  0  0  0  0  0
    8.1718   -6.2001    0.0000 C   0  0  0  0  0  0  0  0  0  0  0  0
    6.6767   -6.3212    0.0000 C   0  0  0  0  0  0  0  0  0  0  0  0
    6.0341   -7.6775    0.0000 C   0  0  0  0  0  0  0  0  0  0  0  0
    4.5390   -7.7986    0.0000 H   0  0  0  0  0  0  0  0  0  0  0  0
    6.8866   -8.9127    0.0000 C   0  0  0  0  0  0  0  0  0  0  0  0
    6.2437  -10.2680    0.0000 H   0  0  0  0  0  0  0  0  0  0  0  0
    8.3817   -8.7916    0.0000 C   0  0  0  0  0  0  0  0  0  0  0  0
    9.0243   -7.4353    0.0000 C   0  0  0  0  0  0  0  0  0  0  0  0
   10.5194   -7.3142    0.0000 H   0  0  0  0  0  0  0  0  0  0  0  0
    9.2343  -10.0257    0.0000 O   0  0  0  0  0  0  0  0  0  0  0  0
    8.5919  -11.3811    0.0000 H   0  0  0  0  0  0  0  0  0  0  0  0
  1  2  1  0  0  0  0 
  1  3  1  0  0  0  0 
  1  4  1  0  0  0  0 
  4  5  1  0  0  0  0 
  4  6  1  0  0  0  0 
  4  7  1  0  0  0  0 
  7  8  1  0  0  0  0 
  7  9  1  0  0  0  0 
  7 10  1  0  0  0  0 
 10 11  1  0  0  0  0 
 11 12  1  0  0  0  0 
 11 13  1  0  0  0  0 
 11 14  1  0  0  0  0 
  1 14  1  0  0  0  0 
 14 15  1  0  0  0  0 
 14 16  1  0  0  0  0 
 10 17  1  0  0  0  0 
 17 18  1  0  0  0  0 
 17 19  1  0  0  0  0 
 17 20  1  0  0  0  0 
 20 21  1  0  0  0  0 
 20 22  1  0  0  0  0 
 20 23  1  0  0  0  0 
 23 24  1  0  0  0  0 
 24 25  2  0  0  0  0 
 25 26  1  0  0  0  0 
 25 27  1  0  0  0  0 
 27 28  1  0  0  0  0 
 27 29  2  0  0  0  0 
 29 30  1  0  0  0  0 
 30 31  1  0  0  0  0 
 30 32  2  0  0  0  0 
 24 32  1  0  0  0  0 
 32 33  1  0  0  0  0 
 29 34  1  0  0  0  0 
 34 35  2  0  0  0  0 
 34 36  1  0  0  0  0 
 36 37  2  0  0  0  0 
 37 38  1  0  0  0  0 
 38 39  2  0  0  0  0 
 39 40  1  0  0  0  0 
 39 41  1  0  0  0  0 
 41 42  1  0  0  0  0 
 41 43  2  0  0  0  0 
 43 44  1  0  0  0  0 
 44 45  1  0  0  0  0 
 44 46  2  0  0  0  0 
 38 46  1  0  0  0  0 
 46 47  1  0  0  0  0 
 43 48  1  0  0  0  0 
 48 49  1  0  0  0  0 
 49 50  2  0  0  0  0 
 49 51  2  0  0  0  0 
 49 52  1  0  0  0  0 
 52 53  1  0  0  0  0 
 37 54  1  0  0  0  0 
 54 55  1  0  0  0  0 
 55 56  2  0  0  0  0 
 36 56  1  0  0  0  0 
 56 57  1  0  0  0  0 
 57 58  1  0  0  0  0 
 57 59  2  0  0  0  0 
 59 60  1  0  0  0  0 
 59 61  1  0  0  0  0 
 61 62  2  0  0  0  0 
 55 62  1  0  0  0  0 
 62 63  1  0  0  0  0 
 61 64  1  0  0  0  0 
 64 65  1  0  0  0  0 
M  END
> <Rank>
1

> <Priority_score>
0.984

> <Reaction_type>
sulfation_(aromatic_hydroxyl)

> <Parent_ID>
81

> <Parent_InChI>
InChI=1S/C28H27NO4S/c30-21-8-4-20(5-9-21)28-26(24-13-10-22(31)18-25(24)34-28)27(32)19-6-11-23(12-7-19)33-17-16-29-14-2-1-3-15-29/h4-13,18,30-31H,1-3,14-17H2

> <Parent_SMILES>
O=C(c1ccc(OCCN2CCCCC2)cc1)c1c(-c2ccc(O)cc2)sc2cc(O)ccc12

$$$$
Molecule 81_metabolite 2
  CDK     0516241031

 81 86  0  0  0  0  0  0  0  0999 V2000
    0.7746  -17.4944    0.0000 C   0  0  0  0  0  0  0  0  0  0  0  0
   -0.5759  -16.8416    0.0000 H   0  0  0  0  0  0  0  0  0  0  0  0
   -0.1031  -18.7108    0.0000 H   0  0  0  0  0  0  0  0  0  0  0  0
    1.8205  -18.5708    0.0000 C   0  0  0  0  0  0  0  0  0  0  0  0
    0.5796  -19.4136    0.0000 H   0  0  0  0  0  0  0  0  0  0  0  0
    2.4350  -19.9392    0.0000 H   0  0  0  0  0  0  0  0  0  0  0  0
    3.2747  -18.2030    0.0000 C   0  0  0  0  0  0  0  0  0  0  0  0
    3.3845  -19.6990    0.0000 H   0  0  0  0  0  0  0  0  0  0  0  0
    4.7670  -18.3545    0.0000 H   0  0  0  0  0  0  0  0  0  0  0  0
    3.6830  -16.7588    0.0000 N   0  0  0  0  0  0  0  0  0  0  0  0
    2.6371  -15.6824    0.0000 C   0  0  0  0  0  0  0  0  0  0  0  0
    3.8780  -14.8397    0.0000 H   0  0  0  0  0  0  0  0  0  0  0  0
    2.0226  -14.3141    0.0000 H   0  0  0  0  0  0  0  0  0  0  0  0
    1.1829  -16.0502    0.0000 C   0  0  0  0  0  0  0  0  0  0  0  0
    1.0731  -14.5542    0.0000 H   0  0  0  0  0  0  0  0  0  0  0  0
   -0.3094  -15.8988    0.0000 H   0  0  0  0  0  0  0  0  0  0  0  0
    5.6026  -16.2733    0.0000 C   0  0  0  0  0  0  0  0  0  0  0  0
    5.7123  -17.7693    0.0000 H   0  0  0  0  0  0  0  0  0  0  0  0
    7.0949  -16.4251    0.0000 H   0  0  0  0  0  0  0  0  0  0  0  0
    6.0111  -14.8300    0.0000 C   0  0  0  0  0  0  0  0  0  0  0  0
    6.8887  -13.6135    0.0000 H   0  0  0  0  0  0  0  0  0  0  0  0
    7.3615  -15.4830    0.0000 H   0  0  0  0  0  0  0  0  0  0  0  0
    4.9655  -13.7546    0.0000 O   0  0  0  0  0  0  0  0  0  0  0  0
    5.3741  -12.3113    0.0000 C   0  0  0  0  0  0  0  0  0  0  0  0
    4.3067  -11.1952    0.0000 C   0  0  0  0  0  0  0  0  0  0  0  0
    2.8507  -11.5558    0.0000 H   0  0  0  0  0  0  0  0  0  0  0  0
    4.7107   -9.7766    0.0000 C   0  0  0  0  0  0  0  0  0  0  0  0
    3.6615   -8.7047    0.0000 H   0  0  0  0  0  0  0  0  0  0  0  0
    6.1619   -9.3969    0.0000 C   0  0  0  0  0  0  0  0  0  0  0  0
    7.2090  -10.4356    0.0000 C   0  0  0  0  0  0  0  0  0  0  0  0
    8.6550  -10.0367    0.0000 H   0  0  0  0  0  0  0  0  0  0  0  0
    6.8252  -11.9315    0.0000 C   0  0  0  0  0  0  0  0  0  0  0  0
    7.8884  -12.9896    0.0000 H   0  0  0  0  0  0  0  0  0  0  0  0
    6.9253   -6.5577    0.0000 C   0  0  0  0  0  0  0  0  0  0  0  0
    8.3746   -6.1708    0.0000 O   0  0  0  0  0  0  0  0  0  0  0  0
    5.5265   -5.1564    0.0000 C   0  0  0  0  0  0  0  0  0  0  0  0
    5.7644   -3.6793    0.0000 C   0  0  0  0  0  0  0  0  0  0  0  0
    7.1024   -3.0011    0.0000 C   0  0  0  0  0  0  0  0  0  0  0  0
    7.1767   -1.5030    0.0000 C   0  0  0  0  0  0  0  0  0  0  0  0
    5.9124   -0.6957    0.0000 H   0  0  0  0  0  0  0  0  0  0  0  0
    8.4823   -0.8168    0.0000 C   0  0  0  0  0  0  0  0  0  0  0  0
    8.5369    0.6822    0.0000 H   0  0  0  0  0  0  0  0  0  0  0  0
    9.7935   -1.6328    0.0000 C   0  0  0  0  0  0  0  0  0  0  0  0
    9.7192   -3.1309    0.0000 C   0  0  0  0  0  0  0  0  0  0  0  0
   10.9727   -3.9547    0.0000 H   0  0  0  0  0  0  0  0  0  0  0  0
    8.3337   -3.8131    0.0000 C   0  0  0  0  0  0  0  0  0  0  0  0
    8.2396   -5.3102    0.0000 H   0  0  0  0  0  0  0  0  0  0  0  0
   11.1224   -0.9371    0.0000 O   0  0  0  0  0  0  0  0  0  0  0  0
   11.1843    0.5616    0.0000 C   0  0  0  0  0  0  0  0  0  0  0  0
    9.6972    0.3658    0.0000 H   0  0  0  0  0  0  0  0  0  0  0  0
   12.6405    0.2459    0.0000 C   0  0  0  0  0  0  0  0  0  0  0  0
   13.9099   -0.5532    0.0000 H   0  0  0  0  0  0  0  0  0  0  0  0
   13.6630    1.3748    0.0000 C   0  0  0  0  0  0  0  0  0  0  0  0
   14.9875    2.0789    0.0000 H   0  0  0  0  0  0  0  0  0  0  0  0
   13.1958    2.8064    0.0000 C   0  0  0  0  0  0  0  0  0  0  0  0
   13.2515    4.3053    0.0000 H   0  0  0  0  0  0  0  0  0  0  0  0
   11.7396    3.1221    0.0000 C   0  0  0  0  0  0  0  0  0  0  0  0
   10.4706    3.9220    0.0000 H   0  0  0  0  0  0  0  0  0  0  0  0
   12.4887    4.9550    0.0000 C   0  0  0  0  0  0  0  0  0  0  0  0
   13.9749    5.1578    0.0000 O   0  0  0  0  0  0  0  0  0  0  0  0
   11.5699    6.1407    0.0000 O   0  0  0  0  0  0  0  0  0  0  0  0
   12.1374    7.5292    0.0000 H   0  0  0  0  0  0  0  0  0  0  0  0
   10.7311    2.0106    0.0000 O   0  0  0  0  0  0  0  0  0  0  0  0
   14.6813    3.0144    0.0000 O   0  0  0  0  0  0  0  0  0  0  0  0
   15.2438    4.4049    0.0000 H   0  0  0  0  0  0  0  0  0  0  0  0
   14.5847    0.1914    0.0000 O   0  0  0  0  0  0  0  0  0  0  0  0
   16.0704    0.3980    0.0000 H   0  0  0  0  0  0  0  0  0  0  0  0
   12.0734   -1.1428    0.0000 O   0  0  0  0  0  0  0  0  0  0  0  0
   12.9925   -2.3282    0.0000 H   0  0  0  0  0  0  0  0  0  0  0  0
    4.4325   -2.9978    0.0000 S   0  0  0  0  0  0  0  0  0  0  0  0
    3.3649   -4.0546    0.0000 C   0  0  0  0  0  0  0  0  0  0  0  0
    4.0430   -5.3926    0.0000 C   0  0  0  0  0  0  0  0  0  0  0  0
    3.2225   -6.6493    0.0000 C   0  0  0  0  0  0  0  0  0  0  0  0
    3.9007   -7.9872    0.0000 H   0  0  0  0  0  0  0  0  0  0  0  0
    1.7239   -6.5680    0.0000 C   0  0  0  0  0  0  0  0  0  0  0  0
    0.9045   -7.8244    0.0000 H   0  0  0  0  0  0  0  0  0  0  0  0
    1.0458   -5.2301    0.0000 C   0  0  0  0  0  0  0  0  0  0  0  0
    1.8663   -3.9734    0.0000 C   0  0  0  0  0  0  0  0  0  0  0  0
    1.1881   -2.6354    0.0000 H   0  0  0  0  0  0  0  0  0  0  0  0
   -0.4520   -5.1481    0.0000 O   0  0  0  0  0  0  0  0  0  0  0  0
   -1.2718   -6.4043    0.0000 H   0  0  0  0  0  0  0  0  0  0  0  0
  1  2  1  0  0  0  0 
  1  3  1  0  0  0  0 
  1  4  1  0  0  0  0 
  4  5  1  0  0  0  0 
  4  6  1  0  0  0  0 
  4  7  1  0  0  0  0 
  7  8  1  0  0  0  0 
  7  9  1  0  0  0  0 
  7 10  1  0  0  0  0 
 10 11  1  0  0  0  0 
 11 12  1  0  0  0  0 
 11 13  1  0  0  0  0 
 11 14  1  0  0  0  0 
  1 14  1  0  0  0  0 
 14 15  1  0  0  0  0 
 14 16  1  0  0  0  0 
 10 17  1  0  0  0  0 
 17 18  1  0  0  0  0 
 17 19  1  0  0  0  0 
 17 20  1  0  0  0  0 
 20 21  1  0  0  0  0 
 20 22  1  0  0  0  0 
 20 23  1  0  0  0  0 
 23 24  1  0  0  0  0 
 24 25  2  0  0  0  0 
 25 26  1  0  0  0  0 
 25 27  1  0  0  0  0 
 27 28  1  0  0  0  0 
 27 29  2  0  0  0  0 
 29 30  1  0  0  0  0 
 30 31  1  0  0  0  0 
 30 32  2  0  0  0  0 
 24 32  1  0  0  0  0 
 32 33  1  0  0  0  0 
 29 34  1  0  0  0  0 
 34 35  2  0  0  0  0 
 34 36  1  0  0  0  0 
 36 37  2  0  0  0  0 
 37 38  1  0  0  0  0 
 38 39  2  0  0  0  0 
 39 40  1  0  0  0  0 
 39 41  1  0  0  0  0 
 41 42  1  0  0  0  0 
 41 43  2  0  0  0  0 
 43 44  1  0  0  0  0 
 44 45  1  0  0  0  0 
 44 46  2  0  0  0  0 
 38 46  1  0  0  0  0 
 46 47  1  0  0  0  0 
 43 48  1  0  0  0  0 
 48 49  1  0  0  0  0 
 49 50  1  0  0  0  0 
 49 51  1  0  0  0  0 
 51 52  1  0  0  0  0 
 51 53  1  0  0  0  0 
 53 54  1  0  0  0  0 
 53 55  1  0  0  0  0 
 55 56  1  0  0  0  0 
 55 57  1  0  0  0  0 
 57 58  1  0  0  0  0 
 57 59  1  0  0  0  0 
 59 60  2  0  0  0  0 
 59 61  1  0  0  0  0 
 61 62  1  0  0  0  0 
 57 63  1  0  0  0  0 
 49 63  1  0  0  0  0 
 55 64  1  0  0  0  0 
 64 65  1  0  0  0  0 
 53 66  1  0  0  0  0 
 66 67  1  0  0  0  0 
 51 68  1  0  0  0  0 
 68 69  1  0  0  0  0 
 37 70  1  0  0  0  0 
 70 71  1  0  0  0  0 
 71 72  2  0  0  0  0 
 36 72  1  0  0  0  0 
 72 73  1  0  0  0  0 
 73 74  1  0  0  0  0 
 73 75  2  0  0  0  0 
 75 76  1  0  0  0  0 
 75 77  1  0  0  0  0 
 77 78  2  0  0  0  0 
 71 78  1  0  0  0  0 
 78 79  1  0  0  0  0 
 77 80  1  0  0  0  0 
 80 81  1  0  0  0  0 
M  END
> <Rank>
2

> <Priority_score>
0.96

> <Reaction_type>
O-glucuronidation_(aromatic_hydroxyl)

> <Parent_ID>
81

> <Parent_InChI>
InChI=1S/C28H27NO4S/c30-21-8-4-20(5-9-21)28-26(24-13-10-22(31)18-25(24)34-28)27(32)19-6-11-23(12-7-19)33-17-16-29-14-2-1-3-15-29/h4-13,18,30-31H,1-3,14-17H2

> <Parent_SMILES>
O=C(c1ccc(OCCN2CCCCC2)cc1)c1c(-c2ccc(O)cc2)sc2cc(O)ccc12

$$$$
Molecule 81_metabolite 3
  CDK     0516241031

 81 86  0  0  0  0  0  0  0  0999 V2000
  -17.5544   10.9587    0.0000 C   0  0  0  0  0  0  0  0  0  0  0  0
  -17.6244   12.4571    0.0000 H   0  0  0  0  0  0  0  0  0  0  0  0
  -19.0421   11.1503    0.0000 H   0  0  0  0  0  0  0  0  0  0  0  0
  -18.0020    9.5262    0.0000 C   0  0  0  0  0  0  0  0  0  0  0  0
  -19.3344   10.2152    0.0000 H   0  0  0  0  0  0  0  0  0  0  0  0
  -18.9119    8.3336    0.0000 H   0  0  0  0  0  0  0  0  0  0  0  0
  -16.9855    8.4232    0.0000 C   0  0  0  0  0  0  0  0  0  0  0  0
  -18.2481    7.6134    0.0000 H   0  0  0  0  0  0  0  0  0  0  0  0
  -16.4071    7.0392    0.0000 H   0  0  0  0  0  0  0  0  0  0  0  0
  -15.5213    8.7527    0.0000 N   0  0  0  0  0  0  0  0  0  0  0  0
  -15.0736   10.1853    0.0000 C   0  0  0  0  0  0  0  0  0  0  0  0
  -13.7413    9.4962    0.0000 H   0  0  0  0  0  0  0  0  0  0  0  0
  -14.1638   11.3778    0.0000 H   0  0  0  0  0  0  0  0  0  0  0  0
  -16.0902   11.2882    0.0000 C   0  0  0  0  0  0  0  0  0  0  0  0
  -14.8276   12.0980    0.0000 H   0  0  0  0  0  0  0  0  0  0  0  0
  -16.6686   12.6723    0.0000 H   0  0  0  0  0  0  0  0  0  0  0  0
  -14.1794    7.2968    0.0000 C   0  0  0  0  0  0  0  0  0  0  0  0
  -15.4421    6.4872    0.0000 H   0  0  0  0  0  0  0  0  0  0  0  0
  -13.6013    5.9127    0.0000 H   0  0  0  0  0  0  0  0  0  0  0  0
  -12.7159    7.6257    0.0000 C   0  0  0  0  0  0  0  0  0  0  0  0
  -11.2281    7.4342    0.0000 H   0  0  0  0  0  0  0  0  0  0  0  0
  -12.6461    6.1273    0.0000 H   0  0  0  0  0  0  0  0  0  0  0  0
  -12.2690    9.0576    0.0000 O   0  0  0  0  0  0  0  0  0  0  0  0
  -10.8055    9.3865    0.0000 C   0  0  0  0  0  0  0  0  0  0  0  0
  -10.3332   10.8568    0.0000 C   0  0  0  0  0  0  0  0  0  0  0  0
  -11.3443   11.9648    0.0000 H   0  0  0  0  0  0  0  0  0  0  0  0
   -8.8936   11.1780    0.0000 C   0  0  0  0  0  0  0  0  0  0  0  0
   -8.4515   12.6113    0.0000 H   0  0  0  0  0  0  0  0  0  0  0  0
   -7.8680   10.0834    0.0000 C   0  0  0  0  0  0  0  0  0  0  0  0
   -8.2819    8.6677    0.0000 C   0  0  0  0  0  0  0  0  0  0  0  0
   -7.2419    7.5868    0.0000 H   0  0  0  0  0  0  0  0  0  0  0  0
   -9.7798    8.2919    0.0000 C   0  0  0  0  0  0  0  0  0  0  0  0
  -10.2030    6.8529    0.0000 H   0  0  0  0  0  0  0  0  0  0  0  0
   -5.0083   10.7658    0.0000 C   0  0  0  0  0  0  0  0  0  0  0  0
   -3.9773    9.6763    0.0000 O   0  0  0  0  0  0  0  0  0  0  0  0
   -4.4433   12.6635    0.0000 C   0  0  0  0  0  0  0  0  0  0  0  0
   -3.0314   13.1585    0.0000 C   0  0  0  0  0  0  0  0  0  0  0  0
   -1.7975   12.3057    0.0000 C   0  0  0  0  0  0  0  0  0  0  0  0
   -0.4451   12.9546    0.0000 C   0  0  0  0  0  0  0  0  0  0  0  0
   -0.3382   14.4508    0.0000 H   0  0  0  0  0  0  0  0  0  0  0  0
    0.7805   12.1340    0.0000 C   0  0  0  0  0  0  0  0  0  0  0  0
    2.1242   12.8007    0.0000 H   0  0  0  0  0  0  0  0  0  0  0  0
    0.6883   10.5924    0.0000 C   0  0  0  0  0  0  0  0  0  0  0  0
   -0.6641    9.9435    0.0000 C   0  0  0  0  0  0  0  0  0  0  0  0
   -0.7906    8.4489    0.0000 H   0  0  0  0  0  0  0  0  0  0  0  0
   -1.9242   10.8362    0.0000 C   0  0  0  0  0  0  0  0  0  0  0  0
   -3.2851   10.2052    0.0000 H   0  0  0  0  0  0  0  0  0  0  0  0
    1.9334    9.7559    0.0000 O   0  0  0  0  0  0  0  0  0  0  0  0
    3.2804   10.4159    0.0000 H   0  0  0  0  0  0  0  0  0  0  0  0
   -3.0674   14.6543    0.0000 S   0  0  0  0  0  0  0  0  0  0  0  0
   -4.5053   15.0889    0.0000 C   0  0  0  0  0  0  0  0  0  0  0  0
   -5.3581   13.8549    0.0000 C   0  0  0  0  0  0  0  0  0  0  0  0
   -6.8540   13.9771    0.0000 C   0  0  0  0  0  0  0  0  0  0  0  0
   -7.7068   12.7431    0.0000 H   0  0  0  0  0  0  0  0  0  0  0  0
   -7.4970   15.3332    0.0000 C   0  0  0  0  0  0  0  0  0  0  0  0
   -8.9921   15.4545    0.0000 H   0  0  0  0  0  0  0  0  0  0  0  0
   -6.6442   16.5671    0.0000 C   0  0  0  0  0  0  0  0  0  0  0  0
   -5.1483   16.4450    0.0000 C   0  0  0  0  0  0  0  0  0  0  0  0
   -4.2955   17.6789    0.0000 H   0  0  0  0  0  0  0  0  0  0  0  0
   -7.2862   17.9228    0.0000 O   0  0  0  0  0  0  0  0  0  0  0  0
   -6.4332   19.1566    0.0000 C   0  0  0  0  0  0  0  0  0  0  0  0
   -5.3638   18.1047    0.0000 H   0  0  0  0  0  0  0  0  0  0  0  0
   -7.7858   19.7814    0.0000 C   0  0  0  0  0  0  0  0  0  0  0  0
   -9.2805   19.9078    0.0000 H   0  0  0  0  0  0  0  0  0  0  0  0
   -7.9223   21.2984    0.0000 C   0  0  0  0  0  0  0  0  0  0  0  0
   -8.5558   22.6581    0.0000 H   0  0  0  0  0  0  0  0  0  0  0  0
   -6.6873   22.1599    0.0000 C   0  0  0  0  0  0  0  0  0  0  0  0
   -5.8292   23.3902    0.0000 H   0  0  0  0  0  0  0  0  0  0  0  0
   -5.3346   21.5352    0.0000 C   0  0  0  0  0  0  0  0  0  0  0  0
   -3.8398   21.4096    0.0000 H   0  0  0  0  0  0  0  0  0  0  0  0
   -4.8289   23.4495    0.0000 C   0  0  0  0  0  0  0  0  0  0  0  0
   -5.8933   24.5064    0.0000 O   0  0  0  0  0  0  0  0  0  0  0  0
   -3.3814   23.8429    0.0000 O   0  0  0  0  0  0  0  0  0  0  0  0
   -2.9983   25.2931    0.0000 H   0  0  0  0  0  0  0  0  0  0  0  0
   -5.1988   20.0405    0.0000 O   0  0  0  0  0  0  0  0  0  0  0  0
   -7.7480   23.2206    0.0000 O   0  0  0  0  0  0  0  0  0  0  0  0
   -7.3598   24.6695    0.0000 H   0  0  0  0  0  0  0  0  0  0  0  0
   -9.3708   20.9087    0.0000 O   0  0  0  0  0  0  0  0  0  0  0  0
  -10.4326   21.9682    0.0000 H   0  0  0  0  0  0  0  0  0  0  0  0
   -8.1694   18.3312    0.0000 O   0  0  0  0  0  0  0  0  0  0  0  0
   -9.6170   17.9383    0.0000 H   0  0  0  0  0  0  0  0  0  0  0  0
  1  2  1  0  0  0  0 
  1  3  1  0  0  0  0 
  1  4  1  0  0  0  0 
  4  5  1  0  0  0  0 
  4  6  1  0  0  0  0 
  4  7  1  0  0  0  0 
  7  8  1  0  0  0  0 
  7  9  1  0  0  0  0 
  7 10  1  0  0  0  0 
 10 11  1  0  0  0  0 
 11 12  1  0  0  0  0 
 11 13  1  0  0  0  0 
 11 14  1  0  0  0  0 
  1 14  1  0  0  0  0 
 14 15  1  0  0  0  0 
 14 16  1  0  0  0  0 
 10 17  1  0  0  0  0 
 17 18  1  0  0  0  0 
 17 19  1  0  0  0  0 
 17 20  1  0  0  0  0 
 20 21  1  0  0  0  0 
 20 22  1  0  0  0  0 
 20 23  1  0  0  0  0 
 23 24  1  0  0  0  0 
 24 25  2  0  0  0  0 
 25 26  1  0  0  0  0 
 25 27  1  0  0  0  0 
 27 28  1  0  0  0  0 
 27 29  2  0  0  0  0 
 29 30  1  0  0  0  0 
 30 31  1  0  0  0  0 
 30 32  2  0  0  0  0 
 24 32  1  0  0  0  0 
 32 33  1  0  0  0  0 
 29 34  1  0  0  0  0 
 34 35  2  0  0  0  0 
 34 36  1  0  0  0  0 
 36 37  2  0  0  0  0 
 37 38  1  0  0  0  0 
 38 39  2  0  0  0  0 
 39 40  1  0  0  0  0 
 39 41  1  0  0  0  0 
 41 42  1  0  0  0  0 
 41 43  2  0  0  0  0 
 43 44  1  0  0  0  0 
 44 45  1  0  0  0  0 
 44 46  2  0  0  0  0 
 38 46  1  0  0  0  0 
 46 47  1  0  0  0  0 
 43 48  1  0  0  0  0 
 48 49  1  0  0  0  0 
 37 50  1  0  0  0  0 
 50 51  1  0  0  0  0 
 51 52  2  0  0  0  0 
 36 52  1  0  0  0  0 
 52 53  1  0  0  0  0 
 53 54  1  0  0  0  0 
 53 55  2  0  0  0  0 
 55 56  1  0  0  0  0 
 55 57  1  0  0  0  0 
 57 58  2  0  0  0  0 
 51 58  1  0  0  0  0 
 58 59  1  0  0  0  0 
 57 60  1  0  0  0  0 
 60 61  1  0  0  0  0 
 61 62  1  0  0  0  0 
 61 63  1  0  0  0  0 
 63 64  1  0  0  0  0 
 63 65  1  0  0  0  0 
 65 66  1  0  0  0  0 
 65 67  1  0  0  0  0 
 67 68  1  0  0  0  0 
 67 69  1  0  0  0  0 
 69 70  1  0  0  0  0 
 69 71  1  0  0  0  0 
 71 72  2  0  0  0  0 
 71 73  1  0  0  0  0 
 73 74  1  0  0  0  0 
 69 75  1  0  0  0  0 
 61 75  1  0  0  0  0 
 67 76  1  0  0  0  0 
 76 77  1  0  0  0  0 
 65 78  1  0  0  0  0 
 78 79  1  0  0  0  0 
 63 80  1  0  0  0  0 
 80 81  1  0  0  0  0 
M  END
> <Rank>
3

> <Priority_score>
0.928

> <Reaction_type>
O-glucuronidation_(aromatic_hydroxyl)

> <Parent_ID>
81

> <Parent_InChI>
InChI=1S/C28H27NO4S/c30-21-8-4-20(5-9-21)28-26(24-13-10-22(31)18-25(24)34-28)27(32)19-6-11-23(12-7-19)33-17-16-29-14-2-1-3-15-29/h4-13,18,30-31H,1-3,14-17H2

> <Parent_SMILES>
O=C(c1ccc(OCCN2CCCCC2)cc1)c1c(-c2ccc(O)cc2)sc2cc(O)ccc12

$$$$
Molecule 81_metabolite 4
  CDK     0516241031

 65 69  0  0  0  0  0  0  0  0999 V2000
   -4.0246  -12.0382    0.0000 C   0  0  0  0  0  0  0  0  0  0  0  0
   -3.1154  -13.2312    0.0000 H   0  0  0  0  0  0  0  0  0  0  0  0
   -5.0414  -13.1409    0.0000 H   0  0  0  0  0  0  0  0  0  0  0  0
   -5.2881  -11.2281    0.0000 C   0  0  0  0  0  0  0  0  0  0  0  0
   -5.8662  -12.6122    0.0000 H   0  0  0  0  0  0  0  0  0  0  0  0
   -6.7515  -10.8989    0.0000 H   0  0  0  0  0  0  0  0  0  0  0  0
   -5.2178   -9.7298    0.0000 C   0  0  0  0  0  0  0  0  0  0  0  0
   -6.7056   -9.9206    0.0000 H   0  0  0  0  0  0  0  0  0  0  0  0
   -5.6640   -8.2977    0.0000 H   0  0  0  0  0  0  0  0  0  0  0  0
   -3.8841   -9.0415    0.0000 N   0  0  0  0  0  0  0  0  0  0  0  0
   -2.6207   -9.8515    0.0000 C   0  0  0  0  0  0  0  0  0  0  0  0
   -2.0425   -8.4674    0.0000 H   0  0  0  0  0  0  0  0  0  0  0  0
   -1.1572  -10.1807    0.0000 H   0  0  0  0  0  0  0  0  0  0  0  0
   -2.6909  -11.3499    0.0000 C   0  0  0  0  0  0  0  0  0  0  0  0
   -1.2031  -11.1590    0.0000 H   0  0  0  0  0  0  0  0  0  0  0  0
   -2.2448  -12.7820    0.0000 H   0  0  0  0  0  0  0  0  0  0  0  0
   -3.7914   -7.0636    0.0000 C   0  0  0  0  0  0  0  0  0  0  0  0
   -5.2792   -7.2547    0.0000 H   0  0  0  0  0  0  0  0  0  0  0  0
   -4.2378   -5.6316    0.0000 H   0  0  0  0  0  0  0  0  0  0  0  0
   -2.4586   -6.3753    0.0000 C   0  0  0  0  0  0  0  0  0  0  0  0
   -1.4417   -5.2727    0.0000 H   0  0  0  0  0  0  0  0  0  0  0  0
   -3.3680   -5.1823    0.0000 H   0  0  0  0  0  0  0  0  0  0  0  0
   -1.1962   -7.1853    0.0000 O   0  0  0  0  0  0  0  0  0  0  0  0
    0.1366   -6.4970    0.0000 C   0  0  0  0  0  0  0  0  0  0  0  0
    1.4432   -7.3202    0.0000 C   0  0  0  0  0  0  0  0  0  0  0  0
    1.3804   -8.8189    0.0000 H   0  0  0  0  0  0  0  0  0  0  0  0
    2.7526   -6.6413    0.0000 C   0  0  0  0  0  0  0  0  0  0  0  0
    4.0124   -7.4555    0.0000 H   0  0  0  0  0  0  0  0  0  0  0  0
    2.8352   -5.1436    0.0000 C   0  0  0  0  0  0  0  0  0  0  0  0
    1.6084   -4.3247    0.0000 C   0  0  0  0  0  0  0  0  0  0  0  0
    1.7108   -2.8282    0.0000 H   0  0  0  0  0  0  0  0  0  0  0  0
    0.2192   -4.9993    0.0000 C   0  0  0  0  0  0  0  0  0  0  0  0
   -1.0298   -4.1685    0.0000 H   0  0  0  0  0  0  0  0  0  0  0  0
    4.1769   -4.4728    0.0000 C   0  0  0  0  0  0  0  0  0  0  0  0
    3.7494   -3.0351    0.0000 O   0  0  0  0  0  0  0  0  0  0  0  0
    6.5695   -5.0446    0.0000 C   0  0  0  0  0  0  0  0  0  0  0  0
    7.7045   -4.0697    0.0000 C   0  0  0  0  0  0  0  0  0  0  0  0
    7.5834   -2.5746    0.0000 C   0  0  0  0  0  0  0  0  0  0  0  0
    8.8218   -1.7283    0.0000 C   0  0  0  0  0  0  0  0  0  0  0  0
   10.1708   -2.3842    0.0000 H   0  0  0  0  0  0  0  0  0  0  0  0
    8.7245   -0.2566    0.0000 C   0  0  0  0  0  0  0  0  0  0  0  0
    9.9739    0.5734    0.0000 H   0  0  0  0  0  0  0  0  0  0  0  0
    7.3435    0.4348    0.0000 C   0  0  0  0  0  0  0  0  0  0  0  0
    6.1051   -0.4115    0.0000 C   0  0  0  0  0  0  0  0  0  0  0  0
    4.7476    0.2266    0.0000 H   0  0  0  0  0  0  0  0  0  0  0  0
    6.2476   -1.9493    0.0000 C   0  0  0  0  0  0  0  0  0  0  0  0
    5.0205   -2.8119    0.0000 H   0  0  0  0  0  0  0  0  0  0  0  0
    7.2421    1.9314    0.0000 O   0  0  0  0  0  0  0  0  0  0  0  0
    8.4875    2.7675    0.0000 H   0  0  0  0  0  0  0  0  0  0  0  0
    8.9816   -4.8492    0.0000 S   0  0  0  0  0  0  0  0  0  0  0  0
    8.6386   -6.3116    0.0000 C   0  0  0  0  0  0  0  0  0  0  0  0
    7.1435   -6.4327    0.0000 C   0  0  0  0  0  0  0  0  0  0  0  0
    6.5009   -7.7891    0.0000 C   0  0  0  0  0  0  0  0  0  0  0  0
    5.0058   -7.9102    0.0000 H   0  0  0  0  0  0  0  0  0  0  0  0
    7.3534   -9.0243    0.0000 C   0  0  0  0  0  0  0  0  0  0  0  0
    6.7106  -10.3795    0.0000 H   0  0  0  0  0  0  0  0  0  0  0  0
    8.8485   -8.9031    0.0000 C   0  0  0  0  0  0  0  0  0  0  0  0
    9.4911   -7.5468    0.0000 C   0  0  0  0  0  0  0  0  0  0  0  0
   10.9862   -7.4257    0.0000 H   0  0  0  0  0  0  0  0  0  0  0  0
    9.7012  -10.1372    0.0000 O   0  0  0  0  0  0  0  0  0  0  0  0
    9.0587  -11.4927    0.0000 S   0  0  0  0  0  0  0  0  0  0  0  0
    7.9914  -12.5467    0.0000 O   0  0  0  0  0  0  0  0  0  0  0  0
    7.8354  -10.6246    0.0000 O   0  0  0  0  0  0  0  0  0  0  0  0
    9.9114  -12.7268    0.0000 O   0  0  0  0  0  0  0  0  0  0  0  0
    9.2689  -14.0823    0.0000 H   0  0  0  0  0  0  0  0  0  0  0  0
  1  2  1  0  0  0  0 
  1  3  1  0  0  0  0 
  1  4  1  0  0  0  0 
  4  5  1  0  0  0  0 
  4  6  1  0  0  0  0 
  4  7  1  0  0  0  0 
  7  8  1  0  0  0  0 
  7  9  1  0  0  0  0 
  7 10  1  0  0  0  0 
 10 11  1  0  0  0  0 
 11 12  1  0  0  0  0 
 11 13  1  0  0  0  0 
 11 14  1  0  0  0  0 
  1 14  1  0  0  0  0 
 14 15  1  0  0  0  0 
 14 16  1  0  0  0  0 
 10 17  1  0  0  0  0 
 17 18  1  0  0  0  0 
 17 19  1  0  0  0  0 
 17 20  1  0  0  0  0 
 20 21  1  0  0  0  0 
 20 22  1  0  0  0  0 
 20 23  1  0  0  0  0 
 23 24  1  0  0  0  0 
 24 25  2  0  0  0  0 
 25 26  1  0  0  0  0 
 25 27  1  0  0  0  0 
 27 28  1  0  0  0  0 
 27 29  2  0  0  0  0 
 29 30  1  0  0  0  0 
 30 31  1  0  0  0  0 
 30 32  2  0  0  0  0 
 24 32  1  0  0  0  0 
 32 33  1  0  0  0  0 
 29 34  1  0  0  0  0 
 34 35  2  0  0  0  0 
 34 36  1  0  0  0  0 
 36 37  2  0  0  0  0 
 37 38  1  0  0  0  0 
 38 39  2  0  0  0  0 
 39 40  1  0  0  0  0 
 39 41  1  0  0  0  0 
 41 42  1  0  0  0  0 
 41 43  2  0  0  0  0 
 43 44  1  0  0  0  0 
 44 45  1  0  0  0  0 
 44 46  2  0  0  0  0 
 38 46  1  0  0  0  0 
 46 47  1  0  0  0  0 
 43 48  1  0  0  0  0 
 48 49  1  0  0  0  0 
 37 50  1  0  0  0  0 
 50 51  1  0  0  0  0 
 51 52  2  0  0  0  0 
 36 52  1  0  0  0  0 
 52 53  1  0  0  0  0 
 53 54  1  0  0  0  0 
 53 55  2  0  0  0  0 
 55 56  1  0  0  0  0 
 55 57  1  0  0  0  0 
 57 58  2  0  0  0  0 
 51 58  1  0  0  0  0 
 58 59  1  0  0  0  0 
 57 60  1  0  0  0  0 
 60 61  1  0  0  0  0 
 61 62  2  0  0  0  0 
 61 63  2  0  0  0  0 
 61 64  1  0  0  0  0 
 64 65  1  0  0  0  0 
M  END
> <Rank>
4

> <Priority_score>
0.896

> <Reaction_type>
sulfation_(aromatic_hydroxyl)

> <Parent_ID>
81

> <Parent_InChI>
InChI=1S/C28H27NO4S/c30-21-8-4-20(5-9-21)28-26(24-13-10-22(31)18-25(24)34-28)27(32)19-6-11-23(12-7-19)33-17-16-29-14-2-1-3-15-29/h4-13,18,30-31H,1-3,14-17H2

> <Parent_SMILES>
O=C(c1ccc(OCCN2CCCCC2)cc1)c1c(-c2ccc(O)cc2)sc2cc(O)ccc12

$$$$
Molecule 81_metabolite 5
  CDK     0516241031

 62 66  0  0  0  0  0  0  0  0999 V2000
   -3.3710  -14.4236    0.0000 C   0  0  0  0  0  0  0  0  0  0  0  0
   -2.9246  -15.8556    0.0000 H   0  0  0  0  0  0  0  0  0  0  0  0
   -4.7036  -15.1122    0.0000 H   0  0  0  0  0  0  0  0  0  0  0  0
   -4.2813  -13.2304    0.0000 C   0  0  0  0  0  0  0  0  0  0  0  0
   -5.2979  -14.3334    0.0000 H   0  0  0  0  0  0  0  0  0  0  0  0
   -5.5440  -12.4206    0.0000 H   0  0  0  0  0  0  0  0  0  0  0  0
   -3.7030  -11.8464    0.0000 C   0  0  0  0  0  0  0  0  0  0  0  0
   -5.1664  -11.5170    0.0000 H   0  0  0  0  0  0  0  0  0  0  0  0
   -3.6326  -10.3480    0.0000 H   0  0  0  0  0  0  0  0  0  0  0  0
   -2.2143  -11.6556    0.0000 N   0  0  0  0  0  0  0  0  0  0  0  0
   -1.3040  -12.8488    0.0000 C   0  0  0  0  0  0  0  0  0  0  0  0
   -0.2874  -11.7458    0.0000 H   0  0  0  0  0  0  0  0  0  0  0  0
   -0.0414  -13.6585    0.0000 H   0  0  0  0  0  0  0  0  0  0  0  0
   -1.8824  -14.2328    0.0000 C   0  0  0  0  0  0  0  0  0  0  0  0
   -0.4190  -14.5622    0.0000 H   0  0  0  0  0  0  0  0  0  0  0  0
   -1.9528  -15.7312    0.0000 H   0  0  0  0  0  0  0  0  0  0  0  0
   -2.8037   -9.7653    0.0000 C   0  0  0  0  0  0  0  0  0  0  0  0
   -4.5629  -10.6739    0.0000 H   0  0  0  0  0  0  0  0  0  0  0  0
   -3.7130   -8.5723    0.0000 H   0  0  0  0  0  0  0  0  0  0  0  0
   -1.4613   -8.3098    0.0000 C   0  0  0  0  0  0  0  0  0  0  0  0
   -0.1286   -7.6215    0.0000 H   0  0  0  0  0  0  0  0  0  0  0  0
   -0.5520   -9.5028    0.0000 H   0  0  0  0  0  0  0  0  0  0  0  0
   -1.9078   -6.8778    0.0000 O   0  0  0  0  0  0  0  0  0  0  0  0
   -0.8908   -5.7751    0.0000 C   0  0  0  0  0  0  0  0  0  0  0  0
   -1.3383   -4.2970    0.0000 C   0  0  0  0  0  0  0  0  0  0  0  0
   -2.8000   -3.9605    0.0000 H   0  0  0  0  0  0  0  0  0  0  0  0
   -0.3366   -3.2144    0.0000 C   0  0  0  0  0  0  0  0  0  0  0  0
   -0.7878   -1.7839    0.0000 H   0  0  0  0  0  0  0  0  0  0  0  0
    1.1294   -3.5317    0.0000 C   0  0  0  0  0  0  0  0  0  0  0  0
    1.5938   -4.9316    0.0000 C   0  0  0  0  0  0  0  0  0  0  0  0
    3.0639   -5.2295    0.0000 H   0  0  0  0  0  0  0  0  0  0  0  0
    0.5752   -6.0924    0.0000 C   0  0  0  0  0  0  0  0  0  0  0  0
    1.0453   -7.5169    0.0000 H   0  0  0  0  0  0  0  0  0  0  0  0
    2.1318   -2.4157    0.0000 C   0  0  0  0  0  0  0  0  0  0  0  0
    3.5994   -2.7258    0.0000 O   0  0  0  0  0  0  0  0  0  0  0  0
    1.2198    0.3792    0.0000 C   0  0  0  0  0  0  0  0  0  0  0  0
    2.0998    1.5892    0.0000 C   0  0  0  0  0  0  0  0  0  0  0  0
    4.0798    1.5892    0.0000 C   0  0  0  0  0  0  0  0  0  0  0  0
    4.8234    2.8920    0.0000 C   0  0  0  0  0  0  0  0  0  0  0  0
    4.0607    4.1835    0.0000 H   0  0  0  0  0  0  0  0  0  0  0  0
    6.2982    2.9137    0.0000 C   0  0  0  0  0  0  0  0  0  0  0  0
    7.0245    4.2261    0.0000 H   0  0  0  0  0  0  0  0  0  0  0  0
    7.0988    1.5931    0.0000 C   0  0  0  0  0  0  0  0  0  0  0  0
    6.3552    0.2904    0.0000 C   0  0  0  0  0  0  0  0  0  0  0  0
    7.1009   -1.0111    0.0000 H   0  0  0  0  0  0  0  0  0  0  0  0
    4.8110    0.3083    0.0000 C   0  0  0  0  0  0  0  0  0  0  0  0
    4.0503   -0.9845    0.0000 H   0  0  0  0  0  0  0  0  0  0  0  0
    8.5987    1.6129    0.0000 O   0  0  0  0  0  0  0  0  0  0  0  0
    9.3315    2.9217    0.0000 H   0  0  0  0  0  0  0  0  0  0  0  0
    1.2198    2.7992    0.0000 S   0  0  0  0  0  0  0  0  0  0  0  0
   -0.2102    2.3392    0.0000 C   0  0  0  0  0  0  0  0  0  0  0  0
   -0.2102    0.8392    0.0000 C   0  0  0  0  0  0  0  0  0  0  0  0
   -1.5102    0.0892    0.0000 C   0  0  0  0  0  0  0  0  0  0  0  0
   -1.5102   -1.4108    0.0000 H   0  0  0  0  0  0  0  0  0  0  0  0
   -2.8102    0.8392    0.0000 C   0  0  0  0  0  0  0  0  0  0  0  0
   -4.1091    0.0890    0.0000 H   0  0  0  0  0  0  0  0  0  0  0  0
   -2.8102    2.3392    0.0000 C   0  0  0  0  0  0  0  0  0  0  0  0
   -1.5102    3.0892    0.0000 C   0  0  0  0  0  0  0  0  0  0  0  0
   -1.5102    4.5892    0.0000 H   0  0  0  0  0  0  0  0  0  0  0  0
   -4.1091    3.0895    0.0000 O   0  0  0  0  0  0  0  0  0  0  0  0
   -5.4083    2.3397    0.0000 H   0  0  0  0  0  0  0  0  0  0  0  0
   -0.8818  -10.9669    0.0000 O   0  0  0  0  0  0  0  0  0  0  0  0
  1  2  1  0  0  0  0 
  1  3  1  0  0  0  0 
  1  4  1  0  0  0  0 
  4  5  1  0  0  0  0 
  4  6  1  0  0  0  0 
  4  7  1  0  0  0  0 
  7  8  1  0  0  0  0 
  7  9  1  0  0  0  0 
  7 10  1  0  0  0  0 
 10 11  1  0  0  0  0 
 11 12  1  0  0  0  0 
 11 13  1  0  0  0  0 
 11 14  1  0  0  0  0 
  1 14  1  0  0  0  0 
 14 15  1  0  0  0  0 
 14 16  1  0  0  0  0 
 10 17  1  0  0  0  0 
 17 18  1  0  0  0  0 
 17 19  1  0  0  0  0 
 17 20  1  0  0  0  0 
 20 21  1  0  0  0  0 
 20 22  1  0  0  0  0 
 20 23  1  0  0  0  0 
 23 24  1  0  0  0  0 
 24 25  2  0  0  0  0 
 25 26  1  0  0  0  0 
 25 27  1  0  0  0  0 
 27 28  1  0  0  0  0 
 27 29  2  0  0  0  0 
 29 30  1  0  0  0  0 
 30 31  1  0  0  0  0 
 30 32  2  0  0  0  0 
 24 32  1  0  0  0  0 
 32 33  1  0  0  0  0 
 29 34  1  0  0  0  0 
 34 35  2  0  0  0  0 
 34 36  1  0  0  0  0 
 36 37  2  0  0  0  0 
 37 38  1  0  0  0  0 
 38 39  2  0  0  0  0 
 39 40  1  0  0  0  0 
 39 41  1  0  0  0  0 
 41 42  1  0  0  0  0 
 41 43  2  0  0  0  0 
 43 44  1  0  0  0  0 
 44 45  1  0  0  0  0 
 44 46  2  0  0  0  0 
 38 46  1  0  0  0  0 
 46 47  1  0  0  0  0 
 43 48  1  0  0  0  0 
 48 49  1  0  0  0  0 
 37 50  1  0  0  0  0 
 50 51  1  0  0  0  0 
 51 52  2  0  0  0  0 
 36 52  1  0  0  0  0 
 52 53  1  0  0  0  0 
 53 54  1  0  0  0  0 
 53 55  2  0  0  0  0 
 55 56  1  0  0  0  0 
 55 57  1  0  0  0  0 
 57 58  2  0  0  0  0 
 51 58  1  0  0  0  0 
 58 59  1  0  0  0  0 
 57 60  1  0  0  0  0 
 60 61  1  0  0  0  0 
 10 62  1  0  0  0  0 
M  CHG  1  10   1
M  CHG  1  62  -1
M  END
> <Rank>
5

> <Priority_score>
0.768

> <Reaction_type>
N-oxidation_(tertiary_N)

> <Parent_ID>
81

> <Parent_InChI>
InChI=1S/C28H27NO4S/c30-21-8-4-20(5-9-21)28-26(24-13-10-22(31)18-25(24)34-28)27(32)19-6-11-23(12-7-19)33-17-16-29-14-2-1-3-15-29/h4-13,18,30-31H,1-3,14-17H2

> <Parent_SMILES>
O=C(c1ccc(OCCN2CCCCC2)cc1)c1c(-c2ccc(O)cc2)sc2cc(O)ccc12

$$$$
Molecule 81_metabolite 6
  CDK     0516241031

 62 66  0  0  0  0  0  0  0  0999 V2000
    0.4664  -14.6847    0.0000 C   0  0  0  0  0  0  0  0  0  0  0  0
    1.7288  -15.4948    0.0000 H   0  0  0  0  0  0  0  0  0  0  0  0
   -0.1119  -16.0687    0.0000 H   0  0  0  0  0  0  0  0  0  0  0  0
   -0.9979  -14.3556    0.0000 C   0  0  0  0  0  0  0  0  0  0  0  0
   -1.0678  -15.8540    0.0000 H   0  0  0  0  0  0  0  0  0  0  0  0
   -2.4857  -14.5468    0.0000 H   0  0  0  0  0  0  0  0  0  0  0  0
   -1.4444  -12.9236    0.0000 C   0  0  0  0  0  0  0  0  0  0  0  0
   -2.7772  -13.6118    0.0000 H   0  0  0  0  0  0  0  0  0  0  0  0
   -2.3534  -11.7304    0.0000 H   0  0  0  0  0  0  0  0  0  0  0  0
   -0.4265  -11.8206    0.0000 N   0  0  0  0  0  0  0  0  0  0  0  0
   -1.0158   -9.9304    0.0000 C   0  0  0  0  0  0  0  0  0  0  0  0
    0.4720   -9.7394    0.0000 H   0  0  0  0  0  0  0  0  0  0  0  0
   -0.9456   -8.4320    0.0000 H   0  0  0  0  0  0  0  0  0  0  0  0
   -2.4792   -9.6010    0.0000 C   0  0  0  0  0  0  0  0  0  0  0  0
   -3.7417   -8.7910    0.0000 H   0  0  0  0  0  0  0  0  0  0  0  0
   -1.9007   -8.2170    0.0000 H   0  0  0  0  0  0  0  0  0  0  0  0
   -3.4962  -10.7037    0.0000 O   0  0  0  0  0  0  0  0  0  0  0  0
   -4.9595  -10.3743    0.0000 C   0  0  0  0  0  0  0  0  0  0  0  0
   -6.0159  -11.5009    0.0000 C   0  0  0  0  0  0  0  0  0  0  0  0
   -5.5765  -12.9351    0.0000 H   0  0  0  0  0  0  0  0  0  0  0  0
   -7.4543  -11.1747    0.0000 C   0  0  0  0  0  0  0  0  0  0  0  0
   -8.4675  -12.2807    0.0000 H   0  0  0  0  0  0  0  0  0  0  0  0
   -7.9125   -9.7464    0.0000 C   0  0  0  0  0  0  0  0  0  0  0  0
   -6.9324   -8.6443    0.0000 C   0  0  0  0  0  0  0  0  0  0  0  0
   -7.4094   -7.2222    0.0000 H   0  0  0  0  0  0  0  0  0  0  0  0
   -5.4178   -8.9460    0.0000 C   0  0  0  0  0  0  0  0  0  0  0  0
   -4.4192   -7.8267    0.0000 H   0  0  0  0  0  0  0  0  0  0  0  0
  -10.7890   -9.1387    0.0000 C   0  0  0  0  0  0  0  0  0  0  0  0
  -11.2543   -7.7127    0.0000 O   0  0  0  0  0  0  0  0  0  0  0  0
  -12.1121  -10.6117    0.0000 C   0  0  0  0  0  0  0  0  0  0  0  0
  -13.6000  -10.4546    0.0000 C   0  0  0  0  0  0  0  0  0  0  0  0
  -14.3500   -9.1556    0.0000 C   0  0  0  0  0  0  0  0  0  0  0  0
  -15.8500   -9.1630    0.0000 C   0  0  0  0  0  0  0  0  0  0  0  0
  -16.5872  -10.4693    0.0000 H   0  0  0  0  0  0  0  0  0  0  0  0
  -16.6062   -7.8967    0.0000 C   0  0  0  0  0  0  0  0  0  0  0  0
  -18.1060   -7.9238    0.0000 H   0  0  0  0  0  0  0  0  0  0  0  0
  -15.8629   -6.5430    0.0000 C   0  0  0  0  0  0  0  0  0  0  0  0
  -14.3629   -6.5356    0.0000 C   0  0  0  0  0  0  0  0  0  0  0  0
  -13.6086   -5.2391    0.0000 H   0  0  0  0  0  0  0  0  0  0  0  0
  -13.6063   -7.8819    0.0000 C   0  0  0  0  0  0  0  0  0  0  0  0
  -12.1063   -7.8943    0.0000 H   0  0  0  0  0  0  0  0  0  0  0  0
  -16.6299   -5.2540    0.0000 O   0  0  0  0  0  0  0  0  0  0  0  0
  -18.1298   -5.2737    0.0000 H   0  0  0  0  0  0  0  0  0  0  0  0
  -14.2079  -11.8217    0.0000 S   0  0  0  0  0  0  0  0  0  0  0  0
  -13.0945  -12.8302    0.0000 C   0  0  0  0  0  0  0  0  0  0  0  0
  -11.7955  -12.0802    0.0000 C   0  0  0  0  0  0  0  0  0  0  0  0
  -10.4960  -12.8310    0.0000 C   0  0  0  0  0  0  0  0  0  0  0  0
   -9.1969  -12.0810    0.0000 H   0  0  0  0  0  0  0  0  0  0  0  0
  -10.4955  -14.3318    0.0000 C   0  0  0  0  0  0  0  0  0  0  0  0
   -9.1963  -15.0816    0.0000 H   0  0  0  0  0  0  0  0  0  0  0  0
  -11.7945  -15.0818    0.0000 C   0  0  0  0  0  0  0  0  0  0  0  0
  -13.0940  -14.3310    0.0000 C   0  0  0  0  0  0  0  0  0  0  0  0
  -14.3931  -15.0810    0.0000 H   0  0  0  0  0  0  0  0  0  0  0  0
  -11.7948  -16.5818    0.0000 O   0  0  0  0  0  0  0  0  0  0  0  0
  -10.4958  -17.3320    0.0000 H   0  0  0  0  0  0  0  0  0  0  0  0
    1.0378  -12.1497    0.0000 C   0  0  0  0  0  0  0  0  0  0  0  0
    1.1077  -10.6514    0.0000 H   0  0  0  0  0  0  0  0  0  0  0  0
    1.4843  -13.5817    0.0000 C   0  0  0  0  0  0  0  0  0  0  0  0
    2.8171  -12.8935    0.0000 H   0  0  0  0  0  0  0  0  0  0  0  0
    2.3933  -14.7749    0.0000 H   0  0  0  0  0  0  0  0  0  0  0  0
    2.5256  -11.9586    0.0000 O   0  0  0  0  0  0  0  0  0  0  0  0
    3.1039  -10.5745    0.0000 H   0  0  0  0  0  0  0  0  0  0  0  0
  1  2  1  0  0  0  0 
  1  3  1  0  0  0  0 
  1  4  1  0  0  0  0 
  4  5  1  0  0  0  0 
  4  6  1  0  0  0  0 
  4  7  1  0  0  0  0 
  7  8  1  0  0  0  0 
  7  9  1  0  0  0  0 
  7 10  1  0  0  0  0 
 10 11  1  0  0  0  0 
 11 12  1  0  0  0  0 
 11 13  1  0  0  0  0 
 11 14  1  0  0  0  0 
 14 15  1  0  0  0  0 
 14 16  1  0  0  0  0 
 14 17  1  0  0  0  0 
 17 18  1  0  0  0  0 
 18 19  2  0  0  0  0 
 19 20  1  0  0  0  0 
 19 21  1  0  0  0  0 
 21 22  1  0  0  0  0 
 21 23  2  0  0  0  0 
 23 24  1  0  0  0  0 
 24 25  1  0  0  0  0 
 24 26  2  0  0  0  0 
 18 26  1  0  0  0  0 
 26 27  1  0  0  0  0 
 23 28  1  0  0  0  0 
 28 29  2  0  0  0  0 
 28 30  1  0  0  0  0 
 30 31  2  0  0  0  0 
 31 32  1  0  0  0  0 
 32 33  2  0  0  0  0 
 33 34  1  0  0  0  0 
 33 35  1  0  0  0  0 
 35 36  1  0  0  0  0 
 35 37  2  0  0  0  0 
 37 38  1  0  0  0  0 
 38 39  1  0  0  0  0 
 38 40  2  0  0  0  0 
 32 40  1  0  0  0  0 
 40 41  1  0  0  0  0 
 37 42  1  0  0  0  0 
 42 43  1  0  0  0  0 
 31 44  1  0  0  0  0 
 44 45  1  0  0  0  0 
 45 46  2  0  0  0  0 
 30 46  1  0  0  0  0 
 46 47  1  0  0  0  0 
 47 48  1  0  0  0  0 
 47 49  2  0  0  0  0 
 49 50  1  0  0  0  0 
 49 51  1  0  0  0  0 
 51 52  2  0  0  0  0 
 45 52  1  0  0  0  0 
 52 53  1  0  0  0  0 
 51 54  1  0  0  0  0 
 54 55  1  0  0  0  0 
 10 56  1  0  0  0  0 
 56 57  1  0  0  0  0 
 56 58  1  0  0  0  0 
  1 58  1  0  0  0  0 
 58 59  1  0  0  0  0 
 58 60  1  0  0  0  0 
 56 61  1  0  0  0  0 
 61 62  1  0  0  0  0 
M  END
> <Rank>
5

> <Priority_score>
0.768

> <Reaction_type>
aliphatic_hydroxylation_(sec_carbon_next_to_SP2,in_a_ring)

> <Parent_ID>
81

> <Parent_InChI>
InChI=1S/C28H27NO4S/c30-21-8-4-20(5-9-21)28-26(24-13-10-22(31)18-25(24)34-28)27(32)19-6-11-23(12-7-19)33-17-16-29-14-2-1-3-15-29/h4-13,18,30-31H,1-3,14-17H2

> <Parent_SMILES>
O=C(c1ccc(OCCN2CCCCC2)cc1)c1c(-c2ccc(O)cc2)sc2cc(O)ccc12

$$$$
Molecule 81_metabolite 7
  CDK     0516241031

 62 65  0  0  0  0  0  0  0  0999 V2000
   -4.5140  -14.5967    0.0000 C   0  0  0  0  0  0  0  0  0  0  0  0
   -5.8467  -15.2850    0.0000 H   0  0  0  0  0  0  0  0  0  0  0  0
   -5.4233  -13.4037    0.0000 H   0  0  0  0  0  0  0  0  0  0  0  0
   -3.1716  -13.1412    0.0000 C   0  0  0  0  0  0  0  0  0  0  0  0
   -1.8389  -12.4528    0.0000 H   0  0  0  0  0  0  0  0  0  0  0  0
   -2.2623  -14.3341    0.0000 H   0  0  0  0  0  0  0  0  0  0  0  0
   -3.6181  -11.7091    0.0000 C   0  0  0  0  0  0  0  0  0  0  0  0
   -4.9508  -12.3975    0.0000 H   0  0  0  0  0  0  0  0  0  0  0  0
   -4.5274  -10.5162    0.0000 H   0  0  0  0  0  0  0  0  0  0  0  0
   -2.2757  -10.2536    0.0000 N   0  0  0  0  0  0  0  0  0  0  0  0
   -0.8123  -10.5830    0.0000 H   0  0  0  0  0  0  0  0  0  0  0  0
   -2.7222   -8.8216    0.0000 C   0  0  0  0  0  0  0  0  0  0  0  0
   -4.0549   -9.5100    0.0000 H   0  0  0  0  0  0  0  0  0  0  0  0
   -3.6315   -7.6287    0.0000 H   0  0  0  0  0  0  0  0  0  0  0  0
   -1.7052   -7.7190    0.0000 C   0  0  0  0  0  0  0  0  0  0  0  0
   -0.3725   -7.0306    0.0000 H   0  0  0  0  0  0  0  0  0  0  0  0
   -0.7959   -8.9119    0.0000 H   0  0  0  0  0  0  0  0  0  0  0  0
   -2.1517   -6.2870    0.0000 O   0  0  0  0  0  0  0  0  0  0  0  0
   -1.1347   -5.1843    0.0000 C   0  0  0  0  0  0  0  0  0  0  0  0
   -1.5822   -3.7062    0.0000 C   0  0  0  0  0  0  0  0  0  0  0  0
   -3.0440   -3.3696    0.0000 H   0  0  0  0  0  0  0  0  0  0  0  0
   -0.5806   -2.6236    0.0000 C   0  0  0  0  0  0  0  0  0  0  0  0
   -1.0318   -1.1931    0.0000 H   0  0  0  0  0  0  0  0  0  0  0  0
    0.8855   -2.9409    0.0000 C   0  0  0  0  0  0  0  0  0  0  0  0
    1.3499   -4.3408    0.0000 C   0  0  0  0  0  0  0  0  0  0  0  0
    2.8200   -4.6387    0.0000 H   0  0  0  0  0  0  0  0  0  0  0  0
    0.3313   -5.5016    0.0000 C   0  0  0  0  0  0  0  0  0  0  0  0
    0.8013   -6.9260    0.0000 H   0  0  0  0  0  0  0  0  0  0  0  0
    1.8878   -1.8249    0.0000 C   0  0  0  0  0  0  0  0  0  0  0  0
    3.3554   -2.1350    0.0000 O   0  0  0  0  0  0  0  0  0  0  0  0
    0.9759    0.9701    0.0000 C   0  0  0  0  0  0  0  0  0  0  0  0
    1.8559    2.1801    0.0000 C   0  0  0  0  0  0  0  0  0  0  0  0
    3.8359    2.1801    0.0000 C   0  0  0  0  0  0  0  0  0  0  0  0
    4.5795    3.4828    0.0000 C   0  0  0  0  0  0  0  0  0  0  0  0
    3.8167    4.7744    0.0000 H   0  0  0  0  0  0  0  0  0  0  0  0
    6.0542    3.5046    0.0000 C   0  0  0  0  0  0  0  0  0  0  0  0
    6.7806    4.8170    0.0000 H   0  0  0  0  0  0  0  0  0  0  0  0
    6.8549    2.1840    0.0000 C   0  0  0  0  0  0  0  0  0  0  0  0
    6.1113    0.8813    0.0000 C   0  0  0  0  0  0  0  0  0  0  0  0
    6.8570   -0.4203    0.0000 H   0  0  0  0  0  0  0  0  0  0  0  0
    4.5671    0.8991    0.0000 C   0  0  0  0  0  0  0  0  0  0  0  0
    3.8064   -0.3937    0.0000 H   0  0  0  0  0  0  0  0  0  0  0  0
    8.3548    2.2037    0.0000 O   0  0  0  0  0  0  0  0  0  0  0  0
    9.0876    3.5125    0.0000 H   0  0  0  0  0  0  0  0  0  0  0  0
    0.9759    3.3901    0.0000 S   0  0  0  0  0  0  0  0  0  0  0  0
   -0.4541    2.9301    0.0000 C   0  0  0  0  0  0  0  0  0  0  0  0
   -0.4541    1.4301    0.0000 C   0  0  0  0  0  0  0  0  0  0  0  0
   -1.7541    0.6801    0.0000 C   0  0  0  0  0  0  0  0  0  0  0  0
   -1.7541   -0.8199    0.0000 H   0  0  0  0  0  0  0  0  0  0  0  0
   -3.0541    1.4301    0.0000 C   0  0  0  0  0  0  0  0  0  0  0  0
   -4.3530    0.6799    0.0000 H   0  0  0  0  0  0  0  0  0  0  0  0
   -3.0541    2.9301    0.0000 C   0  0  0  0  0  0  0  0  0  0  0  0
   -1.7541    3.6801    0.0000 C   0  0  0  0  0  0  0  0  0  0  0  0
   -1.7541    5.1801    0.0000 H   0  0  0  0  0  0  0  0  0  0  0  0
   -4.3530    3.6803    0.0000 O   0  0  0  0  0  0  0  0  0  0  0  0
   -5.6522    2.9305    0.0000 H   0  0  0  0  0  0  0  0  0  0  0  0
   -3.9247  -16.4869    0.0000 C   0  0  0  0  0  0  0  0  0  0  0  0
   -2.5919  -15.7986    0.0000 H   0  0  0  0  0  0  0  0  0  0  0  0
   -3.0153  -17.6799    0.0000 H   0  0  0  0  0  0  0  0  0  0  0  0
   -4.9416  -17.5896    0.0000 C   0  0  0  0  0  0  0  0  0  0  0  0
   -4.4951  -19.0216    0.0000 H   0  0  0  0  0  0  0  0  0  0  0  0
   -6.4050  -17.2602    0.0000 O   0  0  0  0  0  0  0  0  0  0  0  0
  1  2  1  0  0  0  0 
  1  3  1  0  0  0  0 
  1  4  1  0  0  0  0 
  4  5  1  0  0  0  0 
  4  6  1  0  0  0  0 
  4  7  1  0  0  0  0 
  7  8  1  0  0  0  0 
  7  9  1  0  0  0  0 
  7 10  1  0  0  0  0 
 10 11  1  0  0  0  0 
 10 12  1  0  0  0  0 
 12 13  1  0  0  0  0 
 12 14  1  0  0  0  0 
 12 15  1  0  0  0  0 
 15 16  1  0  0  0  0 
 15 17  1  0  0  0  0 
 15 18  1  0  0  0  0 
 18 19  1  0  0  0  0 
 19 20  2  0  0  0  0 
 20 21  1  0  0  0  0 
 20 22  1  0  0  0  0 
 22 23  1  0  0  0  0 
 22 24  2  0  0  0  0 
 24 25  1  0  0  0  0 
 25 26  1  0  0  0  0 
 25 27  2  0  0  0  0 
 19 27  1  0  0  0  0 
 27 28  1  0  0  0  0 
 24 29  1  0  0  0  0 
 29 30  2  0  0  0  0 
 29 31  1  0  0  0  0 
 31 32  2  0  0  0  0 
 32 33  1  0  0  0  0 
 33 34  2  0  0  0  0 
 34 35  1  0  0  0  0 
 34 36  1  0  0  0  0 
 36 37  1  0  0  0  0 
 36 38  2  0  0  0  0 
 38 39  1  0  0  0  0 
 39 40  1  0  0  0  0 
 39 41  2  0  0  0  0 
 33 41  1  0  0  0  0 
 41 42  1  0  0  0  0 
 38 43  1  0  0  0  0 
 43 44  1  0  0  0  0 
 32 45  1  0  0  0  0 
 45 46  1  0  0  0  0 
 46 47  2  0  0  0  0 
 31 47  1  0  0  0  0 
 47 48  1  0  0  0  0 
 48 49  1  0  0  0  0 
 48 50  2  0  0  0  0 
 50 51  1  0  0  0  0 
 50 52  1  0  0  0  0 
 52 53  2  0  0  0  0 
 46 53  1  0  0  0  0 
 53 54  1  0  0  0  0 
 52 55  1  0  0  0  0 
 55 56  1  0  0  0  0 
  1 57  1  0  0  0  0 
 57 58  1  0  0  0  0 
 57 59  1  0  0  0  0 
 57 60  1  0  0  0  0 
 60 61  1  0  0  0  0 
 60 62  2  0  0  0  0 
M  END
> <Rank>
5

> <Priority_score>
0.768

> <Reaction_type>
N-dealkylation

> <Parent_ID>
81

> <Parent_InChI>
InChI=1S/C28H27NO4S/c30-21-8-4-20(5-9-21)28-26(24-13-10-22(31)18-25(24)34-28)27(32)19-6-11-23(12-7-19)33-17-16-29-14-2-1-3-15-29/h4-13,18,30-31H,1-3,14-17H2

> <Parent_SMILES>
O=C(c1ccc(OCCN2CCCCC2)cc1)c1c(-c2ccc(O)cc2)sc2cc(O)ccc12

$$$$
Molecule 81_metabolite 8
  CDK     0516241031

 62 66  0  0  0  0  0  0  0  0999 V2000
   -2.6909  -11.3499    0.0000 C   0  0  0  0  0  0  0  0  0  0  0  0
   -1.2031  -11.1590    0.0000 H   0  0  0  0  0  0  0  0  0  0  0  0
   -2.2448  -12.7820    0.0000 H   0  0  0  0  0  0  0  0  0  0  0  0
   -4.0246  -12.0382    0.0000 C   0  0  0  0  0  0  0  0  0  0  0  0
   -3.1154  -13.2312    0.0000 H   0  0  0  0  0  0  0  0  0  0  0  0
   -5.0414  -13.1409    0.0000 H   0  0  0  0  0  0  0  0  0  0  0  0
   -5.2881  -11.2281    0.0000 C   0  0  0  0  0  0  0  0  0  0  0  0
   -5.8662  -12.6122    0.0000 H   0  0  0  0  0  0  0  0  0  0  0  0
   -5.2178   -9.7298    0.0000 C   0  0  0  0  0  0  0  0  0  0  0  0
   -6.7056   -9.9206    0.0000 H   0  0  0  0  0  0  0  0  0  0  0  0
   -5.6640   -8.2977    0.0000 H   0  0  0  0  0  0  0  0  0  0  0  0
   -3.8841   -9.0415    0.0000 N   0  0  0  0  0  0  0  0  0  0  0  0
   -2.6207   -9.8515    0.0000 C   0  0  0  0  0  0  0  0  0  0  0  0
   -2.0425   -8.4674    0.0000 H   0  0  0  0  0  0  0  0  0  0  0  0
   -1.1572  -10.1807    0.0000 H   0  0  0  0  0  0  0  0  0  0  0  0
   -3.7914   -7.0636    0.0000 C   0  0  0  0  0  0  0  0  0  0  0  0
   -5.2792   -7.2547    0.0000 H   0  0  0  0  0  0  0  0  0  0  0  0
   -4.2378   -5.6316    0.0000 H   0  0  0  0  0  0  0  0  0  0  0  0
   -2.4586   -6.3753    0.0000 C   0  0  0  0  0  0  0  0  0  0  0  0
   -1.4417   -5.2727    0.0000 H   0  0  0  0  0  0  0  0  0  0  0  0
   -3.3680   -5.1823    0.0000 H   0  0  0  0  0  0  0  0  0  0  0  0
   -1.1962   -7.1853    0.0000 O   0  0  0  0  0  0  0  0  0  0  0  0
    0.1366   -6.4970    0.0000 C   0  0  0  0  0  0  0  0  0  0  0  0
    1.4432   -7.3202    0.0000 C   0  0  0  0  0  0  0  0  0  0  0  0
    1.3804   -8.8189    0.0000 H   0  0  0  0  0  0  0  0  0  0  0  0
    2.7526   -6.6413    0.0000 C   0  0  0  0  0  0  0  0  0  0  0  0
    4.0124   -7.4555    0.0000 H   0  0  0  0  0  0  0  0  0  0  0  0
    2.8352   -5.1436    0.0000 C   0  0  0  0  0  0  0  0  0  0  0  0
    1.6084   -4.3247    0.0000 C   0  0  0  0  0  0  0  0  0  0  0  0
    1.7108   -2.8282    0.0000 H   0  0  0  0  0  0  0  0  0  0  0  0
    0.2192   -4.9993    0.0000 C   0  0  0  0  0  0  0  0  0  0  0  0
   -1.0298   -4.1685    0.0000 H   0  0  0  0  0  0  0  0  0  0  0  0
    4.1769   -4.4728    0.0000 C   0  0  0  0  0  0  0  0  0  0  0  0
    3.7494   -3.0351    0.0000 O   0  0  0  0  0  0  0  0  0  0  0  0
    6.5695   -5.0446    0.0000 C   0  0  0  0  0  0  0  0  0  0  0  0
    7.7045   -4.0697    0.0000 C   0  0  0  0  0  0  0  0  0  0  0  0
    7.5834   -2.5746    0.0000 C   0  0  0  0  0  0  0  0  0  0  0  0
    8.8218   -1.7283    0.0000 C   0  0  0  0  0  0  0  0  0  0  0  0
   10.1708   -2.3842    0.0000 H   0  0  0  0  0  0  0  0  0  0  0  0
    8.7245   -0.2566    0.0000 C   0  0  0  0  0  0  0  0  0  0  0  0
    9.9739    0.5734    0.0000 H   0  0  0  0  0  0  0  0  0  0  0  0
    7.3435    0.4348    0.0000 C   0  0  0  0  0  0  0  0  0  0  0  0
    6.1051   -0.4115    0.0000 C   0  0  0  0  0  0  0  0  0  0  0  0
    4.7476    0.2266    0.0000 H   0  0  0  0  0  0  0  0  0  0  0  0
    6.2476   -1.9493    0.0000 C   0  0  0  0  0  0  0  0  0  0  0  0
    5.0205   -2.8119    0.0000 H   0  0  0  0  0  0  0  0  0  0  0  0
    7.2421    1.9314    0.0000 O   0  0  0  0  0  0  0  0  0  0  0  0
    8.4875    2.7675    0.0000 H   0  0  0  0  0  0  0  0  0  0  0  0
    8.9816   -4.8492    0.0000 S   0  0  0  0  0  0  0  0  0  0  0  0
    8.6386   -6.3116    0.0000 C   0  0  0  0  0  0  0  0  0  0  0  0
    7.1435   -6.4327    0.0000 C   0  0  0  0  0  0  0  0  0  0  0  0
    6.5009   -7.7891    0.0000 C   0  0  0  0  0  0  0  0  0  0  0  0
    5.0058   -7.9102    0.0000 H   0  0  0  0  0  0  0  0  0  0  0  0
    7.3534   -9.0243    0.0000 C   0  0  0  0  0  0  0  0  0  0  0  0
    6.7106  -10.3795    0.0000 H   0  0  0  0  0  0  0  0  0  0  0  0
    8.8485   -8.9031    0.0000 C   0  0  0  0  0  0  0  0  0  0  0  0
    9.4911   -7.5468    0.0000 C   0  0  0  0  0  0  0  0  0  0  0  0
   10.9862   -7.4257    0.0000 H   0  0  0  0  0  0  0  0  0  0  0  0
    9.7012  -10.1372    0.0000 O   0  0  0  0  0  0  0  0  0  0  0  0
    9.0587  -11.4927    0.0000 H   0  0  0  0  0  0  0  0  0  0  0  0
   -6.7515  -10.8989    0.0000 O   0  0  0  0  0  0  0  0  0  0  0  0
   -7.7683  -12.0017    0.0000 H   0  0  0  0  0  0  0  0  0  0  0  0
  1  2  1  0  0  0  0 
  1  3  1  0  0  0  0 
  1  4  1  0  0  0  0 
  4  5  1  0  0  0  0 
  4  6  1  0  0  0  0 
  4  7  1  0  0  0  0 
  7  8  1  0  0  0  0 
  7  9  1  0  0  0  0 
  9 10  1  0  0  0  0 
  9 11  1  0  0  0  0 
  9 12  1  0  0  0  0 
 12 13  1  0  0  0  0 
  1 13  1  0  0  0  0 
 13 14  1  0  0  0  0 
 13 15  1  0  0  0  0 
 12 16  1  0  0  0  0 
 16 17  1  0  0  0  0 
 16 18  1  0  0  0  0 
 16 19  1  0  0  0  0 
 19 20  1  0  0  0  0 
 19 21  1  0  0  0  0 
 19 22  1  0  0  0  0 
 22 23  1  0  0  0  0 
 23 24  2  0  0  0  0 
 24 25  1  0  0  0  0 
 24 26  1  0  0  0  0 
 26 27  1  0  0  0  0 
 26 28  2  0  0  0  0 
 28 29  1  0  0  0  0 
 29 30  1  0  0  0  0 
 29 31  2  0  0  0  0 
 23 31  1  0  0  0  0 
 31 32  1  0  0  0  0 
 28 33  1  0  0  0  0 
 33 34  2  0  0  0  0 
 33 35  1  0  0  0  0 
 35 36  2  0  0  0  0 
 36 37  1  0  0  0  0 
 37 38  2  0  0  0  0 
 38 39  1  0  0  0  0 
 38 40  1  0  0  0  0 
 40 41  1  0  0  0  0 
 40 42  2  0  0  0  0 
 42 43  1  0  0  0  0 
 43 44  1  0  0  0  0 
 43 45  2  0  0  0  0 
 37 45  1  0  0  0  0 
 45 46  1  0  0  0  0 
 42 47  1  0  0  0  0 
 47 48  1  0  0  0  0 
 36 49  1  0  0  0  0 
 49 50  1  0  0  0  0 
 50 51  2  0  0  0  0 
 35 51  1  0  0  0  0 
 51 52  1  0  0  0  0 
 52 53  1  0  0  0  0 
 52 54  2  0  0  0  0 
 54 55  1  0  0  0  0 
 54 56  1  0  0  0  0 
 56 57  2  0  0  0  0 
 50 57  1  0  0  0  0 
 57 58  1  0  0  0  0 
 56 59  1  0  0  0  0 
 59 60  1  0  0  0  0 
  7 61  1  0  0  0  0 
 61 62  1  0  0  0  0 
M  END
> <Rank>
5

> <Priority_score>
0.768

> <Reaction_type>
aliphatic_hydroxylation_(sec_carbon_in_a_ringA)

> <Parent_ID>
81

> <Parent_InChI>
InChI=1S/C28H27NO4S/c30-21-8-4-20(5-9-21)28-26(24-13-10-22(31)18-25(24)34-28)27(32)19-6-11-23(12-7-19)33-17-16-29-14-2-1-3-15-29/h4-13,18,30-31H,1-3,14-17H2

> <Parent_SMILES>
O=C(c1ccc(OCCN2CCCCC2)cc1)c1c(-c2ccc(O)cc2)sc2cc(O)ccc12

$$$$
Molecule 81_metabolite 9
  CDK     0516241031

 60 64  0  0  0  0  0  0  0  0999 V2000
   -0.9425  -14.3870    0.0000 C   0  0  0  0  0  0  0  0  0  0  0  0
    0.3199  -15.1972    0.0000 H   0  0  0  0  0  0  0  0  0  0  0  0
   -1.5208  -15.7710    0.0000 H   0  0  0  0  0  0  0  0  0  0  0  0
   -2.4068  -14.0579    0.0000 C   0  0  0  0  0  0  0  0  0  0  0  0
   -2.4767  -15.5563    0.0000 H   0  0  0  0  0  0  0  0  0  0  0  0
   -3.8946  -14.2491    0.0000 H   0  0  0  0  0  0  0  0  0  0  0  0
   -2.8533  -12.6259    0.0000 C   0  0  0  0  0  0  0  0  0  0  0  0
   -4.1861  -13.3141    0.0000 H   0  0  0  0  0  0  0  0  0  0  0  0
   -3.7623  -11.4328    0.0000 H   0  0  0  0  0  0  0  0  0  0  0  0
   -1.8354  -11.5230    0.0000 N   0  0  0  0  0  0  0  0  0  0  0  0
   -2.4247   -9.6327    0.0000 C   0  0  0  0  0  0  0  0  0  0  0  0
   -3.7575  -10.3211    0.0000 H   0  0  0  0  0  0  0  0  0  0  0  0
   -3.3340   -8.4398    0.0000 H   0  0  0  0  0  0  0  0  0  0  0  0
   -1.4078   -8.5301    0.0000 C   0  0  0  0  0  0  0  0  0  0  0  0
   -0.0750   -7.8417    0.0000 H   0  0  0  0  0  0  0  0  0  0  0  0
   -0.4985   -9.7230    0.0000 H   0  0  0  0  0  0  0  0  0  0  0  0
   -1.8542   -7.0980    0.0000 O   0  0  0  0  0  0  0  0  0  0  0  0
   -0.8373   -5.9954    0.0000 C   0  0  0  0  0  0  0  0  0  0  0  0
   -1.2848   -4.5173    0.0000 C   0  0  0  0  0  0  0  0  0  0  0  0
   -2.7465   -4.1807    0.0000 H   0  0  0  0  0  0  0  0  0  0  0  0
   -0.2831   -3.4347    0.0000 C   0  0  0  0  0  0  0  0  0  0  0  0
   -0.7343   -2.0042    0.0000 H   0  0  0  0  0  0  0  0  0  0  0  0
    1.1830   -3.7520    0.0000 C   0  0  0  0  0  0  0  0  0  0  0  0
    1.6473   -5.1519    0.0000 C   0  0  0  0  0  0  0  0  0  0  0  0
    3.1175   -5.4498    0.0000 H   0  0  0  0  0  0  0  0  0  0  0  0
    0.6288   -6.3127    0.0000 C   0  0  0  0  0  0  0  0  0  0  0  0
    1.0988   -7.7371    0.0000 H   0  0  0  0  0  0  0  0  0  0  0  0
    3.1475   -1.5647    0.0000 C   0  0  0  0  0  0  0  0  0  0  0  0
    4.6151   -1.8748    0.0000 O   0  0  0  0  0  0  0  0  0  0  0  0
    2.5333    0.3176    0.0000 C   0  0  0  0  0  0  0  0  0  0  0  0
    3.4133    1.5276    0.0000 C   0  0  0  0  0  0  0  0  0  0  0  0
    4.9133    1.5276    0.0000 C   0  0  0  0  0  0  0  0  0  0  0  0
    5.6569    2.8303    0.0000 C   0  0  0  0  0  0  0  0  0  0  0  0
    4.8942    4.1219    0.0000 H   0  0  0  0  0  0  0  0  0  0  0  0
    7.1317    2.8521    0.0000 C   0  0  0  0  0  0  0  0  0  0  0  0
    7.8581    4.1645    0.0000 H   0  0  0  0  0  0  0  0  0  0  0  0
    7.9323    1.5315    0.0000 C   0  0  0  0  0  0  0  0  0  0  0  0
    7.1888    0.2288    0.0000 C   0  0  0  0  0  0  0  0  0  0  0  0
    7.9344   -1.0727    0.0000 H   0  0  0  0  0  0  0  0  0  0  0  0
    5.6445    0.2467    0.0000 C   0  0  0  0  0  0  0  0  0  0  0  0
    4.8838   -1.0461    0.0000 H   0  0  0  0  0  0  0  0  0  0  0  0
    9.4322    1.5513    0.0000 O   0  0  0  0  0  0  0  0  0  0  0  0
   10.1650    2.8601    0.0000 H   0  0  0  0  0  0  0  0  0  0  0  0
    2.5333    2.7376    0.0000 S   0  0  0  0  0  0  0  0  0  0  0  0
    1.1033    2.2776    0.0000 C   0  0  0  0  0  0  0  0  0  0  0  0
    1.1033    0.7776    0.0000 C   0  0  0  0  0  0  0  0  0  0  0  0
   -0.1967    0.0276    0.0000 C   0  0  0  0  0  0  0  0  0  0  0  0
   -0.1967   -1.4724    0.0000 H   0  0  0  0  0  0  0  0  0  0  0  0
   -1.4967    0.7776    0.0000 C   0  0  0  0  0  0  0  0  0  0  0  0
   -2.7956    0.0274    0.0000 H   0  0  0  0  0  0  0  0  0  0  0  0
   -1.4967    2.2776    0.0000 C   0  0  0  0  0  0  0  0  0  0  0  0
   -0.1967    3.0276    0.0000 C   0  0  0  0  0  0  0  0  0  0  0  0
   -0.1967    4.5276    0.0000 H   0  0  0  0  0  0  0  0  0  0  0  0
   -2.7956    3.0278    0.0000 O   0  0  0  0  0  0  0  0  0  0  0  0
   -4.0947    2.2781    0.0000 H   0  0  0  0  0  0  0  0  0  0  0  0
   -0.3711  -11.8521    0.0000 C   0  0  0  0  0  0  0  0  0  0  0  0
    0.6457  -10.7493    0.0000 O   0  0  0  0  0  0  0  0  0  0  0  0
    0.0754  -13.2841    0.0000 C   0  0  0  0  0  0  0  0  0  0  0  0
    1.4082  -12.5959    0.0000 H   0  0  0  0  0  0  0  0  0  0  0  0
    0.9844  -14.4772    0.0000 H   0  0  0  0  0  0  0  0  0  0  0  0
  1  2  1  0  0  0  0 
  1  3  1  0  0  0  0 
  1  4  1  0  0  0  0 
  4  5  1  0  0  0  0 
  4  6  1  0  0  0  0 
  4  7  1  0  0  0  0 
  7  8  1  0  0  0  0 
  7  9  1  0  0  0  0 
  7 10  1  0  0  0  0 
 10 11  1  0  0  0  0 
 11 12  1  0  0  0  0 
 11 13  1  0  0  0  0 
 11 14  1  0  0  0  0 
 14 15  1  0  0  0  0 
 14 16  1  0  0  0  0 
 14 17  1  0  0  0  0 
 17 18  1  0  0  0  0 
 18 19  2  0  0  0  0 
 19 20  1  0  0  0  0 
 19 21  1  0  0  0  0 
 21 22  1  0  0  0  0 
 21 23  2  0  0  0  0 
 23 24  1  0  0  0  0 
 24 25  1  0  0  0  0 
 24 26  2  0  0  0  0 
 18 26  1  0  0  0  0 
 26 27  1  0  0  0  0 
 23 28  1  0  0  0  0 
 28 29  2  0  0  0  0 
 28 30  1  0  0  0  0 
 30 31  2  0  0  0  0 
 31 32  1  0  0  0  0 
 32 33  2  0  0  0  0 
 33 34  1  0  0  0  0 
 33 35  1  0  0  0  0 
 35 36  1  0  0  0  0 
 35 37  2  0  0  0  0 
 37 38  1  0  0  0  0 
 38 39  1  0  0  0  0 
 38 40  2  0  0  0  0 
 32 40  1  0  0  0  0 
 40 41  1  0  0  0  0 
 37 42  1  0  0  0  0 
 42 43  1  0  0  0  0 
 31 44  1  0  0  0  0 
 44 45  1  0  0  0  0 
 45 46  2  0  0  0  0 
 30 46  1  0  0  0  0 
 46 47  1  0  0  0  0 
 47 48  1  0  0  0  0 
 47 49  2  0  0  0  0 
 49 50  1  0  0  0  0 
 49 51  1  0  0  0  0 
 51 52  2  0  0  0  0 
 45 52  1  0  0  0  0 
 52 53  1  0  0  0  0 
 51 54  1  0  0  0  0 
 54 55  1  0  0  0  0 
 10 56  1  0  0  0  0 
 56 57  2  0  0  0  0 
 56 58  1  0  0  0  0 
  1 58  1  0  0  0  0 
 58 59  1  0  0  0  0 
 58 60  1  0  0  0  0 
M  END
> <Rank>
5

> <Priority_score>
0.768

> <Reaction_type>
oxidation_(amine_in_a_ring)

> <Parent_ID>
81

> <Parent_InChI>
InChI=1S/C28H27NO4S/c30-21-8-4-20(5-9-21)28-26(24-13-10-22(31)18-25(24)34-28)27(32)19-6-11-23(12-7-19)33-17-16-29-14-2-1-3-15-29/h4-13,18,30-31H,1-3,14-17H2

> <Parent_SMILES>
O=C(c1ccc(OCCN2CCCCC2)cc1)c1c(-c2ccc(O)cc2)sc2cc(O)ccc12

$$$$
Molecule 81_metabolite 10
  CDK     0516241031

 62 66  0  0  0  0  0  0  0  0999 V2000
   -4.0246  -12.0382    0.0000 C   0  0  0  0  0  0  0  0  0  0  0  0
   -3.1154  -13.2312    0.0000 H   0  0  0  0  0  0  0  0  0  0  0  0
   -5.0414  -13.1409    0.0000 H   0  0  0  0  0  0  0  0  0  0  0  0
   -5.2881  -11.2281    0.0000 C   0  0  0  0  0  0  0  0  0  0  0  0
   -5.8662  -12.6122    0.0000 H   0  0  0  0  0  0  0  0  0  0  0  0
   -6.7515  -10.8989    0.0000 H   0  0  0  0  0  0  0  0  0  0  0  0
   -5.2178   -9.7298    0.0000 C   0  0  0  0  0  0  0  0  0  0  0  0
   -6.7056   -9.9206    0.0000 H   0  0  0  0  0  0  0  0  0  0  0  0
   -5.6640   -8.2977    0.0000 H   0  0  0  0  0  0  0  0  0  0  0  0
   -3.8841   -9.0415    0.0000 N   0  0  0  0  0  0  0  0  0  0  0  0
   -2.6207   -9.8515    0.0000 C   0  0  0  0  0  0  0  0  0  0  0  0
   -2.0425   -8.4674    0.0000 H   0  0  0  0  0  0  0  0  0  0  0  0
   -1.1572  -10.1807    0.0000 H   0  0  0  0  0  0  0  0  0  0  0  0
   -2.6909  -11.3499    0.0000 C   0  0  0  0  0  0  0  0  0  0  0  0
   -1.2031  -11.1590    0.0000 H   0  0  0  0  0  0  0  0  0  0  0  0
   -2.2448  -12.7820    0.0000 H   0  0  0  0  0  0  0  0  0  0  0  0
   -3.7914   -7.0636    0.0000 C   0  0  0  0  0  0  0  0  0  0  0  0
   -5.2792   -7.2547    0.0000 H   0  0  0  0  0  0  0  0  0  0  0  0
   -4.2378   -5.6316    0.0000 H   0  0  0  0  0  0  0  0  0  0  0  0
   -2.4586   -6.3753    0.0000 C   0  0  0  0  0  0  0  0  0  0  0  0
   -1.4417   -5.2727    0.0000 H   0  0  0  0  0  0  0  0  0  0  0  0
   -3.3680   -5.1823    0.0000 H   0  0  0  0  0  0  0  0  0  0  0  0
   -1.1962   -7.1853    0.0000 O   0  0  0  0  0  0  0  0  0  0  0  0
    0.1366   -6.4970    0.0000 C   0  0  0  0  0  0  0  0  0  0  0  0
    1.4432   -7.3202    0.0000 C   0  0  0  0  0  0  0  0  0  0  0  0
    1.3804   -8.8189    0.0000 H   0  0  0  0  0  0  0  0  0  0  0  0
    2.7526   -6.6413    0.0000 C   0  0  0  0  0  0  0  0  0  0  0  0
    4.0124   -7.4555    0.0000 H   0  0  0  0  0  0  0  0  0  0  0  0
    2.8352   -5.1436    0.0000 C   0  0  0  0  0  0  0  0  0  0  0  0
    1.6084   -4.3247    0.0000 C   0  0  0  0  0  0  0  0  0  0  0  0
    1.7108   -2.8282    0.0000 H   0  0  0  0  0  0  0  0  0  0  0  0
    0.2192   -4.9993    0.0000 C   0  0  0  0  0  0  0  0  0  0  0  0
   -1.0298   -4.1685    0.0000 H   0  0  0  0  0  0  0  0  0  0  0  0
    4.1769   -4.4728    0.0000 C   0  0  0  0  0  0  0  0  0  0  0  0
    3.7494   -3.0351    0.0000 O   0  0  0  0  0  0  0  0  0  0  0  0
    6.5695   -5.0446    0.0000 C   0  0  0  0  0  0  0  0  0  0  0  0
    7.7045   -4.0697    0.0000 C   0  0  0  0  0  0  0  0  0  0  0  0
    7.5834   -2.5746    0.0000 C   0  0  0  0  0  0  0  0  0  0  0  0
    8.8218   -1.7283    0.0000 C   0  0  0  0  0  0  0  0  0  0  0  0
   10.1708   -2.3842    0.0000 H   0  0  0  0  0  0  0  0  0  0  0  0
    8.7245   -0.2566    0.0000 C   0  0  0  0  0  0  0  0  0  0  0  0
    9.9739    0.5734    0.0000 H   0  0  0  0  0  0  0  0  0  0  0  0
    7.3435    0.4348    0.0000 C   0  0  0  0  0  0  0  0  0  0  0  0
    6.1051   -0.4115    0.0000 C   0  0  0  0  0  0  0  0  0  0  0  0
    4.7476    0.2266    0.0000 H   0  0  0  0  0  0  0  0  0  0  0  0
    6.2476   -1.9493    0.0000 C   0  0  0  0  0  0  0  0  0  0  0  0
    5.0205   -2.8119    0.0000 H   0  0  0  0  0  0  0  0  0  0  0  0
    7.2421    1.9314    0.0000 O   0  0  0  0  0  0  0  0  0  0  0  0
    8.4875    2.7675    0.0000 H   0  0  0  0  0  0  0  0  0  0  0  0
    8.9816   -4.8492    0.0000 S   0  0  0  0  0  0  0  0  0  0  0  0
    8.6386   -6.3116    0.0000 C   0  0  0  0  0  0  0  0  0  0  0  0
    7.1435   -6.4327    0.0000 C   0  0  0  0  0  0  0  0  0  0  0  0
    6.5009   -7.7891    0.0000 C   0  0  0  0  0  0  0  0  0  0  0  0
    5.0058   -7.9102    0.0000 H   0  0  0  0  0  0  0  0  0  0  0  0
    7.3534   -9.0243    0.0000 C   0  0  0  0  0  0  0  0  0  0  0  0
    6.7106  -10.3795    0.0000 H   0  0  0  0  0  0  0  0  0  0  0  0
    8.8485   -8.9031    0.0000 C   0  0  0  0  0  0  0  0  0  0  0  0
    9.4911   -7.5468    0.0000 C   0  0  0  0  0  0  0  0  0  0  0  0
   10.9862   -7.4257    0.0000 O   0  0  0  0  0  0  0  0  0  0  0  0
   11.8387   -8.6599    0.0000 H   0  0  0  0  0  0  0  0  0  0  0  0
    9.7012  -10.1372    0.0000 O   0  0  0  0  0  0  0  0  0  0  0  0
    9.0587  -11.4927    0.0000 H   0  0  0  0  0  0  0  0  0  0  0  0
  1  2  1  0  0  0  0 
  1  3  1  0  0  0  0 
  1  4  1  0  0  0  0 
  4  5  1  0  0  0  0 
  4  6  1  0  0  0  0 
  4  7  1  0  0  0  0 
  7  8  1  0  0  0  0 
  7  9  1  0  0  0  0 
  7 10  1  0  0  0  0 
 10 11  1  0  0  0  0 
 11 12  1  0  0  0  0 
 11 13  1  0  0  0  0 
 11 14  1  0  0  0  0 
  1 14  1  0  0  0  0 
 14 15  1  0  0  0  0 
 14 16  1  0  0  0  0 
 10 17  1  0  0  0  0 
 17 18  1  0  0  0  0 
 17 19  1  0  0  0  0 
 17 20  1  0  0  0  0 
 20 21  1  0  0  0  0 
 20 22  1  0  0  0  0 
 20 23  1  0  0  0  0 
 23 24  1  0  0  0  0 
 24 25  2  0  0  0  0 
 25 26  1  0  0  0  0 
 25 27  1  0  0  0  0 
 27 28  1  0  0  0  0 
 27 29  2  0  0  0  0 
 29 30  1  0  0  0  0 
 30 31  1  0  0  0  0 
 30 32  2  0  0  0  0 
 24 32  1  0  0  0  0 
 32 33  1  0  0  0  0 
 29 34  1  0  0  0  0 
 34 35  2  0  0  0  0 
 34 36  1  0  0  0  0 
 36 37  2  0  0  0  0 
 37 38  1  0  0  0  0 
 38 39  2  0  0  0  0 
 39 40  1  0  0  0  0 
 39 41  1  0  0  0  0 
 41 42  1  0  0  0  0 
 41 43  2  0  0  0  0 
 43 44  1  0  0  0  0 
 44 45  1  0  0  0  0 
 44 46  2  0  0  0  0 
 38 46  1  0  0  0  0 
 46 47  1  0  0  0  0 
 43 48  1  0  0  0  0 
 48 49  1  0  0  0  0 
 37 50  1  0  0  0  0 
 50 51  1  0  0  0  0 
 51 52  2  0  0  0  0 
 36 52  1  0  0  0  0 
 52 53  1  0  0  0  0 
 53 54  1  0  0  0  0 
 53 55  2  0  0  0  0 
 55 56  1  0  0  0  0 
 55 57  1  0  0  0  0 
 57 58  2  0  0  0  0 
 51 58  1  0  0  0  0 
 58 59  1  0  0  0  0 
 59 60  1  0  0  0  0 
 57 61  1  0  0  0  0 
 61 62  1  0  0  0  0 
M  END
> <Rank>
10

> <Priority_score>
0.656

> <Reaction_type>
aromatic_hydroxylation_(ortho_to_2_substituents)

> <Parent_ID>
81

> <Parent_InChI>
InChI=1S/C28H27NO4S/c30-21-8-4-20(5-9-21)28-26(24-13-10-22(31)18-25(24)34-28)27(32)19-6-11-23(12-7-19)33-17-16-29-14-2-1-3-15-29/h4-13,18,30-31H,1-3,14-17H2

> <Parent_SMILES>
O=C(c1ccc(OCCN2CCCCC2)cc1)c1c(-c2ccc(O)cc2)sc2cc(O)ccc12

$$$$
Molecule 81_metabolite 11
  CDK     0516241031

 62 66  0  0  0  0  0  0  0  0999 V2000
   -4.0246  -12.0382    0.0000 C   0  0  0  0  0  0  0  0  0  0  0  0
   -3.1154  -13.2312    0.0000 H   0  0  0  0  0  0  0  0  0  0  0  0
   -5.0414  -13.1409    0.0000 H   0  0  0  0  0  0  0  0  0  0  0  0
   -5.2881  -11.2281    0.0000 C   0  0  0  0  0  0  0  0  0  0  0  0
   -5.8662  -12.6122    0.0000 H   0  0  0  0  0  0  0  0  0  0  0  0
   -6.7515  -10.8989    0.0000 H   0  0  0  0  0  0  0  0  0  0  0  0
   -5.2178   -9.7298    0.0000 C   0  0  0  0  0  0  0  0  0  0  0  0
   -6.7056   -9.9206    0.0000 H   0  0  0  0  0  0  0  0  0  0  0  0
   -5.6640   -8.2977    0.0000 H   0  0  0  0  0  0  0  0  0  0  0  0
   -3.8841   -9.0415    0.0000 N   0  0  0  0  0  0  0  0  0  0  0  0
   -2.6207   -9.8515    0.0000 C   0  0  0  0  0  0  0  0  0  0  0  0
   -2.0425   -8.4674    0.0000 H   0  0  0  0  0  0  0  0  0  0  0  0
   -1.1572  -10.1807    0.0000 H   0  0  0  0  0  0  0  0  0  0  0  0
   -2.6909  -11.3499    0.0000 C   0  0  0  0  0  0  0  0  0  0  0  0
   -1.2031  -11.1590    0.0000 H   0  0  0  0  0  0  0  0  0  0  0  0
   -2.2448  -12.7820    0.0000 H   0  0  0  0  0  0  0  0  0  0  0  0
   -3.7914   -7.0636    0.0000 C   0  0  0  0  0  0  0  0  0  0  0  0
   -5.2792   -7.2547    0.0000 H   0  0  0  0  0  0  0  0  0  0  0  0
   -4.2378   -5.6316    0.0000 H   0  0  0  0  0  0  0  0  0  0  0  0
   -2.4586   -6.3753    0.0000 C   0  0  0  0  0  0  0  0  0  0  0  0
   -1.4417   -5.2727    0.0000 H   0  0  0  0  0  0  0  0  0  0  0  0
   -3.3680   -5.1823    0.0000 H   0  0  0  0  0  0  0  0  0  0  0  0
   -1.1962   -7.1853    0.0000 O   0  0  0  0  0  0  0  0  0  0  0  0
    0.1366   -6.4970    0.0000 C   0  0  0  0  0  0  0  0  0  0  0  0
    1.4432   -7.3202    0.0000 C   0  0  0  0  0  0  0  0  0  0  0  0
    1.3804   -8.8189    0.0000 H   0  0  0  0  0  0  0  0  0  0  0  0
    2.7526   -6.6413    0.0000 C   0  0  0  0  0  0  0  0  0  0  0  0
    4.0124   -7.4555    0.0000 H   0  0  0  0  0  0  0  0  0  0  0  0
    2.8352   -5.1436    0.0000 C   0  0  0  0  0  0  0  0  0  0  0  0
    1.6084   -4.3247    0.0000 C   0  0  0  0  0  0  0  0  0  0  0  0
    1.7108   -2.8282    0.0000 H   0  0  0  0  0  0  0  0  0  0  0  0
    0.2192   -4.9993    0.0000 C   0  0  0  0  0  0  0  0  0  0  0  0
   -1.0298   -4.1685    0.0000 H   0  0  0  0  0  0  0  0  0  0  0  0
    4.1769   -4.4728    0.0000 C   0  0  0  0  0  0  0  0  0  0  0  0
    3.7494   -3.0351    0.0000 O   0  0  0  0  0  0  0  0  0  0  0  0
    6.5695   -5.0446    0.0000 C   0  0  0  0  0  0  0  0  0  0  0  0
    7.7045   -4.0697    0.0000 C   0  0  0  0  0  0  0  0  0  0  0  0
    7.5834   -2.5746    0.0000 C   0  0  0  0  0  0  0  0  0  0  0  0
    6.2271   -1.9320    0.0000 C   0  0  0  0  0  0  0  0  0  0  0  0
    4.9930   -2.7847    0.0000 H   0  0  0  0  0  0  0  0  0  0  0  0
    6.1060   -0.4369    0.0000 C   0  0  0  0  0  0  0  0  0  0  0  0
    4.7507    0.2059    0.0000 H   0  0  0  0  0  0  0  0  0  0  0  0
    7.3412    0.4156    0.0000 C   0  0  0  0  0  0  0  0  0  0  0  0
    8.6975   -0.2270    0.0000 C   0  0  0  0  0  0  0  0  0  0  0  0
    8.8186   -1.7221    0.0000 C   0  0  0  0  0  0  0  0  0  0  0  0
   10.1739   -2.3650    0.0000 H   0  0  0  0  0  0  0  0  0  0  0  0
    9.9316    0.6256    0.0000 O   0  0  0  0  0  0  0  0  0  0  0  0
   11.2871   -0.0168    0.0000 H   0  0  0  0  0  0  0  0  0  0  0  0
    7.2201    1.9107    0.0000 O   0  0  0  0  0  0  0  0  0  0  0  0
    8.4543    2.7631    0.0000 H   0  0  0  0  0  0  0  0  0  0  0  0
    8.9816   -4.8492    0.0000 S   0  0  0  0  0  0  0  0  0  0  0  0
    8.6386   -6.3116    0.0000 C   0  0  0  0  0  0  0  0  0  0  0  0
    7.1435   -6.4327    0.0000 C   0  0  0  0  0  0  0  0  0  0  0  0
    6.5009   -7.7891    0.0000 C   0  0  0  0  0  0  0  0  0  0  0  0
    5.0058   -7.9102    0.0000 H   0  0  0  0  0  0  0  0  0  0  0  0
    7.3534   -9.0243    0.0000 C   0  0  0  0  0  0  0  0  0  0  0  0
    6.7106  -10.3795    0.0000 H   0  0  0  0  0  0  0  0  0  0  0  0
    8.8485   -8.9031    0.0000 C   0  0  0  0  0  0  0  0  0  0  0  0
    9.4911   -7.5468    0.0000 C   0  0  0  0  0  0  0  0  0  0  0  0
   10.9862   -7.4257    0.0000 H   0  0  0  0  0  0  0  0  0  0  0  0
    9.7012  -10.1372    0.0000 O   0  0  0  0  0  0  0  0  0  0  0  0
    9.0587  -11.4927    0.0000 H   0  0  0  0  0  0  0  0  0  0  0  0
  1  2  1  0  0  0  0 
  1  3  1  0  0  0  0 
  1  4  1  0  0  0  0 
  4  5  1  0  0  0  0 
  4  6  1  0  0  0  0 
  4  7  1  0  0  0  0 
  7  8  1  0  0  0  0 
  7  9  1  0  0  0  0 
  7 10  1  0  0  0  0 
 10 11  1  0  0  0  0 
 11 12  1  0  0  0  0 
 11 13  1  0  0  0  0 
 11 14  1  0  0  0  0 
  1 14  1  0  0  0  0 
 14 15  1  0  0  0  0 
 14 16  1  0  0  0  0 
 10 17  1  0  0  0  0 
 17 18  1  0  0  0  0 
 17 19  1  0  0  0  0 
 17 20  1  0  0  0  0 
 20 21  1  0  0  0  0 
 20 22  1  0  0  0  0 
 20 23  1  0  0  0  0 
 23 24  1  0  0  0  0 
 24 25  2  0  0  0  0 
 25 26  1  0  0  0  0 
 25 27  1  0  0  0  0 
 27 28  1  0  0  0  0 
 27 29  2  0  0  0  0 
 29 30  1  0  0  0  0 
 30 31  1  0  0  0  0 
 30 32  2  0  0  0  0 
 24 32  1  0  0  0  0 
 32 33  1  0  0  0  0 
 29 34  1  0  0  0  0 
 34 35  2  0  0  0  0 
 34 36  1  0  0  0  0 
 36 37  2  0  0  0  0 
 37 38  1  0  0  0  0 
 38 39  2  0  0  0  0 
 39 40  1  0  0  0  0 
 39 41  1  0  0  0  0 
 41 42  1  0  0  0  0 
 41 43  2  0  0  0  0 
 43 44  1  0  0  0  0 
 44 45  2  0  0  0  0 
 38 45  1  0  0  0  0 
 45 46  1  0  0  0  0 
 44 47  1  0  0  0  0 
 47 48  1  0  0  0  0 
 43 49  1  0  0  0  0 
 49 50  1  0  0  0  0 
 37 51  1  0  0  0  0 
 51 52  1  0  0  0  0 
 52 53  2  0  0  0  0 
 36 53  1  0  0  0  0 
 53 54  1  0  0  0  0 
 54 55  1  0  0  0  0 
 54 56  2  0  0  0  0 
 56 57  1  0  0  0  0 
 56 58  1  0  0  0  0 
 58 59  2  0  0  0  0 
 52 59  1  0  0  0  0 
 59 60  1  0  0  0  0 
 58 61  1  0  0  0  0 
 61 62  1  0  0  0  0 
M  END
> <Rank>
11

> <Priority_score>
0.468

> <Reaction_type>
aromatic_hydroxylation_(ortho_to_oxygen)

> <Parent_ID>
81

> <Parent_InChI>
InChI=1S/C28H27NO4S/c30-21-8-4-20(5-9-21)28-26(24-13-10-22(31)18-25(24)34-28)27(32)19-6-11-23(12-7-19)33-17-16-29-14-2-1-3-15-29/h4-13,18,30-31H,1-3,14-17H2

> <Parent_SMILES>
O=C(c1ccc(OCCN2CCCCC2)cc1)c1c(-c2ccc(O)cc2)sc2cc(O)ccc12

$$$$
Molecule 81_metabolite 12
  CDK     0516241031

 62 66  0  0  0  0  0  0  0  0999 V2000
   -4.0246  -12.0382    0.0000 C   0  0  0  0  0  0  0  0  0  0  0  0
   -3.1154  -13.2312    0.0000 H   0  0  0  0  0  0  0  0  0  0  0  0
   -5.0414  -13.1409    0.0000 H   0  0  0  0  0  0  0  0  0  0  0  0
   -5.2881  -11.2281    0.0000 C   0  0  0  0  0  0  0  0  0  0  0  0
   -5.8662  -12.6122    0.0000 H   0  0  0  0  0  0  0  0  0  0  0  0
   -6.7515  -10.8989    0.0000 H   0  0  0  0  0  0  0  0  0  0  0  0
   -5.2178   -9.7298    0.0000 C   0  0  0  0  0  0  0  0  0  0  0  0
   -6.7056   -9.9206    0.0000 H   0  0  0  0  0  0  0  0  0  0  0  0
   -5.6640   -8.2977    0.0000 H   0  0  0  0  0  0  0  0  0  0  0  0
   -3.8841   -9.0415    0.0000 N   0  0  0  0  0  0  0  0  0  0  0  0
   -2.6207   -9.8515    0.0000 C   0  0  0  0  0  0  0  0  0  0  0  0
   -2.0425   -8.4674    0.0000 H   0  0  0  0  0  0  0  0  0  0  0  0
   -1.1572  -10.1807    0.0000 H   0  0  0  0  0  0  0  0  0  0  0  0
   -2.6909  -11.3499    0.0000 C   0  0  0  0  0  0  0  0  0  0  0  0
   -1.2031  -11.1590    0.0000 H   0  0  0  0  0  0  0  0  0  0  0  0
   -2.2448  -12.7820    0.0000 H   0  0  0  0  0  0  0  0  0  0  0  0
   -3.7914   -7.0636    0.0000 C   0  0  0  0  0  0  0  0  0  0  0  0
   -5.2792   -7.2547    0.0000 H   0  0  0  0  0  0  0  0  0  0  0  0
   -4.2378   -5.6316    0.0000 H   0  0  0  0  0  0  0  0  0  0  0  0
   -2.4586   -6.3753    0.0000 C   0  0  0  0  0  0  0  0  0  0  0  0
   -1.4417   -5.2727    0.0000 H   0  0  0  0  0  0  0  0  0  0  0  0
   -3.3680   -5.1823    0.0000 H   0  0  0  0  0  0  0  0  0  0  0  0
   -1.1962   -7.1853    0.0000 O   0  0  0  0  0  0  0  0  0  0  0  0
    0.1366   -6.4970    0.0000 C   0  0  0  0  0  0  0  0  0  0  0  0
    1.4432   -7.3202    0.0000 C   0  0  0  0  0  0  0  0  0  0  0  0
    1.3804   -8.8189    0.0000 H   0  0  0  0  0  0  0  0  0  0  0  0
    2.7526   -6.6413    0.0000 C   0  0  0  0  0  0  0  0  0  0  0  0
    4.0124   -7.4555    0.0000 H   0  0  0  0  0  0  0  0  0  0  0  0
    2.8352   -5.1436    0.0000 C   0  0  0  0  0  0  0  0  0  0  0  0
    1.6084   -4.3247    0.0000 C   0  0  0  0  0  0  0  0  0  0  0  0
    1.7108   -2.8282    0.0000 H   0  0  0  0  0  0  0  0  0  0  0  0
    0.2192   -4.9993    0.0000 C   0  0  0  0  0  0  0  0  0  0  0  0
   -1.0298   -4.1685    0.0000 H   0  0  0  0  0  0  0  0  0  0  0  0
    4.1769   -4.4728    0.0000 C   0  0  0  0  0  0  0  0  0  0  0  0
    3.7494   -3.0351    0.0000 O   0  0  0  0  0  0  0  0  0  0  0  0
    6.5695   -5.0446    0.0000 C   0  0  0  0  0  0  0  0  0  0  0  0
    7.7045   -4.0697    0.0000 C   0  0  0  0  0  0  0  0  0  0  0  0
    7.5834   -2.5746    0.0000 C   0  0  0  0  0  0  0  0  0  0  0  0
    8.8218   -1.7283    0.0000 C   0  0  0  0  0  0  0  0  0  0  0  0
   10.1708   -2.3842    0.0000 H   0  0  0  0  0  0  0  0  0  0  0  0
    8.7245   -0.2566    0.0000 C   0  0  0  0  0  0  0  0  0  0  0  0
    9.9739    0.5734    0.0000 H   0  0  0  0  0  0  0  0  0  0  0  0
    7.3435    0.4348    0.0000 C   0  0  0  0  0  0  0  0  0  0  0  0
    6.1051   -0.4115    0.0000 C   0  0  0  0  0  0  0  0  0  0  0  0
    4.7476    0.2266    0.0000 H   0  0  0  0  0  0  0  0  0  0  0  0
    6.2476   -1.9493    0.0000 C   0  0  0  0  0  0  0  0  0  0  0  0
    5.0205   -2.8119    0.0000 H   0  0  0  0  0  0  0  0  0  0  0  0
    7.2421    1.9314    0.0000 O   0  0  0  0  0  0  0  0  0  0  0  0
    8.4875    2.7675    0.0000 H   0  0  0  0  0  0  0  0  0  0  0  0
    8.9816   -4.8492    0.0000 S   0  0  0  0  0  0  0  0  0  0  0  0
    8.6386   -6.3116    0.0000 C   0  0  0  0  0  0  0  0  0  0  0  0
    7.1435   -6.4327    0.0000 C   0  0  0  0  0  0  0  0  0  0  0  0
    6.5009   -7.7891    0.0000 C   0  0  0  0  0  0  0  0  0  0  0  0
    5.0058   -7.9102    0.0000 H   0  0  0  0  0  0  0  0  0  0  0  0
    7.3534   -9.0243    0.0000 C   0  0  0  0  0  0  0  0  0  0  0  0
    8.8485   -8.9031    0.0000 C   0  0  0  0  0  0  0  0  0  0  0  0
    9.4911   -7.5468    0.0000 C   0  0  0  0  0  0  0  0  0  0  0  0
   10.9862   -7.4257    0.0000 H   0  0  0  0  0  0  0  0  0  0  0  0
    9.7012  -10.1372    0.0000 O   0  0  0  0  0  0  0  0  0  0  0  0
    9.0587  -11.4927    0.0000 H   0  0  0  0  0  0  0  0  0  0  0  0
    6.7106  -10.3795    0.0000 O   0  0  0  0  0  0  0  0  0  0  0  0
    7.5628  -11.6139    0.0000 H   0  0  0  0  0  0  0  0  0  0  0  0
  1  2  1  0  0  0  0 
  1  3  1  0  0  0  0 
  1  4  1  0  0  0  0 
  4  5  1  0  0  0  0 
  4  6  1  0  0  0  0 
  4  7  1  0  0  0  0 
  7  8  1  0  0  0  0 
  7  9  1  0  0  0  0 
  7 10  1  0  0  0  0 
 10 11  1  0  0  0  0 
 11 12  1  0  0  0  0 
 11 13  1  0  0  0  0 
 11 14  1  0  0  0  0 
  1 14  1  0  0  0  0 
 14 15  1  0  0  0  0 
 14 16  1  0  0  0  0 
 10 17  1  0  0  0  0 
 17 18  1  0  0  0  0 
 17 19  1  0  0  0  0 
 17 20  1  0  0  0  0 
 20 21  1  0  0  0  0 
 20 22  1  0  0  0  0 
 20 23  1  0  0  0  0 
 23 24  1  0  0  0  0 
 24 25  2  0  0  0  0 
 25 26  1  0  0  0  0 
 25 27  1  0  0  0  0 
 27 28  1  0  0  0  0 
 27 29  2  0  0  0  0 
 29 30  1  0  0  0  0 
 30 31  1  0  0  0  0 
 30 32  2  0  0  0  0 
 24 32  1  0  0  0  0 
 32 33  1  0  0  0  0 
 29 34  1  0  0  0  0 
 34 35  2  0  0  0  0 
 34 36  1  0  0  0  0 
 36 37  2  0  0  0  0 
 37 38  1  0  0  0  0 
 38 39  2  0  0  0  0 
 39 40  1  0  0  0  0 
 39 41  1  0  0  0  0 
 41 42  1  0  0  0  0 
 41 43  2  0  0  0  0 
 43 44  1  0  0  0  0 
 44 45  1  0  0  0  0 
 44 46  2  0  0  0  0 
 38 46  1  0  0  0  0 
 46 47  1  0  0  0  0 
 43 48  1  0  0  0  0 
 48 49  1  0  0  0  0 
 37 50  1  0  0  0  0 
 50 51  1  0  0  0  0 
 51 52  2  0  0  0  0 
 36 52  1  0  0  0  0 
 52 53  1  0  0  0  0 
 53 54  1  0  0  0  0 
 53 55  2  0  0  0  0 
 55 56  1  0  0  0  0 
 56 57  2  0  0  0  0 
 51 57  1  0  0  0  0 
 57 58  1  0  0  0  0 
 56 59  1  0  0  0  0 
 59 60  1  0  0  0  0 
 55 61  1  0  0  0  0 
 61 62  1  0  0  0  0 
M  END
> <Rank>
12

> <Priority_score>
0.42

> <Reaction_type>
aromatic hydroxylation

> <Parent_ID>
81

> <Parent_InChI>
InChI=1S/C28H27NO4S/c30-21-8-4-20(5-9-21)28-26(24-13-10-22(31)18-25(24)34-28)27(32)19-6-11-23(12-7-19)33-17-16-29-14-2-1-3-15-29/h4-13,18,30-31H,1-3,14-17H2

> <Parent_SMILES>
O=C(c1ccc(OCCN2CCCCC2)cc1)c1c(-c2ccc(O)cc2)sc2cc(O)ccc12

$$$$
Molecule 81_metabolite 13
  CDK     0516241031

 62 66  0  0  0  0  0  0  0  0999 V2000
   -1.7786  -15.4475    0.0000 C   0  0  0  0  0  0  0  0  0  0  0  0
   -0.5056  -16.2409    0.0000 H   0  0  0  0  0  0  0  0  0  0  0  0
   -2.3386  -16.8390    0.0000 H   0  0  0  0  0  0  0  0  0  0  0  0
   -3.2471  -15.1377    0.0000 C   0  0  0  0  0  0  0  0  0  0  0  0
   -3.2973  -16.6368    0.0000 H   0  0  0  0  0  0  0  0  0  0  0  0
   -4.7322  -15.3484    0.0000 H   0  0  0  0  0  0  0  0  0  0  0  0
   -3.7124  -13.7117    0.0000 C   0  0  0  0  0  0  0  0  0  0  0  0
   -5.0360  -14.4174    0.0000 H   0  0  0  0  0  0  0  0  0  0  0  0
   -4.6371  -12.5306    0.0000 H   0  0  0  0  0  0  0  0  0  0  0  0
   -2.7091  -12.5954    0.0000 N   0  0  0  0  0  0  0  0  0  0  0  0
   -1.2406  -12.9052    0.0000 C   0  0  0  0  0  0  0  0  0  0  0  0
   -1.1904  -11.4060    0.0000 H   0  0  0  0  0  0  0  0  0  0  0  0
    0.2445  -12.6944    0.0000 H   0  0  0  0  0  0  0  0  0  0  0  0
   -0.7753  -14.3312    0.0000 C   0  0  0  0  0  0  0  0  0  0  0  0
    0.5483  -13.6255    0.0000 H   0  0  0  0  0  0  0  0  0  0  0  0
    0.1493  -15.5123    0.0000 H   0  0  0  0  0  0  0  0  0  0  0  0
   -3.3233  -10.7131    0.0000 C   0  0  0  0  0  0  0  0  0  0  0  0
   -4.6469  -11.4189    0.0000 H   0  0  0  0  0  0  0  0  0  0  0  0
   -4.2483   -9.5322    0.0000 H   0  0  0  0  0  0  0  0  0  0  0  0
   -2.3210   -9.5971    0.0000 C   0  0  0  0  0  0  0  0  0  0  0  0
   -1.7608   -8.2057    0.0000 H   0  0  0  0  0  0  0  0  0  0  0  0
   -3.5940   -8.8038    0.0000 H   0  0  0  0  0  0  0  0  0  0  0  0
   -0.8534   -9.9072    0.0000 O   0  0  0  0  0  0  0  0  0  0  0  0
    0.1489   -8.7913    0.0000 C   0  0  0  0  0  0  0  0  0  0  0  0
   -0.3170   -7.3646    0.0000 C   0  0  0  0  0  0  0  0  0  0  0  0
   -1.7847   -7.0548    0.0000 H   0  0  0  0  0  0  0  0  0  0  0  0
    0.6853   -6.2486    0.0000 C   0  0  0  0  0  0  0  0  0  0  0  0
    0.2202   -4.8226    0.0000 H   0  0  0  0  0  0  0  0  0  0  0  0
    2.1536   -6.5594    0.0000 C   0  0  0  0  0  0  0  0  0  0  0  0
    2.6196   -7.9860    0.0000 C   0  0  0  0  0  0  0  0  0  0  0  0
    4.0872   -8.2958    0.0000 H   0  0  0  0  0  0  0  0  0  0  0  0
    1.6173   -9.1020    0.0000 C   0  0  0  0  0  0  0  0  0  0  0  0
    2.0823  -10.5280    0.0000 O   0  0  0  0  0  0  0  0  0  0  0  0
    3.5499  -10.8383    0.0000 H   0  0  0  0  0  0  0  0  0  0  0  0
    4.1182   -4.3721    0.0000 C   0  0  0  0  0  0  0  0  0  0  0  0
    5.5858   -4.6822    0.0000 O   0  0  0  0  0  0  0  0  0  0  0  0
    3.5040   -2.4898    0.0000 C   0  0  0  0  0  0  0  0  0  0  0  0
    4.3840   -1.2798    0.0000 C   0  0  0  0  0  0  0  0  0  0  0  0
    5.8840   -1.2798    0.0000 C   0  0  0  0  0  0  0  0  0  0  0  0
    6.6276    0.0230    0.0000 C   0  0  0  0  0  0  0  0  0  0  0  0
    5.8648    1.3146    0.0000 H   0  0  0  0  0  0  0  0  0  0  0  0
    8.1024    0.0447    0.0000 C   0  0  0  0  0  0  0  0  0  0  0  0
    8.8287    1.3571    0.0000 H   0  0  0  0  0  0  0  0  0  0  0  0
    8.9030   -1.2759    0.0000 C   0  0  0  0  0  0  0  0  0  0  0  0
    8.1594   -2.5786    0.0000 C   0  0  0  0  0  0  0  0  0  0  0  0
    8.9051   -3.8801    0.0000 H   0  0  0  0  0  0  0  0  0  0  0  0
    6.6152   -2.5607    0.0000 C   0  0  0  0  0  0  0  0  0  0  0  0
    5.8545   -3.8535    0.0000 H   0  0  0  0  0  0  0  0  0  0  0  0
   10.4029   -1.2561    0.0000 O   0  0  0  0  0  0  0  0  0  0  0  0
   11.1357    0.0527    0.0000 H   0  0  0  0  0  0  0  0  0  0  0  0
    3.5040   -0.0698    0.0000 S   0  0  0  0  0  0  0  0  0  0  0  0
    2.0740   -0.5298    0.0000 C   0  0  0  0  0  0  0  0  0  0  0  0
    2.0740   -2.0298    0.0000 C   0  0  0  0  0  0  0  0  0  0  0  0
    0.7740   -2.7798    0.0000 C   0  0  0  0  0  0  0  0  0  0  0  0
    0.7740   -4.2798    0.0000 H   0  0  0  0  0  0  0  0  0  0  0  0
   -0.5260   -2.0298    0.0000 C   0  0  0  0  0  0  0  0  0  0  0  0
   -1.8249   -2.7800    0.0000 H   0  0  0  0  0  0  0  0  0  0  0  0
   -0.5260   -0.5298    0.0000 C   0  0  0  0  0  0  0  0  0  0  0  0
    0.7740    0.2202    0.0000 C   0  0  0  0  0  0  0  0  0  0  0  0
    0.7740    1.7202    0.0000 H   0  0  0  0  0  0  0  0  0  0  0  0
   -1.8249    0.2205    0.0000 O   0  0  0  0  0  0  0  0  0  0  0  0
   -3.1241   -0.5293    0.0000 H   0  0  0  0  0  0  0  0  0  0  0  0
  1  2  1  0  0  0  0 
  1  3  1  0  0  0  0 
  1  4  1  0  0  0  0 
  4  5  1  0  0  0  0 
  4  6  1  0  0  0  0 
  4  7  1  0  0  0  0 
  7  8  1  0  0  0  0 
  7  9  1  0  0  0  0 
  7 10  1  0  0  0  0 
 10 11  1  0  0  0  0 
 11 12  1  0  0  0  0 
 11 13  1  0  0  0  0 
 11 14  1  0  0  0  0 
  1 14  1  0  0  0  0 
 14 15  1  0  0  0  0 
 14 16  1  0  0  0  0 
 10 17  1  0  0  0  0 
 17 18  1  0  0  0  0 
 17 19  1  0  0  0  0 
 17 20  1  0  0  0  0 
 20 21  1  0  0  0  0 
 20 22  1  0  0  0  0 
 20 23  1  0  0  0  0 
 23 24  1  0  0  0  0 
 24 25  2  0  0  0  0 
 25 26  1  0  0  0  0 
 25 27  1  0  0  0  0 
 27 28  1  0  0  0  0 
 27 29  2  0  0  0  0 
 29 30  1  0  0  0  0 
 30 31  1  0  0  0  0 
 30 32  2  0  0  0  0 
 24 32  1  0  0  0  0 
 32 33  1  0  0  0  0 
 33 34  1  0  0  0  0 
 29 35  1  0  0  0  0 
 35 36  2  0  0  0  0 
 35 37  1  0  0  0  0 
 37 38  2  0  0  0  0 
 38 39  1  0  0  0  0 
 39 40  2  0  0  0  0 
 40 41  1  0  0  0  0 
 40 42  1  0  0  0  0 
 42 43  1  0  0  0  0 
 42 44  2  0  0  0  0 
 44 45  1  0  0  0  0 
 45 46  1  0  0  0  0 
 45 47  2  0  0  0  0 
 39 47  1  0  0  0  0 
 47 48  1  0  0  0  0 
 44 49  1  0  0  0  0 
 49 50  1  0  0  0  0 
 38 51  1  0  0  0  0 
 51 52  1  0  0  0  0 
 52 53  2  0  0  0  0 
 37 53  1  0  0  0  0 
 53 54  1  0  0  0  0 
 54 55  1  0  0  0  0 
 54 56  2  0  0  0  0 
 56 57  1  0  0  0  0 
 56 58  1  0  0  0  0 
 58 59  2  0  0  0  0 
 52 59  1  0  0  0  0 
 59 60  1  0  0  0  0 
 58 61  1  0  0  0  0 
 61 62  1  0  0  0  0 
M  END
> <Rank>
13

> <Priority_score>
0.348

> <Reaction_type>
aromatic_hydroxylation_(ortho_to_oxygen)

> <Parent_ID>
81

> <Parent_InChI>
InChI=1S/C28H27NO4S/c30-21-8-4-20(5-9-21)28-26(24-13-10-22(31)18-25(24)34-28)27(32)19-6-11-23(12-7-19)33-17-16-29-14-2-1-3-15-29/h4-13,18,30-31H,1-3,14-17H2

> <Parent_SMILES>
O=C(c1ccc(OCCN2CCCCC2)cc1)c1c(-c2ccc(O)cc2)sc2cc(O)ccc12

$$$$
Molecule 81_metabolite 14
  CDK     0516241031

 64 68  0  0  0  0  0  0  0  0999 V2000
    9.3019  -11.0263    0.0000 C   0  0  0  0  0  0  0  0  0  0  0  0
   10.2183  -12.2138    0.0000 H   0  0  0  0  0  0  0  0  0  0  0  0
    8.2916  -12.1350    0.0000 H   0  0  0  0  0  0  0  0  0  0  0  0
    8.0346  -10.2238    0.0000 H   0  0  0  0  0  0  0  0  0  0  0  0
    9.8720   -9.6389    0.0000 O   0  0  0  0  0  0  0  0  0  0  0  0
    8.9556   -8.4514    0.0000 C   0  0  0  0  0  0  0  0  0  0  0  0
    9.5259   -7.0631    0.0000 C   0  0  0  0  0  0  0  0  0  0  0  0
   11.0125   -6.8634    0.0000 H   0  0  0  0  0  0  0  0  0  0  0  0
    8.6095   -5.8745    0.0000 C   0  0  0  0  0  0  0  0  0  0  0  0
    7.1228   -6.0742    0.0000 C   0  0  0  0  0  0  0  0  0  0  0  0
    6.5526   -7.4625    0.0000 C   0  0  0  0  0  0  0  0  0  0  0  0
    5.0659   -7.6622    0.0000 H   0  0  0  0  0  0  0  0  0  0  0  0
    7.4689   -8.6511    0.0000 C   0  0  0  0  0  0  0  0  0  0  0  0
    6.8983  -10.0383    0.0000 H   0  0  0  0  0  0  0  0  0  0  0  0
    6.4765   -4.7182    0.0000 C   0  0  0  0  0  0  0  0  0  0  0  0
    7.5586   -3.6849    0.0000 C   0  0  0  0  0  0  0  0  0  0  0  0
    7.3589   -2.1983    0.0000 C   0  0  0  0  0  0  0  0  0  0  0  0
    8.5511   -1.2879    0.0000 C   0  0  0  0  0  0  0  0  0  0  0  0
    9.9327   -1.8719    0.0000 H   0  0  0  0  0  0  0  0  0  0  0  0
    8.3763    0.1767    0.0000 C   0  0  0  0  0  0  0  0  0  0  0  0
    9.5803    1.0713    0.0000 H   0  0  0  0  0  0  0  0  0  0  0  0
    6.9609    0.7944    0.0000 C   0  0  0  0  0  0  0  0  0  0  0  0
    5.7688   -0.1160    0.0000 C   0  0  0  0  0  0  0  0  0  0  0  0
    4.3796    0.4497    0.0000 H   0  0  0  0  0  0  0  0  0  0  0  0
    5.9921   -1.6441    0.0000 C   0  0  0  0  0  0  0  0  0  0  0  0
    4.8120   -2.5702    0.0000 H   0  0  0  0  0  0  0  0  0  0  0  0
    6.7808    2.2835    0.0000 O   0  0  0  0  0  0  0  0  0  0  0  0
    5.4011    2.8721    0.0000 H   0  0  0  0  0  0  0  0  0  0  0  0
    8.8750   -4.3960    0.0000 S   0  0  0  0  0  0  0  0  0  0  0  0
    4.0571   -4.2732    0.0000 C   0  0  0  0  0  0  0  0  0  0  0  0
    3.5544   -2.8600    0.0000 O   0  0  0  0  0  0  0  0  0  0  0  0
    2.7526   -5.0137    0.0000 C   0  0  0  0  0  0  0  0  0  0  0  0
    1.4629   -4.2478    0.0000 C   0  0  0  0  0  0  0  0  0  0  0  0
    1.4886   -2.7480    0.0000 H   0  0  0  0  0  0  0  0  0  0  0  0
    0.1696   -4.9569    0.0000 C   0  0  0  0  0  0  0  0  0  0  0  0
   -1.1100   -4.1741    0.0000 H   0  0  0  0  0  0  0  0  0  0  0  0
    0.1252   -6.5006    0.0000 C   0  0  0  0  0  0  0  0  0  0  0  0
    1.4149   -7.2665    0.0000 C   0  0  0  0  0  0  0  0  0  0  0  0
    1.4089   -8.7664    0.0000 H   0  0  0  0  0  0  0  0  0  0  0  0
    2.7491   -6.4886    0.0000 C   0  0  0  0  0  0  0  0  0  0  0  0
    4.0488   -7.2374    0.0000 H   0  0  0  0  0  0  0  0  0  0  0  0
   -1.1890   -7.2238    0.0000 O   0  0  0  0  0  0  0  0  0  0  0  0
   -2.4724   -6.4473    0.0000 C   0  0  0  0  0  0  0  0  0  0  0  0
   -3.4128   -5.2787    0.0000 H   0  0  0  0  0  0  0  0  0  0  0  0
   -1.4848   -5.3183    0.0000 H   0  0  0  0  0  0  0  0  0  0  0  0
   -3.7865   -7.1705    0.0000 C   0  0  0  0  0  0  0  0  0  0  0  0
   -4.2705   -5.7508    0.0000 H   0  0  0  0  0  0  0  0  0  0  0  0
   -5.2688   -7.4007    0.0000 H   0  0  0  0  0  0  0  0  0  0  0  0
   -3.8271   -9.1501    0.0000 N   0  0  0  0  0  0  0  0  0  0  0  0
   -2.5428   -9.9266    0.0000 C   0  0  0  0  0  0  0  0  0  0  0  0
   -1.0712  -10.2172    0.0000 H   0  0  0  0  0  0  0  0  0  0  0  0
   -2.0012   -8.5278    0.0000 H   0  0  0  0  0  0  0  0  0  0  0  0
   -2.5735  -11.4263    0.0000 C   0  0  0  0  0  0  0  0  0  0  0  0
   -2.0898  -12.8462    0.0000 H   0  0  0  0  0  0  0  0  0  0  0  0
   -1.0913  -11.1963    0.0000 H   0  0  0  0  0  0  0  0  0  0  0  0
   -3.8886  -12.1495    0.0000 C   0  0  0  0  0  0  0  0  0  0  0  0
   -4.8760  -13.2786    0.0000 H   0  0  0  0  0  0  0  0  0  0  0  0
   -2.9483  -13.3182    0.0000 H   0  0  0  0  0  0  0  0  0  0  0  0
   -5.1730  -11.3730    0.0000 C   0  0  0  0  0  0  0  0  0  0  0  0
   -6.6446  -11.0824    0.0000 H   0  0  0  0  0  0  0  0  0  0  0  0
   -5.7145  -12.7718    0.0000 H   0  0  0  0  0  0  0  0  0  0  0  0
   -5.1422   -9.8733    0.0000 C   0  0  0  0  0  0  0  0  0  0  0  0
   -5.6259   -8.4534    0.0000 H   0  0  0  0  0  0  0  0  0  0  0  0
   -6.6245  -10.1033    0.0000 H   0  0  0  0  0  0  0  0  0  0  0  0
  1  2  1  0  0  0  0 
  1  3  1  0  0  0  0 
  1  4  1  0  0  0  0 
  1  5  1  0  0  0  0 
  5  6  1  0  0  0  0 
  6  7  2  0  0  0  0 
  7  8  1  0  0  0  0 
  7  9  1  0  0  0  0 
  9 10  2  0  0  0  0 
 10 11  1  0  0  0  0 
 11 12  1  0  0  0  0 
 11 13  2  0  0  0  0 
  6 13  1  0  0  0  0 
 13 14  1  0  0  0  0 
 10 15  1  0  0  0  0 
 15 16  2  0  0  0  0 
 16 17  1  0  0  0  0 
 17 18  2  0  0  0  0 
 18 19  1  0  0  0  0 
 18 20  1  0  0  0  0 
 20 21  1  0  0  0  0 
 20 22  2  0  0  0  0 
 22 23  1  0  0  0  0 
 23 24  1  0  0  0  0 
 23 25  2  0  0  0  0 
 17 25  1  0  0  0  0 
 25 26  1  0  0  0  0 
 22 27  1  0  0  0  0 
 27 28  1  0  0  0  0 
 16 29  1  0  0  0  0 
  9 29  1  0  0  0  0 
 15 30  1  0  0  0  0 
 30 31  2  0  0  0  0 
 30 32  1  0  0  0  0 
 32 33  2  0  0  0  0 
 33 34  1  0  0  0  0 
 33 35  1  0  0  0  0 
 35 36  1  0  0  0  0 
 35 37  2  0  0  0  0 
 37 38  1  0  0  0  0 
 38 39  1  0  0  0  0 
 38 40  2  0  0  0  0 
 32 40  1  0  0  0  0 
 40 41  1  0  0  0  0 
 37 42  1  0  0  0  0 
 42 43  1  0  0  0  0 
 43 44  1  0  0  0  0 
 43 45  1  0  0  0  0 
 43 46  1  0  0  0  0 
 46 47  1  0  0  0  0 
 46 48  1  0  0  0  0 
 46 49  1  0  0  0  0 
 49 50  1  0  0  0  0 
 50 51  1  0  0  0  0 
 50 52  1  0  0  0  0 
 50 53  1  0  0  0  0 
 53 54  1  0  0  0  0 
 53 55  1  0  0  0  0 
 53 56  1  0  0  0  0 
 56 57  1  0  0  0  0 
 56 58  1  0  0  0  0 
 56 59  1  0  0  0  0 
 59 60  1  0  0  0  0 
 59 61  1  0  0  0  0 
 59 62  1  0  0  0  0 
 49 62  1  0  0  0  0 
 62 63  1  0  0  0  0 
 62 64  1  0  0  0  0 
M  END
> <Rank>
14

> <Priority_score>
0.272

> <Reaction_type>
methylation_(aromatic_OH)

> <Parent_ID>
81

> <Parent_InChI>
InChI=1S/C28H27NO4S/c30-21-8-4-20(5-9-21)28-26(24-13-10-22(31)18-25(24)34-28)27(32)19-6-11-23(12-7-19)33-17-16-29-14-2-1-3-15-29/h4-13,18,30-31H,1-3,14-17H2

> <Parent_SMILES>
O=C(c1ccc(OCCN2CCCCC2)cc1)c1c(-c2ccc(O)cc2)sc2cc(O)ccc12

$$$$
Molecule 81_metabolite 15
  CDK     0516241031

 64 68  0  0  0  0  0  0  0  0999 V2000
    8.4525    3.0972    0.0000 C   0  0  0  0  0  0  0  0  0  0  0  0
    8.2724    4.5864    0.0000 H   0  0  0  0  0  0  0  0  0  0  0  0
    9.8877    3.5332    0.0000 H   0  0  0  0  0  0  0  0  0  0  0  0
    9.1310    1.7595    0.0000 H   0  0  0  0  0  0  0  0  0  0  0  0
    7.2529    2.1967    0.0000 O   0  0  0  0  0  0  0  0  0  0  0  0
    7.4330    0.7076    0.0000 C   0  0  0  0  0  0  0  0  0  0  0  0
    8.8484    0.0898    0.0000 C   0  0  0  0  0  0  0  0  0  0  0  0
   10.0524    0.9845    0.0000 H   0  0  0  0  0  0  0  0  0  0  0  0
    9.0232   -1.3747    0.0000 C   0  0  0  0  0  0  0  0  0  0  0  0
   10.4048   -1.9587    0.0000 H   0  0  0  0  0  0  0  0  0  0  0  0
    7.8310   -2.2851    0.0000 C   0  0  0  0  0  0  0  0  0  0  0  0
    6.4642   -1.7310    0.0000 C   0  0  0  0  0  0  0  0  0  0  0  0
    5.2841   -2.6570    0.0000 H   0  0  0  0  0  0  0  0  0  0  0  0
    6.2409   -0.2028    0.0000 C   0  0  0  0  0  0  0  0  0  0  0  0
    4.8516    0.3629    0.0000 H   0  0  0  0  0  0  0  0  0  0  0  0
    8.0946   -4.2475    0.0000 C   0  0  0  0  0  0  0  0  0  0  0  0
    7.0125   -5.2807    0.0000 C   0  0  0  0  0  0  0  0  0  0  0  0
    7.6588   -6.6367    0.0000 C   0  0  0  0  0  0  0  0  0  0  0  0
    9.1455   -6.4371    0.0000 C   0  0  0  0  0  0  0  0  0  0  0  0
   10.0618   -7.6256    0.0000 C   0  0  0  0  0  0  0  0  0  0  0  0
   11.5485   -7.4260    0.0000 H   0  0  0  0  0  0  0  0  0  0  0  0
    9.4916   -9.0139    0.0000 C   0  0  0  0  0  0  0  0  0  0  0  0
    8.0049   -9.2136    0.0000 C   0  0  0  0  0  0  0  0  0  0  0  0
    7.4343  -10.6008    0.0000 H   0  0  0  0  0  0  0  0  0  0  0  0
    7.0885   -8.0250    0.0000 C   0  0  0  0  0  0  0  0  0  0  0  0
    5.6019   -8.2247    0.0000 H   0  0  0  0  0  0  0  0  0  0  0  0
   10.4080  -10.2014    0.0000 O   0  0  0  0  0  0  0  0  0  0  0  0
    9.8379  -11.5888    0.0000 H   0  0  0  0  0  0  0  0  0  0  0  0
    9.4110   -4.9586    0.0000 S   0  0  0  0  0  0  0  0  0  0  0  0
    4.1210   -4.7490    0.0000 C   0  0  0  0  0  0  0  0  0  0  0  0
    3.6183   -3.3357    0.0000 O   0  0  0  0  0  0  0  0  0  0  0  0
    3.1484   -5.8909    0.0000 C   0  0  0  0  0  0  0  0  0  0  0  0
    1.6745   -5.6124    0.0000 C   0  0  0  0  0  0  0  0  0  0  0  0
    1.1858   -4.1942    0.0000 H   0  0  0  0  0  0  0  0  0  0  0  0
    0.7017   -6.7210    0.0000 C   0  0  0  0  0  0  0  0  0  0  0  0
   -0.7684   -6.4231    0.0000 H   0  0  0  0  0  0  0  0  0  0  0  0
    1.1880   -8.1868    0.0000 C   0  0  0  0  0  0  0  0  0  0  0  0
    2.6619   -8.4654    0.0000 C   0  0  0  0  0  0  0  0  0  0  0  0
    3.1693   -9.8769    0.0000 H   0  0  0  0  0  0  0  0  0  0  0  0
    3.6495   -7.2781    0.0000 C   0  0  0  0  0  0  0  0  0  0  0  0
    5.1270   -7.5372    0.0000 H   0  0  0  0  0  0  0  0  0  0  0  0
    0.2004   -9.3159    0.0000 O   0  0  0  0  0  0  0  0  0  0  0  0
   -1.2711   -9.0252    0.0000 C   0  0  0  0  0  0  0  0  0  0  0  0
   -2.5545   -8.2487    0.0000 H   0  0  0  0  0  0  0  0  0  0  0  0
   -0.7293   -7.6264    0.0000 H   0  0  0  0  0  0  0  0  0  0  0  0
   -2.2587  -10.1542    0.0000 C   0  0  0  0  0  0  0  0  0  0  0  0
   -3.1991   -8.9856    0.0000 H   0  0  0  0  0  0  0  0  0  0  0  0
   -3.5728  -10.8774    0.0000 H   0  0  0  0  0  0  0  0  0  0  0  0
   -1.6198  -12.0283    0.0000 N   0  0  0  0  0  0  0  0  0  0  0  0
   -0.1473  -12.3187    0.0000 C   0  0  0  0  0  0  0  0  0  0  0  0
    1.3349  -12.0884    0.0000 H   0  0  0  0  0  0  0  0  0  0  0  0
   -0.1168  -10.8190    0.0000 H   0  0  0  0  0  0  0  0  0  0  0  0
    0.3367  -13.7384    0.0000 C   0  0  0  0  0  0  0  0  0  0  0  0
    1.2769  -14.9072    0.0000 H   0  0  0  0  0  0  0  0  0  0  0  0
    1.6510  -13.0154    0.0000 H   0  0  0  0  0  0  0  0  0  0  0  0
   -0.6517  -14.8678    0.0000 C   0  0  0  0  0  0  0  0  0  0  0  0
   -1.1934  -16.2666    0.0000 H   0  0  0  0  0  0  0  0  0  0  0  0
    0.6316  -15.6444    0.0000 H   0  0  0  0  0  0  0  0  0  0  0  0
   -2.1242  -14.5774    0.0000 C   0  0  0  0  0  0  0  0  0  0  0  0
   -3.6064  -14.8077    0.0000 H   0  0  0  0  0  0  0  0  0  0  0  0
   -2.1546  -16.0771    0.0000 H   0  0  0  0  0  0  0  0  0  0  0  0
   -2.6082  -13.1577    0.0000 C   0  0  0  0  0  0  0  0  0  0  0  0
   -3.5484  -11.9889    0.0000 H   0  0  0  0  0  0  0  0  0  0  0  0
   -3.9224  -13.8807    0.0000 H   0  0  0  0  0  0  0  0  0  0  0  0
  1  2  1  0  0  0  0 
  1  3  1  0  0  0  0 
  1  4  1  0  0  0  0 
  1  5  1  0  0  0  0 
  5  6  1  0  0  0  0 
  6  7  2  0  0  0  0 
  7  8  1  0  0  0  0 
  7  9  1  0  0  0  0 
  9 10  1  0  0  0  0 
  9 11  2  0  0  0  0 
 11 12  1  0  0  0  0 
 12 13  1  0  0  0  0 
 12 14  2  0  0  0  0 
  6 14  1  0  0  0  0 
 14 15  1  0  0  0  0 
 11 16  1  0  0  0  0 
 16 17  2  0  0  0  0 
 17 18  1  0  0  0  0 
 18 19  2  0  0  0  0 
 19 20  1  0  0  0  0 
 20 21  1  0  0  0  0 
 20 22  2  0  0  0  0 
 22 23  1  0  0  0  0 
 23 24  1  0  0  0  0 
 23 25  2  0  0  0  0 
 18 25  1  0  0  0  0 
 25 26  1  0  0  0  0 
 22 27  1  0  0  0  0 
 27 28  1  0  0  0  0 
 19 29  1  0  0  0  0 
 16 29  1  0  0  0  0 
 17 30  1  0  0  0  0 
 30 31  2  0  0  0  0 
 30 32  1  0  0  0  0 
 32 33  2  0  0  0  0 
 33 34  1  0  0  0  0 
 33 35  1  0  0  0  0 
 35 36  1  0  0  0  0 
 35 37  2  0  0  0  0 
 37 38  1  0  0  0  0 
 38 39  1  0  0  0  0 
 38 40  2  0  0  0  0 
 32 40  1  0  0  0  0 
 40 41  1  0  0  0  0 
 37 42  1  0  0  0  0 
 42 43  1  0  0  0  0 
 43 44  1  0  0  0  0 
 43 45  1  0  0  0  0 
 43 46  1  0  0  0  0 
 46 47  1  0  0  0  0 
 46 48  1  0  0  0  0 
 46 49  1  0  0  0  0 
 49 50  1  0  0  0  0 
 50 51  1  0  0  0  0 
 50 52  1  0  0  0  0 
 50 53  1  0  0  0  0 
 53 54  1  0  0  0  0 
 53 55  1  0  0  0  0 
 53 56  1  0  0  0  0 
 56 57  1  0  0  0  0 
 56 58  1  0  0  0  0 
 56 59  1  0  0  0  0 
 59 60  1  0  0  0  0 
 59 61  1  0  0  0  0 
 59 62  1  0  0  0  0 
 49 62  1  0  0  0  0 
 62 63  1  0  0  0  0 
 62 64  1  0  0  0  0 
M  END
> <Rank>
15

> <Priority_score>
0.1704268545852274

> <Reaction_type>
methylation_(aromatic_OH)

> <Parent_ID>
81

> <Parent_InChI>
InChI=1S/C28H27NO4S/c30-21-8-4-20(5-9-21)28-26(24-13-10-22(31)18-25(24)34-28)27(32)19-6-11-23(12-7-19)33-17-16-29-14-2-1-3-15-29/h4-13,18,30-31H,1-3,14-17H2

> <Parent_SMILES>
O=C(c1ccc(OCCN2CCCCC2)cc1)c1c(-c2ccc(O)cc2)sc2cc(O)ccc12

$$$$
Molecule 81_metabolite 16
  CDK     0516241031

 59 63  0  0  0  0  0  0  0  0999 V2000
   -4.1995  -17.0753    0.0000 C   0  0  0  0  0  0  0  0  0  0  0  0
   -3.2903  -18.2684    0.0000 H   0  0  0  0  0  0  0  0  0  0  0  0
   -5.2163  -18.1781    0.0000 H   0  0  0  0  0  0  0  0  0  0  0  0
   -5.4629  -16.2653    0.0000 C   0  0  0  0  0  0  0  0  0  0  0  0
   -6.7956  -16.9538    0.0000 H   0  0  0  0  0  0  0  0  0  0  0  0
   -5.3927  -14.7669    0.0000 C   0  0  0  0  0  0  0  0  0  0  0  0
   -6.6551  -13.9567    0.0000 H   0  0  0  0  0  0  0  0  0  0  0  0
   -4.0590  -14.0786    0.0000 N   0  0  0  0  0  0  0  0  0  0  0  0
   -2.7955  -14.8887    0.0000 C   0  0  0  0  0  0  0  0  0  0  0  0
   -2.2174  -13.5046    0.0000 H   0  0  0  0  0  0  0  0  0  0  0  0
   -1.3321  -15.2179    0.0000 H   0  0  0  0  0  0  0  0  0  0  0  0
   -2.8658  -16.3871    0.0000 C   0  0  0  0  0  0  0  0  0  0  0  0
   -1.3780  -16.1962    0.0000 H   0  0  0  0  0  0  0  0  0  0  0  0
   -2.4197  -17.8192    0.0000 H   0  0  0  0  0  0  0  0  0  0  0  0
   -3.9663  -12.1008    0.0000 C   0  0  0  0  0  0  0  0  0  0  0  0
   -2.5029  -12.4302    0.0000 H   0  0  0  0  0  0  0  0  0  0  0  0
   -3.3878  -10.7168    0.0000 H   0  0  0  0  0  0  0  0  0  0  0  0
   -5.2288  -11.2908    0.0000 C   0  0  0  0  0  0  0  0  0  0  0  0
   -6.6921  -10.9614    0.0000 H   0  0  0  0  0  0  0  0  0  0  0  0
   -5.8072  -12.6748    0.0000 H   0  0  0  0  0  0  0  0  0  0  0  0
   -5.1585   -9.7924    0.0000 O   0  0  0  0  0  0  0  0  0  0  0  0
   -6.4210   -8.9824    0.0000 C   0  0  0  0  0  0  0  0  0  0  0  0
   -6.3614   -7.4392    0.0000 C   0  0  0  0  0  0  0  0  0  0  0  0
   -5.0321   -6.7443    0.0000 H   0  0  0  0  0  0  0  0  0  0  0  0
   -7.6040   -6.6447    0.0000 C   0  0  0  0  0  0  0  0  0  0  0  0
   -7.5288   -5.1466    0.0000 H   0  0  0  0  0  0  0  0  0  0  0  0
   -8.9424   -7.3221    0.0000 C   0  0  0  0  0  0  0  0  0  0  0  0
   -9.0381   -8.7939    0.0000 C   0  0  0  0  0  0  0  0  0  0  0  0
  -10.3853   -9.4535    0.0000 H   0  0  0  0  0  0  0  0  0  0  0  0
   -7.7594   -9.6597    0.0000 C   0  0  0  0  0  0  0  0  0  0  0  0
   -7.8543  -11.1567    0.0000 H   0  0  0  0  0  0  0  0  0  0  0  0
  -10.1941   -6.4955    0.0000 C   0  0  0  0  0  0  0  0  0  0  0  0
  -11.2255   -7.5846    0.0000 O   0  0  0  0  0  0  0  0  0  0  0  0
  -10.8953   -4.1375    0.0000 C   0  0  0  0  0  0  0  0  0  0  0  0
  -12.3070   -3.6420    0.0000 C   0  0  0  0  0  0  0  0  0  0  0  0
  -13.5413   -4.4945    0.0000 C   0  0  0  0  0  0  0  0  0  0  0  0
  -14.8934   -3.8451    0.0000 C   0  0  0  0  0  0  0  0  0  0  0  0
  -14.9998   -2.3489    0.0000 H   0  0  0  0  0  0  0  0  0  0  0  0
  -16.1193   -4.6653    0.0000 C   0  0  0  0  0  0  0  0  0  0  0  0
  -17.4628   -3.9982    0.0000 H   0  0  0  0  0  0  0  0  0  0  0  0
  -16.0276   -6.2069    0.0000 C   0  0  0  0  0  0  0  0  0  0  0  0
  -14.6754   -6.8563    0.0000 C   0  0  0  0  0  0  0  0  0  0  0  0
  -14.5493   -8.3509    0.0000 H   0  0  0  0  0  0  0  0  0  0  0  0
  -13.4149   -5.9640    0.0000 C   0  0  0  0  0  0  0  0  0  0  0  0
  -12.0543   -6.5954    0.0000 H   0  0  0  0  0  0  0  0  0  0  0  0
  -17.2730   -7.0430    0.0000 O   0  0  0  0  0  0  0  0  0  0  0  0
  -18.6197   -6.3826    0.0000 H   0  0  0  0  0  0  0  0  0  0  0  0
  -12.2706   -2.1463    0.0000 S   0  0  0  0  0  0  0  0  0  0  0  0
  -10.8325   -1.7121    0.0000 C   0  0  0  0  0  0  0  0  0  0  0  0
   -9.9801   -2.9464    0.0000 C   0  0  0  0  0  0  0  0  0  0  0  0
   -8.4842   -2.8247    0.0000 C   0  0  0  0  0  0  0  0  0  0  0  0
   -7.6318   -4.0589    0.0000 H   0  0  0  0  0  0  0  0  0  0  0  0
   -7.8407   -1.4688    0.0000 C   0  0  0  0  0  0  0  0  0  0  0  0
   -6.3456   -1.3479    0.0000 H   0  0  0  0  0  0  0  0  0  0  0  0
   -8.6932   -0.2346    0.0000 C   0  0  0  0  0  0  0  0  0  0  0  0
  -10.1891   -0.3562    0.0000 C   0  0  0  0  0  0  0  0  0  0  0  0
  -11.0415    0.8780    0.0000 H   0  0  0  0  0  0  0  0  0  0  0  0
   -8.0507    1.1209    0.0000 O   0  0  0  0  0  0  0  0  0  0  0  0
   -6.5557    1.2422    0.0000 H   0  0  0  0  0  0  0  0  0  0  0  0
  1  2  1  0  0  0  0 
  1  3  1  0  0  0  0 
  1  4  1  0  0  0  0 
  4  5  1  0  0  0  0 
  4  6  2  0  0  0  0 
  6  7  1  0  0  0  0 
  6  8  1  0  0  0  0 
  8  9  1  0  0  0  0 
  9 10  1  0  0  0  0 
  9 11  1  0  0  0  0 
  9 12  1  0  0  0  0 
  1 12  1  0  0  0  0 
 12 13  1  0  0  0  0 
 12 14  1  0  0  0  0 
  8 15  1  0  0  0  0 
 15 16  1  0  0  0  0 
 15 17  1  0  0  0  0 
 15 18  1  0  0  0  0 
 18 19  1  0  0  0  0 
 18 20  1  0  0  0  0 
 18 21  1  0  0  0  0 
 21 22  1  0  0  0  0 
 22 23  2  0  0  0  0 
 23 24  1  0  0  0  0 
 23 25  1  0  0  0  0 
 25 26  1  0  0  0  0 
 25 27  2  0  0  0  0 
 27 28  1  0  0  0  0 
 28 29  1  0  0  0  0 
 28 30  2  0  0  0  0 
 22 30  1  0  0  0  0 
 30 31  1  0  0  0  0 
 27 32  1  0  0  0  0 
 32 33  2  0  0  0  0 
 32 34  1  0  0  0  0 
 34 35  2  0  0  0  0 
 35 36  1  0  0  0  0 
 36 37  2  0  0  0  0 
 37 38  1  0  0  0  0 
 37 39  1  0  0  0  0 
 39 40  1  0  0  0  0 
 39 41  2  0  0  0  0 
 41 42  1  0  0  0  0 
 42 43  1  0  0  0  0 
 42 44  2  0  0  0  0 
 36 44  1  0  0  0  0 
 44 45  1  0  0  0  0 
 41 46  1  0  0  0  0 
 46 47  1  0  0  0  0 
 35 48  1  0  0  0  0 
 48 49  1  0  0  0  0 
 49 50  2  0  0  0  0 
 34 50  1  0  0  0  0 
 50 51  1  0  0  0  0 
 51 52  1  0  0  0  0 
 51 53  2  0  0  0  0 
 53 54  1  0  0  0  0 
 53 55  1  0  0  0  0 
 55 56  2  0  0  0  0 
 49 56  1  0  0  0  0 
 56 57  1  0  0  0  0 
 55 58  1  0  0  0  0 
 58 59  1  0  0  0  0 
M  END
> <Rank>
16

> <Priority_score>
0.15360000000000001

> <Reaction_type>
alkyl dehydrogenation

> <Parent_ID>
81

> <Parent_InChI>
InChI=1S/C28H27NO4S/c30-21-8-4-20(5-9-21)28-26(24-13-10-22(31)18-25(24)34-28)27(32)19-6-11-23(12-7-19)33-17-16-29-14-2-1-3-15-29/h4-13,18,30-31H,1-3,14-17H2

> <Parent_SMILES>
O=C(c1ccc(OCCN2CCCCC2)cc1)c1c(-c2ccc(O)cc2)sc2cc(O)ccc12

$$$$
Molecule 81_metabolite 17
  CDK     0516241031

 60 64  0  0  0  0  0  0  0  0999 V2000
   -4.1995  -17.0753    0.0000 C   0  0  0  0  0  0  0  0  0  0  0  0
   -3.2903  -18.2684    0.0000 H   0  0  0  0  0  0  0  0  0  0  0  0
   -5.2163  -18.1781    0.0000 H   0  0  0  0  0  0  0  0  0  0  0  0
   -5.4629  -16.2653    0.0000 C   0  0  0  0  0  0  0  0  0  0  0  0
   -6.0411  -17.6494    0.0000 H   0  0  0  0  0  0  0  0  0  0  0  0
   -6.9264  -15.9361    0.0000 H   0  0  0  0  0  0  0  0  0  0  0  0
   -5.3927  -14.7669    0.0000 C   0  0  0  0  0  0  0  0  0  0  0  0
   -6.6551  -13.9567    0.0000 H   0  0  0  0  0  0  0  0  0  0  0  0
   -4.0590  -14.0786    0.0000 N   0  0  0  0  0  0  0  0  0  0  0  0
   -2.7955  -14.8887    0.0000 C   0  0  0  0  0  0  0  0  0  0  0  0
   -2.2174  -13.5046    0.0000 H   0  0  0  0  0  0  0  0  0  0  0  0
   -1.3321  -15.2179    0.0000 H   0  0  0  0  0  0  0  0  0  0  0  0
   -2.8658  -16.3871    0.0000 C   0  0  0  0  0  0  0  0  0  0  0  0
   -1.3780  -16.1962    0.0000 H   0  0  0  0  0  0  0  0  0  0  0  0
   -2.4197  -17.8192    0.0000 H   0  0  0  0  0  0  0  0  0  0  0  0
   -3.9663  -12.1008    0.0000 C   0  0  0  0  0  0  0  0  0  0  0  0
   -2.5029  -12.4302    0.0000 H   0  0  0  0  0  0  0  0  0  0  0  0
   -3.3878  -10.7168    0.0000 H   0  0  0  0  0  0  0  0  0  0  0  0
   -5.2288  -11.2908    0.0000 C   0  0  0  0  0  0  0  0  0  0  0  0
   -6.6921  -10.9614    0.0000 H   0  0  0  0  0  0  0  0  0  0  0  0
   -5.8072  -12.6748    0.0000 H   0  0  0  0  0  0  0  0  0  0  0  0
   -5.1585   -9.7924    0.0000 O   0  0  0  0  0  0  0  0  0  0  0  0
   -6.4210   -8.9824    0.0000 C   0  0  0  0  0  0  0  0  0  0  0  0
   -6.3614   -7.4392    0.0000 C   0  0  0  0  0  0  0  0  0  0  0  0
   -5.0321   -6.7443    0.0000 H   0  0  0  0  0  0  0  0  0  0  0  0
   -7.6040   -6.6447    0.0000 C   0  0  0  0  0  0  0  0  0  0  0  0
   -7.5288   -5.1466    0.0000 H   0  0  0  0  0  0  0  0  0  0  0  0
   -8.9424   -7.3221    0.0000 C   0  0  0  0  0  0  0  0  0  0  0  0
   -9.0381   -8.7939    0.0000 C   0  0  0  0  0  0  0  0  0  0  0  0
  -10.3853   -9.4535    0.0000 H   0  0  0  0  0  0  0  0  0  0  0  0
   -7.7594   -9.6597    0.0000 C   0  0  0  0  0  0  0  0  0  0  0  0
   -7.8543  -11.1567    0.0000 H   0  0  0  0  0  0  0  0  0  0  0  0
  -10.1941   -6.4955    0.0000 C   0  0  0  0  0  0  0  0  0  0  0  0
  -11.2255   -7.5846    0.0000 O   0  0  0  0  0  0  0  0  0  0  0  0
  -10.8953   -4.1375    0.0000 C   0  0  0  0  0  0  0  0  0  0  0  0
  -12.3070   -3.6420    0.0000 C   0  0  0  0  0  0  0  0  0  0  0  0
  -13.5413   -4.4945    0.0000 C   0  0  0  0  0  0  0  0  0  0  0  0
  -14.8934   -3.8451    0.0000 C   0  0  0  0  0  0  0  0  0  0  0  0
  -14.9998   -2.3489    0.0000 H   0  0  0  0  0  0  0  0  0  0  0  0
  -16.1193   -4.6653    0.0000 C   0  0  0  0  0  0  0  0  0  0  0  0
  -17.4628   -3.9982    0.0000 H   0  0  0  0  0  0  0  0  0  0  0  0
  -16.0276   -6.2069    0.0000 C   0  0  0  0  0  0  0  0  0  0  0  0
  -14.6754   -6.8563    0.0000 C   0  0  0  0  0  0  0  0  0  0  0  0
  -14.5493   -8.3509    0.0000 H   0  0  0  0  0  0  0  0  0  0  0  0
  -13.4149   -5.9640    0.0000 C   0  0  0  0  0  0  0  0  0  0  0  0
  -12.0543   -6.5954    0.0000 H   0  0  0  0  0  0  0  0  0  0  0  0
  -17.2730   -7.0430    0.0000 O   0  0  0  0  0  0  0  0  0  0  0  0
  -18.6197   -6.3826    0.0000 H   0  0  0  0  0  0  0  0  0  0  0  0
  -12.2706   -2.1463    0.0000 S   0  0  0  0  0  0  0  0  0  0  0  0
  -10.8325   -1.7121    0.0000 C   0  0  0  0  0  0  0  0  0  0  0  0
   -9.9801   -2.9464    0.0000 C   0  0  0  0  0  0  0  0  0  0  0  0
   -8.4842   -2.8247    0.0000 C   0  0  0  0  0  0  0  0  0  0  0  0
   -7.6318   -4.0589    0.0000 H   0  0  0  0  0  0  0  0  0  0  0  0
   -7.8407   -1.4688    0.0000 C   0  0  0  0  0  0  0  0  0  0  0  0
   -6.3456   -1.3479    0.0000 H   0  0  0  0  0  0  0  0  0  0  0  0
   -8.6932   -0.2346    0.0000 C   0  0  0  0  0  0  0  0  0  0  0  0
  -10.1891   -0.3562    0.0000 C   0  0  0  0  0  0  0  0  0  0  0  0
  -11.0415    0.8780    0.0000 H   0  0  0  0  0  0  0  0  0  0  0  0
   -8.0507    1.1209    0.0000 O   0  0  0  0  0  0  0  0  0  0  0  0
   -6.5557    1.2422    0.0000 H   0  0  0  0  0  0  0  0  0  0  0  0
  1  2  1  0  0  0  0 
  1  3  1  0  0  0  0 
  1  4  1  0  0  0  0 
  4  5  1  0  0  0  0 
  4  6  1  0  0  0  0 
  4  7  1  0  0  0  0 
  7  8  1  0  0  0  0 
  7  9  2  0  0  0  0 
  9 10  1  0  0  0  0 
 10 11  1  0  0  0  0 
 10 12  1  0  0  0  0 
 10 13  1  0  0  0  0 
  1 13  1  0  0  0  0 
 13 14  1  0  0  0  0 
 13 15  1  0  0  0  0 
  9 16  1  0  0  0  0 
 16 17  1  0  0  0  0 
 16 18  1  0  0  0  0 
 16 19  1  0  0  0  0 
 19 20  1  0  0  0  0 
 19 21  1  0  0  0  0 
 19 22  1  0  0  0  0 
 22 23  1  0  0  0  0 
 23 24  2  0  0  0  0 
 24 25  1  0  0  0  0 
 24 26  1  0  0  0  0 
 26 27  1  0  0  0  0 
 26 28  2  0  0  0  0 
 28 29  1  0  0  0  0 
 29 30  1  0  0  0  0 
 29 31  2  0  0  0  0 
 23 31  1  0  0  0  0 
 31 32  1  0  0  0  0 
 28 33  1  0  0  0  0 
 33 34  2  0  0  0  0 
 33 35  1  0  0  0  0 
 35 36  2  0  0  0  0 
 36 37  1  0  0  0  0 
 37 38  2  0  0  0  0 
 38 39  1  0  0  0  0 
 38 40  1  0  0  0  0 
 40 41  1  0  0  0  0 
 40 42  2  0  0  0  0 
 42 43  1  0  0  0  0 
 43 44  1  0  0  0  0 
 43 45  2  0  0  0  0 
 37 45  1  0  0  0  0 
 45 46  1  0  0  0  0 
 42 47  1  0  0  0  0 
 47 48  1  0  0  0  0 
 36 49  1  0  0  0  0 
 49 50  1  0  0  0  0 
 50 51  2  0  0  0  0 
 35 51  1  0  0  0  0 
 51 52  1  0  0  0  0 
 52 53  1  0  0  0  0 
 52 54  2  0  0  0  0 
 54 55  1  0  0  0  0 
 54 56  1  0  0  0  0 
 56 57  2  0  0  0  0 
 50 57  1  0  0  0  0 
 57 58  1  0  0  0  0 
 56 59  1  0  0  0  0 
 59 60  1  0  0  0  0 
M  CHG  1   9   1
M  END
> <Rank>
16

> <Priority_score>
0.15360000000000001

> <Reaction_type>
dehydration of N-C bond

> <Parent_ID>
81

> <Parent_InChI>
InChI=1S/C28H27NO4S/c30-21-8-4-20(5-9-21)28-26(24-13-10-22(31)18-25(24)34-28)27(32)19-6-11-23(12-7-19)33-17-16-29-14-2-1-3-15-29/h4-13,18,30-31H,1-3,14-17H2

> <Parent_SMILES>
O=C(c1ccc(OCCN2CCCCC2)cc1)c1c(-c2ccc(O)cc2)sc2cc(O)ccc12

$$$$
Molecule 81_metabolite 18
  CDK     0516241031

 62 65  0  0  0  0  0  0  0  0999 V2000
   -3.1771   -6.5625    0.0000 C   0  0  0  0  0  0  0  0  0  0  0  0
   -3.6903   -5.1530    0.0000 H   0  0  0  0  0  0  0  0  0  0  0  0
   -4.6543   -6.8228    0.0000 H   0  0  0  0  0  0  0  0  0  0  0  0
   -3.1776   -8.0633    0.0000 C   0  0  0  0  0  0  0  0  0  0  0  0
   -4.6547   -7.8025    0.0000 H   0  0  0  0  0  0  0  0  0  0  0  0
   -3.6908   -9.4728    0.0000 H   0  0  0  0  0  0  0  0  0  0  0  0
   -1.8785   -8.8133    0.0000 C   0  0  0  0  0  0  0  0  0  0  0  0
   -2.8426   -9.9625    0.0000 H   0  0  0  0  0  0  0  0  0  0  0  0
   -0.9141   -9.9622    0.0000 H   0  0  0  0  0  0  0  0  0  0  0  0
   -0.5790   -8.0625    0.0000 N   0  0  0  0  0  0  0  0  0  0  0  0
   -0.5785   -6.5617    0.0000 C   0  0  0  0  0  0  0  0  0  0  0  0
    0.8986   -6.8224    0.0000 H   0  0  0  0  0  0  0  0  0  0  0  0
   -0.0654   -5.1522    0.0000 H   0  0  0  0  0  0  0  0  0  0  0  0
   -1.8776   -5.8117    0.0000 C   0  0  0  0  0  0  0  0  0  0  0  0
   -0.9135   -4.6625    0.0000 H   0  0  0  0  0  0  0  0  0  0  0  0
   -2.8420   -4.6628    0.0000 H   0  0  0  0  0  0  0  0  0  0  0  0
    1.1357   -9.0525    0.0000 C   0  0  0  0  0  0  0  0  0  0  0  0
    0.1715  -10.2016    0.0000 H   0  0  0  0  0  0  0  0  0  0  0  0
    2.0999  -10.2016    0.0000 H   0  0  0  0  0  0  0  0  0  0  0  0
    2.4347   -8.3025    0.0000 C   0  0  0  0  0  0  0  0  0  0  0  0
    3.9120   -8.0420    0.0000 H   0  0  0  0  0  0  0  0  0  0  0  0
    2.9478   -9.7120    0.0000 H   0  0  0  0  0  0  0  0  0  0  0  0
    2.4347   -6.8025    0.0000 O   0  0  0  0  0  0  0  0  0  0  0  0
    3.7338   -6.0525    0.0000 C   0  0  0  0  0  0  0  0  0  0  0  0
    3.7465   -4.5082    0.0000 C   0  0  0  0  0  0  0  0  0  0  0  0
    2.4512   -3.7518    0.0000 H   0  0  0  0  0  0  0  0  0  0  0  0
    5.0250   -3.7728    0.0000 C   0  0  0  0  0  0  0  0  0  0  0  0
    5.0200   -2.2728    0.0000 H   0  0  0  0  0  0  0  0  0  0  0  0
    6.3302   -4.5120    0.0000 C   0  0  0  0  0  0  0  0  0  0  0  0
    6.3569   -5.9867    0.0000 C   0  0  0  0  0  0  0  0  0  0  0  0
    7.6717   -6.7087    0.0000 H   0  0  0  0  0  0  0  0  0  0  0  0
    5.0390   -6.7917    0.0000 C   0  0  0  0  0  0  0  0  0  0  0  0
    5.0637   -8.2915    0.0000 H   0  0  0  0  0  0  0  0  0  0  0  0
    7.6192   -3.7450    0.0000 C   0  0  0  0  0  0  0  0  0  0  0  0
    8.9280   -4.4778    0.0000 O   0  0  0  0  0  0  0  0  0  0  0  0
    7.5995   -2.2451    0.0000 C   0  0  0  0  0  0  0  0  0  0  0  0
    6.2907   -1.5123    0.0000 H   0  0  0  0  0  0  0  0  0  0  0  0
    9.7135   -0.9872    0.0000 C   0  0  0  0  0  0  0  0  0  0  0  0
   11.4411   -1.9545    0.0000 C   0  0  0  0  0  0  0  0  0  0  0  0
   11.4535   -3.4544    0.0000 C   0  0  0  0  0  0  0  0  0  0  0  0
   10.1570   -4.2088    0.0000 H   0  0  0  0  0  0  0  0  0  0  0  0
   12.7297   -4.1939    0.0000 C   0  0  0  0  0  0  0  0  0  0  0  0
   12.7223   -5.6939    0.0000 H   0  0  0  0  0  0  0  0  0  0  0  0
   14.0734   -3.4328    0.0000 C   0  0  0  0  0  0  0  0  0  0  0  0
   14.0611   -1.9329    0.0000 C   0  0  0  0  0  0  0  0  0  0  0  0
   15.3475   -1.1615    0.0000 H   0  0  0  0  0  0  0  0  0  0  0  0
   12.7049   -1.1940    0.0000 C   0  0  0  0  0  0  0  0  0  0  0  0
   12.6728    0.3056    0.0000 H   0  0  0  0  0  0  0  0  0  0  0  0
   15.3725   -4.1828    0.0000 O   0  0  0  0  0  0  0  0  0  0  0  0
   16.6715   -3.4328    0.0000 H   0  0  0  0  0  0  0  0  0  0  0  0
    9.6938    0.5127    0.0000 S   0  0  0  0  0  0  0  0  0  0  0  0
    8.3850    1.2455    0.0000 C   0  0  0  0  0  0  0  0  0  0  0  0
    7.0951    0.4783    0.0000 C   0  0  0  0  0  0  0  0  0  0  0  0
    7.3752   -0.9953    0.0000 H   0  0  0  0  0  0  0  0  0  0  0  0
    5.7852    1.2109    0.0000 C   0  0  0  0  0  0  0  0  0  0  0  0
    4.4964    0.4434    0.0000 O   0  0  0  0  0  0  0  0  0  0  0  0
    5.7652    2.7107    0.0000 C   0  0  0  0  0  0  0  0  0  0  0  0
    4.4564    3.4436    0.0000 H   0  0  0  0  0  0  0  0  0  0  0  0
    7.0551    3.4780    0.0000 C   0  0  0  0  0  0  0  0  0  0  0  0
    7.0351    4.9779    0.0000 H   0  0  0  0  0  0  0  0  0  0  0  0
    8.3650    2.7454    0.0000 C   0  0  0  0  0  0  0  0  0  0  0  0
    9.6538    3.5129    0.0000 O   0  0  0  0  0  0  0  0  0  0  0  0
  1  2  1  0  0  0  0 
  1  3  1  0  0  0  0 
  1  4  1  0  0  0  0 
  4  5  1  0  0  0  0 
  4  6  1  0  0  0  0 
  4  7  1  0  0  0  0 
  7  8  1  0  0  0  0 
  7  9  1  0  0  0  0 
  7 10  1  0  0  0  0 
 10 11  1  0  0  0  0 
 11 12  1  0  0  0  0 
 11 13  1  0  0  0  0 
 11 14  1  0  0  0  0 
  1 14  1  0  0  0  0 
 14 15  1  0  0  0  0 
 14 16  1  0  0  0  0 
 10 17  1  0  0  0  0 
 17 18  1  0  0  0  0 
 17 19  1  0  0  0  0 
 17 20  1  0  0  0  0 
 20 21  1  0  0  0  0 
 20 22  1  0  0  0  0 
 20 23  1  0  0  0  0 
 23 24  1  0  0  0  0 
 24 25  2  0  0  0  0 
 25 26  1  0  0  0  0 
 25 27  1  0  0  0  0 
 27 28  1  0  0  0  0 
 27 29  2  0  0  0  0 
 29 30  1  0  0  0  0 
 30 31  1  0  0  0  0 
 30 32  2  0  0  0  0 
 24 32  1  0  0  0  0 
 32 33  1  0  0  0  0 
 29 34  1  0  0  0  0 
 34 35  2  0  0  0  0 
 34 36  1  0  0  0  0 
 36 37  1  4  0  0  0 
 36 38  2  0  0  0  0 
 38 39  1  0  0  0  0 
 39 40  2  0  0  0  0 
 40 41  1  0  0  0  0 
 40 42  1  0  0  0  0 
 42 43  1  0  0  0  0 
 42 44  2  0  0  0  0 
 44 45  1  0  0  0  0 
 45 46  1  0  0  0  0 
 45 47  2  0  0  0  0 
 39 47  1  0  0  0  0 
 47 48  1  0  0  0  0 
 44 49  1  0  0  0  0 
 49 50  1  0  0  0  0 
 38 51  1  0  0  0  0 
 51 52  1  0  0  0  0 
 52 53  2  0  0  0  0 
 53 54  1  0  0  0  0 
 53 55  1  0  0  0  0 
 55 56  2  0  0  0  0 
 55 57  1  0  0  0  0 
 57 58  1  0  0  0  0 
 57 59  2  0  0  0  0 
 59 60  1  0  0  0  0 
 59 61  1  0  0  0  0 
 52 61  1  0  0  0  0 
 61 62  2  0  0  0  0 
M  END
> <Rank>
18

> <Priority_score>
0.1312

> <Reaction_type>
oxidation of 4-substituted phenol to quinone

> <Parent_ID>
81

> <Parent_InChI>
InChI=1S/C28H27NO4S/c30-21-8-4-20(5-9-21)28-26(24-13-10-22(31)18-25(24)34-28)27(32)19-6-11-23(12-7-19)33-17-16-29-14-2-1-3-15-29/h4-13,18,30-31H,1-3,14-17H2

> <Parent_SMILES>
O=C(c1ccc(OCCN2CCCCC2)cc1)c1c(-c2ccc(O)cc2)sc2cc(O)ccc12

$$$$
Molecule 81_metabolite 19
  CDK     0516241031

 62 66  0  0  0  0  0  0  0  0999 V2000
   -4.0246  -12.0382    0.0000 C   0  0  0  0  0  0  0  0  0  0  0  0
   -3.1154  -13.2312    0.0000 H   0  0  0  0  0  0  0  0  0  0  0  0
   -5.0414  -13.1409    0.0000 H   0  0  0  0  0  0  0  0  0  0  0  0
   -5.2881  -11.2281    0.0000 C   0  0  0  0  0  0  0  0  0  0  0  0
   -5.8662  -12.6122    0.0000 H   0  0  0  0  0  0  0  0  0  0  0  0
   -6.7515  -10.8989    0.0000 H   0  0  0  0  0  0  0  0  0  0  0  0
   -5.2178   -9.7298    0.0000 C   0  0  0  0  0  0  0  0  0  0  0  0
   -6.7056   -9.9206    0.0000 H   0  0  0  0  0  0  0  0  0  0  0  0
   -5.6640   -8.2977    0.0000 H   0  0  0  0  0  0  0  0  0  0  0  0
   -3.8841   -9.0415    0.0000 N   0  0  0  0  0  0  0  0  0  0  0  0
   -2.6207   -9.8515    0.0000 C   0  0  0  0  0  0  0  0  0  0  0  0
   -2.0425   -8.4674    0.0000 H   0  0  0  0  0  0  0  0  0  0  0  0
   -1.1572  -10.1807    0.0000 H   0  0  0  0  0  0  0  0  0  0  0  0
   -2.6909  -11.3499    0.0000 C   0  0  0  0  0  0  0  0  0  0  0  0
   -1.2031  -11.1590    0.0000 H   0  0  0  0  0  0  0  0  0  0  0  0
   -2.2448  -12.7820    0.0000 H   0  0  0  0  0  0  0  0  0  0  0  0
   -3.7914   -7.0636    0.0000 C   0  0  0  0  0  0  0  0  0  0  0  0
   -5.2792   -7.2547    0.0000 H   0  0  0  0  0  0  0  0  0  0  0  0
   -4.2378   -5.6316    0.0000 H   0  0  0  0  0  0  0  0  0  0  0  0
   -2.4586   -6.3753    0.0000 C   0  0  0  0  0  0  0  0  0  0  0  0
   -1.4417   -5.2727    0.0000 H   0  0  0  0  0  0  0  0  0  0  0  0
   -3.3680   -5.1823    0.0000 H   0  0  0  0  0  0  0  0  0  0  0  0
   -1.1962   -7.1853    0.0000 O   0  0  0  0  0  0  0  0  0  0  0  0
    0.1366   -6.4970    0.0000 C   0  0  0  0  0  0  0  0  0  0  0  0
    1.4432   -7.3202    0.0000 C   0  0  0  0  0  0  0  0  0  0  0  0
    1.3804   -8.8189    0.0000 H   0  0  0  0  0  0  0  0  0  0  0  0
    2.7526   -6.6413    0.0000 C   0  0  0  0  0  0  0  0  0  0  0  0
    4.0124   -7.4555    0.0000 H   0  0  0  0  0  0  0  0  0  0  0  0
    2.8352   -5.1436    0.0000 C   0  0  0  0  0  0  0  0  0  0  0  0
    1.6084   -4.3247    0.0000 C   0  0  0  0  0  0  0  0  0  0  0  0
    1.7108   -2.8282    0.0000 H   0  0  0  0  0  0  0  0  0  0  0  0
    0.2192   -4.9993    0.0000 C   0  0  0  0  0  0  0  0  0  0  0  0
   -1.0298   -4.1685    0.0000 H   0  0  0  0  0  0  0  0  0  0  0  0
    4.1769   -4.4728    0.0000 C   0  0  0  0  0  0  0  0  0  0  0  0
    3.7494   -3.0351    0.0000 O   0  0  0  0  0  0  0  0  0  0  0  0
    6.5695   -5.0446    0.0000 C   0  0  0  0  0  0  0  0  0  0  0  0
    7.7045   -4.0697    0.0000 C   0  0  0  0  0  0  0  0  0  0  0  0
    7.5834   -2.5746    0.0000 C   0  0  0  0  0  0  0  0  0  0  0  0
    8.8218   -1.7283    0.0000 C   0  0  0  0  0  0  0  0  0  0  0  0
   10.1708   -2.3842    0.0000 H   0  0  0  0  0  0  0  0  0  0  0  0
    8.7245   -0.2566    0.0000 C   0  0  0  0  0  0  0  0  0  0  0  0
    9.9739    0.5734    0.0000 H   0  0  0  0  0  0  0  0  0  0  0  0
    7.3435    0.4348    0.0000 C   0  0  0  0  0  0  0  0  0  0  0  0
    6.1051   -0.4115    0.0000 C   0  0  0  0  0  0  0  0  0  0  0  0
    4.7476    0.2266    0.0000 H   0  0  0  0  0  0  0  0  0  0  0  0
    6.2476   -1.9493    0.0000 C   0  0  0  0  0  0  0  0  0  0  0  0
    5.0205   -2.8119    0.0000 H   0  0  0  0  0  0  0  0  0  0  0  0
    7.2421    1.9314    0.0000 O   0  0  0  0  0  0  0  0  0  0  0  0
    8.4875    2.7675    0.0000 H   0  0  0  0  0  0  0  0  0  0  0  0
    8.9816   -4.8492    0.0000 S   0  0  0  0  0  0  0  0  0  0  0  0
   10.3654   -4.2703    0.0000 O   0  0  0  0  0  0  0  0  0  0  0  0
    8.6386   -6.3116    0.0000 C   0  0  0  0  0  0  0  0  0  0  0  0
    7.1435   -6.4327    0.0000 C   0  0  0  0  0  0  0  0  0  0  0  0
    6.5009   -7.7891    0.0000 C   0  0  0  0  0  0  0  0  0  0  0  0
    5.0058   -7.9102    0.0000 H   0  0  0  0  0  0  0  0  0  0  0  0
    7.3534   -9.0243    0.0000 C   0  0  0  0  0  0  0  0  0  0  0  0
    6.7106  -10.3795    0.0000 H   0  0  0  0  0  0  0  0  0  0  0  0
    8.8485   -8.9031    0.0000 C   0  0  0  0  0  0  0  0  0  0  0  0
    9.4911   -7.5468    0.0000 C   0  0  0  0  0  0  0  0  0  0  0  0
   10.9862   -7.4257    0.0000 H   0  0  0  0  0  0  0  0  0  0  0  0
    9.7012  -10.1372    0.0000 O   0  0  0  0  0  0  0  0  0  0  0  0
    9.0587  -11.4927    0.0000 H   0  0  0  0  0  0  0  0  0  0  0  0
  1  2  1  0  0  0  0 
  1  3  1  0  0  0  0 
  1  4  1  0  0  0  0 
  4  5  1  0  0  0  0 
  4  6  1  0  0  0  0 
  4  7  1  0  0  0  0 
  7  8  1  0  0  0  0 
  7  9  1  0  0  0  0 
  7 10  1  0  0  0  0 
 10 11  1  0  0  0  0 
 11 12  1  0  0  0  0 
 11 13  1  0  0  0  0 
 11 14  1  0  0  0  0 
  1 14  1  0  0  0  0 
 14 15  1  0  0  0  0 
 14 16  1  0  0  0  0 
 10 17  1  0  0  0  0 
 17 18  1  0  0  0  0 
 17 19  1  0  0  0  0 
 17 20  1  0  0  0  0 
 20 21  1  0  0  0  0 
 20 22  1  0  0  0  0 
 20 23  1  0  0  0  0 
 23 24  1  0  0  0  0 
 24 25  2  0  0  0  0 
 25 26  1  0  0  0  0 
 25 27  1  0  0  0  0 
 27 28  1  0  0  0  0 
 27 29  2  0  0  0  0 
 29 30  1  0  0  0  0 
 30 31  1  0  0  0  0 
 30 32  2  0  0  0  0 
 24 32  1  0  0  0  0 
 32 33  1  0  0  0  0 
 29 34  1  0  0  0  0 
 34 35  2  0  0  0  0 
 34 36  1  0  0  0  0 
 36 37  2  0  0  0  0 
 37 38  1  0  0  0  0 
 38 39  2  0  0  0  0 
 39 40  1  0  0  0  0 
 39 41  1  0  0  0  0 
 41 42  1  0  0  0  0 
 41 43  2  0  0  0  0 
 43 44  1  0  0  0  0 
 44 45  1  0  0  0  0 
 44 46  2  0  0  0  0 
 38 46  1  0  0  0  0 
 46 47  1  0  0  0  0 
 43 48  1  0  0  0  0 
 48 49  1  0  0  0  0 
 37 50  1  0  0  0  0 
 50 51  2  0  0  0  0 
 50 52  1  0  0  0  0 
 52 53  2  0  0  0  0 
 36 53  1  0  0  0  0 
 53 54  1  0  0  0  0 
 54 55  1  0  0  0  0 
 54 56  2  0  0  0  0 
 56 57  1  0  0  0  0 
 56 58  1  0  0  0  0 
 58 59  2  0  0  0  0 
 52 59  1  0  0  0  0 
 59 60  1  0  0  0  0 
 58 61  1  0  0  0  0 
 61 62  1  0  0  0  0 
M  END
> <Rank>
19

> <Priority_score>
0.1

> <Reaction_type>
sulfide_oxidation_(c-S-c)

> <Parent_ID>
81

> <Parent_InChI>
InChI=1S/C28H27NO4S/c30-21-8-4-20(5-9-21)28-26(24-13-10-22(31)18-25(24)34-28)27(32)19-6-11-23(12-7-19)33-17-16-29-14-2-1-3-15-29/h4-13,18,30-31H,1-3,14-17H2

> <Parent_SMILES>
O=C(c1ccc(OCCN2CCCCC2)cc1)c1c(-c2ccc(O)cc2)sc2cc(O)ccc12

$$$$
Molecule 81_metabolite 20
  CDK     0516241031

 50 53  0  0  0  0  0  0  0  0999 V2000
   11.6416  -10.2811    0.0000 C   0  0  0  0  0  0  0  0  0  0  0  0
   11.0999  -11.6799    0.0000 H   0  0  0  0  0  0  0  0  0  0  0  0
   12.9249  -11.0577    0.0000 H   0  0  0  0  0  0  0  0  0  0  0  0
   12.6300   -9.1517    0.0000 C   0  0  0  0  0  0  0  0  0  0  0  0
   13.5702  -10.3205    0.0000 H   0  0  0  0  0  0  0  0  0  0  0  0
   13.9442   -8.4287    0.0000 H   0  0  0  0  0  0  0  0  0  0  0  0
   12.1460   -7.7320    0.0000 C   0  0  0  0  0  0  0  0  0  0  0  0
   13.6282   -7.5017    0.0000 H   0  0  0  0  0  0  0  0  0  0  0  0
   12.1764   -6.2323    0.0000 H   0  0  0  0  0  0  0  0  0  0  0  0
   10.6735   -7.4416    0.0000 N   0  0  0  0  0  0  0  0  0  0  0  0
    9.6851   -8.5710    0.0000 C   0  0  0  0  0  0  0  0  0  0  0  0
    8.7449   -7.4022    0.0000 H   0  0  0  0  0  0  0  0  0  0  0  0
    8.3709   -9.2940    0.0000 H   0  0  0  0  0  0  0  0  0  0  0  0
   10.1691   -9.9907    0.0000 C   0  0  0  0  0  0  0  0  0  0  0  0
    8.6869  -10.2210    0.0000 H   0  0  0  0  0  0  0  0  0  0  0  0
   10.1387  -11.4904    0.0000 H   0  0  0  0  0  0  0  0  0  0  0  0
   10.0346   -5.5675    0.0000 C   0  0  0  0  0  0  0  0  0  0  0  0
   11.5169   -5.3374    0.0000 H   0  0  0  0  0  0  0  0  0  0  0  0
   10.0654   -4.0678    0.0000 H   0  0  0  0  0  0  0  0  0  0  0  0
    8.5631   -5.2768    0.0000 C   0  0  0  0  0  0  0  0  0  0  0  0
    7.2797   -4.5003    0.0000 H   0  0  0  0  0  0  0  0  0  0  0  0
    9.1049   -3.8781    0.0000 H   0  0  0  0  0  0  0  0  0  0  0  0
    7.5755   -6.4058    0.0000 O   0  0  0  0  0  0  0  0  0  0  0  0
    6.1040   -6.1151    0.0000 C   0  0  0  0  0  0  0  0  0  0  0  0
    5.0777   -7.2691    0.0000 C   0  0  0  0  0  0  0  0  0  0  0  0
    5.5547   -8.6913    0.0000 H   0  0  0  0  0  0  0  0  0  0  0  0
    3.6312   -6.9810    0.0000 C   0  0  0  0  0  0  0  0  0  0  0  0
    2.6474   -8.1133    0.0000 H   0  0  0  0  0  0  0  0  0  0  0  0
    3.1355   -5.5653    0.0000 C   0  0  0  0  0  0  0  0  0  0  0  0
    4.0862   -4.4377    0.0000 C   0  0  0  0  0  0  0  0  0  0  0  0
    3.5719   -3.0286    0.0000 H   0  0  0  0  0  0  0  0  0  0  0  0
    5.6083   -4.6994    0.0000 C   0  0  0  0  0  0  0  0  0  0  0  0
    6.5770   -3.5542    0.0000 H   0  0  0  0  0  0  0  0  0  0  0  0
    1.6602   -5.2940    0.0000 C   0  0  0  0  0  0  0  0  0  0  0  0
    1.1575   -3.8807    0.0000 O   0  0  0  0  0  0  0  0  0  0  0  0
    0.3764   -6.8014    0.0000 C   0  0  0  0  0  0  0  0  0  0  0  0
    0.7302   -8.2551    0.0000 C   0  0  0  0  0  0  0  0  0  0  0  0
    2.1175   -8.8255    0.0000 H   0  0  0  0  0  0  0  0  0  0  0  0
   -0.5438   -9.0396    0.0000 S   0  0  0  0  0  0  0  0  0  0  0  0
   -1.6915   -8.0704    0.0000 C   0  0  0  0  0  0  0  0  0  0  0  0
   -1.1211   -6.6830    0.0000 C   0  0  0  0  0  0  0  0  0  0  0  0
   -2.0383   -5.4950    0.0000 C   0  0  0  0  0  0  0  0  0  0  0  0
   -1.4679   -4.1077    0.0000 H   0  0  0  0  0  0  0  0  0  0  0  0
   -3.5258   -5.6944    0.0000 C   0  0  0  0  0  0  0  0  0  0  0  0
   -4.4419   -4.5066    0.0000 H   0  0  0  0  0  0  0  0  0  0  0  0
   -4.0962   -7.0817    0.0000 C   0  0  0  0  0  0  0  0  0  0  0  0
   -3.1790   -8.2697    0.0000 C   0  0  0  0  0  0  0  0  0  0  0  0
   -3.7494   -9.6570    0.0000 H   0  0  0  0  0  0  0  0  0  0  0  0
   -5.5828   -7.2816    0.0000 O   0  0  0  0  0  0  0  0  0  0  0  0
   -6.1530   -8.6690    0.0000 H   0  0  0  0  0  0  0  0  0  0  0  0
  1  2  1  0  0  0  0 
  1  3  1  0  0  0  0 
  1  4  1  0  0  0  0 
  4  5  1  0  0  0  0 
  4  6  1  0  0  0  0 
  4  7  1  0  0  0  0 
  7  8  1  0  0  0  0 
  7  9  1  0  0  0  0 
  7 10  1  0  0  0  0 
 10 11  1  0  0  0  0 
 11 12  1  0  0  0  0 
 11 13  1  0  0  0  0 
 11 14  1  0  0  0  0 
  1 14  1  0  0  0  0 
 14 15  1  0  0  0  0 
 14 16  1  0  0  0  0 
 10 17  1  0  0  0  0 
 17 18  1  0  0  0  0 
 17 19  1  0  0  0  0 
 17 20  1  0  0  0  0 
 20 21  1  0  0  0  0 
 20 22  1  0  0  0  0 
 20 23  1  0  0  0  0 
 23 24  1  0  0  0  0 
 24 25  2  0  0  0  0 
 25 26  1  0  0  0  0 
 25 27  1  0  0  0  0 
 27 28  1  0  0  0  0 
 27 29  2  0  0  0  0 
 29 30  1  0  0  0  0 
 30 31  1  0  0  0  0 
 30 32  2  0  0  0  0 
 24 32  1  0  0  0  0 
 32 33  1  0  0  0  0 
 29 34  1  0  0  0  0 
 34 35  2  0  0  0  0 
 34 36  1  0  0  0  0 
 36 37  2  0  0  0  0 
 37 38  1  0  0  0  0 
 37 39  1  0  0  0  0 
 39 40  1  0  0  0  0 
 40 41  2  0  0  0  0 
 36 41  1  0  0  0  0 
 41 42  1  0  0  0  0 
 42 43  1  0  0  0  0 
 42 44  2  0  0  0  0 
 44 45  1  0  0  0  0 
 44 46  1  0  0  0  0 
 46 47  2  0  0  0  0 
 40 47  1  0  0  0  0 
 47 48  1  0  0  0  0 
 46 49  1  0  0  0  0 
 49 50  1  0  0  0  0 
M  END
> <Rank>
20

> <Priority_score>
0.09360000000000002

> <Reaction_type>
oxidation of 4-substituted phenol to quinone

> <Parent_ID>
81

> <Parent_InChI>
InChI=1S/C28H27NO4S/c30-21-8-4-20(5-9-21)28-26(24-13-10-22(31)18-25(24)34-28)27(32)19-6-11-23(12-7-19)33-17-16-29-14-2-1-3-15-29/h4-13,18,30-31H,1-3,14-17H2

> <Parent_SMILES>
O=C(c1ccc(OCCN2CCCCC2)cc1)c1c(-c2ccc(O)cc2)sc2cc(O)ccc12

$$$$
Molecule 81_metabolite 21
  CDK     0516241031

 12 12  0  0  0  0  0  0  0  0999 V2000
    1.3000    0.7500    0.0000 C   0  0  0  0  0  0  0  0  0  0  0  0
    2.5989    1.5002    0.0000 H   0  0  0  0  0  0  0  0  0  0  0  0
    1.3000   -0.7500    0.0000 C   0  0  0  0  0  0  0  0  0  0  0  0
    2.5989   -1.5002    0.0000 H   0  0  0  0  0  0  0  0  0  0  0  0
   -0.0000   -1.5000    0.0000 C   0  0  0  0  0  0  0  0  0  0  0  0
   -0.0000   -3.0000    0.0000 O   0  0  0  0  0  0  0  0  0  0  0  0
   -1.3000   -0.7500    0.0000 C   0  0  0  0  0  0  0  0  0  0  0  0
   -2.5989   -1.5002    0.0000 H   0  0  0  0  0  0  0  0  0  0  0  0
   -1.3000    0.7500    0.0000 C   0  0  0  0  0  0  0  0  0  0  0  0
   -2.5989    1.5002    0.0000 H   0  0  0  0  0  0  0  0  0  0  0  0
    0.0000    1.5000    0.0000 C   0  0  0  0  0  0  0  0  0  0  0  0
    0.0000    3.0000    0.0000 O   0  0  0  0  0  0  0  0  0  0  0  0
  1  2  1  0  0  0  0 
  1  3  2  0  0  0  0 
  3  4  1  0  0  0  0 
  3  5  1  0  0  0  0 
  5  6  2  0  0  0  0 
  5  7  1  0  0  0  0 
  7  8  1  0  0  0  0 
  7  9  2  0  0  0  0 
  9 10  1  0  0  0  0 
  9 11  1  0  0  0  0 
  1 11  1  0  0  0  0 
 11 12  2  0  0  0  0 
M  END
> <Rank>
20

> <Priority_score>
0.09360000000000002

> <Reaction_type>
oxidation of 4-substituted phenol to quinone

> <Parent_ID>
81

> <Parent_InChI>
InChI=1S/C28H27NO4S/c30-21-8-4-20(5-9-21)28-26(24-13-10-22(31)18-25(24)34-28)27(32)19-6-11-23(12-7-19)33-17-16-29-14-2-1-3-15-29/h4-13,18,30-31H,1-3,14-17H2

> <Parent_SMILES>
O=C(c1ccc(OCCN2CCCCC2)cc1)c1c(-c2ccc(O)cc2)sc2cc(O)ccc12

$$$$
Molecule 81_metabolite 22
  CDK     0516241031

 63 67  0  0  0  0  0  0  0  0999 V2000
   -0.9425  -14.3870    0.0000 C   0  0  0  0  0  0  0  0  0  0  0  0
    0.3199  -15.1972    0.0000 H   0  0  0  0  0  0  0  0  0  0  0  0
   -1.5208  -15.7710    0.0000 H   0  0  0  0  0  0  0  0  0  0  0  0
   -2.4068  -14.0579    0.0000 C   0  0  0  0  0  0  0  0  0  0  0  0
   -2.4767  -15.5563    0.0000 H   0  0  0  0  0  0  0  0  0  0  0  0
   -3.8946  -14.2491    0.0000 H   0  0  0  0  0  0  0  0  0  0  0  0
   -2.8533  -12.6259    0.0000 C   0  0  0  0  0  0  0  0  0  0  0  0
   -4.1861  -13.3141    0.0000 H   0  0  0  0  0  0  0  0  0  0  0  0
   -3.7623  -11.4328    0.0000 H   0  0  0  0  0  0  0  0  0  0  0  0
   -1.8354  -11.5230    0.0000 N   0  0  0  0  0  0  0  0  0  0  0  0
   -0.3711  -11.8521    0.0000 C   0  0  0  0  0  0  0  0  0  0  0  0
   -0.3012  -10.3537    0.0000 H   0  0  0  0  0  0  0  0  0  0  0  0
    1.1167  -11.6609    0.0000 H   0  0  0  0  0  0  0  0  0  0  0  0
    0.0754  -13.2841    0.0000 C   0  0  0  0  0  0  0  0  0  0  0  0
    1.4082  -12.5959    0.0000 H   0  0  0  0  0  0  0  0  0  0  0  0
    0.9844  -14.4772    0.0000 H   0  0  0  0  0  0  0  0  0  0  0  0
   -2.4247   -9.6327    0.0000 C   0  0  0  0  0  0  0  0  0  0  0  0
   -3.7575  -10.3211    0.0000 H   0  0  0  0  0  0  0  0  0  0  0  0
   -3.3340   -8.4398    0.0000 H   0  0  0  0  0  0  0  0  0  0  0  0
   -1.4078   -8.5301    0.0000 C   0  0  0  0  0  0  0  0  0  0  0  0
   -0.8293   -7.1461    0.0000 H   0  0  0  0  0  0  0  0  0  0  0  0
   -2.6703   -7.7201    0.0000 H   0  0  0  0  0  0  0  0  0  0  0  0
    0.0556   -8.8594    0.0000 O   0  0  0  0  0  0  0  0  0  0  0  0
    1.0725   -7.7568    0.0000 C   0  0  0  0  0  0  0  0  0  0  0  0
    2.5819   -8.0834    0.0000 C   0  0  0  0  0  0  0  0  0  0  0  0
    3.0354   -9.5133    0.0000 H   0  0  0  0  0  0  0  0  0  0  0  0
    3.5802   -6.9976    0.0000 C   0  0  0  0  0  0  0  0  0  0  0  0
    5.0424   -7.3319    0.0000 H   0  0  0  0  0  0  0  0  0  0  0  0
    3.1455   -5.5620    0.0000 C   0  0  0  0  0  0  0  0  0  0  0  0
    1.7127   -5.2121    0.0000 C   0  0  0  0  0  0  0  0  0  0  0  0
    1.2970   -3.7709    0.0000 H   0  0  0  0  0  0  0  0  0  0  0  0
    0.6379   -6.3211    0.0000 C   0  0  0  0  0  0  0  0  0  0  0  0
   -0.8198   -5.9677    0.0000 H   0  0  0  0  0  0  0  0  0  0  0  0
    5.1670   -3.4272    0.0000 C   0  0  0  0  0  0  0  0  0  0  0  0
    5.7637   -2.0510    0.0000 H   0  0  0  0  0  0  0  0  0  0  0  0
    6.6260   -3.7758    0.0000 C   0  0  0  0  0  0  0  0  0  0  0  0
    7.7609   -2.8010    0.0000 C   0  0  0  0  0  0  0  0  0  0  0  0
    7.6398   -1.3059    0.0000 C   0  0  0  0  0  0  0  0  0  0  0  0
    8.8782   -0.4596    0.0000 C   0  0  0  0  0  0  0  0  0  0  0  0
   10.2272   -1.1155    0.0000 H   0  0  0  0  0  0  0  0  0  0  0  0
    8.7809    1.0121    0.0000 C   0  0  0  0  0  0  0  0  0  0  0  0
   10.0303    1.8421    0.0000 H   0  0  0  0  0  0  0  0  0  0  0  0
    7.3999    1.7035    0.0000 C   0  0  0  0  0  0  0  0  0  0  0  0
    6.1615    0.8572    0.0000 C   0  0  0  0  0  0  0  0  0  0  0  0
    4.8040    1.4953    0.0000 H   0  0  0  0  0  0  0  0  0  0  0  0
    6.3040   -0.6806    0.0000 C   0  0  0  0  0  0  0  0  0  0  0  0
    5.0769   -1.5432    0.0000 H   0  0  0  0  0  0  0  0  0  0  0  0
    7.2985    3.2001    0.0000 O   0  0  0  0  0  0  0  0  0  0  0  0
    8.5439    4.0362    0.0000 H   0  0  0  0  0  0  0  0  0  0  0  0
    9.0380   -3.5804    0.0000 S   0  0  0  0  0  0  0  0  0  0  0  0
    8.6950   -5.0429    0.0000 C   0  0  0  0  0  0  0  0  0  0  0  0
    7.1999   -5.1640    0.0000 C   0  0  0  0  0  0  0  0  0  0  0  0
    6.5573   -6.5204    0.0000 C   0  0  0  0  0  0  0  0  0  0  0  0
    5.2020   -5.8777    0.0000 H   0  0  0  0  0  0  0  0  0  0  0  0
    7.4098   -7.7555    0.0000 C   0  0  0  0  0  0  0  0  0  0  0  0
    6.7670   -9.1108    0.0000 H   0  0  0  0  0  0  0  0  0  0  0  0
    8.9050   -7.6344    0.0000 C   0  0  0  0  0  0  0  0  0  0  0  0
    9.5475   -6.2781    0.0000 C   0  0  0  0  0  0  0  0  0  0  0  0
   11.0426   -6.1570    0.0000 H   0  0  0  0  0  0  0  0  0  0  0  0
    9.7576   -8.8685    0.0000 O   0  0  0  0  0  0  0  0  0  0  0  0
    9.1151  -10.2240    0.0000 H   0  0  0  0  0  0  0  0  0  0  0  0
    3.9153   -2.6007    0.0000 O   0  0  0  0  0  0  0  0  0  0  0  0
    4.0053   -1.1034    0.0000 H   0  0  0  0  0  0  0  0  0  0  0  0
  1  2  1  0  0  0  0 
  1  3  1  0  0  0  0 
  1  4  1  0  0  0  0 
  4  5  1  0  0  0  0 
  4  6  1  0  0  0  0 
  4  7  1  0  0  0  0 
  7  8  1  0  0  0  0 
  7  9  1  0  0  0  0 
  7 10  1  0  0  0  0 
 10 11  1  0  0  0  0 
 11 12  1  0  0  0  0 
 11 13  1  0  0  0  0 
 11 14  1  0  0  0  0 
  1 14  1  0  0  0  0 
 14 15  1  0  0  0  0 
 14 16  1  0  0  0  0 
 10 17  1  0  0  0  0 
 17 18  1  0  0  0  0 
 17 19  1  0  0  0  0 
 17 20  1  0  0  0  0 
 20 21  1  0  0  0  0 
 20 22  1  0  0  0  0 
 20 23  1  0  0  0  0 
 23 24  1  0  0  0  0 
 24 25  2  0  0  0  0 
 25 26  1  0  0  0  0 
 25 27  1  0  0  0  0 
 27 28  1  0  0  0  0 
 27 29  2  0  0  0  0 
 29 30  1  0  0  0  0 
 30 31  1  0  0  0  0 
 30 32  2  0  0  0  0 
 24 32  1  0  0  0  0 
 32 33  1  0  0  0  0 
 29 34  1  0  0  0  0 
 34 35  1  0  0  0  0 
 34 36  1  0  0  0  0 
 36 37  2  0  0  0  0 
 37 38  1  0  0  0  0 
 38 39  2  0  0  0  0 
 39 40  1  0  0  0  0 
 39 41  1  0  0  0  0 
 41 42  1  0  0  0  0 
 41 43  2  0  0  0  0 
 43 44  1  0  0  0  0 
 44 45  1  0  0  0  0 
 44 46  2  0  0  0  0 
 38 46  1  0  0  0  0 
 46 47  1  0  0  0  0 
 43 48  1  0  0  0  0 
 48 49  1  0  0  0  0 
 37 50  1  0  0  0  0 
 50 51  1  0  0  0  0 
 51 52  2  0  0  0  0 
 36 52  1  0  0  0  0 
 52 53  1  0  0  0  0 
 53 54  1  0  0  0  0 
 53 55  2  0  0  0  0 
 55 56  1  0  0  0  0 
 55 57  1  0  0  0  0 
 57 58  2  0  0  0  0 
 51 58  1  0  0  0  0 
 58 59  1  0  0  0  0 
 57 60  1  0  0  0  0 
 60 61  1  0  0  0  0 
 34 62  1  0  0  0  0 
 62 63  1  0  0  0  0 
M  END
> <Rank>
22

> <Priority_score>
0.092

> <Reaction_type>
carbonyl_reduction_(both_sides_next_to_aromatic_carbon)

> <Parent_ID>
81

> <Parent_InChI>
InChI=1S/C28H27NO4S/c30-21-8-4-20(5-9-21)28-26(24-13-10-22(31)18-25(24)34-28)27(32)19-6-11-23(12-7-19)33-17-16-29-14-2-1-3-15-29/h4-13,18,30-31H,1-3,14-17H2

> <Parent_SMILES>
O=C(c1ccc(OCCN2CCCCC2)cc1)c1c(-c2ccc(O)cc2)sc2cc(O)ccc12

$$$$
Molecule 81_metabolite 23
  CDK     0516241031

 41 44  0  0  0  0  0  0  0  0999 V2000
    4.6823   -0.8246    0.0000 C   0  0  0  0  0  0  0  0  0  0  0  0
    3.9216   -2.1174    0.0000 H   0  0  0  0  0  0  0  0  0  0  0  0
    3.9511    0.4563    0.0000 C   0  0  0  0  0  0  0  0  0  0  0  0
    4.6947    1.7590    0.0000 C   0  0  0  0  0  0  0  0  0  0  0  0
    3.9320    3.0506    0.0000 H   0  0  0  0  0  0  0  0  0  0  0  0
    6.1695    1.7808    0.0000 C   0  0  0  0  0  0  0  0  0  0  0  0
    6.8958    3.0932    0.0000 H   0  0  0  0  0  0  0  0  0  0  0  0
    6.9701    0.4602    0.0000 C   0  0  0  0  0  0  0  0  0  0  0  0
    6.2265   -0.8425    0.0000 C   0  0  0  0  0  0  0  0  0  0  0  0
    6.9722   -2.1440    0.0000 H   0  0  0  0  0  0  0  0  0  0  0  0
    8.4700    0.4800    0.0000 O   0  0  0  0  0  0  0  0  0  0  0  0
    9.2028    1.7888    0.0000 H   0  0  0  0  0  0  0  0  0  0  0  0
    1.9711    0.4563    0.0000 C   0  0  0  0  0  0  0  0  0  0  0  0
    1.0911   -0.7537    0.0000 C   0  0  0  0  0  0  0  0  0  0  0  0
   -0.3389   -0.2937    0.0000 C   0  0  0  0  0  0  0  0  0  0  0  0
   -0.3389    1.2063    0.0000 C   0  0  0  0  0  0  0  0  0  0  0  0
   -1.6389    1.9563    0.0000 C   0  0  0  0  0  0  0  0  0  0  0  0
   -1.6389    3.4563    0.0000 H   0  0  0  0  0  0  0  0  0  0  0  0
   -2.9389    1.2063    0.0000 C   0  0  0  0  0  0  0  0  0  0  0  0
   -2.9389   -0.2937    0.0000 C   0  0  0  0  0  0  0  0  0  0  0  0
   -4.2378   -1.0439    0.0000 H   0  0  0  0  0  0  0  0  0  0  0  0
   -1.6389   -1.0437    0.0000 C   0  0  0  0  0  0  0  0  0  0  0  0
   -1.6389   -2.5437    0.0000 H   0  0  0  0  0  0  0  0  0  0  0  0
   -4.2378    1.9565    0.0000 O   0  0  0  0  0  0  0  0  0  0  0  0
   -5.5370    1.2067    0.0000 H   0  0  0  0  0  0  0  0  0  0  0  0
    1.0911    1.6663    0.0000 S   0  0  0  0  0  0  0  0  0  0  0  0
    1.7053   -2.6360    0.0000 C   0  0  0  0  0  0  0  0  0  0  0  0
    3.1729   -2.9461    0.0000 O   0  0  0  0  0  0  0  0  0  0  0  0
    0.7030   -3.7520    0.0000 C   0  0  0  0  0  0  0  0  0  0  0  0
    1.9766   -4.5459    0.0000 C   0  0  0  0  0  0  0  0  0  0  0  0
    3.3000   -3.8397    0.0000 H   0  0  0  0  0  0  0  0  0  0  0  0
    1.9269   -6.0459    0.0000 C   0  0  0  0  0  0  0  0  0  0  0  0
    3.2002   -6.8387    0.0000 H   0  0  0  0  0  0  0  0  0  0  0  0
    0.6035   -6.7520    0.0000 C   0  0  0  0  0  0  0  0  0  0  0  0
    0.5531   -8.2511    0.0000 O   0  0  0  0  0  0  0  0  0  0  0  0
   -0.6702   -5.9581    0.0000 C   0  0  0  0  0  0  0  0  0  0  0  0
   -1.9936   -6.6642    0.0000 H   0  0  0  0  0  0  0  0  0  0  0  0
   -0.6205   -4.4581    0.0000 C   0  0  0  0  0  0  0  0  0  0  0  0
   -1.8938   -3.6652    0.0000 H   0  0  0  0  0  0  0  0  0  0  0  0
   -0.2221   -2.5712    0.0000 O   0  0  0  0  0  0  0  0  0  0  0  0
    0.3379   -1.1797    0.0000 H   0  0  0  0  0  0  0  0  0  0  0  0
  1  2  1  0  0  0  0 
  1  3  2  0  0  0  0 
  3  4  1  0  0  0  0 
  4  5  1  0  0  0  0 
  4  6  2  0  0  0  0 
  6  7  1  0  0  0  0 
  6  8  1  0  0  0  0 
  8  9  2  0  0  0  0 
  1  9  1  0  0  0  0 
  9 10  1  0  0  0  0 
  8 11  1  0  0  0  0 
 11 12  1  0  0  0  0 
  3 13  1  0  0  0  0 
 13 14  2  0  0  0  0 
 14 15  1  0  0  0  0 
 15 16  2  0  0  0  0 
 16 17  1  0  0  0  0 
 17 18  1  0  0  0  0 
 17 19  2  0  0  0  0 
 19 20  1  0  0  0  0 
 20 21  1  0  0  0  0 
 20 22  2  0  0  0  0 
 15 22  1  0  0  0  0 
 22 23  1  0  0  0  0 
 19 24  1  0  0  0  0 
 24 25  1  0  0  0  0 
 16 26  1  0  0  0  0 
 13 26  1  0  0  0  0 
 14 27  1  0  0  0  0 
 27 28  2  0  0  0  0 
 27 29  1  0  0  0  0 
 29 30  1  0  0  0  0 
 30 31  1  0  0  0  0 
 30 32  2  0  0  0  0 
 32 33  1  0  0  0  0 
 32 34  1  0  0  0  0 
 34 35  2  0  0  0  0 
 34 36  1  0  0  0  0 
 36 37  1  0  0  0  0 
 36 38  2  0  0  0  0 
 29 38  1  0  0  0  0 
 38 39  1  0  0  0  0 
 29 40  1  0  0  0  0 
 40 41  1  0  0  0  0 
M  END
> <Rank>
23

> <Priority_score>
0.0696

> <Reaction_type>
oxidation of 4-substituted anisole to quinone (substituent not a leaving group)

> <Parent_ID>
81

> <Parent_InChI>
InChI=1S/C28H27NO4S/c30-21-8-4-20(5-9-21)28-26(24-13-10-22(31)18-25(24)34-28)27(32)19-6-11-23(12-7-19)33-17-16-29-14-2-1-3-15-29/h4-13,18,30-31H,1-3,14-17H2

> <Parent_SMILES>
O=C(c1ccc(OCCN2CCCCC2)cc1)c1c(-c2ccc(O)cc2)sc2cc(O)ccc12

$$$$
Molecule 81_metabolite 24
  CDK     0516241031

 23 23  0  0  0  0  0  0  0  0999 V2000
    3.1307   -0.7625    0.0000 C   0  0  0  0  0  0  0  0  0  0  0  0
    3.1307    0.7375    0.0000 H   0  0  0  0  0  0  0  0  0  0  0  0
    4.6079   -0.5020    0.0000 H   0  0  0  0  0  0  0  0  0  0  0  0
    3.6438   -2.1720    0.0000 H   0  0  0  0  0  0  0  0  0  0  0  0
    1.8317   -1.5125    0.0000 C   0  0  0  0  0  0  0  0  0  0  0  0
    0.8675   -2.6615    0.0000 H   0  0  0  0  0  0  0  0  0  0  0  0
    2.7959   -2.6615    0.0000 H   0  0  0  0  0  0  0  0  0  0  0  0
    0.1170   -0.5225    0.0000 N   0  0  0  0  0  0  0  0  0  0  0  0
   -1.1826   -1.2733    0.0000 C   0  0  0  0  0  0  0  0  0  0  0  0
   -2.1466   -2.4225    0.0000 H   0  0  0  0  0  0  0  0  0  0  0  0
   -0.2181   -2.4222    0.0000 H   0  0  0  0  0  0  0  0  0  0  0  0
   -2.4816   -0.5233    0.0000 C   0  0  0  0  0  0  0  0  0  0  0  0
   -3.9588   -0.2625    0.0000 H   0  0  0  0  0  0  0  0  0  0  0  0
   -2.9948   -1.9328    0.0000 H   0  0  0  0  0  0  0  0  0  0  0  0
   -2.4811    0.9775    0.0000 C   0  0  0  0  0  0  0  0  0  0  0  0
   -2.9943    2.3870    0.0000 H   0  0  0  0  0  0  0  0  0  0  0  0
   -3.9584    0.7172    0.0000 H   0  0  0  0  0  0  0  0  0  0  0  0
   -1.1816    1.7284    0.0000 C   0  0  0  0  0  0  0  0  0  0  0  0
   -0.2175    2.8775    0.0000 H   0  0  0  0  0  0  0  0  0  0  0  0
   -2.1460    2.8772    0.0000 H   0  0  0  0  0  0  0  0  0  0  0  0
    0.1174    0.9784    0.0000 C   0  0  0  0  0  0  0  0  0  0  0  0
    1.5946    0.7176    0.0000 H   0  0  0  0  0  0  0  0  0  0  0  0
    0.6306    2.3878    0.0000 H   0  0  0  0  0  0  0  0  0  0  0  0
  1  2  1  0  0  0  0 
  1  3  1  0  0  0  0 
  1  4  1  0  0  0  0 
  1  5  1  0  0  0  0 
  5  6  1  0  0  0  0 
  5  7  1  0  0  0  0 
  5  8  1  0  0  0  0 
  8  9  1  0  0  0  0 
  9 10  1  0  0  0  0 
  9 11  1  0  0  0  0 
  9 12  1  0  0  0  0 
 12 13  1  0  0  0  0 
 12 14  1  0  0  0  0 
 12 15  1  0  0  0  0 
 15 16  1  0  0  0  0 
 15 17  1  0  0  0  0 
 15 18  1  0  0  0  0 
 18 19  1  0  0  0  0 
 18 20  1  0  0  0  0 
 18 21  1  0  0  0  0 
  8 21  1  0  0  0  0 
 21 22  1  0  0  0  0 
 21 23  1  0  0  0  0 
M  END
> <Rank>
23

> <Priority_score>
0.0696

> <Reaction_type>
oxidation of 4-substituted anisole to quinone (substituent not a leaving group)

> <Parent_ID>
81

> <Parent_InChI>
InChI=1S/C28H27NO4S/c30-21-8-4-20(5-9-21)28-26(24-13-10-22(31)18-25(24)34-28)27(32)19-6-11-23(12-7-19)33-17-16-29-14-2-1-3-15-29/h4-13,18,30-31H,1-3,14-17H2

> <Parent_SMILES>
O=C(c1ccc(OCCN2CCCCC2)cc1)c1c(-c2ccc(O)cc2)sc2cc(O)ccc12

$$$$
Molecule 81_metabolite 25
  CDK     0516241031

 47 50  0  0  0  0  0  0  0  0999 V2000
    4.3845    0.0880    0.0000 C   0  0  0  0  0  0  0  0  0  0  0  0
    3.6238   -1.2048    0.0000 H   0  0  0  0  0  0  0  0  0  0  0  0
    3.6533    1.3690    0.0000 C   0  0  0  0  0  0  0  0  0  0  0  0
    4.3969    2.6717    0.0000 C   0  0  0  0  0  0  0  0  0  0  0  0
    3.6342    3.9633    0.0000 H   0  0  0  0  0  0  0  0  0  0  0  0
    5.8717    2.6935    0.0000 C   0  0  0  0  0  0  0  0  0  0  0  0
    6.5981    4.0059    0.0000 H   0  0  0  0  0  0  0  0  0  0  0  0
    6.6723    1.3729    0.0000 C   0  0  0  0  0  0  0  0  0  0  0  0
    5.9287    0.0702    0.0000 C   0  0  0  0  0  0  0  0  0  0  0  0
    6.6744   -1.2314    0.0000 H   0  0  0  0  0  0  0  0  0  0  0  0
    8.1722    1.3926    0.0000 O   0  0  0  0  0  0  0  0  0  0  0  0
    8.9050    2.7014    0.0000 H   0  0  0  0  0  0  0  0  0  0  0  0
    1.6733    1.3690    0.0000 C   0  0  0  0  0  0  0  0  0  0  0  0
    0.7933    0.1590    0.0000 C   0  0  0  0  0  0  0  0  0  0  0  0
   -0.6367    0.6190    0.0000 C   0  0  0  0  0  0  0  0  0  0  0  0
   -0.6367    2.1190    0.0000 C   0  0  0  0  0  0  0  0  0  0  0  0
   -1.9367    2.8690    0.0000 C   0  0  0  0  0  0  0  0  0  0  0  0
   -1.9367    4.3690    0.0000 H   0  0  0  0  0  0  0  0  0  0  0  0
   -3.2367    2.1190    0.0000 C   0  0  0  0  0  0  0  0  0  0  0  0
   -3.2367    0.6190    0.0000 C   0  0  0  0  0  0  0  0  0  0  0  0
   -4.5356   -0.1312    0.0000 H   0  0  0  0  0  0  0  0  0  0  0  0
   -1.9367   -0.1310    0.0000 C   0  0  0  0  0  0  0  0  0  0  0  0
   -1.9367   -1.6310    0.0000 H   0  0  0  0  0  0  0  0  0  0  0  0
   -4.5356    2.8692    0.0000 O   0  0  0  0  0  0  0  0  0  0  0  0
   -5.8347    2.1194    0.0000 H   0  0  0  0  0  0  0  0  0  0  0  0
    0.7933    2.5790    0.0000 S   0  0  0  0  0  0  0  0  0  0  0  0
    1.7053   -2.6360    0.0000 C   0  0  0  0  0  0  0  0  0  0  0  0
    3.1729   -2.9461    0.0000 O   0  0  0  0  0  0  0  0  0  0  0  0
    0.7030   -3.7520    0.0000 C   0  0  0  0  0  0  0  0  0  0  0  0
    1.1752   -5.1757    0.0000 C   0  0  0  0  0  0  0  0  0  0  0  0
    2.6458   -5.4713    0.0000 H   0  0  0  0  0  0  0  0  0  0  0  0
    0.2060   -6.2874    0.0000 C   0  0  0  0  0  0  0  0  0  0  0  0
    0.6970   -7.7048    0.0000 H   0  0  0  0  0  0  0  0  0  0  0  0
   -1.3115   -6.0006    0.0000 C   0  0  0  0  0  0  0  0  0  0  0  0
   -1.7838   -4.5769    0.0000 C   0  0  0  0  0  0  0  0  0  0  0  0
   -3.2504   -4.2620    0.0000 H   0  0  0  0  0  0  0  0  0  0  0  0
   -0.7386   -3.4400    0.0000 C   0  0  0  0  0  0  0  0  0  0  0  0
   -1.1921   -2.0102    0.0000 H   0  0  0  0  0  0  0  0  0  0  0  0
   -2.2990   -7.1297    0.0000 O   0  0  0  0  0  0  0  0  0  0  0  0
   -1.8150   -8.5494    0.0000 C   0  0  0  0  0  0  0  0  0  0  0  0
   -0.8746   -9.7180    0.0000 H   0  0  0  0  0  0  0  0  0  0  0  0
   -0.5009   -7.8262    0.0000 H   0  0  0  0  0  0  0  0  0  0  0  0
   -2.8026   -9.6785    0.0000 C   0  0  0  0  0  0  0  0  0  0  0  0
   -3.7430   -8.5099    0.0000 H   0  0  0  0  0  0  0  0  0  0  0  0
   -4.1167  -10.4017    0.0000 H   0  0  0  0  0  0  0  0  0  0  0  0
   -2.3185  -11.0982    0.0000 O   0  0  0  0  0  0  0  0  0  0  0  0
   -3.3061  -12.2273    0.0000 H   0  0  0  0  0  0  0  0  0  0  0  0
  1  2  1  0  0  0  0 
  1  3  2  0  0  0  0 
  3  4  1  0  0  0  0 
  4  5  1  0  0  0  0 
  4  6  2  0  0  0  0 
  6  7  1  0  0  0  0 
  6  8  1  0  0  0  0 
  8  9  2  0  0  0  0 
  1  9  1  0  0  0  0 
  9 10  1  0  0  0  0 
  8 11  1  0  0  0  0 
 11 12  1  0  0  0  0 
  3 13  1  0  0  0  0 
 13 14  2  0  0  0  0 
 14 15  1  0  0  0  0 
 15 16  2  0  0  0  0 
 16 17  1  0  0  0  0 
 17 18  1  0  0  0  0 
 17 19  2  0  0  0  0 
 19 20  1  0  0  0  0 
 20 21  1  0  0  0  0 
 20 22  2  0  0  0  0 
 15 22  1  0  0  0  0 
 22 23  1  0  0  0  0 
 19 24  1  0  0  0  0 
 24 25  1  0  0  0  0 
 16 26  1  0  0  0  0 
 13 26  1  0  0  0  0 
 14 27  1  0  0  0  0 
 27 28  2  0  0  0  0 
 27 29  1  0  0  0  0 
 29 30  2  0  0  0  0 
 30 31  1  0  0  0  0 
 30 32  1  0  0  0  0 
 32 33  1  0  0  0  0 
 32 34  2  0  0  0  0 
 34 35  1  0  0  0  0 
 35 36  1  0  0  0  0 
 35 37  2  0  0  0  0 
 29 37  1  0  0  0  0 
 37 38  1  0  0  0  0 
 34 39  1  0  0  0  0 
 39 40  1  0  0  0  0 
 40 41  1  0  0  0  0 
 40 42  1  0  0  0  0 
 40 43  1  0  0  0  0 
 43 44  1  0  0  0  0 
 43 45  1  0  0  0  0 
 43 46  1  0  0  0  0 
 46 47  1  0  0  0  0 
M  END
> <Rank>
25

> <Priority_score>
0.044

> <Reaction_type>
N-dealkylation_(tertiaryN-CH2-alkyl)

> <Parent_ID>
81

> <Parent_InChI>
InChI=1S/C28H27NO4S/c30-21-8-4-20(5-9-21)28-26(24-13-10-22(31)18-25(24)34-28)27(32)19-6-11-23(12-7-19)33-17-16-29-14-2-1-3-15-29/h4-13,18,30-31H,1-3,14-17H2

> <Parent_SMILES>
O=C(c1ccc(OCCN2CCCCC2)cc1)c1c(-c2ccc(O)cc2)sc2cc(O)ccc12

$$$$
Molecule 81_metabolite 26
  CDK     0516241031

 45 48  0  0  0  0  0  0  0  0999 V2000
    4.3845    0.0880    0.0000 C   0  0  0  0  0  0  0  0  0  0  0  0
    3.6238   -1.2048    0.0000 H   0  0  0  0  0  0  0  0  0  0  0  0
    3.6533    1.3690    0.0000 C   0  0  0  0  0  0  0  0  0  0  0  0
    4.3969    2.6717    0.0000 C   0  0  0  0  0  0  0  0  0  0  0  0
    3.6342    3.9633    0.0000 H   0  0  0  0  0  0  0  0  0  0  0  0
    5.8717    2.6935    0.0000 C   0  0  0  0  0  0  0  0  0  0  0  0
    6.5981    4.0059    0.0000 H   0  0  0  0  0  0  0  0  0  0  0  0
    6.6723    1.3729    0.0000 C   0  0  0  0  0  0  0  0  0  0  0  0
    5.9287    0.0702    0.0000 C   0  0  0  0  0  0  0  0  0  0  0  0
    6.6744   -1.2314    0.0000 H   0  0  0  0  0  0  0  0  0  0  0  0
    8.1722    1.3926    0.0000 O   0  0  0  0  0  0  0  0  0  0  0  0
    8.9050    2.7014    0.0000 H   0  0  0  0  0  0  0  0  0  0  0  0
    1.6733    1.3690    0.0000 C   0  0  0  0  0  0  0  0  0  0  0  0
    0.7933    0.1590    0.0000 C   0  0  0  0  0  0  0  0  0  0  0  0
   -0.6367    0.6190    0.0000 C   0  0  0  0  0  0  0  0  0  0  0  0
   -0.6367    2.1190    0.0000 C   0  0  0  0  0  0  0  0  0  0  0  0
   -1.9367    2.8690    0.0000 C   0  0  0  0  0  0  0  0  0  0  0  0
   -1.9367    4.3690    0.0000 H   0  0  0  0  0  0  0  0  0  0  0  0
   -3.2367    2.1190    0.0000 C   0  0  0  0  0  0  0  0  0  0  0  0
   -3.2367    0.6190    0.0000 C   0  0  0  0  0  0  0  0  0  0  0  0
   -4.5356   -0.1312    0.0000 H   0  0  0  0  0  0  0  0  0  0  0  0
   -1.9367   -0.1310    0.0000 C   0  0  0  0  0  0  0  0  0  0  0  0
   -1.9367   -1.6310    0.0000 H   0  0  0  0  0  0  0  0  0  0  0  0
   -4.5356    2.8692    0.0000 O   0  0  0  0  0  0  0  0  0  0  0  0
   -5.8347    2.1194    0.0000 H   0  0  0  0  0  0  0  0  0  0  0  0
    0.7933    2.5790    0.0000 S   0  0  0  0  0  0  0  0  0  0  0  0
    1.7053   -2.6360    0.0000 C   0  0  0  0  0  0  0  0  0  0  0  0
    3.1729   -2.9461    0.0000 O   0  0  0  0  0  0  0  0  0  0  0  0
    0.7030   -3.7520    0.0000 C   0  0  0  0  0  0  0  0  0  0  0  0
    1.1752   -5.1757    0.0000 C   0  0  0  0  0  0  0  0  0  0  0  0
    2.6458   -5.4713    0.0000 H   0  0  0  0  0  0  0  0  0  0  0  0
    0.2060   -6.2874    0.0000 C   0  0  0  0  0  0  0  0  0  0  0  0
    0.6970   -7.7048    0.0000 H   0  0  0  0  0  0  0  0  0  0  0  0
   -1.3115   -6.0006    0.0000 C   0  0  0  0  0  0  0  0  0  0  0  0
   -1.7838   -4.5769    0.0000 C   0  0  0  0  0  0  0  0  0  0  0  0
   -3.2504   -4.2620    0.0000 H   0  0  0  0  0  0  0  0  0  0  0  0
   -0.7386   -3.4400    0.0000 C   0  0  0  0  0  0  0  0  0  0  0  0
   -1.1921   -2.0102    0.0000 H   0  0  0  0  0  0  0  0  0  0  0  0
   -2.2990   -7.1297    0.0000 O   0  0  0  0  0  0  0  0  0  0  0  0
   -1.8150   -8.5494    0.0000 C   0  0  0  0  0  0  0  0  0  0  0  0
   -0.8746   -9.7180    0.0000 H   0  0  0  0  0  0  0  0  0  0  0  0
   -0.5009   -7.8262    0.0000 H   0  0  0  0  0  0  0  0  0  0  0  0
   -2.8026   -9.6785    0.0000 C   0  0  0  0  0  0  0  0  0  0  0  0
   -2.3185  -11.0982    0.0000 H   0  0  0  0  0  0  0  0  0  0  0  0
   -4.2741   -9.3878    0.0000 O   0  0  0  0  0  0  0  0  0  0  0  0
  1  2  1  0  0  0  0 
  1  3  2  0  0  0  0 
  3  4  1  0  0  0  0 
  4  5  1  0  0  0  0 
  4  6  2  0  0  0  0 
  6  7  1  0  0  0  0 
  6  8  1  0  0  0  0 
  8  9  2  0  0  0  0 
  1  9  1  0  0  0  0 
  9 10  1  0  0  0  0 
  8 11  1  0  0  0  0 
 11 12  1  0  0  0  0 
  3 13  1  0  0  0  0 
 13 14  2  0  0  0  0 
 14 15  1  0  0  0  0 
 15 16  2  0  0  0  0 
 16 17  1  0  0  0  0 
 17 18  1  0  0  0  0 
 17 19  2  0  0  0  0 
 19 20  1  0  0  0  0 
 20 21  1  0  0  0  0 
 20 22  2  0  0  0  0 
 15 22  1  0  0  0  0 
 22 23  1  0  0  0  0 
 19 24  1  0  0  0  0 
 24 25  1  0  0  0  0 
 16 26  1  0  0  0  0 
 13 26  1  0  0  0  0 
 14 27  1  0  0  0  0 
 27 28  2  0  0  0  0 
 27 29  1  0  0  0  0 
 29 30  2  0  0  0  0 
 30 31  1  0  0  0  0 
 30 32  1  0  0  0  0 
 32 33  1  0  0  0  0 
 32 34  2  0  0  0  0 
 34 35  1  0  0  0  0 
 35 36  1  0  0  0  0 
 35 37  2  0  0  0  0 
 29 37  1  0  0  0  0 
 37 38  1  0  0  0  0 
 34 39  1  0  0  0  0 
 39 40  1  0  0  0  0 
 40 41  1  0  0  0  0 
 40 42  1  0  0  0  0 
 40 43  1  0  0  0  0 
 43 44  1  0  0  0  0 
 43 45  2  0  0  0  0 
M  END
> <Rank>
25

> <Priority_score>
0.044

> <Reaction_type>
N-dealkylation

> <Parent_ID>
81

> <Parent_InChI>
InChI=1S/C28H27NO4S/c30-21-8-4-20(5-9-21)28-26(24-13-10-22(31)18-25(24)34-28)27(32)19-6-11-23(12-7-19)33-17-16-29-14-2-1-3-15-29/h4-13,18,30-31H,1-3,14-17H2

> <Parent_SMILES>
O=C(c1ccc(OCCN2CCCCC2)cc1)c1c(-c2ccc(O)cc2)sc2cc(O)ccc12

$$$$
Molecule 81_metabolite 27
  CDK     0516241031

 17 17  0  0  0  0  0  0  0  0999 V2000
   -0.0000   -1.8508    0.0000 C   0  0  0  0  0  0  0  0  0  0  0  0
   -0.9641   -3.0000    0.0000 H   0  0  0  0  0  0  0  0  0  0  0  0
    0.9641   -3.0000    0.0000 H   0  0  0  0  0  0  0  0  0  0  0  0
    1.3000   -1.1008    0.0000 C   0  0  0  0  0  0  0  0  0  0  0  0
    1.8127   -2.5105    0.0000 H   0  0  0  0  0  0  0  0  0  0  0  0
    2.7772   -0.8405    0.0000 H   0  0  0  0  0  0  0  0  0  0  0  0
    1.3000    0.3992    0.0000 C   0  0  0  0  0  0  0  0  0  0  0  0
    2.7772    0.1389    0.0000 H   0  0  0  0  0  0  0  0  0  0  0  0
    1.8127    1.8088    0.0000 H   0  0  0  0  0  0  0  0  0  0  0  0
    0.0000    1.1492    0.0000 N   0  0  0  0  0  0  0  0  0  0  0  0
    0.0000    2.6492    0.0000 H   0  0  0  0  0  0  0  0  0  0  0  0
   -1.3000    0.3992    0.0000 C   0  0  0  0  0  0  0  0  0  0  0  0
   -1.8127    1.8088    0.0000 H   0  0  0  0  0  0  0  0  0  0  0  0
   -2.7772    0.1389    0.0000 H   0  0  0  0  0  0  0  0  0  0  0  0
   -1.3000   -1.1008    0.0000 C   0  0  0  0  0  0  0  0  0  0  0  0
   -2.7772   -0.8405    0.0000 H   0  0  0  0  0  0  0  0  0  0  0  0
   -1.8127   -2.5105    0.0000 H   0  0  0  0  0  0  0  0  0  0  0  0
  1  2  1  0  0  0  0 
  1  3  1  0  0  0  0 
  1  4  1  0  0  0  0 
  4  5  1  0  0  0  0 
  4  6  1  0  0  0  0 
  4  7  1  0  0  0  0 
  7  8  1  0  0  0  0 
  7  9  1  0  0  0  0 
  7 10  1  0  0  0  0 
 10 11  1  0  0  0  0 
 10 12  1  0  0  0  0 
 12 13  1  0  0  0  0 
 12 14  1  0  0  0  0 
 12 15  1  0  0  0  0 
  1 15  1  0  0  0  0 
 15 16  1  0  0  0  0 
 15 17  1  0  0  0  0 
M  END
> <Rank>
25

> <Priority_score>
0.044

> <Reaction_type>
N-dealkylation_(tertiaryN-CH2-alkyl)

> <Parent_ID>
81

> <Parent_InChI>
InChI=1S/C28H27NO4S/c30-21-8-4-20(5-9-21)28-26(24-13-10-22(31)18-25(24)34-28)27(32)19-6-11-23(12-7-19)33-17-16-29-14-2-1-3-15-29/h4-13,18,30-31H,1-3,14-17H2

> <Parent_SMILES>
O=C(c1ccc(OCCN2CCCCC2)cc1)c1c(-c2ccc(O)cc2)sc2cc(O)ccc12

$$$$
Molecule 81_metabolite 28
  CDK     0516241031

 62 66  0  0  0  0  0  0  0  0999 V2000
   -0.9037  -14.8655    0.0000 C   0  0  0  0  0  0  0  0  0  0  0  0
    0.3587  -15.6756    0.0000 H   0  0  0  0  0  0  0  0  0  0  0  0
   -1.4821  -16.2495    0.0000 H   0  0  0  0  0  0  0  0  0  0  0  0
   -2.3680  -14.5364    0.0000 C   0  0  0  0  0  0  0  0  0  0  0  0
   -2.4380  -16.0347    0.0000 H   0  0  0  0  0  0  0  0  0  0  0  0
   -3.8558  -14.7275    0.0000 H   0  0  0  0  0  0  0  0  0  0  0  0
   -2.8145  -13.1044    0.0000 C   0  0  0  0  0  0  0  0  0  0  0  0
   -4.1473  -13.7925    0.0000 H   0  0  0  0  0  0  0  0  0  0  0  0
   -3.7236  -11.9112    0.0000 H   0  0  0  0  0  0  0  0  0  0  0  0
   -1.7966  -12.0014    0.0000 N   0  0  0  0  0  0  0  0  0  0  0  0
   -0.3323  -12.3305    0.0000 C   0  0  0  0  0  0  0  0  0  0  0  0
   -0.2624  -10.8321    0.0000 H   0  0  0  0  0  0  0  0  0  0  0  0
    1.1554  -12.1393    0.0000 H   0  0  0  0  0  0  0  0  0  0  0  0
    0.1141  -13.7625    0.0000 C   0  0  0  0  0  0  0  0  0  0  0  0
    1.4469  -13.0743    0.0000 H   0  0  0  0  0  0  0  0  0  0  0  0
    1.0232  -14.9557    0.0000 H   0  0  0  0  0  0  0  0  0  0  0  0
   -2.3860  -10.1111    0.0000 C   0  0  0  0  0  0  0  0  0  0  0  0
   -3.7187  -10.7995    0.0000 H   0  0  0  0  0  0  0  0  0  0  0  0
   -3.2953   -8.9182    0.0000 H   0  0  0  0  0  0  0  0  0  0  0  0
   -1.3690   -9.0085    0.0000 C   0  0  0  0  0  0  0  0  0  0  0  0
   -0.7905   -7.6245    0.0000 H   0  0  0  0  0  0  0  0  0  0  0  0
   -2.6315   -8.1985    0.0000 H   0  0  0  0  0  0  0  0  0  0  0  0
    0.0944   -9.3379    0.0000 O   0  0  0  0  0  0  0  0  0  0  0  0
    1.1113   -8.2352    0.0000 C   0  0  0  0  0  0  0  0  0  0  0  0
    2.6207   -8.5619    0.0000 C   0  0  0  0  0  0  0  0  0  0  0  0
    3.0742   -9.9917    0.0000 H   0  0  0  0  0  0  0  0  0  0  0  0
    3.6189   -7.4761    0.0000 C   0  0  0  0  0  0  0  0  0  0  0  0
    5.0812   -7.8103    0.0000 H   0  0  0  0  0  0  0  0  0  0  0  0
    3.1843   -6.0404    0.0000 C   0  0  0  0  0  0  0  0  0  0  0  0
    1.7515   -5.6906    0.0000 C   0  0  0  0  0  0  0  0  0  0  0  0
    1.3358   -4.2493    0.0000 H   0  0  0  0  0  0  0  0  0  0  0  0
    0.6767   -6.7996    0.0000 C   0  0  0  0  0  0  0  0  0  0  0  0
   -0.7811   -6.4461    0.0000 H   0  0  0  0  0  0  0  0  0  0  0  0
    4.2157   -4.9513    0.0000 C   0  0  0  0  0  0  0  0  0  0  0  0
    3.7881   -3.5135    0.0000 O   0  0  0  0  0  0  0  0  0  0  0  0
    7.0752   -5.6345    0.0000 C   0  0  0  0  0  0  0  0  0  0  0  0
    8.2102   -4.6597    0.0000 C   0  0  0  0  0  0  0  0  0  0  0  0
    8.0503   -2.6862    0.0000 C   0  0  0  0  0  0  0  0  0  0  0  0
    9.2887   -1.8398    0.0000 C   0  0  0  0  0  0  0  0  0  0  0  0
   10.6377   -2.4958    0.0000 H   0  0  0  0  0  0  0  0  0  0  0  0
    9.1913   -0.3681    0.0000 C   0  0  0  0  0  0  0  0  0  0  0  0
   10.4408    0.4618    0.0000 H   0  0  0  0  0  0  0  0  0  0  0  0
    7.8104    0.3233    0.0000 C   0  0  0  0  0  0  0  0  0  0  0  0
    6.5720   -0.5231    0.0000 C   0  0  0  0  0  0  0  0  0  0  0  0
    5.2145    0.1151    0.0000 H   0  0  0  0  0  0  0  0  0  0  0  0
    6.7145   -2.0608    0.0000 C   0  0  0  0  0  0  0  0  0  0  0  0
    5.4873   -2.9234    0.0000 H   0  0  0  0  0  0  0  0  0  0  0  0
    7.7090    1.8198    0.0000 O   0  0  0  0  0  0  0  0  0  0  0  0
    8.9543    2.6560    0.0000 H   0  0  0  0  0  0  0  0  0  0  0  0
    9.4873   -5.4391    0.0000 S   0  0  0  0  0  0  0  0  0  0  0  0
    9.1442   -6.9016    0.0000 C   0  0  0  0  0  0  0  0  0  0  0  0
    7.6491   -7.0227    0.0000 C   0  0  0  0  0  0  0  0  0  0  0  0
    7.0065   -8.3790    0.0000 C   0  0  0  0  0  0  0  0  0  0  0  0
    7.8591   -9.6142    0.0000 C   0  0  0  0  0  0  0  0  0  0  0  0
    7.2162  -10.9695    0.0000 H   0  0  0  0  0  0  0  0  0  0  0  0
    9.3542   -9.4931    0.0000 C   0  0  0  0  0  0  0  0  0  0  0  0
    9.9967   -8.1368    0.0000 C   0  0  0  0  0  0  0  0  0  0  0  0
   11.4918   -8.0157    0.0000 H   0  0  0  0  0  0  0  0  0  0  0  0
   10.2068  -10.7272    0.0000 O   0  0  0  0  0  0  0  0  0  0  0  0
    9.5644  -12.0827    0.0000 H   0  0  0  0  0  0  0  0  0  0  0  0
    5.5114   -8.5002    0.0000 O   0  0  0  0  0  0  0  0  0  0  0  0
    4.8688   -9.8555    0.0000 H   0  0  0  0  0  0  0  0  0  0  0  0
  1  2  1  0  0  0  0 
  1  3  1  0  0  0  0 
  1  4  1  0  0  0  0 
  4  5  1  0  0  0  0 
  4  6  1  0  0  0  0 
  4  7  1  0  0  0  0 
  7  8  1  0  0  0  0 
  7  9  1  0  0  0  0 
  7 10  1  0  0  0  0 
 10 11  1  0  0  0  0 
 11 12  1  0  0  0  0 
 11 13  1  0  0  0  0 
 11 14  1  0  0  0  0 
  1 14  1  0  0  0  0 
 14 15  1  0  0  0  0 
 14 16  1  0  0  0  0 
 10 17  1  0  0  0  0 
 17 18  1  0  0  0  0 
 17 19  1  0  0  0  0 
 17 20  1  0  0  0  0 
 20 21  1  0  0  0  0 
 20 22  1  0  0  0  0 
 20 23  1  0  0  0  0 
 23 24  1  0  0  0  0 
 24 25  2  0  0  0  0 
 25 26  1  0  0  0  0 
 25 27  1  0  0  0  0 
 27 28  1  0  0  0  0 
 27 29  2  0  0  0  0 
 29 30  1  0  0  0  0 
 30 31  1  0  0  0  0 
 30 32  2  0  0  0  0 
 24 32  1  0  0  0  0 
 32 33  1  0  0  0  0 
 29 34  1  0  0  0  0 
 34 35  2  0  0  0  0 
 34 36  1  0  0  0  0 
 36 37  2  0  0  0  0 
 37 38  1  0  0  0  0 
 38 39  2  0  0  0  0 
 39 40  1  0  0  0  0 
 39 41  1  0  0  0  0 
 41 42  1  0  0  0  0 
 41 43  2  0  0  0  0 
 43 44  1  0  0  0  0 
 44 45  1  0  0  0  0 
 44 46  2  0  0  0  0 
 38 46  1  0  0  0  0 
 46 47  1  0  0  0  0 
 43 48  1  0  0  0  0 
 48 49  1  0  0  0  0 
 37 50  1  0  0  0  0 
 50 51  1  0  0  0  0 
 51 52  2  0  0  0  0 
 36 52  1  0  0  0  0 
 52 53  1  0  0  0  0 
 53 54  2  0  0  0  0 
 54 55  1  0  0  0  0 
 54 56  1  0  0  0  0 
 56 57  2  0  0  0  0 
 51 57  1  0  0  0  0 
 57 58  1  0  0  0  0 
 56 59  1  0  0  0  0 
 59 60  1  0  0  0  0 
 53 61  1  0  0  0  0 
 61 62  1  0  0  0  0 
M  END
> <Rank>
28

> <Priority_score>
0.016

> <Reaction_type>
aromatic hydroxylation

> <Parent_ID>
81

> <Parent_InChI>
InChI=1S/C28H27NO4S/c30-21-8-4-20(5-9-21)28-26(24-13-10-22(31)18-25(24)34-28)27(32)19-6-11-23(12-7-19)33-17-16-29-14-2-1-3-15-29/h4-13,18,30-31H,1-3,14-17H2

> <Parent_SMILES>
O=C(c1ccc(OCCN2CCCCC2)cc1)c1c(-c2ccc(O)cc2)sc2cc(O)ccc12

$$$$
Molecule 81_metabolite 29
  CDK     0516241031

 62 66  0  0  0  0  0  0  0  0999 V2000
   -4.0246  -12.0382    0.0000 C   0  0  0  0  0  0  0  0  0  0  0  0
   -3.1154  -13.2312    0.0000 H   0  0  0  0  0  0  0  0  0  0  0  0
   -5.0414  -13.1409    0.0000 H   0  0  0  0  0  0  0  0  0  0  0  0
   -5.2881  -11.2281    0.0000 C   0  0  0  0  0  0  0  0  0  0  0  0
   -5.8662  -12.6122    0.0000 H   0  0  0  0  0  0  0  0  0  0  0  0
   -6.7515  -10.8989    0.0000 H   0  0  0  0  0  0  0  0  0  0  0  0
   -5.2178   -9.7298    0.0000 C   0  0  0  0  0  0  0  0  0  0  0  0
   -6.7056   -9.9206    0.0000 H   0  0  0  0  0  0  0  0  0  0  0  0
   -5.6640   -8.2977    0.0000 H   0  0  0  0  0  0  0  0  0  0  0  0
   -3.8841   -9.0415    0.0000 N   0  0  0  0  0  0  0  0  0  0  0  0
   -2.6207   -9.8515    0.0000 C   0  0  0  0  0  0  0  0  0  0  0  0
   -2.0425   -8.4674    0.0000 H   0  0  0  0  0  0  0  0  0  0  0  0
   -1.1572  -10.1807    0.0000 H   0  0  0  0  0  0  0  0  0  0  0  0
   -2.6909  -11.3499    0.0000 C   0  0  0  0  0  0  0  0  0  0  0  0
   -1.2031  -11.1590    0.0000 H   0  0  0  0  0  0  0  0  0  0  0  0
   -2.2448  -12.7820    0.0000 H   0  0  0  0  0  0  0  0  0  0  0  0
   -3.7914   -7.0636    0.0000 C   0  0  0  0  0  0  0  0  0  0  0  0
   -5.2792   -7.2547    0.0000 H   0  0  0  0  0  0  0  0  0  0  0  0
   -2.4586   -6.3753    0.0000 C   0  0  0  0  0  0  0  0  0  0  0  0
   -1.4417   -5.2727    0.0000 H   0  0  0  0  0  0  0  0  0  0  0  0
   -3.3680   -5.1823    0.0000 H   0  0  0  0  0  0  0  0  0  0  0  0
   -1.1962   -7.1853    0.0000 O   0  0  0  0  0  0  0  0  0  0  0  0
    0.1366   -6.4970    0.0000 C   0  0  0  0  0  0  0  0  0  0  0  0
    1.4432   -7.3202    0.0000 C   0  0  0  0  0  0  0  0  0  0  0  0
    1.3804   -8.8189    0.0000 H   0  0  0  0  0  0  0  0  0  0  0  0
    2.7526   -6.6413    0.0000 C   0  0  0  0  0  0  0  0  0  0  0  0
    4.0124   -7.4555    0.0000 H   0  0  0  0  0  0  0  0  0  0  0  0
    2.8352   -5.1436    0.0000 C   0  0  0  0  0  0  0  0  0  0  0  0
    1.6084   -4.3247    0.0000 C   0  0  0  0  0  0  0  0  0  0  0  0
    1.7108   -2.8282    0.0000 H   0  0  0  0  0  0  0  0  0  0  0  0
    0.2192   -4.9993    0.0000 C   0  0  0  0  0  0  0  0  0  0  0  0
   -1.0298   -4.1685    0.0000 H   0  0  0  0  0  0  0  0  0  0  0  0
    4.1769   -4.4728    0.0000 C   0  0  0  0  0  0  0  0  0  0  0  0
    3.7494   -3.0351    0.0000 O   0  0  0  0  0  0  0  0  0  0  0  0
    6.5695   -5.0446    0.0000 C   0  0  0  0  0  0  0  0  0  0  0  0
    7.7045   -4.0697    0.0000 C   0  0  0  0  0  0  0  0  0  0  0  0
    7.5834   -2.5746    0.0000 C   0  0  0  0  0  0  0  0  0  0  0  0
    8.8218   -1.7283    0.0000 C   0  0  0  0  0  0  0  0  0  0  0  0
   10.1708   -2.3842    0.0000 H   0  0  0  0  0  0  0  0  0  0  0  0
    8.7245   -0.2566    0.0000 C   0  0  0  0  0  0  0  0  0  0  0  0
    9.9739    0.5734    0.0000 H   0  0  0  0  0  0  0  0  0  0  0  0
    7.3435    0.4348    0.0000 C   0  0  0  0  0  0  0  0  0  0  0  0
    6.1051   -0.4115    0.0000 C   0  0  0  0  0  0  0  0  0  0  0  0
    4.7476    0.2266    0.0000 H   0  0  0  0  0  0  0  0  0  0  0  0
    6.2476   -1.9493    0.0000 C   0  0  0  0  0  0  0  0  0  0  0  0
    5.0205   -2.8119    0.0000 H   0  0  0  0  0  0  0  0  0  0  0  0
    7.2421    1.9314    0.0000 O   0  0  0  0  0  0  0  0  0  0  0  0
    8.4875    2.7675    0.0000 H   0  0  0  0  0  0  0  0  0  0  0  0
    8.9816   -4.8492    0.0000 S   0  0  0  0  0  0  0  0  0  0  0  0
    8.6386   -6.3116    0.0000 C   0  0  0  0  0  0  0  0  0  0  0  0
    7.1435   -6.4327    0.0000 C   0  0  0  0  0  0  0  0  0  0  0  0
    6.5009   -7.7891    0.0000 C   0  0  0  0  0  0  0  0  0  0  0  0
    5.0058   -7.9102    0.0000 H   0  0  0  0  0  0  0  0  0  0  0  0
    7.3534   -9.0243    0.0000 C   0  0  0  0  0  0  0  0  0  0  0  0
    6.7106  -10.3795    0.0000 H   0  0  0  0  0  0  0  0  0  0  0  0
    8.8485   -8.9031    0.0000 C   0  0  0  0  0  0  0  0  0  0  0  0
    9.4911   -7.5468    0.0000 C   0  0  0  0  0  0  0  0  0  0  0  0
   10.9862   -7.4257    0.0000 H   0  0  0  0  0  0  0  0  0  0  0  0
    9.7012  -10.1372    0.0000 O   0  0  0  0  0  0  0  0  0  0  0  0
    9.0587  -11.4927    0.0000 H   0  0  0  0  0  0  0  0  0  0  0  0
   -4.2378   -5.6316    0.0000 O   0  0  0  0  0  0  0  0  0  0  0  0
   -5.7012   -5.3023    0.0000 H   0  0  0  0  0  0  0  0  0  0  0  0
  1  2  1  0  0  0  0 
  1  3  1  0  0  0  0 
  1  4  1  0  0  0  0 
  4  5  1  0  0  0  0 
  4  6  1  0  0  0  0 
  4  7  1  0  0  0  0 
  7  8  1  0  0  0  0 
  7  9  1  0  0  0  0 
  7 10  1  0  0  0  0 
 10 11  1  0  0  0  0 
 11 12  1  0  0  0  0 
 11 13  1  0  0  0  0 
 11 14  1  0  0  0  0 
  1 14  1  0  0  0  0 
 14 15  1  0  0  0  0 
 14 16  1  0  0  0  0 
 10 17  1  0  0  0  0 
 17 18  1  0  0  0  0 
 17 19  1  0  0  0  0 
 19 20  1  0  0  0  0 
 19 21  1  0  0  0  0 
 19 22  1  0  0  0  0 
 22 23  1  0  0  0  0 
 23 24  2  0  0  0  0 
 24 25  1  0  0  0  0 
 24 26  1  0  0  0  0 
 26 27  1  0  0  0  0 
 26 28  2  0  0  0  0 
 28 29  1  0  0  0  0 
 29 30  1  0  0  0  0 
 29 31  2  0  0  0  0 
 23 31  1  0  0  0  0 
 31 32  1  0  0  0  0 
 28 33  1  0  0  0  0 
 33 34  2  0  0  0  0 
 33 35  1  0  0  0  0 
 35 36  2  0  0  0  0 
 36 37  1  0  0  0  0 
 37 38  2  0  0  0  0 
 38 39  1  0  0  0  0 
 38 40  1  0  0  0  0 
 40 41  1  0  0  0  0 
 40 42  2  0  0  0  0 
 42 43  1  0  0  0  0 
 43 44  1  0  0  0  0 
 43 45  2  0  0  0  0 
 37 45  1  0  0  0  0 
 45 46  1  0  0  0  0 
 42 47  1  0  0  0  0 
 47 48  1  0  0  0  0 
 36 49  1  0  0  0  0 
 49 50  1  0  0  0  0 
 50 51  2  0  0  0  0 
 35 51  1  0  0  0  0 
 51 52  1  0  0  0  0 
 52 53  1  0  0  0  0 
 52 54  2  0  0  0  0 
 54 55  1  0  0  0  0 
 54 56  1  0  0  0  0 
 56 57  2  0  0  0  0 
 50 57  1  0  0  0  0 
 57 58  1  0  0  0  0 
 56 59  1  0  0  0  0 
 59 60  1  0  0  0  0 
 17 61  1  0  0  0  0 
 61 62  1  0  0  0  0 
M  END
> <Rank>
28

> <Priority_score>
0.016

> <Reaction_type>
aliphatic hydroxylation

> <Parent_ID>
81

> <Parent_InChI>
InChI=1S/C28H27NO4S/c30-21-8-4-20(5-9-21)28-26(24-13-10-22(31)18-25(24)34-28)27(32)19-6-11-23(12-7-19)33-17-16-29-14-2-1-3-15-29/h4-13,18,30-31H,1-3,14-17H2

> <Parent_SMILES>
O=C(c1ccc(OCCN2CCCCC2)cc1)c1c(-c2ccc(O)cc2)sc2cc(O)ccc12

$$$$
Molecule 81_metabolite 30
  CDK     0516241031

 60 64  0  0  0  0  0  0  0  0999 V2000
   -4.0021  -11.5587    0.0000 C   0  0  0  0  0  0  0  0  0  0  0  0
   -3.0929  -12.7518    0.0000 H   0  0  0  0  0  0  0  0  0  0  0  0
   -5.0189  -12.6615    0.0000 H   0  0  0  0  0  0  0  0  0  0  0  0
   -5.2656  -10.7486    0.0000 C   0  0  0  0  0  0  0  0  0  0  0  0
   -5.8438  -12.1327    0.0000 H   0  0  0  0  0  0  0  0  0  0  0  0
   -6.7290  -10.4194    0.0000 H   0  0  0  0  0  0  0  0  0  0  0  0
   -5.1953   -9.2503    0.0000 C   0  0  0  0  0  0  0  0  0  0  0  0
   -6.6831   -9.4411    0.0000 H   0  0  0  0  0  0  0  0  0  0  0  0
   -5.6415   -7.8182    0.0000 H   0  0  0  0  0  0  0  0  0  0  0  0
   -3.8616   -8.5620    0.0000 N   0  0  0  0  0  0  0  0  0  0  0  0
   -3.7914   -7.0636    0.0000 C   0  0  0  0  0  0  0  0  0  0  0  0
   -5.0539   -6.2536    0.0000 H   0  0  0  0  0  0  0  0  0  0  0  0
   -2.4586   -6.3753    0.0000 C   0  0  0  0  0  0  0  0  0  0  0  0
   -1.4417   -5.2727    0.0000 H   0  0  0  0  0  0  0  0  0  0  0  0
   -3.3680   -5.1823    0.0000 H   0  0  0  0  0  0  0  0  0  0  0  0
   -1.1962   -7.1853    0.0000 O   0  0  0  0  0  0  0  0  0  0  0  0
    0.1366   -6.4970    0.0000 C   0  0  0  0  0  0  0  0  0  0  0  0
    1.4432   -7.3202    0.0000 C   0  0  0  0  0  0  0  0  0  0  0  0
    1.3804   -8.8189    0.0000 H   0  0  0  0  0  0  0  0  0  0  0  0
    2.7526   -6.6413    0.0000 C   0  0  0  0  0  0  0  0  0  0  0  0
    4.0124   -7.4555    0.0000 H   0  0  0  0  0  0  0  0  0  0  0  0
    2.8352   -5.1436    0.0000 C   0  0  0  0  0  0  0  0  0  0  0  0
    1.6084   -4.3247    0.0000 C   0  0  0  0  0  0  0  0  0  0  0  0
    1.7108   -2.8282    0.0000 H   0  0  0  0  0  0  0  0  0  0  0  0
    0.2192   -4.9993    0.0000 C   0  0  0  0  0  0  0  0  0  0  0  0
   -1.0298   -4.1685    0.0000 H   0  0  0  0  0  0  0  0  0  0  0  0
    4.1769   -4.4728    0.0000 C   0  0  0  0  0  0  0  0  0  0  0  0
    3.7494   -3.0351    0.0000 O   0  0  0  0  0  0  0  0  0  0  0  0
    6.5695   -5.0446    0.0000 C   0  0  0  0  0  0  0  0  0  0  0  0
    7.7045   -4.0697    0.0000 C   0  0  0  0  0  0  0  0  0  0  0  0
    7.5834   -2.5746    0.0000 C   0  0  0  0  0  0  0  0  0  0  0  0
    8.8218   -1.7283    0.0000 C   0  0  0  0  0  0  0  0  0  0  0  0
   10.1708   -2.3842    0.0000 H   0  0  0  0  0  0  0  0  0  0  0  0
    8.7245   -0.2566    0.0000 C   0  0  0  0  0  0  0  0  0  0  0  0
    9.9739    0.5734    0.0000 H   0  0  0  0  0  0  0  0  0  0  0  0
    7.3435    0.4348    0.0000 C   0  0  0  0  0  0  0  0  0  0  0  0
    6.1051   -0.4115    0.0000 C   0  0  0  0  0  0  0  0  0  0  0  0
    4.7476    0.2266    0.0000 H   0  0  0  0  0  0  0  0  0  0  0  0
    6.2476   -1.9493    0.0000 C   0  0  0  0  0  0  0  0  0  0  0  0
    5.0205   -2.8119    0.0000 H   0  0  0  0  0  0  0  0  0  0  0  0
    7.2421    1.9314    0.0000 O   0  0  0  0  0  0  0  0  0  0  0  0
    8.4875    2.7675    0.0000 H   0  0  0  0  0  0  0  0  0  0  0  0
    8.9816   -4.8492    0.0000 S   0  0  0  0  0  0  0  0  0  0  0  0
    8.6386   -6.3116    0.0000 C   0  0  0  0  0  0  0  0  0  0  0  0
    7.1435   -6.4327    0.0000 C   0  0  0  0  0  0  0  0  0  0  0  0
    6.5009   -7.7891    0.0000 C   0  0  0  0  0  0  0  0  0  0  0  0
    5.0058   -7.9102    0.0000 H   0  0  0  0  0  0  0  0  0  0  0  0
    7.3534   -9.0243    0.0000 C   0  0  0  0  0  0  0  0  0  0  0  0
    6.7106  -10.3795    0.0000 H   0  0  0  0  0  0  0  0  0  0  0  0
    8.8485   -8.9031    0.0000 C   0  0  0  0  0  0  0  0  0  0  0  0
    9.4911   -7.5468    0.0000 C   0  0  0  0  0  0  0  0  0  0  0  0
   10.9862   -7.4257    0.0000 H   0  0  0  0  0  0  0  0  0  0  0  0
    9.7012  -10.1372    0.0000 O   0  0  0  0  0  0  0  0  0  0  0  0
    9.0587  -11.4927    0.0000 H   0  0  0  0  0  0  0  0  0  0  0  0
   -2.5982   -9.3721    0.0000 C   0  0  0  0  0  0  0  0  0  0  0  0
   -2.0200   -7.9880    0.0000 H   0  0  0  0  0  0  0  0  0  0  0  0
   -1.1348   -9.7013    0.0000 H   0  0  0  0  0  0  0  0  0  0  0  0
   -2.6684  -10.8704    0.0000 C   0  0  0  0  0  0  0  0  0  0  0  0
   -1.1806  -10.6796    0.0000 H   0  0  0  0  0  0  0  0  0  0  0  0
   -2.2223  -12.3025    0.0000 H   0  0  0  0  0  0  0  0  0  0  0  0
  1  2  1  0  0  0  0 
  1  3  1  0  0  0  0 
  1  4  1  0  0  0  0 
  4  5  1  0  0  0  0 
  4  6  1  0  0  0  0 
  4  7  1  0  0  0  0 
  7  8  1  0  0  0  0 
  7  9  1  0  0  0  0 
  7 10  1  0  0  0  0 
 10 11  2  0  0  0  0 
 11 12  1  4  0  0  0 
 11 13  1  0  0  0  0 
 13 14  1  0  0  0  0 
 13 15  1  0  0  0  0 
 13 16  1  0  0  0  0 
 16 17  1  0  0  0  0 
 17 18  2  0  0  0  0 
 18 19  1  0  0  0  0 
 18 20  1  0  0  0  0 
 20 21  1  0  0  0  0 
 20 22  2  0  0  0  0 
 22 23  1  0  0  0  0 
 23 24  1  0  0  0  0 
 23 25  2  0  0  0  0 
 17 25  1  0  0  0  0 
 25 26  1  0  0  0  0 
 22 27  1  0  0  0  0 
 27 28  2  0  0  0  0 
 27 29  1  0  0  0  0 
 29 30  2  0  0  0  0 
 30 31  1  0  0  0  0 
 31 32  2  0  0  0  0 
 32 33  1  0  0  0  0 
 32 34  1  0  0  0  0 
 34 35  1  0  0  0  0 
 34 36  2  0  0  0  0 
 36 37  1  0  0  0  0 
 37 38  1  0  0  0  0 
 37 39  2  0  0  0  0 
 31 39  1  0  0  0  0 
 39 40  1  0  0  0  0 
 36 41  1  0  0  0  0 
 41 42  1  0  0  0  0 
 30 43  1  0  0  0  0 
 43 44  1  0  0  0  0 
 44 45  2  0  0  0  0 
 29 45  1  0  0  0  0 
 45 46  1  0  0  0  0 
 46 47  1  0  0  0  0 
 46 48  2  0  0  0  0 
 48 49  1  0  0  0  0 
 48 50  1  0  0  0  0 
 50 51  2  0  0  0  0 
 44 51  1  0  0  0  0 
 51 52  1  0  0  0  0 
 50 53  1  0  0  0  0 
 53 54  1  0  0  0  0 
 10 55  1  0  0  0  0 
 55 56  1  0  0  0  0 
 55 57  1  0  0  0  0 
 55 58  1  0  0  0  0 
  1 58  1  0  0  0  0 
 58 59  1  0  0  0  0 
 58 60  1  0  0  0  0 
M  CHG  1  10   1
M  END
> <Rank>
30

> <Priority_score>
0.0088

> <Reaction_type>
dehydration of N-C bond

> <Parent_ID>
81

> <Parent_InChI>
InChI=1S/C28H27NO4S/c30-21-8-4-20(5-9-21)28-26(24-13-10-22(31)18-25(24)34-28)27(32)19-6-11-23(12-7-19)33-17-16-29-14-2-1-3-15-29/h4-13,18,30-31H,1-3,14-17H2

> <Parent_SMILES>
O=C(c1ccc(OCCN2CCCCC2)cc1)c1c(-c2ccc(O)cc2)sc2cc(O)ccc12

$$$$
Molecule 81_metabolite 31
  CDK     0516241031

 24 24  0  0  0  0  0  0  0  0999 V2000
    0.0000    2.4100    0.0000 C   0  0  0  0  0  0  0  0  0  0  0  0
    0.9641    3.5592    0.0000 H   0  0  0  0  0  0  0  0  0  0  0  0
   -0.9641    3.5592    0.0000 H   0  0  0  0  0  0  0  0  0  0  0  0
   -1.3000    1.6600    0.0000 C   0  0  0  0  0  0  0  0  0  0  0  0
   -1.8127    3.0696    0.0000 H   0  0  0  0  0  0  0  0  0  0  0  0
   -2.7772    1.3997    0.0000 H   0  0  0  0  0  0  0  0  0  0  0  0
   -1.3000    0.1600    0.0000 C   0  0  0  0  0  0  0  0  0  0  0  0
   -2.7772    0.4203    0.0000 H   0  0  0  0  0  0  0  0  0  0  0  0
   -1.8127   -1.2496    0.0000 H   0  0  0  0  0  0  0  0  0  0  0  0
    0.0000   -0.5900    0.0000 N   0  0  0  0  0  0  0  0  0  0  0  0
    1.3000    0.1600    0.0000 C   0  0  0  0  0  0  0  0  0  0  0  0
    1.8127   -1.2496    0.0000 H   0  0  0  0  0  0  0  0  0  0  0  0
    2.7772    0.4203    0.0000 H   0  0  0  0  0  0  0  0  0  0  0  0
    1.3000    1.6600    0.0000 C   0  0  0  0  0  0  0  0  0  0  0  0
    2.7772    1.3997    0.0000 H   0  0  0  0  0  0  0  0  0  0  0  0
    1.8127    3.0696    0.0000 H   0  0  0  0  0  0  0  0  0  0  0  0
   -0.0000   -2.5700    0.0000 C   0  0  0  0  0  0  0  0  0  0  0  0
   -1.4772   -2.3095    0.0000 H   0  0  0  0  0  0  0  0  0  0  0  0
   -0.5130   -3.9795    0.0000 H   0  0  0  0  0  0  0  0  0  0  0  0
    1.2990   -3.3200    0.0000 C   0  0  0  0  0  0  0  0  0  0  0  0
    2.2632   -4.4691    0.0000 H   0  0  0  0  0  0  0  0  0  0  0  0
    0.3349   -4.4691    0.0000 H   0  0  0  0  0  0  0  0  0  0  0  0
    2.5981   -2.5700    0.0000 O   0  0  0  0  0  0  0  0  0  0  0  0
    3.8971   -3.3200    0.0000 H   0  0  0  0  0  0  0  0  0  0  0  0
  1  2  1  0  0  0  0 
  1  3  1  0  0  0  0 
  1  4  1  0  0  0  0 
  4  5  1  0  0  0  0 
  4  6  1  0  0  0  0 
  4  7  1  0  0  0  0 
  7  8  1  0  0  0  0 
  7  9  1  0  0  0  0 
  7 10  1  0  0  0  0 
 10 11  1  0  0  0  0 
 11 12  1  0  0  0  0 
 11 13  1  0  0  0  0 
 11 14  1  0  0  0  0 
  1 14  1  0  0  0  0 
 14 15  1  0  0  0  0 
 14 16  1  0  0  0  0 
 10 17  1  0  0  0  0 
 17 18  1  0  0  0  0 
 17 19  1  0  0  0  0 
 17 20  1  0  0  0  0 
 20 21  1  0  0  0  0 
 20 22  1  0  0  0  0 
 20 23  1  0  0  0  0 
 23 24  1  0  0  0  0 
M  END
> <Rank>
31

> <Priority_score>
0.004

> <Reaction_type>
O-dealkylation_(aromatic)

> <Parent_ID>
81

> <Parent_InChI>
InChI=1S/C28H27NO4S/c30-21-8-4-20(5-9-21)28-26(24-13-10-22(31)18-25(24)34-28)27(32)19-6-11-23(12-7-19)33-17-16-29-14-2-1-3-15-29/h4-13,18,30-31H,1-3,14-17H2

> <Parent_SMILES>
O=C(c1ccc(OCCN2CCCCC2)cc1)c1c(-c2ccc(O)cc2)sc2cc(O)ccc12

$$$$
Molecule 81_metabolite 32
  CDK     0516241031

 40 43  0  0  0  0  0  0  0  0999 V2000
    1.6473   -5.1519    0.0000 C   0  0  0  0  0  0  0  0  0  0  0  0
    3.1175   -5.4498    0.0000 H   0  0  0  0  0  0  0  0  0  0  0  0
    1.1830   -3.7520    0.0000 C   0  0  0  0  0  0  0  0  0  0  0  0
   -0.2831   -3.4347    0.0000 C   0  0  0  0  0  0  0  0  0  0  0  0
   -0.4791   -1.9475    0.0000 H   0  0  0  0  0  0  0  0  0  0  0  0
   -1.2848   -4.5173    0.0000 C   0  0  0  0  0  0  0  0  0  0  0  0
   -2.7465   -4.1807    0.0000 H   0  0  0  0  0  0  0  0  0  0  0  0
   -0.8373   -5.9954    0.0000 C   0  0  0  0  0  0  0  0  0  0  0  0
    0.6288   -6.3127    0.0000 C   0  0  0  0  0  0  0  0  0  0  0  0
    1.0988   -7.7371    0.0000 H   0  0  0  0  0  0  0  0  0  0  0  0
   -1.8542   -7.0980    0.0000 O   0  0  0  0  0  0  0  0  0  0  0  0
   -1.4078   -8.5301    0.0000 H   0  0  0  0  0  0  0  0  0  0  0  0
    2.1853   -2.6360    0.0000 C   0  0  0  0  0  0  0  0  0  0  0  0
    3.6529   -2.9461    0.0000 O   0  0  0  0  0  0  0  0  0  0  0  0
    1.5711   -0.7537    0.0000 C   0  0  0  0  0  0  0  0  0  0  0  0
    2.4511    0.4563    0.0000 C   0  0  0  0  0  0  0  0  0  0  0  0
    3.9511    0.4563    0.0000 C   0  0  0  0  0  0  0  0  0  0  0  0
    4.6947    1.7590    0.0000 C   0  0  0  0  0  0  0  0  0  0  0  0
    3.9320    3.0506    0.0000 H   0  0  0  0  0  0  0  0  0  0  0  0
    6.1695    1.7808    0.0000 C   0  0  0  0  0  0  0  0  0  0  0  0
    6.8958    3.0932    0.0000 H   0  0  0  0  0  0  0  0  0  0  0  0
    6.9701    0.4602    0.0000 C   0  0  0  0  0  0  0  0  0  0  0  0
    6.2265   -0.8425    0.0000 C   0  0  0  0  0  0  0  0  0  0  0  0
    6.9722   -2.1440    0.0000 H   0  0  0  0  0  0  0  0  0  0  0  0
    4.6823   -0.8246    0.0000 C   0  0  0  0  0  0  0  0  0  0  0  0
    3.9216   -2.1174    0.0000 H   0  0  0  0  0  0  0  0  0  0  0  0
    8.4700    0.4800    0.0000 O   0  0  0  0  0  0  0  0  0  0  0  0
    9.2028    1.7888    0.0000 H   0  0  0  0  0  0  0  0  0  0  0  0
    1.5711    1.6663    0.0000 S   0  0  0  0  0  0  0  0  0  0  0  0
    0.1411    1.2063    0.0000 C   0  0  0  0  0  0  0  0  0  0  0  0
    0.1411   -0.2937    0.0000 C   0  0  0  0  0  0  0  0  0  0  0  0
   -1.1589   -1.0437    0.0000 C   0  0  0  0  0  0  0  0  0  0  0  0
   -1.1589   -2.5437    0.0000 H   0  0  0  0  0  0  0  0  0  0  0  0
   -2.4589   -0.2937    0.0000 C   0  0  0  0  0  0  0  0  0  0  0  0
   -3.7578   -1.0439    0.0000 H   0  0  0  0  0  0  0  0  0  0  0  0
   -2.4589    1.2063    0.0000 C   0  0  0  0  0  0  0  0  0  0  0  0
   -1.1589    1.9563    0.0000 C   0  0  0  0  0  0  0  0  0  0  0  0
   -1.1589    3.4563    0.0000 H   0  0  0  0  0  0  0  0  0  0  0  0
   -3.7578    1.9565    0.0000 O   0  0  0  0  0  0  0  0  0  0  0  0
   -5.0570    1.2067    0.0000 H   0  0  0  0  0  0  0  0  0  0  0  0
  1  2  1  0  0  0  0 
  1  3  2  0  0  0  0 
  3  4  1  0  0  0  0 
  4  5  1  0  0  0  0 
  4  6  2  0  0  0  0 
  6  7  1  0  0  0  0 
  6  8  1  0  0  0  0 
  8  9  2  0  0  0  0 
  1  9  1  0  0  0  0 
  9 10  1  0  0  0  0 
  8 11  1  0  0  0  0 
 11 12  1  0  0  0  0 
  3 13  1  0  0  0  0 
 13 14  2  0  0  0  0 
 13 15  1  0  0  0  0 
 15 16  2  0  0  0  0 
 16 17  1  0  0  0  0 
 17 18  2  0  0  0  0 
 18 19  1  0  0  0  0 
 18 20  1  0  0  0  0 
 20 21  1  0  0  0  0 
 20 22  2  0  0  0  0 
 22 23  1  0  0  0  0 
 23 24  1  0  0  0  0 
 23 25  2  0  0  0  0 
 17 25  1  0  0  0  0 
 25 26  1  0  0  0  0 
 22 27  1  0  0  0  0 
 27 28  1  0  0  0  0 
 16 29  1  0  0  0  0 
 29 30  1  0  0  0  0 
 30 31  2  0  0  0  0 
 15 31  1  0  0  0  0 
 31 32  1  0  0  0  0 
 32 33  1  0  0  0  0 
 32 34  2  0  0  0  0 
 34 35  1  0  0  0  0 
 34 36  1  0  0  0  0 
 36 37  2  0  0  0  0 
 30 37  1  0  0  0  0 
 37 38  1  0  0  0  0 
 36 39  1  0  0  0  0 
 39 40  1  0  0  0  0 
M  END
> <Rank>
31

> <Priority_score>
0.004

> <Reaction_type>
O-dealkylation_(aromatic)

> <Parent_ID>
81

> <Parent_InChI>
InChI=1S/C28H27NO4S/c30-21-8-4-20(5-9-21)28-26(24-13-10-22(31)18-25(24)34-28)27(32)19-6-11-23(12-7-19)33-17-16-29-14-2-1-3-15-29/h4-13,18,30-31H,1-3,14-17H2

> <Parent_SMILES>
O=C(c1ccc(OCCN2CCCCC2)cc1)c1c(-c2ccc(O)cc2)sc2cc(O)ccc12

$$$$
Molecule 81_metabolite 33
  CDK     0516241031

 22 22  0  0  0  0  0  0  0  0999 V2000
    2.6331    0.8898    0.0000 C   0  0  0  0  0  0  0  0  0  0  0  0
    4.1103    0.6295    0.0000 H   0  0  0  0  0  0  0  0  0  0  0  0
    3.1463    2.2993    0.0000 H   0  0  0  0  0  0  0  0  0  0  0  0
    1.3336    1.6406    0.0000 C   0  0  0  0  0  0  0  0  0  0  0  0
    2.2980    2.7895    0.0000 H   0  0  0  0  0  0  0  0  0  0  0  0
    0.3695    2.7898    0.0000 H   0  0  0  0  0  0  0  0  0  0  0  0
    0.0345    0.8906    0.0000 C   0  0  0  0  0  0  0  0  0  0  0  0
   -0.4787    2.3001    0.0000 H   0  0  0  0  0  0  0  0  0  0  0  0
   -1.4426    0.6298    0.0000 H   0  0  0  0  0  0  0  0  0  0  0  0
    0.0350   -0.6102    0.0000 N   0  0  0  0  0  0  0  0  0  0  0  0
    1.3345   -1.3610    0.0000 C   0  0  0  0  0  0  0  0  0  0  0  0
    0.3701   -2.5099    0.0000 H   0  0  0  0  0  0  0  0  0  0  0  0
    2.2986   -2.5102    0.0000 H   0  0  0  0  0  0  0  0  0  0  0  0
    2.6336   -0.6110    0.0000 C   0  0  0  0  0  0  0  0  0  0  0  0
    3.1467   -2.0205    0.0000 H   0  0  0  0  0  0  0  0  0  0  0  0
    4.1107   -0.3503    0.0000 H   0  0  0  0  0  0  0  0  0  0  0  0
   -1.6797   -1.6002    0.0000 C   0  0  0  0  0  0  0  0  0  0  0  0
   -2.1928   -0.1907    0.0000 H   0  0  0  0  0  0  0  0  0  0  0  0
   -3.1569   -1.8607    0.0000 H   0  0  0  0  0  0  0  0  0  0  0  0
   -1.6797   -3.1002    0.0000 C   0  0  0  0  0  0  0  0  0  0  0  0
   -2.9788   -3.8502    0.0000 H   0  0  0  0  0  0  0  0  0  0  0  0
   -0.3807   -3.8502    0.0000 O   0  0  0  0  0  0  0  0  0  0  0  0
  1  2  1  0  0  0  0 
  1  3  1  0  0  0  0 
  1  4  1  0  0  0  0 
  4  5  1  0  0  0  0 
  4  6  1  0  0  0  0 
  4  7  1  0  0  0  0 
  7  8  1  0  0  0  0 
  7  9  1  0  0  0  0 
  7 10  1  0  0  0  0 
 10 11  1  0  0  0  0 
 11 12  1  0  0  0  0 
 11 13  1  0  0  0  0 
 11 14  1  0  0  0  0 
  1 14  1  0  0  0  0 
 14 15  1  0  0  0  0 
 14 16  1  0  0  0  0 
 10 17  1  0  0  0  0 
 17 18  1  0  0  0  0 
 17 19  1  0  0  0  0 
 17 20  1  0  0  0  0 
 20 21  1  0  0  0  0 
 20 22  2  0  0  0  0 
M  END
> <Rank>
31

> <Priority_score>
0.004

> <Reaction_type>
oxidative ether cleavage to one alcohol and one aldehyde/ketone

> <Parent_ID>
81

> <Parent_InChI>
InChI=1S/C28H27NO4S/c30-21-8-4-20(5-9-21)28-26(24-13-10-22(31)18-25(24)34-28)27(32)19-6-11-23(12-7-19)33-17-16-29-14-2-1-3-15-29/h4-13,18,30-31H,1-3,14-17H2

> <Parent_SMILES>
O=C(c1ccc(OCCN2CCCCC2)cc1)c1c(-c2ccc(O)cc2)sc2cc(O)ccc12

$$$$
Molecule 81_metabolite 34
  CDK     0516241031

 62 66  0  0  0  0  0  0  0  0999 V2000
    6.4642   -1.7310    0.0000 C   0  0  0  0  0  0  0  0  0  0  0  0
    5.2841   -2.6570    0.0000 H   0  0  0  0  0  0  0  0  0  0  0  0
    7.8310   -2.2851    0.0000 C   0  0  0  0  0  0  0  0  0  0  0  0
    9.0232   -1.3747    0.0000 C   0  0  0  0  0  0  0  0  0  0  0  0
   10.4048   -1.9587    0.0000 H   0  0  0  0  0  0  0  0  0  0  0  0
    8.8484    0.0898    0.0000 C   0  0  0  0  0  0  0  0  0  0  0  0
   10.0524    0.9845    0.0000 H   0  0  0  0  0  0  0  0  0  0  0  0
    7.4330    0.7076    0.0000 C   0  0  0  0  0  0  0  0  0  0  0  0
    6.2409   -0.2028    0.0000 C   0  0  0  0  0  0  0  0  0  0  0  0
    4.8516    0.3629    0.0000 H   0  0  0  0  0  0  0  0  0  0  0  0
    7.2529    2.1967    0.0000 O   0  0  0  0  0  0  0  0  0  0  0  0
    8.4525    3.0972    0.0000 H   0  0  0  0  0  0  0  0  0  0  0  0
    8.0946   -4.2475    0.0000 C   0  0  0  0  0  0  0  0  0  0  0  0
    7.0125   -5.2807    0.0000 C   0  0  0  0  0  0  0  0  0  0  0  0
    7.6588   -6.6367    0.0000 C   0  0  0  0  0  0  0  0  0  0  0  0
    9.1455   -6.4371    0.0000 C   0  0  0  0  0  0  0  0  0  0  0  0
   10.0618   -7.6256    0.0000 C   0  0  0  0  0  0  0  0  0  0  0  0
   11.5485   -7.4260    0.0000 H   0  0  0  0  0  0  0  0  0  0  0  0
    9.4916   -9.0139    0.0000 C   0  0  0  0  0  0  0  0  0  0  0  0
    8.0049   -9.2136    0.0000 C   0  0  0  0  0  0  0  0  0  0  0  0
    7.4343  -10.6008    0.0000 H   0  0  0  0  0  0  0  0  0  0  0  0
    7.0885   -8.0250    0.0000 C   0  0  0  0  0  0  0  0  0  0  0  0
    5.6019   -8.2247    0.0000 H   0  0  0  0  0  0  0  0  0  0  0  0
   10.4080  -10.2014    0.0000 O   0  0  0  0  0  0  0  0  0  0  0  0
    9.8379  -11.5888    0.0000 H   0  0  0  0  0  0  0  0  0  0  0  0
    9.4110   -4.9586    0.0000 S   0  0  0  0  0  0  0  0  0  0  0  0
    4.1210   -4.7490    0.0000 C   0  0  0  0  0  0  0  0  0  0  0  0
    3.6183   -3.3357    0.0000 O   0  0  0  0  0  0  0  0  0  0  0  0
    3.1484   -5.8909    0.0000 C   0  0  0  0  0  0  0  0  0  0  0  0
    1.6745   -5.6124    0.0000 C   0  0  0  0  0  0  0  0  0  0  0  0
    1.1858   -4.1942    0.0000 H   0  0  0  0  0  0  0  0  0  0  0  0
    0.7017   -6.7210    0.0000 C   0  0  0  0  0  0  0  0  0  0  0  0
   -0.7684   -6.4231    0.0000 H   0  0  0  0  0  0  0  0  0  0  0  0
    1.1880   -8.1868    0.0000 C   0  0  0  0  0  0  0  0  0  0  0  0
    2.6619   -8.4654    0.0000 C   0  0  0  0  0  0  0  0  0  0  0  0
    3.1693   -9.8769    0.0000 H   0  0  0  0  0  0  0  0  0  0  0  0
    3.6495   -7.2781    0.0000 C   0  0  0  0  0  0  0  0  0  0  0  0
    5.1270   -7.5372    0.0000 H   0  0  0  0  0  0  0  0  0  0  0  0
    0.2004   -9.3159    0.0000 O   0  0  0  0  0  0  0  0  0  0  0  0
   -1.2711   -9.0252    0.0000 C   0  0  0  0  0  0  0  0  0  0  0  0
   -2.5545   -8.2487    0.0000 H   0  0  0  0  0  0  0  0  0  0  0  0
   -0.7293   -7.6264    0.0000 H   0  0  0  0  0  0  0  0  0  0  0  0
   -2.2587  -10.1542    0.0000 C   0  0  0  0  0  0  0  0  0  0  0  0
   -3.1991   -8.9856    0.0000 H   0  0  0  0  0  0  0  0  0  0  0  0
   -3.5728  -10.8774    0.0000 H   0  0  0  0  0  0  0  0  0  0  0  0
   -1.6198  -12.0283    0.0000 N   0  0  0  0  0  0  0  0  0  0  0  0
   -0.1473  -12.3187    0.0000 C   0  0  0  0  0  0  0  0  0  0  0  0
    1.3349  -12.0884    0.0000 H   0  0  0  0  0  0  0  0  0  0  0  0
   -0.1168  -10.8190    0.0000 H   0  0  0  0  0  0  0  0  0  0  0  0
    0.3367  -13.7384    0.0000 C   0  0  0  0  0  0  0  0  0  0  0  0
    1.2769  -14.9072    0.0000 H   0  0  0  0  0  0  0  0  0  0  0  0
    1.6510  -13.0154    0.0000 H   0  0  0  0  0  0  0  0  0  0  0  0
   -0.6517  -14.8678    0.0000 C   0  0  0  0  0  0  0  0  0  0  0  0
   -1.1934  -16.2666    0.0000 H   0  0  0  0  0  0  0  0  0  0  0  0
   -2.1242  -14.5774    0.0000 C   0  0  0  0  0  0  0  0  0  0  0  0
   -3.6064  -14.8077    0.0000 H   0  0  0  0  0  0  0  0  0  0  0  0
   -2.1546  -16.0771    0.0000 H   0  0  0  0  0  0  0  0  0  0  0  0
   -2.6082  -13.1577    0.0000 C   0  0  0  0  0  0  0  0  0  0  0  0
   -3.5484  -11.9889    0.0000 H   0  0  0  0  0  0  0  0  0  0  0  0
   -3.9224  -13.8807    0.0000 H   0  0  0  0  0  0  0  0  0  0  0  0
    0.6316  -15.6444    0.0000 O   0  0  0  0  0  0  0  0  0  0  0  0
    0.6007  -17.1441    0.0000 H   0  0  0  0  0  0  0  0  0  0  0  0
  1  2  1  0  0  0  0 
  1  3  2  0  0  0  0 
  3  4  1  0  0  0  0 
  4  5  1  0  0  0  0 
  4  6  2  0  0  0  0 
  6  7  1  0  0  0  0 
  6  8  1  0  0  0  0 
  8  9  2  0  0  0  0 
  1  9  1  0  0  0  0 
  9 10  1  0  0  0  0 
  8 11  1  0  0  0  0 
 11 12  1  0  0  0  0 
  3 13  1  0  0  0  0 
 13 14  2  0  0  0  0 
 14 15  1  0  0  0  0 
 15 16  2  0  0  0  0 
 16 17  1  0  0  0  0 
 17 18  1  0  0  0  0 
 17 19  2  0  0  0  0 
 19 20  1  0  0  0  0 
 20 21  1  0  0  0  0 
 20 22  2  0  0  0  0 
 15 22  1  0  0  0  0 
 22 23  1  0  0  0  0 
 19 24  1  0  0  0  0 
 24 25  1  0  0  0  0 
 16 26  1  0  0  0  0 
 13 26  1  0  0  0  0 
 14 27  1  0  0  0  0 
 27 28  2  0  0  0  0 
 27 29  1  0  0  0  0 
 29 30  2  0  0  0  0 
 30 31  1  0  0  0  0 
 30 32  1  0  0  0  0 
 32 33  1  0  0  0  0 
 32 34  2  0  0  0  0 
 34 35  1  0  0  0  0 
 35 36  1  0  0  0  0 
 35 37  2  0  0  0  0 
 29 37  1  0  0  0  0 
 37 38  1  0  0  0  0 
 34 39  1  0  0  0  0 
 39 40  1  0  0  0  0 
 40 41  1  0  0  0  0 
 40 42  1  0  0  0  0 
 40 43  1  0  0  0  0 
 43 44  1  0  0  0  0 
 43 45  1  0  0  0  0 
 43 46  1  0  0  0  0 
 46 47  1  0  0  0  0 
 47 48  1  0  0  0  0 
 47 49  1  0  0  0  0 
 47 50  1  0  0  0  0 
 50 51  1  0  0  0  0 
 50 52  1  0  0  0  0 
 50 53  1  0  0  0  0 
 53 54  1  0  0  0  0 
 53 55  1  0  0  0  0 
 55 56  1  0  0  0  0 
 55 57  1  0  0  0  0 
 55 58  1  0  0  0  0 
 46 58  1  0  0  0  0 
 58 59  1  0  0  0  0 
 58 60  1  0  0  0  0 
 53 61  1  0  0  0  0 
 61 62  1  0  0  0  0 
M  END
> <Rank>
31

> <Priority_score>
0.004

> <Reaction_type>
aliphatic_hydroxylation_(sec_carbon_in_a_ringA)

> <Parent_ID>
81

> <Parent_InChI>
InChI=1S/C28H27NO4S/c30-21-8-4-20(5-9-21)28-26(24-13-10-22(31)18-25(24)34-28)27(32)19-6-11-23(12-7-19)33-17-16-29-14-2-1-3-15-29/h4-13,18,30-31H,1-3,14-17H2

> <Parent_SMILES>
O=C(c1ccc(OCCN2CCCCC2)cc1)c1c(-c2ccc(O)cc2)sc2cc(O)ccc12

$$$$
Molecule 81_metabolite 35
  CDK     0516241031

 59 63  0  0  0  0  0  0  0  0999 V2000
   -1.0854  -13.9288    0.0000 C   0  0  0  0  0  0  0  0  0  0  0  0
    0.1770  -14.7389    0.0000 H   0  0  0  0  0  0  0  0  0  0  0  0
   -1.6637  -15.3128    0.0000 H   0  0  0  0  0  0  0  0  0  0  0  0
   -2.5497  -13.5997    0.0000 C   0  0  0  0  0  0  0  0  0  0  0  0
   -2.6196  -15.0981    0.0000 H   0  0  0  0  0  0  0  0  0  0  0  0
   -4.0374  -13.7909    0.0000 H   0  0  0  0  0  0  0  0  0  0  0  0
   -2.9961  -12.1677    0.0000 C   0  0  0  0  0  0  0  0  0  0  0  0
   -4.3289  -12.8559    0.0000 H   0  0  0  0  0  0  0  0  0  0  0  0
   -3.9052  -10.9745    0.0000 H   0  0  0  0  0  0  0  0  0  0  0  0
   -1.9783  -11.0647    0.0000 N   0  0  0  0  0  0  0  0  0  0  0  0
   -0.5140  -11.3938    0.0000 C   0  0  0  0  0  0  0  0  0  0  0  0
   -0.4440   -9.8954    0.0000 H   0  0  0  0  0  0  0  0  0  0  0  0
    0.9738  -11.2027    0.0000 H   0  0  0  0  0  0  0  0  0  0  0  0
   -0.0675  -12.8258    0.0000 C   0  0  0  0  0  0  0  0  0  0  0  0
    1.2653  -12.1376    0.0000 H   0  0  0  0  0  0  0  0  0  0  0  0
    0.8416  -14.0190    0.0000 H   0  0  0  0  0  0  0  0  0  0  0  0
   -2.4247   -9.6327    0.0000 C   0  0  0  0  0  0  0  0  0  0  0  0
   -3.8881   -9.3033    0.0000 H   0  0  0  0  0  0  0  0  0  0  0  0
   -1.4078   -8.5301    0.0000 C   0  0  0  0  0  0  0  0  0  0  0  0
    0.0556   -8.8594    0.0000 H   0  0  0  0  0  0  0  0  0  0  0  0
   -1.8542   -7.0980    0.0000 O   0  0  0  0  0  0  0  0  0  0  0  0
   -0.8373   -5.9954    0.0000 C   0  0  0  0  0  0  0  0  0  0  0  0
   -1.2848   -4.5173    0.0000 C   0  0  0  0  0  0  0  0  0  0  0  0
   -2.7465   -4.1807    0.0000 H   0  0  0  0  0  0  0  0  0  0  0  0
   -0.2831   -3.4347    0.0000 C   0  0  0  0  0  0  0  0  0  0  0  0
   -0.2178   -1.9361    0.0000 H   0  0  0  0  0  0  0  0  0  0  0  0
    1.1830   -3.7520    0.0000 C   0  0  0  0  0  0  0  0  0  0  0  0
    1.6473   -5.1519    0.0000 C   0  0  0  0  0  0  0  0  0  0  0  0
    3.1175   -5.4498    0.0000 H   0  0  0  0  0  0  0  0  0  0  0  0
    0.6288   -6.3127    0.0000 C   0  0  0  0  0  0  0  0  0  0  0  0
    1.0988   -7.7371    0.0000 H   0  0  0  0  0  0  0  0  0  0  0  0
    2.1853   -2.6360    0.0000 C   0  0  0  0  0  0  0  0  0  0  0  0
    3.6529   -2.9461    0.0000 O   0  0  0  0  0  0  0  0  0  0  0  0
    1.5711   -0.7537    0.0000 C   0  0  0  0  0  0  0  0  0  0  0  0
    2.4511    0.4563    0.0000 C   0  0  0  0  0  0  0  0  0  0  0  0
    3.9511    0.4563    0.0000 C   0  0  0  0  0  0  0  0  0  0  0  0
    4.6947    1.7590    0.0000 C   0  0  0  0  0  0  0  0  0  0  0  0
    3.9320    3.0506    0.0000 H   0  0  0  0  0  0  0  0  0  0  0  0
    6.1695    1.7808    0.0000 C   0  0  0  0  0  0  0  0  0  0  0  0
    6.8958    3.0932    0.0000 H   0  0  0  0  0  0  0  0  0  0  0  0
    6.9701    0.4602    0.0000 C   0  0  0  0  0  0  0  0  0  0  0  0
    6.2265   -0.8425    0.0000 C   0  0  0  0  0  0  0  0  0  0  0  0
    6.9722   -2.1440    0.0000 H   0  0  0  0  0  0  0  0  0  0  0  0
    4.6823   -0.8246    0.0000 C   0  0  0  0  0  0  0  0  0  0  0  0
    3.9216   -2.1174    0.0000 H   0  0  0  0  0  0  0  0  0  0  0  0
    8.4700    0.4800    0.0000 O   0  0  0  0  0  0  0  0  0  0  0  0
    9.2028    1.7888    0.0000 H   0  0  0  0  0  0  0  0  0  0  0  0
    1.5711    1.6663    0.0000 S   0  0  0  0  0  0  0  0  0  0  0  0
    0.1411    1.2063    0.0000 C   0  0  0  0  0  0  0  0  0  0  0  0
    0.1411   -0.2937    0.0000 C   0  0  0  0  0  0  0  0  0  0  0  0
   -1.1589   -1.0437    0.0000 C   0  0  0  0  0  0  0  0  0  0  0  0
   -1.1589   -2.5437    0.0000 H   0  0  0  0  0  0  0  0  0  0  0  0
   -2.4589   -0.2937    0.0000 C   0  0  0  0  0  0  0  0  0  0  0  0
   -3.7578   -1.0439    0.0000 H   0  0  0  0  0  0  0  0  0  0  0  0
   -2.4589    1.2063    0.0000 C   0  0  0  0  0  0  0  0  0  0  0  0
   -1.1589    1.9563    0.0000 C   0  0  0  0  0  0  0  0  0  0  0  0
   -1.1589    3.4563    0.0000 H   0  0  0  0  0  0  0  0  0  0  0  0
   -3.7578    1.9565    0.0000 O   0  0  0  0  0  0  0  0  0  0  0  0
   -5.0570    1.2067    0.0000 H   0  0  0  0  0  0  0  0  0  0  0  0
  1  2  1  0  0  0  0 
  1  3  1  0  0  0  0 
  1  4  1  0  0  0  0 
  4  5  1  0  0  0  0 
  4  6  1  0  0  0  0 
  4  7  1  0  0  0  0 
  7  8  1  0  0  0  0 
  7  9  1  0  0  0  0 
  7 10  1  0  0  0  0 
 10 11  1  0  0  0  0 
 11 12  1  0  0  0  0 
 11 13  1  0  0  0  0 
 11 14  1  0  0  0  0 
  1 14  1  0  0  0  0 
 14 15  1  0  0  0  0 
 14 16  1  0  0  0  0 
 10 17  1  0  0  0  0 
 17 18  1  4  0  0  0 
 17 19  2  0  0  0  0 
 19 20  1  0  0  0  0 
 19 21  1  0  0  0  0 
 21 22  1  0  0  0  0 
 22 23  2  0  0  0  0 
 23 24  1  0  0  0  0 
 23 25  1  0  0  0  0 
 25 26  1  0  0  0  0 
 25 27  2  0  0  0  0 
 27 28  1  0  0  0  0 
 28 29  1  0  0  0  0 
 28 30  2  0  0  0  0 
 22 30  1  0  0  0  0 
 30 31  1  0  0  0  0 
 27 32  1  0  0  0  0 
 32 33  2  0  0  0  0 
 32 34  1  0  0  0  0 
 34 35  2  0  0  0  0 
 35 36  1  0  0  0  0 
 36 37  2  0  0  0  0 
 37 38  1  0  0  0  0 
 37 39  1  0  0  0  0 
 39 40  1  0  0  0  0 
 39 41  2  0  0  0  0 
 41 42  1  0  0  0  0 
 42 43  1  0  0  0  0 
 42 44  2  0  0  0  0 
 36 44  1  0  0  0  0 
 44 45  1  0  0  0  0 
 41 46  1  0  0  0  0 
 46 47  1  0  0  0  0 
 35 48  1  0  0  0  0 
 48 49  1  0  0  0  0 
 49 50  2  0  0  0  0 
 34 50  1  0  0  0  0 
 50 51  1  0  0  0  0 
 51 52  1  0  0  0  0 
 51 53  2  0  0  0  0 
 53 54  1  0  0  0  0 
 53 55  1  0  0  0  0 
 55 56  2  0  0  0  0 
 49 56  1  0  0  0  0 
 56 57  1  0  0  0  0 
 55 58  1  0  0  0  0 
 58 59  1  0  0  0  0 
M  END
> <Rank>
35

> <Priority_score>
0.0032

> <Reaction_type>
alkyl dehydrogenation

> <Parent_ID>
81

> <Parent_InChI>
InChI=1S/C28H27NO4S/c30-21-8-4-20(5-9-21)28-26(24-13-10-22(31)18-25(24)34-28)27(32)19-6-11-23(12-7-19)33-17-16-29-14-2-1-3-15-29/h4-13,18,30-31H,1-3,14-17H2

> <Parent_SMILES>
O=C(c1ccc(OCCN2CCCCC2)cc1)c1c(-c2ccc(O)cc2)sc2cc(O)ccc12

$$$$
Molecule 81_metabolite 36
  CDK     0516241031

 59 63  0  0  0  0  0  0  0  0999 V2000
   -4.0246  -12.0382    0.0000 C   0  0  0  0  0  0  0  0  0  0  0  0
   -4.0949  -13.5365    0.0000 H   0  0  0  0  0  0  0  0  0  0  0  0
   -5.2881  -11.2281    0.0000 C   0  0  0  0  0  0  0  0  0  0  0  0
   -6.6207  -11.9167    0.0000 H   0  0  0  0  0  0  0  0  0  0  0  0
   -5.2178   -9.7298    0.0000 C   0  0  0  0  0  0  0  0  0  0  0  0
   -6.7056   -9.9206    0.0000 H   0  0  0  0  0  0  0  0  0  0  0  0
   -5.6640   -8.2977    0.0000 H   0  0  0  0  0  0  0  0  0  0  0  0
   -3.8841   -9.0415    0.0000 N   0  0  0  0  0  0  0  0  0  0  0  0
   -2.6207   -9.8515    0.0000 C   0  0  0  0  0  0  0  0  0  0  0  0
   -2.0425   -8.4674    0.0000 H   0  0  0  0  0  0  0  0  0  0  0  0
   -1.1572  -10.1807    0.0000 H   0  0  0  0  0  0  0  0  0  0  0  0
   -2.6909  -11.3499    0.0000 C   0  0  0  0  0  0  0  0  0  0  0  0
   -1.2031  -11.1590    0.0000 H   0  0  0  0  0  0  0  0  0  0  0  0
   -2.2448  -12.7820    0.0000 H   0  0  0  0  0  0  0  0  0  0  0  0
   -3.7914   -7.0636    0.0000 C   0  0  0  0  0  0  0  0  0  0  0  0
   -5.2792   -7.2547    0.0000 H   0  0  0  0  0  0  0  0  0  0  0  0
   -4.2378   -5.6316    0.0000 H   0  0  0  0  0  0  0  0  0  0  0  0
   -2.4586   -6.3753    0.0000 C   0  0  0  0  0  0  0  0  0  0  0  0
   -1.4417   -5.2727    0.0000 H   0  0  0  0  0  0  0  0  0  0  0  0
   -3.3680   -5.1823    0.0000 H   0  0  0  0  0  0  0  0  0  0  0  0
   -1.1962   -7.1853    0.0000 O   0  0  0  0  0  0  0  0  0  0  0  0
    0.1366   -6.4970    0.0000 C   0  0  0  0  0  0  0  0  0  0  0  0
    1.4432   -7.3202    0.0000 C   0  0  0  0  0  0  0  0  0  0  0  0
    1.3804   -8.8189    0.0000 H   0  0  0  0  0  0  0  0  0  0  0  0
    2.7526   -6.6413    0.0000 C   0  0  0  0  0  0  0  0  0  0  0  0
    4.0124   -7.4555    0.0000 H   0  0  0  0  0  0  0  0  0  0  0  0
    2.8352   -5.1436    0.0000 C   0  0  0  0  0  0  0  0  0  0  0  0
    1.6084   -4.3247    0.0000 C   0  0  0  0  0  0  0  0  0  0  0  0
    1.7108   -2.8282    0.0000 H   0  0  0  0  0  0  0  0  0  0  0  0
    0.2192   -4.9993    0.0000 C   0  0  0  0  0  0  0  0  0  0  0  0
   -1.0298   -4.1685    0.0000 H   0  0  0  0  0  0  0  0  0  0  0  0
    4.1769   -4.4728    0.0000 C   0  0  0  0  0  0  0  0  0  0  0  0
    3.7494   -3.0351    0.0000 O   0  0  0  0  0  0  0  0  0  0  0  0
    6.5695   -5.0446    0.0000 C   0  0  0  0  0  0  0  0  0  0  0  0
    7.7045   -4.0697    0.0000 C   0  0  0  0  0  0  0  0  0  0  0  0
    7.5834   -2.5746    0.0000 C   0  0  0  0  0  0  0  0  0  0  0  0
    8.8218   -1.7283    0.0000 C   0  0  0  0  0  0  0  0  0  0  0  0
   10.1708   -2.3842    0.0000 H   0  0  0  0  0  0  0  0  0  0  0  0
    8.7245   -0.2566    0.0000 C   0  0  0  0  0  0  0  0  0  0  0  0
    9.9739    0.5734    0.0000 H   0  0  0  0  0  0  0  0  0  0  0  0
    7.3435    0.4348    0.0000 C   0  0  0  0  0  0  0  0  0  0  0  0
    6.1051   -0.4115    0.0000 C   0  0  0  0  0  0  0  0  0  0  0  0
    4.7476    0.2266    0.0000 H   0  0  0  0  0  0  0  0  0  0  0  0
    6.2476   -1.9493    0.0000 C   0  0  0  0  0  0  0  0  0  0  0  0
    5.0205   -2.8119    0.0000 H   0  0  0  0  0  0  0  0  0  0  0  0
    7.2421    1.9314    0.0000 O   0  0  0  0  0  0  0  0  0  0  0  0
    8.4875    2.7675    0.0000 H   0  0  0  0  0  0  0  0  0  0  0  0
    8.9816   -4.8492    0.0000 S   0  0  0  0  0  0  0  0  0  0  0  0
    8.6386   -6.3116    0.0000 C   0  0  0  0  0  0  0  0  0  0  0  0
    7.1435   -6.4327    0.0000 C   0  0  0  0  0  0  0  0  0  0  0  0
    6.5009   -7.7891    0.0000 C   0  0  0  0  0  0  0  0  0  0  0  0
    5.0058   -7.9102    0.0000 H   0  0  0  0  0  0  0  0  0  0  0  0
    7.3534   -9.0243    0.0000 C   0  0  0  0  0  0  0  0  0  0  0  0
    6.7106  -10.3795    0.0000 H   0  0  0  0  0  0  0  0  0  0  0  0
    8.8485   -8.9031    0.0000 C   0  0  0  0  0  0  0  0  0  0  0  0
    9.4911   -7.5468    0.0000 C   0  0  0  0  0  0  0  0  0  0  0  0
   10.9862   -7.4257    0.0000 H   0  0  0  0  0  0  0  0  0  0  0  0
    9.7012  -10.1372    0.0000 O   0  0  0  0  0  0  0  0  0  0  0  0
    9.0587  -11.4927    0.0000 H   0  0  0  0  0  0  0  0  0  0  0  0
  1  2  1  0  0  0  0 
  1  3  2  0  0  0  0 
  3  4  1  0  0  0  0 
  3  5  1  0  0  0  0 
  5  6  1  0  0  0  0 
  5  7  1  0  0  0  0 
  5  8  1  0  0  0  0 
  8  9  1  0  0  0  0 
  9 10  1  0  0  0  0 
  9 11  1  0  0  0  0 
  9 12  1  0  0  0  0 
  1 12  1  0  0  0  0 
 12 13  1  0  0  0  0 
 12 14  1  0  0  0  0 
  8 15  1  0  0  0  0 
 15 16  1  0  0  0  0 
 15 17  1  0  0  0  0 
 15 18  1  0  0  0  0 
 18 19  1  0  0  0  0 
 18 20  1  0  0  0  0 
 18 21  1  0  0  0  0 
 21 22  1  0  0  0  0 
 22 23  2  0  0  0  0 
 23 24  1  0  0  0  0 
 23 25  1  0  0  0  0 
 25 26  1  0  0  0  0 
 25 27  2  0  0  0  0 
 27 28  1  0  0  0  0 
 28 29  1  0  0  0  0 
 28 30  2  0  0  0  0 
 22 30  1  0  0  0  0 
 30 31  1  0  0  0  0 
 27 32  1  0  0  0  0 
 32 33  2  0  0  0  0 
 32 34  1  0  0  0  0 
 34 35  2  0  0  0  0 
 35 36  1  0  0  0  0 
 36 37  2  0  0  0  0 
 37 38  1  0  0  0  0 
 37 39  1  0  0  0  0 
 39 40  1  0  0  0  0 
 39 41  2  0  0  0  0 
 41 42  1  0  0  0  0 
 42 43  1  0  0  0  0 
 42 44  2  0  0  0  0 
 36 44  1  0  0  0  0 
 44 45  1  0  0  0  0 
 41 46  1  0  0  0  0 
 46 47  1  0  0  0  0 
 35 48  1  0  0  0  0 
 48 49  1  0  0  0  0 
 49 50  2  0  0  0  0 
 34 50  1  0  0  0  0 
 50 51  1  0  0  0  0 
 51 52  1  0  0  0  0 
 51 53  2  0  0  0  0 
 53 54  1  0  0  0  0 
 53 55  1  0  0  0  0 
 55 56  2  0  0  0  0 
 49 56  1  0  0  0  0 
 56 57  1  0  0  0  0 
 55 58  1  0  0  0  0 
 58 59  1  0  0  0  0 
M  END
> <Rank>
36

> <Priority_score>
8.0E-4

> <Reaction_type>
alkyl dehydrogenation

> <Parent_ID>
81

> <Parent_InChI>
InChI=1S/C28H27NO4S/c30-21-8-4-20(5-9-21)28-26(24-13-10-22(31)18-25(24)34-28)27(32)19-6-11-23(12-7-19)33-17-16-29-14-2-1-3-15-29/h4-13,18,30-31H,1-3,14-17H2

> <Parent_SMILES>
O=C(c1ccc(OCCN2CCCCC2)cc1)c1c(-c2ccc(O)cc2)sc2cc(O)ccc12

$$$$
Molecule 81_metabolite 37
  CDK     0516241031

 62 66  0  0  0  0  0  0  0  0999 V2000
   -4.0246  -12.0382    0.0000 C   0  0  0  0  0  0  0  0  0  0  0  0
   -3.1154  -13.2312    0.0000 H   0  0  0  0  0  0  0  0  0  0  0  0
   -5.0414  -13.1409    0.0000 H   0  0  0  0  0  0  0  0  0  0  0  0
   -5.2881  -11.2281    0.0000 C   0  0  0  0  0  0  0  0  0  0  0  0
   -5.8662  -12.6122    0.0000 H   0  0  0  0  0  0  0  0  0  0  0  0
   -6.7515  -10.8989    0.0000 H   0  0  0  0  0  0  0  0  0  0  0  0
   -5.2178   -9.7298    0.0000 C   0  0  0  0  0  0  0  0  0  0  0  0
   -6.7056   -9.9206    0.0000 H   0  0  0  0  0  0  0  0  0  0  0  0
   -5.6640   -8.2977    0.0000 H   0  0  0  0  0  0  0  0  0  0  0  0
   -3.8841   -9.0415    0.0000 N   0  0  0  0  0  0  0  0  0  0  0  0
   -2.6207   -9.8515    0.0000 C   0  0  0  0  0  0  0  0  0  0  0  0
   -2.0425   -8.4674    0.0000 H   0  0  0  0  0  0  0  0  0  0  0  0
   -1.1572  -10.1807    0.0000 H   0  0  0  0  0  0  0  0  0  0  0  0
   -2.6909  -11.3499    0.0000 C   0  0  0  0  0  0  0  0  0  0  0  0
   -1.2031  -11.1590    0.0000 H   0  0  0  0  0  0  0  0  0  0  0  0
   -2.2448  -12.7820    0.0000 H   0  0  0  0  0  0  0  0  0  0  0  0
   -3.7914   -7.0636    0.0000 C   0  0  0  0  0  0  0  0  0  0  0  0
   -5.2792   -7.2547    0.0000 H   0  0  0  0  0  0  0  0  0  0  0  0
   -4.2378   -5.6316    0.0000 H   0  0  0  0  0  0  0  0  0  0  0  0
   -2.4586   -6.3753    0.0000 C   0  0  0  0  0  0  0  0  0  0  0  0
   -1.4417   -5.2727    0.0000 H   0  0  0  0  0  0  0  0  0  0  0  0
   -3.3680   -5.1823    0.0000 H   0  0  0  0  0  0  0  0  0  0  0  0
   -1.1962   -7.1853    0.0000 O   0  0  0  0  0  0  0  0  0  0  0  0
    0.1366   -6.4970    0.0000 C   0  0  0  0  0  0  0  0  0  0  0  0
    1.4432   -7.3202    0.0000 C   0  0  0  0  0  0  0  0  0  0  0  0
    1.3804   -8.8189    0.0000 H   0  0  0  0  0  0  0  0  0  0  0  0
    2.7526   -6.6413    0.0000 C   0  0  0  0  0  0  0  0  0  0  0  0
    4.0124   -7.4555    0.0000 H   0  0  0  0  0  0  0  0  0  0  0  0
    2.8352   -5.1436    0.0000 C   0  0  0  0  0  0  0  0  0  0  0  0
    1.6084   -4.3247    0.0000 C   0  0  0  0  0  0  0  0  0  0  0  0
    1.7108   -2.8282    0.0000 H   0  0  0  0  0  0  0  0  0  0  0  0
    0.2192   -4.9993    0.0000 C   0  0  0  0  0  0  0  0  0  0  0  0
   -1.0298   -4.1685    0.0000 H   0  0  0  0  0  0  0  0  0  0  0  0
    4.1769   -4.4728    0.0000 C   0  0  0  0  0  0  0  0  0  0  0  0
    3.7494   -3.0351    0.0000 O   0  0  0  0  0  0  0  0  0  0  0  0
    6.5695   -5.0446    0.0000 C   0  0  0  0  0  0  0  0  0  0  0  0
    7.7045   -4.0697    0.0000 C   0  0  0  0  0  0  0  0  0  0  0  0
    7.5834   -2.5746    0.0000 C   0  0  0  0  0  0  0  0  0  0  0  0
    8.8182   -1.7215    0.0000 C   0  0  0  0  0  0  0  0  0  0  0  0
    8.6977   -0.2255    0.0000 C   0  0  0  0  0  0  0  0  0  0  0  0
    9.9323    0.6265    0.0000 H   0  0  0  0  0  0  0  0  0  0  0  0
    7.3425    0.4174    0.0000 C   0  0  0  0  0  0  0  0  0  0  0  0
    6.1077   -0.4358    0.0000 C   0  0  0  0  0  0  0  0  0  0  0  0
    4.7525    0.2071    0.0000 H   0  0  0  0  0  0  0  0  0  0  0  0
    6.2282   -1.9317    0.0000 C   0  0  0  0  0  0  0  0  0  0  0  0
    4.9937   -2.7838    0.0000 H   0  0  0  0  0  0  0  0  0  0  0  0
    7.2214    1.9125    0.0000 O   0  0  0  0  0  0  0  0  0  0  0  0
    8.4556    2.7649    0.0000 H   0  0  0  0  0  0  0  0  0  0  0  0
   10.1735   -2.3644    0.0000 O   0  0  0  0  0  0  0  0  0  0  0  0
   11.4078   -1.5122    0.0000 H   0  0  0  0  0  0  0  0  0  0  0  0
    8.9816   -4.8492    0.0000 S   0  0  0  0  0  0  0  0  0  0  0  0
    8.6386   -6.3116    0.0000 C   0  0  0  0  0  0  0  0  0  0  0  0
    9.4911   -7.5468    0.0000 C   0  0  0  0  0  0  0  0  0  0  0  0
   10.9862   -7.4257    0.0000 H   0  0  0  0  0  0  0  0  0  0  0  0
    8.8485   -8.9031    0.0000 C   0  0  0  0  0  0  0  0  0  0  0  0
    7.3534   -9.0243    0.0000 C   0  0  0  0  0  0  0  0  0  0  0  0
    6.7106  -10.3795    0.0000 H   0  0  0  0  0  0  0  0  0  0  0  0
    6.5009   -7.7891    0.0000 C   0  0  0  0  0  0  0  0  0  0  0  0
    5.0058   -7.9102    0.0000 H   0  0  0  0  0  0  0  0  0  0  0  0
    7.1435   -6.4327    0.0000 C   0  0  0  0  0  0  0  0  0  0  0  0
    9.7012  -10.1372    0.0000 O   0  0  0  0  0  0  0  0  0  0  0  0
    9.0587  -11.4927    0.0000 H   0  0  0  0  0  0  0  0  0  0  0  0
  1  2  1  0  0  0  0 
  1  3  1  0  0  0  0 
  1  4  1  0  0  0  0 
  4  5  1  0  0  0  0 
  4  6  1  0  0  0  0 
  4  7  1  0  0  0  0 
  7  8  1  0  0  0  0 
  7  9  1  0  0  0  0 
  7 10  1  0  0  0  0 
 10 11  1  0  0  0  0 
 11 12  1  0  0  0  0 
 11 13  1  0  0  0  0 
 11 14  1  0  0  0  0 
  1 14  1  0  0  0  0 
 14 15  1  0  0  0  0 
 14 16  1  0  0  0  0 
 10 17  1  0  0  0  0 
 17 18  1  0  0  0  0 
 17 19  1  0  0  0  0 
 17 20  1  0  0  0  0 
 20 21  1  0  0  0  0 
 20 22  1  0  0  0  0 
 20 23  1  0  0  0  0 
 23 24  1  0  0  0  0 
 24 25  2  0  0  0  0 
 25 26  1  0  0  0  0 
 25 27  1  0  0  0  0 
 27 28  1  0  0  0  0 
 27 29  2  0  0  0  0 
 29 30  1  0  0  0  0 
 30 31  1  0  0  0  0 
 30 32  2  0  0  0  0 
 24 32  1  0  0  0  0 
 32 33  1  0  0  0  0 
 29 34  1  0  0  0  0 
 34 35  2  0  0  0  0 
 34 36  1  0  0  0  0 
 36 37  2  0  0  0  0 
 37 38  1  0  0  0  0 
 38 39  2  0  0  0  0 
 39 40  1  0  0  0  0 
 40 41  1  0  0  0  0 
 40 42  2  0  0  0  0 
 42 43  1  0  0  0  0 
 43 44  1  0  0  0  0 
 43 45  2  0  0  0  0 
 38 45  1  0  0  0  0 
 45 46  1  0  0  0  0 
 42 47  1  0  0  0  0 
 47 48  1  0  0  0  0 
 39 49  1  0  0  0  0 
 49 50  1  0  0  0  0 
 37 51  1  0  0  0  0 
 51 52  1  0  0  0  0 
 52 53  2  0  0  0  0 
 53 54  1  0  0  0  0 
 53 55  1  0  0  0  0 
 55 56  2  0  0  0  0 
 56 57  1  0  0  0  0 
 56 58  1  0  0  0  0 
 58 59  1  0  0  0  0 
 58 60  2  0  0  0  0 
 52 60  1  0  0  0  0 
 36 60  1  0  0  0  0 
 55 61  1  0  0  0  0 
 61 62  1  0  0  0  0 
M  END
> <Rank>
37

> <Priority_score>
0.0

> <Reaction_type>
aromatic hydroxylation

> <Parent_ID>
81

> <Parent_InChI>
InChI=1S/C28H27NO4S/c30-21-8-4-20(5-9-21)28-26(24-13-10-22(31)18-25(24)34-28)27(32)19-6-11-23(12-7-19)33-17-16-29-14-2-1-3-15-29/h4-13,18,30-31H,1-3,14-17H2

> <Parent_SMILES>
O=C(c1ccc(OCCN2CCCCC2)cc1)c1c(-c2ccc(O)cc2)sc2cc(O)ccc12

$$$$
Molecule 81_metabolite 38
  CDK     0516241031

 62 66  0  0  0  0  0  0  0  0999 V2000
   -1.3607    5.4472    0.0000 C   0  0  0  0  0  0  0  0  0  0  0  0
   -2.8364    5.1783    0.0000 H   0  0  0  0  0  0  0  0  0  0  0  0
   -1.8821    6.8537    0.0000 H   0  0  0  0  0  0  0  0  0  0  0  0
   -0.0656    6.2056    0.0000 C   0  0  0  0  0  0  0  0  0  0  0  0
   -1.0367    7.3489    0.0000 H   0  0  0  0  0  0  0  0  0  0  0  0
    0.8917    7.3604    0.0000 H   0  0  0  0  0  0  0  0  0  0  0  0
    1.2378    5.4632    0.0000 C   0  0  0  0  0  0  0  0  0  0  0  0
    1.7427    6.8757    0.0000 H   0  0  0  0  0  0  0  0  0  0  0  0
    2.7165    5.2111    0.0000 H   0  0  0  0  0  0  0  0  0  0  0  0
    1.2461    3.9624    0.0000 N   0  0  0  0  0  0  0  0  0  0  0  0
   -0.0490    3.2040    0.0000 C   0  0  0  0  0  0  0  0  0  0  0  0
    0.9221    2.0608    0.0000 H   0  0  0  0  0  0  0  0  0  0  0  0
   -1.0064    2.0492    0.0000 H   0  0  0  0  0  0  0  0  0  0  0  0
   -1.3524    3.9464    0.0000 C   0  0  0  0  0  0  0  0  0  0  0  0
   -1.8574    2.5340    0.0000 H   0  0  0  0  0  0  0  0  0  0  0  0
   -2.8311    4.1986    0.0000 H   0  0  0  0  0  0  0  0  0  0  0  0
    2.9666    2.9825    0.0000 C   0  0  0  0  0  0  0  0  0  0  0  0
    3.4714    4.3950    0.0000 H   0  0  0  0  0  0  0  0  0  0  0  0
    4.4453    2.7306    0.0000 H   0  0  0  0  0  0  0  0  0  0  0  0
    2.9753    1.4825    0.0000 C   0  0  0  0  0  0  0  0  0  0  0  0
    3.4966    0.0760    0.0000 H   0  0  0  0  0  0  0  0  0  0  0  0
    4.4510    1.7516    0.0000 O   0  0  0  0  0  0  0  0  0  0  0  0
    5.4219    0.6082    0.0000 H   0  0  0  0  0  0  0  0  0  0  0  0
    1.6807    0.7249    0.0000 O   0  0  0  0  0  0  0  0  0  0  0  0
    1.6894   -0.7751    0.0000 C   0  0  0  0  0  0  0  0  0  0  0  0
    0.3630   -1.5660    0.0000 C   0  0  0  0  0  0  0  0  0  0  0  0
   -0.9440   -0.8300    0.0000 H   0  0  0  0  0  0  0  0  0  0  0  0
    0.3740   -3.0409    0.0000 C   0  0  0  0  0  0  0  0  0  0  0  0
   -0.9232   -3.7941    0.0000 H   0  0  0  0  0  0  0  0  0  0  0  0
    1.6712   -3.7940    0.0000 C   0  0  0  0  0  0  0  0  0  0  0  0
    2.9575   -3.0723    0.0000 C   0  0  0  0  0  0  0  0  0  0  0  0
    4.2447   -3.8424    0.0000 H   0  0  0  0  0  0  0  0  0  0  0  0
    2.9867   -1.5282    0.0000 C   0  0  0  0  0  0  0  0  0  0  0  0
    4.2936   -0.7921    0.0000 H   0  0  0  0  0  0  0  0  0  0  0  0
    1.6602   -5.2940    0.0000 C   0  0  0  0  0  0  0  0  0  0  0  0
    3.1355   -5.5653    0.0000 O   0  0  0  0  0  0  0  0  0  0  0  0
    0.0652   -7.1668    0.0000 C   0  0  0  0  0  0  0  0  0  0  0  0
    0.4189   -8.6205    0.0000 C   0  0  0  0  0  0  0  0  0  0  0  0
    1.8063   -9.1909    0.0000 C   0  0  0  0  0  0  0  0  0  0  0  0
    1.9986  -10.6785    0.0000 C   0  0  0  0  0  0  0  0  0  0  0  0
    0.8020  -11.5831    0.0000 H   0  0  0  0  0  0  0  0  0  0  0  0
    3.3543  -11.2595    0.0000 C   0  0  0  0  0  0  0  0  0  0  0  0
    3.5271  -12.7495    0.0000 H   0  0  0  0  0  0  0  0  0  0  0  0
    4.5970  -10.3425    0.0000 C   0  0  0  0  0  0  0  0  0  0  0  0
    4.4046   -8.8549    0.0000 C   0  0  0  0  0  0  0  0  0  0  0  0
    5.5892   -7.9347    0.0000 H   0  0  0  0  0  0  0  0  0  0  0  0
    2.9696   -8.2842    0.0000 C   0  0  0  0  0  0  0  0  0  0  0  0
    2.7576   -6.7993    0.0000 H   0  0  0  0  0  0  0  0  0  0  0  0
    5.9767  -10.9311    0.0000 O   0  0  0  0  0  0  0  0  0  0  0  0
    6.1568  -12.4203    0.0000 H   0  0  0  0  0  0  0  0  0  0  0  0
   -0.8551   -9.4050    0.0000 S   0  0  0  0  0  0  0  0  0  0  0  0
   -2.0027   -8.4358    0.0000 C   0  0  0  0  0  0  0  0  0  0  0  0
   -1.4323   -7.0485    0.0000 C   0  0  0  0  0  0  0  0  0  0  0  0
   -2.3495   -5.8605    0.0000 C   0  0  0  0  0  0  0  0  0  0  0  0
   -1.7791   -4.4732    0.0000 H   0  0  0  0  0  0  0  0  0  0  0  0
   -3.8370   -6.0598    0.0000 C   0  0  0  0  0  0  0  0  0  0  0  0
   -4.7531   -4.8720    0.0000 H   0  0  0  0  0  0  0  0  0  0  0  0
   -4.4074   -7.4471    0.0000 C   0  0  0  0  0  0  0  0  0  0  0  0
   -3.4903   -8.6351    0.0000 C   0  0  0  0  0  0  0  0  0  0  0  0
   -4.0607  -10.0224    0.0000 H   0  0  0  0  0  0  0  0  0  0  0  0
   -5.8940   -7.6470    0.0000 O   0  0  0  0  0  0  0  0  0  0  0  0
   -6.8105   -6.4596    0.0000 H   0  0  0  0  0  0  0  0  0  0  0  0
  1  2  1  0  0  0  0 
  1  3  1  0  0  0  0 
  1  4  1  0  0  0  0 
  4  5  1  0  0  0  0 
  4  6  1  0  0  0  0 
  4  7  1  0  0  0  0 
  7  8  1  0  0  0  0 
  7  9  1  0  0  0  0 
  7 10  1  0  0  0  0 
 10 11  1  0  0  0  0 
 11 12  1  0  0  0  0 
 11 13  1  0  0  0  0 
 11 14  1  0  0  0  0 
  1 14  1  0  0  0  0 
 14 15  1  0  0  0  0 
 14 16  1  0  0  0  0 
 10 17  1  0  0  0  0 
 17 18  1  0  0  0  0 
 17 19  1  0  0  0  0 
 17 20  1  0  0  0  0 
 20 21  1  0  0  0  0 
 20 22  1  0  0  0  0 
 22 23  1  0  0  0  0 
 20 24  1  0  0  0  0 
 24 25  1  0  0  0  0 
 25 26  2  0  0  0  0 
 26 27  1  0  0  0  0 
 26 28  1  0  0  0  0 
 28 29  1  0  0  0  0 
 28 30  2  0  0  0  0 
 30 31  1  0  0  0  0 
 31 32  1  0  0  0  0 
 31 33  2  0  0  0  0 
 25 33  1  0  0  0  0 
 33 34  1  0  0  0  0 
 30 35  1  0  0  0  0 
 35 36  2  0  0  0  0 
 35 37  1  0  0  0  0 
 37 38  2  0  0  0  0 
 38 39  1  0  0  0  0 
 39 40  2  0  0  0  0 
 40 41  1  0  0  0  0 
 40 42  1  0  0  0  0 
 42 43  1  0  0  0  0 
 42 44  2  0  0  0  0 
 44 45  1  0  0  0  0 
 45 46  1  0  0  0  0 
 45 47  2  0  0  0  0 
 39 47  1  0  0  0  0 
 47 48  1  0  0  0  0 
 44 49  1  0  0  0  0 
 49 50  1  0  0  0  0 
 38 51  1  0  0  0  0 
 51 52  1  0  0  0  0 
 52 53  2  0  0  0  0 
 37 53  1  0  0  0  0 
 53 54  1  0  0  0  0 
 54 55  1  0  0  0  0 
 54 56  2  0  0  0  0 
 56 57  1  0  0  0  0 
 56 58  1  0  0  0  0 
 58 59  2  0  0  0  0 
 52 59  1  0  0  0  0 
 59 60  1  0  0  0  0 
 58 61  1  0  0  0  0 
 61 62  1  0  0  0  0 
M  END
> <Rank>
37

> <Priority_score>
0.0

> <Reaction_type>
aliphatic hydroxylation

> <Parent_ID>
81

> <Parent_InChI>
InChI=1S/C28H27NO4S/c30-21-8-4-20(5-9-21)28-26(24-13-10-22(31)18-25(24)34-28)27(32)19-6-11-23(12-7-19)33-17-16-29-14-2-1-3-15-29/h4-13,18,30-31H,1-3,14-17H2

> <Parent_SMILES>
O=C(c1ccc(OCCN2CCCCC2)cc1)c1c(-c2ccc(O)cc2)sc2cc(O)ccc12

$$$$
Molecule 81_metabolite 39
  CDK     0516241031

 62 66  0  0  0  0  0  0  0  0999 V2000
   -1.7808  -15.4477    0.0000 C   0  0  0  0  0  0  0  0  0  0  0  0
   -0.5078  -16.2412    0.0000 H   0  0  0  0  0  0  0  0  0  0  0  0
   -2.3408  -16.8393    0.0000 H   0  0  0  0  0  0  0  0  0  0  0  0
   -3.2493  -15.1380    0.0000 C   0  0  0  0  0  0  0  0  0  0  0  0
   -3.2995  -16.6371    0.0000 H   0  0  0  0  0  0  0  0  0  0  0  0
   -4.7344  -15.3487    0.0000 H   0  0  0  0  0  0  0  0  0  0  0  0
   -3.7146  -13.7119    0.0000 C   0  0  0  0  0  0  0  0  0  0  0  0
   -5.0382  -14.4176    0.0000 H   0  0  0  0  0  0  0  0  0  0  0  0
   -4.6393  -12.5309    0.0000 H   0  0  0  0  0  0  0  0  0  0  0  0
   -2.7113  -12.5957    0.0000 N   0  0  0  0  0  0  0  0  0  0  0  0
   -1.2428  -12.9055    0.0000 C   0  0  0  0  0  0  0  0  0  0  0  0
   -1.1926  -11.4063    0.0000 H   0  0  0  0  0  0  0  0  0  0  0  0
    0.2423  -12.6947    0.0000 H   0  0  0  0  0  0  0  0  0  0  0  0
   -0.7775  -14.3315    0.0000 C   0  0  0  0  0  0  0  0  0  0  0  0
    0.5461  -13.6258    0.0000 H   0  0  0  0  0  0  0  0  0  0  0  0
    0.1472  -15.5126    0.0000 H   0  0  0  0  0  0  0  0  0  0  0  0
   -3.3255  -10.7134    0.0000 C   0  0  0  0  0  0  0  0  0  0  0  0
   -4.6490  -11.4192    0.0000 H   0  0  0  0  0  0  0  0  0  0  0  0
   -4.2504   -9.5325    0.0000 H   0  0  0  0  0  0  0  0  0  0  0  0
   -2.3232   -9.5974    0.0000 C   0  0  0  0  0  0  0  0  0  0  0  0
   -1.7630   -8.2059    0.0000 H   0  0  0  0  0  0  0  0  0  0  0  0
   -3.5962   -8.8041    0.0000 H   0  0  0  0  0  0  0  0  0  0  0  0
   -0.8556   -9.9075    0.0000 O   0  0  0  0  0  0  0  0  0  0  0  0
    0.1468   -8.7915    0.0000 C   0  0  0  0  0  0  0  0  0  0  0  0
   -0.3185   -7.3646    0.0000 C   0  0  0  0  0  0  0  0  0  0  0  0
   -1.7862   -7.0548    0.0000 H   0  0  0  0  0  0  0  0  0  0  0  0
    0.6838   -6.2476    0.0000 C   0  0  0  0  0  0  0  0  0  0  0  0
    0.2181   -4.8217    0.0000 H   0  0  0  0  0  0  0  0  0  0  0  0
    2.1515   -6.5574    0.0000 C   0  0  0  0  0  0  0  0  0  0  0  0
    2.6168   -7.9843    0.0000 C   0  0  0  0  0  0  0  0  0  0  0  0
    1.6144   -9.1014    0.0000 C   0  0  0  0  0  0  0  0  0  0  0  0
    2.0801  -10.5272    0.0000 H   0  0  0  0  0  0  0  0  0  0  0  0
    4.0844   -8.2941    0.0000 O   0  0  0  0  0  0  0  0  0  0  0  0
    4.5499   -9.7201    0.0000 H   0  0  0  0  0  0  0  0  0  0  0  0
    4.1160   -4.3702    0.0000 C   0  0  0  0  0  0  0  0  0  0  0  0
    5.5836   -4.6802    0.0000 O   0  0  0  0  0  0  0  0  0  0  0  0
    3.5018   -2.4878    0.0000 C   0  0  0  0  0  0  0  0  0  0  0  0
    4.3818   -1.2778    0.0000 C   0  0  0  0  0  0  0  0  0  0  0  0
    5.8818   -1.2778    0.0000 C   0  0  0  0  0  0  0  0  0  0  0  0
    6.6254    0.0249    0.0000 C   0  0  0  0  0  0  0  0  0  0  0  0
    5.8627    1.3165    0.0000 H   0  0  0  0  0  0  0  0  0  0  0  0
    8.1002    0.0467    0.0000 C   0  0  0  0  0  0  0  0  0  0  0  0
    8.8266    1.3591    0.0000 H   0  0  0  0  0  0  0  0  0  0  0  0
    8.9008   -1.2739    0.0000 C   0  0  0  0  0  0  0  0  0  0  0  0
    8.1573   -2.5766    0.0000 C   0  0  0  0  0  0  0  0  0  0  0  0
    8.9029   -3.8782    0.0000 H   0  0  0  0  0  0  0  0  0  0  0  0
    6.6130   -2.5588    0.0000 C   0  0  0  0  0  0  0  0  0  0  0  0
    5.8523   -3.8516    0.0000 H   0  0  0  0  0  0  0  0  0  0  0  0
   10.4007   -1.2542    0.0000 O   0  0  0  0  0  0  0  0  0  0  0  0
   11.1335    0.0546    0.0000 H   0  0  0  0  0  0  0  0  0  0  0  0
    3.5018   -0.0678    0.0000 S   0  0  0  0  0  0  0  0  0  0  0  0
    2.0718   -0.5278    0.0000 C   0  0  0  0  0  0  0  0  0  0  0  0
    2.0718   -2.0278    0.0000 C   0  0  0  0  0  0  0  0  0  0  0  0
    0.7718   -2.7778    0.0000 C   0  0  0  0  0  0  0  0  0  0  0  0
    0.7718   -4.2778    0.0000 H   0  0  0  0  0  0  0  0  0  0  0  0
   -0.5282   -2.0278    0.0000 C   0  0  0  0  0  0  0  0  0  0  0  0
   -1.8271   -2.7780    0.0000 H   0  0  0  0  0  0  0  0  0  0  0  0
   -0.5282   -0.5278    0.0000 C   0  0  0  0  0  0  0  0  0  0  0  0
    0.7718    0.2222    0.0000 C   0  0  0  0  0  0  0  0  0  0  0  0
    0.7718    1.7222    0.0000 H   0  0  0  0  0  0  0  0  0  0  0  0
   -1.8271    0.2224    0.0000 O   0  0  0  0  0  0  0  0  0  0  0  0
   -3.1262   -0.5274    0.0000 H   0  0  0  0  0  0  0  0  0  0  0  0
  1  2  1  0  0  0  0 
  1  3  1  0  0  0  0 
  1  4  1  0  0  0  0 
  4  5  1  0  0  0  0 
  4  6  1  0  0  0  0 
  4  7  1  0  0  0  0 
  7  8  1  0  0  0  0 
  7  9  1  0  0  0  0 
  7 10  1  0  0  0  0 
 10 11  1  0  0  0  0 
 11 12  1  0  0  0  0 
 11 13  1  0  0  0  0 
 11 14  1  0  0  0  0 
  1 14  1  0  0  0  0 
 14 15  1  0  0  0  0 
 14 16  1  0  0  0  0 
 10 17  1  0  0  0  0 
 17 18  1  0  0  0  0 
 17 19  1  0  0  0  0 
 17 20  1  0  0  0  0 
 20 21  1  0  0  0  0 
 20 22  1  0  0  0  0 
 20 23  1  0  0  0  0 
 23 24  1  0  0  0  0 
 24 25  2  0  0  0  0 
 25 26  1  0  0  0  0 
 25 27  1  0  0  0  0 
 27 28  1  0  0  0  0 
 27 29  2  0  0  0  0 
 29 30  1  0  0  0  0 
 30 31  2  0  0  0  0 
 24 31  1  0  0  0  0 
 31 32  1  0  0  0  0 
 30 33  1  0  0  0  0 
 33 34  1  0  0  0  0 
 29 35  1  0  0  0  0 
 35 36  2  0  0  0  0 
 35 37  1  0  0  0  0 
 37 38  2  0  0  0  0 
 38 39  1  0  0  0  0 
 39 40  2  0  0  0  0 
 40 41  1  0  0  0  0 
 40 42  1  0  0  0  0 
 42 43  1  0  0  0  0 
 42 44  2  0  0  0  0 
 44 45  1  0  0  0  0 
 45 46  1  0  0  0  0 
 45 47  2  0  0  0  0 
 39 47  1  0  0  0  0 
 47 48  1  0  0  0  0 
 44 49  1  0  0  0  0 
 49 50  1  0  0  0  0 
 38 51  1  0  0  0  0 
 51 52  1  0  0  0  0 
 52 53  2  0  0  0  0 
 37 53  1  0  0  0  0 
 53 54  1  0  0  0  0 
 54 55  1  0  0  0  0 
 54 56  2  0  0  0  0 
 56 57  1  0  0  0  0 
 56 58  1  0  0  0  0 
 58 59  2  0  0  0  0 
 52 59  1  0  0  0  0 
 59 60  1  0  0  0  0 
 58 61  1  0  0  0  0 
 61 62  1  0  0  0  0 
M  END
> <Rank>
37

> <Priority_score>
0.0

> <Reaction_type>
aromatic hydroxylation

> <Parent_ID>
81

> <Parent_InChI>
InChI=1S/C28H27NO4S/c30-21-8-4-20(5-9-21)28-26(24-13-10-22(31)18-25(24)34-28)27(32)19-6-11-23(12-7-19)33-17-16-29-14-2-1-3-15-29/h4-13,18,30-31H,1-3,14-17H2

> <Parent_SMILES>
O=C(c1ccc(OCCN2CCCCC2)cc1)c1c(-c2ccc(O)cc2)sc2cc(O)ccc12

$$$$
Molecule 82
  CDK     0516241031

 19 21  0  0  0  0  0  0  0  0999 V2000
    0.1096    6.0776    0.0000 C   0  0  0  0  0  0  0  0  0  0  0  0
   -1.3245    5.6351    0.0000 C   0  0  0  0  0  0  0  0  0  0  0  0
   -1.6577    4.1726    0.0000 C   0  0  0  0  0  0  0  0  0  0  0  0
   -0.5568    3.1525    0.0000 C   0  0  0  0  0  0  0  0  0  0  0  0
    0.8773    3.5950    0.0000 C   0  0  0  0  0  0  0  0  0  0  0  0
    1.2106    5.0575    0.0000 C   0  0  0  0  0  0  0  0  0  0  0  0
   -0.8900    1.6900    0.0000 C   0  0  0  0  0  0  0  0  0  0  0  0
   -2.3500    1.3500    0.0000 N   0  0  0  0  0  0  0  0  0  0  0  0
   -3.0000    0.0000    0.0000 C   0  0  0  0  0  0  0  0  0  0  0  0
   -2.3500   -1.3500    0.0000 C   0  0  0  0  0  0  0  0  0  0  0  0
   -3.2879   -2.5207    0.0000 O   0  0  0  0  0  0  0  0  0  0  0  0
   -0.8900   -1.6900    0.0000 N   0  0  0  0  0  0  0  0  0  0  0  0
    0.2800   -0.7500    0.0000 C   0  0  0  0  0  0  0  0  0  0  0  0
    0.2800    0.7500    0.0000 C   0  0  0  0  0  0  0  0  0  0  0  0
    1.5800    1.5000    0.0000 C   0  0  0  0  0  0  0  0  0  0  0  0
    2.8800    0.7500    0.0000 C   0  0  0  0  0  0  0  0  0  0  0  0
    2.8800   -0.7500    0.0000 C   0  0  0  0  0  0  0  0  0  0  0  0
    1.5800   -1.5000    0.0000 C   0  0  0  0  0  0  0  0  0  0  0  0
    4.1789    1.5002    0.0000 Cl  0  0  0  0  0  0  0  0  0  0  0  0
  1  2  2  0  0  0  0 
  2  3  1  0  0  0  0 
  3  4  2  0  0  0  0 
  4  5  1  0  0  0  0 
  5  6  2  0  0  0  0 
  1  6  1  0  0  0  0 
  4  7  1  0  0  0  0 
  7  8  2  0  0  0  0 
  8  9  1  0  0  0  0 
  9 10  1  0  0  0  0 
 10 11  2  0  0  0  0 
 10 12  1  0  0  0  0 
 12 13  1  0  0  0  0 
 13 14  2  0  0  0  0 
  7 14  1  0  0  0  0 
 14 15  1  0  0  0  0 
 15 16  2  0  0  0  0 
 16 17  1  0  0  0  0 
 17 18  2  0  0  0  0 
 13 18  1  0  0  0  0 
 16 19  1  0  0  0  0 
M  END
> <SMILES>
O=C1CN=C(c2ccccc2)c2cc(Cl)ccc2N1

$$$$
Molecule 82_metabolite 1
  CDK     0516241031

 31 33  0  0  0  0  0  0  0  0999 V2000
   -2.0111    4.4962    0.0000 C   0  0  0  0  0  0  0  0  0  0  0  0
   -3.4398    4.0394    0.0000 H   0  0  0  0  0  0  0  0  0  0  0  0
   -1.7047    5.9389    0.0000 C   0  0  0  0  0  0  0  0  0  0  0  0
   -2.8229    6.9387    0.0000 H   0  0  0  0  0  0  0  0  0  0  0  0
   -0.2392    6.4262    0.0000 C   0  0  0  0  0  0  0  0  0  0  0  0
    0.8658    5.4118    0.0000 C   0  0  0  0  0  0  0  0  0  0  0  0
    2.3004    5.8497    0.0000 H   0  0  0  0  0  0  0  0  0  0  0  0
    0.5053    3.9101    0.0000 C   0  0  0  0  0  0  0  0  0  0  0  0
    1.9461    2.5520    0.0000 H   0  0  0  0  0  0  0  0  0  0  0  0
   -0.9061    3.4818    0.0000 C   0  0  0  0  0  0  0  0  0  0  0  0
   -1.3459    1.5512    0.0000 C   0  0  0  0  0  0  0  0  0  0  0  0
   -2.8059    1.2112    0.0000 N   0  0  0  0  0  0  0  0  0  0  0  0
   -3.4559   -0.1388    0.0000 C   0  0  0  0  0  0  0  0  0  0  0  0
   -4.6287    0.7964    0.0000 H   0  0  0  0  0  0  0  0  0  0  0  0
   -4.6287   -1.0740    0.0000 H   0  0  0  0  0  0  0  0  0  0  0  0
   -2.8059   -1.4888    0.0000 C   0  0  0  0  0  0  0  0  0  0  0  0
   -3.7438   -2.6594    0.0000 O   0  0  0  0  0  0  0  0  0  0  0  0
   -1.3459   -1.8288    0.0000 N   0  0  0  0  0  0  0  0  0  0  0  0
   -1.0127   -3.2913    0.0000 H   0  0  0  0  0  0  0  0  0  0  0  0
   -0.1759   -0.8888    0.0000 C   0  0  0  0  0  0  0  0  0  0  0  0
   -0.1759    0.6112    0.0000 C   0  0  0  0  0  0  0  0  0  0  0  0
    1.1241    1.3612    0.0000 C   0  0  0  0  0  0  0  0  0  0  0  0
    1.1241    2.8612    0.0000 H   0  0  0  0  0  0  0  0  0  0  0  0
    2.4241    0.6112    0.0000 C   0  0  0  0  0  0  0  0  0  0  0  0
    2.4241   -0.8888    0.0000 C   0  0  0  0  0  0  0  0  0  0  0  0
    3.7230   -1.6390    0.0000 H   0  0  0  0  0  0  0  0  0  0  0  0
    1.1241   -1.6388    0.0000 C   0  0  0  0  0  0  0  0  0  0  0  0
    1.1241   -3.1388    0.0000 H   0  0  0  0  0  0  0  0  0  0  0  0
    3.7230    1.3614    0.0000 Cl  0  0  0  0  0  0  0  0  0  0  0  0
    0.0747    7.8930    0.0000 O   0  0  0  0  0  0  0  0  0  0  0  0
   -1.0386    8.8982    0.0000 H   0  0  0  0  0  0  0  0  0  0  0  0
  1  2  1  0  0  0  0 
  1  3  2  0  0  0  0 
  3  4  1  0  0  0  0 
  3  5  1  0  0  0  0 
  5  6  2  0  0  0  0 
  6  7  1  0  0  0  0 
  6  8  1  0  0  0  0 
  8  9  1  0  0  0  0 
  8 10  2  0  0  0  0 
  1 10  1  0  0  0  0 
 10 11  1  0  0  0  0 
 11 12  2  0  0  0  0 
 12 13  1  0  0  0  0 
 13 14  1  0  0  0  0 
 13 15  1  0  0  0  0 
 13 16  1  0  0  0  0 
 16 17  2  0  0  0  0 
 16 18  1  0  0  0  0 
 18 19  1  0  0  0  0 
 18 20  1  0  0  0  0 
 20 21  2  0  0  0  0 
 11 21  1  0  0  0  0 
 21 22  1  0  0  0  0 
 22 23  1  0  0  0  0 
 22 24  2  0  0  0  0 
 24 25  1  0  0  0  0 
 25 26  1  0  0  0  0 
 25 27  2  0  0  0  0 
 20 27  1  0  0  0  0 
 27 28  1  0  0  0  0 
 24 29  1  0  0  0  0 
  5 30  1  0  0  0  0 
 30 31  1  0  0  0  0 
M  END
> <Rank>
1

> <Priority_score>
0.3358408085912824

> <Reaction_type>
aromatic_hydroxylation_(para_to_carbon)

> <Parent_ID>
82

> <Parent_InChI>
InChI=1S/C15H11ClN2O/c16-11-6-7-13-12(8-11)15(17-9-14(19)18-13)10-4-2-1-3-5-10/h1-8H,9H2,(H,18,19)

> <Parent_SMILES>
O=C1CN=C(c2ccccc2)c2cc(Cl)ccc2N1

$$$$
Molecule 82_metabolite 2
  CDK     0516241031

 31 33  0  0  0  0  0  0  0  0999 V2000
   -1.6737    5.9533    0.0000 C   0  0  0  0  0  0  0  0  0  0  0  0
   -2.7722    6.9746    0.0000 H   0  0  0  0  0  0  0  0  0  0  0  0
   -2.0093    4.4993    0.0000 C   0  0  0  0  0  0  0  0  0  0  0  0
   -3.4432    4.0588    0.0000 H   0  0  0  0  0  0  0  0  0  0  0  0
   -0.9089    3.4788    0.0000 C   0  0  0  0  0  0  0  0  0  0  0  0
    0.5242    3.9217    0.0000 C   0  0  0  0  0  0  0  0  0  0  0  0
    1.9766    2.5760    0.0000 H   0  0  0  0  0  0  0  0  0  0  0  0
    0.8569    5.3852    0.0000 C   0  0  0  0  0  0  0  0  0  0  0  0
   -0.2405    6.3962    0.0000 C   0  0  0  0  0  0  0  0  0  0  0  0
    0.0902    7.8593    0.0000 H   0  0  0  0  0  0  0  0  0  0  0  0
    2.2893    5.8305    0.0000 O   0  0  0  0  0  0  0  0  0  0  0  0
    2.6198    7.2936    0.0000 H   0  0  0  0  0  0  0  0  0  0  0  0
   -1.3487    1.5482    0.0000 C   0  0  0  0  0  0  0  0  0  0  0  0
   -2.8087    1.2082    0.0000 N   0  0  0  0  0  0  0  0  0  0  0  0
   -3.4587   -0.1418    0.0000 C   0  0  0  0  0  0  0  0  0  0  0  0
   -4.6315    0.7934    0.0000 H   0  0  0  0  0  0  0  0  0  0  0  0
   -4.6315   -1.0770    0.0000 H   0  0  0  0  0  0  0  0  0  0  0  0
   -2.8087   -1.4918    0.0000 C   0  0  0  0  0  0  0  0  0  0  0  0
   -3.7466   -2.6624    0.0000 O   0  0  0  0  0  0  0  0  0  0  0  0
   -1.3487   -1.8318    0.0000 N   0  0  0  0  0  0  0  0  0  0  0  0
   -1.0155   -3.2943    0.0000 H   0  0  0  0  0  0  0  0  0  0  0  0
   -0.1787   -0.8918    0.0000 C   0  0  0  0  0  0  0  0  0  0  0  0
   -0.1787    0.6082    0.0000 C   0  0  0  0  0  0  0  0  0  0  0  0
    1.1213    1.3582    0.0000 C   0  0  0  0  0  0  0  0  0  0  0  0
    1.1213    2.8582    0.0000 H   0  0  0  0  0  0  0  0  0  0  0  0
    2.4213    0.6082    0.0000 C   0  0  0  0  0  0  0  0  0  0  0  0
    2.4213   -0.8918    0.0000 C   0  0  0  0  0  0  0  0  0  0  0  0
    3.7202   -1.6420    0.0000 H   0  0  0  0  0  0  0  0  0  0  0  0
    1.1213   -1.6418    0.0000 C   0  0  0  0  0  0  0  0  0  0  0  0
    1.1213   -3.1418    0.0000 H   0  0  0  0  0  0  0  0  0  0  0  0
    3.7202    1.3584    0.0000 Cl  0  0  0  0  0  0  0  0  0  0  0  0
  1  2  1  0  0  0  0 
  1  3  2  0  0  0  0 
  3  4  1  0  0  0  0 
  3  5  1  0  0  0  0 
  5  6  2  0  0  0  0 
  6  7  1  0  0  0  0 
  6  8  1  0  0  0  0 
  8  9  2  0  0  0  0 
  1  9  1  0  0  0  0 
  9 10  1  0  0  0  0 
  8 11  1  0  0  0  0 
 11 12  1  0  0  0  0 
  5 13  1  0  0  0  0 
 13 14  2  0  0  0  0 
 14 15  1  0  0  0  0 
 15 16  1  0  0  0  0 
 15 17  1  0  0  0  0 
 15 18  1  0  0  0  0 
 18 19  2  0  0  0  0 
 18 20  1  0  0  0  0 
 20 21  1  0  0  0  0 
 20 22  1  0  0  0  0 
 22 23  2  0  0  0  0 
 13 23  1  0  0  0  0 
 23 24  1  0  0  0  0 
 24 25  1  0  0  0  0 
 24 26  2  0  0  0  0 
 26 27  1  0  0  0  0 
 27 28  1  0  0  0  0 
 27 29  2  0  0  0  0 
 22 29  1  0  0  0  0 
 29 30  1  0  0  0  0 
 26 31  1  0  0  0  0 
M  END
> <Rank>
1

> <Priority_score>
0.3358408085912824

> <Reaction_type>
aromatic_hydroxylation_(meta_to_carbon)

> <Parent_ID>
82

> <Parent_InChI>
InChI=1S/C15H11ClN2O/c16-11-6-7-13-12(8-11)15(17-9-14(19)18-13)10-4-2-1-3-5-10/h1-8H,9H2,(H,18,19)

> <Parent_SMILES>
O=C1CN=C(c2ccccc2)c2cc(Cl)ccc2N1

$$$$
Molecule 82_metabolite 3
  CDK     0516241031

 35 37  0  0  0  0  0  0  0  0999 V2000
   -2.4428    8.4440    0.0000 C   0  0  0  0  0  0  0  0  0  0  0  0
   -3.5426    9.4640    0.0000 H   0  0  0  0  0  0  0  0  0  0  0  0
   -1.0604    7.8616    0.0000 H   0  0  0  0  0  0  0  0  0  0  0  0
   -1.6293    9.7042    0.0000 H   0  0  0  0  0  0  0  0  0  0  0  0
   -2.7762    6.9815    0.0000 O   0  0  0  0  0  0  0  0  0  0  0  0
   -1.6764    5.9615    0.0000 C   0  0  0  0  0  0  0  0  0  0  0  0
   -0.2423    6.4040    0.0000 C   0  0  0  0  0  0  0  0  0  0  0  0
    0.8586    5.3839    0.0000 C   0  0  0  0  0  0  0  0  0  0  0  0
    2.2917    5.8268    0.0000 H   0  0  0  0  0  0  0  0  0  0  0  0
    0.5254    3.9214    0.0000 C   0  0  0  0  0  0  0  0  0  0  0  0
    1.9771    2.5750    0.0000 H   0  0  0  0  0  0  0  0  0  0  0  0
   -0.9087    3.4789    0.0000 C   0  0  0  0  0  0  0  0  0  0  0  0
   -2.0096    4.4990    0.0000 C   0  0  0  0  0  0  0  0  0  0  0  0
   -3.4428    4.0561    0.0000 H   0  0  0  0  0  0  0  0  0  0  0  0
   -1.3486    1.5484    0.0000 C   0  0  0  0  0  0  0  0  0  0  0  0
   -2.8086    1.2084    0.0000 N   0  0  0  0  0  0  0  0  0  0  0  0
   -3.4586   -0.1416    0.0000 C   0  0  0  0  0  0  0  0  0  0  0  0
   -4.6313    0.7936    0.0000 H   0  0  0  0  0  0  0  0  0  0  0  0
   -4.6313   -1.0768    0.0000 H   0  0  0  0  0  0  0  0  0  0  0  0
   -2.8086   -1.4916    0.0000 C   0  0  0  0  0  0  0  0  0  0  0  0
   -3.7464   -2.6623    0.0000 O   0  0  0  0  0  0  0  0  0  0  0  0
   -1.3486   -1.8316    0.0000 N   0  0  0  0  0  0  0  0  0  0  0  0
   -1.0154   -3.2941    0.0000 H   0  0  0  0  0  0  0  0  0  0  0  0
   -0.1786   -0.8916    0.0000 C   0  0  0  0  0  0  0  0  0  0  0  0
   -0.1786    0.6084    0.0000 C   0  0  0  0  0  0  0  0  0  0  0  0
    1.1214    1.3584    0.0000 C   0  0  0  0  0  0  0  0  0  0  0  0
    1.1214    2.8584    0.0000 H   0  0  0  0  0  0  0  0  0  0  0  0
    2.4214    0.6084    0.0000 C   0  0  0  0  0  0  0  0  0  0  0  0
    2.4214   -0.8916    0.0000 C   0  0  0  0  0  0  0  0  0  0  0  0
    3.7204   -1.6418    0.0000 H   0  0  0  0  0  0  0  0  0  0  0  0
    1.1214   -1.6416    0.0000 C   0  0  0  0  0  0  0  0  0  0  0  0
    1.1214   -3.1416    0.0000 H   0  0  0  0  0  0  0  0  0  0  0  0
    3.7204    1.3586    0.0000 Cl  0  0  0  0  0  0  0  0  0  0  0  0
    0.0909    7.8665    0.0000 O   0  0  0  0  0  0  0  0  0  0  0  0
   -1.0091    8.8863    0.0000 H   0  0  0  0  0  0  0  0  0  0  0  0
  1  2  1  0  0  0  0 
  1  3  1  0  0  0  0 
  1  4  1  0  0  0  0 
  1  5  1  0  0  0  0 
  5  6  1  0  0  0  0 
  6  7  2  0  0  0  0 
  7  8  1  0  0  0  0 
  8  9  1  0  0  0  0 
  8 10  2  0  0  0  0 
 10 11  1  0  0  0  0 
 10 12  1  0  0  0  0 
 12 13  2  0  0  0  0 
  6 13  1  0  0  0  0 
 13 14  1  0  0  0  0 
 12 15  1  0  0  0  0 
 15 16  2  0  0  0  0 
 16 17  1  0  0  0  0 
 17 18  1  0  0  0  0 
 17 19  1  0  0  0  0 
 17 20  1  0  0  0  0 
 20 21  2  0  0  0  0 
 20 22  1  0  0  0  0 
 22 23  1  0  0  0  0 
 22 24  1  0  0  0  0 
 24 25  2  0  0  0  0 
 15 25  1  0  0  0  0 
 25 26  1  0  0  0  0 
 26 27  1  0  0  0  0 
 26 28  2  0  0  0  0 
 28 29  1  0  0  0  0 
 29 30  1  0  0  0  0 
 29 31  2  0  0  0  0 
 24 31  1  0  0  0  0 
 31 32  1  0  0  0  0 
 28 33  1  0  0  0  0 
  7 34  1  0  0  0  0 
 34 35  1  0  0  0  0 
M  END
> <Rank>
1

> <Priority_score>
0.3358408085912824

> <Reaction_type>
aromatic_oxidation

> <Parent_ID>
82

> <Parent_InChI>
InChI=1S/C15H11ClN2O/c16-11-6-7-13-12(8-11)15(17-9-14(19)18-13)10-4-2-1-3-5-10/h1-8H,9H2,(H,18,19)

> <Parent_SMILES>
O=C1CN=C(c2ccccc2)c2cc(Cl)ccc2N1

$$$$
Molecule 82_metabolite 4
  CDK     0516241031

 31 33  0  0  0  0  0  0  0  0999 V2000
   -0.2423    6.4040    0.0000 C   0  0  0  0  0  0  0  0  0  0  0  0
    0.0909    7.8665    0.0000 H   0  0  0  0  0  0  0  0  0  0  0  0
   -1.6764    5.9615    0.0000 C   0  0  0  0  0  0  0  0  0  0  0  0
   -2.7762    6.9815    0.0000 H   0  0  0  0  0  0  0  0  0  0  0  0
   -2.0096    4.4990    0.0000 C   0  0  0  0  0  0  0  0  0  0  0  0
   -3.4428    4.0561    0.0000 H   0  0  0  0  0  0  0  0  0  0  0  0
   -0.9087    3.4789    0.0000 C   0  0  0  0  0  0  0  0  0  0  0  0
    0.5254    3.9214    0.0000 C   0  0  0  0  0  0  0  0  0  0  0  0
    1.9771    2.5750    0.0000 H   0  0  0  0  0  0  0  0  0  0  0  0
    0.8586    5.3839    0.0000 C   0  0  0  0  0  0  0  0  0  0  0  0
    2.2917    5.8268    0.0000 H   0  0  0  0  0  0  0  0  0  0  0  0
   -1.3486    1.5484    0.0000 C   0  0  0  0  0  0  0  0  0  0  0  0
   -2.8086    1.2084    0.0000 N   0  0  0  0  0  0  0  0  0  0  0  0
   -3.4586   -0.1416    0.0000 C   0  0  0  0  0  0  0  0  0  0  0  0
   -4.6313    0.7936    0.0000 H   0  0  0  0  0  0  0  0  0  0  0  0
   -4.6313   -1.0768    0.0000 H   0  0  0  0  0  0  0  0  0  0  0  0
   -2.8086   -1.4916    0.0000 C   0  0  0  0  0  0  0  0  0  0  0  0
   -3.7464   -2.6623    0.0000 O   0  0  0  0  0  0  0  0  0  0  0  0
   -1.3486   -1.8316    0.0000 N   0  0  0  0  0  0  0  0  0  0  0  0
   -1.0154   -3.2941    0.0000 H   0  0  0  0  0  0  0  0  0  0  0  0
   -0.1786   -0.8916    0.0000 C   0  0  0  0  0  0  0  0  0  0  0  0
   -0.1786    0.6084    0.0000 C   0  0  0  0  0  0  0  0  0  0  0  0
    1.1214    1.3584    0.0000 C   0  0  0  0  0  0  0  0  0  0  0  0
    1.1214    2.8584    0.0000 H   0  0  0  0  0  0  0  0  0  0  0  0
    2.4214    0.6084    0.0000 C   0  0  0  0  0  0  0  0  0  0  0  0
    2.4214   -0.8916    0.0000 C   0  0  0  0  0  0  0  0  0  0  0  0
    3.7204   -1.6418    0.0000 H   0  0  0  0  0  0  0  0  0  0  0  0
    1.1214   -1.6416    0.0000 C   0  0  0  0  0  0  0  0  0  0  0  0
    1.1214   -3.1416    0.0000 O   0  0  0  0  0  0  0  0  0  0  0  0
    2.4205   -3.8916    0.0000 H   0  0  0  0  0  0  0  0  0  0  0  0
    3.7204    1.3586    0.0000 Cl  0  0  0  0  0  0  0  0  0  0  0  0
  1  2  1  0  0  0  0 
  1  3  2  0  0  0  0 
  3  4  1  0  0  0  0 
  3  5  1  0  0  0  0 
  5  6  1  0  0  0  0 
  5  7  2  0  0  0  0 
  7  8  1  0  0  0  0 
  8  9  1  0  0  0  0 
  8 10  2  0  0  0  0 
  1 10  1  0  0  0  0 
 10 11  1  0  0  0  0 
  7 12  1  0  0  0  0 
 12 13  2  0  0  0  0 
 13 14  1  0  0  0  0 
 14 15  1  0  0  0  0 
 14 16  1  0  0  0  0 
 14 17  1  0  0  0  0 
 17 18  2  0  0  0  0 
 17 19  1  0  0  0  0 
 19 20  1  0  0  0  0 
 19 21  1  0  0  0  0 
 21 22  2  0  0  0  0 
 12 22  1  0  0  0  0 
 22 23  1  0  0  0  0 
 23 24  1  0  0  0  0 
 23 25  2  0  0  0  0 
 25 26  1  0  0  0  0 
 26 27  1  0  0  0  0 
 26 28  2  0  0  0  0 
 21 28  1  0  0  0  0 
 28 29  1  0  0  0  0 
 29 30  1  0  0  0  0 
 25 31  1  0  0  0  0 
M  END
> <Rank>
4

> <Priority_score>
0.232

> <Reaction_type>
aromatic_hydroxylation_(ortho_to_nitrogen)

> <Parent_ID>
82

> <Parent_InChI>
InChI=1S/C15H11ClN2O/c16-11-6-7-13-12(8-11)15(17-9-14(19)18-13)10-4-2-1-3-5-10/h1-8H,9H2,(H,18,19)

> <Parent_SMILES>
O=C1CN=C(c2ccccc2)c2cc(Cl)ccc2N1

$$$$
Molecule 82_metabolite 5
  CDK     0516241031

 31 33  0  0  0  0  0  0  0  0999 V2000
   -0.2423    6.4040    0.0000 C   0  0  0  0  0  0  0  0  0  0  0  0
    0.0909    7.8665    0.0000 H   0  0  0  0  0  0  0  0  0  0  0  0
   -1.6764    5.9615    0.0000 C   0  0  0  0  0  0  0  0  0  0  0  0
   -2.7762    6.9815    0.0000 H   0  0  0  0  0  0  0  0  0  0  0  0
   -2.0096    4.4990    0.0000 C   0  0  0  0  0  0  0  0  0  0  0  0
   -3.4428    4.0561    0.0000 H   0  0  0  0  0  0  0  0  0  0  0  0
   -0.9087    3.4789    0.0000 C   0  0  0  0  0  0  0  0  0  0  0  0
    0.5254    3.9214    0.0000 C   0  0  0  0  0  0  0  0  0  0  0  0
    1.9771    2.5750    0.0000 H   0  0  0  0  0  0  0  0  0  0  0  0
    0.8586    5.3839    0.0000 C   0  0  0  0  0  0  0  0  0  0  0  0
    2.2917    5.8268    0.0000 H   0  0  0  0  0  0  0  0  0  0  0  0
   -1.3486    1.5484    0.0000 C   0  0  0  0  0  0  0  0  0  0  0  0
   -2.8086    1.2084    0.0000 N   0  0  0  0  0  0  0  0  0  0  0  0
   -3.4586   -0.1416    0.0000 C   0  0  0  0  0  0  0  0  0  0  0  0
   -4.6313    0.7936    0.0000 H   0  0  0  0  0  0  0  0  0  0  0  0
   -4.6313   -1.0768    0.0000 H   0  0  0  0  0  0  0  0  0  0  0  0
   -2.8086   -1.4916    0.0000 C   0  0  0  0  0  0  0  0  0  0  0  0
   -3.7464   -2.6623    0.0000 O   0  0  0  0  0  0  0  0  0  0  0  0
   -1.3486   -1.8316    0.0000 N   0  0  0  0  0  0  0  0  0  0  0  0
   -1.0154   -3.2941    0.0000 H   0  0  0  0  0  0  0  0  0  0  0  0
   -0.1786   -0.8916    0.0000 C   0  0  0  0  0  0  0  0  0  0  0  0
   -0.1786    0.6084    0.0000 C   0  0  0  0  0  0  0  0  0  0  0  0
    1.1214    1.3584    0.0000 C   0  0  0  0  0  0  0  0  0  0  0  0
    1.1214    2.8584    0.0000 H   0  0  0  0  0  0  0  0  0  0  0  0
    2.4214    0.6084    0.0000 C   0  0  0  0  0  0  0  0  0  0  0  0
    2.4214   -0.8916    0.0000 C   0  0  0  0  0  0  0  0  0  0  0  0
    1.1214   -1.6416    0.0000 C   0  0  0  0  0  0  0  0  0  0  0  0
    1.1214   -3.1416    0.0000 H   0  0  0  0  0  0  0  0  0  0  0  0
    3.7204   -1.6418    0.0000 O   0  0  0  0  0  0  0  0  0  0  0  0
    3.7201   -3.1418    0.0000 H   0  0  0  0  0  0  0  0  0  0  0  0
    3.7204    1.3586    0.0000 Cl  0  0  0  0  0  0  0  0  0  0  0  0
  1  2  1  0  0  0  0 
  1  3  2  0  0  0  0 
  3  4  1  0  0  0  0 
  3  5  1  0  0  0  0 
  5  6  1  0  0  0  0 
  5  7  2  0  0  0  0 
  7  8  1  0  0  0  0 
  8  9  1  0  0  0  0 
  8 10  2  0  0  0  0 
  1 10  1  0  0  0  0 
 10 11  1  0  0  0  0 
  7 12  1  0  0  0  0 
 12 13  2  0  0  0  0 
 13 14  1  0  0  0  0 
 14 15  1  0  0  0  0 
 14 16  1  0  0  0  0 
 14 17  1  0  0  0  0 
 17 18  2  0  0  0  0 
 17 19  1  0  0  0  0 
 19 20  1  0  0  0  0 
 19 21  1  0  0  0  0 
 21 22  2  0  0  0  0 
 12 22  1  0  0  0  0 
 22 23  1  0  0  0  0 
 23 24  1  0  0  0  0 
 23 25  2  0  0  0  0 
 25 26  1  0  0  0  0 
 26 27  2  0  0  0  0 
 21 27  1  0  0  0  0 
 27 28  1  0  0  0  0 
 26 29  1  0  0  0  0 
 29 30  1  0  0  0  0 
 25 31  1  0  0  0  0 
M  END
> <Rank>
4

> <Priority_score>
0.232

> <Reaction_type>
aromatic_hydroxylation_(para_to_carbon)

> <Parent_ID>
82

> <Parent_InChI>
InChI=1S/C15H11ClN2O/c16-11-6-7-13-12(8-11)15(17-9-14(19)18-13)10-4-2-1-3-5-10/h1-8H,9H2,(H,18,19)

> <Parent_SMILES>
O=C1CN=C(c2ccccc2)c2cc(Cl)ccc2N1

$$$$
Molecule 82_metabolite 6
  CDK     0516241031

 31 33  0  0  0  0  0  0  0  0999 V2000
   -0.2423    6.4040    0.0000 C   0  0  0  0  0  0  0  0  0  0  0  0
    0.0909    7.8665    0.0000 H   0  0  0  0  0  0  0  0  0  0  0  0
   -1.6764    5.9615    0.0000 C   0  0  0  0  0  0  0  0  0  0  0  0
   -2.7762    6.9815    0.0000 H   0  0  0  0  0  0  0  0  0  0  0  0
   -2.0096    4.4990    0.0000 C   0  0  0  0  0  0  0  0  0  0  0  0
   -3.4428    4.0561    0.0000 H   0  0  0  0  0  0  0  0  0  0  0  0
   -0.9087    3.4789    0.0000 C   0  0  0  0  0  0  0  0  0  0  0  0
    0.5254    3.9214    0.0000 C   0  0  0  0  0  0  0  0  0  0  0  0
    1.9771    2.5750    0.0000 H   0  0  0  0  0  0  0  0  0  0  0  0
    0.8586    5.3839    0.0000 C   0  0  0  0  0  0  0  0  0  0  0  0
    2.2917    5.8268    0.0000 H   0  0  0  0  0  0  0  0  0  0  0  0
   -1.3486    1.5484    0.0000 C   0  0  0  0  0  0  0  0  0  0  0  0
   -2.8086    1.2084    0.0000 N   0  0  0  0  0  0  0  0  0  0  0  0
   -3.4586   -0.1416    0.0000 C   0  0  0  0  0  0  0  0  0  0  0  0
   -4.6313    0.7936    0.0000 H   0  0  0  0  0  0  0  0  0  0  0  0
   -2.8086   -1.4916    0.0000 C   0  0  0  0  0  0  0  0  0  0  0  0
   -3.7464   -2.6623    0.0000 O   0  0  0  0  0  0  0  0  0  0  0  0
   -1.3486   -1.8316    0.0000 N   0  0  0  0  0  0  0  0  0  0  0  0
   -1.0154   -3.2941    0.0000 H   0  0  0  0  0  0  0  0  0  0  0  0
   -0.1786   -0.8916    0.0000 C   0  0  0  0  0  0  0  0  0  0  0  0
   -0.1786    0.6084    0.0000 C   0  0  0  0  0  0  0  0  0  0  0  0
    1.1214    1.3584    0.0000 C   0  0  0  0  0  0  0  0  0  0  0  0
    1.1214    2.8584    0.0000 H   0  0  0  0  0  0  0  0  0  0  0  0
    2.4214    0.6084    0.0000 C   0  0  0  0  0  0  0  0  0  0  0  0
    2.4214   -0.8916    0.0000 C   0  0  0  0  0  0  0  0  0  0  0  0
    3.7204   -1.6418    0.0000 H   0  0  0  0  0  0  0  0  0  0  0  0
    1.1214   -1.6416    0.0000 C   0  0  0  0  0  0  0  0  0  0  0  0
    1.1214   -3.1416    0.0000 H   0  0  0  0  0  0  0  0  0  0  0  0
    3.7204    1.3586    0.0000 Cl  0  0  0  0  0  0  0  0  0  0  0  0
   -4.6313   -1.0768    0.0000 O   0  0  0  0  0  0  0  0  0  0  0  0
   -6.0276   -0.5288    0.0000 H   0  0  0  0  0  0  0  0  0  0  0  0
  1  2  1  0  0  0  0 
  1  3  2  0  0  0  0 
  3  4  1  0  0  0  0 
  3  5  1  0  0  0  0 
  5  6  1  0  0  0  0 
  5  7  2  0  0  0  0 
  7  8  1  0  0  0  0 
  8  9  1  0  0  0  0 
  8 10  2  0  0  0  0 
  1 10  1  0  0  0  0 
 10 11  1  0  0  0  0 
  7 12  1  0  0  0  0 
 12 13  2  0  0  0  0 
 13 14  1  0  0  0  0 
 14 15  1  0  0  0  0 
 14 16  1  0  0  0  0 
 16 17  2  0  0  0  0 
 16 18  1  0  0  0  0 
 18 19  1  0  0  0  0 
 18 20  1  0  0  0  0 
 20 21  2  0  0  0  0 
 12 21  1  0  0  0  0 
 21 22  1  0  0  0  0 
 22 23  1  0  0  0  0 
 22 24  2  0  0  0  0 
 24 25  1  0  0  0  0 
 25 26  1  0  0  0  0 
 25 27  2  0  0  0  0 
 20 27  1  0  0  0  0 
 27 28  1  0  0  0  0 
 24 29  1  0  0  0  0 
 14 30  1  0  0  0  0 
 30 31  1  0  0  0  0 
M  END
> <Rank>
6

> <Priority_score>
0.176

> <Reaction_type>
aliphatic_hydroxylation_(sec_carbon_both_sides_next_to_SP2,in_a_ring)

> <Parent_ID>
82

> <Parent_InChI>
InChI=1S/C15H11ClN2O/c16-11-6-7-13-12(8-11)15(17-9-14(19)18-13)10-4-2-1-3-5-10/h1-8H,9H2,(H,18,19)

> <Parent_SMILES>
O=C1CN=C(c2ccccc2)c2cc(Cl)ccc2N1

$$$$
Molecule 82_metabolite 7
  CDK     0516241031

 31 32  0  0  0  0  0  0  0  0999 V2000
    4.1048    5.9020    0.0000 C   0  0  0  0  0  0  0  0  0  0  0  0
    5.4038    6.6520    0.0000 H   0  0  0  0  0  0  0  0  0  0  0  0
    4.1053    4.4011    0.0000 C   0  0  0  0  0  0  0  0  0  0  0  0
    5.4044    3.6514    0.0000 H   0  0  0  0  0  0  0  0  0  0  0  0
    2.8062    3.6511    0.0000 C   0  0  0  0  0  0  0  0  0  0  0  0
    2.8060    2.1511    0.0000 H   0  0  0  0  0  0  0  0  0  0  0  0
    1.5067    4.4020    0.0000 C   0  0  0  0  0  0  0  0  0  0  0  0
    1.5062    5.9028    0.0000 C   0  0  0  0  0  0  0  0  0  0  0  0
    0.2071    6.6526    0.0000 H   0  0  0  0  0  0  0  0  0  0  0  0
    2.8053    6.6528    0.0000 C   0  0  0  0  0  0  0  0  0  0  0  0
    2.8055    8.1528    0.0000 H   0  0  0  0  0  0  0  0  0  0  0  0
    0.2077    3.6520    0.0000 C   0  0  0  0  0  0  0  0  0  0  0  0
   -0.9414    4.6162    0.0000 N   0  0  0  0  0  0  0  0  0  0  0  0
   -2.3509    4.1031    0.0000 H   0  0  0  0  0  0  0  0  0  0  0  0
    0.2077    1.1920    0.0000 C   0  0  0  0  0  0  0  0  0  0  0  0
    1.5073    0.4414    0.0000 C   0  0  0  0  0  0  0  0  0  0  0  0
    2.9168    0.9546    0.0000 H   0  0  0  0  0  0  0  0  0  0  0  0
    1.5080   -1.0595    0.0000 C   0  0  0  0  0  0  0  0  0  0  0  0
    0.2091   -1.8097    0.0000 C   0  0  0  0  0  0  0  0  0  0  0  0
    0.2091   -3.3097    0.0000 H   0  0  0  0  0  0  0  0  0  0  0  0
   -1.0905   -1.0591    0.0000 C   0  0  0  0  0  0  0  0  0  0  0  0
   -2.3894   -1.8093    0.0000 H   0  0  0  0  0  0  0  0  0  0  0  0
   -1.0913    0.4418    0.0000 C   0  0  0  0  0  0  0  0  0  0  0  0
   -2.3905    1.1914    0.0000 N   0  0  0  0  0  0  0  0  0  0  0  0
   -2.3910    2.6914    0.0000 H   0  0  0  0  0  0  0  0  0  0  0  0
   -3.6893    0.4409    0.0000 C   0  0  0  0  0  0  0  0  0  0  0  0
   -3.6888   -1.0591    0.0000 O   0  0  0  0  0  0  0  0  0  0  0  0
   -4.9886    1.1905    0.0000 C   0  0  0  0  0  0  0  0  0  0  0  0
   -6.2874    0.4401    0.0000 H   0  0  0  0  0  0  0  0  0  0  0  0
   -4.9891    2.6905    0.0000 O   0  0  0  0  0  0  0  0  0  0  0  0
    2.8073   -1.8091    0.0000 Cl  0  0  0  0  0  0  0  0  0  0  0  0
  1  2  1  0  0  0  0 
  1  3  2  0  0  0  0 
  3  4  1  0  0  0  0 
  3  5  1  0  0  0  0 
  5  6  1  0  0  0  0 
  5  7  2  0  0  0  0 
  7  8  1  0  0  0  0 
  8  9  1  0  0  0  0 
  8 10  2  0  0  0  0 
  1 10  1  0  0  0  0 
 10 11  1  0  0  0  0 
  7 12  1  0  0  0  0 
 12 13  2  0  0  0  0 
 13 14  1  4  0  0  0 
 12 15  1  0  0  0  0 
 15 16  2  0  0  0  0 
 16 17  1  0  0  0  0 
 16 18  1  0  0  0  0 
 18 19  2  0  0  0  0 
 19 20  1  0  0  0  0 
 19 21  1  0  0  0  0 
 21 22  1  0  0  0  0 
 21 23  2  0  0  0  0 
 15 23  1  0  0  0  0 
 23 24  1  0  0  0  0 
 24 25  1  0  0  0  0 
 24 26  1  0  0  0  0 
 26 27  2  0  0  0  0 
 26 28  1  0  0  0  0 
 28 29  1  0  0  0  0 
 28 30  2  0  0  0  0 
 18 31  1  0  0  0  0 
M  END
> <Rank>
6

> <Priority_score>
0.176

> <Reaction_type>
N-dealkylation

> <Parent_ID>
82

> <Parent_InChI>
InChI=1S/C15H11ClN2O/c16-11-6-7-13-12(8-11)15(17-9-14(19)18-13)10-4-2-1-3-5-10/h1-8H,9H2,(H,18,19)

> <Parent_SMILES>
O=C1CN=C(c2ccccc2)c2cc(Cl)ccc2N1

$$$$
Molecule 82_metabolite 8
  CDK     0516241031

 31 33  0  0  0  0  0  0  0  0999 V2000
   -0.2423    6.4040    0.0000 C   0  0  0  0  0  0  0  0  0  0  0  0
    0.0909    7.8665    0.0000 H   0  0  0  0  0  0  0  0  0  0  0  0
   -1.6764    5.9615    0.0000 C   0  0  0  0  0  0  0  0  0  0  0  0
   -2.7762    6.9815    0.0000 H   0  0  0  0  0  0  0  0  0  0  0  0
   -2.0096    4.4990    0.0000 C   0  0  0  0  0  0  0  0  0  0  0  0
   -3.4428    4.0561    0.0000 H   0  0  0  0  0  0  0  0  0  0  0  0
   -0.9087    3.4789    0.0000 C   0  0  0  0  0  0  0  0  0  0  0  0
    0.5254    3.9214    0.0000 C   0  0  0  0  0  0  0  0  0  0  0  0
    1.9771    2.5750    0.0000 H   0  0  0  0  0  0  0  0  0  0  0  0
    0.8586    5.3839    0.0000 C   0  0  0  0  0  0  0  0  0  0  0  0
    2.2917    5.8268    0.0000 H   0  0  0  0  0  0  0  0  0  0  0  0
   -1.3486    1.5484    0.0000 C   0  0  0  0  0  0  0  0  0  0  0  0
   -2.8086    1.2084    0.0000 N   0  0  0  0  0  0  0  0  0  0  0  0
   -3.4586   -0.1416    0.0000 C   0  0  0  0  0  0  0  0  0  0  0  0
   -4.6313    0.7936    0.0000 H   0  0  0  0  0  0  0  0  0  0  0  0
   -4.6313   -1.0768    0.0000 H   0  0  0  0  0  0  0  0  0  0  0  0
   -2.8086   -1.4916    0.0000 C   0  0  0  0  0  0  0  0  0  0  0  0
   -3.7464   -2.6623    0.0000 O   0  0  0  0  0  0  0  0  0  0  0  0
   -1.3486   -1.8316    0.0000 N   0  0  0  0  0  0  0  0  0  0  0  0
   -1.0154   -3.2941    0.0000 H   0  0  0  0  0  0  0  0  0  0  0  0
   -0.1786   -0.8916    0.0000 C   0  0  0  0  0  0  0  0  0  0  0  0
   -0.1786    0.6084    0.0000 C   0  0  0  0  0  0  0  0  0  0  0  0
    1.1214    1.3584    0.0000 C   0  0  0  0  0  0  0  0  0  0  0  0
    1.1214    2.8584    0.0000 H   0  0  0  0  0  0  0  0  0  0  0  0
    2.4214    0.6084    0.0000 C   0  0  0  0  0  0  0  0  0  0  0  0
    2.4214   -0.8916    0.0000 C   0  0  0  0  0  0  0  0  0  0  0  0
    3.7204   -1.6418    0.0000 H   0  0  0  0  0  0  0  0  0  0  0  0
    1.1214   -1.6416    0.0000 C   0  0  0  0  0  0  0  0  0  0  0  0
    1.1214   -3.1416    0.0000 H   0  0  0  0  0  0  0  0  0  0  0  0
    3.7204    1.3586    0.0000 Cl  0  0  0  0  0  0  0  0  0  0  0  0
   -3.7464    2.3790    0.0000 O   0  0  0  0  0  0  0  0  0  0  0  0
  1  2  1  0  0  0  0 
  1  3  2  0  0  0  0 
  3  4  1  0  0  0  0 
  3  5  1  0  0  0  0 
  5  6  1  0  0  0  0 
  5  7  2  0  0  0  0 
  7  8  1  0  0  0  0 
  8  9  1  0  0  0  0 
  8 10  2  0  0  0  0 
  1 10  1  0  0  0  0 
 10 11  1  0  0  0  0 
  7 12  1  0  0  0  0 
 12 13  2  0  0  0  0 
 13 14  1  0  0  0  0 
 14 15  1  0  0  0  0 
 14 16  1  0  0  0  0 
 14 17  1  0  0  0  0 
 17 18  2  0  0  0  0 
 17 19  1  0  0  0  0 
 19 20  1  0  0  0  0 
 19 21  1  0  0  0  0 
 21 22  2  0  0  0  0 
 12 22  1  0  0  0  0 
 22 23  1  0  0  0  0 
 23 24  1  0  0  0  0 
 23 25  2  0  0  0  0 
 25 26  1  0  0  0  0 
 26 27  1  0  0  0  0 
 26 28  2  0  0  0  0 
 21 28  1  0  0  0  0 
 28 29  1  0  0  0  0 
 25 30  1  0  0  0  0 
 13 31  1  0  0  0  0 
M  CHG  1  13   1
M  CHG  1  31  -1
M  END
> <Rank>
6

> <Priority_score>
0.176

> <Reaction_type>
N-oxidation_(-N=)

> <Parent_ID>
82

> <Parent_InChI>
InChI=1S/C15H11ClN2O/c16-11-6-7-13-12(8-11)15(17-9-14(19)18-13)10-4-2-1-3-5-10/h1-8H,9H2,(H,18,19)

> <Parent_SMILES>
O=C1CN=C(c2ccccc2)c2cc(Cl)ccc2N1

$$$$
Molecule 82_metabolite 9
  CDK     0516241031

 65 67  0  0  0  0  0  0  0  0999 V2000
    0.1096    6.0776    0.0000 C   0  0  0  0  0  0  0  0  0  0  0  0
    0.4429    7.5401    0.0000 H   0  0  0  0  0  0  0  0  0  0  0  0
   -1.3245    5.6351    0.0000 C   0  0  0  0  0  0  0  0  0  0  0  0
   -2.4243    6.6551    0.0000 H   0  0  0  0  0  0  0  0  0  0  0  0
   -1.6577    4.1726    0.0000 C   0  0  0  0  0  0  0  0  0  0  0  0
   -3.0908    3.7296    0.0000 H   0  0  0  0  0  0  0  0  0  0  0  0
   -0.5568    3.1525    0.0000 C   0  0  0  0  0  0  0  0  0  0  0  0
    0.8773    3.5950    0.0000 C   0  0  0  0  0  0  0  0  0  0  0  0
    1.9771    2.5750    0.0000 H   0  0  0  0  0  0  0  0  0  0  0  0
    1.2106    5.0575    0.0000 C   0  0  0  0  0  0  0  0  0  0  0  0
    2.6437    5.5004    0.0000 H   0  0  0  0  0  0  0  0  0  0  0  0
   -1.1033    0.7540    0.0000 C   0  0  0  0  0  0  0  0  0  0  0  0
   -2.5633    0.4140    0.0000 N   0  0  0  0  0  0  0  0  0  0  0  0
   -3.2133   -0.9360    0.0000 C   0  0  0  0  0  0  0  0  0  0  0  0
   -4.3860   -0.0008    0.0000 H   0  0  0  0  0  0  0  0  0  0  0  0
   -4.3860   -1.8712    0.0000 H   0  0  0  0  0  0  0  0  0  0  0  0
   -2.5633   -2.2860    0.0000 C   0  0  0  0  0  0  0  0  0  0  0  0
   -3.5011   -3.4567    0.0000 O   0  0  0  0  0  0  0  0  0  0  0  0
   -1.1033   -2.6260    0.0000 N   0  0  0  0  0  0  0  0  0  0  0  0
   -0.7700   -4.0885    0.0000 H   0  0  0  0  0  0  0  0  0  0  0  0
    0.0667   -1.6860    0.0000 C   0  0  0  0  0  0  0  0  0  0  0  0
    0.0667   -0.1860    0.0000 C   0  0  0  0  0  0  0  0  0  0  0  0
    1.3667    0.5640    0.0000 C   0  0  0  0  0  0  0  0  0  0  0  0
    1.3667    2.0640    0.0000 H   0  0  0  0  0  0  0  0  0  0  0  0
    2.6667   -0.1860    0.0000 C   0  0  0  0  0  0  0  0  0  0  0  0
    2.6667   -1.6860    0.0000 C   0  0  0  0  0  0  0  0  0  0  0  0
    3.9657   -2.4362    0.0000 H   0  0  0  0  0  0  0  0  0  0  0  0
    1.3667   -2.4360    0.0000 C   0  0  0  0  0  0  0  0  0  0  0  0
    1.3667   -3.9360    0.0000 H   0  0  0  0  0  0  0  0  0  0  0  0
    3.9657    0.5642    0.0000 S   0  0  0  0  0  0  0  0  0  0  0  0
    5.2648   -0.1856    0.0000 C   0  0  0  0  0  0  0  0  0  0  0  0
    4.3008   -1.3348    0.0000 H   0  0  0  0  0  0  0  0  0  0  0  0
    6.2292   -1.3345    0.0000 H   0  0  0  0  0  0  0  0  0  0  0  0
    6.5637    0.5646    0.0000 C   0  0  0  0  0  0  0  0  0  0  0  0
    7.5277    1.7138    0.0000 H   0  0  0  0  0  0  0  0  0  0  0  0
    5.5994    1.7135    0.0000 C   0  0  0  0  0  0  0  0  0  0  0  0
    4.1222    1.4528    0.0000 O   0  0  0  0  0  0  0  0  0  0  0  0
    6.1122    3.1231    0.0000 N   0  0  0  0  0  0  0  0  0  0  0  0
    7.5893    3.3839    0.0000 H   0  0  0  0  0  0  0  0  0  0  0  0
    5.1478    4.2721    0.0000 C   0  0  0  0  0  0  0  0  0  0  0  0
    4.1838    3.1228    0.0000 H   0  0  0  0  0  0  0  0  0  0  0  0
    3.8487    5.0218    0.0000 H   0  0  0  0  0  0  0  0  0  0  0  0
    5.6606    5.6817    0.0000 C   0  0  0  0  0  0  0  0  0  0  0  0
    7.1378    5.9424    0.0000 O   0  0  0  0  0  0  0  0  0  0  0  0
    4.6962    6.8306    0.0000 O   0  0  0  0  0  0  0  0  0  0  0  0
    5.2091    8.2402    0.0000 H   0  0  0  0  0  0  0  0  0  0  0  0
    7.8629   -0.1852    0.0000 N   0  0  0  0  0  0  0  0  0  0  0  0
    7.8631   -1.6852    0.0000 H   0  0  0  0  0  0  0  0  0  0  0  0
    9.1618    0.5650    0.0000 C   0  0  0  0  0  0  0  0  0  0  0  0
    9.1616    2.0650    0.0000 O   0  0  0  0  0  0  0  0  0  0  0  0
   10.4610   -0.1848    0.0000 C   0  0  0  0  0  0  0  0  0  0  0  0
    9.4970   -1.3340    0.0000 H   0  0  0  0  0  0  0  0  0  0  0  0
   11.4253   -1.3337    0.0000 H   0  0  0  0  0  0  0  0  0  0  0  0
   12.1755    0.8055    0.0000 C   0  0  0  0  0  0  0  0  0  0  0  0
   13.1395    1.9547    0.0000 H   0  0  0  0  0  0  0  0  0  0  0  0
   11.2112    1.9544    0.0000 H   0  0  0  0  0  0  0  0  0  0  0  0
   13.4747    0.0557    0.0000 C   0  0  0  0  0  0  0  0  0  0  0  0
   12.5107   -1.0935    0.0000 H   0  0  0  0  0  0  0  0  0  0  0  0
   14.7736    0.8059    0.0000 C   0  0  0  0  0  0  0  0  0  0  0  0
   14.7734    2.3059    0.0000 O   0  0  0  0  0  0  0  0  0  0  0  0
   16.0728    0.0561    0.0000 O   0  0  0  0  0  0  0  0  0  0  0  0
   17.3717    0.8063    0.0000 H   0  0  0  0  0  0  0  0  0  0  0  0
   14.4391   -1.0932    0.0000 N   0  0  0  0  0  0  0  0  0  0  0  0
   15.9162   -0.8325    0.0000 H   0  0  0  0  0  0  0  0  0  0  0  0
   13.9263   -2.5028    0.0000 H   0  0  0  0  0  0  0  0  0  0  0  0
  1  2  1  0  0  0  0 
  1  3  2  0  0  0  0 
  3  4  1  0  0  0  0 
  3  5  1  0  0  0  0 
  5  6  1  0  0  0  0 
  5  7  2  0  0  0  0 
  7  8  1  0  0  0  0 
  8  9  1  0  0  0  0 
  8 10  2  0  0  0  0 
  1 10  1  0  0  0  0 
 10 11  1  0  0  0  0 
  7 12  1  0  0  0  0 
 12 13  2  0  0  0  0 
 13 14  1  0  0  0  0 
 14 15  1  0  0  0  0 
 14 16  1  0  0  0  0 
 14 17  1  0  0  0  0 
 17 18  2  0  0  0  0 
 17 19  1  0  0  0  0 
 19 20  1  0  0  0  0 
 19 21  1  0  0  0  0 
 21 22  2  0  0  0  0 
 12 22  1  0  0  0  0 
 22 23  1  0  0  0  0 
 23 24  1  0  0  0  0 
 23 25  2  0  0  0  0 
 25 26  1  0  0  0  0 
 26 27  1  0  0  0  0 
 26 28  2  0  0  0  0 
 21 28  1  0  0  0  0 
 28 29  1  0  0  0  0 
 25 30  1  0  0  0  0 
 30 31  1  0  0  0  0 
 31 32  1  0  0  0  0 
 31 33  1  0  0  0  0 
 31 34  1  0  0  0  0 
 34 35  1  0  0  0  0 
 34 36  1  0  0  0  0 
 36 37  2  0  0  0  0 
 36 38  1  0  0  0  0 
 38 39  1  0  0  0  0 
 38 40  1  0  0  0  0 
 40 41  1  0  0  0  0 
 40 42  1  0  0  0  0 
 40 43  1  0  0  0  0 
 43 44  2  0  0  0  0 
 43 45  1  0  0  0  0 
 45 46  1  0  0  0  0 
 34 47  1  0  0  0  0 
 47 48  1  0  0  0  0 
 47 49  1  0  0  0  0 
 49 50  2  0  0  0  0 
 49 51  1  0  0  0  0 
 51 52  1  0  0  0  0 
 51 53  1  0  0  0  0 
 51 54  1  0  0  0  0 
 54 55  1  0  0  0  0 
 54 56  1  0  0  0  0 
 54 57  1  0  0  0  0 
 57 58  1  0  0  0  0 
 57 59  1  0  0  0  0 
 59 60  2  0  0  0  0 
 59 61  1  0  0  0  0 
 61 62  1  0  0  0  0 
 57 63  1  0  0  0  0 
 63 64  1  0  0  0  0 
 63 65  1  0  0  0  0 
M  END
> <Rank>
9

> <Priority_score>
0.148

> <Reaction_type>
glutathione_conjugation_(aromatic_nucleophilic_substitution)

> <Parent_ID>
82

> <Parent_InChI>
InChI=1S/C15H11ClN2O/c16-11-6-7-13-12(8-11)15(17-9-14(19)18-13)10-4-2-1-3-5-10/h1-8H,9H2,(H,18,19)

> <Parent_SMILES>
O=C1CN=C(c2ccccc2)c2cc(Cl)ccc2N1

$$$$
Molecule 82_metabolite 10
  CDK     0516241031

 33 34  0  0  0  0  0  0  0  0999 V2000
   -1.2473   -1.2104    0.0000 C   0  0  0  0  0  0  0  0  0  0  0  0
   -1.2473   -2.7104    0.0000 H   0  0  0  0  0  0  0  0  0  0  0  0
    0.0527   -0.4604    0.0000 C   0  0  0  0  0  0  0  0  0  0  0  0
    1.3516   -1.2106    0.0000 H   0  0  0  0  0  0  0  0  0  0  0  0
    0.0527    1.0396    0.0000 C   0  0  0  0  0  0  0  0  0  0  0  0
    1.3516    1.7898    0.0000 H   0  0  0  0  0  0  0  0  0  0  0  0
   -1.2473    1.7896    0.0000 C   0  0  0  0  0  0  0  0  0  0  0  0
   -2.5473    1.0396    0.0000 C   0  0  0  0  0  0  0  0  0  0  0  0
   -3.8462    1.7898    0.0000 H   0  0  0  0  0  0  0  0  0  0  0  0
   -2.5473   -0.4604    0.0000 C   0  0  0  0  0  0  0  0  0  0  0  0
   -3.8462   -1.2106    0.0000 H   0  0  0  0  0  0  0  0  0  0  0  0
   -1.2473    3.7696    0.0000 C   0  0  0  0  0  0  0  0  0  0  0  0
   -2.5463    4.5196    0.0000 N   0  0  0  0  0  0  0  0  0  0  0  0
   -2.5463    6.0196    0.0000 C   0  0  0  0  0  0  0  0  0  0  0  0
   -1.0691    5.7591    0.0000 H   0  0  0  0  0  0  0  0  0  0  0  0
   -2.0333    7.4291    0.0000 H   0  0  0  0  0  0  0  0  0  0  0  0
   -3.8454    6.7696    0.0000 C   0  0  0  0  0  0  0  0  0  0  0  0
   -5.1444    6.0196    0.0000 O   0  0  0  0  0  0  0  0  0  0  0  0
   -3.8454    8.2696    0.0000 O   0  0  0  0  0  0  0  0  0  0  0  0
   -5.1444    9.0196    0.0000 H   0  0  0  0  0  0  0  0  0  0  0  0
    0.4674    4.7596    0.0000 C   0  0  0  0  0  0  0  0  0  0  0  0
    0.4677    6.2604    0.0000 C   0  0  0  0  0  0  0  0  0  0  0  0
   -0.8315    7.0102    0.0000 H   0  0  0  0  0  0  0  0  0  0  0  0
    1.7671    7.0115    0.0000 C   0  0  0  0  0  0  0  0  0  0  0  0
    3.0662    6.2617    0.0000 C   0  0  0  0  0  0  0  0  0  0  0  0
    4.3653    7.0117    0.0000 H   0  0  0  0  0  0  0  0  0  0  0  0
    3.0660    4.7608    0.0000 C   0  0  0  0  0  0  0  0  0  0  0  0
    4.3651    4.0111    0.0000 H   0  0  0  0  0  0  0  0  0  0  0  0
    1.7666    4.0098    0.0000 C   0  0  0  0  0  0  0  0  0  0  0  0
    1.7671    2.5098    0.0000 N   0  0  0  0  0  0  0  0  0  0  0  0
    4.3136    1.0406    0.0000 H   0  0  0  0  0  0  0  0  0  0  0  0
    0.2671    2.5093    0.0000 H   0  0  0  0  0  0  0  0  0  0  0  0
    1.7666    8.5115    0.0000 Cl  0  0  0  0  0  0  0  0  0  0  0  0
  1  2  1  0  0  0  0 
  1  3  2  0  0  0  0 
  3  4  1  0  0  0  0 
  3  5  1  0  0  0  0 
  5  6  1  0  0  0  0 
  5  7  2  0  0  0  0 
  7  8  1  0  0  0  0 
  8  9  1  0  0  0  0 
  8 10  2  0  0  0  0 
  1 10  1  0  0  0  0 
 10 11  1  0  0  0  0 
  7 12  1  4  0  0  0 
 12 13  2  0  0  0  0 
 13 14  1  0  0  0  0 
 14 15  1  0  0  0  0 
 14 16  1  0  0  0  0 
 14 17  1  0  0  0  0 
 17 18  2  0  0  0  0 
 17 19  1  0  0  0  0 
 19 20  1  0  0  0  0 
 12 21  1  0  0  0  0 
 21 22  2  0  0  0  0 
 22 23  1  0  0  0  0 
 22 24  1  0  0  0  0 
 24 25  2  0  0  0  0 
 25 26  1  0  0  0  0 
 25 27  1  0  0  0  0 
 27 28  1  0  0  0  0 
 27 29  2  0  0  0  0 
 21 29  1  0  0  0  0 
 29 30  1  0  0  0  0 
 30 31  1  0  0  0  0 
 30 32  1  0  0  0  0 
 24 33  1  0  0  0  0 
M  END
> <Rank>
10

> <Priority_score>
0.104

> <Reaction_type>
hydrolysis_(secondary_amide)

> <Parent_ID>
82

> <Parent_InChI>
InChI=1S/C15H11ClN2O/c16-11-6-7-13-12(8-11)15(17-9-14(19)18-13)10-4-2-1-3-5-10/h1-8H,9H2,(H,18,19)

> <Parent_SMILES>
O=C1CN=C(c2ccccc2)c2cc(Cl)ccc2N1

$$$$
Molecule 82_metabolite 11
  CDK     0516241031

 31 33  0  0  0  0  0  0  0  0999 V2000
   -0.2423    6.4040    0.0000 C   0  0  0  0  0  0  0  0  0  0  0  0
    0.0909    7.8665    0.0000 H   0  0  0  0  0  0  0  0  0  0  0  0
   -1.6764    5.9615    0.0000 C   0  0  0  0  0  0  0  0  0  0  0  0
   -2.7762    6.9815    0.0000 H   0  0  0  0  0  0  0  0  0  0  0  0
   -2.0096    4.4990    0.0000 C   0  0  0  0  0  0  0  0  0  0  0  0
   -3.4428    4.0561    0.0000 H   0  0  0  0  0  0  0  0  0  0  0  0
   -0.9087    3.4789    0.0000 C   0  0  0  0  0  0  0  0  0  0  0  0
    0.5254    3.9214    0.0000 C   0  0  0  0  0  0  0  0  0  0  0  0
    1.9771    2.5750    0.0000 H   0  0  0  0  0  0  0  0  0  0  0  0
    0.8586    5.3839    0.0000 C   0  0  0  0  0  0  0  0  0  0  0  0
    2.2917    5.8268    0.0000 H   0  0  0  0  0  0  0  0  0  0  0  0
   -1.3486    1.5484    0.0000 C   0  0  0  0  0  0  0  0  0  0  0  0
   -2.8086    1.2084    0.0000 N   0  0  0  0  0  0  0  0  0  0  0  0
   -3.4586   -0.1416    0.0000 C   0  0  0  0  0  0  0  0  0  0  0  0
   -4.6313    0.7936    0.0000 H   0  0  0  0  0  0  0  0  0  0  0  0
   -4.6313   -1.0768    0.0000 H   0  0  0  0  0  0  0  0  0  0  0  0
   -2.8086   -1.4916    0.0000 C   0  0  0  0  0  0  0  0  0  0  0  0
   -3.7464   -2.6623    0.0000 O   0  0  0  0  0  0  0  0  0  0  0  0
   -1.3486   -1.8316    0.0000 N   0  0  0  0  0  0  0  0  0  0  0  0
   -0.1786   -0.8916    0.0000 C   0  0  0  0  0  0  0  0  0  0  0  0
   -0.1786    0.6084    0.0000 C   0  0  0  0  0  0  0  0  0  0  0  0
    1.1214    1.3584    0.0000 C   0  0  0  0  0  0  0  0  0  0  0  0
    1.1214    2.8584    0.0000 H   0  0  0  0  0  0  0  0  0  0  0  0
    2.4214    0.6084    0.0000 C   0  0  0  0  0  0  0  0  0  0  0  0
    2.4214   -0.8916    0.0000 C   0  0  0  0  0  0  0  0  0  0  0  0
    3.7204   -1.6418    0.0000 H   0  0  0  0  0  0  0  0  0  0  0  0
    1.1214   -1.6416    0.0000 C   0  0  0  0  0  0  0  0  0  0  0  0
    1.1214   -3.1416    0.0000 H   0  0  0  0  0  0  0  0  0  0  0  0
    3.7204    1.3586    0.0000 Cl  0  0  0  0  0  0  0  0  0  0  0  0
   -1.0154   -3.2941    0.0000 O   0  0  0  0  0  0  0  0  0  0  0  0
   -2.1153   -4.3140    0.0000 H   0  0  0  0  0  0  0  0  0  0  0  0
  1  2  1  0  0  0  0 
  1  3  2  0  0  0  0 
  3  4  1  0  0  0  0 
  3  5  1  0  0  0  0 
  5  6  1  0  0  0  0 
  5  7  2  0  0  0  0 
  7  8  1  0  0  0  0 
  8  9  1  0  0  0  0 
  8 10  2  0  0  0  0 
  1 10  1  0  0  0  0 
 10 11  1  0  0  0  0 
  7 12  1  0  0  0  0 
 12 13  2  0  0  0  0 
 13 14  1  0  0  0  0 
 14 15  1  0  0  0  0 
 14 16  1  0  0  0  0 
 14 17  1  0  0  0  0 
 17 18  2  0  0  0  0 
 17 19  1  0  0  0  0 
 19 20  1  0  0  0  0 
 20 21  2  0  0  0  0 
 12 21  1  0  0  0  0 
 21 22  1  0  0  0  0 
 22 23  1  0  0  0  0 
 22 24  2  0  0  0  0 
 24 25  1  0  0  0  0 
 25 26  1  0  0  0  0 
 25 27  2  0  0  0  0 
 20 27  1  0  0  0  0 
 27 28  1  0  0  0  0 
 24 29  1  0  0  0  0 
 19 30  1  0  0  0  0 
 30 31  1  0  0  0  0 
M  END
> <Rank>
10

> <Priority_score>
0.104

> <Reaction_type>
amine hydroxylation

> <Parent_ID>
82

> <Parent_InChI>
InChI=1S/C15H11ClN2O/c16-11-6-7-13-12(8-11)15(17-9-14(19)18-13)10-4-2-1-3-5-10/h1-8H,9H2,(H,18,19)

> <Parent_SMILES>
O=C1CN=C(c2ccccc2)c2cc(Cl)ccc2N1

$$$$
Molecule 82_metabolite 12
  CDK     0516241031

 33 34  0  0  0  0  0  0  0  0999 V2000
    3.8973    2.3009    0.0000 C   0  0  0  0  0  0  0  0  0  0  0  0
    5.1964    1.5509    0.0000 H   0  0  0  0  0  0  0  0  0  0  0  0
    3.8978    3.8017    0.0000 C   0  0  0  0  0  0  0  0  0  0  0  0
    5.1970    4.5515    0.0000 H   0  0  0  0  0  0  0  0  0  0  0  0
    2.5988    4.5517    0.0000 C   0  0  0  0  0  0  0  0  0  0  0  0
    2.5985    6.0517    0.0000 H   0  0  0  0  0  0  0  0  0  0  0  0
    1.2992    3.8009    0.0000 C   0  0  0  0  0  0  0  0  0  0  0  0
    1.2988    2.3001    0.0000 C   0  0  0  0  0  0  0  0  0  0  0  0
   -0.0004    1.5503    0.0000 H   0  0  0  0  0  0  0  0  0  0  0  0
    2.5978    1.5501    0.0000 C   0  0  0  0  0  0  0  0  0  0  0  0
    2.5980    0.0501    0.0000 H   0  0  0  0  0  0  0  0  0  0  0  0
    0.0002    4.5509    0.0000 C   0  0  0  0  0  0  0  0  0  0  0  0
    0.0002    6.0509    0.0000 O   0  0  0  0  0  0  0  0  0  0  0  0
   -2.1302    3.3209    0.0000 C   0  0  0  0  0  0  0  0  0  0  0  0
   -2.1305    1.8201    0.0000 C   0  0  0  0  0  0  0  0  0  0  0  0
   -0.9812    0.8561    0.0000 H   0  0  0  0  0  0  0  0  0  0  0  0
   -3.4299    1.0690    0.0000 C   0  0  0  0  0  0  0  0  0  0  0  0
   -4.7290    1.8188    0.0000 C   0  0  0  0  0  0  0  0  0  0  0  0
   -6.0280    1.0688    0.0000 H   0  0  0  0  0  0  0  0  0  0  0  0
   -4.7288    3.3196    0.0000 C   0  0  0  0  0  0  0  0  0  0  0  0
   -6.0279    4.0694    0.0000 H   0  0  0  0  0  0  0  0  0  0  0  0
   -3.4294    4.0707    0.0000 C   0  0  0  0  0  0  0  0  0  0  0  0
   -3.4299    5.5707    0.0000 N   0  0  0  0  0  0  0  0  0  0  0  0
   -2.1311    6.3211    0.0000 H   0  0  0  0  0  0  0  0  0  0  0  0
   -4.7291    6.3203    0.0000 C   0  0  0  0  0  0  0  0  0  0  0  0
   -6.0279    5.5698    0.0000 O   0  0  0  0  0  0  0  0  0  0  0  0
   -4.7296    7.8203    0.0000 C   0  0  0  0  0  0  0  0  0  0  0  0
   -3.2523    7.5603    0.0000 H   0  0  0  0  0  0  0  0  0  0  0  0
   -4.2170    9.2300    0.0000 H   0  0  0  0  0  0  0  0  0  0  0  0
   -6.0289    8.5698    0.0000 N   0  0  0  0  0  0  0  0  0  0  0  0
   -6.0294   10.0698    0.0000 H   0  0  0  0  0  0  0  0  0  0  0  0
   -7.3277    7.8194    0.0000 H   0  0  0  0  0  0  0  0  0  0  0  0
   -3.4294   -0.4310    0.0000 Cl  0  0  0  0  0  0  0  0  0  0  0  0
  1  2  1  0  0  0  0 
  1  3  2  0  0  0  0 
  3  4  1  0  0  0  0 
  3  5  1  0  0  0  0 
  5  6  1  0  0  0  0 
  5  7  2  0  0  0  0 
  7  8  1  0  0  0  0 
  8  9  1  0  0  0  0 
  8 10  2  0  0  0  0 
  1 10  1  0  0  0  0 
 10 11  1  0  0  0  0 
  7 12  1  0  0  0  0 
 12 13  2  0  0  0  0 
 12 14  1  0  0  0  0 
 14 15  2  0  0  0  0 
 15 16  1  0  0  0  0 
 15 17  1  0  0  0  0 
 17 18  2  0  0  0  0 
 18 19  1  0  0  0  0 
 18 20  1  0  0  0  0 
 20 21  1  0  0  0  0 
 20 22  2  0  0  0  0 
 14 22  1  0  0  0  0 
 22 23  1  0  0  0  0 
 23 24  1  0  0  0  0 
 23 25  1  0  0  0  0 
 25 26  2  0  0  0  0 
 25 27  1  0  0  0  0 
 27 28  1  0  0  0  0 
 27 29  1  0  0  0  0 
 27 30  1  0  0  0  0 
 30 31  1  0  0  0  0 
 30 32  1  0  0  0  0 
 17 33  1  0  0  0  0 
M  END
> <Rank>
12

> <Priority_score>
0.06

> <Reaction_type>
imine_hydrolysis

> <Parent_ID>
82

> <Parent_InChI>
InChI=1S/C15H11ClN2O/c16-11-6-7-13-12(8-11)15(17-9-14(19)18-13)10-4-2-1-3-5-10/h1-8H,9H2,(H,18,19)

> <Parent_SMILES>
O=C1CN=C(c2ccccc2)c2cc(Cl)ccc2N1

$$$$
Molecule 82_metabolite 13
  CDK     0516241031

 50 53  0  0  0  0  0  0  0  0999 V2000
   -5.1989    4.8974    0.0000 C   0  0  0  0  0  0  0  0  0  0  0  0
   -6.1328    6.0712    0.0000 H   0  0  0  0  0  0  0  0  0  0  0  0
   -3.7147    5.1198    0.0000 C   0  0  0  0  0  0  0  0  0  0  0  0
   -3.1653    6.5156    0.0000 H   0  0  0  0  0  0  0  0  0  0  0  0
   -2.7808    3.9460    0.0000 C   0  0  0  0  0  0  0  0  0  0  0  0
   -1.2973    4.1676    0.0000 H   0  0  0  0  0  0  0  0  0  0  0  0
   -3.3312    2.5497    0.0000 C   0  0  0  0  0  0  0  0  0  0  0  0
   -4.8154    2.3273    0.0000 C   0  0  0  0  0  0  0  0  0  0  0  0
   -5.5407    0.4849    0.0000 H   0  0  0  0  0  0  0  0  0  0  0  0
   -5.7493    3.5011    0.0000 C   0  0  0  0  0  0  0  0  0  0  0  0
   -7.2329    3.2795    0.0000 H   0  0  0  0  0  0  0  0  0  0  0  0
   -2.0985    1.0003    0.0000 C   0  0  0  0  0  0  0  0  0  0  0  0
   -0.6353    1.3263    0.0000 N   0  0  0  0  0  0  0  0  0  0  0  0
    0.5354    0.3911    0.0000 C   0  0  0  0  0  0  0  0  0  0  0  0
    1.1873    1.7420    0.0000 H   0  0  0  0  0  0  0  0  0  0  0  0
    1.9975    0.0562    0.0000 H   0  0  0  0  0  0  0  0  0  0  0  0
    0.5343   -1.1072    0.0000 C   0  0  0  0  0  0  0  0  0  0  0  0
    1.8867   -1.7561    0.0000 O   0  0  0  0  0  0  0  0  0  0  0  0
   -0.6343   -2.0461    0.0000 N   0  0  0  0  0  0  0  0  0  0  0  0
   -2.0960   -1.7057    0.0000 C   0  0  0  0  0  0  0  0  0  0  0  0
   -2.7458   -0.3538    0.0000 C   0  0  0  0  0  0  0  0  0  0  0  0
   -4.2424   -0.2409    0.0000 C   0  0  0  0  0  0  0  0  0  0  0  0
   -4.8922    1.1110    0.0000 H   0  0  0  0  0  0  0  0  0  0  0  0
   -5.0892   -1.4801    0.0000 C   0  0  0  0  0  0  0  0  0  0  0  0
   -4.4394   -2.8320    0.0000 C   0  0  0  0  0  0  0  0  0  0  0  0
   -5.2852   -4.0708    0.0000 H   0  0  0  0  0  0  0  0  0  0  0  0
   -2.9428   -2.9448    0.0000 C   0  0  0  0  0  0  0  0  0  0  0  0
   -2.5377   -4.3891    0.0000 H   0  0  0  0  0  0  0  0  0  0  0  0
   -6.5849   -1.3666    0.0000 Cl  0  0  0  0  0  0  0  0  0  0  0  0
   -0.1945   -3.9767    0.0000 C   0  0  0  0  0  0  0  0  0  0  0  0
   -1.6926   -4.0510    0.0000 H   0  0  0  0  0  0  0  0  0  0  0  0
   -0.3812   -5.4650    0.0000 C   0  0  0  0  0  0  0  0  0  0  0  0
   -1.8146   -5.0228    0.0000 H   0  0  0  0  0  0  0  0  0  0  0  0
    0.8152   -6.3710    0.0000 C   0  0  0  0  0  0  0  0  0  0  0  0
   -0.2844   -7.3912    0.0000 H   0  0  0  0  0  0  0  0  0  0  0  0
    2.1985   -5.7887    0.0000 C   0  0  0  0  0  0  0  0  0  0  0  0
    2.5317   -7.2512    0.0000 H   0  0  0  0  0  0  0  0  0  0  0  0
    2.3853   -4.3004    0.0000 C   0  0  0  0  0  0  0  0  0  0  0  0
    3.8186   -4.7426    0.0000 H   0  0  0  0  0  0  0  0  0  0  0  0
    3.2885   -2.5384    0.0000 C   0  0  0  0  0  0  0  0  0  0  0  0
    2.4747   -1.2784    0.0000 O   0  0  0  0  0  0  0  0  0  0  0  0
    4.7867   -2.4636    0.0000 O   0  0  0  0  0  0  0  0  0  0  0  0
    5.6005   -3.7236    0.0000 H   0  0  0  0  0  0  0  0  0  0  0  0
    1.1888   -3.3944    0.0000 O   0  0  0  0  0  0  0  0  0  0  0  0
    3.6967   -5.7144    0.0000 O   0  0  0  0  0  0  0  0  0  0  0  0
    4.5101   -6.9746    0.0000 H   0  0  0  0  0  0  0  0  0  0  0  0
    1.6287   -7.6313    0.0000 O   0  0  0  0  0  0  0  0  0  0  0  0
    0.9440   -8.9659    0.0000 H   0  0  0  0  0  0  0  0  0  0  0  0
   -1.0655   -6.7998    0.0000 O   0  0  0  0  0  0  0  0  0  0  0  0
   -2.5636   -6.8746    0.0000 H   0  0  0  0  0  0  0  0  0  0  0  0
  1  2  1  0  0  0  0 
  1  3  2  0  0  0  0 
  3  4  1  0  0  0  0 
  3  5  1  0  0  0  0 
  5  6  1  0  0  0  0 
  5  7  2  0  0  0  0 
  7  8  1  0  0  0  0 
  8  9  1  0  0  0  0 
  8 10  2  0  0  0  0 
  1 10  1  0  0  0  0 
 10 11  1  0  0  0  0 
  7 12  1  0  0  0  0 
 12 13  2  0  0  0  0 
 13 14  1  0  0  0  0 
 14 15  1  0  0  0  0 
 14 16  1  0  0  0  0 
 14 17  1  0  0  0  0 
 17 18  2  0  0  0  0 
 17 19  1  0  0  0  0 
 19 20  1  0  0  0  0 
 20 21  2  0  0  0  0 
 12 21  1  0  0  0  0 
 21 22  1  0  0  0  0 
 22 23  1  0  0  0  0 
 22 24  2  0  0  0  0 
 24 25  1  0  0  0  0 
 25 26  1  0  0  0  0 
 25 27  2  0  0  0  0 
 20 27  1  0  0  0  0 
 27 28  1  0  0  0  0 
 24 29  1  0  0  0  0 
 19 30  1  0  0  0  0 
 30 31  1  0  0  0  0 
 30 32  1  0  0  0  0 
 32 33  1  0  0  0  0 
 32 34  1  0  0  0  0 
 34 35  1  0  0  0  0 
 34 36  1  0  0  0  0 
 36 37  1  0  0  0  0 
 36 38  1  0  0  0  0 
 38 39  1  0  0  0  0 
 38 40  1  0  0  0  0 
 40 41  2  0  0  0  0 
 40 42  1  0  0  0  0 
 42 43  1  0  0  0  0 
 38 44  1  0  0  0  0 
 30 44  1  0  0  0  0 
 36 45  1  0  0  0  0 
 45 46  1  0  0  0  0 
 34 47  1  0  0  0  0 
 47 48  1  0  0  0  0 
 32 49  1  0  0  0  0 
 49 50  1  0  0  0  0 
M  END
> <Rank>
13

> <Priority_score>
0.048

> <Reaction_type>
N-glucuronidation_(aniline_NH1-R)

> <Parent_ID>
82

> <Parent_InChI>
InChI=1S/C15H11ClN2O/c16-11-6-7-13-12(8-11)15(17-9-14(19)18-13)10-4-2-1-3-5-10/h1-8H,9H2,(H,18,19)

> <Parent_SMILES>
O=C1CN=C(c2ccccc2)c2cc(Cl)ccc2N1

$$$$
Molecule 82_metabolite 14
  CDK     0516241031

 28 31  0  0  0  0  0  0  0  0999 V2000
    1.0600    6.2100    0.0000 C   0  0  0  0  0  0  0  0  0  0  0  0
    1.0600    7.7100    0.0000 H   0  0  0  0  0  0  0  0  0  0  0  0
   -0.2400    5.4600    0.0000 C   0  0  0  0  0  0  0  0  0  0  0  0
   -1.5389    6.2102    0.0000 H   0  0  0  0  0  0  0  0  0  0  0  0
   -0.2400    3.9600    0.0000 C   0  0  0  0  0  0  0  0  0  0  0  0
   -1.5389    3.2098    0.0000 H   0  0  0  0  0  0  0  0  0  0  0  0
    1.0600    3.2100    0.0000 C   0  0  0  0  0  0  0  0  0  0  0  0
    2.3600    3.9600    0.0000 C   0  0  0  0  0  0  0  0  0  0  0  0
    3.6589    3.2098    0.0000 H   0  0  0  0  0  0  0  0  0  0  0  0
    2.3600    5.4600    0.0000 C   0  0  0  0  0  0  0  0  0  0  0  0
    3.6589    6.2102    0.0000 H   0  0  0  0  0  0  0  0  0  0  0  0
    1.0600    0.7500    0.0000 C   0  0  0  0  0  0  0  0  0  0  0  0
    2.3600   -0.0100    0.0000 N   0  0  0  0  0  0  0  0  0  0  0  0
    2.3600   -1.5100    0.0000 C   0  0  0  0  0  0  0  0  0  0  0  0
    3.8600   -1.5100    0.0000 H   0  0  0  0  0  0  0  0  0  0  0  0
    2.3600   -3.0000    0.0000 C   0  0  0  0  0  0  0  0  0  0  0  0
    3.1102   -4.2989    0.0000 O   0  0  0  0  0  0  0  0  0  0  0  0
    1.0600   -2.2500    0.0000 N   0  0  0  0  0  0  0  0  0  0  0  0
   -0.2400   -1.5100    0.0000 C   0  0  0  0  0  0  0  0  0  0  0  0
   -0.2400   -0.0100    0.0000 C   0  0  0  0  0  0  0  0  0  0  0  0
   -1.5300    0.7500    0.0000 C   0  0  0  0  0  0  0  0  0  0  0  0
   -1.5275    2.2500    0.0000 H   0  0  0  0  0  0  0  0  0  0  0  0
   -2.8300   -0.0100    0.0000 C   0  0  0  0  0  0  0  0  0  0  0  0
   -2.8300   -1.5100    0.0000 C   0  0  0  0  0  0  0  0  0  0  0  0
   -4.1267   -2.2640    0.0000 H   0  0  0  0  0  0  0  0  0  0  0  0
   -1.5300   -2.2500    0.0000 C   0  0  0  0  0  0  0  0  0  0  0  0
   -1.5275   -3.7500    0.0000 H   0  0  0  0  0  0  0  0  0  0  0  0
   -4.1311    0.7365    0.0000 Cl  0  0  0  0  0  0  0  0  0  0  0  0
  1  2  1  0  0  0  0 
  1  3  2  0  0  0  0 
  3  4  1  0  0  0  0 
  3  5  1  0  0  0  0 
  5  6  1  0  0  0  0 
  5  7  2  0  0  0  0 
  7  8  1  0  0  0  0 
  8  9  1  0  0  0  0 
  8 10  2  0  0  0  0 
  1 10  1  0  0  0  0 
 10 11  1  0  0  0  0 
  7 12  1  0  0  0  0 
 12 13  2  0  0  0  0 
 13 14  1  0  0  0  0 
 14 15  1  0  0  0  0 
 14 16  1  0  0  0  0 
 16 17  2  0  0  0  0 
 16 18  1  0  0  0  0 
 14 18  1  0  0  0  0 
 18 19  1  0  0  0  0 
 19 20  2  0  0  0  0 
 12 20  1  0  0  0  0 
 20 21  1  0  0  0  0 
 21 22  1  0  0  0  0 
 21 23  2  0  0  0  0 
 23 24  1  0  0  0  0 
 24 25  1  0  0  0  0 
 24 26  2  0  0  0  0 
 19 26  1  0  0  0  0 
 26 27  1  0  0  0  0 
 23 28  1  0  0  0  0 
M  END
> <Rank>
14

> <Priority_score>
0.0352

> <Reaction_type>
cyclization to 6-membered NCN ring

> <Parent_ID>
82

> <Parent_InChI>
InChI=1S/C15H11ClN2O/c16-11-6-7-13-12(8-11)15(17-9-14(19)18-13)10-4-2-1-3-5-10/h1-8H,9H2,(H,18,19)

> <Parent_SMILES>
O=C1CN=C(c2ccccc2)c2cc(Cl)ccc2N1

$$$$
Molecule 82_metabolite 15
  CDK     0516241031

 31 33  0  0  0  0  0  0  0  0999 V2000
   -2.3685    6.3801    0.0000 C   0  0  0  0  0  0  0  0  0  0  0  0
   -2.2943    7.8783    0.0000 H   0  0  0  0  0  0  0  0  0  0  0  0
   -3.7040    5.6953    0.0000 C   0  0  0  0  0  0  0  0  0  0  0  0
   -4.9642    6.5089    0.0000 H   0  0  0  0  0  0  0  0  0  0  0  0
   -3.7782    4.1972    0.0000 C   0  0  0  0  0  0  0  0  0  0  0  0
   -5.1126    3.5121    0.0000 H   0  0  0  0  0  0  0  0  0  0  0  0
   -2.5169    3.3838    0.0000 C   0  0  0  0  0  0  0  0  0  0  0  0
   -1.1813    4.0686    0.0000 C   0  0  0  0  0  0  0  0  0  0  0  0
    0.8854    2.7344    0.0000 H   0  0  0  0  0  0  0  0  0  0  0  0
   -1.1072    5.5667    0.0000 C   0  0  0  0  0  0  0  0  0  0  0  0
    0.2273    6.2518    0.0000 H   0  0  0  0  0  0  0  0  0  0  0  0
   -2.6385    0.9268    0.0000 C   0  0  0  0  0  0  0  0  0  0  0  0
   -4.0985    0.5868    0.0000 N   0  0  0  0  0  0  0  0  0  0  0  0
   -4.7485   -0.7632    0.0000 C   0  0  0  0  0  0  0  0  0  0  0  0
   -5.9213    0.1720    0.0000 H   0  0  0  0  0  0  0  0  0  0  0  0
   -5.9213   -1.6984    0.0000 H   0  0  0  0  0  0  0  0  0  0  0  0
   -4.0985   -2.1132    0.0000 C   0  0  0  0  0  0  0  0  0  0  0  0
   -5.0364   -3.2839    0.0000 O   0  0  0  0  0  0  0  0  0  0  0  0
   -2.6385   -2.4532    0.0000 N   0  0  0  0  0  0  0  0  0  0  0  0
   -2.3053   -3.9157    0.0000 H   0  0  0  0  0  0  0  0  0  0  0  0
   -1.4685   -1.5132    0.0000 C   0  0  0  0  0  0  0  0  0  0  0  0
   -0.1685   -2.2632    0.0000 C   0  0  0  0  0  0  0  0  0  0  0  0
   -0.1685   -3.7632    0.0000 H   0  0  0  0  0  0  0  0  0  0  0  0
    1.1315   -1.5132    0.0000 C   0  0  0  0  0  0  0  0  0  0  0  0
    2.4304   -2.2634    0.0000 H   0  0  0  0  0  0  0  0  0  0  0  0
    1.1315   -0.0132    0.0000 C   0  0  0  0  0  0  0  0  0  0  0  0
   -0.1685    0.7368    0.0000 C   0  0  0  0  0  0  0  0  0  0  0  0
   -1.4685   -0.0132    0.0000 C   0  0  0  0  0  0  0  0  0  0  0  0
    0.0920    2.2140    0.0000 O   0  0  0  0  0  0  0  0  0  0  0  0
    2.4036    3.0554    0.0000 H   0  0  0  0  0  0  0  0  0  0  0  0
    2.4304    0.7370    0.0000 Cl  0  0  0  0  0  0  0  0  0  0  0  0
  1  2  1  0  0  0  0 
  1  3  2  0  0  0  0 
  3  4  1  0  0  0  0 
  3  5  1  0  0  0  0 
  5  6  1  0  0  0  0 
  5  7  2  0  0  0  0 
  7  8  1  0  0  0  0 
  8  9  1  0  0  0  0 
  8 10  2  0  0  0  0 
  1 10  1  0  0  0  0 
 10 11  1  0  0  0  0 
  7 12  1  0  0  0  0 
 12 13  2  0  0  0  0 
 13 14  1  0  0  0  0 
 14 15  1  0  0  0  0 
 14 16  1  0  0  0  0 
 14 17  1  0  0  0  0 
 17 18  2  0  0  0  0 
 17 19  1  0  0  0  0 
 19 20  1  0  0  0  0 
 19 21  1  0  0  0  0 
 21 22  2  0  0  0  0 
 22 23  1  0  0  0  0 
 22 24  1  0  0  0  0 
 24 25  1  0  0  0  0 
 24 26  2  0  0  0  0 
 26 27  1  0  0  0  0 
 27 28  2  0  0  0  0 
 21 28  1  0  0  0  0 
 12 28  1  0  0  0  0 
 27 29  1  0  0  0  0 
 29 30  1  0  0  0  0 
 26 31  1  0  0  0  0 
M  END
> <Rank>
15

> <Priority_score>
0.024

> <Reaction_type>
aromatic hydroxylation

> <Parent_ID>
82

> <Parent_InChI>
InChI=1S/C15H11ClN2O/c16-11-6-7-13-12(8-11)15(17-9-14(19)18-13)10-4-2-1-3-5-10/h1-8H,9H2,(H,18,19)

> <Parent_SMILES>
O=C1CN=C(c2ccccc2)c2cc(Cl)ccc2N1

$$$$
Molecule 82_metabolite 16
  CDK     0516241031

 31 33  0  0  0  0  0  0  0  0999 V2000
    0.8593    5.3853    0.0000 C   0  0  0  0  0  0  0  0  0  0  0  0
    2.2926    5.8275    0.0000 H   0  0  0  0  0  0  0  0  0  0  0  0
    0.5252    3.9221    0.0000 C   0  0  0  0  0  0  0  0  0  0  0  0
    1.9769    2.5757    0.0000 H   0  0  0  0  0  0  0  0  0  0  0  0
   -0.9087    3.4789    0.0000 C   0  0  0  0  0  0  0  0  0  0  0  0
   -2.0085    4.4989    0.0000 C   0  0  0  0  0  0  0  0  0  0  0  0
   -1.6744    5.9621    0.0000 C   0  0  0  0  0  0  0  0  0  0  0  0
   -2.7742    6.9821    0.0000 H   0  0  0  0  0  0  0  0  0  0  0  0
   -0.2405    6.4053    0.0000 C   0  0  0  0  0  0  0  0  0  0  0  0
    0.0927    7.8678    0.0000 H   0  0  0  0  0  0  0  0  0  0  0  0
   -3.4419    4.0567    0.0000 O   0  0  0  0  0  0  0  0  0  0  0  0
   -4.5415    5.0769    0.0000 H   0  0  0  0  0  0  0  0  0  0  0  0
   -1.3486    1.5484    0.0000 C   0  0  0  0  0  0  0  0  0  0  0  0
   -2.8086    1.2084    0.0000 N   0  0  0  0  0  0  0  0  0  0  0  0
   -3.4586   -0.1416    0.0000 C   0  0  0  0  0  0  0  0  0  0  0  0
   -4.6313    0.7936    0.0000 H   0  0  0  0  0  0  0  0  0  0  0  0
   -4.6313   -1.0768    0.0000 H   0  0  0  0  0  0  0  0  0  0  0  0
   -2.8086   -1.4916    0.0000 C   0  0  0  0  0  0  0  0  0  0  0  0
   -3.7464   -2.6623    0.0000 O   0  0  0  0  0  0  0  0  0  0  0  0
   -1.3486   -1.8316    0.0000 N   0  0  0  0  0  0  0  0  0  0  0  0
   -1.0154   -3.2941    0.0000 H   0  0  0  0  0  0  0  0  0  0  0  0
   -0.1786   -0.8916    0.0000 C   0  0  0  0  0  0  0  0  0  0  0  0
   -0.1786    0.6084    0.0000 C   0  0  0  0  0  0  0  0  0  0  0  0
    1.1214    1.3584    0.0000 C   0  0  0  0  0  0  0  0  0  0  0  0
    1.1214    2.8584    0.0000 H   0  0  0  0  0  0  0  0  0  0  0  0
    2.4214    0.6084    0.0000 C   0  0  0  0  0  0  0  0  0  0  0  0
    2.4214   -0.8916    0.0000 C   0  0  0  0  0  0  0  0  0  0  0  0
    3.7204   -1.6418    0.0000 H   0  0  0  0  0  0  0  0  0  0  0  0
    1.1214   -1.6416    0.0000 C   0  0  0  0  0  0  0  0  0  0  0  0
    1.1214   -3.1416    0.0000 H   0  0  0  0  0  0  0  0  0  0  0  0
    3.7204    1.3586    0.0000 Cl  0  0  0  0  0  0  0  0  0  0  0  0
  1  2  1  0  0  0  0 
  1  3  2  0  0  0  0 
  3  4  1  0  0  0  0 
  3  5  1  0  0  0  0 
  5  6  2  0  0  0  0 
  6  7  1  0  0  0  0 
  7  8  1  0  0  0  0 
  7  9  2  0  0  0  0 
  1  9  1  0  0  0  0 
  9 10  1  0  0  0  0 
  6 11  1  0  0  0  0 
 11 12  1  0  0  0  0 
  5 13  1  0  0  0  0 
 13 14  2  0  0  0  0 
 14 15  1  0  0  0  0 
 15 16  1  0  0  0  0 
 15 17  1  0  0  0  0 
 15 18  1  0  0  0  0 
 18 19  2  0  0  0  0 
 18 20  1  0  0  0  0 
 20 21  1  0  0  0  0 
 20 22  1  0  0  0  0 
 22 23  2  0  0  0  0 
 13 23  1  0  0  0  0 
 23 24  1  0  0  0  0 
 24 25  1  0  0  0  0 
 24 26  2  0  0  0  0 
 26 27  1  0  0  0  0 
 27 28  1  0  0  0  0 
 27 29  2  0  0  0  0 
 22 29  1  0  0  0  0 
 29 30  1  0  0  0  0 
 26 31  1  0  0  0  0 
M  END
> <Rank>
16

> <Priority_score>
0.008

> <Reaction_type>
aromatic hydroxylation

> <Parent_ID>
82

> <Parent_InChI>
InChI=1S/C15H11ClN2O/c16-11-6-7-13-12(8-11)15(17-9-14(19)18-13)10-4-2-1-3-5-10/h1-8H,9H2,(H,18,19)

> <Parent_SMILES>
O=C1CN=C(c2ccccc2)c2cc(Cl)ccc2N1

$$$$
Molecule 82_metabolite 17
  CDK     0516241031

 31 33  0  0  0  0  0  0  0  0999 V2000
   -0.2423    6.4040    0.0000 C   0  0  0  0  0  0  0  0  0  0  0  0
    0.0909    7.8665    0.0000 H   0  0  0  0  0  0  0  0  0  0  0  0
   -1.6764    5.9615    0.0000 C   0  0  0  0  0  0  0  0  0  0  0  0
   -2.7762    6.9815    0.0000 H   0  0  0  0  0  0  0  0  0  0  0  0
   -2.0096    4.4990    0.0000 C   0  0  0  0  0  0  0  0  0  0  0  0
   -3.4428    4.0561    0.0000 H   0  0  0  0  0  0  0  0  0  0  0  0
   -0.9087    3.4789    0.0000 C   0  0  0  0  0  0  0  0  0  0  0  0
    0.5254    3.9214    0.0000 C   0  0  0  0  0  0  0  0  0  0  0  0
    1.9771    2.5750    0.0000 H   0  0  0  0  0  0  0  0  0  0  0  0
    0.8586    5.3839    0.0000 C   0  0  0  0  0  0  0  0  0  0  0  0
    2.2917    5.8268    0.0000 H   0  0  0  0  0  0  0  0  0  0  0  0
   -1.3486    1.5484    0.0000 C   0  0  0  0  0  0  0  0  0  0  0  0
   -2.8086    1.2084    0.0000 N   0  0  0  0  0  0  0  0  0  0  0  0
   -3.4586   -0.1416    0.0000 C   0  0  0  0  0  0  0  0  0  0  0  0
   -4.6313    0.7936    0.0000 H   0  0  0  0  0  0  0  0  0  0  0  0
   -4.6313   -1.0768    0.0000 H   0  0  0  0  0  0  0  0  0  0  0  0
   -2.8086   -1.4916    0.0000 C   0  0  0  0  0  0  0  0  0  0  0  0
   -3.7464   -2.6623    0.0000 O   0  0  0  0  0  0  0  0  0  0  0  0
   -1.3486   -1.8316    0.0000 N   0  0  0  0  0  0  0  0  0  0  0  0
   -1.0154   -3.2941    0.0000 H   0  0  0  0  0  0  0  0  0  0  0  0
   -0.1786   -0.8916    0.0000 C   0  0  0  0  0  0  0  0  0  0  0  0
   -0.1786    0.6084    0.0000 C   0  0  0  0  0  0  0  0  0  0  0  0
    1.1214    1.3584    0.0000 C   0  0  0  0  0  0  0  0  0  0  0  0
    1.1214    2.8584    0.0000 H   0  0  0  0  0  0  0  0  0  0  0  0
    2.4214    0.6084    0.0000 C   0  0  0  0  0  0  0  0  0  0  0  0
    2.4214   -0.8916    0.0000 C   0  0  0  0  0  0  0  0  0  0  0  0
    3.7204   -1.6418    0.0000 H   0  0  0  0  0  0  0  0  0  0  0  0
    1.1214   -1.6416    0.0000 C   0  0  0  0  0  0  0  0  0  0  0  0
    1.1214   -3.1416    0.0000 H   0  0  0  0  0  0  0  0  0  0  0  0
    3.7204    1.3586    0.0000 O   0  0  0  0  0  0  0  0  0  0  0  0
    5.0195    0.6088    0.0000 H   0  0  0  0  0  0  0  0  0  0  0  0
  1  2  1  0  0  0  0 
  1  3  2  0  0  0  0 
  3  4  1  0  0  0  0 
  3  5  1  0  0  0  0 
  5  6  1  0  0  0  0 
  5  7  2  0  0  0  0 
  7  8  1  0  0  0  0 
  8  9  1  0  0  0  0 
  8 10  2  0  0  0  0 
  1 10  1  0  0  0  0 
 10 11  1  0  0  0  0 
  7 12  1  0  0  0  0 
 12 13  2  0  0  0  0 
 13 14  1  0  0  0  0 
 14 15  1  0  0  0  0 
 14 16  1  0  0  0  0 
 14 17  1  0  0  0  0 
 17 18  2  0  0  0  0 
 17 19  1  0  0  0  0 
 19 20  1  0  0  0  0 
 19 21  1  0  0  0  0 
 21 22  2  0  0  0  0 
 12 22  1  0  0  0  0 
 22 23  1  0  0  0  0 
 23 24  1  0  0  0  0 
 23 25  2  0  0  0  0 
 25 26  1  0  0  0  0 
 26 27  1  0  0  0  0 
 26 28  2  0  0  0  0 
 21 28  1  0  0  0  0 
 28 29  1  0  0  0  0 
 25 30  1  0  0  0  0 
 30 31  1  0  0  0  0 
M  END
> <Rank>
17

> <Priority_score>
0.0

> <Reaction_type>
aromatic_dechlorination

> <Parent_ID>
82

> <Parent_InChI>
InChI=1S/C15H11ClN2O/c16-11-6-7-13-12(8-11)15(17-9-14(19)18-13)10-4-2-1-3-5-10/h1-8H,9H2,(H,18,19)

> <Parent_SMILES>
O=C1CN=C(c2ccccc2)c2cc(Cl)ccc2N1

$$$$
Molecule 83
  CDK     0516241031

 20 22  0  0  0  0  0  0  0  0999 V2000
    0.1096    6.0776    0.0000 C   0  0  0  0  0  0  0  0  0  0  0  0
   -1.3245    5.6351    0.0000 C   0  0  0  0  0  0  0  0  0  0  0  0
   -1.6577    4.1726    0.0000 C   0  0  0  0  0  0  0  0  0  0  0  0
   -0.5568    3.1525    0.0000 C   0  0  0  0  0  0  0  0  0  0  0  0
    0.8773    3.5950    0.0000 C   0  0  0  0  0  0  0  0  0  0  0  0
    1.2106    5.0575    0.0000 C   0  0  0  0  0  0  0  0  0  0  0  0
   -0.8900    1.6900    0.0000 C   0  0  0  0  0  0  0  0  0  0  0  0
   -2.3500    1.3500    0.0000 N   0  0  0  0  0  0  0  0  0  0  0  0
   -3.0000    0.0000    0.0000 C   0  0  0  0  0  0  0  0  0  0  0  0
   -2.3500   -1.3500    0.0000 C   0  0  0  0  0  0  0  0  0  0  0  0
   -3.2879   -2.5207    0.0000 O   0  0  0  0  0  0  0  0  0  0  0  0
   -0.8900   -1.6900    0.0000 N   0  0  0  0  0  0  0  0  0  0  0  0
    0.2800   -0.7500    0.0000 C   0  0  0  0  0  0  0  0  0  0  0  0
    0.2800    0.7500    0.0000 C   0  0  0  0  0  0  0  0  0  0  0  0
    1.5800    1.5000    0.0000 C   0  0  0  0  0  0  0  0  0  0  0  0
    2.8800    0.7500    0.0000 C   0  0  0  0  0  0  0  0  0  0  0  0
    2.8800   -0.7500    0.0000 C   0  0  0  0  0  0  0  0  0  0  0  0
    1.5800   -1.5000    0.0000 C   0  0  0  0  0  0  0  0  0  0  0  0
    4.1789    1.5002    0.0000 Cl  0  0  0  0  0  0  0  0  0  0  0  0
   -4.5000    0.0000    0.0000 O   0  0  0  0  0  0  0  0  0  0  0  0
  1  2  2  0  0  0  0 
  2  3  1  0  0  0  0 
  3  4  2  0  0  0  0 
  4  5  1  0  0  0  0 
  5  6  2  0  0  0  0 
  1  6  1  0  0  0  0 
  4  7  1  0  0  0  0 
  7  8  2  0  0  0  0 
  8  9  1  0  0  0  0 
  9 10  1  0  0  0  0 
 10 11  2  0  0  0  0 
 10 12  1  0  0  0  0 
 12 13  1  0  0  0  0 
 13 14  2  0  0  0  0 
  7 14  1  0  0  0  0 
 14 15  1  0  0  0  0 
 15 16  2  0  0  0  0 
 16 17  1  0  0  0  0 
 17 18  2  0  0  0  0 
 13 18  1  0  0  0  0 
 16 19  1  0  0  0  0 
  9 20  1  0  0  0  0 
M  END
> <SMILES>
O=C1Nc2ccc(Cl)cc2C(c2ccccc2)=NC1O

$$$$
Molecule 83_metabolite 1
  CDK     0516241031

 51 54  0  0  0  0  0  0  0  0999 V2000
    0.6128    6.6901    0.0000 C   0  0  0  0  0  0  0  0  0  0  0  0
    0.9460    8.1526    0.0000 H   0  0  0  0  0  0  0  0  0  0  0  0
   -0.8213    6.2476    0.0000 C   0  0  0  0  0  0  0  0  0  0  0  0
   -1.9211    7.2676    0.0000 H   0  0  0  0  0  0  0  0  0  0  0  0
   -1.1545    4.7851    0.0000 C   0  0  0  0  0  0  0  0  0  0  0  0
   -2.5876    4.3422    0.0000 H   0  0  0  0  0  0  0  0  0  0  0  0
   -0.0536    3.7651    0.0000 C   0  0  0  0  0  0  0  0  0  0  0  0
    1.3805    4.2075    0.0000 C   0  0  0  0  0  0  0  0  0  0  0  0
    2.8323    2.8611    0.0000 H   0  0  0  0  0  0  0  0  0  0  0  0
    1.7137    5.6701    0.0000 C   0  0  0  0  0  0  0  0  0  0  0  0
    3.1468    6.1130    0.0000 H   0  0  0  0  0  0  0  0  0  0  0  0
   -0.4935    1.8345    0.0000 C   0  0  0  0  0  0  0  0  0  0  0  0
   -1.9535    1.4945    0.0000 N   0  0  0  0  0  0  0  0  0  0  0  0
   -2.6035    0.1445    0.0000 C   0  0  0  0  0  0  0  0  0  0  0  0
   -3.7762    1.0797    0.0000 H   0  0  0  0  0  0  0  0  0  0  0  0
   -1.9535   -1.2055    0.0000 C   0  0  0  0  0  0  0  0  0  0  0  0
   -2.8913   -2.3761    0.0000 O   0  0  0  0  0  0  0  0  0  0  0  0
   -0.4935   -1.5455    0.0000 N   0  0  0  0  0  0  0  0  0  0  0  0
   -0.1602   -3.0080    0.0000 H   0  0  0  0  0  0  0  0  0  0  0  0
    0.6765   -0.6055    0.0000 C   0  0  0  0  0  0  0  0  0  0  0  0
    0.6765    0.8945    0.0000 C   0  0  0  0  0  0  0  0  0  0  0  0
    1.9765    1.6445    0.0000 C   0  0  0  0  0  0  0  0  0  0  0  0
    1.9765    3.1445    0.0000 H   0  0  0  0  0  0  0  0  0  0  0  0
    3.2765    0.8945    0.0000 C   0  0  0  0  0  0  0  0  0  0  0  0
    3.2765   -0.6055    0.0000 C   0  0  0  0  0  0  0  0  0  0  0  0
    4.5755   -1.3557    0.0000 H   0  0  0  0  0  0  0  0  0  0  0  0
    1.9765   -1.3555    0.0000 C   0  0  0  0  0  0  0  0  0  0  0  0
    1.9765   -2.8555    0.0000 H   0  0  0  0  0  0  0  0  0  0  0  0
    4.5755    1.6447    0.0000 Cl  0  0  0  0  0  0  0  0  0  0  0  0
   -4.1515   -1.0899    0.0000 O   0  0  0  0  0  0  0  0  0  0  0  0
   -5.5478   -0.5419    0.0000 C   0  0  0  0  0  0  0  0  0  0  0  0
   -4.7686    0.7398    0.0000 H   0  0  0  0  0  0  0  0  0  0  0  0
   -5.8464   -2.0017    0.0000 C   0  0  0  0  0  0  0  0  0  0  0  0
   -5.6275   -3.4856    0.0000 H   0  0  0  0  0  0  0  0  0  0  0  0
   -7.2920   -2.4817    0.0000 C   0  0  0  0  0  0  0  0  0  0  0  0
   -8.4706   -3.4095    0.0000 H   0  0  0  0  0  0  0  0  0  0  0  0
   -8.4133   -1.4765    0.0000 C   0  0  0  0  0  0  0  0  0  0  0  0
   -9.8073   -0.9228    0.0000 H   0  0  0  0  0  0  0  0  0  0  0  0
   -8.1147   -0.0168    0.0000 C   0  0  0  0  0  0  0  0  0  0  0  0
   -8.3344    1.4670    0.0000 H   0  0  0  0  0  0  0  0  0  0  0  0
  -10.0939    0.0374    0.0000 C   0  0  0  0  0  0  0  0  0  0  0  0
  -10.8081    1.3565    0.0000 O   0  0  0  0  0  0  0  0  0  0  0  0
  -10.8792   -1.2406    0.0000 O   0  0  0  0  0  0  0  0  0  0  0  0
  -12.3786   -1.1996    0.0000 H   0  0  0  0  0  0  0  0  0  0  0  0
   -6.6907    0.4574    0.0000 O   0  0  0  0  0  0  0  0  0  0  0  0
   -9.2030   -2.7518    0.0000 O   0  0  0  0  0  0  0  0  0  0  0  0
  -10.7023   -2.7055    0.0000 H   0  0  0  0  0  0  0  0  0  0  0  0
   -6.5811   -3.8025    0.0000 O   0  0  0  0  0  0  0  0  0  0  0  0
   -7.3696   -5.0786    0.0000 H   0  0  0  0  0  0  0  0  0  0  0  0
   -4.3470   -2.0431    0.0000 O   0  0  0  0  0  0  0  0  0  0  0  0
   -3.6332   -3.3624    0.0000 H   0  0  0  0  0  0  0  0  0  0  0  0
  1  2  1  0  0  0  0 
  1  3  2  0  0  0  0 
  3  4  1  0  0  0  0 
  3  5  1  0  0  0  0 
  5  6  1  0  0  0  0 
  5  7  2  0  0  0  0 
  7  8  1  0  0  0  0 
  8  9  1  0  0  0  0 
  8 10  2  0  0  0  0 
  1 10  1  0  0  0  0 
 10 11  1  0  0  0  0 
  7 12  1  0  0  0  0 
 12 13  2  0  0  0  0 
 13 14  1  0  0  0  0 
 14 15  1  0  0  0  0 
 14 16  1  0  0  0  0 
 16 17  2  0  0  0  0 
 16 18  1  0  0  0  0 
 18 19  1  0  0  0  0 
 18 20  1  0  0  0  0 
 20 21  2  0  0  0  0 
 12 21  1  0  0  0  0 
 21 22  1  0  0  0  0 
 22 23  1  0  0  0  0 
 22 24  2  0  0  0  0 
 24 25  1  0  0  0  0 
 25 26  1  0  0  0  0 
 25 27  2  0  0  0  0 
 20 27  1  0  0  0  0 
 27 28  1  0  0  0  0 
 24 29  1  0  0  0  0 
 14 30  1  0  0  0  0 
 30 31  1  0  0  0  0 
 31 32  1  0  0  0  0 
 31 33  1  0  0  0  0 
 33 34  1  0  0  0  0 
 33 35  1  0  0  0  0 
 35 36  1  0  0  0  0 
 35 37  1  0  0  0  0 
 37 38  1  0  0  0  0 
 37 39  1  0  0  0  0 
 39 40  1  0  0  0  0 
 39 41  1  0  0  0  0 
 41 42  2  0  0  0  0 
 41 43  1  0  0  0  0 
 43 44  1  0  0  0  0 
 39 45  1  0  0  0  0 
 31 45  1  0  0  0  0 
 37 46  1  0  0  0  0 
 46 47  1  0  0  0  0 
 35 48  1  0  0  0  0 
 48 49  1  0  0  0  0 
 33 50  1  0  0  0  0 
 50 51  1  0  0  0  0 
M  END
> <Rank>
1

> <Priority_score>
0.972

> <Reaction_type>
O-glucuronidation_(aliphatic_hydroxyl)

> <Parent_ID>
83

> <Parent_InChI>
InChI=1S/C15H11ClN2O2/c16-10-6-7-12-11(8-10)13(9-4-2-1-3-5-9)18-15(20)14(19)17-12/h1-8,15,20H,(H,17,19)

> <Parent_SMILES>
O=C1Nc2ccc(Cl)cc2C(c2ccccc2)=NC1O

$$$$
Molecule 83_metabolite 2
  CDK     0516241031

 35 37  0  0  0  0  0  0  0  0999 V2000
   -6.2838   -8.9885    0.0000 C   0  0  0  0  0  0  0  0  0  0  0  0
   -7.0344  -10.2872    0.0000 H   0  0  0  0  0  0  0  0  0  0  0  0
   -7.0341   -7.6886    0.0000 C   0  0  0  0  0  0  0  0  0  0  0  0
   -8.5341   -7.6882    0.0000 H   0  0  0  0  0  0  0  0  0  0  0  0
   -6.2835   -6.3899    0.0000 C   0  0  0  0  0  0  0  0  0  0  0  0
   -7.0328   -5.0904    0.0000 H   0  0  0  0  0  0  0  0  0  0  0  0
   -4.7827   -6.3911    0.0000 C   0  0  0  0  0  0  0  0  0  0  0  0
   -4.0324   -7.6909    0.0000 C   0  0  0  0  0  0  0  0  0  0  0  0
   -2.0524   -7.6915    0.0000 H   0  0  0  0  0  0  0  0  0  0  0  0
   -4.7830   -8.9896    0.0000 C   0  0  0  0  0  0  0  0  0  0  0  0
   -4.0338  -10.2891    0.0000 H   0  0  0  0  0  0  0  0  0  0  0  0
   -3.7919   -4.6768    0.0000 C   0  0  0  0  0  0  0  0  0  0  0  0
   -4.6309   -3.4344    0.0000 N   0  0  0  0  0  0  0  0  0  0  0  0
   -4.1891   -2.0027    0.0000 C   0  0  0  0  0  0  0  0  0  0  0  0
   -5.6849   -1.8905    0.0000 H   0  0  0  0  0  0  0  0  0  0  0  0
   -2.7943   -1.4553    0.0000 C   0  0  0  0  0  0  0  0  0  0  0  0
   -2.6855    0.0407    0.0000 O   0  0  0  0  0  0  0  0  0  0  0  0
   -1.4928   -2.1992    0.0000 N   0  0  0  0  0  0  0  0  0  0  0  0
   -0.2538   -1.3538    0.0000 H   0  0  0  0  0  0  0  0  0  0  0  0
   -1.2746   -3.6841    0.0000 C   0  0  0  0  0  0  0  0  0  0  0  0
   -2.2949   -4.7836    0.0000 C   0  0  0  0  0  0  0  0  0  0  0  0
   -1.8522   -6.2176    0.0000 C   0  0  0  0  0  0  0  0  0  0  0  0
   -2.8725   -7.3171    0.0000 H   0  0  0  0  0  0  0  0  0  0  0  0
   -0.3891   -6.5521    0.0000 C   0  0  0  0  0  0  0  0  0  0  0  0
    0.6312   -5.4526    0.0000 C   0  0  0  0  0  0  0  0  0  0  0  0
    2.0937   -5.7862    0.0000 H   0  0  0  0  0  0  0  0  0  0  0  0
    0.1885   -4.0186    0.0000 C   0  0  0  0  0  0  0  0  0  0  0  0
    1.2088   -2.9190    0.0000 H   0  0  0  0  0  0  0  0  0  0  0  0
    0.0528   -7.9856    0.0000 Cl  0  0  0  0  0  0  0  0  0  0  0  0
   -4.4126   -0.5195    0.0000 O   0  0  0  0  0  0  0  0  0  0  0  0
   -5.8089    0.0286    0.0000 S   0  0  0  0  0  0  0  0  0  0  0  0
   -5.0267    1.3085    0.0000 O   0  0  0  0  0  0  0  0  0  0  0  0
   -6.9335    1.0211    0.0000 O   0  0  0  0  0  0  0  0  0  0  0  0
   -6.9817   -0.9066    0.0000 O   0  0  0  0  0  0  0  0  0  0  0  0
   -8.3780   -0.3586    0.0000 H   0  0  0  0  0  0  0  0  0  0  0  0
  1  2  1  0  0  0  0 
  1  3  2  0  0  0  0 
  3  4  1  0  0  0  0 
  3  5  1  0  0  0  0 
  5  6  1  0  0  0  0 
  5  7  2  0  0  0  0 
  7  8  1  0  0  0  0 
  8  9  1  0  0  0  0 
  8 10  2  0  0  0  0 
  1 10  1  0  0  0  0 
 10 11  1  0  0  0  0 
  7 12  1  0  0  0  0 
 12 13  2  0  0  0  0 
 13 14  1  0  0  0  0 
 14 15  1  0  0  0  0 
 14 16  1  0  0  0  0 
 16 17  2  0  0  0  0 
 16 18  1  0  0  0  0 
 18 19  1  0  0  0  0 
 18 20  1  0  0  0  0 
 20 21  2  0  0  0  0 
 12 21  1  0  0  0  0 
 21 22  1  0  0  0  0 
 22 23  1  0  0  0  0 
 22 24  2  0  0  0  0 
 24 25  1  0  0  0  0 
 25 26  1  0  0  0  0 
 25 27  2  0  0  0  0 
 20 27  1  0  0  0  0 
 27 28  1  0  0  0  0 
 24 29  1  0  0  0  0 
 14 30  1  0  0  0  0 
 30 31  1  0  0  0  0 
 31 32  2  0  0  0  0 
 31 33  2  0  0  0  0 
 31 34  1  0  0  0  0 
 34 35  1  0  0  0  0 
M  END
> <Rank>
2

> <Priority_score>
0.688

> <Reaction_type>
sulfation_(aliphatic_hydroxyl)

> <Parent_ID>
83

> <Parent_InChI>
InChI=1S/C15H11ClN2O2/c16-10-6-7-12-11(8-10)13(9-4-2-1-3-5-9)18-15(20)14(19)17-12/h1-8,15,20H,(H,17,19)

> <Parent_SMILES>
O=C1Nc2ccc(Cl)cc2C(c2ccccc2)=NC1O

$$$$
Molecule 83_metabolite 3
  CDK     0516241031

 32 34  0  0  0  0  0  0  0  0999 V2000
   -1.6737    5.9533    0.0000 C   0  0  0  0  0  0  0  0  0  0  0  0
   -2.7722    6.9746    0.0000 H   0  0  0  0  0  0  0  0  0  0  0  0
   -2.0093    4.4993    0.0000 C   0  0  0  0  0  0  0  0  0  0  0  0
   -3.4432    4.0588    0.0000 H   0  0  0  0  0  0  0  0  0  0  0  0
   -0.9089    3.4788    0.0000 C   0  0  0  0  0  0  0  0  0  0  0  0
    0.5242    3.9217    0.0000 C   0  0  0  0  0  0  0  0  0  0  0  0
    1.9766    2.5760    0.0000 H   0  0  0  0  0  0  0  0  0  0  0  0
    0.8569    5.3852    0.0000 C   0  0  0  0  0  0  0  0  0  0  0  0
   -0.2405    6.3962    0.0000 C   0  0  0  0  0  0  0  0  0  0  0  0
    0.0902    7.8593    0.0000 H   0  0  0  0  0  0  0  0  0  0  0  0
    2.2893    5.8305    0.0000 O   0  0  0  0  0  0  0  0  0  0  0  0
    2.6198    7.2936    0.0000 H   0  0  0  0  0  0  0  0  0  0  0  0
   -1.3487    1.5482    0.0000 C   0  0  0  0  0  0  0  0  0  0  0  0
   -2.8087    1.2082    0.0000 N   0  0  0  0  0  0  0  0  0  0  0  0
   -3.4587   -0.1418    0.0000 C   0  0  0  0  0  0  0  0  0  0  0  0
   -4.6315    0.7934    0.0000 H   0  0  0  0  0  0  0  0  0  0  0  0
   -2.8087   -1.4918    0.0000 C   0  0  0  0  0  0  0  0  0  0  0  0
   -3.7466   -2.6624    0.0000 O   0  0  0  0  0  0  0  0  0  0  0  0
   -1.3487   -1.8318    0.0000 N   0  0  0  0  0  0  0  0  0  0  0  0
   -1.0155   -3.2943    0.0000 H   0  0  0  0  0  0  0  0  0  0  0  0
   -0.1787   -0.8918    0.0000 C   0  0  0  0  0  0  0  0  0  0  0  0
   -0.1787    0.6082    0.0000 C   0  0  0  0  0  0  0  0  0  0  0  0
    1.1213    1.3582    0.0000 C   0  0  0  0  0  0  0  0  0  0  0  0
    1.1213    2.8582    0.0000 H   0  0  0  0  0  0  0  0  0  0  0  0
    2.4213    0.6082    0.0000 C   0  0  0  0  0  0  0  0  0  0  0  0
    2.4213   -0.8918    0.0000 C   0  0  0  0  0  0  0  0  0  0  0  0
    3.7202   -1.6420    0.0000 H   0  0  0  0  0  0  0  0  0  0  0  0
    1.1213   -1.6418    0.0000 C   0  0  0  0  0  0  0  0  0  0  0  0
    1.1213   -3.1418    0.0000 H   0  0  0  0  0  0  0  0  0  0  0  0
    3.7202    1.3584    0.0000 Cl  0  0  0  0  0  0  0  0  0  0  0  0
   -4.6315   -1.0770    0.0000 O   0  0  0  0  0  0  0  0  0  0  0  0
   -6.0278   -0.5289    0.0000 H   0  0  0  0  0  0  0  0  0  0  0  0
  1  2  1  0  0  0  0 
  1  3  2  0  0  0  0 
  3  4  1  0  0  0  0 
  3  5  1  0  0  0  0 
  5  6  2  0  0  0  0 
  6  7  1  0  0  0  0 
  6  8  1  0  0  0  0 
  8  9  2  0  0  0  0 
  1  9  1  0  0  0  0 
  9 10  1  0  0  0  0 
  8 11  1  0  0  0  0 
 11 12  1  0  0  0  0 
  5 13  1  0  0  0  0 
 13 14  2  0  0  0  0 
 14 15  1  0  0  0  0 
 15 16  1  0  0  0  0 
 15 17  1  0  0  0  0 
 17 18  2  0  0  0  0 
 17 19  1  0  0  0  0 
 19 20  1  0  0  0  0 
 19 21  1  0  0  0  0 
 21 22  2  0  0  0  0 
 13 22  1  0  0  0  0 
 22 23  1  0  0  0  0 
 23 24  1  0  0  0  0 
 23 25  2  0  0  0  0 
 25 26  1  0  0  0  0 
 26 27  1  0  0  0  0 
 26 28  2  0  0  0  0 
 21 28  1  0  0  0  0 
 28 29  1  0  0  0  0 
 25 30  1  0  0  0  0 
 15 31  1  0  0  0  0 
 31 32  1  0  0  0  0 
M  END
> <Rank>
3

> <Priority_score>
0.29184080859128236

> <Reaction_type>
aromatic_hydroxylation_(meta_to_carbon)

> <Parent_ID>
83

> <Parent_InChI>
InChI=1S/C15H11ClN2O2/c16-10-6-7-12-11(8-10)13(9-4-2-1-3-5-9)18-15(20)14(19)17-12/h1-8,15,20H,(H,17,19)

> <Parent_SMILES>
O=C1Nc2ccc(Cl)cc2C(c2ccccc2)=NC1O

$$$$
Molecule 83_metabolite 4
  CDK     0516241031

 32 34  0  0  0  0  0  0  0  0999 V2000
   -2.0111    4.4962    0.0000 C   0  0  0  0  0  0  0  0  0  0  0  0
   -3.4398    4.0394    0.0000 H   0  0  0  0  0  0  0  0  0  0  0  0
   -1.7047    5.9389    0.0000 C   0  0  0  0  0  0  0  0  0  0  0  0
   -2.8229    6.9387    0.0000 H   0  0  0  0  0  0  0  0  0  0  0  0
   -0.2392    6.4262    0.0000 C   0  0  0  0  0  0  0  0  0  0  0  0
    0.8658    5.4118    0.0000 C   0  0  0  0  0  0  0  0  0  0  0  0
    2.3004    5.8497    0.0000 H   0  0  0  0  0  0  0  0  0  0  0  0
    0.5053    3.9101    0.0000 C   0  0  0  0  0  0  0  0  0  0  0  0
    1.9461    2.5520    0.0000 H   0  0  0  0  0  0  0  0  0  0  0  0
   -0.9061    3.4818    0.0000 C   0  0  0  0  0  0  0  0  0  0  0  0
   -1.3459    1.5512    0.0000 C   0  0  0  0  0  0  0  0  0  0  0  0
   -2.8059    1.2112    0.0000 N   0  0  0  0  0  0  0  0  0  0  0  0
   -3.4559   -0.1388    0.0000 C   0  0  0  0  0  0  0  0  0  0  0  0
   -4.6287    0.7964    0.0000 H   0  0  0  0  0  0  0  0  0  0  0  0
   -2.8059   -1.4888    0.0000 C   0  0  0  0  0  0  0  0  0  0  0  0
   -3.7438   -2.6594    0.0000 O   0  0  0  0  0  0  0  0  0  0  0  0
   -1.3459   -1.8288    0.0000 N   0  0  0  0  0  0  0  0  0  0  0  0
   -1.0127   -3.2913    0.0000 H   0  0  0  0  0  0  0  0  0  0  0  0
   -0.1759   -0.8888    0.0000 C   0  0  0  0  0  0  0  0  0  0  0  0
   -0.1759    0.6112    0.0000 C   0  0  0  0  0  0  0  0  0  0  0  0
    1.1241    1.3612    0.0000 C   0  0  0  0  0  0  0  0  0  0  0  0
    1.1241    2.8612    0.0000 H   0  0  0  0  0  0  0  0  0  0  0  0
    2.4241    0.6112    0.0000 C   0  0  0  0  0  0  0  0  0  0  0  0
    2.4241   -0.8888    0.0000 C   0  0  0  0  0  0  0  0  0  0  0  0
    3.7230   -1.6390    0.0000 H   0  0  0  0  0  0  0  0  0  0  0  0
    1.1241   -1.6388    0.0000 C   0  0  0  0  0  0  0  0  0  0  0  0
    1.1241   -3.1388    0.0000 H   0  0  0  0  0  0  0  0  0  0  0  0
    3.7230    1.3614    0.0000 Cl  0  0  0  0  0  0  0  0  0  0  0  0
   -4.6287   -1.0740    0.0000 O   0  0  0  0  0  0  0  0  0  0  0  0
   -6.0250   -0.5259    0.0000 H   0  0  0  0  0  0  0  0  0  0  0  0
    0.0747    7.8930    0.0000 O   0  0  0  0  0  0  0  0  0  0  0  0
   -1.0386    8.8982    0.0000 H   0  0  0  0  0  0  0  0  0  0  0  0
  1  2  1  0  0  0  0 
  1  3  2  0  0  0  0 
  3  4  1  0  0  0  0 
  3  5  1  0  0  0  0 
  5  6  2  0  0  0  0 
  6  7  1  0  0  0  0 
  6  8  1  0  0  0  0 
  8  9  1  0  0  0  0 
  8 10  2  0  0  0  0 
  1 10  1  0  0  0  0 
 10 11  1  0  0  0  0 
 11 12  2  0  0  0  0 
 12 13  1  0  0  0  0 
 13 14  1  0  0  0  0 
 13 15  1  0  0  0  0 
 15 16  2  0  0  0  0 
 15 17  1  0  0  0  0 
 17 18  1  0  0  0  0 
 17 19  1  0  0  0  0 
 19 20  2  0  0  0  0 
 11 20  1  0  0  0  0 
 20 21  1  0  0  0  0 
 21 22  1  0  0  0  0 
 21 23  2  0  0  0  0 
 23 24  1  0  0  0  0 
 24 25  1  0  0  0  0 
 24 26  2  0  0  0  0 
 19 26  1  0  0  0  0 
 26 27  1  0  0  0  0 
 23 28  1  0  0  0  0 
 13 29  1  0  0  0  0 
 29 30  1  0  0  0  0 
  5 31  1  0  0  0  0 
 31 32  1  0  0  0  0 
M  END
> <Rank>
3

> <Priority_score>
0.29184080859128236

> <Reaction_type>
aromatic_hydroxylation_(para_to_carbon)

> <Parent_ID>
83

> <Parent_InChI>
InChI=1S/C15H11ClN2O2/c16-10-6-7-12-11(8-10)13(9-4-2-1-3-5-9)18-15(20)14(19)17-12/h1-8,15,20H,(H,17,19)

> <Parent_SMILES>
O=C1Nc2ccc(Cl)cc2C(c2ccccc2)=NC1O

$$$$
Molecule 83_metabolite 5
  CDK     0516241031

 36 38  0  0  0  0  0  0  0  0999 V2000
   -2.4428    8.4440    0.0000 C   0  0  0  0  0  0  0  0  0  0  0  0
   -3.5426    9.4640    0.0000 H   0  0  0  0  0  0  0  0  0  0  0  0
   -1.0604    7.8616    0.0000 H   0  0  0  0  0  0  0  0  0  0  0  0
   -1.6293    9.7042    0.0000 H   0  0  0  0  0  0  0  0  0  0  0  0
   -2.7762    6.9815    0.0000 O   0  0  0  0  0  0  0  0  0  0  0  0
   -1.6764    5.9615    0.0000 C   0  0  0  0  0  0  0  0  0  0  0  0
   -0.2423    6.4040    0.0000 C   0  0  0  0  0  0  0  0  0  0  0  0
    0.8586    5.3839    0.0000 C   0  0  0  0  0  0  0  0  0  0  0  0
    2.2917    5.8268    0.0000 H   0  0  0  0  0  0  0  0  0  0  0  0
    0.5254    3.9214    0.0000 C   0  0  0  0  0  0  0  0  0  0  0  0
    1.9771    2.5750    0.0000 H   0  0  0  0  0  0  0  0  0  0  0  0
   -0.9087    3.4789    0.0000 C   0  0  0  0  0  0  0  0  0  0  0  0
   -2.0096    4.4990    0.0000 C   0  0  0  0  0  0  0  0  0  0  0  0
   -3.4428    4.0561    0.0000 H   0  0  0  0  0  0  0  0  0  0  0  0
   -1.3486    1.5484    0.0000 C   0  0  0  0  0  0  0  0  0  0  0  0
   -2.8086    1.2084    0.0000 N   0  0  0  0  0  0  0  0  0  0  0  0
   -3.4586   -0.1416    0.0000 C   0  0  0  0  0  0  0  0  0  0  0  0
   -4.6313    0.7936    0.0000 H   0  0  0  0  0  0  0  0  0  0  0  0
   -2.8086   -1.4916    0.0000 C   0  0  0  0  0  0  0  0  0  0  0  0
   -3.7464   -2.6623    0.0000 O   0  0  0  0  0  0  0  0  0  0  0  0
   -1.3486   -1.8316    0.0000 N   0  0  0  0  0  0  0  0  0  0  0  0
   -1.0154   -3.2941    0.0000 H   0  0  0  0  0  0  0  0  0  0  0  0
   -0.1786   -0.8916    0.0000 C   0  0  0  0  0  0  0  0  0  0  0  0
   -0.1786    0.6084    0.0000 C   0  0  0  0  0  0  0  0  0  0  0  0
    1.1214    1.3584    0.0000 C   0  0  0  0  0  0  0  0  0  0  0  0
    1.1214    2.8584    0.0000 H   0  0  0  0  0  0  0  0  0  0  0  0
    2.4214    0.6084    0.0000 C   0  0  0  0  0  0  0  0  0  0  0  0
    2.4214   -0.8916    0.0000 C   0  0  0  0  0  0  0  0  0  0  0  0
    3.7204   -1.6418    0.0000 H   0  0  0  0  0  0  0  0  0  0  0  0
    1.1214   -1.6416    0.0000 C   0  0  0  0  0  0  0  0  0  0  0  0
    1.1214   -3.1416    0.0000 H   0  0  0  0  0  0  0  0  0  0  0  0
    3.7204    1.3586    0.0000 Cl  0  0  0  0  0  0  0  0  0  0  0  0
   -4.6313   -1.0768    0.0000 O   0  0  0  0  0  0  0  0  0  0  0  0
   -6.0276   -0.5288    0.0000 H   0  0  0  0  0  0  0  0  0  0  0  0
    0.0909    7.8665    0.0000 O   0  0  0  0  0  0  0  0  0  0  0  0
   -1.0091    8.8863    0.0000 H   0  0  0  0  0  0  0  0  0  0  0  0
  1  2  1  0  0  0  0 
  1  3  1  0  0  0  0 
  1  4  1  0  0  0  0 
  1  5  1  0  0  0  0 
  5  6  1  0  0  0  0 
  6  7  2  0  0  0  0 
  7  8  1  0  0  0  0 
  8  9  1  0  0  0  0 
  8 10  2  0  0  0  0 
 10 11  1  0  0  0  0 
 10 12  1  0  0  0  0 
 12 13  2  0  0  0  0 
  6 13  1  0  0  0  0 
 13 14  1  0  0  0  0 
 12 15  1  0  0  0  0 
 15 16  2  0  0  0  0 
 16 17  1  0  0  0  0 
 17 18  1  0  0  0  0 
 17 19  1  0  0  0  0 
 19 20  2  0  0  0  0 
 19 21  1  0  0  0  0 
 21 22  1  0  0  0  0 
 21 23  1  0  0  0  0 
 23 24  2  0  0  0  0 
 15 24  1  0  0  0  0 
 24 25  1  0  0  0  0 
 25 26  1  0  0  0  0 
 25 27  2  0  0  0  0 
 27 28  1  0  0  0  0 
 28 29  1  0  0  0  0 
 28 30  2  0  0  0  0 
 23 30  1  0  0  0  0 
 30 31  1  0  0  0  0 
 27 32  1  0  0  0  0 
 17 33  1  0  0  0  0 
 33 34  1  0  0  0  0 
  7 35  1  0  0  0  0 
 35 36  1  0  0  0  0 
M  END
> <Rank>
3

> <Priority_score>
0.29184080859128236

> <Reaction_type>
aromatic_oxidation

> <Parent_ID>
83

> <Parent_InChI>
InChI=1S/C15H11ClN2O2/c16-10-6-7-12-11(8-10)13(9-4-2-1-3-5-9)18-15(20)14(19)17-12/h1-8,15,20H,(H,17,19)

> <Parent_SMILES>
O=C1Nc2ccc(Cl)cc2C(c2ccccc2)=NC1O

$$$$
Molecule 83_metabolite 6
  CDK     0516241031

 32 34  0  0  0  0  0  0  0  0999 V2000
   -0.2423    6.4040    0.0000 C   0  0  0  0  0  0  0  0  0  0  0  0
    0.0909    7.8665    0.0000 H   0  0  0  0  0  0  0  0  0  0  0  0
   -1.6764    5.9615    0.0000 C   0  0  0  0  0  0  0  0  0  0  0  0
   -2.7762    6.9815    0.0000 H   0  0  0  0  0  0  0  0  0  0  0  0
   -2.0096    4.4990    0.0000 C   0  0  0  0  0  0  0  0  0  0  0  0
   -3.4428    4.0561    0.0000 H   0  0  0  0  0  0  0  0  0  0  0  0
   -0.9087    3.4789    0.0000 C   0  0  0  0  0  0  0  0  0  0  0  0
    0.5254    3.9214    0.0000 C   0  0  0  0  0  0  0  0  0  0  0  0
    1.9771    2.5750    0.0000 H   0  0  0  0  0  0  0  0  0  0  0  0
    0.8586    5.3839    0.0000 C   0  0  0  0  0  0  0  0  0  0  0  0
    2.2917    5.8268    0.0000 H   0  0  0  0  0  0  0  0  0  0  0  0
   -1.3486    1.5484    0.0000 C   0  0  0  0  0  0  0  0  0  0  0  0
   -2.8086    1.2084    0.0000 N   0  0  0  0  0  0  0  0  0  0  0  0
   -3.4586   -0.1416    0.0000 C   0  0  0  0  0  0  0  0  0  0  0  0
   -4.6313    0.7936    0.0000 H   0  0  0  0  0  0  0  0  0  0  0  0
   -2.8086   -1.4916    0.0000 C   0  0  0  0  0  0  0  0  0  0  0  0
   -3.7464   -2.6623    0.0000 O   0  0  0  0  0  0  0  0  0  0  0  0
   -1.3486   -1.8316    0.0000 N   0  0  0  0  0  0  0  0  0  0  0  0
   -1.0154   -3.2941    0.0000 H   0  0  0  0  0  0  0  0  0  0  0  0
   -0.1786   -0.8916    0.0000 C   0  0  0  0  0  0  0  0  0  0  0  0
   -0.1786    0.6084    0.0000 C   0  0  0  0  0  0  0  0  0  0  0  0
    1.1214    1.3584    0.0000 C   0  0  0  0  0  0  0  0  0  0  0  0
    1.1214    2.8584    0.0000 H   0  0  0  0  0  0  0  0  0  0  0  0
    2.4214    0.6084    0.0000 C   0  0  0  0  0  0  0  0  0  0  0  0
    2.4214   -0.8916    0.0000 C   0  0  0  0  0  0  0  0  0  0  0  0
    3.7204   -1.6418    0.0000 H   0  0  0  0  0  0  0  0  0  0  0  0
    1.1214   -1.6416    0.0000 C   0  0  0  0  0  0  0  0  0  0  0  0
    1.1214   -3.1416    0.0000 O   0  0  0  0  0  0  0  0  0  0  0  0
    2.4205   -3.8916    0.0000 H   0  0  0  0  0  0  0  0  0  0  0  0
    3.7204    1.3586    0.0000 Cl  0  0  0  0  0  0  0  0  0  0  0  0
   -4.6313   -1.0768    0.0000 O   0  0  0  0  0  0  0  0  0  0  0  0
   -6.0276   -0.5288    0.0000 H   0  0  0  0  0  0  0  0  0  0  0  0
  1  2  1  0  0  0  0 
  1  3  2  0  0  0  0 
  3  4  1  0  0  0  0 
  3  5  1  0  0  0  0 
  5  6  1  0  0  0  0 
  5  7  2  0  0  0  0 
  7  8  1  0  0  0  0 
  8  9  1  0  0  0  0 
  8 10  2  0  0  0  0 
  1 10  1  0  0  0  0 
 10 11  1  0  0  0  0 
  7 12  1  0  0  0  0 
 12 13  2  0  0  0  0 
 13 14  1  0  0  0  0 
 14 15  1  0  0  0  0 
 14 16  1  0  0  0  0 
 16 17  2  0  0  0  0 
 16 18  1  0  0  0  0 
 18 19  1  0  0  0  0 
 18 20  1  0  0  0  0 
 20 21  2  0  0  0  0 
 12 21  1  0  0  0  0 
 21 22  1  0  0  0  0 
 22 23  1  0  0  0  0 
 22 24  2  0  0  0  0 
 24 25  1  0  0  0  0 
 25 26  1  0  0  0  0 
 25 27  2  0  0  0  0 
 20 27  1  0  0  0  0 
 27 28  1  0  0  0  0 
 28 29  1  0  0  0  0 
 24 30  1  0  0  0  0 
 14 31  1  0  0  0  0 
 31 32  1  0  0  0  0 
M  END
> <Rank>
6

> <Priority_score>
0.26

> <Reaction_type>
aromatic_hydroxylation_(ortho_to_nitrogen)

> <Parent_ID>
83

> <Parent_InChI>
InChI=1S/C15H11ClN2O2/c16-10-6-7-12-11(8-10)13(9-4-2-1-3-5-9)18-15(20)14(19)17-12/h1-8,15,20H,(H,17,19)

> <Parent_SMILES>
O=C1Nc2ccc(Cl)cc2C(c2ccccc2)=NC1O

$$$$
Molecule 83_metabolite 7
  CDK     0516241031

 32 34  0  0  0  0  0  0  0  0999 V2000
   -0.2423    6.4040    0.0000 C   0  0  0  0  0  0  0  0  0  0  0  0
    0.0909    7.8665    0.0000 H   0  0  0  0  0  0  0  0  0  0  0  0
   -1.6764    5.9615    0.0000 C   0  0  0  0  0  0  0  0  0  0  0  0
   -2.7762    6.9815    0.0000 H   0  0  0  0  0  0  0  0  0  0  0  0
   -2.0096    4.4990    0.0000 C   0  0  0  0  0  0  0  0  0  0  0  0
   -3.4428    4.0561    0.0000 H   0  0  0  0  0  0  0  0  0  0  0  0
   -0.9087    3.4789    0.0000 C   0  0  0  0  0  0  0  0  0  0  0  0
    0.5254    3.9214    0.0000 C   0  0  0  0  0  0  0  0  0  0  0  0
    1.9771    2.5750    0.0000 H   0  0  0  0  0  0  0  0  0  0  0  0
    0.8586    5.3839    0.0000 C   0  0  0  0  0  0  0  0  0  0  0  0
    2.2917    5.8268    0.0000 H   0  0  0  0  0  0  0  0  0  0  0  0
   -1.3486    1.5484    0.0000 C   0  0  0  0  0  0  0  0  0  0  0  0
   -2.8086    1.2084    0.0000 N   0  0  0  0  0  0  0  0  0  0  0  0
   -3.4586   -0.1416    0.0000 C   0  0  0  0  0  0  0  0  0  0  0  0
   -4.6313    0.7936    0.0000 H   0  0  0  0  0  0  0  0  0  0  0  0
   -2.8086   -1.4916    0.0000 C   0  0  0  0  0  0  0  0  0  0  0  0
   -3.7464   -2.6623    0.0000 O   0  0  0  0  0  0  0  0  0  0  0  0
   -1.3486   -1.8316    0.0000 N   0  0  0  0  0  0  0  0  0  0  0  0
   -1.0154   -3.2941    0.0000 H   0  0  0  0  0  0  0  0  0  0  0  0
   -0.1786   -0.8916    0.0000 C   0  0  0  0  0  0  0  0  0  0  0  0
   -0.1786    0.6084    0.0000 C   0  0  0  0  0  0  0  0  0  0  0  0
    1.1214    1.3584    0.0000 C   0  0  0  0  0  0  0  0  0  0  0  0
    1.1214    2.8584    0.0000 H   0  0  0  0  0  0  0  0  0  0  0  0
    2.4214    0.6084    0.0000 C   0  0  0  0  0  0  0  0  0  0  0  0
    2.4214   -0.8916    0.0000 C   0  0  0  0  0  0  0  0  0  0  0  0
    1.1214   -1.6416    0.0000 C   0  0  0  0  0  0  0  0  0  0  0  0
    1.1214   -3.1416    0.0000 H   0  0  0  0  0  0  0  0  0  0  0  0
    3.7204   -1.6418    0.0000 O   0  0  0  0  0  0  0  0  0  0  0  0
    3.7201   -3.1418    0.0000 H   0  0  0  0  0  0  0  0  0  0  0  0
    3.7204    1.3586    0.0000 Cl  0  0  0  0  0  0  0  0  0  0  0  0
   -4.6313   -1.0768    0.0000 O   0  0  0  0  0  0  0  0  0  0  0  0
   -6.0276   -0.5288    0.0000 H   0  0  0  0  0  0  0  0  0  0  0  0
  1  2  1  0  0  0  0 
  1  3  2  0  0  0  0 
  3  4  1  0  0  0  0 
  3  5  1  0  0  0  0 
  5  6  1  0  0  0  0 
  5  7  2  0  0  0  0 
  7  8  1  0  0  0  0 
  8  9  1  0  0  0  0 
  8 10  2  0  0  0  0 
  1 10  1  0  0  0  0 
 10 11  1  0  0  0  0 
  7 12  1  0  0  0  0 
 12 13  2  0  0  0  0 
 13 14  1  0  0  0  0 
 14 15  1  0  0  0  0 
 14 16  1  0  0  0  0 
 16 17  2  0  0  0  0 
 16 18  1  0  0  0  0 
 18 19  1  0  0  0  0 
 18 20  1  0  0  0  0 
 20 21  2  0  0  0  0 
 12 21  1  0  0  0  0 
 21 22  1  0  0  0  0 
 22 23  1  0  0  0  0 
 22 24  2  0  0  0  0 
 24 25  1  0  0  0  0 
 25 26  2  0  0  0  0 
 20 26  1  0  0  0  0 
 26 27  1  0  0  0  0 
 25 28  1  0  0  0  0 
 28 29  1  0  0  0  0 
 24 30  1  0  0  0  0 
 14 31  1  0  0  0  0 
 31 32  1  0  0  0  0 
M  END
> <Rank>
6

> <Priority_score>
0.26

> <Reaction_type>
aromatic_hydroxylation_(para_to_carbon)

> <Parent_ID>
83

> <Parent_InChI>
InChI=1S/C15H11ClN2O2/c16-10-6-7-12-11(8-10)13(9-4-2-1-3-5-9)18-15(20)14(19)17-12/h1-8,15,20H,(H,17,19)

> <Parent_SMILES>
O=C1Nc2ccc(Cl)cc2C(c2ccccc2)=NC1O

$$$$
Molecule 83_metabolite 8
  CDK     0516241031

 29 31  0  0  0  0  0  0  0  0999 V2000
   -0.1357    6.8720    0.0000 C   0  0  0  0  0  0  0  0  0  0  0  0
    0.1975    8.3345    0.0000 H   0  0  0  0  0  0  0  0  0  0  0  0
   -1.5698    6.4295    0.0000 C   0  0  0  0  0  0  0  0  0  0  0  0
   -2.6696    7.4495    0.0000 H   0  0  0  0  0  0  0  0  0  0  0  0
   -1.9030    4.9670    0.0000 C   0  0  0  0  0  0  0  0  0  0  0  0
   -3.3361    4.5241    0.0000 H   0  0  0  0  0  0  0  0  0  0  0  0
   -0.8021    3.9469    0.0000 C   0  0  0  0  0  0  0  0  0  0  0  0
    0.6320    4.3894    0.0000 C   0  0  0  0  0  0  0  0  0  0  0  0
    2.0838    3.0430    0.0000 H   0  0  0  0  0  0  0  0  0  0  0  0
    0.9652    5.8519    0.0000 C   0  0  0  0  0  0  0  0  0  0  0  0
    2.3984    6.2948    0.0000 H   0  0  0  0  0  0  0  0  0  0  0  0
   -1.2419    2.0164    0.0000 C   0  0  0  0  0  0  0  0  0  0  0  0
   -2.7019    1.6764    0.0000 N   0  0  0  0  0  0  0  0  0  0  0  0
   -3.3519    0.3264    0.0000 C   0  0  0  0  0  0  0  0  0  0  0  0
   -4.8519    0.3264    0.0000 O   0  0  0  0  0  0  0  0  0  0  0  0
   -2.7019   -1.0236    0.0000 C   0  0  0  0  0  0  0  0  0  0  0  0
   -3.6398   -2.1942    0.0000 O   0  0  0  0  0  0  0  0  0  0  0  0
   -1.2419   -1.3636    0.0000 N   0  0  0  0  0  0  0  0  0  0  0  0
   -0.9087   -2.8261    0.0000 H   0  0  0  0  0  0  0  0  0  0  0  0
   -0.0719   -0.4236    0.0000 C   0  0  0  0  0  0  0  0  0  0  0  0
   -0.0719    1.0764    0.0000 C   0  0  0  0  0  0  0  0  0  0  0  0
    1.2281    1.8264    0.0000 C   0  0  0  0  0  0  0  0  0  0  0  0
    1.2281    3.3264    0.0000 H   0  0  0  0  0  0  0  0  0  0  0  0
    2.5281    1.0764    0.0000 C   0  0  0  0  0  0  0  0  0  0  0  0
    2.5281   -0.4236    0.0000 C   0  0  0  0  0  0  0  0  0  0  0  0
    3.8270   -1.1738    0.0000 H   0  0  0  0  0  0  0  0  0  0  0  0
    1.2281   -1.1736    0.0000 C   0  0  0  0  0  0  0  0  0  0  0  0
    1.2281   -2.6736    0.0000 H   0  0  0  0  0  0  0  0  0  0  0  0
    3.8270    1.8266    0.0000 Cl  0  0  0  0  0  0  0  0  0  0  0  0
  1  2  1  0  0  0  0 
  1  3  2  0  0  0  0 
  3  4  1  0  0  0  0 
  3  5  1  0  0  0  0 
  5  6  1  0  0  0  0 
  5  7  2  0  0  0  0 
  7  8  1  0  0  0  0 
  8  9  1  0  0  0  0 
  8 10  2  0  0  0  0 
  1 10  1  0  0  0  0 
 10 11  1  0  0  0  0 
  7 12  1  0  0  0  0 
 12 13  2  0  0  0  0 
 13 14  1  0  0  0  0 
 14 15  2  0  0  0  0 
 14 16  1  0  0  0  0 
 16 17  2  0  0  0  0 
 16 18  1  0  0  0  0 
 18 19  1  0  0  0  0 
 18 20  1  0  0  0  0 
 20 21  2  0  0  0  0 
 12 21  1  0  0  0  0 
 21 22  1  0  0  0  0 
 22 23  1  0  0  0  0 
 22 24  2  0  0  0  0 
 24 25  1  0  0  0  0 
 25 26  1  0  0  0  0 
 25 27  2  0  0  0  0 
 20 27  1  0  0  0  0 
 27 28  1  0  0  0  0 
 24 29  1  0  0  0  0 
M  END
> <Rank>
8

> <Priority_score>
0.24

> <Reaction_type>
alcohol oxidation

> <Parent_ID>
83

> <Parent_InChI>
InChI=1S/C15H11ClN2O2/c16-10-6-7-12-11(8-10)13(9-4-2-1-3-5-9)18-15(20)14(19)17-12/h1-8,15,20H,(H,17,19)

> <Parent_SMILES>
O=C1Nc2ccc(Cl)cc2C(c2ccccc2)=NC1O

$$$$
Molecule 83_metabolite 9
  CDK     0516241031

 32 33  0  0  0  0  0  0  0  0999 V2000
    5.4113    2.2771    0.0000 C   0  0  0  0  0  0  0  0  0  0  0  0
    6.9113    2.2771    0.0000 H   0  0  0  0  0  0  0  0  0  0  0  0
    4.6613    0.9771    0.0000 C   0  0  0  0  0  0  0  0  0  0  0  0
    5.4115   -0.3218    0.0000 H   0  0  0  0  0  0  0  0  0  0  0  0
    3.1613    0.9771    0.0000 C   0  0  0  0  0  0  0  0  0  0  0  0
    2.4111   -0.3218    0.0000 H   0  0  0  0  0  0  0  0  0  0  0  0
    2.4113    2.2771    0.0000 C   0  0  0  0  0  0  0  0  0  0  0  0
    3.1613    3.5771    0.0000 C   0  0  0  0  0  0  0  0  0  0  0  0
    2.4111    4.8760    0.0000 H   0  0  0  0  0  0  0  0  0  0  0  0
    4.6613    3.5771    0.0000 C   0  0  0  0  0  0  0  0  0  0  0  0
    5.4115    4.8760    0.0000 H   0  0  0  0  0  0  0  0  0  0  0  0
    0.9113    2.2771    0.0000 C   0  0  0  0  0  0  0  0  0  0  0  0
    0.3983    3.6866    0.0000 N   0  0  0  0  0  0  0  0  0  0  0  0
   -1.0789    3.9471    0.0000 H   0  0  0  0  0  0  0  0  0  0  0  0
   -0.3187    0.1467    0.0000 C   0  0  0  0  0  0  0  0  0  0  0  0
    0.4315   -1.1532    0.0000 C   0  0  0  0  0  0  0  0  0  0  0  0
    1.9088   -1.4134    0.0000 H   0  0  0  0  0  0  0  0  0  0  0  0
   -0.3183   -2.4533    0.0000 C   0  0  0  0  0  0  0  0  0  0  0  0
   -1.8183   -2.4536    0.0000 C   0  0  0  0  0  0  0  0  0  0  0  0
   -2.5683   -3.7526    0.0000 H   0  0  0  0  0  0  0  0  0  0  0  0
   -2.5685   -1.1537    0.0000 C   0  0  0  0  0  0  0  0  0  0  0  0
   -4.0685   -1.1539    0.0000 H   0  0  0  0  0  0  0  0  0  0  0  0
   -1.8187    0.1464    0.0000 C   0  0  0  0  0  0  0  0  0  0  0  0
   -2.5691    1.4452    0.0000 N   0  0  0  0  0  0  0  0  0  0  0  0
   -1.8195    2.7445    0.0000 H   0  0  0  0  0  0  0  0  0  0  0  0
   -4.0691    1.4448    0.0000 C   0  0  0  0  0  0  0  0  0  0  0  0
   -4.8187    0.1455    0.0000 O   0  0  0  0  0  0  0  0  0  0  0  0
   -4.8195    2.7436    0.0000 C   0  0  0  0  0  0  0  0  0  0  0  0
   -4.0699    4.0428    0.0000 O   0  0  0  0  0  0  0  0  0  0  0  0
   -6.3195    2.7431    0.0000 O   0  0  0  0  0  0  0  0  0  0  0  0
   -7.0699    4.0419    0.0000 H   0  0  0  0  0  0  0  0  0  0  0  0
    0.4321   -3.7521    0.0000 Cl  0  0  0  0  0  0  0  0  0  0  0  0
  1  2  1  0  0  0  0 
  1  3  2  0  0  0  0 
  3  4  1  0  0  0  0 
  3  5  1  0  0  0  0 
  5  6  1  0  0  0  0 
  5  7  2  0  0  0  0 
  7  8  1  0  0  0  0 
  8  9  1  0  0  0  0 
  8 10  2  0  0  0  0 
  1 10  1  0  0  0  0 
 10 11  1  0  0  0  0 
  7 12  1  0  0  0  0 
 12 13  2  0  0  0  0 
 13 14  1  4  0  0  0 
 12 15  1  0  0  0  0 
 15 16  2  0  0  0  0 
 16 17  1  0  0  0  0 
 16 18  1  0  0  0  0 
 18 19  2  0  0  0  0 
 19 20  1  0  0  0  0 
 19 21  1  0  0  0  0 
 21 22  1  0  0  0  0 
 21 23  2  0  0  0  0 
 15 23  1  0  0  0  0 
 23 24  1  0  0  0  0 
 24 25  1  0  0  0  0 
 24 26  1  0  0  0  0 
 26 27  2  0  0  0  0 
 26 28  1  0  0  0  0 
 28 29  2  0  0  0  0 
 28 30  1  0  0  0  0 
 30 31  1  0  0  0  0 
 18 32  1  0  0  0  0 
M  END
> <Rank>
8

> <Priority_score>
0.24

> <Reaction_type>
N-dealkylation

> <Parent_ID>
83

> <Parent_InChI>
InChI=1S/C15H11ClN2O2/c16-10-6-7-12-11(8-10)13(9-4-2-1-3-5-9)18-15(20)14(19)17-12/h1-8,15,20H,(H,17,19)

> <Parent_SMILES>
O=C1Nc2ccc(Cl)cc2C(c2ccccc2)=NC1O

$$$$
Molecule 83_metabolite 10
  CDK     0516241031

 32 34  0  0  0  0  0  0  0  0999 V2000
   -0.2423    6.4040    0.0000 C   0  0  0  0  0  0  0  0  0  0  0  0
    0.0909    7.8665    0.0000 H   0  0  0  0  0  0  0  0  0  0  0  0
   -1.6764    5.9615    0.0000 C   0  0  0  0  0  0  0  0  0  0  0  0
   -2.7762    6.9815    0.0000 H   0  0  0  0  0  0  0  0  0  0  0  0
   -2.0096    4.4990    0.0000 C   0  0  0  0  0  0  0  0  0  0  0  0
   -3.4428    4.0561    0.0000 H   0  0  0  0  0  0  0  0  0  0  0  0
   -0.9087    3.4789    0.0000 C   0  0  0  0  0  0  0  0  0  0  0  0
    0.5254    3.9214    0.0000 C   0  0  0  0  0  0  0  0  0  0  0  0
    1.9771    2.5750    0.0000 H   0  0  0  0  0  0  0  0  0  0  0  0
    0.8586    5.3839    0.0000 C   0  0  0  0  0  0  0  0  0  0  0  0
    2.2917    5.8268    0.0000 H   0  0  0  0  0  0  0  0  0  0  0  0
   -1.3486    1.5484    0.0000 C   0  0  0  0  0  0  0  0  0  0  0  0
   -2.8086    1.2084    0.0000 N   0  0  0  0  0  0  0  0  0  0  0  0
   -3.4586   -0.1416    0.0000 C   0  0  0  0  0  0  0  0  0  0  0  0
   -2.8086   -1.4916    0.0000 C   0  0  0  0  0  0  0  0  0  0  0  0
   -3.7464   -2.6623    0.0000 O   0  0  0  0  0  0  0  0  0  0  0  0
   -1.3486   -1.8316    0.0000 N   0  0  0  0  0  0  0  0  0  0  0  0
   -1.0154   -3.2941    0.0000 H   0  0  0  0  0  0  0  0  0  0  0  0
   -0.1786   -0.8916    0.0000 C   0  0  0  0  0  0  0  0  0  0  0  0
   -0.1786    0.6084    0.0000 C   0  0  0  0  0  0  0  0  0  0  0  0
    1.1214    1.3584    0.0000 C   0  0  0  0  0  0  0  0  0  0  0  0
    1.1214    2.8584    0.0000 H   0  0  0  0  0  0  0  0  0  0  0  0
    2.4214    0.6084    0.0000 C   0  0  0  0  0  0  0  0  0  0  0  0
    2.4214   -0.8916    0.0000 C   0  0  0  0  0  0  0  0  0  0  0  0
    3.7204   -1.6418    0.0000 H   0  0  0  0  0  0  0  0  0  0  0  0
    1.1214   -1.6416    0.0000 C   0  0  0  0  0  0  0  0  0  0  0  0
    1.1214   -3.1416    0.0000 H   0  0  0  0  0  0  0  0  0  0  0  0
    3.7204    1.3586    0.0000 Cl  0  0  0  0  0  0  0  0  0  0  0  0
   -4.6313    0.7936    0.0000 O   0  0  0  0  0  0  0  0  0  0  0  0
   -6.0276    0.2456    0.0000 H   0  0  0  0  0  0  0  0  0  0  0  0
   -4.6313   -1.0768    0.0000 O   0  0  0  0  0  0  0  0  0  0  0  0
   -6.0276   -0.5288    0.0000 H   0  0  0  0  0  0  0  0  0  0  0  0
  1  2  1  0  0  0  0 
  1  3  2  0  0  0  0 
  3  4  1  0  0  0  0 
  3  5  1  0  0  0  0 
  5  6  1  0  0  0  0 
  5  7  2  0  0  0  0 
  7  8  1  0  0  0  0 
  8  9  1  0  0  0  0 
  8 10  2  0  0  0  0 
  1 10  1  0  0  0  0 
 10 11  1  0  0  0  0 
  7 12  1  0  0  0  0 
 12 13  2  0  0  0  0 
 13 14  1  0  0  0  0 
 14 15  1  0  0  0  0 
 15 16  2  0  0  0  0 
 15 17  1  0  0  0  0 
 17 18  1  0  0  0  0 
 17 19  1  0  0  0  0 
 19 20  2  0  0  0  0 
 12 20  1  0  0  0  0 
 20 21  1  0  0  0  0 
 21 22  1  0  0  0  0 
 21 23  2  0  0  0  0 
 23 24  1  0  0  0  0 
 24 25  1  0  0  0  0 
 24 26  2  0  0  0  0 
 19 26  1  0  0  0  0 
 26 27  1  0  0  0  0 
 23 28  1  0  0  0  0 
 14 29  1  0  0  0  0 
 29 30  1  0  0  0  0 
 14 31  1  0  0  0  0 
 31 32  1  0  0  0  0 
M  END
> <Rank>
8

> <Priority_score>
0.24

> <Reaction_type>
aliphatic hydroxylation

> <Parent_ID>
83

> <Parent_InChI>
InChI=1S/C15H11ClN2O2/c16-10-6-7-12-11(8-10)13(9-4-2-1-3-5-9)18-15(20)14(19)17-12/h1-8,15,20H,(H,17,19)

> <Parent_SMILES>
O=C1Nc2ccc(Cl)cc2C(c2ccccc2)=NC1O

$$$$
Molecule 83_metabolite 11
  CDK     0516241031

 32 34  0  0  0  0  0  0  0  0999 V2000
   -0.2423    6.4040    0.0000 C   0  0  0  0  0  0  0  0  0  0  0  0
    0.0909    7.8665    0.0000 H   0  0  0  0  0  0  0  0  0  0  0  0
   -1.6764    5.9615    0.0000 C   0  0  0  0  0  0  0  0  0  0  0  0
   -2.7762    6.9815    0.0000 H   0  0  0  0  0  0  0  0  0  0  0  0
   -2.0096    4.4990    0.0000 C   0  0  0  0  0  0  0  0  0  0  0  0
   -3.4428    4.0561    0.0000 H   0  0  0  0  0  0  0  0  0  0  0  0
   -0.9087    3.4789    0.0000 C   0  0  0  0  0  0  0  0  0  0  0  0
    0.5254    3.9214    0.0000 C   0  0  0  0  0  0  0  0  0  0  0  0
    1.9771    2.5750    0.0000 H   0  0  0  0  0  0  0  0  0  0  0  0
    0.8586    5.3839    0.0000 C   0  0  0  0  0  0  0  0  0  0  0  0
    2.2917    5.8268    0.0000 H   0  0  0  0  0  0  0  0  0  0  0  0
   -1.3486    1.5484    0.0000 C   0  0  0  0  0  0  0  0  0  0  0  0
   -2.8086    1.2084    0.0000 N   0  0  0  0  0  0  0  0  0  0  0  0
   -3.4586   -0.1416    0.0000 C   0  0  0  0  0  0  0  0  0  0  0  0
   -4.6313    0.7936    0.0000 H   0  0  0  0  0  0  0  0  0  0  0  0
   -2.8086   -1.4916    0.0000 C   0  0  0  0  0  0  0  0  0  0  0  0
   -3.7464   -2.6623    0.0000 O   0  0  0  0  0  0  0  0  0  0  0  0
   -1.3486   -1.8316    0.0000 N   0  0  0  0  0  0  0  0  0  0  0  0
   -1.0154   -3.2941    0.0000 H   0  0  0  0  0  0  0  0  0  0  0  0
   -0.1786   -0.8916    0.0000 C   0  0  0  0  0  0  0  0  0  0  0  0
   -0.1786    0.6084    0.0000 C   0  0  0  0  0  0  0  0  0  0  0  0
    1.1214    1.3584    0.0000 C   0  0  0  0  0  0  0  0  0  0  0  0
    1.1214    2.8584    0.0000 H   0  0  0  0  0  0  0  0  0  0  0  0
    2.4214    0.6084    0.0000 C   0  0  0  0  0  0  0  0  0  0  0  0
    2.4214   -0.8916    0.0000 C   0  0  0  0  0  0  0  0  0  0  0  0
    3.7204   -1.6418    0.0000 H   0  0  0  0  0  0  0  0  0  0  0  0
    1.1214   -1.6416    0.0000 C   0  0  0  0  0  0  0  0  0  0  0  0
    1.1214   -3.1416    0.0000 H   0  0  0  0  0  0  0  0  0  0  0  0
    3.7204    1.3586    0.0000 Cl  0  0  0  0  0  0  0  0  0  0  0  0
   -4.6313   -1.0768    0.0000 O   0  0  0  0  0  0  0  0  0  0  0  0
   -6.0276   -0.5288    0.0000 H   0  0  0  0  0  0  0  0  0  0  0  0
   -3.7464    2.3790    0.0000 O   0  0  0  0  0  0  0  0  0  0  0  0
  1  2  1  0  0  0  0 
  1  3  2  0  0  0  0 
  3  4  1  0  0  0  0 
  3  5  1  0  0  0  0 
  5  6  1  0  0  0  0 
  5  7  2  0  0  0  0 
  7  8  1  0  0  0  0 
  8  9  1  0  0  0  0 
  8 10  2  0  0  0  0 
  1 10  1  0  0  0  0 
 10 11  1  0  0  0  0 
  7 12  1  0  0  0  0 
 12 13  2  0  0  0  0 
 13 14  1  0  0  0  0 
 14 15  1  0  0  0  0 
 14 16  1  0  0  0  0 
 16 17  2  0  0  0  0 
 16 18  1  0  0  0  0 
 18 19  1  0  0  0  0 
 18 20  1  0  0  0  0 
 20 21  2  0  0  0  0 
 12 21  1  0  0  0  0 
 21 22  1  0  0  0  0 
 22 23  1  0  0  0  0 
 22 24  2  0  0  0  0 
 24 25  1  0  0  0  0 
 25 26  1  0  0  0  0 
 25 27  2  0  0  0  0 
 20 27  1  0  0  0  0 
 27 28  1  0  0  0  0 
 24 29  1  0  0  0  0 
 14 30  1  0  0  0  0 
 30 31  1  0  0  0  0 
 13 32  1  0  0  0  0 
M  CHG  1  13   1
M  CHG  1  32  -1
M  END
> <Rank>
8

> <Priority_score>
0.24

> <Reaction_type>
N-oxidation_(-N=)

> <Parent_ID>
83

> <Parent_InChI>
InChI=1S/C15H11ClN2O2/c16-10-6-7-12-11(8-10)13(9-4-2-1-3-5-9)18-15(20)14(19)17-12/h1-8,15,20H,(H,17,19)

> <Parent_SMILES>
O=C1Nc2ccc(Cl)cc2C(c2ccccc2)=NC1O

$$$$
Molecule 83_metabolite 12
  CDK     0516241031

 34 35  0  0  0  0  0  0  0  0999 V2000
    4.2091   -0.9703    0.0000 C   0  0  0  0  0  0  0  0  0  0  0  0
    5.5081   -1.7203    0.0000 H   0  0  0  0  0  0  0  0  0  0  0  0
    4.2095    0.5305    0.0000 C   0  0  0  0  0  0  0  0  0  0  0  0
    5.5087    1.2803    0.0000 H   0  0  0  0  0  0  0  0  0  0  0  0
    2.9105    1.2805    0.0000 C   0  0  0  0  0  0  0  0  0  0  0  0
    2.9103    2.7805    0.0000 H   0  0  0  0  0  0  0  0  0  0  0  0
    1.6110    0.5297    0.0000 C   0  0  0  0  0  0  0  0  0  0  0  0
    1.6105   -0.9711    0.0000 C   0  0  0  0  0  0  0  0  0  0  0  0
    0.3113   -1.7209    0.0000 H   0  0  0  0  0  0  0  0  0  0  0  0
    2.9095   -1.7211    0.0000 C   0  0  0  0  0  0  0  0  0  0  0  0
    2.9098   -3.2211    0.0000 H   0  0  0  0  0  0  0  0  0  0  0  0
   -0.1037    1.5197    0.0000 C   0  0  0  0  0  0  0  0  0  0  0  0
   -1.4028    0.7697    0.0000 N   0  0  0  0  0  0  0  0  0  0  0  0
   -2.7018    1.5197    0.0000 C   0  0  0  0  0  0  0  0  0  0  0  0
   -1.7376    2.6688    0.0000 H   0  0  0  0  0  0  0  0  0  0  0  0
   -4.0009    0.7697    0.0000 C   0  0  0  0  0  0  0  0  0  0  0  0
   -4.0009   -0.7303    0.0000 O   0  0  0  0  0  0  0  0  0  0  0  0
   -5.2999    1.5197    0.0000 O   0  0  0  0  0  0  0  0  0  0  0  0
   -6.5989    0.7697    0.0000 H   0  0  0  0  0  0  0  0  0  0  0  0
   -3.6660    2.6688    0.0000 O   0  0  0  0  0  0  0  0  0  0  0  0
   -5.1432    2.4083    0.0000 H   0  0  0  0  0  0  0  0  0  0  0  0
   -0.1037    3.4997    0.0000 C   0  0  0  0  0  0  0  0  0  0  0  0
   -1.4034    4.2503    0.0000 C   0  0  0  0  0  0  0  0  0  0  0  0
   -2.7023    3.5001    0.0000 H   0  0  0  0  0  0  0  0  0  0  0  0
   -1.4041    5.7511    0.0000 C   0  0  0  0  0  0  0  0  0  0  0  0
   -0.1052    6.5014    0.0000 C   0  0  0  0  0  0  0  0  0  0  0  0
   -0.1052    8.0014    0.0000 H   0  0  0  0  0  0  0  0  0  0  0  0
    1.1945    5.7507    0.0000 C   0  0  0  0  0  0  0  0  0  0  0  0
    2.4934    6.5009    0.0000 H   0  0  0  0  0  0  0  0  0  0  0  0
    1.1952    4.2499    0.0000 C   0  0  0  0  0  0  0  0  0  0  0  0
    2.4945    3.5003    0.0000 N   0  0  0  0  0  0  0  0  0  0  0  0
    3.7933    4.2507    0.0000 H   0  0  0  0  0  0  0  0  0  0  0  0
    1.7449    2.2010    0.0000 H   0  0  0  0  0  0  0  0  0  0  0  0
   -2.7034    6.5007    0.0000 Cl  0  0  0  0  0  0  0  0  0  0  0  0
  1  2  1  0  0  0  0 
  1  3  2  0  0  0  0 
  3  4  1  0  0  0  0 
  3  5  1  0  0  0  0 
  5  6  1  0  0  0  0 
  5  7  2  0  0  0  0 
  7  8  1  0  0  0  0 
  8  9  1  0  0  0  0 
  8 10  2  0  0  0  0 
  1 10  1  0  0  0  0 
 10 11  1  0  0  0  0 
  7 12  1  4  0  0  0 
 12 13  2  0  0  0  0 
 13 14  1  0  0  0  0 
 14 15  1  0  0  0  0 
 14 16  1  0  0  0  0 
 16 17  2  0  0  0  0 
 16 18  1  0  0  0  0 
 18 19  1  0  0  0  0 
 14 20  1  0  0  0  0 
 20 21  1  0  0  0  0 
 12 22  1  0  0  0  0 
 22 23  2  0  0  0  0 
 23 24  1  0  0  0  0 
 23 25  1  0  0  0  0 
 25 26  2  0  0  0  0 
 26 27  1  0  0  0  0 
 26 28  1  0  0  0  0 
 28 29  1  0  0  0  0 
 28 30  2  0  0  0  0 
 22 30  1  0  0  0  0 
 30 31  1  0  0  0  0 
 31 32  1  0  0  0  0 
 31 33  1  0  0  0  0 
 25 34  1  0  0  0  0 
M  END
> <Rank>
12

> <Priority_score>
0.2

> <Reaction_type>
hydrolysis_(secondary_amide)

> <Parent_ID>
83

> <Parent_InChI>
InChI=1S/C15H11ClN2O2/c16-10-6-7-12-11(8-10)13(9-4-2-1-3-5-9)18-15(20)14(19)17-12/h1-8,15,20H,(H,17,19)

> <Parent_SMILES>
O=C1Nc2ccc(Cl)cc2C(c2ccccc2)=NC1O

$$$$
Molecule 83_metabolite 13
  CDK     0516241031

 32 34  0  0  0  0  0  0  0  0999 V2000
   -0.2423    6.4040    0.0000 C   0  0  0  0  0  0  0  0  0  0  0  0
    0.0909    7.8665    0.0000 H   0  0  0  0  0  0  0  0  0  0  0  0
   -1.6764    5.9615    0.0000 C   0  0  0  0  0  0  0  0  0  0  0  0
   -2.7762    6.9815    0.0000 H   0  0  0  0  0  0  0  0  0  0  0  0
   -2.0096    4.4990    0.0000 C   0  0  0  0  0  0  0  0  0  0  0  0
   -3.4428    4.0561    0.0000 H   0  0  0  0  0  0  0  0  0  0  0  0
   -0.9087    3.4789    0.0000 C   0  0  0  0  0  0  0  0  0  0  0  0
    0.5254    3.9214    0.0000 C   0  0  0  0  0  0  0  0  0  0  0  0
    1.9771    2.5750    0.0000 H   0  0  0  0  0  0  0  0  0  0  0  0
    0.8586    5.3839    0.0000 C   0  0  0  0  0  0  0  0  0  0  0  0
    2.2917    5.8268    0.0000 H   0  0  0  0  0  0  0  0  0  0  0  0
   -1.3486    1.5484    0.0000 C   0  0  0  0  0  0  0  0  0  0  0  0
   -2.8086    1.2084    0.0000 N   0  0  0  0  0  0  0  0  0  0  0  0
   -3.4586   -0.1416    0.0000 C   0  0  0  0  0  0  0  0  0  0  0  0
   -4.6313    0.7936    0.0000 H   0  0  0  0  0  0  0  0  0  0  0  0
   -2.8086   -1.4916    0.0000 C   0  0  0  0  0  0  0  0  0  0  0  0
   -3.7464   -2.6623    0.0000 O   0  0  0  0  0  0  0  0  0  0  0  0
   -1.3486   -1.8316    0.0000 N   0  0  0  0  0  0  0  0  0  0  0  0
   -0.1786   -0.8916    0.0000 C   0  0  0  0  0  0  0  0  0  0  0  0
   -0.1786    0.6084    0.0000 C   0  0  0  0  0  0  0  0  0  0  0  0
    1.1214    1.3584    0.0000 C   0  0  0  0  0  0  0  0  0  0  0  0
    1.1214    2.8584    0.0000 H   0  0  0  0  0  0  0  0  0  0  0  0
    2.4214    0.6084    0.0000 C   0  0  0  0  0  0  0  0  0  0  0  0
    2.4214   -0.8916    0.0000 C   0  0  0  0  0  0  0  0  0  0  0  0
    3.7204   -1.6418    0.0000 H   0  0  0  0  0  0  0  0  0  0  0  0
    1.1214   -1.6416    0.0000 C   0  0  0  0  0  0  0  0  0  0  0  0
    1.1214   -3.1416    0.0000 H   0  0  0  0  0  0  0  0  0  0  0  0
    3.7204    1.3586    0.0000 Cl  0  0  0  0  0  0  0  0  0  0  0  0
   -1.0154   -3.2941    0.0000 O   0  0  0  0  0  0  0  0  0  0  0  0
   -2.1153   -4.3140    0.0000 H   0  0  0  0  0  0  0  0  0  0  0  0
   -4.6313   -1.0768    0.0000 O   0  0  0  0  0  0  0  0  0  0  0  0
   -6.0276   -0.5288    0.0000 H   0  0  0  0  0  0  0  0  0  0  0  0
  1  2  1  0  0  0  0 
  1  3  2  0  0  0  0 
  3  4  1  0  0  0  0 
  3  5  1  0  0  0  0 
  5  6  1  0  0  0  0 
  5  7  2  0  0  0  0 
  7  8  1  0  0  0  0 
  8  9  1  0  0  0  0 
  8 10  2  0  0  0  0 
  1 10  1  0  0  0  0 
 10 11  1  0  0  0  0 
  7 12  1  0  0  0  0 
 12 13  2  0  0  0  0 
 13 14  1  0  0  0  0 
 14 15  1  0  0  0  0 
 14 16  1  0  0  0  0 
 16 17  2  0  0  0  0 
 16 18  1  0  0  0  0 
 18 19  1  0  0  0  0 
 19 20  2  0  0  0  0 
 12 20  1  0  0  0  0 
 20 21  1  0  0  0  0 
 21 22  1  0  0  0  0 
 21 23  2  0  0  0  0 
 23 24  1  0  0  0  0 
 24 25  1  0  0  0  0 
 24 26  2  0  0  0  0 
 19 26  1  0  0  0  0 
 26 27  1  0  0  0  0 
 23 28  1  0  0  0  0 
 18 29  1  0  0  0  0 
 29 30  1  0  0  0  0 
 14 31  1  0  0  0  0 
 31 32  1  0  0  0  0 
M  END
> <Rank>
12

> <Priority_score>
0.2

> <Reaction_type>
amine hydroxylation

> <Parent_ID>
83

> <Parent_InChI>
InChI=1S/C15H11ClN2O2/c16-10-6-7-12-11(8-10)13(9-4-2-1-3-5-9)18-15(20)14(19)17-12/h1-8,15,20H,(H,17,19)

> <Parent_SMILES>
O=C1Nc2ccc(Cl)cc2C(c2ccccc2)=NC1O

$$$$
Molecule 83_metabolite 14
  CDK     0516241031

 66 68  0  0  0  0  0  0  0  0999 V2000
    0.1096    6.0776    0.0000 C   0  0  0  0  0  0  0  0  0  0  0  0
    0.4429    7.5401    0.0000 H   0  0  0  0  0  0  0  0  0  0  0  0
   -1.3245    5.6351    0.0000 C   0  0  0  0  0  0  0  0  0  0  0  0
   -2.4243    6.6551    0.0000 H   0  0  0  0  0  0  0  0  0  0  0  0
   -1.6577    4.1726    0.0000 C   0  0  0  0  0  0  0  0  0  0  0  0
   -3.0908    3.7296    0.0000 H   0  0  0  0  0  0  0  0  0  0  0  0
   -0.5568    3.1525    0.0000 C   0  0  0  0  0  0  0  0  0  0  0  0
    0.8773    3.5950    0.0000 C   0  0  0  0  0  0  0  0  0  0  0  0
    1.9771    2.5750    0.0000 H   0  0  0  0  0  0  0  0  0  0  0  0
    1.2106    5.0575    0.0000 C   0  0  0  0  0  0  0  0  0  0  0  0
    2.6437    5.5004    0.0000 H   0  0  0  0  0  0  0  0  0  0  0  0
   -1.1033    0.7540    0.0000 C   0  0  0  0  0  0  0  0  0  0  0  0
   -2.5633    0.4140    0.0000 N   0  0  0  0  0  0  0  0  0  0  0  0
   -3.2133   -0.9360    0.0000 C   0  0  0  0  0  0  0  0  0  0  0  0
   -4.3860   -0.0008    0.0000 H   0  0  0  0  0  0  0  0  0  0  0  0
   -2.5633   -2.2860    0.0000 C   0  0  0  0  0  0  0  0  0  0  0  0
   -3.5011   -3.4567    0.0000 O   0  0  0  0  0  0  0  0  0  0  0  0
   -1.1033   -2.6260    0.0000 N   0  0  0  0  0  0  0  0  0  0  0  0
   -0.7700   -4.0885    0.0000 H   0  0  0  0  0  0  0  0  0  0  0  0
    0.0667   -1.6860    0.0000 C   0  0  0  0  0  0  0  0  0  0  0  0
    0.0667   -0.1860    0.0000 C   0  0  0  0  0  0  0  0  0  0  0  0
    1.3667    0.5640    0.0000 C   0  0  0  0  0  0  0  0  0  0  0  0
    1.3667    2.0640    0.0000 H   0  0  0  0  0  0  0  0  0  0  0  0
    2.6667   -0.1860    0.0000 C   0  0  0  0  0  0  0  0  0  0  0  0
    2.6667   -1.6860    0.0000 C   0  0  0  0  0  0  0  0  0  0  0  0
    3.9657   -2.4362    0.0000 H   0  0  0  0  0  0  0  0  0  0  0  0
    1.3667   -2.4360    0.0000 C   0  0  0  0  0  0  0  0  0  0  0  0
    1.3667   -3.9360    0.0000 H   0  0  0  0  0  0  0  0  0  0  0  0
    3.9657    0.5642    0.0000 S   0  0  0  0  0  0  0  0  0  0  0  0
    5.2648   -0.1856    0.0000 C   0  0  0  0  0  0  0  0  0  0  0  0
    4.3008   -1.3348    0.0000 H   0  0  0  0  0  0  0  0  0  0  0  0
    6.2292   -1.3345    0.0000 H   0  0  0  0  0  0  0  0  0  0  0  0
    6.5637    0.5646    0.0000 C   0  0  0  0  0  0  0  0  0  0  0  0
    7.5277    1.7138    0.0000 H   0  0  0  0  0  0  0  0  0  0  0  0
    5.5994    1.7135    0.0000 C   0  0  0  0  0  0  0  0  0  0  0  0
    4.1222    1.4528    0.0000 O   0  0  0  0  0  0  0  0  0  0  0  0
    6.1122    3.1231    0.0000 N   0  0  0  0  0  0  0  0  0  0  0  0
    7.5893    3.3839    0.0000 H   0  0  0  0  0  0  0  0  0  0  0  0
    5.1478    4.2721    0.0000 C   0  0  0  0  0  0  0  0  0  0  0  0
    4.1838    3.1228    0.0000 H   0  0  0  0  0  0  0  0  0  0  0  0
    3.8487    5.0218    0.0000 H   0  0  0  0  0  0  0  0  0  0  0  0
    5.6606    5.6817    0.0000 C   0  0  0  0  0  0  0  0  0  0  0  0
    7.1378    5.9424    0.0000 O   0  0  0  0  0  0  0  0  0  0  0  0
    4.6962    6.8306    0.0000 O   0  0  0  0  0  0  0  0  0  0  0  0
    5.2091    8.2402    0.0000 H   0  0  0  0  0  0  0  0  0  0  0  0
    7.8629   -0.1852    0.0000 N   0  0  0  0  0  0  0  0  0  0  0  0
    7.8631   -1.6852    0.0000 H   0  0  0  0  0  0  0  0  0  0  0  0
    9.1618    0.5650    0.0000 C   0  0  0  0  0  0  0  0  0  0  0  0
    9.1616    2.0650    0.0000 O   0  0  0  0  0  0  0  0  0  0  0  0
   10.4610   -0.1848    0.0000 C   0  0  0  0  0  0  0  0  0  0  0  0
    9.4970   -1.3340    0.0000 H   0  0  0  0  0  0  0  0  0  0  0  0
   11.4253   -1.3337    0.0000 H   0  0  0  0  0  0  0  0  0  0  0  0
   12.1755    0.8055    0.0000 C   0  0  0  0  0  0  0  0  0  0  0  0
   13.1395    1.9547    0.0000 H   0  0  0  0  0  0  0  0  0  0  0  0
   11.2112    1.9544    0.0000 H   0  0  0  0  0  0  0  0  0  0  0  0
   13.4747    0.0557    0.0000 C   0  0  0  0  0  0  0  0  0  0  0  0
   12.5107   -1.0935    0.0000 H   0  0  0  0  0  0  0  0  0  0  0  0
   14.7736    0.8059    0.0000 C   0  0  0  0  0  0  0  0  0  0  0  0
   14.7734    2.3059    0.0000 O   0  0  0  0  0  0  0  0  0  0  0  0
   16.0728    0.0561    0.0000 O   0  0  0  0  0  0  0  0  0  0  0  0
   17.3717    0.8063    0.0000 H   0  0  0  0  0  0  0  0  0  0  0  0
   14.4391   -1.0932    0.0000 N   0  0  0  0  0  0  0  0  0  0  0  0
   15.9162   -0.8325    0.0000 H   0  0  0  0  0  0  0  0  0  0  0  0
   13.9263   -2.5028    0.0000 H   0  0  0  0  0  0  0  0  0  0  0  0
   -4.3860   -1.8712    0.0000 O   0  0  0  0  0  0  0  0  0  0  0  0
   -5.7823   -1.3232    0.0000 H   0  0  0  0  0  0  0  0  0  0  0  0
  1  2  1  0  0  0  0 
  1  3  2  0  0  0  0 
  3  4  1  0  0  0  0 
  3  5  1  0  0  0  0 
  5  6  1  0  0  0  0 
  5  7  2  0  0  0  0 
  7  8  1  0  0  0  0 
  8  9  1  0  0  0  0 
  8 10  2  0  0  0  0 
  1 10  1  0  0  0  0 
 10 11  1  0  0  0  0 
  7 12  1  0  0  0  0 
 12 13  2  0  0  0  0 
 13 14  1  0  0  0  0 
 14 15  1  0  0  0  0 
 14 16  1  0  0  0  0 
 16 17  2  0  0  0  0 
 16 18  1  0  0  0  0 
 18 19  1  0  0  0  0 
 18 20  1  0  0  0  0 
 20 21  2  0  0  0  0 
 12 21  1  0  0  0  0 
 21 22  1  0  0  0  0 
 22 23  1  0  0  0  0 
 22 24  2  0  0  0  0 
 24 25  1  0  0  0  0 
 25 26  1  0  0  0  0 
 25 27  2  0  0  0  0 
 20 27  1  0  0  0  0 
 27 28  1  0  0  0  0 
 24 29  1  0  0  0  0 
 29 30  1  0  0  0  0 
 30 31  1  0  0  0  0 
 30 32  1  0  0  0  0 
 30 33  1  0  0  0  0 
 33 34  1  0  0  0  0 
 33 35  1  0  0  0  0 
 35 36  2  0  0  0  0 
 35 37  1  0  0  0  0 
 37 38  1  0  0  0  0 
 37 39  1  0  0  0  0 
 39 40  1  0  0  0  0 
 39 41  1  0  0  0  0 
 39 42  1  0  0  0  0 
 42 43  2  0  0  0  0 
 42 44  1  0  0  0  0 
 44 45  1  0  0  0  0 
 33 46  1  0  0  0  0 
 46 47  1  0  0  0  0 
 46 48  1  0  0  0  0 
 48 49  2  0  0  0  0 
 48 50  1  0  0  0  0 
 50 51  1  0  0  0  0 
 50 52  1  0  0  0  0 
 50 53  1  0  0  0  0 
 53 54  1  0  0  0  0 
 53 55  1  0  0  0  0 
 53 56  1  0  0  0  0 
 56 57  1  0  0  0  0 
 56 58  1  0  0  0  0 
 58 59  2  0  0  0  0 
 58 60  1  0  0  0  0 
 60 61  1  0  0  0  0 
 56 62  1  0  0  0  0 
 62 63  1  0  0  0  0 
 62 64  1  0  0  0  0 
 14 65  1  0  0  0  0 
 65 66  1  0  0  0  0 
M  END
> <Rank>
14

> <Priority_score>
0.152

> <Reaction_type>
glutathione_conjugation_(aromatic_nucleophilic_substitution)

> <Parent_ID>
83

> <Parent_InChI>
InChI=1S/C15H11ClN2O2/c16-10-6-7-12-11(8-10)13(9-4-2-1-3-5-9)18-15(20)14(19)17-12/h1-8,15,20H,(H,17,19)

> <Parent_SMILES>
O=C1Nc2ccc(Cl)cc2C(c2ccccc2)=NC1O

$$$$
Molecule 83_metabolite 15
  CDK     0516241031

 34 35  0  0  0  0  0  0  0  0999 V2000
    3.8973    2.3009    0.0000 C   0  0  0  0  0  0  0  0  0  0  0  0
    5.1964    1.5509    0.0000 H   0  0  0  0  0  0  0  0  0  0  0  0
    3.8978    3.8017    0.0000 C   0  0  0  0  0  0  0  0  0  0  0  0
    5.1970    4.5515    0.0000 H   0  0  0  0  0  0  0  0  0  0  0  0
    2.5988    4.5517    0.0000 C   0  0  0  0  0  0  0  0  0  0  0  0
    2.5985    6.0517    0.0000 H   0  0  0  0  0  0  0  0  0  0  0  0
    1.2992    3.8009    0.0000 C   0  0  0  0  0  0  0  0  0  0  0  0
    1.2988    2.3001    0.0000 C   0  0  0  0  0  0  0  0  0  0  0  0
   -0.0004    1.5503    0.0000 H   0  0  0  0  0  0  0  0  0  0  0  0
    2.5978    1.5501    0.0000 C   0  0  0  0  0  0  0  0  0  0  0  0
    2.5980    0.0501    0.0000 H   0  0  0  0  0  0  0  0  0  0  0  0
    0.0002    4.5509    0.0000 C   0  0  0  0  0  0  0  0  0  0  0  0
    0.0002    6.0509    0.0000 O   0  0  0  0  0  0  0  0  0  0  0  0
   -2.1302    3.3209    0.0000 C   0  0  0  0  0  0  0  0  0  0  0  0
   -2.1305    1.8201    0.0000 C   0  0  0  0  0  0  0  0  0  0  0  0
   -0.9812    0.8561    0.0000 H   0  0  0  0  0  0  0  0  0  0  0  0
   -3.4299    1.0690    0.0000 C   0  0  0  0  0  0  0  0  0  0  0  0
   -4.7290    1.8188    0.0000 C   0  0  0  0  0  0  0  0  0  0  0  0
   -6.0280    1.0688    0.0000 H   0  0  0  0  0  0  0  0  0  0  0  0
   -4.7288    3.3196    0.0000 C   0  0  0  0  0  0  0  0  0  0  0  0
   -6.0279    4.0694    0.0000 H   0  0  0  0  0  0  0  0  0  0  0  0
   -3.4294    4.0707    0.0000 C   0  0  0  0  0  0  0  0  0  0  0  0
   -3.4299    5.5707    0.0000 N   0  0  0  0  0  0  0  0  0  0  0  0
   -2.1311    6.3211    0.0000 H   0  0  0  0  0  0  0  0  0  0  0  0
   -4.7291    6.3203    0.0000 C   0  0  0  0  0  0  0  0  0  0  0  0
   -6.0279    5.5698    0.0000 O   0  0  0  0  0  0  0  0  0  0  0  0
   -4.7296    7.8203    0.0000 C   0  0  0  0  0  0  0  0  0  0  0  0
   -3.2523    7.5603    0.0000 H   0  0  0  0  0  0  0  0  0  0  0  0
   -6.0289    8.5698    0.0000 N   0  0  0  0  0  0  0  0  0  0  0  0
   -6.0294   10.0698    0.0000 H   0  0  0  0  0  0  0  0  0  0  0  0
   -7.3277    7.8194    0.0000 H   0  0  0  0  0  0  0  0  0  0  0  0
   -4.2170    9.2300    0.0000 O   0  0  0  0  0  0  0  0  0  0  0  0
   -5.1816   10.3787    0.0000 H   0  0  0  0  0  0  0  0  0  0  0  0
   -3.4294   -0.4310    0.0000 Cl  0  0  0  0  0  0  0  0  0  0  0  0
  1  2  1  0  0  0  0 
  1  3  2  0  0  0  0 
  3  4  1  0  0  0  0 
  3  5  1  0  0  0  0 
  5  6  1  0  0  0  0 
  5  7  2  0  0  0  0 
  7  8  1  0  0  0  0 
  8  9  1  0  0  0  0 
  8 10  2  0  0  0  0 
  1 10  1  0  0  0  0 
 10 11  1  0  0  0  0 
  7 12  1  0  0  0  0 
 12 13  2  0  0  0  0 
 12 14  1  0  0  0  0 
 14 15  2  0  0  0  0 
 15 16  1  0  0  0  0 
 15 17  1  0  0  0  0 
 17 18  2  0  0  0  0 
 18 19  1  0  0  0  0 
 18 20  1  0  0  0  0 
 20 21  1  0  0  0  0 
 20 22  2  0  0  0  0 
 14 22  1  0  0  0  0 
 22 23  1  0  0  0  0 
 23 24  1  0  0  0  0 
 23 25  1  0  0  0  0 
 25 26  2  0  0  0  0 
 25 27  1  0  0  0  0 
 27 28  1  0  0  0  0 
 27 29  1  0  0  0  0 
 29 30  1  0  0  0  0 
 29 31  1  0  0  0  0 
 27 32  1  0  0  0  0 
 32 33  1  0  0  0  0 
 17 34  1  0  0  0  0 
M  END
> <Rank>
15

> <Priority_score>
0.148

> <Reaction_type>
imine_hydrolysis

> <Parent_ID>
83

> <Parent_InChI>
InChI=1S/C15H11ClN2O2/c16-10-6-7-12-11(8-10)13(9-4-2-1-3-5-9)18-15(20)14(19)17-12/h1-8,15,20H,(H,17,19)

> <Parent_SMILES>
O=C1Nc2ccc(Cl)cc2C(c2ccccc2)=NC1O

$$$$
Molecule 83_metabolite 16
  CDK     0516241031

 29 32  0  0  0  0  0  0  0  0999 V2000
    1.0600    6.2100    0.0000 C   0  0  0  0  0  0  0  0  0  0  0  0
    1.0600    7.7100    0.0000 H   0  0  0  0  0  0  0  0  0  0  0  0
   -0.2400    5.4600    0.0000 C   0  0  0  0  0  0  0  0  0  0  0  0
   -1.5389    6.2102    0.0000 H   0  0  0  0  0  0  0  0  0  0  0  0
   -0.2400    3.9600    0.0000 C   0  0  0  0  0  0  0  0  0  0  0  0
   -1.5389    3.2098    0.0000 H   0  0  0  0  0  0  0  0  0  0  0  0
    1.0600    3.2100    0.0000 C   0  0  0  0  0  0  0  0  0  0  0  0
    2.3600    3.9600    0.0000 C   0  0  0  0  0  0  0  0  0  0  0  0
    3.6589    3.2098    0.0000 H   0  0  0  0  0  0  0  0  0  0  0  0
    2.3600    5.4600    0.0000 C   0  0  0  0  0  0  0  0  0  0  0  0
    3.6589    6.2102    0.0000 H   0  0  0  0  0  0  0  0  0  0  0  0
    1.0600    0.7500    0.0000 C   0  0  0  0  0  0  0  0  0  0  0  0
    2.3600   -0.0100    0.0000 N   0  0  0  0  0  0  0  0  0  0  0  0
    2.3600   -1.5100    0.0000 C   0  0  0  0  0  0  0  0  0  0  0  0
    2.3600   -3.0000    0.0000 C   0  0  0  0  0  0  0  0  0  0  0  0
    3.1102   -4.2989    0.0000 O   0  0  0  0  0  0  0  0  0  0  0  0
    1.0600   -2.2500    0.0000 N   0  0  0  0  0  0  0  0  0  0  0  0
   -0.2400   -1.5100    0.0000 C   0  0  0  0  0  0  0  0  0  0  0  0
   -0.2400   -0.0100    0.0000 C   0  0  0  0  0  0  0  0  0  0  0  0
   -1.5300    0.7500    0.0000 C   0  0  0  0  0  0  0  0  0  0  0  0
   -1.5275    2.2500    0.0000 H   0  0  0  0  0  0  0  0  0  0  0  0
   -2.8300   -0.0100    0.0000 C   0  0  0  0  0  0  0  0  0  0  0  0
   -2.8300   -1.5100    0.0000 C   0  0  0  0  0  0  0  0  0  0  0  0
   -4.1267   -2.2640    0.0000 H   0  0  0  0  0  0  0  0  0  0  0  0
   -1.5300   -2.2500    0.0000 C   0  0  0  0  0  0  0  0  0  0  0  0
   -1.5275   -3.7500    0.0000 H   0  0  0  0  0  0  0  0  0  0  0  0
   -4.1311    0.7365    0.0000 Cl  0  0  0  0  0  0  0  0  0  0  0  0
    3.8600   -1.5100    0.0000 O   0  0  0  0  0  0  0  0  0  0  0  0
    4.6100   -2.8090    0.0000 H   0  0  0  0  0  0  0  0  0  0  0  0
  1  2  1  0  0  0  0 
  1  3  2  0  0  0  0 
  3  4  1  0  0  0  0 
  3  5  1  0  0  0  0 
  5  6  1  0  0  0  0 
  5  7  2  0  0  0  0 
  7  8  1  0  0  0  0 
  8  9  1  0  0  0  0 
  8 10  2  0  0  0  0 
  1 10  1  0  0  0  0 
 10 11  1  0  0  0  0 
  7 12  1  0  0  0  0 
 12 13  2  0  0  0  0 
 13 14  1  0  0  0  0 
 14 15  1  0  0  0  0 
 15 16  2  0  0  0  0 
 15 17  1  0  0  0  0 
 14 17  1  0  0  0  0 
 17 18  1  0  0  0  0 
 18 19  2  0  0  0  0 
 12 19  1  0  0  0  0 
 19 20  1  0  0  0  0 
 20 21  1  0  0  0  0 
 20 22  2  0  0  0  0 
 22 23  1  0  0  0  0 
 23 24  1  0  0  0  0 
 23 25  2  0  0  0  0 
 18 25  1  0  0  0  0 
 25 26  1  0  0  0  0 
 22 27  1  0  0  0  0 
 14 28  1  0  0  0  0 
 28 29  1  0  0  0  0 
M  END
> <Rank>
16

> <Priority_score>
0.048

> <Reaction_type>
cyclization to 6-membered NCN ring

> <Parent_ID>
83

> <Parent_InChI>
InChI=1S/C15H11ClN2O2/c16-10-6-7-12-11(8-10)13(9-4-2-1-3-5-9)18-15(20)14(19)17-12/h1-8,15,20H,(H,17,19)

> <Parent_SMILES>
O=C1Nc2ccc(Cl)cc2C(c2ccccc2)=NC1O

$$$$
Molecule 83_metabolite 17
  CDK     0516241031

 32 34  0  0  0  0  0  0  0  0999 V2000
   -2.3685    6.3801    0.0000 C   0  0  0  0  0  0  0  0  0  0  0  0
   -2.2943    7.8783    0.0000 H   0  0  0  0  0  0  0  0  0  0  0  0
   -3.7040    5.6953    0.0000 C   0  0  0  0  0  0  0  0  0  0  0  0
   -4.9642    6.5089    0.0000 H   0  0  0  0  0  0  0  0  0  0  0  0
   -3.7782    4.1972    0.0000 C   0  0  0  0  0  0  0  0  0  0  0  0
   -5.1126    3.5121    0.0000 H   0  0  0  0  0  0  0  0  0  0  0  0
   -2.5169    3.3838    0.0000 C   0  0  0  0  0  0  0  0  0  0  0  0
   -1.1813    4.0686    0.0000 C   0  0  0  0  0  0  0  0  0  0  0  0
    0.8854    2.7344    0.0000 H   0  0  0  0  0  0  0  0  0  0  0  0
   -1.1072    5.5667    0.0000 C   0  0  0  0  0  0  0  0  0  0  0  0
    0.2273    6.2518    0.0000 H   0  0  0  0  0  0  0  0  0  0  0  0
   -2.6385    0.9268    0.0000 C   0  0  0  0  0  0  0  0  0  0  0  0
   -4.0985    0.5868    0.0000 N   0  0  0  0  0  0  0  0  0  0  0  0
   -4.7485   -0.7632    0.0000 C   0  0  0  0  0  0  0  0  0  0  0  0
   -5.9213    0.1720    0.0000 H   0  0  0  0  0  0  0  0  0  0  0  0
   -4.0985   -2.1132    0.0000 C   0  0  0  0  0  0  0  0  0  0  0  0
   -5.0364   -3.2839    0.0000 O   0  0  0  0  0  0  0  0  0  0  0  0
   -2.6385   -2.4532    0.0000 N   0  0  0  0  0  0  0  0  0  0  0  0
   -2.3053   -3.9157    0.0000 H   0  0  0  0  0  0  0  0  0  0  0  0
   -1.4685   -1.5132    0.0000 C   0  0  0  0  0  0  0  0  0  0  0  0
   -0.1685   -2.2632    0.0000 C   0  0  0  0  0  0  0  0  0  0  0  0
   -0.1685   -3.7632    0.0000 H   0  0  0  0  0  0  0  0  0  0  0  0
    1.1315   -1.5132    0.0000 C   0  0  0  0  0  0  0  0  0  0  0  0
    2.4304   -2.2634    0.0000 H   0  0  0  0  0  0  0  0  0  0  0  0
    1.1315   -0.0132    0.0000 C   0  0  0  0  0  0  0  0  0  0  0  0
   -0.1685    0.7368    0.0000 C   0  0  0  0  0  0  0  0  0  0  0  0
   -1.4685   -0.0132    0.0000 C   0  0  0  0  0  0  0  0  0  0  0  0
    0.0920    2.2140    0.0000 O   0  0  0  0  0  0  0  0  0  0  0  0
    2.4036    3.0554    0.0000 H   0  0  0  0  0  0  0  0  0  0  0  0
    2.4304    0.7370    0.0000 Cl  0  0  0  0  0  0  0  0  0  0  0  0
   -5.9213   -1.6984    0.0000 O   0  0  0  0  0  0  0  0  0  0  0  0
   -7.3176   -1.1504    0.0000 H   0  0  0  0  0  0  0  0  0  0  0  0
  1  2  1  0  0  0  0 
  1  3  2  0  0  0  0 
  3  4  1  0  0  0  0 
  3  5  1  0  0  0  0 
  5  6  1  0  0  0  0 
  5  7  2  0  0  0  0 
  7  8  1  0  0  0  0 
  8  9  1  0  0  0  0 
  8 10  2  0  0  0  0 
  1 10  1  0  0  0  0 
 10 11  1  0  0  0  0 
  7 12  1  0  0  0  0 
 12 13  2  0  0  0  0 
 13 14  1  0  0  0  0 
 14 15  1  0  0  0  0 
 14 16  1  0  0  0  0 
 16 17  2  0  0  0  0 
 16 18  1  0  0  0  0 
 18 19  1  0  0  0  0 
 18 20  1  0  0  0  0 
 20 21  2  0  0  0  0 
 21 22  1  0  0  0  0 
 21 23  1  0  0  0  0 
 23 24  1  0  0  0  0 
 23 25  2  0  0  0  0 
 25 26  1  0  0  0  0 
 26 27  2  0  0  0  0 
 20 27  1  0  0  0  0 
 12 27  1  0  0  0  0 
 26 28  1  0  0  0  0 
 28 29  1  0  0  0  0 
 25 30  1  0  0  0  0 
 14 31  1  0  0  0  0 
 31 32  1  0  0  0  0 
M  END
> <Rank>
17

> <Priority_score>
0.024

> <Reaction_type>
aromatic hydroxylation

> <Parent_ID>
83

> <Parent_InChI>
InChI=1S/C15H11ClN2O2/c16-10-6-7-12-11(8-10)13(9-4-2-1-3-5-9)18-15(20)14(19)17-12/h1-8,15,20H,(H,17,19)

> <Parent_SMILES>
O=C1Nc2ccc(Cl)cc2C(c2ccccc2)=NC1O

$$$$
Molecule 83_metabolite 18
  CDK     0516241031

 51 54  0  0  0  0  0  0  0  0999 V2000
   -5.1989    4.8974    0.0000 C   0  0  0  0  0  0  0  0  0  0  0  0
   -6.1328    6.0712    0.0000 H   0  0  0  0  0  0  0  0  0  0  0  0
   -3.7147    5.1198    0.0000 C   0  0  0  0  0  0  0  0  0  0  0  0
   -3.1653    6.5156    0.0000 H   0  0  0  0  0  0  0  0  0  0  0  0
   -2.7808    3.9460    0.0000 C   0  0  0  0  0  0  0  0  0  0  0  0
   -1.2973    4.1676    0.0000 H   0  0  0  0  0  0  0  0  0  0  0  0
   -3.3312    2.5497    0.0000 C   0  0  0  0  0  0  0  0  0  0  0  0
   -4.8154    2.3273    0.0000 C   0  0  0  0  0  0  0  0  0  0  0  0
   -5.5407    0.4849    0.0000 H   0  0  0  0  0  0  0  0  0  0  0  0
   -5.7493    3.5011    0.0000 C   0  0  0  0  0  0  0  0  0  0  0  0
   -7.2329    3.2795    0.0000 H   0  0  0  0  0  0  0  0  0  0  0  0
   -2.0985    1.0003    0.0000 C   0  0  0  0  0  0  0  0  0  0  0  0
   -0.6353    1.3263    0.0000 N   0  0  0  0  0  0  0  0  0  0  0  0
    0.5354    0.3911    0.0000 C   0  0  0  0  0  0  0  0  0  0  0  0
    1.1873    1.7420    0.0000 H   0  0  0  0  0  0  0  0  0  0  0  0
    0.5343   -1.1072    0.0000 C   0  0  0  0  0  0  0  0  0  0  0  0
    1.8867   -1.7561    0.0000 O   0  0  0  0  0  0  0  0  0  0  0  0
   -0.6343   -2.0461    0.0000 N   0  0  0  0  0  0  0  0  0  0  0  0
   -2.0960   -1.7057    0.0000 C   0  0  0  0  0  0  0  0  0  0  0  0
   -2.7458   -0.3538    0.0000 C   0  0  0  0  0  0  0  0  0  0  0  0
   -4.2424   -0.2409    0.0000 C   0  0  0  0  0  0  0  0  0  0  0  0
   -4.8922    1.1110    0.0000 H   0  0  0  0  0  0  0  0  0  0  0  0
   -5.0892   -1.4801    0.0000 C   0  0  0  0  0  0  0  0  0  0  0  0
   -4.4394   -2.8320    0.0000 C   0  0  0  0  0  0  0  0  0  0  0  0
   -5.2852   -4.0708    0.0000 H   0  0  0  0  0  0  0  0  0  0  0  0
   -2.9428   -2.9448    0.0000 C   0  0  0  0  0  0  0  0  0  0  0  0
   -2.5377   -4.3891    0.0000 H   0  0  0  0  0  0  0  0  0  0  0  0
   -6.5849   -1.3666    0.0000 Cl  0  0  0  0  0  0  0  0  0  0  0  0
   -0.1945   -3.9767    0.0000 C   0  0  0  0  0  0  0  0  0  0  0  0
   -1.6926   -4.0510    0.0000 H   0  0  0  0  0  0  0  0  0  0  0  0
   -0.3812   -5.4650    0.0000 C   0  0  0  0  0  0  0  0  0  0  0  0
   -1.8146   -5.0228    0.0000 H   0  0  0  0  0  0  0  0  0  0  0  0
    0.8152   -6.3710    0.0000 C   0  0  0  0  0  0  0  0  0  0  0  0
   -0.2844   -7.3912    0.0000 H   0  0  0  0  0  0  0  0  0  0  0  0
    2.1985   -5.7887    0.0000 C   0  0  0  0  0  0  0  0  0  0  0  0
    2.5317   -7.2512    0.0000 H   0  0  0  0  0  0  0  0  0  0  0  0
    2.3853   -4.3004    0.0000 C   0  0  0  0  0  0  0  0  0  0  0  0
    3.8186   -4.7426    0.0000 H   0  0  0  0  0  0  0  0  0  0  0  0
    3.2885   -2.5384    0.0000 C   0  0  0  0  0  0  0  0  0  0  0  0
    2.4747   -1.2784    0.0000 O   0  0  0  0  0  0  0  0  0  0  0  0
    4.7867   -2.4636    0.0000 O   0  0  0  0  0  0  0  0  0  0  0  0
    5.6005   -3.7236    0.0000 H   0  0  0  0  0  0  0  0  0  0  0  0
    1.1888   -3.3944    0.0000 O   0  0  0  0  0  0  0  0  0  0  0  0
    3.6967   -5.7144    0.0000 O   0  0  0  0  0  0  0  0  0  0  0  0
    4.5101   -6.9746    0.0000 H   0  0  0  0  0  0  0  0  0  0  0  0
    1.6287   -7.6313    0.0000 O   0  0  0  0  0  0  0  0  0  0  0  0
    0.9440   -8.9659    0.0000 H   0  0  0  0  0  0  0  0  0  0  0  0
   -1.0655   -6.7998    0.0000 O   0  0  0  0  0  0  0  0  0  0  0  0
   -2.5636   -6.8746    0.0000 H   0  0  0  0  0  0  0  0  0  0  0  0
    1.9975    0.0562    0.0000 O   0  0  0  0  0  0  0  0  0  0  0  0
    3.0186    1.1550    0.0000 H   0  0  0  0  0  0  0  0  0  0  0  0
  1  2  1  0  0  0  0 
  1  3  2  0  0  0  0 
  3  4  1  0  0  0  0 
  3  5  1  0  0  0  0 
  5  6  1  0  0  0  0 
  5  7  2  0  0  0  0 
  7  8  1  0  0  0  0 
  8  9  1  0  0  0  0 
  8 10  2  0  0  0  0 
  1 10  1  0  0  0  0 
 10 11  1  0  0  0  0 
  7 12  1  0  0  0  0 
 12 13  2  0  0  0  0 
 13 14  1  0  0  0  0 
 14 15  1  0  0  0  0 
 14 16  1  0  0  0  0 
 16 17  2  0  0  0  0 
 16 18  1  0  0  0  0 
 18 19  1  0  0  0  0 
 19 20  2  0  0  0  0 
 12 20  1  0  0  0  0 
 20 21  1  0  0  0  0 
 21 22  1  0  0  0  0 
 21 23  2  0  0  0  0 
 23 24  1  0  0  0  0 
 24 25  1  0  0  0  0 
 24 26  2  0  0  0  0 
 19 26  1  0  0  0  0 
 26 27  1  0  0  0  0 
 23 28  1  0  0  0  0 
 18 29  1  0  0  0  0 
 29 30  1  0  0  0  0 
 29 31  1  0  0  0  0 
 31 32  1  0  0  0  0 
 31 33  1  0  0  0  0 
 33 34  1  0  0  0  0 
 33 35  1  0  0  0  0 
 35 36  1  0  0  0  0 
 35 37  1  0  0  0  0 
 37 38  1  0  0  0  0 
 37 39  1  0  0  0  0 
 39 40  2  0  0  0  0 
 39 41  1  0  0  0  0 
 41 42  1  0  0  0  0 
 37 43  1  0  0  0  0 
 29 43  1  0  0  0  0 
 35 44  1  0  0  0  0 
 44 45  1  0  0  0  0 
 33 46  1  0  0  0  0 
 46 47  1  0  0  0  0 
 31 48  1  0  0  0  0 
 48 49  1  0  0  0  0 
 14 50  1  0  0  0  0 
 50 51  1  0  0  0  0 
M  END
> <Rank>
18

> <Priority_score>
0.02

> <Reaction_type>
N-glucuronidation_(aniline_NH1-R)

> <Parent_ID>
83

> <Parent_InChI>
InChI=1S/C15H11ClN2O2/c16-10-6-7-12-11(8-10)13(9-4-2-1-3-5-9)18-15(20)14(19)17-12/h1-8,15,20H,(H,17,19)

> <Parent_SMILES>
O=C1Nc2ccc(Cl)cc2C(c2ccccc2)=NC1O

$$$$
Molecule 83_metabolite 19
  CDK     0516241031

 32 34  0  0  0  0  0  0  0  0999 V2000
    0.8593    5.3853    0.0000 C   0  0  0  0  0  0  0  0  0  0  0  0
    2.2926    5.8275    0.0000 H   0  0  0  0  0  0  0  0  0  0  0  0
    0.5252    3.9221    0.0000 C   0  0  0  0  0  0  0  0  0  0  0  0
    1.9769    2.5757    0.0000 H   0  0  0  0  0  0  0  0  0  0  0  0
   -0.9087    3.4789    0.0000 C   0  0  0  0  0  0  0  0  0  0  0  0
   -2.0085    4.4989    0.0000 C   0  0  0  0  0  0  0  0  0  0  0  0
   -1.6744    5.9621    0.0000 C   0  0  0  0  0  0  0  0  0  0  0  0
   -2.7742    6.9821    0.0000 H   0  0  0  0  0  0  0  0  0  0  0  0
   -0.2405    6.4053    0.0000 C   0  0  0  0  0  0  0  0  0  0  0  0
    0.0927    7.8678    0.0000 H   0  0  0  0  0  0  0  0  0  0  0  0
   -3.4419    4.0567    0.0000 O   0  0  0  0  0  0  0  0  0  0  0  0
   -4.5415    5.0769    0.0000 H   0  0  0  0  0  0  0  0  0  0  0  0
   -1.3486    1.5484    0.0000 C   0  0  0  0  0  0  0  0  0  0  0  0
   -2.8086    1.2084    0.0000 N   0  0  0  0  0  0  0  0  0  0  0  0
   -3.4586   -0.1416    0.0000 C   0  0  0  0  0  0  0  0  0  0  0  0
   -4.6313    0.7936    0.0000 H   0  0  0  0  0  0  0  0  0  0  0  0
   -2.8086   -1.4916    0.0000 C   0  0  0  0  0  0  0  0  0  0  0  0
   -3.7464   -2.6623    0.0000 O   0  0  0  0  0  0  0  0  0  0  0  0
   -1.3486   -1.8316    0.0000 N   0  0  0  0  0  0  0  0  0  0  0  0
   -1.0154   -3.2941    0.0000 H   0  0  0  0  0  0  0  0  0  0  0  0
   -0.1786   -0.8916    0.0000 C   0  0  0  0  0  0  0  0  0  0  0  0
   -0.1786    0.6084    0.0000 C   0  0  0  0  0  0  0  0  0  0  0  0
    1.1214    1.3584    0.0000 C   0  0  0  0  0  0  0  0  0  0  0  0
    1.1214    2.8584    0.0000 H   0  0  0  0  0  0  0  0  0  0  0  0
    2.4214    0.6084    0.0000 C   0  0  0  0  0  0  0  0  0  0  0  0
    2.4214   -0.8916    0.0000 C   0  0  0  0  0  0  0  0  0  0  0  0
    3.7204   -1.6418    0.0000 H   0  0  0  0  0  0  0  0  0  0  0  0
    1.1214   -1.6416    0.0000 C   0  0  0  0  0  0  0  0  0  0  0  0
    1.1214   -3.1416    0.0000 H   0  0  0  0  0  0  0  0  0  0  0  0
    3.7204    1.3586    0.0000 Cl  0  0  0  0  0  0  0  0  0  0  0  0
   -4.6313   -1.0768    0.0000 O   0  0  0  0  0  0  0  0  0  0  0  0
   -6.0276   -0.5288    0.0000 H   0  0  0  0  0  0  0  0  0  0  0  0
  1  2  1  0  0  0  0 
  1  3  2  0  0  0  0 
  3  4  1  0  0  0  0 
  3  5  1  0  0  0  0 
  5  6  2  0  0  0  0 
  6  7  1  0  0  0  0 
  7  8  1  0  0  0  0 
  7  9  2  0  0  0  0 
  1  9  1  0  0  0  0 
  9 10  1  0  0  0  0 
  6 11  1  0  0  0  0 
 11 12  1  0  0  0  0 
  5 13  1  0  0  0  0 
 13 14  2  0  0  0  0 
 14 15  1  0  0  0  0 
 15 16  1  0  0  0  0 
 15 17  1  0  0  0  0 
 17 18  2  0  0  0  0 
 17 19  1  0  0  0  0 
 19 20  1  0  0  0  0 
 19 21  1  0  0  0  0 
 21 22  2  0  0  0  0 
 13 22  1  0  0  0  0 
 22 23  1  0  0  0  0 
 23 24  1  0  0  0  0 
 23 25  2  0  0  0  0 
 25 26  1  0  0  0  0 
 26 27  1  0  0  0  0 
 26 28  2  0  0  0  0 
 21 28  1  0  0  0  0 
 28 29  1  0  0  0  0 
 25 30  1  0  0  0  0 
 15 31  1  0  0  0  0 
 31 32  1  0  0  0  0 
M  END
> <Rank>
19

> <Priority_score>
0.019765871786930938

> <Reaction_type>
aromatic hydroxylation

> <Parent_ID>
83

> <Parent_InChI>
InChI=1S/C15H11ClN2O2/c16-10-6-7-12-11(8-10)13(9-4-2-1-3-5-9)18-15(20)14(19)17-12/h1-8,15,20H,(H,17,19)

> <Parent_SMILES>
O=C1Nc2ccc(Cl)cc2C(c2ccccc2)=NC1O

$$$$
Molecule 83_metabolite 20
  CDK     0516241031

 32 34  0  0  0  0  0  0  0  0999 V2000
   -0.2423    6.4040    0.0000 C   0  0  0  0  0  0  0  0  0  0  0  0
    0.0909    7.8665    0.0000 H   0  0  0  0  0  0  0  0  0  0  0  0
   -1.6764    5.9615    0.0000 C   0  0  0  0  0  0  0  0  0  0  0  0
   -2.7762    6.9815    0.0000 H   0  0  0  0  0  0  0  0  0  0  0  0
   -2.0096    4.4990    0.0000 C   0  0  0  0  0  0  0  0  0  0  0  0
   -3.4428    4.0561    0.0000 H   0  0  0  0  0  0  0  0  0  0  0  0
   -0.9087    3.4789    0.0000 C   0  0  0  0  0  0  0  0  0  0  0  0
    0.5254    3.9214    0.0000 C   0  0  0  0  0  0  0  0  0  0  0  0
    1.9771    2.5750    0.0000 H   0  0  0  0  0  0  0  0  0  0  0  0
    0.8586    5.3839    0.0000 C   0  0  0  0  0  0  0  0  0  0  0  0
    2.2917    5.8268    0.0000 H   0  0  0  0  0  0  0  0  0  0  0  0
   -1.3486    1.5484    0.0000 C   0  0  0  0  0  0  0  0  0  0  0  0
   -2.8086    1.2084    0.0000 N   0  0  0  0  0  0  0  0  0  0  0  0
   -3.4586   -0.1416    0.0000 C   0  0  0  0  0  0  0  0  0  0  0  0
   -4.6313    0.7936    0.0000 H   0  0  0  0  0  0  0  0  0  0  0  0
   -2.8086   -1.4916    0.0000 C   0  0  0  0  0  0  0  0  0  0  0  0
   -3.7464   -2.6623    0.0000 O   0  0  0  0  0  0  0  0  0  0  0  0
   -1.3486   -1.8316    0.0000 N   0  0  0  0  0  0  0  0  0  0  0  0
   -1.0154   -3.2941    0.0000 H   0  0  0  0  0  0  0  0  0  0  0  0
   -0.1786   -0.8916    0.0000 C   0  0  0  0  0  0  0  0  0  0  0  0
   -0.1786    0.6084    0.0000 C   0  0  0  0  0  0  0  0  0  0  0  0
    1.1214    1.3584    0.0000 C   0  0  0  0  0  0  0  0  0  0  0  0
    1.1214    2.8584    0.0000 H   0  0  0  0  0  0  0  0  0  0  0  0
    2.4214    0.6084    0.0000 C   0  0  0  0  0  0  0  0  0  0  0  0
    2.4214   -0.8916    0.0000 C   0  0  0  0  0  0  0  0  0  0  0  0
    3.7204   -1.6418    0.0000 H   0  0  0  0  0  0  0  0  0  0  0  0
    1.1214   -1.6416    0.0000 C   0  0  0  0  0  0  0  0  0  0  0  0
    1.1214   -3.1416    0.0000 H   0  0  0  0  0  0  0  0  0  0  0  0
    3.7204    1.3586    0.0000 O   0  0  0  0  0  0  0  0  0  0  0  0
    5.0195    0.6088    0.0000 H   0  0  0  0  0  0  0  0  0  0  0  0
   -4.6313   -1.0768    0.0000 O   0  0  0  0  0  0  0  0  0  0  0  0
   -6.0276   -0.5288    0.0000 H   0  0  0  0  0  0  0  0  0  0  0  0
  1  2  1  0  0  0  0 
  1  3  2  0  0  0  0 
  3  4  1  0  0  0  0 
  3  5  1  0  0  0  0 
  5  6  1  0  0  0  0 
  5  7  2  0  0  0  0 
  7  8  1  0  0  0  0 
  8  9  1  0  0  0  0 
  8 10  2  0  0  0  0 
  1 10  1  0  0  0  0 
 10 11  1  0  0  0  0 
  7 12  1  0  0  0  0 
 12 13  2  0  0  0  0 
 13 14  1  0  0  0  0 
 14 15  1  0  0  0  0 
 14 16  1  0  0  0  0 
 16 17  2  0  0  0  0 
 16 18  1  0  0  0  0 
 18 19  1  0  0  0  0 
 18 20  1  0  0  0  0 
 20 21  2  0  0  0  0 
 12 21  1  0  0  0  0 
 21 22  1  0  0  0  0 
 22 23  1  0  0  0  0 
 22 24  2  0  0  0  0 
 24 25  1  0  0  0  0 
 25 26  1  0  0  0  0 
 25 27  2  0  0  0  0 
 20 27  1  0  0  0  0 
 27 28  1  0  0  0  0 
 24 29  1  0  0  0  0 
 29 30  1  0  0  0  0 
 14 31  1  0  0  0  0 
 31 32  1  0  0  0  0 
M  END
> <Rank>
20

> <Priority_score>
0.008

> <Reaction_type>
aromatic_dechlorination

> <Parent_ID>
83

> <Parent_InChI>
InChI=1S/C15H11ClN2O2/c16-10-6-7-12-11(8-10)13(9-4-2-1-3-5-9)18-15(20)14(19)17-12/h1-8,15,20H,(H,17,19)

> <Parent_SMILES>
O=C1Nc2ccc(Cl)cc2C(c2ccccc2)=NC1O

$$$$
Molecule 84
  CDK     0516241031

 14 14  0  0  0  0  0  0  0  0999 V2000
    1.5654   -2.0965    0.0000 C   0  0  0  0  0  0  0  0  0  0  0  0
    2.8650   -1.3456    0.0000 C   0  0  0  0  0  0  0  0  0  0  0  0
    2.8654    0.1552    0.0000 N   0  0  0  0  0  0  0  0  0  0  0  0
    4.1646    0.9050    0.0000 C   0  0  0  0  0  0  0  0  0  0  0  0
    5.4635    0.1548    0.0000 C   0  0  0  0  0  0  0  0  0  0  0  0
    6.7627    0.9046    0.0000 Cl  0  0  0  0  0  0  0  0  0  0  0  0
    1.5664    0.9052    0.0000 P   0  0  0  0  0  0  0  0  0  0  0  0
    2.5305    2.0544    0.0000 O   0  0  0  0  0  0  0  0  0  0  0  0
    0.6020    2.0541    0.0000 N   0  0  0  0  0  0  0  0  0  0  0  0
   -0.8752    1.7933    0.0000 C   0  0  0  0  0  0  0  0  0  0  0  0
   -1.8396    2.9421    0.0000 C   0  0  0  0  0  0  0  0  0  0  0  0
   -3.3168    2.6813    0.0000 Cl  0  0  0  0  0  0  0  0  0  0  0  0
    0.2669    0.1544    0.0000 O   0  0  0  0  0  0  0  0  0  0  0  0
    0.2664   -1.3465    0.0000 C   0  0  0  0  0  0  0  0  0  0  0  0
  1  2  1  0  0  0  0 
  2  3  1  0  0  0  0 
  3  4  1  0  0  0  0 
  4  5  1  0  0  0  0 
  5  6  1  0  0  0  0 
  3  7  1  0  0  0  0 
  7  8  2  0  0  0  0 
  7  9  1  0  0  0  0 
  9 10  1  0  0  0  0 
 10 11  1  0  0  0  0 
 11 12  1  0  0  0  0 
  7 13  1  0  0  0  0 
 13 14  1  0  0  0  0 
  1 14  1  0  0  0  0 
M  END
> <SMILES>
O=P1(NCCCl)OCCCN1CCCl

$$$$
Molecule 84_metabolite 1
  CDK     0516241031

 30 29  0  0  0  0  0  0  0  0999 V2000
    7.9159    0.6512    0.0000 C   0  0  0  0  0  0  0  0  0  0  0  0
    8.4289   -0.7584    0.0000 H   0  0  0  0  0  0  0  0  0  0  0  0
    9.3931    0.9116    0.0000 H   0  0  0  0  0  0  0  0  0  0  0  0
    7.9159    2.1512    0.0000 C   0  0  0  0  0  0  0  0  0  0  0  0
    9.2149    2.9012    0.0000 H   0  0  0  0  0  0  0  0  0  0  0  0
    6.6169    2.9012    0.0000 O   0  0  0  0  0  0  0  0  0  0  0  0
    6.6169   -0.0988    0.0000 C   0  0  0  0  0  0  0  0  0  0  0  0
    6.1038    1.3107    0.0000 H   0  0  0  0  0  0  0  0  0  0  0  0
    5.1396   -0.3593    0.0000 H   0  0  0  0  0  0  0  0  0  0  0  0
    6.6169   -1.5988    0.0000 O   0  0  0  0  0  0  0  0  0  0  0  0
    4.9021   -2.5888    0.0000 P   0  0  0  0  0  0  0  0  0  0  0  0
    4.3891   -1.1793    0.0000 O   0  0  0  0  0  0  0  0  0  0  0  0
    4.9021   -4.0888    0.0000 N   0  0  0  0  0  0  0  0  0  0  0  0
    3.6031   -4.8388    0.0000 H   0  0  0  0  0  0  0  0  0  0  0  0
    6.2012   -4.8388    0.0000 C   0  0  0  0  0  0  0  0  0  0  0  0
    6.7142   -3.4293    0.0000 H   0  0  0  0  0  0  0  0  0  0  0  0
    7.6784   -5.0993    0.0000 H   0  0  0  0  0  0  0  0  0  0  0  0
    6.2012   -6.3388    0.0000 C   0  0  0  0  0  0  0  0  0  0  0  0
    7.5002   -7.0888    0.0000 H   0  0  0  0  0  0  0  0  0  0  0  0
    5.6881   -7.7484    0.0000 H   0  0  0  0  0  0  0  0  0  0  0  0
    4.7240   -6.0784    0.0000 Cl  0  0  0  0  0  0  0  0  0  0  0  0
    2.9522   -2.9327    0.0000 N   0  0  0  0  0  0  0  0  0  0  0  0
    2.4392   -4.3422    0.0000 H   0  0  0  0  0  0  0  0  0  0  0  0
    1.9880   -1.7836    0.0000 C   0  0  0  0  0  0  0  0  0  0  0  0
    1.4750   -0.3740    0.0000 H   0  0  0  0  0  0  0  0  0  0  0  0
    3.2871   -1.0336    0.0000 H   0  0  0  0  0  0  0  0  0  0  0  0
    0.5108   -2.0441    0.0000 C   0  0  0  0  0  0  0  0  0  0  0  0
   -0.4534   -0.8950    0.0000 H   0  0  0  0  0  0  0  0  0  0  0  0
    1.0238   -3.4536    0.0000 H   0  0  0  0  0  0  0  0  0  0  0  0
   -0.7882   -2.7941    0.0000 Cl  0  0  0  0  0  0  0  0  0  0  0  0
  1  2  1  0  0  0  0 
  1  3  1  0  0  0  0 
  1  4  1  0  0  0  0 
  4  5  1  0  0  0  0 
  4  6  2  0  0  0  0 
  1  7  1  0  0  0  0 
  7  8  1  0  0  0  0 
  7  9  1  0  0  0  0 
  7 10  1  0  0  0  0 
 10 11  1  0  0  0  0 
 11 12  2  0  0  0  0 
 11 13  1  0  0  0  0 
 13 14  1  0  0  0  0 
 13 15  1  0  0  0  0 
 15 16  1  0  0  0  0 
 15 17  1  0  0  0  0 
 15 18  1  0  0  0  0 
 18 19  1  0  0  0  0 
 18 20  1  0  0  0  0 
 18 21  1  0  0  0  0 
 11 22  1  0  0  0  0 
 22 23  1  0  0  0  0 
 22 24  1  0  0  0  0 
 24 25  1  0  0  0  0 
 24 26  1  0  0  0  0 
 24 27  1  0  0  0  0 
 27 28  1  0  0  0  0 
 27 29  1  0  0  0  0 
 27 30  1  0  0  0  0 
M  END
> <Rank>
1

> <Priority_score>
0.968

> <Reaction_type>
N-dealkylation

> <Parent_ID>
84

> <Parent_InChI>
InChI=1S/C7H15Cl2N2O2P/c8-2-4-10-14(12)11(6-3-9)5-1-7-13-14/h1-7H2,(H,10,12)

> <Parent_SMILES>
O=P1(NCCCl)OCCCN1CCCl

$$$$
Molecule 84_metabolite 2
  CDK     0516241031

 30 30  0  0  0  0  0  0  0  0999 V2000
    3.3869    1.6703    0.0000 C   0  0  0  0  0  0  0  0  0  0  0  0
    4.8641    1.4099    0.0000 H   0  0  0  0  0  0  0  0  0  0  0  0
    3.8996    3.0799    0.0000 H   0  0  0  0  0  0  0  0  0  0  0  0
    3.3869    0.1703    0.0000 C   0  0  0  0  0  0  0  0  0  0  0  0
    3.8996   -1.2394    0.0000 H   0  0  0  0  0  0  0  0  0  0  0  0
    4.8641    0.4306    0.0000 H   0  0  0  0  0  0  0  0  0  0  0  0
    2.0869   -0.5797    0.0000 O   0  0  0  0  0  0  0  0  0  0  0  0
    0.7869    0.1703    0.0000 P   0  0  0  0  0  0  0  0  0  0  0  0
   -0.6904    0.4306    0.0000 O   0  0  0  0  0  0  0  0  0  0  0  0
    0.1101   -1.6905    0.0000 N   0  0  0  0  0  0  0  0  0  0  0  0
    1.0745   -2.8393    0.0000 H   0  0  0  0  0  0  0  0  0  0  0  0
   -1.3671   -1.9513    0.0000 C   0  0  0  0  0  0  0  0  0  0  0  0
   -1.3674   -0.4513    0.0000 H   0  0  0  0  0  0  0  0  0  0  0  0
   -2.8443   -1.6911    0.0000 H   0  0  0  0  0  0  0  0  0  0  0  0
   -1.8798   -3.3609    0.0000 C   0  0  0  0  0  0  0  0  0  0  0  0
   -3.3570   -3.6217    0.0000 H   0  0  0  0  0  0  0  0  0  0  0  0
   -1.8795   -4.8609    0.0000 H   0  0  0  0  0  0  0  0  0  0  0  0
   -0.4025   -3.6211    0.0000 Cl  0  0  0  0  0  0  0  0  0  0  0  0
    0.7869    1.6703    0.0000 N   0  0  0  0  0  0  0  0  0  0  0  0
   -0.9277    2.6605    0.0000 C   0  0  0  0  0  0  0  0  0  0  0  0
   -2.4049    2.9212    0.0000 H   0  0  0  0  0  0  0  0  0  0  0  0
   -1.4410    1.2511    0.0000 H   0  0  0  0  0  0  0  0  0  0  0  0
   -0.9275    4.1605    0.0000 C   0  0  0  0  0  0  0  0  0  0  0  0
    0.3717    4.9103    0.0000 H   0  0  0  0  0  0  0  0  0  0  0  0
   -2.4047    3.9003    0.0000 H   0  0  0  0  0  0  0  0  0  0  0  0
   -1.4403    5.5702    0.0000 Cl  0  0  0  0  0  0  0  0  0  0  0  0
    2.0869    2.4203    0.0000 C   0  0  0  0  0  0  0  0  0  0  0  0
    3.0509    3.5694    0.0000 H   0  0  0  0  0  0  0  0  0  0  0  0
    1.1228    3.5694    0.0000 O   0  0  0  0  0  0  0  0  0  0  0  0
    1.6360    4.9789    0.0000 H   0  0  0  0  0  0  0  0  0  0  0  0
  1  2  1  0  0  0  0 
  1  3  1  0  0  0  0 
  1  4  1  0  0  0  0 
  4  5  1  0  0  0  0 
  4  6  1  0  0  0  0 
  4  7  1  0  0  0  0 
  7  8  1  0  0  0  0 
  8  9  2  0  0  0  0 
  8 10  1  0  0  0  0 
 10 11  1  0  0  0  0 
 10 12  1  0  0  0  0 
 12 13  1  0  0  0  0 
 12 14  1  0  0  0  0 
 12 15  1  0  0  0  0 
 15 16  1  0  0  0  0 
 15 17  1  0  0  0  0 
 15 18  1  0  0  0  0 
  8 19  1  0  0  0  0 
 19 20  1  0  0  0  0 
 20 21  1  0  0  0  0 
 20 22  1  0  0  0  0 
 20 23  1  0  0  0  0 
 23 24  1  0  0  0  0 
 23 25  1  0  0  0  0 
 23 26  1  0  0  0  0 
 19 27  1  0  0  0  0 
  1 27  1  0  0  0  0 
 27 28  1  0  0  0  0 
 27 29  1  0  0  0  0 
 29 30  1  0  0  0  0 
M  END
> <Rank>
1

> <Priority_score>
0.968

> <Reaction_type>
aliphatic_hydroxylation_(sec_carbon_next_to_SP2,in_a_ring)

> <Parent_ID>
84

> <Parent_InChI>
InChI=1S/C7H15Cl2N2O2P/c8-2-4-10-14(12)11(6-3-9)5-1-7-13-14/h1-7H2,(H,10,12)

> <Parent_SMILES>
O=P1(NCCCl)OCCCN1CCCl

$$$$
Molecule 84_metabolite 3
  CDK     0516241031

 30 30  0  0  0  0  0  0  0  0999 V2000
    1.5203   -1.7637    0.0000 C   0  0  0  0  0  0  0  0  0  0  0  0
    0.5562   -2.9128    0.0000 H   0  0  0  0  0  0  0  0  0  0  0  0
    2.4847   -2.9125    0.0000 H   0  0  0  0  0  0  0  0  0  0  0  0
    2.8198   -1.0128    0.0000 C   0  0  0  0  0  0  0  0  0  0  0  0
    3.3330   -2.4223    0.0000 H   0  0  0  0  0  0  0  0  0  0  0  0
    4.2970   -0.7525    0.0000 H   0  0  0  0  0  0  0  0  0  0  0  0
    2.8203    0.4880    0.0000 N   0  0  0  0  0  0  0  0  0  0  0  0
    4.7701    0.1438    0.0000 C   0  0  0  0  0  0  0  0  0  0  0  0
    4.0925   -1.7167    0.0000 H   0  0  0  0  0  0  0  0  0  0  0  0
    6.0690   -0.6065    0.0000 H   0  0  0  0  0  0  0  0  0  0  0  0
    5.7346    1.2926    0.0000 C   0  0  0  0  0  0  0  0  0  0  0  0
    5.2218    2.7023    0.0000 H   0  0  0  0  0  0  0  0  0  0  0  0
    7.0338    2.0424    0.0000 H   0  0  0  0  0  0  0  0  0  0  0  0
    6.6985    0.1434    0.0000 Cl  0  0  0  0  0  0  0  0  0  0  0  0
    3.3335    1.8975    0.0000 O   0  0  0  0  0  0  0  0  0  0  0  0
    1.5213    1.2380    0.0000 P   0  0  0  0  0  0  0  0  0  0  0  0
    2.4853    2.3872    0.0000 O   0  0  0  0  0  0  0  0  0  0  0  0
    0.2482    2.7545    0.0000 N   0  0  0  0  0  0  0  0  0  0  0  0
    0.7609    4.1642    0.0000 H   0  0  0  0  0  0  0  0  0  0  0  0
   -1.2289    2.4937    0.0000 C   0  0  0  0  0  0  0  0  0  0  0  0
   -2.5278    1.7434    0.0000 H   0  0  0  0  0  0  0  0  0  0  0  0
   -0.7156    1.0843    0.0000 H   0  0  0  0  0  0  0  0  0  0  0  0
   -2.1934    3.6426    0.0000 C   0  0  0  0  0  0  0  0  0  0  0  0
   -3.6705    3.3818    0.0000 H   0  0  0  0  0  0  0  0  0  0  0  0
   -0.8945    4.3929    0.0000 H   0  0  0  0  0  0  0  0  0  0  0  0
   -2.7067    5.0520    0.0000 Cl  0  0  0  0  0  0  0  0  0  0  0  0
    0.2217    0.4872    0.0000 O   0  0  0  0  0  0  0  0  0  0  0  0
    0.2213   -1.0137    0.0000 C   0  0  0  0  0  0  0  0  0  0  0  0
   -1.2559   -0.7529    0.0000 H   0  0  0  0  0  0  0  0  0  0  0  0
   -0.2919   -2.4231    0.0000 H   0  0  0  0  0  0  0  0  0  0  0  0
  1  2  1  0  0  0  0 
  1  3  1  0  0  0  0 
  1  4  1  0  0  0  0 
  4  5  1  0  0  0  0 
  4  6  1  0  0  0  0 
  4  7  1  0  0  0  0 
  7  8  1  0  0  0  0 
  8  9  1  0  0  0  0 
  8 10  1  0  0  0  0 
  8 11  1  0  0  0  0 
 11 12  1  0  0  0  0 
 11 13  1  0  0  0  0 
 11 14  1  0  0  0  0 
  7 15  1  0  0  0  0 
  7 16  1  0  0  0  0 
 16 17  2  0  0  0  0 
 16 18  1  0  0  0  0 
 18 19  1  0  0  0  0 
 18 20  1  0  0  0  0 
 20 21  1  0  0  0  0 
 20 22  1  0  0  0  0 
 20 23  1  0  0  0  0 
 23 24  1  0  0  0  0 
 23 25  1  0  0  0  0 
 23 26  1  0  0  0  0 
 16 27  1  0  0  0  0 
 27 28  1  0  0  0  0 
  1 28  1  0  0  0  0 
 28 29  1  0  0  0  0 
 28 30  1  0  0  0  0 
M  CHG  1   7   1
M  CHG  1  15  -1
M  END
> <Rank>
1

> <Priority_score>
0.968

> <Reaction_type>
N-oxidation

> <Parent_ID>
84

> <Parent_InChI>
InChI=1S/C7H15Cl2N2O2P/c8-2-4-10-14(12)11(6-3-9)5-1-7-13-14/h1-7H2,(H,10,12)

> <Parent_SMILES>
O=P1(NCCCl)OCCCN1CCCl

$$$$
Molecule 84_metabolite 4
  CDK     0516241031

 30 30  0  0  0  0  0  0  0  0999 V2000
   -2.4064   -2.7399    0.0000 C   0  0  0  0  0  0  0  0  0  0  0  0
   -3.3705   -3.8891    0.0000 H   0  0  0  0  0  0  0  0  0  0  0  0
   -1.8935   -1.3303    0.0000 H   0  0  0  0  0  0  0  0  0  0  0  0
   -0.9292   -3.0002    0.0000 C   0  0  0  0  0  0  0  0  0  0  0  0
   -1.4421   -4.4098    0.0000 H   0  0  0  0  0  0  0  0  0  0  0  0
    0.3699   -3.7501    0.0000 H   0  0  0  0  0  0  0  0  0  0  0  0
    0.3434   -1.4833    0.0000 N   0  0  0  0  0  0  0  0  0  0  0  0
    0.3432    0.0167    0.0000 H   0  0  0  0  0  0  0  0  0  0  0  0
    1.8206   -1.7436    0.0000 P   0  0  0  0  0  0  0  0  0  0  0  0
    1.3079   -3.1533    0.0000 O   0  0  0  0  0  0  0  0  0  0  0  0
    1.8206   -0.2436    0.0000 N   0  0  0  0  0  0  0  0  0  0  0  0
    0.1060    0.7466    0.0000 C   0  0  0  0  0  0  0  0  0  0  0  0
   -1.3711    1.0073    0.0000 H   0  0  0  0  0  0  0  0  0  0  0  0
   -0.4072   -0.6628    0.0000 H   0  0  0  0  0  0  0  0  0  0  0  0
    0.1063    2.2466    0.0000 C   0  0  0  0  0  0  0  0  0  0  0  0
    1.4054    2.9964    0.0000 H   0  0  0  0  0  0  0  0  0  0  0  0
   -1.3710    1.9864    0.0000 H   0  0  0  0  0  0  0  0  0  0  0  0
   -0.4065    3.6562    0.0000 Cl  0  0  0  0  0  0  0  0  0  0  0  0
    3.1206    0.5064    0.0000 C   0  0  0  0  0  0  0  0  0  0  0  0
    4.0847    1.6555    0.0000 H   0  0  0  0  0  0  0  0  0  0  0  0
    2.1566    1.6555    0.0000 H   0  0  0  0  0  0  0  0  0  0  0  0
    4.4206   -0.2436    0.0000 C   0  0  0  0  0  0  0  0  0  0  0  0
    5.8979   -0.5040    0.0000 H   0  0  0  0  0  0  0  0  0  0  0  0
    4.4206   -1.7436    0.0000 C   0  0  0  0  0  0  0  0  0  0  0  0
    4.9333   -3.1533    0.0000 H   0  0  0  0  0  0  0  0  0  0  0  0
    5.8979   -1.4833    0.0000 H   0  0  0  0  0  0  0  0  0  0  0  0
    3.1206   -2.4936    0.0000 O   0  0  0  0  0  0  0  0  0  0  0  0
    4.9333    1.1660    0.0000 O   0  0  0  0  0  0  0  0  0  0  0  0
    6.4105    1.4268    0.0000 H   0  0  0  0  0  0  0  0  0  0  0  0
   -3.7055   -1.9901    0.0000 Cl  0  0  0  0  0  0  0  0  0  0  0  0
  1  2  1  0  0  0  0 
  1  3  1  0  0  0  0 
  1  4  1  0  0  0  0 
  4  5  1  0  0  0  0 
  4  6  1  0  0  0  0 
  4  7  1  0  0  0  0 
  7  8  1  0  0  0  0 
  7  9  1  0  0  0  0 
  9 10  2  0  0  0  0 
  9 11  1  0  0  0  0 
 11 12  1  0  0  0  0 
 12 13  1  0  0  0  0 
 12 14  1  0  0  0  0 
 12 15  1  0  0  0  0 
 15 16  1  0  0  0  0 
 15 17  1  0  0  0  0 
 15 18  1  0  0  0  0 
 11 19  1  0  0  0  0 
 19 20  1  0  0  0  0 
 19 21  1  0  0  0  0 
 19 22  1  0  0  0  0 
 22 23  1  0  0  0  0 
 22 24  1  0  0  0  0 
 24 25  1  0  0  0  0 
 24 26  1  0  0  0  0 
 24 27  1  0  0  0  0 
  9 27  1  0  0  0  0 
 22 28  1  0  0  0  0 
 28 29  1  0  0  0  0 
  1 30  1  0  0  0  0 
M  END
> <Rank>
1

> <Priority_score>
0.968

> <Reaction_type>
aliphatic_hydroxylation_(sec_carbon_in_a_ringA)

> <Parent_ID>
84

> <Parent_InChI>
InChI=1S/C7H15Cl2N2O2P/c8-2-4-10-14(12)11(6-3-9)5-1-7-13-14/h1-7H2,(H,10,12)

> <Parent_SMILES>
O=P1(NCCCl)OCCCN1CCCl

$$$$
Molecule 84_metabolite 5
  CDK     0516241031

 32 31  0  0  0  0  0  0  0  0999 V2000
    6.9109   -0.9900    0.0000 C   0  0  0  0  0  0  0  0  0  0  0  0
    5.9467   -2.1391    0.0000 H   0  0  0  0  0  0  0  0  0  0  0  0
    7.8751   -2.1391    0.0000 H   0  0  0  0  0  0  0  0  0  0  0  0
    5.1962   -0.0000    0.0000 C   0  0  0  0  0  0  0  0  0  0  0  0
    6.1603    1.1491    0.0000 H   0  0  0  0  0  0  0  0  0  0  0  0
    4.2320    1.1491    0.0000 H   0  0  0  0  0  0  0  0  0  0  0  0
    3.8971   -0.7500    0.0000 N   0  0  0  0  0  0  0  0  0  0  0  0
    3.8971   -2.2500    0.0000 H   0  0  0  0  0  0  0  0  0  0  0  0
    2.1824    0.2400    0.0000 C   0  0  0  0  0  0  0  0  0  0  0  0
    3.1466    1.3891    0.0000 H   0  0  0  0  0  0  0  0  0  0  0  0
    1.2182    1.3891    0.0000 H   0  0  0  0  0  0  0  0  0  0  0  0
    0.8833   -0.5100    0.0000 C   0  0  0  0  0  0  0  0  0  0  0  0
   -0.4157    0.2400    0.0000 H   0  0  0  0  0  0  0  0  0  0  0  0
   -0.0808   -1.6591    0.0000 H   0  0  0  0  0  0  0  0  0  0  0  0
    1.8475   -1.6591    0.0000 Cl  0  0  0  0  0  0  0  0  0  0  0  0
    8.2099   -0.2400    0.0000 C   0  0  0  0  0  0  0  0  0  0  0  0
    9.1741    0.9091    0.0000 H   0  0  0  0  0  0  0  0  0  0  0  0
    7.2457    0.9091    0.0000 H   0  0  0  0  0  0  0  0  0  0  0  0
    9.5090   -0.9900    0.0000 O   0  0  0  0  0  0  0  0  0  0  0  0
   11.2237   -0.0000    0.0000 P   0  0  0  0  0  0  0  0  0  0  0  0
   12.1879    1.1491    0.0000 O   0  0  0  0  0  0  0  0  0  0  0  0
   12.5227   -0.7500    0.0000 N   0  0  0  0  0  0  0  0  0  0  0  0
   13.8218   -0.0000    0.0000 H   0  0  0  0  0  0  0  0  0  0  0  0
   12.5227   -2.2500    0.0000 C   0  0  0  0  0  0  0  0  0  0  0  0
   12.0097   -3.6595    0.0000 H   0  0  0  0  0  0  0  0  0  0  0  0
   11.0455   -1.9895    0.0000 H   0  0  0  0  0  0  0  0  0  0  0  0
   13.8218   -3.0000    0.0000 C   0  0  0  0  0  0  0  0  0  0  0  0
   13.8218   -4.5000    0.0000 H   0  0  0  0  0  0  0  0  0  0  0  0
   14.3348   -1.5905    0.0000 H   0  0  0  0  0  0  0  0  0  0  0  0
   15.2990   -3.2605    0.0000 Cl  0  0  0  0  0  0  0  0  0  0  0  0
   10.2595    1.1491    0.0000 O   0  0  0  0  0  0  0  0  0  0  0  0
   10.7725    2.5586    0.0000 H   0  0  0  0  0  0  0  0  0  0  0  0
  1  2  1  0  0  0  0 
  1  3  1  0  0  0  0 
  1  4  1  0  0  0  0 
  4  5  1  0  0  0  0 
  4  6  1  0  0  0  0 
  4  7  1  0  0  0  0 
  7  8  1  0  0  0  0 
  7  9  1  0  0  0  0 
  9 10  1  0  0  0  0 
  9 11  1  0  0  0  0 
  9 12  1  0  0  0  0 
 12 13  1  0  0  0  0 
 12 14  1  0  0  0  0 
 12 15  1  0  0  0  0 
  1 16  1  0  0  0  0 
 16 17  1  0  0  0  0 
 16 18  1  0  0  0  0 
 16 19  1  0  0  0  0 
 19 20  1  0  0  0  0 
 20 21  2  0  0  0  0 
 20 22  1  0  0  0  0 
 22 23  1  0  0  0  0 
 22 24  1  0  0  0  0 
 24 25  1  0  0  0  0 
 24 26  1  0  0  0  0 
 24 27  1  0  0  0  0 
 27 28  1  0  0  0  0 
 27 29  1  0  0  0  0 
 27 30  1  0  0  0  0 
 20 31  1  0  0  0  0 
 31 32  1  0  0  0  0 
M  END
> <Rank>
1

> <Priority_score>
0.968

> <Reaction_type>
hydrolysis_(X=X-X_exclude_phosphate)

> <Parent_ID>
84

> <Parent_InChI>
InChI=1S/C7H15Cl2N2O2P/c8-2-4-10-14(12)11(6-3-9)5-1-7-13-14/h1-7H2,(H,10,12)

> <Parent_SMILES>
O=P1(NCCCl)OCCCN1CCCl

$$$$
Molecule 84_metabolite 6
  CDK     0516241031

 28 28  0  0  0  0  0  0  0  0999 V2000
    3.3869    1.6704    0.0000 C   0  0  0  0  0  0  0  0  0  0  0  0
    4.8641    1.4101    0.0000 H   0  0  0  0  0  0  0  0  0  0  0  0
    3.8996    3.0801    0.0000 H   0  0  0  0  0  0  0  0  0  0  0  0
    3.3869    0.1704    0.0000 C   0  0  0  0  0  0  0  0  0  0  0  0
    3.8996   -1.2392    0.0000 H   0  0  0  0  0  0  0  0  0  0  0  0
    4.8641    0.4307    0.0000 H   0  0  0  0  0  0  0  0  0  0  0  0
    2.0869   -0.5796    0.0000 O   0  0  0  0  0  0  0  0  0  0  0  0
    0.7869    0.1704    0.0000 P   0  0  0  0  0  0  0  0  0  0  0  0
   -0.6904    0.4307    0.0000 O   0  0  0  0  0  0  0  0  0  0  0  0
    0.1101   -1.6903    0.0000 N   0  0  0  0  0  0  0  0  0  0  0  0
    1.0745   -2.8392    0.0000 H   0  0  0  0  0  0  0  0  0  0  0  0
   -1.3671   -1.9511    0.0000 C   0  0  0  0  0  0  0  0  0  0  0  0
   -1.3674   -0.4511    0.0000 H   0  0  0  0  0  0  0  0  0  0  0  0
   -2.8443   -1.6909    0.0000 H   0  0  0  0  0  0  0  0  0  0  0  0
   -1.8798   -3.3608    0.0000 C   0  0  0  0  0  0  0  0  0  0  0  0
   -3.3570   -3.6215    0.0000 H   0  0  0  0  0  0  0  0  0  0  0  0
   -1.8795   -4.8608    0.0000 H   0  0  0  0  0  0  0  0  0  0  0  0
   -0.4025   -3.6209    0.0000 Cl  0  0  0  0  0  0  0  0  0  0  0  0
    0.7869    1.6704    0.0000 N   0  0  0  0  0  0  0  0  0  0  0  0
   -0.9277    2.6607    0.0000 C   0  0  0  0  0  0  0  0  0  0  0  0
   -2.4049    2.9214    0.0000 H   0  0  0  0  0  0  0  0  0  0  0  0
   -1.4410    1.2512    0.0000 H   0  0  0  0  0  0  0  0  0  0  0  0
   -0.9275    4.1607    0.0000 C   0  0  0  0  0  0  0  0  0  0  0  0
   -2.2264    4.9109    0.0000 H   0  0  0  0  0  0  0  0  0  0  0  0
    0.5497    3.9000    0.0000 H   0  0  0  0  0  0  0  0  0  0  0  0
   -0.4142    5.5702    0.0000 Cl  0  0  0  0  0  0  0  0  0  0  0  0
    2.0869    2.4204    0.0000 C   0  0  0  0  0  0  0  0  0  0  0  0
    2.0869    3.9204    0.0000 O   0  0  0  0  0  0  0  0  0  0  0  0
  1  2  1  0  0  0  0 
  1  3  1  0  0  0  0 
  1  4  1  0  0  0  0 
  4  5  1  0  0  0  0 
  4  6  1  0  0  0  0 
  4  7  1  0  0  0  0 
  7  8  1  0  0  0  0 
  8  9  2  0  0  0  0 
  8 10  1  0  0  0  0 
 10 11  1  0  0  0  0 
 10 12  1  0  0  0  0 
 12 13  1  0  0  0  0 
 12 14  1  0  0  0  0 
 12 15  1  0  0  0  0 
 15 16  1  0  0  0  0 
 15 17  1  0  0  0  0 
 15 18  1  0  0  0  0 
  8 19  1  0  0  0  0 
 19 20  1  0  0  0  0 
 20 21  1  0  0  0  0 
 20 22  1  0  0  0  0 
 20 23  1  0  0  0  0 
 23 24  1  0  0  0  0 
 23 25  1  0  0  0  0 
 23 26  1  0  0  0  0 
 19 27  1  0  0  0  0 
  1 27  1  0  0  0  0 
 27 28  2  0  0  0  0 
M  END
> <Rank>
1

> <Priority_score>
0.968

> <Reaction_type>
oxidation_(amine_in_a_ring)

> <Parent_ID>
84

> <Parent_InChI>
InChI=1S/C7H15Cl2N2O2P/c8-2-4-10-14(12)11(6-3-9)5-1-7-13-14/h1-7H2,(H,10,12)

> <Parent_SMILES>
O=P1(NCCCl)OCCCN1CCCl

$$$$
Molecule 84_metabolite 7
  CDK     0516241031

 30 30  0  0  0  0  0  0  0  0999 V2000
   -1.8797   -0.9610    0.0000 C   0  0  0  0  0  0  0  0  0  0  0  0
   -3.3570   -0.7007    0.0000 H   0  0  0  0  0  0  0  0  0  0  0  0
   -2.3925   -2.3707    0.0000 H   0  0  0  0  0  0  0  0  0  0  0  0
   -0.5797   -1.7110    0.0000 C   0  0  0  0  0  0  0  0  0  0  0  0
   -1.5438   -2.8602    0.0000 H   0  0  0  0  0  0  0  0  0  0  0  0
    0.3843   -2.8602    0.0000 H   0  0  0  0  0  0  0  0  0  0  0  0
    0.7203   -0.9610    0.0000 N   0  0  0  0  0  0  0  0  0  0  0  0
    2.4348   -1.9513    0.0000 C   0  0  0  0  0  0  0  0  0  0  0  0
    1.4705   -3.1002    0.0000 H   0  0  0  0  0  0  0  0  0  0  0  0
    3.7340   -1.2015    0.0000 C   0  0  0  0  0  0  0  0  0  0  0  0
    3.7342    0.2985    0.0000 H   0  0  0  0  0  0  0  0  0  0  0  0
    5.2113   -0.9413    0.0000 H   0  0  0  0  0  0  0  0  0  0  0  0
    4.2468   -2.6111    0.0000 Cl  0  0  0  0  0  0  0  0  0  0  0  0
    3.3988   -3.1005    0.0000 O   0  0  0  0  0  0  0  0  0  0  0  0
    2.8856   -4.5100    0.0000 H   0  0  0  0  0  0  0  0  0  0  0  0
    0.7203    0.5390    0.0000 P   0  0  0  0  0  0  0  0  0  0  0  0
    2.1975    0.2787    0.0000 O   0  0  0  0  0  0  0  0  0  0  0  0
    1.3971    2.3997    0.0000 N   0  0  0  0  0  0  0  0  0  0  0  0
    2.8742    2.6605    0.0000 H   0  0  0  0  0  0  0  0  0  0  0  0
    0.4326    3.5486    0.0000 C   0  0  0  0  0  0  0  0  0  0  0  0
   -0.8665    4.2983    0.0000 H   0  0  0  0  0  0  0  0  0  0  0  0
   -0.5313    2.3993    0.0000 H   0  0  0  0  0  0  0  0  0  0  0  0
    0.9454    4.9582    0.0000 C   0  0  0  0  0  0  0  0  0  0  0  0
   -0.0190    6.1071    0.0000 H   0  0  0  0  0  0  0  0  0  0  0  0
    2.2446    4.2085    0.0000 H   0  0  0  0  0  0  0  0  0  0  0  0
    1.9093    6.1075    0.0000 Cl  0  0  0  0  0  0  0  0  0  0  0  0
   -0.5797    1.2890    0.0000 O   0  0  0  0  0  0  0  0  0  0  0  0
   -1.8797    0.5390    0.0000 C   0  0  0  0  0  0  0  0  0  0  0  0
   -2.3925    1.9486    0.0000 H   0  0  0  0  0  0  0  0  0  0  0  0
   -3.3570    0.2787    0.0000 H   0  0  0  0  0  0  0  0  0  0  0  0
  1  2  1  0  0  0  0 
  1  3  1  0  0  0  0 
  1  4  1  0  0  0  0 
  4  5  1  0  0  0  0 
  4  6  1  0  0  0  0 
  4  7  1  0  0  0  0 
  7  8  1  0  0  0  0 
  8  9  1  0  0  0  0 
  8 10  1  0  0  0  0 
 10 11  1  0  0  0  0 
 10 12  1  0  0  0  0 
 10 13  1  0  0  0  0 
  8 14  1  0  0  0  0 
 14 15  1  0  0  0  0 
  7 16  1  0  0  0  0 
 16 17  2  0  0  0  0 
 16 18  1  0  0  0  0 
 18 19  1  0  0  0  0 
 18 20  1  0  0  0  0 
 20 21  1  0  0  0  0 
 20 22  1  0  0  0  0 
 20 23  1  0  0  0  0 
 23 24  1  0  0  0  0 
 23 25  1  0  0  0  0 
 23 26  1  0  0  0  0 
 16 27  1  0  0  0  0 
 27 28  1  0  0  0  0 
  1 28  1  0  0  0  0 
 28 29  1  0  0  0  0 
 28 30  1  0  0  0  0 
M  END
> <Rank>
7

> <Priority_score>
0.956

> <Reaction_type>
aliphatic hydroxylation

> <Parent_ID>
84

> <Parent_InChI>
InChI=1S/C7H15Cl2N2O2P/c8-2-4-10-14(12)11(6-3-9)5-1-7-13-14/h1-7H2,(H,10,12)

> <Parent_SMILES>
O=P1(NCCCl)OCCCN1CCCl

$$$$
Molecule 84_metabolite 8
  CDK     0516241031

  7  6  0  0  0  0  0  0  0  0999 V2000
    2.7500   -0.4868    0.0000 C   0  0  0  0  0  0  0  0  0  0  0  0
    2.7500   -1.9868    0.0000 H   0  0  0  0  0  0  0  0  0  0  0  0
    4.2272   -0.7473    0.0000 H   0  0  0  0  0  0  0  0  0  0  0  0
    1.4510    0.2632    0.0000 C   0  0  0  0  0  0  0  0  0  0  0  0
    1.4510    1.7632    0.0000 H   0  0  0  0  0  0  0  0  0  0  0  0
    0.1520   -0.4868    0.0000 O   0  0  0  0  0  0  0  0  0  0  0  0
    3.2631    0.9227    0.0000 Cl  0  0  0  0  0  0  0  0  0  0  0  0
  1  2  1  0  0  0  0 
  1  3  1  0  0  0  0 
  1  4  1  0  0  0  0 
  4  5  1  0  0  0  0 
  4  6  2  0  0  0  0 
  1  7  1  0  0  0  0 
M  END
> <Rank>
7

> <Priority_score>
0.956

> <Reaction_type>
N-dealkylation

> <Parent_ID>
84

> <Parent_InChI>
InChI=1S/C7H15Cl2N2O2P/c8-2-4-10-14(12)11(6-3-9)5-1-7-13-14/h1-7H2,(H,10,12)

> <Parent_SMILES>
O=P1(NCCCl)OCCCN1CCCl

$$$$
Molecule 84_metabolite 9
  CDK     0516241031

 23 23  0  0  0  0  0  0  0  0999 V2000
    3.3125    2.9609    0.0000 C   0  0  0  0  0  0  0  0  0  0  0  0
    4.7898    2.7006    0.0000 H   0  0  0  0  0  0  0  0  0  0  0  0
    3.8253    4.3706    0.0000 H   0  0  0  0  0  0  0  0  0  0  0  0
    2.0125    3.7109    0.0000 C   0  0  0  0  0  0  0  0  0  0  0  0
    2.9766    4.8601    0.0000 H   0  0  0  0  0  0  0  0  0  0  0  0
    1.0485    4.8601    0.0000 H   0  0  0  0  0  0  0  0  0  0  0  0
    0.7125    2.9609    0.0000 N   0  0  0  0  0  0  0  0  0  0  0  0
   -0.5864    3.7111    0.0000 H   0  0  0  0  0  0  0  0  0  0  0  0
    0.7125    1.4609    0.0000 P   0  0  0  0  0  0  0  0  0  0  0  0
   -0.7647    1.7212    0.0000 O   0  0  0  0  0  0  0  0  0  0  0  0
    0.0357   -0.3998    0.0000 N   0  0  0  0  0  0  0  0  0  0  0  0
    1.0002   -1.5487    0.0000 H   0  0  0  0  0  0  0  0  0  0  0  0
   -1.4414   -0.6606    0.0000 C   0  0  0  0  0  0  0  0  0  0  0  0
   -1.4417    0.8394    0.0000 H   0  0  0  0  0  0  0  0  0  0  0  0
   -2.9187   -0.4005    0.0000 H   0  0  0  0  0  0  0  0  0  0  0  0
   -1.9542   -2.0703    0.0000 C   0  0  0  0  0  0  0  0  0  0  0  0
   -3.4313   -2.3310    0.0000 H   0  0  0  0  0  0  0  0  0  0  0  0
   -1.9538   -3.5703    0.0000 H   0  0  0  0  0  0  0  0  0  0  0  0
   -0.4769   -2.3304    0.0000 Cl  0  0  0  0  0  0  0  0  0  0  0  0
    2.0125    0.7109    0.0000 O   0  0  0  0  0  0  0  0  0  0  0  0
    3.3125    1.4609    0.0000 C   0  0  0  0  0  0  0  0  0  0  0  0
    3.8253    0.0513    0.0000 H   0  0  0  0  0  0  0  0  0  0  0  0
    4.7898    1.7212    0.0000 H   0  0  0  0  0  0  0  0  0  0  0  0
  1  2  1  0  0  0  0 
  1  3  1  0  0  0  0 
  1  4  1  0  0  0  0 
  4  5  1  0  0  0  0 
  4  6  1  0  0  0  0 
  4  7  1  0  0  0  0 
  7  8  1  0  0  0  0 
  7  9  1  0  0  0  0 
  9 10  2  0  0  0  0 
  9 11  1  0  0  0  0 
 11 12  1  0  0  0  0 
 11 13  1  0  0  0  0 
 13 14  1  0  0  0  0 
 13 15  1  0  0  0  0 
 13 16  1  0  0  0  0 
 16 17  1  0  0  0  0 
 16 18  1  0  0  0  0 
 16 19  1  0  0  0  0 
  9 20  1  0  0  0  0 
 20 21  1  0  0  0  0 
  1 21  1  0  0  0  0 
 21 22  1  0  0  0  0 
 21 23  1  0  0  0  0 
M  END
> <Rank>
7

> <Priority_score>
0.956

> <Reaction_type>
N-dealkylation_(tertiaryN-CH2-alkyl)

> <Parent_ID>
84

> <Parent_InChI>
InChI=1S/C7H15Cl2N2O2P/c8-2-4-10-14(12)11(6-3-9)5-1-7-13-14/h1-7H2,(H,10,12)

> <Parent_SMILES>
O=P1(NCCCl)OCCCN1CCCl

$$$$
Molecule 84_metabolite 10
  CDK     0516241031

  9  8  0  0  0  0  0  0  0  0999 V2000
    1.2990   -0.7500    0.0000 C   0  0  0  0  0  0  0  0  0  0  0  0
    0.0000    0.0000    0.0000 H   0  0  0  0  0  0  0  0  0  0  0  0
    0.3349   -1.8991    0.0000 H   0  0  0  0  0  0  0  0  0  0  0  0
    2.5981   -0.0000    0.0000 C   0  0  0  0  0  0  0  0  0  0  0  0
    3.5623    1.1491    0.0000 H   0  0  0  0  0  0  0  0  0  0  0  0
    1.6339    1.1491    0.0000 H   0  0  0  0  0  0  0  0  0  0  0  0
    3.8971   -0.7500    0.0000 O   0  0  0  0  0  0  0  0  0  0  0  0
    5.1962   -0.0000    0.0000 H   0  0  0  0  0  0  0  0  0  0  0  0
    2.2632   -1.8991    0.0000 Cl  0  0  0  0  0  0  0  0  0  0  0  0
  1  2  1  0  0  0  0 
  1  3  1  0  0  0  0 
  1  4  1  0  0  0  0 
  4  5  1  0  0  0  0 
  4  6  1  0  0  0  0 
  4  7  1  0  0  0  0 
  7  8  1  0  0  0  0 
  1  9  1  0  0  0  0 
M  END
> <Rank>
7

> <Priority_score>
0.956

> <Reaction_type>
N-dealkylation_(tertiaryN-CH2-alkyl)

> <Parent_ID>
84

> <Parent_InChI>
InChI=1S/C7H15Cl2N2O2P/c8-2-4-10-14(12)11(6-3-9)5-1-7-13-14/h1-7H2,(H,10,12)

> <Parent_SMILES>
O=P1(NCCCl)OCCCN1CCCl

$$$$
Molecule 84_metabolite 11
  CDK     0516241031

 10  9  0  0  0  0  0  0  0  0999 V2000
    1.2990   -0.7500    0.0000 C   0  0  0  0  0  0  0  0  0  0  0  0
    0.0000    0.0000    0.0000 H   0  0  0  0  0  0  0  0  0  0  0  0
    0.3349   -1.8991    0.0000 H   0  0  0  0  0  0  0  0  0  0  0  0
    2.5981   -0.0000    0.0000 C   0  0  0  0  0  0  0  0  0  0  0  0
    3.5623    1.1491    0.0000 H   0  0  0  0  0  0  0  0  0  0  0  0
    1.6339    1.1491    0.0000 H   0  0  0  0  0  0  0  0  0  0  0  0
    3.8971   -0.7500    0.0000 N   0  0  0  0  0  0  0  0  0  0  0  0
    5.1962   -0.0000    0.0000 H   0  0  0  0  0  0  0  0  0  0  0  0
    3.8971   -2.2500    0.0000 H   0  0  0  0  0  0  0  0  0  0  0  0
    2.2632   -1.8991    0.0000 Cl  0  0  0  0  0  0  0  0  0  0  0  0
  1  2  1  0  0  0  0 
  1  3  1  0  0  0  0 
  1  4  1  0  0  0  0 
  4  5  1  0  0  0  0 
  4  6  1  0  0  0  0 
  4  7  1  0  0  0  0 
  7  8  1  0  0  0  0 
  7  9  1  0  0  0  0 
  1 10  1  0  0  0  0 
M  END
> <Rank>
11

> <Priority_score>
0.9

> <Reaction_type>
hydrolysis_(X=X-X_exclude_phosphate)

> <Parent_ID>
84

> <Parent_InChI>
InChI=1S/C7H15Cl2N2O2P/c8-2-4-10-14(12)11(6-3-9)5-1-7-13-14/h1-7H2,(H,10,12)

> <Parent_SMILES>
O=P1(NCCCl)OCCCN1CCCl

$$$$
Molecule 84_metabolite 12
  CDK     0516241031

 30 30  0  0  0  0  0  0  0  0999 V2000
    3.3869    1.6703    0.0000 C   0  0  0  0  0  0  0  0  0  0  0  0
    4.8641    1.4099    0.0000 H   0  0  0  0  0  0  0  0  0  0  0  0
    3.8996    3.0799    0.0000 H   0  0  0  0  0  0  0  0  0  0  0  0
    2.0869    2.4203    0.0000 C   0  0  0  0  0  0  0  0  0  0  0  0
    3.0509    3.5694    0.0000 H   0  0  0  0  0  0  0  0  0  0  0  0
    1.1228    3.5694    0.0000 H   0  0  0  0  0  0  0  0  0  0  0  0
    0.7869    1.6703    0.0000 N   0  0  0  0  0  0  0  0  0  0  0  0
   -0.9277    2.6605    0.0000 C   0  0  0  0  0  0  0  0  0  0  0  0
   -1.4410    1.2511    0.0000 H   0  0  0  0  0  0  0  0  0  0  0  0
   -2.4049    2.9212    0.0000 H   0  0  0  0  0  0  0  0  0  0  0  0
   -0.9275    4.1605    0.0000 C   0  0  0  0  0  0  0  0  0  0  0  0
    0.3717    4.9103    0.0000 H   0  0  0  0  0  0  0  0  0  0  0  0
   -1.4403    5.5702    0.0000 H   0  0  0  0  0  0  0  0  0  0  0  0
   -2.4047    3.9003    0.0000 Cl  0  0  0  0  0  0  0  0  0  0  0  0
    0.7869    0.1703    0.0000 P   0  0  0  0  0  0  0  0  0  0  0  0
   -0.6904    0.4306    0.0000 O   0  0  0  0  0  0  0  0  0  0  0  0
    0.1101   -1.6905    0.0000 N   0  0  0  0  0  0  0  0  0  0  0  0
    1.0745   -2.8393    0.0000 H   0  0  0  0  0  0  0  0  0  0  0  0
   -1.3671   -1.9513    0.0000 C   0  0  0  0  0  0  0  0  0  0  0  0
   -2.8443   -1.6911    0.0000 H   0  0  0  0  0  0  0  0  0  0  0  0
   -1.8798   -3.3609    0.0000 C   0  0  0  0  0  0  0  0  0  0  0  0
   -3.3570   -3.6217    0.0000 H   0  0  0  0  0  0  0  0  0  0  0  0
   -0.4025   -3.6211    0.0000 H   0  0  0  0  0  0  0  0  0  0  0  0
   -1.8795   -4.8609    0.0000 Cl  0  0  0  0  0  0  0  0  0  0  0  0
   -1.3674   -0.4513    0.0000 O   0  0  0  0  0  0  0  0  0  0  0  0
   -2.6666    0.2985    0.0000 H   0  0  0  0  0  0  0  0  0  0  0  0
    2.0869   -0.5797    0.0000 O   0  0  0  0  0  0  0  0  0  0  0  0
    3.3869    0.1703    0.0000 C   0  0  0  0  0  0  0  0  0  0  0  0
    3.8996   -1.2394    0.0000 H   0  0  0  0  0  0  0  0  0  0  0  0
    4.8641    0.4306    0.0000 H   0  0  0  0  0  0  0  0  0  0  0  0
  1  2  1  0  0  0  0 
  1  3  1  0  0  0  0 
  1  4  1  0  0  0  0 
  4  5  1  0  0  0  0 
  4  6  1  0  0  0  0 
  4  7  1  0  0  0  0 
  7  8  1  0  0  0  0 
  8  9  1  0  0  0  0 
  8 10  1  0  0  0  0 
  8 11  1  0  0  0  0 
 11 12  1  0  0  0  0 
 11 13  1  0  0  0  0 
 11 14  1  0  0  0  0 
  7 15  1  0  0  0  0 
 15 16  2  0  0  0  0 
 15 17  1  0  0  0  0 
 17 18  1  0  0  0  0 
 17 19  1  0  0  0  0 
 19 20  1  0  0  0  0 
 19 21  1  0  0  0  0 
 21 22  1  0  0  0  0 
 21 23  1  0  0  0  0 
 21 24  1  0  0  0  0 
 19 25  1  0  0  0  0 
 25 26  1  0  0  0  0 
 15 27  1  0  0  0  0 
 27 28  1  0  0  0  0 
  1 28  1  0  0  0  0 
 28 29  1  0  0  0  0 
 28 30  1  0  0  0  0 
M  END
> <Rank>
11

> <Priority_score>
0.9

> <Reaction_type>
aliphatic hydroxylation

> <Parent_ID>
84

> <Parent_InChI>
InChI=1S/C7H15Cl2N2O2P/c8-2-4-10-14(12)11(6-3-9)5-1-7-13-14/h1-7H2,(H,10,12)

> <Parent_SMILES>
O=P1(NCCCl)OCCCN1CCCl

$$$$
Molecule 84_metabolite 13
  CDK     0516241031

 30 30  0  0  0  0  0  0  0  0999 V2000
   -1.8797   -0.9610    0.0000 C   0  0  0  0  0  0  0  0  0  0  0  0
   -3.3570   -0.7007    0.0000 H   0  0  0  0  0  0  0  0  0  0  0  0
   -2.3925   -2.3707    0.0000 H   0  0  0  0  0  0  0  0  0  0  0  0
   -0.5797   -1.7110    0.0000 C   0  0  0  0  0  0  0  0  0  0  0  0
   -1.5438   -2.8602    0.0000 H   0  0  0  0  0  0  0  0  0  0  0  0
    0.3843   -2.8602    0.0000 H   0  0  0  0  0  0  0  0  0  0  0  0
    0.7203   -0.9610    0.0000 N   0  0  0  0  0  0  0  0  0  0  0  0
    2.4348   -1.9513    0.0000 C   0  0  0  0  0  0  0  0  0  0  0  0
    1.4705   -3.1002    0.0000 H   0  0  0  0  0  0  0  0  0  0  0  0
    3.3988   -3.1005    0.0000 H   0  0  0  0  0  0  0  0  0  0  0  0
    3.7340   -1.2015    0.0000 C   0  0  0  0  0  0  0  0  0  0  0  0
    3.7342    0.2985    0.0000 H   0  0  0  0  0  0  0  0  0  0  0  0
    5.2113   -0.9413    0.0000 H   0  0  0  0  0  0  0  0  0  0  0  0
    4.2468   -2.6111    0.0000 Cl  0  0  0  0  0  0  0  0  0  0  0  0
    0.7203    0.5390    0.0000 P   0  0  0  0  0  0  0  0  0  0  0  0
    2.1975    0.2787    0.0000 O   0  0  0  0  0  0  0  0  0  0  0  0
    1.3971    2.3997    0.0000 N   0  0  0  0  0  0  0  0  0  0  0  0
    0.4326    3.5486    0.0000 C   0  0  0  0  0  0  0  0  0  0  0  0
   -0.8665    4.2983    0.0000 H   0  0  0  0  0  0  0  0  0  0  0  0
   -0.5313    2.3993    0.0000 H   0  0  0  0  0  0  0  0  0  0  0  0
    0.9454    4.9582    0.0000 C   0  0  0  0  0  0  0  0  0  0  0  0
   -0.0190    6.1071    0.0000 H   0  0  0  0  0  0  0  0  0  0  0  0
    2.2446    4.2085    0.0000 H   0  0  0  0  0  0  0  0  0  0  0  0
    1.9093    6.1075    0.0000 Cl  0  0  0  0  0  0  0  0  0  0  0  0
    2.8742    2.6605    0.0000 O   0  0  0  0  0  0  0  0  0  0  0  0
    3.3870    4.0702    0.0000 H   0  0  0  0  0  0  0  0  0  0  0  0
   -0.5797    1.2890    0.0000 O   0  0  0  0  0  0  0  0  0  0  0  0
   -1.8797    0.5390    0.0000 C   0  0  0  0  0  0  0  0  0  0  0  0
   -2.3925    1.9486    0.0000 H   0  0  0  0  0  0  0  0  0  0  0  0
   -3.3570    0.2787    0.0000 H   0  0  0  0  0  0  0  0  0  0  0  0
  1  2  1  0  0  0  0 
  1  3  1  0  0  0  0 
  1  4  1  0  0  0  0 
  4  5  1  0  0  0  0 
  4  6  1  0  0  0  0 
  4  7  1  0  0  0  0 
  7  8  1  0  0  0  0 
  8  9  1  0  0  0  0 
  8 10  1  0  0  0  0 
  8 11  1  0  0  0  0 
 11 12  1  0  0  0  0 
 11 13  1  0  0  0  0 
 11 14  1  0  0  0  0 
  7 15  1  0  0  0  0 
 15 16  2  0  0  0  0 
 15 17  1  0  0  0  0 
 17 18  1  0  0  0  0 
 18 19  1  0  0  0  0 
 18 20  1  0  0  0  0 
 18 21  1  0  0  0  0 
 21 22  1  0  0  0  0 
 21 23  1  0  0  0  0 
 21 24  1  0  0  0  0 
 17 25  1  0  0  0  0 
 25 26  1  0  0  0  0 
 15 27  1  0  0  0  0 
 27 28  1  0  0  0  0 
  1 28  1  0  0  0  0 
 28 29  1  0  0  0  0 
 28 30  1  0  0  0  0 
M  END
> <Rank>
11

> <Priority_score>
0.9

> <Reaction_type>
amine hydroxylation

> <Parent_ID>
84

> <Parent_InChI>
InChI=1S/C7H15Cl2N2O2P/c8-2-4-10-14(12)11(6-3-9)5-1-7-13-14/h1-7H2,(H,10,12)

> <Parent_SMILES>
O=P1(NCCCl)OCCCN1CCCl

$$$$
Molecule 84_metabolite 14
  CDK     0516241031

 23 23  0  0  0  0  0  0  0  0999 V2000
    3.8981    1.4091    0.0000 C   0  0  0  0  0  0  0  0  0  0  0  0
    5.3753    1.1488    0.0000 H   0  0  0  0  0  0  0  0  0  0  0  0
    4.4108    2.8187    0.0000 H   0  0  0  0  0  0  0  0  0  0  0  0
    2.5981    2.1591    0.0000 C   0  0  0  0  0  0  0  0  0  0  0  0
    3.5621    3.3082    0.0000 H   0  0  0  0  0  0  0  0  0  0  0  0
    1.6340    3.3082    0.0000 H   0  0  0  0  0  0  0  0  0  0  0  0
    1.2981    1.4091    0.0000 N   0  0  0  0  0  0  0  0  0  0  0  0
   -0.4165    2.3994    0.0000 C   0  0  0  0  0  0  0  0  0  0  0  0
    0.5479    3.5483    0.0000 H   0  0  0  0  0  0  0  0  0  0  0  0
   -1.3805    3.5486    0.0000 H   0  0  0  0  0  0  0  0  0  0  0  0
   -1.7156    1.6496    0.0000 C   0  0  0  0  0  0  0  0  0  0  0  0
   -1.7159    0.1496    0.0000 H   0  0  0  0  0  0  0  0  0  0  0  0
   -3.1929    1.3893    0.0000 H   0  0  0  0  0  0  0  0  0  0  0  0
   -2.2284    3.0592    0.0000 Cl  0  0  0  0  0  0  0  0  0  0  0  0
    1.2981   -0.0909    0.0000 P   0  0  0  0  0  0  0  0  0  0  0  0
   -0.1791    0.1694    0.0000 O   0  0  0  0  0  0  0  0  0  0  0  0
    0.7854   -1.5006    0.0000 N   0  0  0  0  0  0  0  0  0  0  0  0
    1.7498   -2.6494    0.0000 H   0  0  0  0  0  0  0  0  0  0  0  0
   -0.6918   -1.7614    0.0000 H   0  0  0  0  0  0  0  0  0  0  0  0
    2.5981   -0.8409    0.0000 O   0  0  0  0  0  0  0  0  0  0  0  0
    3.8981   -0.0909    0.0000 C   0  0  0  0  0  0  0  0  0  0  0  0
    4.4108   -1.5006    0.0000 H   0  0  0  0  0  0  0  0  0  0  0  0
    5.3753    0.1694    0.0000 H   0  0  0  0  0  0  0  0  0  0  0  0
  1  2  1  0  0  0  0 
  1  3  1  0  0  0  0 
  1  4  1  0  0  0  0 
  4  5  1  0  0  0  0 
  4  6  1  0  0  0  0 
  4  7  1  0  0  0  0 
  7  8  1  0  0  0  0 
  8  9  1  0  0  0  0 
  8 10  1  0  0  0  0 
  8 11  1  0  0  0  0 
 11 12  1  0  0  0  0 
 11 13  1  0  0  0  0 
 11 14  1  0  0  0  0 
  7 15  1  0  0  0  0 
 15 16  2  0  0  0  0 
 15 17  1  0  0  0  0 
 17 18  1  0  0  0  0 
 17 19  1  0  0  0  0 
 15 20  1  0  0  0  0 
 20 21  1  0  0  0  0 
  1 21  1  0  0  0  0 
 21 22  1  0  0  0  0 
 21 23  1  0  0  0  0 
M  END
> <Rank>
11

> <Priority_score>
0.9

> <Reaction_type>
N-dealkylation_(R-NHCH2-alkyl)

> <Parent_ID>
84

> <Parent_InChI>
InChI=1S/C7H15Cl2N2O2P/c8-2-4-10-14(12)11(6-3-9)5-1-7-13-14/h1-7H2,(H,10,12)

> <Parent_SMILES>
O=P1(NCCCl)OCCCN1CCCl

$$$$
Molecule 84_metabolite 15
  CDK     0516241031

 22 22  0  0  0  0  0  0  0  0999 V2000
    3.8981    1.4091    0.0000 C   0  0  0  0  0  0  0  0  0  0  0  0
    5.3753    1.1488    0.0000 H   0  0  0  0  0  0  0  0  0  0  0  0
    4.4108    2.8187    0.0000 H   0  0  0  0  0  0  0  0  0  0  0  0
    2.5981    2.1591    0.0000 C   0  0  0  0  0  0  0  0  0  0  0  0
    3.5621    3.3082    0.0000 H   0  0  0  0  0  0  0  0  0  0  0  0
    1.6340    3.3082    0.0000 H   0  0  0  0  0  0  0  0  0  0  0  0
    1.2981    1.4091    0.0000 N   0  0  0  0  0  0  0  0  0  0  0  0
   -0.4165    2.3994    0.0000 C   0  0  0  0  0  0  0  0  0  0  0  0
    0.5479    3.5483    0.0000 H   0  0  0  0  0  0  0  0  0  0  0  0
   -1.3805    3.5486    0.0000 H   0  0  0  0  0  0  0  0  0  0  0  0
   -1.7156    1.6496    0.0000 C   0  0  0  0  0  0  0  0  0  0  0  0
   -1.7159    0.1496    0.0000 H   0  0  0  0  0  0  0  0  0  0  0  0
   -3.1929    1.3893    0.0000 H   0  0  0  0  0  0  0  0  0  0  0  0
   -2.2284    3.0592    0.0000 Cl  0  0  0  0  0  0  0  0  0  0  0  0
    1.2981   -0.0909    0.0000 P   0  0  0  0  0  0  0  0  0  0  0  0
   -0.1791    0.1694    0.0000 O   0  0  0  0  0  0  0  0  0  0  0  0
    0.7854   -1.5006    0.0000 O   0  0  0  0  0  0  0  0  0  0  0  0
    1.7498   -2.6494    0.0000 H   0  0  0  0  0  0  0  0  0  0  0  0
    2.5981   -0.8409    0.0000 O   0  0  0  0  0  0  0  0  0  0  0  0
    3.8981   -0.0909    0.0000 C   0  0  0  0  0  0  0  0  0  0  0  0
    4.4108   -1.5006    0.0000 H   0  0  0  0  0  0  0  0  0  0  0  0
    5.3753    0.1694    0.0000 H   0  0  0  0  0  0  0  0  0  0  0  0
  1  2  1  0  0  0  0 
  1  3  1  0  0  0  0 
  1  4  1  0  0  0  0 
  4  5  1  0  0  0  0 
  4  6  1  0  0  0  0 
  4  7  1  0  0  0  0 
  7  8  1  0  0  0  0 
  8  9  1  0  0  0  0 
  8 10  1  0  0  0  0 
  8 11  1  0  0  0  0 
 11 12  1  0  0  0  0 
 11 13  1  0  0  0  0 
 11 14  1  0  0  0  0 
  7 15  1  0  0  0  0 
 15 16  2  0  0  0  0 
 15 17  1  0  0  0  0 
 17 18  1  0  0  0  0 
 15 19  1  0  0  0  0 
 19 20  1  0  0  0  0 
  1 20  1  0  0  0  0 
 20 21  1  0  0  0  0 
 20 22  1  0  0  0  0 
M  END
> <Rank>
11

> <Priority_score>
0.9

> <Reaction_type>
hydrolysis_(X=X-X_exclude_phosphate)

> <Parent_ID>
84

> <Parent_InChI>
InChI=1S/C7H15Cl2N2O2P/c8-2-4-10-14(12)11(6-3-9)5-1-7-13-14/h1-7H2,(H,10,12)

> <Parent_SMILES>
O=P1(NCCCl)OCCCN1CCCl

$$$$
Molecule 84_metabolite 16
  CDK     0516241031

 64 64  0  0  0  0  0  0  0  0999 V2000
   -8.9122   12.8894    0.0000 C   0  0  0  0  0  0  0  0  0  0  0  0
   -7.9481   14.0386    0.0000 H   0  0  0  0  0  0  0  0  0  0  0  0
   -9.8766   14.0383    0.0000 H   0  0  0  0  0  0  0  0  0  0  0  0
  -10.2117   12.1386    0.0000 C   0  0  0  0  0  0  0  0  0  0  0  0
  -10.7249   13.5481    0.0000 H   0  0  0  0  0  0  0  0  0  0  0  0
  -11.6889   11.8783    0.0000 H   0  0  0  0  0  0  0  0  0  0  0  0
  -10.2122   10.6377    0.0000 N   0  0  0  0  0  0  0  0  0  0  0  0
  -11.9271    9.6480    0.0000 C   0  0  0  0  0  0  0  0  0  0  0  0
  -12.4399   11.0576    0.0000 H   0  0  0  0  0  0  0  0  0  0  0  0
  -13.4043    9.3878    0.0000 H   0  0  0  0  0  0  0  0  0  0  0  0
  -11.9273    8.1480    0.0000 C   0  0  0  0  0  0  0  0  0  0  0  0
  -10.6284    7.3978    0.0000 H   0  0  0  0  0  0  0  0  0  0  0  0
  -12.4406    6.7386    0.0000 H   0  0  0  0  0  0  0  0  0  0  0  0
  -13.4045    8.4087    0.0000 Cl  0  0  0  0  0  0  0  0  0  0  0  0
   -8.9131    9.8877    0.0000 P   0  0  0  0  0  0  0  0  0  0  0  0
   -9.8772    8.7386    0.0000 O   0  0  0  0  0  0  0  0  0  0  0  0
   -7.6401    8.3712    0.0000 N   0  0  0  0  0  0  0  0  0  0  0  0
   -8.1528    6.9616    0.0000 H   0  0  0  0  0  0  0  0  0  0  0  0
   -6.1629    8.6320    0.0000 C   0  0  0  0  0  0  0  0  0  0  0  0
   -4.8641    9.3823    0.0000 H   0  0  0  0  0  0  0  0  0  0  0  0
   -6.6763   10.0415    0.0000 H   0  0  0  0  0  0  0  0  0  0  0  0
   -5.1985    7.4832    0.0000 C   0  0  0  0  0  0  0  0  0  0  0  0
   -6.4974    6.7329    0.0000 H   0  0  0  0  0  0  0  0  0  0  0  0
   -4.6852    6.0737    0.0000 H   0  0  0  0  0  0  0  0  0  0  0  0
   -3.2487    7.8274    0.0000 S   0  0  0  0  0  0  0  0  0  0  0  0
   -2.2842    6.6785    0.0000 C   0  0  0  0  0  0  0  0  0  0  0  0
   -3.5831    5.9283    0.0000 H   0  0  0  0  0  0  0  0  0  0  0  0
   -1.7709    5.2691    0.0000 H   0  0  0  0  0  0  0  0  0  0  0  0
   -0.8071    6.9393    0.0000 C   0  0  0  0  0  0  0  0  0  0  0  0
    0.4918    7.6896    0.0000 H   0  0  0  0  0  0  0  0  0  0  0  0
   -1.3204    8.3488    0.0000 C   0  0  0  0  0  0  0  0  0  0  0  0
   -2.7977    8.6089    0.0000 O   0  0  0  0  0  0  0  0  0  0  0  0
   -0.3565    9.4980    0.0000 N   0  0  0  0  0  0  0  0  0  0  0  0
    1.1208    9.2379    0.0000 H   0  0  0  0  0  0  0  0  0  0  0  0
   -0.8698   10.9075    0.0000 C   0  0  0  0  0  0  0  0  0  0  0  0
   -2.1687   10.1572    0.0000 H   0  0  0  0  0  0  0  0  0  0  0  0
   -1.8342   12.0563    0.0000 H   0  0  0  0  0  0  0  0  0  0  0  0
    0.0941   12.0567    0.0000 C   0  0  0  0  0  0  0  0  0  0  0  0
    1.5714   11.7966    0.0000 O   0  0  0  0  0  0  0  0  0  0  0  0
   -0.4192   13.4662    0.0000 O   0  0  0  0  0  0  0  0  0  0  0  0
    0.5447   14.6154    0.0000 H   0  0  0  0  0  0  0  0  0  0  0  0
    0.1573    5.7905    0.0000 N   0  0  0  0  0  0  0  0  0  0  0  0
   -0.3554    4.3808    0.0000 H   0  0  0  0  0  0  0  0  0  0  0  0
    1.6345    6.0513    0.0000 C   0  0  0  0  0  0  0  0  0  0  0  0
    2.1472    7.4609    0.0000 O   0  0  0  0  0  0  0  0  0  0  0  0
    2.5989    4.9024    0.0000 C   0  0  0  0  0  0  0  0  0  0  0  0
    1.3001    4.1521    0.0000 H   0  0  0  0  0  0  0  0  0  0  0  0
    3.1123    3.4930    0.0000 H   0  0  0  0  0  0  0  0  0  0  0  0
    4.5488    5.2466    0.0000 C   0  0  0  0  0  0  0  0  0  0  0  0
    5.8477    5.9969    0.0000 H   0  0  0  0  0  0  0  0  0  0  0  0
    4.0354    6.6561    0.0000 H   0  0  0  0  0  0  0  0  0  0  0  0
    5.5132    4.0978    0.0000 C   0  0  0  0  0  0  0  0  0  0  0  0
    4.2143    3.3475    0.0000 H   0  0  0  0  0  0  0  0  0  0  0  0
    6.9904    4.3586    0.0000 C   0  0  0  0  0  0  0  0  0  0  0  0
    7.5031    5.7682    0.0000 O   0  0  0  0  0  0  0  0  0  0  0  0
    7.9548    3.2097    0.0000 O   0  0  0  0  0  0  0  0  0  0  0  0
    9.4319    3.4705    0.0000 H   0  0  0  0  0  0  0  0  0  0  0  0
    6.0265    2.6884    0.0000 N   0  0  0  0  0  0  0  0  0  0  0  0
    7.5038    2.4282    0.0000 H   0  0  0  0  0  0  0  0  0  0  0  0
    5.0626    1.5391    0.0000 H   0  0  0  0  0  0  0  0  0  0  0  0
   -7.6136   10.6386    0.0000 O   0  0  0  0  0  0  0  0  0  0  0  0
   -7.6131   12.1394    0.0000 C   0  0  0  0  0  0  0  0  0  0  0  0
   -6.1360   11.8786    0.0000 H   0  0  0  0  0  0  0  0  0  0  0  0
   -7.1000   13.5489    0.0000 H   0  0  0  0  0  0  0  0  0  0  0  0
  1  2  1  0  0  0  0 
  1  3  1  0  0  0  0 
  1  4  1  0  0  0  0 
  4  5  1  0  0  0  0 
  4  6  1  0  0  0  0 
  4  7  1  0  0  0  0 
  7  8  1  0  0  0  0 
  8  9  1  0  0  0  0 
  8 10  1  0  0  0  0 
  8 11  1  0  0  0  0 
 11 12  1  0  0  0  0 
 11 13  1  0  0  0  0 
 11 14  1  0  0  0  0 
  7 15  1  0  0  0  0 
 15 16  2  0  0  0  0 
 15 17  1  0  0  0  0 
 17 18  1  0  0  0  0 
 17 19  1  0  0  0  0 
 19 20  1  0  0  0  0 
 19 21  1  0  0  0  0 
 19 22  1  0  0  0  0 
 22 23  1  0  0  0  0 
 22 24  1  0  0  0  0 
 22 25  1  0  0  0  0 
 25 26  1  0  0  0  0 
 26 27  1  0  0  0  0 
 26 28  1  0  0  0  0 
 26 29  1  0  0  0  0 
 29 30  1  0  0  0  0 
 29 31  1  0  0  0  0 
 31 32  2  0  0  0  0 
 31 33  1  0  0  0  0 
 33 34  1  0  0  0  0 
 33 35  1  0  0  0  0 
 35 36  1  0  0  0  0 
 35 37  1  0  0  0  0 
 35 38  1  0  0  0  0 
 38 39  2  0  0  0  0 
 38 40  1  0  0  0  0 
 40 41  1  0  0  0  0 
 29 42  1  0  0  0  0 
 42 43  1  0  0  0  0 
 42 44  1  0  0  0  0 
 44 45  2  0  0  0  0 
 44 46  1  0  0  0  0 
 46 47  1  0  0  0  0 
 46 48  1  0  0  0  0 
 46 49  1  0  0  0  0 
 49 50  1  0  0  0  0 
 49 51  1  0  0  0  0 
 49 52  1  0  0  0  0 
 52 53  1  0  0  0  0 
 52 54  1  0  0  0  0 
 54 55  2  0  0  0  0 
 54 56  1  0  0  0  0 
 56 57  1  0  0  0  0 
 52 58  1  0  0  0  0 
 58 59  1  0  0  0  0 
 58 60  1  0  0  0  0 
 15 61  1  0  0  0  0 
 61 62  1  0  0  0  0 
  1 62  1  0  0  0  0 
 62 63  1  0  0  0  0 
 62 64  1  0  0  0  0 
M  END
> <Rank>
16

> <Priority_score>
0.364

> <Reaction_type>
glutathione_conjugation_(aliphatic_nucleophilic_substitution)

> <Parent_ID>
84

> <Parent_InChI>
InChI=1S/C7H15Cl2N2O2P/c8-2-4-10-14(12)11(6-3-9)5-1-7-13-14/h1-7H2,(H,10,12)

> <Parent_SMILES>
O=P1(NCCCl)OCCCN1CCCl

$$$$
Molecule 84_metabolite 17
  CDK     0516241031

 64 64  0  0  0  0  0  0  0  0999 V2000
    1.7075    5.5664    0.0000 C   0  0  0  0  0  0  0  0  0  0  0  0
    1.7080    4.0664    0.0000 H   0  0  0  0  0  0  0  0  0  0  0  0
    0.2303    5.3056    0.0000 H   0  0  0  0  0  0  0  0  0  0  0  0
    1.1940    6.9766    0.0000 C   0  0  0  0  0  0  0  0  0  0  0  0
   -0.1048    6.2262    0.0000 H   0  0  0  0  0  0  0  0  0  0  0  0
    0.2292    8.1252    0.0000 H   0  0  0  0  0  0  0  0  0  0  0  0
    2.1579    8.1271    0.0000 N   0  0  0  0  0  0  0  0  0  0  0  0
    1.4796    9.9873    0.0000 C   0  0  0  0  0  0  0  0  0  0  0  0
    2.9567   10.2486    0.0000 H   0  0  0  0  0  0  0  0  0  0  0  0
    1.4787   11.4873    0.0000 H   0  0  0  0  0  0  0  0  0  0  0  0
    0.0022   10.2469    0.0000 C   0  0  0  0  0  0  0  0  0  0  0  0
   -1.2972   10.9961    0.0000 H   0  0  0  0  0  0  0  0  0  0  0  0
    0.5144   11.6567    0.0000 H   0  0  0  0  0  0  0  0  0  0  0  0
   -0.9613    9.0972    0.0000 S   0  0  0  0  0  0  0  0  0  0  0  0
   -2.9114    9.4399    0.0000 C   0  0  0  0  0  0  0  0  0  0  0  0
   -4.2109   10.1891    0.0000 H   0  0  0  0  0  0  0  0  0  0  0  0
   -2.3992   10.8497    0.0000 H   0  0  0  0  0  0  0  0  0  0  0  0
   -3.8749    8.2903    0.0000 C   0  0  0  0  0  0  0  0  0  0  0  0
   -2.5754    7.5410    0.0000 H   0  0  0  0  0  0  0  0  0  0  0  0
   -4.3871    6.8804    0.0000 C   0  0  0  0  0  0  0  0  0  0  0  0
   -5.8642    6.6191    0.0000 O   0  0  0  0  0  0  0  0  0  0  0  0
   -3.4222    5.7319    0.0000 N   0  0  0  0  0  0  0  0  0  0  0  0
   -1.9452    5.9933    0.0000 H   0  0  0  0  0  0  0  0  0  0  0  0
   -3.9344    4.3221    0.0000 C   0  0  0  0  0  0  0  0  0  0  0  0
   -5.2339    5.0713    0.0000 H   0  0  0  0  0  0  0  0  0  0  0  0
   -4.8980    3.1725    0.0000 H   0  0  0  0  0  0  0  0  0  0  0  0
   -2.9696    3.1736    0.0000 C   0  0  0  0  0  0  0  0  0  0  0  0
   -1.4925    3.4349    0.0000 O   0  0  0  0  0  0  0  0  0  0  0  0
   -3.4818    1.7637    0.0000 O   0  0  0  0  0  0  0  0  0  0  0  0
   -2.5169    0.6152    0.0000 H   0  0  0  0  0  0  0  0  0  0  0  0
   -5.3523    8.5499    0.0000 N   0  0  0  0  0  0  0  0  0  0  0  0
   -6.3158    7.4002    0.0000 H   0  0  0  0  0  0  0  0  0  0  0  0
   -5.8661    9.9591    0.0000 C   0  0  0  0  0  0  0  0  0  0  0  0
   -4.9026   11.1087    0.0000 O   0  0  0  0  0  0  0  0  0  0  0  0
   -7.3435   10.2187    0.0000 C   0  0  0  0  0  0  0  0  0  0  0  0
   -8.8205    9.9574    0.0000 H   0  0  0  0  0  0  0  0  0  0  0  0
   -7.3426    8.7187    0.0000 H   0  0  0  0  0  0  0  0  0  0  0  0
   -7.8573   11.6280    0.0000 C   0  0  0  0  0  0  0  0  0  0  0  0
   -6.3803   11.8893    0.0000 H   0  0  0  0  0  0  0  0  0  0  0  0
   -7.8582   13.1280    0.0000 H   0  0  0  0  0  0  0  0  0  0  0  0
   -9.3347   11.8876    0.0000 C   0  0  0  0  0  0  0  0  0  0  0  0
  -10.6342   12.6368    0.0000 H   0  0  0  0  0  0  0  0  0  0  0  0
  -10.2982   10.7379    0.0000 C   0  0  0  0  0  0  0  0  0  0  0  0
   -9.7844    9.3287    0.0000 O   0  0  0  0  0  0  0  0  0  0  0  0
  -11.7756   10.9975    0.0000 O   0  0  0  0  0  0  0  0  0  0  0  0
  -12.7391    9.8479    0.0000 H   0  0  0  0  0  0  0  0  0  0  0  0
   -8.6586   13.7485    0.0000 N   0  0  0  0  0  0  0  0  0  0  0  0
   -9.6235   14.8970    0.0000 H   0  0  0  0  0  0  0  0  0  0  0  0
   -7.1815   14.0099    0.0000 H   0  0  0  0  0  0  0  0  0  0  0  0
    3.6352    7.8672    0.0000 P   0  0  0  0  0  0  0  0  0  0  0  0
    3.6347    9.3672    0.0000 O   0  0  0  0  0  0  0  0  0  0  0  0
    5.5851    8.2115    0.0000 N   0  0  0  0  0  0  0  0  0  0  0  0
    6.5495    7.0626    0.0000 H   0  0  0  0  0  0  0  0  0  0  0  0
    6.0978    9.6211    0.0000 C   0  0  0  0  0  0  0  0  0  0  0  0
    4.6205    9.8813    0.0000 H   0  0  0  0  0  0  0  0  0  0  0  0
    6.0975   11.1211    0.0000 H   0  0  0  0  0  0  0  0  0  0  0  0
    7.5749    9.8819    0.0000 C   0  0  0  0  0  0  0  0  0  0  0  0
    8.0877   11.2915    0.0000 H   0  0  0  0  0  0  0  0  0  0  0  0
    9.0522    9.6217    0.0000 H   0  0  0  0  0  0  0  0  0  0  0  0
    7.5753    8.3819    0.0000 Cl  0  0  0  0  0  0  0  0  0  0  0  0
    4.1487    6.4570    0.0000 O   0  0  0  0  0  0  0  0  0  0  0  0
    3.1848    5.3065    0.0000 C   0  0  0  0  0  0  0  0  0  0  0  0
    4.4843    4.5574    0.0000 H   0  0  0  0  0  0  0  0  0  0  0  0
    2.6725    3.8967    0.0000 H   0  0  0  0  0  0  0  0  0  0  0  0
  1  2  1  0  0  0  0 
  1  3  1  0  0  0  0 
  1  4  1  0  0  0  0 
  4  5  1  0  0  0  0 
  4  6  1  0  0  0  0 
  4  7  1  0  0  0  0 
  7  8  1  0  0  0  0 
  8  9  1  0  0  0  0 
  8 10  1  0  0  0  0 
  8 11  1  0  0  0  0 
 11 12  1  0  0  0  0 
 11 13  1  0  0  0  0 
 11 14  1  0  0  0  0 
 14 15  1  0  0  0  0 
 15 16  1  0  0  0  0 
 15 17  1  0  0  0  0 
 15 18  1  0  0  0  0 
 18 19  1  0  0  0  0 
 18 20  1  0  0  0  0 
 20 21  2  0  0  0  0 
 20 22  1  0  0  0  0 
 22 23  1  0  0  0  0 
 22 24  1  0  0  0  0 
 24 25  1  0  0  0  0 
 24 26  1  0  0  0  0 
 24 27  1  0  0  0  0 
 27 28  2  0  0  0  0 
 27 29  1  0  0  0  0 
 29 30  1  0  0  0  0 
 18 31  1  0  0  0  0 
 31 32  1  0  0  0  0 
 31 33  1  0  0  0  0 
 33 34  2  0  0  0  0 
 33 35  1  0  0  0  0 
 35 36  1  0  0  0  0 
 35 37  1  0  0  0  0 
 35 38  1  0  0  0  0 
 38 39  1  0  0  0  0 
 38 40  1  0  0  0  0 
 38 41  1  0  0  0  0 
 41 42  1  0  0  0  0 
 41 43  1  0  0  0  0 
 43 44  2  0  0  0  0 
 43 45  1  0  0  0  0 
 45 46  1  0  0  0  0 
 41 47  1  0  0  0  0 
 47 48  1  0  0  0  0 
 47 49  1  0  0  0  0 
  7 50  1  0  0  0  0 
 50 51  2  0  0  0  0 
 50 52  1  0  0  0  0 
 52 53  1  0  0  0  0 
 52 54  1  0  0  0  0 
 54 55  1  0  0  0  0 
 54 56  1  0  0  0  0 
 54 57  1  0  0  0  0 
 57 58  1  0  0  0  0 
 57 59  1  0  0  0  0 
 57 60  1  0  0  0  0 
 50 61  1  0  0  0  0 
 61 62  1  0  0  0  0 
  1 62  1  0  0  0  0 
 62 63  1  0  0  0  0 
 62 64  1  0  0  0  0 
M  END
> <Rank>
17

> <Priority_score>
0.252

> <Reaction_type>
glutathione_conjugation_(aliphatic_nucleophilic_substitution)

> <Parent_ID>
84

> <Parent_InChI>
InChI=1S/C7H15Cl2N2O2P/c8-2-4-10-14(12)11(6-3-9)5-1-7-13-14/h1-7H2,(H,10,12)

> <Parent_SMILES>
O=P1(NCCCl)OCCCN1CCCl

$$$$
Molecule 84_metabolite 18
  CDK     0516241031

 27 27  0  0  0  0  0  0  0  0999 V2000
    0.5710   -2.0371    0.0000 C   0  0  0  0  0  0  0  0  0  0  0  0
    0.5713   -3.5371    0.0000 H   0  0  0  0  0  0  0  0  0  0  0  0
    1.8705   -1.2862    0.0000 C   0  0  0  0  0  0  0  0  0  0  0  0
    3.1696   -2.0362    0.0000 H   0  0  0  0  0  0  0  0  0  0  0  0
    1.8710    0.2146    0.0000 N   0  0  0  0  0  0  0  0  0  0  0  0
    3.5859    1.2043    0.0000 C   0  0  0  0  0  0  0  0  0  0  0  0
    2.6219    2.3536    0.0000 H   0  0  0  0  0  0  0  0  0  0  0  0
    4.5503    2.3532    0.0000 H   0  0  0  0  0  0  0  0  0  0  0  0
    4.8848    0.4541    0.0000 C   0  0  0  0  0  0  0  0  0  0  0  0
    6.1840    1.2039    0.0000 H   0  0  0  0  0  0  0  0  0  0  0  0
    5.8488   -0.6951    0.0000 H   0  0  0  0  0  0  0  0  0  0  0  0
    3.9205   -0.6948    0.0000 Cl  0  0  0  0  0  0  0  0  0  0  0  0
    0.5720    0.9646    0.0000 P   0  0  0  0  0  0  0  0  0  0  0  0
    1.5360    2.1138    0.0000 O   0  0  0  0  0  0  0  0  0  0  0  0
   -0.7011    2.4811    0.0000 N   0  0  0  0  0  0  0  0  0  0  0  0
   -0.1883    3.8908    0.0000 H   0  0  0  0  0  0  0  0  0  0  0  0
   -2.1782    2.2203    0.0000 C   0  0  0  0  0  0  0  0  0  0  0  0
   -3.4771    1.4700    0.0000 H   0  0  0  0  0  0  0  0  0  0  0  0
   -1.6649    0.8109    0.0000 H   0  0  0  0  0  0  0  0  0  0  0  0
   -3.1426    3.3692    0.0000 C   0  0  0  0  0  0  0  0  0  0  0  0
   -4.6198    3.1084    0.0000 H   0  0  0  0  0  0  0  0  0  0  0  0
   -1.8438    4.1195    0.0000 H   0  0  0  0  0  0  0  0  0  0  0  0
   -3.6560    4.7786    0.0000 Cl  0  0  0  0  0  0  0  0  0  0  0  0
   -0.7275    0.2138    0.0000 O   0  0  0  0  0  0  0  0  0  0  0  0
   -0.7280   -1.2871    0.0000 C   0  0  0  0  0  0  0  0  0  0  0  0
   -2.2052   -1.0263    0.0000 H   0  0  0  0  0  0  0  0  0  0  0  0
   -1.2412   -2.6965    0.0000 H   0  0  0  0  0  0  0  0  0  0  0  0
  1  2  1  0  0  0  0 
  1  3  2  0  0  0  0 
  3  4  1  0  0  0  0 
  3  5  1  0  0  0  0 
  5  6  1  0  0  0  0 
  6  7  1  0  0  0  0 
  6  8  1  0  0  0  0 
  6  9  1  0  0  0  0 
  9 10  1  0  0  0  0 
  9 11  1  0  0  0  0 
  9 12  1  0  0  0  0 
  5 13  1  0  0  0  0 
 13 14  2  0  0  0  0 
 13 15  1  0  0  0  0 
 15 16  1  0  0  0  0 
 15 17  1  0  0  0  0 
 17 18  1  0  0  0  0 
 17 19  1  0  0  0  0 
 17 20  1  0  0  0  0 
 20 21  1  0  0  0  0 
 20 22  1  0  0  0  0 
 20 23  1  0  0  0  0 
 13 24  1  0  0  0  0 
 24 25  1  0  0  0  0 
  1 25  1  0  0  0  0 
 25 26  1  0  0  0  0 
 25 27  1  0  0  0  0 
M  END
> <Rank>
18

> <Priority_score>
0.1936

> <Reaction_type>
alkyl dehydrogenation

> <Parent_ID>
84

> <Parent_InChI>
InChI=1S/C7H15Cl2N2O2P/c8-2-4-10-14(12)11(6-3-9)5-1-7-13-14/h1-7H2,(H,10,12)

> <Parent_SMILES>
O=P1(NCCCl)OCCCN1CCCl

$$$$
Molecule 84_metabolite 19
  CDK     0516241031

 28 28  0  0  0  0  0  0  0  0999 V2000
    0.5710   -2.0371    0.0000 C   0  0  0  0  0  0  0  0  0  0  0  0
   -0.3930   -3.1862    0.0000 H   0  0  0  0  0  0  0  0  0  0  0  0
    1.5355   -3.1859    0.0000 H   0  0  0  0  0  0  0  0  0  0  0  0
    1.8705   -1.2862    0.0000 C   0  0  0  0  0  0  0  0  0  0  0  0
    3.1696   -2.0362    0.0000 H   0  0  0  0  0  0  0  0  0  0  0  0
    1.8710    0.2146    0.0000 N   0  0  0  0  0  0  0  0  0  0  0  0
    3.5859    1.2043    0.0000 C   0  0  0  0  0  0  0  0  0  0  0  0
    2.6219    2.3536    0.0000 H   0  0  0  0  0  0  0  0  0  0  0  0
    4.5503    2.3532    0.0000 H   0  0  0  0  0  0  0  0  0  0  0  0
    4.8848    0.4541    0.0000 C   0  0  0  0  0  0  0  0  0  0  0  0
    6.1840    1.2039    0.0000 H   0  0  0  0  0  0  0  0  0  0  0  0
    5.8488   -0.6951    0.0000 H   0  0  0  0  0  0  0  0  0  0  0  0
    3.9205   -0.6948    0.0000 Cl  0  0  0  0  0  0  0  0  0  0  0  0
    0.5720    0.9646    0.0000 P   0  0  0  0  0  0  0  0  0  0  0  0
    1.5360    2.1138    0.0000 O   0  0  0  0  0  0  0  0  0  0  0  0
   -0.7011    2.4811    0.0000 N   0  0  0  0  0  0  0  0  0  0  0  0
   -0.1883    3.8908    0.0000 H   0  0  0  0  0  0  0  0  0  0  0  0
   -2.1782    2.2203    0.0000 C   0  0  0  0  0  0  0  0  0  0  0  0
   -3.4771    1.4700    0.0000 H   0  0  0  0  0  0  0  0  0  0  0  0
   -1.6649    0.8109    0.0000 H   0  0  0  0  0  0  0  0  0  0  0  0
   -3.1426    3.3692    0.0000 C   0  0  0  0  0  0  0  0  0  0  0  0
   -4.6198    3.1084    0.0000 H   0  0  0  0  0  0  0  0  0  0  0  0
   -1.8438    4.1195    0.0000 H   0  0  0  0  0  0  0  0  0  0  0  0
   -3.6560    4.7786    0.0000 Cl  0  0  0  0  0  0  0  0  0  0  0  0
   -0.7275    0.2138    0.0000 O   0  0  0  0  0  0  0  0  0  0  0  0
   -0.7280   -1.2871    0.0000 C   0  0  0  0  0  0  0  0  0  0  0  0
   -2.2052   -1.0263    0.0000 H   0  0  0  0  0  0  0  0  0  0  0  0
   -1.2412   -2.6965    0.0000 H   0  0  0  0  0  0  0  0  0  0  0  0
  1  2  1  0  0  0  0 
  1  3  1  0  0  0  0 
  1  4  1  0  0  0  0 
  4  5  1  0  0  0  0 
  4  6  2  0  0  0  0 
  6  7  1  0  0  0  0 
  7  8  1  0  0  0  0 
  7  9  1  0  0  0  0 
  7 10  1  0  0  0  0 
 10 11  1  0  0  0  0 
 10 12  1  0  0  0  0 
 10 13  1  0  0  0  0 
  6 14  1  0  0  0  0 
 14 15  2  0  0  0  0 
 14 16  1  0  0  0  0 
 16 17  1  0  0  0  0 
 16 18  1  0  0  0  0 
 18 19  1  0  0  0  0 
 18 20  1  0  0  0  0 
 18 21  1  0  0  0  0 
 21 22  1  0  0  0  0 
 21 23  1  0  0  0  0 
 21 24  1  0  0  0  0 
 14 25  1  0  0  0  0 
 25 26  1  0  0  0  0 
  1 26  1  0  0  0  0 
 26 27  1  0  0  0  0 
 26 28  1  0  0  0  0 
M  CHG  1   6   1
M  END
> <Rank>
18

> <Priority_score>
0.1936

> <Reaction_type>
dehydration of N-C bond

> <Parent_ID>
84

> <Parent_InChI>
InChI=1S/C7H15Cl2N2O2P/c8-2-4-10-14(12)11(6-3-9)5-1-7-13-14/h1-7H2,(H,10,12)

> <Parent_SMILES>
O=P1(NCCCl)OCCCN1CCCl

$$$$
Molecule 84_metabolite 20
  CDK     0516241031

 27 27  0  0  0  0  0  0  0  0999 V2000
    4.3871    0.2390    0.0000 C   0  0  0  0  0  0  0  0  0  0  0  0
    4.9003   -1.1705    0.0000 H   0  0  0  0  0  0  0  0  0  0  0  0
    5.8643    0.4998    0.0000 H   0  0  0  0  0  0  0  0  0  0  0  0
    4.3867    1.7399    0.0000 C   0  0  0  0  0  0  0  0  0  0  0  0
    5.8639    1.4795    0.0000 H   0  0  0  0  0  0  0  0  0  0  0  0
    4.8998    3.1493    0.0000 H   0  0  0  0  0  0  0  0  0  0  0  0
    3.0871    2.4907    0.0000 N   0  0  0  0  0  0  0  0  0  0  0  0
    3.0874    3.9907    0.0000 C   0  0  0  0  0  0  0  0  0  0  0  0
    4.3865    4.7405    0.0000 H   0  0  0  0  0  0  0  0  0  0  0  0
    1.7885    4.7409    0.0000 C   0  0  0  0  0  0  0  0  0  0  0  0
    1.7887    6.2409    0.0000 H   0  0  0  0  0  0  0  0  0  0  0  0
    0.4893    3.9911    0.0000 Cl  0  0  0  0  0  0  0  0  0  0  0  0
    1.7881    1.7407    0.0000 P   0  0  0  0  0  0  0  0  0  0  0  0
    1.2749    3.1502    0.0000 O   0  0  0  0  0  0  0  0  0  0  0  0
   -0.1618    1.3965    0.0000 N   0  0  0  0  0  0  0  0  0  0  0  0
   -1.1262    2.5453    0.0000 H   0  0  0  0  0  0  0  0  0  0  0  0
   -0.6745   -0.0132    0.0000 C   0  0  0  0  0  0  0  0  0  0  0  0
    0.8028   -0.2734    0.0000 H   0  0  0  0  0  0  0  0  0  0  0  0
   -0.6742   -1.5132    0.0000 H   0  0  0  0  0  0  0  0  0  0  0  0
   -2.1516   -0.2740    0.0000 C   0  0  0  0  0  0  0  0  0  0  0  0
   -2.6644   -1.6836    0.0000 H   0  0  0  0  0  0  0  0  0  0  0  0
   -3.6289   -0.0138    0.0000 H   0  0  0  0  0  0  0  0  0  0  0  0
   -2.1520    1.2260    0.0000 Cl  0  0  0  0  0  0  0  0  0  0  0  0
    1.7886    0.2399    0.0000 O   0  0  0  0  0  0  0  0  0  0  0  0
    3.0881   -0.5110    0.0000 C   0  0  0  0  0  0  0  0  0  0  0  0
    2.1237   -1.6598    0.0000 H   0  0  0  0  0  0  0  0  0  0  0  0
    4.0522   -1.6601    0.0000 H   0  0  0  0  0  0  0  0  0  0  0  0
  1  2  1  0  0  0  0 
  1  3  1  0  0  0  0 
  1  4  1  0  0  0  0 
  4  5  1  0  0  0  0 
  4  6  1  0  0  0  0 
  4  7  1  0  0  0  0 
  7  8  1  0  0  0  0 
  8  9  1  4  0  0  0 
  8 10  2  0  0  0  0 
 10 11  1  0  0  0  0 
 10 12  1  0  0  0  0 
  7 13  1  0  0  0  0 
 13 14  2  0  0  0  0 
 13 15  1  0  0  0  0 
 15 16  1  0  0  0  0 
 15 17  1  0  0  0  0 
 17 18  1  0  0  0  0 
 17 19  1  0  0  0  0 
 17 20  1  0  0  0  0 
 20 21  1  0  0  0  0 
 20 22  1  0  0  0  0 
 20 23  1  0  0  0  0 
 13 24  1  0  0  0  0 
 24 25  1  0  0  0  0 
  1 25  1  0  0  0  0 
 25 26  1  0  0  0  0 
 25 27  1  0  0  0  0 
M  END
> <Rank>
20

> <Priority_score>
0.1912

> <Reaction_type>
alkyl dehydrogenation

> <Parent_ID>
84

> <Parent_InChI>
InChI=1S/C7H15Cl2N2O2P/c8-2-4-10-14(12)11(6-3-9)5-1-7-13-14/h1-7H2,(H,10,12)

> <Parent_SMILES>
O=P1(NCCCl)OCCCN1CCCl

$$$$
Molecule 84_metabolite 21
  CDK     0516241031

 28 28  0  0  0  0  0  0  0  0999 V2000
   -2.2509    2.2543    0.0000 C   0  0  0  0  0  0  0  0  0  0  0  0
   -2.7641    3.6638    0.0000 H   0  0  0  0  0  0  0  0  0  0  0  0
   -3.7281    1.9935    0.0000 H   0  0  0  0  0  0  0  0  0  0  0  0
   -2.2505    0.7535    0.0000 C   0  0  0  0  0  0  0  0  0  0  0  0
   -3.7277    1.0138    0.0000 H   0  0  0  0  0  0  0  0  0  0  0  0
   -2.7636   -0.6560    0.0000 H   0  0  0  0  0  0  0  0  0  0  0  0
   -0.9509    0.0027    0.0000 N   0  0  0  0  0  0  0  0  0  0  0  0
   -0.9512   -1.4973    0.0000 C   0  0  0  0  0  0  0  0  0  0  0  0
   -2.2503   -2.2471    0.0000 H   0  0  0  0  0  0  0  0  0  0  0  0
    0.3477   -2.2475    0.0000 C   0  0  0  0  0  0  0  0  0  0  0  0
    1.6469   -1.4978    0.0000 H   0  0  0  0  0  0  0  0  0  0  0  0
    1.3117   -3.3968    0.0000 H   0  0  0  0  0  0  0  0  0  0  0  0
   -0.6166   -3.3965    0.0000 Cl  0  0  0  0  0  0  0  0  0  0  0  0
    0.3481    0.7527    0.0000 P   0  0  0  0  0  0  0  0  0  0  0  0
    0.8613   -0.6568    0.0000 O   0  0  0  0  0  0  0  0  0  0  0  0
    2.2979    1.0969    0.0000 N   0  0  0  0  0  0  0  0  0  0  0  0
    3.2624   -0.0520    0.0000 H   0  0  0  0  0  0  0  0  0  0  0  0
    2.8107    2.5066    0.0000 C   0  0  0  0  0  0  0  0  0  0  0  0
    2.8104    4.0066    0.0000 H   0  0  0  0  0  0  0  0  0  0  0  0
    1.3334    2.7667    0.0000 H   0  0  0  0  0  0  0  0  0  0  0  0
    4.2878    2.7673    0.0000 C   0  0  0  0  0  0  0  0  0  0  0  0
    4.8006    4.1770    0.0000 H   0  0  0  0  0  0  0  0  0  0  0  0
    4.2881    1.2673    0.0000 H   0  0  0  0  0  0  0  0  0  0  0  0
    5.7651    2.5072    0.0000 Cl  0  0  0  0  0  0  0  0  0  0  0  0
    0.3476    2.2535    0.0000 O   0  0  0  0  0  0  0  0  0  0  0  0
   -0.9519    3.0043    0.0000 C   0  0  0  0  0  0  0  0  0  0  0  0
    0.0125    4.1532    0.0000 H   0  0  0  0  0  0  0  0  0  0  0  0
   -1.9160    4.1535    0.0000 H   0  0  0  0  0  0  0  0  0  0  0  0
  1  2  1  0  0  0  0 
  1  3  1  0  0  0  0 
  1  4  1  0  0  0  0 
  4  5  1  0  0  0  0 
  4  6  1  0  0  0  0 
  4  7  1  0  0  0  0 
  7  8  2  0  0  0  0 
  8  9  1  4  0  0  0 
  8 10  1  0  0  0  0 
 10 11  1  0  0  0  0 
 10 12  1  0  0  0  0 
 10 13  1  0  0  0  0 
  7 14  1  0  0  0  0 
 14 15  2  0  0  0  0 
 14 16  1  0  0  0  0 
 16 17  1  0  0  0  0 
 16 18  1  0  0  0  0 
 18 19  1  0  0  0  0 
 18 20  1  0  0  0  0 
 18 21  1  0  0  0  0 
 21 22  1  0  0  0  0 
 21 23  1  0  0  0  0 
 21 24  1  0  0  0  0 
 14 25  1  0  0  0  0 
 25 26  1  0  0  0  0 
  1 26  1  0  0  0  0 
 26 27  1  0  0  0  0 
 26 28  1  0  0  0  0 
M  CHG  1   7   1
M  END
> <Rank>
20

> <Priority_score>
0.1912

> <Reaction_type>
dehydration of N-C bond

> <Parent_ID>
84

> <Parent_InChI>
InChI=1S/C7H15Cl2N2O2P/c8-2-4-10-14(12)11(6-3-9)5-1-7-13-14/h1-7H2,(H,10,12)

> <Parent_SMILES>
O=P1(NCCCl)OCCCN1CCCl

$$$$
Molecule 84_metabolite 22
  CDK     0516241031

 27 27  0  0  0  0  0  0  0  0999 V2000
    4.4337    0.4177    0.0000 C   0  0  0  0  0  0  0  0  0  0  0  0
    4.9468   -0.9918    0.0000 H   0  0  0  0  0  0  0  0  0  0  0  0
    5.9108    0.6785    0.0000 H   0  0  0  0  0  0  0  0  0  0  0  0
    4.4332    1.9185    0.0000 C   0  0  0  0  0  0  0  0  0  0  0  0
    5.9104    1.6582    0.0000 H   0  0  0  0  0  0  0  0  0  0  0  0
    4.9464    3.3280    0.0000 H   0  0  0  0  0  0  0  0  0  0  0  0
    3.1337    2.6694    0.0000 N   0  0  0  0  0  0  0  0  0  0  0  0
    3.1340    4.6494    0.0000 C   0  0  0  0  0  0  0  0  0  0  0  0
    4.6111    4.3887    0.0000 H   0  0  0  0  0  0  0  0  0  0  0  0
    3.6472    6.0588    0.0000 H   0  0  0  0  0  0  0  0  0  0  0  0
    1.8351    5.3996    0.0000 C   0  0  0  0  0  0  0  0  0  0  0  0
    0.5359    4.6498    0.0000 H   0  0  0  0  0  0  0  0  0  0  0  0
    0.8711    6.5488    0.0000 H   0  0  0  0  0  0  0  0  0  0  0  0
    2.7994    6.5485    0.0000 Cl  0  0  0  0  0  0  0  0  0  0  0  0
    1.8346    1.9194    0.0000 P   0  0  0  0  0  0  0  0  0  0  0  0
    1.3214    3.3288    0.0000 O   0  0  0  0  0  0  0  0  0  0  0  0
    0.3575    1.6586    0.0000 N   0  0  0  0  0  0  0  0  0  0  0  0
   -0.1553    0.2489    0.0000 C   0  0  0  0  0  0  0  0  0  0  0  0
    0.8092   -0.8999    0.0000 H   0  0  0  0  0  0  0  0  0  0  0  0
   -1.6324   -0.0119    0.0000 C   0  0  0  0  0  0  0  0  0  0  0  0
   -2.1452   -1.4215    0.0000 H   0  0  0  0  0  0  0  0  0  0  0  0
   -1.6327    1.4881    0.0000 H   0  0  0  0  0  0  0  0  0  0  0  0
   -3.1097    0.2483    0.0000 Cl  0  0  0  0  0  0  0  0  0  0  0  0
    1.8351    0.4185    0.0000 O   0  0  0  0  0  0  0  0  0  0  0  0
    3.1346   -0.3323    0.0000 C   0  0  0  0  0  0  0  0  0  0  0  0
    2.1702   -1.4812    0.0000 H   0  0  0  0  0  0  0  0  0  0  0  0
    4.0987   -1.4815    0.0000 H   0  0  0  0  0  0  0  0  0  0  0  0
  1  2  1  0  0  0  0 
  1  3  1  0  0  0  0 
  1  4  1  0  0  0  0 
  4  5  1  0  0  0  0 
  4  6  1  0  0  0  0 
  4  7  1  0  0  0  0 
  7  8  1  0  0  0  0 
  8  9  1  0  0  0  0 
  8 10  1  0  0  0  0 
  8 11  1  0  0  0  0 
 11 12  1  0  0  0  0 
 11 13  1  0  0  0  0 
 11 14  1  0  0  0  0 
  7 15  1  0  0  0  0 
 15 16  2  0  0  0  0 
 15 17  1  0  0  0  0 
 17 18  2  0  0  0  0 
 18 19  1  4  0  0  0 
 18 20  1  0  0  0  0 
 20 21  1  0  0  0  0 
 20 22  1  0  0  0  0 
 20 23  1  0  0  0  0 
 15 24  1  0  0  0  0 
 24 25  1  0  0  0  0 
  1 25  1  0  0  0  0 
 25 26  1  0  0  0  0 
 25 27  1  0  0  0  0 
M  END
> <Rank>
22

> <Priority_score>
0.18000000000000002

> <Reaction_type>
dehydration of N-C bond

> <Parent_ID>
84

> <Parent_InChI>
InChI=1S/C7H15Cl2N2O2P/c8-2-4-10-14(12)11(6-3-9)5-1-7-13-14/h1-7H2,(H,10,12)

> <Parent_SMILES>
O=P1(NCCCl)OCCCN1CCCl

$$$$
Molecule 84_metabolite 23
  CDK     0516241031

 28 28  0  0  0  0  0  0  0  0999 V2000
    0.5557    5.2793    0.0000 C   0  0  0  0  0  0  0  0  0  0  0  0
    1.5197    6.4285    0.0000 H   0  0  0  0  0  0  0  0  0  0  0  0
   -0.4088    6.4282    0.0000 H   0  0  0  0  0  0  0  0  0  0  0  0
   -0.7439    4.5285    0.0000 C   0  0  0  0  0  0  0  0  0  0  0  0
   -1.2570    5.9380    0.0000 H   0  0  0  0  0  0  0  0  0  0  0  0
   -2.2211    4.2682    0.0000 H   0  0  0  0  0  0  0  0  0  0  0  0
   -0.7443    3.0277    0.0000 N   0  0  0  0  0  0  0  0  0  0  0  0
   -2.4592    2.0379    0.0000 C   0  0  0  0  0  0  0  0  0  0  0  0
   -2.9720    3.4476    0.0000 H   0  0  0  0  0  0  0  0  0  0  0  0
   -3.9365    1.7777    0.0000 H   0  0  0  0  0  0  0  0  0  0  0  0
   -2.4595    0.5379    0.0000 C   0  0  0  0  0  0  0  0  0  0  0  0
   -1.1606   -0.2123    0.0000 H   0  0  0  0  0  0  0  0  0  0  0  0
   -2.9727   -0.8715    0.0000 H   0  0  0  0  0  0  0  0  0  0  0  0
   -3.9366    0.7987    0.0000 Cl  0  0  0  0  0  0  0  0  0  0  0  0
    0.5547    2.2777    0.0000 P   0  0  0  0  0  0  0  0  0  0  0  0
   -0.4094    1.1285    0.0000 O   0  0  0  0  0  0  0  0  0  0  0  0
    1.5191    1.1288    0.0000 N   0  0  0  0  0  0  0  0  0  0  0  0
    1.0064   -0.2808    0.0000 H   0  0  0  0  0  0  0  0  0  0  0  0
    2.9963    1.3896    0.0000 C   0  0  0  0  0  0  0  0  0  0  0  0
    3.5090    2.7992    0.0000 H   0  0  0  0  0  0  0  0  0  0  0  0
    3.9607    0.2407    0.0000 C   0  0  0  0  0  0  0  0  0  0  0  0
    5.4379    0.5015    0.0000 H   0  0  0  0  0  0  0  0  0  0  0  0
    2.6618   -0.5095    0.0000 H   0  0  0  0  0  0  0  0  0  0  0  0
    4.4740   -1.1687    0.0000 Cl  0  0  0  0  0  0  0  0  0  0  0  0
    1.8542    3.0285    0.0000 O   0  0  0  0  0  0  0  0  0  0  0  0
    1.8547    4.5293    0.0000 C   0  0  0  0  0  0  0  0  0  0  0  0
    3.3318    4.2686    0.0000 H   0  0  0  0  0  0  0  0  0  0  0  0
    2.3679    5.9388    0.0000 H   0  0  0  0  0  0  0  0  0  0  0  0
  1  2  1  0  0  0  0 
  1  3  1  0  0  0  0 
  1  4  1  0  0  0  0 
  4  5  1  0  0  0  0 
  4  6  1  0  0  0  0 
  4  7  1  0  0  0  0 
  7  8  1  0  0  0  0 
  8  9  1  0  0  0  0 
  8 10  1  0  0  0  0 
  8 11  1  0  0  0  0 
 11 12  1  0  0  0  0 
 11 13  1  0  0  0  0 
 11 14  1  0  0  0  0 
  7 15  1  0  0  0  0 
 15 16  2  0  0  0  0 
 15 17  1  0  0  0  0 
 17 18  1  4  0  0  0 
 17 19  2  0  0  0  0 
 19 20  1  0  0  0  0 
 19 21  1  0  0  0  0 
 21 22  1  0  0  0  0 
 21 23  1  0  0  0  0 
 21 24  1  0  0  0  0 
 15 25  1  0  0  0  0 
 25 26  1  0  0  0  0 
  1 26  1  0  0  0  0 
 26 27  1  0  0  0  0 
 26 28  1  0  0  0  0 
M  CHG  1  17   1
M  END
> <Rank>
22

> <Priority_score>
0.18000000000000002

> <Reaction_type>
dehydration of N-C bond

> <Parent_ID>
84

> <Parent_InChI>
InChI=1S/C7H15Cl2N2O2P/c8-2-4-10-14(12)11(6-3-9)5-1-7-13-14/h1-7H2,(H,10,12)

> <Parent_SMILES>
O=P1(NCCCl)OCCCN1CCCl

$$$$
Molecule 84_metabolite 24
  CDK     0516241031

 27 27  0  0  0  0  0  0  0  0999 V2000
   -1.7157   -0.5099    0.0000 C   0  0  0  0  0  0  0  0  0  0  0  0
   -3.1929   -0.2496    0.0000 H   0  0  0  0  0  0  0  0  0  0  0  0
   -2.2284   -1.9196    0.0000 H   0  0  0  0  0  0  0  0  0  0  0  0
   -0.4157   -1.2599    0.0000 C   0  0  0  0  0  0  0  0  0  0  0  0
   -1.3797   -2.4091    0.0000 H   0  0  0  0  0  0  0  0  0  0  0  0
    0.5484   -2.4091    0.0000 H   0  0  0  0  0  0  0  0  0  0  0  0
    0.8843   -0.5099    0.0000 N   0  0  0  0  0  0  0  0  0  0  0  0
    2.5989   -1.5002    0.0000 C   0  0  0  0  0  0  0  0  0  0  0  0
    1.6346   -2.6491    0.0000 H   0  0  0  0  0  0  0  0  0  0  0  0
    3.5629   -2.6494    0.0000 H   0  0  0  0  0  0  0  0  0  0  0  0
    3.8981   -0.7504    0.0000 C   0  0  0  0  0  0  0  0  0  0  0  0
    3.8983    0.7496    0.0000 H   0  0  0  0  0  0  0  0  0  0  0  0
    5.3753   -0.4902    0.0000 H   0  0  0  0  0  0  0  0  0  0  0  0
    4.4109   -2.1600    0.0000 Cl  0  0  0  0  0  0  0  0  0  0  0  0
    0.8843    0.9901    0.0000 P   0  0  0  0  0  0  0  0  0  0  0  0
    2.3616    0.7298    0.0000 O   0  0  0  0  0  0  0  0  0  0  0  0
    1.3971    2.3997    0.0000 N   0  0  0  0  0  0  0  0  0  0  0  0
    2.8742    2.6605    0.0000 H   0  0  0  0  0  0  0  0  0  0  0  0
    0.4326    3.5486    0.0000 C   0  0  0  0  0  0  0  0  0  0  0  0
   -1.0445    3.2878    0.0000 H   0  0  0  0  0  0  0  0  0  0  0  0
    0.9454    4.9582    0.0000 C   0  0  0  0  0  0  0  0  0  0  0  0
   -0.0190    6.1071    0.0000 H   0  0  0  0  0  0  0  0  0  0  0  0
    2.4225    5.2190    0.0000 Cl  0  0  0  0  0  0  0  0  0  0  0  0
   -0.4157    1.7401    0.0000 O   0  0  0  0  0  0  0  0  0  0  0  0
   -1.7157    0.9901    0.0000 C   0  0  0  0  0  0  0  0  0  0  0  0
   -2.2284    2.3997    0.0000 H   0  0  0  0  0  0  0  0  0  0  0  0
   -3.1929    0.7298    0.0000 H   0  0  0  0  0  0  0  0  0  0  0  0
  1  2  1  0  0  0  0 
  1  3  1  0  0  0  0 
  1  4  1  0  0  0  0 
  4  5  1  0  0  0  0 
  4  6  1  0  0  0  0 
  4  7  1  0  0  0  0 
  7  8  1  0  0  0  0 
  8  9  1  0  0  0  0 
  8 10  1  0  0  0  0 
  8 11  1  0  0  0  0 
 11 12  1  0  0  0  0 
 11 13  1  0  0  0  0 
 11 14  1  0  0  0  0 
  7 15  1  0  0  0  0 
 15 16  2  0  0  0  0 
 15 17  1  0  0  0  0 
 17 18  1  0  0  0  0 
 17 19  1  0  0  0  0 
 19 20  1  4  0  0  0 
 19 21  2  0  0  0  0 
 21 22  1  0  0  0  0 
 21 23  1  0  0  0  0 
 15 24  1  0  0  0  0 
 24 25  1  0  0  0  0 
  1 25  1  0  0  0  0 
 25 26  1  0  0  0  0 
 25 27  1  0  0  0  0 
M  END
> <Rank>
22

> <Priority_score>
0.18000000000000002

> <Reaction_type>
alkyl dehydrogenation

> <Parent_ID>
84

> <Parent_InChI>
InChI=1S/C7H15Cl2N2O2P/c8-2-4-10-14(12)11(6-3-9)5-1-7-13-14/h1-7H2,(H,10,12)

> <Parent_SMILES>
O=P1(NCCCl)OCCCN1CCCl

$$$$
Molecule 84_metabolite 25
  CDK     0516241031

 32 31  0  0  0  0  0  0  0  0999 V2000
    2.3606   -1.0805    0.0000 C   0  0  0  0  0  0  0  0  0  0  0  0
    3.3247    0.0686    0.0000 H   0  0  0  0  0  0  0  0  0  0  0  0
    1.3964    0.0686    0.0000 H   0  0  0  0  0  0  0  0  0  0  0  0
    3.6596   -1.8305    0.0000 C   0  0  0  0  0  0  0  0  0  0  0  0
    2.6954   -2.9795    0.0000 H   0  0  0  0  0  0  0  0  0  0  0  0
    4.6238   -2.9795    0.0000 H   0  0  0  0  0  0  0  0  0  0  0  0
    5.3743   -0.8405    0.0000 N   0  0  0  0  0  0  0  0  0  0  0  0
    5.3743    0.6595    0.0000 C   0  0  0  0  0  0  0  0  0  0  0  0
    5.8874    2.0691    0.0000 H   0  0  0  0  0  0  0  0  0  0  0  0
    6.8515    0.3991    0.0000 H   0  0  0  0  0  0  0  0  0  0  0  0
    4.0753    1.4095    0.0000 C   0  0  0  0  0  0  0  0  0  0  0  0
    2.7762    0.6595    0.0000 H   0  0  0  0  0  0  0  0  0  0  0  0
    5.0395    2.5586    0.0000 H   0  0  0  0  0  0  0  0  0  0  0  0
    3.1111    2.5586    0.0000 Cl  0  0  0  0  0  0  0  0  0  0  0  0
    6.6734   -1.5905    0.0000 P   0  0  0  0  0  0  0  0  0  0  0  0
    5.7092   -2.7395    0.0000 O   0  0  0  0  0  0  0  0  0  0  0  0
    7.9724   -0.8405    0.0000 N   0  0  0  0  0  0  0  0  0  0  0  0
    7.9724    0.6595    0.0000 H   0  0  0  0  0  0  0  0  0  0  0  0
    9.6871   -1.8305    0.0000 C   0  0  0  0  0  0  0  0  0  0  0  0
    8.7230   -2.9795    0.0000 H   0  0  0  0  0  0  0  0  0  0  0  0
   10.6513   -2.9795    0.0000 H   0  0  0  0  0  0  0  0  0  0  0  0
   10.9862   -1.0805    0.0000 C   0  0  0  0  0  0  0  0  0  0  0  0
   12.2852   -1.8305    0.0000 H   0  0  0  0  0  0  0  0  0  0  0  0
   11.9504    0.0686    0.0000 H   0  0  0  0  0  0  0  0  0  0  0  0
   10.0220    0.0686    0.0000 Cl  0  0  0  0  0  0  0  0  0  0  0  0
    7.6375   -2.7395    0.0000 O   0  0  0  0  0  0  0  0  0  0  0  0
    7.1245   -4.1491    0.0000 H   0  0  0  0  0  0  0  0  0  0  0  0
    1.0615   -1.8305    0.0000 C   0  0  0  0  0  0  0  0  0  0  0  0
   -0.4157   -2.0909    0.0000 H   0  0  0  0  0  0  0  0  0  0  0  0
    0.5485   -0.4209    0.0000 H   0  0  0  0  0  0  0  0  0  0  0  0
    1.0615   -3.3305    0.0000 O   0  0  0  0  0  0  0  0  0  0  0  0
   -0.2375   -4.0805    0.0000 H   0  0  0  0  0  0  0  0  0  0  0  0
  1  2  1  0  0  0  0 
  1  3  1  0  0  0  0 
  1  4  1  0  0  0  0 
  4  5  1  0  0  0  0 
  4  6  1  0  0  0  0 
  4  7  1  0  0  0  0 
  7  8  1  0  0  0  0 
  8  9  1  0  0  0  0 
  8 10  1  0  0  0  0 
  8 11  1  0  0  0  0 
 11 12  1  0  0  0  0 
 11 13  1  0  0  0  0 
 11 14  1  0  0  0  0 
  7 15  1  0  0  0  0 
 15 16  2  0  0  0  0 
 15 17  1  0  0  0  0 
 17 18  1  0  0  0  0 
 17 19  1  0  0  0  0 
 19 20  1  0  0  0  0 
 19 21  1  0  0  0  0 
 19 22  1  0  0  0  0 
 22 23  1  0  0  0  0 
 22 24  1  0  0  0  0 
 22 25  1  0  0  0  0 
 15 26  1  0  0  0  0 
 26 27  1  0  0  0  0 
  1 28  1  0  0  0  0 
 28 29  1  0  0  0  0 
 28 30  1  0  0  0  0 
 28 31  1  0  0  0  0 
 31 32  1  0  0  0  0 
M  END
> <Rank>
25

> <Priority_score>
0.076

> <Reaction_type>
hydrolysis_(X=X-X_exclude_phosphate)

> <Parent_ID>
84

> <Parent_InChI>
InChI=1S/C7H15Cl2N2O2P/c8-2-4-10-14(12)11(6-3-9)5-1-7-13-14/h1-7H2,(H,10,12)

> <Parent_SMILES>
O=P1(NCCCl)OCCCN1CCCl

$$$$
Molecule 84_metabolite 26
  CDK     0516241031

 30 30  0  0  0  0  0  0  0  0999 V2000
   -0.5268    4.7491    0.0000 C   0  0  0  0  0  0  0  0  0  0  0  0
    0.4373    5.8983    0.0000 H   0  0  0  0  0  0  0  0  0  0  0  0
   -1.4912    5.8980    0.0000 H   0  0  0  0  0  0  0  0  0  0  0  0
   -1.8263    3.9983    0.0000 C   0  0  0  0  0  0  0  0  0  0  0  0
   -2.3395    5.4078    0.0000 H   0  0  0  0  0  0  0  0  0  0  0  0
   -3.3036    3.7380    0.0000 H   0  0  0  0  0  0  0  0  0  0  0  0
   -1.8268    2.4975    0.0000 N   0  0  0  0  0  0  0  0  0  0  0  0
   -3.5417    1.5077    0.0000 C   0  0  0  0  0  0  0  0  0  0  0  0
   -4.0545    2.9173    0.0000 H   0  0  0  0  0  0  0  0  0  0  0  0
   -5.0189    1.2475    0.0000 H   0  0  0  0  0  0  0  0  0  0  0  0
   -3.5419    0.0077    0.0000 C   0  0  0  0  0  0  0  0  0  0  0  0
   -2.2430   -0.7425    0.0000 H   0  0  0  0  0  0  0  0  0  0  0  0
   -4.0552   -1.4017    0.0000 H   0  0  0  0  0  0  0  0  0  0  0  0
   -5.0191    0.2684    0.0000 Cl  0  0  0  0  0  0  0  0  0  0  0  0
   -0.5278    1.7475    0.0000 P   0  0  0  0  0  0  0  0  0  0  0  0
   -1.4918    0.5983    0.0000 O   0  0  0  0  0  0  0  0  0  0  0  0
    0.7453    0.2310    0.0000 N   0  0  0  0  0  0  0  0  0  0  0  0
    0.2326   -1.1787    0.0000 H   0  0  0  0  0  0  0  0  0  0  0  0
    2.2224    0.4917    0.0000 C   0  0  0  0  0  0  0  0  0  0  0  0
    3.5213    1.2420    0.0000 H   0  0  0  0  0  0  0  0  0  0  0  0
    1.7091    1.9012    0.0000 H   0  0  0  0  0  0  0  0  0  0  0  0
    3.1869   -0.6571    0.0000 C   0  0  0  0  0  0  0  0  0  0  0  0
    4.6640   -0.3963    0.0000 H   0  0  0  0  0  0  0  0  0  0  0  0
    1.8880   -1.4074    0.0000 H   0  0  0  0  0  0  0  0  0  0  0  0
    3.7002   -2.0665    0.0000 Cl  0  0  0  0  0  0  0  0  0  0  0  0
    0.7718    2.4983    0.0000 O   0  0  0  0  0  0  0  0  0  0  0  0
    0.7722    3.9991    0.0000 C   0  0  0  0  0  0  0  0  0  0  0  0
    2.2494    3.7383    0.0000 H   0  0  0  0  0  0  0  0  0  0  0  0
    1.2854    5.4086    0.0000 O   0  0  0  0  0  0  0  0  0  0  0  0
    2.7627    5.6689    0.0000 H   0  0  0  0  0  0  0  0  0  0  0  0
  1  2  1  0  0  0  0 
  1  3  1  0  0  0  0 
  1  4  1  0  0  0  0 
  4  5  1  0  0  0  0 
  4  6  1  0  0  0  0 
  4  7  1  0  0  0  0 
  7  8  1  0  0  0  0 
  8  9  1  0  0  0  0 
  8 10  1  0  0  0  0 
  8 11  1  0  0  0  0 
 11 12  1  0  0  0  0 
 11 13  1  0  0  0  0 
 11 14  1  0  0  0  0 
  7 15  1  0  0  0  0 
 15 16  2  0  0  0  0 
 15 17  1  0  0  0  0 
 17 18  1  0  0  0  0 
 17 19  1  0  0  0  0 
 19 20  1  0  0  0  0 
 19 21  1  0  0  0  0 
 19 22  1  0  0  0  0 
 22 23  1  0  0  0  0 
 22 24  1  0  0  0  0 
 22 25  1  0  0  0  0 
 15 26  1  0  0  0  0 
 26 27  1  0  0  0  0 
  1 27  1  0  0  0  0 
 27 28  1  0  0  0  0 
 27 29  1  0  0  0  0 
 29 30  1  0  0  0  0 
M  END
> <Rank>
26

> <Priority_score>
0.02

> <Reaction_type>
aliphatic hydroxylation

> <Parent_ID>
84

> <Parent_InChI>
InChI=1S/C7H15Cl2N2O2P/c8-2-4-10-14(12)11(6-3-9)5-1-7-13-14/h1-7H2,(H,10,12)

> <Parent_SMILES>
O=P1(NCCCl)OCCCN1CCCl

$$$$
Molecule 84_metabolite 27
  CDK     0516241031

 28 28  0  0  0  0  0  0  0  0999 V2000
    1.6579   -2.1597    0.0000 C   0  0  0  0  0  0  0  0  0  0  0  0
    0.6938   -3.3089    0.0000 H   0  0  0  0  0  0  0  0  0  0  0  0
    2.6223   -3.3086    0.0000 H   0  0  0  0  0  0  0  0  0  0  0  0
    2.9574   -1.4089    0.0000 C   0  0  0  0  0  0  0  0  0  0  0  0
    3.4706   -2.8183    0.0000 H   0  0  0  0  0  0  0  0  0  0  0  0
    4.4346   -1.1485    0.0000 H   0  0  0  0  0  0  0  0  0  0  0  0
    2.9579    0.0920    0.0000 N   0  0  0  0  0  0  0  0  0  0  0  0
    4.6727    1.0817    0.0000 C   0  0  0  0  0  0  0  0  0  0  0  0
    5.1856   -0.3279    0.0000 H   0  0  0  0  0  0  0  0  0  0  0  0
    6.1500    1.3419    0.0000 H   0  0  0  0  0  0  0  0  0  0  0  0
    4.6730    2.5817    0.0000 C   0  0  0  0  0  0  0  0  0  0  0  0
    3.3741    3.3319    0.0000 H   0  0  0  0  0  0  0  0  0  0  0  0
    5.1862    3.9912    0.0000 H   0  0  0  0  0  0  0  0  0  0  0  0
    6.1502    2.3210    0.0000 Cl  0  0  0  0  0  0  0  0  0  0  0  0
    1.6588    0.8420    0.0000 P   0  0  0  0  0  0  0  0  0  0  0  0
    2.6229    1.9911    0.0000 O   0  0  0  0  0  0  0  0  0  0  0  0
    0.3858    2.3585    0.0000 N   0  0  0  0  0  0  0  0  0  0  0  0
    0.8985    3.7681    0.0000 H   0  0  0  0  0  0  0  0  0  0  0  0
   -1.0914    2.0977    0.0000 C   0  0  0  0  0  0  0  0  0  0  0  0
   -2.3903    1.3474    0.0000 H   0  0  0  0  0  0  0  0  0  0  0  0
   -0.5780    0.6883    0.0000 H   0  0  0  0  0  0  0  0  0  0  0  0
   -2.0558    3.2465    0.0000 C   0  0  0  0  0  0  0  0  0  0  0  0
   -3.5330    2.9858    0.0000 H   0  0  0  0  0  0  0  0  0  0  0  0
   -1.5431    4.6562    0.0000 O   0  0  0  0  0  0  0  0  0  0  0  0
    0.3593    0.0911    0.0000 O   0  0  0  0  0  0  0  0  0  0  0  0
    0.3588   -1.4097    0.0000 C   0  0  0  0  0  0  0  0  0  0  0  0
   -1.1183   -1.1489    0.0000 H   0  0  0  0  0  0  0  0  0  0  0  0
   -0.1544   -2.8192    0.0000 H   0  0  0  0  0  0  0  0  0  0  0  0
  1  2  1  0  0  0  0 
  1  3  1  0  0  0  0 
  1  4  1  0  0  0  0 
  4  5  1  0  0  0  0 
  4  6  1  0  0  0  0 
  4  7  1  0  0  0  0 
  7  8  1  0  0  0  0 
  8  9  1  0  0  0  0 
  8 10  1  0  0  0  0 
  8 11  1  0  0  0  0 
 11 12  1  0  0  0  0 
 11 13  1  0  0  0  0 
 11 14  1  0  0  0  0 
  7 15  1  0  0  0  0 
 15 16  2  0  0  0  0 
 15 17  1  0  0  0  0 
 17 18  1  0  0  0  0 
 17 19  1  0  0  0  0 
 19 20  1  0  0  0  0 
 19 21  1  0  0  0  0 
 19 22  1  0  0  0  0 
 22 23  1  0  0  0  0 
 22 24  2  0  0  0  0 
 15 25  1  0  0  0  0 
 25 26  1  0  0  0  0 
  1 26  1  0  0  0  0 
 26 27  1  0  0  0  0 
 26 28  1  0  0  0  0 
M  END
> <Rank>
27

> <Priority_score>
0.016

> <Reaction_type>
oxidative dehalogenation alkyl

> <Parent_ID>
84

> <Parent_InChI>
InChI=1S/C7H15Cl2N2O2P/c8-2-4-10-14(12)11(6-3-9)5-1-7-13-14/h1-7H2,(H,10,12)

> <Parent_SMILES>
O=P1(NCCCl)OCCCN1CCCl

$$$$
Molecule 84_metabolite 28
  CDK     0516241031

 30 30  0  0  0  0  0  0  0  0999 V2000
   -1.8797   -0.9610    0.0000 C   0  0  0  0  0  0  0  0  0  0  0  0
   -3.3570   -0.7007    0.0000 H   0  0  0  0  0  0  0  0  0  0  0  0
   -2.3925   -2.3707    0.0000 H   0  0  0  0  0  0  0  0  0  0  0  0
   -0.5797   -1.7110    0.0000 C   0  0  0  0  0  0  0  0  0  0  0  0
   -1.5438   -2.8602    0.0000 H   0  0  0  0  0  0  0  0  0  0  0  0
    0.3843   -2.8602    0.0000 H   0  0  0  0  0  0  0  0  0  0  0  0
    0.7203   -0.9610    0.0000 N   0  0  0  0  0  0  0  0  0  0  0  0
    2.4348   -1.9513    0.0000 C   0  0  0  0  0  0  0  0  0  0  0  0
    1.4705   -3.1002    0.0000 H   0  0  0  0  0  0  0  0  0  0  0  0
    3.3988   -3.1005    0.0000 H   0  0  0  0  0  0  0  0  0  0  0  0
    3.7340   -1.2015    0.0000 C   0  0  0  0  0  0  0  0  0  0  0  0
    3.7342    0.2985    0.0000 H   0  0  0  0  0  0  0  0  0  0  0  0
    5.2113   -0.9413    0.0000 H   0  0  0  0  0  0  0  0  0  0  0  0
    4.2468   -2.6111    0.0000 Cl  0  0  0  0  0  0  0  0  0  0  0  0
    0.7203    0.5390    0.0000 P   0  0  0  0  0  0  0  0  0  0  0  0
    2.1975    0.2787    0.0000 O   0  0  0  0  0  0  0  0  0  0  0  0
    1.3971    2.3997    0.0000 N   0  0  0  0  0  0  0  0  0  0  0  0
    2.8742    2.6605    0.0000 H   0  0  0  0  0  0  0  0  0  0  0  0
    0.4326    3.5486    0.0000 C   0  0  0  0  0  0  0  0  0  0  0  0
   -0.8665    4.2983    0.0000 H   0  0  0  0  0  0  0  0  0  0  0  0
   -0.5313    2.3993    0.0000 H   0  0  0  0  0  0  0  0  0  0  0  0
    0.9454    4.9582    0.0000 C   0  0  0  0  0  0  0  0  0  0  0  0
    2.2446    4.2085    0.0000 H   0  0  0  0  0  0  0  0  0  0  0  0
    1.9093    6.1075    0.0000 H   0  0  0  0  0  0  0  0  0  0  0  0
   -0.0190    6.1071    0.0000 O   0  0  0  0  0  0  0  0  0  0  0  0
    0.4937    7.5167    0.0000 H   0  0  0  0  0  0  0  0  0  0  0  0
   -0.5797    1.2890    0.0000 O   0  0  0  0  0  0  0  0  0  0  0  0
   -1.8797    0.5390    0.0000 C   0  0  0  0  0  0  0  0  0  0  0  0
   -2.3925    1.9486    0.0000 H   0  0  0  0  0  0  0  0  0  0  0  0
   -3.3570    0.2787    0.0000 H   0  0  0  0  0  0  0  0  0  0  0  0
  1  2  1  0  0  0  0 
  1  3  1  0  0  0  0 
  1  4  1  0  0  0  0 
  4  5  1  0  0  0  0 
  4  6  1  0  0  0  0 
  4  7  1  0  0  0  0 
  7  8  1  0  0  0  0 
  8  9  1  0  0  0  0 
  8 10  1  0  0  0  0 
  8 11  1  0  0  0  0 
 11 12  1  0  0  0  0 
 11 13  1  0  0  0  0 
 11 14  1  0  0  0  0 
  7 15  1  0  0  0  0 
 15 16  2  0  0  0  0 
 15 17  1  0  0  0  0 
 17 18  1  0  0  0  0 
 17 19  1  0  0  0  0 
 19 20  1  0  0  0  0 
 19 21  1  0  0  0  0 
 19 22  1  0  0  0  0 
 22 23  1  0  0  0  0 
 22 24  1  0  0  0  0 
 22 25  1  0  0  0  0 
 25 26  1  0  0  0  0 
 15 27  1  0  0  0  0 
 27 28  1  0  0  0  0 
  1 28  1  0  0  0  0 
 28 29  1  0  0  0  0 
 28 30  1  0  0  0  0 
M  END
> <Rank>
27

> <Priority_score>
0.016

> <Reaction_type>
aliphatic_dehalogenation

> <Parent_ID>
84

> <Parent_InChI>
InChI=1S/C7H15Cl2N2O2P/c8-2-4-10-14(12)11(6-3-9)5-1-7-13-14/h1-7H2,(H,10,12)

> <Parent_SMILES>
O=P1(NCCCl)OCCCN1CCCl

$$$$
Molecule 84_metabolite 29
  CDK     0516241031

 30 30  0  0  0  0  0  0  0  0999 V2000
   -1.8797   -0.9610    0.0000 C   0  0  0  0  0  0  0  0  0  0  0  0
   -3.3570   -0.7007    0.0000 H   0  0  0  0  0  0  0  0  0  0  0  0
   -2.3925   -2.3707    0.0000 H   0  0  0  0  0  0  0  0  0  0  0  0
   -0.5797   -1.7110    0.0000 C   0  0  0  0  0  0  0  0  0  0  0  0
   -1.5438   -2.8602    0.0000 H   0  0  0  0  0  0  0  0  0  0  0  0
    0.3843   -2.8602    0.0000 H   0  0  0  0  0  0  0  0  0  0  0  0
    0.7203   -0.9610    0.0000 N   0  0  0  0  0  0  0  0  0  0  0  0
    2.4348   -1.9513    0.0000 C   0  0  0  0  0  0  0  0  0  0  0  0
    1.4705   -3.1002    0.0000 H   0  0  0  0  0  0  0  0  0  0  0  0
    3.3988   -3.1005    0.0000 H   0  0  0  0  0  0  0  0  0  0  0  0
    3.7340   -1.2015    0.0000 C   0  0  0  0  0  0  0  0  0  0  0  0
    3.7342    0.2985    0.0000 H   0  0  0  0  0  0  0  0  0  0  0  0
    5.2113   -0.9413    0.0000 H   0  0  0  0  0  0  0  0  0  0  0  0
    4.2468   -2.6111    0.0000 Cl  0  0  0  0  0  0  0  0  0  0  0  0
    0.7203    0.5390    0.0000 P   0  0  0  0  0  0  0  0  0  0  0  0
    2.1975    0.2787    0.0000 O   0  0  0  0  0  0  0  0  0  0  0  0
    1.3971    2.3997    0.0000 N   0  0  0  0  0  0  0  0  0  0  0  0
    2.8742    2.6605    0.0000 H   0  0  0  0  0  0  0  0  0  0  0  0
    0.4326    3.5486    0.0000 C   0  0  0  0  0  0  0  0  0  0  0  0
   -0.8665    4.2983    0.0000 H   0  0  0  0  0  0  0  0  0  0  0  0
   -0.5313    2.3993    0.0000 H   0  0  0  0  0  0  0  0  0  0  0  0
    0.9454    4.9582    0.0000 C   0  0  0  0  0  0  0  0  0  0  0  0
    2.2446    4.2085    0.0000 H   0  0  0  0  0  0  0  0  0  0  0  0
    1.9093    6.1075    0.0000 Cl  0  0  0  0  0  0  0  0  0  0  0  0
   -0.0190    6.1071    0.0000 O   0  0  0  0  0  0  0  0  0  0  0  0
    0.4937    7.5167    0.0000 H   0  0  0  0  0  0  0  0  0  0  0  0
   -0.5797    1.2890    0.0000 O   0  0  0  0  0  0  0  0  0  0  0  0
   -1.8797    0.5390    0.0000 C   0  0  0  0  0  0  0  0  0  0  0  0
   -2.3925    1.9486    0.0000 H   0  0  0  0  0  0  0  0  0  0  0  0
   -3.3570    0.2787    0.0000 H   0  0  0  0  0  0  0  0  0  0  0  0
  1  2  1  0  0  0  0 
  1  3  1  0  0  0  0 
  1  4  1  0  0  0  0 
  4  5  1  0  0  0  0 
  4  6  1  0  0  0  0 
  4  7  1  0  0  0  0 
  7  8  1  0  0  0  0 
  8  9  1  0  0  0  0 
  8 10  1  0  0  0  0 
  8 11  1  0  0  0  0 
 11 12  1  0  0  0  0 
 11 13  1  0  0  0  0 
 11 14  1  0  0  0  0 
  7 15  1  0  0  0  0 
 15 16  2  0  0  0  0 
 15 17  1  0  0  0  0 
 17 18  1  0  0  0  0 
 17 19  1  0  0  0  0 
 19 20  1  0  0  0  0 
 19 21  1  0  0  0  0 
 19 22  1  0  0  0  0 
 22 23  1  0  0  0  0 
 22 24  1  0  0  0  0 
 22 25  1  0  0  0  0 
 25 26  1  0  0  0  0 
 15 27  1  0  0  0  0 
 27 28  1  0  0  0  0 
  1 28  1  0  0  0  0 
 28 29  1  0  0  0  0 
 28 30  1  0  0  0  0 
M  END
> <Rank>
27

> <Priority_score>
0.016

> <Reaction_type>
aliphatic hydroxylation

> <Parent_ID>
84

> <Parent_InChI>
InChI=1S/C7H15Cl2N2O2P/c8-2-4-10-14(12)11(6-3-9)5-1-7-13-14/h1-7H2,(H,10,12)

> <Parent_SMILES>
O=P1(NCCCl)OCCCN1CCCl

$$$$
Molecule 84_metabolite 30
  CDK     0516241031

 30 30  0  0  0  0  0  0  0  0999 V2000
    1.6580   -2.1596    0.0000 C   0  0  0  0  0  0  0  0  0  0  0  0
    0.6940   -3.3088    0.0000 H   0  0  0  0  0  0  0  0  0  0  0  0
    2.6225   -3.3084    0.0000 H   0  0  0  0  0  0  0  0  0  0  0  0
    2.9576   -1.4088    0.0000 C   0  0  0  0  0  0  0  0  0  0  0  0
    3.4707   -2.8182    0.0000 H   0  0  0  0  0  0  0  0  0  0  0  0
    4.4348   -1.1484    0.0000 H   0  0  0  0  0  0  0  0  0  0  0  0
    2.9580    0.0921    0.0000 N   0  0  0  0  0  0  0  0  0  0  0  0
    4.6729    1.0818    0.0000 C   0  0  0  0  0  0  0  0  0  0  0  0
    5.1857   -0.3278    0.0000 H   0  0  0  0  0  0  0  0  0  0  0  0
    6.1502    1.3420    0.0000 H   0  0  0  0  0  0  0  0  0  0  0  0
    4.6732    2.5818    0.0000 C   0  0  0  0  0  0  0  0  0  0  0  0
    5.1864    3.9913    0.0000 H   0  0  0  0  0  0  0  0  0  0  0  0
    6.1503    2.3211    0.0000 Cl  0  0  0  0  0  0  0  0  0  0  0  0
    3.3742    3.3320    0.0000 O   0  0  0  0  0  0  0  0  0  0  0  0
    3.3745    4.8320    0.0000 H   0  0  0  0  0  0  0  0  0  0  0  0
    1.6590    0.8421    0.0000 P   0  0  0  0  0  0  0  0  0  0  0  0
    2.6231    1.9912    0.0000 O   0  0  0  0  0  0  0  0  0  0  0  0
    0.3860    2.3586    0.0000 N   0  0  0  0  0  0  0  0  0  0  0  0
    0.8987    3.7682    0.0000 H   0  0  0  0  0  0  0  0  0  0  0  0
   -1.0912    2.0978    0.0000 C   0  0  0  0  0  0  0  0  0  0  0  0
   -2.3901    1.3475    0.0000 H   0  0  0  0  0  0  0  0  0  0  0  0
   -0.5779    0.6884    0.0000 H   0  0  0  0  0  0  0  0  0  0  0  0
   -2.0556    3.2466    0.0000 C   0  0  0  0  0  0  0  0  0  0  0  0
   -3.5328    2.9859    0.0000 H   0  0  0  0  0  0  0  0  0  0  0  0
   -0.7567    3.9969    0.0000 H   0  0  0  0  0  0  0  0  0  0  0  0
   -2.5690    4.6561    0.0000 Cl  0  0  0  0  0  0  0  0  0  0  0  0
    0.3595    0.0912    0.0000 O   0  0  0  0  0  0  0  0  0  0  0  0
    0.3590   -1.4096    0.0000 C   0  0  0  0  0  0  0  0  0  0  0  0
   -1.1182   -1.1488    0.0000 H   0  0  0  0  0  0  0  0  0  0  0  0
   -0.1542   -2.8191    0.0000 H   0  0  0  0  0  0  0  0  0  0  0  0
  1  2  1  0  0  0  0 
  1  3  1  0  0  0  0 
  1  4  1  0  0  0  0 
  4  5  1  0  0  0  0 
  4  6  1  0  0  0  0 
  4  7  1  0  0  0  0 
  7  8  1  0  0  0  0 
  8  9  1  0  0  0  0 
  8 10  1  0  0  0  0 
  8 11  1  0  0  0  0 
 11 12  1  0  0  0  0 
 11 13  1  0  0  0  0 
 11 14  1  0  0  0  0 
 14 15  1  0  0  0  0 
  7 16  1  0  0  0  0 
 16 17  2  0  0  0  0 
 16 18  1  0  0  0  0 
 18 19  1  0  0  0  0 
 18 20  1  0  0  0  0 
 20 21  1  0  0  0  0 
 20 22  1  0  0  0  0 
 20 23  1  0  0  0  0 
 23 24  1  0  0  0  0 
 23 25  1  0  0  0  0 
 23 26  1  0  0  0  0 
 16 27  1  0  0  0  0 
 27 28  1  0  0  0  0 
  1 28  1  0  0  0  0 
 28 29  1  0  0  0  0 
 28 30  1  0  0  0  0 
M  END
> <Rank>
30

> <Priority_score>
0.008

> <Reaction_type>
aliphatic hydroxylation

> <Parent_ID>
84

> <Parent_InChI>
InChI=1S/C7H15Cl2N2O2P/c8-2-4-10-14(12)11(6-3-9)5-1-7-13-14/h1-7H2,(H,10,12)

> <Parent_SMILES>
O=P1(NCCCl)OCCCN1CCCl

$$$$
Molecule 84_metabolite 31
  CDK     0516241031

 28 28  0  0  0  0  0  0  0  0999 V2000
    4.3312    0.3821    0.0000 C   0  0  0  0  0  0  0  0  0  0  0  0
    4.8443   -1.0273    0.0000 H   0  0  0  0  0  0  0  0  0  0  0  0
    5.8083    0.6429    0.0000 H   0  0  0  0  0  0  0  0  0  0  0  0
    4.3307    1.8830    0.0000 C   0  0  0  0  0  0  0  0  0  0  0  0
    5.8079    1.6227    0.0000 H   0  0  0  0  0  0  0  0  0  0  0  0
    4.8439    3.2925    0.0000 H   0  0  0  0  0  0  0  0  0  0  0  0
    3.0312    2.6338    0.0000 N   0  0  0  0  0  0  0  0  0  0  0  0
    3.0315    4.6138    0.0000 C   0  0  0  0  0  0  0  0  0  0  0  0
    4.5086    4.3531    0.0000 H   0  0  0  0  0  0  0  0  0  0  0  0
    3.5447    6.0233    0.0000 H   0  0  0  0  0  0  0  0  0  0  0  0
    1.7326    5.3640    0.0000 C   0  0  0  0  0  0  0  0  0  0  0  0
    1.7328    6.8640    0.0000 H   0  0  0  0  0  0  0  0  0  0  0  0
    0.4334    4.6142    0.0000 O   0  0  0  0  0  0  0  0  0  0  0  0
    1.7321    1.8838    0.0000 P   0  0  0  0  0  0  0  0  0  0  0  0
    1.2189    3.2933    0.0000 O   0  0  0  0  0  0  0  0  0  0  0  0
   -0.2177    1.5396    0.0000 N   0  0  0  0  0  0  0  0  0  0  0  0
   -1.1822    2.6884    0.0000 H   0  0  0  0  0  0  0  0  0  0  0  0
   -0.7305    0.1299    0.0000 C   0  0  0  0  0  0  0  0  0  0  0  0
    0.7468   -0.1302    0.0000 H   0  0  0  0  0  0  0  0  0  0  0  0
   -0.7301   -1.3701    0.0000 H   0  0  0  0  0  0  0  0  0  0  0  0
   -2.2076   -0.1309    0.0000 C   0  0  0  0  0  0  0  0  0  0  0  0
   -2.7203   -1.5405    0.0000 H   0  0  0  0  0  0  0  0  0  0  0  0
   -3.6849    0.1293    0.0000 H   0  0  0  0  0  0  0  0  0  0  0  0
   -2.2079    1.3691    0.0000 Cl  0  0  0  0  0  0  0  0  0  0  0  0
    1.7326    0.3830    0.0000 O   0  0  0  0  0  0  0  0  0  0  0  0
    3.0321   -0.3679    0.0000 C   0  0  0  0  0  0  0  0  0  0  0  0
    2.0677   -1.5167    0.0000 H   0  0  0  0  0  0  0  0  0  0  0  0
    3.9962   -1.5170    0.0000 H   0  0  0  0  0  0  0  0  0  0  0  0
  1  2  1  0  0  0  0 
  1  3  1  0  0  0  0 
  1  4  1  0  0  0  0 
  4  5  1  0  0  0  0 
  4  6  1  0  0  0  0 
  4  7  1  0  0  0  0 
  7  8  1  0  0  0  0 
  8  9  1  0  0  0  0 
  8 10  1  0  0  0  0 
  8 11  1  0  0  0  0 
 11 12  1  0  0  0  0 
 11 13  2  0  0  0  0 
  7 14  1  0  0  0  0 
 14 15  2  0  0  0  0 
 14 16  1  0  0  0  0 
 16 17  1  0  0  0  0 
 16 18  1  0  0  0  0 
 18 19  1  0  0  0  0 
 18 20  1  0  0  0  0 
 18 21  1  0  0  0  0 
 21 22  1  0  0  0  0 
 21 23  1  0  0  0  0 
 21 24  1  0  0  0  0 
 14 25  1  0  0  0  0 
 25 26  1  0  0  0  0 
  1 26  1  0  0  0  0 
 26 27  1  0  0  0  0 
 26 28  1  0  0  0  0 
M  END
> <Rank>
30

> <Priority_score>
0.008

> <Reaction_type>
oxidative dehalogenation alkyl

> <Parent_ID>
84

> <Parent_InChI>
InChI=1S/C7H15Cl2N2O2P/c8-2-4-10-14(12)11(6-3-9)5-1-7-13-14/h1-7H2,(H,10,12)

> <Parent_SMILES>
O=P1(NCCCl)OCCCN1CCCl

$$$$
Molecule 84_metabolite 32
  CDK     0516241031

 30 30  0  0  0  0  0  0  0  0999 V2000
    1.6580   -2.1596    0.0000 C   0  0  0  0  0  0  0  0  0  0  0  0
    0.6940   -3.3088    0.0000 H   0  0  0  0  0  0  0  0  0  0  0  0
    2.6225   -3.3084    0.0000 H   0  0  0  0  0  0  0  0  0  0  0  0
    2.9576   -1.4088    0.0000 C   0  0  0  0  0  0  0  0  0  0  0  0
    3.4707   -2.8182    0.0000 H   0  0  0  0  0  0  0  0  0  0  0  0
    4.4348   -1.1484    0.0000 H   0  0  0  0  0  0  0  0  0  0  0  0
    2.9580    0.0921    0.0000 N   0  0  0  0  0  0  0  0  0  0  0  0
    4.6729    1.0818    0.0000 C   0  0  0  0  0  0  0  0  0  0  0  0
    5.1857   -0.3278    0.0000 H   0  0  0  0  0  0  0  0  0  0  0  0
    6.1502    1.3420    0.0000 H   0  0  0  0  0  0  0  0  0  0  0  0
    4.6732    2.5818    0.0000 C   0  0  0  0  0  0  0  0  0  0  0  0
    5.1864    3.9913    0.0000 H   0  0  0  0  0  0  0  0  0  0  0  0
    6.1503    2.3211    0.0000 H   0  0  0  0  0  0  0  0  0  0  0  0
    3.3742    3.3320    0.0000 O   0  0  0  0  0  0  0  0  0  0  0  0
    3.3745    4.8320    0.0000 H   0  0  0  0  0  0  0  0  0  0  0  0
    1.6590    0.8421    0.0000 P   0  0  0  0  0  0  0  0  0  0  0  0
    2.6231    1.9912    0.0000 O   0  0  0  0  0  0  0  0  0  0  0  0
    0.3860    2.3586    0.0000 N   0  0  0  0  0  0  0  0  0  0  0  0
    0.8987    3.7682    0.0000 H   0  0  0  0  0  0  0  0  0  0  0  0
   -1.0912    2.0978    0.0000 C   0  0  0  0  0  0  0  0  0  0  0  0
   -2.3901    1.3475    0.0000 H   0  0  0  0  0  0  0  0  0  0  0  0
   -0.5779    0.6884    0.0000 H   0  0  0  0  0  0  0  0  0  0  0  0
   -2.0556    3.2466    0.0000 C   0  0  0  0  0  0  0  0  0  0  0  0
   -3.5328    2.9859    0.0000 H   0  0  0  0  0  0  0  0  0  0  0  0
   -0.7567    3.9969    0.0000 H   0  0  0  0  0  0  0  0  0  0  0  0
   -2.5690    4.6561    0.0000 Cl  0  0  0  0  0  0  0  0  0  0  0  0
    0.3595    0.0912    0.0000 O   0  0  0  0  0  0  0  0  0  0  0  0
    0.3590   -1.4096    0.0000 C   0  0  0  0  0  0  0  0  0  0  0  0
   -1.1182   -1.1488    0.0000 H   0  0  0  0  0  0  0  0  0  0  0  0
   -0.1542   -2.8191    0.0000 H   0  0  0  0  0  0  0  0  0  0  0  0
  1  2  1  0  0  0  0 
  1  3  1  0  0  0  0 
  1  4  1  0  0  0  0 
  4  5  1  0  0  0  0 
  4  6  1  0  0  0  0 
  4  7  1  0  0  0  0 
  7  8  1  0  0  0  0 
  8  9  1  0  0  0  0 
  8 10  1  0  0  0  0 
  8 11  1  0  0  0  0 
 11 12  1  0  0  0  0 
 11 13  1  0  0  0  0 
 11 14  1  0  0  0  0 
 14 15  1  0  0  0  0 
  7 16  1  0  0  0  0 
 16 17  2  0  0  0  0 
 16 18  1  0  0  0  0 
 18 19  1  0  0  0  0 
 18 20  1  0  0  0  0 
 20 21  1  0  0  0  0 
 20 22  1  0  0  0  0 
 20 23  1  0  0  0  0 
 23 24  1  0  0  0  0 
 23 25  1  0  0  0  0 
 23 26  1  0  0  0  0 
 16 27  1  0  0  0  0 
 27 28  1  0  0  0  0 
  1 28  1  0  0  0  0 
 28 29  1  0  0  0  0 
 28 30  1  0  0  0  0 
M  END
> <Rank>
30

> <Priority_score>
0.008

> <Reaction_type>
aliphatic_dehalogenation

> <Parent_ID>
84

> <Parent_InChI>
InChI=1S/C7H15Cl2N2O2P/c8-2-4-10-14(12)11(6-3-9)5-1-7-13-14/h1-7H2,(H,10,12)

> <Parent_SMILES>
O=P1(NCCCl)OCCCN1CCCl

$$$$
Molecule 84_metabolite 33
  CDK     0516241031

 27 27  0  0  0  0  0  0  0  0999 V2000
    3.5652    1.6703    0.0000 C   0  0  0  0  0  0  0  0  0  0  0  0
    4.8641    2.4205    0.0000 H   0  0  0  0  0  0  0  0  0  0  0  0
    3.5652    0.1703    0.0000 C   0  0  0  0  0  0  0  0  0  0  0  0
    4.8641   -0.5800    0.0000 H   0  0  0  0  0  0  0  0  0  0  0  0
    2.2652   -0.5797    0.0000 O   0  0  0  0  0  0  0  0  0  0  0  0
    0.9652    0.1703    0.0000 P   0  0  0  0  0  0  0  0  0  0  0  0
   -0.5120    0.4306    0.0000 O   0  0  0  0  0  0  0  0  0  0  0  0
    0.2884   -1.6905    0.0000 N   0  0  0  0  0  0  0  0  0  0  0  0
    1.2528   -2.8393    0.0000 H   0  0  0  0  0  0  0  0  0  0  0  0
   -1.1888   -1.9513    0.0000 C   0  0  0  0  0  0  0  0  0  0  0  0
   -1.1891   -0.4513    0.0000 H   0  0  0  0  0  0  0  0  0  0  0  0
   -2.6660   -1.6911    0.0000 H   0  0  0  0  0  0  0  0  0  0  0  0
   -1.7015   -3.3609    0.0000 C   0  0  0  0  0  0  0  0  0  0  0  0
   -3.1786   -3.6217    0.0000 H   0  0  0  0  0  0  0  0  0  0  0  0
   -1.7012   -4.8609    0.0000 H   0  0  0  0  0  0  0  0  0  0  0  0
   -0.2242   -3.6211    0.0000 Cl  0  0  0  0  0  0  0  0  0  0  0  0
    0.9652    1.6703    0.0000 N   0  0  0  0  0  0  0  0  0  0  0  0
    2.2652    2.4203    0.0000 C   0  0  0  0  0  0  0  0  0  0  0  0
    3.2293    3.5694    0.0000 H   0  0  0  0  0  0  0  0  0  0  0  0
    1.3011    3.5694    0.0000 H   0  0  0  0  0  0  0  0  0  0  0  0
   -0.7494    2.6605    0.0000 C   0  0  0  0  0  0  0  0  0  0  0  0
   -2.2265    2.9212    0.0000 H   0  0  0  0  0  0  0  0  0  0  0  0
   -1.2626    1.2511    0.0000 H   0  0  0  0  0  0  0  0  0  0  0  0
   -0.7491    4.1605    0.0000 C   0  0  0  0  0  0  0  0  0  0  0  0
    0.5500    4.9103    0.0000 H   0  0  0  0  0  0  0  0  0  0  0  0
   -2.2264    3.9003    0.0000 H   0  0  0  0  0  0  0  0  0  0  0  0
   -1.2619    5.5702    0.0000 Cl  0  0  0  0  0  0  0  0  0  0  0  0
  1  2  1  0  0  0  0 
  1  3  2  0  0  0  0 
  3  4  1  0  0  0  0 
  3  5  1  0  0  0  0 
  5  6  1  0  0  0  0 
  6  7  2  0  0  0  0 
  6  8  1  0  0  0  0 
  8  9  1  0  0  0  0 
  8 10  1  0  0  0  0 
 10 11  1  0  0  0  0 
 10 12  1  0  0  0  0 
 10 13  1  0  0  0  0 
 13 14  1  0  0  0  0 
 13 15  1  0  0  0  0 
 13 16  1  0  0  0  0 
  6 17  1  0  0  0  0 
 17 18  1  0  0  0  0 
  1 18  1  0  0  0  0 
 18 19  1  0  0  0  0 
 18 20  1  0  0  0  0 
 17 21  1  0  0  0  0 
 21 22  1  0  0  0  0 
 21 23  1  0  0  0  0 
 21 24  1  0  0  0  0 
 24 25  1  0  0  0  0 
 24 26  1  0  0  0  0 
 24 27  1  0  0  0  0 
M  END
> <Rank>
33

> <Priority_score>
0.004

> <Reaction_type>
alkyl dehydrogenation

> <Parent_ID>
84

> <Parent_InChI>
InChI=1S/C7H15Cl2N2O2P/c8-2-4-10-14(12)11(6-3-9)5-1-7-13-14/h1-7H2,(H,10,12)

> <Parent_SMILES>
O=P1(NCCCl)OCCCN1CCCl

$$$$
Molecule 85
  CDK     0516241031

 26 28  0  0  0  0  0  0  0  0999 V2000
    2.9204   -5.4352    0.0000 C   0  0  0  0  0  0  0  0  0  0  0  0
    4.2203   -4.6850    0.0000 C   0  0  0  0  0  0  0  0  0  0  0  0
    4.2200   -3.1850    0.0000 C   0  0  0  0  0  0  0  0  0  0  0  0
    2.9199   -2.4352    0.0000 C   0  0  0  0  0  0  0  0  0  0  0  0
    1.6200   -3.1854    0.0000 C   0  0  0  0  0  0  0  0  0  0  0  0
    1.6203   -4.6854    0.0000 C   0  0  0  0  0  0  0  0  0  0  0  0
    2.9197   -0.9352    0.0000 C   0  0  0  0  0  0  0  0  0  0  0  0
    4.2186   -0.1850    0.0000 C   0  0  0  0  0  0  0  0  0  0  0  0
    5.5045   -0.9248    0.0000 C   0  0  0  0  0  0  0  0  0  0  0  0
    6.8072   -0.1811    0.0000 C   0  0  0  0  0  0  0  0  0  0  0  0
    6.8326    1.3073    0.0000 C   0  0  0  0  0  0  0  0  0  0  0  0
    5.5231    2.0682    0.0000 C   0  0  0  0  0  0  0  0  0  0  0  0
    4.2204    1.3245    0.0000 C   0  0  0  0  0  0  0  0  0  0  0  0
    8.1390    2.0444    0.0000 Cl  0  0  0  0  0  0  0  0  0  0  0  0
    1.6205   -0.1854    0.0000 N   0  0  0  0  0  0  0  0  0  0  0  0
    1.6200    1.3154    0.0000 C   0  0  0  0  0  0  0  0  0  0  0  0
    0.3205    2.0663    0.0000 C   0  0  0  0  0  0  0  0  0  0  0  0
   -0.9785    1.3163    0.0000 N   0  0  0  0  0  0  0  0  0  0  0  0
   -0.9781   -0.1846    0.0000 C   0  0  0  0  0  0  0  0  0  0  0  0
    0.3215   -0.9354    0.0000 C   0  0  0  0  0  0  0  0  0  0  0  0
   -2.2777    2.0661    0.0000 C   0  0  0  0  0  0  0  0  0  0  0  0
   -3.5766    1.3159    0.0000 C   0  0  0  0  0  0  0  0  0  0  0  0
   -4.8758    2.0656    0.0000 O   0  0  0  0  0  0  0  0  0  0  0  0
   -6.1747    1.3154    0.0000 C   0  0  0  0  0  0  0  0  0  0  0  0
   -7.4738    2.0652    0.0000 C   0  0  0  0  0  0  0  0  0  0  0  0
   -8.7728    1.3150    0.0000 O   0  0  0  0  0  0  0  0  0  0  0  0
  1  2  2  0  0  0  0 
  2  3  1  0  0  0  0 
  3  4  2  0  0  0  0 
  4  5  1  0  0  0  0 
  5  6  2  0  0  0  0 
  1  6  1  0  0  0  0 
  4  7  1  0  0  0  0 
  7  8  1  0  0  0  0 
  8  9  2  0  0  0  0 
  9 10  1  0  0  0  0 
 10 11  2  0  0  0  0 
 11 12  1  0  0  0  0 
 12 13  2  0  0  0  0 
  8 13  1  0  0  0  0 
 11 14  1  0  0  0  0 
  7 15  1  0  0  0  0 
 15 16  1  0  0  0  0 
 16 17  1  0  0  0  0 
 17 18  1  0  0  0  0 
 18 19  1  0  0  0  0 
 19 20  1  0  0  0  0 
 15 20  1  0  0  0  0 
 18 21  1  0  0  0  0 
 21 22  1  0  0  0  0 
 22 23  1  0  0  0  0 
 23 24  1  0  0  0  0 
 24 25  1  0  0  0  0 
 25 26  1  0  0  0  0 
M  END
> <SMILES>
OCCOCCN1CCN(C(c2ccccc2)c2ccc(Cl)cc2)CC1

$$$$
Molecule 85_metabolite 1
  CDK     0516241031

 57 59  0  0  0  0  0  0  0  0999 V2000
    5.1878    2.9319    0.0000 C   0  0  0  0  0  0  0  0  0  0  0  0
    6.4868    3.6821    0.0000 H   0  0  0  0  0  0  0  0  0  0  0  0
    3.8882    3.6825    0.0000 C   0  0  0  0  0  0  0  0  0  0  0  0
    3.8882    5.1825    0.0000 H   0  0  0  0  0  0  0  0  0  0  0  0
    2.5893    2.9323    0.0000 C   0  0  0  0  0  0  0  0  0  0  0  0
    1.2900    3.6819    0.0000 H   0  0  0  0  0  0  0  0  0  0  0  0
    2.5900    1.4315    0.0000 C   0  0  0  0  0  0  0  0  0  0  0  0
    3.8896    0.6809    0.0000 C   0  0  0  0  0  0  0  0  0  0  0  0
    3.8896   -0.8191    0.0000 H   0  0  0  0  0  0  0  0  0  0  0  0
    5.1886    1.4311    0.0000 C   0  0  0  0  0  0  0  0  0  0  0  0
    6.4878    0.6815    0.0000 H   0  0  0  0  0  0  0  0  0  0  0  0
    1.2911    0.6813    0.0000 C   0  0  0  0  0  0  0  0  0  0  0  0
    0.7778    2.0907    0.0000 H   0  0  0  0  0  0  0  0  0  0  0  0
   -0.6889    0.6810    0.0000 C   0  0  0  0  0  0  0  0  0  0  0  0
   -1.4327    1.9646    0.0000 C   0  0  0  0  0  0  0  0  0  0  0  0
   -0.6805    3.2624    0.0000 H   0  0  0  0  0  0  0  0  0  0  0  0
   -2.9327    1.9719    0.0000 C   0  0  0  0  0  0  0  0  0  0  0  0
   -3.6684    3.2791    0.0000 H   0  0  0  0  0  0  0  0  0  0  0  0
   -3.6989    0.6956    0.0000 C   0  0  0  0  0  0  0  0  0  0  0  0
   -2.9453   -0.6181    0.0000 C   0  0  0  0  0  0  0  0  0  0  0  0
   -3.7002   -1.9142    0.0000 H   0  0  0  0  0  0  0  0  0  0  0  0
   -1.4453   -0.6254    0.0000 C   0  0  0  0  0  0  0  0  0  0  0  0
   -0.6992   -1.9267    0.0000 H   0  0  0  0  0  0  0  0  0  0  0  0
   -5.1988    0.7105    0.0000 Cl  0  0  0  0  0  0  0  0  0  0  0  0
    1.2915   -1.7787    0.0000 N   0  0  0  0  0  0  0  0  0  0  0  0
   -0.0080   -2.5295    0.0000 C   0  0  0  0  0  0  0  0  0  0  0  0
   -0.0082   -1.0295    0.0000 H   0  0  0  0  0  0  0  0  0  0  0  0
   -2.4307   -2.9565    0.0000 H   0  0  0  0  0  0  0  0  0  0  0  0
   -0.0085   -4.0304    0.0000 C   0  0  0  0  0  0  0  0  0  0  0  0
   -1.4857   -3.7696    0.0000 H   0  0  0  0  0  0  0  0  0  0  0  0
   -0.5217   -5.4399    0.0000 H   0  0  0  0  0  0  0  0  0  0  0  0
    1.2905   -4.7804    0.0000 N   0  0  0  0  0  0  0  0  0  0  0  0
    2.5900   -4.0295    0.0000 C   0  0  0  0  0  0  0  0  0  0  0  0
    3.1032   -5.4390    0.0000 H   0  0  0  0  0  0  0  0  0  0  0  0
    4.0673   -3.7692    0.0000 H   0  0  0  0  0  0  0  0  0  0  0  0
    2.5905   -2.5287    0.0000 C   0  0  0  0  0  0  0  0  0  0  0  0
    4.0677   -2.7895    0.0000 H   0  0  0  0  0  0  0  0  0  0  0  0
    3.1037   -1.1192    0.0000 H   0  0  0  0  0  0  0  0  0  0  0  0
    1.2908   -6.7604    0.0000 C   0  0  0  0  0  0  0  0  0  0  0  0
   -0.1864   -6.5001    0.0000 H   0  0  0  0  0  0  0  0  0  0  0  0
    0.7780   -8.1700    0.0000 H   0  0  0  0  0  0  0  0  0  0  0  0
    2.5900   -7.5102    0.0000 C   0  0  0  0  0  0  0  0  0  0  0  0
    3.5544   -8.6591    0.0000 H   0  0  0  0  0  0  0  0  0  0  0  0
    1.6260   -8.6594    0.0000 H   0  0  0  0  0  0  0  0  0  0  0  0
    3.8889   -6.7600    0.0000 O   0  0  0  0  0  0  0  0  0  0  0  0
    5.6038   -7.7497    0.0000 C   0  0  0  0  0  0  0  0  0  0  0  0
    6.5682   -8.8986    0.0000 H   0  0  0  0  0  0  0  0  0  0  0  0
    4.6398   -8.8989    0.0000 H   0  0  0  0  0  0  0  0  0  0  0  0
    6.9027   -6.9995    0.0000 C   0  0  0  0  0  0  0  0  0  0  0  0
    5.9384   -5.8506    0.0000 H   0  0  0  0  0  0  0  0  0  0  0  0
    7.8667   -5.8503    0.0000 H   0  0  0  0  0  0  0  0  0  0  0  0
    8.2019   -7.7493    0.0000 O   0  0  0  0  0  0  0  0  0  0  0  0
    9.5008   -6.9991    0.0000 S   0  0  0  0  0  0  0  0  0  0  0  0
   10.0141   -8.4085    0.0000 O   0  0  0  0  0  0  0  0  0  0  0  0
   10.9780   -6.7384    0.0000 O   0  0  0  0  0  0  0  0  0  0  0  0
    9.5006   -5.4991    0.0000 O   0  0  0  0  0  0  0  0  0  0  0  0
   10.7995   -4.7489    0.0000 H   0  0  0  0  0  0  0  0  0  0  0  0
  1  2  1  0  0  0  0 
  1  3  2  0  0  0  0 
  3  4  1  0  0  0  0 
  3  5  1  0  0  0  0 
  5  6  1  0  0  0  0 
  5  7  2  0  0  0  0 
  7  8  1  0  0  0  0 
  8  9  1  0  0  0  0 
  8 10  2  0  0  0  0 
  1 10  1  0  0  0  0 
 10 11  1  0  0  0  0 
  7 12  1  0  0  0  0 
 12 13  1  0  0  0  0 
 12 14  1  0  0  0  0 
 14 15  2  0  0  0  0 
 15 16  1  0  0  0  0 
 15 17  1  0  0  0  0 
 17 18  1  0  0  0  0 
 17 19  2  0  0  0  0 
 19 20  1  0  0  0  0 
 20 21  1  0  0  0  0 
 20 22  2  0  0  0  0 
 14 22  1  0  0  0  0 
 22 23  1  0  0  0  0 
 19 24  1  0  0  0  0 
 12 25  1  0  0  0  0 
 25 26  1  0  0  0  0 
 26 27  1  0  0  0  0 
 26 28  1  0  0  0  0 
 26 29  1  0  0  0  0 
 29 30  1  0  0  0  0 
 29 31  1  0  0  0  0 
 29 32  1  0  0  0  0 
 32 33  1  0  0  0  0 
 33 34  1  0  0  0  0 
 33 35  1  0  0  0  0 
 33 36  1  0  0  0  0 
 25 36  1  0  0  0  0 
 36 37  1  0  0  0  0 
 36 38  1  0  0  0  0 
 32 39  1  0  0  0  0 
 39 40  1  0  0  0  0 
 39 41  1  0  0  0  0 
 39 42  1  0  0  0  0 
 42 43  1  0  0  0  0 
 42 44  1  0  0  0  0 
 42 45  1  0  0  0  0 
 45 46  1  0  0  0  0 
 46 47  1  0  0  0  0 
 46 48  1  0  0  0  0 
 46 49  1  0  0  0  0 
 49 50  1  0  0  0  0 
 49 51  1  0  0  0  0 
 49 52  1  0  0  0  0 
 52 53  1  0  0  0  0 
 53 54  2  0  0  0  0 
 53 55  2  0  0  0  0 
 53 56  1  0  0  0  0 
 56 57  1  0  0  0  0 
M  END
> <Rank>
1

> <Priority_score>
0.992

> <Reaction_type>
sulfation_(aliphatic_hydroxyl)

> <Parent_ID>
85

> <Parent_InChI>
InChI=1S/C21H27ClN2O2/c22-20-8-6-19(7-9-20)21(18-4-2-1-3-5-18)24-12-10-23(11-13-24)14-16-26-17-15-25/h1-9,21,25H,10-17H2

> <Parent_SMILES>
OCCOCCN1CCN(C(c2ccccc2)c2ccc(Cl)cc2)CC1

$$$$
Molecule 85_metabolite 2
  CDK     0516241031

 73 76  0  0  0  0  0  0  0  0999 V2000
    3.3384    3.1215    0.0000 C   0  0  0  0  0  0  0  0  0  0  0  0
    4.6373    3.8717    0.0000 H   0  0  0  0  0  0  0  0  0  0  0  0
    2.0388    3.8721    0.0000 C   0  0  0  0  0  0  0  0  0  0  0  0
    2.0388    5.3721    0.0000 H   0  0  0  0  0  0  0  0  0  0  0  0
    0.7399    3.1219    0.0000 C   0  0  0  0  0  0  0  0  0  0  0  0
   -0.5594    3.8715    0.0000 H   0  0  0  0  0  0  0  0  0  0  0  0
    0.7406    1.6211    0.0000 C   0  0  0  0  0  0  0  0  0  0  0  0
    2.0402    0.8704    0.0000 C   0  0  0  0  0  0  0  0  0  0  0  0
    2.0402   -0.6296    0.0000 H   0  0  0  0  0  0  0  0  0  0  0  0
    3.3391    1.6206    0.0000 C   0  0  0  0  0  0  0  0  0  0  0  0
    4.6384    0.8710    0.0000 H   0  0  0  0  0  0  0  0  0  0  0  0
   -0.5583    0.8708    0.0000 C   0  0  0  0  0  0  0  0  0  0  0  0
   -1.0716    2.2803    0.0000 H   0  0  0  0  0  0  0  0  0  0  0  0
   -3.4983    0.8704    0.0000 C   0  0  0  0  0  0  0  0  0  0  0  0
   -4.2421    2.1540    0.0000 C   0  0  0  0  0  0  0  0  0  0  0  0
   -3.4899    3.4518    0.0000 H   0  0  0  0  0  0  0  0  0  0  0  0
   -5.7421    2.1613    0.0000 C   0  0  0  0  0  0  0  0  0  0  0  0
   -6.4778    3.4685    0.0000 H   0  0  0  0  0  0  0  0  0  0  0  0
   -6.5083    0.8850    0.0000 C   0  0  0  0  0  0  0  0  0  0  0  0
   -5.7547   -0.4287    0.0000 C   0  0  0  0  0  0  0  0  0  0  0  0
   -6.5096   -1.7248    0.0000 H   0  0  0  0  0  0  0  0  0  0  0  0
   -4.2547   -0.4360    0.0000 C   0  0  0  0  0  0  0  0  0  0  0  0
   -3.5087   -1.7373    0.0000 H   0  0  0  0  0  0  0  0  0  0  0  0
   -8.0082    0.8999    0.0000 Cl  0  0  0  0  0  0  0  0  0  0  0  0
   -0.5579   -2.0692    0.0000 N   0  0  0  0  0  0  0  0  0  0  0  0
   -1.8574   -2.8200    0.0000 C   0  0  0  0  0  0  0  0  0  0  0  0
   -2.3706   -1.4105    0.0000 H   0  0  0  0  0  0  0  0  0  0  0  0
   -3.3346   -3.0803    0.0000 H   0  0  0  0  0  0  0  0  0  0  0  0
   -1.8579   -4.3208    0.0000 C   0  0  0  0  0  0  0  0  0  0  0  0
   -3.3350   -4.0600    0.0000 H   0  0  0  0  0  0  0  0  0  0  0  0
   -2.3710   -5.7303    0.0000 H   0  0  0  0  0  0  0  0  0  0  0  0
   -0.5588   -5.0708    0.0000 N   0  0  0  0  0  0  0  0  0  0  0  0
    0.7407   -4.3200    0.0000 C   0  0  0  0  0  0  0  0  0  0  0  0
    1.2539   -5.7295    0.0000 H   0  0  0  0  0  0  0  0  0  0  0  0
    2.2179   -4.0597    0.0000 H   0  0  0  0  0  0  0  0  0  0  0  0
    0.7412   -2.8192    0.0000 C   0  0  0  0  0  0  0  0  0  0  0  0
    2.2183   -3.0799    0.0000 H   0  0  0  0  0  0  0  0  0  0  0  0
    1.2544   -1.4097    0.0000 H   0  0  0  0  0  0  0  0  0  0  0  0
   -0.5585   -7.0508    0.0000 C   0  0  0  0  0  0  0  0  0  0  0  0
   -2.0358   -6.7906    0.0000 H   0  0  0  0  0  0  0  0  0  0  0  0
   -1.0713   -8.4604    0.0000 H   0  0  0  0  0  0  0  0  0  0  0  0
    0.7407   -7.8006    0.0000 C   0  0  0  0  0  0  0  0  0  0  0  0
    1.7050   -8.9495    0.0000 H   0  0  0  0  0  0  0  0  0  0  0  0
   -0.2233   -8.9498    0.0000 H   0  0  0  0  0  0  0  0  0  0  0  0
    2.0396   -7.0504    0.0000 O   0  0  0  0  0  0  0  0  0  0  0  0
    3.7545   -8.0401    0.0000 C   0  0  0  0  0  0  0  0  0  0  0  0
    4.7188   -9.1890    0.0000 H   0  0  0  0  0  0  0  0  0  0  0  0
    2.7905   -9.1894    0.0000 H   0  0  0  0  0  0  0  0  0  0  0  0
    5.0534   -7.2899    0.0000 C   0  0  0  0  0  0  0  0  0  0  0  0
    4.0890   -6.1410    0.0000 H   0  0  0  0  0  0  0  0  0  0  0  0
    6.0174   -6.1407    0.0000 H   0  0  0  0  0  0  0  0  0  0  0  0
    6.7683   -8.2796    0.0000 O   0  0  0  0  0  0  0  0  0  0  0  0
    8.0672   -7.5294    0.0000 C   0  0  0  0  0  0  0  0  0  0  0  0
    7.1055   -6.3783    0.0000 H   0  0  0  0  0  0  0  0  0  0  0  0
    8.5802   -8.9283    0.0000 C   0  0  0  0  0  0  0  0  0  0  0  0
    8.5851  -10.4283    0.0000 H   0  0  0  0  0  0  0  0  0  0  0  0
   10.0812   -9.1873    0.0000 C   0  0  0  0  0  0  0  0  0  0  0  0
   11.3851   -9.9289    0.0000 H   0  0  0  0  0  0  0  0  0  0  0  0
   11.0400   -8.0262    0.0000 C   0  0  0  0  0  0  0  0  0  0  0  0
   12.3358   -7.2706    0.0000 H   0  0  0  0  0  0  0  0  0  0  0  0
   10.5270   -6.6273    0.0000 C   0  0  0  0  0  0  0  0  0  0  0  0
   10.5230   -5.1273    0.0000 H   0  0  0  0  0  0  0  0  0  0  0  0
   12.4760   -6.2785    0.0000 C   0  0  0  0  0  0  0  0  0  0  0  0
   13.4431   -7.4250    0.0000 O   0  0  0  0  0  0  0  0  0  0  0  0
   12.9854   -4.8676    0.0000 O   0  0  0  0  0  0  0  0  0  0  0  0
   14.4619   -4.6033    0.0000 H   0  0  0  0  0  0  0  0  0  0  0  0
    9.0482   -6.3708    0.0000 O   0  0  0  0  0  0  0  0  0  0  0  0
   12.0112   -9.1694    0.0000 O   0  0  0  0  0  0  0  0  0  0  0  0
   13.4868   -8.8999    0.0000 H   0  0  0  0  0  0  0  0  0  0  0  0
    9.5753  -10.5995    0.0000 O   0  0  0  0  0  0  0  0  0  0  0  0
   10.5453  -11.7436    0.0000 H   0  0  0  0  0  0  0  0  0  0  0  0
    7.1038   -9.1930    0.0000 O   0  0  0  0  0  0  0  0  0  0  0  0
    6.5948  -10.6040    0.0000 H   0  0  0  0  0  0  0  0  0  0  0  0
  1  2  1  0  0  0  0 
  1  3  2  0  0  0  0 
  3  4  1  0  0  0  0 
  3  5  1  0  0  0  0 
  5  6  1  0  0  0  0 
  5  7  2  0  0  0  0 
  7  8  1  0  0  0  0 
  8  9  1  0  0  0  0 
  8 10  2  0  0  0  0 
  1 10  1  0  0  0  0 
 10 11  1  0  0  0  0 
  7 12  1  0  0  0  0 
 12 13  1  0  0  0  0 
 12 14  1  0  0  0  0 
 14 15  2  0  0  0  0 
 15 16  1  0  0  0  0 
 15 17  1  0  0  0  0 
 17 18  1  0  0  0  0 
 17 19  2  0  0  0  0 
 19 20  1  0  0  0  0 
 20 21  1  0  0  0  0 
 20 22  2  0  0  0  0 
 14 22  1  0  0  0  0 
 22 23  1  0  0  0  0 
 19 24  1  0  0  0  0 
 12 25  1  0  0  0  0 
 25 26  1  0  0  0  0 
 26 27  1  0  0  0  0 
 26 28  1  0  0  0  0 
 26 29  1  0  0  0  0 
 29 30  1  0  0  0  0 
 29 31  1  0  0  0  0 
 29 32  1  0  0  0  0 
 32 33  1  0  0  0  0 
 33 34  1  0  0  0  0 
 33 35  1  0  0  0  0 
 33 36  1  0  0  0  0 
 25 36  1  0  0  0  0 
 36 37  1  0  0  0  0 
 36 38  1  0  0  0  0 
 32 39  1  0  0  0  0 
 39 40  1  0  0  0  0 
 39 41  1  0  0  0  0 
 39 42  1  0  0  0  0 
 42 43  1  0  0  0  0 
 42 44  1  0  0  0  0 
 42 45  1  0  0  0  0 
 45 46  1  0  0  0  0 
 46 47  1  0  0  0  0 
 46 48  1  0  0  0  0 
 46 49  1  0  0  0  0 
 49 50  1  0  0  0  0 
 49 51  1  0  0  0  0 
 49 52  1  0  0  0  0 
 52 53  1  0  0  0  0 
 53 54  1  0  0  0  0 
 53 55  1  0  0  0  0 
 55 56  1  0  0  0  0 
 55 57  1  0  0  0  0 
 57 58  1  0  0  0  0 
 57 59  1  0  0  0  0 
 59 60  1  0  0  0  0 
 59 61  1  0  0  0  0 
 61 62  1  0  0  0  0 
 61 63  1  0  0  0  0 
 63 64  2  0  0  0  0 
 63 65  1  0  0  0  0 
 65 66  1  0  0  0  0 
 61 67  1  0  0  0  0 
 53 67  1  0  0  0  0 
 59 68  1  0  0  0  0 
 68 69  1  0  0  0  0 
 57 70  1  0  0  0  0 
 70 71  1  0  0  0  0 
 55 72  1  0  0  0  0 
 72 73  1  0  0  0  0 
M  END
> <Rank>
2

> <Priority_score>
0.808

> <Reaction_type>
O-glucuronidation_(aliphatic_hydroxyl)

> <Parent_ID>
85

> <Parent_InChI>
InChI=1S/C21H27ClN2O2/c22-20-8-6-19(7-9-20)21(18-4-2-1-3-5-18)24-12-10-23(11-13-24)14-16-26-17-15-25/h1-9,21,25H,10-17H2

> <Parent_SMILES>
OCCOCCN1CCN(C(c2ccccc2)c2ccc(Cl)cc2)CC1

$$$$
Molecule 85_metabolite 3
  CDK     0516241031

 10  9  0  0  0  0  0  0  0  0999 V2000
    2.5981   -0.0000    0.0000 C   0  0  0  0  0  0  0  0  0  0  0  0
    3.5623    1.1491    0.0000 H   0  0  0  0  0  0  0  0  0  0  0  0
    1.6339    1.1491    0.0000 H   0  0  0  0  0  0  0  0  0  0  0  0
    3.8971   -0.7500    0.0000 C   0  0  0  0  0  0  0  0  0  0  0  0
    2.9329   -1.8991    0.0000 H   0  0  0  0  0  0  0  0  0  0  0  0
    4.8613   -1.8991    0.0000 H   0  0  0  0  0  0  0  0  0  0  0  0
    5.1962   -0.0000    0.0000 O   0  0  0  0  0  0  0  0  0  0  0  0
    6.4952   -0.7500    0.0000 H   0  0  0  0  0  0  0  0  0  0  0  0
    1.2990   -0.7500    0.0000 O   0  0  0  0  0  0  0  0  0  0  0  0
   -0.0000    0.0000    0.0000 H   0  0  0  0  0  0  0  0  0  0  0  0
  1  2  1  0  0  0  0 
  1  3  1  0  0  0  0 
  1  4  1  0  0  0  0 
  4  5  1  0  0  0  0 
  4  6  1  0  0  0  0 
  4  7  1  0  0  0  0 
  7  8  1  0  0  0  0 
  1  9  1  0  0  0  0 
  9 10  1  0  0  0  0 
M  END
> <Rank>
3

> <Priority_score>
0.604

> <Reaction_type>
O-dealkylation_(aliphatic)

> <Parent_ID>
85

> <Parent_InChI>
InChI=1S/C21H27ClN2O2/c22-20-8-6-19(7-9-20)21(18-4-2-1-3-5-18)24-12-10-23(11-13-24)14-16-26-17-15-25/h1-9,21,25H,10-17H2

> <Parent_SMILES>
OCCOCCN1CCN(C(c2ccccc2)c2ccc(Cl)cc2)CC1

$$$$
Molecule 85_metabolite 4
  CDK     0516241031

 46 48  0  0  0  0  0  0  0  0999 V2000
    1.9321    5.4208    0.0000 C   0  0  0  0  0  0  0  0  0  0  0  0
    1.9319    6.9208    0.0000 H   0  0  0  0  0  0  0  0  0  0  0  0
    0.6322    4.6706    0.0000 C   0  0  0  0  0  0  0  0  0  0  0  0
   -0.6668    5.4206    0.0000 H   0  0  0  0  0  0  0  0  0  0  0  0
    0.6325    3.1706    0.0000 C   0  0  0  0  0  0  0  0  0  0  0  0
   -0.6663    2.4202    0.0000 H   0  0  0  0  0  0  0  0  0  0  0  0
    1.9326    2.4208    0.0000 C   0  0  0  0  0  0  0  0  0  0  0  0
    3.2325    3.1710    0.0000 C   0  0  0  0  0  0  0  0  0  0  0  0
    4.5315    2.4210    0.0000 H   0  0  0  0  0  0  0  0  0  0  0  0
    3.2322    4.6710    0.0000 C   0  0  0  0  0  0  0  0  0  0  0  0
    4.5310    5.4214    0.0000 H   0  0  0  0  0  0  0  0  0  0  0  0
    1.9328    0.9208    0.0000 C   0  0  0  0  0  0  0  0  0  0  0  0
    0.4556    1.1810    0.0000 H   0  0  0  0  0  0  0  0  0  0  0  0
    0.9431   -0.7941    0.0000 C   0  0  0  0  0  0  0  0  0  0  0  0
   -0.5405   -0.7964    0.0000 C   0  0  0  0  0  0  0  0  0  0  0  0
   -1.2883    0.5039    0.0000 H   0  0  0  0  0  0  0  0  0  0  0  0
   -1.2968   -2.0918    0.0000 C   0  0  0  0  0  0  0  0  0  0  0  0
   -2.7967   -2.0753    0.0000 H   0  0  0  0  0  0  0  0  0  0  0  0
   -0.5746   -3.3935    0.0000 C   0  0  0  0  0  0  0  0  0  0  0  0
    0.9399   -3.3977    0.0000 C   0  0  0  0  0  0  0  0  0  0  0  0
    1.6850   -4.6996    0.0000 H   0  0  0  0  0  0  0  0  0  0  0  0
    1.6962   -2.1023    0.0000 C   0  0  0  0  0  0  0  0  0  0  0  0
    3.1962   -2.1069    0.0000 H   0  0  0  0  0  0  0  0  0  0  0  0
   -1.3374   -4.6850    0.0000 Cl  0  0  0  0  0  0  0  0  0  0  0  0
    4.0634   -0.3089    0.0000 N   0  0  0  0  0  0  0  0  0  0  0  0
    4.0639   -1.8097    0.0000 C   0  0  0  0  0  0  0  0  0  0  0  0
    2.7648   -1.0598    0.0000 H   0  0  0  0  0  0  0  0  0  0  0  0
    3.2223   -4.1213    0.0000 H   0  0  0  0  0  0  0  0  0  0  0  0
    5.3634   -2.5605    0.0000 C   0  0  0  0  0  0  0  0  0  0  0  0
    4.3990   -3.7094    0.0000 H   0  0  0  0  0  0  0  0  0  0  0  0
    6.3275   -3.7097    0.0000 H   0  0  0  0  0  0  0  0  0  0  0  0
    6.6625   -1.8105    0.0000 N   0  0  0  0  0  0  0  0  0  0  0  0
    6.6620   -0.3097    0.0000 C   0  0  0  0  0  0  0  0  0  0  0  0
    8.1392   -0.5700    0.0000 H   0  0  0  0  0  0  0  0  0  0  0  0
    7.1752    1.0998    0.0000 H   0  0  0  0  0  0  0  0  0  0  0  0
    5.3625    0.4411    0.0000 C   0  0  0  0  0  0  0  0  0  0  0  0
    6.3269    1.5900    0.0000 H   0  0  0  0  0  0  0  0  0  0  0  0
    4.3984    1.5903    0.0000 H   0  0  0  0  0  0  0  0  0  0  0  0
    8.3774   -2.8003    0.0000 C   0  0  0  0  0  0  0  0  0  0  0  0
    7.4134   -3.9495    0.0000 H   0  0  0  0  0  0  0  0  0  0  0  0
    9.3417   -3.9492    0.0000 H   0  0  0  0  0  0  0  0  0  0  0  0
    9.6763   -2.0501    0.0000 C   0  0  0  0  0  0  0  0  0  0  0  0
   11.1534   -1.7893    0.0000 H   0  0  0  0  0  0  0  0  0  0  0  0
   10.1895   -3.4595    0.0000 H   0  0  0  0  0  0  0  0  0  0  0  0
    9.6760   -0.5500    0.0000 O   0  0  0  0  0  0  0  0  0  0  0  0
   10.9750    0.2002    0.0000 H   0  0  0  0  0  0  0  0  0  0  0  0
  1  2  1  0  0  0  0 
  1  3  2  0  0  0  0 
  3  4  1  0  0  0  0 
  3  5  1  0  0  0  0 
  5  6  1  0  0  0  0 
  5  7  2  0  0  0  0 
  7  8  1  0  0  0  0 
  8  9  1  0  0  0  0 
  8 10  2  0  0  0  0 
  1 10  1  0  0  0  0 
 10 11  1  0  0  0  0 
  7 12  1  0  0  0  0 
 12 13  1  0  0  0  0 
 12 14  1  0  0  0  0 
 14 15  2  0  0  0  0 
 15 16  1  0  0  0  0 
 15 17  1  0  0  0  0 
 17 18  1  0  0  0  0 
 17 19  2  0  0  0  0 
 19 20  1  0  0  0  0 
 20 21  1  0  0  0  0 
 20 22  2  0  0  0  0 
 14 22  1  0  0  0  0 
 22 23  1  0  0  0  0 
 19 24  1  0  0  0  0 
 12 25  1  0  0  0  0 
 25 26  1  0  0  0  0 
 26 27  1  0  0  0  0 
 26 28  1  0  0  0  0 
 26 29  1  0  0  0  0 
 29 30  1  0  0  0  0 
 29 31  1  0  0  0  0 
 29 32  1  0  0  0  0 
 32 33  1  0  0  0  0 
 33 34  1  0  0  0  0 
 33 35  1  0  0  0  0 
 33 36  1  0  0  0  0 
 25 36  1  0  0  0  0 
 36 37  1  0  0  0  0 
 36 38  1  0  0  0  0 
 32 39  1  0  0  0  0 
 39 40  1  0  0  0  0 
 39 41  1  0  0  0  0 
 39 42  1  0  0  0  0 
 42 43  1  0  0  0  0 
 42 44  1  0  0  0  0 
 42 45  1  0  0  0  0 
 45 46  1  0  0  0  0 
M  END
> <Rank>
3

> <Priority_score>
0.604

> <Reaction_type>
O-dealkylation_(aliphatic)

> <Parent_ID>
85

> <Parent_InChI>
InChI=1S/C21H27ClN2O2/c22-20-8-6-19(7-9-20)21(18-4-2-1-3-5-18)24-12-10-23(11-13-24)14-16-26-17-15-25/h1-9,21,25H,10-17H2

> <Parent_SMILES>
OCCOCCN1CCN(C(c2ccccc2)c2ccc(Cl)cc2)CC1

$$$$
Molecule 85_metabolite 5
  CDK     0516241031

 54 56  0  0  0  0  0  0  0  0999 V2000
    3.0008    3.7199    0.0000 C   0  0  0  0  0  0  0  0  0  0  0  0
    3.7505    5.0190    0.0000 H   0  0  0  0  0  0  0  0  0  0  0  0
    1.4999    3.7201    0.0000 C   0  0  0  0  0  0  0  0  0  0  0  0
    0.7499    5.0192    0.0000 H   0  0  0  0  0  0  0  0  0  0  0  0
    0.7501    2.4210    0.0000 C   0  0  0  0  0  0  0  0  0  0  0  0
   -0.7499    2.4205    0.0000 H   0  0  0  0  0  0  0  0  0  0  0  0
    1.5012    1.1216    0.0000 C   0  0  0  0  0  0  0  0  0  0  0  0
    3.0020    1.1213    0.0000 C   0  0  0  0  0  0  0  0  0  0  0  0
    3.7520   -0.1777    0.0000 H   0  0  0  0  0  0  0  0  0  0  0  0
    3.7518    2.4205    0.0000 C   0  0  0  0  0  0  0  0  0  0  0  0
    5.2518    2.4210    0.0000 H   0  0  0  0  0  0  0  0  0  0  0  0
    0.7514   -0.1776    0.0000 C   0  0  0  0  0  0  0  0  0  0  0  0
   -0.3978    0.7864    0.0000 H   0  0  0  0  0  0  0  0  0  0  0  0
   -0.9632   -1.1679    0.0000 C   0  0  0  0  0  0  0  0  0  0  0  0
   -2.2491   -0.4281    0.0000 C   0  0  0  0  0  0  0  0  0  0  0  0
   -2.2466    1.0719    0.0000 H   0  0  0  0  0  0  0  0  0  0  0  0
   -3.5518   -1.1718    0.0000 C   0  0  0  0  0  0  0  0  0  0  0  0
   -4.8425   -0.4076    0.0000 H   0  0  0  0  0  0  0  0  0  0  0  0
   -3.5772   -2.6602    0.0000 C   0  0  0  0  0  0  0  0  0  0  0  0
   -2.2677   -3.4210    0.0000 C   0  0  0  0  0  0  0  0  0  0  0  0
   -2.2734   -4.9210    0.0000 H   0  0  0  0  0  0  0  0  0  0  0  0
   -0.9651   -2.6774    0.0000 C   0  0  0  0  0  0  0  0  0  0  0  0
    0.3317   -3.4313    0.0000 H   0  0  0  0  0  0  0  0  0  0  0  0
   -4.8836   -3.3973    0.0000 Cl  0  0  0  0  0  0  0  0  0  0  0  0
    1.9817   -2.3078    0.0000 N   0  0  0  0  0  0  0  0  0  0  0  0
    1.2317   -3.6078    0.0000 C   0  0  0  0  0  0  0  0  0  0  0  0
    0.4816   -2.3089    0.0000 H   0  0  0  0  0  0  0  0  0  0  0  0
   -0.6529   -5.1889    0.0000 H   0  0  0  0  0  0  0  0  0  0  0  0
    1.9817   -4.9078    0.0000 C   0  0  0  0  0  0  0  0  0  0  0  0
    0.5721   -5.4206    0.0000 H   0  0  0  0  0  0  0  0  0  0  0  0
    2.2420   -6.3851    0.0000 H   0  0  0  0  0  0  0  0  0  0  0  0
    3.4817   -4.9078    0.0000 N   0  0  0  0  0  0  0  0  0  0  0  0
    4.2317   -3.6078    0.0000 C   0  0  0  0  0  0  0  0  0  0  0  0
    5.3809   -4.5719    0.0000 H   0  0  0  0  0  0  0  0  0  0  0  0
    5.3809   -2.6438    0.0000 H   0  0  0  0  0  0  0  0  0  0  0  0
    3.4817   -2.3078    0.0000 C   0  0  0  0  0  0  0  0  0  0  0  0
    4.8914   -1.7951    0.0000 H   0  0  0  0  0  0  0  0  0  0  0  0
    3.2214   -0.8306    0.0000 H   0  0  0  0  0  0  0  0  0  0  0  0
    4.4720   -6.6224    0.0000 C   0  0  0  0  0  0  0  0  0  0  0  0
    3.0625   -7.1356    0.0000 H   0  0  0  0  0  0  0  0  0  0  0  0
    4.7327   -8.0996    0.0000 H   0  0  0  0  0  0  0  0  0  0  0  0
    5.9720   -6.6222    0.0000 C   0  0  0  0  0  0  0  0  0  0  0  0
    7.3816   -7.1350    0.0000 H   0  0  0  0  0  0  0  0  0  0  0  0
    5.7118   -8.0994    0.0000 H   0  0  0  0  0  0  0  0  0  0  0  0
    6.7218   -5.3230    0.0000 O   0  0  0  0  0  0  0  0  0  0  0  0
    8.7018   -5.3227    0.0000 C   0  0  0  0  0  0  0  0  0  0  0  0
   10.1114   -5.8355    0.0000 H   0  0  0  0  0  0  0  0  0  0  0  0
    9.4516   -4.0235    0.0000 C   0  0  0  0  0  0  0  0  0  0  0  0
    8.0420   -3.5107    0.0000 H   0  0  0  0  0  0  0  0  0  0  0  0
    9.7118   -2.5463    0.0000 H   0  0  0  0  0  0  0  0  0  0  0  0
   10.9516   -4.0233    0.0000 O   0  0  0  0  0  0  0  0  0  0  0  0
   11.7014   -2.7241    0.0000 H   0  0  0  0  0  0  0  0  0  0  0  0
    8.4415   -6.7999    0.0000 O   0  0  0  0  0  0  0  0  0  0  0  0
    9.5908   -7.7639    0.0000 H   0  0  0  0  0  0  0  0  0  0  0  0
  1  2  1  0  0  0  0 
  1  3  2  0  0  0  0 
  3  4  1  0  0  0  0 
  3  5  1  0  0  0  0 
  5  6  1  0  0  0  0 
  5  7  2  0  0  0  0 
  7  8  1  0  0  0  0 
  8  9  1  0  0  0  0 
  8 10  2  0  0  0  0 
  1 10  1  0  0  0  0 
 10 11  1  0  0  0  0 
  7 12  1  0  0  0  0 
 12 13  1  0  0  0  0 
 12 14  1  0  0  0  0 
 14 15  2  0  0  0  0 
 15 16  1  0  0  0  0 
 15 17  1  0  0  0  0 
 17 18  1  0  0  0  0 
 17 19  2  0  0  0  0 
 19 20  1  0  0  0  0 
 20 21  1  0  0  0  0 
 20 22  2  0  0  0  0 
 14 22  1  0  0  0  0 
 22 23  1  0  0  0  0 
 19 24  1  0  0  0  0 
 12 25  1  0  0  0  0 
 25 26  1  0  0  0  0 
 26 27  1  0  0  0  0 
 26 28  1  0  0  0  0 
 26 29  1  0  0  0  0 
 29 30  1  0  0  0  0 
 29 31  1  0  0  0  0 
 29 32  1  0  0  0  0 
 32 33  1  0  0  0  0 
 33 34  1  0  0  0  0 
 33 35  1  0  0  0  0 
 33 36  1  0  0  0  0 
 25 36  1  0  0  0  0 
 36 37  1  0  0  0  0 
 36 38  1  0  0  0  0 
 32 39  1  0  0  0  0 
 39 40  1  0  0  0  0 
 39 41  1  0  0  0  0 
 39 42  1  0  0  0  0 
 42 43  1  0  0  0  0 
 42 44  1  0  0  0  0 
 42 45  1  0  0  0  0 
 45 46  1  0  0  0  0 
 46 47  1  0  0  0  0 
 46 48  1  0  0  0  0 
 48 49  1  0  0  0  0 
 48 50  1  0  0  0  0 
 48 51  1  0  0  0  0 
 51 52  1  0  0  0  0 
 46 53  1  0  0  0  0 
 53 54  1  0  0  0  0 
M  END
> <Rank>
3

> <Priority_score>
0.604

> <Reaction_type>
aliphatic hydroxylation

> <Parent_ID>
85

> <Parent_InChI>
InChI=1S/C21H27ClN2O2/c22-20-8-6-19(7-9-20)21(18-4-2-1-3-5-18)24-12-10-23(11-13-24)14-16-26-17-15-25/h1-9,21,25H,10-17H2

> <Parent_SMILES>
OCCOCCN1CCN(C(c2ccccc2)c2ccc(Cl)cc2)CC1

$$$$
Molecule 85_metabolite 6
  CDK     0516241031

 44 46  0  0  0  0  0  0  0  0999 V2000
   -2.9910    2.9185    0.0000 C   0  0  0  0  0  0  0  0  0  0  0  0
   -4.2902    3.6682    0.0000 H   0  0  0  0  0  0  0  0  0  0  0  0
   -2.9913    1.4176    0.0000 C   0  0  0  0  0  0  0  0  0  0  0  0
   -4.2903    0.6676    0.0000 H   0  0  0  0  0  0  0  0  0  0  0  0
   -1.6921    0.6678    0.0000 C   0  0  0  0  0  0  0  0  0  0  0  0
   -1.6916   -0.8322    0.0000 H   0  0  0  0  0  0  0  0  0  0  0  0
   -0.3927    1.4189    0.0000 C   0  0  0  0  0  0  0  0  0  0  0  0
   -0.3925    2.9197    0.0000 C   0  0  0  0  0  0  0  0  0  0  0  0
    0.9066    3.6697    0.0000 H   0  0  0  0  0  0  0  0  0  0  0  0
   -1.6916    3.6695    0.0000 C   0  0  0  0  0  0  0  0  0  0  0  0
   -1.6921    5.1695    0.0000 H   0  0  0  0  0  0  0  0  0  0  0  0
    0.9065    0.6691    0.0000 C   0  0  0  0  0  0  0  0  0  0  0  0
   -0.0575   -0.4801    0.0000 H   0  0  0  0  0  0  0  0  0  0  0  0
    1.8967   -1.0455    0.0000 C   0  0  0  0  0  0  0  0  0  0  0  0
    1.1570   -2.3314    0.0000 C   0  0  0  0  0  0  0  0  0  0  0  0
   -0.3430   -2.3289    0.0000 H   0  0  0  0  0  0  0  0  0  0  0  0
    1.9006   -3.6341    0.0000 C   0  0  0  0  0  0  0  0  0  0  0  0
    1.1364   -4.9248    0.0000 H   0  0  0  0  0  0  0  0  0  0  0  0
    3.3890   -3.6595    0.0000 C   0  0  0  0  0  0  0  0  0  0  0  0
    4.1499   -2.3500    0.0000 C   0  0  0  0  0  0  0  0  0  0  0  0
    5.6499   -2.3557    0.0000 H   0  0  0  0  0  0  0  0  0  0  0  0
    3.4062   -1.0474    0.0000 C   0  0  0  0  0  0  0  0  0  0  0  0
    4.1602    0.2494    0.0000 H   0  0  0  0  0  0  0  0  0  0  0  0
    4.1261   -4.9659    0.0000 Cl  0  0  0  0  0  0  0  0  0  0  0  0
    3.0367    1.8994    0.0000 N   0  0  0  0  0  0  0  0  0  0  0  0
    4.3367    1.1494    0.0000 C   0  0  0  0  0  0  0  0  0  0  0  0
    3.0377    0.3993    0.0000 H   0  0  0  0  0  0  0  0  0  0  0  0
    5.6092   -0.3675    0.0000 H   0  0  0  0  0  0  0  0  0  0  0  0
    5.6367    1.8994    0.0000 C   0  0  0  0  0  0  0  0  0  0  0  0
    6.1494    0.4898    0.0000 H   0  0  0  0  0  0  0  0  0  0  0  0
    7.1139    2.1597    0.0000 H   0  0  0  0  0  0  0  0  0  0  0  0
    5.6367    3.3994    0.0000 N   0  0  0  0  0  0  0  0  0  0  0  0
    4.3367    4.1494    0.0000 C   0  0  0  0  0  0  0  0  0  0  0  0
    5.3007    5.2986    0.0000 H   0  0  0  0  0  0  0  0  0  0  0  0
    3.3726    5.2986    0.0000 H   0  0  0  0  0  0  0  0  0  0  0  0
    3.0367    3.3994    0.0000 C   0  0  0  0  0  0  0  0  0  0  0  0
    2.5240    4.8091    0.0000 H   0  0  0  0  0  0  0  0  0  0  0  0
    1.5594    3.1391    0.0000 H   0  0  0  0  0  0  0  0  0  0  0  0
    7.3513    4.3897    0.0000 C   0  0  0  0  0  0  0  0  0  0  0  0
    7.8645    2.9802    0.0000 H   0  0  0  0  0  0  0  0  0  0  0  0
    8.8284    4.6504    0.0000 H   0  0  0  0  0  0  0  0  0  0  0  0
    7.3510    5.8897    0.0000 C   0  0  0  0  0  0  0  0  0  0  0  0
    8.6499    6.6399    0.0000 H   0  0  0  0  0  0  0  0  0  0  0  0
    6.0519    6.6395    0.0000 O   0  0  0  0  0  0  0  0  0  0  0  0
  1  2  1  0  0  0  0 
  1  3  2  0  0  0  0 
  3  4  1  0  0  0  0 
  3  5  1  0  0  0  0 
  5  6  1  0  0  0  0 
  5  7  2  0  0  0  0 
  7  8  1  0  0  0  0 
  8  9  1  0  0  0  0 
  8 10  2  0  0  0  0 
  1 10  1  0  0  0  0 
 10 11  1  0  0  0  0 
  7 12  1  0  0  0  0 
 12 13  1  0  0  0  0 
 12 14  1  0  0  0  0 
 14 15  2  0  0  0  0 
 15 16  1  0  0  0  0 
 15 17  1  0  0  0  0 
 17 18  1  0  0  0  0 
 17 19  2  0  0  0  0 
 19 20  1  0  0  0  0 
 20 21  1  0  0  0  0 
 20 22  2  0  0  0  0 
 14 22  1  0  0  0  0 
 22 23  1  0  0  0  0 
 19 24  1  0  0  0  0 
 12 25  1  0  0  0  0 
 25 26  1  0  0  0  0 
 26 27  1  0  0  0  0 
 26 28  1  0  0  0  0 
 26 29  1  0  0  0  0 
 29 30  1  0  0  0  0 
 29 31  1  0  0  0  0 
 29 32  1  0  0  0  0 
 32 33  1  0  0  0  0 
 33 34  1  0  0  0  0 
 33 35  1  0  0  0  0 
 33 36  1  0  0  0  0 
 25 36  1  0  0  0  0 
 36 37  1  0  0  0  0 
 36 38  1  0  0  0  0 
 32 39  1  0  0  0  0 
 39 40  1  0  0  0  0 
 39 41  1  0  0  0  0 
 39 42  1  0  0  0  0 
 42 43  1  0  0  0  0 
 42 44  2  0  0  0  0 
M  END
> <Rank>
3

> <Priority_score>
0.604

> <Reaction_type>
oxidative ether cleavage to one alcohol and one aldehyde/ketone

> <Parent_ID>
85

> <Parent_InChI>
InChI=1S/C21H27ClN2O2/c22-20-8-6-19(7-9-20)21(18-4-2-1-3-5-18)24-12-10-23(11-13-24)14-16-26-17-15-25/h1-9,21,25H,10-17H2

> <Parent_SMILES>
OCCOCCN1CCN(C(c2ccccc2)c2ccc(Cl)cc2)CC1

$$$$
Molecule 85_metabolite 7
  CDK     0516241031

  8  7  0  0  0  0  0  0  0  0999 V2000
    1.2990   -0.7500    0.0000 C   0  0  0  0  0  0  0  0  0  0  0  0
    0.0000    0.0000    0.0000 H   0  0  0  0  0  0  0  0  0  0  0  0
    1.2990   -2.2500    0.0000 O   0  0  0  0  0  0  0  0  0  0  0  0
    2.5981   -0.0000    0.0000 C   0  0  0  0  0  0  0  0  0  0  0  0
    3.5623    1.1491    0.0000 H   0  0  0  0  0  0  0  0  0  0  0  0
    1.6339    1.1491    0.0000 H   0  0  0  0  0  0  0  0  0  0  0  0
    3.8971   -0.7500    0.0000 O   0  0  0  0  0  0  0  0  0  0  0  0
    5.1962   -0.0000    0.0000 H   0  0  0  0  0  0  0  0  0  0  0  0
  1  2  1  0  0  0  0 
  1  3  2  0  0  0  0 
  1  4  1  0  0  0  0 
  4  5  1  0  0  0  0 
  4  6  1  0  0  0  0 
  4  7  1  0  0  0  0 
  7  8  1  0  0  0  0 
M  END
> <Rank>
3

> <Priority_score>
0.604

> <Reaction_type>
oxidative ether cleavage to one alcohol and one aldehyde/ketone

> <Parent_ID>
85

> <Parent_InChI>
InChI=1S/C21H27ClN2O2/c22-20-8-6-19(7-9-20)21(18-4-2-1-3-5-18)24-12-10-23(11-13-24)14-16-26-17-15-25/h1-9,21,25H,10-17H2

> <Parent_SMILES>
OCCOCCN1CCN(C(c2ccccc2)c2ccc(Cl)cc2)CC1

$$$$
Molecule 85_metabolite 8
  CDK     0516241031

 52 54  0  0  0  0  0  0  0  0999 V2000
   -9.5685   -6.3668    0.0000 C   0  0  0  0  0  0  0  0  0  0  0  0
   -9.5682   -7.8668    0.0000 H   0  0  0  0  0  0  0  0  0  0  0  0
  -10.8686   -5.6170    0.0000 C   0  0  0  0  0  0  0  0  0  0  0  0
  -12.1674   -6.3674    0.0000 H   0  0  0  0  0  0  0  0  0  0  0  0
  -10.8688   -4.1170    0.0000 C   0  0  0  0  0  0  0  0  0  0  0  0
  -12.1679   -3.3670    0.0000 H   0  0  0  0  0  0  0  0  0  0  0  0
   -9.5690   -3.3668    0.0000 C   0  0  0  0  0  0  0  0  0  0  0  0
   -8.2688   -4.1166    0.0000 C   0  0  0  0  0  0  0  0  0  0  0  0
   -6.9700   -3.3661    0.0000 H   0  0  0  0  0  0  0  0  0  0  0  0
   -8.2686   -5.6166    0.0000 C   0  0  0  0  0  0  0  0  0  0  0  0
   -6.9696   -6.3666    0.0000 H   0  0  0  0  0  0  0  0  0  0  0  0
   -9.5692   -1.8668    0.0000 C   0  0  0  0  0  0  0  0  0  0  0  0
  -11.0464   -2.1275    0.0000 H   0  0  0  0  0  0  0  0  0  0  0  0
  -10.5752    0.8958    0.0000 C   0  0  0  0  0  0  0  0  0  0  0  0
  -12.0359    1.1552    0.0000 C   0  0  0  0  0  0  0  0  0  0  0  0
  -12.9978    0.0042    0.0000 H   0  0  0  0  0  0  0  0  0  0  0  0
  -12.5562    2.5620    0.0000 C   0  0  0  0  0  0  0  0  0  0  0  0
  -14.0363    2.8058    0.0000 H   0  0  0  0  0  0  0  0  0  0  0  0
  -11.6193    3.7189    0.0000 C   0  0  0  0  0  0  0  0  0  0  0  0
  -10.1270    3.4605    0.0000 C   0  0  0  0  0  0  0  0  0  0  0  0
   -9.1676    4.6135    0.0000 H   0  0  0  0  0  0  0  0  0  0  0  0
   -9.6067    2.0536    0.0000 C   0  0  0  0  0  0  0  0  0  0  0  0
   -8.1286    1.7981    0.0000 H   0  0  0  0  0  0  0  0  0  0  0  0
  -12.1467    5.1231    0.0000 Cl  0  0  0  0  0  0  0  0  0  0  0  0
   -7.0233   -0.3964    0.0000 N   0  0  0  0  0  0  0  0  0  0  0  0
   -7.0233    1.1045    0.0000 C   0  0  0  0  0  0  0  0  0  0  0  0
   -8.5005    0.8437    0.0000 H   0  0  0  0  0  0  0  0  0  0  0  0
   -7.8657    3.4158    0.0000 H   0  0  0  0  0  0  0  0  0  0  0  0
   -5.7240    1.8557    0.0000 C   0  0  0  0  0  0  0  0  0  0  0  0
   -6.6888    3.0043    0.0000 H   0  0  0  0  0  0  0  0  0  0  0  0
   -4.7603    3.0052    0.0000 H   0  0  0  0  0  0  0  0  0  0  0  0
   -4.4248    1.1061    0.0000 N   0  0  0  0  0  0  0  0  0  0  0  0
   -4.4248   -0.3947    0.0000 C   0  0  0  0  0  0  0  0  0  0  0  0
   -2.9476   -0.1339    0.0000 H   0  0  0  0  0  0  0  0  0  0  0  0
   -3.9111   -1.8040    0.0000 H   0  0  0  0  0  0  0  0  0  0  0  0
   -5.7240   -1.1459    0.0000 C   0  0  0  0  0  0  0  0  0  0  0  0
   -4.7592   -2.2945    0.0000 H   0  0  0  0  0  0  0  0  0  0  0  0
   -6.6877   -2.2954    0.0000 H   0  0  0  0  0  0  0  0  0  0  0  0
   -2.7102    2.0964    0.0000 C   0  0  0  0  0  0  0  0  0  0  0  0
   -3.6746    3.2453    0.0000 H   0  0  0  0  0  0  0  0  0  0  0  0
   -1.7462    3.2456    0.0000 H   0  0  0  0  0  0  0  0  0  0  0  0
   -1.4110    1.3466    0.0000 C   0  0  0  0  0  0  0  0  0  0  0  0
    0.0662    1.0864    0.0000 H   0  0  0  0  0  0  0  0  0  0  0  0
   -0.8982    2.7562    0.0000 H   0  0  0  0  0  0  0  0  0  0  0  0
   -1.4108   -0.1534    0.0000 O   0  0  0  0  0  0  0  0  0  0  0  0
   -0.1116   -0.9032    0.0000 C   0  0  0  0  0  0  0  0  0  0  0  0
    0.8527   -2.0521    0.0000 H   0  0  0  0  0  0  0  0  0  0  0  0
   -1.0756   -2.0524    0.0000 H   0  0  0  0  0  0  0  0  0  0  0  0
    1.1873   -0.1530    0.0000 C   0  0  0  0  0  0  0  0  0  0  0  0
    1.1870    1.3470    0.0000 O   0  0  0  0  0  0  0  0  0  0  0  0
    2.4864   -0.9028    0.0000 O   0  0  0  0  0  0  0  0  0  0  0  0
    3.7854   -0.1525    0.0000 H   0  0  0  0  0  0  0  0  0  0  0  0
  1  2  1  0  0  0  0 
  1  3  2  0  0  0  0 
  3  4  1  0  0  0  0 
  3  5  1  0  0  0  0 
  5  6  1  0  0  0  0 
  5  7  2  0  0  0  0 
  7  8  1  0  0  0  0 
  8  9  1  0  0  0  0 
  8 10  2  0  0  0  0 
  1 10  1  0  0  0  0 
 10 11  1  0  0  0  0 
  7 12  1  0  0  0  0 
 12 13  1  0  0  0  0 
 12 14  1  0  0  0  0 
 14 15  2  0  0  0  0 
 15 16  1  0  0  0  0 
 15 17  1  0  0  0  0 
 17 18  1  0  0  0  0 
 17 19  2  0  0  0  0 
 19 20  1  0  0  0  0 
 20 21  1  0  0  0  0 
 20 22  2  0  0  0  0 
 14 22  1  0  0  0  0 
 22 23  1  0  0  0  0 
 19 24  1  0  0  0  0 
 12 25  1  0  0  0  0 
 25 26  1  0  0  0  0 
 26 27  1  0  0  0  0 
 26 28  1  0  0  0  0 
 26 29  1  0  0  0  0 
 29 30  1  0  0  0  0 
 29 31  1  0  0  0  0 
 29 32  1  0  0  0  0 
 32 33  1  0  0  0  0 
 33 34  1  0  0  0  0 
 33 35  1  0  0  0  0 
 33 36  1  0  0  0  0 
 25 36  1  0  0  0  0 
 36 37  1  0  0  0  0 
 36 38  1  0  0  0  0 
 32 39  1  0  0  0  0 
 39 40  1  0  0  0  0 
 39 41  1  0  0  0  0 
 39 42  1  0  0  0  0 
 42 43  1  0  0  0  0 
 42 44  1  0  0  0  0 
 42 45  1  0  0  0  0 
 45 46  1  0  0  0  0 
 46 47  1  0  0  0  0 
 46 48  1  0  0  0  0 
 46 49  1  0  0  0  0 
 49 50  2  0  0  0  0 
 49 51  1  0  0  0  0 
 51 52  1  0  0  0  0 
M  END
> <Rank>
3

> <Priority_score>
0.604

> <Reaction_type>
primary_alcohol_oxidation_(aliphatic)

> <Parent_ID>
85

> <Parent_InChI>
InChI=1S/C21H27ClN2O2/c22-20-8-6-19(7-9-20)21(18-4-2-1-3-5-18)24-12-10-23(11-13-24)14-16-26-17-15-25/h1-9,21,25H,10-17H2

> <Parent_SMILES>
OCCOCCN1CCN(C(c2ccccc2)c2ccc(Cl)cc2)CC1

$$$$
Molecule 85_metabolite 9
  CDK     0516241031

 49 50  0  0  0  0  0  0  0  0999 V2000
    0.5030   -2.8321    0.0000 C   0  0  0  0  0  0  0  0  0  0  0  0
    0.5030   -4.3321    0.0000 H   0  0  0  0  0  0  0  0  0  0  0  0
    1.8030   -2.0821    0.0000 C   0  0  0  0  0  0  0  0  0  0  0  0
    3.1020   -2.8323    0.0000 H   0  0  0  0  0  0  0  0  0  0  0  0
    1.8030   -0.5821    0.0000 C   0  0  0  0  0  0  0  0  0  0  0  0
    3.1020    0.1681    0.0000 H   0  0  0  0  0  0  0  0  0  0  0  0
    0.5030    0.1679    0.0000 C   0  0  0  0  0  0  0  0  0  0  0  0
   -0.7970   -0.5821    0.0000 C   0  0  0  0  0  0  0  0  0  0  0  0
   -2.0959    0.1681    0.0000 H   0  0  0  0  0  0  0  0  0  0  0  0
   -0.7970   -2.0821    0.0000 C   0  0  0  0  0  0  0  0  0  0  0  0
   -2.0959   -2.8323    0.0000 H   0  0  0  0  0  0  0  0  0  0  0  0
    0.5030    1.6679    0.0000 C   0  0  0  0  0  0  0  0  0  0  0  0
    1.9803    1.4074    0.0000 H   0  0  0  0  0  0  0  0  0  0  0  0
    1.3444    3.9795    0.0000 C   0  0  0  0  0  0  0  0  0  0  0  0
    2.8051    4.2392    0.0000 C   0  0  0  0  0  0  0  0  0  0  0  0
    3.7672    3.0884    0.0000 H   0  0  0  0  0  0  0  0  0  0  0  0
    3.3252    5.6461    0.0000 C   0  0  0  0  0  0  0  0  0  0  0  0
    4.8052    5.8901    0.0000 H   0  0  0  0  0  0  0  0  0  0  0  0
    2.3881    6.8028    0.0000 C   0  0  0  0  0  0  0  0  0  0  0  0
    0.8958    6.5442    0.0000 C   0  0  0  0  0  0  0  0  0  0  0  0
   -0.0638    7.6971    0.0000 H   0  0  0  0  0  0  0  0  0  0  0  0
    0.3757    5.1372    0.0000 C   0  0  0  0  0  0  0  0  0  0  0  0
   -1.1023    4.8815    0.0000 H   0  0  0  0  0  0  0  0  0  0  0  0
    2.9153    8.2071    0.0000 Cl  0  0  0  0  0  0  0  0  0  0  0  0
   -0.7960    2.4179    0.0000 N   0  0  0  0  0  0  0  0  0  0  0  0
   -0.7960    3.9179    0.0000 H   0  0  0  0  0  0  0  0  0  0  0  0
   -2.0950    1.6679    0.0000 C   0  0  0  0  0  0  0  0  0  0  0  0
   -1.1308    0.5188    0.0000 H   0  0  0  0  0  0  0  0  0  0  0  0
   -3.0592    0.5188    0.0000 H   0  0  0  0  0  0  0  0  0  0  0  0
   -3.3941    2.4179    0.0000 C   0  0  0  0  0  0  0  0  0  0  0  0
   -4.3583    3.5670    0.0000 H   0  0  0  0  0  0  0  0  0  0  0  0
   -2.4299    3.5670    0.0000 H   0  0  0  0  0  0  0  0  0  0  0  0
   -5.1088    1.4279    0.0000 N   0  0  0  0  0  0  0  0  0  0  0  0
   -5.1088   -0.0721    0.0000 H   0  0  0  0  0  0  0  0  0  0  0  0
   -6.4078    2.1779    0.0000 C   0  0  0  0  0  0  0  0  0  0  0  0
   -7.3720    3.3270    0.0000 H   0  0  0  0  0  0  0  0  0  0  0  0
   -5.4437    3.3270    0.0000 H   0  0  0  0  0  0  0  0  0  0  0  0
   -7.7069    1.4279    0.0000 C   0  0  0  0  0  0  0  0  0  0  0  0
   -6.7427    0.2788    0.0000 H   0  0  0  0  0  0  0  0  0  0  0  0
   -8.6711    0.2788    0.0000 H   0  0  0  0  0  0  0  0  0  0  0  0
   -9.4216    2.4179    0.0000 O   0  0  0  0  0  0  0  0  0  0  0  0
  -10.7206    1.6679    0.0000 C   0  0  0  0  0  0  0  0  0  0  0  0
   -9.7565    0.5188    0.0000 H   0  0  0  0  0  0  0  0  0  0  0  0
  -11.6848    0.5188    0.0000 H   0  0  0  0  0  0  0  0  0  0  0  0
  -12.0197    2.4179    0.0000 C   0  0  0  0  0  0  0  0  0  0  0  0
  -12.9839    3.5670    0.0000 H   0  0  0  0  0  0  0  0  0  0  0  0
  -11.0555    3.5670    0.0000 H   0  0  0  0  0  0  0  0  0  0  0  0
  -13.3187    1.6679    0.0000 O   0  0  0  0  0  0  0  0  0  0  0  0
  -14.6178    2.4179    0.0000 H   0  0  0  0  0  0  0  0  0  0  0  0
  1  2  1  0  0  0  0 
  1  3  2  0  0  0  0 
  3  4  1  0  0  0  0 
  3  5  1  0  0  0  0 
  5  6  1  0  0  0  0 
  5  7  2  0  0  0  0 
  7  8  1  0  0  0  0 
  8  9  1  0  0  0  0 
  8 10  2  0  0  0  0 
  1 10  1  0  0  0  0 
 10 11  1  0  0  0  0 
  7 12  1  0  0  0  0 
 12 13  1  0  0  0  0 
 12 14  1  0  0  0  0 
 14 15  2  0  0  0  0 
 15 16  1  0  0  0  0 
 15 17  1  0  0  0  0 
 17 18  1  0  0  0  0 
 17 19  2  0  0  0  0 
 19 20  1  0  0  0  0 
 20 21  1  0  0  0  0 
 20 22  2  0  0  0  0 
 14 22  1  0  0  0  0 
 22 23  1  0  0  0  0 
 19 24  1  0  0  0  0 
 12 25  1  0  0  0  0 
 25 26  1  0  0  0  0 
 25 27  1  0  0  0  0 
 27 28  1  0  0  0  0 
 27 29  1  0  0  0  0 
 27 30  1  0  0  0  0 
 30 31  1  0  0  0  0 
 30 32  1  0  0  0  0 
 30 33  1  0  0  0  0 
 33 34  1  0  0  0  0 
 33 35  1  0  0  0  0 
 35 36  1  0  0  0  0 
 35 37  1  0  0  0  0 
 35 38  1  0  0  0  0 
 38 39  1  0  0  0  0 
 38 40  1  0  0  0  0 
 38 41  1  0  0  0  0 
 41 42  1  0  0  0  0 
 42 43  1  0  0  0  0 
 42 44  1  0  0  0  0 
 42 45  1  0  0  0  0 
 45 46  1  0  0  0  0 
 45 47  1  0  0  0  0 
 45 48  1  0  0  0  0 
 48 49  1  0  0  0  0 
M  END
> <Rank>
9

> <Priority_score>
0.464

> <Reaction_type>
N-dealkylation of piperazine

> <Parent_ID>
85

> <Parent_InChI>
InChI=1S/C21H27ClN2O2/c22-20-8-6-19(7-9-20)21(18-4-2-1-3-5-18)24-12-10-23(11-13-24)14-16-26-17-15-25/h1-9,21,25H,10-17H2

> <Parent_SMILES>
OCCOCCN1CCN(C(c2ccccc2)c2ccc(Cl)cc2)CC1

$$$$
Molecule 85_metabolite 10
  CDK     0516241031

 39 41  0  0  0  0  0  0  0  0999 V2000
    1.8070    7.3173    0.0000 C   0  0  0  0  0  0  0  0  0  0  0  0
    1.8070    8.8173    0.0000 H   0  0  0  0  0  0  0  0  0  0  0  0
    0.5070    6.5673    0.0000 C   0  0  0  0  0  0  0  0  0  0  0  0
   -0.7919    7.3175    0.0000 H   0  0  0  0  0  0  0  0  0  0  0  0
    0.5070    5.0673    0.0000 C   0  0  0  0  0  0  0  0  0  0  0  0
   -0.7919    4.3171    0.0000 H   0  0  0  0  0  0  0  0  0  0  0  0
    1.8070    4.3173    0.0000 C   0  0  0  0  0  0  0  0  0  0  0  0
    3.1070    5.0673    0.0000 C   0  0  0  0  0  0  0  0  0  0  0  0
    4.8216    4.0770    0.0000 H   0  0  0  0  0  0  0  0  0  0  0  0
    3.1070    6.5673    0.0000 C   0  0  0  0  0  0  0  0  0  0  0  0
    4.4059    7.3175    0.0000 H   0  0  0  0  0  0  0  0  0  0  0  0
    1.8070    1.3773    0.0000 C   0  0  0  0  0  0  0  0  0  0  0  0
    2.3200   -0.0323    0.0000 H   0  0  0  0  0  0  0  0  0  0  0  0
    4.2296    0.9501    0.0000 C   0  0  0  0  0  0  0  0  0  0  0  0
    4.7390   -0.4433    0.0000 C   0  0  0  0  0  0  0  0  0  0  0  0
    3.7727   -1.5906    0.0000 H   0  0  0  0  0  0  0  0  0  0  0  0
    6.2149   -0.7112    0.0000 C   0  0  0  0  0  0  0  0  0  0  0  0
    6.7122   -2.1263    0.0000 H   0  0  0  0  0  0  0  0  0  0  0  0
    7.1912    0.4125    0.0000 C   0  0  0  0  0  0  0  0  0  0  0  0
    6.6774    1.8372    0.0000 C   0  0  0  0  0  0  0  0  0  0  0  0
    7.6462    2.9824    0.0000 H   0  0  0  0  0  0  0  0  0  0  0  0
    5.2015    2.1051    0.0000 C   0  0  0  0  0  0  0  0  0  0  0  0
    5.7213    4.9988    0.0000 H   0  0  0  0  0  0  0  0  0  0  0  0
    8.6658    0.1372    0.0000 Cl  0  0  0  0  0  0  0  0  0  0  0  0
    0.0923    0.3873    0.0000 N   0  0  0  0  0  0  0  0  0  0  0  0
    0.0928   -1.1136    0.0000 C   0  0  0  0  0  0  0  0  0  0  0  0
    0.6059   -2.5231    0.0000 H   0  0  0  0  0  0  0  0  0  0  0  0
    1.5699   -0.8528    0.0000 H   0  0  0  0  0  0  0  0  0  0  0  0
   -1.2063   -1.8636    0.0000 C   0  0  0  0  0  0  0  0  0  0  0  0
   -2.1707   -3.0124    0.0000 H   0  0  0  0  0  0  0  0  0  0  0  0
   -0.2422   -3.0127    0.0000 H   0  0  0  0  0  0  0  0  0  0  0  0
   -2.5058   -1.1127    0.0000 N   0  0  0  0  0  0  0  0  0  0  0  0
   -3.8048   -1.8627    0.0000 H   0  0  0  0  0  0  0  0  0  0  0  0
   -2.5063    0.3881    0.0000 C   0  0  0  0  0  0  0  0  0  0  0  0
   -3.0195    1.7976    0.0000 H   0  0  0  0  0  0  0  0  0  0  0  0
   -3.9834    0.1273    0.0000 H   0  0  0  0  0  0  0  0  0  0  0  0
   -1.2072    1.1381    0.0000 C   0  0  0  0  0  0  0  0  0  0  0  0
   -0.2428    2.2870    0.0000 H   0  0  0  0  0  0  0  0  0  0  0  0
   -2.1713    2.2873    0.0000 H   0  0  0  0  0  0  0  0  0  0  0  0
  1  2  1  0  0  0  0 
  1  3  2  0  0  0  0 
  3  4  1  0  0  0  0 
  3  5  1  0  0  0  0 
  5  6  1  0  0  0  0 
  5  7  2  0  0  0  0 
  7  8  1  0  0  0  0 
  8  9  1  0  0  0  0 
  8 10  2  0  0  0  0 
  1 10  1  0  0  0  0 
 10 11  1  0  0  0  0 
  7 12  1  0  0  0  0 
 12 13  1  0  0  0  0 
 12 14  1  0  0  0  0 
 14 15  2  0  0  0  0 
 15 16  1  0  0  0  0 
 15 17  1  0  0  0  0 
 17 18  1  0  0  0  0 
 17 19  2  0  0  0  0 
 19 20  1  0  0  0  0 
 20 21  1  0  0  0  0 
 20 22  2  0  0  0  0 
 14 22  1  0  0  0  0 
 22 23  1  0  0  0  0 
 19 24  1  0  0  0  0 
 12 25  1  0  0  0  0 
 25 26  1  0  0  0  0 
 26 27  1  0  0  0  0 
 26 28  1  0  0  0  0 
 26 29  1  0  0  0  0 
 29 30  1  0  0  0  0 
 29 31  1  0  0  0  0 
 29 32  1  0  0  0  0 
 32 33  1  0  0  0  0 
 32 34  1  0  0  0  0 
 34 35  1  0  0  0  0 
 34 36  1  0  0  0  0 
 34 37  1  0  0  0  0 
 25 37  1  0  0  0  0 
 37 38  1  0  0  0  0 
 37 39  1  0  0  0  0 
M  END
> <Rank>
9

> <Priority_score>
0.464

> <Reaction_type>
N-dealkylation_(tertiaryN-CH2-alkyl)

> <Parent_ID>
85

> <Parent_InChI>
InChI=1S/C21H27ClN2O2/c22-20-8-6-19(7-9-20)21(18-4-2-1-3-5-18)24-12-10-23(11-13-24)14-16-26-17-15-25/h1-9,21,25H,10-17H2

> <Parent_SMILES>
OCCOCCN1CCN(C(c2ccccc2)c2ccc(Cl)cc2)CC1

$$$$
Molecule 85_metabolite 11
  CDK     0516241031

 54 56  0  0  0  0  0  0  0  0999 V2000
    5.4322    5.4727    0.0000 C   0  0  0  0  0  0  0  0  0  0  0  0
    5.4322    6.9727    0.0000 H   0  0  0  0  0  0  0  0  0  0  0  0
    4.1322    4.7227    0.0000 C   0  0  0  0  0  0  0  0  0  0  0  0
    2.8333    5.4729    0.0000 H   0  0  0  0  0  0  0  0  0  0  0  0
    4.1322    3.2227    0.0000 C   0  0  0  0  0  0  0  0  0  0  0  0
    2.8333    2.4725    0.0000 H   0  0  0  0  0  0  0  0  0  0  0  0
    5.4322    2.4727    0.0000 C   0  0  0  0  0  0  0  0  0  0  0  0
    6.7322    3.2227    0.0000 C   0  0  0  0  0  0  0  0  0  0  0  0
    8.0311    2.4725    0.0000 H   0  0  0  0  0  0  0  0  0  0  0  0
    6.7322    4.7227    0.0000 C   0  0  0  0  0  0  0  0  0  0  0  0
    8.0311    5.4729    0.0000 H   0  0  0  0  0  0  0  0  0  0  0  0
    5.4322   -0.4673    0.0000 C   0  0  0  0  0  0  0  0  0  0  0  0
    5.9452   -1.8768    0.0000 H   0  0  0  0  0  0  0  0  0  0  0  0
    8.3275    0.0432    0.0000 C   0  0  0  0  0  0  0  0  0  0  0  0
    9.2827   -1.0919    0.0000 C   0  0  0  0  0  0  0  0  0  0  0  0
    8.7671   -2.5005    0.0000 H   0  0  0  0  0  0  0  0  0  0  0  0
   10.7612   -0.8388    0.0000 C   0  0  0  0  0  0  0  0  0  0  0  0
   11.7125   -1.9986    0.0000 H   0  0  0  0  0  0  0  0  0  0  0  0
   11.2944    0.5510    0.0000 C   0  0  0  0  0  0  0  0  0  0  0  0
   10.3243    1.7140    0.0000 C   0  0  0  0  0  0  0  0  0  0  0  0
   10.8429    3.1215    0.0000 H   0  0  0  0  0  0  0  0  0  0  0  0
    8.8458    1.4610    0.0000 C   0  0  0  0  0  0  0  0  0  0  0  0
    7.6226    3.5953    0.0000 H   0  0  0  0  0  0  0  0  0  0  0  0
   12.7741    0.7966    0.0000 Cl  0  0  0  0  0  0  0  0  0  0  0  0
    3.7175   -1.4573    0.0000 N   0  0  0  0  0  0  0  0  0  0  0  0
    3.7179   -2.9581    0.0000 C   0  0  0  0  0  0  0  0  0  0  0  0
    4.2311   -4.3676    0.0000 H   0  0  0  0  0  0  0  0  0  0  0  0
    5.1951   -2.6973    0.0000 H   0  0  0  0  0  0  0  0  0  0  0  0
    2.4189   -3.7081    0.0000 C   0  0  0  0  0  0  0  0  0  0  0  0
    1.4545   -4.8570    0.0000 H   0  0  0  0  0  0  0  0  0  0  0  0
    3.3830   -4.8573    0.0000 H   0  0  0  0  0  0  0  0  0  0  0  0
    1.1194   -2.9573    0.0000 N   0  0  0  0  0  0  0  0  0  0  0  0
    1.1189   -1.4565    0.0000 C   0  0  0  0  0  0  0  0  0  0  0  0
    0.6057   -0.0470    0.0000 H   0  0  0  0  0  0  0  0  0  0  0  0
   -0.3583   -1.7172    0.0000 H   0  0  0  0  0  0  0  0  0  0  0  0
    2.4179   -0.7065    0.0000 C   0  0  0  0  0  0  0  0  0  0  0  0
    3.3824    0.4424    0.0000 H   0  0  0  0  0  0  0  0  0  0  0  0
    1.4539    0.4427    0.0000 H   0  0  0  0  0  0  0  0  0  0  0  0
   -0.8306   -2.6137    0.0000 C   0  0  0  0  0  0  0  0  0  0  0  0
   -0.1536   -0.7530    0.0000 H   0  0  0  0  0  0  0  0  0  0  0  0
   -2.1297   -1.8638    0.0000 H   0  0  0  0  0  0  0  0  0  0  0  0
   -2.1031   -4.1306    0.0000 C   0  0  0  0  0  0  0  0  0  0  0  0
   -2.6160   -5.5402    0.0000 H   0  0  0  0  0  0  0  0  0  0  0  0
   -0.8040   -4.8804    0.0000 H   0  0  0  0  0  0  0  0  0  0  0  0
   -4.0531   -3.7870    0.0000 O   0  0  0  0  0  0  0  0  0  0  0  0
   -5.0171   -4.9361    0.0000 C   0  0  0  0  0  0  0  0  0  0  0  0
   -5.5300   -6.3457    0.0000 H   0  0  0  0  0  0  0  0  0  0  0  0
   -3.7180   -5.6860    0.0000 H   0  0  0  0  0  0  0  0  0  0  0  0
   -6.4944   -4.6758    0.0000 C   0  0  0  0  0  0  0  0  0  0  0  0
   -5.9815   -3.2662    0.0000 H   0  0  0  0  0  0  0  0  0  0  0  0
   -7.7935   -3.9260    0.0000 H   0  0  0  0  0  0  0  0  0  0  0  0
   -7.4584   -5.8250    0.0000 O   0  0  0  0  0  0  0  0  0  0  0  0
   -8.9357   -5.5647    0.0000 H   0  0  0  0  0  0  0  0  0  0  0  0
    0.6062   -4.3668    0.0000 O   0  0  0  0  0  0  0  0  0  0  0  0
  1  2  1  0  0  0  0 
  1  3  2  0  0  0  0 
  3  4  1  0  0  0  0 
  3  5  1  0  0  0  0 
  5  6  1  0  0  0  0 
  5  7  2  0  0  0  0 
  7  8  1  0  0  0  0 
  8  9  1  0  0  0  0 
  8 10  2  0  0  0  0 
  1 10  1  0  0  0  0 
 10 11  1  0  0  0  0 
  7 12  1  0  0  0  0 
 12 13  1  0  0  0  0 
 12 14  1  0  0  0  0 
 14 15  2  0  0  0  0 
 15 16  1  0  0  0  0 
 15 17  1  0  0  0  0 
 17 18  1  0  0  0  0 
 17 19  2  0  0  0  0 
 19 20  1  0  0  0  0 
 20 21  1  0  0  0  0 
 20 22  2  0  0  0  0 
 14 22  1  0  0  0  0 
 22 23  1  0  0  0  0 
 19 24  1  0  0  0  0 
 12 25  1  0  0  0  0 
 25 26  1  0  0  0  0 
 26 27  1  0  0  0  0 
 26 28  1  0  0  0  0 
 26 29  1  0  0  0  0 
 29 30  1  0  0  0  0 
 29 31  1  0  0  0  0 
 29 32  1  0  0  0  0 
 32 33  1  0  0  0  0 
 33 34  1  0  0  0  0 
 33 35  1  0  0  0  0 
 33 36  1  0  0  0  0 
 25 36  1  0  0  0  0 
 36 37  1  0  0  0  0 
 36 38  1  0  0  0  0 
 32 39  1  0  0  0  0 
 39 40  1  0  0  0  0 
 39 41  1  0  0  0  0 
 39 42  1  0  0  0  0 
 42 43  1  0  0  0  0 
 42 44  1  0  0  0  0 
 42 45  1  0  0  0  0 
 45 46  1  0  0  0  0 
 46 47  1  0  0  0  0 
 46 48  1  0  0  0  0 
 46 49  1  0  0  0  0 
 49 50  1  0  0  0  0 
 49 51  1  0  0  0  0 
 49 52  1  0  0  0  0 
 52 53  1  0  0  0  0 
 32 54  1  0  0  0  0 
M  CHG  1  32   1
M  CHG  1  54  -1
M  END
> <Rank>
9

> <Priority_score>
0.464

> <Reaction_type>
N-oxidation_(tertiary_N)

> <Parent_ID>
85

> <Parent_InChI>
InChI=1S/C21H27ClN2O2/c22-20-8-6-19(7-9-20)21(18-4-2-1-3-5-18)24-12-10-23(11-13-24)14-16-26-17-15-25/h1-9,21,25H,10-17H2

> <Parent_SMILES>
OCCOCCN1CCN(C(c2ccccc2)c2ccc(Cl)cc2)CC1

$$$$
Molecule 85_metabolite 12
  CDK     0516241031

 54 56  0  0  0  0  0  0  0  0999 V2000
    5.4444    3.6368    0.0000 C   0  0  0  0  0  0  0  0  0  0  0  0
    6.7433    4.3870    0.0000 H   0  0  0  0  0  0  0  0  0  0  0  0
    4.1447    4.3874    0.0000 C   0  0  0  0  0  0  0  0  0  0  0  0
    4.1447    5.8874    0.0000 H   0  0  0  0  0  0  0  0  0  0  0  0
    2.8458    3.6372    0.0000 C   0  0  0  0  0  0  0  0  0  0  0  0
    1.5465    4.3868    0.0000 H   0  0  0  0  0  0  0  0  0  0  0  0
    2.8465    2.1364    0.0000 C   0  0  0  0  0  0  0  0  0  0  0  0
    4.1462    1.3858    0.0000 C   0  0  0  0  0  0  0  0  0  0  0  0
    4.1462   -0.1142    0.0000 H   0  0  0  0  0  0  0  0  0  0  0  0
    5.4451    2.1360    0.0000 C   0  0  0  0  0  0  0  0  0  0  0  0
    6.7444    1.3864    0.0000 H   0  0  0  0  0  0  0  0  0  0  0  0
    1.5476    1.3862    0.0000 C   0  0  0  0  0  0  0  0  0  0  0  0
    1.0344    2.7956    0.0000 H   0  0  0  0  0  0  0  0  0  0  0  0
   -0.4324    1.3859    0.0000 C   0  0  0  0  0  0  0  0  0  0  0  0
   -1.1761    2.6695    0.0000 C   0  0  0  0  0  0  0  0  0  0  0  0
   -0.4240    3.9673    0.0000 H   0  0  0  0  0  0  0  0  0  0  0  0
   -2.6761    2.6768    0.0000 C   0  0  0  0  0  0  0  0  0  0  0  0
   -3.4118    3.9840    0.0000 H   0  0  0  0  0  0  0  0  0  0  0  0
   -3.4423    1.4005    0.0000 C   0  0  0  0  0  0  0  0  0  0  0  0
   -2.6887    0.0868    0.0000 C   0  0  0  0  0  0  0  0  0  0  0  0
   -3.4437   -1.2094    0.0000 H   0  0  0  0  0  0  0  0  0  0  0  0
   -1.1887    0.0795    0.0000 C   0  0  0  0  0  0  0  0  0  0  0  0
   -0.4427   -1.2218    0.0000 H   0  0  0  0  0  0  0  0  0  0  0  0
   -4.9423    1.4154    0.0000 Cl  0  0  0  0  0  0  0  0  0  0  0  0
    1.5480   -1.0738    0.0000 N   0  0  0  0  0  0  0  0  0  0  0  0
    0.2485   -1.8247    0.0000 C   0  0  0  0  0  0  0  0  0  0  0  0
    0.2483   -0.3247    0.0000 H   0  0  0  0  0  0  0  0  0  0  0  0
   -2.1742   -2.2516    0.0000 H   0  0  0  0  0  0  0  0  0  0  0  0
    0.2480   -3.3255    0.0000 C   0  0  0  0  0  0  0  0  0  0  0  0
   -1.2291   -3.0647    0.0000 H   0  0  0  0  0  0  0  0  0  0  0  0
   -0.2652   -4.7350    0.0000 H   0  0  0  0  0  0  0  0  0  0  0  0
    1.5471   -4.0755    0.0000 N   0  0  0  0  0  0  0  0  0  0  0  0
    2.8466   -3.3247    0.0000 C   0  0  0  0  0  0  0  0  0  0  0  0
    3.3598   -4.7341    0.0000 H   0  0  0  0  0  0  0  0  0  0  0  0
    4.3238   -3.0643    0.0000 H   0  0  0  0  0  0  0  0  0  0  0  0
    2.8471   -1.8238    0.0000 C   0  0  0  0  0  0  0  0  0  0  0  0
    4.3242   -2.0846    0.0000 H   0  0  0  0  0  0  0  0  0  0  0  0
    3.3602   -0.4143    0.0000 H   0  0  0  0  0  0  0  0  0  0  0  0
    1.5474   -6.0555    0.0000 C   0  0  0  0  0  0  0  0  0  0  0  0
    0.0701   -5.7953    0.0000 H   0  0  0  0  0  0  0  0  0  0  0  0
    2.8465   -6.8053    0.0000 C   0  0  0  0  0  0  0  0  0  0  0  0
    3.8109   -7.9542    0.0000 H   0  0  0  0  0  0  0  0  0  0  0  0
    1.8825   -7.9545    0.0000 H   0  0  0  0  0  0  0  0  0  0  0  0
    4.1455   -6.0551    0.0000 O   0  0  0  0  0  0  0  0  0  0  0  0
    5.8603   -7.0448    0.0000 C   0  0  0  0  0  0  0  0  0  0  0  0
    6.8247   -8.1937    0.0000 H   0  0  0  0  0  0  0  0  0  0  0  0
    4.8963   -8.1940    0.0000 H   0  0  0  0  0  0  0  0  0  0  0  0
    7.1593   -6.2946    0.0000 C   0  0  0  0  0  0  0  0  0  0  0  0
    6.1949   -5.1457    0.0000 H   0  0  0  0  0  0  0  0  0  0  0  0
    8.1233   -5.1454    0.0000 H   0  0  0  0  0  0  0  0  0  0  0  0
    8.4584   -7.0444    0.0000 O   0  0  0  0  0  0  0  0  0  0  0  0
    9.7573   -6.2942    0.0000 H   0  0  0  0  0  0  0  0  0  0  0  0
    1.0346   -7.4651    0.0000 O   0  0  0  0  0  0  0  0  0  0  0  0
   -0.4426   -7.7258    0.0000 H   0  0  0  0  0  0  0  0  0  0  0  0
  1  2  1  0  0  0  0 
  1  3  2  0  0  0  0 
  3  4  1  0  0  0  0 
  3  5  1  0  0  0  0 
  5  6  1  0  0  0  0 
  5  7  2  0  0  0  0 
  7  8  1  0  0  0  0 
  8  9  1  0  0  0  0 
  8 10  2  0  0  0  0 
  1 10  1  0  0  0  0 
 10 11  1  0  0  0  0 
  7 12  1  0  0  0  0 
 12 13  1  0  0  0  0 
 12 14  1  0  0  0  0 
 14 15  2  0  0  0  0 
 15 16  1  0  0  0  0 
 15 17  1  0  0  0  0 
 17 18  1  0  0  0  0 
 17 19  2  0  0  0  0 
 19 20  1  0  0  0  0 
 20 21  1  0  0  0  0 
 20 22  2  0  0  0  0 
 14 22  1  0  0  0  0 
 22 23  1  0  0  0  0 
 19 24  1  0  0  0  0 
 12 25  1  0  0  0  0 
 25 26  1  0  0  0  0 
 26 27  1  0  0  0  0 
 26 28  1  0  0  0  0 
 26 29  1  0  0  0  0 
 29 30  1  0  0  0  0 
 29 31  1  0  0  0  0 
 29 32  1  0  0  0  0 
 32 33  1  0  0  0  0 
 33 34  1  0  0  0  0 
 33 35  1  0  0  0  0 
 33 36  1  0  0  0  0 
 25 36  1  0  0  0  0 
 36 37  1  0  0  0  0 
 36 38  1  0  0  0  0 
 32 39  1  0  0  0  0 
 39 40  1  0  0  0  0 
 39 41  1  0  0  0  0 
 41 42  1  0  0  0  0 
 41 43  1  0  0  0  0 
 41 44  1  0  0  0  0 
 44 45  1  0  0  0  0 
 45 46  1  0  0  0  0 
 45 47  1  0  0  0  0 
 45 48  1  0  0  0  0 
 48 49  1  0  0  0  0 
 48 50  1  0  0  0  0 
 48 51  1  0  0  0  0 
 51 52  1  0  0  0  0 
 39 53  1  0  0  0  0 
 53 54  1  0  0  0  0 
M  END
> <Rank>
9

> <Priority_score>
0.464

> <Reaction_type>
aliphatic hydroxylation

> <Parent_ID>
85

> <Parent_InChI>
InChI=1S/C21H27ClN2O2/c22-20-8-6-19(7-9-20)21(18-4-2-1-3-5-18)24-12-10-23(11-13-24)14-16-26-17-15-25/h1-9,21,25H,10-17H2

> <Parent_SMILES>
OCCOCCN1CCN(C(c2ccccc2)c2ccc(Cl)cc2)CC1

$$$$
Molecule 85_metabolite 13
  CDK     0516241031

 15 14  0  0  0  0  0  0  0  0999 V2000
    0.9218   -1.9431    0.0000 C   0  0  0  0  0  0  0  0  0  0  0  0
   -0.5782   -1.9431    0.0000 H   0  0  0  0  0  0  0  0  0  0  0  0
    1.6718   -3.2421    0.0000 O   0  0  0  0  0  0  0  0  0  0  0  0
    1.6718   -0.6440    0.0000 C   0  0  0  0  0  0  0  0  0  0  0  0
    1.9323    0.8332    0.0000 H   0  0  0  0  0  0  0  0  0  0  0  0
    0.2623   -0.1310    0.0000 H   0  0  0  0  0  0  0  0  0  0  0  0
    3.1718   -0.6440    0.0000 O   0  0  0  0  0  0  0  0  0  0  0  0
    3.9218   -1.9431    0.0000 C   0  0  0  0  0  0  0  0  0  0  0  0
    4.1823   -3.4203    0.0000 H   0  0  0  0  0  0  0  0  0  0  0  0
    2.5123   -2.4561    0.0000 H   0  0  0  0  0  0  0  0  0  0  0  0
    5.4218   -1.9431    0.0000 C   0  0  0  0  0  0  0  0  0  0  0  0
    5.1613   -0.4658    0.0000 H   0  0  0  0  0  0  0  0  0  0  0  0
    6.8313   -1.4300    0.0000 H   0  0  0  0  0  0  0  0  0  0  0  0
    6.1718   -3.2421    0.0000 O   0  0  0  0  0  0  0  0  0  0  0  0
    7.6718   -3.2421    0.0000 H   0  0  0  0  0  0  0  0  0  0  0  0
  1  2  1  0  0  0  0 
  1  3  2  0  0  0  0 
  1  4  1  0  0  0  0 
  4  5  1  0  0  0  0 
  4  6  1  0  0  0  0 
  4  7  1  0  0  0  0 
  7  8  1  0  0  0  0 
  8  9  1  0  0  0  0 
  8 10  1  0  0  0  0 
  8 11  1  0  0  0  0 
 11 12  1  0  0  0  0 
 11 13  1  0  0  0  0 
 11 14  1  0  0  0  0 
 14 15  1  0  0  0  0 
M  END
> <Rank>
9

> <Priority_score>
0.464

> <Reaction_type>
N-dealkylation

> <Parent_ID>
85

> <Parent_InChI>
InChI=1S/C21H27ClN2O2/c22-20-8-6-19(7-9-20)21(18-4-2-1-3-5-18)24-12-10-23(11-13-24)14-16-26-17-15-25/h1-9,21,25H,10-17H2

> <Parent_SMILES>
OCCOCCN1CCN(C(c2ccccc2)c2ccc(Cl)cc2)CC1

$$$$
Molecule 85_metabolite 14
  CDK     0516241031

 17 16  0  0  0  0  0  0  0  0999 V2000
    7.7942   -0.0000    0.0000 C   0  0  0  0  0  0  0  0  0  0  0  0
    8.7584    1.1491    0.0000 H   0  0  0  0  0  0  0  0  0  0  0  0
    6.8300    1.1491    0.0000 H   0  0  0  0  0  0  0  0  0  0  0  0
    6.4952   -0.7500    0.0000 C   0  0  0  0  0  0  0  0  0  0  0  0
    5.5310   -1.8991    0.0000 H   0  0  0  0  0  0  0  0  0  0  0  0
    7.4594   -1.8991    0.0000 H   0  0  0  0  0  0  0  0  0  0  0  0
    5.1962   -0.0000    0.0000 O   0  0  0  0  0  0  0  0  0  0  0  0
    3.4814   -0.9900    0.0000 C   0  0  0  0  0  0  0  0  0  0  0  0
    2.5172   -2.1391    0.0000 H   0  0  0  0  0  0  0  0  0  0  0  0
    4.4456   -2.1391    0.0000 H   0  0  0  0  0  0  0  0  0  0  0  0
    2.1824   -0.2400    0.0000 C   0  0  0  0  0  0  0  0  0  0  0  0
    3.1466    0.9091    0.0000 H   0  0  0  0  0  0  0  0  0  0  0  0
    1.2182    0.9091    0.0000 H   0  0  0  0  0  0  0  0  0  0  0  0
    0.8833   -0.9900    0.0000 O   0  0  0  0  0  0  0  0  0  0  0  0
   -0.4157   -0.2400    0.0000 H   0  0  0  0  0  0  0  0  0  0  0  0
    9.0933   -0.7500    0.0000 O   0  0  0  0  0  0  0  0  0  0  0  0
   10.3923   -0.0000    0.0000 H   0  0  0  0  0  0  0  0  0  0  0  0
  1  2  1  0  0  0  0 
  1  3  1  0  0  0  0 
  1  4  1  0  0  0  0 
  4  5  1  0  0  0  0 
  4  6  1  0  0  0  0 
  4  7  1  0  0  0  0 
  7  8  1  0  0  0  0 
  8  9  1  0  0  0  0 
  8 10  1  0  0  0  0 
  8 11  1  0  0  0  0 
 11 12  1  0  0  0  0 
 11 13  1  0  0  0  0 
 11 14  1  0  0  0  0 
 14 15  1  0  0  0  0 
  1 16  1  0  0  0  0 
 16 17  1  0  0  0  0 
M  END
> <Rank>
9

> <Priority_score>
0.464

> <Reaction_type>
N-dealkylation_(tertiaryN-CH2-alkyl)

> <Parent_ID>
85

> <Parent_InChI>
InChI=1S/C21H27ClN2O2/c22-20-8-6-19(7-9-20)21(18-4-2-1-3-5-18)24-12-10-23(11-13-24)14-16-26-17-15-25/h1-9,21,25H,10-17H2

> <Parent_SMILES>
OCCOCCN1CCN(C(c2ccccc2)c2ccc(Cl)cc2)CC1

$$$$
Molecule 85_metabolite 15
  CDK     0516241031

 54 56  0  0  0  0  0  0  0  0999 V2000
    1.4970    3.7149    0.0000 C   0  0  0  0  0  0  0  0  0  0  0  0
    0.7485    5.0148    0.0000 H   0  0  0  0  0  0  0  0  0  0  0  0
    2.9970    3.7154    0.0000 C   0  0  0  0  0  0  0  0  0  0  0  0
    3.7446    5.0158    0.0000 H   0  0  0  0  0  0  0  0  0  0  0  0
    3.7474    2.4256    0.0000 C   0  0  0  0  0  0  0  0  0  0  0  0
    2.9978    1.1254    0.0000 C   0  0  0  0  0  0  0  0  0  0  0  0
    3.7484   -0.1733    0.0000 H   0  0  0  0  0  0  0  0  0  0  0  0
    1.4978    1.1249    0.0000 C   0  0  0  0  0  0  0  0  0  0  0  0
    0.7474    2.4247    0.0000 C   0  0  0  0  0  0  0  0  0  0  0  0
   -0.7526    2.4267    0.0000 H   0  0  0  0  0  0  0  0  0  0  0  0
    0.7480   -0.1742    0.0000 C   0  0  0  0  0  0  0  0  0  0  0  0
   -0.4012    0.7898    0.0000 H   0  0  0  0  0  0  0  0  0  0  0  0
   -0.9665   -1.1645    0.0000 C   0  0  0  0  0  0  0  0  0  0  0  0
   -2.2525   -0.4247    0.0000 C   0  0  0  0  0  0  0  0  0  0  0  0
   -2.2500    1.0753    0.0000 H   0  0  0  0  0  0  0  0  0  0  0  0
   -3.5552   -1.1684    0.0000 C   0  0  0  0  0  0  0  0  0  0  0  0
   -4.8459   -0.4042    0.0000 H   0  0  0  0  0  0  0  0  0  0  0  0
   -3.5806   -2.6568    0.0000 C   0  0  0  0  0  0  0  0  0  0  0  0
   -2.2711   -3.4177    0.0000 C   0  0  0  0  0  0  0  0  0  0  0  0
   -2.2768   -4.9177    0.0000 H   0  0  0  0  0  0  0  0  0  0  0  0
   -0.9684   -2.6740    0.0000 C   0  0  0  0  0  0  0  0  0  0  0  0
    0.3283   -3.4280    0.0000 H   0  0  0  0  0  0  0  0  0  0  0  0
   -4.8870   -3.3939    0.0000 Cl  0  0  0  0  0  0  0  0  0  0  0  0
    1.9784   -2.3045    0.0000 N   0  0  0  0  0  0  0  0  0  0  0  0
    1.2284   -3.6045    0.0000 C   0  0  0  0  0  0  0  0  0  0  0  0
    0.4782   -2.3055    0.0000 H   0  0  0  0  0  0  0  0  0  0  0  0
   -0.6563   -5.1855    0.0000 H   0  0  0  0  0  0  0  0  0  0  0  0
    1.9784   -4.9045    0.0000 C   0  0  0  0  0  0  0  0  0  0  0  0
    0.5687   -5.4172    0.0000 H   0  0  0  0  0  0  0  0  0  0  0  0
    2.2387   -6.3817    0.0000 H   0  0  0  0  0  0  0  0  0  0  0  0
    3.4784   -4.9045    0.0000 N   0  0  0  0  0  0  0  0  0  0  0  0
    4.2284   -3.6045    0.0000 C   0  0  0  0  0  0  0  0  0  0  0  0
    5.3775   -4.5685    0.0000 H   0  0  0  0  0  0  0  0  0  0  0  0
    5.3775   -2.6404    0.0000 H   0  0  0  0  0  0  0  0  0  0  0  0
    3.4784   -2.3045    0.0000 C   0  0  0  0  0  0  0  0  0  0  0  0
    4.8880   -1.7917    0.0000 H   0  0  0  0  0  0  0  0  0  0  0  0
    3.2181   -0.8272    0.0000 H   0  0  0  0  0  0  0  0  0  0  0  0
    4.4686   -6.6190    0.0000 C   0  0  0  0  0  0  0  0  0  0  0  0
    3.0592   -7.1323    0.0000 H   0  0  0  0  0  0  0  0  0  0  0  0
    4.7294   -8.0962    0.0000 H   0  0  0  0  0  0  0  0  0  0  0  0
    5.9686   -6.6188    0.0000 C   0  0  0  0  0  0  0  0  0  0  0  0
    7.3783   -7.1316    0.0000 H   0  0  0  0  0  0  0  0  0  0  0  0
    5.7084   -8.0961    0.0000 H   0  0  0  0  0  0  0  0  0  0  0  0
    6.7184   -5.3196    0.0000 O   0  0  0  0  0  0  0  0  0  0  0  0
    8.6984   -5.3193    0.0000 C   0  0  0  0  0  0  0  0  0  0  0  0
   10.1081   -5.8321    0.0000 H   0  0  0  0  0  0  0  0  0  0  0  0
    8.4382   -6.7966    0.0000 H   0  0  0  0  0  0  0  0  0  0  0  0
    9.4482   -4.0202    0.0000 C   0  0  0  0  0  0  0  0  0  0  0  0
    8.0386   -3.5074    0.0000 H   0  0  0  0  0  0  0  0  0  0  0  0
    9.7085   -2.5429    0.0000 H   0  0  0  0  0  0  0  0  0  0  0  0
   10.9482   -4.0199    0.0000 O   0  0  0  0  0  0  0  0  0  0  0  0
   11.6980   -2.7208    0.0000 H   0  0  0  0  0  0  0  0  0  0  0  0
    5.2474    2.4286    0.0000 O   0  0  0  0  0  0  0  0  0  0  0  0
    5.9948    3.7292    0.0000 H   0  0  0  0  0  0  0  0  0  0  0  0
  1  2  1  0  0  0  0 
  1  3  2  0  0  0  0 
  3  4  1  0  0  0  0 
  3  5  1  0  0  0  0 
  5  6  2  0  0  0  0 
  6  7  1  0  0  0  0 
  6  8  1  0  0  0  0 
  8  9  2  0  0  0  0 
  1  9  1  0  0  0  0 
  9 10  1  0  0  0  0 
  8 11  1  0  0  0  0 
 11 12  1  0  0  0  0 
 11 13  1  0  0  0  0 
 13 14  2  0  0  0  0 
 14 15  1  0  0  0  0 
 14 16  1  0  0  0  0 
 16 17  1  0  0  0  0 
 16 18  2  0  0  0  0 
 18 19  1  0  0  0  0 
 19 20  1  0  0  0  0 
 19 21  2  0  0  0  0 
 13 21  1  0  0  0  0 
 21 22  1  0  0  0  0 
 18 23  1  0  0  0  0 
 11 24  1  0  0  0  0 
 24 25  1  0  0  0  0 
 25 26  1  0  0  0  0 
 25 27  1  0  0  0  0 
 25 28  1  0  0  0  0 
 28 29  1  0  0  0  0 
 28 30  1  0  0  0  0 
 28 31  1  0  0  0  0 
 31 32  1  0  0  0  0 
 32 33  1  0  0  0  0 
 32 34  1  0  0  0  0 
 32 35  1  0  0  0  0 
 24 35  1  0  0  0  0 
 35 36  1  0  0  0  0 
 35 37  1  0  0  0  0 
 31 38  1  0  0  0  0 
 38 39  1  0  0  0  0 
 38 40  1  0  0  0  0 
 38 41  1  0  0  0  0 
 41 42  1  0  0  0  0 
 41 43  1  0  0  0  0 
 41 44  1  0  0  0  0 
 44 45  1  0  0  0  0 
 45 46  1  0  0  0  0 
 45 47  1  0  0  0  0 
 45 48  1  0  0  0  0 
 48 49  1  0  0  0  0 
 48 50  1  0  0  0  0 
 48 51  1  0  0  0  0 
 51 52  1  0  0  0  0 
  5 53  1  0  0  0  0 
 53 54  1  0  0  0  0 
M  END
> <Rank>
15

> <Priority_score>
0.2469692437574262

> <Reaction_type>
aromatic_hydroxylation_(meta_to_carbon)

> <Parent_ID>
85

> <Parent_InChI>
InChI=1S/C21H27ClN2O2/c22-20-8-6-19(7-9-20)21(18-4-2-1-3-5-18)24-12-10-23(11-13-24)14-16-26-17-15-25/h1-9,21,25H,10-17H2

> <Parent_SMILES>
OCCOCCN1CCN(C(c2ccccc2)c2ccc(Cl)cc2)CC1

$$$$
Molecule 85_metabolite 16
  CDK     0516241031

 54 56  0  0  0  0  0  0  0  0999 V2000
    1.3968    3.0707    0.0000 C   0  0  0  0  0  0  0  0  0  0  0  0
   -0.1032    3.0753    0.0000 H   0  0  0  0  0  0  0  0  0  0  0  0
    2.1500    1.7625    0.0000 C   0  0  0  0  0  0  0  0  0  0  0  0
    3.6335    1.7648    0.0000 C   0  0  0  0  0  0  0  0  0  0  0  0
    4.3814    0.4645    0.0000 H   0  0  0  0  0  0  0  0  0  0  0  0
    4.3898    3.0602    0.0000 C   0  0  0  0  0  0  0  0  0  0  0  0
    5.8897    3.0437    0.0000 H   0  0  0  0  0  0  0  0  0  0  0  0
    3.6676    4.3619    0.0000 C   0  0  0  0  0  0  0  0  0  0  0  0
    2.1531    4.3661    0.0000 C   0  0  0  0  0  0  0  0  0  0  0  0
    1.4081    5.6680    0.0000 H   0  0  0  0  0  0  0  0  0  0  0  0
    4.4305    5.6534    0.0000 Cl  0  0  0  0  0  0  0  0  0  0  0  0
    1.4002    0.4633    0.0000 C   0  0  0  0  0  0  0  0  0  0  0  0
    0.2510    1.4273    0.0000 H   0  0  0  0  0  0  0  0  0  0  0  0
   -0.3144   -0.5269    0.0000 C   0  0  0  0  0  0  0  0  0  0  0  0
   -0.3068   -2.0269    0.0000 C   0  0  0  0  0  0  0  0  0  0  0  0
    0.9997   -2.7639    0.0000 H   0  0  0  0  0  0  0  0  0  0  0  0
   -1.5729   -2.7834    0.0000 C   0  0  0  0  0  0  0  0  0  0  0  0
   -1.5456   -4.2831    0.0000 H   0  0  0  0  0  0  0  0  0  0  0  0
   -2.9267   -2.0402    0.0000 C   0  0  0  0  0  0  0  0  0  0  0  0
   -2.9344   -0.5402    0.0000 C   0  0  0  0  0  0  0  0  0  0  0  0
   -4.2310    0.2139    0.0000 H   0  0  0  0  0  0  0  0  0  0  0  0
   -1.5882    0.2166    0.0000 C   0  0  0  0  0  0  0  0  0  0  0  0
   -1.5760    1.7166    0.0000 H   0  0  0  0  0  0  0  0  0  0  0  0
   -4.2157   -2.8075    0.0000 O   0  0  0  0  0  0  0  0  0  0  0  0
   -5.5246   -2.0749    0.0000 H   0  0  0  0  0  0  0  0  0  0  0  0
    2.6305   -1.6669    0.0000 N   0  0  0  0  0  0  0  0  0  0  0  0
    1.8805   -2.9669    0.0000 C   0  0  0  0  0  0  0  0  0  0  0  0
    1.1304   -1.6679    0.0000 H   0  0  0  0  0  0  0  0  0  0  0  0
   -0.0041   -4.5479    0.0000 H   0  0  0  0  0  0  0  0  0  0  0  0
    2.6305   -4.2669    0.0000 C   0  0  0  0  0  0  0  0  0  0  0  0
    1.2209   -4.7796    0.0000 H   0  0  0  0  0  0  0  0  0  0  0  0
    2.8908   -5.7441    0.0000 H   0  0  0  0  0  0  0  0  0  0  0  0
    4.1305   -4.2669    0.0000 N   0  0  0  0  0  0  0  0  0  0  0  0
    4.8805   -2.9669    0.0000 C   0  0  0  0  0  0  0  0  0  0  0  0
    6.0297   -3.9309    0.0000 H   0  0  0  0  0  0  0  0  0  0  0  0
    6.0297   -2.0028    0.0000 H   0  0  0  0  0  0  0  0  0  0  0  0
    4.1305   -1.6669    0.0000 C   0  0  0  0  0  0  0  0  0  0  0  0
    5.5402   -1.1542    0.0000 H   0  0  0  0  0  0  0  0  0  0  0  0
    3.8702   -0.1896    0.0000 H   0  0  0  0  0  0  0  0  0  0  0  0
    5.1208   -5.9815    0.0000 C   0  0  0  0  0  0  0  0  0  0  0  0
    3.7113   -6.4947    0.0000 H   0  0  0  0  0  0  0  0  0  0  0  0
    5.3815   -7.4586    0.0000 H   0  0  0  0  0  0  0  0  0  0  0  0
    6.6208   -5.9812    0.0000 C   0  0  0  0  0  0  0  0  0  0  0  0
    8.0304   -6.4940    0.0000 H   0  0  0  0  0  0  0  0  0  0  0  0
    6.3606   -7.4585    0.0000 H   0  0  0  0  0  0  0  0  0  0  0  0
    7.3706   -4.6821    0.0000 O   0  0  0  0  0  0  0  0  0  0  0  0
    9.3506   -4.6817    0.0000 C   0  0  0  0  0  0  0  0  0  0  0  0
   10.7602   -5.1945    0.0000 H   0  0  0  0  0  0  0  0  0  0  0  0
    9.0904   -6.1590    0.0000 H   0  0  0  0  0  0  0  0  0  0  0  0
   10.1004   -3.3826    0.0000 C   0  0  0  0  0  0  0  0  0  0  0  0
    8.6908   -2.8698    0.0000 H   0  0  0  0  0  0  0  0  0  0  0  0
   10.3606   -1.9053    0.0000 H   0  0  0  0  0  0  0  0  0  0  0  0
   11.6004   -3.3823    0.0000 O   0  0  0  0  0  0  0  0  0  0  0  0
   12.3502   -2.0832    0.0000 H   0  0  0  0  0  0  0  0  0  0  0  0
  1  2  1  0  0  0  0 
  1  3  2  0  0  0  0 
  3  4  1  0  0  0  0 
  4  5  1  0  0  0  0 
  4  6  2  0  0  0  0 
  6  7  1  0  0  0  0 
  6  8  1  0  0  0  0 
  8  9  2  0  0  0  0 
  1  9  1  0  0  0  0 
  9 10  1  0  0  0  0 
  8 11  1  0  0  0  0 
  3 12  1  0  0  0  0 
 12 13  1  0  0  0  0 
 12 14  1  0  0  0  0 
 14 15  2  0  0  0  0 
 15 16  1  0  0  0  0 
 15 17  1  0  0  0  0 
 17 18  1  0  0  0  0 
 17 19  2  0  0  0  0 
 19 20  1  0  0  0  0 
 20 21  1  0  0  0  0 
 20 22  2  0  0  0  0 
 14 22  1  0  0  0  0 
 22 23  1  0  0  0  0 
 19 24  1  0  0  0  0 
 24 25  1  0  0  0  0 
 12 26  1  0  0  0  0 
 26 27  1  0  0  0  0 
 27 28  1  0  0  0  0 
 27 29  1  0  0  0  0 
 27 30  1  0  0  0  0 
 30 31  1  0  0  0  0 
 30 32  1  0  0  0  0 
 30 33  1  0  0  0  0 
 33 34  1  0  0  0  0 
 34 35  1  0  0  0  0 
 34 36  1  0  0  0  0 
 34 37  1  0  0  0  0 
 26 37  1  0  0  0  0 
 37 38  1  0  0  0  0 
 37 39  1  0  0  0  0 
 33 40  1  0  0  0  0 
 40 41  1  0  0  0  0 
 40 42  1  0  0  0  0 
 40 43  1  0  0  0  0 
 43 44  1  0  0  0  0 
 43 45  1  0  0  0  0 
 43 46  1  0  0  0  0 
 46 47  1  0  0  0  0 
 47 48  1  0  0  0  0 
 47 49  1  0  0  0  0 
 47 50  1  0  0  0  0 
 50 51  1  0  0  0  0 
 50 52  1  0  0  0  0 
 50 53  1  0  0  0  0 
 53 54  1  0  0  0  0 
M  END
> <Rank>
15

> <Priority_score>
0.2469692437574262

> <Reaction_type>
aromatic_hydroxylation_(para_to_carbon)

> <Parent_ID>
85

> <Parent_InChI>
InChI=1S/C21H27ClN2O2/c22-20-8-6-19(7-9-20)21(18-4-2-1-3-5-18)24-12-10-23(11-13-24)14-16-26-17-15-25/h1-9,21,25H,10-17H2

> <Parent_SMILES>
OCCOCCN1CCN(C(c2ccccc2)c2ccc(Cl)cc2)CC1

$$$$
Molecule 85_metabolite 17
  CDK     0516241031

 54 56  0  0  0  0  0  0  0  0999 V2000
    3.6388    4.3580    0.0000 C   0  0  0  0  0  0  0  0  0  0  0  0
    4.3886    5.6571    0.0000 H   0  0  0  0  0  0  0  0  0  0  0  0
    2.1380    4.3582    0.0000 C   0  0  0  0  0  0  0  0  0  0  0  0
    1.3880    5.6573    0.0000 H   0  0  0  0  0  0  0  0  0  0  0  0
    1.3882    3.0591    0.0000 C   0  0  0  0  0  0  0  0  0  0  0  0
   -0.1118    3.0586    0.0000 H   0  0  0  0  0  0  0  0  0  0  0  0
    2.1393    1.7597    0.0000 C   0  0  0  0  0  0  0  0  0  0  0  0
    3.6401    1.7594    0.0000 C   0  0  0  0  0  0  0  0  0  0  0  0
    4.3901    0.4604    0.0000 H   0  0  0  0  0  0  0  0  0  0  0  0
    4.3899    3.0586    0.0000 C   0  0  0  0  0  0  0  0  0  0  0  0
    5.8899    3.0591    0.0000 H   0  0  0  0  0  0  0  0  0  0  0  0
    1.3895    0.4605    0.0000 C   0  0  0  0  0  0  0  0  0  0  0  0
    0.2403    1.4245    0.0000 H   0  0  0  0  0  0  0  0  0  0  0  0
   -0.3251   -0.5298    0.0000 C   0  0  0  0  0  0  0  0  0  0  0  0
   -0.3251   -2.0306    0.0000 C   0  0  0  0  0  0  0  0  0  0  0  0
    0.9742   -2.7802    0.0000 H   0  0  0  0  0  0  0  0  0  0  0  0
   -1.6244   -2.7819    0.0000 C   0  0  0  0  0  0  0  0  0  0  0  0
   -1.6237   -4.2819    0.0000 H   0  0  0  0  0  0  0  0  0  0  0  0
   -2.9237   -2.0323    0.0000 C   0  0  0  0  0  0  0  0  0  0  0  0
   -2.9237   -0.5314    0.0000 C   0  0  0  0  0  0  0  0  0  0  0  0
   -1.6244    0.2198    0.0000 C   0  0  0  0  0  0  0  0  0  0  0  0
   -1.6251    1.7198    0.0000 H   0  0  0  0  0  0  0  0  0  0  0  0
   -4.2229    0.2181    0.0000 O   0  0  0  0  0  0  0  0  0  0  0  0
   -5.5217   -0.5323    0.0000 H   0  0  0  0  0  0  0  0  0  0  0  0
   -4.2226   -2.7825    0.0000 Cl  0  0  0  0  0  0  0  0  0  0  0  0
    2.6198   -1.6697    0.0000 N   0  0  0  0  0  0  0  0  0  0  0  0
    1.8698   -2.9697    0.0000 C   0  0  0  0  0  0  0  0  0  0  0  0
    1.1197   -1.6708    0.0000 H   0  0  0  0  0  0  0  0  0  0  0  0
   -0.0148   -4.5508    0.0000 H   0  0  0  0  0  0  0  0  0  0  0  0
    2.6198   -4.2697    0.0000 C   0  0  0  0  0  0  0  0  0  0  0  0
    1.2102   -4.7825    0.0000 H   0  0  0  0  0  0  0  0  0  0  0  0
    2.8801   -5.7470    0.0000 H   0  0  0  0  0  0  0  0  0  0  0  0
    4.1198   -4.2697    0.0000 N   0  0  0  0  0  0  0  0  0  0  0  0
    4.8698   -2.9697    0.0000 C   0  0  0  0  0  0  0  0  0  0  0  0
    6.0190   -3.9338    0.0000 H   0  0  0  0  0  0  0  0  0  0  0  0
    6.0190   -2.0057    0.0000 H   0  0  0  0  0  0  0  0  0  0  0  0
    4.1198   -1.6697    0.0000 C   0  0  0  0  0  0  0  0  0  0  0  0
    5.5295   -1.1570    0.0000 H   0  0  0  0  0  0  0  0  0  0  0  0
    3.8595   -0.1925    0.0000 H   0  0  0  0  0  0  0  0  0  0  0  0
    5.1101   -5.9843    0.0000 C   0  0  0  0  0  0  0  0  0  0  0  0
    3.7006   -6.4976    0.0000 H   0  0  0  0  0  0  0  0  0  0  0  0
    5.3708   -7.4615    0.0000 H   0  0  0  0  0  0  0  0  0  0  0  0
    6.6101   -5.9841    0.0000 C   0  0  0  0  0  0  0  0  0  0  0  0
    8.0197   -6.4969    0.0000 H   0  0  0  0  0  0  0  0  0  0  0  0
    6.3499   -7.4613    0.0000 H   0  0  0  0  0  0  0  0  0  0  0  0
    7.3599   -4.6849    0.0000 O   0  0  0  0  0  0  0  0  0  0  0  0
    9.3399   -4.6846    0.0000 C   0  0  0  0  0  0  0  0  0  0  0  0
   10.7495   -5.1974    0.0000 H   0  0  0  0  0  0  0  0  0  0  0  0
    9.0796   -6.1618    0.0000 H   0  0  0  0  0  0  0  0  0  0  0  0
   10.0897   -3.3854    0.0000 C   0  0  0  0  0  0  0  0  0  0  0  0
    8.6801   -2.8726    0.0000 H   0  0  0  0  0  0  0  0  0  0  0  0
   10.3499   -1.9082    0.0000 H   0  0  0  0  0  0  0  0  0  0  0  0
   11.5897   -3.3852    0.0000 O   0  0  0  0  0  0  0  0  0  0  0  0
   12.3395   -2.0860    0.0000 H   0  0  0  0  0  0  0  0  0  0  0  0
  1  2  1  0  0  0  0 
  1  3  2  0  0  0  0 
  3  4  1  0  0  0  0 
  3  5  1  0  0  0  0 
  5  6  1  0  0  0  0 
  5  7  2  0  0  0  0 
  7  8  1  0  0  0  0 
  8  9  1  0  0  0  0 
  8 10  2  0  0  0  0 
  1 10  1  0  0  0  0 
 10 11  1  0  0  0  0 
  7 12  1  0  0  0  0 
 12 13  1  0  0  0  0 
 12 14  1  0  0  0  0 
 14 15  2  0  0  0  0 
 15 16  1  0  0  0  0 
 15 17  1  0  0  0  0 
 17 18  1  0  0  0  0 
 17 19  2  0  0  0  0 
 19 20  1  0  0  0  0 
 20 21  2  0  0  0  0 
 14 21  1  0  0  0  0 
 21 22  1  0  0  0  0 
 20 23  1  0  0  0  0 
 23 24  1  0  0  0  0 
 19 25  1  0  0  0  0 
 12 26  1  0  0  0  0 
 26 27  1  0  0  0  0 
 27 28  1  0  0  0  0 
 27 29  1  0  0  0  0 
 27 30  1  0  0  0  0 
 30 31  1  0  0  0  0 
 30 32  1  0  0  0  0 
 30 33  1  0  0  0  0 
 33 34  1  0  0  0  0 
 34 35  1  0  0  0  0 
 34 36  1  0  0  0  0 
 34 37  1  0  0  0  0 
 26 37  1  0  0  0  0 
 37 38  1  0  0  0  0 
 37 39  1  0  0  0  0 
 33 40  1  0  0  0  0 
 40 41  1  0  0  0  0 
 40 42  1  0  0  0  0 
 40 43  1  0  0  0  0 
 43 44  1  0  0  0  0 
 43 45  1  0  0  0  0 
 43 46  1  0  0  0  0 
 46 47  1  0  0  0  0 
 47 48  1  0  0  0  0 
 47 49  1  0  0  0  0 
 47 50  1  0  0  0  0 
 50 51  1  0  0  0  0 
 50 52  1  0  0  0  0 
 50 53  1  0  0  0  0 
 53 54  1  0  0  0  0 
M  END
> <Rank>
15

> <Priority_score>
0.2469692437574262

> <Reaction_type>
aromatic_hydroxylation_(meta_to_carbon)

> <Parent_ID>
85

> <Parent_InChI>
InChI=1S/C21H27ClN2O2/c22-20-8-6-19(7-9-20)21(18-4-2-1-3-5-18)24-12-10-23(11-13-24)14-16-26-17-15-25/h1-9,21,25H,10-17H2

> <Parent_SMILES>
OCCOCCN1CCN(C(c2ccccc2)c2ccc(Cl)cc2)CC1

$$$$
Molecule 85_metabolite 18
  CDK     0516241031

 54 56  0  0  0  0  0  0  0  0999 V2000
   -5.7150   -5.5000    0.0000 C   0  0  0  0  0  0  0  0  0  0  0  0
   -5.9753   -6.9773    0.0000 H   0  0  0  0  0  0  0  0  0  0  0  0
   -4.3046   -4.9870    0.0000 C   0  0  0  0  0  0  0  0  0  0  0  0
   -3.1556   -5.9513    0.0000 H   0  0  0  0  0  0  0  0  0  0  0  0
   -4.0443   -3.5098    0.0000 C   0  0  0  0  0  0  0  0  0  0  0  0
   -2.6349   -2.9964    0.0000 H   0  0  0  0  0  0  0  0  0  0  0  0
   -5.1944   -2.5455    0.0000 C   0  0  0  0  0  0  0  0  0  0  0  0
   -6.6048   -3.0586    0.0000 C   0  0  0  0  0  0  0  0  0  0  0  0
   -7.7538   -2.0943    0.0000 H   0  0  0  0  0  0  0  0  0  0  0  0
   -6.8651   -4.5358    0.0000 C   0  0  0  0  0  0  0  0  0  0  0  0
   -8.2745   -5.0492    0.0000 H   0  0  0  0  0  0  0  0  0  0  0  0
   -4.9341   -1.0683    0.0000 C   0  0  0  0  0  0  0  0  0  0  0  0
   -5.1947    0.4089    0.0000 H   0  0  0  0  0  0  0  0  0  0  0  0
   -7.8741   -1.0686    0.0000 C   0  0  0  0  0  0  0  0  0  0  0  0
   -8.6178    0.2151    0.0000 C   0  0  0  0  0  0  0  0  0  0  0  0
   -7.8655    1.5128    0.0000 H   0  0  0  0  0  0  0  0  0  0  0  0
  -10.1177    0.2224    0.0000 C   0  0  0  0  0  0  0  0  0  0  0  0
  -10.8534    1.5297    0.0000 H   0  0  0  0  0  0  0  0  0  0  0  0
  -10.8840   -1.0538    0.0000 C   0  0  0  0  0  0  0  0  0  0  0  0
  -10.1305   -2.3675    0.0000 C   0  0  0  0  0  0  0  0  0  0  0  0
  -10.8855   -3.6637    0.0000 H   0  0  0  0  0  0  0  0  0  0  0  0
   -8.6305   -2.3749    0.0000 C   0  0  0  0  0  0  0  0  0  0  0  0
   -7.8845   -3.6763    0.0000 H   0  0  0  0  0  0  0  0  0  0  0  0
  -12.3840   -1.0389    0.0000 Cl  0  0  0  0  0  0  0  0  0  0  0  0
   -2.1715   -0.0625    0.0000 N   0  0  0  0  0  0  0  0  0  0  0  0
   -2.9223    1.2370    0.0000 C   0  0  0  0  0  0  0  0  0  0  0  0
   -4.0715    2.2011    0.0000 H   0  0  0  0  0  0  0  0  0  0  0  0
   -4.8064   -0.3446    0.0000 H   0  0  0  0  0  0  0  0  0  0  0  0
   -2.1723    2.5361    0.0000 C   0  0  0  0  0  0  0  0  0  0  0  0
   -1.9115    4.0132    0.0000 H   0  0  0  0  0  0  0  0  0  0  0  0
   -3.5818    3.0493    0.0000 H   0  0  0  0  0  0  0  0  0  0  0  0
   -0.6715    2.5356    0.0000 N   0  0  0  0  0  0  0  0  0  0  0  0
    0.0794    1.2361    0.0000 C   0  0  0  0  0  0  0  0  0  0  0  0
    1.2285    0.2720    0.0000 H   0  0  0  0  0  0  0  0  0  0  0  0
    1.2282    2.2005    0.0000 H   0  0  0  0  0  0  0  0  0  0  0  0
   -0.6706   -0.0630    0.0000 C   0  0  0  0  0  0  0  0  0  0  0  0
   -0.9314   -1.5401    0.0000 H   0  0  0  0  0  0  0  0  0  0  0  0
    0.7388   -0.5761    0.0000 H   0  0  0  0  0  0  0  0  0  0  0  0
    0.3185    4.2503    0.0000 C   0  0  0  0  0  0  0  0  0  0  0  0
    0.5790    5.7275    0.0000 H   0  0  0  0  0  0  0  0  0  0  0  0
   -1.0910    4.7634    0.0000 H   0  0  0  0  0  0  0  0  0  0  0  0
    1.8185    4.2503    0.0000 C   0  0  0  0  0  0  0  0  0  0  0  0
    1.5581    5.7275    0.0000 H   0  0  0  0  0  0  0  0  0  0  0  0
    3.2281    4.7634    0.0000 H   0  0  0  0  0  0  0  0  0  0  0  0
    2.5685    2.9513    0.0000 O   0  0  0  0  0  0  0  0  0  0  0  0
    4.5485    2.9513    0.0000 C   0  0  0  0  0  0  0  0  0  0  0  0
    4.2881    4.4285    0.0000 H   0  0  0  0  0  0  0  0  0  0  0  0
    5.9581    3.4643    0.0000 H   0  0  0  0  0  0  0  0  0  0  0  0
    5.2985    1.6523    0.0000 C   0  0  0  0  0  0  0  0  0  0  0  0
    5.5590    0.1750    0.0000 H   0  0  0  0  0  0  0  0  0  0  0  0
    3.8890    1.1392    0.0000 H   0  0  0  0  0  0  0  0  0  0  0  0
    6.7985    1.6523    0.0000 O   0  0  0  0  0  0  0  0  0  0  0  0
    7.5485    0.3532    0.0000 H   0  0  0  0  0  0  0  0  0  0  0  0
   -1.9112   -1.5397    0.0000 O   0  0  0  0  0  0  0  0  0  0  0  0
  1  2  1  0  0  0  0 
  1  3  2  0  0  0  0 
  3  4  1  0  0  0  0 
  3  5  1  0  0  0  0 
  5  6  1  0  0  0  0 
  5  7  2  0  0  0  0 
  7  8  1  0  0  0  0 
  8  9  1  0  0  0  0 
  8 10  2  0  0  0  0 
  1 10  1  0  0  0  0 
 10 11  1  0  0  0  0 
  7 12  1  0  0  0  0 
 12 13  1  0  0  0  0 
 12 14  1  0  0  0  0 
 14 15  2  0  0  0  0 
 15 16  1  0  0  0  0 
 15 17  1  0  0  0  0 
 17 18  1  0  0  0  0 
 17 19  2  0  0  0  0 
 19 20  1  0  0  0  0 
 20 21  1  0  0  0  0 
 20 22  2  0  0  0  0 
 14 22  1  0  0  0  0 
 22 23  1  0  0  0  0 
 19 24  1  0  0  0  0 
 12 25  1  0  0  0  0 
 25 26  1  0  0  0  0 
 26 27  1  0  0  0  0 
 26 28  1  0  0  0  0 
 26 29  1  0  0  0  0 
 29 30  1  0  0  0  0 
 29 31  1  0  0  0  0 
 29 32  1  0  0  0  0 
 32 33  1  0  0  0  0 
 33 34  1  0  0  0  0 
 33 35  1  0  0  0  0 
 33 36  1  0  0  0  0 
 25 36  1  0  0  0  0 
 36 37  1  0  0  0  0 
 36 38  1  0  0  0  0 
 32 39  1  0  0  0  0 
 39 40  1  0  0  0  0 
 39 41  1  0  0  0  0 
 39 42  1  0  0  0  0 
 42 43  1  0  0  0  0 
 42 44  1  0  0  0  0 
 42 45  1  0  0  0  0 
 45 46  1  0  0  0  0 
 46 47  1  0  0  0  0 
 46 48  1  0  0  0  0 
 46 49  1  0  0  0  0 
 49 50  1  0  0  0  0 
 49 51  1  0  0  0  0 
 49 52  1  0  0  0  0 
 52 53  1  0  0  0  0 
 25 54  1  0  0  0  0 
M  CHG  1  25   1
M  CHG  1  54  -1
M  END
> <Rank>
15

> <Priority_score>
0.2469692437574262

> <Reaction_type>
N-oxidation_(tertiary_N)

> <Parent_ID>
85

> <Parent_InChI>
InChI=1S/C21H27ClN2O2/c22-20-8-6-19(7-9-20)21(18-4-2-1-3-5-18)24-12-10-23(11-13-24)14-16-26-17-15-25/h1-9,21,25H,10-17H2

> <Parent_SMILES>
OCCOCCN1CCN(C(c2ccccc2)c2ccc(Cl)cc2)CC1

$$$$
Molecule 85_metabolite 19
  CDK     0516241031

 54 56  0  0  0  0  0  0  0  0999 V2000
   -6.6163    1.3857    0.0000 C   0  0  0  0  0  0  0  0  0  0  0  0
   -8.1163    1.3854    0.0000 H   0  0  0  0  0  0  0  0  0  0  0  0
   -5.8661    0.0858    0.0000 C   0  0  0  0  0  0  0  0  0  0  0  0
   -6.6161   -1.2132    0.0000 H   0  0  0  0  0  0  0  0  0  0  0  0
   -4.3661    0.0860    0.0000 C   0  0  0  0  0  0  0  0  0  0  0  0
   -3.6157   -1.2128    0.0000 H   0  0  0  0  0  0  0  0  0  0  0  0
   -3.6163    1.3862    0.0000 C   0  0  0  0  0  0  0  0  0  0  0  0
   -4.3665    2.6860    0.0000 C   0  0  0  0  0  0  0  0  0  0  0  0
   -3.6165    3.9851    0.0000 H   0  0  0  0  0  0  0  0  0  0  0  0
   -5.8665    2.6858    0.0000 C   0  0  0  0  0  0  0  0  0  0  0  0
   -6.6169    3.9846    0.0000 H   0  0  0  0  0  0  0  0  0  0  0  0
   -1.1563    1.3866    0.0000 C   0  0  0  0  0  0  0  0  0  0  0  0
   -1.4165   -0.0907    0.0000 C   0  0  0  0  0  0  0  0  0  0  0  0
   -2.8098   -0.6003    0.0000 C   0  0  0  0  0  0  0  0  0  0  0  0
   -3.7721    0.5504    0.0000 H   0  0  0  0  0  0  0  0  0  0  0  0
   -3.0775   -2.0762    0.0000 C   0  0  0  0  0  0  0  0  0  0  0  0
   -4.4925   -2.5737    0.0000 H   0  0  0  0  0  0  0  0  0  0  0  0
   -1.9536   -3.0524    0.0000 C   0  0  0  0  0  0  0  0  0  0  0  0
   -0.5290   -2.5383    0.0000 C   0  0  0  0  0  0  0  0  0  0  0  0
    0.6164   -3.5069    0.0000 H   0  0  0  0  0  0  0  0  0  0  0  0
   -0.2614   -1.0624    0.0000 C   0  0  0  0  0  0  0  0  0  0  0  0
    1.6013   -0.3909    0.0000 H   0  0  0  0  0  0  0  0  0  0  0  0
   -2.2287   -4.5270    0.0000 Cl  0  0  0  0  0  0  0  0  0  0  0  0
   -0.1666    3.1014    0.0000 N   0  0  0  0  0  0  0  0  0  0  0  0
    1.3343    3.1019    0.0000 C   0  0  0  0  0  0  0  0  0  0  0  0
    1.0740    1.6247    0.0000 H   0  0  0  0  0  0  0  0  0  0  0  0
    2.7438    2.5887    0.0000 H   0  0  0  0  0  0  0  0  0  0  0  0
    2.0851    4.4014    0.0000 C   0  0  0  0  0  0  0  0  0  0  0  0
    3.2340    3.4370    0.0000 H   0  0  0  0  0  0  0  0  0  0  0  0
    3.2343    5.3655    0.0000 H   0  0  0  0  0  0  0  0  0  0  0  0
    1.3351    5.7005    0.0000 N   0  0  0  0  0  0  0  0  0  0  0  0
   -0.1657    5.7000    0.0000 C   0  0  0  0  0  0  0  0  0  0  0  0
    0.0946    7.1772    0.0000 H   0  0  0  0  0  0  0  0  0  0  0  0
   -1.5752    6.2132    0.0000 H   0  0  0  0  0  0  0  0  0  0  0  0
   -0.9166    4.4005    0.0000 C   0  0  0  0  0  0  0  0  0  0  0  0
   -2.0654    5.3649    0.0000 H   0  0  0  0  0  0  0  0  0  0  0  0
   -2.0657    3.4364    0.0000 H   0  0  0  0  0  0  0  0  0  0  0  0
    2.3248    7.4154    0.0000 C   0  0  0  0  0  0  0  0  0  0  0  0
    2.5851    8.8926    0.0000 H   0  0  0  0  0  0  0  0  0  0  0  0
    0.9152    7.9282    0.0000 H   0  0  0  0  0  0  0  0  0  0  0  0
    3.8248    7.4156    0.0000 C   0  0  0  0  0  0  0  0  0  0  0  0
    3.5641    8.8928    0.0000 H   0  0  0  0  0  0  0  0  0  0  0  0
    5.2343    7.9289    0.0000 H   0  0  0  0  0  0  0  0  0  0  0  0
    4.5750    6.1167    0.0000 O   0  0  0  0  0  0  0  0  0  0  0  0
    6.5550    6.1170    0.0000 C   0  0  0  0  0  0  0  0  0  0  0  0
    6.2943    7.5942    0.0000 H   0  0  0  0  0  0  0  0  0  0  0  0
    7.9645    6.6303    0.0000 H   0  0  0  0  0  0  0  0  0  0  0  0
    7.3052    4.8181    0.0000 C   0  0  0  0  0  0  0  0  0  0  0  0
    7.5660    3.3409    0.0000 H   0  0  0  0  0  0  0  0  0  0  0  0
    5.8958    4.3048    0.0000 H   0  0  0  0  0  0  0  0  0  0  0  0
    8.8052    4.8183    0.0000 O   0  0  0  0  0  0  0  0  0  0  0  0
    9.5555    3.5194    0.0000 H   0  0  0  0  0  0  0  0  0  0  0  0
    0.2533    0.8737    0.0000 O   0  0  0  0  0  0  0  0  0  0  0  0
    0.5140   -0.6034    0.0000 H   0  0  0  0  0  0  0  0  0  0  0  0
  1  2  1  0  0  0  0 
  1  3  2  0  0  0  0 
  3  4  1  0  0  0  0 
  3  5  1  0  0  0  0 
  5  6  1  0  0  0  0 
  5  7  2  0  0  0  0 
  7  8  1  0  0  0  0 
  8  9  1  0  0  0  0 
  8 10  2  0  0  0  0 
  1 10  1  0  0  0  0 
 10 11  1  0  0  0  0 
  7 12  1  0  0  0  0 
 12 13  1  0  0  0  0 
 13 14  2  0  0  0  0 
 14 15  1  0  0  0  0 
 14 16  1  0  0  0  0 
 16 17  1  0  0  0  0 
 16 18  2  0  0  0  0 
 18 19  1  0  0  0  0 
 19 20  1  0  0  0  0 
 19 21  2  0  0  0  0 
 13 21  1  0  0  0  0 
 21 22  1  0  0  0  0 
 18 23  1  0  0  0  0 
 12 24  1  0  0  0  0 
 24 25  1  0  0  0  0 
 25 26  1  0  0  0  0 
 25 27  1  0  0  0  0 
 25 28  1  0  0  0  0 
 28 29  1  0  0  0  0 
 28 30  1  0  0  0  0 
 28 31  1  0  0  0  0 
 31 32  1  0  0  0  0 
 32 33  1  0  0  0  0 
 32 34  1  0  0  0  0 
 32 35  1  0  0  0  0 
 24 35  1  0  0  0  0 
 35 36  1  0  0  0  0 
 35 37  1  0  0  0  0 
 31 38  1  0  0  0  0 
 38 39  1  0  0  0  0 
 38 40  1  0  0  0  0 
 38 41  1  0  0  0  0 
 41 42  1  0  0  0  0 
 41 43  1  0  0  0  0 
 41 44  1  0  0  0  0 
 44 45  1  0  0  0  0 
 45 46  1  0  0  0  0 
 45 47  1  0  0  0  0 
 45 48  1  0  0  0  0 
 48 49  1  0  0  0  0 
 48 50  1  0  0  0  0 
 48 51  1  0  0  0  0 
 51 52  1  0  0  0  0 
 12 53  1  0  0  0  0 
 53 54  1  0  0  0  0 
M  END
> <Rank>
15

> <Priority_score>
0.2469692437574262

> <Reaction_type>
aliphatic hydroxylation

> <Parent_ID>
85

> <Parent_InChI>
InChI=1S/C21H27ClN2O2/c22-20-8-6-19(7-9-20)21(18-4-2-1-3-5-18)24-12-10-23(11-13-24)14-16-26-17-15-25/h1-9,21,25H,10-17H2

> <Parent_SMILES>
OCCOCCN1CCN(C(c2ccccc2)c2ccc(Cl)cc2)CC1

$$$$
Molecule 85_metabolite 20
  CDK     0516241031

 24 25  0  0  0  0  0  0  0  0999 V2000
   -3.9050    3.3179    0.0000 C   0  0  0  0  0  0  0  0  0  0  0  0
   -5.2040    2.5679    0.0000 H   0  0  0  0  0  0  0  0  0  0  0  0
   -3.9055    4.8187    0.0000 C   0  0  0  0  0  0  0  0  0  0  0  0
   -5.2046    5.5685    0.0000 H   0  0  0  0  0  0  0  0  0  0  0  0
   -2.6064    5.5687    0.0000 C   0  0  0  0  0  0  0  0  0  0  0  0
   -2.6062    7.0687    0.0000 H   0  0  0  0  0  0  0  0  0  0  0  0
   -1.3069    4.8179    0.0000 C   0  0  0  0  0  0  0  0  0  0  0  0
   -1.3064    3.3171    0.0000 C   0  0  0  0  0  0  0  0  0  0  0  0
   -0.0073    2.5673    0.0000 H   0  0  0  0  0  0  0  0  0  0  0  0
   -2.6055    2.5671    0.0000 C   0  0  0  0  0  0  0  0  0  0  0  0
   -2.6057    1.0671    0.0000 H   0  0  0  0  0  0  0  0  0  0  0  0
    0.8235    6.0479    0.0000 C   0  0  0  0  0  0  0  0  0  0  0  0
    0.8235    7.5479    0.0000 O   0  0  0  0  0  0  0  0  0  0  0  0
    2.1226    5.2979    0.0000 C   0  0  0  0  0  0  0  0  0  0  0  0
    2.1246    3.8144    0.0000 C   0  0  0  0  0  0  0  0  0  0  0  0
    0.8242    3.0667    0.0000 H   0  0  0  0  0  0  0  0  0  0  0  0
    3.4199    3.0579    0.0000 C   0  0  0  0  0  0  0  0  0  0  0  0
    3.4032    1.5579    0.0000 H   0  0  0  0  0  0  0  0  0  0  0  0
    4.7217    3.7798    0.0000 C   0  0  0  0  0  0  0  0  0  0  0  0
    4.7261    5.2943    0.0000 C   0  0  0  0  0  0  0  0  0  0  0  0
    6.0281    6.0392    0.0000 H   0  0  0  0  0  0  0  0  0  0  0  0
    3.4309    6.0508    0.0000 C   0  0  0  0  0  0  0  0  0  0  0  0
    3.4357    7.5508    0.0000 H   0  0  0  0  0  0  0  0  0  0  0  0
    6.0131    3.0168    0.0000 Cl  0  0  0  0  0  0  0  0  0  0  0  0
  1  2  1  0  0  0  0 
  1  3  2  0  0  0  0 
  3  4  1  0  0  0  0 
  3  5  1  0  0  0  0 
  5  6  1  0  0  0  0 
  5  7  2  0  0  0  0 
  7  8  1  0  0  0  0 
  8  9  1  0  0  0  0 
  8 10  2  0  0  0  0 
  1 10  1  0  0  0  0 
 10 11  1  0  0  0  0 
  7 12  1  0  0  0  0 
 12 13  2  0  0  0  0 
 12 14  1  0  0  0  0 
 14 15  2  0  0  0  0 
 15 16  1  0  0  0  0 
 15 17  1  0  0  0  0 
 17 18  1  0  0  0  0 
 17 19  2  0  0  0  0 
 19 20  1  0  0  0  0 
 20 21  1  0  0  0  0 
 20 22  2  0  0  0  0 
 14 22  1  0  0  0  0 
 22 23  1  0  0  0  0 
 19 24  1  0  0  0  0 
M  END
> <Rank>
15

> <Priority_score>
0.2469692437574262

> <Reaction_type>
N-dealkylation

> <Parent_ID>
85

> <Parent_InChI>
InChI=1S/C21H27ClN2O2/c22-20-8-6-19(7-9-20)21(18-4-2-1-3-5-18)24-12-10-23(11-13-24)14-16-26-17-15-25/h1-9,21,25H,10-17H2

> <Parent_SMILES>
OCCOCCN1CCN(C(c2ccccc2)c2ccc(Cl)cc2)CC1

$$$$
Molecule 85_metabolite 21
  CDK     0516241031

 30 30  0  0  0  0  0  0  0  0999 V2000
    1.3000   -1.2300    0.0000 C   0  0  0  0  0  0  0  0  0  0  0  0
    1.8127   -2.6396    0.0000 H   0  0  0  0  0  0  0  0  0  0  0  0
    2.7772   -0.9697    0.0000 H   0  0  0  0  0  0  0  0  0  0  0  0
    1.3000    0.2700    0.0000 C   0  0  0  0  0  0  0  0  0  0  0  0
    2.7772    0.0097    0.0000 H   0  0  0  0  0  0  0  0  0  0  0  0
    1.8127    1.6796    0.0000 H   0  0  0  0  0  0  0  0  0  0  0  0
   -0.0000    1.0200    0.0000 N   0  0  0  0  0  0  0  0  0  0  0  0
   -1.3000    0.2700    0.0000 C   0  0  0  0  0  0  0  0  0  0  0  0
   -1.8127    1.6796    0.0000 H   0  0  0  0  0  0  0  0  0  0  0  0
   -2.7772    0.0097    0.0000 H   0  0  0  0  0  0  0  0  0  0  0  0
   -1.3000   -1.2300    0.0000 C   0  0  0  0  0  0  0  0  0  0  0  0
   -2.7772   -0.9697    0.0000 H   0  0  0  0  0  0  0  0  0  0  0  0
   -1.8127   -2.6396    0.0000 H   0  0  0  0  0  0  0  0  0  0  0  0
   -0.0000   -1.9800    0.0000 N   0  0  0  0  0  0  0  0  0  0  0  0
   -0.0000   -3.4800    0.0000 H   0  0  0  0  0  0  0  0  0  0  0  0
    0.0000    3.0000    0.0000 C   0  0  0  0  0  0  0  0  0  0  0  0
    1.4772    2.7395    0.0000 H   0  0  0  0  0  0  0  0  0  0  0  0
    0.5130    4.4095    0.0000 H   0  0  0  0  0  0  0  0  0  0  0  0
   -1.2990    3.7500    0.0000 C   0  0  0  0  0  0  0  0  0  0  0  0
   -2.2632    4.8991    0.0000 H   0  0  0  0  0  0  0  0  0  0  0  0
   -0.3349    4.8991    0.0000 H   0  0  0  0  0  0  0  0  0  0  0  0
   -2.5981    3.0000    0.0000 O   0  0  0  0  0  0  0  0  0  0  0  0
   -4.3128    3.9900    0.0000 C   0  0  0  0  0  0  0  0  0  0  0  0
   -5.2770    5.1391    0.0000 H   0  0  0  0  0  0  0  0  0  0  0  0
   -3.3486    5.1391    0.0000 H   0  0  0  0  0  0  0  0  0  0  0  0
   -5.6118    3.2400    0.0000 C   0  0  0  0  0  0  0  0  0  0  0  0
   -4.6477    2.0909    0.0000 H   0  0  0  0  0  0  0  0  0  0  0  0
   -6.5760    2.0909    0.0000 H   0  0  0  0  0  0  0  0  0  0  0  0
   -6.9109    3.9900    0.0000 O   0  0  0  0  0  0  0  0  0  0  0  0
   -8.2099    3.2400    0.0000 H   0  0  0  0  0  0  0  0  0  0  0  0
  1  2  1  0  0  0  0 
  1  3  1  0  0  0  0 
  1  4  1  0  0  0  0 
  4  5  1  0  0  0  0 
  4  6  1  0  0  0  0 
  4  7  1  0  0  0  0 
  7  8  1  0  0  0  0 
  8  9  1  0  0  0  0 
  8 10  1  0  0  0  0 
  8 11  1  0  0  0  0 
 11 12  1  0  0  0  0 
 11 13  1  0  0  0  0 
 11 14  1  0  0  0  0 
  1 14  1  0  0  0  0 
 14 15  1  0  0  0  0 
  7 16  1  0  0  0  0 
 16 17  1  0  0  0  0 
 16 18  1  0  0  0  0 
 16 19  1  0  0  0  0 
 19 20  1  0  0  0  0 
 19 21  1  0  0  0  0 
 19 22  1  0  0  0  0 
 22 23  1  0  0  0  0 
 23 24  1  0  0  0  0 
 23 25  1  0  0  0  0 
 23 26  1  0  0  0  0 
 26 27  1  0  0  0  0 
 26 28  1  0  0  0  0 
 26 29  1  0  0  0  0 
 29 30  1  0  0  0  0 
M  END
> <Rank>
15

> <Priority_score>
0.2469692437574262

> <Reaction_type>
N-dealkylation

> <Parent_ID>
85

> <Parent_InChI>
InChI=1S/C21H27ClN2O2/c22-20-8-6-19(7-9-20)21(18-4-2-1-3-5-18)24-12-10-23(11-13-24)14-16-26-17-15-25/h1-9,21,25H,10-17H2

> <Parent_SMILES>
OCCOCCN1CCN(C(c2ccccc2)c2ccc(Cl)cc2)CC1

$$$$
Molecule 85_metabolite 22
  CDK     0516241031

 58 60  0  0  0  0  0  0  0  0999 V2000
   -1.8495   -3.4513    0.0000 C   0  0  0  0  0  0  0  0  0  0  0  0
   -3.1486   -4.2013    0.0000 H   0  0  0  0  0  0  0  0  0  0  0  0
   -0.8854   -2.3022    0.0000 H   0  0  0  0  0  0  0  0  0  0  0  0
   -2.8137   -2.3022    0.0000 H   0  0  0  0  0  0  0  0  0  0  0  0
   -0.5505   -4.2013    0.0000 O   0  0  0  0  0  0  0  0  0  0  0  0
    0.7485   -3.4513    0.0000 C   0  0  0  0  0  0  0  0  0  0  0  0
    2.0477   -4.2010    0.0000 C   0  0  0  0  0  0  0  0  0  0  0  0
    2.0482   -5.7010    0.0000 H   0  0  0  0  0  0  0  0  0  0  0  0
    3.3471   -3.4500    0.0000 C   0  0  0  0  0  0  0  0  0  0  0  0
    3.3473   -1.9492    0.0000 C   0  0  0  0  0  0  0  0  0  0  0  0
    4.6464   -1.1992    0.0000 H   0  0  0  0  0  0  0  0  0  0  0  0
    2.0482   -1.1994    0.0000 C   0  0  0  0  0  0  0  0  0  0  0  0
    2.0477    0.3006    0.0000 H   0  0  0  0  0  0  0  0  0  0  0  0
    0.7488   -1.9504    0.0000 C   0  0  0  0  0  0  0  0  0  0  0  0
   -0.5504   -1.2006    0.0000 O   0  0  0  0  0  0  0  0  0  0  0  0
   -1.8493   -1.9508    0.0000 H   0  0  0  0  0  0  0  0  0  0  0  0
    4.6463   -4.1998    0.0000 C   0  0  0  0  0  0  0  0  0  0  0  0
    3.6823   -5.3490    0.0000 H   0  0  0  0  0  0  0  0  0  0  0  0
    5.6365   -5.9144    0.0000 C   0  0  0  0  0  0  0  0  0  0  0  0
    4.8967   -7.2003    0.0000 C   0  0  0  0  0  0  0  0  0  0  0  0
    3.3968   -7.1978    0.0000 H   0  0  0  0  0  0  0  0  0  0  0  0
    5.6404   -8.5030    0.0000 C   0  0  0  0  0  0  0  0  0  0  0  0
    4.8762   -9.7937    0.0000 H   0  0  0  0  0  0  0  0  0  0  0  0
    7.1288   -8.5284    0.0000 C   0  0  0  0  0  0  0  0  0  0  0  0
    7.8897   -7.2189    0.0000 C   0  0  0  0  0  0  0  0  0  0  0  0
    9.3897   -7.2246    0.0000 H   0  0  0  0  0  0  0  0  0  0  0  0
    7.1460   -5.9162    0.0000 C   0  0  0  0  0  0  0  0  0  0  0  0
    7.9000   -4.6195    0.0000 H   0  0  0  0  0  0  0  0  0  0  0  0
    7.8659   -9.8348    0.0000 Cl  0  0  0  0  0  0  0  0  0  0  0  0
    6.7765   -2.9695    0.0000 N   0  0  0  0  0  0  0  0  0  0  0  0
    6.7765   -1.4686    0.0000 C   0  0  0  0  0  0  0  0  0  0  0  0
    5.2993   -1.7294    0.0000 H   0  0  0  0  0  0  0  0  0  0  0  0
    6.2628   -0.0593    0.0000 H   0  0  0  0  0  0  0  0  0  0  0  0
    8.0758   -0.7174    0.0000 C   0  0  0  0  0  0  0  0  0  0  0  0
    7.1110    0.4312    0.0000 H   0  0  0  0  0  0  0  0  0  0  0  0
    9.0394    0.4321    0.0000 H   0  0  0  0  0  0  0  0  0  0  0  0
    9.3750   -1.4670    0.0000 N   0  0  0  0  0  0  0  0  0  0  0  0
    9.3750   -2.9678    0.0000 C   0  0  0  0  0  0  0  0  0  0  0  0
   10.8522   -2.7070    0.0000 H   0  0  0  0  0  0  0  0  0  0  0  0
    9.8887   -4.3771    0.0000 H   0  0  0  0  0  0  0  0  0  0  0  0
    8.0758   -3.7190    0.0000 C   0  0  0  0  0  0  0  0  0  0  0  0
    9.6580   -5.6027    0.0000 H   0  0  0  0  0  0  0  0  0  0  0  0
    6.7770   -4.4696    0.0000 H   0  0  0  0  0  0  0  0  0  0  0  0
   11.0896   -0.4767    0.0000 C   0  0  0  0  0  0  0  0  0  0  0  0
   12.5668   -0.2160    0.0000 H   0  0  0  0  0  0  0  0  0  0  0  0
   11.6029   -1.8861    0.0000 H   0  0  0  0  0  0  0  0  0  0  0  0
   11.0894    1.0233    0.0000 C   0  0  0  0  0  0  0  0  0  0  0  0
   12.5666    0.7631    0.0000 H   0  0  0  0  0  0  0  0  0  0  0  0
   11.6022    2.4329    0.0000 H   0  0  0  0  0  0  0  0  0  0  0  0
    9.7902    1.7731    0.0000 O   0  0  0  0  0  0  0  0  0  0  0  0
    9.7899    3.7531    0.0000 C   0  0  0  0  0  0  0  0  0  0  0  0
   11.2671    3.4929    0.0000 H   0  0  0  0  0  0  0  0  0  0  0  0
   10.3027    5.1627    0.0000 H   0  0  0  0  0  0  0  0  0  0  0  0
    8.4907    4.5029    0.0000 C   0  0  0  0  0  0  0  0  0  0  0  0
    7.0135    4.7631    0.0000 H   0  0  0  0  0  0  0  0  0  0  0  0
    7.9779    3.0933    0.0000 H   0  0  0  0  0  0  0  0  0  0  0  0
    8.4905    6.0029    0.0000 O   0  0  0  0  0  0  0  0  0  0  0  0
    7.1913    6.7527    0.0000 H   0  0  0  0  0  0  0  0  0  0  0  0
  1  2  1  0  0  0  0 
  1  3  1  0  0  0  0 
  1  4  1  0  0  0  0 
  1  5  1  0  0  0  0 
  5  6  1  0  0  0  0 
  6  7  2  0  0  0  0 
  7  8  1  0  0  0  0 
  7  9  1  0  0  0  0 
  9 10  2  0  0  0  0 
 10 11  1  0  0  0  0 
 10 12  1  0  0  0  0 
 12 13  1  0  0  0  0 
 12 14  2  0  0  0  0 
  6 14  1  0  0  0  0 
 14 15  1  0  0  0  0 
 15 16  1  0  0  0  0 
  9 17  1  0  0  0  0 
 17 18  1  0  0  0  0 
 17 19  1  0  0  0  0 
 19 20  2  0  0  0  0 
 20 21  1  0  0  0  0 
 20 22  1  0  0  0  0 
 22 23  1  0  0  0  0 
 22 24  2  0  0  0  0 
 24 25  1  0  0  0  0 
 25 26  1  0  0  0  0 
 25 27  2  0  0  0  0 
 19 27  1  0  0  0  0 
 27 28  1  0  0  0  0 
 24 29  1  0  0  0  0 
 17 30  1  0  0  0  0 
 30 31  1  0  0  0  0 
 31 32  1  0  0  0  0 
 31 33  1  0  0  0  0 
 31 34  1  0  0  0  0 
 34 35  1  0  0  0  0 
 34 36  1  0  0  0  0 
 34 37  1  0  0  0  0 
 37 38  1  0  0  0  0 
 38 39  1  0  0  0  0 
 38 40  1  0  0  0  0 
 38 41  1  0  0  0  0 
 30 41  1  0  0  0  0 
 41 42  1  0  0  0  0 
 41 43  1  0  0  0  0 
 37 44  1  0  0  0  0 
 44 45  1  0  0  0  0 
 44 46  1  0  0  0  0 
 44 47  1  0  0  0  0 
 47 48  1  0  0  0  0 
 47 49  1  0  0  0  0 
 47 50  1  0  0  0  0 
 50 51  1  0  0  0  0 
 51 52  1  0  0  0  0 
 51 53  1  0  0  0  0 
 51 54  1  0  0  0  0 
 54 55  1  0  0  0  0 
 54 56  1  0  0  0  0 
 54 57  1  0  0  0  0 
 57 58  1  0  0  0  0 
M  END
> <Rank>
15

> <Priority_score>
0.2469692437574262

> <Reaction_type>
aromatic_oxidation

> <Parent_ID>
85

> <Parent_InChI>
InChI=1S/C21H27ClN2O2/c22-20-8-6-19(7-9-20)21(18-4-2-1-3-5-18)24-12-10-23(11-13-24)14-16-26-17-15-25/h1-9,21,25H,10-17H2

> <Parent_SMILES>
OCCOCCN1CCN(C(c2ccccc2)c2ccc(Cl)cc2)CC1

$$$$
Molecule 85_metabolite 23
  CDK     0516241031

 51 53  0  0  0  0  0  0  0  0999 V2000
   -9.2438   -6.1793    0.0000 C   0  0  0  0  0  0  0  0  0  0  0  0
   -9.2436   -7.6793    0.0000 H   0  0  0  0  0  0  0  0  0  0  0  0
  -10.5439   -5.4295    0.0000 C   0  0  0  0  0  0  0  0  0  0  0  0
  -11.8427   -6.1799    0.0000 H   0  0  0  0  0  0  0  0  0  0  0  0
  -10.5442   -3.9295    0.0000 C   0  0  0  0  0  0  0  0  0  0  0  0
  -11.8432   -3.1795    0.0000 H   0  0  0  0  0  0  0  0  0  0  0  0
   -9.2443   -3.1793    0.0000 C   0  0  0  0  0  0  0  0  0  0  0  0
   -7.9442   -3.9291    0.0000 C   0  0  0  0  0  0  0  0  0  0  0  0
   -6.6454   -3.1787    0.0000 H   0  0  0  0  0  0  0  0  0  0  0  0
   -7.9439   -5.4291    0.0000 C   0  0  0  0  0  0  0  0  0  0  0  0
   -6.6449   -6.1791    0.0000 H   0  0  0  0  0  0  0  0  0  0  0  0
   -9.2445   -1.6793    0.0000 C   0  0  0  0  0  0  0  0  0  0  0  0
  -10.7217   -1.9400    0.0000 H   0  0  0  0  0  0  0  0  0  0  0  0
  -10.2505    1.0832    0.0000 C   0  0  0  0  0  0  0  0  0  0  0  0
  -11.7112    1.3426    0.0000 C   0  0  0  0  0  0  0  0  0  0  0  0
  -12.6731    0.1917    0.0000 H   0  0  0  0  0  0  0  0  0  0  0  0
  -12.2315    2.7495    0.0000 C   0  0  0  0  0  0  0  0  0  0  0  0
  -13.7116    2.9933    0.0000 H   0  0  0  0  0  0  0  0  0  0  0  0
  -11.2946    3.9063    0.0000 C   0  0  0  0  0  0  0  0  0  0  0  0
   -9.8023    3.6479    0.0000 C   0  0  0  0  0  0  0  0  0  0  0  0
   -8.8429    4.8010    0.0000 H   0  0  0  0  0  0  0  0  0  0  0  0
   -9.2820    2.2411    0.0000 C   0  0  0  0  0  0  0  0  0  0  0  0
   -7.8039    1.9856    0.0000 H   0  0  0  0  0  0  0  0  0  0  0  0
  -11.8221    5.3105    0.0000 Cl  0  0  0  0  0  0  0  0  0  0  0  0
   -6.6986   -0.2089    0.0000 N   0  0  0  0  0  0  0  0  0  0  0  0
   -6.6986    1.2919    0.0000 C   0  0  0  0  0  0  0  0  0  0  0  0
   -8.1758    1.0311    0.0000 H   0  0  0  0  0  0  0  0  0  0  0  0
   -7.5410    3.6032    0.0000 H   0  0  0  0  0  0  0  0  0  0  0  0
   -5.3994    2.0432    0.0000 C   0  0  0  0  0  0  0  0  0  0  0  0
   -6.3642    3.1917    0.0000 H   0  0  0  0  0  0  0  0  0  0  0  0
   -4.4357    3.1927    0.0000 H   0  0  0  0  0  0  0  0  0  0  0  0
   -4.1001    1.2936    0.0000 N   0  0  0  0  0  0  0  0  0  0  0  0
   -4.1001   -0.2072    0.0000 C   0  0  0  0  0  0  0  0  0  0  0  0
   -2.6229    0.0535    0.0000 H   0  0  0  0  0  0  0  0  0  0  0  0
   -3.5865   -1.6166    0.0000 H   0  0  0  0  0  0  0  0  0  0  0  0
   -5.3994   -0.9585    0.0000 C   0  0  0  0  0  0  0  0  0  0  0  0
   -4.4346   -2.1070    0.0000 H   0  0  0  0  0  0  0  0  0  0  0  0
   -6.3631   -2.1080    0.0000 H   0  0  0  0  0  0  0  0  0  0  0  0
   -2.3855    2.2839    0.0000 C   0  0  0  0  0  0  0  0  0  0  0  0
   -3.3499    3.4328    0.0000 H   0  0  0  0  0  0  0  0  0  0  0  0
   -1.4215    3.4331    0.0000 H   0  0  0  0  0  0  0  0  0  0  0  0
   -1.0864    1.5341    0.0000 C   0  0  0  0  0  0  0  0  0  0  0  0
    0.3909    1.2738    0.0000 H   0  0  0  0  0  0  0  0  0  0  0  0
   -0.5736    2.9437    0.0000 H   0  0  0  0  0  0  0  0  0  0  0  0
   -1.0861    0.0341    0.0000 O   0  0  0  0  0  0  0  0  0  0  0  0
    0.2130   -0.7157    0.0000 C   0  0  0  0  0  0  0  0  0  0  0  0
    1.1774   -1.8646    0.0000 H   0  0  0  0  0  0  0  0  0  0  0  0
   -0.7510   -1.8649    0.0000 H   0  0  0  0  0  0  0  0  0  0  0  0
    1.5120    0.0345    0.0000 C   0  0  0  0  0  0  0  0  0  0  0  0
    2.8111   -0.7153    0.0000 H   0  0  0  0  0  0  0  0  0  0  0  0
    1.5117    1.5345    0.0000 O   0  0  0  0  0  0  0  0  0  0  0  0
  1  2  1  0  0  0  0 
  1  3  2  0  0  0  0 
  3  4  1  0  0  0  0 
  3  5  1  0  0  0  0 
  5  6  1  0  0  0  0 
  5  7  2  0  0  0  0 
  7  8  1  0  0  0  0 
  8  9  1  0  0  0  0 
  8 10  2  0  0  0  0 
  1 10  1  0  0  0  0 
 10 11  1  0  0  0  0 
  7 12  1  0  0  0  0 
 12 13  1  0  0  0  0 
 12 14  1  0  0  0  0 
 14 15  2  0  0  0  0 
 15 16  1  0  0  0  0 
 15 17  1  0  0  0  0 
 17 18  1  0  0  0  0 
 17 19  2  0  0  0  0 
 19 20  1  0  0  0  0 
 20 21  1  0  0  0  0 
 20 22  2  0  0  0  0 
 14 22  1  0  0  0  0 
 22 23  1  0  0  0  0 
 19 24  1  0  0  0  0 
 12 25  1  0  0  0  0 
 25 26  1  0  0  0  0 
 26 27  1  0  0  0  0 
 26 28  1  0  0  0  0 
 26 29  1  0  0  0  0 
 29 30  1  0  0  0  0 
 29 31  1  0  0  0  0 
 29 32  1  0  0  0  0 
 32 33  1  0  0  0  0 
 33 34  1  0  0  0  0 
 33 35  1  0  0  0  0 
 33 36  1  0  0  0  0 
 25 36  1  0  0  0  0 
 36 37  1  0  0  0  0 
 36 38  1  0  0  0  0 
 32 39  1  0  0  0  0 
 39 40  1  0  0  0  0 
 39 41  1  0  0  0  0 
 39 42  1  0  0  0  0 
 42 43  1  0  0  0  0 
 42 44  1  0  0  0  0 
 42 45  1  0  0  0  0 
 45 46  1  0  0  0  0 
 46 47  1  0  0  0  0 
 46 48  1  0  0  0  0 
 46 49  1  0  0  0  0 
 49 50  1  0  0  0  0 
 49 51  2  0  0  0  0 
M  END
> <Rank>
23

> <Priority_score>
0.196

> <Reaction_type>
alcohol oxidation

> <Parent_ID>
85

> <Parent_InChI>
InChI=1S/C21H27ClN2O2/c22-20-8-6-19(7-9-20)21(18-4-2-1-3-5-18)24-12-10-23(11-13-24)14-16-26-17-15-25/h1-9,21,25H,10-17H2

> <Parent_SMILES>
OCCOCCN1CCN(C(c2ccccc2)c2ccc(Cl)cc2)CC1

$$$$
Molecule 85_metabolite 24
  CDK     0516241031

 54 56  0  0  0  0  0  0  0  0999 V2000
    5.6855    3.2192    0.0000 C   0  0  0  0  0  0  0  0  0  0  0  0
    6.9844    3.9694    0.0000 H   0  0  0  0  0  0  0  0  0  0  0  0
    4.3858    3.9698    0.0000 C   0  0  0  0  0  0  0  0  0  0  0  0
    4.3858    5.4698    0.0000 H   0  0  0  0  0  0  0  0  0  0  0  0
    3.0869    3.2196    0.0000 C   0  0  0  0  0  0  0  0  0  0  0  0
    1.7876    3.9692    0.0000 H   0  0  0  0  0  0  0  0  0  0  0  0
    3.0876    1.7188    0.0000 C   0  0  0  0  0  0  0  0  0  0  0  0
    4.3873    0.9682    0.0000 C   0  0  0  0  0  0  0  0  0  0  0  0
    4.3873   -0.5318    0.0000 H   0  0  0  0  0  0  0  0  0  0  0  0
    5.6862    1.7184    0.0000 C   0  0  0  0  0  0  0  0  0  0  0  0
    6.9855    0.9688    0.0000 H   0  0  0  0  0  0  0  0  0  0  0  0
    1.7887    0.9686    0.0000 C   0  0  0  0  0  0  0  0  0  0  0  0
    1.2755    2.3781    0.0000 H   0  0  0  0  0  0  0  0  0  0  0  0
   -0.1913    0.9683    0.0000 C   0  0  0  0  0  0  0  0  0  0  0  0
   -0.9350    2.2519    0.0000 C   0  0  0  0  0  0  0  0  0  0  0  0
   -0.1829    3.5497    0.0000 H   0  0  0  0  0  0  0  0  0  0  0  0
   -2.4350    2.2592    0.0000 C   0  0  0  0  0  0  0  0  0  0  0  0
   -3.1707    3.5664    0.0000 H   0  0  0  0  0  0  0  0  0  0  0  0
   -3.2012    0.9829    0.0000 C   0  0  0  0  0  0  0  0  0  0  0  0
   -2.4476   -0.3308    0.0000 C   0  0  0  0  0  0  0  0  0  0  0  0
   -3.2026   -1.6269    0.0000 H   0  0  0  0  0  0  0  0  0  0  0  0
   -0.9476   -0.3381    0.0000 C   0  0  0  0  0  0  0  0  0  0  0  0
   -0.2016   -1.6394    0.0000 H   0  0  0  0  0  0  0  0  0  0  0  0
   -4.7012    0.9978    0.0000 Cl  0  0  0  0  0  0  0  0  0  0  0  0
    1.7891   -1.4914    0.0000 N   0  0  0  0  0  0  0  0  0  0  0  0
    0.4896   -2.2422    0.0000 C   0  0  0  0  0  0  0  0  0  0  0  0
    0.4894   -0.7422    0.0000 H   0  0  0  0  0  0  0  0  0  0  0  0
   -1.9331   -2.6692    0.0000 H   0  0  0  0  0  0  0  0  0  0  0  0
    0.4891   -3.7431    0.0000 C   0  0  0  0  0  0  0  0  0  0  0  0
   -0.9880   -3.4823    0.0000 H   0  0  0  0  0  0  0  0  0  0  0  0
   -0.0241   -5.1526    0.0000 H   0  0  0  0  0  0  0  0  0  0  0  0
    1.7881   -4.4931    0.0000 N   0  0  0  0  0  0  0  0  0  0  0  0
    3.0877   -3.7422    0.0000 C   0  0  0  0  0  0  0  0  0  0  0  0
    3.6008   -5.1517    0.0000 H   0  0  0  0  0  0  0  0  0  0  0  0
    4.5649   -3.4819    0.0000 H   0  0  0  0  0  0  0  0  0  0  0  0
    3.0881   -2.2414    0.0000 C   0  0  0  0  0  0  0  0  0  0  0  0
    4.5653   -2.5022    0.0000 H   0  0  0  0  0  0  0  0  0  0  0  0
    3.6013   -0.8319    0.0000 H   0  0  0  0  0  0  0  0  0  0  0  0
    1.7885   -6.4731    0.0000 C   0  0  0  0  0  0  0  0  0  0  0  0
    0.3112   -6.2128    0.0000 H   0  0  0  0  0  0  0  0  0  0  0  0
    1.2757   -7.8827    0.0000 H   0  0  0  0  0  0  0  0  0  0  0  0
    3.0876   -7.2229    0.0000 C   0  0  0  0  0  0  0  0  0  0  0  0
    4.0520   -8.3718    0.0000 H   0  0  0  0  0  0  0  0  0  0  0  0
    2.1236   -8.3721    0.0000 H   0  0  0  0  0  0  0  0  0  0  0  0
    4.3865   -6.4727    0.0000 O   0  0  0  0  0  0  0  0  0  0  0  0
    6.1014   -7.4624    0.0000 C   0  0  0  0  0  0  0  0  0  0  0  0
    7.0658   -8.6113    0.0000 H   0  0  0  0  0  0  0  0  0  0  0  0
    5.1374   -8.6116    0.0000 H   0  0  0  0  0  0  0  0  0  0  0  0
    7.4003   -6.7122    0.0000 C   0  0  0  0  0  0  0  0  0  0  0  0
    6.4360   -5.5633    0.0000 H   0  0  0  0  0  0  0  0  0  0  0  0
    8.6995   -7.4620    0.0000 O   0  0  0  0  0  0  0  0  0  0  0  0
    9.9984   -6.7118    0.0000 H   0  0  0  0  0  0  0  0  0  0  0  0
    8.3643   -5.5630    0.0000 O   0  0  0  0  0  0  0  0  0  0  0  0
    9.8416   -5.8232    0.0000 H   0  0  0  0  0  0  0  0  0  0  0  0
  1  2  1  0  0  0  0 
  1  3  2  0  0  0  0 
  3  4  1  0  0  0  0 
  3  5  1  0  0  0  0 
  5  6  1  0  0  0  0 
  5  7  2  0  0  0  0 
  7  8  1  0  0  0  0 
  8  9  1  0  0  0  0 
  8 10  2  0  0  0  0 
  1 10  1  0  0  0  0 
 10 11  1  0  0  0  0 
  7 12  1  0  0  0  0 
 12 13  1  0  0  0  0 
 12 14  1  0  0  0  0 
 14 15  2  0  0  0  0 
 15 16  1  0  0  0  0 
 15 17  1  0  0  0  0 
 17 18  1  0  0  0  0 
 17 19  2  0  0  0  0 
 19 20  1  0  0  0  0 
 20 21  1  0  0  0  0 
 20 22  2  0  0  0  0 
 14 22  1  0  0  0  0 
 22 23  1  0  0  0  0 
 19 24  1  0  0  0  0 
 12 25  1  0  0  0  0 
 25 26  1  0  0  0  0 
 26 27  1  0  0  0  0 
 26 28  1  0  0  0  0 
 26 29  1  0  0  0  0 
 29 30  1  0  0  0  0 
 29 31  1  0  0  0  0 
 29 32  1  0  0  0  0 
 32 33  1  0  0  0  0 
 33 34  1  0  0  0  0 
 33 35  1  0  0  0  0 
 33 36  1  0  0  0  0 
 25 36  1  0  0  0  0 
 36 37  1  0  0  0  0 
 36 38  1  0  0  0  0 
 32 39  1  0  0  0  0 
 39 40  1  0  0  0  0 
 39 41  1  0  0  0  0 
 39 42  1  0  0  0  0 
 42 43  1  0  0  0  0 
 42 44  1  0  0  0  0 
 42 45  1  0  0  0  0 
 45 46  1  0  0  0  0 
 46 47  1  0  0  0  0 
 46 48  1  0  0  0  0 
 46 49  1  0  0  0  0 
 49 50  1  0  0  0  0 
 49 51  1  0  0  0  0 
 51 52  1  0  0  0  0 
 49 53  1  0  0  0  0 
 53 54  1  0  0  0  0 
M  END
> <Rank>
24

> <Priority_score>
0.14360668037821334

> <Reaction_type>
aliphatic hydroxylation

> <Parent_ID>
85

> <Parent_InChI>
InChI=1S/C21H27ClN2O2/c22-20-8-6-19(7-9-20)21(18-4-2-1-3-5-18)24-12-10-23(11-13-24)14-16-26-17-15-25/h1-9,21,25H,10-17H2

> <Parent_SMILES>
OCCOCCN1CCN(C(c2ccccc2)c2ccc(Cl)cc2)CC1

$$$$
Molecule 85_metabolite 25
  CDK     0516241031

 52 54  0  0  0  0  0  0  0  0999 V2000
   -5.6720   -4.5277    0.0000 C   0  0  0  0  0  0  0  0  0  0  0  0
   -6.4220   -5.8268    0.0000 H   0  0  0  0  0  0  0  0  0  0  0  0
   -4.1712   -4.5282    0.0000 C   0  0  0  0  0  0  0  0  0  0  0  0
   -3.4214   -5.8274    0.0000 H   0  0  0  0  0  0  0  0  0  0  0  0
   -3.4212   -3.2292    0.0000 C   0  0  0  0  0  0  0  0  0  0  0  0
   -1.9212   -3.2289    0.0000 H   0  0  0  0  0  0  0  0  0  0  0  0
   -4.1720   -1.9297    0.0000 C   0  0  0  0  0  0  0  0  0  0  0  0
   -5.6729   -1.9292    0.0000 C   0  0  0  0  0  0  0  0  0  0  0  0
   -6.4227   -0.6300    0.0000 H   0  0  0  0  0  0  0  0  0  0  0  0
   -6.4229   -3.2282    0.0000 C   0  0  0  0  0  0  0  0  0  0  0  0
   -7.9229   -3.2285    0.0000 H   0  0  0  0  0  0  0  0  0  0  0  0
   -2.7020    0.6165    0.0000 C   0  0  0  0  0  0  0  0  0  0  0  0
   -2.4416    2.0937    0.0000 H   0  0  0  0  0  0  0  0  0  0  0  0
   -4.5626    1.2937    0.0000 C   0  0  0  0  0  0  0  0  0  0  0  0
   -4.8223    2.7543    0.0000 C   0  0  0  0  0  0  0  0  0  0  0  0
   -3.6715    3.7164    0.0000 H   0  0  0  0  0  0  0  0  0  0  0  0
   -6.2292    3.2744    0.0000 C   0  0  0  0  0  0  0  0  0  0  0  0
   -6.4732    4.7544    0.0000 H   0  0  0  0  0  0  0  0  0  0  0  0
   -7.3859    2.3373    0.0000 C   0  0  0  0  0  0  0  0  0  0  0  0
   -7.1273    0.8451    0.0000 C   0  0  0  0  0  0  0  0  0  0  0  0
   -8.2802   -0.1145    0.0000 H   0  0  0  0  0  0  0  0  0  0  0  0
   -5.7203    0.3250    0.0000 C   0  0  0  0  0  0  0  0  0  0  0  0
   -5.2191   -2.5720    0.0000 H   0  0  0  0  0  0  0  0  0  0  0  0
   -8.7902    2.8645    0.0000 Cl  0  0  0  0  0  0  0  0  0  0  0  0
   -0.7220    0.6165    0.0000 N   0  0  0  0  0  0  0  0  0  0  0  0
    0.0280    1.9165    0.0000 C   0  0  0  0  0  0  0  0  0  0  0  0
    0.2883    3.3937    0.0000 H   0  0  0  0  0  0  0  0  0  0  0  0
   -1.3817    2.4292    0.0000 H   0  0  0  0  0  0  0  0  0  0  0  0
    1.5280    1.9165    0.0000 C   0  0  0  0  0  0  0  0  0  0  0  0
    2.9376    2.4292    0.0000 H   0  0  0  0  0  0  0  0  0  0  0  0
    1.2677    3.3937    0.0000 H   0  0  0  0  0  0  0  0  0  0  0  0
    2.2780    0.6165    0.0000 N   0  0  0  0  0  0  0  0  0  0  0  0
    4.2580    0.6165    0.0000 C   0  0  0  0  0  0  0  0  0  0  0  0
    3.9975    2.0937    0.0000 H   0  0  0  0  0  0  0  0  0  0  0  0
    5.6675    1.1295    0.0000 H   0  0  0  0  0  0  0  0  0  0  0  0
    5.0080   -0.6826    0.0000 C   0  0  0  0  0  0  0  0  0  0  0  0
    5.2684   -2.1598    0.0000 H   0  0  0  0  0  0  0  0  0  0  0  0
    3.5984   -1.1956    0.0000 H   0  0  0  0  0  0  0  0  0  0  0  0
    6.9880   -0.6826    0.0000 O   0  0  0  0  0  0  0  0  0  0  0  0
    7.7380   -1.9816    0.0000 C   0  0  0  0  0  0  0  0  0  0  0  0
    7.9984   -3.4588    0.0000 H   0  0  0  0  0  0  0  0  0  0  0  0
    6.3284   -2.4946    0.0000 H   0  0  0  0  0  0  0  0  0  0  0  0
    9.2380   -1.9816    0.0000 C   0  0  0  0  0  0  0  0  0  0  0  0
    8.9775   -0.5044    0.0000 H   0  0  0  0  0  0  0  0  0  0  0  0
   10.6475   -1.4686    0.0000 H   0  0  0  0  0  0  0  0  0  0  0  0
    9.9880   -3.2807    0.0000 O   0  0  0  0  0  0  0  0  0  0  0  0
   11.4880   -3.2807    0.0000 H   0  0  0  0  0  0  0  0  0  0  0  0
    1.5280   -0.6835    0.0000 C   0  0  0  0  0  0  0  0  0  0  0  0
    2.2782   -1.9825    0.0000 O   0  0  0  0  0  0  0  0  0  0  0  0
    0.0280   -0.6835    0.0000 C   0  0  0  0  0  0  0  0  0  0  0  0
   -1.3817   -1.1963    0.0000 H   0  0  0  0  0  0  0  0  0  0  0  0
    0.2883   -2.1608    0.0000 H   0  0  0  0  0  0  0  0  0  0  0  0
  1  2  1  0  0  0  0 
  1  3  2  0  0  0  0 
  3  4  1  0  0  0  0 
  3  5  1  0  0  0  0 
  5  6  1  0  0  0  0 
  5  7  2  0  0  0  0 
  7  8  1  0  0  0  0 
  8  9  1  0  0  0  0 
  8 10  2  0  0  0  0 
  1 10  1  0  0  0  0 
 10 11  1  0  0  0  0 
  7 12  1  0  0  0  0 
 12 13  1  0  0  0  0 
 12 14  1  0  0  0  0 
 14 15  2  0  0  0  0 
 15 16  1  0  0  0  0 
 15 17  1  0  0  0  0 
 17 18  1  0  0  0  0 
 17 19  2  0  0  0  0 
 19 20  1  0  0  0  0 
 20 21  1  0  0  0  0 
 20 22  2  0  0  0  0 
 14 22  1  0  0  0  0 
 22 23  1  0  0  0  0 
 19 24  1  0  0  0  0 
 12 25  1  0  0  0  0 
 25 26  1  0  0  0  0 
 26 27  1  0  0  0  0 
 26 28  1  0  0  0  0 
 26 29  1  0  0  0  0 
 29 30  1  0  0  0  0 
 29 31  1  0  0  0  0 
 29 32  1  0  0  0  0 
 32 33  1  0  0  0  0 
 33 34  1  0  0  0  0 
 33 35  1  0  0  0  0 
 33 36  1  0  0  0  0 
 36 37  1  0  0  0  0 
 36 38  1  0  0  0  0 
 36 39  1  0  0  0  0 
 39 40  1  0  0  0  0 
 40 41  1  0  0  0  0 
 40 42  1  0  0  0  0 
 40 43  1  0  0  0  0 
 43 44  1  0  0  0  0 
 43 45  1  0  0  0  0 
 43 46  1  0  0  0  0 
 46 47  1  0  0  0  0 
 32 48  1  0  0  0  0 
 48 49  2  0  0  0  0 
 48 50  1  0  0  0  0 
 25 50  1  0  0  0  0 
 50 51  1  0  0  0  0 
 50 52  1  0  0  0  0 
M  END
> <Rank>
25

> <Priority_score>
0.128

> <Reaction_type>
oxidation_(amine_in_a_ring)

> <Parent_ID>
85

> <Parent_InChI>
InChI=1S/C21H27ClN2O2/c22-20-8-6-19(7-9-20)21(18-4-2-1-3-5-18)24-12-10-23(11-13-24)14-16-26-17-15-25/h1-9,21,25H,10-17H2

> <Parent_SMILES>
OCCOCCN1CCN(C(c2ccccc2)c2ccc(Cl)cc2)CC1

$$$$
Molecule 85_metabolite 26
  CDK     0516241031

 54 55  0  0  0  0  0  0  0  0999 V2000
    3.8761   -3.2576    0.0000 C   0  0  0  0  0  0  0  0  0  0  0  0
    4.6261   -4.5567    0.0000 H   0  0  0  0  0  0  0  0  0  0  0  0
    4.6270   -1.9581    0.0000 C   0  0  0  0  0  0  0  0  0  0  0  0
    6.1270   -1.9584    0.0000 H   0  0  0  0  0  0  0  0  0  0  0  0
    3.8770   -0.6591    0.0000 C   0  0  0  0  0  0  0  0  0  0  0  0
    4.6268    0.6401    0.0000 H   0  0  0  0  0  0  0  0  0  0  0  0
    2.3761   -0.6596    0.0000 C   0  0  0  0  0  0  0  0  0  0  0  0
    1.6253   -1.9591    0.0000 C   0  0  0  0  0  0  0  0  0  0  0  0
    0.1253   -1.9589    0.0000 H   0  0  0  0  0  0  0  0  0  0  0  0
    2.3753   -3.2581    0.0000 C   0  0  0  0  0  0  0  0  0  0  0  0
    1.6255   -4.5573    0.0000 H   0  0  0  0  0  0  0  0  0  0  0  0
    1.6261    0.6395    0.0000 C   0  0  0  0  0  0  0  0  0  0  0  0
    3.0357    1.1525    0.0000 H   0  0  0  0  0  0  0  0  0  0  0  0
    1.9700    2.5894    0.0000 C   0  0  0  0  0  0  0  0  0  0  0  0
    3.3633    3.0987    0.0000 C   0  0  0  0  0  0  0  0  0  0  0  0
    4.5107    2.1325    0.0000 H   0  0  0  0  0  0  0  0  0  0  0  0
    3.6312    4.5746    0.0000 C   0  0  0  0  0  0  0  0  0  0  0  0
    5.0464    5.0719    0.0000 H   0  0  0  0  0  0  0  0  0  0  0  0
    2.5075    5.5510    0.0000 C   0  0  0  0  0  0  0  0  0  0  0  0
    1.0829    5.0372    0.0000 C   0  0  0  0  0  0  0  0  0  0  0  0
   -0.0624    6.0059    0.0000 H   0  0  0  0  0  0  0  0  0  0  0  0
    0.8150    3.5613    0.0000 C   0  0  0  0  0  0  0  0  0  0  0  0
   -1.6090    3.1419    0.0000 H   0  0  0  0  0  0  0  0  0  0  0  0
    2.7829    7.0255    0.0000 Cl  0  0  0  0  0  0  0  0  0  0  0  0
   -1.3139    0.6395    0.0000 N   0  0  0  0  0  0  0  0  0  0  0  0
   -2.0639   -0.6596    0.0000 C   0  0  0  0  0  0  0  0  0  0  0  0
   -0.6543   -1.1726    0.0000 H   0  0  0  0  0  0  0  0  0  0  0  0
   -2.3243   -2.1368    0.0000 H   0  0  0  0  0  0  0  0  0  0  0  0
   -3.5639   -0.6596    0.0000 C   0  0  0  0  0  0  0  0  0  0  0  0
   -4.9734   -1.1726    0.0000 H   0  0  0  0  0  0  0  0  0  0  0  0
   -3.3034   -2.1368    0.0000 H   0  0  0  0  0  0  0  0  0  0  0  0
   -4.5539    1.0552    0.0000 N   0  0  0  0  0  0  0  0  0  0  0  0
   -3.8039    2.3542    0.0000 H   0  0  0  0  0  0  0  0  0  0  0  0
   -6.0539    1.0552    0.0000 C   0  0  0  0  0  0  0  0  0  0  0  0
   -7.4634    0.5421    0.0000 H   0  0  0  0  0  0  0  0  0  0  0  0
   -5.7934   -0.4221    0.0000 H   0  0  0  0  0  0  0  0  0  0  0  0
   -6.8039    2.3542    0.0000 C   0  0  0  0  0  0  0  0  0  0  0  0
   -5.3943    2.8672    0.0000 H   0  0  0  0  0  0  0  0  0  0  0  0
   -7.0643    3.8314    0.0000 H   0  0  0  0  0  0  0  0  0  0  0  0
   -8.7839    2.3542    0.0000 O   0  0  0  0  0  0  0  0  0  0  0  0
   -9.5339    3.6532    0.0000 C   0  0  0  0  0  0  0  0  0  0  0  0
   -8.1243    4.1663    0.0000 H   0  0  0  0  0  0  0  0  0  0  0  0
   -9.7943    5.1304    0.0000 H   0  0  0  0  0  0  0  0  0  0  0  0
  -11.0339    3.6532    0.0000 C   0  0  0  0  0  0  0  0  0  0  0  0
  -12.4434    3.1402    0.0000 H   0  0  0  0  0  0  0  0  0  0  0  0
  -10.7734    2.1760    0.0000 H   0  0  0  0  0  0  0  0  0  0  0  0
  -11.7839    4.9523    0.0000 O   0  0  0  0  0  0  0  0  0  0  0  0
  -13.2839    4.9523    0.0000 H   0  0  0  0  0  0  0  0  0  0  0  0
   -2.0639    1.9385    0.0000 C   0  0  0  0  0  0  0  0  0  0  0  0
   -3.2129    0.9743    0.0000 H   0  0  0  0  0  0  0  0  0  0  0  0
   -4.3160    3.8283    0.0000 H   0  0  0  0  0  0  0  0  0  0  0  0
   -0.8339    4.0689    0.0000 C   0  0  0  0  0  0  0  0  0  0  0  0
   -2.0639    6.1993    0.0000 H   0  0  0  0  0  0  0  0  0  0  0  0
    2.1061    4.0689    0.0000 O   0  0  0  0  0  0  0  0  0  0  0  0
  1  2  1  0  0  0  0 
  1  3  2  0  0  0  0 
  3  4  1  0  0  0  0 
  3  5  1  0  0  0  0 
  5  6  1  0  0  0  0 
  5  7  2  0  0  0  0 
  7  8  1  0  0  0  0 
  8  9  1  0  0  0  0 
  8 10  2  0  0  0  0 
  1 10  1  0  0  0  0 
 10 11  1  0  0  0  0 
  7 12  1  0  0  0  0 
 12 13  1  0  0  0  0 
 12 14  1  0  0  0  0 
 14 15  2  0  0  0  0 
 15 16  1  0  0  0  0 
 15 17  1  0  0  0  0 
 17 18  1  0  0  0  0 
 17 19  2  0  0  0  0 
 19 20  1  0  0  0  0 
 20 21  1  0  0  0  0 
 20 22  2  0  0  0  0 
 14 22  1  0  0  0  0 
 22 23  1  0  0  0  0 
 19 24  1  0  0  0  0 
 12 25  1  0  0  0  0 
 25 26  1  0  0  0  0 
 26 27  1  0  0  0  0 
 26 28  1  0  0  0  0 
 26 29  1  0  0  0  0 
 29 30  1  0  0  0  0 
 29 31  1  0  0  0  0 
 29 32  1  0  0  0  0 
 32 33  1  0  0  0  0 
 32 34  1  0  0  0  0 
 34 35  1  0  0  0  0 
 34 36  1  0  0  0  0 
 34 37  1  0  0  0  0 
 37 38  1  0  0  0  0 
 37 39  1  0  0  0  0 
 37 40  1  0  0  0  0 
 40 41  1  0  0  0  0 
 41 42  1  0  0  0  0 
 41 43  1  0  0  0  0 
 41 44  1  0  0  0  0 
 44 45  1  0  0  0  0 
 44 46  1  0  0  0  0 
 44 47  1  0  0  0  0 
 47 48  1  0  0  0  0 
 25 49  1  0  0  0  0 
 49 50  1  0  0  0  0 
 49 51  1  0  0  0  0 
 49 52  1  0  0  0  0 
 52 53  1  0  0  0  0 
 52 54  2  0  0  0  0 
M  END
> <Rank>
25

> <Priority_score>
0.128

> <Reaction_type>
N-dealkylation

> <Parent_ID>
85

> <Parent_InChI>
InChI=1S/C21H27ClN2O2/c22-20-8-6-19(7-9-20)21(18-4-2-1-3-5-18)24-12-10-23(11-13-24)14-16-26-17-15-25/h1-9,21,25H,10-17H2

> <Parent_SMILES>
OCCOCCN1CCN(C(c2ccccc2)c2ccc(Cl)cc2)CC1

$$$$
Molecule 85_metabolite 27
  CDK     0516241031

 54 56  0  0  0  0  0  0  0  0999 V2000
   -4.6484    1.4677    0.0000 C   0  0  0  0  0  0  0  0  0  0  0  0
   -6.1484    1.4677    0.0000 H   0  0  0  0  0  0  0  0  0  0  0  0
   -3.8984    0.1677    0.0000 C   0  0  0  0  0  0  0  0  0  0  0  0
   -4.6486   -1.1312    0.0000 H   0  0  0  0  0  0  0  0  0  0  0  0
   -2.3984    0.1677    0.0000 C   0  0  0  0  0  0  0  0  0  0  0  0
   -1.6482   -1.1312    0.0000 H   0  0  0  0  0  0  0  0  0  0  0  0
   -1.6484    1.4677    0.0000 C   0  0  0  0  0  0  0  0  0  0  0  0
   -2.3984    2.7677    0.0000 C   0  0  0  0  0  0  0  0  0  0  0  0
   -1.6482    4.0666    0.0000 H   0  0  0  0  0  0  0  0  0  0  0  0
   -3.8984    2.7677    0.0000 C   0  0  0  0  0  0  0  0  0  0  0  0
   -4.6486    4.0666    0.0000 H   0  0  0  0  0  0  0  0  0  0  0  0
    1.2916    1.4677    0.0000 C   0  0  0  0  0  0  0  0  0  0  0  0
    2.7012    1.9808    0.0000 H   0  0  0  0  0  0  0  0  0  0  0  0
    0.7811    4.3631    0.0000 C   0  0  0  0  0  0  0  0  0  0  0  0
    1.9162    5.3182    0.0000 C   0  0  0  0  0  0  0  0  0  0  0  0
    3.3248    4.8027    0.0000 H   0  0  0  0  0  0  0  0  0  0  0  0
    1.6632    6.7967    0.0000 C   0  0  0  0  0  0  0  0  0  0  0  0
    2.8229    7.7481    0.0000 H   0  0  0  0  0  0  0  0  0  0  0  0
    0.2733    7.3299    0.0000 C   0  0  0  0  0  0  0  0  0  0  0  0
   -0.8897    6.3598    0.0000 C   0  0  0  0  0  0  0  0  0  0  0  0
   -2.2972    6.8784    0.0000 H   0  0  0  0  0  0  0  0  0  0  0  0
   -0.6367    4.8813    0.0000 C   0  0  0  0  0  0  0  0  0  0  0  0
   -2.7710    3.6582    0.0000 H   0  0  0  0  0  0  0  0  0  0  0  0
    0.0277    8.8097    0.0000 Cl  0  0  0  0  0  0  0  0  0  0  0  0
    2.2816   -0.2470    0.0000 N   0  0  0  0  0  0  0  0  0  0  0  0
    3.7824   -0.2465    0.0000 C   0  0  0  0  0  0  0  0  0  0  0  0
    5.1919    0.2667    0.0000 H   0  0  0  0  0  0  0  0  0  0  0  0
    3.5217    1.2306    0.0000 H   0  0  0  0  0  0  0  0  0  0  0  0
    4.5324   -1.5456    0.0000 C   0  0  0  0  0  0  0  0  0  0  0  0
    5.6813   -2.5100    0.0000 H   0  0  0  0  0  0  0  0  0  0  0  0
    5.6816   -0.5815    0.0000 H   0  0  0  0  0  0  0  0  0  0  0  0
    3.7816   -2.8451    0.0000 N   0  0  0  0  0  0  0  0  0  0  0  0
    4.7716   -4.5598    0.0000 C   0  0  0  0  0  0  0  0  0  0  0  0
    3.3621   -5.0728    0.0000 H   0  0  0  0  0  0  0  0  0  0  0  0
    5.0321   -6.0370    0.0000 H   0  0  0  0  0  0  0  0  0  0  0  0
    6.2716   -4.5598    0.0000 C   0  0  0  0  0  0  0  0  0  0  0  0
    7.6812   -5.0728    0.0000 H   0  0  0  0  0  0  0  0  0  0  0  0
    6.0111   -6.0370    0.0000 H   0  0  0  0  0  0  0  0  0  0  0  0
    7.0216   -3.2608    0.0000 O   0  0  0  0  0  0  0  0  0  0  0  0
    9.0016   -3.2608    0.0000 C   0  0  0  0  0  0  0  0  0  0  0  0
   10.4112   -3.7738    0.0000 H   0  0  0  0  0  0  0  0  0  0  0  0
    8.7411   -4.7380    0.0000 H   0  0  0  0  0  0  0  0  0  0  0  0
    9.7516   -1.9617    0.0000 C   0  0  0  0  0  0  0  0  0  0  0  0
    8.3421   -1.4487    0.0000 H   0  0  0  0  0  0  0  0  0  0  0  0
   10.0121   -0.4845    0.0000 H   0  0  0  0  0  0  0  0  0  0  0  0
   11.2516   -1.9617    0.0000 O   0  0  0  0  0  0  0  0  0  0  0  0
   12.0016   -0.6627    0.0000 H   0  0  0  0  0  0  0  0  0  0  0  0
    2.2808   -2.8456    0.0000 C   0  0  0  0  0  0  0  0  0  0  0  0
    0.8713   -3.3587    0.0000 H   0  0  0  0  0  0  0  0  0  0  0  0
    1.5308   -1.5465    0.0000 C   0  0  0  0  0  0  0  0  0  0  0  0
    0.3819   -0.5821    0.0000 H   0  0  0  0  0  0  0  0  0  0  0  0
    0.3816   -2.5106    0.0000 H   0  0  0  0  0  0  0  0  0  0  0  0
    2.5416   -4.3227    0.0000 O   0  0  0  0  0  0  0  0  0  0  0  0
    1.3927   -5.2871    0.0000 H   0  0  0  0  0  0  0  0  0  0  0  0
  1  2  1  0  0  0  0 
  1  3  2  0  0  0  0 
  3  4  1  0  0  0  0 
  3  5  1  0  0  0  0 
  5  6  1  0  0  0  0 
  5  7  2  0  0  0  0 
  7  8  1  0  0  0  0 
  8  9  1  0  0  0  0 
  8 10  2  0  0  0  0 
  1 10  1  0  0  0  0 
 10 11  1  0  0  0  0 
  7 12  1  0  0  0  0 
 12 13  1  0  0  0  0 
 12 14  1  0  0  0  0 
 14 15  2  0  0  0  0 
 15 16  1  0  0  0  0 
 15 17  1  0  0  0  0 
 17 18  1  0  0  0  0 
 17 19  2  0  0  0  0 
 19 20  1  0  0  0  0 
 20 21  1  0  0  0  0 
 20 22  2  0  0  0  0 
 14 22  1  0  0  0  0 
 22 23  1  0  0  0  0 
 19 24  1  0  0  0  0 
 12 25  1  0  0  0  0 
 25 26  1  0  0  0  0 
 26 27  1  0  0  0  0 
 26 28  1  0  0  0  0 
 26 29  1  0  0  0  0 
 29 30  1  0  0  0  0 
 29 31  1  0  0  0  0 
 29 32  1  0  0  0  0 
 32 33  1  0  0  0  0 
 33 34  1  0  0  0  0 
 33 35  1  0  0  0  0 
 33 36  1  0  0  0  0 
 36 37  1  0  0  0  0 
 36 38  1  0  0  0  0 
 36 39  1  0  0  0  0 
 39 40  1  0  0  0  0 
 40 41  1  0  0  0  0 
 40 42  1  0  0  0  0 
 40 43  1  0  0  0  0 
 43 44  1  0  0  0  0 
 43 45  1  0  0  0  0 
 43 46  1  0  0  0  0 
 46 47  1  0  0  0  0 
 32 48  1  0  0  0  0 
 48 49  1  0  0  0  0 
 48 50  1  0  0  0  0 
 25 50  1  0  0  0  0 
 50 51  1  0  0  0  0 
 50 52  1  0  0  0  0 
 48 53  1  0  0  0  0 
 53 54  1  0  0  0  0 
M  END
> <Rank>
25

> <Priority_score>
0.128

> <Reaction_type>
aliphatic_hydroxylation_(sec_carbon_next_to_SP2,in_a_ring)

> <Parent_ID>
85

> <Parent_InChI>
InChI=1S/C21H27ClN2O2/c22-20-8-6-19(7-9-20)21(18-4-2-1-3-5-18)24-12-10-23(11-13-24)14-16-26-17-15-25/h1-9,21,25H,10-17H2

> <Parent_SMILES>
OCCOCCN1CCN(C(c2ccccc2)c2ccc(Cl)cc2)CC1

$$$$
Molecule 85_metabolite 28
  CDK     0516241031

 54 56  0  0  0  0  0  0  0  0999 V2000
   -4.1957   -2.2763    0.0000 C   0  0  0  0  0  0  0  0  0  0  0  0
   -4.9457   -3.5753    0.0000 H   0  0  0  0  0  0  0  0  0  0  0  0
   -2.6949   -2.2768    0.0000 C   0  0  0  0  0  0  0  0  0  0  0  0
   -1.9451   -3.5759    0.0000 H   0  0  0  0  0  0  0  0  0  0  0  0
   -1.9449   -0.9777    0.0000 C   0  0  0  0  0  0  0  0  0  0  0  0
   -0.4449   -0.9775    0.0000 H   0  0  0  0  0  0  0  0  0  0  0  0
   -2.6957    0.3218    0.0000 C   0  0  0  0  0  0  0  0  0  0  0  0
   -4.1965    0.3223    0.0000 C   0  0  0  0  0  0  0  0  0  0  0  0
   -4.9463    1.6214    0.0000 H   0  0  0  0  0  0  0  0  0  0  0  0
   -4.9465   -0.9768    0.0000 C   0  0  0  0  0  0  0  0  0  0  0  0
   -6.4465   -0.9770    0.0000 H   0  0  0  0  0  0  0  0  0  0  0  0
   -1.2257    2.8679    0.0000 C   0  0  0  0  0  0  0  0  0  0  0  0
   -0.9652    4.3451    0.0000 H   0  0  0  0  0  0  0  0  0  0  0  0
   -3.9884    3.8735    0.0000 C   0  0  0  0  0  0  0  0  0  0  0  0
   -4.2480    5.3341    0.0000 C   0  0  0  0  0  0  0  0  0  0  0  0
   -3.0972    6.2962    0.0000 H   0  0  0  0  0  0  0  0  0  0  0  0
   -5.6550    5.8542    0.0000 C   0  0  0  0  0  0  0  0  0  0  0  0
   -5.8990    7.3342    0.0000 H   0  0  0  0  0  0  0  0  0  0  0  0
   -6.8117    4.9171    0.0000 C   0  0  0  0  0  0  0  0  0  0  0  0
   -6.5530    3.4249    0.0000 C   0  0  0  0  0  0  0  0  0  0  0  0
   -7.7059    2.4653    0.0000 H   0  0  0  0  0  0  0  0  0  0  0  0
   -5.1461    2.9048    0.0000 C   0  0  0  0  0  0  0  0  0  0  0  0
   -5.1540    0.4448    0.0000 H   0  0  0  0  0  0  0  0  0  0  0  0
   -8.2160    5.4443    0.0000 Cl  0  0  0  0  0  0  0  0  0  0  0  0
    0.7543    2.8679    0.0000 N   0  0  0  0  0  0  0  0  0  0  0  0
    1.5043    1.5679    0.0000 C   0  0  0  0  0  0  0  0  0  0  0  0
    1.7646    0.0907    0.0000 H   0  0  0  0  0  0  0  0  0  0  0  0
    0.0947    1.0552    0.0000 H   0  0  0  0  0  0  0  0  0  0  0  0
    3.0043    1.5679    0.0000 C   0  0  0  0  0  0  0  0  0  0  0  0
    4.4140    1.0552    0.0000 H   0  0  0  0  0  0  0  0  0  0  0  0
    2.7440    0.0907    0.0000 H   0  0  0  0  0  0  0  0  0  0  0  0
    3.7543    2.8679    0.0000 N   0  0  0  0  0  0  0  0  0  0  0  0
    5.7343    2.8679    0.0000 C   0  0  0  0  0  0  0  0  0  0  0  0
    5.4738    4.3451    0.0000 H   0  0  0  0  0  0  0  0  0  0  0  0
    7.1438    3.3809    0.0000 H   0  0  0  0  0  0  0  0  0  0  0  0
    6.4843    1.5689    0.0000 C   0  0  0  0  0  0  0  0  0  0  0  0
    7.6334    0.6047    0.0000 H   0  0  0  0  0  0  0  0  0  0  0  0
    7.6334    2.5331    0.0000 H   0  0  0  0  0  0  0  0  0  0  0  0
    5.7343    0.2698    0.0000 O   0  0  0  0  0  0  0  0  0  0  0  0
    6.7243   -1.4449    0.0000 C   0  0  0  0  0  0  0  0  0  0  0  0
    7.8734   -2.4091    0.0000 H   0  0  0  0  0  0  0  0  0  0  0  0
    7.8734   -0.4807    0.0000 H   0  0  0  0  0  0  0  0  0  0  0  0
    5.9743   -2.7439    0.0000 C   0  0  0  0  0  0  0  0  0  0  0  0
    4.8252   -1.7797    0.0000 H   0  0  0  0  0  0  0  0  0  0  0  0
    4.8252   -3.7081    0.0000 H   0  0  0  0  0  0  0  0  0  0  0  0
    6.7243   -4.0430    0.0000 O   0  0  0  0  0  0  0  0  0  0  0  0
    5.9743   -5.3420    0.0000 H   0  0  0  0  0  0  0  0  0  0  0  0
    3.0043    4.1679    0.0000 C   0  0  0  0  0  0  0  0  0  0  0  0
    2.7440    5.6452    0.0000 H   0  0  0  0  0  0  0  0  0  0  0  0
    4.4140    4.6806    0.0000 H   0  0  0  0  0  0  0  0  0  0  0  0
    1.5043    4.1679    0.0000 C   0  0  0  0  0  0  0  0  0  0  0  0
    0.0947    4.6806    0.0000 H   0  0  0  0  0  0  0  0  0  0  0  0
    1.7646    5.6452    0.0000 O   0  0  0  0  0  0  0  0  0  0  0  0
    0.6154    6.6092    0.0000 H   0  0  0  0  0  0  0  0  0  0  0  0
  1  2  1  0  0  0  0 
  1  3  2  0  0  0  0 
  3  4  1  0  0  0  0 
  3  5  1  0  0  0  0 
  5  6  1  0  0  0  0 
  5  7  2  0  0  0  0 
  7  8  1  0  0  0  0 
  8  9  1  0  0  0  0 
  8 10  2  0  0  0  0 
  1 10  1  0  0  0  0 
 10 11  1  0  0  0  0 
  7 12  1  0  0  0  0 
 12 13  1  0  0  0  0 
 12 14  1  0  0  0  0 
 14 15  2  0  0  0  0 
 15 16  1  0  0  0  0 
 15 17  1  0  0  0  0 
 17 18  1  0  0  0  0 
 17 19  2  0  0  0  0 
 19 20  1  0  0  0  0 
 20 21  1  0  0  0  0 
 20 22  2  0  0  0  0 
 14 22  1  0  0  0  0 
 22 23  1  0  0  0  0 
 19 24  1  0  0  0  0 
 12 25  1  0  0  0  0 
 25 26  1  0  0  0  0 
 26 27  1  0  0  0  0 
 26 28  1  0  0  0  0 
 26 29  1  0  0  0  0 
 29 30  1  0  0  0  0 
 29 31  1  0  0  0  0 
 29 32  1  0  0  0  0 
 32 33  1  0  0  0  0 
 33 34  1  0  0  0  0 
 33 35  1  0  0  0  0 
 33 36  1  0  0  0  0 
 36 37  1  0  0  0  0 
 36 38  1  0  0  0  0 
 36 39  1  0  0  0  0 
 39 40  1  0  0  0  0 
 40 41  1  0  0  0  0 
 40 42  1  0  0  0  0 
 40 43  1  0  0  0  0 
 43 44  1  0  0  0  0 
 43 45  1  0  0  0  0 
 43 46  1  0  0  0  0 
 46 47  1  0  0  0  0 
 32 48  1  0  0  0  0 
 48 49  1  0  0  0  0 
 48 50  1  0  0  0  0 
 48 51  1  0  0  0  0 
 25 51  1  0  0  0  0 
 51 52  1  0  0  0  0 
 51 53  1  0  0  0  0 
 53 54  1  0  0  0  0 
M  END
> <Rank>
25

> <Priority_score>
0.128

> <Reaction_type>
aliphatic_hydroxylation_(sec_carbon_next_to_SP2,in_a_ring)

> <Parent_ID>
85

> <Parent_InChI>
InChI=1S/C21H27ClN2O2/c22-20-8-6-19(7-9-20)21(18-4-2-1-3-5-18)24-12-10-23(11-13-24)14-16-26-17-15-25/h1-9,21,25H,10-17H2

> <Parent_SMILES>
OCCOCCN1CCN(C(c2ccccc2)c2ccc(Cl)cc2)CC1

$$$$
Molecule 85_metabolite 29
  CDK     0516241031

 52 54  0  0  0  0  0  0  0  0999 V2000
   -1.6481   -3.5205    0.0000 C   0  0  0  0  0  0  0  0  0  0  0  0
   -1.6481   -5.0205    0.0000 H   0  0  0  0  0  0  0  0  0  0  0  0
   -0.3481   -2.7705    0.0000 C   0  0  0  0  0  0  0  0  0  0  0  0
    0.9509   -3.5207    0.0000 H   0  0  0  0  0  0  0  0  0  0  0  0
   -0.3481   -1.2705    0.0000 C   0  0  0  0  0  0  0  0  0  0  0  0
    0.9509   -0.5203    0.0000 H   0  0  0  0  0  0  0  0  0  0  0  0
   -1.6481   -0.5205    0.0000 C   0  0  0  0  0  0  0  0  0  0  0  0
   -2.9481   -1.2705    0.0000 C   0  0  0  0  0  0  0  0  0  0  0  0
   -4.2470   -0.5203    0.0000 H   0  0  0  0  0  0  0  0  0  0  0  0
   -2.9481   -2.7705    0.0000 C   0  0  0  0  0  0  0  0  0  0  0  0
   -4.2470   -3.5207    0.0000 H   0  0  0  0  0  0  0  0  0  0  0  0
   -1.6481    2.4195    0.0000 C   0  0  0  0  0  0  0  0  0  0  0  0
   -2.1611    3.8290    0.0000 H   0  0  0  0  0  0  0  0  0  0  0  0
   -3.5980    2.0756    0.0000 C   0  0  0  0  0  0  0  0  0  0  0  0
   -4.5532    3.2108    0.0000 C   0  0  0  0  0  0  0  0  0  0  0  0
   -4.0376    4.6194    0.0000 H   0  0  0  0  0  0  0  0  0  0  0  0
   -6.0317    2.9577    0.0000 C   0  0  0  0  0  0  0  0  0  0  0  0
   -6.9830    4.1175    0.0000 H   0  0  0  0  0  0  0  0  0  0  0  0
   -6.5648    1.5679    0.0000 C   0  0  0  0  0  0  0  0  0  0  0  0
   -5.5947    0.4049    0.0000 C   0  0  0  0  0  0  0  0  0  0  0  0
   -6.1134   -1.0026    0.0000 H   0  0  0  0  0  0  0  0  0  0  0  0
   -4.1162    0.6579    0.0000 C   0  0  0  0  0  0  0  0  0  0  0  0
   -2.2337   -1.6003    0.0000 H   0  0  0  0  0  0  0  0  0  0  0  0
   -8.0446    1.3223    0.0000 Cl  0  0  0  0  0  0  0  0  0  0  0  0
   -0.3490    3.1695    0.0000 N   0  0  0  0  0  0  0  0  0  0  0  0
    0.9505    2.4186    0.0000 C   0  0  0  0  0  0  0  0  0  0  0  0
    1.9146    1.2695    0.0000 H   0  0  0  0  0  0  0  0  0  0  0  0
   -0.0139    1.2698    0.0000 H   0  0  0  0  0  0  0  0  0  0  0  0
    2.2495    3.1686    0.0000 C   0  0  0  0  0  0  0  0  0  0  0  0
    3.7267    3.4294    0.0000 H   0  0  0  0  0  0  0  0  0  0  0  0
    2.7627    1.7592    0.0000 H   0  0  0  0  0  0  0  0  0  0  0  0
    2.2491    4.6695    0.0000 N   0  0  0  0  0  0  0  0  0  0  0  0
    3.9638    5.6595    0.0000 C   0  0  0  0  0  0  0  0  0  0  0  0
    2.9996    6.8085    0.0000 H   0  0  0  0  0  0  0  0  0  0  0  0
    4.9280    6.8085    0.0000 H   0  0  0  0  0  0  0  0  0  0  0  0
    5.2628    4.9095    0.0000 C   0  0  0  0  0  0  0  0  0  0  0  0
    6.7400    4.6490    0.0000 H   0  0  0  0  0  0  0  0  0  0  0  0
    5.7759    6.3190    0.0000 H   0  0  0  0  0  0  0  0  0  0  0  0
    5.2628    3.4095    0.0000 O   0  0  0  0  0  0  0  0  0  0  0  0
    6.9776    2.4195    0.0000 C   0  0  0  0  0  0  0  0  0  0  0  0
    8.4548    2.1590    0.0000 H   0  0  0  0  0  0  0  0  0  0  0  0
    7.4906    3.8290    0.0000 H   0  0  0  0  0  0  0  0  0  0  0  0
    6.9776    0.9195    0.0000 C   0  0  0  0  0  0  0  0  0  0  0  0
    5.5003    1.1799    0.0000 H   0  0  0  0  0  0  0  0  0  0  0  0
    6.4645   -0.4901    0.0000 H   0  0  0  0  0  0  0  0  0  0  0  0
    8.2766    0.1695    0.0000 O   0  0  0  0  0  0  0  0  0  0  0  0
    8.2766   -1.3305    0.0000 H   0  0  0  0  0  0  0  0  0  0  0  0
    0.9495    5.4203    0.0000 C   0  0  0  0  0  0  0  0  0  0  0  0
   -0.0145    6.5695    0.0000 H   0  0  0  0  0  0  0  0  0  0  0  0
    1.9140    6.5692    0.0000 H   0  0  0  0  0  0  0  0  0  0  0  0
   -0.3495    4.6703    0.0000 C   0  0  0  0  0  0  0  0  0  0  0  0
   -1.6487    5.4201    0.0000 O   0  0  0  0  0  0  0  0  0  0  0  0
  1  2  1  0  0  0  0 
  1  3  2  0  0  0  0 
  3  4  1  0  0  0  0 
  3  5  1  0  0  0  0 
  5  6  1  0  0  0  0 
  5  7  2  0  0  0  0 
  7  8  1  0  0  0  0 
  8  9  1  0  0  0  0 
  8 10  2  0  0  0  0 
  1 10  1  0  0  0  0 
 10 11  1  0  0  0  0 
  7 12  1  0  0  0  0 
 12 13  1  0  0  0  0 
 12 14  1  0  0  0  0 
 14 15  2  0  0  0  0 
 15 16  1  0  0  0  0 
 15 17  1  0  0  0  0 
 17 18  1  0  0  0  0 
 17 19  2  0  0  0  0 
 19 20  1  0  0  0  0 
 20 21  1  0  0  0  0 
 20 22  2  0  0  0  0 
 14 22  1  0  0  0  0 
 22 23  1  0  0  0  0 
 19 24  1  0  0  0  0 
 12 25  1  0  0  0  0 
 25 26  1  0  0  0  0 
 26 27  1  0  0  0  0 
 26 28  1  0  0  0  0 
 26 29  1  0  0  0  0 
 29 30  1  0  0  0  0 
 29 31  1  0  0  0  0 
 29 32  1  0  0  0  0 
 32 33  1  0  0  0  0 
 33 34  1  0  0  0  0 
 33 35  1  0  0  0  0 
 33 36  1  0  0  0  0 
 36 37  1  0  0  0  0 
 36 38  1  0  0  0  0 
 36 39  1  0  0  0  0 
 39 40  1  0  0  0  0 
 40 41  1  0  0  0  0 
 40 42  1  0  0  0  0 
 40 43  1  0  0  0  0 
 43 44  1  0  0  0  0 
 43 45  1  0  0  0  0 
 43 46  1  0  0  0  0 
 46 47  1  0  0  0  0 
 32 48  1  0  0  0  0 
 48 49  1  0  0  0  0 
 48 50  1  0  0  0  0 
 48 51  1  0  0  0  0 
 25 51  1  0  0  0  0 
 51 52  2  0  0  0  0 
M  END
> <Rank>
25

> <Priority_score>
0.128

> <Reaction_type>
oxidation_(amine_in_a_ring)

> <Parent_ID>
85

> <Parent_InChI>
InChI=1S/C21H27ClN2O2/c22-20-8-6-19(7-9-20)21(18-4-2-1-3-5-18)24-12-10-23(11-13-24)14-16-26-17-15-25/h1-9,21,25H,10-17H2

> <Parent_SMILES>
OCCOCCN1CCN(C(c2ccccc2)c2ccc(Cl)cc2)CC1

$$$$
Molecule 85_metabolite 30
  CDK     0516241031

 51 53  0  0  0  0  0  0  0  0999 V2000
   -1.8512   -1.4683    0.0000 C   0  0  0  0  0  0  0  0  0  0  0  0
   -3.1504   -0.7185    0.0000 H   0  0  0  0  0  0  0  0  0  0  0  0
   -1.8515   -2.9692    0.0000 C   0  0  0  0  0  0  0  0  0  0  0  0
   -3.1505   -3.7192    0.0000 H   0  0  0  0  0  0  0  0  0  0  0  0
   -0.5523   -3.7189    0.0000 C   0  0  0  0  0  0  0  0  0  0  0  0
   -0.5518   -5.2189    0.0000 H   0  0  0  0  0  0  0  0  0  0  0  0
    0.7471   -2.9679    0.0000 C   0  0  0  0  0  0  0  0  0  0  0  0
    0.7473   -1.4671    0.0000 C   0  0  0  0  0  0  0  0  0  0  0  0
    2.0464   -0.7171    0.0000 H   0  0  0  0  0  0  0  0  0  0  0  0
   -0.5518   -0.7173    0.0000 C   0  0  0  0  0  0  0  0  0  0  0  0
   -0.5523    0.7827    0.0000 H   0  0  0  0  0  0  0  0  0  0  0  0
    2.0463   -3.7177    0.0000 C   0  0  0  0  0  0  0  0  0  0  0  0
    1.0823   -4.8669    0.0000 H   0  0  0  0  0  0  0  0  0  0  0  0
    3.0365   -5.4323    0.0000 C   0  0  0  0  0  0  0  0  0  0  0  0
    2.2968   -6.7182    0.0000 C   0  0  0  0  0  0  0  0  0  0  0  0
    0.7968   -6.7157    0.0000 H   0  0  0  0  0  0  0  0  0  0  0  0
    3.0404   -8.0209    0.0000 C   0  0  0  0  0  0  0  0  0  0  0  0
    2.2762   -9.3116    0.0000 H   0  0  0  0  0  0  0  0  0  0  0  0
    4.5288   -8.0463    0.0000 C   0  0  0  0  0  0  0  0  0  0  0  0
    5.2897   -6.7368    0.0000 C   0  0  0  0  0  0  0  0  0  0  0  0
    6.7897   -6.7425    0.0000 H   0  0  0  0  0  0  0  0  0  0  0  0
    4.5460   -5.4341    0.0000 C   0  0  0  0  0  0  0  0  0  0  0  0
    5.3000   -4.1374    0.0000 H   0  0  0  0  0  0  0  0  0  0  0  0
    5.2659   -9.3527    0.0000 Cl  0  0  0  0  0  0  0  0  0  0  0  0
    4.1765   -2.4874    0.0000 N   0  0  0  0  0  0  0  0  0  0  0  0
    5.4765   -3.2374    0.0000 C   0  0  0  0  0  0  0  0  0  0  0  0
    4.1775   -3.9875    0.0000 H   0  0  0  0  0  0  0  0  0  0  0  0
    7.0575   -5.1220    0.0000 H   0  0  0  0  0  0  0  0  0  0  0  0
    6.7765   -2.4874    0.0000 C   0  0  0  0  0  0  0  0  0  0  0  0
    7.2892   -3.8970    0.0000 H   0  0  0  0  0  0  0  0  0  0  0  0
    8.2537   -2.2270    0.0000 H   0  0  0  0  0  0  0  0  0  0  0  0
    6.7765   -0.9874    0.0000 N   0  0  0  0  0  0  0  0  0  0  0  0
    5.4765   -0.2374    0.0000 C   0  0  0  0  0  0  0  0  0  0  0  0
    6.4405    0.9118    0.0000 H   0  0  0  0  0  0  0  0  0  0  0  0
    4.5124    0.9118    0.0000 H   0  0  0  0  0  0  0  0  0  0  0  0
    4.1765   -0.9874    0.0000 C   0  0  0  0  0  0  0  0  0  0  0  0
    3.6638    0.4223    0.0000 H   0  0  0  0  0  0  0  0  0  0  0  0
    2.6992   -1.2477    0.0000 H   0  0  0  0  0  0  0  0  0  0  0  0
    8.4911    0.0029    0.0000 C   0  0  0  0  0  0  0  0  0  0  0  0
    9.0043   -1.4065    0.0000 H   0  0  0  0  0  0  0  0  0  0  0  0
    9.9682    0.2636    0.0000 H   0  0  0  0  0  0  0  0  0  0  0  0
    8.4908    1.5029    0.0000 C   0  0  0  0  0  0  0  0  0  0  0  0
    9.0036    2.9125    0.0000 H   0  0  0  0  0  0  0  0  0  0  0  0
    9.9681    1.2427    0.0000 H   0  0  0  0  0  0  0  0  0  0  0  0
    7.1917    2.2527    0.0000 O   0  0  0  0  0  0  0  0  0  0  0  0
    7.1914    3.7527    0.0000 C   0  0  0  0  0  0  0  0  0  0  0  0
    8.4903    4.5029    0.0000 H   0  0  0  0  0  0  0  0  0  0  0  0
    5.8923    4.5025    0.0000 C   0  0  0  0  0  0  0  0  0  0  0  0
    4.5933    3.7523    0.0000 H   0  0  0  0  0  0  0  0  0  0  0  0
    5.8920    6.0025    0.0000 O   0  0  0  0  0  0  0  0  0  0  0  0
    4.5929    6.7523    0.0000 H   0  0  0  0  0  0  0  0  0  0  0  0
  1  2  1  0  0  0  0 
  1  3  2  0  0  0  0 
  3  4  1  0  0  0  0 
  3  5  1  0  0  0  0 
  5  6  1  0  0  0  0 
  5  7  2  0  0  0  0 
  7  8  1  0  0  0  0 
  8  9  1  0  0  0  0 
  8 10  2  0  0  0  0 
  1 10  1  0  0  0  0 
 10 11  1  0  0  0  0 
  7 12  1  0  0  0  0 
 12 13  1  0  0  0  0 
 12 14  1  0  0  0  0 
 14 15  2  0  0  0  0 
 15 16  1  0  0  0  0 
 15 17  1  0  0  0  0 
 17 18  1  0  0  0  0 
 17 19  2  0  0  0  0 
 19 20  1  0  0  0  0 
 20 21  1  0  0  0  0 
 20 22  2  0  0  0  0 
 14 22  1  0  0  0  0 
 22 23  1  0  0  0  0 
 19 24  1  0  0  0  0 
 12 25  1  0  0  0  0 
 25 26  1  0  0  0  0 
 26 27  1  0  0  0  0 
 26 28  1  0  0  0  0 
 26 29  1  0  0  0  0 
 29 30  1  0  0  0  0 
 29 31  1  0  0  0  0 
 29 32  1  0  0  0  0 
 32 33  1  0  0  0  0 
 33 34  1  0  0  0  0 
 33 35  1  0  0  0  0 
 33 36  1  0  0  0  0 
 25 36  1  0  0  0  0 
 36 37  1  0  0  0  0 
 36 38  1  0  0  0  0 
 32 39  1  0  0  0  0 
 39 40  1  0  0  0  0 
 39 41  1  0  0  0  0 
 39 42  1  0  0  0  0 
 42 43  1  0  0  0  0 
 42 44  1  0  0  0  0 
 42 45  1  0  0  0  0 
 45 46  1  0  0  0  0 
 46 47  1  4  0  0  0 
 46 48  2  0  0  0  0 
 48 49  1  0  0  0  0 
 48 50  1  0  0  0  0 
 50 51  1  0  0  0  0 
M  END
> <Rank>
30

> <Priority_score>
0.1208

> <Reaction_type>
alkyl dehydrogenation

> <Parent_ID>
85

> <Parent_InChI>
InChI=1S/C21H27ClN2O2/c22-20-8-6-19(7-9-20)21(18-4-2-1-3-5-18)24-12-10-23(11-13-24)14-16-26-17-15-25/h1-9,21,25H,10-17H2

> <Parent_SMILES>
OCCOCCN1CCN(C(c2ccccc2)c2ccc(Cl)cc2)CC1

$$$$
Molecule 85_metabolite 31
  CDK     0516241031

 54 55  0  0  0  0  0  0  0  0999 V2000
    6.2289    7.5654    0.0000 C   0  0  0  0  0  0  0  0  0  0  0  0
    7.5280    8.3154    0.0000 H   0  0  0  0  0  0  0  0  0  0  0  0
    6.2294    6.0646    0.0000 C   0  0  0  0  0  0  0  0  0  0  0  0
    7.5286    5.3148    0.0000 H   0  0  0  0  0  0  0  0  0  0  0  0
    4.9304    5.3146    0.0000 C   0  0  0  0  0  0  0  0  0  0  0  0
    4.9301    3.8146    0.0000 H   0  0  0  0  0  0  0  0  0  0  0  0
    3.6308    6.0654    0.0000 C   0  0  0  0  0  0  0  0  0  0  0  0
    3.6304    7.5662    0.0000 C   0  0  0  0  0  0  0  0  0  0  0  0
    2.3312    8.3160    0.0000 H   0  0  0  0  0  0  0  0  0  0  0  0
    4.9294    8.3162    0.0000 C   0  0  0  0  0  0  0  0  0  0  0  0
    4.9296    9.8162    0.0000 H   0  0  0  0  0  0  0  0  0  0  0  0
    2.3318    5.3154    0.0000 C   0  0  0  0  0  0  0  0  0  0  0  0
    3.2960    4.1663    0.0000 H   0  0  0  0  0  0  0  0  0  0  0  0
    0.7505    3.4309    0.0000 C   0  0  0  0  0  0  0  0  0  0  0  0
    1.2560    2.0362    0.0000 C   0  0  0  0  0  0  0  0  0  0  0  0
    2.7337    1.7784    0.0000 H   0  0  0  0  0  0  0  0  0  0  0  0
    0.2976    0.8823    0.0000 C   0  0  0  0  0  0  0  0  0  0  0  0
    0.8263   -0.5215    0.0000 H   0  0  0  0  0  0  0  0  0  0  0  0
   -1.1726    1.1154    0.0000 C   0  0  0  0  0  0  0  0  0  0  0  0
   -1.6948    2.5371    0.0000 C   0  0  0  0  0  0  0  0  0  0  0  0
   -3.1730    2.7917    0.0000 H   0  0  0  0  0  0  0  0  0  0  0  0
   -0.7364    3.6910    0.0000 C   0  0  0  0  0  0  0  0  0  0  0  0
   -1.2539    5.0989    0.0000 H   0  0  0  0  0  0  0  0  0  0  0  0
   -2.1252   -0.0433    0.0000 Cl  0  0  0  0  0  0  0  0  0  0  0  0
    1.0328    6.0654    0.0000 N   0  0  0  0  0  0  0  0  0  0  0  0
   -0.2663    5.3154    0.0000 H   0  0  0  0  0  0  0  0  0  0  0  0
    1.0328    7.5654    0.0000 C   0  0  0  0  0  0  0  0  0  0  0  0
    2.5100    7.3049    0.0000 H   0  0  0  0  0  0  0  0  0  0  0  0
    1.5458    8.9749    0.0000 H   0  0  0  0  0  0  0  0  0  0  0  0
   -0.6820    8.5554    0.0000 C   0  0  0  0  0  0  0  0  0  0  0  0
   -1.6461    9.7045    0.0000 H   0  0  0  0  0  0  0  0  0  0  0  0
    0.2822    9.7045    0.0000 H   0  0  0  0  0  0  0  0  0  0  0  0
   -2.3967    7.5654    0.0000 N   0  0  0  0  0  0  0  0  0  0  0  0
   -2.3967    6.0654    0.0000 C   0  0  0  0  0  0  0  0  0  0  0  0
   -0.9195    6.3259    0.0000 H   0  0  0  0  0  0  0  0  0  0  0  0
   -1.8837    4.6559    0.0000 H   0  0  0  0  0  0  0  0  0  0  0  0
   -3.6957    5.3154    0.0000 C   0  0  0  0  0  0  0  0  0  0  0  0
   -4.9948    6.0654    0.0000 H   0  0  0  0  0  0  0  0  0  0  0  0
   -3.6957    3.8154    0.0000 O   0  0  0  0  0  0  0  0  0  0  0  0
   -3.6957    8.3154    0.0000 C   0  0  0  0  0  0  0  0  0  0  0  0
   -4.6599    9.4645    0.0000 H   0  0  0  0  0  0  0  0  0  0  0  0
   -2.7315    9.4645    0.0000 H   0  0  0  0  0  0  0  0  0  0  0  0
   -4.9948    7.5654    0.0000 C   0  0  0  0  0  0  0  0  0  0  0  0
   -4.0306    6.4163    0.0000 H   0  0  0  0  0  0  0  0  0  0  0  0
   -5.9590    6.4163    0.0000 H   0  0  0  0  0  0  0  0  0  0  0  0
   -6.7095    8.5554    0.0000 O   0  0  0  0  0  0  0  0  0  0  0  0
   -8.0085    7.8054    0.0000 C   0  0  0  0  0  0  0  0  0  0  0  0
   -7.0444    6.6563    0.0000 H   0  0  0  0  0  0  0  0  0  0  0  0
   -8.9727    6.6563    0.0000 H   0  0  0  0  0  0  0  0  0  0  0  0
   -9.3076    8.5554    0.0000 C   0  0  0  0  0  0  0  0  0  0  0  0
  -10.2718    9.7045    0.0000 H   0  0  0  0  0  0  0  0  0  0  0  0
   -8.3434    9.7045    0.0000 H   0  0  0  0  0  0  0  0  0  0  0  0
  -10.6066    7.8054    0.0000 O   0  0  0  0  0  0  0  0  0  0  0  0
  -11.9057    8.5554    0.0000 H   0  0  0  0  0  0  0  0  0  0  0  0
  1  2  1  0  0  0  0 
  1  3  2  0  0  0  0 
  3  4  1  0  0  0  0 
  3  5  1  0  0  0  0 
  5  6  1  0  0  0  0 
  5  7  2  0  0  0  0 
  7  8  1  0  0  0  0 
  8  9  1  0  0  0  0 
  8 10  2  0  0  0  0 
  1 10  1  0  0  0  0 
 10 11  1  0  0  0  0 
  7 12  1  0  0  0  0 
 12 13  1  0  0  0  0 
 12 14  1  0  0  0  0 
 14 15  2  0  0  0  0 
 15 16  1  0  0  0  0 
 15 17  1  0  0  0  0 
 17 18  1  0  0  0  0 
 17 19  2  0  0  0  0 
 19 20  1  0  0  0  0 
 20 21  1  0  0  0  0 
 20 22  2  0  0  0  0 
 14 22  1  0  0  0  0 
 22 23  1  0  0  0  0 
 19 24  1  0  0  0  0 
 12 25  1  0  0  0  0 
 25 26  1  0  0  0  0 
 25 27  1  0  0  0  0 
 27 28  1  0  0  0  0 
 27 29  1  0  0  0  0 
 27 30  1  0  0  0  0 
 30 31  1  0  0  0  0 
 30 32  1  0  0  0  0 
 30 33  1  0  0  0  0 
 33 34  1  0  0  0  0 
 34 35  1  0  0  0  0 
 34 36  1  0  0  0  0 
 34 37  1  0  0  0  0 
 37 38  1  0  0  0  0 
 37 39  2  0  0  0  0 
 33 40  1  0  0  0  0 
 40 41  1  0  0  0  0 
 40 42  1  0  0  0  0 
 40 43  1  0  0  0  0 
 43 44  1  0  0  0  0 
 43 45  1  0  0  0  0 
 43 46  1  0  0  0  0 
 46 47  1  0  0  0  0 
 47 48  1  0  0  0  0 
 47 49  1  0  0  0  0 
 47 50  1  0  0  0  0 
 50 51  1  0  0  0  0 
 50 52  1  0  0  0  0 
 50 53  1  0  0  0  0 
 53 54  1  0  0  0  0 
M  END
> <Rank>
31

> <Priority_score>
0.116

> <Reaction_type>
N-dealkylation

> <Parent_ID>
85

> <Parent_InChI>
InChI=1S/C21H27ClN2O2/c22-20-8-6-19(7-9-20)21(18-4-2-1-3-5-18)24-12-10-23(11-13-24)14-16-26-17-15-25/h1-9,21,25H,10-17H2

> <Parent_SMILES>
OCCOCCN1CCN(C(c2ccccc2)c2ccc(Cl)cc2)CC1

$$$$
Molecule 85_metabolite 32
  CDK     0516241031

 52 54  0  0  0  0  0  0  0  0999 V2000
  -10.8227    1.5205    0.0000 C   0  0  0  0  0  0  0  0  0  0  0  0
  -12.1219    2.2703    0.0000 H   0  0  0  0  0  0  0  0  0  0  0  0
   -9.5233    2.2715    0.0000 C   0  0  0  0  0  0  0  0  0  0  0  0
   -9.5238    3.7715    0.0000 H   0  0  0  0  0  0  0  0  0  0  0  0
   -8.2242    1.5217    0.0000 C   0  0  0  0  0  0  0  0  0  0  0  0
   -6.9251    2.2717    0.0000 H   0  0  0  0  0  0  0  0  0  0  0  0
   -8.2244    0.0209    0.0000 C   0  0  0  0  0  0  0  0  0  0  0  0
   -9.5238   -0.7301    0.0000 C   0  0  0  0  0  0  0  0  0  0  0  0
   -9.5233   -2.2301    0.0000 H   0  0  0  0  0  0  0  0  0  0  0  0
  -10.8230    0.0197    0.0000 C   0  0  0  0  0  0  0  0  0  0  0  0
  -12.1220   -0.7303    0.0000 H   0  0  0  0  0  0  0  0  0  0  0  0
   -6.9253   -0.7289    0.0000 C   0  0  0  0  0  0  0  0  0  0  0  0
   -6.4124    0.6807    0.0000 H   0  0  0  0  0  0  0  0  0  0  0  0
   -4.0298   -1.2389    0.0000 C   0  0  0  0  0  0  0  0  0  0  0  0
   -3.0748   -0.1037    0.0000 C   0  0  0  0  0  0  0  0  0  0  0  0
   -3.5906    1.3049    0.0000 H   0  0  0  0  0  0  0  0  0  0  0  0
   -1.5963   -0.3565    0.0000 C   0  0  0  0  0  0  0  0  0  0  0  0
   -0.6451    0.8034    0.0000 H   0  0  0  0  0  0  0  0  0  0  0  0
   -1.0629   -1.7463    0.0000 C   0  0  0  0  0  0  0  0  0  0  0  0
   -2.0328   -2.9094    0.0000 C   0  0  0  0  0  0  0  0  0  0  0  0
   -1.5140   -4.3168    0.0000 H   0  0  0  0  0  0  0  0  0  0  0  0
   -3.5114   -2.6566    0.0000 C   0  0  0  0  0  0  0  0  0  0  0  0
   -4.4717   -3.8089    0.0000 H   0  0  0  0  0  0  0  0  0  0  0  0
    0.4169   -1.9916    0.0000 Cl  0  0  0  0  0  0  0  0  0  0  0  0
   -6.9248   -3.6689    0.0000 N   0  0  0  0  0  0  0  0  0  0  0  0
   -5.6250   -4.4193    0.0000 C   0  0  0  0  0  0  0  0  0  0  0  0
   -4.6201   -1.6564    0.0000 H   0  0  0  0  0  0  0  0  0  0  0  0
   -3.2022   -4.8454    0.0000 H   0  0  0  0  0  0  0  0  0  0  0  0
   -5.6241   -5.9201    0.0000 C   0  0  0  0  0  0  0  0  0  0  0  0
   -4.1470   -5.6589    0.0000 H   0  0  0  0  0  0  0  0  0  0  0  0
   -5.1104   -7.3295    0.0000 H   0  0  0  0  0  0  0  0  0  0  0  0
   -6.9229   -6.6705    0.0000 N   0  0  0  0  0  0  0  0  0  0  0  0
   -6.9226   -8.1705    0.0000 C   0  0  0  0  0  0  0  0  0  0  0  0
   -5.6235   -8.9203    0.0000 H   0  0  0  0  0  0  0  0  0  0  0  0
   -8.2215   -8.9208    0.0000 C   0  0  0  0  0  0  0  0  0  0  0  0
   -9.1855  -10.0700    0.0000 H   0  0  0  0  0  0  0  0  0  0  0  0
   -7.2572  -10.0697    0.0000 H   0  0  0  0  0  0  0  0  0  0  0  0
   -9.5207   -8.1710    0.0000 O   0  0  0  0  0  0  0  0  0  0  0  0
  -11.2353   -9.1612    0.0000 C   0  0  0  0  0  0  0  0  0  0  0  0
  -12.1993  -10.3105    0.0000 H   0  0  0  0  0  0  0  0  0  0  0  0
  -10.2709  -10.3102    0.0000 H   0  0  0  0  0  0  0  0  0  0  0  0
  -12.5344   -8.4114    0.0000 C   0  0  0  0  0  0  0  0  0  0  0  0
  -11.5704   -7.2622    0.0000 H   0  0  0  0  0  0  0  0  0  0  0  0
  -13.4988   -7.2625    0.0000 H   0  0  0  0  0  0  0  0  0  0  0  0
  -13.8333   -9.1617    0.0000 O   0  0  0  0  0  0  0  0  0  0  0  0
  -15.1325   -8.4119    0.0000 H   0  0  0  0  0  0  0  0  0  0  0  0
   -8.2226   -5.9201    0.0000 C   0  0  0  0  0  0  0  0  0  0  0  0
   -8.7353   -7.3298    0.0000 H   0  0  0  0  0  0  0  0  0  0  0  0
   -9.6999   -5.6603    0.0000 H   0  0  0  0  0  0  0  0  0  0  0  0
   -8.2236   -4.4193    0.0000 C   0  0  0  0  0  0  0  0  0  0  0  0
   -9.7007   -4.6806    0.0000 H   0  0  0  0  0  0  0  0  0  0  0  0
   -8.7372   -3.0100    0.0000 H   0  0  0  0  0  0  0  0  0  0  0  0
  1  2  1  0  0  0  0 
  1  3  2  0  0  0  0 
  3  4  1  0  0  0  0 
  3  5  1  0  0  0  0 
  5  6  1  0  0  0  0 
  5  7  2  0  0  0  0 
  7  8  1  0  0  0  0 
  8  9  1  0  0  0  0 
  8 10  2  0  0  0  0 
  1 10  1  0  0  0  0 
 10 11  1  0  0  0  0 
  7 12  1  0  0  0  0 
 12 13  1  0  0  0  0 
 12 14  1  0  0  0  0 
 14 15  2  0  0  0  0 
 15 16  1  0  0  0  0 
 15 17  1  0  0  0  0 
 17 18  1  0  0  0  0 
 17 19  2  0  0  0  0 
 19 20  1  0  0  0  0 
 20 21  1  0  0  0  0 
 20 22  2  0  0  0  0 
 14 22  1  0  0  0  0 
 22 23  1  0  0  0  0 
 19 24  1  0  0  0  0 
 12 25  1  0  0  0  0 
 25 26  1  0  0  0  0 
 26 27  1  0  0  0  0 
 26 28  1  0  0  0  0 
 26 29  1  0  0  0  0 
 29 30  1  0  0  0  0 
 29 31  1  0  0  0  0 
 29 32  1  0  0  0  0 
 32 33  2  0  0  0  0 
 33 34  1  4  0  0  0 
 33 35  1  0  0  0  0 
 35 36  1  0  0  0  0 
 35 37  1  0  0  0  0 
 35 38  1  0  0  0  0 
 38 39  1  0  0  0  0 
 39 40  1  0  0  0  0 
 39 41  1  0  0  0  0 
 39 42  1  0  0  0  0 
 42 43  1  0  0  0  0 
 42 44  1  0  0  0  0 
 42 45  1  0  0  0  0 
 45 46  1  0  0  0  0 
 32 47  1  0  0  0  0 
 47 48  1  0  0  0  0 
 47 49  1  0  0  0  0 
 47 50  1  0  0  0  0 
 25 50  1  0  0  0  0 
 50 51  1  0  0  0  0 
 50 52  1  0  0  0  0 
M  CHG  1  32   1
M  END
> <Rank>
32

> <Priority_score>
0.09280000000000001

> <Reaction_type>
dehydration of N-C bond

> <Parent_ID>
85

> <Parent_InChI>
InChI=1S/C21H27ClN2O2/c22-20-8-6-19(7-9-20)21(18-4-2-1-3-5-18)24-12-10-23(11-13-24)14-16-26-17-15-25/h1-9,21,25H,10-17H2

> <Parent_SMILES>
OCCOCCN1CCN(C(c2ccccc2)c2ccc(Cl)cc2)CC1

$$$$
Molecule 85_metabolite 33
  CDK     0516241031

 51 53  0  0  0  0  0  0  0  0999 V2000
   -1.3153    4.0549    0.0000 C   0  0  0  0  0  0  0  0  0  0  0  0
   -1.3155    5.5549    0.0000 H   0  0  0  0  0  0  0  0  0  0  0  0
   -2.6152    3.3046    0.0000 C   0  0  0  0  0  0  0  0  0  0  0  0
   -3.9142    4.0546    0.0000 H   0  0  0  0  0  0  0  0  0  0  0  0
   -2.6149    1.8046    0.0000 C   0  0  0  0  0  0  0  0  0  0  0  0
   -3.9137    1.0542    0.0000 H   0  0  0  0  0  0  0  0  0  0  0  0
   -1.3148    1.0549    0.0000 C   0  0  0  0  0  0  0  0  0  0  0  0
   -0.0149    1.8051    0.0000 C   0  0  0  0  0  0  0  0  0  0  0  0
    1.2841    1.0551    0.0000 H   0  0  0  0  0  0  0  0  0  0  0  0
   -0.0152    3.3051    0.0000 C   0  0  0  0  0  0  0  0  0  0  0  0
    1.2836    4.0555    0.0000 H   0  0  0  0  0  0  0  0  0  0  0  0
   -1.3146   -0.4451    0.0000 C   0  0  0  0  0  0  0  0  0  0  0  0
   -2.7918   -0.1849    0.0000 H   0  0  0  0  0  0  0  0  0  0  0  0
   -2.3043   -2.1600    0.0000 C   0  0  0  0  0  0  0  0  0  0  0  0
   -3.7878   -2.1623    0.0000 C   0  0  0  0  0  0  0  0  0  0  0  0
   -4.5357   -0.8621    0.0000 H   0  0  0  0  0  0  0  0  0  0  0  0
   -4.5441   -3.4577    0.0000 C   0  0  0  0  0  0  0  0  0  0  0  0
   -6.0440   -3.4413    0.0000 H   0  0  0  0  0  0  0  0  0  0  0  0
   -3.8219   -4.7594    0.0000 C   0  0  0  0  0  0  0  0  0  0  0  0
   -2.3075   -4.7636    0.0000 C   0  0  0  0  0  0  0  0  0  0  0  0
   -1.5624   -6.0655    0.0000 H   0  0  0  0  0  0  0  0  0  0  0  0
   -1.5511   -3.4682    0.0000 C   0  0  0  0  0  0  0  0  0  0  0  0
   -0.0512   -3.4728    0.0000 H   0  0  0  0  0  0  0  0  0  0  0  0
   -4.5848   -6.0510    0.0000 Cl  0  0  0  0  0  0  0  0  0  0  0  0
    0.8161   -1.6748    0.0000 N   0  0  0  0  0  0  0  0  0  0  0  0
    0.8165   -3.1756    0.0000 C   0  0  0  0  0  0  0  0  0  0  0  0
   -0.4826   -2.4258    0.0000 H   0  0  0  0  0  0  0  0  0  0  0  0
   -0.0251   -5.4872    0.0000 H   0  0  0  0  0  0  0  0  0  0  0  0
    2.1161   -3.9265    0.0000 C   0  0  0  0  0  0  0  0  0  0  0  0
    1.1516   -5.0753    0.0000 H   0  0  0  0  0  0  0  0  0  0  0  0
    3.0801   -5.0756    0.0000 H   0  0  0  0  0  0  0  0  0  0  0  0
    3.4151   -3.1765    0.0000 N   0  0  0  0  0  0  0  0  0  0  0  0
    3.4146   -1.6756    0.0000 C   0  0  0  0  0  0  0  0  0  0  0  0
    4.8919   -1.9360    0.0000 H   0  0  0  0  0  0  0  0  0  0  0  0
    3.9278   -0.2662    0.0000 H   0  0  0  0  0  0  0  0  0  0  0  0
    2.1151   -0.9248    0.0000 C   0  0  0  0  0  0  0  0  0  0  0  0
    3.0795    0.2241    0.0000 H   0  0  0  0  0  0  0  0  0  0  0  0
    1.1510    0.2244    0.0000 H   0  0  0  0  0  0  0  0  0  0  0  0
    4.7143   -3.9263    0.0000 C   0  0  0  0  0  0  0  0  0  0  0  0
    4.7145   -5.4263    0.0000 H   0  0  0  0  0  0  0  0  0  0  0  0
    6.0132   -3.1761    0.0000 C   0  0  0  0  0  0  0  0  0  0  0  0
    6.0129   -1.6761    0.0000 H   0  0  0  0  0  0  0  0  0  0  0  0
    7.3123   -3.9258    0.0000 O   0  0  0  0  0  0  0  0  0  0  0  0
    8.6112   -3.1756    0.0000 C   0  0  0  0  0  0  0  0  0  0  0  0
    9.5752   -2.0264    0.0000 H   0  0  0  0  0  0  0  0  0  0  0  0
    7.6469   -2.0267    0.0000 H   0  0  0  0  0  0  0  0  0  0  0  0
    9.9104   -3.9254    0.0000 C   0  0  0  0  0  0  0  0  0  0  0  0
    8.9464   -5.0746    0.0000 H   0  0  0  0  0  0  0  0  0  0  0  0
   10.8748   -5.0743    0.0000 H   0  0  0  0  0  0  0  0  0  0  0  0
   11.2093   -3.1752    0.0000 O   0  0  0  0  0  0  0  0  0  0  0  0
   12.5085   -3.9250    0.0000 H   0  0  0  0  0  0  0  0  0  0  0  0
  1  2  1  0  0  0  0 
  1  3  2  0  0  0  0 
  3  4  1  0  0  0  0 
  3  5  1  0  0  0  0 
  5  6  1  0  0  0  0 
  5  7  2  0  0  0  0 
  7  8  1  0  0  0  0 
  8  9  1  0  0  0  0 
  8 10  2  0  0  0  0 
  1 10  1  0  0  0  0 
 10 11  1  0  0  0  0 
  7 12  1  0  0  0  0 
 12 13  1  0  0  0  0 
 12 14  1  0  0  0  0 
 14 15  2  0  0  0  0 
 15 16  1  0  0  0  0 
 15 17  1  0  0  0  0 
 17 18  1  0  0  0  0 
 17 19  2  0  0  0  0 
 19 20  1  0  0  0  0 
 20 21  1  0  0  0  0 
 20 22  2  0  0  0  0 
 14 22  1  0  0  0  0 
 22 23  1  0  0  0  0 
 19 24  1  0  0  0  0 
 12 25  1  0  0  0  0 
 25 26  1  0  0  0  0 
 26 27  1  0  0  0  0 
 26 28  1  0  0  0  0 
 26 29  1  0  0  0  0 
 29 30  1  0  0  0  0 
 29 31  1  0  0  0  0 
 29 32  1  0  0  0  0 
 32 33  1  0  0  0  0 
 33 34  1  0  0  0  0 
 33 35  1  0  0  0  0 
 33 36  1  0  0  0  0 
 25 36  1  0  0  0  0 
 36 37  1  0  0  0  0 
 36 38  1  0  0  0  0 
 32 39  1  0  0  0  0 
 39 40  1  4  0  0  0 
 39 41  2  0  0  0  0 
 41 42  1  0  0  0  0 
 41 43  1  0  0  0  0 
 43 44  1  0  0  0  0 
 44 45  1  0  0  0  0 
 44 46  1  0  0  0  0 
 44 47  1  0  0  0  0 
 47 48  1  0  0  0  0 
 47 49  1  0  0  0  0 
 47 50  1  0  0  0  0 
 50 51  1  0  0  0  0 
M  END
> <Rank>
32

> <Priority_score>
0.09280000000000001

> <Reaction_type>
alkyl dehydrogenation

> <Parent_ID>
85

> <Parent_InChI>
InChI=1S/C21H27ClN2O2/c22-20-8-6-19(7-9-20)21(18-4-2-1-3-5-18)24-12-10-23(11-13-24)14-16-26-17-15-25/h1-9,21,25H,10-17H2

> <Parent_SMILES>
OCCOCCN1CCN(C(c2ccccc2)c2ccc(Cl)cc2)CC1

$$$$
Molecule 85_metabolite 34
  CDK     0516241031

 54 56  0  0  0  0  0  0  0  0999 V2000
    6.1514   -6.3089    0.0000 C   0  0  0  0  0  0  0  0  0  0  0  0
    6.1516   -7.8089    0.0000 H   0  0  0  0  0  0  0  0  0  0  0  0
    7.4513   -5.5587    0.0000 C   0  0  0  0  0  0  0  0  0  0  0  0
    8.7503   -6.3087    0.0000 H   0  0  0  0  0  0  0  0  0  0  0  0
    7.4510   -4.0587    0.0000 C   0  0  0  0  0  0  0  0  0  0  0  0
    8.7498   -3.3082    0.0000 H   0  0  0  0  0  0  0  0  0  0  0  0
    6.1509   -3.3089    0.0000 C   0  0  0  0  0  0  0  0  0  0  0  0
    4.8510   -4.0591    0.0000 C   0  0  0  0  0  0  0  0  0  0  0  0
    3.5520   -3.3091    0.0000 H   0  0  0  0  0  0  0  0  0  0  0  0
    4.8513   -5.5591    0.0000 C   0  0  0  0  0  0  0  0  0  0  0  0
    3.5525   -6.3095    0.0000 H   0  0  0  0  0  0  0  0  0  0  0  0
    6.1507   -1.8089    0.0000 C   0  0  0  0  0  0  0  0  0  0  0  0
    7.6279   -2.0691    0.0000 H   0  0  0  0  0  0  0  0  0  0  0  0
    7.1404   -0.0940    0.0000 C   0  0  0  0  0  0  0  0  0  0  0  0
    8.6239   -0.0917    0.0000 C   0  0  0  0  0  0  0  0  0  0  0  0
    9.3718   -1.3919    0.0000 H   0  0  0  0  0  0  0  0  0  0  0  0
    9.3802    1.2037    0.0000 C   0  0  0  0  0  0  0  0  0  0  0  0
   10.8801    1.1872    0.0000 H   0  0  0  0  0  0  0  0  0  0  0  0
    8.6580    2.5054    0.0000 C   0  0  0  0  0  0  0  0  0  0  0  0
    7.1436    2.5096    0.0000 C   0  0  0  0  0  0  0  0  0  0  0  0
    6.3985    3.8115    0.0000 H   0  0  0  0  0  0  0  0  0  0  0  0
    6.3872    1.2142    0.0000 C   0  0  0  0  0  0  0  0  0  0  0  0
    4.8873    1.2188    0.0000 H   0  0  0  0  0  0  0  0  0  0  0  0
    9.4209    3.7969    0.0000 Cl  0  0  0  0  0  0  0  0  0  0  0  0
    4.0200   -0.5792    0.0000 N   0  0  0  0  0  0  0  0  0  0  0  0
    4.0196    0.9216    0.0000 C   0  0  0  0  0  0  0  0  0  0  0  0
    5.3187    0.1718    0.0000 H   0  0  0  0  0  0  0  0  0  0  0  0
    4.8612    3.2332    0.0000 H   0  0  0  0  0  0  0  0  0  0  0  0
    2.7200    1.6725    0.0000 C   0  0  0  0  0  0  0  0  0  0  0  0
    3.6845    2.8213    0.0000 H   0  0  0  0  0  0  0  0  0  0  0  0
    1.7560    2.8216    0.0000 H   0  0  0  0  0  0  0  0  0  0  0  0
    1.4210    0.9225    0.0000 N   0  0  0  0  0  0  0  0  0  0  0  0
    1.4215   -0.5784    0.0000 C   0  0  0  0  0  0  0  0  0  0  0  0
   -0.0558   -0.3181    0.0000 H   0  0  0  0  0  0  0  0  0  0  0  0
    0.9083   -1.9879    0.0000 H   0  0  0  0  0  0  0  0  0  0  0  0
    2.7210   -1.3292    0.0000 C   0  0  0  0  0  0  0  0  0  0  0  0
    1.7566   -2.4781    0.0000 H   0  0  0  0  0  0  0  0  0  0  0  0
    3.6851   -2.4784    0.0000 H   0  0  0  0  0  0  0  0  0  0  0  0
   -0.2939    1.9122    0.0000 C   0  0  0  0  0  0  0  0  0  0  0  0
    0.6701    3.0614    0.0000 H   0  0  0  0  0  0  0  0  0  0  0  0
   -1.2582    3.0611    0.0000 H   0  0  0  0  0  0  0  0  0  0  0  0
   -1.5928    1.1620    0.0000 C   0  0  0  0  0  0  0  0  0  0  0  0
   -3.0700    0.9013    0.0000 H   0  0  0  0  0  0  0  0  0  0  0  0
   -2.1061    2.5714    0.0000 O   0  0  0  0  0  0  0  0  0  0  0  0
   -3.5833    2.8317    0.0000 H   0  0  0  0  0  0  0  0  0  0  0  0
   -1.5926   -0.3380    0.0000 O   0  0  0  0  0  0  0  0  0  0  0  0
   -3.3071   -1.3283    0.0000 C   0  0  0  0  0  0  0  0  0  0  0  0
   -4.7843   -1.5890    0.0000 H   0  0  0  0  0  0  0  0  0  0  0  0
   -3.8204    0.0812    0.0000 H   0  0  0  0  0  0  0  0  0  0  0  0
   -3.3069   -2.8283    0.0000 C   0  0  0  0  0  0  0  0  0  0  0  0
   -1.8297   -2.5676    0.0000 H   0  0  0  0  0  0  0  0  0  0  0  0
   -2.7936   -4.2378    0.0000 H   0  0  0  0  0  0  0  0  0  0  0  0
   -4.6058   -3.5785    0.0000 O   0  0  0  0  0  0  0  0  0  0  0  0
   -4.6056   -5.0785    0.0000 H   0  0  0  0  0  0  0  0  0  0  0  0
  1  2  1  0  0  0  0 
  1  3  2  0  0  0  0 
  3  4  1  0  0  0  0 
  3  5  1  0  0  0  0 
  5  6  1  0  0  0  0 
  5  7  2  0  0  0  0 
  7  8  1  0  0  0  0 
  8  9  1  0  0  0  0 
  8 10  2  0  0  0  0 
  1 10  1  0  0  0  0 
 10 11  1  0  0  0  0 
  7 12  1  0  0  0  0 
 12 13  1  0  0  0  0 
 12 14  1  0  0  0  0 
 14 15  2  0  0  0  0 
 15 16  1  0  0  0  0 
 15 17  1  0  0  0  0 
 17 18  1  0  0  0  0 
 17 19  2  0  0  0  0 
 19 20  1  0  0  0  0 
 20 21  1  0  0  0  0 
 20 22  2  0  0  0  0 
 14 22  1  0  0  0  0 
 22 23  1  0  0  0  0 
 19 24  1  0  0  0  0 
 12 25  1  0  0  0  0 
 25 26  1  0  0  0  0 
 26 27  1  0  0  0  0 
 26 28  1  0  0  0  0 
 26 29  1  0  0  0  0 
 29 30  1  0  0  0  0 
 29 31  1  0  0  0  0 
 29 32  1  0  0  0  0 
 32 33  1  0  0  0  0 
 33 34  1  0  0  0  0 
 33 35  1  0  0  0  0 
 33 36  1  0  0  0  0 
 25 36  1  0  0  0  0 
 36 37  1  0  0  0  0 
 36 38  1  0  0  0  0 
 32 39  1  0  0  0  0 
 39 40  1  0  0  0  0 
 39 41  1  0  0  0  0 
 39 42  1  0  0  0  0 
 42 43  1  0  0  0  0 
 42 44  1  0  0  0  0 
 44 45  1  0  0  0  0 
 42 46  1  0  0  0  0 
 46 47  1  0  0  0  0 
 47 48  1  0  0  0  0 
 47 49  1  0  0  0  0 
 47 50  1  0  0  0  0 
 50 51  1  0  0  0  0 
 50 52  1  0  0  0  0 
 50 53  1  0  0  0  0 
 53 54  1  0  0  0  0 
M  END
> <Rank>
34

> <Priority_score>
0.064

> <Reaction_type>
aliphatic hydroxylation

> <Parent_ID>
85

> <Parent_InChI>
InChI=1S/C21H27ClN2O2/c22-20-8-6-19(7-9-20)21(18-4-2-1-3-5-18)24-12-10-23(11-13-24)14-16-26-17-15-25/h1-9,21,25H,10-17H2

> <Parent_SMILES>
OCCOCCN1CCN(C(c2ccccc2)c2ccc(Cl)cc2)CC1

$$$$
Molecule 85_metabolite 35
  CDK     0516241031

 54 56  0  0  0  0  0  0  0  0999 V2000
    2.9894    3.7086    0.0000 C   0  0  0  0  0  0  0  0  0  0  0  0
    3.7392    5.0077    0.0000 H   0  0  0  0  0  0  0  0  0  0  0  0
    1.4886    3.7088    0.0000 C   0  0  0  0  0  0  0  0  0  0  0  0
    0.7386    5.0079    0.0000 H   0  0  0  0  0  0  0  0  0  0  0  0
    0.7388    2.4097    0.0000 C   0  0  0  0  0  0  0  0  0  0  0  0
   -0.7612    2.4092    0.0000 H   0  0  0  0  0  0  0  0  0  0  0  0
    1.4899    1.1103    0.0000 C   0  0  0  0  0  0  0  0  0  0  0  0
    2.9907    1.1100    0.0000 C   0  0  0  0  0  0  0  0  0  0  0  0
    3.7407   -0.1890    0.0000 H   0  0  0  0  0  0  0  0  0  0  0  0
    3.7405    2.4092    0.0000 C   0  0  0  0  0  0  0  0  0  0  0  0
    5.2405    2.4097    0.0000 H   0  0  0  0  0  0  0  0  0  0  0  0
    0.7401   -0.1889    0.0000 C   0  0  0  0  0  0  0  0  0  0  0  0
   -0.4091    0.7751    0.0000 H   0  0  0  0  0  0  0  0  0  0  0  0
   -0.9745   -1.1792    0.0000 C   0  0  0  0  0  0  0  0  0  0  0  0
   -0.9745   -2.6800    0.0000 C   0  0  0  0  0  0  0  0  0  0  0  0
    0.3248   -3.4296    0.0000 H   0  0  0  0  0  0  0  0  0  0  0  0
   -2.2738   -3.4313    0.0000 C   0  0  0  0  0  0  0  0  0  0  0  0
   -2.2731   -4.9313    0.0000 H   0  0  0  0  0  0  0  0  0  0  0  0
   -3.5731   -2.6817    0.0000 C   0  0  0  0  0  0  0  0  0  0  0  0
   -3.5731   -1.1808    0.0000 C   0  0  0  0  0  0  0  0  0  0  0  0
   -4.8723   -0.4313    0.0000 H   0  0  0  0  0  0  0  0  0  0  0  0
   -2.2738   -0.4296    0.0000 C   0  0  0  0  0  0  0  0  0  0  0  0
   -2.2745    1.0704    0.0000 O   0  0  0  0  0  0  0  0  0  0  0  0
   -3.5739    1.8198    0.0000 H   0  0  0  0  0  0  0  0  0  0  0  0
   -4.8720   -3.4319    0.0000 Cl  0  0  0  0  0  0  0  0  0  0  0  0
    1.9704   -2.3191    0.0000 N   0  0  0  0  0  0  0  0  0  0  0  0
    1.2204   -3.6191    0.0000 C   0  0  0  0  0  0  0  0  0  0  0  0
    0.4703   -2.3202    0.0000 H   0  0  0  0  0  0  0  0  0  0  0  0
   -0.6642   -5.2002    0.0000 H   0  0  0  0  0  0  0  0  0  0  0  0
    1.9704   -4.9191    0.0000 C   0  0  0  0  0  0  0  0  0  0  0  0
    0.5608   -5.4319    0.0000 H   0  0  0  0  0  0  0  0  0  0  0  0
    2.2307   -6.3964    0.0000 H   0  0  0  0  0  0  0  0  0  0  0  0
    3.4704   -4.9191    0.0000 N   0  0  0  0  0  0  0  0  0  0  0  0
    4.2204   -3.6191    0.0000 C   0  0  0  0  0  0  0  0  0  0  0  0
    5.3696   -4.5832    0.0000 H   0  0  0  0  0  0  0  0  0  0  0  0
    5.3696   -2.6551    0.0000 H   0  0  0  0  0  0  0  0  0  0  0  0
    3.4704   -2.3191    0.0000 C   0  0  0  0  0  0  0  0  0  0  0  0
    4.8801   -1.8064    0.0000 H   0  0  0  0  0  0  0  0  0  0  0  0
    3.2101   -0.8419    0.0000 H   0  0  0  0  0  0  0  0  0  0  0  0
    4.4607   -6.6337    0.0000 C   0  0  0  0  0  0  0  0  0  0  0  0
    3.0512   -7.1470    0.0000 H   0  0  0  0  0  0  0  0  0  0  0  0
    4.7214   -8.1109    0.0000 H   0  0  0  0  0  0  0  0  0  0  0  0
    5.9607   -6.6335    0.0000 C   0  0  0  0  0  0  0  0  0  0  0  0
    7.3703   -7.1463    0.0000 H   0  0  0  0  0  0  0  0  0  0  0  0
    5.7005   -8.1107    0.0000 H   0  0  0  0  0  0  0  0  0  0  0  0
    6.7105   -5.3343    0.0000 O   0  0  0  0  0  0  0  0  0  0  0  0
    8.6905   -5.3340    0.0000 C   0  0  0  0  0  0  0  0  0  0  0  0
   10.1001   -5.8468    0.0000 H   0  0  0  0  0  0  0  0  0  0  0  0
    8.4302   -6.8112    0.0000 H   0  0  0  0  0  0  0  0  0  0  0  0
    9.4403   -4.0348    0.0000 C   0  0  0  0  0  0  0  0  0  0  0  0
    8.0307   -3.5220    0.0000 H   0  0  0  0  0  0  0  0  0  0  0  0
    9.7005   -2.5576    0.0000 H   0  0  0  0  0  0  0  0  0  0  0  0
   10.9403   -4.0346    0.0000 O   0  0  0  0  0  0  0  0  0  0  0  0
   11.6901   -2.7354    0.0000 H   0  0  0  0  0  0  0  0  0  0  0  0
  1  2  1  0  0  0  0 
  1  3  2  0  0  0  0 
  3  4  1  0  0  0  0 
  3  5  1  0  0  0  0 
  5  6  1  0  0  0  0 
  5  7  2  0  0  0  0 
  7  8  1  0  0  0  0 
  8  9  1  0  0  0  0 
  8 10  2  0  0  0  0 
  1 10  1  0  0  0  0 
 10 11  1  0  0  0  0 
  7 12  1  0  0  0  0 
 12 13  1  0  0  0  0 
 12 14  1  0  0  0  0 
 14 15  2  0  0  0  0 
 15 16  1  0  0  0  0 
 15 17  1  0  0  0  0 
 17 18  1  0  0  0  0 
 17 19  2  0  0  0  0 
 19 20  1  0  0  0  0 
 20 21  1  0  0  0  0 
 20 22  2  0  0  0  0 
 14 22  1  0  0  0  0 
 22 23  1  0  0  0  0 
 23 24  1  0  0  0  0 
 19 25  1  0  0  0  0 
 12 26  1  0  0  0  0 
 26 27  1  0  0  0  0 
 27 28  1  0  0  0  0 
 27 29  1  0  0  0  0 
 27 30  1  0  0  0  0 
 30 31  1  0  0  0  0 
 30 32  1  0  0  0  0 
 30 33  1  0  0  0  0 
 33 34  1  0  0  0  0 
 34 35  1  0  0  0  0 
 34 36  1  0  0  0  0 
 34 37  1  0  0  0  0 
 26 37  1  0  0  0  0 
 37 38  1  0  0  0  0 
 37 39  1  0  0  0  0 
 33 40  1  0  0  0  0 
 40 41  1  0  0  0  0 
 40 42  1  0  0  0  0 
 40 43  1  0  0  0  0 
 43 44  1  0  0  0  0 
 43 45  1  0  0  0  0 
 43 46  1  0  0  0  0 
 46 47  1  0  0  0  0 
 47 48  1  0  0  0  0 
 47 49  1  0  0  0  0 
 47 50  1  0  0  0  0 
 50 51  1  0  0  0  0 
 50 52  1  0  0  0  0 
 50 53  1  0  0  0  0 
 53 54  1  0  0  0  0 
M  END
> <Rank>
35

> <Priority_score>
0.052

> <Reaction_type>
aromatic hydroxylation

> <Parent_ID>
85

> <Parent_InChI>
InChI=1S/C21H27ClN2O2/c22-20-8-6-19(7-9-20)21(18-4-2-1-3-5-18)24-12-10-23(11-13-24)14-16-26-17-15-25/h1-9,21,25H,10-17H2

> <Parent_SMILES>
OCCOCCN1CCN(C(c2ccccc2)c2ccc(Cl)cc2)CC1

$$$$
Molecule 85_metabolite 36
  CDK     0516241031

 52 54  0  0  0  0  0  0  0  0999 V2000
   -6.2068    5.7391    0.0000 C   0  0  0  0  0  0  0  0  0  0  0  0
   -7.5060    6.4888    0.0000 H   0  0  0  0  0  0  0  0  0  0  0  0
   -6.2071    4.2382    0.0000 C   0  0  0  0  0  0  0  0  0  0  0  0
   -7.5061    3.4882    0.0000 H   0  0  0  0  0  0  0  0  0  0  0  0
   -4.9079    3.4884    0.0000 C   0  0  0  0  0  0  0  0  0  0  0  0
   -4.9074    1.9884    0.0000 H   0  0  0  0  0  0  0  0  0  0  0  0
   -3.6085    4.2395    0.0000 C   0  0  0  0  0  0  0  0  0  0  0  0
   -3.6083    5.7403    0.0000 C   0  0  0  0  0  0  0  0  0  0  0  0
   -2.3092    6.4903    0.0000 H   0  0  0  0  0  0  0  0  0  0  0  0
   -4.9074    6.4901    0.0000 C   0  0  0  0  0  0  0  0  0  0  0  0
   -4.9079    7.9901    0.0000 H   0  0  0  0  0  0  0  0  0  0  0  0
   -1.8936    3.2497    0.0000 C   0  0  0  0  0  0  0  0  0  0  0  0
   -0.5947    4.0000    0.0000 N   0  0  0  0  0  0  0  0  0  0  0  0
    0.7053    3.2500    0.0000 C   0  0  0  0  0  0  0  0  0  0  0  0
   -0.2588    2.1008    0.0000 H   0  0  0  0  0  0  0  0  0  0  0  0
    1.6693    2.1008    0.0000 H   0  0  0  0  0  0  0  0  0  0  0  0
    2.0053    4.0000    0.0000 C   0  0  0  0  0  0  0  0  0  0  0  0
    2.5180    2.5903    0.0000 H   0  0  0  0  0  0  0  0  0  0  0  0
    3.4825    4.2603    0.0000 H   0  0  0  0  0  0  0  0  0  0  0  0
    2.0053    5.5000    0.0000 N   0  0  0  0  0  0  0  0  0  0  0  0
    0.7053    6.2500    0.0000 C   0  0  0  0  0  0  0  0  0  0  0  0
    1.6693    7.3991    0.0000 H   0  0  0  0  0  0  0  0  0  0  0  0
   -0.2588    7.3991    0.0000 H   0  0  0  0  0  0  0  0  0  0  0  0
   -0.5947    5.5000    0.0000 C   0  0  0  0  0  0  0  0  0  0  0  0
   -1.1074    6.9096    0.0000 H   0  0  0  0  0  0  0  0  0  0  0  0
   -2.0719    5.2396    0.0000 H   0  0  0  0  0  0  0  0  0  0  0  0
    3.7199    6.4902    0.0000 C   0  0  0  0  0  0  0  0  0  0  0  0
    4.6839    7.6395    0.0000 H   0  0  0  0  0  0  0  0  0  0  0  0
    2.7555    7.6391    0.0000 H   0  0  0  0  0  0  0  0  0  0  0  0
    5.0190    5.7404    0.0000 C   0  0  0  0  0  0  0  0  0  0  0  0
    5.5318    7.1501    0.0000 H   0  0  0  0  0  0  0  0  0  0  0  0
    6.4963    5.4802    0.0000 H   0  0  0  0  0  0  0  0  0  0  0  0
    5.0193    4.2404    0.0000 O   0  0  0  0  0  0  0  0  0  0  0  0
    6.7341    3.2507    0.0000 C   0  0  0  0  0  0  0  0  0  0  0  0
    7.2470    4.6603    0.0000 H   0  0  0  0  0  0  0  0  0  0  0  0
    8.2114    2.9905    0.0000 H   0  0  0  0  0  0  0  0  0  0  0  0
    6.7344    1.7507    0.0000 C   0  0  0  0  0  0  0  0  0  0  0  0
    6.2216    0.3411    0.0000 H   0  0  0  0  0  0  0  0  0  0  0  0
    5.2571    2.0110    0.0000 H   0  0  0  0  0  0  0  0  0  0  0  0
    8.0335    1.0009    0.0000 O   0  0  0  0  0  0  0  0  0  0  0  0
    8.0338   -0.4991    0.0000 H   0  0  0  0  0  0  0  0  0  0  0  0
   -1.8933    1.2697    0.0000 C   0  0  0  0  0  0  0  0  0  0  0  0
   -3.1769    0.5260    0.0000 C   0  0  0  0  0  0  0  0  0  0  0  0
   -4.4747    1.2781    0.0000 H   0  0  0  0  0  0  0  0  0  0  0  0
   -3.1842   -0.9740    0.0000 C   0  0  0  0  0  0  0  0  0  0  0  0
   -4.4914   -1.7097    0.0000 H   0  0  0  0  0  0  0  0  0  0  0  0
   -1.9080   -1.7402    0.0000 C   0  0  0  0  0  0  0  0  0  0  0  0
   -0.5943   -0.9866    0.0000 C   0  0  0  0  0  0  0  0  0  0  0  0
    0.7019   -1.7415    0.0000 H   0  0  0  0  0  0  0  0  0  0  0  0
   -0.5870    0.5134    0.0000 C   0  0  0  0  0  0  0  0  0  0  0  0
    0.7143    1.2594    0.0000 H   0  0  0  0  0  0  0  0  0  0  0  0
   -1.9228   -3.2401    0.0000 Cl  0  0  0  0  0  0  0  0  0  0  0  0
  1  2  1  0  0  0  0 
  1  3  2  0  0  0  0 
  3  4  1  0  0  0  0 
  3  5  1  0  0  0  0 
  5  6  1  0  0  0  0 
  5  7  2  0  0  0  0 
  7  8  1  0  0  0  0 
  8  9  1  0  0  0  0 
  8 10  2  0  0  0  0 
  1 10  1  0  0  0  0 
 10 11  1  0  0  0  0 
  7 12  1  4  0  0  0 
 12 13  2  0  0  0  0 
 13 14  1  0  0  0  0 
 14 15  1  0  0  0  0 
 14 16  1  0  0  0  0 
 14 17  1  0  0  0  0 
 17 18  1  0  0  0  0 
 17 19  1  0  0  0  0 
 17 20  1  0  0  0  0 
 20 21  1  0  0  0  0 
 21 22  1  0  0  0  0 
 21 23  1  0  0  0  0 
 21 24  1  0  0  0  0 
 13 24  1  0  0  0  0 
 24 25  1  0  0  0  0 
 24 26  1  0  0  0  0 
 20 27  1  0  0  0  0 
 27 28  1  0  0  0  0 
 27 29  1  0  0  0  0 
 27 30  1  0  0  0  0 
 30 31  1  0  0  0  0 
 30 32  1  0  0  0  0 
 30 33  1  0  0  0  0 
 33 34  1  0  0  0  0 
 34 35  1  0  0  0  0 
 34 36  1  0  0  0  0 
 34 37  1  0  0  0  0 
 37 38  1  0  0  0  0 
 37 39  1  0  0  0  0 
 37 40  1  0  0  0  0 
 40 41  1  0  0  0  0 
 12 42  1  0  0  0  0 
 42 43  2  0  0  0  0 
 43 44  1  0  0  0  0 
 43 45  1  0  0  0  0 
 45 46  1  0  0  0  0 
 45 47  2  0  0  0  0 
 47 48  1  0  0  0  0 
 48 49  1  0  0  0  0 
 48 50  2  0  0  0  0 
 42 50  1  0  0  0  0 
 50 51  1  0  0  0  0 
 47 52  1  0  0  0  0 
M  CHG  1  13   1
M  END
> <Rank>
36

> <Priority_score>
0.049393848751485246

> <Reaction_type>
dehydration of N-C bond

> <Parent_ID>
85

> <Parent_InChI>
InChI=1S/C21H27ClN2O2/c22-20-8-6-19(7-9-20)21(18-4-2-1-3-5-18)24-12-10-23(11-13-24)14-16-26-17-15-25/h1-9,21,25H,10-17H2

> <Parent_SMILES>
OCCOCCN1CCN(C(c2ccccc2)c2ccc(Cl)cc2)CC1

$$$$
Molecule 85_metabolite 37
  CDK     0516241031

 54 56  0  0  0  0  0  0  0  0999 V2000
    3.7531    2.4213    0.0000 C   0  0  0  0  0  0  0  0  0  0  0  0
    5.2531    2.4210    0.0000 H   0  0  0  0  0  0  0  0  0  0  0  0
    3.0023    1.1217    0.0000 C   0  0  0  0  0  0  0  0  0  0  0  0
    3.7523   -0.1773    0.0000 H   0  0  0  0  0  0  0  0  0  0  0  0
    1.5015    1.1213    0.0000 C   0  0  0  0  0  0  0  0  0  0  0  0
    0.7515    2.4203    0.0000 C   0  0  0  0  0  0  0  0  0  0  0  0
    1.5023    3.7198    0.0000 C   0  0  0  0  0  0  0  0  0  0  0  0
    0.7523    5.0189    0.0000 H   0  0  0  0  0  0  0  0  0  0  0  0
    3.0031    3.7203    0.0000 C   0  0  0  0  0  0  0  0  0  0  0  0
    3.7529    5.0195    0.0000 H   0  0  0  0  0  0  0  0  0  0  0  0
   -0.7485    2.4205    0.0000 O   0  0  0  0  0  0  0  0  0  0  0  0
   -1.4983    3.7197    0.0000 H   0  0  0  0  0  0  0  0  0  0  0  0
    0.7517   -0.1779    0.0000 C   0  0  0  0  0  0  0  0  0  0  0  0
   -0.3975    0.7861    0.0000 H   0  0  0  0  0  0  0  0  0  0  0  0
   -0.9629   -1.1682    0.0000 C   0  0  0  0  0  0  0  0  0  0  0  0
   -2.2488   -0.4284    0.0000 C   0  0  0  0  0  0  0  0  0  0  0  0
   -2.2463    1.0716    0.0000 H   0  0  0  0  0  0  0  0  0  0  0  0
   -3.5515   -1.1721    0.0000 C   0  0  0  0  0  0  0  0  0  0  0  0
   -4.8422   -0.4079    0.0000 H   0  0  0  0  0  0  0  0  0  0  0  0
   -3.5769   -2.6605    0.0000 C   0  0  0  0  0  0  0  0  0  0  0  0
   -2.2674   -3.4213    0.0000 C   0  0  0  0  0  0  0  0  0  0  0  0
   -2.2731   -4.9213    0.0000 H   0  0  0  0  0  0  0  0  0  0  0  0
   -0.9648   -2.6777    0.0000 C   0  0  0  0  0  0  0  0  0  0  0  0
    0.3320   -3.4316    0.0000 H   0  0  0  0  0  0  0  0  0  0  0  0
   -4.8833   -3.3976    0.0000 Cl  0  0  0  0  0  0  0  0  0  0  0  0
    1.9820   -2.3081    0.0000 N   0  0  0  0  0  0  0  0  0  0  0  0
    1.2320   -3.6081    0.0000 C   0  0  0  0  0  0  0  0  0  0  0  0
    0.4819   -2.3092    0.0000 H   0  0  0  0  0  0  0  0  0  0  0  0
   -0.6526   -5.1892    0.0000 H   0  0  0  0  0  0  0  0  0  0  0  0
    1.9820   -4.9081    0.0000 C   0  0  0  0  0  0  0  0  0  0  0  0
    0.5724   -5.4209    0.0000 H   0  0  0  0  0  0  0  0  0  0  0  0
    2.2423   -6.3854    0.0000 H   0  0  0  0  0  0  0  0  0  0  0  0
    3.4820   -4.9081    0.0000 N   0  0  0  0  0  0  0  0  0  0  0  0
    4.2320   -3.6081    0.0000 C   0  0  0  0  0  0  0  0  0  0  0  0
    5.3812   -4.5722    0.0000 H   0  0  0  0  0  0  0  0  0  0  0  0
    5.3812   -2.6441    0.0000 H   0  0  0  0  0  0  0  0  0  0  0  0
    3.4820   -2.3081    0.0000 C   0  0  0  0  0  0  0  0  0  0  0  0
    4.8917   -1.7954    0.0000 H   0  0  0  0  0  0  0  0  0  0  0  0
    3.2217   -0.8309    0.0000 H   0  0  0  0  0  0  0  0  0  0  0  0
    4.4723   -6.6227    0.0000 C   0  0  0  0  0  0  0  0  0  0  0  0
    3.0628   -7.1359    0.0000 H   0  0  0  0  0  0  0  0  0  0  0  0
    4.7330   -8.0999    0.0000 H   0  0  0  0  0  0  0  0  0  0  0  0
    5.9723   -6.6225    0.0000 C   0  0  0  0  0  0  0  0  0  0  0  0
    7.3819   -7.1353    0.0000 H   0  0  0  0  0  0  0  0  0  0  0  0
    5.7121   -8.0997    0.0000 H   0  0  0  0  0  0  0  0  0  0  0  0
    6.7221   -5.3233    0.0000 O   0  0  0  0  0  0  0  0  0  0  0  0
    8.7021   -5.3230    0.0000 C   0  0  0  0  0  0  0  0  0  0  0  0
   10.1117   -5.8358    0.0000 H   0  0  0  0  0  0  0  0  0  0  0  0
    8.4418   -6.8002    0.0000 H   0  0  0  0  0  0  0  0  0  0  0  0
    9.4519   -4.0238    0.0000 C   0  0  0  0  0  0  0  0  0  0  0  0
    8.0423   -3.5110    0.0000 H   0  0  0  0  0  0  0  0  0  0  0  0
    9.7121   -2.5466    0.0000 H   0  0  0  0  0  0  0  0  0  0  0  0
   10.9519   -4.0236    0.0000 O   0  0  0  0  0  0  0  0  0  0  0  0
   11.7017   -2.7244    0.0000 H   0  0  0  0  0  0  0  0  0  0  0  0
  1  2  1  0  0  0  0 
  1  3  2  0  0  0  0 
  3  4  1  0  0  0  0 
  3  5  1  0  0  0  0 
  5  6  2  0  0  0  0 
  6  7  1  0  0  0  0 
  7  8  1  0  0  0  0 
  7  9  2  0  0  0  0 
  1  9  1  0  0  0  0 
  9 10  1  0  0  0  0 
  6 11  1  0  0  0  0 
 11 12  1  0  0  0  0 
  5 13  1  0  0  0  0 
 13 14  1  0  0  0  0 
 13 15  1  0  0  0  0 
 15 16  2  0  0  0  0 
 16 17  1  0  0  0  0 
 16 18  1  0  0  0  0 
 18 19  1  0  0  0  0 
 18 20  2  0  0  0  0 
 20 21  1  0  0  0  0 
 21 22  1  0  0  0  0 
 21 23  2  0  0  0  0 
 15 23  1  0  0  0  0 
 23 24  1  0  0  0  0 
 20 25  1  0  0  0  0 
 13 26  1  0  0  0  0 
 26 27  1  0  0  0  0 
 27 28  1  0  0  0  0 
 27 29  1  0  0  0  0 
 27 30  1  0  0  0  0 
 30 31  1  0  0  0  0 
 30 32  1  0  0  0  0 
 30 33  1  0  0  0  0 
 33 34  1  0  0  0  0 
 34 35  1  0  0  0  0 
 34 36  1  0  0  0  0 
 34 37  1  0  0  0  0 
 26 37  1  0  0  0  0 
 37 38  1  0  0  0  0 
 37 39  1  0  0  0  0 
 33 40  1  0  0  0  0 
 40 41  1  0  0  0  0 
 40 42  1  0  0  0  0 
 40 43  1  0  0  0  0 
 43 44  1  0  0  0  0 
 43 45  1  0  0  0  0 
 43 46  1  0  0  0  0 
 46 47  1  0  0  0  0 
 47 48  1  0  0  0  0 
 47 49  1  0  0  0  0 
 47 50  1  0  0  0  0 
 50 51  1  0  0  0  0 
 50 52  1  0  0  0  0 
 50 53  1  0  0  0  0 
 53 54  1  0  0  0  0 
M  END
> <Rank>
37

> <Priority_score>
0.048

> <Reaction_type>
aromatic hydroxylation

> <Parent_ID>
85

> <Parent_InChI>
InChI=1S/C21H27ClN2O2/c22-20-8-6-19(7-9-20)21(18-4-2-1-3-5-18)24-12-10-23(11-13-24)14-16-26-17-15-25/h1-9,21,25H,10-17H2

> <Parent_SMILES>
OCCOCCN1CCN(C(c2ccccc2)c2ccc(Cl)cc2)CC1

$$$$
Molecule 85_metabolite 38
  CDK     0516241031

 54 56  0  0  0  0  0  0  0  0999 V2000
    3.6758    4.3949    0.0000 C   0  0  0  0  0  0  0  0  0  0  0  0
    4.4256    5.6941    0.0000 H   0  0  0  0  0  0  0  0  0  0  0  0
    2.1750    4.3952    0.0000 C   0  0  0  0  0  0  0  0  0  0  0  0
    1.4250    5.6942    0.0000 H   0  0  0  0  0  0  0  0  0  0  0  0
    1.4252    3.0960    0.0000 C   0  0  0  0  0  0  0  0  0  0  0  0
   -0.0748    3.0955    0.0000 H   0  0  0  0  0  0  0  0  0  0  0  0
    2.1762    1.7966    0.0000 C   0  0  0  0  0  0  0  0  0  0  0  0
    3.6771    1.7964    0.0000 C   0  0  0  0  0  0  0  0  0  0  0  0
    4.4271    0.4973    0.0000 H   0  0  0  0  0  0  0  0  0  0  0  0
    4.4268    3.0955    0.0000 C   0  0  0  0  0  0  0  0  0  0  0  0
    5.9268    3.0960    0.0000 H   0  0  0  0  0  0  0  0  0  0  0  0
    1.4264    0.4975    0.0000 C   0  0  0  0  0  0  0  0  0  0  0  0
    0.2772    1.4615    0.0000 H   0  0  0  0  0  0  0  0  0  0  0  0
   -0.2881   -0.4928    0.0000 C   0  0  0  0  0  0  0  0  0  0  0  0
   -0.3009   -2.0128    0.0000 C   0  0  0  0  0  0  0  0  0  0  0  0
    0.9852   -2.7847    0.0000 H   0  0  0  0  0  0  0  0  0  0  0  0
   -1.6772   -2.7612    0.0000 C   0  0  0  0  0  0  0  0  0  0  0  0
   -1.7093   -4.2609    0.0000 H   0  0  0  0  0  0  0  0  0  0  0  0
   -2.9608   -1.9904    0.0000 C   0  0  0  0  0  0  0  0  0  0  0  0
   -2.9481   -0.4705    0.0000 C   0  0  0  0  0  0  0  0  0  0  0  0
   -1.6517    0.2787    0.0000 C   0  0  0  0  0  0  0  0  0  0  0  0
   -1.6586    1.7786    0.0000 H   0  0  0  0  0  0  0  0  0  0  0  0
   -4.2441    0.2847    0.0000 Cl  0  0  0  0  0  0  0  0  0  0  0  0
   -4.2694   -2.7237    0.0000 O   0  0  0  0  0  0  0  0  0  0  0  0
   -5.5587   -1.9572    0.0000 H   0  0  0  0  0  0  0  0  0  0  0  0
    2.6568   -1.6328    0.0000 N   0  0  0  0  0  0  0  0  0  0  0  0
    1.9068   -2.9328    0.0000 C   0  0  0  0  0  0  0  0  0  0  0  0
    1.1566   -1.6338    0.0000 H   0  0  0  0  0  0  0  0  0  0  0  0
    0.0221   -4.5138    0.0000 H   0  0  0  0  0  0  0  0  0  0  0  0
    2.6568   -4.2328    0.0000 C   0  0  0  0  0  0  0  0  0  0  0  0
    1.2471   -4.7455    0.0000 H   0  0  0  0  0  0  0  0  0  0  0  0
    2.9171   -5.7100    0.0000 H   0  0  0  0  0  0  0  0  0  0  0  0
    4.1568   -4.2328    0.0000 N   0  0  0  0  0  0  0  0  0  0  0  0
    4.9068   -2.9328    0.0000 C   0  0  0  0  0  0  0  0  0  0  0  0
    6.0559   -3.8968    0.0000 H   0  0  0  0  0  0  0  0  0  0  0  0
    6.0559   -1.9687    0.0000 H   0  0  0  0  0  0  0  0  0  0  0  0
    4.1568   -1.6328    0.0000 C   0  0  0  0  0  0  0  0  0  0  0  0
    5.5664   -1.1200    0.0000 H   0  0  0  0  0  0  0  0  0  0  0  0
    3.8965   -0.1555    0.0000 H   0  0  0  0  0  0  0  0  0  0  0  0
    5.1470   -5.9473    0.0000 C   0  0  0  0  0  0  0  0  0  0  0  0
    3.7376   -6.4606    0.0000 H   0  0  0  0  0  0  0  0  0  0  0  0
    5.4078   -7.4245    0.0000 H   0  0  0  0  0  0  0  0  0  0  0  0
    6.6470   -5.9471    0.0000 C   0  0  0  0  0  0  0  0  0  0  0  0
    8.0567   -6.4599    0.0000 H   0  0  0  0  0  0  0  0  0  0  0  0
    6.3868   -7.4244    0.0000 H   0  0  0  0  0  0  0  0  0  0  0  0
    7.3968   -4.6479    0.0000 O   0  0  0  0  0  0  0  0  0  0  0  0
    9.3768   -4.6476    0.0000 C   0  0  0  0  0  0  0  0  0  0  0  0
   10.7865   -5.1604    0.0000 H   0  0  0  0  0  0  0  0  0  0  0  0
    9.1166   -6.1249    0.0000 H   0  0  0  0  0  0  0  0  0  0  0  0
   10.1266   -3.3485    0.0000 C   0  0  0  0  0  0  0  0  0  0  0  0
    8.7170   -2.8357    0.0000 H   0  0  0  0  0  0  0  0  0  0  0  0
   10.3869   -1.8712    0.0000 H   0  0  0  0  0  0  0  0  0  0  0  0
   11.6266   -3.3482    0.0000 O   0  0  0  0  0  0  0  0  0  0  0  0
   12.3764   -2.0491    0.0000 H   0  0  0  0  0  0  0  0  0  0  0  0
  1  2  1  0  0  0  0 
  1  3  2  0  0  0  0 
  3  4  1  0  0  0  0 
  3  5  1  0  0  0  0 
  5  6  1  0  0  0  0 
  5  7  2  0  0  0  0 
  7  8  1  0  0  0  0 
  8  9  1  0  0  0  0 
  8 10  2  0  0  0  0 
  1 10  1  0  0  0  0 
 10 11  1  0  0  0  0 
  7 12  1  0  0  0  0 
 12 13  1  0  0  0  0 
 12 14  1  0  0  0  0 
 14 15  2  0  0  0  0 
 15 16  1  0  0  0  0 
 15 17  1  0  0  0  0 
 17 18  1  0  0  0  0 
 17 19  2  0  0  0  0 
 19 20  1  0  0  0  0 
 20 21  2  0  0  0  0 
 14 21  1  0  0  0  0 
 21 22  1  0  0  0  0 
 20 23  1  0  0  0  0 
 19 24  1  0  0  0  0 
 24 25  1  0  0  0  0 
 12 26  1  0  0  0  0 
 26 27  1  0  0  0  0 
 27 28  1  0  0  0  0 
 27 29  1  0  0  0  0 
 27 30  1  0  0  0  0 
 30 31  1  0  0  0  0 
 30 32  1  0  0  0  0 
 30 33  1  0  0  0  0 
 33 34  1  0  0  0  0 
 34 35  1  0  0  0  0 
 34 36  1  0  0  0  0 
 34 37  1  0  0  0  0 
 26 37  1  0  0  0  0 
 37 38  1  0  0  0  0 
 37 39  1  0  0  0  0 
 33 40  1  0  0  0  0 
 40 41  1  0  0  0  0 
 40 42  1  0  0  0  0 
 40 43  1  0  0  0  0 
 43 44  1  0  0  0  0 
 43 45  1  0  0  0  0 
 43 46  1  0  0  0  0 
 46 47  1  0  0  0  0 
 47 48  1  0  0  0  0 
 47 49  1  0  0  0  0 
 47 50  1  0  0  0  0 
 50 51  1  0  0  0  0 
 50 52  1  0  0  0  0 
 50 53  1  0  0  0  0 
 53 54  1  0  0  0  0 
M  END
> <Rank>
37

> <Priority_score>
0.048

> <Reaction_type>
aromatic hydroxylation with nih shift

> <Parent_ID>
85

> <Parent_InChI>
InChI=1S/C21H27ClN2O2/c22-20-8-6-19(7-9-20)21(18-4-2-1-3-5-18)24-12-10-23(11-13-24)14-16-26-17-15-25/h1-9,21,25H,10-17H2

> <Parent_SMILES>
OCCOCCN1CCN(C(c2ccccc2)c2ccc(Cl)cc2)CC1

$$$$
Molecule 85_metabolite 39
  CDK     0516241031

 88 90  0  0  0  0  0  0  0  0999 V2000
    7.5787   12.6449    0.0000 C   0  0  0  0  0  0  0  0  0  0  0  0
    8.3285   13.9440    0.0000 H   0  0  0  0  0  0  0  0  0  0  0  0
    6.0779   12.6451    0.0000 C   0  0  0  0  0  0  0  0  0  0  0  0
    5.3279   13.9441    0.0000 H   0  0  0  0  0  0  0  0  0  0  0  0
    5.3281   11.3460    0.0000 C   0  0  0  0  0  0  0  0  0  0  0  0
    3.8281   11.3455    0.0000 H   0  0  0  0  0  0  0  0  0  0  0  0
    6.0792   10.0466    0.0000 C   0  0  0  0  0  0  0  0  0  0  0  0
    7.5800   10.0463    0.0000 C   0  0  0  0  0  0  0  0  0  0  0  0
    8.3300    8.7473    0.0000 H   0  0  0  0  0  0  0  0  0  0  0  0
    8.3298   11.3455    0.0000 C   0  0  0  0  0  0  0  0  0  0  0  0
    9.8298   11.3460    0.0000 H   0  0  0  0  0  0  0  0  0  0  0  0
    5.3294    8.7474    0.0000 C   0  0  0  0  0  0  0  0  0  0  0  0
    4.1801    9.7114    0.0000 H   0  0  0  0  0  0  0  0  0  0  0  0
    3.6148    7.7571    0.0000 C   0  0  0  0  0  0  0  0  0  0  0  0
    2.3148    8.5071    0.0000 C   0  0  0  0  0  0  0  0  0  0  0  0
    2.3148   10.0071    0.0000 H   0  0  0  0  0  0  0  0  0  0  0  0
    1.0148    7.7571    0.0000 C   0  0  0  0  0  0  0  0  0  0  0  0
   -0.2841    8.5073    0.0000 H   0  0  0  0  0  0  0  0  0  0  0  0
    1.0148    6.2571    0.0000 C   0  0  0  0  0  0  0  0  0  0  0  0
    2.3148    5.5071    0.0000 C   0  0  0  0  0  0  0  0  0  0  0  0
    2.3148    4.0071    0.0000 H   0  0  0  0  0  0  0  0  0  0  0  0
    3.6148    6.2571    0.0000 C   0  0  0  0  0  0  0  0  0  0  0  0
    4.9137    5.5069    0.0000 H   0  0  0  0  0  0  0  0  0  0  0  0
   -0.2841    5.5069    0.0000 S   0  0  0  0  0  0  0  0  0  0  0  0
   -1.5833    6.2567    0.0000 C   0  0  0  0  0  0  0  0  0  0  0  0
   -0.6193    7.4059    0.0000 H   0  0  0  0  0  0  0  0  0  0  0  0
   -2.5476    7.4056    0.0000 H   0  0  0  0  0  0  0  0  0  0  0  0
   -2.8822    5.5065    0.0000 C   0  0  0  0  0  0  0  0  0  0  0  0
   -3.8462    4.3573    0.0000 H   0  0  0  0  0  0  0  0  0  0  0  0
   -1.9178    4.3576    0.0000 C   0  0  0  0  0  0  0  0  0  0  0  0
   -0.4407    4.6183    0.0000 O   0  0  0  0  0  0  0  0  0  0  0  0
   -2.4306    2.9480    0.0000 N   0  0  0  0  0  0  0  0  0  0  0  0
   -3.9078    2.6873    0.0000 H   0  0  0  0  0  0  0  0  0  0  0  0
   -1.4663    1.7991    0.0000 C   0  0  0  0  0  0  0  0  0  0  0  0
   -0.5023    2.9483    0.0000 H   0  0  0  0  0  0  0  0  0  0  0  0
   -0.1671    1.0493    0.0000 H   0  0  0  0  0  0  0  0  0  0  0  0
   -1.9791    0.3894    0.0000 C   0  0  0  0  0  0  0  0  0  0  0  0
   -3.4562    0.1287    0.0000 O   0  0  0  0  0  0  0  0  0  0  0  0
   -1.0147   -0.7595    0.0000 O   0  0  0  0  0  0  0  0  0  0  0  0
   -1.5275   -2.1691    0.0000 H   0  0  0  0  0  0  0  0  0  0  0  0
   -4.1814    6.2563    0.0000 N   0  0  0  0  0  0  0  0  0  0  0  0
   -4.1816    7.7563    0.0000 H   0  0  0  0  0  0  0  0  0  0  0  0
   -5.4803    5.5061    0.0000 C   0  0  0  0  0  0  0  0  0  0  0  0
   -5.4800    4.0061    0.0000 O   0  0  0  0  0  0  0  0  0  0  0  0
   -6.7794    6.2559    0.0000 C   0  0  0  0  0  0  0  0  0  0  0  0
   -5.8154    7.4051    0.0000 H   0  0  0  0  0  0  0  0  0  0  0  0
   -7.7438    7.4048    0.0000 H   0  0  0  0  0  0  0  0  0  0  0  0
   -8.4940    5.2656    0.0000 C   0  0  0  0  0  0  0  0  0  0  0  0
   -9.4580    4.1164    0.0000 H   0  0  0  0  0  0  0  0  0  0  0  0
   -7.5296    4.1167    0.0000 H   0  0  0  0  0  0  0  0  0  0  0  0
   -9.7932    6.0154    0.0000 C   0  0  0  0  0  0  0  0  0  0  0  0
   -8.8292    7.1646    0.0000 H   0  0  0  0  0  0  0  0  0  0  0  0
  -11.0921    5.2652    0.0000 C   0  0  0  0  0  0  0  0  0  0  0  0
  -11.0918    3.7652    0.0000 O   0  0  0  0  0  0  0  0  0  0  0  0
  -12.3912    6.0150    0.0000 O   0  0  0  0  0  0  0  0  0  0  0  0
  -13.6902    5.2648    0.0000 H   0  0  0  0  0  0  0  0  0  0  0  0
  -10.7575    7.1643    0.0000 N   0  0  0  0  0  0  0  0  0  0  0  0
  -12.2347    6.9036    0.0000 H   0  0  0  0  0  0  0  0  0  0  0  0
  -10.2447    8.5739    0.0000 H   0  0  0  0  0  0  0  0  0  0  0  0
    6.5597    6.6172    0.0000 N   0  0  0  0  0  0  0  0  0  0  0  0
    5.8097    5.3172    0.0000 C   0  0  0  0  0  0  0  0  0  0  0  0
    4.6605    6.2812    0.0000 H   0  0  0  0  0  0  0  0  0  0  0  0
    4.6605    4.3531    0.0000 H   0  0  0  0  0  0  0  0  0  0  0  0
    6.5597    4.0172    0.0000 C   0  0  0  0  0  0  0  0  0  0  0  0
    5.1501    3.5044    0.0000 H   0  0  0  0  0  0  0  0  0  0  0  0
    6.8200    2.5399    0.0000 H   0  0  0  0  0  0  0  0  0  0  0  0
    8.0597    4.0172    0.0000 N   0  0  0  0  0  0  0  0  0  0  0  0
    8.8097    5.3172    0.0000 C   0  0  0  0  0  0  0  0  0  0  0  0
    9.9589    4.3531    0.0000 H   0  0  0  0  0  0  0  0  0  0  0  0
    9.9589    6.2812    0.0000 H   0  0  0  0  0  0  0  0  0  0  0  0
    8.0597    6.6172    0.0000 C   0  0  0  0  0  0  0  0  0  0  0  0
    9.4694    7.1299    0.0000 H   0  0  0  0  0  0  0  0  0  0  0  0
    7.7994    8.0944    0.0000 H   0  0  0  0  0  0  0  0  0  0  0  0
    9.0500    2.3026    0.0000 C   0  0  0  0  0  0  0  0  0  0  0  0
    7.6405    1.7893    0.0000 H   0  0  0  0  0  0  0  0  0  0  0  0
    9.3107    0.8254    0.0000 H   0  0  0  0  0  0  0  0  0  0  0  0
   10.5500    2.3028    0.0000 C   0  0  0  0  0  0  0  0  0  0  0  0
   11.9596    1.7900    0.0000 H   0  0  0  0  0  0  0  0  0  0  0  0
   10.2898    0.8256    0.0000 H   0  0  0  0  0  0  0  0  0  0  0  0
   11.2998    3.6020    0.0000 O   0  0  0  0  0  0  0  0  0  0  0  0
   13.2798    3.6023    0.0000 C   0  0  0  0  0  0  0  0  0  0  0  0
   14.6894    3.0895    0.0000 H   0  0  0  0  0  0  0  0  0  0  0  0
   13.0195    2.1251    0.0000 H   0  0  0  0  0  0  0  0  0  0  0  0
   14.0296    4.9015    0.0000 C   0  0  0  0  0  0  0  0  0  0  0  0
   12.6199    5.4143    0.0000 H   0  0  0  0  0  0  0  0  0  0  0  0
   14.2898    6.3787    0.0000 H   0  0  0  0  0  0  0  0  0  0  0  0
   15.5296    4.9017    0.0000 O   0  0  0  0  0  0  0  0  0  0  0  0
   16.2794    6.2009    0.0000 H   0  0  0  0  0  0  0  0  0  0  0  0
  1  2  1  0  0  0  0 
  1  3  2  0  0  0  0 
  3  4  1  0  0  0  0 
  3  5  1  0  0  0  0 
  5  6  1  0  0  0  0 
  5  7  2  0  0  0  0 
  7  8  1  0  0  0  0 
  8  9  1  0  0  0  0 
  8 10  2  0  0  0  0 
  1 10  1  0  0  0  0 
 10 11  1  0  0  0  0 
  7 12  1  0  0  0  0 
 12 13  1  0  0  0  0 
 12 14  1  0  0  0  0 
 14 15  2  0  0  0  0 
 15 16  1  0  0  0  0 
 15 17  1  0  0  0  0 
 17 18  1  0  0  0  0 
 17 19  2  0  0  0  0 
 19 20  1  0  0  0  0 
 20 21  1  0  0  0  0 
 20 22  2  0  0  0  0 
 14 22  1  0  0  0  0 
 22 23  1  0  0  0  0 
 19 24  1  0  0  0  0 
 24 25  1  0  0  0  0 
 25 26  1  0  0  0  0 
 25 27  1  0  0  0  0 
 25 28  1  0  0  0  0 
 28 29  1  0  0  0  0 
 28 30  1  0  0  0  0 
 30 31  2  0  0  0  0 
 30 32  1  0  0  0  0 
 32 33  1  0  0  0  0 
 32 34  1  0  0  0  0 
 34 35  1  0  0  0  0 
 34 36  1  0  0  0  0 
 34 37  1  0  0  0  0 
 37 38  2  0  0  0  0 
 37 39  1  0  0  0  0 
 39 40  1  0  0  0  0 
 28 41  1  0  0  0  0 
 41 42  1  0  0  0  0 
 41 43  1  0  0  0  0 
 43 44  2  0  0  0  0 
 43 45  1  0  0  0  0 
 45 46  1  0  0  0  0 
 45 47  1  0  0  0  0 
 45 48  1  0  0  0  0 
 48 49  1  0  0  0  0 
 48 50  1  0  0  0  0 
 48 51  1  0  0  0  0 
 51 52  1  0  0  0  0 
 51 53  1  0  0  0  0 
 53 54  2  0  0  0  0 
 53 55  1  0  0  0  0 
 55 56  1  0  0  0  0 
 51 57  1  0  0  0  0 
 57 58  1  0  0  0  0 
 57 59  1  0  0  0  0 
 12 60  1  0  0  0  0 
 60 61  1  0  0  0  0 
 61 62  1  0  0  0  0 
 61 63  1  0  0  0  0 
 61 64  1  0  0  0  0 
 64 65  1  0  0  0  0 
 64 66  1  0  0  0  0 
 64 67  1  0  0  0  0 
 67 68  1  0  0  0  0 
 68 69  1  0  0  0  0 
 68 70  1  0  0  0  0 
 68 71  1  0  0  0  0 
 60 71  1  0  0  0  0 
 71 72  1  0  0  0  0 
 71 73  1  0  0  0  0 
 67 74  1  0  0  0  0 
 74 75  1  0  0  0  0 
 74 76  1  0  0  0  0 
 74 77  1  0  0  0  0 
 77 78  1  0  0  0  0 
 77 79  1  0  0  0  0 
 77 80  1  0  0  0  0 
 80 81  1  0  0  0  0 
 81 82  1  0  0  0  0 
 81 83  1  0  0  0  0 
 81 84  1  0  0  0  0 
 84 85  1  0  0  0  0 
 84 86  1  0  0  0  0 
 84 87  1  0  0  0  0 
 87 88  1  0  0  0  0 
M  END
> <Rank>
39

> <Priority_score>
0.028

> <Reaction_type>
glutathione_conjugation_(aromatic_nucleophilic_substitution)

> <Parent_ID>
85

> <Parent_InChI>
InChI=1S/C21H27ClN2O2/c22-20-8-6-19(7-9-20)21(18-4-2-1-3-5-18)24-12-10-23(11-13-24)14-16-26-17-15-25/h1-9,21,25H,10-17H2

> <Parent_SMILES>
OCCOCCN1CCN(C(c2ccccc2)c2ccc(Cl)cc2)CC1

$$$$
Molecule 85_metabolite 40
  CDK     0516241031

 52 54  0  0  0  0  0  0  0  0999 V2000
   -3.5460   -3.7796    0.0000 C   0  0  0  0  0  0  0  0  0  0  0  0
   -3.5458   -5.2796    0.0000 H   0  0  0  0  0  0  0  0  0  0  0  0
   -2.2462   -3.0294    0.0000 C   0  0  0  0  0  0  0  0  0  0  0  0
   -0.9471   -3.7794    0.0000 H   0  0  0  0  0  0  0  0  0  0  0  0
   -2.2464   -1.5294    0.0000 C   0  0  0  0  0  0  0  0  0  0  0  0
   -0.9476   -0.7790    0.0000 H   0  0  0  0  0  0  0  0  0  0  0  0
   -3.5465   -0.7796    0.0000 C   0  0  0  0  0  0  0  0  0  0  0  0
   -4.8464   -1.5298    0.0000 C   0  0  0  0  0  0  0  0  0  0  0  0
   -6.1454   -0.7798    0.0000 H   0  0  0  0  0  0  0  0  0  0  0  0
   -4.8462   -3.0298    0.0000 C   0  0  0  0  0  0  0  0  0  0  0  0
   -6.1450   -3.7802    0.0000 H   0  0  0  0  0  0  0  0  0  0  0  0
   -3.5470    2.1604    0.0000 C   0  0  0  0  0  0  0  0  0  0  0  0
   -4.0603    3.5698    0.0000 H   0  0  0  0  0  0  0  0  0  0  0  0
   -5.4969    1.8163    0.0000 C   0  0  0  0  0  0  0  0  0  0  0  0
   -6.4522    2.9512    0.0000 C   0  0  0  0  0  0  0  0  0  0  0  0
   -5.9369    4.3599    0.0000 H   0  0  0  0  0  0  0  0  0  0  0  0
   -7.9307    2.6979    0.0000 C   0  0  0  0  0  0  0  0  0  0  0  0
   -8.8822    3.8575    0.0000 H   0  0  0  0  0  0  0  0  0  0  0  0
   -8.4636    1.3080    0.0000 C   0  0  0  0  0  0  0  0  0  0  0  0
   -7.4934    0.1451    0.0000 C   0  0  0  0  0  0  0  0  0  0  0  0
   -8.0118   -1.2624    0.0000 H   0  0  0  0  0  0  0  0  0  0  0  0
   -6.0149    0.3984    0.0000 C   0  0  0  0  0  0  0  0  0  0  0  0
   -4.1320   -1.8595    0.0000 H   0  0  0  0  0  0  0  0  0  0  0  0
   -9.9434    1.0622    0.0000 Cl  0  0  0  0  0  0  0  0  0  0  0  0
   -1.8324    3.1507    0.0000 N   0  0  0  0  0  0  0  0  0  0  0  0
   -0.5324    2.4007    0.0000 C   0  0  0  0  0  0  0  0  0  0  0  0
   -1.4965    1.2515    0.0000 H   0  0  0  0  0  0  0  0  0  0  0  0
    0.4316    1.2515    0.0000 H   0  0  0  0  0  0  0  0  0  0  0  0
    0.7676    3.1507    0.0000 C   0  0  0  0  0  0  0  0  0  0  0  0
    2.0665    2.4005    0.0000 H   0  0  0  0  0  0  0  0  0  0  0  0
    0.7676    4.6507    0.0000 N   0  0  0  0  0  0  0  0  0  0  0  0
   -0.5324    5.4007    0.0000 C   0  0  0  0  0  0  0  0  0  0  0  0
    0.4316    6.5498    0.0000 H   0  0  0  0  0  0  0  0  0  0  0  0
   -1.4965    6.5498    0.0000 H   0  0  0  0  0  0  0  0  0  0  0  0
   -1.8324    4.6507    0.0000 C   0  0  0  0  0  0  0  0  0  0  0  0
   -2.3452    6.0603    0.0000 H   0  0  0  0  0  0  0  0  0  0  0  0
   -3.3097    4.3904    0.0000 H   0  0  0  0  0  0  0  0  0  0  0  0
    2.4821    5.6409    0.0000 C   0  0  0  0  0  0  0  0  0  0  0  0
    1.5178    6.7899    0.0000 H   0  0  0  0  0  0  0  0  0  0  0  0
    3.4461    6.7902    0.0000 H   0  0  0  0  0  0  0  0  0  0  0  0
    3.7813    4.8911    0.0000 C   0  0  0  0  0  0  0  0  0  0  0  0
    4.7457    3.7422    0.0000 H   0  0  0  0  0  0  0  0  0  0  0  0
    2.8173    3.7419    0.0000 H   0  0  0  0  0  0  0  0  0  0  0  0
    5.4959    5.8814    0.0000 O   0  0  0  0  0  0  0  0  0  0  0  0
    6.7950    5.1316    0.0000 C   0  0  0  0  0  0  0  0  0  0  0  0
    7.7594    3.9827    0.0000 H   0  0  0  0  0  0  0  0  0  0  0  0
    5.8310    3.9824    0.0000 H   0  0  0  0  0  0  0  0  0  0  0  0
    8.0940    5.8818    0.0000 C   0  0  0  0  0  0  0  0  0  0  0  0
    7.1296    7.0308    0.0000 H   0  0  0  0  0  0  0  0  0  0  0  0
    9.0580    7.0311    0.0000 H   0  0  0  0  0  0  0  0  0  0  0  0
    9.3931    5.1320    0.0000 O   0  0  0  0  0  0  0  0  0  0  0  0
   10.6920    5.8823    0.0000 H   0  0  0  0  0  0  0  0  0  0  0  0
  1  2  1  0  0  0  0 
  1  3  2  0  0  0  0 
  3  4  1  0  0  0  0 
  3  5  1  0  0  0  0 
  5  6  1  0  0  0  0 
  5  7  2  0  0  0  0 
  7  8  1  0  0  0  0 
  8  9  1  0  0  0  0 
  8 10  2  0  0  0  0 
  1 10  1  0  0  0  0 
 10 11  1  0  0  0  0 
  7 12  1  0  0  0  0 
 12 13  1  0  0  0  0 
 12 14  1  0  0  0  0 
 14 15  2  0  0  0  0 
 15 16  1  0  0  0  0 
 15 17  1  0  0  0  0 
 17 18  1  0  0  0  0 
 17 19  2  0  0  0  0 
 19 20  1  0  0  0  0 
 20 21  1  0  0  0  0 
 20 22  2  0  0  0  0 
 14 22  1  0  0  0  0 
 22 23  1  0  0  0  0 
 19 24  1  0  0  0  0 
 12 25  1  0  0  0  0 
 25 26  1  0  0  0  0 
 26 27  1  0  0  0  0 
 26 28  1  0  0  0  0 
 26 29  1  0  0  0  0 
 29 30  1  0  0  0  0 
 29 31  2  0  0  0  0 
 31 32  1  0  0  0  0 
 32 33  1  0  0  0  0 
 32 34  1  0  0  0  0 
 32 35  1  0  0  0  0 
 25 35  1  0  0  0  0 
 35 36  1  0  0  0  0 
 35 37  1  0  0  0  0 
 31 38  1  0  0  0  0 
 38 39  1  0  0  0  0 
 38 40  1  0  0  0  0 
 38 41  1  0  0  0  0 
 41 42  1  0  0  0  0 
 41 43  1  0  0  0  0 
 41 44  1  0  0  0  0 
 44 45  1  0  0  0  0 
 45 46  1  0  0  0  0 
 45 47  1  0  0  0  0 
 45 48  1  0  0  0  0 
 48 49  1  0  0  0  0 
 48 50  1  0  0  0  0 
 48 51  1  0  0  0  0 
 51 52  1  0  0  0  0 
M  CHG  1  31   1
M  END
> <Rank>
40

> <Priority_score>
0.0256

> <Reaction_type>
dehydration of N-C bond

> <Parent_ID>
85

> <Parent_InChI>
InChI=1S/C21H27ClN2O2/c22-20-8-6-19(7-9-20)21(18-4-2-1-3-5-18)24-12-10-23(11-13-24)14-16-26-17-15-25/h1-9,21,25H,10-17H2

> <Parent_SMILES>
OCCOCCN1CCN(C(c2ccccc2)c2ccc(Cl)cc2)CC1

$$$$
Molecule 85_metabolite 41
  CDK     0516241031

 51 53  0  0  0  0  0  0  0  0999 V2000
   -5.2528   -4.1104    0.0000 C   0  0  0  0  0  0  0  0  0  0  0  0
   -6.5517   -4.8606    0.0000 H   0  0  0  0  0  0  0  0  0  0  0  0
   -3.9532   -4.8610    0.0000 C   0  0  0  0  0  0  0  0  0  0  0  0
   -3.9532   -6.3610    0.0000 H   0  0  0  0  0  0  0  0  0  0  0  0
   -2.6542   -4.1108    0.0000 C   0  0  0  0  0  0  0  0  0  0  0  0
   -1.3550   -4.8604    0.0000 H   0  0  0  0  0  0  0  0  0  0  0  0
   -2.6550   -2.6100    0.0000 C   0  0  0  0  0  0  0  0  0  0  0  0
   -3.9546   -1.8594    0.0000 C   0  0  0  0  0  0  0  0  0  0  0  0
   -3.9546   -0.3594    0.0000 H   0  0  0  0  0  0  0  0  0  0  0  0
   -5.2535   -2.6096    0.0000 C   0  0  0  0  0  0  0  0  0  0  0  0
   -6.5528   -1.8600    0.0000 H   0  0  0  0  0  0  0  0  0  0  0  0
   -0.1091   -1.1396    0.0000 C   0  0  0  0  0  0  0  0  0  0  0  0
    0.8549    0.0096    0.0000 H   0  0  0  0  0  0  0  0  0  0  0  0
   -1.3820    0.3770    0.0000 C   0  0  0  0  0  0  0  0  0  0  0  0
   -0.8768    1.7718    0.0000 C   0  0  0  0  0  0  0  0  0  0  0  0
    0.6008    2.0299    0.0000 H   0  0  0  0  0  0  0  0  0  0  0  0
   -1.8354    2.9256    0.0000 C   0  0  0  0  0  0  0  0  0  0  0  0
   -1.3069    4.3294    0.0000 H   0  0  0  0  0  0  0  0  0  0  0  0
   -3.3056    2.6922    0.0000 C   0  0  0  0  0  0  0  0  0  0  0  0
   -3.8275    1.2704    0.0000 C   0  0  0  0  0  0  0  0  0  0  0  0
   -5.3057    1.0156    0.0000 H   0  0  0  0  0  0  0  0  0  0  0  0
   -2.8689    0.1167    0.0000 C   0  0  0  0  0  0  0  0  0  0  0  0
   -3.8829   -2.6429    0.0000 H   0  0  0  0  0  0  0  0  0  0  0  0
   -4.2583    3.8507    0.0000 Cl  0  0  0  0  0  0  0  0  0  0  0  0
    1.1901   -1.8894    0.0000 N   0  0  0  0  0  0  0  0  0  0  0  0
    2.4898   -1.1390    0.0000 C   0  0  0  0  0  0  0  0  0  0  0  0
    2.4894    0.3610    0.0000 H   0  0  0  0  0  0  0  0  0  0  0  0
    3.7901   -1.8885    0.0000 C   0  0  0  0  0  0  0  0  0  0  0  0
    5.0888   -1.1379    0.0000 H   0  0  0  0  0  0  0  0  0  0  0  0
    3.7906   -3.3885    0.0000 N   0  0  0  0  0  0  0  0  0  0  0  0
    2.4908   -4.1390    0.0000 C   0  0  0  0  0  0  0  0  0  0  0  0
    3.4552   -5.2878    0.0000 H   0  0  0  0  0  0  0  0  0  0  0  0
    1.5271   -5.2884    0.0000 H   0  0  0  0  0  0  0  0  0  0  0  0
    1.1906   -3.3894    0.0000 C   0  0  0  0  0  0  0  0  0  0  0  0
    0.6783   -4.7992    0.0000 H   0  0  0  0  0  0  0  0  0  0  0  0
   -0.2868   -3.1295    0.0000 H   0  0  0  0  0  0  0  0  0  0  0  0
    5.5054   -4.3783    0.0000 C   0  0  0  0  0  0  0  0  0  0  0  0
    4.5414   -5.5275    0.0000 H   0  0  0  0  0  0  0  0  0  0  0  0
    6.4698   -5.5272    0.0000 H   0  0  0  0  0  0  0  0  0  0  0  0
    6.8044   -3.6281    0.0000 C   0  0  0  0  0  0  0  0  0  0  0  0
    7.7684   -2.4788    0.0000 H   0  0  0  0  0  0  0  0  0  0  0  0
    5.8400   -2.4791    0.0000 H   0  0  0  0  0  0  0  0  0  0  0  0
    8.5193   -4.6178    0.0000 O   0  0  0  0  0  0  0  0  0  0  0  0
    9.8182   -3.8676    0.0000 C   0  0  0  0  0  0  0  0  0  0  0  0
   10.7822   -2.7183    0.0000 H   0  0  0  0  0  0  0  0  0  0  0  0
    8.8538   -2.7187    0.0000 H   0  0  0  0  0  0  0  0  0  0  0  0
   11.1173   -4.6174    0.0000 C   0  0  0  0  0  0  0  0  0  0  0  0
   10.1533   -5.7666    0.0000 H   0  0  0  0  0  0  0  0  0  0  0  0
   12.0817   -5.7663    0.0000 H   0  0  0  0  0  0  0  0  0  0  0  0
   12.4162   -3.8672    0.0000 O   0  0  0  0  0  0  0  0  0  0  0  0
   13.7154   -4.6169    0.0000 H   0  0  0  0  0  0  0  0  0  0  0  0
  1  2  1  0  0  0  0 
  1  3  2  0  0  0  0 
  3  4  1  0  0  0  0 
  3  5  1  0  0  0  0 
  5  6  1  0  0  0  0 
  5  7  2  0  0  0  0 
  7  8  1  0  0  0  0 
  8  9  1  0  0  0  0 
  8 10  2  0  0  0  0 
  1 10  1  0  0  0  0 
 10 11  1  0  0  0  0 
  7 12  1  0  0  0  0 
 12 13  1  0  0  0  0 
 12 14  1  0  0  0  0 
 14 15  2  0  0  0  0 
 15 16  1  0  0  0  0 
 15 17  1  0  0  0  0 
 17 18  1  0  0  0  0 
 17 19  2  0  0  0  0 
 19 20  1  0  0  0  0 
 20 21  1  0  0  0  0 
 20 22  2  0  0  0  0 
 14 22  1  0  0  0  0 
 22 23  1  0  0  0  0 
 19 24  1  0  0  0  0 
 12 25  1  0  0  0  0 
 25 26  1  0  0  0  0 
 26 27  1  0  0  0  0 
 26 28  2  0  0  0  0 
 28 29  1  0  0  0  0 
 28 30  1  0  0  0  0 
 30 31  1  0  0  0  0 
 31 32  1  0  0  0  0 
 31 33  1  0  0  0  0 
 31 34  1  0  0  0  0 
 25 34  1  0  0  0  0 
 34 35  1  0  0  0  0 
 34 36  1  0  0  0  0 
 30 37  1  0  0  0  0 
 37 38  1  0  0  0  0 
 37 39  1  0  0  0  0 
 37 40  1  0  0  0  0 
 40 41  1  0  0  0  0 
 40 42  1  0  0  0  0 
 40 43  1  0  0  0  0 
 43 44  1  0  0  0  0 
 44 45  1  0  0  0  0 
 44 46  1  0  0  0  0 
 44 47  1  0  0  0  0 
 47 48  1  0  0  0  0 
 47 49  1  0  0  0  0 
 47 50  1  0  0  0  0 
 50 51  1  0  0  0  0 
M  END
> <Rank>
40

> <Priority_score>
0.0256

> <Reaction_type>
alkyl dehydrogenation

> <Parent_ID>
85

> <Parent_InChI>
InChI=1S/C21H27ClN2O2/c22-20-8-6-19(7-9-20)21(18-4-2-1-3-5-18)24-12-10-23(11-13-24)14-16-26-17-15-25/h1-9,21,25H,10-17H2

> <Parent_SMILES>
OCCOCCN1CCN(C(c2ccccc2)c2ccc(Cl)cc2)CC1

$$$$
Molecule 85_metabolite 42
  CDK     0516241031

 52 54  0  0  0  0  0  0  0  0999 V2000
   -0.2419   -3.7813    0.0000 C   0  0  0  0  0  0  0  0  0  0  0  0
   -0.2417   -5.2813    0.0000 H   0  0  0  0  0  0  0  0  0  0  0  0
    1.0580   -3.0311    0.0000 C   0  0  0  0  0  0  0  0  0  0  0  0
    2.3570   -3.7811    0.0000 H   0  0  0  0  0  0  0  0  0  0  0  0
    1.0577   -1.5311    0.0000 C   0  0  0  0  0  0  0  0  0  0  0  0
    2.3565   -0.7807    0.0000 H   0  0  0  0  0  0  0  0  0  0  0  0
   -0.2424   -0.7813    0.0000 C   0  0  0  0  0  0  0  0  0  0  0  0
   -1.5423   -1.5315    0.0000 C   0  0  0  0  0  0  0  0  0  0  0  0
   -2.8413   -0.7815    0.0000 H   0  0  0  0  0  0  0  0  0  0  0  0
   -1.5420   -3.0315    0.0000 C   0  0  0  0  0  0  0  0  0  0  0  0
   -2.8408   -3.7819    0.0000 H   0  0  0  0  0  0  0  0  0  0  0  0
   -0.2429    2.1587    0.0000 C   0  0  0  0  0  0  0  0  0  0  0  0
   -0.7561    3.5682    0.0000 H   0  0  0  0  0  0  0  0  0  0  0  0
   -2.1927    1.8146    0.0000 C   0  0  0  0  0  0  0  0  0  0  0  0
   -3.1481    2.9496    0.0000 C   0  0  0  0  0  0  0  0  0  0  0  0
   -2.6327    4.3583    0.0000 H   0  0  0  0  0  0  0  0  0  0  0  0
   -4.6266    2.6963    0.0000 C   0  0  0  0  0  0  0  0  0  0  0  0
   -5.5781    3.8559    0.0000 H   0  0  0  0  0  0  0  0  0  0  0  0
   -5.1595    1.3063    0.0000 C   0  0  0  0  0  0  0  0  0  0  0  0
   -4.1892    0.1435    0.0000 C   0  0  0  0  0  0  0  0  0  0  0  0
   -4.7076   -1.2641    0.0000 H   0  0  0  0  0  0  0  0  0  0  0  0
   -2.7108    0.3968    0.0000 C   0  0  0  0  0  0  0  0  0  0  0  0
   -0.8278   -1.8612    0.0000 H   0  0  0  0  0  0  0  0  0  0  0  0
   -6.6392    1.0605    0.0000 Cl  0  0  0  0  0  0  0  0  0  0  0  0
    1.0561    2.9089    0.0000 N   0  0  0  0  0  0  0  0  0  0  0  0
    1.0561    4.4098    0.0000 C   0  0  0  0  0  0  0  0  0  0  0  0
   -0.2432    5.1593    0.0000 H   0  0  0  0  0  0  0  0  0  0  0  0
    2.3553    5.1610    0.0000 C   0  0  0  0  0  0  0  0  0  0  0  0
    1.3905    6.3096    0.0000 H   0  0  0  0  0  0  0  0  0  0  0  0
    3.3190    6.3105    0.0000 H   0  0  0  0  0  0  0  0  0  0  0  0
    3.6546    4.4114    0.0000 N   0  0  0  0  0  0  0  0  0  0  0  0
    3.6546    2.9106    0.0000 C   0  0  0  0  0  0  0  0  0  0  0  0
    5.1318    3.1714    0.0000 H   0  0  0  0  0  0  0  0  0  0  0  0
    4.1682    1.5013    0.0000 H   0  0  0  0  0  0  0  0  0  0  0  0
    2.3553    2.1593    0.0000 C   0  0  0  0  0  0  0  0  0  0  0  0
    3.3201    1.0108    0.0000 H   0  0  0  0  0  0  0  0  0  0  0  0
    1.3916    1.0099    0.0000 H   0  0  0  0  0  0  0  0  0  0  0  0
    5.3692    5.4017    0.0000 C   0  0  0  0  0  0  0  0  0  0  0  0
    4.4048    6.5506    0.0000 H   0  0  0  0  0  0  0  0  0  0  0  0
    6.3332    6.5509    0.0000 H   0  0  0  0  0  0  0  0  0  0  0  0
    6.6683    4.6519    0.0000 C   0  0  0  0  0  0  0  0  0  0  0  0
    8.1456    4.3917    0.0000 H   0  0  0  0  0  0  0  0  0  0  0  0
    7.1811    6.0615    0.0000 H   0  0  0  0  0  0  0  0  0  0  0  0
    6.6686    3.1519    0.0000 O   0  0  0  0  0  0  0  0  0  0  0  0
    8.3835    2.1622    0.0000 C   0  0  0  0  0  0  0  0  0  0  0  0
    9.8607    1.9020    0.0000 H   0  0  0  0  0  0  0  0  0  0  0  0
    8.8963    3.5718    0.0000 H   0  0  0  0  0  0  0  0  0  0  0  0
    8.3837    0.6622    0.0000 C   0  0  0  0  0  0  0  0  0  0  0  0
    6.9065    0.9224    0.0000 H   0  0  0  0  0  0  0  0  0  0  0  0
    7.8709   -0.7474    0.0000 H   0  0  0  0  0  0  0  0  0  0  0  0
    9.6829   -0.0876    0.0000 O   0  0  0  0  0  0  0  0  0  0  0  0
    9.6831   -1.5876    0.0000 H   0  0  0  0  0  0  0  0  0  0  0  0
  1  2  1  0  0  0  0 
  1  3  2  0  0  0  0 
  3  4  1  0  0  0  0 
  3  5  1  0  0  0  0 
  5  6  1  0  0  0  0 
  5  7  2  0  0  0  0 
  7  8  1  0  0  0  0 
  8  9  1  0  0  0  0 
  8 10  2  0  0  0  0 
  1 10  1  0  0  0  0 
 10 11  1  0  0  0  0 
  7 12  1  0  0  0  0 
 12 13  1  0  0  0  0 
 12 14  1  0  0  0  0 
 14 15  2  0  0  0  0 
 15 16  1  0  0  0  0 
 15 17  1  0  0  0  0 
 17 18  1  0  0  0  0 
 17 19  2  0  0  0  0 
 19 20  1  0  0  0  0 
 20 21  1  0  0  0  0 
 20 22  2  0  0  0  0 
 14 22  1  0  0  0  0 
 22 23  1  0  0  0  0 
 19 24  1  0  0  0  0 
 12 25  1  0  0  0  0 
 25 26  2  0  0  0  0 
 26 27  1  0  0  0  0 
 26 28  1  0  0  0  0 
 28 29  1  0  0  0  0 
 28 30  1  0  0  0  0 
 28 31  1  0  0  0  0 
 31 32  1  0  0  0  0 
 32 33  1  0  0  0  0 
 32 34  1  0  0  0  0 
 32 35  1  0  0  0  0 
 25 35  1  0  0  0  0 
 35 36  1  0  0  0  0 
 35 37  1  0  0  0  0 
 31 38  1  0  0  0  0 
 38 39  1  0  0  0  0 
 38 40  1  0  0  0  0 
 38 41  1  0  0  0  0 
 41 42  1  0  0  0  0 
 41 43  1  0  0  0  0 
 41 44  1  0  0  0  0 
 44 45  1  0  0  0  0 
 45 46  1  0  0  0  0 
 45 47  1  0  0  0  0 
 45 48  1  0  0  0  0 
 48 49  1  0  0  0  0 
 48 50  1  0  0  0  0 
 48 51  1  0  0  0  0 
 51 52  1  0  0  0  0 
M  CHG  1  25   1
M  END
> <Rank>
42

> <Priority_score>
0.023200000000000002

> <Reaction_type>
dehydration of N-C bond

> <Parent_ID>
85

> <Parent_InChI>
InChI=1S/C21H27ClN2O2/c22-20-8-6-19(7-9-20)21(18-4-2-1-3-5-18)24-12-10-23(11-13-24)14-16-26-17-15-25/h1-9,21,25H,10-17H2

> <Parent_SMILES>
OCCOCCN1CCN(C(c2ccccc2)c2ccc(Cl)cc2)CC1

$$$$
Molecule 85_metabolite 43
  CDK     0516241031

 54 56  0  0  0  0  0  0  0  0999 V2000
    3.6456    4.3648    0.0000 C   0  0  0  0  0  0  0  0  0  0  0  0
    4.3954    5.6639    0.0000 H   0  0  0  0  0  0  0  0  0  0  0  0
    2.1448    4.3650    0.0000 C   0  0  0  0  0  0  0  0  0  0  0  0
    1.3948    5.6640    0.0000 H   0  0  0  0  0  0  0  0  0  0  0  0
    1.3950    3.0658    0.0000 C   0  0  0  0  0  0  0  0  0  0  0  0
   -0.1050    3.0654    0.0000 H   0  0  0  0  0  0  0  0  0  0  0  0
    2.1460    1.7664    0.0000 C   0  0  0  0  0  0  0  0  0  0  0  0
    3.6469    1.7662    0.0000 C   0  0  0  0  0  0  0  0  0  0  0  0
    4.3969    0.4672    0.0000 H   0  0  0  0  0  0  0  0  0  0  0  0
    4.3967    3.0654    0.0000 C   0  0  0  0  0  0  0  0  0  0  0  0
    5.8967    3.0658    0.0000 H   0  0  0  0  0  0  0  0  0  0  0  0
    1.3963    0.4673    0.0000 C   0  0  0  0  0  0  0  0  0  0  0  0
    0.2470    1.4313    0.0000 H   0  0  0  0  0  0  0  0  0  0  0  0
   -0.3183   -0.5230    0.0000 C   0  0  0  0  0  0  0  0  0  0  0  0
   -0.3107   -2.0230    0.0000 C   0  0  0  0  0  0  0  0  0  0  0  0
    0.9958   -2.7599    0.0000 H   0  0  0  0  0  0  0  0  0  0  0  0
   -1.5769   -2.7794    0.0000 C   0  0  0  0  0  0  0  0  0  0  0  0
   -1.5495   -4.2792    0.0000 H   0  0  0  0  0  0  0  0  0  0  0  0
   -2.9307   -2.0363    0.0000 C   0  0  0  0  0  0  0  0  0  0  0  0
   -2.9383   -0.5363    0.0000 C   0  0  0  0  0  0  0  0  0  0  0  0
   -4.2349    0.2178    0.0000 H   0  0  0  0  0  0  0  0  0  0  0  0
   -1.5921    0.2205    0.0000 C   0  0  0  0  0  0  0  0  0  0  0  0
   -1.5800    1.7205    0.0000 H   0  0  0  0  0  0  0  0  0  0  0  0
   -4.2196   -2.8035    0.0000 O   0  0  0  0  0  0  0  0  0  0  0  0
   -5.5285   -2.0709    0.0000 H   0  0  0  0  0  0  0  0  0  0  0  0
    2.6266   -1.6629    0.0000 N   0  0  0  0  0  0  0  0  0  0  0  0
    1.8766   -2.9629    0.0000 C   0  0  0  0  0  0  0  0  0  0  0  0
    1.1265   -1.6640    0.0000 H   0  0  0  0  0  0  0  0  0  0  0  0
   -0.0080   -4.5440    0.0000 H   0  0  0  0  0  0  0  0  0  0  0  0
    2.6266   -4.2629    0.0000 C   0  0  0  0  0  0  0  0  0  0  0  0
    1.2169   -4.7757    0.0000 H   0  0  0  0  0  0  0  0  0  0  0  0
    2.8869   -5.7402    0.0000 H   0  0  0  0  0  0  0  0  0  0  0  0
    4.1266   -4.2629    0.0000 N   0  0  0  0  0  0  0  0  0  0  0  0
    4.8766   -2.9629    0.0000 C   0  0  0  0  0  0  0  0  0  0  0  0
    6.0258   -3.9270    0.0000 H   0  0  0  0  0  0  0  0  0  0  0  0
    6.0258   -1.9989    0.0000 H   0  0  0  0  0  0  0  0  0  0  0  0
    4.1266   -1.6629    0.0000 C   0  0  0  0  0  0  0  0  0  0  0  0
    5.5362   -1.1502    0.0000 H   0  0  0  0  0  0  0  0  0  0  0  0
    3.8663   -0.1857    0.0000 H   0  0  0  0  0  0  0  0  0  0  0  0
    5.1169   -5.9775    0.0000 C   0  0  0  0  0  0  0  0  0  0  0  0
    3.7074   -6.4908    0.0000 H   0  0  0  0  0  0  0  0  0  0  0  0
    5.3776   -7.4547    0.0000 H   0  0  0  0  0  0  0  0  0  0  0  0
    6.6169   -5.9773    0.0000 C   0  0  0  0  0  0  0  0  0  0  0  0
    8.0265   -6.4901    0.0000 H   0  0  0  0  0  0  0  0  0  0  0  0
    6.3566   -7.4545    0.0000 H   0  0  0  0  0  0  0  0  0  0  0  0
    7.3667   -4.6781    0.0000 O   0  0  0  0  0  0  0  0  0  0  0  0
    9.3467   -4.6778    0.0000 C   0  0  0  0  0  0  0  0  0  0  0  0
   10.7563   -5.1906    0.0000 H   0  0  0  0  0  0  0  0  0  0  0  0
    9.0864   -6.1551    0.0000 H   0  0  0  0  0  0  0  0  0  0  0  0
   10.0965   -3.3786    0.0000 C   0  0  0  0  0  0  0  0  0  0  0  0
    8.6868   -2.8658    0.0000 H   0  0  0  0  0  0  0  0  0  0  0  0
   10.3567   -1.9014    0.0000 H   0  0  0  0  0  0  0  0  0  0  0  0
   11.5965   -3.3784    0.0000 O   0  0  0  0  0  0  0  0  0  0  0  0
   12.3462   -2.0792    0.0000 H   0  0  0  0  0  0  0  0  0  0  0  0
  1  2  1  0  0  0  0 
  1  3  2  0  0  0  0 
  3  4  1  0  0  0  0 
  3  5  1  0  0  0  0 
  5  6  1  0  0  0  0 
  5  7  2  0  0  0  0 
  7  8  1  0  0  0  0 
  8  9  1  0  0  0  0 
  8 10  2  0  0  0  0 
  1 10  1  0  0  0  0 
 10 11  1  0  0  0  0 
  7 12  1  0  0  0  0 
 12 13  1  0  0  0  0 
 12 14  1  0  0  0  0 
 14 15  2  0  0  0  0 
 15 16  1  0  0  0  0 
 15 17  1  0  0  0  0 
 17 18  1  0  0  0  0 
 17 19  2  0  0  0  0 
 19 20  1  0  0  0  0 
 20 21  1  0  0  0  0 
 20 22  2  0  0  0  0 
 14 22  1  0  0  0  0 
 22 23  1  0  0  0  0 
 19 24  1  0  0  0  0 
 24 25  1  0  0  0  0 
 12 26  1  0  0  0  0 
 26 27  1  0  0  0  0 
 27 28  1  0  0  0  0 
 27 29  1  0  0  0  0 
 27 30  1  0  0  0  0 
 30 31  1  0  0  0  0 
 30 32  1  0  0  0  0 
 30 33  1  0  0  0  0 
 33 34  1  0  0  0  0 
 34 35  1  0  0  0  0 
 34 36  1  0  0  0  0 
 34 37  1  0  0  0  0 
 26 37  1  0  0  0  0 
 37 38  1  0  0  0  0 
 37 39  1  0  0  0  0 
 33 40  1  0  0  0  0 
 40 41  1  0  0  0  0 
 40 42  1  0  0  0  0 
 40 43  1  0  0  0  0 
 43 44  1  0  0  0  0 
 43 45  1  0  0  0  0 
 43 46  1  0  0  0  0 
 46 47  1  0  0  0  0 
 47 48  1  0  0  0  0 
 47 49  1  0  0  0  0 
 47 50  1  0  0  0  0 
 50 51  1  0  0  0  0 
 50 52  1  0  0  0  0 
 50 53  1  0  0  0  0 
 53 54  1  0  0  0  0 
M  END
> <Rank>
43

> <Priority_score>
0.009600000000000001

> <Reaction_type>
oxidative dehalogenation benzyl

> <Parent_ID>
85

> <Parent_InChI>
InChI=1S/C21H27ClN2O2/c22-20-8-6-19(7-9-20)21(18-4-2-1-3-5-18)24-12-10-23(11-13-24)14-16-26-17-15-25/h1-9,21,25H,10-17H2

> <Parent_SMILES>
OCCOCCN1CCN(C(c2ccccc2)c2ccc(Cl)cc2)CC1

$$$$
